

  -INDIGO-08031710012D

 20 22  0  0  0  0  0  0  0  0999 V2000
   11.4000    0.0001    0.0000 C   0  0  0  0  0  0  0  0  0  0  0  0
    9.8999    0.0001    0.0000 N   0  0  0  0  0  0  0  0  0  0  0  0
    9.1500    1.2990    0.0000 C   0  0  0  0  0  0  0  0  0  0  0  0
    7.6500    1.2990    0.0000 C   0  0  0  0  0  0  0  0  0  0  0  0
    6.9001    0.0001    0.0000 N   0  0  0  0  0  0  0  0  0  0  0  0
    7.6500   -1.2990    0.0000 C   0  0  0  0  0  0  0  0  0  0  0  0
    9.1500   -1.2990    0.0000 C   0  0  0  0  0  0  0  0  0  0  0  0
    5.4000    0.0001    0.0000 C   0  0  0  0  0  0  0  0  0  0  0  0
    4.6500   -1.2990    0.0000 C   0  0  0  0  0  0  0  0  0  0  0  0
    5.4000   -2.5981    0.0000 C   0  0  0  0  0  0  0  0  0  0  0  0
    4.6500   -3.8971    0.0000 C   0  0  0  0  0  0  0  0  0  0  0  0
    3.1500   -3.8971    0.0000 C   0  0  0  0  0  0  0  0  0  0  0  0
    2.4000   -2.5981    0.0000 C   0  0  0  0  0  0  0  0  0  0  0  0
    3.1500   -1.2990    0.0000 C   0  0  0  0  0  0  0  0  0  0  0  0
    4.6500    1.2990    0.0000 C   0  0  0  0  0  0  0  0  0  0  0  0
    5.4000    2.5981    0.0000 C   0  0  0  0  0  0  0  0  0  0  0  0
    4.6500    3.8971    0.0000 C   0  0  0  0  0  0  0  0  0  0  0  0
    3.1500    3.8971    0.0000 C   0  0  0  0  0  0  0  0  0  0  0  0
    2.4000    2.5981    0.0000 C   0  0  0  0  0  0  0  0  0  0  0  0
    3.1500    1.2990    0.0000 C   0  0  0  0  0  0  0  0  0  0  0  0
  1  2  1  0  0  0  0
  3  2  1  0  0  0  0
  2  7  1  0  0  0  0
  4  3  1  0  0  0  0
  5  4  1  0  0  0  0
  6  5  1  0  0  0  0
  5  8  1  0  0  0  0
  7  6  1  0  0  0  0
  8  9  1  0  0  0  0
  8 15  1  0  0  0  0
 10  9  2  0  0  0  0
  9 14  1  0  0  0  0
 11 10  1  0  0  0  0
 12 11  2  0  0  0  0
 13 12  1  0  0  0  0
 14 13  2  0  0  0  0
 16 15  2  0  0  0  0
 15 20  1  0  0  0  0
 17 16  1  0  0  0  0
 18 17  2  0  0  0  0
 19 18  1  0  0  0  0
 20 19  2  0  0  0  0
M  END
> <Inchi_key>
UVKZSORBKUEBAZ-UHFFFAOYSA-N

> <Source>
Mulliner

> <ID>
HT0562

> <H_MFHB>
1

> <CAS>


> <Cholestasis>


> <Name>
cyclizine lactate;cyclizine

> <Class>
1


$$$$