

  -INDIGO-08031710012D

 24 26  0  0  0  0  0  0  0  0999 V2000
   -1.6245    0.9186    0.0000 C   0  0  0  0  0  0  0  0  0  0  0  0
   -2.3975    2.2039    0.0000 N   0  0  0  0  0  0  0  0  0  0  0  0
   -3.8973    2.1772    0.0000 C   0  0  0  0  0  0  0  0  0  0  0  0
   -1.6708    3.5163    0.0000 C   0  0  0  0  0  0  0  0  0  0  0  0
   -0.1713    3.5431    0.0000 C   0  0  0  0  0  0  0  0  0  0  0  0
    0.5555    4.8553    0.0000 C   0  0  0  0  0  0  0  0  0  0  0  0
    2.0552    4.8823    0.0000 C   0  0  0  0  0  0  0  0  0  0  0  0
    2.1606    3.3858    0.0000 O   0  0  0  0  0  0  0  0  0  0  0  0
    3.6160    3.0235    0.0000 C   0  0  0  0  0  0  0  0  0  0  0  0
    4.4105    4.2960    0.0000 C   0  0  0  0  0  0  0  0  0  0  0  0
    5.8876    4.5572    0.0000 C   0  0  0  0  0  0  0  0  0  0  0  0
    6.4000    5.9669    0.0000 C   0  0  0  0  0  0  0  0  0  0  0  0
    5.4353    7.1157    0.0000 C   0  0  0  0  0  0  0  0  0  0  0  0
    3.9582    6.8544    0.0000 C   0  0  0  0  0  0  0  0  0  0  0  0
    3.4458    5.4447    0.0000 C   0  0  0  0  0  0  0  0  0  0  0  0
    7.8771    6.2280    0.0000 C   0  0  0  0  0  0  0  0  0  0  0  0
    9.3542    6.4892    0.0000 N   0  0  0  0  0  0  0  0  0  0  0  0
    1.3275    6.1937    0.0000 C   0  0  0  0  0  0  0  0  0  0  0  0
   -0.1723    6.2193    0.0000 C   0  0  0  0  0  0  0  0  0  0  0  0
   -0.9000    7.5309    0.0000 C   0  0  0  0  0  0  0  0  0  0  0  0
   -0.1282    8.8170    0.0000 C   0  0  0  0  0  0  0  0  0  0  0  0
   -0.8559   10.1286    0.0000 F   0  0  0  0  0  0  0  0  0  0  0  0
    1.3718    8.7915    0.0000 C   0  0  0  0  0  0  0  0  0  0  0  0
    2.0995    7.4799    0.0000 C   0  0  0  0  0  0  0  0  0  0  0  0
  1  2  1  0  0  0  0
  2  3  1  0  0  0  0
  2  4  1  0  0  0  0
  4  5  1  0  0  0  0
  5  6  1  0  0  0  0
  6  7  1  0  0  0  0
  8  7  1  0  0  0  0
  7 15  1  0  0  0  0
  7 18  1  0  0  0  0
  9  8  1  0  0  0  0
 10  9  1  0  0  0  0
 11 10  1  0  0  0  0
 10 15  2  0  0  0  0
 12 11  2  0  0  0  0
 13 12  1  0  0  0  0
 12 16  1  0  0  0  0
 14 13  2  0  0  0  0
 15 14  1  0  0  0  0
 16 17  3  0  0  0  0
 19 18  2  0  0  0  0
 18 24  1  0  0  0  0
 20 19  1  0  0  0  0
 21 20  2  0  0  0  0
 21 22  1  0  0  0  0
 23 21  1  0  0  0  0
 24 23  2  0  0  0  0
M  END
> <Inchi_key>
WSEQXVZVJXJVFP-UHFFFAOYSA-N

> <Source>
Mulliner

> <ID>
HT0501

> <H_MFHB>
1

> <CAS>


> <Cholestasis>


> <Name>
citalopram hydrobromide;escitalopram oxalate;escitalopram

> <Class>
1


$$$$