
  -INDIGO-08031710012D

 21 21  0  0  0  0  0  0  0  0999 V2000
    0.1745    0.6792    0.0000 C   0  0  0  0  0  0  0  0  0  0  0  0
    1.4888   -0.0435    0.0000 N   0  0  0  0  0  0  0  0  0  0  0  0
    1.5201   -1.5432    0.0000 C   0  0  0  0  0  0  0  0  0  0  0  0
    0.2371   -2.3202    0.0000 C   0  0  0  0  0  0  0  0  0  0  0  0
    0.2684   -3.8198    0.0000 N   0  0  0  0  0  0  0  0  0  0  0  0
    1.5827   -4.5425    0.0000 O   0  0  0  0  0  0  0  0  0  0  0  0
   -1.0147   -4.5968    0.0000 O   0  0  0  0  0  0  0  0  0  0  0  0
    2.8347   -2.2659    0.0000 N   0  0  0  0  0  0  0  0  0  0  0  0
    4.1178   -1.4889    0.0000 C   0  0  0  0  0  0  0  0  0  0  0  0
    5.4321   -2.2116    0.0000 C   0  0  0  0  0  0  0  0  0  0  0  0
    6.7152   -1.4346    0.0000 S   0  0  0  0  0  0  0  0  0  0  0  0
    8.0295   -2.1573    0.0000 C   0  0  0  0  0  0  0  0  0  0  0  0
    9.3128   -1.3804    0.0000 C   0  0  0  0  0  0  0  0  0  0  0  0
    9.4382    0.1144    0.0000 C   0  0  0  0  0  0  0  0  0  0  0  0
   10.8987    0.4568    0.0000 S   0  0  0  0  0  0  0  0  0  0  0  0
   11.6756   -0.8263    0.0000 C   0  0  0  0  0  0  0  0  0  0  0  0
   13.1703   -0.9518    0.0000 C   0  0  0  0  0  0  0  0  0  0  0  0
   14.0264    0.2798    0.0000 N   0  0  0  0  0  0  0  0  0  0  0  0
   15.5212    0.1542    0.0000 C   0  0  0  0  0  0  0  0  0  0  0  0
   13.3878    1.6371    0.0000 C   0  0  0  0  0  0  0  0  0  0  0  0
   10.6955   -1.9617    0.0000 N   0  0  0  0  0  0  0  0  0  0  0  0
  1  2  1  0  0  0  0
  2  3  1  0  0  0  0
  3  4  2  0  0  0  0
  3  8  1  0  0  0  0
  4  5  1  0  0  0  0
  5  6  2  0  0  0  0
  5  7  1  0  0  0  0
  8  9  1  0  0  0  0
  9 10  1  0  0  0  0
 10 11  1  0  0  0  0
 11 12  1  0  0  0  0
 12 13  1  0  0  0  0
 14 13  2  0  0  0  0
 13 21  1  0  0  0  0
 15 14  1  0  0  0  0
 16 15  1  0  0  0  0
 16 17  1  0  0  0  0
 21 16  2  0  0  0  0
 17 18  1  0  0  0  0
 18 19  1  0  0  0  0
 18 20  1  0  0  0  0
M  CHG  2   5   1   7  -1
M  END
> <Inchi_key>
SGXXNSQHWDMGGP-WDZFZDKYSA-N

> <Source>
Mulliner

> <ID>
HT1513

> <H_MFHB>
1

> <CAS>
76963-41-2

> <Cholestasis>


> <Name>
nizatidine

> <Class>
1

$$$$