

  -INDIGO-08031710012D

 21 23  0  0  0  0  0  0  0  0999 V2000
    6.5759   -4.1036    0.0000 C   0  0  0  0  0  0  0  0  0  0  0  0
    6.6137   -5.6031    0.0000 N   0  0  0  0  0  0  0  0  0  0  0  0
    7.9313   -6.3200    0.0000 C   0  0  0  0  0  0  0  0  0  0  0  0
    5.3341   -6.3857    0.0000 C   0  0  0  0  0  0  0  0  0  0  0  0
    4.0164   -5.6689    0.0000 C   0  0  0  0  0  0  0  0  0  0  0  0
    2.7368   -6.4514    0.0000 C   0  0  0  0  0  0  0  0  0  0  0  0
    1.4192   -5.7345    0.0000 N   0  0  0  0  0  0  0  0  0  0  0  0
    0.0646   -6.3790    0.0000 C   0  0  0  0  0  0  0  0  0  0  0  0
    0.0242   -7.8785    0.0000 C   0  0  0  0  0  0  0  0  0  0  0  0
   -1.0648   -8.9101    0.0000 C   0  0  0  0  0  0  0  0  0  0  0  0
   -2.5643   -8.8695    0.0000 C   0  0  0  0  0  0  0  0  0  0  0  0
   -3.5959   -7.7805    0.0000 C   0  0  0  0  0  0  0  0  0  0  0  0
   -3.5553   -6.2810    0.0000 C   0  0  0  0  0  0  0  0  0  0  0  0
   -2.4663   -5.2495    0.0000 C   0  0  0  0  0  0  0  0  0  0  0  0
   -0.9668   -5.2901    0.0000 C   0  0  0  0  0  0  0  0  0  0  0  0
   -0.2499   -3.9725    0.0000 C   0  0  0  0  0  0  0  0  0  0  0  0
   -0.7494   -2.5580    0.0000 C   0  0  0  0  0  0  0  0  0  0  0  0
    0.2257   -1.4183    0.0000 C   0  0  0  0  0  0  0  0  0  0  0  0
    1.7004   -1.6930    0.0000 C   0  0  0  0  0  0  0  0  0  0  0  0
    2.2000   -3.1075    0.0000 C   0  0  0  0  0  0  0  0  0  0  0  0
    1.2246   -4.2471    0.0000 C   0  0  0  0  0  0  0  0  0  0  0  0
  1  2  1  0  0  0  0
  2  3  1  0  0  0  0
  2  4  1  0  0  0  0
  4  5  1  0  0  0  0
  5  6  1  0  0  0  0
  6  7  1  0  0  0  0
  8  7  1  0  0  0  0
  7 21  1  0  0  0  0
  9  8  1  0  0  0  0
  8 15  2  0  0  0  0
 10  9  1  0  0  0  0
 11 10  1  0  0  0  0
 12 11  1  0  0  0  0
 13 12  1  0  0  0  0
 14 13  1  0  0  0  0
 15 14  1  0  0  0  0
 16 15  1  0  0  0  0
 17 16  1  0  0  0  0
 16 21  2  0  0  0  0
 18 17  2  0  0  0  0
 19 18  1  0  0  0  0
 20 19  2  0  0  0  0
 21 20  1  0  0  0  0
M  END
> <Inchi_key>
PLIGPBGDXASWPX-UHFFFAOYSA-N

> <Source>
Mulliner

> <ID>
HT1121

> <H_MFHB>
1

> <CAS>


> <Cholestasis>


> <Name>
iprindole

> <Class>
1


$$$$