
  -INDIGO-08031710012D

 23 25  0  0  0  0  0  0  0  0999 V2000
    0.1375    0.5132    0.0000 N   0  0  0  0  0  0  0  0  0  0  0  0
    1.4366   -0.2368    0.0000 S   0  0  0  0  0  0  0  0  0  0  0  0
    2.1866    1.0623    0.0000 O   0  0  0  0  0  0  0  0  0  0  0  0
    0.6866   -1.5358    0.0000 O   0  0  0  0  0  0  0  0  0  0  0  0
    2.7356   -0.9868    0.0000 C   0  0  0  0  0  0  0  0  0  0  0  0
    4.0347   -0.2368    0.0000 C   0  0  0  0  0  0  0  0  0  0  0  0
    5.3336   -0.9868    0.0000 C   0  0  0  0  0  0  0  0  0  0  0  0
    5.3336   -2.4868    0.0000 C   0  0  0  0  0  0  0  0  0  0  0  0
    6.6328   -3.2368    0.0000 N   0  0  0  0  0  0  0  0  0  0  0  0
    7.9317   -2.4868    0.0000 C   0  0  0  0  0  0  0  0  0  0  0  0
    9.2308   -3.2368    0.0000 C   0  0  0  0  0  0  0  0  0  0  0  0
   10.5298   -2.4868    0.0000 C   0  0  0  0  0  0  0  0  0  0  0  0
   11.9002   -3.0969    0.0000 C   0  0  0  0  0  0  0  0  0  0  0  0
   12.9038   -1.9822    0.0000 C   0  0  0  0  0  0  0  0  0  0  0  0
   12.1538   -0.6831    0.0000 C   0  0  0  0  0  0  0  0  0  0  0  0
   10.6866   -0.9950    0.0000 C   0  0  0  0  0  0  0  0  0  0  0  0
    7.9317   -0.9868    0.0000 N   0  0  0  0  0  0  0  0  0  0  0  0
    6.6328   -0.2368    0.0000 S   0  0  0  0  0  0  0  0  0  0  0  0
    5.8828    1.0623    0.0000 O   0  0  0  0  0  0  0  0  0  0  0  0
    7.3827    1.0623    0.0000 O   0  0  0  0  0  0  0  0  0  0  0  0
    4.0347   -3.2368    0.0000 C   0  0  0  0  0  0  0  0  0  0  0  0
    2.7356   -2.4868    0.0000 C   0  0  0  0  0  0  0  0  0  0  0  0
    1.4366   -3.2368    0.0000 Cl  0  0  0  0  0  0  0  0  0  0  0  0
  1  2  1  0  0  0  0
  2  3  2  0  0  0  0
  2  4  2  0  0  0  0
  2  5  1  0  0  0  0
  6  5  2  0  0  0  0
  5 22  1  0  0  0  0
  7  6  1  0  0  0  0
  7  8  2  0  0  0  0
 18  7  1  0  0  0  0
  8  9  1  0  0  0  0
 21  8  1  0  0  0  0
  9 10  1  0  0  0  0
 10 11  1  0  0  0  0
 10 17  1  0  0  0  0
 11 12  1  0  0  0  0
 13 12  1  0  0  0  0
 12 16  1  0  0  0  0
 14 13  1  0  0  0  0
 15 14  1  0  0  0  0
 16 15  1  0  0  0  0
 17 18  1  0  0  0  0
 18 19  2  0  0  0  0
 18 20  2  0  0  0  0
 22 21  2  0  0  0  0
 22 23  1  0  0  0  0
M  END
> <Inchi_key>
BKYKPTRYDKTTJY-UHFFFAOYSA-N

> <Source>
Mulliner

> <ID>
HT0566

> <H_MFHB>
1

> <CAS>


> <Cholestasis>


> <Name>
cyclopenthiazide

> <Class>
1

$$$$