
  -INDIGO-08031710012D

 37 40  0  0  0  0  0  0  0  0999 V2000
   -0.7696   -1.8111    0.0000 C   0  0  0  0  0  0  0  0  0  0  0  0
    0.6792   -1.4231    0.0000 C   0  0  0  0  0  0  0  0  0  0  0  0
    2.1281   -1.0349    0.0000 C   0  0  0  0  0  0  0  0  0  0  0  0
    1.0676   -2.8720    0.0000 O   0  0  0  0  0  0  0  0  0  0  0  0
    2.5164   -3.2600    0.0000 N   0  0  0  0  0  0  0  0  0  0  0  0
    2.9047   -4.7091    0.0000 C   0  0  0  0  0  0  0  0  0  0  0  0
    4.3535   -5.0971    0.0000 C   0  0  0  0  0  0  0  0  0  0  0  0
    4.7416   -6.5460    0.0000 O   0  0  0  0  0  0  0  0  0  0  0  0
    5.4141   -4.0366    0.0000 N   0  0  0  0  0  0  0  0  0  0  0  0
    6.8629   -4.4248    0.0000 C   0  0  0  0  0  0  0  0  0  0  0  0
    8.1621   -3.6748    0.0000 C   0  0  0  0  0  0  0  0  0  0  0  0
    8.9120   -2.3758    0.0000 S   0  0  0  0  0  0  0  0  0  0  0  0
   10.4122   -2.3758    0.0000 C   0  0  0  0  0  0  0  0  0  0  0  0
   11.1621   -3.6748    0.0000 C   0  0  0  0  0  0  0  0  0  0  0  0
   10.4122   -4.9739    0.0000 C   0  0  0  0  0  0  0  0  0  0  0  0
    8.9120   -4.9739    0.0000 N   0  0  0  0  0  0  0  0  0  0  0  0
    7.6131   -5.7239    0.0000 C   0  0  0  0  0  0  0  0  0  0  0  0
    7.2248   -7.1727    0.0000 O   0  0  0  0  0  0  0  0  0  0  0  0
   11.1621   -6.2729    0.0000 C   0  0  0  0  0  0  0  0  0  0  0  0
   12.6620   -6.2729    0.0000 O   0  0  0  0  0  0  0  0  0  0  0  0
   10.4122   -7.5719    0.0000 O   0  0  0  0  0  0  0  0  0  0  0  0
   12.6620   -3.6748    0.0000 C   0  0  0  0  0  0  0  0  0  0  0  0
   13.4120   -2.3758    0.0000 N   0  0  0  0  0  0  0  0  0  0  0  0
   14.9121   -2.3758    0.0000 C   0  0  0  0  0  0  0  0  0  0  0  0
   15.6621   -1.0767    0.0000 C   0  0  0  0  0  0  0  0  0  0  0  0
   14.9121    0.2223    0.0000 C   0  0  0  0  0  0  0  0  0  0  0  0
   13.4120    0.2223    0.0000 C   0  0  0  0  0  0  0  0  0  0  0  0
   12.6620   -1.0767    0.0000 C   0  0  0  0  0  0  0  0  0  0  0  0
    1.8440   -5.7698    0.0000 C   0  0  0  0  0  0  0  0  0  0  0  0
    0.3623   -5.5350    0.0000 C   0  0  0  0  0  0  0  0  0  0  0  0
   -0.3186   -6.8714    0.0000 S   0  0  0  0  0  0  0  0  0  0  0  0
    0.7421   -7.9321    0.0000 C   0  0  0  0  0  0  0  0  0  0  0  0
    0.5073   -9.4137    0.0000 N   0  0  0  0  0  0  0  0  0  0  0  0
    2.0785   -7.2512    0.0000 N   0  0  0  0  0  0  0  0  0  0  0  0
    0.2909    0.0258    0.0000 C   0  0  0  0  0  0  0  0  0  0  0  0
   -1.1579    0.4140    0.0000 O   0  0  0  0  0  0  0  0  0  0  0  0
    1.3517    1.0865    0.0000 O   0  0  0  0  0  0  0  0  0  0  0  0
  1  2  1  0  0  0  0
  2  3  1  0  0  0  0
  2  4  1  0  0  0  0
  2 35  1  0  0  0  0
  4  5  1  0  0  0  0
  5  6  2  0  0  0  0
  6  7  1  0  0  0  0
  6 29  1  0  0  0  0
  7  8  2  0  0  0  0
  7  9  1  0  0  0  0
  9 10  1  0  0  0  0
 11 10  1  0  0  0  0
 10 17  1  0  0  0  0
 12 11  1  0  0  0  0
 11 16  1  0  0  0  0
 13 12  1  0  0  0  0
 14 13  1  0  0  0  0
 15 14  2  0  0  0  0
 14 22  1  0  0  0  0
 16 15  1  0  0  0  0
 15 19  1  0  0  0  0
 17 16  1  0  0  0  0
 17 18  2  0  0  0  0
 19 20  2  0  0  0  0
 19 21  1  0  0  0  0
 22 23  1  0  0  0  0
 24 23  2  0  0  0  0
 23 28  1  0  0  0  0
 25 24  1  0  0  0  0
 26 25  2  0  0  0  0
 27 26  1  0  0  0  0
 28 27  2  0  0  0  0
 30 29  2  0  0  0  0
 29 34  1  0  0  0  0
 31 30  1  0  0  0  0
 32 31  1  0  0  0  0
 32 33  1  0  0  0  0
 34 32  2  0  0  0  0
 35 36  2  0  0  0  0
 35 37  1  0  0  0  0
M  CHG  2  23   1  37  -1
M  END
> <Inchi_key>
ORFOPKXBNMVMKC-LGJNPRDNSA-N

> <Source>
Mulliner

> <ID>
HT0423

> <H_MFHB>
1

> <CAS>
72558-82-8

> <Cholestasis>


> <Name>
ceftazidime;ceftazidime sodium

> <Class>
1

$$$$