

  -INDIGO-08031710012D

 23 25  0  0  0  0  0  0  0  0999 V2000
   12.4783    3.3436    0.0000 C   0  0  0  0  0  0  0  0  0  0  0  0
   11.1794    2.5936    0.0000 C   0  0  0  0  0  0  0  0  0  0  0  0
    9.8803    3.3436    0.0000 C   0  0  0  0  0  0  0  0  0  0  0  0
    8.5811    2.5936    0.0000 C   0  0  0  0  0  0  0  0  0  0  0  0
    7.2822    3.3436    0.0000 C   0  0  0  0  0  0  0  0  0  0  0  0
    7.1254    4.8353    0.0000 C   0  0  0  0  0  0  0  0  0  0  0  0
    8.2402    5.8390    0.0000 O   0  0  0  0  0  0  0  0  0  0  0  0
    5.6581    5.1471    0.0000 N   0  0  0  0  0  0  0  0  0  0  0  0
    4.9082    3.8482    0.0000 N   0  0  0  0  0  0  0  0  0  0  0  0
    5.9118    2.7335    0.0000 C   0  0  0  0  0  0  0  0  0  0  0  0
    5.6000    1.2662    0.0000 O   0  0  0  0  0  0  0  0  0  0  0  0
    3.4165    3.6914    0.0000 C   0  0  0  0  0  0  0  0  0  0  0  0
    2.5348    4.9049    0.0000 C   0  0  0  0  0  0  0  0  0  0  0  0
    1.0428    4.7481    0.0000 C   0  0  0  0  0  0  0  0  0  0  0  0
    0.4328    3.3778    0.0000 C   0  0  0  0  0  0  0  0  0  0  0  0
    1.3145    2.1642    0.0000 C   0  0  0  0  0  0  0  0  0  0  0  0
    2.8062    2.3211    0.0000 C   0  0  0  0  0  0  0  0  0  0  0  0
    5.0481    6.5175    0.0000 C   0  0  0  0  0  0  0  0  0  0  0  0
    3.5563    6.6743    0.0000 C   0  0  0  0  0  0  0  0  0  0  0  0
    2.9461    8.0446    0.0000 C   0  0  0  0  0  0  0  0  0  0  0  0
    3.8278    9.2582    0.0000 C   0  0  0  0  0  0  0  0  0  0  0  0
    5.3196    9.1014    0.0000 C   0  0  0  0  0  0  0  0  0  0  0  0
    5.9298    7.7310    0.0000 C   0  0  0  0  0  0  0  0  0  0  0  0
  1  2  1  0  0  0  0
  2  3  1  0  0  0  0
  3  4  1  0  0  0  0
  4  5  1  0  0  0  0
  6  5  1  0  0  0  0
  5 10  1  0  0  0  0
  6  7  2  0  0  0  0
  8  6  1  0  0  0  0
  9  8  1  0  0  0  0
  8 18  1  0  0  0  0
 10  9  1  0  0  0  0
  9 12  1  0  0  0  0
 10 11  2  0  0  0  0
 13 12  2  0  0  0  0
 12 17  1  0  0  0  0
 14 13  1  0  0  0  0
 15 14  2  0  0  0  0
 16 15  1  0  0  0  0
 17 16  2  0  0  0  0
 19 18  2  0  0  0  0
 18 23  1  0  0  0  0
 20 19  1  0  0  0  0
 21 20  2  0  0  0  0
 22 21  1  0  0  0  0
 23 22  2  0  0  0  0
M  END
> <Inchi_key>
VYMDGNCVAMGZFE-UHFFFAOYSA-N

> <Source>
Mulliner , Kotsampasakou

> <ID>
EK0420;HT1660

> <H_MFHB>
1

> <CAS>
50-33-9

> <Cholestasis>
1

> <Name>
phenylbutazone;pyrazinobutazone

> <Class>
1


$$$$