
  -INDIGO-08031710012D

 17 17  0  0  0  0  0  0  0  0999 V2000
   11.7224   -2.6825    0.0000 C   0  0  0  0  0  0  0  0  0  0  0  0
   10.4235   -1.9325    0.0000 C   0  0  0  0  0  0  0  0  0  0  0  0
   10.4235   -0.4325    0.0000 N   0  0  0  0  0  0  0  0  0  0  0  0
   11.7224    0.3175    0.0000 C   0  0  0  0  0  0  0  0  0  0  0  0
   11.7224    1.8175    0.0000 C   0  0  0  0  0  0  0  0  0  0  0  0
    9.1242    0.3175    0.0000 C   0  0  0  0  0  0  0  0  0  0  0  0
    7.8253   -0.4325    0.0000 C   0  0  0  0  0  0  0  0  0  0  0  0
    6.5262    0.3175    0.0000 N   0  0  0  0  0  0  0  0  0  0  0  0
    5.2271   -0.4325    0.0000 C   0  0  0  0  0  0  0  0  0  0  0  0
    5.2271   -1.9325    0.0000 O   0  0  0  0  0  0  0  0  0  0  0  0
    3.9282    0.3175    0.0000 C   0  0  0  0  0  0  0  0  0  0  0  0
    3.9282    1.8175    0.0000 C   0  0  0  0  0  0  0  0  0  0  0  0
    2.6291    2.5675    0.0000 C   0  0  0  0  0  0  0  0  0  0  0  0
    1.3300    1.8175    0.0000 C   0  0  0  0  0  0  0  0  0  0  0  0
    0.0311    2.5675    0.0000 N   0  0  0  0  0  0  0  0  0  0  0  0
    1.3300    0.3175    0.0000 C   0  0  0  0  0  0  0  0  0  0  0  0
    2.6291   -0.4325    0.0000 C   0  0  0  0  0  0  0  0  0  0  0  0
  1  2  1  0  0  0  0
  2  3  1  0  0  0  0
  3  4  1  0  0  0  0
  3  6  1  0  0  0  0
  4  5  1  0  0  0  0
  6  7  1  0  0  0  0
  7  8  1  0  0  0  0
  8  9  1  0  0  0  0
  9 10  2  0  0  0  0
  9 11  1  0  0  0  0
 12 11  2  0  0  0  0
 11 17  1  0  0  0  0
 13 12  1  0  0  0  0
 14 13  2  0  0  0  0
 14 15  1  0  0  0  0
 16 14  1  0  0  0  0
 17 16  2  0  0  0  0
M  END
> <Inchi_key>
REQCZEXYDRLIBE-UHFFFAOYSA-N

> <Source>
Mulliner

> <ID>
HT1743

> <H_MFHB>
1

> <CAS>


> <Cholestasis>


> <Name>
procainamide hydrochloride;procainamide

> <Class>
1

$$$$