
  -INDIGO-08031710012D

 43 49  0  0  0  0  0  0  0  0999 V2000
    3.7323    3.1910    0.0000 C   0  0  0  0  0  0  0  0  0  0  0  0
    4.4390    1.8679    0.0000 C   0  0  0  0  0  0  0  0  0  0  0  0
    3.6464    0.5945    0.0000 C   0  0  0  0  0  0  0  0  0  0  0  0
    2.1474    0.6441    0.0000 C   0  0  0  0  0  0  0  0  0  0  0  0
    1.1809    1.7914    0.0000 C   0  0  0  0  0  0  0  0  0  0  0  0
   -0.2088    1.2270    0.0000 N   0  0  0  0  0  0  0  0  0  0  0  0
   -1.5580    1.8823    0.0000 C   0  0  0  0  0  0  0  0  0  0  0  0
   -1.6655    3.3783    0.0000 O   0  0  0  0  0  0  0  0  0  0  0  0
   -2.8002    1.0412    0.0000 C   0  0  0  0  0  0  0  0  0  0  0  0
   -2.6928   -0.4550    0.0000 C   0  0  0  0  0  0  0  0  0  0  0  0
   -1.3435   -1.1101    0.0000 C   0  0  0  0  0  0  0  0  0  0  0  0
   -0.1017   -0.2691    0.0000 C   0  0  0  0  0  0  0  0  0  0  0  0
    1.3547   -0.6294    0.0000 C   0  0  0  0  0  0  0  0  0  0  0  0
    2.0610   -1.9526    0.0000 N   0  0  0  0  0  0  0  0  0  0  0  0
    3.5604   -2.0023    0.0000 C   0  0  0  0  0  0  0  0  0  0  0  0
    4.2667   -3.3255    0.0000 C   0  0  0  0  0  0  0  0  0  0  0  0
    5.7661   -3.3751    0.0000 C   0  0  0  0  0  0  0  0  0  0  0  0
    6.5587   -2.1017    0.0000 C   0  0  0  0  0  0  0  0  0  0  0  0
    8.0577   -2.1513    0.0000 O   0  0  0  0  0  0  0  0  0  0  0  0
    8.7644   -3.4745    0.0000 C   0  0  0  0  0  0  0  0  0  0  0  0
    7.9718   -4.7480    0.0000 O   0  0  0  0  0  0  0  0  0  0  0  0
   10.2634   -3.5242    0.0000 N   0  0  0  0  0  0  0  0  0  0  0  0
   10.9701   -4.8474    0.0000 C   0  0  0  0  0  0  0  0  0  0  0  0
   12.4695   -4.8970    0.0000 C   0  0  0  0  0  0  0  0  0  0  0  0
   13.2618   -3.6236    0.0000 C   0  0  0  0  0  0  0  0  0  0  0  0
   12.5555   -2.3004    0.0000 C   0  0  0  0  0  0  0  0  0  0  0  0
   11.0561   -2.2507    0.0000 C   0  0  0  0  0  0  0  0  0  0  0  0
   14.7611   -3.6732    0.0000 N   0  0  0  0  0  0  0  0  0  0  0  0
   15.5538   -2.3998    0.0000 C   0  0  0  0  0  0  0  0  0  0  0  0
   17.0528   -2.4494    0.0000 C   0  0  0  0  0  0  0  0  0  0  0  0
   17.7595   -3.7726    0.0000 C   0  0  0  0  0  0  0  0  0  0  0  0
   16.9668   -5.0461    0.0000 C   0  0  0  0  0  0  0  0  0  0  0  0
   15.4678   -4.9964    0.0000 C   0  0  0  0  0  0  0  0  0  0  0  0
    5.8521   -0.7786    0.0000 C   0  0  0  0  0  0  0  0  0  0  0  0
    4.3531   -0.7288    0.0000 C   0  0  0  0  0  0  0  0  0  0  0  0
   -3.9349   -1.2960    0.0000 C   0  0  0  0  0  0  0  0  0  0  0  0
   -4.6079   -2.6366    0.0000 O   0  0  0  0  0  0  0  0  0  0  0  0
   -3.1211   -2.5561    0.0000 C   0  0  0  0  0  0  0  0  0  0  0  0
   -3.8056   -3.8908    0.0000 C   0  0  0  0  0  0  0  0  0  0  0  0
   -5.2842   -0.6408    0.0000 C   0  0  0  0  0  0  0  0  0  0  0  0
   -6.5264   -1.4818    0.0000 O   0  0  0  0  0  0  0  0  0  0  0  0
   -5.3917    0.8553    0.0000 O   0  0  0  0  0  0  0  0  0  0  0  0
   -4.1495    1.6962    0.0000 C   0  0  0  0  0  0  0  0  0  0  0  0
  1  2  1  0  0  0  0
  2  3  1  0  0  0  0
  4  3  2  0  0  0  0
  3 35  1  0  0  0  0
  5  4  1  0  0  0  0
  4 13  1  0  0  0  0
  6  5  1  0  0  0  0
  7  6  1  0  0  0  0
  6 12  1  0  0  0  0
  7  8  2  0  0  0  0
  9  7  1  0  0  0  0
  9 10  2  0  0  0  0
 43  9  1  0  0  0  0
 11 10  1  0  0  0  0
 10 36  1  0  0  0  0
 12 11  2  0  0  0  0
 13 12  1  0  0  0  0
 14 13  2  0  0  0  0
 15 14  1  0  0  0  0
 16 15  1  0  0  0  0
 15 35  2  0  0  0  0
 17 16  2  0  0  0  0
 18 17  1  0  0  0  0
 18 19  1  0  0  0  0
 34 18  2  0  0  0  0
 19 20  1  0  0  0  0
 20 21  2  0  0  0  0
 20 22  1  0  0  0  0
 23 22  1  0  0  0  0
 22 27  1  0  0  0  0
 24 23  1  0  0  0  0
 25 24  1  0  0  0  0
 26 25  1  0  0  0  0
 25 28  1  0  0  0  0
 27 26  1  0  0  0  0
 29 28  1  0  0  0  0
 28 33  1  0  0  0  0
 30 29  1  0  0  0  0
 31 30  1  0  0  0  0
 32 31  1  0  0  0  0
 33 32  1  0  0  0  0
 35 34  1  0  0  0  0
 36 37  1  0  0  0  0
 36 38  1  0  0  0  0
 36 40  1  0  0  0  0
 38 39  1  0  0  0  0
 40 41  2  0  0  0  0
 40 42  1  0  0  0  0
 42 43  1  0  0  0  0
M  END
> <Inchi_key>
UWKQSNNFCGGAFS-UHFFFAOYSA-N

> <Source>
Mulliner

> <ID>
HT1124

> <H_MFHB>
1

> <CAS>
100286-90-6

> <Cholestasis>


> <Name>
irinotecan hydrochloride;irinotecan

> <Class>
1

$$$$