

  -INDIGO-08031710012D

 21 21  0  0  0  0  0  0  0  0999 V2000
   14.1981   -8.1973    0.0000 C   0  0  0  0  0  0  0  0  0  0  0  0
   13.4482   -6.8983    0.0000 C   0  0  0  0  0  0  0  0  0  0  0  0
   11.9480   -6.8983    0.0000 C   0  0  0  0  0  0  0  0  0  0  0  0
   11.1981   -5.5992    0.0000 C   0  0  0  0  0  0  0  0  0  0  0  0
    9.6982   -5.5992    0.0000 C   0  0  0  0  0  0  0  0  0  0  0  0
    8.9480   -6.8983    0.0000 O   0  0  0  0  0  0  0  0  0  0  0  0
    8.9480   -4.3002    0.0000 C   0  0  0  0  0  0  0  0  0  0  0  0
    7.4481   -4.3002    0.0000 C   0  0  0  0  0  0  0  0  0  0  0  0
    6.6982   -3.0011    0.0000 C   0  0  0  0  0  0  0  0  0  0  0  0
    6.6982   -5.5992    0.0000 C   0  0  0  0  0  0  0  0  0  0  0  0
    5.1980   -5.5992    0.0000 C   0  0  0  0  0  0  0  0  0  0  0  0
    4.4481   -6.8983    0.0000 C   0  0  0  0  0  0  0  0  0  0  0  0
    2.9482   -6.8983    0.0000 C   0  0  0  0  0  0  0  0  0  0  0  0
    2.1980   -8.1973    0.0000 C   0  0  0  0  0  0  0  0  0  0  0  0
    2.9482   -9.4963    0.0000 O   0  0  0  0  0  0  0  0  0  0  0  0
    0.6981   -8.1973    0.0000 N   0  0  0  0  0  0  0  0  0  0  0  0
   -0.1835   -6.9838    0.0000 C   0  0  0  0  0  0  0  0  0  0  0  0
   -1.6101   -7.4474    0.0000 C   0  0  0  0  0  0  0  0  0  0  0  0
   -1.6101   -8.9473    0.0000 C   0  0  0  0  0  0  0  0  0  0  0  0
   -0.1835   -9.4108    0.0000 C   0  0  0  0  0  0  0  0  0  0  0  0
    0.2801  -10.8374    0.0000 O   0  0  0  0  0  0  0  0  0  0  0  0
  1  2  1  0  0  0  0
  2  3  1  0  0  0  0
  3  4  1  0  0  0  0
  4  5  1  0  0  0  0
  5  6  1  0  0  0  0
  5  7  1  0  0  0  0
  7  8  2  0  0  0  0
  8  9  1  0  0  0  0
  8 10  1  0  0  0  0
 10 11  2  0  0  0  0
 11 12  1  0  0  0  0
 12 13  2  0  0  0  0
 13 14  1  0  0  0  0
 14 15  2  0  0  0  0
 14 16  1  0  0  0  0
 17 16  1  0  0  0  0
 16 20  1  0  0  0  0
 18 17  1  0  0  0  0
 19 18  1  0  0  0  0
 20 19  1  0  0  0  0
 20 21  2  0  0  0  0
M  END
> <Inchi_key>
ZYPGADGCNXOUJP-MGZCYOHPSA-N

> <Source>
Mulliner

> <ID>
HT1604

> <H_MFHB>
1

> <CAS>


> <Cholestasis>


> <Name>
pecilocin

> <Class>
1


$$$$