

  -INDIGO-08031710012D

 13 13  0  0  0  0  0  0  0  0999 V2000
    8.3621    2.3560    0.0000 C   0  0  0  0  0  0  0  0  0  0  0  0
    7.0630    3.1060    0.0000 C   0  0  0  0  0  0  0  0  0  0  0  0
    7.0630    4.6060    0.0000 N   0  0  0  0  0  0  0  0  0  0  0  0
    5.7640    2.3560    0.0000 C   0  0  0  0  0  0  0  0  0  0  0  0
    4.4649    3.1060    0.0000 O   0  0  0  0  0  0  0  0  0  0  0  0
    3.1659    2.3560    0.0000 C   0  0  0  0  0  0  0  0  0  0  0  0
    3.1659    0.8560    0.0000 C   0  0  0  0  0  0  0  0  0  0  0  0
    4.4649    0.1060    0.0000 C   0  0  0  0  0  0  0  0  0  0  0  0
    1.8669    0.1060    0.0000 C   0  0  0  0  0  0  0  0  0  0  0  0
    0.5678    0.8560    0.0000 C   0  0  0  0  0  0  0  0  0  0  0  0
    0.5678    2.3560    0.0000 C   0  0  0  0  0  0  0  0  0  0  0  0
    1.8669    3.1060    0.0000 C   0  0  0  0  0  0  0  0  0  0  0  0
    1.8669    4.6060    0.0000 C   0  0  0  0  0  0  0  0  0  0  0  0
  1  2  1  0  0  0  0
  2  3  1  0  0  0  0
  2  4  1  0  0  0  0
  4  5  1  0  0  0  0
  5  6  1  0  0  0  0
  7  6  2  0  0  0  0
  6 12  1  0  0  0  0
  7  8  1  0  0  0  0
  9  7  1  0  0  0  0
 10  9  2  0  0  0  0
 11 10  1  0  0  0  0
 12 11  2  0  0  0  0
 12 13  1  0  0  0  0
M  END
> <Inchi_key>
VLPIATFUUWWMKC-UHFFFAOYSA-N

> <Source>
Mulliner

> <ID>
HT1387

> <H_MFHB>
1

> <CAS>
1267397

> <Cholestasis>


> <Name>
mexiletine hydrochloride;mexiletine

> <Class>
1


$$$$