

  -INDIGO-08031710012D

 22 23  0  0  0  0  0  0  0  0999 V2000
   11.5735   -0.6773    0.0000 C   0  0  0  0  0  0  0  0  0  0  0  0
   10.0837   -0.5023    0.0000 C   0  0  0  0  0  0  0  0  0  0  0  0
   10.6286   -1.8998    0.0000 C   0  0  0  0  0  0  0  0  0  0  0  0
   10.0758    0.9977    0.0000 N   0  0  0  0  0  0  0  0  0  0  0  0
    8.6468    1.4537    0.0000 C   0  0  0  0  0  0  0  0  0  0  0  0
    8.1757    2.8778    0.0000 O   0  0  0  0  0  0  0  0  0  0  0  0
    7.7715    0.2355    0.0000 N   0  0  0  0  0  0  0  0  0  0  0  0
    8.6596   -0.9734    0.0000 C   0  0  0  0  0  0  0  0  0  0  0  0
    8.2036   -2.4024    0.0000 O   0  0  0  0  0  0  0  0  0  0  0  0
    6.2717    0.2276    0.0000 C   0  0  0  0  0  0  0  0  0  0  0  0
    5.5284   -1.0754    0.0000 C   0  0  0  0  0  0  0  0  0  0  0  0
    4.0285   -1.0833    0.0000 C   0  0  0  0  0  0  0  0  0  0  0  0
    3.2715    0.2118    0.0000 C   0  0  0  0  0  0  0  0  0  0  0  0
    4.0148    1.5148    0.0000 C   0  0  0  0  0  0  0  0  0  0  0  0
    5.5148    1.5227    0.0000 C   0  0  0  0  0  0  0  0  0  0  0  0
    3.2578    2.8099    0.0000 C   0  0  0  0  0  0  0  0  0  0  0  0
    2.5011    4.1049    0.0000 F   0  0  0  0  0  0  0  0  0  0  0  0
    4.5531    3.5667    0.0000 F   0  0  0  0  0  0  0  0  0  0  0  0
    1.9628    2.0530    0.0000 F   0  0  0  0  0  0  0  0  0  0  0  0
    1.7716    0.2039    0.0000 N   0  0  0  0  0  0  0  0  0  0  0  0
    1.0285   -1.0990    0.0000 O   0  0  0  0  0  0  0  0  0  0  0  0
    1.0148    1.4990    0.0000 O   0  0  0  0  0  0  0  0  0  0  0  0
  1  2  1  0  0  0  0
  2  3  1  0  0  0  0
  4  2  1  0  0  0  0
  2  8  1  0  0  0  0
  5  4  1  0  0  0  0
  5  6  2  0  0  0  0
  7  5  1  0  0  0  0
  8  7  1  0  0  0  0
  7 10  1  0  0  0  0
  8  9  2  0  0  0  0
 11 10  2  0  0  0  0
 10 15  1  0  0  0  0
 12 11  1  0  0  0  0
 13 12  2  0  0  0  0
 14 13  1  0  0  0  0
 13 20  1  0  0  0  0
 15 14  2  0  0  0  0
 14 16  1  0  0  0  0
 16 17  1  0  0  0  0
 16 18  1  0  0  0  0
 16 19  1  0  0  0  0
 20 21  2  0  0  0  0
 20 22  1  0  0  0  0
M  CHG  2  20   1  22  -1
M  END
> <Inchi_key>
XWXYUMMDTVBTOU-UHFFFAOYSA-N

> <Source>
Mulliner

> <ID>
HT1493

> <H_MFHB>
1

> <CAS>


> <Cholestasis>


> <Name>
nilutamide

> <Class>
1


$$$$