
  -INDIGO-08031710012D

 39 41  0  0  0  0  0  0  0  0999 V2000
    9.1051   15.7089    0.0000 C   0  0  0  0  0  0  0  0  0  0  0  0
    9.8505   14.4074    0.0000 C   0  0  0  0  0  0  0  0  0  0  0  0
    9.0964   13.1108    0.0000 C   0  0  0  0  0  0  0  0  0  0  0  0
    9.8418   11.8092    0.0000 C   0  0  0  0  0  0  0  0  0  0  0  0
    9.0874   10.5127    0.0000 N   0  0  0  0  0  0  0  0  0  0  0  0
    9.8331    9.2113    0.0000 C   0  0  0  0  0  0  0  0  0  0  0  0
   11.3330    9.2061    0.0000 C   0  0  0  0  0  0  0  0  0  0  0  0
   12.0787    7.9044    0.0000 C   0  0  0  0  0  0  0  0  0  0  0  0
   13.5786    7.8995    0.0000 C   0  0  0  0  0  0  0  0  0  0  0  0
    7.5875   10.5178    0.0000 C   0  0  0  0  0  0  0  0  0  0  0  0
    6.8331    9.2214    0.0000 C   0  0  0  0  0  0  0  0  0  0  0  0
    5.3332    9.2265    0.0000 C   0  0  0  0  0  0  0  0  0  0  0  0
    4.5787    7.9300    0.0000 O   0  0  0  0  0  0  0  0  0  0  0  0
    3.0785    7.9352    0.0000 C   0  0  0  0  0  0  0  0  0  0  0  0
    2.3331    9.2367    0.0000 C   0  0  0  0  0  0  0  0  0  0  0  0
    0.8333    9.2418    0.0000 C   0  0  0  0  0  0  0  0  0  0  0  0
    0.0788    7.9453    0.0000 C   0  0  0  0  0  0  0  0  0  0  0  0
    0.8242    6.6437    0.0000 C   0  0  0  0  0  0  0  0  0  0  0  0
    2.3244    6.6386    0.0000 C   0  0  0  0  0  0  0  0  0  0  0  0
   -1.4214    7.9504    0.0000 C   0  0  0  0  0  0  0  0  0  0  0  0
   -2.1759    6.6540    0.0000 O   0  0  0  0  0  0  0  0  0  0  0  0
   -2.1668    9.2519    0.0000 C   0  0  0  0  0  0  0  0  0  0  0  0
   -1.5522   10.6202    0.0000 C   0  0  0  0  0  0  0  0  0  0  0  0
   -0.0839   10.9270    0.0000 C   0  0  0  0  0  0  0  0  0  0  0  0
    0.3847   12.3521    0.0000 C   0  0  0  0  0  0  0  0  0  0  0  0
    1.8526   12.6589    0.0000 C   0  0  0  0  0  0  0  0  0  0  0  0
    2.3212   14.0839    0.0000 C   0  0  0  0  0  0  0  0  0  0  0  0
   -2.6632   11.6276    0.0000 O   0  0  0  0  0  0  0  0  0  0  0  0
   -3.9649   10.8821    0.0000 C   0  0  0  0  0  0  0  0  0  0  0  0
   -5.3901   11.3506    0.0000 C   0  0  0  0  0  0  0  0  0  0  0  0
   -6.5080   10.3505    0.0000 C   0  0  0  0  0  0  0  0  0  0  0  0
   -6.2011    8.8823    0.0000 C   0  0  0  0  0  0  0  0  0  0  0  0
   -7.3194    7.8824    0.0000 N   0  0  0  0  0  0  0  0  0  0  0  0
   -8.7446    8.3507    0.0000 S   0  0  0  0  0  0  0  0  0  0  0  0
   -8.2760    9.7757    0.0000 O   0  0  0  0  0  0  0  0  0  0  0  0
   -9.2127    6.9256    0.0000 O   0  0  0  0  0  0  0  0  0  0  0  0
  -10.1694    8.8192    0.0000 C   0  0  0  0  0  0  0  0  0  0  0  0
   -4.7762    8.4139    0.0000 C   0  0  0  0  0  0  0  0  0  0  0  0
   -3.6580    9.4137    0.0000 C   0  0  0  0  0  0  0  0  0  0  0  0
  1  2  1  0  0  0  0
  2  3  1  0  0  0  0
  3  4  1  0  0  0  0
  4  5  1  0  0  0  0
  5  6  1  0  0  0  0
  5 10  1  0  0  0  0
  6  7  1  0  0  0  0
  7  8  1  0  0  0  0
  8  9  1  0  0  0  0
 10 11  1  0  0  0  0
 11 12  1  0  0  0  0
 12 13  1  0  0  0  0
 13 14  1  0  0  0  0
 15 14  2  0  0  0  0
 14 19  1  0  0  0  0
 16 15  1  0  0  0  0
 17 16  2  0  0  0  0
 18 17  1  0  0  0  0
 17 20  1  0  0  0  0
 19 18  2  0  0  0  0
 20 21  2  0  0  0  0
 20 22  1  0  0  0  0
 23 22  2  0  0  0  0
 22 39  1  0  0  0  0
 23 24  1  0  0  0  0
 28 23  1  0  0  0  0
 24 25  1  0  0  0  0
 25 26  1  0  0  0  0
 26 27  1  0  0  0  0
 29 28  1  0  0  0  0
 30 29  1  0  0  0  0
 29 39  2  0  0  0  0
 31 30  2  0  0  0  0
 32 31  1  0  0  0  0
 32 33  1  0  0  0  0
 38 32  2  0  0  0  0
 33 34  1  0  0  0  0
 34 35  2  0  0  0  0
 34 36  2  0  0  0  0
 34 37  1  0  0  0  0
 39 38  1  0  0  0  0
M  END
> <Inchi_key>
ZQTNQVWKHCQYLQ-UHFFFAOYSA-N

> <Source>
Mulliner

> <ID>
HT0725

> <H_MFHB>
1

> <CAS>


> <Cholestasis>


> <Name>
dronedarone;dronedarone hydrochloride

> <Class>
1

$$$$