

  -INDIGO-08031710012D

 44 46  0  0  0  0  0  0  0  0999 V2000
   -1.6762    4.6420    0.0000 C   0  0  0  0  0  0  0  0  0  0  0  0
   -1.6762    3.1420    0.0000 C   0  0  0  0  0  0  0  0  0  0  0  0
   -0.3769    2.3920    0.0000 O   0  0  0  0  0  0  0  0  0  0  0  0
   -0.3769    0.8920    0.0000 C   0  0  0  0  0  0  0  0  0  0  0  0
    0.9221    0.1420    0.0000 O   0  0  0  0  0  0  0  0  0  0  0  0
    2.2211    0.8920    0.0000 C   0  0  0  0  0  0  0  0  0  0  0  0
    2.2211    2.3920    0.0000 C   0  0  0  0  0  0  0  0  0  0  0  0
    0.9221    3.1420    0.0000 O   0  0  0  0  0  0  0  0  0  0  0  0
    3.5200    3.1420    0.0000 C   0  0  0  0  0  0  0  0  0  0  0  0
    3.5200    4.6420    0.0000 O   0  0  0  0  0  0  0  0  0  0  0  0
    4.8190    2.3920    0.0000 C   0  0  0  0  0  0  0  0  0  0  0  0
    6.1183    3.1420    0.0000 O   0  0  0  0  0  0  0  0  0  0  0  0
    7.4173    2.3920    0.0000 C   0  0  0  0  0  0  0  0  0  0  0  0
    7.4173    0.8920    0.0000 C   0  0  0  0  0  0  0  0  0  0  0  0
    6.1183    0.1420    0.0000 O   0  0  0  0  0  0  0  0  0  0  0  0
    8.7163    0.1420    0.0000 C   0  0  0  0  0  0  0  0  0  0  0  0
    8.7163   -1.3580    0.0000 O   0  0  0  0  0  0  0  0  0  0  0  0
    8.7163    3.1420    0.0000 C   0  0  0  0  0  0  0  0  0  0  0  0
   10.0153    2.3920    0.0000 O   0  0  0  0  0  0  0  0  0  0  0  0
    8.7163    4.6420    0.0000 C   0  0  0  0  0  0  0  0  0  0  0  0
    7.4173    5.3920    0.0000 O   0  0  0  0  0  0  0  0  0  0  0  0
   10.0153    5.3920    0.0000 C   0  0  0  0  0  0  0  0  0  0  0  0
   10.0153    6.8920    0.0000 O   0  0  0  0  0  0  0  0  0  0  0  0
    4.8190    0.8920    0.0000 O   0  0  0  0  0  0  0  0  0  0  0  0
    3.5200    0.1420    0.0000 C   0  0  0  0  0  0  0  0  0  0  0  0
    3.5200   -1.3580    0.0000 C   0  0  0  0  0  0  0  0  0  0  0  0
    4.8190   -2.1080    0.0000 O   0  0  0  0  0  0  0  0  0  0  0  0
   -1.6762    0.1420    0.0000 C   0  0  0  0  0  0  0  0  0  0  0  0
   -1.6762   -1.3580    0.0000 O   0  0  0  0  0  0  0  0  0  0  0  0
   -2.9752    0.8920    0.0000 C   0  0  0  0  0  0  0  0  0  0  0  0
   -4.2742    0.1420    0.0000 O   0  0  0  0  0  0  0  0  0  0  0  0
   -2.9752    2.3920    0.0000 C   0  0  0  0  0  0  0  0  0  0  0  0
   -4.2742    3.1420    0.0000 N   0  0  0  0  0  0  0  0  0  0  0  0
   -4.2742    4.6420    0.0000 C   0  0  0  0  0  0  0  0  0  0  0  0
   -2.9752    5.3920    0.0000 C   0  0  0  0  0  0  0  0  0  0  0  0
   -2.9752    6.8920    0.0000 C   0  0  0  0  0  0  0  0  0  0  0  0
   -1.6762    7.6420    0.0000 C   0  0  0  0  0  0  0  0  0  0  0  0
   -1.6762    9.1420    0.0000 O   0  0  0  0  0  0  0  0  0  0  0  0
   -4.2742    7.6420    0.0000 C   0  0  0  0  0  0  0  0  0  0  0  0
   -4.2742    9.1420    0.0000 O   0  0  0  0  0  0  0  0  0  0  0  0
   -5.5732    6.8920    0.0000 C   0  0  0  0  0  0  0  0  0  0  0  0
   -6.8722    7.6420    0.0000 O   0  0  0  0  0  0  0  0  0  0  0  0
   -5.5732    5.3920    0.0000 C   0  0  0  0  0  0  0  0  0  0  0  0
   -6.8722    4.6420    0.0000 O   0  0  0  0  0  0  0  0  0  0  0  0
  1  2  1  0  0  0  0
  3  2  1  0  0  0  0
  2 32  1  0  0  0  0
  4  3  1  0  0  0  0
  4  5  1  0  0  0  0
 28  4  1  0  0  0  0
  5  6  1  0  0  0  0
  7  6  1  0  0  0  0
  6 25  1  0  0  0  0
  7  8  1  0  0  0  0
  9  7  1  0  0  0  0
  9 10  1  0  0  0  0
 11  9  1  0  0  0  0
 11 12  1  0  0  0  0
 24 11  1  0  0  0  0
 12 13  1  0  0  0  0
 13 14  1  0  0  0  0
 13 18  1  0  0  0  0
 14 15  1  0  0  0  0
 14 16  1  0  0  0  0
 16 17  1  0  0  0  0
 18 19  1  0  0  0  0
 18 20  1  0  0  0  0
 20 21  1  0  0  0  0
 20 22  1  0  0  0  0
 22 23  2  0  0  0  0
 25 24  1  0  0  0  0
 25 26  1  0  0  0  0
 26 27  1  0  0  0  0
 28 29  1  0  0  0  0
 30 28  1  0  0  0  0
 30 31  1  0  0  0  0
 32 30  1  0  0  0  0
 32 33  1  0  0  0  0
 33 34  1  0  0  0  0
 35 34  1  0  0  0  0
 34 43  1  0  0  0  0
 36 35  2  0  0  0  0
 36 37  1  0  0  0  0
 39 36  1  0  0  0  0
 37 38  1  0  0  0  0
 39 40  1  0  0  0  0
 41 39  1  0  0  0  0
 41 42  1  0  0  0  0
 43 41  1  0  0  0  0
 43 44  1  0  0  0  0
M  END
> <Inchi_key>
CEMXHAPUFJOOSV-UHFFFAOYSA-N

> <Source>
Mulliner

> <ID>
HT0046

> <H_MFHB>
1

> <CAS>
56180-94-0

> <Cholestasis>


> <Name>
acarbose

> <Class>
1


$$$$