

  -INDIGO-08031710012D

  8  8  0  0  0  0  0  0  0  0999 V2000
    5.7353   -1.5368    0.0000 C   0  0  0  0  0  0  0  0  0  0  0  0
    4.4363   -0.7868    0.0000 C   0  0  0  0  0  0  0  0  0  0  0  0
    3.6863    0.5123    0.0000 O   0  0  0  0  0  0  0  0  0  0  0  0
    2.9363   -0.7868    0.0000 C   0  0  0  0  0  0  0  0  0  0  0  0
    1.6373   -1.5368    0.0000 P   0  0  0  0  0  0  0  0  0  0  0  0
    0.3382   -2.2868    0.0000 O   0  0  0  0  0  0  0  0  0  0  0  0
    0.8873   -0.2377    0.0000 O   0  0  0  0  0  0  0  0  0  0  0  0
    2.3873   -2.8358    0.0000 O   0  0  0  0  0  0  0  0  0  0  0  0
  1  2  1  0  0  0  0
  3  2  1  0  0  0  0
  2  4  1  0  0  0  0
  4  3  1  0  0  0  0
  4  5  1  0  0  0  0
  5  6  2  0  0  0  0
  5  7  1  0  0  0  0
  5  8  1  0  0  0  0
M  END
> <Inchi_key>
YMDXZJFXQJVXBF-UHFFFAOYSA-N

> <Source>
Mulliner

> <ID>
HT0937

> <H_MFHB>
1

> <CAS>


> <Cholestasis>


> <Name>
fosfomycin tromethamine;fosfomycin

> <Class>
1


$$$$