
  -INDIGO-08031710012D

 49 55  0  0  0  0  0  0  0  0999 V2000
   32.3906    5.8404    0.0000 C   0  0  0  0  0  0  0  0  0  0  0  0
   31.1356    6.6621    0.0000 C   0  0  0  0  0  0  0  0  0  0  0  0
   29.7966    5.9858    0.0000 C   0  0  0  0  0  0  0  0  0  0  0  0
   29.7126    4.4882    0.0000 C   0  0  0  0  0  0  0  0  0  0  0  0
   28.5416    6.8073    0.0000 N   0  0  0  0  0  0  0  0  0  0  0  0
   28.4686    8.3055    0.0000 N   0  0  0  0  0  0  0  0  0  0  0  0
   27.0212    8.6990    0.0000 C   0  0  0  0  0  0  0  0  0  0  0  0
   26.1995    7.4440    0.0000 N   0  0  0  0  0  0  0  0  0  0  0  0
   27.1392    6.2749    0.0000 C   0  0  0  0  0  0  0  0  0  0  0  0
   26.7458    4.8274    0.0000 O   0  0  0  0  0  0  0  0  0  0  0  0
   24.7012    7.3710    0.0000 C   0  0  0  0  0  0  0  0  0  0  0  0
   24.0154    6.0369    0.0000 C   0  0  0  0  0  0  0  0  0  0  0  0
   22.5171    5.9638    0.0000 C   0  0  0  0  0  0  0  0  0  0  0  0
   21.7051    7.2247    0.0000 C   0  0  0  0  0  0  0  0  0  0  0  0
   22.3909    8.5588    0.0000 C   0  0  0  0  0  0  0  0  0  0  0  0
   23.8887    8.6319    0.0000 C   0  0  0  0  0  0  0  0  0  0  0  0
   20.2068    7.1517    0.0000 N   0  0  0  0  0  0  0  0  0  0  0  0
   19.3943    8.4126    0.0000 C   0  0  0  0  0  0  0  0  0  0  0  0
   17.8960    8.3396    0.0000 C   0  0  0  0  0  0  0  0  0  0  0  0
   17.2102    7.0055    0.0000 N   0  0  0  0  0  0  0  0  0  0  0  0
   18.0227    5.7446    0.0000 C   0  0  0  0  0  0  0  0  0  0  0  0
   19.5210    5.8176    0.0000 C   0  0  0  0  0  0  0  0  0  0  0  0
   15.7119    6.9324    0.0000 C   0  0  0  0  0  0  0  0  0  0  0  0
   15.0261    5.5984    0.0000 C   0  0  0  0  0  0  0  0  0  0  0  0
   13.5278    5.5254    0.0000 C   0  0  0  0  0  0  0  0  0  0  0  0
   12.7157    6.7862    0.0000 C   0  0  0  0  0  0  0  0  0  0  0  0
   11.2174    6.7132    0.0000 O   0  0  0  0  0  0  0  0  0  0  0  0
   10.4049    7.9740    0.0000 C   0  0  0  0  0  0  0  0  0  0  0  0
    8.9066    7.9011    0.0000 C   0  0  0  0  0  0  0  0  0  0  0  0
    8.0854    6.6461    0.0000 C   0  0  0  0  0  0  0  0  0  0  0  0
    6.6376    7.0395    0.0000 O   0  0  0  0  0  0  0  0  0  0  0  0
    6.5646    8.5377    0.0000 C   0  0  0  0  0  0  0  0  0  0  0  0
    5.0686    8.6479    0.0000 C   0  0  0  0  0  0  0  0  0  0  0  0
    4.2254    7.4072    0.0000 N   0  0  0  0  0  0  0  0  0  0  0  0
    2.7261    7.3603    0.0000 C   0  0  0  0  0  0  0  0  0  0  0  0
    2.3075    5.9198    0.0000 N   0  0  0  0  0  0  0  0  0  0  0  0
    3.5478    5.0767    0.0000 C   0  0  0  0  0  0  0  0  0  0  0  0
    4.7335    5.9960    0.0000 N   0  0  0  0  0  0  0  0  0  0  0  0
    7.9670    9.0701    0.0000 O   0  0  0  0  0  0  0  0  0  0  0  0
    5.9596    9.9102    0.0000 C   0  0  0  0  0  0  0  0  0  0  0  0
    4.4682   10.0724    0.0000 C   0  0  0  0  0  0  0  0  0  0  0  0
    3.8632   11.4449    0.0000 C   0  0  0  0  0  0  0  0  0  0  0  0
    4.7491   12.6553    0.0000 C   0  0  0  0  0  0  0  0  0  0  0  0
    4.1441   14.0278    0.0000 Cl  0  0  0  0  0  0  0  0  0  0  0  0
    6.2405   12.4931    0.0000 C   0  0  0  0  0  0  0  0  0  0  0  0
    6.8456   11.1204    0.0000 C   0  0  0  0  0  0  0  0  0  0  0  0
    8.3370   10.9584    0.0000 Cl  0  0  0  0  0  0  0  0  0  0  0  0
   13.4015    8.1203    0.0000 C   0  0  0  0  0  0  0  0  0  0  0  0
   14.8994    8.1934    0.0000 C   0  0  0  0  0  0  0  0  0  0  0  0
  1  2  1  0  0  0  0
  2  3  1  0  0  0  0
  3  4  1  0  0  0  0
  3  5  1  0  0  0  0
  6  5  1  0  0  0  0
  5  9  1  0  0  0  0
  7  6  2  0  0  0  0
  8  7  1  0  0  0  0
  9  8  1  0  0  0  0
  8 11  1  0  0  0  0
  9 10  2  0  0  0  0
 12 11  2  0  0  0  0
 11 16  1  0  0  0  0
 13 12  1  0  0  0  0
 14 13  2  0  0  0  0
 15 14  1  0  0  0  0
 14 17  1  0  0  0  0
 16 15  2  0  0  0  0
 18 17  1  0  0  0  0
 17 22  1  0  0  0  0
 19 18  1  0  0  0  0
 20 19  1  0  0  0  0
 21 20  1  0  0  0  0
 20 23  1  0  0  0  0
 22 21  1  0  0  0  0
 24 23  2  0  0  0  0
 23 49  1  0  0  0  0
 25 24  1  0  0  0  0
 26 25  2  0  0  0  0
 26 27  1  0  0  0  0
 48 26  1  0  0  0  0
 27 28  1  0  0  0  0
 28 29  1  0  0  0  0
 30 29  1  0  0  0  0
 29 39  1  0  0  0  0
 31 30  1  0  0  0  0
 32 31  1  0  0  0  0
 32 33  1  0  0  0  0
 39 32  1  0  0  0  0
 32 40  1  0  0  0  0
 33 34  1  0  0  0  0
 35 34  1  0  0  0  0
 34 38  1  0  0  0  0
 36 35  2  0  0  0  0
 37 36  1  0  0  0  0
 38 37  2  0  0  0  0
 41 40  2  0  0  0  0
 40 46  1  0  0  0  0
 42 41  1  0  0  0  0
 43 42  2  0  0  0  0
 43 44  1  0  0  0  0
 45 43  1  0  0  0  0
 46 45  2  0  0  0  0
 46 47  1  0  0  0  0
 49 48  2  0  0  0  0
M  END
> <Inchi_key>
VHVPQPYKVGDNFY-UHFFFAOYSA-N

> <Source>
Mulliner , Kotsampasakou

> <ID>
EK0288;HT1147

> <H_MFHB>
1

> <CAS>
84625-61-6

> <Cholestasis>
1

> <Name>
itraconazole

> <Class>
1

$$$$