

  -INDIGO-08031710012D

 22 23  0  0  0  0  0  0  0  0999 V2000
   17.4545   -5.4323    0.0000 C   0  0  0  0  0  0  0  0  0  0  0  0
   15.9544   -5.4323    0.0000 C   0  0  0  0  0  0  0  0  0  0  0  0
   15.2045   -4.1333    0.0000 O   0  0  0  0  0  0  0  0  0  0  0  0
   13.7044   -4.1333    0.0000 C   0  0  0  0  0  0  0  0  0  0  0  0
   12.9545   -5.4323    0.0000 O   0  0  0  0  0  0  0  0  0  0  0  0
   12.9545   -2.8343    0.0000 N   0  0  0  0  0  0  0  0  0  0  0  0
   11.4544   -2.8343    0.0000 C   0  0  0  0  0  0  0  0  0  0  0  0
   10.7045   -4.1333    0.0000 C   0  0  0  0  0  0  0  0  0  0  0  0
    9.2045   -4.1333    0.0000 C   0  0  0  0  0  0  0  0  0  0  0  0
    8.4545   -2.8343    0.0000 C   0  0  0  0  0  0  0  0  0  0  0  0
    6.9545   -2.8343    0.0000 N   0  0  0  0  0  0  0  0  0  0  0  0
    6.2046   -1.5352    0.0000 C   0  0  0  0  0  0  0  0  0  0  0  0
    4.7045   -1.5352    0.0000 C   0  0  0  0  0  0  0  0  0  0  0  0
    3.9546   -2.8343    0.0000 C   0  0  0  0  0  0  0  0  0  0  0  0
    2.4545   -2.8343    0.0000 C   0  0  0  0  0  0  0  0  0  0  0  0
    1.7046   -1.5352    0.0000 C   0  0  0  0  0  0  0  0  0  0  0  0
    0.2045   -1.5352    0.0000 F   0  0  0  0  0  0  0  0  0  0  0  0
    2.4545   -0.2362    0.0000 C   0  0  0  0  0  0  0  0  0  0  0  0
    3.9546   -0.2362    0.0000 C   0  0  0  0  0  0  0  0  0  0  0  0
    9.2045   -1.5352    0.0000 C   0  0  0  0  0  0  0  0  0  0  0  0
   10.7045   -1.5352    0.0000 C   0  0  0  0  0  0  0  0  0  0  0  0
   11.4544   -0.2362    0.0000 N   0  0  0  0  0  0  0  0  0  0  0  0
  1  2  1  0  0  0  0
  2  3  1  0  0  0  0
  3  4  1  0  0  0  0
  4  5  2  0  0  0  0
  4  6  1  0  0  0  0
  6  7  1  0  0  0  0
  8  7  2  0  0  0  0
  7 21  1  0  0  0  0
  9  8  1  0  0  0  0
 10  9  2  0  0  0  0
 10 11  1  0  0  0  0
 20 10  1  0  0  0  0
 11 12  1  0  0  0  0
 12 13  1  0  0  0  0
 14 13  2  0  0  0  0
 13 19  1  0  0  0  0
 15 14  1  0  0  0  0
 16 15  2  0  0  0  0
 16 17  1  0  0  0  0
 18 16  1  0  0  0  0
 19 18  2  0  0  0  0
 21 20  2  0  0  0  0
 21 22  1  0  0  0  0
M  END
> <Inchi_key>
PCOBBVZJEWWZFR-UHFFFAOYSA-N

> <Source>
Mulliner

> <ID>
HT0844

> <H_MFHB>
1

> <CAS>


> <Cholestasis>


> <Name>
ezogabine

> <Class>
1


$$$$