

  -INDIGO-08031710012D

 14 15  0  0  0  0  0  0  0  0999 V2000
    8.5736    1.8224    0.0000 N   0  0  0  0  0  0  0  0  0  0  0  0
    7.2034    1.2123    0.0000 S   0  0  0  0  0  0  0  0  0  0  0  0
    7.8134   -0.1580    0.0000 O   0  0  0  0  0  0  0  0  0  0  0  0
    6.5931    2.5826    0.0000 O   0  0  0  0  0  0  0  0  0  0  0  0
    5.8330    0.6022    0.0000 C   0  0  0  0  0  0  0  0  0  0  0  0
    4.6195    1.4838    0.0000 C   0  0  0  0  0  0  0  0  0  0  0  0
    4.6195    2.9838    0.0000 N   0  0  0  0  0  0  0  0  0  0  0  0
    3.1929    3.4474    0.0000 O   0  0  0  0  0  0  0  0  0  0  0  0
    2.3113    2.2338    0.0000 C   0  0  0  0  0  0  0  0  0  0  0  0
    0.8194    2.0771    0.0000 C   0  0  0  0  0  0  0  0  0  0  0  0
    0.2093    0.7067    0.0000 C   0  0  0  0  0  0  0  0  0  0  0  0
    1.0910   -0.5068    0.0000 C   0  0  0  0  0  0  0  0  0  0  0  0
    2.5829   -0.3500    0.0000 C   0  0  0  0  0  0  0  0  0  0  0  0
    3.1929    1.0203    0.0000 C   0  0  0  0  0  0  0  0  0  0  0  0
  1  2  1  0  0  0  0
  2  3  2  0  0  0  0
  2  4  2  0  0  0  0
  2  5  1  0  0  0  0
  5  6  1  0  0  0  0
  7  6  2  0  0  0  0
  6 14  1  0  0  0  0
  8  7  1  0  0  0  0
  9  8  1  0  0  0  0
 10  9  1  0  0  0  0
  9 14  2  0  0  0  0
 11 10  2  0  0  0  0
 12 11  1  0  0  0  0
 13 12  2  0  0  0  0
 14 13  1  0  0  0  0
M  END
> <Inchi_key>
UBQNRHZMVUUOMG-UHFFFAOYSA-N

> <Source>
Mulliner

> <ID>
HT2222

> <H_MFHB>
1

> <CAS>
68291-97-4

> <Cholestasis>


> <Name>
zonisamide

> <Class>
1


$$$$