

  -INDIGO-08031710012D

 25 29  0  0  0  0  0  0  0  0999 V2000
   -0.0037    0.1046    0.0000 C   0  0  0  0  0  0  0  0  0  0  0  0
    1.4954    0.0550    0.0000 C   0  0  0  0  0  0  0  0  0  0  0  0
    0.7478   -1.2454    0.0000 C   0  0  0  0  0  0  0  0  0  0  0  0
   -0.7521   -1.2482    0.0000 C   0  0  0  0  0  0  0  0  0  0  0  0
   -1.7538   -2.3648    0.0000 C   0  0  0  0  0  0  0  0  0  0  0  0
   -3.1253   -1.7573    0.0000 N   0  0  0  0  0  0  0  0  0  0  0  0
   -2.9714   -0.2652    0.0000 O   0  0  0  0  0  0  0  0  0  0  0  0
   -1.5047    0.0494    0.0000 C   0  0  0  0  0  0  0  0  0  0  0  0
   -0.7571    1.3498    0.0000 C   0  0  0  0  0  0  0  0  0  0  0  0
    0.7429    1.3526    0.0000 C   0  0  0  0  0  0  0  0  0  0  0  0
    1.4905    2.6531    0.0000 C   0  0  0  0  0  0  0  0  0  0  0  0
    2.9904    2.6559    0.0000 C   0  0  0  0  0  0  0  0  0  0  0  0
    3.7428    1.3582    0.0000 C   0  0  0  0  0  0  0  0  0  0  0  0
    2.9954    0.0578    0.0000 C   0  0  0  0  0  0  0  0  0  0  0  0
    3.7478   -1.2398    0.0000 C   0  0  0  0  0  0  0  0  0  0  0  0
    5.2477   -1.2370    0.0000 C   0  0  0  0  0  0  0  0  0  0  0  0
    5.9953    0.0634    0.0000 C   0  0  0  0  0  0  0  0  0  0  0  0
    6.9210   -1.1169    0.0000 C   0  0  0  0  0  0  0  0  0  0  0  0
    5.2430    1.3610    0.0000 C   0  0  0  0  0  0  0  0  0  0  0  0
    6.2445    2.4776    0.0000 C   0  0  0  0  0  0  0  0  0  0  0  0
    7.6159    1.8701    0.0000 C   0  0  0  0  0  0  0  0  0  0  0  0
    7.4620    0.3780    0.0000 C   0  0  0  0  0  0  0  0  0  0  0  0
    7.8907   -1.0594    0.0000 O   0  0  0  0  0  0  0  0  0  0  0  0
    8.9374    0.1074    0.0000 C   0  0  0  0  0  0  0  0  0  0  0  0
   10.4128   -0.1632    0.0000 C   0  0  0  0  0  0  0  0  0  0  0  0
  1  2  1  0  0  0  0
  3  2  1  0  0  0  0
 10  2  1  0  0  0  0
  2 14  1  0  0  0  0
  4  3  1  0  0  0  0
  5  4  1  0  0  0  0
  4  8  2  0  0  0  0
  6  5  2  0  0  0  0
  7  6  1  0  0  0  0
  8  7  1  0  0  0  0
  9  8  1  0  0  0  0
 10  9  2  0  0  0  0
 11 10  1  0  0  0  0
 12 11  1  0  0  0  0
 13 12  1  0  0  0  0
 13 14  1  0  0  0  0
 19 13  1  0  0  0  0
 14 15  1  0  0  0  0
 15 16  1  0  0  0  0
 16 17  1  0  0  0  0
 17 18  1  0  0  0  0
 19 17  1  0  0  0  0
 17 22  1  0  0  0  0
 20 19  1  0  0  0  0
 21 20  1  0  0  0  0
 22 21  1  0  0  0  0
 22 23  1  0  0  0  0
 22 24  1  0  0  0  0
 24 25  3  0  0  0  0
M  END
> <Inchi_key>
POZRVZJJTULAOH-UHFFFAOYSA-N

> <Source>
Mulliner

> <ID>
HT0587

> <H_MFHB>
1

> <CAS>
17230-88-5

> <Cholestasis>


> <Name>
danazol

> <Class>
1


$$$$