
  -INDIGO-08031709442D

 18 18  0  0  0  0  0  0  0  0999 V2000
   -2.0207    0.0000    0.0000 S   0  0  0  0  0  0  0  0  0  0  0  0
   -2.7708    1.2990    0.0000 O   0  0  0  0  0  0  0  0  0  0  0  0
   -1.2707   -1.2990    0.0000 O   0  0  0  0  0  0  0  0  0  0  0  0
   -0.7216    0.7500    0.0000 N   0  0  0  0  0  0  0  0  0  0  0  0
    0.5775    0.0000    0.0000 C   0  0  0  0  0  0  0  0  0  0  0  0
    0.5775   -1.5000    0.0000 O   0  0  0  0  0  0  0  0  0  0  0  0
    1.8763    0.7500    0.0000 N   0  0  0  0  0  0  0  0  0  0  0  0
    3.1754    0.0000    0.0000 C   0  0  0  0  0  0  0  0  0  0  0  0
    4.4745    0.7500    0.0000 C   0  0  0  0  0  0  0  0  0  0  0  0
    5.7734    0.0000    0.0000 C   0  0  0  0  0  0  0  0  0  0  0  0
    7.0725    0.7500    0.0000 C   0  0  0  0  0  0  0  0  0  0  0  0
   -3.3198   -0.7500    0.0000 C   0  0  0  0  0  0  0  0  0  0  0  0
   -3.3198   -2.2500    0.0000 C   0  0  0  0  0  0  0  0  0  0  0  0
   -4.6187   -3.0000    0.0000 C   0  0  0  0  0  0  0  0  0  0  0  0
   -5.9178   -2.2500    0.0000 C   0  0  0  0  0  0  0  0  0  0  0  0
   -5.9178   -0.7500    0.0000 C   0  0  0  0  0  0  0  0  0  0  0  0
   -4.6187    0.0000    0.0000 C   0  0  0  0  0  0  0  0  0  0  0  0
   -7.2169   -3.0000    0.0000 C   0  0  0  0  0  0  0  0  0  0  0  0
  1  2  2  0  0  0  0
  1  3  1  0  0  0  0
  1  4  2  0  0  0  0
  1 12  1  0  0  0  0
  4  5  1  0  0  0  0
  5  6  2  0  0  0  0
  5  7  1  0  0  0  0
  7  8  1  0  0  0  0
  8  9  1  0  0  0  0
  9 10  1  0  0  0  0
 10 11  1  0  0  0  0
 13 12  2  0  0  0  0
 12 17  1  0  0  0  0
 14 13  1  0  0  0  0
 15 14  2  0  0  0  0
 16 15  1  0  0  0  0
 15 18  1  0  0  0  0
 17 16  2  0  0  0  0
M  END
> <Inchi_key>
SAENDHGQYXVIRM-UHFFFAOYSA-N

> <Source>
Kotsampasakou

> <ID>
EK0536

> <H_MFHB>


> <CAS>


> <Cholestasis>
1

> <Name>
tolbutamide

> <Class>
1

$$$$