

  -INDIGO-08031710012D

 25 27  0  0  0  0  0  0  0  0999 V2000
    6.2447   -6.2221    0.0000 C   0  0  0  0  0  0  0  0  0  0  0  0
    6.2391   -4.7221    0.0000 N   0  0  0  0  0  0  0  0  0  0  0  0
    4.9375   -3.9768    0.0000 C   0  0  0  0  0  0  0  0  0  0  0  0
    3.6410   -4.7315    0.0000 C   0  0  0  0  0  0  0  0  0  0  0  0
    2.3394   -3.9862    0.0000 O   0  0  0  0  0  0  0  0  0  0  0  0
    1.0431   -4.7409    0.0000 C   0  0  0  0  0  0  0  0  0  0  0  0
   -0.2587   -3.9955    0.0000 C   0  0  0  0  0  0  0  0  0  0  0  0
   -1.5550   -4.7502    0.0000 C   0  0  0  0  0  0  0  0  0  0  0  0
   -1.5497   -6.2502    0.0000 C   0  0  0  0  0  0  0  0  0  0  0  0
   -2.8459   -7.0049    0.0000 C   0  0  0  0  0  0  0  0  0  0  0  0
   -4.1475   -6.2596    0.0000 C   0  0  0  0  0  0  0  0  0  0  0  0
   -4.3097   -4.7684    0.0000 S   0  0  0  0  0  0  0  0  0  0  0  0
   -5.7783   -4.4618    0.0000 C   0  0  0  0  0  0  0  0  0  0  0  0
   -6.3931   -3.0937    0.0000 O   0  0  0  0  0  0  0  0  0  0  0  0
   -6.5235   -5.7636    0.0000 N   0  0  0  0  0  0  0  0  0  0  0  0
   -5.5157   -6.8747    0.0000 C   0  0  0  0  0  0  0  0  0  0  0  0
   -5.8222   -8.3430    0.0000 O   0  0  0  0  0  0  0  0  0  0  0  0
   -0.2478   -6.9955    0.0000 C   0  0  0  0  0  0  0  0  0  0  0  0
    1.0485   -6.2407    0.0000 C   0  0  0  0  0  0  0  0  0  0  0  0
    7.5354   -3.9674    0.0000 C   0  0  0  0  0  0  0  0  0  0  0  0
    7.5300   -2.4674    0.0000 C   0  0  0  0  0  0  0  0  0  0  0  0
    8.8263   -1.7127    0.0000 C   0  0  0  0  0  0  0  0  0  0  0  0
   10.1282   -2.4580    0.0000 C   0  0  0  0  0  0  0  0  0  0  0  0
   10.1335   -3.9580    0.0000 C   0  0  0  0  0  0  0  0  0  0  0  0
    8.8372   -4.7126    0.0000 N   0  0  0  0  0  0  0  0  0  0  0  0
  1  2  1  0  0  0  0
  2  3  1  0  0  0  0
  2 20  1  0  0  0  0
  3  4  1  0  0  0  0
  4  5  1  0  0  0  0
  5  6  1  0  0  0  0
  7  6  2  0  0  0  0
  6 19  1  0  0  0  0
  8  7  1  0  0  0  0
  9  8  2  0  0  0  0
  9 10  1  0  0  0  0
 18  9  1  0  0  0  0
 10 11  1  0  0  0  0
 12 11  1  0  0  0  0
 11 16  1  0  0  0  0
 13 12  1  0  0  0  0
 13 14  2  0  0  0  0
 15 13  1  0  0  0  0
 16 15  1  0  0  0  0
 16 17  2  0  0  0  0
 19 18  2  0  0  0  0
 21 20  2  0  0  0  0
 20 25  1  0  0  0  0
 22 21  1  0  0  0  0
 23 22  2  0  0  0  0
 24 23  1  0  0  0  0
 25 24  2  0  0  0  0
M  END
> <Inchi_key>
YASAKCUCGLMORW-UHFFFAOYSA-N

> <Source>
Mulliner

> <ID>
HT1848

> <H_MFHB>
1

> <CAS>
122320-73-4

> <Cholestasis>


> <Name>
rosiglitazone maleate;rosiglitazone

> <Class>
1


$$$$