

  -INDIGO-08031710012D

 20 21  0  0  0  0  0  0  0  0999 V2000
    3.9789    1.1211    0.0000 N   0  0  0  0  0  0  0  0  0  0  0  0
    3.9789   -0.3789    0.0000 C   0  0  0  0  0  0  0  0  0  0  0  0
    5.2781   -1.1289    0.0000 C   0  0  0  0  0  0  0  0  0  0  0  0
    6.5770   -0.3789    0.0000 C   0  0  0  0  0  0  0  0  0  0  0  0
    7.8762   -1.1289    0.0000 C   0  0  0  0  0  0  0  0  0  0  0  0
    9.1751   -0.3789    0.0000 O   0  0  0  0  0  0  0  0  0  0  0  0
    7.8762   -2.6289    0.0000 O   0  0  0  0  0  0  0  0  0  0  0  0
    5.2781   -2.6289    0.0000 C   0  0  0  0  0  0  0  0  0  0  0  0
    3.9789   -3.3789    0.0000 C   0  0  0  0  0  0  0  0  0  0  0  0
    2.6800   -2.6289    0.0000 C   0  0  0  0  0  0  0  0  0  0  0  0
    2.6800   -1.1289    0.0000 C   0  0  0  0  0  0  0  0  0  0  0  0
    1.3809   -0.3789    0.0000 C   0  0  0  0  0  0  0  0  0  0  0  0
    1.3809    1.1211    0.0000 O   0  0  0  0  0  0  0  0  0  0  0  0
    0.0817   -1.1289    0.0000 C   0  0  0  0  0  0  0  0  0  0  0  0
   -1.2172   -0.3789    0.0000 C   0  0  0  0  0  0  0  0  0  0  0  0
   -2.5162   -1.1289    0.0000 C   0  0  0  0  0  0  0  0  0  0  0  0
   -2.5162   -2.6289    0.0000 C   0  0  0  0  0  0  0  0  0  0  0  0
   -3.8153   -3.3789    0.0000 Br  0  0  0  0  0  0  0  0  0  0  0  0
   -1.2172   -3.3789    0.0000 C   0  0  0  0  0  0  0  0  0  0  0  0
    0.0817   -2.6289    0.0000 C   0  0  0  0  0  0  0  0  0  0  0  0
  1  2  1  0  0  0  0
  3  2  2  0  0  0  0
  2 11  1  0  0  0  0
  3  4  1  0  0  0  0
  8  3  1  0  0  0  0
  4  5  1  0  0  0  0
  5  6  2  0  0  0  0
  5  7  1  0  0  0  0
  9  8  2  0  0  0  0
 10  9  1  0  0  0  0
 11 10  2  0  0  0  0
 11 12  1  0  0  0  0
 12 13  2  0  0  0  0
 12 14  1  0  0  0  0
 15 14  2  0  0  0  0
 14 20  1  0  0  0  0
 16 15  1  0  0  0  0
 17 16  2  0  0  0  0
 17 18  1  0  0  0  0
 19 17  1  0  0  0  0
 20 19  2  0  0  0  0
M  END
> <Inchi_key>
ZBPLOVFIXSTCRZ-UHFFFAOYSA-N

> <Source>
Mulliner

> <ID>
HT0307

> <H_MFHB>
1

> <CAS>


> <Cholestasis>


> <Name>
bromfenac sodium;bromfenac

> <Class>
1


$$$$