

  -INDIGO-08031709442D

 85 85  0  0  0  0  0  0  0  0999 V2000
   -0.4576   -0.7584    0.0000 O   0  0  0  0  0  0  0  0  0  0  0  0
    0.2419   -2.0854    0.0000 C   0  0  0  0  0  0  0  0  0  0  0  0
    1.7299   -2.0452    0.0000 N   0  0  0  0  0  0  0  0  0  0  0  0
    2.5180   -3.3215    0.0000 C   0  0  0  0  0  0  0  0  0  0  0  0
    2.4400   -0.7188    0.0000 C   0  0  0  0  0  0  0  0  0  0  0  0
    1.6407    0.5507    0.0000 C   0  0  0  0  0  0  0  0  0  0  0  0
    0.1419    0.4931    0.0000 O   0  0  0  0  0  0  0  0  0  0  0  0
    2.3404    1.8774    0.0000 C   0  0  0  0  0  0  0  0  0  0  0  0
    1.5411    3.1468    0.0000 C   0  0  0  0  0  0  0  0  0  0  0  0
    0.0423    3.0893    0.0000 C   0  0  0  0  0  0  0  0  0  0  0  0
   -0.7570    4.3587    0.0000 C   0  0  0  0  0  0  0  0  0  0  0  0
   -2.2558    4.3014    0.0000 C   0  0  0  0  0  0  0  0  0  0  0  0
    3.8392    1.9349    0.0000 C   0  0  0  0  0  0  0  0  0  0  0  0
    3.9330   -0.6523    0.0000 C   0  0  0  0  0  0  0  0  0  0  0  0
    4.7443   -1.9141    0.0000 O   0  0  0  0  0  0  0  0  0  0  0  0
    4.6175    0.6875    0.0000 N   0  0  0  0  0  0  0  0  0  0  0  0
    6.1095    0.7774    0.0000 C   0  0  0  0  0  0  0  0  0  0  0  0
    6.9394   -0.4721    0.0000 C   0  0  0  0  0  0  0  0  0  0  0  0
    6.2724   -1.8156    0.0000 C   0  0  0  0  0  0  0  0  0  0  0  0
    6.7753    2.1270    0.0000 C   0  0  0  0  0  0  0  0  0  0  0  0
    5.9366    3.3706    0.0000 O   0  0  0  0  0  0  0  0  0  0  0  0
    8.2615    2.2373    0.0000 N   0  0  0  0  0  0  0  0  0  0  0  0
    9.1263    1.0183    0.0000 C   0  0  0  0  0  0  0  0  0  0  0  0
   10.6254    1.1560    0.0000 C   0  0  0  0  0  0  0  0  0  0  0  0
   11.2545    2.5176    0.0000 O   0  0  0  0  0  0  0  0  0  0  0  0
   11.4858   -0.0662    0.0000 N   0  0  0  0  0  0  0  0  0  0  0  0
   10.8505   -1.4252    0.0000 C   0  0  0  0  0  0  0  0  0  0  0  0
   12.9849    0.0581    0.0000 C   0  0  0  0  0  0  0  0  0  0  0  0
   13.6519    1.4016    0.0000 C   0  0  0  0  0  0  0  0  0  0  0  0
   15.1492    1.4957    0.0000 C   0  0  0  0  0  0  0  0  0  0  0  0
   15.9790    0.2462    0.0000 C   0  0  0  0  0  0  0  0  0  0  0  0
   15.8162    2.8392    0.0000 C   0  0  0  0  0  0  0  0  0  0  0  0
   13.8035   -1.2295    0.0000 C   0  0  0  0  0  0  0  0  0  0  0  0
   15.3032   -1.1916    0.0000 O   0  0  0  0  0  0  0  0  0  0  0  0
   13.0643   -2.5333    0.0000 N   0  0  0  0  0  0  0  0  0  0  0  0
   13.8129   -3.8330    0.0000 C   0  0  0  0  0  0  0  0  0  0  0  0
   15.3129   -3.8408    0.0000 C   0  0  0  0  0  0  0  0  0  0  0  0
   16.0698   -2.5459    0.0000 C   0  0  0  0  0  0  0  0  0  0  0  0
   16.0560   -5.1439    0.0000 C   0  0  0  0  0  0  0  0  0  0  0  0
   13.0506   -5.1245    0.0000 C   0  0  0  0  0  0  0  0  0  0  0  0
   11.5506   -5.1032    0.0000 O   0  0  0  0  0  0  0  0  0  0  0  0
   13.7760   -6.4359    0.0000 N   0  0  0  0  0  0  0  0  0  0  0  0
   15.2750   -6.4911    0.0000 C   0  0  0  0  0  0  0  0  0  0  0  0
   12.9412   -7.7135    0.0000 C   0  0  0  0  0  0  0  0  0  0  0  0
   13.5905   -9.0659    0.0000 C   0  0  0  0  0  0  0  0  0  0  0  0
   15.0862   -9.1797    0.0000 C   0  0  0  0  0  0  0  0  0  0  0  0
   15.7352  -10.5319    0.0000 C   0  0  0  0  0  0  0  0  0  0  0  0
   15.9326   -7.9415    0.0000 C   0  0  0  0  0  0  0  0  0  0  0  0
   11.4375   -7.5624    0.0000 C   0  0  0  0  0  0  0  0  0  0  0  0
   10.8206   -6.1953    0.0000 O   0  0  0  0  0  0  0  0  0  0  0  0
   10.5624   -8.7738    0.0000 N   0  0  0  0  0  0  0  0  0  0  0  0
    9.0652   -8.6149    0.0000 C   0  0  0  0  0  0  0  0  0  0  0  0
    8.4565   -7.2440    0.0000 C   0  0  0  0  0  0  0  0  0  0  0  0
    8.1858   -9.8231    0.0000 C   0  0  0  0  0  0  0  0  0  0  0  0
    8.7957  -11.1937    0.0000 O   0  0  0  0  0  0  0  0  0  0  0  0
    6.6885   -9.6670    0.0000 N   0  0  0  0  0  0  0  0  0  0  0  0
    5.8134  -10.8779    0.0000 C   0  0  0  0  0  0  0  0  0  0  0  0
    6.4591  -12.2316    0.0000 C   0  0  0  0  0  0  0  0  0  0  0  0
    4.3434  -10.7967    0.0000 C   0  0  0  0  0  0  0  0  0  0  0  0
    3.5462  -12.0674    0.0000 O   0  0  0  0  0  0  0  0  0  0  0  0
    3.6155   -9.4805    0.0000 N   0  0  0  0  0  0  0  0  0  0  0  0
    4.3849   -8.1929    0.0000 C   0  0  0  0  0  0  0  0  0  0  0  0
    2.1216   -9.4634    0.0000 C   0  0  0  0  0  0  0  0  0  0  0  0
    0.9672  -10.4215    0.0000 C   0  0  0  0  0  0  0  0  0  0  0  0
    1.2199  -11.9001    0.0000 C   0  0  0  0  0  0  0  0  0  0  0  0
    2.6267  -12.4208    0.0000 C   0  0  0  0  0  0  0  0  0  0  0  0
    0.0658  -12.8582    0.0000 C   0  0  0  0  0  0  0  0  0  0  0  0
    1.3678   -8.1606    0.0000 C   0  0  0  0  0  0  0  0  0  0  0  0
    2.5161   -7.1957    0.0000 O   0  0  0  0  0  0  0  0  0  0  0  0
   -0.1157   -8.1619    0.0000 N   0  0  0  0  0  0  0  0  0  0  0  0
   -0.4826   -9.6163    0.0000 C   0  0  0  0  0  0  0  0  0  0  0  0
   -1.0339   -7.1295    0.0000 C   0  0  0  0  0  0  0  0  0  0  0  0
   -2.4095   -7.7274    0.0000 C   0  0  0  0  0  0  0  0  0  0  0  0
   -2.5794   -9.2178    0.0000 C   0  0  0  0  0  0  0  0  0  0  0  0
   -1.3736  -10.1102    0.0000 C   0  0  0  0  0  0  0  0  0  0  0  0
   -3.9550   -9.8157    0.0000 C   0  0  0  0  0  0  0  0  0  0  0  0
   -1.1619   -5.7594    0.0000 C   0  0  0  0  0  0  0  0  0  0  0  0
   -2.5830   -5.2797    0.0000 O   0  0  0  0  0  0  0  0  0  0  0  0
   -0.1551   -4.6668    0.0000 N   0  0  0  0  0  0  0  0  0  0  0  0
    1.3076   -4.9991    0.0000 C   0  0  0  0  0  0  0  0  0  0  0  0
   -0.5935   -3.2371    0.0000 C   0  0  0  0  0  0  0  0  0  0  0  0
   -2.0731   -2.9907    0.0000 C   0  0  0  0  0  0  0  0  0  0  0  0
   -2.5995   -1.5860    0.0000 C   0  0  0  0  0  0  0  0  0  0  0  0
   -3.0264   -4.1490    0.0000 C   0  0  0  0  0  0  0  0  0  0  0  0
    8.9005    3.5945    0.0000 C   0  0  0  0  0  0  0  0  0  0  0  0
  1  2  2  0  0  0  0
  3  2  1  0  0  0  0
  2 81  1  0  0  0  0
  3  4  1  0  0  0  0
  5  3  1  0  0  0  0
  5  6  1  0  0  0  0
 14  5  1  0  0  0  0
  6  7  1  0  0  0  0
  6  8  1  0  0  0  0
  8  9  1  0  0  0  0
  8 13  1  0  0  0  0
  9 10  1  0  0  0  0
 10 11  2  0  0  0  0
 11 12  1  0  0  0  0
 14 15  2  0  0  0  0
 16 14  1  0  0  0  0
 17 16  1  0  0  0  0
 17 18  1  0  0  0  0
 20 17  1  0  0  0  0
 18 19  1  0  0  0  0
 20 21  2  0  0  0  0
 22 20  1  0  0  0  0
 23 22  1  0  0  0  0
 22 85  1  0  0  0  0
 24 23  1  0  0  0  0
 24 25  2  0  0  0  0
 26 24  1  0  0  0  0
 26 27  1  0  0  0  0
 28 26  1  0  0  0  0
 28 29  1  0  0  0  0
 33 28  1  0  0  0  0
 29 30  1  0  0  0  0
 30 31  1  0  0  0  0
 30 32  1  0  0  0  0
 33 34  2  0  0  0  0
 35 33  1  0  0  0  0
 36 35  1  0  0  0  0
 36 37  1  0  0  0  0
 40 36  1  0  0  0  0
 37 38  1  0  0  0  0
 37 39  1  0  0  0  0
 40 41  2  0  0  0  0
 42 40  1  0  0  0  0
 42 43  1  0  0  0  0
 44 42  1  0  0  0  0
 44 45  1  0  0  0  0
 49 44  1  0  0  0  0
 45 46  1  0  0  0  0
 46 47  1  0  0  0  0
 46 48  1  0  0  0  0
 49 50  2  0  0  0  0
 51 49  1  0  0  0  0
 52 51  1  0  0  0  0
 52 53  1  0  0  0  0
 54 52  1  0  0  0  0
 54 55  2  0  0  0  0
 56 54  1  0  0  0  0
 57 56  1  0  0  0  0
 57 58  1  0  0  0  0
 59 57  1  0  0  0  0
 59 60  2  0  0  0  0
 61 59  1  0  0  0  0
 61 62  1  0  0  0  0
 63 61  1  0  0  0  0
 63 64  1  0  0  0  0
 68 63  1  0  0  0  0
 64 65  1  0  0  0  0
 65 66  1  0  0  0  0
 65 67  1  0  0  0  0
 68 69  2  0  0  0  0
 70 68  1  0  0  0  0
 70 71  1  0  0  0  0
 72 70  1  0  0  0  0
 72 73  1  0  0  0  0
 77 72  1  0  0  0  0
 73 74  1  0  0  0  0
 74 75  1  0  0  0  0
 74 76  1  0  0  0  0
 77 78  2  0  0  0  0
 79 77  1  0  0  0  0
 79 80  1  0  0  0  0
 81 79  1  0  0  0  0
 81 82  1  0  0  0  0
 82 83  1  0  0  0  0
 82 84  1  0  0  0  0
M  END
> <Inchi_key>
PMATZTZNYRCHOR-IMVLJIQESA-N

> <Source>
Kotsampasakou

> <ID>
EK0141

> <H_MFHB>


> <CAS>


> <Cholestasis>
1

> <Name>
cyclosporin a

> <Class>
1


$$$$