
  -INDIGO-08031710012D

 17 19  0  0  0  0  0  0  0  0999 V2000
   -0.3014    3.7275    0.0000 O   0  0  0  0  0  0  0  0  0  0  0  0
    1.0214    4.4348    0.0000 C   0  0  0  0  0  0  0  0  0  0  0  0
    1.0702    5.9340    0.0000 N   0  0  0  0  0  0  0  0  0  0  0  0
    2.2954    3.6429    0.0000 C   0  0  0  0  0  0  0  0  0  0  0  0
    2.5592    2.1663    0.0000 N   0  0  0  0  0  0  0  0  0  0  0  0
    3.6182    4.3502    0.0000 C   0  0  0  0  0  0  0  0  0  0  0  0
    4.0452    1.9610    0.0000 C   0  0  0  0  0  0  0  0  0  0  0  0
    4.6996    3.3107    0.0000 N   0  0  0  0  0  0  0  0  0  0  0  0
    3.6668    5.8494    0.0000 N   0  0  0  0  0  0  0  0  0  0  0  0
    6.1761    3.5747    0.0000 C   0  0  0  0  0  0  0  0  0  0  0  0
    2.3931    6.6413    0.0000 C   0  0  0  0  0  0  0  0  0  0  0  0
    6.8305    4.9244    0.0000 C   0  0  0  0  0  0  0  0  0  0  0  0
    7.2576    2.5352    0.0000 O   0  0  0  0  0  0  0  0  0  0  0  0
    8.3164    4.7191    0.0000 C   0  0  0  0  0  0  0  0  0  0  0  0
    8.5803    3.2425    0.0000 C   0  0  0  0  0  0  0  0  0  0  0  0
    9.9300    2.5881    0.0000 C   0  0  0  0  0  0  0  0  0  0  0  0
   11.1716    3.4299    0.0000 O   0  0  0  0  0  0  0  0  0  0  0  0
  1  2  2  0  0  0  0
  3  2  1  0  0  0  0
  2  4  1  0  0  0  0
  5  4  1  0  0  0  0
  4  6  2  0  0  0  0
  7  5  2  0  0  0  0
  6  8  1  0  0  0  0
  6  9  1  0  0  0  0
  8  7  1  0  0  0  0
  8 10  1  0  0  0  0
  9 11  2  0  0  0  0
 12 10  1  0  0  0  0
 10 13  1  0  0  0  0
 11  3  1  0  0  0  0
 14 12  1  0  0  0  0
 13 15  1  0  0  0  0
 15 14  1  0  0  0  0
 15 16  1  0  0  0  0
 16 17  1  0  0  0  0
M  END
> <Inchi_key>
BXZVVICBKDXVGW-UHFFFAOYSA-N

> <Source>
Mulliner

> <ID>
HT0652

> <H_MFHB>
1

> <CAS>
69655-05-6

> <Cholestasis>


> <Name>
didanosine;videx

> <Class>
1

$$$$