
  -INDIGO-08031710012D

 27 30  0  0  0  0  0  0  0  0999 V2000
   17.9702    3.5522    0.0000 O   0  0  0  0  0  0  0  0  0  0  0  0
   17.1709    4.8215    0.0000 C   0  0  0  0  0  0  0  0  0  0  0  0
   15.6718    4.7637    0.0000 C   0  0  0  0  0  0  0  0  0  0  0  0
   14.8725    6.0331    0.0000 O   0  0  0  0  0  0  0  0  0  0  0  0
   13.3735    5.9754    0.0000 C   0  0  0  0  0  0  0  0  0  0  0  0
   12.5742    7.2446    0.0000 C   0  0  0  0  0  0  0  0  0  0  0  0
   11.0754    7.1871    0.0000 N   0  0  0  0  0  0  0  0  0  0  0  0
   10.3759    5.8601    0.0000 C   0  0  0  0  0  0  0  0  0  0  0  0
    8.8768    5.8024    0.0000 C   0  0  0  0  0  0  0  0  0  0  0  0
    8.0775    7.0718    0.0000 N   0  0  0  0  0  0  0  0  0  0  0  0
    8.7770    8.3986    0.0000 C   0  0  0  0  0  0  0  0  0  0  0  0
   10.2761    8.4562    0.0000 C   0  0  0  0  0  0  0  0  0  0  0  0
    6.5787    7.0140    0.0000 C   0  0  0  0  0  0  0  0  0  0  0  0
    5.9795    5.6389    0.0000 N   0  0  0  0  0  0  0  0  0  0  0  0
    4.5308    5.2494    0.0000 C   0  0  0  0  0  0  0  0  0  0  0  0
    4.3651    3.7586    0.0000 C   0  0  0  0  0  0  0  0  0  0  0  0
    2.9910    3.1568    0.0000 C   0  0  0  0  0  0  0  0  0  0  0  0
    1.7829    4.0458    0.0000 C   0  0  0  0  0  0  0  0  0  0  0  0
    1.9486    5.5366    0.0000 C   0  0  0  0  0  0  0  0  0  0  0  0
    3.3227    6.1384    0.0000 C   0  0  0  0  0  0  0  0  0  0  0  0
    3.2637    7.6372    0.0000 S   0  0  0  0  0  0  0  0  0  0  0  0
    4.4014    8.6162    0.0000 C   0  0  0  0  0  0  0  0  0  0  0  0
    3.9044   10.0314    0.0000 C   0  0  0  0  0  0  0  0  0  0  0  0
    4.8813   11.1695    0.0000 C   0  0  0  0  0  0  0  0  0  0  0  0
    6.3557   10.8924    0.0000 C   0  0  0  0  0  0  0  0  0  0  0  0
    6.8526    9.4771    0.0000 C   0  0  0  0  0  0  0  0  0  0  0  0
    5.8755    8.3390    0.0000 C   0  0  0  0  0  0  0  0  0  0  0  0
  1  2  1  0  0  0  0
  2  3  1  0  0  0  0
  3  4  1  0  0  0  0
  4  5  1  0  0  0  0
  5  6  1  0  0  0  0
  6  7  1  0  0  0  0
  8  7  1  0  0  0  0
  7 12  1  0  0  0  0
  9  8  1  0  0  0  0
 10  9  1  0  0  0  0
 11 10  1  0  0  0  0
 10 13  1  0  0  0  0
 12 11  1  0  0  0  0
 14 13  2  0  0  0  0
 13 27  1  0  0  0  0
 15 14  1  0  0  0  0
 16 15  1  0  0  0  0
 15 20  2  0  0  0  0
 17 16  2  0  0  0  0
 18 17  1  0  0  0  0
 19 18  2  0  0  0  0
 20 19  1  0  0  0  0
 21 20  1  0  0  0  0
 22 21  1  0  0  0  0
 23 22  1  0  0  0  0
 22 27  2  0  0  0  0
 24 23  2  0  0  0  0
 25 24  1  0  0  0  0
 26 25  2  0  0  0  0
 27 26  1  0  0  0  0
M  END
> <Inchi_key>
URKOMYMAXPYINW-UHFFFAOYSA-N

> <Source>
Mulliner

> <ID>
HT1786

> <H_MFHB>
1

> <CAS>


> <Cholestasis>


> <Name>
quetiapine fumarate;quetiapine

> <Class>
1

$$$$