

  -INDIGO-08031710012D

 30 33  0  0  0  0  0  0  0  0999 V2000
    0.7206    1.2907    0.0000 C   0  0  0  0  0  0  0  0  0  0  0  0
    1.5077    0.0139    0.0000 C   0  0  0  0  0  0  0  0  0  0  0  0
    3.0071    0.0572    0.0000 C   0  0  0  0  0  0  0  0  0  0  0  0
    3.7942   -1.2196    0.0000 C   0  0  0  0  0  0  0  0  0  0  0  0
    5.2938   -1.1762    0.0000 C   0  0  0  0  0  0  0  0  0  0  0  0
    6.2648   -0.0330    0.0000 C   0  0  0  0  0  0  0  0  0  0  0  0
    7.6523   -0.6032    0.0000 C   0  0  0  0  0  0  0  0  0  0  0  0
    7.5387   -2.0989    0.0000 C   0  0  0  0  0  0  0  0  0  0  0  0
    8.0678   -3.5024    0.0000 O   0  0  0  0  0  0  0  0  0  0  0  0
    9.0263   -2.2906    0.0000 C   0  0  0  0  0  0  0  0  0  0  0  0
    9.6042   -3.6748    0.0000 O   0  0  0  0  0  0  0  0  0  0  0  0
    9.9362   -1.0981    0.0000 C   0  0  0  0  0  0  0  0  0  0  0  0
   11.4238   -1.2898    0.0000 O   0  0  0  0  0  0  0  0  0  0  0  0
   12.3338   -0.0973    0.0000 C   0  0  0  0  0  0  0  0  0  0  0  0
   13.8214   -0.2890    0.0000 O   0  0  0  0  0  0  0  0  0  0  0  0
   11.7558    1.2870    0.0000 C   0  0  0  0  0  0  0  0  0  0  0  0
    6.0809   -2.4530    0.0000 C   0  0  0  0  0  0  0  0  0  0  0  0
    6.9766   -3.6564    0.0000 C   0  0  0  0  0  0  0  0  0  0  0  0
    5.3689   -3.7732    0.0000 C   0  0  0  0  0  0  0  0  0  0  0  0
    3.8695   -3.8166    0.0000 C   0  0  0  0  0  0  0  0  0  0  0  0
    3.1573   -5.1368    0.0000 O   0  0  0  0  0  0  0  0  0  0  0  0
    3.0822   -2.5398    0.0000 C   0  0  0  0  0  0  0  0  0  0  0  0
    1.5828   -2.5831    0.0000 C   0  0  0  0  0  0  0  0  0  0  0  0
    0.0834   -2.6265    0.0000 C   0  0  0  0  0  0  0  0  0  0  0  0
    0.8708   -3.9033    0.0000 C   0  0  0  0  0  0  0  0  0  0  0  0
   -0.6286   -3.9467    0.0000 C   0  0  0  0  0  0  0  0  0  0  0  0
   -1.4159   -2.6699    0.0000 C   0  0  0  0  0  0  0  0  0  0  0  0
   -2.9153   -2.7132    0.0000 O   0  0  0  0  0  0  0  0  0  0  0  0
   -0.7039   -1.3497    0.0000 C   0  0  0  0  0  0  0  0  0  0  0  0
    0.7957   -1.3063    0.0000 C   0  0  0  0  0  0  0  0  0  0  0  0
  1  2  1  0  0  0  0
  3  2  1  0  0  0  0
  2 30  1  0  0  0  0
  4  3  1  0  0  0  0
  5  4  1  0  0  0  0
  4 22  1  0  0  0  0
  6  5  1  0  0  0  0
  5 17  1  0  0  0  0
  7  6  1  0  0  0  0
  8  7  1  0  0  0  0
  8  9  1  0  0  0  0
  8 10  1  0  0  0  0
 17  8  1  0  0  0  0
 10 11  2  0  0  0  0
 10 12  1  0  0  0  0
 12 13  1  0  0  0  0
 13 14  1  0  0  0  0
 14 15  2  0  0  0  0
 14 16  1  0  0  0  0
 17 18  1  0  0  0  0
 19 17  1  0  0  0  0
 20 19  1  0  0  0  0
 20 21  1  0  0  0  0
 22 20  1  0  0  0  0
 23 22  1  0  0  0  0
 23 24  1  0  0  0  0
 25 23  1  0  0  0  0
 23 30  1  0  0  0  0
 26 25  2  0  0  0  0
 27 26  1  0  0  0  0
 27 28  2  0  0  0  0
 29 27  1  0  0  0  0
 30 29  2  0  0  0  0
M  END
> <Inchi_key>
PLBHSZGDDKCEHR-UHFFFAOYSA-N

> <Source>
Mulliner

> <ID>
HT1365

> <H_MFHB>
1

> <CAS>


> <Cholestasis>


> <Name>
methylprednisolone acetate

> <Class>
1


$$$$