
  -INDIGO-08031710012D

 41 45  0  0  0  0  0  0  0  0999 V2000
    0.6876   -0.6971    0.0000 C   0  0  0  0  0  0  0  0  0  0  0  0
    2.1631   -0.4270    0.0000 C   0  0  0  0  0  0  0  0  0  0  0  0
    2.6669    0.9859    0.0000 C   0  0  0  0  0  0  0  0  0  0  0  0
    4.1424    1.2560    0.0000 C   0  0  0  0  0  0  0  0  0  0  0  0
    5.2284    0.2211    0.0000 N   0  0  0  0  0  0  0  0  0  0  0  0
    6.5481    0.9339    0.0000 C   0  0  0  0  0  0  0  0  0  0  0  0
    6.2780    2.4094    0.0000 C   0  0  0  0  0  0  0  0  0  0  0  0
    7.3130    3.4952    0.0000 C   0  0  0  0  0  0  0  0  0  0  0  0
    6.8901    4.9345    0.0000 O   0  0  0  0  0  0  0  0  0  0  0  0
    8.7706    3.1418    0.0000 O   0  0  0  0  0  0  0  0  0  0  0  0
    9.8055    4.2276    0.0000 C   0  0  0  0  0  0  0  0  0  0  0  0
   11.2634    3.8742    0.0000 C   0  0  0  0  0  0  0  0  0  0  0  0
   12.4060    4.8460    0.0000 C   0  0  0  0  0  0  0  0  0  0  0  0
   12.2916    6.3415    0.0000 C   0  0  0  0  0  0  0  0  0  0  0  0
   13.6835    4.0594    0.0000 O   0  0  0  0  0  0  0  0  0  0  0  0
   13.3301    2.6016    0.0000 C   0  0  0  0  0  0  0  0  0  0  0  0
   14.3017    1.4588    0.0000 O   0  0  0  0  0  0  0  0  0  0  0  0
   11.8344    2.4873    0.0000 O   0  0  0  0  0  0  0  0  0  0  0  0
    4.7911    2.6085    0.0000 N   0  0  0  0  0  0  0  0  0  0  0  0
    4.0785    3.9282    0.0000 C   0  0  0  0  0  0  0  0  0  0  0  0
    2.5790    3.9709    0.0000 C   0  0  0  0  0  0  0  0  0  0  0  0
    1.8663    5.2906    0.0000 C   0  0  0  0  0  0  0  0  0  0  0  0
    0.3668    5.3332    0.0000 C   0  0  0  0  0  0  0  0  0  0  0  0
   -0.4198    4.0560    0.0000 C   0  0  0  0  0  0  0  0  0  0  0  0
    0.2932    2.7361    0.0000 C   0  0  0  0  0  0  0  0  0  0  0  0
    1.7924    2.6936    0.0000 C   0  0  0  0  0  0  0  0  0  0  0  0
   -1.9193    4.0984    0.0000 C   0  0  0  0  0  0  0  0  0  0  0  0
   -2.7058    2.8213    0.0000 C   0  0  0  0  0  0  0  0  0  0  0  0
   -4.2051    2.8638    0.0000 C   0  0  0  0  0  0  0  0  0  0  0  0
   -4.9180    4.1835    0.0000 C   0  0  0  0  0  0  0  0  0  0  0  0
   -4.1314    5.4610    0.0000 C   0  0  0  0  0  0  0  0  0  0  0  0
   -2.6319    5.4183    0.0000 C   0  0  0  0  0  0  0  0  0  0  0  0
   -1.8454    6.6955    0.0000 C   0  0  0  0  0  0  0  0  0  0  0  0
   -0.3497    6.8099    0.0000 N   0  0  0  0  0  0  0  0  0  0  0  0
    0.0034    8.2677    0.0000 N   0  0  0  0  0  0  0  0  0  0  0  0
   -1.2738    9.0543    0.0000 N   0  0  0  0  0  0  0  0  0  0  0  0
   -2.4164    8.0825    0.0000 N   0  0  0  0  0  0  0  0  0  0  0  0
    7.9004    0.2852    0.0000 C   0  0  0  0  0  0  0  0  0  0  0  0
    9.2530   -0.3636    0.0000 C   0  0  0  0  0  0  0  0  0  0  0  0
    8.5494    1.6377    0.0000 C   0  0  0  0  0  0  0  0  0  0  0  0
    7.2517   -1.0673    0.0000 O   0  0  0  0  0  0  0  0  0  0  0  0
  1  2  1  0  0  0  0
  2  3  1  0  0  0  0
  3  4  1  0  0  0  0
  5  4  2  0  0  0  0
  4 19  1  0  0  0  0
  6  5  1  0  0  0  0
  7  6  2  0  0  0  0
  6 38  1  0  0  0  0
  7  8  1  0  0  0  0
 19  7  1  0  0  0  0
  8  9  2  0  0  0  0
  8 10  1  0  0  0  0
 10 11  1  0  0  0  0
 11 12  1  0  0  0  0
 13 12  2  0  0  0  0
 12 18  1  0  0  0  0
 13 14  1  0  0  0  0
 15 13  1  0  0  0  0
 16 15  1  0  0  0  0
 16 17  2  0  0  0  0
 18 16  1  0  0  0  0
 19 20  1  0  0  0  0
 20 21  1  0  0  0  0
 22 21  2  0  0  0  0
 21 26  1  0  0  0  0
 23 22  1  0  0  0  0
 24 23  2  0  0  0  0
 25 24  1  0  0  0  0
 24 27  1  0  0  0  0
 26 25  2  0  0  0  0
 28 27  2  0  0  0  0
 27 32  1  0  0  0  0
 29 28  1  0  0  0  0
 30 29  2  0  0  0  0
 31 30  1  0  0  0  0
 32 31  2  0  0  0  0
 32 33  1  0  0  0  0
 34 33  1  0  0  0  0
 33 37  2  0  0  0  0
 35 34  2  0  0  0  0
 36 35  1  0  0  0  0
 37 36  1  0  0  0  0
 38 39  1  0  0  0  0
 38 40  1  0  0  0  0
 38 41  1  0  0  0  0
M  END
> <Inchi_key>
UQGKUQLKSCSZGY-UHFFFAOYSA-N

> <Source>
Mulliner

> <ID>
HT0237

> <H_MFHB>
1

> <CAS>
144689-63-4

> <Cholestasis>


> <Name>
benicar;olmesartan medoxomil

> <Class>
1

$$$$