
  -INDIGO-08031710012D

 26 28  0  0  0  0  0  0  0  0999 V2000
    4.9254   -4.9254    0.0000 O   0  0  0  0  0  0  0  0  0  0  0  0
    4.9254   -3.4254    0.0000 C   0  0  0  0  0  0  0  0  0  0  0  0
    6.2245   -2.6754    0.0000 C   0  0  0  0  0  0  0  0  0  0  0  0
    6.2245   -1.1754    0.0000 C   0  0  0  0  0  0  0  0  0  0  0  0
    7.5234   -0.4254    0.0000 C   0  0  0  0  0  0  0  0  0  0  0  0
    8.8225   -1.1754    0.0000 C   0  0  0  0  0  0  0  0  0  0  0  0
    8.8225   -2.6754    0.0000 C   0  0  0  0  0  0  0  0  0  0  0  0
    7.5234   -3.4254    0.0000 N   0  0  0  0  0  0  0  0  0  0  0  0
    3.6263   -2.6754    0.0000 C   0  0  0  0  0  0  0  0  0  0  0  0
    3.6263   -1.1754    0.0000 C   0  0  0  0  0  0  0  0  0  0  0  0
    2.3273   -0.4254    0.0000 C   0  0  0  0  0  0  0  0  0  0  0  0
    1.0282   -1.1754    0.0000 N   0  0  0  0  0  0  0  0  0  0  0  0
    1.0282   -2.6754    0.0000 C   0  0  0  0  0  0  0  0  0  0  0  0
   -0.2709   -3.4254    0.0000 C   0  0  0  0  0  0  0  0  0  0  0  0
   -0.2709   -4.9254    0.0000 C   0  0  0  0  0  0  0  0  0  0  0  0
    1.0282   -5.6754    0.0000 C   0  0  0  0  0  0  0  0  0  0  0  0
    2.3273   -4.9254    0.0000 C   0  0  0  0  0  0  0  0  0  0  0  0
    2.3273   -3.4254    0.0000 C   0  0  0  0  0  0  0  0  0  0  0  0
   -1.5698   -2.6754    0.0000 C   0  0  0  0  0  0  0  0  0  0  0  0
   -2.8689   -1.9254    0.0000 F   0  0  0  0  0  0  0  0  0  0  0  0
   -2.3198   -3.9744    0.0000 F   0  0  0  0  0  0  0  0  0  0  0  0
   -0.8198   -1.3764    0.0000 F   0  0  0  0  0  0  0  0  0  0  0  0
    2.3273    1.0747    0.0000 C   0  0  0  0  0  0  0  0  0  0  0  0
    0.8274    1.0747    0.0000 F   0  0  0  0  0  0  0  0  0  0  0  0
    2.3273    2.5746    0.0000 F   0  0  0  0  0  0  0  0  0  0  0  0
    3.8273    1.0747    0.0000 F   0  0  0  0  0  0  0  0  0  0  0  0
  1  2  1  0  0  0  0
  2  3  1  0  0  0  0
  2  9  1  0  0  0  0
  4  3  1  0  0  0  0
  3  8  1  0  0  0  0
  5  4  1  0  0  0  0
  6  5  1  0  0  0  0
  7  6  1  0  0  0  0
  8  7  1  0  0  0  0
 10  9  2  0  0  0  0
  9 18  1  0  0  0  0
 11 10  1  0  0  0  0
 12 11  2  0  0  0  0
 11 23  1  0  0  0  0
 13 12  1  0  0  0  0
 14 13  1  0  0  0  0
 13 18  2  0  0  0  0
 15 14  2  0  0  0  0
 14 19  1  0  0  0  0
 16 15  1  0  0  0  0
 17 16  2  0  0  0  0
 18 17  1  0  0  0  0
 19 20  1  0  0  0  0
 19 21  1  0  0  0  0
 19 22  1  0  0  0  0
 23 24  1  0  0  0  0
 23 25  1  0  0  0  0
 23 26  1  0  0  0  0
M  END
> <Inchi_key>
XEEQGYMUWCZPDN-UHFFFAOYSA-N

> <Source>
Mulliner

> <ID>
HT1289

> <H_MFHB>
1

> <CAS>


> <Cholestasis>


> <Name>
mefloquine hydrochloride;mefloquine

> <Class>
1

$$$$