
  -INDIGO-08031710012D

 36 37  0  0  0  0  0  0  0  0999 V2000
   12.9847    0.4226    0.0000 C   0  0  0  0  0  0  0  0  0  0  0  0
   11.6859    1.1726    0.0000 C   0  0  0  0  0  0  0  0  0  0  0  0
   11.6859    2.6726    0.0000 N   0  0  0  0  0  0  0  0  0  0  0  0
   11.6859    4.1726    0.0000 C   0  0  0  0  0  0  0  0  0  0  0  0
   10.3868    4.9226    0.0000 C   0  0  0  0  0  0  0  0  0  0  0  0
   10.1857    2.6726    0.0000 C   0  0  0  0  0  0  0  0  0  0  0  0
    9.4359    1.3737    0.0000 C   0  0  0  0  0  0  0  0  0  0  0  0
    7.9359    1.3737    0.0000 N   0  0  0  0  0  0  0  0  0  0  0  0
    7.1858    0.0746    0.0000 C   0  0  0  0  0  0  0  0  0  0  0  0
    7.9359   -1.2245    0.0000 O   0  0  0  0  0  0  0  0  0  0  0  0
    5.6858    0.0746    0.0000 C   0  0  0  0  0  0  0  0  0  0  0  0
    4.9357    1.3737    0.0000 O   0  0  0  0  0  0  0  0  0  0  0  0
    4.9357   -1.2245    0.0000 N   0  0  0  0  0  0  0  0  0  0  0  0
    3.4357   -1.2245    0.0000 C   0  0  0  0  0  0  0  0  0  0  0  0
    2.6859    0.0746    0.0000 C   0  0  0  0  0  0  0  0  0  0  0  0
    1.1857    0.0746    0.0000 N   0  0  0  0  0  0  0  0  0  0  0  0
    1.1857    1.5746    0.0000 C   0  0  0  0  0  0  0  0  0  0  0  0
    2.4848    2.3246    0.0000 C   0  0  0  0  0  0  0  0  0  0  0  0
    1.1857   -1.4254    0.0000 C   0  0  0  0  0  0  0  0  0  0  0  0
   -0.1131   -2.1754    0.0000 C   0  0  0  0  0  0  0  0  0  0  0  0
   -0.3143    0.0746    0.0000 C   0  0  0  0  0  0  0  0  0  0  0  0
   -1.0641    1.3737    0.0000 C   0  0  0  0  0  0  0  0  0  0  0  0
   -0.3143    2.6726    0.0000 C   0  0  0  0  0  0  0  0  0  0  0  0
   -1.0641    3.9717    0.0000 C   0  0  0  0  0  0  0  0  0  0  0  0
   -2.5641    3.9717    0.0000 C   0  0  0  0  0  0  0  0  0  0  0  0
   -3.3142    2.6726    0.0000 C   0  0  0  0  0  0  0  0  0  0  0  0
   -2.5641    1.3737    0.0000 C   0  0  0  0  0  0  0  0  0  0  0  0
   -3.3142    0.0746    0.0000 Cl  0  0  0  0  0  0  0  0  0  0  0  0
   13.1859    2.6726    0.0000 C   0  0  0  0  0  0  0  0  0  0  0  0
   13.9357    3.9717    0.0000 C   0  0  0  0  0  0  0  0  0  0  0  0
   13.1859    5.2707    0.0000 C   0  0  0  0  0  0  0  0  0  0  0  0
   13.9357    6.5698    0.0000 C   0  0  0  0  0  0  0  0  0  0  0  0
   15.4357    6.5698    0.0000 C   0  0  0  0  0  0  0  0  0  0  0  0
   16.1858    5.2707    0.0000 C   0  0  0  0  0  0  0  0  0  0  0  0
   15.4357    3.9717    0.0000 C   0  0  0  0  0  0  0  0  0  0  0  0
   16.1858    2.6726    0.0000 Cl  0  0  0  0  0  0  0  0  0  0  0  0
  1  2  1  0  0  0  0
  2  3  1  0  0  0  0
  3  4  1  0  0  0  0
  3  6  1  0  0  0  0
  3 29  1  0  0  0  0
  4  5  1  0  0  0  0
  6  7  1  0  0  0  0
  7  8  1  0  0  0  0
  8  9  1  0  0  0  0
  9 10  2  0  0  0  0
  9 11  1  0  0  0  0
 11 12  2  0  0  0  0
 11 13  1  0  0  0  0
 13 14  1  0  0  0  0
 14 15  1  0  0  0  0
 15 16  1  0  0  0  0
 16 17  1  0  0  0  0
 16 19  1  0  0  0  0
 16 21  1  0  0  0  0
 17 18  1  0  0  0  0
 19 20  1  0  0  0  0
 21 22  1  0  0  0  0
 23 22  2  0  0  0  0
 22 27  1  0  0  0  0
 24 23  1  0  0  0  0
 25 24  2  0  0  0  0
 26 25  1  0  0  0  0
 27 26  2  0  0  0  0
 27 28  1  0  0  0  0
 29 30  1  0  0  0  0
 31 30  2  0  0  0  0
 30 35  1  0  0  0  0
 32 31  1  0  0  0  0
 33 32  2  0  0  0  0
 34 33  1  0  0  0  0
 35 34  2  0  0  0  0
 35 36  1  0  0  0  0
M  CHG  2   3   1  16   1
M  END
> <Inchi_key>
OMHBPUNFVFNHJK-UHFFFAOYSA-P

> <Source>
Mulliner

> <ID>
HT0123

> <H_MFHB>
1

> <CAS>


> <Cholestasis>


> <Name>
ambenonium chloride;ambenonium

> <Class>
1

$$$$