

  -INDIGO-08031710012D

 30 32  0  0  0  0  0  0  0  0999 V2000
    0.6144    8.9541    0.0000 N   0  0  0  0  0  0  0  0  0  0  0  0
    0.8335    7.4702    0.0000 C   0  0  0  0  0  0  0  0  0  0  0  0
    2.1626    6.7752    0.0000 N   0  0  0  0  0  0  0  0  0  0  0  0
    1.9126    5.2962    0.0000 C   0  0  0  0  0  0  0  0  0  0  0  0
    0.4285    5.0770    0.0000 C   0  0  0  0  0  0  0  0  0  0  0  0
   -0.2384    6.4206    0.0000 S   0  0  0  0  0  0  0  0  0  0  0  0
    2.9619    4.2244    0.0000 C   0  0  0  0  0  0  0  0  0  0  0  0
    2.5586    2.7798    0.0000 N   0  0  0  0  0  0  0  0  0  0  0  0
    1.1056    2.4067    0.0000 O   0  0  0  0  0  0  0  0  0  0  0  0
    0.7021    0.9620    0.0000 C   0  0  0  0  0  0  0  0  0  0  0  0
   -0.7506    0.5889    0.0000 C   0  0  0  0  0  0  0  0  0  0  0  0
   -1.8002    1.6609    0.0000 O   0  0  0  0  0  0  0  0  0  0  0  0
   -1.1542   -0.8557    0.0000 O   0  0  0  0  0  0  0  0  0  0  0  0
    4.4148    4.5974    0.0000 C   0  0  0  0  0  0  0  0  0  0  0  0
    4.8182    6.0421    0.0000 O   0  0  0  0  0  0  0  0  0  0  0  0
    5.4644    3.5257    0.0000 N   0  0  0  0  0  0  0  0  0  0  0  0
    6.9171    3.8985    0.0000 C   0  0  0  0  0  0  0  0  0  0  0  0
    8.2081    3.1350    0.0000 C   0  0  0  0  0  0  0  0  0  0  0  0
    8.9446    1.8282    0.0000 S   0  0  0  0  0  0  0  0  0  0  0  0
   10.4445    1.8123    0.0000 C   0  0  0  0  0  0  0  0  0  0  0  0
   11.2082    3.1035    0.0000 C   0  0  0  0  0  0  0  0  0  0  0  0
   10.4717    4.4103    0.0000 C   0  0  0  0  0  0  0  0  0  0  0  0
    8.9718    4.4260    0.0000 N   0  0  0  0  0  0  0  0  0  0  0  0
    7.6808    5.1897    0.0000 C   0  0  0  0  0  0  0  0  0  0  0  0
    7.3079    6.6426    0.0000 O   0  0  0  0  0  0  0  0  0  0  0  0
   11.2354    5.7014    0.0000 C   0  0  0  0  0  0  0  0  0  0  0  0
   10.4991    7.0083    0.0000 O   0  0  0  0  0  0  0  0  0  0  0  0
   12.7353    5.6857    0.0000 O   0  0  0  0  0  0  0  0  0  0  0  0
   12.7081    3.0877    0.0000 C   0  0  0  0  0  0  0  0  0  0  0  0
   13.4443    1.7809    0.0000 C   0  0  0  0  0  0  0  0  0  0  0  0
  1  2  1  0  0  0  0
  3  2  2  0  0  0  0
  2  6  1  0  0  0  0
  4  3  1  0  0  0  0
  5  4  2  0  0  0  0
  4  7  1  0  0  0  0
  6  5  1  0  0  0  0
  7  8  2  0  0  0  0
  7 14  1  0  0  0  0
  8  9  1  0  0  0  0
  9 10  1  0  0  0  0
 10 11  1  0  0  0  0
 11 12  2  0  0  0  0
 11 13  1  0  0  0  0
 14 15  2  0  0  0  0
 14 16  1  0  0  0  0
 16 17  1  0  0  0  0
 18 17  1  0  0  0  0
 17 24  1  0  0  0  0
 19 18  1  0  0  0  0
 18 23  1  0  0  0  0
 20 19  1  0  0  0  0
 21 20  1  0  0  0  0
 22 21  2  0  0  0  0
 21 29  1  0  0  0  0
 23 22  1  0  0  0  0
 22 26  1  0  0  0  0
 24 23  1  0  0  0  0
 24 25  2  0  0  0  0
 26 27  2  0  0  0  0
 26 28  1  0  0  0  0
 29 30  2  0  0  0  0
M  END
> <Inchi_key>
OKBVVJOGVLARMR-AWQFTUOYSA-N, OKBVVJOGVLARMR-UKWGHVSLSA-N

> <Source>
Mulliner,  Kotsampasakou

> <ID>
EK0105;HT0405

> <H_MFHB>
1

> <CAS>


> <Cholestasis>
1

> <Name>
cefixime;cefixime anhydrous

> <Class>
1


$$$$