

  -INDIGO-08031710012D

 20 21  0  0  0  0  0  0  0  0999 V2000
    1.8836    5.2054    0.0000 C   0  0  0  0  0  0  0  0  0  0  0  0
    1.8836    3.7054    0.0000 N   0  0  0  0  0  0  0  0  0  0  0  0
    3.1827    2.9554    0.0000 C   0  0  0  0  0  0  0  0  0  0  0  0
    4.4817    3.7054    0.0000 O   0  0  0  0  0  0  0  0  0  0  0  0
    3.1827    1.4554    0.0000 N   0  0  0  0  0  0  0  0  0  0  0  0
    4.4817    0.7054    0.0000 C   0  0  0  0  0  0  0  0  0  0  0  0
    5.7807    1.4554    0.0000 C   0  0  0  0  0  0  0  0  0  0  0  0
    7.0797    0.7054    0.0000 C   0  0  0  0  0  0  0  0  0  0  0  0
    8.3788    1.4554    0.0000 C   0  0  0  0  0  0  0  0  0  0  0  0
    9.6778    0.7054    0.0000 C   0  0  0  0  0  0  0  0  0  0  0  0
    9.6778   -0.7946    0.0000 O   0  0  0  0  0  0  0  0  0  0  0  0
   10.9768    1.4554    0.0000 C   0  0  0  0  0  0  0  0  0  0  0  0
    1.8836    0.7054    0.0000 C   0  0  0  0  0  0  0  0  0  0  0  0
    1.8836   -0.7946    0.0000 O   0  0  0  0  0  0  0  0  0  0  0  0
    0.5844    1.4554    0.0000 C   0  0  0  0  0  0  0  0  0  0  0  0
    0.5844    2.9554    0.0000 C   0  0  0  0  0  0  0  0  0  0  0  0
   -0.8419    3.4190    0.0000 N   0  0  0  0  0  0  0  0  0  0  0  0
   -1.7237    2.2054    0.0000 C   0  0  0  0  0  0  0  0  0  0  0  0
   -0.8419    0.9919    0.0000 N   0  0  0  0  0  0  0  0  0  0  0  0
   -1.3057   -0.4347    0.0000 C   0  0  0  0  0  0  0  0  0  0  0  0
  1  2  1  0  0  0  0
  3  2  1  0  0  0  0
  2 16  1  0  0  0  0
  3  4  2  0  0  0  0
  5  3  1  0  0  0  0
  5  6  1  0  0  0  0
 13  5  1  0  0  0  0
  6  7  1  0  0  0  0
  7  8  1  0  0  0  0
  8  9  1  0  0  0  0
  9 10  1  0  0  0  0
 10 11  2  0  0  0  0
 10 12  1  0  0  0  0
 13 14  2  0  0  0  0
 15 13  1  0  0  0  0
 15 16  2  0  0  0  0
 19 15  1  0  0  0  0
 16 17  1  0  0  0  0
 17 18  2  0  0  0  0
 18 19  1  0  0  0  0
 19 20  1  0  0  0  0
M  END
> <Inchi_key>
BYPFEZZEUUWMEJ-UHFFFAOYSA-N

> <Source>
Mulliner , Kotsampasakou

> <ID>
EK0410;HT1627

> <H_MFHB>
1

> <CAS>
1677687

> <Cholestasis>
1

> <Name>
pentoxifylline

> <Class>
1


$$$$