
  -INDIGO-08031710012D

 13 13  0  0  0  0  0  0  0  0999 V2000
    4.7434   -2.5545    0.0000 C   0  0  0  0  0  0  0  0  0  0  0  0
    4.6649   -4.0524    0.0000 C   0  0  0  0  0  0  0  0  0  0  0  0
    5.9229   -4.8694    0.0000 O   0  0  0  0  0  0  0  0  0  0  0  0
    3.3284   -4.7334    0.0000 N   0  0  0  0  0  0  0  0  0  0  0  0
    2.0703   -3.9164    0.0000 C   0  0  0  0  0  0  0  0  0  0  0  0
    1.9919   -2.4185    0.0000 N   0  0  0  0  0  0  0  0  0  0  0  0
    0.5431   -2.0303    0.0000 N   0  0  0  0  0  0  0  0  0  0  0  0
   -0.2739   -3.2883    0.0000 C   0  0  0  0  0  0  0  0  0  0  0  0
    0.6700   -4.4540    0.0000 S   0  0  0  0  0  0  0  0  0  0  0  0
   -1.7718   -3.3668    0.0000 S   0  0  0  0  0  0  0  0  0  0  0  0
   -1.6934   -4.8647    0.0000 O   0  0  0  0  0  0  0  0  0  0  0  0
   -1.8504   -1.8688    0.0000 O   0  0  0  0  0  0  0  0  0  0  0  0
   -3.2698   -3.4453    0.0000 N   0  0  0  0  0  0  0  0  0  0  0  0
  1  2  1  0  0  0  0
  2  3  2  0  0  0  0
  2  4  1  0  0  0  0
  4  5  1  0  0  0  0
  6  5  2  0  0  0  0
  5  9  1  0  0  0  0
  7  6  1  0  0  0  0
  8  7  2  0  0  0  0
  9  8  1  0  0  0  0
  8 10  1  0  0  0  0
 10 11  2  0  0  0  0
 10 12  2  0  0  0  0
 10 13  1  0  0  0  0
M  END
> <Inchi_key>
BZKPWHYZMXOIDC-UHFFFAOYSA-N

> <Source>
Mulliner

> <ID>
HT0054

> <H_MFHB>
1

> <CAS>
59-66-5

> <Cholestasis>


> <Name>
acetazolamide;acetazolamide sodium

> <Class>
1

$$$$