
  -INDIGO-08031710012D

 35 37  0  0  0  0  0  0  0  0999 V2000
   -0.1890    3.7484    0.0000 C   0  0  0  0  0  0  0  0  0  0  0  0
    1.1100    2.9985    0.0000 O   0  0  0  0  0  0  0  0  0  0  0  0
    1.1100    1.4984    0.0000 C   0  0  0  0  0  0  0  0  0  0  0  0
    2.4090    0.7484    0.0000 C   0  0  0  0  0  0  0  0  0  0  0  0
    3.7080    1.4984    0.0000 C   0  0  0  0  0  0  0  0  0  0  0  0
    5.0070    0.7484    0.0000 C   0  0  0  0  0  0  0  0  0  0  0  0
    5.0070   -0.7516    0.0000 C   0  0  0  0  0  0  0  0  0  0  0  0
    6.3063   -1.5016    0.0000 C   0  0  0  0  0  0  0  0  0  0  0  0
    3.7080   -1.5016    0.0000 N   0  0  0  0  0  0  0  0  0  0  0  0
    2.4090   -0.7516    0.0000 C   0  0  0  0  0  0  0  0  0  0  0  0
    1.1100   -1.5016    0.0000 C   0  0  0  0  0  0  0  0  0  0  0  0
    6.3063    1.4984    0.0000 C   0  0  0  0  0  0  0  0  0  0  0  0
    6.3063    2.9985    0.0000 O   0  0  0  0  0  0  0  0  0  0  0  0
    7.6052    0.7484    0.0000 O   0  0  0  0  0  0  0  0  0  0  0  0
    8.9042    1.4984    0.0000 C   0  0  0  0  0  0  0  0  0  0  0  0
   10.2032    0.7484    0.0000 C   0  0  0  0  0  0  0  0  0  0  0  0
   11.5022    1.4984    0.0000 N   0  0  0  0  0  0  0  0  0  0  0  0
   11.5022    2.9985    0.0000 C   0  0  0  0  0  0  0  0  0  0  0  0
   12.8012    0.7484    0.0000 C   0  0  0  0  0  0  0  0  0  0  0  0
   14.1005    1.4984    0.0000 C   0  0  0  0  0  0  0  0  0  0  0  0
   14.1005    2.9985    0.0000 C   0  0  0  0  0  0  0  0  0  0  0  0
   15.3995    3.7484    0.0000 C   0  0  0  0  0  0  0  0  0  0  0  0
   16.6985    2.9985    0.0000 C   0  0  0  0  0  0  0  0  0  0  0  0
   16.6985    1.4984    0.0000 C   0  0  0  0  0  0  0  0  0  0  0  0
   15.3995    0.7484    0.0000 C   0  0  0  0  0  0  0  0  0  0  0  0
    3.7080    2.9985    0.0000 C   0  0  0  0  0  0  0  0  0  0  0  0
    2.4090    3.7484    0.0000 C   0  0  0  0  0  0  0  0  0  0  0  0
    2.4090    5.2484    0.0000 C   0  0  0  0  0  0  0  0  0  0  0  0
    3.7080    5.9985    0.0000 C   0  0  0  0  0  0  0  0  0  0  0  0
    5.0070    5.2484    0.0000 C   0  0  0  0  0  0  0  0  0  0  0  0
    5.0070    3.7484    0.0000 C   0  0  0  0  0  0  0  0  0  0  0  0
    6.3063    5.9985    0.0000 N   0  0  0  0  0  0  0  0  0  0  0  0
    6.3063    7.4984    0.0000 O   0  0  0  0  0  0  0  0  0  0  0  0
    7.6052    5.2484    0.0000 O   0  0  0  0  0  0  0  0  0  0  0  0
   -0.1890    0.7484    0.0000 O   0  0  0  0  0  0  0  0  0  0  0  0
  1  2  1  0  0  0  0
  2  3  1  0  0  0  0
  3  4  2  0  0  0  0
  3 35  1  0  0  0  0
  5  4  1  0  0  0  0
  4 10  1  0  0  0  0
  6  5  1  0  0  0  0
  5 26  1  0  0  0  0
  7  6  2  0  0  0  0
  6 12  1  0  0  0  0
  7  8  1  0  0  0  0
  9  7  1  0  0  0  0
 10  9  2  0  0  0  0
 10 11  1  0  0  0  0
 12 13  2  0  0  0  0
 12 14  1  0  0  0  0
 14 15  1  0  0  0  0
 15 16  1  0  0  0  0
 16 17  1  0  0  0  0
 17 18  1  0  0  0  0
 17 19  1  0  0  0  0
 19 20  1  0  0  0  0
 21 20  2  0  0  0  0
 20 25  1  0  0  0  0
 22 21  1  0  0  0  0
 23 22  2  0  0  0  0
 24 23  1  0  0  0  0
 25 24  2  0  0  0  0
 27 26  2  0  0  0  0
 26 31  1  0  0  0  0
 28 27  1  0  0  0  0
 29 28  2  0  0  0  0
 30 29  1  0  0  0  0
 31 30  2  0  0  0  0
 30 32  1  0  0  0  0
 32 33  2  0  0  0  0
 32 34  1  0  0  0  0
M  CHG  2  32   1  34  -1
M  END
> <Inchi_key>
VYHIJYQMAJYKEO-LVWGJNHUSA-N

> <Source>
Mulliner

> <ID>
HT1483

> <H_MFHB>
1

> <CAS>
54527-84-3;55985-32-5

> <Cholestasis>


> <Name>
nicardipine hydrochloride;nicardipine

> <Class>
1

$$$$