

  -INDIGO-08031710012D

 20 22  0  0  0  0  0  0  0  0999 V2000
   -0.3388   -2.7375    0.0000 N   0  0  0  0  0  0  0  0  0  0  0  0
    0.9602   -1.9875    0.0000 C   0  0  0  0  0  0  0  0  0  0  0  0
    0.9602   -0.4875    0.0000 N   0  0  0  0  0  0  0  0  0  0  0  0
    2.2593    0.2625    0.0000 C   0  0  0  0  0  0  0  0  0  0  0  0
    2.2593    1.7625    0.0000 Cl  0  0  0  0  0  0  0  0  0  0  0  0
    3.5583   -0.4875    0.0000 N   0  0  0  0  0  0  0  0  0  0  0  0
    3.5583   -1.9875    0.0000 C   0  0  0  0  0  0  0  0  0  0  0  0
    2.2593   -2.7375    0.0000 C   0  0  0  0  0  0  0  0  0  0  0  0
    2.5711   -4.2047    0.0000 N   0  0  0  0  0  0  0  0  0  0  0  0
    4.0629   -4.3615    0.0000 C   0  0  0  0  0  0  0  0  0  0  0  0
    4.6730   -2.9912    0.0000 N   0  0  0  0  0  0  0  0  0  0  0  0
    6.1403   -2.6793    0.0000 C   0  0  0  0  0  0  0  0  0  0  0  0
    6.7502   -1.3090    0.0000 O   0  0  0  0  0  0  0  0  0  0  0  0
    8.2421   -1.4658    0.0000 C   0  0  0  0  0  0  0  0  0  0  0  0
    9.2457   -0.3510    0.0000 C   0  0  0  0  0  0  0  0  0  0  0  0
    8.7823    1.0755    0.0000 O   0  0  0  0  0  0  0  0  0  0  0  0
    8.5540   -2.9330    0.0000 C   0  0  0  0  0  0  0  0  0  0  0  0
    9.9243   -3.5431    0.0000 O   0  0  0  0  0  0  0  0  0  0  0  0
    7.2550   -3.6830    0.0000 C   0  0  0  0  0  0  0  0  0  0  0  0
    7.0981   -5.1748    0.0000 F   0  0  0  0  0  0  0  0  0  0  0  0
  1  2  1  0  0  0  0
  3  2  2  0  0  0  0
  2  8  1  0  0  0  0
  4  3  1  0  0  0  0
  4  5  1  0  0  0  0
  6  4  2  0  0  0  0
  7  6  1  0  0  0  0
  7  8  2  0  0  0  0
 11  7  1  0  0  0  0
  8  9  1  0  0  0  0
  9 10  2  0  0  0  0
 10 11  1  0  0  0  0
 11 12  1  0  0  0  0
 13 12  1  0  0  0  0
 12 19  1  0  0  0  0
 14 13  1  0  0  0  0
 14 15  1  0  0  0  0
 17 14  1  0  0  0  0
 15 16  1  0  0  0  0
 17 18  1  0  0  0  0
 19 17  1  0  0  0  0
 19 20  1  0  0  0  0
M  END
> <Inchi_key>
WDDPHFBMKLOVOX-UHFFFAOYSA-N

> <Source>
Mulliner

> <ID>
HT0521

> <H_MFHB>
1

> <CAS>


> <Cholestasis>


> <Name>
clofarabine

> <Class>
1


$$$$