
  -INDIGO-08031710012D

 23 26  0  0  0  0  0  0  0  0999 V2000
    0.5062   -2.4090    0.0000 C   0  0  0  0  0  0  0  0  0  0  0  0
    1.8792   -1.8051    0.0000 N   0  0  0  0  0  0  0  0  0  0  0  0
    3.0888   -2.6925    0.0000 C   0  0  0  0  0  0  0  0  0  0  0  0
    4.4618   -2.0887    0.0000 C   0  0  0  0  0  0  0  0  0  0  0  0
    4.6256   -0.5977    0.0000 N   0  0  0  0  0  0  0  0  0  0  0  0
    3.4163    0.2896    0.0000 C   0  0  0  0  0  0  0  0  0  0  0  0
    2.0431   -0.3142    0.0000 C   0  0  0  0  0  0  0  0  0  0  0  0
    5.9987    0.0060    0.0000 C   0  0  0  0  0  0  0  0  0  0  0  0
    7.1391   -0.9684    0.0000 N   0  0  0  0  0  0  0  0  0  0  0  0
    8.6120   -0.6852    0.0000 C   0  0  0  0  0  0  0  0  0  0  0  0
    9.4132   -1.9533    0.0000 C   0  0  0  0  0  0  0  0  0  0  0  0
   10.9121   -1.8935    0.0000 C   0  0  0  0  0  0  0  0  0  0  0  0
   11.7133   -3.1616    0.0000 Cl  0  0  0  0  0  0  0  0  0  0  0  0
   11.6097   -0.5656    0.0000 C   0  0  0  0  0  0  0  0  0  0  0  0
   10.8085    0.7025    0.0000 C   0  0  0  0  0  0  0  0  0  0  0  0
    9.3098    0.6427    0.0000 C   0  0  0  0  0  0  0  0  0  0  0  0
    8.7071    2.0164    0.0000 N   0  0  0  0  0  0  0  0  0  0  0  0
    7.2559    2.3991    0.0000 C   0  0  0  0  0  0  0  0  0  0  0  0
    7.0839    3.8892    0.0000 C   0  0  0  0  0  0  0  0  0  0  0  0
    5.7075    4.4853    0.0000 C   0  0  0  0  0  0  0  0  0  0  0  0
    4.5030    3.5913    0.0000 C   0  0  0  0  0  0  0  0  0  0  0  0
    4.6751    2.1012    0.0000 C   0  0  0  0  0  0  0  0  0  0  0  0
    6.0515    1.5051    0.0000 C   0  0  0  0  0  0  0  0  0  0  0  0
  1  2  1  0  0  0  0
  3  2  1  0  0  0  0
  2  7  1  0  0  0  0
  4  3  1  0  0  0  0
  5  4  1  0  0  0  0
  6  5  1  0  0  0  0
  5  8  1  0  0  0  0
  7  6  1  0  0  0  0
  9  8  2  0  0  0  0
  8 23  1  0  0  0  0
 10  9  1  0  0  0  0
 11 10  1  0  0  0  0
 10 16  2  0  0  0  0
 12 11  2  0  0  0  0
 12 13  1  0  0  0  0
 14 12  1  0  0  0  0
 15 14  2  0  0  0  0
 16 15  1  0  0  0  0
 17 16  1  0  0  0  0
 18 17  1  0  0  0  0
 19 18  1  0  0  0  0
 18 23  2  0  0  0  0
 20 19  2  0  0  0  0
 21 20  1  0  0  0  0
 22 21  2  0  0  0  0
 23 22  1  0  0  0  0
M  END
> <Inchi_key>
QZUDBNBUXVUHMW-UHFFFAOYSA-N

> <Source>
Mulliner , Kotsampasakou

> <ID>
EK0134;HT0539

> <H_MFHB>
1

> <CAS>
5786-21-0

> <Cholestasis>
1

> <Name>
clozapine

> <Class>
1

$$$$