
  -INDIGO-08031710012D

 17 18  0  0  0  0  0  0  0  0999 V2000
    2.5146    4.3556    0.0000 C   0  0  0  0  0  0  0  0  0  0  0  0
    3.2646    3.0566    0.0000 C   0  0  0  0  0  0  0  0  0  0  0  0
    2.5146    1.7575    0.0000 C   0  0  0  0  0  0  0  0  0  0  0  0
    1.0147    1.7575    0.0000 N   0  0  0  0  0  0  0  0  0  0  0  0
    0.2647    0.4585    0.0000 C   0  0  0  0  0  0  0  0  0  0  0  0
   -1.2353    0.4585    0.0000 N   0  0  0  0  0  0  0  0  0  0  0  0
    1.0147   -0.8406    0.0000 N   0  0  0  0  0  0  0  0  0  0  0  0
    2.5146   -0.8406    0.0000 C   0  0  0  0  0  0  0  0  0  0  0  0
    3.2646   -2.1396    0.0000 N   0  0  0  0  0  0  0  0  0  0  0  0
    3.2646    0.4585    0.0000 C   0  0  0  0  0  0  0  0  0  0  0  0
    4.7648    0.4585    0.0000 C   0  0  0  0  0  0  0  0  0  0  0  0
    5.5148    1.7575    0.0000 C   0  0  0  0  0  0  0  0  0  0  0  0
    7.0147    1.7575    0.0000 C   0  0  0  0  0  0  0  0  0  0  0  0
    7.7647    0.4585    0.0000 C   0  0  0  0  0  0  0  0  0  0  0  0
    9.2647    0.4585    0.0000 Cl  0  0  0  0  0  0  0  0  0  0  0  0
    7.0147   -0.8406    0.0000 C   0  0  0  0  0  0  0  0  0  0  0  0
    5.5148   -0.8406    0.0000 C   0  0  0  0  0  0  0  0  0  0  0  0
  1  2  1  0  0  0  0
  2  3  1  0  0  0  0
  4  3  2  0  0  0  0
  3 10  1  0  0  0  0
  5  4  1  0  0  0  0
  5  6  1  0  0  0  0
  7  5  2  0  0  0  0
  8  7  1  0  0  0  0
  8  9  1  0  0  0  0
 10  8  2  0  0  0  0
 10 11  1  0  0  0  0
 12 11  2  0  0  0  0
 11 17  1  0  0  0  0
 13 12  1  0  0  0  0
 14 13  2  0  0  0  0
 14 15  1  0  0  0  0
 16 14  1  0  0  0  0
 17 16  2  0  0  0  0
M  END
> <Inchi_key>
WKSAUQYGYAYLPV-UHFFFAOYSA-N

> <Source>
Mulliner

> <ID>
HT1780

> <H_MFHB>
1

> <CAS>


> <Cholestasis>


> <Name>
pyrimethamine

> <Class>
1

$$$$