
  -INDIGO-08031710012D

 25 27  0  0  0  0  0  0  0  0999 V2000
   -0.5696   -8.0077    0.0000 C   0  0  0  0  0  0  0  0  0  0  0  0
   -0.1404   -6.5705    0.0000 O   0  0  0  0  0  0  0  0  0  0  0  0
    1.3189   -6.2234    0.0000 C   0  0  0  0  0  0  0  0  0  0  0  0
    2.3490   -7.3138    0.0000 C   0  0  0  0  0  0  0  0  0  0  0  0
    3.8083   -6.9669    0.0000 C   0  0  0  0  0  0  0  0  0  0  0  0
    4.2375   -5.5295    0.0000 C   0  0  0  0  0  0  0  0  0  0  0  0
    3.2074   -4.4392    0.0000 C   0  0  0  0  0  0  0  0  0  0  0  0
    1.7481   -4.7862    0.0000 C   0  0  0  0  0  0  0  0  0  0  0  0
    3.9260   -3.1226    0.0000 C   0  0  0  0  0  0  0  0  0  0  0  0
    3.2831   -1.7673    0.0000 C   0  0  0  0  0  0  0  0  0  0  0  0
    1.7881   -1.6463    0.0000 C   0  0  0  0  0  0  0  0  0  0  0  0
    1.1453   -0.2910    0.0000 O   0  0  0  0  0  0  0  0  0  0  0  0
    0.9358   -2.8805    0.0000 O   0  0  0  0  0  0  0  0  0  0  0  0
    5.4003   -3.3992    0.0000 C   0  0  0  0  0  0  0  0  0  0  0  0
    6.4906   -2.3692    0.0000 C   0  0  0  0  0  0  0  0  0  0  0  0
    5.5928   -4.8868    0.0000 N   0  0  0  0  0  0  0  0  0  0  0  0
    6.9096   -5.6054    0.0000 C   0  0  0  0  0  0  0  0  0  0  0  0
    6.9453   -7.1050    0.0000 O   0  0  0  0  0  0  0  0  0  0  0  0
    8.1902   -4.8245    0.0000 C   0  0  0  0  0  0  0  0  0  0  0  0
    8.1543   -3.3249    0.0000 C   0  0  0  0  0  0  0  0  0  0  0  0
    9.4349   -2.5440    0.0000 C   0  0  0  0  0  0  0  0  0  0  0  0
   10.7515   -3.2626    0.0000 C   0  0  0  0  0  0  0  0  0  0  0  0
   12.0322   -2.4817    0.0000 Cl  0  0  0  0  0  0  0  0  0  0  0  0
   10.7875   -4.7622    0.0000 C   0  0  0  0  0  0  0  0  0  0  0  0
    9.5068   -5.5431    0.0000 C   0  0  0  0  0  0  0  0  0  0  0  0
  1  2  1  0  0  0  0
  2  3  1  0  0  0  0
  4  3  2  0  0  0  0
  3  8  1  0  0  0  0
  5  4  1  0  0  0  0
  6  5  2  0  0  0  0
  6  7  1  0  0  0  0
 16  6  1  0  0  0  0
  8  7  2  0  0  0  0
  7  9  1  0  0  0  0
  9 10  1  0  0  0  0
  9 14  2  0  0  0  0
 10 11  1  0  0  0  0
 11 12  2  0  0  0  0
 11 13  1  0  0  0  0
 14 15  1  0  0  0  0
 14 16  1  0  0  0  0
 16 17  1  0  0  0  0
 17 18  2  0  0  0  0
 17 19  1  0  0  0  0
 20 19  2  0  0  0  0
 19 25  1  0  0  0  0
 21 20  1  0  0  0  0
 22 21  2  0  0  0  0
 22 23  1  0  0  0  0
 24 22  1  0  0  0  0
 25 24  2  0  0  0  0
M  END
> <Inchi_key>
CGIGDMFJXJATDK-UHFFFAOYSA-N

> <Source>
Mulliner

> <ID>
HT1096

> <H_MFHB>
1

> <CAS>
53-86-1

> <Cholestasis>


> <Name>
indomethacin;indomethacin sodium

> <Class>
1

$$$$