

  -INDIGO-08031710012D

 29 30  0  0  0  0  0  0  0  0999 V2000
    8.1154    2.1745    0.0000 N   0  0  0  0  0  0  0  0  0  0  0  0
    6.8165    1.4245    0.0000 C   0  0  0  0  0  0  0  0  0  0  0  0
    6.8165   -0.0754    0.0000 C   0  0  0  0  0  0  0  0  0  0  0  0
    5.5174   -0.8256    0.0000 C   0  0  0  0  0  0  0  0  0  0  0  0
    5.5174   -2.3255    0.0000 C   0  0  0  0  0  0  0  0  0  0  0  0
    4.2185   -3.0755    0.0000 C   0  0  0  0  0  0  0  0  0  0  0  0
    4.2185   -4.5754    0.0000 N   0  0  0  0  0  0  0  0  0  0  0  0
    5.5174   -5.3256    0.0000 C   0  0  0  0  0  0  0  0  0  0  0  0
    6.8165   -4.5754    0.0000 C   0  0  0  0  0  0  0  0  0  0  0  0
    8.1154   -5.3256    0.0000 C   0  0  0  0  0  0  0  0  0  0  0  0
    9.4146   -4.5754    0.0000 C   0  0  0  0  0  0  0  0  0  0  0  0
   10.7137   -5.3256    0.0000 C   0  0  0  0  0  0  0  0  0  0  0  0
   12.0126   -4.5754    0.0000 C   0  0  0  0  0  0  0  0  0  0  0  0
   12.0126   -3.0755    0.0000 C   0  0  0  0  0  0  0  0  0  0  0  0
   10.7137   -2.3255    0.0000 C   0  0  0  0  0  0  0  0  0  0  0  0
    9.4146   -3.0755    0.0000 C   0  0  0  0  0  0  0  0  0  0  0  0
    5.5174   -6.8255    0.0000 C   0  0  0  0  0  0  0  0  0  0  0  0
    4.2185   -7.5755    0.0000 O   0  0  0  0  0  0  0  0  0  0  0  0
    6.8165   -7.5755    0.0000 O   0  0  0  0  0  0  0  0  0  0  0  0
    2.9194   -2.3255    0.0000 C   0  0  0  0  0  0  0  0  0  0  0  0
    2.9194   -0.8256    0.0000 O   0  0  0  0  0  0  0  0  0  0  0  0
    1.6202   -3.0755    0.0000 N   0  0  0  0  0  0  0  0  0  0  0  0
    1.4635   -4.5673    0.0000 C   0  0  0  0  0  0  0  0  0  0  0  0
   -0.0038   -4.8791    0.0000 C   0  0  0  0  0  0  0  0  0  0  0  0
   -0.7536   -3.5801    0.0000 C   0  0  0  0  0  0  0  0  0  0  0  0
    0.2500   -2.4654    0.0000 C   0  0  0  0  0  0  0  0  0  0  0  0
   -0.0619   -0.9981    0.0000 C   0  0  0  0  0  0  0  0  0  0  0  0
    1.0529    0.0057    0.0000 O   0  0  0  0  0  0  0  0  0  0  0  0
   -1.4885   -0.5346    0.0000 O   0  0  0  0  0  0  0  0  0  0  0  0
  1  2  1  0  0  0  0
  2  3  1  0  0  0  0
  3  4  1  0  0  0  0
  4  5  1  0  0  0  0
  5  6  1  0  0  0  0
  6  7  1  0  0  0  0
  6 20  1  0  0  0  0
  7  8  1  0  0  0  0
  8  9  1  0  0  0  0
  8 17  1  0  0  0  0
  9 10  1  0  0  0  0
 10 11  1  0  0  0  0
 12 11  2  0  0  0  0
 11 16  1  0  0  0  0
 13 12  1  0  0  0  0
 14 13  2  0  0  0  0
 15 14  1  0  0  0  0
 16 15  2  0  0  0  0
 17 18  2  0  0  0  0
 17 19  1  0  0  0  0
 20 21  2  0  0  0  0
 20 22  1  0  0  0  0
 23 22  1  0  0  0  0
 22 26  1  0  0  0  0
 24 23  1  0  0  0  0
 25 24  1  0  0  0  0
 26 25  1  0  0  0  0
 26 27  1  0  0  0  0
 27 28  2  0  0  0  0
 27 29  1  0  0  0  0
M  END
> <Inchi_key>
RLAWWYSOJDYHDC-UHFFFAOYSA-N

> <Source>
Mulliner

> <ID>
HT1218

> <H_MFHB>
1

> <CAS>
76547-98-3

> <Cholestasis>


> <Name>
lisinopril

> <Class>
1


$$$$