

  -INDIGO-08031709442D

 14 16  0  0  0  0  0  0  0  0999 V2000
    1.5001   -1.5000    0.0000 S   0  0  0  0  0  0  0  0  0  0  0  0
    2.7990   -0.7500    0.0000 C   0  0  0  0  0  0  0  0  0  0  0  0
    2.7990    0.7500    0.0000 C   0  0  0  0  0  0  0  0  0  0  0  0
    1.5001    1.5000    0.0000 N   0  0  0  0  0  0  0  0  0  0  0  0
    0.2010    0.7500    0.0000 C   0  0  0  0  0  0  0  0  0  0  0  0
    0.2010   -0.7500    0.0000 C   0  0  0  0  0  0  0  0  0  0  0  0
   -1.0981   -1.5000    0.0000 C   0  0  0  0  0  0  0  0  0  0  0  0
   -2.3971   -0.7500    0.0000 C   0  0  0  0  0  0  0  0  0  0  0  0
   -2.3971    0.7500    0.0000 C   0  0  0  0  0  0  0  0  0  0  0  0
   -1.0981    1.5000    0.0000 C   0  0  0  0  0  0  0  0  0  0  0  0
    4.0981    1.5000    0.0000 C   0  0  0  0  0  0  0  0  0  0  0  0
    5.3971    0.7500    0.0000 C   0  0  0  0  0  0  0  0  0  0  0  0
    5.3971   -0.7500    0.0000 C   0  0  0  0  0  0  0  0  0  0  0  0
    4.0981   -1.5000    0.0000 C   0  0  0  0  0  0  0  0  0  0  0  0
  2  1  1  0  0  0  0
  1  6  1  0  0  0  0
  2  3  2  0  0  0  0
 14  2  1  0  0  0  0
  4  3  1  0  0  0  0
  3 11  1  0  0  0  0
  5  4  1  0  0  0  0
  5  6  2  0  0  0  0
 10  5  1  0  0  0  0
  6  7  1  0  0  0  0
  7  8  2  0  0  0  0
  8  9  1  0  0  0  0
  9 10  2  0  0  0  0
 11 12  2  0  0  0  0
 12 13  1  0  0  0  0
 13 14  2  0  0  0  0
M  END
> <Inchi_key>
WJFKNYWRSNBZNX-UHFFFAOYSA-N

> <Source>
Kotsampasakou

> <ID>
EK0416

> <H_MFHB>


> <CAS>


> <Cholestasis>
1

> <Name>
phenothiazine

> <Class>
1


$$$$