
  -INDIGO-08031710012D

 23 25  0  0  0  0  0  0  0  0999 V2000
   13.9746   -7.9146    0.0000 O   0  0  0  0  0  0  0  0  0  0  0  0
   13.2032   -6.6282    0.0000 N   0  0  0  0  0  0  0  0  0  0  0  0
   13.9316   -5.3169    0.0000 O   0  0  0  0  0  0  0  0  0  0  0  0
   11.7033   -6.6530    0.0000 C   0  0  0  0  0  0  0  0  0  0  0  0
   10.9749   -7.9643    0.0000 C   0  0  0  0  0  0  0  0  0  0  0  0
    9.4753   -7.9892    0.0000 C   0  0  0  0  0  0  0  0  0  0  0  0
    8.7039   -6.7027    0.0000 C   0  0  0  0  0  0  0  0  0  0  0  0
    9.4321   -5.3915    0.0000 C   0  0  0  0  0  0  0  0  0  0  0  0
   10.9319   -5.3666    0.0000 C   0  0  0  0  0  0  0  0  0  0  0  0
    7.2040   -6.7276    0.0000 C   0  0  0  0  0  0  0  0  0  0  0  0
    6.3023   -5.5288    0.0000 O   0  0  0  0  0  0  0  0  0  0  0  0
    4.8835   -6.0159    0.0000 C   0  0  0  0  0  0  0  0  0  0  0  0
    3.6558   -5.1545    0.0000 C   0  0  0  0  0  0  0  0  0  0  0  0
    2.2956   -5.7872    0.0000 N   0  0  0  0  0  0  0  0  0  0  0  0
    1.0676   -4.9257    0.0000 N   0  0  0  0  0  0  0  0  0  0  0  0
    1.0427   -3.4259    0.0000 C   0  0  0  0  0  0  0  0  0  0  0  0
   -0.3911   -2.9861    0.0000 C   0  0  0  0  0  0  0  0  0  0  0  0
   -0.8784   -1.5674    0.0000 O   0  0  0  0  0  0  0  0  0  0  0  0
   -1.2527   -4.2141    0.0000 N   0  0  0  0  0  0  0  0  0  0  0  0
   -0.3509   -5.4128    0.0000 C   0  0  0  0  0  0  0  0  0  0  0  0
   -0.7910   -6.8469    0.0000 O   0  0  0  0  0  0  0  0  0  0  0  0
    4.9084   -7.5157    0.0000 C   0  0  0  0  0  0  0  0  0  0  0  0
    6.3427   -7.9556    0.0000 C   0  0  0  0  0  0  0  0  0  0  0  0
  1  2  1  0  0  0  0
  2  3  2  0  0  0  0
  2  4  1  0  0  0  0
  5  4  2  0  0  0  0
  4  9  1  0  0  0  0
  6  5  1  0  0  0  0
  7  6  2  0  0  0  0
  8  7  1  0  0  0  0
  7 10  1  0  0  0  0
  9  8  2  0  0  0  0
 11 10  1  0  0  0  0
 10 23  2  0  0  0  0
 12 11  1  0  0  0  0
 12 13  1  0  0  0  0
 22 12  2  0  0  0  0
 13 14  2  0  0  0  0
 14 15  1  0  0  0  0
 16 15  1  0  0  0  0
 15 20  1  0  0  0  0
 17 16  1  0  0  0  0
 17 18  2  0  0  0  0
 19 17  1  0  0  0  0
 20 19  1  0  0  0  0
 20 21  2  0  0  0  0
 23 22  1  0  0  0  0
M  CHG  2   1  -1   2   1
M  END
> <Inchi_key>
OZOMQRBLCMDCEG-VIZOYTHASA-N

> <Source>
Mulliner

> <ID>
HT0588

> <H_MFHB>
1

> <CAS>


> <Cholestasis>


> <Name>
dantrolene sodium;dantrolene

> <Class>
1

$$$$