

  -INDIGO-08031710012D

 20 20  0  0  0  0  0  0  0  0999 V2000
    7.7555   -7.7555    0.0000 C   0  0  0  0  0  0  0  0  0  0  0  0
    7.7555   -6.2555    0.0000 C   0  0  0  0  0  0  0  0  0  0  0  0
    6.4564   -5.5055    0.0000 N   0  0  0  0  0  0  0  0  0  0  0  0
    6.4564   -4.0055    0.0000 C   0  0  0  0  0  0  0  0  0  0  0  0
    7.7555   -3.2555    0.0000 C   0  0  0  0  0  0  0  0  0  0  0  0
    5.1575   -6.2555    0.0000 C   0  0  0  0  0  0  0  0  0  0  0  0
    3.8584   -5.5055    0.0000 C   0  0  0  0  0  0  0  0  0  0  0  0
    2.5593   -6.2555    0.0000 N   0  0  0  0  0  0  0  0  0  0  0  0
    1.2603   -5.5055    0.0000 C   0  0  0  0  0  0  0  0  0  0  0  0
    1.2603   -4.0055    0.0000 O   0  0  0  0  0  0  0  0  0  0  0  0
   -0.0388   -6.2555    0.0000 C   0  0  0  0  0  0  0  0  0  0  0  0
   -0.0388   -7.7555    0.0000 C   0  0  0  0  0  0  0  0  0  0  0  0
   -1.3379   -8.5055    0.0000 C   0  0  0  0  0  0  0  0  0  0  0  0
   -1.3379  -10.0055    0.0000 Cl  0  0  0  0  0  0  0  0  0  0  0  0
   -2.6368   -7.7555    0.0000 C   0  0  0  0  0  0  0  0  0  0  0  0
   -3.9359   -8.5055    0.0000 N   0  0  0  0  0  0  0  0  0  0  0  0
   -2.6368   -6.2555    0.0000 C   0  0  0  0  0  0  0  0  0  0  0  0
   -1.3379   -5.5055    0.0000 C   0  0  0  0  0  0  0  0  0  0  0  0
   -1.3379   -4.0055    0.0000 O   0  0  0  0  0  0  0  0  0  0  0  0
   -2.6368   -3.2555    0.0000 C   0  0  0  0  0  0  0  0  0  0  0  0
  1  2  1  0  0  0  0
  2  3  1  0  0  0  0
  3  4  1  0  0  0  0
  3  6  1  0  0  0  0
  4  5  1  0  0  0  0
  6  7  1  0  0  0  0
  7  8  1  0  0  0  0
  8  9  1  0  0  0  0
  9 10  2  0  0  0  0
  9 11  1  0  0  0  0
 12 11  2  0  0  0  0
 11 18  1  0  0  0  0
 13 12  1  0  0  0  0
 13 14  1  0  0  0  0
 15 13  2  0  0  0  0
 15 16  1  0  0  0  0
 17 15  1  0  0  0  0
 18 17  2  0  0  0  0
 18 19  1  0  0  0  0
 19 20  1  0  0  0  0
M  END
> <Inchi_key>
TTWJBBZEZQICBI-UHFFFAOYSA-N

> <Source>
Mulliner

> <ID>
HT1376

> <H_MFHB>
1

> <CAS>


> <Cholestasis>


> <Name>
metoclopramide hydrochloride;metoclopramide

> <Class>
1


$$$$