

  -INDIGO-08031710012D

 16 17  0  0  0  0  0  0  0  0999 V2000
    1.2990    4.8483    0.0000 C   0  0  0  0  0  0  0  0  0  0  0  0
    2.5981    4.0983    0.0000 O   0  0  0  0  0  0  0  0  0  0  0  0
    2.5981    2.5983    0.0000 C   0  0  0  0  0  0  0  0  0  0  0  0
    1.2990    1.8483    0.0000 N   0  0  0  0  0  0  0  0  0  0  0  0
    1.2990    0.3483    0.0000 C   0  0  0  0  0  0  0  0  0  0  0  0
    0.0001   -0.4017    0.0000 C   0  0  0  0  0  0  0  0  0  0  0  0
    2.5981   -0.4017    0.0000 N   0  0  0  0  0  0  0  0  0  0  0  0
    3.8972    0.3483    0.0000 C   0  0  0  0  0  0  0  0  0  0  0  0
    5.1962   -0.4017    0.0000 Cl  0  0  0  0  0  0  0  0  0  0  0  0
    3.8972    1.8483    0.0000 C   0  0  0  0  0  0  0  0  0  0  0  0
    5.1962    2.5983    0.0000 N   0  0  0  0  0  0  0  0  0  0  0  0
    6.4952    1.8483    0.0000 C   0  0  0  0  0  0  0  0  0  0  0  0
    6.6520    0.3565    0.0000 N   0  0  0  0  0  0  0  0  0  0  0  0
    8.1193    0.0446    0.0000 C   0  0  0  0  0  0  0  0  0  0  0  0
    8.8693    1.3437    0.0000 C   0  0  0  0  0  0  0  0  0  0  0  0
    7.8657    2.4584    0.0000 N   0  0  0  0  0  0  0  0  0  0  0  0
  1  2  1  0  0  0  0
  2  3  1  0  0  0  0
  4  3  2  0  0  0  0
  3 10  1  0  0  0  0
  5  4  1  0  0  0  0
  5  6  1  0  0  0  0
  7  5  2  0  0  0  0
  8  7  1  0  0  0  0
  8  9  1  0  0  0  0
 10  8  2  0  0  0  0
 10 11  1  0  0  0  0
 11 12  1  0  0  0  0
 13 12  2  0  0  0  0
 12 16  1  0  0  0  0
 14 13  1  0  0  0  0
 15 14  1  0  0  0  0
 16 15  1  0  0  0  0
M  END
> <Inchi_key>
WPNJAUFVNXKLIM-UHFFFAOYSA-N

> <Source>
Mulliner

> <ID>
HT1440

> <H_MFHB>
1

> <CAS>


> <Cholestasis>


> <Name>
moxonidine

> <Class>
1


$$$$