

  -INDIGO-08031710012D

  9  8  0  0  0  0  0  0  0  0999 V2000
    3.2767    0.3900    0.0000 N   0  0  0  0  0  0  0  0  0  0  0  0
    3.2767   -1.1100    0.0000 C   0  0  0  0  0  0  0  0  0  0  0  0
    1.9778   -1.8600    0.0000 C   0  0  0  0  0  0  0  0  0  0  0  0
    0.6785   -1.1100    0.0000 C   0  0  0  0  0  0  0  0  0  0  0  0
   -0.6204   -1.8600    0.0000 C   0  0  0  0  0  0  0  0  0  0  0  0
   -0.6204   -3.3600    0.0000 O   0  0  0  0  0  0  0  0  0  0  0  0
   -1.9194   -1.1100    0.0000 O   0  0  0  0  0  0  0  0  0  0  0  0
    4.5757   -1.8600    0.0000 C   0  0  0  0  0  0  0  0  0  0  0  0
    5.8748   -1.1100    0.0000 C   0  0  0  0  0  0  0  0  0  0  0  0
  1  2  1  0  0  0  0
  2  3  1  0  0  0  0
  2  8  1  0  0  0  0
  3  4  1  0  0  0  0
  4  5  1  0  0  0  0
  5  6  2  0  0  0  0
  5  7  1  0  0  0  0
  8  9  2  0  0  0  0
M  END
> <Inchi_key>
PJDFLNIOAUIZSL-UHFFFAOYSA-N

> <Source>
Mulliner

> <ID>
HT2177

> <H_MFHB>
1

> <CAS>


> <Cholestasis>


> <Name>
vigabatrin

> <Class>
1


$$$$