

  -INDIGO-08031710012D

 22 25  0  0  0  0  0  0  0  0999 V2000
   11.7002    0.4079    0.0000 C   0  0  0  0  0  0  0  0  0  0  0  0
   10.4011    1.1578    0.0000 N   0  0  0  0  0  0  0  0  0  0  0  0
   10.4011    2.6578    0.0000 C   0  0  0  0  0  0  0  0  0  0  0  0
    9.1021    3.4079    0.0000 C   0  0  0  0  0  0  0  0  0  0  0  0
    7.8030    2.6578    0.0000 C   0  0  0  0  0  0  0  0  0  0  0  0
    7.8030    1.1578    0.0000 C   0  0  0  0  0  0  0  0  0  0  0  0
    6.5040    0.4079    0.0000 C   0  0  0  0  0  0  0  0  0  0  0  0
    5.2051    1.1578    0.0000 N   0  0  0  0  0  0  0  0  0  0  0  0
    5.2051    2.6578    0.0000 C   0  0  0  0  0  0  0  0  0  0  0  0
    6.5040    3.4079    0.0000 C   0  0  0  0  0  0  0  0  0  0  0  0
    6.5040    4.9079    0.0000 C   0  0  0  0  0  0  0  0  0  0  0  0
    5.2051    5.6578    0.0000 C   0  0  0  0  0  0  0  0  0  0  0  0
    3.9059    4.9079    0.0000 C   0  0  0  0  0  0  0  0  0  0  0  0
    3.9059    3.4079    0.0000 C   0  0  0  0  0  0  0  0  0  0  0  0
    2.6070    2.6578    0.0000 S   0  0  0  0  0  0  0  0  0  0  0  0
    2.6070    1.1578    0.0000 C   0  0  0  0  0  0  0  0  0  0  0  0
    1.3079    0.4079    0.0000 C   0  0  0  0  0  0  0  0  0  0  0  0
    1.3079   -1.0921    0.0000 C   0  0  0  0  0  0  0  0  0  0  0  0
    2.6070   -1.8422    0.0000 C   0  0  0  0  0  0  0  0  0  0  0  0
    3.9059   -1.0921    0.0000 C   0  0  0  0  0  0  0  0  0  0  0  0
    3.9059    0.4079    0.0000 C   0  0  0  0  0  0  0  0  0  0  0  0
    9.1021    0.4079    0.0000 C   0  0  0  0  0  0  0  0  0  0  0  0
  1  2  1  0  0  0  0
  3  2  1  0  0  0  0
  2 22  1  0  0  0  0
  4  3  1  0  0  0  0
  5  4  1  0  0  0  0
  6  5  1  0  0  0  0
  6  7  1  0  0  0  0
 22  6  1  0  0  0  0
  7  8  1  0  0  0  0
  9  8  1  0  0  0  0
  8 21  1  0  0  0  0
 10  9  2  0  0  0  0
  9 14  1  0  0  0  0
 11 10  1  0  0  0  0
 12 11  2  0  0  0  0
 13 12  1  0  0  0  0
 14 13  2  0  0  0  0
 15 14  1  0  0  0  0
 16 15  1  0  0  0  0
 17 16  2  0  0  0  0
 16 21  1  0  0  0  0
 18 17  1  0  0  0  0
 19 18  2  0  0  0  0
 20 19  1  0  0  0  0
 21 20  2  0  0  0  0
M  END
> <Inchi_key>
CBHCDHNUZWWAPP-UHFFFAOYSA-N

> <Source>
Mulliner

> <ID>
HT1303

> <H_MFHB>
1

> <CAS>


> <Cholestasis>


> <Name>
mepazine

> <Class>
1


$$$$