
  -INDIGO-08031710012D

 18 19  0  0  0  0  0  0  0  0999 V2000
   -0.8808   -6.0474    0.0000 C   0  0  0  0  0  0  0  0  0  0  0  0
   -0.8808   -4.5474    0.0000 C   0  0  0  0  0  0  0  0  0  0  0  0
   -2.1799   -3.7974    0.0000 C   0  0  0  0  0  0  0  0  0  0  0  0
   -2.1799   -2.2974    0.0000 O   0  0  0  0  0  0  0  0  0  0  0  0
   -3.4788   -4.5474    0.0000 O   0  0  0  0  0  0  0  0  0  0  0  0
    0.4183   -3.7974    0.0000 C   0  0  0  0  0  0  0  0  0  0  0  0
    0.4183   -2.2974    0.0000 C   0  0  0  0  0  0  0  0  0  0  0  0
    1.7172   -1.5474    0.0000 C   0  0  0  0  0  0  0  0  0  0  0  0
    3.0163   -2.2974    0.0000 C   0  0  0  0  0  0  0  0  0  0  0  0
    3.0163   -3.7974    0.0000 C   0  0  0  0  0  0  0  0  0  0  0  0
    4.3154   -4.5474    0.0000 O   0  0  0  0  0  0  0  0  0  0  0  0
    5.6143   -3.7974    0.0000 C   0  0  0  0  0  0  0  0  0  0  0  0
    5.6143   -2.2974    0.0000 C   0  0  0  0  0  0  0  0  0  0  0  0
    6.9136   -1.5474    0.0000 C   0  0  0  0  0  0  0  0  0  0  0  0
    8.2125   -2.2974    0.0000 C   0  0  0  0  0  0  0  0  0  0  0  0
    8.2125   -3.7974    0.0000 C   0  0  0  0  0  0  0  0  0  0  0  0
    6.9136   -4.5474    0.0000 C   0  0  0  0  0  0  0  0  0  0  0  0
    1.7172   -4.5474    0.0000 C   0  0  0  0  0  0  0  0  0  0  0  0
  1  2  1  0  0  0  0
  2  3  1  0  0  0  0
  2  6  1  0  0  0  0
  3  4  2  0  0  0  0
  3  5  1  0  0  0  0
  7  6  2  0  0  0  0
  6 18  1  0  0  0  0
  8  7  1  0  0  0  0
  9  8  2  0  0  0  0
 10  9  1  0  0  0  0
 10 11  1  0  0  0  0
 18 10  2  0  0  0  0
 11 12  1  0  0  0  0
 13 12  2  0  0  0  0
 12 17  1  0  0  0  0
 14 13  1  0  0  0  0
 15 14  2  0  0  0  0
 16 15  1  0  0  0  0
 17 16  2  0  0  0  0
M  END
> <Inchi_key>
RDJGLLICXDHJDY-UHFFFAOYSA-N

> <Source>
Mulliner

> <ID>
HT0862

> <H_MFHB>
1

> <CAS>


> <Cholestasis>


> <Name>
fenoprofen calcium;fenoprofen

> <Class>
1

$$$$