

  -INDIGO-08031710012D

 24 26  0  0  0  0  0  0  0  0999 V2000
    0.0963    3.3615    0.0000 N   0  0  0  0  0  0  0  0  0  0  0  0
    1.3954    2.6115    0.0000 S   0  0  0  0  0  0  0  0  0  0  0  0
    0.6454    1.3125    0.0000 O   0  0  0  0  0  0  0  0  0  0  0  0
    2.1453    3.9106    0.0000 O   0  0  0  0  0  0  0  0  0  0  0  0
    2.6944    1.8615    0.0000 C   0  0  0  0  0  0  0  0  0  0  0  0
    3.9933    2.6115    0.0000 C   0  0  0  0  0  0  0  0  0  0  0  0
    5.2925    1.8615    0.0000 C   0  0  0  0  0  0  0  0  0  0  0  0
    5.2925    0.3615    0.0000 C   0  0  0  0  0  0  0  0  0  0  0  0
    6.5914   -0.3885    0.0000 N   0  0  0  0  0  0  0  0  0  0  0  0
    7.8905    0.3615    0.0000 C   0  0  0  0  0  0  0  0  0  0  0  0
    9.1897   -0.3885    0.0000 C   0  0  0  0  0  0  0  0  0  0  0  0
   10.4886    0.3615    0.0000 C   0  0  0  0  0  0  0  0  0  0  0  0
   10.4886    1.8615    0.0000 C   0  0  0  0  0  0  0  0  0  0  0  0
   11.7878    2.6115    0.0000 C   0  0  0  0  0  0  0  0  0  0  0  0
   13.0867    1.8615    0.0000 C   0  0  0  0  0  0  0  0  0  0  0  0
   13.0867    0.3615    0.0000 C   0  0  0  0  0  0  0  0  0  0  0  0
   11.7878   -0.3885    0.0000 C   0  0  0  0  0  0  0  0  0  0  0  0
    7.8905    1.8615    0.0000 N   0  0  0  0  0  0  0  0  0  0  0  0
    6.5914    2.6115    0.0000 S   0  0  0  0  0  0  0  0  0  0  0  0
    7.3415    3.9106    0.0000 O   0  0  0  0  0  0  0  0  0  0  0  0
    5.8415    3.9106    0.0000 O   0  0  0  0  0  0  0  0  0  0  0  0
    3.9933   -0.3885    0.0000 C   0  0  0  0  0  0  0  0  0  0  0  0
    2.6944    0.3615    0.0000 C   0  0  0  0  0  0  0  0  0  0  0  0
    1.3954   -0.3885    0.0000 Cl  0  0  0  0  0  0  0  0  0  0  0  0
  1  2  1  0  0  0  0
  2  3  2  0  0  0  0
  2  4  2  0  0  0  0
  2  5  1  0  0  0  0
  6  5  2  0  0  0  0
  5 23  1  0  0  0  0
  7  6  1  0  0  0  0
  7  8  2  0  0  0  0
 19  7  1  0  0  0  0
  8  9  1  0  0  0  0
 22  8  1  0  0  0  0
  9 10  1  0  0  0  0
 10 11  1  0  0  0  0
 10 18  1  0  0  0  0
 11 12  1  0  0  0  0
 13 12  2  0  0  0  0
 12 17  1  0  0  0  0
 14 13  1  0  0  0  0
 15 14  2  0  0  0  0
 16 15  1  0  0  0  0
 17 16  2  0  0  0  0
 18 19  1  0  0  0  0
 19 20  2  0  0  0  0
 19 21  2  0  0  0  0
 23 22  2  0  0  0  0
 23 24  1  0  0  0  0
M  END
> <Inchi_key>
BWSSMIJUDVUASQ-UHFFFAOYSA-N

> <Source>
Mulliner

> <ID>
HT0259

> <H_MFHB>
1

> <CAS>


> <Cholestasis>


> <Name>
benzylhydrochlorothiazide

> <Class>
1


$$$$