
  -INDIGO-08031710012D

 53 58  0  0  0  0  0  0  0  0999 V2000
    5.4445    8.7711    0.0000 C   0  0  0  0  0  0  0  0  0  0  0  0
    6.1102    7.4268    0.0000 O   0  0  0  0  0  0  0  0  0  0  0  0
    7.6071    7.3313    0.0000 C   0  0  0  0  0  0  0  0  0  0  0  0
    8.4384    8.5796    0.0000 O   0  0  0  0  0  0  0  0  0  0  0  0
    8.2726    5.9870    0.0000 C   0  0  0  0  0  0  0  0  0  0  0  0
    7.4413    4.7384    0.0000 C   0  0  0  0  0  0  0  0  0  0  0  0
    8.1070    3.3941    0.0000 C   0  0  0  0  0  0  0  0  0  0  0  0
   10.2802    3.0999    0.0000 C   0  0  0  0  0  0  0  0  0  0  0  0
   11.4492    4.0396    0.0000 C   0  0  0  0  0  0  0  0  0  0  0  0
   10.1569    1.6024    0.0000 C   0  0  0  0  0  0  0  0  0  0  0  0
   10.4401    0.1291    0.0000 C   0  0  0  0  0  0  0  0  0  0  0  0
   11.8762    0.5598    0.0000 C   0  0  0  0  0  0  0  0  0  0  0  0
   11.3884   -0.3022    0.0000 N   0  0  0  0  0  0  0  0  0  0  0  0
   10.7663   -1.9138    0.0000 C   0  0  0  0  0  0  0  0  0  0  0  0
   11.5855   -3.1953    0.0000 C   0  0  0  0  0  0  0  0  0  0  0  0
    9.7804   -3.4039    0.0000 C   0  0  0  0  0  0  0  0  0  0  0  0
    8.6069   -2.3319    0.0000 N   0  0  0  0  0  0  0  0  0  0  0  0
    7.1635   -2.9920    0.0000 C   0  0  0  0  0  0  0  0  0  0  0  0
    8.0529   -1.7819    0.0000 C   0  0  0  0  0  0  0  0  0  0  0  0
    6.7717   -0.9967    0.0000 C   0  0  0  0  0  0  0  0  0  0  0  0
    6.9333    0.4941    0.0000 N   0  0  0  0  0  0  0  0  0  0  0  0
    5.7120    1.5901    0.0000 C   0  0  0  0  0  0  0  0  0  0  0  0
    6.3440    3.2022    0.0000 C   0  0  0  0  0  0  0  0  0  0  0  0
    7.3242    2.0169    0.0000 C   0  0  0  0  0  0  0  0  0  0  0  0
    9.0502    2.6166    0.0000 N   0  0  0  0  0  0  0  0  0  0  0  0
    4.5205    0.6562    0.0000 C   0  0  0  0  0  0  0  0  0  0  0  0
    3.0440    0.9194    0.0000 C   0  0  0  0  0  0  0  0  0  0  0  0
    2.0774   -0.2276    0.0000 C   0  0  0  0  0  0  0  0  0  0  0  0
    0.6009    0.0356    0.0000 C   0  0  0  0  0  0  0  0  0  0  0  0
    0.0904    1.4460    0.0000 O   0  0  0  0  0  0  0  0  0  0  0  0
   -0.3655   -1.1117    0.0000 O   0  0  0  0  0  0  0  0  0  0  0  0
    5.3151   -0.6306    0.0000 C   0  0  0  0  0  0  0  0  0  0  0  0
    4.4290   -1.8409    0.0000 C   0  0  0  0  0  0  0  0  0  0  0  0
    7.5367   -4.4566    0.0000 C   0  0  0  0  0  0  0  0  0  0  0  0
    6.5261   -5.5651    0.0000 C   0  0  0  0  0  0  0  0  0  0  0  0
    6.9806   -6.9946    0.0000 C   0  0  0  0  0  0  0  0  0  0  0  0
    8.9756   -4.6849    0.0000 C   0  0  0  0  0  0  0  0  0  0  0  0
    9.5962   -6.0504    0.0000 C   0  0  0  0  0  0  0  0  0  0  0  0
   12.5179   -2.1789    0.0000 C   0  0  0  0  0  0  0  0  0  0  0  0
   13.3566   -3.3336    0.0000 C   0  0  0  0  0  0  0  0  0  0  0  0
   14.8752   -3.2189    0.0000 C   0  0  0  0  0  0  0  0  0  0  0  0
   15.5115   -1.8736    0.0000 C   0  0  0  0  0  0  0  0  0  0  0  0
   14.6444   -0.6349    0.0000 C   0  0  0  0  0  0  0  0  0  0  0  0
   15.2987    0.7149    0.0000 C   0  0  0  0  0  0  0  0  0  0  0  0
   14.4569    1.9563    0.0000 O   0  0  0  0  0  0  0  0  0  0  0  0
   16.7948    0.8232    0.0000 O   0  0  0  0  0  0  0  0  0  0  0  0
   17.4490    2.1730    0.0000 C   0  0  0  0  0  0  0  0  0  0  0  0
   13.1989   -0.7182    0.0000 C   0  0  0  0  0  0  0  0  0  0  0  0
   13.7072    0.6933    0.0000 C   0  0  0  0  0  0  0  0  0  0  0  0
   17.0060   -1.7471    0.0000 C   0  0  0  0  0  0  0  0  0  0  0  0
   17.6438   -0.3893    0.0000 O   0  0  0  0  0  0  0  0  0  0  0  0
   17.8631   -2.9783    0.0000 O   0  0  0  0  0  0  0  0  0  0  0  0
   19.3577   -2.8515    0.0000 C   0  0  0  0  0  0  0  0  0  0  0  0
  1  2  1  0  0  0  0
  2  3  1  0  0  0  0
  3  4  2  0  0  0  0
  3  5  1  0  0  0  0
  5  6  1  0  0  0  0
  6  7  1  0  0  0  0
  8  7  2  0  0  0  0
  7 24  1  0  0  0  0
  8  9  1  0  0  0  0
 10  8  1  0  0  0  0
 10 11  2  0  0  0  0
 25 10  1  0  0  0  0
 11 12  1  0  0  0  0
 13 12  2  0  0  0  0
 12 48  1  0  0  0  0
 14 13  1  0  0  0  0
 14 15  2  0  0  0  0
 39 14  1  0  0  0  0
 15 16  1  0  0  0  0
 17 16  1  0  0  0  0
 16 37  2  0  0  0  0
 18 17  1  0  0  0  0
 18 19  1  0  0  0  0
 34 18  2  0  0  0  0
 19 20  2  0  0  0  0
 21 20  1  0  0  0  0
 20 32  1  0  0  0  0
 22 21  2  0  0  0  0
 22 23  1  0  0  0  0
 26 22  1  0  0  0  0
 23 24  2  0  0  0  0
 24 25  1  0  0  0  0
 26 27  1  0  0  0  0
 32 26  2  0  0  0  0
 27 28  1  0  0  0  0
 28 29  1  0  0  0  0
 29 30  2  0  0  0  0
 29 31  1  0  0  0  0
 32 33  1  0  0  0  0
 34 35  1  0  0  0  0
 37 34  1  0  0  0  0
 35 36  2  0  0  0  0
 37 38  1  0  0  0  0
 40 39  2  0  0  0  0
 39 48  1  0  0  0  0
 41 40  1  0  0  0  0
 42 41  2  0  0  0  0
 43 42  1  0  0  0  0
 42 50  1  0  0  0  0
 43 44  1  0  0  0  0
 48 43  1  0  0  0  0
 44 45  2  0  0  0  0
 44 46  1  0  0  0  0
 46 47  1  0  0  0  0
 48 49  1  0  0  0  0
 50 51  2  0  0  0  0
 50 52  1  0  0  0  0
 52 53  1  0  0  0  0
M  END
> <Inchi_key>
YTZALCGQUPRCGW-DJRDHVLWSA-N

> <Source>
Mulliner

> <ID>
HT2175

> <H_MFHB>
1

> <CAS>


> <Cholestasis>


> <Name>
verteporfin

> <Class>
1

$$$$