
  -INDIGO-08031710012D

 30 34  0  0  0  0  0  0  0  0999 V2000
   -2.9189    0.7821    0.0000 C   0  0  0  0  0  0  0  0  0  0  0  0
   -4.2179    1.5321    0.0000 C   0  0  0  0  0  0  0  0  0  0  0  0
   -4.2179    3.0321    0.0000 C   0  0  0  0  0  0  0  0  0  0  0  0
   -2.9189    3.7821    0.0000 C   0  0  0  0  0  0  0  0  0  0  0  0
   -1.6200    3.0321    0.0000 C   0  0  0  0  0  0  0  0  0  0  0  0
   -0.3208    3.7821    0.0000 N   0  0  0  0  0  0  0  0  0  0  0  0
    0.9781    3.0321    0.0000 C   0  0  0  0  0  0  0  0  0  0  0  0
    2.2773    3.7821    0.0000 C   0  0  0  0  0  0  0  0  0  0  0  0
    2.2773    5.2821    0.0000 C   0  0  0  0  0  0  0  0  0  0  0  0
    0.9781    6.0321    0.0000 C   0  0  0  0  0  0  0  0  0  0  0  0
   -0.3208    5.2821    0.0000 C   0  0  0  0  0  0  0  0  0  0  0  0
    3.5762    6.0321    0.0000 C   0  0  0  0  0  0  0  0  0  0  0  0
    3.7331    7.5239    0.0000 N   0  0  0  0  0  0  0  0  0  0  0  0
    5.2001    7.8358    0.0000 O   0  0  0  0  0  0  0  0  0  0  0  0
    5.9502    6.5367    0.0000 C   0  0  0  0  0  0  0  0  0  0  0  0
    7.4174    6.2249    0.0000 C   0  0  0  0  0  0  0  0  0  0  0  0
    7.8809    4.7983    0.0000 C   0  0  0  0  0  0  0  0  0  0  0  0
    9.3482    4.4864    0.0000 F   0  0  0  0  0  0  0  0  0  0  0  0
    6.8772    3.6836    0.0000 C   0  0  0  0  0  0  0  0  0  0  0  0
    5.4102    3.9954    0.0000 C   0  0  0  0  0  0  0  0  0  0  0  0
    4.9467    5.4220    0.0000 C   0  0  0  0  0  0  0  0  0  0  0  0
   -5.5171    3.7821    0.0000 C   0  0  0  0  0  0  0  0  0  0  0  0
   -5.5171    5.2821    0.0000 O   0  0  0  0  0  0  0  0  0  0  0  0
   -6.8160    3.0321    0.0000 N   0  0  0  0  0  0  0  0  0  0  0  0
   -8.1152    3.7821    0.0000 C   0  0  0  0  0  0  0  0  0  0  0  0
   -9.4141    3.0321    0.0000 C   0  0  0  0  0  0  0  0  0  0  0  0
   -9.4141    1.5321    0.0000 C   0  0  0  0  0  0  0  0  0  0  0  0
   -8.1152    0.7821    0.0000 C   0  0  0  0  0  0  0  0  0  0  0  0
   -6.8160    1.5321    0.0000 C   0  0  0  0  0  0  0  0  0  0  0  0
   -5.5171    0.7821    0.0000 N   0  0  0  0  0  0  0  0  0  0  0  0
  1  2  1  0  0  0  0
  3  2  2  0  0  0  0
  2 30  1  0  0  0  0
  3  4  1  0  0  0  0
 22  3  1  0  0  0  0
  4  5  1  0  0  0  0
  5  6  1  0  0  0  0
  7  6  1  0  0  0  0
  6 11  1  0  0  0  0
  8  7  1  0  0  0  0
  9  8  1  0  0  0  0
 10  9  1  0  0  0  0
  9 12  1  0  0  0  0
 11 10  1  0  0  0  0
 13 12  2  0  0  0  0
 12 21  1  0  0  0  0
 14 13  1  0  0  0  0
 15 14  1  0  0  0  0
 16 15  1  0  0  0  0
 15 21  2  0  0  0  0
 17 16  2  0  0  0  0
 17 18  1  0  0  0  0
 19 17  1  0  0  0  0
 20 19  2  0  0  0  0
 21 20  1  0  0  0  0
 22 23  2  0  0  0  0
 24 22  1  0  0  0  0
 25 24  1  0  0  0  0
 24 29  1  0  0  0  0
 26 25  1  0  0  0  0
 27 26  1  0  0  0  0
 28 27  1  0  0  0  0
 29 28  1  0  0  0  0
 30 29  2  0  0  0  0
M  END
> <Inchi_key>
RAPZEAPATHNIPO-UHFFFAOYSA-N

> <Source>
Mulliner , Kotsampasakou

> <ID>
EK0472;HT1831

> <H_MFHB>
1

> <CAS>


> <Cholestasis>
1

> <Name>
risperidone

> <Class>
1

$$$$