
  -INDIGO-08031710012D

 52 60  0  0  0  0  0  0  0  0999 V2000
   11.6224   -4.8183    0.0000 C   0  0  0  0  0  0  0  0  0  0  0  0
   10.5624   -3.7569    0.0000 O   0  0  0  0  0  0  0  0  0  0  0  0
   10.9516   -2.3083    0.0000 C   0  0  0  0  0  0  0  0  0  0  0  0
   12.3530   -1.7741    0.0000 C   0  0  0  0  0  0  0  0  0  0  0  0
   13.6091   -2.5940    0.0000 C   0  0  0  0  0  0  0  0  0  0  0  0
   14.9472   -1.9162    0.0000 C   0  0  0  0  0  0  0  0  0  0  0  0
   15.0293   -0.4183    0.0000 O   0  0  0  0  0  0  0  0  0  0  0  0
   16.2033   -2.7360    0.0000 C   0  0  0  0  0  0  0  0  0  0  0  0
   17.5415   -2.0582    0.0000 N   0  0  0  0  0  0  0  0  0  0  0  0
   12.2782   -0.2759    0.0000 O   0  0  0  0  0  0  0  0  0  0  0  0
   10.8470    0.1300    0.0000 C   0  0  0  0  0  0  0  0  0  0  0  0
   10.9815    1.6574    0.0000 C   0  0  0  0  0  0  0  0  0  0  0  0
   10.1457    2.9966    0.0000 C   0  0  0  0  0  0  0  0  0  0  0  0
    8.6874    3.4433    0.0000 O   0  0  0  0  0  0  0  0  0  0  0  0
    8.3162    4.9248    0.0000 C   0  0  0  0  0  0  0  0  0  0  0  0
    7.0017    5.8027    0.0000 C   0  0  0  0  0  0  0  0  0  0  0  0
    5.4678    5.6505    0.0000 C   0  0  0  0  0  0  0  0  0  0  0  0
    4.1888    4.8430    0.0000 C   0  0  0  0  0  0  0  0  0  0  0  0
    3.4100    3.5123    0.0000 O   0  0  0  0  0  0  0  0  0  0  0  0
    1.8733    3.7238    0.0000 C   0  0  0  0  0  0  0  0  0  0  0  0
    0.5238    2.9354    0.0000 C   0  0  0  0  0  0  0  0  0  0  0  0
    0.1317    1.3893    0.0000 C   0  0  0  0  0  0  0  0  0  0  0  0
    1.0696    0.0966    0.0000 C   0  0  0  0  0  0  0  0  0  0  0  0
   -0.3574    0.4666    0.0000 C   0  0  0  0  0  0  0  0  0  0  0  0
   -0.9444   -0.9437    0.0000 C   0  0  0  0  0  0  0  0  0  0  0  0
    0.6877   -0.5384    0.0000 O   0  0  0  0  0  0  0  0  0  0  0  0
    1.5630   -1.7018    0.0000 C   0  0  0  0  0  0  0  0  0  0  0  0
    0.8073   -2.9930    0.0000 C   0  0  0  0  0  0  0  0  0  0  0  0
    1.6544   -4.2550    0.0000 O   0  0  0  0  0  0  0  0  0  0  0  0
    3.1449   -4.1882    0.0000 C   0  0  0  0  0  0  0  0  0  0  0  0
    3.8667   -5.4816    0.0000 C   0  0  0  0  0  0  0  0  0  0  0  0
    5.3595   -5.4955    0.0000 C   0  0  0  0  0  0  0  0  0  0  0  0
    6.1524   -4.2333    0.0000 C   0  0  0  0  0  0  0  0  0  0  0  0
    7.6694   -4.7300    0.0000 C   0  0  0  0  0  0  0  0  0  0  0  0
    9.0516   -3.9839    0.0000 C   0  0  0  0  0  0  0  0  0  0  0  0
   10.1043   -5.0525    0.0000 O   0  0  0  0  0  0  0  0  0  0  0  0
    9.7912   -2.6625    0.0000 C   0  0  0  0  0  0  0  0  0  0  0  0
   10.0033   -1.1403    0.0000 C   0  0  0  0  0  0  0  0  0  0  0  0
    5.4122   -2.9179    0.0000 O   0  0  0  0  0  0  0  0  0  0  0  0
    3.8557   -2.8598    0.0000 C   0  0  0  0  0  0  0  0  0  0  0  0
    3.0602   -1.5848    0.0000 C   0  0  0  0  0  0  0  0  0  0  0  0
    2.7666    0.1757    0.0000 O   0  0  0  0  0  0  0  0  0  0  0  0
   -0.5029   -2.1457    0.0000 C   0  0  0  0  0  0  0  0  0  0  0  0
    1.0121   -1.4436    0.0000 O   0  0  0  0  0  0  0  0  0  0  0  0
    1.7480    5.2264    0.0000 C   0  0  0  0  0  0  0  0  0  0  0  0
    3.0879    5.8783    0.0000 C   0  0  0  0  0  0  0  0  0  0  0  0
    3.3133    7.3612    0.0000 C   0  0  0  0  0  0  0  0  0  0  0  0
    9.4253    5.9275    0.0000 C   0  0  0  0  0  0  0  0  0  0  0  0
   10.8599    5.5073    0.0000 C   0  0  0  0  0  0  0  0  0  0  0  0
   11.9479    6.5400    0.0000 C   0  0  0  0  0  0  0  0  0  0  0  0
   11.2058    4.0514    0.0000 C   0  0  0  0  0  0  0  0  0  0  0  0
   12.6486    3.6410    0.0000 C   0  0  0  0  0  0  0  0  0  0  0  0
  1  2  1  0  0  0  0
  2  3  1  0  0  0  0
  4  3  1  0  0  0  0
  3 38  1  0  0  0  0
  4  5  1  0  0  0  0
 10  4  1  0  0  0  0
  5  6  1  0  0  0  0
  6  7  1  0  0  0  0
  6  8  1  0  0  0  0
  8  9  1  0  0  0  0
 11 10  1  0  0  0  0
 12 11  1  0  0  0  0
 11 38  1  0  0  0  0
 13 12  1  0  0  0  0
 13 14  1  0  0  0  0
 51 13  1  0  0  0  0
 14 15  1  0  0  0  0
 16 15  1  0  0  0  0
 15 48  1  0  0  0  0
 17 16  1  0  0  0  0
 18 17  1  0  0  0  0
 18 19  1  0  0  0  0
 46 18  1  0  0  0  0
 19 20  1  0  0  0  0
 21 20  1  0  0  0  0
 20 45  1  0  0  0  0
 22 21  1  0  0  0  0
 23 22  1  0  0  0  0
 24 23  1  0  0  0  0
 42 23  1  0  0  0  0
 23 44  1  0  0  0  0
 25 24  1  0  0  0  0
 26 25  1  0  0  0  0
 25 43  1  0  0  0  0
 27 26  1  0  0  0  0
 28 27  1  0  0  0  0
 27 41  1  0  0  0  0
 28 29  1  0  0  0  0
 43 28  1  0  0  0  0
 29 30  1  0  0  0  0
 30 31  1  0  0  0  0
 30 40  1  0  0  0  0
 31 32  1  0  0  0  0
 32 33  1  0  0  0  0
 34 33  1  0  0  0  0
 33 39  1  0  0  0  0
 35 34  1  0  0  0  0
 35 36  2  0  0  0  0
 37 35  1  0  0  0  0
 38 37  1  0  0  0  0
 39 40  1  0  0  0  0
 40 41  1  0  0  0  0
 41 42  1  0  0  0  0
 44 43  1  0  0  0  0
 45 46  1  0  0  0  0
 46 47  2  0  0  0  0
 48 49  1  0  0  0  0
 49 50  1  0  0  0  0
 49 51  1  0  0  0  0
 51 52  2  0  0  0  0
M  END
> <Inchi_key>
UFNVPOGXISZXJD-UHFFFAOYSA-N

> <Source>
Mulliner

> <ID>
HT0780

> <H_MFHB>
1

> <CAS>


> <Cholestasis>


> <Name>
eribulin mesylate

> <Class>
1

$$$$