

  -INDIGO-08031710012D

 36 39  0  0  0  0  0  0  0  0999 V2000
   -3.1944   -4.1630    0.0000 C   0  0  0  0  0  0  0  0  0  0  0  0
   -2.8063   -5.6119    0.0000 O   0  0  0  0  0  0  0  0  0  0  0  0
   -1.3572   -6.0002    0.0000 N   0  0  0  0  0  0  0  0  0  0  0  0
   -0.9691   -7.4490    0.0000 C   0  0  0  0  0  0  0  0  0  0  0  0
    0.4800   -7.8373    0.0000 C   0  0  0  0  0  0  0  0  0  0  0  0
    0.8680   -9.2862    0.0000 O   0  0  0  0  0  0  0  0  0  0  0  0
    1.5406   -6.7766    0.0000 N   0  0  0  0  0  0  0  0  0  0  0  0
    2.9894   -7.1648    0.0000 C   0  0  0  0  0  0  0  0  0  0  0  0
    4.2883   -6.4148    0.0000 C   0  0  0  0  0  0  0  0  0  0  0  0
    5.0383   -5.1158    0.0000 S   0  0  0  0  0  0  0  0  0  0  0  0
    6.5385   -5.1158    0.0000 C   0  0  0  0  0  0  0  0  0  0  0  0
    7.2885   -6.4148    0.0000 C   0  0  0  0  0  0  0  0  0  0  0  0
    6.5385   -7.7139    0.0000 C   0  0  0  0  0  0  0  0  0  0  0  0
    5.0383   -7.7139    0.0000 N   0  0  0  0  0  0  0  0  0  0  0  0
    3.7394   -8.4639    0.0000 C   0  0  0  0  0  0  0  0  0  0  0  0
    3.3510   -9.9128    0.0000 O   0  0  0  0  0  0  0  0  0  0  0  0
    7.2885   -9.0129    0.0000 C   0  0  0  0  0  0  0  0  0  0  0  0
    8.7884   -9.0129    0.0000 O   0  0  0  0  0  0  0  0  0  0  0  0
    6.5385  -10.3120    0.0000 O   0  0  0  0  0  0  0  0  0  0  0  0
    8.7884   -6.4148    0.0000 C   0  0  0  0  0  0  0  0  0  0  0  0
    9.5384   -5.1158    0.0000 S   0  0  0  0  0  0  0  0  0  0  0  0
   11.0383   -5.1158    0.0000 C   0  0  0  0  0  0  0  0  0  0  0  0
   11.7883   -6.4148    0.0000 N   0  0  0  0  0  0  0  0  0  0  0  0
   13.2885   -6.4148    0.0000 C   0  0  0  0  0  0  0  0  0  0  0  0
   14.0385   -7.7139    0.0000 O   0  0  0  0  0  0  0  0  0  0  0  0
   14.0385   -5.1158    0.0000 C   0  0  0  0  0  0  0  0  0  0  0  0
   15.5384   -5.1158    0.0000 O   0  0  0  0  0  0  0  0  0  0  0  0
   13.2885   -3.8167    0.0000 N   0  0  0  0  0  0  0  0  0  0  0  0
   11.7883   -3.8167    0.0000 N   0  0  0  0  0  0  0  0  0  0  0  0
   11.0383   -2.5177    0.0000 C   0  0  0  0  0  0  0  0  0  0  0  0
   -2.0298   -8.5097    0.0000 C   0  0  0  0  0  0  0  0  0  0  0  0
   -1.7952   -9.9912    0.0000 C   0  0  0  0  0  0  0  0  0  0  0  0
   -3.1316  -10.6722    0.0000 S   0  0  0  0  0  0  0  0  0  0  0  0
   -4.1923   -9.6116    0.0000 C   0  0  0  0  0  0  0  0  0  0  0  0
   -5.6738   -9.8462    0.0000 N   0  0  0  0  0  0  0  0  0  0  0  0
   -3.5113   -8.2751    0.0000 N   0  0  0  0  0  0  0  0  0  0  0  0
  1  2  1  0  0  0  0
  2  3  1  0  0  0  0
  3  4  2  0  0  0  0
  4  5  1  0  0  0  0
  4 31  1  0  0  0  0
  5  6  2  0  0  0  0
  5  7  1  0  0  0  0
  7  8  1  0  0  0  0
  9  8  1  0  0  0  0
  8 15  1  0  0  0  0
 10  9  1  0  0  0  0
  9 14  1  0  0  0  0
 11 10  1  0  0  0  0
 12 11  1  0  0  0  0
 13 12  2  0  0  0  0
 12 20  1  0  0  0  0
 14 13  1  0  0  0  0
 13 17  1  0  0  0  0
 15 14  1  0  0  0  0
 15 16  2  0  0  0  0
 17 18  2  0  0  0  0
 17 19  1  0  0  0  0
 20 21  1  0  0  0  0
 21 22  1  0  0  0  0
 23 22  2  0  0  0  0
 22 29  1  0  0  0  0
 24 23  1  0  0  0  0
 24 25  2  0  0  0  0
 26 24  1  0  0  0  0
 26 27  2  0  0  0  0
 28 26  1  0  0  0  0
 29 28  1  0  0  0  0
 29 30  1  0  0  0  0
 32 31  2  0  0  0  0
 31 36  1  0  0  0  0
 33 32  1  0  0  0  0
 34 33  1  0  0  0  0
 34 35  1  0  0  0  0
 36 34  2  0  0  0  0
M  END
> <Inchi_key>
VAAUVRVFOQPIGI-KTZMUZOWSA-N, VAAUVRVFOQPIGI-GYRAYZOKSA-N

> <Source>
Mulliner,  Kotsampasakou

> <ID>
EK0110;HT0427

> <H_MFHB>
1

> <CAS>
73384-59-5

> <Cholestasis>
1

> <Name>
ceftriaxone sodium;ceftriaxone

> <Class>
1


$$$$