
  -INDIGO-08031710012D

  9  8  0  0  0  0  0  0  0  0999 V2000
   -0.3421   -1.2767    0.0000 C   0  0  0  0  0  0  0  0  0  0  0  0
    0.9569   -2.0267    0.0000 N   0  0  0  0  0  0  0  0  0  0  0  0
    0.9569   -3.5267    0.0000 C   0  0  0  0  0  0  0  0  0  0  0  0
    2.2560   -1.2767    0.0000 C   0  0  0  0  0  0  0  0  0  0  0  0
    2.2560    0.2233    0.0000 N   0  0  0  0  0  0  0  0  0  0  0  0
    3.5550   -2.0267    0.0000 N   0  0  0  0  0  0  0  0  0  0  0  0
    4.8541   -1.2767    0.0000 C   0  0  0  0  0  0  0  0  0  0  0  0
    4.8541    0.2233    0.0000 N   0  0  0  0  0  0  0  0  0  0  0  0
    6.1531   -2.0267    0.0000 N   0  0  0  0  0  0  0  0  0  0  0  0
  1  2  1  0  0  0  0
  2  3  1  0  0  0  0
  2  4  1  0  0  0  0
  4  5  2  0  0  0  0
  4  6  1  0  0  0  0
  6  7  2  0  0  0  0
  7  8  1  0  0  0  0
  7  9  1  0  0  0  0
M  END
> <Inchi_key>
XZWYZXLIPXDOLR-UHFFFAOYSA-N

> <Source>
Mulliner , Kotsampasakou

> <ID>
EK0327;HT1328

> <H_MFHB>
1

> <CAS>
657-24-9;1115-70-4

> <Cholestasis>
1

> <Name>
metformin hydrochloride;metformin

> <Class>
1

$$$$