

  -INDIGO-08031710012D

 27 29  0  0  0  0  0  0  0  0999 V2000
   16.1960   -1.5492    0.0000 C   0  0  0  0  0  0  0  0  0  0  0  0
   14.8970   -0.7992    0.0000 S   0  0  0  0  0  0  0  0  0  0  0  0
   14.1470   -2.0982    0.0000 O   0  0  0  0  0  0  0  0  0  0  0  0
   15.6470    0.4999    0.0000 O   0  0  0  0  0  0  0  0  0  0  0  0
   13.5978   -0.0492    0.0000 C   0  0  0  0  0  0  0  0  0  0  0  0
   12.2988   -0.7992    0.0000 C   0  0  0  0  0  0  0  0  0  0  0  0
   10.9999   -0.0492    0.0000 C   0  0  0  0  0  0  0  0  0  0  0  0
   10.9999    1.4508    0.0000 C   0  0  0  0  0  0  0  0  0  0  0  0
    9.7009    2.2008    0.0000 C   0  0  0  0  0  0  0  0  0  0  0  0
    9.7009    3.7008    0.0000 O   0  0  0  0  0  0  0  0  0  0  0  0
    8.4019    1.4508    0.0000 N   0  0  0  0  0  0  0  0  0  0  0  0
    7.1027    2.2008    0.0000 C   0  0  0  0  0  0  0  0  0  0  0  0
    7.1027    3.7008    0.0000 C   0  0  0  0  0  0  0  0  0  0  0  0
    5.8037    4.4508    0.0000 C   0  0  0  0  0  0  0  0  0  0  0  0
    4.5048    3.7008    0.0000 C   0  0  0  0  0  0  0  0  0  0  0  0
    3.2055    4.4508    0.0000 Cl  0  0  0  0  0  0  0  0  0  0  0  0
    4.5048    2.2008    0.0000 C   0  0  0  0  0  0  0  0  0  0  0  0
    5.8037    1.4508    0.0000 C   0  0  0  0  0  0  0  0  0  0  0  0
    3.2055    1.4508    0.0000 C   0  0  0  0  0  0  0  0  0  0  0  0
    3.2055   -0.0492    0.0000 C   0  0  0  0  0  0  0  0  0  0  0  0
    1.9066   -0.7992    0.0000 C   0  0  0  0  0  0  0  0  0  0  0  0
    0.6076   -0.0492    0.0000 C   0  0  0  0  0  0  0  0  0  0  0  0
    0.6076    1.4508    0.0000 C   0  0  0  0  0  0  0  0  0  0  0  0
    1.9066    2.2008    0.0000 N   0  0  0  0  0  0  0  0  0  0  0  0
   12.2988    2.2008    0.0000 C   0  0  0  0  0  0  0  0  0  0  0  0
   12.2988    3.7008    0.0000 Cl  0  0  0  0  0  0  0  0  0  0  0  0
   13.5978    1.4508    0.0000 C   0  0  0  0  0  0  0  0  0  0  0  0
  1  2  1  0  0  0  0
  2  3  2  0  0  0  0
  2  4  2  0  0  0  0
  2  5  1  0  0  0  0
  6  5  2  0  0  0  0
  5 27  1  0  0  0  0
  7  6  1  0  0  0  0
  8  7  2  0  0  0  0
  8  9  1  0  0  0  0
 25  8  1  0  0  0  0
  9 10  2  0  0  0  0
  9 11  1  0  0  0  0
 11 12  1  0  0  0  0
 13 12  2  0  0  0  0
 12 18  1  0  0  0  0
 14 13  1  0  0  0  0
 15 14  2  0  0  0  0
 15 16  1  0  0  0  0
 17 15  1  0  0  0  0
 18 17  2  0  0  0  0
 17 19  1  0  0  0  0
 20 19  2  0  0  0  0
 19 24  1  0  0  0  0
 21 20  1  0  0  0  0
 22 21  2  0  0  0  0
 23 22  1  0  0  0  0
 24 23  2  0  0  0  0
 25 26  1  0  0  0  0
 27 25  2  0  0  0  0
M  END
> <Inchi_key>
BPQMGSKTAYIVFO-UHFFFAOYSA-N

> <Source>
Mulliner

> <ID>
HT2187

> <H_MFHB>
1

> <CAS>


> <Cholestasis>


> <Name>
vismodegib

> <Class>
1


$$$$