
  -INDIGO-08031710012D

 19 19  0  0  0  0  0  0  0  0999 V2000
    3.5526    6.1533    0.0000 N   0  0  0  0  0  0  0  0  0  0  0  0
    4.3026    4.8543    0.0000 C   0  0  0  0  0  0  0  0  0  0  0  0
    3.5526    3.5553    0.0000 C   0  0  0  0  0  0  0  0  0  0  0  0
    2.0525    3.5553    0.0000 C   0  0  0  0  0  0  0  0  0  0  0  0
    1.3025    4.8543    0.0000 C   0  0  0  0  0  0  0  0  0  0  0  0
   -0.1973    4.8543    0.0000 C   0  0  0  0  0  0  0  0  0  0  0  0
   -0.9473    3.5553    0.0000 C   0  0  0  0  0  0  0  0  0  0  0  0
   -0.1973    2.2562    0.0000 C   0  0  0  0  0  0  0  0  0  0  0  0
    1.3025    2.2562    0.0000 C   0  0  0  0  0  0  0  0  0  0  0  0
   -2.4474    3.5553    0.0000 N   0  0  0  0  0  0  0  0  0  0  0  0
   -3.1974    2.2562    0.0000 C   0  0  0  0  0  0  0  0  0  0  0  0
   -4.6974    2.2562    0.0000 C   0  0  0  0  0  0  0  0  0  0  0  0
   -5.4474    0.9572    0.0000 Cl  0  0  0  0  0  0  0  0  0  0  0  0
   -3.1974    4.8543    0.0000 C   0  0  0  0  0  0  0  0  0  0  0  0
   -4.6974    4.8543    0.0000 C   0  0  0  0  0  0  0  0  0  0  0  0
   -5.4474    6.1533    0.0000 Cl  0  0  0  0  0  0  0  0  0  0  0  0
    5.8026    4.8543    0.0000 C   0  0  0  0  0  0  0  0  0  0  0  0
    6.5526    6.1533    0.0000 O   0  0  0  0  0  0  0  0  0  0  0  0
    6.5526    3.5553    0.0000 O   0  0  0  0  0  0  0  0  0  0  0  0
  1  2  1  0  0  0  0
  2  3  1  0  0  0  0
  2 17  1  0  0  0  0
  3  4  1  0  0  0  0
  5  4  2  0  0  0  0
  4  9  1  0  0  0  0
  6  5  1  0  0  0  0
  7  6  2  0  0  0  0
  8  7  1  0  0  0  0
  7 10  1  0  0  0  0
  9  8  2  0  0  0  0
 10 11  1  0  0  0  0
 10 14  1  0  0  0  0
 11 12  1  0  0  0  0
 12 13  1  0  0  0  0
 14 15  1  0  0  0  0
 15 16  1  0  0  0  0
 17 18  2  0  0  0  0
 17 19  1  0  0  0  0
M  END
> <Inchi_key>
SGDBTWWWUNNDEQ-UHFFFAOYSA-N

> <Source>
Mulliner

> <ID>
HT1296

> <H_MFHB>
1

> <CAS>


> <Cholestasis>


> <Name>
melphalan;melphalan hydrochloride

> <Class>
1

$$$$