
  -INDIGO-08031710012D

 28 31  0  0  0  0  0  0  0  0999 V2000
    4.8729   -6.0397    0.0000 C   0  0  0  0  0  0  0  0  0  0  0  0
    5.1902   -4.5736    0.0000 C   0  0  0  0  0  0  0  0  0  0  0  0
    6.6182   -4.1152    0.0000 C   0  0  0  0  0  0  0  0  0  0  0  0
    7.7295   -5.1229    0.0000 C   0  0  0  0  0  0  0  0  0  0  0  0
    9.1575   -4.6645    0.0000 C   0  0  0  0  0  0  0  0  0  0  0  0
   10.2688   -5.6721    0.0000 O   0  0  0  0  0  0  0  0  0  0  0  0
    9.4747   -3.1984    0.0000 O   0  0  0  0  0  0  0  0  0  0  0  0
    4.0791   -3.5659    0.0000 C   0  0  0  0  0  0  0  0  0  0  0  0
    4.2410   -2.0747    0.0000 C   0  0  0  0  0  0  0  0  0  0  0  0
    2.8730   -1.4597    0.0000 C   0  0  0  0  0  0  0  0  0  0  0  0
    1.8654   -2.5708    0.0000 C   0  0  0  0  0  0  0  0  0  0  0  0
    0.3652   -2.5654    0.0000 C   0  0  0  0  0  0  0  0  0  0  0  0
   -0.3801   -1.2637    0.0000 C   0  0  0  0  0  0  0  0  0  0  0  0
    0.3746    0.0326    0.0000 O   0  0  0  0  0  0  0  0  0  0  0  0
   -1.8800   -1.2583    0.0000 C   0  0  0  0  0  0  0  0  0  0  0  0
   -2.6347   -2.5547    0.0000 C   0  0  0  0  0  0  0  0  0  0  0  0
   -4.1347   -2.5493    0.0000 C   0  0  0  0  0  0  0  0  0  0  0  0
   -4.8893   -3.8456    0.0000 C   0  0  0  0  0  0  0  0  0  0  0  0
   -6.3893   -3.8402    0.0000 O   0  0  0  0  0  0  0  0  0  0  0  0
   -4.1441   -5.1473    0.0000 C   0  0  0  0  0  0  0  0  0  0  0  0
   -2.6441   -5.1527    0.0000 C   0  0  0  0  0  0  0  0  0  0  0  0
   -1.8894   -3.8564    0.0000 C   0  0  0  0  0  0  0  0  0  0  0  0
   -1.1439   -5.1581    0.0000 C   0  0  0  0  0  0  0  0  0  0  0  0
   -0.3895   -3.8618    0.0000 C   0  0  0  0  0  0  0  0  0  0  0  0
    0.3560   -5.1635    0.0000 C   0  0  0  0  0  0  0  0  0  0  0  0
    1.8560   -5.1688    0.0000 C   0  0  0  0  0  0  0  0  0  0  0  0
    2.6107   -3.8725    0.0000 C   0  0  0  0  0  0  0  0  0  0  0  0
    3.4665   -5.1043    0.0000 C   0  0  0  0  0  0  0  0  0  0  0  0
  1  2  1  0  0  0  0
  2  3  1  0  0  0  0
  2  8  1  0  0  0  0
  3  4  1  0  0  0  0
  4  5  1  0  0  0  0
  5  6  2  0  0  0  0
  5  7  1  0  0  0  0
  9  8  1  0  0  0  0
  8 27  1  0  0  0  0
 10  9  1  0  0  0  0
 11 10  1  0  0  0  0
 12 11  1  0  0  0  0
 11 27  1  0  0  0  0
 13 12  1  0  0  0  0
 12 24  1  0  0  0  0
 13 14  1  0  0  0  0
 15 13  1  0  0  0  0
 16 15  1  0  0  0  0
 17 16  1  0  0  0  0
 16 22  1  0  0  0  0
 18 17  1  0  0  0  0
 18 19  1  0  0  0  0
 20 18  1  0  0  0  0
 21 20  1  0  0  0  0
 22 21  1  0  0  0  0
 22 23  1  0  0  0  0
 24 22  1  0  0  0  0
 25 24  1  0  0  0  0
 26 25  1  0  0  0  0
 27 26  1  0  0  0  0
 27 28  1  0  0  0  0
M  END
> <Inchi_key>
RUDATBOHQWOJDD-UHFFFAOYSA-N

> <Source>
Mulliner

> <ID>
HT0441

> <H_MFHB>
1

> <CAS>
128-13-2;474-25-9

> <Cholestasis>


> <Name>
chenodiol;ursodiol

> <Class>
1

$$$$