
  -INDIGO-08031710012D

 20 22  0  0  0  0  0  0  0  0999 V2000
   -1.4487    2.2859    0.0000 O   0  0  0  0  0  0  0  0  0  0  0  0
   -0.1444    3.0267    0.0000 C   0  0  0  0  0  0  0  0  0  0  0  0
   -0.1339    4.5267    0.0000 N   0  0  0  0  0  0  0  0  0  0  0  0
    1.1493    2.2675    0.0000 C   0  0  0  0  0  0  0  0  0  0  0  0
    1.4509    0.7981    0.0000 N   0  0  0  0  0  0  0  0  0  0  0  0
    2.4536    3.0083    0.0000 C   0  0  0  0  0  0  0  0  0  0  0  0
    2.9414    0.6308    0.0000 C   0  0  0  0  0  0  0  0  0  0  0  0
    3.5611    1.9967    0.0000 N   0  0  0  0  0  0  0  0  0  0  0  0
    2.4641    4.5083    0.0000 N   0  0  0  0  0  0  0  0  0  0  0  0
    5.0306    2.2982    0.0000 C   0  0  0  0  0  0  0  0  0  0  0  0
    1.1705    5.2674    0.0000 C   0  0  0  0  0  0  0  0  0  0  0  0
    5.6504    3.6642    0.0000 C   0  0  0  0  0  0  0  0  0  0  0  0
    6.1381    1.2866    0.0000 C   0  0  0  0  0  0  0  0  0  0  0  0
    1.1812    6.7674    0.0000 N   0  0  0  0  0  0  0  0  0  0  0  0
    7.1411    3.4968    0.0000 C   0  0  0  0  0  0  0  0  0  0  0  0
    7.4425    2.0274    0.0000 C   0  0  0  0  0  0  0  0  0  0  0  0
    5.9709   -0.2040    0.0000 C   0  0  0  0  0  0  0  0  0  0  0  0
    8.1526    4.6044    0.0000 O   0  0  0  0  0  0  0  0  0  0  0  0
    8.8084    1.4076    0.0000 C   0  0  0  0  0  0  0  0  0  0  0  0
   10.0282    2.2807    0.0000 O   0  0  0  0  0  0  0  0  0  0  0  0
  1  2  2  0  0  0  0
  3  2  1  0  0  0  0
  2  4  1  0  0  0  0
  5  4  1  0  0  0  0
  4  6  2  0  0  0  0
  7  5  2  0  0  0  0
  6  8  1  0  0  0  0
  6  9  1  0  0  0  0
  8  7  1  0  0  0  0
  8 10  1  0  0  0  0
  9 11  2  0  0  0  0
 12 10  1  0  0  0  0
 10 13  1  0  0  0  0
 11 14  1  0  0  0  0
 11  3  1  0  0  0  0
 15 12  1  0  0  0  0
 13 16  1  0  0  0  0
 13 17  2  0  0  0  0
 15 18  1  0  0  0  0
 16 15  1  0  0  0  0
 16 19  1  0  0  0  0
 19 20  1  0  0  0  0
M  END
> <Inchi_key>
QDGZDCVAUDNJFG-UHFFFAOYSA-N

> <Source>
Mulliner

> <ID>
HT0764

> <H_MFHB>
1

> <CAS>


> <Cholestasis>


> <Name>
entecavir

> <Class>
1

$$$$