

  -INDIGO-08031710012D

 30 33  0  0  0  0  0  0  0  0999 V2000
   20.1602   -5.2404    0.0000 C   0  0  0  0  0  0  0  0  0  0  0  0
   18.8501   -4.5099    0.0000 O   0  0  0  0  0  0  0  0  0  0  0  0
   18.8275   -3.0101    0.0000 C   0  0  0  0  0  0  0  0  0  0  0  0
   20.1152   -2.2407    0.0000 C   0  0  0  0  0  0  0  0  0  0  0  0
   20.0928   -0.7408    0.0000 C   0  0  0  0  0  0  0  0  0  0  0  0
   18.7828   -0.0104    0.0000 C   0  0  0  0  0  0  0  0  0  0  0  0
   17.4951   -0.7798    0.0000 C   0  0  0  0  0  0  0  0  0  0  0  0
   17.5174   -2.2796    0.0000 C   0  0  0  0  0  0  0  0  0  0  0  0
   16.2297   -3.0491    0.0000 O   0  0  0  0  0  0  0  0  0  0  0  0
   14.9197   -2.3186    0.0000 C   0  0  0  0  0  0  0  0  0  0  0  0
   13.6322   -3.0879    0.0000 C   0  0  0  0  0  0  0  0  0  0  0  0
   12.3219   -2.3574    0.0000 N   0  0  0  0  0  0  0  0  0  0  0  0
   11.0342   -3.1269    0.0000 C   0  0  0  0  0  0  0  0  0  0  0  0
    9.7241   -2.3964    0.0000 C   0  0  0  0  0  0  0  0  0  0  0  0
    9.7018   -0.8966    0.0000 O   0  0  0  0  0  0  0  0  0  0  0  0
    8.4364   -3.1658    0.0000 C   0  0  0  0  0  0  0  0  0  0  0  0
    7.1263   -2.4353    0.0000 O   0  0  0  0  0  0  0  0  0  0  0  0
    5.8386   -3.2047    0.0000 C   0  0  0  0  0  0  0  0  0  0  0  0
    5.8613   -4.7045    0.0000 C   0  0  0  0  0  0  0  0  0  0  0  0
    4.5736   -5.4739    0.0000 C   0  0  0  0  0  0  0  0  0  0  0  0
    3.2635   -4.7435    0.0000 C   0  0  0  0  0  0  0  0  0  0  0  0
    3.2409   -3.2436    0.0000 C   0  0  0  0  0  0  0  0  0  0  0  0
    2.1113   -2.2567    0.0000 N   0  0  0  0  0  0  0  0  0  0  0  0
    2.7007   -0.8774    0.0000 C   0  0  0  0  0  0  0  0  0  0  0  0
    2.0702    0.4836    0.0000 C   0  0  0  0  0  0  0  0  0  0  0  0
    2.9336    1.7102    0.0000 C   0  0  0  0  0  0  0  0  0  0  0  0
    4.4275    1.5758    0.0000 C   0  0  0  0  0  0  0  0  0  0  0  0
    5.0583    0.2147    0.0000 C   0  0  0  0  0  0  0  0  0  0  0  0
    4.1948   -1.0119    0.0000 C   0  0  0  0  0  0  0  0  0  0  0  0
    4.5286   -2.4743    0.0000 C   0  0  0  0  0  0  0  0  0  0  0  0
  1  2  1  0  0  0  0
  2  3  1  0  0  0  0
  4  3  2  0  0  0  0
  3  8  1  0  0  0  0
  5  4  1  0  0  0  0
  6  5  2  0  0  0  0
  7  6  1  0  0  0  0
  8  7  2  0  0  0  0
  8  9  1  0  0  0  0
  9 10  1  0  0  0  0
 10 11  1  0  0  0  0
 11 12  1  0  0  0  0
 12 13  1  0  0  0  0
 13 14  1  0  0  0  0
 14 15  1  0  0  0  0
 14 16  1  0  0  0  0
 16 17  1  0  0  0  0
 17 18  1  0  0  0  0
 19 18  2  0  0  0  0
 18 30  1  0  0  0  0
 20 19  1  0  0  0  0
 21 20  2  0  0  0  0
 22 21  1  0  0  0  0
 23 22  1  0  0  0  0
 22 30  2  0  0  0  0
 24 23  1  0  0  0  0
 25 24  1  0  0  0  0
 24 29  2  0  0  0  0
 26 25  2  0  0  0  0
 27 26  1  0  0  0  0
 28 27  2  0  0  0  0
 29 28  1  0  0  0  0
 30 29  1  0  0  0  0
M  END
> <Inchi_key>
OGHNVEJMJSYVRP-UHFFFAOYSA-N

> <Source>
Mulliner

> <ID>
HT0390

> <H_MFHB>
1

> <CAS>


> <Cholestasis>


> <Name>
carvedilol;carvedilol phosphate

> <Class>
1


$$$$