

  -INDIGO-08031710012D

 22 24  0  0  0  0  0  0  0  0999 V2000
    0.0000    0.0001    0.0000 O   0  0  0  0  0  0  0  0  0  0  0  0
    1.5000    0.0001    0.0000 C   0  0  0  0  0  0  0  0  0  0  0  0
    1.5000    1.5001    0.0000 C   0  0  0  0  0  0  0  0  0  0  0  0
    0.2009    2.2500    0.0000 N   0  0  0  0  0  0  0  0  0  0  0  0
   -1.1694    1.6399    0.0000 C   0  0  0  0  0  0  0  0  0  0  0  0
   -2.1731    2.7546    0.0000 N   0  0  0  0  0  0  0  0  0  0  0  0
   -1.4231    4.0537    0.0000 C   0  0  0  0  0  0  0  0  0  0  0  0
    0.0442    3.7418    0.0000 N   0  0  0  0  0  0  0  0  0  0  0  0
    1.5000   -1.5001    0.0000 C   0  0  0  0  0  0  0  0  0  0  0  0
    0.2009   -2.2500    0.0000 N   0  0  0  0  0  0  0  0  0  0  0  0
   -1.1694   -1.6399    0.0000 C   0  0  0  0  0  0  0  0  0  0  0  0
   -2.1731   -2.7546    0.0000 N   0  0  0  0  0  0  0  0  0  0  0  0
   -1.4231   -4.0537    0.0000 C   0  0  0  0  0  0  0  0  0  0  0  0
    0.0442   -3.7418    0.0000 N   0  0  0  0  0  0  0  0  0  0  0  0
    3.0001    0.0001    0.0000 C   0  0  0  0  0  0  0  0  0  0  0  0
    3.7500   -1.2990    0.0000 C   0  0  0  0  0  0  0  0  0  0  0  0
    5.2500   -1.2990    0.0000 C   0  0  0  0  0  0  0  0  0  0  0  0
    6.0001    0.0001    0.0000 C   0  0  0  0  0  0  0  0  0  0  0  0
    7.5000    0.0001    0.0000 F   0  0  0  0  0  0  0  0  0  0  0  0
    5.2500    1.2990    0.0000 C   0  0  0  0  0  0  0  0  0  0  0  0
    3.7500    1.2990    0.0000 C   0  0  0  0  0  0  0  0  0  0  0  0
    3.0001    2.5981    0.0000 F   0  0  0  0  0  0  0  0  0  0  0  0
  1  2  1  0  0  0  0
  2  3  1  0  0  0  0
  2  9  1  0  0  0  0
  2 15  1  0  0  0  0
  3  4  1  0  0  0  0
  5  4  1  0  0  0  0
  4  8  1  0  0  0  0
  6  5  2  0  0  0  0
  7  6  1  0  0  0  0
  8  7  2  0  0  0  0
  9 10  1  0  0  0  0
 11 10  1  0  0  0  0
 10 14  1  0  0  0  0
 12 11  2  0  0  0  0
 13 12  1  0  0  0  0
 14 13  2  0  0  0  0
 16 15  2  0  0  0  0
 15 21  1  0  0  0  0
 17 16  1  0  0  0  0
 18 17  2  0  0  0  0
 18 19  1  0  0  0  0
 20 18  1  0  0  0  0
 21 20  2  0  0  0  0
 21 22  1  0  0  0  0
M  END
> <Inchi_key>
RFHAOTPXVQNOHP-UHFFFAOYSA-N

> <Source>
Mulliner , Kotsampasakou

> <ID>
EK0218;HT0889

> <H_MFHB>
1

> <CAS>
86386-73-4

> <Cholestasis>
1

> <Name>
fluconazole

> <Class>
1


$$$$