
  -INDIGO-08031710012D

 25 27  0  0  0  0  0  0  0  0999 V2000
   18.4780    2.8423    0.0000 O   0  0  0  0  0  0  0  0  0  0  0  0
   17.1790    3.5924    0.0000 C   0  0  0  0  0  0  0  0  0  0  0  0
   17.1790    5.0924    0.0000 O   0  0  0  0  0  0  0  0  0  0  0  0
   15.8800    2.8425    0.0000 C   0  0  0  0  0  0  0  0  0  0  0  0
   14.5810    3.5926    0.0000 C   0  0  0  0  0  0  0  0  0  0  0  0
   13.2817    2.8426    0.0000 C   0  0  0  0  0  0  0  0  0  0  0  0
   11.9829    3.5928    0.0000 C   0  0  0  0  0  0  0  0  0  0  0  0
   10.6839    2.8429    0.0000 C   0  0  0  0  0  0  0  0  0  0  0  0
    9.3849    3.5930    0.0000 C   0  0  0  0  0  0  0  0  0  0  0  0
    8.0856    2.8431    0.0000 N   0  0  0  0  0  0  0  0  0  0  0  0
    6.7866    3.5932    0.0000 C   0  0  0  0  0  0  0  0  0  0  0  0
    5.5468    2.7491    0.0000 C   0  0  0  0  0  0  0  0  0  0  0  0
    5.8803    1.2866    0.0000 C   0  0  0  0  0  0  0  0  0  0  0  0
    4.7804    0.2666    0.0000 C   0  0  0  0  0  0  0  0  0  0  0  0
    3.3471    0.7090    0.0000 C   0  0  0  0  0  0  0  0  0  0  0  0
    3.0137    2.1714    0.0000 C   0  0  0  0  0  0  0  0  0  0  0  0
    4.1136    3.1915    0.0000 C   0  0  0  0  0  0  0  0  0  0  0  0
    3.5649    4.5876    0.0000 C   0  0  0  0  0  0  0  0  0  0  0  0
    4.3139    5.8872    0.0000 C   0  0  0  0  0  0  0  0  0  0  0  0
    5.7984    6.1092    0.0000 C   0  0  0  0  0  0  0  0  0  0  0  0
    6.1320    7.5717    0.0000 C   0  0  0  0  0  0  0  0  0  0  0  0
    7.5653    8.0139    0.0000 C   0  0  0  0  0  0  0  0  0  0  0  0
    8.6649    6.9937    0.0000 C   0  0  0  0  0  0  0  0  0  0  0  0
    8.3313    5.5312    0.0000 C   0  0  0  0  0  0  0  0  0  0  0  0
    6.8980    5.0890    0.0000 C   0  0  0  0  0  0  0  0  0  0  0  0
  1  2  1  0  0  0  0
  2  3  2  0  0  0  0
  2  4  1  0  0  0  0
  4  5  1  0  0  0  0
  5  6  1  0  0  0  0
  6  7  1  0  0  0  0
  7  8  1  0  0  0  0
  8  9  1  0  0  0  0
  9 10  1  0  0  0  0
 10 11  1  0  0  0  0
 12 11  1  0  0  0  0
 11 25  1  0  0  0  0
 13 12  2  0  0  0  0
 12 17  1  0  0  0  0
 14 13  1  0  0  0  0
 15 14  2  0  0  0  0
 16 15  1  0  0  0  0
 17 16  2  0  0  0  0
 18 17  1  0  0  0  0
 19 18  1  0  0  0  0
 20 19  1  0  0  0  0
 21 20  2  0  0  0  0
 20 25  1  0  0  0  0
 22 21  1  0  0  0  0
 23 22  2  0  0  0  0
 24 23  1  0  0  0  0
 25 24  2  0  0  0  0
M  END
> <Inchi_key>
ONNOFKFOZAJDHT-UHFFFAOYSA-N

> <Source>
Mulliner , Kotsampasakou

> <ID>
EK0026;HT0132

> <H_MFHB>
1

> <CAS>


> <Cholestasis>
1

> <Name>
amineptine

> <Class>
1

$$$$