

  -INDIGO-08031710012D

 27 29  0  0  0  0  0  0  0  0999 V2000
    0.2389   -3.3994    0.0000 N   0  0  0  0  0  0  0  0  0  0  0  0
    1.7242   -3.1898    0.0000 C   0  0  0  0  0  0  0  0  0  0  0  0
    2.4274   -1.8649    0.0000 N   0  0  0  0  0  0  0  0  0  0  0  0
    3.9047   -2.1244    0.0000 C   0  0  0  0  0  0  0  0  0  0  0  0
    4.1146   -3.6096    0.0000 C   0  0  0  0  0  0  0  0  0  0  0  0
    2.7669   -4.2681    0.0000 S   0  0  0  0  0  0  0  0  0  0  0  0
    4.9832   -1.0817    0.0000 C   0  0  0  0  0  0  0  0  0  0  0  0
    4.6192    0.3735    0.0000 C   0  0  0  0  0  0  0  0  0  0  0  0
    3.1770    0.7860    0.0000 C   0  0  0  0  0  0  0  0  0  0  0  0
    2.8133    2.2412    0.0000 C   0  0  0  0  0  0  0  0  0  0  0  0
    1.3710    2.6537    0.0000 O   0  0  0  0  0  0  0  0  0  0  0  0
    3.8915    3.2839    0.0000 O   0  0  0  0  0  0  0  0  0  0  0  0
    6.4252   -1.4943    0.0000 C   0  0  0  0  0  0  0  0  0  0  0  0
    6.7892   -2.9495    0.0000 O   0  0  0  0  0  0  0  0  0  0  0  0
    7.5037   -0.4515    0.0000 N   0  0  0  0  0  0  0  0  0  0  0  0
    8.9459   -0.8640    0.0000 C   0  0  0  0  0  0  0  0  0  0  0  0
   10.2571   -0.1358    0.0000 C   0  0  0  0  0  0  0  0  0  0  0  0
   11.0288    1.1504    0.0000 S   0  0  0  0  0  0  0  0  0  0  0  0
   12.5287    1.1252    0.0000 C   0  0  0  0  0  0  0  0  0  0  0  0
   13.2569   -0.1863    0.0000 C   0  0  0  0  0  0  0  0  0  0  0  0
   12.4852   -1.4725    0.0000 C   0  0  0  0  0  0  0  0  0  0  0  0
   10.9853   -1.4473    0.0000 N   0  0  0  0  0  0  0  0  0  0  0  0
    9.6738   -2.1754    0.0000 C   0  0  0  0  0  0  0  0  0  0  0  0
    9.2615   -3.6176    0.0000 O   0  0  0  0  0  0  0  0  0  0  0  0
   13.2131   -2.7840    0.0000 C   0  0  0  0  0  0  0  0  0  0  0  0
   14.7130   -2.8091    0.0000 O   0  0  0  0  0  0  0  0  0  0  0  0
   12.4414   -4.0702    0.0000 O   0  0  0  0  0  0  0  0  0  0  0  0
  1  2  1  0  0  0  0
  3  2  2  0  0  0  0
  2  6  1  0  0  0  0
  4  3  1  0  0  0  0
  5  4  2  0  0  0  0
  4  7  1  0  0  0  0
  6  5  1  0  0  0  0
  7  8  2  0  0  0  0
  7 13  1  0  0  0  0
  8  9  1  0  0  0  0
  9 10  1  0  0  0  0
 10 11  2  0  0  0  0
 10 12  1  0  0  0  0
 13 14  2  0  0  0  0
 13 15  1  0  0  0  0
 15 16  1  0  0  0  0
 17 16  1  0  0  0  0
 16 23  1  0  0  0  0
 18 17  1  0  0  0  0
 17 22  1  0  0  0  0
 19 18  1  0  0  0  0
 20 19  1  0  0  0  0
 21 20  2  0  0  0  0
 22 21  1  0  0  0  0
 21 25  1  0  0  0  0
 23 22  1  0  0  0  0
 23 24  2  0  0  0  0
 25 26  2  0  0  0  0
 25 27  1  0  0  0  0
M  END
> <Inchi_key>
UNJFKXSSGBWRBZ-LZCJLJQNSA-N

> <Source>
Mulliner

> <ID>
HT0424

> <H_MFHB>
1

> <CAS>
97519-39-6

> <Cholestasis>


> <Name>
ceftibuten dihydrate;ceftibuten

> <Class>
1


$$$$