

  -INDIGO-08031710012D

 40 43  0  0  0  0  0  0  0  0999 V2000
   -2.4099   -8.9933    0.0000 C   0  0  0  0  0  0  0  0  0  0  0  0
   -1.1108   -9.7433    0.0000 C   0  0  0  0  0  0  0  0  0  0  0  0
   -1.1108  -11.2433    0.0000 C   0  0  0  0  0  0  0  0  0  0  0  0
   -2.4099  -11.9933    0.0000 O   0  0  0  0  0  0  0  0  0  0  0  0
    0.1883  -11.9933    0.0000 C   0  0  0  0  0  0  0  0  0  0  0  0
    1.4874  -11.2433    0.0000 C   0  0  0  0  0  0  0  0  0  0  0  0
    1.4874   -9.7433    0.0000 C   0  0  0  0  0  0  0  0  0  0  0  0
    0.1883   -8.9933    0.0000 C   0  0  0  0  0  0  0  0  0  0  0  0
    0.1883   -7.4932    0.0000 C   0  0  0  0  0  0  0  0  0  0  0  0
   -1.1108   -6.7432    0.0000 O   0  0  0  0  0  0  0  0  0  0  0  0
    1.4874   -6.7432    0.0000 N   0  0  0  0  0  0  0  0  0  0  0  0
    1.4874   -5.2434    0.0000 C   0  0  0  0  0  0  0  0  0  0  0  0
    0.1883   -4.4934    0.0000 C   0  0  0  0  0  0  0  0  0  0  0  0
    0.1883   -2.9933    0.0000 S   0  0  0  0  0  0  0  0  0  0  0  0
   -1.1108   -2.2433    0.0000 C   0  0  0  0  0  0  0  0  0  0  0  0
   -1.1108   -0.7433    0.0000 C   0  0  0  0  0  0  0  0  0  0  0  0
   -2.4099    0.0067    0.0000 C   0  0  0  0  0  0  0  0  0  0  0  0
   -3.7088   -0.7433    0.0000 C   0  0  0  0  0  0  0  0  0  0  0  0
   -3.7088   -2.2433    0.0000 C   0  0  0  0  0  0  0  0  0  0  0  0
   -2.4099   -2.9933    0.0000 C   0  0  0  0  0  0  0  0  0  0  0  0
    2.7863   -4.4934    0.0000 C   0  0  0  0  0  0  0  0  0  0  0  0
    2.7863   -2.9933    0.0000 O   0  0  0  0  0  0  0  0  0  0  0  0
    4.0854   -5.2434    0.0000 C   0  0  0  0  0  0  0  0  0  0  0  0
    5.3845   -4.4934    0.0000 N   0  0  0  0  0  0  0  0  0  0  0  0
    5.3845   -2.9933    0.0000 C   0  0  0  0  0  0  0  0  0  0  0  0
    6.6834   -2.2433    0.0000 C   0  0  0  0  0  0  0  0  0  0  0  0
    6.6834   -0.7433    0.0000 C   0  0  0  0  0  0  0  0  0  0  0  0
    7.9825    0.0067    0.0000 C   0  0  0  0  0  0  0  0  0  0  0  0
    9.2816   -0.7433    0.0000 C   0  0  0  0  0  0  0  0  0  0  0  0
    9.2816   -2.2433    0.0000 C   0  0  0  0  0  0  0  0  0  0  0  0
    7.9825   -2.9933    0.0000 C   0  0  0  0  0  0  0  0  0  0  0  0
    7.9825   -4.4934    0.0000 C   0  0  0  0  0  0  0  0  0  0  0  0
    6.6834   -5.2434    0.0000 C   0  0  0  0  0  0  0  0  0  0  0  0
    6.6834   -6.7432    0.0000 C   0  0  0  0  0  0  0  0  0  0  0  0
    5.3845   -7.4932    0.0000 O   0  0  0  0  0  0  0  0  0  0  0  0
    7.9825   -7.4932    0.0000 N   0  0  0  0  0  0  0  0  0  0  0  0
    7.9825   -8.9933    0.0000 C   0  0  0  0  0  0  0  0  0  0  0  0
    7.9825  -10.4933    0.0000 C   0  0  0  0  0  0  0  0  0  0  0  0
    6.4825   -8.9933    0.0000 C   0  0  0  0  0  0  0  0  0  0  0  0
    9.4825   -8.9933    0.0000 C   0  0  0  0  0  0  0  0  0  0  0  0
  1  2  1  0  0  0  0
  3  2  2  0  0  0  0
  2  8  1  0  0  0  0
  3  4  1  0  0  0  0
  5  3  1  0  0  0  0
  6  5  2  0  0  0  0
  7  6  1  0  0  0  0
  8  7  2  0  0  0  0
  8  9  1  0  0  0  0
  9 10  2  0  0  0  0
  9 11  1  0  0  0  0
 11 12  1  0  0  0  0
 12 13  1  0  0  0  0
 12 21  1  0  0  0  0
 13 14  1  0  0  0  0
 14 15  1  0  0  0  0
 16 15  2  0  0  0  0
 15 20  1  0  0  0  0
 17 16  1  0  0  0  0
 18 17  2  0  0  0  0
 19 18  1  0  0  0  0
 20 19  2  0  0  0  0
 21 22  1  0  0  0  0
 21 23  1  0  0  0  0
 23 24  1  0  0  0  0
 25 24  1  0  0  0  0
 24 33  1  0  0  0  0
 26 25  1  0  0  0  0
 27 26  1  0  0  0  0
 26 31  1  0  0  0  0
 28 27  1  0  0  0  0
 29 28  1  0  0  0  0
 30 29  1  0  0  0  0
 31 30  1  0  0  0  0
 32 31  1  0  0  0  0
 33 32  1  0  0  0  0
 33 34  1  0  0  0  0
 34 35  2  0  0  0  0
 34 36  1  0  0  0  0
 36 37  1  0  0  0  0
 37 38  1  0  0  0  0
 37 39  1  0  0  0  0
 37 40  1  0  0  0  0
M  END
> <Inchi_key>
QAGYKUNXZHXKMR-UHFFFAOYSA-N

> <Source>
Mulliner

> <ID>
HT1473

> <H_MFHB>
1

> <CAS>
159989-65-8

> <Cholestasis>


> <Name>
nelfinavir mesylate;nelfinavir

> <Class>
1


$$$$