
  -INDIGO-08031710012D

 30 34  0  0  0  0  0  0  0  0999 V2000
   15.7339    0.8383    0.0000 N   0  0  0  0  0  0  0  0  0  0  0  0
   14.4349    0.0883    0.0000 C   0  0  0  0  0  0  0  0  0  0  0  0
   13.6848   -1.2108    0.0000 C   0  0  0  0  0  0  0  0  0  0  0  0
   12.6810   -2.3254    0.0000 C   0  0  0  0  0  0  0  0  0  0  0  0
   11.3107   -1.7155    0.0000 N   0  0  0  0  0  0  0  0  0  0  0  0
   11.4674   -0.2235    0.0000 C   0  0  0  0  0  0  0  0  0  0  0  0
   12.9349    0.0884    0.0000 C   0  0  0  0  0  0  0  0  0  0  0  0
   10.0117   -2.4655    0.0000 C   0  0  0  0  0  0  0  0  0  0  0  0
    8.7126   -1.7155    0.0000 N   0  0  0  0  0  0  0  0  0  0  0  0
    7.4136   -2.4655    0.0000 C   0  0  0  0  0  0  0  0  0  0  0  0
    6.1147   -1.7155    0.0000 N   0  0  0  0  0  0  0  0  0  0  0  0
    4.8155   -2.4655    0.0000 C   0  0  0  0  0  0  0  0  0  0  0  0
    4.8155   -3.9654    0.0000 C   0  0  0  0  0  0  0  0  0  0  0  0
    3.5166   -4.7154    0.0000 C   0  0  0  0  0  0  0  0  0  0  0  0
    2.2174   -3.9654    0.0000 O   0  0  0  0  0  0  0  0  0  0  0  0
    3.5166   -6.2154    0.0000 O   0  0  0  0  0  0  0  0  0  0  0  0
    6.1147   -4.7154    0.0000 C   0  0  0  0  0  0  0  0  0  0  0  0
    6.1147   -6.2154    0.0000 O   0  0  0  0  0  0  0  0  0  0  0  0
    7.4136   -3.9654    0.0000 C   0  0  0  0  0  0  0  0  0  0  0  0
    8.7126   -4.7154    0.0000 C   0  0  0  0  0  0  0  0  0  0  0  0
   10.0117   -3.9654    0.0000 C   0  0  0  0  0  0  0  0  0  0  0  0
   11.3107   -4.7154    0.0000 F   0  0  0  0  0  0  0  0  0  0  0  0
    6.1147   -0.2153    0.0000 C   0  0  0  0  0  0  0  0  0  0  0  0
    7.4136    0.5347    0.0000 C   0  0  0  0  0  0  0  0  0  0  0  0
    7.4136    2.0346    0.0000 C   0  0  0  0  0  0  0  0  0  0  0  0
    6.1145    2.7846    0.0000 C   0  0  0  0  0  0  0  0  0  0  0  0
    6.1145    4.2846    0.0000 F   0  0  0  0  0  0  0  0  0  0  0  0
    4.8155    2.0346    0.0000 C   0  0  0  0  0  0  0  0  0  0  0  0
    4.8155    0.5347    0.0000 C   0  0  0  0  0  0  0  0  0  0  0  0
    3.5166   -0.2153    0.0000 F   0  0  0  0  0  0  0  0  0  0  0  0
  1  2  1  0  0  0  0
  3  2  1  0  0  0  0
  2  7  1  0  0  0  0
  4  3  1  0  0  0  0
  3  7  1  0  0  0  0
  5  4  1  0  0  0  0
  6  5  1  0  0  0  0
  5  8  1  0  0  0  0
  7  6  1  0  0  0  0
  9  8  2  0  0  0  0
  8 21  1  0  0  0  0
 10  9  1  0  0  0  0
 11 10  1  0  0  0  0
 10 19  2  0  0  0  0
 12 11  1  0  0  0  0
 11 23  1  0  0  0  0
 13 12  2  0  0  0  0
 13 14  1  0  0  0  0
 17 13  1  0  0  0  0
 14 15  2  0  0  0  0
 14 16  1  0  0  0  0
 17 18  2  0  0  0  0
 19 17  1  0  0  0  0
 20 19  1  0  0  0  0
 21 20  2  0  0  0  0
 21 22  1  0  0  0  0
 24 23  2  0  0  0  0
 23 29  1  0  0  0  0
 25 24  1  0  0  0  0
 26 25  2  0  0  0  0
 26 27  1  0  0  0  0
 28 26  1  0  0  0  0
 29 28  2  0  0  0  0
 29 30  1  0  0  0  0
M  END
> <Inchi_key>
WVPSKSLAZQPAKQ-UHFFFAOYSA-N

> <Source>
Mulliner

> <ID>
HT2143

> <H_MFHB>
1

> <CAS>
147059-72-1

> <Cholestasis>


> <Name>
trovafloxacin mesylate;trovafloxacin

> <Class>
1

$$$$