

  -INDIGO-08031710012D

 21 23  0  0  0  0  0  0  0  0999 V2000
    0.0000   -3.0929    0.0000 C   0  0  0  0  0  0  0  0  0  0  0  0
    1.5000   -3.0929    0.0000 N   0  0  0  0  0  0  0  0  0  0  0  0
    2.2500   -4.3920    0.0000 C   0  0  0  0  0  0  0  0  0  0  0  0
    3.7500   -4.3920    0.0000 C   0  0  0  0  0  0  0  0  0  0  0  0
    4.5000   -3.0929    0.0000 C   0  0  0  0  0  0  0  0  0  0  0  0
    3.7500   -1.7939    0.0000 C   0  0  0  0  0  0  0  0  0  0  0  0
    2.2500   -1.7939    0.0000 C   0  0  0  0  0  0  0  0  0  0  0  0
    6.0000   -3.0929    0.0000 O   0  0  0  0  0  0  0  0  0  0  0  0
    6.7500   -1.7939    0.0000 C   0  0  0  0  0  0  0  0  0  0  0  0
    6.0000   -0.4949    0.0000 C   0  0  0  0  0  0  0  0  0  0  0  0
    6.7500    0.8042    0.0000 C   0  0  0  0  0  0  0  0  0  0  0  0
    6.0000    2.1032    0.0000 C   0  0  0  0  0  0  0  0  0  0  0  0
    4.5000    2.1032    0.0000 C   0  0  0  0  0  0  0  0  0  0  0  0
    3.7500    0.8042    0.0000 C   0  0  0  0  0  0  0  0  0  0  0  0
    4.5000   -0.4949    0.0000 C   0  0  0  0  0  0  0  0  0  0  0  0
    8.2500   -1.7939    0.0000 C   0  0  0  0  0  0  0  0  0  0  0  0
    9.0000   -3.0929    0.0000 C   0  0  0  0  0  0  0  0  0  0  0  0
   10.5000   -3.0929    0.0000 C   0  0  0  0  0  0  0  0  0  0  0  0
   11.2500   -1.7939    0.0000 C   0  0  0  0  0  0  0  0  0  0  0  0
   10.5000   -0.4949    0.0000 C   0  0  0  0  0  0  0  0  0  0  0  0
    9.0000   -0.4949    0.0000 C   0  0  0  0  0  0  0  0  0  0  0  0
  1  2  1  0  0  0  0
  3  2  1  0  0  0  0
  2  7  1  0  0  0  0
  4  3  1  0  0  0  0
  5  4  1  0  0  0  0
  6  5  1  0  0  0  0
  5  8  1  0  0  0  0
  7  6  1  0  0  0  0
  8  9  1  0  0  0  0
  9 10  1  0  0  0  0
  9 16  1  0  0  0  0
 11 10  2  0  0  0  0
 10 15  1  0  0  0  0
 12 11  1  0  0  0  0
 13 12  2  0  0  0  0
 14 13  1  0  0  0  0
 15 14  2  0  0  0  0
 17 16  2  0  0  0  0
 16 21  1  0  0  0  0
 18 17  1  0  0  0  0
 19 18  2  0  0  0  0
 20 19  1  0  0  0  0
 21 20  2  0  0  0  0
M  END
> <Inchi_key>
OWQUZNMMYNAXSL-UHFFFAOYSA-N

> <Source>
Mulliner

> <ID>
HT0691

> <H_MFHB>
1

> <CAS>


> <Cholestasis>


> <Name>
diphenylpyraline hydrochloride;diphenylpyraline

> <Class>
1


$$$$