

  -INDIGO-08031710012D

  9  8  0  0  0  0  0  0  0  0999 V2000
    0.0283    0.0490    0.0000 C   0  0  0  0  0  0  0  0  0  0  0  0
    0.7783   -1.2500    0.0000 C   0  0  0  0  0  0  0  0  0  0  0  0
    1.5283   -2.5490    0.0000 C   0  0  0  0  0  0  0  0  0  0  0  0
   -0.5207   -2.0000    0.0000 S   0  0  0  0  0  0  0  0  0  0  0  0
    2.0774   -0.5000    0.0000 C   0  0  0  0  0  0  0  0  0  0  0  0
    2.0774    1.0000    0.0000 N   0  0  0  0  0  0  0  0  0  0  0  0
    3.3764   -1.2500    0.0000 C   0  0  0  0  0  0  0  0  0  0  0  0
    4.6754   -0.5000    0.0000 O   0  0  0  0  0  0  0  0  0  0  0  0
    3.3764   -2.7500    0.0000 O   0  0  0  0  0  0  0  0  0  0  0  0
  1  2  1  0  0  0  0
  2  3  1  0  0  0  0
  2  4  1  0  0  0  0
  2  5  1  0  0  0  0
  5  6  1  0  0  0  0
  5  7  1  0  0  0  0
  7  8  2  0  0  0  0
  7  9  1  0  0  0  0
M  END
> <Inchi_key>
VVNCNSJFMMFHPL-UHFFFAOYSA-N

> <Source>
Mulliner , Kotsampasakou

> <ID>
EK0144;HT1614

> <H_MFHB>
1

> <CAS>
52-67-5

> <Cholestasis>
1

> <Name>
penicillamine;d?penicillamine;d-penicillamine

> <Class>
1


$$$$