
  -INDIGO-08031710012D

 22 24  0  0  0  0  0  0  0  0999 V2000
    8.1008   -3.4574    0.0000 C   0  0  0  0  0  0  0  0  0  0  0  0
    7.5947   -4.8695    0.0000 N   0  0  0  0  0  0  0  0  0  0  0  0
    8.5644   -6.0139    0.0000 C   0  0  0  0  0  0  0  0  0  0  0  0
    6.1187   -5.1371    0.0000 C   0  0  0  0  0  0  0  0  0  0  0  0
    5.1489   -3.9928    0.0000 C   0  0  0  0  0  0  0  0  0  0  0  0
    3.6731   -4.2604    0.0000 N   0  0  0  0  0  0  0  0  0  0  0  0
    3.2728   -5.7060    0.0000 C   0  0  0  0  0  0  0  0  0  0  0  0
    4.4020   -6.6936    0.0000 O   0  0  0  0  0  0  0  0  0  0  0  0
    1.8934   -6.2952    0.0000 C   0  0  0  0  0  0  0  0  0  0  0  0
    1.9387   -7.7946    0.0000 C   0  0  0  0  0  0  0  0  0  0  0  0
    0.6628   -8.5834    0.0000 C   0  0  0  0  0  0  0  0  0  0  0  0
   -0.6582   -7.8729    0.0000 C   0  0  0  0  0  0  0  0  0  0  0  0
   -0.7034   -6.3737    0.0000 C   0  0  0  0  0  0  0  0  0  0  0  0
    0.5725   -5.5847    0.0000 C   0  0  0  0  0  0  0  0  0  0  0  0
    0.3033   -4.1091    0.0000 N   0  0  0  0  0  0  0  0  0  0  0  0
   -1.1426   -3.7102    0.0000 C   0  0  0  0  0  0  0  0  0  0  0  0
    1.2923   -2.9800    0.0000 C   0  0  0  0  0  0  0  0  0  0  0  0
    0.6014   -1.6485    0.0000 C   0  0  0  0  0  0  0  0  0  0  0  0
    1.4088   -0.3846    0.0000 C   0  0  0  0  0  0  0  0  0  0  0  0
    2.9073   -0.4519    0.0000 C   0  0  0  0  0  0  0  0  0  0  0  0
    3.5983   -1.7832    0.0000 C   0  0  0  0  0  0  0  0  0  0  0  0
    2.7907   -3.0473    0.0000 C   0  0  0  0  0  0  0  0  0  0  0  0
  1  2  1  0  0  0  0
  2  3  1  0  0  0  0
  2  4  1  0  0  0  0
  4  5  1  0  0  0  0
  5  6  1  0  0  0  0
  7  6  1  0  0  0  0
  6 22  1  0  0  0  0
  7  8  2  0  0  0  0
  9  7  1  0  0  0  0
 10  9  2  0  0  0  0
  9 14  1  0  0  0  0
 11 10  1  0  0  0  0
 12 11  2  0  0  0  0
 13 12  1  0  0  0  0
 14 13  2  0  0  0  0
 15 14  1  0  0  0  0
 15 16  1  0  0  0  0
 17 15  1  0  0  0  0
 18 17  2  0  0  0  0
 17 22  1  0  0  0  0
 19 18  1  0  0  0  0
 20 19  2  0  0  0  0
 21 20  1  0  0  0  0
 22 21  2  0  0  0  0
M  END
> <Inchi_key>
QPGGEKPRGVJKQB-UHFFFAOYSA-N

> <Source>
Mulliner

> <ID>
HT0639

> <H_MFHB>
1

> <CAS>
315-80-0

> <Cholestasis>


> <Name>
dibenzepin

> <Class>
1

$$$$