
  -INDIGO-08031710012D

 28 30  0  0  0  0  0  0  0  0999 V2000
   -5.2437    9.8937    0.0000 C   0  0  0  0  0  0  0  0  0  0  0  0
   -5.9937    8.5947    0.0000 O   0  0  0  0  0  0  0  0  0  0  0  0
   -5.2437    7.2956    0.0000 C   0  0  0  0  0  0  0  0  0  0  0  0
   -3.7436    7.2956    0.0000 C   0  0  0  0  0  0  0  0  0  0  0  0
   -2.9935    5.9967    0.0000 C   0  0  0  0  0  0  0  0  0  0  0  0
   -1.4937    5.9967    0.0000 N   0  0  0  0  0  0  0  0  0  0  0  0
   -0.7436    4.6976    0.0000 C   0  0  0  0  0  0  0  0  0  0  0  0
   -1.4937    3.3985    0.0000 N   0  0  0  0  0  0  0  0  0  0  0  0
   -2.9935    3.3985    0.0000 C   0  0  0  0  0  0  0  0  0  0  0  0
   -3.7436    2.0995    0.0000 N   0  0  0  0  0  0  0  0  0  0  0  0
   -3.7436    4.6976    0.0000 C   0  0  0  0  0  0  0  0  0  0  0  0
   -5.2437    4.6976    0.0000 C   0  0  0  0  0  0  0  0  0  0  0  0
   -5.9937    5.9967    0.0000 C   0  0  0  0  0  0  0  0  0  0  0  0
   -7.4935    5.9967    0.0000 O   0  0  0  0  0  0  0  0  0  0  0  0
   -8.2436    4.6976    0.0000 C   0  0  0  0  0  0  0  0  0  0  0  0
    0.7565    4.6976    0.0000 N   0  0  0  0  0  0  0  0  0  0  0  0
    1.5065    3.3985    0.0000 C   0  0  0  0  0  0  0  0  0  0  0  0
    1.5065    5.9967    0.0000 C   0  0  0  0  0  0  0  0  0  0  0  0
    3.0064    5.9967    0.0000 C   0  0  0  0  0  0  0  0  0  0  0  0
    3.7564    7.2956    0.0000 C   0  0  0  0  0  0  0  0  0  0  0  0
    5.2565    7.2956    0.0000 N   0  0  0  0  0  0  0  0  0  0  0  0
    6.0063    8.5947    0.0000 C   0  0  0  0  0  0  0  0  0  0  0  0
    5.2565    9.8937    0.0000 O   0  0  0  0  0  0  0  0  0  0  0  0
    7.5064    8.5947    0.0000 C   0  0  0  0  0  0  0  0  0  0  0  0
    8.3882    7.3811    0.0000 C   0  0  0  0  0  0  0  0  0  0  0  0
    9.8147    7.8447    0.0000 C   0  0  0  0  0  0  0  0  0  0  0  0
    9.8147    9.3447    0.0000 C   0  0  0  0  0  0  0  0  0  0  0  0
    8.3882    9.8082    0.0000 O   0  0  0  0  0  0  0  0  0  0  0  0
  1  2  1  0  0  0  0
  2  3  1  0  0  0  0
  4  3  2  0  0  0  0
  3 13  1  0  0  0  0
  5  4  1  0  0  0  0
  6  5  2  0  0  0  0
  5 11  1  0  0  0  0
  7  6  1  0  0  0  0
  8  7  2  0  0  0  0
  7 16  1  0  0  0  0
  9  8  1  0  0  0  0
  9 10  1  0  0  0  0
 11  9  2  0  0  0  0
 12 11  1  0  0  0  0
 13 12  2  0  0  0  0
 13 14  1  0  0  0  0
 14 15  1  0  0  0  0
 16 17  1  0  0  0  0
 16 18  1  0  0  0  0
 18 19  1  0  0  0  0
 19 20  1  0  0  0  0
 20 21  1  0  0  0  0
 21 22  1  0  0  0  0
 22 23  2  0  0  0  0
 22 24  1  0  0  0  0
 25 24  1  0  0  0  0
 24 28  1  0  0  0  0
 26 25  1  0  0  0  0
 27 26  1  0  0  0  0
 28 27  1  0  0  0  0
M  END
> <Inchi_key>
WNMJYKCGWZFFKR-UHFFFAOYSA-N

> <Source>
Mulliner

> <ID>
HT0097

> <H_MFHB>
1

> <CAS>


> <Cholestasis>


> <Name>
alfuzosin hydrochloride;alfuzosin

> <Class>
1

$$$$