

  -INDIGO-08031710012D

 16 17  0  0  0  0  0  0  0  0999 V2000
   10.9112   -0.0374    0.0000 N   0  0  0  0  0  0  0  0  0  0  0  0
    9.4112   -0.0271    0.0000 C   0  0  0  0  0  0  0  0  0  0  0  0
    8.6701    1.2771    0.0000 N   0  0  0  0  0  0  0  0  0  0  0  0
    7.1701    1.2873    0.0000 C   0  0  0  0  0  0  0  0  0  0  0  0
    6.4291    2.5915    0.0000 O   0  0  0  0  0  0  0  0  0  0  0  0
    6.4114   -0.0065    0.0000 N   0  0  0  0  0  0  0  0  0  0  0  0
    7.1523   -1.3107    0.0000 C   0  0  0  0  0  0  0  0  0  0  0  0
    8.6523   -1.3210    0.0000 N   0  0  0  0  0  0  0  0  0  0  0  0
    4.9114    0.0037    0.0000 C   0  0  0  0  0  0  0  0  0  0  0  0
    4.0379    1.2233    0.0000 C   0  0  0  0  0  0  0  0  0  0  0  0
    2.6081    0.7695    0.0000 C   0  0  0  0  0  0  0  0  0  0  0  0
    1.4008    1.6595    0.0000 O   0  0  0  0  0  0  0  0  0  0  0  0
    2.5979   -0.7304    0.0000 C   0  0  0  0  0  0  0  0  0  0  0  0
    1.3784   -1.6038    0.0000 C   0  0  0  0  0  0  0  0  0  0  0  0
    1.5250   -3.0966    0.0000 O   0  0  0  0  0  0  0  0  0  0  0  0
    4.0213   -1.2037    0.0000 O   0  0  0  0  0  0  0  0  0  0  0  0
  1  2  1  0  0  0  0
  3  2  2  0  0  0  0
  2  8  1  0  0  0  0
  4  3  1  0  0  0  0
  4  5  2  0  0  0  0
  6  4  1  0  0  0  0
  7  6  1  0  0  0  0
  6  9  1  0  0  0  0
  8  7  2  0  0  0  0
 10  9  1  0  0  0  0
  9 16  1  0  0  0  0
 11 10  1  0  0  0  0
 11 12  1  0  0  0  0
 13 11  1  0  0  0  0
 13 14  1  0  0  0  0
 16 13  1  0  0  0  0
 14 15  1  0  0  0  0
M  END
> <Inchi_key>
XAUDJQYHKZQPEU-UHFFFAOYSA-N

> <Source>
Mulliner

> <ID>
HT0598

> <H_MFHB>
1

> <CAS>


> <Cholestasis>


> <Name>
decitabine

> <Class>
1


$$$$