

  -INDIGO-08031710012D

 11 11  0  0  0  0  0  0  0  0999 V2000
    2.7955    0.5905    0.0000 C   0  0  0  0  0  0  0  0  0  0  0  0
    3.5456    1.8895    0.0000 C   0  0  0  0  0  0  0  0  0  0  0  0
    5.0455    1.8895    0.0000 O   0  0  0  0  0  0  0  0  0  0  0  0
    2.7955    3.1885    0.0000 N   0  0  0  0  0  0  0  0  0  0  0  0
    1.2955    3.1885    0.0000 C   0  0  0  0  0  0  0  0  0  0  0  0
    0.5455    1.8895    0.0000 C   0  0  0  0  0  0  0  0  0  0  0  0
   -0.9545    1.8895    0.0000 C   0  0  0  0  0  0  0  0  0  0  0  0
   -1.7046    3.1885    0.0000 C   0  0  0  0  0  0  0  0  0  0  0  0
   -3.2045    3.1885    0.0000 O   0  0  0  0  0  0  0  0  0  0  0  0
   -0.9545    4.4876    0.0000 C   0  0  0  0  0  0  0  0  0  0  0  0
    0.5455    4.4876    0.0000 C   0  0  0  0  0  0  0  0  0  0  0  0
  1  2  1  0  0  0  0
  2  3  2  0  0  0  0
  2  4  1  0  0  0  0
  4  5  1  0  0  0  0
  6  5  2  0  0  0  0
  5 11  1  0  0  0  0
  7  6  1  0  0  0  0
  8  7  2  0  0  0  0
  8  9  1  0  0  0  0
 10  8  1  0  0  0  0
 11 10  2  0  0  0  0
M  END
> <Inchi_key>
RZVAJINKPMORJF-UHFFFAOYSA-N

> <Source>
Mulliner

> <ID>
HT0053

> <H_MFHB>
1

> <CAS>
103-90-2

> <Cholestasis>


> <Name>
acetaminophen

> <Class>
1


$$$$