

  -INDIGO-08031710012D

 27 29  0  0  0  0  0  0  0  0999 V2000
   17.2614    4.6252    0.0000 O   0  0  0  0  0  0  0  0  0  0  0  0
   15.9624    3.8753    0.0000 C   0  0  0  0  0  0  0  0  0  0  0  0
   15.9624    2.3752    0.0000 O   0  0  0  0  0  0  0  0  0  0  0  0
   14.6634    4.6252    0.0000 C   0  0  0  0  0  0  0  0  0  0  0  0
   13.3644    3.8753    0.0000 O   0  0  0  0  0  0  0  0  0  0  0  0
   12.0651    4.6252    0.0000 C   0  0  0  0  0  0  0  0  0  0  0  0
   10.7661    3.8753    0.0000 C   0  0  0  0  0  0  0  0  0  0  0  0
    9.4672    4.6252    0.0000 N   0  0  0  0  0  0  0  0  0  0  0  0
    8.1682    3.8753    0.0000 C   0  0  0  0  0  0  0  0  0  0  0  0
    6.8692    4.6252    0.0000 C   0  0  0  0  0  0  0  0  0  0  0  0
    6.8692    6.1252    0.0000 N   0  0  0  0  0  0  0  0  0  0  0  0
    8.1682    6.8753    0.0000 C   0  0  0  0  0  0  0  0  0  0  0  0
    9.4672    6.1252    0.0000 C   0  0  0  0  0  0  0  0  0  0  0  0
    5.5702    6.8753    0.0000 C   0  0  0  0  0  0  0  0  0  0  0  0
    5.5702    8.3752    0.0000 C   0  0  0  0  0  0  0  0  0  0  0  0
    6.8692    9.1252    0.0000 C   0  0  0  0  0  0  0  0  0  0  0  0
    6.8692   10.6252    0.0000 C   0  0  0  0  0  0  0  0  0  0  0  0
    5.5702   11.3752    0.0000 C   0  0  0  0  0  0  0  0  0  0  0  0
    4.2709   10.6252    0.0000 C   0  0  0  0  0  0  0  0  0  0  0  0
    4.2709    9.1252    0.0000 C   0  0  0  0  0  0  0  0  0  0  0  0
    4.2709    6.1252    0.0000 C   0  0  0  0  0  0  0  0  0  0  0  0
    2.9719    6.8753    0.0000 C   0  0  0  0  0  0  0  0  0  0  0  0
    1.6729    6.1252    0.0000 C   0  0  0  0  0  0  0  0  0  0  0  0
    1.6729    4.6252    0.0000 C   0  0  0  0  0  0  0  0  0  0  0  0
    0.3739    3.8753    0.0000 Cl  0  0  0  0  0  0  0  0  0  0  0  0
    2.9719    3.8753    0.0000 C   0  0  0  0  0  0  0  0  0  0  0  0
    4.2709    4.6252    0.0000 C   0  0  0  0  0  0  0  0  0  0  0  0
  1  2  1  0  0  0  0
  2  3  2  0  0  0  0
  2  4  1  0  0  0  0
  4  5  1  0  0  0  0
  5  6  1  0  0  0  0
  6  7  1  0  0  0  0
  7  8  1  0  0  0  0
  9  8  1  0  0  0  0
  8 13  1  0  0  0  0
 10  9  1  0  0  0  0
 11 10  1  0  0  0  0
 12 11  1  0  0  0  0
 11 14  1  0  0  0  0
 13 12  1  0  0  0  0
 14 15  1  0  0  0  0
 14 21  1  0  0  0  0
 16 15  2  0  0  0  0
 15 20  1  0  0  0  0
 17 16  1  0  0  0  0
 18 17  2  0  0  0  0
 19 18  1  0  0  0  0
 20 19  2  0  0  0  0
 22 21  2  0  0  0  0
 21 27  1  0  0  0  0
 23 22  1  0  0  0  0
 24 23  2  0  0  0  0
 24 25  1  0  0  0  0
 26 24  1  0  0  0  0
 27 26  2  0  0  0  0
M  END
> <Inchi_key>
ZKLPARSLTMPFCP-UHFFFAOYSA-N

> <Source>
Mulliner , Kotsampasakou

> <ID>
EK0114;HT0439

> <H_MFHB>
1

> <CAS>
83881-51-0

> <Cholestasis>
1

> <Name>
cetirizine hydrochloride;levocetirizine;levocetirizine dihydrochloride;cetirizine

> <Class>
1


$$$$