

  -INDIGO-08031710012D

 22 24  0  0  0  0  0  0  0  0999 V2000
    3.3461    7.3614    0.0000 O   0  0  0  0  0  0  0  0  0  0  0  0
    1.8655    7.6013    0.0000 C   0  0  0  0  0  0  0  0  0  0  0  0
    1.3330    9.0036    0.0000 O   0  0  0  0  0  0  0  0  0  0  0  0
    0.9175    6.4390    0.0000 C   0  0  0  0  0  0  0  0  0  0  0  0
    1.4499    5.0367    0.0000 C   0  0  0  0  0  0  0  0  0  0  0  0
    2.8975    4.6433    0.0000 C   0  0  0  0  0  0  0  0  0  0  0  0
    2.9708    3.1452    0.0000 N   0  0  0  0  0  0  0  0  0  0  0  0
    1.5684    2.6125    0.0000 N   0  0  0  0  0  0  0  0  0  0  0  0
    0.6286    3.7816    0.0000 C   0  0  0  0  0  0  0  0  0  0  0  0
   -0.8697    3.7084    0.0000 C   0  0  0  0  0  0  0  0  0  0  0  0
   -1.5554    2.3743    0.0000 C   0  0  0  0  0  0  0  0  0  0  0  0
   -3.0535    2.3012    0.0000 C   0  0  0  0  0  0  0  0  0  0  0  0
   -3.8662    3.5620    0.0000 C   0  0  0  0  0  0  0  0  0  0  0  0
   -5.3643    3.4889    0.0000 Cl  0  0  0  0  0  0  0  0  0  0  0  0
   -3.1803    4.8961    0.0000 C   0  0  0  0  0  0  0  0  0  0  0  0
   -1.6820    4.9693    0.0000 C   0  0  0  0  0  0  0  0  0  0  0  0
    4.2257    2.3236    0.0000 C   0  0  0  0  0  0  0  0  0  0  0  0
    4.1418    0.8260    0.0000 C   0  0  0  0  0  0  0  0  0  0  0  0
    5.3970    0.0046    0.0000 C   0  0  0  0  0  0  0  0  0  0  0  0
    6.7360    0.6807    0.0000 C   0  0  0  0  0  0  0  0  0  0  0  0
    6.8198    2.1784    0.0000 C   0  0  0  0  0  0  0  0  0  0  0  0
    5.5647    2.9999    0.0000 C   0  0  0  0  0  0  0  0  0  0  0  0
  1  2  1  0  0  0  0
  2  3  2  0  0  0  0
  2  4  1  0  0  0  0
  4  5  1  0  0  0  0
  6  5  2  0  0  0  0
  5  9  1  0  0  0  0
  7  6  1  0  0  0  0
  8  7  1  0  0  0  0
  7 17  1  0  0  0  0
  9  8  2  0  0  0  0
  9 10  1  0  0  0  0
 11 10  2  0  0  0  0
 10 16  1  0  0  0  0
 12 11  1  0  0  0  0
 13 12  2  0  0  0  0
 13 14  1  0  0  0  0
 15 13  1  0  0  0  0
 16 15  2  0  0  0  0
 18 17  2  0  0  0  0
 17 22  1  0  0  0  0
 19 18  1  0  0  0  0
 20 19  2  0  0  0  0
 21 20  1  0  0  0  0
 22 21  2  0  0  0  0
M  END
> <Inchi_key>
XVUQHFRQHBLHQD-UHFFFAOYSA-N

> <Source>
Mulliner

> <ID>
HT1231

> <H_MFHB>
1

> <CAS>


> <Cholestasis>


> <Name>
lonazolac

> <Class>
1


$$$$