
  -INDIGO-08031710012D

 19 20  0  0  0  0  0  0  0  0999 V2000
   -2.0106   -1.4607    0.0000 C   0  0  0  0  0  0  0  0  0  0  0  0
   -2.4741   -2.8873    0.0000 C   0  0  0  0  0  0  0  0  0  0  0  0
   -3.9006   -3.3508    0.0000 O   0  0  0  0  0  0  0  0  0  0  0  0
   -3.9006   -4.8508    0.0000 N   0  0  0  0  0  0  0  0  0  0  0  0
   -2.4741   -5.3144    0.0000 C   0  0  0  0  0  0  0  0  0  0  0  0
   -1.5924   -4.1008    0.0000 C   0  0  0  0  0  0  0  0  0  0  0  0
   -0.0924   -4.1008    0.0000 C   0  0  0  0  0  0  0  0  0  0  0  0
    0.6575   -2.8018    0.0000 O   0  0  0  0  0  0  0  0  0  0  0  0
    0.6575   -5.3999    0.0000 N   0  0  0  0  0  0  0  0  0  0  0  0
    2.1577   -5.3999    0.0000 C   0  0  0  0  0  0  0  0  0  0  0  0
    2.9076   -6.6989    0.0000 C   0  0  0  0  0  0  0  0  0  0  0  0
    4.4076   -6.6989    0.0000 C   0  0  0  0  0  0  0  0  0  0  0  0
    5.1575   -5.3999    0.0000 C   0  0  0  0  0  0  0  0  0  0  0  0
    4.4076   -4.1008    0.0000 C   0  0  0  0  0  0  0  0  0  0  0  0
    2.9076   -4.1008    0.0000 C   0  0  0  0  0  0  0  0  0  0  0  0
    6.6577   -5.3999    0.0000 C   0  0  0  0  0  0  0  0  0  0  0  0
    8.1576   -5.3999    0.0000 F   0  0  0  0  0  0  0  0  0  0  0  0
    6.6577   -6.8999    0.0000 F   0  0  0  0  0  0  0  0  0  0  0  0
    6.6577   -3.8999    0.0000 F   0  0  0  0  0  0  0  0  0  0  0  0
  1  2  1  0  0  0  0
  3  2  1  0  0  0  0
  2  6  2  0  0  0  0
  4  3  1  0  0  0  0
  5  4  2  0  0  0  0
  6  5  1  0  0  0  0
  6  7  1  0  0  0  0
  7  8  2  0  0  0  0
  7  9  1  0  0  0  0
  9 10  1  0  0  0  0
 11 10  2  0  0  0  0
 10 15  1  0  0  0  0
 12 11  1  0  0  0  0
 13 12  2  0  0  0  0
 14 13  1  0  0  0  0
 13 16  1  0  0  0  0
 15 14  2  0  0  0  0
 16 17  1  0  0  0  0
 16 18  1  0  0  0  0
 16 19  1  0  0  0  0
M  END
> <Inchi_key>
VHOGYURTWQBHIL-UHFFFAOYSA-N

> <Source>
Mulliner , Kotsampasakou

> <ID>
EK0297;HT1182

> <H_MFHB>
1

> <CAS>
75706-12-6

> <Cholestasis>
1

> <Name>
leflunomide

> <Class>
1

$$$$