
  -INDIGO-08031710012D

 18 19  0  0  0  0  0  0  0  0999 V2000
    7.6250    4.4023    0.0000 C   0  0  0  0  0  0  0  0  0  0  0  0
    6.8750    3.1033    0.0000 C   0  0  0  0  0  0  0  0  0  0  0  0
    7.6250    1.8042    0.0000 C   0  0  0  0  0  0  0  0  0  0  0  0
    6.8750    0.5052    0.0000 O   0  0  0  0  0  0  0  0  0  0  0  0
    9.1250    1.8042    0.0000 O   0  0  0  0  0  0  0  0  0  0  0  0
    5.3750    3.1033    0.0000 C   0  0  0  0  0  0  0  0  0  0  0  0
    4.6250    1.8042    0.0000 C   0  0  0  0  0  0  0  0  0  0  0  0
    3.1250    1.8042    0.0000 C   0  0  0  0  0  0  0  0  0  0  0  0
    2.3750    3.1033    0.0000 C   0  0  0  0  0  0  0  0  0  0  0  0
    3.1250    4.4023    0.0000 C   0  0  0  0  0  0  0  0  0  0  0  0
    2.3750    5.7013    0.0000 F   0  0  0  0  0  0  0  0  0  0  0  0
    4.6250    4.4023    0.0000 C   0  0  0  0  0  0  0  0  0  0  0  0
    0.8750    3.1033    0.0000 C   0  0  0  0  0  0  0  0  0  0  0  0
    0.1250    1.8042    0.0000 C   0  0  0  0  0  0  0  0  0  0  0  0
   -1.3750    1.8042    0.0000 C   0  0  0  0  0  0  0  0  0  0  0  0
   -2.1250    3.1033    0.0000 C   0  0  0  0  0  0  0  0  0  0  0  0
   -1.3750    4.4023    0.0000 C   0  0  0  0  0  0  0  0  0  0  0  0
    0.1250    4.4023    0.0000 C   0  0  0  0  0  0  0  0  0  0  0  0
  1  2  1  0  0  0  0
  2  3  1  0  0  0  0
  2  6  1  0  0  0  0
  3  4  2  0  0  0  0
  3  5  1  0  0  0  0
  7  6  2  0  0  0  0
  6 12  1  0  0  0  0
  8  7  1  0  0  0  0
  9  8  2  0  0  0  0
 10  9  1  0  0  0  0
  9 13  1  0  0  0  0
 10 11  1  0  0  0  0
 12 10  2  0  0  0  0
 14 13  2  0  0  0  0
 13 18  1  0  0  0  0
 15 14  1  0  0  0  0
 16 15  2  0  0  0  0
 17 16  1  0  0  0  0
 18 17  2  0  0  0  0
M  END
> <Inchi_key>
SYTBZMRGLBWNTM-UHFFFAOYSA-N

> <Source>
Mulliner

> <ID>
HT0920

> <H_MFHB>
1

> <CAS>


> <Cholestasis>


> <Name>
flurbiprofen;flurbiprofen sodium

> <Class>
1

$$$$