

  -INDIGO-08031710012D

 10 11  0  0  0  0  0  0  0  0999 V2000
    6.6736    3.8530    0.0000 N   0  0  0  0  0  0  0  0  0  0  0  0
    5.9236    2.5539    0.0000 C   0  0  0  0  0  0  0  0  0  0  0  0
    5.9236    1.0539    0.0000 C   0  0  0  0  0  0  0  0  0  0  0  0
    4.6245    1.8039    0.0000 C   0  0  0  0  0  0  0  0  0  0  0  0
    3.1245    1.8039    0.0000 C   0  0  0  0  0  0  0  0  0  0  0  0
    2.3745    3.1030    0.0000 C   0  0  0  0  0  0  0  0  0  0  0  0
    0.8745    3.1030    0.0000 C   0  0  0  0  0  0  0  0  0  0  0  0
    0.1245    1.8039    0.0000 C   0  0  0  0  0  0  0  0  0  0  0  0
    0.8745    0.5049    0.0000 C   0  0  0  0  0  0  0  0  0  0  0  0
    2.3745    0.5049    0.0000 C   0  0  0  0  0  0  0  0  0  0  0  0
  1  2  1  0  0  0  0
  3  2  1  0  0  0  0
  2  4  1  0  0  0  0
  4  3  1  0  0  0  0
  4  5  1  0  0  0  0
  6  5  2  0  0  0  0
  5 10  1  0  0  0  0
  7  6  1  0  0  0  0
  8  7  2  0  0  0  0
  9  8  1  0  0  0  0
 10  9  2  0  0  0  0
M  END
> <Inchi_key>
AELCINSCMGFISI-UHFFFAOYSA-N

> <Source>
Mulliner

> <ID>
HT2100

> <H_MFHB>
1

> <CAS>


> <Cholestasis>


> <Name>
tranylcypromine sulfate;tranylcypromine

> <Class>
1


$$$$