
  -INDIGO-08031710012D

 30 33  0  0  0  0  0  0  0  0999 V2000
   -0.7509    7.4704    0.0000 C   0  0  0  0  0  0  0  0  0  0  0  0
   -1.6115    6.2419    0.0000 C   0  0  0  0  0  0  0  0  0  0  0  0
   -3.1113    6.2162    0.0000 O   0  0  0  0  0  0  0  0  0  0  0  0
   -3.5502    4.7818    0.0000 N   0  0  0  0  0  0  0  0  0  0  0  0
   -2.3217    3.9211    0.0000 C   0  0  0  0  0  0  0  0  0  0  0  0
   -1.1234    4.8235    0.0000 C   0  0  0  0  0  0  0  0  0  0  0  0
    0.3109    4.3846    0.0000 C   0  0  0  0  0  0  0  0  0  0  0  0
    0.6477    2.9229    0.0000 O   0  0  0  0  0  0  0  0  0  0  0  0
    1.4081    5.4073    0.0000 N   0  0  0  0  0  0  0  0  0  0  0  0
    2.8425    4.9683    0.0000 C   0  0  0  0  0  0  0  0  0  0  0  0
    4.1672    5.6722    0.0000 C   0  0  0  0  0  0  0  0  0  0  0  0
    5.2094    6.7510    0.0000 S   0  0  0  0  0  0  0  0  0  0  0  0
    6.5574    6.0930    0.0000 C   0  0  0  0  0  0  0  0  0  0  0  0
    7.3021    7.3951    0.0000 C   0  0  0  0  0  0  0  0  0  0  0  0
    8.0562    6.0337    0.0000 C   0  0  0  0  0  0  0  0  0  0  0  0
    6.3482    4.6076    0.0000 C   0  0  0  0  0  0  0  0  0  0  0  0
    4.8709    4.3476    0.0000 N   0  0  0  0  0  0  0  0  0  0  0  0
    3.5464    3.6436    0.0000 C   0  0  0  0  0  0  0  0  0  0  0  0
    3.1075    2.2094    0.0000 O   0  0  0  0  0  0  0  0  0  0  0  0
    7.4268    3.5653    0.0000 C   0  0  0  0  0  0  0  0  0  0  0  0
    8.8689    3.9784    0.0000 O   0  0  0  0  0  0  0  0  0  0  0  0
    7.0635    2.1099    0.0000 O   0  0  0  0  0  0  0  0  0  0  0  0
   -2.2961    2.4213    0.0000 C   0  0  0  0  0  0  0  0  0  0  0  0
   -0.9842    1.6939    0.0000 C   0  0  0  0  0  0  0  0  0  0  0  0
    0.3016    2.4660    0.0000 Cl  0  0  0  0  0  0  0  0  0  0  0  0
   -0.9586    0.1941    0.0000 C   0  0  0  0  0  0  0  0  0  0  0  0
   -2.2444   -0.5782    0.0000 C   0  0  0  0  0  0  0  0  0  0  0  0
   -3.5561    0.1493    0.0000 C   0  0  0  0  0  0  0  0  0  0  0  0
   -3.5819    1.6492    0.0000 C   0  0  0  0  0  0  0  0  0  0  0  0
   -4.8936    2.3767    0.0000 Cl  0  0  0  0  0  0  0  0  0  0  0  0
  1  2  1  0  0  0  0
  3  2  1  0  0  0  0
  2  6  2  0  0  0  0
  4  3  1  0  0  0  0
  5  4  2  0  0  0  0
  6  5  1  0  0  0  0
  5 23  1  0  0  0  0
  6  7  1  0  0  0  0
  7  8  2  0  0  0  0
  7  9  1  0  0  0  0
  9 10  1  0  0  0  0
 11 10  1  0  0  0  0
 10 18  1  0  0  0  0
 12 11  1  0  0  0  0
 11 17  1  0  0  0  0
 13 12  1  0  0  0  0
 13 14  1  0  0  0  0
 13 15  1  0  0  0  0
 16 13  1  0  0  0  0
 17 16  1  0  0  0  0
 16 20  1  0  0  0  0
 18 17  1  0  0  0  0
 18 19  2  0  0  0  0
 20 21  2  0  0  0  0
 20 22  1  0  0  0  0
 24 23  2  0  0  0  0
 23 29  1  0  0  0  0
 24 25  1  0  0  0  0
 26 24  1  0  0  0  0
 27 26  2  0  0  0  0
 28 27  1  0  0  0  0
 29 28  2  0  0  0  0
 29 30  1  0  0  0  0
M  END
> <Inchi_key>
YFAGHNZHGGCZAX-UHFFFAOYSA-N

> <Source>
Mulliner

> <ID>
HT0649

> <H_MFHB>
1

> <CAS>


> <Cholestasis>


> <Name>
dicloxacillin sodium;dicloxacillin

> <Class>
1

$$$$