

  -INDIGO-08031710012D

 51 53  0  0  0  0  0  0  0  0999 V2000
    5.0203   -1.7029    0.0000 C   0  0  0  0  0  0  0  0  0  0  0  0
    3.8298   -0.7903    0.0000 C   0  0  0  0  0  0  0  0  0  0  0  0
    4.0250    0.6970    0.0000 C   0  0  0  0  0  0  0  0  0  0  0  0
    5.3647    1.1498    0.0000 O   0  0  0  0  0  0  0  0  0  0  0  0
    6.0757    2.3180    0.0000 C   0  0  0  0  0  0  0  0  0  0  0  0
    7.5076    1.8715    0.0000 O   0  0  0  0  0  0  0  0  0  0  0  0
    6.1530    3.6498    0.0000 C   0  0  0  0  0  0  0  0  0  0  0  0
    7.6279    3.9238    0.0000 C   0  0  0  0  0  0  0  0  0  0  0  0
    5.5892    4.8940    0.0000 C   0  0  0  0  0  0  0  0  0  0  0  0
    6.6643    5.9403    0.0000 O   0  0  0  0  0  0  0  0  0  0  0  0
    8.1076    5.5325    0.0000 C   0  0  0  0  0  0  0  0  0  0  0  0
    9.1827    6.5787    0.0000 C   0  0  0  0  0  0  0  0  0  0  0  0
   10.6260    6.1709    0.0000 C   0  0  0  0  0  0  0  0  0  0  0  0
   11.0339    7.6145    0.0000 C   0  0  0  0  0  0  0  0  0  0  0  0
   12.0800    6.5395    0.0000 O   0  0  0  0  0  0  0  0  0  0  0  0
   12.4879    7.9831    0.0000 C   0  0  0  0  0  0  0  0  0  0  0  0
   10.9946    4.7168    0.0000 C   0  0  0  0  0  0  0  0  0  0  0  0
   12.4382    4.3090    0.0000 O   0  0  0  0  0  0  0  0  0  0  0  0
    9.9198    3.6706    0.0000 C   0  0  0  0  0  0  0  0  0  0  0  0
   10.2884    2.2166    0.0000 C   0  0  0  0  0  0  0  0  0  0  0  0
    8.4763    4.0784    0.0000 O   0  0  0  0  0  0  0  0  0  0  0  0
    4.3181    5.5121    0.0000 C   0  0  0  0  0  0  0  0  0  0  0  0
    4.3122    7.0120    0.0000 C   0  0  0  0  0  0  0  0  0  0  0  0
    2.9795    4.8482    0.0000 C   0  0  0  0  0  0  0  0  0  0  0  0
    3.5805    6.2227    0.0000 O   0  0  0  0  0  0  0  0  0  0  0  0
    3.0338    7.6193    0.0000 C   0  0  0  0  0  0  0  0  0  0  0  0
    1.5342    7.5835    0.0000 O   0  0  0  0  0  0  0  0  0  0  0  0
    0.7533    8.8640    0.0000 C   0  0  0  0  0  0  0  0  0  0  0  0
   -0.7463    8.8282    0.0000 C   0  0  0  0  0  0  0  0  0  0  0  0
    1.4720   10.1807    0.0000 C   0  0  0  0  0  0  0  0  0  0  0  0
    2.9716   10.2166    0.0000 C   0  0  0  0  0  0  0  0  0  0  0  0
    3.7525    8.9360    0.0000 C   0  0  0  0  0  0  0  0  0  0  0  0
    5.2521    8.9721    0.0000 O   0  0  0  0  0  0  0  0  0  0  0  0
    3.6901   11.5333    0.0000 N   0  0  0  0  0  0  0  0  0  0  0  0
    2.9092   12.8141    0.0000 C   0  0  0  0  0  0  0  0  0  0  0  0
    5.1897   11.5694    0.0000 C   0  0  0  0  0  0  0  0  0  0  0  0
    1.7355    5.6756    0.0000 C   0  0  0  0  0  0  0  0  0  0  0  0
    2.9672    6.5317    0.0000 C   0  0  0  0  0  0  0  0  0  0  0  0
    0.9327    6.9428    0.0000 O   0  0  0  0  0  0  0  0  0  0  0  0
    0.3958    5.2228    0.0000 C   0  0  0  0  0  0  0  0  0  0  0  0
   -0.3152    4.0545    0.0000 C   0  0  0  0  0  0  0  0  0  0  0  0
   -1.7471    4.5013    0.0000 C   0  0  0  0  0  0  0  0  0  0  0  0
   -0.3928    2.7228    0.0000 C   0  0  0  0  0  0  0  0  0  0  0  0
   -1.8674    2.4487    0.0000 O   0  0  0  0  0  0  0  0  0  0  0  0
    0.1711    1.4785    0.0000 C   0  0  0  0  0  0  0  0  0  0  0  0
   -0.9038    0.4323    0.0000 C   0  0  0  0  0  0  0  0  0  0  0  0
    1.4424    0.8605    0.0000 C   0  0  0  0  0  0  0  0  0  0  0  0
    1.4483   -0.6394    0.0000 O   0  0  0  0  0  0  0  0  0  0  0  0
    2.7810    1.5244    0.0000 C   0  0  0  0  0  0  0  0  0  0  0  0
    2.0761    2.8484    0.0000 C   0  0  0  0  0  0  0  0  0  0  0  0
    3.5507    2.8118    0.0000 O   0  0  0  0  0  0  0  0  0  0  0  0
  1  2  1  0  0  0  0
  2  3  1  0  0  0  0
  4  3  1  0  0  0  0
  3 49  1  0  0  0  0
  5  4  1  0  0  0  0
  5  6  2  0  0  0  0
  7  5  1  0  0  0  0
  7  8  1  0  0  0  0
  9  7  1  0  0  0  0
  9 10  1  0  0  0  0
 22  9  1  0  0  0  0
 10 11  1  0  0  0  0
 12 11  1  0  0  0  0
 11 21  1  0  0  0  0
 13 12  1  0  0  0  0
 13 14  1  0  0  0  0
 13 15  1  0  0  0  0
 17 13  1  0  0  0  0
 15 16  1  0  0  0  0
 17 18  1  0  0  0  0
 19 17  1  0  0  0  0
 19 20  1  0  0  0  0
 21 19  1  0  0  0  0
 22 23  1  0  0  0  0
 24 22  1  0  0  0  0
 24 25  1  0  0  0  0
 37 24  1  0  0  0  0
 25 26  1  0  0  0  0
 27 26  1  0  0  0  0
 26 32  1  0  0  0  0
 28 27  1  0  0  0  0
 28 29  1  0  0  0  0
 30 28  1  0  0  0  0
 31 30  1  0  0  0  0
 32 31  1  0  0  0  0
 31 34  1  0  0  0  0
 32 33  1  0  0  0  0
 34 35  1  0  0  0  0
 34 36  1  0  0  0  0
 37 38  1  0  0  0  0
 37 39  1  0  0  0  0
 40 37  1  0  0  0  0
 41 40  1  0  0  0  0
 41 42  1  0  0  0  0
 43 41  1  0  0  0  0
 43 44  2  0  0  0  0
 45 43  1  0  0  0  0
 45 46  1  0  0  0  0
 47 45  1  0  0  0  0
 47 48  1  0  0  0  0
 49 47  1  0  0  0  0
 49 50  1  0  0  0  0
 49 51  1  0  0  0  0
M  END
> <Inchi_key>
ULGZDMOVFRHVEP-UHFFFAOYSA-N

> <Source>
Mulliner , Kotsampasakou

> <ID>
EK0194;HT0785

> <H_MFHB>
1

> <CAS>


> <Cholestasis>
1

> <Name>
erythromycin;erythromycin estolate;erythromycin gluceptate;erythromycin lactobionate;erythromycin stearate

> <Class>
1


$$$$