
  -INDIGO-08031710012D

 54 60  0  0  0  0  0  0  0  0999 V2000
   13.4423    3.6020    0.0000 C   0  0  0  0  0  0  0  0  0  0  0  0
   14.7413    4.3520    0.0000 C   0  0  0  0  0  0  0  0  0  0  0  0
   14.7413    5.8519    0.0000 N   0  0  0  0  0  0  0  0  0  0  0  0
   13.4423    6.6019    0.0000 C   0  0  0  0  0  0  0  0  0  0  0  0
   12.1433    5.8519    0.0000 C   0  0  0  0  0  0  0  0  0  0  0  0
   12.1433    4.3520    0.0000 N   0  0  0  0  0  0  0  0  0  0  0  0
   10.8444    3.6020    0.0000 C   0  0  0  0  0  0  0  0  0  0  0  0
    9.5454    4.3520    0.0000 C   0  0  0  0  0  0  0  0  0  0  0  0
    8.2464    3.6020    0.0000 O   0  0  0  0  0  0  0  0  0  0  0  0
    6.9470    4.3520    0.0000 C   0  0  0  0  0  0  0  0  0  0  0  0
    5.6480    3.6020    0.0000 C   0  0  0  0  0  0  0  0  0  0  0  0
    4.3490    4.3520    0.0000 O   0  0  0  0  0  0  0  0  0  0  0  0
    3.0501    3.6020    0.0000 C   0  0  0  0  0  0  0  0  0  0  0  0
    3.0501    2.1019    0.0000 O   0  0  0  0  0  0  0  0  0  0  0  0
    1.7511    4.3520    0.0000 C   0  0  0  0  0  0  0  0  0  0  0  0
    1.7511    5.8519    0.0000 C   0  0  0  0  0  0  0  0  0  0  0  0
    0.4521    6.6019    0.0000 C   0  0  0  0  0  0  0  0  0  0  0  0
    0.4521    8.1020    0.0000 C   0  0  0  0  0  0  0  0  0  0  0  0
   -0.8473    8.8520    0.0000 C   0  0  0  0  0  0  0  0  0  0  0  0
   -2.1463    8.1020    0.0000 C   0  0  0  0  0  0  0  0  0  0  0  0
   -2.1463    6.6019    0.0000 C   0  0  0  0  0  0  0  0  0  0  0  0
   -0.8473    5.8519    0.0000 C   0  0  0  0  0  0  0  0  0  0  0  0
   -0.8473    4.3520    0.0000 C   0  0  0  0  0  0  0  0  0  0  0  0
    0.4521    3.6020    0.0000 C   0  0  0  0  0  0  0  0  0  0  0  0
    0.4521    2.1019    0.0000 O   0  0  0  0  0  0  0  0  0  0  0  0
   -2.2566    3.8389    0.0000 C   0  0  0  0  0  0  0  0  0  0  0  0
   -2.5170    2.3615    0.0000 C   0  0  0  0  0  0  0  0  0  0  0  0
   -1.7673    1.0626    0.0000 C   0  0  0  0  0  0  0  0  0  0  0  0
   -2.5170   -0.2365    0.0000 C   0  0  0  0  0  0  0  0  0  0  0  0
   -4.0169   -0.2365    0.0000 C   0  0  0  0  0  0  0  0  0  0  0  0
   -4.7671    1.0626    0.0000 C   0  0  0  0  0  0  0  0  0  0  0  0
   -6.2669    1.0626    0.0000 C   0  0  0  0  0  0  0  0  0  0  0  0
   -7.0171    2.3615    0.0000 C   0  0  0  0  0  0  0  0  0  0  0  0
   -6.2669    3.6606    0.0000 C   0  0  0  0  0  0  0  0  0  0  0  0
   -4.7671    3.6606    0.0000 C   0  0  0  0  0  0  0  0  0  0  0  0
   -4.0169    2.3615    0.0000 C   0  0  0  0  0  0  0  0  0  0  0  0
   -1.7673   -1.5356    0.0000 C   0  0  0  0  0  0  0  0  0  0  0  0
   -0.2670   -1.5356    0.0000 O   0  0  0  0  0  0  0  0  0  0  0  0
   -2.5170   -2.8345    0.0000 O   0  0  0  0  0  0  0  0  0  0  0  0
   -0.3575    0.5497    0.0000 O   0  0  0  0  0  0  0  0  0  0  0  0
   16.0403    6.6019    0.0000 C   0  0  0  0  0  0  0  0  0  0  0  0
   16.0403    8.1020    0.0000 C   0  0  0  0  0  0  0  0  0  0  0  0
   14.7413    8.8520    0.0000 C   0  0  0  0  0  0  0  0  0  0  0  0
   14.7413   10.3519    0.0000 C   0  0  0  0  0  0  0  0  0  0  0  0
   16.0403   11.1019    0.0000 C   0  0  0  0  0  0  0  0  0  0  0  0
   17.3397   10.3519    0.0000 C   0  0  0  0  0  0  0  0  0  0  0  0
   17.3397    8.8520    0.0000 C   0  0  0  0  0  0  0  0  0  0  0  0
   17.3397    5.8519    0.0000 C   0  0  0  0  0  0  0  0  0  0  0  0
   18.6386    6.6019    0.0000 C   0  0  0  0  0  0  0  0  0  0  0  0
   19.9376    5.8519    0.0000 C   0  0  0  0  0  0  0  0  0  0  0  0
   19.9376    4.3520    0.0000 C   0  0  0  0  0  0  0  0  0  0  0  0
   18.6386    3.6020    0.0000 C   0  0  0  0  0  0  0  0  0  0  0  0
   17.3397    4.3520    0.0000 C   0  0  0  0  0  0  0  0  0  0  0  0
   21.2366    3.6020    0.0000 Cl  0  0  0  0  0  0  0  0  0  0  0  0
  2  1  1  0  0  0  0
  1  6  1  0  0  0  0
  3  2  1  0  0  0  0
  4  3  1  0  0  0  0
  3 41  1  0  0  0  0
  5  4  1  0  0  0  0
  6  5  1  0  0  0  0
  6  7  1  0  0  0  0
  7  8  1  0  0  0  0
  8  9  1  0  0  0  0
  9 10  1  0  0  0  0
 10 11  1  0  0  0  0
 11 12  1  0  0  0  0
 12 13  1  0  0  0  0
 13 14  2  0  0  0  0
 13 15  1  0  0  0  0
 16 15  2  0  0  0  0
 15 24  1  0  0  0  0
 17 16  1  0  0  0  0
 18 17  2  0  0  0  0
 17 22  1  0  0  0  0
 19 18  1  0  0  0  0
 20 19  2  0  0  0  0
 21 20  1  0  0  0  0
 22 21  2  0  0  0  0
 23 22  1  0  0  0  0
 24 23  2  0  0  0  0
 23 26  1  0  0  0  0
 24 25  1  0  0  0  0
 26 27  1  0  0  0  0
 28 27  2  0  0  0  0
 27 36  1  0  0  0  0
 29 28  1  0  0  0  0
 28 40  1  0  0  0  0
 30 29  2  0  0  0  0
 29 37  1  0  0  0  0
 31 30  1  0  0  0  0
 32 31  1  0  0  0  0
 31 36  2  0  0  0  0
 33 32  2  0  0  0  0
 34 33  1  0  0  0  0
 35 34  2  0  0  0  0
 36 35  1  0  0  0  0
 37 38  2  0  0  0  0
 37 39  1  0  0  0  0
 41 42  1  0  0  0  0
 41 48  1  0  0  0  0
 43 42  2  0  0  0  0
 42 47  1  0  0  0  0
 44 43  1  0  0  0  0
 45 44  2  0  0  0  0
 46 45  1  0  0  0  0
 47 46  2  0  0  0  0
 49 48  2  0  0  0  0
 48 53  1  0  0  0  0
 50 49  1  0  0  0  0
 51 50  2  0  0  0  0
 52 51  1  0  0  0  0
 51 54  1  0  0  0  0
 53 52  2  0  0  0  0
M  END
> <Inchi_key>
YENRTVJWRCAGEM-UHFFFAOYSA-N

> <Source>
Mulliner

> <ID>
HT0006

> <H_MFHB>
1

> <CAS>


> <Cholestasis>


> <Name>
hydroxyzine pamoate

> <Class>
1

$$$$