
  -INDIGO-08031710012D

 21 25  0  0  0  0  0  0  0  0999 V2000
    0.9070   -1.7967    0.0000 C   0  0  0  0  0  0  0  0  0  0  0  0
    2.2826   -1.1984    0.0000 N   0  0  0  0  0  0  0  0  0  0  0  0
    3.7214   -1.1806    0.0000 C   0  0  0  0  0  0  0  0  0  0  0  0
    4.9027    0.6183    0.0000 C   0  0  0  0  0  0  0  0  0  0  0  0
    4.5018    2.0190    0.0000 C   0  0  0  0  0  0  0  0  0  0  0  0
    4.4892    3.4454    0.0000 C   0  0  0  0  0  0  0  0  0  0  0  0
    6.2450    3.6830    0.0000 O   0  0  0  0  0  0  0  0  0  0  0  0
    6.9854    2.0514    0.0000 C   0  0  0  0  0  0  0  0  0  0  0  0
    8.2358    1.3459    0.0000 C   0  0  0  0  0  0  0  0  0  0  0  0
    9.5261    2.1108    0.0000 O   0  0  0  0  0  0  0  0  0  0  0  0
    8.2535   -0.0863    0.0000 C   0  0  0  0  0  0  0  0  0  0  0  0
    7.0196   -0.8133    0.0000 C   0  0  0  0  0  0  0  0  0  0  0  0
    5.7768   -0.1161    0.0000 C   0  0  0  0  0  0  0  0  0  0  0  0
    4.5372   -0.8494    0.0000 C   0  0  0  0  0  0  0  0  0  0  0  0
    3.2809   -0.1533    0.0000 C   0  0  0  0  0  0  0  0  0  0  0  0
    3.2657    1.2906    0.0000 C   0  0  0  0  0  0  0  0  0  0  0  0
    2.0172    1.9880    0.0000 C   0  0  0  0  0  0  0  0  0  0  0  0
    2.0069    3.4244    0.0000 C   0  0  0  0  0  0  0  0  0  0  0  0
    3.2432    4.1528    0.0000 C   0  0  0  0  0  0  0  0  0  0  0  0
    3.2312    5.6528    0.0000 O   0  0  0  0  0  0  0  0  0  0  0  0
    5.7591    1.3161    0.0000 C   0  0  0  0  0  0  0  0  0  0  0  0
  1  2  1  0  0  0  0
  3  2  1  0  0  0  0
  2 15  1  0  0  0  0
  4  3  1  0  0  0  0
  5  4  1  0  0  0  0
  5  6  1  0  0  0  0
  5 16  1  0  0  0  0
 21  5  1  0  0  0  0
  6  7  1  0  0  0  0
 19  6  1  0  0  0  0
  7  8  1  0  0  0  0
  9  8  1  0  0  0  0
  8 21  2  0  0  0  0
  9 10  1  0  0  0  0
 11  9  2  0  0  0  0
 12 11  1  0  0  0  0
 13 12  2  0  0  0  0
 13 14  1  0  0  0  0
 21 13  1  0  0  0  0
 14 15  1  0  0  0  0
 15 16  1  0  0  0  0
 16 17  1  0  0  0  0
 17 18  2  0  0  0  0
 18 19  1  0  0  0  0
 19 20  1  0  0  0  0
M  END
> <Inchi_key>
BQJCRHHNABKAKU-UHFFFAOYSA-N

> <Source>
Mulliner

> <ID>
HT1436

> <H_MFHB>
1

> <CAS>


> <Cholestasis>


> <Name>
morphine sulfate;morphine

> <Class>
1

$$$$