
  -INDIGO-08031710012D

 38 41  0  0  0  0  0  0  0  0999 V2000
    9.3964   -6.4034    0.0000 C   0  0  0  0  0  0  0  0  0  0  0  0
    8.0973   -7.1533    0.0000 C   0  0  0  0  0  0  0  0  0  0  0  0
    8.0973   -8.6534    0.0000 C   0  0  0  0  0  0  0  0  0  0  0  0
    6.7982   -6.4034    0.0000 C   0  0  0  0  0  0  0  0  0  0  0  0
    6.7982   -4.9034    0.0000 N   0  0  0  0  0  0  0  0  0  0  0  0
    5.4994   -4.1533    0.0000 C   0  0  0  0  0  0  0  0  0  0  0  0
    4.2003   -4.9034    0.0000 C   0  0  0  0  0  0  0  0  0  0  0  0
    4.2003   -6.4034    0.0000 O   0  0  0  0  0  0  0  0  0  0  0  0
    2.9012   -4.1533    0.0000 C   0  0  0  0  0  0  0  0  0  0  0  0
    2.9012   -2.6534    0.0000 C   0  0  0  0  0  0  0  0  0  0  0  0
    1.6021   -1.9034    0.0000 C   0  0  0  0  0  0  0  0  0  0  0  0
    0.3032   -2.6534    0.0000 C   0  0  0  0  0  0  0  0  0  0  0  0
   -0.9959   -1.9034    0.0000 C   0  0  0  0  0  0  0  0  0  0  0  0
   -0.9959   -0.4034    0.0000 C   0  0  0  0  0  0  0  0  0  0  0  0
    0.3032    0.3466    0.0000 C   0  0  0  0  0  0  0  0  0  0  0  0
    1.6021   -0.4034    0.0000 C   0  0  0  0  0  0  0  0  0  0  0  0
    1.6021   -4.9034    0.0000 N   0  0  0  0  0  0  0  0  0  0  0  0
    1.6021   -6.4034    0.0000 C   0  0  0  0  0  0  0  0  0  0  0  0
    2.9012   -7.1533    0.0000 O   0  0  0  0  0  0  0  0  0  0  0  0
    0.3032   -7.1533    0.0000 O   0  0  0  0  0  0  0  0  0  0  0  0
   -0.9959   -6.4034    0.0000 C   0  0  0  0  0  0  0  0  0  0  0  0
   -1.1527   -4.9117    0.0000 C   0  0  0  0  0  0  0  0  0  0  0  0
   -2.6200   -4.5998    0.0000 O   0  0  0  0  0  0  0  0  0  0  0  0
   -3.3698   -5.8988    0.0000 C   0  0  0  0  0  0  0  0  0  0  0  0
   -4.7402   -6.5088    0.0000 O   0  0  0  0  0  0  0  0  0  0  0  0
   -4.5833   -8.0007    0.0000 C   0  0  0  0  0  0  0  0  0  0  0  0
   -3.1161   -8.3125    0.0000 C   0  0  0  0  0  0  0  0  0  0  0  0
   -2.3663   -7.0137    0.0000 C   0  0  0  0  0  0  0  0  0  0  0  0
    8.0973   -4.1533    0.0000 S   0  0  0  0  0  0  0  0  0  0  0  0
    8.8475   -5.4525    0.0000 O   0  0  0  0  0  0  0  0  0  0  0  0
    7.3475   -2.8545    0.0000 O   0  0  0  0  0  0  0  0  0  0  0  0
    9.3964   -3.4034    0.0000 C   0  0  0  0  0  0  0  0  0  0  0  0
    9.3964   -1.9034    0.0000 C   0  0  0  0  0  0  0  0  0  0  0  0
   10.6956   -1.1533    0.0000 C   0  0  0  0  0  0  0  0  0  0  0  0
   11.9944   -1.9034    0.0000 C   0  0  0  0  0  0  0  0  0  0  0  0
   13.2935   -1.1533    0.0000 N   0  0  0  0  0  0  0  0  0  0  0  0
   11.9944   -3.4034    0.0000 C   0  0  0  0  0  0  0  0  0  0  0  0
   10.6956   -4.1533    0.0000 C   0  0  0  0  0  0  0  0  0  0  0  0
  1  2  1  0  0  0  0
  2  3  1  0  0  0  0
  2  4  1  0  0  0  0
  4  5  1  0  0  0  0
  5  6  1  0  0  0  0
  5 29  1  0  0  0  0
  6  7  1  0  0  0  0
  7  8  1  0  0  0  0
  7  9  1  0  0  0  0
  9 10  1  0  0  0  0
  9 17  1  0  0  0  0
 10 11  1  0  0  0  0
 12 11  2  0  0  0  0
 11 16  1  0  0  0  0
 13 12  1  0  0  0  0
 14 13  2  0  0  0  0
 15 14  1  0  0  0  0
 16 15  2  0  0  0  0
 17 18  1  0  0  0  0
 18 19  2  0  0  0  0
 18 20  1  0  0  0  0
 20 21  1  0  0  0  0
 22 21  1  0  0  0  0
 21 28  1  0  0  0  0
 23 22  1  0  0  0  0
 24 23  1  0  0  0  0
 25 24  1  0  0  0  0
 24 28  1  0  0  0  0
 26 25  1  0  0  0  0
 27 26  1  0  0  0  0
 28 27  1  0  0  0  0
 29 30  2  0  0  0  0
 29 31  2  0  0  0  0
 29 32  1  0  0  0  0
 33 32  2  0  0  0  0
 32 38  1  0  0  0  0
 34 33  1  0  0  0  0
 35 34  2  0  0  0  0
 35 36  1  0  0  0  0
 37 35  1  0  0  0  0
 38 37  2  0  0  0  0
M  END
> <Inchi_key>
CJBJHOAVZSMMDJ-UHFFFAOYSA-N

> <Source>
Mulliner , Kotsampasakou

> <ID>
EK0148;HT0593

> <H_MFHB>
1

> <CAS>


> <Cholestasis>
1

> <Name>
darunavir ethanolate;darunavir

> <Class>
1

$$$$