
  -INDIGO-08031710012D

 22 25  0  0  0  0  0  0  0  0999 V2000
   -1.6903   -2.8915    0.0000 C   0  0  0  0  0  0  0  0  0  0  0  0
   -0.9544   -4.1986    0.0000 C   0  0  0  0  0  0  0  0  0  0  0  0
   -1.5793   -5.5623    0.0000 N   0  0  0  0  0  0  0  0  0  0  0  0
   -0.4755   -6.5779    0.0000 N   0  0  0  0  0  0  0  0  0  0  0  0
    0.8315   -5.8420    0.0000 C   0  0  0  0  0  0  0  0  0  0  0  0
    2.1654   -6.5281    0.0000 C   0  0  0  0  0  0  0  0  0  0  0  0
    3.5338   -5.9137    0.0000 N   0  0  0  0  0  0  0  0  0  0  0  0
    3.9074   -4.4610    0.0000 C   0  0  0  0  0  0  0  0  0  0  0  0
    5.3780   -4.1663    0.0000 C   0  0  0  0  0  0  0  0  0  0  0  0
    5.8582   -2.7451    0.0000 C   0  0  0  0  0  0  0  0  0  0  0  0
    7.3292   -2.4505    0.0000 C   0  0  0  0  0  0  0  0  0  0  0  0
    8.3197   -3.5769    0.0000 C   0  0  0  0  0  0  0  0  0  0  0  0
    7.8395   -4.9980    0.0000 C   0  0  0  0  0  0  0  0  0  0  0  0
    6.3687   -5.2927    0.0000 C   0  0  0  0  0  0  0  0  0  0  0  0
    3.0017   -3.2643    0.0000 C   0  0  0  0  0  0  0  0  0  0  0  0
    3.7858   -1.9855    0.0000 C   0  0  0  0  0  0  0  0  0  0  0  0
    3.0705   -0.6671    0.0000 C   0  0  0  0  0  0  0  0  0  0  0  0
    3.8547    0.6116    0.0000 Cl  0  0  0  0  0  0  0  0  0  0  0  0
    1.5711   -0.6273    0.0000 C   0  0  0  0  0  0  0  0  0  0  0  0
    0.7869   -1.9060    0.0000 C   0  0  0  0  0  0  0  0  0  0  0  0
    1.5020   -3.2244    0.0000 C   0  0  0  0  0  0  0  0  0  0  0  0
    0.5356   -4.3715    0.0000 N   0  0  0  0  0  0  0  0  0  0  0  0
  1  2  1  0  0  0  0
  3  2  2  0  0  0  0
  2 22  1  0  0  0  0
  4  3  1  0  0  0  0
  5  4  2  0  0  0  0
  6  5  1  0  0  0  0
  5 22  1  0  0  0  0
  7  6  1  0  0  0  0
  8  7  2  0  0  0  0
  8  9  1  0  0  0  0
 15  8  1  0  0  0  0
 10  9  2  0  0  0  0
  9 14  1  0  0  0  0
 11 10  1  0  0  0  0
 12 11  2  0  0  0  0
 13 12  1  0  0  0  0
 14 13  2  0  0  0  0
 16 15  1  0  0  0  0
 15 21  2  0  0  0  0
 17 16  2  0  0  0  0
 17 18  1  0  0  0  0
 19 17  1  0  0  0  0
 20 19  2  0  0  0  0
 21 20  1  0  0  0  0
 22 21  1  0  0  0  0
M  END
> <Inchi_key>
VREFGVBLTWBCJP-UHFFFAOYSA-N

> <Source>
Mulliner

> <ID>
HT0113

> <H_MFHB>
1

> <CAS>
28981-97-7

> <Cholestasis>


> <Name>
alprazolam

> <Class>
1

$$$$