
  -INDIGO-08031710012D

 24 26  0  0  0  0  0  0  0  0999 V2000
    0.0274    0.1022    0.0000 C   0  0  0  0  0  0  0  0  0  0  0  0
    1.3264   -0.6478    0.0000 C   0  0  0  0  0  0  0  0  0  0  0  0
    2.6256    0.1022    0.0000 C   0  0  0  0  0  0  0  0  0  0  0  0
    3.9246   -0.6478    0.0000 N   0  0  0  0  0  0  0  0  0  0  0  0
    3.9246   -2.1478    0.0000 C   0  0  0  0  0  0  0  0  0  0  0  0
    2.6256   -2.8978    0.0000 S   0  0  0  0  0  0  0  0  0  0  0  0
    1.3264   -2.1478    0.0000 C   0  0  0  0  0  0  0  0  0  0  0  0
    5.4245   -2.1478    0.0000 C   0  0  0  0  0  0  0  0  0  0  0  0
    6.4852   -3.2085    0.0000 N   0  0  0  0  0  0  0  0  0  0  0  0
    7.9339   -2.8202    0.0000 C   0  0  0  0  0  0  0  0  0  0  0  0
    8.3224   -1.3714    0.0000 O   0  0  0  0  0  0  0  0  0  0  0  0
    8.9946   -3.8808    0.0000 C   0  0  0  0  0  0  0  0  0  0  0  0
    8.6066   -5.3298    0.0000 N   0  0  0  0  0  0  0  0  0  0  0  0
   10.4435   -3.4927    0.0000 C   0  0  0  0  0  0  0  0  0  0  0  0
   11.5042   -4.5533    0.0000 C   0  0  0  0  0  0  0  0  0  0  0  0
   12.9532   -4.1651    0.0000 C   0  0  0  0  0  0  0  0  0  0  0  0
   13.3414   -2.7162    0.0000 C   0  0  0  0  0  0  0  0  0  0  0  0
   12.2807   -1.6555    0.0000 C   0  0  0  0  0  0  0  0  0  0  0  0
   10.8318   -2.0438    0.0000 C   0  0  0  0  0  0  0  0  0  0  0  0
    5.4245   -0.6478    0.0000 C   0  0  0  0  0  0  0  0  0  0  0  0
    6.4852    0.4128    0.0000 O   0  0  0  0  0  0  0  0  0  0  0  0
    2.6256    1.6022    0.0000 C   0  0  0  0  0  0  0  0  0  0  0  0
    1.3264    2.3522    0.0000 O   0  0  0  0  0  0  0  0  0  0  0  0
    3.9246    2.3522    0.0000 O   0  0  0  0  0  0  0  0  0  0  0  0
  1  2  1  0  0  0  0
  3  2  2  0  0  0  0
  2  7  1  0  0  0  0
  4  3  1  0  0  0  0
  3 22  1  0  0  0  0
  4  5  1  0  0  0  0
 20  4  1  0  0  0  0
  6  5  1  0  0  0  0
  5  8  1  0  0  0  0
  7  6  1  0  0  0  0
  8  9  1  0  0  0  0
  8 20  1  0  0  0  0
  9 10  1  0  0  0  0
 10 11  2  0  0  0  0
 10 12  1  0  0  0  0
 12 13  1  0  0  0  0
 12 14  1  0  0  0  0
 15 14  2  0  0  0  0
 14 19  1  0  0  0  0
 16 15  1  0  0  0  0
 17 16  2  0  0  0  0
 18 17  1  0  0  0  0
 19 18  2  0  0  0  0
 20 21  2  0  0  0  0
 22 23  2  0  0  0  0
 22 24  1  0  0  0  0
M  END
> <Inchi_key>
ZAIPMKNFIOOWCQ-UHFFFAOYSA-N

> <Source>
Mulliner , Kotsampasakou

> <ID>
EK0112;HT0431

> <H_MFHB>
1

> <CAS>
15686-71-2

> <Cholestasis>
1

> <Name>
cephalexin;cephalexin hydrochloride

> <Class>
1

$$$$