
  -INDIGO-08031710012D

 16 16  0  0  0  0  0  0  0  0999 V2000
    0.5506    0.9537    0.0000 O   0  0  0  0  0  0  0  0  0  0  0  0
    1.3006   -0.3453    0.0000 C   0  0  0  0  0  0  0  0  0  0  0  0
    2.0506   -1.6444    0.0000 C   0  0  0  0  0  0  0  0  0  0  0  0
    3.5506   -1.6444    0.0000 N   0  0  0  0  0  0  0  0  0  0  0  0
    4.4323   -2.8579    0.0000 C   0  0  0  0  0  0  0  0  0  0  0  0
    5.8589   -2.3944    0.0000 C   0  0  0  0  0  0  0  0  0  0  0  0
    5.8589   -0.8944    0.0000 N   0  0  0  0  0  0  0  0  0  0  0  0
    4.4323   -0.4308    0.0000 C   0  0  0  0  0  0  0  0  0  0  0  0
    2.5997    0.4047    0.0000 P   0  0  0  0  0  0  0  0  0  0  0  0
    3.3497   -0.8944    0.0000 O   0  0  0  0  0  0  0  0  0  0  0  0
    1.8497    1.7037    0.0000 O   0  0  0  0  0  0  0  0  0  0  0  0
    3.8987    1.1547    0.0000 O   0  0  0  0  0  0  0  0  0  0  0  0
    0.0016   -1.0953    0.0000 P   0  0  0  0  0  0  0  0  0  0  0  0
   -1.2974   -1.8453    0.0000 O   0  0  0  0  0  0  0  0  0  0  0  0
   -0.7484    0.2037    0.0000 O   0  0  0  0  0  0  0  0  0  0  0  0
    0.7516   -2.3944    0.0000 O   0  0  0  0  0  0  0  0  0  0  0  0
  1  2  1  0  0  0  0
  2  3  1  0  0  0  0
  2  9  1  0  0  0  0
  2 13  1  0  0  0  0
  3  4  1  0  0  0  0
  5  4  1  0  0  0  0
  4  8  1  0  0  0  0
  6  5  2  0  0  0  0
  7  6  1  0  0  0  0
  8  7  2  0  0  0  0
  9 10  2  0  0  0  0
  9 11  1  0  0  0  0
  9 12  1  0  0  0  0
 13 14  2  0  0  0  0
 13 15  1  0  0  0  0
 13 16  1  0  0  0  0
M  END
> <Inchi_key>
XRASPMIURGNCCH-UHFFFAOYSA-N

> <Source>
Mulliner

> <ID>
HT2218

> <H_MFHB>
1

> <CAS>


> <Cholestasis>


> <Name>
zoledronic acid

> <Class>
1

$$$$