

  -INDIGO-08031709442D

 30 34  0  0  0  0  0  0  0  0999 V2000
   10.0116   -1.7757    0.0000 Cl  0  0  0  0  0  0  0  0  0  0  0  0
    9.2540   -0.4811    0.0000 C   0  0  0  0  0  0  0  0  0  0  0  0
    7.7541   -0.4899    0.0000 C   0  0  0  0  0  0  0  0  0  0  0  0
    6.9963    0.8048    0.0000 C   0  0  0  0  0  0  0  0  0  0  0  0
    7.7387    2.1082    0.0000 C   0  0  0  0  0  0  0  0  0  0  0  0
    6.7287    3.2170    0.0000 N   0  0  0  0  0  0  0  0  0  0  0  0
    5.3746    2.6636    0.0000 C   0  0  0  0  0  0  0  0  0  0  0  0
    3.8359    3.0120    0.0000 N   0  0  0  0  0  0  0  0  0  0  0  0
    3.0262    1.6572    0.0000 C   0  0  0  0  0  0  0  0  0  0  0  0
    1.9117    2.1951    0.0000 S   0  0  0  0  0  0  0  0  0  0  0  0
    1.2804    3.1034    0.0000 S   0  0  0  0  0  0  0  0  0  0  0  0
    1.4889    4.4264    0.0000 C   0  0  0  0  0  0  0  0  0  0  0  0
    0.6646    3.0633    0.0000 N   0  0  0  0  0  0  0  0  0  0  0  0
   -0.8351    3.0912    0.0000 C   0  0  0  0  0  0  0  0  0  0  0  0
    1.4334    1.6785    0.0000 C   0  0  0  0  0  0  0  0  0  0  0  0
    0.6638    0.3910    0.0000 O   0  0  0  0  0  0  0  0  0  0  0  0
    0.7609    5.7379    0.0000 C   0  0  0  0  0  0  0  0  0  0  0  0
    3.0671    4.3970    0.0000 C   0  0  0  0  0  0  0  0  0  0  0  0
    3.8401    5.6825    0.0000 O   0  0  0  0  0  0  0  0  0  0  0  0
    4.0728    0.4696    0.0000 C   0  0  0  0  0  0  0  0  0  0  0  0
    3.7464   -0.9945    0.0000 O   0  0  0  0  0  0  0  0  0  0  0  0
    5.5104    1.0927    0.0000 C   0  0  0  0  0  0  0  0  0  0  0  0
    5.6158   -0.4035    0.0000 O   0  0  0  0  0  0  0  0  0  0  0  0
    7.0588    4.6803    0.0000 C   0  0  0  0  0  0  0  0  0  0  0  0
    9.2388    2.1169    0.0000 C   0  0  0  0  0  0  0  0  0  0  0  0
    9.9812    3.4202    0.0000 O   0  0  0  0  0  0  0  0  0  0  0  0
   11.4812    3.4291    0.0000 C   0  0  0  0  0  0  0  0  0  0  0  0
    9.9964    0.8223    0.0000 C   0  0  0  0  0  0  0  0  0  0  0  0
   11.4963    0.8310    0.0000 O   0  0  0  0  0  0  0  0  0  0  0  0
   12.2539   -0.4636    0.0000 C   0  0  0  0  0  0  0  0  0  0  0  0
  1  2  1  0  0  0  0
  3  2  2  0  0  0  0
  2 28  1  0  0  0  0
  4  3  1  0  0  0  0
  4  5  2  0  0  0  0
 22  4  1  0  0  0  0
  5  6  1  0  0  0  0
 25  5  1  0  0  0  0
  6  7  1  0  0  0  0
  6 24  1  0  0  0  0
  8  7  1  0  0  0  0
  7 22  1  0  0  0  0
  8  9  1  0  0  0  0
 18  8  1  0  0  0  0
 10  9  1  0  0  0  0
  9 15  1  0  0  0  0
 20  9  1  0  0  0  0
 11 10  1  0  0  0  0
 12 11  1  0  0  0  0
 13 12  1  0  0  0  0
 12 17  1  0  0  0  0
 12 18  1  0  0  0  0
 13 14  1  0  0  0  0
 15 13  1  0  0  0  0
 15 16  2  0  0  0  0
 18 19  2  0  0  0  0
 20 21  1  0  0  0  0
 22 20  1  0  0  0  0
 22 23  1  0  0  0  0
 25 26  1  0  0  0  0
 28 25  2  0  0  0  0
 26 27  1  0  0  0  0
 28 29  1  0  0  0  0
 29 30  1  0  0  0  0
M  END
> <Inchi_key>
QTONANGUNATZOU-UHFFFAOYSA-N

> <Source>
Kotsampasakou

> <ID>
EK0487

> <H_MFHB>


> <CAS>


> <Cholestasis>
1

> <Name>
sporidesmin

> <Class>
1


$$$$