
  -INDIGO-08031710012D

 28 30  0  0  0  0  0  0  0  0999 V2000
   -1.4195    5.8921    0.0000 C   0  0  0  0  0  0  0  0  0  0  0  0
   -0.6697    4.5929    0.0000 C   0  0  0  0  0  0  0  0  0  0  0  0
   -1.4195    3.2941    0.0000 C   0  0  0  0  0  0  0  0  0  0  0  0
   -0.6697    1.9951    0.0000 C   0  0  0  0  0  0  0  0  0  0  0  0
    0.8304    1.9951    0.0000 C   0  0  0  0  0  0  0  0  0  0  0  0
    1.5805    3.2941    0.0000 C   0  0  0  0  0  0  0  0  0  0  0  0
    3.0804    3.2941    0.0000 C   0  0  0  0  0  0  0  0  0  0  0  0
    0.8304    4.5929    0.0000 C   0  0  0  0  0  0  0  0  0  0  0  0
    1.5805    5.8921    0.0000 O   0  0  0  0  0  0  0  0  0  0  0  0
    3.0804    5.8921    0.0000 C   0  0  0  0  0  0  0  0  0  0  0  0
    3.8305    4.5929    0.0000 N   0  0  0  0  0  0  0  0  0  0  0  0
    5.3304    4.5929    0.0000 C   0  0  0  0  0  0  0  0  0  0  0  0
    6.0804    3.2941    0.0000 N   0  0  0  0  0  0  0  0  0  0  0  0
    7.5803    3.2941    0.0000 C   0  0  0  0  0  0  0  0  0  0  0  0
    8.3304    4.5929    0.0000 C   0  0  0  0  0  0  0  0  0  0  0  0
    9.8303    4.5929    0.0000 C   0  0  0  0  0  0  0  0  0  0  0  0
   10.5804    3.2941    0.0000 C   0  0  0  0  0  0  0  0  0  0  0  0
    9.8303    1.9951    0.0000 C   0  0  0  0  0  0  0  0  0  0  0  0
    8.3304    1.9951    0.0000 C   0  0  0  0  0  0  0  0  0  0  0  0
   12.0805    3.2941    0.0000 C   0  0  0  0  0  0  0  0  0  0  0  0
   13.5804    3.2941    0.0000 N   0  0  0  0  0  0  0  0  0  0  0  0
    6.0804    5.8921    0.0000 N   0  0  0  0  0  0  0  0  0  0  0  0
    5.3304    7.1911    0.0000 C   0  0  0  0  0  0  0  0  0  0  0  0
    6.0804    8.4901    0.0000 N   0  0  0  0  0  0  0  0  0  0  0  0
    3.8305    7.1911    0.0000 C   0  0  0  0  0  0  0  0  0  0  0  0
    3.0804    8.4901    0.0000 Br  0  0  0  0  0  0  0  0  0  0  0  0
   -1.4195    0.6959    0.0000 C   0  0  0  0  0  0  0  0  0  0  0  0
   -2.1696   -0.6031    0.0000 N   0  0  0  0  0  0  0  0  0  0  0  0
  1  2  1  0  0  0  0
  3  2  2  0  0  0  0
  2  8  1  0  0  0  0
  4  3  1  0  0  0  0
  5  4  2  0  0  0  0
  4 27  1  0  0  0  0
  6  5  1  0  0  0  0
  6  7  1  0  0  0  0
  8  6  2  0  0  0  0
  8  9  1  0  0  0  0
  9 10  1  0  0  0  0
 11 10  2  0  0  0  0
 10 25  1  0  0  0  0
 12 11  1  0  0  0  0
 12 13  1  0  0  0  0
 22 12  2  0  0  0  0
 13 14  1  0  0  0  0
 15 14  2  0  0  0  0
 14 19  1  0  0  0  0
 16 15  1  0  0  0  0
 17 16  2  0  0  0  0
 18 17  1  0  0  0  0
 17 20  1  0  0  0  0
 19 18  2  0  0  0  0
 20 21  3  0  0  0  0
 23 22  1  0  0  0  0
 23 24  1  0  0  0  0
 25 23  2  0  0  0  0
 25 26  1  0  0  0  0
 27 28  3  0  0  0  0
M  END
> <Inchi_key>
PYGWGZALEOIKDF-UHFFFAOYSA-N

> <Source>
Mulliner

> <ID>
HT0834

> <H_MFHB>
1

> <CAS>
269055-15-4

> <Cholestasis>


> <Name>
etravirine

> <Class>
1

$$$$