

  -INDIGO-08031710012D

 13 13  0  0  0  0  0  0  0  0999 V2000
    7.6893   -2.0604    0.0000 C   0  0  0  0  0  0  0  0  0  0  0  0
    6.3903   -1.3104    0.0000 C   0  0  0  0  0  0  0  0  0  0  0  0
    6.3903    0.1896    0.0000 O   0  0  0  0  0  0  0  0  0  0  0  0
    5.0913   -2.0604    0.0000 O   0  0  0  0  0  0  0  0  0  0  0  0
    3.7922   -1.3104    0.0000 C   0  0  0  0  0  0  0  0  0  0  0  0
    3.7922    0.1896    0.0000 C   0  0  0  0  0  0  0  0  0  0  0  0
    2.4932    0.9396    0.0000 C   0  0  0  0  0  0  0  0  0  0  0  0
    1.1942    0.1896    0.0000 C   0  0  0  0  0  0  0  0  0  0  0  0
    1.1942   -1.3104    0.0000 C   0  0  0  0  0  0  0  0  0  0  0  0
    2.4932   -2.0604    0.0000 C   0  0  0  0  0  0  0  0  0  0  0  0
    2.4932   -3.5604    0.0000 C   0  0  0  0  0  0  0  0  0  0  0  0
    3.7922   -4.3104    0.0000 O   0  0  0  0  0  0  0  0  0  0  0  0
    1.1942   -4.3104    0.0000 O   0  0  0  0  0  0  0  0  0  0  0  0
  1  2  1  0  0  0  0
  2  3  2  0  0  0  0
  2  4  1  0  0  0  0
  4  5  1  0  0  0  0
  6  5  2  0  0  0  0
  5 10  1  0  0  0  0
  7  6  1  0  0  0  0
  8  7  2  0  0  0  0
  9  8  1  0  0  0  0
 10  9  2  0  0  0  0
 10 11  1  0  0  0  0
 11 12  2  0  0  0  0
 11 13  1  0  0  0  0
M  END
> <Inchi_key>
BSYNRYMUTXBXSQ-UHFFFAOYSA-N

> <Source>
Mulliner

> <ID>
HT0189

> <H_MFHB>
1

> <CAS>
50-78-2

> <Cholestasis>


> <Name>
aspirin;acetylsalicylic acid

> <Class>
1


$$$$