
  -INDIGO-08031710012D

 21 23  0  0  0  0  0  0  0  0999 V2000
    1.2264   -4.5771    0.0000 F   0  0  0  0  0  0  0  0  0  0  0  0
    2.5256   -3.8271    0.0000 C   0  0  0  0  0  0  0  0  0  0  0  0
    3.2755   -5.1261    0.0000 F   0  0  0  0  0  0  0  0  0  0  0  0
    3.8244   -3.0771    0.0000 F   0  0  0  0  0  0  0  0  0  0  0  0
    1.7756   -2.5280    0.0000 C   0  0  0  0  0  0  0  0  0  0  0  0
    0.4764   -3.2780    0.0000 O   0  0  0  0  0  0  0  0  0  0  0  0
   -0.8227   -2.5280    0.0000 C   0  0  0  0  0  0  0  0  0  0  0  0
   -2.1217   -3.2780    0.0000 O   0  0  0  0  0  0  0  0  0  0  0  0
   -0.8227   -1.0280    0.0000 N   0  0  0  0  0  0  0  0  0  0  0  0
    0.4764   -0.2780    0.0000 C   0  0  0  0  0  0  0  0  0  0  0  0
    0.4764    1.2220    0.0000 C   0  0  0  0  0  0  0  0  0  0  0  0
    1.7756    1.9720    0.0000 C   0  0  0  0  0  0  0  0  0  0  0  0
    3.0745    1.2220    0.0000 C   0  0  0  0  0  0  0  0  0  0  0  0
    4.3735    1.9720    0.0000 Cl  0  0  0  0  0  0  0  0  0  0  0  0
    3.0745   -0.2780    0.0000 C   0  0  0  0  0  0  0  0  0  0  0  0
    1.7756   -1.0280    0.0000 C   0  0  0  0  0  0  0  0  0  0  0  0
    3.2755   -2.5280    0.0000 C   0  0  0  0  0  0  0  0  0  0  0  0
    4.7755   -2.5280    0.0000 C   0  0  0  0  0  0  0  0  0  0  0  0
    6.2755   -2.5280    0.0000 C   0  0  0  0  0  0  0  0  0  0  0  0
    7.5745   -3.2780    0.0000 C   0  0  0  0  0  0  0  0  0  0  0  0
    7.5745   -1.7780    0.0000 C   0  0  0  0  0  0  0  0  0  0  0  0
  1  2  1  0  0  0  0
  2  3  1  0  0  0  0
  2  4  1  0  0  0  0
  2  5  1  0  0  0  0
  6  5  1  0  0  0  0
  5 16  1  0  0  0  0
  5 17  1  0  0  0  0
  7  6  1  0  0  0  0
  7  8  2  0  0  0  0
  9  7  1  0  0  0  0
 10  9  1  0  0  0  0
 11 10  2  0  0  0  0
 10 16  1  0  0  0  0
 12 11  1  0  0  0  0
 13 12  2  0  0  0  0
 13 14  1  0  0  0  0
 15 13  1  0  0  0  0
 16 15  2  0  0  0  0
 17 18  3  0  0  0  0
 18 19  1  0  0  0  0
 20 19  1  0  0  0  0
 19 21  1  0  0  0  0
 21 20  1  0  0  0  0
M  END
> <Inchi_key>
XPOQHMRABVBWPR-UHFFFAOYSA-N

> <Source>
Mulliner

> <ID>
HT0746

> <H_MFHB>
1

> <CAS>


> <Cholestasis>


> <Name>
efavirenz

> <Class>
1

$$$$