
  -INDIGO-08031710012D

 22 24  0  0  0  0  0  0  0  0999 V2000
   12.8951    0.6782    0.0000 C   0  0  0  0  0  0  0  0  0  0  0  0
   11.5961    1.4281    0.0000 N   0  0  0  0  0  0  0  0  0  0  0  0
   11.5961    2.9281    0.0000 C   0  0  0  0  0  0  0  0  0  0  0  0
   10.2970    0.6782    0.0000 C   0  0  0  0  0  0  0  0  0  0  0  0
    8.9981    1.4281    0.0000 C   0  0  0  0  0  0  0  0  0  0  0  0
    7.6990    0.6782    0.0000 C   0  0  0  0  0  0  0  0  0  0  0  0
    6.4000    1.4281    0.0000 N   0  0  0  0  0  0  0  0  0  0  0  0
    6.4000    2.9281    0.0000 C   0  0  0  0  0  0  0  0  0  0  0  0
    7.6990    3.6782    0.0000 C   0  0  0  0  0  0  0  0  0  0  0  0
    7.6990    5.1782    0.0000 C   0  0  0  0  0  0  0  0  0  0  0  0
    6.4000    5.9281    0.0000 C   0  0  0  0  0  0  0  0  0  0  0  0
    5.1009    5.1782    0.0000 C   0  0  0  0  0  0  0  0  0  0  0  0
    5.1009    3.6782    0.0000 C   0  0  0  0  0  0  0  0  0  0  0  0
    3.8019    2.9281    0.0000 C   0  0  0  0  0  0  0  0  0  0  0  0
    2.3019    2.9281    0.0000 C   0  0  0  0  0  0  0  0  0  0  0  0
    3.0519    4.2271    0.0000 C   0  0  0  0  0  0  0  0  0  0  0  0
    3.8019    1.4281    0.0000 C   0  0  0  0  0  0  0  0  0  0  0  0
    2.5028    0.6782    0.0000 C   0  0  0  0  0  0  0  0  0  0  0  0
    2.5028   -0.8218    0.0000 C   0  0  0  0  0  0  0  0  0  0  0  0
    3.8019   -1.5719    0.0000 C   0  0  0  0  0  0  0  0  0  0  0  0
    5.1009   -0.8218    0.0000 C   0  0  0  0  0  0  0  0  0  0  0  0
    5.1009    0.6782    0.0000 C   0  0  0  0  0  0  0  0  0  0  0  0
  1  2  1  0  0  0  0
  2  3  1  0  0  0  0
  2  4  1  0  0  0  0
  4  5  1  0  0  0  0
  5  6  1  0  0  0  0
  6  7  1  0  0  0  0
  8  7  1  0  0  0  0
  7 22  1  0  0  0  0
  9  8  1  0  0  0  0
  8 13  2  0  0  0  0
 10  9  2  0  0  0  0
 11 10  1  0  0  0  0
 12 11  2  0  0  0  0
 13 12  1  0  0  0  0
 14 13  1  0  0  0  0
 14 15  1  0  0  0  0
 14 16  1  0  0  0  0
 17 14  1  0  0  0  0
 18 17  1  0  0  0  0
 17 22  2  0  0  0  0
 19 18  2  0  0  0  0
 20 19  1  0  0  0  0
 21 20  2  0  0  0  0
 22 21  1  0  0  0  0
M  END
> <Inchi_key>
RYQOGSFEJBUZBX-UHFFFAOYSA-N

> <Source>
Mulliner

> <ID>
HT0677

> <H_MFHB>
1

> <CAS>
679175

> <Cholestasis>


> <Name>
dimetacrine

> <Class>
1

$$$$