

  -INDIGO-08031710012D

 36 39  0  0  0  0  0  0  0  0999 V2000
   15.7258   -2.6661    0.0000 C   0  0  0  0  0  0  0  0  0  0  0  0
   14.2583   -2.3555    0.0000 C   0  0  0  0  0  0  0  0  0  0  0  0
   14.6476   -3.8041    0.0000 C   0  0  0  0  0  0  0  0  0  0  0  0
   12.7834   -2.6299    0.0000 S   0  0  0  0  0  0  0  0  0  0  0  0
   12.0669   -1.3122    0.0000 C   0  0  0  0  0  0  0  0  0  0  0  0
   10.9779   -0.2805    0.0000 C   0  0  0  0  0  0  0  0  0  0  0  0
    9.4786   -0.3211    0.0000 N   0  0  0  0  0  0  0  0  0  0  0  0
    8.6936    0.9573    0.0000 C   0  0  0  0  0  0  0  0  0  0  0  0
    9.4083    2.2761    0.0000 O   0  0  0  0  0  0  0  0  0  0  0  0
    7.1943    0.9169    0.0000 C   0  0  0  0  0  0  0  0  0  0  0  0
    6.4796   -0.4019    0.0000 N   0  0  0  0  0  0  0  0  0  0  0  0
    4.9800   -0.4423    0.0000 C   0  0  0  0  0  0  0  0  0  0  0  0
    4.1953    0.8361    0.0000 O   0  0  0  0  0  0  0  0  0  0  0  0
    4.2653   -1.7611    0.0000 N   0  0  0  0  0  0  0  0  0  0  0  0
    4.9121   -3.1146    0.0000 C   0  0  0  0  0  0  0  0  0  0  0  0
    3.8250   -4.1478    0.0000 C   0  0  0  0  0  0  0  0  0  0  0  0
    2.5062   -3.4332    0.0000 N   0  0  0  0  0  0  0  0  0  0  0  0
    2.7784   -1.9581    0.0000 C   0  0  0  0  0  0  0  0  0  0  0  0
    1.7449   -0.8708    0.0000 O   0  0  0  0  0  0  0  0  0  0  0  0
    1.1529   -4.0800    0.0000 S   0  0  0  0  0  0  0  0  0  0  0  0
    0.5059   -2.7267    0.0000 O   0  0  0  0  0  0  0  0  0  0  0  0
    1.7997   -5.4334    0.0000 O   0  0  0  0  0  0  0  0  0  0  0  0
   -0.2006   -4.7269    0.0000 C   0  0  0  0  0  0  0  0  0  0  0  0
    6.4096    2.1953    0.0000 C   0  0  0  0  0  0  0  0  0  0  0  0
    7.1243    3.5141    0.0000 C   0  0  0  0  0  0  0  0  0  0  0  0
    6.3396    4.7923    0.0000 C   0  0  0  0  0  0  0  0  0  0  0  0
    4.8400    4.7519    0.0000 C   0  0  0  0  0  0  0  0  0  0  0  0
    4.1253    3.4331    0.0000 C   0  0  0  0  0  0  0  0  0  0  0  0
    4.9100    2.1549    0.0000 C   0  0  0  0  0  0  0  0  0  0  0  0
   12.0095    0.8081    0.0000 C   0  0  0  0  0  0  0  0  0  0  0  0
   11.9693    2.3078    0.0000 O   0  0  0  0  0  0  0  0  0  0  0  0
   13.0985   -0.2236    0.0000 N   0  0  0  0  0  0  0  0  0  0  0  0
   14.4528   -0.8682    0.0000 C   0  0  0  0  0  0  0  0  0  0  0  0
   15.7705   -0.1513    0.0000 C   0  0  0  0  0  0  0  0  0  0  0  0
   17.0501   -0.9342    0.0000 O   0  0  0  0  0  0  0  0  0  0  0  0
   15.8087    1.3482    0.0000 O   0  0  0  0  0  0  0  0  0  0  0  0
  1  2  1  0  0  0  0
  2  3  1  0  0  0  0
  4  2  1  0  0  0  0
  2 33  1  0  0  0  0
  5  4  1  0  0  0  0
  6  5  1  0  0  0  0
  5 32  1  0  0  0  0
  6  7  1  0  0  0  0
 30  6  1  0  0  0  0
  7  8  1  0  0  0  0
  8  9  2  0  0  0  0
  8 10  1  0  0  0  0
 10 11  1  0  0  0  0
 10 24  1  0  0  0  0
 11 12  1  0  0  0  0
 12 13  2  0  0  0  0
 12 14  1  0  0  0  0
 15 14  1  0  0  0  0
 14 18  1  0  0  0  0
 16 15  1  0  0  0  0
 17 16  1  0  0  0  0
 18 17  1  0  0  0  0
 17 20  1  0  0  0  0
 18 19  2  0  0  0  0
 20 21  2  0  0  0  0
 20 22  2  0  0  0  0
 20 23  1  0  0  0  0
 25 24  2  0  0  0  0
 24 29  1  0  0  0  0
 26 25  1  0  0  0  0
 27 26  2  0  0  0  0
 28 27  1  0  0  0  0
 29 28  2  0  0  0  0
 30 31  2  0  0  0  0
 32 30  1  0  0  0  0
 33 32  1  0  0  0  0
 33 34  1  0  0  0  0
 34 35  2  0  0  0  0
 34 36  1  0  0  0  0
M  END
> <Inchi_key>
YPBATNHYBCGSSN-UHFFFAOYSA-N

> <Source>
Mulliner

> <ID>
HT1388

> <H_MFHB>
1

> <CAS>


> <Cholestasis>


> <Name>
mezlocillin sodium monohydrate;mezlocillin

> <Class>
1


$$$$