
  -INDIGO-08031710012D

 20 22  0  0  0  0  0  0  0  0999 V2000
   -0.2347    1.8252    0.0000 C   0  0  0  0  0  0  0  0  0  0  0  0
    1.1313    1.2054    0.0000 N   0  0  0  0  0  0  0  0  0  0  0  0
    1.1666   -0.2942    0.0000 C   0  0  0  0  0  0  0  0  0  0  0  0
   -0.1695   -0.9762    0.0000 O   0  0  0  0  0  0  0  0  0  0  0  0
    2.3605   -1.2022    0.0000 C   0  0  0  0  0  0  0  0  0  0  0  0
    3.8149   -0.8357    0.0000 N   0  0  0  0  0  0  0  0  0  0  0  0
    4.4358    0.5297    0.0000 C   0  0  0  0  0  0  0  0  0  0  0  0
    5.9355    0.5636    0.0000 C   0  0  0  0  0  0  0  0  0  0  0  0
    6.6560    1.8793    0.0000 C   0  0  0  0  0  0  0  0  0  0  0  0
    8.1556    1.9131    0.0000 C   0  0  0  0  0  0  0  0  0  0  0  0
    8.9347    0.6314    0.0000 C   0  0  0  0  0  0  0  0  0  0  0  0
    8.2143   -0.6843    0.0000 C   0  0  0  0  0  0  0  0  0  0  0  0
    6.7147   -0.7182    0.0000 C   0  0  0  0  0  0  0  0  0  0  0  0
    3.7525    1.8660    0.0000 C   0  0  0  0  0  0  0  0  0  0  0  0
    4.7476    2.9884    0.0000 C   0  0  0  0  0  0  0  0  0  0  0  0
    4.2730    4.4114    0.0000 C   0  0  0  0  0  0  0  0  0  0  0  0
    5.2681    5.5339    0.0000 Cl  0  0  0  0  0  0  0  0  0  0  0  0
    2.8034    4.7119    0.0000 C   0  0  0  0  0  0  0  0  0  0  0  0
    1.8084    3.5894    0.0000 C   0  0  0  0  0  0  0  0  0  0  0  0
    2.2830    2.1665    0.0000 C   0  0  0  0  0  0  0  0  0  0  0  0
  1  2  1  0  0  0  0
  3  2  1  0  0  0  0
  2 20  1  0  0  0  0
  3  4  2  0  0  0  0
  5  3  1  0  0  0  0
  6  5  1  0  0  0  0
  7  6  2  0  0  0  0
  7  8  1  0  0  0  0
 14  7  1  0  0  0  0
  9  8  2  0  0  0  0
  8 13  1  0  0  0  0
 10  9  1  0  0  0  0
 11 10  2  0  0  0  0
 12 11  1  0  0  0  0
 13 12  2  0  0  0  0
 15 14  2  0  0  0  0
 14 20  1  0  0  0  0
 16 15  1  0  0  0  0
 16 17  1  0  0  0  0
 18 16  2  0  0  0  0
 19 18  1  0  0  0  0
 20 19  2  0  0  0  0
M  END
> <Inchi_key>
AAOVKJBEBIDNHE-UHFFFAOYSA-N

> <Source>
Mulliner , Kotsampasakou

> <ID>
EK0159;HT0636

> <H_MFHB>
1

> <CAS>
439-14-5

> <Cholestasis>
1

> <Name>
diazepam

> <Class>
1

$$$$