
  -INDIGO-08031710012D

 20 20  0  0  0  0  0  0  0  0999 V2000
    6.4049   10.1082    0.0000 N   0  0  0  0  0  0  0  0  0  0  0  0
    7.0456    8.7518    0.0000 C   0  0  0  0  0  0  0  0  0  0  0  0
    8.5405    8.6284    0.0000 N   0  0  0  0  0  0  0  0  0  0  0  0
    6.1911    7.5189    0.0000 N   0  0  0  0  0  0  0  0  0  0  0  0
    4.6962    7.6424    0.0000 C   0  0  0  0  0  0  0  0  0  0  0  0
    3.7177    6.5055    0.0000 N   0  0  0  0  0  0  0  0  0  0  0  0
    2.3340    7.0849    0.0000 C   0  0  0  0  0  0  0  0  0  0  0  0
    1.0521    6.3060    0.0000 C   0  0  0  0  0  0  0  0  0  0  0  0
   -0.2633    7.0268    0.0000 S   0  0  0  0  0  0  0  0  0  0  0  0
   -1.5454    6.2480    0.0000 C   0  0  0  0  0  0  0  0  0  0  0  0
   -2.8606    6.9688    0.0000 C   0  0  0  0  0  0  0  0  0  0  0  0
   -4.1427    6.1900    0.0000 C   0  0  0  0  0  0  0  0  0  0  0  0
   -4.1091    4.6904    0.0000 N   0  0  0  0  0  0  0  0  0  0  0  0
   -5.4582    6.9108    0.0000 N   0  0  0  0  0  0  0  0  0  0  0  0
   -6.7400    6.1320    0.0000 S   0  0  0  0  0  0  0  0  0  0  0  0
   -5.9613    4.8500    0.0000 O   0  0  0  0  0  0  0  0  0  0  0  0
   -7.5189    7.4140    0.0000 O   0  0  0  0  0  0  0  0  0  0  0  0
   -8.0221    5.3532    0.0000 N   0  0  0  0  0  0  0  0  0  0  0  0
    2.4576    8.5798    0.0000 C   0  0  0  0  0  0  0  0  0  0  0  0
    3.9176    8.9243    0.0000 S   0  0  0  0  0  0  0  0  0  0  0  0
  1  2  1  0  0  0  0
  2  3  2  0  0  0  0
  2  4  1  0  0  0  0
  4  5  1  0  0  0  0
  6  5  2  0  0  0  0
  5 20  1  0  0  0  0
  7  6  1  0  0  0  0
  7  8  1  0  0  0  0
 19  7  2  0  0  0  0
  8  9  1  0  0  0  0
  9 10  1  0  0  0  0
 10 11  1  0  0  0  0
 11 12  1  0  0  0  0
 12 13  2  0  0  0  0
 12 14  1  0  0  0  0
 14 15  1  0  0  0  0
 15 16  2  0  0  0  0
 15 17  2  0  0  0  0
 15 18  1  0  0  0  0
 20 19  1  0  0  0  0
M  END
> <Inchi_key>
XUFQPHANEAPEMJ-UHFFFAOYSA-N

> <Source>
Mulliner

> <ID>
HT0847

> <H_MFHB>
1

> <CAS>


> <Cholestasis>


> <Name>
famotidine

> <Class>
1

$$$$