

  -INDIGO-08031710012D

 27 32  0  0  0  0  0  0  0  0999 V2000
    0.0744   -2.2061    0.0000 C   0  0  0  0  0  0  0  0  0  0  0  0
    1.5108   -1.8403    0.0000 C   0  0  0  0  0  0  0  0  0  0  0  0
    2.0059   -0.4349    0.0000 C   0  0  0  0  0  0  0  0  0  0  0  0
    3.4929   -0.1036    0.0000 N   0  0  0  0  0  0  0  0  0  0  0  0
    2.3511    0.9229    0.0000 C   0  0  0  0  0  0  0  0  0  0  0  0
    2.5812    2.3966    0.0000 O   0  0  0  0  0  0  0  0  0  0  0  0
    0.7588    0.1293    0.0000 C   0  0  0  0  0  0  0  0  0  0  0  0
   -0.5493    0.8788    0.0000 C   0  0  0  0  0  0  0  0  0  0  0  0
   -1.8395    0.1141    0.0000 C   0  0  0  0  0  0  0  0  0  0  0  0
    0.8509   -1.1052    0.0000 C   0  0  0  0  0  0  0  0  0  0  0  0
    1.3201    0.3818    0.0000 C   0  0  0  0  0  0  0  0  0  0  0  0
    3.3985    0.3653    0.0000 C   0  0  0  0  0  0  0  0  0  0  0  0
    5.2534    0.0770    0.0000 C   0  0  0  0  0  0  0  0  0  0  0  0
    6.6482    0.6017    0.0000 N   0  0  0  0  0  0  0  0  0  0  0  0
    7.0161    2.0538    0.0000 C   0  0  0  0  0  0  0  0  0  0  0  0
    7.6119   -0.5355    0.0000 C   0  0  0  0  0  0  0  0  0  0  0  0
    9.1136   -0.5198    0.0000 C   0  0  0  0  0  0  0  0  0  0  0  0
    9.8345   -1.8345    0.0000 C   0  0  0  0  0  0  0  0  0  0  0  0
    9.0650   -3.1230    0.0000 C   0  0  0  0  0  0  0  0  0  0  0  0
    7.5649   -3.1176    0.0000 C   0  0  0  0  0  0  0  0  0  0  0  0
    6.8308   -1.8082    0.0000 C   0  0  0  0  0  0  0  0  0  0  0  0
    5.3824   -1.5072    0.0000 C   0  0  0  0  0  0  0  0  0  0  0  0
    4.5195   -2.5238    0.0000 C   0  0  0  0  0  0  0  0  0  0  0  0
    3.1579   -1.9228    0.0000 C   0  0  0  0  0  0  0  0  0  0  0  0
    2.2203   -2.1080    0.0000 C   0  0  0  0  0  0  0  0  0  0  0  0
    3.6615   -0.9356    0.0000 C   0  0  0  0  0  0  0  0  0  0  0  0
    2.9227    0.3926    0.0000 O   0  0  0  0  0  0  0  0  0  0  0  0
  1  2  1  0  0  0  0
  2  3  1  0  0  0  0
  3  4  1  0  0  0  0
  5  4  1  0  0  0  0
 12  4  1  0  0  0  0
  4 24  1  0  0  0  0
  5  6  1  0  0  0  0
  7  5  1  0  0  0  0
  7  8  1  0  0  0  0
 10  7  1  0  0  0  0
  8  9  1  0  0  0  0
 11 10  1  0  0  0  0
 10 25  1  0  0  0  0
 12 11  1  0  0  0  0
 13 12  1  0  0  0  0
 14 13  1  0  0  0  0
 13 22  1  0  0  0  0
 14 15  1  0  0  0  0
 16 14  1  0  0  0  0
 17 16  1  0  0  0  0
 16 21  2  0  0  0  0
 18 17  2  0  0  0  0
 19 18  1  0  0  0  0
 20 19  2  0  0  0  0
 21 20  1  0  0  0  0
 22 21  1  0  0  0  0
 22 23  1  0  0  0  0
 26 22  1  0  0  0  0
 23 24  1  0  0  0  0
 24 25  1  0  0  0  0
 25 26  1  0  0  0  0
 26 27  1  0  0  0  0
M  CHG  1   4   1
M  END
> <Inchi_key>
UAUHEPXILIZYCU-UHFFFAOYSA-N

> <Source>
Mulliner

> <ID>
HT1717

> <H_MFHB>
1

> <CAS>


> <Cholestasis>


> <Name>
prajmalium bitartrate

> <Class>
1


$$$$