

  -INDIGO-08031710012D

 12 12  0  0  0  0  0  0  0  0999 V2000
    2.5870    1.6818    0.0000 N   0  0  0  0  0  0  0  0  0  0  0  0
    3.3370    0.3828    0.0000 C   0  0  0  0  0  0  0  0  0  0  0  0
    2.5870   -0.9163    0.0000 C   0  0  0  0  0  0  0  0  0  0  0  0
    4.0870   -0.9163    0.0000 C   0  0  0  0  0  0  0  0  0  0  0  0
    4.8370   -2.2153    0.0000 C   0  0  0  0  0  0  0  0  0  0  0  0
    4.0870   -3.5143    0.0000 O   0  0  0  0  0  0  0  0  0  0  0  0
    6.3370   -2.2153    0.0000 O   0  0  0  0  0  0  0  0  0  0  0  0
    1.2880   -0.1663    0.0000 C   0  0  0  0  0  0  0  0  0  0  0  0
   -0.0111   -0.9163    0.0000 C   0  0  0  0  0  0  0  0  0  0  0  0
   -0.0111   -2.4163    0.0000 C   0  0  0  0  0  0  0  0  0  0  0  0
    1.2880   -3.1663    0.0000 C   0  0  0  0  0  0  0  0  0  0  0  0
    2.5870   -2.4163    0.0000 C   0  0  0  0  0  0  0  0  0  0  0  0
  1  2  1  0  0  0  0
  2  3  1  0  0  0  0
  3  4  1  0  0  0  0
  8  3  1  0  0  0  0
  3 12  1  0  0  0  0
  4  5  1  0  0  0  0
  5  6  2  0  0  0  0
  5  7  1  0  0  0  0
  9  8  1  0  0  0  0
 10  9  1  0  0  0  0
 11 10  1  0  0  0  0
 12 11  1  0  0  0  0
M  END
> <Inchi_key>
UGJMXCAKCUNAIE-UHFFFAOYSA-N

> <Source>
Mulliner , Kotsampasakou

> <ID>
EK0236;HT0947

> <H_MFHB>
1

> <CAS>


> <Cholestasis>
1

> <Name>
gabapentin

> <Class>
1


$$$$