

  -INDIGO-08031710012D

 32 33  0  0  0  0  0  0  0  0999 V2000
   21.4008   -9.2604    0.0000 C   0  0  0  0  0  0  0  0  0  0  0  0
   19.9116   -9.4413    0.0000 C   0  0  0  0  0  0  0  0  0  0  0  0
   19.3239  -10.8214    0.0000 C   0  0  0  0  0  0  0  0  0  0  0  0
   19.0103   -8.2424    0.0000 O   0  0  0  0  0  0  0  0  0  0  0  0
   17.5215   -8.4232    0.0000 C   0  0  0  0  0  0  0  0  0  0  0  0
   16.9338   -9.8032    0.0000 O   0  0  0  0  0  0  0  0  0  0  0  0
   16.6202   -7.2242    0.0000 C   0  0  0  0  0  0  0  0  0  0  0  0
   15.1313   -7.4050    0.0000 C   0  0  0  0  0  0  0  0  0  0  0  0
   14.2298   -6.2059    0.0000 C   0  0  0  0  0  0  0  0  0  0  0  0
   14.8177   -4.8260    0.0000 C   0  0  0  0  0  0  0  0  0  0  0  0
   13.9165   -3.6269    0.0000 C   0  0  0  0  0  0  0  0  0  0  0  0
   12.4276   -3.8079    0.0000 C   0  0  0  0  0  0  0  0  0  0  0  0
   11.5264   -2.6089    0.0000 C   0  0  0  0  0  0  0  0  0  0  0  0
   11.9665   -1.1749    0.0000 C   0  0  0  0  0  0  0  0  0  0  0  0
   13.3854   -0.6884    0.0000 O   0  0  0  0  0  0  0  0  0  0  0  0
   10.7389   -0.3130    0.0000 C   0  0  0  0  0  0  0  0  0  0  0  0
    9.5398   -1.2143    0.0000 C   0  0  0  0  0  0  0  0  0  0  0  0
    8.1058   -0.7738    0.0000 O   0  0  0  0  0  0  0  0  0  0  0  0
   10.0264   -2.6331    0.0000 C   0  0  0  0  0  0  0  0  0  0  0  0
    9.1644   -3.8609    0.0000 C   0  0  0  0  0  0  0  0  0  0  0  0
    7.6702   -3.7282    0.0000 C   0  0  0  0  0  0  0  0  0  0  0  0
    6.8086   -4.9559    0.0000 C   0  0  0  0  0  0  0  0  0  0  0  0
    6.6758   -6.4500    0.0000 F   0  0  0  0  0  0  0  0  0  0  0  0
    8.0362   -5.8177    0.0000 F   0  0  0  0  0  0  0  0  0  0  0  0
    5.3144   -4.8233    0.0000 C   0  0  0  0  0  0  0  0  0  0  0  0
    4.4524   -6.0509    0.0000 O   0  0  0  0  0  0  0  0  0  0  0  0
    2.9583   -5.9184    0.0000 C   0  0  0  0  0  0  0  0  0  0  0  0
    2.0967   -7.1461    0.0000 C   0  0  0  0  0  0  0  0  0  0  0  0
    0.6025   -7.0135    0.0000 C   0  0  0  0  0  0  0  0  0  0  0  0
   -0.0299   -5.6532    0.0000 C   0  0  0  0  0  0  0  0  0  0  0  0
    0.8321   -4.4254    0.0000 C   0  0  0  0  0  0  0  0  0  0  0  0
    2.3262   -4.5580    0.0000 C   0  0  0  0  0  0  0  0  0  0  0  0
  1  2  1  0  0  0  0
  2  3  1  0  0  0  0
  2  4  1  0  0  0  0
  4  5  1  0  0  0  0
  5  6  2  0  0  0  0
  5  7  1  0  0  0  0
  7  8  1  0  0  0  0
  8  9  1  0  0  0  0
  9 10  1  0  0  0  0
 10 11  2  0  0  0  0
 11 12  1  0  0  0  0
 12 13  1  0  0  0  0
 14 13  1  0  0  0  0
 13 19  1  0  0  0  0
 14 15  1  0  0  0  0
 16 14  1  0  0  0  0
 17 16  1  0  0  0  0
 17 18  1  0  0  0  0
 19 17  1  0  0  0  0
 19 20  1  0  0  0  0
 20 21  2  0  0  0  0
 21 22  1  0  0  0  0
 22 23  1  0  0  0  0
 22 24  1  0  0  0  0
 22 25  1  0  0  0  0
 25 26  1  0  0  0  0
 26 27  1  0  0  0  0
 28 27  2  0  0  0  0
 27 32  1  0  0  0  0
 29 28  1  0  0  0  0
 30 29  2  0  0  0  0
 31 30  1  0  0  0  0
 32 31  2  0  0  0  0
M  END
> <Inchi_key>
WSNODXPBBALQOF-IQPNXQBCSA-N

> <Source>
Mulliner

> <ID>
HT1973

> <H_MFHB>
1

> <CAS>


> <Cholestasis>


> <Name>
tafluprost

> <Class>
1


$$$$