
  -INDIGO-08031710012D

 15 17  0  0  0  0  0  0  0  0999 V2000
    2.8001    2.8000    0.0000 N   0  0  0  0  0  0  0  0  0  0  0  0
    2.8001    1.3000    0.0000 C   0  0  0  0  0  0  0  0  0  0  0  0
    1.5010    0.5500    0.0000 C   0  0  0  0  0  0  0  0  0  0  0  0
    0.2019    1.3000    0.0000 C   0  0  0  0  0  0  0  0  0  0  0  0
   -1.0971    0.5500    0.0000 C   0  0  0  0  0  0  0  0  0  0  0  0
   -1.0971   -0.9500    0.0000 C   0  0  0  0  0  0  0  0  0  0  0  0
    0.2019   -1.7000    0.0000 C   0  0  0  0  0  0  0  0  0  0  0  0
    1.5010   -0.9500    0.0000 C   0  0  0  0  0  0  0  0  0  0  0  0
    2.8001   -1.7000    0.0000 N   0  0  0  0  0  0  0  0  0  0  0  0
    4.0990   -0.9500    0.0000 C   0  0  0  0  0  0  0  0  0  0  0  0
    5.3981   -1.7000    0.0000 C   0  0  0  0  0  0  0  0  0  0  0  0
    6.6971   -0.9500    0.0000 C   0  0  0  0  0  0  0  0  0  0  0  0
    6.6971    0.5500    0.0000 C   0  0  0  0  0  0  0  0  0  0  0  0
    5.3981    1.3000    0.0000 C   0  0  0  0  0  0  0  0  0  0  0  0
    4.0990    0.5500    0.0000 C   0  0  0  0  0  0  0  0  0  0  0  0
  1  2  1  0  0  0  0
  3  2  2  0  0  0  0
  2 15  1  0  0  0  0
  4  3  1  0  0  0  0
  3  8  1  0  0  0  0
  5  4  1  0  0  0  0
  6  5  1  0  0  0  0
  7  6  1  0  0  0  0
  8  7  1  0  0  0  0
  9  8  2  0  0  0  0
 10  9  1  0  0  0  0
 11 10  1  0  0  0  0
 10 15  2  0  0  0  0
 12 11  2  0  0  0  0
 13 12  1  0  0  0  0
 14 13  2  0  0  0  0
 15 14  1  0  0  0  0
M  END
> <Inchi_key>
YLJREFDVOIBQDA-UHFFFAOYSA-N

> <Source>
Mulliner

> <ID>
HT1970

> <H_MFHB>
1

> <CAS>


> <Cholestasis>


> <Name>
tacrine hydrochloride;tacrine

> <Class>
1

$$$$