

  -INDIGO-08031710012D

 35 37  0  0  0  0  0  0  0  0999 V2000
    4.3056   -5.4392    0.0000 C   0  0  0  0  0  0  0  0  0  0  0  0
    3.5556   -4.1401    0.0000 C   0  0  0  0  0  0  0  0  0  0  0  0
    4.3056   -2.8411    0.0000 C   0  0  0  0  0  0  0  0  0  0  0  0
    5.8056   -2.8411    0.0000 C   0  0  0  0  0  0  0  0  0  0  0  0
    6.5556   -4.1401    0.0000 C   0  0  0  0  0  0  0  0  0  0  0  0
    8.0555   -4.1401    0.0000 C   0  0  0  0  0  0  0  0  0  0  0  0
    9.0591   -5.2549    0.0000 C   0  0  0  0  0  0  0  0  0  0  0  0
   10.4296   -4.6447    0.0000 C   0  0  0  0  0  0  0  0  0  0  0  0
   10.2728   -3.1530    0.0000 N   0  0  0  0  0  0  0  0  0  0  0  0
   11.3874   -2.1494    0.0000 C   0  0  0  0  0  0  0  0  0  0  0  0
   12.8141   -2.6127    0.0000 C   0  0  0  0  0  0  0  0  0  0  0  0
   13.9287   -1.6091    0.0000 C   0  0  0  0  0  0  0  0  0  0  0  0
   15.3554   -2.0726    0.0000 O   0  0  0  0  0  0  0  0  0  0  0  0
    8.8055   -2.8411    0.0000 C   0  0  0  0  0  0  0  0  0  0  0  0
    8.0555   -1.5420    0.0000 C   0  0  0  0  0  0  0  0  0  0  0  0
    6.5556   -1.5420    0.0000 C   0  0  0  0  0  0  0  0  0  0  0  0
    8.8055   -0.2430    0.0000 C   0  0  0  0  0  0  0  0  0  0  0  0
   10.3055   -0.2430    0.0000 O   0  0  0  0  0  0  0  0  0  0  0  0
    8.0555    1.0559    0.0000 N   0  0  0  0  0  0  0  0  0  0  0  0
    2.0557   -4.1401    0.0000 N   0  0  0  0  0  0  0  0  0  0  0  0
    1.3054   -2.8411    0.0000 C   0  0  0  0  0  0  0  0  0  0  0  0
   -0.1946   -2.8411    0.0000 C   0  0  0  0  0  0  0  0  0  0  0  0
   -0.9446   -1.5420    0.0000 O   0  0  0  0  0  0  0  0  0  0  0  0
   -2.4446   -1.5420    0.0000 C   0  0  0  0  0  0  0  0  0  0  0  0
   -3.1945   -2.8411    0.0000 C   0  0  0  0  0  0  0  0  0  0  0  0
   -4.6945   -2.8411    0.0000 C   0  0  0  0  0  0  0  0  0  0  0  0
   -5.4445   -1.5420    0.0000 C   0  0  0  0  0  0  0  0  0  0  0  0
   -4.6945   -0.2430    0.0000 C   0  0  0  0  0  0  0  0  0  0  0  0
   -3.1945   -0.2430    0.0000 C   0  0  0  0  0  0  0  0  0  0  0  0
   -2.4446    1.0559    0.0000 O   0  0  0  0  0  0  0  0  0  0  0  0
   -3.1945    2.3550    0.0000 C   0  0  0  0  0  0  0  0  0  0  0  0
   -2.4446    3.6540    0.0000 C   0  0  0  0  0  0  0  0  0  0  0  0
   -1.6946    4.9531    0.0000 F   0  0  0  0  0  0  0  0  0  0  0  0
   -1.1455    2.9041    0.0000 F   0  0  0  0  0  0  0  0  0  0  0  0
   -3.7436    4.4041    0.0000 F   0  0  0  0  0  0  0  0  0  0  0  0
  1  2  1  0  0  0  0
  2  3  1  0  0  0  0
  2 20  1  0  0  0  0
  3  4  1  0  0  0  0
  5  4  2  0  0  0  0
  4 16  1  0  0  0  0
  6  5  1  0  0  0  0
  7  6  1  0  0  0  0
  6 14  2  0  0  0  0
  8  7  1  0  0  0  0
  9  8  1  0  0  0  0
  9 10  1  0  0  0  0
 14  9  1  0  0  0  0
 10 11  1  0  0  0  0
 11 12  1  0  0  0  0
 12 13  1  0  0  0  0
 15 14  1  0  0  0  0
 16 15  2  0  0  0  0
 15 17  1  0  0  0  0
 17 18  2  0  0  0  0
 17 19  1  0  0  0  0
 20 21  1  0  0  0  0
 21 22  1  0  0  0  0
 22 23  1  0  0  0  0
 23 24  1  0  0  0  0
 25 24  2  0  0  0  0
 24 29  1  0  0  0  0
 26 25  1  0  0  0  0
 27 26  2  0  0  0  0
 28 27  1  0  0  0  0
 29 28  2  0  0  0  0
 29 30  1  0  0  0  0
 30 31  1  0  0  0  0
 31 32  1  0  0  0  0
 32 33  1  0  0  0  0
 32 34  1  0  0  0  0
 32 35  1  0  0  0  0
M  END
> <Inchi_key>
PNCPYILNMDWPEY-UHFFFAOYSA-N

> <Source>
Mulliner

> <ID>
HT1886

> <H_MFHB>
1

> <CAS>


> <Cholestasis>


> <Name>
silodosin

> <Class>
1


$$$$