
  -INDIGO-08031710012D

 14 13  0  0  0  0  0  0  0  0999 V2000
   11.4707    0.8236    0.0000 C   0  0  0  0  0  0  0  0  0  0  0  0
   10.1716    1.5736    0.0000 S   0  0  0  0  0  0  0  0  0  0  0  0
   10.9216    2.8726    0.0000 O   0  0  0  0  0  0  0  0  0  0  0  0
    9.4216    0.2745    0.0000 O   0  0  0  0  0  0  0  0  0  0  0  0
    8.8727    2.3236    0.0000 O   0  0  0  0  0  0  0  0  0  0  0  0
    7.5736    1.5736    0.0000 C   0  0  0  0  0  0  0  0  0  0  0  0
    6.2745    2.3236    0.0000 C   0  0  0  0  0  0  0  0  0  0  0  0
    4.9755    1.5736    0.0000 C   0  0  0  0  0  0  0  0  0  0  0  0
    3.6764    2.3236    0.0000 C   0  0  0  0  0  0  0  0  0  0  0  0
    2.3773    1.5736    0.0000 O   0  0  0  0  0  0  0  0  0  0  0  0
    1.0784    2.3236    0.0000 S   0  0  0  0  0  0  0  0  0  0  0  0
    0.3284    1.0245    0.0000 O   0  0  0  0  0  0  0  0  0  0  0  0
    1.8284    3.6226    0.0000 O   0  0  0  0  0  0  0  0  0  0  0  0
   -0.2207    3.0736    0.0000 C   0  0  0  0  0  0  0  0  0  0  0  0
  1  2  1  0  0  0  0
  2  3  2  0  0  0  0
  2  4  2  0  0  0  0
  2  5  1  0  0  0  0
  5  6  1  0  0  0  0
  6  7  1  0  0  0  0
  7  8  1  0  0  0  0
  8  9  1  0  0  0  0
  9 10  1  0  0  0  0
 10 11  1  0  0  0  0
 11 12  2  0  0  0  0
 11 13  2  0  0  0  0
 11 14  1  0  0  0  0
M  END
> <Inchi_key>
COVZYZSDYWQREU-UHFFFAOYSA-N

> <Source>
Mulliner

> <ID>
HT0332

> <H_MFHB>
1

> <CAS>


> <Cholestasis>


> <Name>
busulfan

> <Class>
1

$$$$