
  -INDIGO-08031710012D

 33 34  0  0  0  0  0  0  0  0999 V2000
   -0.9188   -3.4293    0.0000 C   0  0  0  0  0  0  0  0  0  0  0  0
    0.3802   -4.1793    0.0000 O   0  0  0  0  0  0  0  0  0  0  0  0
    1.6792   -3.4293    0.0000 C   0  0  0  0  0  0  0  0  0  0  0  0
    2.9782   -4.1793    0.0000 C   0  0  0  0  0  0  0  0  0  0  0  0
    2.9782   -5.6792    0.0000 C   0  0  0  0  0  0  0  0  0  0  0  0
    4.2774   -6.4292    0.0000 N   0  0  0  0  0  0  0  0  0  0  0  0
    5.5764   -5.6792    0.0000 C   0  0  0  0  0  0  0  0  0  0  0  0
    6.8754   -6.4292    0.0000 C   0  0  0  0  0  0  0  0  0  0  0  0
    8.1744   -5.6792    0.0000 C   0  0  0  0  0  0  0  0  0  0  0  0
    6.8754   -7.9292    0.0000 C   0  0  0  0  0  0  0  0  0  0  0  0
    5.5764   -4.1793    0.0000 C   0  0  0  0  0  0  0  0  0  0  0  0
    6.8754   -3.4293    0.0000 C   0  0  0  0  0  0  0  0  0  0  0  0
    8.1744   -4.1793    0.0000 C   0  0  0  0  0  0  0  0  0  0  0  0
    9.4734   -3.4293    0.0000 C   0  0  0  0  0  0  0  0  0  0  0  0
    9.4734   -1.9291    0.0000 O   0  0  0  0  0  0  0  0  0  0  0  0
   10.7724   -4.1793    0.0000 C   0  0  0  0  0  0  0  0  0  0  0  0
   12.0716   -3.4293    0.0000 C   0  0  0  0  0  0  0  0  0  0  0  0
   12.0716   -1.9291    0.0000 O   0  0  0  0  0  0  0  0  0  0  0  0
   13.3706   -4.1793    0.0000 C   0  0  0  0  0  0  0  0  0  0  0  0
   14.6696   -3.4293    0.0000 C   0  0  0  0  0  0  0  0  0  0  0  0
   15.9686   -4.1793    0.0000 O   0  0  0  0  0  0  0  0  0  0  0  0
   14.6696   -1.9291    0.0000 O   0  0  0  0  0  0  0  0  0  0  0  0
    4.2774   -3.4293    0.0000 C   0  0  0  0  0  0  0  0  0  0  0  0
    4.2774   -1.9291    0.0000 C   0  0  0  0  0  0  0  0  0  0  0  0
    2.9782   -1.1791    0.0000 C   0  0  0  0  0  0  0  0  0  0  0  0
    2.9782    0.3208    0.0000 C   0  0  0  0  0  0  0  0  0  0  0  0
    4.2774    1.0708    0.0000 C   0  0  0  0  0  0  0  0  0  0  0  0
    4.2774    2.5708    0.0000 F   0  0  0  0  0  0  0  0  0  0  0  0
    5.5764    0.3208    0.0000 C   0  0  0  0  0  0  0  0  0  0  0  0
    5.5764   -1.1791    0.0000 C   0  0  0  0  0  0  0  0  0  0  0  0
    1.6792   -6.4292    0.0000 C   0  0  0  0  0  0  0  0  0  0  0  0
    1.6792   -7.9292    0.0000 C   0  0  0  0  0  0  0  0  0  0  0  0
    0.3802   -5.6792    0.0000 C   0  0  0  0  0  0  0  0  0  0  0  0
  1  2  1  0  0  0  0
  2  3  1  0  0  0  0
  3  4  1  0  0  0  0
  5  4  2  0  0  0  0
  4 23  1  0  0  0  0
  6  5  1  0  0  0  0
  5 31  1  0  0  0  0
  7  6  2  0  0  0  0
  7  8  1  0  0  0  0
 11  7  1  0  0  0  0
  8  9  1  0  0  0  0
  8 10  1  0  0  0  0
 11 12  1  0  0  0  0
 23 11  2  0  0  0  0
 12 13  2  0  0  0  0
 13 14  1  0  0  0  0
 14 15  1  0  0  0  0
 14 16  1  0  0  0  0
 16 17  1  0  0  0  0
 17 18  1  0  0  0  0
 17 19  1  0  0  0  0
 19 20  1  0  0  0  0
 20 21  2  0  0  0  0
 20 22  1  0  0  0  0
 23 24  1  0  0  0  0
 25 24  2  0  0  0  0
 24 30  1  0  0  0  0
 26 25  1  0  0  0  0
 27 26  2  0  0  0  0
 27 28  1  0  0  0  0
 29 27  1  0  0  0  0
 30 29  2  0  0  0  0
 31 32  1  0  0  0  0
 31 33  1  0  0  0  0
M  END
> <Inchi_key>
SEERZIQQUAZTOL-ZHACJKMWSA-N

> <Source>
Mulliner

> <ID>
HT0436

> <H_MFHB>
1

> <CAS>


> <Cholestasis>


> <Name>
cerivastatin sodium;cerivastatin

> <Class>
1

$$$$