
  -INDIGO-08031710012D

 23 25  0  0  0  0  0  0  0  0999 V2000
    2.2501    4.7181    0.0000 C   0  0  0  0  0  0  0  0  0  0  0  0
    1.5001    3.4191    0.0000 N   0  0  0  0  0  0  0  0  0  0  0  0
    2.2501    2.1200    0.0000 C   0  0  0  0  0  0  0  0  0  0  0  0
    1.5001    0.8210    0.0000 C   0  0  0  0  0  0  0  0  0  0  0  0
    2.2501   -0.4781    0.0000 O   0  0  0  0  0  0  0  0  0  0  0  0
    0.0000    0.8210    0.0000 C   0  0  0  0  0  0  0  0  0  0  0  0
   -0.7500   -0.4781    0.0000 C   0  0  0  0  0  0  0  0  0  0  0  0
   -2.2500   -0.4781    0.0000 C   0  0  0  0  0  0  0  0  0  0  0  0
   -3.0000    0.8210    0.0000 C   0  0  0  0  0  0  0  0  0  0  0  0
   -2.2500    2.1200    0.0000 C   0  0  0  0  0  0  0  0  0  0  0  0
   -0.7500    2.1200    0.0000 C   0  0  0  0  0  0  0  0  0  0  0  0
    0.0000    3.4191    0.0000 S   0  0  0  0  0  0  0  0  0  0  0  0
    0.0000    4.9191    0.0000 O   0  0  0  0  0  0  0  0  0  0  0  0
   -1.2989    4.1691    0.0000 O   0  0  0  0  0  0  0  0  0  0  0  0
    3.7499    2.1200    0.0000 C   0  0  0  0  0  0  0  0  0  0  0  0
    4.4999    3.4191    0.0000 O   0  0  0  0  0  0  0  0  0  0  0  0
    4.4999    0.8210    0.0000 N   0  0  0  0  0  0  0  0  0  0  0  0
    6.0000    0.8210    0.0000 C   0  0  0  0  0  0  0  0  0  0  0  0
    6.7500    2.1200    0.0000 C   0  0  0  0  0  0  0  0  0  0  0  0
    8.2500    2.1200    0.0000 C   0  0  0  0  0  0  0  0  0  0  0  0
    9.0000    0.8210    0.0000 C   0  0  0  0  0  0  0  0  0  0  0  0
    8.2500   -0.4781    0.0000 C   0  0  0  0  0  0  0  0  0  0  0  0
    6.7500   -0.4781    0.0000 N   0  0  0  0  0  0  0  0  0  0  0  0
  1  2  1  0  0  0  0
  3  2  1  0  0  0  0
  2 12  1  0  0  0  0
  4  3  2  0  0  0  0
  3 15  1  0  0  0  0
  4  5  1  0  0  0  0
  6  4  1  0  0  0  0
  7  6  1  0  0  0  0
  6 11  2  0  0  0  0
  8  7  2  0  0  0  0
  9  8  1  0  0  0  0
 10  9  2  0  0  0  0
 11 10  1  0  0  0  0
 12 11  1  0  0  0  0
 12 13  2  0  0  0  0
 12 14  2  0  0  0  0
 15 16  2  0  0  0  0
 15 17  1  0  0  0  0
 17 18  1  0  0  0  0
 19 18  2  0  0  0  0
 18 23  1  0  0  0  0
 20 19  1  0  0  0  0
 21 20  2  0  0  0  0
 22 21  1  0  0  0  0
 23 22  2  0  0  0  0
M  END
> <Inchi_key>
QYSPLQLAKJAUJT-UHFFFAOYSA-N

> <Source>
Mulliner

> <ID>
HT1696

> <H_MFHB>
1

> <CAS>


> <Cholestasis>


> <Name>
piroxicam

> <Class>
1

$$$$