
  -INDIGO-08031710012D

 12 12  0  0  0  0  0  0  0  0999 V2000
    4.6925    0.9531    0.0000 C   0  0  0  0  0  0  0  0  0  0  0  0
    3.3113    0.3679    0.0000 C   0  0  0  0  0  0  0  0  0  0  0  0
    2.0261    1.1413    0.0000 N   0  0  0  0  0  0  0  0  0  0  0  0
    0.8934    0.1580    0.0000 C   0  0  0  0  0  0  0  0  0  0  0  0
    1.4786   -1.2232    0.0000 C   0  0  0  0  0  0  0  0  0  0  0  0
    0.7053   -2.5084    0.0000 N   0  0  0  0  0  0  0  0  0  0  0  0
   -0.7945   -2.4813    0.0000 O   0  0  0  0  0  0  0  0  0  0  0  0
    1.4316   -3.8208    0.0000 O   0  0  0  0  0  0  0  0  0  0  0  0
    2.9730   -1.0934    0.0000 N   0  0  0  0  0  0  0  0  0  0  0  0
    3.9564   -2.2261    0.0000 C   0  0  0  0  0  0  0  0  0  0  0  0
    5.4290   -1.9409    0.0000 C   0  0  0  0  0  0  0  0  0  0  0  0
    6.4124   -3.0736    0.0000 O   0  0  0  0  0  0  0  0  0  0  0  0
  1  2  1  0  0  0  0
  3  2  2  0  0  0  0
  2  9  1  0  0  0  0
  4  3  1  0  0  0  0
  5  4  2  0  0  0  0
  5  6  1  0  0  0  0
  9  5  1  0  0  0  0
  6  7  2  0  0  0  0
  6  8  1  0  0  0  0
  9 10  1  0  0  0  0
 10 11  1  0  0  0  0
 11 12  1  0  0  0  0
M  CHG  2   6   1   8  -1
M  END
> <Inchi_key>
VAOCPAMSLUNLGC-UHFFFAOYSA-N

> <Source>
Mulliner

> <ID>
HT1382

> <H_MFHB>
1

> <CAS>


> <Cholestasis>


> <Name>
metronidazole;metronidazole hydrochloride

> <Class>
1

$$$$