
  -INDIGO-08031710012D

 22 25  0  0  0  0  0  0  0  0999 V2000
   10.1300    0.8634    0.0000 C   0  0  0  0  0  0  0  0  0  0  0  0
    9.3886   -0.4405    0.0000 C   0  0  0  0  0  0  0  0  0  0  0  0
    7.8887   -0.4507    0.0000 C   0  0  0  0  0  0  0  0  0  0  0  0
    7.1475   -1.7547    0.0000 N   0  0  0  0  0  0  0  0  0  0  0  0
    7.9027   -3.0507    0.0000 C   0  0  0  0  0  0  0  0  0  0  0  0
    7.1581   -4.3527    0.0000 C   0  0  0  0  0  0  0  0  0  0  0  0
    7.9134   -5.6487    0.0000 C   0  0  0  0  0  0  0  0  0  0  0  0
    9.4135   -5.6426    0.0000 S   0  0  0  0  0  0  0  0  0  0  0  0
   10.1687   -6.9385    0.0000 C   0  0  0  0  0  0  0  0  0  0  0  0
    5.6594   -4.3587    0.0000 C   0  0  0  0  0  0  0  0  0  0  0  0
    4.9130   -3.0303    0.0000 C   0  0  0  0  0  0  0  0  0  0  0  0
    5.6521   -1.7687    0.0000 C   0  0  0  0  0  0  0  0  0  0  0  0
    4.9245   -0.4947    0.0000 C   0  0  0  0  0  0  0  0  0  0  0  0
    3.4602   -0.4853    0.0000 C   0  0  0  0  0  0  0  0  0  0  0  0
    2.4793    0.6458    0.0000 C   0  0  0  0  0  0  0  0  0  0  0  0
    0.8640   -0.2882    0.0000 N   0  0  0  0  0  0  0  0  0  0  0  0
    1.2529   -1.7458    0.0000 C   0  0  0  0  0  0  0  0  0  0  0  0
    0.5150   -3.0194    0.0000 C   0  0  0  0  0  0  0  0  0  0  0  0
    1.2459   -4.2941    0.0000 C   0  0  0  0  0  0  0  0  0  0  0  0
    2.7084   -4.2931    0.0000 C   0  0  0  0  0  0  0  0  0  0  0  0
    3.4477   -3.0313    0.0000 C   0  0  0  0  0  0  0  0  0  0  0  0
    2.7221   -1.7559    0.0000 C   0  0  0  0  0  0  0  0  0  0  0  0
  1  2  1  0  0  0  0
  2  3  1  0  0  0  0
  3  4  1  0  0  0  0
  5  4  1  0  0  0  0
  4 12  1  0  0  0  0
  6  5  1  0  0  0  0
  6  7  1  0  0  0  0
 10  6  1  0  0  0  0
  7  8  1  0  0  0  0
  8  9  1  0  0  0  0
 11 10  1  0  0  0  0
 11 12  1  0  0  0  0
 21 11  1  0  0  0  0
 12 13  1  0  0  0  0
 13 14  1  0  0  0  0
 15 14  2  0  0  0  0
 14 22  1  0  0  0  0
 16 15  1  0  0  0  0
 17 16  1  0  0  0  0
 18 17  1  0  0  0  0
 17 22  2  0  0  0  0
 19 18  2  0  0  0  0
 20 19  1  0  0  0  0
 21 20  2  0  0  0  0
 22 21  1  0  0  0  0
M  END
> <Inchi_key>
YEHCICAEULNIGD-UHFFFAOYSA-N

> <Source>
Mulliner

> <ID>
HT1634

> <H_MFHB>
1

> <CAS>


> <Cholestasis>


> <Name>
pergolide mesylate;pergolide

> <Class>
1

$$$$