

  -INDIGO-08031710012D

 26 28  0  0  0  0  0  0  0  0999 V2000
   16.4217    2.7257    0.0000 N   0  0  0  0  0  0  0  0  0  0  0  0
   14.9401    2.4910    0.0000 C   0  0  0  0  0  0  0  0  0  0  0  0
   14.2590    1.1545    0.0000 N   0  0  0  0  0  0  0  0  0  0  0  0
   12.7776    1.3892    0.0000 C   0  0  0  0  0  0  0  0  0  0  0  0
   12.5429    2.8707    0.0000 C   0  0  0  0  0  0  0  0  0  0  0  0
   13.8795    3.5517    0.0000 S   0  0  0  0  0  0  0  0  0  0  0  0
   11.7168    0.3285    0.0000 C   0  0  0  0  0  0  0  0  0  0  0  0
   12.1051   -1.1204    0.0000 N   0  0  0  0  0  0  0  0  0  0  0  0
   13.5540   -1.5086    0.0000 O   0  0  0  0  0  0  0  0  0  0  0  0
   10.2681    0.7168    0.0000 C   0  0  0  0  0  0  0  0  0  0  0  0
    9.8798    2.1656    0.0000 O   0  0  0  0  0  0  0  0  0  0  0  0
    9.2073   -0.3439    0.0000 N   0  0  0  0  0  0  0  0  0  0  0  0
    7.7584    0.0443    0.0000 C   0  0  0  0  0  0  0  0  0  0  0  0
    6.4594   -0.7057    0.0000 C   0  0  0  0  0  0  0  0  0  0  0  0
    5.7094   -2.0047    0.0000 S   0  0  0  0  0  0  0  0  0  0  0  0
    4.2095   -2.0047    0.0000 C   0  0  0  0  0  0  0  0  0  0  0  0
    3.4595   -0.7057    0.0000 C   0  0  0  0  0  0  0  0  0  0  0  0
    4.2095    0.5934    0.0000 C   0  0  0  0  0  0  0  0  0  0  0  0
    5.7094    0.5934    0.0000 N   0  0  0  0  0  0  0  0  0  0  0  0
    7.0084    1.3434    0.0000 C   0  0  0  0  0  0  0  0  0  0  0  0
    7.3967    2.7923    0.0000 O   0  0  0  0  0  0  0  0  0  0  0  0
    3.4595    1.8924    0.0000 C   0  0  0  0  0  0  0  0  0  0  0  0
    4.2095    3.1914    0.0000 O   0  0  0  0  0  0  0  0  0  0  0  0
    1.9595    1.8924    0.0000 O   0  0  0  0  0  0  0  0  0  0  0  0
    1.9595   -0.7057    0.0000 C   0  0  0  0  0  0  0  0  0  0  0  0
    1.2095   -2.0047    0.0000 C   0  0  0  0  0  0  0  0  0  0  0  0
  1  2  1  0  0  0  0
  3  2  2  0  0  0  0
  2  6  1  0  0  0  0
  4  3  1  0  0  0  0
  5  4  2  0  0  0  0
  4  7  1  0  0  0  0
  6  5  1  0  0  0  0
  7  8  2  0  0  0  0
  7 10  1  0  0  0  0
  8  9  1  0  0  0  0
 10 11  2  0  0  0  0
 10 12  1  0  0  0  0
 12 13  1  0  0  0  0
 14 13  1  0  0  0  0
 13 20  1  0  0  0  0
 15 14  1  0  0  0  0
 14 19  1  0  0  0  0
 16 15  1  0  0  0  0
 17 16  1  0  0  0  0
 18 17  2  0  0  0  0
 17 25  1  0  0  0  0
 19 18  1  0  0  0  0
 18 22  1  0  0  0  0
 20 19  1  0  0  0  0
 20 21  2  0  0  0  0
 22 23  2  0  0  0  0
 22 24  1  0  0  0  0
 25 26  2  0  0  0  0
M  END
> <Inchi_key>
RTXOFQZKPXMALH-CNHKJKLMSA-N, RTXOFQZKPXMALH-WSVATBPTSA-N

> <Source>
Mulliner,  Kotsampasakou

> <ID>
EK0103;HT0401

> <H_MFHB>
1

> <CAS>


> <Cholestasis>
1

> <Name>
cefdinir

> <Class>
1


$$$$