

  -INDIGO-08031710012D

 16 17  0  0  0  0  0  0  0  0999 V2000
   10.3125    0.3248    0.0000 N   0  0  0  0  0  0  0  0  0  0  0  0
    8.8126    0.3248    0.0000 C   0  0  0  0  0  0  0  0  0  0  0  0
    8.0625   -0.9743    0.0000 N   0  0  0  0  0  0  0  0  0  0  0  0
    6.5625   -0.9743    0.0000 N   0  0  0  0  0  0  0  0  0  0  0  0
    5.8126    0.3248    0.0000 C   0  0  0  0  0  0  0  0  0  0  0  0
    6.5625    1.6238    0.0000 C   0  0  0  0  0  0  0  0  0  0  0  0
    5.8126    2.9228    0.0000 N   0  0  0  0  0  0  0  0  0  0  0  0
    8.0625    1.6238    0.0000 N   0  0  0  0  0  0  0  0  0  0  0  0
    4.3125    0.3248    0.0000 C   0  0  0  0  0  0  0  0  0  0  0  0
    3.5625    1.6238    0.0000 C   0  0  0  0  0  0  0  0  0  0  0  0
    2.0625    1.6238    0.0000 C   0  0  0  0  0  0  0  0  0  0  0  0
    1.3125    0.3248    0.0000 C   0  0  0  0  0  0  0  0  0  0  0  0
    2.0625   -0.9743    0.0000 C   0  0  0  0  0  0  0  0  0  0  0  0
    1.3125   -2.2733    0.0000 Cl  0  0  0  0  0  0  0  0  0  0  0  0
    3.5625   -0.9743    0.0000 C   0  0  0  0  0  0  0  0  0  0  0  0
    4.3125   -2.2733    0.0000 Cl  0  0  0  0  0  0  0  0  0  0  0  0
  1  2  1  0  0  0  0
  3  2  2  0  0  0  0
  2  8  1  0  0  0  0
  4  3  1  0  0  0  0
  5  4  2  0  0  0  0
  6  5  1  0  0  0  0
  5  9  1  0  0  0  0
  6  7  1  0  0  0  0
  8  6  2  0  0  0  0
 10  9  2  0  0  0  0
  9 15  1  0  0  0  0
 11 10  1  0  0  0  0
 12 11  2  0  0  0  0
 13 12  1  0  0  0  0
 13 14  1  0  0  0  0
 15 13  2  0  0  0  0
 15 16  1  0  0  0  0
M  END
> <Inchi_key>
PYZRQGJRPPTADH-UHFFFAOYSA-N

> <Source>
Mulliner

> <ID>
HT1169

> <H_MFHB>
1

> <CAS>


> <Cholestasis>


> <Name>
lamotrigine

> <Class>
1


$$$$