

  -INDIGO-08031710012D

 35 39  0  0  0  0  0  0  0  0999 V2000
   -2.1279    3.0646    0.0000 C   0  0  0  0  0  0  0  0  0  0  0  0
   -0.8308    2.3112    0.0000 N   0  0  0  0  0  0  0  0  0  0  0  0
   -0.8348    0.8111    0.0000 C   0  0  0  0  0  0  0  0  0  0  0  0
    0.4701    3.0578    0.0000 C   0  0  0  0  0  0  0  0  0  0  0  0
    1.7672    2.3044    0.0000 C   0  0  0  0  0  0  0  0  0  0  0  0
    3.0682    3.0511    0.0000 C   0  0  0  0  0  0  0  0  0  0  0  0
    3.0721    4.5510    0.0000 C   0  0  0  0  0  0  0  0  0  0  0  0
    1.7748    5.3044    0.0000 C   0  0  0  0  0  0  0  0  0  0  0  0
    0.4741    4.5578    0.0000 C   0  0  0  0  0  0  0  0  0  0  0  0
    4.3731    5.2978    0.0000 C   0  0  0  0  0  0  0  0  0  0  0  0
    5.6701    4.5444    0.0000 C   0  0  0  0  0  0  0  0  0  0  0  0
    6.9711    5.2911    0.0000 C   0  0  0  0  0  0  0  0  0  0  0  0
    7.0979    3.7965    0.0000 C   0  0  0  0  0  0  0  0  0  0  0  0
    6.9748    6.7910    0.0000 C   0  0  0  0  0  0  0  0  0  0  0  0
    8.4028    7.2510    0.0000 C   0  0  0  0  0  0  0  0  0  0  0  0
    9.2812    6.0352    0.0000 C   0  0  0  0  0  0  0  0  0  0  0  0
    8.3965    4.8239    0.0000 C   0  0  0  0  0  0  0  0  0  0  0  0
    9.5598    3.8770    0.0000 O   0  0  0  0  0  0  0  0  0  0  0  0
   10.9615    4.4110    0.0000 C   0  0  0  0  0  0  0  0  0  0  0  0
   11.2001    5.8918    0.0000 O   0  0  0  0  0  0  0  0  0  0  0  0
   12.1248    3.4641    0.0000 C   0  0  0  0  0  0  0  0  0  0  0  0
    8.1066    3.3521    0.0000 C   0  0  0  0  0  0  0  0  0  0  0  0
    9.2360    2.3651    0.0000 O   0  0  0  0  0  0  0  0  0  0  0  0
    6.6871    2.8675    0.0000 C   0  0  0  0  0  0  0  0  0  0  0  0
    5.6778    7.5444    0.0000 C   0  0  0  0  0  0  0  0  0  0  0  0
    5.6817    9.0444    0.0000 C   0  0  0  0  0  0  0  0  0  0  0  0
    4.3846    9.7978    0.0000 C   0  0  0  0  0  0  0  0  0  0  0  0
    3.0836    9.0511    0.0000 C   0  0  0  0  0  0  0  0  0  0  0  0
    1.7866    9.8044    0.0000 C   0  0  0  0  0  0  0  0  0  0  0  0
    0.4856    9.0578    0.0000 C   0  0  0  0  0  0  0  0  0  0  0  0
   -0.8117    9.8111    0.0000 O   0  0  0  0  0  0  0  0  0  0  0  0
    0.4817    7.5578    0.0000 C   0  0  0  0  0  0  0  0  0  0  0  0
    1.7787    6.8044    0.0000 C   0  0  0  0  0  0  0  0  0  0  0  0
    3.0797    7.5510    0.0000 C   0  0  0  0  0  0  0  0  0  0  0  0
    4.3770    6.7978    0.0000 C   0  0  0  0  0  0  0  0  0  0  0  0
  1  2  1  0  0  0  0
  2  3  1  0  0  0  0
  2  4  1  0  0  0  0
  5  4  2  0  0  0  0
  4  9  1  0  0  0  0
  6  5  1  0  0  0  0
  7  6  2  0  0  0  0
  8  7  1  0  0  0  0
  7 10  1  0  0  0  0
  9  8  2  0  0  0  0
 11 10  1  0  0  0  0
 10 35  1  0  0  0  0
 12 11  1  0  0  0  0
 12 13  1  0  0  0  0
 12 14  1  0  0  0  0
 17 12  1  0  0  0  0
 14 15  1  0  0  0  0
 25 14  1  0  0  0  0
 15 16  1  0  0  0  0
 16 17  1  0  0  0  0
 17 18  1  0  0  0  0
 17 22  1  0  0  0  0
 18 19  1  0  0  0  0
 19 20  2  0  0  0  0
 19 21  1  0  0  0  0
 22 23  2  0  0  0  0
 22 24  1  0  0  0  0
 26 25  1  0  0  0  0
 25 35  1  0  0  0  0
 27 26  1  0  0  0  0
 28 27  1  0  0  0  0
 29 28  2  0  0  0  0
 28 34  1  0  0  0  0
 30 29  1  0  0  0  0
 30 31  2  0  0  0  0
 32 30  1  0  0  0  0
 33 32  1  0  0  0  0
 34 33  1  0  0  0  0
 35 34  2  0  0  0  0
M  END
> <Inchi_key>
OOLLAFOLCSJHRE-UHFFFAOYSA-N

> <Source>
Mulliner

> <ID>
HT2150

> <H_MFHB>
1

> <CAS>


> <Cholestasis>


> <Name>
ulipristal acetate

> <Class>
1


$$$$