
  -INDIGO-08031710012D

 14 13  0  0  0  0  0  0  0  0999 V2000
    8.1646    2.1877    0.0000 N   0  0  0  0  0  0  0  0  0  0  0  0
    6.8656    1.4377    0.0000 C   0  0  0  0  0  0  0  0  0  0  0  0
    5.5666    2.1877    0.0000 C   0  0  0  0  0  0  0  0  0  0  0  0
    4.2675    1.4377    0.0000 C   0  0  0  0  0  0  0  0  0  0  0  0
    2.9685    2.1877    0.0000 C   0  0  0  0  0  0  0  0  0  0  0  0
    1.6694    2.9377    0.0000 O   0  0  0  0  0  0  0  0  0  0  0  0
    3.7185    3.4867    0.0000 P   0  0  0  0  0  0  0  0  0  0  0  0
    5.0176    2.7367    0.0000 O   0  0  0  0  0  0  0  0  0  0  0  0
    4.4685    4.7858    0.0000 O   0  0  0  0  0  0  0  0  0  0  0  0
    2.4194    4.2367    0.0000 O   0  0  0  0  0  0  0  0  0  0  0  0
    2.2185    0.8887    0.0000 P   0  0  0  0  0  0  0  0  0  0  0  0
    1.4685   -0.4104    0.0000 O   0  0  0  0  0  0  0  0  0  0  0  0
    0.9194    1.6387    0.0000 O   0  0  0  0  0  0  0  0  0  0  0  0
    3.5175    0.1387    0.0000 O   0  0  0  0  0  0  0  0  0  0  0  0
  1  2  1  0  0  0  0
  2  3  1  0  0  0  0
  3  4  1  0  0  0  0
  4  5  1  0  0  0  0
  5  6  1  0  0  0  0
  5  7  1  0  0  0  0
  5 11  1  0  0  0  0
  7  8  2  0  0  0  0
  7  9  1  0  0  0  0
  7 10  1  0  0  0  0
 11 12  2  0  0  0  0
 11 13  1  0  0  0  0
 11 14  1  0  0  0  0
M  END
> <Inchi_key>
OGSPWJRAVKPPFI-UHFFFAOYSA-N

> <Source>
Mulliner

> <ID>
HT0094

> <H_MFHB>
1

> <CAS>


> <Cholestasis>


> <Name>
alendronate sodium;alendronic acid

> <Class>
1

$$$$