

  -INDIGO-08031710012D

 26 28  0  0  0  0  0  0  0  0999 V2000
    6.3240    4.1986    0.0000 C   0  0  0  0  0  0  0  0  0  0  0  0
    5.7418    2.8161    0.0000 C   0  0  0  0  0  0  0  0  0  0  0  0
    4.2534    2.6292    0.0000 C   0  0  0  0  0  0  0  0  0  0  0  0
    3.6712    1.2469    0.0000 C   0  0  0  0  0  0  0  0  0  0  0  0
    4.5774    0.0514    0.0000 C   0  0  0  0  0  0  0  0  0  0  0  0
    6.0657    0.2384    0.0000 C   0  0  0  0  0  0  0  0  0  0  0  0
    6.6478    1.6208    0.0000 C   0  0  0  0  0  0  0  0  0  0  0  0
    3.9953   -1.3311    0.0000 C   0  0  0  0  0  0  0  0  0  0  0  0
    2.5347   -1.6726    0.0000 C   0  0  0  0  0  0  0  0  0  0  0  0
    2.4080   -3.1671    0.0000 C   0  0  0  0  0  0  0  0  0  0  0  0
    3.7905   -3.7493    0.0000 N   0  0  0  0  0  0  0  0  0  0  0  0
    4.7714   -2.6146    0.0000 N   0  0  0  0  0  0  0  0  0  0  0  0
    6.2661   -2.7411    0.0000 C   0  0  0  0  0  0  0  0  0  0  0  0
    7.1229   -1.5098    0.0000 C   0  0  0  0  0  0  0  0  0  0  0  0
    8.6176   -1.6364    0.0000 C   0  0  0  0  0  0  0  0  0  0  0  0
    9.2554   -2.9941    0.0000 C   0  0  0  0  0  0  0  0  0  0  0  0
    8.3986   -4.2253    0.0000 C   0  0  0  0  0  0  0  0  0  0  0  0
    6.9037   -4.0987    0.0000 C   0  0  0  0  0  0  0  0  0  0  0  0
   10.7500   -3.1205    0.0000 S   0  0  0  0  0  0  0  0  0  0  0  0
   10.8765   -1.6259    0.0000 O   0  0  0  0  0  0  0  0  0  0  0  0
   10.6234   -4.6153    0.0000 O   0  0  0  0  0  0  0  0  0  0  0  0
   12.2447   -3.2471    0.0000 N   0  0  0  0  0  0  0  0  0  0  0  0
    1.1246   -3.9434    0.0000 C   0  0  0  0  0  0  0  0  0  0  0  0
    0.3484   -2.6599    0.0000 F   0  0  0  0  0  0  0  0  0  0  0  0
   -0.1590   -4.7196    0.0000 F   0  0  0  0  0  0  0  0  0  0  0  0
    1.9006   -5.2270    0.0000 F   0  0  0  0  0  0  0  0  0  0  0  0
  1  2  1  0  0  0  0
  3  2  2  0  0  0  0
  2  7  1  0  0  0  0
  4  3  1  0  0  0  0
  5  4  2  0  0  0  0
  6  5  1  0  0  0  0
  5  8  1  0  0  0  0
  7  6  2  0  0  0  0
  9  8  2  0  0  0  0
  8 12  1  0  0  0  0
 10  9  1  0  0  0  0
 11 10  2  0  0  0  0
 10 23  1  0  0  0  0
 12 11  1  0  0  0  0
 12 13  1  0  0  0  0
 14 13  2  0  0  0  0
 13 18  1  0  0  0  0
 15 14  1  0  0  0  0
 16 15  2  0  0  0  0
 17 16  1  0  0  0  0
 16 19  1  0  0  0  0
 18 17  2  0  0  0  0
 19 20  2  0  0  0  0
 19 21  2  0  0  0  0
 19 22  1  0  0  0  0
 23 24  1  0  0  0  0
 23 25  1  0  0  0  0
 23 26  1  0  0  0  0
M  END
> <Inchi_key>
RZEKVGVHFLEQIL-UHFFFAOYSA-N

> <Source>
Mulliner , Kotsampasakou

> <ID>
EK0111;HT0430

> <H_MFHB>
1

> <CAS>
169590-42-5

> <Cholestasis>
1

> <Name>
celecoxib

> <Class>
1


$$$$