
  -INDIGO-08031710012D

 24 27  0  0  0  0  0  0  0  0999 V2000
   -2.2718   -5.5013    0.0000 C   0  0  0  0  0  0  0  0  0  0  0  0
   -1.7883   -4.0814    0.0000 C   0  0  0  0  0  0  0  0  0  0  0  0
   -3.2690   -4.3211    0.0000 O   0  0  0  0  0  0  0  0  0  0  0  0
   -1.9501   -2.5902    0.0000 C   0  0  0  0  0  0  0  0  0  0  0  0
   -0.5820   -1.9754    0.0000 C   0  0  0  0  0  0  0  0  0  0  0  0
    0.4255   -3.0867    0.0000 C   0  0  0  0  0  0  0  0  0  0  0  0
    1.9256   -3.0815    0.0000 C   0  0  0  0  0  0  0  0  0  0  0  0
    2.6711   -1.7800    0.0000 C   0  0  0  0  0  0  0  0  0  0  0  0
    4.1712   -1.7748    0.0000 C   0  0  0  0  0  0  0  0  0  0  0  0
    4.9255   -3.0713    0.0000 C   0  0  0  0  0  0  0  0  0  0  0  0
    6.4255   -3.0662    0.0000 C   0  0  0  0  0  0  0  0  0  0  0  0
    7.1798   -4.3626    0.0000 C   0  0  0  0  0  0  0  0  0  0  0  0
    6.4345   -5.6642    0.0000 C   0  0  0  0  0  0  0  0  0  0  0  0
    4.9344   -5.6694    0.0000 C   0  0  0  0  0  0  0  0  0  0  0  0
    4.1799   -4.3729    0.0000 C   0  0  0  0  0  0  0  0  0  0  0  0
    3.4344   -5.6745    0.0000 C   0  0  0  0  0  0  0  0  0  0  0  0
    2.6801   -4.3780    0.0000 C   0  0  0  0  0  0  0  0  0  0  0  0
    1.9343   -5.6796    0.0000 C   0  0  0  0  0  0  0  0  0  0  0  0
    0.4345   -5.6847    0.0000 C   0  0  0  0  0  0  0  0  0  0  0  0
   -0.3200   -4.3883    0.0000 C   0  0  0  0  0  0  0  0  0  0  0  0
   -1.1761   -5.6199    0.0000 C   0  0  0  0  0  0  0  0  0  0  0  0
    7.1888   -6.9607    0.0000 C   0  0  0  0  0  0  0  0  0  0  0  0
    8.6888   -6.9556    0.0000 O   0  0  0  0  0  0  0  0  0  0  0  0
    8.6799   -4.3575    0.0000 O   0  0  0  0  0  0  0  0  0  0  0  0
  1  2  1  0  0  0  0
  2  3  1  0  0  0  0
  4  2  1  0  0  0  0
  2 20  1  0  0  0  0
  5  4  1  0  0  0  0
  6  5  1  0  0  0  0
  7  6  1  0  0  0  0
  6 20  1  0  0  0  0
  8  7  1  0  0  0  0
  7 17  1  0  0  0  0
  9  8  1  0  0  0  0
 10  9  1  0  0  0  0
 11 10  1  0  0  0  0
 10 15  1  0  0  0  0
 12 11  1  0  0  0  0
 13 12  2  0  0  0  0
 12 24  1  0  0  0  0
 14 13  1  0  0  0  0
 13 22  1  0  0  0  0
 15 14  1  0  0  0  0
 15 16  1  0  0  0  0
 17 15  1  0  0  0  0
 18 17  1  0  0  0  0
 19 18  1  0  0  0  0
 20 19  1  0  0  0  0
 20 21  1  0  0  0  0
 22 23  2  0  0  0  0
M  END
> <Inchi_key>
PUQUTIRPHMRPJS-UHFFFAOYSA-N

> <Source>
Mulliner

> <ID>
HT1569

> <H_MFHB>
1

> <CAS>
7/1/434

> <Cholestasis>


> <Name>
oxymetholone

> <Class>
1

$$$$