
  -INDIGO-08031710012D

 24 27  0  0  0  0  0  0  0  0999 V2000
   -0.0023   -1.8196    0.0000 N   0  0  0  0  0  0  0  0  0  0  0  0
    1.4976   -1.8234    0.0000 S   0  0  0  0  0  0  0  0  0  0  0  0
    1.5016   -0.3235    0.0000 O   0  0  0  0  0  0  0  0  0  0  0  0
    1.4941   -3.3234    0.0000 O   0  0  0  0  0  0  0  0  0  0  0  0
    2.9977   -1.8272    0.0000 C   0  0  0  0  0  0  0  0  0  0  0  0
    3.7511   -0.5300    0.0000 C   0  0  0  0  0  0  0  0  0  0  0  0
    5.2510   -0.5338    0.0000 C   0  0  0  0  0  0  0  0  0  0  0  0
    5.9978   -1.8347    0.0000 C   0  0  0  0  0  0  0  0  0  0  0  0
    7.4977   -1.8385    0.0000 N   0  0  0  0  0  0  0  0  0  0  0  0
    8.2510   -0.5412    0.0000 C   0  0  0  0  0  0  0  0  0  0  0  0
    7.5043    0.7596    0.0000 N   0  0  0  0  0  0  0  0  0  0  0  0
    6.0041    0.7634    0.0000 S   0  0  0  0  0  0  0  0  0  0  0  0
    6.0081    2.2634    0.0000 O   0  0  0  0  0  0  0  0  0  0  0  0
    4.7070    1.5166    0.0000 O   0  0  0  0  0  0  0  0  0  0  0  0
    9.7510   -0.5451    0.0000 C   0  0  0  0  0  0  0  0  0  0  0  0
   10.9494   -0.9182    0.0000 C   0  0  0  0  0  0  0  0  0  0  0  0
   12.2385   -0.7184    0.0000 C   0  0  0  0  0  0  0  0  0  0  0  0
   12.9897   -1.8791    0.0000 C   0  0  0  0  0  0  0  0  0  0  0  0
   11.1300   -0.1233    0.0000 C   0  0  0  0  0  0  0  0  0  0  0  0
   11.5756    1.1714    0.0000 C   0  0  0  0  0  0  0  0  0  0  0  0
   12.6559    0.7590    0.0000 C   0  0  0  0  0  0  0  0  0  0  0  0
    5.2445   -3.1319    0.0000 C   0  0  0  0  0  0  0  0  0  0  0  0
    3.7443   -3.1281    0.0000 C   0  0  0  0  0  0  0  0  0  0  0  0
    2.9912   -4.4252    0.0000 Cl  0  0  0  0  0  0  0  0  0  0  0  0
  1  2  1  0  0  0  0
  2  3  2  0  0  0  0
  2  4  2  0  0  0  0
  2  5  1  0  0  0  0
  6  5  2  0  0  0  0
  5 23  1  0  0  0  0
  7  6  1  0  0  0  0
  7  8  2  0  0  0  0
 12  7  1  0  0  0  0
  8  9  1  0  0  0  0
 22  8  1  0  0  0  0
  9 10  1  0  0  0  0
 10 11  1  0  0  0  0
 10 15  1  0  0  0  0
 11 12  1  0  0  0  0
 12 13  2  0  0  0  0
 12 14  2  0  0  0  0
 16 15  1  0  0  0  0
 15 19  1  0  0  0  0
 17 16  1  0  0  0  0
 17 18  1  0  0  0  0
 21 17  1  0  0  0  0
 18 19  1  0  0  0  0
 19 20  1  0  0  0  0
 20 21  2  0  0  0  0
 23 22  2  0  0  0  0
 23 24  1  0  0  0  0
M  END
> <Inchi_key>
BOCUKUHCLICSIY-UHFFFAOYSA-N

> <Source>
Mulliner

> <ID>
HT0572

> <H_MFHB>
1

> <CAS>


> <Cholestasis>


> <Name>
cyclothiazide

> <Class>
1

$$$$