
  -INDIGO-08031710012D

 22 23  0  0  0  0  0  0  0  0999 V2000
   12.5416    2.2520    0.0000 C   0  0  0  0  0  0  0  0  0  0  0  0
   11.8039    3.5580    0.0000 C   0  0  0  0  0  0  0  0  0  0  0  0
   12.5660    4.8500    0.0000 C   0  0  0  0  0  0  0  0  0  0  0  0
   10.3040    3.5721    0.0000 C   0  0  0  0  0  0  0  0  0  0  0  0
    9.5660    4.8780    0.0000 O   0  0  0  0  0  0  0  0  0  0  0  0
    8.0661    4.8921    0.0000 C   0  0  0  0  0  0  0  0  0  0  0  0
    7.3040    3.6002    0.0000 C   0  0  0  0  0  0  0  0  0  0  0  0
    5.8041    3.6143    0.0000 C   0  0  0  0  0  0  0  0  0  0  0  0
    5.0664    4.9202    0.0000 C   0  0  0  0  0  0  0  0  0  0  0  0
    5.8283    6.2122    0.0000 C   0  0  0  0  0  0  0  0  0  0  0  0
    7.3284    6.1981    0.0000 C   0  0  0  0  0  0  0  0  0  0  0  0
    8.0905    7.4901    0.0000 C   0  0  0  0  0  0  0  0  0  0  0  0
    8.8527    8.7820    0.0000 N   0  0  0  0  0  0  0  0  0  0  0  0
    3.5665    4.9343    0.0000 C   0  0  0  0  0  0  0  0  0  0  0  0
    2.6962    6.1560    0.0000 N   0  0  0  0  0  0  0  0  0  0  0  0
    1.2652    5.7059    0.0000 C   0  0  0  0  0  0  0  0  0  0  0  0
    0.0600    6.5989    0.0000 C   0  0  0  0  0  0  0  0  0  0  0  0
    1.2512    4.2059    0.0000 C   0  0  0  0  0  0  0  0  0  0  0  0
    2.6733    3.7291    0.0000 S   0  0  0  0  0  0  0  0  0  0  0  0
    0.0294    3.3355    0.0000 C   0  0  0  0  0  0  0  0  0  0  0  0
   -1.3351    3.9586    0.0000 O   0  0  0  0  0  0  0  0  0  0  0  0
    0.1722    1.8425    0.0000 O   0  0  0  0  0  0  0  0  0  0  0  0
  1  2  1  0  0  0  0
  2  3  1  0  0  0  0
  2  4  1  0  0  0  0
  4  5  1  0  0  0  0
  5  6  1  0  0  0  0
  7  6  2  0  0  0  0
  6 11  1  0  0  0  0
  8  7  1  0  0  0  0
  9  8  2  0  0  0  0
 10  9  1  0  0  0  0
  9 14  1  0  0  0  0
 11 10  2  0  0  0  0
 11 12  1  0  0  0  0
 12 13  3  0  0  0  0
 15 14  2  0  0  0  0
 14 19  1  0  0  0  0
 16 15  1  0  0  0  0
 16 17  1  0  0  0  0
 18 16  2  0  0  0  0
 19 18  1  0  0  0  0
 18 20  1  0  0  0  0
 20 21  2  0  0  0  0
 20 22  1  0  0  0  0
M  END
> <Inchi_key>
BQSJTQLCZDPROO-UHFFFAOYSA-N

> <Source>
Mulliner

> <ID>
HT0850

> <H_MFHB>
1

> <CAS>


> <Cholestasis>


> <Name>
febuxostat

> <Class>
1

$$$$