

  -INDIGO-08031710012D

 21 21  0  0  0  0  0  0  0  0999 V2000
   10.8052    2.8952    0.0000 C   0  0  0  0  0  0  0  0  0  0  0  0
    9.5061    2.1453    0.0000 C   0  0  0  0  0  0  0  0  0  0  0  0
    9.5061    0.6453    0.0000 O   0  0  0  0  0  0  0  0  0  0  0  0
    8.2071    2.8952    0.0000 N   0  0  0  0  0  0  0  0  0  0  0  0
    6.9080    2.1453    0.0000 C   0  0  0  0  0  0  0  0  0  0  0  0
    5.6090    2.8952    0.0000 C   0  0  0  0  0  0  0  0  0  0  0  0
    4.3101    2.1453    0.0000 C   0  0  0  0  0  0  0  0  0  0  0  0
    4.3101    0.6453    0.0000 I   0  0  0  0  0  0  0  0  0  0  0  0
    3.0109    2.8952    0.0000 C   0  0  0  0  0  0  0  0  0  0  0  0
    1.7120    2.1453    0.0000 N   0  0  0  0  0  0  0  0  0  0  0  0
    1.7120    0.6453    0.0000 C   0  0  0  0  0  0  0  0  0  0  0  0
    3.0109   -0.1048    0.0000 O   0  0  0  0  0  0  0  0  0  0  0  0
    0.4129   -0.1048    0.0000 C   0  0  0  0  0  0  0  0  0  0  0  0
    3.0109    4.3952    0.0000 C   0  0  0  0  0  0  0  0  0  0  0  0
    1.7120    5.1453    0.0000 I   0  0  0  0  0  0  0  0  0  0  0  0
    4.3101    5.1453    0.0000 C   0  0  0  0  0  0  0  0  0  0  0  0
    4.3101    6.6453    0.0000 C   0  0  0  0  0  0  0  0  0  0  0  0
    3.0109    7.3952    0.0000 O   0  0  0  0  0  0  0  0  0  0  0  0
    5.6090    7.3952    0.0000 O   0  0  0  0  0  0  0  0  0  0  0  0
    5.6090    4.3952    0.0000 C   0  0  0  0  0  0  0  0  0  0  0  0
    6.9080    5.1453    0.0000 I   0  0  0  0  0  0  0  0  0  0  0  0
  1  2  1  0  0  0  0
  2  3  2  0  0  0  0
  2  4  1  0  0  0  0
  4  5  1  0  0  0  0
  5  6  1  0  0  0  0
  7  6  2  0  0  0  0
  6 20  1  0  0  0  0
  7  8  1  0  0  0  0
  9  7  1  0  0  0  0
  9 10  1  0  0  0  0
 14  9  2  0  0  0  0
 10 11  1  0  0  0  0
 11 12  2  0  0  0  0
 11 13  1  0  0  0  0
 14 15  1  0  0  0  0
 16 14  1  0  0  0  0
 16 17  1  0  0  0  0
 20 16  2  0  0  0  0
 17 18  2  0  0  0  0
 17 19  1  0  0  0  0
 20 21  1  0  0  0  0
M  END
> <Inchi_key>
VVDGWALACJEJKG-UHFFFAOYSA-N

> <Source>
Mulliner

> <ID>
HT1102

> <H_MFHB>
1

> <CAS>


> <Cholestasis>


> <Name>
iodamide meglumine

> <Class>
1


$$$$