
  -INDIGO-08031710012D

 39 38  0  0  0  0  0  0  0  0999 V2000
   34.5478    9.2570    0.0000 C   0  0  0  0  0  0  0  0  0  0  0  0
   33.2489    8.5071    0.0000 C   0  0  0  0  0  0  0  0  0  0  0  0
   33.2489    7.0070    0.0000 O   0  0  0  0  0  0  0  0  0  0  0  0
   31.9500    9.2570    0.0000 N   0  0  0  0  0  0  0  0  0  0  0  0
   31.9500   10.7570    0.0000 O   0  0  0  0  0  0  0  0  0  0  0  0
   30.6505    8.5071    0.0000 C   0  0  0  0  0  0  0  0  0  0  0  0
   29.3516    9.2570    0.0000 C   0  0  0  0  0  0  0  0  0  0  0  0
   28.0527    8.5071    0.0000 C   0  0  0  0  0  0  0  0  0  0  0  0
   26.7537    9.2570    0.0000 C   0  0  0  0  0  0  0  0  0  0  0  0
   25.4543    8.5071    0.0000 C   0  0  0  0  0  0  0  0  0  0  0  0
   24.1554    9.2570    0.0000 N   0  0  0  0  0  0  0  0  0  0  0  0
   22.8564    8.5071    0.0000 C   0  0  0  0  0  0  0  0  0  0  0  0
   22.8564    7.0070    0.0000 O   0  0  0  0  0  0  0  0  0  0  0  0
   21.5575    9.2570    0.0000 C   0  0  0  0  0  0  0  0  0  0  0  0
   20.2586    8.5071    0.0000 C   0  0  0  0  0  0  0  0  0  0  0  0
   18.9591    9.2570    0.0000 C   0  0  0  0  0  0  0  0  0  0  0  0
   18.9591   10.7570    0.0000 O   0  0  0  0  0  0  0  0  0  0  0  0
   17.6602    8.5071    0.0000 N   0  0  0  0  0  0  0  0  0  0  0  0
   17.6602    7.0070    0.0000 O   0  0  0  0  0  0  0  0  0  0  0  0
   16.3613    9.2570    0.0000 C   0  0  0  0  0  0  0  0  0  0  0  0
   15.0624    8.5071    0.0000 C   0  0  0  0  0  0  0  0  0  0  0  0
   13.7634    9.2570    0.0000 C   0  0  0  0  0  0  0  0  0  0  0  0
   12.4640    8.5071    0.0000 C   0  0  0  0  0  0  0  0  0  0  0  0
   11.1651    9.2570    0.0000 C   0  0  0  0  0  0  0  0  0  0  0  0
    9.8661    8.5071    0.0000 N   0  0  0  0  0  0  0  0  0  0  0  0
    8.5672    9.2570    0.0000 C   0  0  0  0  0  0  0  0  0  0  0  0
    8.5672   10.7570    0.0000 O   0  0  0  0  0  0  0  0  0  0  0  0
    7.2678    8.5071    0.0000 C   0  0  0  0  0  0  0  0  0  0  0  0
    5.9688    9.2570    0.0000 C   0  0  0  0  0  0  0  0  0  0  0  0
    4.6699    8.5071    0.0000 C   0  0  0  0  0  0  0  0  0  0  0  0
    4.6699    7.0070    0.0000 O   0  0  0  0  0  0  0  0  0  0  0  0
    3.3710    9.2570    0.0000 N   0  0  0  0  0  0  0  0  0  0  0  0
    2.0715    8.5071    0.0000 O   0  0  0  0  0  0  0  0  0  0  0  0
    3.3710   10.7570    0.0000 C   0  0  0  0  0  0  0  0  0  0  0  0
    2.0715   11.5071    0.0000 C   0  0  0  0  0  0  0  0  0  0  0  0
    2.0715   13.0070    0.0000 C   0  0  0  0  0  0  0  0  0  0  0  0
    0.7726   13.7570    0.0000 C   0  0  0  0  0  0  0  0  0  0  0  0
    0.7726   15.2570    0.0000 C   0  0  0  0  0  0  0  0  0  0  0  0
   -0.5263   16.0070    0.0000 N   0  0  0  0  0  0  0  0  0  0  0  0
  1  2  1  0  0  0  0
  2  3  2  0  0  0  0
  2  4  1  0  0  0  0
  4  5  1  0  0  0  0
  4  6  1  0  0  0  0
  6  7  1  0  0  0  0
  7  8  1  0  0  0  0
  8  9  1  0  0  0  0
  9 10  1  0  0  0  0
 10 11  1  0  0  0  0
 11 12  1  0  0  0  0
 12 13  2  0  0  0  0
 12 14  1  0  0  0  0
 14 15  1  0  0  0  0
 15 16  1  0  0  0  0
 16 17  2  0  0  0  0
 16 18  1  0  0  0  0
 18 19  1  0  0  0  0
 18 20  1  0  0  0  0
 20 21  1  0  0  0  0
 21 22  1  0  0  0  0
 22 23  1  0  0  0  0
 23 24  1  0  0  0  0
 24 25  1  0  0  0  0
 25 26  1  0  0  0  0
 26 27  2  0  0  0  0
 26 28  1  0  0  0  0
 28 29  1  0  0  0  0
 29 30  1  0  0  0  0
 30 31  2  0  0  0  0
 30 32  1  0  0  0  0
 32 33  1  0  0  0  0
 32 34  1  0  0  0  0
 34 35  1  0  0  0  0
 35 36  1  0  0  0  0
 36 37  1  0  0  0  0
 37 38  1  0  0  0  0
 38 39  1  0  0  0  0
M  END
> <Inchi_key>
UBQYURCVBFRUQT-UHFFFAOYSA-N

> <Source>
Mulliner

> <ID>
HT0601

> <H_MFHB>
1

> <CAS>


> <Cholestasis>


> <Name>
deferoxamine mesylate;deferoxamine

> <Class>
1

$$$$