

  -INDIGO-08031710012D

 22 23  0  0  0  0  0  0  0  0999 V2000
   14.8310    3.9740    0.0000 C   0  0  0  0  0  0  0  0  0  0  0  0
   13.5319    3.2240    0.0000 C   0  0  0  0  0  0  0  0  0  0  0  0
   13.5319    1.7240    0.0000 N   0  0  0  0  0  0  0  0  0  0  0  0
   14.8310    0.9740    0.0000 C   0  0  0  0  0  0  0  0  0  0  0  0
   14.8310   -0.5260    0.0000 C   0  0  0  0  0  0  0  0  0  0  0  0
   12.2328    0.9740    0.0000 C   0  0  0  0  0  0  0  0  0  0  0  0
   10.9339    1.7240    0.0000 C   0  0  0  0  0  0  0  0  0  0  0  0
    9.6348    0.9740    0.0000 C   0  0  0  0  0  0  0  0  0  0  0  0
    8.3357    1.7240    0.0000 C   0  0  0  0  0  0  0  0  0  0  0  0
    8.3357    3.2240    0.0000 C   0  0  0  0  0  0  0  0  0  0  0  0
    7.0369    0.9740    0.0000 N   0  0  0  0  0  0  0  0  0  0  0  0
    5.7378    1.7240    0.0000 C   0  0  0  0  0  0  0  0  0  0  0  0
    5.7378    3.2240    0.0000 C   0  0  0  0  0  0  0  0  0  0  0  0
    4.4387    3.9740    0.0000 C   0  0  0  0  0  0  0  0  0  0  0  0
    3.1396    3.2240    0.0000 N   0  0  0  0  0  0  0  0  0  0  0  0
    3.1396    1.7240    0.0000 C   0  0  0  0  0  0  0  0  0  0  0  0
    1.8407    0.9740    0.0000 C   0  0  0  0  0  0  0  0  0  0  0  0
    1.8407   -0.5260    0.0000 C   0  0  0  0  0  0  0  0  0  0  0  0
    0.5416   -1.2760    0.0000 Cl  0  0  0  0  0  0  0  0  0  0  0  0
    3.1396   -1.2760    0.0000 C   0  0  0  0  0  0  0  0  0  0  0  0
    4.4387   -0.5260    0.0000 C   0  0  0  0  0  0  0  0  0  0  0  0
    4.4387    0.9740    0.0000 C   0  0  0  0  0  0  0  0  0  0  0  0
  1  2  1  0  0  0  0
  2  3  1  0  0  0  0
  3  4  1  0  0  0  0
  3  6  1  0  0  0  0
  4  5  1  0  0  0  0
  6  7  1  0  0  0  0
  7  8  1  0  0  0  0
  8  9  1  0  0  0  0
  9 10  1  0  0  0  0
  9 11  1  0  0  0  0
 11 12  1  0  0  0  0
 13 12  2  0  0  0  0
 12 22  1  0  0  0  0
 14 13  1  0  0  0  0
 15 14  2  0  0  0  0
 16 15  1  0  0  0  0
 17 16  1  0  0  0  0
 16 22  2  0  0  0  0
 18 17  2  0  0  0  0
 18 19  1  0  0  0  0
 20 18  1  0  0  0  0
 21 20  2  0  0  0  0
 22 21  1  0  0  0  0
M  END
> <Inchi_key>
WHTVZRBIWZFKQO-UHFFFAOYSA-N

> <Source>
Mulliner

> <ID>
HT0459

> <H_MFHB>
1

> <CAS>
50-63-5;54-05-7

> <Cholestasis>


> <Name>
chloroquine phosphate;chloroquine;chloroquine hydrochloride

> <Class>
1


$$$$