

  -INDIGO-08031710012D

 23 27  0  0  0  0  0  0  0  0999 V2000
   11.0220   -2.9150    0.0000 C   0  0  0  0  0  0  0  0  0  0  0  0
    9.7181   -2.1734    0.0000 O   0  0  0  0  0  0  0  0  0  0  0  0
    8.4240   -2.9319    0.0000 C   0  0  0  0  0  0  0  0  0  0  0  0
    8.4346   -4.3643    0.0000 C   0  0  0  0  0  0  0  0  0  0  0  0
    7.1971   -5.0850    0.0000 C   0  0  0  0  0  0  0  0  0  0  0  0
    5.9574   -4.3807    0.0000 C   0  0  0  0  0  0  0  0  0  0  0  0
    4.7140   -5.1079    0.0000 C   0  0  0  0  0  0  0  0  0  0  0  0
    3.4615   -4.4060    0.0000 C   0  0  0  0  0  0  0  0  0  0  0  0
    2.4589   -5.4463    0.0000 N   0  0  0  0  0  0  0  0  0  0  0  0
    1.0804   -6.0379    0.0000 C   0  0  0  0  0  0  0  0  0  0  0  0
    3.8979   -5.4358    0.0000 C   0  0  0  0  0  0  0  0  0  0  0  0
    5.0881   -3.6427    0.0000 C   0  0  0  0  0  0  0  0  0  0  0  0
    4.6931   -2.2398    0.0000 C   0  0  0  0  0  0  0  0  0  0  0  0
    4.6877   -0.8134    0.0000 C   0  0  0  0  0  0  0  0  0  0  0  0
    6.4439   -0.5854    0.0000 O   0  0  0  0  0  0  0  0  0  0  0  0
    7.1761   -2.2207    0.0000 C   0  0  0  0  0  0  0  0  0  0  0  0
    5.9468   -2.9484    0.0000 C   0  0  0  0  0  0  0  0  0  0  0  0
    3.4454   -0.0998    0.0000 C   0  0  0  0  0  0  0  0  0  0  0  0
    3.4408    1.4002    0.0000 O   0  0  0  0  0  0  0  0  0  0  0  0
    2.2052   -0.8220    0.0000 C   0  0  0  0  0  0  0  0  0  0  0  0
    2.2084   -2.2584    0.0000 C   0  0  0  0  0  0  0  0  0  0  0  0
    3.4533   -2.9621    0.0000 C   0  0  0  0  0  0  0  0  0  0  0  0
    2.1625   -3.7262    0.0000 O   0  0  0  0  0  0  0  0  0  0  0  0
  1  2  1  0  0  0  0
  2  3  1  0  0  0  0
  4  3  2  0  0  0  0
  3 16  1  0  0  0  0
  5  4  1  0  0  0  0
  6  5  2  0  0  0  0
  7  6  1  0  0  0  0
  6 17  1  0  0  0  0
  8  7  1  0  0  0  0
  8  9  1  0  0  0  0
 22  8  1  0  0  0  0
  9 10  1  0  0  0  0
  9 11  1  0  0  0  0
 11 12  1  0  0  0  0
 12 13  1  0  0  0  0
 14 13  1  0  0  0  0
 17 13  1  0  0  0  0
 13 22  1  0  0  0  0
 14 15  1  0  0  0  0
 18 14  1  0  0  0  0
 15 16  1  0  0  0  0
 16 17  2  0  0  0  0
 18 19  2  0  0  0  0
 20 18  1  0  0  0  0
 21 20  1  0  0  0  0
 22 21  1  0  0  0  0
 22 23  1  0  0  0  0
M  END
> <Inchi_key>
BRUQQQPBMZOVGD-UHFFFAOYSA-N

> <Source>
Mulliner

> <ID>
HT1566

> <H_MFHB>
1

> <CAS>


> <Cholestasis>


> <Name>
oxycodone

> <Class>
1


$$$$