
  -INDIGO-08031710012D

 19 20  0  0  0  0  0  0  0  0999 V2000
    2.4292    6.1462    0.0000 C   0  0  0  0  0  0  0  0  0  0  0  0
    1.7373    4.8153    0.0000 C   0  0  0  0  0  0  0  0  0  0  0  0
    0.2388    4.7490    0.0000 C   0  0  0  0  0  0  0  0  0  0  0  0
    2.5441    3.5507    0.0000 C   0  0  0  0  0  0  0  0  0  0  0  0
    1.8522    2.2197    0.0000 C   0  0  0  0  0  0  0  0  0  0  0  0
    0.3538    2.1534    0.0000 N   0  0  0  0  0  0  0  0  0  0  0  0
   -0.3381    0.8225    0.0000 C   0  0  0  0  0  0  0  0  0  0  0  0
   -0.4530    3.4180    0.0000 C   0  0  0  0  0  0  0  0  0  0  0  0
    2.6589    0.9552    0.0000 C   0  0  0  0  0  0  0  0  0  0  0  0
    3.4932   -0.2915    0.0000 C   0  0  0  0  0  0  0  0  0  0  0  0
    2.2464   -1.1256    0.0000 C   0  0  0  0  0  0  0  0  0  0  0  0
    1.4121    0.1212    0.0000 C   0  0  0  0  0  0  0  0  0  0  0  0
    4.0180    1.5899    0.0000 C   0  0  0  0  0  0  0  0  0  0  0  0
    4.1480    3.0844    0.0000 C   0  0  0  0  0  0  0  0  0  0  0  0
    5.5069    3.7190    0.0000 C   0  0  0  0  0  0  0  0  0  0  0  0
    6.7363    2.8594    0.0000 C   0  0  0  0  0  0  0  0  0  0  0  0
    8.0953    3.4942    0.0000 Cl  0  0  0  0  0  0  0  0  0  0  0  0
    6.6063    1.3651    0.0000 C   0  0  0  0  0  0  0  0  0  0  0  0
    5.2473    0.7303    0.0000 C   0  0  0  0  0  0  0  0  0  0  0  0
  1  2  1  0  0  0  0
  2  3  1  0  0  0  0
  2  4  1  0  0  0  0
  4  5  1  0  0  0  0
  5  6  1  0  0  0  0
  5  9  1  0  0  0  0
  6  7  1  0  0  0  0
  6  8  1  0  0  0  0
 10  9  1  0  0  0  0
  9 12  1  0  0  0  0
  9 13  1  0  0  0  0
 11 10  1  0  0  0  0
 12 11  1  0  0  0  0
 14 13  2  0  0  0  0
 13 19  1  0  0  0  0
 15 14  1  0  0  0  0
 16 15  2  0  0  0  0
 16 17  1  0  0  0  0
 18 16  1  0  0  0  0
 19 18  2  0  0  0  0
M  END
> <Inchi_key>
UNAANXDKBXWMLN-UHFFFAOYSA-N

> <Source>
Mulliner

> <ID>
HT1884

> <H_MFHB>
1

> <CAS>


> <Cholestasis>


> <Name>
sibutramine hydrochloride;sibutramine

> <Class>
1

$$$$