
  -INDIGO-08031710012D

 24 26  0  0  0  0  0  0  0  0999 V2000
    6.3668   -6.4133    0.0000 S   0  0  0  0  0  0  0  0  0  0  0  0
    5.6170   -7.7123    0.0000 O   0  0  0  0  0  0  0  0  0  0  0  0
    7.8669   -6.4133    0.0000 C   0  0  0  0  0  0  0  0  0  0  0  0
    5.6170   -5.1143    0.0000 C   0  0  0  0  0  0  0  0  0  0  0  0
    4.1169   -5.1143    0.0000 C   0  0  0  0  0  0  0  0  0  0  0  0
    3.3669   -6.4133    0.0000 N   0  0  0  0  0  0  0  0  0  0  0  0
    3.3669   -3.8152    0.0000 C   0  0  0  0  0  0  0  0  0  0  0  0
    1.8668   -6.4133    0.0000 C   0  0  0  0  0  0  0  0  0  0  0  0
    1.8668   -3.8152    0.0000 C   0  0  0  0  0  0  0  0  0  0  0  0
    4.1169   -2.5162    0.0000 C   0  0  0  0  0  0  0  0  0  0  0  0
    1.1170   -5.1143    0.0000 C   0  0  0  0  0  0  0  0  0  0  0  0
    1.1170   -2.5162    0.0000 O   0  0  0  0  0  0  0  0  0  0  0  0
   -0.3831   -5.1143    0.0000 C   0  0  0  0  0  0  0  0  0  0  0  0
   -0.3831   -2.5162    0.0000 C   0  0  0  0  0  0  0  0  0  0  0  0
    8.7487   -5.1998    0.0000 N   0  0  0  0  0  0  0  0  0  0  0  0
    8.7487   -7.6268    0.0000 N   0  0  0  0  0  0  0  0  0  0  0  0
   10.1752   -5.6633    0.0000 C   0  0  0  0  0  0  0  0  0  0  0  0
   10.1752   -7.1633    0.0000 C   0  0  0  0  0  0  0  0  0  0  0  0
   11.4743   -4.9133    0.0000 C   0  0  0  0  0  0  0  0  0  0  0  0
   11.4743   -7.9133    0.0000 C   0  0  0  0  0  0  0  0  0  0  0  0
   12.7734   -5.6633    0.0000 C   0  0  0  0  0  0  0  0  0  0  0  0
   12.7734   -7.1633    0.0000 C   0  0  0  0  0  0  0  0  0  0  0  0
   14.0723   -7.9133    0.0000 O   0  0  0  0  0  0  0  0  0  0  0  0
   15.3714   -7.1633    0.0000 C   0  0  0  0  0  0  0  0  0  0  0  0
  1  2  1  0  0  0  0
  1  3  1  0  0  0  0
  1  4  1  0  0  0  0
  4  5  1  0  0  0  0
  6  5  2  0  0  0  0
  5  7  1  0  0  0  0
  8  6  1  0  0  0  0
  7  9  2  0  0  0  0
  7 10  1  0  0  0  0
 11  8  2  0  0  0  0
  9 11  1  0  0  0  0
  9 12  1  0  0  0  0
 11 13  1  0  0  0  0
 12 14  1  0  0  0  0
 15  3  1  0  0  0  0
  3 16  2  0  0  0  0
 17 15  1  0  0  0  0
 16 18  1  0  0  0  0
 19 17  2  0  0  0  0
 17 18  1  0  0  0  0
 18 20  2  0  0  0  0
 21 19  1  0  0  0  0
 20 22  1  0  0  0  0
 22 21  2  0  0  0  0
 22 23  1  0  0  0  0
 23 24  1  0  0  0  0
M  CHG  2   1   1   2  -1
M  END
> <Inchi_key>
SUBDBMMJDZJVOS-UHFFFAOYSA-N

> <Source>
Mulliner

> <ID>
HT0788

> <H_MFHB>
1

> <CAS>


> <Cholestasis>


> <Name>
esomeprazole magnesium;esomeprazole sodium;omeprazole;omeprazole magnesium

> <Class>
1

$$$$