
  -INDIGO-08031710012D

 41 44  0  0  0  0  0  0  0  0999 V2000
    3.3812   -4.8779    0.0000 C   0  0  0  0  0  0  0  0  0  0  0  0
    1.9312   -4.4937    0.0000 C   0  0  0  0  0  0  0  0  0  0  0  0
    0.8733   -5.5571    0.0000 C   0  0  0  0  0  0  0  0  0  0  0  0
    1.5392   -3.0456    0.0000 C   0  0  0  0  0  0  0  0  0  0  0  0
    0.1374   -2.5120    0.0000 C   0  0  0  0  0  0  0  0  0  0  0  0
   -1.1184   -3.3320    0.0000 C   0  0  0  0  0  0  0  0  0  0  0  0
   -2.4568   -2.6547    0.0000 O   0  0  0  0  0  0  0  0  0  0  0  0
   -1.0360   -4.8299    0.0000 N   0  0  0  0  0  0  0  0  0  0  0  0
   -2.2918   -5.6502    0.0000 C   0  0  0  0  0  0  0  0  0  0  0  0
   -2.2095   -7.1478    0.0000 C   0  0  0  0  0  0  0  0  0  0  0  0
   -3.4653   -7.9681    0.0000 C   0  0  0  0  0  0  0  0  0  0  0  0
   -4.8036   -7.2907    0.0000 C   0  0  0  0  0  0  0  0  0  0  0  0
   -4.8860   -5.7929    0.0000 C   0  0  0  0  0  0  0  0  0  0  0  0
   -3.6302   -4.9728    0.0000 C   0  0  0  0  0  0  0  0  0  0  0  0
    0.2120   -1.0137    0.0000 C   0  0  0  0  0  0  0  0  0  0  0  0
   -0.9562   -0.0729    0.0000 C   0  0  0  0  0  0  0  0  0  0  0  0
   -2.3552   -0.6140    0.0000 C   0  0  0  0  0  0  0  0  0  0  0  0
   -3.5234    0.3268    0.0000 C   0  0  0  0  0  0  0  0  0  0  0  0
   -3.2928    1.8090    0.0000 C   0  0  0  0  0  0  0  0  0  0  0  0
   -1.8938    2.3502    0.0000 C   0  0  0  0  0  0  0  0  0  0  0  0
   -0.7256    1.4094    0.0000 C   0  0  0  0  0  0  0  0  0  0  0  0
    1.6597   -0.6218    0.0000 C   0  0  0  0  0  0  0  0  0  0  0  0
    2.1935    0.7800    0.0000 C   0  0  0  0  0  0  0  0  0  0  0  0
    1.2467    1.9433    0.0000 C   0  0  0  0  0  0  0  0  0  0  0  0
    1.7805    3.3450    0.0000 C   0  0  0  0  0  0  0  0  0  0  0  0
    3.2614    3.5836    0.0000 C   0  0  0  0  0  0  0  0  0  0  0  0
    3.7952    4.9854    0.0000 F   0  0  0  0  0  0  0  0  0  0  0  0
    4.2085    2.4204    0.0000 C   0  0  0  0  0  0  0  0  0  0  0  0
    3.6746    1.0186    0.0000 C   0  0  0  0  0  0  0  0  0  0  0  0
    2.4800   -1.8775    0.0000 N   0  0  0  0  0  0  0  0  0  0  0  0
    3.9781   -1.9522    0.0000 C   0  0  0  0  0  0  0  0  0  0  0  0
    4.6627   -3.2868    0.0000 C   0  0  0  0  0  0  0  0  0  0  0  0
    6.1608   -3.3615    0.0000 C   0  0  0  0  0  0  0  0  0  0  0  0
    6.9746   -2.1012    0.0000 O   0  0  0  0  0  0  0  0  0  0  0  0
    6.8453   -4.6961    0.0000 C   0  0  0  0  0  0  0  0  0  0  0  0
    8.3434   -4.7706    0.0000 C   0  0  0  0  0  0  0  0  0  0  0  0
    9.0280   -6.1054    0.0000 O   0  0  0  0  0  0  0  0  0  0  0  0
    9.1570   -3.5105    0.0000 C   0  0  0  0  0  0  0  0  0  0  0  0
   10.6553   -3.5850    0.0000 C   0  0  0  0  0  0  0  0  0  0  0  0
   11.4689   -2.3250    0.0000 O   0  0  0  0  0  0  0  0  0  0  0  0
   11.3399   -4.9198    0.0000 O   0  0  0  0  0  0  0  0  0  0  0  0
  1  2  1  0  0  0  0
  2  3  1  0  0  0  0
  2  4  1  0  0  0  0
  5  4  2  0  0  0  0
  4 30  1  0  0  0  0
  5  6  1  0  0  0  0
 15  5  1  0  0  0  0
  6  7  2  0  0  0  0
  6  8  1  0  0  0  0
  8  9  1  0  0  0  0
 10  9  2  0  0  0  0
  9 14  1  0  0  0  0
 11 10  1  0  0  0  0
 12 11  2  0  0  0  0
 13 12  1  0  0  0  0
 14 13  2  0  0  0  0
 15 16  1  0  0  0  0
 22 15  2  0  0  0  0
 17 16  2  0  0  0  0
 16 21  1  0  0  0  0
 18 17  1  0  0  0  0
 19 18  2  0  0  0  0
 20 19  1  0  0  0  0
 21 20  2  0  0  0  0
 22 23  1  0  0  0  0
 30 22  1  0  0  0  0
 24 23  2  0  0  0  0
 23 29  1  0  0  0  0
 25 24  1  0  0  0  0
 26 25  2  0  0  0  0
 26 27  1  0  0  0  0
 28 26  1  0  0  0  0
 29 28  2  0  0  0  0
 30 31  1  0  0  0  0
 31 32  1  0  0  0  0
 32 33  1  0  0  0  0
 33 34  1  0  0  0  0
 33 35  1  0  0  0  0
 35 36  1  0  0  0  0
 36 37  1  0  0  0  0
 36 38  1  0  0  0  0
 38 39  1  0  0  0  0
 39 40  2  0  0  0  0
 39 41  1  0  0  0  0
M  END
> <Inchi_key>
XUKUURHRXDUEBC-UHFFFAOYSA-N

> <Source>
Mulliner , Kotsampasakou

> <ID>
EK0044;HT0194

> <H_MFHB>
1

> <CAS>
134523-00-5;0

> <Cholestasis>
1

> <Name>
atorvastatin calcium;atorvastatin

> <Class>
1

$$$$