

  -INDIGO-08031710012D

 32 34  0  0  0  0  0  0  0  0999 V2000
   17.2969   -1.6238    0.0000 O   0  0  0  0  0  0  0  0  0  0  0  0
   16.5469   -0.3249    0.0000 C   0  0  0  0  0  0  0  0  0  0  0  0
   15.0468   -0.3249    0.0000 C   0  0  0  0  0  0  0  0  0  0  0  0
   14.2969    0.9743    0.0000 N   0  0  0  0  0  0  0  0  0  0  0  0
   12.7970    0.9743    0.0000 C   0  0  0  0  0  0  0  0  0  0  0  0
   12.0470    2.2732    0.0000 C   0  0  0  0  0  0  0  0  0  0  0  0
   10.5469    2.2732    0.0000 N   0  0  0  0  0  0  0  0  0  0  0  0
    9.7969    3.5724    0.0000 C   0  0  0  0  0  0  0  0  0  0  0  0
   10.5469    4.8715    0.0000 C   0  0  0  0  0  0  0  0  0  0  0  0
    9.7969    6.1704    0.0000 C   0  0  0  0  0  0  0  0  0  0  0  0
    8.2968    6.1704    0.0000 C   0  0  0  0  0  0  0  0  0  0  0  0
    7.5468    7.4696    0.0000 N   0  0  0  0  0  0  0  0  0  0  0  0
    8.2968    8.7685    0.0000 C   0  0  0  0  0  0  0  0  0  0  0  0
    9.7969    8.7685    0.0000 C   0  0  0  0  0  0  0  0  0  0  0  0
   10.5469   10.0675    0.0000 N   0  0  0  0  0  0  0  0  0  0  0  0
   12.0470   10.0675    0.0000 C   0  0  0  0  0  0  0  0  0  0  0  0
   12.7970   11.3666    0.0000 C   0  0  0  0  0  0  0  0  0  0  0  0
   14.2969   11.3666    0.0000 O   0  0  0  0  0  0  0  0  0  0  0  0
    7.5468    4.8715    0.0000 C   0  0  0  0  0  0  0  0  0  0  0  0
    6.0469    4.8715    0.0000 C   0  0  0  0  0  0  0  0  0  0  0  0
    5.2970    6.1704    0.0000 O   0  0  0  0  0  0  0  0  0  0  0  0
    5.2970    3.5724    0.0000 C   0  0  0  0  0  0  0  0  0  0  0  0
    3.7969    3.5724    0.0000 C   0  0  0  0  0  0  0  0  0  0  0  0
    3.0469    4.8715    0.0000 O   0  0  0  0  0  0  0  0  0  0  0  0
    3.0469    2.2732    0.0000 C   0  0  0  0  0  0  0  0  0  0  0  0
    3.7969    0.9743    0.0000 C   0  0  0  0  0  0  0  0  0  0  0  0
    5.2970    0.9743    0.0000 C   0  0  0  0  0  0  0  0  0  0  0  0
    6.0469   -0.3249    0.0000 O   0  0  0  0  0  0  0  0  0  0  0  0
    6.0469    2.2732    0.0000 C   0  0  0  0  0  0  0  0  0  0  0  0
    7.5468    2.2732    0.0000 C   0  0  0  0  0  0  0  0  0  0  0  0
    8.2968    0.9743    0.0000 O   0  0  0  0  0  0  0  0  0  0  0  0
    8.2968    3.5724    0.0000 C   0  0  0  0  0  0  0  0  0  0  0  0
  1  2  1  0  0  0  0
  2  3  1  0  0  0  0
  3  4  1  0  0  0  0
  4  5  1  0  0  0  0
  5  6  1  0  0  0  0
  6  7  1  0  0  0  0
  7  8  1  0  0  0  0
  9  8  2  0  0  0  0
  8 32  1  0  0  0  0
 10  9  1  0  0  0  0
 11 10  2  0  0  0  0
 11 12  1  0  0  0  0
 19 11  1  0  0  0  0
 12 13  2  0  0  0  0
 13 14  1  0  0  0  0
 14 15  1  0  0  0  0
 15 16  1  0  0  0  0
 16 17  1  0  0  0  0
 17 18  1  0  0  0  0
 20 19  1  0  0  0  0
 19 32  2  0  0  0  0
 20 21  1  0  0  0  0
 22 20  2  0  0  0  0
 23 22  1  0  0  0  0
 22 29  1  0  0  0  0
 23 24  1  0  0  0  0
 25 23  2  0  0  0  0
 26 25  1  0  0  0  0
 27 26  2  0  0  0  0
 27 28  1  0  0  0  0
 29 27  1  0  0  0  0
 30 29  2  0  0  0  0
 30 31  1  0  0  0  0
 32 30  1  0  0  0  0
M  END
> <Inchi_key>
CRIMBVBPVTYSDE-ONAMSPKSSA-N

> <Source>
Mulliner

> <ID>
HT1418

> <H_MFHB>
1

> <CAS>


> <Cholestasis>


> <Name>
mitoxantrone hydrochloride;mitoxantrone

> <Class>
1


$$$$