
  -INDIGO-08031710012D

 37 40  0  0  0  0  0  0  0  0999 V2000
   14.0116   -8.0895    0.0000 C   0  0  0  0  0  0  0  0  0  0  0  0
   13.2615   -6.7904    0.0000 C   0  0  0  0  0  0  0  0  0  0  0  0
   12.5118   -5.4915    0.0000 C   0  0  0  0  0  0  0  0  0  0  0  0
   14.5606   -6.0405    0.0000 C   0  0  0  0  0  0  0  0  0  0  0  0
   14.5606   -4.5405    0.0000 O   0  0  0  0  0  0  0  0  0  0  0  0
   15.8596   -6.7904    0.0000 O   0  0  0  0  0  0  0  0  0  0  0  0
   11.9625   -7.5406    0.0000 C   0  0  0  0  0  0  0  0  0  0  0  0
   11.9625   -9.0405    0.0000 C   0  0  0  0  0  0  0  0  0  0  0  0
   10.6635   -9.7905    0.0000 C   0  0  0  0  0  0  0  0  0  0  0  0
    9.3644   -9.0405    0.0000 C   0  0  0  0  0  0  0  0  0  0  0  0
    9.3644   -7.5406    0.0000 C   0  0  0  0  0  0  0  0  0  0  0  0
   10.6635   -6.7904    0.0000 C   0  0  0  0  0  0  0  0  0  0  0  0
    8.0654   -9.7905    0.0000 C   0  0  0  0  0  0  0  0  0  0  0  0
    8.0654  -11.2904    0.0000 O   0  0  0  0  0  0  0  0  0  0  0  0
    6.7664   -9.0405    0.0000 C   0  0  0  0  0  0  0  0  0  0  0  0
    5.4673   -9.7905    0.0000 C   0  0  0  0  0  0  0  0  0  0  0  0
    4.1683   -9.0405    0.0000 C   0  0  0  0  0  0  0  0  0  0  0  0
    2.8692   -9.7905    0.0000 N   0  0  0  0  0  0  0  0  0  0  0  0
    2.8692  -11.2904    0.0000 C   0  0  0  0  0  0  0  0  0  0  0  0
    1.5702  -12.0406    0.0000 C   0  0  0  0  0  0  0  0  0  0  0  0
    0.2712  -11.2904    0.0000 C   0  0  0  0  0  0  0  0  0  0  0  0
    0.2712   -9.7905    0.0000 C   0  0  0  0  0  0  0  0  0  0  0  0
    1.5702   -9.0405    0.0000 C   0  0  0  0  0  0  0  0  0  0  0  0
   -1.0279  -12.0406    0.0000 O   0  0  0  0  0  0  0  0  0  0  0  0
   -2.3269  -11.2904    0.0000 C   0  0  0  0  0  0  0  0  0  0  0  0
   -2.3269   -9.7905    0.0000 C   0  0  0  0  0  0  0  0  0  0  0  0
   -1.0279   -9.0405    0.0000 C   0  0  0  0  0  0  0  0  0  0  0  0
   -1.0279   -7.5406    0.0000 C   0  0  0  0  0  0  0  0  0  0  0  0
   -2.3269   -6.7904    0.0000 C   0  0  0  0  0  0  0  0  0  0  0  0
   -3.6259   -7.5406    0.0000 C   0  0  0  0  0  0  0  0  0  0  0  0
   -3.6259   -9.0405    0.0000 C   0  0  0  0  0  0  0  0  0  0  0  0
   -3.6259  -12.0406    0.0000 C   0  0  0  0  0  0  0  0  0  0  0  0
   -3.6259  -13.5405    0.0000 C   0  0  0  0  0  0  0  0  0  0  0  0
   -4.9250  -14.2905    0.0000 C   0  0  0  0  0  0  0  0  0  0  0  0
   -6.2240  -13.5405    0.0000 C   0  0  0  0  0  0  0  0  0  0  0  0
   -6.2240  -12.0406    0.0000 C   0  0  0  0  0  0  0  0  0  0  0  0
   -4.9250  -11.2904    0.0000 C   0  0  0  0  0  0  0  0  0  0  0  0
  1  2  1  0  0  0  0
  2  3  1  0  0  0  0
  2  4  1  0  0  0  0
  2  7  1  0  0  0  0
  4  5  2  0  0  0  0
  4  6  1  0  0  0  0
  8  7  2  0  0  0  0
  7 12  1  0  0  0  0
  9  8  1  0  0  0  0
 10  9  2  0  0  0  0
 11 10  1  0  0  0  0
 10 13  1  0  0  0  0
 12 11  2  0  0  0  0
 13 14  2  0  0  0  0
 13 15  1  0  0  0  0
 15 16  1  0  0  0  0
 16 17  1  0  0  0  0
 17 18  1  0  0  0  0
 19 18  1  0  0  0  0
 18 23  1  0  0  0  0
 20 19  1  0  0  0  0
 21 20  1  0  0  0  0
 22 21  1  0  0  0  0
 21 24  1  0  0  0  0
 23 22  1  0  0  0  0
 24 25  1  0  0  0  0
 25 26  1  0  0  0  0
 25 32  1  0  0  0  0
 27 26  2  0  0  0  0
 26 31  1  0  0  0  0
 28 27  1  0  0  0  0
 29 28  2  0  0  0  0
 30 29  1  0  0  0  0
 31 30  2  0  0  0  0
 33 32  2  0  0  0  0
 32 37  1  0  0  0  0
 34 33  1  0  0  0  0
 35 34  2  0  0  0  0
 36 35  1  0  0  0  0
 37 36  2  0  0  0  0
M  END
> <Inchi_key>
XGHOVGYJHWQGCC-UHFFFAOYSA-N

> <Source>
Mulliner

> <ID>
HT0737

> <H_MFHB>
1

> <CAS>


> <Cholestasis>


> <Name>
ebastine

> <Class>
1

$$$$