

  -INDIGO-08031710012D

 27 30  0  0  0  0  0  0  0  0999 V2000
    1.4492    2.5000    0.0000 C   0  0  0  0  0  0  0  0  0  0  0  0
    2.1947    1.1984    0.0000 C   0  0  0  0  0  0  0  0  0  0  0  0
    3.6946    1.1933    0.0000 C   0  0  0  0  0  0  0  0  0  0  0  0
    4.4401   -0.1083    0.0000 C   0  0  0  0  0  0  0  0  0  0  0  0
    5.9403   -0.1135    0.0000 C   0  0  0  0  0  0  0  0  0  0  0  0
    6.9477    0.9978    0.0000 C   0  0  0  0  0  0  0  0  0  0  0  0
    8.3158    0.3830    0.0000 C   0  0  0  0  0  0  0  0  0  0  0  0
    8.1539   -1.1082    0.0000 C   0  0  0  0  0  0  0  0  0  0  0  0
    8.6374   -2.5281    0.0000 O   0  0  0  0  0  0  0  0  0  0  0  0
    9.6348   -1.3479    0.0000 C   0  0  0  0  0  0  0  0  0  0  0  0
   10.1674   -2.7501    0.0000 O   0  0  0  0  0  0  0  0  0  0  0  0
   10.5828   -0.1854    0.0000 C   0  0  0  0  0  0  0  0  0  0  0  0
   12.0634   -0.4251    0.0000 O   0  0  0  0  0  0  0  0  0  0  0  0
    6.6858   -1.4151    0.0000 C   0  0  0  0  0  0  0  0  0  0  0  0
    7.5418   -2.6467    0.0000 C   0  0  0  0  0  0  0  0  0  0  0  0
    5.9313   -2.7115    0.0000 C   0  0  0  0  0  0  0  0  0  0  0  0
    4.4313   -2.7064    0.0000 C   0  0  0  0  0  0  0  0  0  0  0  0
    3.6769   -4.0029    0.0000 O   0  0  0  0  0  0  0  0  0  0  0  0
    3.6856   -1.4048    0.0000 C   0  0  0  0  0  0  0  0  0  0  0  0
    2.1857   -1.3997    0.0000 C   0  0  0  0  0  0  0  0  0  0  0  0
    0.6857   -1.3946    0.0000 C   0  0  0  0  0  0  0  0  0  0  0  0
    1.4312   -2.6962    0.0000 C   0  0  0  0  0  0  0  0  0  0  0  0
   -0.0688   -2.6910    0.0000 C   0  0  0  0  0  0  0  0  0  0  0  0
   -0.8142   -1.3894    0.0000 C   0  0  0  0  0  0  0  0  0  0  0  0
   -2.3142   -1.3843    0.0000 O   0  0  0  0  0  0  0  0  0  0  0  0
   -0.0598   -0.0930    0.0000 C   0  0  0  0  0  0  0  0  0  0  0  0
    1.4402   -0.0981    0.0000 C   0  0  0  0  0  0  0  0  0  0  0  0
  1  2  1  0  0  0  0
  3  2  1  0  0  0  0
  2 27  1  0  0  0  0
  4  3  1  0  0  0  0
  5  4  1  0  0  0  0
  4 19  1  0  0  0  0
  6  5  1  0  0  0  0
  5 14  1  0  0  0  0
  7  6  1  0  0  0  0
  8  7  1  0  0  0  0
  8  9  1  0  0  0  0
  8 10  1  0  0  0  0
 14  8  1  0  0  0  0
 10 11  2  0  0  0  0
 10 12  1  0  0  0  0
 12 13  1  0  0  0  0
 14 15  1  0  0  0  0
 16 14  1  0  0  0  0
 17 16  1  0  0  0  0
 17 18  1  0  0  0  0
 19 17  1  0  0  0  0
 20 19  1  0  0  0  0
 20 21  1  0  0  0  0
 22 20  1  0  0  0  0
 20 27  1  0  0  0  0
 23 22  2  0  0  0  0
 24 23  1  0  0  0  0
 24 25  2  0  0  0  0
 26 24  1  0  0  0  0
 27 26  2  0  0  0  0
M  END
> <Inchi_key>
VHRSUDSXCMQTMA-UHFFFAOYSA-N

> <Source>
Mulliner

> <ID>
HT1367

> <H_MFHB>
1

> <CAS>
83-43-2

> <Cholestasis>


> <Name>
methylprednisolone;methyl-prednisolone

> <Class>
1


$$$$