

  -INDIGO-08031710012D

 17 18  0  0  0  0  0  0  0  0999 V2000
   -1.3894    3.0675    0.0000 C   0  0  0  0  0  0  0  0  0  0  0  0
   -0.0903    2.3175    0.0000 O   0  0  0  0  0  0  0  0  0  0  0  0
    1.2087    3.0675    0.0000 C   0  0  0  0  0  0  0  0  0  0  0  0
    1.2087    4.5675    0.0000 C   0  0  0  0  0  0  0  0  0  0  0  0
    2.5076    5.3175    0.0000 C   0  0  0  0  0  0  0  0  0  0  0  0
    3.8068    4.5675    0.0000 C   0  0  0  0  0  0  0  0  0  0  0  0
    5.1059    5.3175    0.0000 C   0  0  0  0  0  0  0  0  0  0  0  0
    6.4048    4.5675    0.0000 C   0  0  0  0  0  0  0  0  0  0  0  0
    7.7040    5.3175    0.0000 C   0  0  0  0  0  0  0  0  0  0  0  0
    9.0029    4.5675    0.0000 C   0  0  0  0  0  0  0  0  0  0  0  0
   10.3021    5.3175    0.0000 C   0  0  0  0  0  0  0  0  0  0  0  0
   11.6010    4.5675    0.0000 O   0  0  0  0  0  0  0  0  0  0  0  0
   10.3021    6.8175    0.0000 C   0  0  0  0  0  0  0  0  0  0  0  0
    6.4048    3.0675    0.0000 C   0  0  0  0  0  0  0  0  0  0  0  0
    5.1059    2.3175    0.0000 C   0  0  0  0  0  0  0  0  0  0  0  0
    3.8068    3.0675    0.0000 C   0  0  0  0  0  0  0  0  0  0  0  0
    2.5076    2.3175    0.0000 C   0  0  0  0  0  0  0  0  0  0  0  0
  1  2  1  0  0  0  0
  2  3  1  0  0  0  0
  4  3  2  0  0  0  0
  3 17  1  0  0  0  0
  5  4  1  0  0  0  0
  6  5  2  0  0  0  0
  7  6  1  0  0  0  0
  6 16  1  0  0  0  0
  8  7  2  0  0  0  0
  8  9  1  0  0  0  0
 14  8  1  0  0  0  0
  9 10  1  0  0  0  0
 10 11  1  0  0  0  0
 11 12  2  0  0  0  0
 11 13  1  0  0  0  0
 15 14  2  0  0  0  0
 16 15  1  0  0  0  0
 17 16  2  0  0  0  0
M  END
> <Inchi_key>
BLXXJMDCKKHMKV-UHFFFAOYSA-N

> <Source>
Mulliner

> <ID>
HT1447

> <H_MFHB>
1

> <CAS>
42924-53-8

> <Cholestasis>


> <Name>
nabumetone

> <Class>
1


$$$$