
  -INDIGO-08031710012D

 21 23  0  0  0  0  0  0  0  0999 V2000
    3.4936    3.4935    0.0000 C   0  0  0  0  0  0  0  0  0  0  0  0
    3.4936    1.9935    0.0000 C   0  0  0  0  0  0  0  0  0  0  0  0
    2.1945    1.2436    0.0000 C   0  0  0  0  0  0  0  0  0  0  0  0
    0.8954    1.9935    0.0000 N   0  0  0  0  0  0  0  0  0  0  0  0
    0.8954    3.4935    0.0000 C   0  0  0  0  0  0  0  0  0  0  0  0
    2.1945    4.2436    0.0000 C   0  0  0  0  0  0  0  0  0  0  0  0
    2.1945    5.7436    0.0000 C   0  0  0  0  0  0  0  0  0  0  0  0
    0.8954    6.4935    0.0000 C   0  0  0  0  0  0  0  0  0  0  0  0
   -0.4037    5.7436    0.0000 C   0  0  0  0  0  0  0  0  0  0  0  0
   -0.4037    4.2436    0.0000 C   0  0  0  0  0  0  0  0  0  0  0  0
   -1.7027    3.4935    0.0000 S   0  0  0  0  0  0  0  0  0  0  0  0
   -1.7027    1.9935    0.0000 C   0  0  0  0  0  0  0  0  0  0  0  0
   -3.0017    1.2436    0.0000 C   0  0  0  0  0  0  0  0  0  0  0  0
   -3.0017   -0.2564    0.0000 C   0  0  0  0  0  0  0  0  0  0  0  0
   -1.7027   -1.0065    0.0000 C   0  0  0  0  0  0  0  0  0  0  0  0
   -0.4037   -0.2564    0.0000 C   0  0  0  0  0  0  0  0  0  0  0  0
   -0.4037    1.2436    0.0000 C   0  0  0  0  0  0  0  0  0  0  0  0
    4.7924    1.2436    0.0000 N   0  0  0  0  0  0  0  0  0  0  0  0
    5.5425    2.5425    0.0000 C   0  0  0  0  0  0  0  0  0  0  0  0
    4.0425   -0.0555    0.0000 C   0  0  0  0  0  0  0  0  0  0  0  0
    6.0916    0.4935    0.0000 C   0  0  0  0  0  0  0  0  0  0  0  0
  1  2  1  0  0  0  0
  2  3  1  0  0  0  0
  2 18  1  0  0  0  0
  3  4  1  0  0  0  0
  5  4  1  0  0  0  0
  4 17  1  0  0  0  0
  6  5  1  0  0  0  0
  5 10  2  0  0  0  0
  7  6  2  0  0  0  0
  8  7  1  0  0  0  0
  9  8  2  0  0  0  0
 10  9  1  0  0  0  0
 11 10  1  0  0  0  0
 12 11  1  0  0  0  0
 13 12  1  0  0  0  0
 12 17  2  0  0  0  0
 14 13  2  0  0  0  0
 15 14  1  0  0  0  0
 16 15  2  0  0  0  0
 17 16  1  0  0  0  0
 18 19  1  0  0  0  0
 18 20  1  0  0  0  0
 18 21  1  0  0  0  0
M  CHG  1  18   1
M  END
> <Inchi_key>
CDXCCYNINPIWGE-UHFFFAOYSA-N

> <Source>
Mulliner

> <ID>
HT2039

> <H_MFHB>
1

> <CAS>


> <Cholestasis>


> <Name>
thiazinamium;thiazinamium metilsulfate

> <Class>
1

$$$$