

  -INDIGO-08031710012D

 31 34  0  0  0  0  0  0  0  0999 V2000
   -5.9391   -8.8446    0.0000 C   0  0  0  0  0  0  0  0  0  0  0  0
   -5.6344   -7.3758    0.0000 N   0  0  0  0  0  0  0  0  0  0  0  0
   -6.6434   -6.2660    0.0000 N   0  0  0  0  0  0  0  0  0  0  0  0
   -5.8997   -4.9633    0.0000 N   0  0  0  0  0  0  0  0  0  0  0  0
   -4.4310   -5.2681    0.0000 N   0  0  0  0  0  0  0  0  0  0  0  0
   -4.2671   -6.7591    0.0000 C   0  0  0  0  0  0  0  0  0  0  0  0
   -2.9643   -7.5028    0.0000 S   0  0  0  0  0  0  0  0  0  0  0  0
   -1.6690   -6.7466    0.0000 C   0  0  0  0  0  0  0  0  0  0  0  0
   -0.3662   -7.4902    0.0000 C   0  0  0  0  0  0  0  0  0  0  0  0
    0.9290   -6.7339    0.0000 C   0  0  0  0  0  0  0  0  0  0  0  0
    2.2318   -7.4776    0.0000 N   0  0  0  0  0  0  0  0  0  0  0  0
    2.2391   -8.9775    0.0000 C   0  0  0  0  0  0  0  0  0  0  0  0
    0.9438   -9.7338    0.0000 S   0  0  0  0  0  0  0  0  0  0  0  0
   -0.3590   -8.9901    0.0000 C   0  0  0  0  0  0  0  0  0  0  0  0
    3.7390   -8.9703    0.0000 C   0  0  0  0  0  0  0  0  0  0  0  0
    4.8047  -10.0257    0.0000 N   0  0  0  0  0  0  0  0  0  0  0  0
    6.2519   -9.6305    0.0000 C   0  0  0  0  0  0  0  0  0  0  0  0
    6.6331   -8.1798    0.0000 O   0  0  0  0  0  0  0  0  0  0  0  0
    7.3176  -10.6860    0.0000 C   0  0  0  0  0  0  0  0  0  0  0  0
    6.9364  -12.1368    0.0000 O   0  0  0  0  0  0  0  0  0  0  0  0
    8.7645  -10.2907    0.0000 C   0  0  0  0  0  0  0  0  0  0  0  0
    9.1457   -8.8400    0.0000 C   0  0  0  0  0  0  0  0  0  0  0  0
   10.5929   -8.4447    0.0000 C   0  0  0  0  0  0  0  0  0  0  0  0
   11.6586   -9.5002    0.0000 C   0  0  0  0  0  0  0  0  0  0  0  0
   11.2774  -10.9510    0.0000 C   0  0  0  0  0  0  0  0  0  0  0  0
    9.8305  -11.3462    0.0000 C   0  0  0  0  0  0  0  0  0  0  0  0
    3.7318   -7.4703    0.0000 C   0  0  0  0  0  0  0  0  0  0  0  0
    4.7871   -6.4045    0.0000 O   0  0  0  0  0  0  0  0  0  0  0  0
    0.9218   -5.2339    0.0000 C   0  0  0  0  0  0  0  0  0  0  0  0
    2.2173   -4.4776    0.0000 O   0  0  0  0  0  0  0  0  0  0  0  0
   -0.3810   -4.4902    0.0000 O   0  0  0  0  0  0  0  0  0  0  0  0
  1  2  1  0  0  0  0
  3  2  1  0  0  0  0
  2  6  1  0  0  0  0
  4  3  2  0  0  0  0
  5  4  1  0  0  0  0
  6  5  2  0  0  0  0
  6  7  1  0  0  0  0
  7  8  1  0  0  0  0
  8  9  1  0  0  0  0
 10  9  2  0  0  0  0
  9 14  1  0  0  0  0
 11 10  1  0  0  0  0
 10 29  1  0  0  0  0
 11 12  1  0  0  0  0
 27 11  1  0  0  0  0
 13 12  1  0  0  0  0
 12 15  1  0  0  0  0
 14 13  1  0  0  0  0
 15 16  1  0  0  0  0
 15 27  1  0  0  0  0
 16 17  1  0  0  0  0
 17 18  2  0  0  0  0
 17 19  1  0  0  0  0
 19 20  1  0  0  0  0
 19 21  1  0  0  0  0
 22 21  2  0  0  0  0
 21 26  1  0  0  0  0
 23 22  1  0  0  0  0
 24 23  2  0  0  0  0
 25 24  1  0  0  0  0
 26 25  2  0  0  0  0
 27 28  2  0  0  0  0
 29 30  2  0  0  0  0
 29 31  1  0  0  0  0
M  END
> <Inchi_key>
OLVCFLKTBJRLHI-UHFFFAOYSA-N

> <Source>
Mulliner

> <ID>
HT0397

> <H_MFHB>
1

> <CAS>
42540-40-9

> <Cholestasis>


> <Name>
cefamandole nafate;cefamandole

> <Class>
1


$$$$