
  -INDIGO-08031710012D

 21 22  0  0  0  0  0  0  0  0999 V2000
    0.0000   -0.0000    0.0000 N   0  0  0  0  0  0  0  0  0  0  0  0
    1.5000   -0.0000    0.0000 S   0  0  0  0  0  0  0  0  0  0  0  0
    1.5000   -1.5000    0.0000 O   0  0  0  0  0  0  0  0  0  0  0  0
    1.5000    1.5000    0.0000 O   0  0  0  0  0  0  0  0  0  0  0  0
    3.0001   -0.0000    0.0000 C   0  0  0  0  0  0  0  0  0  0  0  0
    3.7501    1.2990    0.0000 C   0  0  0  0  0  0  0  0  0  0  0  0
    5.2500    1.2990    0.0000 C   0  0  0  0  0  0  0  0  0  0  0  0
    6.0000    2.5981    0.0000 C   0  0  0  0  0  0  0  0  0  0  0  0
    7.4999    2.5981    0.0000 O   0  0  0  0  0  0  0  0  0  0  0  0
    5.2500    3.8971    0.0000 O   0  0  0  0  0  0  0  0  0  0  0  0
    6.0000   -0.0000    0.0000 C   0  0  0  0  0  0  0  0  0  0  0  0
    7.4999   -0.0000    0.0000 N   0  0  0  0  0  0  0  0  0  0  0  0
    8.2499   -1.2990    0.0000 C   0  0  0  0  0  0  0  0  0  0  0  0
    9.7500   -1.2990    0.0000 C   0  0  0  0  0  0  0  0  0  0  0  0
   10.6318   -0.0855    0.0000 O   0  0  0  0  0  0  0  0  0  0  0  0
   12.0583   -0.5490    0.0000 C   0  0  0  0  0  0  0  0  0  0  0  0
   12.0583   -2.0490    0.0000 C   0  0  0  0  0  0  0  0  0  0  0  0
   10.6318   -2.5126    0.0000 C   0  0  0  0  0  0  0  0  0  0  0  0
    5.2500   -1.2990    0.0000 C   0  0  0  0  0  0  0  0  0  0  0  0
    3.7501   -1.2990    0.0000 C   0  0  0  0  0  0  0  0  0  0  0  0
    3.0001   -2.5981    0.0000 Cl  0  0  0  0  0  0  0  0  0  0  0  0
  1  2  1  0  0  0  0
  2  3  2  0  0  0  0
  2  4  2  0  0  0  0
  2  5  1  0  0  0  0
  6  5  2  0  0  0  0
  5 20  1  0  0  0  0
  7  6  1  0  0  0  0
  7  8  1  0  0  0  0
 11  7  2  0  0  0  0
  8  9  2  0  0  0  0
  8 10  1  0  0  0  0
 11 12  1  0  0  0  0
 19 11  1  0  0  0  0
 12 13  1  0  0  0  0
 13 14  1  0  0  0  0
 15 14  1  0  0  0  0
 14 18  2  0  0  0  0
 16 15  1  0  0  0  0
 17 16  2  0  0  0  0
 18 17  1  0  0  0  0
 20 19  2  0  0  0  0
 20 21  1  0  0  0  0
M  END
> <Inchi_key>
ZZUFCTLCJUWOSV-UHFFFAOYSA-N

> <Source>
Mulliner

> <ID>
HT0945

> <H_MFHB>
1

> <CAS>
54-31-9

> <Cholestasis>


> <Name>
furosemide

> <Class>
1

$$$$