

  -INDIGO-08031710012D

 27 30  0  0  0  0  0  0  0  0999 V2000
   19.6665    0.0513    0.0000 O   0  0  0  0  0  0  0  0  0  0  0  0
   18.3707   -0.7040    0.0000 C   0  0  0  0  0  0  0  0  0  0  0  0
   18.3766   -2.2040    0.0000 C   0  0  0  0  0  0  0  0  0  0  0  0
   17.0809   -2.9594    0.0000 C   0  0  0  0  0  0  0  0  0  0  0  0
   15.7786   -2.2147    0.0000 C   0  0  0  0  0  0  0  0  0  0  0  0
   14.4828   -2.9700    0.0000 C   0  0  0  0  0  0  0  0  0  0  0  0
   13.1805   -2.2253    0.0000 C   0  0  0  0  0  0  0  0  0  0  0  0
   11.8848   -2.9807    0.0000 O   0  0  0  0  0  0  0  0  0  0  0  0
   10.5825   -2.2361    0.0000 C   0  0  0  0  0  0  0  0  0  0  0  0
    9.2867   -2.9913    0.0000 C   0  0  0  0  0  0  0  0  0  0  0  0
    7.9844   -2.2467    0.0000 C   0  0  0  0  0  0  0  0  0  0  0  0
    6.6884   -3.0020    0.0000 C   0  0  0  0  0  0  0  0  0  0  0  0
    5.3864   -2.2573    0.0000 C   0  0  0  0  0  0  0  0  0  0  0  0
    5.2234   -0.7662    0.0000 N   0  0  0  0  0  0  0  0  0  0  0  0
    3.7549   -0.4603    0.0000 N   0  0  0  0  0  0  0  0  0  0  0  0
    3.0104   -1.7624    0.0000 N   0  0  0  0  0  0  0  0  0  0  0  0
    4.0185   -2.8730    0.0000 N   0  0  0  0  0  0  0  0  0  0  0  0
    3.7128   -4.3415    0.0000 C   0  0  0  0  0  0  0  0  0  0  0  0
    2.2880   -4.8109    0.0000 C   0  0  0  0  0  0  0  0  0  0  0  0
    1.9823   -6.2794    0.0000 C   0  0  0  0  0  0  0  0  0  0  0  0
    3.1011   -7.2785    0.0000 C   0  0  0  0  0  0  0  0  0  0  0  0
    4.5258   -6.8091    0.0000 C   0  0  0  0  0  0  0  0  0  0  0  0
    4.8316   -5.3406    0.0000 C   0  0  0  0  0  0  0  0  0  0  0  0
   13.1746   -0.7254    0.0000 C   0  0  0  0  0  0  0  0  0  0  0  0
   14.4704    0.0300    0.0000 C   0  0  0  0  0  0  0  0  0  0  0  0
   15.7724   -0.7147    0.0000 C   0  0  0  0  0  0  0  0  0  0  0  0
   17.0684    0.0406    0.0000 N   0  0  0  0  0  0  0  0  0  0  0  0
  1  2  2  0  0  0  0
  3  2  1  0  0  0  0
  2 27  1  0  0  0  0
  4  3  1  0  0  0  0
  5  4  1  0  0  0  0
  6  5  1  0  0  0  0
  5 26  2  0  0  0  0
  7  6  2  0  0  0  0
  7  8  1  0  0  0  0
 24  7  1  0  0  0  0
  8  9  1  0  0  0  0
  9 10  1  0  0  0  0
 10 11  1  0  0  0  0
 11 12  1  0  0  0  0
 12 13  1  0  0  0  0
 14 13  2  0  0  0  0
 13 17  1  0  0  0  0
 15 14  1  0  0  0  0
 16 15  2  0  0  0  0
 17 16  1  0  0  0  0
 17 18  1  0  0  0  0
 19 18  1  0  0  0  0
 18 23  1  0  0  0  0
 20 19  1  0  0  0  0
 21 20  1  0  0  0  0
 22 21  1  0  0  0  0
 23 22  1  0  0  0  0
 25 24  2  0  0  0  0
 26 25  1  0  0  0  0
 27 26  1  0  0  0  0
M  END
> <Inchi_key>
RRGUKTPIGVIEKM-UHFFFAOYSA-N

> <Source>
Mulliner

> <ID>
HT0485

> <H_MFHB>
1

> <CAS>


> <Cholestasis>


> <Name>
cilostazol

> <Class>
1


$$$$