

  -INDIGO-08031710012D

 33 35  0  0  0  0  0  0  0  0999 V2000
   15.2044    0.2756    0.0000 C   0  0  0  0  0  0  0  0  0  0  0  0
   14.4545   -1.0234    0.0000 O   0  0  0  0  0  0  0  0  0  0  0  0
   15.2044   -2.3225    0.0000 C   0  0  0  0  0  0  0  0  0  0  0  0
   16.7046   -2.3225    0.0000 C   0  0  0  0  0  0  0  0  0  0  0  0
   17.4545   -3.6217    0.0000 C   0  0  0  0  0  0  0  0  0  0  0  0
   16.7046   -4.9206    0.0000 C   0  0  0  0  0  0  0  0  0  0  0  0
   17.4545   -6.2196    0.0000 Cl  0  0  0  0  0  0  0  0  0  0  0  0
   15.2044   -4.9206    0.0000 C   0  0  0  0  0  0  0  0  0  0  0  0
   14.4545   -3.6217    0.0000 C   0  0  0  0  0  0  0  0  0  0  0  0
   12.9546   -3.6217    0.0000 C   0  0  0  0  0  0  0  0  0  0  0  0
   12.2044   -2.3225    0.0000 O   0  0  0  0  0  0  0  0  0  0  0  0
   12.2044   -4.9206    0.0000 N   0  0  0  0  0  0  0  0  0  0  0  0
   10.7045   -4.9206    0.0000 C   0  0  0  0  0  0  0  0  0  0  0  0
    9.9546   -6.2196    0.0000 C   0  0  0  0  0  0  0  0  0  0  0  0
    8.4544   -6.2196    0.0000 C   0  0  0  0  0  0  0  0  0  0  0  0
    7.7045   -7.5187    0.0000 C   0  0  0  0  0  0  0  0  0  0  0  0
    6.2046   -7.5187    0.0000 C   0  0  0  0  0  0  0  0  0  0  0  0
    5.4544   -6.2196    0.0000 C   0  0  0  0  0  0  0  0  0  0  0  0
    6.2046   -4.9206    0.0000 C   0  0  0  0  0  0  0  0  0  0  0  0
    7.7045   -4.9206    0.0000 C   0  0  0  0  0  0  0  0  0  0  0  0
    3.9545   -6.2196    0.0000 S   0  0  0  0  0  0  0  0  0  0  0  0
    3.9545   -4.7196    0.0000 O   0  0  0  0  0  0  0  0  0  0  0  0
    3.9545   -7.7196    0.0000 O   0  0  0  0  0  0  0  0  0  0  0  0
    2.4546   -6.2196    0.0000 N   0  0  0  0  0  0  0  0  0  0  0  0
    1.7044   -4.9206    0.0000 C   0  0  0  0  0  0  0  0  0  0  0  0
    2.4546   -3.6217    0.0000 O   0  0  0  0  0  0  0  0  0  0  0  0
    0.2045   -4.9206    0.0000 N   0  0  0  0  0  0  0  0  0  0  0  0
   -0.5454   -3.6217    0.0000 C   0  0  0  0  0  0  0  0  0  0  0  0
    0.2045   -2.3225    0.0000 C   0  0  0  0  0  0  0  0  0  0  0  0
   -0.5454   -1.0234    0.0000 C   0  0  0  0  0  0  0  0  0  0  0  0
   -2.0456   -1.0234    0.0000 C   0  0  0  0  0  0  0  0  0  0  0  0
   -2.7955   -2.3225    0.0000 C   0  0  0  0  0  0  0  0  0  0  0  0
   -2.0456   -3.6217    0.0000 C   0  0  0  0  0  0  0  0  0  0  0  0
  1  2  1  0  0  0  0
  2  3  1  0  0  0  0
  4  3  2  0  0  0  0
  3  9  1  0  0  0  0
  5  4  1  0  0  0  0
  6  5  2  0  0  0  0
  6  7  1  0  0  0  0
  8  6  1  0  0  0  0
  9  8  2  0  0  0  0
  9 10  1  0  0  0  0
 10 11  2  0  0  0  0
 10 12  1  0  0  0  0
 12 13  1  0  0  0  0
 13 14  1  0  0  0  0
 14 15  1  0  0  0  0
 16 15  2  0  0  0  0
 15 20  1  0  0  0  0
 17 16  1  0  0  0  0
 18 17  2  0  0  0  0
 19 18  1  0  0  0  0
 18 21  1  0  0  0  0
 20 19  2  0  0  0  0
 21 22  2  0  0  0  0
 21 23  1  0  0  0  0
 21 24  2  0  0  0  0
 24 25  1  0  0  0  0
 25 26  2  0  0  0  0
 25 27  1  0  0  0  0
 27 28  1  0  0  0  0
 29 28  1  0  0  0  0
 28 33  1  0  0  0  0
 30 29  1  0  0  0  0
 31 30  1  0  0  0  0
 32 31  1  0  0  0  0
 33 32  1  0  0  0  0
M  END
> <Inchi_key>
OVOWTFSMKVIMPY-UHFFFAOYSA-N

> <Source>
Mulliner , Kotsampasakou

> <ID>
EK0242;HT0995

> <H_MFHB>
1

> <CAS>
10238-21-8

> <Cholestasis>
1

> <Name>
glyburide;glibenclamide (glyburide)

> <Class>
1


$$$$