

  -INDIGO-08031710012D

 32 35  0  0  0  0  0  0  0  0999 V2000
    5.6451    0.4488    0.0000 C   0  0  0  0  0  0  0  0  0  0  0  0
    5.6451   -1.0512    0.0000 C   0  0  0  0  0  0  0  0  0  0  0  0
    4.3459   -1.8012    0.0000 C   0  0  0  0  0  0  0  0  0  0  0  0
    3.0470   -1.0512    0.0000 C   0  0  0  0  0  0  0  0  0  0  0  0
    3.0470    0.4488    0.0000 O   0  0  0  0  0  0  0  0  0  0  0  0
    1.7479   -1.8012    0.0000 C   0  0  0  0  0  0  0  0  0  0  0  0
    0.4487   -1.0512    0.0000 C   0  0  0  0  0  0  0  0  0  0  0  0
    0.4487    0.4488    0.0000 N   0  0  0  0  0  0  0  0  0  0  0  0
    1.7479    1.1988    0.0000 C   0  0  0  0  0  0  0  0  0  0  0  0
   -0.8502    1.1988    0.0000 C   0  0  0  0  0  0  0  0  0  0  0  0
   -0.8502   -1.8012    0.0000 C   0  0  0  0  0  0  0  0  0  0  0  0
   -2.1494   -1.0512    0.0000 O   0  0  0  0  0  0  0  0  0  0  0  0
   -0.8502   -3.3012    0.0000 C   0  0  0  0  0  0  0  0  0  0  0  0
    0.4487   -4.0512    0.0000 C   0  0  0  0  0  0  0  0  0  0  0  0
    0.4487   -5.5512    0.0000 O   0  0  0  0  0  0  0  0  0  0  0  0
    1.7479   -3.3012    0.0000 C   0  0  0  0  0  0  0  0  0  0  0  0
    1.7479   -4.8012    0.0000 O   0  0  0  0  0  0  0  0  0  0  0  0
    3.0470   -4.0512    0.0000 C   0  0  0  0  0  0  0  0  0  0  0  0
    4.3459   -3.3012    0.0000 C   0  0  0  0  0  0  0  0  0  0  0  0
    5.6451   -4.0512    0.0000 C   0  0  0  0  0  0  0  0  0  0  0  0
    5.6451   -5.5512    0.0000 O   0  0  0  0  0  0  0  0  0  0  0  0
    6.9440   -3.3012    0.0000 C   0  0  0  0  0  0  0  0  0  0  0  0
    8.2430   -4.0512    0.0000 C   0  0  0  0  0  0  0  0  0  0  0  0
    8.2430   -5.5512    0.0000 O   0  0  0  0  0  0  0  0  0  0  0  0
    9.5421   -3.3012    0.0000 C   0  0  0  0  0  0  0  0  0  0  0  0
    9.5421   -1.8012    0.0000 C   0  0  0  0  0  0  0  0  0  0  0  0
    8.2430   -1.0512    0.0000 C   0  0  0  0  0  0  0  0  0  0  0  0
    6.9440   -1.8012    0.0000 C   0  0  0  0  0  0  0  0  0  0  0  0
    3.0470   -5.5512    0.0000 O   0  0  0  0  0  0  0  0  0  0  0  0
   -2.1494   -4.0512    0.0000 C   0  0  0  0  0  0  0  0  0  0  0  0
   -3.4483   -3.3012    0.0000 O   0  0  0  0  0  0  0  0  0  0  0  0
   -2.1494   -5.5512    0.0000 N   0  0  0  0  0  0  0  0  0  0  0  0
  1  2  1  0  0  0  0
  3  2  1  0  0  0  0
  2 28  1  0  0  0  0
  4  3  1  0  0  0  0
  3 19  1  0  0  0  0
  4  5  1  0  0  0  0
  6  4  1  0  0  0  0
  7  6  1  0  0  0  0
  6 16  1  0  0  0  0
  7  8  1  0  0  0  0
 11  7  1  0  0  0  0
  8  9  1  0  0  0  0
  8 10  1  0  0  0  0
 11 12  2  0  0  0  0
 13 11  1  0  0  0  0
 14 13  2  0  0  0  0
 13 30  1  0  0  0  0
 14 15  1  0  0  0  0
 16 14  1  0  0  0  0
 16 17  1  0  0  0  0
 18 16  1  0  0  0  0
 19 18  2  0  0  0  0
 18 29  1  0  0  0  0
 20 19  1  0  0  0  0
 20 21  2  0  0  0  0
 22 20  1  0  0  0  0
 23 22  1  0  0  0  0
 22 28  2  0  0  0  0
 23 24  1  0  0  0  0
 25 23  2  0  0  0  0
 26 25  1  0  0  0  0
 27 26  2  0  0  0  0
 28 27  1  0  0  0  0
 30 31  2  0  0  0  0
 30 32  1  0  0  0  0
M  END
> <Inchi_key>
YDUGFTMNXJLIFF-UHFFFAOYSA-N

> <Source>
Mulliner

> <ID>
HT0720

> <H_MFHB>
1

> <CAS>
10592-13-9

> <Cholestasis>


> <Name>
doxycycline;doxycycline hyclate

> <Class>
1


$$$$