
  -INDIGO-08031710012D

  5  4  0  0  0  0  0  0  0  0999 V2000
    0.1313   -1.0098    0.0000 N   0  0  0  0  0  0  0  0  0  0  0  0
    1.4304   -0.2598    0.0000 C   0  0  0  0  0  0  0  0  0  0  0  0
    1.4304    1.2402    0.0000 O   0  0  0  0  0  0  0  0  0  0  0  0
    2.7294   -1.0098    0.0000 N   0  0  0  0  0  0  0  0  0  0  0  0
    4.0285   -0.2598    0.0000 O   0  0  0  0  0  0  0  0  0  0  0  0
  1  2  1  0  0  0  0
  2  3  2  0  0  0  0
  2  4  1  0  0  0  0
  4  5  1  0  0  0  0
M  END
> <Inchi_key>
VSNHCAURESNICA-UHFFFAOYSA-N

> <Source>
Mulliner

> <ID>
HT1063

> <H_MFHB>
1

> <CAS>


> <Cholestasis>


> <Name>
hydroxyurea

> <Class>
1

$$$$