

  -INDIGO-08031710012D

 25 26  0  0  0  0  0  0  0  0999 V2000
    8.7966    8.7966    0.0000 C   0  0  0  0  0  0  0  0  0  0  0  0
    8.7966    7.2966    0.0000 C   0  0  0  0  0  0  0  0  0  0  0  0
   10.0956    6.5466    0.0000 C   0  0  0  0  0  0  0  0  0  0  0  0
    7.4976    6.5466    0.0000 O   0  0  0  0  0  0  0  0  0  0  0  0
    6.1986    7.2966    0.0000 C   0  0  0  0  0  0  0  0  0  0  0  0
    6.1986    8.7966    0.0000 O   0  0  0  0  0  0  0  0  0  0  0  0
    4.8996    6.5466    0.0000 C   0  0  0  0  0  0  0  0  0  0  0  0
    4.1495    7.8456    0.0000 C   0  0  0  0  0  0  0  0  0  0  0  0
    5.6495    5.2475    0.0000 C   0  0  0  0  0  0  0  0  0  0  0  0
    3.6003    5.7966    0.0000 O   0  0  0  0  0  0  0  0  0  0  0  0
    2.3014    6.5466    0.0000 C   0  0  0  0  0  0  0  0  0  0  0  0
    2.3014    8.0466    0.0000 C   0  0  0  0  0  0  0  0  0  0  0  0
    1.0024    8.7966    0.0000 C   0  0  0  0  0  0  0  0  0  0  0  0
   -0.2966    8.0466    0.0000 C   0  0  0  0  0  0  0  0  0  0  0  0
   -0.2966    6.5466    0.0000 C   0  0  0  0  0  0  0  0  0  0  0  0
    1.0024    5.7966    0.0000 C   0  0  0  0  0  0  0  0  0  0  0  0
   -1.5956    8.7966    0.0000 C   0  0  0  0  0  0  0  0  0  0  0  0
   -1.5956   10.2966    0.0000 O   0  0  0  0  0  0  0  0  0  0  0  0
   -2.8949    8.0466    0.0000 C   0  0  0  0  0  0  0  0  0  0  0  0
   -2.8949    6.5466    0.0000 C   0  0  0  0  0  0  0  0  0  0  0  0
   -4.1939    5.7966    0.0000 C   0  0  0  0  0  0  0  0  0  0  0  0
   -5.4929    6.5466    0.0000 C   0  0  0  0  0  0  0  0  0  0  0  0
   -6.7919    5.7966    0.0000 Cl  0  0  0  0  0  0  0  0  0  0  0  0
   -5.4929    8.0466    0.0000 C   0  0  0  0  0  0  0  0  0  0  0  0
   -4.1939    8.7966    0.0000 C   0  0  0  0  0  0  0  0  0  0  0  0
  1  2  1  0  0  0  0
  2  3  1  0  0  0  0
  2  4  1  0  0  0  0
  4  5  1  0  0  0  0
  5  6  2  0  0  0  0
  5  7  1  0  0  0  0
  7  8  1  0  0  0  0
  7  9  1  0  0  0  0
  7 10  1  0  0  0  0
 10 11  1  0  0  0  0
 12 11  2  0  0  0  0
 11 16  1  0  0  0  0
 13 12  1  0  0  0  0
 14 13  2  0  0  0  0
 15 14  1  0  0  0  0
 14 17  1  0  0  0  0
 16 15  2  0  0  0  0
 17 18  2  0  0  0  0
 17 19  1  0  0  0  0
 20 19  2  0  0  0  0
 19 25  1  0  0  0  0
 21 20  1  0  0  0  0
 22 21  2  0  0  0  0
 22 23  1  0  0  0  0
 24 22  1  0  0  0  0
 25 24  2  0  0  0  0
M  END
> <Inchi_key>
YMTINGFKWWXKFG-UHFFFAOYSA-N

> <Source>
Mulliner , Kotsampasakou

> <ID>
EK0209;HT0860

> <H_MFHB>
1

> <CAS>
49562-28-9

> <Cholestasis>
1

> <Name>
fenofibrate

> <Class>
1


$$$$