

  -INDIGO-08031710012D

 18 19  0  0  0  0  0  0  0  0999 V2000
   11.1403    0.0382    0.0000 N   0  0  0  0  0  0  0  0  0  0  0  0
    9.6405    0.0279    0.0000 C   0  0  0  0  0  0  0  0  0  0  0  0
    8.8815    1.3217    0.0000 N   0  0  0  0  0  0  0  0  0  0  0  0
    7.3815    1.3115    0.0000 C   0  0  0  0  0  0  0  0  0  0  0  0
    6.6228    2.6053    0.0000 O   0  0  0  0  0  0  0  0  0  0  0  0
    6.6405    0.0073    0.0000 N   0  0  0  0  0  0  0  0  0  0  0  0
    7.3994   -1.2865    0.0000 C   0  0  0  0  0  0  0  0  0  0  0  0
    8.8993   -1.2763    0.0000 C   0  0  0  0  0  0  0  0  0  0  0  0
    5.1405   -0.0029    0.0000 C   0  0  0  0  0  0  0  0  0  0  0  0
    4.2505    1.2045    0.0000 O   0  0  0  0  0  0  0  0  0  0  0  0
    2.8271    0.7312    0.0000 C   0  0  0  0  0  0  0  0  0  0  0  0
    1.6076    1.6046    0.0000 C   0  0  0  0  0  0  0  0  0  0  0  0
    1.7542    3.0974    0.0000 O   0  0  0  0  0  0  0  0  0  0  0  0
    2.8375   -0.7687    0.0000 C   0  0  0  0  0  0  0  0  0  0  0  0
    1.6300   -1.6587    0.0000 O   0  0  0  0  0  0  0  0  0  0  0  0
    4.2670   -1.2225    0.0000 C   0  0  0  0  0  0  0  0  0  0  0  0
    3.9270   -2.6834    0.0000 F   0  0  0  0  0  0  0  0  0  0  0  0
    5.4144   -2.1888    0.0000 F   0  0  0  0  0  0  0  0  0  0  0  0
  1  2  1  0  0  0  0
  3  2  2  0  0  0  0
  2  8  1  0  0  0  0
  4  3  1  0  0  0  0
  4  5  2  0  0  0  0
  6  4  1  0  0  0  0
  7  6  1  0  0  0  0
  6  9  1  0  0  0  0
  8  7  2  0  0  0  0
 10  9  1  0  0  0  0
  9 16  1  0  0  0  0
 11 10  1  0  0  0  0
 11 12  1  0  0  0  0
 14 11  1  0  0  0  0
 12 13  1  0  0  0  0
 14 15  1  0  0  0  0
 16 14  1  0  0  0  0
 16 17  1  0  0  0  0
 16 18  1  0  0  0  0
M  END
> <Inchi_key>
SDUQYLNIPVEERB-UHFFFAOYSA-N

> <Source>
Mulliner , Kotsampasakou

> <ID>
EK0240;HT0969

> <H_MFHB>
1

> <CAS>
95058-81-4;122111-03-9

> <Cholestasis>
1

> <Name>
gemcitabine hydrochloride;gemcitabine

> <Class>
1


$$$$