

  -INDIGO-08031710012D

 24 27  0  0  0  0  0  0  0  0999 V2000
   -1.8319   -5.0999    0.0000 C   0  0  0  0  0  0  0  0  0  0  0  0
   -1.3484   -3.6800    0.0000 C   0  0  0  0  0  0  0  0  0  0  0  0
   -2.8291   -3.9197    0.0000 O   0  0  0  0  0  0  0  0  0  0  0  0
   -1.5103   -2.1887    0.0000 C   0  0  0  0  0  0  0  0  0  0  0  0
   -0.1419   -1.5739    0.0000 C   0  0  0  0  0  0  0  0  0  0  0  0
    0.8655   -2.6852    0.0000 C   0  0  0  0  0  0  0  0  0  0  0  0
    2.3655   -2.6801    0.0000 C   0  0  0  0  0  0  0  0  0  0  0  0
    3.1110   -1.3785    0.0000 C   0  0  0  0  0  0  0  0  0  0  0  0
    4.6111   -1.3734    0.0000 C   0  0  0  0  0  0  0  0  0  0  0  0
    5.3654   -2.6698    0.0000 C   0  0  0  0  0  0  0  0  0  0  0  0
    6.8654   -2.6647    0.0000 C   0  0  0  0  0  0  0  0  0  0  0  0
    7.6199   -3.9612    0.0000 C   0  0  0  0  0  0  0  0  0  0  0  0
    9.1199   -3.9561    0.0000 O   0  0  0  0  0  0  0  0  0  0  0  0
    6.8743   -5.2628    0.0000 C   0  0  0  0  0  0  0  0  0  0  0  0
    5.3743   -5.2679    0.0000 C   0  0  0  0  0  0  0  0  0  0  0  0
    4.6198   -3.9714    0.0000 C   0  0  0  0  0  0  0  0  0  0  0  0
    3.8743   -5.2730    0.0000 C   0  0  0  0  0  0  0  0  0  0  0  0
    3.1200   -3.9766    0.0000 C   0  0  0  0  0  0  0  0  0  0  0  0
    1.6199   -3.9817    0.0000 F   0  0  0  0  0  0  0  0  0  0  0  0
    2.3742   -5.2782    0.0000 C   0  0  0  0  0  0  0  0  0  0  0  0
    3.1287   -6.5746    0.0000 O   0  0  0  0  0  0  0  0  0  0  0  0
    0.8744   -5.2833    0.0000 C   0  0  0  0  0  0  0  0  0  0  0  0
    0.1199   -3.9868    0.0000 C   0  0  0  0  0  0  0  0  0  0  0  0
   -0.7361   -5.2185    0.0000 C   0  0  0  0  0  0  0  0  0  0  0  0
  1  2  1  0  0  0  0
  2  3  1  0  0  0  0
  4  2  1  0  0  0  0
  2 23  1  0  0  0  0
  5  4  1  0  0  0  0
  6  5  1  0  0  0  0
  7  6  1  0  0  0  0
  6 23  1  0  0  0  0
  8  7  1  0  0  0  0
  7 18  1  0  0  0  0
  9  8  1  0  0  0  0
 10  9  1  0  0  0  0
 11 10  2  0  0  0  0
 10 16  1  0  0  0  0
 12 11  1  0  0  0  0
 12 13  2  0  0  0  0
 14 12  1  0  0  0  0
 15 14  1  0  0  0  0
 16 15  1  0  0  0  0
 16 17  1  0  0  0  0
 18 16  1  0  0  0  0
 18 19  1  0  0  0  0
 20 18  1  0  0  0  0
 20 21  1  0  0  0  0
 22 20  1  0  0  0  0
 23 22  1  0  0  0  0
 23 24  1  0  0  0  0
M  END
> <Inchi_key>
YLRFCQOZQXIBAB-UHFFFAOYSA-N

> <Source>
Mulliner

> <ID>
HT0911

> <H_MFHB>
1

> <CAS>


> <Cholestasis>


> <Name>
fluoxymesterone

> <Class>
1


$$$$