
  -INDIGO-08031710012D

 31 33  0  0  0  0  0  0  0  0999 V2000
    2.2676    6.7575    0.0000 C   0  0  0  0  0  0  0  0  0  0  0  0
    2.2676    5.2576    0.0000 O   0  0  0  0  0  0  0  0  0  0  0  0
    0.9688    4.5075    0.0000 C   0  0  0  0  0  0  0  0  0  0  0  0
   -0.3305    5.2576    0.0000 C   0  0  0  0  0  0  0  0  0  0  0  0
   -0.3305    6.7575    0.0000 C   0  0  0  0  0  0  0  0  0  0  0  0
   -1.6293    4.5075    0.0000 C   0  0  0  0  0  0  0  0  0  0  0  0
   -3.0560    4.9710    0.0000 C   0  0  0  0  0  0  0  0  0  0  0  0
   -3.9377    3.7575    0.0000 O   0  0  0  0  0  0  0  0  0  0  0  0
   -3.0560    2.5439    0.0000 C   0  0  0  0  0  0  0  0  0  0  0  0
   -3.5194    1.1174    0.0000 O   0  0  0  0  0  0  0  0  0  0  0  0
   -1.6293    3.0075    0.0000 C   0  0  0  0  0  0  0  0  0  0  0  0
   -0.3305    2.2575    0.0000 C   0  0  0  0  0  0  0  0  0  0  0  0
   -0.3305    0.7575    0.0000 O   0  0  0  0  0  0  0  0  0  0  0  0
    0.9688    3.0075    0.0000 C   0  0  0  0  0  0  0  0  0  0  0  0
    2.2676    2.2575    0.0000 C   0  0  0  0  0  0  0  0  0  0  0  0
    2.2676    0.7575    0.0000 C   0  0  0  0  0  0  0  0  0  0  0  0
    3.5666    0.0074    0.0000 C   0  0  0  0  0  0  0  0  0  0  0  0
    3.5666   -1.4925    0.0000 C   0  0  0  0  0  0  0  0  0  0  0  0
    4.8657    0.7575    0.0000 C   0  0  0  0  0  0  0  0  0  0  0  0
    6.1647    0.0074    0.0000 C   0  0  0  0  0  0  0  0  0  0  0  0
    7.4638    0.7575    0.0000 C   0  0  0  0  0  0  0  0  0  0  0  0
    7.4638    2.2575    0.0000 O   0  0  0  0  0  0  0  0  0  0  0  0
    8.7628    0.0074    0.0000 O   0  0  0  0  0  0  0  0  0  0  0  0
   10.0619    0.7575    0.0000 C   0  0  0  0  0  0  0  0  0  0  0  0
   11.3609    0.0074    0.0000 C   0  0  0  0  0  0  0  0  0  0  0  0
   12.6600    0.7575    0.0000 N   0  0  0  0  0  0  0  0  0  0  0  0
   12.6600    2.2575    0.0000 C   0  0  0  0  0  0  0  0  0  0  0  0
   13.9590    3.0075    0.0000 C   0  0  0  0  0  0  0  0  0  0  0  0
   15.2581    2.2575    0.0000 O   0  0  0  0  0  0  0  0  0  0  0  0
   15.2581    0.7575    0.0000 C   0  0  0  0  0  0  0  0  0  0  0  0
   13.9590    0.0074    0.0000 C   0  0  0  0  0  0  0  0  0  0  0  0
  1  2  1  0  0  0  0
  2  3  1  0  0  0  0
  4  3  2  0  0  0  0
  3 14  1  0  0  0  0
  4  5  1  0  0  0  0
  6  4  1  0  0  0  0
  7  6  1  0  0  0  0
  6 11  2  0  0  0  0
  8  7  1  0  0  0  0
  9  8  1  0  0  0  0
  9 10  2  0  0  0  0
 11  9  1  0  0  0  0
 12 11  1  0  0  0  0
 12 13  1  0  0  0  0
 14 12  2  0  0  0  0
 14 15  1  0  0  0  0
 15 16  1  0  0  0  0
 16 17  2  0  0  0  0
 17 18  1  0  0  0  0
 17 19  1  0  0  0  0
 19 20  1  0  0  0  0
 20 21  1  0  0  0  0
 21 22  2  0  0  0  0
 21 23  1  0  0  0  0
 23 24  1  0  0  0  0
 24 25  1  0  0  0  0
 25 26  1  0  0  0  0
 27 26  1  0  0  0  0
 26 31  1  0  0  0  0
 28 27  1  0  0  0  0
 29 28  1  0  0  0  0
 30 29  1  0  0  0  0
 31 30  1  0  0  0  0
M  END
> <Inchi_key>
RTGDFNSFWBGLEC-TVPGTPATSA-N

> <Source>
Mulliner

> <ID>
HT1442

> <H_MFHB>
1

> <CAS>
128794-94-5

> <Cholestasis>


> <Name>
mycophenolate mofetil

> <Class>
1

$$$$