
  -INDIGO-08031710012D

 21 23  0  0  0  0  0  0  0  0999 V2000
   11.5197   -4.7717    0.0000 C   0  0  0  0  0  0  0  0  0  0  0  0
   10.4591   -3.7110    0.0000 N   0  0  0  0  0  0  0  0  0  0  0  0
   10.8473   -2.2621    0.0000 C   0  0  0  0  0  0  0  0  0  0  0  0
    9.0101   -4.0992    0.0000 C   0  0  0  0  0  0  0  0  0  0  0  0
    7.9495   -3.0386    0.0000 C   0  0  0  0  0  0  0  0  0  0  0  0
    6.5006   -3.4268    0.0000 C   0  0  0  0  0  0  0  0  0  0  0  0
    5.4400   -2.3661    0.0000 C   0  0  0  0  0  0  0  0  0  0  0  0
    5.9346   -0.9500    0.0000 C   0  0  0  0  0  0  0  0  0  0  0  0
    7.4335   -0.8938    0.0000 C   0  0  0  0  0  0  0  0  0  0  0  0
    8.1343    0.4325    0.0000 C   0  0  0  0  0  0  0  0  0  0  0  0
    7.3360    1.7025    0.0000 C   0  0  0  0  0  0  0  0  0  0  0  0
    5.8372    1.6463    0.0000 C   0  0  0  0  0  0  0  0  0  0  0  0
    5.1363    0.3200    0.0000 C   0  0  0  0  0  0  0  0  0  0  0  0
    3.6458    0.4885    0.0000 C   0  0  0  0  0  0  0  0  0  0  0  0
    2.5843   -0.5712    0.0000 S   0  0  0  0  0  0  0  0  0  0  0  0
    2.7538   -2.0624    0.0000 C   0  0  0  0  0  0  0  0  0  0  0  0
    1.4277   -2.7631    0.0000 C   0  0  0  0  0  0  0  0  0  0  0  0
    1.3713   -4.2621    0.0000 C   0  0  0  0  0  0  0  0  0  0  0  0
    2.6413   -5.0603    0.0000 C   0  0  0  0  0  0  0  0  0  0  0  0
    3.9674   -4.3596    0.0000 C   0  0  0  0  0  0  0  0  0  0  0  0
    4.0238   -2.8606    0.0000 C   0  0  0  0  0  0  0  0  0  0  0  0
  1  2  1  0  0  0  0
  2  3  1  0  0  0  0
  2  4  1  0  0  0  0
  4  5  1  0  0  0  0
  5  6  1  0  0  0  0
  6  7  2  0  0  0  0
  8  7  1  0  0  0  0
  7 21  1  0  0  0  0
  9  8  2  0  0  0  0
  8 13  1  0  0  0  0
 10  9  1  0  0  0  0
 11 10  2  0  0  0  0
 12 11  1  0  0  0  0
 13 12  2  0  0  0  0
 14 13  1  0  0  0  0
 15 14  1  0  0  0  0
 16 15  1  0  0  0  0
 17 16  2  0  0  0  0
 16 21  1  0  0  0  0
 18 17  1  0  0  0  0
 19 18  2  0  0  0  0
 20 19  1  0  0  0  0
 21 20  2  0  0  0  0
M  END
> <Inchi_key>
PHTUQLWOUWZIMZ-GZTJUZNOSA-N

> <Source>
Mulliner

> <ID>
HT0712

> <H_MFHB>
1

> <CAS>
897-15-4

> <Cholestasis>


> <Name>
dosulepin;dothiepin

> <Class>
1

$$$$