

  -INDIGO-08031709442D

 15 16  0  0  0  0  0  0  0  0999 V2000
    0.4510   -0.8170    0.0000 N   0  0  0  0  0  0  0  0  0  0  0  0
    1.7501   -0.0670    0.0000 C   0  0  0  0  0  0  0  0  0  0  0  0
    3.0490   -0.8170    0.0000 N   0  0  0  0  0  0  0  0  0  0  0  0
    4.3481   -0.0670    0.0000 C   0  0  0  0  0  0  0  0  0  0  0  0
    4.3481    1.4330    0.0000 C   0  0  0  0  0  0  0  0  0  0  0  0
    5.6471    2.1830    0.0000 C   0  0  0  0  0  0  0  0  0  0  0  0
    6.9462    1.4330    0.0000 C   0  0  0  0  0  0  0  0  0  0  0  0
    6.9462   -0.0670    0.0000 C   0  0  0  0  0  0  0  0  0  0  0  0
    5.6471   -0.8170    0.0000 C   0  0  0  0  0  0  0  0  0  0  0  0
   -0.8481   -0.0670    0.0000 C   0  0  0  0  0  0  0  0  0  0  0  0
   -2.1471   -0.8170    0.0000 C   0  0  0  0  0  0  0  0  0  0  0  0
   -3.4462   -0.0670    0.0000 C   0  0  0  0  0  0  0  0  0  0  0  0
   -3.4462    1.4330    0.0000 C   0  0  0  0  0  0  0  0  0  0  0  0
   -2.1471    2.1830    0.0000 C   0  0  0  0  0  0  0  0  0  0  0  0
   -0.8481    1.4330    0.0000 C   0  0  0  0  0  0  0  0  0  0  0  0
  1  2  1  0  0  0  0
  1 10  1  0  0  0  0
  2  3  1  0  0  0  0
  3  4  1  0  0  0  0
  5  4  2  0  0  0  0
  4  9  1  0  0  0  0
  6  5  1  0  0  0  0
  7  6  2  0  0  0  0
  8  7  1  0  0  0  0
  9  8  2  0  0  0  0
 11 10  2  0  0  0  0
 10 15  1  0  0  0  0
 12 11  1  0  0  0  0
 13 12  2  0  0  0  0
 14 13  1  0  0  0  0
 15 14  2  0  0  0  0
M  END
> <Inchi_key>
OHQOKJPHNPUMLN-UHFFFAOYSA-N

> <Source>
Kotsampasakou

> <ID>
EK0340

> <H_MFHB>


> <CAS>


> <Cholestasis>
1

> <Name>
methylenedianiline

> <Class>
1


$$$$