
  -INDIGO-08031710012D

 33 34  0  0  0  0  0  0  0  0999 V2000
    2.3062   -4.0270    0.0000 C   0  0  0  0  0  0  0  0  0  0  0  0
    1.0073   -4.7771    0.0000 C   0  0  0  0  0  0  0  0  0  0  0  0
    1.0073   -6.2771    0.0000 C   0  0  0  0  0  0  0  0  0  0  0  0
   -0.2918   -4.0270    0.0000 C   0  0  0  0  0  0  0  0  0  0  0  0
   -1.5909   -4.7771    0.0000 N   0  0  0  0  0  0  0  0  0  0  0  0
   -2.8897   -4.0270    0.0000 C   0  0  0  0  0  0  0  0  0  0  0  0
   -2.8897   -2.5270    0.0000 N   0  0  0  0  0  0  0  0  0  0  0  0
   -1.5909   -1.7770    0.0000 C   0  0  0  0  0  0  0  0  0  0  0  0
   -1.5909   -0.2772    0.0000 C   0  0  0  0  0  0  0  0  0  0  0  0
   -0.2918    0.4728    0.0000 C   0  0  0  0  0  0  0  0  0  0  0  0
   -0.2918    1.9729    0.0000 C   0  0  0  0  0  0  0  0  0  0  0  0
   -1.5909    2.7229    0.0000 C   0  0  0  0  0  0  0  0  0  0  0  0
   -1.5909    4.2229    0.0000 F   0  0  0  0  0  0  0  0  0  0  0  0
   -2.8897    1.9729    0.0000 C   0  0  0  0  0  0  0  0  0  0  0  0
   -2.8897    0.4728    0.0000 C   0  0  0  0  0  0  0  0  0  0  0  0
   -0.2918   -2.5270    0.0000 C   0  0  0  0  0  0  0  0  0  0  0  0
    1.0073   -1.7770    0.0000 C   0  0  0  0  0  0  0  0  0  0  0  0
    2.3062   -2.5270    0.0000 C   0  0  0  0  0  0  0  0  0  0  0  0
    3.6053   -1.7770    0.0000 C   0  0  0  0  0  0  0  0  0  0  0  0
    3.6053   -0.2772    0.0000 O   0  0  0  0  0  0  0  0  0  0  0  0
    4.9044   -2.5270    0.0000 C   0  0  0  0  0  0  0  0  0  0  0  0
    6.2035   -1.7770    0.0000 C   0  0  0  0  0  0  0  0  0  0  0  0
    6.2035   -0.2772    0.0000 O   0  0  0  0  0  0  0  0  0  0  0  0
    7.5024   -2.5270    0.0000 C   0  0  0  0  0  0  0  0  0  0  0  0
    8.8015   -1.7770    0.0000 C   0  0  0  0  0  0  0  0  0  0  0  0
    8.8015   -0.2772    0.0000 O   0  0  0  0  0  0  0  0  0  0  0  0
   10.1006   -2.5270    0.0000 O   0  0  0  0  0  0  0  0  0  0  0  0
   -4.1889   -4.7771    0.0000 N   0  0  0  0  0  0  0  0  0  0  0  0
   -5.4880   -4.0270    0.0000 C   0  0  0  0  0  0  0  0  0  0  0  0
   -4.1889   -6.2771    0.0000 S   0  0  0  0  0  0  0  0  0  0  0  0
   -2.6888   -6.2771    0.0000 O   0  0  0  0  0  0  0  0  0  0  0  0
   -5.6889   -6.2771    0.0000 O   0  0  0  0  0  0  0  0  0  0  0  0
   -4.1889   -7.7771    0.0000 C   0  0  0  0  0  0  0  0  0  0  0  0
  1  2  1  0  0  0  0
  2  3  1  0  0  0  0
  2  4  1  0  0  0  0
  5  4  2  0  0  0  0
  4 16  1  0  0  0  0
  6  5  1  0  0  0  0
  7  6  2  0  0  0  0
  6 28  1  0  0  0  0
  8  7  1  0  0  0  0
  8  9  1  0  0  0  0
 16  8  2  0  0  0  0
 10  9  2  0  0  0  0
  9 15  1  0  0  0  0
 11 10  1  0  0  0  0
 12 11  2  0  0  0  0
 12 13  1  0  0  0  0
 14 12  1  0  0  0  0
 15 14  2  0  0  0  0
 16 17  1  0  0  0  0
 17 18  2  0  0  0  0
 18 19  1  0  0  0  0
 19 20  1  0  0  0  0
 19 21  1  0  0  0  0
 21 22  1  0  0  0  0
 22 23  1  0  0  0  0
 22 24  1  0  0  0  0
 24 25  1  0  0  0  0
 25 26  2  0  0  0  0
 25 27  1  0  0  0  0
 28 29  1  0  0  0  0
 28 30  1  0  0  0  0
 30 31  2  0  0  0  0
 30 32  2  0  0  0  0
 30 33  1  0  0  0  0
M  END
> <Inchi_key>
BPRHUIZQVSMCRT-MDZDMXLPSA-N

> <Source>
Mulliner

> <ID>
HT0554

> <H_MFHB>
1

> <CAS>
147098-20-2

> <Cholestasis>


> <Name>
crestor;rosuvastatin calcium;rosuvastatin

> <Class>
1

$$$$