

  -INDIGO-08031710012D

 16 16  0  0  0  0  0  0  0  0999 V2000
   12.0938    6.9823    0.0000 C   0  0  0  0  0  0  0  0  0  0  0  0
   11.3438    5.6833    0.0000 N   0  0  0  0  0  0  0  0  0  0  0  0
    9.8438    5.6833    0.0000 N   0  0  0  0  0  0  0  0  0  0  0  0
    9.0938    4.3843    0.0000 C   0  0  0  0  0  0  0  0  0  0  0  0
    7.5937    4.3843    0.0000 C   0  0  0  0  0  0  0  0  0  0  0  0
    6.8437    3.0852    0.0000 C   0  0  0  0  0  0  0  0  0  0  0  0
    5.3437    3.0852    0.0000 C   0  0  0  0  0  0  0  0  0  0  0  0
    4.5937    4.3843    0.0000 C   0  0  0  0  0  0  0  0  0  0  0  0
    5.3437    5.6833    0.0000 C   0  0  0  0  0  0  0  0  0  0  0  0
    6.8437    5.6833    0.0000 C   0  0  0  0  0  0  0  0  0  0  0  0
    3.0937    4.3843    0.0000 C   0  0  0  0  0  0  0  0  0  0  0  0
    2.3437    5.6833    0.0000 O   0  0  0  0  0  0  0  0  0  0  0  0
    2.3437    3.0852    0.0000 N   0  0  0  0  0  0  0  0  0  0  0  0
    0.8436    3.0852    0.0000 C   0  0  0  0  0  0  0  0  0  0  0  0
    0.0938    4.3843    0.0000 C   0  0  0  0  0  0  0  0  0  0  0  0
    0.0938    1.7862    0.0000 C   0  0  0  0  0  0  0  0  0  0  0  0
  1  2  1  0  0  0  0
  2  3  1  0  0  0  0
  3  4  1  0  0  0  0
  4  5  1  0  0  0  0
  6  5  2  0  0  0  0
  5 10  1  0  0  0  0
  7  6  1  0  0  0  0
  8  7  2  0  0  0  0
  9  8  1  0  0  0  0
  8 11  1  0  0  0  0
 10  9  2  0  0  0  0
 11 12  2  0  0  0  0
 11 13  1  0  0  0  0
 13 14  1  0  0  0  0
 14 15  1  0  0  0  0
 14 16  1  0  0  0  0
M  END
> <Inchi_key>
CPTBDICYNRMXFX-UHFFFAOYSA-N

> <Source>
Mulliner

> <ID>
HT1745

> <H_MFHB>
1

> <CAS>


> <Cholestasis>


> <Name>
procarbazine hydrochloride;procarbazine

> <Class>
1


$$$$