

  -INDIGO-08031710012D

 25 26  0  0  0  0  0  0  0  0999 V2000
   11.1838    2.9967    0.0000 C   0  0  0  0  0  0  0  0  0  0  0  0
    9.8847    2.2467    0.0000 C   0  0  0  0  0  0  0  0  0  0  0  0
    9.8847    0.7467    0.0000 C   0  0  0  0  0  0  0  0  0  0  0  0
    8.5857    2.9967    0.0000 N   0  0  0  0  0  0  0  0  0  0  0  0
    7.2866    2.2467    0.0000 C   0  0  0  0  0  0  0  0  0  0  0  0
    5.9877    2.9967    0.0000 C   0  0  0  0  0  0  0  0  0  0  0  0
    4.6887    2.2467    0.0000 C   0  0  0  0  0  0  0  0  0  0  0  0
    5.4386    0.9477    0.0000 C   0  0  0  0  0  0  0  0  0  0  0  0
    6.9386    0.9477    0.0000 O   0  0  0  0  0  0  0  0  0  0  0  0
    4.6887   -0.3514    0.0000 N   0  0  0  0  0  0  0  0  0  0  0  0
    3.9386    3.5457    0.0000 C   0  0  0  0  0  0  0  0  0  0  0  0
    2.4386    3.5457    0.0000 C   0  0  0  0  0  0  0  0  0  0  0  0
    1.6886    4.8448    0.0000 C   0  0  0  0  0  0  0  0  0  0  0  0
    2.4386    6.1438    0.0000 C   0  0  0  0  0  0  0  0  0  0  0  0
    3.9386    6.1438    0.0000 C   0  0  0  0  0  0  0  0  0  0  0  0
    4.6887    4.8448    0.0000 C   0  0  0  0  0  0  0  0  0  0  0  0
    3.3896    1.4967    0.0000 C   0  0  0  0  0  0  0  0  0  0  0  0
    2.0906    2.2467    0.0000 C   0  0  0  0  0  0  0  0  0  0  0  0
    0.7915    1.4967    0.0000 C   0  0  0  0  0  0  0  0  0  0  0  0
    0.7915   -0.0033    0.0000 C   0  0  0  0  0  0  0  0  0  0  0  0
    2.0906   -0.7533    0.0000 C   0  0  0  0  0  0  0  0  0  0  0  0
    3.3896   -0.0033    0.0000 N   0  0  0  0  0  0  0  0  0  0  0  0
    8.5857    4.4967    0.0000 C   0  0  0  0  0  0  0  0  0  0  0  0
    9.8847    5.2467    0.0000 C   0  0  0  0  0  0  0  0  0  0  0  0
    7.2866    5.2467    0.0000 C   0  0  0  0  0  0  0  0  0  0  0  0
  1  2  1  0  0  0  0
  2  3  1  0  0  0  0
  2  4  1  0  0  0  0
  4  5  1  0  0  0  0
  4 23  1  0  0  0  0
  5  6  1  0  0  0  0
  6  7  1  0  0  0  0
  7  8  1  0  0  0  0
  7 11  1  0  0  0  0
  7 17  1  0  0  0  0
  8  9  2  0  0  0  0
  8 10  1  0  0  0  0
 12 11  2  0  0  0  0
 11 16  1  0  0  0  0
 13 12  1  0  0  0  0
 14 13  2  0  0  0  0
 15 14  1  0  0  0  0
 16 15  2  0  0  0  0
 18 17  2  0  0  0  0
 17 22  1  0  0  0  0
 19 18  1  0  0  0  0
 20 19  2  0  0  0  0
 21 20  1  0  0  0  0
 22 21  2  0  0  0  0
 23 24  1  0  0  0  0
 23 25  1  0  0  0  0
M  END
> <Inchi_key>
UVTNFZQICZKOEM-UHFFFAOYSA-N

> <Source>
Mulliner

> <ID>
HT0696

> <H_MFHB>
1

> <CAS>
671200

> <Cholestasis>


> <Name>
disopyramide phosphate;disopyramide

> <Class>
1


$$$$