

  -INDIGO-08031710012D

 24 26  0  0  0  0  0  0  0  0999 V2000
    6.7573    1.0558    0.0000 N   0  0  0  0  0  0  0  0  0  0  0  0
    6.3689    2.5047    0.0000 C   0  0  0  0  0  0  0  0  0  0  0  0
    4.9201    2.8929    0.0000 C   0  0  0  0  0  0  0  0  0  0  0  0
    4.5319    4.3418    0.0000 O   0  0  0  0  0  0  0  0  0  0  0  0
    3.8596    1.8322    0.0000 N   0  0  0  0  0  0  0  0  0  0  0  0
    2.4106    2.2205    0.0000 C   0  0  0  0  0  0  0  0  0  0  0  0
    1.1117    1.4705    0.0000 C   0  0  0  0  0  0  0  0  0  0  0  0
    0.3617    0.1714    0.0000 S   0  0  0  0  0  0  0  0  0  0  0  0
   -1.1384    0.1714    0.0000 C   0  0  0  0  0  0  0  0  0  0  0  0
   -1.8884    1.4705    0.0000 C   0  0  0  0  0  0  0  0  0  0  0  0
   -1.1384    2.7695    0.0000 C   0  0  0  0  0  0  0  0  0  0  0  0
    0.3617    2.7695    0.0000 N   0  0  0  0  0  0  0  0  0  0  0  0
    1.6606    3.5195    0.0000 C   0  0  0  0  0  0  0  0  0  0  0  0
    2.0488    4.9684    0.0000 O   0  0  0  0  0  0  0  0  0  0  0  0
   -1.8884    4.0686    0.0000 C   0  0  0  0  0  0  0  0  0  0  0  0
   -1.1384    5.3676    0.0000 O   0  0  0  0  0  0  0  0  0  0  0  0
   -3.3884    4.0686    0.0000 O   0  0  0  0  0  0  0  0  0  0  0  0
   -3.3884    1.4705    0.0000 Cl  0  0  0  0  0  0  0  0  0  0  0  0
    7.4297    3.5653    0.0000 C   0  0  0  0  0  0  0  0  0  0  0  0
    8.8786    3.1771    0.0000 C   0  0  0  0  0  0  0  0  0  0  0  0
    9.9392    4.2378    0.0000 C   0  0  0  0  0  0  0  0  0  0  0  0
    9.5510    5.6867    0.0000 C   0  0  0  0  0  0  0  0  0  0  0  0
    8.1022    6.0749    0.0000 C   0  0  0  0  0  0  0  0  0  0  0  0
    7.0414    5.0142    0.0000 C   0  0  0  0  0  0  0  0  0  0  0  0
  1  2  1  0  0  0  0
  2  3  1  0  0  0  0
  2 19  1  0  0  0  0
  3  4  2  0  0  0  0
  3  5  1  0  0  0  0
  5  6  1  0  0  0  0
  7  6  1  0  0  0  0
  6 13  1  0  0  0  0
  8  7  1  0  0  0  0
  7 12  1  0  0  0  0
  9  8  1  0  0  0  0
 10  9  1  0  0  0  0
 11 10  2  0  0  0  0
 10 18  1  0  0  0  0
 12 11  1  0  0  0  0
 11 15  1  0  0  0  0
 13 12  1  0  0  0  0
 13 14  2  0  0  0  0
 15 16  2  0  0  0  0
 15 17  1  0  0  0  0
 20 19  2  0  0  0  0
 19 24  1  0  0  0  0
 21 20  1  0  0  0  0
 22 21  2  0  0  0  0
 23 22  1  0  0  0  0
 24 23  2  0  0  0  0
M  END
> <Inchi_key>
QYIYFLOTGYLRGG-UHFFFAOYSA-N

> <Source>
Mulliner , Kotsampasakou

> <ID>
EK0099;HT0394

> <H_MFHB>
1

> <CAS>
53994-73-3

> <Cholestasis>
1

> <Name>
cefaclor

> <Class>
1


$$$$