
  -INDIGO-08031710012D

 24 26  0  0  0  0  0  0  0  0999 V2000
   -3.6875    4.3300    0.0000 C   0  0  0  0  0  0  0  0  0  0  0  0
   -2.9376    3.0311    0.0000 N   0  0  0  0  0  0  0  0  0  0  0  0
   -3.6875    1.7321    0.0000 C   0  0  0  0  0  0  0  0  0  0  0  0
   -1.4376    3.0311    0.0000 C   0  0  0  0  0  0  0  0  0  0  0  0
   -0.6875    4.3300    0.0000 C   0  0  0  0  0  0  0  0  0  0  0  0
    0.8125    4.3300    0.0000 C   0  0  0  0  0  0  0  0  0  0  0  0
    1.5624    5.6291    0.0000 N   0  0  0  0  0  0  0  0  0  0  0  0
    0.8125    6.9282    0.0000 C   0  0  0  0  0  0  0  0  0  0  0  0
   -0.6875    6.9282    0.0000 C   0  0  0  0  0  0  0  0  0  0  0  0
   -1.4376    8.2272    0.0000 C   0  0  0  0  0  0  0  0  0  0  0  0
   -0.6875    9.5263    0.0000 C   0  0  0  0  0  0  0  0  0  0  0  0
    0.8125    9.5263    0.0000 C   0  0  0  0  0  0  0  0  0  0  0  0
    1.5624    8.2272    0.0000 C   0  0  0  0  0  0  0  0  0  0  0  0
    3.0624    8.2272    0.0000 S   0  0  0  0  0  0  0  0  0  0  0  0
    3.8125    6.9282    0.0000 C   0  0  0  0  0  0  0  0  0  0  0  0
    5.3125    6.9282    0.0000 C   0  0  0  0  0  0  0  0  0  0  0  0
    6.0625    5.6291    0.0000 C   0  0  0  0  0  0  0  0  0  0  0  0
    5.3125    4.3300    0.0000 C   0  0  0  0  0  0  0  0  0  0  0  0
    3.8125    4.3300    0.0000 C   0  0  0  0  0  0  0  0  0  0  0  0
    3.0624    5.6291    0.0000 C   0  0  0  0  0  0  0  0  0  0  0  0
    6.0625    3.0311    0.0000 C   0  0  0  0  0  0  0  0  0  0  0  0
    4.7634    2.2811    0.0000 F   0  0  0  0  0  0  0  0  0  0  0  0
    6.8125    1.7321    0.0000 F   0  0  0  0  0  0  0  0  0  0  0  0
    7.3615    3.7811    0.0000 F   0  0  0  0  0  0  0  0  0  0  0  0
  1  2  1  0  0  0  0
  2  3  1  0  0  0  0
  2  4  1  0  0  0  0
  4  5  1  0  0  0  0
  5  6  1  0  0  0  0
  6  7  1  0  0  0  0
  8  7  1  0  0  0  0
  7 20  1  0  0  0  0
  9  8  1  0  0  0  0
  8 13  2  0  0  0  0
 10  9  2  0  0  0  0
 11 10  1  0  0  0  0
 12 11  2  0  0  0  0
 13 12  1  0  0  0  0
 14 13  1  0  0  0  0
 15 14  1  0  0  0  0
 16 15  1  0  0  0  0
 15 20  2  0  0  0  0
 17 16  2  0  0  0  0
 18 17  1  0  0  0  0
 19 18  2  0  0  0  0
 18 21  1  0  0  0  0
 20 19  1  0  0  0  0
 21 22  1  0  0  0  0
 21 23  1  0  0  0  0
 21 24  1  0  0  0  0
M  END
> <Inchi_key>
XSCGXQMFQXDFCW-UHFFFAOYSA-N

> <Source>
Mulliner

> <ID>
HT2119

> <H_MFHB>
1

> <CAS>


> <Cholestasis>


> <Name>
triflupromazine hydrochloride;triflupromazine

> <Class>
1

$$$$