

  -INDIGO-08031710012D

 17 18  0  0  0  0  0  0  0  0999 V2000
    1.1912   -4.4675    0.0000 C   0  0  0  0  0  0  0  0  0  0  0  0
    0.4412   -3.1684    0.0000 N   0  0  0  0  0  0  0  0  0  0  0  0
    1.1912   -1.8694    0.0000 C   0  0  0  0  0  0  0  0  0  0  0  0
    2.6913   -1.8694    0.0000 C   0  0  0  0  0  0  0  0  0  0  0  0
    3.4412   -0.5704    0.0000 C   0  0  0  0  0  0  0  0  0  0  0  0
    4.9412   -0.5704    0.0000 C   0  0  0  0  0  0  0  0  0  0  0  0
    5.6913   -1.8694    0.0000 C   0  0  0  0  0  0  0  0  0  0  0  0
    7.1912   -1.8694    0.0000 Cl  0  0  0  0  0  0  0  0  0  0  0  0
    4.9412   -3.1684    0.0000 C   0  0  0  0  0  0  0  0  0  0  0  0
    3.4412   -3.1684    0.0000 C   0  0  0  0  0  0  0  0  0  0  0  0
    0.4412   -0.5704    0.0000 S   0  0  0  0  0  0  0  0  0  0  0  0
    1.7403    0.1796    0.0000 O   0  0  0  0  0  0  0  0  0  0  0  0
    0.4412    0.9296    0.0000 O   0  0  0  0  0  0  0  0  0  0  0  0
   -1.0588   -0.5704    0.0000 C   0  0  0  0  0  0  0  0  0  0  0  0
   -1.8088   -1.8694    0.0000 C   0  0  0  0  0  0  0  0  0  0  0  0
   -1.0588   -3.1684    0.0000 C   0  0  0  0  0  0  0  0  0  0  0  0
   -1.8088   -4.4675    0.0000 O   0  0  0  0  0  0  0  0  0  0  0  0
  1  2  1  0  0  0  0
  3  2  1  0  0  0  0
  2 16  1  0  0  0  0
  3  4  1  0  0  0  0
 11  3  1  0  0  0  0
  5  4  2  0  0  0  0
  4 10  1  0  0  0  0
  6  5  1  0  0  0  0
  7  6  2  0  0  0  0
  7  8  1  0  0  0  0
  9  7  1  0  0  0  0
 10  9  2  0  0  0  0
 11 12  2  0  0  0  0
 11 13  2  0  0  0  0
 14 11  1  0  0  0  0
 15 14  1  0  0  0  0
 16 15  1  0  0  0  0
 16 17  2  0  0  0  0
M  END
> <Inchi_key>
WEQAYVWKMWHEJO-UHFFFAOYSA-N

> <Source>
Mulliner

> <ID>
HT0455

> <H_MFHB>
1

> <CAS>


> <Cholestasis>


> <Name>
chlormezanone

> <Class>
1


$$$$