

  -INDIGO-08031710012D

 36 40  0  0  0  0  0  0  0  0999 V2000
   17.1843   -9.6034    0.0000 C   0  0  0  0  0  0  0  0  0  0  0  0
   16.4997  -10.9381    0.0000 C   0  0  0  0  0  0  0  0  0  0  0  0
   17.3129  -12.1984    0.0000 O   0  0  0  0  0  0  0  0  0  0  0  0
   15.0013  -11.0123    0.0000 N   0  0  0  0  0  0  0  0  0  0  0  0
   14.1881   -9.7519    0.0000 C   0  0  0  0  0  0  0  0  0  0  0  0
   12.6899   -9.8261    0.0000 C   0  0  0  0  0  0  0  0  0  0  0  0
   12.0050  -11.1606    0.0000 N   0  0  0  0  0  0  0  0  0  0  0  0
   12.8185  -12.4211    0.0000 C   0  0  0  0  0  0  0  0  0  0  0  0
   14.3164  -12.3467    0.0000 C   0  0  0  0  0  0  0  0  0  0  0  0
   10.5069  -11.2348    0.0000 C   0  0  0  0  0  0  0  0  0  0  0  0
    9.8220  -12.5693    0.0000 C   0  0  0  0  0  0  0  0  0  0  0  0
    8.3239  -12.6436    0.0000 C   0  0  0  0  0  0  0  0  0  0  0  0
    7.5107  -11.3832    0.0000 C   0  0  0  0  0  0  0  0  0  0  0  0
    6.0122  -11.4573    0.0000 O   0  0  0  0  0  0  0  0  0  0  0  0
    5.1990  -10.1969    0.0000 C   0  0  0  0  0  0  0  0  0  0  0  0
    3.7009  -10.2712    0.0000 C   0  0  0  0  0  0  0  0  0  0  0  0
    2.8803  -11.5268    0.0000 C   0  0  0  0  0  0  0  0  0  0  0  0
    1.4325  -11.1344    0.0000 O   0  0  0  0  0  0  0  0  0  0  0  0
    1.3585   -9.6362    0.0000 C   0  0  0  0  0  0  0  0  0  0  0  0
   -0.1378   -9.5272    0.0000 C   0  0  0  0  0  0  0  0  0  0  0  0
   -0.9800  -10.7684    0.0000 N   0  0  0  0  0  0  0  0  0  0  0  0
   -2.4794  -10.8165    0.0000 C   0  0  0  0  0  0  0  0  0  0  0  0
   -2.8969  -12.2571    0.0000 C   0  0  0  0  0  0  0  0  0  0  0  0
   -1.6557  -13.0995    0.0000 N   0  0  0  0  0  0  0  0  0  0  0  0
   -0.4712  -12.1794    0.0000 C   0  0  0  0  0  0  0  0  0  0  0  0
    2.7604   -9.1027    0.0000 O   0  0  0  0  0  0  0  0  0  0  0  0
    0.7522   -8.2642    0.0000 C   0  0  0  0  0  0  0  0  0  0  0  0
   -0.7392   -8.1031    0.0000 C   0  0  0  0  0  0  0  0  0  0  0  0
   -1.3451   -6.7309    0.0000 C   0  0  0  0  0  0  0  0  0  0  0  0
   -0.4601   -5.5201    0.0000 C   0  0  0  0  0  0  0  0  0  0  0  0
   -1.0663   -4.1480    0.0000 Cl  0  0  0  0  0  0  0  0  0  0  0  0
    1.0313   -5.6811    0.0000 C   0  0  0  0  0  0  0  0  0  0  0  0
    1.6375   -7.0532    0.0000 C   0  0  0  0  0  0  0  0  0  0  0  0
    3.1286   -7.2143    0.0000 Cl  0  0  0  0  0  0  0  0  0  0  0  0
    8.1953  -10.0486    0.0000 C   0  0  0  0  0  0  0  0  0  0  0  0
    9.6937   -9.9744    0.0000 C   0  0  0  0  0  0  0  0  0  0  0  0
  1  2  1  0  0  0  0
  2  3  2  0  0  0  0
  2  4  1  0  0  0  0
  5  4  1  0  0  0  0
  4  9  1  0  0  0  0
  6  5  1  0  0  0  0
  7  6  1  0  0  0  0
  8  7  1  0  0  0  0
  7 10  1  0  0  0  0
  9  8  1  0  0  0  0
 11 10  2  0  0  0  0
 10 36  1  0  0  0  0
 12 11  1  0  0  0  0
 13 12  2  0  0  0  0
 13 14  1  0  0  0  0
 35 13  1  0  0  0  0
 14 15  1  0  0  0  0
 15 16  1  0  0  0  0
 17 16  1  0  0  0  0
 16 26  1  0  0  0  0
 18 17  1  0  0  0  0
 19 18  1  0  0  0  0
 19 20  1  0  0  0  0
 26 19  1  0  0  0  0
 19 27  1  0  0  0  0
 20 21  1  0  0  0  0
 22 21  1  0  0  0  0
 21 25  1  0  0  0  0
 23 22  2  0  0  0  0
 24 23  1  0  0  0  0
 25 24  2  0  0  0  0
 28 27  2  0  0  0  0
 27 33  1  0  0  0  0
 29 28  1  0  0  0  0
 30 29  2  0  0  0  0
 30 31  1  0  0  0  0
 32 30  1  0  0  0  0
 33 32  2  0  0  0  0
 33 34  1  0  0  0  0
 36 35  2  0  0  0  0
M  END
> <Inchi_key>
XMAYWYJOQHXEEK-UHFFFAOYSA-N

> <Source>
Mulliner

> <ID>
HT1159

> <H_MFHB>
1

> <CAS>
65277-42-1

> <Cholestasis>


> <Name>
ketoconazole

> <Class>
1


$$$$