

  -INDIGO-08031710012D

 19 20  0  0  0  0  0  0  0  0999 V2000
    1.2457    2.8526    0.0000 S   0  0  0  0  0  0  0  0  0  0  0  0
    1.2457    1.3524    0.0000 O   0  0  0  0  0  0  0  0  0  0  0  0
   -0.0533    3.6025    0.0000 C   0  0  0  0  0  0  0  0  0  0  0  0
    2.5445    3.6025    0.0000 C   0  0  0  0  0  0  0  0  0  0  0  0
    3.8437    2.8526    0.0000 C   0  0  0  0  0  0  0  0  0  0  0  0
    2.5445    5.1025    0.0000 C   0  0  0  0  0  0  0  0  0  0  0  0
    3.8437    1.3524    0.0000 C   0  0  0  0  0  0  0  0  0  0  0  0
    5.1427    3.6025    0.0000 C   0  0  0  0  0  0  0  0  0  0  0  0
    1.2457    5.8526    0.0000 C   0  0  0  0  0  0  0  0  0  0  0  0
    3.8437    5.8526    0.0000 C   0  0  0  0  0  0  0  0  0  0  0  0
    5.1427    0.6025    0.0000 C   0  0  0  0  0  0  0  0  0  0  0  0
    6.4417    2.8526    0.0000 C   0  0  0  0  0  0  0  0  0  0  0  0
    1.2457    7.3526    0.0000 C   0  0  0  0  0  0  0  0  0  0  0  0
    3.8437    7.3526    0.0000 C   0  0  0  0  0  0  0  0  0  0  0  0
    6.4417    1.3524    0.0000 C   0  0  0  0  0  0  0  0  0  0  0  0
    2.5445    8.1025    0.0000 C   0  0  0  0  0  0  0  0  0  0  0  0
   -1.3525    2.8526    0.0000 C   0  0  0  0  0  0  0  0  0  0  0  0
   -1.3525    1.3524    0.0000 N   0  0  0  0  0  0  0  0  0  0  0  0
   -2.6515    3.6025    0.0000 O   0  0  0  0  0  0  0  0  0  0  0  0
  1  2  1  0  0  0  0
  1  3  1  0  0  0  0
  1  4  1  0  0  0  0
  4  5  1  0  0  0  0
  4  6  1  0  0  0  0
  7  5  2  0  0  0  0
  5  8  1  0  0  0  0
  9  6  2  0  0  0  0
  6 10  1  0  0  0  0
 11  7  1  0  0  0  0
  8 12  2  0  0  0  0
 13  9  1  0  0  0  0
 10 14  2  0  0  0  0
 15 11  2  0  0  0  0
 12 15  1  0  0  0  0
 16 13  2  0  0  0  0
 14 16  1  0  0  0  0
  3 17  1  0  0  0  0
 17 18  1  0  0  0  0
 17 19  2  0  0  0  0
M  CHG  2   1   1   2  -1
M  END
> <Inchi_key>
YFGHCGITMMYXAQ-UHFFFAOYSA-N

> <Source>
Mulliner

> <ID>
HT1422

> <H_MFHB>
1

> <CAS>


> <Cholestasis>


> <Name>
armodafinil;modafinil

> <Class>
1


$$$$