
  -INDIGO-08031710012D

 30 33  0  0  0  0  0  0  0  0999 V2000
    3.4579    3.4576    0.0000 C   0  0  0  0  0  0  0  0  0  0  0  0
    3.4576    1.9576    0.0000 N   0  0  0  0  0  0  0  0  0  0  0  0
    2.1587    1.2078    0.0000 C   0  0  0  0  0  0  0  0  0  0  0  0
    0.8598    1.9578    0.0000 C   0  0  0  0  0  0  0  0  0  0  0  0
   -0.4393    1.2078    0.0000 C   0  0  0  0  0  0  0  0  0  0  0  0
   -1.7385    1.9578    0.0000 N   0  0  0  0  0  0  0  0  0  0  0  0
   -2.9783    1.1137    0.0000 C   0  0  0  0  0  0  0  0  0  0  0  0
   -2.6448   -0.3487    0.0000 C   0  0  0  0  0  0  0  0  0  0  0  0
   -3.7447   -1.3688    0.0000 C   0  0  0  0  0  0  0  0  0  0  0  0
   -5.1779   -0.9264    0.0000 C   0  0  0  0  0  0  0  0  0  0  0  0
   -5.5114    0.5360    0.0000 C   0  0  0  0  0  0  0  0  0  0  0  0
   -4.4115    1.5561    0.0000 C   0  0  0  0  0  0  0  0  0  0  0  0
   -4.9602    2.9522    0.0000 C   0  0  0  0  0  0  0  0  0  0  0  0
   -4.2112    4.2519    0.0000 C   0  0  0  0  0  0  0  0  0  0  0  0
   -2.7269    4.4739    0.0000 C   0  0  0  0  0  0  0  0  0  0  0  0
   -2.3933    5.9363    0.0000 C   0  0  0  0  0  0  0  0  0  0  0  0
   -0.9599    6.3786    0.0000 C   0  0  0  0  0  0  0  0  0  0  0  0
    0.1398    5.3584    0.0000 C   0  0  0  0  0  0  0  0  0  0  0  0
   -0.1938    3.8960    0.0000 C   0  0  0  0  0  0  0  0  0  0  0  0
   -1.6272    3.4538    0.0000 C   0  0  0  0  0  0  0  0  0  0  0  0
    4.7568    1.2076    0.0000 C   0  0  0  0  0  0  0  0  0  0  0  0
    6.0557    1.9575    0.0000 C   0  0  0  0  0  0  0  0  0  0  0  0
    6.0559    3.4576    0.0000 O   0  0  0  0  0  0  0  0  0  0  0  0
    7.3548    1.2074    0.0000 C   0  0  0  0  0  0  0  0  0  0  0  0
    7.3546   -0.2925    0.0000 C   0  0  0  0  0  0  0  0  0  0  0  0
    8.6537   -1.0426    0.0000 C   0  0  0  0  0  0  0  0  0  0  0  0
    9.9529   -0.2927    0.0000 C   0  0  0  0  0  0  0  0  0  0  0  0
   11.2518   -1.0428    0.0000 Cl  0  0  0  0  0  0  0  0  0  0  0  0
    9.9529    1.2073    0.0000 C   0  0  0  0  0  0  0  0  0  0  0  0
    8.6540    1.9574    0.0000 C   0  0  0  0  0  0  0  0  0  0  0  0
  1  2  1  0  0  0  0
  2  3  1  0  0  0  0
  2 21  1  0  0  0  0
  3  4  1  0  0  0  0
  4  5  1  0  0  0  0
  5  6  1  0  0  0  0
  7  6  1  0  0  0  0
  6 20  1  0  0  0  0
  8  7  2  0  0  0  0
  7 12  1  0  0  0  0
  9  8  1  0  0  0  0
 10  9  2  0  0  0  0
 11 10  1  0  0  0  0
 12 11  2  0  0  0  0
 13 12  1  0  0  0  0
 14 13  1  0  0  0  0
 15 14  1  0  0  0  0
 16 15  1  0  0  0  0
 15 20  2  0  0  0  0
 17 16  2  0  0  0  0
 18 17  1  0  0  0  0
 19 18  2  0  0  0  0
 20 19  1  0  0  0  0
 21 22  1  0  0  0  0
 22 23  2  0  0  0  0
 22 24  1  0  0  0  0
 25 24  2  0  0  0  0
 24 30  1  0  0  0  0
 26 25  1  0  0  0  0
 27 26  2  0  0  0  0
 27 28  1  0  0  0  0
 29 27  1  0  0  0  0
 30 29  2  0  0  0  0
M  END
> <Inchi_key>
SAPNXPWPAUFAJU-UHFFFAOYSA-N

> <Source>
Mulliner

> <ID>
HT1227

> <H_MFHB>
1

> <CAS>


> <Cholestasis>


> <Name>
lofepramine

> <Class>
1

$$$$