
  -INDIGO-08031710012D

 25 28  0  0  0  0  0  0  0  0999 V2000
   15.2503    4.0863    0.0000 C   0  0  0  0  0  0  0  0  0  0  0  0
   13.9514    3.3363    0.0000 N   0  0  0  0  0  0  0  0  0  0  0  0
   13.9514    1.8364    0.0000 C   0  0  0  0  0  0  0  0  0  0  0  0
   12.6522    1.0863    0.0000 C   0  0  0  0  0  0  0  0  0  0  0  0
   11.3533    1.8364    0.0000 N   0  0  0  0  0  0  0  0  0  0  0  0
   10.0541    1.0863    0.0000 C   0  0  0  0  0  0  0  0  0  0  0  0
    8.7552    1.8364    0.0000 C   0  0  0  0  0  0  0  0  0  0  0  0
    7.4561    1.0863    0.0000 C   0  0  0  0  0  0  0  0  0  0  0  0
    6.1569    1.8364    0.0000 N   0  0  0  0  0  0  0  0  0  0  0  0
    6.1569    3.3363    0.0000 C   0  0  0  0  0  0  0  0  0  0  0  0
    7.4561    4.0863    0.0000 C   0  0  0  0  0  0  0  0  0  0  0  0
    7.4561    5.5863    0.0000 C   0  0  0  0  0  0  0  0  0  0  0  0
    6.1569    6.3363    0.0000 C   0  0  0  0  0  0  0  0  0  0  0  0
    4.8580    5.5863    0.0000 C   0  0  0  0  0  0  0  0  0  0  0  0
    4.8580    4.0863    0.0000 C   0  0  0  0  0  0  0  0  0  0  0  0
    3.5590    3.3363    0.0000 S   0  0  0  0  0  0  0  0  0  0  0  0
    3.5590    1.8364    0.0000 C   0  0  0  0  0  0  0  0  0  0  0  0
    2.2599    1.0863    0.0000 C   0  0  0  0  0  0  0  0  0  0  0  0
    2.2599   -0.4137    0.0000 C   0  0  0  0  0  0  0  0  0  0  0  0
    3.5590   -1.1636    0.0000 C   0  0  0  0  0  0  0  0  0  0  0  0
    3.5590   -2.6637    0.0000 Cl  0  0  0  0  0  0  0  0  0  0  0  0
    4.8580   -0.4137    0.0000 C   0  0  0  0  0  0  0  0  0  0  0  0
    4.8580    1.0863    0.0000 C   0  0  0  0  0  0  0  0  0  0  0  0
   11.3533    3.3363    0.0000 C   0  0  0  0  0  0  0  0  0  0  0  0
   12.6522    4.0863    0.0000 C   0  0  0  0  0  0  0  0  0  0  0  0
  1  2  1  0  0  0  0
  3  2  1  0  0  0  0
  2 25  1  0  0  0  0
  4  3  1  0  0  0  0
  5  4  1  0  0  0  0
  5  6  1  0  0  0  0
 24  5  1  0  0  0  0
  6  7  1  0  0  0  0
  7  8  1  0  0  0  0
  8  9  1  0  0  0  0
 10  9  1  0  0  0  0
  9 23  1  0  0  0  0
 11 10  2  0  0  0  0
 10 15  1  0  0  0  0
 12 11  1  0  0  0  0
 13 12  2  0  0  0  0
 14 13  1  0  0  0  0
 15 14  2  0  0  0  0
 16 15  1  0  0  0  0
 17 16  1  0  0  0  0
 18 17  2  0  0  0  0
 17 23  1  0  0  0  0
 19 18  1  0  0  0  0
 20 19  2  0  0  0  0
 20 21  1  0  0  0  0
 22 20  1  0  0  0  0
 23 22  2  0  0  0  0
 25 24  1  0  0  0  0
M  END
> <Inchi_key>
WIKYUJGCLQQFNW-UHFFFAOYSA-N

> <Source>
Mulliner , Kotsampasakou

> <ID>
EK0444;HT1747

> <H_MFHB>
1

> <CAS>


> <Cholestasis>
1

> <Name>
prochlorperazine;prochlorperazine edisylate;prochlorperazine maleate

> <Class>
1

$$$$