

  -INDIGO-08031710012D

 18 19  0  0  0  0  0  0  0  0999 V2000
    0.4021   -1.5008    0.0000 Cl  0  0  0  0  0  0  0  0  0  0  0  0
    1.7012   -0.7508    0.0000 C   0  0  0  0  0  0  0  0  0  0  0  0
    3.0002   -1.5008    0.0000 C   0  0  0  0  0  0  0  0  0  0  0  0
    4.2993   -0.7508    0.0000 C   0  0  0  0  0  0  0  0  0  0  0  0
    4.2993    0.7492    0.0000 C   0  0  0  0  0  0  0  0  0  0  0  0
    3.0002    1.4992    0.0000 C   0  0  0  0  0  0  0  0  0  0  0  0
    1.7012    0.7492    0.0000 C   0  0  0  0  0  0  0  0  0  0  0  0
    5.5983    1.4992    0.0000 C   0  0  0  0  0  0  0  0  0  0  0  0
    5.5983    2.9992    0.0000 O   0  0  0  0  0  0  0  0  0  0  0  0
    6.8972    0.7492    0.0000 N   0  0  0  0  0  0  0  0  0  0  0  0
    8.1963    1.4992    0.0000 C   0  0  0  0  0  0  0  0  0  0  0  0
    9.4955    0.7492    0.0000 C   0  0  0  0  0  0  0  0  0  0  0  0
   10.7944    1.4992    0.0000 N   0  0  0  0  0  0  0  0  0  0  0  0
   12.0936    0.7492    0.0000 C   0  0  0  0  0  0  0  0  0  0  0  0
   13.3925    1.4992    0.0000 C   0  0  0  0  0  0  0  0  0  0  0  0
   13.3925    2.9992    0.0000 O   0  0  0  0  0  0  0  0  0  0  0  0
   12.0936    3.7492    0.0000 C   0  0  0  0  0  0  0  0  0  0  0  0
   10.7944    2.9992    0.0000 C   0  0  0  0  0  0  0  0  0  0  0  0
  1  2  1  0  0  0  0
  3  2  2  0  0  0  0
  2  7  1  0  0  0  0
  4  3  1  0  0  0  0
  5  4  2  0  0  0  0
  6  5  1  0  0  0  0
  5  8  1  0  0  0  0
  7  6  2  0  0  0  0
  8  9  2  0  0  0  0
  8 10  1  0  0  0  0
 10 11  1  0  0  0  0
 11 12  1  0  0  0  0
 12 13  1  0  0  0  0
 14 13  1  0  0  0  0
 13 18  1  0  0  0  0
 15 14  1  0  0  0  0
 16 15  1  0  0  0  0
 17 16  1  0  0  0  0
 18 17  1  0  0  0  0
M  END
> <Inchi_key>
YHXISWVBGDMDLQ-UHFFFAOYSA-N

> <Source>
Mulliner

> <ID>
HT1421

> <H_MFHB>
1

> <CAS>


> <Cholestasis>


> <Name>
moclobemide

> <Class>
1


$$$$