

  -INDIGO-08031710012D

 29 33  0  0  0  0  0  0  0  0999 V2000
    1.7250   -0.9020    0.0000 C   0  0  0  0  0  0  0  0  0  0  0  0
    0.8692    0.3299    0.0000 C   0  0  0  0  0  0  0  0  0  0  0  0
    0.1144   -0.9664    0.0000 C   0  0  0  0  0  0  0  0  0  0  0  0
   -1.3856   -0.9610    0.0000 C   0  0  0  0  0  0  0  0  0  0  0  0
   -2.1308    0.3408    0.0000 C   0  0  0  0  0  0  0  0  0  0  0  0
   -1.3761    1.6371    0.0000 C   0  0  0  0  0  0  0  0  0  0  0  0
   -2.1213    2.9389    0.0000 C   0  0  0  0  0  0  0  0  0  0  0  0
   -3.6213    2.9444    0.0000 C   0  0  0  0  0  0  0  0  0  0  0  0
   -4.3761    1.6481    0.0000 C   0  0  0  0  0  0  0  0  0  0  0  0
   -5.8761    1.6535    0.0000 C   0  0  0  0  0  0  0  0  0  0  0  0
   -6.6308    0.3573    0.0000 C   0  0  0  0  0  0  0  0  0  0  0  0
   -8.1308    0.3627    0.0000 O   0  0  0  0  0  0  0  0  0  0  0  0
   -5.8856   -0.9445    0.0000 C   0  0  0  0  0  0  0  0  0  0  0  0
   -4.3856   -0.9500    0.0000 C   0  0  0  0  0  0  0  0  0  0  0  0
   -3.6308    0.3463    0.0000 C   0  0  0  0  0  0  0  0  0  0  0  0
    0.1239    1.6316    0.0000 C   0  0  0  0  0  0  0  0  0  0  0  0
    1.1318    2.7427    0.0000 C   0  0  0  0  0  0  0  0  0  0  0  0
    2.4999    2.1276    0.0000 C   0  0  0  0  0  0  0  0  0  0  0  0
    2.3375    0.6364    0.0000 C   0  0  0  0  0  0  0  0  0  0  0  0
    3.4487   -0.3714    0.0000 O   0  0  0  0  0  0  0  0  0  0  0  0
    4.8767    0.0869    0.0000 C   0  0  0  0  0  0  0  0  0  0  0  0
    5.1941    1.5530    0.0000 O   0  0  0  0  0  0  0  0  0  0  0  0
    5.9880   -0.9209    0.0000 C   0  0  0  0  0  0  0  0  0  0  0  0
    7.4160   -0.4626    0.0000 C   0  0  0  0  0  0  0  0  0  0  0  0
    8.5272   -1.4703    0.0000 C   0  0  0  0  0  0  0  0  0  0  0  0
    9.9956   -1.1638    0.0000 C   0  0  0  0  0  0  0  0  0  0  0  0
   10.7408   -2.4656    0.0000 C   0  0  0  0  0  0  0  0  0  0  0  0
    9.7329   -3.5766    0.0000 C   0  0  0  0  0  0  0  0  0  0  0  0
    8.3648   -2.9615    0.0000 C   0  0  0  0  0  0  0  0  0  0  0  0
  1  2  1  0  0  0  0
  3  2  1  0  0  0  0
 16  2  1  0  0  0  0
  2 19  1  0  0  0  0
  4  3  1  0  0  0  0
  5  4  1  0  0  0  0
  5  6  1  0  0  0  0
 15  5  1  0  0  0  0
  6  7  1  0  0  0  0
 16  6  1  0  0  0  0
  7  8  1  0  0  0  0
  8  9  1  0  0  0  0
 10  9  2  0  0  0  0
  9 15  1  0  0  0  0
 11 10  1  0  0  0  0
 11 12  1  0  0  0  0
 13 11  2  0  0  0  0
 14 13  1  0  0  0  0
 15 14  2  0  0  0  0
 17 16  1  0  0  0  0
 18 17  1  0  0  0  0
 19 18  1  0  0  0  0
 19 20  1  0  0  0  0
 20 21  1  0  0  0  0
 21 22  2  0  0  0  0
 21 23  1  0  0  0  0
 23 24  1  0  0  0  0
 24 25  1  0  0  0  0
 26 25  1  0  0  0  0
 25 29  1  0  0  0  0
 27 26  1  0  0  0  0
 28 27  1  0  0  0  0
 29 28  1  0  0  0  0
M  END
> <Inchi_key>
UOACKFBJUYNSLK-UHFFFAOYSA-N

> <Source>
Mulliner

> <ID>
HT0792

> <H_MFHB>
1

> <CAS>


> <Cholestasis>


> <Name>
estradiol cypionate

> <Class>
1


$$$$