

  -INDIGO-08031710012D

 24 27  0  0  0  0  0  0  0  0999 V2000
   -0.1668    1.4224    0.0000 F   0  0  0  0  0  0  0  0  0  0  0  0
    1.3022    1.1187    0.0000 C   0  0  0  0  0  0  0  0  0  0  0  0
    2.2996    2.2389    0.0000 C   0  0  0  0  0  0  0  0  0  0  0  0
    3.7687    1.9352    0.0000 C   0  0  0  0  0  0  0  0  0  0  0  0
    4.2399    0.5112    0.0000 C   0  0  0  0  0  0  0  0  0  0  0  0
    5.7090    0.2074    0.0000 C   0  0  0  0  0  0  0  0  0  0  0  0
    6.7065    1.3277    0.0000 N   0  0  0  0  0  0  0  0  0  0  0  0
    8.1991    1.1792    0.0000 C   0  0  0  0  0  0  0  0  0  0  0  0
    8.9564   -0.1157    0.0000 N   0  0  0  0  0  0  0  0  0  0  0  0
   10.4562   -0.1074    0.0000 C   0  0  0  0  0  0  0  0  0  0  0  0
   11.1989    1.1957    0.0000 C   0  0  0  0  0  0  0  0  0  0  0  0
   12.6989    1.2040    0.0000 C   0  0  0  0  0  0  0  0  0  0  0  0
   13.4562   -0.0908    0.0000 N   0  0  0  0  0  0  0  0  0  0  0  0
   12.7135   -1.3940    0.0000 C   0  0  0  0  0  0  0  0  0  0  0  0
   11.2135   -1.4023    0.0000 C   0  0  0  0  0  0  0  0  0  0  0  0
    8.8017    2.5528    0.0000 N   0  0  0  0  0  0  0  0  0  0  0  0
    7.6815    3.5503    0.0000 C   0  0  0  0  0  0  0  0  0  0  0  0
    7.6732    5.0503    0.0000 C   0  0  0  0  0  0  0  0  0  0  0  0
    6.3700    5.7931    0.0000 C   0  0  0  0  0  0  0  0  0  0  0  0
    5.0749    5.0360    0.0000 C   0  0  0  0  0  0  0  0  0  0  0  0
    5.0833    3.5360    0.0000 C   0  0  0  0  0  0  0  0  0  0  0  0
    6.3864    2.7932    0.0000 C   0  0  0  0  0  0  0  0  0  0  0  0
    3.2425   -0.6091    0.0000 C   0  0  0  0  0  0  0  0  0  0  0  0
    1.7737   -0.3053    0.0000 C   0  0  0  0  0  0  0  0  0  0  0  0
  1  2  1  0  0  0  0
  3  2  2  0  0  0  0
  2 24  1  0  0  0  0
  4  3  1  0  0  0  0
  5  4  2  0  0  0  0
  5  6  1  0  0  0  0
 23  5  1  0  0  0  0
  6  7  1  0  0  0  0
  8  7  1  0  0  0  0
  7 22  1  0  0  0  0
  8  9  1  0  0  0  0
 16  8  2  0  0  0  0
  9 10  1  0  0  0  0
 11 10  1  0  0  0  0
 10 15  1  0  0  0  0
 12 11  1  0  0  0  0
 13 12  1  0  0  0  0
 14 13  1  0  0  0  0
 15 14  1  0  0  0  0
 17 16  1  0  0  0  0
 18 17  2  0  0  0  0
 17 22  1  0  0  0  0
 19 18  1  0  0  0  0
 20 19  2  0  0  0  0
 21 20  1  0  0  0  0
 22 21  2  0  0  0  0
 24 23  2  0  0  0  0
M  END
> <Inchi_key>
SFOVDSLXFUGAIV-UHFFFAOYSA-N

> <Source>
Mulliner

> <ID>
HT1518

> <H_MFHB>
1

> <CAS>


> <Cholestasis>


> <Name>
norastemizole

> <Class>
1


$$$$