

  -INDIGO-08031710012D

 32 34  0  0  0  0  0  0  0  0999 V2000
   -0.2544   -0.2544    0.0000 C   0  0  0  0  0  0  0  0  0  0  0  0
   -0.2544   -1.7543    0.0000 C   0  0  0  0  0  0  0  0  0  0  0  0
    1.0446   -2.5044    0.0000 C   0  0  0  0  0  0  0  0  0  0  0  0
    1.0446   -4.0044    0.0000 C   0  0  0  0  0  0  0  0  0  0  0  0
    2.3435   -4.7543    0.0000 C   0  0  0  0  0  0  0  0  0  0  0  0
    3.6427   -4.0044    0.0000 O   0  0  0  0  0  0  0  0  0  0  0  0
    2.3435   -6.2544    0.0000 N   0  0  0  0  0  0  0  0  0  0  0  0
    3.6427   -7.0044    0.0000 C   0  0  0  0  0  0  0  0  0  0  0  0
    4.9418   -6.2544    0.0000 C   0  0  0  0  0  0  0  0  0  0  0  0
    4.9418   -4.7543    0.0000 C   0  0  0  0  0  0  0  0  0  0  0  0
    6.2407   -4.0044    0.0000 C   0  0  0  0  0  0  0  0  0  0  0  0
    7.5399   -4.7543    0.0000 C   0  0  0  0  0  0  0  0  0  0  0  0
    7.5399   -6.2544    0.0000 C   0  0  0  0  0  0  0  0  0  0  0  0
    6.2407   -7.0044    0.0000 C   0  0  0  0  0  0  0  0  0  0  0  0
    8.8388   -4.0044    0.0000 C   0  0  0  0  0  0  0  0  0  0  0  0
    8.8388   -2.5044    0.0000 C   0  0  0  0  0  0  0  0  0  0  0  0
   10.1380   -1.7543    0.0000 C   0  0  0  0  0  0  0  0  0  0  0  0
   11.4369   -2.5044    0.0000 C   0  0  0  0  0  0  0  0  0  0  0  0
   11.4369   -4.0044    0.0000 C   0  0  0  0  0  0  0  0  0  0  0  0
   10.1380   -4.7543    0.0000 C   0  0  0  0  0  0  0  0  0  0  0  0
   10.1380   -6.2544    0.0000 C   0  0  0  0  0  0  0  0  0  0  0  0
   11.3515   -7.1361    0.0000 N   0  0  0  0  0  0  0  0  0  0  0  0
   10.8878   -8.5627    0.0000 N   0  0  0  0  0  0  0  0  0  0  0  0
    9.3879   -8.5627    0.0000 N   0  0  0  0  0  0  0  0  0  0  0  0
    8.9243   -7.1361    0.0000 N   0  0  0  0  0  0  0  0  0  0  0  0
    1.0446   -7.0044    0.0000 C   0  0  0  0  0  0  0  0  0  0  0  0
    1.0446   -8.5044    0.0000 C   0  0  0  0  0  0  0  0  0  0  0  0
   -0.2544   -9.2544    0.0000 C   0  0  0  0  0  0  0  0  0  0  0  0
    2.3435   -9.2544    0.0000 C   0  0  0  0  0  0  0  0  0  0  0  0
   -0.2544   -6.2544    0.0000 C   0  0  0  0  0  0  0  0  0  0  0  0
   -0.2544   -4.7543    0.0000 O   0  0  0  0  0  0  0  0  0  0  0  0
   -1.5535   -7.0044    0.0000 O   0  0  0  0  0  0  0  0  0  0  0  0
  1  2  1  0  0  0  0
  2  3  1  0  0  0  0
  3  4  1  0  0  0  0
  4  5  1  0  0  0  0
  5  6  2  0  0  0  0
  5  7  1  0  0  0  0
  7  8  1  0  0  0  0
  7 26  1  0  0  0  0
  8  9  1  0  0  0  0
 10  9  2  0  0  0  0
  9 14  1  0  0  0  0
 11 10  1  0  0  0  0
 12 11  2  0  0  0  0
 13 12  1  0  0  0  0
 12 15  1  0  0  0  0
 14 13  2  0  0  0  0
 16 15  2  0  0  0  0
 15 20  1  0  0  0  0
 17 16  1  0  0  0  0
 18 17  2  0  0  0  0
 19 18  1  0  0  0  0
 20 19  2  0  0  0  0
 20 21  1  0  0  0  0
 22 21  1  0  0  0  0
 21 25  2  0  0  0  0
 23 22  2  0  0  0  0
 24 23  1  0  0  0  0
 25 24  1  0  0  0  0
 26 27  1  0  0  0  0
 26 30  1  0  0  0  0
 27 28  1  0  0  0  0
 27 29  1  0  0  0  0
 30 31  2  0  0  0  0
 30 32  1  0  0  0  0
M  END
> <Inchi_key>
ACWBQPMHZXGDFX-UHFFFAOYSA-N

> <Source>
Mulliner

> <ID>
HT2164

> <H_MFHB>
1

> <CAS>


> <Cholestasis>


> <Name>
valsartan

> <Class>
1


$$$$