

  -INDIGO-08031710012D

 20 23  0  0  0  0  0  0  0  0999 V2000
   -0.2008    0.3838    0.0000 C   0  0  0  0  0  0  0  0  0  0  0  0
    0.6548    1.6159    0.0000 C   0  0  0  0  0  0  0  0  0  0  0  0
    1.4099    0.3199    0.0000 C   0  0  0  0  0  0  0  0  0  0  0  0
    2.9100    0.3259    0.0000 C   0  0  0  0  0  0  0  0  0  0  0  0
    3.6547    1.6279    0.0000 C   0  0  0  0  0  0  0  0  0  0  0  0
    2.8996    2.9239    0.0000 C   0  0  0  0  0  0  0  0  0  0  0  0
    3.6443    4.2259    0.0000 C   0  0  0  0  0  0  0  0  0  0  0  0
    5.1443    4.2319    0.0000 C   0  0  0  0  0  0  0  0  0  0  0  0
    5.8995    2.9359    0.0000 C   0  0  0  0  0  0  0  0  0  0  0  0
    7.3996    2.9418    0.0000 C   0  0  0  0  0  0  0  0  0  0  0  0
    8.1545    1.6458    0.0000 C   0  0  0  0  0  0  0  0  0  0  0  0
    9.6546    1.6518    0.0000 O   0  0  0  0  0  0  0  0  0  0  0  0
    7.4098    0.3438    0.0000 C   0  0  0  0  0  0  0  0  0  0  0  0
    5.9097    0.3378    0.0000 C   0  0  0  0  0  0  0  0  0  0  0  0
    5.1548    1.6339    0.0000 C   0  0  0  0  0  0  0  0  0  0  0  0
    1.3995    2.9180    0.0000 C   0  0  0  0  0  0  0  0  0  0  0  0
    0.3913    4.0287    0.0000 C   0  0  0  0  0  0  0  0  0  0  0  0
   -0.9766    3.4131    0.0000 C   0  0  0  0  0  0  0  0  0  0  0  0
   -0.8137    1.9220    0.0000 C   0  0  0  0  0  0  0  0  0  0  0  0
   -1.9245    0.9138    0.0000 O   0  0  0  0  0  0  0  0  0  0  0  0
  1  2  1  0  0  0  0
  3  2  1  0  0  0  0
 16  2  1  0  0  0  0
  2 19  1  0  0  0  0
  4  3  1  0  0  0  0
  5  4  1  0  0  0  0
  5  6  1  0  0  0  0
 15  5  1  0  0  0  0
  6  7  1  0  0  0  0
 16  6  1  0  0  0  0
  7  8  1  0  0  0  0
  8  9  1  0  0  0  0
 10  9  2  0  0  0  0
  9 15  1  0  0  0  0
 11 10  1  0  0  0  0
 11 12  1  0  0  0  0
 13 11  2  0  0  0  0
 14 13  1  0  0  0  0
 15 14  2  0  0  0  0
 17 16  1  0  0  0  0
 18 17  1  0  0  0  0
 19 18  1  0  0  0  0
 19 20  1  0  0  0  0
M  END
> <Inchi_key>
VOXZDWNPVJITMN-UHFFFAOYSA-N

> <Source>
Mulliner , Kotsampasakou

> <ID>
EK0198;HT0794

> <H_MFHB>
1

> <CAS>
50-28-2

> <Cholestasis>
1

> <Name>
estradiol;estradiol hemihydrate

> <Class>
1


$$$$