

  -INDIGO-08031710012D

 19 22  0  0  0  0  0  0  0  0999 V2000
    0.1075    0.1576    0.0000 N   0  0  0  0  0  0  0  0  0  0  0  0
    1.6056    0.0854    0.0000 C   0  0  0  0  0  0  0  0  0  0  0  0
    2.5446    1.2552    0.0000 N   0  0  0  0  0  0  0  0  0  0  0  0
    3.9475    0.7236    0.0000 C   0  0  0  0  0  0  0  0  0  0  0  0
    3.8752   -0.7747    0.0000 C   0  0  0  0  0  0  0  0  0  0  0  0
    2.4280   -1.1691    0.0000 N   0  0  0  0  0  0  0  0  0  0  0  0
    1.8333   -2.5462    0.0000 C   0  0  0  0  0  0  0  0  0  0  0  0
    0.3343   -2.4950    0.0000 C   0  0  0  0  0  0  0  0  0  0  0  0
   -0.4597   -3.7676    0.0000 C   0  0  0  0  0  0  0  0  0  0  0  0
    0.2455   -5.0915    0.0000 C   0  0  0  0  0  0  0  0  0  0  0  0
    1.7446   -5.1427    0.0000 C   0  0  0  0  0  0  0  0  0  0  0  0
    2.5385   -3.8701    0.0000 C   0  0  0  0  0  0  0  0  0  0  0  0
    4.0132   -4.1449    0.0000 C   0  0  0  0  0  0  0  0  0  0  0  0
    5.1461   -3.1619    0.0000 C   0  0  0  0  0  0  0  0  0  0  0  0
    6.4749   -3.8582    0.0000 C   0  0  0  0  0  0  0  0  0  0  0  0
    7.7420   -3.0543    0.0000 C   0  0  0  0  0  0  0  0  0  0  0  0
    7.6807   -1.5556    0.0000 C   0  0  0  0  0  0  0  0  0  0  0  0
    6.3521   -0.8593    0.0000 C   0  0  0  0  0  0  0  0  0  0  0  0
    5.0848   -1.6618    0.0000 C   0  0  0  0  0  0  0  0  0  0  0  0
  1  2  1  0  0  0  0
  3  2  2  0  0  0  0
  2  6  1  0  0  0  0
  4  3  1  0  0  0  0
  5  4  1  0  0  0  0
  5  6  1  0  0  0  0
 19  5  1  0  0  0  0
  6  7  1  0  0  0  0
  8  7  1  0  0  0  0
  7 12  2  0  0  0  0
  9  8  2  0  0  0  0
 10  9  1  0  0  0  0
 11 10  2  0  0  0  0
 12 11  1  0  0  0  0
 12 13  1  0  0  0  0
 13 14  1  0  0  0  0
 15 14  1  0  0  0  0
 14 19  2  0  0  0  0
 16 15  2  0  0  0  0
 17 16  1  0  0  0  0
 18 17  2  0  0  0  0
 19 18  1  0  0  0  0
M  END
> <Inchi_key>
WHWZLSFABNNENI-UHFFFAOYSA-N

> <Source>
Mulliner

> <ID>
HT0768

> <H_MFHB>
1

> <CAS>
108929-04-0

> <Cholestasis>


> <Name>
epinastine hydrochloride;epinastine

> <Class>
1


$$$$