
  -INDIGO-08031710012D

 20 21  0  0  0  0  0  0  0  0999 V2000
    9.6147    3.4030    0.0000 C   0  0  0  0  0  0  0  0  0  0  0  0
    8.8648    4.7020    0.0000 O   0  0  0  0  0  0  0  0  0  0  0  0
    7.3647    4.7020    0.0000 C   0  0  0  0  0  0  0  0  0  0  0  0
    6.6146    3.4030    0.0000 C   0  0  0  0  0  0  0  0  0  0  0  0
    5.1147    3.4030    0.0000 C   0  0  0  0  0  0  0  0  0  0  0  0
    4.3646    4.7020    0.0000 C   0  0  0  0  0  0  0  0  0  0  0  0
    5.1147    6.0011    0.0000 C   0  0  0  0  0  0  0  0  0  0  0  0
    6.6146    6.0011    0.0000 C   0  0  0  0  0  0  0  0  0  0  0  0
    2.8648    4.7020    0.0000 C   0  0  0  0  0  0  0  0  0  0  0  0
    2.1147    6.0011    0.0000 C   0  0  0  0  0  0  0  0  0  0  0  0
    2.8648    7.3001    0.0000 N   0  0  0  0  0  0  0  0  0  0  0  0
    4.3646    7.3001    0.0000 C   0  0  0  0  0  0  0  0  0  0  0  0
    2.1147    8.5991    0.0000 C   0  0  0  0  0  0  0  0  0  0  0  0
    2.1147    3.4030    0.0000 C   0  0  0  0  0  0  0  0  0  0  0  0
    3.6147    3.4030    0.0000 O   0  0  0  0  0  0  0  0  0  0  0  0
    2.1147    1.9030    0.0000 C   0  0  0  0  0  0  0  0  0  0  0  0
    0.8157    1.1530    0.0000 C   0  0  0  0  0  0  0  0  0  0  0  0
   -0.4834    1.9030    0.0000 C   0  0  0  0  0  0  0  0  0  0  0  0
   -0.4834    3.4030    0.0000 C   0  0  0  0  0  0  0  0  0  0  0  0
    0.8157    4.1530    0.0000 C   0  0  0  0  0  0  0  0  0  0  0  0
  1  2  1  0  0  0  0
  2  3  1  0  0  0  0
  4  3  2  0  0  0  0
  3  8  1  0  0  0  0
  5  4  1  0  0  0  0
  6  5  2  0  0  0  0
  7  6  1  0  0  0  0
  6  9  1  0  0  0  0
  8  7  2  0  0  0  0
  9 10  1  0  0  0  0
  9 14  1  0  0  0  0
 10 11  1  0  0  0  0
 11 12  1  0  0  0  0
 11 13  1  0  0  0  0
 14 15  1  0  0  0  0
 16 14  1  0  0  0  0
 14 20  1  0  0  0  0
 17 16  1  0  0  0  0
 18 17  1  0  0  0  0
 19 18  1  0  0  0  0
 20 19  1  0  0  0  0
M  END
> <Inchi_key>
PNVNVHUZROJLTJ-UHFFFAOYSA-N

> <Source>
Mulliner

> <ID>
HT2172

> <H_MFHB>
1

> <CAS>


> <Cholestasis>


> <Name>
venlafaxine hydrochloride;venlafaxine

> <Class>
1

$$$$