
  -INDIGO-08031710012D

 32 36  0  0  0  0  0  0  0  0999 V2000
   16.1451    7.6986    0.0000 C   0  0  0  0  0  0  0  0  0  0  0  0
   14.7184    7.2351    0.0000 C   0  0  0  0  0  0  0  0  0  0  0  0
   14.4068    5.7679    0.0000 C   0  0  0  0  0  0  0  0  0  0  0  0
   12.9801    5.3043    0.0000 C   0  0  0  0  0  0  0  0  0  0  0  0
   12.6682    3.8371    0.0000 C   0  0  0  0  0  0  0  0  0  0  0  0
   13.6718    2.7224    0.0000 N   0  0  0  0  0  0  0  0  0  0  0  0
   12.9220    1.4233    0.0000 C   0  0  0  0  0  0  0  0  0  0  0  0
   14.3891    1.1115    0.0000 C   0  0  0  0  0  0  0  0  0  0  0  0
   14.5459   -0.3803    0.0000 C   0  0  0  0  0  0  0  0  0  0  0  0
   13.1756   -0.9904    0.0000 C   0  0  0  0  0  0  0  0  0  0  0  0
   12.1719    0.1243    0.0000 C   0  0  0  0  0  0  0  0  0  0  0  0
   11.4547    1.7352    0.0000 C   0  0  0  0  0  0  0  0  0  0  0  0
   10.3400    0.7315    0.0000 O   0  0  0  0  0  0  0  0  0  0  0  0
   11.2979    3.2270    0.0000 N   0  0  0  0  0  0  0  0  0  0  0  0
    9.9988    3.9770    0.0000 C   0  0  0  0  0  0  0  0  0  0  0  0
    8.6997    3.2270    0.0000 C   0  0  0  0  0  0  0  0  0  0  0  0
    7.4009    3.9770    0.0000 C   0  0  0  0  0  0  0  0  0  0  0  0
    6.1016    3.2270    0.0000 C   0  0  0  0  0  0  0  0  0  0  0  0
    6.1016    1.7270    0.0000 C   0  0  0  0  0  0  0  0  0  0  0  0
    7.4009    0.9771    0.0000 C   0  0  0  0  0  0  0  0  0  0  0  0
    8.6997    1.7270    0.0000 C   0  0  0  0  0  0  0  0  0  0  0  0
    4.8027    0.9771    0.0000 C   0  0  0  0  0  0  0  0  0  0  0  0
    4.8027   -0.5229    0.0000 C   0  0  0  0  0  0  0  0  0  0  0  0
    3.5037   -1.2730    0.0000 C   0  0  0  0  0  0  0  0  0  0  0  0
    2.2046   -0.5229    0.0000 C   0  0  0  0  0  0  0  0  0  0  0  0
    2.2046    0.9771    0.0000 C   0  0  0  0  0  0  0  0  0  0  0  0
    3.5037    1.7270    0.0000 C   0  0  0  0  0  0  0  0  0  0  0  0
    3.5037    3.2270    0.0000 C   0  0  0  0  0  0  0  0  0  0  0  0
    2.2901    4.1087    0.0000 N   0  0  0  0  0  0  0  0  0  0  0  0
    2.7536    5.5353    0.0000 N   0  0  0  0  0  0  0  0  0  0  0  0
    4.2537    5.5353    0.0000 N   0  0  0  0  0  0  0  0  0  0  0  0
    4.7172    4.1087    0.0000 N   0  0  0  0  0  0  0  0  0  0  0  0
  1  2  1  0  0  0  0
  2  3  1  0  0  0  0
  3  4  1  0  0  0  0
  4  5  1  0  0  0  0
  6  5  2  0  0  0  0
  5 14  1  0  0  0  0
  7  6  1  0  0  0  0
  8  7  1  0  0  0  0
  7 11  1  0  0  0  0
 12  7  1  0  0  0  0
  9  8  1  0  0  0  0
 10  9  1  0  0  0  0
 11 10  1  0  0  0  0
 12 13  2  0  0  0  0
 14 12  1  0  0  0  0
 14 15  1  0  0  0  0
 15 16  1  0  0  0  0
 17 16  2  0  0  0  0
 16 21  1  0  0  0  0
 18 17  1  0  0  0  0
 19 18  2  0  0  0  0
 20 19  1  0  0  0  0
 19 22  1  0  0  0  0
 21 20  2  0  0  0  0
 23 22  2  0  0  0  0
 22 27  1  0  0  0  0
 24 23  1  0  0  0  0
 25 24  2  0  0  0  0
 26 25  1  0  0  0  0
 27 26  2  0  0  0  0
 27 28  1  0  0  0  0
 29 28  1  0  0  0  0
 28 32  2  0  0  0  0
 30 29  2  0  0  0  0
 31 30  1  0  0  0  0
 32 31  1  0  0  0  0
M  END
> <Inchi_key>
YOSHYTLCDANDAN-UHFFFAOYSA-N

> <Source>
Mulliner

> <ID>
HT1123

> <H_MFHB>
1

> <CAS>


> <Cholestasis>


> <Name>
irbesartan

> <Class>
1

$$$$