
  -INDIGO-08031710012D

 36 39  0  0  0  0  0  0  0  0999 V2000
    2.8457   -0.7799    0.0000 C   0  0  0  0  0  0  0  0  0  0  0  0
    3.3396    0.6365    0.0000 O   0  0  0  0  0  0  0  0  0  0  0  0
    2.3596    1.7724    0.0000 C   0  0  0  0  0  0  0  0  0  0  0  0
    3.7838    2.2429    0.0000 N   0  0  0  0  0  0  0  0  0  0  0  0
    4.9037    1.2447    0.0000 C   0  0  0  0  0  0  0  0  0  0  0  0
    4.5991   -0.2240    0.0000 O   0  0  0  0  0  0  0  0  0  0  0  0
    6.3280    1.7152    0.0000 C   0  0  0  0  0  0  0  0  0  0  0  0
    7.0024    3.0551    0.0000 S   0  0  0  0  0  0  0  0  0  0  0  0
    8.3422    2.3807    0.0000 C   0  0  0  0  0  0  0  0  0  0  0  0
    9.7665    2.8513    0.0000 C   0  0  0  0  0  0  0  0  0  0  0  0
   10.8861    1.8531    0.0000 C   0  0  0  0  0  0  0  0  0  0  0  0
   10.5814    0.3843    0.0000 O   0  0  0  0  0  0  0  0  0  0  0  0
   12.3103    2.3237    0.0000 N   0  0  0  0  0  0  0  0  0  0  0  0
   10.0711    4.3200    0.0000 C   0  0  0  0  0  0  0  0  0  0  0  0
    8.9512    5.3182    0.0000 O   0  0  0  0  0  0  0  0  0  0  0  0
   11.4953    4.7906    0.0000 O   0  0  0  0  0  0  0  0  0  0  0  0
    7.6678    1.0408    0.0000 S   0  0  0  0  0  0  0  0  0  0  0  0
    1.0545    1.0330    0.0000 C   0  0  0  0  0  0  0  0  0  0  0  0
    0.2938   -0.2601    0.0000 S   0  0  0  0  0  0  0  0  0  0  0  0
   -1.2058   -0.2478    0.0000 C   0  0  0  0  0  0  0  0  0  0  0  0
   -1.9453    1.0573    0.0000 C   0  0  0  0  0  0  0  0  0  0  0  0
   -1.1847    2.3501    0.0000 C   0  0  0  0  0  0  0  0  0  0  0  0
    0.3153    2.3381    0.0000 N   0  0  0  0  0  0  0  0  0  0  0  0
    1.6204    3.0775    0.0000 C   0  0  0  0  0  0  0  0  0  0  0  0
    2.0202    4.5230    0.0000 O   0  0  0  0  0  0  0  0  0  0  0  0
   -1.9242    3.6552    0.0000 C   0  0  0  0  0  0  0  0  0  0  0  0
   -3.4242    3.6675    0.0000 O   0  0  0  0  0  0  0  0  0  0  0  0
   -1.1636    4.9483    0.0000 O   0  0  0  0  0  0  0  0  0  0  0  0
   -3.4453    1.0695    0.0000 C   0  0  0  0  0  0  0  0  0  0  0  0
   -4.2059   -0.2233    0.0000 S   0  0  0  0  0  0  0  0  0  0  0  0
   -5.7058   -0.2111    0.0000 C   0  0  0  0  0  0  0  0  0  0  0  0
   -6.5776    1.0095    0.0000 N   0  0  0  0  0  0  0  0  0  0  0  0
   -8.0080    0.5577    0.0000 N   0  0  0  0  0  0  0  0  0  0  0  0
   -8.0201   -0.9423    0.0000 N   0  0  0  0  0  0  0  0  0  0  0  0
   -6.5974   -1.4174    0.0000 N   0  0  0  0  0  0  0  0  0  0  0  0
   -6.1454   -2.8477    0.0000 C   0  0  0  0  0  0  0  0  0  0  0  0
  1  2  1  0  0  0  0
  2  3  1  0  0  0  0
  3  4  1  0  0  0  0
 18  3  1  0  0  0  0
  3 24  1  0  0  0  0
  4  5  1  0  0  0  0
  5  6  2  0  0  0  0
  5  7  1  0  0  0  0
  8  7  1  0  0  0  0
  7 17  1  0  0  0  0
  9  8  1  0  0  0  0
  9 10  2  0  0  0  0
 17  9  1  0  0  0  0
 10 11  1  0  0  0  0
 10 14  1  0  0  0  0
 11 12  2  0  0  0  0
 11 13  1  0  0  0  0
 14 15  2  0  0  0  0
 14 16  1  0  0  0  0
 19 18  1  0  0  0  0
 18 23  1  0  0  0  0
 20 19  1  0  0  0  0
 21 20  1  0  0  0  0
 22 21  2  0  0  0  0
 21 29  1  0  0  0  0
 23 22  1  0  0  0  0
 22 26  1  0  0  0  0
 24 23  1  0  0  0  0
 24 25  2  0  0  0  0
 26 27  2  0  0  0  0
 26 28  1  0  0  0  0
 29 30  1  0  0  0  0
 30 31  1  0  0  0  0
 32 31  2  0  0  0  0
 31 35  1  0  0  0  0
 33 32  1  0  0  0  0
 34 33  2  0  0  0  0
 35 34  1  0  0  0  0
 35 36  1  0  0  0  0
M  END
> <Inchi_key>
SRZNHPXWXCNNDU-SDQBBNPISA-N

> <Source>
Mulliner

> <ID>
HT0413

> <H_MFHB>
1

> <CAS>
74356-00-6

> <Cholestasis>


> <Name>
cefotetan disodium;cefotetan

> <Class>
1

$$$$