
  -INDIGO-08031710012D

 22 24  0  0  0  0  0  0  0  0999 V2000
    2.7960   -3.9335    0.0000 C   0  0  0  0  0  0  0  0  0  0  0  0
    3.1843   -5.3824    0.0000 N   0  0  0  0  0  0  0  0  0  0  0  0
    4.6332   -4.9941    0.0000 C   0  0  0  0  0  0  0  0  0  0  0  0
    3.5725   -6.8313    0.0000 O   0  0  0  0  0  0  0  0  0  0  0  0
    1.7355   -5.7706    0.0000 C   0  0  0  0  0  0  0  0  0  0  0  0
    0.6746   -4.7100    0.0000 C   0  0  0  0  0  0  0  0  0  0  0  0
   -0.7741   -5.0982    0.0000 C   0  0  0  0  0  0  0  0  0  0  0  0
   -1.8348   -4.0376    0.0000 N   0  0  0  0  0  0  0  0  0  0  0  0
   -3.2510   -4.5321    0.0000 C   0  0  0  0  0  0  0  0  0  0  0  0
   -3.3072   -6.0311    0.0000 C   0  0  0  0  0  0  0  0  0  0  0  0
   -4.6335   -6.7318    0.0000 C   0  0  0  0  0  0  0  0  0  0  0  0
   -5.9035   -5.9337    0.0000 C   0  0  0  0  0  0  0  0  0  0  0  0
   -5.8472   -4.4347    0.0000 C   0  0  0  0  0  0  0  0  0  0  0  0
   -4.5210   -3.7340    0.0000 C   0  0  0  0  0  0  0  0  0  0  0  0
   -4.6895   -2.2434    0.0000 C   0  0  0  0  0  0  0  0  0  0  0  0
   -3.6298   -1.1818    0.0000 C   0  0  0  0  0  0  0  0  0  0  0  0
   -2.1385   -1.3515    0.0000 C   0  0  0  0  0  0  0  0  0  0  0  0
   -1.4378   -0.0252    0.0000 C   0  0  0  0  0  0  0  0  0  0  0  0
    0.0611    0.0311    0.0000 C   0  0  0  0  0  0  0  0  0  0  0  0
    0.8594   -1.2389    0.0000 C   0  0  0  0  0  0  0  0  0  0  0  0
    0.1585   -2.5652    0.0000 C   0  0  0  0  0  0  0  0  0  0  0  0
   -1.3402   -2.6214    0.0000 C   0  0  0  0  0  0  0  0  0  0  0  0
  1  2  1  0  0  0  0
  2  3  1  0  0  0  0
  2  4  1  0  0  0  0
  2  5  1  0  0  0  0
  5  6  1  0  0  0  0
  6  7  1  0  0  0  0
  7  8  1  0  0  0  0
  9  8  1  0  0  0  0
  8 22  1  0  0  0  0
 10  9  2  0  0  0  0
  9 14  1  0  0  0  0
 11 10  1  0  0  0  0
 12 11  2  0  0  0  0
 13 12  1  0  0  0  0
 14 13  2  0  0  0  0
 15 14  1  0  0  0  0
 16 15  1  0  0  0  0
 17 16  1  0  0  0  0
 18 17  2  0  0  0  0
 17 22  1  0  0  0  0
 19 18  1  0  0  0  0
 20 19  2  0  0  0  0
 21 20  1  0  0  0  0
 22 21  2  0  0  0  0
M  CHG  2   2   1   4  -1
M  END
> <Inchi_key>
QZIQORUGXBPDSU-UHFFFAOYSA-N

> <Source>
Mulliner

> <ID>
HT1083

> <H_MFHB>
1

> <CAS>


> <Cholestasis>


> <Name>
imipramine oxide

> <Class>
1

$$$$