
  -INDIGO-08031710012D

 30 33  0  0  0  0  0  0  0  0999 V2000
   16.9057    7.3006    0.0000 C   0  0  0  0  0  0  0  0  0  0  0  0
   15.4812    6.8313    0.0000 C   0  0  0  0  0  0  0  0  0  0  0  0
   15.1750    5.3628    0.0000 C   0  0  0  0  0  0  0  0  0  0  0  0
   13.7505    4.8936    0.0000 C   0  0  0  0  0  0  0  0  0  0  0  0
   13.4446    3.4249    0.0000 C   0  0  0  0  0  0  0  0  0  0  0  0
   14.4528    2.3144    0.0000 N   0  0  0  0  0  0  0  0  0  0  0  0
   13.7080    1.0122    0.0000 C   0  0  0  0  0  0  0  0  0  0  0  0
   14.3237   -0.3555    0.0000 Cl  0  0  0  0  0  0  0  0  0  0  0  0
   12.2396    1.3183    0.0000 C   0  0  0  0  0  0  0  0  0  0  0  0
   11.1288    0.3101    0.0000 C   0  0  0  0  0  0  0  0  0  0  0  0
   11.4466   -1.1559    0.0000 O   0  0  0  0  0  0  0  0  0  0  0  0
   12.0767    2.8094    0.0000 N   0  0  0  0  0  0  0  0  0  0  0  0
   10.7747    3.5541    0.0000 C   0  0  0  0  0  0  0  0  0  0  0  0
    9.4786    2.7989    0.0000 C   0  0  0  0  0  0  0  0  0  0  0  0
    8.1765    3.5436    0.0000 C   0  0  0  0  0  0  0  0  0  0  0  0
    6.8807    2.7883    0.0000 C   0  0  0  0  0  0  0  0  0  0  0  0
    6.8866    1.2884    0.0000 C   0  0  0  0  0  0  0  0  0  0  0  0
    8.1887    0.5436    0.0000 C   0  0  0  0  0  0  0  0  0  0  0  0
    9.4847    1.2989    0.0000 C   0  0  0  0  0  0  0  0  0  0  0  0
    5.5907    0.5331    0.0000 C   0  0  0  0  0  0  0  0  0  0  0  0
    5.5967   -0.9669    0.0000 C   0  0  0  0  0  0  0  0  0  0  0  0
    4.3008   -1.7222    0.0000 C   0  0  0  0  0  0  0  0  0  0  0  0
    2.9988   -0.9774    0.0000 C   0  0  0  0  0  0  0  0  0  0  0  0
    2.9926    0.5227    0.0000 C   0  0  0  0  0  0  0  0  0  0  0  0
    4.2887    1.2778    0.0000 C   0  0  0  0  0  0  0  0  0  0  0  0
    4.2825    2.7778    0.0000 C   0  0  0  0  0  0  0  0  0  0  0  0
    3.0654    3.6546    0.0000 N   0  0  0  0  0  0  0  0  0  0  0  0
    3.5231    5.0830    0.0000 N   0  0  0  0  0  0  0  0  0  0  0  0
    5.0233    5.0891    0.0000 N   0  0  0  0  0  0  0  0  0  0  0  0
    5.4924    3.6644    0.0000 N   0  0  0  0  0  0  0  0  0  0  0  0
  1  2  1  0  0  0  0
  2  3  1  0  0  0  0
  3  4  1  0  0  0  0
  4  5  1  0  0  0  0
  6  5  2  0  0  0  0
  5 12  1  0  0  0  0
  7  6  1  0  0  0  0
  7  8  1  0  0  0  0
  9  7  2  0  0  0  0
  9 10  1  0  0  0  0
 12  9  1  0  0  0  0
 10 11  1  0  0  0  0
 12 13  1  0  0  0  0
 13 14  1  0  0  0  0
 15 14  2  0  0  0  0
 14 19  1  0  0  0  0
 16 15  1  0  0  0  0
 17 16  2  0  0  0  0
 18 17  1  0  0  0  0
 17 20  1  0  0  0  0
 19 18  2  0  0  0  0
 21 20  2  0  0  0  0
 20 25  1  0  0  0  0
 22 21  1  0  0  0  0
 23 22  2  0  0  0  0
 24 23  1  0  0  0  0
 25 24  2  0  0  0  0
 25 26  1  0  0  0  0
 27 26  1  0  0  0  0
 26 30  2  0  0  0  0
 28 27  2  0  0  0  0
 29 28  1  0  0  0  0
 30 29  1  0  0  0  0
M  END
> <Inchi_key>
PSIFNNKUMBGKDQ-UHFFFAOYSA-N

> <Source>
Mulliner

> <ID>
HT1243

> <H_MFHB>
1

> <CAS>


> <Cholestasis>


> <Name>
losartan potassium;losartan

> <Class>
1

$$$$