

  -INDIGO-08031710012D

 28 30  0  0  0  0  0  0  0  0999 V2000
    2.8386   -3.9475    0.0000 C   0  0  0  0  0  0  0  0  0  0  0  0
    3.3161   -2.5255    0.0000 O   0  0  0  0  0  0  0  0  0  0  0  0
    2.3233   -1.4010    0.0000 C   0  0  0  0  0  0  0  0  0  0  0  0
    3.7421   -0.9142    0.0000 N   0  0  0  0  0  0  0  0  0  0  0  0
    4.8733   -1.8994    0.0000 C   0  0  0  0  0  0  0  0  0  0  0  0
    4.5853   -3.3716    0.0000 O   0  0  0  0  0  0  0  0  0  0  0  0
    6.2919   -1.4126    0.0000 C   0  0  0  0  0  0  0  0  0  0  0  0
    7.4231   -2.3978    0.0000 C   0  0  0  0  0  0  0  0  0  0  0  0
    8.8850   -2.0619    0.0000 C   0  0  0  0  0  0  0  0  0  0  0  0
    9.6561   -3.3485    0.0000 C   0  0  0  0  0  0  0  0  0  0  0  0
    8.6709   -4.4795    0.0000 C   0  0  0  0  0  0  0  0  0  0  0  0
    7.2907   -3.8920    0.0000 S   0  0  0  0  0  0  0  0  0  0  0  0
    1.0267   -2.1553    0.0000 C   0  0  0  0  0  0  0  0  0  0  0  0
    0.2810   -3.4569    0.0000 S   0  0  0  0  0  0  0  0  0  0  0  0
   -1.2188   -3.4618    0.0000 C   0  0  0  0  0  0  0  0  0  0  0  0
   -1.9732   -2.1653    0.0000 C   0  0  0  0  0  0  0  0  0  0  0  0
   -1.2275   -0.8638    0.0000 C   0  0  0  0  0  0  0  0  0  0  0  0
    0.2724   -0.8588    0.0000 N   0  0  0  0  0  0  0  0  0  0  0  0
    1.5689   -0.1045    0.0000 C   0  0  0  0  0  0  0  0  0  0  0  0
    1.9524    1.3457    0.0000 O   0  0  0  0  0  0  0  0  0  0  0  0
   -1.9818    0.4328    0.0000 C   0  0  0  0  0  0  0  0  0  0  0  0
   -1.2361    1.7343    0.0000 O   0  0  0  0  0  0  0  0  0  0  0  0
   -3.4819    0.4278    0.0000 O   0  0  0  0  0  0  0  0  0  0  0  0
   -3.4733   -2.1703    0.0000 C   0  0  0  0  0  0  0  0  0  0  0  0
   -4.2190   -3.4718    0.0000 O   0  0  0  0  0  0  0  0  0  0  0  0
   -5.7189   -3.4768    0.0000 C   0  0  0  0  0  0  0  0  0  0  0  0
   -6.4646   -4.7783    0.0000 O   0  0  0  0  0  0  0  0  0  0  0  0
   -6.4732   -2.1802    0.0000 N   0  0  0  0  0  0  0  0  0  0  0  0
  1  2  1  0  0  0  0
  2  3  1  0  0  0  0
  3  4  1  0  0  0  0
 13  3  1  0  0  0  0
  3 19  1  0  0  0  0
  4  5  1  0  0  0  0
  5  6  2  0  0  0  0
  5  7  1  0  0  0  0
  7  8  1  0  0  0  0
  9  8  2  0  0  0  0
  8 12  1  0  0  0  0
 10  9  1  0  0  0  0
 11 10  2  0  0  0  0
 12 11  1  0  0  0  0
 14 13  1  0  0  0  0
 13 18  1  0  0  0  0
 15 14  1  0  0  0  0
 16 15  1  0  0  0  0
 17 16  2  0  0  0  0
 16 24  1  0  0  0  0
 18 17  1  0  0  0  0
 17 21  1  0  0  0  0
 19 18  1  0  0  0  0
 19 20  2  0  0  0  0
 21 22  2  0  0  0  0
 21 23  1  0  0  0  0
 24 25  1  0  0  0  0
 25 26  1  0  0  0  0
 26 27  2  0  0  0  0
 26 28  1  0  0  0  0
M  END
> <Inchi_key>
WZOZEZRFJCJXNZ-UHFFFAOYSA-N

> <Source>
Mulliner

> <ID>
HT0415

> <H_MFHB>
1

> <CAS>


> <Cholestasis>


> <Name>
cefoxitin sodium;cefoxitin

> <Class>
1


$$$$