

  -INDIGO-08031710012D

 29 31  0  0  0  0  0  0  0  0999 V2000
    7.8737   -7.3564    0.0000 C   0  0  0  0  0  0  0  0  0  0  0  0
    7.8737   -8.8563    0.0000 N   0  0  0  0  0  0  0  0  0  0  0  0
    9.1727   -9.6065    0.0000 C   0  0  0  0  0  0  0  0  0  0  0  0
    6.5745   -9.6065    0.0000 C   0  0  0  0  0  0  0  0  0  0  0  0
    5.2755   -8.8563    0.0000 C   0  0  0  0  0  0  0  0  0  0  0  0
    3.9766   -9.6065    0.0000 O   0  0  0  0  0  0  0  0  0  0  0  0
    2.6776   -8.8563    0.0000 C   0  0  0  0  0  0  0  0  0  0  0  0
    1.3786   -9.6065    0.0000 C   0  0  0  0  0  0  0  0  0  0  0  0
    0.0794   -8.8563    0.0000 C   0  0  0  0  0  0  0  0  0  0  0  0
    0.0794   -7.3564    0.0000 C   0  0  0  0  0  0  0  0  0  0  0  0
    1.3786   -6.6064    0.0000 C   0  0  0  0  0  0  0  0  0  0  0  0
    2.6776   -7.3564    0.0000 C   0  0  0  0  0  0  0  0  0  0  0  0
   -1.2196   -6.6064    0.0000 C   0  0  0  0  0  0  0  0  0  0  0  0
   -2.5185   -7.3564    0.0000 C   0  0  0  0  0  0  0  0  0  0  0  0
   -3.8178   -6.6064    0.0000 C   0  0  0  0  0  0  0  0  0  0  0  0
   -5.1167   -7.3564    0.0000 C   0  0  0  0  0  0  0  0  0  0  0  0
   -6.4157   -6.6064    0.0000 Cl  0  0  0  0  0  0  0  0  0  0  0  0
   -2.5185   -8.8563    0.0000 C   0  0  0  0  0  0  0  0  0  0  0  0
   -1.2196   -9.6065    0.0000 C   0  0  0  0  0  0  0  0  0  0  0  0
   -1.2196  -11.1064    0.0000 C   0  0  0  0  0  0  0  0  0  0  0  0
   -2.5185  -11.8564    0.0000 C   0  0  0  0  0  0  0  0  0  0  0  0
   -3.8178  -11.1064    0.0000 C   0  0  0  0  0  0  0  0  0  0  0  0
   -3.8178   -9.6065    0.0000 C   0  0  0  0  0  0  0  0  0  0  0  0
   -1.2196   -5.1065    0.0000 C   0  0  0  0  0  0  0  0  0  0  0  0
   -2.5185   -4.3563    0.0000 C   0  0  0  0  0  0  0  0  0  0  0  0
   -2.5185   -2.8564    0.0000 C   0  0  0  0  0  0  0  0  0  0  0  0
   -1.2196   -2.1064    0.0000 C   0  0  0  0  0  0  0  0  0  0  0  0
    0.0794   -2.8564    0.0000 C   0  0  0  0  0  0  0  0  0  0  0  0
    0.0794   -4.3563    0.0000 C   0  0  0  0  0  0  0  0  0  0  0  0
  1  2  1  0  0  0  0
  2  3  1  0  0  0  0
  2  4  1  0  0  0  0
  4  5  1  0  0  0  0
  5  6  1  0  0  0  0
  6  7  1  0  0  0  0
  8  7  2  0  0  0  0
  7 12  1  0  0  0  0
  9  8  1  0  0  0  0
 10  9  2  0  0  0  0
 11 10  1  0  0  0  0
 10 13  1  0  0  0  0
 12 11  2  0  0  0  0
 13 14  2  0  0  0  0
 13 24  1  0  0  0  0
 14 15  1  0  0  0  0
 14 18  1  0  0  0  0
 15 16  1  0  0  0  0
 16 17  1  0  0  0  0
 19 18  2  0  0  0  0
 18 23  1  0  0  0  0
 20 19  1  0  0  0  0
 21 20  2  0  0  0  0
 22 21  1  0  0  0  0
 23 22  2  0  0  0  0
 25 24  2  0  0  0  0
 24 29  1  0  0  0  0
 26 25  1  0  0  0  0
 27 26  2  0  0  0  0
 28 27  1  0  0  0  0
 29 28  2  0  0  0  0
M  END
> <Inchi_key>
XFCLJVABOIYOMF-QPLCGJKRSA-N

> <Source>
Mulliner

> <ID>
HT0848

> <H_MFHB>
1

> <CAS>
89778-26-7

> <Cholestasis>


> <Name>
fareston;toremifene citrate;toremifene

> <Class>
1


$$$$