
  -INDIGO-08031710012D

 25 27  0  0  0  0  0  0  0  0999 V2000
    6.0080    6.0079    0.0000 C   0  0  0  0  0  0  0  0  0  0  0  0
    6.0080    4.5079    0.0000 C   0  0  0  0  0  0  0  0  0  0  0  0
    4.7088    3.7579    0.0000 C   0  0  0  0  0  0  0  0  0  0  0  0
    3.4099    4.5079    0.0000 N   0  0  0  0  0  0  0  0  0  0  0  0
    2.1108    3.7579    0.0000 C   0  0  0  0  0  0  0  0  0  0  0  0
    0.8116    4.5079    0.0000 C   0  0  0  0  0  0  0  0  0  0  0  0
   -0.4873    3.7579    0.0000 C   0  0  0  0  0  0  0  0  0  0  0  0
   -1.7863    4.5079    0.0000 Cl  0  0  0  0  0  0  0  0  0  0  0  0
   -0.4873    2.2579    0.0000 C   0  0  0  0  0  0  0  0  0  0  0  0
    0.8116    1.5079    0.0000 C   0  0  0  0  0  0  0  0  0  0  0  0
    2.1108    2.2579    0.0000 C   0  0  0  0  0  0  0  0  0  0  0  0
    3.4099    1.5079    0.0000 S   0  0  0  0  0  0  0  0  0  0  0  0
    2.6598    0.2088    0.0000 O   0  0  0  0  0  0  0  0  0  0  0  0
    4.1598    0.2088    0.0000 O   0  0  0  0  0  0  0  0  0  0  0  0
    4.7088    2.2579    0.0000 N   0  0  0  0  0  0  0  0  0  0  0  0
   -1.7863    1.5079    0.0000 S   0  0  0  0  0  0  0  0  0  0  0  0
   -1.0364    0.2088    0.0000 O   0  0  0  0  0  0  0  0  0  0  0  0
   -2.5363    2.8069    0.0000 O   0  0  0  0  0  0  0  0  0  0  0  0
   -3.0854    0.7579    0.0000 N   0  0  0  0  0  0  0  0  0  0  0  0
    7.3069    3.7579    0.0000 C   0  0  0  0  0  0  0  0  0  0  0  0
    8.6061    4.5079    0.0000 C   0  0  0  0  0  0  0  0  0  0  0  0
    9.9050    3.7579    0.0000 C   0  0  0  0  0  0  0  0  0  0  0  0
    9.9050    2.2579    0.0000 C   0  0  0  0  0  0  0  0  0  0  0  0
    8.6061    1.5079    0.0000 C   0  0  0  0  0  0  0  0  0  0  0  0
    7.3069    2.2579    0.0000 C   0  0  0  0  0  0  0  0  0  0  0  0
  1  2  1  0  0  0  0
  2  3  1  0  0  0  0
  2 20  1  0  0  0  0
  4  3  1  0  0  0  0
  3 15  1  0  0  0  0
  5  4  1  0  0  0  0
  6  5  2  0  0  0  0
  5 11  1  0  0  0  0
  7  6  1  0  0  0  0
  7  8  1  0  0  0  0
  9  7  2  0  0  0  0
 10  9  1  0  0  0  0
  9 16  1  0  0  0  0
 11 10  2  0  0  0  0
 12 11  1  0  0  0  0
 12 13  2  0  0  0  0
 12 14  2  0  0  0  0
 15 12  1  0  0  0  0
 16 17  2  0  0  0  0
 16 18  2  0  0  0  0
 16 19  1  0  0  0  0
 21 20  2  0  0  0  0
 20 25  1  0  0  0  0
 22 21  1  0  0  0  0
 23 22  2  0  0  0  0
 24 23  1  0  0  0  0
 25 24  2  0  0  0  0
M  END
> <Inchi_key>
PYVUMAGVCSQCBD-UHFFFAOYSA-N

> <Source>
Mulliner

> <ID>
HT0232

> <H_MFHB>
1

> <CAS>


> <Cholestasis>


> <Name>
bemetizide

> <Class>
1

$$$$