
  -INDIGO-08031710012D

 28 31  0  0  0  0  0  0  0  0999 V2000
   -1.2812    7.5210    0.0000 C   0  0  0  0  0  0  0  0  0  0  0  0
   -2.1392    6.2905    0.0000 C   0  0  0  0  0  0  0  0  0  0  0  0
   -3.6389    6.2614    0.0000 O   0  0  0  0  0  0  0  0  0  0  0  0
   -4.0745    4.8261    0.0000 N   0  0  0  0  0  0  0  0  0  0  0  0
   -2.8441    3.9681    0.0000 C   0  0  0  0  0  0  0  0  0  0  0  0
   -2.8150    2.4684    0.0000 C   0  0  0  0  0  0  0  0  0  0  0  0
   -1.5016    1.7439    0.0000 C   0  0  0  0  0  0  0  0  0  0  0  0
   -1.4726    0.2442    0.0000 C   0  0  0  0  0  0  0  0  0  0  0  0
   -2.7567   -0.5310    0.0000 C   0  0  0  0  0  0  0  0  0  0  0  0
   -4.0701    0.1935    0.0000 C   0  0  0  0  0  0  0  0  0  0  0  0
   -4.0992    1.6934    0.0000 C   0  0  0  0  0  0  0  0  0  0  0  0
   -1.6481    4.8732    0.0000 C   0  0  0  0  0  0  0  0  0  0  0  0
   -0.2127    4.4374    0.0000 C   0  0  0  0  0  0  0  0  0  0  0  0
    0.1278    2.9766    0.0000 O   0  0  0  0  0  0  0  0  0  0  0  0
    0.8823    5.4628    0.0000 N   0  0  0  0  0  0  0  0  0  0  0  0
    2.3178    5.0270    0.0000 C   0  0  0  0  0  0  0  0  0  0  0  0
    3.6407    5.7338    0.0000 C   0  0  0  0  0  0  0  0  0  0  0  0
    4.6804    6.8149    0.0000 S   0  0  0  0  0  0  0  0  0  0  0  0
    6.0299    6.1600    0.0000 C   0  0  0  0  0  0  0  0  0  0  0  0
    7.5290    6.1041    0.0000 C   0  0  0  0  0  0  0  0  0  0  0  0
    6.7719    7.4637    0.0000 C   0  0  0  0  0  0  0  0  0  0  0  0
    5.8242    4.6742    0.0000 C   0  0  0  0  0  0  0  0  0  0  0  0
    4.3475    4.4108    0.0000 N   0  0  0  0  0  0  0  0  0  0  0  0
    3.0244    3.7039    0.0000 C   0  0  0  0  0  0  0  0  0  0  0  0
    2.5888    2.2686    0.0000 O   0  0  0  0  0  0  0  0  0  0  0  0
    6.9054    3.6343    0.0000 C   0  0  0  0  0  0  0  0  0  0  0  0
    8.3464    4.0507    0.0000 O   0  0  0  0  0  0  0  0  0  0  0  0
    6.5453    2.1782    0.0000 O   0  0  0  0  0  0  0  0  0  0  0  0
  1  2  1  0  0  0  0
  3  2  1  0  0  0  0
  2 12  2  0  0  0  0
  4  3  1  0  0  0  0
  5  4  2  0  0  0  0
  5  6  1  0  0  0  0
 12  5  1  0  0  0  0
  7  6  2  0  0  0  0
  6 11  1  0  0  0  0
  8  7  1  0  0  0  0
  9  8  2  0  0  0  0
 10  9  1  0  0  0  0
 11 10  2  0  0  0  0
 12 13  1  0  0  0  0
 13 14  2  0  0  0  0
 13 15  1  0  0  0  0
 15 16  1  0  0  0  0
 17 16  1  0  0  0  0
 16 24  1  0  0  0  0
 18 17  1  0  0  0  0
 17 23  1  0  0  0  0
 19 18  1  0  0  0  0
 19 20  1  0  0  0  0
 19 21  1  0  0  0  0
 22 19  1  0  0  0  0
 23 22  1  0  0  0  0
 22 26  1  0  0  0  0
 24 23  1  0  0  0  0
 24 25  2  0  0  0  0
 26 27  2  0  0  0  0
 26 28  1  0  0  0  0
M  END
> <Inchi_key>
UWYHMGVUTGAWSP-UHFFFAOYSA-N

> <Source>
Mulliner

> <ID>
HT1549

> <H_MFHB>
1

> <CAS>


> <Cholestasis>


> <Name>
oxacillin sodium;oxacillin

> <Class>
1

$$$$