

  -INDIGO-08031710012D

 22 24  0  0  0  0  0  0  0  0999 V2000
   11.7264    0.7352    0.0000 C   0  0  0  0  0  0  0  0  0  0  0  0
   10.4226   -0.0064    0.0000 S   0  0  0  0  0  0  0  0  0  0  0  0
    9.6808    1.2974    0.0000 O   0  0  0  0  0  0  0  0  0  0  0  0
   11.1642   -1.3103    0.0000 O   0  0  0  0  0  0  0  0  0  0  0  0
    9.1186   -0.7481    0.0000 C   0  0  0  0  0  0  0  0  0  0  0  0
    9.1091   -2.2480    0.0000 C   0  0  0  0  0  0  0  0  0  0  0  0
    7.8053   -2.9897    0.0000 C   0  0  0  0  0  0  0  0  0  0  0  0
    6.5111   -2.2313    0.0000 C   0  0  0  0  0  0  0  0  0  0  0  0
    6.5207   -0.7314    0.0000 C   0  0  0  0  0  0  0  0  0  0  0  0
    7.8245    0.0103    0.0000 C   0  0  0  0  0  0  0  0  0  0  0  0
    5.2073   -2.9730    0.0000 C   0  0  0  0  0  0  0  0  0  0  0  0
    5.0408   -4.4637    0.0000 C   0  0  0  0  0  0  0  0  0  0  0  0
    3.5717   -4.7662    0.0000 O   0  0  0  0  0  0  0  0  0  0  0  0
    2.8300   -3.4623    0.0000 C   0  0  0  0  0  0  0  0  0  0  0  0
    1.3393   -3.2960    0.0000 O   0  0  0  0  0  0  0  0  0  0  0  0
    3.8409   -2.3541    0.0000 C   0  0  0  0  0  0  0  0  0  0  0  0
    3.5384   -0.8849    0.0000 C   0  0  0  0  0  0  0  0  0  0  0  0
    4.6597    0.1116    0.0000 C   0  0  0  0  0  0  0  0  0  0  0  0
    4.3571    1.5809    0.0000 C   0  0  0  0  0  0  0  0  0  0  0  0
    2.9336    2.0535    0.0000 C   0  0  0  0  0  0  0  0  0  0  0  0
    1.8124    1.0570    0.0000 C   0  0  0  0  0  0  0  0  0  0  0  0
    2.1148   -0.4122    0.0000 C   0  0  0  0  0  0  0  0  0  0  0  0
  1  2  1  0  0  0  0
  2  3  2  0  0  0  0
  2  4  2  0  0  0  0
  2  5  1  0  0  0  0
  6  5  2  0  0  0  0
  5 10  1  0  0  0  0
  7  6  1  0  0  0  0
  8  7  2  0  0  0  0
  9  8  1  0  0  0  0
  8 11  1  0  0  0  0
 10  9  2  0  0  0  0
 12 11  1  0  0  0  0
 11 16  2  0  0  0  0
 13 12  1  0  0  0  0
 14 13  1  0  0  0  0
 14 15  2  0  0  0  0
 16 14  1  0  0  0  0
 16 17  1  0  0  0  0
 18 17  2  0  0  0  0
 17 22  1  0  0  0  0
 19 18  1  0  0  0  0
 20 19  2  0  0  0  0
 21 20  1  0  0  0  0
 22 21  2  0  0  0  0
M  END
> <Inchi_key>
RZJQGNCSTQAWON-UHFFFAOYSA-N

> <Source>
Mulliner

> <ID>
HT1838

> <H_MFHB>
1

> <CAS>


> <Cholestasis>


> <Name>
rofecoxib

> <Class>
1


$$$$