

  -INDIGO-08031710012D

 23 25  0  0  0  0  0  0  0  0999 V2000
   12.2609   -0.0000    0.0000 C   0  0  0  0  0  0  0  0  0  0  0  0
   10.7609   -0.0000    0.0000 O   0  0  0  0  0  0  0  0  0  0  0  0
   10.0109    1.2989    0.0000 C   0  0  0  0  0  0  0  0  0  0  0  0
   10.7609    2.5982    0.0000 C   0  0  0  0  0  0  0  0  0  0  0  0
   10.0109    3.8971    0.0000 C   0  0  0  0  0  0  0  0  0  0  0  0
    8.5109    3.8971    0.0000 C   0  0  0  0  0  0  0  0  0  0  0  0
    7.7609    5.1962    0.0000 S   0  0  0  0  0  0  0  0  0  0  0  0
    6.2609    5.1962    0.0000 C   0  0  0  0  0  0  0  0  0  0  0  0
    5.5109    6.4952    0.0000 C   0  0  0  0  0  0  0  0  0  0  0  0
    4.0109    6.4952    0.0000 C   0  0  0  0  0  0  0  0  0  0  0  0
    3.2609    5.1962    0.0000 C   0  0  0  0  0  0  0  0  0  0  0  0
    4.0109    3.8971    0.0000 C   0  0  0  0  0  0  0  0  0  0  0  0
    5.5109    3.8971    0.0000 C   0  0  0  0  0  0  0  0  0  0  0  0
    6.2609    2.5982    0.0000 N   0  0  0  0  0  0  0  0  0  0  0  0
    5.5109    1.2989    0.0000 C   0  0  0  0  0  0  0  0  0  0  0  0
    4.0109    1.2989    0.0000 C   0  0  0  0  0  0  0  0  0  0  0  0
    3.2609    2.5982    0.0000 C   0  0  0  0  0  0  0  0  0  0  0  0
    3.2609   -0.0000    0.0000 C   0  0  0  0  0  0  0  0  0  0  0  0
    1.7609   -0.0000    0.0000 N   0  0  0  0  0  0  0  0  0  0  0  0
    1.0109   -1.2990    0.0000 C   0  0  0  0  0  0  0  0  0  0  0  0
    1.0109    1.2989    0.0000 C   0  0  0  0  0  0  0  0  0  0  0  0
    7.7609    2.5982    0.0000 C   0  0  0  0  0  0  0  0  0  0  0  0
    8.5109    1.2989    0.0000 C   0  0  0  0  0  0  0  0  0  0  0  0
  1  2  1  0  0  0  0
  2  3  1  0  0  0  0
  4  3  2  0  0  0  0
  3 23  1  0  0  0  0
  5  4  1  0  0  0  0
  6  5  2  0  0  0  0
  7  6  1  0  0  0  0
  6 22  1  0  0  0  0
  8  7  1  0  0  0  0
  9  8  2  0  0  0  0
  8 13  1  0  0  0  0
 10  9  1  0  0  0  0
 11 10  2  0  0  0  0
 12 11  1  0  0  0  0
 13 12  2  0  0  0  0
 14 13  1  0  0  0  0
 14 15  1  0  0  0  0
 22 14  1  0  0  0  0
 15 16  1  0  0  0  0
 16 17  1  0  0  0  0
 16 18  1  0  0  0  0
 18 19  1  0  0  0  0
 19 20  1  0  0  0  0
 19 21  1  0  0  0  0
 23 22  2  0  0  0  0
M  END
> <Inchi_key>
VRQVVMDWGGWHTJ-UHFFFAOYSA-N

> <Source>
Mulliner

> <ID>
HT1348

> <H_MFHB>
1

> <CAS>


> <Cholestasis>


> <Name>
methotrimeprazine

> <Class>
1


$$$$