
  -INDIGO-08031710012D

 21 21  0  0  0  0  0  0  0  0999 V2000
    0.1745    3.3671    0.0000 C   0  0  0  0  0  0  0  0  0  0  0  0
    1.4888    2.6444    0.0000 N   0  0  0  0  0  0  0  0  0  0  0  0
    1.5201    1.1447    0.0000 C   0  0  0  0  0  0  0  0  0  0  0  0
    0.2371    0.3677    0.0000 C   0  0  0  0  0  0  0  0  0  0  0  0
    0.2684   -1.1319    0.0000 N   0  0  0  0  0  0  0  0  0  0  0  0
   -1.0147   -1.9089    0.0000 O   0  0  0  0  0  0  0  0  0  0  0  0
    1.5827   -1.8546    0.0000 O   0  0  0  0  0  0  0  0  0  0  0  0
    2.8347    0.4220    0.0000 N   0  0  0  0  0  0  0  0  0  0  0  0
    4.1178    1.1990    0.0000 C   0  0  0  0  0  0  0  0  0  0  0  0
    5.4321    0.4763    0.0000 C   0  0  0  0  0  0  0  0  0  0  0  0
    6.7152    1.2533    0.0000 S   0  0  0  0  0  0  0  0  0  0  0  0
    8.0295    0.5306    0.0000 C   0  0  0  0  0  0  0  0  0  0  0  0
    9.3128    1.3075    0.0000 C   0  0  0  0  0  0  0  0  0  0  0  0
   10.6955    0.7262    0.0000 O   0  0  0  0  0  0  0  0  0  0  0  0
   11.6756    1.8616    0.0000 C   0  0  0  0  0  0  0  0  0  0  0  0
   13.1703    1.7361    0.0000 C   0  0  0  0  0  0  0  0  0  0  0  0
   14.0264    2.9677    0.0000 N   0  0  0  0  0  0  0  0  0  0  0  0
   15.5212    2.8421    0.0000 C   0  0  0  0  0  0  0  0  0  0  0  0
   13.3878    4.3250    0.0000 C   0  0  0  0  0  0  0  0  0  0  0  0
   10.8987    3.1447    0.0000 C   0  0  0  0  0  0  0  0  0  0  0  0
    9.4382    2.8023    0.0000 C   0  0  0  0  0  0  0  0  0  0  0  0
  1  2  1  0  0  0  0
  2  3  1  0  0  0  0
  3  4  2  0  0  0  0
  3  8  1  0  0  0  0
  4  5  1  0  0  0  0
  5  6  2  0  0  0  0
  5  7  1  0  0  0  0
  8  9  1  0  0  0  0
  9 10  1  0  0  0  0
 10 11  1  0  0  0  0
 11 12  1  0  0  0  0
 12 13  1  0  0  0  0
 14 13  1  0  0  0  0
 13 21  2  0  0  0  0
 15 14  1  0  0  0  0
 15 16  1  0  0  0  0
 20 15  2  0  0  0  0
 16 17  1  0  0  0  0
 17 18  1  0  0  0  0
 17 19  1  0  0  0  0
 21 20  1  0  0  0  0
M  CHG  2   5   1   7  -1
M  END
> <Inchi_key>
VMXUWOKSQNHOCA-LCYFTJDESA-N

> <Source>
Mulliner

> <ID>
HT1800

> <H_MFHB>
1

> <CAS>
66357-59-3

> <Cholestasis>


> <Name>
ranitidine;ranitidine bismuth citrate;ranitidine hydrochloride

> <Class>
1

$$$$