

  -INDIGO-08031710012D

 28 29  0  0  0  0  0  0  0  0999 V2000
    3.3156   -0.8884    0.0000 C   0  0  0  0  0  0  0  0  0  0  0  0
    2.0166   -0.1384    0.0000 C   0  0  0  0  0  0  0  0  0  0  0  0
    2.0166    1.3615    0.0000 O   0  0  0  0  0  0  0  0  0  0  0  0
    3.3156    2.1116    0.0000 C   0  0  0  0  0  0  0  0  0  0  0  0
    3.3156    3.6116    0.0000 C   0  0  0  0  0  0  0  0  0  0  0  0
    2.0166    4.3616    0.0000 C   0  0  0  0  0  0  0  0  0  0  0  0
    2.0166    5.8615    0.0000 C   0  0  0  0  0  0  0  0  0  0  0  0
    3.3156    6.6116    0.0000 C   0  0  0  0  0  0  0  0  0  0  0  0
    3.3156    8.1116    0.0000 C   0  0  0  0  0  0  0  0  0  0  0  0
    4.6145    5.8615    0.0000 N   0  0  0  0  0  0  0  0  0  0  0  0
    4.6145    4.3616    0.0000 C   0  0  0  0  0  0  0  0  0  0  0  0
    5.9137    3.6116    0.0000 C   0  0  0  0  0  0  0  0  0  0  0  0
    7.2128    4.3616    0.0000 O   0  0  0  0  0  0  0  0  0  0  0  0
    8.5117    3.6116    0.0000 C   0  0  0  0  0  0  0  0  0  0  0  0
    9.8109    4.3616    0.0000 C   0  0  0  0  0  0  0  0  0  0  0  0
   11.1098    3.6116    0.0000 N   0  0  0  0  0  0  0  0  0  0  0  0
    0.8675    6.8257    0.0000 C   0  0  0  0  0  0  0  0  0  0  0  0
   -0.5422    6.3126    0.0000 O   0  0  0  0  0  0  0  0  0  0  0  0
    1.1281    8.3030    0.0000 O   0  0  0  0  0  0  0  0  0  0  0  0
   -0.0210    9.2672    0.0000 C   0  0  0  0  0  0  0  0  0  0  0  0
    0.8675    3.3975    0.0000 C   0  0  0  0  0  0  0  0  0  0  0  0
    1.1281    1.9202    0.0000 C   0  0  0  0  0  0  0  0  0  0  0  0
   -0.0210    0.9560    0.0000 C   0  0  0  0  0  0  0  0  0  0  0  0
   -1.4305    1.4691    0.0000 C   0  0  0  0  0  0  0  0  0  0  0  0
   -1.6911    2.9464    0.0000 C   0  0  0  0  0  0  0  0  0  0  0  0
   -0.5422    3.9104    0.0000 C   0  0  0  0  0  0  0  0  0  0  0  0
   -0.8025    5.3877    0.0000 Cl  0  0  0  0  0  0  0  0  0  0  0  0
    4.6145    1.3615    0.0000 O   0  0  0  0  0  0  0  0  0  0  0  0
  1  2  1  0  0  0  0
  2  3  1  0  0  0  0
  3  4  1  0  0  0  0
  4  5  2  0  0  0  0
  4 28  1  0  0  0  0
  6  5  1  0  0  0  0
  5 11  1  0  0  0  0
  7  6  1  0  0  0  0
  6 21  1  0  0  0  0
  8  7  2  0  0  0  0
  7 17  1  0  0  0  0
  8  9  1  0  0  0  0
 10  8  1  0  0  0  0
 11 10  2  0  0  0  0
 11 12  1  0  0  0  0
 12 13  1  0  0  0  0
 13 14  1  0  0  0  0
 14 15  1  0  0  0  0
 15 16  1  0  0  0  0
 17 18  2  0  0  0  0
 17 19  1  0  0  0  0
 19 20  1  0  0  0  0
 22 21  2  0  0  0  0
 21 26  1  0  0  0  0
 23 22  1  0  0  0  0
 24 23  2  0  0  0  0
 25 24  1  0  0  0  0
 26 25  2  0  0  0  0
 26 27  1  0  0  0  0
M  END
> <Inchi_key>
VNTNQZVUQJROCO-ZZEZOPTASA-N

> <Source>
Mulliner

> <ID>
HT0143

> <H_MFHB>
1

> <CAS>


> <Cholestasis>


> <Name>
amlodipine besylate;amlodipine maleate;amlodipine

> <Class>
1


$$$$