

  -INDIGO-08031710012D

 26 29  0  0  0  0  0  0  0  0999 V2000
   16.9200   -4.5337    0.0000 Cl  0  0  0  0  0  0  0  0  0  0  0  0
   15.6210   -3.7837    0.0000 C   0  0  0  0  0  0  0  0  0  0  0  0
   15.6210   -2.2837    0.0000 C   0  0  0  0  0  0  0  0  0  0  0  0
   14.3220   -1.5337    0.0000 C   0  0  0  0  0  0  0  0  0  0  0  0
   13.0227   -2.2837    0.0000 C   0  0  0  0  0  0  0  0  0  0  0  0
   13.0227   -3.7837    0.0000 C   0  0  0  0  0  0  0  0  0  0  0  0
   14.3220   -4.5337    0.0000 C   0  0  0  0  0  0  0  0  0  0  0  0
   11.7237   -4.5337    0.0000 N   0  0  0  0  0  0  0  0  0  0  0  0
   10.4247   -3.7837    0.0000 C   0  0  0  0  0  0  0  0  0  0  0  0
    9.1257   -4.5337    0.0000 C   0  0  0  0  0  0  0  0  0  0  0  0
    9.1257   -6.0337    0.0000 N   0  0  0  0  0  0  0  0  0  0  0  0
    7.8267   -6.7837    0.0000 C   0  0  0  0  0  0  0  0  0  0  0  0
    6.5277   -6.0337    0.0000 C   0  0  0  0  0  0  0  0  0  0  0  0
    5.2287   -6.7837    0.0000 C   0  0  0  0  0  0  0  0  0  0  0  0
    3.9297   -6.0337    0.0000 N   0  0  0  0  0  0  0  0  0  0  0  0
    3.7727   -4.5419    0.0000 N   0  0  0  0  0  0  0  0  0  0  0  0
    2.3057   -4.2300    0.0000 C   0  0  0  0  0  0  0  0  0  0  0  0
    1.5555   -2.9310    0.0000 C   0  0  0  0  0  0  0  0  0  0  0  0
    0.0555   -2.9310    0.0000 C   0  0  0  0  0  0  0  0  0  0  0  0
   -0.6944   -4.2300    0.0000 C   0  0  0  0  0  0  0  0  0  0  0  0
    0.0555   -5.5291    0.0000 C   0  0  0  0  0  0  0  0  0  0  0  0
    1.5555   -5.5291    0.0000 N   0  0  0  0  0  0  0  0  0  0  0  0
    2.5594   -6.6438    0.0000 C   0  0  0  0  0  0  0  0  0  0  0  0
    2.2474   -8.1110    0.0000 O   0  0  0  0  0  0  0  0  0  0  0  0
   10.4247   -6.7837    0.0000 C   0  0  0  0  0  0  0  0  0  0  0  0
   11.7237   -6.0337    0.0000 C   0  0  0  0  0  0  0  0  0  0  0  0
  1  2  1  0  0  0  0
  3  2  2  0  0  0  0
  2  7  1  0  0  0  0
  4  3  1  0  0  0  0
  5  4  2  0  0  0  0
  6  5  1  0  0  0  0
  7  6  2  0  0  0  0
  6  8  1  0  0  0  0
  9  8  1  0  0  0  0
  8 26  1  0  0  0  0
 10  9  1  0  0  0  0
 11 10  1  0  0  0  0
 11 12  1  0  0  0  0
 25 11  1  0  0  0  0
 12 13  1  0  0  0  0
 13 14  1  0  0  0  0
 14 15  1  0  0  0  0
 16 15  1  0  0  0  0
 15 23  1  0  0  0  0
 17 16  2  0  0  0  0
 18 17  1  0  0  0  0
 17 22  1  0  0  0  0
 19 18  2  0  0  0  0
 20 19  1  0  0  0  0
 21 20  2  0  0  0  0
 22 21  1  0  0  0  0
 23 22  1  0  0  0  0
 23 24  2  0  0  0  0
 26 25  1  0  0  0  0
M  END
> <Inchi_key>
PHLBKPHSAVXXEF-UHFFFAOYSA-N

> <Source>
Mulliner , Kotsampasakou

> <ID>
EK0544;HT2102

> <H_MFHB>
1

> <CAS>


> <Cholestasis>
1

> <Name>
trazodone hydrochloride;trazodone

> <Class>
1


$$$$