
  -INDIGO-08031710012D

 12 12  0  0  0  0  0  0  0  0999 V2000
    9.2933   -2.4336    0.0000 C   0  0  0  0  0  0  0  0  0  0  0  0
    7.9859   -1.6984    0.0000 C   0  0  0  0  0  0  0  0  0  0  0  0
    6.6954   -2.4631    0.0000 O   0  0  0  0  0  0  0  0  0  0  0  0
    5.3878   -1.7279    0.0000 C   0  0  0  0  0  0  0  0  0  0  0  0
    5.3708   -0.2280    0.0000 O   0  0  0  0  0  0  0  0  0  0  0  0
    4.0974   -2.4927    0.0000 N   0  0  0  0  0  0  0  0  0  0  0  0
    3.9575   -3.9861    0.0000 C   0  0  0  0  0  0  0  0  0  0  0  0
    2.4941   -4.3147    0.0000 C   0  0  0  0  0  0  0  0  0  0  0  0
    1.7294   -3.0242    0.0000 N   0  0  0  0  0  0  0  0  0  0  0  0
    0.2359   -2.8844    0.0000 C   0  0  0  0  0  0  0  0  0  0  0  0
    2.7203   -1.8982    0.0000 C   0  0  0  0  0  0  0  0  0  0  0  0
    2.3917   -0.4346    0.0000 S   0  0  0  0  0  0  0  0  0  0  0  0
  1  2  1  0  0  0  0
  2  3  1  0  0  0  0
  3  4  1  0  0  0  0
  4  5  2  0  0  0  0
  4  6  1  0  0  0  0
  7  6  1  0  0  0  0
  6 11  1  0  0  0  0
  8  7  2  0  0  0  0
  9  8  1  0  0  0  0
  9 10  1  0  0  0  0
 11  9  1  0  0  0  0
 11 12  2  0  0  0  0
M  END
> <Inchi_key>
CFOYWRHIYXMDOT-UHFFFAOYSA-N

> <Source>
Mulliner

> <ID>
HT0378

> <H_MFHB>
1

> <CAS>
22232-54-8

> <Cholestasis>


> <Name>
carbimazole

> <Class>
1

$$$$