
  -INDIGO-08031710012D

 33 37  0  0  0  0  0  0  0  0999 V2000
   -6.6968   10.1513    0.0000 C   0  0  0  0  0  0  0  0  0  0  0  0
   -6.6968    8.6513    0.0000 O   0  0  0  0  0  0  0  0  0  0  0  0
   -5.3978    7.9013    0.0000 C   0  0  0  0  0  0  0  0  0  0  0  0
   -4.0988    8.6513    0.0000 C   0  0  0  0  0  0  0  0  0  0  0  0
   -2.7998    7.9013    0.0000 C   0  0  0  0  0  0  0  0  0  0  0  0
   -1.5007    8.6513    0.0000 N   0  0  0  0  0  0  0  0  0  0  0  0
   -0.2017    7.9013    0.0000 C   0  0  0  0  0  0  0  0  0  0  0  0
   -0.2017    6.4013    0.0000 N   0  0  0  0  0  0  0  0  0  0  0  0
   -1.5007    5.6512    0.0000 C   0  0  0  0  0  0  0  0  0  0  0  0
   -1.5007    4.1513    0.0000 N   0  0  0  0  0  0  0  0  0  0  0  0
   -2.7998    6.4013    0.0000 C   0  0  0  0  0  0  0  0  0  0  0  0
   -4.0988    5.6512    0.0000 C   0  0  0  0  0  0  0  0  0  0  0  0
   -5.3978    6.4013    0.0000 C   0  0  0  0  0  0  0  0  0  0  0  0
   -6.6968    5.6512    0.0000 O   0  0  0  0  0  0  0  0  0  0  0  0
   -6.6968    4.1513    0.0000 C   0  0  0  0  0  0  0  0  0  0  0  0
    1.0973    8.6513    0.0000 N   0  0  0  0  0  0  0  0  0  0  0  0
    1.0973   10.1513    0.0000 C   0  0  0  0  0  0  0  0  0  0  0  0
    2.3966   10.9014    0.0000 C   0  0  0  0  0  0  0  0  0  0  0  0
    3.6956   10.1513    0.0000 N   0  0  0  0  0  0  0  0  0  0  0  0
    3.6956    8.6513    0.0000 C   0  0  0  0  0  0  0  0  0  0  0  0
    2.3966    7.9013    0.0000 C   0  0  0  0  0  0  0  0  0  0  0  0
    4.9946   10.9014    0.0000 C   0  0  0  0  0  0  0  0  0  0  0  0
    4.9946   12.4013    0.0000 O   0  0  0  0  0  0  0  0  0  0  0  0
    6.2936   10.1513    0.0000 C   0  0  0  0  0  0  0  0  0  0  0  0
    6.2936    8.6513    0.0000 C   0  0  0  0  0  0  0  0  0  0  0  0
    7.5927    7.9013    0.0000 O   0  0  0  0  0  0  0  0  0  0  0  0
    8.8917    8.6513    0.0000 C   0  0  0  0  0  0  0  0  0  0  0  0
   10.1907    7.9013    0.0000 C   0  0  0  0  0  0  0  0  0  0  0  0
   11.4897    8.6513    0.0000 C   0  0  0  0  0  0  0  0  0  0  0  0
   11.4897   10.1513    0.0000 C   0  0  0  0  0  0  0  0  0  0  0  0
   10.1907   10.9014    0.0000 C   0  0  0  0  0  0  0  0  0  0  0  0
    8.8917   10.1513    0.0000 C   0  0  0  0  0  0  0  0  0  0  0  0
    7.5927   10.9014    0.0000 O   0  0  0  0  0  0  0  0  0  0  0  0
  1  2  1  0  0  0  0
  2  3  1  0  0  0  0
  4  3  2  0  0  0  0
  3 13  1  0  0  0  0
  5  4  1  0  0  0  0
  6  5  2  0  0  0  0
  5 11  1  0  0  0  0
  7  6  1  0  0  0  0
  8  7  2  0  0  0  0
  7 16  1  0  0  0  0
  9  8  1  0  0  0  0
  9 10  1  0  0  0  0
 11  9  2  0  0  0  0
 12 11  1  0  0  0  0
 13 12  2  0  0  0  0
 13 14  1  0  0  0  0
 14 15  1  0  0  0  0
 17 16  1  0  0  0  0
 16 21  1  0  0  0  0
 18 17  1  0  0  0  0
 19 18  1  0  0  0  0
 20 19  1  0  0  0  0
 19 22  1  0  0  0  0
 21 20  1  0  0  0  0
 22 23  2  0  0  0  0
 22 24  1  0  0  0  0
 25 24  1  0  0  0  0
 24 33  1  0  0  0  0
 26 25  1  0  0  0  0
 27 26  1  0  0  0  0
 28 27  2  0  0  0  0
 27 32  1  0  0  0  0
 29 28  1  0  0  0  0
 30 29  2  0  0  0  0
 31 30  1  0  0  0  0
 32 31  2  0  0  0  0
 33 32  1  0  0  0  0
M  END
> <Inchi_key>
RUZYUOTYCVRMRZ-UHFFFAOYSA-N

> <Source>
Mulliner

> <ID>
HT0715

> <H_MFHB>
1

> <CAS>


> <Cholestasis>


> <Name>
doxazosin mesylate;doxazosin

> <Class>
1

$$$$