

  -INDIGO-08031710012D

 23 26  0  0  0  0  0  0  0  0999 V2000
   -0.4315   -2.7583    0.0000 C   0  0  0  0  0  0  0  0  0  0  0  0
    0.9968   -3.2164    0.0000 C   0  0  0  0  0  0  0  0  0  0  0  0
    1.3141   -4.6825    0.0000 O   0  0  0  0  0  0  0  0  0  0  0  0
    2.1077   -2.2085    0.0000 C   0  0  0  0  0  0  0  0  0  0  0  0
    1.9453   -0.7174    0.0000 C   0  0  0  0  0  0  0  0  0  0  0  0
    3.3133   -0.1021    0.0000 C   0  0  0  0  0  0  0  0  0  0  0  0
    4.3211   -1.2130    0.0000 C   0  0  0  0  0  0  0  0  0  0  0  0
    5.8213   -1.2074    0.0000 C   0  0  0  0  0  0  0  0  0  0  0  0
    6.5664    0.0945    0.0000 C   0  0  0  0  0  0  0  0  0  0  0  0
    8.0663    0.1002    0.0000 C   0  0  0  0  0  0  0  0  0  0  0  0
    8.8211   -1.1960    0.0000 C   0  0  0  0  0  0  0  0  0  0  0  0
   10.3210   -1.1904    0.0000 C   0  0  0  0  0  0  0  0  0  0  0  0
   11.0761   -2.4866    0.0000 C   0  0  0  0  0  0  0  0  0  0  0  0
   12.5760   -2.4809    0.0000 O   0  0  0  0  0  0  0  0  0  0  0  0
   10.3310   -3.7884    0.0000 C   0  0  0  0  0  0  0  0  0  0  0  0
    8.8310   -3.7941    0.0000 C   0  0  0  0  0  0  0  0  0  0  0  0
    8.0760   -2.4979    0.0000 C   0  0  0  0  0  0  0  0  0  0  0  0
    7.3309   -3.7998    0.0000 C   0  0  0  0  0  0  0  0  0  0  0  0
    6.5761   -2.5036    0.0000 C   0  0  0  0  0  0  0  0  0  0  0  0
    5.8310   -3.8054    0.0000 C   0  0  0  0  0  0  0  0  0  0  0  0
    4.3311   -3.8111    0.0000 C   0  0  0  0  0  0  0  0  0  0  0  0
    3.5760   -2.5149    0.0000 C   0  0  0  0  0  0  0  0  0  0  0  0
    2.7204   -3.7468    0.0000 C   0  0  0  0  0  0  0  0  0  0  0  0
  1  2  1  0  0  0  0
  2  3  2  0  0  0  0
  2  4  1  0  0  0  0
  5  4  1  0  0  0  0
  4 22  1  0  0  0  0
  6  5  1  0  0  0  0
  7  6  1  0  0  0  0
  8  7  1  0  0  0  0
  7 22  1  0  0  0  0
  9  8  1  0  0  0  0
  8 19  1  0  0  0  0
 10  9  1  0  0  0  0
 11 10  1  0  0  0  0
 12 11  2  0  0  0  0
 11 17  1  0  0  0  0
 13 12  1  0  0  0  0
 13 14  2  0  0  0  0
 15 13  1  0  0  0  0
 16 15  1  0  0  0  0
 17 16  1  0  0  0  0
 17 18  1  0  0  0  0
 19 17  1  0  0  0  0
 20 19  1  0  0  0  0
 21 20  1  0  0  0  0
 22 21  1  0  0  0  0
 22 23  1  0  0  0  0
M  END
> <Inchi_key>
RJKFOVLPORLFTN-UHFFFAOYSA-N

> <Source>
Mulliner , Kotsampasakou

> <ID>
EK0446;HT1751

> <H_MFHB>
1

> <CAS>


> <Cholestasis>
1

> <Name>
progesterone

> <Class>
1


$$$$