

  -INDIGO-08031710012D

 23 25  0  0  0  0  0  0  0  0999 V2000
   -1.5778   -1.4538    0.0000 C   0  0  0  0  0  0  0  0  0  0  0  0
   -0.2788   -0.7038    0.0000 C   0  0  0  0  0  0  0  0  0  0  0  0
   -0.2788    0.7962    0.0000 O   0  0  0  0  0  0  0  0  0  0  0  0
    1.0203   -1.4538    0.0000 C   0  0  0  0  0  0  0  0  0  0  0  0
    1.0203   -2.9538    0.0000 C   0  0  0  0  0  0  0  0  0  0  0  0
    2.3193   -3.7038    0.0000 C   0  0  0  0  0  0  0  0  0  0  0  0
    2.3193   -5.2038    0.0000 C   0  0  0  0  0  0  0  0  0  0  0  0
    1.0203   -5.9538    0.0000 O   0  0  0  0  0  0  0  0  0  0  0  0
    3.6182   -5.9538    0.0000 O   0  0  0  0  0  0  0  0  0  0  0  0
    4.9173   -5.2038    0.0000 C   0  0  0  0  0  0  0  0  0  0  0  0
    6.2163   -5.9538    0.0000 C   0  0  0  0  0  0  0  0  0  0  0  0
    7.5154   -5.2038    0.0000 C   0  0  0  0  0  0  0  0  0  0  0  0
    7.5154   -3.7038    0.0000 C   0  0  0  0  0  0  0  0  0  0  0  0
    6.2163   -2.9538    0.0000 C   0  0  0  0  0  0  0  0  0  0  0  0
    4.9173   -3.7038    0.0000 C   0  0  0  0  0  0  0  0  0  0  0  0
    3.6182   -2.9538    0.0000 C   0  0  0  0  0  0  0  0  0  0  0  0
    3.6182   -1.4538    0.0000 O   0  0  0  0  0  0  0  0  0  0  0  0
   -0.2788   -3.7038    0.0000 C   0  0  0  0  0  0  0  0  0  0  0  0
   -0.2788   -5.2038    0.0000 C   0  0  0  0  0  0  0  0  0  0  0  0
   -1.5778   -5.9538    0.0000 C   0  0  0  0  0  0  0  0  0  0  0  0
   -2.8769   -5.2038    0.0000 C   0  0  0  0  0  0  0  0  0  0  0  0
   -2.8769   -3.7038    0.0000 C   0  0  0  0  0  0  0  0  0  0  0  0
   -1.5778   -2.9538    0.0000 C   0  0  0  0  0  0  0  0  0  0  0  0
  1  2  1  0  0  0  0
  2  3  2  0  0  0  0
  2  4  1  0  0  0  0
  4  5  1  0  0  0  0
  5  6  1  0  0  0  0
  5 18  1  0  0  0  0
  7  6  2  0  0  0  0
  6 16  1  0  0  0  0
  7  8  1  0  0  0  0
  9  7  1  0  0  0  0
 10  9  1  0  0  0  0
 11 10  2  0  0  0  0
 10 15  1  0  0  0  0
 12 11  1  0  0  0  0
 13 12  2  0  0  0  0
 14 13  1  0  0  0  0
 15 14  2  0  0  0  0
 16 15  1  0  0  0  0
 16 17  2  0  0  0  0
 19 18  2  0  0  0  0
 18 23  1  0  0  0  0
 20 19  1  0  0  0  0
 21 20  2  0  0  0  0
 22 21  1  0  0  0  0
 23 22  2  0  0  0  0
M  END
> <Inchi_key>
QTXVAVXCBMYBJW-UHFFFAOYSA-N

> <Source>
Mulliner

> <ID>
HT2196

> <H_MFHB>
1

> <CAS>


> <Cholestasis>


> <Name>
warfarin potassium;warfarin sodium;warfarin

> <Class>
1


$$$$