
  -INDIGO-08031710012D

 33 34  0  0  0  0  0  0  0  0999 V2000
   14.2126    5.2004    0.0000 C   0  0  0  0  0  0  0  0  0  0  0  0
   14.2126    6.7005    0.0000 O   0  0  0  0  0  0  0  0  0  0  0  0
   12.9136    7.4504    0.0000 C   0  0  0  0  0  0  0  0  0  0  0  0
   11.6145    6.7005    0.0000 C   0  0  0  0  0  0  0  0  0  0  0  0
   10.3155    7.4504    0.0000 C   0  0  0  0  0  0  0  0  0  0  0  0
   10.3155    8.9504    0.0000 C   0  0  0  0  0  0  0  0  0  0  0  0
    9.0164    9.7005    0.0000 C   0  0  0  0  0  0  0  0  0  0  0  0
    7.7174    8.9504    0.0000 C   0  0  0  0  0  0  0  0  0  0  0  0
    6.4184    9.7005    0.0000 N   0  0  0  0  0  0  0  0  0  0  0  0
    6.4184   11.2004    0.0000 C   0  0  0  0  0  0  0  0  0  0  0  0
    5.1193    8.9504    0.0000 C   0  0  0  0  0  0  0  0  0  0  0  0
    3.8203    9.7005    0.0000 C   0  0  0  0  0  0  0  0  0  0  0  0
    2.5212    8.9504    0.0000 C   0  0  0  0  0  0  0  0  0  0  0  0
    1.2222    9.7005    0.0000 C   0  0  0  0  0  0  0  0  0  0  0  0
    1.9721   10.9993    0.0000 C   0  0  0  0  0  0  0  0  0  0  0  0
    2.7222   12.2985    0.0000 N   0  0  0  0  0  0  0  0  0  0  0  0
    0.4723    8.4013    0.0000 C   0  0  0  0  0  0  0  0  0  0  0  0
    1.2222    7.1023    0.0000 C   0  0  0  0  0  0  0  0  0  0  0  0
   -1.0277    8.4013    0.0000 C   0  0  0  0  0  0  0  0  0  0  0  0
   -0.0768   10.4504    0.0000 C   0  0  0  0  0  0  0  0  0  0  0  0
   -0.0768   11.9504    0.0000 C   0  0  0  0  0  0  0  0  0  0  0  0
   -1.3759   12.7005    0.0000 C   0  0  0  0  0  0  0  0  0  0  0  0
   -2.6749   11.9504    0.0000 C   0  0  0  0  0  0  0  0  0  0  0  0
   -3.9740   12.7005    0.0000 O   0  0  0  0  0  0  0  0  0  0  0  0
   -3.9740   14.2004    0.0000 C   0  0  0  0  0  0  0  0  0  0  0  0
   -2.6749   10.4504    0.0000 C   0  0  0  0  0  0  0  0  0  0  0  0
   -3.9740    9.7005    0.0000 O   0  0  0  0  0  0  0  0  0  0  0  0
   -5.2730   10.4504    0.0000 C   0  0  0  0  0  0  0  0  0  0  0  0
   -1.3759    9.7005    0.0000 C   0  0  0  0  0  0  0  0  0  0  0  0
   11.6145    9.7005    0.0000 C   0  0  0  0  0  0  0  0  0  0  0  0
   12.9136    8.9504    0.0000 C   0  0  0  0  0  0  0  0  0  0  0  0
   14.2126    9.7005    0.0000 O   0  0  0  0  0  0  0  0  0  0  0  0
   14.2126   11.2004    0.0000 C   0  0  0  0  0  0  0  0  0  0  0  0
  1  2  1  0  0  0  0
  2  3  1  0  0  0  0
  4  3  2  0  0  0  0
  3 31  1  0  0  0  0
  5  4  1  0  0  0  0
  6  5  2  0  0  0  0
  6  7  1  0  0  0  0
 30  6  1  0  0  0  0
  7  8  1  0  0  0  0
  8  9  1  0  0  0  0
  9 10  1  0  0  0  0
  9 11  1  0  0  0  0
 11 12  1  0  0  0  0
 12 13  1  0  0  0  0
 13 14  1  0  0  0  0
 14 15  1  0  0  0  0
 14 17  1  0  0  0  0
 14 20  1  0  0  0  0
 15 16  3  0  0  0  0
 17 18  1  0  0  0  0
 17 19  1  0  0  0  0
 21 20  2  0  0  0  0
 20 29  1  0  0  0  0
 22 21  1  0  0  0  0
 23 22  2  0  0  0  0
 23 24  1  0  0  0  0
 26 23  1  0  0  0  0
 24 25  1  0  0  0  0
 26 27  1  0  0  0  0
 29 26  2  0  0  0  0
 27 28  1  0  0  0  0
 31 30  2  0  0  0  0
 31 32  1  0  0  0  0
 32 33  1  0  0  0  0
M  END
> <Inchi_key>
SGTNSNPWRIOYBX-UHFFFAOYSA-N

> <Source>
Mulliner , Kotsampasakou

> <ID>
EK0564;HT2173

> <H_MFHB>
1

> <CAS>


> <Cholestasis>
1

> <Name>
verapamil hydrochloride;verapamil

> <Class>
1

$$$$