

  -INDIGO-08031710012D

 22 23  0  0  0  0  0  0  0  0999 V2000
    1.7535    2.8003    0.0000 C   0  0  0  0  0  0  0  0  0  0  0  0
    3.0526    2.0504    0.0000 N   0  0  0  0  0  0  0  0  0  0  0  0
    4.3516    2.8003    0.0000 C   0  0  0  0  0  0  0  0  0  0  0  0
    3.0526    0.5503    0.0000 C   0  0  0  0  0  0  0  0  0  0  0  0
    4.3516   -0.1997    0.0000 C   0  0  0  0  0  0  0  0  0  0  0  0
    4.3516   -1.6998    0.0000 O   0  0  0  0  0  0  0  0  0  0  0  0
    5.6507   -2.4497    0.0000 C   0  0  0  0  0  0  0  0  0  0  0  0
    6.4006   -1.1505    0.0000 C   0  0  0  0  0  0  0  0  0  0  0  0
    6.9497   -3.1996    0.0000 C   0  0  0  0  0  0  0  0  0  0  0  0
    8.2486   -2.4497    0.0000 C   0  0  0  0  0  0  0  0  0  0  0  0
    8.2486   -0.9497    0.0000 C   0  0  0  0  0  0  0  0  0  0  0  0
    9.5477   -0.1997    0.0000 C   0  0  0  0  0  0  0  0  0  0  0  0
   10.8467   -0.9497    0.0000 C   0  0  0  0  0  0  0  0  0  0  0  0
   12.1458   -0.1997    0.0000 Cl  0  0  0  0  0  0  0  0  0  0  0  0
   10.8467   -2.4497    0.0000 C   0  0  0  0  0  0  0  0  0  0  0  0
    9.5477   -3.1996    0.0000 C   0  0  0  0  0  0  0  0  0  0  0  0
    4.9006   -3.7487    0.0000 C   0  0  0  0  0  0  0  0  0  0  0  0
    3.4006   -3.7487    0.0000 C   0  0  0  0  0  0  0  0  0  0  0  0
    2.6506   -5.0478    0.0000 C   0  0  0  0  0  0  0  0  0  0  0  0
    3.4006   -6.3468    0.0000 C   0  0  0  0  0  0  0  0  0  0  0  0
    4.9006   -6.3468    0.0000 C   0  0  0  0  0  0  0  0  0  0  0  0
    5.6507   -5.0478    0.0000 C   0  0  0  0  0  0  0  0  0  0  0  0
  1  2  1  0  0  0  0
  2  3  1  0  0  0  0
  2  4  1  0  0  0  0
  4  5  1  0  0  0  0
  5  6  1  0  0  0  0
  6  7  1  0  0  0  0
  7  8  1  0  0  0  0
  7  9  1  0  0  0  0
  7 17  1  0  0  0  0
  9 10  1  0  0  0  0
 11 10  2  0  0  0  0
 10 16  1  0  0  0  0
 12 11  1  0  0  0  0
 13 12  2  0  0  0  0
 13 14  1  0  0  0  0
 15 13  1  0  0  0  0
 16 15  2  0  0  0  0
 18 17  2  0  0  0  0
 17 22  1  0  0  0  0
 19 18  1  0  0  0  0
 20 19  2  0  0  0  0
 21 20  1  0  0  0  0
 22 21  2  0  0  0  0
M  END
> <Inchi_key>
SNZLKUGSGHRVQC-UHFFFAOYSA-N

> <Source>
Mulliner

> <ID>
HT0466

> <H_MFHB>
1

> <CAS>


> <Cholestasis>


> <Name>
chlorphenoxamine

> <Class>
1


$$$$