

  -INDIGO-08031710012D

 28 31  0  0  0  0  0  0  0  0999 V2000
   16.4464   -0.0000    0.0000 C   0  0  0  0  0  0  0  0  0  0  0  0
   14.9463   -0.0000    0.0000 N   0  0  0  0  0  0  0  0  0  0  0  0
   14.1963   -1.2990    0.0000 C   0  0  0  0  0  0  0  0  0  0  0  0
   12.6965   -1.2990    0.0000 C   0  0  0  0  0  0  0  0  0  0  0  0
   11.9463   -0.0000    0.0000 N   0  0  0  0  0  0  0  0  0  0  0  0
   10.4464   -0.0000    0.0000 C   0  0  0  0  0  0  0  0  0  0  0  0
    9.6965    1.2989    0.0000 C   0  0  0  0  0  0  0  0  0  0  0  0
    8.1964    1.2989    0.0000 C   0  0  0  0  0  0  0  0  0  0  0  0
    7.4464    2.5982    0.0000 N   0  0  0  0  0  0  0  0  0  0  0  0
    8.1964    3.8971    0.0000 C   0  0  0  0  0  0  0  0  0  0  0  0
    9.6965    3.8971    0.0000 C   0  0  0  0  0  0  0  0  0  0  0  0
   10.4464    5.1962    0.0000 C   0  0  0  0  0  0  0  0  0  0  0  0
    9.6965    6.4952    0.0000 C   0  0  0  0  0  0  0  0  0  0  0  0
    8.1964    6.4952    0.0000 C   0  0  0  0  0  0  0  0  0  0  0  0
    7.4464    5.1962    0.0000 C   0  0  0  0  0  0  0  0  0  0  0  0
    5.9463    5.1962    0.0000 S   0  0  0  0  0  0  0  0  0  0  0  0
    5.1964    3.8971    0.0000 C   0  0  0  0  0  0  0  0  0  0  0  0
    3.6965    3.8971    0.0000 C   0  0  0  0  0  0  0  0  0  0  0  0
    2.9463    2.5982    0.0000 C   0  0  0  0  0  0  0  0  0  0  0  0
    3.6965    1.2989    0.0000 C   0  0  0  0  0  0  0  0  0  0  0  0
    5.1964    1.2989    0.0000 C   0  0  0  0  0  0  0  0  0  0  0  0
    5.9463    2.5982    0.0000 C   0  0  0  0  0  0  0  0  0  0  0  0
    2.9463   -0.0000    0.0000 C   0  0  0  0  0  0  0  0  0  0  0  0
    1.6474    0.7500    0.0000 F   0  0  0  0  0  0  0  0  0  0  0  0
    2.1964   -1.2990    0.0000 F   0  0  0  0  0  0  0  0  0  0  0  0
    4.2454   -0.7500    0.0000 F   0  0  0  0  0  0  0  0  0  0  0  0
   12.6965    1.2989    0.0000 C   0  0  0  0  0  0  0  0  0  0  0  0
   14.1963    1.2989    0.0000 C   0  0  0  0  0  0  0  0  0  0  0  0
  1  2  1  0  0  0  0
  3  2  1  0  0  0  0
  2 28  1  0  0  0  0
  4  3  1  0  0  0  0
  5  4  1  0  0  0  0
  5  6  1  0  0  0  0
 27  5  1  0  0  0  0
  6  7  1  0  0  0  0
  7  8  1  0  0  0  0
  8  9  1  0  0  0  0
 10  9  1  0  0  0  0
  9 22  1  0  0  0  0
 11 10  2  0  0  0  0
 10 15  1  0  0  0  0
 12 11  1  0  0  0  0
 13 12  2  0  0  0  0
 14 13  1  0  0  0  0
 15 14  2  0  0  0  0
 16 15  1  0  0  0  0
 17 16  1  0  0  0  0
 18 17  2  0  0  0  0
 17 22  1  0  0  0  0
 19 18  1  0  0  0  0
 20 19  2  0  0  0  0
 21 20  1  0  0  0  0
 20 23  1  0  0  0  0
 22 21  2  0  0  0  0
 23 24  1  0  0  0  0
 23 25  1  0  0  0  0
 23 26  1  0  0  0  0
 28 27  1  0  0  0  0
M  END
> <Inchi_key>
ZEWQUBUPAILYHI-UHFFFAOYSA-N

> <Source>
Mulliner , Kotsampasakou

> <ID>
EK0548;HT2118

> <H_MFHB>
1

> <CAS>


> <Cholestasis>
1

> <Name>
trifluoperazine hydrochloride;trifluoperazine

> <Class>
1


$$$$