
  -INDIGO-08031710012D

 19 19  0  0  0  0  0  0  0  0999 V2000
   17.9614   -4.8128    0.0000 O   0  0  0  0  0  0  0  0  0  0  0  0
   16.6624   -4.0628    0.0000 N   0  0  0  0  0  0  0  0  0  0  0  0
   15.3634   -4.8128    0.0000 C   0  0  0  0  0  0  0  0  0  0  0  0
   15.3634   -6.3128    0.0000 O   0  0  0  0  0  0  0  0  0  0  0  0
   14.0644   -4.0628    0.0000 C   0  0  0  0  0  0  0  0  0  0  0  0
   12.7654   -4.8128    0.0000 C   0  0  0  0  0  0  0  0  0  0  0  0
   11.4661   -4.0628    0.0000 C   0  0  0  0  0  0  0  0  0  0  0  0
   10.1671   -4.8128    0.0000 C   0  0  0  0  0  0  0  0  0  0  0  0
    8.8681   -4.0628    0.0000 C   0  0  0  0  0  0  0  0  0  0  0  0
    7.5692   -4.8128    0.0000 C   0  0  0  0  0  0  0  0  0  0  0  0
    6.2702   -4.0628    0.0000 C   0  0  0  0  0  0  0  0  0  0  0  0
    6.2702   -2.5628    0.0000 O   0  0  0  0  0  0  0  0  0  0  0  0
    4.9712   -4.8128    0.0000 N   0  0  0  0  0  0  0  0  0  0  0  0
    3.6719   -4.0628    0.0000 C   0  0  0  0  0  0  0  0  0  0  0  0
    3.6719   -2.5628    0.0000 C   0  0  0  0  0  0  0  0  0  0  0  0
    2.3729   -1.8128    0.0000 C   0  0  0  0  0  0  0  0  0  0  0  0
    1.0739   -2.5628    0.0000 C   0  0  0  0  0  0  0  0  0  0  0  0
    1.0739   -4.0628    0.0000 C   0  0  0  0  0  0  0  0  0  0  0  0
    2.3729   -4.8128    0.0000 C   0  0  0  0  0  0  0  0  0  0  0  0
  1  2  1  0  0  0  0
  2  3  1  0  0  0  0
  3  4  2  0  0  0  0
  3  5  1  0  0  0  0
  5  6  1  0  0  0  0
  6  7  1  0  0  0  0
  7  8  1  0  0  0  0
  8  9  1  0  0  0  0
  9 10  1  0  0  0  0
 10 11  1  0  0  0  0
 11 12  2  0  0  0  0
 11 13  1  0  0  0  0
 13 14  1  0  0  0  0
 15 14  2  0  0  0  0
 14 19  1  0  0  0  0
 16 15  1  0  0  0  0
 17 16  2  0  0  0  0
 18 17  1  0  0  0  0
 19 18  2  0  0  0  0
M  END
> <Inchi_key>
WAEXFXRVDQXREF-UHFFFAOYSA-N

> <Source>
Mulliner

> <ID>
HT2195

> <H_MFHB>
1

> <CAS>


> <Cholestasis>


> <Name>
vorinostat

> <Class>
1

$$$$