
  -INDIGO-08031710012D

 11 12  0  0  0  0  0  0  0  0999 V2000
    8.1114    0.0000    0.0000 O   0  0  0  0  0  0  0  0  0  0  0  0
    6.6114    0.0000    0.0000 C   0  0  0  0  0  0  0  0  0  0  0  0
    5.7296   -1.2135    0.0000 N   0  0  0  0  0  0  0  0  0  0  0  0
    5.7296    1.2135    0.0000 O   0  0  0  0  0  0  0  0  0  0  0  0
    4.3031    0.7500    0.0000 C   0  0  0  0  0  0  0  0  0  0  0  0
    3.0041    1.5000    0.0000 C   0  0  0  0  0  0  0  0  0  0  0  0
    4.3031   -0.7500    0.0000 C   0  0  0  0  0  0  0  0  0  0  0  0
    1.7050    0.7500    0.0000 C   0  0  0  0  0  0  0  0  0  0  0  0
    3.0041   -1.5000    0.0000 C   0  0  0  0  0  0  0  0  0  0  0  0
    1.7050   -0.7500    0.0000 C   0  0  0  0  0  0  0  0  0  0  0  0
    0.4060   -1.5000    0.0000 Cl  0  0  0  0  0  0  0  0  0  0  0  0
  1  2  2  0  0  0  0
  3  2  1  0  0  0  0
  2  4  1  0  0  0  0
  4  5  1  0  0  0  0
  6  5  1  0  0  0  0
  5  7  2  0  0  0  0
  8  6  2  0  0  0  0
  7  9  1  0  0  0  0
  7  3  1  0  0  0  0
 10  8  1  0  0  0  0
  9 10  2  0  0  0  0
 10 11  1  0  0  0  0
M  END
> <Inchi_key>
TZFWDZFKRBELIQ-UHFFFAOYSA-N

> <Source>
Mulliner

> <ID>
HT0473

> <H_MFHB>
1

> <CAS>


> <Cholestasis>


> <Name>
chlorzoxazone

> <Class>
1

$$$$