

  -INDIGO-08031710012D

 20 20  0  0  0  0  0  0  0  0999 V2000
   10.6500   -2.3384    0.0000 C   0  0  0  0  0  0  0  0  0  0  0  0
    9.1499   -2.3384    0.0000 N   0  0  0  0  0  0  0  0  0  0  0  0
    8.4000   -1.0391    0.0000 C   0  0  0  0  0  0  0  0  0  0  0  0
    9.1499    0.2598    0.0000 O   0  0  0  0  0  0  0  0  0  0  0  0
    6.9000   -1.0391    0.0000 C   0  0  0  0  0  0  0  0  0  0  0  0
    6.1501   -2.3384    0.0000 C   0  0  0  0  0  0  0  0  0  0  0  0
    6.9000   -3.6373    0.0000 I   0  0  0  0  0  0  0  0  0  0  0  0
    4.6500   -2.3384    0.0000 C   0  0  0  0  0  0  0  0  0  0  0  0
    3.9000   -3.6373    0.0000 N   0  0  0  0  0  0  0  0  0  0  0  0
    2.4000   -3.6373    0.0000 C   0  0  0  0  0  0  0  0  0  0  0  0
    1.6500   -2.3384    0.0000 O   0  0  0  0  0  0  0  0  0  0  0  0
    1.6500   -4.9363    0.0000 C   0  0  0  0  0  0  0  0  0  0  0  0
    3.9000   -1.0391    0.0000 C   0  0  0  0  0  0  0  0  0  0  0  0
    2.4000   -1.0391    0.0000 I   0  0  0  0  0  0  0  0  0  0  0  0
    4.6500    0.2598    0.0000 C   0  0  0  0  0  0  0  0  0  0  0  0
    3.9000    1.5588    0.0000 C   0  0  0  0  0  0  0  0  0  0  0  0
    2.4000    1.5588    0.0000 O   0  0  0  0  0  0  0  0  0  0  0  0
    4.6500    2.8579    0.0000 O   0  0  0  0  0  0  0  0  0  0  0  0
    6.1501    0.2598    0.0000 C   0  0  0  0  0  0  0  0  0  0  0  0
    6.9000    1.5588    0.0000 I   0  0  0  0  0  0  0  0  0  0  0  0
  1  2  1  0  0  0  0
  2  3  1  0  0  0  0
  3  4  2  0  0  0  0
  3  5  1  0  0  0  0
  6  5  2  0  0  0  0
  5 19  1  0  0  0  0
  6  7  1  0  0  0  0
  8  6  1  0  0  0  0
  8  9  1  0  0  0  0
 13  8  2  0  0  0  0
  9 10  1  0  0  0  0
 10 11  2  0  0  0  0
 10 12  1  0  0  0  0
 13 14  1  0  0  0  0
 15 13  1  0  0  0  0
 15 16  1  0  0  0  0
 19 15  2  0  0  0  0
 16 17  2  0  0  0  0
 16 18  1  0  0  0  0
 19 20  1  0  0  0  0
M  END
> <Inchi_key>
UXIGWFXRQKWHHA-UHFFFAOYSA-N

> <Source>
Mulliner

> <ID>
HT1115

> <H_MFHB>
1

> <CAS>


> <Cholestasis>


> <Name>
iothalamate sodium;iothalamate

> <Class>
1


$$$$