
  -INDIGO-08031710012D

 22 24  0  0  0  0  0  0  0  0999 V2000
   13.9934    3.1824    0.0000 C   0  0  0  0  0  0  0  0  0  0  0  0
   13.2434    4.4815    0.0000 O   0  0  0  0  0  0  0  0  0  0  0  0
   11.7434    4.4815    0.0000 C   0  0  0  0  0  0  0  0  0  0  0  0
   10.9934    3.1824    0.0000 O   0  0  0  0  0  0  0  0  0  0  0  0
   10.9934    5.7805    0.0000 N   0  0  0  0  0  0  0  0  0  0  0  0
    9.4933    5.7805    0.0000 C   0  0  0  0  0  0  0  0  0  0  0  0
    8.6116    6.9940    0.0000 N   0  0  0  0  0  0  0  0  0  0  0  0
    7.1851    6.5305    0.0000 C   0  0  0  0  0  0  0  0  0  0  0  0
    5.8861    7.2805    0.0000 C   0  0  0  0  0  0  0  0  0  0  0  0
    4.5871    6.5305    0.0000 C   0  0  0  0  0  0  0  0  0  0  0  0
    4.5871    5.0305    0.0000 C   0  0  0  0  0  0  0  0  0  0  0  0
    5.8861    4.2805    0.0000 C   0  0  0  0  0  0  0  0  0  0  0  0
    7.1851    5.0305    0.0000 C   0  0  0  0  0  0  0  0  0  0  0  0
    8.6116    4.5670    0.0000 N   0  0  0  0  0  0  0  0  0  0  0  0
    3.2880    7.2805    0.0000 C   0  0  0  0  0  0  0  0  0  0  0  0
    3.2880    8.7805    0.0000 O   0  0  0  0  0  0  0  0  0  0  0  0
    1.9890    6.5305    0.0000 C   0  0  0  0  0  0  0  0  0  0  0  0
    1.9890    5.0305    0.0000 C   0  0  0  0  0  0  0  0  0  0  0  0
    0.6899    4.2805    0.0000 C   0  0  0  0  0  0  0  0  0  0  0  0
   -0.6091    5.0305    0.0000 C   0  0  0  0  0  0  0  0  0  0  0  0
   -0.6091    6.5305    0.0000 C   0  0  0  0  0  0  0  0  0  0  0  0
    0.6899    7.2805    0.0000 C   0  0  0  0  0  0  0  0  0  0  0  0
  1  2  1  0  0  0  0
  2  3  1  0  0  0  0
  3  4  2  0  0  0  0
  3  5  1  0  0  0  0
  5  6  1  0  0  0  0
  7  6  2  0  0  0  0
  6 14  1  0  0  0  0
  8  7  1  0  0  0  0
  9  8  2  0  0  0  0
  8 13  1  0  0  0  0
 10  9  1  0  0  0  0
 11 10  2  0  0  0  0
 10 15  1  0  0  0  0
 12 11  1  0  0  0  0
 13 12  2  0  0  0  0
 14 13  1  0  0  0  0
 15 16  2  0  0  0  0
 15 17  1  0  0  0  0
 18 17  2  0  0  0  0
 17 22  1  0  0  0  0
 19 18  1  0  0  0  0
 20 19  2  0  0  0  0
 21 20  1  0  0  0  0
 22 21  2  0  0  0  0
M  END
> <Inchi_key>
OPXLLQIJSORQAM-UHFFFAOYSA-N

> <Source>
Mulliner

> <ID>
HT1276

> <H_MFHB>
1

> <CAS>
31431-39-7

> <Cholestasis>


> <Name>
mebendazole

> <Class>
1

$$$$