

  -INDIGO-08031710012D

 49 53  0  0  0  0  0  0  0  0999 V2000
    2.4512    9.1478    0.0000 C   0  0  0  0  0  0  0  0  0  0  0  0
    3.7503    8.3978    0.0000 C   0  0  0  0  0  0  0  0  0  0  0  0
    4.5001    9.6969    0.0000 C   0  0  0  0  0  0  0  0  0  0  0  0
    5.0493    7.6479    0.0000 C   0  0  0  0  0  0  0  0  0  0  0  0
    3.0001    7.0988    0.0000 N   0  0  0  0  0  0  0  0  0  0  0  0
    3.7503    5.7999    0.0000 C   0  0  0  0  0  0  0  0  0  0  0  0
    5.2503    5.7999    0.0000 O   0  0  0  0  0  0  0  0  0  0  0  0
    3.0001    4.5007    0.0000 C   0  0  0  0  0  0  0  0  0  0  0  0
    1.5002    4.5007    0.0000 C   0  0  0  0  0  0  0  0  0  0  0  0
    0.7503    3.2018    0.0000 C   0  0  0  0  0  0  0  0  0  0  0  0
   -0.7497    3.2018    0.0000 C   0  0  0  0  0  0  0  0  0  0  0  0
   -1.4998    1.9027    0.0000 C   0  0  0  0  0  0  0  0  0  0  0  0
   -0.7497    0.6035    0.0000 C   0  0  0  0  0  0  0  0  0  0  0  0
    0.7503    0.6035    0.0000 C   0  0  0  0  0  0  0  0  0  0  0  0
    1.5002    1.9027    0.0000 C   0  0  0  0  0  0  0  0  0  0  0  0
    3.0001    1.9027    0.0000 C   0  0  0  0  0  0  0  0  0  0  0  0
    3.7503    3.2018    0.0000 N   0  0  0  0  0  0  0  0  0  0  0  0
    5.2503    3.2018    0.0000 C   0  0  0  0  0  0  0  0  0  0  0  0
    6.0001    1.9027    0.0000 C   0  0  0  0  0  0  0  0  0  0  0  0
    5.2503    0.6035    0.0000 O   0  0  0  0  0  0  0  0  0  0  0  0
    7.5001    1.9027    0.0000 C   0  0  0  0  0  0  0  0  0  0  0  0
    8.2502    0.6035    0.0000 C   0  0  0  0  0  0  0  0  0  0  0  0
    7.5001   -0.6954    0.0000 C   0  0  0  0  0  0  0  0  0  0  0  0
    8.2502   -1.9946    0.0000 C   0  0  0  0  0  0  0  0  0  0  0  0
    7.5001   -3.2935    0.0000 C   0  0  0  0  0  0  0  0  0  0  0  0
    6.0001   -3.2935    0.0000 C   0  0  0  0  0  0  0  0  0  0  0  0
    5.2503   -1.9946    0.0000 C   0  0  0  0  0  0  0  0  0  0  0  0
    6.0001   -0.6954    0.0000 C   0  0  0  0  0  0  0  0  0  0  0  0
    8.2502    3.2018    0.0000 N   0  0  0  0  0  0  0  0  0  0  0  0
    9.7502    3.2018    0.0000 C   0  0  0  0  0  0  0  0  0  0  0  0
   10.5003    4.5007    0.0000 O   0  0  0  0  0  0  0  0  0  0  0  0
   10.5003    1.9027    0.0000 C   0  0  0  0  0  0  0  0  0  0  0  0
    9.7502    0.6035    0.0000 C   0  0  0  0  0  0  0  0  0  0  0  0
   10.5003   -0.6954    0.0000 C   0  0  0  0  0  0  0  0  0  0  0  0
    9.7502   -1.9946    0.0000 O   0  0  0  0  0  0  0  0  0  0  0  0
   12.0003   -0.6954    0.0000 N   0  0  0  0  0  0  0  0  0  0  0  0
   12.0003    1.9027    0.0000 N   0  0  0  0  0  0  0  0  0  0  0  0
   12.7501    3.2018    0.0000 C   0  0  0  0  0  0  0  0  0  0  0  0
   12.0003    4.5007    0.0000 O   0  0  0  0  0  0  0  0  0  0  0  0
   14.2501    3.2018    0.0000 C   0  0  0  0  0  0  0  0  0  0  0  0
   15.0003    1.9027    0.0000 C   0  0  0  0  0  0  0  0  0  0  0  0
   16.5002    1.9027    0.0000 C   0  0  0  0  0  0  0  0  0  0  0  0
   17.2501    3.2018    0.0000 C   0  0  0  0  0  0  0  0  0  0  0  0
   18.7501    3.2018    0.0000 C   0  0  0  0  0  0  0  0  0  0  0  0
   19.5002    4.5007    0.0000 C   0  0  0  0  0  0  0  0  0  0  0  0
   18.7501    5.7999    0.0000 C   0  0  0  0  0  0  0  0  0  0  0  0
   17.2501    5.7999    0.0000 C   0  0  0  0  0  0  0  0  0  0  0  0
   16.5002    4.5007    0.0000 C   0  0  0  0  0  0  0  0  0  0  0  0
   15.0003    4.5007    0.0000 N   0  0  0  0  0  0  0  0  0  0  0  0
  1  2  1  0  0  0  0
  2  3  1  0  0  0  0
  2  4  1  0  0  0  0
  2  5  1  0  0  0  0
  5  6  1  0  0  0  0
  6  7  2  0  0  0  0
  6  8  1  0  0  0  0
  9  8  1  0  0  0  0
  8 17  1  0  0  0  0
 10  9  1  0  0  0  0
 11 10  1  0  0  0  0
 10 15  1  0  0  0  0
 12 11  1  0  0  0  0
 13 12  1  0  0  0  0
 14 13  1  0  0  0  0
 15 14  1  0  0  0  0
 16 15  1  0  0  0  0
 17 16  1  0  0  0  0
 17 18  1  0  0  0  0
 18 19  1  0  0  0  0
 19 20  1  0  0  0  0
 19 21  1  0  0  0  0
 21 22  1  0  0  0  0
 21 29  1  0  0  0  0
 22 23  1  0  0  0  0
 24 23  2  0  0  0  0
 23 28  1  0  0  0  0
 25 24  1  0  0  0  0
 26 25  2  0  0  0  0
 27 26  1  0  0  0  0
 28 27  2  0  0  0  0
 29 30  1  0  0  0  0
 30 31  2  0  0  0  0
 30 32  1  0  0  0  0
 32 33  1  0  0  0  0
 32 37  1  0  0  0  0
 33 34  1  0  0  0  0
 34 35  2  0  0  0  0
 34 36  1  0  0  0  0
 37 38  1  0  0  0  0
 38 39  2  0  0  0  0
 38 40  1  0  0  0  0
 41 40  2  0  0  0  0
 40 49  1  0  0  0  0
 42 41  1  0  0  0  0
 43 42  2  0  0  0  0
 44 43  1  0  0  0  0
 43 48  1  0  0  0  0
 45 44  2  0  0  0  0
 46 45  1  0  0  0  0
 47 46  2  0  0  0  0
 48 47  1  0  0  0  0
 49 48  2  0  0  0  0
M  END
> <Inchi_key>
QWAXKHKRTORLEM-UHFFFAOYSA-N

> <Source>
Mulliner

> <ID>
HT1868

> <H_MFHB>
1

> <CAS>


> <Cholestasis>


> <Name>
saquinavir;saquinavir mesylate

> <Class>
1


$$$$