

  -INDIGO-08031710012D

 22 23  0  0  0  0  0  0  0  0999 V2000
    0.2316    0.8645    0.0000 N   0  0  0  0  0  0  0  0  0  0  0  0
    1.5307    0.1145    0.0000 S   0  0  0  0  0  0  0  0  0  0  0  0
    2.2808    1.4135    0.0000 O   0  0  0  0  0  0  0  0  0  0  0  0
    0.7806   -1.1845    0.0000 O   0  0  0  0  0  0  0  0  0  0  0  0
    2.8296   -0.6355    0.0000 C   0  0  0  0  0  0  0  0  0  0  0  0
    4.1287    0.1145    0.0000 C   0  0  0  0  0  0  0  0  0  0  0  0
    5.4278   -0.6355    0.0000 C   0  0  0  0  0  0  0  0  0  0  0  0
    5.4278   -2.1355    0.0000 C   0  0  0  0  0  0  0  0  0  0  0  0
    6.7269   -2.8855    0.0000 N   0  0  0  0  0  0  0  0  0  0  0  0
    8.0258   -2.1355    0.0000 C   0  0  0  0  0  0  0  0  0  0  0  0
    9.3249   -2.8855    0.0000 C   0  0  0  0  0  0  0  0  0  0  0  0
   10.6240   -2.1355    0.0000 S   0  0  0  0  0  0  0  0  0  0  0  0
   11.9231   -2.8855    0.0000 C   0  0  0  0  0  0  0  0  0  0  0  0
   13.2220   -2.1355    0.0000 C   0  0  0  0  0  0  0  0  0  0  0  0
   14.5211   -2.8855    0.0000 C   0  0  0  0  0  0  0  0  0  0  0  0
    8.0258   -0.6355    0.0000 N   0  0  0  0  0  0  0  0  0  0  0  0
    6.7269    0.1145    0.0000 S   0  0  0  0  0  0  0  0  0  0  0  0
    5.9768    1.4135    0.0000 O   0  0  0  0  0  0  0  0  0  0  0  0
    7.4768    1.4135    0.0000 O   0  0  0  0  0  0  0  0  0  0  0  0
    4.1287   -2.8855    0.0000 C   0  0  0  0  0  0  0  0  0  0  0  0
    2.8296   -2.1355    0.0000 C   0  0  0  0  0  0  0  0  0  0  0  0
    1.5307   -2.8855    0.0000 Cl  0  0  0  0  0  0  0  0  0  0  0  0
  1  2  1  0  0  0  0
  2  3  2  0  0  0  0
  2  4  2  0  0  0  0
  2  5  1  0  0  0  0
  6  5  2  0  0  0  0
  5 21  1  0  0  0  0
  7  6  1  0  0  0  0
  7  8  2  0  0  0  0
 17  7  1  0  0  0  0
  8  9  1  0  0  0  0
 20  8  1  0  0  0  0
  9 10  1  0  0  0  0
 10 11  1  0  0  0  0
 10 16  1  0  0  0  0
 11 12  1  0  0  0  0
 12 13  1  0  0  0  0
 13 14  1  0  0  0  0
 14 15  2  0  0  0  0
 16 17  1  0  0  0  0
 17 18  2  0  0  0  0
 17 19  2  0  0  0  0
 21 20  2  0  0  0  0
 21 22  1  0  0  0  0
M  END
> <Inchi_key>
VGLGVJVUHYTIIU-UHFFFAOYSA-N

> <Source>
Mulliner

> <ID>
HT0117

> <H_MFHB>
1

> <CAS>


> <Cholestasis>


> <Name>
althiazide

> <Class>
1


$$$$