
  -INDIGO-08031710012D

 26 29  0  0  0  0  0  0  0  0999 V2000
    5.3045   -0.0490    0.0000 C   0  0  0  0  0  0  0  0  0  0  0  0
    4.4485    1.1828    0.0000 C   0  0  0  0  0  0  0  0  0  0  0  0
    3.6940   -0.1135    0.0000 C   0  0  0  0  0  0  0  0  0  0  0  0
    2.1940   -0.1082    0.0000 C   0  0  0  0  0  0  0  0  0  0  0  0
    1.4393   -1.4045    0.0000 O   0  0  0  0  0  0  0  0  0  0  0  0
    1.4485    1.1936    0.0000 C   0  0  0  0  0  0  0  0  0  0  0  0
    2.2032    2.4899    0.0000 C   0  0  0  0  0  0  0  0  0  0  0  0
    1.4579    3.7916    0.0000 C   0  0  0  0  0  0  0  0  0  0  0  0
   -0.0420    3.7970    0.0000 C   0  0  0  0  0  0  0  0  0  0  0  0
   -0.7967    2.5007    0.0000 C   0  0  0  0  0  0  0  0  0  0  0  0
   -2.2967    2.5060    0.0000 C   0  0  0  0  0  0  0  0  0  0  0  0
   -3.0514    1.2097    0.0000 C   0  0  0  0  0  0  0  0  0  0  0  0
   -4.5514    1.2151    0.0000 O   0  0  0  0  0  0  0  0  0  0  0  0
   -2.3062   -0.0920    0.0000 C   0  0  0  0  0  0  0  0  0  0  0  0
   -0.8062   -0.0974    0.0000 C   0  0  0  0  0  0  0  0  0  0  0  0
   -0.0515    1.1989    0.0000 C   0  0  0  0  0  0  0  0  0  0  0  0
    0.6938   -0.1028    0.0000 C   0  0  0  0  0  0  0  0  0  0  0  0
    3.7032    2.4845    0.0000 C   0  0  0  0  0  0  0  0  0  0  0  0
    4.7109    3.5956    0.0000 C   0  0  0  0  0  0  0  0  0  0  0  0
    6.0790    2.9806    0.0000 C   0  0  0  0  0  0  0  0  0  0  0  0
    5.9168    1.4894    0.0000 C   0  0  0  0  0  0  0  0  0  0  0  0
    6.4002    0.0694    0.0000 O   0  0  0  0  0  0  0  0  0  0  0  0
    7.3975    1.2495    0.0000 C   0  0  0  0  0  0  0  0  0  0  0  0
    7.9302   -0.1528    0.0000 O   0  0  0  0  0  0  0  0  0  0  0  0
    8.3457    2.4118    0.0000 C   0  0  0  0  0  0  0  0  0  0  0  0
    9.8264    2.1718    0.0000 O   0  0  0  0  0  0  0  0  0  0  0  0
  1  2  1  0  0  0  0
  3  2  1  0  0  0  0
 18  2  1  0  0  0  0
  2 21  1  0  0  0  0
  4  3  1  0  0  0  0
  4  5  2  0  0  0  0
  6  4  1  0  0  0  0
  6  7  1  0  0  0  0
 16  6  1  0  0  0  0
  7  8  1  0  0  0  0
 18  7  1  0  0  0  0
  8  9  1  0  0  0  0
  9 10  1  0  0  0  0
 11 10  2  0  0  0  0
 10 16  1  0  0  0  0
 12 11  1  0  0  0  0
 12 13  2  0  0  0  0
 14 12  1  0  0  0  0
 15 14  2  0  0  0  0
 16 15  1  0  0  0  0
 16 17  1  0  0  0  0
 19 18  1  0  0  0  0
 20 19  1  0  0  0  0
 21 20  1  0  0  0  0
 21 22  1  0  0  0  0
 21 23  1  0  0  0  0
 23 24  2  0  0  0  0
 23 25  1  0  0  0  0
 25 26  1  0  0  0  0
M  END
> <Inchi_key>
XOFYZVNMUHMLCC-UHFFFAOYSA-N

> <Source>
Mulliner

> <ID>
HT1734

> <H_MFHB>
1

> <CAS>


> <Cholestasis>


> <Name>
prednisone

> <Class>
1

$$$$