

  -INDIGO-08031710012D

 30 32  0  0  0  0  0  0  0  0999 V2000
    5.4225    3.1307    0.0000 C   0  0  0  0  0  0  0  0  0  0  0  0
    4.6726    1.8318    0.0000 C   0  0  0  0  0  0  0  0  0  0  0  0
    5.4225    0.5327    0.0000 C   0  0  0  0  0  0  0  0  0  0  0  0
    6.7216    1.2828    0.0000 C   0  0  0  0  0  0  0  0  0  0  0  0
    6.1726   -0.7664    0.0000 C   0  0  0  0  0  0  0  0  0  0  0  0
    4.1236   -0.2173    0.0000 C   0  0  0  0  0  0  0  0  0  0  0  0
    2.8244    0.5327    0.0000 O   0  0  0  0  0  0  0  0  0  0  0  0
    4.1236   -1.7173    0.0000 O   0  0  0  0  0  0  0  0  0  0  0  0
    2.8244   -2.4672    0.0000 C   0  0  0  0  0  0  0  0  0  0  0  0
    1.5255   -1.7173    0.0000 C   0  0  0  0  0  0  0  0  0  0  0  0
    0.2263   -2.4672    0.0000 C   0  0  0  0  0  0  0  0  0  0  0  0
   -1.0726   -1.7173    0.0000 C   0  0  0  0  0  0  0  0  0  0  0  0
    0.2263   -3.9673    0.0000 C   0  0  0  0  0  0  0  0  0  0  0  0
    1.5255   -4.7173    0.0000 C   0  0  0  0  0  0  0  0  0  0  0  0
    1.5255   -6.2174    0.0000 C   0  0  0  0  0  0  0  0  0  0  0  0
    2.8244   -6.9673    0.0000 C   0  0  0  0  0  0  0  0  0  0  0  0
    4.1236   -6.2174    0.0000 C   0  0  0  0  0  0  0  0  0  0  0  0
    5.4225   -6.9673    0.0000 C   0  0  0  0  0  0  0  0  0  0  0  0
    4.1236   -4.7173    0.0000 C   0  0  0  0  0  0  0  0  0  0  0  0
    5.4225   -3.9673    0.0000 C   0  0  0  0  0  0  0  0  0  0  0  0
    6.7216   -4.7173    0.0000 C   0  0  0  0  0  0  0  0  0  0  0  0
    8.0208   -3.9673    0.0000 C   0  0  0  0  0  0  0  0  0  0  0  0
    8.0208   -2.4672    0.0000 C   0  0  0  0  0  0  0  0  0  0  0  0
    9.3197   -1.7173    0.0000 C   0  0  0  0  0  0  0  0  0  0  0  0
    9.3197   -0.2173    0.0000 O   0  0  0  0  0  0  0  0  0  0  0  0
   10.6187   -2.4672    0.0000 C   0  0  0  0  0  0  0  0  0  0  0  0
   10.6187   -3.9673    0.0000 C   0  0  0  0  0  0  0  0  0  0  0  0
   11.9178   -4.7173    0.0000 O   0  0  0  0  0  0  0  0  0  0  0  0
    9.3197   -4.7173    0.0000 O   0  0  0  0  0  0  0  0  0  0  0  0
    2.8244   -3.9673    0.0000 C   0  0  0  0  0  0  0  0  0  0  0  0
  1  2  1  0  0  0  0
  2  3  1  0  0  0  0
  3  4  1  0  0  0  0
  3  5  1  0  0  0  0
  3  6  1  0  0  0  0
  6  7  2  0  0  0  0
  6  8  1  0  0  0  0
  8  9  1  0  0  0  0
 10  9  1  0  0  0  0
  9 30  1  0  0  0  0
 11 10  1  0  0  0  0
 11 12  1  0  0  0  0
 13 11  1  0  0  0  0
 14 13  2  0  0  0  0
 15 14  1  0  0  0  0
 14 30  1  0  0  0  0
 16 15  2  0  0  0  0
 17 16  1  0  0  0  0
 17 18  1  0  0  0  0
 19 17  1  0  0  0  0
 19 20  1  0  0  0  0
 30 19  1  0  0  0  0
 20 21  1  0  0  0  0
 21 22  1  0  0  0  0
 23 22  1  0  0  0  0
 22 29  1  0  0  0  0
 24 23  1  0  0  0  0
 24 25  1  0  0  0  0
 26 24  1  0  0  0  0
 27 26  1  0  0  0  0
 27 28  2  0  0  0  0
 29 27  1  0  0  0  0
M  END
> <Inchi_key>
RYMZZMVNJRMUDD-UHFFFAOYSA-N

> <Source>
Mulliner

> <ID>
HT1889

> <H_MFHB>
1

> <CAS>
79902-63-9

> <Cholestasis>


> <Name>
simvastatin

> <Class>
1


$$$$