
  -INDIGO-08031709442D

  2  1  0  0  0  0  0  0  0  0999 V2000
    0.0000    0.0000    0.0000 O   0  0  0  0  0  0  0  0  0  0  0  0
    1.5000    0.0000    0.0000 C   0  0  0  0  0  0  0  0  0  0  0  0
  1  2  2  0  0  0  0
M  END
> <Inchi_key>
WSFSSNUMVMOOMR-UHFFFAOYSA-N

> <Source>
Kotsampasakou

> <ID>
EK0233

> <H_MFHB>


> <CAS>


> <Cholestasis>
1

> <Name>
formaldehyde

> <Class>
1

$$$$