
  -INDIGO-08031710012D

 19 21  0  0  0  0  0  0  0  0999 V2000
   11.8677   -0.2735    0.0000 O   0  0  0  0  0  0  0  0  0  0  0  0
   10.3678   -0.2735    0.0000 C   0  0  0  0  0  0  0  0  0  0  0  0
    9.6177   -1.5725    0.0000 C   0  0  0  0  0  0  0  0  0  0  0  0
    8.1178   -1.5725    0.0000 C   0  0  0  0  0  0  0  0  0  0  0  0
    7.3677   -0.2735    0.0000 C   0  0  0  0  0  0  0  0  0  0  0  0
    5.8678   -0.2735    0.0000 N   0  0  0  0  0  0  0  0  0  0  0  0
    4.9861   -1.4870    0.0000 C   0  0  0  0  0  0  0  0  0  0  0  0
    5.4496   -2.9136    0.0000 O   0  0  0  0  0  0  0  0  0  0  0  0
    3.5595   -1.0235    0.0000 C   0  0  0  0  0  0  0  0  0  0  0  0
    2.2605   -1.7735    0.0000 C   0  0  0  0  0  0  0  0  0  0  0  0
    0.9614   -1.0235    0.0000 C   0  0  0  0  0  0  0  0  0  0  0  0
    0.9614    0.4765    0.0000 C   0  0  0  0  0  0  0  0  0  0  0  0
    2.2605    1.2265    0.0000 C   0  0  0  0  0  0  0  0  0  0  0  0
    3.5595    0.4765    0.0000 C   0  0  0  0  0  0  0  0  0  0  0  0
    4.9861    0.9400    0.0000 C   0  0  0  0  0  0  0  0  0  0  0  0
    5.4496    2.3666    0.0000 O   0  0  0  0  0  0  0  0  0  0  0  0
    8.1178    1.0256    0.0000 C   0  0  0  0  0  0  0  0  0  0  0  0
    7.3677    2.3246    0.0000 O   0  0  0  0  0  0  0  0  0  0  0  0
    9.6177    1.0256    0.0000 N   0  0  0  0  0  0  0  0  0  0  0  0
  1  2  2  0  0  0  0
  3  2  1  0  0  0  0
  2 19  1  0  0  0  0
  4  3  1  0  0  0  0
  5  4  1  0  0  0  0
  5  6  1  0  0  0  0
 17  5  1  0  0  0  0
  7  6  1  0  0  0  0
  6 15  1  0  0  0  0
  7  8  2  0  0  0  0
  9  7  1  0  0  0  0
 10  9  1  0  0  0  0
  9 14  2  0  0  0  0
 11 10  2  0  0  0  0
 12 11  1  0  0  0  0
 13 12  2  0  0  0  0
 14 13  1  0  0  0  0
 15 14  1  0  0  0  0
 15 16  2  0  0  0  0
 17 18  2  0  0  0  0
 19 17  1  0  0  0  0
M  END
> <Inchi_key>
UEJJHQNACJXSKW-UHFFFAOYSA-N

> <Source>
Mulliner , Kotsampasakou

> <ID>
EK0521;HT2032

> <H_MFHB>
1

> <CAS>
50-35-1;731-40-8

> <Cholestasis>
1

> <Name>
thalidomide

> <Class>
1

$$$$