

  -INDIGO-08031710012D

 22 23  0  0  0  0  0  0  0  0999 V2000
    0.0001    5.3009    0.0000 C   0  0  0  0  0  0  0  0  0  0  0  0
    1.5000    5.3009    0.0000 C   0  0  0  0  0  0  0  0  0  0  0  0
    2.9999    5.3009    0.0000 C   0  0  0  0  0  0  0  0  0  0  0  0
    1.5000    6.8010    0.0000 C   0  0  0  0  0  0  0  0  0  0  0  0
    1.5000    8.3009    0.0000 N   0  0  0  0  0  0  0  0  0  0  0  0
    1.5000    3.8010    0.0000 C   0  0  0  0  0  0  0  0  0  0  0  0
    0.2010    3.0509    0.0000 C   0  0  0  0  0  0  0  0  0  0  0  0
    0.2010    1.5509    0.0000 C   0  0  0  0  0  0  0  0  0  0  0  0
   -1.0981    0.8010    0.0000 C   0  0  0  0  0  0  0  0  0  0  0  0
   -2.3971    1.5509    0.0000 N   0  0  0  0  0  0  0  0  0  0  0  0
   -3.7674    0.9408    0.0000 C   0  0  0  0  0  0  0  0  0  0  0  0
   -4.7711    2.0555    0.0000 N   0  0  0  0  0  0  0  0  0  0  0  0
   -4.0211    3.3546    0.0000 C   0  0  0  0  0  0  0  0  0  0  0  0
   -2.5539    3.0428    0.0000 N   0  0  0  0  0  0  0  0  0  0  0  0
    1.5000    0.8010    0.0000 C   0  0  0  0  0  0  0  0  0  0  0  0
    2.7991    1.5509    0.0000 C   0  0  0  0  0  0  0  0  0  0  0  0
    2.7991    3.0509    0.0000 C   0  0  0  0  0  0  0  0  0  0  0  0
    4.0981    0.8010    0.0000 C   0  0  0  0  0  0  0  0  0  0  0  0
    3.3481   -0.4980    0.0000 C   0  0  0  0  0  0  0  0  0  0  0  0
    4.8481    2.1000    0.0000 C   0  0  0  0  0  0  0  0  0  0  0  0
    5.3972    0.0509    0.0000 C   0  0  0  0  0  0  0  0  0  0  0  0
    6.6962   -0.6991    0.0000 N   0  0  0  0  0  0  0  0  0  0  0  0
  1  2  1  0  0  0  0
  2  3  1  0  0  0  0
  2  4  1  0  0  0  0
  2  6  1  0  0  0  0
  4  5  3  0  0  0  0
  7  6  2  0  0  0  0
  6 17  1  0  0  0  0
  8  7  1  0  0  0  0
  8  9  1  0  0  0  0
 15  8  2  0  0  0  0
  9 10  1  0  0  0  0
 11 10  1  0  0  0  0
 10 14  1  0  0  0  0
 12 11  2  0  0  0  0
 13 12  1  0  0  0  0
 14 13  2  0  0  0  0
 16 15  1  0  0  0  0
 17 16  2  0  0  0  0
 16 18  1  0  0  0  0
 18 19  1  0  0  0  0
 18 20  1  0  0  0  0
 18 21  1  0  0  0  0
 21 22  3  0  0  0  0
M  END
> <Inchi_key>
YBBLVLTVTVSKRW-UHFFFAOYSA-N

> <Source>
Mulliner

> <ID>
HT0158

> <H_MFHB>
1

> <CAS>
120511-73-1

> <Cholestasis>


> <Name>
anastrozole;anastrozone

> <Class>
1


$$$$