
  -INDIGO-08031710012D

 30 33  0  0  0  0  0  0  0  0999 V2000
    1.6250    2.8146    0.0000 F   0  0  0  0  0  0  0  0  0  0  0  0
    2.3750    1.5155    0.0000 C   0  0  0  0  0  0  0  0  0  0  0  0
    1.6250    0.2165    0.0000 C   0  0  0  0  0  0  0  0  0  0  0  0
    2.3750   -1.0826    0.0000 C   0  0  0  0  0  0  0  0  0  0  0  0
    3.8751   -1.0826    0.0000 C   0  0  0  0  0  0  0  0  0  0  0  0
    4.6250    0.2165    0.0000 C   0  0  0  0  0  0  0  0  0  0  0  0
    3.8751    1.5155    0.0000 C   0  0  0  0  0  0  0  0  0  0  0  0
    4.6250   -2.3816    0.0000 C   0  0  0  0  0  0  0  0  0  0  0  0
    6.1249   -2.3816    0.0000 N   0  0  0  0  0  0  0  0  0  0  0  0
    6.8749   -1.0826    0.0000 C   0  0  0  0  0  0  0  0  0  0  0  0
    8.3750   -1.0826    0.0000 C   0  0  0  0  0  0  0  0  0  0  0  0
    9.1250   -2.3816    0.0000 N   0  0  0  0  0  0  0  0  0  0  0  0
   10.6251   -2.3816    0.0000 C   0  0  0  0  0  0  0  0  0  0  0  0
   11.3751   -3.6805    0.0000 C   0  0  0  0  0  0  0  0  0  0  0  0
   12.8750   -3.6805    0.0000 C   0  0  0  0  0  0  0  0  0  0  0  0
   13.6249   -2.3816    0.0000 C   0  0  0  0  0  0  0  0  0  0  0  0
   15.1250   -2.3816    0.0000 C   0  0  0  0  0  0  0  0  0  0  0  0
   15.8750   -1.0826    0.0000 C   0  0  0  0  0  0  0  0  0  0  0  0
   15.1250    0.2165    0.0000 C   0  0  0  0  0  0  0  0  0  0  0  0
   13.6249    0.2165    0.0000 C   0  0  0  0  0  0  0  0  0  0  0  0
   12.8750   -1.0826    0.0000 C   0  0  0  0  0  0  0  0  0  0  0  0
    8.3750   -3.6805    0.0000 C   0  0  0  0  0  0  0  0  0  0  0  0
    6.8749   -3.6805    0.0000 C   0  0  0  0  0  0  0  0  0  0  0  0
    3.8751   -3.6805    0.0000 C   0  0  0  0  0  0  0  0  0  0  0  0
    2.3750   -3.6805    0.0000 C   0  0  0  0  0  0  0  0  0  0  0  0
    1.6250   -4.9796    0.0000 C   0  0  0  0  0  0  0  0  0  0  0  0
    2.3750   -6.2786    0.0000 C   0  0  0  0  0  0  0  0  0  0  0  0
    1.6250   -7.5777    0.0000 F   0  0  0  0  0  0  0  0  0  0  0  0
    3.8751   -6.2786    0.0000 C   0  0  0  0  0  0  0  0  0  0  0  0
    4.6250   -4.9796    0.0000 C   0  0  0  0  0  0  0  0  0  0  0  0
  1  2  1  0  0  0  0
  3  2  2  0  0  0  0
  2  7  1  0  0  0  0
  4  3  1  0  0  0  0
  5  4  2  0  0  0  0
  6  5  1  0  0  0  0
  5  8  1  0  0  0  0
  7  6  2  0  0  0  0
  8  9  1  0  0  0  0
  8 24  1  0  0  0  0
 10  9  1  0  0  0  0
  9 23  1  0  0  0  0
 11 10  1  0  0  0  0
 12 11  1  0  0  0  0
 12 13  1  0  0  0  0
 22 12  1  0  0  0  0
 13 14  1  0  0  0  0
 14 15  2  0  0  0  0
 15 16  1  0  0  0  0
 17 16  2  0  0  0  0
 16 21  1  0  0  0  0
 18 17  1  0  0  0  0
 19 18  2  0  0  0  0
 20 19  1  0  0  0  0
 21 20  2  0  0  0  0
 23 22  1  0  0  0  0
 25 24  2  0  0  0  0
 24 30  1  0  0  0  0
 26 25  1  0  0  0  0
 27 26  2  0  0  0  0
 27 28  1  0  0  0  0
 29 27  1  0  0  0  0
 30 29  2  0  0  0  0
M  END
> <Inchi_key>
SMANXXCATUTDDT-DAXSKMNVSA-N

> <Source>
Mulliner

> <ID>
HT0900

> <H_MFHB>
1

> <CAS>


> <Cholestasis>


> <Name>
flunarizine

> <Class>
1

$$$$