
  -INDIGO-08031710012D

 14 13  0  0  0  0  0  0  0  0999 V2000
    6.4216   -2.6716    0.0000 C   0  0  0  0  0  0  0  0  0  0  0  0
    6.4216   -4.1716    0.0000 C   0  0  0  0  0  0  0  0  0  0  0  0
    5.1226   -4.9216    0.0000 C   0  0  0  0  0  0  0  0  0  0  0  0
    5.1226   -6.4216    0.0000 C   0  0  0  0  0  0  0  0  0  0  0  0
    6.4216   -7.1716    0.0000 O   0  0  0  0  0  0  0  0  0  0  0  0
    3.8236   -4.1716    0.0000 N   0  0  0  0  0  0  0  0  0  0  0  0
    2.5244   -4.9216    0.0000 C   0  0  0  0  0  0  0  0  0  0  0  0
    1.2256   -4.1716    0.0000 C   0  0  0  0  0  0  0  0  0  0  0  0
   -0.0736   -4.9216    0.0000 N   0  0  0  0  0  0  0  0  0  0  0  0
   -1.3726   -4.1716    0.0000 C   0  0  0  0  0  0  0  0  0  0  0  0
   -2.6716   -4.9216    0.0000 C   0  0  0  0  0  0  0  0  0  0  0  0
   -2.6716   -6.4216    0.0000 C   0  0  0  0  0  0  0  0  0  0  0  0
   -1.3726   -2.6716    0.0000 C   0  0  0  0  0  0  0  0  0  0  0  0
   -2.6716   -1.9216    0.0000 O   0  0  0  0  0  0  0  0  0  0  0  0
  1  2  1  0  0  0  0
  2  3  1  0  0  0  0
  3  4  1  0  0  0  0
  3  6  1  0  0  0  0
  4  5  1  0  0  0  0
  6  7  1  0  0  0  0
  7  8  1  0  0  0  0
  8  9  1  0  0  0  0
  9 10  1  0  0  0  0
 10 11  1  0  0  0  0
 10 13  1  0  0  0  0
 11 12  1  0  0  0  0
 13 14  1  0  0  0  0
M  END
> <Inchi_key>
AEUTYOVWOVBAKS-UHFFFAOYSA-N

> <Source>
Mulliner

> <ID>
HT0803

> <H_MFHB>
1

> <CAS>
74-55-5

> <Cholestasis>


> <Name>
ethambutol hydrochloride;ethambutol

> <Class>
1

$$$$