
  -INDIGO-08031710012D

 31 34  0  0  0  0  0  0  0  0999 V2000
    6.8500    6.8501    0.0000 C   0  0  0  0  0  0  0  0  0  0  0  0
    6.8500    5.3501    0.0000 O   0  0  0  0  0  0  0  0  0  0  0  0
    5.5512    4.6001    0.0000 C   0  0  0  0  0  0  0  0  0  0  0  0
    4.2519    5.3501    0.0000 C   0  0  0  0  0  0  0  0  0  0  0  0
    2.9529    4.6001    0.0000 C   0  0  0  0  0  0  0  0  0  0  0  0
    1.6539    5.3501    0.0000 N   0  0  0  0  0  0  0  0  0  0  0  0
    0.3549    4.6001    0.0000 C   0  0  0  0  0  0  0  0  0  0  0  0
    0.3549    3.1002    0.0000 N   0  0  0  0  0  0  0  0  0  0  0  0
    1.6539    2.3502    0.0000 C   0  0  0  0  0  0  0  0  0  0  0  0
    1.6539    0.8500    0.0000 N   0  0  0  0  0  0  0  0  0  0  0  0
    0.3549    0.1000    0.0000 C   0  0  0  0  0  0  0  0  0  0  0  0
   -0.9442    0.8500    0.0000 C   0  0  0  0  0  0  0  0  0  0  0  0
   -2.2432    0.1000    0.0000 C   0  0  0  0  0  0  0  0  0  0  0  0
   -2.2432   -1.3999    0.0000 C   0  0  0  0  0  0  0  0  0  0  0  0
   -3.5422   -2.1499    0.0000 F   0  0  0  0  0  0  0  0  0  0  0  0
   -0.9442   -2.1499    0.0000 C   0  0  0  0  0  0  0  0  0  0  0  0
   -0.9442   -3.6499    0.0000 Cl  0  0  0  0  0  0  0  0  0  0  0  0
    0.3549   -1.3999    0.0000 C   0  0  0  0  0  0  0  0  0  0  0  0
    2.9529    3.1002    0.0000 C   0  0  0  0  0  0  0  0  0  0  0  0
    4.2519    2.3502    0.0000 C   0  0  0  0  0  0  0  0  0  0  0  0
    5.5512    3.1002    0.0000 C   0  0  0  0  0  0  0  0  0  0  0  0
    6.8500    2.3502    0.0000 O   0  0  0  0  0  0  0  0  0  0  0  0
    8.1493    3.1002    0.0000 C   0  0  0  0  0  0  0  0  0  0  0  0
    9.4483    2.3502    0.0000 C   0  0  0  0  0  0  0  0  0  0  0  0
   10.7473    3.1002    0.0000 C   0  0  0  0  0  0  0  0  0  0  0  0
   12.0464    2.3502    0.0000 N   0  0  0  0  0  0  0  0  0  0  0  0
   12.0464    0.8500    0.0000 C   0  0  0  0  0  0  0  0  0  0  0  0
   13.3454    0.1000    0.0000 C   0  0  0  0  0  0  0  0  0  0  0  0
   14.6444    0.8500    0.0000 O   0  0  0  0  0  0  0  0  0  0  0  0
   14.6444    2.3502    0.0000 C   0  0  0  0  0  0  0  0  0  0  0  0
   13.3454    3.1002    0.0000 C   0  0  0  0  0  0  0  0  0  0  0  0
  1  2  1  0  0  0  0
  2  3  1  0  0  0  0
  4  3  2  0  0  0  0
  3 21  1  0  0  0  0
  5  4  1  0  0  0  0
  6  5  2  0  0  0  0
  5 19  1  0  0  0  0
  7  6  1  0  0  0  0
  8  7  2  0  0  0  0
  9  8  1  0  0  0  0
  9 10  1  0  0  0  0
 19  9  2  0  0  0  0
 10 11  1  0  0  0  0
 12 11  2  0  0  0  0
 11 18  1  0  0  0  0
 13 12  1  0  0  0  0
 14 13  2  0  0  0  0
 14 15  1  0  0  0  0
 16 14  1  0  0  0  0
 16 17  1  0  0  0  0
 18 16  2  0  0  0  0
 20 19  1  0  0  0  0
 21 20  2  0  0  0  0
 21 22  1  0  0  0  0
 22 23  1  0  0  0  0
 23 24  1  0  0  0  0
 24 25  1  0  0  0  0
 25 26  1  0  0  0  0
 27 26  1  0  0  0  0
 26 31  1  0  0  0  0
 28 27  1  0  0  0  0
 29 28  1  0  0  0  0
 30 29  1  0  0  0  0
 31 30  1  0  0  0  0
M  END
> <Inchi_key>
XGALLCVXEZPNRQ-UHFFFAOYSA-N

> <Source>
Mulliner

> <ID>
HT0968

> <H_MFHB>
1

> <CAS>
184475-35-2

> <Cholestasis>


> <Name>
gefitinib

> <Class>
1

$$$$