

  -INDIGO-08031710012D

 23 27  0  0  0  0  0  0  0  0999 V2000
    2.3439   -2.3460    0.0000 N   0  0  0  0  0  0  0  0  0  0  0  0
    2.2776   -0.8475    0.0000 C   0  0  0  0  0  0  0  0  0  0  0  0
    3.5421   -0.0407    0.0000 C   0  0  0  0  0  0  0  0  0  0  0  0
    3.4757    1.4578    0.0000 O   0  0  0  0  0  0  0  0  0  0  0  0
    4.8732   -0.7325    0.0000 N   0  0  0  0  0  0  0  0  0  0  0  0
    6.2153   -0.0621    0.0000 C   0  0  0  0  0  0  0  0  0  0  0  0
    7.2678   -1.1316    0.0000 C   0  0  0  0  0  0  0  0  0  0  0  0
    6.5758   -2.4630    0.0000 C   0  0  0  0  0  0  0  0  0  0  0  0
    5.6225   -3.6210    0.0000 C   0  0  0  0  0  0  0  0  0  0  0  0
    5.0957   -2.2163    0.0000 C   0  0  0  0  0  0  0  0  0  0  0  0
    6.4619    1.4175    0.0000 C   0  0  0  0  0  0  0  0  0  0  0  0
    6.7085    2.8971    0.0000 N   0  0  0  0  0  0  0  0  0  0  0  0
    0.9466   -0.1557    0.0000 C   0  0  0  0  0  0  0  0  0  0  0  0
   -0.4421   -0.3519    0.0000 C   0  0  0  0  0  0  0  0  0  0  0  0
   -1.6794    0.2587    0.0000 C   0  0  0  0  0  0  0  0  0  0  0  0
   -2.9671   -0.8623    0.0000 C   0  0  0  0  0  0  0  0  0  0  0  0
   -1.4691   -0.6052    0.0000 C   0  0  0  0  0  0  0  0  0  0  0  0
   -1.3134    0.9383    0.0000 C   0  0  0  0  0  0  0  0  0  0  0  0
   -0.1844    2.0289    0.0000 C   0  0  0  0  0  0  0  0  0  0  0  0
    0.0104    3.5162    0.0000 O   0  0  0  0  0  0  0  0  0  0  0  0
   -1.5414    1.6997    0.0000 C   0  0  0  0  0  0  0  0  0  0  0  0
    1.1091    1.3248    0.0000 C   0  0  0  0  0  0  0  0  0  0  0  0
   -0.1639   -1.2952    0.0000 C   0  0  0  0  0  0  0  0  0  0  0  0
  1  2  1  0  0  0  0
  2  3  1  0  0  0  0
  2 13  1  0  0  0  0
  3  4  2  0  0  0  0
  3  5  1  0  0  0  0
  6  5  1  0  0  0  0
  5 10  1  0  0  0  0
  7  6  1  0  0  0  0
  6 11  1  0  0  0  0
  8  7  1  0  0  0  0
  9  8  1  0  0  0  0
  8 10  1  0  0  0  0
 10  9  1  0  0  0  0
 11 12  3  0  0  0  0
 14 13  1  0  0  0  0
 22 13  1  0  0  0  0
 13 23  1  0  0  0  0
 15 14  1  0  0  0  0
 15 16  1  0  0  0  0
 21 15  1  0  0  0  0
 16 17  1  0  0  0  0
 17 18  1  0  0  0  0
 23 17  1  0  0  0  0
 18 19  1  0  0  0  0
 19 20  1  0  0  0  0
 19 21  1  0  0  0  0
 19 22  1  0  0  0  0
M  END
> <Inchi_key>
QGJUIPDUBHWZPV-UHFFFAOYSA-N

> <Source>
Mulliner

> <ID>
HT1871

> <H_MFHB>
1

> <CAS>


> <Cholestasis>


> <Name>
saxagliptin hydrochloride;saxagliptin

> <Class>
1


$$$$