

  -INDIGO-08031710012D

 51 57  0  0  0  0  0  0  0  0999 V2000
   28.4227   -3.9040    0.0000 C   0  0  0  0  0  0  0  0  0  0  0  0
   27.2011   -4.7746    0.0000 C   0  0  0  0  0  0  0  0  0  0  0  0
   27.3442   -6.2677    0.0000 C   0  0  0  0  0  0  0  0  0  0  0  0
   28.7089   -6.8903    0.0000 C   0  0  0  0  0  0  0  0  0  0  0  0
   29.9305   -6.0197    0.0000 C   0  0  0  0  0  0  0  0  0  0  0  0
   28.8525   -8.3833    0.0000 O   0  0  0  0  0  0  0  0  0  0  0  0
   26.1226   -7.1383    0.0000 N   0  0  0  0  0  0  0  0  0  0  0  0
   26.1093   -8.6383    0.0000 N   0  0  0  0  0  0  0  0  0  0  0  0
   24.6785   -9.0888    0.0000 C   0  0  0  0  0  0  0  0  0  0  0  0
   23.8078   -7.8673    0.0000 N   0  0  0  0  0  0  0  0  0  0  0  0
   24.7005   -6.6619    0.0000 C   0  0  0  0  0  0  0  0  0  0  0  0
   24.2501   -5.2311    0.0000 O   0  0  0  0  0  0  0  0  0  0  0  0
   22.3078   -7.8538    0.0000 C   0  0  0  0  0  0  0  0  0  0  0  0
   21.5463   -9.1459    0.0000 C   0  0  0  0  0  0  0  0  0  0  0  0
   20.0463   -9.1323    0.0000 C   0  0  0  0  0  0  0  0  0  0  0  0
   19.3082   -7.8265    0.0000 C   0  0  0  0  0  0  0  0  0  0  0  0
   20.0697   -6.5343    0.0000 C   0  0  0  0  0  0  0  0  0  0  0  0
   21.5697   -6.5478    0.0000 C   0  0  0  0  0  0  0  0  0  0  0  0
   17.8081   -7.8128    0.0000 N   0  0  0  0  0  0  0  0  0  0  0  0
   17.0700   -6.5070    0.0000 C   0  0  0  0  0  0  0  0  0  0  0  0
   15.5700   -6.4934    0.0000 C   0  0  0  0  0  0  0  0  0  0  0  0
   14.8080   -7.7857    0.0000 N   0  0  0  0  0  0  0  0  0  0  0  0
   15.5466   -9.0915    0.0000 C   0  0  0  0  0  0  0  0  0  0  0  0
   17.0462   -9.1050    0.0000 C   0  0  0  0  0  0  0  0  0  0  0  0
   13.3085   -7.7719    0.0000 C   0  0  0  0  0  0  0  0  0  0  0  0
   12.5465   -9.0642    0.0000 C   0  0  0  0  0  0  0  0  0  0  0  0
   11.0465   -9.0505    0.0000 C   0  0  0  0  0  0  0  0  0  0  0  0
   10.3084   -7.7447    0.0000 C   0  0  0  0  0  0  0  0  0  0  0  0
    8.8083   -7.7309    0.0000 O   0  0  0  0  0  0  0  0  0  0  0  0
    8.0702   -6.4252    0.0000 C   0  0  0  0  0  0  0  0  0  0  0  0
    6.5702   -6.4117    0.0000 C   0  0  0  0  0  0  0  0  0  0  0  0
    5.6775   -7.6170    0.0000 C   0  0  0  0  0  0  0  0  0  0  0  0
    4.2554   -7.1406    0.0000 O   0  0  0  0  0  0  0  0  0  0  0  0
    4.2692   -5.6407    0.0000 C   0  0  0  0  0  0  0  0  0  0  0  0
    2.7820   -5.4443    0.0000 C   0  0  0  0  0  0  0  0  0  0  0  0
    1.8682   -6.6340    0.0000 N   0  0  0  0  0  0  0  0  0  0  0  0
    0.3691   -6.5942    0.0000 C   0  0  0  0  0  0  0  0  0  0  0  0
   -0.1323   -8.0081    0.0000 N   0  0  0  0  0  0  0  0  0  0  0  0
    1.0572   -8.9216    0.0000 C   0  0  0  0  0  0  0  0  0  0  0  0
    2.2939   -8.0724    0.0000 N   0  0  0  0  0  0  0  0  0  0  0  0
    5.7000   -5.1901    0.0000 C   0  0  0  0  0  0  0  0  0  0  0  0
    3.7444   -4.2355    0.0000 C   0  0  0  0  0  0  0  0  0  0  0  0
    2.2650   -3.9874    0.0000 C   0  0  0  0  0  0  0  0  0  0  0  0
    1.7402   -2.5822    0.0000 C   0  0  0  0  0  0  0  0  0  0  0  0
    2.6944   -1.4251    0.0000 C   0  0  0  0  0  0  0  0  0  0  0  0
    2.1696   -0.0199    0.0000 F   0  0  0  0  0  0  0  0  0  0  0  0
    4.1738   -1.6733    0.0000 C   0  0  0  0  0  0  0  0  0  0  0  0
    4.6986   -3.0783    0.0000 C   0  0  0  0  0  0  0  0  0  0  0  0
    6.1780   -3.3265    0.0000 F   0  0  0  0  0  0  0  0  0  0  0  0
   11.0703   -6.4525    0.0000 C   0  0  0  0  0  0  0  0  0  0  0  0
   12.5699   -6.4661    0.0000 C   0  0  0  0  0  0  0  0  0  0  0  0
  1  2  1  0  0  0  0
  2  3  1  0  0  0  0
  3  4  1  0  0  0  0
  3  7  1  0  0  0  0
  4  5  1  0  0  0  0
  4  6  1  0  0  0  0
  8  7  1  0  0  0  0
  7 11  1  0  0  0  0
  9  8  2  0  0  0  0
 10  9  1  0  0  0  0
 11 10  1  0  0  0  0
 10 13  1  0  0  0  0
 11 12  2  0  0  0  0
 14 13  2  0  0  0  0
 13 18  1  0  0  0  0
 15 14  1  0  0  0  0
 16 15  2  0  0  0  0
 17 16  1  0  0  0  0
 16 19  1  0  0  0  0
 18 17  2  0  0  0  0
 20 19  1  0  0  0  0
 19 24  1  0  0  0  0
 21 20  1  0  0  0  0
 22 21  1  0  0  0  0
 23 22  1  0  0  0  0
 22 25  1  0  0  0  0
 24 23  1  0  0  0  0
 26 25  2  0  0  0  0
 25 51  1  0  0  0  0
 27 26  1  0  0  0  0
 28 27  2  0  0  0  0
 28 29  1  0  0  0  0
 50 28  1  0  0  0  0
 29 30  1  0  0  0  0
 30 31  1  0  0  0  0
 32 31  1  0  0  0  0
 31 41  1  0  0  0  0
 33 32  1  0  0  0  0
 34 33  1  0  0  0  0
 34 35  1  0  0  0  0
 41 34  1  0  0  0  0
 34 42  1  0  0  0  0
 35 36  1  0  0  0  0
 37 36  1  0  0  0  0
 36 40  1  0  0  0  0
 38 37  2  0  0  0  0
 39 38  1  0  0  0  0
 40 39  2  0  0  0  0
 43 42  2  0  0  0  0
 42 48  1  0  0  0  0
 44 43  1  0  0  0  0
 45 44  2  0  0  0  0
 45 46  1  0  0  0  0
 47 45  1  0  0  0  0
 48 47  2  0  0  0  0
 48 49  1  0  0  0  0
 51 50  2  0  0  0  0
M  END
> <Inchi_key>
RAGOYPUPXAKGKH-UHFFFAOYSA-N

> <Source>
Mulliner , Kotsampasakou

> <ID>
EK0434;HT1713

> <H_MFHB>
1

> <CAS>
171228-49-2

> <Cholestasis>
1

> <Name>
posaconazole

> <Class>
1


$$$$