
  -INDIGO-08031710012D

 25 26  0  0  0  0  0  0  0  0999 V2000
    7.5965    0.9420    0.0000 C   0  0  0  0  0  0  0  0  0  0  0  0
    7.2083   -0.5069    0.0000 C   0  0  0  0  0  0  0  0  0  0  0  0
    5.7594   -0.8952    0.0000 C   0  0  0  0  0  0  0  0  0  0  0  0
    4.6988    0.1655    0.0000 O   0  0  0  0  0  0  0  0  0  0  0  0
    5.3712   -2.3441    0.0000 O   0  0  0  0  0  0  0  0  0  0  0  0
    3.9223   -2.7323    0.0000 C   0  0  0  0  0  0  0  0  0  0  0  0
    4.6723   -4.0313    0.0000 C   0  0  0  0  0  0  0  0  0  0  0  0
    6.1722   -4.0313    0.0000 C   0  0  0  0  0  0  0  0  0  0  0  0
    6.9224   -2.7323    0.0000 C   0  0  0  0  0  0  0  0  0  0  0  0
    8.4223   -2.7323    0.0000 C   0  0  0  0  0  0  0  0  0  0  0  0
    9.1723   -4.0313    0.0000 C   0  0  0  0  0  0  0  0  0  0  0  0
    8.4223   -5.3304    0.0000 C   0  0  0  0  0  0  0  0  0  0  0  0
    6.9224   -5.3304    0.0000 C   0  0  0  0  0  0  0  0  0  0  0  0
    3.1723   -1.4332    0.0000 C   0  0  0  0  0  0  0  0  0  0  0  0
    3.9223   -0.1342    0.0000 C   0  0  0  0  0  0  0  0  0  0  0  0
    1.6722   -1.4332    0.0000 C   0  0  0  0  0  0  0  0  0  0  0  0
    0.9223   -0.1342    0.0000 N   0  0  0  0  0  0  0  0  0  0  0  0
    1.6722    1.1648    0.0000 C   0  0  0  0  0  0  0  0  0  0  0  0
   -0.5777   -0.1342    0.0000 C   0  0  0  0  0  0  0  0  0  0  0  0
    2.6232   -3.4823    0.0000 C   0  0  0  0  0  0  0  0  0  0  0  0
    2.6232   -4.9823    0.0000 C   0  0  0  0  0  0  0  0  0  0  0  0
    1.3242   -5.7323    0.0000 C   0  0  0  0  0  0  0  0  0  0  0  0
    0.0251   -4.9823    0.0000 C   0  0  0  0  0  0  0  0  0  0  0  0
    0.0251   -3.4823    0.0000 C   0  0  0  0  0  0  0  0  0  0  0  0
    1.3242   -2.7323    0.0000 C   0  0  0  0  0  0  0  0  0  0  0  0
  1  2  1  0  0  0  0
  2  3  1  0  0  0  0
  3  4  2  0  0  0  0
  3  5  1  0  0  0  0
  5  6  1  0  0  0  0
  6  7  1  0  0  0  0
  6 14  1  0  0  0  0
  6 20  1  0  0  0  0
  7  8  1  0  0  0  0
  9  8  2  0  0  0  0
  8 13  1  0  0  0  0
 10  9  1  0  0  0  0
 11 10  2  0  0  0  0
 12 11  1  0  0  0  0
 13 12  2  0  0  0  0
 14 15  1  0  0  0  0
 14 16  1  0  0  0  0
 16 17  1  0  0  0  0
 17 18  1  0  0  0  0
 17 19  1  0  0  0  0
 21 20  2  0  0  0  0
 20 25  1  0  0  0  0
 22 21  1  0  0  0  0
 23 22  2  0  0  0  0
 24 23  1  0  0  0  0
 25 24  2  0  0  0  0
M  END
> <Inchi_key>
XLMALTXPSGQGBX-UHFFFAOYSA-N

> <Source>
Mulliner , Kotsampasakou

> <ID>
EK0156;HT0629

> <H_MFHB>
1

> <CAS>
0;17140-78-2;1639-60-7

> <Cholestasis>
1

> <Name>
dextropropoxyphene;propoxyphene hydrochloride;propoxyphene napsylate;propoxyphene

> <Class>
1

$$$$