

  -INDIGO-08031710012D

 25 27  0  0  0  0  0  0  0  0999 V2000
   -0.2770   -1.7554    0.0000 C   0  0  0  0  0  0  0  0  0  0  0  0
    1.1568   -1.3151    0.0000 C   0  0  0  0  0  0  0  0  0  0  0  0
    0.1136   -0.2374    0.0000 C   0  0  0  0  0  0  0  0  0  0  0  0
    2.3131   -0.3595    0.0000 S   0  0  0  0  0  0  0  0  0  0  0  0
    3.5791   -1.1639    0.0000 C   0  0  0  0  0  0  0  0  0  0  0  0
    5.0317   -1.5377    0.0000 C   0  0  0  0  0  0  0  0  0  0  0  0
    6.3234   -0.7747    0.0000 N   0  0  0  0  0  0  0  0  0  0  0  0
    7.6297   -1.5117    0.0000 C   0  0  0  0  0  0  0  0  0  0  0  0
    7.6448   -3.0117    0.0000 O   0  0  0  0  0  0  0  0  0  0  0  0
    8.9213   -0.7488    0.0000 C   0  0  0  0  0  0  0  0  0  0  0  0
    8.9062    0.7511    0.0000 C   0  0  0  0  0  0  0  0  0  0  0  0
   10.1979    1.5140    0.0000 O   0  0  0  0  0  0  0  0  0  0  0  0
    7.5999    1.4881    0.0000 O   0  0  0  0  0  0  0  0  0  0  0  0
   10.2277   -1.4858    0.0000 C   0  0  0  0  0  0  0  0  0  0  0  0
   11.5918   -0.8621    0.0000 C   0  0  0  0  0  0  0  0  0  0  0  0
   12.6067   -1.9667    0.0000 C   0  0  0  0  0  0  0  0  0  0  0  0
   11.8696   -3.2732    0.0000 S   0  0  0  0  0  0  0  0  0  0  0  0
   10.3993   -2.9760    0.0000 C   0  0  0  0  0  0  0  0  0  0  0  0
    4.6581   -2.9903    0.0000 C   0  0  0  0  0  0  0  0  0  0  0  0
    5.4209   -4.2818    0.0000 O   0  0  0  0  0  0  0  0  0  0  0  0
    3.2055   -2.6166    0.0000 N   0  0  0  0  0  0  0  0  0  0  0  0
    1.7084   -2.7100    0.0000 C   0  0  0  0  0  0  0  0  0  0  0  0
    0.9038   -3.9761    0.0000 C   0  0  0  0  0  0  0  0  0  0  0  0
    1.5982   -5.3058    0.0000 O   0  0  0  0  0  0  0  0  0  0  0  0
   -0.5947   -3.9126    0.0000 O   0  0  0  0  0  0  0  0  0  0  0  0
  1  2  1  0  0  0  0
  2  3  1  0  0  0  0
  4  2  1  0  0  0  0
  2 22  1  0  0  0  0
  5  4  1  0  0  0  0
  6  5  1  0  0  0  0
  5 21  1  0  0  0  0
  6  7  1  0  0  0  0
 19  6  1  0  0  0  0
  7  8  1  0  0  0  0
  8  9  2  0  0  0  0
  8 10  1  0  0  0  0
 10 11  1  0  0  0  0
 10 14  1  0  0  0  0
 11 12  2  0  0  0  0
 11 13  1  0  0  0  0
 15 14  1  0  0  0  0
 14 18  2  0  0  0  0
 16 15  2  0  0  0  0
 17 16  1  0  0  0  0
 18 17  1  0  0  0  0
 19 20  2  0  0  0  0
 21 19  1  0  0  0  0
 22 21  1  0  0  0  0
 22 23  1  0  0  0  0
 23 24  2  0  0  0  0
 23 25  1  0  0  0  0
M  END
> <Inchi_key>
OHKOGUYZJXTSFX-UHFFFAOYSA-N

> <Source>
Mulliner

> <ID>
HT2057

> <H_MFHB>
1

> <CAS>
4697-14-7

> <Cholestasis>


> <Name>
ticarcillin disodium;ticarcillin

> <Class>
1


$$$$