

  -INDIGO-08031710012D

 20 23  0  0  0  0  0  0  0  0999 V2000
    2.2433    3.0953    0.0000 C   0  0  0  0  0  0  0  0  0  0  0  0
    3.3047    2.0355    0.0000 N   0  0  0  0  0  0  0  0  0  0  0  0
    4.7532    2.4251    0.0000 C   0  0  0  0  0  0  0  0  0  0  0  0
    5.8150    1.3652    0.0000 C   0  0  0  0  0  0  0  0  0  0  0  0
    5.4279   -0.0838    0.0000 N   0  0  0  0  0  0  0  0  0  0  0  0
    3.9793   -0.4734    0.0000 C   0  0  0  0  0  0  0  0  0  0  0  0
    2.9178    0.5863    0.0000 C   0  0  0  0  0  0  0  0  0  0  0  0
    3.3799   -1.8485    0.0000 C   0  0  0  0  0  0  0  0  0  0  0  0
    1.8811   -1.7922    0.0000 C   0  0  0  0  0  0  0  0  0  0  0  0
    1.0829   -3.0622    0.0000 C   0  0  0  0  0  0  0  0  0  0  0  0
    1.7836   -4.3884    0.0000 C   0  0  0  0  0  0  0  0  0  0  0  0
    3.2826   -4.4447    0.0000 C   0  0  0  0  0  0  0  0  0  0  0  0
    4.0807   -3.1747    0.0000 C   0  0  0  0  0  0  0  0  0  0  0  0
    5.5544   -3.4532    0.0000 C   0  0  0  0  0  0  0  0  0  0  0  0
    6.6908   -2.4740    0.0000 C   0  0  0  0  0  0  0  0  0  0  0  0
    8.0170   -3.1747    0.0000 C   0  0  0  0  0  0  0  0  0  0  0  0
    9.2870   -2.3766    0.0000 C   0  0  0  0  0  0  0  0  0  0  0  0
    9.2307   -0.8776    0.0000 C   0  0  0  0  0  0  0  0  0  0  0  0
    7.9044   -0.1769    0.0000 N   0  0  0  0  0  0  0  0  0  0  0  0
    6.6345   -0.9750    0.0000 C   0  0  0  0  0  0  0  0  0  0  0  0
  1  2  1  0  0  0  0
  3  2  1  0  0  0  0
  2  7  1  0  0  0  0
  4  3  1  0  0  0  0
  5  4  1  0  0  0  0
  5  6  1  0  0  0  0
 20  5  1  0  0  0  0
  7  6  1  0  0  0  0
  6  8  1  0  0  0  0
  9  8  1  0  0  0  0
  8 13  2  0  0  0  0
 10  9  2  0  0  0  0
 11 10  1  0  0  0  0
 12 11  2  0  0  0  0
 13 12  1  0  0  0  0
 13 14  1  0  0  0  0
 14 15  1  0  0  0  0
 16 15  1  0  0  0  0
 15 20  2  0  0  0  0
 17 16  2  0  0  0  0
 18 17  1  0  0  0  0
 19 18  2  0  0  0  0
 20 19  1  0  0  0  0
M  END
> <Inchi_key>
RONZAEMNMFQXRA-UHFFFAOYSA-N

> <Source>
Mulliner

> <ID>
HT1411

> <H_MFHB>
1

> <CAS>


> <Cholestasis>


> <Name>
mirtazapine

> <Class>
1


$$$$