

  -INDIGO-08031710012D

 19 21  0  0  0  0  0  0  0  0999 V2000
   -0.6597    3.0691    0.0000 O   0  0  0  0  0  0  0  0  0  0  0  0
    0.6393    2.3191    0.0000 C   0  0  0  0  0  0  0  0  0  0  0  0
    0.6393    0.8191    0.0000 O   0  0  0  0  0  0  0  0  0  0  0  0
    1.9383    3.0691    0.0000 C   0  0  0  0  0  0  0  0  0  0  0  0
    2.0950    4.5609    0.0000 C   0  0  0  0  0  0  0  0  0  0  0  0
    3.5624    4.8727    0.0000 C   0  0  0  0  0  0  0  0  0  0  0  0
    4.3124    3.5737    0.0000 N   0  0  0  0  0  0  0  0  0  0  0  0
    3.3087    2.4590    0.0000 C   0  0  0  0  0  0  0  0  0  0  0  0
    4.0587    1.1599    0.0000 C   0  0  0  0  0  0  0  0  0  0  0  0
    5.5259    1.4718    0.0000 C   0  0  0  0  0  0  0  0  0  0  0  0
    5.6827    2.9636    0.0000 C   0  0  0  0  0  0  0  0  0  0  0  0
    6.9818    3.7136    0.0000 C   0  0  0  0  0  0  0  0  0  0  0  0
    6.9818    5.2136    0.0000 O   0  0  0  0  0  0  0  0  0  0  0  0
    8.2808    2.9636    0.0000 C   0  0  0  0  0  0  0  0  0  0  0  0
    8.2808    1.4636    0.0000 C   0  0  0  0  0  0  0  0  0  0  0  0
    9.5798    0.7136    0.0000 C   0  0  0  0  0  0  0  0  0  0  0  0
   10.8788    1.4636    0.0000 C   0  0  0  0  0  0  0  0  0  0  0  0
   10.8788    2.9636    0.0000 C   0  0  0  0  0  0  0  0  0  0  0  0
    9.5798    3.7136    0.0000 C   0  0  0  0  0  0  0  0  0  0  0  0
  1  2  1  0  0  0  0
  2  3  2  0  0  0  0
  2  4  1  0  0  0  0
  5  4  1  0  0  0  0
  4  8  1  0  0  0  0
  6  5  1  0  0  0  0
  7  6  1  0  0  0  0
  7  8  1  0  0  0  0
 11  7  1  0  0  0  0
  8  9  2  0  0  0  0
  9 10  1  0  0  0  0
 10 11  2  0  0  0  0
 11 12  1  0  0  0  0
 12 13  2  0  0  0  0
 12 14  1  0  0  0  0
 15 14  2  0  0  0  0
 14 19  1  0  0  0  0
 16 15  1  0  0  0  0
 17 16  2  0  0  0  0
 18 17  1  0  0  0  0
 19 18  2  0  0  0  0
M  END
> <Inchi_key>
OZWKMVRBQXNZKK-UHFFFAOYSA-N

> <Source>
Mulliner

> <ID>
HT1161

> <H_MFHB>
1

> <CAS>


> <Cholestasis>


> <Name>
ketorolac tromethamine;ketorolac

> <Class>
1


$$$$