
  -INDIGO-08031710012D

 31 33  0  0  0  0  0  0  0  0999 V2000
   23.1254   -0.9165    0.0000 C   0  0  0  0  0  0  0  0  0  0  0  0
   21.8264   -0.1665    0.0000 C   0  0  0  0  0  0  0  0  0  0  0  0
   21.8264    1.3335    0.0000 C   0  0  0  0  0  0  0  0  0  0  0  0
   20.5273    2.0835    0.0000 N   0  0  0  0  0  0  0  0  0  0  0  0
   19.2283    1.3335    0.0000 C   0  0  0  0  0  0  0  0  0  0  0  0
   19.2283   -0.1665    0.0000 C   0  0  0  0  0  0  0  0  0  0  0  0
   20.5273   -0.9165    0.0000 N   0  0  0  0  0  0  0  0  0  0  0  0
   17.9293    2.0835    0.0000 C   0  0  0  0  0  0  0  0  0  0  0  0
   17.9293    3.5835    0.0000 O   0  0  0  0  0  0  0  0  0  0  0  0
   16.6302    1.3335    0.0000 N   0  0  0  0  0  0  0  0  0  0  0  0
   15.3312    2.0835    0.0000 C   0  0  0  0  0  0  0  0  0  0  0  0
   14.0322    1.3335    0.0000 C   0  0  0  0  0  0  0  0  0  0  0  0
   12.7331    2.0835    0.0000 C   0  0  0  0  0  0  0  0  0  0  0  0
   12.7331    3.5835    0.0000 C   0  0  0  0  0  0  0  0  0  0  0  0
   11.4341    4.3335    0.0000 C   0  0  0  0  0  0  0  0  0  0  0  0
   10.1350    3.5835    0.0000 C   0  0  0  0  0  0  0  0  0  0  0  0
   10.1350    2.0835    0.0000 C   0  0  0  0  0  0  0  0  0  0  0  0
   11.4341    1.3335    0.0000 C   0  0  0  0  0  0  0  0  0  0  0  0
    8.8360    4.3335    0.0000 S   0  0  0  0  0  0  0  0  0  0  0  0
    9.5861    5.6326    0.0000 O   0  0  0  0  0  0  0  0  0  0  0  0
    8.0859    3.0345    0.0000 O   0  0  0  0  0  0  0  0  0  0  0  0
    7.5370    5.0835    0.0000 N   0  0  0  0  0  0  0  0  0  0  0  0
    6.2379    4.3335    0.0000 C   0  0  0  0  0  0  0  0  0  0  0  0
    6.2379    2.8335    0.0000 O   0  0  0  0  0  0  0  0  0  0  0  0
    4.9389    5.0835    0.0000 N   0  0  0  0  0  0  0  0  0  0  0  0
    3.6399    4.3335    0.0000 C   0  0  0  0  0  0  0  0  0  0  0  0
    2.3408    5.0835    0.0000 C   0  0  0  0  0  0  0  0  0  0  0  0
    1.0418    4.3335    0.0000 C   0  0  0  0  0  0  0  0  0  0  0  0
    1.0418    2.8335    0.0000 C   0  0  0  0  0  0  0  0  0  0  0  0
    2.3408    2.0835    0.0000 C   0  0  0  0  0  0  0  0  0  0  0  0
    3.6399    2.8335    0.0000 C   0  0  0  0  0  0  0  0  0  0  0  0
  1  2  1  0  0  0  0
  3  2  2  0  0  0  0
  2  7  1  0  0  0  0
  4  3  1  0  0  0  0
  5  4  2  0  0  0  0
  6  5  1  0  0  0  0
  5  8  1  0  0  0  0
  7  6  2  0  0  0  0
  8  9  2  0  0  0  0
  8 10  1  0  0  0  0
 10 11  1  0  0  0  0
 11 12  1  0  0  0  0
 12 13  1  0  0  0  0
 14 13  2  0  0  0  0
 13 18  1  0  0  0  0
 15 14  1  0  0  0  0
 16 15  2  0  0  0  0
 17 16  1  0  0  0  0
 16 19  1  0  0  0  0
 18 17  2  0  0  0  0
 19 20  2  0  0  0  0
 19 21  1  0  0  0  0
 19 22  2  0  0  0  0
 22 23  1  0  0  0  0
 23 24  2  0  0  0  0
 23 25  1  0  0  0  0
 25 26  1  0  0  0  0
 27 26  1  0  0  0  0
 26 31  1  0  0  0  0
 28 27  1  0  0  0  0
 29 28  1  0  0  0  0
 30 29  1  0  0  0  0
 31 30  1  0  0  0  0
M  END
> <Inchi_key>
XPQXLWGHBAMIDQ-UHFFFAOYSA-N

> <Source>
Mulliner

> <ID>
HT0988

> <H_MFHB>
1

> <CAS>


> <Cholestasis>


> <Name>
glipizide

> <Class>
1

$$$$