

  -INDIGO-08031710012D

 19 20  0  0  0  0  0  0  0  0999 V2000
    1.7285    6.4510    0.0000 C   0  0  0  0  0  0  0  0  0  0  0  0
    3.0275    5.7011    0.0000 N   0  0  0  0  0  0  0  0  0  0  0  0
    3.0275    4.2011    0.0000 C   0  0  0  0  0  0  0  0  0  0  0  0
    4.3266    3.4510    0.0000 C   0  0  0  0  0  0  0  0  0  0  0  0
    4.3266    1.9510    0.0000 C   0  0  0  0  0  0  0  0  0  0  0  0
    5.6257    1.2011    0.0000 O   0  0  0  0  0  0  0  0  0  0  0  0
    6.9248    1.9510    0.0000 C   0  0  0  0  0  0  0  0  0  0  0  0
    6.9248    3.4510    0.0000 C   0  0  0  0  0  0  0  0  0  0  0  0
    8.2236    4.2011    0.0000 C   0  0  0  0  0  0  0  0  0  0  0  0
    9.5228    3.4510    0.0000 C   0  0  0  0  0  0  0  0  0  0  0  0
    9.5228    1.9510    0.0000 C   0  0  0  0  0  0  0  0  0  0  0  0
    8.2236    1.2011    0.0000 C   0  0  0  0  0  0  0  0  0  0  0  0
    8.2236   -0.2989    0.0000 C   0  0  0  0  0  0  0  0  0  0  0  0
    3.0275    1.2011    0.0000 C   0  0  0  0  0  0  0  0  0  0  0  0
    3.0275   -0.2989    0.0000 C   0  0  0  0  0  0  0  0  0  0  0  0
    1.7285   -1.0490    0.0000 C   0  0  0  0  0  0  0  0  0  0  0  0
    0.4295   -0.2989    0.0000 C   0  0  0  0  0  0  0  0  0  0  0  0
    0.4295    1.2011    0.0000 C   0  0  0  0  0  0  0  0  0  0  0  0
    1.7285    1.9510    0.0000 C   0  0  0  0  0  0  0  0  0  0  0  0
  1  2  1  0  0  0  0
  2  3  1  0  0  0  0
  3  4  1  0  0  0  0
  4  5  1  0  0  0  0
  5  6  1  0  0  0  0
  5 14  1  0  0  0  0
  6  7  1  0  0  0  0
  8  7  2  0  0  0  0
  7 12  1  0  0  0  0
  9  8  1  0  0  0  0
 10  9  2  0  0  0  0
 11 10  1  0  0  0  0
 12 11  2  0  0  0  0
 12 13  1  0  0  0  0
 15 14  2  0  0  0  0
 14 19  1  0  0  0  0
 16 15  1  0  0  0  0
 17 16  2  0  0  0  0
 18 17  1  0  0  0  0
 19 18  2  0  0  0  0
M  END
> <Inchi_key>
VHGCDTVCOLNTBX-UHFFFAOYSA-N

> <Source>
Mulliner

> <ID>
HT0193

> <H_MFHB>
1

> <CAS>


> <Cholestasis>


> <Name>
atomoxetine hydrochloride;atomoxetine

> <Class>
1


$$$$