
  -INDIGO-08031710012D

 31 35  0  0  0  0  0  0  0  0999 V2000
   -3.7684    2.1757    0.0000 C   0  0  0  0  0  0  0  0  0  0  0  0
   -4.5185    3.4747    0.0000 C   0  0  0  0  0  0  0  0  0  0  0  0
   -3.7684    4.7737    0.0000 C   0  0  0  0  0  0  0  0  0  0  0  0
   -2.2683    4.7737    0.0000 C   0  0  0  0  0  0  0  0  0  0  0  0
   -1.5183    3.4747    0.0000 C   0  0  0  0  0  0  0  0  0  0  0  0
   -0.0185    3.4747    0.0000 N   0  0  0  0  0  0  0  0  0  0  0  0
    0.7315    2.1757    0.0000 C   0  0  0  0  0  0  0  0  0  0  0  0
    2.2316    2.1757    0.0000 C   0  0  0  0  0  0  0  0  0  0  0  0
    2.9816    3.4747    0.0000 C   0  0  0  0  0  0  0  0  0  0  0  0
    2.2316    4.7737    0.0000 C   0  0  0  0  0  0  0  0  0  0  0  0
    0.7315    4.7737    0.0000 C   0  0  0  0  0  0  0  0  0  0  0  0
    4.4817    3.4747    0.0000 C   0  0  0  0  0  0  0  0  0  0  0  0
    5.3632    4.6884    0.0000 N   0  0  0  0  0  0  0  0  0  0  0  0
    6.7900    4.2247    0.0000 O   0  0  0  0  0  0  0  0  0  0  0  0
    6.7900    2.7247    0.0000 C   0  0  0  0  0  0  0  0  0  0  0  0
    7.9046    1.7210    0.0000 C   0  0  0  0  0  0  0  0  0  0  0  0
    7.5928    0.2538    0.0000 C   0  0  0  0  0  0  0  0  0  0  0  0
    8.7074   -0.7499    0.0000 F   0  0  0  0  0  0  0  0  0  0  0  0
    6.1660   -0.2097    0.0000 C   0  0  0  0  0  0  0  0  0  0  0  0
    5.0513    0.7940    0.0000 C   0  0  0  0  0  0  0  0  0  0  0  0
    5.3632    2.2612    0.0000 C   0  0  0  0  0  0  0  0  0  0  0  0
   -4.5185    6.0728    0.0000 C   0  0  0  0  0  0  0  0  0  0  0  0
   -3.7684    7.3718    0.0000 O   0  0  0  0  0  0  0  0  0  0  0  0
   -6.0185    6.0728    0.0000 N   0  0  0  0  0  0  0  0  0  0  0  0
   -6.7683    7.3718    0.0000 C   0  0  0  0  0  0  0  0  0  0  0  0
   -8.2684    7.3718    0.0000 C   0  0  0  0  0  0  0  0  0  0  0  0
   -9.0184    6.0728    0.0000 C   0  0  0  0  0  0  0  0  0  0  0  0
   -8.2684    4.7737    0.0000 C   0  0  0  0  0  0  0  0  0  0  0  0
   -9.0184    3.4747    0.0000 O   0  0  0  0  0  0  0  0  0  0  0  0
   -6.7683    4.7737    0.0000 C   0  0  0  0  0  0  0  0  0  0  0  0
   -6.0185    3.4747    0.0000 N   0  0  0  0  0  0  0  0  0  0  0  0
  1  2  1  0  0  0  0
  3  2  2  0  0  0  0
  2 31  1  0  0  0  0
  3  4  1  0  0  0  0
 22  3  1  0  0  0  0
  4  5  1  0  0  0  0
  5  6  1  0  0  0  0
  7  6  1  0  0  0  0
  6 11  1  0  0  0  0
  8  7  1  0  0  0  0
  9  8  1  0  0  0  0
 10  9  1  0  0  0  0
  9 12  1  0  0  0  0
 11 10  1  0  0  0  0
 13 12  2  0  0  0  0
 12 21  1  0  0  0  0
 14 13  1  0  0  0  0
 15 14  1  0  0  0  0
 16 15  1  0  0  0  0
 15 21  2  0  0  0  0
 17 16  2  0  0  0  0
 17 18  1  0  0  0  0
 19 17  1  0  0  0  0
 20 19  2  0  0  0  0
 21 20  1  0  0  0  0
 22 23  2  0  0  0  0
 24 22  1  0  0  0  0
 25 24  1  0  0  0  0
 24 30  1  0  0  0  0
 26 25  1  0  0  0  0
 27 26  1  0  0  0  0
 28 27  1  0  0  0  0
 28 29  1  0  0  0  0
 30 28  1  0  0  0  0
 31 30  2  0  0  0  0
M  END
> <Inchi_key>
PMXMIIMHBWHSKN-UHFFFAOYSA-N

> <Source>
Mulliner

> <ID>
HT1582

> <H_MFHB>
1

> <CAS>


> <Cholestasis>


> <Name>
paliperidone;paliperidone palmitate

> <Class>
1

$$$$