

  -INDIGO-08031710012D

 20 22  0  0  0  0  0  0  0  0999 V2000
    0.6407   -3.9436    0.0000 O   0  0  0  0  0  0  0  0  0  0  0  0
    1.5386   -2.7420    0.0000 C   0  0  0  0  0  0  0  0  0  0  0  0
    3.0107   -3.0300    0.0000 N   0  0  0  0  0  0  0  0  0  0  0  0
    4.1542   -2.0591    0.0000 C   0  0  0  0  0  0  0  0  0  0  0  0
    5.5254   -2.6673    0.0000 C   0  0  0  0  0  0  0  0  0  0  0  0
    5.6843   -4.1589    0.0000 C   0  0  0  0  0  0  0  0  0  0  0  0
    7.0556   -4.7671    0.0000 C   0  0  0  0  0  0  0  0  0  0  0  0
    8.2677   -3.8837    0.0000 C   0  0  0  0  0  0  0  0  0  0  0  0
    8.1088   -2.3921    0.0000 C   0  0  0  0  0  0  0  0  0  0  0  0
    6.7377   -1.7839    0.0000 C   0  0  0  0  0  0  0  0  0  0  0  0
    4.1063   -0.5599    0.0000 C   0  0  0  0  0  0  0  0  0  0  0  0
    5.4847    0.0317    0.0000 C   0  0  0  0  0  0  0  0  0  0  0  0
    5.6615    1.5213    0.0000 C   0  0  0  0  0  0  0  0  0  0  0  0
    7.0398    2.1129    0.0000 Cl  0  0  0  0  0  0  0  0  0  0  0  0
    4.4599    2.4192    0.0000 C   0  0  0  0  0  0  0  0  0  0  0  0
    3.0815    1.8275    0.0000 C   0  0  0  0  0  0  0  0  0  0  0  0
    2.9047    0.3379    0.0000 C   0  0  0  0  0  0  0  0  0  0  0  0
    1.4522   -0.0401    0.0000 N   0  0  0  0  0  0  0  0  0  0  0  0
    0.8454   -1.4118    0.0000 C   0  0  0  0  0  0  0  0  0  0  0  0
   -0.6539   -1.4598    0.0000 O   0  0  0  0  0  0  0  0  0  0  0  0
  1  2  1  0  0  0  0
  3  2  1  0  0  0  0
  2 19  1  0  0  0  0
  4  3  2  0  0  0  0
  4  5  1  0  0  0  0
 11  4  1  0  0  0  0
  6  5  2  0  0  0  0
  5 10  1  0  0  0  0
  7  6  1  0  0  0  0
  8  7  2  0  0  0  0
  9  8  1  0  0  0  0
 10  9  2  0  0  0  0
 12 11  2  0  0  0  0
 11 17  1  0  0  0  0
 13 12  1  0  0  0  0
 13 14  1  0  0  0  0
 15 13  2  0  0  0  0
 16 15  1  0  0  0  0
 17 16  2  0  0  0  0
 18 17  1  0  0  0  0
 19 18  1  0  0  0  0
 19 20  2  0  0  0  0
M  END
> <Inchi_key>
ADIMAYPTOBDMTL-UHFFFAOYSA-N

> <Source>
Mulliner

> <ID>
HT1556

> <H_MFHB>
1

> <CAS>
604-75-1

> <Cholestasis>


> <Name>
oxazepam

> <Class>
1


$$$$