
  -INDIGO-08031710012D

 27 30  0  0  0  0  0  0  0  0999 V2000
    5.5704   -0.0000    0.0000 C   0  0  0  0  0  0  0  0  0  0  0  0
    4.0703   -0.0000    0.0000 O   0  0  0  0  0  0  0  0  0  0  0  0
    3.3203   -1.2989    0.0000 C   0  0  0  0  0  0  0  0  0  0  0  0
    4.0703   -2.5981    0.0000 C   0  0  0  0  0  0  0  0  0  0  0  0
    5.5704   -2.5981    0.0000 N   0  0  0  0  0  0  0  0  0  0  0  0
    6.3204   -1.2989    0.0000 C   0  0  0  0  0  0  0  0  0  0  0  0
    7.8204   -1.2989    0.0000 C   0  0  0  0  0  0  0  0  0  0  0  0
    8.5704   -2.5981    0.0000 N   0  0  0  0  0  0  0  0  0  0  0  0
    7.8204   -3.8972    0.0000 C   0  0  0  0  0  0  0  0  0  0  0  0
    8.5704   -5.1962    0.0000 C   0  0  0  0  0  0  0  0  0  0  0  0
    6.3204   -3.8972    0.0000 C   0  0  0  0  0  0  0  0  0  0  0  0
    3.3203   -3.8972    0.0000 C   0  0  0  0  0  0  0  0  0  0  0  0
    4.0703   -5.1962    0.0000 F   0  0  0  0  0  0  0  0  0  0  0  0
    1.8205   -3.8972    0.0000 C   0  0  0  0  0  0  0  0  0  0  0  0
    1.0705   -2.5981    0.0000 C   0  0  0  0  0  0  0  0  0  0  0  0
   -0.4296   -2.5981    0.0000 C   0  0  0  0  0  0  0  0  0  0  0  0
   -1.1796   -3.8972    0.0000 O   0  0  0  0  0  0  0  0  0  0  0  0
   -1.1796   -1.2989    0.0000 C   0  0  0  0  0  0  0  0  0  0  0  0
   -0.4296   -0.0000    0.0000 C   0  0  0  0  0  0  0  0  0  0  0  0
    1.0705   -0.0000    0.0000 N   0  0  0  0  0  0  0  0  0  0  0  0
    1.8205    1.2990    0.0000 C   0  0  0  0  0  0  0  0  0  0  0  0
    1.8205    2.7990    0.0000 C   0  0  0  0  0  0  0  0  0  0  0  0
    3.1195    2.0490    0.0000 C   0  0  0  0  0  0  0  0  0  0  0  0
    1.8205   -1.2989    0.0000 C   0  0  0  0  0  0  0  0  0  0  0  0
   -2.6796   -1.2989    0.0000 C   0  0  0  0  0  0  0  0  0  0  0  0
   -3.4296   -0.0000    0.0000 O   0  0  0  0  0  0  0  0  0  0  0  0
   -3.4296   -2.5981    0.0000 O   0  0  0  0  0  0  0  0  0  0  0  0
  1  2  1  0  0  0  0
  2  3  1  0  0  0  0
  4  3  2  0  0  0  0
  3 24  1  0  0  0  0
  4  5  1  0  0  0  0
 12  4  1  0  0  0  0
  6  5  1  0  0  0  0
  5 11  1  0  0  0  0
  7  6  1  0  0  0  0
  8  7  1  0  0  0  0
  9  8  1  0  0  0  0
  9 10  1  0  0  0  0
 11  9  1  0  0  0  0
 12 13  1  0  0  0  0
 14 12  2  0  0  0  0
 15 14  1  0  0  0  0
 16 15  1  0  0  0  0
 15 24  2  0  0  0  0
 16 17  2  0  0  0  0
 18 16  1  0  0  0  0
 19 18  2  0  0  0  0
 18 25  1  0  0  0  0
 20 19  1  0  0  0  0
 20 21  1  0  0  0  0
 24 20  1  0  0  0  0
 22 21  1  0  0  0  0
 21 23  1  0  0  0  0
 23 22  1  0  0  0  0
 25 26  2  0  0  0  0
 25 27  1  0  0  0  0
M  END
> <Inchi_key>
XUBOMFCQGDBHNK-UHFFFAOYSA-N

> <Source>
Mulliner

> <ID>
HT0967

> <H_MFHB>
1

> <CAS>


> <Cholestasis>


> <Name>
gatifloxacin

> <Class>
1

$$$$