
  -INDIGO-08031710012D

 28 31  0  0  0  0  0  0  0  0999 V2000
   -4.1456   11.4710    0.0000 C   0  0  0  0  0  0  0  0  0  0  0  0
   -4.8957   10.1720    0.0000 O   0  0  0  0  0  0  0  0  0  0  0  0
   -4.1456    8.8730    0.0000 C   0  0  0  0  0  0  0  0  0  0  0  0
   -2.6457    8.8730    0.0000 C   0  0  0  0  0  0  0  0  0  0  0  0
   -1.8956    7.5739    0.0000 C   0  0  0  0  0  0  0  0  0  0  0  0
   -0.4286    7.2620    0.0000 C   0  0  0  0  0  0  0  0  0  0  0  0
   -0.2716    5.7701    0.0000 C   0  0  0  0  0  0  0  0  0  0  0  0
    1.0273    5.0202    0.0000 C   0  0  0  0  0  0  0  0  0  0  0  0
    2.3262    5.7701    0.0000 C   0  0  0  0  0  0  0  0  0  0  0  0
    2.3262    7.2702    0.0000 C   0  0  0  0  0  0  0  0  0  0  0  0
    3.6254    8.0202    0.0000 C   0  0  0  0  0  0  0  0  0  0  0  0
    4.9245    7.2702    0.0000 N   0  0  0  0  0  0  0  0  0  0  0  0
    6.2234    8.0202    0.0000 C   0  0  0  0  0  0  0  0  0  0  0  0
    7.5226    7.2702    0.0000 C   0  0  0  0  0  0  0  0  0  0  0  0
    7.5226    5.7701    0.0000 C   0  0  0  0  0  0  0  0  0  0  0  0
    8.8214    5.0202    0.0000 C   0  0  0  0  0  0  0  0  0  0  0  0
   10.1206    5.7701    0.0000 C   0  0  0  0  0  0  0  0  0  0  0  0
   10.1206    7.2702    0.0000 C   0  0  0  0  0  0  0  0  0  0  0  0
    8.8214    8.0202    0.0000 C   0  0  0  0  0  0  0  0  0  0  0  0
    4.9245    5.7701    0.0000 C   0  0  0  0  0  0  0  0  0  0  0  0
    3.6254    5.0202    0.0000 C   0  0  0  0  0  0  0  0  0  0  0  0
   -1.6421    5.1601    0.0000 C   0  0  0  0  0  0  0  0  0  0  0  0
   -1.9538    3.6929    0.0000 O   0  0  0  0  0  0  0  0  0  0  0  0
   -2.6457    6.2749    0.0000 C   0  0  0  0  0  0  0  0  0  0  0  0
   -4.1456    6.2749    0.0000 C   0  0  0  0  0  0  0  0  0  0  0  0
   -4.8957    7.5739    0.0000 C   0  0  0  0  0  0  0  0  0  0  0  0
   -6.3956    7.5739    0.0000 O   0  0  0  0  0  0  0  0  0  0  0  0
   -7.1457    6.2749    0.0000 C   0  0  0  0  0  0  0  0  0  0  0  0
  1  2  1  0  0  0  0
  2  3  1  0  0  0  0
  4  3  2  0  0  0  0
  3 26  1  0  0  0  0
  5  4  1  0  0  0  0
  6  5  1  0  0  0  0
  5 24  2  0  0  0  0
  7  6  1  0  0  0  0
  7  8  1  0  0  0  0
 22  7  1  0  0  0  0
  8  9  1  0  0  0  0
 10  9  1  0  0  0  0
  9 21  1  0  0  0  0
 11 10  1  0  0  0  0
 12 11  1  0  0  0  0
 12 13  1  0  0  0  0
 20 12  1  0  0  0  0
 13 14  1  0  0  0  0
 15 14  2  0  0  0  0
 14 19  1  0  0  0  0
 16 15  1  0  0  0  0
 17 16  2  0  0  0  0
 18 17  1  0  0  0  0
 19 18  2  0  0  0  0
 21 20  1  0  0  0  0
 22 23  2  0  0  0  0
 24 22  1  0  0  0  0
 25 24  1  0  0  0  0
 26 25  2  0  0  0  0
 26 27  1  0  0  0  0
 27 28  1  0  0  0  0
M  END
> <Inchi_key>
ADEBPBSSDYVVLD-UHFFFAOYSA-N

> <Source>
Mulliner

> <ID>
HT0708

> <H_MFHB>
1

> <CAS>


> <Cholestasis>


> <Name>
donepezil hydrochloride;donepezil

> <Class>
1

$$$$