

  -INDIGO-08031710012D

 23 24  0  0  0  0  0  0  0  0999 V2000
    6.2019   -2.9962    0.0000 C   0  0  0  0  0  0  0  0  0  0  0  0
    5.7382   -1.5696    0.0000 N   0  0  0  0  0  0  0  0  0  0  0  0
    6.6200   -0.3560    0.0000 C   0  0  0  0  0  0  0  0  0  0  0  0
    8.1201   -0.3560    0.0000 C   0  0  0  0  0  0  0  0  0  0  0  0
    8.8700    0.9429    0.0000 C   0  0  0  0  0  0  0  0  0  0  0  0
   10.3700    0.9429    0.0000 C   0  0  0  0  0  0  0  0  0  0  0  0
   11.1200    2.2420    0.0000 C   0  0  0  0  0  0  0  0  0  0  0  0
   12.6200    2.2420    0.0000 O   0  0  0  0  0  0  0  0  0  0  0  0
   10.3700    3.5411    0.0000 O   0  0  0  0  0  0  0  0  0  0  0  0
    5.7382    0.8575    0.0000 N   0  0  0  0  0  0  0  0  0  0  0  0
    4.3116    0.3941    0.0000 C   0  0  0  0  0  0  0  0  0  0  0  0
    3.0128    1.1440    0.0000 C   0  0  0  0  0  0  0  0  0  0  0  0
    1.7137    0.3941    0.0000 C   0  0  0  0  0  0  0  0  0  0  0  0
    1.7137   -1.1060    0.0000 C   0  0  0  0  0  0  0  0  0  0  0  0
    3.0128   -1.8560    0.0000 C   0  0  0  0  0  0  0  0  0  0  0  0
    4.3116   -1.1060    0.0000 C   0  0  0  0  0  0  0  0  0  0  0  0
    0.4147    1.1440    0.0000 N   0  0  0  0  0  0  0  0  0  0  0  0
   -0.8844    0.3941    0.0000 C   0  0  0  0  0  0  0  0  0  0  0  0
   -2.1834    1.1440    0.0000 C   0  0  0  0  0  0  0  0  0  0  0  0
   -3.4825    0.3941    0.0000 Cl  0  0  0  0  0  0  0  0  0  0  0  0
    0.4147    2.6440    0.0000 C   0  0  0  0  0  0  0  0  0  0  0  0
   -0.8844    3.3940    0.0000 C   0  0  0  0  0  0  0  0  0  0  0  0
   -0.8844    4.8940    0.0000 Cl  0  0  0  0  0  0  0  0  0  0  0  0
  1  2  1  0  0  0  0
  3  2  1  0  0  0  0
  2 16  1  0  0  0  0
  3  4  1  0  0  0  0
 10  3  2  0  0  0  0
  4  5  1  0  0  0  0
  5  6  1  0  0  0  0
  6  7  1  0  0  0  0
  7  8  2  0  0  0  0
  7  9  1  0  0  0  0
 11 10  1  0  0  0  0
 12 11  1  0  0  0  0
 11 16  2  0  0  0  0
 13 12  2  0  0  0  0
 14 13  1  0  0  0  0
 13 17  1  0  0  0  0
 15 14  2  0  0  0  0
 16 15  1  0  0  0  0
 17 18  1  0  0  0  0
 17 21  1  0  0  0  0
 18 19  1  0  0  0  0
 19 20  1  0  0  0  0
 21 22  1  0  0  0  0
 22 23  1  0  0  0  0
M  END
> <Inchi_key>
YTKUWDBFDASYHO-UHFFFAOYSA-N

> <Source>
Mulliner

> <ID>
HT0234

> <H_MFHB>
1

> <CAS>


> <Cholestasis>


> <Name>
bendamustine hydrochloride;bendamustine

> <Class>
1


$$$$