
  -INDIGO-08031709442D

 23 25  0  0  0  0  0  0  0  0999 V2000
    4.7936    2.7675    0.0000 S   0  0  0  0  0  0  0  0  0  0  0  0
    5.5435    1.4685    0.0000 C   0  0  0  0  0  0  0  0  0  0  0  0
    4.7936    0.1694    0.0000 C   0  0  0  0  0  0  0  0  0  0  0  0
    3.2936    0.1694    0.0000 N   0  0  0  0  0  0  0  0  0  0  0  0
    2.5434    1.4685    0.0000 C   0  0  0  0  0  0  0  0  0  0  0  0
    3.2936    2.7675    0.0000 C   0  0  0  0  0  0  0  0  0  0  0  0
    2.5434    4.0666    0.0000 C   0  0  0  0  0  0  0  0  0  0  0  0
    1.0435    4.0666    0.0000 C   0  0  0  0  0  0  0  0  0  0  0  0
    0.2935    2.7675    0.0000 C   0  0  0  0  0  0  0  0  0  0  0  0
    1.0435    1.4685    0.0000 C   0  0  0  0  0  0  0  0  0  0  0  0
    2.5434   -1.1296    0.0000 C   0  0  0  0  0  0  0  0  0  0  0  0
    1.0435   -1.1296    0.0000 C   0  0  0  0  0  0  0  0  0  0  0  0
    0.2935   -2.4286    0.0000 C   0  0  0  0  0  0  0  0  0  0  0  0
   -1.2065   -2.4286    0.0000 N   0  0  0  0  0  0  0  0  0  0  0  0
   -1.9565   -1.1296    0.0000 C   0  0  0  0  0  0  0  0  0  0  0  0
   -1.9565   -3.7277    0.0000 C   0  0  0  0  0  0  0  0  0  0  0  0
    0.2935    0.1694    0.0000 C   0  0  0  0  0  0  0  0  0  0  0  0
    5.5435   -1.1296    0.0000 C   0  0  0  0  0  0  0  0  0  0  0  0
    7.0435   -1.1296    0.0000 C   0  0  0  0  0  0  0  0  0  0  0  0
    7.7935    0.1694    0.0000 C   0  0  0  0  0  0  0  0  0  0  0  0
    7.0435    1.4685    0.0000 C   0  0  0  0  0  0  0  0  0  0  0  0
    7.7935   -2.4286    0.0000 C   0  0  0  0  0  0  0  0  0  0  0  0
    8.5435   -3.7277    0.0000 N   0  0  0  0  0  0  0  0  0  0  0  0
  2  1  1  0  0  0  0
  1  6  1  0  0  0  0
  2  3  2  0  0  0  0
 21  2  1  0  0  0  0
  4  3  1  0  0  0  0
  3 18  1  0  0  0  0
  5  4  1  0  0  0  0
  4 11  1  0  0  0  0
  5  6  2  0  0  0  0
 10  5  1  0  0  0  0
  6  7  1  0  0  0  0
  7  8  2  0  0  0  0
  8  9  1  0  0  0  0
  9 10  2  0  0  0  0
 11 12  1  0  0  0  0
 12 13  1  0  0  0  0
 12 17  1  0  0  0  0
 13 14  1  0  0  0  0
 14 15  1  0  0  0  0
 14 16  1  0  0  0  0
 18 19  2  0  0  0  0
 19 20  1  0  0  0  0
 19 22  1  0  0  0  0
 20 21  2  0  0  0  0
 22 23  3  0  0  0  0
M  END
> <Inchi_key>
SLFGIOIONGJGRT-UHFFFAOYSA-N

> <Source>
Kotsampasakou

> <ID>
EK0136

> <H_MFHB>


> <CAS>


> <Cholestasis>
1

> <Name>
cyamemazine

> <Class>
1

$$$$