

  -INDIGO-08031710012D

 41 44  0  0  0  0  0  0  0  0999 V2000
   35.5423   -9.5235    0.0000 C   0  0  0  0  0  0  0  0  0  0  0  0
   34.2433   -8.7735    0.0000 C   0  0  0  0  0  0  0  0  0  0  0  0
   32.9443   -9.5235    0.0000 C   0  0  0  0  0  0  0  0  0  0  0  0
   31.6453   -8.7735    0.0000 C   0  0  0  0  0  0  0  0  0  0  0  0
   30.3463   -9.5235    0.0000 C   0  0  0  0  0  0  0  0  0  0  0  0
   29.0472   -8.7735    0.0000 C   0  0  0  0  0  0  0  0  0  0  0  0
   27.7482   -9.5235    0.0000 C   0  0  0  0  0  0  0  0  0  0  0  0
   26.4492   -8.7735    0.0000 C   0  0  0  0  0  0  0  0  0  0  0  0
   25.1502   -9.5235    0.0000 C   0  0  0  0  0  0  0  0  0  0  0  0
   23.8512   -8.7735    0.0000 C   0  0  0  0  0  0  0  0  0  0  0  0
   23.8512   -7.2736    0.0000 O   0  0  0  0  0  0  0  0  0  0  0  0
   22.5522   -9.5235    0.0000 O   0  0  0  0  0  0  0  0  0  0  0  0
   21.2527   -8.7735    0.0000 C   0  0  0  0  0  0  0  0  0  0  0  0
   19.9537   -9.5235    0.0000 C   0  0  0  0  0  0  0  0  0  0  0  0
   18.6547   -8.7735    0.0000 N   0  0  0  0  0  0  0  0  0  0  0  0
   18.6547   -7.2736    0.0000 C   0  0  0  0  0  0  0  0  0  0  0  0
   17.3557   -6.5234    0.0000 C   0  0  0  0  0  0  0  0  0  0  0  0
   16.0567   -7.2736    0.0000 N   0  0  0  0  0  0  0  0  0  0  0  0
   14.7577   -6.5234    0.0000 C   0  0  0  0  0  0  0  0  0  0  0  0
   13.4587   -7.2736    0.0000 C   0  0  0  0  0  0  0  0  0  0  0  0
   12.1597   -6.5234    0.0000 C   0  0  0  0  0  0  0  0  0  0  0  0
   10.8607   -7.2736    0.0000 N   0  0  0  0  0  0  0  0  0  0  0  0
   10.8607   -8.7735    0.0000 C   0  0  0  0  0  0  0  0  0  0  0  0
   12.1597   -9.5235    0.0000 C   0  0  0  0  0  0  0  0  0  0  0  0
   12.1597  -11.0235    0.0000 C   0  0  0  0  0  0  0  0  0  0  0  0
   10.8607  -11.7735    0.0000 C   0  0  0  0  0  0  0  0  0  0  0  0
    9.5617  -11.0235    0.0000 C   0  0  0  0  0  0  0  0  0  0  0  0
    9.5617   -9.5235    0.0000 C   0  0  0  0  0  0  0  0  0  0  0  0
    8.2626   -8.7735    0.0000 S   0  0  0  0  0  0  0  0  0  0  0  0
    8.2626   -7.2736    0.0000 C   0  0  0  0  0  0  0  0  0  0  0  0
    6.9636   -6.5234    0.0000 C   0  0  0  0  0  0  0  0  0  0  0  0
    6.9636   -5.0234    0.0000 C   0  0  0  0  0  0  0  0  0  0  0  0
    8.2626   -4.2735    0.0000 C   0  0  0  0  0  0  0  0  0  0  0  0
    9.5617   -5.0234    0.0000 C   0  0  0  0  0  0  0  0  0  0  0  0
    9.5617   -6.5234    0.0000 C   0  0  0  0  0  0  0  0  0  0  0  0
    8.2626   -2.7735    0.0000 C   0  0  0  0  0  0  0  0  0  0  0  0
    6.7625   -2.7735    0.0000 F   0  0  0  0  0  0  0  0  0  0  0  0
    9.7623   -2.7735    0.0000 F   0  0  0  0  0  0  0  0  0  0  0  0
    8.2626   -1.2735    0.0000 F   0  0  0  0  0  0  0  0  0  0  0  0
   16.0567   -8.7735    0.0000 C   0  0  0  0  0  0  0  0  0  0  0  0
   17.3557   -9.5235    0.0000 C   0  0  0  0  0  0  0  0  0  0  0  0
  1  2  1  0  0  0  0
  2  3  1  0  0  0  0
  3  4  1  0  0  0  0
  4  5  1  0  0  0  0
  5  6  1  0  0  0  0
  6  7  1  0  0  0  0
  7  8  1  0  0  0  0
  8  9  1  0  0  0  0
  9 10  1  0  0  0  0
 10 11  2  0  0  0  0
 10 12  1  0  0  0  0
 12 13  1  0  0  0  0
 13 14  1  0  0  0  0
 14 15  1  0  0  0  0
 16 15  1  0  0  0  0
 15 41  1  0  0  0  0
 17 16  1  0  0  0  0
 18 17  1  0  0  0  0
 18 19  1  0  0  0  0
 40 18  1  0  0  0  0
 19 20  1  0  0  0  0
 20 21  1  0  0  0  0
 21 22  1  0  0  0  0
 23 22  1  0  0  0  0
 22 35  1  0  0  0  0
 24 23  2  0  0  0  0
 23 28  1  0  0  0  0
 25 24  1  0  0  0  0
 26 25  2  0  0  0  0
 27 26  1  0  0  0  0
 28 27  2  0  0  0  0
 29 28  1  0  0  0  0
 30 29  1  0  0  0  0
 31 30  2  0  0  0  0
 30 35  1  0  0  0  0
 32 31  1  0  0  0  0
 33 32  2  0  0  0  0
 34 33  1  0  0  0  0
 33 36  1  0  0  0  0
 35 34  2  0  0  0  0
 36 37  1  0  0  0  0
 36 38  1  0  0  0  0
 36 39  1  0  0  0  0
 41 40  1  0  0  0  0
M  END
> <Inchi_key>
VIQCGTZFEYDQMR-UHFFFAOYSA-N

> <Source>
Mulliner

> <ID>
HT0913

> <H_MFHB>
1

> <CAS>
5002-47-1

> <Cholestasis>


> <Name>
fluphenazine decanoate

> <Class>
1


$$$$