
  -INDIGO-08031710012D

 17 19  0  0  0  0  0  0  0  0999 V2000
   -0.7012   -0.7013    0.0000 Cl  0  0  0  0  0  0  0  0  0  0  0  0
   -0.7012   -2.2013    0.0000 C   0  0  0  0  0  0  0  0  0  0  0  0
   -2.0003   -2.9513    0.0000 C   0  0  0  0  0  0  0  0  0  0  0  0
   -2.0003   -4.4513    0.0000 C   0  0  0  0  0  0  0  0  0  0  0  0
   -0.7012   -5.2013    0.0000 C   0  0  0  0  0  0  0  0  0  0  0  0
    0.5977   -4.4513    0.0000 C   0  0  0  0  0  0  0  0  0  0  0  0
    0.5977   -2.9513    0.0000 C   0  0  0  0  0  0  0  0  0  0  0  0
    1.8969   -2.2013    0.0000 C   0  0  0  0  0  0  0  0  0  0  0  0
    3.1958   -2.9513    0.0000 N   0  0  0  0  0  0  0  0  0  0  0  0
    3.1958   -4.4513    0.0000 C   0  0  0  0  0  0  0  0  0  0  0  0
    4.4948   -5.2013    0.0000 C   0  0  0  0  0  0  0  0  0  0  0  0
    5.7939   -4.4513    0.0000 C   0  0  0  0  0  0  0  0  0  0  0  0
    7.2204   -4.9148    0.0000 S   0  0  0  0  0  0  0  0  0  0  0  0
    8.1022   -3.7013    0.0000 C   0  0  0  0  0  0  0  0  0  0  0  0
    7.2204   -2.4878    0.0000 C   0  0  0  0  0  0  0  0  0  0  0  0
    5.7939   -2.9513    0.0000 C   0  0  0  0  0  0  0  0  0  0  0  0
    4.4948   -2.2013    0.0000 C   0  0  0  0  0  0  0  0  0  0  0  0
  1  2  1  0  0  0  0
  3  2  2  0  0  0  0
  2  7  1  0  0  0  0
  4  3  1  0  0  0  0
  5  4  2  0  0  0  0
  6  5  1  0  0  0  0
  7  6  2  0  0  0  0
  7  8  1  0  0  0  0
  8  9  1  0  0  0  0
 10  9  1  0  0  0  0
  9 17  1  0  0  0  0
 11 10  1  0  0  0  0
 12 11  1  0  0  0  0
 13 12  1  0  0  0  0
 12 16  2  0  0  0  0
 14 13  1  0  0  0  0
 15 14  2  0  0  0  0
 16 15  1  0  0  0  0
 17 16  1  0  0  0  0
M  END
> <Inchi_key>
PHWBOXQYWZNQIN-UHFFFAOYSA-N

> <Source>
Mulliner , Kotsampasakou

> <ID>
EK0527;HT2058

> <H_MFHB>
1

> <CAS>
53885-35-1;55142-85-3

> <Cholestasis>
1

> <Name>
ticlid;ticlopidine hydrochloride;ticlopidine

> <Class>
1

$$$$