
  -INDIGO-08031710012D

 22 22  0  0  0  0  0  0  0  0999 V2000
   16.2232    4.3470    0.0000 C   0  0  0  0  0  0  0  0  0  0  0  0
   14.9241    3.5971    0.0000 O   0  0  0  0  0  0  0  0  0  0  0  0
   13.6252    4.3470    0.0000 C   0  0  0  0  0  0  0  0  0  0  0  0
   12.3261    3.5971    0.0000 C   0  0  0  0  0  0  0  0  0  0  0  0
   11.0270    4.3470    0.0000 C   0  0  0  0  0  0  0  0  0  0  0  0
    9.7279    3.5971    0.0000 C   0  0  0  0  0  0  0  0  0  0  0  0
    8.4290    4.3470    0.0000 C   0  0  0  0  0  0  0  0  0  0  0  0
    8.4290    5.8470    0.0000 N   0  0  0  0  0  0  0  0  0  0  0  0
    7.1299    6.5970    0.0000 O   0  0  0  0  0  0  0  0  0  0  0  0
    7.1299    8.0970    0.0000 C   0  0  0  0  0  0  0  0  0  0  0  0
    5.8308    8.8470    0.0000 C   0  0  0  0  0  0  0  0  0  0  0  0
    5.8308   10.3470    0.0000 N   0  0  0  0  0  0  0  0  0  0  0  0
    7.1299    3.5971    0.0000 C   0  0  0  0  0  0  0  0  0  0  0  0
    5.8308    4.3470    0.0000 C   0  0  0  0  0  0  0  0  0  0  0  0
    4.5317    3.5971    0.0000 C   0  0  0  0  0  0  0  0  0  0  0  0
    4.5317    2.0970    0.0000 C   0  0  0  0  0  0  0  0  0  0  0  0
    5.8308    1.3469    0.0000 C   0  0  0  0  0  0  0  0  0  0  0  0
    7.1299    2.0970    0.0000 C   0  0  0  0  0  0  0  0  0  0  0  0
    3.2328    1.3469    0.0000 C   0  0  0  0  0  0  0  0  0  0  0  0
    1.9337    0.5970    0.0000 F   0  0  0  0  0  0  0  0  0  0  0  0
    2.4827    2.6460    0.0000 F   0  0  0  0  0  0  0  0  0  0  0  0
    3.9829    0.0479    0.0000 F   0  0  0  0  0  0  0  0  0  0  0  0
  1  2  1  0  0  0  0
  2  3  1  0  0  0  0
  3  4  1  0  0  0  0
  4  5  1  0  0  0  0
  5  6  1  0  0  0  0
  6  7  1  0  0  0  0
  7  8  2  0  0  0  0
  7 13  1  0  0  0  0
  8  9  1  0  0  0  0
  9 10  1  0  0  0  0
 10 11  1  0  0  0  0
 11 12  1  0  0  0  0
 14 13  2  0  0  0  0
 13 18  1  0  0  0  0
 15 14  1  0  0  0  0
 16 15  2  0  0  0  0
 17 16  1  0  0  0  0
 16 19  1  0  0  0  0
 18 17  2  0  0  0  0
 19 20  1  0  0  0  0
 19 21  1  0  0  0  0
 19 22  1  0  0  0  0
M  END
> <Inchi_key>
CJOFXWAVKWHTFT-ZHZULCJRSA-N

> <Source>
Mulliner

> <ID>
HT0927

> <H_MFHB>
1

> <CAS>
61718-82-9

> <Cholestasis>


> <Name>
fluvoxamine maleate;fluvoxamine

> <Class>
1

$$$$