
  -INDIGO-08031710012D

 31 32  0  0  0  0  0  0  0  0999 V2000
   14.9240    9.5937    0.0000 C   0  0  0  0  0  0  0  0  0  0  0  0
   14.3013    8.2291    0.0000 C   0  0  0  0  0  0  0  0  0  0  0  0
   12.8081    8.0862    0.0000 C   0  0  0  0  0  0  0  0  0  0  0  0
   12.1852    6.7217    0.0000 C   0  0  0  0  0  0  0  0  0  0  0  0
   10.7153    6.4233    0.0000 C   0  0  0  0  0  0  0  0  0  0  0  0
   10.5446    4.9330    0.0000 C   0  0  0  0  0  0  0  0  0  0  0  0
   11.9092    4.3103    0.0000 N   0  0  0  0  0  0  0  0  0  0  0  0
   12.2075    2.8402    0.0000 C   0  0  0  0  0  0  0  0  0  0  0  0
   12.9232    5.4156    0.0000 C   0  0  0  0  0  0  0  0  0  0  0  0
    9.2387    4.1951    0.0000 C   0  0  0  0  0  0  0  0  0  0  0  0
    9.2248    2.6951    0.0000 O   0  0  0  0  0  0  0  0  0  0  0  0
    7.9466    4.9571    0.0000 N   0  0  0  0  0  0  0  0  0  0  0  0
    6.6408    4.2191    0.0000 C   0  0  0  0  0  0  0  0  0  0  0  0
    6.6269    2.7192    0.0000 C   0  0  0  0  0  0  0  0  0  0  0  0
    7.9188    1.9573    0.0000 C   0  0  0  0  0  0  0  0  0  0  0  0
    5.3208    1.9813    0.0000 Cl  0  0  0  0  0  0  0  0  0  0  0  0
    5.3487    4.9812    0.0000 C   0  0  0  0  0  0  0  0  0  0  0  0
    4.0428    4.2432    0.0000 O   0  0  0  0  0  0  0  0  0  0  0  0
    2.7507    5.0053    0.0000 C   0  0  0  0  0  0  0  0  0  0  0  0
    1.4449    4.2675    0.0000 S   0  0  0  0  0  0  0  0  0  0  0  0
    1.4310    2.7674    0.0000 C   0  0  0  0  0  0  0  0  0  0  0  0
    2.7646    6.5052    0.0000 C   0  0  0  0  0  0  0  0  0  0  0  0
    1.4727    7.2672    0.0000 O   0  0  0  0  0  0  0  0  0  0  0  0
    1.4866    8.7672    0.0000 P   0  0  0  0  0  0  0  0  0  0  0  0
    2.9864    8.7532    0.0000 O   0  0  0  0  0  0  0  0  0  0  0  0
    1.5005   10.2671    0.0000 O   0  0  0  0  0  0  0  0  0  0  0  0
   -0.0134    8.7811    0.0000 O   0  0  0  0  0  0  0  0  0  0  0  0
    4.0707    7.2432    0.0000 C   0  0  0  0  0  0  0  0  0  0  0  0
    4.0846    8.7431    0.0000 O   0  0  0  0  0  0  0  0  0  0  0  0
    5.3626    6.4811    0.0000 C   0  0  0  0  0  0  0  0  0  0  0  0
    6.6686    7.2191    0.0000 O   0  0  0  0  0  0  0  0  0  0  0  0
  1  2  1  0  0  0  0
  2  3  1  0  0  0  0
  3  4  1  0  0  0  0
  5  4  1  0  0  0  0
  4  9  1  0  0  0  0
  6  5  1  0  0  0  0
  7  6  1  0  0  0  0
  6 10  1  0  0  0  0
  7  8  1  0  0  0  0
  9  7  1  0  0  0  0
 10 11  2  0  0  0  0
 10 12  1  0  0  0  0
 12 13  1  0  0  0  0
 13 14  1  0  0  0  0
 13 17  1  0  0  0  0
 14 15  1  0  0  0  0
 14 16  1  0  0  0  0
 18 17  1  0  0  0  0
 17 30  1  0  0  0  0
 19 18  1  0  0  0  0
 19 20  1  0  0  0  0
 22 19  1  0  0  0  0
 20 21  1  0  0  0  0
 22 23  1  0  0  0  0
 28 22  1  0  0  0  0
 23 24  1  0  0  0  0
 24 25  2  0  0  0  0
 24 26  1  0  0  0  0
 24 27  1  0  0  0  0
 28 29  1  0  0  0  0
 30 28  1  0  0  0  0
 30 31  1  0  0  0  0
M  END
> <Inchi_key>
UFUVLHLTWXBHGZ-UHFFFAOYSA-N

> <Source>
Mulliner

> <ID>
HT0511

> <H_MFHB>
1

> <CAS>


> <Cholestasis>


> <Name>
clindamycin phosphate

> <Class>
1

$$$$