
  -INDIGO-08031710012D

 33 36  0  0  0  0  0  0  0  0999 V2000
   14.7304    0.9854    0.0000 O   0  0  0  0  0  0  0  0  0  0  0  0
   14.3728   -0.4714    0.0000 C   0  0  0  0  0  0  0  0  0  0  0  0
   12.9840   -1.0382    0.0000 C   0  0  0  0  0  0  0  0  0  0  0  0
   13.0940   -2.5342    0.0000 C   0  0  0  0  0  0  0  0  0  0  0  0
   14.5508   -2.8919    0.0000 N   0  0  0  0  0  0  0  0  0  0  0  0
   15.3408   -1.6170    0.0000 N   0  0  0  0  0  0  0  0  0  0  0  0
   16.8370   -1.5070    0.0000 C   0  0  0  0  0  0  0  0  0  0  0  0
   17.4898   -0.1565    0.0000 C   0  0  0  0  0  0  0  0  0  0  0  0
   17.6801   -2.7475    0.0000 C   0  0  0  0  0  0  0  0  0  0  0  0
   18.9856   -0.0465    0.0000 C   0  0  0  0  0  0  0  0  0  0  0  0
   19.1763   -2.6376    0.0000 C   0  0  0  0  0  0  0  0  0  0  0  0
   19.8290   -1.2870    0.0000 C   0  0  0  0  0  0  0  0  0  0  0  0
   20.0194   -3.8781    0.0000 C   0  0  0  0  0  0  0  0  0  0  0  0
   21.3249   -1.1770    0.0000 C   0  0  0  0  0  0  0  0  0  0  0  0
   11.7091   -0.2479    0.0000 N   0  0  0  0  0  0  0  0  0  0  0  0
   10.3873   -0.9568    0.0000 N   0  0  0  0  0  0  0  0  0  0  0  0
    9.1124   -0.1665    0.0000 C   0  0  0  0  0  0  0  0  0  0  0  0
    9.1593    1.3328    0.0000 C   0  0  0  0  0  0  0  0  0  0  0  0
    7.7903   -0.8754    0.0000 C   0  0  0  0  0  0  0  0  0  0  0  0
    7.8844    2.1231    0.0000 C   0  0  0  0  0  0  0  0  0  0  0  0
    6.5154   -0.0851    0.0000 C   0  0  0  0  0  0  0  0  0  0  0  0
    7.7435   -2.3747    0.0000 O   0  0  0  0  0  0  0  0  0  0  0  0
    6.5623    1.4142    0.0000 C   0  0  0  0  0  0  0  0  0  0  0  0
    5.1937   -0.7940    0.0000 C   0  0  0  0  0  0  0  0  0  0  0  0
    5.1465   -2.2933    0.0000 C   0  0  0  0  0  0  0  0  0  0  0  0
    3.9188   -0.0037    0.0000 C   0  0  0  0  0  0  0  0  0  0  0  0
    3.8247   -3.0022    0.0000 C   0  0  0  0  0  0  0  0  0  0  0  0
    2.5967   -0.7126    0.0000 C   0  0  0  0  0  0  0  0  0  0  0  0
    2.5498   -2.2119    0.0000 C   0  0  0  0  0  0  0  0  0  0  0  0
    1.3218    0.0777    0.0000 C   0  0  0  0  0  0  0  0  0  0  0  0
    1.3689    1.5769    0.0000 O   0  0  0  0  0  0  0  0  0  0  0  0
    0.0000   -0.6313    0.0000 O   0  0  0  0  0  0  0  0  0  0  0  0
   11.9483   -3.5025    0.0000 C   0  0  0  0  0  0  0  0  0  0  0  0
  1  2  2  0  0  0  0
  3  2  1  0  0  0  0
  4  3  2  0  0  0  0
  5  4  1  0  0  0  0
  2  6  1  0  0  0  0
  6  7  1  0  0  0  0
  6  5  1  0  0  0  0
  8  7  2  0  0  0  0
  7  9  1  0  0  0  0
 10  8  1  0  0  0  0
  9 11  2  0  0  0  0
 12 10  2  0  0  0  0
 11 12  1  0  0  0  0
 11 13  1  0  0  0  0
 12 14  1  0  0  0  0
  3 15  1  0  0  0  0
 15 16  2  0  0  0  0
 16 17  1  0  0  0  0
 18 17  2  0  0  0  0
 17 19  1  0  0  0  0
 20 18  1  0  0  0  0
 19 21  2  0  0  0  0
 19 22  1  0  0  0  0
 23 20  2  0  0  0  0
 21 23  1  0  0  0  0
 21 24  1  0  0  0  0
 25 24  2  0  0  0  0
 24 26  1  0  0  0  0
 27 25  1  0  0  0  0
 26 28  2  0  0  0  0
 29 27  2  0  0  0  0
 28 29  1  0  0  0  0
 28 30  1  0  0  0  0
 30 31  2  0  0  0  0
 30 32  1  0  0  0  0
  4 33  1  0  0  0  0
M  END
> <Inchi_key>
SVOQIEJWJCQGDQ-CYYJNZCTSA-N

> <Source>
Mulliner

> <ID>
HT0749

> <H_MFHB>
1

> <CAS>


> <Cholestasis>


> <Name>
eltrombopag olamine;eltrombopag

> <Class>
1

$$$$