

  -INDIGO-08031710012D

 29 31  0  0  0  0  0  0  0  0999 V2000
    7.8152   -3.8919    0.0000 C   0  0  0  0  0  0  0  0  0  0  0  0
    8.5075   -5.2225    0.0000 C   0  0  0  0  0  0  0  0  0  0  0  0
    7.7015   -6.4875    0.0000 N   0  0  0  0  0  0  0  0  0  0  0  0
    8.3939   -7.8181    0.0000 C   0  0  0  0  0  0  0  0  0  0  0  0
    9.8925   -7.8837    0.0000 C   0  0  0  0  0  0  0  0  0  0  0  0
    6.2029   -6.4219    0.0000 C   0  0  0  0  0  0  0  0  0  0  0  0
    5.3968   -7.6869    0.0000 C   0  0  0  0  0  0  0  0  0  0  0  0
    3.8982   -7.6213    0.0000 N   0  0  0  0  0  0  0  0  0  0  0  0
    3.0922   -8.8864    0.0000 C   0  0  0  0  0  0  0  0  0  0  0  0
    3.7845  -10.2169    0.0000 O   0  0  0  0  0  0  0  0  0  0  0  0
    1.5935   -8.8206    0.0000 C   0  0  0  0  0  0  0  0  0  0  0  0
    0.6597   -9.9946    0.0000 C   0  0  0  0  0  0  0  0  0  0  0  0
    1.0603  -11.4400    0.0000 C   0  0  0  0  0  0  0  0  0  0  0  0
   -0.7454   -9.4690    0.0000 N   0  0  0  0  0  0  0  0  0  0  0  0
   -0.6798   -7.9705    0.0000 C   0  0  0  0  0  0  0  0  0  0  0  0
   -1.8534   -7.0367    0.0000 C   0  0  0  0  0  0  0  0  0  0  0  0
   -3.2492   -7.5862    0.0000 C   0  0  0  0  0  0  0  0  0  0  0  0
   -4.5142   -6.7801    0.0000 C   0  0  0  0  0  0  0  0  0  0  0  0
   -4.6057   -5.2828    0.0000 O   0  0  0  0  0  0  0  0  0  0  0  0
   -5.6716   -7.7341    0.0000 N   0  0  0  0  0  0  0  0  0  0  0  0
   -5.1221   -9.1299    0.0000 C   0  0  0  0  0  0  0  0  0  0  0  0
   -5.7915  -10.4721    0.0000 C   0  0  0  0  0  0  0  0  0  0  0  0
   -4.9637  -11.7230    0.0000 C   0  0  0  0  0  0  0  0  0  0  0  0
   -3.4665  -11.6316    0.0000 C   0  0  0  0  0  0  0  0  0  0  0  0
   -2.6389  -12.8825    0.0000 F   0  0  0  0  0  0  0  0  0  0  0  0
   -2.7971  -10.2892    0.0000 C   0  0  0  0  0  0  0  0  0  0  0  0
   -3.6249   -9.0384    0.0000 C   0  0  0  0  0  0  0  0  0  0  0  0
    0.7657   -7.5698    0.0000 C   0  0  0  0  0  0  0  0  0  0  0  0
    1.2912   -6.1648    0.0000 C   0  0  0  0  0  0  0  0  0  0  0  0
  1  2  1  0  0  0  0
  2  3  1  0  0  0  0
  3  4  1  0  0  0  0
  3  6  1  0  0  0  0
  4  5  1  0  0  0  0
  6  7  1  0  0  0  0
  7  8  1  0  0  0  0
  8  9  1  0  0  0  0
  9 10  2  0  0  0  0
  9 11  1  0  0  0  0
 12 11  2  0  0  0  0
 11 28  1  0  0  0  0
 12 13  1  0  0  0  0
 14 12  1  0  0  0  0
 15 14  1  0  0  0  0
 15 16  1  0  0  0  0
 28 15  2  0  0  0  0
 16 17  2  0  0  0  0
 18 17  1  0  0  0  0
 17 27  1  0  0  0  0
 18 19  2  0  0  0  0
 20 18  1  0  0  0  0
 21 20  1  0  0  0  0
 22 21  1  0  0  0  0
 21 27  2  0  0  0  0
 23 22  2  0  0  0  0
 24 23  1  0  0  0  0
 24 25  1  0  0  0  0
 26 24  2  0  0  0  0
 27 26  1  0  0  0  0
 28 29  1  0  0  0  0
M  END
> <Inchi_key>
WINHZLLDWRZWRT-SFQUDFHCSA-N

> <Source>
Mulliner

> <ID>
HT1966

> <H_MFHB>
1

> <CAS>
557795-19-4

> <Cholestasis>


> <Name>
sunitinib malate;sunitinib

> <Class>
1


$$$$