
  -INDIGO-08031710012D

 34 35  0  0  0  0  0  0  0  0999 V2000
    5.3766   10.1404    0.0000 C   0  0  0  0  0  0  0  0  0  0  0  0
    4.6265    8.8414    0.0000 C   0  0  0  0  0  0  0  0  0  0  0  0
    5.9255    8.0913    0.0000 C   0  0  0  0  0  0  0  0  0  0  0  0
    3.3276    9.5914    0.0000 C   0  0  0  0  0  0  0  0  0  0  0  0
    3.8765    7.5423    0.0000 C   0  0  0  0  0  0  0  0  0  0  0  0
    2.3766    7.5423    0.0000 O   0  0  0  0  0  0  0  0  0  0  0  0
    4.6265    6.2433    0.0000 O   0  0  0  0  0  0  0  0  0  0  0  0
    3.8765    4.9443    0.0000 C   0  0  0  0  0  0  0  0  0  0  0  0
    4.6265    3.6452    0.0000 O   0  0  0  0  0  0  0  0  0  0  0  0
    3.8765    2.3462    0.0000 P   0  0  0  0  0  0  0  0  0  0  0  0
    3.1264    1.0472    0.0000 O   0  0  0  0  0  0  0  0  0  0  0  0
    5.1757    1.5962    0.0000 C   0  0  0  0  0  0  0  0  0  0  0  0
    6.4747    2.3462    0.0000 O   0  0  0  0  0  0  0  0  0  0  0  0
    7.7737    1.5962    0.0000 C   0  0  0  0  0  0  0  0  0  0  0  0
    9.0727    2.3462    0.0000 C   0  0  0  0  0  0  0  0  0  0  0  0
   10.3716    1.5962    0.0000 N   0  0  0  0  0  0  0  0  0  0  0  0
   10.5284    0.1044    0.0000 C   0  0  0  0  0  0  0  0  0  0  0  0
   11.9956   -0.2075    0.0000 N   0  0  0  0  0  0  0  0  0  0  0  0
   12.7457    1.0915    0.0000 C   0  0  0  0  0  0  0  0  0  0  0  0
   14.2128    1.4035    0.0000 C   0  0  0  0  0  0  0  0  0  0  0  0
   15.2166    0.2888    0.0000 N   0  0  0  0  0  0  0  0  0  0  0  0
   14.6765    2.8300    0.0000 N   0  0  0  0  0  0  0  0  0  0  0  0
   13.6727    3.9448    0.0000 C   0  0  0  0  0  0  0  0  0  0  0  0
   12.2055    3.6329    0.0000 N   0  0  0  0  0  0  0  0  0  0  0  0
   11.7419    2.2063    0.0000 C   0  0  0  0  0  0  0  0  0  0  0  0
    2.5775    3.0962    0.0000 O   0  0  0  0  0  0  0  0  0  0  0  0
    1.2785    2.3462    0.0000 C   0  0  0  0  0  0  0  0  0  0  0  0
   -0.0205    3.0962    0.0000 O   0  0  0  0  0  0  0  0  0  0  0  0
   -1.3197    2.3462    0.0000 C   0  0  0  0  0  0  0  0  0  0  0  0
   -1.3197    0.8462    0.0000 O   0  0  0  0  0  0  0  0  0  0  0  0
   -2.6187    3.0962    0.0000 C   0  0  0  0  0  0  0  0  0  0  0  0
   -1.8686    4.3953    0.0000 C   0  0  0  0  0  0  0  0  0  0  0  0
   -3.3688    1.7972    0.0000 C   0  0  0  0  0  0  0  0  0  0  0  0
   -3.9177    3.8462    0.0000 C   0  0  0  0  0  0  0  0  0  0  0  0
  1  2  1  0  0  0  0
  2  3  1  0  0  0  0
  2  4  1  0  0  0  0
  2  5  1  0  0  0  0
  5  6  2  0  0  0  0
  5  7  1  0  0  0  0
  7  8  1  0  0  0  0
  8  9  1  0  0  0  0
  9 10  1  0  0  0  0
 10 11  2  0  0  0  0
 10 12  1  0  0  0  0
 10 26  1  0  0  0  0
 12 13  1  0  0  0  0
 13 14  1  0  0  0  0
 14 15  1  0  0  0  0
 15 16  1  0  0  0  0
 17 16  1  0  0  0  0
 16 25  1  0  0  0  0
 18 17  2  0  0  0  0
 19 18  1  0  0  0  0
 20 19  1  0  0  0  0
 19 25  2  0  0  0  0
 20 21  1  0  0  0  0
 22 20  2  0  0  0  0
 23 22  1  0  0  0  0
 24 23  2  0  0  0  0
 25 24  1  0  0  0  0
 26 27  1  0  0  0  0
 27 28  1  0  0  0  0
 28 29  1  0  0  0  0
 29 30  2  0  0  0  0
 29 31  1  0  0  0  0
 31 32  1  0  0  0  0
 31 33  1  0  0  0  0
 31 34  1  0  0  0  0
M  END
> <Inchi_key>
WOZSCQDILHKSGG-UHFFFAOYSA-N

> <Source>
Mulliner

> <ID>
HT0072

> <H_MFHB>
1

> <CAS>


> <Cholestasis>


> <Name>
adefovir dipivoxil

> <Class>
1

$$$$