
  -INDIGO-08031710012D

 25 27  0  0  0  0  0  0  0  0999 V2000
   -0.2374   -1.8032    0.0000 C   0  0  0  0  0  0  0  0  0  0  0  0
    1.2116   -2.1914    0.0000 C   0  0  0  0  0  0  0  0  0  0  0  0
    2.2721   -1.1307    0.0000 C   0  0  0  0  0  0  0  0  0  0  0  0
    3.7209   -1.5190    0.0000 N   0  0  0  0  0  0  0  0  0  0  0  0
    4.1094   -2.9679    0.0000 C   0  0  0  0  0  0  0  0  0  0  0  0
    3.0487   -4.0285    0.0000 S   0  0  0  0  0  0  0  0  0  0  0  0
    1.5996   -3.6403    0.0000 C   0  0  0  0  0  0  0  0  0  0  0  0
    5.5582   -2.5796    0.0000 C   0  0  0  0  0  0  0  0  0  0  0  0
    6.8572   -3.3296    0.0000 N   0  0  0  0  0  0  0  0  0  0  0  0
    8.1563   -2.5796    0.0000 C   0  0  0  0  0  0  0  0  0  0  0  0
    8.1563   -1.0796    0.0000 O   0  0  0  0  0  0  0  0  0  0  0  0
    9.4554   -3.3296    0.0000 C   0  0  0  0  0  0  0  0  0  0  0  0
    9.4554   -4.8296    0.0000 N   0  0  0  0  0  0  0  0  0  0  0  0
   10.7542   -2.5796    0.0000 C   0  0  0  0  0  0  0  0  0  0  0  0
   12.0535   -3.3296    0.0000 C   0  0  0  0  0  0  0  0  0  0  0  0
   13.3523   -2.5796    0.0000 C   0  0  0  0  0  0  0  0  0  0  0  0
   13.3523   -1.0796    0.0000 C   0  0  0  0  0  0  0  0  0  0  0  0
   14.6514   -0.3296    0.0000 O   0  0  0  0  0  0  0  0  0  0  0  0
   12.0535   -0.3296    0.0000 C   0  0  0  0  0  0  0  0  0  0  0  0
   10.7542   -1.0796    0.0000 C   0  0  0  0  0  0  0  0  0  0  0  0
    5.1699   -1.1307    0.0000 C   0  0  0  0  0  0  0  0  0  0  0  0
    5.9199    0.1683    0.0000 O   0  0  0  0  0  0  0  0  0  0  0  0
    1.8839    0.3181    0.0000 C   0  0  0  0  0  0  0  0  0  0  0  0
    0.4351    0.7064    0.0000 O   0  0  0  0  0  0  0  0  0  0  0  0
    2.9446    1.3788    0.0000 O   0  0  0  0  0  0  0  0  0  0  0  0
  1  2  1  0  0  0  0
  3  2  2  0  0  0  0
  2  7  1  0  0  0  0
  4  3  1  0  0  0  0
  3 23  1  0  0  0  0
  4  5  1  0  0  0  0
 21  4  1  0  0  0  0
  6  5  1  0  0  0  0
  5  8  1  0  0  0  0
  7  6  1  0  0  0  0
  8  9  1  0  0  0  0
  8 21  1  0  0  0  0
  9 10  1  0  0  0  0
 10 11  2  0  0  0  0
 10 12  1  0  0  0  0
 12 13  1  0  0  0  0
 12 14  1  0  0  0  0
 15 14  2  0  0  0  0
 14 20  1  0  0  0  0
 16 15  1  0  0  0  0
 17 16  2  0  0  0  0
 17 18  1  0  0  0  0
 19 17  1  0  0  0  0
 20 19  2  0  0  0  0
 21 22  2  0  0  0  0
 23 24  2  0  0  0  0
 23 25  1  0  0  0  0
M  END
> <Inchi_key>
BOEGTKLJZSQCCD-UHFFFAOYSA-N

> <Source>
Mulliner , Kotsampasakou

> <ID>
EK0100;HT0395

> <H_MFHB>
1

> <CAS>
50370-12-2

> <Cholestasis>
1

> <Name>
cefadroxil

> <Class>
1

$$$$