
  -INDIGO-08031710012D

 42 48  0  0  0  0  0  0  0  0999 V2000
   -0.6617    2.4695    0.0000 C   0  0  0  0  0  0  0  0  0  0  0  0
    0.6373    3.2196    0.0000 O   0  0  0  0  0  0  0  0  0  0  0  0
    1.9363    2.4695    0.0000 C   0  0  0  0  0  0  0  0  0  0  0  0
    3.2353    3.2196    0.0000 C   0  0  0  0  0  0  0  0  0  0  0  0
    4.5346    2.4695    0.0000 C   0  0  0  0  0  0  0  0  0  0  0  0
    4.5346    0.9694    0.0000 C   0  0  0  0  0  0  0  0  0  0  0  0
    3.2353    0.2195    0.0000 C   0  0  0  0  0  0  0  0  0  0  0  0
    3.2353   -1.2806    0.0000 O   0  0  0  0  0  0  0  0  0  0  0  0
    1.9363   -2.0305    0.0000 C   0  0  0  0  0  0  0  0  0  0  0  0
    1.9363    0.9694    0.0000 C   0  0  0  0  0  0  0  0  0  0  0  0
    0.6373    0.2195    0.0000 O   0  0  0  0  0  0  0  0  0  0  0  0
    5.8336    3.2196    0.0000 C   0  0  0  0  0  0  0  0  0  0  0  0
    7.1326    2.4695    0.0000 C   0  0  0  0  0  0  0  0  0  0  0  0
    8.4315    3.2196    0.0000 C   0  0  0  0  0  0  0  0  0  0  0  0
    9.5463    2.2157    0.0000 C   0  0  0  0  0  0  0  0  0  0  0  0
    8.9361    0.8455    0.0000 O   0  0  0  0  0  0  0  0  0  0  0  0
    7.4444    1.0022    0.0000 C   0  0  0  0  0  0  0  0  0  0  0  0
    6.4407   -0.1124    0.0000 O   0  0  0  0  0  0  0  0  0  0  0  0
    8.4315    4.7194    0.0000 C   0  0  0  0  0  0  0  0  0  0  0  0
    9.7305    5.4696    0.0000 O   0  0  0  0  0  0  0  0  0  0  0  0
   11.0295    4.7194    0.0000 C   0  0  0  0  0  0  0  0  0  0  0  0
   11.0295    3.2196    0.0000 O   0  0  0  0  0  0  0  0  0  0  0  0
   12.3288    2.4695    0.0000 C   0  0  0  0  0  0  0  0  0  0  0  0
   12.3288    0.9694    0.0000 C   0  0  0  0  0  0  0  0  0  0  0  0
   13.6278    0.2195    0.0000 O   0  0  0  0  0  0  0  0  0  0  0  0
   14.9268    0.9694    0.0000 C   0  0  0  0  0  0  0  0  0  0  0  0
   16.2258    0.2195    0.0000 C   0  0  0  0  0  0  0  0  0  0  0  0
   14.9268    2.4695    0.0000 O   0  0  0  0  0  0  0  0  0  0  0  0
   13.6278    3.2196    0.0000 C   0  0  0  0  0  0  0  0  0  0  0  0
   13.6278    4.7194    0.0000 C   0  0  0  0  0  0  0  0  0  0  0  0
   14.9268    5.4696    0.0000 O   0  0  0  0  0  0  0  0  0  0  0  0
   12.3288    5.4696    0.0000 C   0  0  0  0  0  0  0  0  0  0  0  0
   12.3288    6.9694    0.0000 O   0  0  0  0  0  0  0  0  0  0  0  0
    7.1326    5.4696    0.0000 C   0  0  0  0  0  0  0  0  0  0  0  0
    7.1326    6.9694    0.0000 C   0  0  0  0  0  0  0  0  0  0  0  0
    5.8336    7.7195    0.0000 C   0  0  0  0  0  0  0  0  0  0  0  0
    5.5215    9.1868    0.0000 O   0  0  0  0  0  0  0  0  0  0  0  0
    4.0297    9.3435    0.0000 C   0  0  0  0  0  0  0  0  0  0  0  0
    3.4198    7.9733    0.0000 O   0  0  0  0  0  0  0  0  0  0  0  0
    4.5346    6.9694    0.0000 C   0  0  0  0  0  0  0  0  0  0  0  0
    4.5346    5.4696    0.0000 C   0  0  0  0  0  0  0  0  0  0  0  0
    5.8336    4.7194    0.0000 C   0  0  0  0  0  0  0  0  0  0  0  0
  1  2  1  0  0  0  0
  2  3  1  0  0  0  0
  4  3  2  0  0  0  0
  3 10  1  0  0  0  0
  5  4  1  0  0  0  0
  6  5  2  0  0  0  0
  5 12  1  0  0  0  0
  7  6  1  0  0  0  0
  7  8  1  0  0  0  0
 10  7  2  0  0  0  0
  8  9  1  0  0  0  0
 10 11  1  0  0  0  0
 13 12  1  0  0  0  0
 12 42  1  0  0  0  0
 13 14  1  0  0  0  0
 17 13  1  0  0  0  0
 14 15  1  0  0  0  0
 19 14  1  0  0  0  0
 15 16  1  0  0  0  0
 16 17  1  0  0  0  0
 17 18  2  0  0  0  0
 19 20  1  0  0  0  0
 34 19  1  0  0  0  0
 20 21  1  0  0  0  0
 22 21  1  0  0  0  0
 21 32  1  0  0  0  0
 23 22  1  0  0  0  0
 24 23  1  0  0  0  0
 23 29  1  0  0  0  0
 25 24  1  0  0  0  0
 26 25  1  0  0  0  0
 26 27  1  0  0  0  0
 28 26  1  0  0  0  0
 29 28  1  0  0  0  0
 30 29  1  0  0  0  0
 30 31  1  0  0  0  0
 32 30  1  0  0  0  0
 32 33  1  0  0  0  0
 35 34  1  0  0  0  0
 34 42  2  0  0  0  0
 36 35  2  0  0  0  0
 37 36  1  0  0  0  0
 36 40  1  0  0  0  0
 38 37  1  0  0  0  0
 39 38  1  0  0  0  0
 40 39  1  0  0  0  0
 41 40  2  0  0  0  0
 42 41  1  0  0  0  0
M  END
> <Inchi_key>
VJJPUSNTGOMMGY-UHFFFAOYSA-N

> <Source>
Mulliner

> <ID>
HT0831

> <H_MFHB>
1

> <CAS>


> <Cholestasis>


> <Name>
etoposide

> <Class>
1

$$$$