

  -INDIGO-08031710012D

 22 22  0  0  0  0  0  0  0  0999 V2000
    2.4796   -2.4795    0.0000 C   0  0  0  0  0  0  0  0  0  0  0  0
    2.4796   -0.9795    0.0000 C   0  0  0  0  0  0  0  0  0  0  0  0
    3.7784   -0.2295    0.0000 C   0  0  0  0  0  0  0  0  0  0  0  0
    5.0775   -0.9795    0.0000 C   0  0  0  0  0  0  0  0  0  0  0  0
    6.3766   -0.2295    0.0000 C   0  0  0  0  0  0  0  0  0  0  0  0
    7.6757   -0.9795    0.0000 C   0  0  0  0  0  0  0  0  0  0  0  0
    8.9746   -0.2295    0.0000 C   0  0  0  0  0  0  0  0  0  0  0  0
    8.9746    1.2705    0.0000 C   0  0  0  0  0  0  0  0  0  0  0  0
    7.6757    2.0205    0.0000 O   0  0  0  0  0  0  0  0  0  0  0  0
   10.2737    2.0205    0.0000 O   0  0  0  0  0  0  0  0  0  0  0  0
    7.6757   -2.4795    0.0000 C   0  0  0  0  0  0  0  0  0  0  0  0
    1.1805   -0.2295    0.0000 C   0  0  0  0  0  0  0  0  0  0  0  0
   -0.1186   -0.9795    0.0000 C   0  0  0  0  0  0  0  0  0  0  0  0
   -1.4175   -0.2295    0.0000 C   0  0  0  0  0  0  0  0  0  0  0  0
   -1.4175    1.2705    0.0000 C   0  0  0  0  0  0  0  0  0  0  0  0
   -0.1186    2.0205    0.0000 C   0  0  0  0  0  0  0  0  0  0  0  0
   -2.7166    2.0205    0.0000 C   0  0  0  0  0  0  0  0  0  0  0  0
   -4.0157    1.2705    0.0000 C   0  0  0  0  0  0  0  0  0  0  0  0
   -4.0157   -0.2295    0.0000 C   0  0  0  0  0  0  0  0  0  0  0  0
   -2.7166   -0.9795    0.0000 C   0  0  0  0  0  0  0  0  0  0  0  0
   -3.4667   -2.2785    0.0000 C   0  0  0  0  0  0  0  0  0  0  0  0
   -1.9668   -2.2785    0.0000 C   0  0  0  0  0  0  0  0  0  0  0  0
  1  2  1  0  0  0  0
  2  3  2  0  0  0  0
  2 12  1  0  0  0  0
  3  4  1  0  0  0  0
  4  5  2  0  0  0  0
  5  6  1  0  0  0  0
  6  7  2  0  0  0  0
  6 11  1  0  0  0  0
  7  8  1  0  0  0  0
  8  9  2  0  0  0  0
  8 10  1  0  0  0  0
 12 13  2  0  0  0  0
 13 14  1  0  0  0  0
 15 14  2  0  0  0  0
 14 20  1  0  0  0  0
 15 16  1  0  0  0  0
 17 15  1  0  0  0  0
 18 17  1  0  0  0  0
 19 18  1  0  0  0  0
 20 19  1  0  0  0  0
 20 21  1  0  0  0  0
 20 22  1  0  0  0  0
M  END
> <Inchi_key>
SHGAZHPCJJPHSC-XFYACQKRSA-N

> <Source>
Mulliner

> <ID>
HT1143

> <H_MFHB>
1

> <CAS>
4759-48-2;302-79-4

> <Cholestasis>


> <Name>
isotretinoin;tretinoin;alitretinoin

> <Class>
1


$$$$