

  -INDIGO-08031710012D

 23 25  0  0  0  0  0  0  0  0999 V2000
    2.2410    1.2995    0.0000 C   0  0  0  0  0  0  0  0  0  0  0  0
    1.4958   -0.0024    0.0000 N   0  0  0  0  0  0  0  0  0  0  0  0
    2.2507   -1.2986    0.0000 C   0  0  0  0  0  0  0  0  0  0  0  0
    1.5058   -2.6004    0.0000 C   0  0  0  0  0  0  0  0  0  0  0  0
    2.2607   -3.8966    0.0000 O   0  0  0  0  0  0  0  0  0  0  0  0
    0.0057   -2.6061    0.0000 C   0  0  0  0  0  0  0  0  0  0  0  0
   -0.7393   -3.9080    0.0000 C   0  0  0  0  0  0  0  0  0  0  0  0
   -2.2393   -3.9137    0.0000 C   0  0  0  0  0  0  0  0  0  0  0  0
   -2.9942   -2.6175    0.0000 C   0  0  0  0  0  0  0  0  0  0  0  0
   -2.2492   -1.3156    0.0000 C   0  0  0  0  0  0  0  0  0  0  0  0
   -0.7492   -1.3099    0.0000 C   0  0  0  0  0  0  0  0  0  0  0  0
   -0.0040   -0.0081    0.0000 S   0  0  0  0  0  0  0  0  0  0  0  0
   -1.3060    0.7370    0.0000 O   0  0  0  0  0  0  0  0  0  0  0  0
   -0.0098    1.4919    0.0000 O   0  0  0  0  0  0  0  0  0  0  0  0
    3.7508   -1.2929    0.0000 C   0  0  0  0  0  0  0  0  0  0  0  0
    4.4959    0.0090    0.0000 O   0  0  0  0  0  0  0  0  0  0  0  0
    4.5057   -2.5891    0.0000 N   0  0  0  0  0  0  0  0  0  0  0  0
    6.0057   -2.5834    0.0000 C   0  0  0  0  0  0  0  0  0  0  0  0
    6.8828   -1.3665    0.0000 N   0  0  0  0  0  0  0  0  0  0  0  0
    8.3111   -1.8247    0.0000 C   0  0  0  0  0  0  0  0  0  0  0  0
    8.3169   -3.3247    0.0000 C   0  0  0  0  0  0  0  0  0  0  0  0
    9.5336   -4.2017    0.0000 C   0  0  0  0  0  0  0  0  0  0  0  0
    6.8919   -3.7936    0.0000 S   0  0  0  0  0  0  0  0  0  0  0  0
  1  2  1  0  0  0  0
  3  2  1  0  0  0  0
  2 12  1  0  0  0  0
  4  3  2  0  0  0  0
  3 15  1  0  0  0  0
  4  5  1  0  0  0  0
  6  4  1  0  0  0  0
  7  6  1  0  0  0  0
  6 11  2  0  0  0  0
  8  7  2  0  0  0  0
  9  8  1  0  0  0  0
 10  9  2  0  0  0  0
 11 10  1  0  0  0  0
 12 11  1  0  0  0  0
 12 13  2  0  0  0  0
 12 14  2  0  0  0  0
 15 16  2  0  0  0  0
 15 17  1  0  0  0  0
 17 18  1  0  0  0  0
 19 18  2  0  0  0  0
 18 23  1  0  0  0  0
 20 19  1  0  0  0  0
 21 20  2  0  0  0  0
 21 22  1  0  0  0  0
 23 21  1  0  0  0  0
M  END
> <Inchi_key>
ZRVUJXDFFKFLMG-UHFFFAOYSA-N

> <Source>
Mulliner

> <ID>
HT1295

> <H_MFHB>
1

> <CAS>


> <Cholestasis>


> <Name>
meloxicam

> <Class>
1


$$$$