

  -INDIGO-08031710012D

 26 28  0  0  0  0  0  0  0  0999 V2000
    0.3341   -1.2666    0.0000 C   0  0  0  0  0  0  0  0  0  0  0  0
    1.6389   -0.5265    0.0000 O   0  0  0  0  0  0  0  0  0  0  0  0
    1.6505    0.9734    0.0000 C   0  0  0  0  0  0  0  0  0  0  0  0
    0.3573    1.7334    0.0000 C   0  0  0  0  0  0  0  0  0  0  0  0
    0.3688    3.2333    0.0000 C   0  0  0  0  0  0  0  0  0  0  0  0
    1.6735    3.9733    0.0000 C   0  0  0  0  0  0  0  0  0  0  0  0
    2.9668    3.2134    0.0000 C   0  0  0  0  0  0  0  0  0  0  0  0
    4.2716    3.9533    0.0000 O   0  0  0  0  0  0  0  0  0  0  0  0
    4.2831    5.4533    0.0000 C   0  0  0  0  0  0  0  0  0  0  0  0
    2.9551    1.7135    0.0000 C   0  0  0  0  0  0  0  0  0  0  0  0
    4.2486    0.9534    0.0000 C   0  0  0  0  0  0  0  0  0  0  0  0
    4.2369   -0.5465    0.0000 O   0  0  0  0  0  0  0  0  0  0  0  0
    5.5532    1.6934    0.0000 N   0  0  0  0  0  0  0  0  0  0  0  0
    6.8465    0.9334    0.0000 C   0  0  0  0  0  0  0  0  0  0  0  0
    8.2984    1.3105    0.0000 C   0  0  0  0  0  0  0  0  0  0  0  0
    9.5625    2.1178    0.0000 S   0  0  0  0  0  0  0  0  0  0  0  0
   10.7209    1.1649    0.0000 C   0  0  0  0  0  0  0  0  0  0  0  0
   11.7475    2.2585    0.0000 C   0  0  0  0  0  0  0  0  0  0  0  0
   12.1650    0.7592    0.0000 C   0  0  0  0  0  0  0  0  0  0  0  0
   10.1728   -0.2313    0.0000 C   0  0  0  0  0  0  0  0  0  0  0  0
    8.6755   -0.1413    0.0000 N   0  0  0  0  0  0  0  0  0  0  0  0
    7.2236   -0.5185    0.0000 C   0  0  0  0  0  0  0  0  0  0  0  0
    6.4636   -1.8116    0.0000 O   0  0  0  0  0  0  0  0  0  0  0  0
   10.9800   -1.4956    0.0000 C   0  0  0  0  0  0  0  0  0  0  0  0
   12.4784   -1.4287    0.0000 O   0  0  0  0  0  0  0  0  0  0  0  0
   10.2888   -2.8268    0.0000 O   0  0  0  0  0  0  0  0  0  0  0  0
  1  2  1  0  0  0  0
  2  3  1  0  0  0  0
  4  3  2  0  0  0  0
  3 10  1  0  0  0  0
  5  4  1  0  0  0  0
  6  5  2  0  0  0  0
  7  6  1  0  0  0  0
  7  8  1  0  0  0  0
 10  7  2  0  0  0  0
  8  9  1  0  0  0  0
 10 11  1  0  0  0  0
 11 12  2  0  0  0  0
 11 13  1  0  0  0  0
 13 14  1  0  0  0  0
 15 14  1  0  0  0  0
 14 22  1  0  0  0  0
 16 15  1  0  0  0  0
 15 21  1  0  0  0  0
 17 16  1  0  0  0  0
 17 18  1  0  0  0  0
 17 19  1  0  0  0  0
 20 17  1  0  0  0  0
 21 20  1  0  0  0  0
 20 24  1  0  0  0  0
 22 21  1  0  0  0  0
 22 23  2  0  0  0  0
 24 25  2  0  0  0  0
 24 26  1  0  0  0  0
M  END
> <Inchi_key>
RJQXTJLFIWVMTO-UHFFFAOYSA-N

> <Source>
Mulliner

> <ID>
HT1342

> <H_MFHB>
1

> <CAS>


> <Cholestasis>


> <Name>
methicillin sodium;meticillin;methicillin

> <Class>
1


$$$$