

  -INDIGO-08031710012D

 33 36  0  0  0  0  0  0  0  0999 V2000
   -1.3936    2.6687    0.0000 C   0  0  0  0  0  0  0  0  0  0  0  0
   -0.5365    3.8997    0.0000 C   0  0  0  0  0  0  0  0  0  0  0  0
    0.2167    2.6026    0.0000 C   0  0  0  0  0  0  0  0  0  0  0  0
    1.7167    2.6066    0.0000 C   0  0  0  0  0  0  0  0  0  0  0  0
    2.4632    3.9077    0.0000 C   0  0  0  0  0  0  0  0  0  0  0  0
    1.7098    5.2047    0.0000 C   0  0  0  0  0  0  0  0  0  0  0  0
    2.4563    6.5057    0.0000 C   0  0  0  0  0  0  0  0  0  0  0  0
    3.9563    6.5097    0.0000 C   0  0  0  0  0  0  0  0  0  0  0  0
    4.7098    5.2127    0.0000 C   0  0  0  0  0  0  0  0  0  0  0  0
    6.2098    5.2167    0.0000 C   0  0  0  0  0  0  0  0  0  0  0  0
    6.9633    3.9196    0.0000 C   0  0  0  0  0  0  0  0  0  0  0  0
    8.4633    3.9236    0.0000 O   0  0  0  0  0  0  0  0  0  0  0  0
    9.2168    2.6266    0.0000 C   0  0  0  0  0  0  0  0  0  0  0  0
    8.4702    1.3256    0.0000 O   0  0  0  0  0  0  0  0  0  0  0  0
   10.7168    2.6306    0.0000 N   0  0  0  0  0  0  0  0  0  0  0  0
   11.4633    3.9316    0.0000 C   0  0  0  0  0  0  0  0  0  0  0  0
   12.9633    3.9356    0.0000 C   0  0  0  0  0  0  0  0  0  0  0  0
   13.7099    5.2366    0.0000 Cl  0  0  0  0  0  0  0  0  0  0  0  0
   11.4702    1.3335    0.0000 C   0  0  0  0  0  0  0  0  0  0  0  0
   12.9702    1.3375    0.0000 C   0  0  0  0  0  0  0  0  0  0  0  0
   13.7237    0.0405    0.0000 Cl  0  0  0  0  0  0  0  0  0  0  0  0
    6.2167    2.6186    0.0000 C   0  0  0  0  0  0  0  0  0  0  0  0
    4.7167    2.6146    0.0000 C   0  0  0  0  0  0  0  0  0  0  0  0
    3.9633    3.9116    0.0000 C   0  0  0  0  0  0  0  0  0  0  0  0
    0.2098    5.2007    0.0000 C   0  0  0  0  0  0  0  0  0  0  0  0
   -0.7967    6.3127    0.0000 C   0  0  0  0  0  0  0  0  0  0  0  0
   -2.1654    5.6990    0.0000 C   0  0  0  0  0  0  0  0  0  0  0  0
   -2.0046    4.2076    0.0000 C   0  0  0  0  0  0  0  0  0  0  0  0
   -3.1166    3.2010    0.0000 O   0  0  0  0  0  0  0  0  0  0  0  0
   -4.5445    3.6607    0.0000 P   0  0  0  0  0  0  0  0  0  0  0  0
   -5.0044    2.2329    0.0000 O   0  0  0  0  0  0  0  0  0  0  0  0
   -5.9724    4.1204    0.0000 O   0  0  0  0  0  0  0  0  0  0  0  0
   -4.0847    5.0885    0.0000 O   0  0  0  0  0  0  0  0  0  0  0  0
  1  2  1  0  0  0  0
  3  2  1  0  0  0  0
 25  2  1  0  0  0  0
  2 28  1  0  0  0  0
  4  3  1  0  0  0  0
  5  4  1  0  0  0  0
  5  6  1  0  0  0  0
 24  5  1  0  0  0  0
  6  7  1  0  0  0  0
 25  6  1  0  0  0  0
  7  8  1  0  0  0  0
  8  9  1  0  0  0  0
 10  9  2  0  0  0  0
  9 24  1  0  0  0  0
 11 10  1  0  0  0  0
 11 12  1  0  0  0  0
 22 11  2  0  0  0  0
 12 13  1  0  0  0  0
 13 14  2  0  0  0  0
 13 15  1  0  0  0  0
 15 16  1  0  0  0  0
 15 19  1  0  0  0  0
 16 17  1  0  0  0  0
 17 18  1  0  0  0  0
 19 20  1  0  0  0  0
 20 21  1  0  0  0  0
 23 22  1  0  0  0  0
 24 23  2  0  0  0  0
 26 25  1  0  0  0  0
 27 26  1  0  0  0  0
 28 27  1  0  0  0  0
 28 29  1  0  0  0  0
 29 30  1  0  0  0  0
 30 31  2  0  0  0  0
 30 32  1  0  0  0  0
 30 33  1  0  0  0  0
M  END
> <Inchi_key>
ADFOJJHRTBFFOF-UHFFFAOYSA-N

> <Source>
Mulliner

> <ID>
HT0796

> <H_MFHB>
1

> <CAS>
4891-15-0;52205-73-9

> <Cholestasis>


> <Name>
estramustine phosphate sodium

> <Class>
1


$$$$