

  -INDIGO-08031710012D

 30 31  0  0  0  0  0  0  0  0999 V2000
    4.6775   10.3466    0.0000 C   0  0  0  0  0  0  0  0  0  0  0  0
    3.3785    9.5966    0.0000 C   0  0  0  0  0  0  0  0  0  0  0  0
    3.3785    8.0967    0.0000 C   0  0  0  0  0  0  0  0  0  0  0  0
    4.6775    7.3465    0.0000 C   0  0  0  0  0  0  0  0  0  0  0  0
    2.0796    7.3465    0.0000 C   0  0  0  0  0  0  0  0  0  0  0  0
    0.7806    8.0967    0.0000 O   0  0  0  0  0  0  0  0  0  0  0  0
    2.0796    5.8466    0.0000 O   0  0  0  0  0  0  0  0  0  0  0  0
    0.7806    5.0966    0.0000 C   0  0  0  0  0  0  0  0  0  0  0  0
   -0.5184    5.8466    0.0000 C   0  0  0  0  0  0  0  0  0  0  0  0
   -1.8176    5.0966    0.0000 C   0  0  0  0  0  0  0  0  0  0  0  0
   -3.1166    5.8466    0.0000 O   0  0  0  0  0  0  0  0  0  0  0  0
   -1.8176    3.5967    0.0000 C   0  0  0  0  0  0  0  0  0  0  0  0
   -0.5184    2.8465    0.0000 C   0  0  0  0  0  0  0  0  0  0  0  0
   -0.5184    1.3466    0.0000 C   0  0  0  0  0  0  0  0  0  0  0  0
    0.7806    0.5966    0.0000 C   0  0  0  0  0  0  0  0  0  0  0  0
    2.0796    1.3466    0.0000 C   0  0  0  0  0  0  0  0  0  0  0  0
    3.3785    0.5966    0.0000 C   0  0  0  0  0  0  0  0  0  0  0  0
    2.0796    2.8465    0.0000 C   0  0  0  0  0  0  0  0  0  0  0  0
    3.3785    3.5967    0.0000 C   0  0  0  0  0  0  0  0  0  0  0  0
    4.6775    2.8465    0.0000 C   0  0  0  0  0  0  0  0  0  0  0  0
    5.9768    3.5967    0.0000 C   0  0  0  0  0  0  0  0  0  0  0  0
    5.9768    5.0966    0.0000 O   0  0  0  0  0  0  0  0  0  0  0  0
    7.2757    2.8465    0.0000 C   0  0  0  0  0  0  0  0  0  0  0  0
    8.5747    3.5967    0.0000 C   0  0  0  0  0  0  0  0  0  0  0  0
    8.5747    5.0966    0.0000 O   0  0  0  0  0  0  0  0  0  0  0  0
    9.8737    2.8465    0.0000 C   0  0  0  0  0  0  0  0  0  0  0  0
   11.1729    3.5967    0.0000 C   0  0  0  0  0  0  0  0  0  0  0  0
   12.4719    2.8465    0.0000 O   0  0  0  0  0  0  0  0  0  0  0  0
   11.1729    5.0966    0.0000 O   0  0  0  0  0  0  0  0  0  0  0  0
    0.7806    3.5967    0.0000 C   0  0  0  0  0  0  0  0  0  0  0  0
  1  2  1  0  0  0  0
  2  3  1  0  0  0  0
  3  4  1  0  0  0  0
  3  5  1  0  0  0  0
  5  6  2  0  0  0  0
  5  7  1  0  0  0  0
  7  8  1  0  0  0  0
  9  8  1  0  0  0  0
  8 30  1  0  0  0  0
 10  9  1  0  0  0  0
 10 11  1  0  0  0  0
 12 10  1  0  0  0  0
 13 12  2  0  0  0  0
 14 13  1  0  0  0  0
 13 30  1  0  0  0  0
 15 14  2  0  0  0  0
 16 15  1  0  0  0  0
 16 17  1  0  0  0  0
 18 16  1  0  0  0  0
 18 19  1  0  0  0  0
 30 18  1  0  0  0  0
 19 20  1  0  0  0  0
 20 21  1  0  0  0  0
 21 22  1  0  0  0  0
 21 23  1  0  0  0  0
 23 24  1  0  0  0  0
 24 25  1  0  0  0  0
 24 26  1  0  0  0  0
 26 27  1  0  0  0  0
 27 28  2  0  0  0  0
 27 29  1  0  0  0  0
M  END
> <Inchi_key>
TUZYXOIXSAXUGO-UHFFFAOYSA-N

> <Source>
Mulliner

> <ID>
HT1725

> <H_MFHB>
1

> <CAS>


> <Cholestasis>


> <Name>
pravastatin sodium;pravastatin

> <Class>
1


$$$$