

  -INDIGO-08031710012D

 14 15  0  0  0  0  0  0  0  0999 V2000
    0.0029   -0.0398    0.0000 C   0  0  0  0  0  0  0  0  0  0  0  0
    1.5029   -0.0256    0.0000 N   0  0  0  0  0  0  0  0  0  0  0  0
    2.2652   -1.3174    0.0000 N   0  0  0  0  0  0  0  0  0  0  0  0
    3.7650   -1.3032    0.0000 N   0  0  0  0  0  0  0  0  0  0  0  0
    4.5026    0.0029    0.0000 C   0  0  0  0  0  0  0  0  0  0  0  0
    5.9669    0.3287    0.0000 C   0  0  0  0  0  0  0  0  0  0  0  0
    6.1095    1.8219    0.0000 N   0  0  0  0  0  0  0  0  0  0  0  0
    4.7335    2.4190    0.0000 C   0  0  0  0  0  0  0  0  0  0  0  0
    3.7404    1.2948    0.0000 N   0  0  0  0  0  0  0  0  0  0  0  0
    2.2405    1.2805    0.0000 C   0  0  0  0  0  0  0  0  0  0  0  0
    1.4782    2.5724    0.0000 O   0  0  0  0  0  0  0  0  0  0  0  0
    7.0911   -0.6644    0.0000 C   0  0  0  0  0  0  0  0  0  0  0  0
    8.5132   -0.1873    0.0000 O   0  0  0  0  0  0  0  0  0  0  0  0
    6.7932   -2.1345    0.0000 N   0  0  0  0  0  0  0  0  0  0  0  0
  1  2  1  0  0  0  0
  3  2  1  0  0  0  0
  2 10  1  0  0  0  0
  4  3  2  0  0  0  0
  5  4  1  0  0  0  0
  6  5  2  0  0  0  0
  5  9  1  0  0  0  0
  7  6  1  0  0  0  0
  6 12  1  0  0  0  0
  8  7  2  0  0  0  0
  9  8  1  0  0  0  0
 10  9  1  0  0  0  0
 10 11  2  0  0  0  0
 12 13  2  0  0  0  0
 12 14  1  0  0  0  0
M  END
> <Inchi_key>
BPEGJWRSRHCHSN-UHFFFAOYSA-N

> <Source>
Mulliner , Kotsampasakou

> <ID>
EK0507;HT1999

> <H_MFHB>
1

> <CAS>


> <Cholestasis>
1

> <Name>
temozolomide

> <Class>
1


$$$$