
  -INDIGO-08031710012D

 10  9  0  0  0  0  0  0  0  0999 V2000
   -0.2422   -1.9539    0.0000 C   0  0  0  0  0  0  0  0  0  0  0  0
    1.0568   -1.2039    0.0000 C   0  0  0  0  0  0  0  0  0  0  0  0
    1.0568    0.2961    0.0000 S   0  0  0  0  0  0  0  0  0  0  0  0
    2.3559   -1.9539    0.0000 C   0  0  0  0  0  0  0  0  0  0  0  0
    2.3559   -3.4539    0.0000 O   0  0  0  0  0  0  0  0  0  0  0  0
    3.6550   -1.2039    0.0000 N   0  0  0  0  0  0  0  0  0  0  0  0
    4.9539   -1.9539    0.0000 C   0  0  0  0  0  0  0  0  0  0  0  0
    6.2530   -1.2039    0.0000 C   0  0  0  0  0  0  0  0  0  0  0  0
    7.5520   -1.9539    0.0000 O   0  0  0  0  0  0  0  0  0  0  0  0
    6.2530    0.2961    0.0000 O   0  0  0  0  0  0  0  0  0  0  0  0
  1  2  1  0  0  0  0
  2  3  1  0  0  0  0
  2  4  1  0  0  0  0
  4  5  2  0  0  0  0
  4  6  1  0  0  0  0
  6  7  1  0  0  0  0
  7  8  1  0  0  0  0
  8  9  2  0  0  0  0
  8 10  1  0  0  0  0
M  END
> <Inchi_key>
YTGJWQPHMWSCST-UHFFFAOYSA-N

> <Source>
Mulliner , Kotsampasakou

> <ID>
EK0532;HT2067

> <H_MFHB>
1

> <CAS>


> <Cholestasis>
1

> <Name>
tiopronin

> <Class>
1

$$$$