
  -INDIGO-08031710012D

 11 12  0  0  0  0  0  0  0  0999 V2000
    6.7622   -1.4608    0.0000 N   0  0  0  0  0  0  0  0  0  0  0  0
    5.4632   -0.7108    0.0000 C   0  0  0  0  0  0  0  0  0  0  0  0
    5.4632    0.7892    0.0000 N   0  0  0  0  0  0  0  0  0  0  0  0
    4.1641    1.5392    0.0000 C   0  0  0  0  0  0  0  0  0  0  0  0
    4.1641    3.0392    0.0000 S   0  0  0  0  0  0  0  0  0  0  0  0
    2.8651    0.7892    0.0000 C   0  0  0  0  0  0  0  0  0  0  0  0
    1.4385    1.2527    0.0000 N   0  0  0  0  0  0  0  0  0  0  0  0
    0.5568    0.0392    0.0000 C   0  0  0  0  0  0  0  0  0  0  0  0
    1.4385   -1.1743    0.0000 N   0  0  0  0  0  0  0  0  0  0  0  0
    2.8651   -0.7108    0.0000 C   0  0  0  0  0  0  0  0  0  0  0  0
    4.1641   -1.4608    0.0000 N   0  0  0  0  0  0  0  0  0  0  0  0
  1  2  1  0  0  0  0
  3  2  2  0  0  0  0
  2 11  1  0  0  0  0
  4  3  1  0  0  0  0
  4  5  1  0  0  0  0
  6  4  2  0  0  0  0
  7  6  1  0  0  0  0
  6 10  1  0  0  0  0
  8  7  1  0  0  0  0
  9  8  2  0  0  0  0
 10  9  1  0  0  0  0
 11 10  2  0  0  0  0
M  END
> <Inchi_key>
WYWHKKSPHMUBEB-UHFFFAOYSA-N

> <Source>
Mulliner

> <ID>
HT2042

> <H_MFHB>
1

> <CAS>


> <Cholestasis>


> <Name>
thioguanine

> <Class>
1

$$$$