
  -INDIGO-08031710012D

 27 31  0  0  0  0  0  0  0  0999 V2000
   -1.0772    2.0608    0.0000 C   0  0  0  0  0  0  0  0  0  0  0  0
   -0.2213    3.2925    0.0000 C   0  0  0  0  0  0  0  0  0  0  0  0
    0.5333    1.9961    0.0000 C   0  0  0  0  0  0  0  0  0  0  0  0
    2.0332    2.0013    0.0000 C   0  0  0  0  0  0  0  0  0  0  0  0
    2.7787    3.3029    0.0000 C   0  0  0  0  0  0  0  0  0  0  0  0
    2.0241    4.5994    0.0000 C   0  0  0  0  0  0  0  0  0  0  0  0
    2.7697    5.9010    0.0000 C   0  0  0  0  0  0  0  0  0  0  0  0
    4.2696    5.9062    0.0000 C   0  0  0  0  0  0  0  0  0  0  0  0
    5.0242    4.6098    0.0000 C   0  0  0  0  0  0  0  0  0  0  0  0
    6.5243    4.6150    0.0000 C   0  0  0  0  0  0  0  0  0  0  0  0
    7.2787    3.3186    0.0000 C   0  0  0  0  0  0  0  0  0  0  0  0
    8.7788    3.3238    0.0000 O   0  0  0  0  0  0  0  0  0  0  0  0
    9.5331    2.0274    0.0000 C   0  0  0  0  0  0  0  0  0  0  0  0
    8.9279    0.6550    0.0000 C   0  0  0  0  0  0  0  0  0  0  0  0
   10.0461   -0.3449    0.0000 C   0  0  0  0  0  0  0  0  0  0  0  0
   11.3425    0.4097    0.0000 C   0  0  0  0  0  0  0  0  0  0  0  0
   11.0255    1.8758    0.0000 C   0  0  0  0  0  0  0  0  0  0  0  0
    6.5331    2.0170    0.0000 C   0  0  0  0  0  0  0  0  0  0  0  0
    5.0332    2.0117    0.0000 C   0  0  0  0  0  0  0  0  0  0  0  0
    4.2786    3.3082    0.0000 C   0  0  0  0  0  0  0  0  0  0  0  0
    0.5242    4.5941    0.0000 C   0  0  0  0  0  0  0  0  0  0  0  0
   -0.4832    5.7054    0.0000 C   0  0  0  0  0  0  0  0  0  0  0  0
   -1.8516    5.0905    0.0000 C   0  0  0  0  0  0  0  0  0  0  0  0
   -1.6895    3.5993    0.0000 C   0  0  0  0  0  0  0  0  0  0  0  0
   -2.1730    2.1793    0.0000 O   0  0  0  0  0  0  0  0  0  0  0  0
   -3.1704    3.3595    0.0000 C   0  0  0  0  0  0  0  0  0  0  0  0
   -4.6510    3.1197    0.0000 C   0  0  0  0  0  0  0  0  0  0  0  0
  1  2  1  0  0  0  0
  3  2  1  0  0  0  0
 21  2  1  0  0  0  0
  2 24  1  0  0  0  0
  4  3  1  0  0  0  0
  5  4  1  0  0  0  0
  5  6  1  0  0  0  0
 20  5  1  0  0  0  0
  6  7  1  0  0  0  0
 21  6  1  0  0  0  0
  7  8  1  0  0  0  0
  8  9  1  0  0  0  0
 10  9  2  0  0  0  0
  9 20  1  0  0  0  0
 11 10  1  0  0  0  0
 11 12  1  0  0  0  0
 18 11  2  0  0  0  0
 12 13  1  0  0  0  0
 14 13  1  0  0  0  0
 13 17  1  0  0  0  0
 15 14  1  0  0  0  0
 16 15  1  0  0  0  0
 17 16  1  0  0  0  0
 19 18  1  0  0  0  0
 20 19  2  0  0  0  0
 22 21  1  0  0  0  0
 23 22  1  0  0  0  0
 24 23  1  0  0  0  0
 24 25  1  0  0  0  0
 24 26  1  0  0  0  0
 26 27  3  0  0  0  0
M  END
> <Inchi_key>
PWZUUYSISTUNDW-UHFFFAOYSA-N

> <Source>
Mulliner

> <ID>
HT1788

> <H_MFHB>
1

> <CAS>


> <Cholestasis>


> <Name>
quinestrol

> <Class>
1

$$$$