

  -INDIGO-08031710012D

 10 10  0  0  0  0  0  0  0  0999 V2000
    7.3500   -2.3383    0.0000 N   0  0  0  0  0  0  0  0  0  0  0  0
    5.8500   -2.3383    0.0000 N   0  0  0  0  0  0  0  0  0  0  0  0
    5.1000   -1.0392    0.0000 C   0  0  0  0  0  0  0  0  0  0  0  0
    5.8500    0.2598    0.0000 O   0  0  0  0  0  0  0  0  0  0  0  0
    3.6000   -1.0392    0.0000 C   0  0  0  0  0  0  0  0  0  0  0  0
    2.8500   -2.3383    0.0000 C   0  0  0  0  0  0  0  0  0  0  0  0
    1.3500   -2.3383    0.0000 C   0  0  0  0  0  0  0  0  0  0  0  0
    0.6000   -1.0392    0.0000 N   0  0  0  0  0  0  0  0  0  0  0  0
    1.3500    0.2598    0.0000 C   0  0  0  0  0  0  0  0  0  0  0  0
    2.8500    0.2598    0.0000 C   0  0  0  0  0  0  0  0  0  0  0  0
  1  2  1  0  0  0  0
  2  3  1  0  0  0  0
  3  4  2  0  0  0  0
  3  5  1  0  0  0  0
  6  5  2  0  0  0  0
  5 10  1  0  0  0  0
  7  6  1  0  0  0  0
  8  7  2  0  0  0  0
  9  8  1  0  0  0  0
 10  9  2  0  0  0  0
M  END
> <Inchi_key>
QRXWMOHMRWLFEY-UHFFFAOYSA-N

> <Source>
Mulliner , Kotsampasakou

> <ID>
EK0280;HT1135

> <H_MFHB>
1

> <CAS>
54-85-3

> <Cholestasis>
1

> <Name>
isoniazid

> <Class>
1


$$$$