

  -INDIGO-08031710012D

 24 25  0  0  0  0  0  0  0  0999 V2000
    0.1611    3.4949    0.0000 N   0  0  0  0  0  0  0  0  0  0  0  0
    1.4602    2.7449    0.0000 S   0  0  0  0  0  0  0  0  0  0  0  0
    0.7101    1.4459    0.0000 O   0  0  0  0  0  0  0  0  0  0  0  0
    2.2100    4.0439    0.0000 O   0  0  0  0  0  0  0  0  0  0  0  0
    2.7591    1.9949    0.0000 C   0  0  0  0  0  0  0  0  0  0  0  0
    4.0582    2.7449    0.0000 C   0  0  0  0  0  0  0  0  0  0  0  0
    5.3573    1.9949    0.0000 C   0  0  0  0  0  0  0  0  0  0  0  0
    5.3573    0.4949    0.0000 C   0  0  0  0  0  0  0  0  0  0  0  0
    6.6564   -0.2551    0.0000 N   0  0  0  0  0  0  0  0  0  0  0  0
    7.9552    0.4949    0.0000 C   0  0  0  0  0  0  0  0  0  0  0  0
    9.2543   -0.2551    0.0000 C   0  0  0  0  0  0  0  0  0  0  0  0
   10.5534    0.4949    0.0000 S   0  0  0  0  0  0  0  0  0  0  0  0
   11.8523   -0.2551    0.0000 C   0  0  0  0  0  0  0  0  0  0  0  0
   13.1514    0.4949    0.0000 C   0  0  0  0  0  0  0  0  0  0  0  0
   14.4505    1.2449    0.0000 F   0  0  0  0  0  0  0  0  0  0  0  0
   12.4013    1.7939    0.0000 F   0  0  0  0  0  0  0  0  0  0  0  0
   13.9015   -0.8041    0.0000 F   0  0  0  0  0  0  0  0  0  0  0  0
    7.9552    1.9949    0.0000 N   0  0  0  0  0  0  0  0  0  0  0  0
    6.6564    2.7449    0.0000 S   0  0  0  0  0  0  0  0  0  0  0  0
    7.4062    4.0439    0.0000 O   0  0  0  0  0  0  0  0  0  0  0  0
    5.9063    4.0439    0.0000 O   0  0  0  0  0  0  0  0  0  0  0  0
    4.0582   -0.2551    0.0000 C   0  0  0  0  0  0  0  0  0  0  0  0
    2.7591    0.4949    0.0000 C   0  0  0  0  0  0  0  0  0  0  0  0
    1.4602   -0.2551    0.0000 Cl  0  0  0  0  0  0  0  0  0  0  0  0
  1  2  1  0  0  0  0
  2  3  2  0  0  0  0
  2  4  2  0  0  0  0
  2  5  1  0  0  0  0
  6  5  2  0  0  0  0
  5 23  1  0  0  0  0
  7  6  1  0  0  0  0
  7  8  2  0  0  0  0
 19  7  1  0  0  0  0
  8  9  1  0  0  0  0
 22  8  1  0  0  0  0
  9 10  1  0  0  0  0
 10 11  1  0  0  0  0
 10 18  1  0  0  0  0
 11 12  1  0  0  0  0
 12 13  1  0  0  0  0
 13 14  1  0  0  0  0
 14 15  1  0  0  0  0
 14 16  1  0  0  0  0
 14 17  1  0  0  0  0
 18 19  1  0  0  0  0
 19 20  2  0  0  0  0
 19 21  2  0  0  0  0
 23 22  2  0  0  0  0
 23 24  1  0  0  0  0
M  END
> <Inchi_key>
RINBGYCKMGDWPY-UHFFFAOYSA-N

> <Source>
Mulliner

> <ID>
HT0770

> <H_MFHB>
1

> <CAS>


> <Cholestasis>


> <Name>
epithiazide

> <Class>
1


$$$$