

  -INDIGO-08031710012D

 15 15  0  0  0  0  0  0  0  0999 V2000
    0.1438   -0.2490    0.0000 C   0  0  0  0  0  0  0  0  0  0  0  0
    0.8937    1.0500    0.0000 C   0  0  0  0  0  0  0  0  0  0  0  0
    1.6439    2.3490    0.0000 N   0  0  0  0  0  0  0  0  0  0  0  0
    2.1928    0.3000    0.0000 C   0  0  0  0  0  0  0  0  0  0  0  0
    3.4919    1.0500    0.0000 C   0  0  0  0  0  0  0  0  0  0  0  0
    3.4919    2.5500    0.0000 C   0  0  0  0  0  0  0  0  0  0  0  0
    4.7910    3.3000    0.0000 C   0  0  0  0  0  0  0  0  0  0  0  0
    6.0898    2.5500    0.0000 C   0  0  0  0  0  0  0  0  0  0  0  0
    7.3890    3.3000    0.0000 O   0  0  0  0  0  0  0  0  0  0  0  0
    6.0898    1.0500    0.0000 C   0  0  0  0  0  0  0  0  0  0  0  0
    7.3890    0.3000    0.0000 O   0  0  0  0  0  0  0  0  0  0  0  0
    4.7910    0.3000    0.0000 C   0  0  0  0  0  0  0  0  0  0  0  0
   -0.4053    1.8000    0.0000 C   0  0  0  0  0  0  0  0  0  0  0  0
   -1.7043    1.0500    0.0000 O   0  0  0  0  0  0  0  0  0  0  0  0
   -0.4053    3.3000    0.0000 O   0  0  0  0  0  0  0  0  0  0  0  0
  1  2  1  0  0  0  0
  2  3  1  0  0  0  0
  2  4  1  0  0  0  0
  2 13  1  0  0  0  0
  4  5  1  0  0  0  0
  6  5  2  0  0  0  0
  5 12  1  0  0  0  0
  7  6  1  0  0  0  0
  8  7  2  0  0  0  0
  8  9  1  0  0  0  0
 10  8  1  0  0  0  0
 10 11  1  0  0  0  0
 12 10  2  0  0  0  0
 13 14  2  0  0  0  0
 13 15  1  0  0  0  0
M  END
> <Inchi_key>
CJCSPKMFHVPWAR-UHFFFAOYSA-N

> <Source>
Mulliner , Kotsampasakou

> <ID>
EK0339;HT1361

> <H_MFHB>
1

> <CAS>
41372-08-1;555-30-6

> <Cholestasis>
1

> <Name>
methyldopa

> <Class>
1


$$$$