

  -INDIGO-08031710012D

 33 36  0  0  0  0  0  0  0  0999 V2000
    6.6495    0.5933    0.0000 C   0  0  0  0  0  0  0  0  0  0  0  0
    6.5903   -0.9055    0.0000 C   0  0  0  0  0  0  0  0  0  0  0  0
    5.2626   -1.6035    0.0000 N   0  0  0  0  0  0  0  0  0  0  0  0
    5.2031   -3.1023    0.0000 C   0  0  0  0  0  0  0  0  0  0  0  0
    3.8754   -3.8003    0.0000 N   0  0  0  0  0  0  0  0  0  0  0  0
    2.6069   -2.9995    0.0000 C   0  0  0  0  0  0  0  0  0  0  0  0
    2.5094   -1.5026    0.0000 N   0  0  0  0  0  0  0  0  0  0  0  0
    1.0556   -1.1328    0.0000 C   0  0  0  0  0  0  0  0  0  0  0  0
    0.2547   -2.4011    0.0000 C   0  0  0  0  0  0  0  0  0  0  0  0
    1.2136   -3.5547    0.0000 S   0  0  0  0  0  0  0  0  0  0  0  0
   -1.2421   -2.4986    0.0000 C   0  0  0  0  0  0  0  0  0  0  0  0
   -1.9058   -3.8438    0.0000 O   0  0  0  0  0  0  0  0  0  0  0  0
   -2.0749   -1.2512    0.0000 N   0  0  0  0  0  0  0  0  0  0  0  0
   -3.5717   -1.3488    0.0000 C   0  0  0  0  0  0  0  0  0  0  0  0
   -4.4046   -0.1014    0.0000 C   0  0  0  0  0  0  0  0  0  0  0  0
   -3.7409    1.2438    0.0000 C   0  0  0  0  0  0  0  0  0  0  0  0
   -5.9014   -0.1989    0.0000 C   0  0  0  0  0  0  0  0  0  0  0  0
   -6.5654   -1.5440    0.0000 C   0  0  0  0  0  0  0  0  0  0  0  0
   -5.7323   -2.7915    0.0000 C   0  0  0  0  0  0  0  0  0  0  0  0
   -4.2354   -2.6939    0.0000 C   0  0  0  0  0  0  0  0  0  0  0  0
   -3.4026   -3.9414    0.0000 Cl  0  0  0  0  0  0  0  0  0  0  0  0
    6.4713   -3.9031    0.0000 C   0  0  0  0  0  0  0  0  0  0  0  0
    7.7990   -3.2052    0.0000 C   0  0  0  0  0  0  0  0  0  0  0  0
    7.8585   -1.7064    0.0000 N   0  0  0  0  0  0  0  0  0  0  0  0
    9.0676   -4.0060    0.0000 N   0  0  0  0  0  0  0  0  0  0  0  0
   10.3953   -3.3081    0.0000 C   0  0  0  0  0  0  0  0  0  0  0  0
   11.6635   -4.1089    0.0000 C   0  0  0  0  0  0  0  0  0  0  0  0
   11.6040   -5.6078    0.0000 N   0  0  0  0  0  0  0  0  0  0  0  0
   12.8722   -6.4085    0.0000 C   0  0  0  0  0  0  0  0  0  0  0  0
   14.2002   -5.7107    0.0000 C   0  0  0  0  0  0  0  0  0  0  0  0
   15.4684   -6.5115    0.0000 O   0  0  0  0  0  0  0  0  0  0  0  0
   10.2762   -6.3057    0.0000 C   0  0  0  0  0  0  0  0  0  0  0  0
    9.0080   -5.5049    0.0000 C   0  0  0  0  0  0  0  0  0  0  0  0
  1  2  1  0  0  0  0
  3  2  2  0  0  0  0
  2 24  1  0  0  0  0
  4  3  1  0  0  0  0
  4  5  1  0  0  0  0
 22  4  2  0  0  0  0
  5  6  1  0  0  0  0
  7  6  2  0  0  0  0
  6 10  1  0  0  0  0
  8  7  1  0  0  0  0
  9  8  2  0  0  0  0
 10  9  1  0  0  0  0
  9 11  1  0  0  0  0
 11 12  2  0  0  0  0
 11 13  1  0  0  0  0
 13 14  1  0  0  0  0
 15 14  2  0  0  0  0
 14 20  1  0  0  0  0
 15 16  1  0  0  0  0
 17 15  1  0  0  0  0
 18 17  2  0  0  0  0
 19 18  1  0  0  0  0
 20 19  2  0  0  0  0
 20 21  1  0  0  0  0
 23 22  1  0  0  0  0
 24 23  2  0  0  0  0
 23 25  1  0  0  0  0
 26 25  1  0  0  0  0
 25 33  1  0  0  0  0
 27 26  1  0  0  0  0
 28 27  1  0  0  0  0
 28 29  1  0  0  0  0
 32 28  1  0  0  0  0
 29 30  1  0  0  0  0
 30 31  1  0  0  0  0
 33 32  1  0  0  0  0
M  END
> <Inchi_key>
ZBNZXTGUTAYRHI-UHFFFAOYSA-N

> <Source>
Mulliner , Kotsampasakou

> <ID>
EK0149;HT0594

> <H_MFHB>
1

> <CAS>


> <Cholestasis>
1

> <Name>
dasatinib

> <Class>
1


$$$$