
  -INDIGO-08031710012D

 19 20  0  0  0  0  0  0  0  0999 V2000
    0.0000   -5.6064    0.0000 C   0  0  0  0  0  0  0  0  0  0  0  0
    1.5000   -5.6064    0.0000 N   0  0  0  0  0  0  0  0  0  0  0  0
    2.2500   -6.9054    0.0000 C   0  0  0  0  0  0  0  0  0  0  0  0
    2.2500   -4.3073    0.0000 C   0  0  0  0  0  0  0  0  0  0  0  0
    3.7499   -4.3073    0.0000 C   0  0  0  0  0  0  0  0  0  0  0  0
    4.4999   -3.0084    0.0000 C   0  0  0  0  0  0  0  0  0  0  0  0
    6.0001   -3.0084    0.0000 C   0  0  0  0  0  0  0  0  0  0  0  0
    6.7501   -4.3073    0.0000 C   0  0  0  0  0  0  0  0  0  0  0  0
    8.2500   -4.3073    0.0000 C   0  0  0  0  0  0  0  0  0  0  0  0
    9.0000   -3.0084    0.0000 C   0  0  0  0  0  0  0  0  0  0  0  0
   10.5000   -3.0084    0.0000 Cl  0  0  0  0  0  0  0  0  0  0  0  0
    8.2500   -1.7093    0.0000 C   0  0  0  0  0  0  0  0  0  0  0  0
    6.7501   -1.7093    0.0000 C   0  0  0  0  0  0  0  0  0  0  0  0
    3.7499   -1.7093    0.0000 C   0  0  0  0  0  0  0  0  0  0  0  0
    2.2500   -1.7093    0.0000 C   0  0  0  0  0  0  0  0  0  0  0  0
    1.5000   -0.4102    0.0000 C   0  0  0  0  0  0  0  0  0  0  0  0
    2.2500    0.8888    0.0000 C   0  0  0  0  0  0  0  0  0  0  0  0
    3.7499    0.8888    0.0000 C   0  0  0  0  0  0  0  0  0  0  0  0
    4.4999   -0.4102    0.0000 N   0  0  0  0  0  0  0  0  0  0  0  0
  1  2  1  0  0  0  0
  2  3  1  0  0  0  0
  2  4  1  0  0  0  0
  4  5  1  0  0  0  0
  5  6  1  0  0  0  0
  6  7  1  0  0  0  0
  6 14  1  0  0  0  0
  8  7  2  0  0  0  0
  7 13  1  0  0  0  0
  9  8  1  0  0  0  0
 10  9  2  0  0  0  0
 10 11  1  0  0  0  0
 12 10  1  0  0  0  0
 13 12  2  0  0  0  0
 15 14  2  0  0  0  0
 14 19  1  0  0  0  0
 16 15  1  0  0  0  0
 17 16  2  0  0  0  0
 18 17  1  0  0  0  0
 19 18  2  0  0  0  0
M  END
> <Inchi_key>
SOYKEARSMXGVTM-UHFFFAOYSA-N

> <Source>
Mulliner

> <ID>
HT0465

> <H_MFHB>
1

> <CAS>


> <Cholestasis>


> <Name>
chlorpheniramine maleate;dexchlorpheniramine maleate;chlorpheniramine

> <Class>
1

$$$$