

  -INDIGO-08031710012D

 38 43  0  0  0  0  0  0  0  0999 V2000
   -3.0475    0.3162    0.0000 C   0  0  0  0  0  0  0  0  0  0  0  0
   -4.5157    0.6242    0.0000 C   0  0  0  0  0  0  0  0  0  0  0  0
   -4.9829    2.0494    0.0000 O   0  0  0  0  0  0  0  0  0  0  0  0
   -5.5164   -0.4933    0.0000 O   0  0  0  0  0  0  0  0  0  0  0  0
   -5.0489   -1.9187    0.0000 C   0  0  0  0  0  0  0  0  0  0  0  0
   -5.9274   -3.1346    0.0000 C   0  0  0  0  0  0  0  0  0  0  0  0
   -5.0424   -4.3457    0.0000 C   0  0  0  0  0  0  0  0  0  0  0  0
   -3.6172   -3.8782    0.0000 C   0  0  0  0  0  0  0  0  0  0  0  0
   -2.3161   -4.6248    0.0000 C   0  0  0  0  0  0  0  0  0  0  0  0
   -2.3120   -6.1248    0.0000 C   0  0  0  0  0  0  0  0  0  0  0  0
   -1.0109   -6.8713    0.0000 C   0  0  0  0  0  0  0  0  0  0  0  0
    0.2862   -6.1178    0.0000 C   0  0  0  0  0  0  0  0  0  0  0  0
    1.5871   -6.8644    0.0000 C   0  0  0  0  0  0  0  0  0  0  0  0
    2.8842   -6.1109    0.0000 C   0  0  0  0  0  0  0  0  0  0  0  0
    4.1853   -6.8574    0.0000 O   0  0  0  0  0  0  0  0  0  0  0  0
    2.8801   -4.6109    0.0000 C   0  0  0  0  0  0  0  0  0  0  0  0
    1.5790   -3.8643    0.0000 C   0  0  0  0  0  0  0  0  0  0  0  0
    0.2819   -4.6180    0.0000 C   0  0  0  0  0  0  0  0  0  0  0  0
    0.2781   -3.1179    0.0000 C   0  0  0  0  0  0  0  0  0  0  0  0
   -1.0190   -3.8713    0.0000 C   0  0  0  0  0  0  0  0  0  0  0  0
   -1.0230   -2.3714    0.0000 C   0  0  0  0  0  0  0  0  0  0  0  0
   -2.3242   -1.6249    0.0000 C   0  0  0  0  0  0  0  0  0  0  0  0
   -3.6210   -2.3784    0.0000 C   0  0  0  0  0  0  0  0  0  0  0  0
   -3.7559   -0.8843    0.0000 C   0  0  0  0  0  0  0  0  0  0  0  0
    4.1772   -3.8574    0.0000 N   0  0  0  0  0  0  0  0  0  0  0  0
    5.4781   -4.6039    0.0000 C   0  0  0  0  0  0  0  0  0  0  0  0
    6.7752   -3.8504    0.0000 C   0  0  0  0  0  0  0  0  0  0  0  0
    6.7712   -2.3504    0.0000 O   0  0  0  0  0  0  0  0  0  0  0  0
    5.4700   -1.6039    0.0000 C   0  0  0  0  0  0  0  0  0  0  0  0
    4.1732   -2.3574    0.0000 C   0  0  0  0  0  0  0  0  0  0  0  0
   -7.4275   -3.1387    0.0000 N   0  0  0  0  0  0  0  0  0  0  0  0
   -6.7196   -4.4611    0.0000 C   0  0  0  0  0  0  0  0  0  0  0  0
   -7.5110   -5.7353    0.0000 C   0  0  0  0  0  0  0  0  0  0  0  0
   -6.8034   -7.0578    0.0000 C   0  0  0  0  0  0  0  0  0  0  0  0
   -7.6143   -1.6503    0.0000 C   0  0  0  0  0  0  0  0  0  0  0  0
   -9.0875   -1.3679    0.0000 C   0  0  0  0  0  0  0  0  0  0  0  0
   -9.8111   -2.6819    0.0000 C   0  0  0  0  0  0  0  0  0  0  0  0
   -8.7851   -3.7762    0.0000 C   0  0  0  0  0  0  0  0  0  0  0  0
  1  2  1  0  0  0  0
  2  3  2  0  0  0  0
  2  4  1  0  0  0  0
  4  5  1  0  0  0  0
  6  5  1  0  0  0  0
  5 23  1  0  0  0  0
  7  6  1  0  0  0  0
  6 31  1  0  0  0  0
  8  7  1  0  0  0  0
  9  8  1  0  0  0  0
  8 23  1  0  0  0  0
 10  9  1  0  0  0  0
  9 20  1  0  0  0  0
 11 10  1  0  0  0  0
 12 11  1  0  0  0  0
 13 12  1  0  0  0  0
 12 18  1  0  0  0  0
 14 13  1  0  0  0  0
 14 15  1  0  0  0  0
 16 14  1  0  0  0  0
 17 16  1  0  0  0  0
 16 25  1  0  0  0  0
 18 17  1  0  0  0  0
 18 19  1  0  0  0  0
 20 18  1  0  0  0  0
 21 20  1  0  0  0  0
 22 21  1  0  0  0  0
 23 22  1  0  0  0  0
 23 24  1  0  0  0  0
 26 25  1  0  0  0  0
 25 30  1  0  0  0  0
 27 26  1  0  0  0  0
 28 27  1  0  0  0  0
 29 28  1  0  0  0  0
 30 29  1  0  0  0  0
 31 32  1  0  0  0  0
 35 31  1  0  0  0  0
 31 38  1  0  0  0  0
 32 33  1  0  0  0  0
 33 34  2  0  0  0  0
 36 35  1  0  0  0  0
 37 36  1  0  0  0  0
 38 37  1  0  0  0  0
M  CHG  1  31   1
M  END
> <Inchi_key>
YXRDKMPIGHSVRX-UHFFFAOYSA-N

> <Source>
Mulliner

> <ID>
HT1837

> <H_MFHB>
1

> <CAS>


> <Cholestasis>


> <Name>
rocuronium bromide;rocuronium

> <Class>
1


$$$$