

  -INDIGO-08031710012D

 33 36  0  0  0  0  0  0  0  0999 V2000
   -1.1772    9.2082    0.0000 C   0  0  0  0  0  0  0  0  0  0  0  0
   -2.1024    8.0276    0.0000 C   0  0  0  0  0  0  0  0  0  0  0  0
   -1.5427    6.6360    0.0000 C   0  0  0  0  0  0  0  0  0  0  0  0
   -0.0878    6.2709    0.0000 N   0  0  0  0  0  0  0  0  0  0  0  0
    0.0146    4.7745    0.0000 N   0  0  0  0  0  0  0  0  0  0  0  0
    1.2857    3.9776    0.0000 C   0  0  0  0  0  0  0  0  0  0  0  0
    2.6112    4.6799    0.0000 C   0  0  0  0  0  0  0  0  0  0  0  0
    3.8820    3.8830    0.0000 C   0  0  0  0  0  0  0  0  0  0  0  0
    5.2075    4.5852    0.0000 N   0  0  0  0  0  0  0  0  0  0  0  0
    5.2619    6.0842    0.0000 C   0  0  0  0  0  0  0  0  0  0  0  0
    6.5874    6.7864    0.0000 C   0  0  0  0  0  0  0  0  0  0  0  0
    7.8585    5.9896    0.0000 N   0  0  0  0  0  0  0  0  0  0  0  0
    7.8038    4.4906    0.0000 C   0  0  0  0  0  0  0  0  0  0  0  0
    6.4783    3.7884    0.0000 C   0  0  0  0  0  0  0  0  0  0  0  0
    9.1840    6.6919    0.0000 C   0  0  0  0  0  0  0  0  0  0  0  0
    9.2384    8.1909    0.0000 C   0  0  0  0  0  0  0  0  0  0  0  0
   10.5639    8.8931    0.0000 C   0  0  0  0  0  0  0  0  0  0  0  0
   11.8347    8.0963    0.0000 C   0  0  0  0  0  0  0  0  0  0  0  0
   11.7803    6.5973    0.0000 C   0  0  0  0  0  0  0  0  0  0  0  0
   13.0511    5.8006    0.0000 Cl  0  0  0  0  0  0  0  0  0  0  0  0
   10.4548    5.8952    0.0000 C   0  0  0  0  0  0  0  0  0  0  0  0
   -1.3769    4.2146    0.0000 C   0  0  0  0  0  0  0  0  0  0  0  0
   -1.7418    2.7597    0.0000 O   0  0  0  0  0  0  0  0  0  0  0  0
   -2.3392    5.3651    0.0000 N   0  0  0  0  0  0  0  0  0  0  0  0
   -3.8358    5.2627    0.0000 C   0  0  0  0  0  0  0  0  0  0  0  0
   -4.4956    3.9155    0.0000 C   0  0  0  0  0  0  0  0  0  0  0  0
   -5.9918    3.8131    0.0000 O   0  0  0  0  0  0  0  0  0  0  0  0
   -6.6516    2.4659    0.0000 C   0  0  0  0  0  0  0  0  0  0  0  0
   -5.8147    1.2211    0.0000 C   0  0  0  0  0  0  0  0  0  0  0  0
   -6.4741   -0.1261    0.0000 C   0  0  0  0  0  0  0  0  0  0  0  0
   -7.9707   -0.2285    0.0000 C   0  0  0  0  0  0  0  0  0  0  0  0
   -8.8076    1.0163    0.0000 C   0  0  0  0  0  0  0  0  0  0  0  0
   -8.1479    2.3636    0.0000 C   0  0  0  0  0  0  0  0  0  0  0  0
  1  2  1  0  0  0  0
  2  3  1  0  0  0  0
  4  3  2  0  0  0  0
  3 24  1  0  0  0  0
  5  4  1  0  0  0  0
  5  6  1  0  0  0  0
 22  5  1  0  0  0  0
  6  7  1  0  0  0  0
  7  8  1  0  0  0  0
  8  9  1  0  0  0  0
 10  9  1  0  0  0  0
  9 14  1  0  0  0  0
 11 10  1  0  0  0  0
 12 11  1  0  0  0  0
 13 12  1  0  0  0  0
 12 15  1  0  0  0  0
 14 13  1  0  0  0  0
 16 15  2  0  0  0  0
 15 21  1  0  0  0  0
 17 16  1  0  0  0  0
 18 17  2  0  0  0  0
 19 18  1  0  0  0  0
 19 20  1  0  0  0  0
 21 19  2  0  0  0  0
 22 23  2  0  0  0  0
 24 22  1  0  0  0  0
 24 25  1  0  0  0  0
 25 26  1  0  0  0  0
 26 27  1  0  0  0  0
 27 28  1  0  0  0  0
 29 28  2  0  0  0  0
 28 33  1  0  0  0  0
 30 29  1  0  0  0  0
 31 30  2  0  0  0  0
 32 31  1  0  0  0  0
 33 32  2  0  0  0  0
M  END
> <Inchi_key>
VRBKIVRKKCLPHA-UHFFFAOYSA-N

> <Source>
Mulliner

> <ID>
HT1470

> <H_MFHB>
1

> <CAS>


> <Cholestasis>


> <Name>
nefazodone hydrochloride;nefazodone

> <Class>
1


$$$$