

  -INDIGO-08031710012D

 41 45  0  0  0  0  0  0  0  0999 V2000
    0.5424   -0.9464    0.0000 C   0  0  0  0  0  0  0  0  0  0  0  0
    1.3009    0.3476    0.0000 C   0  0  0  0  0  0  0  0  0  0  0  0
    2.0594    1.6416    0.0000 C   0  0  0  0  0  0  0  0  0  0  0  0
    0.0068    1.1062    0.0000 O   0  0  0  0  0  0  0  0  0  0  0  0
    2.5950   -0.4110    0.0000 C   0  0  0  0  0  0  0  0  0  0  0  0
    2.5852   -1.9108    0.0000 C   0  0  0  0  0  0  0  0  0  0  0  0
    3.8793   -2.6694    0.0000 C   0  0  0  0  0  0  0  0  0  0  0  0
    5.1832   -1.9279    0.0000 C   0  0  0  0  0  0  0  0  0  0  0  0
    5.1930   -0.4280    0.0000 C   0  0  0  0  0  0  0  0  0  0  0  0
    3.8989    0.3305    0.0000 C   0  0  0  0  0  0  0  0  0  0  0  0
    3.9087    1.8306    0.0000 C   0  0  0  0  0  0  0  0  0  0  0  0
    5.2127    2.5721    0.0000 C   0  0  0  0  0  0  0  0  0  0  0  0
    5.2225    4.0720    0.0000 C   0  0  0  0  0  0  0  0  0  0  0  0
    3.9284    4.8303    0.0000 S   0  0  0  0  0  0  0  0  0  0  0  0
    3.9382    6.3304    0.0000 C   0  0  0  0  0  0  0  0  0  0  0  0
    2.6441    7.0890    0.0000 C   0  0  0  0  0  0  0  0  0  0  0  0
    3.7117    8.1426    0.0000 C   0  0  0  0  0  0  0  0  0  0  0  0
    3.3330    9.5941    0.0000 C   0  0  0  0  0  0  0  0  0  0  0  0
    4.4008   10.6477    0.0000 O   0  0  0  0  0  0  0  0  0  0  0  0
    1.8868    9.9918    0.0000 O   0  0  0  0  0  0  0  0  0  0  0  0
    1.2622    7.6720    0.0000 C   0  0  0  0  0  0  0  0  0  0  0  0
    1.4483    6.1837    0.0000 C   0  0  0  0  0  0  0  0  0  0  0  0
    6.5264    4.8135    0.0000 C   0  0  0  0  0  0  0  0  0  0  0  0
    6.5362    6.3133    0.0000 C   0  0  0  0  0  0  0  0  0  0  0  0
    7.8402    7.0548    0.0000 C   0  0  0  0  0  0  0  0  0  0  0  0
    9.1342    6.2962    0.0000 C   0  0  0  0  0  0  0  0  0  0  0  0
    9.1244    4.7964    0.0000 C   0  0  0  0  0  0  0  0  0  0  0  0
   10.4185    4.0378    0.0000 C   0  0  0  0  0  0  0  0  0  0  0  0
   11.7224    4.7793    0.0000 C   0  0  0  0  0  0  0  0  0  0  0  0
   13.0165    4.0207    0.0000 C   0  0  0  0  0  0  0  0  0  0  0  0
   13.0067    2.5209    0.0000 C   0  0  0  0  0  0  0  0  0  0  0  0
   14.3008    1.7623    0.0000 C   0  0  0  0  0  0  0  0  0  0  0  0
   15.6047    2.5036    0.0000 C   0  0  0  0  0  0  0  0  0  0  0  0
   16.8988    1.7452    0.0000 C   0  0  0  0  0  0  0  0  0  0  0  0
   18.2028    2.4867    0.0000 C   0  0  0  0  0  0  0  0  0  0  0  0
   18.2126    3.9866    0.0000 C   0  0  0  0  0  0  0  0  0  0  0  0
   19.5165    4.7281    0.0000 Cl  0  0  0  0  0  0  0  0  0  0  0  0
   16.9185    4.7452    0.0000 C   0  0  0  0  0  0  0  0  0  0  0  0
   15.6146    4.0037    0.0000 C   0  0  0  0  0  0  0  0  0  0  0  0
   14.3205    4.7622    0.0000 N   0  0  0  0  0  0  0  0  0  0  0  0
    7.8205    4.0549    0.0000 C   0  0  0  0  0  0  0  0  0  0  0  0
  1  2  1  0  0  0  0
  2  3  1  0  0  0  0
  2  4  1  0  0  0  0
  2  5  1  0  0  0  0
  6  5  2  0  0  0  0
  5 10  1  0  0  0  0
  7  6  1  0  0  0  0
  8  7  2  0  0  0  0
  9  8  1  0  0  0  0
 10  9  2  0  0  0  0
 10 11  1  0  0  0  0
 11 12  1  0  0  0  0
 12 13  1  0  0  0  0
 13 14  1  0  0  0  0
 13 23  1  0  0  0  0
 14 15  1  0  0  0  0
 15 16  1  0  0  0  0
 16 17  1  0  0  0  0
 21 16  1  0  0  0  0
 16 22  1  0  0  0  0
 17 18  1  0  0  0  0
 18 19  2  0  0  0  0
 18 20  1  0  0  0  0
 22 21  1  0  0  0  0
 24 23  2  0  0  0  0
 23 41  1  0  0  0  0
 25 24  1  0  0  0  0
 26 25  2  0  0  0  0
 27 26  1  0  0  0  0
 27 28  1  0  0  0  0
 41 27  2  0  0  0  0
 28 29  2  0  0  0  0
 29 30  1  0  0  0  0
 31 30  2  0  0  0  0
 30 40  1  0  0  0  0
 32 31  1  0  0  0  0
 33 32  2  0  0  0  0
 34 33  1  0  0  0  0
 33 39  1  0  0  0  0
 35 34  2  0  0  0  0
 36 35  1  0  0  0  0
 36 37  1  0  0  0  0
 38 36  2  0  0  0  0
 39 38  1  0  0  0  0
 40 39  2  0  0  0  0
M  END
> <Inchi_key>
UCHDWCPVSPXUMX-XNTDXEJSSA-N

> <Source>
Mulliner

> <ID>
HT1433

> <H_MFHB>
1

> <CAS>


> <Cholestasis>


> <Name>
montelukast sodium;montelukast

> <Class>
1


$$$$