
  -INDIGO-08031710012D

 22 22  0  0  0  0  0  0  0  0999 V2000
   12.5859    3.7134    0.0000 C   0  0  0  0  0  0  0  0  0  0  0  0
   11.2868    4.4633    0.0000 C   0  0  0  0  0  0  0  0  0  0  0  0
    9.9879    3.7134    0.0000 O   0  0  0  0  0  0  0  0  0  0  0  0
    8.6888    4.4633    0.0000 C   0  0  0  0  0  0  0  0  0  0  0  0
    8.6888    5.9633    0.0000 O   0  0  0  0  0  0  0  0  0  0  0  0
    7.3897    3.7134    0.0000 C   0  0  0  0  0  0  0  0  0  0  0  0
    6.0907    4.4633    0.0000 C   0  0  0  0  0  0  0  0  0  0  0  0
    4.7916    3.7134    0.0000 C   0  0  0  0  0  0  0  0  0  0  0  0
    3.4925    4.4633    0.0000 O   0  0  0  0  0  0  0  0  0  0  0  0
    3.4925    5.9633    0.0000 C   0  0  0  0  0  0  0  0  0  0  0  0
    4.7916    6.7134    0.0000 C   0  0  0  0  0  0  0  0  0  0  0  0
    4.7916    8.2133    0.0000 C   0  0  0  0  0  0  0  0  0  0  0  0
    2.1936    6.7134    0.0000 C   0  0  0  0  0  0  0  0  0  0  0  0
    0.8945    5.9633    0.0000 C   0  0  0  0  0  0  0  0  0  0  0  0
    4.7916    2.2133    0.0000 C   0  0  0  0  0  0  0  0  0  0  0  0
    3.4925    1.4633    0.0000 N   0  0  0  0  0  0  0  0  0  0  0  0
    3.4925   -0.0367    0.0000 C   0  0  0  0  0  0  0  0  0  0  0  0
    4.7916   -0.7867    0.0000 O   0  0  0  0  0  0  0  0  0  0  0  0
    2.1936   -0.7867    0.0000 C   0  0  0  0  0  0  0  0  0  0  0  0
    6.0907    1.4633    0.0000 C   0  0  0  0  0  0  0  0  0  0  0  0
    6.0907   -0.0367    0.0000 N   0  0  0  0  0  0  0  0  0  0  0  0
    7.3897    2.2133    0.0000 C   0  0  0  0  0  0  0  0  0  0  0  0
  1  2  1  0  0  0  0
  2  3  1  0  0  0  0
  3  4  1  0  0  0  0
  4  5  2  0  0  0  0
  4  6  1  0  0  0  0
  7  6  2  0  0  0  0
  6 22  1  0  0  0  0
  8  7  1  0  0  0  0
  8  9  1  0  0  0  0
 15  8  1  0  0  0  0
  9 10  1  0  0  0  0
 10 11  1  0  0  0  0
 10 13  1  0  0  0  0
 11 12  1  0  0  0  0
 13 14  1  0  0  0  0
 15 16  1  0  0  0  0
 20 15  1  0  0  0  0
 16 17  1  0  0  0  0
 17 18  2  0  0  0  0
 17 19  1  0  0  0  0
 20 21  1  0  0  0  0
 22 20  1  0  0  0  0
M  END
> <Inchi_key>
VSZGPKBBMSAYNT-UHFFFAOYSA-N

> <Source>
Mulliner

> <ID>
HT1547

> <H_MFHB>
1

> <CAS>


> <Cholestasis>


> <Name>
oseltamivir phosphate;oseltamivir

> <Class>
1

$$$$