
  -INDIGO-08031710012D

 20 22  0  0  0  0  0  0  0  0999 V2000
   -1.2000   -5.5859    0.0000 C   0  0  0  0  0  0  0  0  0  0  0  0
   -0.4500   -4.2868    0.0000 N   0  0  0  0  0  0  0  0  0  0  0  0
    1.0500   -4.2868    0.0000 C   0  0  0  0  0  0  0  0  0  0  0  0
    1.8000   -5.5859    0.0000 C   0  0  0  0  0  0  0  0  0  0  0  0
    3.3000   -5.5859    0.0000 C   0  0  0  0  0  0  0  0  0  0  0  0
    4.0500   -4.2868    0.0000 C   0  0  0  0  0  0  0  0  0  0  0  0
    5.5500   -4.2868    0.0000 C   0  0  0  0  0  0  0  0  0  0  0  0
    6.3000   -2.9878    0.0000 C   0  0  0  0  0  0  0  0  0  0  0  0
    7.8000   -2.9878    0.0000 C   0  0  0  0  0  0  0  0  0  0  0  0
    8.5500   -4.2868    0.0000 C   0  0  0  0  0  0  0  0  0  0  0  0
   10.0500   -4.2868    0.0000 Cl  0  0  0  0  0  0  0  0  0  0  0  0
    7.8000   -5.5859    0.0000 C   0  0  0  0  0  0  0  0  0  0  0  0
    8.5500   -6.8849    0.0000 Cl  0  0  0  0  0  0  0  0  0  0  0  0
    6.3000   -5.5859    0.0000 C   0  0  0  0  0  0  0  0  0  0  0  0
    3.3000   -2.9878    0.0000 C   0  0  0  0  0  0  0  0  0  0  0  0
    4.0500   -1.6887    0.0000 C   0  0  0  0  0  0  0  0  0  0  0  0
    3.3000   -0.3897    0.0000 C   0  0  0  0  0  0  0  0  0  0  0  0
    1.8000   -0.3897    0.0000 C   0  0  0  0  0  0  0  0  0  0  0  0
    1.0500   -1.6887    0.0000 C   0  0  0  0  0  0  0  0  0  0  0  0
    1.8000   -2.9878    0.0000 C   0  0  0  0  0  0  0  0  0  0  0  0
  1  2  1  0  0  0  0
  2  3  1  0  0  0  0
  4  3  1  0  0  0  0
  3 20  1  0  0  0  0
  5  4  1  0  0  0  0
  6  5  1  0  0  0  0
  6  7  1  0  0  0  0
 15  6  1  0  0  0  0
  8  7  2  0  0  0  0
  7 14  1  0  0  0  0
  9  8  1  0  0  0  0
 10  9  2  0  0  0  0
 10 11  1  0  0  0  0
 12 10  1  0  0  0  0
 12 13  1  0  0  0  0
 14 12  2  0  0  0  0
 16 15  1  0  0  0  0
 15 20  2  0  0  0  0
 17 16  2  0  0  0  0
 18 17  1  0  0  0  0
 19 18  2  0  0  0  0
 20 19  1  0  0  0  0
M  END
> <Inchi_key>
VGKDLMBJGBXTGI-UHFFFAOYSA-N

> <Source>
Mulliner

> <ID>
HT1881

> <H_MFHB>
1

> <CAS>
79559-97-0

> <Cholestasis>


> <Name>
sertraline hydrochloride;sertraline

> <Class>
1

$$$$