
  -INDIGO-08031710012D

 13 12  0  0  0  0  0  0  0  0999 V2000
    0.6923   -3.3975    0.0000 N   0  0  0  0  0  0  0  0  0  0  0  0
    1.4423   -2.0984    0.0000 C   0  0  0  0  0  0  0  0  0  0  0  0
    2.9423   -2.0984    0.0000 C   0  0  0  0  0  0  0  0  0  0  0  0
    3.6923   -0.7994    0.0000 C   0  0  0  0  0  0  0  0  0  0  0  0
    4.4423    0.4996    0.0000 O   0  0  0  0  0  0  0  0  0  0  0  0
    2.3933   -0.0494    0.0000 P   0  0  0  0  0  0  0  0  0  0  0  0
    1.6433   -1.3484    0.0000 O   0  0  0  0  0  0  0  0  0  0  0  0
    3.1433    1.2496    0.0000 O   0  0  0  0  0  0  0  0  0  0  0  0
    1.0942    0.7006    0.0000 O   0  0  0  0  0  0  0  0  0  0  0  0
    4.9913   -1.5494    0.0000 P   0  0  0  0  0  0  0  0  0  0  0  0
    5.7413   -0.2504    0.0000 O   0  0  0  0  0  0  0  0  0  0  0  0
    6.2904   -2.2994    0.0000 O   0  0  0  0  0  0  0  0  0  0  0  0
    4.2413   -2.8484    0.0000 O   0  0  0  0  0  0  0  0  0  0  0  0
  1  2  1  0  0  0  0
  2  3  1  0  0  0  0
  3  4  1  0  0  0  0
  4  5  1  0  0  0  0
  4  6  1  0  0  0  0
  4 10  1  0  0  0  0
  6  7  2  0  0  0  0
  6  8  1  0  0  0  0
  6  9  1  0  0  0  0
 10 11  2  0  0  0  0
 10 12  1  0  0  0  0
 10 13  1  0  0  0  0
M  END
> <Inchi_key>
WRUUGTRCQOWXEG-UHFFFAOYSA-N

> <Source>
Mulliner

> <ID>
HT1584

> <H_MFHB>
1

> <CAS>


> <Cholestasis>


> <Name>
pamidronate disodium;pamidronic acid

> <Class>
1

$$$$