
  -INDIGO-08031710012D

  9  9  0  0  0  0  0  0  0  0999 V2000
    0.6057    0.7480    0.0000 C   0  0  0  0  0  0  0  0  0  0  0  0
    0.9176   -0.7192    0.0000 C   0  0  0  0  0  0  0  0  0  0  0  0
   -0.0861   -1.8339    0.0000 N   0  0  0  0  0  0  0  0  0  0  0  0
    0.6639   -3.1330    0.0000 C   0  0  0  0  0  0  0  0  0  0  0  0
    2.1311   -2.8211    0.0000 S   0  0  0  0  0  0  0  0  0  0  0  0
    2.2879   -1.3293    0.0000 C   0  0  0  0  0  0  0  0  0  0  0  0
    3.5870   -0.5793    0.0000 C   0  0  0  0  0  0  0  0  0  0  0  0
    4.8860   -1.3293    0.0000 C   0  0  0  0  0  0  0  0  0  0  0  0
    6.1850   -0.5793    0.0000 Cl  0  0  0  0  0  0  0  0  0  0  0  0
  1  2  1  0  0  0  0
  3  2  1  0  0  0  0
  2  6  2  0  0  0  0
  4  3  2  0  0  0  0
  5  4  1  0  0  0  0
  6  5  1  0  0  0  0
  6  7  1  0  0  0  0
  7  8  1  0  0  0  0
  8  9  1  0  0  0  0
M  END
> <Inchi_key>
PCLITLDOTJTVDJ-UHFFFAOYSA-N

> <Source>
Mulliner

> <ID>
HT0526

> <H_MFHB>
1

> <CAS>
533-45-9

> <Cholestasis>


> <Name>
clomethiazole;chlormethiazole

> <Class>
1

$$$$