
  -INDIGO-08031710012D

 17 17  0  0  0  0  0  0  0  0999 V2000
   12.8824    1.5283    0.0000 C   0  0  0  0  0  0  0  0  0  0  0  0
   11.3824    1.5283    0.0000 C   0  0  0  0  0  0  0  0  0  0  0  0
   10.6324    2.8273    0.0000 C   0  0  0  0  0  0  0  0  0  0  0  0
   10.6324    0.2292    0.0000 N   0  0  0  0  0  0  0  0  0  0  0  0
    9.1324    0.2292    0.0000 C   0  0  0  0  0  0  0  0  0  0  0  0
    8.3824   -1.0698    0.0000 N   0  0  0  0  0  0  0  0  0  0  0  0
    8.3824    1.5283    0.0000 N   0  0  0  0  0  0  0  0  0  0  0  0
    6.8824    1.5283    0.0000 C   0  0  0  0  0  0  0  0  0  0  0  0
    6.1324    2.8273    0.0000 N   0  0  0  0  0  0  0  0  0  0  0  0
    6.1324    0.2292    0.0000 N   0  0  0  0  0  0  0  0  0  0  0  0
    4.6324    0.2292    0.0000 C   0  0  0  0  0  0  0  0  0  0  0  0
    3.8824   -1.0698    0.0000 C   0  0  0  0  0  0  0  0  0  0  0  0
    2.3824   -1.0698    0.0000 C   0  0  0  0  0  0  0  0  0  0  0  0
    1.6324    0.2292    0.0000 C   0  0  0  0  0  0  0  0  0  0  0  0
    0.1324    0.2292    0.0000 Cl  0  0  0  0  0  0  0  0  0  0  0  0
    2.3824    1.5283    0.0000 C   0  0  0  0  0  0  0  0  0  0  0  0
    3.8824    1.5283    0.0000 C   0  0  0  0  0  0  0  0  0  0  0  0
  1  2  1  0  0  0  0
  2  3  1  0  0  0  0
  2  4  1  0  0  0  0
  4  5  2  0  0  0  0
  5  6  1  0  0  0  0
  5  7  1  0  0  0  0
  7  8  2  0  0  0  0
  8  9  1  0  0  0  0
  8 10  1  0  0  0  0
 10 11  1  0  0  0  0
 12 11  2  0  0  0  0
 11 17  1  0  0  0  0
 13 12  1  0  0  0  0
 14 13  2  0  0  0  0
 14 15  1  0  0  0  0
 16 14  1  0  0  0  0
 17 16  2  0  0  0  0
M  END
> <Inchi_key>
SSOLNOMRVKKSON-UHFFFAOYSA-N

> <Source>
Mulliner

> <ID>
HT1753

> <H_MFHB>
1

> <CAS>


> <Cholestasis>


> <Name>
proguanil hydrochloride;proguanil;chlorguanide

> <Class>
1

$$$$