

  -INDIGO-08031710012D

 18 18  0  0  0  0  0  0  0  0999 V2000
    0.9757   -2.7753    0.0000 C   0  0  0  0  0  0  0  0  0  0  0  0
    2.2748   -2.0253    0.0000 O   0  0  0  0  0  0  0  0  0  0  0  0
    2.2748   -0.5253    0.0000 C   0  0  0  0  0  0  0  0  0  0  0  0
    3.5738    0.2247    0.0000 C   0  0  0  0  0  0  0  0  0  0  0  0
    3.5738    1.7247    0.0000 N   0  0  0  0  0  0  0  0  0  0  0  0
    2.2748    2.4747    0.0000 C   0  0  0  0  0  0  0  0  0  0  0  0
    0.9757    1.7247    0.0000 O   0  0  0  0  0  0  0  0  0  0  0  0
    2.2748    3.9747    0.0000 C   0  0  0  0  0  0  0  0  0  0  0  0
    4.8729   -0.5253    0.0000 C   0  0  0  0  0  0  0  0  0  0  0  0
    4.8729   -2.0253    0.0000 O   0  0  0  0  0  0  0  0  0  0  0  0
    6.1718    0.2247    0.0000 N   0  0  0  0  0  0  0  0  0  0  0  0
    7.4708   -0.5253    0.0000 C   0  0  0  0  0  0  0  0  0  0  0  0
    8.7699    0.2247    0.0000 C   0  0  0  0  0  0  0  0  0  0  0  0
    8.7699    1.7247    0.0000 C   0  0  0  0  0  0  0  0  0  0  0  0
   10.0689    2.4747    0.0000 C   0  0  0  0  0  0  0  0  0  0  0  0
   11.3680    1.7247    0.0000 C   0  0  0  0  0  0  0  0  0  0  0  0
   11.3680    0.2247    0.0000 C   0  0  0  0  0  0  0  0  0  0  0  0
   10.0689   -0.5253    0.0000 C   0  0  0  0  0  0  0  0  0  0  0  0
  1  2  1  0  0  0  0
  2  3  1  0  0  0  0
  3  4  1  0  0  0  0
  4  5  1  0  0  0  0
  4  9  1  0  0  0  0
  5  6  1  0  0  0  0
  6  7  2  0  0  0  0
  6  8  1  0  0  0  0
  9 10  2  0  0  0  0
  9 11  1  0  0  0  0
 11 12  1  0  0  0  0
 12 13  1  0  0  0  0
 14 13  2  0  0  0  0
 13 18  1  0  0  0  0
 15 14  1  0  0  0  0
 16 15  2  0  0  0  0
 17 16  1  0  0  0  0
 18 17  2  0  0  0  0
M  END
> <Inchi_key>
VPPJLAIAVCUEMN-UHFFFAOYSA-N

> <Source>
Mulliner

> <ID>
HT1164

> <H_MFHB>
1

> <CAS>


> <Cholestasis>


> <Name>
lacosamide

> <Class>
1


$$$$