

  -INDIGO-08031710012D

 24 25  0  0  0  0  0  0  0  0999 V2000
    4.0628    0.3754    0.0000 C   0  0  0  0  0  0  0  0  0  0  0  0
    4.0628    1.8754    0.0000 C   0  0  0  0  0  0  0  0  0  0  0  0
    5.3621    2.6254    0.0000 C   0  0  0  0  0  0  0  0  0  0  0  0
    6.6611    1.8754    0.0000 C   0  0  0  0  0  0  0  0  0  0  0  0
    7.9601    2.6254    0.0000 C   0  0  0  0  0  0  0  0  0  0  0  0
    9.2591    1.8754    0.0000 C   0  0  0  0  0  0  0  0  0  0  0  0
   10.5581    2.6254    0.0000 C   0  0  0  0  0  0  0  0  0  0  0  0
   10.5581    4.1254    0.0000 C   0  0  0  0  0  0  0  0  0  0  0  0
    9.2591    4.8754    0.0000 C   0  0  0  0  0  0  0  0  0  0  0  0
    7.9601    4.1254    0.0000 C   0  0  0  0  0  0  0  0  0  0  0  0
    2.7639    2.6254    0.0000 N   0  0  0  0  0  0  0  0  0  0  0  0
    1.4649    1.8754    0.0000 C   0  0  0  0  0  0  0  0  0  0  0  0
    0.1659    2.6254    0.0000 C   0  0  0  0  0  0  0  0  0  0  0  0
    0.1659    4.1254    0.0000 O   0  0  0  0  0  0  0  0  0  0  0  0
   -1.1331    1.8754    0.0000 C   0  0  0  0  0  0  0  0  0  0  0  0
   -1.1331    0.3754    0.0000 C   0  0  0  0  0  0  0  0  0  0  0  0
   -2.4324   -0.3746    0.0000 C   0  0  0  0  0  0  0  0  0  0  0  0
   -3.7314    0.3754    0.0000 C   0  0  0  0  0  0  0  0  0  0  0  0
   -5.0304   -0.3746    0.0000 O   0  0  0  0  0  0  0  0  0  0  0  0
   -3.7314    1.8754    0.0000 C   0  0  0  0  0  0  0  0  0  0  0  0
   -2.4324    2.6254    0.0000 C   0  0  0  0  0  0  0  0  0  0  0  0
   -5.0304    2.6254    0.0000 C   0  0  0  0  0  0  0  0  0  0  0  0
   -6.3294    1.8754    0.0000 O   0  0  0  0  0  0  0  0  0  0  0  0
   -5.0304    4.1254    0.0000 N   0  0  0  0  0  0  0  0  0  0  0  0
  1  2  1  0  0  0  0
  2  3  1  0  0  0  0
  2 11  1  0  0  0  0
  3  4  1  0  0  0  0
  4  5  1  0  0  0  0
  6  5  2  0  0  0  0
  5 10  1  0  0  0  0
  7  6  1  0  0  0  0
  8  7  2  0  0  0  0
  9  8  1  0  0  0  0
 10  9  2  0  0  0  0
 11 12  1  0  0  0  0
 12 13  1  0  0  0  0
 13 14  1  0  0  0  0
 13 15  1  0  0  0  0
 16 15  2  0  0  0  0
 15 21  1  0  0  0  0
 17 16  1  0  0  0  0
 18 17  2  0  0  0  0
 18 19  1  0  0  0  0
 20 18  1  0  0  0  0
 21 20  2  0  0  0  0
 20 22  1  0  0  0  0
 22 23  2  0  0  0  0
 22 24  1  0  0  0  0
M  END
> <Inchi_key>
SGUAFYQXFOLMHL-UHFFFAOYSA-N

> <Source>
Mulliner

> <ID>
HT0672

> <H_MFHB>
1

> <CAS>
32780-64-6

> <Cholestasis>


> <Name>
dilevalol;labetalol hydrochloride;labetalol

> <Class>
1


$$$$