

  -INDIGO-08031710012D

 31 34  0  0  0  0  0  0  0  0999 V2000
   13.0192   -3.4885    0.0000 O   0  0  0  0  0  0  0  0  0  0  0  0
   11.7203   -2.7384    0.0000 C   0  0  0  0  0  0  0  0  0  0  0  0
   10.4212   -3.4885    0.0000 C   0  0  0  0  0  0  0  0  0  0  0  0
    9.1221   -2.7384    0.0000 C   0  0  0  0  0  0  0  0  0  0  0  0
    9.1221   -1.2386    0.0000 O   0  0  0  0  0  0  0  0  0  0  0  0
    7.8230   -3.4885    0.0000 C   0  0  0  0  0  0  0  0  0  0  0  0
    6.5241   -2.7384    0.0000 C   0  0  0  0  0  0  0  0  0  0  0  0
    5.2250   -3.4885    0.0000 C   0  0  0  0  0  0  0  0  0  0  0  0
    5.2250   -4.9885    0.0000 C   0  0  0  0  0  0  0  0  0  0  0  0
    3.9259   -5.7385    0.0000 N   0  0  0  0  0  0  0  0  0  0  0  0
    2.6268   -4.9885    0.0000 C   0  0  0  0  0  0  0  0  0  0  0  0
    1.3279   -5.7385    0.0000 C   0  0  0  0  0  0  0  0  0  0  0  0
    0.0288   -4.9885    0.0000 C   0  0  0  0  0  0  0  0  0  0  0  0
    0.0288   -3.4885    0.0000 C   0  0  0  0  0  0  0  0  0  0  0  0
    1.3279   -2.7384    0.0000 C   0  0  0  0  0  0  0  0  0  0  0  0
    2.6268   -3.4885    0.0000 C   0  0  0  0  0  0  0  0  0  0  0  0
    3.9259   -2.7384    0.0000 C   0  0  0  0  0  0  0  0  0  0  0  0
    3.9259   -1.2386    0.0000 C   0  0  0  0  0  0  0  0  0  0  0  0
    5.2250   -0.4885    0.0000 C   0  0  0  0  0  0  0  0  0  0  0  0
    5.2250    1.0115    0.0000 C   0  0  0  0  0  0  0  0  0  0  0  0
    3.9259    1.7615    0.0000 C   0  0  0  0  0  0  0  0  0  0  0  0
    3.9259    3.2615    0.0000 F   0  0  0  0  0  0  0  0  0  0  0  0
    2.6268    1.0115    0.0000 C   0  0  0  0  0  0  0  0  0  0  0  0
    2.6268   -0.4885    0.0000 C   0  0  0  0  0  0  0  0  0  0  0  0
    6.5241   -5.7385    0.0000 C   0  0  0  0  0  0  0  0  0  0  0  0
    8.0240   -5.7385    0.0000 C   0  0  0  0  0  0  0  0  0  0  0  0
    7.2740   -7.0375    0.0000 C   0  0  0  0  0  0  0  0  0  0  0  0
   11.7203   -1.2386    0.0000 C   0  0  0  0  0  0  0  0  0  0  0  0
   13.0192   -0.4885    0.0000 C   0  0  0  0  0  0  0  0  0  0  0  0
   14.3183   -1.2386    0.0000 O   0  0  0  0  0  0  0  0  0  0  0  0
   13.0192    1.0115    0.0000 O   0  0  0  0  0  0  0  0  0  0  0  0
  1  2  1  0  0  0  0
  2  3  1  0  0  0  0
  2 28  1  0  0  0  0
  3  4  1  0  0  0  0
  4  5  1  0  0  0  0
  4  6  1  0  0  0  0
  6  7  2  0  0  0  0
  7  8  1  0  0  0  0
  9  8  2  0  0  0  0
  8 17  1  0  0  0  0
 10  9  1  0  0  0  0
  9 25  1  0  0  0  0
 11 10  2  0  0  0  0
 12 11  1  0  0  0  0
 11 16  1  0  0  0  0
 13 12  2  0  0  0  0
 14 13  1  0  0  0  0
 15 14  2  0  0  0  0
 16 15  1  0  0  0  0
 17 16  2  0  0  0  0
 17 18  1  0  0  0  0
 19 18  2  0  0  0  0
 18 24  1  0  0  0  0
 20 19  1  0  0  0  0
 21 20  2  0  0  0  0
 21 22  1  0  0  0  0
 23 21  1  0  0  0  0
 24 23  2  0  0  0  0
 26 25  1  0  0  0  0
 25 27  1  0  0  0  0
 27 26  1  0  0  0  0
 28 29  1  0  0  0  0
 29 30  2  0  0  0  0
 29 31  1  0  0  0  0
M  END
> <Inchi_key>
VGYFMXBACGZSIL-VAWYXSNFSA-N

> <Source>
Mulliner

> <ID>
HT1698

> <H_MFHB>
1

> <CAS>


> <Cholestasis>


> <Name>
pitavastatin calcium

> <Class>
1


$$$$