
  -INDIGO-08031710012D

 28 32  0  0  0  0  0  0  0  0999 V2000
   18.1668    2.3754    0.0000 O   0  0  0  0  0  0  0  0  0  0  0  0
   16.8678    3.1254    0.0000 C   0  0  0  0  0  0  0  0  0  0  0  0
   15.4974    2.5153    0.0000 C   0  0  0  0  0  0  0  0  0  0  0  0
   14.4937    3.6300    0.0000 C   0  0  0  0  0  0  0  0  0  0  0  0
   12.9936    3.6300    0.0000 C   0  0  0  0  0  0  0  0  0  0  0  0
   12.2437    4.9291    0.0000 C   0  0  0  0  0  0  0  0  0  0  0  0
   10.7436    4.9291    0.0000 C   0  0  0  0  0  0  0  0  0  0  0  0
    9.9937    3.6300    0.0000 C   0  0  0  0  0  0  0  0  0  0  0  0
    8.4936    3.6300    0.0000 N   0  0  0  0  0  0  0  0  0  0  0  0
    7.7437    2.3311    0.0000 C   0  0  0  0  0  0  0  0  0  0  0  0
    6.2438    2.3311    0.0000 C   0  0  0  0  0  0  0  0  0  0  0  0
    5.4936    3.6300    0.0000 N   0  0  0  0  0  0  0  0  0  0  0  0
    6.2438    4.9291    0.0000 C   0  0  0  0  0  0  0  0  0  0  0  0
    7.7437    4.9291    0.0000 C   0  0  0  0  0  0  0  0  0  0  0  0
    3.9938    3.6300    0.0000 C   0  0  0  0  0  0  0  0  0  0  0  0
    3.1120    4.8436    0.0000 N   0  0  0  0  0  0  0  0  0  0  0  0
    1.6855    4.3800    0.0000 S   0  0  0  0  0  0  0  0  0  0  0  0
    1.6855    2.8800    0.0000 C   0  0  0  0  0  0  0  0  0  0  0  0
    0.5707    1.8763    0.0000 C   0  0  0  0  0  0  0  0  0  0  0  0
    0.8827    0.4092    0.0000 C   0  0  0  0  0  0  0  0  0  0  0  0
    2.3092   -0.0544    0.0000 C   0  0  0  0  0  0  0  0  0  0  0  0
    3.4238    0.9493    0.0000 C   0  0  0  0  0  0  0  0  0  0  0  0
    3.1120    2.4165    0.0000 C   0  0  0  0  0  0  0  0  0  0  0  0
   12.9936    6.2281    0.0000 C   0  0  0  0  0  0  0  0  0  0  0  0
   12.2437    7.5271    0.0000 Cl  0  0  0  0  0  0  0  0  0  0  0  0
   14.4937    6.2281    0.0000 C   0  0  0  0  0  0  0  0  0  0  0  0
   15.2436    4.9291    0.0000 C   0  0  0  0  0  0  0  0  0  0  0  0
   16.7110    4.6172    0.0000 N   0  0  0  0  0  0  0  0  0  0  0  0
  1  2  1  0  0  0  0
  3  2  2  0  0  0  0
  2 28  1  0  0  0  0
  4  3  1  0  0  0  0
  5  4  2  0  0  0  0
  4 27  1  0  0  0  0
  6  5  1  0  0  0  0
  6  7  1  0  0  0  0
 24  6  2  0  0  0  0
  7  8  1  0  0  0  0
  8  9  1  0  0  0  0
 10  9  1  0  0  0  0
  9 14  1  0  0  0  0
 11 10  1  0  0  0  0
 12 11  1  0  0  0  0
 13 12  1  0  0  0  0
 12 15  1  0  0  0  0
 14 13  1  0  0  0  0
 16 15  2  0  0  0  0
 15 23  1  0  0  0  0
 17 16  1  0  0  0  0
 18 17  1  0  0  0  0
 19 18  1  0  0  0  0
 18 23  2  0  0  0  0
 20 19  2  0  0  0  0
 21 20  1  0  0  0  0
 22 21  2  0  0  0  0
 23 22  1  0  0  0  0
 24 25  1  0  0  0  0
 26 24  1  0  0  0  0
 27 26  2  0  0  0  0
 28 27  1  0  0  0  0
M  END
> <Inchi_key>
CARRCRVKWDEWCD-UHFFFAOYSA-N

> <Source>
Mulliner

> <ID>
HT2216

> <H_MFHB>
1

> <CAS>


> <Cholestasis>


> <Name>
ziprasidone hydrochloride;ziprasidone mesylate;ziprasidone

> <Class>
1

$$$$