
  -INDIGO-08031710012D

 32 36  0  0  0  0  0  0  0  0999 V2000
   12.7914   -6.0569    0.0000 O   0  0  0  0  0  0  0  0  0  0  0  0
   11.4899   -5.3113    0.0000 C   0  0  0  0  0  0  0  0  0  0  0  0
   10.1932   -6.0657    0.0000 N   0  0  0  0  0  0  0  0  0  0  0  0
   11.4847   -3.8113    0.0000 C   0  0  0  0  0  0  0  0  0  0  0  0
   10.1831   -3.0659    0.0000 C   0  0  0  0  0  0  0  0  0  0  0  0
    8.8865   -3.8202    0.0000 N   0  0  0  0  0  0  0  0  0  0  0  0
    8.8916   -5.3202    0.0000 C   0  0  0  0  0  0  0  0  0  0  0  0
    7.5952   -6.0746    0.0000 N   0  0  0  0  0  0  0  0  0  0  0  0
    7.6004   -7.5746    0.0000 C   0  0  0  0  0  0  0  0  0  0  0  0
    6.2937   -5.3290    0.0000 C   0  0  0  0  0  0  0  0  0  0  0  0
    4.9973   -6.0834    0.0000 C   0  0  0  0  0  0  0  0  0  0  0  0
    6.2885   -3.8290    0.0000 C   0  0  0  0  0  0  0  0  0  0  0  0
    3.6955   -5.3378    0.0000 C   0  0  0  0  0  0  0  0  0  0  0  0
    4.9870   -3.0834    0.0000 C   0  0  0  0  0  0  0  0  0  0  0  0
    3.6906   -3.8378    0.0000 N   0  0  0  0  0  0  0  0  0  0  0  0
    2.3888   -3.0922    0.0000 C   0  0  0  0  0  0  0  0  0  0  0  0
    2.2271   -1.6010    0.0000 N   0  0  0  0  0  0  0  0  0  0  0  0
    1.0208   -3.7070    0.0000 N   0  0  0  0  0  0  0  0  0  0  0  0
    0.7587   -1.2941    0.0000 C   0  0  0  0  0  0  0  0  0  0  0  0
    0.0133   -2.5957    0.0000 C   0  0  0  0  0  0  0  0  0  0  0  0
    0.7137   -5.1753    0.0000 C   0  0  0  0  0  0  0  0  0  0  0  0
    0.0043    0.0024    0.0000 C   0  0  0  0  0  0  0  0  0  0  0  0
   -1.4868   -2.6008    0.0000 C   0  0  0  0  0  0  0  0  0  0  0  0
   -0.7113   -5.6436    0.0000 C   0  0  0  0  0  0  0  0  0  0  0  0
   -1.4955   -0.0027    0.0000 C   0  0  0  0  0  0  0  0  0  0  0  0
   -2.2412   -1.3043    0.0000 C   0  0  0  0  0  0  0  0  0  0  0  0
   -1.8292   -4.6437    0.0000 C   0  0  0  0  0  0  0  0  0  0  0  0
   -1.0181   -7.1119    0.0000 C   0  0  0  0  0  0  0  0  0  0  0  0
   -3.2544   -5.1121    0.0000 C   0  0  0  0  0  0  0  0  0  0  0  0
   -2.4431   -7.5803    0.0000 C   0  0  0  0  0  0  0  0  0  0  0  0
   -3.5612   -6.5804    0.0000 C   0  0  0  0  0  0  0  0  0  0  0  0
   -4.9862   -7.0488    0.0000 F   0  0  0  0  0  0  0  0  0  0  0  0
  1  2  2  0  0  0  0
  3  2  1  0  0  0  0
  2  4  1  0  0  0  0
  4  5  2  0  0  0  0
  5  6  1  0  0  0  0
  6  7  2  0  0  0  0
  7  8  1  0  0  0  0
  7  3  1  0  0  0  0
  8  9  1  0  0  0  0
  8 10  1  0  0  0  0
 11 10  1  0  0  0  0
 10 12  1  0  0  0  0
 13 11  1  0  0  0  0
 12 14  1  0  0  0  0
 15 13  1  0  0  0  0
 14 15  1  0  0  0  0
 15 16  1  0  0  0  0
 17 16  2  0  0  0  0
 16 18  1  0  0  0  0
 19 17  1  0  0  0  0
 18 20  1  0  0  0  0
 18 21  1  0  0  0  0
 22 19  2  0  0  0  0
 19 20  1  0  0  0  0
 20 23  2  0  0  0  0
 21 24  1  0  0  0  0
 25 22  1  0  0  0  0
 23 26  1  0  0  0  0
 27 24  2  0  0  0  0
 24 28  1  0  0  0  0
 26 25  2  0  0  0  0
 29 27  1  0  0  0  0
 28 30  2  0  0  0  0
 31 29  2  0  0  0  0
 30 31  1  0  0  0  0
 31 32  1  0  0  0  0
M  END
> <Inchi_key>
PVLJETXTTWAYEW-UHFFFAOYSA-N

> <Source>
Mulliner

> <ID>
HT1420

> <H_MFHB>
1

> <CAS>


> <Cholestasis>


> <Name>
mizolastine

> <Class>
1

$$$$