
  -INDIGO-08031710012D

 14 16  0  0  0  0  0  0  0  0999 V2000
   -8.0854   -2.6271    0.0000 C   0  0  0  0  0  0  0  0  0  0  0  0
   -8.0854   -1.1271    0.0000 C   0  0  0  0  0  0  0  0  0  0  0  0
   -6.7864   -0.3771    0.0000 C   0  0  0  0  0  0  0  0  0  0  0  0
   -5.4873   -1.1271    0.0000 C   0  0  0  0  0  0  0  0  0  0  0  0
   -4.0607   -0.6636    0.0000 N   0  0  0  0  0  0  0  0  0  0  0  0
   -3.1791   -1.8771    0.0000 C   0  0  0  0  0  0  0  0  0  0  0  0
   -4.0607   -3.0906    0.0000 N   0  0  0  0  0  0  0  0  0  0  0  0
   -5.4873   -2.6271    0.0000 C   0  0  0  0  0  0  0  0  0  0  0  0
   -6.7864   -3.3771    0.0000 C   0  0  0  0  0  0  0  0  0  0  0  0
   -1.6791   -1.8771    0.0000 C   0  0  0  0  0  0  0  0  0  0  0  0
   -0.7974   -0.6636    0.0000 C   0  0  0  0  0  0  0  0  0  0  0  0
    0.6292   -1.1271    0.0000 S   0  0  0  0  0  0  0  0  0  0  0  0
    0.6292   -2.6271    0.0000 C   0  0  0  0  0  0  0  0  0  0  0  0
   -0.7974   -3.0906    0.0000 N   0  0  0  0  0  0  0  0  0  0  0  0
  2  1  2  0  0  0  0
  1  9  1  0  0  0  0
  3  2  1  0  0  0  0
  4  3  2  0  0  0  0
  5  4  1  0  0  0  0
  4  8  1  0  0  0  0
  6  5  1  0  0  0  0
  7  6  2  0  0  0  0
  6 10  1  0  0  0  0
  8  7  1  0  0  0  0
  9  8  2  0  0  0  0
 11 10  2  0  0  0  0
 10 14  1  0  0  0  0
 12 11  1  0  0  0  0
 13 12  1  0  0  0  0
 14 13  2  0  0  0  0
M  END
> <Inchi_key>
WJCNZQLZVWNLKY-UHFFFAOYSA-N

> <Source>
Mulliner , Kotsampasakou

> <ID>
EK0523;HT2034

> <H_MFHB>
1

> <CAS>
148-79-8

> <Cholestasis>
1

> <Name>
thiabendazole

> <Class>
1

$$$$