

  -INDIGO-08031709442D

 24 29  0  0  0  0  0  0  0  0999 V2000
    0.7013    4.9374    0.0000 O   0  0  0  0  0  0  0  0  0  0  0  0
    0.6119    3.4379    0.0000 C   0  0  0  0  0  0  0  0  0  0  0  0
    1.8139    2.5250    0.0000 N   0  0  0  0  0  0  0  0  0  0  0  0
    1.5916    0.6772    0.0000 C   0  0  0  0  0  0  0  0  0  0  0  0
    0.6819    0.4102    0.0000 C   0  0  0  0  0  0  0  0  0  0  0  0
   -0.7411    1.2770    0.0000 C   0  0  0  0  0  0  0  0  0  0  0  0
   -0.3869    2.7901    0.0000 C   0  0  0  0  0  0  0  0  0  0  0  0
    1.6617    2.9608    0.0000 C   0  0  0  0  0  0  0  0  0  0  0  0
    3.5532    2.8043    0.0000 C   0  0  0  0  0  0  0  0  0  0  0  0
    4.8942    3.4221    0.0000 N   0  0  0  0  0  0  0  0  0  0  0  0
    5.9467    2.3642    0.0000 C   0  0  0  0  0  0  0  0  0  0  0  0
    5.2595    1.0374    0.0000 C   0  0  0  0  0  0  0  0  0  0  0  0
    3.7937    1.2295    0.0000 C   0  0  0  0  0  0  0  0  0  0  0  0
    2.9980    0.1694    0.0000 C   0  0  0  0  0  0  0  0  0  0  0  0
    2.0350    1.6958    0.0000 C   0  0  0  0  0  0  0  0  0  0  0  0
    2.2512    3.2028    0.0000 O   0  0  0  0  0  0  0  0  0  0  0  0
    6.0873   -0.2167    0.0000 C   0  0  0  0  0  0  0  0  0  0  0  0
    7.5822   -0.1129    0.0000 C   0  0  0  0  0  0  0  0  0  0  0  0
    8.2572    1.2271    0.0000 C   0  0  0  0  0  0  0  0  0  0  0  0
    7.4403    2.4856    0.0000 C   0  0  0  0  0  0  0  0  0  0  0  0
    5.1708    4.8988    0.0000 C   0  0  0  0  0  0  0  0  0  0  0  0
   -0.9216    2.5246    0.0000 C   0  0  0  0  0  0  0  0  0  0  0  0
   -2.2777    3.1623    0.0000 C   0  0  0  0  0  0  0  0  0  0  0  0
   -3.5108    2.3082    0.0000 C   0  0  0  0  0  0  0  0  0  0  0  0
  1  2  1  0  0  0  0
  3  2  1  0  0  0  0
  2 22  1  0  0  0  0
  4  3  1  0  0  0  0
  3  8  1  0  0  0  0
  5  4  1  0  0  0  0
  4 14  1  0  0  0  0
  5  6  1  0  0  0  0
 15  5  1  0  0  0  0
  6  7  1  0  0  0  0
 22  6  1  0  0  0  0
  7  8  1  0  0  0  0
  8  9  1  0  0  0  0
 10  9  1  0  0  0  0
  9 13  1  0  0  0  0
 11 10  1  0  0  0  0
 10 21  1  0  0  0  0
 11 12  2  0  0  0  0
 20 11  1  0  0  0  0
 13 12  1  0  0  0  0
 12 17  1  0  0  0  0
 14 13  1  0  0  0  0
 13 15  1  0  0  0  0
 15 16  1  0  0  0  0
 17 18  2  0  0  0  0
 18 19  1  0  0  0  0
 19 20  2  0  0  0  0
 22 23  1  0  0  0  0
 23 24  1  0  0  0  0
M  END
> <Inchi_key>
CJDRUOGAGYHKKD-UHFFFAOYSA-N

> <Source>
Kotsampasakou

> <ID>
EK0013

> <H_MFHB>


> <CAS>


> <Cholestasis>
1

> <Name>
ajmaline

> <Class>
1


$$$$