

  -INDIGO-08031710012D

 21 22  0  0  0  0  0  0  0  0999 V2000
   -1.4238    3.0993    0.0000 C   0  0  0  0  0  0  0  0  0  0  0  0
   -0.1247    2.3493    0.0000 O   0  0  0  0  0  0  0  0  0  0  0  0
    1.1743    3.0993    0.0000 C   0  0  0  0  0  0  0  0  0  0  0  0
    2.4734    2.3493    0.0000 C   0  0  0  0  0  0  0  0  0  0  0  0
    3.7724    3.0993    0.0000 C   0  0  0  0  0  0  0  0  0  0  0  0
    5.0715    2.3493    0.0000 N   0  0  0  0  0  0  0  0  0  0  0  0
    6.3704    3.0993    0.0000 S   0  0  0  0  0  0  0  0  0  0  0  0
    5.6206    4.3983    0.0000 O   0  0  0  0  0  0  0  0  0  0  0  0
    7.1205    1.8002    0.0000 O   0  0  0  0  0  0  0  0  0  0  0  0
    7.6696    3.8493    0.0000 C   0  0  0  0  0  0  0  0  0  0  0  0
    8.9685    3.0993    0.0000 C   0  0  0  0  0  0  0  0  0  0  0  0
   10.2677    3.8493    0.0000 C   0  0  0  0  0  0  0  0  0  0  0  0
   10.2677    5.3493    0.0000 C   0  0  0  0  0  0  0  0  0  0  0  0
   11.5666    6.0993    0.0000 N   0  0  0  0  0  0  0  0  0  0  0  0
    8.9685    6.0993    0.0000 C   0  0  0  0  0  0  0  0  0  0  0  0
    7.6696    5.3493    0.0000 C   0  0  0  0  0  0  0  0  0  0  0  0
    3.7724    4.5993    0.0000 N   0  0  0  0  0  0  0  0  0  0  0  0
    2.4734    5.3493    0.0000 C   0  0  0  0  0  0  0  0  0  0  0  0
    2.4734    6.8493    0.0000 O   0  0  0  0  0  0  0  0  0  0  0  0
    1.1743    7.5993    0.0000 C   0  0  0  0  0  0  0  0  0  0  0  0
    1.1743    4.5993    0.0000 N   0  0  0  0  0  0  0  0  0  0  0  0
  1  2  1  0  0  0  0
  2  3  1  0  0  0  0
  4  3  2  0  0  0  0
  3 21  1  0  0  0  0
  5  4  1  0  0  0  0
  5  6  1  0  0  0  0
 17  5  2  0  0  0  0
  6  7  1  0  0  0  0
  7  8  2  0  0  0  0
  7  9  2  0  0  0  0
  7 10  1  0  0  0  0
 11 10  2  0  0  0  0
 10 16  1  0  0  0  0
 12 11  1  0  0  0  0
 13 12  2  0  0  0  0
 13 14  1  0  0  0  0
 15 13  1  0  0  0  0
 16 15  2  0  0  0  0
 18 17  1  0  0  0  0
 18 19  1  0  0  0  0
 21 18  2  0  0  0  0
 19 20  1  0  0  0  0
M  END
> <Inchi_key>
ZZORFUFYDOWNEF-UHFFFAOYSA-N

> <Source>
Mulliner

> <ID>
HT1938

> <H_MFHB>
1

> <CAS>
11/2/122

> <Cholestasis>


> <Name>
sulfadimethoxine

> <Class>
1


$$$$