
  -INDIGO-08031710012D

 30 33  0  0  0  0  0  0  0  0999 V2000
    6.2517    6.2516    0.0000 O   0  0  0  0  0  0  0  0  0  0  0  0
    6.2517    4.7517    0.0000 C   0  0  0  0  0  0  0  0  0  0  0  0
    4.9526    4.0017    0.0000 C   0  0  0  0  0  0  0  0  0  0  0  0
    3.6536    4.7517    0.0000 C   0  0  0  0  0  0  0  0  0  0  0  0
    2.3545    4.0017    0.0000 C   0  0  0  0  0  0  0  0  0  0  0  0
    0.9057    4.3898    0.0000 C   0  0  0  0  0  0  0  0  0  0  0  0
    0.5173    2.9410    0.0000 N   0  0  0  0  0  0  0  0  0  0  0  0
    1.9662    2.5527    0.0000 C   0  0  0  0  0  0  0  0  0  0  0  0
    2.7163    1.2536    0.0000 O   0  0  0  0  0  0  0  0  0  0  0  0
   -0.7817    2.1910    0.0000 C   0  0  0  0  0  0  0  0  0  0  0  0
   -0.7817    0.6910    0.0000 C   0  0  0  0  0  0  0  0  0  0  0  0
   -2.0807   -0.0590    0.0000 C   0  0  0  0  0  0  0  0  0  0  0  0
   -3.3798    0.6910    0.0000 C   0  0  0  0  0  0  0  0  0  0  0  0
   -4.6788   -0.0590    0.0000 F   0  0  0  0  0  0  0  0  0  0  0  0
   -3.3798    2.1910    0.0000 C   0  0  0  0  0  0  0  0  0  0  0  0
   -2.0807    2.9410    0.0000 C   0  0  0  0  0  0  0  0  0  0  0  0
    0.1556    5.6889    0.0000 C   0  0  0  0  0  0  0  0  0  0  0  0
    0.9057    6.9880    0.0000 C   0  0  0  0  0  0  0  0  0  0  0  0
    0.1556    8.2870    0.0000 C   0  0  0  0  0  0  0  0  0  0  0  0
   -1.3445    8.2870    0.0000 C   0  0  0  0  0  0  0  0  0  0  0  0
   -2.0945    9.5860    0.0000 O   0  0  0  0  0  0  0  0  0  0  0  0
   -2.0945    6.9880    0.0000 C   0  0  0  0  0  0  0  0  0  0  0  0
   -1.3445    5.6889    0.0000 C   0  0  0  0  0  0  0  0  0  0  0  0
    7.5507    4.0017    0.0000 C   0  0  0  0  0  0  0  0  0  0  0  0
    7.5507    2.5017    0.0000 C   0  0  0  0  0  0  0  0  0  0  0  0
    8.8497    1.7517    0.0000 C   0  0  0  0  0  0  0  0  0  0  0  0
   10.1488    2.5017    0.0000 C   0  0  0  0  0  0  0  0  0  0  0  0
   11.4478    1.7517    0.0000 F   0  0  0  0  0  0  0  0  0  0  0  0
   10.1488    4.0017    0.0000 C   0  0  0  0  0  0  0  0  0  0  0  0
    8.8497    4.7517    0.0000 C   0  0  0  0  0  0  0  0  0  0  0  0
  1  2  1  0  0  0  0
  2  3  1  0  0  0  0
  2 24  1  0  0  0  0
  3  4  1  0  0  0  0
  4  5  1  0  0  0  0
  6  5  1  0  0  0  0
  5  8  1  0  0  0  0
  7  6  1  0  0  0  0
  6 17  1  0  0  0  0
  8  7  1  0  0  0  0
  7 10  1  0  0  0  0
  8  9  2  0  0  0  0
 11 10  2  0  0  0  0
 10 16  1  0  0  0  0
 12 11  1  0  0  0  0
 13 12  2  0  0  0  0
 13 14  1  0  0  0  0
 15 13  1  0  0  0  0
 16 15  2  0  0  0  0
 18 17  2  0  0  0  0
 17 23  1  0  0  0  0
 19 18  1  0  0  0  0
 20 19  2  0  0  0  0
 20 21  1  0  0  0  0
 22 20  1  0  0  0  0
 23 22  2  0  0  0  0
 25 24  2  0  0  0  0
 24 30  1  0  0  0  0
 26 25  1  0  0  0  0
 27 26  2  0  0  0  0
 27 28  1  0  0  0  0
 29 27  1  0  0  0  0
 30 29  2  0  0  0  0
M  END
> <Inchi_key>
OLNTVTPDXPETLC-UHFFFAOYSA-N

> <Source>
Mulliner

> <ID>
HT0843

> <H_MFHB>
1

> <CAS>
163222-33-1

> <Cholestasis>


> <Name>
ezetimibe;zetia

> <Class>
1

$$$$