
  -INDIGO-08031710012D

 25 27  0  0  0  0  0  0  0  0999 V2000
    7.4935   -4.0723    0.0000 S   0  0  0  0  0  0  0  0  0  0  0  0
    7.4935   -2.5723    0.0000 O   0  0  0  0  0  0  0  0  0  0  0  0
    8.7925   -4.8223    0.0000 C   0  0  0  0  0  0  0  0  0  0  0  0
    6.1942   -4.8223    0.0000 C   0  0  0  0  0  0  0  0  0  0  0  0
    4.8240   -4.2122    0.0000 N   0  0  0  0  0  0  0  0  0  0  0  0
    6.0375   -6.3141    0.0000 N   0  0  0  0  0  0  0  0  0  0  0  0
    3.8202   -5.3269    0.0000 C   0  0  0  0  0  0  0  0  0  0  0  0
    4.5703   -6.6260    0.0000 C   0  0  0  0  0  0  0  0  0  0  0  0
    2.3204   -5.3269    0.0000 C   0  0  0  0  0  0  0  0  0  0  0  0
    3.8202   -7.9250    0.0000 C   0  0  0  0  0  0  0  0  0  0  0  0
    1.5703   -6.6260    0.0000 C   0  0  0  0  0  0  0  0  0  0  0  0
    2.3204   -7.9250    0.0000 C   0  0  0  0  0  0  0  0  0  0  0  0
   10.0915   -4.0723    0.0000 C   0  0  0  0  0  0  0  0  0  0  0  0
   10.0915   -2.5723    0.0000 N   0  0  0  0  0  0  0  0  0  0  0  0
   11.3905   -4.8223    0.0000 C   0  0  0  0  0  0  0  0  0  0  0  0
   11.3905   -1.8223    0.0000 C   0  0  0  0  0  0  0  0  0  0  0  0
   12.6895   -4.0723    0.0000 C   0  0  0  0  0  0  0  0  0  0  0  0
   11.3905   -6.3223    0.0000 C   0  0  0  0  0  0  0  0  0  0  0  0
   12.6895   -2.5723    0.0000 C   0  0  0  0  0  0  0  0  0  0  0  0
   13.9885   -4.8223    0.0000 O   0  0  0  0  0  0  0  0  0  0  0  0
   15.2875   -4.0723    0.0000 C   0  0  0  0  0  0  0  0  0  0  0  0
   16.5867   -4.8223    0.0000 C   0  0  0  0  0  0  0  0  0  0  0  0
   17.8857   -4.0723    0.0000 C   0  0  0  0  0  0  0  0  0  0  0  0
   19.1847   -4.8223    0.0000 O   0  0  0  0  0  0  0  0  0  0  0  0
   20.4837   -4.0723    0.0000 C   0  0  0  0  0  0  0  0  0  0  0  0
  1  2  1  0  0  0  0
  1  3  1  0  0  0  0
  1  4  1  0  0  0  0
  5  4  2  0  0  0  0
  4  6  1  0  0  0  0
  7  5  1  0  0  0  0
  6  8  1  0  0  0  0
  9  7  2  0  0  0  0
  7  8  1  0  0  0  0
  8 10  2  0  0  0  0
 11  9  1  0  0  0  0
 10 12  1  0  0  0  0
 12 11  2  0  0  0  0
  3 13  1  0  0  0  0
 14 13  2  0  0  0  0
 13 15  1  0  0  0  0
 16 14  1  0  0  0  0
 15 17  2  0  0  0  0
 15 18  1  0  0  0  0
 19 16  2  0  0  0  0
 17 20  1  0  0  0  0
 17 19  1  0  0  0  0
 20 21  1  0  0  0  0
 21 22  1  0  0  0  0
 22 23  1  0  0  0  0
 23 24  1  0  0  0  0
 24 25  1  0  0  0  0
M  CHG  2   1   1   2  -1
M  END
> <Inchi_key>
YREYEVIYCVEVJK-UHFFFAOYSA-N

> <Source>
Mulliner

> <ID>
HT1792

> <H_MFHB>
1

> <CAS>


> <Cholestasis>


> <Name>
rabeprazole sodium

> <Class>
1

$$$$