

  -INDIGO-08031710012D

 35 37  0  0  0  0  0  0  0  0999 V2000
    6.2252   -7.3300    0.0000 C   0  0  0  0  0  0  0  0  0  0  0  0
    4.7252   -7.3300    0.0000 C   0  0  0  0  0  0  0  0  0  0  0  0
    3.9752   -8.6291    0.0000 C   0  0  0  0  0  0  0  0  0  0  0  0
    3.9752   -6.0311    0.0000 C   0  0  0  0  0  0  0  0  0  0  0  0
    4.7252   -4.7320    0.0000 N   0  0  0  0  0  0  0  0  0  0  0  0
    3.9752   -3.4329    0.0000 C   0  0  0  0  0  0  0  0  0  0  0  0
    2.4750   -3.4329    0.0000 C   0  0  0  0  0  0  0  0  0  0  0  0
    1.7250   -4.7320    0.0000 O   0  0  0  0  0  0  0  0  0  0  0  0
    1.7250   -2.1339    0.0000 C   0  0  0  0  0  0  0  0  0  0  0  0
    2.4750   -0.8348    0.0000 C   0  0  0  0  0  0  0  0  0  0  0  0
    1.7250    0.4643    0.0000 C   0  0  0  0  0  0  0  0  0  0  0  0
    0.2250    0.4643    0.0000 C   0  0  0  0  0  0  0  0  0  0  0  0
   -0.5250    1.7632    0.0000 C   0  0  0  0  0  0  0  0  0  0  0  0
    0.2250    3.0623    0.0000 C   0  0  0  0  0  0  0  0  0  0  0  0
    1.7250    3.0623    0.0000 C   0  0  0  0  0  0  0  0  0  0  0  0
    2.4750    1.7632    0.0000 C   0  0  0  0  0  0  0  0  0  0  0  0
    0.2250   -2.1339    0.0000 N   0  0  0  0  0  0  0  0  0  0  0  0
   -0.5250   -3.4329    0.0000 C   0  0  0  0  0  0  0  0  0  0  0  0
    0.2250   -4.7320    0.0000 O   0  0  0  0  0  0  0  0  0  0  0  0
   -2.0249   -3.4329    0.0000 O   0  0  0  0  0  0  0  0  0  0  0  0
   -2.7749   -4.7320    0.0000 C   0  0  0  0  0  0  0  0  0  0  0  0
   -4.2667   -4.8888    0.0000 C   0  0  0  0  0  0  0  0  0  0  0  0
   -4.5785   -6.3559    0.0000 C   0  0  0  0  0  0  0  0  0  0  0  0
   -3.2795   -7.1059    0.0000 O   0  0  0  0  0  0  0  0  0  0  0  0
   -2.1647   -6.1023    0.0000 C   0  0  0  0  0  0  0  0  0  0  0  0
    6.2252   -4.7320    0.0000 S   0  0  0  0  0  0  0  0  0  0  0  0
    6.2252   -6.2319    0.0000 O   0  0  0  0  0  0  0  0  0  0  0  0
    6.2252   -3.2320    0.0000 O   0  0  0  0  0  0  0  0  0  0  0  0
    7.7252   -4.7320    0.0000 C   0  0  0  0  0  0  0  0  0  0  0  0
    8.4752   -3.4329    0.0000 C   0  0  0  0  0  0  0  0  0  0  0  0
    9.9751   -3.4329    0.0000 C   0  0  0  0  0  0  0  0  0  0  0  0
   10.7251   -4.7320    0.0000 C   0  0  0  0  0  0  0  0  0  0  0  0
   12.2251   -4.7320    0.0000 N   0  0  0  0  0  0  0  0  0  0  0  0
    9.9751   -6.0311    0.0000 C   0  0  0  0  0  0  0  0  0  0  0  0
    8.4752   -6.0311    0.0000 C   0  0  0  0  0  0  0  0  0  0  0  0
  1  2  1  0  0  0  0
  2  3  1  0  0  0  0
  2  4  1  0  0  0  0
  4  5  1  0  0  0  0
  5  6  1  0  0  0  0
  5 26  1  0  0  0  0
  6  7  1  0  0  0  0
  7  8  1  0  0  0  0
  7  9  1  0  0  0  0
  9 10  1  0  0  0  0
  9 17  1  0  0  0  0
 10 11  1  0  0  0  0
 12 11  2  0  0  0  0
 11 16  1  0  0  0  0
 13 12  1  0  0  0  0
 14 13  2  0  0  0  0
 15 14  1  0  0  0  0
 16 15  2  0  0  0  0
 17 18  1  0  0  0  0
 18 19  2  0  0  0  0
 18 20  1  0  0  0  0
 20 21  1  0  0  0  0
 22 21  1  0  0  0  0
 21 25  1  0  0  0  0
 23 22  1  0  0  0  0
 24 23  1  0  0  0  0
 25 24  1  0  0  0  0
 26 27  2  0  0  0  0
 26 28  2  0  0  0  0
 26 29  1  0  0  0  0
 30 29  2  0  0  0  0
 29 35  1  0  0  0  0
 31 30  1  0  0  0  0
 32 31  2  0  0  0  0
 32 33  1  0  0  0  0
 34 32  1  0  0  0  0
 35 34  2  0  0  0  0
M  END
> <Inchi_key>
YMARZQAQMVYCKC-UHFFFAOYSA-N

> <Source>
Mulliner

> <ID>
HT0154

> <H_MFHB>
1

> <CAS>


> <Cholestasis>


> <Name>
amprenavir

> <Class>
1


$$$$