

  -INDIGO-08031710012D

 20 23  0  0  0  0  0  0  0  0999 V2000
    3.3774    4.9538    0.0000 C   0  0  0  0  0  0  0  0  0  0  0  0
    3.7607    3.5036    0.0000 N   0  0  0  0  0  0  0  0  0  0  0  0
    2.8127    2.3411    0.0000 C   0  0  0  0  0  0  0  0  0  0  0  0
    3.6254    1.0804    0.0000 C   0  0  0  0  0  0  0  0  0  0  0  0
    5.0756    1.4636    0.0000 C   0  0  0  0  0  0  0  0  0  0  0  0
    5.1592    2.9613    0.0000 C   0  0  0  0  0  0  0  0  0  0  0  0
    6.2799    0.5695    0.0000 C   0  0  0  0  0  0  0  0  0  0  0  0
    7.5520    1.3643    0.0000 C   0  0  0  0  0  0  0  0  0  0  0  0
    8.8764    0.6603    0.0000 C   0  0  0  0  0  0  0  0  0  0  0  0
   10.1484    1.4553    0.0000 Cl  0  0  0  0  0  0  0  0  0  0  0  0
    8.9289   -0.8388    0.0000 C   0  0  0  0  0  0  0  0  0  0  0  0
    7.6570   -1.6338    0.0000 C   0  0  0  0  0  0  0  0  0  0  0  0
    6.3324   -0.9297    0.0000 C   0  0  0  0  0  0  0  0  0  0  0  0
    5.1935   -1.9059    0.0000 O   0  0  0  0  0  0  0  0  0  0  0  0
    3.7200   -1.6212    0.0000 C   0  0  0  0  0  0  0  0  0  0  0  0
    2.9186   -2.8892    0.0000 C   0  0  0  0  0  0  0  0  0  0  0  0
    1.4198   -2.8291    0.0000 C   0  0  0  0  0  0  0  0  0  0  0  0
    0.7224   -1.5011    0.0000 C   0  0  0  0  0  0  0  0  0  0  0  0
    1.5238   -0.2331    0.0000 C   0  0  0  0  0  0  0  0  0  0  0  0
    3.0226   -0.2932    0.0000 C   0  0  0  0  0  0  0  0  0  0  0  0
  1  2  1  0  0  0  0
  3  2  1  0  0  0  0
  2  6  1  0  0  0  0
  4  3  1  0  0  0  0
  4  5  1  0  0  0  0
 20  4  1  0  0  0  0
  6  5  1  0  0  0  0
  5  7  1  0  0  0  0
  8  7  1  0  0  0  0
  7 13  2  0  0  0  0
  9  8  2  0  0  0  0
  9 10  1  0  0  0  0
 11  9  1  0  0  0  0
 12 11  2  0  0  0  0
 13 12  1  0  0  0  0
 13 14  1  0  0  0  0
 14 15  1  0  0  0  0
 16 15  1  0  0  0  0
 15 20  2  0  0  0  0
 17 16  2  0  0  0  0
 18 17  1  0  0  0  0
 19 18  2  0  0  0  0
 20 19  1  0  0  0  0
M  END
> <Inchi_key>
VSWBSWWIRNCQIJ-UHFFFAOYSA-N

> <Source>
Mulliner

> <ID>
HT0187

> <H_MFHB>
1

> <CAS>


> <Cholestasis>


> <Name>
asenapine maleate

> <Class>
1


$$$$