

  -INDIGO-08031710012D

 24 26  0  0  0  0  0  0  0  0999 V2000
    9.6195  -10.4105    0.0000 C   0  0  0  0  0  0  0  0  0  0  0  0
    9.7379   -8.9152    0.0000 C   0  0  0  0  0  0  0  0  0  0  0  0
   11.0920   -8.2700    0.0000 O   0  0  0  0  0  0  0  0  0  0  0  0
    8.5019   -8.0651    0.0000 N   0  0  0  0  0  0  0  0  0  0  0  0
    7.1478   -8.7103    0.0000 C   0  0  0  0  0  0  0  0  0  0  0  0
    5.9121   -7.8602    0.0000 C   0  0  0  0  0  0  0  0  0  0  0  0
    4.4978   -8.3604    0.0000 C   0  0  0  0  0  0  0  0  0  0  0  0
    3.5851   -7.1700    0.0000 N   0  0  0  0  0  0  0  0  0  0  0  0
    4.4353   -5.9341    0.0000 C   0  0  0  0  0  0  0  0  0  0  0  0
    3.9352   -4.5200    0.0000 O   0  0  0  0  0  0  0  0  0  0  0  0
    5.8733   -6.3607    0.0000 O   0  0  0  0  0  0  0  0  0  0  0  0
    2.0857   -7.2086    0.0000 C   0  0  0  0  0  0  0  0  0  0  0  0
    1.3023   -5.9294    0.0000 C   0  0  0  0  0  0  0  0  0  0  0  0
   -0.1971   -5.9680    0.0000 C   0  0  0  0  0  0  0  0  0  0  0  0
   -0.9133   -7.2860    0.0000 C   0  0  0  0  0  0  0  0  0  0  0  0
   -2.4127   -7.3246    0.0000 N   0  0  0  0  0  0  0  0  0  0  0  0
   -3.1292   -8.6426    0.0000 C   0  0  0  0  0  0  0  0  0  0  0  0
   -4.6286   -8.6812    0.0000 C   0  0  0  0  0  0  0  0  0  0  0  0
   -5.4118   -7.4020    0.0000 O   0  0  0  0  0  0  0  0  0  0  0  0
   -4.6956   -6.0840    0.0000 C   0  0  0  0  0  0  0  0  0  0  0  0
   -3.1962   -6.0454    0.0000 C   0  0  0  0  0  0  0  0  0  0  0  0
   -0.1301   -8.5652    0.0000 C   0  0  0  0  0  0  0  0  0  0  0  0
   -0.8463   -9.8832    0.0000 F   0  0  0  0  0  0  0  0  0  0  0  0
    1.3693   -8.5266    0.0000 C   0  0  0  0  0  0  0  0  0  0  0  0
  1  2  1  0  0  0  0
  2  3  2  0  0  0  0
  2  4  1  0  0  0  0
  4  5  1  0  0  0  0
  5  6  1  0  0  0  0
  7  6  1  0  0  0  0
  6 11  1  0  0  0  0
  8  7  1  0  0  0  0
  9  8  1  0  0  0  0
  8 12  1  0  0  0  0
  9 10  2  0  0  0  0
 11  9  1  0  0  0  0
 13 12  2  0  0  0  0
 12 24  1  0  0  0  0
 14 13  1  0  0  0  0
 15 14  2  0  0  0  0
 15 16  1  0  0  0  0
 22 15  1  0  0  0  0
 17 16  1  0  0  0  0
 16 21  1  0  0  0  0
 18 17  1  0  0  0  0
 19 18  1  0  0  0  0
 20 19  1  0  0  0  0
 21 20  1  0  0  0  0
 22 23  1  0  0  0  0
 24 22  2  0  0  0  0
M  END
> <Inchi_key>
TYZROVQLWOKYKF-UHFFFAOYSA-N

> <Source>
Mulliner

> <ID>
HT1214

> <H_MFHB>
1

> <CAS>


> <Cholestasis>


> <Name>
linezolid

> <Class>
1


$$$$