

  -INDIGO-08031710012D

 20 22  0  0  0  0  0  0  0  0999 V2000
   -0.2097    0.0563    0.0000 C   0  0  0  0  0  0  0  0  0  0  0  0
   -0.2097   -1.4438    0.0000 N   0  0  0  0  0  0  0  0  0  0  0  0
    1.0894   -2.1938    0.0000 C   0  0  0  0  0  0  0  0  0  0  0  0
    2.3885   -1.4438    0.0000 C   0  0  0  0  0  0  0  0  0  0  0  0
    3.6875   -2.1938    0.0000 C   0  0  0  0  0  0  0  0  0  0  0  0
    4.9865   -1.4438    0.0000 C   0  0  0  0  0  0  0  0  0  0  0  0
    4.9865    0.0563    0.0000 C   0  0  0  0  0  0  0  0  0  0  0  0
    3.6875    0.8062    0.0000 C   0  0  0  0  0  0  0  0  0  0  0  0
    2.3885    0.0563    0.0000 C   0  0  0  0  0  0  0  0  0  0  0  0
   -1.5088   -2.1938    0.0000 C   0  0  0  0  0  0  0  0  0  0  0  0
   -1.5088   -3.6938    0.0000 C   0  0  0  0  0  0  0  0  0  0  0  0
   -2.8076   -4.4438    0.0000 C   0  0  0  0  0  0  0  0  0  0  0  0
   -4.1068   -3.6938    0.0000 C   0  0  0  0  0  0  0  0  0  0  0  0
   -4.1068   -2.1938    0.0000 C   0  0  0  0  0  0  0  0  0  0  0  0
   -2.8076   -1.4438    0.0000 C   0  0  0  0  0  0  0  0  0  0  0  0
   -1.5088    0.8062    0.0000 C   0  0  0  0  0  0  0  0  0  0  0  0
   -1.6655    2.2980    0.0000 N   0  0  0  0  0  0  0  0  0  0  0  0
   -3.1327    2.6098    0.0000 C   0  0  0  0  0  0  0  0  0  0  0  0
   -3.8827    1.3108    0.0000 C   0  0  0  0  0  0  0  0  0  0  0  0
   -2.8790    0.1961    0.0000 N   0  0  0  0  0  0  0  0  0  0  0  0
  1  2  1  0  0  0  0
  1 16  1  0  0  0  0
  2  3  1  0  0  0  0
  2 10  1  0  0  0  0
  3  4  1  0  0  0  0
  5  4  2  0  0  0  0
  4  9  1  0  0  0  0
  6  5  1  0  0  0  0
  7  6  2  0  0  0  0
  8  7  1  0  0  0  0
  9  8  2  0  0  0  0
 11 10  2  0  0  0  0
 10 15  1  0  0  0  0
 12 11  1  0  0  0  0
 13 12  2  0  0  0  0
 14 13  1  0  0  0  0
 15 14  2  0  0  0  0
 17 16  2  0  0  0  0
 16 20  1  0  0  0  0
 18 17  1  0  0  0  0
 19 18  1  0  0  0  0
 20 19  1  0  0  0  0
M  END
> <Inchi_key>
REYFJDPCWQRWAA-UHFFFAOYSA-N

> <Source>
Mulliner

> <ID>
HT0165

> <H_MFHB>
1

> <CAS>


> <Cholestasis>


> <Name>
antazoline

> <Class>
1


$$$$