

  -INDIGO-08031710012D

 45 49  0  0  0  0  0  0  0  0999 V2000
   -2.2518   -0.2179    0.0000 C   0  0  0  0  0  0  0  0  0  0  0  0
   -0.9525   -0.9678    0.0000 C   0  0  0  0  0  0  0  0  0  0  0  0
    0.3465   -1.7178    0.0000 C   0  0  0  0  0  0  0  0  0  0  0  0
   -1.7026   -2.2669    0.0000 C   0  0  0  0  0  0  0  0  0  0  0  0
   -0.2027    0.3312    0.0000 N   0  0  0  0  0  0  0  0  0  0  0  0
    1.2973    0.3312    0.0000 C   0  0  0  0  0  0  0  0  0  0  0  0
    2.0474   -0.9678    0.0000 O   0  0  0  0  0  0  0  0  0  0  0  0
    2.0474    1.6301    0.0000 C   0  0  0  0  0  0  0  0  0  0  0  0
    3.5474    1.6301    0.0000 C   0  0  0  0  0  0  0  0  0  0  0  0
    4.2975    2.9293    0.0000 N   0  0  0  0  0  0  0  0  0  0  0  0
    5.7975    2.9293    0.0000 C   0  0  0  0  0  0  0  0  0  0  0  0
    6.5473    4.2284    0.0000 C   0  0  0  0  0  0  0  0  0  0  0  0
    5.7975    5.5273    0.0000 C   0  0  0  0  0  0  0  0  0  0  0  0
    6.5473    6.8265    0.0000 C   0  0  0  0  0  0  0  0  0  0  0  0
    8.0473    6.8265    0.0000 C   0  0  0  0  0  0  0  0  0  0  0  0
    8.7974    5.5273    0.0000 N   0  0  0  0  0  0  0  0  0  0  0  0
    8.0473    4.2284    0.0000 C   0  0  0  0  0  0  0  0  0  0  0  0
    3.5474    4.2284    0.0000 C   0  0  0  0  0  0  0  0  0  0  0  0
    2.0474    4.2284    0.0000 C   0  0  0  0  0  0  0  0  0  0  0  0
    1.2973    2.9293    0.0000 N   0  0  0  0  0  0  0  0  0  0  0  0
   -0.2027    2.9293    0.0000 C   0  0  0  0  0  0  0  0  0  0  0  0
   -0.9525    4.2284    0.0000 C   0  0  0  0  0  0  0  0  0  0  0  0
   -0.2027    5.5273    0.0000 O   0  0  0  0  0  0  0  0  0  0  0  0
   -2.4525    4.2284    0.0000 C   0  0  0  0  0  0  0  0  0  0  0  0
   -3.2026    5.5273    0.0000 C   0  0  0  0  0  0  0  0  0  0  0  0
   -2.4525    6.8265    0.0000 C   0  0  0  0  0  0  0  0  0  0  0  0
   -3.2026    8.1254    0.0000 C   0  0  0  0  0  0  0  0  0  0  0  0
   -2.4525    9.4246    0.0000 C   0  0  0  0  0  0  0  0  0  0  0  0
   -3.2026   10.7235    0.0000 C   0  0  0  0  0  0  0  0  0  0  0  0
   -4.7025   10.7235    0.0000 C   0  0  0  0  0  0  0  0  0  0  0  0
   -5.4527    9.4246    0.0000 C   0  0  0  0  0  0  0  0  0  0  0  0
   -4.7025    8.1254    0.0000 C   0  0  0  0  0  0  0  0  0  0  0  0
   -4.7025    5.5273    0.0000 C   0  0  0  0  0  0  0  0  0  0  0  0
   -5.4527    6.8265    0.0000 O   0  0  0  0  0  0  0  0  0  0  0  0
   -5.4527    4.2284    0.0000 N   0  0  0  0  0  0  0  0  0  0  0  0
   -6.9526    4.2284    0.0000 C   0  0  0  0  0  0  0  0  0  0  0  0
   -7.8344    5.4417    0.0000 C   0  0  0  0  0  0  0  0  0  0  0  0
   -7.3707    6.8683    0.0000 O   0  0  0  0  0  0  0  0  0  0  0  0
   -9.2609    4.9783    0.0000 C   0  0  0  0  0  0  0  0  0  0  0  0
   -9.2609    3.4783    0.0000 C   0  0  0  0  0  0  0  0  0  0  0  0
  -10.3756    2.4745    0.0000 C   0  0  0  0  0  0  0  0  0  0  0  0
  -10.0637    1.0073    0.0000 C   0  0  0  0  0  0  0  0  0  0  0  0
   -8.6372    0.5439    0.0000 C   0  0  0  0  0  0  0  0  0  0  0  0
   -7.5225    1.5477    0.0000 C   0  0  0  0  0  0  0  0  0  0  0  0
   -7.8344    3.0149    0.0000 C   0  0  0  0  0  0  0  0  0  0  0  0
  1  2  1  0  0  0  0
  2  3  1  0  0  0  0
  2  4  1  0  0  0  0
  2  5  1  0  0  0  0
  5  6  1  0  0  0  0
  6  7  2  0  0  0  0
  6  8  1  0  0  0  0
  9  8  1  0  0  0  0
  8 20  1  0  0  0  0
 10  9  1  0  0  0  0
 10 11  1  0  0  0  0
 18 10  1  0  0  0  0
 11 12  1  0  0  0  0
 13 12  2  0  0  0  0
 12 17  1  0  0  0  0
 14 13  1  0  0  0  0
 15 14  2  0  0  0  0
 16 15  1  0  0  0  0
 17 16  2  0  0  0  0
 19 18  1  0  0  0  0
 20 19  1  0  0  0  0
 20 21  1  0  0  0  0
 21 22  1  0  0  0  0
 22 23  1  0  0  0  0
 22 24  1  0  0  0  0
 24 25  1  0  0  0  0
 25 26  1  0  0  0  0
 25 33  1  0  0  0  0
 26 27  1  0  0  0  0
 28 27  2  0  0  0  0
 27 32  1  0  0  0  0
 29 28  1  0  0  0  0
 30 29  2  0  0  0  0
 31 30  1  0  0  0  0
 32 31  2  0  0  0  0
 33 34  2  0  0  0  0
 33 35  1  0  0  0  0
 35 36  1  0  0  0  0
 37 36  1  0  0  0  0
 36 45  1  0  0  0  0
 37 38  1  0  0  0  0
 39 37  1  0  0  0  0
 40 39  1  0  0  0  0
 41 40  1  0  0  0  0
 40 45  2  0  0  0  0
 42 41  2  0  0  0  0
 43 42  1  0  0  0  0
 44 43  2  0  0  0  0
 45 44  1  0  0  0  0
M  END
> <Inchi_key>
CBVCZFGXHXORBI-UHFFFAOYSA-N

> <Source>
Mulliner

> <ID>
HT1093

> <H_MFHB>
1

> <CAS>


> <Cholestasis>


> <Name>
indinavir sulfate

> <Class>
1


$$$$