
  -INDIGO-08031710012D

 33 35  0  0  0  0  0  0  0  0999 V2000
    5.7273   -0.6299    0.0000 C   0  0  0  0  0  0  0  0  0  0  0  0
    4.9773    0.6692    0.0000 N   0  0  0  0  0  0  0  0  0  0  0  0
    5.7273    1.9682    0.0000 C   0  0  0  0  0  0  0  0  0  0  0  0
    7.2274    1.9682    0.0000 C   0  0  0  0  0  0  0  0  0  0  0  0
    7.9772    0.6692    0.0000 C   0  0  0  0  0  0  0  0  0  0  0  0
    9.4773    0.6692    0.0000 N   0  0  0  0  0  0  0  0  0  0  0  0
   10.2273    1.9682    0.0000 C   0  0  0  0  0  0  0  0  0  0  0  0
   11.7275    1.9682    0.0000 N   0  0  0  0  0  0  0  0  0  0  0  0
   12.4772    3.2674    0.0000 C   0  0  0  0  0  0  0  0  0  0  0  0
   13.9773    3.2674    0.0000 N   0  0  0  0  0  0  0  0  0  0  0  0
   11.7275    4.5662    0.0000 N   0  0  0  0  0  0  0  0  0  0  0  0
   10.2273    4.5662    0.0000 C   0  0  0  0  0  0  0  0  0  0  0  0
    9.4773    5.8654    0.0000 N   0  0  0  0  0  0  0  0  0  0  0  0
    9.4773    3.2674    0.0000 C   0  0  0  0  0  0  0  0  0  0  0  0
    7.9772    3.2674    0.0000 N   0  0  0  0  0  0  0  0  0  0  0  0
    3.4772    0.6692    0.0000 C   0  0  0  0  0  0  0  0  0  0  0  0
    2.7274   -0.6299    0.0000 C   0  0  0  0  0  0  0  0  0  0  0  0
    1.2273   -0.6299    0.0000 C   0  0  0  0  0  0  0  0  0  0  0  0
    0.4773    0.6692    0.0000 C   0  0  0  0  0  0  0  0  0  0  0  0
    1.2273    1.9682    0.0000 C   0  0  0  0  0  0  0  0  0  0  0  0
    2.7274    1.9682    0.0000 C   0  0  0  0  0  0  0  0  0  0  0  0
   -1.0228    0.6692    0.0000 C   0  0  0  0  0  0  0  0  0  0  0  0
   -1.7726    1.9682    0.0000 O   0  0  0  0  0  0  0  0  0  0  0  0
   -1.7726   -0.6299    0.0000 N   0  0  0  0  0  0  0  0  0  0  0  0
   -3.2727   -0.6299    0.0000 C   0  0  0  0  0  0  0  0  0  0  0  0
   -4.0227    0.6692    0.0000 C   0  0  0  0  0  0  0  0  0  0  0  0
   -5.5229    0.6692    0.0000 C   0  0  0  0  0  0  0  0  0  0  0  0
   -6.2726    1.9682    0.0000 C   0  0  0  0  0  0  0  0  0  0  0  0
   -5.5229    3.2674    0.0000 O   0  0  0  0  0  0  0  0  0  0  0  0
   -7.7727    1.9682    0.0000 O   0  0  0  0  0  0  0  0  0  0  0  0
   -4.0227   -1.9289    0.0000 C   0  0  0  0  0  0  0  0  0  0  0  0
   -5.5229   -1.9289    0.0000 O   0  0  0  0  0  0  0  0  0  0  0  0
   -3.2727   -3.2279    0.0000 O   0  0  0  0  0  0  0  0  0  0  0  0
  1  2  1  0  0  0  0
  2  3  1  0  0  0  0
  2 16  1  0  0  0  0
  3  4  1  0  0  0  0
  5  4  2  0  0  0  0
  4 15  1  0  0  0  0
  6  5  1  0  0  0  0
  7  6  2  0  0  0  0
  8  7  1  0  0  0  0
  7 14  1  0  0  0  0
  9  8  2  0  0  0  0
  9 10  1  0  0  0  0
 11  9  1  0  0  0  0
 12 11  2  0  0  0  0
 12 13  1  0  0  0  0
 14 12  1  0  0  0  0
 15 14  2  0  0  0  0
 17 16  2  0  0  0  0
 16 21  1  0  0  0  0
 18 17  1  0  0  0  0
 19 18  2  0  0  0  0
 20 19  1  0  0  0  0
 19 22  1  0  0  0  0
 21 20  2  0  0  0  0
 22 23  2  0  0  0  0
 22 24  1  0  0  0  0
 24 25  1  0  0  0  0
 25 26  1  0  0  0  0
 25 31  1  0  0  0  0
 26 27  1  0  0  0  0
 27 28  1  0  0  0  0
 28 29  2  0  0  0  0
 28 30  1  0  0  0  0
 31 32  2  0  0  0  0
 31 33  1  0  0  0  0
M  END
> <Inchi_key>
FBOZXECLQNJBKD-UHFFFAOYSA-N

> <Source>
Mulliner

> <ID>
HT1347

> <H_MFHB>
1

> <CAS>
5/2/1959

> <Cholestasis>


> <Name>
methotrexate

> <Class>
1

$$$$