
  -INDIGO-08031710012D

 41 44  0  0  0  0  0  0  0  0999 V2000
   15.4831  -11.8806    0.0000 C   0  0  0  0  0  0  0  0  0  0  0  0
   15.0947  -10.4317    0.0000 O   0  0  0  0  0  0  0  0  0  0  0  0
   13.6459  -10.0435    0.0000 N   0  0  0  0  0  0  0  0  0  0  0  0
   13.2578   -8.5945    0.0000 C   0  0  0  0  0  0  0  0  0  0  0  0
   11.8087   -8.2064    0.0000 C   0  0  0  0  0  0  0  0  0  0  0  0
   11.4206   -6.7576    0.0000 O   0  0  0  0  0  0  0  0  0  0  0  0
   10.7482   -9.2669    0.0000 N   0  0  0  0  0  0  0  0  0  0  0  0
    9.2994   -8.8788    0.0000 C   0  0  0  0  0  0  0  0  0  0  0  0
    8.5493   -7.5798    0.0000 C   0  0  0  0  0  0  0  0  0  0  0  0
    8.5493   -6.0796    0.0000 S   0  0  0  0  0  0  0  0  0  0  0  0
    7.2503   -5.3297    0.0000 C   0  0  0  0  0  0  0  0  0  0  0  0
    5.9512   -6.0796    0.0000 C   0  0  0  0  0  0  0  0  0  0  0  0
    5.9512   -7.5798    0.0000 C   0  0  0  0  0  0  0  0  0  0  0  0
    7.2503   -8.3298    0.0000 N   0  0  0  0  0  0  0  0  0  0  0  0
    8.0003   -9.6288    0.0000 C   0  0  0  0  0  0  0  0  0  0  0  0
    7.6119  -11.0777    0.0000 O   0  0  0  0  0  0  0  0  0  0  0  0
    4.6521   -8.3298    0.0000 C   0  0  0  0  0  0  0  0  0  0  0  0
    4.6521   -9.8297    0.0000 O   0  0  0  0  0  0  0  0  0  0  0  0
    3.3530   -7.5798    0.0000 O   0  0  0  0  0  0  0  0  0  0  0  0
    2.0542   -8.3298    0.0000 C   0  0  0  0  0  0  0  0  0  0  0  0
    0.7552   -7.5798    0.0000 O   0  0  0  0  0  0  0  0  0  0  0  0
   -0.5439   -8.3298    0.0000 C   0  0  0  0  0  0  0  0  0  0  0  0
   -0.5439   -9.8297    0.0000 O   0  0  0  0  0  0  0  0  0  0  0  0
   -1.8430   -7.5798    0.0000 C   0  0  0  0  0  0  0  0  0  0  0  0
   -3.1421   -6.8296    0.0000 C   0  0  0  0  0  0  0  0  0  0  0  0
   -2.5930   -8.8788    0.0000 C   0  0  0  0  0  0  0  0  0  0  0  0
   -1.0930   -6.2806    0.0000 C   0  0  0  0  0  0  0  0  0  0  0  0
    4.6521   -5.3297    0.0000 C   0  0  0  0  0  0  0  0  0  0  0  0
    4.6521   -3.8297    0.0000 C   0  0  0  0  0  0  0  0  0  0  0  0
    3.3530   -3.0797    0.0000 C   0  0  0  0  0  0  0  0  0  0  0  0
    1.9827   -3.6897    0.0000 S   0  0  0  0  0  0  0  0  0  0  0  0
    0.9790   -2.5752    0.0000 C   0  0  0  0  0  0  0  0  0  0  0  0
    1.7290   -1.2760    0.0000 N   0  0  0  0  0  0  0  0  0  0  0  0
    3.1962   -1.5880    0.0000 C   0  0  0  0  0  0  0  0  0  0  0  0
    4.3111   -0.5843    0.0000 C   0  0  0  0  0  0  0  0  0  0  0  0
   14.3183   -7.5339    0.0000 C   0  0  0  0  0  0  0  0  0  0  0  0
   14.0838   -6.0524    0.0000 C   0  0  0  0  0  0  0  0  0  0  0  0
   15.4203   -5.3714    0.0000 S   0  0  0  0  0  0  0  0  0  0  0  0
   16.4810   -6.4321    0.0000 C   0  0  0  0  0  0  0  0  0  0  0  0
   17.9624   -6.1974    0.0000 N   0  0  0  0  0  0  0  0  0  0  0  0
   15.7999   -7.7685    0.0000 N   0  0  0  0  0  0  0  0  0  0  0  0
  1  2  1  0  0  0  0
  2  3  1  0  0  0  0
  3  4  2  0  0  0  0
  4  5  1  0  0  0  0
  4 36  1  0  0  0  0
  5  6  2  0  0  0  0
  5  7  1  0  0  0  0
  7  8  1  0  0  0  0
  9  8  1  0  0  0  0
  8 15  1  0  0  0  0
 10  9  1  0  0  0  0
  9 14  1  0  0  0  0
 11 10  1  0  0  0  0
 12 11  1  0  0  0  0
 13 12  2  0  0  0  0
 12 28  1  0  0  0  0
 14 13  1  0  0  0  0
 13 17  1  0  0  0  0
 15 14  1  0  0  0  0
 15 16  2  0  0  0  0
 17 18  2  0  0  0  0
 17 19  1  0  0  0  0
 19 20  1  0  0  0  0
 20 21  1  0  0  0  0
 21 22  1  0  0  0  0
 22 23  2  0  0  0  0
 22 24  1  0  0  0  0
 24 25  1  0  0  0  0
 24 26  1  0  0  0  0
 24 27  1  0  0  0  0
 28 29  2  0  0  0  0
 29 30  1  0  0  0  0
 31 30  1  0  0  0  0
 30 34  2  0  0  0  0
 32 31  1  0  0  0  0
 33 32  2  0  0  0  0
 34 33  1  0  0  0  0
 34 35  1  0  0  0  0
 37 36  2  0  0  0  0
 36 41  1  0  0  0  0
 38 37  1  0  0  0  0
 39 38  1  0  0  0  0
 39 40  1  0  0  0  0
 41 39  2  0  0  0  0
M  END
> <Inchi_key>
AFZFFLVORLEPPO-IAYONZFOSA-N, KMIPKYQIOVAHOP-QOGFSKATSA-N

> <Source>
Mulliner, Kotsampasakou

> <ID>
EK0104;HT0402

> <H_MFHB>
1

> <CAS>
117467-28-4

> <Cholestasis>
1

> <Name>
cefditoren pivoxil

> <Class>
1

$$$$