

  -INDIGO-08031709442D

 13 14  0  0  0  0  0  0  0  0999 V2000
    9.6923    0.0000    0.0000 N   0  0  0  0  0  0  0  0  0  0  0  0
    8.1924    0.0000    0.0000 C   0  0  0  0  0  0  0  0  0  0  0  0
    7.4423    1.2990    0.0000 C   0  0  0  0  0  0  0  0  0  0  0  0
    5.9423    1.2990    0.0000 C   0  0  0  0  0  0  0  0  0  0  0  0
    5.1924    0.0000    0.0000 C   0  0  0  0  0  0  0  0  0  0  0  0
    5.9423   -1.2990    0.0000 C   0  0  0  0  0  0  0  0  0  0  0  0
    7.4423   -1.2990    0.0000 C   0  0  0  0  0  0  0  0  0  0  0  0
    3.6923    0.0000    0.0000 C   0  0  0  0  0  0  0  0  0  0  0  0
    2.9423    1.2990    0.0000 C   0  0  0  0  0  0  0  0  0  0  0  0
    1.4423    1.2990    0.0000 C   0  0  0  0  0  0  0  0  0  0  0  0
    0.6923    0.0000    0.0000 C   0  0  0  0  0  0  0  0  0  0  0  0
    1.4423   -1.2990    0.0000 C   0  0  0  0  0  0  0  0  0  0  0  0
    2.9423   -1.2990    0.0000 C   0  0  0  0  0  0  0  0  0  0  0  0
  1  2  1  0  0  0  0
  3  2  2  0  0  0  0
  2  7  1  0  0  0  0
  4  3  1  0  0  0  0
  5  4  2  0  0  0  0
  6  5  1  0  0  0  0
  5  8  1  0  0  0  0
  7  6  2  0  0  0  0
  9  8  2  0  0  0  0
  8 13  1  0  0  0  0
 10  9  1  0  0  0  0
 11 10  2  0  0  0  0
 12 11  1  0  0  0  0
 13 12  2  0  0  0  0
M  END
> <Inchi_key>
DMVOXQPQNTYEKQ-UHFFFAOYSA-N

> <Source>
Kotsampasakou

> <ID>
EK0571

> <H_MFHB>


> <CAS>


> <Cholestasis>
1

> <Name>
xenylamine

> <Class>
1


$$$$