
  -INDIGO-08031710012D

 32 34  0  0  0  0  0  0  0  0999 V2000
    2.9987    3.0487    0.0000 C   0  0  0  0  0  0  0  0  0  0  0  0
    3.7453    1.7477    0.0000 N   0  0  0  0  0  0  0  0  0  0  0  0
    5.2455    1.7437    0.0000 C   0  0  0  0  0  0  0  0  0  0  0  0
    5.9988    3.0408    0.0000 O   0  0  0  0  0  0  0  0  0  0  0  0
    5.9918    0.4427    0.0000 C   0  0  0  0  0  0  0  0  0  0  0  0
    5.2385   -0.8543    0.0000 C   0  0  0  0  0  0  0  0  0  0  0  0
    3.7386   -0.8505    0.0000 N   0  0  0  0  0  0  0  0  0  0  0  0
    2.9920    0.4507    0.0000 C   0  0  0  0  0  0  0  0  0  0  0  0
    1.4918    0.4546    0.0000 C   0  0  0  0  0  0  0  0  0  0  0  0
    1.4958    1.9546    0.0000 C   0  0  0  0  0  0  0  0  0  0  0  0
    1.4879   -1.0454    0.0000 C   0  0  0  0  0  0  0  0  0  0  0  0
   -0.0080    0.4586    0.0000 N   0  0  0  0  0  0  0  0  0  0  0  0
   -0.7616   -0.8384    0.0000 C   0  0  0  0  0  0  0  0  0  0  0  0
   -0.0148   -2.1394    0.0000 O   0  0  0  0  0  0  0  0  0  0  0  0
   -2.2615   -0.8345    0.0000 C   0  0  0  0  0  0  0  0  0  0  0  0
   -3.1465   -2.0457    0.0000 O   0  0  0  0  0  0  0  0  0  0  0  0
   -4.5718   -1.5784    0.0000 C   0  0  0  0  0  0  0  0  0  0  0  0
   -5.7876   -2.4568    0.0000 C   0  0  0  0  0  0  0  0  0  0  0  0
   -4.5678   -0.0784    0.0000 N   0  0  0  0  0  0  0  0  0  0  0  0
   -3.1398    0.3814    0.0000 N   0  0  0  0  0  0  0  0  0  0  0  0
    5.9850   -2.1553    0.0000 C   0  0  0  0  0  0  0  0  0  0  0  0
    5.2317   -3.4524    0.0000 O   0  0  0  0  0  0  0  0  0  0  0  0
    7.4849   -2.1592    0.0000 N   0  0  0  0  0  0  0  0  0  0  0  0
    8.2315   -3.4603    0.0000 C   0  0  0  0  0  0  0  0  0  0  0  0
    9.7317   -3.4643    0.0000 C   0  0  0  0  0  0  0  0  0  0  0  0
   10.4850   -2.1674    0.0000 C   0  0  0  0  0  0  0  0  0  0  0  0
   11.9851   -2.1712    0.0000 C   0  0  0  0  0  0  0  0  0  0  0  0
   12.7317   -3.4723    0.0000 C   0  0  0  0  0  0  0  0  0  0  0  0
   14.2316   -3.4761    0.0000 F   0  0  0  0  0  0  0  0  0  0  0  0
   11.9781   -4.7693    0.0000 C   0  0  0  0  0  0  0  0  0  0  0  0
   10.4782   -4.7652    0.0000 C   0  0  0  0  0  0  0  0  0  0  0  0
    7.4919    0.4386    0.0000 O   0  0  0  0  0  0  0  0  0  0  0  0
  1  2  1  0  0  0  0
  3  2  1  0  0  0  0
  2  8  1  0  0  0  0
  3  4  2  0  0  0  0
  5  3  1  0  0  0  0
  6  5  2  0  0  0  0
  5 32  1  0  0  0  0
  7  6  1  0  0  0  0
  6 21  1  0  0  0  0
  8  7  2  0  0  0  0
  8  9  1  0  0  0  0
  9 10  1  0  0  0  0
  9 11  1  0  0  0  0
  9 12  1  0  0  0  0
 12 13  1  0  0  0  0
 13 14  2  0  0  0  0
 13 15  1  0  0  0  0
 16 15  1  0  0  0  0
 15 20  2  0  0  0  0
 17 16  1  0  0  0  0
 17 18  1  0  0  0  0
 19 17  2  0  0  0  0
 20 19  1  0  0  0  0
 21 22  2  0  0  0  0
 21 23  1  0  0  0  0
 23 24  1  0  0  0  0
 24 25  1  0  0  0  0
 26 25  2  0  0  0  0
 25 31  1  0  0  0  0
 27 26  1  0  0  0  0
 28 27  2  0  0  0  0
 28 29  1  0  0  0  0
 30 28  1  0  0  0  0
 31 30  2  0  0  0  0
M  END
> <Inchi_key>
CZFFBEXEKNGXKS-UHFFFAOYSA-N

> <Source>
Mulliner

> <ID>
HT1795

> <H_MFHB>
1

> <CAS>


> <Cholestasis>


> <Name>
raltegravir potassium

> <Class>
1

$$$$