
  -INDIGO-08031710012D

 18 19  0  0  0  0  0  0  0  0999 V2000
   10.2318   -4.9083    0.0000 C   0  0  0  0  0  0  0  0  0  0  0  0
    8.9327   -5.6583    0.0000 C   0  0  0  0  0  0  0  0  0  0  0  0
    7.6338   -4.9083    0.0000 C   0  0  0  0  0  0  0  0  0  0  0  0
    7.6338   -3.4083    0.0000 N   0  0  0  0  0  0  0  0  0  0  0  0
    6.3346   -2.6583    0.0000 C   0  0  0  0  0  0  0  0  0  0  0  0
    6.3346   -1.1583    0.0000 O   0  0  0  0  0  0  0  0  0  0  0  0
    5.0357   -3.4083    0.0000 C   0  0  0  0  0  0  0  0  0  0  0  0
    3.7367   -2.6583    0.0000 C   0  0  0  0  0  0  0  0  0  0  0  0
    2.4376   -3.4083    0.0000 C   0  0  0  0  0  0  0  0  0  0  0  0
    2.4376   -4.9083    0.0000 C   0  0  0  0  0  0  0  0  0  0  0  0
    1.1386   -5.6583    0.0000 Cl  0  0  0  0  0  0  0  0  0  0  0  0
    3.7367   -5.6583    0.0000 C   0  0  0  0  0  0  0  0  0  0  0  0
    5.0357   -4.9083    0.0000 C   0  0  0  0  0  0  0  0  0  0  0  0
    6.3346   -5.6583    0.0000 N   0  0  0  0  0  0  0  0  0  0  0  0
    1.1386   -2.6583    0.0000 S   0  0  0  0  0  0  0  0  0  0  0  0
    0.3886   -3.9573    0.0000 O   0  0  0  0  0  0  0  0  0  0  0  0
    1.8886   -1.3592    0.0000 O   0  0  0  0  0  0  0  0  0  0  0  0
   -0.1605   -1.9083    0.0000 N   0  0  0  0  0  0  0  0  0  0  0  0
  1  2  1  0  0  0  0
  2  3  1  0  0  0  0
  4  3  1  0  0  0  0
  3 14  1  0  0  0  0
  5  4  1  0  0  0  0
  5  6  2  0  0  0  0
  7  5  1  0  0  0  0
  8  7  1  0  0  0  0
  7 13  2  0  0  0  0
  9  8  2  0  0  0  0
 10  9  1  0  0  0  0
  9 15  1  0  0  0  0
 10 11  1  0  0  0  0
 12 10  2  0  0  0  0
 13 12  1  0  0  0  0
 14 13  1  0  0  0  0
 15 16  2  0  0  0  0
 15 17  2  0  0  0  0
 15 18  1  0  0  0  0
M  END
> <Inchi_key>
AGMMTXLNIQSRCG-UHFFFAOYSA-N

> <Source>
Mulliner

> <ID>
HT1789

> <H_MFHB>
1

> <CAS>


> <Cholestasis>


> <Name>
quinethazone

> <Class>
1

$$$$