

  -INDIGO-08031710012D

 28 31  0  0  0  0  0  0  0  0999 V2000
    1.4197    2.4590    0.0000 C   0  0  0  0  0  0  0  0  0  0  0  0
    2.1697    1.1599    0.0000 C   0  0  0  0  0  0  0  0  0  0  0  0
    3.6696    1.1599    0.0000 C   0  0  0  0  0  0  0  0  0  0  0  0
    4.4195    2.4590    0.0000 C   0  0  0  0  0  0  0  0  0  0  0  0
    5.9196    2.4590    0.0000 C   0  0  0  0  0  0  0  0  0  0  0  0
    6.6696    3.7579    0.0000 C   0  0  0  0  0  0  0  0  0  0  0  0
    5.9196    5.0570    0.0000 C   0  0  0  0  0  0  0  0  0  0  0  0
    4.4195    5.0570    0.0000 C   0  0  0  0  0  0  0  0  0  0  0  0
    3.6696    3.7579    0.0000 C   0  0  0  0  0  0  0  0  0  0  0  0
   -0.0804    2.4590    0.0000 N   0  0  0  0  0  0  0  0  0  0  0  0
   -0.8304    1.1599    0.0000 C   0  0  0  0  0  0  0  0  0  0  0  0
   -2.3305    1.1599    0.0000 C   0  0  0  0  0  0  0  0  0  0  0  0
   -3.0805    2.4590    0.0000 N   0  0  0  0  0  0  0  0  0  0  0  0
   -2.3305    3.7579    0.0000 C   0  0  0  0  0  0  0  0  0  0  0  0
   -0.8304    3.7579    0.0000 C   0  0  0  0  0  0  0  0  0  0  0  0
   -4.5804    2.4590    0.0000 C   0  0  0  0  0  0  0  0  0  0  0  0
   -5.3303    1.1599    0.0000 C   0  0  0  0  0  0  0  0  0  0  0  0
   -4.5804   -0.1392    0.0000 C   0  0  0  0  0  0  0  0  0  0  0  0
   -5.3303   -1.4382    0.0000 C   0  0  0  0  0  0  0  0  0  0  0  0
   -6.8304   -1.4382    0.0000 C   0  0  0  0  0  0  0  0  0  0  0  0
   -7.5804   -0.1392    0.0000 C   0  0  0  0  0  0  0  0  0  0  0  0
   -6.8304    1.1599    0.0000 C   0  0  0  0  0  0  0  0  0  0  0  0
   -5.3303    3.7579    0.0000 C   0  0  0  0  0  0  0  0  0  0  0  0
   -6.8304    3.7579    0.0000 C   0  0  0  0  0  0  0  0  0  0  0  0
   -7.5804    5.0570    0.0000 C   0  0  0  0  0  0  0  0  0  0  0  0
   -6.8304    6.3560    0.0000 C   0  0  0  0  0  0  0  0  0  0  0  0
   -5.3303    6.3560    0.0000 C   0  0  0  0  0  0  0  0  0  0  0  0
   -4.5804    5.0570    0.0000 C   0  0  0  0  0  0  0  0  0  0  0  0
  1  2  1  0  0  0  0
  1 10  1  0  0  0  0
  2  3  2  0  0  0  0
  3  4  1  0  0  0  0
  5  4  2  0  0  0  0
  4  9  1  0  0  0  0
  6  5  1  0  0  0  0
  7  6  2  0  0  0  0
  8  7  1  0  0  0  0
  9  8  2  0  0  0  0
 11 10  1  0  0  0  0
 10 15  1  0  0  0  0
 12 11  1  0  0  0  0
 13 12  1  0  0  0  0
 14 13  1  0  0  0  0
 13 16  1  0  0  0  0
 15 14  1  0  0  0  0
 16 17  1  0  0  0  0
 16 23  1  0  0  0  0
 18 17  2  0  0  0  0
 17 22  1  0  0  0  0
 19 18  1  0  0  0  0
 20 19  2  0  0  0  0
 21 20  1  0  0  0  0
 22 21  2  0  0  0  0
 24 23  2  0  0  0  0
 23 28  1  0  0  0  0
 25 24  1  0  0  0  0
 26 25  2  0  0  0  0
 27 26  1  0  0  0  0
 28 27  2  0  0  0  0
M  END
> <Inchi_key>
DERZBLKQOCDDDZ-RAXLEYEMSA-N

> <Source>
Mulliner

> <ID>
HT0492

> <H_MFHB>
1

> <CAS>


> <Cholestasis>


> <Name>
cinnarizine

> <Class>
1


$$$$