

  -INDIGO-08031710012D

 10  9  0  0  0  0  0  0  0  0999 V2000
    6.8074    0.7740    0.0000 F   0  0  0  0  0  0  0  0  0  0  0  0
    5.5084    1.5240    0.0000 C   0  0  0  0  0  0  0  0  0  0  0  0
    5.5084    3.0240    0.0000 F   0  0  0  0  0  0  0  0  0  0  0  0
    4.2093    0.7740    0.0000 O   0  0  0  0  0  0  0  0  0  0  0  0
    2.9103    1.5240    0.0000 C   0  0  0  0  0  0  0  0  0  0  0  0
    2.9103    3.0240    0.0000 F   0  0  0  0  0  0  0  0  0  0  0  0
    1.6113    0.7740    0.0000 C   0  0  0  0  0  0  0  0  0  0  0  0
    0.8613    2.0731    0.0000 F   0  0  0  0  0  0  0  0  0  0  0  0
    2.3613   -0.5250    0.0000 F   0  0  0  0  0  0  0  0  0  0  0  0
    0.3122    0.0240    0.0000 F   0  0  0  0  0  0  0  0  0  0  0  0
  1  2  1  0  0  0  0
  2  3  1  0  0  0  0
  2  4  1  0  0  0  0
  4  5  1  0  0  0  0
  5  6  1  0  0  0  0
  5  7  1  0  0  0  0
  7  8  1  0  0  0  0
  7  9  1  0  0  0  0
  7 10  1  0  0  0  0
M  END
> <Inchi_key>
DPYMFVXJLLWWEU-UHFFFAOYSA-N

> <Source>
Mulliner

> <ID>
HT0610

> <H_MFHB>
1

> <CAS>


> <Cholestasis>


> <Name>
desflurane

> <Class>
1


$$$$