
  -INDIGO-08031710012D

 23 25  0  0  0  0  0  0  0  0999 V2000
    8.7927    0.4611    0.0000 O   0  0  0  0  0  0  0  0  0  0  0  0
    7.3009    0.3043    0.0000 C   0  0  0  0  0  0  0  0  0  0  0  0
    6.6909   -1.0661    0.0000 O   0  0  0  0  0  0  0  0  0  0  0  0
    6.4192    1.5177    0.0000 C   0  0  0  0  0  0  0  0  0  0  0  0
    4.9434    1.2494    0.0000 N   0  0  0  0  0  0  0  0  0  0  0  0
    3.8129    2.2354    0.0000 C   0  0  0  0  0  0  0  0  0  0  0  0
    2.4338    1.6455    0.0000 C   0  0  0  0  0  0  0  0  0  0  0  0
    2.2550    0.1561    0.0000 C   0  0  0  0  0  0  0  0  0  0  0  0
    0.8757   -0.4337    0.0000 C   0  0  0  0  0  0  0  0  0  0  0  0
   -0.3246    0.4659    0.0000 C   0  0  0  0  0  0  0  0  0  0  0  0
   -0.1458    1.9553    0.0000 C   0  0  0  0  0  0  0  0  0  0  0  0
    1.2334    2.5451    0.0000 C   0  0  0  0  0  0  0  0  0  0  0  0
    3.8809    3.7338    0.0000 C   0  0  0  0  0  0  0  0  0  0  0  0
    2.5105    4.3438    0.0000 C   0  0  0  0  0  0  0  0  0  0  0  0
    2.3536    5.8355    0.0000 C   0  0  0  0  0  0  0  0  0  0  0  0
    0.9831    6.4457    0.0000 Cl  0  0  0  0  0  0  0  0  0  0  0  0
    3.5670    6.7174    0.0000 C   0  0  0  0  0  0  0  0  0  0  0  0
    4.9374    6.1074    0.0000 C   0  0  0  0  0  0  0  0  0  0  0  0
    5.0943    4.6156    0.0000 C   0  0  0  0  0  0  0  0  0  0  0  0
    6.5416    4.2182    0.0000 N   0  0  0  0  0  0  0  0  0  0  0  0
    7.1302    2.8385    0.0000 C   0  0  0  0  0  0  0  0  0  0  0  0
    8.3943    2.0310    0.0000 O   0  0  0  0  0  0  0  0  0  0  0  0
    8.4943    3.4624    0.0000 O   0  0  0  0  0  0  0  0  0  0  0  0
  1  2  1  0  0  0  0
  2  3  2  0  0  0  0
  2  4  1  0  0  0  0
  5  4  1  0  0  0  0
  4 21  1  0  0  0  0
  6  5  2  0  0  0  0
  6  7  1  0  0  0  0
 13  6  1  0  0  0  0
  8  7  2  0  0  0  0
  7 12  1  0  0  0  0
  9  8  1  0  0  0  0
 10  9  2  0  0  0  0
 11 10  1  0  0  0  0
 12 11  2  0  0  0  0
 14 13  2  0  0  0  0
 13 19  1  0  0  0  0
 15 14  1  0  0  0  0
 15 16  1  0  0  0  0
 17 15  2  0  0  0  0
 18 17  1  0  0  0  0
 19 18  2  0  0  0  0
 20 19  1  0  0  0  0
 21 20  1  0  0  0  0
 21 22  1  0  0  0  0
 21 23  1  0  0  0  0
M  END
> <Inchi_key>
DMKBGLSCDYFSGG-UHFFFAOYSA-N

> <Source>
Mulliner

> <ID>
HT0533

> <H_MFHB>
1

> <CAS>


> <Cholestasis>


> <Name>
clorazepate dipotassium

> <Class>
1

$$$$