
  -INDIGO-08031710012D

 24 27  0  0  0  0  0  0  0  0999 V2000
    2.0413    8.2088    0.0000 F   0  0  0  0  0  0  0  0  0  0  0  0
    2.0413    6.7089    0.0000 C   0  0  0  0  0  0  0  0  0  0  0  0
    0.7422    5.9588    0.0000 C   0  0  0  0  0  0  0  0  0  0  0  0
    0.7422    4.4588    0.0000 C   0  0  0  0  0  0  0  0  0  0  0  0
    2.0413    3.7089    0.0000 C   0  0  0  0  0  0  0  0  0  0  0  0
    3.3404    4.4588    0.0000 C   0  0  0  0  0  0  0  0  0  0  0  0
    3.3404    5.9588    0.0000 C   0  0  0  0  0  0  0  0  0  0  0  0
    2.0413    2.2088    0.0000 C   0  0  0  0  0  0  0  0  0  0  0  0
    0.7422    1.4588    0.0000 C   0  0  0  0  0  0  0  0  0  0  0  0
    0.7422   -0.0412    0.0000 C   0  0  0  0  0  0  0  0  0  0  0  0
    2.0413   -0.7912    0.0000 N   0  0  0  0  0  0  0  0  0  0  0  0
    3.3404   -0.0412    0.0000 C   0  0  0  0  0  0  0  0  0  0  0  0
    3.3404    1.4588    0.0000 C   0  0  0  0  0  0  0  0  0  0  0  0
    4.6393    2.2088    0.0000 C   0  0  0  0  0  0  0  0  0  0  0  0
    5.9383    1.4588    0.0000 O   0  0  0  0  0  0  0  0  0  0  0  0
    7.2374    2.2088    0.0000 C   0  0  0  0  0  0  0  0  0  0  0  0
    7.2374    3.7089    0.0000 C   0  0  0  0  0  0  0  0  0  0  0  0
    8.5365    4.4588    0.0000 C   0  0  0  0  0  0  0  0  0  0  0  0
    9.8356    3.7089    0.0000 C   0  0  0  0  0  0  0  0  0  0  0  0
   11.2620    4.1724    0.0000 O   0  0  0  0  0  0  0  0  0  0  0  0
   12.1437    2.9588    0.0000 C   0  0  0  0  0  0  0  0  0  0  0  0
   11.2620    1.7452    0.0000 O   0  0  0  0  0  0  0  0  0  0  0  0
    9.8356    2.2088    0.0000 C   0  0  0  0  0  0  0  0  0  0  0  0
    8.5365    1.4588    0.0000 C   0  0  0  0  0  0  0  0  0  0  0  0
  1  2  1  0  0  0  0
  3  2  2  0  0  0  0
  2  7  1  0  0  0  0
  4  3  1  0  0  0  0
  5  4  2  0  0  0  0
  6  5  1  0  0  0  0
  5  8  1  0  0  0  0
  7  6  2  0  0  0  0
  9  8  1  0  0  0  0
  8 13  1  0  0  0  0
 10  9  1  0  0  0  0
 11 10  1  0  0  0  0
 12 11  1  0  0  0  0
 13 12  1  0  0  0  0
 13 14  1  0  0  0  0
 14 15  1  0  0  0  0
 15 16  1  0  0  0  0
 17 16  2  0  0  0  0
 16 24  1  0  0  0  0
 18 17  1  0  0  0  0
 19 18  2  0  0  0  0
 20 19  1  0  0  0  0
 19 23  1  0  0  0  0
 21 20  1  0  0  0  0
 22 21  1  0  0  0  0
 23 22  1  0  0  0  0
 24 23  2  0  0  0  0
M  END
> <Inchi_key>
AHOUBRCZNHFOSL-UHFFFAOYSA-N

> <Source>
Mulliner

> <ID>
HT1598

> <H_MFHB>
1

> <CAS>


> <Cholestasis>


> <Name>
paroxetine hydrochloride;paroxetine mesylate;paroxetine

> <Class>
1

$$$$