
  -INDIGO-08031710012D

 19 20  0  0  0  0  0  0  0  0999 V2000
    6.0025   -1.1079    0.0000 C   0  0  0  0  0  0  0  0  0  0  0  0
    6.0025   -2.6079    0.0000 C   0  0  0  0  0  0  0  0  0  0  0  0
    7.3018   -3.3579    0.0000 C   0  0  0  0  0  0  0  0  0  0  0  0
    7.3018   -4.8579    0.0000 O   0  0  0  0  0  0  0  0  0  0  0  0
    8.6007   -2.6079    0.0000 O   0  0  0  0  0  0  0  0  0  0  0  0
    4.7036   -3.3579    0.0000 C   0  0  0  0  0  0  0  0  0  0  0  0
    4.7036   -4.8579    0.0000 C   0  0  0  0  0  0  0  0  0  0  0  0
    3.4047   -5.6079    0.0000 C   0  0  0  0  0  0  0  0  0  0  0  0
    2.1054   -4.8579    0.0000 C   0  0  0  0  0  0  0  0  0  0  0  0
    2.1054   -3.3579    0.0000 C   0  0  0  0  0  0  0  0  0  0  0  0
    3.4047   -2.6079    0.0000 C   0  0  0  0  0  0  0  0  0  0  0  0
    0.8065   -2.6079    0.0000 C   0  0  0  0  0  0  0  0  0  0  0  0
    0.8065   -1.1079    0.0000 O   0  0  0  0  0  0  0  0  0  0  0  0
   -0.4926   -3.3579    0.0000 C   0  0  0  0  0  0  0  0  0  0  0  0
   -0.4926   -4.8579    0.0000 C   0  0  0  0  0  0  0  0  0  0  0  0
   -1.7917   -5.6079    0.0000 C   0  0  0  0  0  0  0  0  0  0  0  0
   -3.0906   -4.8579    0.0000 C   0  0  0  0  0  0  0  0  0  0  0  0
   -3.0906   -3.3579    0.0000 C   0  0  0  0  0  0  0  0  0  0  0  0
   -1.7917   -2.6079    0.0000 C   0  0  0  0  0  0  0  0  0  0  0  0
  1  2  1  0  0  0  0
  2  3  1  0  0  0  0
  2  6  1  0  0  0  0
  3  4  2  0  0  0  0
  3  5  1  0  0  0  0
  7  6  2  0  0  0  0
  6 11  1  0  0  0  0
  8  7  1  0  0  0  0
  9  8  2  0  0  0  0
 10  9  1  0  0  0  0
 11 10  2  0  0  0  0
 10 12  1  0  0  0  0
 12 13  2  0  0  0  0
 12 14  1  0  0  0  0
 15 14  2  0  0  0  0
 14 19  1  0  0  0  0
 16 15  1  0  0  0  0
 17 16  2  0  0  0  0
 18 17  1  0  0  0  0
 19 18  2  0  0  0  0
M  END
> <Inchi_key>
DKYWVDODHFEZIM-UHFFFAOYSA-N

> <Source>
Mulliner

> <ID>
HT1160

> <H_MFHB>
1

> <CAS>
57495-14-4

> <Cholestasis>


> <Name>
ketoprofen

> <Class>
1

$$$$