
  -INDIGO-08031710012D

 26 29  0  0  0  0  0  0  0  0999 V2000
   11.7692   -6.7950    0.0000 C   0  0  0  0  0  0  0  0  0  0  0  0
   11.0192   -5.4960    0.0000 C   0  0  0  0  0  0  0  0  0  0  0  0
    9.5192   -5.4960    0.0000 C   0  0  0  0  0  0  0  0  0  0  0  0
    8.7692   -4.1969    0.0000 N   0  0  0  0  0  0  0  0  0  0  0  0
    9.5192   -2.8979    0.0000 C   0  0  0  0  0  0  0  0  0  0  0  0
   11.0192   -2.8979    0.0000 C   0  0  0  0  0  0  0  0  0  0  0  0
   11.7692   -4.1969    0.0000 N   0  0  0  0  0  0  0  0  0  0  0  0
    7.2691   -4.1969    0.0000 C   0  0  0  0  0  0  0  0  0  0  0  0
    6.5191   -2.8979    0.0000 C   0  0  0  0  0  0  0  0  0  0  0  0
    5.0193   -2.8979    0.0000 C   0  0  0  0  0  0  0  0  0  0  0  0
    4.2693   -1.5988    0.0000 N   0  0  0  0  0  0  0  0  0  0  0  0
    2.7692   -1.5988    0.0000 C   0  0  0  0  0  0  0  0  0  0  0  0
    2.0192   -2.8979    0.0000 C   0  0  0  0  0  0  0  0  0  0  0  0
    0.5192   -2.8979    0.0000 C   0  0  0  0  0  0  0  0  0  0  0  0
   -0.2308   -1.5988    0.0000 O   0  0  0  0  0  0  0  0  0  0  0  0
   -0.2308   -4.1969    0.0000 O   0  0  0  0  0  0  0  0  0  0  0  0
    2.7692   -4.1969    0.0000 C   0  0  0  0  0  0  0  0  0  0  0  0
    2.0192   -5.4960    0.0000 O   0  0  0  0  0  0  0  0  0  0  0  0
    4.2693   -4.1969    0.0000 C   0  0  0  0  0  0  0  0  0  0  0  0
    5.0193   -5.4960    0.0000 C   0  0  0  0  0  0  0  0  0  0  0  0
    4.2693   -6.7950    0.0000 C   0  0  0  0  0  0  0  0  0  0  0  0
    6.5191   -5.4960    0.0000 C   0  0  0  0  0  0  0  0  0  0  0  0
    7.2691   -6.7950    0.0000 F   0  0  0  0  0  0  0  0  0  0  0  0
    5.0193   -0.2998    0.0000 C   0  0  0  0  0  0  0  0  0  0  0  0
    5.0193    1.2002    0.0000 C   0  0  0  0  0  0  0  0  0  0  0  0
    6.3183    0.4502    0.0000 C   0  0  0  0  0  0  0  0  0  0  0  0
  1  2  1  0  0  0  0
  3  2  1  0  0  0  0
  2  7  1  0  0  0  0
  4  3  1  0  0  0  0
  5  4  1  0  0  0  0
  4  8  1  0  0  0  0
  6  5  1  0  0  0  0
  7  6  1  0  0  0  0
  9  8  2  0  0  0  0
  8 22  1  0  0  0  0
 10  9  1  0  0  0  0
 11 10  1  0  0  0  0
 10 19  2  0  0  0  0
 12 11  1  0  0  0  0
 11 24  1  0  0  0  0
 13 12  2  0  0  0  0
 13 14  1  0  0  0  0
 17 13  1  0  0  0  0
 14 15  2  0  0  0  0
 14 16  1  0  0  0  0
 17 18  2  0  0  0  0
 19 17  1  0  0  0  0
 20 19  1  0  0  0  0
 20 21  1  0  0  0  0
 22 20  2  0  0  0  0
 22 23  1  0  0  0  0
 25 24  1  0  0  0  0
 24 26  1  0  0  0  0
 26 25  1  0  0  0  0
M  END
> <Inchi_key>
AIJTTZAVMXIJGM-UHFFFAOYSA-N

> <Source>
Mulliner

> <ID>
HT1004

> <H_MFHB>
1

> <CAS>
119914-60-2

> <Cholestasis>


> <Name>
grepafloxacin hydrochloride;grepafloxacin

> <Class>
1

$$$$