
  -INDIGO-08031710012D

 19 21  0  0  0  0  0  0  0  0999 V2000
    2.3175    1.2510    0.0000 N   0  0  0  0  0  0  0  0  0  0  0  0
    3.3782    0.1904    0.0000 C   0  0  0  0  0  0  0  0  0  0  0  0
    4.8270    0.5786    0.0000 O   0  0  0  0  0  0  0  0  0  0  0  0
    2.9900   -1.2585    0.0000 N   0  0  0  0  0  0  0  0  0  0  0  0
    4.1263   -2.2377    0.0000 C   0  0  0  0  0  0  0  0  0  0  0  0
    5.4526   -1.5369    0.0000 C   0  0  0  0  0  0  0  0  0  0  0  0
    6.7226   -2.3351    0.0000 C   0  0  0  0  0  0  0  0  0  0  0  0
    6.6663   -3.8340    0.0000 C   0  0  0  0  0  0  0  0  0  0  0  0
    5.3401   -4.5348    0.0000 C   0  0  0  0  0  0  0  0  0  0  0  0
    4.0701   -3.7366    0.0000 C   0  0  0  0  0  0  0  0  0  0  0  0
    2.8636   -4.6278    0.0000 C   0  0  0  0  0  0  0  0  0  0  0  0
    1.4143   -4.2409    0.0000 C   0  0  0  0  0  0  0  0  0  0  0  0
    0.4362   -5.3781    0.0000 O   0  0  0  0  0  0  0  0  0  0  0  0
    0.8156   -2.8646    0.0000 C   0  0  0  0  0  0  0  0  0  0  0  0
   -0.6834   -2.9209    0.0000 C   0  0  0  0  0  0  0  0  0  0  0  0
   -1.4816   -1.6509    0.0000 C   0  0  0  0  0  0  0  0  0  0  0  0
   -0.7809   -0.3247    0.0000 C   0  0  0  0  0  0  0  0  0  0  0  0
    0.7181   -0.2684    0.0000 C   0  0  0  0  0  0  0  0  0  0  0  0
    1.5163   -1.5383    0.0000 C   0  0  0  0  0  0  0  0  0  0  0  0
  1  2  1  0  0  0  0
  2  3  2  0  0  0  0
  2  4  1  0  0  0  0
  5  4  1  0  0  0  0
  4 19  1  0  0  0  0
  6  5  2  0  0  0  0
  5 10  1  0  0  0  0
  7  6  1  0  0  0  0
  8  7  2  0  0  0  0
  9  8  1  0  0  0  0
 10  9  2  0  0  0  0
 11 10  1  0  0  0  0
 12 11  1  0  0  0  0
 12 13  2  0  0  0  0
 14 12  1  0  0  0  0
 15 14  2  0  0  0  0
 14 19  1  0  0  0  0
 16 15  1  0  0  0  0
 17 16  2  0  0  0  0
 18 17  1  0  0  0  0
 19 18  2  0  0  0  0
M  END
> <Inchi_key>
CTRLABGOLIVAIY-UHFFFAOYSA-N

> <Source>
Mulliner

> <ID>
HT1557

> <H_MFHB>
1

> <CAS>


> <Cholestasis>


> <Name>
oxcarbazepine

> <Class>
1

$$$$