

  -INDIGO-08031710012D

 21 23  0  0  0  0  0  0  0  0999 V2000
   -0.1614   -0.7202    0.0000 C   0  0  0  0  0  0  0  0  0  0  0  0
    1.1952   -1.3603    0.0000 N   0  0  0  0  0  0  0  0  0  0  0  0
    1.2079   -2.8603    0.0000 C   0  0  0  0  0  0  0  0  0  0  0  0
   -0.1379   -3.5223    0.0000 O   0  0  0  0  0  0  0  0  0  0  0  0
    2.3884   -3.7861    0.0000 C   0  0  0  0  0  0  0  0  0  0  0  0
    3.8481   -3.4412    0.0000 C   0  0  0  0  0  0  0  0  0  0  0  0
    4.7919   -4.6070    0.0000 O   0  0  0  0  0  0  0  0  0  0  0  0
    4.4894   -2.0851    0.0000 N   0  0  0  0  0  0  0  0  0  0  0  0
    5.9893   -2.0735    0.0000 C   0  0  0  0  0  0  0  0  0  0  0  0
    6.7493   -3.3668    0.0000 C   0  0  0  0  0  0  0  0  0  0  0  0
    8.2493   -3.3553    0.0000 C   0  0  0  0  0  0  0  0  0  0  0  0
    8.9892   -2.0505    0.0000 C   0  0  0  0  0  0  0  0  0  0  0  0
    8.2293   -0.7574    0.0000 C   0  0  0  0  0  0  0  0  0  0  0  0
    6.7293   -0.7688    0.0000 C   0  0  0  0  0  0  0  0  0  0  0  0
    3.8260   -0.7389    0.0000 C   0  0  0  0  0  0  0  0  0  0  0  0
    4.8377    0.3686    0.0000 C   0  0  0  0  0  0  0  0  0  0  0  0
    4.3844    1.7985    0.0000 C   0  0  0  0  0  0  0  0  0  0  0  0
    5.3960    2.9060    0.0000 Cl  0  0  0  0  0  0  0  0  0  0  0  0
    2.9194    2.1209    0.0000 C   0  0  0  0  0  0  0  0  0  0  0  0
    1.9078    1.0133    0.0000 C   0  0  0  0  0  0  0  0  0  0  0  0
    2.3611   -0.4165    0.0000 C   0  0  0  0  0  0  0  0  0  0  0  0
  1  2  1  0  0  0  0
  3  2  1  0  0  0  0
  2 21  1  0  0  0  0
  3  4  2  0  0  0  0
  5  3  1  0  0  0  0
  6  5  1  0  0  0  0
  6  7  2  0  0  0  0
  8  6  1  0  0  0  0
  8  9  1  0  0  0  0
 15  8  1  0  0  0  0
 10  9  2  0  0  0  0
  9 14  1  0  0  0  0
 11 10  1  0  0  0  0
 12 11  2  0  0  0  0
 13 12  1  0  0  0  0
 14 13  2  0  0  0  0
 16 15  2  0  0  0  0
 15 21  1  0  0  0  0
 17 16  1  0  0  0  0
 17 18  1  0  0  0  0
 19 17  2  0  0  0  0
 20 19  1  0  0  0  0
 21 20  2  0  0  0  0
M  END
> <Inchi_key>
CXOXHMZGEKVPMT-UHFFFAOYSA-N

> <Source>
Mulliner

> <ID>
HT0515

> <H_MFHB>
1

> <CAS>
22316-47-8

> <Cholestasis>


> <Name>
clobazam

> <Class>
1


$$$$