

  -INDIGO-08031710012D

 19 19  0  0  0  0  0  0  0  0999 V2000
   15.6072   -1.9714    0.0000 C   0  0  0  0  0  0  0  0  0  0  0  0
   14.3082   -2.7214    0.0000 C   0  0  0  0  0  0  0  0  0  0  0  0
   14.3082   -4.2214    0.0000 C   0  0  0  0  0  0  0  0  0  0  0  0
   13.0090   -1.9714    0.0000 N   0  0  0  0  0  0  0  0  0  0  0  0
   11.7100   -2.7214    0.0000 C   0  0  0  0  0  0  0  0  0  0  0  0
   10.4110   -1.9714    0.0000 C   0  0  0  0  0  0  0  0  0  0  0  0
   10.4110   -0.4714    0.0000 O   0  0  0  0  0  0  0  0  0  0  0  0
    9.1121   -2.7214    0.0000 C   0  0  0  0  0  0  0  0  0  0  0  0
    7.8131   -1.9714    0.0000 O   0  0  0  0  0  0  0  0  0  0  0  0
    6.5138   -2.7214    0.0000 C   0  0  0  0  0  0  0  0  0  0  0  0
    6.5138   -4.2214    0.0000 C   0  0  0  0  0  0  0  0  0  0  0  0
    5.2149   -4.9714    0.0000 C   0  0  0  0  0  0  0  0  0  0  0  0
    3.9159   -4.2214    0.0000 C   0  0  0  0  0  0  0  0  0  0  0  0
    2.6169   -4.9714    0.0000 N   0  0  0  0  0  0  0  0  0  0  0  0
    1.3177   -4.2214    0.0000 C   0  0  0  0  0  0  0  0  0  0  0  0
    1.3177   -2.7214    0.0000 O   0  0  0  0  0  0  0  0  0  0  0  0
    0.0187   -4.9714    0.0000 C   0  0  0  0  0  0  0  0  0  0  0  0
    3.9159   -2.7214    0.0000 C   0  0  0  0  0  0  0  0  0  0  0  0
    5.2149   -1.9714    0.0000 C   0  0  0  0  0  0  0  0  0  0  0  0
  1  2  1  0  0  0  0
  2  3  1  0  0  0  0
  2  4  1  0  0  0  0
  4  5  1  0  0  0  0
  5  6  1  0  0  0  0
  6  7  1  0  0  0  0
  6  8  1  0  0  0  0
  8  9  1  0  0  0  0
  9 10  1  0  0  0  0
 11 10  2  0  0  0  0
 10 19  1  0  0  0  0
 12 11  1  0  0  0  0
 13 12  2  0  0  0  0
 13 14  1  0  0  0  0
 18 13  1  0  0  0  0
 14 15  1  0  0  0  0
 15 16  2  0  0  0  0
 15 17  1  0  0  0  0
 19 18  2  0  0  0  0
M  END
> <Inchi_key>
DURULFYMVIFBIR-UHFFFAOYSA-N

> <Source>
Mulliner

> <ID>
HT1716

> <H_MFHB>
1

> <CAS>


> <Cholestasis>


> <Name>
practolol

> <Class>
1


$$$$