
  -INDIGO-08031710012D

 25 27  0  0  0  0  0  0  0  0999 V2000
   -0.5696    0.7646    0.0000 C   0  0  0  0  0  0  0  0  0  0  0  0
   -0.1404    2.2018    0.0000 O   0  0  0  0  0  0  0  0  0  0  0  0
    1.3189    2.5489    0.0000 C   0  0  0  0  0  0  0  0  0  0  0  0
    2.3490    1.4585    0.0000 C   0  0  0  0  0  0  0  0  0  0  0  0
    3.8083    1.8054    0.0000 C   0  0  0  0  0  0  0  0  0  0  0  0
    4.2375    3.2428    0.0000 C   0  0  0  0  0  0  0  0  0  0  0  0
    5.5928    3.8855    0.0000 C   0  0  0  0  0  0  0  0  0  0  0  0
    6.9096    3.1669    0.0000 C   0  0  0  0  0  0  0  0  0  0  0  0
    6.9453    1.6673    0.0000 O   0  0  0  0  0  0  0  0  0  0  0  0
    8.1902    3.9478    0.0000 C   0  0  0  0  0  0  0  0  0  0  0  0
    8.1543    5.4474    0.0000 C   0  0  0  0  0  0  0  0  0  0  0  0
    9.4349    6.2283    0.0000 C   0  0  0  0  0  0  0  0  0  0  0  0
   10.7515    5.5097    0.0000 C   0  0  0  0  0  0  0  0  0  0  0  0
   12.0322    6.2906    0.0000 Cl  0  0  0  0  0  0  0  0  0  0  0  0
   10.7875    4.0101    0.0000 C   0  0  0  0  0  0  0  0  0  0  0  0
    9.5068    3.2292    0.0000 C   0  0  0  0  0  0  0  0  0  0  0  0
    5.4003    5.3731    0.0000 C   0  0  0  0  0  0  0  0  0  0  0  0
    6.4906    6.4031    0.0000 C   0  0  0  0  0  0  0  0  0  0  0  0
    3.9260    5.6497    0.0000 N   0  0  0  0  0  0  0  0  0  0  0  0
    3.2831    7.0050    0.0000 C   0  0  0  0  0  0  0  0  0  0  0  0
    1.7881    7.1260    0.0000 C   0  0  0  0  0  0  0  0  0  0  0  0
    0.9358    5.8918    0.0000 O   0  0  0  0  0  0  0  0  0  0  0  0
    1.1453    8.4813    0.0000 O   0  0  0  0  0  0  0  0  0  0  0  0
    3.2074    4.3331    0.0000 C   0  0  0  0  0  0  0  0  0  0  0  0
    1.7481    3.9861    0.0000 C   0  0  0  0  0  0  0  0  0  0  0  0
  1  2  1  0  0  0  0
  2  3  1  0  0  0  0
  4  3  2  0  0  0  0
  3 25  1  0  0  0  0
  5  4  1  0  0  0  0
  6  5  2  0  0  0  0
  7  6  1  0  0  0  0
  6 24  1  0  0  0  0
  7  8  1  0  0  0  0
 17  7  2  0  0  0  0
  8  9  2  0  0  0  0
  8 10  1  0  0  0  0
 11 10  2  0  0  0  0
 10 16  1  0  0  0  0
 12 11  1  0  0  0  0
 13 12  2  0  0  0  0
 13 14  1  0  0  0  0
 15 13  1  0  0  0  0
 16 15  2  0  0  0  0
 17 18  1  0  0  0  0
 19 17  1  0  0  0  0
 19 20  1  0  0  0  0
 24 19  1  0  0  0  0
 20 21  1  0  0  0  0
 21 22  2  0  0  0  0
 21 23  1  0  0  0  0
 25 24  2  0  0  0  0
M  END
> <Inchi_key>
DGMZLCLHHVYDIS-UHFFFAOYSA-N

> <Source>
Mulliner

> <ID>
HT0525

> <H_MFHB>
1

> <CAS>


> <Cholestasis>


> <Name>
clometacin

> <Class>
1

$$$$