

  -INDIGO-08031710012D

 39 39  0  0  0  0  0  0  0  0999 V2000
   25.3846    0.0000    0.0000 C   0  0  0  0  0  0  0  0  0  0  0  0
   23.8846    0.0000    0.0000 O   0  0  0  0  0  0  0  0  0  0  0  0
   23.1346    1.2990    0.0000 C   0  0  0  0  0  0  0  0  0  0  0  0
   21.6345    1.2990    0.0000 C   0  0  0  0  0  0  0  0  0  0  0  0
   20.8845    2.5980    0.0000 C   0  0  0  0  0  0  0  0  0  0  0  0
   19.3845    2.5980    0.0000 O   0  0  0  0  0  0  0  0  0  0  0  0
   18.6345    3.8971    0.0000 C   0  0  0  0  0  0  0  0  0  0  0  0
   17.1345    3.8971    0.0000 C   0  0  0  0  0  0  0  0  0  0  0  0
   16.3845    5.1962    0.0000 C   0  0  0  0  0  0  0  0  0  0  0  0
   14.8844    5.1962    0.0000 C   0  0  0  0  0  0  0  0  0  0  0  0
   14.1344    3.8971    0.0000 C   0  0  0  0  0  0  0  0  0  0  0  0
   12.6348    3.8971    0.0000 C   0  0  0  0  0  0  0  0  0  0  0  0
   11.8848    5.1962    0.0000 C   0  0  0  0  0  0  0  0  0  0  0  0
   12.6348    6.4953    0.0000 N   0  0  0  0  0  0  0  0  0  0  0  0
   10.3847    5.1962    0.0000 C   0  0  0  0  0  0  0  0  0  0  0  0
    9.6347    3.8971    0.0000 O   0  0  0  0  0  0  0  0  0  0  0  0
    9.6347    6.4953    0.0000 C   0  0  0  0  0  0  0  0  0  0  0  0
    8.1347    6.4953    0.0000 C   0  0  0  0  0  0  0  0  0  0  0  0
    7.3847    7.7941    0.0000 C   0  0  0  0  0  0  0  0  0  0  0  0
    8.1347    9.0933    0.0000 C   0  0  0  0  0  0  0  0  0  0  0  0
    5.8847    7.7941    0.0000 C   0  0  0  0  0  0  0  0  0  0  0  0
    7.3847    5.1962    0.0000 C   0  0  0  0  0  0  0  0  0  0  0  0
    8.1347    3.8971    0.0000 O   0  0  0  0  0  0  0  0  0  0  0  0
    5.8847    5.1962    0.0000 N   0  0  0  0  0  0  0  0  0  0  0  0
    5.1347    3.8971    0.0000 C   0  0  0  0  0  0  0  0  0  0  0  0
    3.6346    3.8971    0.0000 C   0  0  0  0  0  0  0  0  0  0  0  0
    3.6346    2.3971    0.0000 C   0  0  0  0  0  0  0  0  0  0  0  0
    3.6346    5.3971    0.0000 C   0  0  0  0  0  0  0  0  0  0  0  0
    2.1346    3.8971    0.0000 C   0  0  0  0  0  0  0  0  0  0  0  0
    1.3846    2.5980    0.0000 O   0  0  0  0  0  0  0  0  0  0  0  0
    1.3846    5.1962    0.0000 N   0  0  0  0  0  0  0  0  0  0  0  0
   14.8844    2.5980    0.0000 C   0  0  0  0  0  0  0  0  0  0  0  0
   14.1344    1.2990    0.0000 C   0  0  0  0  0  0  0  0  0  0  0  0
   16.3845    2.5980    0.0000 C   0  0  0  0  0  0  0  0  0  0  0  0
   17.1345    6.4953    0.0000 C   0  0  0  0  0  0  0  0  0  0  0  0
   18.6345    6.4953    0.0000 C   0  0  0  0  0  0  0  0  0  0  0  0
   19.3845    7.7941    0.0000 O   0  0  0  0  0  0  0  0  0  0  0  0
   20.8845    7.7941    0.0000 C   0  0  0  0  0  0  0  0  0  0  0  0
   19.3845    5.1962    0.0000 C   0  0  0  0  0  0  0  0  0  0  0  0
  1  2  1  0  0  0  0
  2  3  1  0  0  0  0
  3  4  1  0  0  0  0
  4  5  1  0  0  0  0
  5  6  1  0  0  0  0
  6  7  1  0  0  0  0
  8  7  2  0  0  0  0
  7 39  1  0  0  0  0
  9  8  1  0  0  0  0
  9 10  1  0  0  0  0
 35  9  2  0  0  0  0
 10 11  1  0  0  0  0
 11 12  1  0  0  0  0
 11 32  1  0  0  0  0
 12 13  1  0  0  0  0
 13 14  1  0  0  0  0
 13 15  1  0  0  0  0
 15 16  1  0  0  0  0
 15 17  1  0  0  0  0
 17 18  1  0  0  0  0
 18 19  1  0  0  0  0
 18 22  1  0  0  0  0
 19 20  1  0  0  0  0
 19 21  1  0  0  0  0
 22 23  2  0  0  0  0
 22 24  1  0  0  0  0
 24 25  1  0  0  0  0
 25 26  1  0  0  0  0
 26 27  1  0  0  0  0
 26 28  1  0  0  0  0
 26 29  1  0  0  0  0
 29 30  2  0  0  0  0
 29 31  1  0  0  0  0
 32 33  1  0  0  0  0
 32 34  1  0  0  0  0
 36 35  1  0  0  0  0
 36 37  1  0  0  0  0
 39 36  2  0  0  0  0
 37 38  1  0  0  0  0
M  END
> <Inchi_key>
DDTHGGWGYSBSBN-UHFFFAOYSA-N

> <Source>
Mulliner

> <ID>
HT0099

> <H_MFHB>
1

> <CAS>


> <Cholestasis>


> <Name>
aliskiren hemifumarate

> <Class>
1


$$$$