

  -INDIGO-08031710012D

 14 14  0  0  0  0  0  0  0  0999 V2000
    4.1305    4.1753    0.0000 C   0  0  0  0  0  0  0  0  0  0  0  0
    4.1468    2.6754    0.0000 C   0  0  0  0  0  0  0  0  0  0  0  0
    5.4537    1.9394    0.0000 C   0  0  0  0  0  0  0  0  0  0  0  0
    6.7446    2.7034    0.0000 S   0  0  0  0  0  0  0  0  0  0  0  0
    2.8559    1.9114    0.0000 C   0  0  0  0  0  0  0  0  0  0  0  0
    2.8720    0.4115    0.0000 O   0  0  0  0  0  0  0  0  0  0  0  0
    1.5488    2.6474    0.0000 N   0  0  0  0  0  0  0  0  0  0  0  0
    1.3759    4.1374    0.0000 C   0  0  0  0  0  0  0  0  0  0  0  0
   -0.0946    4.4334    0.0000 C   0  0  0  0  0  0  0  0  0  0  0  0
   -0.8306    3.1264    0.0000 C   0  0  0  0  0  0  0  0  0  0  0  0
    0.1851    2.0225    0.0000 C   0  0  0  0  0  0  0  0  0  0  0  0
   -0.1109    0.5520    0.0000 C   0  0  0  0  0  0  0  0  0  0  0  0
    1.0145   -0.4396    0.0000 O   0  0  0  0  0  0  0  0  0  0  0  0
   -1.5324    0.0732    0.0000 O   0  0  0  0  0  0  0  0  0  0  0  0
  1  2  1  0  0  0  0
  2  3  1  0  0  0  0
  2  5  1  0  0  0  0
  3  4  1  0  0  0  0
  5  6  2  0  0  0  0
  5  7  1  0  0  0  0
  8  7  1  0  0  0  0
  7 11  1  0  0  0  0
  9  8  1  0  0  0  0
 10  9  1  0  0  0  0
 11 10  1  0  0  0  0
 11 12  1  0  0  0  0
 12 13  2  0  0  0  0
 12 14  1  0  0  0  0
M  END
> <Inchi_key>
FAKRSMQSSFJEIM-UHFFFAOYSA-N

> <Source>
Mulliner , Kotsampasakou

> <ID>
EK0085;HT0369

> <H_MFHB>
1

> <CAS>
62571-86-2

> <Cholestasis>
1

> <Name>
captopril

> <Class>
1


$$$$