
  -INDIGO-08031710012D

 29 33  0  0  0  0  0  0  0  0999 V2000
    4.3997   -0.0000    0.0000 C   0  0  0  0  0  0  0  0  0  0  0  0
    2.8997   -0.0000    0.0000 O   0  0  0  0  0  0  0  0  0  0  0  0
    2.1496   -1.2989    0.0000 C   0  0  0  0  0  0  0  0  0  0  0  0
    2.8997   -2.5981    0.0000 C   0  0  0  0  0  0  0  0  0  0  0  0
    4.3997   -2.5981    0.0000 N   0  0  0  0  0  0  0  0  0  0  0  0
    5.2814   -1.3846    0.0000 C   0  0  0  0  0  0  0  0  0  0  0  0
    6.7078   -1.8481    0.0000 C   0  0  0  0  0  0  0  0  0  0  0  0
    8.0068   -1.0981    0.0000 C   0  0  0  0  0  0  0  0  0  0  0  0
    9.3059   -1.8481    0.0000 C   0  0  0  0  0  0  0  0  0  0  0  0
    9.3059   -3.3482    0.0000 C   0  0  0  0  0  0  0  0  0  0  0  0
    8.0068   -4.0981    0.0000 N   0  0  0  0  0  0  0  0  0  0  0  0
    6.7078   -3.3482    0.0000 C   0  0  0  0  0  0  0  0  0  0  0  0
    5.2814   -3.8116    0.0000 C   0  0  0  0  0  0  0  0  0  0  0  0
    2.1496   -3.8972    0.0000 C   0  0  0  0  0  0  0  0  0  0  0  0
    2.8997   -5.1962    0.0000 F   0  0  0  0  0  0  0  0  0  0  0  0
    0.6496   -3.8972    0.0000 C   0  0  0  0  0  0  0  0  0  0  0  0
   -0.1003   -2.5981    0.0000 C   0  0  0  0  0  0  0  0  0  0  0  0
   -1.6004   -2.5981    0.0000 C   0  0  0  0  0  0  0  0  0  0  0  0
   -2.3505   -3.8972    0.0000 O   0  0  0  0  0  0  0  0  0  0  0  0
   -2.3505   -1.2989    0.0000 C   0  0  0  0  0  0  0  0  0  0  0  0
   -1.6004   -0.0000    0.0000 C   0  0  0  0  0  0  0  0  0  0  0  0
   -0.1003   -0.0000    0.0000 N   0  0  0  0  0  0  0  0  0  0  0  0
    0.6496    1.2990    0.0000 C   0  0  0  0  0  0  0  0  0  0  0  0
    0.6496    2.7990    0.0000 C   0  0  0  0  0  0  0  0  0  0  0  0
    1.9486    2.0490    0.0000 C   0  0  0  0  0  0  0  0  0  0  0  0
    0.6496   -1.2989    0.0000 C   0  0  0  0  0  0  0  0  0  0  0  0
   -3.8505   -1.2989    0.0000 C   0  0  0  0  0  0  0  0  0  0  0  0
   -4.6004   -0.0000    0.0000 O   0  0  0  0  0  0  0  0  0  0  0  0
   -4.6004   -2.5981    0.0000 O   0  0  0  0  0  0  0  0  0  0  0  0
  1  2  1  0  0  0  0
  2  3  1  0  0  0  0
  4  3  2  0  0  0  0
  3 26  1  0  0  0  0
  4  5  1  0  0  0  0
 14  4  1  0  0  0  0
  6  5  1  0  0  0  0
  5 13  1  0  0  0  0
  7  6  1  0  0  0  0
  8  7  1  0  0  0  0
  7 12  1  0  0  0  0
  9  8  1  0  0  0  0
 10  9  1  0  0  0  0
 11 10  1  0  0  0  0
 12 11  1  0  0  0  0
 13 12  1  0  0  0  0
 14 15  1  0  0  0  0
 16 14  2  0  0  0  0
 17 16  1  0  0  0  0
 18 17  1  0  0  0  0
 17 26  2  0  0  0  0
 18 19  2  0  0  0  0
 20 18  1  0  0  0  0
 21 20  2  0  0  0  0
 20 27  1  0  0  0  0
 22 21  1  0  0  0  0
 22 23  1  0  0  0  0
 26 22  1  0  0  0  0
 24 23  1  0  0  0  0
 23 25  1  0  0  0  0
 25 24  1  0  0  0  0
 27 28  2  0  0  0  0
 27 29  1  0  0  0  0
M  END
> <Inchi_key>
FABPRXSRWADJSP-UHFFFAOYSA-N

> <Source>
Mulliner

> <ID>
HT1438

> <H_MFHB>
1

> <CAS>


> <Cholestasis>


> <Name>
moxifloxacin hydrochloride;moxifloxacin

> <Class>
1

$$$$