
  -INDIGO-08031710012D

 13 13  0  0  0  0  0  0  0  0999 V2000
    9.1437   -2.5113    0.0000 C   0  0  0  0  0  0  0  0  0  0  0  0
    7.8541   -1.7451    0.0000 N   0  0  0  0  0  0  0  0  0  0  0  0
    7.8728   -0.2452    0.0000 C   0  0  0  0  0  0  0  0  0  0  0  0
    6.5458   -2.4789    0.0000 N   0  0  0  0  0  0  0  0  0  0  0  0
    5.2563   -1.7127    0.0000 N   0  0  0  0  0  0  0  0  0  0  0  0
    3.9480   -2.4465    0.0000 C   0  0  0  0  0  0  0  0  0  0  0  0
    3.7725   -3.9362    0.0000 N   0  0  0  0  0  0  0  0  0  0  0  0
    2.3016   -4.2297    0.0000 C   0  0  0  0  0  0  0  0  0  0  0  0
    1.5679   -2.9214    0.0000 N   0  0  0  0  0  0  0  0  0  0  0  0
    2.5855   -1.8193    0.0000 C   0  0  0  0  0  0  0  0  0  0  0  0
    2.2918   -0.3483    0.0000 C   0  0  0  0  0  0  0  0  0  0  0  0
    3.4190    0.6414    0.0000 O   0  0  0  0  0  0  0  0  0  0  0  0
    0.8711    0.1329    0.0000 N   0  0  0  0  0  0  0  0  0  0  0  0
  1  2  1  0  0  0  0
  2  3  1  0  0  0  0
  2  4  1  0  0  0  0
  4  5  2  0  0  0  0
  5  6  1  0  0  0  0
  7  6  1  0  0  0  0
  6 10  2  0  0  0  0
  8  7  1  0  0  0  0
  9  8  2  0  0  0  0
 10  9  1  0  0  0  0
 10 11  1  0  0  0  0
 11 12  2  0  0  0  0
 11 13  1  0  0  0  0
M  END
> <Inchi_key>
FDKXTQMXEQVLRF-ZHACJKMWSA-N

> <Source>
Mulliner

> <ID>
HT0581

> <H_MFHB>
1

> <CAS>


> <Cholestasis>


> <Name>
dacarbazine

> <Class>
1

$$$$