
  -INDIGO-08031710012D

 26 28  0  0  0  0  0  0  0  0999 V2000
   -3.1841    1.6620    0.0000 C   0  0  0  0  0  0  0  0  0  0  0  0
   -4.0418    2.8926    0.0000 C   0  0  0  0  0  0  0  0  0  0  0  0
   -5.5364    2.7652    0.0000 O   0  0  0  0  0  0  0  0  0  0  0  0
   -3.4048    4.2506    0.0000 C   0  0  0  0  0  0  0  0  0  0  0  0
   -1.9941    4.7606    0.0000 C   0  0  0  0  0  0  0  0  0  0  0  0
   -0.4951    4.8097    0.0000 C   0  0  0  0  0  0  0  0  0  0  0  0
    0.4259    3.6256    0.0000 C   0  0  0  0  0  0  0  0  0  0  0  0
   -0.0784    6.2507    0.0000 C   0  0  0  0  0  0  0  0  0  0  0  0
   -1.3202    7.0923    0.0000 C   0  0  0  0  0  0  0  0  0  0  0  0
   -2.5042    6.1712    0.0000 N   0  0  0  0  0  0  0  0  0  0  0  0
   -3.9149    5.6613    0.0000 C   0  0  0  0  0  0  0  0  0  0  0  0
   -5.2730    6.2983    0.0000 O   0  0  0  0  0  0  0  0  0  0  0  0
   -1.3692    8.5914    0.0000 C   0  0  0  0  0  0  0  0  0  0  0  0
   -2.6920    9.2985    0.0000 O   0  0  0  0  0  0  0  0  0  0  0  0
   -0.0954    9.3834    0.0000 O   0  0  0  0  0  0  0  0  0  0  0  0
    1.3323    6.7606    0.0000 S   0  0  0  0  0  0  0  0  0  0  0  0
    2.4792    5.7939    0.0000 C   0  0  0  0  0  0  0  0  0  0  0  0
    2.3713    4.2978    0.0000 C   0  0  0  0  0  0  0  0  0  0  0  0
    3.7608    3.7328    0.0000 N   0  0  0  0  0  0  0  0  0  0  0  0
    4.7275    4.8798    0.0000 C   0  0  0  0  0  0  0  0  0  0  0  0
    3.9353    6.1536    0.0000 C   0  0  0  0  0  0  0  0  0  0  0  0
    6.2235    4.7719    0.0000 C   0  0  0  0  0  0  0  0  0  0  0  0
    7.0651    6.0136    0.0000 O   0  0  0  0  0  0  0  0  0  0  0  0
    6.8781    3.4222    0.0000 N   0  0  0  0  0  0  0  0  0  0  0  0
    8.3744    3.3143    0.0000 C   0  0  0  0  0  0  0  0  0  0  0  0
    6.0367    2.1805    0.0000 C   0  0  0  0  0  0  0  0  0  0  0  0
  1  2  1  0  0  0  0
  2  3  1  0  0  0  0
  2  4  1  0  0  0  0
  5  4  1  0  0  0  0
  4 11  1  0  0  0  0
  6  5  1  0  0  0  0
  5 10  1  0  0  0  0
  6  7  1  0  0  0  0
  8  6  1  0  0  0  0
  9  8  2  0  0  0  0
  8 16  1  0  0  0  0
 10  9  1  0  0  0  0
  9 13  1  0  0  0  0
 11 10  1  0  0  0  0
 11 12  2  0  0  0  0
 13 14  2  0  0  0  0
 13 15  1  0  0  0  0
 16 17  1  0  0  0  0
 18 17  1  0  0  0  0
 17 21  1  0  0  0  0
 19 18  1  0  0  0  0
 20 19  1  0  0  0  0
 21 20  1  0  0  0  0
 20 22  1  0  0  0  0
 22 23  2  0  0  0  0
 22 24  1  0  0  0  0
 24 25  1  0  0  0  0
 24 26  1  0  0  0  0
M  END
> <Inchi_key>
DMJNNHOOLUXYBV-UHFFFAOYSA-N

> <Source>
Mulliner , Kotsampasakou

> <ID>
EK0323;HT1316

> <H_MFHB>
1

> <CAS>


> <Cholestasis>
1

> <Name>
meropenem

> <Class>
1

$$$$