
  -INDIGO-08031710012D

 33 35  0  0  0  0  0  0  0  0999 V2000
   16.7804    2.6855    0.0000 C   0  0  0  0  0  0  0  0  0  0  0  0
   15.4814    1.9356    0.0000 C   0  0  0  0  0  0  0  0  0  0  0  0
   15.4814    0.4356    0.0000 O   0  0  0  0  0  0  0  0  0  0  0  0
   14.1822   -0.3145    0.0000 C   0  0  0  0  0  0  0  0  0  0  0  0
   12.8832    0.4356    0.0000 C   0  0  0  0  0  0  0  0  0  0  0  0
   11.5843   -0.3145    0.0000 C   0  0  0  0  0  0  0  0  0  0  0  0
   10.2853    0.4356    0.0000 C   0  0  0  0  0  0  0  0  0  0  0  0
    8.9863   -0.3145    0.0000 C   0  0  0  0  0  0  0  0  0  0  0  0
    8.9863   -1.8145    0.0000 O   0  0  0  0  0  0  0  0  0  0  0  0
    7.6871    0.4356    0.0000 N   0  0  0  0  0  0  0  0  0  0  0  0
    6.3881   -0.3145    0.0000 C   0  0  0  0  0  0  0  0  0  0  0  0
    5.0892    0.4356    0.0000 C   0  0  0  0  0  0  0  0  0  0  0  0
    5.0892    1.9356    0.0000 C   0  0  0  0  0  0  0  0  0  0  0  0
    6.3881    2.6855    0.0000 C   0  0  0  0  0  0  0  0  0  0  0  0
    3.7899    2.6855    0.0000 C   0  0  0  0  0  0  0  0  0  0  0  0
    6.3881   -1.8145    0.0000 C   0  0  0  0  0  0  0  0  0  0  0  0
    7.6871   -2.5646    0.0000 C   0  0  0  0  0  0  0  0  0  0  0  0
    7.6871   -4.0644    0.0000 C   0  0  0  0  0  0  0  0  0  0  0  0
    6.3881   -4.8145    0.0000 C   0  0  0  0  0  0  0  0  0  0  0  0
    5.0892   -4.0644    0.0000 C   0  0  0  0  0  0  0  0  0  0  0  0
    5.0892   -2.5646    0.0000 C   0  0  0  0  0  0  0  0  0  0  0  0
    3.7899   -1.8145    0.0000 N   0  0  0  0  0  0  0  0  0  0  0  0
    3.7899   -0.3145    0.0000 C   0  0  0  0  0  0  0  0  0  0  0  0
    2.4910    0.4356    0.0000 C   0  0  0  0  0  0  0  0  0  0  0  0
    1.1920   -0.3145    0.0000 C   0  0  0  0  0  0  0  0  0  0  0  0
    1.1920   -1.8145    0.0000 C   0  0  0  0  0  0  0  0  0  0  0  0
    2.4910   -2.5646    0.0000 C   0  0  0  0  0  0  0  0  0  0  0  0
   11.5843   -1.8145    0.0000 C   0  0  0  0  0  0  0  0  0  0  0  0
   12.8832   -2.5646    0.0000 C   0  0  0  0  0  0  0  0  0  0  0  0
   14.1822   -1.8145    0.0000 C   0  0  0  0  0  0  0  0  0  0  0  0
   15.4814   -2.5646    0.0000 C   0  0  0  0  0  0  0  0  0  0  0  0
   16.7804   -1.8145    0.0000 O   0  0  0  0  0  0  0  0  0  0  0  0
   15.4814   -4.0644    0.0000 O   0  0  0  0  0  0  0  0  0  0  0  0
  1  2  1  0  0  0  0
  2  3  1  0  0  0  0
  3  4  1  0  0  0  0
  5  4  2  0  0  0  0
  4 30  1  0  0  0  0
  6  5  1  0  0  0  0
  6  7  1  0  0  0  0
 28  6  2  0  0  0  0
  7  8  1  0  0  0  0
  8  9  2  0  0  0  0
  8 10  1  0  0  0  0
 10 11  1  0  0  0  0
 11 12  1  0  0  0  0
 11 16  1  0  0  0  0
 12 13  1  0  0  0  0
 13 14  1  0  0  0  0
 13 15  1  0  0  0  0
 17 16  2  0  0  0  0
 16 21  1  0  0  0  0
 18 17  1  0  0  0  0
 19 18  2  0  0  0  0
 20 19  1  0  0  0  0
 21 20  2  0  0  0  0
 21 22  1  0  0  0  0
 23 22  1  0  0  0  0
 22 27  1  0  0  0  0
 24 23  1  0  0  0  0
 25 24  1  0  0  0  0
 26 25  1  0  0  0  0
 27 26  1  0  0  0  0
 29 28  1  0  0  0  0
 30 29  2  0  0  0  0
 30 31  1  0  0  0  0
 31 32  2  0  0  0  0
 31 33  1  0  0  0  0
M  END
> <Inchi_key>
FAEKWTJYAYMJKF-UHFFFAOYSA-N

> <Source>
Mulliner , Kotsampasakou

> <ID>
EK0465;HT1811

> <H_MFHB>
1

> <CAS>


> <Cholestasis>
1

> <Name>
repaglinide

> <Class>
1

$$$$