

  -INDIGO-08031709442D

 12 11  0  0  0  0  0  0  0  0999 V2000
   -0.3714   -2.5111    0.0000 Cl  0  0  0  0  0  0  0  0  0  0  0  0
    0.9277   -1.7611    0.0000 C   0  0  0  0  0  0  0  0  0  0  0  0
    2.2267   -2.5111    0.0000 C   0  0  0  0  0  0  0  0  0  0  0  0
    3.5258   -1.7611    0.0000 N   0  0  0  0  0  0  0  0  0  0  0  0
    3.5258   -0.2611    0.0000 N   0  0  0  0  0  0  0  0  0  0  0  0
    2.2267    0.4889    0.0000 O   0  0  0  0  0  0  0  0  0  0  0  0
    4.8248   -2.5111    0.0000 C   0  0  0  0  0  0  0  0  0  0  0  0
    4.8248   -4.0111    0.0000 O   0  0  0  0  0  0  0  0  0  0  0  0
    6.1237   -1.7611    0.0000 N   0  0  0  0  0  0  0  0  0  0  0  0
    7.4228   -2.5111    0.0000 C   0  0  0  0  0  0  0  0  0  0  0  0
    8.7218   -1.7611    0.0000 C   0  0  0  0  0  0  0  0  0  0  0  0
   10.0209   -2.5111    0.0000 Cl  0  0  0  0  0  0  0  0  0  0  0  0
  1  2  1  0  0  0  0
  2  3  1  0  0  0  0
  3  4  1  0  0  0  0
  4  5  1  0  0  0  0
  4  7  1  0  0  0  0
  5  6  2  0  0  0  0
  7  8  2  0  0  0  0
  7  9  1  0  0  0  0
  9 10  1  0  0  0  0
 10 11  1  0  0  0  0
 11 12  1  0  0  0  0
M  END
> <Inchi_key>
DLGOEMSEDOSKAD-UHFFFAOYSA-N

> <Source>
Kotsampasakou

> <ID>
EK0095

> <H_MFHB>


> <CAS>


> <Cholestasis>
1

> <Name>
carmustine

> <Class>
1


$$$$