

  -INDIGO-08031709442D

 24 26  0  0  0  0  0  0  0  0999 V2000
    5.5171   -5.5171    0.0000 Cl  0  0  0  0  0  0  0  0  0  0  0  0
    5.5171   -4.0171    0.0000 C   0  0  0  0  0  0  0  0  0  0  0  0
    4.2181   -3.2671    0.0000 C   0  0  0  0  0  0  0  0  0  0  0  0
    2.7915   -3.7306    0.0000 O   0  0  0  0  0  0  0  0  0  0  0  0
    1.9099   -2.5171    0.0000 C   0  0  0  0  0  0  0  0  0  0  0  0
    1.1598   -3.8161    0.0000 C   0  0  0  0  0  0  0  0  0  0  0  0
   -0.3403   -3.8161    0.0000 C   0  0  0  0  0  0  0  0  0  0  0  0
   -1.0902   -2.5171    0.0000 C   0  0  0  0  0  0  0  0  0  0  0  0
   -2.5902   -2.5171    0.0000 O   0  0  0  0  0  0  0  0  0  0  0  0
   -0.3403   -1.2180    0.0000 C   0  0  0  0  0  0  0  0  0  0  0  0
    1.1598   -1.2180    0.0000 C   0  0  0  0  0  0  0  0  0  0  0  0
    1.4202    0.2592    0.0000 O   0  0  0  0  0  0  0  0  0  0  0  0
    0.2712    1.2233    0.0000 C   0  0  0  0  0  0  0  0  0  0  0  0
    1.9099   -5.1152    0.0000 C   0  0  0  0  0  0  0  0  0  0  0  0
    2.7915   -1.3036    0.0000 C   0  0  0  0  0  0  0  0  0  0  0  0
    2.5827    0.1818    0.0000 O   0  0  0  0  0  0  0  0  0  0  0  0
    4.2181   -1.7671    0.0000 C   0  0  0  0  0  0  0  0  0  0  0  0
    5.5171   -1.0171    0.0000 C   0  0  0  0  0  0  0  0  0  0  0  0
    5.5171    0.4829    0.0000 O   0  0  0  0  0  0  0  0  0  0  0  0
    6.8160    1.2329    0.0000 C   0  0  0  0  0  0  0  0  0  0  0  0
    6.8160   -1.7671    0.0000 C   0  0  0  0  0  0  0  0  0  0  0  0
    6.8160   -3.2671    0.0000 C   0  0  0  0  0  0  0  0  0  0  0  0
    8.1151   -4.0171    0.0000 O   0  0  0  0  0  0  0  0  0  0  0  0
    9.4142   -3.2671    0.0000 C   0  0  0  0  0  0  0  0  0  0  0  0
  1  2  1  0  0  0  0
  3  2  2  0  0  0  0
  2 22  1  0  0  0  0
  4  3  1  0  0  0  0
  3 17  1  0  0  0  0
  5  4  1  0  0  0  0
  6  5  1  0  0  0  0
  5 11  1  0  0  0  0
 15  5  1  0  0  0  0
  7  6  1  0  0  0  0
  6 14  1  0  0  0  0
  8  7  1  0  0  0  0
  8  9  2  0  0  0  0
 10  8  1  0  0  0  0
 11 10  2  0  0  0  0
 11 12  1  0  0  0  0
 12 13  1  0  0  0  0
 15 16  2  0  0  0  0
 17 15  1  0  0  0  0
 18 17  2  0  0  0  0
 18 19  1  0  0  0  0
 21 18  1  0  0  0  0
 19 20  1  0  0  0  0
 22 21  2  0  0  0  0
 22 23  1  0  0  0  0
 23 24  1  0  0  0  0
M  END
> <Inchi_key>
DDUHZTYCFQRHIY-UHFFFAOYSA-N

> <Source>
Kotsampasakou

> <ID>
EK0249

> <H_MFHB>


> <CAS>


> <Cholestasis>
1

> <Name>
griseofulvin

> <Class>
1


$$$$