

  -INDIGO-08031710012D

 12 11  0  0  0  0  0  0  0  0999 V2000
    7.5389   -2.0200    0.0000 F   0  0  0  0  0  0  0  0  0  0  0  0
    6.2398   -1.2700    0.0000 C   0  0  0  0  0  0  0  0  0  0  0  0
    4.9408   -2.0200    0.0000 O   0  0  0  0  0  0  0  0  0  0  0  0
    3.6417   -1.2700    0.0000 C   0  0  0  0  0  0  0  0  0  0  0  0
    3.6417    0.2300    0.0000 C   0  0  0  0  0  0  0  0  0  0  0  0
    2.1417    0.2300    0.0000 F   0  0  0  0  0  0  0  0  0  0  0  0
    3.6417    1.7300    0.0000 F   0  0  0  0  0  0  0  0  0  0  0  0
    5.1417    0.2300    0.0000 F   0  0  0  0  0  0  0  0  0  0  0  0
    2.3427   -2.0200    0.0000 C   0  0  0  0  0  0  0  0  0  0  0  0
    1.0437   -2.7700    0.0000 F   0  0  0  0  0  0  0  0  0  0  0  0
    3.0927   -3.3191    0.0000 F   0  0  0  0  0  0  0  0  0  0  0  0
    1.5927   -0.7210    0.0000 F   0  0  0  0  0  0  0  0  0  0  0  0
  1  2  1  0  0  0  0
  2  3  1  0  0  0  0
  3  4  1  0  0  0  0
  4  5  1  0  0  0  0
  4  9  1  0  0  0  0
  5  6  1  0  0  0  0
  5  7  1  0  0  0  0
  5  8  1  0  0  0  0
  9 10  1  0  0  0  0
  9 11  1  0  0  0  0
  9 12  1  0  0  0  0
M  END
> <Inchi_key>
DFEYYRMXOJXZRJ-UHFFFAOYSA-N

> <Source>
Mulliner

> <ID>
HT1883

> <H_MFHB>
1

> <CAS>


> <Cholestasis>


> <Name>
sevoflurane

> <Class>
1


$$$$