
  -INDIGO-08031710012D

 22 23  0  0  0  0  0  0  0  0999 V2000
    1.1274    1.1274    0.0000 C   0  0  0  0  0  0  0  0  0  0  0  0
    1.1274   -0.3726    0.0000 N   0  0  0  0  0  0  0  0  0  0  0  0
    2.4266   -1.1226    0.0000 C   0  0  0  0  0  0  0  0  0  0  0  0
    3.7256   -0.3726    0.0000 C   0  0  0  0  0  0  0  0  0  0  0  0
    5.0246   -1.1226    0.0000 C   0  0  0  0  0  0  0  0  0  0  0  0
    6.3235   -0.3726    0.0000 C   0  0  0  0  0  0  0  0  0  0  0  0
    7.6225    0.3774    0.0000 C   0  0  0  0  0  0  0  0  0  0  0  0
    8.9217    1.1274    0.0000 C   0  0  0  0  0  0  0  0  0  0  0  0
    9.6717   -0.1716    0.0000 C   0  0  0  0  0  0  0  0  0  0  0  0
    8.1717    2.4265    0.0000 C   0  0  0  0  0  0  0  0  0  0  0  0
   10.2207    1.8774    0.0000 C   0  0  0  0  0  0  0  0  0  0  0  0
   -0.1716   -1.1226    0.0000 C   0  0  0  0  0  0  0  0  0  0  0  0
   -1.4705   -0.3726    0.0000 C   0  0  0  0  0  0  0  0  0  0  0  0
   -1.4705    1.1274    0.0000 C   0  0  0  0  0  0  0  0  0  0  0  0
   -2.7698    1.8774    0.0000 C   0  0  0  0  0  0  0  0  0  0  0  0
   -4.0687    1.1274    0.0000 C   0  0  0  0  0  0  0  0  0  0  0  0
   -4.0687   -0.3726    0.0000 C   0  0  0  0  0  0  0  0  0  0  0  0
   -5.3677   -1.1226    0.0000 C   0  0  0  0  0  0  0  0  0  0  0  0
   -5.3677   -2.6226    0.0000 C   0  0  0  0  0  0  0  0  0  0  0  0
   -4.0687   -3.3726    0.0000 C   0  0  0  0  0  0  0  0  0  0  0  0
   -2.7698   -2.6226    0.0000 C   0  0  0  0  0  0  0  0  0  0  0  0
   -2.7698   -1.1226    0.0000 C   0  0  0  0  0  0  0  0  0  0  0  0
  1  2  1  0  0  0  0
  2  3  1  0  0  0  0
  2 12  1  0  0  0  0
  3  4  1  0  0  0  0
  4  5  2  0  0  0  0
  5  6  1  0  0  0  0
  6  7  3  0  0  0  0
  7  8  1  0  0  0  0
  8  9  1  0  0  0  0
  8 10  1  0  0  0  0
  8 11  1  0  0  0  0
 12 13  1  0  0  0  0
 14 13  2  0  0  0  0
 13 22  1  0  0  0  0
 15 14  1  0  0  0  0
 16 15  2  0  0  0  0
 17 16  1  0  0  0  0
 18 17  1  0  0  0  0
 17 22  2  0  0  0  0
 19 18  2  0  0  0  0
 20 19  1  0  0  0  0
 21 20  2  0  0  0  0
 22 21  1  0  0  0  0
M  END
> <Inchi_key>
DOMXUEMWDBAQBQ-WEVVVXLNSA-N

> <Source>
Mulliner , Kotsampasakou

> <ID>
EK0511;HT2008

> <H_MFHB>
1

> <CAS>
91161-71-6

> <Cholestasis>
1

> <Name>
terbinafine hydrochloride;terbinafine

> <Class>
1

$$$$