
  -INDIGO-08031710012D

 20 21  0  0  0  0  0  0  0  0999 V2000
    2.8048    4.5871    0.0000 N   0  0  0  0  0  0  0  0  0  0  0  0
    3.0653    3.1098    0.0000 S   0  0  0  0  0  0  0  0  0  0  0  0
    4.5425    3.3703    0.0000 O   0  0  0  0  0  0  0  0  0  0  0  0
    1.5882    2.8494    0.0000 O   0  0  0  0  0  0  0  0  0  0  0  0
    3.3258    1.6326    0.0000 C   0  0  0  0  0  0  0  0  0  0  0  0
    4.8258    1.6326    0.0000 C   0  0  0  0  0  0  0  0  0  0  0  0
    5.5757    0.3336    0.0000 C   0  0  0  0  0  0  0  0  0  0  0  0
    4.8258   -0.9654    0.0000 C   0  0  0  0  0  0  0  0  0  0  0  0
    5.5757   -2.2645    0.0000 N   0  0  0  0  0  0  0  0  0  0  0  0
    7.0758   -2.2645    0.0000 C   0  0  0  0  0  0  0  0  0  0  0  0
    7.8258   -0.9654    0.0000 N   0  0  0  0  0  0  0  0  0  0  0  0
    7.0758    0.3336    0.0000 S   0  0  0  0  0  0  0  0  0  0  0  0
    8.3748    1.0836    0.0000 O   0  0  0  0  0  0  0  0  0  0  0  0
    7.0758    1.8336    0.0000 O   0  0  0  0  0  0  0  0  0  0  0  0
    3.3258   -0.9654    0.0000 C   0  0  0  0  0  0  0  0  0  0  0  0
    2.5757    0.3336    0.0000 C   0  0  0  0  0  0  0  0  0  0  0  0
    1.1663   -0.1794    0.0000 C   0  0  0  0  0  0  0  0  0  0  0  0
   -0.2433   -0.6925    0.0000 F   0  0  0  0  0  0  0  0  0  0  0  0
    1.6793   -1.5890    0.0000 F   0  0  0  0  0  0  0  0  0  0  0  0
    0.6532    1.2301    0.0000 F   0  0  0  0  0  0  0  0  0  0  0  0
  1  2  1  0  0  0  0
  2  3  2  0  0  0  0
  2  4  2  0  0  0  0
  2  5  1  0  0  0  0
  6  5  2  0  0  0  0
  5 16  1  0  0  0  0
  7  6  1  0  0  0  0
  7  8  2  0  0  0  0
 12  7  1  0  0  0  0
  8  9  1  0  0  0  0
 15  8  1  0  0  0  0
  9 10  1  0  0  0  0
 10 11  1  0  0  0  0
 11 12  1  0  0  0  0
 12 13  2  0  0  0  0
 12 14  2  0  0  0  0
 16 15  2  0  0  0  0
 16 17  1  0  0  0  0
 17 18  1  0  0  0  0
 17 19  1  0  0  0  0
 17 20  1  0  0  0  0
M  END
> <Inchi_key>
DMDGGSIALPNSEE-UHFFFAOYSA-N

> <Source>
Mulliner

> <ID>
HT1055

> <H_MFHB>
1

> <CAS>


> <Cholestasis>


> <Name>
hydroflumethiazide

> <Class>
1

$$$$