
  -INDIGO-08031710012D

 16 18  0  0  0  0  0  0  0  0999 V2000
   11.0419   -0.5625    0.0000 O   0  0  0  0  0  0  0  0  0  0  0  0
    9.5419   -0.5625    0.0000 C   0  0  0  0  0  0  0  0  0  0  0  0
    8.6603    0.6510    0.0000 C   0  0  0  0  0  0  0  0  0  0  0  0
    7.2337    0.1875    0.0000 N   0  0  0  0  0  0  0  0  0  0  0  0
    5.9346    0.9375    0.0000 C   0  0  0  0  0  0  0  0  0  0  0  0
    4.6357    0.1875    0.0000 C   0  0  0  0  0  0  0  0  0  0  0  0
    3.3366    0.9375    0.0000 C   0  0  0  0  0  0  0  0  0  0  0  0
    3.3366    2.4375    0.0000 Cl  0  0  0  0  0  0  0  0  0  0  0  0
    2.0375    0.1875    0.0000 C   0  0  0  0  0  0  0  0  0  0  0  0
    0.7385    0.9375    0.0000 Cl  0  0  0  0  0  0  0  0  0  0  0  0
    2.0375   -1.3125    0.0000 C   0  0  0  0  0  0  0  0  0  0  0  0
    3.3366   -2.0625    0.0000 C   0  0  0  0  0  0  0  0  0  0  0  0
    4.6357   -1.3125    0.0000 C   0  0  0  0  0  0  0  0  0  0  0  0
    5.9346   -2.0625    0.0000 N   0  0  0  0  0  0  0  0  0  0  0  0
    7.2337   -1.3125    0.0000 C   0  0  0  0  0  0  0  0  0  0  0  0
    8.6603   -1.7760    0.0000 N   0  0  0  0  0  0  0  0  0  0  0  0
  1  2  1  0  0  0  0
  3  2  2  0  0  0  0
  2 16  1  0  0  0  0
  4  3  1  0  0  0  0
  5  4  1  0  0  0  0
  4 15  1  0  0  0  0
  6  5  1  0  0  0  0
  7  6  2  0  0  0  0
  6 13  1  0  0  0  0
  7  8  1  0  0  0  0
  9  7  1  0  0  0  0
  9 10  1  0  0  0  0
 11  9  2  0  0  0  0
 12 11  1  0  0  0  0
 13 12  2  0  0  0  0
 14 13  1  0  0  0  0
 15 14  1  0  0  0  0
 16 15  2  0  0  0  0
M  END
> <Inchi_key>
CUCMIJQKFCWAPD-UHFFFAOYSA-N

> <Source>
Mulliner

> <ID>
HT0157

> <H_MFHB>
1

> <CAS>


> <Cholestasis>


> <Name>
anagrelide hydrochloride;anagrelide

> <Class>
1

$$$$