
  -INDIGO-08031710012D

 19 20  0  0  0  0  0  0  0  0999 V2000
    7.8158    3.5553    0.0000 O   0  0  0  0  0  0  0  0  0  0  0  0
    7.0658    4.8543    0.0000 C   0  0  0  0  0  0  0  0  0  0  0  0
    7.8158    6.1533    0.0000 O   0  0  0  0  0  0  0  0  0  0  0  0
    5.5659    4.8543    0.0000 C   0  0  0  0  0  0  0  0  0  0  0  0
    4.8157    3.5553    0.0000 C   0  0  0  0  0  0  0  0  0  0  0  0
    5.5659    2.2562    0.0000 C   0  0  0  0  0  0  0  0  0  0  0  0
    4.8157    0.9572    0.0000 C   0  0  0  0  0  0  0  0  0  0  0  0
    3.3158    0.9572    0.0000 C   0  0  0  0  0  0  0  0  0  0  0  0
    2.5658    2.2562    0.0000 C   0  0  0  0  0  0  0  0  0  0  0  0
    3.3158    3.5553    0.0000 C   0  0  0  0  0  0  0  0  0  0  0  0
    2.5658    4.8543    0.0000 N   0  0  0  0  0  0  0  0  0  0  0  0
    1.0659    4.8543    0.0000 C   0  0  0  0  0  0  0  0  0  0  0  0
    0.3157    3.5553    0.0000 C   0  0  0  0  0  0  0  0  0  0  0  0
    1.0659    2.2562    0.0000 Cl  0  0  0  0  0  0  0  0  0  0  0  0
   -1.1842    3.5553    0.0000 C   0  0  0  0  0  0  0  0  0  0  0  0
   -1.9342    4.8543    0.0000 C   0  0  0  0  0  0  0  0  0  0  0  0
   -1.1842    6.1533    0.0000 C   0  0  0  0  0  0  0  0  0  0  0  0
    0.3157    6.1533    0.0000 C   0  0  0  0  0  0  0  0  0  0  0  0
    1.0659    7.4524    0.0000 Cl  0  0  0  0  0  0  0  0  0  0  0  0
  1  2  1  0  0  0  0
  2  3  2  0  0  0  0
  2  4  1  0  0  0  0
  4  5  1  0  0  0  0
  6  5  2  0  0  0  0
  5 10  1  0  0  0  0
  7  6  1  0  0  0  0
  8  7  2  0  0  0  0
  9  8  1  0  0  0  0
 10  9  2  0  0  0  0
 10 11  1  0  0  0  0
 11 12  1  0  0  0  0
 13 12  2  0  0  0  0
 12 18  1  0  0  0  0
 13 14  1  0  0  0  0
 15 13  1  0  0  0  0
 16 15  2  0  0  0  0
 17 16  1  0  0  0  0
 18 17  2  0  0  0  0
 18 19  1  0  0  0  0
M  END
> <Inchi_key>
DCOPUUMXTXDBNB-UHFFFAOYSA-N

> <Source>
Mulliner

> <ID>
HT0648

> <H_MFHB>
1

> <CAS>


> <Cholestasis>


> <Name>
diclofenac potassium;diclofenac sodium;diclofenac

> <Class>
1

$$$$