

  -INDIGO-08031710012D

 31 34  0  0  0  0  0  0  0  0999 V2000
    5.1376   -0.3069    0.0000 C   0  0  0  0  0  0  0  0  0  0  0  0
    5.1376    1.1931    0.0000 N   0  0  0  0  0  0  0  0  0  0  0  0
    6.4366    1.9431    0.0000 C   0  0  0  0  0  0  0  0  0  0  0  0
    6.4366    3.4431    0.0000 C   0  0  0  0  0  0  0  0  0  0  0  0
    7.7357    4.1931    0.0000 C   0  0  0  0  0  0  0  0  0  0  0  0
    9.0347    3.4431    0.0000 C   0  0  0  0  0  0  0  0  0  0  0  0
   10.4613    3.9066    0.0000 C   0  0  0  0  0  0  0  0  0  0  0  0
   10.9248    5.3332    0.0000 C   0  0  0  0  0  0  0  0  0  0  0  0
   11.3430    2.6931    0.0000 N   0  0  0  0  0  0  0  0  0  0  0  0
   12.8430    2.6931    0.0000 C   0  0  0  0  0  0  0  0  0  0  0  0
   10.4613    1.4796    0.0000 N   0  0  0  0  0  0  0  0  0  0  0  0
    9.0347    1.9431    0.0000 C   0  0  0  0  0  0  0  0  0  0  0  0
    7.7357    1.1931    0.0000 C   0  0  0  0  0  0  0  0  0  0  0  0
    3.8386    1.9431    0.0000 C   0  0  0  0  0  0  0  0  0  0  0  0
    3.8386    3.4431    0.0000 C   0  0  0  0  0  0  0  0  0  0  0  0
    2.5395    4.1931    0.0000 C   0  0  0  0  0  0  0  0  0  0  0  0
    1.2405    3.4431    0.0000 N   0  0  0  0  0  0  0  0  0  0  0  0
    1.2405    1.9431    0.0000 C   0  0  0  0  0  0  0  0  0  0  0  0
   -0.0585    1.1931    0.0000 N   0  0  0  0  0  0  0  0  0  0  0  0
   -1.3576    1.9431    0.0000 C   0  0  0  0  0  0  0  0  0  0  0  0
   -1.3576    3.4431    0.0000 C   0  0  0  0  0  0  0  0  0  0  0  0
   -2.6566    4.1931    0.0000 C   0  0  0  0  0  0  0  0  0  0  0  0
   -3.9556    3.4431    0.0000 C   0  0  0  0  0  0  0  0  0  0  0  0
   -5.2547    4.1931    0.0000 C   0  0  0  0  0  0  0  0  0  0  0  0
   -3.9556    1.9431    0.0000 C   0  0  0  0  0  0  0  0  0  0  0  0
   -2.6566    1.1931    0.0000 C   0  0  0  0  0  0  0  0  0  0  0  0
   -5.2547    1.1931    0.0000 S   0  0  0  0  0  0  0  0  0  0  0  0
   -6.0047    2.4922    0.0000 O   0  0  0  0  0  0  0  0  0  0  0  0
   -4.5047   -0.1059    0.0000 O   0  0  0  0  0  0  0  0  0  0  0  0
   -6.5537    0.4431    0.0000 N   0  0  0  0  0  0  0  0  0  0  0  0
    2.5395    1.1931    0.0000 N   0  0  0  0  0  0  0  0  0  0  0  0
  1  2  1  0  0  0  0
  2  3  1  0  0  0  0
  2 14  1  0  0  0  0
  4  3  1  0  0  0  0
  3 13  2  0  0  0  0
  5  4  2  0  0  0  0
  6  5  1  0  0  0  0
  7  6  2  0  0  0  0
  6 12  1  0  0  0  0
  7  8  1  0  0  0  0
  9  7  1  0  0  0  0
  9 10  1  0  0  0  0
 11  9  1  0  0  0  0
 12 11  2  0  0  0  0
 13 12  1  0  0  0  0
 15 14  2  0  0  0  0
 14 31  1  0  0  0  0
 16 15  1  0  0  0  0
 17 16  2  0  0  0  0
 18 17  1  0  0  0  0
 18 19  1  0  0  0  0
 31 18  2  0  0  0  0
 19 20  1  0  0  0  0
 21 20  2  0  0  0  0
 20 26  1  0  0  0  0
 22 21  1  0  0  0  0
 23 22  2  0  0  0  0
 23 24  1  0  0  0  0
 25 23  1  0  0  0  0
 26 25  2  0  0  0  0
 25 27  1  0  0  0  0
 27 28  2  0  0  0  0
 27 29  2  0  0  0  0
 27 30  1  0  0  0  0
M  END
> <Inchi_key>
CUIHSIWYWATEQL-UHFFFAOYSA-N

> <Source>
Mulliner

> <ID>
HT1600

> <H_MFHB>
1

> <CAS>


> <Cholestasis>


> <Name>
pazopanib hydrochloride;pazopanib

> <Class>
1


$$$$