

  -INDIGO-08031710012D

 19 21  0  0  0  0  0  0  0  0999 V2000
    0.0607   -0.1924    0.0000 O   0  0  0  0  0  0  0  0  0  0  0  0
    1.5592   -0.1258    0.0000 C   0  0  0  0  0  0  0  0  0  0  0  0
    2.4939   -1.2990    0.0000 N   0  0  0  0  0  0  0  0  0  0  0  0
    3.8985   -0.7726    0.0000 C   0  0  0  0  0  0  0  0  0  0  0  0
    5.1499   -1.5995    0.0000 O   0  0  0  0  0  0  0  0  0  0  0  0
    3.8319    0.7259    0.0000 C   0  0  0  0  0  0  0  0  0  0  0  0
    2.3862    1.1257    0.0000 N   0  0  0  0  0  0  0  0  0  0  0  0
    5.3319    0.7140    0.0000 C   0  0  0  0  0  0  0  0  0  0  0  0
    6.0922    2.0070    0.0000 C   0  0  0  0  0  0  0  0  0  0  0  0
    7.5922    1.9951    0.0000 C   0  0  0  0  0  0  0  0  0  0  0  0
    8.3318    0.6901    0.0000 C   0  0  0  0  0  0  0  0  0  0  0  0
    7.5715   -0.6029    0.0000 C   0  0  0  0  0  0  0  0  0  0  0  0
    6.0715   -0.5910    0.0000 C   0  0  0  0  0  0  0  0  0  0  0  0
    4.0526    2.2096    0.0000 C   0  0  0  0  0  0  0  0  0  0  0  0
    5.1752    3.2044    0.0000 C   0  0  0  0  0  0  0  0  0  0  0  0
    4.8749    4.6741    0.0000 C   0  0  0  0  0  0  0  0  0  0  0  0
    3.4522    5.1489    0.0000 C   0  0  0  0  0  0  0  0  0  0  0  0
    2.3296    4.1541    0.0000 C   0  0  0  0  0  0  0  0  0  0  0  0
    2.6297    2.6845    0.0000 C   0  0  0  0  0  0  0  0  0  0  0  0
  1  2  2  0  0  0  0
  3  2  1  0  0  0  0
  2  7  1  0  0  0  0
  4  3  1  0  0  0  0
  4  5  2  0  0  0  0
  6  4  1  0  0  0  0
  7  6  1  0  0  0  0
  6  8  1  0  0  0  0
  6 14  1  0  0  0  0
  9  8  2  0  0  0  0
  8 13  1  0  0  0  0
 10  9  1  0  0  0  0
 11 10  2  0  0  0  0
 12 11  1  0  0  0  0
 13 12  2  0  0  0  0
 15 14  2  0  0  0  0
 14 19  1  0  0  0  0
 16 15  1  0  0  0  0
 17 16  2  0  0  0  0
 18 17  1  0  0  0  0
 19 18  2  0  0  0  0
M  END
> <Inchi_key>
CXOFVDLJLONNDW-UHFFFAOYSA-N

> <Source>
Mulliner , Kotsampasakou

> <ID>
EK0423;HT1663

> <H_MFHB>
1

> <CAS>
57-41-0

> <Cholestasis>
1

> <Name>
phenytoin;phenytoin sodium

> <Class>
1


$$$$