

  -INDIGO-08031710012D

 28 29  0  0  0  0  0  0  0  0999 V2000
    3.9754  -10.0067    0.0000 F   0  0  0  0  0  0  0  0  0  0  0  0
    3.9754   -8.5066    0.0000 C   0  0  0  0  0  0  0  0  0  0  0  0
    2.4754   -8.5066    0.0000 F   0  0  0  0  0  0  0  0  0  0  0  0
    5.4754   -8.5066    0.0000 F   0  0  0  0  0  0  0  0  0  0  0  0
    3.9754   -7.0068    0.0000 C   0  0  0  0  0  0  0  0  0  0  0  0
    5.2745   -6.2567    0.0000 O   0  0  0  0  0  0  0  0  0  0  0  0
    5.2745   -4.7567    0.0000 C   0  0  0  0  0  0  0  0  0  0  0  0
    3.9754   -4.0066    0.0000 C   0  0  0  0  0  0  0  0  0  0  0  0
    3.9754   -2.5068    0.0000 C   0  0  0  0  0  0  0  0  0  0  0  0
    5.2745   -1.7567    0.0000 C   0  0  0  0  0  0  0  0  0  0  0  0
    5.2745   -0.2567    0.0000 O   0  0  0  0  0  0  0  0  0  0  0  0
    3.9754    0.4934    0.0000 C   0  0  0  0  0  0  0  0  0  0  0  0
    3.9754    1.9932    0.0000 C   0  0  0  0  0  0  0  0  0  0  0  0
    2.4754    1.9932    0.0000 F   0  0  0  0  0  0  0  0  0  0  0  0
    5.4754    1.9932    0.0000 F   0  0  0  0  0  0  0  0  0  0  0  0
    3.9754    3.4933    0.0000 F   0  0  0  0  0  0  0  0  0  0  0  0
    6.5735   -2.5068    0.0000 C   0  0  0  0  0  0  0  0  0  0  0  0
    6.5735   -4.0066    0.0000 C   0  0  0  0  0  0  0  0  0  0  0  0
    7.8726   -1.7567    0.0000 C   0  0  0  0  0  0  0  0  0  0  0  0
    7.8726   -0.2567    0.0000 O   0  0  0  0  0  0  0  0  0  0  0  0
    9.1717   -2.5068    0.0000 N   0  0  0  0  0  0  0  0  0  0  0  0
   10.4706   -1.7567    0.0000 C   0  0  0  0  0  0  0  0  0  0  0  0
   11.7697   -2.5068    0.0000 C   0  0  0  0  0  0  0  0  0  0  0  0
   13.0687   -1.7567    0.0000 C   0  0  0  0  0  0  0  0  0  0  0  0
   14.3678   -2.5068    0.0000 C   0  0  0  0  0  0  0  0  0  0  0  0
   14.3678   -4.0066    0.0000 C   0  0  0  0  0  0  0  0  0  0  0  0
   13.0687   -4.7567    0.0000 C   0  0  0  0  0  0  0  0  0  0  0  0
   11.7697   -4.0066    0.0000 N   0  0  0  0  0  0  0  0  0  0  0  0
  1  2  1  0  0  0  0
  2  3  1  0  0  0  0
  2  4  1  0  0  0  0
  2  5  1  0  0  0  0
  5  6  1  0  0  0  0
  6  7  1  0  0  0  0
  8  7  2  0  0  0  0
  7 18  1  0  0  0  0
  9  8  1  0  0  0  0
 10  9  2  0  0  0  0
 10 11  1  0  0  0  0
 17 10  1  0  0  0  0
 11 12  1  0  0  0  0
 12 13  1  0  0  0  0
 13 14  1  0  0  0  0
 13 15  1  0  0  0  0
 13 16  1  0  0  0  0
 18 17  2  0  0  0  0
 17 19  1  0  0  0  0
 19 20  2  0  0  0  0
 19 21  1  0  0  0  0
 21 22  1  0  0  0  0
 22 23  1  0  0  0  0
 24 23  1  0  0  0  0
 23 28  1  0  0  0  0
 25 24  1  0  0  0  0
 26 25  1  0  0  0  0
 27 26  1  0  0  0  0
 28 27  1  0  0  0  0
M  END
> <Inchi_key>
DJBNUMBKLMJRSA-UHFFFAOYSA-N

> <Source>
Mulliner , Kotsampasakou

> <ID>
EK0215;HT0880

> <H_MFHB>
1

> <CAS>


> <Cholestasis>
1

> <Name>
flecainide acetate;flecainide

> <Class>
1


$$$$