
  -INDIGO-08031710012D

 17 18  0  0  0  0  0  0  0  0999 V2000
    3.0182    3.7893    0.0000 C   0  0  0  0  0  0  0  0  0  0  0  0
    2.2682    2.4902    0.0000 C   0  0  0  0  0  0  0  0  0  0  0  0
    3.0182    1.1912    0.0000 C   0  0  0  0  0  0  0  0  0  0  0  0
    4.3172    1.9412    0.0000 C   0  0  0  0  0  0  0  0  0  0  0  0
    4.3172    3.4412    0.0000 O   0  0  0  0  0  0  0  0  0  0  0  0
    5.6162    1.1912    0.0000 N   0  0  0  0  0  0  0  0  0  0  0  0
    5.6162   -0.3088    0.0000 C   0  0  0  0  0  0  0  0  0  0  0  0
    6.9153   -1.0588    0.0000 O   0  0  0  0  0  0  0  0  0  0  0  0
    4.3172   -1.0588    0.0000 N   0  0  0  0  0  0  0  0  0  0  0  0
    3.0182   -0.3088    0.0000 C   0  0  0  0  0  0  0  0  0  0  0  0
    1.7191   -1.0588    0.0000 O   0  0  0  0  0  0  0  0  0  0  0  0
    1.5181    1.1912    0.0000 C   0  0  0  0  0  0  0  0  0  0  0  0
    0.7682    2.4902    0.0000 C   0  0  0  0  0  0  0  0  0  0  0  0
   -0.7318    2.4902    0.0000 C   0  0  0  0  0  0  0  0  0  0  0  0
   -1.4818    1.1912    0.0000 C   0  0  0  0  0  0  0  0  0  0  0  0
   -0.7318   -0.1079    0.0000 C   0  0  0  0  0  0  0  0  0  0  0  0
    0.7682   -0.1079    0.0000 C   0  0  0  0  0  0  0  0  0  0  0  0
  1  2  1  0  0  0  0
  2  3  1  0  0  0  0
  4  3  1  0  0  0  0
  3 10  1  0  0  0  0
  3 12  1  0  0  0  0
  4  5  2  0  0  0  0
  6  4  1  0  0  0  0
  7  6  1  0  0  0  0
  7  8  2  0  0  0  0
  9  7  1  0  0  0  0
 10  9  1  0  0  0  0
 10 11  2  0  0  0  0
 13 12  2  0  0  0  0
 12 17  1  0  0  0  0
 14 13  1  0  0  0  0
 15 14  2  0  0  0  0
 16 15  1  0  0  0  0
 17 16  2  0  0  0  0
M  END
> <Inchi_key>
DDBREPKUVSBGFI-UHFFFAOYSA-N

> <Source>
Mulliner , Kotsampasakou

> <ID>
EK0415;HT1650

> <H_MFHB>
1

> <CAS>
50-06-6;57-30-7

> <Cholestasis>
1

> <Name>
phenobarbital

> <Class>
1

$$$$