

  -INDIGO-08031710012D

 52 54  0  0  0  0  0  0  0  0999 V2000
    2.6489  -11.8103    0.0000 C   0  0  0  0  0  0  0  0  0  0  0  0
    1.7124  -10.6387    0.0000 C   0  0  0  0  0  0  0  0  0  0  0  0
    2.2588   -9.2416    0.0000 C   0  0  0  0  0  0  0  0  0  0  0  0
    3.6679   -9.1237    0.0000 O   0  0  0  0  0  0  0  0  0  0  0  0
    4.6385   -8.1601    0.0000 C   0  0  0  0  0  0  0  0  0  0  0  0
    5.9214   -8.9375    0.0000 O   0  0  0  0  0  0  0  0  0  0  0  0
    5.0333   -6.8859    0.0000 C   0  0  0  0  0  0  0  0  0  0  0  0
    6.5307   -6.9739    0.0000 C   0  0  0  0  0  0  0  0  0  0  0  0
    4.7848   -5.5427    0.0000 C   0  0  0  0  0  0  0  0  0  0  0  0
    6.0793   -4.7853    0.0000 O   0  0  0  0  0  0  0  0  0  0  0  0
    7.3827   -5.5274    0.0000 C   0  0  0  0  0  0  0  0  0  0  0  0
    8.6775   -4.7700    0.0000 C   0  0  0  0  0  0  0  0  0  0  0  0
    9.9808   -5.5123    0.0000 C   0  0  0  0  0  0  0  0  0  0  0  0
   11.4808   -5.5033    0.0000 C   0  0  0  0  0  0  0  0  0  0  0  0
   10.7231   -4.2089    0.0000 O   0  0  0  0  0  0  0  0  0  0  0  0
   12.2231   -4.1999    0.0000 C   0  0  0  0  0  0  0  0  0  0  0  0
    9.9897   -7.0123    0.0000 C   0  0  0  0  0  0  0  0  0  0  0  0
   11.2931   -7.7546    0.0000 O   0  0  0  0  0  0  0  0  0  0  0  0
    8.6949   -7.7699    0.0000 C   0  0  0  0  0  0  0  0  0  0  0  0
    8.7038   -9.2699    0.0000 C   0  0  0  0  0  0  0  0  0  0  0  0
    7.3915   -7.0276    0.0000 O   0  0  0  0  0  0  0  0  0  0  0  0
    3.6989   -4.6377    0.0000 C   0  0  0  0  0  0  0  0  0  0  0  0
    4.0532   -3.1801    0.0000 C   0  0  0  0  0  0  0  0  0  0  0  0
    2.2402   -4.9607    0.0000 C   0  0  0  0  0  0  0  0  0  0  0  0
    2.4363   -3.4737    0.0000 O   0  0  0  0  0  0  0  0  0  0  0  0
    3.6265   -2.5607    0.0000 C   0  0  0  0  0  0  0  0  0  0  0  0
    2.9343   -1.2300    0.0000 O   0  0  0  0  0  0  0  0  0  0  0  0
    3.7406    0.0348    0.0000 C   0  0  0  0  0  0  0  0  0  0  0  0
    2.8276    1.2251    0.0000 C   0  0  0  0  0  0  0  0  0  0  0  0
    5.2389   -0.0310    0.0000 C   0  0  0  0  0  0  0  0  0  0  0  0
    5.9314   -1.3617    0.0000 C   0  0  0  0  0  0  0  0  0  0  0  0
    5.1251   -2.6265    0.0000 C   0  0  0  0  0  0  0  0  0  0  0  0
    5.8175   -3.9572    0.0000 O   0  0  0  0  0  0  0  0  0  0  0  0
    7.4300   -1.4273    0.0000 N   0  0  0  0  0  0  0  0  0  0  0  0
    8.1222   -2.7580    0.0000 C   0  0  0  0  0  0  0  0  0  0  0  0
    8.2363   -0.1625    0.0000 C   0  0  0  0  0  0  0  0  0  0  0  0
    1.2312   -3.8590    0.0000 C   0  0  0  0  0  0  0  0  0  0  0  0
    1.9602   -2.5482    0.0000 C   0  0  0  0  0  0  0  0  0  0  0  0
   -0.1779   -3.9769    0.0000 C   0  0  0  0  0  0  0  0  0  0  0  0
   -1.1487   -4.9404    0.0000 C   0  0  0  0  0  0  0  0  0  0  0  0
   -2.4316   -4.1631    0.0000 C   0  0  0  0  0  0  0  0  0  0  0  0
   -1.5435   -6.2148    0.0000 C   0  0  0  0  0  0  0  0  0  0  0  0
   -3.0409   -6.1267    0.0000 O   0  0  0  0  0  0  0  0  0  0  0  0
   -1.2950   -7.5579    0.0000 C   0  0  0  0  0  0  0  0  0  0  0  0
   -2.5895   -8.3155    0.0000 C   0  0  0  0  0  0  0  0  0  0  0  0
   -0.2091   -8.4631    0.0000 C   0  0  0  0  0  0  0  0  0  0  0  0
   -0.5634   -9.9207    0.0000 O   0  0  0  0  0  0  0  0  0  0  0  0
    1.2496   -8.1401    0.0000 C   0  0  0  0  0  0  0  0  0  0  0  0
    0.8832   -6.6854    0.0000 C   0  0  0  0  0  0  0  0  0  0  0  0
    2.3059   -7.0749    0.0000 O   0  0  0  0  0  0  0  0  0  0  0  0
    1.0104   -2.3753    0.0000 O   0  0  0  0  0  0  0  0  0  0  0  0
   -0.3850   -1.8245    0.0000 C   0  0  0  0  0  0  0  0  0  0  0  0
  1  2  1  0  0  0  0
  2  3  1  0  0  0  0
  4  3  1  0  0  0  0
  3 48  1  0  0  0  0
  5  4  1  0  0  0  0
  5  6  2  0  0  0  0
  7  5  1  0  0  0  0
  7  8  1  0  0  0  0
  9  7  1  0  0  0  0
  9 10  1  0  0  0  0
 22  9  1  0  0  0  0
 10 11  1  0  0  0  0
 12 11  1  0  0  0  0
 11 21  1  0  0  0  0
 13 12  1  0  0  0  0
 13 14  1  0  0  0  0
 13 15  1  0  0  0  0
 17 13  1  0  0  0  0
 15 16  1  0  0  0  0
 17 18  1  0  0  0  0
 19 17  1  0  0  0  0
 19 20  1  0  0  0  0
 21 19  1  0  0  0  0
 22 23  1  0  0  0  0
 24 22  1  0  0  0  0
 24 25  1  0  0  0  0
 37 24  1  0  0  0  0
 25 26  1  0  0  0  0
 27 26  1  0  0  0  0
 26 32  1  0  0  0  0
 28 27  1  0  0  0  0
 28 29  1  0  0  0  0
 30 28  1  0  0  0  0
 31 30  1  0  0  0  0
 32 31  1  0  0  0  0
 31 34  1  0  0  0  0
 32 33  1  0  0  0  0
 34 35  1  0  0  0  0
 34 36  1  0  0  0  0
 37 38  1  0  0  0  0
 39 37  1  0  0  0  0
 37 51  1  0  0  0  0
 40 39  1  0  0  0  0
 40 41  1  0  0  0  0
 42 40  1  0  0  0  0
 42 43  2  0  0  0  0
 44 42  1  0  0  0  0
 44 45  1  0  0  0  0
 46 44  1  0  0  0  0
 46 47  1  0  0  0  0
 48 46  1  0  0  0  0
 48 49  1  0  0  0  0
 48 50  1  0  0  0  0
 51 52  1  0  0  0  0
M  END
> <Inchi_key>
AGOYDEPGAOXOCK-UHFFFAOYSA-N

> <Source>
Mulliner

> <ID>
HT0504

> <H_MFHB>
1

> <CAS>
81103-11-9

> <Cholestasis>


> <Name>
clarithromycin

> <Class>
1


$$$$