
  -INDIGO-08031710012D

 34 36  0  0  0  0  0  0  0  0999 V2000
   -1.2621   10.6366    0.0000 C   0  0  0  0  0  0  0  0  0  0  0  0
   -0.8740    9.1877    0.0000 O   0  0  0  0  0  0  0  0  0  0  0  0
    0.5748    8.7995    0.0000 N   0  0  0  0  0  0  0  0  0  0  0  0
    0.9632    7.3505    0.0000 C   0  0  0  0  0  0  0  0  0  0  0  0
    2.4120    6.9624    0.0000 C   0  0  0  0  0  0  0  0  0  0  0  0
    2.8004    5.5136    0.0000 O   0  0  0  0  0  0  0  0  0  0  0  0
    3.4726    8.0230    0.0000 N   0  0  0  0  0  0  0  0  0  0  0  0
    4.9217    7.6348    0.0000 C   0  0  0  0  0  0  0  0  0  0  0  0
    6.2206    8.3848    0.0000 C   0  0  0  0  0  0  0  0  0  0  0  0
    6.9705    9.6838    0.0000 S   0  0  0  0  0  0  0  0  0  0  0  0
    8.4705    9.6838    0.0000 C   0  0  0  0  0  0  0  0  0  0  0  0
    9.2205    8.3848    0.0000 C   0  0  0  0  0  0  0  0  0  0  0  0
    8.4705    7.0858    0.0000 C   0  0  0  0  0  0  0  0  0  0  0  0
    6.9705    7.0858    0.0000 N   0  0  0  0  0  0  0  0  0  0  0  0
    5.6717    6.3358    0.0000 C   0  0  0  0  0  0  0  0  0  0  0  0
    5.2836    4.8869    0.0000 O   0  0  0  0  0  0  0  0  0  0  0  0
    9.2205    5.7866    0.0000 C   0  0  0  0  0  0  0  0  0  0  0  0
    8.4705    4.4878    0.0000 O   0  0  0  0  0  0  0  0  0  0  0  0
   10.7204    5.7866    0.0000 O   0  0  0  0  0  0  0  0  0  0  0  0
   11.4707    4.4878    0.0000 C   0  0  0  0  0  0  0  0  0  0  0  0
   12.9707    4.4878    0.0000 O   0  0  0  0  0  0  0  0  0  0  0  0
   13.7207    3.1886    0.0000 C   0  0  0  0  0  0  0  0  0  0  0  0
   12.9707    1.8896    0.0000 O   0  0  0  0  0  0  0  0  0  0  0  0
   15.2206    3.1886    0.0000 C   0  0  0  0  0  0  0  0  0  0  0  0
   15.2206    4.6886    0.0000 C   0  0  0  0  0  0  0  0  0  0  0  0
   15.2206    1.6886    0.0000 C   0  0  0  0  0  0  0  0  0  0  0  0
   16.7206    3.1886    0.0000 C   0  0  0  0  0  0  0  0  0  0  0  0
   10.7204    8.3848    0.0000 C   0  0  0  0  0  0  0  0  0  0  0  0
   -0.0974    6.2899    0.0000 C   0  0  0  0  0  0  0  0  0  0  0  0
    0.1374    4.8084    0.0000 C   0  0  0  0  0  0  0  0  0  0  0  0
   -1.1993    4.1274    0.0000 S   0  0  0  0  0  0  0  0  0  0  0  0
   -2.2600    5.1881    0.0000 C   0  0  0  0  0  0  0  0  0  0  0  0
   -3.7415    4.9534    0.0000 N   0  0  0  0  0  0  0  0  0  0  0  0
   -1.5790    6.5246    0.0000 N   0  0  0  0  0  0  0  0  0  0  0  0
  1  2  1  0  0  0  0
  2  3  1  0  0  0  0
  3  4  2  0  0  0  0
  4  5  1  0  0  0  0
  4 29  1  0  0  0  0
  5  6  2  0  0  0  0
  5  7  1  0  0  0  0
  7  8  1  0  0  0  0
  9  8  1  0  0  0  0
  8 15  1  0  0  0  0
 10  9  1  0  0  0  0
  9 14  1  0  0  0  0
 11 10  1  0  0  0  0
 12 11  1  0  0  0  0
 13 12  2  0  0  0  0
 12 28  1  0  0  0  0
 14 13  1  0  0  0  0
 13 17  1  0  0  0  0
 15 14  1  0  0  0  0
 15 16  2  0  0  0  0
 17 18  2  0  0  0  0
 17 19  1  0  0  0  0
 19 20  1  0  0  0  0
 20 21  1  0  0  0  0
 21 22  1  0  0  0  0
 22 23  2  0  0  0  0
 22 24  1  0  0  0  0
 24 25  1  0  0  0  0
 24 26  1  0  0  0  0
 24 27  1  0  0  0  0
 30 29  2  0  0  0  0
 29 34  1  0  0  0  0
 31 30  1  0  0  0  0
 32 31  1  0  0  0  0
 32 33  1  0  0  0  0
 34 32  2  0  0  0  0
M  END
> <Inchi_key>
DASYMCLQENWCJG-BHGWPJFGSA-N

> <Source>
Mulliner

> <ID>
HT0404

> <H_MFHB>
1

> <CAS>


> <Cholestasis>


> <Name>
cefetamet pivoxil

> <Class>
1

$$$$