

  -INDIGO-08031709442D

 33 36  0  0  0  0  0  0  0  0999 V2000
   -0.0443    2.9837    0.0000 O   0  0  0  0  0  0  0  0  0  0  0  0
    1.2547    2.2337    0.0000 C   0  0  0  0  0  0  0  0  0  0  0  0
    1.2547    0.7337    0.0000 C   0  0  0  0  0  0  0  0  0  0  0  0
   -0.0443   -0.0163    0.0000 C   0  0  0  0  0  0  0  0  0  0  0  0
   -1.3434    0.7337    0.0000 O   0  0  0  0  0  0  0  0  0  0  0  0
   -0.0443   -1.5163    0.0000 N   0  0  0  0  0  0  0  0  0  0  0  0
    2.5536   -0.0163    0.0000 C   0  0  0  0  0  0  0  0  0  0  0  0
    2.5536   -1.5163    0.0000 O   0  0  0  0  0  0  0  0  0  0  0  0
    3.8528    0.7337    0.0000 C   0  0  0  0  0  0  0  0  0  0  0  0
    3.8528   -0.7663    0.0000 O   0  0  0  0  0  0  0  0  0  0  0  0
    3.8528    2.2337    0.0000 C   0  0  0  0  0  0  0  0  0  0  0  0
    5.1519    2.9837    0.0000 C   0  0  0  0  0  0  0  0  0  0  0  0
    6.4508    2.2337    0.0000 C   0  0  0  0  0  0  0  0  0  0  0  0
    6.4508    0.7337    0.0000 C   0  0  0  0  0  0  0  0  0  0  0  0
    5.1519   -0.0163    0.0000 C   0  0  0  0  0  0  0  0  0  0  0  0
    5.1519   -1.5163    0.0000 O   0  0  0  0  0  0  0  0  0  0  0  0
    7.7500   -0.0163    0.0000 C   0  0  0  0  0  0  0  0  0  0  0  0
    7.7500   -1.5163    0.0000 O   0  0  0  0  0  0  0  0  0  0  0  0
    9.0489    0.7337    0.0000 C   0  0  0  0  0  0  0  0  0  0  0  0
    9.0489    2.2337    0.0000 C   0  0  0  0  0  0  0  0  0  0  0  0
    7.7500    2.9837    0.0000 C   0  0  0  0  0  0  0  0  0  0  0  0
   10.3481    2.9837    0.0000 C   0  0  0  0  0  0  0  0  0  0  0  0
   10.3481    4.4837    0.0000 N   0  0  0  0  0  0  0  0  0  0  0  0
    9.0489    5.2337    0.0000 C   0  0  0  0  0  0  0  0  0  0  0  0
   11.6470    5.2337    0.0000 C   0  0  0  0  0  0  0  0  0  0  0  0
   11.6470    2.2337    0.0000 C   0  0  0  0  0  0  0  0  0  0  0  0
   11.6470    0.7337    0.0000 C   0  0  0  0  0  0  0  0  0  0  0  0
   10.3481   -0.0163    0.0000 C   0  0  0  0  0  0  0  0  0  0  0  0
   10.3481   -1.5163    0.0000 O   0  0  0  0  0  0  0  0  0  0  0  0
    2.5536    2.9837    0.0000 C   0  0  0  0  0  0  0  0  0  0  0  0
    2.5536    4.4837    0.0000 N   0  0  0  0  0  0  0  0  0  0  0  0
    1.2547    5.2337    0.0000 C   0  0  0  0  0  0  0  0  0  0  0  0
    3.8528    5.2337    0.0000 C   0  0  0  0  0  0  0  0  0  0  0  0
  1  2  1  0  0  0  0
  3  2  2  0  0  0  0
  2 30  1  0  0  0  0
  3  4  1  0  0  0  0
  7  3  1  0  0  0  0
  4  5  2  0  0  0  0
  4  6  1  0  0  0  0
  7  8  2  0  0  0  0
  9  7  1  0  0  0  0
  9 10  1  0  0  0  0
  9 11  1  0  0  0  0
 15  9  1  0  0  0  0
 11 12  1  0  0  0  0
 30 11  1  0  0  0  0
 12 13  1  0  0  0  0
 14 13  1  0  0  0  0
 13 21  1  0  0  0  0
 14 15  2  0  0  0  0
 17 14  1  0  0  0  0
 15 16  1  0  0  0  0
 17 18  2  0  0  0  0
 19 17  1  0  0  0  0
 19 20  2  0  0  0  0
 28 19  1  0  0  0  0
 21 20  1  0  0  0  0
 20 22  1  0  0  0  0
 22 23  1  0  0  0  0
 22 26  2  0  0  0  0
 23 24  1  0  0  0  0
 23 25  1  0  0  0  0
 26 27  1  0  0  0  0
 27 28  2  0  0  0  0
 28 29  1  0  0  0  0
 30 31  1  0  0  0  0
 31 32  1  0  0  0  0
 31 33  1  0  0  0  0
M  END
> <Inchi_key>
DYKFCLLONBREIL-UHFFFAOYSA-N

> <Source>
Kotsampasakou

> <ID>
EK0355

> <H_MFHB>


> <CAS>


> <Cholestasis>
1

> <Name>
minocycline

> <Class>
1


$$$$