

  -INDIGO-08031710012D

 30 31  0  0  0  0  0  0  0  0999 V2000
   11.6720   -3.1275    0.0000 C   0  0  0  0  0  0  0  0  0  0  0  0
   10.3729   -2.3775    0.0000 C   0  0  0  0  0  0  0  0  0  0  0  0
   10.3729   -0.8775    0.0000 C   0  0  0  0  0  0  0  0  0  0  0  0
    9.0739   -3.1275    0.0000 N   0  0  0  0  0  0  0  0  0  0  0  0
    7.7750   -2.3775    0.0000 C   0  0  0  0  0  0  0  0  0  0  0  0
    6.4758   -3.1275    0.0000 C   0  0  0  0  0  0  0  0  0  0  0  0
    5.1767   -2.3775    0.0000 C   0  0  0  0  0  0  0  0  0  0  0  0
    5.1767   -0.8775    0.0000 C   0  0  0  0  0  0  0  0  0  0  0  0
    3.8778   -0.1275    0.0000 C   0  0  0  0  0  0  0  0  0  0  0  0
    3.8778    1.3725    0.0000 C   0  0  0  0  0  0  0  0  0  0  0  0
    5.1767    2.1225    0.0000 C   0  0  0  0  0  0  0  0  0  0  0  0
    6.4758    1.3725    0.0000 C   0  0  0  0  0  0  0  0  0  0  0  0
    6.4758   -0.1275    0.0000 C   0  0  0  0  0  0  0  0  0  0  0  0
    3.8778   -3.1275    0.0000 C   0  0  0  0  0  0  0  0  0  0  0  0
    2.5786   -2.3775    0.0000 C   0  0  0  0  0  0  0  0  0  0  0  0
    1.2797   -3.1275    0.0000 C   0  0  0  0  0  0  0  0  0  0  0  0
   -0.0195   -2.3775    0.0000 C   0  0  0  0  0  0  0  0  0  0  0  0
   -1.3184   -3.1275    0.0000 O   0  0  0  0  0  0  0  0  0  0  0  0
    1.2797   -4.6275    0.0000 C   0  0  0  0  0  0  0  0  0  0  0  0
    2.5786   -5.3775    0.0000 C   0  0  0  0  0  0  0  0  0  0  0  0
    3.8778   -4.6275    0.0000 C   0  0  0  0  0  0  0  0  0  0  0  0
    5.1767   -5.3775    0.0000 O   0  0  0  0  0  0  0  0  0  0  0  0
    5.1767   -6.8775    0.0000 C   0  0  0  0  0  0  0  0  0  0  0  0
    6.4758   -7.6275    0.0000 O   0  0  0  0  0  0  0  0  0  0  0  0
    3.8778   -7.6275    0.0000 C   0  0  0  0  0  0  0  0  0  0  0  0
    3.8778   -9.1275    0.0000 C   0  0  0  0  0  0  0  0  0  0  0  0
    2.5786   -6.8775    0.0000 C   0  0  0  0  0  0  0  0  0  0  0  0
    9.0739   -4.6275    0.0000 C   0  0  0  0  0  0  0  0  0  0  0  0
   10.3729   -5.3775    0.0000 C   0  0  0  0  0  0  0  0  0  0  0  0
    7.7750   -5.3775    0.0000 C   0  0  0  0  0  0  0  0  0  0  0  0
  1  2  1  0  0  0  0
  2  3  1  0  0  0  0
  2  4  1  0  0  0  0
  4  5  1  0  0  0  0
  4 28  1  0  0  0  0
  5  6  1  0  0  0  0
  6  7  1  0  0  0  0
  7  8  1  0  0  0  0
  7 14  1  0  0  0  0
  9  8  2  0  0  0  0
  8 13  1  0  0  0  0
 10  9  1  0  0  0  0
 11 10  2  0  0  0  0
 12 11  1  0  0  0  0
 13 12  2  0  0  0  0
 15 14  2  0  0  0  0
 14 21  1  0  0  0  0
 16 15  1  0  0  0  0
 16 17  1  0  0  0  0
 19 16  2  0  0  0  0
 17 18  1  0  0  0  0
 20 19  1  0  0  0  0
 21 20  2  0  0  0  0
 21 22  1  0  0  0  0
 22 23  1  0  0  0  0
 23 24  2  0  0  0  0
 23 25  1  0  0  0  0
 25 26  1  0  0  0  0
 25 27  1  0  0  0  0
 28 29  1  0  0  0  0
 28 30  1  0  0  0  0
M  END
> <Inchi_key>
DCCSDBARQIPTGU-UHFFFAOYSA-N

> <Source>
Mulliner

> <ID>
HT0870

> <H_MFHB>
1

> <CAS>


> <Cholestasis>


> <Name>
fesoterodine fumarate;fesoterodine

> <Class>
1


$$$$