

  -INDIGO-08031710012D

 35 35  0  0  0  0  0  0  0  0999 V2000
   25.7134   -6.8899    0.0000 C   0  0  0  0  0  0  0  0  0  0  0  0
   24.4145   -6.1400    0.0000 C   0  0  0  0  0  0  0  0  0  0  0  0
   23.1152   -6.8899    0.0000 C   0  0  0  0  0  0  0  0  0  0  0  0
   21.8162   -6.1400    0.0000 C   0  0  0  0  0  0  0  0  0  0  0  0
   20.5173   -6.8899    0.0000 C   0  0  0  0  0  0  0  0  0  0  0  0
   19.2184   -6.1400    0.0000 C   0  0  0  0  0  0  0  0  0  0  0  0
   17.9191   -6.8899    0.0000 C   0  0  0  0  0  0  0  0  0  0  0  0
   16.6201   -6.1400    0.0000 C   0  0  0  0  0  0  0  0  0  0  0  0
   15.3212   -6.8899    0.0000 C   0  0  0  0  0  0  0  0  0  0  0  0
   14.0222   -6.1400    0.0000 C   0  0  0  0  0  0  0  0  0  0  0  0
   12.7229   -6.8899    0.0000 C   0  0  0  0  0  0  0  0  0  0  0  0
   11.4240   -6.1400    0.0000 C   0  0  0  0  0  0  0  0  0  0  0  0
   10.1251   -6.8899    0.0000 C   0  0  0  0  0  0  0  0  0  0  0  0
   10.1251   -8.3899    0.0000 C   0  0  0  0  0  0  0  0  0  0  0  0
   11.1855   -9.4505    0.0000 O   0  0  0  0  0  0  0  0  0  0  0  0
   10.1251  -10.5112    0.0000 C   0  0  0  0  0  0  0  0  0  0  0  0
   10.1251  -12.0112    0.0000 O   0  0  0  0  0  0  0  0  0  0  0  0
    9.0643   -9.4505    0.0000 C   0  0  0  0  0  0  0  0  0  0  0  0
    7.5643   -9.4505    0.0000 C   0  0  0  0  0  0  0  0  0  0  0  0
    6.8142  -10.7495    0.0000 C   0  0  0  0  0  0  0  0  0  0  0  0
    5.3142  -10.7495    0.0000 C   0  0  0  0  0  0  0  0  0  0  0  0
    4.5644  -12.0485    0.0000 C   0  0  0  0  0  0  0  0  0  0  0  0
    3.0645  -12.0485    0.0000 C   0  0  0  0  0  0  0  0  0  0  0  0
    2.3143  -13.3477    0.0000 C   0  0  0  0  0  0  0  0  0  0  0  0
   11.4240   -4.6399    0.0000 O   0  0  0  0  0  0  0  0  0  0  0  0
   10.1251   -3.8900    0.0000 C   0  0  0  0  0  0  0  0  0  0  0  0
    8.8258   -4.6399    0.0000 O   0  0  0  0  0  0  0  0  0  0  0  0
   10.1251   -2.3900    0.0000 C   0  0  0  0  0  0  0  0  0  0  0  0
   11.4240   -1.6398    0.0000 C   0  0  0  0  0  0  0  0  0  0  0  0
   11.4240   -0.1398    0.0000 C   0  0  0  0  0  0  0  0  0  0  0  0
   10.1251    0.6101    0.0000 C   0  0  0  0  0  0  0  0  0  0  0  0
   12.7229    0.6101    0.0000 C   0  0  0  0  0  0  0  0  0  0  0  0
    8.8258   -1.6398    0.0000 N   0  0  0  0  0  0  0  0  0  0  0  0
    7.5268   -2.3900    0.0000 C   0  0  0  0  0  0  0  0  0  0  0  0
    6.2279   -1.6398    0.0000 O   0  0  0  0  0  0  0  0  0  0  0  0
  1  2  1  0  0  0  0
  2  3  1  0  0  0  0
  3  4  1  0  0  0  0
  4  5  1  0  0  0  0
  5  6  1  0  0  0  0
  6  7  1  0  0  0  0
  7  8  1  0  0  0  0
  8  9  1  0  0  0  0
  9 10  1  0  0  0  0
 10 11  1  0  0  0  0
 11 12  1  0  0  0  0
 12 13  1  0  0  0  0
 12 25  1  0  0  0  0
 13 14  1  0  0  0  0
 15 14  1  0  0  0  0
 14 18  1  0  0  0  0
 16 15  1  0  0  0  0
 16 17  2  0  0  0  0
 18 16  1  0  0  0  0
 18 19  1  0  0  0  0
 19 20  1  0  0  0  0
 20 21  1  0  0  0  0
 21 22  1  0  0  0  0
 22 23  1  0  0  0  0
 23 24  1  0  0  0  0
 25 26  1  0  0  0  0
 26 27  2  0  0  0  0
 26 28  1  0  0  0  0
 28 29  1  0  0  0  0
 28 33  1  0  0  0  0
 29 30  1  0  0  0  0
 30 31  1  0  0  0  0
 30 32  1  0  0  0  0
 33 34  1  0  0  0  0
 34 35  2  0  0  0  0
M  END
> <Inchi_key>
AHLBNYSZXLDEJQ-UHFFFAOYSA-N

> <Source>
Mulliner , Kotsampasakou

> <ID>
EK0393;HT1543

> <H_MFHB>
1

> <CAS>


> <Cholestasis>
1

> <Name>
orlistat

> <Class>
1


$$$$