
  -INDIGO-08031709442D

 71 75  0  0  0  0  0  0  0  0999 V2000
   -4.5485   -4.2012    0.0000 S   0  0  0  0  0  0  0  0  0  0  0  0
   -3.4358   -3.2183    0.0000 S   0  0  0  0  0  0  0  0  0  0  0  0
   -3.7229   -1.7496    0.0000 C   0  0  0  0  0  0  0  0  0  0  0  0
   -2.7355   -0.7038    0.0000 C   0  0  0  0  0  0  0  0  0  0  0  0
   -1.2567   -0.8996    0.0000 N   0  0  0  0  0  0  0  0  0  0  0  0
   -0.3509    0.3052    0.0000 C   0  0  0  0  0  0  0  0  0  0  0  0
   -0.9599    1.6758    0.0000 O   0  0  0  0  0  0  0  0  0  0  0  0
    1.1168    0.1729    0.0000 C   0  0  0  0  0  0  0  0  0  0  0  0
    1.7995   -1.1585    0.0000 N   0  0  0  0  0  0  0  0  0  0  0  0
    3.3011   -1.2277    0.0000 C   0  0  0  0  0  0  0  0  0  0  0  0
    4.1003    0.0414    0.0000 O   0  0  0  0  0  0  0  0  0  0  0  0
    4.0050   -2.5371    0.0000 C   0  0  0  0  0  0  0  0  0  0  0  0
    3.2339   -3.8279    0.0000 N   0  0  0  0  0  0  0  0  0  0  0  0
    3.9607   -5.1305    0.0000 C   0  0  0  0  0  0  0  0  0  0  0  0
    5.4602   -5.1056    0.0000 O   0  0  0  0  0  0  0  0  0  0  0  0
    3.2903   -6.4325    0.0000 C   0  0  0  0  0  0  0  0  0  0  0  0
    1.7923   -6.5754    0.0000 N   0  0  0  0  0  0  0  0  0  0  0  0
    1.1761   -7.9248    0.0000 C   0  0  0  0  0  0  0  0  0  0  0  0
    2.1720   -9.0464    0.0000 O   0  0  0  0  0  0  0  0  0  0  0  0
   -0.1313   -8.3435    0.0000 C   0  0  0  0  0  0  0  0  0  0  0  0
   -1.4469   -7.9997    0.0000 N   0  0  0  0  0  0  0  0  0  0  0  0
   -2.1718   -6.7054    0.0000 C   0  0  0  0  0  0  0  0  0  0  0  0
   -1.3960   -5.4217    0.0000 O   0  0  0  0  0  0  0  0  0  0  0  0
   -3.6619   -6.6654    0.0000 C   0  0  0  0  0  0  0  0  0  0  0  0
   -4.3254   -8.0108    0.0000 N   0  0  0  0  0  0  0  0  0  0  0  0
   -5.8221   -8.1089    0.0000 C   0  0  0  0  0  0  0  0  0  0  0  0
   -6.4852   -9.4543    0.0000 O   0  0  0  0  0  0  0  0  0  0  0  0
   -6.6555   -6.8618    0.0000 C   0  0  0  0  0  0  0  0  0  0  0  0
   -5.9923   -5.5164    0.0000 N   0  0  0  0  0  0  0  0  0  0  0  0
   -8.1525   -6.9601    0.0000 C   0  0  0  0  0  0  0  0  0  0  0  0
   -8.9857   -5.7130    0.0000 C   0  0  0  0  0  0  0  0  0  0  0  0
   -8.3225   -4.3676    0.0000 C   0  0  0  0  0  0  0  0  0  0  0  0
   -9.1559   -3.1205    0.0000 C   0  0  0  0  0  0  0  0  0  0  0  0
  -10.6529   -3.2185    0.0000 C   0  0  0  0  0  0  0  0  0  0  0  0
  -11.3161   -4.5640    0.0000 C   0  0  0  0  0  0  0  0  0  0  0  0
  -10.4826   -5.8111    0.0000 C   0  0  0  0  0  0  0  0  0  0  0  0
   -4.5352   -5.5892    0.0000 C   0  0  0  0  0  0  0  0  0  0  0  0
   -0.0905   -9.8430    0.0000 C   0  0  0  0  0  0  0  0  0  0  0  0
   -1.3686  -10.6279    0.0000 C   0  0  0  0  0  0  0  0  0  0  0  0
   -2.6878   -9.9133    0.0000 C   0  0  0  0  0  0  0  0  0  0  0  0
   -3.9659  -10.6985    0.0000 C   0  0  0  0  0  0  0  0  0  0  0  0
   -3.9252  -12.1977    0.0000 C   0  0  0  0  0  0  0  0  0  0  0  0
   -2.6063  -12.9123    0.0000 C   0  0  0  0  0  0  0  0  0  0  0  0
   -1.3282  -12.1274    0.0000 C   0  0  0  0  0  0  0  0  0  0  0  0
    4.1313   -7.6744    0.0000 C   0  0  0  0  0  0  0  0  0  0  0  0
    5.6273   -7.5672    0.0000 C   0  0  0  0  0  0  0  0  0  0  0  0
    6.5938   -8.7143    0.0000 C   0  0  0  0  0  0  0  0  0  0  0  0
    7.9835   -8.1500    0.0000 C   0  0  0  0  0  0  0  0  0  0  0  0
    7.8762   -6.6537    0.0000 N   0  0  0  0  0  0  0  0  0  0  0  0
    6.4200   -6.2935    0.0000 C   0  0  0  0  0  0  0  0  0  0  0  0
    9.1673   -9.0713    0.0000 C   0  0  0  0  0  0  0  0  0  0  0  0
    8.9611  -10.5570    0.0000 C   0  0  0  0  0  0  0  0  0  0  0  0
    7.5715  -11.1216    0.0000 C   0  0  0  0  0  0  0  0  0  0  0  0
    6.3877  -10.2003    0.0000 C   0  0  0  0  0  0  0  0  0  0  0  0
    5.5046   -2.5711    0.0000 C   0  0  0  0  0  0  0  0  0  0  0  0
    6.2836   -1.2892    0.0000 C   0  0  0  0  0  0  0  0  0  0  0  0
    7.7832   -1.3232    0.0000 C   0  0  0  0  0  0  0  0  0  0  0  0
    8.5625   -0.0415    0.0000 C   0  0  0  0  0  0  0  0  0  0  0  0
   10.0621   -0.0755    0.0000 N   0  0  0  0  0  0  0  0  0  0  0  0
    1.9554    1.4165    0.0000 C   0  0  0  0  0  0  0  0  0  0  0  0
    1.2978    2.7648    0.0000 O   0  0  0  0  0  0  0  0  0  0  0  0
    3.4518    1.3119    0.0000 C   0  0  0  0  0  0  0  0  0  0  0  0
   -3.2378    0.7097    0.0000 C   0  0  0  0  0  0  0  0  0  0  0  0
   -4.7129    0.9818    0.0000 O   0  0  0  0  0  0  0  0  0  0  0  0
   -2.2647    1.8513    0.0000 N   0  0  0  0  0  0  0  0  0  0  0  0
   -2.7668    3.2647    0.0000 C   0  0  0  0  0  0  0  0  0  0  0  0
   -1.7937    4.4064    0.0000 C   0  0  0  0  0  0  0  0  0  0  0  0
   -0.3186    4.1345    0.0000 O   0  0  0  0  0  0  0  0  0  0  0  0
   -2.2957    5.8198    0.0000 C   0  0  0  0  0  0  0  0  0  0  0  0
   -4.2419    3.5368    0.0000 C   0  0  0  0  0  0  0  0  0  0  0  0
   -4.7439    4.9503    0.0000 O   0  0  0  0  0  0  0  0  0  0  0  0
  2  1  1  0  0  0  0
  1 37  1  0  0  0  0
  3  2  1  0  0  0  0
  4  3  1  0  0  0  0
  5  4  1  0  0  0  0
  4 63  1  0  0  0  0
  6  5  1  0  0  0  0
  6  7  2  0  0  0  0
  8  6  1  0  0  0  0
  9  8  1  0  0  0  0
  8 60  1  0  0  0  0
 10  9  1  0  0  0  0
 10 11  2  0  0  0  0
 12 10  1  0  0  0  0
 13 12  1  0  0  0  0
 12 55  1  0  0  0  0
 14 13  1  0  0  0  0
 14 15  2  0  0  0  0
 16 14  1  0  0  0  0
 17 16  1  0  0  0  0
 16 45  1  0  0  0  0
 18 17  1  0  0  0  0
 18 19  2  0  0  0  0
 20 18  1  0  0  0  0
 21 20  1  0  0  0  0
 20 38  1  0  0  0  0
 22 21  1  0  0  0  0
 22 23  2  0  0  0  0
 24 22  1  0  0  0  0
 24 25  1  0  0  0  0
 37 24  1  0  0  0  0
 25 26  1  0  0  0  0
 26 27  2  0  0  0  0
 26 28  1  0  0  0  0
 28 29  1  0  0  0  0
 28 30  1  0  0  0  0
 30 31  1  0  0  0  0
 32 31  2  0  0  0  0
 31 36  1  0  0  0  0
 33 32  1  0  0  0  0
 34 33  2  0  0  0  0
 35 34  1  0  0  0  0
 36 35  2  0  0  0  0
 38 39  1  0  0  0  0
 40 39  2  0  0  0  0
 39 44  1  0  0  0  0
 41 40  1  0  0  0  0
 42 41  2  0  0  0  0
 43 42  1  0  0  0  0
 44 43  2  0  0  0  0
 45 46  1  0  0  0  0
 47 46  1  0  0  0  0
 46 50  2  0  0  0  0
 47 48  2  0  0  0  0
 54 47  1  0  0  0  0
 49 48  1  0  0  0  0
 48 51  1  0  0  0  0
 50 49  1  0  0  0  0
 51 52  2  0  0  0  0
 52 53  1  0  0  0  0
 53 54  2  0  0  0  0
 55 56  1  0  0  0  0
 56 57  1  0  0  0  0
 57 58  1  0  0  0  0
 58 59  1  0  0  0  0
 60 61  1  0  0  0  0
 60 62  1  0  0  0  0
 63 64  2  0  0  0  0
 63 65  1  0  0  0  0
 65 66  1  0  0  0  0
 66 67  1  0  0  0  0
 66 70  1  0  0  0  0
 67 68  1  0  0  0  0
 67 69  1  0  0  0  0
 70 71  1  0  0  0  0
M  END
> <Inchi_key>
DEQANNDTNATYII-UHFFFAOYSA-N

> <Source>
Kotsampasakou

> <ID>
EK0390

> <H_MFHB>


> <CAS>


> <Cholestasis>
1

> <Name>
octreotide

> <Class>
1

$$$$