
  -INDIGO-08031710012D

 21 23  0  0  0  0  0  0  0  0999 V2000
    4.8441    3.7273    0.0000 C   0  0  0  0  0  0  0  0  0  0  0  0
    4.8441    2.2273    0.0000 O   0  0  0  0  0  0  0  0  0  0  0  0
    3.5451    1.4773    0.0000 C   0  0  0  0  0  0  0  0  0  0  0  0
    2.2460    2.2273    0.0000 O   0  0  0  0  0  0  0  0  0  0  0  0
    3.5451   -0.0227    0.0000 C   0  0  0  0  0  0  0  0  0  0  0  0
    4.8441   -0.7727    0.0000 N   0  0  0  0  0  0  0  0  0  0  0  0
    4.8441   -2.2727    0.0000 C   0  0  0  0  0  0  0  0  0  0  0  0
    6.1430   -3.0227    0.0000 C   0  0  0  0  0  0  0  0  0  0  0  0
    7.4422   -2.2727    0.0000 C   0  0  0  0  0  0  0  0  0  0  0  0
    8.8688   -2.7362    0.0000 S   0  0  0  0  0  0  0  0  0  0  0  0
    9.7504   -1.5227    0.0000 C   0  0  0  0  0  0  0  0  0  0  0  0
    8.8688   -0.3091    0.0000 C   0  0  0  0  0  0  0  0  0  0  0  0
    7.4422   -0.7727    0.0000 C   0  0  0  0  0  0  0  0  0  0  0  0
    6.1430   -0.0227    0.0000 C   0  0  0  0  0  0  0  0  0  0  0  0
    2.2460   -0.7727    0.0000 C   0  0  0  0  0  0  0  0  0  0  0  0
    2.2460   -2.2727    0.0000 C   0  0  0  0  0  0  0  0  0  0  0  0
    0.9470   -3.0227    0.0000 C   0  0  0  0  0  0  0  0  0  0  0  0
   -0.3521   -2.2727    0.0000 C   0  0  0  0  0  0  0  0  0  0  0  0
   -0.3521   -0.7727    0.0000 C   0  0  0  0  0  0  0  0  0  0  0  0
    0.9470   -0.0227    0.0000 C   0  0  0  0  0  0  0  0  0  0  0  0
    0.9470    1.4773    0.0000 Cl  0  0  0  0  0  0  0  0  0  0  0  0
  1  2  1  0  0  0  0
  2  3  1  0  0  0  0
  3  4  2  0  0  0  0
  3  5  1  0  0  0  0
  5  6  1  0  0  0  0
  5 15  1  0  0  0  0
  7  6  1  0  0  0  0
  6 14  1  0  0  0  0
  8  7  1  0  0  0  0
  9  8  1  0  0  0  0
 10  9  1  0  0  0  0
  9 13  2  0  0  0  0
 11 10  1  0  0  0  0
 12 11  2  0  0  0  0
 13 12  1  0  0  0  0
 14 13  1  0  0  0  0
 16 15  2  0  0  0  0
 15 20  1  0  0  0  0
 17 16  1  0  0  0  0
 18 17  2  0  0  0  0
 19 18  1  0  0  0  0
 20 19  2  0  0  0  0
 20 21  1  0  0  0  0
M  END
> <Inchi_key>
GKTWGGQPFAXNFI-UHFFFAOYSA-N

> <Source>
Mulliner

> <ID>
HT0532

> <H_MFHB>
1

> <CAS>


> <Cholestasis>


> <Name>
clopidogrel besilate;clopidogrel bisulfate;clopidogrel hydrobromide;clopidogrel hydrochloride;clopidogrel

> <Class>
1

$$$$