
  -INDIGO-08031710012D

 25 26  0  0  0  0  0  0  0  0999 V2000
   17.4484    1.8671    0.0000 C   0  0  0  0  0  0  0  0  0  0  0  0
   16.1493    2.6171    0.0000 C   0  0  0  0  0  0  0  0  0  0  0  0
   14.8502    1.8671    0.0000 C   0  0  0  0  0  0  0  0  0  0  0  0
   13.5513    2.6171    0.0000 C   0  0  0  0  0  0  0  0  0  0  0  0
   12.2522    1.8671    0.0000 C   0  0  0  0  0  0  0  0  0  0  0  0
   10.9531    2.6171    0.0000 C   0  0  0  0  0  0  0  0  0  0  0  0
    9.6543    1.8671    0.0000 N   0  0  0  0  0  0  0  0  0  0  0  0
    8.3552    2.6171    0.0000 C   0  0  0  0  0  0  0  0  0  0  0  0
    7.0561    1.8671    0.0000 C   0  0  0  0  0  0  0  0  0  0  0  0
    5.7570    2.6171    0.0000 C   0  0  0  0  0  0  0  0  0  0  0  0
    5.7570    4.1171    0.0000 C   0  0  0  0  0  0  0  0  0  0  0  0
    7.0561    4.8671    0.0000 C   0  0  0  0  0  0  0  0  0  0  0  0
    8.3552    4.1171    0.0000 C   0  0  0  0  0  0  0  0  0  0  0  0
    9.6543    4.8671    0.0000 S   0  0  0  0  0  0  0  0  0  0  0  0
   10.4041    6.1661    0.0000 O   0  0  0  0  0  0  0  0  0  0  0  0
    8.9042    6.1661    0.0000 O   0  0  0  0  0  0  0  0  0  0  0  0
   10.9531    4.1171    0.0000 N   0  0  0  0  0  0  0  0  0  0  0  0
    4.4581    4.8671    0.0000 S   0  0  0  0  0  0  0  0  0  0  0  0
    3.7080    3.5680    0.0000 O   0  0  0  0  0  0  0  0  0  0  0  0
    5.2079    6.1661    0.0000 O   0  0  0  0  0  0  0  0  0  0  0  0
    3.1590    5.6171    0.0000 N   0  0  0  0  0  0  0  0  0  0  0  0
    4.7930    1.4680    0.0000 C   0  0  0  0  0  0  0  0  0  0  0  0
    3.6437    2.4322    0.0000 F   0  0  0  0  0  0  0  0  0  0  0  0
    3.8286    0.3189    0.0000 F   0  0  0  0  0  0  0  0  0  0  0  0
    5.9419    0.5038    0.0000 F   0  0  0  0  0  0  0  0  0  0  0  0
  1  2  1  0  0  0  0
  2  3  1  0  0  0  0
  3  4  1  0  0  0  0
  4  5  1  0  0  0  0
  5  6  1  0  0  0  0
  7  6  1  0  0  0  0
  6 17  1  0  0  0  0
  8  7  1  0  0  0  0
  9  8  1  0  0  0  0
  8 13  2  0  0  0  0
 10  9  2  0  0  0  0
 11 10  1  0  0  0  0
 10 22  1  0  0  0  0
 12 11  2  0  0  0  0
 11 18  1  0  0  0  0
 13 12  1  0  0  0  0
 14 13  1  0  0  0  0
 14 15  2  0  0  0  0
 14 16  2  0  0  0  0
 17 14  1  0  0  0  0
 18 19  2  0  0  0  0
 18 20  2  0  0  0  0
 18 21  1  0  0  0  0
 22 23  1  0  0  0  0
 22 24  1  0  0  0  0
 22 25  1  0  0  0  0
M  END
> <Inchi_key>
AKHXXQAIVSMYIS-UHFFFAOYSA-N

> <Source>
Mulliner

> <ID>
HT1613

> <H_MFHB>
1

> <CAS>


> <Cholestasis>


> <Name>
penflutizide

> <Class>
1

$$$$