
  -INDIGO-08031710012D

 39 42  0  0  0  0  0  0  0  0999 V2000
    2.3463   -6.9948    0.0000 C   0  0  0  0  0  0  0  0  0  0  0  0
    3.0961   -5.6959    0.0000 O   0  0  0  0  0  0  0  0  0  0  0  0
    2.3463   -4.3966    0.0000 C   0  0  0  0  0  0  0  0  0  0  0  0
    0.8462   -4.3966    0.0000 C   0  0  0  0  0  0  0  0  0  0  0  0
    0.0962   -3.0977    0.0000 C   0  0  0  0  0  0  0  0  0  0  0  0
    0.8462   -1.7988    0.0000 C   0  0  0  0  0  0  0  0  0  0  0  0
    2.3463   -1.7988    0.0000 C   0  0  0  0  0  0  0  0  0  0  0  0
    3.0961   -3.0977    0.0000 C   0  0  0  0  0  0  0  0  0  0  0  0
    4.5962   -3.0977    0.0000 O   0  0  0  0  0  0  0  0  0  0  0  0
    5.3462   -1.7988    0.0000 C   0  0  0  0  0  0  0  0  0  0  0  0
    6.8463   -1.7988    0.0000 C   0  0  0  0  0  0  0  0  0  0  0  0
    7.5963   -3.0977    0.0000 N   0  0  0  0  0  0  0  0  0  0  0  0
    9.0961   -3.0977    0.0000 S   0  0  0  0  0  0  0  0  0  0  0  0
    9.0961   -4.5977    0.0000 O   0  0  0  0  0  0  0  0  0  0  0  0
    9.0961   -1.5977    0.0000 O   0  0  0  0  0  0  0  0  0  0  0  0
   10.5962   -3.0977    0.0000 C   0  0  0  0  0  0  0  0  0  0  0  0
   11.3462   -4.3966    0.0000 C   0  0  0  0  0  0  0  0  0  0  0  0
   12.8463   -4.3966    0.0000 C   0  0  0  0  0  0  0  0  0  0  0  0
   13.5963   -3.0977    0.0000 C   0  0  0  0  0  0  0  0  0  0  0  0
   12.8463   -1.7988    0.0000 C   0  0  0  0  0  0  0  0  0  0  0  0
   11.3462   -1.7988    0.0000 C   0  0  0  0  0  0  0  0  0  0  0  0
   15.0961   -3.0977    0.0000 C   0  0  0  0  0  0  0  0  0  0  0  0
   16.5962   -3.0977    0.0000 C   0  0  0  0  0  0  0  0  0  0  0  0
   15.0961   -1.5977    0.0000 C   0  0  0  0  0  0  0  0  0  0  0  0
   15.0961   -4.5977    0.0000 C   0  0  0  0  0  0  0  0  0  0  0  0
    7.5963   -0.4995    0.0000 N   0  0  0  0  0  0  0  0  0  0  0  0
    6.8463    0.7994    0.0000 C   0  0  0  0  0  0  0  0  0  0  0  0
    5.3462    0.7994    0.0000 N   0  0  0  0  0  0  0  0  0  0  0  0
    4.5962   -0.4995    0.0000 C   0  0  0  0  0  0  0  0  0  0  0  0
    3.0961   -0.4995    0.0000 O   0  0  0  0  0  0  0  0  0  0  0  0
    2.3463    0.7994    0.0000 C   0  0  0  0  0  0  0  0  0  0  0  0
    0.8462    0.7994    0.0000 C   0  0  0  0  0  0  0  0  0  0  0  0
    0.0962    2.0983    0.0000 O   0  0  0  0  0  0  0  0  0  0  0  0
    7.5963    2.0983    0.0000 C   0  0  0  0  0  0  0  0  0  0  0  0
    6.8463    3.3976    0.0000 N   0  0  0  0  0  0  0  0  0  0  0  0
    7.5963    4.6965    0.0000 C   0  0  0  0  0  0  0  0  0  0  0  0
    9.0961    4.6965    0.0000 C   0  0  0  0  0  0  0  0  0  0  0  0
    9.8461    3.3976    0.0000 C   0  0  0  0  0  0  0  0  0  0  0  0
    9.0961    2.0983    0.0000 N   0  0  0  0  0  0  0  0  0  0  0  0
  1  2  1  0  0  0  0
  2  3  1  0  0  0  0
  4  3  2  0  0  0  0
  3  8  1  0  0  0  0
  5  4  1  0  0  0  0
  6  5  2  0  0  0  0
  7  6  1  0  0  0  0
  8  7  2  0  0  0  0
  8  9  1  0  0  0  0
  9 10  1  0  0  0  0
 11 10  1  0  0  0  0
 10 29  2  0  0  0  0
 11 12  1  0  0  0  0
 26 11  2  0  0  0  0
 12 13  1  0  0  0  0
 13 14  2  0  0  0  0
 13 15  2  0  0  0  0
 13 16  1  0  0  0  0
 17 16  2  0  0  0  0
 16 21  1  0  0  0  0
 18 17  1  0  0  0  0
 19 18  2  0  0  0  0
 20 19  1  0  0  0  0
 19 22  1  0  0  0  0
 21 20  2  0  0  0  0
 22 23  1  0  0  0  0
 22 24  1  0  0  0  0
 22 25  1  0  0  0  0
 27 26  1  0  0  0  0
 28 27  2  0  0  0  0
 27 34  1  0  0  0  0
 29 28  1  0  0  0  0
 29 30  1  0  0  0  0
 30 31  1  0  0  0  0
 31 32  1  0  0  0  0
 32 33  1  0  0  0  0
 35 34  2  0  0  0  0
 34 39  1  0  0  0  0
 36 35  1  0  0  0  0
 37 36  2  0  0  0  0
 38 37  1  0  0  0  0
 39 38  2  0  0  0  0
M  END
> <Inchi_key>
GJPICJJJRGTNOD-UHFFFAOYSA-N

> <Source>
Mulliner

> <ID>
HT0300

> <H_MFHB>
1

> <CAS>
147536-97-8

> <Cholestasis>


> <Name>
bosentan

> <Class>
1

$$$$