
  -INDIGO-08031710012D

 22 24  0  0  0  0  0  0  0  0999 V2000
   11.6394   -4.8009    0.0000 C   0  0  0  0  0  0  0  0  0  0  0  0
   10.5756   -3.7434    0.0000 N   0  0  0  0  0  0  0  0  0  0  0  0
   10.9595   -2.2934    0.0000 C   0  0  0  0  0  0  0  0  0  0  0  0
    9.1279   -4.1360    0.0000 C   0  0  0  0  0  0  0  0  0  0  0  0
    8.0641   -3.0785    0.0000 C   0  0  0  0  0  0  0  0  0  0  0  0
    6.6165   -3.4710    0.0000 C   0  0  0  0  0  0  0  0  0  0  0  0
    5.5525   -2.4135    0.0000 N   0  0  0  0  0  0  0  0  0  0  0  0
    6.0430   -0.9960    0.0000 C   0  0  0  0  0  0  0  0  0  0  0  0
    7.5415   -0.9352    0.0000 C   0  0  0  0  0  0  0  0  0  0  0  0
    8.2385    0.3932    0.0000 C   0  0  0  0  0  0  0  0  0  0  0  0
    7.4364    1.6608    0.0000 C   0  0  0  0  0  0  0  0  0  0  0  0
    5.9376    1.6001    0.0000 C   0  0  0  0  0  0  0  0  0  0  0  0
    5.2409    0.2717    0.0000 C   0  0  0  0  0  0  0  0  0  0  0  0
    3.7499    0.4358    0.0000 C   0  0  0  0  0  0  0  0  0  0  0  0
    2.6914   -0.6271    0.0000 C   0  0  0  0  0  0  0  0  0  0  0  0
    2.8655   -2.1179    0.0000 C   0  0  0  0  0  0  0  0  0  0  0  0
    1.5413   -2.8225    0.0000 C   0  0  0  0  0  0  0  0  0  0  0  0
    1.4896   -4.3216    0.0000 C   0  0  0  0  0  0  0  0  0  0  0  0
    2.7619   -5.1160    0.0000 C   0  0  0  0  0  0  0  0  0  0  0  0
    2.7100   -6.6152    0.0000 Cl  0  0  0  0  0  0  0  0  0  0  0  0
    4.0861   -4.4114    0.0000 C   0  0  0  0  0  0  0  0  0  0  0  0
    4.1378   -2.9123    0.0000 C   0  0  0  0  0  0  0  0  0  0  0  0
  1  2  1  0  0  0  0
  2  3  1  0  0  0  0
  2  4  1  0  0  0  0
  4  5  1  0  0  0  0
  5  6  1  0  0  0  0
  6  7  1  0  0  0  0
  8  7  1  0  0  0  0
  7 22  1  0  0  0  0
  9  8  2  0  0  0  0
  8 13  1  0  0  0  0
 10  9  1  0  0  0  0
 11 10  2  0  0  0  0
 12 11  1  0  0  0  0
 13 12  2  0  0  0  0
 14 13  1  0  0  0  0
 15 14  1  0  0  0  0
 16 15  1  0  0  0  0
 17 16  2  0  0  0  0
 16 22  1  0  0  0  0
 18 17  1  0  0  0  0
 19 18  2  0  0  0  0
 19 20  1  0  0  0  0
 21 19  1  0  0  0  0
 22 21  2  0  0  0  0
M  END
> <Inchi_key>
GDLIGKIOYRNHDA-UHFFFAOYSA-N

> <Source>
Mulliner

> <ID>
HT0528

> <H_MFHB>
1

> <CAS>
17321-77-6

> <Cholestasis>


> <Name>
clomipramine hydrochloride;clomipramine

> <Class>
1

$$$$