
  -INDIGO-08031710012D

 22 24  0  0  0  0  0  0  0  0999 V2000
    3.3426    2.5649    0.0000 C   0  0  0  0  0  0  0  0  0  0  0  0
    2.9544    1.1160    0.0000 C   0  0  0  0  0  0  0  0  0  0  0  0
    1.5055    0.7277    0.0000 C   0  0  0  0  0  0  0  0  0  0  0  0
    0.4449    1.7884    0.0000 C   0  0  0  0  0  0  0  0  0  0  0  0
   -0.9713    1.2938    0.0000 C   0  0  0  0  0  0  0  0  0  0  0  0
   -1.0277   -0.2051    0.0000 C   0  0  0  0  0  0  0  0  0  0  0  0
   -2.3538   -0.9059    0.0000 C   0  0  0  0  0  0  0  0  0  0  0  0
   -3.6238   -0.1077    0.0000 C   0  0  0  0  0  0  0  0  0  0  0  0
   -3.5676    1.3913    0.0000 C   0  0  0  0  0  0  0  0  0  0  0  0
   -2.2413    2.0920    0.0000 C   0  0  0  0  0  0  0  0  0  0  0  0
   -2.4097    3.5825    0.0000 C   0  0  0  0  0  0  0  0  0  0  0  0
   -1.3501    4.6441    0.0000 C   0  0  0  0  0  0  0  0  0  0  0  0
    0.1410    4.4745    0.0000 C   0  0  0  0  0  0  0  0  0  0  0  0
    0.8417    5.8008    0.0000 C   0  0  0  0  0  0  0  0  0  0  0  0
    2.3407    5.8571    0.0000 C   0  0  0  0  0  0  0  0  0  0  0  0
    3.1390    4.5871    0.0000 C   0  0  0  0  0  0  0  0  0  0  0  0
    2.4383    3.2608    0.0000 C   0  0  0  0  0  0  0  0  0  0  0  0
    0.9393    3.2045    0.0000 C   0  0  0  0  0  0  0  0  0  0  0  0
    4.0150    0.0554    0.0000 C   0  0  0  0  0  0  0  0  0  0  0  0
    5.4638    0.4436    0.0000 N   0  0  0  0  0  0  0  0  0  0  0  0
    6.5246   -0.6169    0.0000 C   0  0  0  0  0  0  0  0  0  0  0  0
    5.8521    1.8925    0.0000 C   0  0  0  0  0  0  0  0  0  0  0  0
  1  2  1  0  0  0  0
  2  3  1  0  0  0  0
  2 19  1  0  0  0  0
  3  4  1  0  0  0  0
  5  4  1  0  0  0  0
  4 18  1  0  0  0  0
  6  5  2  0  0  0  0
  5 10  1  0  0  0  0
  7  6  1  0  0  0  0
  8  7  2  0  0  0  0
  9  8  1  0  0  0  0
 10  9  2  0  0  0  0
 11 10  1  0  0  0  0
 12 11  1  0  0  0  0
 13 12  1  0  0  0  0
 14 13  2  0  0  0  0
 13 18  1  0  0  0  0
 15 14  1  0  0  0  0
 16 15  2  0  0  0  0
 17 16  1  0  0  0  0
 18 17  2  0  0  0  0
 19 20  1  0  0  0  0
 20 21  1  0  0  0  0
 20 22  1  0  0  0  0
M  END
> <Inchi_key>
ALELTFCQZDXAMQ-UHFFFAOYSA-N

> <Source>
Mulliner

> <ID>
HT0342

> <H_MFHB>
1

> <CAS>


> <Cholestasis>


> <Name>
butriptyline

> <Class>
1

$$$$