

  -INDIGO-08031710012D

 33 36  0  0  0  0  0  0  0  0999 V2000
    1.2547    2.6356    0.0000 C   0  0  0  0  0  0  0  0  0  0  0  0
    2.5536    1.8856    0.0000 N   0  0  0  0  0  0  0  0  0  0  0  0
    3.8528    2.6356    0.0000 C   0  0  0  0  0  0  0  0  0  0  0  0
    2.5536    0.3856    0.0000 C   0  0  0  0  0  0  0  0  0  0  0  0
    3.8528   -0.3644    0.0000 C   0  0  0  0  0  0  0  0  0  0  0  0
    5.1519    0.3856    0.0000 C   0  0  0  0  0  0  0  0  0  0  0  0
    6.4508   -0.3644    0.0000 C   0  0  0  0  0  0  0  0  0  0  0  0
    7.7500    0.3856    0.0000 C   0  0  0  0  0  0  0  0  0  0  0  0
    9.0489   -0.3644    0.0000 C   0  0  0  0  0  0  0  0  0  0  0  0
   10.3481    0.3856    0.0000 C   0  0  0  0  0  0  0  0  0  0  0  0
   11.6470   -0.3644    0.0000 C   0  0  0  0  0  0  0  0  0  0  0  0
   11.6470   -1.8644    0.0000 C   0  0  0  0  0  0  0  0  0  0  0  0
   10.3481   -2.6144    0.0000 C   0  0  0  0  0  0  0  0  0  0  0  0
   10.3481   -4.1144    0.0000 O   0  0  0  0  0  0  0  0  0  0  0  0
    9.0489   -1.8644    0.0000 C   0  0  0  0  0  0  0  0  0  0  0  0
    7.7500   -2.6144    0.0000 C   0  0  0  0  0  0  0  0  0  0  0  0
    6.4508   -1.8644    0.0000 C   0  0  0  0  0  0  0  0  0  0  0  0
    5.1519   -2.6144    0.0000 C   0  0  0  0  0  0  0  0  0  0  0  0
    5.1519   -4.1144    0.0000 O   0  0  0  0  0  0  0  0  0  0  0  0
    3.8528   -1.8644    0.0000 C   0  0  0  0  0  0  0  0  0  0  0  0
    3.8528   -3.3644    0.0000 O   0  0  0  0  0  0  0  0  0  0  0  0
    2.5536   -2.6144    0.0000 C   0  0  0  0  0  0  0  0  0  0  0  0
    1.2547   -1.8644    0.0000 C   0  0  0  0  0  0  0  0  0  0  0  0
   -0.0443   -2.6144    0.0000 C   0  0  0  0  0  0  0  0  0  0  0  0
   -1.3434   -1.8644    0.0000 O   0  0  0  0  0  0  0  0  0  0  0  0
   -0.0443   -4.1144    0.0000 N   0  0  0  0  0  0  0  0  0  0  0  0
    1.2547   -0.3644    0.0000 C   0  0  0  0  0  0  0  0  0  0  0  0
   -0.0443    0.3856    0.0000 O   0  0  0  0  0  0  0  0  0  0  0  0
    2.5536   -4.1144    0.0000 O   0  0  0  0  0  0  0  0  0  0  0  0
    7.7500   -4.1144    0.0000 O   0  0  0  0  0  0  0  0  0  0  0  0
   10.3481    1.8856    0.0000 N   0  0  0  0  0  0  0  0  0  0  0  0
   11.6470    2.6356    0.0000 C   0  0  0  0  0  0  0  0  0  0  0  0
    9.0489    2.6356    0.0000 C   0  0  0  0  0  0  0  0  0  0  0  0
  1  2  1  0  0  0  0
  2  3  1  0  0  0  0
  2  4  1  0  0  0  0
  5  4  1  0  0  0  0
  4 27  1  0  0  0  0
  6  5  1  0  0  0  0
  5 20  1  0  0  0  0
  7  6  1  0  0  0  0
  8  7  1  0  0  0  0
  7 17  1  0  0  0  0
  9  8  1  0  0  0  0
 10  9  2  0  0  0  0
  9 15  1  0  0  0  0
 11 10  1  0  0  0  0
 10 31  1  0  0  0  0
 12 11  2  0  0  0  0
 13 12  1  0  0  0  0
 13 14  1  0  0  0  0
 15 13  2  0  0  0  0
 16 15  1  0  0  0  0
 17 16  2  0  0  0  0
 16 30  1  0  0  0  0
 18 17  1  0  0  0  0
 18 19  2  0  0  0  0
 20 18  1  0  0  0  0
 20 21  1  0  0  0  0
 22 20  1  0  0  0  0
 23 22  2  0  0  0  0
 22 29  1  0  0  0  0
 23 24  1  0  0  0  0
 27 23  1  0  0  0  0
 24 25  2  0  0  0  0
 24 26  1  0  0  0  0
 27 28  2  0  0  0  0
 31 32  1  0  0  0  0
 31 33  1  0  0  0  0
M  END
> <Inchi_key>
FFTVPQUHLQBXQZ-UHFFFAOYSA-N

> <Source>
Mulliner

> <ID>
HT1407

> <H_MFHB>
1

> <CAS>


> <Cholestasis>


> <Name>
minocycline hydrochloride;minocycline

> <Class>
1


$$$$