
  -INDIGO-08031710012D

 18 18  0  0  0  0  0  0  0  0999 V2000
    8.1830    3.3584    0.0000 O   0  0  0  0  0  0  0  0  0  0  0  0
    7.4330    4.6575    0.0000 C   0  0  0  0  0  0  0  0  0  0  0  0
    5.9330    4.6575    0.0000 C   0  0  0  0  0  0  0  0  0  0  0  0
    5.1830    5.9565    0.0000 C   0  0  0  0  0  0  0  0  0  0  0  0
    5.9330    7.2556    0.0000 O   0  0  0  0  0  0  0  0  0  0  0  0
    5.1830    3.3584    0.0000 N   0  0  0  0  0  0  0  0  0  0  0  0
    3.6831    3.3584    0.0000 C   0  0  0  0  0  0  0  0  0  0  0  0
    2.9330    4.6575    0.0000 C   0  0  0  0  0  0  0  0  0  0  0  0
    1.4330    4.6575    0.0000 C   0  0  0  0  0  0  0  0  0  0  0  0
    0.1340    5.4075    0.0000 O   0  0  0  0  0  0  0  0  0  0  0  0
    1.4330    6.1575    0.0000 C   0  0  0  0  0  0  0  0  0  0  0  0
    0.1340    6.9075    0.0000 O   0  0  0  0  0  0  0  0  0  0  0  0
    0.6831    3.3584    0.0000 C   0  0  0  0  0  0  0  0  0  0  0  0
   -0.8170    3.3584    0.0000 O   0  0  0  0  0  0  0  0  0  0  0  0
    1.4330    2.0594    0.0000 C   0  0  0  0  0  0  0  0  0  0  0  0
    0.6831    0.7604    0.0000 O   0  0  0  0  0  0  0  0  0  0  0  0
    2.9330    2.0594    0.0000 C   0  0  0  0  0  0  0  0  0  0  0  0
    3.6831    0.7604    0.0000 O   0  0  0  0  0  0  0  0  0  0  0  0
  1  2  1  0  0  0  0
  2  3  1  0  0  0  0
  3  4  1  0  0  0  0
  3  6  1  0  0  0  0
  4  5  1  0  0  0  0
  6  7  1  0  0  0  0
  8  7  1  0  0  0  0
  7 17  1  0  0  0  0
  9  8  1  0  0  0  0
  9 10  1  0  0  0  0
  9 11  1  0  0  0  0
 13  9  1  0  0  0  0
 11 12  1  0  0  0  0
 13 14  1  0  0  0  0
 15 13  1  0  0  0  0
 15 16  1  0  0  0  0
 17 15  1  0  0  0  0
 17 18  1  0  0  0  0
M  END
> <Inchi_key>
FZNCGRZWXLXZSZ-UHFFFAOYSA-N

> <Source>
Mulliner

> <ID>
HT2193

> <H_MFHB>
1

> <CAS>
83480-29-9

> <Cholestasis>


> <Name>
voglibose

> <Class>
1

$$$$