
  -INDIGO-08031710012D

 23 26  0  0  0  0  0  0  0  0999 V2000
   15.1359   -2.8016    0.0000 C   0  0  0  0  0  0  0  0  0  0  0  0
   13.6359   -2.8060    0.0000 C   0  0  0  0  0  0  0  0  0  0  0  0
   12.8897   -4.1072    0.0000 O   0  0  0  0  0  0  0  0  0  0  0  0
   12.8821   -1.5091    0.0000 O   0  0  0  0  0  0  0  0  0  0  0  0
   11.3821   -1.5135    0.0000 C   0  0  0  0  0  0  0  0  0  0  0  0
   10.6359   -2.8147    0.0000 C   0  0  0  0  0  0  0  0  0  0  0  0
    9.1359   -2.8191    0.0000 C   0  0  0  0  0  0  0  0  0  0  0  0
    8.3821   -1.5222    0.0000 C   0  0  0  0  0  0  0  0  0  0  0  0
    6.8821   -1.5266    0.0000 C   0  0  0  0  0  0  0  0  0  0  0  0
    6.1359   -2.8278    0.0000 C   0  0  0  0  0  0  0  0  0  0  0  0
    4.6359   -2.8322    0.0000 C   0  0  0  0  0  0  0  0  0  0  0  0
    3.8821   -1.5353    0.0000 C   0  0  0  0  0  0  0  0  0  0  0  0
    3.0471   -2.7813    0.0000 C   0  0  0  0  0  0  0  0  0  0  0  0
    2.4140   -1.2277    0.0000 C   0  0  0  0  0  0  0  0  0  0  0  0
    1.3022   -2.2346    0.0000 O   0  0  0  0  0  0  0  0  0  0  0  0
    2.2529    0.2636    0.0000 C   0  0  0  0  0  0  0  0  0  0  0  0
    3.6214    0.8777    0.0000 C   0  0  0  0  0  0  0  0  0  0  0  0
    4.6283   -0.2341    0.0000 C   0  0  0  0  0  0  0  0  0  0  0  0
    6.1283   -0.2297    0.0000 C   0  0  0  0  0  0  0  0  0  0  0  0
    6.8745    1.0715    0.0000 C   0  0  0  0  0  0  0  0  0  0  0  0
    8.3745    1.0758    0.0000 C   0  0  0  0  0  0  0  0  0  0  0  0
    9.1283   -0.2210    0.0000 C   0  0  0  0  0  0  0  0  0  0  0  0
   10.6283   -0.2166    0.0000 C   0  0  0  0  0  0  0  0  0  0  0  0
  1  2  1  0  0  0  0
  2  3  2  0  0  0  0
  2  4  1  0  0  0  0
  4  5  1  0  0  0  0
  6  5  2  0  0  0  0
  5 23  1  0  0  0  0
  7  6  1  0  0  0  0
  8  7  2  0  0  0  0
  9  8  1  0  0  0  0
  8 22  1  0  0  0  0
 10  9  1  0  0  0  0
  9 19  1  0  0  0  0
 11 10  1  0  0  0  0
 12 11  1  0  0  0  0
 12 13  1  0  0  0  0
 14 12  1  0  0  0  0
 12 18  1  0  0  0  0
 14 15  1  0  0  0  0
 16 14  1  0  0  0  0
 17 16  1  0  0  0  0
 18 17  1  0  0  0  0
 19 18  1  0  0  0  0
 20 19  1  0  0  0  0
 21 20  1  0  0  0  0
 22 21  1  0  0  0  0
 23 22  2  0  0  0  0
M  END
> <Inchi_key>
FHXBMXJMKMWVRG-UHFFFAOYSA-N

> <Source>
Mulliner

> <ID>
HT0791

> <H_MFHB>
1

> <CAS>


> <Cholestasis>


> <Name>
estradiol acetate

> <Class>
1

$$$$