
  -INDIGO-08031710012D

 45 50  0  0  0  0  0  0  0  0999 V2000
   -2.2779    8.6039    0.0000 C   0  0  0  0  0  0  0  0  0  0  0  0
   -0.9744    9.3461    0.0000 C   0  0  0  0  0  0  0  0  0  0  0  0
    0.3201    8.5884    0.0000 O   0  0  0  0  0  0  0  0  0  0  0  0
    1.6236    9.3308    0.0000 C   0  0  0  0  0  0  0  0  0  0  0  0
    1.7893   10.8214    0.0000 N   0  0  0  0  0  0  0  0  0  0  0  0
    3.2581   11.1246    0.0000 C   0  0  0  0  0  0  0  0  0  0  0  0
    4.0158   12.4192    0.0000 C   0  0  0  0  0  0  0  0  0  0  0  0
    5.5159   12.4104    0.0000 C   0  0  0  0  0  0  0  0  0  0  0  0
    6.2583   11.1068    0.0000 C   0  0  0  0  0  0  0  0  0  0  0  0
    5.5003    9.8122    0.0000 C   0  0  0  0  0  0  0  0  0  0  0  0
    6.2427    8.5087    0.0000 C   0  0  0  0  0  0  0  0  0  0  0  0
    5.4850    7.2141    0.0000 O   0  0  0  0  0  0  0  0  0  0  0  0
    7.7428    8.4999    0.0000 O   0  0  0  0  0  0  0  0  0  0  0  0
    8.4849    7.1963    0.0000 C   0  0  0  0  0  0  0  0  0  0  0  0
    7.7272    5.9019    0.0000 C   0  0  0  0  0  0  0  0  0  0  0  0
    9.9850    7.1875    0.0000 O   0  0  0  0  0  0  0  0  0  0  0  0
   10.7273    5.8841    0.0000 C   0  0  0  0  0  0  0  0  0  0  0  0
    9.9696    4.5895    0.0000 O   0  0  0  0  0  0  0  0  0  0  0  0
   12.2271    5.8751    0.0000 O   0  0  0  0  0  0  0  0  0  0  0  0
   12.9695    4.5717    0.0000 C   0  0  0  0  0  0  0  0  0  0  0  0
   12.2118    3.2771    0.0000 C   0  0  0  0  0  0  0  0  0  0  0  0
   12.9539    1.9736    0.0000 C   0  0  0  0  0  0  0  0  0  0  0  0
   14.4540    1.9646    0.0000 C   0  0  0  0  0  0  0  0  0  0  0  0
   15.2117    3.2593    0.0000 C   0  0  0  0  0  0  0  0  0  0  0  0
   14.4693    4.5627    0.0000 C   0  0  0  0  0  0  0  0  0  0  0  0
    4.0005    9.8212    0.0000 C   0  0  0  0  0  0  0  0  0  0  0  0
    2.9901    8.7124    0.0000 N   0  0  0  0  0  0  0  0  0  0  0  0
    3.2934    7.2434    0.0000 C   0  0  0  0  0  0  0  0  0  0  0  0
    2.1726    6.2462    0.0000 C   0  0  0  0  0  0  0  0  0  0  0  0
    2.4758    4.7772    0.0000 C   0  0  0  0  0  0  0  0  0  0  0  0
    1.3550    3.7802    0.0000 C   0  0  0  0  0  0  0  0  0  0  0  0
   -0.0687    4.2522    0.0000 C   0  0  0  0  0  0  0  0  0  0  0  0
   -0.3717    5.7212    0.0000 C   0  0  0  0  0  0  0  0  0  0  0  0
    0.7488    6.7184    0.0000 C   0  0  0  0  0  0  0  0  0  0  0  0
   -1.1895    3.2552    0.0000 C   0  0  0  0  0  0  0  0  0  0  0  0
   -2.6133    3.7272    0.0000 C   0  0  0  0  0  0  0  0  0  0  0  0
   -3.7338    2.7300    0.0000 C   0  0  0  0  0  0  0  0  0  0  0  0
   -3.4308    1.2611    0.0000 C   0  0  0  0  0  0  0  0  0  0  0  0
   -2.0068    0.7891    0.0000 C   0  0  0  0  0  0  0  0  0  0  0  0
   -0.8863    1.7861    0.0000 C   0  0  0  0  0  0  0  0  0  0  0  0
    0.5375    1.3141    0.0000 C   0  0  0  0  0  0  0  0  0  0  0  0
    1.7563    2.1886    0.0000 N   0  0  0  0  0  0  0  0  0  0  0  0
    2.9647    1.2997    0.0000 N   0  0  0  0  0  0  0  0  0  0  0  0
    2.4926   -0.1241    0.0000 N   0  0  0  0  0  0  0  0  0  0  0  0
    0.9925   -0.1153    0.0000 N   0  0  0  0  0  0  0  0  0  0  0  0
  1  2  1  0  0  0  0
  2  3  1  0  0  0  0
  3  4  1  0  0  0  0
  5  4  2  0  0  0  0
  4 27  1  0  0  0  0
  6  5  1  0  0  0  0
  7  6  2  0  0  0  0
  6 26  1  0  0  0  0
  8  7  1  0  0  0  0
  9  8  2  0  0  0  0
 10  9  1  0  0  0  0
 10 11  1  0  0  0  0
 26 10  2  0  0  0  0
 11 12  2  0  0  0  0
 11 13  1  0  0  0  0
 13 14  1  0  0  0  0
 14 15  1  0  0  0  0
 14 16  1  0  0  0  0
 16 17  1  0  0  0  0
 17 18  2  0  0  0  0
 17 19  1  0  0  0  0
 19 20  1  0  0  0  0
 21 20  1  0  0  0  0
 20 25  1  0  0  0  0
 22 21  1  0  0  0  0
 23 22  1  0  0  0  0
 24 23  1  0  0  0  0
 25 24  1  0  0  0  0
 27 26  1  0  0  0  0
 27 28  1  0  0  0  0
 28 29  1  0  0  0  0
 30 29  2  0  0  0  0
 29 34  1  0  0  0  0
 31 30  1  0  0  0  0
 32 31  2  0  0  0  0
 33 32  1  0  0  0  0
 32 35  1  0  0  0  0
 34 33  2  0  0  0  0
 36 35  2  0  0  0  0
 35 40  1  0  0  0  0
 37 36  1  0  0  0  0
 38 37  2  0  0  0  0
 39 38  1  0  0  0  0
 40 39  2  0  0  0  0
 40 41  1  0  0  0  0
 42 41  1  0  0  0  0
 41 45  2  0  0  0  0
 43 42  2  0  0  0  0
 44 43  1  0  0  0  0
 45 44  1  0  0  0  0
M  END
> <Inchi_key>
GHOSNRCGJFBJIB-UHFFFAOYSA-N

> <Source>
Mulliner

> <ID>
HT0360

> <H_MFHB>
1

> <CAS>


> <Cholestasis>


> <Name>
candesartan cilexetil

> <Class>
1

$$$$