
  -INDIGO-08031710012D

 21 24  0  0  0  0  0  0  0  0999 V2000
   12.0788    0.2410    0.0000 C   0  0  0  0  0  0  0  0  0  0  0  0
   10.5800    0.1811    0.0000 N   0  0  0  0  0  0  0  0  0  0  0  0
    9.8824   -1.1468    0.0000 C   0  0  0  0  0  0  0  0  0  0  0  0
    8.3836   -1.2066    0.0000 C   0  0  0  0  0  0  0  0  0  0  0  0
    7.5823    0.0615    0.0000 C   0  0  0  0  0  0  0  0  0  0  0  0
    8.2799    1.3894    0.0000 C   0  0  0  0  0  0  0  0  0  0  0  0
    9.7787    1.4492    0.0000 C   0  0  0  0  0  0  0  0  0  0  0  0
    7.2326    2.4632    0.0000 C   0  0  0  0  0  0  0  0  0  0  0  0
    7.3298    3.9601    0.0000 C   0  0  0  0  0  0  0  0  0  0  0  0
    6.0821    4.7926    0.0000 C   0  0  0  0  0  0  0  0  0  0  0  0
    4.7372    4.1284    0.0000 C   0  0  0  0  0  0  0  0  0  0  0  0
    4.6399    2.6315    0.0000 C   0  0  0  0  0  0  0  0  0  0  0  0
    5.8878    1.7989    0.0000 C   0  0  0  0  0  0  0  0  0  0  0  0
    6.1038    0.3146    0.0000 N   0  0  0  0  0  0  0  0  0  0  0  0
    5.0301   -0.7328    0.0000 C   0  0  0  0  0  0  0  0  0  0  0  0
    3.5862   -0.3265    0.0000 C   0  0  0  0  0  0  0  0  0  0  0  0
    3.2160    1.1271    0.0000 C   0  0  0  0  0  0  0  0  0  0  0  0
    1.7722    1.5334    0.0000 C   0  0  0  0  0  0  0  0  0  0  0  0
    0.6983    0.4860    0.0000 C   0  0  0  0  0  0  0  0  0  0  0  0
    1.0684   -0.9676    0.0000 C   0  0  0  0  0  0  0  0  0  0  0  0
    2.5125   -1.3738    0.0000 C   0  0  0  0  0  0  0  0  0  0  0  0
  1  2  1  0  0  0  0
  3  2  1  0  0  0  0
  2  7  1  0  0  0  0
  4  3  1  0  0  0  0
  5  4  1  0  0  0  0
  5  6  2  0  0  0  0
 14  5  1  0  0  0  0
  7  6  1  0  0  0  0
  6  8  1  0  0  0  0
  9  8  2  0  0  0  0
  8 13  1  0  0  0  0
 10  9  1  0  0  0  0
 11 10  2  0  0  0  0
 12 11  1  0  0  0  0
 13 12  2  0  0  0  0
 13 14  1  0  0  0  0
 14 15  1  0  0  0  0
 15 16  1  0  0  0  0
 17 16  2  0  0  0  0
 16 21  1  0  0  0  0
 18 17  1  0  0  0  0
 19 18  2  0  0  0  0
 20 19  1  0  0  0  0
 21 20  2  0  0  0  0
M  END
> <Inchi_key>
FQQIIPAOSKSOJM-UHFFFAOYSA-N

> <Source>
Mulliner

> <ID>
HT1277

> <H_MFHB>
1

> <CAS>


> <Cholestasis>


> <Name>
mebhydrolin

> <Class>
1

$$$$