
  -INDIGO-08031710012D

 18 20  0  0  0  0  0  0  0  0999 V2000
    2.1552    1.2865    0.0000 N   0  0  0  0  0  0  0  0  0  0  0  0
    3.2159    0.2259    0.0000 C   0  0  0  0  0  0  0  0  0  0  0  0
    4.6648    0.6141    0.0000 O   0  0  0  0  0  0  0  0  0  0  0  0
    2.8277   -1.2230    0.0000 N   0  0  0  0  0  0  0  0  0  0  0  0
    3.9640   -2.2021    0.0000 C   0  0  0  0  0  0  0  0  0  0  0  0
    5.2903   -1.5014    0.0000 C   0  0  0  0  0  0  0  0  0  0  0  0
    6.5603   -2.2996    0.0000 C   0  0  0  0  0  0  0  0  0  0  0  0
    6.5040   -3.7985    0.0000 C   0  0  0  0  0  0  0  0  0  0  0  0
    5.1778   -4.4993    0.0000 C   0  0  0  0  0  0  0  0  0  0  0  0
    3.9078   -3.7011    0.0000 C   0  0  0  0  0  0  0  0  0  0  0  0
    2.7013   -4.5923    0.0000 C   0  0  0  0  0  0  0  0  0  0  0  0
    1.2520   -4.2053    0.0000 C   0  0  0  0  0  0  0  0  0  0  0  0
    0.6533   -2.8291    0.0000 C   0  0  0  0  0  0  0  0  0  0  0  0
   -0.8457   -2.8854    0.0000 C   0  0  0  0  0  0  0  0  0  0  0  0
   -1.6439   -1.6154    0.0000 C   0  0  0  0  0  0  0  0  0  0  0  0
   -0.9432   -0.2891    0.0000 C   0  0  0  0  0  0  0  0  0  0  0  0
    0.5558   -0.2328    0.0000 C   0  0  0  0  0  0  0  0  0  0  0  0
    1.3540   -1.5028    0.0000 C   0  0  0  0  0  0  0  0  0  0  0  0
  1  2  1  0  0  0  0
  2  3  2  0  0  0  0
  2  4  1  0  0  0  0
  5  4  1  0  0  0  0
  4 18  1  0  0  0  0
  6  5  2  0  0  0  0
  5 10  1  0  0  0  0
  7  6  1  0  0  0  0
  8  7  2  0  0  0  0
  9  8  1  0  0  0  0
 10  9  2  0  0  0  0
 11 10  1  0  0  0  0
 12 11  2  0  0  0  0
 13 12  1  0  0  0  0
 14 13  2  0  0  0  0
 13 18  1  0  0  0  0
 15 14  1  0  0  0  0
 16 15  2  0  0  0  0
 17 16  1  0  0  0  0
 18 17  2  0  0  0  0
M  END
> <Inchi_key>
FFGPTBGBLSHEPO-UHFFFAOYSA-N

> <Source>
Mulliner , Kotsampasakou

> <ID>
EK0087;HT0371

> <H_MFHB>
1

> <CAS>


> <Cholestasis>
1

> <Name>
carbamazepine

> <Class>
1

$$$$