

  -INDIGO-08031710012D

  9  9  0  0  0  0  0  0  0  0999 V2000
    1.8333    2.0207    0.0000 O   0  0  0  0  0  0  0  0  0  0  0  0
    2.5833    0.7217    0.0000 C   0  0  0  0  0  0  0  0  0  0  0  0
    4.0833    0.7217    0.0000 N   0  0  0  0  0  0  0  0  0  0  0  0
    1.8333   -0.5774    0.0000 C   0  0  0  0  0  0  0  0  0  0  0  0
    2.5833   -1.8764    0.0000 C   0  0  0  0  0  0  0  0  0  0  0  0
    0.3333   -0.5774    0.0000 F   0  0  0  0  0  0  0  0  0  0  0  0
    4.0833   -1.8764    0.0000 N   0  0  0  0  0  0  0  0  0  0  0  0
    4.8333   -0.5774    0.0000 C   0  0  0  0  0  0  0  0  0  0  0  0
    6.3333   -0.5774    0.0000 O   0  0  0  0  0  0  0  0  0  0  0  0
  1  2  2  0  0  0  0
  3  2  1  0  0  0  0
  2  4  1  0  0  0  0
  4  5  2  0  0  0  0
  4  6  1  0  0  0  0
  5  7  1  0  0  0  0
  7  8  1  0  0  0  0
  8  9  2  0  0  0  0
  8  3  1  0  0  0  0
M  END
> <Inchi_key>
GHASVSINZRGABV-UHFFFAOYSA-N

> <Source>
Mulliner

> <ID>
HT0909

> <H_MFHB>
1

> <CAS>
51-21-8

> <Cholestasis>


> <Name>
fluorouracil

> <Class>
1


$$$$