
  -INDIGO-08031710012D

 17 18  0  0  0  0  0  0  0  0999 V2000
    6.3449    1.7001    0.0000 C   0  0  0  0  0  0  0  0  0  0  0  0
    5.0460    0.9501    0.0000 C   0  0  0  0  0  0  0  0  0  0  0  0
    3.7469    1.7001    0.0000 C   0  0  0  0  0  0  0  0  0  0  0  0
    2.4478    0.9501    0.0000 C   0  0  0  0  0  0  0  0  0  0  0  0
    1.1488    1.7001    0.0000 C   0  0  0  0  0  0  0  0  0  0  0  0
   -0.1503    0.9501    0.0000 C   0  0  0  0  0  0  0  0  0  0  0  0
   -0.1503   -0.5499    0.0000 C   0  0  0  0  0  0  0  0  0  0  0  0
    1.1488   -1.2999    0.0000 S   0  0  0  0  0  0  0  0  0  0  0  0
    1.8988   -2.5989    0.0000 O   0  0  0  0  0  0  0  0  0  0  0  0
    0.3988   -2.5989    0.0000 O   0  0  0  0  0  0  0  0  0  0  0  0
    2.4478   -0.5499    0.0000 C   0  0  0  0  0  0  0  0  0  0  0  0
    3.7469   -1.2999    0.0000 C   0  0  0  0  0  0  0  0  0  0  0  0
    5.0460   -0.5499    0.0000 C   0  0  0  0  0  0  0  0  0  0  0  0
    6.3449   -1.2999    0.0000 S   0  0  0  0  0  0  0  0  0  0  0  0
    7.0949   -0.0008    0.0000 O   0  0  0  0  0  0  0  0  0  0  0  0
    5.5949   -2.5989    0.0000 O   0  0  0  0  0  0  0  0  0  0  0  0
    7.6439   -2.0499    0.0000 N   0  0  0  0  0  0  0  0  0  0  0  0
  1  2  1  0  0  0  0
  3  2  2  0  0  0  0
  2 13  1  0  0  0  0
  4  3  1  0  0  0  0
  5  4  1  0  0  0  0
  4 11  2  0  0  0  0
  6  5  1  0  0  0  0
  7  6  1  0  0  0  0
  8  7  1  0  0  0  0
  8  9  2  0  0  0  0
  8 10  2  0  0  0  0
 11  8  1  0  0  0  0
 12 11  1  0  0  0  0
 13 12  2  0  0  0  0
 13 14  1  0  0  0  0
 14 15  2  0  0  0  0
 14 16  2  0  0  0  0
 14 17  1  0  0  0  0
M  END
> <Inchi_key>
FNQQBFNIYODEMB-UHFFFAOYSA-N

> <Source>
Mulliner

> <ID>
HT1373

> <H_MFHB>
1

> <CAS>


> <Cholestasis>


> <Name>
meticrane

> <Class>
1

$$$$