
  -INDIGO-08031709442D

 42 45  0  0  0  0  0  0  0  0999 V2000
   -0.2215   -0.8267    0.0000 O   0  0  0  0  0  0  0  0  0  0  0  0
    1.0775   -1.5767    0.0000 C   0  0  0  0  0  0  0  0  0  0  0  0
    1.0775   -3.0767    0.0000 C   0  0  0  0  0  0  0  0  0  0  0  0
   -0.2215   -3.8267    0.0000 C   0  0  0  0  0  0  0  0  0  0  0  0
   -0.2215   -5.3267    0.0000 O   0  0  0  0  0  0  0  0  0  0  0  0
   -1.5206   -3.0767    0.0000 N   0  0  0  0  0  0  0  0  0  0  0  0
    2.3766   -3.8267    0.0000 C   0  0  0  0  0  0  0  0  0  0  0  0
    2.3766   -5.3267    0.0000 O   0  0  0  0  0  0  0  0  0  0  0  0
    3.6757   -3.0767    0.0000 C   0  0  0  0  0  0  0  0  0  0  0  0
    3.6757   -4.5767    0.0000 O   0  0  0  0  0  0  0  0  0  0  0  0
    3.6757   -1.5767    0.0000 C   0  0  0  0  0  0  0  0  0  0  0  0
    4.9747   -0.8267    0.0000 C   0  0  0  0  0  0  0  0  0  0  0  0
    6.2738   -1.5767    0.0000 C   0  0  0  0  0  0  0  0  0  0  0  0
    6.2738   -3.0767    0.0000 C   0  0  0  0  0  0  0  0  0  0  0  0
    4.9747   -3.8267    0.0000 C   0  0  0  0  0  0  0  0  0  0  0  0
    4.9747   -5.3267    0.0000 O   0  0  0  0  0  0  0  0  0  0  0  0
    7.5728   -3.8267    0.0000 C   0  0  0  0  0  0  0  0  0  0  0  0
    7.5728   -5.3267    0.0000 O   0  0  0  0  0  0  0  0  0  0  0  0
    8.8716   -3.0767    0.0000 C   0  0  0  0  0  0  0  0  0  0  0  0
    8.8716   -1.5767    0.0000 C   0  0  0  0  0  0  0  0  0  0  0  0
    7.5728   -0.8267    0.0000 C   0  0  0  0  0  0  0  0  0  0  0  0
   10.1707   -0.8267    0.0000 C   0  0  0  0  0  0  0  0  0  0  0  0
   10.1707    0.6733    0.0000 N   0  0  0  0  0  0  0  0  0  0  0  0
    8.8716    1.4233    0.0000 C   0  0  0  0  0  0  0  0  0  0  0  0
   11.4697    1.4233    0.0000 C   0  0  0  0  0  0  0  0  0  0  0  0
   11.4697   -1.5767    0.0000 C   0  0  0  0  0  0  0  0  0  0  0  0
   11.4697   -3.0767    0.0000 C   0  0  0  0  0  0  0  0  0  0  0  0
   12.7688   -3.8267    0.0000 N   0  0  0  0  0  0  0  0  0  0  0  0
   14.0678   -3.0767    0.0000 C   0  0  0  0  0  0  0  0  0  0  0  0
   14.0678   -1.5767    0.0000 O   0  0  0  0  0  0  0  0  0  0  0  0
   15.3669   -3.8267    0.0000 C   0  0  0  0  0  0  0  0  0  0  0  0
   16.6660   -3.0767    0.0000 N   0  0  0  0  0  0  0  0  0  0  0  0
   17.9650   -3.8267    0.0000 C   0  0  0  0  0  0  0  0  0  0  0  0
   17.2150   -5.1258    0.0000 C   0  0  0  0  0  0  0  0  0  0  0  0
   19.2641   -4.5767    0.0000 C   0  0  0  0  0  0  0  0  0  0  0  0
   18.7151   -2.5277    0.0000 C   0  0  0  0  0  0  0  0  0  0  0  0
   10.1707   -3.8267    0.0000 C   0  0  0  0  0  0  0  0  0  0  0  0
   10.1707   -5.3267    0.0000 O   0  0  0  0  0  0  0  0  0  0  0  0
    2.3766   -0.8267    0.0000 C   0  0  0  0  0  0  0  0  0  0  0  0
    2.3766    0.6733    0.0000 N   0  0  0  0  0  0  0  0  0  0  0  0
    3.6757    1.4233    0.0000 C   0  0  0  0  0  0  0  0  0  0  0  0
    1.0775    1.4233    0.0000 C   0  0  0  0  0  0  0  0  0  0  0  0
  1  2  1  0  0  0  0
  3  2  2  0  0  0  0
  2 39  1  0  0  0  0
  3  4  1  0  0  0  0
  7  3  1  0  0  0  0
  4  5  2  0  0  0  0
  4  6  1  0  0  0  0
  7  8  2  0  0  0  0
  9  7  1  0  0  0  0
  9 10  1  0  0  0  0
  9 11  1  0  0  0  0
 15  9  1  0  0  0  0
 11 12  1  0  0  0  0
 39 11  1  0  0  0  0
 12 13  1  0  0  0  0
 14 13  1  0  0  0  0
 13 21  1  0  0  0  0
 14 15  2  0  0  0  0
 17 14  1  0  0  0  0
 15 16  1  0  0  0  0
 17 18  2  0  0  0  0
 19 17  1  0  0  0  0
 19 20  2  0  0  0  0
 37 19  1  0  0  0  0
 21 20  1  0  0  0  0
 20 22  1  0  0  0  0
 22 23  1  0  0  0  0
 22 26  2  0  0  0  0
 23 24  1  0  0  0  0
 23 25  1  0  0  0  0
 26 27  1  0  0  0  0
 27 28  1  0  0  0  0
 27 37  2  0  0  0  0
 28 29  1  0  0  0  0
 29 30  2  0  0  0  0
 29 31  1  0  0  0  0
 31 32  1  0  0  0  0
 32 33  1  0  0  0  0
 33 34  1  0  0  0  0
 33 35  1  0  0  0  0
 33 36  1  0  0  0  0
 37 38  1  0  0  0  0
 39 40  1  0  0  0  0
 40 41  1  0  0  0  0
 40 42  1  0  0  0  0
M  END
> <Inchi_key>
FPZLLRFZJZRHSY-UHFFFAOYSA-N, SOVUOXKZCCAWOJ-UHFFFAOYSA-N

> <Source>
Kotsampasakou, Mulliner

> <ID>
HT2060;EK0528

> <H_MFHB>
1

> <CAS>


> <Cholestasis>
1

> <Name>
tigecycline

> <Class>
1

$$$$