

  -INDIGO-08031710012D

 24 26  0  0  0  0  0  0  0  0999 V2000
   -0.1793   -4.0300    0.0000 N   0  0  0  0  0  0  0  0  0  0  0  0
    1.0426   -3.1600    0.0000 C   0  0  0  0  0  0  0  0  0  0  0  0
    0.9000   -1.6668    0.0000 N   0  0  0  0  0  0  0  0  0  0  0  0
    2.1219   -0.7968    0.0000 C   0  0  0  0  0  0  0  0  0  0  0  0
    1.9796    0.6965    0.0000 F   0  0  0  0  0  0  0  0  0  0  0  0
    3.4864   -1.4199    0.0000 N   0  0  0  0  0  0  0  0  0  0  0  0
    3.6289   -2.9132    0.0000 C   0  0  0  0  0  0  0  0  0  0  0  0
    2.4070   -3.7832    0.0000 C   0  0  0  0  0  0  0  0  0  0  0  0
    2.8569   -5.2141    0.0000 N   0  0  0  0  0  0  0  0  0  0  0  0
    4.3568   -5.2284    0.0000 C   0  0  0  0  0  0  0  0  0  0  0  0
    4.8341   -3.8064    0.0000 N   0  0  0  0  0  0  0  0  0  0  0  0
    6.2649   -3.3565    0.0000 C   0  0  0  0  0  0  0  0  0  0  0  0
    6.7421   -1.9345    0.0000 O   0  0  0  0  0  0  0  0  0  0  0  0
    8.2420   -1.9488    0.0000 C   0  0  0  0  0  0  0  0  0  0  0  0
    9.1353   -0.7437    0.0000 C   0  0  0  0  0  0  0  0  0  0  0  0
   10.6256   -0.9148    0.0000 O   0  0  0  0  0  0  0  0  0  0  0  0
   11.5186    0.2903    0.0000 P   0  0  0  0  0  0  0  0  0  0  0  0
   12.7238   -0.6030    0.0000 O   0  0  0  0  0  0  0  0  0  0  0  0
   10.3137    1.1835    0.0000 O   0  0  0  0  0  0  0  0  0  0  0  0
   12.4119    1.4953    0.0000 O   0  0  0  0  0  0  0  0  0  0  0  0
    8.6919   -3.3797    0.0000 C   0  0  0  0  0  0  0  0  0  0  0  0
   10.1140   -3.8569    0.0000 O   0  0  0  0  0  0  0  0  0  0  0  0
    7.4700   -4.2498    0.0000 C   0  0  0  0  0  0  0  0  0  0  0  0
    7.4556   -5.7497    0.0000 O   0  0  0  0  0  0  0  0  0  0  0  0
  1  2  1  0  0  0  0
  3  2  2  0  0  0  0
  2  8  1  0  0  0  0
  4  3  1  0  0  0  0
  4  5  1  0  0  0  0
  6  4  2  0  0  0  0
  7  6  1  0  0  0  0
  7  8  2  0  0  0  0
 11  7  1  0  0  0  0
  8  9  1  0  0  0  0
  9 10  2  0  0  0  0
 10 11  1  0  0  0  0
 11 12  1  0  0  0  0
 13 12  1  0  0  0  0
 12 23  1  0  0  0  0
 14 13  1  0  0  0  0
 14 15  1  0  0  0  0
 21 14  1  0  0  0  0
 15 16  1  0  0  0  0
 16 17  1  0  0  0  0
 17 18  2  0  0  0  0
 17 19  1  0  0  0  0
 17 20  1  0  0  0  0
 21 22  1  0  0  0  0
 23 21  1  0  0  0  0
 23 24  1  0  0  0  0
M  END
> <Inchi_key>
GIUYCYHIANZCFB-UHFFFAOYSA-N

> <Source>
Mulliner

> <ID>
HT0891

> <H_MFHB>
1

> <CAS>


> <Cholestasis>


> <Name>
fludarabine phosphate

> <Class>
1


$$$$