

  -INDIGO-08031710012D

 27 28  0  0  0  0  0  0  0  0999 V2000
   -0.0001    8.3892    0.0000 C   0  0  0  0  0  0  0  0  0  0  0  0
    1.5000    8.3892    0.0000 C   0  0  0  0  0  0  0  0  0  0  0  0
    2.2499    7.0901    0.0000 O   0  0  0  0  0  0  0  0  0  0  0  0
    3.7500    7.0901    0.0000 C   0  0  0  0  0  0  0  0  0  0  0  0
    4.5001    8.3892    0.0000 O   0  0  0  0  0  0  0  0  0  0  0  0
    4.5001    5.7911    0.0000 C   0  0  0  0  0  0  0  0  0  0  0  0
    3.7500    4.4920    0.0000 C   0  0  0  0  0  0  0  0  0  0  0  0
    2.2499    4.4920    0.0000 C   0  0  0  0  0  0  0  0  0  0  0  0
    1.5000    3.1929    0.0000 C   0  0  0  0  0  0  0  0  0  0  0  0
   -0.0001    3.1929    0.0000 C   0  0  0  0  0  0  0  0  0  0  0  0
   -0.7500    1.8940    0.0000 C   0  0  0  0  0  0  0  0  0  0  0  0
   -0.0001    0.5950    0.0000 C   0  0  0  0  0  0  0  0  0  0  0  0
    1.5000    0.5950    0.0000 C   0  0  0  0  0  0  0  0  0  0  0  0
    2.2499    1.8940    0.0000 C   0  0  0  0  0  0  0  0  0  0  0  0
    6.0000    5.7911    0.0000 N   0  0  0  0  0  0  0  0  0  0  0  0
    6.7501    4.4920    0.0000 C   0  0  0  0  0  0  0  0  0  0  0  0
    6.0000    3.1929    0.0000 C   0  0  0  0  0  0  0  0  0  0  0  0
    8.2499    4.4920    0.0000 C   0  0  0  0  0  0  0  0  0  0  0  0
    9.0001    5.7911    0.0000 O   0  0  0  0  0  0  0  0  0  0  0  0
    9.0001    3.1929    0.0000 N   0  0  0  0  0  0  0  0  0  0  0  0
    8.3899    1.8227    0.0000 C   0  0  0  0  0  0  0  0  0  0  0  0
    9.5046    0.8189    0.0000 C   0  0  0  0  0  0  0  0  0  0  0  0
   10.8037    1.5691    0.0000 C   0  0  0  0  0  0  0  0  0  0  0  0
   10.4918    3.0362    0.0000 C   0  0  0  0  0  0  0  0  0  0  0  0
   11.4955    4.1509    0.0000 C   0  0  0  0  0  0  0  0  0  0  0  0
   11.0320    5.5775    0.0000 O   0  0  0  0  0  0  0  0  0  0  0  0
   12.9627    3.8391    0.0000 O   0  0  0  0  0  0  0  0  0  0  0  0
  1  2  1  0  0  0  0
  2  3  1  0  0  0  0
  3  4  1  0  0  0  0
  4  5  2  0  0  0  0
  4  6  1  0  0  0  0
  6  7  1  0  0  0  0
  6 15  1  0  0  0  0
  7  8  1  0  0  0  0
  8  9  1  0  0  0  0
 10  9  2  0  0  0  0
  9 14  1  0  0  0  0
 11 10  1  0  0  0  0
 12 11  2  0  0  0  0
 13 12  1  0  0  0  0
 14 13  2  0  0  0  0
 15 16  1  0  0  0  0
 16 17  1  0  0  0  0
 16 18  1  0  0  0  0
 18 19  2  0  0  0  0
 18 20  1  0  0  0  0
 21 20  1  0  0  0  0
 20 24  1  0  0  0  0
 22 21  1  0  0  0  0
 23 22  1  0  0  0  0
 24 23  1  0  0  0  0
 24 25  1  0  0  0  0
 25 26  2  0  0  0  0
 25 27  1  0  0  0  0
M  END
> <Inchi_key>
GBXSMTUPTTWBMN-UHFFFAOYSA-N

> <Source>
Mulliner

> <ID>
HT0753

> <H_MFHB>
1

> <CAS>


> <Cholestasis>


> <Name>
enalapril maleate;enalapril

> <Class>
1


$$$$