

  -INDIGO-08031710012D

 23 24  0  0  0  0  0  0  0  0999 V2000
   -1.9755   -7.2919    0.0000 C   0  0  0  0  0  0  0  0  0  0  0  0
   -0.6807   -8.0490    0.0000 C   0  0  0  0  0  0  0  0  0  0  0  0
   -0.6890   -9.5491    0.0000 O   0  0  0  0  0  0  0  0  0  0  0  0
    0.6225   -7.3062    0.0000 O   0  0  0  0  0  0  0  0  0  0  0  0
    0.6308   -5.8063    0.0000 C   0  0  0  0  0  0  0  0  0  0  0  0
    1.9340   -5.0635    0.0000 C   0  0  0  0  0  0  0  0  0  0  0  0
    3.2288   -5.8207    0.0000 C   0  0  0  0  0  0  0  0  0  0  0  0
    4.5320   -5.0779    0.0000 C   0  0  0  0  0  0  0  0  0  0  0  0
    5.8269   -5.8352    0.0000 N   0  0  0  0  0  0  0  0  0  0  0  0
    5.9755   -7.3277    0.0000 C   0  0  0  0  0  0  0  0  0  0  0  0
    7.4409   -7.6476    0.0000 N   0  0  0  0  0  0  0  0  0  0  0  0
    8.1981   -6.3528    0.0000 C   0  0  0  0  0  0  0  0  0  0  0  0
    9.6670   -6.0491    0.0000 C   0  0  0  0  0  0  0  0  0  0  0  0
   10.1384   -4.6251    0.0000 N   0  0  0  0  0  0  0  0  0  0  0  0
    9.1410   -3.5048    0.0000 C   0  0  0  0  0  0  0  0  0  0  0  0
    9.6123   -2.0808    0.0000 N   0  0  0  0  0  0  0  0  0  0  0  0
    7.6720   -3.8086    0.0000 N   0  0  0  0  0  0  0  0  0  0  0  0
    7.2006   -5.2326    0.0000 C   0  0  0  0  0  0  0  0  0  0  0  0
    1.9423   -3.5636    0.0000 C   0  0  0  0  0  0  0  0  0  0  0  0
    0.6475   -2.8064    0.0000 O   0  0  0  0  0  0  0  0  0  0  0  0
    0.6558   -1.3064    0.0000 C   0  0  0  0  0  0  0  0  0  0  0  0
    1.9590   -0.5636    0.0000 O   0  0  0  0  0  0  0  0  0  0  0  0
   -0.6392   -0.5492    0.0000 C   0  0  0  0  0  0  0  0  0  0  0  0
  1  2  1  0  0  0  0
  2  3  2  0  0  0  0
  2  4  1  0  0  0  0
  4  5  1  0  0  0  0
  5  6  1  0  0  0  0
  6  7  1  0  0  0  0
  6 19  1  0  0  0  0
  7  8  1  0  0  0  0
  8  9  1  0  0  0  0
 10  9  1  0  0  0  0
  9 18  1  0  0  0  0
 11 10  2  0  0  0  0
 12 11  1  0  0  0  0
 13 12  1  0  0  0  0
 12 18  2  0  0  0  0
 14 13  2  0  0  0  0
 15 14  1  0  0  0  0
 15 16  1  0  0  0  0
 17 15  2  0  0  0  0
 18 17  1  0  0  0  0
 19 20  1  0  0  0  0
 20 21  1  0  0  0  0
 21 22  2  0  0  0  0
 21 23  1  0  0  0  0
M  END
> <Inchi_key>
GGXKWVWZWMLJEH-UHFFFAOYSA-N

> <Source>
Mulliner

> <ID>
HT0846

> <H_MFHB>
1

> <CAS>


> <Cholestasis>


> <Name>
famciclovir

> <Class>
1


$$$$