
  -INDIGO-08031710012D

 25 26  0  0  0  0  0  0  0  0999 V2000
   16.7590    9.6758    0.0000 C   0  0  0  0  0  0  0  0  0  0  0  0
   16.0089    8.3768    0.0000 C   0  0  0  0  0  0  0  0  0  0  0  0
   14.5089    8.3768    0.0000 C   0  0  0  0  0  0  0  0  0  0  0  0
   13.7591    7.0778    0.0000 C   0  0  0  0  0  0  0  0  0  0  0  0
   12.2591    7.0778    0.0000 C   0  0  0  0  0  0  0  0  0  0  0  0
   11.5090    5.7787    0.0000 O   0  0  0  0  0  0  0  0  0  0  0  0
   10.0090    5.7787    0.0000 C   0  0  0  0  0  0  0  0  0  0  0  0
    9.2589    4.4797    0.0000 O   0  0  0  0  0  0  0  0  0  0  0  0
    9.2589    7.0778    0.0000 N   0  0  0  0  0  0  0  0  0  0  0  0
    7.7589    7.0778    0.0000 C   0  0  0  0  0  0  0  0  0  0  0  0
    7.0091    5.7787    0.0000 N   0  0  0  0  0  0  0  0  0  0  0  0
    5.5091    5.7787    0.0000 C   0  0  0  0  0  0  0  0  0  0  0  0
    4.7590    4.4797    0.0000 O   0  0  0  0  0  0  0  0  0  0  0  0
    4.7590    7.0778    0.0000 N   0  0  0  0  0  0  0  0  0  0  0  0
    5.5091    8.3768    0.0000 C   0  0  0  0  0  0  0  0  0  0  0  0
    7.0091    8.3768    0.0000 C   0  0  0  0  0  0  0  0  0  0  0  0
    7.7589    9.6758    0.0000 F   0  0  0  0  0  0  0  0  0  0  0  0
    3.2590    7.0778    0.0000 C   0  0  0  0  0  0  0  0  0  0  0  0
    2.3775    5.8642    0.0000 O   0  0  0  0  0  0  0  0  0  0  0  0
    0.9508    6.3278    0.0000 C   0  0  0  0  0  0  0  0  0  0  0  0
   -0.2627    5.4461    0.0000 C   0  0  0  0  0  0  0  0  0  0  0  0
    0.9508    7.8278    0.0000 C   0  0  0  0  0  0  0  0  0  0  0  0
   -0.2627    8.7094    0.0000 O   0  0  0  0  0  0  0  0  0  0  0  0
    2.3775    8.2913    0.0000 C   0  0  0  0  0  0  0  0  0  0  0  0
    2.8409    9.7179    0.0000 O   0  0  0  0  0  0  0  0  0  0  0  0
  1  2  1  0  0  0  0
  2  3  1  0  0  0  0
  3  4  1  0  0  0  0
  4  5  1  0  0  0  0
  5  6  1  0  0  0  0
  6  7  1  0  0  0  0
  7  8  2  0  0  0  0
  7  9  1  0  0  0  0
  9 10  1  0  0  0  0
 11 10  2  0  0  0  0
 10 16  1  0  0  0  0
 12 11  1  0  0  0  0
 12 13  2  0  0  0  0
 14 12  1  0  0  0  0
 15 14  1  0  0  0  0
 14 18  1  0  0  0  0
 16 15  2  0  0  0  0
 16 17  1  0  0  0  0
 19 18  1  0  0  0  0
 18 24  1  0  0  0  0
 20 19  1  0  0  0  0
 20 21  1  0  0  0  0
 22 20  1  0  0  0  0
 22 23  1  0  0  0  0
 24 22  1  0  0  0  0
 24 25  1  0  0  0  0
M  END
> <Inchi_key>
GAGWJHPBXLXJQN-UHFFFAOYSA-N

> <Source>
Mulliner

> <ID>
HT0363

> <H_MFHB>
1

> <CAS>
154361-50-9

> <Cholestasis>


> <Name>
capecitabine

> <Class>
1

$$$$