
  -INDIGO-08031710012D

 15 16  0  0  0  0  0  0  0  0999 V2000
   10.9239   -0.0000    0.0000 N   0  0  0  0  0  0  0  0  0  0  0  0
    9.4239   -0.0000    0.0000 C   0  0  0  0  0  0  0  0  0  0  0  0
    8.5422    1.2135    0.0000 N   0  0  0  0  0  0  0  0  0  0  0  0
    7.1155    0.7500    0.0000 C   0  0  0  0  0  0  0  0  0  0  0  0
    5.8166    1.5000    0.0000 C   0  0  0  0  0  0  0  0  0  0  0  0
    4.5176    0.7500    0.0000 C   0  0  0  0  0  0  0  0  0  0  0  0
    4.5176   -0.7500    0.0000 C   0  0  0  0  0  0  0  0  0  0  0  0
    3.2185   -1.5000    0.0000 O   0  0  0  0  0  0  0  0  0  0  0  0
    1.9195   -0.7500    0.0000 C   0  0  0  0  0  0  0  0  0  0  0  0
    1.1696   -2.0490    0.0000 F   0  0  0  0  0  0  0  0  0  0  0  0
    2.6695    0.5490    0.0000 F   0  0  0  0  0  0  0  0  0  0  0  0
    0.6204   -0.0000    0.0000 F   0  0  0  0  0  0  0  0  0  0  0  0
    5.8166   -1.5000    0.0000 C   0  0  0  0  0  0  0  0  0  0  0  0
    7.1155   -0.7500    0.0000 C   0  0  0  0  0  0  0  0  0  0  0  0
    8.5422   -1.2135    0.0000 S   0  0  0  0  0  0  0  0  0  0  0  0
  1  2  1  0  0  0  0
  3  2  2  0  0  0  0
  2 15  1  0  0  0  0
  4  3  1  0  0  0  0
  5  4  2  0  0  0  0
  4 14  1  0  0  0  0
  6  5  1  0  0  0  0
  7  6  2  0  0  0  0
  7  8  1  0  0  0  0
 13  7  1  0  0  0  0
  8  9  1  0  0  0  0
  9 10  1  0  0  0  0
  9 11  1  0  0  0  0
  9 12  1  0  0  0  0
 14 13  2  0  0  0  0
 15 14  1  0  0  0  0
M  END
> <Inchi_key>
FTALBRSUTCGOEG-UHFFFAOYSA-N

> <Source>
Mulliner , Kotsampasakou

> <ID>
EK0469;HT1825

> <H_MFHB>
1

> <CAS>


> <Cholestasis>
1

> <Name>
riluzole

> <Class>
1

$$$$