
  -INDIGO-08031710012D

 30 32  0  0  0  0  0  0  0  0999 V2000
    3.9969   -4.9589    0.0000 C   0  0  0  0  0  0  0  0  0  0  0  0
    4.3156   -3.4932    0.0000 C   0  0  0  0  0  0  0  0  0  0  0  0
    5.7443   -3.0363    0.0000 C   0  0  0  0  0  0  0  0  0  0  0  0
    3.2055   -2.4843    0.0000 N   0  0  0  0  0  0  0  0  0  0  0  0
    3.3690   -0.9933    0.0000 C   0  0  0  0  0  0  0  0  0  0  0  0
    4.6716   -0.2493    0.0000 C   0  0  0  0  0  0  0  0  0  0  0  0
    5.9671   -1.0053    0.0000 C   0  0  0  0  0  0  0  0  0  0  0  0
    7.2695   -0.2613    0.0000 C   0  0  0  0  0  0  0  0  0  0  0  0
    7.2764    1.2387    0.0000 O   0  0  0  0  0  0  0  0  0  0  0  0
    8.5651   -1.0171    0.0000 C   0  0  0  0  0  0  0  0  0  0  0  0
    9.8675   -0.2731    0.0000 C   0  0  0  0  0  0  0  0  0  0  0  0
    9.8744    1.2269    0.0000 O   0  0  0  0  0  0  0  0  0  0  0  0
   11.1633   -1.0290    0.0000 C   0  0  0  0  0  0  0  0  0  0  0  0
   12.4657   -0.2849    0.0000 C   0  0  0  0  0  0  0  0  0  0  0  0
   12.4725    1.2150    0.0000 O   0  0  0  0  0  0  0  0  0  0  0  0
   13.7612   -1.0408    0.0000 O   0  0  0  0  0  0  0  0  0  0  0  0
    2.0014   -0.3769    0.0000 C   0  0  0  0  0  0  0  0  0  0  0  0
    1.6963    1.0916    0.0000 C   0  0  0  0  0  0  0  0  0  0  0  0
    2.8155    2.0903    0.0000 C   0  0  0  0  0  0  0  0  0  0  0  0
    2.5106    3.5588    0.0000 C   0  0  0  0  0  0  0  0  0  0  0  0
    1.0860    4.0289    0.0000 C   0  0  0  0  0  0  0  0  0  0  0  0
    0.7809    5.4976    0.0000 F   0  0  0  0  0  0  0  0  0  0  0  0
   -0.0332    3.0302    0.0000 C   0  0  0  0  0  0  0  0  0  0  0  0
    0.2719    1.5617    0.0000 C   0  0  0  0  0  0  0  0  0  0  0  0
    0.9927   -1.4871    0.0000 C   0  0  0  0  0  0  0  0  0  0  0  0
   -0.5073   -1.4803    0.0000 C   0  0  0  0  0  0  0  0  0  0  0  0
   -1.2632   -2.7759    0.0000 C   0  0  0  0  0  0  0  0  0  0  0  0
   -0.5193   -4.0783    0.0000 C   0  0  0  0  0  0  0  0  0  0  0  0
    0.9808   -4.0852    0.0000 C   0  0  0  0  0  0  0  0  0  0  0  0
    1.7369   -2.7896    0.0000 C   0  0  0  0  0  0  0  0  0  0  0  0
  1  2  1  0  0  0  0
  2  3  1  0  0  0  0
  2  4  1  0  0  0  0
  5  4  1  0  0  0  0
  4 30  1  0  0  0  0
  5  6  1  0  0  0  0
 17  5  2  0  0  0  0
  6  7  2  0  0  0  0
  7  8  1  0  0  0  0
  8  9  1  0  0  0  0
  8 10  1  0  0  0  0
 10 11  1  0  0  0  0
 11 12  1  0  0  0  0
 11 13  1  0  0  0  0
 13 14  1  0  0  0  0
 14 15  2  0  0  0  0
 14 16  1  0  0  0  0
 17 18  1  0  0  0  0
 25 17  1  0  0  0  0
 19 18  2  0  0  0  0
 18 24  1  0  0  0  0
 20 19  1  0  0  0  0
 21 20  2  0  0  0  0
 21 22  1  0  0  0  0
 23 21  1  0  0  0  0
 24 23  2  0  0  0  0
 26 25  1  0  0  0  0
 25 30  2  0  0  0  0
 27 26  2  0  0  0  0
 28 27  1  0  0  0  0
 29 28  2  0  0  0  0
 30 29  1  0  0  0  0
M  END
> <Inchi_key>
FJLGEFLZQAZZCD-VAWYXSNFSA-N

> <Source>
Mulliner

> <ID>
HT0926

> <H_MFHB>
1

> <CAS>
93957-55-2

> <Cholestasis>


> <Name>
fluvastatin sodium;fluvastatin

> <Class>
1

$$$$