

  -INDIGO-08031710012D

 31 34  0  0  0  0  0  0  0  0999 V2000
   -0.0434   -4.5970    0.0000 C   0  0  0  0  0  0  0  0  0  0  0  0
    1.2577   -3.8506    0.0000 C   0  0  0  0  0  0  0  0  0  0  0  0
    2.5548   -4.6041    0.0000 C   0  0  0  0  0  0  0  0  0  0  0  0
    2.5506   -6.1041    0.0000 C   0  0  0  0  0  0  0  0  0  0  0  0
    3.8559   -3.8577    0.0000 C   0  0  0  0  0  0  0  0  0  0  0  0
    5.1526   -4.6112    0.0000 O   0  0  0  0  0  0  0  0  0  0  0  0
    6.4538   -3.8648    0.0000 C   0  0  0  0  0  0  0  0  0  0  0  0
    7.2002   -5.1660    0.0000 C   0  0  0  0  0  0  0  0  0  0  0  0
    7.9538   -3.8689    0.0000 C   0  0  0  0  0  0  0  0  0  0  0  0
    8.7073   -2.5719    0.0000 O   0  0  0  0  0  0  0  0  0  0  0  0
   10.2073   -2.5760    0.0000 C   0  0  0  0  0  0  0  0  0  0  0  0
   10.9608   -1.2790    0.0000 C   0  0  0  0  0  0  0  0  0  0  0  0
   12.4608   -1.2831    0.0000 C   0  0  0  0  0  0  0  0  0  0  0  0
   13.2075   -2.5842    0.0000 C   0  0  0  0  0  0  0  0  0  0  0  0
   14.7072   -2.5883    0.0000 C   0  0  0  0  0  0  0  0  0  0  0  0
   15.4610   -1.2915    0.0000 C   0  0  0  0  0  0  0  0  0  0  0  0
   14.8546    0.0806    0.0000 S   0  0  0  0  0  0  0  0  0  0  0  0
   15.9721    1.0814    0.0000 C   0  0  0  0  0  0  0  0  0  0  0  0
   15.8194    2.5735    0.0000 O   0  0  0  0  0  0  0  0  0  0  0  0
   17.2691    0.3277    0.0000 N   0  0  0  0  0  0  0  0  0  0  0  0
   16.9530   -1.1387    0.0000 C   0  0  0  0  0  0  0  0  0  0  0  0
   17.9537   -2.2561    0.0000 O   0  0  0  0  0  0  0  0  0  0  0  0
   12.4539   -3.8812    0.0000 C   0  0  0  0  0  0  0  0  0  0  0  0
   10.9537   -3.8771    0.0000 C   0  0  0  0  0  0  0  0  0  0  0  0
    6.4579   -2.3648    0.0000 C   0  0  0  0  0  0  0  0  0  0  0  0
    5.1609   -1.6112    0.0000 C   0  0  0  0  0  0  0  0  0  0  0  0
    3.8600   -2.3576    0.0000 C   0  0  0  0  0  0  0  0  0  0  0  0
    2.5630   -1.6041    0.0000 C   0  0  0  0  0  0  0  0  0  0  0  0
    2.5671   -0.1041    0.0000 C   0  0  0  0  0  0  0  0  0  0  0  0
    1.2619   -2.3506    0.0000 C   0  0  0  0  0  0  0  0  0  0  0  0
   -0.0352   -1.5969    0.0000 O   0  0  0  0  0  0  0  0  0  0  0  0
  1  2  1  0  0  0  0
  3  2  2  0  0  0  0
  2 30  1  0  0  0  0
  3  4  1  0  0  0  0
  5  3  1  0  0  0  0
  6  5  1  0  0  0  0
  5 27  2  0  0  0  0
  7  6  1  0  0  0  0
  7  8  1  0  0  0  0
  7  9  1  0  0  0  0
 25  7  1  0  0  0  0
  9 10  1  0  0  0  0
 10 11  1  0  0  0  0
 12 11  2  0  0  0  0
 11 24  1  0  0  0  0
 13 12  1  0  0  0  0
 14 13  2  0  0  0  0
 14 15  1  0  0  0  0
 23 14  1  0  0  0  0
 15 16  1  0  0  0  0
 17 16  1  0  0  0  0
 16 21  1  0  0  0  0
 18 17  1  0  0  0  0
 18 19  2  0  0  0  0
 20 18  1  0  0  0  0
 21 20  1  0  0  0  0
 21 22  2  0  0  0  0
 24 23  2  0  0  0  0
 26 25  1  0  0  0  0
 27 26  1  0  0  0  0
 28 27  1  0  0  0  0
 28 29  1  0  0  0  0
 30 28  2  0  0  0  0
 30 31  1  0  0  0  0
M  END
> <Inchi_key>
GXPHKUHSUJUWKP-UHFFFAOYSA-N

> <Source>
Mulliner , Kotsampasakou

> <ID>
EK0555;HT2136

> <H_MFHB>
1

> <CAS>
97322-87-7

> <Cholestasis>
1

> <Name>
troglitazone

> <Class>
1


$$$$