

  -INDIGO-08031710012D

 22 24  0  0  0  0  0  0  0  0999 V2000
   12.8951   -3.4551    0.0000 C   0  0  0  0  0  0  0  0  0  0  0  0
   11.5961   -2.7052    0.0000 N   0  0  0  0  0  0  0  0  0  0  0  0
   11.5961   -1.2052    0.0000 C   0  0  0  0  0  0  0  0  0  0  0  0
   10.2970   -3.4551    0.0000 C   0  0  0  0  0  0  0  0  0  0  0  0
    8.9981   -2.7052    0.0000 C   0  0  0  0  0  0  0  0  0  0  0  0
    7.6990   -3.4551    0.0000 C   0  0  0  0  0  0  0  0  0  0  0  0
    6.4000   -2.7052    0.0000 C   0  0  0  0  0  0  0  0  0  0  0  0
    6.4000   -1.2052    0.0000 C   0  0  0  0  0  0  0  0  0  0  0  0
    7.6990   -0.4551    0.0000 C   0  0  0  0  0  0  0  0  0  0  0  0
    7.6990    1.0449    0.0000 C   0  0  0  0  0  0  0  0  0  0  0  0
    6.4000    1.7948    0.0000 C   0  0  0  0  0  0  0  0  0  0  0  0
    5.1009    1.0449    0.0000 C   0  0  0  0  0  0  0  0  0  0  0  0
    5.1009   -0.4551    0.0000 C   0  0  0  0  0  0  0  0  0  0  0  0
    3.8019   -1.2052    0.0000 C   0  0  0  0  0  0  0  0  0  0  0  0
    3.0519    0.0938    0.0000 C   0  0  0  0  0  0  0  0  0  0  0  0
    2.3019   -1.2052    0.0000 C   0  0  0  0  0  0  0  0  0  0  0  0
    3.8019   -2.7052    0.0000 C   0  0  0  0  0  0  0  0  0  0  0  0
    2.5028   -3.4551    0.0000 C   0  0  0  0  0  0  0  0  0  0  0  0
    2.5028   -4.9551    0.0000 C   0  0  0  0  0  0  0  0  0  0  0  0
    3.8019   -5.7052    0.0000 C   0  0  0  0  0  0  0  0  0  0  0  0
    5.1009   -4.9551    0.0000 C   0  0  0  0  0  0  0  0  0  0  0  0
    5.1009   -3.4551    0.0000 C   0  0  0  0  0  0  0  0  0  0  0  0
  1  2  1  0  0  0  0
  2  3  1  0  0  0  0
  2  4  1  0  0  0  0
  4  5  1  0  0  0  0
  5  6  1  0  0  0  0
  6  7  2  0  0  0  0
  8  7  1  0  0  0  0
  7 22  1  0  0  0  0
  9  8  1  0  0  0  0
  8 13  2  0  0  0  0
 10  9  2  0  0  0  0
 11 10  1  0  0  0  0
 12 11  2  0  0  0  0
 13 12  1  0  0  0  0
 14 13  1  0  0  0  0
 14 15  1  0  0  0  0
 14 16  1  0  0  0  0
 17 14  1  0  0  0  0
 18 17  1  0  0  0  0
 17 22  2  0  0  0  0
 19 18  2  0  0  0  0
 20 19  1  0  0  0  0
 21 20  2  0  0  0  0
 22 21  1  0  0  0  0
M  END
> <Inchi_key>
GWWLWDURRGNSRS-UHFFFAOYSA-N

> <Source>
Mulliner

> <ID>
HT1294

> <H_MFHB>
1

> <CAS>


> <Cholestasis>


> <Name>
melitracen

> <Class>
1


$$$$