
  -INDIGO-08031710012D

 22 24  0  0  0  0  0  0  0  0999 V2000
    0.6044   -3.6427    0.0000 N   0  0  0  0  0  0  0  0  0  0  0  0
    1.9033   -2.8927    0.0000 C   0  0  0  0  0  0  0  0  0  0  0  0
    3.2025   -2.1427    0.0000 C   0  0  0  0  0  0  0  0  0  0  0  0
    3.2025   -0.6427    0.0000 C   0  0  0  0  0  0  0  0  0  0  0  0
    4.5016    0.1073    0.0000 C   0  0  0  0  0  0  0  0  0  0  0  0
    5.8005   -0.6427    0.0000 C   0  0  0  0  0  0  0  0  0  0  0  0
    5.8005   -2.1427    0.0000 C   0  0  0  0  0  0  0  0  0  0  0  0
    4.5016   -2.8927    0.0000 C   0  0  0  0  0  0  0  0  0  0  0  0
    7.0995    0.1073    0.0000 C   0  0  0  0  0  0  0  0  0  0  0  0
    8.3986   -0.6427    0.0000 C   0  0  0  0  0  0  0  0  0  0  0  0
    8.3986   -2.1427    0.0000 C   0  0  0  0  0  0  0  0  0  0  0  0
    9.6975   -2.8927    0.0000 C   0  0  0  0  0  0  0  0  0  0  0  0
   10.9966   -2.1427    0.0000 C   0  0  0  0  0  0  0  0  0  0  0  0
   10.9966   -0.6427    0.0000 C   0  0  0  0  0  0  0  0  0  0  0  0
    9.6975    0.1073    0.0000 C   0  0  0  0  0  0  0  0  0  0  0  0
   12.2958   -2.8927    0.0000 C   0  0  0  0  0  0  0  0  0  0  0  0
   13.5947   -3.6427    0.0000 N   0  0  0  0  0  0  0  0  0  0  0  0
    7.0995    1.6073    0.0000 N   0  0  0  0  0  0  0  0  0  0  0  0
    5.8860    2.4891    0.0000 C   0  0  0  0  0  0  0  0  0  0  0  0
    6.3496    3.9156    0.0000 N   0  0  0  0  0  0  0  0  0  0  0  0
    7.8495    3.9156    0.0000 C   0  0  0  0  0  0  0  0  0  0  0  0
    8.3131    2.4891    0.0000 N   0  0  0  0  0  0  0  0  0  0  0  0
  1  2  3  0  0  0  0
  2  3  1  0  0  0  0
  4  3  2  0  0  0  0
  3  8  1  0  0  0  0
  5  4  1  0  0  0  0
  6  5  2  0  0  0  0
  7  6  1  0  0  0  0
  6  9  1  0  0  0  0
  8  7  2  0  0  0  0
  9 10  1  0  0  0  0
  9 18  1  0  0  0  0
 11 10  2  0  0  0  0
 10 15  1  0  0  0  0
 12 11  1  0  0  0  0
 13 12  2  0  0  0  0
 14 13  1  0  0  0  0
 13 16  1  0  0  0  0
 15 14  2  0  0  0  0
 16 17  3  0  0  0  0
 19 18  1  0  0  0  0
 18 22  1  0  0  0  0
 20 19  2  0  0  0  0
 21 20  1  0  0  0  0
 22 21  2  0  0  0  0
M  END
> <Inchi_key>
HPJKCIUCZWXJDR-UHFFFAOYSA-N

> <Source>
Mulliner

> <ID>
HT1187

> <H_MFHB>
1

> <CAS>


> <Cholestasis>


> <Name>
letrozole

> <Class>
1

$$$$