
  -INDIGO-08031710012D

 30 32  0  0  0  0  0  0  0  0999 V2000
   -0.0001    0.0000    0.0000 C   0  0  0  0  0  0  0  0  0  0  0  0
    1.5000    0.0000    0.0000 C   0  0  0  0  0  0  0  0  0  0  0  0
    2.2499    1.2990    0.0000 O   0  0  0  0  0  0  0  0  0  0  0  0
    3.7500    1.2990    0.0000 C   0  0  0  0  0  0  0  0  0  0  0  0
    4.5001    0.0000    0.0000 O   0  0  0  0  0  0  0  0  0  0  0  0
    4.5001    2.5980    0.0000 C   0  0  0  0  0  0  0  0  0  0  0  0
    3.7500    3.8971    0.0000 C   0  0  0  0  0  0  0  0  0  0  0  0
    2.2499    3.8971    0.0000 C   0  0  0  0  0  0  0  0  0  0  0  0
    1.5000    5.1962    0.0000 C   0  0  0  0  0  0  0  0  0  0  0  0
   -0.0001    5.1962    0.0000 C   0  0  0  0  0  0  0  0  0  0  0  0
   -0.7500    6.4952    0.0000 C   0  0  0  0  0  0  0  0  0  0  0  0
   -0.0001    7.7941    0.0000 C   0  0  0  0  0  0  0  0  0  0  0  0
    1.5000    7.7941    0.0000 C   0  0  0  0  0  0  0  0  0  0  0  0
    2.2499    6.4952    0.0000 C   0  0  0  0  0  0  0  0  0  0  0  0
    6.0000    2.5980    0.0000 N   0  0  0  0  0  0  0  0  0  0  0  0
    6.7501    3.8971    0.0000 C   0  0  0  0  0  0  0  0  0  0  0  0
    6.0000    5.1962    0.0000 C   0  0  0  0  0  0  0  0  0  0  0  0
    8.2499    3.8971    0.0000 C   0  0  0  0  0  0  0  0  0  0  0  0
    9.0001    2.5980    0.0000 O   0  0  0  0  0  0  0  0  0  0  0  0
    9.0001    5.1962    0.0000 N   0  0  0  0  0  0  0  0  0  0  0  0
    8.3899    6.5665    0.0000 C   0  0  0  0  0  0  0  0  0  0  0  0
    7.0909    7.3165    0.0000 C   0  0  0  0  0  0  0  0  0  0  0  0
    7.4027    8.7838    0.0000 C   0  0  0  0  0  0  0  0  0  0  0  0
    8.8944    8.9405    0.0000 C   0  0  0  0  0  0  0  0  0  0  0  0
    9.5046    7.5703    0.0000 C   0  0  0  0  0  0  0  0  0  0  0  0
   10.8037    6.8202    0.0000 C   0  0  0  0  0  0  0  0  0  0  0  0
   10.4918    5.3528    0.0000 C   0  0  0  0  0  0  0  0  0  0  0  0
   11.4955    4.2383    0.0000 C   0  0  0  0  0  0  0  0  0  0  0  0
   11.0320    2.8115    0.0000 O   0  0  0  0  0  0  0  0  0  0  0  0
   12.9627    4.5501    0.0000 O   0  0  0  0  0  0  0  0  0  0  0  0
  1  2  1  0  0  0  0
  2  3  1  0  0  0  0
  3  4  1  0  0  0  0
  4  5  2  0  0  0  0
  4  6  1  0  0  0  0
  6  7  1  0  0  0  0
  6 15  1  0  0  0  0
  7  8  1  0  0  0  0
  8  9  1  0  0  0  0
 10  9  2  0  0  0  0
  9 14  1  0  0  0  0
 11 10  1  0  0  0  0
 12 11  2  0  0  0  0
 13 12  1  0  0  0  0
 14 13  2  0  0  0  0
 15 16  1  0  0  0  0
 16 17  1  0  0  0  0
 16 18  1  0  0  0  0
 18 19  2  0  0  0  0
 18 20  1  0  0  0  0
 21 20  1  0  0  0  0
 20 27  1  0  0  0  0
 22 21  1  0  0  0  0
 21 25  1  0  0  0  0
 23 22  1  0  0  0  0
 24 23  1  0  0  0  0
 25 24  1  0  0  0  0
 26 25  1  0  0  0  0
 27 26  1  0  0  0  0
 27 28  1  0  0  0  0
 28 29  2  0  0  0  0
 28 30  1  0  0  0  0
M  END
> <Inchi_key>
HDACQVRGBOVJII-UHFFFAOYSA-N

> <Source>
Mulliner

> <ID>
HT1798

> <H_MFHB>
1

> <CAS>


> <Cholestasis>


> <Name>
ramipril

> <Class>
1

$$$$