

  -INDIGO-08031710012D

 31 35  0  0  0  0  0  0  0  0999 V2000
    4.4284    4.4285    0.0000 O   0  0  0  0  0  0  0  0  0  0  0  0
    4.4284    2.9285    0.0000 C   0  0  0  0  0  0  0  0  0  0  0  0
    5.7275    2.1785    0.0000 C   0  0  0  0  0  0  0  0  0  0  0  0
    5.7275    0.6785    0.0000 C   0  0  0  0  0  0  0  0  0  0  0  0
    4.4284   -0.0715    0.0000 C   0  0  0  0  0  0  0  0  0  0  0  0
    4.4284   -1.5715    0.0000 C   0  0  0  0  0  0  0  0  0  0  0  0
    3.1295   -2.3215    0.0000 C   0  0  0  0  0  0  0  0  0  0  0  0
    1.8304   -1.5715    0.0000 C   0  0  0  0  0  0  0  0  0  0  0  0
    1.8304   -0.0715    0.0000 C   0  0  0  0  0  0  0  0  0  0  0  0
    3.1295    0.6785    0.0000 C   0  0  0  0  0  0  0  0  0  0  0  0
    3.1295    2.1785    0.0000 C   0  0  0  0  0  0  0  0  0  0  0  0
    3.1295   -3.8215    0.0000 C   0  0  0  0  0  0  0  0  0  0  0  0
    4.4284   -4.5715    0.0000 C   0  0  0  0  0  0  0  0  0  0  0  0
    4.4284   -6.0715    0.0000 C   0  0  0  0  0  0  0  0  0  0  0  0
    3.1295   -6.8215    0.0000 C   0  0  0  0  0  0  0  0  0  0  0  0
    1.8304   -6.0715    0.0000 C   0  0  0  0  0  0  0  0  0  0  0  0
    1.8304   -4.5715    0.0000 C   0  0  0  0  0  0  0  0  0  0  0  0
    5.7275   -2.3215    0.0000 C   0  0  0  0  0  0  0  0  0  0  0  0
    5.7275   -3.8215    0.0000 C   0  0  0  0  0  0  0  0  0  0  0  0
    7.0267   -4.5715    0.0000 C   0  0  0  0  0  0  0  0  0  0  0  0
    8.3256   -3.8215    0.0000 C   0  0  0  0  0  0  0  0  0  0  0  0
    9.6247   -4.5715    0.0000 O   0  0  0  0  0  0  0  0  0  0  0  0
   10.9236   -3.8215    0.0000 C   0  0  0  0  0  0  0  0  0  0  0  0
   12.2227   -4.5715    0.0000 C   0  0  0  0  0  0  0  0  0  0  0  0
   13.5218   -3.8215    0.0000 N   0  0  0  0  0  0  0  0  0  0  0  0
   14.8920   -4.4316    0.0000 C   0  0  0  0  0  0  0  0  0  0  0  0
   15.8958   -3.3170    0.0000 C   0  0  0  0  0  0  0  0  0  0  0  0
   15.1459   -2.0178    0.0000 C   0  0  0  0  0  0  0  0  0  0  0  0
   13.6785   -2.3297    0.0000 C   0  0  0  0  0  0  0  0  0  0  0  0
    8.3256   -2.3215    0.0000 C   0  0  0  0  0  0  0  0  0  0  0  0
    7.0267   -1.5715    0.0000 C   0  0  0  0  0  0  0  0  0  0  0  0
  1  2  1  0  0  0  0
  3  2  2  0  0  0  0
  2 11  1  0  0  0  0
  4  3  1  0  0  0  0
  5  4  2  0  0  0  0
  6  5  1  0  0  0  0
  5 10  1  0  0  0  0
  7  6  1  0  0  0  0
  6 18  1  0  0  0  0
  8  7  1  0  0  0  0
  7 12  1  0  0  0  0
  9  8  1  0  0  0  0
 10  9  1  0  0  0  0
 11 10  2  0  0  0  0
 13 12  2  0  0  0  0
 12 17  1  0  0  0  0
 14 13  1  0  0  0  0
 15 14  2  0  0  0  0
 16 15  1  0  0  0  0
 17 16  2  0  0  0  0
 19 18  2  0  0  0  0
 18 31  1  0  0  0  0
 20 19  1  0  0  0  0
 21 20  2  0  0  0  0
 21 22  1  0  0  0  0
 30 21  1  0  0  0  0
 22 23  1  0  0  0  0
 23 24  1  0  0  0  0
 24 25  1  0  0  0  0
 26 25  1  0  0  0  0
 25 29  1  0  0  0  0
 27 26  1  0  0  0  0
 28 27  1  0  0  0  0
 29 28  1  0  0  0  0
 31 30  2  0  0  0  0
M  END
> <Inchi_key>
GXESHMAMLJKROZ-UHFFFAOYSA-N

> <Source>
Mulliner

> <ID>
HT1173

> <H_MFHB>
1

> <CAS>


> <Cholestasis>


> <Name>
lasofoxifene

> <Class>
1


$$$$