
  -INDIGO-08031710012D

 33 36  0  0  0  0  0  0  0  0999 V2000
   19.9232   -7.0729    0.0000 C   0  0  0  0  0  0  0  0  0  0  0  0
   18.4232   -7.0669    0.0000 C   0  0  0  0  0  0  0  0  0  0  0  0
   17.6785   -5.7646    0.0000 C   0  0  0  0  0  0  0  0  0  0  0  0
   16.1785   -5.7585    0.0000 S   0  0  0  0  0  0  0  0  0  0  0  0
   16.1846   -4.2585    0.0000 O   0  0  0  0  0  0  0  0  0  0  0  0
   16.1724   -7.2585    0.0000 O   0  0  0  0  0  0  0  0  0  0  0  0
   14.6785   -5.7524    0.0000 N   0  0  0  0  0  0  0  0  0  0  0  0
   13.9339   -4.4503    0.0000 C   0  0  0  0  0  0  0  0  0  0  0  0
   14.6892   -3.1543    0.0000 C   0  0  0  0  0  0  0  0  0  0  0  0
   13.9446   -1.8522    0.0000 C   0  0  0  0  0  0  0  0  0  0  0  0
   12.4446   -1.8461    0.0000 C   0  0  0  0  0  0  0  0  0  0  0  0
   11.6999   -0.5440    0.0000 F   0  0  0  0  0  0  0  0  0  0  0  0
   11.6892   -3.1420    0.0000 C   0  0  0  0  0  0  0  0  0  0  0  0
   10.1892   -3.1359    0.0000 C   0  0  0  0  0  0  0  0  0  0  0  0
    9.4338   -4.4318    0.0000 O   0  0  0  0  0  0  0  0  0  0  0  0
    9.4445   -1.8338    0.0000 C   0  0  0  0  0  0  0  0  0  0  0  0
   10.0602   -0.4660    0.0000 C   0  0  0  0  0  0  0  0  0  0  0  0
    8.9497    0.5423    0.0000 N   0  0  0  0  0  0  0  0  0  0  0  0
    7.6475   -0.2024    0.0000 C   0  0  0  0  0  0  0  0  0  0  0  0
    6.2229    0.2670    0.0000 N   0  0  0  0  0  0  0  0  0  0  0  0
    5.1041   -0.7321    0.0000 C   0  0  0  0  0  0  0  0  0  0  0  0
    5.4101   -2.2006    0.0000 C   0  0  0  0  0  0  0  0  0  0  0  0
    6.8345   -2.6700    0.0000 C   0  0  0  0  0  0  0  0  0  0  0  0
    7.9535   -1.6708    0.0000 C   0  0  0  0  0  0  0  0  0  0  0  0
    4.2911   -3.1997    0.0000 C   0  0  0  0  0  0  0  0  0  0  0  0
    2.8664   -2.7303    0.0000 C   0  0  0  0  0  0  0  0  0  0  0  0
    1.7477   -3.7294    0.0000 C   0  0  0  0  0  0  0  0  0  0  0  0
    2.0534   -5.1979    0.0000 C   0  0  0  0  0  0  0  0  0  0  0  0
    0.9347   -6.1971    0.0000 Cl  0  0  0  0  0  0  0  0  0  0  0  0
    3.4781   -5.6673    0.0000 C   0  0  0  0  0  0  0  0  0  0  0  0
    4.5971   -4.6682    0.0000 C   0  0  0  0  0  0  0  0  0  0  0  0
   12.4338   -4.4441    0.0000 C   0  0  0  0  0  0  0  0  0  0  0  0
   11.6785   -5.7401    0.0000 F   0  0  0  0  0  0  0  0  0  0  0  0
  1  2  1  0  0  0  0
  2  3  1  0  0  0  0
  3  4  1  0  0  0  0
  4  5  2  0  0  0  0
  4  6  2  0  0  0  0
  4  7  1  0  0  0  0
  7  8  1  0  0  0  0
  9  8  2  0  0  0  0
  8 32  1  0  0  0  0
 10  9  1  0  0  0  0
 11 10  2  0  0  0  0
 11 12  1  0  0  0  0
 13 11  1  0  0  0  0
 13 14  1  0  0  0  0
 32 13  2  0  0  0  0
 14 15  2  0  0  0  0
 14 16  1  0  0  0  0
 17 16  2  0  0  0  0
 16 24  1  0  0  0  0
 18 17  1  0  0  0  0
 19 18  1  0  0  0  0
 20 19  1  0  0  0  0
 19 24  2  0  0  0  0
 21 20  2  0  0  0  0
 22 21  1  0  0  0  0
 23 22  2  0  0  0  0
 22 25  1  0  0  0  0
 24 23  1  0  0  0  0
 26 25  2  0  0  0  0
 25 31  1  0  0  0  0
 27 26  1  0  0  0  0
 28 27  2  0  0  0  0
 28 29  1  0  0  0  0
 30 28  1  0  0  0  0
 31 30  2  0  0  0  0
 32 33  1  0  0  0  0
M  END
> <Inchi_key>
GPXBXXGIAQBQNI-UHFFFAOYSA-N

> <Source>
Mulliner

> <ID>
HT2171

> <H_MFHB>
1

> <CAS>


> <Cholestasis>


> <Name>
vemurafenib

> <Class>
1

$$$$