

  -INDIGO-08031710012D

 26 29  0  0  0  0  0  0  0  0999 V2000
    2.9459    3.6010    0.0000 C   0  0  0  0  0  0  0  0  0  0  0  0
    3.6946    2.3014    0.0000 C   0  0  0  0  0  0  0  0  0  0  0  0
    5.1912    2.2986    0.0000 C   0  0  0  0  0  0  0  0  0  0  0  0
    5.9412    0.9996    0.0000 O   0  0  0  0  0  0  0  0  0  0  0  0
    5.1955   -0.2981    0.0000 C   0  0  0  0  0  0  0  0  0  0  0  0
    5.9455   -1.5971    0.0000 C   0  0  0  0  0  0  0  0  0  0  0  0
    7.4456   -1.5971    0.0000 N   0  0  0  0  0  0  0  0  0  0  0  0
    8.1955   -0.2981    0.0000 C   0  0  0  0  0  0  0  0  0  0  0  0
    9.6954   -0.2982    0.0000 C   0  0  0  0  0  0  0  0  0  0  0  0
   10.4456   -1.5973    0.0000 N   0  0  0  0  0  0  0  0  0  0  0  0
   11.9455   -1.5973    0.0000 C   0  0  0  0  0  0  0  0  0  0  0  0
    9.6954   -2.8963    0.0000 C   0  0  0  0  0  0  0  0  0  0  0  0
    8.1953   -2.8962    0.0000 C   0  0  0  0  0  0  0  0  0  0  0  0
    5.1943   -2.8967    0.0000 C   0  0  0  0  0  0  0  0  0  0  0  0
    5.9442   -4.1958    0.0000 F   0  0  0  0  0  0  0  0  0  0  0  0
    3.6915   -2.8967    0.0000 C   0  0  0  0  0  0  0  0  0  0  0  0
    2.9389   -1.5979    0.0000 C   0  0  0  0  0  0  0  0  0  0  0  0
    1.4441   -1.5964    0.0000 C   0  0  0  0  0  0  0  0  0  0  0  0
    0.6929   -2.8948    0.0000 O   0  0  0  0  0  0  0  0  0  0  0  0
    0.6944   -0.2975    0.0000 C   0  0  0  0  0  0  0  0  0  0  0  0
    1.4404    1.0000    0.0000 C   0  0  0  0  0  0  0  0  0  0  0  0
    2.9432    0.9999    0.0000 N   0  0  0  0  0  0  0  0  0  0  0  0
    3.6923   -0.2981    0.0000 C   0  0  0  0  0  0  0  0  0  0  0  0
   -0.8057   -0.2986    0.0000 C   0  0  0  0  0  0  0  0  0  0  0  0
   -1.5567    0.9997    0.0000 O   0  0  0  0  0  0  0  0  0  0  0  0
   -1.5546   -1.5983    0.0000 O   0  0  0  0  0  0  0  0  0  0  0  0
  1  2  1  0  0  0  0
  3  2  1  0  0  0  0
  2 22  1  0  0  0  0
  4  3  1  0  0  0  0
  5  4  1  0  0  0  0
  6  5  1  0  0  0  0
  5 23  2  0  0  0  0
  6  7  1  0  0  0  0
 14  6  2  0  0  0  0
  8  7  1  0  0  0  0
  7 13  1  0  0  0  0
  9  8  1  0  0  0  0
 10  9  1  0  0  0  0
 10 11  1  0  0  0  0
 12 10  1  0  0  0  0
 13 12  1  0  0  0  0
 14 15  1  0  0  0  0
 16 14  1  0  0  0  0
 17 16  2  0  0  0  0
 17 18  1  0  0  0  0
 23 17  1  0  0  0  0
 18 19  2  0  0  0  0
 18 20  1  0  0  0  0
 20 21  2  0  0  0  0
 20 24  1  0  0  0  0
 21 22  1  0  0  0  0
 22 23  1  0  0  0  0
 24 25  2  0  0  0  0
 24 26  1  0  0  0  0
M  END
> <Inchi_key>
GSDSWSVVBLHKDQ-UHFFFAOYSA-N

> <Source>
Mulliner

> <ID>
HT1197

> <H_MFHB>
1

> <CAS>
100986-85-4

> <Cholestasis>


> <Name>
levofloxacin;ofloxacin

> <Class>
1


$$$$