

  -INDIGO-08031710012D

 29 31  0  0  0  0  0  0  0  0999 V2000
   13.4540   -7.4347    0.0000 C   0  0  0  0  0  0  0  0  0  0  0  0
   12.6558   -6.1647    0.0000 O   0  0  0  0  0  0  0  0  0  0  0  0
   11.1567   -6.2210    0.0000 C   0  0  0  0  0  0  0  0  0  0  0  0
   10.3587   -4.9510    0.0000 C   0  0  0  0  0  0  0  0  0  0  0  0
    8.8596   -5.0073    0.0000 C   0  0  0  0  0  0  0  0  0  0  0  0
    8.1590   -6.3336    0.0000 C   0  0  0  0  0  0  0  0  0  0  0  0
    8.9570   -7.6035    0.0000 C   0  0  0  0  0  0  0  0  0  0  0  0
   10.4561   -7.5473    0.0000 C   0  0  0  0  0  0  0  0  0  0  0  0
    6.6599   -6.3898    0.0000 C   0  0  0  0  0  0  0  0  0  0  0  0
    6.0607   -7.7648    0.0000 S   0  0  0  0  0  0  0  0  0  0  0  0
    4.6114   -8.1519    0.0000 C   0  0  0  0  0  0  0  0  0  0  0  0
    4.4430   -9.6423    0.0000 C   0  0  0  0  0  0  0  0  0  0  0  0
    3.0679  -10.2416    0.0000 C   0  0  0  0  0  0  0  0  0  0  0  0
    1.8612   -9.3504    0.0000 C   0  0  0  0  0  0  0  0  0  0  0  0
    2.0299   -7.8599    0.0000 C   0  0  0  0  0  0  0  0  0  0  0  0
    3.4050   -7.2606    0.0000 C   0  0  0  0  0  0  0  0  0  0  0  0
    3.3486   -5.7617    0.0000 N   0  0  0  0  0  0  0  0  0  0  0  0
    1.9742   -5.1610    0.0000 C   0  0  0  0  0  0  0  0  0  0  0  0
    0.7666   -6.0512    0.0000 C   0  0  0  0  0  0  0  0  0  0  0  0
   -0.6078   -5.4507    0.0000 N   0  0  0  0  0  0  0  0  0  0  0  0
   -1.8152   -6.3408    0.0000 C   0  0  0  0  0  0  0  0  0  0  0  0
   -0.7749   -3.9601    0.0000 C   0  0  0  0  0  0  0  0  0  0  0  0
    4.4856   -4.7837    0.0000 C   0  0  0  0  0  0  0  0  0  0  0  0
    4.0986   -3.3345    0.0000 O   0  0  0  0  0  0  0  0  0  0  0  0
    5.9593   -5.0635    0.0000 C   0  0  0  0  0  0  0  0  0  0  0  0
    6.8505   -3.8570    0.0000 O   0  0  0  0  0  0  0  0  0  0  0  0
    6.2510   -2.4819    0.0000 C   0  0  0  0  0  0  0  0  0  0  0  0
    7.1422   -1.2753    0.0000 O   0  0  0  0  0  0  0  0  0  0  0  0
    4.7606   -2.3135    0.0000 C   0  0  0  0  0  0  0  0  0  0  0  0
  1  2  1  0  0  0  0
  2  3  1  0  0  0  0
  4  3  2  0  0  0  0
  3  8  1  0  0  0  0
  5  4  1  0  0  0  0
  6  5  2  0  0  0  0
  7  6  1  0  0  0  0
  6  9  1  0  0  0  0
  8  7  2  0  0  0  0
 10  9  1  0  0  0  0
  9 25  1  0  0  0  0
 11 10  1  0  0  0  0
 12 11  1  0  0  0  0
 11 16  2  0  0  0  0
 13 12  2  0  0  0  0
 14 13  1  0  0  0  0
 15 14  2  0  0  0  0
 16 15  1  0  0  0  0
 17 16  1  0  0  0  0
 17 18  1  0  0  0  0
 23 17  1  0  0  0  0
 18 19  1  0  0  0  0
 19 20  1  0  0  0  0
 20 21  1  0  0  0  0
 20 22  1  0  0  0  0
 23 24  2  0  0  0  0
 25 23  1  0  0  0  0
 25 26  1  0  0  0  0
 26 27  1  0  0  0  0
 27 28  2  0  0  0  0
 27 29  1  0  0  0  0
M  END
> <Inchi_key>
HSUGRBWQSSZJOP-UHFFFAOYSA-N

> <Source>
Mulliner

> <ID>
HT0674

> <H_MFHB>
1

> <CAS>
33286-22-5

> <Cholestasis>


> <Name>
diltiazem hydrochloride;diltiazem malate;diltiazem

> <Class>
1


$$$$