

  -INDIGO-08031710012D

 15 15  0  0  0  0  0  0  0  0999 V2000
   10.7158    2.6713    0.0000 Cl  0  0  0  0  0  0  0  0  0  0  0  0
    9.4167    3.4213    0.0000 C   0  0  0  0  0  0  0  0  0  0  0  0
    8.1177    2.6713    0.0000 C   0  0  0  0  0  0  0  0  0  0  0  0
    6.8186    3.4213    0.0000 N   0  0  0  0  0  0  0  0  0  0  0  0
    6.8186    4.9213    0.0000 N   0  0  0  0  0  0  0  0  0  0  0  0
    8.1177    5.6713    0.0000 O   0  0  0  0  0  0  0  0  0  0  0  0
    5.5196    2.6713    0.0000 C   0  0  0  0  0  0  0  0  0  0  0  0
    5.5196    1.1713    0.0000 O   0  0  0  0  0  0  0  0  0  0  0  0
    4.2207    3.4213    0.0000 N   0  0  0  0  0  0  0  0  0  0  0  0
    2.9215    2.6713    0.0000 C   0  0  0  0  0  0  0  0  0  0  0  0
    2.9215    1.1713    0.0000 C   0  0  0  0  0  0  0  0  0  0  0  0
    1.6226    0.4213    0.0000 C   0  0  0  0  0  0  0  0  0  0  0  0
    0.3235    1.1713    0.0000 C   0  0  0  0  0  0  0  0  0  0  0  0
    0.3235    2.6713    0.0000 C   0  0  0  0  0  0  0  0  0  0  0  0
    1.6226    3.4213    0.0000 C   0  0  0  0  0  0  0  0  0  0  0  0
  1  2  1  0  0  0  0
  2  3  1  0  0  0  0
  3  4  1  0  0  0  0
  4  5  1  0  0  0  0
  4  7  1  0  0  0  0
  5  6  2  0  0  0  0
  7  8  2  0  0  0  0
  7  9  1  0  0  0  0
  9 10  1  0  0  0  0
 11 10  1  0  0  0  0
 10 15  1  0  0  0  0
 12 11  1  0  0  0  0
 13 12  1  0  0  0  0
 14 13  1  0  0  0  0
 15 14  1  0  0  0  0
M  END
> <Inchi_key>
GQYIWUVLTXOXAJ-UHFFFAOYSA-N

> <Source>
Mulliner

> <ID>
HT1230

> <H_MFHB>
1

> <CAS>
13010-47-4

> <Cholestasis>


> <Name>
lomustine

> <Class>
1


$$$$