
  -INDIGO-08031710012D

 15 15  0  0  0  0  0  0  0  0999 V2000
    4.6203    4.6203    0.0000 C   0  0  0  0  0  0  0  0  0  0  0  0
    4.6203    3.1203    0.0000 C   0  0  0  0  0  0  0  0  0  0  0  0
    5.9194    2.3703    0.0000 C   0  0  0  0  0  0  0  0  0  0  0  0
    3.3213    2.3703    0.0000 C   0  0  0  0  0  0  0  0  0  0  0  0
    2.0222    3.1203    0.0000 C   0  0  0  0  0  0  0  0  0  0  0  0
    2.0222    4.6203    0.0000 C   0  0  0  0  0  0  0  0  0  0  0  0
    0.7232    5.3703    0.0000 C   0  0  0  0  0  0  0  0  0  0  0  0
   -0.5757    4.6203    0.0000 C   0  0  0  0  0  0  0  0  0  0  0  0
   -0.5757    3.1203    0.0000 C   0  0  0  0  0  0  0  0  0  0  0  0
    0.7232    2.3703    0.0000 C   0  0  0  0  0  0  0  0  0  0  0  0
   -1.8749    5.3703    0.0000 C   0  0  0  0  0  0  0  0  0  0  0  0
   -1.8749    6.8703    0.0000 C   0  0  0  0  0  0  0  0  0  0  0  0
   -3.1738    4.6203    0.0000 C   0  0  0  0  0  0  0  0  0  0  0  0
   -4.4729    5.3703    0.0000 O   0  0  0  0  0  0  0  0  0  0  0  0
   -3.1738    3.1203    0.0000 O   0  0  0  0  0  0  0  0  0  0  0  0
  1  2  1  0  0  0  0
  2  3  1  0  0  0  0
  2  4  1  0  0  0  0
  4  5  1  0  0  0  0
  6  5  2  0  0  0  0
  5 10  1  0  0  0  0
  7  6  1  0  0  0  0
  8  7  2  0  0  0  0
  9  8  1  0  0  0  0
  8 11  1  0  0  0  0
 10  9  2  0  0  0  0
 11 12  1  0  0  0  0
 11 13  1  0  0  0  0
 13 14  2  0  0  0  0
 13 15  1  0  0  0  0
M  END
> <Inchi_key>
HEFNNWSXXWATRW-UHFFFAOYSA-N

> <Source>
Mulliner , Kotsampasakou

> <ID>
EK0264;HT1069

> <H_MFHB>
1

> <CAS>
15687-27-1

> <Cholestasis>
1

> <Name>
ibuprofen;ibuprofen lysine;ibuprofen potassium

> <Class>
1

$$$$