

  -INDIGO-08031710012D

 26 29  0  0  0  0  0  0  0  0999 V2000
   13.3090    0.8043    0.0000 C   0  0  0  0  0  0  0  0  0  0  0  0
   11.9039    0.2792    0.0000 N   0  0  0  0  0  0  0  0  0  0  0  0
   12.0118    1.7461    0.0000 C   0  0  0  0  0  0  0  0  0  0  0  0
   10.8339    1.0159    0.0000 C   0  0  0  0  0  0  0  0  0  0  0  0
   10.7448   -0.4296    0.0000 C   0  0  0  0  0  0  0  0  0  0  0  0
   11.8398   -1.5488    0.0000 C   0  0  0  0  0  0  0  0  0  0  0  0
   13.0357   -0.8970    0.0000 C   0  0  0  0  0  0  0  0  0  0  0  0
    9.2228   -0.9268    0.0000 C   0  0  0  0  0  0  0  0  0  0  0  0
   10.0809   -0.1381    0.0000 C   0  0  0  0  0  0  0  0  0  0  0  0
    7.9284   -1.6846    0.0000 O   0  0  0  0  0  0  0  0  0  0  0  0
    6.6249   -0.9424    0.0000 C   0  0  0  0  0  0  0  0  0  0  0  0
    6.6158    0.5576    0.0000 O   0  0  0  0  0  0  0  0  0  0  0  0
    5.3304   -1.7002    0.0000 C   0  0  0  0  0  0  0  0  0  0  0  0
    6.0882   -2.9947    0.0000 O   0  0  0  0  0  0  0  0  0  0  0  0
    4.0358   -2.4579    0.0000 C   0  0  0  0  0  0  0  0  0  0  0  0
    4.0449   -3.9579    0.0000 C   0  0  0  0  0  0  0  0  0  0  0  0
    2.7505   -4.7157    0.0000 C   0  0  0  0  0  0  0  0  0  0  0  0
    1.4470   -3.9735    0.0000 C   0  0  0  0  0  0  0  0  0  0  0  0
    1.4379   -2.4735    0.0000 C   0  0  0  0  0  0  0  0  0  0  0  0
    2.7323   -1.7158    0.0000 C   0  0  0  0  0  0  0  0  0  0  0  0
    4.5726   -0.4056    0.0000 C   0  0  0  0  0  0  0  0  0  0  0  0
    3.0725   -0.4147    0.0000 C   0  0  0  0  0  0  0  0  0  0  0  0
    2.3150    0.8799    0.0000 C   0  0  0  0  0  0  0  0  0  0  0  0
    3.0569    2.1834    0.0000 C   0  0  0  0  0  0  0  0  0  0  0  0
    4.5570    2.1924    0.0000 C   0  0  0  0  0  0  0  0  0  0  0  0
    5.3149    0.8978    0.0000 C   0  0  0  0  0  0  0  0  0  0  0  0
  1  2  1  0  0  0  0
  3  2  1  0  0  0  0
  7  2  1  0  0  0  0
  2  9  1  0  0  0  0
  4  3  1  0  0  0  0
  5  4  1  0  0  0  0
  5  6  1  0  0  0  0
  8  5  1  0  0  0  0
  6  7  1  0  0  0  0
  9  8  1  0  0  0  0
  8 10  1  0  0  0  0
 10 11  1  0  0  0  0
 11 12  2  0  0  0  0
 11 13  1  0  0  0  0
 13 14  1  0  0  0  0
 13 15  1  0  0  0  0
 13 21  1  0  0  0  0
 16 15  2  0  0  0  0
 15 20  1  0  0  0  0
 17 16  1  0  0  0  0
 18 17  2  0  0  0  0
 19 18  1  0  0  0  0
 20 19  2  0  0  0  0
 22 21  2  0  0  0  0
 21 26  1  0  0  0  0
 23 22  1  0  0  0  0
 24 23  2  0  0  0  0
 25 24  1  0  0  0  0
 26 25  2  0  0  0  0
M  CHG  1   2   1
M  END
> <Inchi_key>
HOOSGZJRQIVJSZ-UHFFFAOYSA-N

> <Source>
Mulliner

> <ID>
HT0509

> <H_MFHB>
1

> <CAS>


> <Cholestasis>


> <Name>
clidinium bromide;clidinium

> <Class>
1


$$$$