

  -INDIGO-08031710012D

 21 22  0  0  0  0  0  0  0  0999 V2000
   12.9094   -0.0000    0.0000 C   0  0  0  0  0  0  0  0  0  0  0  0
   11.4094   -0.0000    0.0000 C   0  0  0  0  0  0  0  0  0  0  0  0
   10.6594   -1.2990    0.0000 C   0  0  0  0  0  0  0  0  0  0  0  0
   10.6594    1.2991    0.0000 C   0  0  0  0  0  0  0  0  0  0  0  0
    9.1593    1.2991    0.0000 C   0  0  0  0  0  0  0  0  0  0  0  0
    8.4093   -0.0000    0.0000 N   0  0  0  0  0  0  0  0  0  0  0  0
    6.9095   -0.0000    0.0000 C   0  0  0  0  0  0  0  0  0  0  0  0
    6.1595   -1.2990    0.0000 C   0  0  0  0  0  0  0  0  0  0  0  0
    4.6595   -1.2990    0.0000 C   0  0  0  0  0  0  0  0  0  0  0  0
    3.9094   -2.5981    0.0000 Cl  0  0  0  0  0  0  0  0  0  0  0  0
    3.9094   -0.0000    0.0000 C   0  0  0  0  0  0  0  0  0  0  0  0
    4.6595    1.2991    0.0000 C   0  0  0  0  0  0  0  0  0  0  0  0
    6.1595    1.2991    0.0000 C   0  0  0  0  0  0  0  0  0  0  0  0
    6.9095    2.5981    0.0000 S   0  0  0  0  0  0  0  0  0  0  0  0
    6.9095    4.0981    0.0000 O   0  0  0  0  0  0  0  0  0  0  0  0
    5.6103    3.3481    0.0000 O   0  0  0  0  0  0  0  0  0  0  0  0
    8.4093    2.5981    0.0000 N   0  0  0  0  0  0  0  0  0  0  0  0
    2.4094   -0.0000    0.0000 S   0  0  0  0  0  0  0  0  0  0  0  0
    2.4094    1.5000    0.0000 O   0  0  0  0  0  0  0  0  0  0  0  0
    2.4094   -1.5000    0.0000 O   0  0  0  0  0  0  0  0  0  0  0  0
    0.9094   -0.0000    0.0000 N   0  0  0  0  0  0  0  0  0  0  0  0
  1  2  1  0  0  0  0
  2  3  1  0  0  0  0
  2  4  1  0  0  0  0
  4  5  1  0  0  0  0
  6  5  1  0  0  0  0
  5 17  1  0  0  0  0
  7  6  1  0  0  0  0
  8  7  1  0  0  0  0
  7 13  2  0  0  0  0
  9  8  2  0  0  0  0
  9 10  1  0  0  0  0
 11  9  1  0  0  0  0
 12 11  2  0  0  0  0
 11 18  1  0  0  0  0
 13 12  1  0  0  0  0
 14 13  1  0  0  0  0
 14 15  2  0  0  0  0
 14 16  2  0  0  0  0
 17 14  1  0  0  0  0
 18 19  2  0  0  0  0
 18 20  2  0  0  0  0
 18 21  1  0  0  0  0
M  END
> <Inchi_key>
HGBFRHCDYZJRAO-UHFFFAOYSA-N

> <Source>
Mulliner

> <ID>
HT0339

> <H_MFHB>
1

> <CAS>


> <Cholestasis>


> <Name>
butizide

> <Class>
1


$$$$