

  -INDIGO-08031710012D

 17 17  0  0  0  0  0  0  0  0999 V2000
   13.2152   -3.5410    0.0000 C   0  0  0  0  0  0  0  0  0  0  0  0
   11.9163   -2.7910    0.0000 C   0  0  0  0  0  0  0  0  0  0  0  0
   10.6171   -3.5410    0.0000 C   0  0  0  0  0  0  0  0  0  0  0  0
    9.3182   -2.7910    0.0000 N   0  0  0  0  0  0  0  0  0  0  0  0
    8.0190   -3.5410    0.0000 C   0  0  0  0  0  0  0  0  0  0  0  0
    8.0190   -5.0410    0.0000 O   0  0  0  0  0  0  0  0  0  0  0  0
    6.7199   -2.7910    0.0000 N   0  0  0  0  0  0  0  0  0  0  0  0
    5.4210   -3.5410    0.0000 S   0  0  0  0  0  0  0  0  0  0  0  0
    6.1710   -4.8400    0.0000 O   0  0  0  0  0  0  0  0  0  0  0  0
    4.6711   -2.2420    0.0000 O   0  0  0  0  0  0  0  0  0  0  0  0
    4.1218   -4.2910    0.0000 C   0  0  0  0  0  0  0  0  0  0  0  0
    4.1218   -5.7910    0.0000 C   0  0  0  0  0  0  0  0  0  0  0  0
    2.8229   -6.5410    0.0000 C   0  0  0  0  0  0  0  0  0  0  0  0
    1.5239   -5.7910    0.0000 C   0  0  0  0  0  0  0  0  0  0  0  0
    0.2248   -6.5410    0.0000 Cl  0  0  0  0  0  0  0  0  0  0  0  0
    1.5239   -4.2910    0.0000 C   0  0  0  0  0  0  0  0  0  0  0  0
    2.8229   -3.5410    0.0000 C   0  0  0  0  0  0  0  0  0  0  0  0
  1  2  1  0  0  0  0
  2  3  1  0  0  0  0
  3  4  1  0  0  0  0
  4  5  1  0  0  0  0
  5  6  2  0  0  0  0
  5  7  1  0  0  0  0
  7  8  2  0  0  0  0
  8  9  2  0  0  0  0
  8 10  1  0  0  0  0
  8 11  1  0  0  0  0
 12 11  2  0  0  0  0
 11 17  1  0  0  0  0
 13 12  1  0  0  0  0
 14 13  2  0  0  0  0
 14 15  1  0  0  0  0
 16 14  1  0  0  0  0
 17 16  2  0  0  0  0
M  END
> <Inchi_key>
ANVMIKGNADAYNC-UHFFFAOYSA-N

> <Source>
Mulliner

> <ID>
HT0469

> <H_MFHB>
1

> <CAS>


> <Cholestasis>


> <Name>
chlorpropamide

> <Class>
1


$$$$