
  -INDIGO-08031710012D

 23 24  0  0  0  0  0  0  0  0999 V2000
    2.7360    4.7388    0.0000 C   0  0  0  0  0  0  0  0  0  0  0  0
    3.4860    3.4398    0.0000 O   0  0  0  0  0  0  0  0  0  0  0  0
    2.7360    2.1408    0.0000 C   0  0  0  0  0  0  0  0  0  0  0  0
    1.2360    2.1408    0.0000 C   0  0  0  0  0  0  0  0  0  0  0  0
    0.4859    3.4398    0.0000 C   0  0  0  0  0  0  0  0  0  0  0  0
    0.4859    0.8417    0.0000 C   0  0  0  0  0  0  0  0  0  0  0  0
   -0.9813    0.5298    0.0000 C   0  0  0  0  0  0  0  0  0  0  0  0
   -1.1381   -0.9621    0.0000 O   0  0  0  0  0  0  0  0  0  0  0  0
    0.2323   -1.5721    0.0000 C   0  0  0  0  0  0  0  0  0  0  0  0
    0.5441   -3.0393    0.0000 O   0  0  0  0  0  0  0  0  0  0  0  0
    1.2360   -0.4573    0.0000 C   0  0  0  0  0  0  0  0  0  0  0  0
    2.7360   -0.4573    0.0000 C   0  0  0  0  0  0  0  0  0  0  0  0
    3.4860   -1.7564    0.0000 O   0  0  0  0  0  0  0  0  0  0  0  0
    3.4860    0.8417    0.0000 C   0  0  0  0  0  0  0  0  0  0  0  0
    4.9859    0.8417    0.0000 C   0  0  0  0  0  0  0  0  0  0  0  0
    5.7359   -0.4573    0.0000 C   0  0  0  0  0  0  0  0  0  0  0  0
    7.2360   -0.4573    0.0000 C   0  0  0  0  0  0  0  0  0  0  0  0
    7.9860   -1.7564    0.0000 C   0  0  0  0  0  0  0  0  0  0  0  0
    7.9860    0.8417    0.0000 C   0  0  0  0  0  0  0  0  0  0  0  0
    9.4859    0.8417    0.0000 C   0  0  0  0  0  0  0  0  0  0  0  0
   10.2359    2.1408    0.0000 C   0  0  0  0  0  0  0  0  0  0  0  0
    9.4859    3.4398    0.0000 O   0  0  0  0  0  0  0  0  0  0  0  0
   11.7360    2.1408    0.0000 O   0  0  0  0  0  0  0  0  0  0  0  0
  1  2  1  0  0  0  0
  2  3  1  0  0  0  0
  4  3  2  0  0  0  0
  3 14  1  0  0  0  0
  4  5  1  0  0  0  0
  6  4  1  0  0  0  0
  7  6  1  0  0  0  0
  6 11  2  0  0  0  0
  8  7  1  0  0  0  0
  9  8  1  0  0  0  0
  9 10  2  0  0  0  0
 11  9  1  0  0  0  0
 12 11  1  0  0  0  0
 12 13  1  0  0  0  0
 14 12  2  0  0  0  0
 14 15  1  0  0  0  0
 15 16  1  0  0  0  0
 16 17  2  0  0  0  0
 17 18  1  0  0  0  0
 17 19  1  0  0  0  0
 19 20  1  0  0  0  0
 20 21  1  0  0  0  0
 21 22  2  0  0  0  0
 21 23  1  0  0  0  0
M  END
> <Inchi_key>
HPNSFSBZBAHARI-WTKPLQERSA-N

> <Source>
Mulliner

> <ID>
HT1443

> <H_MFHB>
1

> <CAS>


> <Cholestasis>


> <Name>
mycophenolic acid

> <Class>
1

$$$$