
  -INDIGO-08031710012D

 20 22  0  0  0  0  0  0  0  0999 V2000
   11.9496   -0.5329    0.0000 C   0  0  0  0  0  0  0  0  0  0  0  0
   10.8888    0.5277    0.0000 N   0  0  0  0  0  0  0  0  0  0  0  0
    9.4400    0.1395    0.0000 C   0  0  0  0  0  0  0  0  0  0  0  0
    8.3794    1.2001    0.0000 C   0  0  0  0  0  0  0  0  0  0  0  0
    6.9305    0.8119    0.0000 C   0  0  0  0  0  0  0  0  0  0  0  0
    5.8699    1.8725    0.0000 N   0  0  0  0  0  0  0  0  0  0  0  0
    4.4537    1.3780    0.0000 C   0  0  0  0  0  0  0  0  0  0  0  0
    4.3973   -0.1210    0.0000 C   0  0  0  0  0  0  0  0  0  0  0  0
    3.0712   -0.8217    0.0000 C   0  0  0  0  0  0  0  0  0  0  0  0
    1.8012   -0.0235    0.0000 C   0  0  0  0  0  0  0  0  0  0  0  0
    1.8576    1.4754    0.0000 C   0  0  0  0  0  0  0  0  0  0  0  0
    3.1837    2.1762    0.0000 C   0  0  0  0  0  0  0  0  0  0  0  0
    3.0153    3.6667    0.0000 C   0  0  0  0  0  0  0  0  0  0  0  0
    4.0749    4.7283    0.0000 C   0  0  0  0  0  0  0  0  0  0  0  0
    5.5660    4.5587    0.0000 C   0  0  0  0  0  0  0  0  0  0  0  0
    6.2667    5.8849    0.0000 C   0  0  0  0  0  0  0  0  0  0  0  0
    7.7657    5.9412    0.0000 C   0  0  0  0  0  0  0  0  0  0  0  0
    8.5640    4.6712    0.0000 C   0  0  0  0  0  0  0  0  0  0  0  0
    7.8633    3.3450    0.0000 C   0  0  0  0  0  0  0  0  0  0  0  0
    6.3643    3.2887    0.0000 C   0  0  0  0  0  0  0  0  0  0  0  0
  1  2  1  0  0  0  0
  2  3  1  0  0  0  0
  3  4  1  0  0  0  0
  4  5  1  0  0  0  0
  5  6  1  0  0  0  0
  7  6  1  0  0  0  0
  6 20  1  0  0  0  0
  8  7  2  0  0  0  0
  7 12  1  0  0  0  0
  9  8  1  0  0  0  0
 10  9  2  0  0  0  0
 11 10  1  0  0  0  0
 12 11  2  0  0  0  0
 13 12  1  0  0  0  0
 14 13  1  0  0  0  0
 15 14  1  0  0  0  0
 16 15  2  0  0  0  0
 15 20  1  0  0  0  0
 17 16  1  0  0  0  0
 18 17  2  0  0  0  0
 19 18  1  0  0  0  0
 20 19  2  0  0  0  0
M  END
> <Inchi_key>
HCYAFALTSJYZDH-UHFFFAOYSA-N

> <Source>
Mulliner

> <ID>
HT0611

> <H_MFHB>
1

> <CAS>


> <Cholestasis>


> <Name>
desipramine hydrochloride;desipramine

> <Class>
1

$$$$