
  -INDIGO-08031710012D

 22 24  0  0  0  0  0  0  0  0999 V2000
    0.0340    0.1270    0.0000 C   0  0  0  0  0  0  0  0  0  0  0  0
    1.3331   -0.6230    0.0000 C   0  0  0  0  0  0  0  0  0  0  0  0
    1.3331   -2.1230    0.0000 C   0  0  0  0  0  0  0  0  0  0  0  0
    2.6321   -2.8730    0.0000 C   0  0  0  0  0  0  0  0  0  0  0  0
    3.9312   -2.1230    0.0000 C   0  0  0  0  0  0  0  0  0  0  0  0
    3.9312   -0.6230    0.0000 C   0  0  0  0  0  0  0  0  0  0  0  0
    2.6321    0.1270    0.0000 C   0  0  0  0  0  0  0  0  0  0  0  0
    5.2302   -2.8730    0.0000 S   0  0  0  0  0  0  0  0  0  0  0  0
    5.9801   -1.5740    0.0000 O   0  0  0  0  0  0  0  0  0  0  0  0
    4.4801   -4.1720    0.0000 O   0  0  0  0  0  0  0  0  0  0  0  0
    6.5293   -3.6230    0.0000 N   0  0  0  0  0  0  0  0  0  0  0  0
    7.8283   -2.8730    0.0000 C   0  0  0  0  0  0  0  0  0  0  0  0
    7.8283   -1.3730    0.0000 O   0  0  0  0  0  0  0  0  0  0  0  0
    9.1274   -3.6230    0.0000 N   0  0  0  0  0  0  0  0  0  0  0  0
   10.4262   -2.8730    0.0000 N   0  0  0  0  0  0  0  0  0  0  0  0
   10.5830   -1.3812    0.0000 C   0  0  0  0  0  0  0  0  0  0  0  0
   12.0503   -1.0693    0.0000 C   0  0  0  0  0  0  0  0  0  0  0  0
   13.0540    0.0454    0.0000 C   0  0  0  0  0  0  0  0  0  0  0  0
   14.4244   -0.5647    0.0000 C   0  0  0  0  0  0  0  0  0  0  0  0
   14.2676   -2.0565    0.0000 C   0  0  0  0  0  0  0  0  0  0  0  0
   12.8004   -2.3684    0.0000 C   0  0  0  0  0  0  0  0  0  0  0  0
   11.7966   -3.4831    0.0000 C   0  0  0  0  0  0  0  0  0  0  0  0
  1  2  1  0  0  0  0
  3  2  2  0  0  0  0
  2  7  1  0  0  0  0
  4  3  1  0  0  0  0
  5  4  2  0  0  0  0
  6  5  1  0  0  0  0
  5  8  1  0  0  0  0
  7  6  2  0  0  0  0
  8  9  2  0  0  0  0
  8 10  1  0  0  0  0
  8 11  2  0  0  0  0
 11 12  1  0  0  0  0
 12 13  2  0  0  0  0
 12 14  1  0  0  0  0
 14 15  1  0  0  0  0
 16 15  1  0  0  0  0
 15 22  1  0  0  0  0
 17 16  1  0  0  0  0
 18 17  1  0  0  0  0
 17 21  1  0  0  0  0
 19 18  1  0  0  0  0
 20 19  1  0  0  0  0
 21 20  1  0  0  0  0
 22 21  1  0  0  0  0
M  END
> <Inchi_key>
HQIFQSOMTSHYDU-UHFFFAOYSA-N

> <Source>
Mulliner , Kotsampasakou

> <ID>
EK0243;HT0986

> <H_MFHB>
1

> <CAS>
21187-98-4

> <Cholestasis>
1

> <Name>
gliclazide

> <Class>
1

$$$$