
  -INDIGO-08031710012D

 22 24  0  0  0  0  0  0  0  0999 V2000
    8.6786   -6.6593    0.0000 C   0  0  0  0  0  0  0  0  0  0  0  0
    8.2905   -5.2105    0.0000 N   0  0  0  0  0  0  0  0  0  0  0  0
    9.3511   -4.1498    0.0000 C   0  0  0  0  0  0  0  0  0  0  0  0
    6.8416   -4.8222    0.0000 C   0  0  0  0  0  0  0  0  0  0  0  0
    5.7808   -5.8829    0.0000 C   0  0  0  0  0  0  0  0  0  0  0  0
    4.3321   -5.4947    0.0000 O   0  0  0  0  0  0  0  0  0  0  0  0
    3.2713   -6.5554    0.0000 N   0  0  0  0  0  0  0  0  0  0  0  0
    1.8224   -6.1672    0.0000 C   0  0  0  0  0  0  0  0  0  0  0  0
    0.8435   -7.3035    0.0000 C   0  0  0  0  0  0  0  0  0  0  0  0
    1.5441   -8.6298    0.0000 C   0  0  0  0  0  0  0  0  0  0  0  0
    0.7460   -9.8998    0.0000 C   0  0  0  0  0  0  0  0  0  0  0  0
   -0.7529   -9.8435    0.0000 C   0  0  0  0  0  0  0  0  0  0  0  0
   -1.4537   -8.5173    0.0000 C   0  0  0  0  0  0  0  0  0  0  0  0
   -0.6556   -7.2473    0.0000 C   0  0  0  0  0  0  0  0  0  0  0  0
   -1.5468   -6.0408    0.0000 C   0  0  0  0  0  0  0  0  0  0  0  0
   -1.1598   -4.5915    0.0000 C   0  0  0  0  0  0  0  0  0  0  0  0
    0.2164   -3.9928    0.0000 C   0  0  0  0  0  0  0  0  0  0  0  0
    0.1602   -2.4938    0.0000 C   0  0  0  0  0  0  0  0  0  0  0  0
    1.4301   -1.6956    0.0000 C   0  0  0  0  0  0  0  0  0  0  0  0
    2.7563   -2.3963    0.0000 C   0  0  0  0  0  0  0  0  0  0  0  0
    2.8127   -3.8953    0.0000 C   0  0  0  0  0  0  0  0  0  0  0  0
    1.5427   -4.6935    0.0000 C   0  0  0  0  0  0  0  0  0  0  0  0
  1  2  1  0  0  0  0
  2  3  1  0  0  0  0
  2  4  1  0  0  0  0
  4  5  1  0  0  0  0
  5  6  1  0  0  0  0
  6  7  1  0  0  0  0
  7  8  2  0  0  0  0
  9  8  1  0  0  0  0
  8 22  1  0  0  0  0
 10  9  2  0  0  0  0
  9 14  1  0  0  0  0
 11 10  1  0  0  0  0
 12 11  2  0  0  0  0
 13 12  1  0  0  0  0
 14 13  2  0  0  0  0
 15 14  1  0  0  0  0
 16 15  1  0  0  0  0
 17 16  1  0  0  0  0
 18 17  2  0  0  0  0
 17 22  1  0  0  0  0
 19 18  1  0  0  0  0
 20 19  2  0  0  0  0
 21 20  1  0  0  0  0
 22 21  2  0  0  0  0
M  END
> <Inchi_key>
GPTURHKXTUDRPC-UHFFFAOYSA-N

> <Source>
Mulliner

> <ID>
HT1530

> <H_MFHB>
1

> <CAS>


> <Cholestasis>


> <Name>
noxiptiline

> <Class>
1

$$$$