

  -INDIGO-08031710012D

 37 39  0  0  0  0  0  0  0  0999 V2000
    3.5594   -5.8360    0.0000 C   0  0  0  0  0  0  0  0  0  0  0  0
    4.8585   -5.0859    0.0000 C   0  0  0  0  0  0  0  0  0  0  0  0
    4.8585   -3.5861    0.0000 C   0  0  0  0  0  0  0  0  0  0  0  0
    6.1575   -2.8360    0.0000 C   0  0  0  0  0  0  0  0  0  0  0  0
    6.1575   -1.3359    0.0000 C   0  0  0  0  0  0  0  0  0  0  0  0
    7.4566   -0.5861    0.0000 C   0  0  0  0  0  0  0  0  0  0  0  0
    7.4566    0.9141    0.0000 C   0  0  0  0  0  0  0  0  0  0  0  0
    8.7557    1.6641    0.0000 C   0  0  0  0  0  0  0  0  0  0  0  0
    8.7557    3.1640    0.0000 C   0  0  0  0  0  0  0  0  0  0  0  0
   10.0548    3.9141    0.0000 C   0  0  0  0  0  0  0  0  0  0  0  0
   11.3538    3.1640    0.0000 O   0  0  0  0  0  0  0  0  0  0  0  0
   10.0548    5.4139    0.0000 O   0  0  0  0  0  0  0  0  0  0  0  0
   11.3538    6.1640    0.0000 C   0  0  0  0  0  0  0  0  0  0  0  0
   12.1038    4.8648    0.0000 C   0  0  0  0  0  0  0  0  0  0  0  0
   13.6036    4.8648    0.0000 C   0  0  0  0  0  0  0  0  0  0  0  0
   14.3536    6.1640    0.0000 N   0  0  0  0  0  0  0  0  0  0  0  0
   15.8538    6.1640    0.0000 C   0  0  0  0  0  0  0  0  0  0  0  0
   16.6037    4.8648    0.0000 C   0  0  0  0  0  0  0  0  0  0  0  0
   18.1036    4.8648    0.0000 C   0  0  0  0  0  0  0  0  0  0  0  0
   18.8535    3.5659    0.0000 C   0  0  0  0  0  0  0  0  0  0  0  0
   18.1036    2.2670    0.0000 O   0  0  0  0  0  0  0  0  0  0  0  0
   20.3537    3.5659    0.0000 C   0  0  0  0  0  0  0  0  0  0  0  0
   21.1037    4.8648    0.0000 C   0  0  0  0  0  0  0  0  0  0  0  0
   22.6036    4.8648    0.0000 C   0  0  0  0  0  0  0  0  0  0  0  0
   23.3538    3.5659    0.0000 C   0  0  0  0  0  0  0  0  0  0  0  0
   24.8537    3.5659    0.0000 F   0  0  0  0  0  0  0  0  0  0  0  0
   22.6036    2.2670    0.0000 C   0  0  0  0  0  0  0  0  0  0  0  0
   21.1037    2.2670    0.0000 C   0  0  0  0  0  0  0  0  0  0  0  0
   13.6036    7.4629    0.0000 C   0  0  0  0  0  0  0  0  0  0  0  0
   12.1038    7.4629    0.0000 C   0  0  0  0  0  0  0  0  0  0  0  0
   10.0548    6.9141    0.0000 C   0  0  0  0  0  0  0  0  0  0  0  0
    8.7557    6.1640    0.0000 C   0  0  0  0  0  0  0  0  0  0  0  0
    7.4566    6.9141    0.0000 C   0  0  0  0  0  0  0  0  0  0  0  0
    7.4566    8.4139    0.0000 C   0  0  0  0  0  0  0  0  0  0  0  0
    6.1575    9.1640    0.0000 Cl  0  0  0  0  0  0  0  0  0  0  0  0
    8.7557    9.1640    0.0000 C   0  0  0  0  0  0  0  0  0  0  0  0
   10.0548    8.4139    0.0000 C   0  0  0  0  0  0  0  0  0  0  0  0
  1  2  1  0  0  0  0
  2  3  1  0  0  0  0
  3  4  1  0  0  0  0
  4  5  1  0  0  0  0
  5  6  1  0  0  0  0
  6  7  1  0  0  0  0
  7  8  1  0  0  0  0
  8  9  1  0  0  0  0
  9 10  1  0  0  0  0
 10 11  2  0  0  0  0
 10 12  1  0  0  0  0
 12 13  1  0  0  0  0
 14 13  1  0  0  0  0
 13 30  1  0  0  0  0
 13 31  1  0  0  0  0
 15 14  1  0  0  0  0
 16 15  1  0  0  0  0
 16 17  1  0  0  0  0
 29 16  1  0  0  0  0
 17 18  1  0  0  0  0
 18 19  1  0  0  0  0
 19 20  1  0  0  0  0
 20 21  2  0  0  0  0
 20 22  1  0  0  0  0
 23 22  2  0  0  0  0
 22 28  1  0  0  0  0
 24 23  1  0  0  0  0
 25 24  2  0  0  0  0
 25 26  1  0  0  0  0
 27 25  1  0  0  0  0
 28 27  2  0  0  0  0
 30 29  1  0  0  0  0
 32 31  2  0  0  0  0
 31 37  1  0  0  0  0
 33 32  1  0  0  0  0
 34 33  2  0  0  0  0
 34 35  1  0  0  0  0
 36 34  1  0  0  0  0
 37 36  2  0  0  0  0
M  END
> <Inchi_key>
GUTXTARXLVFHDK-UHFFFAOYSA-N

> <Source>
Mulliner

> <ID>
HT1018

> <H_MFHB>
1

> <CAS>
74050-97-8

> <Cholestasis>


> <Name>
haloperidol decanoate

> <Class>
1


$$$$