
  -INDIGO-08031710012D

 28 29  0  0  0  0  0  0  0  0999 V2000
   11.0775   -5.7538    0.0000 C   0  0  0  0  0  0  0  0  0  0  0  0
    9.7784   -6.5040    0.0000 C   0  0  0  0  0  0  0  0  0  0  0  0
    9.7784   -8.0039    0.0000 C   0  0  0  0  0  0  0  0  0  0  0  0
    8.4795   -5.7538    0.0000 C   0  0  0  0  0  0  0  0  0  0  0  0
    8.4795   -4.2539    0.0000 C   0  0  0  0  0  0  0  0  0  0  0  0
    7.1804   -3.5039    0.0000 N   0  0  0  0  0  0  0  0  0  0  0  0
    5.8813   -4.2539    0.0000 C   0  0  0  0  0  0  0  0  0  0  0  0
    5.8813   -5.7538    0.0000 O   0  0  0  0  0  0  0  0  0  0  0  0
    4.5823   -3.5039    0.0000 C   0  0  0  0  0  0  0  0  0  0  0  0
    4.5823   -2.0040    0.0000 C   0  0  0  0  0  0  0  0  0  0  0  0
    3.2832   -1.2538    0.0000 C   0  0  0  0  0  0  0  0  0  0  0  0
    1.9841   -2.0040    0.0000 C   0  0  0  0  0  0  0  0  0  0  0  0
    0.6852   -1.2538    0.0000 C   0  0  0  0  0  0  0  0  0  0  0  0
    0.6852    0.2461    0.0000 C   0  0  0  0  0  0  0  0  0  0  0  0
    1.9841    0.9961    0.0000 C   0  0  0  0  0  0  0  0  0  0  0  0
    3.2832    0.2461    0.0000 C   0  0  0  0  0  0  0  0  0  0  0  0
    3.2832   -4.2539    0.0000 N   0  0  0  0  0  0  0  0  0  0  0  0
    3.2832   -5.7538    0.0000 C   0  0  0  0  0  0  0  0  0  0  0  0
    4.5823   -6.5040    0.0000 O   0  0  0  0  0  0  0  0  0  0  0  0
    1.9841   -6.5040    0.0000 C   0  0  0  0  0  0  0  0  0  0  0  0
    0.6852   -5.7538    0.0000 C   0  0  0  0  0  0  0  0  0  0  0  0
   -0.6139   -6.5040    0.0000 N   0  0  0  0  0  0  0  0  0  0  0  0
   -0.6139   -8.0039    0.0000 C   0  0  0  0  0  0  0  0  0  0  0  0
    0.6852   -8.7539    0.0000 C   0  0  0  0  0  0  0  0  0  0  0  0
    1.9841   -8.0039    0.0000 N   0  0  0  0  0  0  0  0  0  0  0  0
    9.7784   -3.5039    0.0000 B   0  0  0  0  0  0  0  0  0  0  0  0
   11.0775   -4.2539    0.0000 O   0  0  0  0  0  0  0  0  0  0  0  0
    9.7784   -2.0040    0.0000 O   0  0  0  0  0  0  0  0  0  0  0  0
  1  2  1  0  0  0  0
  2  3  1  0  0  0  0
  2  4  1  0  0  0  0
  4  5  1  0  0  0  0
  5  6  1  0  0  0  0
  5 26  1  0  0  0  0
  6  7  1  0  0  0  0
  7  8  2  0  0  0  0
  7  9  1  0  0  0  0
  9 10  1  0  0  0  0
  9 17  1  0  0  0  0
 10 11  1  0  0  0  0
 12 11  2  0  0  0  0
 11 16  1  0  0  0  0
 13 12  1  0  0  0  0
 14 13  2  0  0  0  0
 15 14  1  0  0  0  0
 16 15  2  0  0  0  0
 17 18  1  0  0  0  0
 18 19  2  0  0  0  0
 18 20  1  0  0  0  0
 21 20  2  0  0  0  0
 20 25  1  0  0  0  0
 22 21  1  0  0  0  0
 23 22  2  0  0  0  0
 24 23  1  0  0  0  0
 25 24  2  0  0  0  0
 26 27  1  0  0  0  0
 26 28  1  0  0  0  0
M  END
> <Inchi_key>
GXJABQQUPOEUTA-UHFFFAOYSA-N

> <Source>
Mulliner

> <ID>
HT0299

> <H_MFHB>
1

> <CAS>


> <Cholestasis>


> <Name>
bortezomib

> <Class>
1

$$$$