

  -INDIGO-08031710012D

 26 28  0  0  0  0  0  0  0  0999 V2000
   16.4423   -4.2969    0.0000 O   0  0  0  0  0  0  0  0  0  0  0  0
   14.9422   -4.2969    0.0000 C   0  0  0  0  0  0  0  0  0  0  0  0
   14.1922   -2.9978    0.0000 C   0  0  0  0  0  0  0  0  0  0  0  0
   14.9422   -1.6987    0.0000 O   0  0  0  0  0  0  0  0  0  0  0  0
   12.6923   -2.9978    0.0000 C   0  0  0  0  0  0  0  0  0  0  0  0
   11.9423   -1.6987    0.0000 O   0  0  0  0  0  0  0  0  0  0  0  0
   10.4422   -1.6987    0.0000 C   0  0  0  0  0  0  0  0  0  0  0  0
    9.6922   -2.9978    0.0000 O   0  0  0  0  0  0  0  0  0  0  0  0
    9.6922   -0.3996    0.0000 C   0  0  0  0  0  0  0  0  0  0  0  0
   10.4422    0.8992    0.0000 C   0  0  0  0  0  0  0  0  0  0  0  0
    9.6922    2.1984    0.0000 C   0  0  0  0  0  0  0  0  0  0  0  0
    8.1923    2.1984    0.0000 C   0  0  0  0  0  0  0  0  0  0  0  0
    7.4423    0.8992    0.0000 C   0  0  0  0  0  0  0  0  0  0  0  0
    8.1923   -0.3996    0.0000 C   0  0  0  0  0  0  0  0  0  0  0  0
    7.4423   -1.6987    0.0000 N   0  0  0  0  0  0  0  0  0  0  0  0
    5.9422   -1.6987    0.0000 C   0  0  0  0  0  0  0  0  0  0  0  0
    5.1922   -0.3996    0.0000 C   0  0  0  0  0  0  0  0  0  0  0  0
    3.6923   -0.3996    0.0000 C   0  0  0  0  0  0  0  0  0  0  0  0
    2.9423   -1.6987    0.0000 N   0  0  0  0  0  0  0  0  0  0  0  0
    3.6923   -2.9978    0.0000 C   0  0  0  0  0  0  0  0  0  0  0  0
    2.9423   -4.2969    0.0000 C   0  0  0  0  0  0  0  0  0  0  0  0
    3.6923   -5.5959    0.0000 C   0  0  0  0  0  0  0  0  0  0  0  0
    2.9423   -6.8949    0.0000 Cl  0  0  0  0  0  0  0  0  0  0  0  0
    5.1922   -5.5959    0.0000 C   0  0  0  0  0  0  0  0  0  0  0  0
    5.9422   -4.2969    0.0000 C   0  0  0  0  0  0  0  0  0  0  0  0
    5.1922   -2.9978    0.0000 C   0  0  0  0  0  0  0  0  0  0  0  0
  1  2  1  0  0  0  0
  2  3  1  0  0  0  0
  3  4  1  0  0  0  0
  3  5  1  0  0  0  0
  5  6  1  0  0  0  0
  6  7  1  0  0  0  0
  7  8  2  0  0  0  0
  7  9  1  0  0  0  0
 10  9  2  0  0  0  0
  9 14  1  0  0  0  0
 11 10  1  0  0  0  0
 12 11  2  0  0  0  0
 13 12  1  0  0  0  0
 14 13  2  0  0  0  0
 14 15  1  0  0  0  0
 15 16  1  0  0  0  0
 17 16  2  0  0  0  0
 16 26  1  0  0  0  0
 18 17  1  0  0  0  0
 19 18  2  0  0  0  0
 20 19  1  0  0  0  0
 21 20  1  0  0  0  0
 20 26  2  0  0  0  0
 22 21  2  0  0  0  0
 22 23  1  0  0  0  0
 24 22  1  0  0  0  0
 25 24  2  0  0  0  0
 26 25  1  0  0  0  0
M  END
> <Inchi_key>
GWOFUCIGLDBNKM-UHFFFAOYSA-N

> <Source>
Mulliner

> <ID>
HT0983

> <H_MFHB>
1

> <CAS>


> <Cholestasis>


> <Name>
glafenine

> <Class>
1


$$$$