

  -INDIGO-08031710012D

 23 27  0  0  0  0  0  0  0  0999 V2000
    0.6487   -2.4068    0.0000 C   0  0  0  0  0  0  0  0  0  0  0  0
    1.9455   -1.6530    0.0000 C   0  0  0  0  0  0  0  0  0  0  0  0
    1.8775   -0.2687    0.0000 C   0  0  0  0  0  0  0  0  0  0  0  0
    3.1084   -1.0736    0.0000 N   0  0  0  0  0  0  0  0  0  0  0  0
    4.6844   -0.6519    0.0000 C   0  0  0  0  0  0  0  0  0  0  0  0
    4.6752   -2.0137    0.0000 C   0  0  0  0  0  0  0  0  0  0  0  0
    3.1663   -2.4301    0.0000 C   0  0  0  0  0  0  0  0  0  0  0  0
    2.8640   -4.0023    0.0000 C   0  0  0  0  0  0  0  0  0  0  0  0
    2.5895   -2.8697    0.0000 C   0  0  0  0  0  0  0  0  0  0  0  0
   -0.6525   -1.6606    0.0000 N   0  0  0  0  0  0  0  0  0  0  0  0
   -1.9494   -2.4145    0.0000 C   0  0  0  0  0  0  0  0  0  0  0  0
   -1.9449   -3.9145    0.0000 C   0  0  0  0  0  0  0  0  0  0  0  0
   -3.2417   -4.6683    0.0000 C   0  0  0  0  0  0  0  0  0  0  0  0
   -4.5430   -3.9221    0.0000 C   0  0  0  0  0  0  0  0  0  0  0  0
   -4.5474   -2.4221    0.0000 C   0  0  0  0  0  0  0  0  0  0  0  0
   -3.2506   -1.6684    0.0000 C   0  0  0  0  0  0  0  0  0  0  0  0
   -3.2549   -0.1683    0.0000 S   0  0  0  0  0  0  0  0  0  0  0  0
   -1.9582    0.5855    0.0000 C   0  0  0  0  0  0  0  0  0  0  0  0
   -1.9626    2.0855    0.0000 C   0  0  0  0  0  0  0  0  0  0  0  0
   -0.6658    2.8393    0.0000 C   0  0  0  0  0  0  0  0  0  0  0  0
    0.6354    2.0932    0.0000 C   0  0  0  0  0  0  0  0  0  0  0  0
    0.6399    0.5931    0.0000 C   0  0  0  0  0  0  0  0  0  0  0  0
   -0.6570   -0.1606    0.0000 C   0  0  0  0  0  0  0  0  0  0  0  0
  1  2  1  0  0  0  0
  1 10  1  0  0  0  0
  3  2  1  0  0  0  0
  2  7  1  0  0  0  0
  4  3  1  0  0  0  0
  4  5  1  0  0  0  0
  9  4  1  0  0  0  0
  5  6  1  0  0  0  0
  6  7  1  0  0  0  0
  7  8  1  0  0  0  0
  8  9  1  0  0  0  0
 11 10  1  0  0  0  0
 10 23  1  0  0  0  0
 12 11  2  0  0  0  0
 11 16  1  0  0  0  0
 13 12  1  0  0  0  0
 14 13  2  0  0  0  0
 15 14  1  0  0  0  0
 16 15  2  0  0  0  0
 17 16  1  0  0  0  0
 18 17  1  0  0  0  0
 19 18  2  0  0  0  0
 18 23  1  0  0  0  0
 20 19  1  0  0  0  0
 21 20  2  0  0  0  0
 22 21  1  0  0  0  0
 23 22  2  0  0  0  0
M  END
> <Inchi_key>
HOKDBMAJZXIPGC-UHFFFAOYSA-N

> <Source>
Mulliner

> <ID>
HT1313

> <H_MFHB>
1

> <CAS>
29216-28-2

> <Cholestasis>


> <Name>
mequitazine

> <Class>
1


$$$$