

  -INDIGO-08031710012D

 39 43  0  0  0  0  0  0  0  0999 V2000
   -0.3071    5.9759    0.0000 C   0  0  0  0  0  0  0  0  0  0  0  0
    1.1849    6.1295    0.0000 C   0  0  0  0  0  0  0  0  0  0  0  0
    2.1863    5.0129    0.0000 C   0  0  0  0  0  0  0  0  0  0  0  0
    3.5580    5.6202    0.0000 N   0  0  0  0  0  0  0  0  0  0  0  0
    3.4042    7.1123    0.0000 C   0  0  0  0  0  0  0  0  0  0  0  0
    1.9378    7.4271    0.0000 N   0  0  0  0  0  0  0  0  0  0  0  0
    4.8553    4.8675    0.0000 C   0  0  0  0  0  0  0  0  0  0  0  0
    6.1562    5.6150    0.0000 C   0  0  0  0  0  0  0  0  0  0  0  0
    7.4535    4.8623    0.0000 C   0  0  0  0  0  0  0  0  0  0  0  0
    8.7540    5.6096    0.0000 N   0  0  0  0  0  0  0  0  0  0  0  0
   10.0517    4.8570    0.0000 C   0  0  0  0  0  0  0  0  0  0  0  0
   10.0485    3.3571    0.0000 O   0  0  0  0  0  0  0  0  0  0  0  0
   11.3522    5.6042    0.0000 C   0  0  0  0  0  0  0  0  0  0  0  0
   11.3553    7.1043    0.0000 C   0  0  0  0  0  0  0  0  0  0  0  0
   12.6558    7.8517    0.0000 C   0  0  0  0  0  0  0  0  0  0  0  0
   13.9532    7.0991    0.0000 C   0  0  0  0  0  0  0  0  0  0  0  0
   15.2540    7.8463    0.0000 C   0  0  0  0  0  0  0  0  0  0  0  0
   13.9503    5.5990    0.0000 C   0  0  0  0  0  0  0  0  0  0  0  0
   15.2477    4.8464    0.0000 N   0  0  0  0  0  0  0  0  0  0  0  0
   15.2448    3.3463    0.0000 C   0  0  0  0  0  0  0  0  0  0  0  0
   13.9443    2.5991    0.0000 N   0  0  0  0  0  0  0  0  0  0  0  0
   13.9411    1.0990    0.0000 C   0  0  0  0  0  0  0  0  0  0  0  0
   15.2385    0.3464    0.0000 C   0  0  0  0  0  0  0  0  0  0  0  0
   16.5393    1.0938    0.0000 C   0  0  0  0  0  0  0  0  0  0  0  0
   16.5422    2.5939    0.0000 N   0  0  0  0  0  0  0  0  0  0  0  0
   17.8366    0.3410    0.0000 C   0  0  0  0  0  0  0  0  0  0  0  0
   17.8335   -1.1589    0.0000 C   0  0  0  0  0  0  0  0  0  0  0  0
   19.1311   -1.9115    0.0000 C   0  0  0  0  0  0  0  0  0  0  0  0
   20.4316   -1.1642    0.0000 C   0  0  0  0  0  0  0  0  0  0  0  0
   20.4348    0.3358    0.0000 N   0  0  0  0  0  0  0  0  0  0  0  0
   19.1371    1.0884    0.0000 C   0  0  0  0  0  0  0  0  0  0  0  0
   12.6498    4.8518    0.0000 C   0  0  0  0  0  0  0  0  0  0  0  0
    7.4507    3.3623    0.0000 C   0  0  0  0  0  0  0  0  0  0  0  0
    6.1502    2.6149    0.0000 C   0  0  0  0  0  0  0  0  0  0  0  0
    4.8525    3.3676    0.0000 C   0  0  0  0  0  0  0  0  0  0  0  0
    6.1470    1.1150    0.0000 C   0  0  0  0  0  0  0  0  0  0  0  0
    4.6468    1.1179    0.0000 F   0  0  0  0  0  0  0  0  0  0  0  0
    7.6469    1.1118    0.0000 F   0  0  0  0  0  0  0  0  0  0  0  0
    6.1438   -0.3851    0.0000 F   0  0  0  0  0  0  0  0  0  0  0  0
  1  2  1  0  0  0  0
  3  2  2  0  0  0  0
  2  6  1  0  0  0  0
  4  3  1  0  0  0  0
  5  4  1  0  0  0  0
  4  7  1  0  0  0  0
  6  5  2  0  0  0  0
  8  7  2  0  0  0  0
  7 35  1  0  0  0  0
  9  8  1  0  0  0  0
  9 10  1  0  0  0  0
 33  9  2  0  0  0  0
 10 11  1  0  0  0  0
 11 12  2  0  0  0  0
 11 13  1  0  0  0  0
 14 13  2  0  0  0  0
 13 32  1  0  0  0  0
 15 14  1  0  0  0  0
 16 15  2  0  0  0  0
 16 17  1  0  0  0  0
 18 16  1  0  0  0  0
 18 19  1  0  0  0  0
 32 18  2  0  0  0  0
 19 20  1  0  0  0  0
 21 20  2  0  0  0  0
 20 25  1  0  0  0  0
 22 21  1  0  0  0  0
 23 22  2  0  0  0  0
 24 23  1  0  0  0  0
 25 24  2  0  0  0  0
 24 26  1  0  0  0  0
 27 26  2  0  0  0  0
 26 31  1  0  0  0  0
 28 27  1  0  0  0  0
 29 28  2  0  0  0  0
 30 29  1  0  0  0  0
 31 30  2  0  0  0  0
 34 33  1  0  0  0  0
 35 34  2  0  0  0  0
 34 36  1  0  0  0  0
 36 37  1  0  0  0  0
 36 38  1  0  0  0  0
 36 39  1  0  0  0  0
M  END
> <Inchi_key>
HHZIURLSWUIHRB-UHFFFAOYSA-N

> <Source>
Mulliner

> <ID>
HT1492

> <H_MFHB>
1

> <CAS>
641571-10-0

> <Cholestasis>


> <Name>
nilotinib hydrochloride monohydrate

> <Class>
1


$$$$