
  -INDIGO-08031710012D

 37 41  0  0  0  0  0  0  0  0999 V2000
    3.4155    8.7663    0.0000 C   0  0  0  0  0  0  0  0  0  0  0  0
    4.5202    7.7514    0.0000 C   0  0  0  0  0  0  0  0  0  0  0  0
    5.9513    8.2006    0.0000 C   0  0  0  0  0  0  0  0  0  0  0  0
    4.1937    6.2873    0.0000 C   0  0  0  0  0  0  0  0  0  0  0  0
    5.1860    5.1627    0.0000 N   0  0  0  0  0  0  0  0  0  0  0  0
    4.4232    3.8711    0.0000 N   0  0  0  0  0  0  0  0  0  0  0  0
    2.9592    4.1978    0.0000 C   0  0  0  0  0  0  0  0  0  0  0  0
    1.8342    3.2052    0.0000 C   0  0  0  0  0  0  0  0  0  0  0  0
    2.8173    5.6911    0.0000 N   0  0  0  0  0  0  0  0  0  0  0  0
    1.5258    6.4540    0.0000 C   0  0  0  0  0  0  0  0  0  0  0  0
    0.3047    6.6755    0.0000 C   0  0  0  0  0  0  0  0  0  0  0  0
   -1.2575    5.7943    0.0000 C   0  0  0  0  0  0  0  0  0  0  0  0
   -1.4406    4.1791    0.0000 C   0  0  0  0  0  0  0  0  0  0  0  0
   -0.7863    5.3416    0.0000 C   0  0  0  0  0  0  0  0  0  0  0  0
   -0.9110    6.7760    0.0000 C   0  0  0  0  0  0  0  0  0  0  0  0
    0.5627    7.6380    0.0000 C   0  0  0  0  0  0  0  0  0  0  0  0
   -2.2105    6.9767    0.0000 N   0  0  0  0  0  0  0  0  0  0  0  0
   -3.5106    7.7250    0.0000 C   0  0  0  0  0  0  0  0  0  0  0  0
   -4.8087    6.9732    0.0000 C   0  0  0  0  0  0  0  0  0  0  0  0
   -6.1087    7.7213    0.0000 C   0  0  0  0  0  0  0  0  0  0  0  0
   -7.4068    6.9697    0.0000 N   0  0  0  0  0  0  0  0  0  0  0  0
   -7.4048    5.4697    0.0000 C   0  0  0  0  0  0  0  0  0  0  0  0
   -6.1047    4.7214    0.0000 O   0  0  0  0  0  0  0  0  0  0  0  0
   -8.7026    4.7181    0.0000 C   0  0  0  0  0  0  0  0  0  0  0  0
   -8.7009    3.2180    0.0000 C   0  0  0  0  0  0  0  0  0  0  0  0
   -9.9987    2.4664    0.0000 C   0  0  0  0  0  0  0  0  0  0  0  0
  -11.2987    3.2147    0.0000 C   0  0  0  0  0  0  0  0  0  0  0  0
  -12.0472    1.9145    0.0000 F   0  0  0  0  0  0  0  0  0  0  0  0
  -12.7988    3.2126    0.0000 F   0  0  0  0  0  0  0  0  0  0  0  0
  -11.3007    4.7146    0.0000 C   0  0  0  0  0  0  0  0  0  0  0  0
  -10.0027    5.4664    0.0000 C   0  0  0  0  0  0  0  0  0  0  0  0
   -6.1107    9.2214    0.0000 C   0  0  0  0  0  0  0  0  0  0  0  0
   -7.4108    9.9697    0.0000 C   0  0  0  0  0  0  0  0  0  0  0  0
   -7.4128   11.4696    0.0000 C   0  0  0  0  0  0  0  0  0  0  0  0
   -6.1147   12.2214    0.0000 C   0  0  0  0  0  0  0  0  0  0  0  0
   -4.8147   11.4733    0.0000 C   0  0  0  0  0  0  0  0  0  0  0  0
   -4.8127    9.9732    0.0000 C   0  0  0  0  0  0  0  0  0  0  0  0
  1  2  1  0  0  0  0
  2  3  1  0  0  0  0
  2  4  1  0  0  0  0
  5  4  2  0  0  0  0
  4  9  1  0  0  0  0
  6  5  1  0  0  0  0
  7  6  2  0  0  0  0
  7  8  1  0  0  0  0
  9  7  1  0  0  0  0
  9 10  1  0  0  0  0
 11 10  1  0  0  0  0
 10 16  1  0  0  0  0
 12 11  1  0  0  0  0
 12 13  1  0  0  0  0
 17 12  1  0  0  0  0
 13 14  1  0  0  0  0
 14 15  1  0  0  0  0
 16 15  1  0  0  0  0
 15 17  1  0  0  0  0
 17 18  1  0  0  0  0
 18 19  1  0  0  0  0
 19 20  1  0  0  0  0
 20 21  1  0  0  0  0
 20 32  1  0  0  0  0
 21 22  1  0  0  0  0
 22 23  2  0  0  0  0
 22 24  1  0  0  0  0
 25 24  1  0  0  0  0
 24 31  1  0  0  0  0
 26 25  1  0  0  0  0
 27 26  1  0  0  0  0
 27 28  1  0  0  0  0
 27 29  1  0  0  0  0
 30 27  1  0  0  0  0
 31 30  1  0  0  0  0
 33 32  2  0  0  0  0
 32 37  1  0  0  0  0
 34 33  1  0  0  0  0
 35 34  2  0  0  0  0
 36 35  1  0  0  0  0
 37 36  2  0  0  0  0
M  END
> <Inchi_key>
GSNHKUDZZFZSJB-UHFFFAOYSA-N

> <Source>
Mulliner

> <ID>
HT1271

> <H_MFHB>
1

> <CAS>


> <Cholestasis>


> <Name>
maraviroc

> <Class>
1

$$$$