
  -INDIGO-08031710012D

 33 36  0  0  0  0  0  0  0  0999 V2000
   -2.4687   -3.2176    0.0000 C   0  0  0  0  0  0  0  0  0  0  0  0
   -2.0807   -4.6662    0.0000 O   0  0  0  0  0  0  0  0  0  0  0  0
   -0.6316   -5.0546    0.0000 N   0  0  0  0  0  0  0  0  0  0  0  0
   -0.2435   -6.5035    0.0000 C   0  0  0  0  0  0  0  0  0  0  0  0
    1.2053   -6.8918    0.0000 C   0  0  0  0  0  0  0  0  0  0  0  0
    1.5936   -8.3406    0.0000 O   0  0  0  0  0  0  0  0  0  0  0  0
    2.2661   -5.8310    0.0000 N   0  0  0  0  0  0  0  0  0  0  0  0
    3.7150   -6.2192    0.0000 C   0  0  0  0  0  0  0  0  0  0  0  0
    5.0140   -5.4693    0.0000 C   0  0  0  0  0  0  0  0  0  0  0  0
    5.7640   -4.1702    0.0000 S   0  0  0  0  0  0  0  0  0  0  0  0
    7.2639   -4.1702    0.0000 C   0  0  0  0  0  0  0  0  0  0  0  0
    8.0139   -5.4693    0.0000 C   0  0  0  0  0  0  0  0  0  0  0  0
    7.2639   -6.7683    0.0000 C   0  0  0  0  0  0  0  0  0  0  0  0
    5.7640   -6.7683    0.0000 N   0  0  0  0  0  0  0  0  0  0  0  0
    4.4649   -7.5184    0.0000 C   0  0  0  0  0  0  0  0  0  0  0  0
    4.0766   -8.9672    0.0000 O   0  0  0  0  0  0  0  0  0  0  0  0
    8.0139   -8.0673    0.0000 C   0  0  0  0  0  0  0  0  0  0  0  0
    9.5141   -8.0673    0.0000 O   0  0  0  0  0  0  0  0  0  0  0  0
    7.2639   -9.3664    0.0000 O   0  0  0  0  0  0  0  0  0  0  0  0
    9.5141   -5.4693    0.0000 C   0  0  0  0  0  0  0  0  0  0  0  0
   10.2641   -4.1702    0.0000 S   0  0  0  0  0  0  0  0  0  0  0  0
   11.7640   -4.1702    0.0000 C   0  0  0  0  0  0  0  0  0  0  0  0
   12.6457   -5.3836    0.0000 N   0  0  0  0  0  0  0  0  0  0  0  0
   14.0722   -4.9201    0.0000 N   0  0  0  0  0  0  0  0  0  0  0  0
   14.0722   -3.4202    0.0000 N   0  0  0  0  0  0  0  0  0  0  0  0
   12.6457   -2.9567    0.0000 N   0  0  0  0  0  0  0  0  0  0  0  0
   12.1822   -1.5301    0.0000 C   0  0  0  0  0  0  0  0  0  0  0  0
   -1.3043   -7.5641    0.0000 C   0  0  0  0  0  0  0  0  0  0  0  0
   -1.0695   -9.0457    0.0000 C   0  0  0  0  0  0  0  0  0  0  0  0
   -2.4061   -9.7266    0.0000 S   0  0  0  0  0  0  0  0  0  0  0  0
   -3.4666   -8.6660    0.0000 C   0  0  0  0  0  0  0  0  0  0  0  0
   -4.9482   -8.9006    0.0000 N   0  0  0  0  0  0  0  0  0  0  0  0
   -2.7857   -7.3295    0.0000 N   0  0  0  0  0  0  0  0  0  0  0  0
  1  2  1  0  0  0  0
  2  3  1  0  0  0  0
  3  4  2  0  0  0  0
  4  5  1  0  0  0  0
  4 28  1  0  0  0  0
  5  6  2  0  0  0  0
  5  7  1  0  0  0  0
  7  8  1  0  0  0  0
  9  8  1  0  0  0  0
  8 15  1  0  0  0  0
 10  9  1  0  0  0  0
  9 14  1  0  0  0  0
 11 10  1  0  0  0  0
 12 11  1  0  0  0  0
 13 12  2  0  0  0  0
 12 20  1  0  0  0  0
 14 13  1  0  0  0  0
 13 17  1  0  0  0  0
 15 14  1  0  0  0  0
 15 16  2  0  0  0  0
 17 18  2  0  0  0  0
 17 19  1  0  0  0  0
 20 21  1  0  0  0  0
 21 22  1  0  0  0  0
 23 22  2  0  0  0  0
 22 26  1  0  0  0  0
 24 23  1  0  0  0  0
 25 24  2  0  0  0  0
 26 25  1  0  0  0  0
 26 27  1  0  0  0  0
 29 28  2  0  0  0  0
 28 33  1  0  0  0  0
 30 29  1  0  0  0  0
 31 30  1  0  0  0  0
 31 32  1  0  0  0  0
 33 31  2  0  0  0  0
M  END
> <Inchi_key>
HJJDBAOLQAWBMH-ODCIPOBUSA-N

> <Source>
Mulliner

> <ID>
HT0406

> <H_MFHB>
1

> <CAS>
75738-58-8

> <Cholestasis>


> <Name>
cefmenoxime hydrochloride;cefmenoxime

> <Class>
1

$$$$