

  -INDIGO-08031710012D

 21 22  0  0  0  0  0  0  0  0999 V2000
    0.0000   -1.5752    0.0000 N   0  0  0  0  0  0  0  0  0  0  0  0
    1.5000   -1.5752    0.0000 S   0  0  0  0  0  0  0  0  0  0  0  0
    1.5000   -0.0752    0.0000 O   0  0  0  0  0  0  0  0  0  0  0  0
    1.5000   -3.0752    0.0000 O   0  0  0  0  0  0  0  0  0  0  0  0
    3.0000   -1.5752    0.0000 C   0  0  0  0  0  0  0  0  0  0  0  0
    3.7500   -0.2761    0.0000 C   0  0  0  0  0  0  0  0  0  0  0  0
    5.2500   -0.2761    0.0000 C   0  0  0  0  0  0  0  0  0  0  0  0
    6.0000   -1.5752    0.0000 C   0  0  0  0  0  0  0  0  0  0  0  0
    7.5000   -1.5752    0.0000 N   0  0  0  0  0  0  0  0  0  0  0  0
    8.2500   -0.2761    0.0000 C   0  0  0  0  0  0  0  0  0  0  0  0
    7.5000    1.0229    0.0000 N   0  0  0  0  0  0  0  0  0  0  0  0
    6.0000    1.0229    0.0000 S   0  0  0  0  0  0  0  0  0  0  0  0
    6.0000    2.5229    0.0000 O   0  0  0  0  0  0  0  0  0  0  0  0
    4.7010    1.7729    0.0000 O   0  0  0  0  0  0  0  0  0  0  0  0
    9.7500   -0.2761    0.0000 C   0  0  0  0  0  0  0  0  0  0  0  0
   11.2500   -0.2761    0.0000 Cl  0  0  0  0  0  0  0  0  0  0  0  0
    9.7500   -1.7761    0.0000 Cl  0  0  0  0  0  0  0  0  0  0  0  0
    9.7500    1.2239    0.0000 Cl  0  0  0  0  0  0  0  0  0  0  0  0
    5.2500   -2.8742    0.0000 C   0  0  0  0  0  0  0  0  0  0  0  0
    3.7500   -2.8742    0.0000 C   0  0  0  0  0  0  0  0  0  0  0  0
    3.0000   -4.1733    0.0000 Cl  0  0  0  0  0  0  0  0  0  0  0  0
  1  2  1  0  0  0  0
  2  3  2  0  0  0  0
  2  4  2  0  0  0  0
  2  5  1  0  0  0  0
  6  5  2  0  0  0  0
  5 20  1  0  0  0  0
  7  6  1  0  0  0  0
  7  8  2  0  0  0  0
 12  7  1  0  0  0  0
  8  9  1  0  0  0  0
 19  8  1  0  0  0  0
  9 10  1  0  0  0  0
 10 11  1  0  0  0  0
 10 15  1  0  0  0  0
 11 12  1  0  0  0  0
 12 13  2  0  0  0  0
 12 14  2  0  0  0  0
 15 16  1  0  0  0  0
 15 17  1  0  0  0  0
 15 18  1  0  0  0  0
 20 19  2  0  0  0  0
 20 21  1  0  0  0  0
M  END
> <Inchi_key>
GUTZRTRUIMWMJZ-UHFFFAOYSA-N

> <Source>
Mulliner

> <ID>
HT1988

> <H_MFHB>
1

> <CAS>


> <Cholestasis>


> <Name>
teclothiazide

> <Class>
1


$$$$