

  -INDIGO-08031710012D

 18 18  0  0  0  0  0  0  0  0999 V2000
    0.0196    7.8138    0.0000 C   0  0  0  0  0  0  0  0  0  0  0  0
    0.0196    6.3138    0.0000 C   0  0  0  0  0  0  0  0  0  0  0  0
   -1.2795    5.5638    0.0000 C   0  0  0  0  0  0  0  0  0  0  0  0
   -1.2795    4.0638    0.0000 C   0  0  0  0  0  0  0  0  0  0  0  0
    0.0196    3.3138    0.0000 C   0  0  0  0  0  0  0  0  0  0  0  0
    0.0196    1.8138    0.0000 C   0  0  0  0  0  0  0  0  0  0  0  0
    1.3185    4.0638    0.0000 C   0  0  0  0  0  0  0  0  0  0  0  0
    2.6176    3.3138    0.0000 O   0  0  0  0  0  0  0  0  0  0  0  0
    3.9167    4.0638    0.0000 C   0  0  0  0  0  0  0  0  0  0  0  0
    5.2157    3.3138    0.0000 C   0  0  0  0  0  0  0  0  0  0  0  0
    6.5148    4.0638    0.0000 C   0  0  0  0  0  0  0  0  0  0  0  0
    7.8139    3.3138    0.0000 C   0  0  0  0  0  0  0  0  0  0  0  0
    7.0639    2.0147    0.0000 C   0  0  0  0  0  0  0  0  0  0  0  0
    8.5639    4.6128    0.0000 C   0  0  0  0  0  0  0  0  0  0  0  0
    9.1128    2.5638    0.0000 C   0  0  0  0  0  0  0  0  0  0  0  0
   10.4119    3.3138    0.0000 O   0  0  0  0  0  0  0  0  0  0  0  0
    9.1128    1.0638    0.0000 O   0  0  0  0  0  0  0  0  0  0  0  0
    1.3185    5.5638    0.0000 C   0  0  0  0  0  0  0  0  0  0  0  0
  1  2  1  0  0  0  0
  3  2  2  0  0  0  0
  2 18  1  0  0  0  0
  4  3  1  0  0  0  0
  5  4  2  0  0  0  0
  5  6  1  0  0  0  0
  7  5  1  0  0  0  0
  7  8  1  0  0  0  0
 18  7  2  0  0  0  0
  8  9  1  0  0  0  0
  9 10  1  0  0  0  0
 10 11  1  0  0  0  0
 11 12  1  0  0  0  0
 12 13  1  0  0  0  0
 12 14  1  0  0  0  0
 12 15  1  0  0  0  0
 15 16  2  0  0  0  0
 15 17  1  0  0  0  0
M  END
> <Inchi_key>
HEMJJKBWTPKOJG-UHFFFAOYSA-N

> <Source>
Mulliner

> <ID>
HT0970

> <H_MFHB>
1

> <CAS>
25812-30-0

> <Cholestasis>


> <Name>
gemfibrozil

> <Class>
1


$$$$