
  -INDIGO-08031710012D

 23 25  0  0  0  0  0  0  0  0999 V2000
   14.6387    3.8758    0.0000 C   0  0  0  0  0  0  0  0  0  0  0  0
   13.3352    3.1337    0.0000 N   0  0  0  0  0  0  0  0  0  0  0  0
   12.0407    3.8913    0.0000 S   0  0  0  0  0  0  0  0  0  0  0  0
   12.7983    5.1858    0.0000 O   0  0  0  0  0  0  0  0  0  0  0  0
   11.2830    2.5967    0.0000 O   0  0  0  0  0  0  0  0  0  0  0  0
   10.7461    4.6490    0.0000 C   0  0  0  0  0  0  0  0  0  0  0  0
    9.4426    3.9066    0.0000 C   0  0  0  0  0  0  0  0  0  0  0  0
    8.1480    4.6644    0.0000 C   0  0  0  0  0  0  0  0  0  0  0  0
    8.1569    6.1644    0.0000 C   0  0  0  0  0  0  0  0  0  0  0  0
    6.8623    6.9221    0.0000 C   0  0  0  0  0  0  0  0  0  0  0  0
    5.5591    6.1799    0.0000 C   0  0  0  0  0  0  0  0  0  0  0  0
    4.1353    6.6518    0.0000 N   0  0  0  0  0  0  0  0  0  0  0  0
    3.2464    5.4436    0.0000 C   0  0  0  0  0  0  0  0  0  0  0  0
    4.1207    4.2247    0.0000 C   0  0  0  0  0  0  0  0  0  0  0  0
    3.6487    2.8010    0.0000 C   0  0  0  0  0  0  0  0  0  0  0  0
    2.1797    2.4978    0.0000 C   0  0  0  0  0  0  0  0  0  0  0  0
    1.7077    1.0741    0.0000 C   0  0  0  0  0  0  0  0  0  0  0  0
    2.7047   -0.0466    0.0000 N   0  0  0  0  0  0  0  0  0  0  0  0
    2.2328   -1.4704    0.0000 C   0  0  0  0  0  0  0  0  0  0  0  0
    4.1737    0.2566    0.0000 C   0  0  0  0  0  0  0  0  0  0  0  0
    4.6457    1.6804    0.0000 C   0  0  0  0  0  0  0  0  0  0  0  0
    5.5500    4.6799    0.0000 C   0  0  0  0  0  0  0  0  0  0  0  0
    6.8446    3.9223    0.0000 C   0  0  0  0  0  0  0  0  0  0  0  0
  1  2  1  0  0  0  0
  2  3  1  0  0  0  0
  3  4  2  0  0  0  0
  3  5  2  0  0  0  0
  3  6  1  0  0  0  0
  6  7  1  0  0  0  0
  7  8  1  0  0  0  0
  9  8  2  0  0  0  0
  8 23  1  0  0  0  0
 10  9  1  0  0  0  0
 11 10  2  0  0  0  0
 12 11  1  0  0  0  0
 11 22  1  0  0  0  0
 13 12  1  0  0  0  0
 14 13  2  0  0  0  0
 14 15  1  0  0  0  0
 22 14  1  0  0  0  0
 16 15  1  0  0  0  0
 15 21  1  0  0  0  0
 17 16  1  0  0  0  0
 18 17  1  0  0  0  0
 18 19  1  0  0  0  0
 20 18  1  0  0  0  0
 21 20  1  0  0  0  0
 23 22  2  0  0  0  0
M  END
> <Inchi_key>
AMKVXSZCKVJAGH-UHFFFAOYSA-N

> <Source>
Mulliner

> <ID>
HT1465

> <H_MFHB>
1

> <CAS>


> <Cholestasis>


> <Name>
naratriptan hydrochloride;naratriptan

> <Class>
1

$$$$