
  -INDIGO-08031710012D

 19 21  0  0  0  0  0  0  0  0999 V2000
   -0.6612    6.3499    0.0000 N   0  0  0  0  0  0  0  0  0  0  0  0
   -0.6612    4.8499    0.0000 C   0  0  0  0  0  0  0  0  0  0  0  0
   -1.9603    4.0999    0.0000 C   0  0  0  0  0  0  0  0  0  0  0  0
   -1.9603    2.5999    0.0000 C   0  0  0  0  0  0  0  0  0  0  0  0
   -0.6612    1.8499    0.0000 C   0  0  0  0  0  0  0  0  0  0  0  0
    0.6378    2.5999    0.0000 C   0  0  0  0  0  0  0  0  0  0  0  0
    2.0644    2.1364    0.0000 C   0  0  0  0  0  0  0  0  0  0  0  0
    2.5279    0.7098    0.0000 O   0  0  0  0  0  0  0  0  0  0  0  0
    2.9461    3.3499    0.0000 N   0  0  0  0  0  0  0  0  0  0  0  0
    2.0644    4.5634    0.0000 C   0  0  0  0  0  0  0  0  0  0  0  0
    0.6378    4.0999    0.0000 C   0  0  0  0  0  0  0  0  0  0  0  0
    4.4460    3.3499    0.0000 C   0  0  0  0  0  0  0  0  0  0  0  0
    5.1961    2.0509    0.0000 C   0  0  0  0  0  0  0  0  0  0  0  0
    6.6960    2.0509    0.0000 C   0  0  0  0  0  0  0  0  0  0  0  0
    7.4461    3.3499    0.0000 C   0  0  0  0  0  0  0  0  0  0  0  0
    8.9460    3.3499    0.0000 O   0  0  0  0  0  0  0  0  0  0  0  0
    6.6960    4.6489    0.0000 N   0  0  0  0  0  0  0  0  0  0  0  0
    5.1961    4.6489    0.0000 C   0  0  0  0  0  0  0  0  0  0  0  0
    4.4460    5.9480    0.0000 O   0  0  0  0  0  0  0  0  0  0  0  0
  1  2  1  0  0  0  0
  3  2  2  0  0  0  0
  2 11  1  0  0  0  0
  4  3  1  0  0  0  0
  5  4  2  0  0  0  0
  6  5  1  0  0  0  0
  7  6  1  0  0  0  0
  6 11  2  0  0  0  0
  7  8  2  0  0  0  0
  9  7  1  0  0  0  0
 10  9  1  0  0  0  0
  9 12  1  0  0  0  0
 11 10  1  0  0  0  0
 13 12  1  0  0  0  0
 12 18  1  0  0  0  0
 14 13  1  0  0  0  0
 15 14  1  0  0  0  0
 15 16  2  0  0  0  0
 17 15  1  0  0  0  0
 18 17  1  0  0  0  0
 18 19  2  0  0  0  0
M  END
> <Inchi_key>
GOTYRUGSSMKFNF-UHFFFAOYSA-N

> <Source>
Mulliner

> <ID>
HT1183

> <H_MFHB>
1

> <CAS>
191732-72-6

> <Cholestasis>


> <Name>
lenalidomide

> <Class>
1

$$$$