

  -INDIGO-08031710012D

 32 35  0  0  0  0  0  0  0  0999 V2000
    7.8771   -7.8552    0.0000 C   0  0  0  0  0  0  0  0  0  0  0  0
    7.8731   -6.3554    0.0000 C   0  0  0  0  0  0  0  0  0  0  0  0
    9.1699   -5.6018    0.0000 C   0  0  0  0  0  0  0  0  0  0  0  0
    9.1659   -4.1019    0.0000 C   0  0  0  0  0  0  0  0  0  0  0  0
    7.8648   -3.3554    0.0000 C   0  0  0  0  0  0  0  0  0  0  0  0
    6.5677   -4.1089    0.0000 C   0  0  0  0  0  0  0  0  0  0  0  0
    6.5720   -5.6091    0.0000 C   0  0  0  0  0  0  0  0  0  0  0  0
    5.2749   -6.3625    0.0000 C   0  0  0  0  0  0  0  0  0  0  0  0
    5.2792   -7.8625    0.0000 O   0  0  0  0  0  0  0  0  0  0  0  0
    3.9738   -5.6161    0.0000 N   0  0  0  0  0  0  0  0  0  0  0  0
    2.6767   -6.3697    0.0000 C   0  0  0  0  0  0  0  0  0  0  0  0
    1.3757   -5.6234    0.0000 C   0  0  0  0  0  0  0  0  0  0  0  0
    0.0788   -6.3769    0.0000 C   0  0  0  0  0  0  0  0  0  0  0  0
    0.0828   -7.8769    0.0000 C   0  0  0  0  0  0  0  0  0  0  0  0
   -1.2140   -8.6306    0.0000 C   0  0  0  0  0  0  0  0  0  0  0  0
   -1.2100  -10.1305    0.0000 O   0  0  0  0  0  0  0  0  0  0  0  0
   -2.5151   -7.8841    0.0000 N   0  0  0  0  0  0  0  0  0  0  0  0
   -2.4082   -6.3880    0.0000 C   0  0  0  0  0  0  0  0  0  0  0  0
   -3.5105   -5.3709    0.0000 C   0  0  0  0  0  0  0  0  0  0  0  0
   -4.9933   -5.5980    0.0000 C   0  0  0  0  0  0  0  0  0  0  0  0
   -5.7409   -6.8985    0.0000 C   0  0  0  0  0  0  0  0  0  0  0  0
   -7.2370   -6.7901    0.0000 O   0  0  0  0  0  0  0  0  0  0  0  0
   -5.1871   -8.2934    0.0000 C   0  0  0  0  0  0  0  0  0  0  0  0
   -6.2842   -9.3166    0.0000 C   0  0  0  0  0  0  0  0  0  0  0  0
   -5.9464  -10.7782    0.0000 C   0  0  0  0  0  0  0  0  0  0  0  0
   -7.0432  -11.8013    0.0000 Cl  0  0  0  0  0  0  0  0  0  0  0  0
   -4.5119  -11.2165    0.0000 C   0  0  0  0  0  0  0  0  0  0  0  0
   -3.4151  -10.1933    0.0000 C   0  0  0  0  0  0  0  0  0  0  0  0
   -3.7526   -8.7319    0.0000 C   0  0  0  0  0  0  0  0  0  0  0  0
    1.3842   -8.6233    0.0000 C   0  0  0  0  0  0  0  0  0  0  0  0
    1.3882  -10.1233    0.0000 C   0  0  0  0  0  0  0  0  0  0  0  0
    2.6810   -7.8697    0.0000 C   0  0  0  0  0  0  0  0  0  0  0  0
  1  2  1  0  0  0  0
  3  2  2  0  0  0  0
  2  7  1  0  0  0  0
  4  3  1  0  0  0  0
  5  4  2  0  0  0  0
  6  5  1  0  0  0  0
  7  6  2  0  0  0  0
  7  8  1  0  0  0  0
  8  9  2  0  0  0  0
  8 10  1  0  0  0  0
 10 11  1  0  0  0  0
 12 11  2  0  0  0  0
 11 32  1  0  0  0  0
 13 12  1  0  0  0  0
 14 13  2  0  0  0  0
 14 15  1  0  0  0  0
 30 14  1  0  0  0  0
 15 16  2  0  0  0  0
 15 17  1  0  0  0  0
 18 17  1  0  0  0  0
 17 29  1  0  0  0  0
 19 18  1  0  0  0  0
 20 19  1  0  0  0  0
 21 20  1  0  0  0  0
 21 22  1  0  0  0  0
 23 21  1  0  0  0  0
 24 23  1  0  0  0  0
 23 29  2  0  0  0  0
 25 24  2  0  0  0  0
 25 26  1  0  0  0  0
 27 25  1  0  0  0  0
 28 27  2  0  0  0  0
 29 28  1  0  0  0  0
 30 31  1  0  0  0  0
 32 30  2  0  0  0  0
M  END
> <Inchi_key>
GYHCTFXIZSNGJT-UHFFFAOYSA-N

> <Source>
Mulliner

> <ID>
HT2089

> <H_MFHB>
1

> <CAS>


> <Cholestasis>


> <Name>
tolvaptan

> <Class>
1


$$$$