

  -INDIGO-08031710012D

 18 19  0  0  0  0  0  0  0  0999 V2000
    4.0411    0.0000    0.0000 C   0  0  0  0  0  0  0  0  0  0  0  0
    2.5411    0.0000    0.0000 N   0  0  0  0  0  0  0  0  0  0  0  0
    1.7912    1.2990    0.0000 C   0  0  0  0  0  0  0  0  0  0  0  0
    1.7912   -1.2990    0.0000 C   0  0  0  0  0  0  0  0  0  0  0  0
    2.5411   -2.5981    0.0000 C   0  0  0  0  0  0  0  0  0  0  0  0
    1.7912   -3.8971    0.0000 N   0  0  0  0  0  0  0  0  0  0  0  0
    2.5411   -5.1963    0.0000 C   0  0  0  0  0  0  0  0  0  0  0  0
    4.0411   -5.1963    0.0000 C   0  0  0  0  0  0  0  0  0  0  0  0
    4.9228   -6.4097    0.0000 C   0  0  0  0  0  0  0  0  0  0  0  0
    6.3494   -5.9462    0.0000 C   0  0  0  0  0  0  0  0  0  0  0  0
    6.3494   -4.4461    0.0000 C   0  0  0  0  0  0  0  0  0  0  0  0
    4.9228   -3.9826    0.0000 S   0  0  0  0  0  0  0  0  0  0  0  0
    0.2910   -3.8971    0.0000 C   0  0  0  0  0  0  0  0  0  0  0  0
   -0.4589   -5.1963    0.0000 C   0  0  0  0  0  0  0  0  0  0  0  0
   -1.9589   -5.1963    0.0000 C   0  0  0  0  0  0  0  0  0  0  0  0
   -2.7089   -3.8971    0.0000 C   0  0  0  0  0  0  0  0  0  0  0  0
   -1.9589   -2.5981    0.0000 C   0  0  0  0  0  0  0  0  0  0  0  0
   -0.4589   -2.5981    0.0000 N   0  0  0  0  0  0  0  0  0  0  0  0
  1  2  1  0  0  0  0
  2  3  1  0  0  0  0
  2  4  1  0  0  0  0
  4  5  1  0  0  0  0
  5  6  1  0  0  0  0
  6  7  1  0  0  0  0
  6 13  1  0  0  0  0
  7  8  1  0  0  0  0
  9  8  2  0  0  0  0
  8 12  1  0  0  0  0
 10  9  1  0  0  0  0
 11 10  2  0  0  0  0
 12 11  1  0  0  0  0
 14 13  2  0  0  0  0
 13 18  1  0  0  0  0
 15 14  1  0  0  0  0
 16 15  2  0  0  0  0
 17 16  1  0  0  0  0
 18 17  2  0  0  0  0
M  END
> <Inchi_key>
HNJJXZKZRAWDPF-UHFFFAOYSA-N

> <Source>
Mulliner

> <ID>
HT1336

> <H_MFHB>
1

> <CAS>
135-23-9;91-80-5

> <Cholestasis>


> <Name>
methapyrilene

> <Class>
1


$$$$