

  -INDIGO-08031710012D

 26 26  0  0  0  0  0  0  0  0999 V2000
   21.1328    4.6926    0.0000 C   0  0  0  0  0  0  0  0  0  0  0  0
   19.6341    4.7520    0.0000 C   0  0  0  0  0  0  0  0  0  0  0  0
   18.8332    3.4837    0.0000 O   0  0  0  0  0  0  0  0  0  0  0  0
   17.3342    3.5431    0.0000 C   0  0  0  0  0  0  0  0  0  0  0  0
   16.6364    4.8709    0.0000 O   0  0  0  0  0  0  0  0  0  0  0  0
   16.5334    2.2748    0.0000 C   0  0  0  0  0  0  0  0  0  0  0  0
   15.0347    2.3342    0.0000 C   0  0  0  0  0  0  0  0  0  0  0  0
   14.2338    1.0659    0.0000 C   0  0  0  0  0  0  0  0  0  0  0  0
   14.3365    3.6620    0.0000 C   0  0  0  0  0  0  0  0  0  0  0  0
   12.8378    3.7214    0.0000 C   0  0  0  0  0  0  0  0  0  0  0  0
   12.0369    2.4531    0.0000 C   0  0  0  0  0  0  0  0  0  0  0  0
   10.5382    2.5125    0.0000 C   0  0  0  0  0  0  0  0  0  0  0  0
    9.7371    1.2442    0.0000 C   0  0  0  0  0  0  0  0  0  0  0  0
    9.5203    3.6144    0.0000 C   0  0  0  0  0  0  0  0  0  0  0  0
    8.0216    3.6738    0.0000 C   0  0  0  0  0  0  0  0  0  0  0  0
    6.9196    2.6560    0.0000 C   0  0  0  0  0  0  0  0  0  0  0  0
    6.9910    1.1577    0.0000 C   0  0  0  0  0  0  0  0  0  0  0  0
    8.3242    0.4704    0.0000 C   0  0  0  0  0  0  0  0  0  0  0  0
    5.7293    0.3467    0.0000 C   0  0  0  0  0  0  0  0  0  0  0  0
    4.3958    1.0340    0.0000 C   0  0  0  0  0  0  0  0  0  0  0  0
    3.1340    0.2229    0.0000 O   0  0  0  0  0  0  0  0  0  0  0  0
    3.2055   -1.2754    0.0000 C   0  0  0  0  0  0  0  0  0  0  0  0
    4.3244    2.5323    0.0000 C   0  0  0  0  0  0  0  0  0  0  0  0
    2.9912    3.2195    0.0000 C   0  0  0  0  0  0  0  0  0  0  0  0
    5.5864    3.3433    0.0000 C   0  0  0  0  0  0  0  0  0  0  0  0
    5.5150    4.8416    0.0000 C   0  0  0  0  0  0  0  0  0  0  0  0
  1  2  1  0  0  0  0
  2  3  1  0  0  0  0
  3  4  1  0  0  0  0
  4  5  2  0  0  0  0
  4  6  1  0  0  0  0
  6  7  2  0  0  0  0
  7  8  1  0  0  0  0
  7  9  1  0  0  0  0
  9 10  2  0  0  0  0
 10 11  1  0  0  0  0
 11 12  2  0  0  0  0
 12 13  1  0  0  0  0
 12 14  1  0  0  0  0
 14 15  2  0  0  0  0
 15 16  1  0  0  0  0
 17 16  2  0  0  0  0
 16 25  1  0  0  0  0
 17 18  1  0  0  0  0
 19 17  1  0  0  0  0
 20 19  2  0  0  0  0
 20 21  1  0  0  0  0
 23 20  1  0  0  0  0
 21 22  1  0  0  0  0
 23 24  1  0  0  0  0
 25 23  2  0  0  0  0
 25 26  1  0  0  0  0
M  END
> <Inchi_key>
HQMNCQVAMBCHCO-NEWHPHRFSA-N

> <Source>
Mulliner

> <ID>
HT0835

> <H_MFHB>
1

> <CAS>


> <Cholestasis>


> <Name>
etretinate

> <Class>
1


$$$$