
  -INDIGO-08031710012D

 30 32  0  0  0  0  0  0  0  0999 V2000
   -1.5369    8.5620    0.0000 C   0  0  0  0  0  0  0  0  0  0  0  0
   -1.1487    7.1131    0.0000 O   0  0  0  0  0  0  0  0  0  0  0  0
    0.3003    6.7249    0.0000 N   0  0  0  0  0  0  0  0  0  0  0  0
    0.6885    5.2760    0.0000 C   0  0  0  0  0  0  0  0  0  0  0  0
    2.1372    4.8878    0.0000 C   0  0  0  0  0  0  0  0  0  0  0  0
    2.5255    3.4389    0.0000 O   0  0  0  0  0  0  0  0  0  0  0  0
    3.1980    5.9484    0.0000 N   0  0  0  0  0  0  0  0  0  0  0  0
    4.6467    5.5602    0.0000 C   0  0  0  0  0  0  0  0  0  0  0  0
    5.9460    6.3103    0.0000 C   0  0  0  0  0  0  0  0  0  0  0  0
    6.6958    7.6093    0.0000 S   0  0  0  0  0  0  0  0  0  0  0  0
    8.1959    7.6093    0.0000 C   0  0  0  0  0  0  0  0  0  0  0  0
    8.9460    6.3103    0.0000 C   0  0  0  0  0  0  0  0  0  0  0  0
    8.1959    5.0112    0.0000 C   0  0  0  0  0  0  0  0  0  0  0  0
    6.6958    5.0112    0.0000 N   0  0  0  0  0  0  0  0  0  0  0  0
    5.3968    4.2612    0.0000 C   0  0  0  0  0  0  0  0  0  0  0  0
    5.0086    2.8123    0.0000 O   0  0  0  0  0  0  0  0  0  0  0  0
    8.9460    3.7121    0.0000 C   0  0  0  0  0  0  0  0  0  0  0  0
    8.1959    2.4131    0.0000 O   0  0  0  0  0  0  0  0  0  0  0  0
   10.4459    3.7121    0.0000 O   0  0  0  0  0  0  0  0  0  0  0  0
   10.4459    6.3103    0.0000 C   0  0  0  0  0  0  0  0  0  0  0  0
   11.1959    7.6093    0.0000 O   0  0  0  0  0  0  0  0  0  0  0  0
   12.6958    7.6093    0.0000 C   0  0  0  0  0  0  0  0  0  0  0  0
   13.4459    8.9083    0.0000 O   0  0  0  0  0  0  0  0  0  0  0  0
   13.4459    6.3103    0.0000 C   0  0  0  0  0  0  0  0  0  0  0  0
   -0.3722    4.2153    0.0000 C   0  0  0  0  0  0  0  0  0  0  0  0
   -0.1375    2.7338    0.0000 C   0  0  0  0  0  0  0  0  0  0  0  0
   -1.4740    2.0528    0.0000 S   0  0  0  0  0  0  0  0  0  0  0  0
   -2.5348    3.1135    0.0000 C   0  0  0  0  0  0  0  0  0  0  0  0
   -4.0163    2.8788    0.0000 N   0  0  0  0  0  0  0  0  0  0  0  0
   -1.8537    4.4500    0.0000 N   0  0  0  0  0  0  0  0  0  0  0  0
  1  2  1  0  0  0  0
  2  3  1  0  0  0  0
  3  4  2  0  0  0  0
  4  5  1  0  0  0  0
  4 25  1  0  0  0  0
  5  6  2  0  0  0  0
  5  7  1  0  0  0  0
  7  8  1  0  0  0  0
  9  8  1  0  0  0  0
  8 15  1  0  0  0  0
 10  9  1  0  0  0  0
  9 14  1  0  0  0  0
 11 10  1  0  0  0  0
 12 11  1  0  0  0  0
 13 12  2  0  0  0  0
 12 20  1  0  0  0  0
 14 13  1  0  0  0  0
 13 17  1  0  0  0  0
 15 14  1  0  0  0  0
 15 16  2  0  0  0  0
 17 18  2  0  0  0  0
 17 19  1  0  0  0  0
 20 21  1  0  0  0  0
 21 22  1  0  0  0  0
 22 23  2  0  0  0  0
 22 24  1  0  0  0  0
 26 25  2  0  0  0  0
 25 30  1  0  0  0  0
 27 26  1  0  0  0  0
 28 27  1  0  0  0  0
 28 29  1  0  0  0  0
 30 28  2  0  0  0  0
M  END
> <Inchi_key>
GPRBEKHLDVQUJE-AWQFTUOYSA-N, GPRBEKHLDVQUJE-UKWGHVSLSA-N

> <Source>
Mulliner,  Kotsampasakou

> <ID>
EK0108;HT0412

> <H_MFHB>
1

> <CAS>


> <Cholestasis>
1

> <Name>
cefotaxime sodium;cefotaxime

> <Class>
1

$$$$