
  -INDIGO-08031710012D

 12 12  0  0  0  0  0  0  0  0999 V2000
    6.1330    2.5911    0.0000 C   0  0  0  0  0  0  0  0  0  0  0  0
    4.6330    2.5911    0.0000 C   0  0  0  0  0  0  0  0  0  0  0  0
    3.8830    1.2920    0.0000 C   0  0  0  0  0  0  0  0  0  0  0  0
    2.3830    1.2920    0.0000 N   0  0  0  0  0  0  0  0  0  0  0  0
    1.5013    0.0785    0.0000 C   0  0  0  0  0  0  0  0  0  0  0  0
    0.0747    0.5420    0.0000 C   0  0  0  0  0  0  0  0  0  0  0  0
    0.0747    2.0420    0.0000 C   0  0  0  0  0  0  0  0  0  0  0  0
    1.5013    2.5056    0.0000 C   0  0  0  0  0  0  0  0  0  0  0  0
    1.9649    3.9321    0.0000 O   0  0  0  0  0  0  0  0  0  0  0  0
    4.6330   -0.0070    0.0000 C   0  0  0  0  0  0  0  0  0  0  0  0
    3.8830   -1.3060    0.0000 O   0  0  0  0  0  0  0  0  0  0  0  0
    6.1330   -0.0070    0.0000 N   0  0  0  0  0  0  0  0  0  0  0  0
  1  2  1  0  0  0  0
  2  3  1  0  0  0  0
  3  4  1  0  0  0  0
  3 10  1  0  0  0  0
  5  4  1  0  0  0  0
  4  8  1  0  0  0  0
  6  5  1  0  0  0  0
  7  6  1  0  0  0  0
  8  7  1  0  0  0  0
  8  9  2  0  0  0  0
 10 11  2  0  0  0  0
 10 12  1  0  0  0  0
M  END
> <Inchi_key>
HPHUVLMMVZITSG-UHFFFAOYSA-N

> <Source>
Mulliner

> <ID>
HT1192

> <H_MFHB>
1

> <CAS>


> <Cholestasis>


> <Name>
levetiracetam

> <Class>
1

$$$$