

  -INDIGO-08031710012D

 30 32  0  0  0  0  0  0  0  0999 V2000
    7.1619    1.5711    0.0000 C   0  0  0  0  0  0  0  0  0  0  0  0
    6.6979    2.9976    0.0000 C   0  0  0  0  0  0  0  0  0  0  0  0
    7.7011    4.1127    0.0000 C   0  0  0  0  0  0  0  0  0  0  0  0
    9.1684    3.8013    0.0000 C   0  0  0  0  0  0  0  0  0  0  0  0
   10.1716    4.9164    0.0000 C   0  0  0  0  0  0  0  0  0  0  0  0
   11.6391    4.6051    0.0000 C   0  0  0  0  0  0  0  0  0  0  0  0
   13.1064    4.2938    0.0000 C   0  0  0  0  0  0  0  0  0  0  0  0
   11.3277    3.1378    0.0000 C   0  0  0  0  0  0  0  0  0  0  0  0
   11.9503    6.0725    0.0000 O   0  0  0  0  0  0  0  0  0  0  0  0
    5.2306    3.3089    0.0000 C   0  0  0  0  0  0  0  0  0  0  0  0
    4.6199    4.6790    0.0000 C   0  0  0  0  0  0  0  0  0  0  0  0
    3.1281    4.5216    0.0000 C   0  0  0  0  0  0  0  0  0  0  0  0
    2.8169    3.0543    0.0000 C   0  0  0  0  0  0  0  0  0  0  0  0
    1.5180    2.3038    0.0000 C   0  0  0  0  0  0  0  0  0  0  0  0
    0.2187    3.0533    0.0000 C   0  0  0  0  0  0  0  0  0  0  0  0
   -1.0800    2.3028    0.0000 C   0  0  0  0  0  0  0  0  0  0  0  0
   -2.3793    3.0523    0.0000 C   0  0  0  0  0  0  0  0  0  0  0  0
   -3.6780    2.3018    0.0000 C   0  0  0  0  0  0  0  0  0  0  0  0
   -4.9775    3.0513    0.0000 C   0  0  0  0  0  0  0  0  0  0  0  0
   -6.2762    2.3008    0.0000 O   0  0  0  0  0  0  0  0  0  0  0  0
   -4.9781    4.5513    0.0000 C   0  0  0  0  0  0  0  0  0  0  0  0
   -3.6791    5.3018    0.0000 C   0  0  0  0  0  0  0  0  0  0  0  0
   -3.6797    6.8018    0.0000 O   0  0  0  0  0  0  0  0  0  0  0  0
   -2.3799    4.5523    0.0000 C   0  0  0  0  0  0  0  0  0  0  0  0
   -1.0812    5.3028    0.0000 C   0  0  0  0  0  0  0  0  0  0  0  0
    1.5185    0.8039    0.0000 C   0  0  0  0  0  0  0  0  0  0  0  0
    2.8178    0.0543    0.0000 C   0  0  0  0  0  0  0  0  0  0  0  0
    4.1168    0.8048    0.0000 C   0  0  0  0  0  0  0  0  0  0  0  0
    4.1162    2.3048    0.0000 C   0  0  0  0  0  0  0  0  0  0  0  0
    5.4758    1.6713    0.0000 C   0  0  0  0  0  0  0  0  0  0  0  0
  1  2  1  0  0  0  0
  2  3  1  0  0  0  0
  2 10  1  0  0  0  0
  3  4  1  0  0  0  0
  4  5  1  0  0  0  0
  5  6  1  0  0  0  0
  6  7  1  0  0  0  0
  6  8  1  0  0  0  0
  6  9  1  0  0  0  0
 11 10  1  0  0  0  0
 10 29  1  0  0  0  0
 12 11  1  0  0  0  0
 13 12  1  0  0  0  0
 14 13  1  0  0  0  0
 13 29  1  0  0  0  0
 14 15  2  0  0  0  0
 26 14  1  0  0  0  0
 15 16  1  0  0  0  0
 16 17  2  0  0  0  0
 18 17  1  0  0  0  0
 17 24  1  0  0  0  0
 19 18  1  0  0  0  0
 19 20  1  0  0  0  0
 21 19  1  0  0  0  0
 22 21  1  0  0  0  0
 22 23  1  0  0  0  0
 24 22  1  0  0  0  0
 24 25  2  0  0  0  0
 27 26  1  0  0  0  0
 28 27  1  0  0  0  0
 29 28  1  0  0  0  0
 29 30  1  0  0  0  0
M  END
> <Inchi_key>
GMRQFYUYWCNGIN-KWJBEKLWSA-N

> <Source>
Mulliner

> <ID>
HT0351

> <H_MFHB>
1

> <CAS>
32222-06-3

> <Cholestasis>


> <Name>
calcitriol

> <Class>
1


$$$$