

  -INDIGO-08031710012D

 27 29  0  0  0  0  0  0  0  0999 V2000
    0.3236    3.1366    0.0000 N   0  0  0  0  0  0  0  0  0  0  0  0
    1.6225    2.3866    0.0000 S   0  0  0  0  0  0  0  0  0  0  0  0
    0.8727    1.0876    0.0000 O   0  0  0  0  0  0  0  0  0  0  0  0
    2.3726    3.6856    0.0000 O   0  0  0  0  0  0  0  0  0  0  0  0
    2.9217    1.6366    0.0000 C   0  0  0  0  0  0  0  0  0  0  0  0
    4.2206    2.3866    0.0000 C   0  0  0  0  0  0  0  0  0  0  0  0
    5.5198    1.6366    0.0000 C   0  0  0  0  0  0  0  0  0  0  0  0
    5.5198    0.1366    0.0000 C   0  0  0  0  0  0  0  0  0  0  0  0
    6.8189   -0.6134    0.0000 N   0  0  0  0  0  0  0  0  0  0  0  0
    8.1178    0.1366    0.0000 C   0  0  0  0  0  0  0  0  0  0  0  0
    9.4170   -0.6134    0.0000 C   0  0  0  0  0  0  0  0  0  0  0  0
   10.7159    0.1366    0.0000 C   0  0  0  0  0  0  0  0  0  0  0  0
   12.0149   -0.6134    0.0000 C   0  0  0  0  0  0  0  0  0  0  0  0
   13.3140    0.1366    0.0000 C   0  0  0  0  0  0  0  0  0  0  0  0
   13.3140    1.6366    0.0000 C   0  0  0  0  0  0  0  0  0  0  0  0
   12.0149    2.3866    0.0000 C   0  0  0  0  0  0  0  0  0  0  0  0
   10.7159    1.6366    0.0000 C   0  0  0  0  0  0  0  0  0  0  0  0
    8.1178    1.6366    0.0000 N   0  0  0  0  0  0  0  0  0  0  0  0
    6.8189    2.3866    0.0000 S   0  0  0  0  0  0  0  0  0  0  0  0
    6.0688    3.6856    0.0000 O   0  0  0  0  0  0  0  0  0  0  0  0
    7.5688    3.6856    0.0000 O   0  0  0  0  0  0  0  0  0  0  0  0
    4.2206   -0.6134    0.0000 C   0  0  0  0  0  0  0  0  0  0  0  0
    2.9217    0.1366    0.0000 C   0  0  0  0  0  0  0  0  0  0  0  0
    1.9575   -1.0125    0.0000 C   0  0  0  0  0  0  0  0  0  0  0  0
    0.8084   -0.0483    0.0000 F   0  0  0  0  0  0  0  0  0  0  0  0
    3.1064   -1.9767    0.0000 F   0  0  0  0  0  0  0  0  0  0  0  0
    0.9934   -2.1615    0.0000 F   0  0  0  0  0  0  0  0  0  0  0  0
  1  2  1  0  0  0  0
  2  3  2  0  0  0  0
  2  4  2  0  0  0  0
  2  5  1  0  0  0  0
  6  5  2  0  0  0  0
  5 23  1  0  0  0  0
  7  6  1  0  0  0  0
  7  8  2  0  0  0  0
 19  7  1  0  0  0  0
  8  9  1  0  0  0  0
 22  8  1  0  0  0  0
  9 10  1  0  0  0  0
 10 11  1  0  0  0  0
 10 18  1  0  0  0  0
 11 12  1  0  0  0  0
 13 12  2  0  0  0  0
 12 17  1  0  0  0  0
 14 13  1  0  0  0  0
 15 14  2  0  0  0  0
 16 15  1  0  0  0  0
 17 16  2  0  0  0  0
 18 19  1  0  0  0  0
 19 20  2  0  0  0  0
 19 21  2  0  0  0  0
 23 22  2  0  0  0  0
 23 24  1  0  0  0  0
 24 25  1  0  0  0  0
 24 26  1  0  0  0  0
 24 27  1  0  0  0  0
M  END
> <Inchi_key>
HDWIHXWEUNVBIY-UHFFFAOYSA-N

> <Source>
Mulliner

> <ID>
HT0236

> <H_MFHB>
1

> <CAS>


> <Cholestasis>


> <Name>
bendroflumethiazide

> <Class>
1


$$$$