
  -INDIGO-08031710012D

 23 24  0  0  0  0  0  0  0  0999 V2000
    0.7658   -5.9047    0.0000 O   0  0  0  0  0  0  0  0  0  0  0  0
    1.7630   -4.7840    0.0000 C   0  0  0  0  0  0  0  0  0  0  0  0
    1.2910   -3.3602    0.0000 N   0  0  0  0  0  0  0  0  0  0  0  0
    3.2320   -5.0871    0.0000 C   0  0  0  0  0  0  0  0  0  0  0  0
    3.9896   -6.3817    0.0000 N   0  0  0  0  0  0  0  0  0  0  0  0
    4.2289   -3.9665    0.0000 C   0  0  0  0  0  0  0  0  0  0  0  0
    5.4550   -6.0611    0.0000 C   0  0  0  0  0  0  0  0  0  0  0  0
    5.6028   -4.5684    0.0000 N   0  0  0  0  0  0  0  0  0  0  0  0
    3.7569   -2.5427    0.0000 N   0  0  0  0  0  0  0  0  0  0  0  0
    6.8975   -3.8107    0.0000 C   0  0  0  0  0  0  0  0  0  0  0  0
    2.2880   -2.2395    0.0000 C   0  0  0  0  0  0  0  0  0  0  0  0
    8.2008   -4.5530    0.0000 O   0  0  0  0  0  0  0  0  0  0  0  0
    1.8160   -0.8157    0.0000 N   0  0  0  0  0  0  0  0  0  0  0  0
    9.4955   -3.7953    0.0000 C   0  0  0  0  0  0  0  0  0  0  0  0
   10.7988   -4.5375    0.0000 C   0  0  0  0  0  0  0  0  0  0  0  0
   12.0936   -3.7798    0.0000 O   0  0  0  0  0  0  0  0  0  0  0  0
   13.3971   -4.5221    0.0000 C   0  0  0  0  0  0  0  0  0  0  0  0
   14.6916   -3.7644    0.0000 C   0  0  0  0  0  0  0  0  0  0  0  0
   13.4059   -6.0221    0.0000 O   0  0  0  0  0  0  0  0  0  0  0  0
   15.9949   -4.5066    0.0000 C   0  0  0  0  0  0  0  0  0  0  0  0
   14.6825   -2.2644    0.0000 N   0  0  0  0  0  0  0  0  0  0  0  0
   17.2896   -3.7489    0.0000 C   0  0  0  0  0  0  0  0  0  0  0  0
   16.0040   -6.0066    0.0000 C   0  0  0  0  0  0  0  0  0  0  0  0
  1  2  2  0  0  0  0
  3  2  1  0  0  0  0
  2  4  1  0  0  0  0
  5  4  1  0  0  0  0
  4  6  2  0  0  0  0
  7  5  2  0  0  0  0
  6  8  1  0  0  0  0
  6  9  1  0  0  0  0
  8  7  1  0  0  0  0
  8 10  1  0  0  0  0
  9 11  2  0  0  0  0
 10 12  1  0  0  0  0
 11  3  1  0  0  0  0
 11 13  1  0  0  0  0
 12 14  1  0  0  0  0
 14 15  1  0  0  0  0
 15 16  1  0  0  0  0
 16 17  1  0  0  0  0
 17 18  1  0  0  0  0
 17 19  2  0  0  0  0
 18 20  1  0  0  0  0
 18 21  1  0  0  0  0
 20 22  1  0  0  0  0
 20 23  1  0  0  0  0
M  END
> <Inchi_key>
HDOVUKNUBWVHOX-UHFFFAOYSA-N

> <Source>
Mulliner

> <ID>
HT2160

> <H_MFHB>
1

> <CAS>


> <Cholestasis>


> <Name>
valacyclovir hydrochloride;valacyclovir

> <Class>
1

$$$$