
  -INDIGO-08031710012D

 14 15  0  0  0  0  0  0  0  0999 V2000
    9.5799   -1.3092    0.0000 O   0  0  0  0  0  0  0  0  0  0  0  0
    8.2728   -2.0452    0.0000 C   0  0  0  0  0  0  0  0  0  0  0  0
    6.9820   -1.2812    0.0000 C   0  0  0  0  0  0  0  0  0  0  0  0
    5.6748   -2.0172    0.0000 C   0  0  0  0  0  0  0  0  0  0  0  0
    5.5019   -3.5072    0.0000 O   0  0  0  0  0  0  0  0  0  0  0  0
    4.0314   -3.8032    0.0000 C   0  0  0  0  0  0  0  0  0  0  0  0
    2.7245   -4.5391    0.0000 C   0  0  0  0  0  0  0  0  0  0  0  0
    1.9885   -3.2321    0.0000 C   0  0  0  0  0  0  0  0  0  0  0  0
    0.5439   -2.8283    0.0000 O   0  0  0  0  0  0  0  0  0  0  0  0
    3.2956   -2.4961    0.0000 N   0  0  0  0  0  0  0  0  0  0  0  0
    4.3112   -1.3923    0.0000 C   0  0  0  0  0  0  0  0  0  0  0  0
    4.0152    0.0782    0.0000 C   0  0  0  0  0  0  0  0  0  0  0  0
    5.1407    1.0698    0.0000 O   0  0  0  0  0  0  0  0  0  0  0  0
    2.5936    0.5571    0.0000 O   0  0  0  0  0  0  0  0  0  0  0  0
  1  2  1  0  0  0  0
  2  3  1  0  0  0  0
  3  4  2  0  0  0  0
  5  4  1  0  0  0  0
  4 11  1  0  0  0  0
  6  5  1  0  0  0  0
  7  6  1  0  0  0  0
  6 10  1  0  0  0  0
  8  7  1  0  0  0  0
  8  9  2  0  0  0  0
 10  8  1  0  0  0  0
 11 10  1  0  0  0  0
 11 12  1  0  0  0  0
 12 13  2  0  0  0  0
 12 14  1  0  0  0  0
M  END
> <Inchi_key>
HZZVJAQRINQKSD-RJRFIUFISA-N

> <Source>
Mulliner , Kotsampasakou

> <ID>
EK0127;HT0505

> <H_MFHB>
1

> <CAS>
61177-45-5

> <Cholestasis>
1

> <Name>
clavulanic acid;clavulanate

> <Class>
1

$$$$