

  -INDIGO-08031710012D

 21 24  0  0  0  0  0  0  0  0999 V2000
   11.2098   -2.9136    0.0000 C   0  0  0  0  0  0  0  0  0  0  0  0
    9.9928   -2.0368    0.0000 N   0  0  0  0  0  0  0  0  0  0  0  0
    9.9868   -0.5368    0.0000 C   0  0  0  0  0  0  0  0  0  0  0  0
    8.5584   -0.0790    0.0000 C   0  0  0  0  0  0  0  0  0  0  0  0
    7.6816   -1.2960    0.0000 C   0  0  0  0  0  0  0  0  0  0  0  0
    6.1815   -1.3019    0.0000 C   0  0  0  0  0  0  0  0  0  0  0  0
    5.4264   -0.0059    0.0000 N   0  0  0  0  0  0  0  0  0  0  0  0
    3.9265   -0.0118    0.0000 C   0  0  0  0  0  0  0  0  0  0  0  0
    3.1816   -1.3139    0.0000 C   0  0  0  0  0  0  0  0  0  0  0  0
    1.6816   -1.3198    0.0000 C   0  0  0  0  0  0  0  0  0  0  0  0
    0.9264   -0.0238    0.0000 C   0  0  0  0  0  0  0  0  0  0  0  0
    1.6713    1.2782    0.0000 C   0  0  0  0  0  0  0  0  0  0  0  0
    3.1712    1.2842    0.0000 C   0  0  0  0  0  0  0  0  0  0  0  0
    3.9161    2.5862    0.0000 S   0  0  0  0  0  0  0  0  0  0  0  0
    5.4160    2.5922    0.0000 C   0  0  0  0  0  0  0  0  0  0  0  0
    6.1609    3.8942    0.0000 C   0  0  0  0  0  0  0  0  0  0  0  0
    7.6609    3.9001    0.0000 C   0  0  0  0  0  0  0  0  0  0  0  0
    8.4159    2.6041    0.0000 C   0  0  0  0  0  0  0  0  0  0  0  0
    7.6712    1.3021    0.0000 C   0  0  0  0  0  0  0  0  0  0  0  0
    6.1713    1.2961    0.0000 C   0  0  0  0  0  0  0  0  0  0  0  0
    8.5680   -2.5060    0.0000 C   0  0  0  0  0  0  0  0  0  0  0  0
  1  2  1  0  0  0  0
  3  2  1  0  0  0  0
  2 21  1  0  0  0  0
  4  3  1  0  0  0  0
  5  4  1  0  0  0  0
  5  6  1  0  0  0  0
 21  5  1  0  0  0  0
  6  7  1  0  0  0  0
  8  7  1  0  0  0  0
  7 20  1  0  0  0  0
  9  8  2  0  0  0  0
  8 13  1  0  0  0  0
 10  9  1  0  0  0  0
 11 10  2  0  0  0  0
 12 11  1  0  0  0  0
 13 12  2  0  0  0  0
 14 13  1  0  0  0  0
 15 14  1  0  0  0  0
 16 15  2  0  0  0  0
 15 20  1  0  0  0  0
 17 16  1  0  0  0  0
 18 17  2  0  0  0  0
 19 18  1  0  0  0  0
 20 19  2  0  0  0  0
M  END
> <Inchi_key>
HTMIBDQKFHUPSX-UHFFFAOYSA-N

> <Source>
Mulliner

> <ID>
HT1339

> <H_MFHB>
1

> <CAS>


> <Cholestasis>


> <Name>
methdilazine hydrochloride;methdilazine

> <Class>
1


$$$$