
  -INDIGO-08031710012D

 26 27  0  0  0  0  0  0  0  0999 V2000
   19.1383    7.2627    0.0000 O   0  0  0  0  0  0  0  0  0  0  0  0
   17.8393    8.0127    0.0000 C   0  0  0  0  0  0  0  0  0  0  0  0
   17.8393    9.5127    0.0000 O   0  0  0  0  0  0  0  0  0  0  0  0
   16.5402    7.2627    0.0000 C   0  0  0  0  0  0  0  0  0  0  0  0
   15.2412    8.0127    0.0000 C   0  0  0  0  0  0  0  0  0  0  0  0
   13.9422    7.2627    0.0000 N   0  0  0  0  0  0  0  0  0  0  0  0
   12.6431    8.0127    0.0000 C   0  0  0  0  0  0  0  0  0  0  0  0
   12.6431    9.5127    0.0000 O   0  0  0  0  0  0  0  0  0  0  0  0
   11.3441    7.2627    0.0000 C   0  0  0  0  0  0  0  0  0  0  0  0
   11.3441    5.7627    0.0000 C   0  0  0  0  0  0  0  0  0  0  0  0
   10.0451    5.0127    0.0000 C   0  0  0  0  0  0  0  0  0  0  0  0
    8.7460    5.7627    0.0000 C   0  0  0  0  0  0  0  0  0  0  0  0
    8.7460    7.2627    0.0000 C   0  0  0  0  0  0  0  0  0  0  0  0
   10.0451    8.0127    0.0000 C   0  0  0  0  0  0  0  0  0  0  0  0
    7.4470    5.0127    0.0000 N   0  0  0  0  0  0  0  0  0  0  0  0
    6.1480    5.7627    0.0000 N   0  0  0  0  0  0  0  0  0  0  0  0
    4.8489    5.0127    0.0000 C   0  0  0  0  0  0  0  0  0  0  0  0
    4.8489    3.5127    0.0000 C   0  0  0  0  0  0  0  0  0  0  0  0
    3.5499    2.7627    0.0000 C   0  0  0  0  0  0  0  0  0  0  0  0
    2.2509    3.5127    0.0000 C   0  0  0  0  0  0  0  0  0  0  0  0
    0.9518    2.7627    0.0000 O   0  0  0  0  0  0  0  0  0  0  0  0
    2.2509    5.0127    0.0000 C   0  0  0  0  0  0  0  0  0  0  0  0
    3.5499    5.7627    0.0000 C   0  0  0  0  0  0  0  0  0  0  0  0
    0.9518    5.7627    0.0000 C   0  0  0  0  0  0  0  0  0  0  0  0
    0.9518    7.2627    0.0000 O   0  0  0  0  0  0  0  0  0  0  0  0
   -0.3472    5.0127    0.0000 O   0  0  0  0  0  0  0  0  0  0  0  0
  1  2  1  0  0  0  0
  2  3  2  0  0  0  0
  2  4  1  0  0  0  0
  4  5  1  0  0  0  0
  5  6  1  0  0  0  0
  6  7  1  0  0  0  0
  7  8  2  0  0  0  0
  7  9  1  0  0  0  0
 10  9  2  0  0  0  0
  9 14  1  0  0  0  0
 11 10  1  0  0  0  0
 12 11  2  0  0  0  0
 13 12  1  0  0  0  0
 12 15  1  0  0  0  0
 14 13  2  0  0  0  0
 15 16  2  0  0  0  0
 16 17  1  0  0  0  0
 18 17  2  0  0  0  0
 17 23  1  0  0  0  0
 19 18  1  0  0  0  0
 20 19  2  0  0  0  0
 20 21  1  0  0  0  0
 22 20  1  0  0  0  0
 23 22  2  0  0  0  0
 22 24  1  0  0  0  0
 24 25  2  0  0  0  0
 24 26  1  0  0  0  0
M  END
> <Inchi_key>
IPOKCKJONYRRHP-FMQUCBEESA-N

> <Source>
Mulliner

> <ID>
HT0224

> <H_MFHB>
1

> <CAS>


> <Cholestasis>


> <Name>
balsalazide disodium;balsalazide

> <Class>
1

$$$$