

  -INDIGO-08031710012D

 32 35  0  0  0  0  0  0  0  0999 V2000
   11.1508    8.6001    0.0000 C   0  0  0  0  0  0  0  0  0  0  0  0
   10.7699    7.1493    0.0000 O   0  0  0  0  0  0  0  0  0  0  0  0
    9.3227    6.7539    0.0000 N   0  0  0  0  0  0  0  0  0  0  0  0
    8.9418    5.3031    0.0000 C   0  0  0  0  0  0  0  0  0  0  0  0
    7.4948    4.9078    0.0000 C   0  0  0  0  0  0  0  0  0  0  0  0
    7.1136    3.4570    0.0000 O   0  0  0  0  0  0  0  0  0  0  0  0
    6.4289    5.9632    0.0000 N   0  0  0  0  0  0  0  0  0  0  0  0
    4.9820    5.5679    0.0000 C   0  0  0  0  0  0  0  0  0  0  0  0
    3.6793    6.3115    0.0000 C   0  0  0  0  0  0  0  0  0  0  0  0
    2.9229    7.6068    0.0000 S   0  0  0  0  0  0  0  0  0  0  0  0
    1.4230    7.5994    0.0000 C   0  0  0  0  0  0  0  0  0  0  0  0
    0.6794    6.2967    0.0000 C   0  0  0  0  0  0  0  0  0  0  0  0
    1.4358    5.0013    0.0000 C   0  0  0  0  0  0  0  0  0  0  0  0
    2.9357    5.0087    0.0000 N   0  0  0  0  0  0  0  0  0  0  0  0
    4.2384    4.2651    0.0000 C   0  0  0  0  0  0  0  0  0  0  0  0
    4.6337    2.8182    0.0000 O   0  0  0  0  0  0  0  0  0  0  0  0
    0.6922    3.6986    0.0000 C   0  0  0  0  0  0  0  0  0  0  0  0
   -0.8080    3.6913    0.0000 O   0  0  0  0  0  0  0  0  0  0  0  0
    1.4483    2.4033    0.0000 O   0  0  0  0  0  0  0  0  0  0  0  0
   -0.8208    6.2893    0.0000 C   0  0  0  0  0  0  0  0  0  0  0  0
   -1.5772    7.5846    0.0000 N   0  0  0  0  0  0  0  0  0  0  0  0
   -2.3657    6.3087    0.0000 C   0  0  0  0  0  0  0  0  0  0  0  0
   -0.3836    8.4932    0.0000 C   0  0  0  0  0  0  0  0  0  0  0  0
   -0.8788    9.9091    0.0000 C   0  0  0  0  0  0  0  0  0  0  0  0
   -2.3785    9.8755    0.0000 C   0  0  0  0  0  0  0  0  0  0  0  0
   -2.8100    8.4389    0.0000 C   0  0  0  0  0  0  0  0  0  0  0  0
   10.0075    4.2477    0.0000 C   0  0  0  0  0  0  0  0  0  0  0  0
    9.7803    2.7650    0.0000 C   0  0  0  0  0  0  0  0  0  0  0  0
   11.1202    2.0906    0.0000 S   0  0  0  0  0  0  0  0  0  0  0  0
   12.1756    3.1565    0.0000 C   0  0  0  0  0  0  0  0  0  0  0  0
   13.6582    2.9291    0.0000 N   0  0  0  0  0  0  0  0  0  0  0  0
   11.4881    4.4897    0.0000 N   0  0  0  0  0  0  0  0  0  0  0  0
  1  2  1  0  0  0  0
  2  3  1  0  0  0  0
  3  4  2  0  0  0  0
  4  5  1  0  0  0  0
  4 27  1  0  0  0  0
  5  6  2  0  0  0  0
  5  7  1  0  0  0  0
  7  8  1  0  0  0  0
  9  8  1  0  0  0  0
  8 15  1  0  0  0  0
 10  9  1  0  0  0  0
  9 14  1  0  0  0  0
 11 10  1  0  0  0  0
 12 11  1  0  0  0  0
 13 12  2  0  0  0  0
 12 20  1  0  0  0  0
 14 13  1  0  0  0  0
 13 17  1  0  0  0  0
 15 14  1  0  0  0  0
 15 16  2  0  0  0  0
 17 18  2  0  0  0  0
 17 19  1  0  0  0  0
 20 21  1  0  0  0  0
 21 22  1  0  0  0  0
 23 21  1  0  0  0  0
 21 26  1  0  0  0  0
 24 23  1  0  0  0  0
 25 24  1  0  0  0  0
 26 25  1  0  0  0  0
 28 27  2  0  0  0  0
 27 32  1  0  0  0  0
 29 28  1  0  0  0  0
 30 29  1  0  0  0  0
 30 31  1  0  0  0  0
 32 30  2  0  0  0  0
M  CHG  2  19  -1  21   1
M  END
> <Inchi_key>
HVFLCNVBZFFHBT-FSJBWODESA-N

> <Source>
Mulliner

> <ID>
HT0403

> <H_MFHB>
1

> <CAS>


> <Cholestasis>


> <Name>
cefepime hydrochloride;cefepime

> <Class>
1


$$$$