
  -INDIGO-08031710012D

 38 43  0  0  0  0  0  0  0  0999 V2000
    0.1991   -5.2293    0.0000 C   0  0  0  0  0  0  0  0  0  0  0  0
    1.4977   -4.4783    0.0000 C   0  0  0  0  0  0  0  0  0  0  0  0
    2.8685   -5.0873    0.0000 N   0  0  0  0  0  0  0  0  0  0  0  0
    3.8713   -3.9718    0.0000 C   0  0  0  0  0  0  0  0  0  0  0  0
    5.3544   -4.1950    0.0000 C   0  0  0  0  0  0  0  0  0  0  0  0
    6.4544   -3.1750    0.0000 C   0  0  0  0  0  0  0  0  0  0  0  0
    6.3420   -1.6795    0.0000 N   0  0  0  0  0  0  0  0  0  0  0  0
    7.6412   -0.9296    0.0000 C   0  0  0  0  0  0  0  0  0  0  0  0
    7.6412    0.5704    0.0000 O   0  0  0  0  0  0  0  0  0  0  0  0
    8.9401   -1.6797    0.0000 C   0  0  0  0  0  0  0  0  0  0  0  0
   10.2393   -0.9299    0.0000 C   0  0  0  0  0  0  0  0  0  0  0  0
   11.5382   -1.6800    0.0000 C   0  0  0  0  0  0  0  0  0  0  0  0
   11.5379   -3.1800    0.0000 C   0  0  0  0  0  0  0  0  0  0  0  0
   12.8371   -3.9301    0.0000 N   0  0  0  0  0  0  0  0  0  0  0  0
   14.1360   -3.1802    0.0000 C   0  0  0  0  0  0  0  0  0  0  0  0
   14.1362   -1.6802    0.0000 O   0  0  0  0  0  0  0  0  0  0  0  0
   15.4349   -3.9303    0.0000 C   0  0  0  0  0  0  0  0  0  0  0  0
   15.4349   -5.4302    0.0000 C   0  0  0  0  0  0  0  0  0  0  0  0
   16.7338   -6.1805    0.0000 C   0  0  0  0  0  0  0  0  0  0  0  0
   18.0330   -5.4306    0.0000 C   0  0  0  0  0  0  0  0  0  0  0  0
   18.0332   -3.9306    0.0000 C   0  0  0  0  0  0  0  0  0  0  0  0
   16.7343   -3.1805    0.0000 C   0  0  0  0  0  0  0  0  0  0  0  0
   16.7343   -1.6805    0.0000 C   0  0  0  0  0  0  0  0  0  0  0  0
   18.0335   -0.9307    0.0000 C   0  0  0  0  0  0  0  0  0  0  0  0
   18.0335    0.5694    0.0000 C   0  0  0  0  0  0  0  0  0  0  0  0
   16.7346    1.3195    0.0000 C   0  0  0  0  0  0  0  0  0  0  0  0
   15.4354    0.5697    0.0000 C   0  0  0  0  0  0  0  0  0  0  0  0
   15.4354   -0.9303    0.0000 C   0  0  0  0  0  0  0  0  0  0  0  0
   10.2390   -3.9299    0.0000 C   0  0  0  0  0  0  0  0  0  0  0  0
    8.9398   -3.1797    0.0000 C   0  0  0  0  0  0  0  0  0  0  0  0
    5.1022   -0.8352    0.0000 C   0  0  0  0  0  0  0  0  0  0  0  0
    5.4358    0.6272    0.0000 C   0  0  0  0  0  0  0  0  0  0  0  0
    4.3364    1.6475    0.0000 C   0  0  0  0  0  0  0  0  0  0  0  0
    2.9030    1.2053    0.0000 C   0  0  0  0  0  0  0  0  0  0  0  0
    2.5691   -0.2571    0.0000 C   0  0  0  0  0  0  0  0  0  0  0  0
    3.6688   -1.2773    0.0000 C   0  0  0  0  0  0  0  0  0  0  0  0
    3.1202   -2.6734    0.0000 C   0  0  0  0  0  0  0  0  0  0  0  0
    1.6531   -2.9864    0.0000 N   0  0  0  0  0  0  0  0  0  0  0  0
  1  2  1  0  0  0  0
  3  2  2  0  0  0  0
  2 38  1  0  0  0  0
  4  3  1  0  0  0  0
  5  4  1  0  0  0  0
  4 37  2  0  0  0  0
  6  5  1  0  0  0  0
  7  6  1  0  0  0  0
  7  8  1  0  0  0  0
 31  7  1  0  0  0  0
  8  9  2  0  0  0  0
  8 10  1  0  0  0  0
 11 10  2  0  0  0  0
 10 30  1  0  0  0  0
 12 11  1  0  0  0  0
 13 12  2  0  0  0  0
 13 14  1  0  0  0  0
 29 13  1  0  0  0  0
 14 15  1  0  0  0  0
 15 16  2  0  0  0  0
 15 17  1  0  0  0  0
 18 17  2  0  0  0  0
 17 22  1  0  0  0  0
 19 18  1  0  0  0  0
 20 19  2  0  0  0  0
 21 20  1  0  0  0  0
 22 21  2  0  0  0  0
 22 23  1  0  0  0  0
 24 23  2  0  0  0  0
 23 28  1  0  0  0  0
 25 24  1  0  0  0  0
 26 25  2  0  0  0  0
 27 26  1  0  0  0  0
 28 27  2  0  0  0  0
 30 29  2  0  0  0  0
 32 31  1  0  0  0  0
 31 36  2  0  0  0  0
 33 32  2  0  0  0  0
 34 33  1  0  0  0  0
 35 34  2  0  0  0  0
 36 35  1  0  0  0  0
 37 36  1  0  0  0  0
 38 37  1  0  0  0  0
M  END
> <Inchi_key>
IKENVDNFQMCRTR-UHFFFAOYSA-N

> <Source>
Mulliner

> <ID>
HT0547

> <H_MFHB>
1

> <CAS>


> <Cholestasis>


> <Name>
conivaptan hydrochloride;conivaptan

> <Class>
1

$$$$