

  -INDIGO-08031710012D

 24 26  0  0  0  0  0  0  0  0999 V2000
    0.7503    1.8254    0.0000 C   0  0  0  0  0  0  0  0  0  0  0  0
    2.0492    1.0754    0.0000 C   0  0  0  0  0  0  0  0  0  0  0  0
    3.3481    1.8254    0.0000 N   0  0  0  0  0  0  0  0  0  0  0  0
    4.6474    1.0754    0.0000 C   0  0  0  0  0  0  0  0  0  0  0  0
    5.9463    1.8254    0.0000 C   0  0  0  0  0  0  0  0  0  0  0  0
    7.2454    1.0754    0.0000 C   0  0  0  0  0  0  0  0  0  0  0  0
    8.5445    1.8254    0.0000 Cl  0  0  0  0  0  0  0  0  0  0  0  0
    7.2454   -0.4246    0.0000 C   0  0  0  0  0  0  0  0  0  0  0  0
    5.9463   -1.1746    0.0000 C   0  0  0  0  0  0  0  0  0  0  0  0
    4.6474   -0.4246    0.0000 C   0  0  0  0  0  0  0  0  0  0  0  0
    3.3481   -1.1746    0.0000 C   0  0  0  0  0  0  0  0  0  0  0  0
    3.3481   -2.6746    0.0000 O   0  0  0  0  0  0  0  0  0  0  0  0
    2.0492   -0.4246    0.0000 N   0  0  0  0  0  0  0  0  0  0  0  0
    0.7503   -1.1746    0.0000 C   0  0  0  0  0  0  0  0  0  0  0  0
    0.7503   -2.6746    0.0000 C   0  0  0  0  0  0  0  0  0  0  0  0
   -0.5490   -3.4246    0.0000 C   0  0  0  0  0  0  0  0  0  0  0  0
   -1.8479   -2.6746    0.0000 C   0  0  0  0  0  0  0  0  0  0  0  0
   -1.8479   -1.1746    0.0000 C   0  0  0  0  0  0  0  0  0  0  0  0
   -0.5490   -0.4246    0.0000 C   0  0  0  0  0  0  0  0  0  0  0  0
   -0.5490    1.0754    0.0000 C   0  0  0  0  0  0  0  0  0  0  0  0
    8.5445   -1.1746    0.0000 S   0  0  0  0  0  0  0  0  0  0  0  0
    9.2945    0.1244    0.0000 O   0  0  0  0  0  0  0  0  0  0  0  0
    7.7943   -2.4737    0.0000 O   0  0  0  0  0  0  0  0  0  0  0  0
    9.8434   -1.9246    0.0000 N   0  0  0  0  0  0  0  0  0  0  0  0
  1  2  1  0  0  0  0
  3  2  1  0  0  0  0
  2 13  1  0  0  0  0
  4  3  1  0  0  0  0
  5  4  1  0  0  0  0
  4 10  2  0  0  0  0
  6  5  2  0  0  0  0
  6  7  1  0  0  0  0
  8  6  1  0  0  0  0
  9  8  2  0  0  0  0
  8 21  1  0  0  0  0
 10  9  1  0  0  0  0
 11 10  1  0  0  0  0
 11 12  2  0  0  0  0
 13 11  1  0  0  0  0
 13 14  1  0  0  0  0
 15 14  2  0  0  0  0
 14 19  1  0  0  0  0
 16 15  1  0  0  0  0
 17 16  2  0  0  0  0
 18 17  1  0  0  0  0
 19 18  2  0  0  0  0
 19 20  1  0  0  0  0
 21 22  2  0  0  0  0
 21 23  2  0  0  0  0
 21 24  1  0  0  0  0
M  END
> <Inchi_key>
AQCHWTWZEMGIFD-UHFFFAOYSA-N

> <Source>
Mulliner , Kotsampasakou

> <ID>
EK0346;HT1378

> <H_MFHB>
1

> <CAS>


> <Cholestasis>
1

> <Name>
metolazone

> <Class>
1


$$$$