
  -INDIGO-08031710012D

 37 40  0  0  0  0  0  0  0  0999 V2000
   12.6810   -3.4915    0.0000 O   0  0  0  0  0  0  0  0  0  0  0  0
   11.1888   -3.6450    0.0000 C   0  0  0  0  0  0  0  0  0  0  0  0
   10.1876   -2.5281    0.0000 N   0  0  0  0  0  0  0  0  0  0  0  0
   10.4361   -4.9424    0.0000 N   0  0  0  0  0  0  0  0  0  0  0  0
    8.9694   -4.6274    0.0000 N   0  0  0  0  0  0  0  0  0  0  0  0
    8.8160   -3.1351    0.0000 C   0  0  0  0  0  0  0  0  0  0  0  0
    7.5186   -2.3823    0.0000 C   0  0  0  0  0  0  0  0  0  0  0  0
    6.2178   -3.1294    0.0000 N   0  0  0  0  0  0  0  0  0  0  0  0
    6.2145   -4.6294    0.0000 C   0  0  0  0  0  0  0  0  0  0  0  0
    4.9204   -2.3765    0.0000 C   0  0  0  0  0  0  0  0  0  0  0  0
    4.9138   -5.3765    0.0000 C   0  0  0  0  0  0  0  0  0  0  0  0
    3.6197   -3.1237    0.0000 C   0  0  0  0  0  0  0  0  0  0  0  0
    4.9238   -0.8765    0.0000 C   0  0  0  0  0  0  0  0  0  0  0  0
    3.6164   -4.6237    0.0000 O   0  0  0  0  0  0  0  0  0  0  0  0
    2.3226   -2.3708    0.0000 O   0  0  0  0  0  0  0  0  0  0  0  0
    6.2245   -0.1294    0.0000 C   0  0  0  0  0  0  0  0  0  0  0  0
    3.6266   -0.1236    0.0000 C   0  0  0  0  0  0  0  0  0  0  0  0
    1.0219   -3.1178    0.0000 C   0  0  0  0  0  0  0  0  0  0  0  0
    6.2278    1.3706    0.0000 C   0  0  0  0  0  0  0  0  0  0  0  0
    3.6297    1.3763    0.0000 C   0  0  0  0  0  0  0  0  0  0  0  0
    1.0185   -4.6179    0.0000 C   0  0  0  0  0  0  0  0  0  0  0  0
   -0.2755   -2.3651    0.0000 C   0  0  0  0  0  0  0  0  0  0  0  0
    4.9304    2.1233    0.0000 C   0  0  0  0  0  0  0  0  0  0  0  0
   -0.2722   -0.8651    0.0000 C   0  0  0  0  0  0  0  0  0  0  0  0
   -1.5763   -3.1122    0.0000 C   0  0  0  0  0  0  0  0  0  0  0  0
    4.9337    3.6234    0.0000 F   0  0  0  0  0  0  0  0  0  0  0  0
   -1.5696   -0.1122    0.0000 C   0  0  0  0  0  0  0  0  0  0  0  0
   -2.8737   -2.3594    0.0000 C   0  0  0  0  0  0  0  0  0  0  0  0
   -2.8703   -0.8595    0.0000 C   0  0  0  0  0  0  0  0  0  0  0  0
   -1.5663    1.3878    0.0000 C   0  0  0  0  0  0  0  0  0  0  0  0
   -4.1744   -3.1064    0.0000 C   0  0  0  0  0  0  0  0  0  0  0  0
   -0.0664    1.3845    0.0000 F   0  0  0  0  0  0  0  0  0  0  0  0
   -1.5632    2.8879    0.0000 F   0  0  0  0  0  0  0  0  0  0  0  0
   -3.0665    1.3911    0.0000 F   0  0  0  0  0  0  0  0  0  0  0  0
   -5.4751   -3.8537    0.0000 F   0  0  0  0  0  0  0  0  0  0  0  0
   -3.4272   -4.4072    0.0000 F   0  0  0  0  0  0  0  0  0  0  0  0
   -4.9216   -1.8058    0.0000 F   0  0  0  0  0  0  0  0  0  0  0  0
  1  2  2  0  0  0  0
  3  2  1  0  0  0  0
  2  4  1  0  0  0  0
  4  5  1  0  0  0  0
  5  6  2  0  0  0  0
  6  7  1  0  0  0  0
  6  3  1  0  0  0  0
  7  8  1  0  0  0  0
  9  8  1  0  0  0  0
  8 10  1  0  0  0  0
 11  9  1  0  0  0  0
 10 12  1  0  0  0  0
 10 13  1  0  0  0  0
 14 11  1  0  0  0  0
 12 15  1  0  0  0  0
 12 14  1  0  0  0  0
 16 13  2  0  0  0  0
 13 17  1  0  0  0  0
 15 18  1  0  0  0  0
 19 16  1  0  0  0  0
 17 20  2  0  0  0  0
 18 21  1  0  0  0  0
 18 22  1  0  0  0  0
 23 19  2  0  0  0  0
 20 23  1  0  0  0  0
 24 22  2  0  0  0  0
 22 25  1  0  0  0  0
 23 26  1  0  0  0  0
 27 24  1  0  0  0  0
 25 28  2  0  0  0  0
 29 27  2  0  0  0  0
 27 30  1  0  0  0  0
 28 29  1  0  0  0  0
 28 31  1  0  0  0  0
 30 32  1  0  0  0  0
 30 33  1  0  0  0  0
 30 34  1  0  0  0  0
 31 35  1  0  0  0  0
 31 36  1  0  0  0  0
 31 37  1  0  0  0  0
M  END
> <Inchi_key>
ATALOFNDEOCMKK-UHFFFAOYSA-N

> <Source>
Mulliner

> <ID>
HT0173

> <H_MFHB>
1

> <CAS>


> <Cholestasis>


> <Name>
aprepitant

> <Class>
1

$$$$