

  -INDIGO-08031710012D

 20 23  0  0  0  0  0  0  0  0999 V2000
    2.3602   -2.4755    0.0000 C   0  0  0  0  0  0  0  0  0  0  0  0
    2.4317   -0.9771    0.0000 N   0  0  0  0  0  0  0  0  0  0  0  0
    1.1699   -0.1661    0.0000 C   0  0  0  0  0  0  0  0  0  0  0  0
    1.2414    1.3322    0.0000 C   0  0  0  0  0  0  0  0  0  0  0  0
    2.5749    2.0194    0.0000 C   0  0  0  0  0  0  0  0  0  0  0  0
    3.8365    1.2083    0.0000 C   0  0  0  0  0  0  0  0  0  0  0  0
    3.7650   -0.2900    0.0000 C   0  0  0  0  0  0  0  0  0  0  0  0
    4.9978    2.1577    0.0000 C   0  0  0  0  0  0  0  0  0  0  0  0
    6.4485    1.7762    0.0000 C   0  0  0  0  0  0  0  0  0  0  0  0
    6.8435    0.3291    0.0000 C   0  0  0  0  0  0  0  0  0  0  0  0
    8.2942   -0.0523    0.0000 C   0  0  0  0  0  0  0  0  0  0  0  0
    9.3499    1.0132    0.0000 C   0  0  0  0  0  0  0  0  0  0  0  0
    8.9548    2.4603    0.0000 C   0  0  0  0  0  0  0  0  0  0  0  0
    7.5043    2.8418    0.0000 C   0  0  0  0  0  0  0  0  0  0  0  0
    4.4538    3.5555    0.0000 C   0  0  0  0  0  0  0  0  0  0  0  0
    5.1287    4.8952    0.0000 C   0  0  0  0  0  0  0  0  0  0  0  0
    4.3058    6.1494    0.0000 C   0  0  0  0  0  0  0  0  0  0  0  0
    2.8081    6.0639    0.0000 C   0  0  0  0  0  0  0  0  0  0  0  0
    2.1334    4.7242    0.0000 C   0  0  0  0  0  0  0  0  0  0  0  0
    2.9562    3.4700    0.0000 C   0  0  0  0  0  0  0  0  0  0  0  0
  1  2  1  0  0  0  0
  3  2  1  0  0  0  0
  2  7  1  0  0  0  0
  4  3  1  0  0  0  0
  5  4  1  0  0  0  0
  5  6  2  0  0  0  0
 20  5  1  0  0  0  0
  7  6  1  0  0  0  0
  6  8  1  0  0  0  0
  8  9  1  0  0  0  0
  8 15  1  0  0  0  0
 10  9  2  0  0  0  0
  9 14  1  0  0  0  0
 11 10  1  0  0  0  0
 12 11  2  0  0  0  0
 13 12  1  0  0  0  0
 14 13  2  0  0  0  0
 16 15  2  0  0  0  0
 15 20  1  0  0  0  0
 17 16  1  0  0  0  0
 18 17  2  0  0  0  0
 19 18  1  0  0  0  0
 20 19  2  0  0  0  0
M  END
> <Inchi_key>
ISFHAYSTHMVOJR-UHFFFAOYSA-N

> <Source>
Mulliner

> <ID>
HT1647

> <H_MFHB>
1

> <CAS>


> <Cholestasis>


> <Name>
phenindamine

> <Class>
1


$$$$