

  -INDIGO-08031710012D

  9  9  0  0  0  0  0  0  0  0999 V2000
    5.0000    0.2887    0.0000 N   0  0  0  0  0  0  0  0  0  0  0  0
    4.2500    1.5877    0.0000 C   0  0  0  0  0  0  0  0  0  0  0  0
    5.0000    2.8868    0.0000 O   0  0  0  0  0  0  0  0  0  0  0  0
    2.7500    1.5877    0.0000 C   0  0  0  0  0  0  0  0  0  0  0  0
    2.0000    2.8868    0.0000 C   0  0  0  0  0  0  0  0  0  0  0  0
    0.5000    2.8868    0.0000 N   0  0  0  0  0  0  0  0  0  0  0  0
   -0.2500    1.5877    0.0000 C   0  0  0  0  0  0  0  0  0  0  0  0
    0.5000    0.2887    0.0000 C   0  0  0  0  0  0  0  0  0  0  0  0
    2.0000    0.2887    0.0000 N   0  0  0  0  0  0  0  0  0  0  0  0
  1  2  1  0  0  0  0
  2  3  2  0  0  0  0
  2  4  1  0  0  0  0
  5  4  2  0  0  0  0
  4  9  1  0  0  0  0
  6  5  1  0  0  0  0
  7  6  2  0  0  0  0
  8  7  1  0  0  0  0
  9  8  2  0  0  0  0
M  END
> <Inchi_key>
IPEHBUMCGVEMRF-UHFFFAOYSA-N

> <Source>
Mulliner

> <ID>
HT1774

> <H_MFHB>
1

> <CAS>
98-96-4

> <Cholestasis>


> <Name>
pyrazinamide

> <Class>
1


$$$$