
  -INDIGO-08031710012D

 16 16  0  0  0  0  0  0  0  0999 V2000
    9.3245   -2.4047    0.0000 C   0  0  0  0  0  0  0  0  0  0  0  0
    8.0255   -3.1547    0.0000 C   0  0  0  0  0  0  0  0  0  0  0  0
    6.7264   -2.4047    0.0000 C   0  0  0  0  0  0  0  0  0  0  0  0
    5.4274   -3.1547    0.0000 C   0  0  0  0  0  0  0  0  0  0  0  0
    5.4274   -4.6547    0.0000 C   0  0  0  0  0  0  0  0  0  0  0  0
    4.1284   -2.4047    0.0000 C   0  0  0  0  0  0  0  0  0  0  0  0
    5.4274   -1.6547    0.0000 C   0  0  0  0  0  0  0  0  0  0  0  0
    5.4274   -0.1547    0.0000 C   0  0  0  0  0  0  0  0  0  0  0  0
    3.3784   -3.7038    0.0000 C   0  0  0  0  0  0  0  0  0  0  0  0
    4.1284   -5.0028    0.0000 O   0  0  0  0  0  0  0  0  0  0  0  0
    1.8785   -3.7038    0.0000 N   0  0  0  0  0  0  0  0  0  0  0  0
    1.1283   -2.4047    0.0000 C   0  0  0  0  0  0  0  0  0  0  0  0
   -0.3716   -2.4047    0.0000 S   0  0  0  0  0  0  0  0  0  0  0  0
    1.8785   -1.1057    0.0000 N   0  0  0  0  0  0  0  0  0  0  0  0
    3.3784   -1.1057    0.0000 C   0  0  0  0  0  0  0  0  0  0  0  0
    4.1284    0.1933    0.0000 O   0  0  0  0  0  0  0  0  0  0  0  0
  1  2  1  0  0  0  0
  2  3  1  0  0  0  0
  3  4  1  0  0  0  0
  4  5  1  0  0  0  0
  4  6  1  0  0  0  0
  6  7  1  0  0  0  0
  9  6  1  0  0  0  0
  6 15  1  0  0  0  0
  7  8  1  0  0  0  0
  9 10  2  0  0  0  0
 11  9  1  0  0  0  0
 12 11  1  0  0  0  0
 12 13  2  0  0  0  0
 14 12  1  0  0  0  0
 15 14  1  0  0  0  0
 15 16  2  0  0  0  0
M  END
> <Inchi_key>
IUJDSEJGGMCXSG-UHFFFAOYSA-N

> <Source>
Mulliner

> <ID>
HT2043

> <H_MFHB>
1

> <CAS>
71-73-8

> <Cholestasis>


> <Name>
thiopental sodium;thiopental

> <Class>
1

$$$$