
  -INDIGO-08031710012D

 21 22  0  0  0  0  0  0  0  0999 V2000
   -0.1136   -2.1135    0.0000 C   0  0  0  0  0  0  0  0  0  0  0  0
   -0.1136   -0.6135    0.0000 C   0  0  0  0  0  0  0  0  0  0  0  0
    1.1857    0.1365    0.0000 N   0  0  0  0  0  0  0  0  0  0  0  0
    2.4847   -0.6135    0.0000 C   0  0  0  0  0  0  0  0  0  0  0  0
    3.7836    0.1365    0.0000 C   0  0  0  0  0  0  0  0  0  0  0  0
    5.0826   -0.6135    0.0000 C   0  0  0  0  0  0  0  0  0  0  0  0
    5.0826   -2.1135    0.0000 C   0  0  0  0  0  0  0  0  0  0  0  0
    6.3816   -2.8635    0.0000 C   0  0  0  0  0  0  0  0  0  0  0  0
    7.6808   -2.1135    0.0000 C   0  0  0  0  0  0  0  0  0  0  0  0
    8.9798   -2.8635    0.0000 O   0  0  0  0  0  0  0  0  0  0  0  0
    7.6808   -0.6135    0.0000 C   0  0  0  0  0  0  0  0  0  0  0  0
    6.3816    0.1365    0.0000 C   0  0  0  0  0  0  0  0  0  0  0  0
   -1.4125    0.1365    0.0000 C   0  0  0  0  0  0  0  0  0  0  0  0
   -1.4125    1.6365    0.0000 O   0  0  0  0  0  0  0  0  0  0  0  0
   -2.7115   -0.6135    0.0000 C   0  0  0  0  0  0  0  0  0  0  0  0
   -2.7115   -2.1135    0.0000 C   0  0  0  0  0  0  0  0  0  0  0  0
   -4.0105   -2.8635    0.0000 C   0  0  0  0  0  0  0  0  0  0  0  0
   -5.3097   -2.1135    0.0000 C   0  0  0  0  0  0  0  0  0  0  0  0
   -6.6087   -2.8635    0.0000 O   0  0  0  0  0  0  0  0  0  0  0  0
   -5.3097   -0.6135    0.0000 C   0  0  0  0  0  0  0  0  0  0  0  0
   -4.0105    0.1365    0.0000 C   0  0  0  0  0  0  0  0  0  0  0  0
  1  2  1  0  0  0  0
  2  3  1  0  0  0  0
  2 13  1  0  0  0  0
  3  4  1  0  0  0  0
  4  5  1  0  0  0  0
  5  6  1  0  0  0  0
  7  6  2  0  0  0  0
  6 12  1  0  0  0  0
  8  7  1  0  0  0  0
  9  8  2  0  0  0  0
  9 10  1  0  0  0  0
 11  9  1  0  0  0  0
 12 11  2  0  0  0  0
 13 14  1  0  0  0  0
 13 15  1  0  0  0  0
 16 15  2  0  0  0  0
 15 21  1  0  0  0  0
 17 16  1  0  0  0  0
 18 17  2  0  0  0  0
 18 19  1  0  0  0  0
 20 18  1  0  0  0  0
 21 20  2  0  0  0  0
M  END
> <Inchi_key>
IOVGROKTTNBUGK-UHFFFAOYSA-N

> <Source>
Mulliner

> <ID>
HT1832

> <H_MFHB>
1

> <CAS>


> <Cholestasis>


> <Name>
ritodrine hydrochloride;ritodrine

> <Class>
1

$$$$