
  -INDIGO-08031710012D

 18 19  0  0  0  0  0  0  0  0999 V2000
    0.0000   -4.4745    0.0000 O   0  0  0  0  0  0  0  0  0  0  0  0
    1.5000   -4.4745    0.0000 C   0  0  0  0  0  0  0  0  0  0  0  0
    2.2500   -5.7735    0.0000 O   0  0  0  0  0  0  0  0  0  0  0  0
    2.2500   -3.1754    0.0000 C   0  0  0  0  0  0  0  0  0  0  0  0
    3.7499   -3.1754    0.0000 C   0  0  0  0  0  0  0  0  0  0  0  0
    4.4999   -1.8764    0.0000 C   0  0  0  0  0  0  0  0  0  0  0  0
    3.7499   -0.5774    0.0000 C   0  0  0  0  0  0  0  0  0  0  0  0
    2.2500   -0.5774    0.0000 C   0  0  0  0  0  0  0  0  0  0  0  0
    1.5000   -1.8764    0.0000 C   0  0  0  0  0  0  0  0  0  0  0  0
    0.0000   -1.8764    0.0000 O   0  0  0  0  0  0  0  0  0  0  0  0
    6.0001   -1.8764    0.0000 C   0  0  0  0  0  0  0  0  0  0  0  0
    6.7501   -3.1754    0.0000 C   0  0  0  0  0  0  0  0  0  0  0  0
    8.2500   -3.1754    0.0000 C   0  0  0  0  0  0  0  0  0  0  0  0
    9.0000   -1.8764    0.0000 C   0  0  0  0  0  0  0  0  0  0  0  0
   10.5000   -1.8764    0.0000 F   0  0  0  0  0  0  0  0  0  0  0  0
    8.2500   -0.5774    0.0000 C   0  0  0  0  0  0  0  0  0  0  0  0
    6.7501   -0.5774    0.0000 C   0  0  0  0  0  0  0  0  0  0  0  0
    6.0001    0.7217    0.0000 F   0  0  0  0  0  0  0  0  0  0  0  0
  1  2  1  0  0  0  0
  2  3  2  0  0  0  0
  2  4  1  0  0  0  0
  5  4  2  0  0  0  0
  4  9  1  0  0  0  0
  6  5  1  0  0  0  0
  7  6  2  0  0  0  0
  6 11  1  0  0  0  0
  8  7  1  0  0  0  0
  9  8  2  0  0  0  0
  9 10  1  0  0  0  0
 12 11  2  0  0  0  0
 11 17  1  0  0  0  0
 13 12  1  0  0  0  0
 14 13  2  0  0  0  0
 14 15  1  0  0  0  0
 16 14  1  0  0  0  0
 17 16  2  0  0  0  0
 17 18  1  0  0  0  0
M  END
> <Inchi_key>
HUPFGZXOMWLGNK-UHFFFAOYSA-N

> <Source>
Mulliner , Kotsampasakou

> <ID>
EK0162;HT0662

> <H_MFHB>
1

> <CAS>


> <Cholestasis>
1

> <Name>
diflunisal

> <Class>
1

$$$$