

  -INDIGO-08031710012D

 25 28  0  0  0  0  0  0  0  0999 V2000
   -0.1831   -2.2689    0.0000 C   0  0  0  0  0  0  0  0  0  0  0  0
    1.2974   -2.5095    0.0000 C   0  0  0  0  0  0  0  0  0  0  0  0
    1.8294   -3.9120    0.0000 O   0  0  0  0  0  0  0  0  0  0  0  0
    2.2461   -1.3475    0.0000 O   0  0  0  0  0  0  0  0  0  0  0  0
    3.7268   -1.5881    0.0000 C   0  0  0  0  0  0  0  0  0  0  0  0
    3.5640   -3.0792    0.0000 C   0  0  0  0  0  0  0  0  0  0  0  0
    4.9317   -3.6948    0.0000 C   0  0  0  0  0  0  0  0  0  0  0  0
    5.9398   -2.5841    0.0000 C   0  0  0  0  0  0  0  0  0  0  0  0
    7.4399   -2.5900    0.0000 C   0  0  0  0  0  0  0  0  0  0  0  0
    8.1847   -3.8921    0.0000 C   0  0  0  0  0  0  0  0  0  0  0  0
    9.6847   -3.8980    0.0000 C   0  0  0  0  0  0  0  0  0  0  0  0
   10.4399   -2.6020    0.0000 C   0  0  0  0  0  0  0  0  0  0  0  0
   11.9399   -2.6080    0.0000 C   0  0  0  0  0  0  0  0  0  0  0  0
   12.6951   -1.3119    0.0000 C   0  0  0  0  0  0  0  0  0  0  0  0
   14.1951   -1.3179    0.0000 O   0  0  0  0  0  0  0  0  0  0  0  0
   11.9502   -0.0099    0.0000 C   0  0  0  0  0  0  0  0  0  0  0  0
   10.4502   -0.0039    0.0000 C   0  0  0  0  0  0  0  0  0  0  0  0
    9.6950   -1.3000    0.0000 C   0  0  0  0  0  0  0  0  0  0  0  0
    8.1950   -1.2940    0.0000 C   0  0  0  0  0  0  0  0  0  0  0  0
    7.4504    0.0080    0.0000 C   0  0  0  0  0  0  0  0  0  0  0  0
    5.9504    0.0140    0.0000 C   0  0  0  0  0  0  0  0  0  0  0  0
    5.1952   -1.2821    0.0000 C   0  0  0  0  0  0  0  0  0  0  0  0
    4.3398   -0.0499    0.0000 C   0  0  0  0  0  0  0  0  0  0  0  0
    3.2441   -0.1679    0.0000 C   0  0  0  0  0  0  0  0  0  0  0  0
    2.7612    1.2523    0.0000 C   0  0  0  0  0  0  0  0  0  0  0  0
  1  2  1  0  0  0  0
  2  3  2  0  0  0  0
  2  4  1  0  0  0  0
  4  5  1  0  0  0  0
  6  5  1  0  0  0  0
  5 22  1  0  0  0  0
  5 24  1  0  0  0  0
  7  6  1  0  0  0  0
  8  7  1  0  0  0  0
  9  8  1  0  0  0  0
  8 22  1  0  0  0  0
 10  9  1  0  0  0  0
  9 19  1  0  0  0  0
 11 10  1  0  0  0  0
 12 11  1  0  0  0  0
 13 12  2  0  0  0  0
 12 18  1  0  0  0  0
 14 13  1  0  0  0  0
 14 15  2  0  0  0  0
 16 14  1  0  0  0  0
 17 16  1  0  0  0  0
 18 17  1  0  0  0  0
 19 18  1  0  0  0  0
 20 19  1  0  0  0  0
 21 20  1  0  0  0  0
 22 21  1  0  0  0  0
 22 23  1  0  0  0  0
 24 25  3  0  0  0  0
M  END
> <Inchi_key>
IMONTRJLAWHYGT-UHFFFAOYSA-N

> <Source>
Mulliner

> <ID>
HT1522

> <H_MFHB>
1

> <CAS>


> <Cholestasis>


> <Name>
norethindrone acetate

> <Class>
1


$$$$