
  -INDIGO-08031710012D

 17 17  0  0  0  0  0  0  0  0999 V2000
    0.4852    2.6745    0.0000 O   0  0  0  0  0  0  0  0  0  0  0  0
    1.2353    1.3755    0.0000 C   0  0  0  0  0  0  0  0  0  0  0  0
    1.9853    0.0764    0.0000 C   0  0  0  0  0  0  0  0  0  0  0  0
    3.4853    0.0764    0.0000 C   0  0  0  0  0  0  0  0  0  0  0  0
    4.2354   -1.2226    0.0000 C   0  0  0  0  0  0  0  0  0  0  0  0
    5.7353   -1.2226    0.0000 C   0  0  0  0  0  0  0  0  0  0  0  0
    6.4853    0.0764    0.0000 C   0  0  0  0  0  0  0  0  0  0  0  0
    5.7353    1.3755    0.0000 N   0  0  0  0  0  0  0  0  0  0  0  0
    4.2354    1.3755    0.0000 C   0  0  0  0  0  0  0  0  0  0  0  0
    2.5342    2.1255    0.0000 P   0  0  0  0  0  0  0  0  0  0  0  0
    3.2843    0.8264    0.0000 O   0  0  0  0  0  0  0  0  0  0  0  0
    3.8333    2.8755    0.0000 O   0  0  0  0  0  0  0  0  0  0  0  0
    1.7843    3.4245    0.0000 O   0  0  0  0  0  0  0  0  0  0  0  0
   -0.0637    0.6255    0.0000 P   0  0  0  0  0  0  0  0  0  0  0  0
   -0.8137    1.9245    0.0000 O   0  0  0  0  0  0  0  0  0  0  0  0
   -1.3628   -0.1245    0.0000 O   0  0  0  0  0  0  0  0  0  0  0  0
    0.6863   -0.6736    0.0000 O   0  0  0  0  0  0  0  0  0  0  0  0
  1  2  1  0  0  0  0
  2  3  1  0  0  0  0
  2 10  1  0  0  0  0
  2 14  1  0  0  0  0
  3  4  1  0  0  0  0
  5  4  2  0  0  0  0
  4  9  1  0  0  0  0
  6  5  1  0  0  0  0
  7  6  2  0  0  0  0
  8  7  1  0  0  0  0
  9  8  2  0  0  0  0
 10 11  2  0  0  0  0
 10 12  1  0  0  0  0
 10 13  1  0  0  0  0
 14 15  2  0  0  0  0
 14 16  1  0  0  0  0
 14 17  1  0  0  0  0
M  END
> <Inchi_key>
IIDJRNMFWXDHID-UHFFFAOYSA-N

> <Source>
Mulliner

> <ID>
HT1830

> <H_MFHB>
1

> <CAS>


> <Cholestasis>


> <Name>
risedronate sodium;risedronate

> <Class>
1

$$$$