

  -INDIGO-08031710012D

 23 25  0  0  0  0  0  0  0  0999 V2000
    3.2936    3.3323    0.0000 C   0  0  0  0  0  0  0  0  0  0  0  0
    4.0436    2.0333    0.0000 C   0  0  0  0  0  0  0  0  0  0  0  0
    3.2936    0.7342    0.0000 N   0  0  0  0  0  0  0  0  0  0  0  0
    1.7935    0.7342    0.0000 C   0  0  0  0  0  0  0  0  0  0  0  0
    1.0435   -0.5647    0.0000 C   0  0  0  0  0  0  0  0  0  0  0  0
   -0.4565   -0.5647    0.0000 C   0  0  0  0  0  0  0  0  0  0  0  0
   -1.2065    0.7342    0.0000 O   0  0  0  0  0  0  0  0  0  0  0  0
   -1.2065   -1.8638    0.0000 O   0  0  0  0  0  0  0  0  0  0  0  0
    1.7935   -1.8638    0.0000 C   0  0  0  0  0  0  0  0  0  0  0  0
    1.0435   -3.1629    0.0000 O   0  0  0  0  0  0  0  0  0  0  0  0
    3.2936   -1.8638    0.0000 C   0  0  0  0  0  0  0  0  0  0  0  0
    4.0436   -3.1629    0.0000 C   0  0  0  0  0  0  0  0  0  0  0  0
    5.5434   -3.1629    0.0000 C   0  0  0  0  0  0  0  0  0  0  0  0
    6.2934   -4.4619    0.0000 F   0  0  0  0  0  0  0  0  0  0  0  0
    6.2934   -1.8638    0.0000 C   0  0  0  0  0  0  0  0  0  0  0  0
    5.5434   -0.5647    0.0000 N   0  0  0  0  0  0  0  0  0  0  0  0
    4.0436   -0.5647    0.0000 C   0  0  0  0  0  0  0  0  0  0  0  0
    7.7935   -1.8638    0.0000 N   0  0  0  0  0  0  0  0  0  0  0  0
    8.5435   -3.1629    0.0000 C   0  0  0  0  0  0  0  0  0  0  0  0
   10.0435   -3.1629    0.0000 C   0  0  0  0  0  0  0  0  0  0  0  0
   10.7935   -1.8638    0.0000 N   0  0  0  0  0  0  0  0  0  0  0  0
   10.0435   -0.5647    0.0000 C   0  0  0  0  0  0  0  0  0  0  0  0
    8.5435   -0.5647    0.0000 C   0  0  0  0  0  0  0  0  0  0  0  0
  1  2  1  0  0  0  0
  2  3  1  0  0  0  0
  4  3  1  0  0  0  0
  3 17  1  0  0  0  0
  5  4  2  0  0  0  0
  5  6  1  0  0  0  0
  9  5  1  0  0  0  0
  6  7  2  0  0  0  0
  6  8  1  0  0  0  0
  9 10  2  0  0  0  0
 11  9  1  0  0  0  0
 12 11  1  0  0  0  0
 11 17  2  0  0  0  0
 13 12  2  0  0  0  0
 13 14  1  0  0  0  0
 15 13  1  0  0  0  0
 16 15  2  0  0  0  0
 15 18  1  0  0  0  0
 17 16  1  0  0  0  0
 19 18  1  0  0  0  0
 18 23  1  0  0  0  0
 20 19  1  0  0  0  0
 21 20  1  0  0  0  0
 22 21  1  0  0  0  0
 23 22  1  0  0  0  0
M  END
> <Inchi_key>
IDYZIJYBMGIQMJ-UHFFFAOYSA-N

> <Source>
Mulliner

> <ID>
HT0759

> <H_MFHB>
1

> <CAS>


> <Cholestasis>


> <Name>
enoxacin

> <Class>
1


$$$$