
  -INDIGO-08031710012D

 36 39  0  0  0  0  0  0  0  0999 V2000
   -2.6732    1.5346    0.0000 C   0  0  0  0  0  0  0  0  0  0  0  0
   -3.4295    2.8300    0.0000 C   0  0  0  0  0  0  0  0  0  0  0  0
   -2.6858    4.1325    0.0000 N   0  0  0  0  0  0  0  0  0  0  0  0
   -1.1858    4.1400    0.0000 C   0  0  0  0  0  0  0  0  0  0  0  0
   -0.4421    5.4428    0.0000 C   0  0  0  0  0  0  0  0  0  0  0  0
   -1.1984    6.7380    0.0000 N   0  0  0  0  0  0  0  0  0  0  0  0
   -0.4548    8.0407    0.0000 C   0  0  0  0  0  0  0  0  0  0  0  0
   -1.2113    9.3361    0.0000 O   0  0  0  0  0  0  0  0  0  0  0  0
    1.0452    8.0480    0.0000 N   0  0  0  0  0  0  0  0  0  0  0  0
    1.7889    9.3508    0.0000 C   0  0  0  0  0  0  0  0  0  0  0  0
    3.2889    9.3581    0.0000 C   0  0  0  0  0  0  0  0  0  0  0  0
    4.0323   10.6606    0.0000 O   0  0  0  0  0  0  0  0  0  0  0  0
    4.0452    8.0627    0.0000 N   0  0  0  0  0  0  0  0  0  0  0  0
    5.5452    8.0700    0.0000 C   0  0  0  0  0  0  0  0  0  0  0  0
    6.6110    7.0146    0.0000 C   0  0  0  0  0  0  0  0  0  0  0  0
    7.2986    5.6815    0.0000 S   0  0  0  0  0  0  0  0  0  0  0  0
    8.7789    5.9232    0.0000 C   0  0  0  0  0  0  0  0  0  0  0  0
   10.2312    5.5485    0.0000 C   0  0  0  0  0  0  0  0  0  0  0  0
    9.1169    4.4618    0.0000 C   0  0  0  0  0  0  0  0  0  0  0  0
    9.0061    7.4059    0.0000 C   0  0  0  0  0  0  0  0  0  0  0  0
    7.6664    8.0804    0.0000 N   0  0  0  0  0  0  0  0  0  0  0  0
    6.6006    9.1358    0.0000 C   0  0  0  0  0  0  0  0  0  0  0  0
    6.5933   10.6358    0.0000 O   0  0  0  0  0  0  0  0  0  0  0  0
   10.3395    8.0934    0.0000 C   0  0  0  0  0  0  0  0  0  0  0  0
   10.4107    9.5916    0.0000 O   0  0  0  0  0  0  0  0  0  0  0  0
   11.6014    7.2826    0.0000 O   0  0  0  0  0  0  0  0  0  0  0  0
    1.0326   10.6462    0.0000 C   0  0  0  0  0  0  0  0  0  0  0  0
   -0.4674   10.6387    0.0000 C   0  0  0  0  0  0  0  0  0  0  0  0
   -1.2237   11.9341    0.0000 C   0  0  0  0  0  0  0  0  0  0  0  0
   -0.4803   13.2368    0.0000 C   0  0  0  0  0  0  0  0  0  0  0  0
    1.0197   13.2441    0.0000 C   0  0  0  0  0  0  0  0  0  0  0  0
    1.7760   11.9489    0.0000 C   0  0  0  0  0  0  0  0  0  0  0  0
   -2.6984    6.7307    0.0000 C   0  0  0  0  0  0  0  0  0  0  0  0
   -3.4547    8.0261    0.0000 O   0  0  0  0  0  0  0  0  0  0  0  0
   -3.4421    5.4279    0.0000 C   0  0  0  0  0  0  0  0  0  0  0  0
   -4.9421    5.4206    0.0000 O   0  0  0  0  0  0  0  0  0  0  0  0
  1  2  1  0  0  0  0
  2  3  1  0  0  0  0
  4  3  1  0  0  0  0
  3 35  1  0  0  0  0
  5  4  1  0  0  0  0
  6  5  1  0  0  0  0
  6  7  1  0  0  0  0
 33  6  1  0  0  0  0
  7  8  2  0  0  0  0
  7  9  1  0  0  0  0
  9 10  1  0  0  0  0
 10 11  1  0  0  0  0
 10 27  1  0  0  0  0
 11 12  2  0  0  0  0
 11 13  1  0  0  0  0
 13 14  1  0  0  0  0
 15 14  1  0  0  0  0
 14 22  1  0  0  0  0
 16 15  1  0  0  0  0
 15 21  1  0  0  0  0
 17 16  1  0  0  0  0
 17 18  1  0  0  0  0
 17 19  1  0  0  0  0
 20 17  1  0  0  0  0
 21 20  1  0  0  0  0
 20 24  1  0  0  0  0
 22 21  1  0  0  0  0
 22 23  2  0  0  0  0
 24 25  2  0  0  0  0
 24 26  1  0  0  0  0
 28 27  2  0  0  0  0
 27 32  1  0  0  0  0
 29 28  1  0  0  0  0
 30 29  2  0  0  0  0
 31 30  1  0  0  0  0
 32 31  2  0  0  0  0
 33 34  2  0  0  0  0
 35 33  1  0  0  0  0
 35 36  2  0  0  0  0
M  END
> <Inchi_key>
IVBHGBMCVLDMKU-UHFFFAOYSA-N

> <Source>
Mulliner

> <ID>
HT1682

> <H_MFHB>
1

> <CAS>


> <Cholestasis>


> <Name>
piperacillin sodium;piperacillin

> <Class>
1

$$$$