

  -INDIGO-08031710012D

 26 25  0  0  0  0  0  0  0  0999 V2000
   22.5000   -0.1999    0.0000 C   0  0  0  0  0  0  0  0  0  0  0  0
   21.0001   -0.1999    0.0000 C   0  0  0  0  0  0  0  0  0  0  0  0
   20.2499    1.0992    0.0000 O   0  0  0  0  0  0  0  0  0  0  0  0
   18.7500    1.0992    0.0000 C   0  0  0  0  0  0  0  0  0  0  0  0
   18.0001   -0.1999    0.0000 O   0  0  0  0  0  0  0  0  0  0  0  0
   18.0001    2.3982    0.0000 C   0  0  0  0  0  0  0  0  0  0  0  0
   16.4999    2.3982    0.0000 C   0  0  0  0  0  0  0  0  0  0  0  0
   15.7500    3.6973    0.0000 C   0  0  0  0  0  0  0  0  0  0  0  0
   14.2501    3.6973    0.0000 C   0  0  0  0  0  0  0  0  0  0  0  0
   13.4999    2.3982    0.0000 C   0  0  0  0  0  0  0  0  0  0  0  0
   12.0000    2.3982    0.0000 C   0  0  0  0  0  0  0  0  0  0  0  0
   11.2501    1.0992    0.0000 C   0  0  0  0  0  0  0  0  0  0  0  0
   12.0000   -0.1999    0.0000 C   0  0  0  0  0  0  0  0  0  0  0  0
   11.2501   -1.4989    0.0000 C   0  0  0  0  0  0  0  0  0  0  0  0
    9.7499   -1.4989    0.0000 C   0  0  0  0  0  0  0  0  0  0  0  0
    9.0000   -0.1999    0.0000 C   0  0  0  0  0  0  0  0  0  0  0  0
    7.5001   -0.1999    0.0000 C   0  0  0  0  0  0  0  0  0  0  0  0
    6.7499   -1.4989    0.0000 C   0  0  0  0  0  0  0  0  0  0  0  0
    7.5001   -2.7979    0.0000 C   0  0  0  0  0  0  0  0  0  0  0  0
    6.7499   -4.0970    0.0000 C   0  0  0  0  0  0  0  0  0  0  0  0
    5.2500   -4.0970    0.0000 C   0  0  0  0  0  0  0  0  0  0  0  0
    4.5001   -2.7979    0.0000 C   0  0  0  0  0  0  0  0  0  0  0  0
    2.9999   -2.7979    0.0000 C   0  0  0  0  0  0  0  0  0  0  0  0
    2.2500   -1.4989    0.0000 C   0  0  0  0  0  0  0  0  0  0  0  0
    2.9999   -0.1999    0.0000 C   0  0  0  0  0  0  0  0  0  0  0  0
    2.2500    1.0992    0.0000 C   0  0  0  0  0  0  0  0  0  0  0  0
  1  2  1  0  0  0  0
  2  3  1  0  0  0  0
  3  4  1  0  0  0  0
  4  5  2  0  0  0  0
  4  6  1  0  0  0  0
  6  7  1  0  0  0  0
  7  8  1  0  0  0  0
  8  9  2  0  0  0  0
  9 10  1  0  0  0  0
 10 11  1  0  0  0  0
 11 12  2  0  0  0  0
 12 13  1  0  0  0  0
 13 14  1  0  0  0  0
 14 15  2  0  0  0  0
 15 16  1  0  0  0  0
 16 17  1  0  0  0  0
 17 18  2  0  0  0  0
 18 19  1  0  0  0  0
 19 20  1  0  0  0  0
 20 21  2  0  0  0  0
 21 22  1  0  0  0  0
 22 23  1  0  0  0  0
 23 24  2  0  0  0  0
 24 25  1  0  0  0  0
 25 26  1  0  0  0  0
M  END
> <Inchi_key>
ITNKVODZACVXDS-YNUSHXQLSA-N

> <Source>
Mulliner

> <ID>
HT1540

> <H_MFHB>
1

> <CAS>


> <Cholestasis>


> <Name>
omega-3-acid ethyl esters

> <Class>
1


$$$$