
  -INDIGO-08031710012D

 26 28  0  0  0  0  0  0  0  0999 V2000
    6.7501   -3.8971    0.0000 S   0  0  0  0  0  0  0  0  0  0  0  0
    5.9999   -5.1962    0.0000 O   0  0  0  0  0  0  0  0  0  0  0  0
    5.9999   -2.5981    0.0000 C   0  0  0  0  0  0  0  0  0  0  0  0
    8.2500   -3.8971    0.0000 C   0  0  0  0  0  0  0  0  0  0  0  0
    9.1316   -5.1106    0.0000 N   0  0  0  0  0  0  0  0  0  0  0  0
    9.1316   -2.6836    0.0000 N   0  0  0  0  0  0  0  0  0  0  0  0
   10.5584   -4.6471    0.0000 C   0  0  0  0  0  0  0  0  0  0  0  0
   10.5584   -3.1471    0.0000 C   0  0  0  0  0  0  0  0  0  0  0  0
   11.8572   -5.3971    0.0000 C   0  0  0  0  0  0  0  0  0  0  0  0
   11.8572   -2.3971    0.0000 C   0  0  0  0  0  0  0  0  0  0  0  0
   13.1562   -4.6471    0.0000 C   0  0  0  0  0  0  0  0  0  0  0  0
   13.1562   -3.1471    0.0000 C   0  0  0  0  0  0  0  0  0  0  0  0
   14.4555   -5.3971    0.0000 O   0  0  0  0  0  0  0  0  0  0  0  0
   15.7545   -4.6471    0.0000 C   0  0  0  0  0  0  0  0  0  0  0  0
   17.0535   -5.3971    0.0000 F   0  0  0  0  0  0  0  0  0  0  0  0
   15.7545   -3.1471    0.0000 F   0  0  0  0  0  0  0  0  0  0  0  0
    4.5000   -2.5981    0.0000 C   0  0  0  0  0  0  0  0  0  0  0  0
    3.7500   -3.8971    0.0000 N   0  0  0  0  0  0  0  0  0  0  0  0
    3.7500   -1.2990    0.0000 C   0  0  0  0  0  0  0  0  0  0  0  0
    2.2501   -3.8971    0.0000 C   0  0  0  0  0  0  0  0  0  0  0  0
    2.2501   -1.2990    0.0000 C   0  0  0  0  0  0  0  0  0  0  0  0
    4.5000    0.0000    0.0000 O   0  0  0  0  0  0  0  0  0  0  0  0
    1.4999   -2.5981    0.0000 C   0  0  0  0  0  0  0  0  0  0  0  0
    1.4999    0.0000    0.0000 O   0  0  0  0  0  0  0  0  0  0  0  0
    3.7500    1.2990    0.0000 C   0  0  0  0  0  0  0  0  0  0  0  0
    0.0000    0.0000    0.0000 C   0  0  0  0  0  0  0  0  0  0  0  0
  1  2  1  0  0  0  0
  1  3  1  0  0  0  0
  1  4  1  0  0  0  0
  5  4  2  0  0  0  0
  4  6  1  0  0  0  0
  7  5  1  0  0  0  0
  6  8  1  0  0  0  0
  9  7  2  0  0  0  0
  7  8  1  0  0  0  0
  8 10  2  0  0  0  0
 11  9  1  0  0  0  0
 10 12  1  0  0  0  0
 11 13  1  0  0  0  0
 12 11  2  0  0  0  0
 13 14  1  0  0  0  0
 14 15  1  0  0  0  0
 14 16  1  0  0  0  0
  3 17  1  0  0  0  0
 18 17  2  0  0  0  0
 17 19  1  0  0  0  0
 20 18  1  0  0  0  0
 19 21  2  0  0  0  0
 19 22  1  0  0  0  0
 23 20  2  0  0  0  0
 21 24  1  0  0  0  0
 21 23  1  0  0  0  0
 22 25  1  0  0  0  0
 24 26  1  0  0  0  0
M  CHG  2   1   1   2  -1
M  END
> <Inchi_key>
IQPSEEYGBUAQFF-UHFFFAOYSA-N

> <Source>
Mulliner

> <ID>
HT1586

> <H_MFHB>
1

> <CAS>


> <Cholestasis>


> <Name>
pantoprazole sodium;pantoprazole

> <Class>
1

$$$$