

  -INDIGO-08031710012D

 14 14  0  0  0  0  0  0  0  0999 V2000
    3.9511    0.4402    0.0000 C   0  0  0  0  0  0  0  0  0  0  0  0
    2.4879    0.1101    0.0000 C   0  0  0  0  0  0  0  0  0  0  0  0
    1.3608    1.0998    0.0000 N   0  0  0  0  0  0  0  0  0  0  0  0
    0.0711    0.3336    0.0000 C   0  0  0  0  0  0  0  0  0  0  0  0
    0.4013   -1.1296    0.0000 C   0  0  0  0  0  0  0  0  0  0  0  0
   -0.5884   -2.2567    0.0000 N   0  0  0  0  0  0  0  0  0  0  0  0
   -2.0594   -1.9632    0.0000 O   0  0  0  0  0  0  0  0  0  0  0  0
   -0.1072   -3.6774    0.0000 O   0  0  0  0  0  0  0  0  0  0  0  0
    1.8949   -1.2678    0.0000 N   0  0  0  0  0  0  0  0  0  0  0  0
    2.6610   -2.5573    0.0000 C   0  0  0  0  0  0  0  0  0  0  0  0
    4.1609   -2.5386    0.0000 C   0  0  0  0  0  0  0  0  0  0  0  0
    4.8947   -1.2304    0.0000 O   0  0  0  0  0  0  0  0  0  0  0  0
    4.9271   -3.8282    0.0000 C   0  0  0  0  0  0  0  0  0  0  0  0
    6.4269   -3.8095    0.0000 Cl  0  0  0  0  0  0  0  0  0  0  0  0
  1  2  1  0  0  0  0
  3  2  2  0  0  0  0
  2  9  1  0  0  0  0
  4  3  1  0  0  0  0
  5  4  2  0  0  0  0
  5  6  1  0  0  0  0
  9  5  1  0  0  0  0
  6  7  2  0  0  0  0
  6  8  1  0  0  0  0
  9 10  1  0  0  0  0
 10 11  1  0  0  0  0
 11 12  1  0  0  0  0
 11 13  1  0  0  0  0
 13 14  1  0  0  0  0
M  CHG  2   6   1   8  -1
M  END
> <Inchi_key>
IPWKIXLWTCNBKN-UHFFFAOYSA-N

> <Source>
Mulliner

> <ID>
HT1544

> <H_MFHB>
1

> <CAS>


> <Cholestasis>


> <Name>
ornidazole

> <Class>
1


$$$$