

  -INDIGO-08031710012D

 26 27  0  0  0  0  0  0  0  0999 V2000
    7.8005   -0.6400    0.0000 C   0  0  0  0  0  0  0  0  0  0  0  0
    7.8084   -2.1400    0.0000 C   0  0  0  0  0  0  0  0  0  0  0  0
    6.5132   -2.8967    0.0000 C   0  0  0  0  0  0  0  0  0  0  0  0
    6.5210   -4.3966    0.0000 C   0  0  0  0  0  0  0  0  0  0  0  0
    5.2258   -5.1533    0.0000 N   0  0  0  0  0  0  0  0  0  0  0  0
    3.9229   -4.4101    0.0000 C   0  0  0  0  0  0  0  0  0  0  0  0
    3.9151   -2.9102    0.0000 C   0  0  0  0  0  0  0  0  0  0  0  0
    2.6277   -5.1668    0.0000 C   0  0  0  0  0  0  0  0  0  0  0  0
    2.6355   -6.6668    0.0000 O   0  0  0  0  0  0  0  0  0  0  0  0
    1.3248   -4.4234    0.0000 N   0  0  0  0  0  0  0  0  0  0  0  0
    1.1603   -2.9326    0.0000 C   0  0  0  0  0  0  0  0  0  0  0  0
    2.1583   -1.8127    0.0000 C   0  0  0  0  0  0  0  0  0  0  0  0
    1.6874   -0.3884    0.0000 C   0  0  0  0  0  0  0  0  0  0  0  0
    0.2185   -0.0842    0.0000 C   0  0  0  0  0  0  0  0  0  0  0  0
   -0.7793   -1.2041    0.0000 C   0  0  0  0  0  0  0  0  0  0  0  0
   -0.3086   -2.6283    0.0000 C   0  0  0  0  0  0  0  0  0  0  0  0
   -1.0518   -3.9312    0.0000 C   0  0  0  0  0  0  0  0  0  0  0  0
   -0.0423   -5.0406    0.0000 C   0  0  0  0  0  0  0  0  0  0  0  0
   -0.3465   -6.5095    0.0000 C   0  0  0  0  0  0  0  0  0  0  0  0
    0.7733   -7.5074    0.0000 O   0  0  0  0  0  0  0  0  0  0  0  0
   -1.7708   -6.9805    0.0000 O   0  0  0  0  0  0  0  0  0  0  0  0
    7.8238   -5.1399    0.0000 C   0  0  0  0  0  0  0  0  0  0  0  0
    9.1191   -4.3832    0.0000 O   0  0  0  0  0  0  0  0  0  0  0  0
    7.8317   -6.6398    0.0000 O   0  0  0  0  0  0  0  0  0  0  0  0
    9.1345   -7.3833    0.0000 C   0  0  0  0  0  0  0  0  0  0  0  0
    9.1422   -8.8831    0.0000 C   0  0  0  0  0  0  0  0  0  0  0  0
  1  2  1  0  0  0  0
  2  3  1  0  0  0  0
  3  4  1  0  0  0  0
  4  5  1  0  0  0  0
  4 22  1  0  0  0  0
  5  6  1  0  0  0  0
  6  7  1  0  0  0  0
  6  8  1  0  0  0  0
  8  9  2  0  0  0  0
  8 10  1  0  0  0  0
 11 10  1  0  0  0  0
 10 18  1  0  0  0  0
 12 11  1  0  0  0  0
 11 16  1  0  0  0  0
 13 12  1  0  0  0  0
 14 13  1  0  0  0  0
 15 14  1  0  0  0  0
 16 15  1  0  0  0  0
 17 16  1  0  0  0  0
 18 17  1  0  0  0  0
 18 19  1  0  0  0  0
 19 20  2  0  0  0  0
 19 21  1  0  0  0  0
 22 23  2  0  0  0  0
 22 24  1  0  0  0  0
 24 25  1  0  0  0  0
 25 26  1  0  0  0  0
M  END
> <Inchi_key>
IPVQLZZIHOAWMC-UHFFFAOYSA-N

> <Source>
Mulliner

> <ID>
HT1637

> <H_MFHB>
1

> <CAS>


> <Cholestasis>


> <Name>
perindopril erbumine;perindopril

> <Class>
1


$$$$