
  -INDIGO-08031710012D

 25 27  0  0  0  0  0  0  0  0999 V2000
   18.3863   -4.9622    0.0000 C   0  0  0  0  0  0  0  0  0  0  0  0
   17.0900   -4.2075    0.0000 C   0  0  0  0  0  0  0  0  0  0  0  0
   15.7882   -4.9528    0.0000 C   0  0  0  0  0  0  0  0  0  0  0  0
   14.4920   -4.1981    0.0000 C   0  0  0  0  0  0  0  0  0  0  0  0
   13.1902   -4.9434    0.0000 C   0  0  0  0  0  0  0  0  0  0  0  0
   13.1847   -6.4434    0.0000 C   0  0  0  0  0  0  0  0  0  0  0  0
   11.8832   -7.1887    0.0000 C   0  0  0  0  0  0  0  0  0  0  0  0
   10.5866   -6.4340    0.0000 C   0  0  0  0  0  0  0  0  0  0  0  0
    9.2849   -7.1794    0.0000 O   0  0  0  0  0  0  0  0  0  0  0  0
    7.9886   -6.4247    0.0000 C   0  0  0  0  0  0  0  0  0  0  0  0
    6.6868   -7.1700    0.0000 C   0  0  0  0  0  0  0  0  0  0  0  0
    5.3905   -6.4153    0.0000 C   0  0  0  0  0  0  0  0  0  0  0  0
    5.3960   -4.9153    0.0000 C   0  0  0  0  0  0  0  0  0  0  0  0
    4.0997   -4.1606    0.0000 C   0  0  0  0  0  0  0  0  0  0  0  0
    2.7980   -4.9059    0.0000 C   0  0  0  0  0  0  0  0  0  0  0  0
    2.6357   -6.3971    0.0000 S   0  0  0  0  0  0  0  0  0  0  0  0
    1.1675   -6.7037    0.0000 C   0  0  0  0  0  0  0  0  0  0  0  0
    0.5524   -8.0718    0.0000 O   0  0  0  0  0  0  0  0  0  0  0  0
    0.4222   -5.4019    0.0000 N   0  0  0  0  0  0  0  0  0  0  0  0
    1.4298   -4.2909    0.0000 C   0  0  0  0  0  0  0  0  0  0  0  0
    1.1234   -2.8225    0.0000 O   0  0  0  0  0  0  0  0  0  0  0  0
    6.6978   -4.1700    0.0000 C   0  0  0  0  0  0  0  0  0  0  0  0
    7.9941   -4.9247    0.0000 C   0  0  0  0  0  0  0  0  0  0  0  0
   14.4810   -7.1981    0.0000 N   0  0  0  0  0  0  0  0  0  0  0  0
   15.7830   -6.4528    0.0000 C   0  0  0  0  0  0  0  0  0  0  0  0
  1  2  1  0  0  0  0
  2  3  1  0  0  0  0
  4  3  2  0  0  0  0
  3 25  1  0  0  0  0
  5  4  1  0  0  0  0
  6  5  2  0  0  0  0
  6  7  1  0  0  0  0
 24  6  1  0  0  0  0
  7  8  1  0  0  0  0
  8  9  1  0  0  0  0
  9 10  1  0  0  0  0
 11 10  2  0  0  0  0
 10 23  1  0  0  0  0
 12 11  1  0  0  0  0
 13 12  2  0  0  0  0
 13 14  1  0  0  0  0
 22 13  1  0  0  0  0
 14 15  1  0  0  0  0
 16 15  1  0  0  0  0
 15 20  1  0  0  0  0
 17 16  1  0  0  0  0
 17 18  2  0  0  0  0
 19 17  1  0  0  0  0
 20 19  1  0  0  0  0
 20 21  2  0  0  0  0
 23 22  2  0  0  0  0
 25 24  2  0  0  0  0
M  END
> <Inchi_key>
HYAFETHFCAUJAY-UHFFFAOYSA-N

> <Source>
Mulliner , Kotsampasakou

> <ID>
EK0428;HT1677

> <H_MFHB>
1

> <CAS>
111025-46-8

> <Cholestasis>
1

> <Name>
pioglitazone hydrochloride;pioglitazone

> <Class>
1

$$$$