
  -INDIGO-08031709442D

 25 26  0  0  0  0  0  0  0  0999 V2000
   -1.3671   -2.1723    0.0000 O   0  0  0  0  0  0  0  0  0  0  0  0
   -0.7182   -3.5247    0.0000 C   0  0  0  0  0  0  0  0  0  0  0  0
   -1.5650   -4.7628    0.0000 O   0  0  0  0  0  0  0  0  0  0  0  0
    0.6969   -4.0221    0.0000 C   0  0  0  0  0  0  0  0  0  0  0  0
    1.9876   -3.2578    0.0000 C   0  0  0  0  0  0  0  0  0  0  0  0
    3.2948   -3.9934    0.0000 C   0  0  0  0  0  0  0  0  0  0  0  0
    4.5855   -3.2291    0.0000 C   0  0  0  0  0  0  0  0  0  0  0  0
    5.8927   -3.9648    0.0000 O   0  0  0  0  0  0  0  0  0  0  0  0
    7.1834   -3.2005    0.0000 C   0  0  0  0  0  0  0  0  0  0  0  0
    4.5690   -1.7292    0.0000 O   0  0  0  0  0  0  0  0  0  0  0  0
    3.3115   -5.4933    0.0000 C   0  0  0  0  0  0  0  0  0  0  0  0
    2.0207   -6.2576    0.0000 N   0  0  0  0  0  0  0  0  0  0  0  0
    0.7136   -5.5220    0.0000 C   0  0  0  0  0  0  0  0  0  0  0  0
   -0.5772   -6.2863    0.0000 C   0  0  0  0  0  0  0  0  0  0  0  0
    4.6186   -6.2290    0.0000 C   0  0  0  0  0  0  0  0  0  0  0  0
    2.4851   -1.8427    0.0000 C   0  0  0  0  0  0  0  0  0  0  0  0
    3.9849   -1.8262    0.0000 C   0  0  0  0  0  0  0  0  0  0  0  0
    4.7206   -0.5189    0.0000 C   0  0  0  0  0  0  0  0  0  0  0  0
    3.9562    0.7718    0.0000 C   0  0  0  0  0  0  0  0  0  0  0  0
    2.4562    0.7551    0.0000 C   0  0  0  0  0  0  0  0  0  0  0  0
    1.7207   -0.5520    0.0000 C   0  0  0  0  0  0  0  0  0  0  0  0
    0.2407   -0.3079    0.0000 N   0  0  0  0  0  0  0  0  0  0  0  0
   -0.7107   -1.4675    0.0000 O   0  0  0  0  0  0  0  0  0  0  0  0
   -0.2877    1.0959    0.0000 O   0  0  0  0  0  0  0  0  0  0  0  0
   -2.8628   -2.0581    0.0000 C   0  0  0  0  0  0  0  0  0  0  0  0
  1  2  1  0  0  0  0
  1 25  1  0  0  0  0
  2  3  2  0  0  0  0
  2  4  1  0  0  0  0
  5  4  1  0  0  0  0
  4 13  2  0  0  0  0
  6  5  1  0  0  0  0
  5 16  1  0  0  0  0
  6  7  1  0  0  0  0
 11  6  2  0  0  0  0
  7  8  1  0  0  0  0
  7 10  2  0  0  0  0
  8  9  1  0  0  0  0
 12 11  1  0  0  0  0
 11 15  1  0  0  0  0
 13 12  1  0  0  0  0
 13 14  1  0  0  0  0
 17 16  2  0  0  0  0
 16 21  1  0  0  0  0
 18 17  1  0  0  0  0
 19 18  2  0  0  0  0
 20 19  1  0  0  0  0
 21 20  2  0  0  0  0
 21 22  1  0  0  0  0
 22 23  2  0  0  0  0
 22 24  1  0  0  0  0
M  CHG  2  22   1  24  -1
M  END
> <Inchi_key>
HYIMSNHJOBLJNT-UHFFFAOYSA-N, HZAYOBLZTKMKJT-SSZFMOIBSA-N

> <Source>
Kotsampasakou, Mulliner

> <ID>
HT1489;EK0381

> <H_MFHB>
1

> <CAS>
21829-25-4

> <Cholestasis>
1

> <Name>
nifedipine

> <Class>
1

$$$$