
  -INDIGO-08031710012D

 19 19  0  0  0  0  0  0  0  0999 V2000
   15.6699   -6.3303    0.0000 C   0  0  0  0  0  0  0  0  0  0  0  0
   14.3709   -7.0803    0.0000 O   0  0  0  0  0  0  0  0  0  0  0  0
   13.0719   -6.3303    0.0000 C   0  0  0  0  0  0  0  0  0  0  0  0
   11.7729   -7.0803    0.0000 C   0  0  0  0  0  0  0  0  0  0  0  0
   10.4736   -6.3303    0.0000 C   0  0  0  0  0  0  0  0  0  0  0  0
    9.1746   -7.0803    0.0000 C   0  0  0  0  0  0  0  0  0  0  0  0
    7.8757   -6.3303    0.0000 C   0  0  0  0  0  0  0  0  0  0  0  0
    7.8757   -4.8303    0.0000 C   0  0  0  0  0  0  0  0  0  0  0  0
    6.5767   -4.0803    0.0000 O   0  0  0  0  0  0  0  0  0  0  0  0
    5.2777   -4.8303    0.0000 C   0  0  0  0  0  0  0  0  0  0  0  0
    3.9784   -4.0803    0.0000 C   0  0  0  0  0  0  0  0  0  0  0  0
    3.9784   -2.5803    0.0000 O   0  0  0  0  0  0  0  0  0  0  0  0
    2.6794   -4.8303    0.0000 C   0  0  0  0  0  0  0  0  0  0  0  0
    1.3804   -4.0803    0.0000 N   0  0  0  0  0  0  0  0  0  0  0  0
    0.0814   -4.8303    0.0000 C   0  0  0  0  0  0  0  0  0  0  0  0
    0.0814   -6.3303    0.0000 C   0  0  0  0  0  0  0  0  0  0  0  0
   -1.2176   -4.0803    0.0000 C   0  0  0  0  0  0  0  0  0  0  0  0
    9.1746   -4.0803    0.0000 C   0  0  0  0  0  0  0  0  0  0  0  0
   10.4736   -4.8303    0.0000 C   0  0  0  0  0  0  0  0  0  0  0  0
  1  2  1  0  0  0  0
  2  3  1  0  0  0  0
  3  4  1  0  0  0  0
  4  5  1  0  0  0  0
  6  5  2  0  0  0  0
  5 19  1  0  0  0  0
  7  6  1  0  0  0  0
  8  7  2  0  0  0  0
  8  9  1  0  0  0  0
 18  8  1  0  0  0  0
  9 10  1  0  0  0  0
 10 11  1  0  0  0  0
 11 12  1  0  0  0  0
 11 13  1  0  0  0  0
 13 14  1  0  0  0  0
 14 15  1  0  0  0  0
 15 16  1  0  0  0  0
 15 17  1  0  0  0  0
 19 18  2  0  0  0  0
M  END
> <Inchi_key>
IUBSYMUCCVWXPE-UHFFFAOYSA-N

> <Source>
Mulliner

> <ID>
HT1379

> <H_MFHB>
1

> <CAS>


> <Cholestasis>


> <Name>
metoprolol fumarate;metoprolol succinate;metoprolol tartrate;metoprolol

> <Class>
1

$$$$