

  -INDIGO-08031709442D

 65 67  0  0  0  0  0  0  0  0999 V2000
    2.3652    3.0607    0.0000 O   0  0  0  0  0  0  0  0  0  0  0  0
    3.8322    3.2859    0.0000 C   0  0  0  0  0  0  0  0  0  0  0  0
    4.6495    2.0280    0.0000 C   0  0  0  0  0  0  0  0  0  0  0  0
    4.5803    4.4518    0.0000 C   0  0  0  0  0  0  0  0  0  0  0  0
    6.0451    4.1288    0.0000 C   0  0  0  0  0  0  0  0  0  0  0  0
    4.3889    5.8459    0.0000 C   0  0  0  0  0  0  0  0  0  0  0  0
    5.6466    6.6633    0.0000 O   0  0  0  0  0  0  0  0  0  0  0  0
    3.1363    6.6222    0.0000 C   0  0  0  0  0  0  0  0  0  0  0  0
    1.8723    7.4298    0.0000 C   0  0  0  0  0  0  0  0  0  0  0  0
    2.2651    8.8777    0.0000 C   0  0  0  0  0  0  0  0  0  0  0  0
    1.6312    9.7759    0.0000 C   0  0  0  0  0  0  0  0  0  0  0  0
    1.5481   11.2090    0.0000 C   0  0  0  0  0  0  0  0  0  0  0  0
    0.4890   11.8888    0.0000 C   0  0  0  0  0  0  0  0  0  0  0  0
   -0.9701   12.1507    0.0000 C   0  0  0  0  0  0  0  0  0  0  0  0
   -1.4149   13.0626    0.0000 C   0  0  0  0  0  0  0  0  0  0  0  0
   -2.9558   12.7848    0.0000 C   0  0  0  0  0  0  0  0  0  0  0  0
   -4.4956   13.9445    0.0000 C   0  0  0  0  0  0  0  0  0  0  0  0
   -4.9425   12.6378    0.0000 C   0  0  0  0  0  0  0  0  0  0  0  0
   -6.3437   11.9232    0.0000 C   0  0  0  0  0  0  0  0  0  0  0  0
   -7.8888   11.6727    0.0000 C   0  0  0  0  0  0  0  0  0  0  0  0
   -7.7367   10.4184    0.0000 C   0  0  0  0  0  0  0  0  0  0  0  0
   -9.1871   10.0465    0.0000 C   0  0  0  0  0  0  0  0  0  0  0  0
   -9.5191    8.5838    0.0000 C   0  0  0  0  0  0  0  0  0  0  0  0
   -8.2318    7.8139    0.0000 O   0  0  0  0  0  0  0  0  0  0  0  0
   -6.9213    8.5436    0.0000 C   0  0  0  0  0  0  0  0  0  0  0  0
   -6.8983   10.0434    0.0000 O   0  0  0  0  0  0  0  0  0  0  0  0
   -5.5877   10.7733    0.0000 C   0  0  0  0  0  0  0  0  0  0  0  0
   -5.5647   12.2731    0.0000 C   0  0  0  0  0  0  0  0  0  0  0  0
   -4.3004   10.0035    0.0000 C   0  0  0  0  0  0  0  0  0  0  0  0
   -2.9901   10.7334    0.0000 O   0  0  0  0  0  0  0  0  0  0  0  0
   -4.3237    8.5037    0.0000 C   0  0  0  0  0  0  0  0  0  0  0  0
   -3.0364    7.7336    0.0000 N   0  0  0  0  0  0  0  0  0  0  0  0
   -5.6340    7.7737    0.0000 C   0  0  0  0  0  0  0  0  0  0  0  0
   -5.6573    6.2740    0.0000 O   0  0  0  0  0  0  0  0  0  0  0  0
  -10.6616    7.5902    0.0000 C   0  0  0  0  0  0  0  0  0  0  0  0
  -10.7397    6.2666    0.0000 C   0  0  0  0  0  0  0  0  0  0  0  0
   -9.8870    5.0720    0.0000 O   0  0  0  0  0  0  0  0  0  0  0  0
  -10.5203    3.6946    0.0000 C   0  0  0  0  0  0  0  0  0  0  0  0
   -9.0269    3.5538    0.0000 O   0  0  0  0  0  0  0  0  0  0  0  0
  -11.9923    3.5497    0.0000 C   0  0  0  0  0  0  0  0  0  0  0  0
  -12.8739    4.7847    0.0000 C   0  0  0  0  0  0  0  0  0  0  0  0
  -14.3677    4.6482    0.0000 O   0  0  0  0  0  0  0  0  0  0  0  0
  -12.2331    6.1514    0.0000 C   0  0  0  0  0  0  0  0  0  0  0  0
  -13.0864    7.3851    0.0000 C   0  0  0  0  0  0  0  0  0  0  0  0
  -12.4446    8.7408    0.0000 O   0  0  0  0  0  0  0  0  0  0  0  0
  -14.5814    7.2630    0.0000 O   0  0  0  0  0  0  0  0  0  0  0  0
  -10.1584    2.4735    0.0000 C   0  0  0  0  0  0  0  0  0  0  0  0
  -10.5121    1.0633    0.0000 C   0  0  0  0  0  0  0  0  0  0  0  0
  -11.9448    0.6192    0.0000 O   0  0  0  0  0  0  0  0  0  0  0  0
   -9.3363    0.0236    0.0000 C   0  0  0  0  0  0  0  0  0  0  0  0
   -7.9577    0.6642    0.0000 C   0  0  0  0  0  0  0  0  0  0  0  0
   -7.8104    2.1568    0.0000 O   0  0  0  0  0  0  0  0  0  0  0  0
   -6.7409   -0.2259    0.0000 C   0  0  0  0  0  0  0  0  0  0  0  0
   -6.8854   -1.7190    0.0000 O   0  0  0  0  0  0  0  0  0  0  0  0
   -5.3812    0.4113    0.0000 C   0  0  0  0  0  0  0  0  0  0  0  0
   -4.1320   -0.3719    0.0000 C   0  0  0  0  0  0  0  0  0  0  0  0
   -2.7834    0.3518    0.0000 C   0  0  0  0  0  0  0  0  0  0  0  0
   -2.7431    1.8511    0.0000 O   0  0  0  0  0  0  0  0  0  0  0  0
   -1.5351   -0.4068    0.0000 C   0  0  0  0  0  0  0  0  0  0  0  0
   -0.1871    0.0317    0.0000 C   0  0  0  0  0  0  0  0  0  0  0  0
    0.8516   -1.0507    0.0000 O   0  0  0  0  0  0  0  0  0  0  0  0
    0.3313    1.4266    0.0000 C   0  0  0  0  0  0  0  0  0  0  0  0
    1.8222    1.6606    0.0000 C   0  0  0  0  0  0  0  0  0  0  0  0
    2.7636    0.4928    0.0000 O   0  0  0  0  0  0  0  0  0  0  0  0
    2.3371    5.3528    0.0000 C   0  0  0  0  0  0  0  0  0  0  0  0
  2  1  1  0  0  0  0
  1 63  1  0  0  0  0
  2  3  1  0  0  0  0
  4  2  1  0  0  0  0
  4  5  1  0  0  0  0
  6  4  1  0  0  0  0
  6  7  1  0  0  0  0
  8  6  1  0  0  0  0
  9  8  1  0  0  0  0
  8 65  1  0  0  0  0
 10  9  2  0  0  0  0
 11 10  1  0  0  0  0
 12 11  2  0  0  0  0
 13 12  1  0  0  0  0
 14 13  2  0  0  0  0
 15 14  1  0  0  0  0
 16 15  2  0  0  0  0
 17 16  1  0  0  0  0
 18 17  2  0  0  0  0
 19 18  1  0  0  0  0
 20 19  2  0  0  0  0
 21 20  1  0  0  0  0
 22 21  2  0  0  0  0
 23 22  1  0  0  0  0
 23 24  1  0  0  0  0
 35 23  1  0  0  0  0
 24 25  1  0  0  0  0
 26 25  1  0  0  0  0
 25 33  1  0  0  0  0
 27 26  1  0  0  0  0
 27 28  1  0  0  0  0
 29 27  1  0  0  0  0
 29 30  1  0  0  0  0
 31 29  1  0  0  0  0
 31 32  1  0  0  0  0
 33 31  1  0  0  0  0
 33 34  1  0  0  0  0
 36 35  1  0  0  0  0
 36 37  1  0  0  0  0
 43 36  1  0  0  0  0
 37 38  1  0  0  0  0
 38 39  1  0  0  0  0
 38 40  1  0  0  0  0
 47 38  1  0  0  0  0
 40 41  1  0  0  0  0
 41 42  1  0  0  0  0
 41 43  1  0  0  0  0
 43 44  1  0  0  0  0
 44 45  1  0  0  0  0
 44 46  2  0  0  0  0
 48 47  1  0  0  0  0
 48 49  1  0  0  0  0
 50 48  1  0  0  0  0
 51 50  1  0  0  0  0
 51 52  1  0  0  0  0
 53 51  1  0  0  0  0
 53 54  1  0  0  0  0
 55 53  1  0  0  0  0
 56 55  1  0  0  0  0
 57 56  1  0  0  0  0
 57 58  1  0  0  0  0
 59 57  1  0  0  0  0
 60 59  1  0  0  0  0
 60 61  1  0  0  0  0
 62 60  1  0  0  0  0
 63 62  1  0  0  0  0
 63 64  2  0  0  0  0
M  END
> <Inchi_key>
APKFDSVGJQXUKY-QVDADOJXSA-N

> <Source>
Kotsampasakou

> <ID>
EK0034

> <H_MFHB>


> <CAS>


> <Cholestasis>
1

> <Name>
amphotericin b

> <Class>
1


$$$$