
  -INDIGO-08031710012D

 17 17  0  0  0  0  0  0  0  0999 V2000
    0.5347   -1.9955    0.0000 C   0  0  0  0  0  0  0  0  0  0  0  0
    1.8337   -1.2455    0.0000 N   0  0  0  0  0  0  0  0  0  0  0  0
    1.8337    0.2545    0.0000 C   0  0  0  0  0  0  0  0  0  0  0  0
    3.1328    1.0045    0.0000 N   0  0  0  0  0  0  0  0  0  0  0  0
    4.4318    0.2545    0.0000 C   0  0  0  0  0  0  0  0  0  0  0  0
    5.7307    1.0045    0.0000 C   0  0  0  0  0  0  0  0  0  0  0  0
    7.0299    0.2545    0.0000 S   0  0  0  0  0  0  0  0  0  0  0  0
    8.3288    1.0045    0.0000 C   0  0  0  0  0  0  0  0  0  0  0  0
    9.6280    0.2545    0.0000 C   0  0  0  0  0  0  0  0  0  0  0  0
    9.7847   -1.2373    0.0000 N   0  0  0  0  0  0  0  0  0  0  0  0
   11.2520   -1.5491    0.0000 C   0  0  0  0  0  0  0  0  0  0  0  0
   12.0020   -0.2501    0.0000 N   0  0  0  0  0  0  0  0  0  0  0  0
   10.9983    0.8646    0.0000 C   0  0  0  0  0  0  0  0  0  0  0  0
   11.3101    2.3319    0.0000 C   0  0  0  0  0  0  0  0  0  0  0  0
    0.5347    1.0045    0.0000 N   0  0  0  0  0  0  0  0  0  0  0  0
    0.5347    2.5045    0.0000 C   0  0  0  0  0  0  0  0  0  0  0  0
    0.5347    4.0045    0.0000 N   0  0  0  0  0  0  0  0  0  0  0  0
  1  2  1  0  0  0  0
  2  3  2  0  0  0  0
  3  4  1  0  0  0  0
  3 15  1  0  0  0  0
  4  5  1  0  0  0  0
  5  6  1  0  0  0  0
  6  7  1  0  0  0  0
  7  8  1  0  0  0  0
  8  9  1  0  0  0  0
 10  9  1  0  0  0  0
  9 13  2  0  0  0  0
 11 10  1  0  0  0  0
 12 11  2  0  0  0  0
 13 12  1  0  0  0  0
 13 14  1  0  0  0  0
 15 16  1  0  0  0  0
 16 17  3  0  0  0  0
M  END
> <Inchi_key>
AQIXAKUUQRKLND-UHFFFAOYSA-N

> <Source>
Mulliner , Kotsampasakou

> <ID>
EK0121;HT0486

> <H_MFHB>
1

> <CAS>
51481-61-9

> <Cholestasis>
1

> <Name>
cimetidine;cimetidine hydrochloride

> <Class>
1

$$$$