

  -INDIGO-08031710012D

 18 19  0  0  0  0  0  0  0  0999 V2000
   -0.3910    0.2216    0.0000 O   0  0  0  0  0  0  0  0  0  0  0  0
    0.4908    1.4351    0.0000 C   0  0  0  0  0  0  0  0  0  0  0  0
   -0.1194    2.8054    0.0000 N   0  0  0  0  0  0  0  0  0  0  0  0
    1.9825    1.2783    0.0000 C   0  0  0  0  0  0  0  0  0  0  0  0
    2.8641    0.0648    0.0000 N   0  0  0  0  0  0  0  0  0  0  0  0
    2.8641    2.4918    0.0000 C   0  0  0  0  0  0  0  0  0  0  0  0
    4.2908    0.5283    0.0000 C   0  0  0  0  0  0  0  0  0  0  0  0
    4.2908    2.0283    0.0000 N   0  0  0  0  0  0  0  0  0  0  0  0
    2.2540    3.8621    0.0000 N   0  0  0  0  0  0  0  0  0  0  0  0
    5.5043    2.9100    0.0000 C   0  0  0  0  0  0  0  0  0  0  0  0
    0.7622    4.0189    0.0000 C   0  0  0  0  0  0  0  0  0  0  0  0
    6.8747    2.2999    0.0000 O   0  0  0  0  0  0  0  0  0  0  0  0
    0.1523    5.3892    0.0000 N   0  0  0  0  0  0  0  0  0  0  0  0
    8.0880    3.1815    0.0000 C   0  0  0  0  0  0  0  0  0  0  0  0
    9.4584    2.5714    0.0000 C   0  0  0  0  0  0  0  0  0  0  0  0
    7.9312    4.6733    0.0000 C   0  0  0  0  0  0  0  0  0  0  0  0
    9.6152    1.0796    0.0000 O   0  0  0  0  0  0  0  0  0  0  0  0
    9.1448    5.5550    0.0000 O   0  0  0  0  0  0  0  0  0  0  0  0
  1  2  2  0  0  0  0
  3  2  1  0  0  0  0
  2  4  1  0  0  0  0
  5  4  1  0  0  0  0
  4  6  2  0  0  0  0
  7  5  2  0  0  0  0
  6  8  1  0  0  0  0
  6  9  1  0  0  0  0
  8  7  1  0  0  0  0
  8 10  1  0  0  0  0
  9 11  2  0  0  0  0
 10 12  1  0  0  0  0
 11 13  1  0  0  0  0
 11  3  1  0  0  0  0
 12 14  1  0  0  0  0
 14 15  1  0  0  0  0
 14 16  1  0  0  0  0
 15 17  1  0  0  0  0
 16 18  1  0  0  0  0
M  END
> <Inchi_key>
IRSCQMHQWWYFCW-UHFFFAOYSA-N

> <Source>
Mulliner , Kotsampasakou

> <ID>
EK0239;HT0964

> <H_MFHB>
1

> <CAS>


> <Cholestasis>
1

> <Name>
ganciclovir

> <Class>
1


$$$$