
  -INDIGO-08031710012D

 21 22  0  0  0  0  0  0  0  0999 V2000
    1.0313    7.0808    0.0000 C   0  0  0  0  0  0  0  0  0  0  0  0
   -0.2678    6.3308    0.0000 O   0  0  0  0  0  0  0  0  0  0  0  0
   -0.2678    4.8308    0.0000 C   0  0  0  0  0  0  0  0  0  0  0  0
    1.0313    4.0808    0.0000 C   0  0  0  0  0  0  0  0  0  0  0  0
    1.0313    2.5808    0.0000 C   0  0  0  0  0  0  0  0  0  0  0  0
    2.3303    1.8308    0.0000 C   0  0  0  0  0  0  0  0  0  0  0  0
    3.6294    2.5808    0.0000 C   0  0  0  0  0  0  0  0  0  0  0  0
    3.6294    4.0808    0.0000 C   0  0  0  0  0  0  0  0  0  0  0  0
    4.9285    4.8308    0.0000 N   0  0  0  0  0  0  0  0  0  0  0  0
    6.2274    4.0808    0.0000 C   0  0  0  0  0  0  0  0  0  0  0  0
    7.5265    4.8308    0.0000 N   0  0  0  0  0  0  0  0  0  0  0  0
    6.2274    2.5808    0.0000 N   0  0  0  0  0  0  0  0  0  0  0  0
    4.9285    1.8308    0.0000 C   0  0  0  0  0  0  0  0  0  0  0  0
    4.9285    0.3308    0.0000 N   0  0  0  0  0  0  0  0  0  0  0  0
   -0.2678    1.8308    0.0000 C   0  0  0  0  0  0  0  0  0  0  0  0
   -1.5669    2.5808    0.0000 C   0  0  0  0  0  0  0  0  0  0  0  0
   -2.8658    1.8308    0.0000 O   0  0  0  0  0  0  0  0  0  0  0  0
   -2.8658    0.3308    0.0000 C   0  0  0  0  0  0  0  0  0  0  0  0
   -1.5669    4.0808    0.0000 C   0  0  0  0  0  0  0  0  0  0  0  0
   -2.8658    4.8308    0.0000 O   0  0  0  0  0  0  0  0  0  0  0  0
   -4.1649    4.0808    0.0000 C   0  0  0  0  0  0  0  0  0  0  0  0
  1  2  1  0  0  0  0
  2  3  1  0  0  0  0
  4  3  2  0  0  0  0
  3 19  1  0  0  0  0
  5  4  1  0  0  0  0
  5  6  1  0  0  0  0
 15  5  2  0  0  0  0
  6  7  1  0  0  0  0
  8  7  2  0  0  0  0
  7 13  1  0  0  0  0
  9  8  1  0  0  0  0
 10  9  2  0  0  0  0
 10 11  1  0  0  0  0
 12 10  1  0  0  0  0
 13 12  2  0  0  0  0
 13 14  1  0  0  0  0
 16 15  1  0  0  0  0
 16 17  1  0  0  0  0
 19 16  2  0  0  0  0
 17 18  1  0  0  0  0
 19 20  1  0  0  0  0
 20 21  1  0  0  0  0
M  END
> <Inchi_key>
IEDVJHCEMCRBQM-UHFFFAOYSA-N

> <Source>
Mulliner , Kotsampasakou

> <ID>
EK0552;HT2128

> <H_MFHB>
1

> <CAS>


> <Cholestasis>
1

> <Name>
trimethoprim;trimethoprim hydrochloride

> <Class>
1

$$$$