
  -INDIGO-08031710012D

 21 22  0  0  0  0  0  0  0  0999 V2000
    0.0000   -3.0929    0.0000 C   0  0  0  0  0  0  0  0  0  0  0  0
    1.5000   -3.0929    0.0000 S   0  0  0  0  0  0  0  0  0  0  0  0
    1.5000   -4.5929    0.0000 O   0  0  0  0  0  0  0  0  0  0  0  0
    1.5000   -1.5929    0.0000 O   0  0  0  0  0  0  0  0  0  0  0  0
    3.0000   -3.0929    0.0000 N   0  0  0  0  0  0  0  0  0  0  0  0
    3.7499   -1.7939    0.0000 C   0  0  0  0  0  0  0  0  0  0  0  0
    3.0000   -0.4949    0.0000 C   0  0  0  0  0  0  0  0  0  0  0  0
    3.7499    0.8041    0.0000 C   0  0  0  0  0  0  0  0  0  0  0  0
    5.2501    0.8041    0.0000 C   0  0  0  0  0  0  0  0  0  0  0  0
    6.0001   -0.4949    0.0000 C   0  0  0  0  0  0  0  0  0  0  0  0
    5.2501   -1.7939    0.0000 C   0  0  0  0  0  0  0  0  0  0  0  0
    6.0001   -3.0929    0.0000 O   0  0  0  0  0  0  0  0  0  0  0  0
    7.5000   -3.0929    0.0000 C   0  0  0  0  0  0  0  0  0  0  0  0
    8.2500   -1.7939    0.0000 C   0  0  0  0  0  0  0  0  0  0  0  0
    9.7500   -1.7939    0.0000 C   0  0  0  0  0  0  0  0  0  0  0  0
   10.5000   -3.0929    0.0000 C   0  0  0  0  0  0  0  0  0  0  0  0
    9.7500   -4.3920    0.0000 C   0  0  0  0  0  0  0  0  0  0  0  0
    8.2500   -4.3920    0.0000 C   0  0  0  0  0  0  0  0  0  0  0  0
    6.0001    2.1032    0.0000 N   0  0  0  0  0  0  0  0  0  0  0  0
    7.5000    2.1032    0.0000 O   0  0  0  0  0  0  0  0  0  0  0  0
    5.2501    3.4022    0.0000 O   0  0  0  0  0  0  0  0  0  0  0  0
  1  2  1  0  0  0  0
  2  3  2  0  0  0  0
  2  4  2  0  0  0  0
  2  5  1  0  0  0  0
  5  6  1  0  0  0  0
  7  6  2  0  0  0  0
  6 11  1  0  0  0  0
  8  7  1  0  0  0  0
  9  8  2  0  0  0  0
 10  9  1  0  0  0  0
  9 19  1  0  0  0  0
 11 10  2  0  0  0  0
 11 12  1  0  0  0  0
 12 13  1  0  0  0  0
 14 13  2  0  0  0  0
 13 18  1  0  0  0  0
 15 14  1  0  0  0  0
 16 15  2  0  0  0  0
 17 16  1  0  0  0  0
 18 17  2  0  0  0  0
 19 20  2  0  0  0  0
 19 21  1  0  0  0  0
M  CHG  2  19   1  21  -1
M  END
> <Inchi_key>
HYWYRSMBCFDLJT-UHFFFAOYSA-N

> <Source>
Mulliner

> <ID>
HT1495

> <H_MFHB>
1

> <CAS>


> <Cholestasis>


> <Name>
nimesulide

> <Class>
1

$$$$