
  -INDIGO-08031709442D

 24 24  0  0  0  0  0  0  0  0999 V2000
   -9.3718   -9.3718    0.0000 O   0  0  0  0  0  0  0  0  0  0  0  0
   -9.3718  -10.8718    0.0000 C   0  0  0  0  0  0  0  0  0  0  0  0
   -8.0728   -8.6218    0.0000 C   0  0  0  0  0  0  0  0  0  0  0  0
   -6.7738   -9.3718    0.0000 C   0  0  0  0  0  0  0  0  0  0  0  0
   -5.4748   -8.6218    0.0000 C   0  0  0  0  0  0  0  0  0  0  0  0
   -4.1758   -9.3718    0.0000 C   0  0  0  0  0  0  0  0  0  0  0  0
   -5.4748   -7.1218    0.0000 C   0  0  0  0  0  0  0  0  0  0  0  0
   -4.1758   -6.3718    0.0000 C   0  0  0  0  0  0  0  0  0  0  0  0
   -2.8765   -7.1218    0.0000 C   0  0  0  0  0  0  0  0  0  0  0  0
   -1.5775   -6.3718    0.0000 C   0  0  0  0  0  0  0  0  0  0  0  0
   -0.2786   -7.1218    0.0000 C   0  0  0  0  0  0  0  0  0  0  0  0
    1.0204   -6.3718    0.0000 C   0  0  0  0  0  0  0  0  0  0  0  0
    2.3194   -7.1218    0.0000 C   0  0  0  0  0  0  0  0  0  0  0  0
    3.6184   -6.3718    0.0000 C   0  0  0  0  0  0  0  0  0  0  0  0
    4.9177   -7.1218    0.0000 C   0  0  0  0  0  0  0  0  0  0  0  0
    6.2167   -6.3718    0.0000 C   0  0  0  0  0  0  0  0  0  0  0  0
    6.2167   -4.8718    0.0000 O   0  0  0  0  0  0  0  0  0  0  0  0
    7.5157   -7.1218    0.0000 O   0  0  0  0  0  0  0  0  0  0  0  0
    3.6184   -4.8718    0.0000 C   0  0  0  0  0  0  0  0  0  0  0  0
   -1.5775   -4.8718    0.0000 C   0  0  0  0  0  0  0  0  0  0  0  0
   -6.7738   -6.3718    0.0000 C   0  0  0  0  0  0  0  0  0  0  0  0
   -6.7738   -4.8718    0.0000 C   0  0  0  0  0  0  0  0  0  0  0  0
   -8.0728   -7.1218    0.0000 C   0  0  0  0  0  0  0  0  0  0  0  0
   -9.3718   -6.3718    0.0000 C   0  0  0  0  0  0  0  0  0  0  0  0
  1  2  1  0  0  0  0
  1  3  1  0  0  0  0
  4  3  2  0  0  0  0
  3 23  1  0  0  0  0
  5  4  1  0  0  0  0
  5  6  1  0  0  0  0
  7  5  2  0  0  0  0
  7  8  1  0  0  0  0
 21  7  1  0  0  0  0
  8  9  2  0  0  0  0
  9 10  1  0  0  0  0
 10 11  2  0  0  0  0
 10 20  1  0  0  0  0
 11 12  1  0  0  0  0
 12 13  2  0  0  0  0
 13 14  1  0  0  0  0
 14 15  2  0  0  0  0
 14 19  1  0  0  0  0
 15 16  1  0  0  0  0
 16 17  1  0  0  0  0
 16 18  2  0  0  0  0
 21 22  1  0  0  0  0
 23 21  2  0  0  0  0
 23 24  1  0  0  0  0
M  END
> <Inchi_key>
IHUNBGSDBOWDMA-AQFIFDHZSA-N, IHUNBGSDBOWDMA-XPSOSLLISA-N

> <Source>
Kotsampasakou,  Mulliner

> <ID>
HT0065;EK0008

> <H_MFHB>
1

> <CAS>
55079-83-9

> <Cholestasis>
1

> <Name>
acitretin

> <Class>
1

$$$$