

  -INDIGO-08031710012D

 18 19  0  0  0  0  0  0  0  0999 V2000
   13.9767    5.6111    0.0000 C   0  0  0  0  0  0  0  0  0  0  0  0
   12.6777    6.3611    0.0000 C   0  0  0  0  0  0  0  0  0  0  0  0
   11.3786    5.6111    0.0000 C   0  0  0  0  0  0  0  0  0  0  0  0
   10.0796    6.3611    0.0000 S   0  0  0  0  0  0  0  0  0  0  0  0
    8.7805    5.6111    0.0000 C   0  0  0  0  0  0  0  0  0  0  0  0
    8.7805    4.1111    0.0000 C   0  0  0  0  0  0  0  0  0  0  0  0
    7.4815    3.3611    0.0000 C   0  0  0  0  0  0  0  0  0  0  0  0
    6.1825    4.1111    0.0000 C   0  0  0  0  0  0  0  0  0  0  0  0
    4.7560    3.6476    0.0000 N   0  0  0  0  0  0  0  0  0  0  0  0
    3.8743    4.8611    0.0000 C   0  0  0  0  0  0  0  0  0  0  0  0
    2.3742    4.8611    0.0000 N   0  0  0  0  0  0  0  0  0  0  0  0
    1.6242    3.5620    0.0000 C   0  0  0  0  0  0  0  0  0  0  0  0
    2.3742    2.2630    0.0000 O   0  0  0  0  0  0  0  0  0  0  0  0
    0.1242    3.5620    0.0000 O   0  0  0  0  0  0  0  0  0  0  0  0
   -0.6258    2.2630    0.0000 C   0  0  0  0  0  0  0  0  0  0  0  0
    4.7560    6.0746    0.0000 N   0  0  0  0  0  0  0  0  0  0  0  0
    6.1825    5.6111    0.0000 C   0  0  0  0  0  0  0  0  0  0  0  0
    7.4815    6.3611    0.0000 C   0  0  0  0  0  0  0  0  0  0  0  0
  1  2  1  0  0  0  0
  2  3  1  0  0  0  0
  3  4  1  0  0  0  0
  4  5  1  0  0  0  0
  6  5  2  0  0  0  0
  5 18  1  0  0  0  0
  7  6  1  0  0  0  0
  8  7  2  0  0  0  0
  9  8  1  0  0  0  0
  8 17  1  0  0  0  0
 10  9  1  0  0  0  0
 10 11  1  0  0  0  0
 16 10  2  0  0  0  0
 11 12  1  0  0  0  0
 12 13  2  0  0  0  0
 12 14  1  0  0  0  0
 14 15  1  0  0  0  0
 17 16  1  0  0  0  0
 18 17  2  0  0  0  0
M  END
> <Inchi_key>
HXHWSAZORRCQMX-UHFFFAOYSA-N

> <Source>
Mulliner

> <ID>
HT0086

> <H_MFHB>
1

> <CAS>
54965-21-8

> <Cholestasis>


> <Name>
albendazole

> <Class>
1


$$$$