
  -INDIGO-08031710012D

 17 18  0  0  0  0  0  0  0  0999 V2000
    8.5058   -0.9446    0.0000 N   0  0  0  0  0  0  0  0  0  0  0  0
    7.2068   -0.1946    0.0000 S   0  0  0  0  0  0  0  0  0  0  0  0
    7.9568    1.1044    0.0000 O   0  0  0  0  0  0  0  0  0  0  0  0
    6.4568   -1.4937    0.0000 O   0  0  0  0  0  0  0  0  0  0  0  0
    5.9077    0.5554    0.0000 C   0  0  0  0  0  0  0  0  0  0  0  0
    4.6086   -0.1946    0.0000 C   0  0  0  0  0  0  0  0  0  0  0  0
    3.3097    0.5554    0.0000 C   0  0  0  0  0  0  0  0  0  0  0  0
    3.3097    2.0554    0.0000 C   0  0  0  0  0  0  0  0  0  0  0  0
    2.0106    2.8054    0.0000 N   0  0  0  0  0  0  0  0  0  0  0  0
    0.7116    2.0554    0.0000 C   0  0  0  0  0  0  0  0  0  0  0  0
    0.7116    0.5554    0.0000 N   0  0  0  0  0  0  0  0  0  0  0  0
    2.0106   -0.1946    0.0000 S   0  0  0  0  0  0  0  0  0  0  0  0
    1.2606   -1.4937    0.0000 O   0  0  0  0  0  0  0  0  0  0  0  0
    2.7606   -1.4937    0.0000 O   0  0  0  0  0  0  0  0  0  0  0  0
    4.6086    2.8054    0.0000 C   0  0  0  0  0  0  0  0  0  0  0  0
    5.9077    2.0554    0.0000 C   0  0  0  0  0  0  0  0  0  0  0  0
    7.2068    2.8054    0.0000 Cl  0  0  0  0  0  0  0  0  0  0  0  0
  1  2  1  0  0  0  0
  2  3  2  0  0  0  0
  2  4  2  0  0  0  0
  2  5  1  0  0  0  0
  6  5  2  0  0  0  0
  5 16  1  0  0  0  0
  7  6  1  0  0  0  0
  7  8  2  0  0  0  0
 12  7  1  0  0  0  0
  8  9  1  0  0  0  0
 15  8  1  0  0  0  0
  9 10  1  0  0  0  0
 10 11  1  0  0  0  0
 11 12  1  0  0  0  0
 12 13  2  0  0  0  0
 12 14  2  0  0  0  0
 16 15  2  0  0  0  0
 16 17  1  0  0  0  0
M  END
> <Inchi_key>
JZUFKLXOESDKRF-UHFFFAOYSA-N

> <Source>
Mulliner , Kotsampasakou

> <ID>
EK0259;HT1044

> <H_MFHB>
1

> <CAS>
58-93-5

> <Cholestasis>
1

> <Name>
hydrochlorothiazide

> <Class>
1

$$$$