
  -INDIGO-08031710012D

 22 25  0  0  0  0  0  0  0  0999 V2000
    8.7523    2.4005    0.0000 C   0  0  0  0  0  0  0  0  0  0  0  0
    8.5021    3.8795    0.0000 C   0  0  0  0  0  0  0  0  0  0  0  0
    9.5513    4.9513    0.0000 N   0  0  0  0  0  0  0  0  0  0  0  0
    8.8561    6.2805    0.0000 C   0  0  0  0  0  0  0  0  0  0  0  0
    7.3772    6.0302    0.0000 N   0  0  0  0  0  0  0  0  0  0  0  0
    7.1584    4.5462    0.0000 C   0  0  0  0  0  0  0  0  0  0  0  0
    5.8292    3.8511    0.0000 C   0  0  0  0  0  0  0  0  0  0  0  0
    4.5625    4.6546    0.0000 N   0  0  0  0  0  0  0  0  0  0  0  0
    4.6251    6.1533    0.0000 C   0  0  0  0  0  0  0  0  0  0  0  0
    3.3584    6.9568    0.0000 C   0  0  0  0  0  0  0  0  0  0  0  0
    2.0292    6.2617    0.0000 C   0  0  0  0  0  0  0  0  0  0  0  0
    1.9667    4.7630    0.0000 C   0  0  0  0  0  0  0  0  0  0  0  0
    3.2333    3.9595    0.0000 C   0  0  0  0  0  0  0  0  0  0  0  0
    3.1707    2.4608    0.0000 O   0  0  0  0  0  0  0  0  0  0  0  0
    0.5221    4.3594    0.0000 C   0  0  0  0  0  0  0  0  0  0  0  0
   -0.1448    3.0157    0.0000 C   0  0  0  0  0  0  0  0  0  0  0  0
   -1.6417    2.9213    0.0000 C   0  0  0  0  0  0  0  0  0  0  0  0
   -2.4721    4.1706    0.0000 C   0  0  0  0  0  0  0  0  0  0  0  0
   -1.8054    5.5142    0.0000 C   0  0  0  0  0  0  0  0  0  0  0  0
   -0.3083    5.6087    0.0000 C   0  0  0  0  0  0  0  0  0  0  0  0
    0.6231    6.7843    0.0000 N   0  0  0  0  0  0  0  0  0  0  0  0
    0.2195    8.2290    0.0000 C   0  0  0  0  0  0  0  0  0  0  0  0
  1  2  1  0  0  0  0
  3  2  1  0  0  0  0
  2  6  2  0  0  0  0
  4  3  1  0  0  0  0
  5  4  2  0  0  0  0
  6  5  1  0  0  0  0
  6  7  1  0  0  0  0
  7  8  1  0  0  0  0
  9  8  1  0  0  0  0
  8 13  1  0  0  0  0
 10  9  1  0  0  0  0
 11 10  1  0  0  0  0
 11 12  2  0  0  0  0
 21 11  1  0  0  0  0
 13 12  1  0  0  0  0
 12 15  1  0  0  0  0
 13 14  2  0  0  0  0
 16 15  2  0  0  0  0
 15 20  1  0  0  0  0
 17 16  1  0  0  0  0
 18 17  2  0  0  0  0
 19 18  1  0  0  0  0
 20 19  2  0  0  0  0
 20 21  1  0  0  0  0
 21 22  1  0  0  0  0
M  END
> <Inchi_key>
JSWZEAMFRNKZNL-UHFFFAOYSA-N

> <Source>
Mulliner

> <ID>
HT0110

> <H_MFHB>
1

> <CAS>


> <Cholestasis>


> <Name>
alosetron hydrochloride;alosetron

> <Class>
1

$$$$