

  -INDIGO-08031710012D

 22 24  0  0  0  0  0  0  0  0999 V2000
    0.7806    1.3485    0.0000 N   0  0  0  0  0  0  0  0  0  0  0  0
    1.5276    0.0477    0.0000 S   0  0  0  0  0  0  0  0  0  0  0  0
    0.2270   -0.6992    0.0000 O   0  0  0  0  0  0  0  0  0  0  0  0
    2.8283    0.7947    0.0000 O   0  0  0  0  0  0  0  0  0  0  0  0
    2.2747   -1.2530    0.0000 C   0  0  0  0  0  0  0  0  0  0  0  0
    3.7745   -1.2565    0.0000 C   0  0  0  0  0  0  0  0  0  0  0  0
    4.5216   -2.5573    0.0000 C   0  0  0  0  0  0  0  0  0  0  0  0
    3.7685   -3.8546    0.0000 C   0  0  0  0  0  0  0  0  0  0  0  0
    2.2685   -3.8511    0.0000 C   0  0  0  0  0  0  0  0  0  0  0  0
    1.5216   -2.5503    0.0000 C   0  0  0  0  0  0  0  0  0  0  0  0
    0.0216   -2.5468    0.0000 Cl  0  0  0  0  0  0  0  0  0  0  0  0
    6.0216   -2.5608    0.0000 C   0  0  0  0  0  0  0  0  0  0  0  0
    5.3143   -3.8836    0.0000 O   0  0  0  0  0  0  0  0  0  0  0  0
    6.1037   -1.0631    0.0000 N   0  0  0  0  0  0  0  0  0  0  0  0
    7.5534   -0.6782    0.0000 C   0  0  0  0  0  0  0  0  0  0  0  0
    8.0943    0.7209    0.0000 O   0  0  0  0  0  0  0  0  0  0  0  0
    8.3675   -1.9381    0.0000 C   0  0  0  0  0  0  0  0  0  0  0  0
    9.8484   -2.1762    0.0000 C   0  0  0  0  0  0  0  0  0  0  0  0
   10.3826   -3.5778    0.0000 C   0  0  0  0  0  0  0  0  0  0  0  0
    9.4359   -4.7414    0.0000 C   0  0  0  0  0  0  0  0  0  0  0  0
    7.9550   -4.5033    0.0000 C   0  0  0  0  0  0  0  0  0  0  0  0
    7.4208   -3.1016    0.0000 C   0  0  0  0  0  0  0  0  0  0  0  0
  1  2  1  0  0  0  0
  2  3  2  0  0  0  0
  2  4  2  0  0  0  0
  2  5  1  0  0  0  0
  6  5  2  0  0  0  0
  5 10  1  0  0  0  0
  7  6  1  0  0  0  0
  8  7  2  0  0  0  0
  7 12  1  0  0  0  0
  9  8  1  0  0  0  0
 10  9  2  0  0  0  0
 10 11  1  0  0  0  0
 12 13  1  0  0  0  0
 14 12  1  0  0  0  0
 12 22  1  0  0  0  0
 15 14  1  0  0  0  0
 15 16  2  0  0  0  0
 17 15  1  0  0  0  0
 18 17  1  0  0  0  0
 17 22  2  0  0  0  0
 19 18  2  0  0  0  0
 20 19  1  0  0  0  0
 21 20  2  0  0  0  0
 22 21  1  0  0  0  0
M  END
> <Inchi_key>
JIVPVXMEBJLZRO-UHFFFAOYSA-N

> <Source>
Mulliner

> <ID>
HT0472

> <H_MFHB>
1

> <CAS>


> <Cholestasis>


> <Name>
chlorthalidone

> <Class>
1


$$$$