
  -INDIGO-08031709442D

 13 14  0  0  0  0  0  0  0  0999 V2000
    9.3462    0.0000    0.0000 S   0  0  0  0  0  0  0  0  0  0  0  0
    7.8463    0.0000    0.0000 C   0  0  0  0  0  0  0  0  0  0  0  0
    6.3462    0.0000    0.0000 N   0  0  0  0  0  0  0  0  0  0  0  0
    5.5962    1.2990    0.0000 C   0  0  0  0  0  0  0  0  0  0  0  0
    4.0962    1.2990    0.0000 C   0  0  0  0  0  0  0  0  0  0  0  0
    3.3462    2.5981    0.0000 C   0  0  0  0  0  0  0  0  0  0  0  0
    4.0962    3.8971    0.0000 C   0  0  0  0  0  0  0  0  0  0  0  0
    5.5962    3.8971    0.0000 C   0  0  0  0  0  0  0  0  0  0  0  0
    6.3462    2.5981    0.0000 C   0  0  0  0  0  0  0  0  0  0  0  0
    1.8462    2.5981    0.0000 C   0  0  0  0  0  0  0  0  0  0  0  0
    1.0962    1.2990    0.0000 C   0  0  0  0  0  0  0  0  0  0  0  0
    1.8462    0.0000    0.0000 C   0  0  0  0  0  0  0  0  0  0  0  0
    3.3462    0.0000    0.0000 C   0  0  0  0  0  0  0  0  0  0  0  0
  1  2  2  0  0  0  0
  2  3  2  0  0  0  0
  3  4  1  0  0  0  0
  5  4  2  0  0  0  0
  4  9  1  0  0  0  0
  5  6  1  0  0  0  0
 13  5  1  0  0  0  0
  7  6  2  0  0  0  0
  6 10  1  0  0  0  0
  8  7  1  0  0  0  0
  9  8  2  0  0  0  0
 10 11  2  0  0  0  0
 11 12  1  0  0  0  0
 12 13  2  0  0  0  0
M  END
> <Inchi_key>
JBDOSUUXMYMWQH-UHFFFAOYSA-N

> <Source>
Kotsampasakou

> <ID>
EK0002

> <H_MFHB>


> <CAS>


> <Cholestasis>
1

> <Name>
a-naphthyl-isothiocyanate (anit)

> <Class>
1

$$$$