

  -INDIGO-08031710012D

 25 27  0  0  0  0  0  0  0  0999 V2000
    0.0309    3.5169    0.0000 N   0  0  0  0  0  0  0  0  0  0  0  0
    1.3300    2.7669    0.0000 S   0  0  0  0  0  0  0  0  0  0  0  0
    0.5799    1.4678    0.0000 O   0  0  0  0  0  0  0  0  0  0  0  0
    2.0798    4.0659    0.0000 O   0  0  0  0  0  0  0  0  0  0  0  0
    2.6291    2.0169    0.0000 C   0  0  0  0  0  0  0  0  0  0  0  0
    3.9280    2.7669    0.0000 C   0  0  0  0  0  0  0  0  0  0  0  0
    5.2271    2.0169    0.0000 C   0  0  0  0  0  0  0  0  0  0  0  0
    5.2271    0.5169    0.0000 C   0  0  0  0  0  0  0  0  0  0  0  0
    6.5262   -0.2331    0.0000 N   0  0  0  0  0  0  0  0  0  0  0  0
    7.8250    0.5169    0.0000 C   0  0  0  0  0  0  0  0  0  0  0  0
    9.1241   -0.2331    0.0000 C   0  0  0  0  0  0  0  0  0  0  0  0
   10.4232    0.5169    0.0000 C   0  0  0  0  0  0  0  0  0  0  0  0
   10.4232    2.0169    0.0000 C   0  0  0  0  0  0  0  0  0  0  0  0
   11.7221    2.7669    0.0000 C   0  0  0  0  0  0  0  0  0  0  0  0
   13.0212    2.0169    0.0000 C   0  0  0  0  0  0  0  0  0  0  0  0
   14.3203    2.7669    0.0000 F   0  0  0  0  0  0  0  0  0  0  0  0
   13.0212    0.5169    0.0000 C   0  0  0  0  0  0  0  0  0  0  0  0
   11.7221   -0.2331    0.0000 C   0  0  0  0  0  0  0  0  0  0  0  0
    7.8250    2.0169    0.0000 N   0  0  0  0  0  0  0  0  0  0  0  0
    6.5262    2.7669    0.0000 S   0  0  0  0  0  0  0  0  0  0  0  0
    7.2760    4.0659    0.0000 O   0  0  0  0  0  0  0  0  0  0  0  0
    5.7761    4.0659    0.0000 O   0  0  0  0  0  0  0  0  0  0  0  0
    3.9280   -0.2331    0.0000 C   0  0  0  0  0  0  0  0  0  0  0  0
    2.6291    0.5169    0.0000 C   0  0  0  0  0  0  0  0  0  0  0  0
    1.3300   -0.2331    0.0000 Cl  0  0  0  0  0  0  0  0  0  0  0  0
  1  2  1  0  0  0  0
  2  3  2  0  0  0  0
  2  4  2  0  0  0  0
  2  5  1  0  0  0  0
  6  5  2  0  0  0  0
  5 24  1  0  0  0  0
  7  6  1  0  0  0  0
  7  8  2  0  0  0  0
 20  7  1  0  0  0  0
  8  9  1  0  0  0  0
 23  8  1  0  0  0  0
  9 10  1  0  0  0  0
 10 11  1  0  0  0  0
 10 19  1  0  0  0  0
 11 12  1  0  0  0  0
 13 12  2  0  0  0  0
 12 18  1  0  0  0  0
 14 13  1  0  0  0  0
 15 14  2  0  0  0  0
 15 16  1  0  0  0  0
 17 15  1  0  0  0  0
 18 17  2  0  0  0  0
 19 20  1  0  0  0  0
 20 21  2  0  0  0  0
 20 22  2  0  0  0  0
 24 23  2  0  0  0  0
 24 25  1  0  0  0  0
M  END
> <Inchi_key>
JDCJFONQCRLHND-UHFFFAOYSA-N

> <Source>
Mulliner

> <ID>
HT1589

> <H_MFHB>
1

> <CAS>


> <Cholestasis>


> <Name>
paraflutizide

> <Class>
1


$$$$