

  -INDIGO-08031710012D

 18 19  0  0  0  0  0  0  0  0999 V2000
    3.6547    5.0207    0.0000 Cl  0  0  0  0  0  0  0  0  0  0  0  0
    2.3557    4.2707    0.0000 C   0  0  0  0  0  0  0  0  0  0  0  0
    1.0565    5.0207    0.0000 Cl  0  0  0  0  0  0  0  0  0  0  0  0
    2.3557    2.7707    0.0000 C   0  0  0  0  0  0  0  0  0  0  0  0
    3.6547    2.0207    0.0000 C   0  0  0  0  0  0  0  0  0  0  0  0
    3.6547    0.5207    0.0000 C   0  0  0  0  0  0  0  0  0  0  0  0
    4.9538   -0.2293    0.0000 C   0  0  0  0  0  0  0  0  0  0  0  0
    6.2528    0.5207    0.0000 C   0  0  0  0  0  0  0  0  0  0  0  0
    7.5518   -0.2293    0.0000 Cl  0  0  0  0  0  0  0  0  0  0  0  0
    6.2528    2.0207    0.0000 C   0  0  0  0  0  0  0  0  0  0  0  0
    4.9538    2.7707    0.0000 C   0  0  0  0  0  0  0  0  0  0  0  0
    1.0565    2.0207    0.0000 C   0  0  0  0  0  0  0  0  0  0  0  0
    1.0565    0.5207    0.0000 C   0  0  0  0  0  0  0  0  0  0  0  0
   -0.2423   -0.2293    0.0000 C   0  0  0  0  0  0  0  0  0  0  0  0
   -1.5415    0.5207    0.0000 C   0  0  0  0  0  0  0  0  0  0  0  0
   -1.5415    2.0207    0.0000 C   0  0  0  0  0  0  0  0  0  0  0  0
   -0.2423    2.7707    0.0000 C   0  0  0  0  0  0  0  0  0  0  0  0
   -0.2423    4.2707    0.0000 Cl  0  0  0  0  0  0  0  0  0  0  0  0
  1  2  1  0  0  0  0
  2  3  1  0  0  0  0
  2  4  1  0  0  0  0
  4  5  1  0  0  0  0
  4 12  1  0  0  0  0
  6  5  2  0  0  0  0
  5 11  1  0  0  0  0
  7  6  1  0  0  0  0
  8  7  2  0  0  0  0
  8  9  1  0  0  0  0
 10  8  1  0  0  0  0
 11 10  2  0  0  0  0
 13 12  2  0  0  0  0
 12 17  1  0  0  0  0
 14 13  1  0  0  0  0
 15 14  2  0  0  0  0
 16 15  1  0  0  0  0
 17 16  2  0  0  0  0
 17 18  1  0  0  0  0
M  END
> <Inchi_key>
JWBOIMRXGHLCPP-UHFFFAOYSA-N

> <Source>
Mulliner

> <ID>
HT1417

> <H_MFHB>
1

> <CAS>


> <Cholestasis>


> <Name>
mitotane

> <Class>
1


$$$$