

  -INDIGO-08031710012D

 27 29  0  0  0  0  0  0  0  0999 V2000
    0.1826   -0.6125    0.0000 C   0  0  0  0  0  0  0  0  0  0  0  0
    1.6766   -0.4771    0.0000 C   0  0  0  0  0  0  0  0  0  0  0  0
    2.5407   -1.7032    0.0000 O   0  0  0  0  0  0  0  0  0  0  0  0
    2.3061    0.8843    0.0000 C   0  0  0  0  0  0  0  0  0  0  0  0
    3.7141    1.4017    0.0000 C   0  0  0  0  0  0  0  0  0  0  0  0
    5.2130    1.4587    0.0000 C   0  0  0  0  0  0  0  0  0  0  0  0
    6.1403    0.2796    0.0000 C   0  0  0  0  0  0  0  0  0  0  0  0
    5.6220    2.9019    0.0000 C   0  0  0  0  0  0  0  0  0  0  0  0
    4.3757    3.7368    0.0000 C   0  0  0  0  0  0  0  0  0  0  0  0
    3.1967    2.8097    0.0000 N   0  0  0  0  0  0  0  0  0  0  0  0
    1.7887    2.2922    0.0000 C   0  0  0  0  0  0  0  0  0  0  0  0
    0.4273    2.9219    0.0000 O   0  0  0  0  0  0  0  0  0  0  0  0
    4.3186    5.2358    0.0000 C   0  0  0  0  0  0  0  0  0  0  0  0
    5.5884    6.0346    0.0000 O   0  0  0  0  0  0  0  0  0  0  0  0
    2.9922    5.9358    0.0000 O   0  0  0  0  0  0  0  0  0  0  0  0
    7.0300    3.4194    0.0000 S   0  0  0  0  0  0  0  0  0  0  0  0
    8.1820    2.4588    0.0000 C   0  0  0  0  0  0  0  0  0  0  0  0
    8.0821    0.9621    0.0000 C   0  0  0  0  0  0  0  0  0  0  0  0
    9.4745    0.4046    0.0000 N   0  0  0  0  0  0  0  0  0  0  0  0
   10.4352    1.5566    0.0000 C   0  0  0  0  0  0  0  0  0  0  0  0
   11.9318    1.4567    0.0000 C   0  0  0  0  0  0  0  0  0  0  0  0
   12.5935    0.1106    0.0000 N   0  0  0  0  0  0  0  0  0  0  0  0
   14.0903    0.0106    0.0000 S   0  0  0  0  0  0  0  0  0  0  0  0
   14.1902    1.5073    0.0000 O   0  0  0  0  0  0  0  0  0  0  0  0
   13.9902   -1.4861    0.0000 O   0  0  0  0  0  0  0  0  0  0  0  0
   15.5869   -0.0894    0.0000 N   0  0  0  0  0  0  0  0  0  0  0  0
    9.6363    2.8262    0.0000 C   0  0  0  0  0  0  0  0  0  0  0  0
  1  2  1  0  0  0  0
  2  3  1  0  0  0  0
  2  4  1  0  0  0  0
  5  4  1  0  0  0  0
  4 11  1  0  0  0  0
  6  5  1  0  0  0  0
  5 10  1  0  0  0  0
  6  7  1  0  0  0  0
  8  6  1  0  0  0  0
  9  8  2  0  0  0  0
  8 16  1  0  0  0  0
 10  9  1  0  0  0  0
  9 13  1  0  0  0  0
 11 10  1  0  0  0  0
 11 12  2  0  0  0  0
 13 14  2  0  0  0  0
 13 15  1  0  0  0  0
 16 17  1  0  0  0  0
 18 17  1  0  0  0  0
 17 27  1  0  0  0  0
 19 18  1  0  0  0  0
 20 19  1  0  0  0  0
 20 21  1  0  0  0  0
 27 20  1  0  0  0  0
 21 22  1  0  0  0  0
 22 23  1  0  0  0  0
 23 24  2  0  0  0  0
 23 25  2  0  0  0  0
 23 26  1  0  0  0  0
M  END
> <Inchi_key>
AVAACINZEOAHHE-UHFFFAOYSA-N

> <Source>
Mulliner

> <ID>
HT0710

> <H_MFHB>
1

> <CAS>


> <Cholestasis>


> <Name>
doripenem

> <Class>
1


$$$$