

  -INDIGO-08031710012D

 31 33  0  0  0  0  0  0  0  0999 V2000
    1.2295   -2.7295    0.0000 C   0  0  0  0  0  0  0  0  0  0  0  0
    2.6543   -2.2604    0.0000 C   0  0  0  0  0  0  0  0  0  0  0  0
    2.9604   -0.7920    0.0000 C   0  0  0  0  0  0  0  0  0  0  0  0
    4.3853   -0.3229    0.0000 C   0  0  0  0  0  0  0  0  0  0  0  0
    4.6914    1.1457    0.0000 C   0  0  0  0  0  0  0  0  0  0  0  0
    3.6833    2.2565    0.0000 O   0  0  0  0  0  0  0  0  0  0  0  0
    4.4281    3.5583    0.0000 C   0  0  0  0  0  0  0  0  0  0  0  0
    3.9592    4.9831    0.0000 C   0  0  0  0  0  0  0  0  0  0  0  0
    4.9584    6.1017    0.0000 C   0  0  0  0  0  0  0  0  0  0  0  0
    6.4269    5.7955    0.0000 C   0  0  0  0  0  0  0  0  0  0  0  0
    6.8961    4.3708    0.0000 C   0  0  0  0  0  0  0  0  0  0  0  0
    5.8966    3.2522    0.0000 C   0  0  0  0  0  0  0  0  0  0  0  0
    6.0592    1.7610    0.0000 C   0  0  0  0  0  0  0  0  0  0  0  0
    7.3613    1.0162    0.0000 C   0  0  0  0  0  0  0  0  0  0  0  0
    7.3671   -0.4839    0.0000 O   0  0  0  0  0  0  0  0  0  0  0  0
    8.6573    1.7711    0.0000 C   0  0  0  0  0  0  0  0  0  0  0  0
    8.6515    3.2712    0.0000 C   0  0  0  0  0  0  0  0  0  0  0  0
    9.9475    4.0262    0.0000 C   0  0  0  0  0  0  0  0  0  0  0  0
    9.9417    5.5262    0.0000 I   0  0  0  0  0  0  0  0  0  0  0  0
   11.2495    3.2813    0.0000 C   0  0  0  0  0  0  0  0  0  0  0  0
   12.5455    4.0363    0.0000 O   0  0  0  0  0  0  0  0  0  0  0  0
   13.8476    3.2914    0.0000 C   0  0  0  0  0  0  0  0  0  0  0  0
   15.1436    4.0464    0.0000 C   0  0  0  0  0  0  0  0  0  0  0  0
   16.4457    3.3015    0.0000 N   0  0  0  0  0  0  0  0  0  0  0  0
   16.4514    1.8015    0.0000 C   0  0  0  0  0  0  0  0  0  0  0  0
   17.7535    1.0566    0.0000 C   0  0  0  0  0  0  0  0  0  0  0  0
   17.7419    4.0567    0.0000 C   0  0  0  0  0  0  0  0  0  0  0  0
   17.7359    5.5566    0.0000 C   0  0  0  0  0  0  0  0  0  0  0  0
   11.2553    1.7813    0.0000 C   0  0  0  0  0  0  0  0  0  0  0  0
   12.5574    1.0362    0.0000 I   0  0  0  0  0  0  0  0  0  0  0  0
    9.9593    1.0261    0.0000 C   0  0  0  0  0  0  0  0  0  0  0  0
  1  2  1  0  0  0  0
  2  3  1  0  0  0  0
  3  4  1  0  0  0  0
  4  5  1  0  0  0  0
  6  5  1  0  0  0  0
  5 13  2  0  0  0  0
  7  6  1  0  0  0  0
  8  7  2  0  0  0  0
  7 12  1  0  0  0  0
  9  8  1  0  0  0  0
 10  9  2  0  0  0  0
 11 10  1  0  0  0  0
 12 11  2  0  0  0  0
 13 12  1  0  0  0  0
 13 14  1  0  0  0  0
 14 15  2  0  0  0  0
 14 16  1  0  0  0  0
 17 16  2  0  0  0  0
 16 31  1  0  0  0  0
 18 17  1  0  0  0  0
 18 19  1  0  0  0  0
 20 18  2  0  0  0  0
 20 21  1  0  0  0  0
 29 20  1  0  0  0  0
 21 22  1  0  0  0  0
 22 23  1  0  0  0  0
 23 24  1  0  0  0  0
 24 25  1  0  0  0  0
 24 27  1  0  0  0  0
 25 26  1  0  0  0  0
 27 28  1  0  0  0  0
 29 30  1  0  0  0  0
 31 29  2  0  0  0  0
M  END
> <Inchi_key>
IYIKLHRQXLHMJQ-UHFFFAOYSA-N

> <Source>
Mulliner

> <ID>
HT0140

> <H_MFHB>
1

> <CAS>
1951-25-3

> <Cholestasis>


> <Name>
amiodarone hydrochloride;amiodarone

> <Class>
1


$$$$