
  -INDIGO-08031710012D

 21 23  0  0  0  0  0  0  0  0999 V2000
    6.0113    4.6127    0.0000 C   0  0  0  0  0  0  0  0  0  0  0  0
    5.6230    3.1638    0.0000 N   0  0  0  0  0  0  0  0  0  0  0  0
    6.6838    2.1032    0.0000 C   0  0  0  0  0  0  0  0  0  0  0  0
    4.1742    2.7756    0.0000 C   0  0  0  0  0  0  0  0  0  0  0  0
    3.1135    3.8362    0.0000 C   0  0  0  0  0  0  0  0  0  0  0  0
    1.6647    3.4480    0.0000 C   0  0  0  0  0  0  0  0  0  0  0  0
    0.6041    4.5086    0.0000 C   0  0  0  0  0  0  0  0  0  0  0  0
   -0.8121    4.0141    0.0000 C   0  0  0  0  0  0  0  0  0  0  0  0
   -0.8685    2.5151    0.0000 C   0  0  0  0  0  0  0  0  0  0  0  0
   -2.1946    1.8144    0.0000 C   0  0  0  0  0  0  0  0  0  0  0  0
   -3.4646    2.6125    0.0000 C   0  0  0  0  0  0  0  0  0  0  0  0
   -3.4084    4.1115    0.0000 C   0  0  0  0  0  0  0  0  0  0  0  0
   -2.0821    4.8122    0.0000 C   0  0  0  0  0  0  0  0  0  0  0  0
   -2.2507    6.3027    0.0000 C   0  0  0  0  0  0  0  0  0  0  0  0
   -1.1909    7.3643    0.0000 C   0  0  0  0  0  0  0  0  0  0  0  0
    0.3002    7.1947    0.0000 C   0  0  0  0  0  0  0  0  0  0  0  0
    1.0009    8.5210    0.0000 C   0  0  0  0  0  0  0  0  0  0  0  0
    2.4999    8.5773    0.0000 C   0  0  0  0  0  0  0  0  0  0  0  0
    3.2982    7.3073    0.0000 C   0  0  0  0  0  0  0  0  0  0  0  0
    2.5973    5.9810    0.0000 C   0  0  0  0  0  0  0  0  0  0  0  0
    1.0985    5.9247    0.0000 C   0  0  0  0  0  0  0  0  0  0  0  0
  1  2  1  0  0  0  0
  2  3  1  0  0  0  0
  2  4  1  0  0  0  0
  4  5  1  0  0  0  0
  5  6  1  0  0  0  0
  6  7  2  0  0  0  0
  8  7  1  0  0  0  0
  7 21  1  0  0  0  0
  9  8  2  0  0  0  0
  8 13  1  0  0  0  0
 10  9  1  0  0  0  0
 11 10  2  0  0  0  0
 12 11  1  0  0  0  0
 13 12  2  0  0  0  0
 14 13  1  0  0  0  0
 15 14  2  0  0  0  0
 16 15  1  0  0  0  0
 17 16  2  0  0  0  0
 16 21  1  0  0  0  0
 18 17  1  0  0  0  0
 19 18  2  0  0  0  0
 20 19  1  0  0  0  0
 21 20  2  0  0  0  0
M  END
> <Inchi_key>
JURKNVYFZMSNLP-UHFFFAOYSA-N

> <Source>
Mulliner

> <ID>
HT0564

> <H_MFHB>
1

> <CAS>


> <Cholestasis>


> <Name>
cyclobenzaprine hydrochloride;cyclobenzaprine

> <Class>
1

$$$$