
  -INDIGO-08031710012D

 22 23  0  0  0  0  0  0  0  0999 V2000
   -1.5696    5.8579    0.0000 C   0  0  0  0  0  0  0  0  0  0  0  0
   -0.2705    6.6079    0.0000 C   0  0  0  0  0  0  0  0  0  0  0  0
   -0.2705    8.1079    0.0000 O   0  0  0  0  0  0  0  0  0  0  0  0
    1.0286    5.8579    0.0000 C   0  0  0  0  0  0  0  0  0  0  0  0
    2.3275    6.6079    0.0000 C   0  0  0  0  0  0  0  0  0  0  0  0
    3.6266    5.8579    0.0000 C   0  0  0  0  0  0  0  0  0  0  0  0
    3.6266    4.3579    0.0000 C   0  0  0  0  0  0  0  0  0  0  0  0
    2.3275    3.6079    0.0000 C   0  0  0  0  0  0  0  0  0  0  0  0
    1.0286    4.3579    0.0000 C   0  0  0  0  0  0  0  0  0  0  0  0
    4.9257    3.6079    0.0000 S   0  0  0  0  0  0  0  0  0  0  0  0
    5.6755    4.9069    0.0000 O   0  0  0  0  0  0  0  0  0  0  0  0
    4.1756    2.3089    0.0000 O   0  0  0  0  0  0  0  0  0  0  0  0
    6.2245    2.8579    0.0000 N   0  0  0  0  0  0  0  0  0  0  0  0
    7.5236    3.6079    0.0000 C   0  0  0  0  0  0  0  0  0  0  0  0
    7.5236    5.1079    0.0000 O   0  0  0  0  0  0  0  0  0  0  0  0
    8.8227    2.8579    0.0000 N   0  0  0  0  0  0  0  0  0  0  0  0
   10.1216    3.6079    0.0000 C   0  0  0  0  0  0  0  0  0  0  0  0
   11.4207    2.8579    0.0000 C   0  0  0  0  0  0  0  0  0  0  0  0
   12.7198    3.6079    0.0000 C   0  0  0  0  0  0  0  0  0  0  0  0
   12.7198    5.1079    0.0000 C   0  0  0  0  0  0  0  0  0  0  0  0
   11.4207    5.8579    0.0000 C   0  0  0  0  0  0  0  0  0  0  0  0
   10.1216    5.1079    0.0000 C   0  0  0  0  0  0  0  0  0  0  0  0
  1  2  1  0  0  0  0
  2  3  2  0  0  0  0
  2  4  1  0  0  0  0
  5  4  2  0  0  0  0
  4  9  1  0  0  0  0
  6  5  1  0  0  0  0
  7  6  2  0  0  0  0
  8  7  1  0  0  0  0
  7 10  1  0  0  0  0
  9  8  2  0  0  0  0
 10 11  2  0  0  0  0
 10 12  1  0  0  0  0
 10 13  2  0  0  0  0
 13 14  1  0  0  0  0
 14 15  2  0  0  0  0
 14 16  1  0  0  0  0
 16 17  1  0  0  0  0
 18 17  1  0  0  0  0
 17 22  1  0  0  0  0
 19 18  1  0  0  0  0
 20 19  1  0  0  0  0
 21 20  1  0  0  0  0
 22 21  1  0  0  0  0
M  END
> <Inchi_key>
AUIWVHQDQRHMBX-UHFFFAOYSA-N

> <Source>
Mulliner

> <ID>
HT0056

> <H_MFHB>
1

> <CAS>


> <Cholestasis>


> <Name>
acetohexamide

> <Class>
1

$$$$