
  -INDIGO-08031710012D

 24 27  0  0  0  0  0  0  0  0999 V2000
   -0.9897    1.8939    0.0000 C   0  0  0  0  0  0  0  0  0  0  0  0
   -0.1334    3.1254    0.0000 C   0  0  0  0  0  0  0  0  0  0  0  0
    0.6207    1.8288    0.0000 C   0  0  0  0  0  0  0  0  0  0  0  0
    2.1207    1.8337    0.0000 C   0  0  0  0  0  0  0  0  0  0  0  0
    2.8666    3.1352    0.0000 C   0  0  0  0  0  0  0  0  0  0  0  0
    2.1124    4.4318    0.0000 C   0  0  0  0  0  0  0  0  0  0  0  0
    2.8580    5.7333    0.0000 C   0  0  0  0  0  0  0  0  0  0  0  0
    4.3580    5.7382    0.0000 C   0  0  0  0  0  0  0  0  0  0  0  0
    5.1124    4.4416    0.0000 C   0  0  0  0  0  0  0  0  0  0  0  0
    6.6122    4.4465    0.0000 C   0  0  0  0  0  0  0  0  0  0  0  0
    7.3666    3.1499    0.0000 C   0  0  0  0  0  0  0  0  0  0  0  0
    8.8666    3.1548    0.0000 O   0  0  0  0  0  0  0  0  0  0  0  0
    9.6207    1.8582    0.0000 S   0  0  0  0  0  0  0  0  0  0  0  0
   10.9173    2.6124    0.0000 O   0  0  0  0  0  0  0  0  0  0  0  0
    8.3241    1.1040    0.0000 O   0  0  0  0  0  0  0  0  0  0  0  0
   10.3749    0.5616    0.0000 O   0  0  0  0  0  0  0  0  0  0  0  0
    6.6207    1.8484    0.0000 C   0  0  0  0  0  0  0  0  0  0  0  0
    5.1207    1.8435    0.0000 C   0  0  0  0  0  0  0  0  0  0  0  0
    4.3666    3.1401    0.0000 C   0  0  0  0  0  0  0  0  0  0  0  0
    0.6124    4.4269    0.0000 C   0  0  0  0  0  0  0  0  0  0  0  0
   -0.3951    5.5383    0.0000 C   0  0  0  0  0  0  0  0  0  0  0  0
   -1.7634    4.9238    0.0000 C   0  0  0  0  0  0  0  0  0  0  0  0
   -1.6016    3.4325    0.0000 C   0  0  0  0  0  0  0  0  0  0  0  0
   -2.7131    2.4252    0.0000 O   0  0  0  0  0  0  0  0  0  0  0  0
  1  2  1  0  0  0  0
  3  2  1  0  0  0  0
 20  2  1  0  0  0  0
  2 23  1  0  0  0  0
  4  3  1  0  0  0  0
  5  4  1  0  0  0  0
  5  6  1  0  0  0  0
 19  5  1  0  0  0  0
  6  7  1  0  0  0  0
 20  6  1  0  0  0  0
  7  8  1  0  0  0  0
  8  9  1  0  0  0  0
 10  9  2  0  0  0  0
  9 19  1  0  0  0  0
 11 10  1  0  0  0  0
 11 12  1  0  0  0  0
 17 11  2  0  0  0  0
 12 13  1  0  0  0  0
 13 14  2  0  0  0  0
 13 15  2  0  0  0  0
 13 16  1  0  0  0  0
 18 17  1  0  0  0  0
 19 18  2  0  0  0  0
 21 20  1  0  0  0  0
 22 21  1  0  0  0  0
 23 22  1  0  0  0  0
 23 24  2  0  0  0  0
M  END
> <Inchi_key>
JKKFKPJIXZFSSB-UHFFFAOYSA-N

> <Source>
Mulliner

> <ID>
HT0799

> <H_MFHB>
1

> <CAS>


> <Cholestasis>


> <Name>
estropipate;conjugated estrogens

> <Class>
1

$$$$