

  -INDIGO-08031710012D

 32 34  0  0  0  0  0  0  0  0999 V2000
   13.8474    3.7105    0.0000 C   0  0  0  0  0  0  0  0  0  0  0  0
   12.5483    2.9603    0.0000 C   0  0  0  0  0  0  0  0  0  0  0  0
   11.2492    3.7105    0.0000 O   0  0  0  0  0  0  0  0  0  0  0  0
    9.9503    2.9603    0.0000 C   0  0  0  0  0  0  0  0  0  0  0  0
    9.9503    1.4604    0.0000 O   0  0  0  0  0  0  0  0  0  0  0  0
    8.6512    3.7105    0.0000 C   0  0  0  0  0  0  0  0  0  0  0  0
    8.6512    5.2104    0.0000 C   0  0  0  0  0  0  0  0  0  0  0  0
    9.9503    5.9604    0.0000 C   0  0  0  0  0  0  0  0  0  0  0  0
    9.9503    7.4603    0.0000 C   0  0  0  0  0  0  0  0  0  0  0  0
   11.2492    8.2105    0.0000 C   0  0  0  0  0  0  0  0  0  0  0  0
   11.2492    9.7104    0.0000 C   0  0  0  0  0  0  0  0  0  0  0  0
    9.9503   10.4604    0.0000 C   0  0  0  0  0  0  0  0  0  0  0  0
    8.6512    9.7104    0.0000 C   0  0  0  0  0  0  0  0  0  0  0  0
    8.6512    8.2105    0.0000 C   0  0  0  0  0  0  0  0  0  0  0  0
    7.3521    2.9603    0.0000 N   0  0  0  0  0  0  0  0  0  0  0  0
    6.0533    3.7105    0.0000 C   0  0  0  0  0  0  0  0  0  0  0  0
    6.0533    5.2104    0.0000 C   0  0  0  0  0  0  0  0  0  0  0  0
    4.7542    2.9603    0.0000 C   0  0  0  0  0  0  0  0  0  0  0  0
    4.7542    1.4604    0.0000 O   0  0  0  0  0  0  0  0  0  0  0  0
    3.4551    3.7105    0.0000 N   0  0  0  0  0  0  0  0  0  0  0  0
    3.4551    5.2104    0.0000 C   0  0  0  0  0  0  0  0  0  0  0  0
    2.1560    5.9604    0.0000 C   0  0  0  0  0  0  0  0  0  0  0  0
    2.1560    7.4603    0.0000 C   0  0  0  0  0  0  0  0  0  0  0  0
    0.8571    8.2105    0.0000 C   0  0  0  0  0  0  0  0  0  0  0  0
   -0.4420    7.4603    0.0000 C   0  0  0  0  0  0  0  0  0  0  0  0
   -0.4420    5.9604    0.0000 C   0  0  0  0  0  0  0  0  0  0  0  0
    0.8571    5.2104    0.0000 C   0  0  0  0  0  0  0  0  0  0  0  0
    0.8571    3.7105    0.0000 C   0  0  0  0  0  0  0  0  0  0  0  0
    2.1560    2.9603    0.0000 C   0  0  0  0  0  0  0  0  0  0  0  0
    2.1560    1.4604    0.0000 C   0  0  0  0  0  0  0  0  0  0  0  0
    3.4551    0.7104    0.0000 O   0  0  0  0  0  0  0  0  0  0  0  0
    0.8571    0.7104    0.0000 O   0  0  0  0  0  0  0  0  0  0  0  0
  1  2  1  0  0  0  0
  2  3  1  0  0  0  0
  3  4  1  0  0  0  0
  4  5  2  0  0  0  0
  4  6  1  0  0  0  0
  6  7  1  0  0  0  0
  6 15  1  0  0  0  0
  7  8  1  0  0  0  0
  8  9  1  0  0  0  0
 10  9  2  0  0  0  0
  9 14  1  0  0  0  0
 11 10  1  0  0  0  0
 12 11  2  0  0  0  0
 13 12  1  0  0  0  0
 14 13  2  0  0  0  0
 15 16  1  0  0  0  0
 16 17  1  0  0  0  0
 16 18  1  0  0  0  0
 18 19  2  0  0  0  0
 18 20  1  0  0  0  0
 21 20  1  0  0  0  0
 20 29  1  0  0  0  0
 22 21  1  0  0  0  0
 23 22  2  0  0  0  0
 22 27  1  0  0  0  0
 24 23  1  0  0  0  0
 25 24  2  0  0  0  0
 26 25  1  0  0  0  0
 27 26  2  0  0  0  0
 28 27  1  0  0  0  0
 29 28  1  0  0  0  0
 29 30  1  0  0  0  0
 30 31  2  0  0  0  0
 30 32  1  0  0  0  0
M  END
> <Inchi_key>
JSDRRTOADPPCHY-UHFFFAOYSA-N

> <Source>
Mulliner

> <ID>
HT1787

> <H_MFHB>
1

> <CAS>


> <Cholestasis>


> <Name>
quinapril hydrochloride;quinapril

> <Class>
1


$$$$