

  -INDIGO-08031710012D

 33 36  0  0  0  0  0  0  0  0999 V2000
   -7.0282   -3.3158    0.0000 C   0  0  0  0  0  0  0  0  0  0  0  0
   -7.9818   -4.4735    0.0000 C   0  0  0  0  0  0  0  0  0  0  0  0
   -9.4614   -4.2265    0.0000 O   0  0  0  0  0  0  0  0  0  0  0  0
   -7.4561   -5.8784    0.0000 C   0  0  0  0  0  0  0  0  0  0  0  0
   -6.0911   -6.5001    0.0000 C   0  0  0  0  0  0  0  0  0  0  0  0
   -4.6006   -6.6694    0.0000 C   0  0  0  0  0  0  0  0  0  0  0  0
   -3.5876   -5.5632    0.0000 C   0  0  0  0  0  0  0  0  0  0  0  0
   -4.3013   -8.1392    0.0000 C   0  0  0  0  0  0  0  0  0  0  0  0
   -5.6066   -8.8783    0.0000 C   0  0  0  0  0  0  0  0  0  0  0  0
   -6.7127   -7.8652    0.0000 N   0  0  0  0  0  0  0  0  0  0  0  0
   -8.0779   -7.2436    0.0000 C   0  0  0  0  0  0  0  0  0  0  0  0
   -9.4827   -7.7693    0.0000 O   0  0  0  0  0  0  0  0  0  0  0  0
   -5.7759  -10.3687    0.0000 C   0  0  0  0  0  0  0  0  0  0  0  0
   -4.5700  -11.2606    0.0000 O   0  0  0  0  0  0  0  0  0  0  0  0
   -7.1512  -10.9673    0.0000 O   0  0  0  0  0  0  0  0  0  0  0  0
   -2.9360   -8.7611    0.0000 S   0  0  0  0  0  0  0  0  0  0  0  0
   -1.7151   -7.8896    0.0000 C   0  0  0  0  0  0  0  0  0  0  0  0
   -1.7025   -6.3896    0.0000 C   0  0  0  0  0  0  0  0  0  0  0  0
   -0.2722   -5.9381    0.0000 N   0  0  0  0  0  0  0  0  0  0  0  0
    0.5993   -7.1590    0.0000 C   0  0  0  0  0  0  0  0  0  0  0  0
   -0.2926   -8.3651    0.0000 C   0  0  0  0  0  0  0  0  0  0  0  0
    2.0994   -7.1717    0.0000 C   0  0  0  0  0  0  0  0  0  0  0  0
    2.8383   -8.4770    0.0000 O   0  0  0  0  0  0  0  0  0  0  0  0
    2.8602   -5.8792    0.0000 N   0  0  0  0  0  0  0  0  0  0  0  0
    4.3603   -5.8917    0.0000 C   0  0  0  0  0  0  0  0  0  0  0  0
    5.0992   -7.1971    0.0000 C   0  0  0  0  0  0  0  0  0  0  0  0
    6.5990   -7.2097    0.0000 C   0  0  0  0  0  0  0  0  0  0  0  0
    7.3601   -5.9171    0.0000 C   0  0  0  0  0  0  0  0  0  0  0  0
    6.6211   -4.6118    0.0000 C   0  0  0  0  0  0  0  0  0  0  0  0
    5.1211   -4.5991    0.0000 C   0  0  0  0  0  0  0  0  0  0  0  0
    7.3819   -3.3191    0.0000 C   0  0  0  0  0  0  0  0  0  0  0  0
    6.6430   -2.0138    0.0000 O   0  0  0  0  0  0  0  0  0  0  0  0
    8.8820   -3.3318    0.0000 O   0  0  0  0  0  0  0  0  0  0  0  0
  1  2  1  0  0  0  0
  2  3  1  0  0  0  0
  2  4  1  0  0  0  0
  5  4  1  0  0  0  0
  4 11  1  0  0  0  0
  6  5  1  0  0  0  0
  5 10  1  0  0  0  0
  6  7  1  0  0  0  0
  8  6  1  0  0  0  0
  9  8  2  0  0  0  0
  8 16  1  0  0  0  0
 10  9  1  0  0  0  0
  9 13  1  0  0  0  0
 11 10  1  0  0  0  0
 11 12  2  0  0  0  0
 13 14  2  0  0  0  0
 13 15  1  0  0  0  0
 16 17  1  0  0  0  0
 18 17  1  0  0  0  0
 17 21  1  0  0  0  0
 19 18  1  0  0  0  0
 20 19  1  0  0  0  0
 21 20  1  0  0  0  0
 20 22  1  0  0  0  0
 22 23  2  0  0  0  0
 22 24  1  0  0  0  0
 24 25  1  0  0  0  0
 26 25  2  0  0  0  0
 25 30  1  0  0  0  0
 27 26  1  0  0  0  0
 28 27  2  0  0  0  0
 29 28  1  0  0  0  0
 30 29  2  0  0  0  0
 29 31  1  0  0  0  0
 31 32  2  0  0  0  0
 31 33  1  0  0  0  0
M  END
> <Inchi_key>
JUZNIMUFDBIJCM-UHFFFAOYSA-N

> <Source>
Mulliner

> <ID>
HT0782

> <H_MFHB>
1

> <CAS>


> <Cholestasis>


> <Name>
ertapenem sodium;ertapenem

> <Class>
1


$$$$