
  -INDIGO-08031710012D

 24 26  0  0  0  0  0  0  0  0999 V2000
   -0.3699   -2.4770    0.0000 C   0  0  0  0  0  0  0  0  0  0  0  0
    1.0645   -2.9154    0.0000 C   0  0  0  0  0  0  0  0  0  0  0  0
    0.0227   -3.9946    0.0000 C   0  0  0  0  0  0  0  0  0  0  0  0
    2.2220   -3.8694    0.0000 S   0  0  0  0  0  0  0  0  0  0  0  0
    3.4871   -3.0632    0.0000 C   0  0  0  0  0  0  0  0  0  0  0  0
    4.9393   -2.6875    0.0000 C   0  0  0  0  0  0  0  0  0  0  0  0
    6.2318   -3.4486    0.0000 N   0  0  0  0  0  0  0  0  0  0  0  0
    7.5372   -2.7098    0.0000 C   0  0  0  0  0  0  0  0  0  0  0  0
    7.5501   -1.2099    0.0000 O   0  0  0  0  0  0  0  0  0  0  0  0
    8.8297   -3.4709    0.0000 C   0  0  0  0  0  0  0  0  0  0  0  0
    8.8168   -4.9709    0.0000 N   0  0  0  0  0  0  0  0  0  0  0  0
   10.1352   -2.7321    0.0000 C   0  0  0  0  0  0  0  0  0  0  0  0
   10.1481   -1.2322    0.0000 C   0  0  0  0  0  0  0  0  0  0  0  0
   11.4535   -0.4934    0.0000 C   0  0  0  0  0  0  0  0  0  0  0  0
   12.7460   -1.2545    0.0000 C   0  0  0  0  0  0  0  0  0  0  0  0
   12.7331   -2.7544    0.0000 C   0  0  0  0  0  0  0  0  0  0  0  0
   11.4277   -3.4932    0.0000 C   0  0  0  0  0  0  0  0  0  0  0  0
    4.5635   -1.2353    0.0000 C   0  0  0  0  0  0  0  0  0  0  0  0
    5.3246    0.0572    0.0000 O   0  0  0  0  0  0  0  0  0  0  0  0
    3.1113   -1.6111    0.0000 N   0  0  0  0  0  0  0  0  0  0  0  0
    1.6141   -1.5197    0.0000 C   0  0  0  0  0  0  0  0  0  0  0  0
    0.8080   -0.2547    0.0000 C   0  0  0  0  0  0  0  0  0  0  0  0
   -0.6906   -0.3204    0.0000 O   0  0  0  0  0  0  0  0  0  0  0  0
    1.5003    1.0759    0.0000 O   0  0  0  0  0  0  0  0  0  0  0  0
  1  2  1  0  0  0  0
  2  3  1  0  0  0  0
  4  2  1  0  0  0  0
  2 21  1  0  0  0  0
  5  4  1  0  0  0  0
  6  5  1  0  0  0  0
  5 20  1  0  0  0  0
  6  7  1  0  0  0  0
 18  6  1  0  0  0  0
  7  8  1  0  0  0  0
  8  9  2  0  0  0  0
  8 10  1  0  0  0  0
 10 11  1  0  0  0  0
 10 12  1  0  0  0  0
 13 12  2  0  0  0  0
 12 17  1  0  0  0  0
 14 13  1  0  0  0  0
 15 14  2  0  0  0  0
 16 15  1  0  0  0  0
 17 16  2  0  0  0  0
 18 19  2  0  0  0  0
 20 18  1  0  0  0  0
 21 20  1  0  0  0  0
 21 22  1  0  0  0  0
 22 23  2  0  0  0  0
 22 24  1  0  0  0  0
M  END
> <Inchi_key>
AVKUERGKIZMTKX-UHFFFAOYSA-N

> <Source>
Mulliner

> <ID>
HT0153

> <H_MFHB>
1

> <CAS>
94935-63-4;7177-48-2

> <Cholestasis>


> <Name>
ampicillin;ampicillin sodium

> <Class>
1

$$$$