
  -INDIGO-08031710012D

 21 23  0  0  0  0  0  0  0  0999 V2000
   11.6942   -3.1076    0.0000 C   0  0  0  0  0  0  0  0  0  0  0  0
   10.3952   -3.8576    0.0000 O   0  0  0  0  0  0  0  0  0  0  0  0
    9.0961   -3.1076    0.0000 C   0  0  0  0  0  0  0  0  0  0  0  0
    9.0961   -1.6076    0.0000 N   0  0  0  0  0  0  0  0  0  0  0  0
    7.7971   -0.8576    0.0000 C   0  0  0  0  0  0  0  0  0  0  0  0
    7.7971    0.6424    0.0000 N   0  0  0  0  0  0  0  0  0  0  0  0
    6.4980   -1.6076    0.0000 N   0  0  0  0  0  0  0  0  0  0  0  0
    6.4980   -3.1076    0.0000 C   0  0  0  0  0  0  0  0  0  0  0  0
    7.7971   -3.8576    0.0000 C   0  0  0  0  0  0  0  0  0  0  0  0
    7.4852   -5.3249    0.0000 N   0  0  0  0  0  0  0  0  0  0  0  0
    5.9935   -5.4816    0.0000 C   0  0  0  0  0  0  0  0  0  0  0  0
    5.3834   -4.1113    0.0000 N   0  0  0  0  0  0  0  0  0  0  0  0
    3.9160   -3.7995    0.0000 C   0  0  0  0  0  0  0  0  0  0  0  0
    3.3059   -2.4291    0.0000 O   0  0  0  0  0  0  0  0  0  0  0  0
    1.8142   -2.5859    0.0000 C   0  0  0  0  0  0  0  0  0  0  0  0
    0.8105   -1.4712    0.0000 C   0  0  0  0  0  0  0  0  0  0  0  0
    1.2740   -0.0446    0.0000 O   0  0  0  0  0  0  0  0  0  0  0  0
    1.5023   -4.0532    0.0000 C   0  0  0  0  0  0  0  0  0  0  0  0
    0.1320   -4.6633    0.0000 O   0  0  0  0  0  0  0  0  0  0  0  0
    2.8014   -4.8032    0.0000 C   0  0  0  0  0  0  0  0  0  0  0  0
    2.9582   -6.2949    0.0000 O   0  0  0  0  0  0  0  0  0  0  0  0
  1  2  1  0  0  0  0
  2  3  1  0  0  0  0
  4  3  2  0  0  0  0
  3  9  1  0  0  0  0
  5  4  1  0  0  0  0
  5  6  1  0  0  0  0
  7  5  2  0  0  0  0
  8  7  1  0  0  0  0
  8  9  2  0  0  0  0
 12  8  1  0  0  0  0
  9 10  1  0  0  0  0
 10 11  2  0  0  0  0
 11 12  1  0  0  0  0
 12 13  1  0  0  0  0
 14 13  1  0  0  0  0
 13 20  1  0  0  0  0
 15 14  1  0  0  0  0
 15 16  1  0  0  0  0
 18 15  1  0  0  0  0
 16 17  1  0  0  0  0
 18 19  1  0  0  0  0
 20 18  1  0  0  0  0
 20 21  1  0  0  0  0
M  END
> <Inchi_key>
IXOXBSCIXZEQEQ-UHFFFAOYSA-N

> <Source>
Mulliner

> <ID>
HT1472

> <H_MFHB>
1

> <CAS>


> <Cholestasis>


> <Name>
nelarabine

> <Class>
1

$$$$