

  -INDIGO-08031710012D

 29 31  0  0  0  0  0  0  0  0999 V2000
   -1.8426    8.7946    0.0000 C   0  0  0  0  0  0  0  0  0  0  0  0
   -1.4544    7.3457    0.0000 O   0  0  0  0  0  0  0  0  0  0  0  0
   -0.0054    6.9575    0.0000 N   0  0  0  0  0  0  0  0  0  0  0  0
    0.3828    5.5086    0.0000 C   0  0  0  0  0  0  0  0  0  0  0  0
    1.8315    5.1204    0.0000 C   0  0  0  0  0  0  0  0  0  0  0  0
    2.2199    3.6715    0.0000 O   0  0  0  0  0  0  0  0  0  0  0  0
    2.8922    6.1810    0.0000 N   0  0  0  0  0  0  0  0  0  0  0  0
    4.3412    5.7928    0.0000 C   0  0  0  0  0  0  0  0  0  0  0  0
    5.6402    6.5429    0.0000 C   0  0  0  0  0  0  0  0  0  0  0  0
    6.3902    7.8418    0.0000 S   0  0  0  0  0  0  0  0  0  0  0  0
    7.8901    7.8418    0.0000 C   0  0  0  0  0  0  0  0  0  0  0  0
    8.6402    6.5429    0.0000 C   0  0  0  0  0  0  0  0  0  0  0  0
    7.8901    5.2437    0.0000 C   0  0  0  0  0  0  0  0  0  0  0  0
    6.3902    5.2437    0.0000 N   0  0  0  0  0  0  0  0  0  0  0  0
    5.0913    4.4937    0.0000 C   0  0  0  0  0  0  0  0  0  0  0  0
    4.7028    3.0449    0.0000 O   0  0  0  0  0  0  0  0  0  0  0  0
    8.6402    3.9447    0.0000 C   0  0  0  0  0  0  0  0  0  0  0  0
    7.8901    2.6457    0.0000 O   0  0  0  0  0  0  0  0  0  0  0  0
   10.1401    3.9447    0.0000 O   0  0  0  0  0  0  0  0  0  0  0  0
   10.1401    6.5429    0.0000 C   0  0  0  0  0  0  0  0  0  0  0  0
   10.8902    7.8418    0.0000 O   0  0  0  0  0  0  0  0  0  0  0  0
   12.3901    7.8418    0.0000 C   0  0  0  0  0  0  0  0  0  0  0  0
   13.1402    9.1409    0.0000 O   0  0  0  0  0  0  0  0  0  0  0  0
   13.1402    6.5429    0.0000 N   0  0  0  0  0  0  0  0  0  0  0  0
   -0.6780    4.4479    0.0000 C   0  0  0  0  0  0  0  0  0  0  0  0
   -2.1596    4.6826    0.0000 O   0  0  0  0  0  0  0  0  0  0  0  0
   -2.8404    3.3461    0.0000 C   0  0  0  0  0  0  0  0  0  0  0  0
   -1.7799    2.2854    0.0000 C   0  0  0  0  0  0  0  0  0  0  0  0
   -0.4434    2.9664    0.0000 C   0  0  0  0  0  0  0  0  0  0  0  0
  1  2  1  0  0  0  0
  2  3  1  0  0  0  0
  3  4  2  0  0  0  0
  4  5  1  0  0  0  0
  4 25  1  0  0  0  0
  5  6  2  0  0  0  0
  5  7  1  0  0  0  0
  7  8  1  0  0  0  0
  9  8  1  0  0  0  0
  8 15  1  0  0  0  0
 10  9  1  0  0  0  0
  9 14  1  0  0  0  0
 11 10  1  0  0  0  0
 12 11  1  0  0  0  0
 13 12  2  0  0  0  0
 12 20  1  0  0  0  0
 14 13  1  0  0  0  0
 13 17  1  0  0  0  0
 15 14  1  0  0  0  0
 15 16  2  0  0  0  0
 17 18  2  0  0  0  0
 17 19  1  0  0  0  0
 20 21  1  0  0  0  0
 21 22  1  0  0  0  0
 22 23  2  0  0  0  0
 22 24  1  0  0  0  0
 26 25  1  0  0  0  0
 25 29  2  0  0  0  0
 27 26  1  0  0  0  0
 28 27  2  0  0  0  0
 29 28  1  0  0  0  0
M  END
> <Inchi_key>
JFPVXVDWJQMJEE-DJKKODMXSA-N

> <Source>
Mulliner

> <ID>
HT0429

> <H_MFHB>
1

> <CAS>
55268-75-2

> <Cholestasis>


> <Name>
cefuroxime sodium;cefuroxime

> <Class>
1


$$$$