

  -INDIGO-08031710012D

 16 15  0  0  0  0  0  0  0  0999 V2000
    0.7034    2.6250    0.0000 C   0  0  0  0  0  0  0  0  0  0  0  0
    2.0023    1.8750    0.0000 C   0  0  0  0  0  0  0  0  0  0  0  0
    2.0023    0.3750    0.0000 N   0  0  0  0  0  0  0  0  0  0  0  0
    0.7034   -0.3750    0.0000 C   0  0  0  0  0  0  0  0  0  0  0  0
   -0.5957    0.3750    0.0000 C   0  0  0  0  0  0  0  0  0  0  0  0
    3.3014   -0.3750    0.0000 C   0  0  0  0  0  0  0  0  0  0  0  0
    3.3014   -1.8750    0.0000 S   0  0  0  0  0  0  0  0  0  0  0  0
    4.6005    0.3750    0.0000 S   0  0  0  0  0  0  0  0  0  0  0  0
    5.8995   -0.3750    0.0000 S   0  0  0  0  0  0  0  0  0  0  0  0
    7.1986    0.3750    0.0000 C   0  0  0  0  0  0  0  0  0  0  0  0
    7.1986    1.8750    0.0000 S   0  0  0  0  0  0  0  0  0  0  0  0
    8.4977   -0.3750    0.0000 N   0  0  0  0  0  0  0  0  0  0  0  0
    8.4977   -1.8750    0.0000 C   0  0  0  0  0  0  0  0  0  0  0  0
    9.7966   -2.6250    0.0000 C   0  0  0  0  0  0  0  0  0  0  0  0
    9.7966    0.3750    0.0000 C   0  0  0  0  0  0  0  0  0  0  0  0
   11.0957   -0.3750    0.0000 C   0  0  0  0  0  0  0  0  0  0  0  0
  1  2  1  0  0  0  0
  2  3  1  0  0  0  0
  3  4  1  0  0  0  0
  3  6  1  0  0  0  0
  4  5  1  0  0  0  0
  6  7  2  0  0  0  0
  6  8  1  0  0  0  0
  8  9  1  0  0  0  0
  9 10  1  0  0  0  0
 10 11  2  0  0  0  0
 10 12  1  0  0  0  0
 12 13  1  0  0  0  0
 12 15  1  0  0  0  0
 13 14  1  0  0  0  0
 15 16  1  0  0  0  0
M  END
> <Inchi_key>
AUZONCFQVSMFAP-UHFFFAOYSA-N

> <Source>
Mulliner

> <ID>
HT0698

> <H_MFHB>
1

> <CAS>
97-77-8

> <Cholestasis>


> <Name>
disulfiram;disulphiram

> <Class>
1


$$$$