

  -INDIGO-08031709442D

 59 63  0  0  0  0  0  0  0  0999 V2000
   10.1762    4.6682    0.0000 O   0  0  0  0  0  0  0  0  0  0  0  0
    8.6890    4.8921    0.0000 C   0  0  0  0  0  0  0  0  0  0  0  0
    8.0256    3.5404    0.0000 C   0  0  0  0  0  0  0  0  0  0  0  0
    6.5582    3.4106    0.0000 C   0  0  0  0  0  0  0  0  0  0  0  0
    5.6942    4.6476    0.0000 C   0  0  0  0  0  0  0  0  0  0  0  0
    6.3343    6.0061    0.0000 C   0  0  0  0  0  0  0  0  0  0  0  0
    5.4796    7.2384    0.0000 O   0  0  0  0  0  0  0  0  0  0  0  0
    7.8301    6.1272    0.0000 C   0  0  0  0  0  0  0  0  0  0  0  0
    8.4714    7.4842    0.0000 C   0  0  0  0  0  0  0  0  0  0  0  0
    4.2062    4.5214    0.0000 C   0  0  0  0  0  0  0  0  0  0  0  0
    3.3530    5.7582    0.0000 O   0  0  0  0  0  0  0  0  0  0  0  0
    3.5590    3.1684    0.0000 C   0  0  0  0  0  0  0  0  0  0  0  0
    2.0882    3.0538    0.0000 N   0  0  0  0  0  0  0  0  0  0  0  0
    1.3312    1.7636    0.0000 C   0  0  0  0  0  0  0  0  0  0  0  0
   -0.1472    1.4469    0.0000 O   0  0  0  0  0  0  0  0  0  0  0  0
    1.9142    0.4240    0.0000 C   0  0  0  0  0  0  0  0  0  0  0  0
    1.0404   -0.8375    0.0000 C   0  0  0  0  0  0  0  0  0  0  0  0
    1.6649   -2.1736    0.0000 C   0  0  0  0  0  0  0  0  0  0  0  0
    3.1413   -2.4245    0.0000 C   0  0  0  0  0  0  0  0  0  0  0  0
    3.6113   -3.8490    0.0000 C   0  0  0  0  0  0  0  0  0  0  0  0
    2.3165   -4.6587    0.0000 C   0  0  0  0  0  0  0  0  0  0  0  0
    4.9043   -4.3861    0.0000 C   0  0  0  0  0  0  0  0  0  0  0  0
    4.9908   -5.9084    0.0000 O   0  0  0  0  0  0  0  0  0  0  0  0
    6.2466   -3.7062    0.0000 C   0  0  0  0  0  0  0  0  0  0  0  0
    6.3309   -2.2143    0.0000 C   0  0  0  0  0  0  0  0  0  0  0  0
    7.4635   -4.5474    0.0000 C   0  0  0  0  0  0  0  0  0  0  0  0
    7.2083   -6.0359    0.0000 O   0  0  0  0  0  0  0  0  0  0  0  0
    8.8564   -4.2173    0.0000 C   0  0  0  0  0  0  0  0  0  0  0  0
    9.4305   -5.7001    0.0000 C   0  0  0  0  0  0  0  0  0  0  0  0
    9.6263   -3.0648    0.0000 C   0  0  0  0  0  0  0  0  0  0  0  0
   10.7530   -3.8564    0.0000 O   0  0  0  0  0  0  0  0  0  0  0  0
   11.2868   -5.1468    0.0000 C   0  0  0  0  0  0  0  0  0  0  0  0
   12.8522   -5.3762    0.0000 O   0  0  0  0  0  0  0  0  0  0  0  0
   10.5130   -6.4615    0.0000 C   0  0  0  0  0  0  0  0  0  0  0  0
   11.0336   -2.7569    0.0000 C   0  0  0  0  0  0  0  0  0  0  0  0
   12.0288   -3.9024    0.0000 C   0  0  0  0  0  0  0  0  0  0  0  0
   11.7040   -1.4729    0.0000 C   0  0  0  0  0  0  0  0  0  0  0  0
   13.1978   -1.5718    0.0000 O   0  0  0  0  0  0  0  0  0  0  0  0
   14.0386   -0.3312    0.0000 C   0  0  0  0  0  0  0  0  0  0  0  0
   11.1287   -0.1208    0.0000 C   0  0  0  0  0  0  0  0  0  0  0  0
   12.0313    1.0781    0.0000 C   0  0  0  0  0  0  0  0  0  0  0  0
   11.6979    2.4441    0.0000 O   0  0  0  0  0  0  0  0  0  0  0  0
   10.4685    3.1876    0.0000 C   0  0  0  0  0  0  0  0  0  0  0  0
   11.7101    4.0313    0.0000 C   0  0  0  0  0  0  0  0  0  0  0  0
    9.0844    2.5156    0.0000 C   0  0  0  0  0  0  0  0  0  0  0  0
    8.8503    1.0334    0.0000 O   0  0  0  0  0  0  0  0  0  0  0  0
    3.2645   -0.3131    0.0000 C   0  0  0  0  0  0  0  0  0  0  0  0
    4.4274    1.9321    0.0000 C   0  0  0  0  0  0  0  0  0  0  0  0
    3.5309    0.7277    0.0000 C   0  0  0  0  0  0  0  0  0  0  0  0
    2.1671    1.2252    0.0000 N   0  0  0  0  0  0  0  0  0  0  0  0
    1.1841    0.0869    0.0000 N   0  0  0  0  0  0  0  0  0  0  0  0
    1.6698   -1.3365    0.0000 C   0  0  0  0  0  0  0  0  0  0  0  0
    0.6628   -2.4711    0.0000 C   0  0  0  0  0  0  0  0  0  0  0  0
   -0.7956   -2.1830    0.0000 N   0  0  0  0  0  0  0  0  0  0  0  0
   -1.2827   -0.7555    0.0000 C   0  0  0  0  0  0  0  0  0  0  0  0
   -0.2929    0.3608    0.0000 C   0  0  0  0  0  0  0  0  0  0  0  0
   -1.9788   -3.1119    0.0000 C   0  0  0  0  0  0  0  0  0  0  0  0
    5.9088    2.0542    0.0000 C   0  0  0  0  0  0  0  0  0  0  0  0
    6.7723    0.8221    0.0000 O   0  0  0  0  0  0  0  0  0  0  0  0
  2  1  1  0  0  0  0
  1 43  1  0  0  0  0
  2  3  2  0  0  0  0
  8  2  1  0  0  0  0
  3  4  1  0  0  0  0
 45  3  1  0  0  0  0
  5  4  2  0  0  0  0
  4 58  1  0  0  0  0
  5  6  1  0  0  0  0
 10  5  1  0  0  0  0
  6  7  1  0  0  0  0
  6  8  2  0  0  0  0
  8  9  1  0  0  0  0
 10 11  1  0  0  0  0
 12 10  2  0  0  0  0
 12 13  1  0  0  0  0
 48 12  1  0  0  0  0
 13 14  1  0  0  0  0
 14 15  2  0  0  0  0
 14 16  1  0  0  0  0
 16 17  2  0  0  0  0
 16 47  1  0  0  0  0
 17 18  1  0  0  0  0
 18 19  2  0  0  0  0
 19 20  1  0  0  0  0
 20 21  1  0  0  0  0
 20 22  1  0  0  0  0
 22 23  1  0  0  0  0
 22 24  1  0  0  0  0
 24 25  1  0  0  0  0
 24 26  1  0  0  0  0
 26 27  1  0  0  0  0
 26 28  1  0  0  0  0
 28 29  1  0  0  0  0
 28 30  1  0  0  0  0
 30 31  1  0  0  0  0
 30 35  1  0  0  0  0
 31 32  1  0  0  0  0
 32 33  2  0  0  0  0
 32 34  1  0  0  0  0
 35 36  1  0  0  0  0
 35 37  1  0  0  0  0
 37 38  1  0  0  0  0
 37 40  1  0  0  0  0
 38 39  1  0  0  0  0
 40 41  2  0  0  0  0
 41 42  1  0  0  0  0
 42 43  1  0  0  0  0
 43 44  1  0  0  0  0
 43 45  1  0  0  0  0
 45 46  2  0  0  0  0
 48 49  1  0  0  0  0
 58 48  2  0  0  0  0
 49 50  2  0  0  0  0
 50 51  1  0  0  0  0
 52 51  1  0  0  0  0
 51 56  1  0  0  0  0
 53 52  1  0  0  0  0
 54 53  1  0  0  0  0
 55 54  1  0  0  0  0
 54 57  1  0  0  0  0
 56 55  1  0  0  0  0
 58 59  1  0  0  0  0
M  END
> <Inchi_key>
JQXXHWHPUNPDRT-VOINHNLOSA-N

> <Source>
Kotsampasakou

> <ID>
EK0467

> <H_MFHB>


> <CAS>


> <Cholestasis>
1

> <Name>
rifampicin

> <Class>
1


$$$$