
  -INDIGO-08031710012D

 19 19  0  0  0  0  0  0  0  0999 V2000
   15.2368    3.9655    0.0000 O   0  0  0  0  0  0  0  0  0  0  0  0
   13.7367    3.9655    0.0000 C   0  0  0  0  0  0  0  0  0  0  0  0
   12.9869    5.2645    0.0000 O   0  0  0  0  0  0  0  0  0  0  0  0
   12.9869    2.6664    0.0000 C   0  0  0  0  0  0  0  0  0  0  0  0
   11.4868    2.6664    0.0000 C   0  0  0  0  0  0  0  0  0  0  0  0
   10.7368    1.3674    0.0000 C   0  0  0  0  0  0  0  0  0  0  0  0
    9.2367    1.3674    0.0000 C   0  0  0  0  0  0  0  0  0  0  0  0
    8.4869    0.0684    0.0000 C   0  0  0  0  0  0  0  0  0  0  0  0
    6.9868    0.0684    0.0000 C   0  0  0  0  0  0  0  0  0  0  0  0
    6.2368    1.3674    0.0000 C   0  0  0  0  0  0  0  0  0  0  0  0
    6.9868    2.6664    0.0000 C   0  0  0  0  0  0  0  0  0  0  0  0
    8.4869    2.6664    0.0000 C   0  0  0  0  0  0  0  0  0  0  0  0
    4.7367    1.3674    0.0000 N   0  0  0  0  0  0  0  0  0  0  0  0
    3.9869    0.0684    0.0000 C   0  0  0  0  0  0  0  0  0  0  0  0
    2.4868    0.0684    0.0000 C   0  0  0  0  0  0  0  0  0  0  0  0
    1.7368   -1.2307    0.0000 Cl  0  0  0  0  0  0  0  0  0  0  0  0
    3.9869    2.6664    0.0000 C   0  0  0  0  0  0  0  0  0  0  0  0
    2.4868    2.6664    0.0000 C   0  0  0  0  0  0  0  0  0  0  0  0
    1.7368    3.9655    0.0000 Cl  0  0  0  0  0  0  0  0  0  0  0  0
  1  2  1  0  0  0  0
  2  3  2  0  0  0  0
  2  4  1  0  0  0  0
  4  5  1  0  0  0  0
  5  6  1  0  0  0  0
  6  7  1  0  0  0  0
  8  7  2  0  0  0  0
  7 12  1  0  0  0  0
  9  8  1  0  0  0  0
 10  9  2  0  0  0  0
 11 10  1  0  0  0  0
 10 13  1  0  0  0  0
 12 11  2  0  0  0  0
 13 14  1  0  0  0  0
 13 17  1  0  0  0  0
 14 15  1  0  0  0  0
 15 16  1  0  0  0  0
 17 18  1  0  0  0  0
 18 19  1  0  0  0  0
M  END
> <Inchi_key>
JCKYGMPEJWAADB-UHFFFAOYSA-N

> <Source>
Mulliner , Kotsampasakou

> <ID>
EK0115;HT0443

> <H_MFHB>
1

> <CAS>


> <Cholestasis>
1

> <Name>
chlorambucil

> <Class>
1

$$$$