
  -INDIGO-08031710012D

 27 30  0  0  0  0  0  0  0  0999 V2000
   13.9693   -2.7394    0.0000 C   0  0  0  0  0  0  0  0  0  0  0  0
   13.2193   -4.0385    0.0000 C   0  0  0  0  0  0  0  0  0  0  0  0
   11.7192   -4.0384    0.0000 O   0  0  0  0  0  0  0  0  0  0  0  0
   10.9691   -5.3373    0.0000 C   0  0  0  0  0  0  0  0  0  0  0  0
   11.7192   -6.6364    0.0000 O   0  0  0  0  0  0  0  0  0  0  0  0
    9.4690   -5.3373    0.0000 N   0  0  0  0  0  0  0  0  0  0  0  0
    8.7192   -4.0382    0.0000 C   0  0  0  0  0  0  0  0  0  0  0  0
    7.2192   -4.0381    0.0000 C   0  0  0  0  0  0  0  0  0  0  0  0
    6.4690   -5.3370    0.0000 C   0  0  0  0  0  0  0  0  0  0  0  0
    4.9691   -5.3370    0.0000 C   0  0  0  0  0  0  0  0  0  0  0  0
    4.3173   -6.6879    0.0000 C   0  0  0  0  0  0  0  0  0  0  0  0
    5.3374   -7.7878    0.0000 C   0  0  0  0  0  0  0  0  0  0  0  0
    4.8950   -9.2211    0.0000 C   0  0  0  0  0  0  0  0  0  0  0  0
    3.4326   -9.5546    0.0000 C   0  0  0  0  0  0  0  0  0  0  0  0
    2.9903  -10.9879    0.0000 Cl  0  0  0  0  0  0  0  0  0  0  0  0
    2.4126   -8.4548    0.0000 C   0  0  0  0  0  0  0  0  0  0  0  0
    2.8549   -7.0216    0.0000 C   0  0  0  0  0  0  0  0  0  0  0  0
    1.6818   -6.0867    0.0000 C   0  0  0  0  0  0  0  0  0  0  0  0
    1.6807   -4.5867    0.0000 C   0  0  0  0  0  0  0  0  0  0  0  0
    2.8551   -3.6523    0.0000 C   0  0  0  0  0  0  0  0  0  0  0  0
    2.4129   -2.2189    0.0000 C   0  0  0  0  0  0  0  0  0  0  0  0
    3.4332   -1.1193    0.0000 C   0  0  0  0  0  0  0  0  0  0  0  0
    4.8956   -1.4530    0.0000 C   0  0  0  0  0  0  0  0  0  0  0  0
    5.3377   -2.8863    0.0000 N   0  0  0  0  0  0  0  0  0  0  0  0
    4.3177   -3.9860    0.0000 C   0  0  0  0  0  0  0  0  0  0  0  0
    7.2191   -6.6361    0.0000 C   0  0  0  0  0  0  0  0  0  0  0  0
    8.7192   -6.6363    0.0000 C   0  0  0  0  0  0  0  0  0  0  0  0
  1  2  1  0  0  0  0
  2  3  1  0  0  0  0
  3  4  1  0  0  0  0
  4  5  2  0  0  0  0
  4  6  1  0  0  0  0
  7  6  1  0  0  0  0
  6 27  1  0  0  0  0
  8  7  1  0  0  0  0
  9  8  1  0  0  0  0
  9 10  2  0  0  0  0
 26  9  1  0  0  0  0
 11 10  1  0  0  0  0
 10 25  1  0  0  0  0
 12 11  2  0  0  0  0
 11 17  1  0  0  0  0
 13 12  1  0  0  0  0
 14 13  2  0  0  0  0
 14 15  1  0  0  0  0
 16 14  1  0  0  0  0
 17 16  2  0  0  0  0
 18 17  1  0  0  0  0
 19 18  1  0  0  0  0
 20 19  1  0  0  0  0
 21 20  1  0  0  0  0
 20 25  2  0  0  0  0
 22 21  2  0  0  0  0
 23 22  1  0  0  0  0
 24 23  2  0  0  0  0
 25 24  1  0  0  0  0
 27 26  1  0  0  0  0
M  END
> <Inchi_key>
JCCNYMKQOSZNPW-UHFFFAOYSA-N

> <Source>
Mulliner

> <ID>
HT1237

> <H_MFHB>
1

> <CAS>
79794-75-5

> <Cholestasis>


> <Name>
loratadine

> <Class>
1

$$$$