
  -INDIGO-08031710012D

 35 36  0  0  0  0  0  0  0  0999 V2000
    8.3914    8.6800    0.0000 C   0  0  0  0  0  0  0  0  0  0  0  0
    8.3914   10.1800    0.0000 C   0  0  0  0  0  0  0  0  0  0  0  0
    9.6906   10.9300    0.0000 C   0  0  0  0  0  0  0  0  0  0  0  0
    7.0925   10.9300    0.0000 O   0  0  0  0  0  0  0  0  0  0  0  0
    5.7934   10.1800    0.0000 C   0  0  0  0  0  0  0  0  0  0  0  0
    5.7934    8.6800    0.0000 O   0  0  0  0  0  0  0  0  0  0  0  0
    4.4945   10.9300    0.0000 O   0  0  0  0  0  0  0  0  0  0  0  0
    3.1953   10.1800    0.0000 C   0  0  0  0  0  0  0  0  0  0  0  0
    1.8964   10.9300    0.0000 O   0  0  0  0  0  0  0  0  0  0  0  0
    0.5973   10.1800    0.0000 P   0  0  0  0  0  0  0  0  0  0  0  0
   -0.7016    9.4301    0.0000 O   0  0  0  0  0  0  0  0  0  0  0  0
    1.3472    8.8809    0.0000 C   0  0  0  0  0  0  0  0  0  0  0  0
    0.5973    7.5820    0.0000 O   0  0  0  0  0  0  0  0  0  0  0  0
    1.3472    6.2829    0.0000 C   0  0  0  0  0  0  0  0  0  0  0  0
    2.8472    6.2829    0.0000 C   0  0  0  0  0  0  0  0  0  0  0  0
    0.5973    4.9838    0.0000 C   0  0  0  0  0  0  0  0  0  0  0  0
   -0.9027    4.9838    0.0000 N   0  0  0  0  0  0  0  0  0  0  0  0
   -1.7843    6.1972    0.0000 C   0  0  0  0  0  0  0  0  0  0  0  0
   -3.2108    5.7339    0.0000 N   0  0  0  0  0  0  0  0  0  0  0  0
   -3.2108    4.2337    0.0000 C   0  0  0  0  0  0  0  0  0  0  0  0
   -4.3257    3.2302    0.0000 C   0  0  0  0  0  0  0  0  0  0  0  0
   -5.7522    3.6935    0.0000 N   0  0  0  0  0  0  0  0  0  0  0  0
   -4.0137    1.7629    0.0000 N   0  0  0  0  0  0  0  0  0  0  0  0
   -2.5872    1.2994    0.0000 C   0  0  0  0  0  0  0  0  0  0  0  0
   -1.4726    2.3031    0.0000 N   0  0  0  0  0  0  0  0  0  0  0  0
   -1.7843    3.7702    0.0000 C   0  0  0  0  0  0  0  0  0  0  0  0
   -0.1527   11.4790    0.0000 O   0  0  0  0  0  0  0  0  0  0  0  0
   -1.6526   11.4790    0.0000 C   0  0  0  0  0  0  0  0  0  0  0  0
   -2.4026   12.7779    0.0000 O   0  0  0  0  0  0  0  0  0  0  0  0
   -3.9028   12.7779    0.0000 C   0  0  0  0  0  0  0  0  0  0  0  0
   -4.6528   11.4790    0.0000 O   0  0  0  0  0  0  0  0  0  0  0  0
   -4.6528   14.0770    0.0000 O   0  0  0  0  0  0  0  0  0  0  0  0
   -6.1527   14.0770    0.0000 C   0  0  0  0  0  0  0  0  0  0  0  0
   -6.9027   15.3761    0.0000 C   0  0  0  0  0  0  0  0  0  0  0  0
   -6.9027   12.7779    0.0000 C   0  0  0  0  0  0  0  0  0  0  0  0
  1  2  1  0  0  0  0
  2  3  1  0  0  0  0
  2  4  1  0  0  0  0
  4  5  1  0  0  0  0
  5  6  2  0  0  0  0
  5  7  1  0  0  0  0
  7  8  1  0  0  0  0
  8  9  1  0  0  0  0
  9 10  1  0  0  0  0
 10 11  2  0  0  0  0
 10 12  1  0  0  0  0
 10 27  1  0  0  0  0
 12 13  1  0  0  0  0
 13 14  1  0  0  0  0
 14 15  1  0  0  0  0
 14 16  1  0  0  0  0
 16 17  1  0  0  0  0
 18 17  1  0  0  0  0
 17 26  1  0  0  0  0
 19 18  2  0  0  0  0
 20 19  1  0  0  0  0
 21 20  1  0  0  0  0
 20 26  2  0  0  0  0
 21 22  1  0  0  0  0
 23 21  2  0  0  0  0
 24 23  1  0  0  0  0
 25 24  2  0  0  0  0
 26 25  1  0  0  0  0
 27 28  1  0  0  0  0
 28 29  1  0  0  0  0
 29 30  1  0  0  0  0
 30 31  2  0  0  0  0
 30 32  1  0  0  0  0
 32 33  1  0  0  0  0
 33 34  1  0  0  0  0
 33 35  1  0  0  0  0
M  END
> <Inchi_key>
JFVZFKDSXNQEJW-UHFFFAOYSA-N

> <Source>
Mulliner

> <ID>
HT2005

> <H_MFHB>
1

> <CAS>


> <Cholestasis>


> <Name>
tenofovir disoproxil fumarate

> <Class>
1

$$$$