
  -INDIGO-08031710012D

 28 29  0  0  0  0  0  0  0  0999 V2000
    1.2841    0.0264    0.0000 C   0  0  0  0  0  0  0  0  0  0  0  0
    2.5830    0.7764    0.0000 C   0  0  0  0  0  0  0  0  0  0  0  0
    3.3331   -0.5226    0.0000 C   0  0  0  0  0  0  0  0  0  0  0  0
    1.8332    2.0753    0.0000 O   0  0  0  0  0  0  0  0  0  0  0  0
    0.3332    2.0753    0.0000 C   0  0  0  0  0  0  0  0  0  0  0  0
   -0.4169    0.7764    0.0000 C   0  0  0  0  0  0  0  0  0  0  0  0
   -1.9169    0.7764    0.0000 C   0  0  0  0  0  0  0  0  0  0  0  0
   -2.6670    2.0753    0.0000 C   0  0  0  0  0  0  0  0  0  0  0  0
   -1.9169    3.3746    0.0000 C   0  0  0  0  0  0  0  0  0  0  0  0
   -0.4169    3.3746    0.0000 C   0  0  0  0  0  0  0  0  0  0  0  0
   -4.1670    2.0753    0.0000 C   0  0  0  0  0  0  0  0  0  0  0  0
   -4.9168    0.7764    0.0000 O   0  0  0  0  0  0  0  0  0  0  0  0
   -4.9168    3.3746    0.0000 C   0  0  0  0  0  0  0  0  0  0  0  0
   -6.4168    3.3746    0.0000 C   0  0  0  0  0  0  0  0  0  0  0  0
   -7.1669    4.6735    0.0000 C   0  0  0  0  0  0  0  0  0  0  0  0
   -6.4168    5.9726    0.0000 C   0  0  0  0  0  0  0  0  0  0  0  0
   -7.1669    7.2716    0.0000 Cl  0  0  0  0  0  0  0  0  0  0  0  0
   -4.9168    5.9726    0.0000 C   0  0  0  0  0  0  0  0  0  0  0  0
   -4.1670    4.6735    0.0000 C   0  0  0  0  0  0  0  0  0  0  0  0
    3.8822    1.5264    0.0000 C   0  0  0  0  0  0  0  0  0  0  0  0
    3.8822    3.0264    0.0000 O   0  0  0  0  0  0  0  0  0  0  0  0
    5.1811    0.7764    0.0000 N   0  0  0  0  0  0  0  0  0  0  0  0
    6.4803    1.5264    0.0000 C   0  0  0  0  0  0  0  0  0  0  0  0
    7.7792    0.7764    0.0000 C   0  0  0  0  0  0  0  0  0  0  0  0
    9.0784    1.5264    0.0000 S   0  0  0  0  0  0  0  0  0  0  0  0
    8.3283    2.8255    0.0000 O   0  0  0  0  0  0  0  0  0  0  0  0
    9.8282    0.2274    0.0000 O   0  0  0  0  0  0  0  0  0  0  0  0
   10.3773    2.2763    0.0000 O   0  0  0  0  0  0  0  0  0  0  0  0
  1  2  1  0  0  0  0
  2  3  1  0  0  0  0
  2  4  1  0  0  0  0
  2 20  1  0  0  0  0
  4  5  1  0  0  0  0
  6  5  2  0  0  0  0
  5 10  1  0  0  0  0
  7  6  1  0  0  0  0
  8  7  2  0  0  0  0
  9  8  1  0  0  0  0
  8 11  1  0  0  0  0
 10  9  2  0  0  0  0
 11 12  2  0  0  0  0
 11 13  1  0  0  0  0
 14 13  2  0  0  0  0
 13 19  1  0  0  0  0
 15 14  1  0  0  0  0
 16 15  2  0  0  0  0
 16 17  1  0  0  0  0
 18 16  1  0  0  0  0
 19 18  2  0  0  0  0
 20 21  2  0  0  0  0
 20 22  1  0  0  0  0
 22 23  1  0  0  0  0
 23 24  1  0  0  0  0
 24 25  1  0  0  0  0
 25 26  2  0  0  0  0
 25 27  2  0  0  0  0
 25 28  1  0  0  0  0
M  END
> <Inchi_key>
IYNIXDBLAVOMAW-UHFFFAOYSA-N

> <Source>
Mulliner

> <ID>
HT0474

> <H_MFHB>
1

> <CAS>


> <Cholestasis>


> <Name>
cholestyramine

> <Class>
1

$$$$