
  -INDIGO-08031710012D

 17 18  0  0  0  0  0  0  0  0999 V2000
    6.6023    6.8209    0.0000 N   0  0  0  0  0  0  0  0  0  0  0  0
    6.6511    5.3216    0.0000 C   0  0  0  0  0  0  0  0  0  0  0  0
    7.9739    4.6143    0.0000 O   0  0  0  0  0  0  0  0  0  0  0  0
    5.3773    4.5298    0.0000 C   0  0  0  0  0  0  0  0  0  0  0  0
    5.2691    3.0337    0.0000 N   0  0  0  0  0  0  0  0  0  0  0  0
    3.8128    2.6742    0.0000 C   0  0  0  0  0  0  0  0  0  0  0  0
    3.0209    3.9481    0.0000 N   0  0  0  0  0  0  0  0  0  0  0  0
    3.9878    5.0949    0.0000 N   0  0  0  0  0  0  0  0  0  0  0  0
    1.5248    4.0563    0.0000 C   0  0  0  0  0  0  0  0  0  0  0  0
    0.7329    5.3302    0.0000 O   0  0  0  0  0  0  0  0  0  0  0  0
   -0.7234    4.9707    0.0000 C   0  0  0  0  0  0  0  0  0  0  0  0
   -1.8702    5.9376    0.0000 C   0  0  0  0  0  0  0  0  0  0  0  0
   -1.6063    7.4142    0.0000 O   0  0  0  0  0  0  0  0  0  0  0  0
   -0.8316    3.4746    0.0000 C   0  0  0  0  0  0  0  0  0  0  0  0
   -2.1055    2.6828    0.0000 O   0  0  0  0  0  0  0  0  0  0  0  0
    0.5579    2.9095    0.0000 C   0  0  0  0  0  0  0  0  0  0  0  0
    0.9175    1.4532    0.0000 O   0  0  0  0  0  0  0  0  0  0  0  0
  1  2  1  0  0  0  0
  2  3  2  0  0  0  0
  2  4  1  0  0  0  0
  5  4  1  0  0  0  0
  4  8  2  0  0  0  0
  6  5  2  0  0  0  0
  7  6  1  0  0  0  0
  8  7  1  0  0  0  0
  7  9  1  0  0  0  0
 10  9  1  0  0  0  0
  9 16  1  0  0  0  0
 11 10  1  0  0  0  0
 11 12  1  0  0  0  0
 14 11  1  0  0  0  0
 12 13  1  0  0  0  0
 14 15  1  0  0  0  0
 16 14  1  0  0  0  0
 16 17  1  0  0  0  0
M  END
> <Inchi_key>
IWUCXVSUMQZMFG-UHFFFAOYSA-N

> <Source>
Mulliner

> <ID>
HT1817

> <H_MFHB>
1

> <CAS>
36791-04-5

> <Cholestasis>


> <Name>
ribavirin

> <Class>
1

$$$$