

  -INDIGO-08031710012D

 26 31  0  0  0  0  0  0  0  0999 V2000
    6.1071   -1.9053    0.0000 C   0  0  0  0  0  0  0  0  0  0  0  0
    5.0286   -2.9478    0.0000 N   0  0  0  0  0  0  0  0  0  0  0  0
    6.2813   -3.7729    0.0000 C   0  0  0  0  0  0  0  0  0  0  0  0
    7.6222   -3.1007    0.0000 C   0  0  0  0  0  0  0  0  0  0  0  0
    8.4474   -1.8481    0.0000 C   0  0  0  0  0  0  0  0  0  0  0  0
    9.1196   -3.1890    0.0000 C   0  0  0  0  0  0  0  0  0  0  0  0
    3.7891   -3.6786    0.0000 C   0  0  0  0  0  0  0  0  0  0  0  0
    1.8462   -2.7530    0.0000 C   0  0  0  0  0  0  0  0  0  0  0  0
    1.4627   -1.3473    0.0000 C   0  0  0  0  0  0  0  0  0  0  0  0
    0.7339   -0.1212    0.0000 C   0  0  0  0  0  0  0  0  0  0  0  0
   -0.8905   -0.8284    0.0000 O   0  0  0  0  0  0  0  0  0  0  0  0
   -0.6777   -2.6076    0.0000 C   0  0  0  0  0  0  0  0  0  0  0  0
   -1.3811   -3.8591    0.0000 C   0  0  0  0  0  0  0  0  0  0  0  0
   -2.8810   -3.8741    0.0000 O   0  0  0  0  0  0  0  0  0  0  0  0
   -0.6536   -5.0929    0.0000 C   0  0  0  0  0  0  0  0  0  0  0  0
    0.7784   -5.0748    0.0000 C   0  0  0  0  0  0  0  0  0  0  0  0
    1.4796   -3.8342    0.0000 C   0  0  0  0  0  0  0  0  0  0  0  0
    2.9198   -3.8185    0.0000 C   0  0  0  0  0  0  0  0  0  0  0  0
    3.6330   -2.5719    0.0000 C   0  0  0  0  0  0  0  0  0  0  0  0
    2.8975   -1.3293    0.0000 C   0  0  0  0  0  0  0  0  0  0  0  0
    4.3974   -1.3208    0.0000 O   0  0  0  0  0  0  0  0  0  0  0  0
    3.6034   -0.0856    0.0000 C   0  0  0  0  0  0  0  0  0  0  0  0
    2.8672    1.1479    0.0000 C   0  0  0  0  0  0  0  0  0  0  0  0
    1.4325    1.1298    0.0000 C   0  0  0  0  0  0  0  0  0  0  0  0
    0.6651    2.4185    0.0000 O   0  0  0  0  0  0  0  0  0  0  0  0
    0.7520   -2.6004    0.0000 C   0  0  0  0  0  0  0  0  0  0  0  0
  1  2  1  0  0  0  0
  2  3  1  0  0  0  0
  7  2  1  0  0  0  0
  2 19  1  0  0  0  0
  3  4  1  0  0  0  0
  5  4  1  0  0  0  0
  4  6  1  0  0  0  0
  6  5  1  0  0  0  0
  8  7  1  0  0  0  0
  9  8  1  0  0  0  0
  9 10  1  0  0  0  0
  9 20  1  0  0  0  0
 26  9  1  0  0  0  0
 10 11  1  0  0  0  0
 24 10  1  0  0  0  0
 11 12  1  0  0  0  0
 13 12  1  0  0  0  0
 12 26  2  0  0  0  0
 13 14  1  0  0  0  0
 15 13  2  0  0  0  0
 16 15  1  0  0  0  0
 17 16  2  0  0  0  0
 17 18  1  0  0  0  0
 26 17  1  0  0  0  0
 18 19  1  0  0  0  0
 19 20  1  0  0  0  0
 20 21  1  0  0  0  0
 20 22  1  0  0  0  0
 22 23  1  0  0  0  0
 23 24  1  0  0  0  0
 24 25  2  0  0  0  0
M  CHG  1   2   1
M  END
> <Inchi_key>
JVLBPIPGETUEET-UHFFFAOYSA-O

> <Source>
Mulliner

> <ID>
HT1364

> <H_MFHB>
1

> <CAS>


> <Cholestasis>


> <Name>
methylnaltrexone bromide;methylnaltrexone

> <Class>
1


$$$$