

  -INDIGO-08031710012D

 22 25  0  0  0  0  0  0  0  0999 V2000
   11.4116    1.5023    0.0000 C   0  0  0  0  0  0  0  0  0  0  0  0
    9.9627    1.1141    0.0000 N   0  0  0  0  0  0  0  0  0  0  0  0
    8.9021    2.1748    0.0000 C   0  0  0  0  0  0  0  0  0  0  0  0
    7.4533    1.7865    0.0000 C   0  0  0  0  0  0  0  0  0  0  0  0
    7.0649    0.3377    0.0000 C   0  0  0  0  0  0  0  0  0  0  0  0
    5.6161   -0.0505    0.0000 C   0  0  0  0  0  0  0  0  0  0  0  0
    4.6369    1.0858    0.0000 C   0  0  0  0  0  0  0  0  0  0  0  0
    5.3377    2.4121    0.0000 C   0  0  0  0  0  0  0  0  0  0  0  0
    4.5394    3.6821    0.0000 C   0  0  0  0  0  0  0  0  0  0  0  0
    3.0406    3.6258    0.0000 C   0  0  0  0  0  0  0  0  0  0  0  0
    2.3398    2.2996    0.0000 C   0  0  0  0  0  0  0  0  0  0  0  0
    3.1380    1.0296    0.0000 C   0  0  0  0  0  0  0  0  0  0  0  0
    2.2468   -0.1769    0.0000 C   0  0  0  0  0  0  0  0  0  0  0  0
    2.6338   -1.6262    0.0000 C   0  0  0  0  0  0  0  0  0  0  0  0
    4.0100   -2.2249    0.0000 C   0  0  0  0  0  0  0  0  0  0  0  0
    3.9538   -3.7239    0.0000 C   0  0  0  0  0  0  0  0  0  0  0  0
    5.2237   -4.5221    0.0000 C   0  0  0  0  0  0  0  0  0  0  0  0
    6.5499   -3.8214    0.0000 C   0  0  0  0  0  0  0  0  0  0  0  0
    6.6062   -2.3224    0.0000 C   0  0  0  0  0  0  0  0  0  0  0  0
    5.3361   -1.5242    0.0000 C   0  0  0  0  0  0  0  0  0  0  0  0
    8.1256   -0.7230    0.0000 C   0  0  0  0  0  0  0  0  0  0  0  0
    9.5744   -0.3348    0.0000 C   0  0  0  0  0  0  0  0  0  0  0  0
  1  2  1  0  0  0  0
  3  2  1  0  0  0  0
  2 22  1  0  0  0  0
  4  3  1  0  0  0  0
  5  4  1  0  0  0  0
  5  6  2  0  0  0  0
 21  5  1  0  0  0  0
  7  6  1  0  0  0  0
  6 20  1  0  0  0  0
  8  7  2  0  0  0  0
  7 12  1  0  0  0  0
  9  8  1  0  0  0  0
 10  9  2  0  0  0  0
 11 10  1  0  0  0  0
 12 11  2  0  0  0  0
 13 12  1  0  0  0  0
 14 13  2  0  0  0  0
 15 14  1  0  0  0  0
 16 15  1  0  0  0  0
 15 20  2  0  0  0  0
 17 16  2  0  0  0  0
 18 17  1  0  0  0  0
 19 18  2  0  0  0  0
 20 19  1  0  0  0  0
 22 21  1  0  0  0  0
M  END
> <Inchi_key>
JJCFRYNCJDLXIK-UHFFFAOYSA-N

> <Source>
Mulliner , Kotsampasakou

> <ID>
EK0142;HT0575

> <H_MFHB>
1

> <CAS>


> <Cholestasis>
1

> <Name>
cyproheptadine hydrochloride;cyproheptadine

> <Class>
1


$$$$