
  -INDIGO-08031710012D

 31 34  0  0  0  0  0  0  0  0999 V2000
   26.1468    3.8938    0.0000 C   0  0  0  0  0  0  0  0  0  0  0  0
   25.0276    4.8924    0.0000 C   0  0  0  0  0  0  0  0  0  0  0  0
   23.6031    4.4224    0.0000 C   0  0  0  0  0  0  0  0  0  0  0  0
   22.4835    5.4209    0.0000 C   0  0  0  0  0  0  0  0  0  0  0  0
   21.0595    4.9509    0.0000 C   0  0  0  0  0  0  0  0  0  0  0  0
   19.9399    5.9495    0.0000 C   0  0  0  0  0  0  0  0  0  0  0  0
   18.5154    5.4794    0.0000 C   0  0  0  0  0  0  0  0  0  0  0  0
   17.3962    6.4780    0.0000 C   0  0  0  0  0  0  0  0  0  0  0  0
   15.9718    6.0080    0.0000 C   0  0  0  0  0  0  0  0  0  0  0  0
   14.8525    7.0066    0.0000 C   0  0  0  0  0  0  0  0  0  0  0  0
   15.1578    8.4752    0.0000 O   0  0  0  0  0  0  0  0  0  0  0  0
   13.4281    6.5365    0.0000 O   0  0  0  0  0  0  0  0  0  0  0  0
   12.3089    7.5351    0.0000 C   0  0  0  0  0  0  0  0  0  0  0  0
   12.4587    9.0276    0.0000 C   0  0  0  0  0  0  0  0  0  0  0  0
   11.0854    9.6314    0.0000 C   0  0  0  0  0  0  0  0  0  0  0  0
   10.0871    8.5121    0.0000 C   0  0  0  0  0  0  0  0  0  0  0  0
    8.5870    8.5053    0.0000 C   0  0  0  0  0  0  0  0  0  0  0  0
    7.8312    9.8009    0.0000 C   0  0  0  0  0  0  0  0  0  0  0  0
    6.3311    9.7940    0.0000 C   0  0  0  0  0  0  0  0  0  0  0  0
    5.5872    8.4915    0.0000 C   0  0  0  0  0  0  0  0  0  0  0  0
    4.0871    8.4847    0.0000 C   0  0  0  0  0  0  0  0  0  0  0  0
    3.3428    7.1822    0.0000 C   0  0  0  0  0  0  0  0  0  0  0  0
    1.8431    7.1754    0.0000 O   0  0  0  0  0  0  0  0  0  0  0  0
    4.0990    5.8866    0.0000 C   0  0  0  0  0  0  0  0  0  0  0  0
    5.5991    5.8935    0.0000 C   0  0  0  0  0  0  0  0  0  0  0  0
    6.3430    7.1959    0.0000 C   0  0  0  0  0  0  0  0  0  0  0  0
    7.8431    7.2028    0.0000 C   0  0  0  0  0  0  0  0  0  0  0  0
    8.5989    5.9072    0.0000 C   0  0  0  0  0  0  0  0  0  0  0  0
   10.0990    5.9141    0.0000 C   0  0  0  0  0  0  0  0  0  0  0  0
   10.8429    7.2165    0.0000 C   0  0  0  0  0  0  0  0  0  0  0  0
   11.7088    5.9917    0.0000 C   0  0  0  0  0  0  0  0  0  0  0  0
  1  2  1  0  0  0  0
  2  3  1  0  0  0  0
  3  4  1  0  0  0  0
  4  5  1  0  0  0  0
  5  6  1  0  0  0  0
  6  7  1  0  0  0  0
  7  8  1  0  0  0  0
  8  9  1  0  0  0  0
  9 10  1  0  0  0  0
 10 11  2  0  0  0  0
 10 12  1  0  0  0  0
 12 13  1  0  0  0  0
 14 13  1  0  0  0  0
 13 30  1  0  0  0  0
 15 14  1  0  0  0  0
 16 15  1  0  0  0  0
 17 16  1  0  0  0  0
 16 30  1  0  0  0  0
 18 17  1  0  0  0  0
 17 27  1  0  0  0  0
 19 18  1  0  0  0  0
 20 19  1  0  0  0  0
 21 20  2  0  0  0  0
 20 26  1  0  0  0  0
 22 21  1  0  0  0  0
 22 23  2  0  0  0  0
 24 22  1  0  0  0  0
 25 24  1  0  0  0  0
 26 25  1  0  0  0  0
 27 26  1  0  0  0  0
 28 27  1  0  0  0  0
 29 28  1  0  0  0  0
 30 29  1  0  0  0  0
 30 31  1  0  0  0  0
M  END
> <Inchi_key>
JKWKMORAXJQQSR-UHFFFAOYSA-N

> <Source>
Mulliner

> <ID>
HT1461

> <H_MFHB>
1

> <CAS>


> <Cholestasis>


> <Name>
nandrolone decanoate

> <Class>
1

$$$$