

  -INDIGO-08031710012D

 25 26  0  0  0  0  0  0  0  0999 V2000
   19.6200   -6.7550    0.0000 C   0  0  0  0  0  0  0  0  0  0  0  0
   18.1201   -6.7550    0.0000 C   0  0  0  0  0  0  0  0  0  0  0  0
   17.3700   -5.4560    0.0000 C   0  0  0  0  0  0  0  0  0  0  0  0
   15.8700   -5.4560    0.0000 N   0  0  0  0  0  0  0  0  0  0  0  0
   15.1199   -4.1569    0.0000 C   0  0  0  0  0  0  0  0  0  0  0  0
   13.6200   -4.1569    0.0000 C   0  0  0  0  0  0  0  0  0  0  0  0
   12.8699   -5.4560    0.0000 O   0  0  0  0  0  0  0  0  0  0  0  0
   12.8699   -2.8578    0.0000 C   0  0  0  0  0  0  0  0  0  0  0  0
   11.3700   -2.8578    0.0000 O   0  0  0  0  0  0  0  0  0  0  0  0
   10.6201   -1.5587    0.0000 C   0  0  0  0  0  0  0  0  0  0  0  0
   11.3700   -0.2598    0.0000 C   0  0  0  0  0  0  0  0  0  0  0  0
   10.6201    1.0392    0.0000 C   0  0  0  0  0  0  0  0  0  0  0  0
    9.1199    1.0392    0.0000 C   0  0  0  0  0  0  0  0  0  0  0  0
    8.3701   -0.2598    0.0000 C   0  0  0  0  0  0  0  0  0  0  0  0
    9.1199   -1.5587    0.0000 C   0  0  0  0  0  0  0  0  0  0  0  0
    8.3701   -2.8578    0.0000 C   0  0  0  0  0  0  0  0  0  0  0  0
    9.1199   -4.1569    0.0000 O   0  0  0  0  0  0  0  0  0  0  0  0
    6.8699   -2.8578    0.0000 C   0  0  0  0  0  0  0  0  0  0  0  0
    6.1201   -4.1569    0.0000 C   0  0  0  0  0  0  0  0  0  0  0  0
    4.6201   -4.1569    0.0000 C   0  0  0  0  0  0  0  0  0  0  0  0
    3.8700   -2.8578    0.0000 C   0  0  0  0  0  0  0  0  0  0  0  0
    2.3701   -2.8578    0.0000 C   0  0  0  0  0  0  0  0  0  0  0  0
    1.6200   -4.1569    0.0000 C   0  0  0  0  0  0  0  0  0  0  0  0
    2.3701   -5.4560    0.0000 C   0  0  0  0  0  0  0  0  0  0  0  0
    3.8700   -5.4560    0.0000 C   0  0  0  0  0  0  0  0  0  0  0  0
  1  2  1  0  0  0  0
  2  3  1  0  0  0  0
  3  4  1  0  0  0  0
  4  5  1  0  0  0  0
  5  6  1  0  0  0  0
  6  7  1  0  0  0  0
  6  8  1  0  0  0  0
  8  9  1  0  0  0  0
  9 10  1  0  0  0  0
 11 10  2  0  0  0  0
 10 15  1  0  0  0  0
 12 11  1  0  0  0  0
 13 12  2  0  0  0  0
 14 13  1  0  0  0  0
 15 14  2  0  0  0  0
 15 16  1  0  0  0  0
 16 17  2  0  0  0  0
 16 18  1  0  0  0  0
 18 19  1  0  0  0  0
 19 20  1  0  0  0  0
 21 20  2  0  0  0  0
 20 25  1  0  0  0  0
 22 21  1  0  0  0  0
 23 22  2  0  0  0  0
 24 23  1  0  0  0  0
 25 24  2  0  0  0  0
M  END
> <Inchi_key>
JWHAUXFOSRPERK-UHFFFAOYSA-N

> <Source>
Mulliner , Kotsampasakou

> <ID>
EK0449;HT1756

> <H_MFHB>
1

> <CAS>


> <Cholestasis>
1

> <Name>
propafenone hydrochloride;propafenone

> <Class>
1


$$$$