

  -INDIGO-08031710012D

 22 25  0  0  0  0  0  0  0  0999 V2000
   11.3685   -0.1963    0.0000 Cl  0  0  0  0  0  0  0  0  0  0  0  0
    9.8694   -0.1445    0.0000 C   0  0  0  0  0  0  0  0  0  0  0  0
    9.1648    1.1797    0.0000 C   0  0  0  0  0  0  0  0  0  0  0  0
    7.6657    1.2314    0.0000 C   0  0  0  0  0  0  0  0  0  0  0  0
    6.8712   -0.0409    0.0000 C   0  0  0  0  0  0  0  0  0  0  0  0
    5.3966    0.2344    0.0000 C   0  0  0  0  0  0  0  0  0  0  0  0
    5.0041    1.6821    0.0000 C   0  0  0  0  0  0  0  0  0  0  0  0
    6.0616    2.7460    0.0000 C   0  0  0  0  0  0  0  0  0  0  0  0
    5.6690    4.1937    0.0000 C   0  0  0  0  0  0  0  0  0  0  0  0
    4.2189    4.5776    0.0000 N   0  0  0  0  0  0  0  0  0  0  0  0
    3.1615    3.5137    0.0000 C   0  0  0  0  0  0  0  0  0  0  0  0
    3.5540    2.0660    0.0000 C   0  0  0  0  0  0  0  0  0  0  0  0
    4.2633   -0.7480    0.0000 C   0  0  0  0  0  0  0  0  0  0  0  0
    2.9349   -0.0514    0.0000 N   0  0  0  0  0  0  0  0  0  0  0  0
    1.6673   -0.8534    0.0000 C   0  0  0  0  0  0  0  0  0  0  0  0
    1.7281   -2.3520    0.0000 C   0  0  0  0  0  0  0  0  0  0  0  0
    3.0564   -3.0489    0.0000 C   0  0  0  0  0  0  0  0  0  0  0  0
    4.3240   -2.2469    0.0000 C   0  0  0  0  0  0  0  0  0  0  0  0
    5.5333   -3.1358    0.0000 C   0  0  0  0  0  0  0  0  0  0  0  0
    6.9807   -2.7419    0.0000 C   0  0  0  0  0  0  0  0  0  0  0  0
    7.5759   -1.3651    0.0000 C   0  0  0  0  0  0  0  0  0  0  0  0
    9.0751   -1.4169    0.0000 C   0  0  0  0  0  0  0  0  0  0  0  0
  1  2  1  0  0  0  0
  3  2  2  0  0  0  0
  2 22  1  0  0  0  0
  4  3  1  0  0  0  0
  5  4  2  0  0  0  0
  6  5  1  0  0  0  0
  5 21  1  0  0  0  0
  6  7  2  0  0  0  0
 13  6  1  0  0  0  0
  8  7  1  0  0  0  0
  7 12  1  0  0  0  0
  9  8  1  0  0  0  0
 10  9  1  0  0  0  0
 11 10  1  0  0  0  0
 12 11  1  0  0  0  0
 14 13  1  0  0  0  0
 13 18  2  0  0  0  0
 15 14  2  0  0  0  0
 16 15  1  0  0  0  0
 17 16  2  0  0  0  0
 18 17  1  0  0  0  0
 19 18  1  0  0  0  0
 20 19  1  0  0  0  0
 21 20  1  0  0  0  0
 22 21  2  0  0  0  0
M  END
> <Inchi_key>
JAUOIFJMECXRGI-UHFFFAOYSA-N

> <Source>
Mulliner

> <ID>
HT0613

> <H_MFHB>
1

> <CAS>


> <Cholestasis>


> <Name>
desloratadine

> <Class>
1


$$$$