

  -INDIGO-08031710012D

 22 22  0  0  0  0  0  0  0  0999 V2000
   -0.1616    0.6032    0.0000 C   0  0  0  0  0  0  0  0  0  0  0  0
    1.1373    1.3532    0.0000 C   0  0  0  0  0  0  0  0  0  0  0  0
    2.4366    0.6032    0.0000 N   0  0  0  0  0  0  0  0  0  0  0  0
    2.4366   -0.8968    0.0000 C   0  0  0  0  0  0  0  0  0  0  0  0
    1.1373   -1.6468    0.0000 C   0  0  0  0  0  0  0  0  0  0  0  0
    3.7355    1.3532    0.0000 C   0  0  0  0  0  0  0  0  0  0  0  0
    5.0344    0.6032    0.0000 O   0  0  0  0  0  0  0  0  0  0  0  0
    3.7355    2.8532    0.0000 C   0  0  0  0  0  0  0  0  0  0  0  0
    5.0344    3.6032    0.0000 C   0  0  0  0  0  0  0  0  0  0  0  0
    6.3337    2.8532    0.0000 C   0  0  0  0  0  0  0  0  0  0  0  0
    6.3337    1.3532    0.0000 C   0  0  0  0  0  0  0  0  0  0  0  0
    7.6326    0.6032    0.0000 C   0  0  0  0  0  0  0  0  0  0  0  0
    7.6326   -0.8968    0.0000 O   0  0  0  0  0  0  0  0  0  0  0  0
    8.9315    1.3532    0.0000 C   0  0  0  0  0  0  0  0  0  0  0  0
   10.2308    0.6032    0.0000 O   0  0  0  0  0  0  0  0  0  0  0  0
    8.9315    2.8532    0.0000 C   0  0  0  0  0  0  0  0  0  0  0  0
    7.6326    3.6032    0.0000 C   0  0  0  0  0  0  0  0  0  0  0  0
   10.2308    3.6032    0.0000 N   0  0  0  0  0  0  0  0  0  0  0  0
   11.5297    2.8532    0.0000 O   0  0  0  0  0  0  0  0  0  0  0  0
   10.2308    5.1032    0.0000 O   0  0  0  0  0  0  0  0  0  0  0  0
    2.4366    3.6032    0.0000 C   0  0  0  0  0  0  0  0  0  0  0  0
    1.1373    4.3532    0.0000 N   0  0  0  0  0  0  0  0  0  0  0  0
  1  2  1  0  0  0  0
  2  3  1  0  0  0  0
  3  4  1  0  0  0  0
  3  6  1  0  0  0  0
  4  5  1  0  0  0  0
  6  7  2  0  0  0  0
  6  8  1  0  0  0  0
  8  9  2  0  0  0  0
  8 21  1  0  0  0  0
  9 10  1  0  0  0  0
 11 10  2  0  0  0  0
 10 17  1  0  0  0  0
 12 11  1  0  0  0  0
 12 13  1  0  0  0  0
 14 12  2  0  0  0  0
 14 15  1  0  0  0  0
 16 14  1  0  0  0  0
 17 16  2  0  0  0  0
 16 18  1  0  0  0  0
 18 19  2  0  0  0  0
 18 20  1  0  0  0  0
 21 22  3  0  0  0  0
M  CHG  2  18   1  20  -1
M  END
> <Inchi_key>
JRURYQJSLYLRLN-YHYXMXQVSA-N

> <Source>
Mulliner

> <ID>
HT0763

> <H_MFHB>
1

> <CAS>


> <Cholestasis>


> <Name>
entacapone

> <Class>
1


$$$$