

  -INDIGO-08031710012D

 24 26  0  0  0  0  0  0  0  0999 V2000
   11.7837    6.8033    0.0000 C   0  0  0  0  0  0  0  0  0  0  0  0
   11.0338    5.5042    0.0000 C   0  0  0  0  0  0  0  0  0  0  0  0
   11.7837    4.2053    0.0000 O   0  0  0  0  0  0  0  0  0  0  0  0
    9.5338    5.5042    0.0000 C   0  0  0  0  0  0  0  0  0  0  0  0
    8.7837    4.2053    0.0000 C   0  0  0  0  0  0  0  0  0  0  0  0
    7.2837    4.2053    0.0000 C   0  0  0  0  0  0  0  0  0  0  0  0
    6.4022    5.4188    0.0000 C   0  0  0  0  0  0  0  0  0  0  0  0
    6.8657    6.8453    0.0000 O   0  0  0  0  0  0  0  0  0  0  0  0
    4.9755    4.9553    0.0000 N   0  0  0  0  0  0  0  0  0  0  0  0
    4.9755    3.4553    0.0000 N   0  0  0  0  0  0  0  0  0  0  0  0
    6.4022    2.9917    0.0000 C   0  0  0  0  0  0  0  0  0  0  0  0
    6.8657    1.5652    0.0000 O   0  0  0  0  0  0  0  0  0  0  0  0
    3.7621    2.5735    0.0000 C   0  0  0  0  0  0  0  0  0  0  0  0
    2.3917    3.1837    0.0000 C   0  0  0  0  0  0  0  0  0  0  0  0
    1.1781    2.3020    0.0000 C   0  0  0  0  0  0  0  0  0  0  0  0
    1.3349    0.8101    0.0000 C   0  0  0  0  0  0  0  0  0  0  0  0
    2.7051    0.2001    0.0000 C   0  0  0  0  0  0  0  0  0  0  0  0
    3.9189    1.0817    0.0000 C   0  0  0  0  0  0  0  0  0  0  0  0
    3.7621    5.8370    0.0000 C   0  0  0  0  0  0  0  0  0  0  0  0
    3.9189    7.3288    0.0000 C   0  0  0  0  0  0  0  0  0  0  0  0
    2.7051    8.2104    0.0000 C   0  0  0  0  0  0  0  0  0  0  0  0
    1.3349    7.6004    0.0000 C   0  0  0  0  0  0  0  0  0  0  0  0
    1.1781    6.1085    0.0000 C   0  0  0  0  0  0  0  0  0  0  0  0
    2.3917    5.2268    0.0000 C   0  0  0  0  0  0  0  0  0  0  0  0
  1  2  1  0  0  0  0
  2  3  2  0  0  0  0
  2  4  1  0  0  0  0
  4  5  1  0  0  0  0
  5  6  1  0  0  0  0
  7  6  1  0  0  0  0
  6 11  1  0  0  0  0
  7  8  2  0  0  0  0
  9  7  1  0  0  0  0
 10  9  1  0  0  0  0
  9 19  1  0  0  0  0
 11 10  1  0  0  0  0
 10 13  1  0  0  0  0
 11 12  2  0  0  0  0
 14 13  2  0  0  0  0
 13 18  1  0  0  0  0
 15 14  1  0  0  0  0
 16 15  2  0  0  0  0
 17 16  1  0  0  0  0
 18 17  2  0  0  0  0
 20 19  2  0  0  0  0
 19 24  1  0  0  0  0
 21 20  1  0  0  0  0
 22 21  2  0  0  0  0
 23 22  1  0  0  0  0
 24 23  2  0  0  0  0
M  END
> <Inchi_key>
LGYTZKPVOAIUKX-UHFFFAOYSA-N

> <Source>
Mulliner

> <ID>
HT1156

> <H_MFHB>
1

> <CAS>


> <Cholestasis>


> <Name>
kebuzone

> <Class>
1


$$$$