

  -INDIGO-08031710012D

 51 53  0  0  0  0  0  0  0  0999 V2000
   16.5294   -0.0001    0.0000 C   0  0  0  0  0  0  0  0  0  0  0  0
   15.0293   -0.0001    0.0000 O   0  0  0  0  0  0  0  0  0  0  0  0
   14.2794    1.2991    0.0000 C   0  0  0  0  0  0  0  0  0  0  0  0
   15.0293    2.5982    0.0000 O   0  0  0  0  0  0  0  0  0  0  0  0
   12.7793    1.2991    0.0000 N   0  0  0  0  0  0  0  0  0  0  0  0
   12.0294    2.5982    0.0000 C   0  0  0  0  0  0  0  0  0  0  0  0
   10.5293    2.5982    0.0000 C   0  0  0  0  0  0  0  0  0  0  0  0
    9.7794    3.8971    0.0000 O   0  0  0  0  0  0  0  0  0  0  0  0
    9.7794    1.2991    0.0000 N   0  0  0  0  0  0  0  0  0  0  0  0
   10.5293   -0.0001    0.0000 C   0  0  0  0  0  0  0  0  0  0  0  0
   12.0294   -0.0001    0.0000 C   0  0  0  0  0  0  0  0  0  0  0  0
   12.7793   -1.2990    0.0000 C   0  0  0  0  0  0  0  0  0  0  0  0
   12.0294   -2.5982    0.0000 C   0  0  0  0  0  0  0  0  0  0  0  0
   12.7793   -3.8971    0.0000 C   0  0  0  0  0  0  0  0  0  0  0  0
   14.2794   -3.8971    0.0000 C   0  0  0  0  0  0  0  0  0  0  0  0
   15.0293   -2.5982    0.0000 C   0  0  0  0  0  0  0  0  0  0  0  0
   14.2794   -1.2990    0.0000 C   0  0  0  0  0  0  0  0  0  0  0  0
    9.7794   -1.2990    0.0000 C   0  0  0  0  0  0  0  0  0  0  0  0
   10.5293   -2.5982    0.0000 O   0  0  0  0  0  0  0  0  0  0  0  0
    8.2794   -1.2990    0.0000 C   0  0  0  0  0  0  0  0  0  0  0  0
    7.5294   -0.0001    0.0000 N   0  0  0  0  0  0  0  0  0  0  0  0
    8.2794    1.2991    0.0000 C   0  0  0  0  0  0  0  0  0  0  0  0
    7.5294    2.5982    0.0000 C   0  0  0  0  0  0  0  0  0  0  0  0
    6.0294    2.5982    0.0000 C   0  0  0  0  0  0  0  0  0  0  0  0
    5.2795    3.8971    0.0000 C   0  0  0  0  0  0  0  0  0  0  0  0
    6.0294    5.1963    0.0000 C   0  0  0  0  0  0  0  0  0  0  0  0
    7.5294    5.1963    0.0000 C   0  0  0  0  0  0  0  0  0  0  0  0
    8.2794    3.8971    0.0000 C   0  0  0  0  0  0  0  0  0  0  0  0
    5.2795    6.4952    0.0000 C   0  0  0  0  0  0  0  0  0  0  0  0
    3.7794    6.4952    0.0000 C   0  0  0  0  0  0  0  0  0  0  0  0
    3.0295    7.7942    0.0000 C   0  0  0  0  0  0  0  0  0  0  0  0
    3.7794    9.0933    0.0000 C   0  0  0  0  0  0  0  0  0  0  0  0
    5.2795    9.0933    0.0000 C   0  0  0  0  0  0  0  0  0  0  0  0
    6.0294    7.7942    0.0000 N   0  0  0  0  0  0  0  0  0  0  0  0
    6.0294   -0.0001    0.0000 N   0  0  0  0  0  0  0  0  0  0  0  0
    5.2795   -1.2990    0.0000 C   0  0  0  0  0  0  0  0  0  0  0  0
    6.0294   -2.5982    0.0000 O   0  0  0  0  0  0  0  0  0  0  0  0
    3.7794   -1.2990    0.0000 C   0  0  0  0  0  0  0  0  0  0  0  0
    3.0295   -2.5982    0.0000 N   0  0  0  0  0  0  0  0  0  0  0  0
    1.5294   -2.5982    0.0000 C   0  0  0  0  0  0  0  0  0  0  0  0
    0.7795   -1.2990    0.0000 O   0  0  0  0  0  0  0  0  0  0  0  0
    0.7795   -3.8971    0.0000 O   0  0  0  0  0  0  0  0  0  0  0  0
   -0.7206   -3.8971    0.0000 C   0  0  0  0  0  0  0  0  0  0  0  0
    3.0295   -0.0001    0.0000 C   0  0  0  0  0  0  0  0  0  0  0  0
    1.7305   -0.7499    0.0000 C   0  0  0  0  0  0  0  0  0  0  0  0
    2.2793    1.2991    0.0000 C   0  0  0  0  0  0  0  0  0  0  0  0
    4.3285    0.7500    0.0000 C   0  0  0  0  0  0  0  0  0  0  0  0
   12.7793    3.8971    0.0000 C   0  0  0  0  0  0  0  0  0  0  0  0
   13.5295    5.1963    0.0000 C   0  0  0  0  0  0  0  0  0  0  0  0
   11.4803    4.6470    0.0000 C   0  0  0  0  0  0  0  0  0  0  0  0
   14.0783    3.1471    0.0000 C   0  0  0  0  0  0  0  0  0  0  0  0
  1  2  1  0  0  0  0
  2  3  1  0  0  0  0
  3  4  2  0  0  0  0
  3  5  1  0  0  0  0
  5  6  1  0  0  0  0
  6  7  1  0  0  0  0
  6 48  1  0  0  0  0
  7  8  2  0  0  0  0
  7  9  1  0  0  0  0
  9 10  1  0  0  0  0
 10 11  1  0  0  0  0
 10 18  1  0  0  0  0
 11 12  1  0  0  0  0
 13 12  2  0  0  0  0
 12 17  1  0  0  0  0
 14 13  1  0  0  0  0
 15 14  2  0  0  0  0
 16 15  1  0  0  0  0
 17 16  2  0  0  0  0
 18 19  1  0  0  0  0
 18 20  1  0  0  0  0
 20 21  1  0  0  0  0
 21 22  1  0  0  0  0
 21 35  1  0  0  0  0
 22 23  1  0  0  0  0
 24 23  2  0  0  0  0
 23 28  1  0  0  0  0
 25 24  1  0  0  0  0
 26 25  2  0  0  0  0
 27 26  1  0  0  0  0
 26 29  1  0  0  0  0
 28 27  2  0  0  0  0
 30 29  2  0  0  0  0
 29 34  1  0  0  0  0
 31 30  1  0  0  0  0
 32 31  2  0  0  0  0
 33 32  1  0  0  0  0
 34 33  2  0  0  0  0
 35 36  1  0  0  0  0
 36 37  2  0  0  0  0
 36 38  1  0  0  0  0
 38 39  1  0  0  0  0
 38 44  1  0  0  0  0
 39 40  1  0  0  0  0
 40 41  2  0  0  0  0
 40 42  1  0  0  0  0
 42 43  1  0  0  0  0
 44 45  1  0  0  0  0
 44 46  1  0  0  0  0
 44 47  1  0  0  0  0
 48 49  1  0  0  0  0
 48 50  1  0  0  0  0
 48 51  1  0  0  0  0
M  END
> <Inchi_key>
AXRYRYVKAWYZBR-UHFFFAOYSA-N

> <Source>
Mulliner , Kotsampasakou

> <ID>
EK0043;HT0191

> <H_MFHB>
1

> <CAS>
198904-31-3

> <Cholestasis>
1

> <Name>
atazanavir sulfate;atazanavir

> <Class>
1


$$$$