
  -INDIGO-08031710012D

 23 24  0  0  0  0  0  0  0  0999 V2000
   12.9208   -5.3185    0.0000 C   0  0  0  0  0  0  0  0  0  0  0  0
   11.6219   -6.0685    0.0000 C   0  0  0  0  0  0  0  0  0  0  0  0
   10.3227   -5.3185    0.0000 C   0  0  0  0  0  0  0  0  0  0  0  0
   10.3227   -3.8185    0.0000 C   0  0  0  0  0  0  0  0  0  0  0  0
    9.0238   -6.0685    0.0000 C   0  0  0  0  0  0  0  0  0  0  0  0
    9.0238   -7.5685    0.0000 C   0  0  0  0  0  0  0  0  0  0  0  0
    7.7246   -5.3185    0.0000 C   0  0  0  0  0  0  0  0  0  0  0  0
    6.4257   -6.0685    0.0000 N   0  0  0  0  0  0  0  0  0  0  0  0
    5.1266   -5.3185    0.0000 C   0  0  0  0  0  0  0  0  0  0  0  0
    3.8276   -6.0685    0.0000 C   0  0  0  0  0  0  0  0  0  0  0  0
    2.5285   -5.3185    0.0000 C   0  0  0  0  0  0  0  0  0  0  0  0
    1.2295   -6.0685    0.0000 Cl  0  0  0  0  0  0  0  0  0  0  0  0
    2.5285   -3.8185    0.0000 C   0  0  0  0  0  0  0  0  0  0  0  0
    3.8276   -3.0685    0.0000 C   0  0  0  0  0  0  0  0  0  0  0  0
    5.1266   -3.8185    0.0000 C   0  0  0  0  0  0  0  0  0  0  0  0
    6.4257   -3.0685    0.0000 S   0  0  0  0  0  0  0  0  0  0  0  0
    5.6756   -1.7694    0.0000 O   0  0  0  0  0  0  0  0  0  0  0  0
    7.1756   -1.7694    0.0000 O   0  0  0  0  0  0  0  0  0  0  0  0
    7.7246   -3.8185    0.0000 N   0  0  0  0  0  0  0  0  0  0  0  0
    1.2295   -3.0685    0.0000 S   0  0  0  0  0  0  0  0  0  0  0  0
    0.4795   -4.3675    0.0000 O   0  0  0  0  0  0  0  0  0  0  0  0
    1.9794   -1.7694    0.0000 O   0  0  0  0  0  0  0  0  0  0  0  0
   -0.0696   -2.3185    0.0000 N   0  0  0  0  0  0  0  0  0  0  0  0
  1  2  1  0  0  0  0
  2  3  1  0  0  0  0
  3  4  1  0  0  0  0
  3  5  1  0  0  0  0
  5  6  1  0  0  0  0
  5  7  1  0  0  0  0
  8  7  1  0  0  0  0
  7 19  1  0  0  0  0
  9  8  1  0  0  0  0
 10  9  1  0  0  0  0
  9 15  2  0  0  0  0
 11 10  2  0  0  0  0
 11 12  1  0  0  0  0
 13 11  1  0  0  0  0
 14 13  2  0  0  0  0
 13 20  1  0  0  0  0
 15 14  1  0  0  0  0
 16 15  1  0  0  0  0
 16 17  2  0  0  0  0
 16 18  2  0  0  0  0
 19 16  1  0  0  0  0
 20 21  2  0  0  0  0
 20 22  2  0  0  0  0
 20 23  1  0  0  0  0
M  END
> <Inchi_key>
KJLLKLRVCJAFRY-UHFFFAOYSA-N

> <Source>
Mulliner

> <ID>
HT1279

> <H_MFHB>
1

> <CAS>


> <Cholestasis>


> <Name>
mebutizide

> <Class>
1

$$$$