
  -INDIGO-08031710012D

 11 11  0  0  0  0  0  0  0  0999 V2000
    3.6052    2.1417    0.0000 O   0  0  0  0  0  0  0  0  0  0  0  0
    3.6052    0.6417    0.0000 C   0  0  0  0  0  0  0  0  0  0  0  0
    2.3061   -0.1083    0.0000 N   0  0  0  0  0  0  0  0  0  0  0  0
    4.9043   -0.1083    0.0000 C   0  0  0  0  0  0  0  0  0  0  0  0
    4.9043   -1.6083    0.0000 C   0  0  0  0  0  0  0  0  0  0  0  0
    6.2032   -2.3583    0.0000 C   0  0  0  0  0  0  0  0  0  0  0  0
    3.6052   -2.3583    0.0000 N   0  0  0  0  0  0  0  0  0  0  0  0
    7.5023   -1.6083    0.0000 C   0  0  0  0  0  0  0  0  0  0  0  0
    2.3061   -1.6083    0.0000 C   0  0  0  0  0  0  0  0  0  0  0  0
    8.8013   -2.3583    0.0000 C   0  0  0  0  0  0  0  0  0  0  0  0
    1.0071   -2.3583    0.0000 S   0  0  0  0  0  0  0  0  0  0  0  0
  1  2  2  0  0  0  0
  3  2  1  0  0  0  0
  2  4  1  0  0  0  0
  4  5  2  0  0  0  0
  5  6  1  0  0  0  0
  5  7  1  0  0  0  0
  6  8  1  0  0  0  0
  7  9  2  0  0  0  0
  8 10  1  0  0  0  0
  9  3  1  0  0  0  0
  9 11  1  0  0  0  0
M  END
> <Inchi_key>
KNAHARQHSZJURB-UHFFFAOYSA-N

> <Source>
Mulliner , Kotsampasakou

> <ID>
EK0452;HT1768

> <H_MFHB>
1

> <CAS>
51-52-5

> <Cholestasis>
1

> <Name>
propylthiouracil

> <Class>
1

$$$$