

  -INDIGO-08031710012D

 40 42  0  0  0  0  0  0  0  0999 V2000
   -2.9417   -3.4409    0.0000 N   0  0  0  0  0  0  0  0  0  0  0  0
   -1.6427   -2.6909    0.0000 C   0  0  0  0  0  0  0  0  0  0  0  0
   -0.3435   -3.4409    0.0000 C   0  0  0  0  0  0  0  0  0  0  0  0
    0.9555   -2.6909    0.0000 C   0  0  0  0  0  0  0  0  0  0  0  0
    0.9555   -1.1909    0.0000 O   0  0  0  0  0  0  0  0  0  0  0  0
    2.2545   -3.4409    0.0000 C   0  0  0  0  0  0  0  0  0  0  0  0
    3.5534   -2.6909    0.0000 O   0  0  0  0  0  0  0  0  0  0  0  0
    2.2545   -4.9409    0.0000 N   0  0  0  0  0  0  0  0  0  0  0  0
    3.5534   -5.6909    0.0000 C   0  0  0  0  0  0  0  0  0  0  0  0
    4.8527   -4.9409    0.0000 C   0  0  0  0  0  0  0  0  0  0  0  0
    6.1517   -5.6909    0.0000 C   0  0  0  0  0  0  0  0  0  0  0  0
    7.4506   -4.9409    0.0000 N   0  0  0  0  0  0  0  0  0  0  0  0
    6.1517   -7.1909    0.0000 C   0  0  0  0  0  0  0  0  0  0  0  0
    7.4506   -7.9409    0.0000 O   0  0  0  0  0  0  0  0  0  0  0  0
    8.7496   -7.1909    0.0000 C   0  0  0  0  0  0  0  0  0  0  0  0
    8.7496   -5.6909    0.0000 O   0  0  0  0  0  0  0  0  0  0  0  0
   10.0486   -4.9409    0.0000 C   0  0  0  0  0  0  0  0  0  0  0  0
   10.0486   -3.4409    0.0000 C   0  0  0  0  0  0  0  0  0  0  0  0
   11.3478   -2.6909    0.0000 N   0  0  0  0  0  0  0  0  0  0  0  0
   11.3478   -5.6909    0.0000 C   0  0  0  0  0  0  0  0  0  0  0  0
   12.6468   -4.9409    0.0000 O   0  0  0  0  0  0  0  0  0  0  0  0
   11.3478   -7.1909    0.0000 C   0  0  0  0  0  0  0  0  0  0  0  0
   12.6468   -7.9409    0.0000 O   0  0  0  0  0  0  0  0  0  0  0  0
   10.0486   -7.9409    0.0000 C   0  0  0  0  0  0  0  0  0  0  0  0
   10.0486   -9.4409    0.0000 O   0  0  0  0  0  0  0  0  0  0  0  0
    4.8527   -7.9409    0.0000 C   0  0  0  0  0  0  0  0  0  0  0  0
    4.8527   -9.4409    0.0000 O   0  0  0  0  0  0  0  0  0  0  0  0
    3.5534   -7.1909    0.0000 C   0  0  0  0  0  0  0  0  0  0  0  0
    2.2545   -7.9409    0.0000 O   0  0  0  0  0  0  0  0  0  0  0  0
    2.2545   -9.4409    0.0000 C   0  0  0  0  0  0  0  0  0  0  0  0
    3.5534  -10.1909    0.0000 O   0  0  0  0  0  0  0  0  0  0  0  0
    3.5534  -11.6909    0.0000 C   0  0  0  0  0  0  0  0  0  0  0  0
    4.8527  -12.4409    0.0000 C   0  0  0  0  0  0  0  0  0  0  0  0
    4.8527  -13.9409    0.0000 O   0  0  0  0  0  0  0  0  0  0  0  0
    2.2545  -12.4409    0.0000 C   0  0  0  0  0  0  0  0  0  0  0  0
    2.2545  -13.9409    0.0000 O   0  0  0  0  0  0  0  0  0  0  0  0
    0.9555  -11.6909    0.0000 C   0  0  0  0  0  0  0  0  0  0  0  0
   -0.3435  -12.4409    0.0000 N   0  0  0  0  0  0  0  0  0  0  0  0
    0.9555  -10.1909    0.0000 C   0  0  0  0  0  0  0  0  0  0  0  0
   -0.3435   -9.4409    0.0000 O   0  0  0  0  0  0  0  0  0  0  0  0
  1  2  1  0  0  0  0
  2  3  1  0  0  0  0
  3  4  1  0  0  0  0
  4  5  1  0  0  0  0
  4  6  1  0  0  0  0
  6  7  2  0  0  0  0
  6  8  1  0  0  0  0
  8  9  1  0  0  0  0
 10  9  1  0  0  0  0
  9 28  1  0  0  0  0
 11 10  1  0  0  0  0
 11 12  1  0  0  0  0
 13 11  1  0  0  0  0
 13 14  1  0  0  0  0
 26 13  1  0  0  0  0
 14 15  1  0  0  0  0
 16 15  1  0  0  0  0
 15 24  1  0  0  0  0
 17 16  1  0  0  0  0
 17 18  1  0  0  0  0
 20 17  1  0  0  0  0
 18 19  1  0  0  0  0
 20 21  1  0  0  0  0
 22 20  1  0  0  0  0
 22 23  1  0  0  0  0
 24 22  1  0  0  0  0
 24 25  1  0  0  0  0
 26 27  1  0  0  0  0
 28 26  1  0  0  0  0
 28 29  1  0  0  0  0
 29 30  1  0  0  0  0
 31 30  1  0  0  0  0
 30 39  1  0  0  0  0
 32 31  1  0  0  0  0
 32 33  1  0  0  0  0
 35 32  1  0  0  0  0
 33 34  1  0  0  0  0
 35 36  1  0  0  0  0
 37 35  1  0  0  0  0
 37 38  1  0  0  0  0
 39 37  1  0  0  0  0
 39 40  1  0  0  0  0
M  END
> <Inchi_key>
LKCWBDHBTVXHDL-UHFFFAOYSA-N

> <Source>
Mulliner

> <ID>
HT0130

> <H_MFHB>
1

> <CAS>


> <Cholestasis>


> <Name>
amikacin sulfate;amikacin

> <Class>
1


$$$$