

  -INDIGO-08031710012D

 11 10  0  0  0  0  0  0  0  0999 V2000
    7.6364   -0.0000    0.0000 C   0  0  0  0  0  0  0  0  0  0  0  0
    6.1364   -0.0000    0.0000 C   0  0  0  0  0  0  0  0  0  0  0  0
    5.3864   -1.2990    0.0000 C   0  0  0  0  0  0  0  0  0  0  0  0
    5.3864    1.2990    0.0000 C   0  0  0  0  0  0  0  0  0  0  0  0
    3.8864    1.2990    0.0000 C   0  0  0  0  0  0  0  0  0  0  0  0
    3.1364    2.5981    0.0000 C   0  0  0  0  0  0  0  0  0  0  0  0
    3.8864    3.8971    0.0000 N   0  0  0  0  0  0  0  0  0  0  0  0
    3.1364   -0.0000    0.0000 C   0  0  0  0  0  0  0  0  0  0  0  0
    1.6364   -0.0000    0.0000 C   0  0  0  0  0  0  0  0  0  0  0  0
    0.8864   -1.2990    0.0000 O   0  0  0  0  0  0  0  0  0  0  0  0
    0.8864    1.2990    0.0000 O   0  0  0  0  0  0  0  0  0  0  0  0
  1  2  1  0  0  0  0
  2  3  1  0  0  0  0
  2  4  1  0  0  0  0
  4  5  1  0  0  0  0
  5  6  1  0  0  0  0
  5  8  1  0  0  0  0
  6  7  1  0  0  0  0
  8  9  1  0  0  0  0
  9 10  2  0  0  0  0
  9 11  1  0  0  0  0
M  END
> <Inchi_key>
AYXYPKUFHZROOJ-UHFFFAOYSA-N

> <Source>
Mulliner

> <ID>
HT1735

> <H_MFHB>
1

> <CAS>


> <Cholestasis>


> <Name>
pregabalin

> <Class>
1


$$$$