
  -INDIGO-08031710012D

 35 37  0  0  0  0  0  0  0  0999 V2000
   13.0457    2.4787    0.0000 C   0  0  0  0  0  0  0  0  0  0  0  0
   12.6575    3.9278    0.0000 O   0  0  0  0  0  0  0  0  0  0  0  0
   11.2086    4.3161    0.0000 N   0  0  0  0  0  0  0  0  0  0  0  0
   10.8204    5.7647    0.0000 C   0  0  0  0  0  0  0  0  0  0  0  0
    9.3715    6.1530    0.0000 C   0  0  0  0  0  0  0  0  0  0  0  0
    8.9832    7.6021    0.0000 O   0  0  0  0  0  0  0  0  0  0  0  0
    8.3108    5.0923    0.0000 N   0  0  0  0  0  0  0  0  0  0  0  0
    6.8620    5.4807    0.0000 C   0  0  0  0  0  0  0  0  0  0  0  0
    6.1119    6.7797    0.0000 C   0  0  0  0  0  0  0  0  0  0  0  0
    6.1119    8.2797    0.0000 S   0  0  0  0  0  0  0  0  0  0  0  0
    4.8129    9.0297    0.0000 C   0  0  0  0  0  0  0  0  0  0  0  0
    3.5138    8.2797    0.0000 C   0  0  0  0  0  0  0  0  0  0  0  0
    3.5138    6.7797    0.0000 C   0  0  0  0  0  0  0  0  0  0  0  0
    4.8129    6.0297    0.0000 N   0  0  0  0  0  0  0  0  0  0  0  0
    5.5628    4.7307    0.0000 C   0  0  0  0  0  0  0  0  0  0  0  0
    5.1748    3.2818    0.0000 O   0  0  0  0  0  0  0  0  0  0  0  0
    2.2149    6.0297    0.0000 C   0  0  0  0  0  0  0  0  0  0  0  0
    0.9158    6.7797    0.0000 O   0  0  0  0  0  0  0  0  0  0  0  0
    2.2149    4.5297    0.0000 O   0  0  0  0  0  0  0  0  0  0  0  0
    0.9158    3.7797    0.0000 C   0  0  0  0  0  0  0  0  0  0  0  0
   -0.3834    4.5297    0.0000 C   0  0  0  0  0  0  0  0  0  0  0  0
    0.9158    2.2797    0.0000 O   0  0  0  0  0  0  0  0  0  0  0  0
   -0.3834    1.5297    0.0000 C   0  0  0  0  0  0  0  0  0  0  0  0
   -0.3834    0.0297    0.0000 O   0  0  0  0  0  0  0  0  0  0  0  0
   -1.6823    2.2797    0.0000 C   0  0  0  0  0  0  0  0  0  0  0  0
    2.2149    9.0297    0.0000 C   0  0  0  0  0  0  0  0  0  0  0  0
    2.2149   10.5297    0.0000 O   0  0  0  0  0  0  0  0  0  0  0  0
    0.9158   11.2797    0.0000 C   0  0  0  0  0  0  0  0  0  0  0  0
    0.9158   12.7797    0.0000 O   0  0  0  0  0  0  0  0  0  0  0  0
   -0.3834   10.5297    0.0000 N   0  0  0  0  0  0  0  0  0  0  0  0
   11.8810    6.8254    0.0000 C   0  0  0  0  0  0  0  0  0  0  0  0
   11.6463    8.3069    0.0000 O   0  0  0  0  0  0  0  0  0  0  0  0
   12.9829    8.9881    0.0000 C   0  0  0  0  0  0  0  0  0  0  0  0
   14.0435    7.9274    0.0000 C   0  0  0  0  0  0  0  0  0  0  0  0
   13.3625    6.5910    0.0000 C   0  0  0  0  0  0  0  0  0  0  0  0
  1  2  1  0  0  0  0
  2  3  1  0  0  0  0
  3  4  2  0  0  0  0
  4  5  1  0  0  0  0
  4 31  1  0  0  0  0
  5  6  2  0  0  0  0
  5  7  1  0  0  0  0
  7  8  1  0  0  0  0
  9  8  1  0  0  0  0
  8 15  1  0  0  0  0
 10  9  1  0  0  0  0
  9 14  1  0  0  0  0
 11 10  1  0  0  0  0
 12 11  1  0  0  0  0
 13 12  2  0  0  0  0
 12 26  1  0  0  0  0
 14 13  1  0  0  0  0
 13 17  1  0  0  0  0
 15 14  1  0  0  0  0
 15 16  2  0  0  0  0
 17 18  2  0  0  0  0
 17 19  1  0  0  0  0
 19 20  1  0  0  0  0
 20 21  1  0  0  0  0
 20 22  1  0  0  0  0
 22 23  1  0  0  0  0
 23 24  2  0  0  0  0
 23 25  1  0  0  0  0
 26 27  1  0  0  0  0
 27 28  1  0  0  0  0
 28 29  2  0  0  0  0
 28 30  1  0  0  0  0
 32 31  1  0  0  0  0
 31 35  2  0  0  0  0
 33 32  1  0  0  0  0
 34 33  2  0  0  0  0
 35 34  1  0  0  0  0
M  END
> <Inchi_key>
KEJCWVGMRLCZQQ-YDZHTSKRSA-N

> <Source>
Mulliner

> <ID>
HT0428

> <H_MFHB>
1

> <CAS>


> <Cholestasis>


> <Name>
cefuroxime axetil

> <Class>
1

$$$$