

  -INDIGO-08031710012D

 22 24  0  0  0  0  0  0  0  0999 V2000
    1.7100    1.9402    0.0000 C   0  0  0  0  0  0  0  0  0  0  0  0
    1.8984    0.4521    0.0000 C   0  0  0  0  0  0  0  0  0  0  0  0
    3.2814   -0.1288    0.0000 O   0  0  0  0  0  0  0  0  0  0  0  0
    3.4698   -1.6170    0.0000 C   0  0  0  0  0  0  0  0  0  0  0  0
    4.8528   -2.1979    0.0000 C   0  0  0  0  0  0  0  0  0  0  0  0
    5.0412   -3.6858    0.0000 N   0  0  0  0  0  0  0  0  0  0  0  0
    6.3559   -4.4081    0.0000 C   0  0  0  0  0  0  0  0  0  0  0  0
    6.0753   -5.8817    0.0000 N   0  0  0  0  0  0  0  0  0  0  0  0
    4.5871   -6.0701    0.0000 C   0  0  0  0  0  0  0  0  0  0  0  0
    3.7314   -7.3021    0.0000 C   0  0  0  0  0  0  0  0  0  0  0  0
    2.2368   -7.1770    0.0000 C   0  0  0  0  0  0  0  0  0  0  0  0
    1.5976   -5.8200    0.0000 C   0  0  0  0  0  0  0  0  0  0  0  0
    2.4533   -4.5880    0.0000 C   0  0  0  0  0  0  0  0  0  0  0  0
    3.9481   -4.7131    0.0000 C   0  0  0  0  0  0  0  0  0  0  0  0
    7.7130   -3.7691    0.0000 N   0  0  0  0  0  0  0  0  0  0  0  0
    7.7256   -2.2691    0.0000 C   0  0  0  0  0  0  0  0  0  0  0  0
    8.9074   -1.3453    0.0000 C   0  0  0  0  0  0  0  0  0  0  0  0
   10.3666   -1.6924    0.0000 C   0  0  0  0  0  0  0  0  0  0  0  0
   11.0058   -3.0495    0.0000 N   0  0  0  0  0  0  0  0  0  0  0  0
   12.5056   -3.0633    0.0000 C   0  0  0  0  0  0  0  0  0  0  0  0
   10.3428   -4.3947    0.0000 C   0  0  0  0  0  0  0  0  0  0  0  0
    8.8773   -4.7147    0.0000 C   0  0  0  0  0  0  0  0  0  0  0  0
  1  2  1  0  0  0  0
  2  3  1  0  0  0  0
  3  4  1  0  0  0  0
  4  5  1  0  0  0  0
  5  6  1  0  0  0  0
  7  6  1  0  0  0  0
  6 14  1  0  0  0  0
  8  7  2  0  0  0  0
  7 15  1  0  0  0  0
  9  8  1  0  0  0  0
 10  9  1  0  0  0  0
  9 14  2  0  0  0  0
 11 10  2  0  0  0  0
 12 11  1  0  0  0  0
 13 12  2  0  0  0  0
 14 13  1  0  0  0  0
 16 15  1  0  0  0  0
 15 22  1  0  0  0  0
 17 16  1  0  0  0  0
 18 17  1  0  0  0  0
 19 18  1  0  0  0  0
 19 20  1  0  0  0  0
 21 19  1  0  0  0  0
 22 21  1  0  0  0  0
M  END
> <Inchi_key>
KBUZBQVCBVDWKX-UHFFFAOYSA-N

> <Source>
Mulliner

> <ID>
HT0750

> <H_MFHB>
1

> <CAS>
87233-62-3

> <Cholestasis>


> <Name>
emedastine difumarate;emedastine

> <Class>
1


$$$$