

  -INDIGO-08031710012D

 21 22  0  0  0  0  0  0  0  0999 V2000
    0.1416    3.7530    0.0000 C   0  0  0  0  0  0  0  0  0  0  0  0
    1.4407    3.0030    0.0000 C   0  0  0  0  0  0  0  0  0  0  0  0
    1.4407    1.5030    0.0000 C   0  0  0  0  0  0  0  0  0  0  0  0
    2.7397    0.7530    0.0000 C   0  0  0  0  0  0  0  0  0  0  0  0
    4.0386    1.5030    0.0000 C   0  0  0  0  0  0  0  0  0  0  0  0
    4.0386    3.0030    0.0000 C   0  0  0  0  0  0  0  0  0  0  0  0
    2.7397    3.7530    0.0000 C   0  0  0  0  0  0  0  0  0  0  0  0
    5.3378    0.7530    0.0000 S   0  0  0  0  0  0  0  0  0  0  0  0
    6.0879    2.0520    0.0000 O   0  0  0  0  0  0  0  0  0  0  0  0
    4.5879   -0.5460    0.0000 O   0  0  0  0  0  0  0  0  0  0  0  0
    6.6367    0.0030    0.0000 N   0  0  0  0  0  0  0  0  0  0  0  0
    7.9358    0.7530    0.0000 C   0  0  0  0  0  0  0  0  0  0  0  0
    7.9358    2.2530    0.0000 O   0  0  0  0  0  0  0  0  0  0  0  0
    9.2350    0.0030    0.0000 N   0  0  0  0  0  0  0  0  0  0  0  0
   10.5339    0.7530    0.0000 N   0  0  0  0  0  0  0  0  0  0  0  0
   10.4215    2.2488    0.0000 C   0  0  0  0  0  0  0  0  0  0  0  0
   11.5221    3.2679    0.0000 C   0  0  0  0  0  0  0  0  0  0  0  0
   13.0053    3.0436    0.0000 C   0  0  0  0  0  0  0  0  0  0  0  0
   13.7552    1.7446    0.0000 C   0  0  0  0  0  0  0  0  0  0  0  0
   13.2068    0.3488    0.0000 C   0  0  0  0  0  0  0  0  0  0  0  0
   11.7730   -0.0923    0.0000 C   0  0  0  0  0  0  0  0  0  0  0  0
  1  2  1  0  0  0  0
  3  2  2  0  0  0  0
  2  7  1  0  0  0  0
  4  3  1  0  0  0  0
  5  4  2  0  0  0  0
  6  5  1  0  0  0  0
  5  8  1  0  0  0  0
  7  6  2  0  0  0  0
  8  9  2  0  0  0  0
  8 10  1  0  0  0  0
  8 11  2  0  0  0  0
 11 12  1  0  0  0  0
 12 13  2  0  0  0  0
 12 14  1  0  0  0  0
 14 15  1  0  0  0  0
 16 15  1  0  0  0  0
 15 21  1  0  0  0  0
 17 16  1  0  0  0  0
 18 17  1  0  0  0  0
 19 18  1  0  0  0  0
 20 19  1  0  0  0  0
 21 20  1  0  0  0  0
M  END
> <Inchi_key>
KLQFFJMPAODKKW-UHFFFAOYSA-N

> <Source>
Mulliner

> <ID>
HT2079

> <H_MFHB>
1

> <CAS>


> <Cholestasis>


> <Name>
tolazamide

> <Class>
1


$$$$