
  -INDIGO-08031710012D

 29 32  0  0  0  0  0  0  0  0999 V2000
   21.7980   -1.9845    0.0000 Cl  0  0  0  0  0  0  0  0  0  0  0  0
   20.3225   -1.7136    0.0000 C   0  0  0  0  0  0  0  0  0  0  0  0
   19.6746   -0.3608    0.0000 C   0  0  0  0  0  0  0  0  0  0  0  0
   18.1879   -0.5591    0.0000 C   0  0  0  0  0  0  0  0  0  0  0  0
   17.9170   -2.0344    0.0000 C   0  0  0  0  0  0  0  0  0  0  0  0
   19.2363   -2.7479    0.0000 S   0  0  0  0  0  0  0  0  0  0  0  0
   16.5641   -2.6825    0.0000 C   0  0  0  0  0  0  0  0  0  0  0  0
   16.4490   -4.1780    0.0000 O   0  0  0  0  0  0  0  0  0  0  0  0
   15.3266   -1.8349    0.0000 N   0  0  0  0  0  0  0  0  0  0  0  0
   13.9737   -2.4830    0.0000 C   0  0  0  0  0  0  0  0  0  0  0  0
   12.7363   -1.6355    0.0000 C   0  0  0  0  0  0  0  0  0  0  0  0
   11.3230   -2.1386    0.0000 C   0  0  0  0  0  0  0  0  0  0  0  0
   10.4078   -0.9501    0.0000 N   0  0  0  0  0  0  0  0  0  0  0  0
   11.2555    0.2876    0.0000 C   0  0  0  0  0  0  0  0  0  0  0  0
   10.7522    1.7007    0.0000 O   0  0  0  0  0  0  0  0  0  0  0  0
   12.6943   -0.1360    0.0000 O   0  0  0  0  0  0  0  0  0  0  0  0
    8.9084   -0.9919    0.0000 C   0  0  0  0  0  0  0  0  0  0  0  0
    8.1226    0.2858    0.0000 C   0  0  0  0  0  0  0  0  0  0  0  0
    6.6232    0.2440    0.0000 C   0  0  0  0  0  0  0  0  0  0  0  0
    5.9096   -1.0754    0.0000 C   0  0  0  0  0  0  0  0  0  0  0  0
    6.6954   -2.3531    0.0000 C   0  0  0  0  0  0  0  0  0  0  0  0
    8.1948   -2.3113    0.0000 C   0  0  0  0  0  0  0  0  0  0  0  0
    4.4102   -1.1172    0.0000 N   0  0  0  0  0  0  0  0  0  0  0  0
    3.6244    0.1604    0.0000 C   0  0  0  0  0  0  0  0  0  0  0  0
    2.1250    0.1186    0.0000 C   0  0  0  0  0  0  0  0  0  0  0  0
    1.4114   -1.2008    0.0000 O   0  0  0  0  0  0  0  0  0  0  0  0
    2.1972   -2.4784    0.0000 C   0  0  0  0  0  0  0  0  0  0  0  0
    3.6966   -2.4367    0.0000 C   0  0  0  0  0  0  0  0  0  0  0  0
    4.4827   -3.7143    0.0000 O   0  0  0  0  0  0  0  0  0  0  0  0
  1  2  1  0  0  0  0
  3  2  2  0  0  0  0
  2  6  1  0  0  0  0
  4  3  1  0  0  0  0
  5  4  2  0  0  0  0
  6  5  1  0  0  0  0
  5  7  1  0  0  0  0
  7  8  2  0  0  0  0
  7  9  1  0  0  0  0
  9 10  1  0  0  0  0
 10 11  1  0  0  0  0
 12 11  1  0  0  0  0
 11 16  1  0  0  0  0
 13 12  1  0  0  0  0
 14 13  1  0  0  0  0
 13 17  1  0  0  0  0
 14 15  2  0  0  0  0
 16 14  1  0  0  0  0
 18 17  2  0  0  0  0
 17 22  1  0  0  0  0
 19 18  1  0  0  0  0
 20 19  2  0  0  0  0
 21 20  1  0  0  0  0
 20 23  1  0  0  0  0
 22 21  2  0  0  0  0
 24 23  1  0  0  0  0
 23 28  1  0  0  0  0
 25 24  1  0  0  0  0
 26 25  1  0  0  0  0
 27 26  1  0  0  0  0
 28 27  1  0  0  0  0
 28 29  2  0  0  0  0
M  END
> <Inchi_key>
KGFYHTZWPPHNLQ-UHFFFAOYSA-N

> <Source>
Mulliner , Kotsampasakou

> <ID>
EK0473;HT1834

> <H_MFHB>
1

> <CAS>


> <Cholestasis>
1

> <Name>
rivaroxaban

> <Class>
1

$$$$