

  -INDIGO-08031710012D

 22 24  0  0  0  0  0  0  0  0999 V2000
   10.8452    0.9684    0.0000 C   0  0  0  0  0  0  0  0  0  0  0  0
    9.5347    1.6981    0.0000 C   0  0  0  0  0  0  0  0  0  0  0  0
   10.7871    2.5236    0.0000 C   0  0  0  0  0  0  0  0  0  0  0  0
    8.6773    0.4673    0.0000 O   0  0  0  0  0  0  0  0  0  0  0  0
    7.2419    0.9024    0.0000 C   0  0  0  0  0  0  0  0  0  0  0  0
    5.9579    0.1267    0.0000 C   0  0  0  0  0  0  0  0  0  0  0  0
    4.6441    0.8507    0.0000 O   0  0  0  0  0  0  0  0  0  0  0  0
    4.6144    2.3505    0.0000 C   0  0  0  0  0  0  0  0  0  0  0  0
    3.2795    1.6662    0.0000 C   0  0  0  0  0  0  0  0  0  0  0  0
    3.2046    0.1681    0.0000 O   0  0  0  0  0  0  0  0  0  0  0  0
    1.8697   -0.5162    0.0000 S   0  0  0  0  0  0  0  0  0  0  0  0
    2.5539   -1.8510    0.0000 O   0  0  0  0  0  0  0  0  0  0  0  0
    1.1855    0.8187    0.0000 O   0  0  0  0  0  0  0  0  0  0  0  0
    0.5350   -1.2004    0.0000 N   0  0  0  0  0  0  0  0  0  0  0  0
    3.4799    3.3318    0.0000 O   0  0  0  0  0  0  0  0  0  0  0  0
    4.0627    4.7141    0.0000 C   0  0  0  0  0  0  0  0  0  0  0  0
    2.7216    5.3858    0.0000 C   0  0  0  0  0  0  0  0  0  0  0  0
    4.0394    6.2138    0.0000 C   0  0  0  0  0  0  0  0  0  0  0  0
    5.5572    4.5869    0.0000 O   0  0  0  0  0  0  0  0  0  0  0  0
    5.8983    3.1261    0.0000 C   0  0  0  0  0  0  0  0  0  0  0  0
    7.2120    2.4021    0.0000 C   0  0  0  0  0  0  0  0  0  0  0  0
    8.6290    2.8939    0.0000 O   0  0  0  0  0  0  0  0  0  0  0  0
  1  2  1  0  0  0  0
  2  3  1  0  0  0  0
  4  2  1  0  0  0  0
  2 22  1  0  0  0  0
  5  4  1  0  0  0  0
  6  5  1  0  0  0  0
  5 21  1  0  0  0  0
  7  6  1  0  0  0  0
  8  7  1  0  0  0  0
  8  9  1  0  0  0  0
 15  8  1  0  0  0  0
  8 20  1  0  0  0  0
  9 10  1  0  0  0  0
 10 11  1  0  0  0  0
 11 12  2  0  0  0  0
 11 13  2  0  0  0  0
 11 14  1  0  0  0  0
 16 15  1  0  0  0  0
 16 17  1  0  0  0  0
 16 18  1  0  0  0  0
 19 16  1  0  0  0  0
 20 19  1  0  0  0  0
 21 20  1  0  0  0  0
 22 21  1  0  0  0  0
M  END
> <Inchi_key>
KJADKKWYZYXHBB-UHFFFAOYSA-N

> <Source>
Mulliner

> <ID>
HT2090

> <H_MFHB>
1

> <CAS>


> <Cholestasis>


> <Name>
topiramate

> <Class>
1


$$$$