

  -INDIGO-08031710012D

 27 28  0  0  0  0  0  0  0  0999 V2000
   14.2648    9.1528    0.0000 C   0  0  0  0  0  0  0  0  0  0  0  0
   13.6398    7.7893    0.0000 C   0  0  0  0  0  0  0  0  0  0  0  0
   12.1462    7.6490    0.0000 C   0  0  0  0  0  0  0  0  0  0  0  0
   11.5212    6.2853    0.0000 C   0  0  0  0  0  0  0  0  0  0  0  0
   10.0507    5.9896    0.0000 C   0  0  0  0  0  0  0  0  0  0  0  0
    9.8776    4.4996    0.0000 C   0  0  0  0  0  0  0  0  0  0  0  0
   11.2410    3.8745    0.0000 N   0  0  0  0  0  0  0  0  0  0  0  0
   11.5369    2.4039    0.0000 C   0  0  0  0  0  0  0  0  0  0  0  0
   12.2569    4.9781    0.0000 C   0  0  0  0  0  0  0  0  0  0  0  0
    8.5703    3.7639    0.0000 C   0  0  0  0  0  0  0  0  0  0  0  0
    8.5538    2.2640    0.0000 O   0  0  0  0  0  0  0  0  0  0  0  0
    7.2797    4.5281    0.0000 N   0  0  0  0  0  0  0  0  0  0  0  0
    5.9724    3.7924    0.0000 C   0  0  0  0  0  0  0  0  0  0  0  0
    5.9559    2.2926    0.0000 C   0  0  0  0  0  0  0  0  0  0  0  0
    7.2467    1.5283    0.0000 C   0  0  0  0  0  0  0  0  0  0  0  0
    4.6486    1.5568    0.0000 Cl  0  0  0  0  0  0  0  0  0  0  0  0
    4.6818    4.5566    0.0000 C   0  0  0  0  0  0  0  0  0  0  0  0
    3.3745    3.8209    0.0000 O   0  0  0  0  0  0  0  0  0  0  0  0
    2.0837    4.5851    0.0000 C   0  0  0  0  0  0  0  0  0  0  0  0
    0.7766    3.8494    0.0000 S   0  0  0  0  0  0  0  0  0  0  0  0
    0.7601    2.3494    0.0000 C   0  0  0  0  0  0  0  0  0  0  0  0
    2.1002    6.0850    0.0000 C   0  0  0  0  0  0  0  0  0  0  0  0
    0.8096    6.8492    0.0000 O   0  0  0  0  0  0  0  0  0  0  0  0
    3.4075    6.8207    0.0000 C   0  0  0  0  0  0  0  0  0  0  0  0
    3.4237    8.3206    0.0000 O   0  0  0  0  0  0  0  0  0  0  0  0
    4.6981    6.0565    0.0000 C   0  0  0  0  0  0  0  0  0  0  0  0
    6.0054    6.7922    0.0000 O   0  0  0  0  0  0  0  0  0  0  0  0
  1  2  1  0  0  0  0
  2  3  1  0  0  0  0
  3  4  1  0  0  0  0
  5  4  1  0  0  0  0
  4  9  1  0  0  0  0
  6  5  1  0  0  0  0
  7  6  1  0  0  0  0
  6 10  1  0  0  0  0
  7  8  1  0  0  0  0
  9  7  1  0  0  0  0
 10 11  2  0  0  0  0
 10 12  1  0  0  0  0
 12 13  1  0  0  0  0
 13 14  1  0  0  0  0
 13 17  1  0  0  0  0
 14 15  1  0  0  0  0
 14 16  1  0  0  0  0
 18 17  1  0  0  0  0
 17 26  1  0  0  0  0
 19 18  1  0  0  0  0
 19 20  1  0  0  0  0
 22 19  1  0  0  0  0
 20 21  1  0  0  0  0
 22 23  1  0  0  0  0
 24 22  1  0  0  0  0
 24 25  1  0  0  0  0
 26 24  1  0  0  0  0
 26 27  1  0  0  0  0
M  END
> <Inchi_key>
KDLRVYVGXIQJDK-UHFFFAOYSA-N

> <Source>
Mulliner , Kotsampasakou

> <ID>
EK0129;HT0512

> <H_MFHB>
1

> <CAS>
17431-55-9

> <Cholestasis>
1

> <Name>
clindamycin;clindamycin hydrochloride

> <Class>
1


$$$$