

  -INDIGO-08031710012D

 24 28  0  0  0  0  0  0  0  0999 V2000
   -2.3249    3.1774    0.0000 C   0  0  0  0  0  0  0  0  0  0  0  0
   -1.8709    4.6071    0.0000 C   0  0  0  0  0  0  0  0  0  0  0  0
   -3.3487    4.3496    0.0000 O   0  0  0  0  0  0  0  0  0  0  0  0
   -2.0312    6.0985    0.0000 C   0  0  0  0  0  0  0  0  0  0  0  0
   -0.6624    6.7118    0.0000 C   0  0  0  0  0  0  0  0  0  0  0  0
    0.3439    5.5995    0.0000 C   0  0  0  0  0  0  0  0  0  0  0  0
    1.8440    5.6030    0.0000 C   0  0  0  0  0  0  0  0  0  0  0  0
    2.5909    6.9038    0.0000 C   0  0  0  0  0  0  0  0  0  0  0  0
    4.0907    6.9074    0.0000 C   0  0  0  0  0  0  0  0  0  0  0  0
    4.8439    5.6101    0.0000 C   0  0  0  0  0  0  0  0  0  0  0  0
    6.3440    5.6136    0.0000 C   0  0  0  0  0  0  0  0  0  0  0  0
    7.0969    4.3164    0.0000 C   0  0  0  0  0  0  0  0  0  0  0  0
    8.5649    4.0080    0.0000 N   0  0  0  0  0  0  0  0  0  0  0  0
    8.7252    2.5166    0.0000 N   0  0  0  0  0  0  0  0  0  0  0  0
    7.3563    1.9032    0.0000 C   0  0  0  0  0  0  0  0  0  0  0  0
    6.3500    3.0156    0.0000 C   0  0  0  0  0  0  0  0  0  0  0  0
    4.8500    3.0120    0.0000 C   0  0  0  0  0  0  0  0  0  0  0  0
    4.0970    4.3093    0.0000 C   0  0  0  0  0  0  0  0  0  0  0  0
    3.3730    2.9957    0.0000 C   0  0  0  0  0  0  0  0  0  0  0  0
    2.5970    4.3058    0.0000 C   0  0  0  0  0  0  0  0  0  0  0  0
    1.8501    3.0049    0.0000 C   0  0  0  0  0  0  0  0  0  0  0  0
    0.3500    3.0014    0.0000 C   0  0  0  0  0  0  0  0  0  0  0  0
   -0.4030    4.2987    0.0000 C   0  0  0  0  0  0  0  0  0  0  0  0
   -1.2388    3.0531    0.0000 C   0  0  0  0  0  0  0  0  0  0  0  0
  1  2  1  0  0  0  0
  2  3  1  0  0  0  0
  4  2  1  0  0  0  0
  2 23  1  0  0  0  0
  5  4  1  0  0  0  0
  6  5  1  0  0  0  0
  7  6  1  0  0  0  0
  6 23  1  0  0  0  0
  8  7  1  0  0  0  0
  7 20  1  0  0  0  0
  9  8  1  0  0  0  0
 10  9  1  0  0  0  0
 11 10  1  0  0  0  0
 10 18  1  0  0  0  0
 12 11  1  0  0  0  0
 13 12  1  0  0  0  0
 12 16  2  0  0  0  0
 14 13  1  0  0  0  0
 15 14  2  0  0  0  0
 16 15  1  0  0  0  0
 17 16  1  0  0  0  0
 18 17  1  0  0  0  0
 18 19  1  0  0  0  0
 20 18  1  0  0  0  0
 21 20  1  0  0  0  0
 22 21  1  0  0  0  0
 23 22  1  0  0  0  0
 23 24  1  0  0  0  0
M  END
> <Inchi_key>
LKAJKIOFIWVMDJ-UHFFFAOYSA-N

> <Source>
Mulliner

> <ID>
HT1914

> <H_MFHB>
1

> <CAS>
10418-03-8

> <Cholestasis>


> <Name>
stanozolol

> <Class>
1


$$$$