

  -INDIGO-08031710012D

 37 41  0  0  0  0  0  0  0  0999 V2000
   23.4546    6.2847    0.0000 C   0  0  0  0  0  0  0  0  0  0  0  0
   22.1556    5.5345    0.0000 N   0  0  0  0  0  0  0  0  0  0  0  0
   20.8565    6.2847    0.0000 C   0  0  0  0  0  0  0  0  0  0  0  0
   19.5575    5.5345    0.0000 C   0  0  0  0  0  0  0  0  0  0  0  0
   19.5575    4.0346    0.0000 N   0  0  0  0  0  0  0  0  0  0  0  0
   18.2584    3.2846    0.0000 C   0  0  0  0  0  0  0  0  0  0  0  0
   16.9594    4.0346    0.0000 C   0  0  0  0  0  0  0  0  0  0  0  0
   15.6604    3.2846    0.0000 C   0  0  0  0  0  0  0  0  0  0  0  0
   14.3613    4.0346    0.0000 C   0  0  0  0  0  0  0  0  0  0  0  0
   14.3613    5.5345    0.0000 C   0  0  0  0  0  0  0  0  0  0  0  0
   15.6604    6.2847    0.0000 C   0  0  0  0  0  0  0  0  0  0  0  0
   16.9594    5.5345    0.0000 C   0  0  0  0  0  0  0  0  0  0  0  0
   13.0623    6.2847    0.0000 C   0  0  0  0  0  0  0  0  0  0  0  0
   13.0623    7.7846    0.0000 O   0  0  0  0  0  0  0  0  0  0  0  0
   11.7632    5.5345    0.0000 N   0  0  0  0  0  0  0  0  0  0  0  0
   10.4642    6.2847    0.0000 C   0  0  0  0  0  0  0  0  0  0  0  0
   10.4642    7.7846    0.0000 C   0  0  0  0  0  0  0  0  0  0  0  0
    9.1651    8.5346    0.0000 C   0  0  0  0  0  0  0  0  0  0  0  0
    7.8661    7.7846    0.0000 C   0  0  0  0  0  0  0  0  0  0  0  0
    6.5671    8.5346    0.0000 C   0  0  0  0  0  0  0  0  0  0  0  0
    7.8661    6.2847    0.0000 C   0  0  0  0  0  0  0  0  0  0  0  0
    6.5671    5.5345    0.0000 N   0  0  0  0  0  0  0  0  0  0  0  0
    6.5671    4.0346    0.0000 C   0  0  0  0  0  0  0  0  0  0  0  0
    7.8661    3.2846    0.0000 N   0  0  0  0  0  0  0  0  0  0  0  0
    7.8661    1.7847    0.0000 C   0  0  0  0  0  0  0  0  0  0  0  0
    6.5671    1.0345    0.0000 C   0  0  0  0  0  0  0  0  0  0  0  0
    5.2680    1.7847    0.0000 C   0  0  0  0  0  0  0  0  0  0  0  0
    5.2680    3.2846    0.0000 N   0  0  0  0  0  0  0  0  0  0  0  0
    3.9690    1.0345    0.0000 C   0  0  0  0  0  0  0  0  0  0  0  0
    2.6699    1.7847    0.0000 C   0  0  0  0  0  0  0  0  0  0  0  0
    1.3709    1.0345    0.0000 C   0  0  0  0  0  0  0  0  0  0  0  0
    1.3709   -0.4654    0.0000 C   0  0  0  0  0  0  0  0  0  0  0  0
    2.6699   -1.2154    0.0000 N   0  0  0  0  0  0  0  0  0  0  0  0
    3.9690   -0.4654    0.0000 C   0  0  0  0  0  0  0  0  0  0  0  0
    9.1651    5.5345    0.0000 C   0  0  0  0  0  0  0  0  0  0  0  0
   20.8565    3.2846    0.0000 C   0  0  0  0  0  0  0  0  0  0  0  0
   22.1556    4.0346    0.0000 C   0  0  0  0  0  0  0  0  0  0  0  0
  1  2  1  0  0  0  0
  3  2  1  0  0  0  0
  2 37  1  0  0  0  0
  4  3  1  0  0  0  0
  5  4  1  0  0  0  0
  5  6  1  0  0  0  0
 36  5  1  0  0  0  0
  6  7  1  0  0  0  0
  8  7  2  0  0  0  0
  7 12  1  0  0  0  0
  9  8  1  0  0  0  0
 10  9  2  0  0  0  0
 11 10  1  0  0  0  0
 10 13  1  0  0  0  0
 12 11  2  0  0  0  0
 13 14  2  0  0  0  0
 13 15  1  0  0  0  0
 15 16  1  0  0  0  0
 17 16  2  0  0  0  0
 16 35  1  0  0  0  0
 18 17  1  0  0  0  0
 19 18  2  0  0  0  0
 19 20  1  0  0  0  0
 21 19  1  0  0  0  0
 21 22  1  0  0  0  0
 35 21  2  0  0  0  0
 22 23  1  0  0  0  0
 24 23  2  0  0  0  0
 23 28  1  0  0  0  0
 25 24  1  0  0  0  0
 26 25  2  0  0  0  0
 27 26  1  0  0  0  0
 28 27  2  0  0  0  0
 27 29  1  0  0  0  0
 30 29  2  0  0  0  0
 29 34  1  0  0  0  0
 31 30  1  0  0  0  0
 32 31  2  0  0  0  0
 33 32  1  0  0  0  0
 34 33  2  0  0  0  0
 37 36  1  0  0  0  0
M  END
> <Inchi_key>
KTUFNOKKBVMGRW-UHFFFAOYSA-N

> <Source>
Mulliner

> <ID>
HT0984

> <H_MFHB>
1

> <CAS>
220127-57-1

> <Cholestasis>


> <Name>
gleevec;imatinib mesylate;imatinib

> <Class>
1


$$$$