

  -INDIGO-08031710012D

 22 25  0  0  0  0  0  0  0  0999 V2000
   11.8893   -3.2151    0.0000 C   0  0  0  0  0  0  0  0  0  0  0  0
   10.5539   -2.5318    0.0000 N   0  0  0  0  0  0  0  0  0  0  0  0
    9.2946   -3.3467    0.0000 C   0  0  0  0  0  0  0  0  0  0  0  0
    7.9592   -2.6635    0.0000 C   0  0  0  0  0  0  0  0  0  0  0  0
    7.8832   -1.1654    0.0000 N   0  0  0  0  0  0  0  0  0  0  0  0
    9.1425   -0.3505    0.0000 C   0  0  0  0  0  0  0  0  0  0  0  0
   10.4779   -1.0338    0.0000 C   0  0  0  0  0  0  0  0  0  0  0  0
    6.5478   -0.4822    0.0000 C   0  0  0  0  0  0  0  0  0  0  0  0
    5.3523   -1.3880    0.0000 N   0  0  0  0  0  0  0  0  0  0  0  0
    3.8985   -1.0189    0.0000 C   0  0  0  0  0  0  0  0  0  0  0  0
    3.0243   -2.2380    0.0000 C   0  0  0  0  0  0  0  0  0  0  0  0
    1.5315   -2.0903    0.0000 C   0  0  0  0  0  0  0  0  0  0  0  0
    0.9130   -0.7239    0.0000 C   0  0  0  0  0  0  0  0  0  0  0  0
    1.7871    0.4950    0.0000 C   0  0  0  0  0  0  0  0  0  0  0  0
    3.2798    0.3475    0.0000 C   0  0  0  0  0  0  0  0  0  0  0  0
    3.9619    1.6835    0.0000 N   0  0  0  0  0  0  0  0  0  0  0  0
    5.4330    1.9805    0.0000 C   0  0  0  0  0  0  0  0  0  0  0  0
    5.9936    3.3719    0.0000 S   0  0  0  0  0  0  0  0  0  0  0  0
    7.4901    3.2686    0.0000 C   0  0  0  0  0  0  0  0  0  0  0  0
    8.4531    4.4186    0.0000 C   0  0  0  0  0  0  0  0  0  0  0  0
    7.8544    1.8135    0.0000 C   0  0  0  0  0  0  0  0  0  0  0  0
    6.5830    1.0174    0.0000 C   0  0  0  0  0  0  0  0  0  0  0  0
  1  2  1  0  0  0  0
  3  2  1  0  0  0  0
  2  7  1  0  0  0  0
  4  3  1  0  0  0  0
  5  4  1  0  0  0  0
  6  5  1  0  0  0  0
  5  8  1  0  0  0  0
  7  6  1  0  0  0  0
  9  8  2  0  0  0  0
  8 22  1  0  0  0  0
 10  9  1  0  0  0  0
 11 10  1  0  0  0  0
 10 15  2  0  0  0  0
 12 11  2  0  0  0  0
 13 12  1  0  0  0  0
 14 13  2  0  0  0  0
 15 14  1  0  0  0  0
 16 15  1  0  0  0  0
 17 16  1  0  0  0  0
 18 17  1  0  0  0  0
 17 22  2  0  0  0  0
 19 18  1  0  0  0  0
 19 20  1  0  0  0  0
 21 19  2  0  0  0  0
 22 21  1  0  0  0  0
M  END
> <Inchi_key>
KVWDHTXUZHCGIO-UHFFFAOYSA-N

> <Source>
Mulliner

> <ID>
HT1535

> <H_MFHB>
1

> <CAS>
132539-06-1

> <Cholestasis>


> <Name>
olanzapine

> <Class>
1


$$$$