
  -INDIGO-08031710012D

 11 11  0  0  0  0  0  0  0  0999 V2000
    6.9020   -1.8494    0.0000 N   0  0  0  0  0  0  0  0  0  0  0  0
    5.6030   -1.0994    0.0000 C   0  0  0  0  0  0  0  0  0  0  0  0
    5.6030    0.4006    0.0000 C   0  0  0  0  0  0  0  0  0  0  0  0
    4.3039    1.1506    0.0000 C   0  0  0  0  0  0  0  0  0  0  0  0
    3.0049    0.4006    0.0000 C   0  0  0  0  0  0  0  0  0  0  0  0
    1.7059    1.1506    0.0000 O   0  0  0  0  0  0  0  0  0  0  0  0
    3.0049   -1.0994    0.0000 C   0  0  0  0  0  0  0  0  0  0  0  0
    4.3039   -1.8494    0.0000 C   0  0  0  0  0  0  0  0  0  0  0  0
    1.7059   -1.8494    0.0000 C   0  0  0  0  0  0  0  0  0  0  0  0
    1.7059   -3.3494    0.0000 O   0  0  0  0  0  0  0  0  0  0  0  0
    0.4068   -1.0994    0.0000 O   0  0  0  0  0  0  0  0  0  0  0  0
  1  2  1  0  0  0  0
  3  2  2  0  0  0  0
  2  8  1  0  0  0  0
  4  3  1  0  0  0  0
  5  4  2  0  0  0  0
  5  6  1  0  0  0  0
  7  5  1  0  0  0  0
  8  7  2  0  0  0  0
  7  9  1  0  0  0  0
  9 10  2  0  0  0  0
  9 11  1  0  0  0  0
M  END
> <Inchi_key>
KBOPZPXVLCULAV-UHFFFAOYSA-N

> <Source>
Mulliner

> <ID>
HT1317

> <H_MFHB>
1

> <CAS>
89-57-6

> <Cholestasis>


> <Name>
mesalamine

> <Class>
1

$$$$