
  -INDIGO-08031710012D

 32 36  0  0  0  0  0  0  0  0999 V2000
    1.8620   -2.4537    0.0000 O   0  0  0  0  0  0  0  0  0  0  0  0
    2.9765   -3.4575    0.0000 C   0  0  0  0  0  0  0  0  0  0  0  0
    4.4438   -3.1455    0.0000 N   0  0  0  0  0  0  0  0  0  0  0  0
    2.8197   -4.9493    0.0000 N   0  0  0  0  0  0  0  0  0  0  0  0
    4.1902   -5.5593    0.0000 C   0  0  0  0  0  0  0  0  0  0  0  0
    1.5208   -5.6992    0.0000 C   0  0  0  0  0  0  0  0  0  0  0  0
    5.1939   -4.4446    0.0000 C   0  0  0  0  0  0  0  0  0  0  0  0
    4.6536   -6.9858    0.0000 C   0  0  0  0  0  0  0  0  0  0  0  0
    0.2218   -4.9493    0.0000 C   0  0  0  0  0  0  0  0  0  0  0  0
    6.6609   -4.7566    0.0000 C   0  0  0  0  0  0  0  0  0  0  0  0
    6.1210   -7.2978    0.0000 C   0  0  0  0  0  0  0  0  0  0  0  0
   -1.0774   -5.6992    0.0000 C   0  0  0  0  0  0  0  0  0  0  0  0
    7.1246   -6.1829    0.0000 C   0  0  0  0  0  0  0  0  0  0  0  0
   -2.3763   -4.9493    0.0000 N   0  0  0  0  0  0  0  0  0  0  0  0
   -3.6753   -5.6992    0.0000 C   0  0  0  0  0  0  0  0  0  0  0  0
   -2.3763   -3.4491    0.0000 C   0  0  0  0  0  0  0  0  0  0  0  0
   -4.9745   -4.9493    0.0000 C   0  0  0  0  0  0  0  0  0  0  0  0
   -3.6753   -2.6991    0.0000 C   0  0  0  0  0  0  0  0  0  0  0  0
   -4.9745   -3.4491    0.0000 N   0  0  0  0  0  0  0  0  0  0  0  0
   -6.2735   -2.6991    0.0000 C   0  0  0  0  0  0  0  0  0  0  0  0
   -6.2735   -1.1992    0.0000 C   0  0  0  0  0  0  0  0  0  0  0  0
   -7.5724   -3.4491    0.0000 C   0  0  0  0  0  0  0  0  0  0  0  0
   -7.5724   -0.4492    0.0000 C   0  0  0  0  0  0  0  0  0  0  0  0
   -4.9745   -0.4492    0.0000 C   0  0  0  0  0  0  0  0  0  0  0  0
   -8.8714   -2.6991    0.0000 C   0  0  0  0  0  0  0  0  0  0  0  0
   -7.5724   -4.9493    0.0000 C   0  0  0  0  0  0  0  0  0  0  0  0
   -7.5724    1.0508    0.0000 C   0  0  0  0  0  0  0  0  0  0  0  0
   -4.9745    1.0508    0.0000 C   0  0  0  0  0  0  0  0  0  0  0  0
  -10.1706   -3.4491    0.0000 C   0  0  0  0  0  0  0  0  0  0  0  0
   -8.8714   -5.6992    0.0000 C   0  0  0  0  0  0  0  0  0  0  0  0
   -6.2735    1.8008    0.0000 C   0  0  0  0  0  0  0  0  0  0  0  0
  -10.1706   -4.9493    0.0000 C   0  0  0  0  0  0  0  0  0  0  0  0
  1  2  2  0  0  0  0
  3  2  1  0  0  0  0
  2  4  1  0  0  0  0
  4  5  1  0  0  0  0
  4  6  1  0  0  0  0
  7  5  2  0  0  0  0
  5  8  1  0  0  0  0
  6  9  1  0  0  0  0
  7  3  1  0  0  0  0
 10  7  1  0  0  0  0
  8 11  2  0  0  0  0
  9 12  1  0  0  0  0
 13 10  2  0  0  0  0
 11 13  1  0  0  0  0
 12 14  1  0  0  0  0
 15 14  1  0  0  0  0
 14 16  1  0  0  0  0
 17 15  1  0  0  0  0
 16 18  1  0  0  0  0
 19 17  1  0  0  0  0
 18 19  1  0  0  0  0
 19 20  1  0  0  0  0
 20 21  1  0  0  0  0
 20 22  1  0  0  0  0
 23 21  2  0  0  0  0
 21 24  1  0  0  0  0
 25 22  2  0  0  0  0
 22 26  1  0  0  0  0
 27 23  1  0  0  0  0
 24 28  2  0  0  0  0
 29 25  1  0  0  0  0
 26 30  2  0  0  0  0
 31 27  2  0  0  0  0
 28 31  1  0  0  0  0
 32 29  2  0  0  0  0
 30 32  1  0  0  0  0
M  END
> <Inchi_key>
BAINIUMDFURPJM-UHFFFAOYSA-N

> <Source>
Mulliner

> <ID>
HT1555

> <H_MFHB>
1

> <CAS>
60607-34-3

> <Cholestasis>


> <Name>
oxatomide

> <Class>
1

$$$$