

  -INDIGO-08031710012D

 16 18  0  0  0  0  0  0  0  0999 V2000
    2.8660    3.2827    0.0000 Cl  0  0  0  0  0  0  0  0  0  0  0  0
    1.5670    2.5327    0.0000 C   0  0  0  0  0  0  0  0  0  0  0  0
    0.2680    3.2827    0.0000 C   0  0  0  0  0  0  0  0  0  0  0  0
   -1.0311    2.5327    0.0000 C   0  0  0  0  0  0  0  0  0  0  0  0
   -1.0311    1.0327    0.0000 C   0  0  0  0  0  0  0  0  0  0  0  0
   -2.1458    0.0290    0.0000 N   0  0  0  0  0  0  0  0  0  0  0  0
   -1.5357   -1.3413    0.0000 S   0  0  0  0  0  0  0  0  0  0  0  0
   -0.0439   -1.1846    0.0000 N   0  0  0  0  0  0  0  0  0  0  0  0
    0.2680    0.2827    0.0000 C   0  0  0  0  0  0  0  0  0  0  0  0
    1.5670    1.0327    0.0000 C   0  0  0  0  0  0  0  0  0  0  0  0
    2.8660    0.2827    0.0000 N   0  0  0  0  0  0  0  0  0  0  0  0
    4.1651    1.0327    0.0000 C   0  0  0  0  0  0  0  0  0  0  0  0
    4.3219    2.5245    0.0000 N   0  0  0  0  0  0  0  0  0  0  0  0
    5.7892    2.8363    0.0000 C   0  0  0  0  0  0  0  0  0  0  0  0
    6.5391    1.5373    0.0000 C   0  0  0  0  0  0  0  0  0  0  0  0
    5.5354    0.4226    0.0000 N   0  0  0  0  0  0  0  0  0  0  0  0
  1  2  1  0  0  0  0
  3  2  2  0  0  0  0
  2 10  1  0  0  0  0
  4  3  1  0  0  0  0
  5  4  2  0  0  0  0
  6  5  1  0  0  0  0
  5  9  1  0  0  0  0
  7  6  1  0  0  0  0
  8  7  1  0  0  0  0
  9  8  1  0  0  0  0
 10  9  2  0  0  0  0
 10 11  1  0  0  0  0
 11 12  1  0  0  0  0
 13 12  2  0  0  0  0
 12 16  1  0  0  0  0
 14 13  1  0  0  0  0
 15 14  2  0  0  0  0
 16 15  1  0  0  0  0
M  END
> <Inchi_key>
KUGQLDNCYAMXKP-UHFFFAOYSA-N

> <Source>
Mulliner

> <ID>
HT2072

> <H_MFHB>
1

> <CAS>


> <Cholestasis>


> <Name>
tizanidine hydrochloride;tizanidine

> <Class>
1


$$$$