
  -INDIGO-08031710012D

 25 28  0  0  0  0  0  0  0  0999 V2000
    1.8693   -2.9235    0.0000 C   0  0  0  0  0  0  0  0  0  0  0  0
    3.1684   -2.1735    0.0000 S   0  0  0  0  0  0  0  0  0  0  0  0
    3.1684   -0.6736    0.0000 C   0  0  0  0  0  0  0  0  0  0  0  0
    1.8693    0.0766    0.0000 C   0  0  0  0  0  0  0  0  0  0  0  0
    1.8693    1.5765    0.0000 C   0  0  0  0  0  0  0  0  0  0  0  0
    3.1684    2.3265    0.0000 C   0  0  0  0  0  0  0  0  0  0  0  0
    3.1684    3.8264    0.0000 S   0  0  0  0  0  0  0  0  0  0  0  0
    4.4674    4.5766    0.0000 C   0  0  0  0  0  0  0  0  0  0  0  0
    4.4674    6.0765    0.0000 C   0  0  0  0  0  0  0  0  0  0  0  0
    5.7665    6.8265    0.0000 C   0  0  0  0  0  0  0  0  0  0  0  0
    7.0656    6.0765    0.0000 C   0  0  0  0  0  0  0  0  0  0  0  0
    7.0656    4.5766    0.0000 C   0  0  0  0  0  0  0  0  0  0  0  0
    5.7665    3.8264    0.0000 C   0  0  0  0  0  0  0  0  0  0  0  0
    5.7665    2.3265    0.0000 N   0  0  0  0  0  0  0  0  0  0  0  0
    7.0656    1.5765    0.0000 C   0  0  0  0  0  0  0  0  0  0  0  0
    8.3645    2.3265    0.0000 C   0  0  0  0  0  0  0  0  0  0  0  0
    9.6636    1.5765    0.0000 C   0  0  0  0  0  0  0  0  0  0  0  0
    9.6636    0.0766    0.0000 C   0  0  0  0  0  0  0  0  0  0  0  0
   10.9626   -0.6736    0.0000 C   0  0  0  0  0  0  0  0  0  0  0  0
   12.2617    0.0766    0.0000 C   0  0  0  0  0  0  0  0  0  0  0  0
   12.2617    1.5765    0.0000 C   0  0  0  0  0  0  0  0  0  0  0  0
   10.9626    2.3265    0.0000 N   0  0  0  0  0  0  0  0  0  0  0  0
   10.9626    3.8264    0.0000 C   0  0  0  0  0  0  0  0  0  0  0  0
    4.4674    1.5765    0.0000 C   0  0  0  0  0  0  0  0  0  0  0  0
    4.4674    0.0766    0.0000 C   0  0  0  0  0  0  0  0  0  0  0  0
  1  2  1  0  0  0  0
  2  3  1  0  0  0  0
  4  3  2  0  0  0  0
  3 25  1  0  0  0  0
  5  4  1  0  0  0  0
  6  5  2  0  0  0  0
  7  6  1  0  0  0  0
  6 24  1  0  0  0  0
  8  7  1  0  0  0  0
  9  8  2  0  0  0  0
  8 13  1  0  0  0  0
 10  9  1  0  0  0  0
 11 10  2  0  0  0  0
 12 11  1  0  0  0  0
 13 12  2  0  0  0  0
 14 13  1  0  0  0  0
 14 15  1  0  0  0  0
 24 14  1  0  0  0  0
 15 16  1  0  0  0  0
 16 17  1  0  0  0  0
 18 17  1  0  0  0  0
 17 22  1  0  0  0  0
 19 18  1  0  0  0  0
 20 19  1  0  0  0  0
 21 20  1  0  0  0  0
 22 21  1  0  0  0  0
 22 23  1  0  0  0  0
 25 24  2  0  0  0  0
M  END
> <Inchi_key>
KLBQZWRITKRQQV-UHFFFAOYSA-N

> <Source>
Mulliner , Kotsampasakou

> <ID>
EK0524;HT2046

> <H_MFHB>
1

> <CAS>
130-61-0

> <Cholestasis>
1

> <Name>
thioridazine;thioridazine hydrochloride

> <Class>
1

$$$$