
  -INDIGO-08031710012D

 20 21  0  0  0  0  0  0  0  0999 V2000
    0.3237    1.2081    0.0000 N   0  0  0  0  0  0  0  0  0  0  0  0
    1.6228    0.4581    0.0000 S   0  0  0  0  0  0  0  0  0  0  0  0
    2.3727    1.7571    0.0000 O   0  0  0  0  0  0  0  0  0  0  0  0
    0.8727   -0.8410    0.0000 O   0  0  0  0  0  0  0  0  0  0  0  0
    2.9218   -0.2919    0.0000 C   0  0  0  0  0  0  0  0  0  0  0  0
    4.2209    0.4581    0.0000 C   0  0  0  0  0  0  0  0  0  0  0  0
    5.5199   -0.2919    0.0000 C   0  0  0  0  0  0  0  0  0  0  0  0
    5.5199   -1.7919    0.0000 C   0  0  0  0  0  0  0  0  0  0  0  0
    6.8188   -2.5419    0.0000 N   0  0  0  0  0  0  0  0  0  0  0  0
    8.1179   -1.7919    0.0000 C   0  0  0  0  0  0  0  0  0  0  0  0
    8.1179   -0.2919    0.0000 N   0  0  0  0  0  0  0  0  0  0  0  0
    6.8188    0.4581    0.0000 S   0  0  0  0  0  0  0  0  0  0  0  0
    7.5689    1.7571    0.0000 O   0  0  0  0  0  0  0  0  0  0  0  0
    6.0689    1.7571    0.0000 O   0  0  0  0  0  0  0  0  0  0  0  0
    9.4169   -2.5419    0.0000 C   0  0  0  0  0  0  0  0  0  0  0  0
   10.7160   -1.7919    0.0000 Cl  0  0  0  0  0  0  0  0  0  0  0  0
    9.4169   -4.0419    0.0000 Cl  0  0  0  0  0  0  0  0  0  0  0  0
    4.2209   -2.5419    0.0000 C   0  0  0  0  0  0  0  0  0  0  0  0
    2.9218   -1.7919    0.0000 C   0  0  0  0  0  0  0  0  0  0  0  0
    1.6228   -2.5419    0.0000 Cl  0  0  0  0  0  0  0  0  0  0  0  0
  1  2  1  0  0  0  0
  2  3  2  0  0  0  0
  2  4  2  0  0  0  0
  2  5  1  0  0  0  0
  6  5  2  0  0  0  0
  5 19  1  0  0  0  0
  7  6  1  0  0  0  0
  7  8  2  0  0  0  0
 12  7  1  0  0  0  0
  8  9  1  0  0  0  0
 18  8  1  0  0  0  0
  9 10  1  0  0  0  0
 10 11  1  0  0  0  0
 10 15  1  0  0  0  0
 11 12  1  0  0  0  0
 12 13  2  0  0  0  0
 12 14  2  0  0  0  0
 15 16  1  0  0  0  0
 15 17  1  0  0  0  0
 19 18  2  0  0  0  0
 19 20  1  0  0  0  0
M  END
> <Inchi_key>
LMJSLTNSBFUCMU-UHFFFAOYSA-N

> <Source>
Mulliner

> <ID>
HT2112

> <H_MFHB>
1

> <CAS>


> <Cholestasis>


> <Name>
trichlormethiazide

> <Class>
1

$$$$