
  -INDIGO-08031710012D

 19 21  0  0  0  0  0  0  0  0999 V2000
    2.2737   -4.1585    0.0000 N   0  0  0  0  0  0  0  0  0  0  0  0
    2.2737   -2.6585    0.0000 C   0  0  0  0  0  0  0  0  0  0  0  0
    3.5726   -1.9085    0.0000 C   0  0  0  0  0  0  0  0  0  0  0  0
    3.8845   -0.4412    0.0000 N   0  0  0  0  0  0  0  0  0  0  0  0
    3.5726   -4.9085    0.0000 C   0  0  0  0  0  0  0  0  0  0  0  0
    4.8718   -4.1585    0.0000 N   0  0  0  0  0  0  0  0  0  0  0  0
    4.8718   -2.6585    0.0000 C   0  0  0  0  0  0  0  0  0  0  0  0
    5.9865   -1.6548    0.0000 N   0  0  0  0  0  0  0  0  0  0  0  0
    5.3763   -0.2844    0.0000 C   0  0  0  0  0  0  0  0  0  0  0  0
    0.9746   -1.9085    0.0000 S   0  0  0  0  0  0  0  0  0  0  0  0
   -0.3244   -2.6585    0.0000 C   0  0  0  0  0  0  0  0  0  0  0  0
   -0.4812   -4.1502    0.0000 N   0  0  0  0  0  0  0  0  0  0  0  0
   -1.6946   -2.0484    0.0000 C   0  0  0  0  0  0  0  0  0  0  0  0
    0.6336   -5.1539    0.0000 C   0  0  0  0  0  0  0  0  0  0  0  0
   -1.9483   -4.4621    0.0000 C   0  0  0  0  0  0  0  0  0  0  0  0
   -2.6983   -3.1631    0.0000 N   0  0  0  0  0  0  0  0  0  0  0  0
   -2.0065   -0.5811    0.0000 N   0  0  0  0  0  0  0  0  0  0  0  0
   -3.4331   -0.1176    0.0000 O   0  0  0  0  0  0  0  0  0  0  0  0
   -0.8917    0.4226    0.0000 O   0  0  0  0  0  0  0  0  0  0  0  0
  2  1  2  0  0  0  0
  3  2  1  0  0  0  0
  3  4  1  0  0  0  0
  1  5  1  0  0  0  0
  5  6  2  0  0  0  0
  6  7  1  0  0  0  0
  8  7  1  0  0  0  0
  7  3  2  0  0  0  0
  9  8  2  0  0  0  0
  4  9  1  0  0  0  0
  2 10  1  0  0  0  0
 10 11  1  0  0  0  0
 12 11  1  0  0  0  0
 11 13  2  0  0  0  0
 12 14  1  0  0  0  0
 15 12  1  0  0  0  0
 13 16  1  0  0  0  0
 13 17  1  0  0  0  0
 16 15  2  0  0  0  0
 17 18  2  0  0  0  0
 17 19  1  0  0  0  0
M  CHG  2  17   1  19  -1
M  END
> <Inchi_key>
LMEKQMALGUDUQG-UHFFFAOYSA-N

> <Source>
Mulliner , Kotsampasakou

> <ID>
EK0045;HT0213

> <H_MFHB>
1

> <CAS>
446-86-6

> <Cholestasis>
1

> <Name>
azathioprine

> <Class>
1

$$$$