

  -INDIGO-08031710012D

 22 24  0  0  0  0  0  0  0  0999 V2000
    6.5197    2.7704    0.0000 C   0  0  0  0  0  0  0  0  0  0  0  0
    6.5197    1.2705    0.0000 C   0  0  0  0  0  0  0  0  0  0  0  0
    5.2206    0.5204    0.0000 C   0  0  0  0  0  0  0  0  0  0  0  0
    5.2206   -0.9796    0.0000 N   0  0  0  0  0  0  0  0  0  0  0  0
    6.5197   -1.7296    0.0000 C   0  0  0  0  0  0  0  0  0  0  0  0
    7.8186   -0.9796    0.0000 C   0  0  0  0  0  0  0  0  0  0  0  0
    9.1176   -1.7296    0.0000 C   0  0  0  0  0  0  0  0  0  0  0  0
   10.4880   -1.1195    0.0000 C   0  0  0  0  0  0  0  0  0  0  0  0
   11.4916   -2.2342    0.0000 C   0  0  0  0  0  0  0  0  0  0  0  0
   10.7416   -3.5333    0.0000 C   0  0  0  0  0  0  0  0  0  0  0  0
    9.2744   -3.2213    0.0000 S   0  0  0  0  0  0  0  0  0  0  0  0
    3.9214   -1.7296    0.0000 C   0  0  0  0  0  0  0  0  0  0  0  0
    3.9214   -3.2296    0.0000 C   0  0  0  0  0  0  0  0  0  0  0  0
    2.6225   -3.9797    0.0000 C   0  0  0  0  0  0  0  0  0  0  0  0
    1.3234   -3.2296    0.0000 C   0  0  0  0  0  0  0  0  0  0  0  0
    0.0244   -3.9797    0.0000 C   0  0  0  0  0  0  0  0  0  0  0  0
    0.0244   -5.4796    0.0000 O   0  0  0  0  0  0  0  0  0  0  0  0
   -1.2747   -3.2296    0.0000 C   0  0  0  0  0  0  0  0  0  0  0  0
   -1.2747   -1.7296    0.0000 C   0  0  0  0  0  0  0  0  0  0  0  0
    0.0244   -0.9796    0.0000 C   0  0  0  0  0  0  0  0  0  0  0  0
    1.3234   -1.7296    0.0000 C   0  0  0  0  0  0  0  0  0  0  0  0
    2.6225   -0.9796    0.0000 C   0  0  0  0  0  0  0  0  0  0  0  0
  1  2  1  0  0  0  0
  2  3  1  0  0  0  0
  3  4  1  0  0  0  0
  4  5  1  0  0  0  0
  4 12  1  0  0  0  0
  5  6  1  0  0  0  0
  6  7  1  0  0  0  0
  8  7  2  0  0  0  0
  7 11  1  0  0  0  0
  9  8  1  0  0  0  0
 10  9  2  0  0  0  0
 11 10  1  0  0  0  0
 13 12  1  0  0  0  0
 12 22  1  0  0  0  0
 14 13  1  0  0  0  0
 15 14  1  0  0  0  0
 16 15  2  0  0  0  0
 15 21  1  0  0  0  0
 16 17  1  0  0  0  0
 18 16  1  0  0  0  0
 19 18  2  0  0  0  0
 20 19  1  0  0  0  0
 21 20  2  0  0  0  0
 22 21  1  0  0  0  0
M  END
> <Inchi_key>
KFQYTPMOWPVWEJ-UHFFFAOYSA-N

> <Source>
Mulliner

> <ID>
HT1851

> <H_MFHB>
1

> <CAS>


> <Cholestasis>


> <Name>
rotigotine

> <Class>
1


$$$$