
  -INDIGO-08031710012D

 41 45  0  0  0  0  0  0  0  0999 V2000
    3.4041    5.9159    0.0000 C   0  0  0  0  0  0  0  0  0  0  0  0
    4.1579    4.6190    0.0000 O   0  0  0  0  0  0  0  0  0  0  0  0
    3.4118    3.3178    0.0000 C   0  0  0  0  0  0  0  0  0  0  0  0
    1.9118    3.3135    0.0000 C   0  0  0  0  0  0  0  0  0  0  0  0
    1.1652    2.0124    0.0000 C   0  0  0  0  0  0  0  0  0  0  0  0
    1.9190    0.7155    0.0000 C   0  0  0  0  0  0  0  0  0  0  0  0
    3.4190    0.7198    0.0000 C   0  0  0  0  0  0  0  0  0  0  0  0
    4.1656    2.0209    0.0000 C   0  0  0  0  0  0  0  0  0  0  0  0
    5.6655    2.0254    0.0000 C   0  0  0  0  0  0  0  0  0  0  0  0
    6.4190    0.7285    0.0000 C   0  0  0  0  0  0  0  0  0  0  0  0
    5.8130   -0.6437    0.0000 C   0  0  0  0  0  0  0  0  0  0  0  0
    6.9305   -1.6442    0.0000 N   0  0  0  0  0  0  0  0  0  0  0  0
    6.7781   -3.1364    0.0000 C   0  0  0  0  0  0  0  0  0  0  0  0
    8.2276   -0.8904    0.0000 C   0  0  0  0  0  0  0  0  0  0  0  0
    9.6554   -1.3498    0.0000 C   0  0  0  0  0  0  0  0  0  0  0  0
   10.7672   -0.3429    0.0000 C   0  0  0  0  0  0  0  0  0  0  0  0
   10.4512    1.1234    0.0000 C   0  0  0  0  0  0  0  0  0  0  0  0
   11.5630    2.1303    0.0000 N   0  0  0  0  0  0  0  0  0  0  0  0
   12.9908    1.6709    0.0000 C   0  0  0  0  0  0  0  0  0  0  0  0
   13.3068    0.2045    0.0000 O   0  0  0  0  0  0  0  0  0  0  0  0
   14.1026    2.6777    0.0000 O   0  0  0  0  0  0  0  0  0  0  0  0
   15.5307    2.2183    0.0000 C   0  0  0  0  0  0  0  0  0  0  0  0
   15.9984    0.7931    0.0000 C   0  0  0  0  0  0  0  0  0  0  0  0
   17.4984    0.7974    0.0000 C   0  0  0  0  0  0  0  0  0  0  0  0
   17.9576    2.2254    0.0000 C   0  0  0  0  0  0  0  0  0  0  0  0
   16.7415    3.1035    0.0000 C   0  0  0  0  0  0  0  0  0  0  0  0
    9.0231    1.5828    0.0000 C   0  0  0  0  0  0  0  0  0  0  0  0
    7.9113    0.5760    0.0000 C   0  0  0  0  0  0  0  0  0  0  0  0
   -0.3347    2.0079    0.0000 C   0  0  0  0  0  0  0  0  0  0  0  0
   -1.0882    3.3048    0.0000 O   0  0  0  0  0  0  0  0  0  0  0  0
   -1.0809    0.7068    0.0000 N   0  0  0  0  0  0  0  0  0  0  0  0
   -2.5809    0.7025    0.0000 S   0  0  0  0  0  0  0  0  0  0  0  0
   -2.5767   -0.7975    0.0000 O   0  0  0  0  0  0  0  0  0  0  0  0
   -2.5851    2.2024    0.0000 O   0  0  0  0  0  0  0  0  0  0  0  0
   -4.0809    0.6982    0.0000 C   0  0  0  0  0  0  0  0  0  0  0  0
   -4.8347    1.9951    0.0000 C   0  0  0  0  0  0  0  0  0  0  0  0
   -6.3346    1.9908    0.0000 C   0  0  0  0  0  0  0  0  0  0  0  0
   -7.0808    0.6896    0.0000 C   0  0  0  0  0  0  0  0  0  0  0  0
   -6.3270   -0.6073    0.0000 C   0  0  0  0  0  0  0  0  0  0  0  0
   -4.8270   -0.6030    0.0000 C   0  0  0  0  0  0  0  0  0  0  0  0
   -4.0732   -1.8999    0.0000 C   0  0  0  0  0  0  0  0  0  0  0  0
  1  2  1  0  0  0  0
  2  3  1  0  0  0  0
  4  3  2  0  0  0  0
  3  8  1  0  0  0  0
  5  4  1  0  0  0  0
  6  5  2  0  0  0  0
  5 29  1  0  0  0  0
  7  6  1  0  0  0  0
  8  7  2  0  0  0  0
  8  9  1  0  0  0  0
  9 10  1  0  0  0  0
 11 10  2  0  0  0  0
 10 28  1  0  0  0  0
 12 11  1  0  0  0  0
 12 13  1  0  0  0  0
 14 12  1  0  0  0  0
 15 14  1  0  0  0  0
 14 28  2  0  0  0  0
 16 15  2  0  0  0  0
 17 16  1  0  0  0  0
 17 18  1  0  0  0  0
 27 17  2  0  0  0  0
 18 19  1  0  0  0  0
 19 20  2  0  0  0  0
 19 21  1  0  0  0  0
 21 22  1  0  0  0  0
 23 22  1  0  0  0  0
 22 26  1  0  0  0  0
 24 23  1  0  0  0  0
 25 24  1  0  0  0  0
 26 25  1  0  0  0  0
 28 27  1  0  0  0  0
 29 30  2  0  0  0  0
 29 31  1  0  0  0  0
 31 32  2  0  0  0  0
 32 33  2  0  0  0  0
 32 34  1  0  0  0  0
 32 35  1  0  0  0  0
 36 35  2  0  0  0  0
 35 40  1  0  0  0  0
 37 36  1  0  0  0  0
 38 37  2  0  0  0  0
 39 38  1  0  0  0  0
 40 39  2  0  0  0  0
 40 41  1  0  0  0  0
M  END
> <Inchi_key>
KZLYONKFXCOHJS-UHFFFAOYSA-N

> <Source>
Mulliner

> <ID>
HT2206

> <H_MFHB>
1

> <CAS>


> <Cholestasis>


> <Name>
zafirlukast

> <Class>
1

$$$$