

  -INDIGO-08031710012D

 29 30  0  0  0  0  0  0  0  0999 V2000
    3.3252   -1.3389    0.0000 C   0  0  0  0  0  0  0  0  0  0  0  0
    2.5751   -2.6379    0.0000 C   0  0  0  0  0  0  0  0  0  0  0  0
    1.8252   -3.9370    0.0000 O   0  0  0  0  0  0  0  0  0  0  0  0
    3.8740   -3.3879    0.0000 C   0  0  0  0  0  0  0  0  0  0  0  0
    5.1730   -2.6379    0.0000 S   0  0  0  0  0  0  0  0  0  0  0  0
    5.9232   -3.9370    0.0000 O   0  0  0  0  0  0  0  0  0  0  0  0
    4.4232   -1.3389    0.0000 O   0  0  0  0  0  0  0  0  0  0  0  0
    6.4723   -1.8879    0.0000 C   0  0  0  0  0  0  0  0  0  0  0  0
    6.4723   -0.3879    0.0000 C   0  0  0  0  0  0  0  0  0  0  0  0
    7.7713    0.3621    0.0000 C   0  0  0  0  0  0  0  0  0  0  0  0
    9.0703   -0.3879    0.0000 C   0  0  0  0  0  0  0  0  0  0  0  0
   10.3693    0.3621    0.0000 F   0  0  0  0  0  0  0  0  0  0  0  0
    9.0703   -1.8879    0.0000 C   0  0  0  0  0  0  0  0  0  0  0  0
    7.7713   -2.6379    0.0000 C   0  0  0  0  0  0  0  0  0  0  0  0
    1.2761   -1.8879    0.0000 C   0  0  0  0  0  0  0  0  0  0  0  0
    1.2761   -0.3879    0.0000 O   0  0  0  0  0  0  0  0  0  0  0  0
   -0.0229   -2.6379    0.0000 N   0  0  0  0  0  0  0  0  0  0  0  0
   -1.3219   -1.8879    0.0000 C   0  0  0  0  0  0  0  0  0  0  0  0
   -1.3219   -0.3879    0.0000 C   0  0  0  0  0  0  0  0  0  0  0  0
   -2.6212    0.3621    0.0000 C   0  0  0  0  0  0  0  0  0  0  0  0
   -3.9202   -0.3879    0.0000 C   0  0  0  0  0  0  0  0  0  0  0  0
   -5.2192    0.3621    0.0000 C   0  0  0  0  0  0  0  0  0  0  0  0
   -6.5182    1.1121    0.0000 N   0  0  0  0  0  0  0  0  0  0  0  0
   -3.9202   -1.8879    0.0000 C   0  0  0  0  0  0  0  0  0  0  0  0
   -2.6212   -2.6379    0.0000 C   0  0  0  0  0  0  0  0  0  0  0  0
   -5.2192   -2.6379    0.0000 C   0  0  0  0  0  0  0  0  0  0  0  0
   -4.4691   -3.9370    0.0000 F   0  0  0  0  0  0  0  0  0  0  0  0
   -5.9693   -1.3389    0.0000 F   0  0  0  0  0  0  0  0  0  0  0  0
   -6.5182   -3.3879    0.0000 F   0  0  0  0  0  0  0  0  0  0  0  0
  1  2  1  0  0  0  0
  2  3  1  0  0  0  0
  2  4  1  0  0  0  0
  2 15  1  0  0  0  0
  4  5  1  0  0  0  0
  5  6  2  0  0  0  0
  5  7  2  0  0  0  0
  5  8  1  0  0  0  0
  9  8  2  0  0  0  0
  8 14  1  0  0  0  0
 10  9  1  0  0  0  0
 11 10  2  0  0  0  0
 11 12  1  0  0  0  0
 13 11  1  0  0  0  0
 14 13  2  0  0  0  0
 15 16  2  0  0  0  0
 15 17  1  0  0  0  0
 17 18  1  0  0  0  0
 19 18  2  0  0  0  0
 18 25  1  0  0  0  0
 20 19  1  0  0  0  0
 21 20  2  0  0  0  0
 21 22  1  0  0  0  0
 24 21  1  0  0  0  0
 22 23  3  0  0  0  0
 25 24  2  0  0  0  0
 24 26  1  0  0  0  0
 26 27  1  0  0  0  0
 26 28  1  0  0  0  0
 26 29  1  0  0  0  0
M  END
> <Inchi_key>
LKJPYSCBVHEWIU-UHFFFAOYSA-N

> <Source>
Mulliner

> <ID>
HT0283

> <H_MFHB>
1

> <CAS>


> <Cholestasis>


> <Name>
bicalutamide

> <Class>
1


$$$$