
  -INDIGO-08031710012D

 25 27  0  0  0  0  0  0  0  0999 V2000
   -0.4914    2.7521    0.0000 S   0  0  0  0  0  0  0  0  0  0  0  0
   -0.4914    4.2521    0.0000 O   0  0  0  0  0  0  0  0  0  0  0  0
    0.8079    2.0021    0.0000 C   0  0  0  0  0  0  0  0  0  0  0  0
   -1.7902    2.0021    0.0000 C   0  0  0  0  0  0  0  0  0  0  0  0
   -3.1607    2.6122    0.0000 N   0  0  0  0  0  0  0  0  0  0  0  0
   -1.9470    0.5104    0.0000 N   0  0  0  0  0  0  0  0  0  0  0  0
   -4.1642    1.4975    0.0000 C   0  0  0  0  0  0  0  0  0  0  0  0
   -3.4144    0.1985    0.0000 C   0  0  0  0  0  0  0  0  0  0  0  0
   -5.6642    1.4975    0.0000 C   0  0  0  0  0  0  0  0  0  0  0  0
   -4.1642   -1.1005    0.0000 C   0  0  0  0  0  0  0  0  0  0  0  0
   -6.4143    0.1985    0.0000 C   0  0  0  0  0  0  0  0  0  0  0  0
   -5.6642   -1.1005    0.0000 C   0  0  0  0  0  0  0  0  0  0  0  0
    2.1067    2.7521    0.0000 C   0  0  0  0  0  0  0  0  0  0  0  0
    3.4060    2.0021    0.0000 C   0  0  0  0  0  0  0  0  0  0  0  0
    2.1067    4.2521    0.0000 N   0  0  0  0  0  0  0  0  0  0  0  0
    3.4060    0.5021    0.0000 C   0  0  0  0  0  0  0  0  0  0  0  0
    4.7048    2.7521    0.0000 C   0  0  0  0  0  0  0  0  0  0  0  0
    3.4060    5.0021    0.0000 C   0  0  0  0  0  0  0  0  0  0  0  0
    6.0039    2.0021    0.0000 O   0  0  0  0  0  0  0  0  0  0  0  0
    4.7048    4.2521    0.0000 C   0  0  0  0  0  0  0  0  0  0  0  0
    7.3029    2.7521    0.0000 C   0  0  0  0  0  0  0  0  0  0  0  0
    8.6020    2.0021    0.0000 C   0  0  0  0  0  0  0  0  0  0  0  0
    7.8521    0.7031    0.0000 F   0  0  0  0  0  0  0  0  0  0  0  0
    9.9010    1.2521    0.0000 F   0  0  0  0  0  0  0  0  0  0  0  0
    9.3521    3.3012    0.0000 F   0  0  0  0  0  0  0  0  0  0  0  0
  1  2  1  0  0  0  0
  1  3  1  0  0  0  0
  1  4  1  0  0  0  0
  5  4  2  0  0  0  0
  4  6  1  0  0  0  0
  7  5  1  0  0  0  0
  6  8  1  0  0  0  0
  9  7  2  0  0  0  0
  7  8  1  0  0  0  0
  8 10  2  0  0  0  0
 11  9  1  0  0  0  0
 10 12  1  0  0  0  0
 12 11  2  0  0  0  0
  3 13  1  0  0  0  0
 14 13  2  0  0  0  0
 13 15  1  0  0  0  0
 14 16  1  0  0  0  0
 17 14  1  0  0  0  0
 15 18  2  0  0  0  0
 17 19  1  0  0  0  0
 20 17  2  0  0  0  0
 18 20  1  0  0  0  0
 19 21  1  0  0  0  0
 21 22  1  0  0  0  0
 22 23  1  0  0  0  0
 22 24  1  0  0  0  0
 22 25  1  0  0  0  0
M  CHG  2   1   1   2  -1
M  END
> <Inchi_key>
MJIHNNLFOKEZEW-UHFFFAOYSA-N

> <Source>
Mulliner

> <ID>
HT0623

> <H_MFHB>
1

> <CAS>
103577-45-3

> <Cholestasis>


> <Name>
dexlansoprazole;lansoprazole

> <Class>
1

$$$$