
  -INDIGO-08031710012D

 32 34  0  0  0  0  0  0  0  0999 V2000
   22.8693   -3.1278    0.0000 C   0  0  0  0  0  0  0  0  0  0  0  0
   21.5703   -3.8778    0.0000 N   0  0  0  0  0  0  0  0  0  0  0  0
   20.2712   -3.1278    0.0000 C   0  0  0  0  0  0  0  0  0  0  0  0
   20.2712   -1.6278    0.0000 O   0  0  0  0  0  0  0  0  0  0  0  0
   18.9722   -3.8778    0.0000 C   0  0  0  0  0  0  0  0  0  0  0  0
   17.6732   -3.1278    0.0000 C   0  0  0  0  0  0  0  0  0  0  0  0
   16.3741   -3.8778    0.0000 C   0  0  0  0  0  0  0  0  0  0  0  0
   15.0751   -3.1278    0.0000 O   0  0  0  0  0  0  0  0  0  0  0  0
   13.7761   -3.8778    0.0000 C   0  0  0  0  0  0  0  0  0  0  0  0
   13.7761   -5.3778    0.0000 C   0  0  0  0  0  0  0  0  0  0  0  0
   12.4770   -6.1278    0.0000 C   0  0  0  0  0  0  0  0  0  0  0  0
   11.1780   -5.3778    0.0000 C   0  0  0  0  0  0  0  0  0  0  0  0
    9.8789   -6.1278    0.0000 N   0  0  0  0  0  0  0  0  0  0  0  0
    8.5799   -5.3778    0.0000 C   0  0  0  0  0  0  0  0  0  0  0  0
    8.5799   -3.8778    0.0000 O   0  0  0  0  0  0  0  0  0  0  0  0
    7.2809   -6.1278    0.0000 N   0  0  0  0  0  0  0  0  0  0  0  0
    5.9818   -5.3778    0.0000 C   0  0  0  0  0  0  0  0  0  0  0  0
    5.9818   -3.8778    0.0000 C   0  0  0  0  0  0  0  0  0  0  0  0
    4.6828   -3.1278    0.0000 C   0  0  0  0  0  0  0  0  0  0  0  0
    3.3838   -3.8778    0.0000 C   0  0  0  0  0  0  0  0  0  0  0  0
    2.0847   -3.1278    0.0000 Cl  0  0  0  0  0  0  0  0  0  0  0  0
    3.3838   -5.3778    0.0000 C   0  0  0  0  0  0  0  0  0  0  0  0
    4.6828   -6.1278    0.0000 C   0  0  0  0  0  0  0  0  0  0  0  0
    2.0847   -6.1278    0.0000 C   0  0  0  0  0  0  0  0  0  0  0  0
    2.8348   -7.4269    0.0000 F   0  0  0  0  0  0  0  0  0  0  0  0
    1.3346   -4.8288    0.0000 F   0  0  0  0  0  0  0  0  0  0  0  0
    0.7857   -6.8778    0.0000 F   0  0  0  0  0  0  0  0  0  0  0  0
   11.1780   -3.8778    0.0000 C   0  0  0  0  0  0  0  0  0  0  0  0
   12.4770   -3.1278    0.0000 C   0  0  0  0  0  0  0  0  0  0  0  0
   16.3741   -5.3778    0.0000 C   0  0  0  0  0  0  0  0  0  0  0  0
   17.6732   -6.1278    0.0000 C   0  0  0  0  0  0  0  0  0  0  0  0
   18.9722   -5.3778    0.0000 N   0  0  0  0  0  0  0  0  0  0  0  0
  1  2  1  0  0  0  0
  2  3  1  0  0  0  0
  3  4  2  0  0  0  0
  3  5  1  0  0  0  0
  6  5  2  0  0  0  0
  5 32  1  0  0  0  0
  7  6  1  0  0  0  0
  7  8  1  0  0  0  0
 30  7  2  0  0  0  0
  8  9  1  0  0  0  0
 10  9  2  0  0  0  0
  9 29  1  0  0  0  0
 11 10  1  0  0  0  0
 12 11  2  0  0  0  0
 12 13  1  0  0  0  0
 28 12  1  0  0  0  0
 13 14  1  0  0  0  0
 14 15  2  0  0  0  0
 14 16  1  0  0  0  0
 16 17  1  0  0  0  0
 18 17  2  0  0  0  0
 17 23  1  0  0  0  0
 19 18  1  0  0  0  0
 20 19  2  0  0  0  0
 20 21  1  0  0  0  0
 22 20  1  0  0  0  0
 23 22  2  0  0  0  0
 22 24  1  0  0  0  0
 24 25  1  0  0  0  0
 24 26  1  0  0  0  0
 24 27  1  0  0  0  0
 29 28  2  0  0  0  0
 31 30  1  0  0  0  0
 32 31  2  0  0  0  0
M  END
> <Inchi_key>
MLDQJTXFUGDVEO-UHFFFAOYSA-N

> <Source>
Mulliner

> <ID>
HT1905

> <H_MFHB>
1

> <CAS>
284461-73-0

> <Cholestasis>


> <Name>
sorafenib tosylate;sorafenib

> <Class>
1

$$$$