
  -INDIGO-08031710012D

 20 21  0  0  0  0  0  0  0  0999 V2000
   12.3579    3.3113    0.0000 C   0  0  0  0  0  0  0  0  0  0  0  0
   11.0590    2.5613    0.0000 C   0  0  0  0  0  0  0  0  0  0  0  0
    9.7599    3.3113    0.0000 C   0  0  0  0  0  0  0  0  0  0  0  0
    8.4608    2.5613    0.0000 C   0  0  0  0  0  0  0  0  0  0  0  0
    8.4608    1.0613    0.0000 C   0  0  0  0  0  0  0  0  0  0  0  0
    9.7599    0.3113    0.0000 C   0  0  0  0  0  0  0  0  0  0  0  0
   11.0590    1.0613    0.0000 C   0  0  0  0  0  0  0  0  0  0  0  0
    7.1619    0.3113    0.0000 C   0  0  0  0  0  0  0  0  0  0  0  0
    7.1619   -1.1887    0.0000 O   0  0  0  0  0  0  0  0  0  0  0  0
    5.8626    1.0613    0.0000 C   0  0  0  0  0  0  0  0  0  0  0  0
    5.8626    2.5613    0.0000 C   0  0  0  0  0  0  0  0  0  0  0  0
    4.5637    3.3113    0.0000 C   0  0  0  0  0  0  0  0  0  0  0  0
    4.5637    4.8113    0.0000 O   0  0  0  0  0  0  0  0  0  0  0  0
    3.2648    2.5613    0.0000 C   0  0  0  0  0  0  0  0  0  0  0  0
    1.9655    3.3113    0.0000 O   0  0  0  0  0  0  0  0  0  0  0  0
    3.2648    1.0613    0.0000 C   0  0  0  0  0  0  0  0  0  0  0  0
    4.5637    0.3113    0.0000 C   0  0  0  0  0  0  0  0  0  0  0  0
    1.9655    0.3113    0.0000 N   0  0  0  0  0  0  0  0  0  0  0  0
    1.9655   -1.1887    0.0000 O   0  0  0  0  0  0  0  0  0  0  0  0
    0.6666    1.0613    0.0000 O   0  0  0  0  0  0  0  0  0  0  0  0
  1  2  1  0  0  0  0
  3  2  2  0  0  0  0
  2  7  1  0  0  0  0
  4  3  1  0  0  0  0
  5  4  2  0  0  0  0
  6  5  1  0  0  0  0
  5  8  1  0  0  0  0
  7  6  2  0  0  0  0
  8  9  2  0  0  0  0
  8 10  1  0  0  0  0
 11 10  2  0  0  0  0
 10 17  1  0  0  0  0
 12 11  1  0  0  0  0
 12 13  1  0  0  0  0
 14 12  2  0  0  0  0
 14 15  1  0  0  0  0
 16 14  1  0  0  0  0
 17 16  2  0  0  0  0
 16 18  1  0  0  0  0
 18 19  2  0  0  0  0
 18 20  1  0  0  0  0
M  CHG  2  18   1  20  -1
M  END
> <Inchi_key>
MIQPIUSUKVNLNT-UHFFFAOYSA-N

> <Source>
Mulliner

> <ID>
HT2082

> <H_MFHB>
1

> <CAS>
134308-13-7

> <Cholestasis>


> <Name>
tolcapone

> <Class>
1

$$$$