
  -INDIGO-08031710012D

 17 18  0  0  0  0  0  0  0  0999 V2000
    3.7501    1.7575    0.0000 C   0  0  0  0  0  0  0  0  0  0  0  0
    4.5000    0.4585    0.0000 C   0  0  0  0  0  0  0  0  0  0  0  0
    3.7501   -0.8406    0.0000 N   0  0  0  0  0  0  0  0  0  0  0  0
    2.2500   -0.8406    0.0000 C   0  0  0  0  0  0  0  0  0  0  0  0
    1.5000   -2.1396    0.0000 C   0  0  0  0  0  0  0  0  0  0  0  0
   -0.0000   -2.1396    0.0000 C   0  0  0  0  0  0  0  0  0  0  0  0
   -0.7500   -3.4386    0.0000 O   0  0  0  0  0  0  0  0  0  0  0  0
   -0.7500   -0.8406    0.0000 O   0  0  0  0  0  0  0  0  0  0  0  0
    2.2500   -3.4386    0.0000 C   0  0  0  0  0  0  0  0  0  0  0  0
    1.5000   -4.7377    0.0000 O   0  0  0  0  0  0  0  0  0  0  0  0
    3.7501   -3.4386    0.0000 C   0  0  0  0  0  0  0  0  0  0  0  0
    4.5000   -4.7377    0.0000 C   0  0  0  0  0  0  0  0  0  0  0  0
    6.0000   -4.7377    0.0000 C   0  0  0  0  0  0  0  0  0  0  0  0
    6.7501   -3.4386    0.0000 C   0  0  0  0  0  0  0  0  0  0  0  0
    8.2500   -3.4386    0.0000 C   0  0  0  0  0  0  0  0  0  0  0  0
    6.0000   -2.1396    0.0000 N   0  0  0  0  0  0  0  0  0  0  0  0
    4.5000   -2.1396    0.0000 C   0  0  0  0  0  0  0  0  0  0  0  0
  1  2  1  0  0  0  0
  2  3  1  0  0  0  0
  4  3  1  0  0  0  0
  3 17  1  0  0  0  0
  5  4  2  0  0  0  0
  5  6  1  0  0  0  0
  9  5  1  0  0  0  0
  6  7  2  0  0  0  0
  6  8  1  0  0  0  0
  9 10  2  0  0  0  0
 11  9  1  0  0  0  0
 12 11  1  0  0  0  0
 11 17  2  0  0  0  0
 13 12  2  0  0  0  0
 14 13  1  0  0  0  0
 14 15  1  0  0  0  0
 16 14  2  0  0  0  0
 17 16  1  0  0  0  0
M  END
> <Inchi_key>
MHWLWQUZZRMNGJ-UHFFFAOYSA-N

> <Source>
Mulliner , Kotsampasakou

> <ID>
EK0370;HT1456

> <H_MFHB>
1

> <CAS>
8/2/389

> <Cholestasis>
1

> <Name>
nalidixic acid

> <Class>
1

$$$$