
  -INDIGO-08031710012D

 40 44  0  0  0  0  0  0  0  0999 V2000
   27.6068    1.2006    0.0000 C   0  0  0  0  0  0  0  0  0  0  0  0
   26.1124    1.0704    0.0000 S   0  0  0  0  0  0  0  0  0  0  0  0
   26.2429   -0.4238    0.0000 O   0  0  0  0  0  0  0  0  0  0  0  0
   25.9823    2.5648    0.0000 O   0  0  0  0  0  0  0  0  0  0  0  0
   24.6180    0.9401    0.0000 C   0  0  0  0  0  0  0  0  0  0  0  0
   23.7583    2.1691    0.0000 C   0  0  0  0  0  0  0  0  0  0  0  0
   22.2640    2.0391    0.0000 N   0  0  0  0  0  0  0  0  0  0  0  0
   21.4039    3.2681    0.0000 C   0  0  0  0  0  0  0  0  0  0  0  0
   19.9095    3.1378    0.0000 C   0  0  0  0  0  0  0  0  0  0  0  0
   18.9257    4.2702    0.0000 O   0  0  0  0  0  0  0  0  0  0  0  0
   17.5450    3.6845    0.0000 C   0  0  0  0  0  0  0  0  0  0  0  0
   17.6750    2.1901    0.0000 C   0  0  0  0  0  0  0  0  0  0  0  0
   19.1365    1.8523    0.0000 C   0  0  0  0  0  0  0  0  0  0  0  0
   16.2595    4.4575    0.0000 C   0  0  0  0  0  0  0  0  0  0  0  0
   16.2861    5.9572    0.0000 C   0  0  0  0  0  0  0  0  0  0  0  0
   15.0006    6.7302    0.0000 C   0  0  0  0  0  0  0  0  0  0  0  0
   13.6887    6.0035    0.0000 C   0  0  0  0  0  0  0  0  0  0  0  0
   12.4028    6.7765    0.0000 N   0  0  0  0  0  0  0  0  0  0  0  0
   11.0909    6.0498    0.0000 C   0  0  0  0  0  0  0  0  0  0  0  0
   11.0640    4.5501    0.0000 N   0  0  0  0  0  0  0  0  0  0  0  0
   12.3498    3.7771    0.0000 C   0  0  0  0  0  0  0  0  0  0  0  0
   12.3229    2.2772    0.0000 N   0  0  0  0  0  0  0  0  0  0  0  0
   11.0109    1.5504    0.0000 C   0  0  0  0  0  0  0  0  0  0  0  0
   10.9840    0.0507    0.0000 C   0  0  0  0  0  0  0  0  0  0  0  0
    9.6720   -0.6762    0.0000 C   0  0  0  0  0  0  0  0  0  0  0  0
    8.3866    0.0970    0.0000 C   0  0  0  0  0  0  0  0  0  0  0  0
    7.0742   -0.6297    0.0000 O   0  0  0  0  0  0  0  0  0  0  0  0
    7.0477   -2.1296    0.0000 C   0  0  0  0  0  0  0  0  0  0  0  0
    5.7353   -2.8564    0.0000 C   0  0  0  0  0  0  0  0  0  0  0  0
    4.4499   -2.0834    0.0000 C   0  0  0  0  0  0  0  0  0  0  0  0
    3.1375   -2.8101    0.0000 C   0  0  0  0  0  0  0  0  0  0  0  0
    3.1110   -4.3100    0.0000 C   0  0  0  0  0  0  0  0  0  0  0  0
    4.3964   -5.0830    0.0000 C   0  0  0  0  0  0  0  0  0  0  0  0
    4.3699   -6.5827    0.0000 F   0  0  0  0  0  0  0  0  0  0  0  0
    5.7088   -4.3561    0.0000 C   0  0  0  0  0  0  0  0  0  0  0  0
    8.4131    1.5967    0.0000 C   0  0  0  0  0  0  0  0  0  0  0  0
    7.1277    2.3697    0.0000 Cl  0  0  0  0  0  0  0  0  0  0  0  0
    9.7251    2.3234    0.0000 C   0  0  0  0  0  0  0  0  0  0  0  0
   13.6617    4.5038    0.0000 C   0  0  0  0  0  0  0  0  0  0  0  0
   14.9472    3.7308    0.0000 C   0  0  0  0  0  0  0  0  0  0  0  0
  1  2  1  0  0  0  0
  2  3  2  0  0  0  0
  2  4  2  0  0  0  0
  2  5  1  0  0  0  0
  5  6  1  0  0  0  0
  6  7  1  0  0  0  0
  7  8  1  0  0  0  0
  8  9  1  0  0  0  0
 10  9  1  0  0  0  0
  9 13  2  0  0  0  0
 11 10  1  0  0  0  0
 12 11  2  0  0  0  0
 11 14  1  0  0  0  0
 13 12  1  0  0  0  0
 15 14  2  0  0  0  0
 14 40  1  0  0  0  0
 16 15  1  0  0  0  0
 17 16  2  0  0  0  0
 18 17  1  0  0  0  0
 17 39  1  0  0  0  0
 19 18  2  0  0  0  0
 20 19  1  0  0  0  0
 21 20  2  0  0  0  0
 21 22  1  0  0  0  0
 39 21  1  0  0  0  0
 22 23  1  0  0  0  0
 24 23  2  0  0  0  0
 23 38  1  0  0  0  0
 25 24  1  0  0  0  0
 26 25  2  0  0  0  0
 26 27  1  0  0  0  0
 36 26  1  0  0  0  0
 27 28  1  0  0  0  0
 28 29  1  0  0  0  0
 30 29  2  0  0  0  0
 29 35  1  0  0  0  0
 31 30  1  0  0  0  0
 32 31  2  0  0  0  0
 33 32  1  0  0  0  0
 33 34  1  0  0  0  0
 35 33  2  0  0  0  0
 36 37  1  0  0  0  0
 38 36  2  0  0  0  0
 40 39  2  0  0  0  0
M  END
> <Inchi_key>
BCFGMOOMADDAQU-UHFFFAOYSA-N

> <Source>
Mulliner

> <ID>
HT1171

> <H_MFHB>
1

> <CAS>
231277-92-2

> <Cholestasis>


> <Name>
lapatinib ditosylate;lapatinib

> <Class>
1

$$$$