

  -INDIGO-08031710012D

 29 33  0  0  0  0  0  0  0  0999 V2000
    4.7258    8.4951    0.0000 C   0  0  0  0  0  0  0  0  0  0  0  0
    3.9778    7.1948    0.0000 C   0  0  0  0  0  0  0  0  0  0  0  0
    2.4779    7.1925    0.0000 O   0  0  0  0  0  0  0  0  0  0  0  0
    4.7299    5.8970    0.0000 S   0  0  0  0  0  0  0  0  0  0  0  0
    3.9819    4.5968    0.0000 C   0  0  0  0  0  0  0  0  0  0  0  0
    2.4820    4.5945    0.0000 C   0  0  0  0  0  0  0  0  0  0  0  0
    1.7340    3.2942    0.0000 C   0  0  0  0  0  0  0  0  0  0  0  0
    0.2340    3.2917    0.0000 C   0  0  0  0  0  0  0  0  0  0  0  0
   -0.5140    1.9915    0.0000 C   0  0  0  0  0  0  0  0  0  0  0  0
   -2.0139    1.9892    0.0000 O   0  0  0  0  0  0  0  0  0  0  0  0
    0.2382    0.6937    0.0000 C   0  0  0  0  0  0  0  0  0  0  0  0
    1.7383    0.6961    0.0000 C   0  0  0  0  0  0  0  0  0  0  0  0
    2.4861    1.9962    0.0000 C   0  0  0  0  0  0  0  0  0  0  0  0
    0.9869    2.0463    0.0000 C   0  0  0  0  0  0  0  0  0  0  0  0
    3.9860    1.9987    0.0000 C   0  0  0  0  0  0  0  0  0  0  0  0
    4.7381    0.7009    0.0000 C   0  0  0  0  0  0  0  0  0  0  0  0
    6.2381    0.7032    0.0000 C   0  0  0  0  0  0  0  0  0  0  0  0
    6.9861    2.0036    0.0000 C   0  0  0  0  0  0  0  0  0  0  0  0
    5.4869    2.0535    0.0000 C   0  0  0  0  0  0  0  0  0  0  0  0
    6.2340    3.3012    0.0000 C   0  0  0  0  0  0  0  0  0  0  0  0
    7.2359    4.4176    0.0000 C   0  0  0  0  0  0  0  0  0  0  0  0
    8.6071    3.8097    0.0000 C   0  0  0  0  0  0  0  0  0  0  0  0
    8.4528    2.3176    0.0000 C   0  0  0  0  0  0  0  0  0  0  0  0
    9.8427    2.8818    0.0000 C   0  0  0  0  0  0  0  0  0  0  0  0
   10.8087    1.7342    0.0000 C   0  0  0  0  0  0  0  0  0  0  0  0
   10.0159    0.4609    0.0000 C   0  0  0  0  0  0  0  0  0  0  0  0
   10.5800   -0.9290    0.0000 O   0  0  0  0  0  0  0  0  0  0  0  0
    8.5598    0.8215    0.0000 O   0  0  0  0  0  0  0  0  0  0  0  0
    4.7340    3.2989    0.0000 C   0  0  0  0  0  0  0  0  0  0  0  0
  1  2  1  0  0  0  0
  2  3  2  0  0  0  0
  2  4  1  0  0  0  0
  4  5  1  0  0  0  0
  6  5  1  0  0  0  0
  5 29  1  0  0  0  0
  7  6  1  0  0  0  0
  8  7  2  0  0  0  0
  7 13  1  0  0  0  0
  9  8  1  0  0  0  0
  9 10  2  0  0  0  0
 11  9  1  0  0  0  0
 12 11  1  0  0  0  0
 13 12  1  0  0  0  0
 13 14  1  0  0  0  0
 15 13  1  0  0  0  0
 16 15  1  0  0  0  0
 15 29  1  0  0  0  0
 17 16  1  0  0  0  0
 18 17  1  0  0  0  0
 18 19  1  0  0  0  0
 18 20  1  0  0  0  0
 23 18  1  0  0  0  0
 20 21  1  0  0  0  0
 29 20  1  0  0  0  0
 21 22  1  0  0  0  0
 22 23  1  0  0  0  0
 24 23  1  0  0  0  0
 23 28  1  0  0  0  0
 25 24  1  0  0  0  0
 26 25  1  0  0  0  0
 26 27  2  0  0  0  0
 28 26  1  0  0  0  0
M  END
> <Inchi_key>
LXMSZDCAJNLERA-UHFFFAOYSA-N

> <Source>
Mulliner

> <ID>
HT1913

> <H_MFHB>
1

> <CAS>
1/7/1952

> <Cholestasis>


> <Name>
spironolactone

> <Class>
1


$$$$