
  -INDIGO-08031710012D

 21 23  0  0  0  0  0  0  0  0999 V2000
   -1.7943    7.2230    0.0000 C   0  0  0  0  0  0  0  0  0  0  0  0
   -1.7943    5.7230    0.0000 C   0  0  0  0  0  0  0  0  0  0  0  0
   -3.0934    4.9730    0.0000 C   0  0  0  0  0  0  0  0  0  0  0  0
   -3.0934    3.4730    0.0000 O   0  0  0  0  0  0  0  0  0  0  0  0
   -4.3925    5.7230    0.0000 O   0  0  0  0  0  0  0  0  0  0  0  0
   -0.4955    4.9730    0.0000 C   0  0  0  0  0  0  0  0  0  0  0  0
   -0.4955    3.4730    0.0000 C   0  0  0  0  0  0  0  0  0  0  0  0
    0.8038    2.7230    0.0000 C   0  0  0  0  0  0  0  0  0  0  0  0
    2.1027    3.4730    0.0000 C   0  0  0  0  0  0  0  0  0  0  0  0
    3.5294    3.0095    0.0000 O   0  0  0  0  0  0  0  0  0  0  0  0
    4.4110    4.2230    0.0000 C   0  0  0  0  0  0  0  0  0  0  0  0
    3.5294    5.4365    0.0000 N   0  0  0  0  0  0  0  0  0  0  0  0
    2.1027    4.9730    0.0000 C   0  0  0  0  0  0  0  0  0  0  0  0
    0.8038    5.7230    0.0000 C   0  0  0  0  0  0  0  0  0  0  0  0
    5.9111    4.2230    0.0000 C   0  0  0  0  0  0  0  0  0  0  0  0
    6.6611    5.5220    0.0000 C   0  0  0  0  0  0  0  0  0  0  0  0
    8.1609    5.5220    0.0000 C   0  0  0  0  0  0  0  0  0  0  0  0
    8.9111    4.2230    0.0000 C   0  0  0  0  0  0  0  0  0  0  0  0
   10.4110    4.2230    0.0000 Cl  0  0  0  0  0  0  0  0  0  0  0  0
    8.1609    2.9239    0.0000 C   0  0  0  0  0  0  0  0  0  0  0  0
    6.6611    2.9239    0.0000 C   0  0  0  0  0  0  0  0  0  0  0  0
  1  2  1  0  0  0  0
  2  3  1  0  0  0  0
  2  6  1  0  0  0  0
  3  4  2  0  0  0  0
  3  5  1  0  0  0  0
  7  6  2  0  0  0  0
  6 14  1  0  0  0  0
  8  7  1  0  0  0  0
  9  8  2  0  0  0  0
 10  9  1  0  0  0  0
  9 13  1  0  0  0  0
 11 10  1  0  0  0  0
 12 11  2  0  0  0  0
 11 15  1  0  0  0  0
 13 12  1  0  0  0  0
 14 13  2  0  0  0  0
 16 15  2  0  0  0  0
 15 21  1  0  0  0  0
 17 16  1  0  0  0  0
 18 17  2  0  0  0  0
 18 19  1  0  0  0  0
 20 18  1  0  0  0  0
 21 20  2  0  0  0  0
M  END
> <Inchi_key>
MITFXPHMIHQXPI-UHFFFAOYSA-N

> <Source>
Mulliner

> <ID>
HT0239

> <H_MFHB>
1

> <CAS>


> <Cholestasis>


> <Name>
benoxaprofen

> <Class>
1

$$$$