
  -INDIGO-08031710012D

 24 27  0  0  0  0  0  0  0  0999 V2000
   12.0401    0.0835    0.0000 C   0  0  0  0  0  0  0  0  0  0  0  0
   10.5401    0.0627    0.0000 O   0  0  0  0  0  0  0  0  0  0  0  0
    9.7722    1.3512    0.0000 C   0  0  0  0  0  0  0  0  0  0  0  0
   10.5041    2.6606    0.0000 C   0  0  0  0  0  0  0  0  0  0  0  0
    9.7361    3.9491    0.0000 C   0  0  0  0  0  0  0  0  0  0  0  0
    8.2363    3.9282    0.0000 C   0  0  0  0  0  0  0  0  0  0  0  0
    7.4684    5.2167    0.0000 N   0  0  0  0  0  0  0  0  0  0  0  0
    5.9684    5.1959    0.0000 C   0  0  0  0  0  0  0  0  0  0  0  0
    5.2365    3.8866    0.0000 C   0  0  0  0  0  0  0  0  0  0  0  0
    6.0046    2.5981    0.0000 C   0  0  0  0  0  0  0  0  0  0  0  0
    5.2728    1.2888    0.0000 C   0  0  0  0  0  0  0  0  0  0  0  0
    6.0405    0.0003    0.0000 O   0  0  0  0  0  0  0  0  0  0  0  0
    3.7728    1.2680    0.0000 C   0  0  0  0  0  0  0  0  0  0  0  0
    3.5765    2.6400    0.0000 C   0  0  0  0  0  0  0  0  0  0  0  0
    2.5210    1.6156    0.0000 C   0  0  0  0  0  0  0  0  0  0  0  0
    0.8936    1.7299    0.0000 C   0  0  0  0  0  0  0  0  0  0  0  0
    1.1615    0.3945    0.0000 C   0  0  0  0  0  0  0  0  0  0  0  0
    2.7222    0.2729    0.0000 N   0  0  0  0  0  0  0  0  0  0  0  0
    3.3178   -1.2131    0.0000 C   0  0  0  0  0  0  0  0  0  0  0  0
    3.3719   -0.0490    0.0000 C   0  0  0  0  0  0  0  0  0  0  0  0
    4.8579   -0.2527    0.0000 C   0  0  0  0  0  0  0  0  0  0  0  0
    5.4247   -1.6416    0.0000 C   0  0  0  0  0  0  0  0  0  0  0  0
    7.5045    2.6189    0.0000 C   0  0  0  0  0  0  0  0  0  0  0  0
    8.2724    1.3304    0.0000 C   0  0  0  0  0  0  0  0  0  0  0  0
  1  2  1  0  0  0  0
  2  3  1  0  0  0  0
  4  3  2  0  0  0  0
  3 24  1  0  0  0  0
  5  4  1  0  0  0  0
  6  5  2  0  0  0  0
  7  6  1  0  0  0  0
  6 23  1  0  0  0  0
  8  7  2  0  0  0  0
  9  8  1  0  0  0  0
 10  9  2  0  0  0  0
 10 11  1  0  0  0  0
 23 10  1  0  0  0  0
 11 12  1  0  0  0  0
 11 13  1  0  0  0  0
 14 13  1  0  0  0  0
 13 18  1  0  0  0  0
 15 14  1  0  0  0  0
 15 16  1  0  0  0  0
 20 15  1  0  0  0  0
 16 17  1  0  0  0  0
 17 18  1  0  0  0  0
 18 19  1  0  0  0  0
 19 20  1  0  0  0  0
 20 21  1  0  0  0  0
 21 22  2  0  0  0  0
 24 23  2  0  0  0  0
M  END
> <Inchi_key>
LOUPRKONTZGTKE-UHFFFAOYSA-N

> <Source>
Mulliner

> <ID>
HT1790

> <H_MFHB>
1

> <CAS>
130-89-2

> <Cholestasis>


> <Name>
quinidine gluconate;quinidine sulfate;quinine sulfate

> <Class>
1

$$$$