

  -INDIGO-08031709442D

 57 60  0  0  0  0  0  0  0  0999 V2000
    5.8716    1.3451    0.0000 O   0  0  0  0  0  0  0  0  0  0  0  0
    7.1018    1.9425    0.0000 C   0  0  0  0  0  0  0  0  0  0  0  0
    8.0639    0.7919    0.0000 C   0  0  0  0  0  0  0  0  0  0  0  0
    7.8875    3.0205    0.0000 C   0  0  0  0  0  0  0  0  0  0  0  0
    9.2761    2.4527    0.0000 C   0  0  0  0  0  0  0  0  0  0  0  0
    8.0870    4.3718    0.0000 C   0  0  0  0  0  0  0  0  0  0  0  0
    9.5571    4.6698    0.0000 O   0  0  0  0  0  0  0  0  0  0  0  0
   10.5503    3.5455    0.0000 C   0  0  0  0  0  0  0  0  0  0  0  0
   10.0732    2.1235    0.0000 O   0  0  0  0  0  0  0  0  0  0  0  0
   12.0203    3.8435    0.0000 C   0  0  0  0  0  0  0  0  0  0  0  0
    7.3525    5.5796    0.0000 C   0  0  0  0  0  0  0  0  0  0  0  0
    8.1593    6.8440    0.0000 C   0  0  0  0  0  0  0  0  0  0  0  0
    5.8676    5.7459    0.0000 C   0  0  0  0  0  0  0  0  0  0  0  0
    6.7578    6.9535    0.0000 O   0  0  0  0  0  0  0  0  0  0  0  0
    5.2695    7.1150    0.0000 C   0  0  0  0  0  0  0  0  0  0  0  0
    6.5711    7.8607    0.0000 O   0  0  0  0  0  0  0  0  0  0  0  0
    5.2746    8.6151    0.0000 C   0  0  0  0  0  0  0  0  0  0  0  0
    3.8980    7.4594    0.0000 C   0  0  0  0  0  0  0  0  0  0  0  0
    2.6678    6.8618    0.0000 C   0  0  0  0  0  0  0  0  0  0  0  0
    1.7054    8.0124    0.0000 C   0  0  0  0  0  0  0  0  0  0  0  0
    1.8818    5.7838    0.0000 C   0  0  0  0  0  0  0  0  0  0  0  0
    0.4934    6.3517    0.0000 O   0  0  0  0  0  0  0  0  0  0  0  0
    0.2910    7.8379    0.0000 C   0  0  0  0  0  0  0  0  0  0  0  0
    1.4770    8.7563    0.0000 O   0  0  0  0  0  0  0  0  0  0  0  0
    1.2746   10.2428    0.0000 C   0  0  0  0  0  0  0  0  0  0  0  0
   -0.1138   10.8106    0.0000 C   0  0  0  0  0  0  0  0  0  0  0  0
   -1.2997    9.8921    0.0000 C   0  0  0  0  0  0  0  0  0  0  0  0
   -2.6881   10.4600    0.0000 N   0  0  0  0  0  0  0  0  0  0  0  0
   -2.8905   11.9462    0.0000 C   0  0  0  0  0  0  0  0  0  0  0  0
   -3.8741    9.5416    0.0000 C   0  0  0  0  0  0  0  0  0  0  0  0
   -1.0973    8.4058    0.0000 C   0  0  0  0  0  0  0  0  0  0  0  0
   -2.2833    7.4875    0.0000 O   0  0  0  0  0  0  0  0  0  0  0  0
   -2.0809    6.0010    0.0000 C   0  0  0  0  0  0  0  0  0  0  0  0
   -0.6925    5.4333    0.0000 O   0  0  0  0  0  0  0  0  0  0  0  0
   -3.2668    5.0826    0.0000 C   0  0  0  0  0  0  0  0  0  0  0  0
    2.4605   11.1611    0.0000 C   0  0  0  0  0  0  0  0  0  0  0  0
    1.6825    4.4325    0.0000 C   0  0  0  0  0  0  0  0  0  0  0  0
    0.2122    4.1348    0.0000 C   0  0  0  0  0  0  0  0  0  0  0  0
    2.4168    3.2248    0.0000 C   0  0  0  0  0  0  0  0  0  0  0  0
    1.6100    1.9603    0.0000 O   0  0  0  0  0  0  0  0  0  0  0  0
    0.1115    2.0269    0.0000 C   0  0  0  0  0  0  0  0  0  0  0  0
   -0.5800    3.3581    0.0000 O   0  0  0  0  0  0  0  0  0  0  0  0
   -2.0786    3.4246    0.0000 C   0  0  0  0  0  0  0  0  0  0  0  0
   -2.7703    4.7556    0.0000 C   0  0  0  0  0  0  0  0  0  0  0  0
   -2.8857    2.1601    0.0000 C   0  0  0  0  0  0  0  0  0  0  0  0
   -4.3842    2.2267    0.0000 O   0  0  0  0  0  0  0  0  0  0  0  0
   -5.1910    0.9622    0.0000 C   0  0  0  0  0  0  0  0  0  0  0  0
   -6.6896    1.0288    0.0000 O   0  0  0  0  0  0  0  0  0  0  0  0
   -4.4993   -0.3688    0.0000 C   0  0  0  0  0  0  0  0  0  0  0  0
   -2.1939    0.8292    0.0000 C   0  0  0  0  0  0  0  0  0  0  0  0
   -3.0010   -0.4353    0.0000 O   0  0  0  0  0  0  0  0  0  0  0  0
   -2.3093   -1.7665    0.0000 C   0  0  0  0  0  0  0  0  0  0  0  0
   -0.6956    0.7624    0.0000 C   0  0  0  0  0  0  0  0  0  0  0  0
    3.9017    3.0584    0.0000 C   0  0  0  0  0  0  0  0  0  0  0  0
    3.0118    1.8511    0.0000 C   0  0  0  0  0  0  0  0  0  0  0  0
    4.5001    1.6893    0.0000 C   0  0  0  0  0  0  0  0  0  0  0  0
    3.5308    0.5446    0.0000 O   0  0  0  0  0  0  0  0  0  0  0  0
  2  1  1  0  0  0  0
  1 56  1  0  0  0  0
  2  3  1  0  0  0  0
  4  2  1  0  0  0  0
  4  5  1  0  0  0  0
  6  4  1  0  0  0  0
  6  7  1  0  0  0  0
 11  6  1  0  0  0  0
  7  8  1  0  0  0  0
  8  9  2  0  0  0  0
  8 10  1  0  0  0  0
 11 12  1  0  0  0  0
 13 11  1  0  0  0  0
 13 14  2  0  0  0  0
 15 13  1  0  0  0  0
 16 15  1  0  0  0  0
 15 17  1  0  0  0  0
 18 15  1  0  0  0  0
 17 16  1  0  0  0  0
 19 18  1  0  0  0  0
 19 20  1  0  0  0  0
 21 19  1  0  0  0  0
 21 22  1  0  0  0  0
 37 21  1  0  0  0  0
 22 23  1  0  0  0  0
 24 23  1  0  0  0  0
 23 31  1  0  0  0  0
 25 24  1  0  0  0  0
 26 25  1  0  0  0  0
 25 36  1  0  0  0  0
 27 26  1  0  0  0  0
 27 28  1  0  0  0  0
 31 27  1  0  0  0  0
 28 29  1  0  0  0  0
 28 30  1  0  0  0  0
 31 32  1  0  0  0  0
 32 33  1  0  0  0  0
 33 34  2  0  0  0  0
 33 35  1  0  0  0  0
 37 38  1  0  0  0  0
 39 37  1  0  0  0  0
 39 40  1  0  0  0  0
 54 39  1  0  0  0  0
 40 41  1  0  0  0  0
 42 41  1  0  0  0  0
 41 53  1  0  0  0  0
 43 42  1  0  0  0  0
 43 44  1  0  0  0  0
 45 43  1  0  0  0  0
 45 46  1  0  0  0  0
 50 45  1  0  0  0  0
 46 47  1  0  0  0  0
 47 48  2  0  0  0  0
 47 49  1  0  0  0  0
 50 51  1  0  0  0  0
 53 50  1  0  0  0  0
 51 52  1  0  0  0  0
 54 55  1  0  0  0  0
 56 54  1  0  0  0  0
 56 57  2  0  0  0  0
M  END
> <Inchi_key>
LQCLVBQBTUVCEQ-UHFFFAOYSA-N

> <Source>
Kotsampasakou

> <ID>
EK0556

> <H_MFHB>


> <CAS>


> <Cholestasis>
1

> <Name>
troleandomycin

> <Class>
1


$$$$