
  -INDIGO-08031710012D

 37 39  0  0  0  0  0  0  0  0999 V2000
    2.8467   10.6237    0.0000 C   0  0  0  0  0  0  0  0  0  0  0  0
    4.1455    9.8737    0.0000 O   0  0  0  0  0  0  0  0  0  0  0  0
    4.1455    8.3737    0.0000 C   0  0  0  0  0  0  0  0  0  0  0  0
    5.4447    7.6237    0.0000 C   0  0  0  0  0  0  0  0  0  0  0  0
    5.4447    6.1237    0.0000 C   0  0  0  0  0  0  0  0  0  0  0  0
    6.7436    5.3737    0.0000 N   0  0  0  0  0  0  0  0  0  0  0  0
    8.0427    6.1237    0.0000 C   0  0  0  0  0  0  0  0  0  0  0  0
    8.0427    7.6237    0.0000 S   0  0  0  0  0  0  0  0  0  0  0  0
    6.7436    8.3737    0.0000 C   0  0  0  0  0  0  0  0  0  0  0  0
    8.7927    4.8247    0.0000 C   0  0  0  0  0  0  0  0  0  0  0  0
   10.2418    4.4363    0.0000 N   0  0  0  0  0  0  0  0  0  0  0  0
   10.6299    2.9875    0.0000 C   0  0  0  0  0  0  0  0  0  0  0  0
    9.5692    1.9270    0.0000 O   0  0  0  0  0  0  0  0  0  0  0  0
   12.0789    2.5993    0.0000 C   0  0  0  0  0  0  0  0  0  0  0  0
   13.1393    3.6599    0.0000 N   0  0  0  0  0  0  0  0  0  0  0  0
   14.5883    3.2717    0.0000 O   0  0  0  0  0  0  0  0  0  0  0  0
   15.6490    4.3324    0.0000 C   0  0  0  0  0  0  0  0  0  0  0  0
   12.4670    1.1504    0.0000 C   0  0  0  0  0  0  0  0  0  0  0  0
   11.5230   -0.0154    0.0000 C   0  0  0  0  0  0  0  0  0  0  0  0
   12.3401   -1.2733    0.0000 S   0  0  0  0  0  0  0  0  0  0  0  0
   13.7889   -0.8851    0.0000 C   0  0  0  0  0  0  0  0  0  0  0  0
   14.9547   -1.8291    0.0000 N   0  0  0  0  0  0  0  0  0  0  0  0
   13.8675    0.6128    0.0000 N   0  0  0  0  0  0  0  0  0  0  0  0
    7.4936    4.0747    0.0000 C   0  0  0  0  0  0  0  0  0  0  0  0
    7.1055    2.6259    0.0000 O   0  0  0  0  0  0  0  0  0  0  0  0
    4.1455    5.3737    0.0000 C   0  0  0  0  0  0  0  0  0  0  0  0
    2.8467    6.1237    0.0000 O   0  0  0  0  0  0  0  0  0  0  0  0
    4.1455    3.8737    0.0000 O   0  0  0  0  0  0  0  0  0  0  0  0
    2.8467    3.1237    0.0000 C   0  0  0  0  0  0  0  0  0  0  0  0
    2.8467    1.6237    0.0000 C   0  0  0  0  0  0  0  0  0  0  0  0
    1.5475    3.8737    0.0000 O   0  0  0  0  0  0  0  0  0  0  0  0
    0.2486    3.1237    0.0000 C   0  0  0  0  0  0  0  0  0  0  0  0
    0.2486    1.6237    0.0000 O   0  0  0  0  0  0  0  0  0  0  0  0
   -1.0506    3.8737    0.0000 O   0  0  0  0  0  0  0  0  0  0  0  0
   -2.3494    3.1237    0.0000 C   0  0  0  0  0  0  0  0  0  0  0  0
   -3.6486    3.8737    0.0000 C   0  0  0  0  0  0  0  0  0  0  0  0
   -2.3494    1.6237    0.0000 C   0  0  0  0  0  0  0  0  0  0  0  0
  1  2  1  0  0  0  0
  2  3  1  0  0  0  0
  3  4  1  0  0  0  0
  5  4  2  0  0  0  0
  4  9  1  0  0  0  0
  6  5  1  0  0  0  0
  5 26  1  0  0  0  0
  6  7  1  0  0  0  0
 24  6  1  0  0  0  0
  8  7  1  0  0  0  0
  7 10  1  0  0  0  0
  9  8  1  0  0  0  0
 10 11  1  0  0  0  0
 10 24  1  0  0  0  0
 11 12  1  0  0  0  0
 12 13  2  0  0  0  0
 12 14  1  0  0  0  0
 14 15  2  0  0  0  0
 14 18  1  0  0  0  0
 15 16  1  0  0  0  0
 16 17  1  0  0  0  0
 19 18  2  0  0  0  0
 18 23  1  0  0  0  0
 20 19  1  0  0  0  0
 21 20  1  0  0  0  0
 21 22  1  0  0  0  0
 23 21  2  0  0  0  0
 24 25  2  0  0  0  0
 26 27  2  0  0  0  0
 26 28  1  0  0  0  0
 28 29  1  0  0  0  0
 29 30  1  0  0  0  0
 29 31  1  0  0  0  0
 31 32  1  0  0  0  0
 32 33  2  0  0  0  0
 32 34  1  0  0  0  0
 34 35  1  0  0  0  0
 35 36  1  0  0  0  0
 35 37  1  0  0  0  0
M  END
> <Inchi_key>
LTINZAODLRIQIX-DHRITJCHSA-N

> <Source>
Mulliner

> <ID>
HT0419

> <H_MFHB>
1

> <CAS>


> <Cholestasis>


> <Name>
cefpodoxime proxetil

> <Class>
1

$$$$