

  -INDIGO-08031710012D

 28 30  0  0  0  0  0  0  0  0999 V2000
    5.1885    1.1011    0.0000 N   0  0  0  0  0  0  0  0  0  0  0  0
    4.4383    2.4002    0.0000 C   0  0  0  0  0  0  0  0  0  0  0  0
    2.9384    2.4002    0.0000 C   0  0  0  0  0  0  0  0  0  0  0  0
    2.1884    1.1011    0.0000 C   0  0  0  0  0  0  0  0  0  0  0  0
    2.9384   -0.1979    0.0000 O   0  0  0  0  0  0  0  0  0  0  0  0
    0.6883    1.1011    0.0000 N   0  0  0  0  0  0  0  0  0  0  0  0
   -0.0617    2.4002    0.0000 C   0  0  0  0  0  0  0  0  0  0  0  0
   -1.5616    2.4002    0.0000 C   0  0  0  0  0  0  0  0  0  0  0  0
   -2.3115    1.1011    0.0000 N   0  0  0  0  0  0  0  0  0  0  0  0
   -1.5616   -0.1979    0.0000 C   0  0  0  0  0  0  0  0  0  0  0  0
   -0.0617   -0.1979    0.0000 C   0  0  0  0  0  0  0  0  0  0  0  0
   -2.5653   -1.3126    0.0000 N   0  0  0  0  0  0  0  0  0  0  0  0
   -3.9356   -0.7025    0.0000 N   0  0  0  0  0  0  0  0  0  0  0  0
   -3.7789    0.7892    0.0000 C   0  0  0  0  0  0  0  0  0  0  0  0
   -4.8936    1.7929    0.0000 C   0  0  0  0  0  0  0  0  0  0  0  0
   -3.8899    2.9077    0.0000 F   0  0  0  0  0  0  0  0  0  0  0  0
   -5.8973    0.6782    0.0000 F   0  0  0  0  0  0  0  0  0  0  0  0
   -6.0083    2.7966    0.0000 F   0  0  0  0  0  0  0  0  0  0  0  0
    5.1885    3.6992    0.0000 C   0  0  0  0  0  0  0  0  0  0  0  0
    6.6884    3.6992    0.0000 C   0  0  0  0  0  0  0  0  0  0  0  0
    7.4384    2.4002    0.0000 C   0  0  0  0  0  0  0  0  0  0  0  0
    8.9383    2.4002    0.0000 C   0  0  0  0  0  0  0  0  0  0  0  0
    9.6885    1.1011    0.0000 F   0  0  0  0  0  0  0  0  0  0  0  0
    9.6885    3.6992    0.0000 C   0  0  0  0  0  0  0  0  0  0  0  0
   11.1884    3.6992    0.0000 F   0  0  0  0  0  0  0  0  0  0  0  0
    8.9383    4.9982    0.0000 C   0  0  0  0  0  0  0  0  0  0  0  0
    7.4384    4.9982    0.0000 C   0  0  0  0  0  0  0  0  0  0  0  0
    6.6884    6.2973    0.0000 F   0  0  0  0  0  0  0  0  0  0  0  0
  1  2  1  0  0  0  0
  2  3  1  0  0  0  0
  2 19  1  0  0  0  0
  3  4  1  0  0  0  0
  4  5  2  0  0  0  0
  4  6  1  0  0  0  0
  7  6  1  0  0  0  0
  6 11  1  0  0  0  0
  8  7  1  0  0  0  0
  9  8  1  0  0  0  0
  9 10  1  0  0  0  0
 14  9  1  0  0  0  0
 11 10  1  0  0  0  0
 10 12  2  0  0  0  0
 12 13  1  0  0  0  0
 13 14  2  0  0  0  0
 14 15  1  0  0  0  0
 15 16  1  0  0  0  0
 15 17  1  0  0  0  0
 15 18  1  0  0  0  0
 19 20  1  0  0  0  0
 21 20  2  0  0  0  0
 20 27  1  0  0  0  0
 22 21  1  0  0  0  0
 22 23  1  0  0  0  0
 24 22  2  0  0  0  0
 24 25  1  0  0  0  0
 26 24  1  0  0  0  0
 27 26  2  0  0  0  0
 27 28  1  0  0  0  0
M  END
> <Inchi_key>
MFFMDFFZMYYVKS-UHFFFAOYSA-N

> <Source>
Mulliner

> <ID>
HT1893

> <H_MFHB>
1

> <CAS>


> <Cholestasis>


> <Name>
sitagliptin phosphate

> <Class>
1


$$$$