

  -INDIGO-08031710012D

 26 28  0  0  0  0  0  0  0  0999 V2000
    1.7192   -3.1453    0.0000 F   0  0  0  0  0  0  0  0  0  0  0  0
    3.0183   -2.3953    0.0000 C   0  0  0  0  0  0  0  0  0  0  0  0
    4.3174   -3.1453    0.0000 F   0  0  0  0  0  0  0  0  0  0  0  0
    3.0183   -0.8953    0.0000 O   0  0  0  0  0  0  0  0  0  0  0  0
    4.3174   -0.1453    0.0000 C   0  0  0  0  0  0  0  0  0  0  0  0
    5.6163   -0.8953    0.0000 C   0  0  0  0  0  0  0  0  0  0  0  0
    6.9154   -0.1453    0.0000 C   0  0  0  0  0  0  0  0  0  0  0  0
    6.9154    1.3547    0.0000 C   0  0  0  0  0  0  0  0  0  0  0  0
    5.6163    2.1047    0.0000 C   0  0  0  0  0  0  0  0  0  0  0  0
    4.3174    1.3547    0.0000 C   0  0  0  0  0  0  0  0  0  0  0  0
    3.0183    2.1047    0.0000 O   0  0  0  0  0  0  0  0  0  0  0  0
    3.0183    3.6047    0.0000 C   0  0  0  0  0  0  0  0  0  0  0  0
    1.7192    4.3547    0.0000 C   0  0  0  0  0  0  0  0  0  0  0  0
    0.9692    5.6537    0.0000 C   0  0  0  0  0  0  0  0  0  0  0  0
    0.2192    4.3547    0.0000 C   0  0  0  0  0  0  0  0  0  0  0  0
    8.2145    2.1047    0.0000 C   0  0  0  0  0  0  0  0  0  0  0  0
    8.2145    3.6047    0.0000 O   0  0  0  0  0  0  0  0  0  0  0  0
    9.5134    1.3547    0.0000 N   0  0  0  0  0  0  0  0  0  0  0  0
   10.8125    2.1047    0.0000 C   0  0  0  0  0  0  0  0  0  0  0  0
   12.1116    1.3547    0.0000 C   0  0  0  0  0  0  0  0  0  0  0  0
   12.1116   -0.1453    0.0000 Cl  0  0  0  0  0  0  0  0  0  0  0  0
   13.4105    2.1047    0.0000 C   0  0  0  0  0  0  0  0  0  0  0  0
   13.4105    3.6047    0.0000 N   0  0  0  0  0  0  0  0  0  0  0  0
   12.1116    4.3547    0.0000 C   0  0  0  0  0  0  0  0  0  0  0  0
   10.8125    3.6047    0.0000 C   0  0  0  0  0  0  0  0  0  0  0  0
    9.5134    4.3547    0.0000 Cl  0  0  0  0  0  0  0  0  0  0  0  0
  1  2  1  0  0  0  0
  2  3  1  0  0  0  0
  2  4  1  0  0  0  0
  4  5  1  0  0  0  0
  6  5  2  0  0  0  0
  5 10  1  0  0  0  0
  7  6  1  0  0  0  0
  8  7  2  0  0  0  0
  9  8  1  0  0  0  0
  8 16  1  0  0  0  0
 10  9  2  0  0  0  0
 10 11  1  0  0  0  0
 11 12  1  0  0  0  0
 12 13  1  0  0  0  0
 14 13  1  0  0  0  0
 13 15  1  0  0  0  0
 15 14  1  0  0  0  0
 16 17  2  0  0  0  0
 16 18  1  0  0  0  0
 18 19  1  0  0  0  0
 20 19  2  0  0  0  0
 19 25  1  0  0  0  0
 20 21  1  0  0  0  0
 22 20  1  0  0  0  0
 23 22  2  0  0  0  0
 24 23  1  0  0  0  0
 25 24  2  0  0  0  0
 25 26  1  0  0  0  0
M  END
> <Inchi_key>
MNDBXUUTURYVHR-UHFFFAOYSA-N

> <Source>
Mulliner

> <ID>
HT1839

> <H_MFHB>
1

> <CAS>


> <Cholestasis>


> <Name>
roflumilast

> <Class>
1


$$$$