

  -INDIGO-08031710012D

 20 22  0  0  0  0  0  0  0  0999 V2000
    2.8095   -1.1434    0.0000 C   0  0  0  0  0  0  0  0  0  0  0  0
    1.5364   -0.3501    0.0000 C   0  0  0  0  0  0  0  0  0  0  0  0
    2.8212    0.4241    0.0000 C   0  0  0  0  0  0  0  0  0  0  0  0
    4.1340   -0.3015    0.0000 N   0  0  0  0  0  0  0  0  0  0  0  0
    5.4928    0.3342    0.0000 C   0  0  0  0  0  0  0  0  0  0  0  0
    6.5171   -0.7616    0.0000 C   0  0  0  0  0  0  0  0  0  0  0  0
    5.7914   -2.0744    0.0000 N   0  0  0  0  0  0  0  0  0  0  0  0
    4.3188   -1.7901    0.0000 N   0  0  0  0  0  0  0  0  0  0  0  0
    0.6638    0.8700    0.0000 C   0  0  0  0  0  0  0  0  0  0  0  0
   -0.7662    0.4171    0.0000 N   0  0  0  0  0  0  0  0  0  0  0  0
   -0.7775   -1.0829    0.0000 C   0  0  0  0  0  0  0  0  0  0  0  0
   -2.2773   -1.0717    0.0000 C   0  0  0  0  0  0  0  0  0  0  0  0
   -2.2660    0.4283    0.0000 C   0  0  0  0  0  0  0  0  0  0  0  0
   -3.3189    1.4968    0.0000 O   0  0  0  0  0  0  0  0  0  0  0  0
    0.6457   -1.5570    0.0000 S   0  0  0  0  0  0  0  0  0  0  0  0
    0.3485   -3.0273    0.0000 O   0  0  0  0  0  0  0  0  0  0  0  0
    1.8043   -2.5097    0.0000 O   0  0  0  0  0  0  0  0  0  0  0  0
    1.1380    2.2930    0.0000 C   0  0  0  0  0  0  0  0  0  0  0  0
    2.6075    2.5940    0.0000 O   0  0  0  0  0  0  0  0  0  0  0  0
    0.1426    3.4152    0.0000 O   0  0  0  0  0  0  0  0  0  0  0  0
  1  2  1  0  0  0  0
  2  3  1  0  0  0  0
  9  2  1  0  0  0  0
  2 15  1  0  0  0  0
  3  4  1  0  0  0  0
  5  4  1  0  0  0  0
  4  8  1  0  0  0  0
  6  5  2  0  0  0  0
  7  6  1  0  0  0  0
  8  7  2  0  0  0  0
 10  9  1  0  0  0  0
  9 18  1  0  0  0  0
 10 11  1  0  0  0  0
 13 10  1  0  0  0  0
 11 12  1  0  0  0  0
 15 11  1  0  0  0  0
 12 13  1  0  0  0  0
 13 14  2  0  0  0  0
 15 16  2  0  0  0  0
 15 17  2  0  0  0  0
 18 19  2  0  0  0  0
 18 20  1  0  0  0  0
M  END
> <Inchi_key>
LPQZKKCYTLCDGQ-UHFFFAOYSA-N

> <Source>
Mulliner

> <ID>
HT1985

> <H_MFHB>
1

> <CAS>
89786-04-9

> <Cholestasis>


> <Name>
tazobactam

> <Class>
1


$$$$