
  -INDIGO-08031710012D

 29 32  0  0  0  0  0  0  0  0999 V2000
    0.4215   -6.2217    0.0000 C   0  0  0  0  0  0  0  0  0  0  0  0
    1.6387   -5.3452    0.0000 C   0  0  0  0  0  0  0  0  0  0  0  0
    1.6453   -3.8452    0.0000 N   0  0  0  0  0  0  0  0  0  0  0  0
    3.0737   -3.3878    0.0000 N   0  0  0  0  0  0  0  0  0  0  0  0
    3.9503   -4.6051    0.0000 C   0  0  0  0  0  0  0  0  0  0  0  0
    5.4503   -4.6116    0.0000 S   0  0  0  0  0  0  0  0  0  0  0  0
    6.2059   -3.3157    0.0000 C   0  0  0  0  0  0  0  0  0  0  0  0
    7.7057   -3.3221    0.0000 C   0  0  0  0  0  0  0  0  0  0  0  0
    8.4613   -2.0262    0.0000 C   0  0  0  0  0  0  0  0  0  0  0  0
    9.9613   -2.0326    0.0000 N   0  0  0  0  0  0  0  0  0  0  0  0
   10.7058   -3.3349    0.0000 C   0  0  0  0  0  0  0  0  0  0  0  0
    9.9502   -4.6307    0.0000 S   0  0  0  0  0  0  0  0  0  0  0  0
    8.4501   -4.6243    0.0000 C   0  0  0  0  0  0  0  0  0  0  0  0
   12.0081   -2.5904    0.0000 C   0  0  0  0  0  0  0  0  0  0  0  0
   13.4551   -2.9848    0.0000 N   0  0  0  0  0  0  0  0  0  0  0  0
   14.5205   -1.9287    0.0000 C   0  0  0  0  0  0  0  0  0  0  0  0
   14.1382   -0.4782    0.0000 O   0  0  0  0  0  0  0  0  0  0  0  0
   15.9675   -2.3231    0.0000 C   0  0  0  0  0  0  0  0  0  0  0  0
   17.0329   -1.2670    0.0000 N   0  0  0  0  0  0  0  0  0  0  0  0
   16.8045    0.2155    0.0000 C   0  0  0  0  0  0  0  0  0  0  0  0
   18.1438    0.8908    0.0000 N   0  0  0  0  0  0  0  0  0  0  0  0
   19.2000   -0.1744    0.0000 N   0  0  0  0  0  0  0  0  0  0  0  0
   18.5132   -1.5080    0.0000 N   0  0  0  0  0  0  0  0  0  0  0  0
   11.2634   -1.2882    0.0000 C   0  0  0  0  0  0  0  0  0  0  0  0
   11.6579    0.1590    0.0000 O   0  0  0  0  0  0  0  0  0  0  0  0
    7.7168   -0.7240    0.0000 C   0  0  0  0  0  0  0  0  0  0  0  0
    6.2168   -0.7176    0.0000 O   0  0  0  0  0  0  0  0  0  0  0  0
    8.4725    0.5718    0.0000 O   0  0  0  0  0  0  0  0  0  0  0  0
    3.0634   -5.8148    0.0000 S   0  0  0  0  0  0  0  0  0  0  0  0
  1  2  1  0  0  0  0
  3  2  2  0  0  0  0
  2 29  1  0  0  0  0
  4  3  1  0  0  0  0
  5  4  2  0  0  0  0
  5  6  1  0  0  0  0
 29  5  1  0  0  0  0
  6  7  1  0  0  0  0
  7  8  1  0  0  0  0
  9  8  2  0  0  0  0
  8 13  1  0  0  0  0
 10  9  1  0  0  0  0
  9 26  1  0  0  0  0
 10 11  1  0  0  0  0
 24 10  1  0  0  0  0
 12 11  1  0  0  0  0
 11 14  1  0  0  0  0
 13 12  1  0  0  0  0
 14 15  1  0  0  0  0
 14 24  1  0  0  0  0
 15 16  1  0  0  0  0
 16 17  2  0  0  0  0
 16 18  1  0  0  0  0
 18 19  1  0  0  0  0
 20 19  1  0  0  0  0
 19 23  1  0  0  0  0
 21 20  2  0  0  0  0
 22 21  1  0  0  0  0
 23 22  2  0  0  0  0
 24 25  2  0  0  0  0
 26 27  2  0  0  0  0
 26 28  1  0  0  0  0
M  END
> <Inchi_key>
MLYYVTUWGNIJIB-UHFFFAOYSA-N

> <Source>
Mulliner , Kotsampasakou

> <ID>
EK0102;HT0400

> <H_MFHB>
1

> <CAS>
27164-46-1

> <Cholestasis>
1

> <Name>
cefazolin sodium;cefazolin

> <Class>
1

$$$$