

  -INDIGO-08031710012D

 39 44  0  0  0  0  0  0  0  0999 V2000
    4.6813    2.2032    0.0000 C   0  0  0  0  0  0  0  0  0  0  0  0
    5.7103    1.1117    0.0000 C   0  0  0  0  0  0  0  0  0  0  0  0
    7.1700    1.4572    0.0000 C   0  0  0  0  0  0  0  0  0  0  0  0
    5.2795   -0.3251    0.0000 C   0  0  0  0  0  0  0  0  0  0  0  0
    3.8197   -0.6704    0.0000 O   0  0  0  0  0  0  0  0  0  0  0  0
    6.3084   -1.4165    0.0000 O   0  0  0  0  0  0  0  0  0  0  0  0
    5.8776   -2.8534    0.0000 C   0  0  0  0  0  0  0  0  0  0  0  0
    6.9068   -3.9448    0.0000 C   0  0  0  0  0  0  0  0  0  0  0  0
    8.3665   -3.5993    0.0000 O   0  0  0  0  0  0  0  0  0  0  0  0
    6.4760   -5.3816    0.0000 C   0  0  0  0  0  0  0  0  0  0  0  0
    7.8637   -4.8121    0.0000 O   0  0  0  0  0  0  0  0  0  0  0  0
    8.8340   -5.9558    0.0000 C   0  0  0  0  0  0  0  0  0  0  0  0
    8.0461   -7.2323    0.0000 O   0  0  0  0  0  0  0  0  0  0  0  0
    6.5887   -6.8773    0.0000 C   0  0  0  0  0  0  0  0  0  0  0  0
    5.2011   -7.4467    0.0000 C   0  0  0  0  0  0  0  0  0  0  0  0
    4.2305   -6.3030    0.0000 C   0  0  0  0  0  0  0  0  0  0  0  0
    2.7314   -6.2588    0.0000 C   0  0  0  0  0  0  0  0  0  0  0  0
    1.9435   -7.5353    0.0000 C   0  0  0  0  0  0  0  0  0  0  0  0
    0.4439   -7.4912    0.0000 C   0  0  0  0  0  0  0  0  0  0  0  0
   -0.2675   -6.1706    0.0000 C   0  0  0  0  0  0  0  0  0  0  0  0
   -1.7668   -6.1264    0.0000 C   0  0  0  0  0  0  0  0  0  0  0  0
   -2.4782   -4.8058    0.0000 C   0  0  0  0  0  0  0  0  0  0  0  0
   -3.9775   -4.7615    0.0000 O   0  0  0  0  0  0  0  0  0  0  0  0
   -1.6902   -3.5293    0.0000 C   0  0  0  0  0  0  0  0  0  0  0  0
   -0.1909   -3.5736    0.0000 C   0  0  0  0  0  0  0  0  0  0  0  0
    0.5205   -4.8941    0.0000 C   0  0  0  0  0  0  0  0  0  0  0  0
    1.3084   -3.6178    0.0000 C   0  0  0  0  0  0  0  0  0  0  0  0
    2.0198   -4.9384    0.0000 C   0  0  0  0  0  0  0  0  0  0  0  0
    2.8077   -3.6619    0.0000 C   0  0  0  0  0  0  0  0  0  0  0  0
    2.0963   -2.3414    0.0000 O   0  0  0  0  0  0  0  0  0  0  0  0
    4.3073   -3.7060    0.0000 C   0  0  0  0  0  0  0  0  0  0  0  0
    5.0187   -5.0266    0.0000 C   0  0  0  0  0  0  0  0  0  0  0  0
    5.6923   -3.6864    0.0000 C   0  0  0  0  0  0  0  0  0  0  0  0
   10.3299   -5.8430    0.0000 C   0  0  0  0  0  0  0  0  0  0  0  0
   10.9800   -4.4912    0.0000 C   0  0  0  0  0  0  0  0  0  0  0  0
   12.4759   -4.3784    0.0000 C   0  0  0  0  0  0  0  0  0  0  0  0
   13.3214   -5.6175    0.0000 C   0  0  0  0  0  0  0  0  0  0  0  0
   12.6713   -6.9693    0.0000 C   0  0  0  0  0  0  0  0  0  0  0  0
   11.1754   -7.0821    0.0000 C   0  0  0  0  0  0  0  0  0  0  0  0
  1  2  1  0  0  0  0
  2  3  1  0  0  0  0
  2  4  1  0  0  0  0
  4  5  2  0  0  0  0
  4  6  1  0  0  0  0
  6  7  1  0  0  0  0
  7  8  1  0  0  0  0
  8  9  2  0  0  0  0
  8 10  1  0  0  0  0
 11 10  1  0  0  0  0
 14 10  1  0  0  0  0
 10 32  1  0  0  0  0
 12 11  1  0  0  0  0
 13 12  1  0  0  0  0
 12 34  1  0  0  0  0
 14 13  1  0  0  0  0
 15 14  1  0  0  0  0
 16 15  1  0  0  0  0
 17 16  1  0  0  0  0
 16 32  1  0  0  0  0
 18 17  1  0  0  0  0
 17 28  1  0  0  0  0
 19 18  1  0  0  0  0
 20 19  1  0  0  0  0
 21 20  2  0  0  0  0
 20 26  1  0  0  0  0
 22 21  1  0  0  0  0
 22 23  2  0  0  0  0
 24 22  1  0  0  0  0
 25 24  2  0  0  0  0
 26 25  1  0  0  0  0
 26 27  1  0  0  0  0
 28 26  1  0  0  0  0
 29 28  1  0  0  0  0
 29 30  1  0  0  0  0
 31 29  1  0  0  0  0
 32 31  1  0  0  0  0
 32 33  1  0  0  0  0
 35 34  1  0  0  0  0
 34 39  1  0  0  0  0
 36 35  1  0  0  0  0
 37 36  1  0  0  0  0
 38 37  1  0  0  0  0
 39 38  1  0  0  0  0
M  END
> <Inchi_key>
LUKZNWIVRBCLON-UHFFFAOYSA-N

> <Source>
Mulliner

> <ID>
HT0479

> <H_MFHB>
1

> <CAS>


> <Cholestasis>


> <Name>
ciclesonide

> <Class>
1


$$$$