

  -INDIGO-08031710012D

 21 23  0  0  0  0  0  0  0  0999 V2000
   11.5198   -0.6889    0.0000 C   0  0  0  0  0  0  0  0  0  0  0  0
   10.4590    0.3718    0.0000 N   0  0  0  0  0  0  0  0  0  0  0  0
   10.8473    1.8207    0.0000 C   0  0  0  0  0  0  0  0  0  0  0  0
    9.0102   -0.0165    0.0000 C   0  0  0  0  0  0  0  0  0  0  0  0
    7.9494    1.0442    0.0000 C   0  0  0  0  0  0  0  0  0  0  0  0
    6.5006    0.6559    0.0000 C   0  0  0  0  0  0  0  0  0  0  0  0
    5.4400    1.7166    0.0000 N   0  0  0  0  0  0  0  0  0  0  0  0
    4.0238    1.2220    0.0000 C   0  0  0  0  0  0  0  0  0  0  0  0
    3.9676   -0.2769    0.0000 C   0  0  0  0  0  0  0  0  0  0  0  0
    2.6413   -0.9777    0.0000 C   0  0  0  0  0  0  0  0  0  0  0  0
    1.3713   -0.1795    0.0000 C   0  0  0  0  0  0  0  0  0  0  0  0
    1.4277    1.3194    0.0000 C   0  0  0  0  0  0  0  0  0  0  0  0
    2.7539    2.0202    0.0000 C   0  0  0  0  0  0  0  0  0  0  0  0
    2.5854    3.5107    0.0000 C   0  0  0  0  0  0  0  0  0  0  0  0
    3.6451    4.5723    0.0000 C   0  0  0  0  0  0  0  0  0  0  0  0
    5.1363    4.4027    0.0000 C   0  0  0  0  0  0  0  0  0  0  0  0
    5.8370    5.7289    0.0000 C   0  0  0  0  0  0  0  0  0  0  0  0
    7.3359    5.7852    0.0000 C   0  0  0  0  0  0  0  0  0  0  0  0
    8.1340    4.5153    0.0000 C   0  0  0  0  0  0  0  0  0  0  0  0
    7.4335    3.1890    0.0000 C   0  0  0  0  0  0  0  0  0  0  0  0
    5.9344    3.1327    0.0000 C   0  0  0  0  0  0  0  0  0  0  0  0
  1  2  1  0  0  0  0
  2  3  1  0  0  0  0
  2  4  1  0  0  0  0
  4  5  1  0  0  0  0
  5  6  1  0  0  0  0
  6  7  1  0  0  0  0
  8  7  1  0  0  0  0
  7 21  1  0  0  0  0
  9  8  2  0  0  0  0
  8 13  1  0  0  0  0
 10  9  1  0  0  0  0
 11 10  2  0  0  0  0
 12 11  1  0  0  0  0
 13 12  2  0  0  0  0
 14 13  1  0  0  0  0
 15 14  1  0  0  0  0
 16 15  1  0  0  0  0
 17 16  2  0  0  0  0
 16 21  1  0  0  0  0
 18 17  1  0  0  0  0
 19 18  2  0  0  0  0
 20 19  1  0  0  0  0
 21 20  2  0  0  0  0
M  END
> <Inchi_key>
BCGWQEUPMDMJNV-UHFFFAOYSA-N

> <Source>
Mulliner , Kotsampasakou

> <ID>
EK0268;HT1082

> <H_MFHB>
1

> <CAS>


> <Cholestasis>
1

> <Name>
imipramine hydrochloride;imipramine

> <Class>
1


$$$$