

  -INDIGO-08031710012D

 22 24  0  0  0  0  0  0  0  0999 V2000
    3.4322   -1.1352    0.0000 C   0  0  0  0  0  0  0  0  0  0  0  0
    2.2280   -0.2409    0.0000 C   0  0  0  0  0  0  0  0  0  0  0  0
    2.4005    1.2493    0.0000 C   0  0  0  0  0  0  0  0  0  0  0  0
    3.7073    1.9855    0.0000 C   0  0  0  0  0  0  0  0  0  0  0  0
    5.0711    1.3610    0.0000 C   0  0  0  0  0  0  0  0  0  0  0  0
    6.2939    2.2299    0.0000 C   0  0  0  0  0  0  0  0  0  0  0  0
    7.6579    1.6054    0.0000 N   0  0  0  0  0  0  0  0  0  0  0  0
    8.8805    2.4743    0.0000 C   0  0  0  0  0  0  0  0  0  0  0  0
    7.7989    0.1121    0.0000 C   0  0  0  0  0  0  0  0  0  0  0  0
    3.4110    3.4560    0.0000 C   0  0  0  0  0  0  0  0  0  0  0  0
    1.9209    3.6284    0.0000 C   0  0  0  0  0  0  0  0  0  0  0  0
    1.0521    4.8512    0.0000 C   0  0  0  0  0  0  0  0  0  0  0  0
   -0.4413    4.7101    0.0000 C   0  0  0  0  0  0  0  0  0  0  0  0
   -1.0659    3.3464    0.0000 C   0  0  0  0  0  0  0  0  0  0  0  0
   -0.1970    2.1235    0.0000 C   0  0  0  0  0  0  0  0  0  0  0  0
    1.2965    2.2646    0.0000 C   0  0  0  0  0  0  0  0  0  0  0  0
    0.8514   -0.8364    0.0000 C   0  0  0  0  0  0  0  0  0  0  0  0
    0.6788   -2.3265    0.0000 C   0  0  0  0  0  0  0  0  0  0  0  0
   -0.6978   -2.9221    0.0000 C   0  0  0  0  0  0  0  0  0  0  0  0
   -1.9020   -2.0278    0.0000 C   0  0  0  0  0  0  0  0  0  0  0  0
   -1.7296   -0.5377    0.0000 C   0  0  0  0  0  0  0  0  0  0  0  0
   -0.3528    0.0581    0.0000 N   0  0  0  0  0  0  0  0  0  0  0  0
  1  2  1  0  0  0  0
  2  3  1  0  0  0  0
  2 17  1  0  0  0  0
  4  3  2  0  0  0  0
  3 16  1  0  0  0  0
  4  5  1  0  0  0  0
 10  4  1  0  0  0  0
  5  6  1  0  0  0  0
  6  7  1  0  0  0  0
  7  8  1  0  0  0  0
  7  9  1  0  0  0  0
 11 10  1  0  0  0  0
 12 11  1  0  0  0  0
 11 16  2  0  0  0  0
 13 12  2  0  0  0  0
 14 13  1  0  0  0  0
 15 14  2  0  0  0  0
 16 15  1  0  0  0  0
 18 17  2  0  0  0  0
 17 22  1  0  0  0  0
 19 18  1  0  0  0  0
 20 19  2  0  0  0  0
 21 20  1  0  0  0  0
 22 21  2  0  0  0  0
M  END
> <Inchi_key>
MVMQESMQSYOVGV-UHFFFAOYSA-N

> <Source>
Mulliner

> <ID>
HT0680

> <H_MFHB>
1

> <CAS>


> <Cholestasis>


> <Name>
dimetindene;dimethindene

> <Class>
1


$$$$