

  -INDIGO-08031710012D

 21 24  0  0  0  0  0  0  0  0999 V2000
    2.4084    2.3831    0.0000 N   0  0  0  0  0  0  0  0  0  0  0  0
    2.3925    0.8832    0.0000 C   0  0  0  0  0  0  0  0  0  0  0  0
    1.0858    0.1470    0.0000 N   0  0  0  0  0  0  0  0  0  0  0  0
    1.0699   -1.3529    0.0000 C   0  0  0  0  0  0  0  0  0  0  0  0
   -0.2372   -2.0891    0.0000 N   0  0  0  0  0  0  0  0  0  0  0  0
   -1.5283   -1.3253    0.0000 C   0  0  0  0  0  0  0  0  0  0  0  0
   -2.2644   -0.0184    0.0000 C   0  0  0  0  0  0  0  0  0  0  0  0
   -3.0281   -1.3094    0.0000 C   0  0  0  0  0  0  0  0  0  0  0  0
    2.3607   -2.1166    0.0000 C   0  0  0  0  0  0  0  0  0  0  0  0
    2.6570   -3.5871    0.0000 N   0  0  0  0  0  0  0  0  0  0  0  0
    4.1471   -3.7597    0.0000 C   0  0  0  0  0  0  0  0  0  0  0  0
    4.7717   -2.3959    0.0000 N   0  0  0  0  0  0  0  0  0  0  0  0
    6.2421   -2.0997    0.0000 C   0  0  0  0  0  0  0  0  0  0  0  0
    7.3461   -3.1151    0.0000 C   0  0  0  0  0  0  0  0  0  0  0  0
    8.6531   -2.3790    0.0000 C   0  0  0  0  0  0  0  0  0  0  0  0
   10.0168   -3.0036    0.0000 C   0  0  0  0  0  0  0  0  0  0  0  0
   11.2397   -2.1348    0.0000 O   0  0  0  0  0  0  0  0  0  0  0  0
    8.3567   -0.9085    0.0000 C   0  0  0  0  0  0  0  0  0  0  0  0
    6.8667   -0.7359    0.0000 C   0  0  0  0  0  0  0  0  0  0  0  0
    3.6677   -1.3805    0.0000 C   0  0  0  0  0  0  0  0  0  0  0  0
    3.6835    0.1194    0.0000 N   0  0  0  0  0  0  0  0  0  0  0  0
  1  2  1  0  0  0  0
  3  2  2  0  0  0  0
  2 21  1  0  0  0  0
  4  3  1  0  0  0  0
  4  5  1  0  0  0  0
  9  4  2  0  0  0  0
  5  6  1  0  0  0  0
  7  6  1  0  0  0  0
  6  8  1  0  0  0  0
  8  7  1  0  0  0  0
 10  9  1  0  0  0  0
  9 20  1  0  0  0  0
 11 10  2  0  0  0  0
 12 11  1  0  0  0  0
 12 13  1  0  0  0  0
 20 12  1  0  0  0  0
 14 13  1  0  0  0  0
 13 19  1  0  0  0  0
 15 14  1  0  0  0  0
 15 16  1  0  0  0  0
 18 15  1  0  0  0  0
 16 17  1  0  0  0  0
 19 18  2  0  0  0  0
 21 20  2  0  0  0  0
M  END
> <Inchi_key>
MCGSCOLBFJQGHM-UHFFFAOYSA-N

> <Source>
Mulliner

> <ID>
HT0042

> <H_MFHB>
1

> <CAS>
136470-78-5

> <Cholestasis>


> <Name>
abacavir sulfate;abacavir

> <Class>
1


$$$$