
  -INDIGO-08031710012D

 25 26  0  0  0  0  0  0  0  0999 V2000
    0.6732   -0.1660    0.0000 C   0  0  0  0  0  0  0  0  0  0  0  0
    1.4233    1.1331    0.0000 C   0  0  0  0  0  0  0  0  0  0  0  0
    0.6732    2.4320    0.0000 N   0  0  0  0  0  0  0  0  0  0  0  0
   -0.8267    2.4320    0.0000 C   0  0  0  0  0  0  0  0  0  0  0  0
   -1.5768    1.1331    0.0000 C   0  0  0  0  0  0  0  0  0  0  0  0
   -3.0769    1.1331    0.0000 C   0  0  0  0  0  0  0  0  0  0  0  0
   -3.8268   -0.1660    0.0000 C   0  0  0  0  0  0  0  0  0  0  0  0
   -3.0769   -1.4651    0.0000 C   0  0  0  0  0  0  0  0  0  0  0  0
   -3.8268   -2.7641    0.0000 C   0  0  0  0  0  0  0  0  0  0  0  0
   -5.3269   -2.7641    0.0000 C   0  0  0  0  0  0  0  0  0  0  0  0
   -6.0768   -1.4651    0.0000 C   0  0  0  0  0  0  0  0  0  0  0  0
   -5.3269   -0.1660    0.0000 C   0  0  0  0  0  0  0  0  0  0  0  0
   -1.5768    3.7311    0.0000 C   0  0  0  0  0  0  0  0  0  0  0  0
   -3.0769    3.7311    0.0000 O   0  0  0  0  0  0  0  0  0  0  0  0
   -0.8267    5.0301    0.0000 O   0  0  0  0  0  0  0  0  0  0  0  0
    2.9231    1.1331    0.0000 C   0  0  0  0  0  0  0  0  0  0  0  0
    3.6733    2.4320    0.0000 O   0  0  0  0  0  0  0  0  0  0  0  0
    3.6733   -0.1660    0.0000 N   0  0  0  0  0  0  0  0  0  0  0  0
    3.0631   -1.5362    0.0000 C   0  0  0  0  0  0  0  0  0  0  0  0
    4.1778   -2.5400    0.0000 C   0  0  0  0  0  0  0  0  0  0  0  0
    5.4767   -1.7900    0.0000 C   0  0  0  0  0  0  0  0  0  0  0  0
    5.1650   -0.3228    0.0000 C   0  0  0  0  0  0  0  0  0  0  0  0
    6.1687    0.7918    0.0000 C   0  0  0  0  0  0  0  0  0  0  0  0
    5.7050    2.2186    0.0000 O   0  0  0  0  0  0  0  0  0  0  0  0
    7.6359    0.4800    0.0000 O   0  0  0  0  0  0  0  0  0  0  0  0
  1  2  1  0  0  0  0
  2  3  1  0  0  0  0
  2 16  1  0  0  0  0
  3  4  1  0  0  0  0
  4  5  1  0  0  0  0
  4 13  1  0  0  0  0
  5  6  1  0  0  0  0
  6  7  1  0  0  0  0
  8  7  2  0  0  0  0
  7 12  1  0  0  0  0
  9  8  1  0  0  0  0
 10  9  2  0  0  0  0
 11 10  1  0  0  0  0
 12 11  2  0  0  0  0
 13 14  2  0  0  0  0
 13 15  1  0  0  0  0
 16 17  2  0  0  0  0
 16 18  1  0  0  0  0
 19 18  1  0  0  0  0
 18 22  1  0  0  0  0
 20 19  1  0  0  0  0
 21 20  1  0  0  0  0
 22 21  1  0  0  0  0
 22 23  1  0  0  0  0
 23 24  2  0  0  0  0
 23 25  1  0  0  0  0
M  END
> <Inchi_key>
LZFZMUMEGBBDTC-UHFFFAOYSA-N

> <Source>
Mulliner

> <ID>
HT0754

> <H_MFHB>
1

> <CAS>


> <Cholestasis>


> <Name>
enalaprilat

> <Class>
1

$$$$