

  -INDIGO-08031710012D

 19 19  0  0  0  0  0  0  0  0999 V2000
    7.4200    7.4201    0.0000 C   0  0  0  0  0  0  0  0  0  0  0  0
    7.4200    5.9201    0.0000 C   0  0  0  0  0  0  0  0  0  0  0  0
    8.7191    5.1701    0.0000 C   0  0  0  0  0  0  0  0  0  0  0  0
    6.1211    5.1701    0.0000 C   0  0  0  0  0  0  0  0  0  0  0  0
    6.1211    3.6701    0.0000 O   0  0  0  0  0  0  0  0  0  0  0  0
    4.8219    5.9201    0.0000 N   0  0  0  0  0  0  0  0  0  0  0  0
    3.5230    5.1701    0.0000 C   0  0  0  0  0  0  0  0  0  0  0  0
    3.5230    3.6701    0.0000 C   0  0  0  0  0  0  0  0  0  0  0  0
    2.2240    2.9201    0.0000 C   0  0  0  0  0  0  0  0  0  0  0  0
    0.9249    3.6701    0.0000 C   0  0  0  0  0  0  0  0  0  0  0  0
    0.9249    5.1701    0.0000 C   0  0  0  0  0  0  0  0  0  0  0  0
    2.2240    5.9201    0.0000 C   0  0  0  0  0  0  0  0  0  0  0  0
   -0.3741    5.9201    0.0000 C   0  0  0  0  0  0  0  0  0  0  0  0
   -1.1241    4.6211    0.0000 F   0  0  0  0  0  0  0  0  0  0  0  0
   -1.6732    6.6701    0.0000 F   0  0  0  0  0  0  0  0  0  0  0  0
    0.3759    7.2191    0.0000 F   0  0  0  0  0  0  0  0  0  0  0  0
   -0.3741    2.9201    0.0000 N   0  0  0  0  0  0  0  0  0  0  0  0
   -1.6732    3.6701    0.0000 O   0  0  0  0  0  0  0  0  0  0  0  0
   -0.3741    1.4201    0.0000 O   0  0  0  0  0  0  0  0  0  0  0  0
  1  2  1  0  0  0  0
  2  3  1  0  0  0  0
  2  4  1  0  0  0  0
  4  5  2  0  0  0  0
  4  6  1  0  0  0  0
  6  7  1  0  0  0  0
  8  7  2  0  0  0  0
  7 12  1  0  0  0  0
  9  8  1  0  0  0  0
 10  9  2  0  0  0  0
 11 10  1  0  0  0  0
 10 17  1  0  0  0  0
 12 11  2  0  0  0  0
 11 13  1  0  0  0  0
 13 14  1  0  0  0  0
 13 15  1  0  0  0  0
 13 16  1  0  0  0  0
 17 18  2  0  0  0  0
 17 19  1  0  0  0  0
M  CHG  2  17   1  19  -1
M  END
> <Inchi_key>
MKXKFYHWDHIYRV-UHFFFAOYSA-N

> <Source>
Mulliner

> <ID>
HT0922

> <H_MFHB>
1

> <CAS>
13311-84-7

> <Cholestasis>


> <Name>
flutamide

> <Class>
1


$$$$