

  -INDIGO-08031710012D

 39 41  0  0  0  0  0  0  0  0999 V2000
    6.0867   -4.7796    0.0000 C   0  0  0  0  0  0  0  0  0  0  0  0
    4.5868   -4.7796    0.0000 C   0  0  0  0  0  0  0  0  0  0  0  0
    3.8368   -6.0786    0.0000 C   0  0  0  0  0  0  0  0  0  0  0  0
    3.8368   -3.4805    0.0000 C   0  0  0  0  0  0  0  0  0  0  0  0
    4.5868   -2.1815    0.0000 N   0  0  0  0  0  0  0  0  0  0  0  0
    3.8368   -0.8824    0.0000 C   0  0  0  0  0  0  0  0  0  0  0  0
    2.3366   -0.8824    0.0000 C   0  0  0  0  0  0  0  0  0  0  0  0
    1.5868    0.4166    0.0000 O   0  0  0  0  0  0  0  0  0  0  0  0
    2.3366    1.7157    0.0000 P   0  0  0  0  0  0  0  0  0  0  0  0
    3.0867    3.0147    0.0000 O   0  0  0  0  0  0  0  0  0  0  0  0
    3.6358    0.9657    0.0000 O   0  0  0  0  0  0  0  0  0  0  0  0
    1.0375    2.4656    0.0000 O   0  0  0  0  0  0  0  0  0  0  0  0
    1.5868   -2.1815    0.0000 C   0  0  0  0  0  0  0  0  0  0  0  0
    0.0867   -2.1815    0.0000 C   0  0  0  0  0  0  0  0  0  0  0  0
   -0.6634   -0.8824    0.0000 C   0  0  0  0  0  0  0  0  0  0  0  0
    0.0867    0.4166    0.0000 C   0  0  0  0  0  0  0  0  0  0  0  0
   -0.6634    1.7157    0.0000 C   0  0  0  0  0  0  0  0  0  0  0  0
   -2.1632    1.7157    0.0000 C   0  0  0  0  0  0  0  0  0  0  0  0
   -2.9133    0.4166    0.0000 C   0  0  0  0  0  0  0  0  0  0  0  0
   -2.1632   -0.8824    0.0000 C   0  0  0  0  0  0  0  0  0  0  0  0
    2.3366   -3.4805    0.0000 N   0  0  0  0  0  0  0  0  0  0  0  0
    1.5868   -4.7796    0.0000 C   0  0  0  0  0  0  0  0  0  0  0  0
    2.3366   -6.0786    0.0000 O   0  0  0  0  0  0  0  0  0  0  0  0
    0.0867   -4.7796    0.0000 O   0  0  0  0  0  0  0  0  0  0  0  0
   -0.6634   -6.0786    0.0000 C   0  0  0  0  0  0  0  0  0  0  0  0
   -2.1550   -6.2354    0.0000 C   0  0  0  0  0  0  0  0  0  0  0  0
   -2.4670   -7.7026    0.0000 C   0  0  0  0  0  0  0  0  0  0  0  0
   -1.1678   -8.4526    0.0000 O   0  0  0  0  0  0  0  0  0  0  0  0
   -0.0531   -7.4489    0.0000 C   0  0  0  0  0  0  0  0  0  0  0  0
    6.0867   -2.1815    0.0000 S   0  0  0  0  0  0  0  0  0  0  0  0
    6.0867   -3.6814    0.0000 O   0  0  0  0  0  0  0  0  0  0  0  0
    6.0867   -0.6816    0.0000 O   0  0  0  0  0  0  0  0  0  0  0  0
    7.5868   -2.1815    0.0000 C   0  0  0  0  0  0  0  0  0  0  0  0
    8.3366   -3.4805    0.0000 C   0  0  0  0  0  0  0  0  0  0  0  0
    9.8368   -3.4805    0.0000 C   0  0  0  0  0  0  0  0  0  0  0  0
   10.5868   -2.1815    0.0000 C   0  0  0  0  0  0  0  0  0  0  0  0
   12.0867   -2.1815    0.0000 N   0  0  0  0  0  0  0  0  0  0  0  0
    9.8368   -0.8824    0.0000 C   0  0  0  0  0  0  0  0  0  0  0  0
    8.3366   -0.8824    0.0000 C   0  0  0  0  0  0  0  0  0  0  0  0
  1  2  1  0  0  0  0
  2  3  1  0  0  0  0
  2  4  1  0  0  0  0
  4  5  1  0  0  0  0
  5  6  1  0  0  0  0
  5 30  1  0  0  0  0
  6  7  1  0  0  0  0
  7  8  1  0  0  0  0
  7 13  1  0  0  0  0
  8  9  1  0  0  0  0
  9 10  2  0  0  0  0
  9 11  1  0  0  0  0
  9 12  1  0  0  0  0
 13 14  1  0  0  0  0
 13 21  1  0  0  0  0
 14 15  1  0  0  0  0
 16 15  2  0  0  0  0
 15 20  1  0  0  0  0
 17 16  1  0  0  0  0
 18 17  2  0  0  0  0
 19 18  1  0  0  0  0
 20 19  2  0  0  0  0
 21 22  1  0  0  0  0
 22 23  2  0  0  0  0
 22 24  1  0  0  0  0
 24 25  1  0  0  0  0
 26 25  1  0  0  0  0
 25 29  1  0  0  0  0
 27 26  1  0  0  0  0
 28 27  1  0  0  0  0
 29 28  1  0  0  0  0
 30 31  2  0  0  0  0
 30 32  2  0  0  0  0
 30 33  1  0  0  0  0
 34 33  2  0  0  0  0
 33 39  1  0  0  0  0
 35 34  1  0  0  0  0
 36 35  2  0  0  0  0
 36 37  1  0  0  0  0
 38 36  1  0  0  0  0
 39 38  2  0  0  0  0
M  END
> <Inchi_key>
MLBVMOWEQCZNCC-UHFFFAOYSA-N

> <Source>
Mulliner

> <ID>
HT0934

> <H_MFHB>
1

> <CAS>


> <Cholestasis>


> <Name>
fosamprenavir

> <Class>
1


$$$$