

  -INDIGO-08031710012D

 16 17  0  0  0  0  0  0  0  0999 V2000
    0.2705   -0.4945    0.0000 O   0  0  0  0  0  0  0  0  0  0  0  0
    1.0327    0.7973    0.0000 C   0  0  0  0  0  0  0  0  0  0  0  0
    0.2952    2.1034    0.0000 N   0  0  0  0  0  0  0  0  0  0  0  0
    2.5328    0.7831    0.0000 C   0  0  0  0  0  0  0  0  0  0  0  0
    3.5259   -0.3411    0.0000 N   0  0  0  0  0  0  0  0  0  0  0  0
    3.2951    2.0749    0.0000 C   0  0  0  0  0  0  0  0  0  0  0  0
    4.9018    0.2560    0.0000 C   0  0  0  0  0  0  0  0  0  0  0  0
    4.7592    1.7492    0.0000 N   0  0  0  0  0  0  0  0  0  0  0  0
    2.5573    3.3811    0.0000 N   0  0  0  0  0  0  0  0  0  0  0  0
    5.8834    2.7422    0.0000 C   0  0  0  0  0  0  0  0  0  0  0  0
    1.0576    3.3953    0.0000 C   0  0  0  0  0  0  0  0  0  0  0  0
    7.3056    2.2652    0.0000 O   0  0  0  0  0  0  0  0  0  0  0  0
    0.3198    4.7014    0.0000 N   0  0  0  0  0  0  0  0  0  0  0  0
    8.4299    3.2582    0.0000 C   0  0  0  0  0  0  0  0  0  0  0  0
    9.8519    2.7812    0.0000 C   0  0  0  0  0  0  0  0  0  0  0  0
   10.9761    3.7742    0.0000 O   0  0  0  0  0  0  0  0  0  0  0  0
  1  2  2  0  0  0  0
  3  2  1  0  0  0  0
  2  4  1  0  0  0  0
  5  4  1  0  0  0  0
  4  6  2  0  0  0  0
  7  5  2  0  0  0  0
  6  8  1  0  0  0  0
  6  9  1  0  0  0  0
  8  7  1  0  0  0  0
  8 10  1  0  0  0  0
  9 11  2  0  0  0  0
 10 12  1  0  0  0  0
 11 13  1  0  0  0  0
 11  3  1  0  0  0  0
 12 14  1  0  0  0  0
 14 15  1  0  0  0  0
 15 16  1  0  0  0  0
M  END
> <Inchi_key>
MKUXAQIIEYXACX-UHFFFAOYSA-N

> <Source>
Mulliner

> <ID>
HT0070

> <H_MFHB>
1

> <CAS>


> <Cholestasis>


> <Name>
acyclovir

> <Class>
1


$$$$