

  -INDIGO-08031710012D

 25 27  0  0  0  0  0  0  0  0999 V2000
    7.7386    0.7499    0.0000 S   0  0  0  0  0  0  0  0  0  0  0  0
    7.7050    2.2495    0.0000 O   0  0  0  0  0  0  0  0  0  0  0  0
    6.4566   -0.0289    0.0000 C   0  0  0  0  0  0  0  0  0  0  0  0
    9.0540    0.0291    0.0000 C   0  0  0  0  0  0  0  0  0  0  0  0
    5.1412    0.6919    0.0000 C   0  0  0  0  0  0  0  0  0  0  0  0
    6.4901   -1.5285    0.0000 C   0  0  0  0  0  0  0  0  0  0  0  0
    3.8591   -0.0869    0.0000 C   0  0  0  0  0  0  0  0  0  0  0  0
    5.2081   -2.3074    0.0000 C   0  0  0  0  0  0  0  0  0  0  0  0
    3.8927   -1.5865    0.0000 C   0  0  0  0  0  0  0  0  0  0  0  0
    2.6106   -2.3654    0.0000 C   0  0  0  0  0  0  0  0  0  0  0  0
    1.2952   -1.6446    0.0000 C   0  0  0  0  0  0  0  0  0  0  0  0
    1.1052   -0.1567    0.0000 C   0  0  0  0  0  0  0  0  0  0  0  0
   -0.0611   -2.2851    0.0000 C   0  0  0  0  0  0  0  0  0  0  0  0
    2.1972    0.8717    0.0000 C   0  0  0  0  0  0  0  0  0  0  0  0
   -0.3688    0.1224    0.0000 C   0  0  0  0  0  0  0  0  0  0  0  0
   -1.0895   -1.1931    0.0000 C   0  0  0  0  0  0  0  0  0  0  0  0
   -0.4927   -3.7217    0.0000 C   0  0  0  0  0  0  0  0  0  0  0  0
   -1.0092    1.4787    0.0000 C   0  0  0  0  0  0  0  0  0  0  0  0
   -2.5494   -1.5377    0.0000 C   0  0  0  0  0  0  0  0  0  0  0  0
   -1.9527   -4.0663    0.0000 C   0  0  0  0  0  0  0  0  0  0  0  0
   -2.5041    1.6022    0.0000 C   0  0  0  0  0  0  0  0  0  0  0  0
   -2.9808   -2.9742    0.0000 C   0  0  0  0  0  0  0  0  0  0  0  0
   -3.1448    2.9585    0.0000 O   0  0  0  0  0  0  0  0  0  0  0  0
   -3.3585    0.3693    0.0000 O   0  0  0  0  0  0  0  0  0  0  0  0
   -4.4408   -3.3189    0.0000 F   0  0  0  0  0  0  0  0  0  0  0  0
  1  2  1  0  0  0  0
  1  3  1  0  0  0  0
  1  4  1  0  0  0  0
  5  3  2  0  0  0  0
  3  6  1  0  0  0  0
  7  5  1  0  0  0  0
  6  8  2  0  0  0  0
  9  7  2  0  0  0  0
  8  9  1  0  0  0  0
  9 10  1  0  0  0  0
 10 11  2  0  0  0  0
 12 11  1  0  0  0  0
 11 13  1  0  0  0  0
 12 14  1  0  0  0  0
 15 12  2  0  0  0  0
 16 13  2  0  0  0  0
 13 17  1  0  0  0  0
 15 18  1  0  0  0  0
 16 15  1  0  0  0  0
 19 16  1  0  0  0  0
 17 20  2  0  0  0  0
 18 21  1  0  0  0  0
 22 19  2  0  0  0  0
 20 22  1  0  0  0  0
 21 23  2  0  0  0  0
 21 24  1  0  0  0  0
 22 25  1  0  0  0  0
M  CHG  2   1   1   2  -1
M  END
> <Inchi_key>
MLKXDPUZXIRXEP-RQZCQDPDSA-N, MLKXDPUZXIRXEP-MFOYZWKCSA-N

> <Source>
Mulliner,  Kotsampasakou

> <ID>
EK0497;HT1960

> <H_MFHB>
1

> <CAS>


> <Cholestasis>
1

> <Name>
sulindac

> <Class>
1


$$$$