

  -INDIGO-08031709442D

 32 36  0  0  0  0  0  0  0  0999 V2000
    0.1142    0.5568    0.0000 O   0  0  0  0  0  0  0  0  0  0  0  0
   -1.2648    1.1471    0.0000 C   0  0  0  0  0  0  0  0  0  0  0  0
   -1.4432    2.6364    0.0000 C   0  0  0  0  0  0  0  0  0  0  0  0
   -0.2425    3.5355    0.0000 O   0  0  0  0  0  0  0  0  0  0  0  0
   -2.8222    3.2268    0.0000 O   0  0  0  0  0  0  0  0  0  0  0  0
   -2.4655    0.2480    0.0000 C   0  0  0  0  0  0  0  0  0  0  0  0
   -3.8445    0.8383    0.0000 O   0  0  0  0  0  0  0  0  0  0  0  0
   -2.2871   -1.2414    0.0000 C   0  0  0  0  0  0  0  0  0  0  0  0
   -3.4878   -2.1405    0.0000 O   0  0  0  0  0  0  0  0  0  0  0  0
   -0.9084   -1.8317    0.0000 C   0  0  0  0  0  0  0  0  0  0  0  0
   -0.7300   -3.3211    0.0000 O   0  0  0  0  0  0  0  0  0  0  0  0
    0.2923   -0.9326    0.0000 C   0  0  0  0  0  0  0  0  0  0  0  0
    1.6713   -1.5229    0.0000 O   0  0  0  0  0  0  0  0  0  0  0  0
    2.8722   -0.6238    0.0000 C   0  0  0  0  0  0  0  0  0  0  0  0
    2.8506    0.8760    0.0000 C   0  0  0  0  0  0  0  0  0  0  0  0
    4.2703    1.3601    0.0000 C   0  0  0  0  0  0  0  0  0  0  0  0
    5.1694    0.1594    0.0000 C   0  0  0  0  0  0  0  0  0  0  0  0
    6.6633    0.0241    0.0000 C   0  0  0  0  0  0  0  0  0  0  0  0
    7.2931   -1.3373    0.0000 C   0  0  0  0  0  0  0  0  0  0  0  0
    6.4288   -2.5634    0.0000 C   0  0  0  0  0  0  0  0  0  0  0  0
    4.9349   -2.4281    0.0000 C   0  0  0  0  0  0  0  0  0  0  0  0
    4.3053   -1.0667    0.0000 C   0  0  0  0  0  0  0  0  0  0  0  0
    3.3376   -2.2129    0.0000 C   0  0  0  0  0  0  0  0  0  0  0  0
    8.7870   -1.4726    0.0000 C   0  0  0  0  0  0  0  0  0  0  0  0
    9.6511   -0.2465    0.0000 C   0  0  0  0  0  0  0  0  0  0  0  0
   11.1450   -0.3817    0.0000 C   0  0  0  0  0  0  0  0  0  0  0  0
   11.7746   -1.7431    0.0000 C   0  0  0  0  0  0  0  0  0  0  0  0
   13.2685   -1.8784    0.0000 O   0  0  0  0  0  0  0  0  0  0  0  0
   10.9105   -2.9692    0.0000 C   0  0  0  0  0  0  0  0  0  0  0  0
    9.4166   -2.8340    0.0000 C   0  0  0  0  0  0  0  0  0  0  0  0
    9.0213    1.1149    0.0000 C   0  0  0  0  0  0  0  0  0  0  0  0
    7.5273    1.2502    0.0000 C   0  0  0  0  0  0  0  0  0  0  0  0
  2  1  1  0  0  0  0
  1 12  1  0  0  0  0
  2  3  1  0  0  0  0
  6  2  1  0  0  0  0
  3  4  1  0  0  0  0
  3  5  2  0  0  0  0
  6  7  1  0  0  0  0
  8  6  1  0  0  0  0
  8  9  1  0  0  0  0
 10  8  1  0  0  0  0
 10 11  1  0  0  0  0
 12 10  1  0  0  0  0
 12 13  1  0  0  0  0
 13 14  1  0  0  0  0
 15 14  1  0  0  0  0
 14 22  1  0  0  0  0
 16 15  1  0  0  0  0
 17 16  1  0  0  0  0
 18 17  1  0  0  0  0
 17 22  1  0  0  0  0
 18 19  1  0  0  0  0
 32 18  1  0  0  0  0
 20 19  1  0  0  0  0
 19 24  1  0  0  0  0
 21 20  1  0  0  0  0
 22 21  1  0  0  0  0
 22 23  1  0  0  0  0
 25 24  2  0  0  0  0
 24 30  1  0  0  0  0
 26 25  1  0  0  0  0
 25 31  1  0  0  0  0
 27 26  2  0  0  0  0
 27 28  1  0  0  0  0
 29 27  1  0  0  0  0
 30 29  2  0  0  0  0
 31 32  1  0  0  0  0
M  END
> <Inchi_key>
MTKNDAQYHASLID-UHFFFAOYSA-N

> <Source>
Kotsampasakou

> <ID>
EK0199

> <H_MFHB>


> <CAS>


> <Cholestasis>
1

> <Name>
estradiol 17b glycuronide

> <Class>
1


$$$$