

  -INDIGO-08031710012D

 25 27  0  0  0  0  0  0  0  0999 V2000
   -0.4031   -2.7030    0.0000 C   0  0  0  0  0  0  0  0  0  0  0  0
    1.0316   -3.1407    0.0000 C   0  0  0  0  0  0  0  0  0  0  0  0
   -0.0097   -4.2204    0.0000 C   0  0  0  0  0  0  0  0  0  0  0  0
    2.1897   -4.0941    0.0000 S   0  0  0  0  0  0  0  0  0  0  0  0
    3.4541   -3.2874    0.0000 C   0  0  0  0  0  0  0  0  0  0  0  0
    4.9062   -2.9110    0.0000 C   0  0  0  0  0  0  0  0  0  0  0  0
    6.1992   -3.6715    0.0000 N   0  0  0  0  0  0  0  0  0  0  0  0
    7.5042   -2.9320    0.0000 C   0  0  0  0  0  0  0  0  0  0  0  0
    7.5163   -1.4321    0.0000 O   0  0  0  0  0  0  0  0  0  0  0  0
    8.7972   -3.6926    0.0000 C   0  0  0  0  0  0  0  0  0  0  0  0
    8.7848   -5.1925    0.0000 N   0  0  0  0  0  0  0  0  0  0  0  0
   10.1021   -2.9531    0.0000 C   0  0  0  0  0  0  0  0  0  0  0  0
   10.1145   -1.4532    0.0000 C   0  0  0  0  0  0  0  0  0  0  0  0
   11.4194   -0.7138    0.0000 C   0  0  0  0  0  0  0  0  0  0  0  0
   12.7122   -1.4743    0.0000 C   0  0  0  0  0  0  0  0  0  0  0  0
   14.0174   -0.7348    0.0000 O   0  0  0  0  0  0  0  0  0  0  0  0
   12.7003   -2.9742    0.0000 C   0  0  0  0  0  0  0  0  0  0  0  0
   11.3951   -3.7137    0.0000 C   0  0  0  0  0  0  0  0  0  0  0  0
    4.5296   -1.4590    0.0000 C   0  0  0  0  0  0  0  0  0  0  0  0
    5.2904   -0.1661    0.0000 O   0  0  0  0  0  0  0  0  0  0  0  0
    3.0778   -1.8354    0.0000 N   0  0  0  0  0  0  0  0  0  0  0  0
    1.5805   -1.7448    0.0000 C   0  0  0  0  0  0  0  0  0  0  0  0
    0.7738   -0.4802    0.0000 C   0  0  0  0  0  0  0  0  0  0  0  0
   -0.7248   -0.5465    0.0000 O   0  0  0  0  0  0  0  0  0  0  0  0
    1.4656    0.8508    0.0000 O   0  0  0  0  0  0  0  0  0  0  0  0
  1  2  1  0  0  0  0
  2  3  1  0  0  0  0
  4  2  1  0  0  0  0
  2 22  1  0  0  0  0
  5  4  1  0  0  0  0
  6  5  1  0  0  0  0
  5 21  1  0  0  0  0
  6  7  1  0  0  0  0
 19  6  1  0  0  0  0
  7  8  1  0  0  0  0
  8  9  2  0  0  0  0
  8 10  1  0  0  0  0
 10 11  1  0  0  0  0
 10 12  1  0  0  0  0
 13 12  2  0  0  0  0
 12 18  1  0  0  0  0
 14 13  1  0  0  0  0
 15 14  2  0  0  0  0
 15 16  1  0  0  0  0
 17 15  1  0  0  0  0
 18 17  2  0  0  0  0
 19 20  2  0  0  0  0
 21 19  1  0  0  0  0
 22 21  1  0  0  0  0
 22 23  1  0  0  0  0
 23 24  2  0  0  0  0
 23 25  1  0  0  0  0
M  END
> <Inchi_key>
LSQZJLSUYDQPKJ-UHFFFAOYSA-N

> <Source>
Mulliner , Kotsampasakou

> <ID>
EK0033;HT0150

> <H_MFHB>
1

> <CAS>
74469-00-4

> <Cholestasis>
1

> <Name>
amoxicillin

> <Class>
1


$$$$