

  -INDIGO-08031710012D

 25 27  0  0  0  0  0  0  0  0999 V2000
    2.4100   -3.3628    0.0000 C   0  0  0  0  0  0  0  0  0  0  0  0
    1.6600   -2.0638    0.0000 C   0  0  0  0  0  0  0  0  0  0  0  0
    0.1600   -2.0638    0.0000 C   0  0  0  0  0  0  0  0  0  0  0  0
   -0.5899   -0.7647    0.0000 N   0  0  0  0  0  0  0  0  0  0  0  0
   -2.0900   -0.7647    0.0000 C   0  0  0  0  0  0  0  0  0  0  0  0
   -2.8400   -2.0638    0.0000 N   0  0  0  0  0  0  0  0  0  0  0  0
   -2.0900   -3.3628    0.0000 C   0  0  0  0  0  0  0  0  0  0  0  0
   -0.5899   -3.3628    0.0000 C   0  0  0  0  0  0  0  0  0  0  0  0
    0.1600   -4.6619    0.0000 F   0  0  0  0  0  0  0  0  0  0  0  0
    2.4100   -0.7647    0.0000 C   0  0  0  0  0  0  0  0  0  0  0  0
    1.1110   -0.0147    0.0000 O   0  0  0  0  0  0  0  0  0  0  0  0
    3.1599    0.5344    0.0000 C   0  0  0  0  0  0  0  0  0  0  0  0
    2.4100    1.8333    0.0000 N   0  0  0  0  0  0  0  0  0  0  0  0
    0.9181    1.9900    0.0000 C   0  0  0  0  0  0  0  0  0  0  0  0
    0.6064    3.4574    0.0000 N   0  0  0  0  0  0  0  0  0  0  0  0
    1.9055    4.2074    0.0000 C   0  0  0  0  0  0  0  0  0  0  0  0
    3.0201    3.2037    0.0000 N   0  0  0  0  0  0  0  0  0  0  0  0
    3.7091   -1.5146    0.0000 C   0  0  0  0  0  0  0  0  0  0  0  0
    3.7091   -3.0147    0.0000 C   0  0  0  0  0  0  0  0  0  0  0  0
    5.0082   -3.7648    0.0000 C   0  0  0  0  0  0  0  0  0  0  0  0
    6.3071   -3.0147    0.0000 C   0  0  0  0  0  0  0  0  0  0  0  0
    7.6062   -3.7648    0.0000 F   0  0  0  0  0  0  0  0  0  0  0  0
    6.3071   -1.5146    0.0000 C   0  0  0  0  0  0  0  0  0  0  0  0
    5.0082   -0.7647    0.0000 C   0  0  0  0  0  0  0  0  0  0  0  0
    5.0082    0.7353    0.0000 F   0  0  0  0  0  0  0  0  0  0  0  0
  1  2  1  0  0  0  0
  2  3  1  0  0  0  0
  2 10  1  0  0  0  0
  4  3  2  0  0  0  0
  3  8  1  0  0  0  0
  5  4  1  0  0  0  0
  6  5  2  0  0  0  0
  7  6  1  0  0  0  0
  8  7  2  0  0  0  0
  8  9  1  0  0  0  0
 10 11  1  0  0  0  0
 10 12  1  0  0  0  0
 10 18  1  0  0  0  0
 12 13  1  0  0  0  0
 14 13  1  0  0  0  0
 13 17  1  0  0  0  0
 15 14  2  0  0  0  0
 16 15  1  0  0  0  0
 17 16  2  0  0  0  0
 19 18  2  0  0  0  0
 18 24  1  0  0  0  0
 20 19  1  0  0  0  0
 21 20  2  0  0  0  0
 21 22  1  0  0  0  0
 23 21  1  0  0  0  0
 24 23  2  0  0  0  0
 24 25  1  0  0  0  0
M  END
> <Inchi_key>
BCEHBSKCWLPMDN-UHFFFAOYSA-N

> <Source>
Mulliner , Kotsampasakou

> <ID>
EK0570;HT2194

> <H_MFHB>
1

> <CAS>


> <Cholestasis>
1

> <Name>
voriconazole

> <Class>
1


$$$$