
  -INDIGO-08031710012D

 27 29  0  0  0  0  0  0  0  0999 V2000
   -0.7778    1.3472    0.0000 C   0  0  0  0  0  0  0  0  0  0  0  0
   -0.0278    2.6462    0.0000 O   0  0  0  0  0  0  0  0  0  0  0  0
    1.4723    2.6462    0.0000 C   0  0  0  0  0  0  0  0  0  0  0  0
    2.2222    3.9452    0.0000 C   0  0  0  0  0  0  0  0  0  0  0  0
    3.7221    3.9452    0.0000 C   0  0  0  0  0  0  0  0  0  0  0  0
    4.4721    2.6462    0.0000 C   0  0  0  0  0  0  0  0  0  0  0  0
    3.7221    1.3472    0.0000 C   0  0  0  0  0  0  0  0  0  0  0  0
    2.2222    1.3472    0.0000 C   0  0  0  0  0  0  0  0  0  0  0  0
    5.9722    2.6462    0.0000 C   0  0  0  0  0  0  0  0  0  0  0  0
    6.7222    3.9452    0.0000 C   0  0  0  0  0  0  0  0  0  0  0  0
    5.9722    5.2444    0.0000 C   0  0  0  0  0  0  0  0  0  0  0  0
    6.7222    6.5432    0.0000 C   0  0  0  0  0  0  0  0  0  0  0  0
    5.9722    7.8422    0.0000 C   0  0  0  0  0  0  0  0  0  0  0  0
    4.4721    7.8422    0.0000 C   0  0  0  0  0  0  0  0  0  0  0  0
    3.7221    9.1414    0.0000 O   0  0  0  0  0  0  0  0  0  0  0  0
    4.4721   10.4404    0.0000 C   0  0  0  0  0  0  0  0  0  0  0  0
    3.7221    6.5432    0.0000 C   0  0  0  0  0  0  0  0  0  0  0  0
    4.4721    5.2444    0.0000 C   0  0  0  0  0  0  0  0  0  0  0  0
    8.2223    3.9452    0.0000 C   0  0  0  0  0  0  0  0  0  0  0  0
    8.9723    2.6462    0.0000 C   0  0  0  0  0  0  0  0  0  0  0  0
   10.4722    2.6462    0.0000 C   0  0  0  0  0  0  0  0  0  0  0  0
   11.2221    3.9452    0.0000 C   0  0  0  0  0  0  0  0  0  0  0  0
   12.7222    3.9452    0.0000 O   0  0  0  0  0  0  0  0  0  0  0  0
   13.4722    2.6462    0.0000 C   0  0  0  0  0  0  0  0  0  0  0  0
   10.4722    5.2444    0.0000 C   0  0  0  0  0  0  0  0  0  0  0  0
    8.9723    5.2444    0.0000 C   0  0  0  0  0  0  0  0  0  0  0  0
    6.7222    1.3472    0.0000 Cl  0  0  0  0  0  0  0  0  0  0  0  0
  1  2  1  0  0  0  0
  2  3  1  0  0  0  0
  4  3  2  0  0  0  0
  3  8  1  0  0  0  0
  5  4  1  0  0  0  0
  6  5  2  0  0  0  0
  7  6  1  0  0  0  0
  6  9  1  0  0  0  0
  8  7  2  0  0  0  0
  9 10  2  0  0  0  0
  9 27  1  0  0  0  0
 10 11  1  0  0  0  0
 10 19  1  0  0  0  0
 12 11  2  0  0  0  0
 11 18  1  0  0  0  0
 13 12  1  0  0  0  0
 14 13  2  0  0  0  0
 14 15  1  0  0  0  0
 17 14  1  0  0  0  0
 15 16  1  0  0  0  0
 18 17  2  0  0  0  0
 20 19  2  0  0  0  0
 19 26  1  0  0  0  0
 21 20  1  0  0  0  0
 22 21  2  0  0  0  0
 22 23  1  0  0  0  0
 25 22  1  0  0  0  0
 23 24  1  0  0  0  0
 26 25  2  0  0  0  0
M  END
> <Inchi_key>
BFPSDSIWYFKGBC-UHFFFAOYSA-N

> <Source>
Mulliner

> <ID>
HT0462

> <H_MFHB>
1

> <CAS>


> <Cholestasis>


> <Name>
chlorotrianisene

> <Class>
1

$$$$