
  -INDIGO-08031710012D

 23 26  0  0  0  0  0  0  0  0999 V2000
   14.7384   -0.4436    0.0000 C   0  0  0  0  0  0  0  0  0  0  0  0
   13.2412   -0.3534    0.0000 N   0  0  0  0  0  0  0  0  0  0  0  0
   11.8515   -0.7996    0.0000 C   0  0  0  0  0  0  0  0  0  0  0  0
   11.0494    0.7282    0.0000 C   0  0  0  0  0  0  0  0  0  0  0  0
    9.9606    1.1882    0.0000 C   0  0  0  0  0  0  0  0  0  0  0  0
   11.3409    1.6421    0.0000 C   0  0  0  0  0  0  0  0  0  0  0  0
   12.0916    0.1753    0.0000 C   0  0  0  0  0  0  0  0  0  0  0  0
   10.6240   -0.7031    0.0000 C   0  0  0  0  0  0  0  0  0  0  0  0
    9.3570   -0.5160    0.0000 C   0  0  0  0  0  0  0  0  0  0  0  0
   10.3122   -1.6777    0.0000 C   0  0  0  0  0  0  0  0  0  0  0  0
    8.0512    0.2226    0.0000 N   0  0  0  0  0  0  0  0  0  0  0  0
    6.7589   -0.5388    0.0000 C   0  0  0  0  0  0  0  0  0  0  0  0
    6.7719   -2.0387    0.0000 O   0  0  0  0  0  0  0  0  0  0  0  0
    5.4533    0.1998    0.0000 C   0  0  0  0  0  0  0  0  0  0  0  0
    5.2834    1.6902    0.0000 N   0  0  0  0  0  0  0  0  0  0  0  0
    3.8135    1.9892    0.0000 N   0  0  0  0  0  0  0  0  0  0  0  0
    3.1915    3.3541    0.0000 C   0  0  0  0  0  0  0  0  0  0  0  0
    3.0751    0.6836    0.0000 C   0  0  0  0  0  0  0  0  0  0  0  0
    1.6106    0.3589    0.0000 C   0  0  0  0  0  0  0  0  0  0  0  0
    1.1595   -1.0717    0.0000 C   0  0  0  0  0  0  0  0  0  0  0  0
    2.1729   -2.1776    0.0000 C   0  0  0  0  0  0  0  0  0  0  0  0
    3.6374   -1.8529    0.0000 C   0  0  0  0  0  0  0  0  0  0  0  0
    4.0885   -0.4223    0.0000 C   0  0  0  0  0  0  0  0  0  0  0  0
  1  2  1  0  0  0  0
  3  2  1  0  0  0  0
  2  7  1  0  0  0  0
  3  4  1  0  0  0  0
 10  3  1  0  0  0  0
  4  5  1  0  0  0  0
  5  6  1  0  0  0  0
  6  7  1  0  0  0  0
  7  8  1  0  0  0  0
  8  9  1  0  0  0  0
  9 10  1  0  0  0  0
  9 11  1  0  0  0  0
 11 12  1  0  0  0  0
 12 13  2  0  0  0  0
 12 14  1  0  0  0  0
 15 14  2  0  0  0  0
 14 23  1  0  0  0  0
 16 15  1  0  0  0  0
 16 17  1  0  0  0  0
 18 16  1  0  0  0  0
 19 18  1  0  0  0  0
 18 23  2  0  0  0  0
 20 19  2  0  0  0  0
 21 20  1  0  0  0  0
 22 21  2  0  0  0  0
 23 22  1  0  0  0  0
M  END
> <Inchi_key>
MFWNKCLOYSRHCJ-UHFFFAOYSA-N

> <Source>
Mulliner

> <ID>
HT1003

> <H_MFHB>
1

> <CAS>
107007-99-8

> <Cholestasis>


> <Name>
granisetron;granisetron hydrochloride

> <Class>
1

$$$$