
  -INDIGO-08031709442D

 11 11  0  0  0  0  0  0  0  0999 V2000
    0.6587    0.1399    0.0000 O   0  0  0  0  0  0  0  0  0  0  0  0
    1.9577    0.8899    0.0000 C   0  0  0  0  0  0  0  0  0  0  0  0
    1.9577    2.3899    0.0000 O   0  0  0  0  0  0  0  0  0  0  0  0
    3.2567    0.1399    0.0000 C   0  0  0  0  0  0  0  0  0  0  0  0
    4.5558    0.8899    0.0000 C   0  0  0  0  0  0  0  0  0  0  0  0
   -0.6404    0.8899    0.0000 C   0  0  0  0  0  0  0  0  0  0  0  0
   -1.9394    0.1399    0.0000 C   0  0  0  0  0  0  0  0  0  0  0  0
   -3.2385    0.8899    0.0000 C   0  0  0  0  0  0  0  0  0  0  0  0
   -3.2385    2.3899    0.0000 C   0  0  0  0  0  0  0  0  0  0  0  0
   -1.9394    3.1399    0.0000 C   0  0  0  0  0  0  0  0  0  0  0  0
   -0.6404    2.3899    0.0000 C   0  0  0  0  0  0  0  0  0  0  0  0
  1  2  1  0  0  0  0
  1  6  1  0  0  0  0
  2  3  2  0  0  0  0
  2  4  1  0  0  0  0
  4  5  1  0  0  0  0
  7  6  1  0  0  0  0
  6 11  1  0  0  0  0
  8  7  1  0  0  0  0
  9  8  1  0  0  0  0
 10  9  1  0  0  0  0
 11 10  1  0  0  0  0
M  END
> <Inchi_key>
MAMMVUWCKMOLSG-UHFFFAOYSA-N

> <Source>
Kotsampasakou

> <ID>
EK0137

> <H_MFHB>


> <CAS>


> <Cholestasis>
1

> <Name>
cyclohexyl propionate

> <Class>
1

$$$$