

  -INDIGO-08031710012D

 35 39  0  0  0  0  0  0  0  0999 V2000
    3.3399    9.8158    0.0000 C   0  0  0  0  0  0  0  0  0  0  0  0
    2.3362    8.7011    0.0000 C   0  0  0  0  0  0  0  0  0  0  0  0
    1.3326    7.5863    0.0000 C   0  0  0  0  0  0  0  0  0  0  0  0
    0.3289    6.4716    0.0000 C   0  0  0  0  0  0  0  0  0  0  0  0
    0.7924    5.0450    0.0000 N   0  0  0  0  0  0  0  0  0  0  0  0
   -0.0894    3.8315    0.0000 C   0  0  0  0  0  0  0  0  0  0  0  0
    0.7924    2.6179    0.0000 N   0  0  0  0  0  0  0  0  0  0  0  0
    2.2189    3.0814    0.0000 C   0  0  0  0  0  0  0  0  0  0  0  0
    3.5179    2.3316    0.0000 N   0  0  0  0  0  0  0  0  0  0  0  0
    3.5179    0.8315    0.0000 C   0  0  0  0  0  0  0  0  0  0  0  0
    4.8168    3.0814    0.0000 C   0  0  0  0  0  0  0  0  0  0  0  0
    6.1160    2.3316    0.0000 O   0  0  0  0  0  0  0  0  0  0  0  0
    4.8168    4.5815    0.0000 N   0  0  0  0  0  0  0  0  0  0  0  0
    6.1160    5.3315    0.0000 C   0  0  0  0  0  0  0  0  0  0  0  0
    7.4149    4.5815    0.0000 C   0  0  0  0  0  0  0  0  0  0  0  0
    7.4149    3.0814    0.0000 N   0  0  0  0  0  0  0  0  0  0  0  0
    8.7141    2.3316    0.0000 C   0  0  0  0  0  0  0  0  0  0  0  0
    8.7141    0.8315    0.0000 C   0  0  0  0  0  0  0  0  0  0  0  0
   10.0131    3.0814    0.0000 C   0  0  0  0  0  0  0  0  0  0  0  0
   11.3120    2.3316    0.0000 C   0  0  0  0  0  0  0  0  0  0  0  0
   12.6112    3.0814    0.0000 C   0  0  0  0  0  0  0  0  0  0  0  0
   12.6112    4.5815    0.0000 C   0  0  0  0  0  0  0  0  0  0  0  0
   11.3120    5.3315    0.0000 C   0  0  0  0  0  0  0  0  0  0  0  0
   10.0131    4.5815    0.0000 C   0  0  0  0  0  0  0  0  0  0  0  0
    8.7141    5.3315    0.0000 N   0  0  0  0  0  0  0  0  0  0  0  0
    3.5179    5.3315    0.0000 C   0  0  0  0  0  0  0  0  0  0  0  0
    3.5179    6.8315    0.0000 O   0  0  0  0  0  0  0  0  0  0  0  0
    2.2189    4.5815    0.0000 C   0  0  0  0  0  0  0  0  0  0  0  0
   -1.5894    3.8315    0.0000 N   0  0  0  0  0  0  0  0  0  0  0  0
   -2.3393    5.1306    0.0000 C   0  0  0  0  0  0  0  0  0  0  0  0
   -3.8393    5.1306    0.0000 C   0  0  0  0  0  0  0  0  0  0  0  0
   -4.5894    3.8315    0.0000 C   0  0  0  0  0  0  0  0  0  0  0  0
   -3.8393    2.5325    0.0000 C   0  0  0  0  0  0  0  0  0  0  0  0
   -4.5894    1.2335    0.0000 N   0  0  0  0  0  0  0  0  0  0  0  0
   -2.3393    2.5325    0.0000 C   0  0  0  0  0  0  0  0  0  0  0  0
  1  2  1  0  0  0  0
  2  3  3  0  0  0  0
  3  4  1  0  0  0  0
  4  5  1  0  0  0  0
  6  5  1  0  0  0  0
  5 28  1  0  0  0  0
  7  6  2  0  0  0  0
  6 29  1  0  0  0  0
  8  7  1  0  0  0  0
  9  8  1  0  0  0  0
  8 28  2  0  0  0  0
  9 10  1  0  0  0  0
 11  9  1  0  0  0  0
 11 12  2  0  0  0  0
 13 11  1  0  0  0  0
 13 14  1  0  0  0  0
 26 13  1  0  0  0  0
 14 15  1  0  0  0  0
 16 15  2  0  0  0  0
 15 25  1  0  0  0  0
 17 16  1  0  0  0  0
 17 18  1  0  0  0  0
 19 17  2  0  0  0  0
 20 19  1  0  0  0  0
 19 24  1  0  0  0  0
 21 20  2  0  0  0  0
 22 21  1  0  0  0  0
 23 22  2  0  0  0  0
 24 23  1  0  0  0  0
 25 24  2  0  0  0  0
 26 27  2  0  0  0  0
 28 26  1  0  0  0  0
 30 29  1  0  0  0  0
 29 35  1  0  0  0  0
 31 30  1  0  0  0  0
 32 31  1  0  0  0  0
 33 32  1  0  0  0  0
 33 34  1  0  0  0  0
 35 33  1  0  0  0  0
M  END
> <Inchi_key>
LTXREWYXXSTFRX-UHFFFAOYSA-N

> <Source>
Mulliner

> <ID>
HT1211

> <H_MFHB>
1

> <CAS>


> <Cholestasis>


> <Name>
linagliptin

> <Class>
1


$$$$