
  -INDIGO-08031710012D

 52 54  0  0  0  0  0  0  0  0999 V2000
   -1.8384   -9.1997    0.0000 C   0  0  0  0  0  0  0  0  0  0  0  0
   -2.2856   -7.7679    0.0000 C   0  0  0  0  0  0  0  0  0  0  0  0
   -1.2694   -6.6648    0.0000 C   0  0  0  0  0  0  0  0  0  0  0  0
   -0.8268   -8.0857    0.0000 O   0  0  0  0  0  0  0  0  0  0  0  0
    0.5047   -8.5783    0.0000 C   0  0  0  0  0  0  0  0  0  0  0  0
    0.5558  -10.0773    0.0000 O   0  0  0  0  0  0  0  0  0  0  0  0
    1.7863   -8.0023    0.0000 C   0  0  0  0  0  0  0  0  0  0  0  0
    2.8733   -9.0359    0.0000 C   0  0  0  0  0  0  0  0  0  0  0  0
    2.3021   -6.6799    0.0000 C   0  0  0  0  0  0  0  0  0  0  0  0
    3.7965   -6.5519    0.0000 O   0  0  0  0  0  0  0  0  0  0  0  0
    4.6546   -7.7821    0.0000 C   0  0  0  0  0  0  0  0  0  0  0  0
    6.1492   -7.6541    0.0000 C   0  0  0  0  0  0  0  0  0  0  0  0
    7.0073   -8.8842    0.0000 C   0  0  0  0  0  0  0  0  0  0  0  0
    8.3656   -9.5207    0.0000 C   0  0  0  0  0  0  0  0  0  0  0  0
    8.2376   -8.0262    0.0000 O   0  0  0  0  0  0  0  0  0  0  0  0
    9.5959   -8.6625    0.0000 C   0  0  0  0  0  0  0  0  0  0  0  0
    6.3709  -10.2427    0.0000 C   0  0  0  0  0  0  0  0  0  0  0  0
    7.2290  -11.4728    0.0000 O   0  0  0  0  0  0  0  0  0  0  0  0
    4.8763  -10.3707    0.0000 C   0  0  0  0  0  0  0  0  0  0  0  0
    4.2402  -11.7290    0.0000 C   0  0  0  0  0  0  0  0  0  0  0  0
    4.0182   -9.1404    0.0000 O   0  0  0  0  0  0  0  0  0  0  0  0
    1.5334   -5.4055    0.0000 C   0  0  0  0  0  0  0  0  0  0  0  0
    0.0335   -5.4316    0.0000 C   0  0  0  0  0  0  0  0  0  0  0  0
    2.2652   -4.0907    0.0000 C   0  0  0  0  0  0  0  0  0  0  0  0
    3.7650   -4.0987    0.0000 O   0  0  0  0  0  0  0  0  0  0  0  0
    4.5220   -2.8037    0.0000 C   0  0  0  0  0  0  0  0  0  0  0  0
    3.7788   -1.5008    0.0000 O   0  0  0  0  0  0  0  0  0  0  0  0
    4.5355   -0.2057    0.0000 C   0  0  0  0  0  0  0  0  0  0  0  0
    3.7926    1.0974    0.0000 C   0  0  0  0  0  0  0  0  0  0  0  0
    6.0356   -0.2135    0.0000 C   0  0  0  0  0  0  0  0  0  0  0  0
    6.7788   -1.5164    0.0000 C   0  0  0  0  0  0  0  0  0  0  0  0
    6.0218   -2.8117    0.0000 C   0  0  0  0  0  0  0  0  0  0  0  0
    6.7650   -4.1146    0.0000 O   0  0  0  0  0  0  0  0  0  0  0  0
    8.2786   -1.5244    0.0000 N   0  0  0  0  0  0  0  0  0  0  0  0
    9.0356   -0.2294    0.0000 C   0  0  0  0  0  0  0  0  0  0  0  0
    9.0218   -2.8273    0.0000 C   0  0  0  0  0  0  0  0  0  0  0  0
    1.5653   -2.8015    0.0000 C   0  0  0  0  0  0  0  0  0  0  0  0
    1.7188   -1.3095    0.0000 C   0  0  0  0  0  0  0  0  0  0  0  0
    2.9148   -2.1470    0.0000 O   0  0  0  0  0  0  0  0  0  0  0  0
    0.0765   -2.6817    0.0000 C   0  0  0  0  0  0  0  0  0  0  0  0
   -0.5631   -1.3166    0.0000 C   0  0  0  0  0  0  0  0  0  0  0  0
    0.2985   -0.0887    0.0000 C   0  0  0  0  0  0  0  0  0  0  0  0
   -2.0483   -1.1813    0.0000 C   0  0  0  0  0  0  0  0  0  0  0  0
   -2.9333   -2.3817    0.0000 N   0  0  0  0  0  0  0  0  0  0  0  0
   -4.4235   -2.2104    0.0000 C   0  0  0  0  0  0  0  0  0  0  0  0
   -2.3380   -3.7642    0.0000 C   0  0  0  0  0  0  0  0  0  0  0  0
   -0.8486   -3.9433    0.0000 C   0  0  0  0  0  0  0  0  0  0  0  0
   -3.2369   -4.9571    0.0000 C   0  0  0  0  0  0  0  0  0  0  0  0
   -4.7202   -4.7340    0.0000 O   0  0  0  0  0  0  0  0  0  0  0  0
   -2.7376   -6.3364    0.0000 C   0  0  0  0  0  0  0  0  0  0  0  0
   -4.1413   -6.8652    0.0000 C   0  0  0  0  0  0  0  0  0  0  0  0
   -3.0150   -7.8105    0.0000 O   0  0  0  0  0  0  0  0  0  0  0  0
  1  2  1  0  0  0  0
  2  3  1  0  0  0  0
  4  3  1  0  0  0  0
  3 50  1  0  0  0  0
  5  4  1  0  0  0  0
  5  6  2  0  0  0  0
  7  5  1  0  0  0  0
  7  8  1  0  0  0  0
  9  7  1  0  0  0  0
  9 10  1  0  0  0  0
 22  9  1  0  0  0  0
 10 11  1  0  0  0  0
 12 11  1  0  0  0  0
 11 21  1  0  0  0  0
 13 12  1  0  0  0  0
 13 14  1  0  0  0  0
 13 15  1  0  0  0  0
 17 13  1  0  0  0  0
 15 16  1  0  0  0  0
 17 18  1  0  0  0  0
 19 17  1  0  0  0  0
 19 20  1  0  0  0  0
 21 19  1  0  0  0  0
 22 23  1  0  0  0  0
 24 22  1  0  0  0  0
 24 25  1  0  0  0  0
 37 24  1  0  0  0  0
 25 26  1  0  0  0  0
 27 26  1  0  0  0  0
 26 32  1  0  0  0  0
 28 27  1  0  0  0  0
 28 29  1  0  0  0  0
 30 28  1  0  0  0  0
 31 30  1  0  0  0  0
 32 31  1  0  0  0  0
 31 34  1  0  0  0  0
 32 33  1  0  0  0  0
 34 35  1  0  0  0  0
 34 36  1  0  0  0  0
 37 38  1  0  0  0  0
 37 39  1  0  0  0  0
 40 37  1  0  0  0  0
 41 40  1  0  0  0  0
 41 42  1  0  0  0  0
 43 41  1  0  0  0  0
 44 43  1  0  0  0  0
 44 45  1  0  0  0  0
 46 44  1  0  0  0  0
 46 47  1  0  0  0  0
 48 46  1  0  0  0  0
 48 49  1  0  0  0  0
 50 48  1  0  0  0  0
 50 51  1  0  0  0  0
 50 52  1  0  0  0  0
M  END
> <Inchi_key>
MQTOSJVFKKJCRP-UHFFFAOYSA-N

> <Source>
Mulliner

> <ID>
HT0218

> <H_MFHB>
1

> <CAS>
83905-01-5

> <Cholestasis>


> <Name>
azithromycin

> <Class>
1

$$$$