

  -INDIGO-08031709442D

 58 64  0  0  0  0  0  0  0  0999 V2000
    0.2818    0.4882    0.0000 O   0  0  0  0  0  0  0  0  0  0  0  0
   -0.4679    1.7875    0.0000 C   0  0  0  0  0  0  0  0  0  0  0  0
    0.2818    3.0864    0.0000 C   0  0  0  0  0  0  0  0  0  0  0  0
   -0.4679    4.3855    0.0000 O   0  0  0  0  0  0  0  0  0  0  0  0
    1.7820    3.0864    0.0000 O   0  0  0  0  0  0  0  0  0  0  0  0
   -1.9682    1.7875    0.0000 C   0  0  0  0  0  0  0  0  0  0  0  0
   -2.7179    3.0864    0.0000 O   0  0  0  0  0  0  0  0  0  0  0  0
   -2.7179    0.4882    0.0000 C   0  0  0  0  0  0  0  0  0  0  0  0
   -4.2182    0.4882    0.0000 O   0  0  0  0  0  0  0  0  0  0  0  0
   -1.9682   -0.8107    0.0000 C   0  0  0  0  0  0  0  0  0  0  0  0
   -2.7179   -2.1097    0.0000 O   0  0  0  0  0  0  0  0  0  0  0  0
   -4.2182   -2.1097    0.0000 C   0  0  0  0  0  0  0  0  0  0  0  0
   -4.9683   -0.8107    0.0000 O   0  0  0  0  0  0  0  0  0  0  0  0
   -6.4681   -0.8107    0.0000 C   0  0  0  0  0  0  0  0  0  0  0  0
   -7.2182    0.4882    0.0000 C   0  0  0  0  0  0  0  0  0  0  0  0
   -8.7181    0.4882    0.0000 O   0  0  0  0  0  0  0  0  0  0  0  0
   -6.4681    1.7875    0.0000 O   0  0  0  0  0  0  0  0  0  0  0  0
   -7.2182   -2.1097    0.0000 C   0  0  0  0  0  0  0  0  0  0  0  0
   -8.7181   -2.1097    0.0000 O   0  0  0  0  0  0  0  0  0  0  0  0
   -6.4681   -3.4087    0.0000 C   0  0  0  0  0  0  0  0  0  0  0  0
   -7.2182   -4.7078    0.0000 O   0  0  0  0  0  0  0  0  0  0  0  0
   -4.9683   -3.4087    0.0000 C   0  0  0  0  0  0  0  0  0  0  0  0
   -4.2182   -4.7078    0.0000 O   0  0  0  0  0  0  0  0  0  0  0  0
   -0.4679   -0.8107    0.0000 C   0  0  0  0  0  0  0  0  0  0  0  0
    0.2818   -2.1097    0.0000 O   0  0  0  0  0  0  0  0  0  0  0  0
    1.7820   -2.1097    0.0000 C   0  0  0  0  0  0  0  0  0  0  0  0
    2.5318   -0.8107    0.0000 C   0  0  0  0  0  0  0  0  0  0  0  0
    4.0320   -0.8107    0.0000 C   0  0  0  0  0  0  0  0  0  0  0  0
    4.7817   -2.1097    0.0000 C   0  0  0  0  0  0  0  0  0  0  0  0
    6.2820   -2.1097    0.0000 C   0  0  0  0  0  0  0  0  0  0  0  0
    7.0317   -3.4087    0.0000 C   0  0  0  0  0  0  0  0  0  0  0  0
    6.2820   -4.7078    0.0000 C   0  0  0  0  0  0  0  0  0  0  0  0
    4.7817   -4.7078    0.0000 C   0  0  0  0  0  0  0  0  0  0  0  0
    4.0320   -3.4087    0.0000 C   0  0  0  0  0  0  0  0  0  0  0  0
    2.5318   -3.4087    0.0000 C   0  0  0  0  0  0  0  0  0  0  0  0
    2.5318   -4.9088    0.0000 C   0  0  0  0  0  0  0  0  0  0  0  0
    1.2329   -4.1588    0.0000 C   0  0  0  0  0  0  0  0  0  0  0  0
    7.7818   -4.7078    0.0000 C   0  0  0  0  0  0  0  0  0  0  0  0
    8.5320   -3.4087    0.0000 C   0  0  0  0  0  0  0  0  0  0  0  0
    9.2821   -4.7078    0.0000 C   0  0  0  0  0  0  0  0  0  0  0  0
   10.7819   -4.7078    0.0000 C   0  0  0  0  0  0  0  0  0  0  0  0
   11.5320   -3.4087    0.0000 C   0  0  0  0  0  0  0  0  0  0  0  0
   10.7819   -2.1097    0.0000 C   0  0  0  0  0  0  0  0  0  0  0  0
    9.2821   -2.1097    0.0000 C   0  0  0  0  0  0  0  0  0  0  0  0
    8.5320   -0.8107    0.0000 C   0  0  0  0  0  0  0  0  0  0  0  0
    7.0317   -0.8107    0.0000 C   0  0  0  0  0  0  0  0  0  0  0  0
    6.2820    0.4882    0.0000 O   0  0  0  0  0  0  0  0  0  0  0  0
   11.5320   -0.8107    0.0000 C   0  0  0  0  0  0  0  0  0  0  0  0
   13.0319   -0.8107    0.0000 C   0  0  0  0  0  0  0  0  0  0  0  0
   13.7820   -2.1097    0.0000 C   0  0  0  0  0  0  0  0  0  0  0  0
   13.0319   -3.4087    0.0000 C   0  0  0  0  0  0  0  0  0  0  0  0
   14.3311   -0.0608    0.0000 C   0  0  0  0  0  0  0  0  0  0  0  0
   14.3311    1.4393    0.0000 O   0  0  0  0  0  0  0  0  0  0  0  0
   15.6300   -0.8107    0.0000 O   0  0  0  0  0  0  0  0  0  0  0  0
   13.0319    0.6893    0.0000 C   0  0  0  0  0  0  0  0  0  0  0  0
   12.2818   -4.7078    0.0000 C   0  0  0  0  0  0  0  0  0  0  0  0
   10.0318   -3.4087    0.0000 C   0  0  0  0  0  0  0  0  0  0  0  0
    5.5319   -0.8107    0.0000 C   0  0  0  0  0  0  0  0  0  0  0  0
  2  1  1  0  0  0  0
  1 24  1  0  0  0  0
  2  3  1  0  0  0  0
  6  2  1  0  0  0  0
  3  4  1  0  0  0  0
  3  5  2  0  0  0  0
  6  7  1  0  0  0  0
  8  6  1  0  0  0  0
  8  9  1  0  0  0  0
 10  8  1  0  0  0  0
 10 11  1  0  0  0  0
 24 10  1  0  0  0  0
 11 12  1  0  0  0  0
 13 12  1  0  0  0  0
 12 22  1  0  0  0  0
 14 13  1  0  0  0  0
 14 15  1  0  0  0  0
 18 14  1  0  0  0  0
 15 16  1  0  0  0  0
 15 17  2  0  0  0  0
 18 19  1  0  0  0  0
 20 18  1  0  0  0  0
 20 21  1  0  0  0  0
 22 20  1  0  0  0  0
 22 23  1  0  0  0  0
 24 25  1  0  0  0  0
 25 26  1  0  0  0  0
 27 26  1  0  0  0  0
 26 35  1  0  0  0  0
 28 27  1  0  0  0  0
 29 28  1  0  0  0  0
 30 29  1  0  0  0  0
 29 34  1  0  0  0  0
 29 58  1  0  0  0  0
 30 31  1  0  0  0  0
 46 30  1  0  0  0  0
 32 31  1  0  0  0  0
 31 38  1  0  0  0  0
 31 39  1  0  0  0  0
 33 32  1  0  0  0  0
 34 33  1  0  0  0  0
 35 34  1  0  0  0  0
 35 36  1  0  0  0  0
 35 37  1  0  0  0  0
 40 39  1  0  0  0  0
 39 44  1  0  0  0  0
 39 57  1  0  0  0  0
 41 40  1  0  0  0  0
 42 41  1  0  0  0  0
 42 43  1  0  0  0  0
 51 42  1  0  0  0  0
 42 56  1  0  0  0  0
 44 43  1  0  0  0  0
 43 48  1  0  0  0  0
 44 45  2  0  0  0  0
 45 46  1  0  0  0  0
 46 47  2  0  0  0  0
 48 49  1  0  0  0  0
 49 50  1  0  0  0  0
 49 52  1  0  0  0  0
 49 55  1  0  0  0  0
 50 51  1  0  0  0  0
 52 53  1  0  0  0  0
 52 54  2  0  0  0  0
M  END
> <Inchi_key>
LPLVUJXQOOQHMX-UHFFFAOYSA-N

> <Source>
Kotsampasakou

> <ID>
EK0248

> <H_MFHB>


> <CAS>


> <Cholestasis>
1

> <Name>
glycyrrhizin

> <Class>
1


$$$$