

  -INDIGO-08031710012D

 29 32  0  0  0  0  0  0  0  0999 V2000
   -0.8646    7.4242    0.0000 C   0  0  0  0  0  0  0  0  0  0  0  0
   -1.7241    6.1948    0.0000 C   0  0  0  0  0  0  0  0  0  0  0  0
   -3.2237    6.1674    0.0000 O   0  0  0  0  0  0  0  0  0  0  0  0
   -3.6613    4.7327    0.0000 N   0  0  0  0  0  0  0  0  0  0  0  0
   -2.4319    3.8733    0.0000 C   0  0  0  0  0  0  0  0  0  0  0  0
   -2.4044    2.3735    0.0000 C   0  0  0  0  0  0  0  0  0  0  0  0
   -1.0918    1.6472    0.0000 C   0  0  0  0  0  0  0  0  0  0  0  0
   -1.0645    0.1476    0.0000 C   0  0  0  0  0  0  0  0  0  0  0  0
   -2.3498   -0.6260    0.0000 C   0  0  0  0  0  0  0  0  0  0  0  0
   -3.6621    0.1002    0.0000 C   0  0  0  0  0  0  0  0  0  0  0  0
   -3.6894    1.6000    0.0000 C   0  0  0  0  0  0  0  0  0  0  0  0
   -5.0020    2.3260    0.0000 Cl  0  0  0  0  0  0  0  0  0  0  0  0
   -1.2346    4.7769    0.0000 C   0  0  0  0  0  0  0  0  0  0  0  0
    0.2004    4.3395    0.0000 C   0  0  0  0  0  0  0  0  0  0  0  0
    0.5389    2.8782    0.0000 O   0  0  0  0  0  0  0  0  0  0  0  0
    1.2965    5.3633    0.0000 N   0  0  0  0  0  0  0  0  0  0  0  0
    2.7312    4.9259    0.0000 C   0  0  0  0  0  0  0  0  0  0  0  0
    4.0551    5.6313    0.0000 C   0  0  0  0  0  0  0  0  0  0  0  0
    5.0964    6.7110    0.0000 S   0  0  0  0  0  0  0  0  0  0  0  0
    6.4451    6.0546    0.0000 C   0  0  0  0  0  0  0  0  0  0  0  0
    7.1884    7.3574    0.0000 C   0  0  0  0  0  0  0  0  0  0  0  0
    7.9439    5.9968    0.0000 C   0  0  0  0  0  0  0  0  0  0  0  0
    6.2374    4.5689    0.0000 C   0  0  0  0  0  0  0  0  0  0  0  0
    4.7604    4.3073    0.0000 N   0  0  0  0  0  0  0  0  0  0  0  0
    3.4365    3.6020    0.0000 C   0  0  0  0  0  0  0  0  0  0  0  0
    2.9991    2.1672    0.0000 O   0  0  0  0  0  0  0  0  0  0  0  0
    7.3173    3.5278    0.0000 C   0  0  0  0  0  0  0  0  0  0  0  0
    8.7588    3.9424    0.0000 O   0  0  0  0  0  0  0  0  0  0  0  0
    6.9555    2.0721    0.0000 O   0  0  0  0  0  0  0  0  0  0  0  0
  1  2  1  0  0  0  0
  3  2  1  0  0  0  0
  2 13  2  0  0  0  0
  4  3  1  0  0  0  0
  5  4  2  0  0  0  0
  5  6  1  0  0  0  0
 13  5  1  0  0  0  0
  7  6  2  0  0  0  0
  6 11  1  0  0  0  0
  8  7  1  0  0  0  0
  9  8  2  0  0  0  0
 10  9  1  0  0  0  0
 11 10  2  0  0  0  0
 11 12  1  0  0  0  0
 13 14  1  0  0  0  0
 14 15  2  0  0  0  0
 14 16  1  0  0  0  0
 16 17  1  0  0  0  0
 18 17  1  0  0  0  0
 17 25  1  0  0  0  0
 19 18  1  0  0  0  0
 18 24  1  0  0  0  0
 20 19  1  0  0  0  0
 20 21  1  0  0  0  0
 20 22  1  0  0  0  0
 23 20  1  0  0  0  0
 24 23  1  0  0  0  0
 23 27  1  0  0  0  0
 25 24  1  0  0  0  0
 25 26  2  0  0  0  0
 27 28  2  0  0  0  0
 27 29  1  0  0  0  0
M  END
> <Inchi_key>
LQOLIRLGBULYKD-UHFFFAOYSA-N

> <Source>
Mulliner

> <ID>
HT0538

> <H_MFHB>
1

> <CAS>
61-72-3

> <Cholestasis>


> <Name>
cloxacillin sodium

> <Class>
1


$$$$