

  -INDIGO-08031710012D

 23 25  0  0  0  0  0  0  0  0999 V2000
   -2.1848    3.7842    0.0000 C   0  0  0  0  0  0  0  0  0  0  0  0
   -1.4348    5.0832    0.0000 O   0  0  0  0  0  0  0  0  0  0  0  0
    0.0653    5.0832    0.0000 C   0  0  0  0  0  0  0  0  0  0  0  0
    0.8151    3.7842    0.0000 C   0  0  0  0  0  0  0  0  0  0  0  0
    2.3152    3.7842    0.0000 C   0  0  0  0  0  0  0  0  0  0  0  0
    3.0652    2.4851    0.0000 C   0  0  0  0  0  0  0  0  0  0  0  0
    4.5653    2.4851    0.0000 C   0  0  0  0  0  0  0  0  0  0  0  0
    5.3151    3.7842    0.0000 N   0  0  0  0  0  0  0  0  0  0  0  0
    6.8152    3.7842    0.0000 C   0  0  0  0  0  0  0  0  0  0  0  0
    7.5652    5.0832    0.0000 C   0  0  0  0  0  0  0  0  0  0  0  0
    9.0653    5.0832    0.0000 C   0  0  0  0  0  0  0  0  0  0  0  0
    9.8151    3.7842    0.0000 C   0  0  0  0  0  0  0  0  0  0  0  0
   11.3152    3.7842    0.0000 C   0  0  0  0  0  0  0  0  0  0  0  0
    9.0653    2.4851    0.0000 C   0  0  0  0  0  0  0  0  0  0  0  0
    6.8152    6.3822    0.0000 C   0  0  0  0  0  0  0  0  0  0  0  0
    7.5652    7.6813    0.0000 O   0  0  0  0  0  0  0  0  0  0  0  0
    5.3151    6.3822    0.0000 C   0  0  0  0  0  0  0  0  0  0  0  0
    4.5653    5.0832    0.0000 C   0  0  0  0  0  0  0  0  0  0  0  0
    3.0652    5.0832    0.0000 C   0  0  0  0  0  0  0  0  0  0  0  0
    2.3152    6.3822    0.0000 C   0  0  0  0  0  0  0  0  0  0  0  0
    0.8151    6.3822    0.0000 C   0  0  0  0  0  0  0  0  0  0  0  0
    0.0653    7.6813    0.0000 O   0  0  0  0  0  0  0  0  0  0  0  0
    0.8151    8.9803    0.0000 C   0  0  0  0  0  0  0  0  0  0  0  0
  1  2  1  0  0  0  0
  2  3  1  0  0  0  0
  4  3  2  0  0  0  0
  3 21  1  0  0  0  0
  5  4  1  0  0  0  0
  6  5  1  0  0  0  0
  5 19  2  0  0  0  0
  7  6  1  0  0  0  0
  8  7  1  0  0  0  0
  9  8  1  0  0  0  0
  8 18  1  0  0  0  0
 10  9  1  0  0  0  0
 10 11  1  0  0  0  0
 15 10  1  0  0  0  0
 11 12  1  0  0  0  0
 12 13  1  0  0  0  0
 12 14  1  0  0  0  0
 15 16  2  0  0  0  0
 17 15  1  0  0  0  0
 18 17  1  0  0  0  0
 19 18  1  0  0  0  0
 20 19  1  0  0  0  0
 21 20  2  0  0  0  0
 21 22  1  0  0  0  0
 22 23  1  0  0  0  0
M  END
> <Inchi_key>
MKJIEFSOBYUXJB-UHFFFAOYSA-N

> <Source>
Mulliner

> <ID>
HT2023

> <H_MFHB>
1

> <CAS>


> <Cholestasis>


> <Name>
tetrabenazine

> <Class>
1


$$$$