

  -INDIGO-08031710012D

 22 23  0  0  0  0  0  0  0  0999 V2000
    9.6309    1.4623    0.0000 C   0  0  0  0  0  0  0  0  0  0  0  0
    8.8808    2.7614    0.0000 C   0  0  0  0  0  0  0  0  0  0  0  0
    8.1310    4.0604    0.0000 C   0  0  0  0  0  0  0  0  0  0  0  0
    7.5819    2.0114    0.0000 O   0  0  0  0  0  0  0  0  0  0  0  0
    6.2828    2.7614    0.0000 C   0  0  0  0  0  0  0  0  0  0  0  0
    4.9837    2.0114    0.0000 C   0  0  0  0  0  0  0  0  0  0  0  0
    3.6846    2.7614    0.0000 C   0  0  0  0  0  0  0  0  0  0  0  0
    3.6846    4.2614    0.0000 C   0  0  0  0  0  0  0  0  0  0  0  0
    4.9837    5.0114    0.0000 C   0  0  0  0  0  0  0  0  0  0  0  0
    6.2828    4.2614    0.0000 C   0  0  0  0  0  0  0  0  0  0  0  0
    2.3858    5.0114    0.0000 C   0  0  0  0  0  0  0  0  0  0  0  0
    2.3858    6.5114    0.0000 O   0  0  0  0  0  0  0  0  0  0  0  0
    1.0867    4.2614    0.0000 C   0  0  0  0  0  0  0  0  0  0  0  0
    1.0867    2.7614    0.0000 C   0  0  0  0  0  0  0  0  0  0  0  0
   -0.2124    2.0114    0.0000 C   0  0  0  0  0  0  0  0  0  0  0  0
   -1.5113    2.7614    0.0000 C   0  0  0  0  0  0  0  0  0  0  0  0
   -2.8104    2.0114    0.0000 Cl  0  0  0  0  0  0  0  0  0  0  0  0
   -1.5113    4.2614    0.0000 C   0  0  0  0  0  0  0  0  0  0  0  0
   -0.2124    5.0114    0.0000 C   0  0  0  0  0  0  0  0  0  0  0  0
   10.1799    3.5114    0.0000 C   0  0  0  0  0  0  0  0  0  0  0  0
   10.1799    5.0114    0.0000 O   0  0  0  0  0  0  0  0  0  0  0  0
   11.4790    2.7614    0.0000 O   0  0  0  0  0  0  0  0  0  0  0  0
  1  2  1  0  0  0  0
  2  3  1  0  0  0  0
  2  4  1  0  0  0  0
  2 20  1  0  0  0  0
  4  5  1  0  0  0  0
  6  5  2  0  0  0  0
  5 10  1  0  0  0  0
  7  6  1  0  0  0  0
  8  7  2  0  0  0  0
  9  8  1  0  0  0  0
  8 11  1  0  0  0  0
 10  9  2  0  0  0  0
 11 12  2  0  0  0  0
 11 13  1  0  0  0  0
 14 13  2  0  0  0  0
 13 19  1  0  0  0  0
 15 14  1  0  0  0  0
 16 15  2  0  0  0  0
 16 17  1  0  0  0  0
 18 16  1  0  0  0  0
 19 18  2  0  0  0  0
 20 21  2  0  0  0  0
 20 22  1  0  0  0  0
M  END
> <Inchi_key>
MQOBSOSZFYZQOK-UHFFFAOYSA-N

> <Source>
Mulliner

> <ID>
HT0477

> <H_MFHB>
1

> <CAS>


> <Cholestasis>


> <Name>
choline fenofibrate;fenofibric acid

> <Class>
1


$$$$