
  -INDIGO-08031710012D

 50 53  0  0  0  0  0  0  0  0999 V2000
    8.5691    2.2713    0.0000 C   0  0  0  0  0  0  0  0  0  0  0  0
    7.2661    1.5284    0.0000 C   0  0  0  0  0  0  0  0  0  0  0  0
    5.9713    2.2854    0.0000 C   0  0  0  0  0  0  0  0  0  0  0  0
    7.2581    0.0285    0.0000 C   0  0  0  0  0  0  0  0  0  0  0  0
    8.5529   -0.7285    0.0000 N   0  0  0  0  0  0  0  0  0  0  0  0
    9.8562    0.0145    0.0000 C   0  0  0  0  0  0  0  0  0  0  0  0
    9.8643    1.5145    0.0000 O   0  0  0  0  0  0  0  0  0  0  0  0
   11.1511   -0.7426    0.0000 N   0  0  0  0  0  0  0  0  0  0  0  0
   11.1430   -2.2426    0.0000 C   0  0  0  0  0  0  0  0  0  0  0  0
   12.4540    0.0006    0.0000 C   0  0  0  0  0  0  0  0  0  0  0  0
   13.7492   -0.7565    0.0000 C   0  0  0  0  0  0  0  0  0  0  0  0
   13.8978   -2.2491    0.0000 C   0  0  0  0  0  0  0  0  0  0  0  0
   15.3636   -2.5688    0.0000 S   0  0  0  0  0  0  0  0  0  0  0  0
   16.1203   -1.2737    0.0000 C   0  0  0  0  0  0  0  0  0  0  0  0
   15.1226   -0.1537    0.0000 N   0  0  0  0  0  0  0  0  0  0  0  0
   17.6129   -1.1251    0.0000 C   0  0  0  0  0  0  0  0  0  0  0  0
   18.4881   -2.3433    0.0000 C   0  0  0  0  0  0  0  0  0  0  0  0
   18.2306    0.2419    0.0000 C   0  0  0  0  0  0  0  0  0  0  0  0
    5.9551   -0.7146    0.0000 C   0  0  0  0  0  0  0  0  0  0  0  0
    4.6599    0.0425    0.0000 O   0  0  0  0  0  0  0  0  0  0  0  0
    5.9471   -2.2146    0.0000 N   0  0  0  0  0  0  0  0  0  0  0  0
    4.6438   -2.9575    0.0000 C   0  0  0  0  0  0  0  0  0  0  0  0
    3.3489   -2.2007    0.0000 C   0  0  0  0  0  0  0  0  0  0  0  0
    2.0460   -2.9436    0.0000 C   0  0  0  0  0  0  0  0  0  0  0  0
    2.0379   -4.4434    0.0000 O   0  0  0  0  0  0  0  0  0  0  0  0
    0.7508   -2.1866    0.0000 C   0  0  0  0  0  0  0  0  0  0  0  0
    0.7588   -0.6866    0.0000 C   0  0  0  0  0  0  0  0  0  0  0  0
   -0.5360    0.0704    0.0000 C   0  0  0  0  0  0  0  0  0  0  0  0
   -0.5279    1.5703    0.0000 C   0  0  0  0  0  0  0  0  0  0  0  0
   -1.8232    2.3273    0.0000 C   0  0  0  0  0  0  0  0  0  0  0  0
   -3.1261    1.5843    0.0000 C   0  0  0  0  0  0  0  0  0  0  0  0
   -3.1342    0.0844    0.0000 C   0  0  0  0  0  0  0  0  0  0  0  0
   -1.8389   -0.6727    0.0000 C   0  0  0  0  0  0  0  0  0  0  0  0
   -0.5521   -2.9295    0.0000 N   0  0  0  0  0  0  0  0  0  0  0  0
   -0.5602   -4.4295    0.0000 C   0  0  0  0  0  0  0  0  0  0  0  0
    0.7346   -5.1866    0.0000 O   0  0  0  0  0  0  0  0  0  0  0  0
   -1.8631   -5.1727    0.0000 O   0  0  0  0  0  0  0  0  0  0  0  0
   -1.8716   -6.6727    0.0000 C   0  0  0  0  0  0  0  0  0  0  0  0
   -3.1745   -7.4156    0.0000 C   0  0  0  0  0  0  0  0  0  0  0  0
   -3.3392   -8.9065    0.0000 C   0  0  0  0  0  0  0  0  0  0  0  0
   -4.8079   -9.2105    0.0000 N   0  0  0  0  0  0  0  0  0  0  0  0
   -5.5511   -7.9073    0.0000 C   0  0  0  0  0  0  0  0  0  0  0  0
   -4.5413   -6.7982    0.0000 S   0  0  0  0  0  0  0  0  0  0  0  0
    4.6357   -4.4575    0.0000 C   0  0  0  0  0  0  0  0  0  0  0  0
    5.9309   -5.2146    0.0000 C   0  0  0  0  0  0  0  0  0  0  0  0
    7.2339   -4.4714    0.0000 C   0  0  0  0  0  0  0  0  0  0  0  0
    8.5291   -5.2285    0.0000 C   0  0  0  0  0  0  0  0  0  0  0  0
    8.5206   -6.7285    0.0000 C   0  0  0  0  0  0  0  0  0  0  0  0
    7.2177   -7.4714    0.0000 C   0  0  0  0  0  0  0  0  0  0  0  0
    5.9229   -6.7146    0.0000 C   0  0  0  0  0  0  0  0  0  0  0  0
  1  2  1  0  0  0  0
  2  3  1  0  0  0  0
  2  4  1  0  0  0  0
  4  5  1  0  0  0  0
  4 19  1  0  0  0  0
  5  6  1  0  0  0  0
  6  7  2  0  0  0  0
  6  8  1  0  0  0  0
  8  9  1  0  0  0  0
  8 10  1  0  0  0  0
 10 11  1  0  0  0  0
 12 11  2  0  0  0  0
 11 15  1  0  0  0  0
 13 12  1  0  0  0  0
 14 13  1  0  0  0  0
 15 14  2  0  0  0  0
 14 16  1  0  0  0  0
 16 17  1  0  0  0  0
 16 18  1  0  0  0  0
 19 20  2  0  0  0  0
 19 21  1  0  0  0  0
 21 22  1  0  0  0  0
 22 23  1  0  0  0  0
 22 44  1  0  0  0  0
 23 24  1  0  0  0  0
 24 25  1  0  0  0  0
 24 26  1  0  0  0  0
 26 27  1  0  0  0  0
 26 34  1  0  0  0  0
 27 28  1  0  0  0  0
 29 28  2  0  0  0  0
 28 33  1  0  0  0  0
 30 29  1  0  0  0  0
 31 30  2  0  0  0  0
 32 31  1  0  0  0  0
 33 32  2  0  0  0  0
 34 35  1  0  0  0  0
 35 36  2  0  0  0  0
 35 37  1  0  0  0  0
 37 38  1  0  0  0  0
 38 39  1  0  0  0  0
 40 39  2  0  0  0  0
 39 43  1  0  0  0  0
 41 40  1  0  0  0  0
 42 41  2  0  0  0  0
 43 42  1  0  0  0  0
 44 45  1  0  0  0  0
 46 45  2  0  0  0  0
 45 50  1  0  0  0  0
 47 46  1  0  0  0  0
 48 47  2  0  0  0  0
 49 48  1  0  0  0  0
 50 49  2  0  0  0  0
M  END
> <Inchi_key>
NCDNCNXCDXHOMX-UHFFFAOYSA-N

> <Source>
Mulliner

> <ID>
HT1833

> <H_MFHB>
1

> <CAS>


> <Cholestasis>


> <Name>
ritonavir

> <Class>
1

$$$$