

  -INDIGO-08031710012D

 39 41  0  0  0  0  0  0  0  0999 V2000
    9.3647    7.4181    0.0000 C   0  0  0  0  0  0  0  0  0  0  0  0
    9.3331    5.9183    0.0000 C   0  0  0  0  0  0  0  0  0  0  0  0
    8.0185    5.1959    0.0000 C   0  0  0  0  0  0  0  0  0  0  0  0
    6.7355    5.9732    0.0000 O   0  0  0  0  0  0  0  0  0  0  0  0
    7.9869    3.6963    0.0000 O   0  0  0  0  0  0  0  0  0  0  0  0
    6.6723    2.9739    0.0000 C   0  0  0  0  0  0  0  0  0  0  0  0
    6.6409    1.4741    0.0000 O   0  0  0  0  0  0  0  0  0  0  0  0
    7.9236    0.6968    0.0000 P   0  0  0  0  0  0  0  0  0  0  0  0
    8.7008    1.9798    0.0000 O   0  0  0  0  0  0  0  0  0  0  0  0
    7.1464   -0.5860    0.0000 C   0  0  0  0  0  0  0  0  0  0  0  0
    5.6470   -0.5544    0.0000 C   0  0  0  0  0  0  0  0  0  0  0  0
    4.8698   -1.8374    0.0000 C   0  0  0  0  0  0  0  0  0  0  0  0
    3.3701   -1.8058    0.0000 C   0  0  0  0  0  0  0  0  0  0  0  0
    2.5929   -3.0888    0.0000 C   0  0  0  0  0  0  0  0  0  0  0  0
    3.3154   -4.4033    0.0000 C   0  0  0  0  0  0  0  0  0  0  0  0
    2.5382   -5.6863    0.0000 C   0  0  0  0  0  0  0  0  0  0  0  0
    1.0385   -5.6547    0.0000 C   0  0  0  0  0  0  0  0  0  0  0  0
    0.3160   -4.3402    0.0000 C   0  0  0  0  0  0  0  0  0  0  0  0
    1.0932   -3.0572    0.0000 C   0  0  0  0  0  0  0  0  0  0  0  0
    9.2066   -0.0803    0.0000 C   0  0  0  0  0  0  0  0  0  0  0  0
    9.1752   -1.5799    0.0000 C   0  0  0  0  0  0  0  0  0  0  0  0
    7.8606   -2.3023    0.0000 O   0  0  0  0  0  0  0  0  0  0  0  0
   10.4582   -2.3572    0.0000 N   0  0  0  0  0  0  0  0  0  0  0  0
   11.8410   -1.7761    0.0000 C   0  0  0  0  0  0  0  0  0  0  0  0
   12.8209   -2.9117    0.0000 C   0  0  0  0  0  0  0  0  0  0  0  0
   12.0437   -4.1945    0.0000 C   0  0  0  0  0  0  0  0  0  0  0  0
   10.5834   -3.8519    0.0000 C   0  0  0  0  0  0  0  0  0  0  0  0
    9.4477   -4.8317    0.0000 C   0  0  0  0  0  0  0  0  0  0  0  0
    8.0312   -4.3384    0.0000 O   0  0  0  0  0  0  0  0  0  0  0  0
    9.7287   -6.3053    0.0000 O   0  0  0  0  0  0  0  0  0  0  0  0
   14.3157   -2.7862    0.0000 C   0  0  0  0  0  0  0  0  0  0  0  0
   14.9544   -1.4291    0.0000 C   0  0  0  0  0  0  0  0  0  0  0  0
   16.4492   -1.3036    0.0000 C   0  0  0  0  0  0  0  0  0  0  0  0
   17.3052   -2.5356    0.0000 C   0  0  0  0  0  0  0  0  0  0  0  0
   16.6664   -3.8927    0.0000 C   0  0  0  0  0  0  0  0  0  0  0  0
   15.1717   -4.0180    0.0000 C   0  0  0  0  0  0  0  0  0  0  0  0
    5.3893    3.7510    0.0000 C   0  0  0  0  0  0  0  0  0  0  0  0
    4.0747    3.0285    0.0000 C   0  0  0  0  0  0  0  0  0  0  0  0
    5.4209    5.2505    0.0000 C   0  0  0  0  0  0  0  0  0  0  0  0
  1  2  1  0  0  0  0
  2  3  1  0  0  0  0
  3  4  2  0  0  0  0
  3  5  1  0  0  0  0
  5  6  1  0  0  0  0
  6  7  1  0  0  0  0
  6 37  1  0  0  0  0
  7  8  1  0  0  0  0
  8  9  2  0  0  0  0
  8 10  1  0  0  0  0
  8 20  1  0  0  0  0
 10 11  1  0  0  0  0
 11 12  1  0  0  0  0
 12 13  1  0  0  0  0
 13 14  1  0  0  0  0
 15 14  2  0  0  0  0
 14 19  1  0  0  0  0
 16 15  1  0  0  0  0
 17 16  2  0  0  0  0
 18 17  1  0  0  0  0
 19 18  2  0  0  0  0
 20 21  1  0  0  0  0
 21 22  2  0  0  0  0
 21 23  1  0  0  0  0
 24 23  1  0  0  0  0
 23 27  1  0  0  0  0
 25 24  1  0  0  0  0
 26 25  1  0  0  0  0
 25 31  1  0  0  0  0
 27 26  1  0  0  0  0
 27 28  1  0  0  0  0
 28 29  2  0  0  0  0
 28 30  1  0  0  0  0
 32 31  1  0  0  0  0
 31 36  1  0  0  0  0
 33 32  1  0  0  0  0
 34 33  1  0  0  0  0
 35 34  1  0  0  0  0
 36 35  1  0  0  0  0
 37 38  1  0  0  0  0
 37 39  1  0  0  0  0
M  END
> <Inchi_key>
BIDNLKIUORFRQP-UHFFFAOYSA-N

> <Source>
Mulliner

> <ID>
HT0938

> <H_MFHB>
1

> <CAS>


> <Cholestasis>


> <Name>
fosinopril sodium;fosinopril

> <Class>
1


$$$$