
  -INDIGO-08031710012D

 26 28  0  0  0  0  0  0  0  0999 V2000
    0.0246    3.8622    0.0000 N   0  0  0  0  0  0  0  0  0  0  0  0
    1.3236    3.1122    0.0000 S   0  0  0  0  0  0  0  0  0  0  0  0
    0.5736    1.8132    0.0000 O   0  0  0  0  0  0  0  0  0  0  0  0
    2.0736    4.4112    0.0000 O   0  0  0  0  0  0  0  0  0  0  0  0
    2.6228    2.3622    0.0000 C   0  0  0  0  0  0  0  0  0  0  0  0
    3.9218    3.1122    0.0000 C   0  0  0  0  0  0  0  0  0  0  0  0
    5.2208    2.3622    0.0000 C   0  0  0  0  0  0  0  0  0  0  0  0
    5.2208    0.8622    0.0000 C   0  0  0  0  0  0  0  0  0  0  0  0
    6.5197    0.1122    0.0000 N   0  0  0  0  0  0  0  0  0  0  0  0
    7.8187    0.8622    0.0000 C   0  0  0  0  0  0  0  0  0  0  0  0
    7.8187    2.3622    0.0000 N   0  0  0  0  0  0  0  0  0  0  0  0
    6.5197    3.1122    0.0000 S   0  0  0  0  0  0  0  0  0  0  0  0
    7.2697    4.4112    0.0000 O   0  0  0  0  0  0  0  0  0  0  0  0
    5.7698    4.4112    0.0000 O   0  0  0  0  0  0  0  0  0  0  0  0
    9.1180    0.1122    0.0000 C   0  0  0  0  0  0  0  0  0  0  0  0
   10.4169    0.8622    0.0000 S   0  0  0  0  0  0  0  0  0  0  0  0
   11.7159    0.1122    0.0000 C   0  0  0  0  0  0  0  0  0  0  0  0
   13.0149    0.8622    0.0000 C   0  0  0  0  0  0  0  0  0  0  0  0
   13.0149    2.3622    0.0000 C   0  0  0  0  0  0  0  0  0  0  0  0
   14.3141    3.1122    0.0000 C   0  0  0  0  0  0  0  0  0  0  0  0
   15.6131    2.3622    0.0000 C   0  0  0  0  0  0  0  0  0  0  0  0
   15.6131    0.8622    0.0000 C   0  0  0  0  0  0  0  0  0  0  0  0
   14.3141    0.1122    0.0000 C   0  0  0  0  0  0  0  0  0  0  0  0
    3.9218    0.1122    0.0000 C   0  0  0  0  0  0  0  0  0  0  0  0
    2.6228    0.8622    0.0000 C   0  0  0  0  0  0  0  0  0  0  0  0
    1.3236    0.1122    0.0000 Cl  0  0  0  0  0  0  0  0  0  0  0  0
  1  2  1  0  0  0  0
  2  3  2  0  0  0  0
  2  4  2  0  0  0  0
  2  5  1  0  0  0  0
  6  5  2  0  0  0  0
  5 25  1  0  0  0  0
  7  6  1  0  0  0  0
  7  8  2  0  0  0  0
 12  7  1  0  0  0  0
  8  9  1  0  0  0  0
 24  8  1  0  0  0  0
  9 10  1  0  0  0  0
 10 11  2  0  0  0  0
 10 15  1  0  0  0  0
 11 12  1  0  0  0  0
 12 13  2  0  0  0  0
 12 14  2  0  0  0  0
 15 16  1  0  0  0  0
 16 17  1  0  0  0  0
 17 18  1  0  0  0  0
 19 18  2  0  0  0  0
 18 23  1  0  0  0  0
 20 19  1  0  0  0  0
 21 20  2  0  0  0  0
 22 21  1  0  0  0  0
 23 22  2  0  0  0  0
 25 24  2  0  0  0  0
 25 26  1  0  0  0  0
M  END
> <Inchi_key>
NDTSRXAMMQDVSW-UHFFFAOYSA-N

> <Source>
Mulliner

> <ID>
HT0255

> <H_MFHB>
1

> <CAS>


> <Cholestasis>


> <Name>
benzthiazide

> <Class>
1

$$$$