

  -INDIGO-08031709442D

 34 36  0  0  0  0  0  0  0  0999 V2000
   -3.0931    1.8163    0.0000 S   0  0  0  0  0  0  0  0  0  0  0  0
   -2.3397    0.5192    0.0000 O   0  0  0  0  0  0  0  0  0  0  0  0
   -3.8465    3.1132    0.0000 O   0  0  0  0  0  0  0  0  0  0  0  0
   -4.3899    1.0628    0.0000 N   0  0  0  0  0  0  0  0  0  0  0  0
   -5.6912    1.8094    0.0000 C   0  0  0  0  0  0  0  0  0  0  0  0
   -5.6952    3.3093    0.0000 O   0  0  0  0  0  0  0  0  0  0  0  0
   -6.9880    1.0558    0.0000 N   0  0  0  0  0  0  0  0  0  0  0  0
   -8.2893    1.8023    0.0000 C   0  0  0  0  0  0  0  0  0  0  0  0
   -9.5861    1.0488    0.0000 C   0  0  0  0  0  0  0  0  0  0  0  0
  -10.8873    1.7954    0.0000 C   0  0  0  0  0  0  0  0  0  0  0  0
  -10.8914    3.2954    0.0000 C   0  0  0  0  0  0  0  0  0  0  0  0
   -9.5942    4.0489    0.0000 C   0  0  0  0  0  0  0  0  0  0  0  0
   -8.2933    3.3023    0.0000 C   0  0  0  0  0  0  0  0  0  0  0  0
  -12.1923    4.0419    0.0000 C   0  0  0  0  0  0  0  0  0  0  0  0
   -1.7959    2.5697    0.0000 C   0  0  0  0  0  0  0  0  0  0  0  0
   -1.8000    4.0697    0.0000 C   0  0  0  0  0  0  0  0  0  0  0  0
   -0.5032    4.8232    0.0000 C   0  0  0  0  0  0  0  0  0  0  0  0
    0.7981    4.0767    0.0000 C   0  0  0  0  0  0  0  0  0  0  0  0
    0.8022    2.5767    0.0000 C   0  0  0  0  0  0  0  0  0  0  0  0
   -0.4950    1.8232    0.0000 C   0  0  0  0  0  0  0  0  0  0  0  0
    2.0949    4.8302    0.0000 C   0  0  0  0  0  0  0  0  0  0  0  0
    3.3962    4.0837    0.0000 C   0  0  0  0  0  0  0  0  0  0  0  0
    4.6930    4.8372    0.0000 N   0  0  0  0  0  0  0  0  0  0  0  0
    5.9943    4.0907    0.0000 C   0  0  0  0  0  0  0  0  0  0  0  0
    5.9983    2.5906    0.0000 O   0  0  0  0  0  0  0  0  0  0  0  0
    7.2911    4.8441    0.0000 N   0  0  0  0  0  0  0  0  0  0  0  0
    7.4441    6.3363    0.0000 C   0  0  0  0  0  0  0  0  0  0  0  0
    8.9103    6.6521    0.0000 C   0  0  0  0  0  0  0  0  0  0  0  0
    9.5169    8.0241    0.0000 C   0  0  0  0  0  0  0  0  0  0  0  0
    9.6637    5.3552    0.0000 C   0  0  0  0  0  0  0  0  0  0  0  0
   11.1561    5.2023    0.0000 C   0  0  0  0  0  0  0  0  0  0  0  0
   12.0344    6.4182    0.0000 C   0  0  0  0  0  0  0  0  0  0  0  0
    8.6630    4.2377    0.0000 C   0  0  0  0  0  0  0  0  0  0  0  0
    8.9790    2.7713    0.0000 O   0  0  0  0  0  0  0  0  0  0  0  0
  1  2  2  0  0  0  0
  1  3  1  0  0  0  0
  1  4  2  0  0  0  0
  1 15  1  0  0  0  0
  4  5  1  0  0  0  0
  5  6  2  0  0  0  0
  5  7  1  0  0  0  0
  7  8  1  0  0  0  0
  9  8  1  0  0  0  0
  8 13  1  0  0  0  0
 10  9  1  0  0  0  0
 11 10  1  0  0  0  0
 12 11  1  0  0  0  0
 11 14  1  0  0  0  0
 13 12  1  0  0  0  0
 16 15  2  0  0  0  0
 15 20  1  0  0  0  0
 17 16  1  0  0  0  0
 18 17  2  0  0  0  0
 19 18  1  0  0  0  0
 18 21  1  0  0  0  0
 20 19  2  0  0  0  0
 21 22  1  0  0  0  0
 22 23  1  0  0  0  0
 23 24  1  0  0  0  0
 24 25  2  0  0  0  0
 24 26  1  0  0  0  0
 27 26  1  0  0  0  0
 26 33  1  0  0  0  0
 28 27  1  0  0  0  0
 28 29  1  0  0  0  0
 30 28  2  0  0  0  0
 30 31  1  0  0  0  0
 33 30  1  0  0  0  0
 31 32  1  0  0  0  0
 33 34  2  0  0  0  0
M  END
> <Inchi_key>
NFVVGNUJRILVTB-UHFFFAOYSA-N, OJZDRWSQHDETPA-UHFFFAOYSA-N

> <Source>
Kotsampasakou, Mulliner

> <ID>
HT0987;EK0244

> <H_MFHB>
1

> <CAS>


> <Cholestasis>
1

> <Name>
glimepiride

> <Class>
1


$$$$