

  -INDIGO-08031710012D

 24 27  0  0  0  0  0  0  0  0999 V2000
   -1.3895   -2.4067    0.0000 O   0  0  0  0  0  0  0  0  0  0  0  0
   -0.6395   -3.7057    0.0000 C   0  0  0  0  0  0  0  0  0  0  0  0
   -1.3895   -5.0047    0.0000 O   0  0  0  0  0  0  0  0  0  0  0  0
    0.8605   -3.7057    0.0000 C   0  0  0  0  0  0  0  0  0  0  0  0
    1.6105   -2.4067    0.0000 C   0  0  0  0  0  0  0  0  0  0  0  0
    3.1106   -2.4067    0.0000 N   0  0  0  0  0  0  0  0  0  0  0  0
    3.8606   -1.1077    0.0000 C   0  0  0  0  0  0  0  0  0  0  0  0
    5.1596   -0.3577    0.0000 C   0  0  0  0  0  0  0  0  0  0  0  0
    3.8606    0.3923    0.0000 C   0  0  0  0  0  0  0  0  0  0  0  0
    3.8606   -3.7057    0.0000 C   0  0  0  0  0  0  0  0  0  0  0  0
    5.3604   -3.7057    0.0000 C   0  0  0  0  0  0  0  0  0  0  0  0
    6.1104   -5.0047    0.0000 C   0  0  0  0  0  0  0  0  0  0  0  0
    7.6105   -5.0047    0.0000 N   0  0  0  0  0  0  0  0  0  0  0  0
    8.3605   -3.7057    0.0000 C   0  0  0  0  0  0  0  0  0  0  0  0
    9.8605   -3.7057    0.0000 C   0  0  0  0  0  0  0  0  0  0  0  0
   10.6105   -5.0047    0.0000 N   0  0  0  0  0  0  0  0  0  0  0  0
    9.8605   -6.3038    0.0000 C   0  0  0  0  0  0  0  0  0  0  0  0
    8.3605   -6.3038    0.0000 C   0  0  0  0  0  0  0  0  0  0  0  0
    5.3604   -6.3038    0.0000 C   0  0  0  0  0  0  0  0  0  0  0  0
    6.1104   -7.6028    0.0000 F   0  0  0  0  0  0  0  0  0  0  0  0
    3.8606   -6.3038    0.0000 C   0  0  0  0  0  0  0  0  0  0  0  0
    3.1106   -5.0047    0.0000 C   0  0  0  0  0  0  0  0  0  0  0  0
    1.6105   -5.0047    0.0000 C   0  0  0  0  0  0  0  0  0  0  0  0
    0.8605   -6.3038    0.0000 O   0  0  0  0  0  0  0  0  0  0  0  0
  1  2  1  0  0  0  0
  2  3  2  0  0  0  0
  2  4  1  0  0  0  0
  5  4  2  0  0  0  0
  4 23  1  0  0  0  0
  6  5  1  0  0  0  0
  6  7  1  0  0  0  0
 10  6  1  0  0  0  0
  8  7  1  0  0  0  0
  7  9  1  0  0  0  0
  9  8  1  0  0  0  0
 11 10  1  0  0  0  0
 10 22  2  0  0  0  0
 12 11  2  0  0  0  0
 12 13  1  0  0  0  0
 19 12  1  0  0  0  0
 14 13  1  0  0  0  0
 13 18  1  0  0  0  0
 15 14  1  0  0  0  0
 16 15  1  0  0  0  0
 17 16  1  0  0  0  0
 18 17  1  0  0  0  0
 19 20  1  0  0  0  0
 21 19  2  0  0  0  0
 22 21  1  0  0  0  0
 23 22  1  0  0  0  0
 23 24  2  0  0  0  0
M  END
> <Inchi_key>
MYSWGUAQZAJSOK-UHFFFAOYSA-N

> <Source>
Mulliner , Kotsampasakou

> <ID>
EK0123;HT0497

> <H_MFHB>
1

> <CAS>
85721-33-1;93107-08-5

> <Cholestasis>
1

> <Name>
ciprofloxacin;ciprofloxacin hydrochloride

> <Class>
1


$$$$