

  -INDIGO-08031710012D

 28 30  0  0  0  0  0  0  0  0999 V2000
   -0.8994    3.3567    0.0000 C   0  0  0  0  0  0  0  0  0  0  0  0
    0.3997    4.1067    0.0000 C   0  0  0  0  0  0  0  0  0  0  0  0
    1.6988    3.3567    0.0000 C   0  0  0  0  0  0  0  0  0  0  0  0
    2.9977    4.1067    0.0000 C   0  0  0  0  0  0  0  0  0  0  0  0
    2.9977    5.6066    0.0000 C   0  0  0  0  0  0  0  0  0  0  0  0
    4.2968    6.3568    0.0000 C   0  0  0  0  0  0  0  0  0  0  0  0
    4.2968    7.8567    0.0000 C   0  0  0  0  0  0  0  0  0  0  0  0
    2.9977    8.6067    0.0000 C   0  0  0  0  0  0  0  0  0  0  0  0
    1.6988    7.8567    0.0000 C   0  0  0  0  0  0  0  0  0  0  0  0
    1.6988    6.3568    0.0000 C   0  0  0  0  0  0  0  0  0  0  0  0
    4.2968    3.3567    0.0000 C   0  0  0  0  0  0  0  0  0  0  0  0
    4.2968    1.8568    0.0000 C   0  0  0  0  0  0  0  0  0  0  0  0
    5.5959    1.1066    0.0000 C   0  0  0  0  0  0  0  0  0  0  0  0
    6.8947    1.8568    0.0000 C   0  0  0  0  0  0  0  0  0  0  0  0
    8.1938    1.1066    0.0000 O   0  0  0  0  0  0  0  0  0  0  0  0
    9.4929    1.8568    0.0000 C   0  0  0  0  0  0  0  0  0  0  0  0
   10.7918    1.1066    0.0000 C   0  0  0  0  0  0  0  0  0  0  0  0
   12.0909    1.8568    0.0000 N   0  0  0  0  0  0  0  0  0  0  0  0
   13.3900    1.1066    0.0000 C   0  0  0  0  0  0  0  0  0  0  0  0
   12.0909    3.3567    0.0000 C   0  0  0  0  0  0  0  0  0  0  0  0
    6.8947    3.3567    0.0000 C   0  0  0  0  0  0  0  0  0  0  0  0
    5.5959    4.1067    0.0000 C   0  0  0  0  0  0  0  0  0  0  0  0
    1.6988    1.8568    0.0000 C   0  0  0  0  0  0  0  0  0  0  0  0
    0.3997    1.1066    0.0000 C   0  0  0  0  0  0  0  0  0  0  0  0
    0.3997   -0.3933    0.0000 C   0  0  0  0  0  0  0  0  0  0  0  0
    1.6988   -1.1433    0.0000 C   0  0  0  0  0  0  0  0  0  0  0  0
    2.9977   -0.3933    0.0000 C   0  0  0  0  0  0  0  0  0  0  0  0
    2.9977    1.1066    0.0000 C   0  0  0  0  0  0  0  0  0  0  0  0
  1  2  1  0  0  0  0
  2  3  1  0  0  0  0
  3  4  2  0  0  0  0
  3 23  1  0  0  0  0
  4  5  1  0  0  0  0
  4 11  1  0  0  0  0
  6  5  2  0  0  0  0
  5 10  1  0  0  0  0
  7  6  1  0  0  0  0
  8  7  2  0  0  0  0
  9  8  1  0  0  0  0
 10  9  2  0  0  0  0
 12 11  2  0  0  0  0
 11 22  1  0  0  0  0
 13 12  1  0  0  0  0
 14 13  2  0  0  0  0
 14 15  1  0  0  0  0
 21 14  1  0  0  0  0
 15 16  1  0  0  0  0
 16 17  1  0  0  0  0
 17 18  1  0  0  0  0
 18 19  1  0  0  0  0
 18 20  1  0  0  0  0
 22 21  2  0  0  0  0
 24 23  2  0  0  0  0
 23 28  1  0  0  0  0
 25 24  1  0  0  0  0
 26 25  2  0  0  0  0
 27 26  1  0  0  0  0
 28 27  2  0  0  0  0
M  END
> <Inchi_key>
NKANXQFJJICGDU-QPLCGJKRSA-N

> <Source>
Mulliner , Kotsampasakou

> <ID>
EK0501;HT1978

> <H_MFHB>
1

> <CAS>
10540-29-1;54965-24-1;7244-97-5

> <Cholestasis>
1

> <Name>
tamoxifen citrate;tamoxifen

> <Class>
1


$$$$