
  -INDIGO-08031710012D

 23 24  0  0  0  0  0  0  0  0999 V2000
   12.6196    3.7842    0.0000 C   0  0  0  0  0  0  0  0  0  0  0  0
   11.8696    5.0832    0.0000 C   0  0  0  0  0  0  0  0  0  0  0  0
   12.6196    6.3822    0.0000 C   0  0  0  0  0  0  0  0  0  0  0  0
   10.3695    5.0832    0.0000 C   0  0  0  0  0  0  0  0  0  0  0  0
    9.6196    6.3822    0.0000 C   0  0  0  0  0  0  0  0  0  0  0  0
    8.1197    6.3822    0.0000 C   0  0  0  0  0  0  0  0  0  0  0  0
    7.3697    5.0832    0.0000 C   0  0  0  0  0  0  0  0  0  0  0  0
    8.1197    3.7842    0.0000 C   0  0  0  0  0  0  0  0  0  0  0  0
    9.6196    3.7842    0.0000 C   0  0  0  0  0  0  0  0  0  0  0  0
    5.8696    5.0832    0.0000 C   0  0  0  0  0  0  0  0  0  0  0  0
    5.1196    3.7842    0.0000 O   0  0  0  0  0  0  0  0  0  0  0  0
    5.1196    6.3822    0.0000 N   0  0  0  0  0  0  0  0  0  0  0  0
    3.6195    6.3822    0.0000 C   0  0  0  0  0  0  0  0  0  0  0  0
    2.8695    5.0832    0.0000 C   0  0  0  0  0  0  0  0  0  0  0  0
    1.3696    5.0832    0.0000 C   0  0  0  0  0  0  0  0  0  0  0  0
    0.6197    3.7842    0.0000 C   0  0  0  0  0  0  0  0  0  0  0  0
   -0.8804    3.7842    0.0000 C   0  0  0  0  0  0  0  0  0  0  0  0
   -1.6304    5.0832    0.0000 C   0  0  0  0  0  0  0  0  0  0  0  0
   -0.8804    6.3822    0.0000 C   0  0  0  0  0  0  0  0  0  0  0  0
    0.6197    6.3822    0.0000 C   0  0  0  0  0  0  0  0  0  0  0  0
    2.8695    7.6813    0.0000 C   0  0  0  0  0  0  0  0  0  0  0  0
    1.3696    7.6813    0.0000 O   0  0  0  0  0  0  0  0  0  0  0  0
    3.6195    8.9803    0.0000 O   0  0  0  0  0  0  0  0  0  0  0  0
  1  2  1  0  0  0  0
  2  3  1  0  0  0  0
  2  4  1  0  0  0  0
  5  4  1  0  0  0  0
  4  9  1  0  0  0  0
  6  5  1  0  0  0  0
  7  6  1  0  0  0  0
  8  7  1  0  0  0  0
  7 10  1  0  0  0  0
  9  8  1  0  0  0  0
 10 11  2  0  0  0  0
 10 12  1  0  0  0  0
 12 13  1  0  0  0  0
 13 14  1  0  0  0  0
 13 21  1  0  0  0  0
 14 15  1  0  0  0  0
 16 15  2  0  0  0  0
 15 20  1  0  0  0  0
 17 16  1  0  0  0  0
 18 17  2  0  0  0  0
 19 18  1  0  0  0  0
 20 19  2  0  0  0  0
 21 22  2  0  0  0  0
 21 23  1  0  0  0  0
M  END
> <Inchi_key>
OELFLUMRDSZNSF-UHFFFAOYSA-N

> <Source>
Mulliner

> <ID>
HT1467

> <H_MFHB>
1

> <CAS>
105816-04-4;0

> <Cholestasis>


> <Name>
nateglinide

> <Class>
1

$$$$