

  -INDIGO-08031710012D

 31 31  0  0  0  0  0  0  0  0999 V2000
    3.4112    1.9695    0.0000 C   0  0  0  0  0  0  0  0  0  0  0  0
    2.6614    0.6705    0.0000 N   0  0  0  0  0  0  0  0  0  0  0  0
    1.1612    0.6705    0.0000 C   0  0  0  0  0  0  0  0  0  0  0  0
    0.4114   -0.6285    0.0000 O   0  0  0  0  0  0  0  0  0  0  0  0
    0.4114    1.9695    0.0000 C   0  0  0  0  0  0  0  0  0  0  0  0
   -1.0887    1.9695    0.0000 O   0  0  0  0  0  0  0  0  0  0  0  0
    3.4112   -0.6285    0.0000 C   0  0  0  0  0  0  0  0  0  0  0  0
    4.9113   -0.6285    0.0000 C   0  0  0  0  0  0  0  0  0  0  0  0
    5.6614    0.6705    0.0000 I   0  0  0  0  0  0  0  0  0  0  0  0
    5.6614   -1.9276    0.0000 C   0  0  0  0  0  0  0  0  0  0  0  0
    7.1613   -1.9276    0.0000 C   0  0  0  0  0  0  0  0  0  0  0  0
    7.9114   -0.6285    0.0000 O   0  0  0  0  0  0  0  0  0  0  0  0
    7.9114   -3.2266    0.0000 N   0  0  0  0  0  0  0  0  0  0  0  0
    9.4113   -3.2266    0.0000 C   0  0  0  0  0  0  0  0  0  0  0  0
   10.1613   -4.5258    0.0000 C   0  0  0  0  0  0  0  0  0  0  0  0
    9.4113   -5.8246    0.0000 O   0  0  0  0  0  0  0  0  0  0  0  0
   11.6612   -4.5258    0.0000 C   0  0  0  0  0  0  0  0  0  0  0  0
   12.4113   -5.8246    0.0000 O   0  0  0  0  0  0  0  0  0  0  0  0
    4.9113   -3.2266    0.0000 C   0  0  0  0  0  0  0  0  0  0  0  0
    5.6614   -4.5258    0.0000 I   0  0  0  0  0  0  0  0  0  0  0  0
    3.4112   -3.2266    0.0000 C   0  0  0  0  0  0  0  0  0  0  0  0
    2.6614   -4.5258    0.0000 C   0  0  0  0  0  0  0  0  0  0  0  0
    3.4112   -5.8246    0.0000 O   0  0  0  0  0  0  0  0  0  0  0  0
    1.1612   -4.5258    0.0000 N   0  0  0  0  0  0  0  0  0  0  0  0
    0.4114   -5.8246    0.0000 C   0  0  0  0  0  0  0  0  0  0  0  0
   -1.0887   -5.8246    0.0000 C   0  0  0  0  0  0  0  0  0  0  0  0
   -1.8388   -4.5258    0.0000 O   0  0  0  0  0  0  0  0  0  0  0  0
   -1.8388   -7.1238    0.0000 C   0  0  0  0  0  0  0  0  0  0  0  0
   -3.3387   -7.1238    0.0000 O   0  0  0  0  0  0  0  0  0  0  0  0
    2.6614   -1.9276    0.0000 C   0  0  0  0  0  0  0  0  0  0  0  0
    1.1612   -1.9276    0.0000 I   0  0  0  0  0  0  0  0  0  0  0  0
  1  2  1  0  0  0  0
  2  3  1  0  0  0  0
  2  7  1  0  0  0  0
  3  4  2  0  0  0  0
  3  5  1  0  0  0  0
  5  6  1  0  0  0  0
  8  7  2  0  0  0  0
  7 30  1  0  0  0  0
  8  9  1  0  0  0  0
 10  8  1  0  0  0  0
 10 11  1  0  0  0  0
 19 10  2  0  0  0  0
 11 12  2  0  0  0  0
 11 13  1  0  0  0  0
 13 14  1  0  0  0  0
 14 15  1  0  0  0  0
 15 16  1  0  0  0  0
 15 17  1  0  0  0  0
 17 18  1  0  0  0  0
 19 20  1  0  0  0  0
 21 19  1  0  0  0  0
 21 22  1  0  0  0  0
 30 21  2  0  0  0  0
 22 23  2  0  0  0  0
 22 24  1  0  0  0  0
 24 25  1  0  0  0  0
 25 26  1  0  0  0  0
 26 27  1  0  0  0  0
 26 28  1  0  0  0  0
 28 29  1  0  0  0  0
 30 31  1  0  0  0  0
M  END
> <Inchi_key>
NJKDOADNQSYQEV-UHFFFAOYSA-N

> <Source>
Mulliner

> <ID>
HT1110

> <H_MFHB>
1

> <CAS>
78649-41-9

> <Cholestasis>


> <Name>
iomeprol

> <Class>
1


$$$$