

  -INDIGO-08031710012D

 17 18  0  0  0  0  0  0  0  0999 V2000
    7.7904    1.7989    0.0000 O   0  0  0  0  0  0  0  0  0  0  0  0
    7.8688    3.2968    0.0000 N   0  0  0  0  0  0  0  0  0  0  0  0
    9.2053    3.9778    0.0000 O   0  0  0  0  0  0  0  0  0  0  0  0
    6.6108    4.1138    0.0000 C   0  0  0  0  0  0  0  0  0  0  0  0
    5.2104    3.5762    0.0000 O   0  0  0  0  0  0  0  0  0  0  0  0
    4.2666    4.7419    0.0000 C   0  0  0  0  0  0  0  0  0  0  0  0
    2.7686    4.6634    0.0000 C   0  0  0  0  0  0  0  0  0  0  0  0
    1.9515    5.9214    0.0000 N   0  0  0  0  0  0  0  0  0  0  0  0
    0.4535    5.8429    0.0000 N   0  0  0  0  0  0  0  0  0  0  0  0
   -0.3633    4.5849    0.0000 C   0  0  0  0  0  0  0  0  0  0  0  0
   -1.8123    4.9732    0.0000 C   0  0  0  0  0  0  0  0  0  0  0  0
   -2.9779    4.0292    0.0000 O   0  0  0  0  0  0  0  0  0  0  0  0
   -1.8907    6.4711    0.0000 N   0  0  0  0  0  0  0  0  0  0  0  0
   -0.4903    7.0087    0.0000 C   0  0  0  0  0  0  0  0  0  0  0  0
   -0.1022    8.4575    0.0000 O   0  0  0  0  0  0  0  0  0  0  0  0
    5.0834    5.9999    0.0000 C   0  0  0  0  0  0  0  0  0  0  0  0
    6.5324    5.6117    0.0000 C   0  0  0  0  0  0  0  0  0  0  0  0
  1  2  1  0  0  0  0
  2  3  2  0  0  0  0
  2  4  1  0  0  0  0
  5  4  1  0  0  0  0
  4 17  2  0  0  0  0
  6  5  1  0  0  0  0
  6  7  1  0  0  0  0
 16  6  2  0  0  0  0
  7  8  2  0  0  0  0
  8  9  1  0  0  0  0
 10  9  1  0  0  0  0
  9 14  1  0  0  0  0
 11 10  1  0  0  0  0
 11 12  2  0  0  0  0
 13 11  1  0  0  0  0
 14 13  1  0  0  0  0
 14 15  2  0  0  0  0
 17 16  1  0  0  0  0
M  CHG  2   1  -1   2   1
M  END
> <Inchi_key>
NXFQHRVNIOXGAQ-YCRREMRBSA-N

> <Source>
Mulliner

> <ID>
HT1507

> <H_MFHB>
1

> <CAS>
67-20-9

> <Cholestasis>


> <Name>
nitrofurantoin;nitrofurantoin sodium

> <Class>
1


$$$$