

  -INDIGO-08031710012D

 18 20  0  0  0  0  0  0  0  0999 V2000
   12.0271    0.0000    0.0000 F   0  0  0  0  0  0  0  0  0  0  0  0
   10.5271    0.0000    0.0000 C   0  0  0  0  0  0  0  0  0  0  0  0
    9.7771    1.2990    0.0000 C   0  0  0  0  0  0  0  0  0  0  0  0
    8.2771    1.2990    0.0000 C   0  0  0  0  0  0  0  0  0  0  0  0
    7.5271    0.0000    0.0000 C   0  0  0  0  0  0  0  0  0  0  0  0
    8.2771   -1.2990    0.0000 C   0  0  0  0  0  0  0  0  0  0  0  0
    9.7771   -1.2990    0.0000 C   0  0  0  0  0  0  0  0  0  0  0  0
    6.0271    0.0000    0.0000 C   0  0  0  0  0  0  0  0  0  0  0  0
    5.1454    1.2135    0.0000 C   0  0  0  0  0  0  0  0  0  0  0  0
    5.6089    2.6401    0.0000 O   0  0  0  0  0  0  0  0  0  0  0  0
    3.7189    0.7500    0.0000 C   0  0  0  0  0  0  0  0  0  0  0  0
    2.4198    1.5000    0.0000 C   0  0  0  0  0  0  0  0  0  0  0  0
    1.1207    0.7500    0.0000 C   0  0  0  0  0  0  0  0  0  0  0  0
    1.1207   -0.7500    0.0000 C   0  0  0  0  0  0  0  0  0  0  0  0
    2.4198   -1.5000    0.0000 C   0  0  0  0  0  0  0  0  0  0  0  0
    3.7189   -0.7500    0.0000 C   0  0  0  0  0  0  0  0  0  0  0  0
    5.1454   -1.2135    0.0000 C   0  0  0  0  0  0  0  0  0  0  0  0
    5.6089   -2.6401    0.0000 O   0  0  0  0  0  0  0  0  0  0  0  0
  1  2  1  0  0  0  0
  3  2  2  0  0  0  0
  2  7  1  0  0  0  0
  4  3  1  0  0  0  0
  5  4  2  0  0  0  0
  6  5  1  0  0  0  0
  5  8  1  0  0  0  0
  7  6  2  0  0  0  0
  9  8  1  0  0  0  0
  8 17  1  0  0  0  0
  9 10  2  0  0  0  0
 11  9  1  0  0  0  0
 12 11  1  0  0  0  0
 11 16  2  0  0  0  0
 13 12  2  0  0  0  0
 14 13  1  0  0  0  0
 15 14  2  0  0  0  0
 16 15  1  0  0  0  0
 17 16  1  0  0  0  0
 17 18  2  0  0  0  0
M  END
> <Inchi_key>
NASXCEITKQITLD-UHFFFAOYSA-N

> <Source>
Mulliner

> <ID>
HT0896

> <H_MFHB>
1

> <CAS>


> <Cholestasis>


> <Name>
fluindione

> <Class>
1


$$$$