
  -INDIGO-08031710012D

 42 45  0  0  0  0  0  0  0  0999 V2000
    0.0000    0.0000    0.0000 C   0  0  0  0  0  0  0  0  0  0  0  0
    1.4999    0.0000    0.0000 C   0  0  0  0  0  0  0  0  0  0  0  0
    2.2500    1.2989    0.0000 C   0  0  0  0  0  0  0  0  0  0  0  0
    3.7499    1.2989    0.0000 C   0  0  0  0  0  0  0  0  0  0  0  0
    3.0001    2.5982    0.0000 C   0  0  0  0  0  0  0  0  0  0  0  0
    3.7499    3.8971    0.0000 C   0  0  0  0  0  0  0  0  0  0  0  0
    3.0001    5.1962    0.0000 C   0  0  0  0  0  0  0  0  0  0  0  0
    1.4999    5.1962    0.0000 C   0  0  0  0  0  0  0  0  0  0  0  0
    0.7501    6.4953    0.0000 C   0  0  0  0  0  0  0  0  0  0  0  0
    1.4999    7.7942    0.0000 C   0  0  0  0  0  0  0  0  0  0  0  0
    3.0001    7.7942    0.0000 C   0  0  0  0  0  0  0  0  0  0  0  0
    3.7499    6.4953    0.0000 C   0  0  0  0  0  0  0  0  0  0  0  0
    5.0489    2.0490    0.0000 C   0  0  0  0  0  0  0  0  0  0  0  0
    6.3482    1.2989    0.0000 C   0  0  0  0  0  0  0  0  0  0  0  0
    7.6472    2.0490    0.0000 O   0  0  0  0  0  0  0  0  0  0  0  0
    6.3482   -0.2010    0.0000 C   0  0  0  0  0  0  0  0  0  0  0  0
    5.0489   -0.9510    0.0000 C   0  0  0  0  0  0  0  0  0  0  0  0
    5.0489   -2.4510    0.0000 O   0  0  0  0  0  0  0  0  0  0  0  0
    3.7499   -0.2010    0.0000 O   0  0  0  0  0  0  0  0  0  0  0  0
    7.6472   -0.9510    0.0000 C   0  0  0  0  0  0  0  0  0  0  0  0
    7.6472   -2.4510    0.0000 C   0  0  0  0  0  0  0  0  0  0  0  0
    8.9462   -3.2010    0.0000 C   0  0  0  0  0  0  0  0  0  0  0  0
    8.9462   -0.2010    0.0000 C   0  0  0  0  0  0  0  0  0  0  0  0
    8.9462    1.2989    0.0000 C   0  0  0  0  0  0  0  0  0  0  0  0
   10.2452    2.0490    0.0000 C   0  0  0  0  0  0  0  0  0  0  0  0
   11.5442    1.2989    0.0000 C   0  0  0  0  0  0  0  0  0  0  0  0
   11.5442   -0.2010    0.0000 C   0  0  0  0  0  0  0  0  0  0  0  0
   12.8432   -0.9510    0.0000 N   0  0  0  0  0  0  0  0  0  0  0  0
   14.1422   -0.2010    0.0000 S   0  0  0  0  0  0  0  0  0  0  0  0
   14.8923   -1.4999    0.0000 O   0  0  0  0  0  0  0  0  0  0  0  0
   13.3924    1.0981    0.0000 O   0  0  0  0  0  0  0  0  0  0  0  0
   15.4412    0.5490    0.0000 C   0  0  0  0  0  0  0  0  0  0  0  0
   15.4412    2.0490    0.0000 C   0  0  0  0  0  0  0  0  0  0  0  0
   16.7405    2.7990    0.0000 C   0  0  0  0  0  0  0  0  0  0  0  0
   18.0395    2.0490    0.0000 C   0  0  0  0  0  0  0  0  0  0  0  0
   18.0395    0.5490    0.0000 C   0  0  0  0  0  0  0  0  0  0  0  0
   16.7405   -0.2010    0.0000 N   0  0  0  0  0  0  0  0  0  0  0  0
   19.3385    2.7990    0.0000 C   0  0  0  0  0  0  0  0  0  0  0  0
   20.0886    1.5001    0.0000 F   0  0  0  0  0  0  0  0  0  0  0  0
   20.6375    3.5490    0.0000 F   0  0  0  0  0  0  0  0  0  0  0  0
   18.5884    4.0981    0.0000 F   0  0  0  0  0  0  0  0  0  0  0  0
   10.2452   -0.9510    0.0000 C   0  0  0  0  0  0  0  0  0  0  0  0
  1  2  1  0  0  0  0
  2  3  1  0  0  0  0
  3  4  1  0  0  0  0
  4  5  1  0  0  0  0
 13  4  1  0  0  0  0
  4 19  1  0  0  0  0
  5  6  1  0  0  0  0
  6  7  1  0  0  0  0
  8  7  2  0  0  0  0
  7 12  1  0  0  0  0
  9  8  1  0  0  0  0
 10  9  2  0  0  0  0
 11 10  1  0  0  0  0
 12 11  2  0  0  0  0
 14 13  1  0  0  0  0
 14 15  2  0  0  0  0
 16 14  1  0  0  0  0
 17 16  2  0  0  0  0
 16 20  1  0  0  0  0
 17 18  1  0  0  0  0
 19 17  1  0  0  0  0
 20 21  1  0  0  0  0
 20 23  1  0  0  0  0
 21 22  1  0  0  0  0
 24 23  2  0  0  0  0
 23 42  1  0  0  0  0
 25 24  1  0  0  0  0
 26 25  2  0  0  0  0
 27 26  1  0  0  0  0
 27 28  1  0  0  0  0
 42 27  2  0  0  0  0
 28 29  1  0  0  0  0
 29 30  2  0  0  0  0
 29 31  2  0  0  0  0
 29 32  1  0  0  0  0
 33 32  2  0  0  0  0
 32 37  1  0  0  0  0
 34 33  1  0  0  0  0
 35 34  2  0  0  0  0
 36 35  1  0  0  0  0
 35 38  1  0  0  0  0
 37 36  2  0  0  0  0
 38 39  1  0  0  0  0
 38 40  1  0  0  0  0
 38 41  1  0  0  0  0
M  END
> <Inchi_key>
NZPXPXAGXYTROM-UHFFFAOYSA-N

> <Source>
Mulliner

> <ID>
HT2069

> <H_MFHB>
1

> <CAS>


> <Cholestasis>


> <Name>
tipranavir

> <Class>
1

$$$$