

  -INDIGO-08031710012D

 10  9  0  0  0  0  0  0  0  0999 V2000
    7.8000   -2.0785    0.0000 C   0  0  0  0  0  0  0  0  0  0  0  0
    6.3000   -2.0785    0.0000 C   0  0  0  0  0  0  0  0  0  0  0  0
    5.5500   -0.7794    0.0000 C   0  0  0  0  0  0  0  0  0  0  0  0
    4.0500   -0.7794    0.0000 C   0  0  0  0  0  0  0  0  0  0  0  0
    3.3000   -2.0785    0.0000 C   0  0  0  0  0  0  0  0  0  0  0  0
    1.8000   -2.0785    0.0000 C   0  0  0  0  0  0  0  0  0  0  0  0
    1.0500   -3.3775    0.0000 C   0  0  0  0  0  0  0  0  0  0  0  0
    3.3000    0.5196    0.0000 C   0  0  0  0  0  0  0  0  0  0  0  0
    4.0500    1.8187    0.0000 O   0  0  0  0  0  0  0  0  0  0  0  0
    1.8000    0.5196    0.0000 O   0  0  0  0  0  0  0  0  0  0  0  0
  1  2  1  0  0  0  0
  2  3  1  0  0  0  0
  3  4  1  0  0  0  0
  4  5  1  0  0  0  0
  4  8  1  0  0  0  0
  5  6  1  0  0  0  0
  6  7  1  0  0  0  0
  8  9  2  0  0  0  0
  8 10  1  0  0  0  0
M  END
> <Inchi_key>
NIJJYAXOARWZEE-UHFFFAOYSA-N

> <Source>
Mulliner

> <ID>
HT0699

> <H_MFHB>
1

> <CAS>
1069-66-5;99-66-1

> <Cholestasis>


> <Name>
divalproex sodium;valproate sodium;valproic acid

> <Class>
1


$$$$