
  -INDIGO-08031710012D

 17 18  0  0  0  0  0  0  0  0999 V2000
   11.0254    0.3248    0.0000 N   0  0  0  0  0  0  0  0  0  0  0  0
    9.5256    0.3350    0.0000 C   0  0  0  0  0  0  0  0  0  0  0  0
    8.7666   -0.9588    0.0000 N   0  0  0  0  0  0  0  0  0  0  0  0
    7.2666   -0.9486    0.0000 C   0  0  0  0  0  0  0  0  0  0  0  0
    6.5077   -2.2424    0.0000 O   0  0  0  0  0  0  0  0  0  0  0  0
    6.5255    0.3556    0.0000 N   0  0  0  0  0  0  0  0  0  0  0  0
    7.2845    1.6495    0.0000 C   0  0  0  0  0  0  0  0  0  0  0  0
    8.7844    1.6392    0.0000 N   0  0  0  0  0  0  0  0  0  0  0  0
    5.0256    0.3659    0.0000 C   0  0  0  0  0  0  0  0  0  0  0  0
    4.1356   -0.8416    0.0000 O   0  0  0  0  0  0  0  0  0  0  0  0
    2.7122   -0.3683    0.0000 C   0  0  0  0  0  0  0  0  0  0  0  0
    1.4927   -1.2417    0.0000 C   0  0  0  0  0  0  0  0  0  0  0  0
    1.6392   -2.7345    0.0000 O   0  0  0  0  0  0  0  0  0  0  0  0
    2.7226    1.1317    0.0000 C   0  0  0  0  0  0  0  0  0  0  0  0
    1.5150    2.0216    0.0000 O   0  0  0  0  0  0  0  0  0  0  0  0
    4.1521    1.5854    0.0000 C   0  0  0  0  0  0  0  0  0  0  0  0
    4.6255    3.0088    0.0000 O   0  0  0  0  0  0  0  0  0  0  0  0
  1  2  1  0  0  0  0
  3  2  2  0  0  0  0
  2  8  1  0  0  0  0
  4  3  1  0  0  0  0
  4  5  2  0  0  0  0
  6  4  1  0  0  0  0
  7  6  1  0  0  0  0
  6  9  1  0  0  0  0
  8  7  2  0  0  0  0
 10  9  1  0  0  0  0
  9 16  1  0  0  0  0
 11 10  1  0  0  0  0
 11 12  1  0  0  0  0
 14 11  1  0  0  0  0
 12 13  1  0  0  0  0
 14 15  1  0  0  0  0
 16 14  1  0  0  0  0
 16 17  1  0  0  0  0
M  END
> <Inchi_key>
NMUSYJAQQFHJEW-UHFFFAOYSA-N

> <Source>
Mulliner

> <ID>
HT0209

> <H_MFHB>
1

> <CAS>


> <Cholestasis>


> <Name>
azacitidine

> <Class>
1

$$$$