
  -INDIGO-08031710012D

 24 26  0  0  0  0  0  0  0  0999 V2000
    2.3381   -0.2764    0.0000 C   0  0  0  0  0  0  0  0  0  0  0  0
    3.4578   -1.2747    0.0000 C   0  0  0  0  0  0  0  0  0  0  0  0
    4.9235   -0.9557    0.0000 C   0  0  0  0  0  0  0  0  0  0  0  0
    5.6798   -2.2511    0.0000 C   0  0  0  0  0  0  0  0  0  0  0  0
    7.1486   -2.5558    0.0000 C   0  0  0  0  0  0  0  0  0  0  0  0
    7.6189   -3.9802    0.0000 C   0  0  0  0  0  0  0  0  0  0  0  0
    6.6207   -5.0997    0.0000 C   0  0  0  0  0  0  0  0  0  0  0  0
    5.1520   -4.7950    0.0000 C   0  0  0  0  0  0  0  0  0  0  0  0
    4.6815   -3.3707    0.0000 C   0  0  0  0  0  0  0  0  0  0  0  0
    3.3083   -2.7672    0.0000 N   0  0  0  0  0  0  0  0  0  0  0  0
    2.0129   -3.5235    0.0000 N   0  0  0  0  0  0  0  0  0  0  0  0
    0.7103   -2.7798    0.0000 C   0  0  0  0  0  0  0  0  0  0  0  0
    0.7029   -1.2799    0.0000 O   0  0  0  0  0  0  0  0  0  0  0  0
   -0.5852   -3.5361    0.0000 C   0  0  0  0  0  0  0  0  0  0  0  0
   -0.5778   -5.0361    0.0000 C   0  0  0  0  0  0  0  0  0  0  0  0
   -1.8732   -5.7924    0.0000 C   0  0  0  0  0  0  0  0  0  0  0  0
   -3.1758   -5.0487    0.0000 C   0  0  0  0  0  0  0  0  0  0  0  0
   -4.4713   -5.8050    0.0000 Cl  0  0  0  0  0  0  0  0  0  0  0  0
   -3.1832   -3.5487    0.0000 C   0  0  0  0  0  0  0  0  0  0  0  0
   -1.8878   -2.7924    0.0000 C   0  0  0  0  0  0  0  0  0  0  0  0
   -4.4858   -2.8051    0.0000 S   0  0  0  0  0  0  0  0  0  0  0  0
   -5.2297   -4.1077    0.0000 O   0  0  0  0  0  0  0  0  0  0  0  0
   -3.7421   -1.5024    0.0000 O   0  0  0  0  0  0  0  0  0  0  0  0
   -5.7886   -2.0614    0.0000 N   0  0  0  0  0  0  0  0  0  0  0  0
  1  2  1  0  0  0  0
  3  2  1  0  0  0  0
  2 10  1  0  0  0  0
  4  3  1  0  0  0  0
  5  4  2  0  0  0  0
  4  9  1  0  0  0  0
  6  5  1  0  0  0  0
  7  6  2  0  0  0  0
  8  7  1  0  0  0  0
  9  8  2  0  0  0  0
 10  9  1  0  0  0  0
 10 11  1  0  0  0  0
 11 12  1  0  0  0  0
 12 13  2  0  0  0  0
 12 14  1  0  0  0  0
 15 14  2  0  0  0  0
 14 20  1  0  0  0  0
 16 15  1  0  0  0  0
 17 16  2  0  0  0  0
 17 18  1  0  0  0  0
 19 17  1  0  0  0  0
 20 19  2  0  0  0  0
 19 21  1  0  0  0  0
 21 22  2  0  0  0  0
 21 23  2  0  0  0  0
 21 24  1  0  0  0  0
M  END
> <Inchi_key>
NDDAHWYSQHTHNT-UHFFFAOYSA-N

> <Source>
Mulliner

> <ID>
HT1089

> <H_MFHB>
1

> <CAS>
26807-65-8

> <Cholestasis>


> <Name>
indapamide

> <Class>
1

$$$$