

  -INDIGO-08031710012D

 21 23  0  0  0  0  0  0  0  0999 V2000
   10.6575    4.2771    0.0000 C   0  0  0  0  0  0  0  0  0  0  0  0
    9.3129    3.6122    0.0000 C   0  0  0  0  0  0  0  0  0  0  0  0
    9.2164    2.1153    0.0000 C   0  0  0  0  0  0  0  0  0  0  0  0
   10.4645    1.2833    0.0000 C   0  0  0  0  0  0  0  0  0  0  0  0
   10.3679   -0.2136    0.0000 C   0  0  0  0  0  0  0  0  0  0  0  0
    9.0234   -0.8785    0.0000 C   0  0  0  0  0  0  0  0  0  0  0  0
    7.7753   -0.0464    0.0000 C   0  0  0  0  0  0  0  0  0  0  0  0
    6.3218   -0.4172    0.0000 C   0  0  0  0  0  0  0  0  0  0  0  0
    5.6247   -1.7454    0.0000 C   0  0  0  0  0  0  0  0  0  0  0  0
    4.1260   -1.8059    0.0000 C   0  0  0  0  0  0  0  0  0  0  0  0
    3.3243   -0.5382    0.0000 O   0  0  0  0  0  0  0  0  0  0  0  0
    4.0214    0.7900    0.0000 C   0  0  0  0  0  0  0  0  0  0  0  0
    3.9608    2.2888    0.0000 C   0  0  0  0  0  0  0  0  0  0  0  0
    2.6325    2.9858    0.0000 C   0  0  0  0  0  0  0  0  0  0  0  0
    2.6929    1.4870    0.0000 C   0  0  0  0  0  0  0  0  0  0  0  0
    1.4252    0.6853    0.0000 C   0  0  0  0  0  0  0  0  0  0  0  0
    1.4858   -0.8135    0.0000 O   0  0  0  0  0  0  0  0  0  0  0  0
    0.0971    1.3823    0.0000 O   0  0  0  0  0  0  0  0  0  0  0  0
    5.5200    0.8505    0.0000 C   0  0  0  0  0  0  0  0  0  0  0  0
    6.4780    2.0048    0.0000 N   0  0  0  0  0  0  0  0  0  0  0  0
    7.8718    1.4505    0.0000 C   0  0  0  0  0  0  0  0  0  0  0  0
  1  2  1  0  0  0  0
  2  3  1  0  0  0  0
  4  3  2  0  0  0  0
  3 21  1  0  0  0  0
  5  4  1  0  0  0  0
  6  5  2  0  0  0  0
  7  6  1  0  0  0  0
  8  7  1  0  0  0  0
  7 21  2  0  0  0  0
  9  8  1  0  0  0  0
  8 19  2  0  0  0  0
 10  9  1  0  0  0  0
 11 10  1  0  0  0  0
 12 11  1  0  0  0  0
 12 13  1  0  0  0  0
 12 15  1  0  0  0  0
 19 12  1  0  0  0  0
 13 14  1  0  0  0  0
 15 16  1  0  0  0  0
 16 17  2  0  0  0  0
 16 18  1  0  0  0  0
 20 19  1  0  0  0  0
 21 20  1  0  0  0  0
M  END
> <Inchi_key>
NNYBQONXHNTVIJ-UHFFFAOYSA-N

> <Source>
Mulliner

> <ID>
HT0826

> <H_MFHB>
1

> <CAS>


> <Cholestasis>


> <Name>
etodolac

> <Class>
1


$$$$