

  -INDIGO-08031709442D

 32 35  0  0  0  0  0  0  0  0999 V2000
    0.0727    0.2713    0.0000 O   0  0  0  0  0  0  0  0  0  0  0  0
    1.3717   -0.4787    0.0000 C   0  0  0  0  0  0  0  0  0  0  0  0
    1.3717   -1.9787    0.0000 C   0  0  0  0  0  0  0  0  0  0  0  0
    0.0727   -2.7287    0.0000 C   0  0  0  0  0  0  0  0  0  0  0  0
    0.0727   -4.2287    0.0000 O   0  0  0  0  0  0  0  0  0  0  0  0
   -1.2264   -1.9787    0.0000 N   0  0  0  0  0  0  0  0  0  0  0  0
    2.6708   -2.7287    0.0000 C   0  0  0  0  0  0  0  0  0  0  0  0
    2.6708   -4.2287    0.0000 O   0  0  0  0  0  0  0  0  0  0  0  0
    3.9698   -1.9787    0.0000 C   0  0  0  0  0  0  0  0  0  0  0  0
    3.9698   -3.4787    0.0000 O   0  0  0  0  0  0  0  0  0  0  0  0
    3.9698   -0.4787    0.0000 C   0  0  0  0  0  0  0  0  0  0  0  0
    5.2687    0.2713    0.0000 C   0  0  0  0  0  0  0  0  0  0  0  0
    6.5678   -0.4787    0.0000 C   0  0  0  0  0  0  0  0  0  0  0  0
    6.5678   -1.9787    0.0000 C   0  0  0  0  0  0  0  0  0  0  0  0
    5.2687   -2.7287    0.0000 C   0  0  0  0  0  0  0  0  0  0  0  0
    5.2687   -4.2287    0.0000 O   0  0  0  0  0  0  0  0  0  0  0  0
    7.8670   -2.7287    0.0000 C   0  0  0  0  0  0  0  0  0  0  0  0
    7.8670   -4.2287    0.0000 O   0  0  0  0  0  0  0  0  0  0  0  0
    9.1659   -1.9787    0.0000 C   0  0  0  0  0  0  0  0  0  0  0  0
    9.1659   -0.4787    0.0000 C   0  0  0  0  0  0  0  0  0  0  0  0
   10.4651    0.2713    0.0000 C   0  0  0  0  0  0  0  0  0  0  0  0
   11.7640   -0.4787    0.0000 C   0  0  0  0  0  0  0  0  0  0  0  0
   11.7640   -1.9787    0.0000 C   0  0  0  0  0  0  0  0  0  0  0  0
   10.4651   -2.7287    0.0000 C   0  0  0  0  0  0  0  0  0  0  0  0
   10.4651   -4.2287    0.0000 O   0  0  0  0  0  0  0  0  0  0  0  0
    7.8670    0.2713    0.0000 C   0  0  0  0  0  0  0  0  0  0  0  0
    8.6168    1.5703    0.0000 O   0  0  0  0  0  0  0  0  0  0  0  0
    7.1169    1.5703    0.0000 C   0  0  0  0  0  0  0  0  0  0  0  0
    2.6708    0.2713    0.0000 C   0  0  0  0  0  0  0  0  0  0  0  0
    2.6708    1.7713    0.0000 N   0  0  0  0  0  0  0  0  0  0  0  0
    1.3717    2.5213    0.0000 C   0  0  0  0  0  0  0  0  0  0  0  0
    3.9698    2.5213    0.0000 C   0  0  0  0  0  0  0  0  0  0  0  0
  1  2  1  0  0  0  0
  3  2  2  0  0  0  0
  2 29  1  0  0  0  0
  3  4  1  0  0  0  0
  7  3  1  0  0  0  0
  4  5  2  0  0  0  0
  4  6  1  0  0  0  0
  7  8  2  0  0  0  0
  9  7  1  0  0  0  0
  9 10  1  0  0  0  0
  9 11  1  0  0  0  0
 15  9  1  0  0  0  0
 11 12  1  0  0  0  0
 29 11  1  0  0  0  0
 12 13  1  0  0  0  0
 14 13  1  0  0  0  0
 13 26  1  0  0  0  0
 14 15  2  0  0  0  0
 17 14  1  0  0  0  0
 15 16  1  0  0  0  0
 17 18  2  0  0  0  0
 19 17  1  0  0  0  0
 19 20  2  0  0  0  0
 24 19  1  0  0  0  0
 20 21  1  0  0  0  0
 26 20  1  0  0  0  0
 21 22  2  0  0  0  0
 22 23  1  0  0  0  0
 23 24  2  0  0  0  0
 24 25  1  0  0  0  0
 26 27  1  0  0  0  0
 26 28  1  0  0  0  0
 29 30  1  0  0  0  0
 30 31  1  0  0  0  0
 30 32  1  0  0  0  0
M  END
> <Inchi_key>
OFVLGDICTFRJMM-UHFFFAOYSA-N

> <Source>
Kotsampasakou

> <ID>
EK0518

> <H_MFHB>


> <CAS>


> <Cholestasis>
1

> <Name>
tetracycline

> <Class>
1


$$$$