

  -INDIGO-08031710012D

 22 25  0  0  0  0  0  0  0  0999 V2000
   -0.2019    0.3860    0.0000 C   0  0  0  0  0  0  0  0  0  0  0  0
    0.6540    1.6178    0.0000 C   0  0  0  0  0  0  0  0  0  0  0  0
    1.4088    0.3215    0.0000 C   0  0  0  0  0  0  0  0  0  0  0  0
    2.9088    0.3269    0.0000 C   0  0  0  0  0  0  0  0  0  0  0  0
    3.6541    1.6286    0.0000 C   0  0  0  0  0  0  0  0  0  0  0  0
    2.8994    2.9249    0.0000 C   0  0  0  0  0  0  0  0  0  0  0  0
    3.6449    4.2266    0.0000 C   0  0  0  0  0  0  0  0  0  0  0  0
    5.1448    4.2320    0.0000 C   0  0  0  0  0  0  0  0  0  0  0  0
    5.8901    5.5337    0.0000 C   0  0  0  0  0  0  0  0  0  0  0  0
    5.8994    2.9357    0.0000 C   0  0  0  0  0  0  0  0  0  0  0  0
    7.3994    2.9411    0.0000 C   0  0  0  0  0  0  0  0  0  0  0  0
    8.1542    1.6447    0.0000 C   0  0  0  0  0  0  0  0  0  0  0  0
    9.6541    1.6501    0.0000 O   0  0  0  0  0  0  0  0  0  0  0  0
    7.4087    0.3430    0.0000 C   0  0  0  0  0  0  0  0  0  0  0  0
    5.9086    0.3376    0.0000 C   0  0  0  0  0  0  0  0  0  0  0  0
    5.1542    1.6340    0.0000 C   0  0  0  0  0  0  0  0  0  0  0  0
    4.4089    0.3322    0.0000 C   0  0  0  0  0  0  0  0  0  0  0  0
    1.3995    2.9195    0.0000 C   0  0  0  0  0  0  0  0  0  0  0  0
    0.3918    4.0307    0.0000 C   0  0  0  0  0  0  0  0  0  0  0  0
   -0.9763    3.4156    0.0000 C   0  0  0  0  0  0  0  0  0  0  0  0
   -0.8143    1.9244    0.0000 C   0  0  0  0  0  0  0  0  0  0  0  0
   -1.9253    0.9167    0.0000 O   0  0  0  0  0  0  0  0  0  0  0  0
  1  2  1  0  0  0  0
  3  2  1  0  0  0  0
 18  2  1  0  0  0  0
  2 21  1  0  0  0  0
  4  3  1  0  0  0  0
  5  4  1  0  0  0  0
  5  6  1  0  0  0  0
 16  5  1  0  0  0  0
  6  7  1  0  0  0  0
 18  6  1  0  0  0  0
  7  8  1  0  0  0  0
  8  9  2  0  0  0  0
  8 10  1  0  0  0  0
 11 10  2  0  0  0  0
 10 16  1  0  0  0  0
 12 11  1  0  0  0  0
 12 13  2  0  0  0  0
 14 12  1  0  0  0  0
 15 14  2  0  0  0  0
 16 15  1  0  0  0  0
 16 17  1  0  0  0  0
 19 18  1  0  0  0  0
 20 19  1  0  0  0  0
 21 20  1  0  0  0  0
 21 22  2  0  0  0  0
M  END
> <Inchi_key>
BFYIZQONLCFLEV-UHFFFAOYSA-N

> <Source>
Mulliner

> <ID>
HT0840

> <H_MFHB>
1

> <CAS>


> <Cholestasis>


> <Name>
exemestane

> <Class>
1


$$$$