

  -INDIGO-08031709442D

 17 18  0  0  0  0  0  0  0  0999 V2000
    0.2448    4.4547    0.0000 F   0  0  0  0  0  0  0  0  0  0  0  0
    0.9865    3.1509    0.0000 C   0  0  0  0  0  0  0  0  0  0  0  0
    2.4865    3.1415    0.0000 C   0  0  0  0  0  0  0  0  0  0  0  0
    3.2283    1.8377    0.0000 N   0  0  0  0  0  0  0  0  0  0  0  0
    4.7283    1.8283    0.0000 C   0  0  0  0  0  0  0  0  0  0  0  0
    5.6177    3.0362    0.0000 O   0  0  0  0  0  0  0  0  0  0  0  0
    7.0412    2.5637    0.0000 C   0  0  0  0  0  0  0  0  0  0  0  0
    8.2603    3.4377    0.0000 C   0  0  0  0  0  0  0  0  0  0  0  0
    8.1130    4.9305    0.0000 O   0  0  0  0  0  0  0  0  0  0  0  0
    7.0319    1.0637    0.0000 C   0  0  0  0  0  0  0  0  0  0  0  0
    8.2396    0.1744    0.0000 O   0  0  0  0  0  0  0  0  0  0  0  0
    5.6022    0.6092    0.0000 C   0  0  0  0  0  0  0  0  0  0  0  0
    2.4700    0.5435    0.0000 C   0  0  0  0  0  0  0  0  0  0  0  0
    3.2120   -0.7603    0.0000 O   0  0  0  0  0  0  0  0  0  0  0  0
    0.9702    0.5529    0.0000 N   0  0  0  0  0  0  0  0  0  0  0  0
    0.2284    1.8567    0.0000 C   0  0  0  0  0  0  0  0  0  0  0  0
   -1.2716    1.8661    0.0000 O   0  0  0  0  0  0  0  0  0  0  0  0
  1  2  1  0  0  0  0
  3  2  2  0  0  0  0
  2 16  1  0  0  0  0
  4  3  1  0  0  0  0
  4  5  1  0  0  0  0
 13  4  1  0  0  0  0
  6  5  1  0  0  0  0
  5 12  1  0  0  0  0
  7  6  1  0  0  0  0
  7  8  1  0  0  0  0
 10  7  1  0  0  0  0
  8  9  1  0  0  0  0
 10 11  1  0  0  0  0
 12 10  1  0  0  0  0
 13 14  2  0  0  0  0
 15 13  1  0  0  0  0
 16 15  1  0  0  0  0
 16 17  2  0  0  0  0
M  END
> <Inchi_key>
ODKNJVUHOIMIIZ-UHFFFAOYSA-N

> <Source>
Kotsampasakou

> <ID>
EK0216

> <H_MFHB>


> <CAS>


> <Cholestasis>
1

> <Name>
floxuridine

> <Class>
1


$$$$