
  -INDIGO-08031710012D

 20 23  0  0  0  0  0  0  0  0999 V2000
    7.6457    0.6591    0.0000 C   0  0  0  0  0  0  0  0  0  0  0  0
    6.9319    1.9785    0.0000 C   0  0  0  0  0  0  0  0  0  0  0  0
    7.7176    3.2562    0.0000 C   0  0  0  0  0  0  0  0  0  0  0  0
    7.0038    4.5755    0.0000 C   0  0  0  0  0  0  0  0  0  0  0  0
    5.5043    4.6170    0.0000 N   0  0  0  0  0  0  0  0  0  0  0  0
    4.7187    3.3393    0.0000 C   0  0  0  0  0  0  0  0  0  0  0  0
    3.2424    3.6045    0.0000 N   0  0  0  0  0  0  0  0  0  0  0  0
    2.8399    5.0495    0.0000 C   0  0  0  0  0  0  0  0  0  0  0  0
    1.7689    6.0998    0.0000 C   0  0  0  0  0  0  0  0  0  0  0  0
    3.2139    6.5022    0.0000 C   0  0  0  0  0  0  0  0  0  0  0  0
    2.1157    2.6143    0.0000 C   0  0  0  0  0  0  0  0  0  0  0  0
    0.7826    3.3019    0.0000 N   0  0  0  0  0  0  0  0  0  0  0  0
   -0.4794    2.4913    0.0000 C   0  0  0  0  0  0  0  0  0  0  0  0
   -0.4084    0.9929    0.0000 C   0  0  0  0  0  0  0  0  0  0  0  0
    0.9247    0.3054    0.0000 C   0  0  0  0  0  0  0  0  0  0  0  0
    2.1866    1.1159    0.0000 C   0  0  0  0  0  0  0  0  0  0  0  0
    3.4022    0.2353    0.0000 C   0  0  0  0  0  0  0  0  0  0  0  0
    3.1381   -1.2412    0.0000 O   0  0  0  0  0  0  0  0  0  0  0  0
    4.8467    0.6391    0.0000 N   0  0  0  0  0  0  0  0  0  0  0  0
    5.4325    2.0200    0.0000 C   0  0  0  0  0  0  0  0  0  0  0  0
  1  2  1  0  0  0  0
  3  2  2  0  0  0  0
  2 20  1  0  0  0  0
  4  3  1  0  0  0  0
  5  4  2  0  0  0  0
  6  5  1  0  0  0  0
  7  6  1  0  0  0  0
  6 20  2  0  0  0  0
  7  8  1  0  0  0  0
 11  7  1  0  0  0  0
  9  8  1  0  0  0  0
  8 10  1  0  0  0  0
 10  9  1  0  0  0  0
 12 11  1  0  0  0  0
 11 16  2  0  0  0  0
 13 12  2  0  0  0  0
 14 13  1  0  0  0  0
 15 14  2  0  0  0  0
 16 15  1  0  0  0  0
 17 16  1  0  0  0  0
 17 18  2  0  0  0  0
 19 17  1  0  0  0  0
 20 19  1  0  0  0  0
M  END
> <Inchi_key>
NQDJXKOVJZTUJA-UHFFFAOYSA-N

> <Source>
Mulliner , Kotsampasakou

> <ID>
EK0379;HT1479

> <H_MFHB>
1

> <CAS>
129618-40-2

> <Cholestasis>
1

> <Name>
nevirapine

> <Class>
1

$$$$