
  -INDIGO-08031710012D

 25 27  0  0  0  0  0  0  0  0999 V2000
    9.6405    7.4906    0.0000 C   0  0  0  0  0  0  0  0  0  0  0  0
    9.2700    6.0371    0.0000 O   0  0  0  0  0  0  0  0  0  0  0  0
    7.8258    5.6314    0.0000 N   0  0  0  0  0  0  0  0  0  0  0  0
    7.4553    4.1779    0.0000 C   0  0  0  0  0  0  0  0  0  0  0  0
    6.0112    3.7722    0.0000 C   0  0  0  0  0  0  0  0  0  0  0  0
    5.6404    2.3187    0.0000 O   0  0  0  0  0  0  0  0  0  0  0  0
    4.9376    4.8199    0.0000 N   0  0  0  0  0  0  0  0  0  0  0  0
    3.4936    4.4142    0.0000 C   0  0  0  0  0  0  0  0  0  0  0  0
    2.1855    5.1484    0.0000 C   0  0  0  0  0  0  0  0  0  0  0  0
    1.4199    6.4382    0.0000 S   0  0  0  0  0  0  0  0  0  0  0  0
   -0.0801    6.4201    0.0000 C   0  0  0  0  0  0  0  0  0  0  0  0
   -0.8143    5.1121    0.0000 C   0  0  0  0  0  0  0  0  0  0  0  0
   -0.0487    3.8222    0.0000 C   0  0  0  0  0  0  0  0  0  0  0  0
    1.4513    3.8404    0.0000 N   0  0  0  0  0  0  0  0  0  0  0  0
    2.7592    3.1061    0.0000 C   0  0  0  0  0  0  0  0  0  0  0  0
    3.1651    1.6621    0.0000 O   0  0  0  0  0  0  0  0  0  0  0  0
   -0.7827    2.5142    0.0000 C   0  0  0  0  0  0  0  0  0  0  0  0
   -2.2827    2.4960    0.0000 O   0  0  0  0  0  0  0  0  0  0  0  0
   -0.0171    1.2243    0.0000 O   0  0  0  0  0  0  0  0  0  0  0  0
    8.5287    3.1302    0.0000 C   0  0  0  0  0  0  0  0  0  0  0  0
    8.3118    1.6459    0.0000 C   0  0  0  0  0  0  0  0  0  0  0  0
    9.6564    0.9811    0.0000 S   0  0  0  0  0  0  0  0  0  0  0  0
   10.7044    2.0546    0.0000 C   0  0  0  0  0  0  0  0  0  0  0  0
   12.1885    1.8379    0.0000 N   0  0  0  0  0  0  0  0  0  0  0  0
   10.0073    3.3827    0.0000 N   0  0  0  0  0  0  0  0  0  0  0  0
  1  2  1  0  0  0  0
  2  3  1  0  0  0  0
  3  4  2  0  0  0  0
  4  5  1  0  0  0  0
  4 20  1  0  0  0  0
  5  6  2  0  0  0  0
  5  7  1  0  0  0  0
  7  8  1  0  0  0  0
  9  8  1  0  0  0  0
  8 15  1  0  0  0  0
 10  9  1  0  0  0  0
  9 14  1  0  0  0  0
 11 10  1  0  0  0  0
 12 11  1  0  0  0  0
 13 12  2  0  0  0  0
 14 13  1  0  0  0  0
 13 17  1  0  0  0  0
 15 14  1  0  0  0  0
 15 16  2  0  0  0  0
 17 18  2  0  0  0  0
 17 19  1  0  0  0  0
 21 20  2  0  0  0  0
 20 25  1  0  0  0  0
 22 21  1  0  0  0  0
 23 22  1  0  0  0  0
 23 24  1  0  0  0  0
 25 23  2  0  0  0  0
M  END
> <Inchi_key>
NNULBSISHYWZJU-REZTVBANSA-N

> <Source>
Mulliner

> <ID>
HT0425

> <H_MFHB>
1

> <CAS>


> <Cholestasis>


> <Name>
ceftizoxime sodium;ceftizoxime

> <Class>
1

$$$$