

  -INDIGO-08031710012D

 28 30  0  0  0  0  0  0  0  0999 V2000
   17.8039   -4.7705    0.0000 O   0  0  0  0  0  0  0  0  0  0  0  0
   16.5049   -4.0205    0.0000 C   0  0  0  0  0  0  0  0  0  0  0  0
   16.5049   -2.5205    0.0000 O   0  0  0  0  0  0  0  0  0  0  0  0
   15.2059   -4.7705    0.0000 C   0  0  0  0  0  0  0  0  0  0  0  0
   13.9068   -4.0205    0.0000 C   0  0  0  0  0  0  0  0  0  0  0  0
   12.6078   -4.7705    0.0000 C   0  0  0  0  0  0  0  0  0  0  0  0
   12.6078   -6.2705    0.0000 C   0  0  0  0  0  0  0  0  0  0  0  0
   13.9068   -7.0205    0.0000 C   0  0  0  0  0  0  0  0  0  0  0  0
   15.2059   -6.2705    0.0000 C   0  0  0  0  0  0  0  0  0  0  0  0
   16.5049   -7.0205    0.0000 O   0  0  0  0  0  0  0  0  0  0  0  0
   11.3088   -4.0205    0.0000 N   0  0  0  0  0  0  0  0  0  0  0  0
   10.0095   -4.7705    0.0000 N   0  0  0  0  0  0  0  0  0  0  0  0
    8.7107   -4.0205    0.0000 C   0  0  0  0  0  0  0  0  0  0  0  0
    7.4117   -4.7705    0.0000 C   0  0  0  0  0  0  0  0  0  0  0  0
    6.1124   -4.0205    0.0000 C   0  0  0  0  0  0  0  0  0  0  0  0
    6.1124   -2.5205    0.0000 C   0  0  0  0  0  0  0  0  0  0  0  0
    7.4117   -1.7705    0.0000 C   0  0  0  0  0  0  0  0  0  0  0  0
    8.7107   -2.5205    0.0000 C   0  0  0  0  0  0  0  0  0  0  0  0
    4.8134   -1.7705    0.0000 S   0  0  0  0  0  0  0  0  0  0  0  0
    4.0636   -3.0696    0.0000 O   0  0  0  0  0  0  0  0  0  0  0  0
    5.5635   -0.4715    0.0000 O   0  0  0  0  0  0  0  0  0  0  0  0
    3.5144   -1.0205    0.0000 N   0  0  0  0  0  0  0  0  0  0  0  0
    2.2153   -1.7705    0.0000 C   0  0  0  0  0  0  0  0  0  0  0  0
    2.2153   -3.2705    0.0000 C   0  0  0  0  0  0  0  0  0  0  0  0
    0.9163   -4.0205    0.0000 C   0  0  0  0  0  0  0  0  0  0  0  0
   -0.3827   -3.2705    0.0000 C   0  0  0  0  0  0  0  0  0  0  0  0
   -0.3827   -1.7705    0.0000 C   0  0  0  0  0  0  0  0  0  0  0  0
    0.9163   -1.0205    0.0000 N   0  0  0  0  0  0  0  0  0  0  0  0
  1  2  1  0  0  0  0
  2  3  2  0  0  0  0
  2  4  1  0  0  0  0
  5  4  2  0  0  0  0
  4  9  1  0  0  0  0
  6  5  1  0  0  0  0
  7  6  2  0  0  0  0
  6 11  1  0  0  0  0
  8  7  1  0  0  0  0
  9  8  2  0  0  0  0
  9 10  1  0  0  0  0
 11 12  2  0  0  0  0
 12 13  1  0  0  0  0
 14 13  2  0  0  0  0
 13 18  1  0  0  0  0
 15 14  1  0  0  0  0
 16 15  2  0  0  0  0
 17 16  1  0  0  0  0
 16 19  1  0  0  0  0
 18 17  2  0  0  0  0
 19 20  2  0  0  0  0
 19 21  2  0  0  0  0
 19 22  1  0  0  0  0
 22 23  1  0  0  0  0
 24 23  2  0  0  0  0
 23 28  1  0  0  0  0
 25 24  1  0  0  0  0
 26 25  2  0  0  0  0
 27 26  1  0  0  0  0
 28 27  2  0  0  0  0
M  END
> <Inchi_key>
NCEXYHBECQHGNR-QZQOTICOSA-N

> <Source>
Mulliner

> <ID>
HT1952

> <H_MFHB>
1

> <CAS>


> <Cholestasis>


> <Name>
sulfasalazine

> <Class>
1


$$$$