
     RDKit          3D

 40 42  0  0  0  0  0  0  0  0999 V2000
   -2.3988   -4.3378   -2.1043 F   0  0  0  0  0  0  0  0  0  0  0  0
   -2.8796   -4.0745   -0.8342 C   0  0  0  0  0  0  0  0  0  0  0  0
   -4.2079   -4.4484   -0.7713 F   0  0  0  0  0  0  0  0  0  0  0  0
   -2.7743   -2.6818   -0.5527 O   0  0  0  0  0  0  0  0  0  0  0  0
   -1.5676   -1.9676   -0.4705 C   0  0  0  0  0  0  0  0  0  0  0  0
   -0.3157   -2.5923   -0.6170 C   0  0  0  0  0  0  0  0  0  0  0  0
    0.8620   -1.8487   -0.5258 C   0  0  0  0  0  0  0  0  0  0  0  0
    0.8164   -0.4673   -0.2801 C   0  0  0  0  0  0  0  0  0  0  0  0
   -0.4348    0.1583   -0.1428 C   0  0  0  0  0  0  0  0  0  0  0  0
   -1.6273   -0.5867   -0.2325 C   0  0  0  0  0  0  0  0  0  0  0  0
   -2.8910    0.0086   -0.0915 O   0  0  0  0  0  0  0  0  0  0  0  0
   -3.1116    1.3930    0.1615 C   0  0  0  0  0  0  0  0  0  0  0  0
   -4.6175    1.6546    0.2139 C   0  0  0  0  0  0  0  0  0  0  0  0
   -5.2671    1.4478    1.5734 C   0  0  0  0  0  0  0  0  0  0  0  0
   -5.0404    2.8564    1.0442 C   0  0  0  0  0  0  0  0  0  0  0  0
    2.0630    0.3311   -0.1901 C   0  0  0  0  0  0  0  0  0  0  0  0
    2.0160    1.5795   -0.3689 O   0  0  0  0  0  0  0  0  0  0  0  0
    3.3189   -0.2923    0.1234 N   0  0  0  0  0  0  0  0  0  0  0  0
    4.5687    0.4044    0.0048 C   0  0  0  0  0  0  0  0  0  0  0  0
    4.9970    0.9167   -1.2357 C   0  0  0  0  0  0  0  0  0  0  0  0
    4.0656    0.6799   -2.7096 Cl  0  0  0  0  0  0  0  0  0  0  0  0
    6.2231    1.5842   -1.3130 C   0  0  0  0  0  0  0  0  0  0  0  0
    6.9966    1.7263   -0.2054 N   0  0  0  0  0  0  0  0  0  0  0  0
    6.6158    1.2289    0.9998 C   0  0  0  0  0  0  0  0  0  0  0  0
    5.3996    0.5524    1.1294 C   0  0  0  0  0  0  0  0  0  0  0  0
    4.9252   -0.0637    2.7068 Cl  0  0  0  0  0  0  0  0  0  0  0  0
   -2.3094   -4.6614   -0.0836 H   0  0  0  0  0  0  0  0  0  0  0  0
   -0.2399   -3.6541   -0.8054 H   0  0  0  0  0  0  0  0  0  0  0  0
    1.8060   -2.3578   -0.6693 H   0  0  0  0  0  0  0  0  0  0  0  0
   -0.4751    1.2229    0.0435 H   0  0  0  0  0  0  0  0  0  0  0  0
   -2.6110    1.6811    1.1127 H   0  0  0  0  0  0  0  0  0  0  0  0
   -2.6828    1.9952   -0.6677 H   0  0  0  0  0  0  0  0  0  0  0  0
   -5.2574    1.4292   -0.6657 H   0  0  0  0  0  0  0  0  0  0  0  0
   -6.3262    1.1165    1.5311 H   0  0  0  0  0  0  0  0  0  0  0  0
   -4.5873    1.1620    2.4046 H   0  0  0  0  0  0  0  0  0  0  0  0
   -5.9663    3.3574    0.6907 H   0  0  0  0  0  0  0  0  0  0  0  0
   -4.2272    3.4080    1.5630 H   0  0  0  0  0  0  0  0  0  0  0  0
    3.3132   -1.2035    0.6338 H   0  0  0  0  0  0  0  0  0  0  0  0
    6.5687    1.9818   -2.2581 H   0  0  0  0  0  0  0  0  0  0  0  0
    7.2605    1.3614    1.8587 H   0  0  0  0  0  0  0  0  0  0  0  0
  1  2  1  0
  2  3  1  0
  2  4  1  0
  4  5  1  0
  5  6  2  0
  6  7  1  0
  7  8  2  0
  8  9  1  0
  9 10  2  0
 10  5  1  0
 10 11  1  0
 11 12  1  0
 12 13  1  0
 13 14  1  0
 14 15  1  0
 15 13  1  0
  8 16  1  0
 16 17  2  0
 16 18  1  0
 18 19  1  0
 19 20  2  0
 20 21  1  0
 20 22  1  0
 22 23  2  0
 23 24  1  0
 24 25  2  0
 25 19  1  0
 25 26  1  0
  2 27  1  0
  6 28  1  0
  7 29  1  0
  9 30  1  0
 12 31  1  0
 12 32  1  0
 13 33  1  0
 14 34  1  0
 14 35  1  0
 15 36  1  0
 15 37  1  0
 18 38  1  0
 22 39  1  0
 24 40  1  0
M  END
> <ID>
HT1839

> <Class>
1.0

> <Clusters>
75

> <Fold>
5

$$$$