
     RDKit          3D

 55 56  0  0  0  0  0  0  0  0999 V2000
   -3.9985    0.2068   -2.0503 C   0  0  0  0  0  0  0  0  0  0  0  0
   -3.4751    1.0146   -0.8457 C   0  0  0  0  0  0  0  0  0  0  0  0
   -2.6981    2.2593   -1.3075 C   0  0  0  0  0  0  0  0  0  0  0  0
   -2.6836    0.1953    0.1245 N   0  0  0  0  0  0  0  0  0  0  0  0
   -1.4074   -0.3227   -0.4453 C   0  0  0  0  0  0  0  0  0  0  0  0
   -0.2144    0.3163    0.2843 C   0  0  0  0  0  0  0  0  0  0  0  0
    1.1395   -0.0041   -0.3969 C   0  0  2  0  0  0  0  0  0  0  0  0
    1.5154   -1.4796   -0.4511 C   0  0  0  0  0  0  0  0  0  0  0  0
    2.2685   -1.9451   -1.5462 C   0  0  0  0  0  0  0  0  0  0  0  0
    2.6500   -3.2870   -1.6310 C   0  0  0  0  0  0  0  0  0  0  0  0
    2.2917   -4.1816   -0.6215 C   0  0  0  0  0  0  0  0  0  0  0  0
    1.5551   -3.7346    0.4765 C   0  0  0  0  0  0  0  0  0  0  0  0
    1.1718   -2.3933    0.5671 C   0  0  0  0  0  0  0  0  0  0  0  0
    2.2779    0.8224    0.1887 C   0  0  0  0  0  0  0  0  0  0  0  0
    2.9602    1.7301   -0.6463 C   0  0  0  0  0  0  0  0  0  0  0  0
    4.0255    2.5003   -0.1583 C   0  0  0  0  0  0  0  0  0  0  0  0
    4.7133    3.4894   -1.0525 C   0  0  0  0  0  0  0  0  0  0  0  0
    4.3980    2.3881    1.1859 C   0  0  0  0  0  0  0  0  0  0  0  0
    3.7360    1.4928    2.0253 C   0  0  0  0  0  0  0  0  0  0  0  0
    2.6824    0.7061    1.5395 C   0  0  0  0  0  0  0  0  0  0  0  0
    2.0437   -0.1829    2.4011 O   0  0  0  0  0  0  0  0  0  0  0  0
   -3.4545   -0.8635    0.8529 C   0  0  0  0  0  0  0  0  0  0  0  0
   -4.8368   -0.3833    1.3460 C   0  0  0  0  0  0  0  0  0  0  0  0
   -2.6672   -1.3480    2.0868 C   0  0  0  0  0  0  0  0  0  0  0  0
   -4.5735   -0.6795   -1.7151 H   0  0  0  0  0  0  0  0  0  0  0  0
   -3.1781   -0.1316   -2.7144 H   0  0  0  0  0  0  0  0  0  0  0  0
   -4.6826    0.8407   -2.6537 H   0  0  0  0  0  0  0  0  0  0  0  0
   -4.3569    1.4444   -0.3293 H   0  0  0  0  0  0  0  0  0  0  0  0
   -3.3762    2.9433   -1.8618 H   0  0  0  0  0  0  0  0  0  0  0  0
   -2.3044    2.8076   -0.4256 H   0  0  0  0  0  0  0  0  0  0  0  0
   -1.8546    2.0029   -1.9801 H   0  0  0  0  0  0  0  0  0  0  0  0
   -1.3401   -1.4297   -0.3809 H   0  0  0  0  0  0  0  0  0  0  0  0
   -1.3099   -0.1091   -1.5275 H   0  0  0  0  0  0  0  0  0  0  0  0
   -0.2200    0.0132    1.3489 H   0  0  0  0  0  0  0  0  0  0  0  0
   -0.3511    1.4194    0.2725 H   0  0  0  0  0  0  0  0  0  0  0  0
    0.9981    0.3177   -1.4541 H   0  0  0  0  0  0  0  0  0  0  0  0
    2.5638   -1.2655   -2.3363 H   0  0  0  0  0  0  0  0  0  0  0  0
    3.2263   -3.6326   -2.4795 H   0  0  0  0  0  0  0  0  0  0  0  0
    2.5882   -5.2204   -0.6882 H   0  0  0  0  0  0  0  0  0  0  0  0
    1.2825   -4.4282    1.2615 H   0  0  0  0  0  0  0  0  0  0  0  0
    0.6100   -2.0835    1.4341 H   0  0  0  0  0  0  0  0  0  0  0  0
    2.6654    1.8397   -1.6833 H   0  0  0  0  0  0  0  0  0  0  0  0
    5.7633    3.6504   -0.7273 H   0  0  0  0  0  0  0  0  0  0  0  0
    4.1712    4.4574   -1.0178 H   0  0  0  0  0  0  0  0  0  0  0  0
    4.7322    3.1217   -2.1006 H   0  0  0  0  0  0  0  0  0  0  0  0
    5.2034    2.9925    1.5848 H   0  0  0  0  0  0  0  0  0  0  0  0
    4.0423    1.4117    3.0605 H   0  0  0  0  0  0  0  0  0  0  0  0
    2.3208   -0.2790    3.3709 H   0  0  0  0  0  0  0  0  0  0  0  0
   -3.6204   -1.7390    0.1859 H   0  0  0  0  0  0  0  0  0  0  0  0
   -4.7413    0.5736    1.9028 H   0  0  0  0  0  0  0  0  0  0  0  0
   -5.3001   -1.1370    2.0183 H   0  0  0  0  0  0  0  0  0  0  0  0
   -5.5424   -0.2589    0.4990 H   0  0  0  0  0  0  0  0  0  0  0  0
   -2.3900   -0.4856    2.7302 H   0  0  0  0  0  0  0  0  0  0  0  0
   -3.2710   -2.0621    2.6867 H   0  0  0  0  0  0  0  0  0  0  0  0
   -1.7482   -1.8903    1.7935 H   0  0  0  0  0  0  0  0  0  0  0  0
  1  2  1  0
  2  3  1  0
  2  4  1  0
  4  5  1  0
  5  6  1  0
  6  7  1  0
  7  8  1  0
  8  9  2  0
  9 10  1  0
 10 11  2  0
 11 12  1  0
 12 13  2  0
 13  8  1  0
  7 14  1  0
 14 15  2  0
 15 16  1  0
 16 17  1  0
 16 18  2  0
 18 19  1  0
 19 20  2  0
 20 14  1  0
 20 21  1  0
  4 22  1  0
 22 23  1  0
 22 24  1  0
  1 25  1  0
  1 26  1  0
  1 27  1  0
  2 28  1  0
  3 29  1  0
  3 30  1  0
  3 31  1  0
  5 32  1  0
  5 33  1  0
  6 34  1  0
  6 35  1  0
  7 36  1  6
  9 37  1  0
 10 38  1  0
 11 39  1  0
 12 40  1  0
 13 41  1  0
 15 42  1  0
 17 43  1  0
 17 44  1  0
 17 45  1  0
 18 46  1  0
 19 47  1  0
 21 48  1  0
 22 49  1  0
 23 50  1  0
 23 51  1  0
 23 52  1  0
 24 53  1  0
 24 54  1  0
 24 55  1  0
M  END
> <ID>
HT2088

> <Class>
1.0

> <Clusters>
0

> <Fold>
5

$$$$