
     RDKit          3D

 57 61  0  0  0  0  0  0  0  0999 V2000
   -1.4808    0.6585    2.2674 C   0  0  0  0  0  0  0  0  0  0  0  0
   -2.6108    0.4668    1.2920 C   0  0  0  0  0  0  0  0  0  0  0  0
   -2.6122   -0.5080    0.2647 C   0  0  0  0  0  0  0  0  0  0  0  0
   -1.4563   -1.4691    0.0565 C   0  0  0  0  0  0  0  0  0  0  0  0
   -0.3454   -0.8125   -0.7783 C   0  0  0  0  0  0  0  0  0  0  0  0
    0.7516   -1.7642   -1.0653 N   0  0  0  0  0  0  0  0  0  0  0  0
    1.4822   -2.1452    0.1751 C   0  0  0  0  0  0  0  0  0  0  0  0
    2.9308   -2.5675   -0.1023 C   0  0  0  0  0  0  0  0  0  0  0  0
    3.7392   -1.4063   -0.7309 C   0  0  0  0  0  0  0  0  0  0  0  0
    2.8480   -0.4935   -1.6059 C   0  0  0  0  0  0  0  0  0  0  0  0
    1.6344   -1.2585   -2.1504 C   0  0  0  0  0  0  0  0  0  0  0  0
    4.4616   -0.5789    0.3069 C   0  0  0  0  0  0  0  0  0  0  0  0
    4.1823   -0.5698    1.6346 N   0  0  0  0  0  0  0  0  0  0  0  0
    4.9903    0.2856    2.2044 O   0  0  0  0  0  0  0  0  0  0  0  0
    5.7751    0.8319    1.3091 C   0  0  0  0  0  0  0  0  0  0  0  0
    6.7707    1.7873    1.4921 C   0  0  0  0  0  0  0  0  0  0  0  0
    7.4792    2.2172    0.3528 C   0  0  0  0  0  0  0  0  0  0  0  0
    8.4580    3.1465    0.4796 F   0  0  0  0  0  0  0  0  0  0  0  0
    7.1756    1.6845   -0.9228 C   0  0  0  0  0  0  0  0  0  0  0  0
    6.1617    0.7185   -1.0706 C   0  0  0  0  0  0  0  0  0  0  0  0
    5.4824    0.3195    0.0789 C   0  0  0  0  0  0  0  0  0  0  0  0
   -3.7205   -0.5407   -0.6099 C   0  0  0  0  0  0  0  0  0  0  0  0
   -3.7323   -1.3594   -1.5713 O   0  0  0  0  0  0  0  0  0  0  0  0
   -4.7782    0.3103   -0.4222 N   0  0  0  0  0  0  0  0  0  0  0  0
   -5.9515    0.3051   -1.3168 C   0  0  0  0  0  0  0  0  0  0  0  0
   -7.2657    0.4052   -0.5148 C   0  0  0  0  0  0  0  0  0  0  0  0
   -7.2027    1.3729    0.6937 C   0  0  0  0  0  0  0  0  0  0  0  0
   -5.8960    2.1689    0.7692 C   0  0  0  0  0  0  0  0  0  0  0  0
   -4.7395    1.2349    0.5809 C   0  0  0  0  0  0  0  0  0  0  0  0
   -3.6761    1.2967    1.4181 N   0  0  0  0  0  0  0  0  0  0  0  0
   -1.1569    1.7201    2.2422 H   0  0  0  0  0  0  0  0  0  0  0  0
   -0.5891    0.0404    2.0579 H   0  0  0  0  0  0  0  0  0  0  0  0
   -1.8385    0.4229    3.2913 H   0  0  0  0  0  0  0  0  0  0  0  0
   -1.0775   -1.8235    1.0357 H   0  0  0  0  0  0  0  0  0  0  0  0
   -1.8001   -2.3875   -0.4664 H   0  0  0  0  0  0  0  0  0  0  0  0
    0.0466    0.0950   -0.2676 H   0  0  0  0  0  0  0  0  0  0  0  0
   -0.8155   -0.4793   -1.7307 H   0  0  0  0  0  0  0  0  0  0  0  0
    1.4973   -1.3102    0.9121 H   0  0  0  0  0  0  0  0  0  0  0  0
    0.9597   -3.0036    0.6485 H   0  0  0  0  0  0  0  0  0  0  0  0
    2.9155   -3.4282   -0.8071 H   0  0  0  0  0  0  0  0  0  0  0  0
    3.4080   -2.9352    0.8321 H   0  0  0  0  0  0  0  0  0  0  0  0
    4.5141   -1.8702   -1.3811 H   0  0  0  0  0  0  0  0  0  0  0  0
    3.4428   -0.0938   -2.4555 H   0  0  0  0  0  0  0  0  0  0  0  0
    2.4756    0.3759   -1.0191 H   0  0  0  0  0  0  0  0  0  0  0  0
    1.0856   -0.6073   -2.8661 H   0  0  0  0  0  0  0  0  0  0  0  0
    1.9928   -2.1239   -2.7490 H   0  0  0  0  0  0  0  0  0  0  0  0
    6.9909    2.1850    2.4741 H   0  0  0  0  0  0  0  0  0  0  0  0
    7.7264    2.0203   -1.7918 H   0  0  0  0  0  0  0  0  0  0  0  0
    5.9247    0.3025   -2.0409 H   0  0  0  0  0  0  0  0  0  0  0  0
   -5.8774    1.1713   -2.0101 H   0  0  0  0  0  0  0  0  0  0  0  0
   -5.9954   -0.6150   -1.9386 H   0  0  0  0  0  0  0  0  0  0  0  0
   -7.5317   -0.6094   -0.1449 H   0  0  0  0  0  0  0  0  0  0  0  0
   -8.0786    0.7230   -1.2034 H   0  0  0  0  0  0  0  0  0  0  0  0
   -8.0573    2.0825    0.6508 H   0  0  0  0  0  0  0  0  0  0  0  0
   -7.3116    0.7864    1.6329 H   0  0  0  0  0  0  0  0  0  0  0  0
   -5.8806    2.9299   -0.0406 H   0  0  0  0  0  0  0  0  0  0  0  0
   -5.8250    2.6948    1.7460 H   0  0  0  0  0  0  0  0  0  0  0  0
  1  2  1  0
  2  3  2  0
  3  4  1  0
  4  5  1  0
  5  6  1  0
  6  7  1  0
  7  8  1  0
  8  9  1  0
  9 10  1  0
 10 11  1  0
 11  6  1  0
  9 12  1  0
 12 13  2  0
 13 14  1  0
 14 15  1  0
 15 16  2  0
 16 17  1  0
 17 18  1  0
 17 19  2  0
 19 20  1  0
 20 21  2  0
 21 12  1  0
 21 15  1  0
  3 22  1  0
 22 23  2  0
 22 24  1  0
 24 25  1  0
 25 26  1  0
 26 27  1  0
 27 28  1  0
 28 29  1  0
 29 24  1  0
 29 30  2  0
 30  2  1  0
  1 31  1  0
  1 32  1  0
  1 33  1  0
  4 34  1  0
  4 35  1  0
  5 36  1  0
  5 37  1  0
  7 38  1  0
  7 39  1  0
  8 40  1  0
  8 41  1  0
  9 42  1  0
 10 43  1  0
 10 44  1  0
 11 45  1  0
 11 46  1  0
 16 47  1  0
 19 48  1  0
 20 49  1  0
 25 50  1  0
 25 51  1  0
 26 52  1  0
 26 53  1  0
 27 54  1  0
 27 55  1  0
 28 56  1  0
 28 57  1  0
M  END
> <ID>
HT1831

> <Class>
1.0

> <Clusters>
213

> <Fold>
5

$$$$