
     RDKit          3D

 20 19  0  0  0  0  0  0  0  0999 V2000
   -0.9412   -0.8010    1.3148 C   0  0  0  0  0  0  0  0  0  0  0  0
   -0.8233   -0.0549   -0.0296 C   0  0  0  0  0  0  0  0  0  0  0  0
   -1.2070    1.4235    0.1772 C   0  0  0  0  0  0  0  0  0  0  0  0
   -2.0540   -0.7893   -1.1773 S   0  0  0  0  0  0  0  0  0  0  0  0
    0.6147   -0.2138   -0.6317 C   0  0  1  0  0  0  0  0  0  0  0  0
    0.7627    0.5416   -1.8812 N   0  0  0  0  0  0  0  0  0  0  0  0
    1.7015    0.1970    0.3327 C   0  0  0  0  0  0  0  0  0  0  0  0
    1.8891    1.4124    0.6088 O   0  0  0  0  0  0  0  0  0  0  0  0
    2.5199   -0.7738    0.9021 O   0  0  0  0  0  0  0  0  0  0  0  0
   -1.9898   -0.7773    1.6823 H   0  0  0  0  0  0  0  0  0  0  0  0
   -0.2982   -0.3328    2.0903 H   0  0  0  0  0  0  0  0  0  0  0  0
   -0.6355   -1.8630    1.2006 H   0  0  0  0  0  0  0  0  0  0  0  0
   -1.1242    1.9919   -0.7731 H   0  0  0  0  0  0  0  0  0  0  0  0
   -2.2579    1.5022    0.5303 H   0  0  0  0  0  0  0  0  0  0  0  0
   -0.5622    1.9060    0.9400 H   0  0  0  0  0  0  0  0  0  0  0  0
   -1.5028   -2.0844   -1.1287 H   0  0  0  0  0  0  0  0  0  0  0  0
    0.7723   -1.2937   -0.8564 H   0  0  0  0  0  0  0  0  0  0  0  0
    0.1403    0.1213   -2.6078 H   0  0  0  0  0  0  0  0  0  0  0  0
    1.7368    0.4061   -2.2394 H   0  0  0  0  0  0  0  0  0  0  0  0
    3.2587   -0.5179    1.5462 H   0  0  0  0  0  0  0  0  0  0  0  0
  1  2  1  0
  2  3  1  0
  2  4  1  0
  2  5  1  0
  5  6  1  0
  5  7  1  0
  7  8  2  0
  7  9  1  0
  1 10  1  0
  1 11  1  0
  1 12  1  0
  3 13  1  0
  3 14  1  0
  3 15  1  0
  4 16  1  0
  5 17  1  6
  6 18  1  0
  6 19  1  0
  9 20  1  0
M  END
> <ID>
HT1614

> <Class>
1.0

> <Clusters>
151

> <Fold>
5

$$$$