
     RDKit          3D

 19 18  0  0  0  0  0  0  0  0999 V2000
   -2.0788    0.8410   -1.4424 C   0  0  0  0  0  0  0  0  0  0  0  0
   -2.1310    0.2919   -0.0177 C   0  0  0  0  0  0  0  0  0  0  0  0
   -2.1823    1.6639    1.1814 S   0  0  0  0  0  0  0  0  0  0  0  0
   -0.9510   -0.5990    0.2614 C   0  0  0  0  0  0  0  0  0  0  0  0
   -1.1480   -1.8178    0.5193 O   0  0  0  0  0  0  0  0  0  0  0  0
    0.3859   -0.0761    0.2398 N   0  0  0  0  0  0  0  0  0  0  0  0
    1.5401   -0.9441    0.4916 C   0  0  0  0  0  0  0  0  0  0  0  0
    2.8541   -0.2157    0.4213 C   0  0  0  0  0  0  0  0  0  0  0  0
    2.9132    1.0154    0.1563 O   0  0  0  0  0  0  0  0  0  0  0  0
    4.0285   -0.9241    0.6534 O   0  0  0  0  0  0  0  0  0  0  0  0
   -2.9895    1.4432   -1.6467 H   0  0  0  0  0  0  0  0  0  0  0  0
   -1.1875    1.4874   -1.5883 H   0  0  0  0  0  0  0  0  0  0  0  0
   -2.0422    0.0047   -2.1729 H   0  0  0  0  0  0  0  0  0  0  0  0
   -3.0702   -0.2938    0.0925 H   0  0  0  0  0  0  0  0  0  0  0  0
   -2.3798    0.8015    2.2772 H   0  0  0  0  0  0  0  0  0  0  0  0
    0.5131    0.9426    0.0484 H   0  0  0  0  0  0  0  0  0  0  0  0
    1.4428   -1.3952    1.5021 H   0  0  0  0  0  0  0  0  0  0  0  0
    1.5522   -1.7620   -0.2600 H   0  0  0  0  0  0  0  0  0  0  0  0
    4.9301   -0.4639    0.6130 H   0  0  0  0  0  0  0  0  0  0  0  0
  1  2  1  0
  2  3  1  0
  2  4  1  0
  4  5  2  0
  4  6  1  0
  6  7  1  0
  7  8  1  0
  8  9  2  0
  8 10  1  0
  1 11  1  0
  1 12  1  0
  1 13  1  0
  2 14  1  0
  3 15  1  0
  6 16  1  0
  7 17  1  0
  7 18  1  0
 10 19  1  0
M  END
> <ID>
HT2067

> <Class>
1.0

> <Clusters>
5

> <Fold>
5

$$$$