
     RDKit          3D

 43 45  0  0  0  0  0  0  0  0999 V2000
    5.4994   -0.1009   -0.7872 C   0  0  0  0  0  0  0  0  0  0  0  0
    4.5356   -1.2805   -0.9092 C   0  0  0  0  0  0  0  0  0  0  0  0
    3.7165   -1.5220    0.3708 C   0  0  0  0  0  0  0  0  0  0  0  0
    2.8267   -0.3417    0.8093 C   0  0  0  0  0  0  0  0  0  0  0  0
    1.8202    0.1378   -0.2564 C   0  0  0  0  0  0  0  0  0  0  0  0
    0.7368   -0.8651   -0.5391 C   0  0  0  0  0  0  0  0  0  0  0  0
    0.9308   -1.9958   -1.0598 O   0  0  0  0  0  0  0  0  0  0  0  0
   -0.5540   -0.3824   -0.1704 N   0  0  0  0  0  0  0  0  0  0  0  0
   -0.4038    0.9092    0.3504 N   0  0  0  0  0  0  0  0  0  0  0  0
    0.9780    1.2561    0.2824 C   0  0  0  0  0  0  0  0  0  0  0  0
    1.4253    2.3944    0.5867 O   0  0  0  0  0  0  0  0  0  0  0  0
   -1.4778    1.8422    0.5619 C   0  0  0  0  0  0  0  0  0  0  0  0
   -2.5800    1.8714   -0.3092 C   0  0  0  0  0  0  0  0  0  0  0  0
   -3.6257    2.7739   -0.0928 C   0  0  0  0  0  0  0  0  0  0  0  0
   -3.5779    3.6544    0.9911 C   0  0  0  0  0  0  0  0  0  0  0  0
   -2.4834    3.6345    1.8598 C   0  0  0  0  0  0  0  0  0  0  0  0
   -1.4359    2.7331    1.6466 C   0  0  0  0  0  0  0  0  0  0  0  0
   -1.7218   -1.2051   -0.0041 C   0  0  0  0  0  0  0  0  0  0  0  0
   -2.4664   -1.1530    1.1863 C   0  0  0  0  0  0  0  0  0  0  0  0
   -3.6063   -1.9479    1.3401 C   0  0  0  0  0  0  0  0  0  0  0  0
   -4.0093   -2.8011    0.3094 C   0  0  0  0  0  0  0  0  0  0  0  0
   -3.2722   -2.8612   -0.8764 C   0  0  0  0  0  0  0  0  0  0  0  0
   -2.1318   -2.0675   -1.0337 C   0  0  0  0  0  0  0  0  0  0  0  0
    6.1568   -0.0674   -1.6814 H   0  0  0  0  0  0  0  0  0  0  0  0
    6.1356   -0.2109    0.1165 H   0  0  0  0  0  0  0  0  0  0  0  0
    4.9410    0.8568   -0.7341 H   0  0  0  0  0  0  0  0  0  0  0  0
    5.1317   -2.1959   -1.1148 H   0  0  0  0  0  0  0  0  0  0  0  0
    3.8648   -1.1309   -1.7809 H   0  0  0  0  0  0  0  0  0  0  0  0
    4.4170   -1.7570    1.2017 H   0  0  0  0  0  0  0  0  0  0  0  0
    3.0888   -2.4263    0.2282 H   0  0  0  0  0  0  0  0  0  0  0  0
    2.2731   -0.6492    1.7246 H   0  0  0  0  0  0  0  0  0  0  0  0
    3.4774    0.5092    1.1050 H   0  0  0  0  0  0  0  0  0  0  0  0
    2.3167    0.4646   -1.1933 H   0  0  0  0  0  0  0  0  0  0  0  0
   -2.6242    1.2050   -1.1609 H   0  0  0  0  0  0  0  0  0  0  0  0
   -4.4719    2.7924   -0.7674 H   0  0  0  0  0  0  0  0  0  0  0  0
   -4.3883    4.3523    1.1576 H   0  0  0  0  0  0  0  0  0  0  0  0
   -2.4482    4.3152    2.7005 H   0  0  0  0  0  0  0  0  0  0  0  0
   -0.6012    2.7169    2.3356 H   0  0  0  0  0  0  0  0  0  0  0  0
   -2.1586   -0.5065    1.9979 H   0  0  0  0  0  0  0  0  0  0  0  0
   -4.1757   -1.9042    2.2595 H   0  0  0  0  0  0  0  0  0  0  0  0
   -4.8921   -3.4156    0.4296 H   0  0  0  0  0  0  0  0  0  0  0  0
   -3.5866   -3.5201   -1.6753 H   0  0  0  0  0  0  0  0  0  0  0  0
   -1.5794   -2.1111   -1.9635 H   0  0  0  0  0  0  0  0  0  0  0  0
  1  2  1  0
  2  3  1  0
  3  4  1  0
  4  5  1  0
  5  6  1  0
  6  7  2  0
  6  8  1  0
  8  9  1  0
  9 10  1  0
 10  5  1  0
 10 11  2  0
  9 12  1  0
 12 13  2  0
 13 14  1  0
 14 15  2  0
 15 16  1  0
 16 17  2  0
 17 12  1  0
  8 18  1  0
 18 19  2  0
 19 20  1  0
 20 21  2  0
 21 22  1  0
 22 23  2  0
 23 18  1  0
  1 24  1  0
  1 25  1  0
  1 26  1  0
  2 27  1  0
  2 28  1  0
  3 29  1  0
  3 30  1  0
  4 31  1  0
  4 32  1  0
  5 33  1  0
 13 34  1  0
 14 35  1  0
 15 36  1  0
 16 37  1  0
 17 38  1  0
 19 39  1  0
 20 40  1  0
 21 41  1  0
 22 42  1  0
 23 43  1  0
M  END
> <ID>
HT1660

> <Class>
1.0

> <Clusters>
195

> <Fold>
5

$$$$