
     RDKit          3D

 55 58  0  0  0  0  0  0  0  0999 V2000
    4.7865   -1.4450    0.9685 C   0  0  0  0  0  0  0  0  0  0  0  0
    3.6966   -0.8929    0.0270 C   0  0  0  0  0  0  0  0  0  0  0  0
    3.4237   -1.9053   -1.0953 C   0  0  0  0  0  0  0  0  0  0  0  0
    2.1529   -0.6993    1.0323 S   0  0  0  0  0  0  0  0  0  0  0  0
    2.5370    1.0503    1.3858 C   0  0  2  0  0  0  0  0  0  0  0  0
    1.5366    2.0604    1.1116 C   0  0  2  0  0  0  0  0  0  0  0  0
    0.2888    1.5371    0.5497 N   0  0  0  0  0  0  0  0  0  0  0  0
   -0.7572    1.0171    1.3808 C   0  0  0  0  0  0  0  0  0  0  0  0
   -0.6913    1.1445    2.6341 O   0  0  0  0  0  0  0  0  0  0  0  0
   -1.8857    0.2445    0.7498 C   0  0  2  0  0  0  0  0  0  0  0  0
   -3.0464    0.1740    1.6474 N   0  0  0  0  0  0  0  0  0  0  0  0
   -4.2266    0.9627    1.4442 C   0  0  0  0  0  0  0  0  0  0  0  0
   -4.8422    1.4162    2.4453 O   0  0  0  0  0  0  0  0  0  0  0  0
   -4.7173    1.2455    0.1260 N   0  0  0  0  0  0  0  0  0  0  0  0
   -5.4829    2.4310   -0.2449 C   0  0  0  0  0  0  0  0  0  0  0  0
   -5.9209    2.2062   -1.7148 C   0  0  0  0  0  0  0  0  0  0  0  0
   -5.4614    0.8699   -2.0671 N   0  0  0  0  0  0  0  0  0  0  0  0
   -4.7835    0.3372   -0.9548 C   0  0  0  0  0  0  0  0  0  0  0  0
   -4.3513   -0.8447   -0.9104 O   0  0  0  0  0  0  0  0  0  0  0  0
   -1.4028   -1.1422    0.3825 C   0  0  0  0  0  0  0  0  0  0  0  0
   -1.2024   -1.4823   -0.9680 C   0  0  0  0  0  0  0  0  0  0  0  0
   -0.6959   -2.7384   -1.3145 C   0  0  0  0  0  0  0  0  0  0  0  0
   -0.3782   -3.6646   -0.3193 C   0  0  0  0  0  0  0  0  0  0  0  0
   -0.5645   -3.3362    1.0253 C   0  0  0  0  0  0  0  0  0  0  0  0
   -1.0706   -2.0815    1.3778 C   0  0  0  0  0  0  0  0  0  0  0  0
    2.4446    2.5773    0.0385 C   0  0  0  0  0  0  0  0  0  0  0  0
    2.4028    3.5261   -0.7873 O   0  0  0  0  0  0  0  0  0  0  0  0
    3.3715    1.4519    0.2961 N   0  0  0  0  0  0  0  0  0  0  0  0
    4.0489    0.5121   -0.5634 C   0  0  1  0  0  0  0  0  0  0  0  0
    5.5199    0.8186   -0.6611 C   0  0  0  0  0  0  0  0  0  0  0  0
    6.0496    1.6835    0.0882 O   0  0  0  0  0  0  0  0  0  0  0  0
    6.3009    0.1387   -1.5913 O   0  0  0  0  0  0  0  0  0  0  0  0
    5.7145   -1.6844    0.4083 H   0  0  0  0  0  0  0  0  0  0  0  0
    4.4361   -2.3779    1.4599 H   0  0  0  0  0  0  0  0  0  0  0  0
    5.0264   -0.7050    1.7616 H   0  0  0  0  0  0  0  0  0  0  0  0
    2.5756   -1.5645   -1.7280 H   0  0  0  0  0  0  0  0  0  0  0  0
    4.3222   -2.0230   -1.7383 H   0  0  0  0  0  0  0  0  0  0  0  0
    3.1577   -2.8971   -0.6696 H   0  0  0  0  0  0  0  0  0  0  0  0
    3.0591    1.1893    2.3583 H   0  0  0  0  0  0  0  0  0  0  0  0
    1.3797    2.8016    1.9250 H   0  0  0  0  0  0  0  0  0  0  0  0
    0.1957    1.4359   -0.4876 H   0  0  0  0  0  0  0  0  0  0  0  0
   -2.1666    0.7969   -0.1725 H   0  0  0  0  0  0  0  0  0  0  0  0
   -2.9290   -0.2747    2.5840 H   0  0  0  0  0  0  0  0  0  0  0  0
   -4.8463    3.3371   -0.1553 H   0  0  0  0  0  0  0  0  0  0  0  0
   -6.3750    2.5276    0.4118 H   0  0  0  0  0  0  0  0  0  0  0  0
   -7.0264    2.2616   -1.8091 H   0  0  0  0  0  0  0  0  0  0  0  0
   -5.4465    2.9537   -2.3865 H   0  0  0  0  0  0  0  0  0  0  0  0
   -5.6283    0.3825   -2.9749 H   0  0  0  0  0  0  0  0  0  0  0  0
   -1.4294   -0.7729   -1.7539 H   0  0  0  0  0  0  0  0  0  0  0  0
   -0.5421   -2.9907   -2.3556 H   0  0  0  0  0  0  0  0  0  0  0  0
    0.0212   -4.6333   -0.5893 H   0  0  0  0  0  0  0  0  0  0  0  0
   -0.3053   -4.0500    1.7964 H   0  0  0  0  0  0  0  0  0  0  0  0
   -1.1797   -1.8370    2.4266 H   0  0  0  0  0  0  0  0  0  0  0  0
    3.6157    0.6208   -1.5823 H   0  0  0  0  0  0  0  0  0  0  0  0
    7.2915    0.3309   -1.6764 H   0  0  0  0  0  0  0  0  0  0  0  0
  1  2  1  0
  2  3  1  0
  2  4  1  0
  5  4  1  0
  5  6  1  0
  6  7  1  0
  7  8  1  0
  8  9  2  0
  8 10  1  0
 10 11  1  0
 11 12  1  0
 12 13  2  0
 12 14  1  0
 14 15  1  0
 15 16  1  0
 16 17  1  0
 17 18  1  0
 18 14  1  0
 18 19  2  0
 10 20  1  0
 20 21  2  0
 21 22  1  0
 22 23  2  0
 23 24  1  0
 24 25  2  0
 25 20  1  0
  6 26  1  0
 26 27  2  0
 26 28  1  0
 28  5  1  0
 28 29  1  0
 29  2  1  0
 29 30  1  0
 30 31  2  0
 30 32  1  0
  1 33  1  0
  1 34  1  0
  1 35  1  0
  3 36  1  0
  3 37  1  0
  3 38  1  0
  5 39  1  1
  6 40  1  1
  7 41  1  0
 10 42  1  6
 11 43  1  0
 15 44  1  0
 15 45  1  0
 16 46  1  0
 16 47  1  0
 17 48  1  0
 21 49  1  0
 22 50  1  0
 23 51  1  0
 24 52  1  0
 25 53  1  0
 29 54  1  6
 32 55  1  0
M  END
> <ID>
HT0219

> <Class>
1.0

> <Clusters>
18

> <Fold>
5

$$$$