
     RDKit          3D

 41 43  0  0  0  0  0  0  0  0999 V2000
   -2.6136    1.7209    0.2455 C   0  0  0  0  0  0  0  0  0  0  0  0
   -3.1644    0.3082    0.5134 C   0  0  0  0  0  0  0  0  0  0  0  0
   -4.3885    0.4276    1.4421 C   0  0  0  0  0  0  0  0  0  0  0  0
   -1.8328   -0.6523    1.3815 S   0  0  0  0  0  0  0  0  0  0  0  0
   -1.4010   -1.6270   -0.1099 C   0  0  2  0  0  0  0  0  0  0  0  0
   -0.1946   -1.3026   -0.8391 C   0  0  2  0  0  0  0  0  0  0  0  0
    0.5974   -0.2158   -0.2579 N   0  0  0  0  0  0  0  0  0  0  0  0
    1.5072   -0.4464    0.8263 C   0  0  0  0  0  0  0  0  0  0  0  0
    1.6344   -1.6022    1.3144 O   0  0  0  0  0  0  0  0  0  0  0  0
    2.3422    0.6760    1.3634 C   0  0  0  0  0  0  0  0  0  0  0  0
    3.6944    0.6837    0.7032 C   0  0  0  0  0  0  0  0  0  0  0  0
    3.8278    1.1054   -0.6311 C   0  0  0  0  0  0  0  0  0  0  0  0
    5.0829    1.1078   -1.2475 C   0  0  0  0  0  0  0  0  0  0  0  0
    6.2124    0.6906   -0.5384 C   0  0  0  0  0  0  0  0  0  0  0  0
    6.0888    0.2703    0.7886 C   0  0  0  0  0  0  0  0  0  0  0  0
    4.8356    0.2661    1.4093 C   0  0  0  0  0  0  0  0  0  0  0  0
   -1.0698   -0.8252   -1.9552 C   0  0  0  0  0  0  0  0  0  0  0  0
   -0.8723   -0.3181   -3.0899 O   0  0  0  0  0  0  0  0  0  0  0  0
   -2.2664   -1.1288   -1.1356 N   0  0  0  0  0  0  0  0  0  0  0  0
   -3.4709   -0.3961   -0.8477 C   0  0  1  0  0  0  0  0  0  0  0  0
   -4.6222   -1.3654   -0.8051 C   0  0  0  0  0  0  0  0  0  0  0  0
   -5.6589   -1.1407   -1.4851 O   0  0  0  0  0  0  0  0  0  0  0  0
   -4.5450   -2.5126   -0.0196 O   0  0  0  0  0  0  0  0  0  0  0  0
   -1.7317    1.6778   -0.4274 H   0  0  0  0  0  0  0  0  0  0  0  0
   -2.2995    2.2058    1.1949 H   0  0  0  0  0  0  0  0  0  0  0  0
   -3.3880    2.3572   -0.2346 H   0  0  0  0  0  0  0  0  0  0  0  0
   -4.7293   -0.5726    1.7816 H   0  0  0  0  0  0  0  0  0  0  0  0
   -5.2258    0.9356    0.9170 H   0  0  0  0  0  0  0  0  0  0  0  0
   -4.1326    1.0151    2.3500 H   0  0  0  0  0  0  0  0  0  0  0  0
   -1.5463   -2.7197    0.0385 H   0  0  0  0  0  0  0  0  0  0  0  0
    0.4207   -2.1800   -1.1359 H   0  0  0  0  0  0  0  0  0  0  0  0
    0.5595    0.7371   -0.6863 H   0  0  0  0  0  0  0  0  0  0  0  0
    1.8355    1.6503    1.1927 H   0  0  0  0  0  0  0  0  0  0  0  0
    2.4421    0.5533    2.4641 H   0  0  0  0  0  0  0  0  0  0  0  0
    2.9615    1.4332   -1.1918 H   0  0  0  0  0  0  0  0  0  0  0  0
    5.1797    1.4336   -2.2752 H   0  0  0  0  0  0  0  0  0  0  0  0
    7.1831    0.6928   -1.0171 H   0  0  0  0  0  0  0  0  0  0  0  0
    6.9644   -0.0535    1.3364 H   0  0  0  0  0  0  0  0  0  0  0  0
    4.7560   -0.0662    2.4369 H   0  0  0  0  0  0  0  0  0  0  0  0
   -3.6574    0.3469   -1.6556 H   0  0  0  0  0  0  0  0  0  0  0  0
   -5.3145   -3.1702    0.0167 H   0  0  0  0  0  0  0  0  0  0  0  0
  1  2  1  0
  2  3  1  0
  2  4  1  0
  5  4  1  0
  5  6  1  0
  6  7  1  0
  7  8  1  0
  8  9  2  0
  8 10  1  0
 10 11  1  0
 11 12  2  0
 12 13  1  0
 13 14  2  0
 14 15  1  0
 15 16  2  0
 16 11  1  0
  6 17  1  0
 17 18  2  0
 17 19  1  0
 19  5  1  0
 19 20  1  0
 20  2  1  0
 20 21  1  0
 21 22  2  0
 21 23  1  0
  1 24  1  0
  1 25  1  0
  1 26  1  0
  3 27  1  0
  3 28  1  0
  3 29  1  0
  5 30  1  1
  6 31  1  6
  7 32  1  0
 10 33  1  0
 10 34  1  0
 12 35  1  0
 13 36  1  0
 14 37  1  0
 15 38  1  0
 16 39  1  0
 20 40  1  6
 23 41  1  0
M  END
> <ID>
HT0260

> <Class>
1.0

> <Clusters>
18

> <Fold>
5

$$$$