
     RDKit          3D

 68 70  0  0  0  0  0  0  0  0999 V2000
   -3.6854    1.3239   -2.7703 C   0  0  0  0  0  0  0  0  0  0  0  0
   -2.8014    0.8450   -1.6137 C   0  0  0  0  0  0  0  0  0  0  0  0
   -3.1020    1.4948   -0.2302 C   0  0  0  0  0  0  0  0  0  0  0  0
   -2.8889    3.0265   -0.2885 C   0  0  0  0  0  0  0  0  0  0  0  0
   -4.5491    1.2047    0.2194 C   0  0  0  0  0  0  0  0  0  0  0  0
   -2.1595    0.8670    0.7822 C   0  0  0  0  0  0  0  0  0  0  0  0
   -1.3269    1.5720    1.4171 O   0  0  0  0  0  0  0  0  0  0  0  0
   -2.2202   -0.5161    0.9973 O   0  0  0  0  0  0  0  0  0  0  0  0
   -1.2333   -1.2695    1.7094 C   0  0  1  0  0  0  0  0  0  0  0  0
   -1.9220   -2.3963    2.4922 C   0  0  0  0  0  0  0  0  0  0  0  0
   -2.6280   -3.4313    1.5794 C   0  0  1  0  0  0  0  0  0  0  0  0
   -4.1179   -3.1028    1.4186 C   0  0  0  0  0  0  0  0  0  0  0  0
   -1.9962   -3.5756    0.2106 C   0  0  0  0  0  0  0  0  0  0  0  0
   -0.9525   -2.8429   -0.2169 C   0  0  0  0  0  0  0  0  0  0  0  0
   -0.5362   -2.9647   -1.6327 C   0  0  0  0  0  0  0  0  0  0  0  0
    0.5348   -2.3248   -2.1021 C   0  0  0  0  0  0  0  0  0  0  0  0
    1.4675   -1.5803   -1.1886 C   0  0  2  0  0  0  0  0  0  0  0  0
    2.5386   -2.5660   -0.6818 C   0  0  0  0  0  0  0  0  0  0  0  0
    0.6538   -0.8688   -0.0618 C   0  0  2  0  0  0  0  0  0  0  0  0
    1.5625    0.0031    0.8532 C   0  0  0  0  0  0  0  0  0  0  0  0
    2.1653    1.2327    0.1262 C   0  0  0  0  0  0  0  0  0  0  0  0
    3.6827    1.1274   -0.1309 C   0  0  2  0  0  0  0  0  0  0  0  0
    4.5258    1.2713    1.1592 C   0  0  0  0  0  0  0  0  0  0  0  0
    4.7368    2.7378    1.5440 C   0  0  1  0  0  0  0  0  0  0  0  0
    5.4782    2.7976    2.7347 O   0  0  0  0  0  0  0  0  0  0  0  0
    5.4846    3.4795    0.4302 C   0  0  0  0  0  0  0  0  0  0  0  0
    4.9082    3.1760   -0.9201 C   0  0  0  0  0  0  0  0  0  0  0  0
    5.2188    3.9048   -1.8986 O   0  0  0  0  0  0  0  0  0  0  0  0
    4.0485    2.0907   -1.1269 O   0  0  0  0  0  0  0  0  0  0  0  0
   -0.2102   -1.9044    0.7308 C   0  0  1  0  0  0  0  0  0  0  0  0
   -3.5501    2.4087   -2.9566 H   0  0  0  0  0  0  0  0  0  0  0  0
   -3.3927    0.7845   -3.6962 H   0  0  0  0  0  0  0  0  0  0  0  0
   -4.7548    1.1032   -2.5753 H   0  0  0  0  0  0  0  0  0  0  0  0
   -2.9135   -0.2603   -1.5397 H   0  0  0  0  0  0  0  0  0  0  0  0
   -1.7416    1.0435   -1.8902 H   0  0  0  0  0  0  0  0  0  0  0  0
   -1.8740    3.2652   -0.6731 H   0  0  0  0  0  0  0  0  0  0  0  0
   -3.6381    3.5145   -0.9459 H   0  0  0  0  0  0  0  0  0  0  0  0
   -2.9988    3.4752    0.7224 H   0  0  0  0  0  0  0  0  0  0  0  0
   -4.7014    1.5302    1.2716 H   0  0  0  0  0  0  0  0  0  0  0  0
   -5.2842    1.7505   -0.4090 H   0  0  0  0  0  0  0  0  0  0  0  0
   -4.7735    0.1192    0.1531 H   0  0  0  0  0  0  0  0  0  0  0  0
   -0.7328   -0.6375    2.4702 H   0  0  0  0  0  0  0  0  0  0  0  0
   -2.6358   -1.9541    3.2219 H   0  0  0  0  0  0  0  0  0  0  0  0
   -1.1518   -2.9245    3.0981 H   0  0  0  0  0  0  0  0  0  0  0  0
   -2.5661   -4.4227    2.0798 H   0  0  0  0  0  0  0  0  0  0  0  0
   -4.2557   -2.1408    0.8835 H   0  0  0  0  0  0  0  0  0  0  0  0
   -4.6102   -3.0376    2.4127 H   0  0  0  0  0  0  0  0  0  0  0  0
   -4.6266   -3.9043    0.8404 H   0  0  0  0  0  0  0  0  0  0  0  0
   -2.4692   -4.2715   -0.4740 H   0  0  0  0  0  0  0  0  0  0  0  0
   -1.1361   -3.5459   -2.3230 H   0  0  0  0  0  0  0  0  0  0  0  0
    0.7835   -2.4088   -3.1530 H   0  0  0  0  0  0  0  0  0  0  0  0
    1.9811   -0.8103   -1.8035 H   0  0  0  0  0  0  0  0  0  0  0  0
    2.0834   -3.4020   -0.1115 H   0  0  0  0  0  0  0  0  0  0  0  0
    3.2940   -2.0680   -0.0461 H   0  0  0  0  0  0  0  0  0  0  0  0
    3.0823   -3.0002   -1.5477 H   0  0  0  0  0  0  0  0  0  0  0  0
   -0.0537   -0.1799   -0.5705 H   0  0  0  0  0  0  0  0  0  0  0  0
    2.3394   -0.6211    1.3361 H   0  0  0  0  0  0  0  0  0  0  0  0
    0.9694    0.4080    1.6919 H   0  0  0  0  0  0  0  0  0  0  0  0
    1.9575    2.1485    0.7193 H   0  0  0  0  0  0  0  0  0  0  0  0
    1.6495    1.3938   -0.8455 H   0  0  0  0  0  0  0  0  0  0  0  0
    3.8964    0.1268   -0.5578 H   0  0  0  0  0  0  0  0  0  0  0  0
    4.0492    0.7355    2.0075 H   0  0  0  0  0  0  0  0  0  0  0  0
    5.5182    0.7975    0.9919 H   0  0  0  0  0  0  0  0  0  0  0  0
    3.7437    3.2171    1.7038 H   0  0  0  0  0  0  0  0  0  0  0  0
    5.3718    3.7176    3.0928 H   0  0  0  0  0  0  0  0  0  0  0  0
    5.4185    4.5725    0.6202 H   0  0  0  0  0  0  0  0  0  0  0  0
    6.5582    3.1904    0.4302 H   0  0  0  0  0  0  0  0  0  0  0  0
    0.4880   -2.5242    1.3353 H   0  0  0  0  0  0  0  0  0  0  0  0
  1  2  1  0
  2  3  1  0
  3  4  1  0
  3  5  1  0
  3  6  1  0
  6  7  2  0
  6  8  1  0
  9  8  1  0
  9 10  1  0
 10 11  1  0
 11 12  1  0
 11 13  1  0
 13 14  2  0
 14 15  1  0
 15 16  2  0
 16 17  1  0
 17 18  1  0
 17 19  1  0
 19 20  1  0
 20 21  1  0
 22 21  1  0
 22 23  1  0
 23 24  1  0
 24 25  1  0
 24 26  1  0
 26 27  1  0
 27 28  2  0
 27 29  1  0
 29 22  1  0
 19 30  1  0
 30  9  1  0
 30 14  1  0
  1 31  1  0
  1 32  1  0
  1 33  1  0
  2 34  1  0
  2 35  1  0
  4 36  1  0
  4 37  1  0
  4 38  1  0
  5 39  1  0
  5 40  1  0
  5 41  1  0
  9 42  1  1
 10 43  1  0
 10 44  1  0
 11 45  1  1
 12 46  1  0
 12 47  1  0
 12 48  1  0
 13 49  1  0
 15 50  1  0
 16 51  1  0
 17 52  1  6
 18 53  1  0
 18 54  1  0
 18 55  1  0
 19 56  1  6
 20 57  1  0
 20 58  1  0
 21 59  1  0
 21 60  1  0
 22 61  1  6
 23 62  1  0
 23 63  1  0
 24 64  1  1
 25 65  1  0
 26 66  1  0
 26 67  1  0
 30 68  1  1
M  END
> <ID>
HT1889

> <Class>
1.0

> <Clusters>
149

> <Fold>
5

$$$$