
     RDKit          3D

 38 38  0  0  0  0  0  0  0  0999 V2000
    4.9448   -1.0204    1.3389 C   0  0  0  0  0  0  0  0  0  0  0  0
    3.6948   -0.1618    1.5100 C   0  0  0  0  0  0  0  0  0  0  0  0
    3.0362    0.0525    0.2006 N   0  0  0  0  0  0  0  0  0  0  0  0
    3.6075    1.2263   -0.4992 C   0  0  0  0  0  0  0  0  0  0  0  0
    3.5329    1.0290   -2.0109 C   0  0  0  0  0  0  0  0  0  0  0  0
    1.5683    0.1816    0.3547 C   0  0  0  0  0  0  0  0  0  0  0  0
    0.9106   -1.2013    0.3035 C   0  0  0  0  0  0  0  0  0  0  0  0
   -0.5395   -1.0859    0.4489 N   0  0  0  0  0  0  0  0  0  0  0  0
   -1.3805   -0.5788   -0.6007 C   0  0  0  0  0  0  0  0  0  0  0  0
   -0.9015   -0.4117   -1.7560 O   0  0  0  0  0  0  0  0  0  0  0  0
   -2.8093   -0.2682   -0.3541 C   0  0  0  0  0  0  0  0  0  0  0  0
   -3.7195   -0.2412   -1.4264 C   0  0  0  0  0  0  0  0  0  0  0  0
   -5.0677    0.0565   -1.2066 C   0  0  0  0  0  0  0  0  0  0  0  0
   -5.5268    0.3398    0.0859 C   0  0  0  0  0  0  0  0  0  0  0  0
   -6.9058    0.6452    0.3096 N   0  0  0  0  0  0  0  0  0  0  0  0
   -4.6242    0.3270    1.1568 C   0  0  0  0  0  0  0  0  0  0  0  0
   -3.2755    0.0286    0.9401 C   0  0  0  0  0  0  0  0  0  0  0  0
    4.6757   -1.9914    0.8716 H   0  0  0  0  0  0  0  0  0  0  0  0
    5.6947   -0.5074    0.7022 H   0  0  0  0  0  0  0  0  0  0  0  0
    5.4013   -1.2164    2.3320 H   0  0  0  0  0  0  0  0  0  0  0  0
    3.9595    0.8052    1.9953 H   0  0  0  0  0  0  0  0  0  0  0  0
    3.0270   -0.7028    2.2166 H   0  0  0  0  0  0  0  0  0  0  0  0
    3.0840    2.1660   -0.2103 H   0  0  0  0  0  0  0  0  0  0  0  0
    4.6815    1.3662   -0.2453 H   0  0  0  0  0  0  0  0  0  0  0  0
    4.0090    1.8914   -2.5234 H   0  0  0  0  0  0  0  0  0  0  0  0
    2.4793    0.9559   -2.3509 H   0  0  0  0  0  0  0  0  0  0  0  0
    4.0715    0.1010   -2.2983 H   0  0  0  0  0  0  0  0  0  0  0  0
    1.3050    0.6960    1.3074 H   0  0  0  0  0  0  0  0  0  0  0  0
    1.1307    0.7925   -0.4648 H   0  0  0  0  0  0  0  0  0  0  0  0
    1.3059   -1.8341    1.1262 H   0  0  0  0  0  0  0  0  0  0  0  0
    1.1549   -1.7062   -0.6564 H   0  0  0  0  0  0  0  0  0  0  0  0
   -0.9731   -1.4670    1.3192 H   0  0  0  0  0  0  0  0  0  0  0  0
   -3.3910   -0.4606   -2.4348 H   0  0  0  0  0  0  0  0  0  0  0  0
   -5.7542    0.0662   -2.0440 H   0  0  0  0  0  0  0  0  0  0  0  0
   -7.2570    0.8594    1.2696 H   0  0  0  0  0  0  0  0  0  0  0  0
   -7.5858    0.6590   -0.4830 H   0  0  0  0  0  0  0  0  0  0  0  0
   -4.9644    0.5547    2.1593 H   0  0  0  0  0  0  0  0  0  0  0  0
   -2.5995    0.0552    1.7842 H   0  0  0  0  0  0  0  0  0  0  0  0
  1  2  1  0
  2  3  1  0
  3  4  1  0
  4  5  1  0
  3  6  1  0
  6  7  1  0
  7  8  1  0
  8  9  1  0
  9 10  2  0
  9 11  1  0
 11 12  2  0
 12 13  1  0
 13 14  2  0
 14 15  1  0
 14 16  1  0
 16 17  2  0
 17 11  1  0
  1 18  1  0
  1 19  1  0
  1 20  1  0
  2 21  1  0
  2 22  1  0
  4 23  1  0
  4 24  1  0
  5 25  1  0
  5 26  1  0
  5 27  1  0
  6 28  1  0
  6 29  1  0
  7 30  1  0
  7 31  1  0
  8 32  1  0
 12 33  1  0
 13 34  1  0
 15 35  1  0
 15 36  1  0
 16 37  1  0
 17 38  1  0
M  END
> <ID>
HT1743

> <Class>
1.0

> <Clusters>
204

> <Fold>
5

$$$$