
     RDKit          3D

 35 35  0  0  0  0  0  0  0  0999 V2000
    5.9771    1.1766    0.7801 C   0  0  0  0  0  0  0  0  0  0  0  0
    5.4650   -0.0850    0.2546 N   0  0  0  0  0  0  0  0  0  0  0  0
    4.1037    0.0975   -0.0662 N   0  0  0  0  0  0  0  0  0  0  0  0
    3.4427   -1.2057    0.0029 C   0  0  0  0  0  0  0  0  0  0  0  0
    1.9602   -1.0405   -0.1962 C   0  0  0  0  0  0  0  0  0  0  0  0
    1.3167   -1.6193   -1.3002 C   0  0  0  0  0  0  0  0  0  0  0  0
   -0.0612   -1.4631   -1.4761 C   0  0  0  0  0  0  0  0  0  0  0  0
   -0.8204   -0.7194   -0.5551 C   0  0  0  0  0  0  0  0  0  0  0  0
   -0.1731   -0.1526    0.5578 C   0  0  0  0  0  0  0  0  0  0  0  0
    1.2047   -0.3106    0.7331 C   0  0  0  0  0  0  0  0  0  0  0  0
   -2.2823   -0.5664   -0.7504 C   0  0  0  0  0  0  0  0  0  0  0  0
   -2.9044   -1.4138   -1.4482 O   0  0  0  0  0  0  0  0  0  0  0  0
   -2.9963    0.5409   -0.1747 N   0  0  0  0  0  0  0  0  0  0  0  0
   -4.4621    0.6072   -0.1737 C   0  0  0  0  0  0  0  0  0  0  0  0
   -5.0308   -0.3768    0.8531 C   0  0  0  0  0  0  0  0  0  0  0  0
   -4.9324    2.0323    0.1365 C   0  0  0  0  0  0  0  0  0  0  0  0
    5.4204    1.4599    1.6991 H   0  0  0  0  0  0  0  0  0  0  0  0
    5.8806    1.9853    0.0224 H   0  0  0  0  0  0  0  0  0  0  0  0
    7.0494    1.0590    1.0432 H   0  0  0  0  0  0  0  0  0  0  0  0
    5.9957   -0.3122   -0.6212 H   0  0  0  0  0  0  0  0  0  0  0  0
    4.0311    0.4547   -1.0505 H   0  0  0  0  0  0  0  0  0  0  0  0
    3.8727   -1.8877   -0.7656 H   0  0  0  0  0  0  0  0  0  0  0  0
    3.6154   -1.6655    1.0013 H   0  0  0  0  0  0  0  0  0  0  0  0
    1.8799   -2.1903   -2.0279 H   0  0  0  0  0  0  0  0  0  0  0  0
   -0.5317   -1.9157   -2.3402 H   0  0  0  0  0  0  0  0  0  0  0  0
   -0.7291    0.3925    1.3088 H   0  0  0  0  0  0  0  0  0  0  0  0
    1.6837    0.1315    1.5983 H   0  0  0  0  0  0  0  0  0  0  0  0
   -2.4528    1.3578    0.1852 H   0  0  0  0  0  0  0  0  0  0  0  0
   -4.8440    0.3377   -1.1832 H   0  0  0  0  0  0  0  0  0  0  0  0
   -4.6525   -0.1375    1.8701 H   0  0  0  0  0  0  0  0  0  0  0  0
   -6.1407   -0.3281    0.8587 H   0  0  0  0  0  0  0  0  0  0  0  0
   -4.7324   -1.4151    0.5975 H   0  0  0  0  0  0  0  0  0  0  0  0
   -4.5897    2.3468    1.1458 H   0  0  0  0  0  0  0  0  0  0  0  0
   -6.0414    2.0881    0.0982 H   0  0  0  0  0  0  0  0  0  0  0  0
   -4.5217    2.7373   -0.6173 H   0  0  0  0  0  0  0  0  0  0  0  0
  1  2  1  0
  2  3  1  0
  3  4  1  0
  4  5  1  0
  5  6  2  0
  6  7  1  0
  7  8  2  0
  8  9  1  0
  9 10  2  0
 10  5  1  0
  8 11  1  0
 11 12  2  0
 11 13  1  0
 13 14  1  0
 14 15  1  0
 14 16  1  0
  1 17  1  0
  1 18  1  0
  1 19  1  0
  2 20  1  0
  3 21  1  0
  4 22  1  0
  4 23  1  0
  6 24  1  0
  7 25  1  0
  9 26  1  0
 10 27  1  0
 13 28  1  0
 14 29  1  0
 15 30  1  0
 15 31  1  0
 15 32  1  0
 16 33  1  0
 16 34  1  0
 16 35  1  0
M  END
> <ID>
HT1745

> <Class>
1.0

> <Clusters>
15

> <Fold>
5

$$$$