
     RDKit          3D

 63 67  0  0  0  0  0  0  0  0999 V2000
   -5.4406    0.3619   -2.6336 O   0  0  0  0  0  0  0  0  0  0  0  0
   -5.8459   -0.1083   -1.5369 C   0  0  0  0  0  0  0  0  0  0  0  0
   -7.1453   -0.4042   -1.3054 N   0  0  0  0  0  0  0  0  0  0  0  0
   -5.0311   -0.3660   -0.4763 N   0  0  0  0  0  0  0  0  0  0  0  0
   -5.8777   -0.8451    0.4635 C   0  0  0  0  0  0  0  0  0  0  0  0
   -3.5782   -0.1503   -0.3672 C   0  0  0  0  0  0  0  0  0  0  0  0
   -5.6098   -1.2695    1.7697 C   0  0  0  0  0  0  0  0  0  0  0  0
   -7.1499   -0.8666   -0.0455 C   0  0  0  0  0  0  0  0  0  0  0  0
   -3.2338    1.3433   -0.5067 C   0  0  0  0  0  0  0  0  0  0  0  0
   -2.8129   -0.9924   -1.4049 C   0  0  0  0  0  0  0  0  0  0  0  0
   -6.6924   -1.7227    2.5473 C   0  0  0  0  0  0  0  0  0  0  0  0
   -8.2409   -1.3081    0.6993 C   0  0  0  0  0  0  0  0  0  0  0  0
   -1.7162    1.5445   -0.4572 C   0  0  0  0  0  0  0  0  0  0  0  0
   -1.3104   -0.6980   -1.3273 C   0  0  0  0  0  0  0  0  0  0  0  0
   -8.0009   -1.7415    2.0155 C   0  0  0  0  0  0  0  0  0  0  0  0
   -1.0745    0.7464   -1.5203 N   0  0  0  0  0  0  0  0  0  0  0  0
    0.3517    1.0874   -1.7222 C   0  0  0  0  0  0  0  0  0  0  0  0
    1.2745    0.6874   -0.5522 C   0  0  0  0  0  0  0  0  0  0  0  0
    2.7061    1.1949   -0.7870 C   0  0  0  0  0  0  0  0  0  0  0  0
    3.6581    0.7874    0.3629 C   0  0  0  0  0  0  0  0  0  0  0  0
    4.9713    1.5550    0.3481 C   0  0  0  0  0  0  0  0  0  0  0  0
    3.9183   -0.7091    0.3956 C   0  0  0  0  0  0  0  0  0  0  0  0
    5.6739    1.8115   -0.8474 C   0  0  0  0  0  0  0  0  0  0  0  0
    5.5282    1.9912    1.5654 C   0  0  0  0  0  0  0  0  0  0  0  0
    3.5586   -1.4583    1.5320 C   0  0  0  0  0  0  0  0  0  0  0  0
    4.5243   -1.3718   -0.6898 C   0  0  0  0  0  0  0  0  0  0  0  0
    6.8905    2.4997   -0.8212 C   0  0  0  0  0  0  0  0  0  0  0  0
    6.7460    2.6776    1.5858 C   0  0  0  0  0  0  0  0  0  0  0  0
    3.7969   -2.8351    1.5792 C   0  0  0  0  0  0  0  0  0  0  0  0
    4.7598   -2.7489   -0.6374 C   0  0  0  0  0  0  0  0  0  0  0  0
    7.4258    2.9335    0.3935 C   0  0  0  0  0  0  0  0  0  0  0  0
    4.3961   -3.4801    0.4952 C   0  0  0  0  0  0  0  0  0  0  0  0
    8.6062    3.6002    0.4153 F   0  0  0  0  0  0  0  0  0  0  0  0
    4.6268   -4.8150    0.5428 F   0  0  0  0  0  0  0  0  0  0  0  0
   -7.9561   -0.2920   -1.9531 H   0  0  0  0  0  0  0  0  0  0  0  0
   -3.2298   -0.4746    0.6353 H   0  0  0  0  0  0  0  0  0  0  0  0
   -4.6138   -1.2579    2.1871 H   0  0  0  0  0  0  0  0  0  0  0  0
   -3.6157    1.7461   -1.4684 H   0  0  0  0  0  0  0  0  0  0  0  0
   -3.7087    1.9137    0.3204 H   0  0  0  0  0  0  0  0  0  0  0  0
   -2.9880   -2.0717   -1.2071 H   0  0  0  0  0  0  0  0  0  0  0  0
   -3.1674   -0.7670   -2.4324 H   0  0  0  0  0  0  0  0  0  0  0  0
   -6.5208   -2.0586    3.5616 H   0  0  0  0  0  0  0  0  0  0  0  0
   -9.2391   -1.3152    0.2823 H   0  0  0  0  0  0  0  0  0  0  0  0
   -1.5010    2.6261   -0.6053 H   0  0  0  0  0  0  0  0  0  0  0  0
   -1.3445    1.2477    0.5480 H   0  0  0  0  0  0  0  0  0  0  0  0
   -0.9245   -1.0379   -0.3403 H   0  0  0  0  0  0  0  0  0  0  0  0
   -0.7953   -1.2786   -2.1233 H   0  0  0  0  0  0  0  0  0  0  0  0
   -8.8247   -2.0917    2.6242 H   0  0  0  0  0  0  0  0  0  0  0  0
    0.7099    0.5905   -2.6504 H   0  0  0  0  0  0  0  0  0  0  0  0
    0.4408    2.1815   -1.9044 H   0  0  0  0  0  0  0  0  0  0  0  0
    1.2968   -0.4184   -0.4596 H   0  0  0  0  0  0  0  0  0  0  0  0
    0.8998    1.1194    0.3981 H   0  0  0  0  0  0  0  0  0  0  0  0
    3.0740    0.8038   -1.7591 H   0  0  0  0  0  0  0  0  0  0  0  0
    2.6806    2.3052   -0.8548 H   0  0  0  0  0  0  0  0  0  0  0  0
    3.1316    1.0745    1.3022 H   0  0  0  0  0  0  0  0  0  0  0  0
    5.2872    1.4875   -1.8031 H   0  0  0  0  0  0  0  0  0  0  0  0
    5.0222    1.7937    2.5021 H   0  0  0  0  0  0  0  0  0  0  0  0
    3.0930   -0.9792    2.3839 H   0  0  0  0  0  0  0  0  0  0  0  0
    4.8149   -0.8299   -1.5789 H   0  0  0  0  0  0  0  0  0  0  0  0
    7.4189    2.6949   -1.7454 H   0  0  0  0  0  0  0  0  0  0  0  0
    7.1640    3.0083    2.5279 H   0  0  0  0  0  0  0  0  0  0  0  0
    3.5171   -3.4013    2.4585 H   0  0  0  0  0  0  0  0  0  0  0  0
    5.2259   -3.2498   -1.4762 H   0  0  0  0  0  0  0  0  0  0  0  0
  1  2  2  0
  2  3  1  0
  4  2  1  0
  5  4  1  0
  4  6  1  0
  7  5  1  0
  5  8  2  0
  6  9  1  0
 10  6  1  0
 11  7  2  0
  3  8  1  0
  8 12  1  0
  9 13  1  0
 14 10  1  0
 15 11  1  0
 12 15  2  0
 13 16  1  0
 16 14  1  0
 16 17  1  0
 17 18  1  0
 18 19  1  0
 19 20  1  0
 20 21  1  0
 20 22  1  0
 21 23  2  0
 24 21  1  0
 22 25  2  0
 26 22  1  0
 23 27  1  0
 28 24  2  0
 25 29  1  0
 30 26  2  0
 27 31  2  0
 31 28  1  0
 29 32  2  0
 32 30  1  0
 31 33  1  0
 32 34  1  0
  3 35  1  0
  6 36  1  0
  7 37  1  0
  9 38  1  0
  9 39  1  0
 10 40  1  0
 10 41  1  0
 11 42  1  0
 12 43  1  0
 13 44  1  0
 13 45  1  0
 14 46  1  0
 14 47  1  0
 15 48  1  0
 17 49  1  0
 17 50  1  0
 18 51  1  0
 18 52  1  0
 19 53  1  0
 19 54  1  0
 20 55  1  0
 23 56  1  0
 24 57  1  0
 25 58  1  0
 26 59  1  0
 27 60  1  0
 28 61  1  0
 29 62  1  0
 30 63  1  0
M  END
> <ID>
HT1674

> <Class>
1.0

> <Clusters>
198

> <Fold>
5

$$$$