
     RDKit          3D

 48 50  0  0  0  0  0  0  0  0999 V2000
    1.2246   -2.0329    1.3578 C   0  0  0  0  0  0  0  0  0  0  0  0
    1.5055   -0.7442    0.5700 C   0  0  0  0  0  0  0  0  0  0  0  0
    3.0287   -0.5533    0.3997 C   0  0  0  0  0  0  0  0  0  0  0  0
    3.3427    0.7314   -0.2686 N   0  0  0  0  0  0  0  0  0  0  0  0
    4.6655    0.6598   -0.9099 C   0  0  0  0  0  0  0  0  0  0  0  0
    3.3222    1.8537    0.6870 C   0  0  0  0  0  0  0  0  0  0  0  0
    0.7843   -0.7811   -0.8000 C   0  0  0  0  0  0  0  0  0  0  0  0
   -0.6141   -0.3256   -0.6790 N   0  0  0  0  0  0  0  0  0  0  0  0
   -1.7150   -1.2081   -0.9914 C   0  0  0  0  0  0  0  0  0  0  0  0
   -1.6277   -2.0013   -2.1540 C   0  0  0  0  0  0  0  0  0  0  0  0
   -2.6447   -2.8875   -2.5016 C   0  0  0  0  0  0  0  0  0  0  0  0
   -3.7797   -2.9895   -1.7067 C   0  0  0  0  0  0  0  0  0  0  0  0
   -3.9077   -2.1957   -0.5688 C   0  0  0  0  0  0  0  0  0  0  0  0
   -2.8930   -1.2965   -0.1845 C   0  0  0  0  0  0  0  0  0  0  0  0
   -3.2126   -0.4361    1.0306 C   0  0  0  0  0  0  0  0  0  0  0  0
   -2.0527    0.3026    1.6969 C   0  0  0  0  0  0  0  0  0  0  0  0
   -1.5424    1.3946    0.8051 C   0  0  0  0  0  0  0  0  0  0  0  0
   -1.7275    2.7466    1.1397 C   0  0  0  0  0  0  0  0  0  0  0  0
   -1.2414    3.7511    0.2988 C   0  0  0  0  0  0  0  0  0  0  0  0
   -0.5692    3.4134   -0.8776 C   0  0  0  0  0  0  0  0  0  0  0  0
   -0.3792    2.0707   -1.2137 C   0  0  0  0  0  0  0  0  0  0  0  0
   -0.8659    1.0554   -0.3740 C   0  0  0  0  0  0  0  0  0  0  0  0
    0.1329   -2.2185    1.4299 H   0  0  0  0  0  0  0  0  0  0  0  0
    1.6937   -2.9084    0.8596 H   0  0  0  0  0  0  0  0  0  0  0  0
    1.6327   -1.9474    2.3873 H   0  0  0  0  0  0  0  0  0  0  0  0
    1.1145    0.0972    1.1768 H   0  0  0  0  0  0  0  0  0  0  0  0
    3.5347   -0.6154    1.3908 H   0  0  0  0  0  0  0  0  0  0  0  0
    3.4057   -1.4100   -0.2056 H   0  0  0  0  0  0  0  0  0  0  0  0
    5.4611    0.4300   -0.1660 H   0  0  0  0  0  0  0  0  0  0  0  0
    4.6660   -0.1239   -1.6977 H   0  0  0  0  0  0  0  0  0  0  0  0
    4.9042    1.6218   -1.4131 H   0  0  0  0  0  0  0  0  0  0  0  0
    4.0572    1.7007    1.5087 H   0  0  0  0  0  0  0  0  0  0  0  0
    3.5616    2.8055    0.1653 H   0  0  0  0  0  0  0  0  0  0  0  0
    2.3103    1.9820    1.1216 H   0  0  0  0  0  0  0  0  0  0  0  0
    1.3050   -0.1427   -1.5437 H   0  0  0  0  0  0  0  0  0  0  0  0
    0.8414   -1.8153   -1.2021 H   0  0  0  0  0  0  0  0  0  0  0  0
   -0.7731   -1.9191   -2.8130 H   0  0  0  0  0  0  0  0  0  0  0  0
   -2.5556   -3.4900   -3.3967 H   0  0  0  0  0  0  0  0  0  0  0  0
   -4.5723   -3.6735   -1.9816 H   0  0  0  0  0  0  0  0  0  0  0  0
   -4.8171   -2.2760    0.0153 H   0  0  0  0  0  0  0  0  0  0  0  0
   -3.6665   -1.0881    1.8096 H   0  0  0  0  0  0  0  0  0  0  0  0
   -3.9918    0.3035    0.7417 H   0  0  0  0  0  0  0  0  0  0  0  0
   -2.4191    0.7327    2.6548 H   0  0  0  0  0  0  0  0  0  0  0  0
   -1.2393   -0.4030    1.9580 H   0  0  0  0  0  0  0  0  0  0  0  0
   -2.2486    3.0234    2.0476 H   0  0  0  0  0  0  0  0  0  0  0  0
   -1.3868    4.7916    0.5587 H   0  0  0  0  0  0  0  0  0  0  0  0
   -0.1935    4.1923   -1.5285 H   0  0  0  0  0  0  0  0  0  0  0  0
    0.1419    1.8231   -2.1292 H   0  0  0  0  0  0  0  0  0  0  0  0
  1  2  1  0
  2  3  1  0
  3  4  1  0
  4  5  1  0
  4  6  1  0
  2  7  1  0
  7  8  1  0
  8  9  1  0
  9 10  2  0
 10 11  1  0
 11 12  2  0
 12 13  1  0
 13 14  2  0
 14  9  1  0
 14 15  1  0
 15 16  1  0
 16 17  1  0
 17 18  2  0
 18 19  1  0
 19 20  2  0
 20 21  1  0
 21 22  2  0
 22  8  1  0
 22 17  1  0
  1 23  1  0
  1 24  1  0
  1 25  1  0
  2 26  1  0
  3 27  1  0
  3 28  1  0
  5 29  1  0
  5 30  1  0
  5 31  1  0
  6 32  1  0
  6 33  1  0
  6 34  1  0
  7 35  1  0
  7 36  1  0
 10 37  1  0
 11 38  1  0
 12 39  1  0
 13 40  1  0
 15 41  1  0
 15 42  1  0
 16 43  1  0
 16 44  1  0
 18 45  1  0
 19 46  1  0
 20 47  1  0
 21 48  1  0
M  END
> <ID>
HT2130

> <Class>
1.0

> <Clusters>
131

> <Fold>
5

$$$$