
     RDKit          3D

 43 44  0  0  0  0  0  0  0  0999 V2000
   -1.5983    1.8514    0.6915 O   0  0  0  0  0  0  0  0  0  0  0  0
   -0.5184    2.0645    0.0726 C   0  0  0  0  0  0  0  0  0  0  0  0
   -0.1886    1.2858   -1.1754 C   0  0  0  0  0  0  0  0  0  0  0  0
    0.4098    2.9869    0.5642 O   0  0  0  0  0  0  0  0  0  0  0  0
    0.2132    3.6957    1.7811 C   0  0  0  0  0  0  0  0  0  0  0  0
    0.2627   -0.1742   -0.8865 C   0  0  0  0  0  0  0  0  0  0  0  0
   -1.3836    1.2903   -2.0956 C   0  0  0  0  0  0  0  0  0  0  0  0
   -0.9218   -1.0955   -0.5951 C   0  0  0  0  0  0  0  0  0  0  0  0
    1.3660   -0.2091    0.1785 C   0  0  0  0  0  0  0  0  0  0  0  0
   -2.2528    0.3261   -2.0400 N   0  0  0  0  0  0  0  0  0  0  0  0
   -1.6462    2.4534   -3.0009 C   0  0  0  0  0  0  0  0  0  0  0  0
   -2.1069   -0.8355   -1.2049 C   0  0  0  0  0  0  0  0  0  0  0  0
   -0.6976   -2.3633    0.1461 C   0  0  0  0  0  0  0  0  0  0  0  0
    1.0194   -0.1401    1.5460 C   0  0  0  0  0  0  0  0  0  0  0  0
    2.7434   -0.2021   -0.1720 C   0  0  0  0  0  0  0  0  0  0  0  0
   -3.2892   -1.7584   -1.1068 C   0  0  0  0  0  0  0  0  0  0  0  0
    0.3896   -2.9870    0.0005 O   0  0  0  0  0  0  0  0  0  0  0  0
   -1.6715   -2.8472    1.0251 O   0  0  0  0  0  0  0  0  0  0  0  0
    2.0019   -0.0633    2.5332 C   0  0  0  0  0  0  0  0  0  0  0  0
    3.7168   -0.1055    0.8351 C   0  0  0  0  0  0  0  0  0  0  0  0
    3.1766   -0.2810   -1.5358 N   0  0  0  0  0  0  0  0  0  0  0  0
   -1.5011   -4.0430    1.7755 C   0  0  0  0  0  0  0  0  0  0  0  0
    3.3482   -0.0411    2.1783 C   0  0  0  0  0  0  0  0  0  0  0  0
    2.9216   -1.3011   -2.2083 O   0  0  0  0  0  0  0  0  0  0  0  0
    4.1365    0.5923   -1.9916 O   0  0  0  0  0  0  0  0  0  0  0  0
    0.6545    1.7992   -1.6896 H   0  0  0  0  0  0  0  0  0  0  0  0
   -0.7084    4.3122    1.7178 H   0  0  0  0  0  0  0  0  0  0  0  0
    0.1302    2.9804    2.6269 H   0  0  0  0  0  0  0  0  0  0  0  0
    1.0815    4.3626    1.9586 H   0  0  0  0  0  0  0  0  0  0  0  0
    0.6681   -0.5542   -1.8443 H   0  0  0  0  0  0  0  0  0  0  0  0
   -1.6635    2.1066   -4.0552 H   0  0  0  0  0  0  0  0  0  0  0  0
   -2.6279    2.9072   -2.7498 H   0  0  0  0  0  0  0  0  0  0  0  0
   -0.8599    3.2299   -2.8928 H   0  0  0  0  0  0  0  0  0  0  0  0
   -0.0191   -0.1298    1.8510 H   0  0  0  0  0  0  0  0  0  0  0  0
   -4.0827   -1.4421   -1.8165 H   0  0  0  0  0  0  0  0  0  0  0  0
   -3.7128   -1.7240   -0.0815 H   0  0  0  0  0  0  0  0  0  0  0  0
   -2.9959   -2.7980   -1.3651 H   0  0  0  0  0  0  0  0  0  0  0  0
    1.7171   -0.0086    3.5760 H   0  0  0  0  0  0  0  0  0  0  0  0
    4.7681   -0.0944    0.5756 H   0  0  0  0  0  0  0  0  0  0  0  0
   -0.6186   -3.9498    2.4433 H   0  0  0  0  0  0  0  0  0  0  0  0
   -2.4047   -4.2160    2.3952 H   0  0  0  0  0  0  0  0  0  0  0  0
   -1.3643   -4.9057    1.0896 H   0  0  0  0  0  0  0  0  0  0  0  0
    4.1086    0.0256    2.9456 H   0  0  0  0  0  0  0  0  0  0  0  0
  1  2  2  0
  2  3  1  0
  4  2  1  0
  5  4  1  0
  3  6  1  0
  7  3  1  0
  6  8  1  0
  6  9  1  0
 10  7  2  0
  7 11  1  0
  8 12  2  0
  8 13  1  0
  9 14  2  0
 15  9  1  0
 12 10  1  0
 12 16  1  0
 13 17  2  0
 13 18  1  0
 14 19  1  0
 20 15  2  0
 15 21  1  0
 18 22  1  0
 19 23  2  0
 23 20  1  0
 21 24  2  0
 21 25  1  0
  3 26  1  0
  5 27  1  0
  5 28  1  0
  5 29  1  0
  6 30  1  0
 11 31  1  0
 11 32  1  0
 11 33  1  0
 14 34  1  0
 16 35  1  0
 16 36  1  0
 16 37  1  0
 19 38  1  0
 20 39  1  0
 22 40  1  0
 22 41  1  0
 22 42  1  0
 23 43  1  0
M  CHG  2  21   1  25  -1
M  END
> <ID>
HT1489

> <Class>
1.0

> <Clusters>
102

> <Fold>
5

$$$$