
     RDKit          3D

 31 31  0  0  0  0  0  0  0  0999 V2000
   -3.0915   -1.2924    0.3586 C   0  0  0  0  0  0  0  0  0  0  0  0
   -2.7590    0.1088   -0.1704 C   0  0  0  0  0  0  0  0  0  0  0  0
   -3.0314    1.1898    0.8836 C   0  0  0  0  0  0  0  0  0  0  0  0
   -1.3370    0.1905   -0.7154 C   0  0  0  0  0  0  0  0  0  0  0  0
   -1.1618    0.4334   -2.0876 C   0  0  0  0  0  0  0  0  0  0  0  0
    0.1109    0.4862   -2.6439 C   0  0  0  0  0  0  0  0  0  0  0  0
    1.2353    0.3340   -1.8394 C   0  0  0  0  0  0  0  0  0  0  0  0
    1.1109    0.1438   -0.4485 C   0  0  0  0  0  0  0  0  0  0  0  0
    2.3639    0.0171    0.4162 C   0  0  0  0  0  0  0  0  0  0  0  0
    3.5077    0.9464   -0.0252 C   0  0  0  0  0  0  0  0  0  0  0  0
    2.8358   -1.4395    0.4546 C   0  0  0  0  0  0  0  0  0  0  0  0
   -0.1943    0.0114    0.1064 C   0  0  0  0  0  0  0  0  0  0  0  0
   -0.3850   -0.3125    1.4534 O   0  0  0  0  0  0  0  0  0  0  0  0
   -4.1771   -1.3612    0.5847 H   0  0  0  0  0  0  0  0  0  0  0  0
   -2.8498   -2.0572   -0.4102 H   0  0  0  0  0  0  0  0  0  0  0  0
   -2.5328   -1.5267    1.2872 H   0  0  0  0  0  0  0  0  0  0  0  0
   -3.4765    0.3017   -0.9996 H   0  0  0  0  0  0  0  0  0  0  0  0
   -2.4607    1.0080    1.8167 H   0  0  0  0  0  0  0  0  0  0  0  0
   -2.7579    2.1894    0.4832 H   0  0  0  0  0  0  0  0  0  0  0  0
   -4.1128    1.2035    1.1382 H   0  0  0  0  0  0  0  0  0  0  0  0
   -2.0164    0.5643   -2.7398 H   0  0  0  0  0  0  0  0  0  0  0  0
    0.2274    0.6491   -3.7078 H   0  0  0  0  0  0  0  0  0  0  0  0
    2.2044    0.3715   -2.3157 H   0  0  0  0  0  0  0  0  0  0  0  0
    2.1340    0.3392    1.4520 H   0  0  0  0  0  0  0  0  0  0  0  0
    4.2883    0.9827    0.7649 H   0  0  0  0  0  0  0  0  0  0  0  0
    3.9914    0.5878   -0.9580 H   0  0  0  0  0  0  0  0  0  0  0  0
    3.1271    1.9786   -0.1807 H   0  0  0  0  0  0  0  0  0  0  0  0
    3.7155   -1.5402    1.1256 H   0  0  0  0  0  0  0  0  0  0  0  0
    3.1185   -1.7848   -0.5631 H   0  0  0  0  0  0  0  0  0  0  0  0
    2.0273   -2.0955    0.8417 H   0  0  0  0  0  0  0  0  0  0  0  0
    0.3458   -0.6275    2.0755 H   0  0  0  0  0  0  0  0  0  0  0  0
  1  2  1  0
  2  3  1  0
  2  4  1  0
  4  5  2  0
  5  6  1  0
  6  7  2  0
  7  8  1  0
  8  9  1  0
  9 10  1  0
  9 11  1  0
  8 12  2  0
 12  4  1  0
 12 13  1  0
  1 14  1  0
  1 15  1  0
  1 16  1  0
  2 17  1  0
  3 18  1  0
  3 19  1  0
  3 20  1  0
  5 21  1  0
  6 22  1  0
  7 23  1  0
  9 24  1  0
 10 25  1  0
 10 26  1  0
 10 27  1  0
 11 28  1  0
 11 29  1  0
 11 30  1  0
 13 31  1  0
M  END
> <ID>
HT1762

> <Class>
1.0

> <Clusters>
208

> <Fold>
5

$$$$