
     RDKit          3D

 42 45  0  0  0  0  0  0  0  0999 V2000
    4.8733   -0.1811    0.1601 C   0  0  0  0  0  0  0  0  0  0  0  0
    3.7992   -1.1299    0.4992 N   0  0  0  0  0  0  0  0  0  0  0  0
    3.0381   -1.5743   -0.6891 C   0  0  0  0  0  0  0  0  0  0  0  0
    2.0841   -0.4933   -1.2139 C   0  0  0  0  0  0  0  0  0  0  0  0
    1.2621    0.0092   -0.1118 N   0  0  0  0  0  0  0  0  0  0  0  0
    1.9562    0.4670    1.0935 C   0  0  0  0  0  0  0  0  0  0  0  0
    2.9191   -0.6270    1.5768 C   0  0  0  0  0  0  0  0  0  0  0  0
   -0.1750   -0.0785   -0.1532 C   0  0  0  0  0  0  0  0  0  0  0  0
   -0.7107   -1.1646   -0.6322 N   0  0  0  0  0  0  0  0  0  0  0  0
   -2.0841   -1.5522   -0.8046 C   0  0  0  0  0  0  0  0  0  0  0  0
   -2.3467   -2.4992   -1.8062 C   0  0  0  0  0  0  0  0  0  0  0  0
   -3.6268   -3.0262   -1.9797 C   0  0  0  0  0  0  0  0  0  0  0  0
   -4.6614   -2.6323   -1.1351 C   0  0  0  0  0  0  0  0  0  0  0  0
   -4.4174   -1.7078   -0.1195 C   0  0  0  0  0  0  0  0  0  0  0  0
   -3.1380   -1.1514    0.0562 C   0  0  0  0  0  0  0  0  0  0  0  0
   -2.9539   -0.2048    1.1141 N   0  0  0  0  0  0  0  0  0  0  0  0
   -2.2104    0.9903    0.9102 C   0  0  0  0  0  0  0  0  0  0  0  0
   -2.6956    2.5070    1.4498 S   0  0  0  0  0  0  0  0  0  0  0  0
   -1.3518    3.3191    0.8493 C   0  0  0  0  0  0  0  0  0  0  0  0
   -1.0670    4.7695    1.0500 C   0  0  0  0  0  0  0  0  0  0  0  0
   -0.4914    2.4008    0.2594 C   0  0  0  0  0  0  0  0  0  0  0  0
   -0.9759    1.0813    0.2900 C   0  0  0  0  0  0  0  0  0  0  0  0
    5.5573   -0.6320   -0.5900 H   0  0  0  0  0  0  0  0  0  0  0  0
    5.4803    0.0441    1.0629 H   0  0  0  0  0  0  0  0  0  0  0  0
    4.4729    0.7702   -0.2469 H   0  0  0  0  0  0  0  0  0  0  0  0
    2.4430   -2.4735   -0.4177 H   0  0  0  0  0  0  0  0  0  0  0  0
    3.7316   -1.8846   -1.5012 H   0  0  0  0  0  0  0  0  0  0  0  0
    2.6618    0.3466   -1.6537 H   0  0  0  0  0  0  0  0  0  0  0  0
    1.4554   -0.9184   -2.0261 H   0  0  0  0  0  0  0  0  0  0  0  0
    2.5139    1.4005    0.8693 H   0  0  0  0  0  0  0  0  0  0  0  0
    1.2343    0.6917    1.9088 H   0  0  0  0  0  0  0  0  0  0  0  0
    2.3216   -1.4762    1.9750 H   0  0  0  0  0  0  0  0  0  0  0  0
    3.5254   -0.2401    2.4252 H   0  0  0  0  0  0  0  0  0  0  0  0
   -1.5462   -2.8362   -2.4534 H   0  0  0  0  0  0  0  0  0  0  0  0
   -3.8128   -3.7510   -2.7618 H   0  0  0  0  0  0  0  0  0  0  0  0
   -5.6530   -3.0468   -1.2638 H   0  0  0  0  0  0  0  0  0  0  0  0
   -5.2331   -1.4138    0.5293 H   0  0  0  0  0  0  0  0  0  0  0  0
   -3.6605   -0.1871    1.8841 H   0  0  0  0  0  0  0  0  0  0  0  0
   -0.4798    5.1648    0.1945 H   0  0  0  0  0  0  0  0  0  0  0  0
   -2.0186    5.3361    1.1230 H   0  0  0  0  0  0  0  0  0  0  0  0
   -0.4874    4.9059    1.9864 H   0  0  0  0  0  0  0  0  0  0  0  0
    0.4677    2.6782   -0.1591 H   0  0  0  0  0  0  0  0  0  0  0  0
  1  2  1  0
  2  3  1  0
  3  4  1  0
  4  5  1  0
  5  6  1  0
  6  7  1  0
  7  2  1  0
  5  8  1  0
  8  9  2  0
  9 10  1  0
 10 11  2  0
 11 12  1  0
 12 13  2  0
 13 14  1  0
 14 15  2  0
 15 10  1  0
 15 16  1  0
 16 17  1  0
 17 18  1  0
 18 19  1  0
 19 20  1  0
 19 21  2  0
 21 22  1  0
 22  8  1  0
 22 17  2  0
  1 23  1  0
  1 24  1  0
  1 25  1  0
  3 26  1  0
  3 27  1  0
  4 28  1  0
  4 29  1  0
  6 30  1  0
  6 31  1  0
  7 32  1  0
  7 33  1  0
 11 34  1  0
 12 35  1  0
 13 36  1  0
 14 37  1  0
 16 38  1  0
 20 39  1  0
 20 40  1  0
 20 41  1  0
 21 42  1  0
M  END
> <ID>
HT1535

> <Class>
1.0

> <Clusters>
150

> <Fold>
5

$$$$