
     RDKit          3D

 58 62  0  0  0  0  0  0  0  0999 V2000
   -2.5854   -2.9630    1.5769 C   0  0  0  0  0  0  0  0  0  0  0  0
   -3.2197   -1.7398    0.9818 C   0  0  0  0  0  0  0  0  0  0  0  0
   -2.4696   -0.7244    0.3586 C   0  0  0  0  0  0  0  0  0  0  0  0
   -0.9565   -0.7761    0.2771 C   0  0  0  0  0  0  0  0  0  0  0  0
   -0.3202   -0.0643    1.4926 C   0  0  0  0  0  0  0  0  0  0  0  0
    1.1436    0.1190    1.3838 N   0  0  0  0  0  0  0  0  0  0  0  0
    1.9161   -1.1345    1.1963 C   0  0  0  0  0  0  0  0  0  0  0  0
    2.4810   -1.2650   -0.2249 C   0  0  0  0  0  0  0  0  0  0  0  0
    3.4018   -0.0719   -0.5859 C   0  0  0  0  0  0  0  0  0  0  0  0
    3.0189    1.2177    0.1752 C   0  0  0  0  0  0  0  0  0  0  0  0
    1.5232    1.2442    0.4985 C   0  0  0  0  0  0  0  0  0  0  0  0
    4.8605   -0.3804   -0.3644 C   0  0  0  0  0  0  0  0  0  0  0  0
    5.3418   -1.3942    0.3988 N   0  0  0  0  0  0  0  0  0  0  0  0
    6.6461   -1.3310    0.3639 O   0  0  0  0  0  0  0  0  0  0  0  0
    7.0305   -0.3241   -0.3822 C   0  0  0  0  0  0  0  0  0  0  0  0
    8.3242    0.0935   -0.6822 C   0  0  0  0  0  0  0  0  0  0  0  0
    8.4702    1.2190   -1.5196 C   0  0  0  0  0  0  0  0  0  0  0  0
    9.7095    1.6637   -1.8422 F   0  0  0  0  0  0  0  0  0  0  0  0
    7.3305    1.8863   -2.0279 C   0  0  0  0  0  0  0  0  0  0  0  0
    6.0366    1.4354   -1.7042 C   0  0  0  0  0  0  0  0  0  0  0  0
    5.9329    0.3207   -0.8719 C   0  0  0  0  0  0  0  0  0  0  0  0
   -3.1656    0.3865   -0.1559 C   0  0  0  0  0  0  0  0  0  0  0  0
   -2.5142    1.3378   -0.6721 O   0  0  0  0  0  0  0  0  0  0  0  0
   -4.5356    0.4446   -0.1002 N   0  0  0  0  0  0  0  0  0  0  0  0
   -5.2241    1.6198   -0.6731 C   0  0  0  0  0  0  0  0  0  0  0  0
   -6.6894    1.3323   -1.0011 C   0  0  0  0  0  0  0  0  0  0  0  0
   -7.3818    0.7822    0.2353 C   0  0  0  0  0  0  0  0  0  0  0  0
   -6.7432   -0.5480    0.6534 C   0  0  0  0  0  0  0  0  0  0  0  0
   -7.1478   -0.8852    1.9559 O   0  0  0  0  0  0  0  0  0  0  0  0
   -5.2308   -0.5518    0.5435 C   0  0  0  0  0  0  0  0  0  0  0  0
   -4.5667   -1.6196    1.0519 N   0  0  0  0  0  0  0  0  0  0  0  0
   -2.0939   -3.5649    0.7816 H   0  0  0  0  0  0  0  0  0  0  0  0
   -3.3425   -3.5958    2.0759 H   0  0  0  0  0  0  0  0  0  0  0  0
   -1.8319   -2.6725    2.3324 H   0  0  0  0  0  0  0  0  0  0  0  0
   -0.6133   -1.8289    0.2191 H   0  0  0  0  0  0  0  0  0  0  0  0
   -0.6273   -0.3064   -0.6726 H   0  0  0  0  0  0  0  0  0  0  0  0
   -0.5369   -0.6480    2.4143 H   0  0  0  0  0  0  0  0  0  0  0  0
   -0.8040    0.9294    1.6357 H   0  0  0  0  0  0  0  0  0  0  0  0
    1.3127   -2.0328    1.4443 H   0  0  0  0  0  0  0  0  0  0  0  0
    2.7616   -1.1320    1.9140 H   0  0  0  0  0  0  0  0  0  0  0  0
    3.0084   -2.2368   -0.3352 H   0  0  0  0  0  0  0  0  0  0  0  0
    1.6332   -1.2933   -0.9401 H   0  0  0  0  0  0  0  0  0  0  0  0
    3.2704    0.1146   -1.6715 H   0  0  0  0  0  0  0  0  0  0  0  0
    3.5824    1.2885    1.1317 H   0  0  0  0  0  0  0  0  0  0  0  0
    3.2811    2.1081   -0.4353 H   0  0  0  0  0  0  0  0  0  0  0  0
    1.2907    2.2003    1.0130 H   0  0  0  0  0  0  0  0  0  0  0  0
    0.9525    1.2269   -0.4530 H   0  0  0  0  0  0  0  0  0  0  0  0
    9.1862   -0.4280   -0.2866 H   0  0  0  0  0  0  0  0  0  0  0  0
    7.4521    2.7487   -2.6722 H   0  0  0  0  0  0  0  0  0  0  0  0
    5.1595    1.9358   -2.0926 H   0  0  0  0  0  0  0  0  0  0  0  0
   -5.1615    2.4650    0.0484 H   0  0  0  0  0  0  0  0  0  0  0  0
   -4.7293    1.9375   -1.6179 H   0  0  0  0  0  0  0  0  0  0  0  0
   -7.1885    2.2718   -1.3214 H   0  0  0  0  0  0  0  0  0  0  0  0
   -6.7566    0.5991   -1.8354 H   0  0  0  0  0  0  0  0  0  0  0  0
   -8.4624    0.6245    0.0186 H   0  0  0  0  0  0  0  0  0  0  0  0
   -7.3037    1.5250    1.0613 H   0  0  0  0  0  0  0  0  0  0  0  0
   -7.1194   -1.3384   -0.0315 H   0  0  0  0  0  0  0  0  0  0  0  0
   -6.7363   -0.2269    2.5753 H   0  0  0  0  0  0  0  0  0  0  0  0
  1  2  1  0
  2  3  2  0
  3  4  1  0
  4  5  1  0
  5  6  1  0
  6  7  1  0
  7  8  1  0
  8  9  1  0
  9 10  1  0
 10 11  1  0
 11  6  1  0
  9 12  1  0
 12 13  2  0
 13 14  1  0
 14 15  1  0
 15 16  2  0
 16 17  1  0
 17 18  1  0
 17 19  2  0
 19 20  1  0
 20 21  2  0
 21 12  1  0
 21 15  1  0
  3 22  1  0
 22 23  2  0
 22 24  1  0
 24 25  1  0
 25 26  1  0
 26 27  1  0
 27 28  1  0
 28 29  1  0
 28 30  1  0
 30 24  1  0
 30 31  2  0
 31  2  1  0
  1 32  1  0
  1 33  1  0
  1 34  1  0
  4 35  1  0
  4 36  1  0
  5 37  1  0
  5 38  1  0
  7 39  1  0
  7 40  1  0
  8 41  1  0
  8 42  1  0
  9 43  1  0
 10 44  1  0
 10 45  1  0
 11 46  1  0
 11 47  1  0
 16 48  1  0
 19 49  1  0
 20 50  1  0
 25 51  1  0
 25 52  1  0
 26 53  1  0
 26 54  1  0
 27 55  1  0
 27 56  1  0
 28 57  1  0
 29 58  1  0
M  END
> <ID>
HT1582

> <Class>
1.0

> <Clusters>
213

> <Fold>
5

$$$$