
     RDKit          3D

 32 33  0  0  0  0  0  0  0  0999 V2000
   -3.8545   -0.5988    1.2257 C   0  0  0  0  0  0  0  0  0  0  0  0
   -3.0974   -0.3192   -0.0777 C   0  0  0  0  0  0  0  0  0  0  0  0
   -3.7189   -1.0689   -1.2614 C   0  0  0  0  0  0  0  0  0  0  0  0
   -3.0740    1.1193   -0.3469 N   0  0  0  0  0  0  0  0  0  0  0  0
   -1.7198    1.5487   -0.3631 C   0  0  0  0  0  0  0  0  0  0  0  0
   -1.3769    2.7335   -0.6174 O   0  0  0  0  0  0  0  0  0  0  0  0
   -0.8028    0.4940   -0.1150 N   0  0  0  0  0  0  0  0  0  0  0  0
   -1.6337   -0.6511    0.0631 C   0  0  0  0  0  0  0  0  0  0  0  0
   -1.1884   -1.7959    0.3466 O   0  0  0  0  0  0  0  0  0  0  0  0
    0.6331    0.5634   -0.0625 C   0  0  0  0  0  0  0  0  0  0  0  0
    1.2666    1.6668    0.5195 C   0  0  0  0  0  0  0  0  0  0  0  0
    2.6573    1.7256    0.5904 C   0  0  0  0  0  0  0  0  0  0  0  0
    3.4503    0.6859    0.0772 C   0  0  0  0  0  0  0  0  0  0  0  0
    2.8225   -0.4151   -0.5652 C   0  0  0  0  0  0  0  0  0  0  0  0
    1.4142   -0.4715   -0.5972 C   0  0  0  0  0  0  0  0  0  0  0  0
    3.6220   -1.5355   -1.2015 C   0  0  0  0  0  0  0  0  0  0  0  0
    4.0452   -2.4143   -0.2219 F   0  0  0  0  0  0  0  0  0  0  0  0
    4.7204   -1.0276   -1.8725 F   0  0  0  0  0  0  0  0  0  0  0  0
    2.8609   -2.2379   -2.1207 F   0  0  0  0  0  0  0  0  0  0  0  0
    4.8784    0.7650    0.2265 N   0  0  0  0  0  0  0  0  0  0  0  0
    5.4523    1.8724    0.1690 O   0  0  0  0  0  0  0  0  0  0  0  0
    5.5959   -0.3309    0.6459 O   0  0  0  0  0  0  0  0  0  0  0  0
   -4.9133   -0.2759    1.1311 H   0  0  0  0  0  0  0  0  0  0  0  0
   -3.8331   -1.6843    1.4627 H   0  0  0  0  0  0  0  0  0  0  0  0
   -3.3922   -0.0416    2.0691 H   0  0  0  0  0  0  0  0  0  0  0  0
   -3.6909   -2.1656   -1.0848 H   0  0  0  0  0  0  0  0  0  0  0  0
   -4.7763   -0.7573   -1.4005 H   0  0  0  0  0  0  0  0  0  0  0  0
   -3.1617   -0.8453   -2.1968 H   0  0  0  0  0  0  0  0  0  0  0  0
   -3.9064    1.7266   -0.5191 H   0  0  0  0  0  0  0  0  0  0  0  0
    0.6842    2.4696    0.9523 H   0  0  0  0  0  0  0  0  0  0  0  0
    3.1198    2.5756    1.0764 H   0  0  0  0  0  0  0  0  0  0  0  0
    0.9169   -1.3098   -1.0665 H   0  0  0  0  0  0  0  0  0  0  0  0
  1  2  1  0
  2  3  1  0
  2  4  1  0
  4  5  1  0
  5  6  2  0
  5  7  1  0
  7  8  1  0
  8  2  1  0
  8  9  2  0
  7 10  1  0
 10 11  2  0
 11 12  1  0
 12 13  2  0
 13 14  1  0
 14 15  2  0
 15 10  1  0
 14 16  1  0
 16 17  1  0
 16 18  1  0
 16 19  1  0
 13 20  1  0
 20 21  2  0
 20 22  1  0
  1 23  1  0
  1 24  1  0
  1 25  1  0
  3 26  1  0
  3 27  1  0
  3 28  1  0
  4 29  1  0
 11 30  1  0
 12 31  1  0
 15 32  1  0
M  CHG  2  20   1  22  -1
M  END
> <ID>
HT1493

> <Class>
1.0

> <Clusters>
108

> <Fold>
5

$$$$