
     RDKit          3D

 38 39  0  0  0  0  0  0  0  0999 V2000
   -3.5730    2.4803   -1.0619 C   0  0  0  0  0  0  0  0  0  0  0  0
   -2.7967    1.4277   -0.3922 N   0  0  0  0  0  0  0  0  0  0  0  0
   -1.5820    1.6734    0.2149 C   0  0  0  0  0  0  0  0  0  0  0  0
   -1.0979    2.8401    0.1938 O   0  0  0  0  0  0  0  0  0  0  0  0
   -0.8846    0.6525    0.8435 N   0  0  0  0  0  0  0  0  0  0  0  0
    0.4249    0.9270    1.4675 C   0  0  0  0  0  0  0  0  0  0  0  0
    1.5496    0.7452    0.4429 C   0  0  0  0  0  0  0  0  0  0  0  0
    2.9223    1.0229    1.0732 C   0  0  0  0  0  0  0  0  0  0  0  0
    4.0692    0.8524    0.0620 C   0  0  0  0  0  0  0  0  0  0  0  0
    4.3799   -0.5856   -0.2871 C   0  0  0  0  0  0  0  0  0  0  0  0
    3.8071   -1.5090    0.2727 O   0  0  0  0  0  0  0  0  0  0  0  0
    5.4190   -0.8961   -1.3208 C   0  0  0  0  0  0  0  0  0  0  0  0
   -1.3838   -0.6313    0.8399 C   0  0  0  0  0  0  0  0  0  0  0  0
   -0.7503   -1.5818    1.3757 O   0  0  0  0  0  0  0  0  0  0  0  0
   -2.6068   -0.8589    0.2241 C   0  0  0  0  0  0  0  0  0  0  0  0
   -3.2767    0.1560   -0.3658 C   0  0  0  0  0  0  0  0  0  0  0  0
   -4.4313   -0.2813   -0.9081 N   0  0  0  0  0  0  0  0  0  0  0  0
   -4.4190   -1.6075   -0.6124 C   0  0  0  0  0  0  0  0  0  0  0  0
   -3.3166   -1.9899    0.0783 N   0  0  0  0  0  0  0  0  0  0  0  0
   -2.9928   -3.3351    0.5421 C   0  0  0  0  0  0  0  0  0  0  0  0
   -3.0750    3.4706   -1.0111 H   0  0  0  0  0  0  0  0  0  0  0  0
   -4.5700    2.5739   -0.5809 H   0  0  0  0  0  0  0  0  0  0  0  0
   -3.7103    2.2203   -2.1332 H   0  0  0  0  0  0  0  0  0  0  0  0
    0.5936    0.2515    2.3352 H   0  0  0  0  0  0  0  0  0  0  0  0
    0.4532    1.9593    1.8807 H   0  0  0  0  0  0  0  0  0  0  0  0
    1.3850    1.4445   -0.4058 H   0  0  0  0  0  0  0  0  0  0  0  0
    1.5144   -0.2927    0.0491 H   0  0  0  0  0  0  0  0  0  0  0  0
    3.0874    0.3593    1.9505 H   0  0  0  0  0  0  0  0  0  0  0  0
    2.9380    2.0723    1.4410 H   0  0  0  0  0  0  0  0  0  0  0  0
    4.9878    1.3057    0.4927 H   0  0  0  0  0  0  0  0  0  0  0  0
    3.8275    1.4108   -0.8685 H   0  0  0  0  0  0  0  0  0  0  0  0
    6.2285   -1.5036   -0.8645 H   0  0  0  0  0  0  0  0  0  0  0  0
    4.9572   -1.4689   -2.1520 H   0  0  0  0  0  0  0  0  0  0  0  0
    5.8609    0.0364   -1.7315 H   0  0  0  0  0  0  0  0  0  0  0  0
   -5.2109   -2.2857   -0.9034 H   0  0  0  0  0  0  0  0  0  0  0  0
   -2.0447   -3.6743    0.0745 H   0  0  0  0  0  0  0  0  0  0  0  0
   -3.8005   -4.0460    0.2658 H   0  0  0  0  0  0  0  0  0  0  0  0
   -2.8827   -3.3343    1.6467 H   0  0  0  0  0  0  0  0  0  0  0  0
  1  2  1  0
  2  3  1  0
  3  4  2  0
  3  5  1  0
  5  6  1  0
  6  7  1  0
  7  8  1  0
  8  9  1  0
  9 10  1  0
 10 11  2  0
 10 12  1  0
  5 13  1  0
 13 14  2  0
 13 15  1  0
 15 16  2  0
 16  2  1  0
 16 17  1  0
 17 18  2  0
 18 19  1  0
 19 15  1  0
 19 20  1  0
  1 21  1  0
  1 22  1  0
  1 23  1  0
  6 24  1  0
  6 25  1  0
  7 26  1  0
  7 27  1  0
  8 28  1  0
  8 29  1  0
  9 30  1  0
  9 31  1  0
 12 32  1  0
 12 33  1  0
 12 34  1  0
 18 35  1  0
 20 36  1  0
 20 37  1  0
 20 38  1  0
M  END
> <ID>
HT1627

> <Class>
1.0

> <Clusters>
259

> <Fold>
5

$$$$