
     RDKit          3D

 47 48  0  0  0  0  0  0  0  0999 V2000
   -1.3955    1.6642    1.5967 C   0  0  0  0  0  0  0  0  0  0  0  0
   -1.4651    1.2874    0.1729 N   0  0  0  0  0  0  0  0  0  0  0  0
   -0.4436    1.9869   -0.6371 C   0  0  0  0  0  0  0  0  0  0  0  0
    0.9681    1.5872   -0.2801 C   0  0  0  0  0  0  0  0  0  0  0  0
    1.7463    0.9245   -1.1367 C   0  0  0  0  0  0  0  0  0  0  0  0
    3.0847    0.5509   -0.7692 C   0  0  0  0  0  0  0  0  0  0  0  0
    4.2067    0.2369   -0.4586 C   0  0  0  0  0  0  0  0  0  0  0  0
    5.5781   -0.1470   -0.0761 C   0  0  0  0  0  0  0  0  0  0  0  0
    6.0172   -1.3510   -0.9253 C   0  0  0  0  0  0  0  0  0  0  0  0
    5.5953   -0.5235    1.4145 C   0  0  0  0  0  0  0  0  0  0  0  0
    6.5199    1.0421   -0.3266 C   0  0  0  0  0  0  0  0  0  0  0  0
   -1.4084   -0.1788   -0.0096 C   0  0  0  0  0  0  0  0  0  0  0  0
   -2.7164   -0.8202    0.4049 C   0  0  0  0  0  0  0  0  0  0  0  0
   -2.7188   -1.6742    1.5219 C   0  0  0  0  0  0  0  0  0  0  0  0
   -3.8969   -2.2788    1.9577 C   0  0  0  0  0  0  0  0  0  0  0  0
   -5.0960   -2.0464    1.2884 C   0  0  0  0  0  0  0  0  0  0  0  0
   -5.1282   -1.2054    0.1681 C   0  0  0  0  0  0  0  0  0  0  0  0
   -6.3406   -0.9796   -0.5028 C   0  0  0  0  0  0  0  0  0  0  0  0
   -6.3813   -0.1481   -1.6221 C   0  0  0  0  0  0  0  0  0  0  0  0
   -5.2158    0.4628   -2.0832 C   0  0  0  0  0  0  0  0  0  0  0  0
   -4.0006    0.2496   -1.4278 C   0  0  0  0  0  0  0  0  0  0  0  0
   -3.9342   -0.5833   -0.2895 C   0  0  0  0  0  0  0  0  0  0  0  0
   -1.3797    2.7698    1.7065 H   0  0  0  0  0  0  0  0  0  0  0  0
   -2.2985    1.2980    2.1289 H   0  0  0  0  0  0  0  0  0  0  0  0
   -0.4956    1.2366    2.0893 H   0  0  0  0  0  0  0  0  0  0  0  0
   -0.6471    1.7996   -1.7150 H   0  0  0  0  0  0  0  0  0  0  0  0
   -0.5442    3.0854   -0.5018 H   0  0  0  0  0  0  0  0  0  0  0  0
    1.3521    1.8556    0.6974 H   0  0  0  0  0  0  0  0  0  0  0  0
    1.3808    0.6469   -2.1173 H   0  0  0  0  0  0  0  0  0  0  0  0
    7.0499   -1.6618   -0.6565 H   0  0  0  0  0  0  0  0  0  0  0  0
    6.0003   -1.0951   -2.0074 H   0  0  0  0  0  0  0  0  0  0  0  0
    5.3383   -2.2161   -0.7606 H   0  0  0  0  0  0  0  0  0  0  0  0
    4.9106   -1.3772    1.6117 H   0  0  0  0  0  0  0  0  0  0  0  0
    6.6196   -0.8175    1.7305 H   0  0  0  0  0  0  0  0  0  0  0  0
    5.2703    0.3363    2.0403 H   0  0  0  0  0  0  0  0  0  0  0  0
    6.5100    1.3312   -1.4003 H   0  0  0  0  0  0  0  0  0  0  0  0
    7.5627    0.7794   -0.0457 H   0  0  0  0  0  0  0  0  0  0  0  0
    6.2078    1.9236    0.2751 H   0  0  0  0  0  0  0  0  0  0  0  0
   -0.5526   -0.6067    0.5607 H   0  0  0  0  0  0  0  0  0  0  0  0
   -1.2238   -0.4381   -1.0757 H   0  0  0  0  0  0  0  0  0  0  0  0
   -1.8036   -1.8683    2.0676 H   0  0  0  0  0  0  0  0  0  0  0  0
   -3.8803   -2.9301    2.8221 H   0  0  0  0  0  0  0  0  0  0  0  0
   -5.9996   -2.5260    1.6460 H   0  0  0  0  0  0  0  0  0  0  0  0
   -7.2566   -1.4474   -0.1617 H   0  0  0  0  0  0  0  0  0  0  0  0
   -7.3191    0.0216   -2.1353 H   0  0  0  0  0  0  0  0  0  0  0  0
   -5.2532    1.1044   -2.9542 H   0  0  0  0  0  0  0  0  0  0  0  0
   -3.1232    0.7397   -1.8249 H   0  0  0  0  0  0  0  0  0  0  0  0
  1  2  1  0
  2  3  1  0
  3  4  1  0
  4  5  2  0
  5  6  1  0
  6  7  3  0
  7  8  1  0
  8  9  1  0
  8 10  1  0
  8 11  1  0
  2 12  1  0
 12 13  1  0
 13 14  2  0
 14 15  1  0
 15 16  2  0
 16 17  1  0
 17 18  2  0
 18 19  1  0
 19 20  2  0
 20 21  1  0
 21 22  2  0
 22 13  1  0
 22 17  1  0
  1 23  1  0
  1 24  1  0
  1 25  1  0
  3 26  1  0
  3 27  1  0
  4 28  1  0
  5 29  1  0
  9 30  1  0
  9 31  1  0
  9 32  1  0
 10 33  1  0
 10 34  1  0
 10 35  1  0
 11 36  1  0
 11 37  1  0
 11 38  1  0
 12 39  1  0
 12 40  1  0
 14 41  1  0
 15 42  1  0
 16 43  1  0
 18 44  1  0
 19 45  1  0
 20 46  1  0
 21 47  1  0
M  END
> <ID>
HT2008

> <Class>
1.0

> <Clusters>
39

> <Fold>
5

$$$$