
     RDKit          3D

 42 43  0  0  0  0  0  0  0  0999 V2000
   -1.0299    0.4532    0.5882 C   0  0  0  0  0  0  0  0  0  0  0  0
   -0.8836    0.1121   -0.9097 C   0  0  2  0  0  0  0  0  0  0  0  0
    0.3146    0.7698   -1.4727 N   0  0  0  0  0  0  0  0  0  0  0  0
    1.5800    0.1932   -0.9806 C   0  0  0  0  0  0  0  0  0  0  0  0
    2.3209    1.2313   -0.1338 C   0  0  0  0  0  0  0  0  0  0  0  0
    3.6219    0.6787    0.3887 C   0  0  0  0  0  0  0  0  0  0  0  0
    4.8485    1.1439   -0.1141 C   0  0  0  0  0  0  0  0  0  0  0  0
    6.0526    0.6307    0.3780 C   0  0  0  0  0  0  0  0  0  0  0  0
    6.0451   -0.3472    1.3778 C   0  0  0  0  0  0  0  0  0  0  0  0
    7.2524   -0.8493    1.8582 O   0  0  0  0  0  0  0  0  0  0  0  0
    4.8248   -0.8115    1.8869 C   0  0  0  0  0  0  0  0  0  0  0  0
    3.6194   -0.3003    1.3966 C   0  0  0  0  0  0  0  0  0  0  0  0
   -2.1444    0.5182   -1.7351 C   0  0  2  0  0  0  0  0  0  0  0  0
   -2.2558    1.9162   -1.8689 O   0  0  0  0  0  0  0  0  0  0  0  0
   -3.4274   -0.1215   -1.2208 C   0  0  0  0  0  0  0  0  0  0  0  0
   -4.4868    0.6423   -0.6890 C   0  0  0  0  0  0  0  0  0  0  0  0
   -5.6484    0.0172   -0.2252 C   0  0  0  0  0  0  0  0  0  0  0  0
   -5.7744   -1.3756   -0.2907 C   0  0  0  0  0  0  0  0  0  0  0  0
   -6.9274   -2.0075    0.1696 O   0  0  0  0  0  0  0  0  0  0  0  0
   -4.7346   -2.1401   -0.8250 C   0  0  0  0  0  0  0  0  0  0  0  0
   -3.5716   -1.5197   -1.2895 C   0  0  0  0  0  0  0  0  0  0  0  0
   -0.2186   -0.0267    1.1734 H   0  0  0  0  0  0  0  0  0  0  0  0
   -1.9884    0.0718    0.9962 H   0  0  0  0  0  0  0  0  0  0  0  0
   -0.9733    1.5486    0.7565 H   0  0  0  0  0  0  0  0  0  0  0  0
   -0.7742   -0.9928   -1.0002 H   0  0  0  0  0  0  0  0  0  0  0  0
    0.3003    0.6523   -2.5137 H   0  0  0  0  0  0  0  0  0  0  0  0
    2.2300   -0.0832   -1.8425 H   0  0  0  0  0  0  0  0  0  0  0  0
    1.4216   -0.7386   -0.3927 H   0  0  0  0  0  0  0  0  0  0  0  0
    1.6903    1.5480    0.7242 H   0  0  0  0  0  0  0  0  0  0  0  0
    2.5044    2.1337   -0.7576 H   0  0  0  0  0  0  0  0  0  0  0  0
    4.8744    1.8994   -0.8896 H   0  0  0  0  0  0  0  0  0  0  0  0
    6.9926    0.9934   -0.0180 H   0  0  0  0  0  0  0  0  0  0  0  0
    7.2804   -1.5579    2.5821 H   0  0  0  0  0  0  0  0  0  0  0  0
    4.8094   -1.5663    2.6627 H   0  0  0  0  0  0  0  0  0  0  0  0
    2.6842   -0.6644    1.8039 H   0  0  0  0  0  0  0  0  0  0  0  0
   -1.9991    0.1229   -2.7646 H   0  0  0  0  0  0  0  0  0  0  0  0
   -2.2408    2.3187   -0.9638 H   0  0  0  0  0  0  0  0  0  0  0  0
   -4.4269    1.7198   -0.6246 H   0  0  0  0  0  0  0  0  0  0  0  0
   -6.4510    0.6174    0.1843 H   0  0  0  0  0  0  0  0  0  0  0  0
   -7.6992   -1.4808    0.5619 H   0  0  0  0  0  0  0  0  0  0  0  0
   -4.8284   -3.2172   -0.8827 H   0  0  0  0  0  0  0  0  0  0  0  0
   -2.7831   -2.1322   -1.7084 H   0  0  0  0  0  0  0  0  0  0  0  0
  2  1  1  0
  2  3  1  0
  3  4  1  0
  4  5  1  0
  5  6  1  0
  6  7  2  0
  7  8  1  0
  8  9  2  0
  9 10  1  0
  9 11  1  0
 11 12  2  0
 12  6  1  0
  2 13  1  0
 13 14  1  0
 13 15  1  0
 15 16  2  0
 16 17  1  0
 17 18  2  0
 18 19  1  0
 18 20  1  0
 20 21  2  0
 21 15  1  0
  1 22  1  0
  1 23  1  0
  1 24  1  0
  2 25  1  1
  3 26  1  0
  4 27  1  0
  4 28  1  0
  5 29  1  0
  5 30  1  0
  7 31  1  0
  8 32  1  0
 10 33  1  0
 11 34  1  0
 12 35  1  0
 13 36  1  6
 14 37  1  0
 16 38  1  0
 17 39  1  0
 19 40  1  0
 20 41  1  0
 21 42  1  0
M  END
> <ID>
HT1832

> <Class>
1.0

> <Clusters>
265

> <Fold>
5

$$$$