
     RDKit          3D

 41 43  0  0  0  0  0  0  0  0999 V2000
   -2.3287    0.0089   -1.2915 C   0  0  0  0  0  0  0  0  0  0  0  0
   -2.6591    0.7772    0.0013 C   0  0  0  0  0  0  0  0  0  0  0  0
   -3.7035    1.8618   -0.3271 C   0  0  0  0  0  0  0  0  0  0  0  0
   -1.0946    1.5939    0.5781 S   0  0  0  0  0  0  0  0  0  0  0  0
   -0.8231    0.3852    1.9290 C   0  0  2  0  0  0  0  0  0  0  0  0
    0.1852   -0.6397    1.7675 C   0  0  2  0  0  0  0  0  0  0  0  0
    0.9244   -0.5771    0.5042 N   0  0  0  0  0  0  0  0  0  0  0  0
    2.0246    0.3277    0.3196 C   0  0  0  0  0  0  0  0  0  0  0  0
    2.3786    1.0869    1.2627 O   0  0  0  0  0  0  0  0  0  0  0  0
    2.7970    0.3596   -0.9744 C   0  0  2  0  0  0  0  0  0  0  0  0
    1.8767    0.2571   -2.1686 C   0  0  0  0  0  0  0  0  0  0  0  0
    1.9156   -0.7416   -2.9365 O   0  0  0  0  0  0  0  0  0  0  0  0
    0.9634    1.2741   -2.4316 O   0  0  0  0  0  0  0  0  0  0  0  0
    3.8790   -0.6979   -0.9712 C   0  0  0  0  0  0  0  0  0  0  0  0
    5.2424   -0.3911   -1.1211 C   0  0  0  0  0  0  0  0  0  0  0  0
    6.0725   -1.5022   -1.0883 C   0  0  0  0  0  0  0  0  0  0  0  0
    5.1139   -2.8641   -0.8741 S   0  0  0  0  0  0  0  0  0  0  0  0
    3.6383   -2.0638   -0.8197 C   0  0  0  0  0  0  0  0  0  0  0  0
   -0.9270   -1.6399    1.7156 C   0  0  0  0  0  0  0  0  0  0  0  0
   -0.9987   -2.8885    1.5755 O   0  0  0  0  0  0  0  0  0  0  0  0
   -1.9119   -0.5378    1.8197 N   0  0  0  0  0  0  0  0  0  0  0  0
   -3.1213   -0.2315    1.1022 C   0  0  1  0  0  0  0  0  0  0  0  0
   -4.1276    0.3226    2.0752 C   0  0  0  0  0  0  0  0  0  0  0  0
   -5.2881   -0.1656    2.1260 O   0  0  0  0  0  0  0  0  0  0  0  0
   -3.7801    1.3710    2.9233 O   0  0  0  0  0  0  0  0  0  0  0  0
   -3.2429   -0.4673   -1.7069 H   0  0  0  0  0  0  0  0  0  0  0  0
   -1.9107    0.6950   -2.0594 H   0  0  0  0  0  0  0  0  0  0  0  0
   -1.5797   -0.7865   -1.0961 H   0  0  0  0  0  0  0  0  0  0  0  0
   -3.8629    2.5362    0.5399 H   0  0  0  0  0  0  0  0  0  0  0  0
   -3.3579    2.4909   -1.1756 H   0  0  0  0  0  0  0  0  0  0  0  0
   -4.6730    1.3954   -0.6050 H   0  0  0  0  0  0  0  0  0  0  0  0
   -0.8068    0.8652    2.9322 H   0  0  0  0  0  0  0  0  0  0  0  0
    0.8433   -0.7895    2.6511 H   0  0  0  0  0  0  0  0  0  0  0  0
    0.6895   -1.2518   -0.2583 H   0  0  0  0  0  0  0  0  0  0  0  0
    3.2887    1.3550   -1.0507 H   0  0  0  0  0  0  0  0  0  0  0  0
    0.9060    2.0931   -1.8384 H   0  0  0  0  0  0  0  0  0  0  0  0
    5.6183    0.6155   -1.2503 H   0  0  0  0  0  0  0  0  0  0  0  0
    7.1497   -1.4903   -1.1847 H   0  0  0  0  0  0  0  0  0  0  0  0
    2.6739   -2.5355   -0.6944 H   0  0  0  0  0  0  0  0  0  0  0  0
   -3.5331   -1.1624    0.6512 H   0  0  0  0  0  0  0  0  0  0  0  0
   -4.4501    1.7516    3.5806 H   0  0  0  0  0  0  0  0  0  0  0  0
  1  2  1  0
  2  3  1  0
  2  4  1  0
  5  4  1  0
  5  6  1  0
  6  7  1  0
  7  8  1  0
  8  9  2  0
  8 10  1  0
 10 11  1  0
 11 12  2  0
 11 13  1  0
 10 14  1  0
 14 15  1  0
 15 16  2  0
 16 17  1  0
 17 18  1  0
 18 14  2  0
  6 19  1  0
 19 20  2  0
 19 21  1  0
 21  5  1  0
 21 22  1  0
 22  2  1  0
 22 23  1  0
 23 24  2  0
 23 25  1  0
  1 26  1  0
  1 27  1  0
  1 28  1  0
  3 29  1  0
  3 30  1  0
  3 31  1  0
  5 32  1  1
  6 33  1  1
  7 34  1  0
 10 35  1  6
 13 36  1  0
 15 37  1  0
 16 38  1  0
 18 39  1  0
 22 40  1  6
 25 41  1  0
M  END
> <ID>
HT2057

> <Class>
1.0

> <Clusters>
18

> <Fold>
5

$$$$