
     RDKit          3D

 15 14  0  0  0  0  0  0  0  0999 V2000
   -1.8168    1.1970    0.0581 O   0  0  0  0  0  0  0  0  0  0  0  0
   -1.3020    0.1795   -0.7581 C   0  0  0  0  0  0  0  0  0  0  0  0
   -0.6150   -0.9056    0.0830 C   0  0  0  0  0  0  0  0  0  0  0  0
    0.5730   -0.3701    0.8966 C   0  0  0  0  0  0  0  0  0  0  0  0
    1.6983    0.0837    0.0171 C   0  0  0  0  0  0  0  0  0  0  0  0
    2.2975   -0.7430   -0.7218 O   0  0  0  0  0  0  0  0  0  0  0  0
    2.0876    1.4194    0.0234 O   0  0  0  0  0  0  0  0  0  0  0  0
   -2.6292    0.8280    0.4935 H   0  0  0  0  0  0  0  0  0  0  0  0
   -2.1196   -0.2793   -1.3590 H   0  0  0  0  0  0  0  0  0  0  0  0
   -0.5766    0.6227   -1.4725 H   0  0  0  0  0  0  0  0  0  0  0  0
   -0.2718   -1.7244   -0.5864 H   0  0  0  0  0  0  0  0  0  0  0  0
   -1.3597   -1.3424    0.7833 H   0  0  0  0  0  0  0  0  0  0  0  0
    0.9481   -1.1763    1.5628 H   0  0  0  0  0  0  0  0  0  0  0  0
    0.2392    0.4690    1.5444 H   0  0  0  0  0  0  0  0  0  0  0  0
    2.8470    1.7419   -0.5643 H   0  0  0  0  0  0  0  0  0  0  0  0
  1  2  1  0
  2  3  1  0
  3  4  1  0
  4  5  1  0
  5  6  2  0
  5  7  1  0
  1  8  1  0
  2  9  1  0
  2 10  1  0
  3 11  1  0
  3 12  1  0
  4 13  1  0
  4 14  1  0
  7 15  1  0
M  END
> <ID>
HT1898

> <Class>
1.0

> <Clusters>
243

> <Fold>
5

$$$$