
     RDKit          3D

 38 39  0  0  0  0  0  0  0  0999 V2000
    3.6553   -0.6687    1.0973 C   0  0  0  0  0  0  0  0  0  0  0  0
    3.2486   -0.8117   -0.3123 N   0  0  0  0  0  0  0  0  0  0  0  0
    4.3571   -0.3887   -1.1837 C   0  0  0  0  0  0  0  0  0  0  0  0
    2.0365   -0.0130   -0.5993 C   0  0  0  0  0  0  0  0  0  0  0  0
    0.7696   -0.8015   -0.2268 C   0  0  0  0  0  0  0  0  0  0  0  0
   -0.5232   -0.0499   -0.6233 C   0  0  1  0  0  0  0  0  0  0  0  0
   -1.7677   -0.9109   -0.4747 C   0  0  0  0  0  0  0  0  0  0  0  0
   -2.0430   -1.6192    0.7127 C   0  0  0  0  0  0  0  0  0  0  0  0
   -3.2040   -2.3894    0.8270 C   0  0  0  0  0  0  0  0  0  0  0  0
   -4.1068   -2.4617   -0.2366 C   0  0  0  0  0  0  0  0  0  0  0  0
   -5.6923   -3.5142   -0.0759 Br  0  0  0  0  0  0  0  0  0  0  0  0
   -3.8483   -1.7619   -1.4176 C   0  0  0  0  0  0  0  0  0  0  0  0
   -2.6886   -0.9906   -1.5370 C   0  0  0  0  0  0  0  0  0  0  0  0
   -0.6931    1.2691    0.1022 C   0  0  0  0  0  0  0  0  0  0  0  0
   -0.6757    1.3597    1.5063 C   0  0  0  0  0  0  0  0  0  0  0  0
   -0.8397    2.6044    2.1170 C   0  0  0  0  0  0  0  0  0  0  0  0
   -1.0201    3.7451    1.3349 C   0  0  0  0  0  0  0  0  0  0  0  0
   -1.0329    3.6232   -0.0550 C   0  0  0  0  0  0  0  0  0  0  0  0
   -0.8714    2.4032   -0.6328 N   0  0  0  0  0  0  0  0  0  0  0  0
    2.8500   -1.0170    1.7758 H   0  0  0  0  0  0  0  0  0  0  0  0
    4.5440   -1.3029    1.3045 H   0  0  0  0  0  0  0  0  0  0  0  0
    3.9034    0.3882    1.3430 H   0  0  0  0  0  0  0  0  0  0  0  0
    4.1010   -0.5822   -2.2476 H   0  0  0  0  0  0  0  0  0  0  0  0
    4.5804    0.6942   -1.0537 H   0  0  0  0  0  0  0  0  0  0  0  0
    5.2724   -0.9784   -0.9600 H   0  0  0  0  0  0  0  0  0  0  0  0
    1.9736    0.2188   -1.6872 H   0  0  0  0  0  0  0  0  0  0  0  0
    2.0603    0.9614   -0.0603 H   0  0  0  0  0  0  0  0  0  0  0  0
    0.7715   -1.0190    0.8592 H   0  0  0  0  0  0  0  0  0  0  0  0
    0.7947   -1.7763   -0.7622 H   0  0  0  0  0  0  0  0  0  0  0  0
   -0.4154    0.1891   -1.7061 H   0  0  0  0  0  0  0  0  0  0  0  0
   -1.3631   -1.5891    1.5514 H   0  0  0  0  0  0  0  0  0  0  0  0
   -3.4008   -2.9305    1.7437 H   0  0  0  0  0  0  0  0  0  0  0  0
   -4.5464   -1.8128   -2.2433 H   0  0  0  0  0  0  0  0  0  0  0  0
   -2.5138   -0.4510   -2.4595 H   0  0  0  0  0  0  0  0  0  0  0  0
   -0.5280    0.4876    2.1262 H   0  0  0  0  0  0  0  0  0  0  0  0
   -0.8251    2.6846    3.1963 H   0  0  0  0  0  0  0  0  0  0  0  0
   -1.1477    4.7136    1.8006 H   0  0  0  0  0  0  0  0  0  0  0  0
   -1.1714    4.4983   -0.6755 H   0  0  0  0  0  0  0  0  0  0  0  0
  1  2  1  0
  2  3  1  0
  2  4  1  0
  4  5  1  0
  6  5  1  0
  6  7  1  0
  7  8  2  0
  8  9  1  0
  9 10  2  0
 10 11  1  0
 10 12  1  0
 12 13  2  0
 13  7  1  0
  6 14  1  0
 14 15  2  0
 15 16  1  0
 16 17  2  0
 17 18  1  0
 18 19  2  0
 19 14  1  0
  1 20  1  0
  1 21  1  0
  1 22  1  0
  3 23  1  0
  3 24  1  0
  3 25  1  0
  4 26  1  0
  4 27  1  0
  5 28  1  0
  5 29  1  0
  6 30  1  6
  8 31  1  0
  9 32  1  0
 12 33  1  0
 13 34  1  0
 15 35  1  0
 16 36  1  0
 17 37  1  0
 18 38  1  0
M  END
> <ID>
HT0315

> <Class>
1.0

> <Clusters>
0

> <Fold>
5

$$$$