
     RDKit          3D

 66 67  0  0  0  0  0  0  0  0999 V2000
   -1.2232    3.0654    3.2913 C   0  0  0  0  0  0  0  0  0  0  0  0
   -1.4267    1.6718    2.7008 C   0  0  0  0  0  0  0  0  0  0  0  0
   -2.6306    1.5951    1.7408 C   0  0  2  0  0  0  0  0  0  0  0  0
   -3.9617    1.8445    2.4640 C   0  0  0  0  0  0  0  0  0  0  0  0
   -2.6681    0.2517    1.0629 C   0  0  0  0  0  0  0  0  0  0  0  0
   -2.7945   -0.7993    1.7492 O   0  0  0  0  0  0  0  0  0  0  0  0
   -2.5939    0.1827   -0.3341 O   0  0  0  0  0  0  0  0  0  0  0  0
   -2.9412   -0.9866   -1.0789 C   0  0  1  0  0  0  0  0  0  0  0  0
   -3.4706   -0.5831   -2.4551 C   0  0  0  0  0  0  0  0  0  0  0  0
   -4.0147   -1.8185   -3.1981 C   0  0  2  0  0  0  0  0  0  0  0  0
   -5.2348   -2.2328   -2.6425 O   0  0  0  0  0  0  0  0  0  0  0  0
   -3.0429   -2.9685   -3.1582 C   0  0  0  0  0  0  0  0  0  0  0  0
   -2.0183   -3.0285   -2.2926 C   0  0  0  0  0  0  0  0  0  0  0  0
   -0.9239   -3.9780   -2.5250 C   0  0  0  0  0  0  0  0  0  0  0  0
    0.3136   -3.4839   -2.5627 C   0  0  0  0  0  0  0  0  0  0  0  0
    0.4900   -1.9796   -2.5689 C   0  0  2  0  0  0  0  0  0  0  0  0
    1.9711   -1.5945   -2.6705 C   0  0  0  0  0  0  0  0  0  0  0  0
   -0.3322   -1.2954   -1.4098 C   0  0  2  0  0  0  0  0  0  0  0  0
    0.4350   -1.2718   -0.0498 C   0  0  0  0  0  0  0  0  0  0  0  0
    1.2713    0.0047    0.1608 C   0  0  0  0  0  0  0  0  0  0  0  0
    1.9955   -0.0174    1.5290 C   0  0  1  0  0  0  0  0  0  0  0  0
    2.9512   -1.0479    1.6024 O   0  0  0  0  0  0  0  0  0  0  0  0
    2.6076    1.3497    1.9215 C   0  0  0  0  0  0  0  0  0  0  0  0
    3.9199    1.7210    1.1991 C   0  0  1  0  0  0  0  0  0  0  0  0
    3.6744    1.8771   -0.1755 O   0  0  0  0  0  0  0  0  0  0  0  0
    4.4805    3.0358    1.7711 C   0  0  0  0  0  0  0  0  0  0  0  0
    5.8473    3.3406    1.2355 C   0  0  0  0  0  0  0  0  0  0  0  0
    6.0056    3.6205    0.0181 O   0  0  0  0  0  0  0  0  0  0  0  0
    6.9437    3.3311    2.0926 O   0  0  0  0  0  0  0  0  0  0  0  0
   -1.7537   -1.9768   -1.2224 C   0  0  1  0  0  0  0  0  0  0  0  0
   -1.2219    3.8344    2.4885 H   0  0  0  0  0  0  0  0  0  0  0  0
   -2.0226    3.2969    4.0269 H   0  0  0  0  0  0  0  0  0  0  0  0
   -0.2442    3.1037    3.8175 H   0  0  0  0  0  0  0  0  0  0  0  0
   -1.5415    0.9358    3.5262 H   0  0  0  0  0  0  0  0  0  0  0  0
   -0.5113    1.4085    2.1380 H   0  0  0  0  0  0  0  0  0  0  0  0
   -2.5106    2.3754    0.9548 H   0  0  0  0  0  0  0  0  0  0  0  0
   -4.0719    1.1599    3.3340 H   0  0  0  0  0  0  0  0  0  0  0  0
   -4.8129    1.6777    1.7682 H   0  0  0  0  0  0  0  0  0  0  0  0
   -4.0193    2.8957    2.8183 H   0  0  0  0  0  0  0  0  0  0  0  0
   -3.7765   -1.5056   -0.5527 H   0  0  0  0  0  0  0  0  0  0  0  0
   -2.6547   -0.1170   -3.0493 H   0  0  0  0  0  0  0  0  0  0  0  0
   -4.2786    0.1698   -2.3402 H   0  0  0  0  0  0  0  0  0  0  0  0
   -4.1669   -1.5419   -4.2668 H   0  0  0  0  0  0  0  0  0  0  0  0
   -5.9188   -1.5738   -2.9317 H   0  0  0  0  0  0  0  0  0  0  0  0
   -3.1390   -3.7314   -3.9222 H   0  0  0  0  0  0  0  0  0  0  0  0
   -1.1126   -5.0328   -2.6795 H   0  0  0  0  0  0  0  0  0  0  0  0
    1.1585   -4.1485   -2.6991 H   0  0  0  0  0  0  0  0  0  0  0  0
    0.0317   -1.6242   -3.5211 H   0  0  0  0  0  0  0  0  0  0  0  0
    2.5391   -1.9160   -1.7731 H   0  0  0  0  0  0  0  0  0  0  0  0
    2.0701   -0.4998   -2.8190 H   0  0  0  0  0  0  0  0  0  0  0  0
    2.4297   -2.0898   -3.5538 H   0  0  0  0  0  0  0  0  0  0  0  0
   -0.4974   -0.2422   -1.7306 H   0  0  0  0  0  0  0  0  0  0  0  0
   -0.2824   -1.3114    0.7965 H   0  0  0  0  0  0  0  0  0  0  0  0
    1.0715   -2.1775    0.0448 H   0  0  0  0  0  0  0  0  0  0  0  0
    0.5954    0.8843    0.1126 H   0  0  0  0  0  0  0  0  0  0  0  0
    2.0135    0.1171   -0.6461 H   0  0  0  0  0  0  0  0  0  0  0  0
    1.2260   -0.2379    2.3019 H   0  0  0  0  0  0  0  0  0  0  0  0
    3.5008   -1.0181    0.7768 H   0  0  0  0  0  0  0  0  0  0  0  0
    1.8570    2.1540    1.7567 H   0  0  0  0  0  0  0  0  0  0  0  0
    2.8093    1.3177    3.0156 H   0  0  0  0  0  0  0  0  0  0  0  0
    4.6681    0.9140    1.3888 H   0  0  0  0  0  0  0  0  0  0  0  0
    4.4575    1.5047   -0.6575 H   0  0  0  0  0  0  0  0  0  0  0  0
    4.5470    2.9575    2.8779 H   0  0  0  0  0  0  0  0  0  0  0  0
    3.7986    3.8806    1.5311 H   0  0  0  0  0  0  0  0  0  0  0  0
    7.8731    3.5436    1.7497 H   0  0  0  0  0  0  0  0  0  0  0  0
   -1.7396   -2.5637   -0.2771 H   0  0  0  0  0  0  0  0  0  0  0  0
  1  2  1  0
  2  3  1  0
  3  4  1  0
  3  5  1  0
  5  6  2  0
  5  7  1  0
  8  7  1  0
  8  9  1  0
  9 10  1  0
 10 11  1  0
 10 12  1  0
 12 13  2  0
 13 14  1  0
 14 15  2  0
 15 16  1  0
 16 17  1  0
 16 18  1  0
 18 19  1  0
 19 20  1  0
 20 21  1  0
 21 22  1  0
 21 23  1  0
 23 24  1  0
 24 25  1  0
 24 26  1  0
 26 27  1  0
 27 28  2  0
 27 29  1  0
 18 30  1  0
 30  8  1  0
 30 13  1  0
  1 31  1  0
  1 32  1  0
  1 33  1  0
  2 34  1  0
  2 35  1  0
  3 36  1  6
  4 37  1  0
  4 38  1  0
  4 39  1  0
  8 40  1  1
  9 41  1  0
  9 42  1  0
 10 43  1  6
 11 44  1  0
 12 45  1  0
 14 46  1  0
 15 47  1  0
 16 48  1  6
 17 49  1  0
 17 50  1  0
 17 51  1  0
 18 52  1  6
 19 53  1  0
 19 54  1  0
 20 55  1  0
 20 56  1  0
 21 57  1  1
 22 58  1  0
 23 59  1  0
 23 60  1  0
 24 61  1  6
 25 62  1  0
 26 63  1  0
 26 64  1  0
 29 65  1  0
 30 66  1  1
M  END
> <ID>
HT1725

> <Class>
1.0

> <Clusters>
149

> <Fold>
5

$$$$