
     RDKit          3D

 68 71  0  0  0  0  0  0  0  0999 V2000
   -1.9463    5.1330   -1.5546 C   0  0  0  0  0  0  0  0  0  0  0  0
   -2.0204    3.9069   -0.8352 O   0  0  0  0  0  0  0  0  0  0  0  0
   -2.8450    3.6879    0.2795 C   0  0  0  0  0  0  0  0  0  0  0  0
   -3.6941    4.6886    0.7927 C   0  0  0  0  0  0  0  0  0  0  0  0
   -4.4945    4.4297    1.9083 C   0  0  0  0  0  0  0  0  0  0  0  0
   -4.4514    3.1794    2.5261 C   0  0  0  0  0  0  0  0  0  0  0  0
   -3.6131    2.1812    2.0262 C   0  0  0  0  0  0  0  0  0  0  0  0
   -2.8178    2.4248    0.8910 C   0  0  0  0  0  0  0  0  0  0  0  0
   -1.9604    1.4444    0.3699 O   0  0  0  0  0  0  0  0  0  0  0  0
   -2.1392    0.0592    0.4918 C   0  0  0  0  0  0  0  0  0  0  0  0
   -1.0428   -0.7750    0.7804 C   0  0  0  0  0  0  0  0  0  0  0  0
    0.2851   -0.2584    0.9515 N   0  0  0  0  0  0  0  0  0  0  0  0
    0.9651    0.9784   -0.0584 S   0  0  0  0  0  0  0  0  0  0  0  0
    0.7774    2.3255    0.5809 O   0  0  0  0  0  0  0  0  0  0  0  0
    0.2893    0.9692   -1.4020 O   0  0  0  0  0  0  0  0  0  0  0  0
    2.6858    0.6662   -0.2649 C   0  0  0  0  0  0  0  0  0  0  0  0
    3.5553    0.8409    0.8145 C   0  0  0  0  0  0  0  0  0  0  0  0
    4.9227    0.5892    0.6719 C   0  0  0  0  0  0  0  0  0  0  0  0
    5.4567    0.1514   -0.5638 C   0  0  0  0  0  0  0  0  0  0  0  0
    4.5585   -0.0251   -1.6405 C   0  0  0  0  0  0  0  0  0  0  0  0
    3.1926    0.2274   -1.4917 C   0  0  0  0  0  0  0  0  0  0  0  0
    6.9582   -0.1372   -0.7693 C   0  0  0  0  0  0  0  0  0  0  0  0
    7.8034    0.1096    0.5037 C   0  0  0  0  0  0  0  0  0  0  0  0
    7.5109    0.7787   -1.8832 C   0  0  0  0  0  0  0  0  0  0  0  0
    7.1474   -1.6140   -1.1788 C   0  0  0  0  0  0  0  0  0  0  0  0
   -1.2493   -2.1067    0.9578 N   0  0  0  0  0  0  0  0  0  0  0  0
   -2.4799   -2.6634    0.8153 C   0  0  0  0  0  0  0  0  0  0  0  0
   -3.5368   -1.8804    0.4813 N   0  0  0  0  0  0  0  0  0  0  0  0
   -3.3979   -0.5392    0.3065 C   0  0  0  0  0  0  0  0  0  0  0  0
   -4.4963    0.2435   -0.0698 O   0  0  0  0  0  0  0  0  0  0  0  0
   -5.7926   -0.2864   -0.3403 C   0  0  0  0  0  0  0  0  0  0  0  0
   -5.8294   -0.9727   -1.7066 C   0  0  0  0  0  0  0  0  0  0  0  0
   -5.5169   -0.0591   -2.7232 O   0  0  0  0  0  0  0  0  0  0  0  0
   -2.6639   -4.1084    1.0049 C   0  0  0  0  0  0  0  0  0  0  0  0
   -3.8937   -4.6680    0.8399 N   0  0  0  0  0  0  0  0  0  0  0  0
   -4.0843   -6.0022    1.0095 C   0  0  0  0  0  0  0  0  0  0  0  0
   -3.0098   -6.8190    1.3584 C   0  0  0  0  0  0  0  0  0  0  0  0
   -1.7562   -6.2324    1.5238 C   0  0  0  0  0  0  0  0  0  0  0  0
   -1.6056   -4.8941    1.3451 N   0  0  0  0  0  0  0  0  0  0  0  0
   -1.6033    5.9489   -0.8840 H   0  0  0  0  0  0  0  0  0  0  0  0
   -1.2169    5.0233   -2.3831 H   0  0  0  0  0  0  0  0  0  0  0  0
   -2.9388    5.3833   -1.9853 H   0  0  0  0  0  0  0  0  0  0  0  0
   -3.7420    5.6683    0.3377 H   0  0  0  0  0  0  0  0  0  0  0  0
   -5.1445    5.2023    2.2982 H   0  0  0  0  0  0  0  0  0  0  0  0
   -5.0650    2.9851    3.3962 H   0  0  0  0  0  0  0  0  0  0  0  0
   -3.5770    1.2242    2.5296 H   0  0  0  0  0  0  0  0  0  0  0  0
    0.9573   -0.8213    1.5195 H   0  0  0  0  0  0  0  0  0  0  0  0
    3.1732    1.1731    1.7720 H   0  0  0  0  0  0  0  0  0  0  0  0
    5.5439    0.7444    1.5413 H   0  0  0  0  0  0  0  0  0  0  0  0
    4.9086   -0.3633   -2.6063 H   0  0  0  0  0  0  0  0  0  0  0  0
    2.5338    0.0759   -2.3369 H   0  0  0  0  0  0  0  0  0  0  0  0
    7.7304    1.1701    0.8286 H   0  0  0  0  0  0  0  0  0  0  0  0
    8.8767   -0.1083    0.3127 H   0  0  0  0  0  0  0  0  0  0  0  0
    7.4732   -0.5525    1.3330 H   0  0  0  0  0  0  0  0  0  0  0  0
    8.6025    0.6194   -2.0195 H   0  0  0  0  0  0  0  0  0  0  0  0
    7.3431    1.8460   -1.6225 H   0  0  0  0  0  0  0  0  0  0  0  0
    7.0226    0.5771   -2.8595 H   0  0  0  0  0  0  0  0  0  0  0  0
    6.6534   -1.8352   -2.1478 H   0  0  0  0  0  0  0  0  0  0  0  0
    6.7176   -2.2877   -0.4060 H   0  0  0  0  0  0  0  0  0  0  0  0
    8.2262   -1.8565   -1.2930 H   0  0  0  0  0  0  0  0  0  0  0  0
   -6.0908   -1.0013    0.4572 H   0  0  0  0  0  0  0  0  0  0  0  0
   -6.5236    0.5494   -0.3376 H   0  0  0  0  0  0  0  0  0  0  0  0
   -5.1327   -1.8407   -1.7290 H   0  0  0  0  0  0  0  0  0  0  0  0
   -6.8542   -1.3617   -1.8836 H   0  0  0  0  0  0  0  0  0  0  0  0
   -4.5268    0.0156   -2.7452 H   0  0  0  0  0  0  0  0  0  0  0  0
   -5.0695   -6.4279    0.8735 H   0  0  0  0  0  0  0  0  0  0  0  0
   -3.1454   -7.8837    1.4975 H   0  0  0  0  0  0  0  0  0  0  0  0
   -0.9028   -6.8398    1.7942 H   0  0  0  0  0  0  0  0  0  0  0  0
  1  2  1  0
  2  3  1  0
  3  4  2  0
  4  5  1  0
  5  6  2  0
  6  7  1  0
  7  8  2  0
  8  3  1  0
  8  9  1  0
  9 10  1  0
 10 11  1  0
 11 12  1  0
 12 13  1  0
 13 14  2  0
 13 15  2  0
 13 16  1  0
 16 17  2  0
 17 18  1  0
 18 19  2  0
 19 20  1  0
 20 21  2  0
 21 16  1  0
 19 22  1  0
 22 23  1  0
 22 24  1  0
 22 25  1  0
 11 26  2  0
 26 27  1  0
 27 28  2  0
 28 29  1  0
 29 10  2  0
 29 30  1  0
 30 31  1  0
 31 32  1  0
 32 33  1  0
 27 34  1  0
 34 35  2  0
 35 36  1  0
 36 37  2  0
 37 38  1  0
 38 39  2  0
 39 34  1  0
  1 40  1  0
  1 41  1  0
  1 42  1  0
  4 43  1  0
  5 44  1  0
  6 45  1  0
  7 46  1  0
 12 47  1  0
 17 48  1  0
 18 49  1  0
 20 50  1  0
 21 51  1  0
 23 52  1  0
 23 53  1  0
 23 54  1  0
 24 55  1  0
 24 56  1  0
 24 57  1  0
 25 58  1  0
 25 59  1  0
 25 60  1  0
 31 61  1  0
 31 62  1  0
 32 63  1  0
 32 64  1  0
 33 65  1  0
 36 66  1  0
 37 67  1  0
 38 68  1  0
M  END
> <ID>
HT0300

> <Class>
1.0

> <Clusters>
39

> <Fold>
5

$$$$