
     RDKit          3D

 28 27  0  0  0  0  0  0  0  0999 V2000
    2.8925   -0.3474    0.7407 C   0  0  0  0  0  0  0  0  0  0  0  0
    1.4841   -0.5991    0.1798 C   0  0  0  0  0  0  0  0  0  0  0  0
    1.5282   -0.5163   -1.3540 C   0  0  0  0  0  0  0  0  0  0  0  0
    0.4898    0.4148    0.8103 C   0  0  0  0  0  0  0  0  0  0  0  0
   -1.0394    0.1776    0.6099 C   0  0  2  0  0  0  0  0  0  0  0  0
   -1.4829   -1.2865    0.8420 C   0  0  0  0  0  0  0  0  0  0  0  0
   -1.1964   -2.1427   -0.3074 N   0  0  0  0  0  0  0  0  0  0  0  0
   -1.6103    0.7736   -0.7027 C   0  0  0  0  0  0  0  0  0  0  0  0
   -1.6012    2.2781   -0.7507 C   0  0  0  0  0  0  0  0  0  0  0  0
   -1.9447    2.8602   -1.8139 O   0  0  0  0  0  0  0  0  0  0  0  0
   -1.2446    3.0371    0.3615 O   0  0  0  0  0  0  0  0  0  0  0  0
    3.2449    0.6719    0.4718 H   0  0  0  0  0  0  0  0  0  0  0  0
    2.8924   -0.4469    1.8472 H   0  0  0  0  0  0  0  0  0  0  0  0
    3.6100   -1.0933    0.3364 H   0  0  0  0  0  0  0  0  0  0  0  0
    1.2090   -1.6329    0.4755 H   0  0  0  0  0  0  0  0  0  0  0  0
    1.5900    0.5401   -1.6927 H   0  0  0  0  0  0  0  0  0  0  0  0
    0.6389   -1.0003   -1.7999 H   0  0  0  0  0  0  0  0  0  0  0  0
    2.4096   -1.0647   -1.7500 H   0  0  0  0  0  0  0  0  0  0  0  0
    0.7616    1.4384    0.4755 H   0  0  0  0  0  0  0  0  0  0  0  0
    0.6616    0.4075    1.9101 H   0  0  0  0  0  0  0  0  0  0  0  0
   -1.5342    0.7414    1.4337 H   0  0  0  0  0  0  0  0  0  0  0  0
   -2.5758   -1.3120    1.0553 H   0  0  0  0  0  0  0  0  0  0  0  0
   -0.9674   -1.6868    1.7432 H   0  0  0  0  0  0  0  0  0  0  0  0
   -1.3216   -3.1356   -0.0046 H   0  0  0  0  0  0  0  0  0  0  0  0
   -1.9209   -1.9688   -1.0410 H   0  0  0  0  0  0  0  0  0  0  0  0
   -2.6677    0.4506   -0.8184 H   0  0  0  0  0  0  0  0  0  0  0  0
   -1.0587    0.3927   -1.5808 H   0  0  0  0  0  0  0  0  0  0  0  0
   -1.2470    4.0493    0.3230 H   0  0  0  0  0  0  0  0  0  0  0  0
  1  2  1  0
  2  3  1  0
  2  4  1  0
  4  5  1  0
  5  6  1  0
  6  7  1  0
  5  8  1  0
  8  9  1  0
  9 10  2  0
  9 11  1  0
  1 12  1  0
  1 13  1  0
  1 14  1  0
  2 15  1  0
  3 16  1  0
  3 17  1  0
  3 18  1  0
  4 19  1  0
  4 20  1  0
  5 21  1  1
  6 22  1  0
  6 23  1  0
  7 24  1  0
  7 25  1  0
  8 26  1  0
  8 27  1  0
 11 28  1  0
M  END
> <ID>
HT1735

> <Class>
1.0

> <Clusters>
151

> <Fold>
5

$$$$