
     RDKit          3D

 20 21  0  0  0  0  0  0  0  0999 V2000
   -3.3543    1.0877   -0.2891 C   0  0  0  0  0  0  0  0  0  0  0  0
   -1.9710    0.6286   -0.1783 N   0  0  0  0  0  0  0  0  0  0  0  0
   -1.1411    1.2503    0.6747 N   0  0  0  0  0  0  0  0  0  0  0  0
    0.1343    0.8731    0.8168 N   0  0  0  0  0  0  0  0  0  0  0  0
    0.5867   -0.1579    0.0707 C   0  0  0  0  0  0  0  0  0  0  0  0
    1.8321   -0.7521    0.0404 C   0  0  0  0  0  0  0  0  0  0  0  0
    1.7814   -1.7834   -0.8409 N   0  0  0  0  0  0  0  0  0  0  0  0
    0.5127   -1.7763   -1.3217 C   0  0  0  0  0  0  0  0  0  0  0  0
   -0.2204   -0.7923   -0.7709 N   0  0  0  0  0  0  0  0  0  0  0  0
   -1.5119   -0.4245   -0.9241 C   0  0  0  0  0  0  0  0  0  0  0  0
   -2.2664   -1.0381   -1.7286 O   0  0  0  0  0  0  0  0  0  0  0  0
    3.0406   -0.4096    0.8153 C   0  0  0  0  0  0  0  0  0  0  0  0
    4.0142   -1.2091    0.8112 O   0  0  0  0  0  0  0  0  0  0  0  0
    3.1456    0.8078    1.5567 N   0  0  0  0  0  0  0  0  0  0  0  0
   -4.0483    0.2654   -0.0133 H   0  0  0  0  0  0  0  0  0  0  0  0
   -3.5376    1.9470    0.3914 H   0  0  0  0  0  0  0  0  0  0  0  0
   -3.5619    1.4127   -1.3308 H   0  0  0  0  0  0  0  0  0  0  0  0
    0.1388   -2.4836   -2.0509 H   0  0  0  0  0  0  0  0  0  0  0  0
    3.9969    0.9927    2.1324 H   0  0  0  0  0  0  0  0  0  0  0  0
    2.4296    1.5615    1.4879 H   0  0  0  0  0  0  0  0  0  0  0  0
  1  2  1  0
  2  3  1  0
  3  4  2  0
  4  5  1  0
  5  6  2  0
  6  7  1  0
  7  8  2  0
  8  9  1  0
  9  5  1  0
  9 10  1  0
 10  2  1  0
 10 11  2  0
  6 12  1  0
 12 13  2  0
 12 14  1  0
  1 15  1  0
  1 16  1  0
  1 17  1  0
  8 18  1  0
 14 19  1  0
 14 20  1  0
M  END
> <ID>
HT1999

> <Class>
1.0

> <Clusters>
259

> <Fold>
5

$$$$