
     RDKit          3D

 36 39  0  0  0  0  0  0  0  0999 V2000
    4.0961    0.3304    0.1186 C   0  0  0  0  0  0  0  0  0  0  0  0
    2.7671    0.3871    0.7461 N   0  0  0  0  0  0  0  0  0  0  0  0
    2.0957   -0.9151    0.7162 C   0  0  0  0  0  0  0  0  0  0  0  0
    0.6061   -0.5984    0.6777 C   0  0  1  0  0  0  0  0  0  0  0  0
    0.5551    0.5848   -0.2712 C   0  0  2  0  0  0  0  0  0  0  0  0
    1.8660    1.3286    0.0578 C   0  0  0  0  0  0  0  0  0  0  0  0
   -0.6843    1.4654   -0.1567 C   0  0  0  0  0  0  0  0  0  0  0  0
   -0.6121    2.7671   -0.7010 C   0  0  0  0  0  0  0  0  0  0  0  0
   -1.6575    3.6774   -0.5405 C   0  0  0  0  0  0  0  0  0  0  0  0
   -1.5186    5.3002   -1.1926 Cl  0  0  0  0  0  0  0  0  0  0  0  0
   -2.8053    3.3009    0.1502 C   0  0  0  0  0  0  0  0  0  0  0  0
   -2.9290    2.0009    0.6350 C   0  0  0  0  0  0  0  0  0  0  0  0
   -1.9107    1.0556    0.4467 C   0  0  0  0  0  0  0  0  0  0  0  0
   -2.2225   -0.2541    0.8489 O   0  0  0  0  0  0  0  0  0  0  0  0
   -1.7125   -1.4504    0.3313 C   0  0  0  0  0  0  0  0  0  0  0  0
   -2.6278   -2.4494   -0.0231 C   0  0  0  0  0  0  0  0  0  0  0  0
   -2.1834   -3.6904   -0.4780 C   0  0  0  0  0  0  0  0  0  0  0  0
   -0.8173   -3.9520   -0.5582 C   0  0  0  0  0  0  0  0  0  0  0  0
    0.1073   -2.9710   -0.1921 C   0  0  0  0  0  0  0  0  0  0  0  0
   -0.3308   -1.6984    0.2398 C   0  0  0  0  0  0  0  0  0  0  0  0
    4.0271    0.0480   -0.9559 H   0  0  0  0  0  0  0  0  0  0  0  0
    4.5907    1.3218    0.1997 H   0  0  0  0  0  0  0  0  0  0  0  0
    4.7328   -0.4103    0.6484 H   0  0  0  0  0  0  0  0  0  0  0  0
    2.3529   -1.5016    1.6244 H   0  0  0  0  0  0  0  0  0  0  0  0
    2.3989   -1.4781   -0.1949 H   0  0  0  0  0  0  0  0  0  0  0  0
    0.3150   -0.2708    1.7034 H   0  0  0  0  0  0  0  0  0  0  0  0
    0.6213    0.2185   -1.3220 H   0  0  0  0  0  0  0  0  0  0  0  0
    2.3075    1.7453   -0.8771 H   0  0  0  0  0  0  0  0  0  0  0  0
    1.6730    2.1759    0.7516 H   0  0  0  0  0  0  0  0  0  0  0  0
    0.2738    3.0904   -1.2330 H   0  0  0  0  0  0  0  0  0  0  0  0
   -3.6152    4.0059    0.2882 H   0  0  0  0  0  0  0  0  0  0  0  0
   -3.8494    1.7080    1.1248 H   0  0  0  0  0  0  0  0  0  0  0  0
   -3.6908   -2.2612    0.0595 H   0  0  0  0  0  0  0  0  0  0  0  0
   -2.8987   -4.4547   -0.7534 H   0  0  0  0  0  0  0  0  0  0  0  0
   -0.4728   -4.9219   -0.8933 H   0  0  0  0  0  0  0  0  0  0  0  0
    1.1524   -3.2342   -0.2383 H   0  0  0  0  0  0  0  0  0  0  0  0
  1  2  1  0
  2  3  1  0
  4  3  1  0
  4  5  1  0
  5  6  1  0
  6  2  1  0
  5  7  1  0
  7  8  2  0
  8  9  1  0
  9 10  1  0
  9 11  2  0
 11 12  1  0
 12 13  2  0
 13  7  1  0
 13 14  1  0
 14 15  1  0
 15 16  2  0
 16 17  1  0
 17 18  2  0
 18 19  1  0
 19 20  2  0
 20  4  1  0
 20 15  1  0
  1 21  1  0
  1 22  1  0
  1 23  1  0
  3 24  1  0
  3 25  1  0
  4 26  1  1
  5 27  1  6
  6 28  1  0
  6 29  1  0
  8 30  1  0
 11 31  1  0
 12 32  1  0
 16 33  1  0
 17 34  1  0
 18 35  1  0
 19 36  1  0
M  END
> <ID>
HT0187

> <Class>
1.0

> <Clusters>
150

> <Fold>
5

$$$$