
     RDKit          3D

 87 89  0  0  0  0  0  0  0  0999 V2000
   -2.5929   -1.5258   -0.4489 C   0  0  0  0  0  0  0  0  0  0  0  0
   -2.3574   -0.7607    0.8578 C   0  0  1  0  0  0  0  0  0  0  0  0
   -0.9812   -0.4135    0.9773 O   0  0  0  0  0  0  0  0  0  0  0  0
   -0.7043    0.8711    0.4456 C   0  0  2  0  0  0  0  0  0  0  0  0
    0.6963    1.0637    0.3688 O   0  0  0  0  0  0  0  0  0  0  0  0
    1.2902    0.2490   -0.6332 C   0  0  1  0  0  0  0  0  0  0  0  0
    2.2737    1.1070   -1.4424 C   0  0  2  0  0  0  0  0  0  0  0  0
    1.5952    2.1414   -2.1142 O   0  0  0  0  0  0  0  0  0  0  0  0
    3.0408    0.2181   -2.4304 C   0  0  1  0  0  0  0  0  0  0  0  0
    4.0040    0.9747   -3.1173 O   0  0  0  0  0  0  0  0  0  0  0  0
    3.7232   -0.9370   -1.6737 C   0  0  1  0  0  0  0  0  0  0  0  0
    4.7364   -0.4524   -0.8026 O   0  0  0  0  0  0  0  0  0  0  0  0
    6.0446   -0.5618   -1.3452 C   0  0  2  0  0  0  0  0  0  0  0  0
    6.6359   -1.9555   -0.9827 C   0  0  2  0  0  0  0  0  0  0  0  0
    6.6019   -2.1587    0.4068 O   0  0  0  0  0  0  0  0  0  0  0  0
    8.0554   -2.1792   -1.5266 C   0  0  0  0  0  0  0  0  0  0  0  0
    8.3867   -3.5379   -1.4358 O   0  0  0  0  0  0  0  0  0  0  0  0
    6.8534    0.6816   -0.8774 C   0  0  2  0  0  0  0  0  0  0  0  0
    8.0784    0.7550   -1.5624 O   0  0  0  0  0  0  0  0  0  0  0  0
    7.0682    0.7698    0.6567 C   0  0  1  0  0  0  0  0  0  0  0  0
    8.1776   -0.0048    1.0368 O   0  0  0  0  0  0  0  0  0  0  0  0
    7.2764    2.2066    1.0707 C   0  0  0  0  0  0  0  0  0  0  0  0
    8.3227    2.5723    1.5817 O   0  0  0  0  0  0  0  0  0  0  0  0
    2.7811   -1.7118   -0.9421 O   0  0  0  0  0  0  0  0  0  0  0  0
    2.0154   -0.9686    0.0041 C   0  0  0  0  0  0  0  0  0  0  0  0
    2.8190   -0.6394    1.2828 C   0  0  0  0  0  0  0  0  0  0  0  0
    1.9468   -0.4543    2.3634 O   0  0  0  0  0  0  0  0  0  0  0  0
   -1.3252    1.9587    1.3555 C   0  0  2  0  0  0  0  0  0  0  0  0
   -0.4624    2.2629    2.4247 O   0  0  0  0  0  0  0  0  0  0  0  0
   -2.6846    1.4982    1.9314 C   0  0  1  0  0  0  0  0  0  0  0  0
   -3.5201    2.6178    2.0874 O   0  0  0  0  0  0  0  0  0  0  0  0
   -3.3427    0.4487    1.0103 C   0  0  2  0  0  0  0  0  0  0  0  0
   -4.6389    0.0200    1.5873 N   0  0  0  0  0  0  0  0  0  0  0  0
   -5.8006    0.7038    0.9813 C   0  0  1  0  0  0  0  0  0  0  0  0
   -6.2312    0.0081   -0.2993 C   0  0  0  0  0  0  0  0  0  0  0  0
   -7.5203   -0.1455   -0.6718 C   0  0  0  0  0  0  0  0  0  0  0  0
   -7.8333   -0.8538   -1.9686 C   0  0  0  0  0  0  0  0  0  0  0  0
   -8.1139   -2.2063   -1.7232 O   0  0  0  0  0  0  0  0  0  0  0  0
   -8.6741    0.2222    0.2428 C   0  0  1  0  0  0  0  0  0  0  0  0
   -9.1785   -0.9546    0.8187 O   0  0  0  0  0  0  0  0  0  0  0  0
   -8.2624    1.2250    1.3489 C   0  0  2  0  0  0  0  0  0  0  0  0
   -8.1870    2.5431    0.8569 O   0  0  0  0  0  0  0  0  0  0  0  0
   -6.9413    0.8103    2.0197 C   0  0  1  0  0  0  0  0  0  0  0  0
   -7.1272   -0.4188    2.6803 O   0  0  0  0  0  0  0  0  0  0  0  0
   -1.8498   -2.3470   -0.5430 H   0  0  0  0  0  0  0  0  0  0  0  0
   -2.4921   -0.8536   -1.3287 H   0  0  0  0  0  0  0  0  0  0  0  0
   -3.6080   -1.9747   -0.4530 H   0  0  0  0  0  0  0  0  0  0  0  0
   -2.5567   -1.4704    1.6897 H   0  0  0  0  0  0  0  0  0  0  0  0
   -1.1546    0.9929   -0.5704 H   0  0  0  0  0  0  0  0  0  0  0  0
    0.5510   -0.1653   -1.3634 H   0  0  0  0  0  0  0  0  0  0  0  0
    3.0006    1.5843   -0.7483 H   0  0  0  0  0  0  0  0  0  0  0  0
    0.9581    1.7235   -2.7513 H   0  0  0  0  0  0  0  0  0  0  0  0
    2.3267   -0.2322   -3.1598 H   0  0  0  0  0  0  0  0  0  0  0  0
    3.5274    1.4663   -3.8359 H   0  0  0  0  0  0  0  0  0  0  0  0
    4.1321   -1.6243   -2.4484 H   0  0  0  0  0  0  0  0  0  0  0  0
    6.0289   -0.4887   -2.4585 H   0  0  0  0  0  0  0  0  0  0  0  0
    5.9800   -2.7140   -1.4711 H   0  0  0  0  0  0  0  0  0  0  0  0
    6.6509   -3.1387    0.5608 H   0  0  0  0  0  0  0  0  0  0  0  0
    8.0993   -1.8632   -2.5928 H   0  0  0  0  0  0  0  0  0  0  0  0
    8.7897   -1.5880   -0.9393 H   0  0  0  0  0  0  0  0  0  0  0  0
    9.3010   -3.6228   -1.8147 H   0  0  0  0  0  0  0  0  0  0  0  0
    6.2309    1.5563   -1.1881 H   0  0  0  0  0  0  0  0  0  0  0  0
    8.3941    1.6939   -1.4955 H   0  0  0  0  0  0  0  0  0  0  0  0
    6.1518    0.4063    1.1789 H   0  0  0  0  0  0  0  0  0  0  0  0
    8.0936   -0.1700    2.0121 H   0  0  0  0  0  0  0  0  0  0  0  0
    6.4826    2.9288    0.9123 H   0  0  0  0  0  0  0  0  0  0  0  0
    1.2112   -1.6632    0.3291 H   0  0  0  0  0  0  0  0  0  0  0  0
    3.5050   -1.4884    1.5077 H   0  0  0  0  0  0  0  0  0  0  0  0
    3.4246    0.2827    1.1476 H   0  0  0  0  0  0  0  0  0  0  0  0
    2.5192   -0.2918    3.1607 H   0  0  0  0  0  0  0  0  0  0  0  0
   -1.4891    2.8694    0.7284 H   0  0  0  0  0  0  0  0  0  0  0  0
    0.1651    2.9641    2.1069 H   0  0  0  0  0  0  0  0  0  0  0  0
   -2.5051    1.0208    2.9262 H   0  0  0  0  0  0  0  0  0  0  0  0
   -4.1429    2.4163    2.8327 H   0  0  0  0  0  0  0  0  0  0  0  0
   -3.4900    0.9156    0.0058 H   0  0  0  0  0  0  0  0  0  0  0  0
   -4.7755   -1.0154    1.5009 H   0  0  0  0  0  0  0  0  0  0  0  0
   -5.5229    1.7451    0.7048 H   0  0  0  0  0  0  0  0  0  0  0  0
   -5.4460   -0.3038   -0.9825 H   0  0  0  0  0  0  0  0  0  0  0  0
   -8.7259   -0.3854   -2.4362 H   0  0  0  0  0  0  0  0  0  0  0  0
   -6.9962   -0.7581   -2.7017 H   0  0  0  0  0  0  0  0  0  0  0  0
   -7.2401   -2.6512   -1.5616 H   0  0  0  0  0  0  0  0  0  0  0  0
   -9.4692    0.6960   -0.3757 H   0  0  0  0  0  0  0  0  0  0  0  0
  -10.0890   -0.7474    1.1558 H   0  0  0  0  0  0  0  0  0  0  0  0
   -9.0534    1.2225    2.1304 H   0  0  0  0  0  0  0  0  0  0  0  0
   -7.6779    2.5311    0.0072 H   0  0  0  0  0  0  0  0  0  0  0  0
   -6.6742    1.6001    2.7638 H   0  0  0  0  0  0  0  0  0  0  0  0
   -6.5093   -0.4312    3.4579 H   0  0  0  0  0  0  0  0  0  0  0  0
  2  1  1  0
  2  3  1  0
  3  4  1  0
  4  5  1  0
  6  5  1  0
  6  7  1  0
  7  8  1  0
  7  9  1  0
  9 10  1  0
  9 11  1  0
 11 12  1  0
 13 12  1  0
 13 14  1  0
 14 15  1  0
 14 16  1  0
 16 17  1  0
 13 18  1  0
 18 19  1  0
 18 20  1  0
 20 21  1  0
 20 22  1  0
 22 23  2  0
 11 24  1  0
 24 25  1  0
 25  6  1  0
 25 26  1  0
 26 27  1  0
  4 28  1  0
 28 29  1  0
 28 30  1  0
 30 31  1  0
 30 32  1  0
 32  2  1  0
 32 33  1  0
 34 33  1  0
 34 35  1  0
 35 36  2  0
 36 37  1  0
 37 38  1  0
 36 39  1  0
 39 40  1  0
 39 41  1  0
 41 42  1  0
 41 43  1  0
 43 34  1  0
 43 44  1  0
  1 45  1  0
  1 46  1  0
  1 47  1  0
  2 48  1  1
  4 49  1  6
  6 50  1  6
  7 51  1  1
  8 52  1  0
  9 53  1  6
 10 54  1  0
 11 55  1  6
 13 56  1  6
 14 57  1  6
 15 58  1  0
 16 59  1  0
 16 60  1  0
 17 61  1  0
 18 62  1  6
 19 63  1  0
 20 64  1  1
 21 65  1  0
 22 66  1  0
 25 67  1  0
 26 68  1  0
 26 69  1  0
 27 70  1  0
 28 71  1  6
 29 72  1  0
 30 73  1  1
 31 74  1  0
 32 75  1  6
 33 76  1  0
 34 77  1  6
 35 78  1  0
 37 79  1  0
 37 80  1  0
 38 81  1  0
 39 82  1  6
 40 83  1  0
 41 84  1  1
 42 85  1  0
 43 86  1  1
 44 87  1  0
M  END
> <ID>
HT0046

> <Class>
1.0

> <Clusters>
143

> <Fold>
5

$$$$