
     RDKit          3D

108113  0  0  0  0  0  0  0  0999 V2000
    0.1221   -4.4946    2.1793 C   0  0  0  0  0  0  0  0  0  0  0  0
   -1.0307   -4.2577    1.3963 O   0  0  0  0  0  0  0  0  0  0  0  0
   -1.4882   -2.9191    1.5455 C   0  0  1  0  0  0  0  0  0  0  0  0
   -1.1684   -2.1015    0.3067 C   0  0  0  0  0  0  0  0  0  0  0  0
   -0.4320   -2.4831   -0.7392 C   0  0  0  0  0  0  0  0  0  0  0  0
    0.2206   -3.7214   -0.8163 O   0  0  0  0  0  0  0  0  0  0  0  0
    1.2943   -3.9549   -1.7369 C   0  0  1  0  0  0  0  0  0  0  0  0
    1.8641   -5.3609   -1.5666 C   0  0  0  0  0  0  0  0  0  0  0  0
    0.8522   -3.7514   -3.0770 O   0  0  0  0  0  0  0  0  0  0  0  0
    1.3597   -2.5572   -3.5767 C   0  0  0  0  0  0  0  0  0  0  0  0
    0.9352   -1.9301   -4.7479 C   0  0  0  0  0  0  0  0  0  0  0  0
    0.0322   -2.6627   -5.7022 C   0  0  0  0  0  0  0  0  0  0  0  0
    1.2651   -0.5647   -4.9321 C   0  0  0  0  0  0  0  0  0  0  0  0
    0.8191    0.1203   -6.0690 O   0  0  0  0  0  0  0  0  0  0  0  0
    2.0162    0.1298   -3.9358 C   0  0  0  0  0  0  0  0  0  0  0  0
    2.1104    1.5581   -3.9437 C   0  0  0  0  0  0  0  0  0  0  0  0
    1.5160    2.3000   -4.9704 O   0  0  0  0  0  0  0  0  0  0  0  0
    2.7509    2.2390   -2.8832 C   0  0  0  0  0  0  0  0  0  0  0  0
    2.6161    3.6527   -2.7486 N   0  0  0  0  0  0  0  0  0  0  0  0
    1.5275    4.2455   -2.0195 C   0  0  0  0  0  0  0  0  0  0  0  0
    1.7637    5.2383   -1.2821 O   0  0  0  0  0  0  0  0  0  0  0  0
    0.1106    3.8797   -2.2716 C   0  0  0  0  0  0  0  0  0  0  0  0
   -0.4707    2.7412   -1.8409 C   0  0  0  0  0  0  0  0  0  0  0  0
    0.2253    1.6253   -1.1807 C   0  0  0  0  0  0  0  0  0  0  0  0
    0.6216    1.6160    0.0975 C   0  0  0  0  0  0  0  0  0  0  0  0
    0.3608    2.7283    1.0907 C   0  0  2  0  0  0  0  0  0  0  0  0
    1.4468    2.6867    2.1768 C   0  0  0  0  0  0  0  0  0  0  0  0
   -1.1110    2.6608    1.6210 C   0  0  2  0  0  0  0  0  0  0  0  0
   -1.4872    3.8391    2.2951 O   0  0  0  0  0  0  0  0  0  0  0  0
   -1.4871    1.3675    2.4378 C   0  0  1  0  0  0  0  0  0  0  0  0
   -1.2123    1.5458    3.9514 C   0  0  0  0  0  0  0  0  0  0  0  0
   -2.9800    0.9296    2.2167 C   0  0  1  0  0  0  0  0  0  0  0  0
   -3.3078    1.0047    0.8519 O   0  0  0  0  0  0  0  0  0  0  0  0
   -3.2784   -0.5110    2.7986 C   0  0  1  0  0  0  0  0  0  0  0  0
   -4.2362   -0.3961    4.0010 C   0  0  0  0  0  0  0  0  0  0  0  0
   -3.7707   -1.5887    1.7514 C   0  0  2  0  0  0  0  0  0  0  0  0
   -5.1798   -1.8182    1.8941 O   0  0  0  0  0  0  0  0  0  0  0  0
   -6.1394   -1.5439    0.9109 C   0  0  0  0  0  0  0  0  0  0  0  0
   -5.8082   -1.0902   -0.2169 O   0  0  0  0  0  0  0  0  0  0  0  0
   -7.5730   -1.8235    1.1935 C   0  0  0  0  0  0  0  0  0  0  0  0
   -3.0239   -2.9629    1.8350 C   0  0  2  0  0  0  0  0  0  0  0  0
   -3.2885   -3.6752    3.1729 C   0  0  0  0  0  0  0  0  0  0  0  0
   -0.7553    4.9165   -2.9286 C   0  0  0  0  0  0  0  0  0  0  0  0
    3.4127    1.4785   -1.9120 C   0  0  0  0  0  0  0  0  0  0  0  0
    3.3305    0.1086   -1.8914 C   0  0  0  0  0  0  0  0  0  0  0  0
    4.0001   -0.3840   -0.8267 N   0  0  0  0  0  0  0  0  0  0  0  0
    4.4710    0.7249   -0.2150 C   0  0  0  0  0  0  0  0  0  0  0  0
    5.2577    0.7294    0.9355 C   0  0  0  0  0  0  0  0  0  0  0  0
    5.6823    1.9733    1.4402 C   0  0  0  0  0  0  0  0  0  0  0  0
    6.5808    2.0327    2.6390 C   0  0  0  0  0  0  0  0  0  0  0  0
    5.3255    3.1589    0.7655 C   0  0  0  0  0  0  0  0  0  0  0  0
    4.5297    3.0944   -0.3867 C   0  0  0  0  0  0  0  0  0  0  0  0
    4.1306    1.8720   -0.8359 N   0  0  0  0  0  0  0  0  0  0  0  0
    2.5830   -0.6072   -2.8401 C   0  0  0  0  0  0  0  0  0  0  0  0
    2.2501   -1.9693   -2.7103 C   0  0  0  0  0  0  0  0  0  0  0  0
    2.3382   -2.8912   -1.5742 C   0  0  0  0  0  0  0  0  0  0  0  0
    3.1024   -2.7963   -0.5792 O   0  0  0  0  0  0  0  0  0  0  0  0
    0.9373   -3.7787    1.9307 H   0  0  0  0  0  0  0  0  0  0  0  0
    0.4881   -5.5197    1.9646 H   0  0  0  0  0  0  0  0  0  0  0  0
   -0.1227   -4.4419    3.2604 H   0  0  0  0  0  0  0  0  0  0  0  0
   -0.9943   -2.3927    2.3938 H   0  0  0  0  0  0  0  0  0  0  0  0
   -1.4897   -1.0692    0.2876 H   0  0  0  0  0  0  0  0  0  0  0  0
   -0.3006   -1.7630   -1.5374 H   0  0  0  0  0  0  0  0  0  0  0  0
    1.0687   -6.1161   -1.7501 H   0  0  0  0  0  0  0  0  0  0  0  0
    2.2480   -5.4978   -0.5349 H   0  0  0  0  0  0  0  0  0  0  0  0
    2.6988   -5.5296   -2.2828 H   0  0  0  0  0  0  0  0  0  0  0  0
   -0.9768   -2.2038   -5.6823 H   0  0  0  0  0  0  0  0  0  0  0  0
    0.4489   -2.6191   -6.7293 H   0  0  0  0  0  0  0  0  0  0  0  0
   -0.0650   -3.7344   -5.4386 H   0  0  0  0  0  0  0  0  0  0  0  0
    0.2722   -0.3095   -6.8034 H   0  0  0  0  0  0  0  0  0  0  0  0
    1.5687    3.3101   -5.0200 H   0  0  0  0  0  0  0  0  0  0  0  0
    3.4535    4.2383   -2.9560 H   0  0  0  0  0  0  0  0  0  0  0  0
   -1.5115    2.5627   -2.0887 H   0  0  0  0  0  0  0  0  0  0  0  0
    0.3245    0.7090   -1.7467 H   0  0  0  0  0  0  0  0  0  0  0  0
    1.0892    0.7068    0.4545 H   0  0  0  0  0  0  0  0  0  0  0  0
    0.4835    3.7022    0.5740 H   0  0  0  0  0  0  0  0  0  0  0  0
    1.4670    1.7017    2.6843 H   0  0  0  0  0  0  0  0  0  0  0  0
    2.4434    2.8441    1.7131 H   0  0  0  0  0  0  0  0  0  0  0  0
    1.3150    3.4933    2.9254 H   0  0  0  0  0  0  0  0  0  0  0  0
   -1.7160    2.6725    0.6896 H   0  0  0  0  0  0  0  0  0  0  0  0
   -0.8455    4.0104    3.0294 H   0  0  0  0  0  0  0  0  0  0  0  0
   -0.8435    0.5361    2.0784 H   0  0  0  0  0  0  0  0  0  0  0  0
   -0.2120    1.9740    4.1466 H   0  0  0  0  0  0  0  0  0  0  0  0
   -1.9625    2.2234    4.4120 H   0  0  0  0  0  0  0  0  0  0  0  0
   -1.2497    0.5738    4.4870 H   0  0  0  0  0  0  0  0  0  0  0  0
   -3.6008    1.6911    2.7503 H   0  0  0  0  0  0  0  0  0  0  0  0
   -4.2891    1.1459    0.7944 H   0  0  0  0  0  0  0  0  0  0  0  0
   -2.3422   -0.8985    3.2341 H   0  0  0  0  0  0  0  0  0  0  0  0
   -4.4270   -1.3920    4.4518 H   0  0  0  0  0  0  0  0  0  0  0  0
   -3.7909    0.2486    4.7894 H   0  0  0  0  0  0  0  0  0  0  0  0
   -5.2067    0.0458    3.6839 H   0  0  0  0  0  0  0  0  0  0  0  0
   -3.5928   -1.2425    0.7206 H   0  0  0  0  0  0  0  0  0  0  0  0
   -7.8162   -2.8567    0.8655 H   0  0  0  0  0  0  0  0  0  0  0  0
   -7.7607   -1.7355    2.2828 H   0  0  0  0  0  0  0  0  0  0  0  0
   -8.2231   -1.1016    0.6536 H   0  0  0  0  0  0  0  0  0  0  0  0
   -3.4750   -3.6020    1.0425 H   0  0  0  0  0  0  0  0  0  0  0  0
   -2.9067   -4.7178    3.1333 H   0  0  0  0  0  0  0  0  0  0  0  0
   -4.3776   -3.7280    3.3850 H   0  0  0  0  0  0  0  0  0  0  0  0
   -2.7781   -3.1546    4.0076 H   0  0  0  0  0  0  0  0  0  0  0  0
   -0.1355    5.6387   -3.5035 H   0  0  0  0  0  0  0  0  0  0  0  0
   -1.4709    4.4453   -3.6336 H   0  0  0  0  0  0  0  0  0  0  0  0
   -1.3226    5.4727   -2.1546 H   0  0  0  0  0  0  0  0  0  0  0  0
    5.5364   -0.1989    1.4176 H   0  0  0  0  0  0  0  0  0  0  0  0
    6.4951    3.0156    3.1475 H   0  0  0  0  0  0  0  0  0  0  0  0
    6.3059    1.2439    3.3693 H   0  0  0  0  0  0  0  0  0  0  0  0
    7.6333    1.8834    2.3205 H   0  0  0  0  0  0  0  0  0  0  0  0
    5.6680    4.1235    1.1207 H   0  0  0  0  0  0  0  0  0  0  0  0
    4.2641    4.0097   -0.8871 H   0  0  0  0  0  0  0  0  0  0  0  0
  1  2  1  0
  3  2  1  0
  3  4  1  0
  4  5  2  3
  5  6  1  0
  6  7  1  0
  7  8  1  6
  7  9  1  0
  9 10  1  0
 10 11  2  0
 11 12  1  0
 11 13  1  0
 13 14  1  0
 13 15  2  0
 15 16  1  0
 16 17  1  0
 16 18  2  0
 18 19  1  0
 19 20  1  0
 20 21  2  0
 20 22  1  0
 22 23  2  3
 23 24  1  0
 24 25  2  3
 25 26  1  0
 26 27  1  0
 26 28  1  0
 28 29  1  0
 28 30  1  0
 30 31  1  0
 30 32  1  0
 32 33  1  0
 32 34  1  0
 34 35  1  0
 34 36  1  0
 36 37  1  0
 37 38  1  0
 38 39  2  0
 38 40  1  0
 36 41  1  0
 41  3  1  0
 41 42  1  0
 22 43  1  0
 18 44  1  0
 44 45  2  0
 45 46  1  0
 46 47  2  0
 47 48  1  0
 48 49  2  0
 49 50  1  0
 49 51  1  0
 51 52  2  0
 52 53  1  0
 53 44  1  0
 53 47  1  0
 45 54  1  0
 54 15  1  0
 54 55  2  0
 55 10  1  0
 55 56  1  0
 56  7  1  0
 56 57  2  0
  1 58  1  0
  1 59  1  0
  1 60  1  0
  3 61  1  1
  4 62  1  0
  5 63  1  0
  8 64  1  0
  8 65  1  0
  8 66  1  0
 12 67  1  0
 12 68  1  0
 12 69  1  0
 14 70  1  0
 17 71  1  0
 19 72  1  0
 23 73  1  0
 24 74  1  0
 25 75  1  0
 26 76  1  6
 27 77  1  0
 27 78  1  0
 27 79  1  0
 28 80  1  6
 29 81  1  0
 30 82  1  6
 31 83  1  0
 31 84  1  0
 31 85  1  0
 32 86  1  1
 33 87  1  0
 34 88  1  1
 35 89  1  0
 35 90  1  0
 35 91  1  0
 36 92  1  6
 40 93  1  0
 40 94  1  0
 40 95  1  0
 41 96  1  6
 42 97  1  0
 42 98  1  0
 42 99  1  0
 43100  1  0
 43101  1  0
 43102  1  0
 48103  1  0
 50104  1  0
 50105  1  0
 50106  1  0
 51107  1  0
 52108  1  0
M  END
> <ID>
HT1823

> <Class>
1.0

> <Clusters>
86

> <Fold>
5

$$$$