
     RDKit          3D

 42 44  0  0  0  0  0  0  0  0999 V2000
   -2.8828   -3.1091    0.4193 C   0  0  0  0  0  0  0  0  0  0  0  0
   -2.4093   -1.6957    0.8152 C   0  0  0  0  0  0  0  0  0  0  0  0
   -1.9364   -1.7073    2.2775 C   0  0  0  0  0  0  0  0  0  0  0  0
   -0.9648   -1.2729   -0.2707 S   0  0  0  0  0  0  0  0  0  0  0  0
   -2.0447   -0.3896   -1.4495 C   0  0  2  0  0  0  0  0  0  0  0  0
   -1.7100    0.9644   -1.8338 C   0  0  2  0  0  0  0  0  0  0  0  0
   -0.4841    1.4791   -1.2174 N   0  0  0  0  0  0  0  0  0  0  0  0
    0.7140    1.6972   -1.9739 C   0  0  0  0  0  0  0  0  0  0  0  0
    0.7312    1.4901   -3.2171 O   0  0  0  0  0  0  0  0  0  0  0  0
    1.9733    2.1016   -1.2806 C   0  0  0  0  0  0  0  0  0  0  0  0
    2.6694    0.9297   -0.8687 O   0  0  0  0  0  0  0  0  0  0  0  0
    3.8966    0.9298   -0.1912 C   0  0  0  0  0  0  0  0  0  0  0  0
    4.4762   -0.3040    0.1325 C   0  0  0  0  0  0  0  0  0  0  0  0
    5.7011   -0.3575    0.8043 C   0  0  0  0  0  0  0  0  0  0  0  0
    6.3564    0.8243    1.1597 C   0  0  0  0  0  0  0  0  0  0  0  0
    5.7858    2.0615    0.8464 C   0  0  0  0  0  0  0  0  0  0  0  0
    4.5611    2.1186    0.1724 C   0  0  0  0  0  0  0  0  0  0  0  0
   -2.9275    1.4136   -1.0889 C   0  0  0  0  0  0  0  0  0  0  0  0
   -3.4802    2.5216   -0.8641 O   0  0  0  0  0  0  0  0  0  0  0  0
   -3.1661    0.0158   -0.6608 N   0  0  0  0  0  0  0  0  0  0  0  0
   -3.4999   -0.5922    0.6014 C   0  0  1  0  0  0  0  0  0  0  0  0
   -4.9275   -1.0786    0.6049 C   0  0  0  0  0  0  0  0  0  0  0  0
   -5.5746   -1.0868    1.6844 O   0  0  0  0  0  0  0  0  0  0  0  0
   -5.5463   -1.5301   -0.5589 O   0  0  0  0  0  0  0  0  0  0  0  0
   -3.2306   -3.1219   -0.6350 H   0  0  0  0  0  0  0  0  0  0  0  0
   -2.0483   -3.8365    0.5133 H   0  0  0  0  0  0  0  0  0  0  0  0
   -3.7101   -3.4492    1.0799 H   0  0  0  0  0  0  0  0  0  0  0  0
   -1.5044   -0.7207    2.5518 H   0  0  0  0  0  0  0  0  0  0  0  0
   -1.1532   -2.4811    2.4300 H   0  0  0  0  0  0  0  0  0  0  0  0
   -2.7871   -1.9223    2.9595 H   0  0  0  0  0  0  0  0  0  0  0  0
   -2.3677   -1.0273   -2.3002 H   0  0  0  0  0  0  0  0  0  0  0  0
   -1.7884    1.1639   -2.9249 H   0  0  0  0  0  0  0  0  0  0  0  0
   -0.4509    1.6135   -0.1808 H   0  0  0  0  0  0  0  0  0  0  0  0
    2.6080    2.6933   -1.9762 H   0  0  0  0  0  0  0  0  0  0  0  0
    1.7272    2.7275   -0.3961 H   0  0  0  0  0  0  0  0  0  0  0  0
    3.9746   -1.2246   -0.1393 H   0  0  0  0  0  0  0  0  0  0  0  0
    6.1421   -1.3159    1.0474 H   0  0  0  0  0  0  0  0  0  0  0  0
    7.3051    0.7821    1.6794 H   0  0  0  0  0  0  0  0  0  0  0  0
    6.2936    2.9769    1.1234 H   0  0  0  0  0  0  0  0  0  0  0  0
    4.1409    3.0892   -0.0580 H   0  0  0  0  0  0  0  0  0  0  0  0
   -3.4045    0.1963    1.3816 H   0  0  0  0  0  0  0  0  0  0  0  0
   -5.0571   -1.5670   -1.4445 H   0  0  0  0  0  0  0  0  0  0  0  0
  1  2  1  0
  2  3  1  0
  2  4  1  0
  5  4  1  0
  5  6  1  0
  6  7  1  0
  7  8  1  0
  8  9  2  0
  8 10  1  0
 10 11  1  0
 11 12  1  0
 12 13  2  0
 13 14  1  0
 14 15  2  0
 15 16  1  0
 16 17  2  0
 17 12  1  0
  6 18  1  0
 18 19  2  0
 18 20  1  0
 20  5  1  0
 20 21  1  0
 21  2  1  0
 21 22  1  0
 22 23  2  0
 22 24  1  0
  1 25  1  0
  1 26  1  0
  1 27  1  0
  3 28  1  0
  3 29  1  0
  3 30  1  0
  5 31  1  6
  6 32  1  6
  7 33  1  0
 10 34  1  0
 10 35  1  0
 13 36  1  0
 14 37  1  0
 15 38  1  0
 16 39  1  0
 17 40  1  0
 21 41  1  1
 24 42  1  0
M  END
> <ID>
HT1615

> <Class>
1.0

> <Clusters>
18

> <Fold>
5

$$$$