
     RDKit          3D

 52 55  0  0  0  0  0  0  0  0999 V2000
    6.4504   -3.2439    1.9032 O   0  0  0  0  0  0  0  0  0  0  0  0
    6.0430   -2.3567    0.8997 C   0  0  0  0  0  0  0  0  0  0  0  0
    4.6133   -1.8989    1.1724 C   0  0  0  0  0  0  0  0  0  0  0  0
    4.1582   -1.0720    0.1177 O   0  0  0  0  0  0  0  0  0  0  0  0
    4.2672    0.2927    0.4684 C   0  0  0  0  0  0  0  0  0  0  0  0
    3.8835    1.1780   -0.7321 C   0  0  0  0  0  0  0  0  0  0  0  0
    2.4306    1.2741   -1.0030 N   0  0  0  0  0  0  0  0  0  0  0  0
    1.7926   -0.0230   -1.2988 C   0  0  0  0  0  0  0  0  0  0  0  0
    0.3780    0.2105   -1.8338 C   0  0  0  0  0  0  0  0  0  0  0  0
   -0.3640    1.0551   -0.8889 N   0  0  0  0  0  0  0  0  0  0  0  0
    0.2706    2.3109   -0.4678 C   0  0  0  0  0  0  0  0  0  0  0  0
    1.6874    2.0204    0.0320 C   0  0  0  0  0  0  0  0  0  0  0  0
   -1.6260    0.6256   -0.3375 C   0  0  0  0  0  0  0  0  0  0  0  0
   -1.9401    0.9874    0.8796 N   0  0  0  0  0  0  0  0  0  0  0  0
   -3.1434    0.6755    1.6036 C   0  0  0  0  0  0  0  0  0  0  0  0
   -3.7830    1.6967    2.3181 C   0  0  0  0  0  0  0  0  0  0  0  0
   -4.9725    1.4401    3.0065 C   0  0  0  0  0  0  0  0  0  0  0  0
   -5.5249    0.1569    2.9958 C   0  0  0  0  0  0  0  0  0  0  0  0
   -4.8779   -0.8773    2.3147 C   0  0  0  0  0  0  0  0  0  0  0  0
   -3.6772   -0.6292    1.6388 C   0  0  0  0  0  0  0  0  0  0  0  0
   -2.8165   -1.9817    0.8456 S   0  0  0  0  0  0  0  0  0  0  0  0
   -3.2056   -1.3050   -0.7628 C   0  0  0  0  0  0  0  0  0  0  0  0
   -4.1398   -1.9540   -1.5785 C   0  0  0  0  0  0  0  0  0  0  0  0
   -4.4311   -1.4498   -2.8481 C   0  0  0  0  0  0  0  0  0  0  0  0
   -3.7928   -0.2945   -3.3048 C   0  0  0  0  0  0  0  0  0  0  0  0
   -2.8719    0.3672   -2.4877 C   0  0  0  0  0  0  0  0  0  0  0  0
   -2.5800   -0.1224   -1.2037 C   0  0  0  0  0  0  0  0  0  0  0  0
    7.3648   -3.5388    1.6551 H   0  0  0  0  0  0  0  0  0  0  0  0
    6.7210   -1.4752    0.8835 H   0  0  0  0  0  0  0  0  0  0  0  0
    6.0835   -2.8632   -0.0909 H   0  0  0  0  0  0  0  0  0  0  0  0
    3.9592   -2.7960    1.2068 H   0  0  0  0  0  0  0  0  0  0  0  0
    4.5503   -1.4232    2.1804 H   0  0  0  0  0  0  0  0  0  0  0  0
    3.6293    0.5302    1.3455 H   0  0  0  0  0  0  0  0  0  0  0  0
    5.3216    0.5337    0.7346 H   0  0  0  0  0  0  0  0  0  0  0  0
    4.3998    0.7985   -1.6409 H   0  0  0  0  0  0  0  0  0  0  0  0
    4.2877    2.2000   -0.5614 H   0  0  0  0  0  0  0  0  0  0  0  0
    1.7250   -0.6489   -0.3815 H   0  0  0  0  0  0  0  0  0  0  0  0
    2.3777   -0.5734   -2.0678 H   0  0  0  0  0  0  0  0  0  0  0  0
    0.4326    0.7224   -2.8189 H   0  0  0  0  0  0  0  0  0  0  0  0
   -0.1184   -0.7735   -1.9775 H   0  0  0  0  0  0  0  0  0  0  0  0
    0.3213    3.0008   -1.3379 H   0  0  0  0  0  0  0  0  0  0  0  0
   -0.3091    2.8198    0.3316 H   0  0  0  0  0  0  0  0  0  0  0  0
    1.6170    1.4364    0.9751 H   0  0  0  0  0  0  0  0  0  0  0  0
    2.1912    2.9876    0.2488 H   0  0  0  0  0  0  0  0  0  0  0  0
   -3.3690    2.6974    2.3217 H   0  0  0  0  0  0  0  0  0  0  0  0
   -5.4692    2.2379    3.5432 H   0  0  0  0  0  0  0  0  0  0  0  0
   -6.4482   -0.0388    3.5256 H   0  0  0  0  0  0  0  0  0  0  0  0
   -5.2994   -1.8744    2.3298 H   0  0  0  0  0  0  0  0  0  0  0  0
   -4.6319   -2.8547   -1.2342 H   0  0  0  0  0  0  0  0  0  0  0  0
   -5.1484   -1.9572   -3.4801 H   0  0  0  0  0  0  0  0  0  0  0  0
   -4.0176    0.0933   -4.2899 H   0  0  0  0  0  0  0  0  0  0  0  0
   -2.3988    1.2719   -2.8496 H   0  0  0  0  0  0  0  0  0  0  0  0
  1  2  1  0
  2  3  1  0
  3  4  1  0
  4  5  1  0
  5  6  1  0
  6  7  1  0
  7  8  1  0
  8  9  1  0
  9 10  1  0
 10 11  1  0
 11 12  1  0
 12  7  1  0
 10 13  1  0
 13 14  2  0
 14 15  1  0
 15 16  2  0
 16 17  1  0
 17 18  2  0
 18 19  1  0
 19 20  2  0
 20 15  1  0
 20 21  1  0
 21 22  1  0
 22 23  2  0
 23 24  1  0
 24 25  2  0
 25 26  1  0
 26 27  2  0
 27 13  1  0
 27 22  1  0
  1 28  1  0
  2 29  1  0
  2 30  1  0
  3 31  1  0
  3 32  1  0
  5 33  1  0
  5 34  1  0
  6 35  1  0
  6 36  1  0
  8 37  1  0
  8 38  1  0
  9 39  1  0
  9 40  1  0
 11 41  1  0
 11 42  1  0
 12 43  1  0
 12 44  1  0
 16 45  1  0
 17 46  1  0
 18 47  1  0
 19 48  1  0
 23 49  1  0
 24 50  1  0
 25 51  1  0
 26 52  1  0
M  END
> <ID>
HT1786

> <Class>
1.0

> <Clusters>
240

> <Fold>
5

$$$$