
     RDKit          3D

 33 34  0  0  0  0  0  0  0  0999 V2000
   -4.5739   -0.7740    0.1505 C   0  0  0  0  0  0  0  0  0  0  0  0
   -3.4815   -1.5029    1.3529 S   0  0  0  0  0  0  0  0  0  0  0  0
   -3.7218   -2.9860    1.3749 O   0  0  0  0  0  0  0  0  0  0  0  0
   -3.7609   -0.9467    2.7207 O   0  0  0  0  0  0  0  0  0  0  0  0
   -1.8266   -1.2097    0.9176 N   0  0  0  0  0  0  0  0  0  0  0  0
   -1.2809    0.0980    0.6568 C   0  0  0  0  0  0  0  0  0  0  0  0
   -1.8998    1.2591    1.1529 C   0  0  0  0  0  0  0  0  0  0  0  0
   -1.3568    2.5200    0.9005 C   0  0  0  0  0  0  0  0  0  0  0  0
   -0.1832    2.6537    0.1447 C   0  0  0  0  0  0  0  0  0  0  0  0
    0.4438    1.4961   -0.3454 C   0  0  0  0  0  0  0  0  0  0  0  0
   -0.0854    0.2202   -0.0784 C   0  0  0  0  0  0  0  0  0  0  0  0
    0.5308   -0.9361   -0.5831 O   0  0  0  0  0  0  0  0  0  0  0  0
    1.9125   -1.1189   -0.7424 C   0  0  0  0  0  0  0  0  0  0  0  0
    2.8499   -0.4897    0.0987 C   0  0  0  0  0  0  0  0  0  0  0  0
    4.2185   -0.7115   -0.0836 C   0  0  0  0  0  0  0  0  0  0  0  0
    4.6605   -1.5687   -1.0949 C   0  0  0  0  0  0  0  0  0  0  0  0
    3.7339   -2.2112   -1.9205 C   0  0  0  0  0  0  0  0  0  0  0  0
    2.3646   -1.9914   -1.7404 C   0  0  0  0  0  0  0  0  0  0  0  0
    0.3650    3.9575   -0.1243 N   0  0  0  0  0  0  0  0  0  0  0  0
    1.4156    4.0828   -0.7874 O   0  0  0  0  0  0  0  0  0  0  0  0
   -0.2588    5.0895    0.3483 O   0  0  0  0  0  0  0  0  0  0  0  0
   -5.6224   -1.0475    0.3890 H   0  0  0  0  0  0  0  0  0  0  0  0
   -4.4741    0.3299    0.1635 H   0  0  0  0  0  0  0  0  0  0  0  0
   -4.3161   -1.1530   -0.8599 H   0  0  0  0  0  0  0  0  0  0  0  0
   -1.2386   -2.0548    0.7433 H   0  0  0  0  0  0  0  0  0  0  0  0
   -2.7982    1.2024    1.7488 H   0  0  0  0  0  0  0  0  0  0  0  0
   -1.8592    3.3926    1.2974 H   0  0  0  0  0  0  0  0  0  0  0  0
    1.3344    1.5851   -0.9534 H   0  0  0  0  0  0  0  0  0  0  0  0
    2.5241    0.1550    0.9043 H   0  0  0  0  0  0  0  0  0  0  0  0
    4.9361   -0.2242    0.5638 H   0  0  0  0  0  0  0  0  0  0  0  0
    5.7200   -1.7407   -1.2340 H   0  0  0  0  0  0  0  0  0  0  0  0
    4.0763   -2.8808   -2.6989 H   0  0  0  0  0  0  0  0  0  0  0  0
    1.6524   -2.4943   -2.3822 H   0  0  0  0  0  0  0  0  0  0  0  0
  1  2  1  0
  2  3  2  0
  2  4  2  0
  2  5  1  0
  5  6  1  0
  6  7  2  0
  7  8  1  0
  8  9  2  0
  9 10  1  0
 10 11  2  0
 11  6  1  0
 11 12  1  0
 12 13  1  0
 13 14  2  0
 14 15  1  0
 15 16  2  0
 16 17  1  0
 17 18  2  0
 18 13  1  0
  9 19  1  0
 19 20  2  0
 19 21  1  0
  1 22  1  0
  1 23  1  0
  1 24  1  0
  5 25  1  0
  7 26  1  0
  8 27  1  0
 10 28  1  0
 14 29  1  0
 15 30  1  0
 16 31  1  0
 17 32  1  0
 18 33  1  0
M  CHG  2  19   1  21  -1
M  END
> <ID>
HT1495

> <Class>
1.0

> <Clusters>
272

> <Fold>
5

$$$$