
     RDKit          3D

 63 66  0  0  0  0  0  0  0  0999 V2000
   -8.1735    2.5143    1.5542 C   0  0  0  0  0  0  0  0  0  0  0  0
   -7.8201    1.2630    0.7571 C   0  0  0  0  0  0  0  0  0  0  0  0
   -6.4675    1.3752    0.1981 N   0  0  0  0  0  0  0  0  0  0  0  0
   -5.2924    1.2203    1.0663 C   0  0  0  0  0  0  0  0  0  0  0  0
   -4.2519    0.3122    0.3978 C   0  0  0  0  0  0  0  0  0  0  0  0
   -3.8854    0.8370   -0.9262 N   0  0  0  0  0  0  0  0  0  0  0  0
   -2.5196    0.7799   -1.3793 C   0  0  0  0  0  0  0  0  0  0  0  0
   -2.0691    1.6889   -2.1290 O   0  0  0  0  0  0  0  0  0  0  0  0
   -1.6660   -0.3051   -0.9795 N   0  0  0  0  0  0  0  0  0  0  0  0
   -0.2372   -0.3290   -1.3170 C   0  0  1  0  0  0  0  0  0  0  0  0
    0.5215    0.7080   -0.5298 C   0  0  0  0  0  0  0  0  0  0  0  0
    0.0338    1.1804    0.5330 O   0  0  0  0  0  0  0  0  0  0  0  0
    1.8232    1.1168   -0.9678 N   0  0  0  0  0  0  0  0  0  0  0  0
    2.6552    2.0253   -0.1744 C   0  0  1  0  0  0  0  0  0  0  0  0
    3.3909    1.3868    0.8968 C   0  0  1  0  0  0  0  0  0  0  0  0
    3.2023   -0.4129    1.1708 S   0  0  0  0  0  0  0  0  0  0  0  0
    4.8537   -0.8270    0.4306 C   0  0  0  0  0  0  0  0  0  0  0  0
    5.5625   -1.8542    1.3344 C   0  0  0  0  0  0  0  0  0  0  0  0
    4.5856   -1.4854   -0.9351 C   0  0  0  0  0  0  0  0  0  0  0  0
    5.6590    0.5003    0.2218 C   0  0  1  0  0  0  0  0  0  0  0  0
    4.6533    1.5308    0.2388 N   0  0  0  0  0  0  0  0  0  0  0  0
    3.9720    2.2900   -0.8362 C   0  0  0  0  0  0  0  0  0  0  0  0
    4.3399    2.8624   -1.8965 O   0  0  0  0  0  0  0  0  0  0  0  0
    6.6929    0.8018    1.2805 C   0  0  0  0  0  0  0  0  0  0  0  0
    7.9093    0.8618    0.9593 O   0  0  0  0  0  0  0  0  0  0  0  0
    6.3335    1.0272    2.6077 O   0  0  0  0  0  0  0  0  0  0  0  0
    0.3557   -1.6990   -1.0602 C   0  0  0  0  0  0  0  0  0  0  0  0
    0.3554   -2.2530    0.2340 C   0  0  0  0  0  0  0  0  0  0  0  0
    0.9281   -3.5080    0.4654 C   0  0  0  0  0  0  0  0  0  0  0  0
    1.4958   -4.2250   -0.5913 C   0  0  0  0  0  0  0  0  0  0  0  0
    1.4966   -3.6868   -1.8793 C   0  0  0  0  0  0  0  0  0  0  0  0
    0.9330   -2.4292   -2.1146 C   0  0  0  0  0  0  0  0  0  0  0  0
   -4.9196    1.3813   -1.7701 C   0  0  0  0  0  0  0  0  0  0  0  0
   -4.6946    1.6430   -2.9830 O   0  0  0  0  0  0  0  0  0  0  0  0
   -6.2565    1.6120   -1.2044 C   0  0  0  0  0  0  0  0  0  0  0  0
   -7.1998    2.0072   -1.9413 O   0  0  0  0  0  0  0  0  0  0  0  0
   -9.2253    2.4488    1.9047 H   0  0  0  0  0  0  0  0  0  0  0  0
   -8.0670    3.4173    0.9162 H   0  0  0  0  0  0  0  0  0  0  0  0
   -7.5081    2.6131    2.4401 H   0  0  0  0  0  0  0  0  0  0  0  0
   -7.8816    0.3686    1.4150 H   0  0  0  0  0  0  0  0  0  0  0  0
   -8.5734    1.1267   -0.0502 H   0  0  0  0  0  0  0  0  0  0  0  0
   -4.8424    2.2215    1.2476 H   0  0  0  0  0  0  0  0  0  0  0  0
   -5.5814    0.7856    2.0482 H   0  0  0  0  0  0  0  0  0  0  0  0
   -3.3592    0.2500    1.0592 H   0  0  0  0  0  0  0  0  0  0  0  0
   -4.6751   -0.7093    0.2815 H   0  0  0  0  0  0  0  0  0  0  0  0
   -2.1003   -1.1315   -0.5067 H   0  0  0  0  0  0  0  0  0  0  0  0
   -0.1363   -0.0773   -2.3964 H   0  0  0  0  0  0  0  0  0  0  0  0
    2.1655    0.7787   -1.8973 H   0  0  0  0  0  0  0  0  0  0  0  0
    2.1309    2.9630    0.1136 H   0  0  0  0  0  0  0  0  0  0  0  0
    3.3683    1.9641    1.8476 H   0  0  0  0  0  0  0  0  0  0  0  0
    4.9862   -2.8040    1.3713 H   0  0  0  0  0  0  0  0  0  0  0  0
    5.6432   -1.4807    2.3758 H   0  0  0  0  0  0  0  0  0  0  0  0
    6.5808   -2.0757    0.9484 H   0  0  0  0  0  0  0  0  0  0  0  0
    4.0636   -0.7806   -1.6157 H   0  0  0  0  0  0  0  0  0  0  0  0
    3.9479   -2.3873   -0.8174 H   0  0  0  0  0  0  0  0  0  0  0  0
    5.5403   -1.7934   -1.4141 H   0  0  0  0  0  0  0  0  0  0  0  0
    6.1629    0.5014   -0.7719 H   0  0  0  0  0  0  0  0  0  0  0  0
    5.3693    0.9830    2.9116 H   0  0  0  0  0  0  0  0  0  0  0  0
   -0.0772   -1.7060    1.0627 H   0  0  0  0  0  0  0  0  0  0  0  0
    0.9347   -3.9241    1.4644 H   0  0  0  0  0  0  0  0  0  0  0  0
    1.9398   -5.1957   -0.4128 H   0  0  0  0  0  0  0  0  0  0  0  0
    1.9409   -4.2426   -2.6956 H   0  0  0  0  0  0  0  0  0  0  0  0
    0.9530   -2.0248   -3.1184 H   0  0  0  0  0  0  0  0  0  0  0  0
  1  2  1  0
  2  3  1  0
  3  4  1  0
  4  5  1  0
  5  6  1  0
  6  7  1  0
  7  8  2  0
  7  9  1  0
  9 10  1  0
 10 11  1  0
 11 12  2  0
 11 13  1  0
 14 13  1  0
 14 15  1  0
 15 16  1  0
 16 17  1  0
 17 18  1  0
 17 19  1  0
 17 20  1  0
 20 21  1  0
 21 15  1  0
 21 22  1  0
 22 14  1  0
 22 23  2  0
 20 24  1  0
 24 25  2  0
 24 26  1  0
 10 27  1  0
 27 28  2  0
 28 29  1  0
 29 30  2  0
 30 31  1  0
 31 32  2  0
 32 27  1  0
  6 33  1  0
 33 34  2  0
 33 35  1  0
 35  3  1  0
 35 36  2  0
  1 37  1  0
  1 38  1  0
  1 39  1  0
  2 40  1  0
  2 41  1  0
  4 42  1  0
  4 43  1  0
  5 44  1  0
  5 45  1  0
  9 46  1  0
 10 47  1  6
 13 48  1  0
 14 49  1  1
 15 50  1  1
 18 51  1  0
 18 52  1  0
 18 53  1  0
 19 54  1  0
 19 55  1  0
 19 56  1  0
 20 57  1  6
 26 58  1  0
 28 59  1  0
 29 60  1  0
 30 61  1  0
 31 62  1  0
 32 63  1  0
M  END
> <ID>
HT1682

> <Class>
1.0

> <Clusters>
18

> <Fold>
5

$$$$