
     RDKit          3D

 48 49  0  0  0  0  0  0  0  0999 V2000
   -5.1643    2.0022    0.1306 C   0  0  0  0  0  0  0  0  0  0  0  0
   -4.2633    0.9131   -0.4521 C   0  0  0  0  0  0  0  0  0  0  0  0
   -3.4720    0.2712    0.6265 N   0  0  0  0  0  0  0  0  0  0  0  0
   -4.2168   -0.8577    1.2365 C   0  0  0  0  0  0  0  0  0  0  0  0
   -3.8388   -1.0078    2.7113 C   0  0  0  0  0  0  0  0  0  0  0  0
   -2.1464   -0.1759    0.1297 C   0  0  0  0  0  0  0  0  0  0  0  0
   -1.1383    0.9847    0.2052 C   0  0  0  0  0  0  0  0  0  0  0  0
    0.2947    0.5551   -0.1763 C   0  0  0  0  0  0  0  0  0  0  0  0
    0.6703    0.8451   -1.6508 C   0  0  0  0  0  0  0  0  0  0  0  0
   -0.1499    0.0212   -2.6520 C   0  0  0  0  0  0  0  0  0  0  0  0
    2.1100    0.6403   -1.8734 N   0  0  0  0  0  0  0  0  0  0  0  0
    2.8465   -0.4729   -1.3329 C   0  0  0  0  0  0  0  0  0  0  0  0
    2.5896   -1.7747   -1.7905 C   0  0  0  0  0  0  0  0  0  0  0  0
    3.3152   -2.8499   -1.2734 C   0  0  0  0  0  0  0  0  0  0  0  0
    4.2866   -2.6390   -0.3466 N   0  0  0  0  0  0  0  0  0  0  0  0
    4.5747   -1.3940    0.1171 C   0  0  0  0  0  0  0  0  0  0  0  0
    5.5977   -1.2236    1.0617 C   0  0  0  0  0  0  0  0  0  0  0  0
    5.8978    0.0524    1.5515 C   0  0  0  0  0  0  0  0  0  0  0  0
    7.1750    0.2575    2.7409 Cl  0  0  0  0  0  0  0  0  0  0  0  0
    5.1781    1.1628    1.0964 C   0  0  0  0  0  0  0  0  0  0  0  0
    4.1620    1.0075    0.1459 C   0  0  0  0  0  0  0  0  0  0  0  0
    3.8535   -0.2713   -0.3625 C   0  0  0  0  0  0  0  0  0  0  0  0
   -5.7738    2.4550   -0.6821 H   0  0  0  0  0  0  0  0  0  0  0  0
   -4.5414    2.7900    0.6006 H   0  0  0  0  0  0  0  0  0  0  0  0
   -5.8464    1.5889    0.9034 H   0  0  0  0  0  0  0  0  0  0  0  0
   -3.6067    1.4037   -1.2056 H   0  0  0  0  0  0  0  0  0  0  0  0
   -4.8763    0.1665   -1.0046 H   0  0  0  0  0  0  0  0  0  0  0  0
   -4.0262   -1.8097    0.6938 H   0  0  0  0  0  0  0  0  0  0  0  0
   -5.3160   -0.6829    1.2051 H   0  0  0  0  0  0  0  0  0  0  0  0
   -4.4239   -1.8337    3.1649 H   0  0  0  0  0  0  0  0  0  0  0  0
   -4.0682   -0.0652    3.2553 H   0  0  0  0  0  0  0  0  0  0  0  0
   -2.7591   -1.2392    2.8252 H   0  0  0  0  0  0  0  0  0  0  0  0
   -2.2268   -0.5766   -0.9066 H   0  0  0  0  0  0  0  0  0  0  0  0
   -1.7447   -1.0065    0.7612 H   0  0  0  0  0  0  0  0  0  0  0  0
   -1.1239    1.3489    1.2576 H   0  0  0  0  0  0  0  0  0  0  0  0
   -1.4710    1.8367   -0.4266 H   0  0  0  0  0  0  0  0  0  0  0  0
    0.4584   -0.5202    0.0588 H   0  0  0  0  0  0  0  0  0  0  0  0
    0.9998    1.1292    0.4658 H   0  0  0  0  0  0  0  0  0  0  0  0
    0.4521    1.9187   -1.8540 H   0  0  0  0  0  0  0  0  0  0  0  0
   -1.1698    0.4491   -2.7488 H   0  0  0  0  0  0  0  0  0  0  0  0
   -0.2348   -1.0388   -2.3260 H   0  0  0  0  0  0  0  0  0  0  0  0
    0.3225    0.0558   -3.6589 H   0  0  0  0  0  0  0  0  0  0  0  0
    2.6575    1.4433   -2.2560 H   0  0  0  0  0  0  0  0  0  0  0  0
    1.8659   -1.9536   -2.5695 H   0  0  0  0  0  0  0  0  0  0  0  0
    3.1241   -3.8531   -1.6297 H   0  0  0  0  0  0  0  0  0  0  0  0
    6.1559   -2.0827    1.4196 H   0  0  0  0  0  0  0  0  0  0  0  0
    5.3952    2.1452    1.4940 H   0  0  0  0  0  0  0  0  0  0  0  0
    3.6157    1.8853   -0.1752 H   0  0  0  0  0  0  0  0  0  0  0  0
  1  2  1  0
  2  3  1  0
  3  4  1  0
  4  5  1  0
  3  6  1  0
  6  7  1  0
  7  8  1  0
  8  9  1  0
  9 10  1  0
  9 11  1  0
 11 12  1  0
 12 13  2  0
 13 14  1  0
 14 15  2  0
 15 16  1  0
 16 17  2  0
 17 18  1  0
 18 19  1  0
 18 20  2  0
 20 21  1  0
 21 22  2  0
 22 12  1  0
 22 16  1  0
  1 23  1  0
  1 24  1  0
  1 25  1  0
  2 26  1  0
  2 27  1  0
  4 28  1  0
  4 29  1  0
  5 30  1  0
  5 31  1  0
  5 32  1  0
  6 33  1  0
  6 34  1  0
  7 35  1  0
  7 36  1  0
  8 37  1  0
  8 38  1  0
  9 39  1  0
 10 40  1  0
 10 41  1  0
 10 42  1  0
 11 43  1  0
 13 44  1  0
 14 45  1  0
 17 46  1  0
 20 47  1  0
 21 48  1  0
M  END
> <ID>
HT0459

> <Class>
1.0

> <Clusters>
52

> <Fold>
5

$$$$