
     RDKit          3D

 29 30  0  0  0  0  0  0  0  0999 V2000
   -0.7976   -2.1011    0.1201 C   0  0  0  0  0  0  0  0  0  0  0  0
   -1.1686   -0.7550   -0.3416 N   0  0  0  0  0  0  0  0  0  0  0  0
   -0.2587    0.4089   -0.3079 C   0  0  0  0  0  0  0  0  0  0  0  0
    1.2098    0.0570   -0.0831 C   0  0  0  0  0  0  0  0  0  0  0  0
    1.8711   -0.6751   -1.0887 C   0  0  0  0  0  0  0  0  0  0  0  0
    3.2160   -1.0278   -0.9517 C   0  0  0  0  0  0  0  0  0  0  0  0
    3.9268   -0.6472    0.1880 C   0  0  0  0  0  0  0  0  0  0  0  0
    5.6156   -1.0895    0.3593 Cl  0  0  0  0  0  0  0  0  0  0  0  0
    3.2915    0.0908    1.1891 C   0  0  0  0  0  0  0  0  0  0  0  0
    1.9452    0.4456    1.0572 C   0  0  0  0  0  0  0  0  0  0  0  0
   -0.9757    1.6222    0.8045 S   0  0  0  0  0  0  0  0  0  0  0  0
   -0.8906    1.1576    2.2318 O   0  0  0  0  0  0  0  0  0  0  0  0
   -0.2842    2.9480    0.6532 O   0  0  0  0  0  0  0  0  0  0  0  0
   -2.7087    1.7661    0.3615 C   0  0  0  0  0  0  0  0  0  0  0  0
   -3.0497    0.9057   -0.8642 C   0  0  0  0  0  0  0  0  0  0  0  0
   -2.5468   -0.5074   -0.6992 C   0  0  0  0  0  0  0  0  0  0  0  0
   -3.3496   -1.4689   -0.8475 O   0  0  0  0  0  0  0  0  0  0  0  0
   -0.8005   -2.8026   -0.7401 H   0  0  0  0  0  0  0  0  0  0  0  0
   -1.5298   -2.4531    0.8777 H   0  0  0  0  0  0  0  0  0  0  0  0
    0.1975   -2.1296    0.6043 H   0  0  0  0  0  0  0  0  0  0  0  0
   -0.2847    0.8852   -1.3128 H   0  0  0  0  0  0  0  0  0  0  0  0
    1.3374   -0.9801   -1.9807 H   0  0  0  0  0  0  0  0  0  0  0  0
    3.7040   -1.5964   -1.7331 H   0  0  0  0  0  0  0  0  0  0  0  0
    3.8414    0.3939    2.0711 H   0  0  0  0  0  0  0  0  0  0  0  0
    1.5046    1.0260    1.8506 H   0  0  0  0  0  0  0  0  0  0  0  0
   -3.3300    1.4393    1.2228 H   0  0  0  0  0  0  0  0  0  0  0  0
   -2.9478    2.8289    0.1460 H   0  0  0  0  0  0  0  0  0  0  0  0
   -2.5870    1.3527   -1.7697 H   0  0  0  0  0  0  0  0  0  0  0  0
   -4.1508    0.9057   -1.0167 H   0  0  0  0  0  0  0  0  0  0  0  0
  1  2  1  0
  2  3  1  0
  3  4  1  0
  4  5  2  0
  5  6  1  0
  6  7  2  0
  7  8  1  0
  7  9  1  0
  9 10  2  0
 10  4  1  0
  3 11  1  0
 11 12  2  0
 11 13  2  0
 11 14  1  0
 14 15  1  0
 15 16  1  0
 16  2  1  0
 16 17  2  0
  1 18  1  0
  1 19  1  0
  1 20  1  0
  3 21  1  0
  5 22  1  0
  6 23  1  0
  9 24  1  0
 10 25  1  0
 14 26  1  0
 14 27  1  0
 15 28  1  0
 15 29  1  0
M  END
> <ID>
HT0455

> <Class>
1.0

> <Clusters>
249

> <Fold>
5

$$$$