
     RDKit          3D

 20 20  0  0  0  0  0  0  0  0999 V2000
    3.7961   -0.0846   -0.1080 C   0  0  0  0  0  0  0  0  0  0  0  0
    2.3577   -0.4772   -0.2034 C   0  0  0  0  0  0  0  0  0  0  0  0
    2.0546   -1.6918   -0.3519 O   0  0  0  0  0  0  0  0  0  0  0  0
    1.3398    0.5349   -0.1672 N   0  0  0  0  0  0  0  0  0  0  0  0
   -0.0681    0.2617   -0.0622 C   0  0  0  0  0  0  0  0  0  0  0  0
   -0.9840    1.1219   -0.6877 C   0  0  0  0  0  0  0  0  0  0  0  0
   -2.3589    0.8912   -0.5825 C   0  0  0  0  0  0  0  0  0  0  0  0
   -2.8349   -0.1944    0.1643 C   0  0  0  0  0  0  0  0  0  0  0  0
   -4.2023   -0.4350    0.2763 O   0  0  0  0  0  0  0  0  0  0  0  0
   -1.9291   -1.0424    0.8088 C   0  0  0  0  0  0  0  0  0  0  0  0
   -0.5533   -0.8142    0.7041 C   0  0  0  0  0  0  0  0  0  0  0  0
    3.9746    0.4370    0.8553 H   0  0  0  0  0  0  0  0  0  0  0  0
    4.4515   -0.9801   -0.1595 H   0  0  0  0  0  0  0  0  0  0  0  0
    4.0520    0.5970   -0.9458 H   0  0  0  0  0  0  0  0  0  0  0  0
    1.6382    1.5265   -0.3112 H   0  0  0  0  0  0  0  0  0  0  0  0
   -0.6300    1.9662   -1.2660 H   0  0  0  0  0  0  0  0  0  0  0  0
   -3.0527    1.5575   -1.0792 H   0  0  0  0  0  0  0  0  0  0  0  0
   -4.8839    0.1621   -0.1774 H   0  0  0  0  0  0  0  0  0  0  0  0
   -2.2920   -1.8740    1.3993 H   0  0  0  0  0  0  0  0  0  0  0  0
    0.1247   -1.4621    1.2429 H   0  0  0  0  0  0  0  0  0  0  0  0
  1  2  1  0
  2  3  2  0
  2  4  1  0
  4  5  1  0
  5  6  2  0
  6  7  1  0
  7  8  2  0
  8  9  1  0
  8 10  1  0
 10 11  2  0
 11  5  1  0
  1 12  1  0
  1 13  1  0
  1 14  1  0
  4 15  1  0
  6 16  1  0
  7 17  1  0
  9 18  1  0
 10 19  1  0
 11 20  1  0
M  END
> <ID>
HT0053

> <Class>
1.0

> <Clusters>
2

> <Fold>
5

$$$$