
     RDKit          3D

 19 18  0  0  0  0  0  0  0  0999 V2000
    3.1048    0.3948   -0.0633 C   0  0  0  0  0  0  0  0  0  0  0  0
    1.8075   -0.0815    0.5071 C   0  0  0  0  0  0  0  0  0  0  0  0
    1.7556   -0.4019    1.7251 O   0  0  0  0  0  0  0  0  0  0  0  0
    0.6367   -0.1703   -0.3198 N   0  0  0  0  0  0  0  0  0  0  0  0
   -0.6779   -0.5477    0.2159 C   0  0  1  0  0  0  0  0  0  0  0  0
   -1.4436    0.7031    0.6741 C   0  0  0  0  0  0  0  0  0  0  0  0
   -1.7625    1.8563   -0.7034 S   0  0  0  0  0  0  0  0  0  0  0  0
   -1.4760   -1.3470   -0.7878 C   0  0  0  0  0  0  0  0  0  0  0  0
   -1.0892   -1.4549   -1.9821 O   0  0  0  0  0  0  0  0  0  0  0  0
   -2.6533   -1.9814   -0.4004 O   0  0  0  0  0  0  0  0  0  0  0  0
    3.4347    1.3071    0.4761 H   0  0  0  0  0  0  0  0  0  0  0  0
    3.8746   -0.3963    0.0541 H   0  0  0  0  0  0  0  0  0  0  0  0
    3.0022    0.6350   -1.1422 H   0  0  0  0  0  0  0  0  0  0  0  0
    0.6940    0.2063   -1.2933 H   0  0  0  0  0  0  0  0  0  0  0  0
   -0.5359   -1.2066    1.1003 H   0  0  0  0  0  0  0  0  0  0  0  0
   -0.8506    1.2328    1.4500 H   0  0  0  0  0  0  0  0  0  0  0  0
   -2.4133    0.4109    1.1304 H   0  0  0  0  0  0  0  0  0  0  0  0
   -2.4217    2.7759    0.1341 H   0  0  0  0  0  0  0  0  0  0  0  0
   -2.9862   -1.9346    0.5550 H   0  0  0  0  0  0  0  0  0  0  0  0
  1  2  1  0
  2  3  2  0
  2  4  1  0
  4  5  1  0
  5  6  1  0
  6  7  1  0
  5  8  1  0
  8  9  2  0
  8 10  1  0
  1 11  1  0
  1 12  1  0
  1 13  1  0
  4 14  1  0
  5 15  1  1
  6 16  1  0
  6 17  1  0
  7 18  1  0
 10 19  1  0
M  END
> <ID>
HT0063

> <Class>
1.0

> <Clusters>
5

> <Fold>
5

$$$$