
     RDKit          3D

 38 39  0  0  0  0  0  0  0  0999 V2000
    3.6615   -0.6569    1.0722 C   0  0  0  0  0  0  0  0  0  0  0  0
    3.2464   -0.7979   -0.3351 N   0  0  0  0  0  0  0  0  0  0  0  0
    4.3473   -0.3673   -1.2124 C   0  0  0  0  0  0  0  0  0  0  0  0
    2.0288   -0.0040   -0.6121 C   0  0  0  0  0  0  0  0  0  0  0  0
    0.7680   -0.7994   -0.2337 C   0  0  0  0  0  0  0  0  0  0  0  0
   -0.5308   -0.0527   -0.6197 C   0  0  1  0  0  0  0  0  0  0  0  0
   -1.7703   -0.9199   -0.4655 C   0  0  0  0  0  0  0  0  0  0  0  0
   -2.0347   -1.6327    0.7217 C   0  0  0  0  0  0  0  0  0  0  0  0
   -3.1914   -2.4087    0.8414 C   0  0  0  0  0  0  0  0  0  0  0  0
   -4.1007   -2.4823   -0.2167 C   0  0  0  0  0  0  0  0  0  0  0  0
   -5.5514   -3.4562   -0.0624 Cl  0  0  0  0  0  0  0  0  0  0  0  0
   -3.8529   -1.7780   -1.3975 C   0  0  0  0  0  0  0  0  0  0  0  0
   -2.6976   -1.0010   -1.5221 C   0  0  0  0  0  0  0  0  0  0  0  0
   -0.7020    1.2634    0.1106 C   0  0  0  0  0  0  0  0  0  0  0  0
   -0.6759    1.3503    1.5148 C   0  0  0  0  0  0  0  0  0  0  0  0
   -0.8416    2.5925    2.1300 C   0  0  0  0  0  0  0  0  0  0  0  0
   -1.0325    3.7345    1.3522 C   0  0  0  0  0  0  0  0  0  0  0  0
   -1.0539    3.6164   -0.0379 C   0  0  0  0  0  0  0  0  0  0  0  0
   -0.8904    2.3988   -0.6201 N   0  0  0  0  0  0  0  0  0  0  0  0
    2.8623   -1.0108    1.7549 H   0  0  0  0  0  0  0  0  0  0  0  0
    4.5546   -1.2876    1.2720 H   0  0  0  0  0  0  0  0  0  0  0  0
    3.9064    0.4005    1.3192 H   0  0  0  0  0  0  0  0  0  0  0  0
    4.0852   -0.5590   -2.2752 H   0  0  0  0  0  0  0  0  0  0  0  0
    4.5665    0.7162   -1.0808 H   0  0  0  0  0  0  0  0  0  0  0  0
    5.2667   -0.9534   -0.9963 H   0  0  0  0  0  0  0  0  0  0  0  0
    1.9578    0.2306   -1.6989 H   0  0  0  0  0  0  0  0  0  0  0  0
    2.0516    0.9690   -0.0705 H   0  0  0  0  0  0  0  0  0  0  0  0
    0.7779   -1.0200    0.8518 H   0  0  0  0  0  0  0  0  0  0  0  0
    0.7942   -1.7726   -0.7720 H   0  0  0  0  0  0  0  0  0  0  0  0
   -0.4311    0.1897   -1.7025 H   0  0  0  0  0  0  0  0  0  0  0  0
   -1.3496   -1.6016    1.5561 H   0  0  0  0  0  0  0  0  0  0  0  0
   -3.3792   -2.9529    1.7583 H   0  0  0  0  0  0  0  0  0  0  0  0
   -4.5557   -1.8296   -2.2193 H   0  0  0  0  0  0  0  0  0  0  0  0
   -2.5311   -0.4581   -2.4442 H   0  0  0  0  0  0  0  0  0  0  0  0
   -0.5201    0.4772    2.1313 H   0  0  0  0  0  0  0  0  0  0  0  0
   -0.8203    2.6699    3.2093 H   0  0  0  0  0  0  0  0  0  0  0  0
   -1.1615    4.7012    1.8215 H   0  0  0  0  0  0  0  0  0  0  0  0
   -1.2005    4.4926   -0.6551 H   0  0  0  0  0  0  0  0  0  0  0  0
  1  2  1  0
  2  3  1  0
  2  4  1  0
  4  5  1  0
  6  5  1  0
  6  7  1  0
  7  8  2  0
  8  9  1  0
  9 10  2  0
 10 11  1  0
 10 12  1  0
 12 13  2  0
 13  7  1  0
  6 14  1  0
 14 15  2  0
 15 16  1  0
 16 17  2  0
 17 18  1  0
 18 19  2  0
 19 14  1  0
  1 20  1  0
  1 21  1  0
  1 22  1  0
  3 23  1  0
  3 24  1  0
  3 25  1  0
  4 26  1  0
  4 27  1  0
  5 28  1  0
  5 29  1  0
  6 30  1  6
  8 31  1  0
  9 32  1  0
 12 33  1  0
 13 34  1  0
 15 35  1  0
 16 36  1  0
 17 37  1  0
 18 38  1  0
M  END
> <ID>
HT0465

> <Class>
1.0

> <Clusters>
0

> <Fold>
5

$$$$