
     RDKit          3D

 38 39  0  0  0  0  0  0  0  0999 V2000
    3.6837   -1.8330    0.6432 C   0  0  0  0  0  0  0  0  0  0  0  0
    3.0925   -0.5448    1.0473 N   0  0  0  0  0  0  0  0  0  0  0  0
    4.1625    0.4540    1.2046 C   0  0  0  0  0  0  0  0  0  0  0  0
    2.0979   -0.0806    0.0547 C   0  0  0  0  0  0  0  0  0  0  0  0
    0.7232   -0.7117    0.3328 C   0  0  0  0  0  0  0  0  0  0  0  0
   -0.3638   -0.1951   -0.6400 C   0  0  0  0  0  0  0  0  0  0  0  0
   -1.6458   -1.0097   -0.5716 C   0  0  0  0  0  0  0  0  0  0  0  0
   -2.2548   -1.3345    0.6580 C   0  0  0  0  0  0  0  0  0  0  0  0
   -3.4437   -2.0695    0.6885 C   0  0  0  0  0  0  0  0  0  0  0  0
   -4.0420   -2.4859   -0.5022 C   0  0  0  0  0  0  0  0  0  0  0  0
   -3.4528   -2.1677   -1.7271 C   0  0  0  0  0  0  0  0  0  0  0  0
   -2.2638   -1.4333   -1.7641 C   0  0  0  0  0  0  0  0  0  0  0  0
   -0.6597    1.2807   -0.4723 C   0  0  0  0  0  0  0  0  0  0  0  0
   -1.0733    1.8255    0.7571 C   0  0  0  0  0  0  0  0  0  0  0  0
   -1.3333    3.1941    0.8498 C   0  0  0  0  0  0  0  0  0  0  0  0
   -1.1830    4.0086   -0.2724 C   0  0  0  0  0  0  0  0  0  0  0  0
   -0.7719    3.4388   -1.4779 C   0  0  0  0  0  0  0  0  0  0  0  0
   -0.5229    2.1043   -1.5501 N   0  0  0  0  0  0  0  0  0  0  0  0
    4.2192   -1.7467   -0.3288 H   0  0  0  0  0  0  0  0  0  0  0  0
    4.4002   -2.1838    1.4171 H   0  0  0  0  0  0  0  0  0  0  0  0
    2.9010   -2.6139    0.5563 H   0  0  0  0  0  0  0  0  0  0  0  0
    4.9173    0.1006    1.9402 H   0  0  0  0  0  0  0  0  0  0  0  0
    4.6676    0.6588    0.2340 H   0  0  0  0  0  0  0  0  0  0  0  0
    3.7430    1.4025    1.6038 H   0  0  0  0  0  0  0  0  0  0  0  0
    2.4247   -0.3126   -0.9848 H   0  0  0  0  0  0  0  0  0  0  0  0
    1.9771    1.0245    0.1179 H   0  0  0  0  0  0  0  0  0  0  0  0
    0.7975   -1.8136    0.2171 H   0  0  0  0  0  0  0  0  0  0  0  0
    0.4430   -0.5040    1.3867 H   0  0  0  0  0  0  0  0  0  0  0  0
    0.0571   -0.3290   -1.6630 H   0  0  0  0  0  0  0  0  0  0  0  0
   -1.8136   -1.0317    1.5966 H   0  0  0  0  0  0  0  0  0  0  0  0
   -3.9016   -2.3169    1.6375 H   0  0  0  0  0  0  0  0  0  0  0  0
   -4.9627   -3.0543   -0.4756 H   0  0  0  0  0  0  0  0  0  0  0  0
   -3.9189   -2.4882   -2.6499 H   0  0  0  0  0  0  0  0  0  0  0  0
   -1.8291   -1.1909   -2.7259 H   0  0  0  0  0  0  0  0  0  0  0  0
   -1.1878    1.2087    1.6365 H   0  0  0  0  0  0  0  0  0  0  0  0
   -1.6499    3.6229    1.7918 H   0  0  0  0  0  0  0  0  0  0  0  0
   -1.3824    5.0705   -0.2088 H   0  0  0  0  0  0  0  0  0  0  0  0
   -0.6506    4.0571   -2.3573 H   0  0  0  0  0  0  0  0  0  0  0  0
  1  2  1  0
  2  3  1  0
  2  4  1  0
  4  5  1  0
  5  6  1  0
  6  7  1  0
  7  8  2  0
  8  9  1  0
  9 10  2  0
 10 11  1  0
 11 12  2  0
 12  7  1  0
  6 13  1  0
 13 14  2  0
 14 15  1  0
 15 16  2  0
 16 17  1  0
 17 18  2  0
 18 13  1  0
  1 19  1  0
  1 20  1  0
  1 21  1  0
  3 22  1  0
  3 23  1  0
  3 24  1  0
  4 25  1  0
  4 26  1  0
  5 27  1  0
  5 28  1  0
  6 29  1  0
  8 30  1  0
  9 31  1  0
 10 32  1  0
 11 33  1  0
 12 34  1  0
 14 35  1  0
 15 36  1  0
 16 37  1  0
 17 38  1  0
M  END
> <ID>
HT0008

> <Class>
1.0

> <Clusters>
0

> <Fold>
5

$$$$