
     RDKit          3D

 65 66  0  0  0  0  0  0  0  0999 V2000
    7.5060   -0.0249   -1.7458 C   0  0  0  0  0  0  0  0  0  0  0  0
    6.0140   -0.1929   -1.4843 C   0  0  0  0  0  0  0  0  0  0  0  0
    5.7449   -0.5680   -0.0193 C   0  0  0  0  0  0  0  0  0  0  0  0
    4.2505   -0.8465    0.2353 C   0  0  2  0  0  0  0  0  0  0  0  0
    3.3710    0.3774    0.0792 C   0  0  0  0  0  0  0  0  0  0  0  0
    2.1595    0.0836    0.9650 C   0  0  2  0  0  0  0  0  0  0  0  0
    2.5798   -0.9144    1.9719 N   0  0  0  0  0  0  0  0  0  0  0  0
    2.4570   -0.3954    3.3444 C   0  0  0  0  0  0  0  0  0  0  0  0
    3.9697   -1.2941    1.6642 C   0  0  0  0  0  0  0  0  0  0  0  0
    1.0170   -0.4615    0.1441 C   0  0  0  0  0  0  0  0  0  0  0  0
    0.5812   -1.6256    0.3594 O   0  0  0  0  0  0  0  0  0  0  0  0
    0.4207    0.3554   -0.8749 N   0  0  0  0  0  0  0  0  0  0  0  0
   -0.6910   -0.0990   -1.7225 C   0  0  2  0  0  0  0  0  0  0  0  0
   -0.3715    0.2953   -3.1916 C   0  0  2  0  0  0  0  0  0  0  0  0
   -1.3750   -0.2447   -4.2102 C   0  0  0  0  0  0  0  0  0  0  0  0
    1.2490   -0.3196   -3.6438 Cl  0  0  0  0  0  0  0  0  0  0  0  0
   -2.0222    0.5115   -1.1773 C   0  0  0  0  0  0  0  0  0  0  0  0
   -1.9067    0.6298    0.2340 O   0  0  0  0  0  0  0  0  0  0  0  0
   -3.0371    1.2673    0.8014 C   0  0  2  0  0  0  0  0  0  0  0  0
   -2.6542    1.6847    2.5529 S   0  0  0  0  0  0  0  0  0  0  0  0
   -2.1219    0.0287    3.1231 C   0  0  0  0  0  0  0  0  0  0  0  0
   -4.3427    0.4276    0.6153 C   0  0  2  0  0  0  0  0  0  0  0  0
   -4.8443   -0.0585    1.8491 O   0  0  0  0  0  0  0  0  0  0  0  0
   -6.2136    0.8379    2.3479 P   0  0  0  0  0  0  0  0  0  0  0  0
   -6.4923    0.5195    3.7986 O   0  0  0  0  0  0  0  0  0  0  0  0
   -5.9306    2.5031    2.2028 O   0  0  0  0  0  0  0  0  0  0  0  0
   -7.5706    0.4037    1.4299 O   0  0  0  0  0  0  0  0  0  0  0  0
   -4.0633   -0.7800   -0.2939 C   0  0  1  0  0  0  0  0  0  0  0  0
   -5.2751   -1.3903   -0.6565 O   0  0  0  0  0  0  0  0  0  0  0  0
   -3.2823   -0.3495   -1.5534 C   0  0  1  0  0  0  0  0  0  0  0  0
   -4.1328    0.3363   -2.4450 O   0  0  0  0  0  0  0  0  0  0  0  0
    8.0427   -0.9772   -1.5417 H   0  0  0  0  0  0  0  0  0  0  0  0
    7.6673    0.2500   -2.8102 H   0  0  0  0  0  0  0  0  0  0  0  0
    7.9221    0.7796   -1.1011 H   0  0  0  0  0  0  0  0  0  0  0  0
    5.6181   -0.9870   -2.1535 H   0  0  0  0  0  0  0  0  0  0  0  0
    5.4993    0.7614   -1.7306 H   0  0  0  0  0  0  0  0  0  0  0  0
    6.0995    0.2515    0.6443 H   0  0  0  0  0  0  0  0  0  0  0  0
    6.3206   -1.4867    0.2304 H   0  0  0  0  0  0  0  0  0  0  0  0
    3.8952   -1.6410   -0.4614 H   0  0  0  0  0  0  0  0  0  0  0  0
    3.8910    1.2813    0.4694 H   0  0  0  0  0  0  0  0  0  0  0  0
    3.1086    0.5519   -0.9873 H   0  0  0  0  0  0  0  0  0  0  0  0
    1.8089    1.0350    1.4303 H   0  0  0  0  0  0  0  0  0  0  0  0
    2.7959   -1.1630    4.0720 H   0  0  0  0  0  0  0  0  0  0  0  0
    1.3911   -0.1704    3.5682 H   0  0  0  0  0  0  0  0  0  0  0  0
    3.0624    0.5307    3.4817 H   0  0  0  0  0  0  0  0  0  0  0  0
    4.6956   -0.8134    2.3605 H   0  0  0  0  0  0  0  0  0  0  0  0
    4.0836   -2.3961    1.7524 H   0  0  0  0  0  0  0  0  0  0  0  0
    0.7137    1.3573   -0.9400 H   0  0  0  0  0  0  0  0  0  0  0  0
   -0.7492   -1.2085   -1.6745 H   0  0  0  0  0  0  0  0  0  0  0  0
   -0.3409    1.4027   -3.2785 H   0  0  0  0  0  0  0  0  0  0  0  0
   -0.9985   -0.0693   -5.2405 H   0  0  0  0  0  0  0  0  0  0  0  0
   -1.5319   -1.3357   -4.0716 H   0  0  0  0  0  0  0  0  0  0  0  0
   -2.3386    0.2898   -4.1272 H   0  0  0  0  0  0  0  0  0  0  0  0
   -2.1085    1.5356   -1.6102 H   0  0  0  0  0  0  0  0  0  0  0  0
   -3.1876    2.2559    0.3077 H   0  0  0  0  0  0  0  0  0  0  0  0
   -2.9626   -0.4723    3.6420 H   0  0  0  0  0  0  0  0  0  0  0  0
   -1.2906    0.1528    3.8453 H   0  0  0  0  0  0  0  0  0  0  0  0
   -1.7743   -0.6211    2.2975 H   0  0  0  0  0  0  0  0  0  0  0  0
   -5.0758    1.0650    0.0679 H   0  0  0  0  0  0  0  0  0  0  0  0
   -6.2413    2.7425    1.2940 H   0  0  0  0  0  0  0  0  0  0  0  0
   -7.2379    0.2867    0.5060 H   0  0  0  0  0  0  0  0  0  0  0  0
   -3.4350   -1.5021    0.2824 H   0  0  0  0  0  0  0  0  0  0  0  0
   -5.0728   -2.3455   -0.8320 H   0  0  0  0  0  0  0  0  0  0  0  0
   -2.9731   -1.2873   -2.0620 H   0  0  0  0  0  0  0  0  0  0  0  0
   -4.2900    1.2500   -2.0872 H   0  0  0  0  0  0  0  0  0  0  0  0
  1  2  1  0
  2  3  1  0
  4  3  1  0
  4  5  1  0
  5  6  1  0
  6  7  1  0
  7  8  1  0
  7  9  1  0
  9  4  1  0
  6 10  1  0
 10 11  2  0
 10 12  1  0
 13 12  1  0
 13 14  1  0
 14 15  1  0
 14 16  1  0
 13 17  1  0
 17 18  1  0
 18 19  1  0
 19 20  1  0
 20 21  1  0
 19 22  1  0
 22 23  1  0
 23 24  1  0
 24 25  2  0
 24 26  1  0
 24 27  1  0
 22 28  1  0
 28 29  1  0
 28 30  1  0
 30 17  1  0
 30 31  1  0
  1 32  1  0
  1 33  1  0
  1 34  1  0
  2 35  1  0
  2 36  1  0
  3 37  1  0
  3 38  1  0
  4 39  1  6
  5 40  1  0
  5 41  1  0
  6 42  1  1
  8 43  1  0
  8 44  1  0
  8 45  1  0
  9 46  1  0
  9 47  1  0
 12 48  1  0
 13 49  1  6
 14 50  1  1
 15 51  1  0
 15 52  1  0
 15 53  1  0
 17 54  1  0
 19 55  1  6
 21 56  1  0
 21 57  1  0
 21 58  1  0
 22 59  1  6
 26 60  1  0
 27 61  1  0
 28 62  1  1
 29 63  1  0
 30 64  1  6
 31 65  1  0
M  END
> <ID>
HT0511

> <Class>
1.0

> <Clusters>
59

> <Fold>
5

$$$$