
     RDKit          3D

 17 17  0  0  0  0  0  0  0  0999 V2000
    0.8958    1.8611    0.2528 C   0  0  0  0  0  0  0  0  0  0  0  0
    1.1288    0.4017    0.0035 C   0  0  0  0  0  0  0  0  0  0  0  0
    2.3554   -0.1434    0.2321 N   0  0  0  0  0  0  0  0  0  0  0  0
    2.3948   -1.4671   -0.0319 C   0  0  0  0  0  0  0  0  0  0  0  0
    0.9005   -2.0193   -0.5604 S   0  0  0  0  0  0  0  0  0  0  0  0
    0.1680   -0.5076   -0.4623 C   0  0  0  0  0  0  0  0  0  0  0  0
   -1.2824   -0.2613   -0.7744 C   0  0  0  0  0  0  0  0  0  0  0  0
   -2.1841   -0.6316    0.4045 C   0  0  0  0  0  0  0  0  0  0  0  0
   -1.9525    0.4758    1.7837 Cl  0  0  0  0  0  0  0  0  0  0  0  0
    1.1245    2.0914    1.3142 H   0  0  0  0  0  0  0  0  0  0  0  0
    1.5710    2.4562   -0.3965 H   0  0  0  0  0  0  0  0  0  0  0  0
   -0.1474    2.1688    0.0496 H   0  0  0  0  0  0  0  0  0  0  0  0
    3.2800   -2.0758    0.0912 H   0  0  0  0  0  0  0  0  0  0  0  0
   -1.4610    0.7888   -1.0815 H   0  0  0  0  0  0  0  0  0  0  0  0
   -1.5635   -0.8955   -1.6423 H   0  0  0  0  0  0  0  0  0  0  0  0
   -1.9823   -1.6735    0.7333 H   0  0  0  0  0  0  0  0  0  0  0  0
   -3.2455   -0.5687    0.0845 H   0  0  0  0  0  0  0  0  0  0  0  0
  1  2  1  0
  2  3  1  0
  3  4  2  0
  4  5  1  0
  5  6  1  0
  6  2  2  0
  6  7  1  0
  7  8  1  0
  8  9  1  0
  1 10  1  0
  1 11  1  0
  1 12  1  0
  4 13  1  0
  7 14  1  0
  7 15  1  0
  8 16  1  0
  8 17  1  0
M  END
> <ID>
HT0526

> <Class>
1.0

> <Clusters>
210

> <Fold>
5

$$$$