
     RDKit          3D

 42 45  0  0  0  0  0  0  0  0999 V2000
    5.3731   -0.1172    0.2475 C   0  0  0  0  0  0  0  0  0  0  0  0
    4.0562    0.3972   -0.1579 N   0  0  0  0  0  0  0  0  0  0  0  0
    3.2854   -0.6686   -0.8296 C   0  0  0  0  0  0  0  0  0  0  0  0
    1.9439   -0.1175   -1.3153 C   0  0  0  0  0  0  0  0  0  0  0  0
    1.2381    0.5130   -0.1954 N   0  0  0  0  0  0  0  0  0  0  0  0
    1.9769    1.4909    0.6080 C   0  0  0  0  0  0  0  0  0  0  0  0
    3.3255    0.8965    1.0247 C   0  0  0  0  0  0  0  0  0  0  0  0
   -0.1875    0.3674   -0.0495 C   0  0  0  0  0  0  0  0  0  0  0  0
   -0.8918    1.4370    0.1900 N   0  0  0  0  0  0  0  0  0  0  0  0
   -2.3092    1.5845    0.3487 C   0  0  0  0  0  0  0  0  0  0  0  0
   -2.7684    2.6378    1.1522 C   0  0  0  0  0  0  0  0  0  0  0  0
   -4.1336    2.9223    1.2447 C   0  0  0  0  0  0  0  0  0  0  0  0
   -4.6905    4.2353    2.2660 Cl  0  0  0  0  0  0  0  0  0  0  0  0
   -5.0517    2.1723    0.5082 C   0  0  0  0  0  0  0  0  0  0  0  0
   -4.6056    1.1374   -0.3156 C   0  0  0  0  0  0  0  0  0  0  0  0
   -3.2379    0.8298   -0.3975 C   0  0  0  0  0  0  0  0  0  0  0  0
   -2.8174   -0.2390   -1.2486 N   0  0  0  0  0  0  0  0  0  0  0  0
   -1.9945   -1.2821   -0.7236 C   0  0  0  0  0  0  0  0  0  0  0  0
   -2.4257   -2.6130   -0.8460 C   0  0  0  0  0  0  0  0  0  0  0  0
   -1.6774   -3.6542   -0.2958 C   0  0  0  0  0  0  0  0  0  0  0  0
   -0.4900   -3.3764    0.3789 C   0  0  0  0  0  0  0  0  0  0  0  0
   -0.0396   -2.0595    0.4866 C   0  0  0  0  0  0  0  0  0  0  0  0
   -0.7761   -0.9982   -0.0738 C   0  0  0  0  0  0  0  0  0  0  0  0
    5.9693    0.6911    0.7232 H   0  0  0  0  0  0  0  0  0  0  0  0
    5.2741   -0.9640    0.9631 H   0  0  0  0  0  0  0  0  0  0  0  0
    5.9402   -0.4611   -0.6442 H   0  0  0  0  0  0  0  0  0  0  0  0
    3.8461   -1.0437   -1.7142 H   0  0  0  0  0  0  0  0  0  0  0  0
    3.1089   -1.5264   -0.1413 H   0  0  0  0  0  0  0  0  0  0  0  0
    2.1273    0.6451   -2.1030 H   0  0  0  0  0  0  0  0  0  0  0  0
    1.3436   -0.9365   -1.7664 H   0  0  0  0  0  0  0  0  0  0  0  0
    1.4064    1.7596    1.5242 H   0  0  0  0  0  0  0  0  0  0  0  0
    2.1399    2.4127    0.0087 H   0  0  0  0  0  0  0  0  0  0  0  0
    3.9154    1.6946    1.5275 H   0  0  0  0  0  0  0  0  0  0  0  0
    3.1539    0.0758    1.7591 H   0  0  0  0  0  0  0  0  0  0  0  0
   -2.0576    3.2435    1.7011 H   0  0  0  0  0  0  0  0  0  0  0  0
   -6.1098    2.3933    0.5685 H   0  0  0  0  0  0  0  0  0  0  0  0
   -5.3277    0.5648   -0.8842 H   0  0  0  0  0  0  0  0  0  0  0  0
   -3.4326   -0.4768   -2.0602 H   0  0  0  0  0  0  0  0  0  0  0  0
   -3.3565   -2.8397   -1.3509 H   0  0  0  0  0  0  0  0  0  0  0  0
   -2.0231   -4.6759   -0.3852 H   0  0  0  0  0  0  0  0  0  0  0  0
    0.0880   -4.1831    0.8110 H   0  0  0  0  0  0  0  0  0  0  0  0
    0.8921   -1.8688    1.0044 H   0  0  0  0  0  0  0  0  0  0  0  0
  1  2  1  0
  2  3  1  0
  3  4  1  0
  4  5  1  0
  5  6  1  0
  6  7  1  0
  7  2  1  0
  5  8  1  0
  8  9  2  0
  9 10  1  0
 10 11  2  0
 11 12  1  0
 12 13  1  0
 12 14  2  0
 14 15  1  0
 15 16  2  0
 16 10  1  0
 16 17  1  0
 17 18  1  0
 18 19  2  0
 19 20  1  0
 20 21  2  0
 21 22  1  0
 22 23  2  0
 23  8  1  0
 23 18  1  0
  1 24  1  0
  1 25  1  0
  1 26  1  0
  3 27  1  0
  3 28  1  0
  4 29  1  0
  4 30  1  0
  6 31  1  0
  6 32  1  0
  7 33  1  0
  7 34  1  0
 11 35  1  0
 14 36  1  0
 15 37  1  0
 17 38  1  0
 19 39  1  0
 20 40  1  0
 21 41  1  0
 22 42  1  0
M  END
> <ID>
HT0539

> <Class>
1.0

> <Clusters>
150

> <Fold>
5

$$$$