
     RDKit          3D

 59 62  0  0  0  0  0  0  0  0999 V2000
    0.6634    3.4154   -0.2833 C   0  0  0  0  0  0  0  0  0  0  0  0
    1.1862    2.0182   -0.3036 C   0  0  0  0  0  0  0  0  0  0  0  0
    0.3271    0.9738   -0.1852 N   0  0  0  0  0  0  0  0  0  0  0  0
    0.7674   -0.3121   -0.1995 C   0  0  0  0  0  0  0  0  0  0  0  0
   -0.1491   -1.4135   -0.0623 N   0  0  0  0  0  0  0  0  0  0  0  0
   -1.5796   -1.3091    0.0269 C   0  0  0  0  0  0  0  0  0  0  0  0
   -2.3692   -2.3904    0.2088 N   0  0  0  0  0  0  0  0  0  0  0  0
   -3.6884   -2.0625    0.2517 C   0  0  0  0  0  0  0  0  0  0  0  0
   -3.9597   -0.7039    0.0973 C   0  0  0  0  0  0  0  0  0  0  0  0
   -2.4942    0.1029   -0.0915 S   0  0  0  0  0  0  0  0  0  0  0  0
   -5.2820   -0.0544    0.1153 C   0  0  0  0  0  0  0  0  0  0  0  0
   -5.3464    1.2048    0.0866 O   0  0  0  0  0  0  0  0  0  0  0  0
   -6.4891   -0.8314    0.1469 N   0  0  0  0  0  0  0  0  0  0  0  0
   -7.7817   -0.2238    0.2974 C   0  0  0  0  0  0  0  0  0  0  0  0
   -8.7459   -0.3492   -0.7284 C   0  0  0  0  0  0  0  0  0  0  0  0
   -8.4344   -1.1058   -1.9909 C   0  0  0  0  0  0  0  0  0  0  0  0
  -10.0147    0.2294   -0.5607 C   0  0  0  0  0  0  0  0  0  0  0  0
  -10.3228    0.9316    0.6051 C   0  0  0  0  0  0  0  0  0  0  0  0
   -9.3756    1.0515    1.6217 C   0  0  0  0  0  0  0  0  0  0  0  0
   -8.1102    0.4737    1.4791 C   0  0  0  0  0  0  0  0  0  0  0  0
   -6.9815    0.5825    2.8249 Cl  0  0  0  0  0  0  0  0  0  0  0  0
    2.1383   -0.5622   -0.3356 C   0  0  0  0  0  0  0  0  0  0  0  0
    3.0219    0.5226   -0.4615 C   0  0  0  0  0  0  0  0  0  0  0  0
    2.5178    1.7868   -0.4391 N   0  0  0  0  0  0  0  0  0  0  0  0
    4.4453    0.3215   -0.6041 N   0  0  0  0  0  0  0  0  0  0  0  0
    5.3760    1.4233   -0.3329 C   0  0  0  0  0  0  0  0  0  0  0  0
    6.6838    0.8600    0.2357 C   0  0  0  0  0  0  0  0  0  0  0  0
    7.3235   -0.1533   -0.6481 N   0  0  0  0  0  0  0  0  0  0  0  0
    8.0300   -1.1957    0.1305 C   0  0  0  0  0  0  0  0  0  0  0  0
    9.2486   -0.6251    0.8672 C   0  0  0  0  0  0  0  0  0  0  0  0
   10.1651   -0.0804   -0.0436 O   0  0  0  0  0  0  0  0  0  0  0  0
    6.4100   -0.7512   -1.6534 C   0  0  0  0  0  0  0  0  0  0  0  0
    4.9846   -0.9452   -1.1185 C   0  0  0  0  0  0  0  0  0  0  0  0
   -0.0504    3.5573   -1.1214 H   0  0  0  0  0  0  0  0  0  0  0  0
    1.4935    4.1458   -0.3896 H   0  0  0  0  0  0  0  0  0  0  0  0
    0.1402    3.6026    0.6777 H   0  0  0  0  0  0  0  0  0  0  0  0
    0.2501   -2.3787   -0.0209 H   0  0  0  0  0  0  0  0  0  0  0  0
   -4.4490   -2.8146    0.4060 H   0  0  0  0  0  0  0  0  0  0  0  0
   -6.4525   -1.8391   -0.1222 H   0  0  0  0  0  0  0  0  0  0  0  0
   -7.4594   -0.7717   -2.4048 H   0  0  0  0  0  0  0  0  0  0  0  0
   -9.2097   -0.9374   -2.7686 H   0  0  0  0  0  0  0  0  0  0  0  0
   -8.3856   -2.1927   -1.7703 H   0  0  0  0  0  0  0  0  0  0  0  0
  -10.7676    0.1396   -1.3340 H   0  0  0  0  0  0  0  0  0  0  0  0
  -11.3024    1.3762    0.7249 H   0  0  0  0  0  0  0  0  0  0  0  0
   -9.6314    1.5840    2.5291 H   0  0  0  0  0  0  0  0  0  0  0  0
    2.5019   -1.5813   -0.3299 H   0  0  0  0  0  0  0  0  0  0  0  0
    5.5746    1.9847   -1.2712 H   0  0  0  0  0  0  0  0  0  0  0  0
    4.9458    2.1259    0.4141 H   0  0  0  0  0  0  0  0  0  0  0  0
    7.3930    1.7017    0.3855 H   0  0  0  0  0  0  0  0  0  0  0  0
    6.4524    0.4346    1.2391 H   0  0  0  0  0  0  0  0  0  0  0  0
    8.4108   -1.9941   -0.5445 H   0  0  0  0  0  0  0  0  0  0  0  0
    7.3407   -1.6784    0.8588 H   0  0  0  0  0  0  0  0  0  0  0  0
    8.9432    0.1318    1.6244 H   0  0  0  0  0  0  0  0  0  0  0  0
    9.7489   -1.4504    1.4164 H   0  0  0  0  0  0  0  0  0  0  0  0
    9.8504    0.8376   -0.2517 H   0  0  0  0  0  0  0  0  0  0  0  0
    6.7926   -1.7210   -2.0408 H   0  0  0  0  0  0  0  0  0  0  0  0
    6.3675   -0.0732   -2.5333 H   0  0  0  0  0  0  0  0  0  0  0  0
    4.9866   -1.7049   -0.3078 H   0  0  0  0  0  0  0  0  0  0  0  0
    4.3511   -1.3133   -1.9549 H   0  0  0  0  0  0  0  0  0  0  0  0
  1  2  1  0
  2  3  2  0
  3  4  1  0
  4  5  1  0
  5  6  1  0
  6  7  2  0
  7  8  1  0
  8  9  2  0
  9 10  1  0
 10  6  1  0
  9 11  1  0
 11 12  2  0
 11 13  1  0
 13 14  1  0
 14 15  2  0
 15 16  1  0
 15 17  1  0
 17 18  2  0
 18 19  1  0
 19 20  2  0
 20 14  1  0
 20 21  1  0
  4 22  2  0
 22 23  1  0
 23 24  2  0
 24  2  1  0
 23 25  1  0
 25 26  1  0
 26 27  1  0
 27 28  1  0
 28 29  1  0
 29 30  1  0
 30 31  1  0
 28 32  1  0
 32 33  1  0
 33 25  1  0
  1 34  1  0
  1 35  1  0
  1 36  1  0
  5 37  1  0
  8 38  1  0
 13 39  1  0
 16 40  1  0
 16 41  1  0
 16 42  1  0
 17 43  1  0
 18 44  1  0
 19 45  1  0
 22 46  1  0
 26 47  1  0
 26 48  1  0
 27 49  1  0
 27 50  1  0
 29 51  1  0
 29 52  1  0
 30 53  1  0
 30 54  1  0
 31 55  1  0
 32 56  1  0
 32 57  1  0
 33 58  1  0
 33 59  1  0
M  END
> <ID>
HT0594

> <Class>
1.0

> <Clusters>
240

> <Fold>
5

$$$$