
     RDKit          3D

 45 47  0  0  0  0  0  0  0  0999 V2000
    4.6553    1.2649   -0.4602 C   0  0  0  0  0  0  0  0  0  0  0  0
    4.2343   -0.1359   -0.2780 N   0  0  0  0  0  0  0  0  0  0  0  0
    5.2983   -1.0305   -0.7625 C   0  0  0  0  0  0  0  0  0  0  0  0
    2.9685   -0.4092   -0.9941 C   0  0  0  0  0  0  0  0  0  0  0  0
    1.7639   -0.0015   -0.1354 C   0  0  0  0  0  0  0  0  0  0  0  0
    0.4421   -0.3509   -0.8303 C   0  0  0  0  0  0  0  0  0  0  0  0
   -0.7054   -0.1540    0.0680 N   0  0  0  0  0  0  0  0  0  0  0  0
   -1.1455    1.1737    0.3801 C   0  0  0  0  0  0  0  0  0  0  0  0
   -0.5024    1.9283    1.3720 C   0  0  0  0  0  0  0  0  0  0  0  0
   -0.9543    3.2155    1.6759 C   0  0  0  0  0  0  0  0  0  0  0  0
   -2.0589    3.7462    1.0039 C   0  0  0  0  0  0  0  0  0  0  0  0
   -2.7182    2.9874    0.0321 C   0  0  0  0  0  0  0  0  0  0  0  0
   -2.2591    1.6986   -0.2843 C   0  0  0  0  0  0  0  0  0  0  0  0
   -2.9854    0.8309   -1.2681 C   0  0  0  0  0  0  0  0  0  0  0  0
   -3.7500   -0.2797   -0.5417 C   0  0  0  0  0  0  0  0  0  0  0  0
   -2.9301   -1.3302    0.2015 C   0  0  0  0  0  0  0  0  0  0  0  0
   -3.6504   -2.4463    0.6685 C   0  0  0  0  0  0  0  0  0  0  0  0
   -3.0115   -3.4954    1.3286 C   0  0  0  0  0  0  0  0  0  0  0  0
   -1.6363   -3.4518    1.5421 C   0  0  0  0  0  0  0  0  0  0  0  0
   -0.8340   -4.7734    2.3711 Cl  0  0  0  0  0  0  0  0  0  0  0  0
   -0.8992   -2.3514    1.1055 C   0  0  0  0  0  0  0  0  0  0  0  0
   -1.5228   -1.2780    0.4454 C   0  0  0  0  0  0  0  0  0  0  0  0
    4.8330    1.4990   -1.5338 H   0  0  0  0  0  0  0  0  0  0  0  0
    3.8892    1.9602   -0.0606 H   0  0  0  0  0  0  0  0  0  0  0  0
    5.5901    1.4601    0.1084 H   0  0  0  0  0  0  0  0  0  0  0  0
    5.0368   -2.0880   -0.5430 H   0  0  0  0  0  0  0  0  0  0  0  0
    5.4543   -0.9135   -1.8585 H   0  0  0  0  0  0  0  0  0  0  0  0
    6.2531   -0.8185   -0.2343 H   0  0  0  0  0  0  0  0  0  0  0  0
    2.8708   -1.4991   -1.2040 H   0  0  0  0  0  0  0  0  0  0  0  0
    2.9358    0.1172   -1.9757 H   0  0  0  0  0  0  0  0  0  0  0  0
    1.8204   -0.5255    0.8431 H   0  0  0  0  0  0  0  0  0  0  0  0
    1.7934    1.0917    0.0451 H   0  0  0  0  0  0  0  0  0  0  0  0
    0.4747   -1.4081   -1.1763 H   0  0  0  0  0  0  0  0  0  0  0  0
    0.3174    0.2840   -1.7346 H   0  0  0  0  0  0  0  0  0  0  0  0
    0.3352    1.5149    1.9183 H   0  0  0  0  0  0  0  0  0  0  0  0
   -0.4547    3.7979    2.4392 H   0  0  0  0  0  0  0  0  0  0  0  0
   -2.4127    4.7400    1.2460 H   0  0  0  0  0  0  0  0  0  0  0  0
   -3.5873    3.4000   -0.4647 H   0  0  0  0  0  0  0  0  0  0  0  0
   -2.2731    0.3882   -1.9977 H   0  0  0  0  0  0  0  0  0  0  0  0
   -3.7076    1.4390   -1.8556 H   0  0  0  0  0  0  0  0  0  0  0  0
   -4.4656    0.1828    0.1734 H   0  0  0  0  0  0  0  0  0  0  0  0
   -4.3584   -0.8029   -1.3121 H   0  0  0  0  0  0  0  0  0  0  0  0
   -4.7205   -2.5102    0.5095 H   0  0  0  0  0  0  0  0  0  0  0  0
   -3.5888   -4.3447    1.6713 H   0  0  0  0  0  0  0  0  0  0  0  0
    0.1658   -2.3217    1.2971 H   0  0  0  0  0  0  0  0  0  0  0  0
  1  2  1  0
  2  3  1  0
  2  4  1  0
  4  5  1  0
  5  6  1  0
  6  7  1  0
  7  8  1  0
  8  9  2  0
  9 10  1  0
 10 11  2  0
 11 12  1  0
 12 13  2  0
 13  8  1  0
 13 14  1  0
 14 15  1  0
 15 16  1  0
 16 17  2  0
 17 18  1  0
 18 19  2  0
 19 20  1  0
 19 21  1  0
 21 22  2  0
 22  7  1  0
 22 16  1  0
  1 23  1  0
  1 24  1  0
  1 25  1  0
  3 26  1  0
  3 27  1  0
  3 28  1  0
  4 29  1  0
  4 30  1  0
  5 31  1  0
  5 32  1  0
  6 33  1  0
  6 34  1  0
  9 35  1  0
 10 36  1  0
 11 37  1  0
 12 38  1  0
 14 39  1  0
 14 40  1  0
 15 41  1  0
 15 42  1  0
 17 43  1  0
 18 44  1  0
 21 45  1  0
M  END
> <ID>
HT0528

> <Class>
1.0

> <Clusters>
131

> <Fold>
5

$$$$