
     RDKit          3D

 75 78  0  0  0  0  0  0  0  0999 V2000
    3.0142   -1.5749   -1.8282 C   0  0  0  0  0  0  0  0  0  0  0  0
    4.0744   -0.9885   -0.8850 C   0  0  0  0  0  0  0  0  0  0  0  0
    5.3546   -0.6676   -1.6669 C   0  0  0  0  0  0  0  0  0  0  0  0
    3.5567    0.2799   -0.1699 C   0  0  0  0  0  0  0  0  0  0  0  0
    2.2716    0.0532    0.5349 N   0  0  0  0  0  0  0  0  0  0  0  0
    1.5612    1.3363    0.7536 C   0  0  0  0  0  0  0  0  0  0  0  0
    0.0253    1.1615    0.8383 C   0  0  1  0  0  0  0  0  0  0  0  0
   -0.5971    2.4173    0.7322 O   0  0  0  0  0  0  0  0  0  0  0  0
   -0.5563    0.1882   -0.2226 C   0  0  2  0  0  0  0  0  0  0  0  0
   -0.2758    0.5892   -1.6929 C   0  0  0  0  0  0  0  0  0  0  0  0
   -0.9996    1.8345   -2.1486 C   0  0  0  0  0  0  0  0  0  0  0  0
   -2.3536    1.7733   -2.5238 C   0  0  0  0  0  0  0  0  0  0  0  0
   -3.0178    2.9226   -2.9636 C   0  0  0  0  0  0  0  0  0  0  0  0
   -2.3332    4.1378   -3.0470 C   0  0  0  0  0  0  0  0  0  0  0  0
   -0.9811    4.2029   -2.7007 C   0  0  0  0  0  0  0  0  0  0  0  0
   -0.3131    3.0558   -2.2614 C   0  0  0  0  0  0  0  0  0  0  0  0
   -1.9965    0.0175    0.0028 N   0  0  0  0  0  0  0  0  0  0  0  0
   -2.6481   -1.2571    0.0176 C   0  0  0  0  0  0  0  0  0  0  0  0
   -1.9977   -2.3137   -0.2168 O   0  0  0  0  0  0  0  0  0  0  0  0
   -4.0219   -1.3120    0.2755 O   0  0  0  0  0  0  0  0  0  0  0  0
   -4.7840   -2.5183    0.2098 C   0  0  1  0  0  0  0  0  0  0  0  0
   -6.1993   -2.2959    0.6914 C   0  0  0  0  0  0  0  0  0  0  0  0
   -7.0397   -3.2171    0.0374 O   0  0  0  0  0  0  0  0  0  0  0  0
   -6.3875   -3.6227   -1.1500 C   0  0  1  0  0  0  0  0  0  0  0  0
   -7.1213   -3.1795   -2.2669 O   0  0  0  0  0  0  0  0  0  0  0  0
   -6.5337   -1.9728   -2.6808 C   0  0  0  0  0  0  0  0  0  0  0  0
   -5.0688   -1.9954   -2.2998 C   0  0  0  0  0  0  0  0  0  0  0  0
   -4.9873   -3.0410   -1.1994 C   0  0  1  0  0  0  0  0  0  0  0  0
    2.5187   -0.7902    2.0605 S   0  0  0  0  0  0  0  0  0  0  0  0
    1.2145   -0.9274    2.7938 O   0  0  0  0  0  0  0  0  0  0  0  0
    3.0219   -2.1822    1.8039 O   0  0  0  0  0  0  0  0  0  0  0  0
    3.6644    0.0515    3.1079 C   0  0  0  0  0  0  0  0  0  0  0  0
    3.2076    0.9981    4.0366 C   0  0  0  0  0  0  0  0  0  0  0  0
    4.1119    1.6522    4.8791 C   0  0  0  0  0  0  0  0  0  0  0  0
    5.4825    1.3656    4.8023 C   0  0  0  0  0  0  0  0  0  0  0  0
    6.4079    2.0340    5.6645 N   0  0  0  0  0  0  0  0  0  0  0  0
    5.9395    0.4172    3.8758 C   0  0  0  0  0  0  0  0  0  0  0  0
    5.0348   -0.2389    3.0354 C   0  0  0  0  0  0  0  0  0  0  0  0
    2.1094   -1.8738   -1.2577 H   0  0  0  0  0  0  0  0  0  0  0  0
    3.4117   -2.4823   -2.3318 H   0  0  0  0  0  0  0  0  0  0  0  0
    2.7239   -0.8324   -2.6026 H   0  0  0  0  0  0  0  0  0  0  0  0
    4.3456   -1.7582   -0.1373 H   0  0  0  0  0  0  0  0  0  0  0  0
    5.1554    0.0842   -2.4613 H   0  0  0  0  0  0  0  0  0  0  0  0
    6.1300   -0.2660   -0.9795 H   0  0  0  0  0  0  0  0  0  0  0  0
    5.7559   -1.5891   -2.1411 H   0  0  0  0  0  0  0  0  0  0  0  0
    4.3264    0.6726    0.5279 H   0  0  0  0  0  0  0  0  0  0  0  0
    3.4343    1.0514   -0.9631 H   0  0  0  0  0  0  0  0  0  0  0  0
    1.7530    2.0488   -0.0769 H   0  0  0  0  0  0  0  0  0  0  0  0
    1.9306    1.8449    1.6691 H   0  0  0  0  0  0  0  0  0  0  0  0
   -0.2284    0.7397    1.8346 H   0  0  0  0  0  0  0  0  0  0  0  0
   -0.4073    2.9076    1.5744 H   0  0  0  0  0  0  0  0  0  0  0  0
   -0.0565   -0.7924   -0.0669 H   0  0  0  0  0  0  0  0  0  0  0  0
   -0.5739   -0.2549   -2.3527 H   0  0  0  0  0  0  0  0  0  0  0  0
    0.8178    0.7059   -1.8477 H   0  0  0  0  0  0  0  0  0  0  0  0
   -2.8925    0.8353   -2.4790 H   0  0  0  0  0  0  0  0  0  0  0  0
   -4.0624    2.8704   -3.2422 H   0  0  0  0  0  0  0  0  0  0  0  0
   -2.8481    5.0269   -3.3864 H   0  0  0  0  0  0  0  0  0  0  0  0
   -0.4482    5.1419   -2.7764 H   0  0  0  0  0  0  0  0  0  0  0  0
    0.7366    3.1229   -2.0068 H   0  0  0  0  0  0  0  0  0  0  0  0
   -2.5944    0.8644    0.1329 H   0  0  0  0  0  0  0  0  0  0  0  0
   -4.3083   -3.3049    0.8383 H   0  0  0  0  0  0  0  0  0  0  0  0
   -6.5376   -1.2638    0.4513 H   0  0  0  0  0  0  0  0  0  0  0  0
   -6.2628   -2.4432    1.7906 H   0  0  0  0  0  0  0  0  0  0  0  0
   -6.3382   -4.7328   -1.1681 H   0  0  0  0  0  0  0  0  0  0  0  0
   -6.6496   -1.8575   -3.7793 H   0  0  0  0  0  0  0  0  0  0  0  0
   -7.0485   -1.1228   -2.1788 H   0  0  0  0  0  0  0  0  0  0  0  0
   -4.4645   -2.3287   -3.1723 H   0  0  0  0  0  0  0  0  0  0  0  0
   -4.7307   -0.9817   -2.0015 H   0  0  0  0  0  0  0  0  0  0  0  0
   -4.2285   -3.8166   -1.4491 H   0  0  0  0  0  0  0  0  0  0  0  0
    2.1525    1.2293    4.1105 H   0  0  0  0  0  0  0  0  0  0  0  0
    3.7455    2.3800    5.5919 H   0  0  0  0  0  0  0  0  0  0  0  0
    6.0724    2.7181    6.3780 H   0  0  0  0  0  0  0  0  0  0  0  0
    7.4328    1.8489    5.5954 H   0  0  0  0  0  0  0  0  0  0  0  0
    6.9946    0.1834    3.8081 H   0  0  0  0  0  0  0  0  0  0  0  0
    5.4037   -0.9691    2.3265 H   0  0  0  0  0  0  0  0  0  0  0  0
  1  2  1  0
  2  3  1  0
  2  4  1  0
  4  5  1  0
  5  6  1  0
  6  7  1  0
  7  8  1  0
  7  9  1  0
  9 10  1  0
 10 11  1  0
 11 12  2  0
 12 13  1  0
 13 14  2  0
 14 15  1  0
 15 16  2  0
 16 11  1  0
  9 17  1  0
 17 18  1  0
 18 19  2  0
 18 20  1  0
 21 20  1  0
 21 22  1  0
 22 23  1  0
 24 23  1  0
 24 25  1  0
 25 26  1  0
 26 27  1  0
 28 27  1  0
 28 21  1  0
 28 24  1  0
  5 29  1  0
 29 30  2  0
 29 31  2  0
 29 32  1  0
 32 33  2  0
 33 34  1  0
 34 35  2  0
 35 36  1  0
 35 37  1  0
 37 38  2  0
 38 32  1  0
  1 39  1  0
  1 40  1  0
  1 41  1  0
  2 42  1  0
  3 43  1  0
  3 44  1  0
  3 45  1  0
  4 46  1  0
  4 47  1  0
  6 48  1  0
  6 49  1  0
  7 50  1  1
  8 51  1  0
  9 52  1  1
 10 53  1  0
 10 54  1  0
 12 55  1  0
 13 56  1  0
 14 57  1  0
 15 58  1  0
 16 59  1  0
 17 60  1  0
 21 61  1  1
 22 62  1  0
 22 63  1  0
 24 64  1  1
 26 65  1  0
 26 66  1  0
 27 67  1  0
 27 68  1  0
 28 69  1  6
 33 70  1  0
 34 71  1  0
 36 72  1  0
 36 73  1  0
 37 74  1  0
 38 75  1  0
M  END
> <ID>
HT0593

> <Class>
1.0

> <Clusters>
19

> <Fold>
5

$$$$