
     RDKit          3D

 60 61  0  0  0  0  0  0  0  0999 V2000
    7.2513   -0.4152   -2.4113 C   0  0  0  0  0  0  0  0  0  0  0  0
    6.1970   -0.6586   -1.3355 C   0  0  0  0  0  0  0  0  0  0  0  0
    4.9096    0.1213   -1.6355 C   0  0  0  0  0  0  0  0  0  0  0  0
    3.8097   -0.1640   -0.5937 C   0  0  2  0  0  0  0  0  0  0  0  0
    2.4922    0.5104   -0.9417 C   0  0  0  0  0  0  0  0  0  0  0  0
    1.8438    0.8392    0.4103 C   0  0  2  0  0  0  0  0  0  0  0  0
    2.8354    0.5578    1.4641 N   0  0  0  0  0  0  0  0  0  0  0  0
    2.8939    1.6240    2.4755 C   0  0  0  0  0  0  0  0  0  0  0  0
    4.1263    0.3743    0.7938 C   0  0  0  0  0  0  0  0  0  0  0  0
    0.6211   -0.0052    0.6485 C   0  0  0  0  0  0  0  0  0  0  0  0
    0.7403   -1.2590    0.7093 O   0  0  0  0  0  0  0  0  0  0  0  0
   -0.6658    0.6180    0.8156 N   0  0  0  0  0  0  0  0  0  0  0  0
   -1.9329   -0.1071    1.0054 C   0  0  2  0  0  0  0  0  0  0  0  0
   -1.8829   -0.9488    2.3195 C   0  0  1  0  0  0  0  0  0  0  0  0
   -1.2871   -0.1601    3.4931 C   0  0  0  0  0  0  0  0  0  0  0  0
   -3.5098   -1.4955    2.8260 Cl  0  0  0  0  0  0  0  0  0  0  0  0
   -2.2809   -0.9716   -0.2634 C   0  0  1  0  0  0  0  0  0  0  0  0
   -3.4909   -1.7088   -0.1181 O   0  0  0  0  0  0  0  0  0  0  0  0
   -4.6563   -0.9004   -0.2168 C   0  0  2  0  0  0  0  0  0  0  0  0
   -6.1109   -1.9803    0.0620 S   0  0  0  0  0  0  0  0  0  0  0  0
   -7.1963   -0.6939    0.7627 C   0  0  0  0  0  0  0  0  0  0  0  0
   -4.7639   -0.2095   -1.5947 C   0  0  2  0  0  0  0  0  0  0  0  0
   -5.0126   -1.1293   -2.6325 O   0  0  0  0  0  0  0  0  0  0  0  0
   -3.4952    0.6114   -1.8830 C   0  0  1  0  0  0  0  0  0  0  0  0
   -3.4545    1.7529   -1.0643 O   0  0  0  0  0  0  0  0  0  0  0  0
   -2.2424   -0.2458   -1.6440 C   0  0  1  0  0  0  0  0  0  0  0  0
   -1.0808    0.5276   -1.7962 O   0  0  0  0  0  0  0  0  0  0  0  0
    7.5077    0.6645   -2.4629 H   0  0  0  0  0  0  0  0  0  0  0  0
    8.1711   -0.9873   -2.1666 H   0  0  0  0  0  0  0  0  0  0  0  0
    6.8772   -0.7516   -3.4018 H   0  0  0  0  0  0  0  0  0  0  0  0
    6.6116   -0.3420   -0.3543 H   0  0  0  0  0  0  0  0  0  0  0  0
    5.9749   -1.7470   -1.2899 H   0  0  0  0  0  0  0  0  0  0  0  0
    5.1323    1.2110   -1.6674 H   0  0  0  0  0  0  0  0  0  0  0  0
    4.5331   -0.1800   -2.6381 H   0  0  0  0  0  0  0  0  0  0  0  0
    3.6351   -1.2621   -0.5243 H   0  0  0  0  0  0  0  0  0  0  0  0
    1.8658   -0.1507   -1.5817 H   0  0  0  0  0  0  0  0  0  0  0  0
    2.6722    1.4581   -1.4978 H   0  0  0  0  0  0  0  0  0  0  0  0
    1.5522    1.9156    0.3975 H   0  0  0  0  0  0  0  0  0  0  0  0
    3.1617    2.6032    2.0194 H   0  0  0  0  0  0  0  0  0  0  0  0
    3.6472    1.3671    3.2508 H   0  0  0  0  0  0  0  0  0  0  0  0
    1.9079    1.7182    2.9787 H   0  0  0  0  0  0  0  0  0  0  0  0
    4.7451   -0.3525    1.3627 H   0  0  0  0  0  0  0  0  0  0  0  0
    4.6811    1.3383    0.7102 H   0  0  0  0  0  0  0  0  0  0  0  0
   -0.7119    1.6622    0.8059 H   0  0  0  0  0  0  0  0  0  0  0  0
   -2.7188    0.6618    1.1460 H   0  0  0  0  0  0  0  0  0  0  0  0
   -1.2665   -1.8587    2.1624 H   0  0  0  0  0  0  0  0  0  0  0  0
   -1.3502   -0.7601    4.4260 H   0  0  0  0  0  0  0  0  0  0  0  0
   -1.8414    0.7912    3.6417 H   0  0  0  0  0  0  0  0  0  0  0  0
   -0.2152    0.0667    3.3186 H   0  0  0  0  0  0  0  0  0  0  0  0
   -1.4823   -1.7394   -0.3296 H   0  0  0  0  0  0  0  0  0  0  0  0
   -4.6577   -0.1270    0.5770 H   0  0  0  0  0  0  0  0  0  0  0  0
   -6.7622   -0.3004    1.7053 H   0  0  0  0  0  0  0  0  0  0  0  0
   -7.3373    0.1338    0.0385 H   0  0  0  0  0  0  0  0  0  0  0  0
   -8.1857   -1.1418    0.9873 H   0  0  0  0  0  0  0  0  0  0  0  0
   -5.6247    0.4919   -1.5696 H   0  0  0  0  0  0  0  0  0  0  0  0
   -4.3658   -1.8766   -2.5516 H   0  0  0  0  0  0  0  0  0  0  0  0
   -3.5038    0.9271   -2.9531 H   0  0  0  0  0  0  0  0  0  0  0  0
   -4.0994    2.4043   -1.4457 H   0  0  0  0  0  0  0  0  0  0  0  0
   -2.2243   -1.0459   -2.4210 H   0  0  0  0  0  0  0  0  0  0  0  0
   -0.9864    0.7244   -2.7650 H   0  0  0  0  0  0  0  0  0  0  0  0
  1  2  1  0
  2  3  1  0
  4  3  1  0
  4  5  1  0
  5  6  1  0
  6  7  1  0
  7  8  1  0
  7  9  1  0
  9  4  1  0
  6 10  1  0
 10 11  2  0
 10 12  1  0
 13 12  1  0
 13 14  1  0
 14 15  1  0
 14 16  1  0
 17 13  1  0
 17 18  1  0
 18 19  1  0
 19 20  1  0
 20 21  1  0
 19 22  1  0
 22 23  1  0
 22 24  1  0
 24 25  1  0
 24 26  1  0
 26 17  1  0
 26 27  1  0
  1 28  1  0
  1 29  1  0
  1 30  1  0
  2 31  1  0
  2 32  1  0
  3 33  1  0
  3 34  1  0
  4 35  1  1
  5 36  1  0
  5 37  1  0
  6 38  1  6
  8 39  1  0
  8 40  1  0
  8 41  1  0
  9 42  1  0
  9 43  1  0
 12 44  1  0
 13 45  1  1
 14 46  1  6
 15 47  1  0
 15 48  1  0
 15 49  1  0
 17 50  1  6
 19 51  1  1
 21 52  1  0
 21 53  1  0
 21 54  1  0
 22 55  1  1
 23 56  1  0
 24 57  1  6
 25 58  1  0
 26 59  1  6
 27 60  1  0
M  END
> <ID>
HT0512

> <Class>
1.0

> <Clusters>
59

> <Fold>
5

$$$$