
     RDKit          3D

 67 71  0  0  0  0  0  0  0  0999 V2000
    5.0341    5.0350   -0.7337 C   0  0  0  0  0  0  0  0  0  0  0  0
    4.4712    3.7844   -0.3504 O   0  0  0  0  0  0  0  0  0  0  0  0
    5.1837    2.5755   -0.2718 C   0  0  0  0  0  0  0  0  0  0  0  0
    6.5555    2.5128   -0.5824 C   0  0  0  0  0  0  0  0  0  0  0  0
    7.2415    1.3017   -0.5144 C   0  0  0  0  0  0  0  0  0  0  0  0
    6.5741    0.1374   -0.1414 C   0  0  0  0  0  0  0  0  0  0  0  0
    5.2051    0.1719    0.1708 C   0  0  0  0  0  0  0  0  0  0  0  0
    4.4927   -1.0655    0.5633 C   0  0  0  0  0  0  0  0  0  0  0  0
    5.1615   -2.1070    0.8070 O   0  0  0  0  0  0  0  0  0  0  0  0
    3.0007   -1.0802    0.6454 C   0  0  0  0  0  0  0  0  0  0  0  0
    2.2914   -2.2852    0.8491 C   0  0  0  0  0  0  0  0  0  0  0  0
    3.0144   -3.4588    1.0921 O   0  0  0  0  0  0  0  0  0  0  0  0
    0.8773   -2.2857    0.8275 C   0  0  0  0  0  0  0  0  0  0  0  0
    0.0653   -3.5653    0.9325 C   0  0  0  0  0  0  0  0  0  0  0  0
   -1.1283   -3.5921   -0.0732 C   0  0  2  0  0  0  0  0  0  0  0  0
   -0.6489   -3.9946   -1.3371 O   0  0  0  0  0  0  0  0  0  0  0  0
   -1.8361   -2.2026   -0.2302 C   0  0  0  0  0  0  0  0  0  0  0  0
   -1.3537   -1.1570    0.7936 C   0  0  2  0  0  0  0  0  0  0  0  0
   -1.9679    0.0975    0.5524 O   0  0  0  0  0  0  0  0  0  0  0  0
   -3.3299    0.1375    0.9617 C   0  0  1  0  0  0  0  0  0  0  0  0
   -3.6036    1.4463    1.7219 C   0  0  0  0  0  0  0  0  0  0  0  0
   -3.5082    2.6582    0.7818 C   0  0  2  0  0  0  0  0  0  0  0  0
   -3.9225    3.8747    1.4823 N   0  0  0  0  0  0  0  0  0  0  0  0
   -4.3850    2.4211   -0.4635 C   0  0  2  0  0  0  0  0  0  0  0  0
   -5.7468    2.4179   -0.1098 O   0  0  0  0  0  0  0  0  0  0  0  0
   -4.0059    1.0623   -1.0905 C   0  0  2  0  0  0  0  0  0  0  0  0
   -4.8473    0.7768   -2.3350 C   0  0  0  0  0  0  0  0  0  0  0  0
   -4.1944    0.0073   -0.1589 O   0  0  0  0  0  0  0  0  0  0  0  0
    0.1698   -1.0717    0.7060 C   0  0  0  0  0  0  0  0  0  0  0  0
    0.8791    0.1330    0.4831 C   0  0  0  0  0  0  0  0  0  0  0  0
    0.1678    1.2993    0.1848 O   0  0  0  0  0  0  0  0  0  0  0  0
    2.2957    0.1376    0.5159 C   0  0  0  0  0  0  0  0  0  0  0  0
    3.0742    1.4078    0.4934 C   0  0  0  0  0  0  0  0  0  0  0  0
    2.5502    2.4804    0.8998 O   0  0  0  0  0  0  0  0  0  0  0  0
    4.5069    1.3938    0.1150 C   0  0  0  0  0  0  0  0  0  0  0  0
   -2.1406   -4.6186    0.4319 C   0  0  0  0  0  0  0  0  0  0  0  0
   -2.7357   -4.3986    1.4774 O   0  0  0  0  0  0  0  0  0  0  0  0
   -2.4426   -5.9054   -0.2899 C   0  0  0  0  0  0  0  0  0  0  0  0
    4.2430    5.8121   -0.7064 H   0  0  0  0  0  0  0  0  0  0  0  0
    5.4348    4.9724   -1.7675 H   0  0  0  0  0  0  0  0  0  0  0  0
    5.8402    5.3238   -0.0268 H   0  0  0  0  0  0  0  0  0  0  0  0
    7.1028    3.3961   -0.8811 H   0  0  0  0  0  0  0  0  0  0  0  0
    8.2959    1.2645   -0.7562 H   0  0  0  0  0  0  0  0  0  0  0  0
    7.1293   -0.7915   -0.1036 H   0  0  0  0  0  0  0  0  0  0  0  0
    2.6204   -4.3029    1.4825 H   0  0  0  0  0  0  0  0  0  0  0  0
   -0.2945   -3.6423    1.9820 H   0  0  0  0  0  0  0  0  0  0  0  0
    0.6684   -4.4703    0.7273 H   0  0  0  0  0  0  0  0  0  0  0  0
    0.0598   -3.3566   -1.6159 H   0  0  0  0  0  0  0  0  0  0  0  0
   -2.9397   -2.3150   -0.1589 H   0  0  0  0  0  0  0  0  0  0  0  0
   -1.6495   -1.7900   -1.2474 H   0  0  0  0  0  0  0  0  0  0  0  0
   -1.5851   -1.5103    1.8258 H   0  0  0  0  0  0  0  0  0  0  0  0
   -3.5905   -0.6814    1.6721 H   0  0  0  0  0  0  0  0  0  0  0  0
   -4.6208    1.4004    2.1704 H   0  0  0  0  0  0  0  0  0  0  0  0
   -2.8696    1.5523    2.5504 H   0  0  0  0  0  0  0  0  0  0  0  0
   -2.4484    2.7745    0.4556 H   0  0  0  0  0  0  0  0  0  0  0  0
   -3.7889    4.6864    0.8359 H   0  0  0  0  0  0  0  0  0  0  0  0
   -3.2670    4.0323    2.2822 H   0  0  0  0  0  0  0  0  0  0  0  0
   -4.1817    3.2256   -1.2102 H   0  0  0  0  0  0  0  0  0  0  0  0
   -6.0469    3.3642   -0.1028 H   0  0  0  0  0  0  0  0  0  0  0  0
   -2.9462    1.1008   -1.4341 H   0  0  0  0  0  0  0  0  0  0  0  0
   -4.5113   -0.1732   -2.8032 H   0  0  0  0  0  0  0  0  0  0  0  0
   -4.7284    1.5949   -3.0776 H   0  0  0  0  0  0  0  0  0  0  0  0
   -5.9214    0.6780   -2.0706 H   0  0  0  0  0  0  0  0  0  0  0  0
    0.5697    2.0997   -0.2840 H   0  0  0  0  0  0  0  0  0  0  0  0
   -3.5056   -5.9060   -0.6103 H   0  0  0  0  0  0  0  0  0  0  0  0
   -1.8070   -6.0607   -1.1837 H   0  0  0  0  0  0  0  0  0  0  0  0
   -2.2763   -6.7600    0.3990 H   0  0  0  0  0  0  0  0  0  0  0  0
  1  2  1  0
  2  3  1  0
  3  4  2  0
  4  5  1  0
  5  6  2  0
  6  7  1  0
  7  8  1  0
  8  9  2  0
  8 10  1  0
 10 11  2  0
 11 12  1  0
 11 13  1  0
 13 14  1  0
 14 15  1  0
 15 16  1  6
 15 17  1  0
 17 18  1  0
 18 19  1  0
 20 19  1  0
 20 21  1  0
 21 22  1  0
 22 23  1  0
 22 24  1  0
 24 25  1  0
 24 26  1  0
 26 27  1  0
 26 28  1  0
 28 20  1  0
 18 29  1  0
 29 13  2  0
 29 30  1  0
 30 31  1  0
 30 32  2  0
 32 10  1  0
 32 33  1  0
 33 34  2  0
 33 35  1  0
 35  3  1  0
 35  7  2  0
 15 36  1  0
 36 37  2  0
 36 38  1  0
  1 39  1  0
  1 40  1  0
  1 41  1  0
  4 42  1  0
  5 43  1  0
  6 44  1  0
 12 45  1  0
 14 46  1  0
 14 47  1  0
 16 48  1  0
 17 49  1  0
 17 50  1  0
 18 51  1  1
 20 52  1  1
 21 53  1  0
 21 54  1  0
 22 55  1  6
 23 56  1  0
 23 57  1  0
 24 58  1  6
 25 59  1  0
 26 60  1  6
 27 61  1  0
 27 62  1  0
 27 63  1  0
 31 64  1  0
 38 65  1  0
 38 66  1  0
 38 67  1  0
M  END
> <ID>
HT0595

> <Class>
1.0

> <Clusters>
86

> <Fold>
5

$$$$