
     RDKit          3D

 48 50  0  0  0  0  0  0  0  0999 V2000
   -1.1253    1.3018    2.3371 C   0  0  0  0  0  0  0  0  0  0  0  0
   -1.0302    0.5322    1.0139 C   0  0  1  0  0  0  0  0  0  0  0  0
    0.0425   -0.4803    1.0918 N   0  0  0  0  0  0  0  0  0  0  0  0
    0.4034   -0.9832   -0.2437 C   0  0  0  0  0  0  0  0  0  0  0  0
    1.2238   -2.2778   -0.1367 C   0  0  0  0  0  0  0  0  0  0  0  0
    2.5963   -2.0930    0.5334 C   0  0  0  0  0  0  0  0  0  0  0  0
    3.4735   -1.1177   -0.2126 C   0  0  0  0  0  0  0  0  0  0  0  0
    3.9690   -1.4433   -1.4845 C   0  0  0  0  0  0  0  0  0  0  0  0
    4.7852   -0.5441   -2.1732 C   0  0  0  0  0  0  0  0  0  0  0  0
    5.1087    0.6896   -1.6038 C   0  0  0  0  0  0  0  0  0  0  0  0
    4.6046    1.0436   -0.3403 C   0  0  0  0  0  0  0  0  0  0  0  0
    3.8087    0.1205    0.3610 C   0  0  0  0  0  0  0  0  0  0  0  0
    4.9885    2.3548    0.2983 C   0  0  0  0  0  0  0  0  0  0  0  0
    6.1198    2.1706    1.0710 F   0  0  0  0  0  0  0  0  0  0  0  0
    3.9634    2.8218    1.1029 F   0  0  0  0  0  0  0  0  0  0  0  0
    5.2519    3.3130   -0.6653 F   0  0  0  0  0  0  0  0  0  0  0  0
   -2.3842   -0.1168    0.7227 C   0  0  0  0  0  0  0  0  0  0  0  0
   -2.6548   -1.3815    1.2852 C   0  0  0  0  0  0  0  0  0  0  0  0
   -3.8421   -2.0546    1.0094 C   0  0  0  0  0  0  0  0  0  0  0  0
   -4.7982   -1.4798    0.1795 C   0  0  0  0  0  0  0  0  0  0  0  0
   -4.5895   -0.2053   -0.3616 C   0  0  0  0  0  0  0  0  0  0  0  0
   -5.5804    0.3741   -1.1700 C   0  0  0  0  0  0  0  0  0  0  0  0
   -5.4068    1.6569   -1.6862 C   0  0  0  0  0  0  0  0  0  0  0  0
   -4.2517    2.3774   -1.3916 C   0  0  0  0  0  0  0  0  0  0  0  0
   -3.2523    1.8160   -0.5929 C   0  0  0  0  0  0  0  0  0  0  0  0
   -3.3873    0.5045   -0.0802 C   0  0  0  0  0  0  0  0  0  0  0  0
   -0.1754    1.8423    2.5358 H   0  0  0  0  0  0  0  0  0  0  0  0
   -1.3235    0.6045    3.1793 H   0  0  0  0  0  0  0  0  0  0  0  0
   -1.9440    2.0514    2.2887 H   0  0  0  0  0  0  0  0  0  0  0  0
   -0.7508    1.2603    0.2245 H   0  0  0  0  0  0  0  0  0  0  0  0
    0.8960   -0.0203    1.4867 H   0  0  0  0  0  0  0  0  0  0  0  0
   -0.5111   -1.2228   -0.8298 H   0  0  0  0  0  0  0  0  0  0  0  0
    0.9681   -0.2104   -0.8116 H   0  0  0  0  0  0  0  0  0  0  0  0
    0.6402   -3.0248    0.4443 H   0  0  0  0  0  0  0  0  0  0  0  0
    1.3661   -2.6968   -1.1564 H   0  0  0  0  0  0  0  0  0  0  0  0
    2.4535   -1.7744    1.5883 H   0  0  0  0  0  0  0  0  0  0  0  0
    3.1119   -3.0768    0.5727 H   0  0  0  0  0  0  0  0  0  0  0  0
    3.7308   -2.3972   -1.9382 H   0  0  0  0  0  0  0  0  0  0  0  0
    5.1727   -0.8062   -3.1492 H   0  0  0  0  0  0  0  0  0  0  0  0
    5.7551    1.3649   -2.1500 H   0  0  0  0  0  0  0  0  0  0  0  0
    3.4444    0.3677    1.3507 H   0  0  0  0  0  0  0  0  0  0  0  0
   -1.9340   -1.8620    1.9348 H   0  0  0  0  0  0  0  0  0  0  0  0
   -4.0198   -3.0319    1.4394 H   0  0  0  0  0  0  0  0  0  0  0  0
   -5.7119   -2.0254   -0.0254 H   0  0  0  0  0  0  0  0  0  0  0  0
   -6.4943   -0.1629   -1.3957 H   0  0  0  0  0  0  0  0  0  0  0  0
   -6.1767    2.0996   -2.3049 H   0  0  0  0  0  0  0  0  0  0  0  0
   -4.1324    3.3817   -1.7778 H   0  0  0  0  0  0  0  0  0  0  0  0
   -2.4017    2.4400   -0.3696 H   0  0  0  0  0  0  0  0  0  0  0  0
  2  1  1  0
  2  3  1  0
  3  4  1  0
  4  5  1  0
  5  6  1  0
  6  7  1  0
  7  8  2  0
  8  9  1  0
  9 10  2  0
 10 11  1  0
 11 12  2  0
 12  7  1  0
 11 13  1  0
 13 14  1  0
 13 15  1  0
 13 16  1  0
  2 17  1  0
 17 18  2  0
 18 19  1  0
 19 20  2  0
 20 21  1  0
 21 22  2  0
 22 23  1  0
 23 24  2  0
 24 25  1  0
 25 26  2  0
 26 17  1  0
 26 21  1  0
  1 27  1  0
  1 28  1  0
  1 29  1  0
  2 30  1  6
  3 31  1  0
  4 32  1  0
  4 33  1  0
  5 34  1  0
  5 35  1  0
  6 36  1  0
  6 37  1  0
  8 38  1  0
  9 39  1  0
 10 40  1  0
 12 41  1  0
 18 42  1  0
 19 43  1  0
 20 44  1  0
 22 45  1  0
 23 46  1  0
 24 47  1  0
 25 48  1  0
M  END
> <ID>
HT0487

> <Class>
1.0

> <Clusters>
39

> <Fold>
5

$$$$