
     RDKit          3D

 45 47  0  0  0  0  0  0  0  0999 V2000
    3.6797    1.3363   -0.6793 C   0  0  0  0  0  0  0  0  0  0  0  0
    3.9752    0.1815    0.1810 N   0  0  0  0  0  0  0  0  0  0  0  0
    4.0360   -1.0761   -0.5803 C   0  0  0  0  0  0  0  0  0  0  0  0
    3.1648    0.1067    1.4215 C   0  0  0  0  0  0  0  0  0  0  0  0
    1.6546    0.4112    1.2802 C   0  0  0  0  0  0  0  0  0  0  0  0
    0.8777   -0.6479    0.4747 C   0  0  0  0  0  0  0  0  0  0  0  0
   -0.6637   -0.5221    0.6165 C   0  0  1  0  0  0  0  0  0  0  0  0
   -0.9959   -0.5839    2.0060 O   0  0  0  0  0  0  0  0  0  0  0  0
   -1.7477    0.5734    2.3468 C   0  0  0  0  0  0  0  0  0  0  0  0
   -1.7938    1.4257    1.1509 C   0  0  0  0  0  0  0  0  0  0  0  0
   -2.3547    2.6956    1.0065 C   0  0  0  0  0  0  0  0  0  0  0  0
   -2.2354    3.3407   -0.2373 C   0  0  0  0  0  0  0  0  0  0  0  0
   -1.5537    2.7049   -1.2954 C   0  0  0  0  0  0  0  0  0  0  0  0
   -1.0015    1.4269   -1.1111 C   0  0  0  0  0  0  0  0  0  0  0  0
   -1.1531    0.8046    0.1353 C   0  0  0  0  0  0  0  0  0  0  0  0
   -2.7975    4.6519   -0.4258 C   0  0  0  0  0  0  0  0  0  0  0  0
   -3.2496    5.7063   -0.5774 N   0  0  0  0  0  0  0  0  0  0  0  0
   -1.3825   -1.6509   -0.1351 C   0  0  0  0  0  0  0  0  0  0  0  0
   -1.1006   -1.9161   -1.4939 C   0  0  0  0  0  0  0  0  0  0  0  0
   -1.7684   -2.9349   -2.1791 C   0  0  0  0  0  0  0  0  0  0  0  0
   -2.7315   -3.7048   -1.5273 C   0  0  0  0  0  0  0  0  0  0  0  0
   -3.3780   -4.6917   -2.1954 F   0  0  0  0  0  0  0  0  0  0  0  0
   -3.0305   -3.4560   -0.1879 C   0  0  0  0  0  0  0  0  0  0  0  0
   -2.3666   -2.4390    0.5042 C   0  0  0  0  0  0  0  0  0  0  0  0
    3.6464    2.2680   -0.0749 H   0  0  0  0  0  0  0  0  0  0  0  0
    2.7148    1.2066   -1.2148 H   0  0  0  0  0  0  0  0  0  0  0  0
    4.4868    1.4573   -1.4328 H   0  0  0  0  0  0  0  0  0  0  0  0
    4.1818   -1.9451    0.0960 H   0  0  0  0  0  0  0  0  0  0  0  0
    4.9094   -1.0473   -1.2657 H   0  0  0  0  0  0  0  0  0  0  0  0
    3.1287   -1.2372   -1.1938 H   0  0  0  0  0  0  0  0  0  0  0  0
    3.5832    0.8472    2.1369 H   0  0  0  0  0  0  0  0  0  0  0  0
    3.2951   -0.8809    1.9164 H   0  0  0  0  0  0  0  0  0  0  0  0
    1.4939    1.4199    0.8454 H   0  0  0  0  0  0  0  0  0  0  0  0
    1.2466    0.4501    2.3123 H   0  0  0  0  0  0  0  0  0  0  0  0
    1.1859   -1.6628    0.8097 H   0  0  0  0  0  0  0  0  0  0  0  0
    1.1498   -0.5341   -0.5899 H   0  0  0  0  0  0  0  0  0  0  0  0
   -1.2468    1.1108    3.1793 H   0  0  0  0  0  0  0  0  0  0  0  0
   -2.7754    0.2803    2.6483 H   0  0  0  0  0  0  0  0  0  0  0  0
   -2.8606    3.1697    1.8389 H   0  0  0  0  0  0  0  0  0  0  0  0
   -1.4457    3.1984   -2.2537 H   0  0  0  0  0  0  0  0  0  0  0  0
   -0.4606    0.9512   -1.9160 H   0  0  0  0  0  0  0  0  0  0  0  0
   -0.3625   -1.3441   -2.0353 H   0  0  0  0  0  0  0  0  0  0  0  0
   -1.5374   -3.1260   -3.2193 H   0  0  0  0  0  0  0  0  0  0  0  0
   -3.7810   -4.0505    0.3173 H   0  0  0  0  0  0  0  0  0  0  0  0
   -2.6357   -2.2738    1.5386 H   0  0  0  0  0  0  0  0  0  0  0  0
  1  2  1  0
  2  3  1  0
  2  4  1  0
  4  5  1  0
  5  6  1  0
  7  6  1  1
  7  8  1  0
  8  9  1  0
  9 10  1  0
 10 11  2  0
 11 12  1  0
 12 13  2  0
 13 14  1  0
 14 15  2  0
 15  7  1  0
 15 10  1  0
 12 16  1  0
 16 17  3  0
  7 18  1  0
 18 19  2  0
 19 20  1  0
 20 21  2  0
 21 22  1  0
 21 23  1  0
 23 24  2  0
 24 18  1  0
  1 25  1  0
  1 26  1  0
  1 27  1  0
  3 28  1  0
  3 29  1  0
  3 30  1  0
  4 31  1  0
  4 32  1  0
  5 33  1  0
  5 34  1  0
  6 35  1  0
  6 36  1  0
  9 37  1  0
  9 38  1  0
 11 39  1  0
 13 40  1  0
 14 41  1  0
 19 42  1  0
 20 43  1  0
 23 44  1  0
 24 45  1  0
M  END
> <ID>
HT0501

> <Class>
1.0

> <Clusters>
131

> <Fold>
5

$$$$