
     RDKit          3D

 50 52  0  0  0  0  0  0  0  0999 V2000
   -1.5635    6.6026    0.1102 C   0  0  0  0  0  0  0  0  0  0  0  0
   -1.2617    5.1332    0.1233 C   0  0  0  0  0  0  0  0  0  0  0  0
   -0.0168    4.6832    0.5837 C   0  0  0  0  0  0  0  0  0  0  0  0
    0.2785    3.3172    0.5998 C   0  0  0  0  0  0  0  0  0  0  0  0
   -0.6687    2.3771    0.1582 C   0  0  0  0  0  0  0  0  0  0  0  0
   -1.9157    2.8335   -0.3070 C   0  0  0  0  0  0  0  0  0  0  0  0
   -2.2096    4.2001   -0.3228 C   0  0  0  0  0  0  0  0  0  0  0  0
   -0.3394    0.9259    0.1667 C   0  0  0  0  0  0  0  0  0  0  0  0
   -1.2619    0.0418    0.6019 C   0  0  0  0  0  0  0  0  0  0  0  0
   -1.0755   -1.4538    0.5780 C   0  0  0  0  0  0  0  0  0  0  0  0
   -2.3502   -2.1400    0.8639 N   0  0  0  0  0  0  0  0  0  0  0  0
   -2.1475   -3.5741    1.0788 C   0  0  0  0  0  0  0  0  0  0  0  0
   -3.4672   -4.2452    0.7543 C   0  0  0  0  0  0  0  0  0  0  0  0
   -4.1387   -3.3218   -0.2465 C   0  0  0  0  0  0  0  0  0  0  0  0
   -3.3100   -2.0416   -0.2458 C   0  0  0  0  0  0  0  0  0  0  0  0
    1.0023    0.4948   -0.3087 C   0  0  0  0  0  0  0  0  0  0  0  0
    1.5734    1.0741   -1.4511 C   0  0  0  0  0  0  0  0  0  0  0  0
    2.8370    0.6610   -1.8708 C   0  0  0  0  0  0  0  0  0  0  0  0
    3.5284   -0.3145   -1.1516 C   0  0  0  0  0  0  0  0  0  0  0  0
    2.9433   -0.8668    0.0029 C   0  0  0  0  0  0  0  0  0  0  0  0
    3.5972   -1.9156    0.8171 C   0  0  0  0  0  0  0  0  0  0  0  0
    4.9081   -2.1935    0.7742 C   0  0  0  0  0  0  0  0  0  0  0  0
    5.5165   -3.2444    1.6128 C   0  0  0  0  0  0  0  0  0  0  0  0
    4.8104   -3.9377    2.3929 O   0  0  0  0  0  0  0  0  0  0  0  0
    6.8863   -3.4831    1.5471 O   0  0  0  0  0  0  0  0  0  0  0  0
    1.7038   -0.4484    0.3792 N   0  0  0  0  0  0  0  0  0  0  0  0
   -0.8295    7.1283   -0.5362 H   0  0  0  0  0  0  0  0  0  0  0  0
   -2.5837    6.8060   -0.2788 H   0  0  0  0  0  0  0  0  0  0  0  0
   -1.4934    7.0071    1.1418 H   0  0  0  0  0  0  0  0  0  0  0  0
    0.7255    5.3915    0.9309 H   0  0  0  0  0  0  0  0  0  0  0  0
    1.2449    2.9927    0.9655 H   0  0  0  0  0  0  0  0  0  0  0  0
   -2.6564    2.1343   -0.6749 H   0  0  0  0  0  0  0  0  0  0  0  0
   -3.1749    4.5281   -0.6880 H   0  0  0  0  0  0  0  0  0  0  0  0
   -2.2125    0.4138    0.9671 H   0  0  0  0  0  0  0  0  0  0  0  0
   -0.6664   -1.7746   -0.4073 H   0  0  0  0  0  0  0  0  0  0  0  0
   -0.3365   -1.7172    1.3661 H   0  0  0  0  0  0  0  0  0  0  0  0
   -1.8581   -3.7666    2.1343 H   0  0  0  0  0  0  0  0  0  0  0  0
   -1.3591   -3.9793    0.4018 H   0  0  0  0  0  0  0  0  0  0  0  0
   -3.3104   -5.2620    0.3324 H   0  0  0  0  0  0  0  0  0  0  0  0
   -4.0869   -4.3192    1.6754 H   0  0  0  0  0  0  0  0  0  0  0  0
   -4.1405   -3.7815   -1.2594 H   0  0  0  0  0  0  0  0  0  0  0  0
   -5.1878   -3.1136    0.0594 H   0  0  0  0  0  0  0  0  0  0  0  0
   -3.9666   -1.1582   -0.0935 H   0  0  0  0  0  0  0  0  0  0  0  0
   -2.7992   -1.9383   -1.2309 H   0  0  0  0  0  0  0  0  0  0  0  0
    1.0405    1.8267   -2.0194 H   0  0  0  0  0  0  0  0  0  0  0  0
    3.2780    1.0916   -2.7607 H   0  0  0  0  0  0  0  0  0  0  0  0
    4.4927   -0.6386   -1.5158 H   0  0  0  0  0  0  0  0  0  0  0  0
    2.9654   -2.4562    1.5122 H   0  0  0  0  0  0  0  0  0  0  0  0
    5.5701   -1.6316    0.1314 H   0  0  0  0  0  0  0  0  0  0  0  0
    7.4857   -2.9471    0.9309 H   0  0  0  0  0  0  0  0  0  0  0  0
  1  2  1  0
  2  3  2  0
  3  4  1  0
  4  5  2  0
  5  6  1  0
  6  7  2  0
  7  2  1  0
  5  8  1  0
  8  9  2  3
  9 10  1  0
 10 11  1  0
 11 12  1  0
 12 13  1  0
 13 14  1  0
 14 15  1  0
 15 11  1  0
  8 16  1  0
 16 17  2  0
 17 18  1  0
 18 19  2  0
 19 20  1  0
 20 21  1  0
 21 22  2  3
 22 23  1  0
 23 24  2  0
 23 25  1  0
 20 26  2  0
 26 16  1  0
  1 27  1  0
  1 28  1  0
  1 29  1  0
  3 30  1  0
  4 31  1  0
  6 32  1  0
  7 33  1  0
  9 34  1  0
 10 35  1  0
 10 36  1  0
 12 37  1  0
 12 38  1  0
 13 39  1  0
 13 40  1  0
 14 41  1  0
 14 42  1  0
 15 43  1  0
 15 44  1  0
 17 45  1  0
 18 46  1  0
 19 47  1  0
 21 48  1  0
 22 49  1  0
 25 50  1  0
M  END
> <ID>
HT0069

> <Class>
1.0

> <Clusters>
236

> <Fold>
5

$$$$