
     RDKit          3D

 68 72  0  0  0  0  0  0  0  0999 V2000
    3.9551   -5.3243    3.2347 C   0  0  0  0  0  0  0  0  0  0  0  0
    3.6740   -4.0760    2.6100 O   0  0  0  0  0  0  0  0  0  0  0  0
    4.6242   -3.0709    2.3611 C   0  0  0  0  0  0  0  0  0  0  0  0
    5.9764   -3.2458    2.7127 C   0  0  0  0  0  0  0  0  0  0  0  0
    6.9120   -2.2510    2.4436 C   0  0  0  0  0  0  0  0  0  0  0  0
    6.5187   -1.0696    1.8215 C   0  0  0  0  0  0  0  0  0  0  0  0
    5.1750   -0.8634    1.4652 C   0  0  0  0  0  0  0  0  0  0  0  0
    4.7690    0.3922    0.7917 C   0  0  0  0  0  0  0  0  0  0  0  0
    5.6633    1.1895    0.4001 O   0  0  0  0  0  0  0  0  0  0  0  0
    3.3362    0.6506    0.4705 C   0  0  0  0  0  0  0  0  0  0  0  0
    2.8811    1.9094    0.0043 C   0  0  0  0  0  0  0  0  0  0  0  0
    3.6803    3.0559    0.0815 O   0  0  0  0  0  0  0  0  0  0  0  0
    1.5807    2.0459   -0.5190 C   0  0  0  0  0  0  0  0  0  0  0  0
    1.1610    3.3920   -1.0810 C   0  0  0  0  0  0  0  0  0  0  0  0
   -0.3710    3.5590   -1.2236 C   0  0  1  0  0  0  0  0  0  0  0  0
   -0.6282    4.7216   -1.9782 O   0  0  0  0  0  0  0  0  0  0  0  0
   -0.9142    2.3160   -1.9642 C   0  0  0  0  0  0  0  0  0  0  0  0
   -0.6704    1.0046   -1.1906 C   0  0  2  0  0  0  0  0  0  0  0  0
   -1.6150    0.8910   -0.1347 O   0  0  0  0  0  0  0  0  0  0  0  0
   -2.6464   -0.0300   -0.4386 C   0  0  1  0  0  0  0  0  0  0  0  0
   -3.5120   -0.2283    0.8213 C   0  0  0  0  0  0  0  0  0  0  0  0
   -4.9565   -0.6421    0.4659 C   0  0  2  0  0  0  0  0  0  0  0  0
   -5.5376   -1.4471    1.5417 N   0  0  0  0  0  0  0  0  0  0  0  0
   -4.9815   -1.4099   -0.8696 C   0  0  2  0  0  0  0  0  0  0  0  0
   -4.2639   -2.6149   -0.7462 O   0  0  0  0  0  0  0  0  0  0  0  0
   -4.3646   -0.5059   -1.9822 C   0  0  2  0  0  0  0  0  0  0  0  0
   -3.7509   -1.2978   -3.1430 C   0  0  0  0  0  0  0  0  0  0  0  0
   -3.4428    0.4681   -1.5007 O   0  0  0  0  0  0  0  0  0  0  0  0
    0.7273    0.9200   -0.5914 C   0  0  0  0  0  0  0  0  0  0  0  0
    1.1542   -0.3101   -0.0535 C   0  0  0  0  0  0  0  0  0  0  0  0
    0.3117   -1.4184   -0.1920 O   0  0  0  0  0  0  0  0  0  0  0  0
    2.4233   -0.4206    0.5648 C   0  0  0  0  0  0  0  0  0  0  0  0
    2.7985   -1.6127    1.3765 C   0  0  0  0  0  0  0  0  0  0  0  0
    1.8960   -2.3508    1.8563 O   0  0  0  0  0  0  0  0  0  0  0  0
    4.2179   -1.8626    1.7391 C   0  0  0  0  0  0  0  0  0  0  0  0
   -1.0549    3.7334    0.1366 C   0  0  0  0  0  0  0  0  0  0  0  0
   -0.4021    3.6277    1.1651 O   0  0  0  0  0  0  0  0  0  0  0  0
   -2.5276    4.0408    0.2773 C   0  0  0  0  0  0  0  0  0  0  0  0
   -3.1224    4.3219   -0.9595 O   0  0  0  0  0  0  0  0  0  0  0  0
    3.0200   -5.9179    3.2964 H   0  0  0  0  0  0  0  0  0  0  0  0
    4.3403   -5.1583    4.2629 H   0  0  0  0  0  0  0  0  0  0  0  0
    4.6969   -5.8934    2.6353 H   0  0  0  0  0  0  0  0  0  0  0  0
    6.3174   -4.1530    3.1920 H   0  0  0  0  0  0  0  0  0  0  0  0
    7.9495   -2.3982    2.7163 H   0  0  0  0  0  0  0  0  0  0  0  0
    7.2685   -0.3149    1.6213 H   0  0  0  0  0  0  0  0  0  0  0  0
    4.4620    3.1513    0.7141 H   0  0  0  0  0  0  0  0  0  0  0  0
    1.5509    4.2209   -0.4496 H   0  0  0  0  0  0  0  0  0  0  0  0
    1.6416    3.4957   -2.0786 H   0  0  0  0  0  0  0  0  0  0  0  0
   -0.2552    4.5959   -2.8900 H   0  0  0  0  0  0  0  0  0  0  0  0
   -1.9942    2.4344   -2.1852 H   0  0  0  0  0  0  0  0  0  0  0  0
   -0.4078    2.2334   -2.9523 H   0  0  0  0  0  0  0  0  0  0  0  0
   -0.7525    0.1818   -1.9426 H   0  0  0  0  0  0  0  0  0  0  0  0
   -2.2000   -1.0172   -0.7032 H   0  0  0  0  0  0  0  0  0  0  0  0
   -3.5508    0.7133    1.4119 H   0  0  0  0  0  0  0  0  0  0  0  0
   -3.0329   -1.0028    1.4602 H   0  0  0  0  0  0  0  0  0  0  0  0
   -5.5665    0.2834    0.3405 H   0  0  0  0  0  0  0  0  0  0  0  0
   -6.5348   -1.6498    1.2983 H   0  0  0  0  0  0  0  0  0  0  0  0
   -5.5652   -0.8621    2.4083 H   0  0  0  0  0  0  0  0  0  0  0  0
   -6.0394   -1.6322   -1.1491 H   0  0  0  0  0  0  0  0  0  0  0  0
   -4.8789   -3.2795   -0.3394 H   0  0  0  0  0  0  0  0  0  0  0  0
   -5.2116    0.0684   -2.4174 H   0  0  0  0  0  0  0  0  0  0  0  0
   -3.4353   -0.5993   -3.9469 H   0  0  0  0  0  0  0  0  0  0  0  0
   -4.5003   -2.0029   -3.5613 H   0  0  0  0  0  0  0  0  0  0  0  0
   -2.8617   -1.8723   -2.8104 H   0  0  0  0  0  0  0  0  0  0  0  0
    0.6296   -2.3750   -0.1179 H   0  0  0  0  0  0  0  0  0  0  0  0
   -2.6448    4.9221    0.9458 H   0  0  0  0  0  0  0  0  0  0  0  0
   -3.0328    3.1687    0.7476 H   0  0  0  0  0  0  0  0  0  0  0  0
   -4.0857    4.4719   -0.7745 H   0  0  0  0  0  0  0  0  0  0  0  0
  1  2  1  0
  2  3  1  0
  3  4  2  0
  4  5  1  0
  5  6  2  0
  6  7  1  0
  7  8  1  0
  8  9  2  0
  8 10  1  0
 10 11  2  0
 11 12  1  0
 11 13  1  0
 13 14  1  0
 14 15  1  0
 15 16  1  6
 15 17  1  0
 17 18  1  0
 18 19  1  0
 20 19  1  0
 20 21  1  0
 21 22  1  0
 22 23  1  0
 22 24  1  0
 24 25  1  0
 24 26  1  0
 26 27  1  0
 26 28  1  0
 28 20  1  0
 18 29  1  0
 29 13  2  0
 29 30  1  0
 30 31  1  0
 30 32  2  0
 32 10  1  0
 32 33  1  0
 33 34  2  0
 33 35  1  0
 35  3  1  0
 35  7  2  0
 15 36  1  0
 36 37  2  0
 36 38  1  0
 38 39  1  0
  1 40  1  0
  1 41  1  0
  1 42  1  0
  4 43  1  0
  5 44  1  0
  6 45  1  0
 12 46  1  0
 14 47  1  0
 14 48  1  0
 16 49  1  0
 17 50  1  0
 17 51  1  0
 18 52  1  6
 20 53  1  6
 21 54  1  0
 21 55  1  0
 22 56  1  6
 23 57  1  0
 23 58  1  0
 24 59  1  6
 25 60  1  0
 26 61  1  6
 27 62  1  0
 27 63  1  0
 27 64  1  0
 31 65  1  0
 38 66  1  0
 38 67  1  0
 39 68  1  0
M  END
> <ID>
HT0719

> <Class>
1.0

> <Clusters>
86

> <Fold>
5

$$$$