
     RDKit          3D

 43 45  0  0  0  0  0  0  0  0999 V2000
    4.5402    0.2065   -0.6957 C   0  0  0  0  0  0  0  0  0  0  0  0
    3.4905   -0.6859   -1.2190 N   0  0  0  0  0  0  0  0  0  0  0  0
    3.5389   -0.6840   -2.6903 C   0  0  0  0  0  0  0  0  0  0  0  0
    2.1522   -0.2605   -0.7548 C   0  0  0  0  0  0  0  0  0  0  0  0
    1.8794   -0.7673    0.6684 C   0  0  0  0  0  0  0  0  0  0  0  0
    0.4774   -0.5174    1.0408 N   0  0  0  0  0  0  0  0  0  0  0  0
   -0.3979   -1.6230    1.3444 C   0  0  0  0  0  0  0  0  0  0  0  0
    0.0976   -2.6531    1.8796 O   0  0  0  0  0  0  0  0  0  0  0  0
   -1.8631   -1.6094    1.0497 C   0  0  0  0  0  0  0  0  0  0  0  0
   -2.6803   -2.5726    1.6786 C   0  0  0  0  0  0  0  0  0  0  0  0
   -4.0399   -2.6680    1.3809 C   0  0  0  0  0  0  0  0  0  0  0  0
   -4.6115   -1.8109    0.4455 C   0  0  0  0  0  0  0  0  0  0  0  0
   -3.8274   -0.8493   -0.1891 C   0  0  0  0  0  0  0  0  0  0  0  0
   -2.4555   -0.7314    0.1018 C   0  0  0  0  0  0  0  0  0  0  0  0
   -1.6969    0.3109   -0.5337 N   0  0  0  0  0  0  0  0  0  0  0  0
   -1.8479    0.5817   -1.9644 C   0  0  0  0  0  0  0  0  0  0  0  0
   -1.0338    1.2638    0.3024 C   0  0  0  0  0  0  0  0  0  0  0  0
   -1.4274    2.6115    0.3065 C   0  0  0  0  0  0  0  0  0  0  0  0
   -0.7841    3.5271    1.1433 C   0  0  0  0  0  0  0  0  0  0  0  0
    0.2543    3.1029    1.9756 C   0  0  0  0  0  0  0  0  0  0  0  0
    0.6551    1.7641    1.9670 C   0  0  0  0  0  0  0  0  0  0  0  0
    0.0094    0.8378    1.1312 C   0  0  0  0  0  0  0  0  0  0  0  0
    5.5397   -0.1319   -1.0449 H   0  0  0  0  0  0  0  0  0  0  0  0
    4.5644    0.1739    0.4126 H   0  0  0  0  0  0  0  0  0  0  0  0
    4.3820    1.2576   -1.0259 H   0  0  0  0  0  0  0  0  0  0  0  0
    3.3045    0.3243   -3.0998 H   0  0  0  0  0  0  0  0  0  0  0  0
    4.5454   -0.9956   -3.0447 H   0  0  0  0  0  0  0  0  0  0  0  0
    2.8120   -1.4195   -3.0974 H   0  0  0  0  0  0  0  0  0  0  0  0
    1.3605   -0.6929   -1.4090 H   0  0  0  0  0  0  0  0  0  0  0  0
    2.0440    0.8473   -0.7982 H   0  0  0  0  0  0  0  0  0  0  0  0
    2.5508   -0.2690    1.3968 H   0  0  0  0  0  0  0  0  0  0  0  0
    2.1103   -1.8543    0.6989 H   0  0  0  0  0  0  0  0  0  0  0  0
   -2.2667   -3.2615    2.4048 H   0  0  0  0  0  0  0  0  0  0  0  0
   -4.6507   -3.4130    1.8745 H   0  0  0  0  0  0  0  0  0  0  0  0
   -5.6667   -1.8863    0.2164 H   0  0  0  0  0  0  0  0  0  0  0  0
   -4.2976   -0.1780   -0.8959 H   0  0  0  0  0  0  0  0  0  0  0  0
   -2.0087   -0.3674   -2.5189 H   0  0  0  0  0  0  0  0  0  0  0  0
   -0.9271    1.0609   -2.3607 H   0  0  0  0  0  0  0  0  0  0  0  0
   -2.7120    1.2573   -2.1350 H   0  0  0  0  0  0  0  0  0  0  0  0
   -2.2385    2.9476   -0.3264 H   0  0  0  0  0  0  0  0  0  0  0  0
   -1.0925    4.5646    1.1488 H   0  0  0  0  0  0  0  0  0  0  0  0
    0.7523    3.8126    2.6234 H   0  0  0  0  0  0  0  0  0  0  0  0
    1.4654    1.4500    2.6119 H   0  0  0  0  0  0  0  0  0  0  0  0
  1  2  1  0
  2  3  1  0
  2  4  1  0
  4  5  1  0
  5  6  1  0
  6  7  1  0
  7  8  2  0
  7  9  1  0
  9 10  2  0
 10 11  1  0
 11 12  2  0
 12 13  1  0
 13 14  2  0
 14  9  1  0
 14 15  1  0
 15 16  1  0
 15 17  1  0
 17 18  2  0
 18 19  1  0
 19 20  2  0
 20 21  1  0
 21 22  2  0
 22  6  1  0
 22 17  1  0
  1 23  1  0
  1 24  1  0
  1 25  1  0
  3 26  1  0
  3 27  1  0
  3 28  1  0
  4 29  1  0
  4 30  1  0
  5 31  1  0
  5 32  1  0
 10 33  1  0
 11 34  1  0
 12 35  1  0
 13 36  1  0
 16 37  1  0
 16 38  1  0
 16 39  1  0
 18 40  1  0
 19 41  1  0
 20 42  1  0
 21 43  1  0
M  END
> <ID>
HT0639

> <Class>
1.0

> <Clusters>
131

> <Fold>
5

$$$$