
     RDKit          3D

 87 86  0  0  0  0  0  0  0  0999 V2000
  -12.5619   -1.5498    0.3593 C   0  0  0  0  0  0  0  0  0  0  0  0
  -12.2266   -1.5228   -1.1050 C   0  0  0  0  0  0  0  0  0  0  0  0
  -13.1685   -1.3263   -1.9190 O   0  0  0  0  0  0  0  0  0  0  0  0
  -10.8913   -1.7178   -1.6171 N   0  0  0  0  0  0  0  0  0  0  0  0
  -10.7259   -1.8146   -2.9609 O   0  0  0  0  0  0  0  0  0  0  0  0
   -9.7071   -1.8688   -0.7658 C   0  0  0  0  0  0  0  0  0  0  0  0
   -9.2799   -0.5141   -0.1901 C   0  0  0  0  0  0  0  0  0  0  0  0
   -8.0492   -0.6643    0.7159 C   0  0  0  0  0  0  0  0  0  0  0  0
   -7.6406    0.6580    1.3906 C   0  0  0  0  0  0  0  0  0  0  0  0
   -7.1977    1.7514    0.4052 C   0  0  0  0  0  0  0  0  0  0  0  0
   -6.1438    1.2732   -0.4866 N   0  0  0  0  0  0  0  0  0  0  0  0
   -4.8004    1.0411   -0.0431 C   0  0  0  0  0  0  0  0  0  0  0  0
   -4.4573    1.3572    1.1311 O   0  0  0  0  0  0  0  0  0  0  0  0
   -3.7939    0.4751   -1.0110 C   0  0  0  0  0  0  0  0  0  0  0  0
   -2.4882    0.0027   -0.3490 C   0  0  0  0  0  0  0  0  0  0  0  0
   -2.6478   -1.2053    0.5482 C   0  0  0  0  0  0  0  0  0  0  0  0
   -3.7841   -1.7364    0.6852 O   0  0  0  0  0  0  0  0  0  0  0  0
   -1.5223   -1.7815    1.2431 N   0  0  0  0  0  0  0  0  0  0  0  0
   -1.7200   -2.9002    1.9847 O   0  0  0  0  0  0  0  0  0  0  0  0
   -0.1636   -1.2368    1.1606 C   0  0  0  0  0  0  0  0  0  0  0  0
    0.0471   -0.1486    2.2211 C   0  0  0  0  0  0  0  0  0  0  0  0
    1.4564    0.4787    2.1502 C   0  0  0  0  0  0  0  0  0  0  0  0
    1.4793    1.8771    1.5052 C   0  0  0  0  0  0  0  0  0  0  0  0
    1.1818    1.8727    0.0002 C   0  0  0  0  0  0  0  0  0  0  0  0
    2.1638    1.0754   -0.7334 N   0  0  0  0  0  0  0  0  0  0  0  0
    3.5065    1.5229   -0.9596 C   0  0  0  0  0  0  0  0  0  0  0  0
    3.8390    2.7035   -0.6611 O   0  0  0  0  0  0  0  0  0  0  0  0
    4.4942    0.5948   -1.6161 C   0  0  0  0  0  0  0  0  0  0  0  0
    5.9626    1.0065   -1.4081 C   0  0  0  0  0  0  0  0  0  0  0  0
    6.4250    0.9370    0.0312 C   0  0  0  0  0  0  0  0  0  0  0  0
    5.6376    0.5251    0.9270 O   0  0  0  0  0  0  0  0  0  0  0  0
    7.7444    1.3704    0.4115 N   0  0  0  0  0  0  0  0  0  0  0  0
    8.0004    1.6114    1.7225 O   0  0  0  0  0  0  0  0  0  0  0  0
    8.8311    1.5511   -0.5573 C   0  0  0  0  0  0  0  0  0  0  0  0
    9.4502    0.2046   -0.9536 C   0  0  0  0  0  0  0  0  0  0  0  0
   10.2370   -0.4261    0.2065 C   0  0  0  0  0  0  0  0  0  0  0  0
   10.7812   -1.8247   -0.1357 C   0  0  0  0  0  0  0  0  0  0  0  0
   11.8951   -1.8170   -1.1937 C   0  0  0  0  0  0  0  0  0  0  0  0
   13.0245   -0.9964   -0.7648 N   0  0  0  0  0  0  0  0  0  0  0  0
  -11.6885   -1.7393    1.0093 H   0  0  0  0  0  0  0  0  0  0  0  0
  -13.0066   -0.5747    0.6516 H   0  0  0  0  0  0  0  0  0  0  0  0
  -13.3056   -2.3525    0.5462 H   0  0  0  0  0  0  0  0  0  0  0  0
  -10.5541   -0.8864   -3.2666 H   0  0  0  0  0  0  0  0  0  0  0  0
   -9.8976   -2.6148    0.0347 H   0  0  0  0  0  0  0  0  0  0  0  0
   -8.8681   -2.2702   -1.3770 H   0  0  0  0  0  0  0  0  0  0  0  0
   -9.0405    0.1615   -1.0385 H   0  0  0  0  0  0  0  0  0  0  0  0
  -10.1124   -0.0649    0.3919 H   0  0  0  0  0  0  0  0  0  0  0  0
   -7.1957   -1.0711    0.1300 H   0  0  0  0  0  0  0  0  0  0  0  0
   -8.2815   -1.3985    1.5180 H   0  0  0  0  0  0  0  0  0  0  0  0
   -6.8093    0.4484    2.0975 H   0  0  0  0  0  0  0  0  0  0  0  0
   -8.4910    1.0427    1.9944 H   0  0  0  0  0  0  0  0  0  0  0  0
   -6.8346    2.6387    0.9681 H   0  0  0  0  0  0  0  0  0  0  0  0
   -8.0696    2.0860   -0.1961 H   0  0  0  0  0  0  0  0  0  0  0  0
   -6.3785    1.1165   -1.4932 H   0  0  0  0  0  0  0  0  0  0  0  0
   -3.5467    1.2691   -1.7484 H   0  0  0  0  0  0  0  0  0  0  0  0
   -4.2526   -0.3676   -1.5724 H   0  0  0  0  0  0  0  0  0  0  0  0
   -1.7748   -0.2544   -1.1601 H   0  0  0  0  0  0  0  0  0  0  0  0
   -2.0593    0.8439    0.2313 H   0  0  0  0  0  0  0  0  0  0  0  0
   -1.9355   -2.5693    2.8953 H   0  0  0  0  0  0  0  0  0  0  0  0
    0.5644   -2.0568    1.3462 H   0  0  0  0  0  0  0  0  0  0  0  0
    0.0424   -0.8575    0.1423 H   0  0  0  0  0  0  0  0  0  0  0  0
   -0.0800   -0.6202    3.2201 H   0  0  0  0  0  0  0  0  0  0  0  0
   -0.7370    0.6319    2.1372 H   0  0  0  0  0  0  0  0  0  0  0  0
    2.1761   -0.1942    1.6352 H   0  0  0  0  0  0  0  0  0  0  0  0
    1.8339    0.5940    3.1905 H   0  0  0  0  0  0  0  0  0  0  0  0
    0.7438    2.5339    2.0171 H   0  0  0  0  0  0  0  0  0  0  0  0
    2.4813    2.3269    1.6721 H   0  0  0  0  0  0  0  0  0  0  0  0
    1.1869    2.9156   -0.3829 H   0  0  0  0  0  0  0  0  0  0  0  0
    0.1666    1.4694   -0.1807 H   0  0  0  0  0  0  0  0  0  0  0  0
    1.8627    0.1610   -1.1394 H   0  0  0  0  0  0  0  0  0  0  0  0
    4.3429   -0.4383   -1.2314 H   0  0  0  0  0  0  0  0  0  0  0  0
    4.2804    0.5796   -2.7055 H   0  0  0  0  0  0  0  0  0  0  0  0
    6.1071    2.0408   -1.7893 H   0  0  0  0  0  0  0  0  0  0  0  0
    6.5947    0.3313   -2.0196 H   0  0  0  0  0  0  0  0  0  0  0  0
    7.7809    2.5697    1.8539 H   0  0  0  0  0  0  0  0  0  0  0  0
    9.6188    2.2024   -0.1187 H   0  0  0  0  0  0  0  0  0  0  0  0
    8.4571    2.0749   -1.4615 H   0  0  0  0  0  0  0  0  0  0  0  0
   10.1343    0.3852   -1.8090 H   0  0  0  0  0  0  0  0  0  0  0  0
    8.6554   -0.4947   -1.2915 H   0  0  0  0  0  0  0  0  0  0  0  0
   11.0706    0.2448    0.5103 H   0  0  0  0  0  0  0  0  0  0  0  0
    9.5618   -0.5354    1.0821 H   0  0  0  0  0  0  0  0  0  0  0  0
    9.9480   -2.4704   -0.4895 H   0  0  0  0  0  0  0  0  0  0  0  0
   11.1789   -2.2869    0.7948 H   0  0  0  0  0  0  0  0  0  0  0  0
   12.2375   -2.8627   -1.3601 H   0  0  0  0  0  0  0  0  0  0  0  0
   11.5027   -1.4395   -2.1620 H   0  0  0  0  0  0  0  0  0  0  0  0
   13.4595   -1.4426    0.0762 H   0  0  0  0  0  0  0  0  0  0  0  0
   13.7433   -1.0255   -1.5212 H   0  0  0  0  0  0  0  0  0  0  0  0
  1  2  1  0
  2  3  2  0
  2  4  1  0
  4  5  1  0
  4  6  1  0
  6  7  1  0
  7  8  1  0
  8  9  1  0
  9 10  1  0
 10 11  1  0
 11 12  1  0
 12 13  2  0
 12 14  1  0
 14 15  1  0
 15 16  1  0
 16 17  2  0
 16 18  1  0
 18 19  1  0
 18 20  1  0
 20 21  1  0
 21 22  1  0
 22 23  1  0
 23 24  1  0
 24 25  1  0
 25 26  1  0
 26 27  2  0
 26 28  1  0
 28 29  1  0
 29 30  1  0
 30 31  2  0
 30 32  1  0
 32 33  1  0
 32 34  1  0
 34 35  1  0
 35 36  1  0
 36 37  1  0
 37 38  1  0
 38 39  1  0
  1 40  1  0
  1 41  1  0
  1 42  1  0
  5 43  1  0
  6 44  1  0
  6 45  1  0
  7 46  1  0
  7 47  1  0
  8 48  1  0
  8 49  1  0
  9 50  1  0
  9 51  1  0
 10 52  1  0
 10 53  1  0
 11 54  1  0
 14 55  1  0
 14 56  1  0
 15 57  1  0
 15 58  1  0
 19 59  1  0
 20 60  1  0
 20 61  1  0
 21 62  1  0
 21 63  1  0
 22 64  1  0
 22 65  1  0
 23 66  1  0
 23 67  1  0
 24 68  1  0
 24 69  1  0
 25 70  1  0
 28 71  1  0
 28 72  1  0
 29 73  1  0
 29 74  1  0
 33 75  1  0
 34 76  1  0
 34 77  1  0
 35 78  1  0
 35 79  1  0
 36 80  1  0
 36 81  1  0
 37 82  1  0
 37 83  1  0
 38 84  1  0
 38 85  1  0
 39 86  1  0
 39 87  1  0
M  END
> <ID>
HT0601

> <Class>
1.0

> <Clusters>
123

> <Fold>
5

$$$$