
     RDKit          3D

119126  0  0  0  0  0  0  0  0999 V2000
   13.4186   -0.7731    2.2350 C   0  0  0  0  0  0  0  0  0  0  0  0
   12.7903   -0.7148    0.8403 C   0  0  1  0  0  0  0  0  0  0  0  0
   11.4135   -0.3984    0.9597 O   0  0  0  0  0  0  0  0  0  0  0  0
   10.7243   -0.6635   -0.2617 C   0  0  2  0  0  0  0  0  0  0  0  0
   11.4843   -0.1356   -1.5121 C   0  0  0  0  0  0  0  0  0  0  0  0
   12.5317    0.9152   -1.1158 C   0  0  2  0  0  0  0  0  0  0  0  0
   13.2301    1.3361   -2.2604 O   0  0  0  0  0  0  0  0  0  0  0  0
   13.5041    0.3422   -0.0500 C   0  0  2  0  0  0  0  0  0  0  0  0
   14.6610   -0.2046   -0.6342 O   0  0  0  0  0  0  0  0  0  0  0  0
    9.4581   -0.0291   -0.2140 O   0  0  0  0  0  0  0  0  0  0  0  0
    8.4714   -0.8261    0.4312 C   0  0  1  0  0  0  0  0  0  0  0  0
    7.7211    0.0417    1.4696 C   0  0  1  0  0  0  0  0  0  0  0  0
    8.6154    0.9254    2.0987 O   0  0  0  0  0  0  0  0  0  0  0  0
    6.5812    0.8209    0.7928 C   0  0  0  0  0  0  0  0  0  0  0  0
    5.6084   -0.1457    0.0681 C   0  0  2  0  0  0  0  0  0  0  0  0
    4.4365   -0.2638    0.8547 O   0  0  0  0  0  0  0  0  0  0  0  0
    3.3046   -0.6135    0.0663 C   0  0  1  0  0  0  0  0  0  0  0  0
    2.3917   -1.5399    0.8998 C   0  0  1  0  0  0  0  0  0  0  0  0
    2.5976   -1.3363    2.2811 O   0  0  0  0  0  0  0  0  0  0  0  0
    0.9210   -1.3135    0.5437 C   0  0  0  0  0  0  0  0  0  0  0  0
    0.5273    0.1706    0.7496 C   0  0  2  0  0  0  0  0  0  0  0  0
   -0.6200    0.4905   -0.0317 O   0  0  0  0  0  0  0  0  0  0  0  0
   -1.8246    0.1832    0.6629 C   0  0  1  0  0  0  0  0  0  0  0  0
   -2.3357    1.4448    1.3777 C   0  0  0  0  0  0  0  0  0  0  0  0
   -3.8494    1.3709    1.6011 C   0  0  0  0  0  0  0  0  0  0  0  0
   -4.6533    1.4253    0.2577 C   0  0  1  0  0  0  0  0  0  0  0  0
   -4.7778    2.9256   -0.1467 C   0  0  0  0  0  0  0  0  0  0  0  0
   -3.8830    0.6279   -0.8853 C   0  0  2  0  0  0  0  0  0  0  0  0
   -4.8230   -0.1391   -1.8606 C   0  0  0  0  0  0  0  0  0  0  0  0
   -6.1521    0.5662   -2.1166 C   0  0  0  0  0  0  0  0  0  0  0  0
   -6.9458    0.8624   -0.8144 C   0  0  2  0  0  0  0  0  0  0  0  0
   -6.0708    0.7721    0.4640 C   0  0  2  0  0  0  0  0  0  0  0  0
   -6.8925    1.3116    1.6505 C   0  0  0  0  0  0  0  0  0  0  0  0
   -8.1419    0.4277    1.8622 C   0  0  1  0  0  0  0  0  0  0  0  0
   -8.8523    0.8738    2.9922 O   0  0  0  0  0  0  0  0  0  0  0  0
   -9.0973    0.3755    0.6058 C   0  0  2  0  0  0  0  0  0  0  0  0
   -9.8852    1.7161    0.5071 C   0  0  0  0  0  0  0  0  0  0  0  0
  -10.0330   -0.8760    0.7725 C   0  0  2  0  0  0  0  0  0  0  0  0
   -9.3530   -2.0372    0.0142 C   0  0  0  0  0  0  0  0  0  0  0  0
   -8.1003   -1.4701   -0.6517 C   0  0  0  0  0  0  0  0  0  0  0  0
   -8.2925    0.0587   -0.7024 C   0  0  2  0  0  0  0  0  0  0  0  0
   -9.0876    0.3156   -1.8431 O   0  0  0  0  0  0  0  0  0  0  0  0
  -11.4808   -0.6879    0.3466 C   0  0  0  0  0  0  0  0  0  0  0  0
  -12.6185   -0.5611    1.3240 C   0  0  0  0  0  0  0  0  0  0  0  0
  -13.7720   -0.4736    0.4890 O   0  0  0  0  0  0  0  0  0  0  0  0
  -13.3678   -0.5096   -0.8279 C   0  0  0  0  0  0  0  0  0  0  0  0
  -14.1493   -0.4114   -1.8046 O   0  0  0  0  0  0  0  0  0  0  0  0
  -11.9354   -0.6341   -0.9070 C   0  0  0  0  0  0  0  0  0  0  0  0
   -2.8641   -0.4016   -0.3227 C   0  0  0  0  0  0  0  0  0  0  0  0
    1.5587    1.1194    0.4765 O   0  0  0  0  0  0  0  0  0  0  0  0
    2.5749    0.6812   -0.4081 C   0  0  2  0  0  0  0  0  0  0  0  0
    2.0831    0.6241   -1.8617 C   0  0  0  0  0  0  0  0  0  0  0  0
    6.1647   -1.4435   -0.1090 O   0  0  0  0  0  0  0  0  0  0  0  0
    7.4744   -1.3636   -0.6408 C   0  0  2  0  0  0  0  0  0  0  0  0
    7.8776   -2.7474   -1.1486 C   0  0  0  0  0  0  0  0  0  0  0  0
   13.2813    0.2018    2.7598 H   0  0  0  0  0  0  0  0  0  0  0  0
   14.5008   -0.9961    2.1536 H   0  0  0  0  0  0  0  0  0  0  0  0
   12.9303   -1.5721    2.8334 H   0  0  0  0  0  0  0  0  0  0  0  0
   12.9010   -1.7315    0.3954 H   0  0  0  0  0  0  0  0  0  0  0  0
   10.6298   -1.7693   -0.3857 H   0  0  0  0  0  0  0  0  0  0  0  0
   11.9942   -0.9834   -2.0177 H   0  0  0  0  0  0  0  0  0  0  0  0
   10.7737    0.3101   -2.2458 H   0  0  0  0  0  0  0  0  0  0  0  0
   11.9870    1.7822   -0.6777 H   0  0  0  0  0  0  0  0  0  0  0  0
   13.6826    2.1851   -2.0214 H   0  0  0  0  0  0  0  0  0  0  0  0
   13.8235    1.2014    0.5864 H   0  0  0  0  0  0  0  0  0  0  0  0
   14.3759   -0.9260   -1.2522 H   0  0  0  0  0  0  0  0  0  0  0  0
    8.9068   -1.6787    1.0097 H   0  0  0  0  0  0  0  0  0  0  0  0
    7.2715   -0.6354    2.2370 H   0  0  0  0  0  0  0  0  0  0  0  0
    8.1275    1.3115    2.8792 H   0  0  0  0  0  0  0  0  0  0  0  0
    7.0222    1.5334    0.0585 H   0  0  0  0  0  0  0  0  0  0  0  0
    6.0379    1.4260    1.5511 H   0  0  0  0  0  0  0  0  0  0  0  0
    5.3824    0.3016   -0.9309 H   0  0  0  0  0  0  0  0  0  0  0  0
    3.6019   -1.2112   -0.8268 H   0  0  0  0  0  0  0  0  0  0  0  0
    2.6498   -2.6017    0.6533 H   0  0  0  0  0  0  0  0  0  0  0  0
    2.1650   -2.0987    2.7474 H   0  0  0  0  0  0  0  0  0  0  0  0
    0.2815   -1.9640    1.1814 H   0  0  0  0  0  0  0  0  0  0  0  0
    0.7397   -1.6322   -0.5046 H   0  0  0  0  0  0  0  0  0  0  0  0
    0.3198    0.3041    1.8376 H   0  0  0  0  0  0  0  0  0  0  0  0
   -1.6772   -0.6115    1.4360 H   0  0  0  0  0  0  0  0  0  0  0  0
   -2.0815    2.3446    0.7820 H   0  0  0  0  0  0  0  0  0  0  0  0
   -1.8232    1.5446    2.3577 H   0  0  0  0  0  0  0  0  0  0  0  0
   -4.0654    0.4281    2.1504 H   0  0  0  0  0  0  0  0  0  0  0  0
   -4.1464    2.2050    2.2772 H   0  0  0  0  0  0  0  0  0  0  0  0
   -5.2964    3.5044    0.6385 H   0  0  0  0  0  0  0  0  0  0  0  0
   -5.3231    3.0606   -1.1011 H   0  0  0  0  0  0  0  0  0  0  0  0
   -3.7806    3.3821   -0.2952 H   0  0  0  0  0  0  0  0  0  0  0  0
   -3.2924    1.3516   -1.4940 H   0  0  0  0  0  0  0  0  0  0  0  0
   -5.0551   -1.1558   -1.4682 H   0  0  0  0  0  0  0  0  0  0  0  0
   -4.3040   -0.2823   -2.8257 H   0  0  0  0  0  0  0  0  0  0  0  0
   -6.7481   -0.0620   -2.8133 H   0  0  0  0  0  0  0  0  0  0  0  0
   -5.9550    1.5086   -2.6638 H   0  0  0  0  0  0  0  0  0  0  0  0
   -7.2590    1.9239   -0.8975 H   0  0  0  0  0  0  0  0  0  0  0  0
   -5.8622   -0.2956    0.6955 H   0  0  0  0  0  0  0  0  0  0  0  0
   -7.1861    2.3701    1.4899 H   0  0  0  0  0  0  0  0  0  0  0  0
   -6.2969    1.2707    2.5860 H   0  0  0  0  0  0  0  0  0  0  0  0
   -7.7710   -0.6075    2.0689 H   0  0  0  0  0  0  0  0  0  0  0  0
   -8.3292    0.6024    3.7957 H   0  0  0  0  0  0  0  0  0  0  0  0
  -10.4955    1.8768    1.4243 H   0  0  0  0  0  0  0  0  0  0  0  0
  -10.5825    1.7320   -0.3514 H   0  0  0  0  0  0  0  0  0  0  0  0
   -9.1966    2.5713    0.3940 H   0  0  0  0  0  0  0  0  0  0  0  0
  -10.0803   -1.1644    1.8451 H   0  0  0  0  0  0  0  0  0  0  0  0
   -9.0816   -2.8573    0.7118 H   0  0  0  0  0  0  0  0  0  0  0  0
  -10.0144   -2.4752   -0.7656 H   0  0  0  0  0  0  0  0  0  0  0  0
   -7.9703   -1.9039   -1.6702 H   0  0  0  0  0  0  0  0  0  0  0  0
   -7.2200   -1.7684   -0.0525 H   0  0  0  0  0  0  0  0  0  0  0  0
   -9.0958    1.2915   -2.0229 H   0  0  0  0  0  0  0  0  0  0  0  0
  -12.5167    0.3662    1.9300 H   0  0  0  0  0  0  0  0  0  0  0  0
  -12.6813   -1.4623    1.9751 H   0  0  0  0  0  0  0  0  0  0  0  0
  -11.3515   -0.7257   -1.8177 H   0  0  0  0  0  0  0  0  0  0  0  0
   -2.3299   -0.9008   -1.1640 H   0  0  0  0  0  0  0  0  0  0  0  0
   -3.4272   -1.2013    0.2093 H   0  0  0  0  0  0  0  0  0  0  0  0
    3.3332    1.4951   -0.4117 H   0  0  0  0  0  0  0  0  0  0  0  0
    2.9303    0.3814   -2.5374 H   0  0  0  0  0  0  0  0  0  0  0  0
    1.2881   -0.1308   -2.0177 H   0  0  0  0  0  0  0  0  0  0  0  0
    1.6813    1.6168   -2.1580 H   0  0  0  0  0  0  0  0  0  0  0  0
    7.4840   -0.6906   -1.5303 H   0  0  0  0  0  0  0  0  0  0  0  0
    7.2031   -3.0603   -1.9818 H   0  0  0  0  0  0  0  0  0  0  0  0
    7.8095   -3.5024   -0.3377 H   0  0  0  0  0  0  0  0  0  0  0  0
    8.9143   -2.7375   -1.5493 H   0  0  0  0  0  0  0  0  0  0  0  0
  2  1  1  0
  2  3  1  0
  3  4  1  0
  4  5  1  0
  5  6  1  0
  6  7  1  0
  6  8  1  0
  8  2  1  0
  8  9  1  0
  4 10  1  0
 11 10  1  0
 11 12  1  0
 12 13  1  0
 12 14  1  0
 14 15  1  0
 15 16  1  0
 17 16  1  0
 17 18  1  0
 18 19  1  0
 18 20  1  0
 20 21  1  0
 21 22  1  0
 23 22  1  0
 23 24  1  0
 24 25  1  0
 25 26  1  0
 26 27  1  6
 26 28  1  0
 28 29  1  0
 29 30  1  0
 31 30  1  0
 31 32  1  0
 32 26  1  0
 32 33  1  0
 33 34  1  0
 34 35  1  0
 34 36  1  0
 36 37  1  6
 36 38  1  0
 38 39  1  0
 39 40  1  0
 40 41  1  0
 41 31  1  0
 41 36  1  0
 41 42  1  6
 38 43  1  0
 43 44  1  0
 44 45  1  0
 45 46  1  0
 46 47  2  0
 46 48  1  0
 48 43  2  0
 28 49  1  0
 49 23  1  0
 21 50  1  0
 50 51  1  0
 51 17  1  0
 51 52  1  0
 15 53  1  0
 53 54  1  0
 54 11  1  0
 54 55  1  0
  1 56  1  0
  1 57  1  0
  1 58  1  0
  2 59  1  6
  4 60  1  6
  5 61  1  0
  5 62  1  0
  6 63  1  1
  7 64  1  0
  8 65  1  1
  9 66  1  0
 11 67  1  1
 12 68  1  1
 13 69  1  0
 14 70  1  0
 14 71  1  0
 15 72  1  6
 17 73  1  6
 18 74  1  6
 19 75  1  0
 20 76  1  0
 20 77  1  0
 21 78  1  1
 23 79  1  1
 24 80  1  0
 24 81  1  0
 25 82  1  0
 25 83  1  0
 27 84  1  0
 27 85  1  0
 27 86  1  0
 28 87  1  6
 29 88  1  0
 29 89  1  0
 30 90  1  0
 30 91  1  0
 31 92  1  6
 32 93  1  1
 33 94  1  0
 33 95  1  0
 34 96  1  1
 35 97  1  0
 37 98  1  0
 37 99  1  0
 37100  1  0
 38101  1  1
 39102  1  0
 39103  1  0
 40104  1  0
 40105  1  0
 42106  1  0
 44107  1  0
 44108  1  0
 48109  1  0
 49110  1  0
 49111  1  0
 51112  1  6
 52113  1  0
 52114  1  0
 52115  1  0
 54116  1  6
 55117  1  0
 55118  1  0
 55119  1  0
M  END
> <ID>
HT0666

> <Class>
1.0

> <Clusters>
78

> <Fold>
5

$$$$