
     RDKit          3D

 42 43  0  0  0  0  0  0  0  0999 V2000
    4.2069    0.6333    0.9831 C   0  0  0  0  0  0  0  0  0  0  0  0
    3.3233    0.5425   -0.1927 N   0  0  0  0  0  0  0  0  0  0  0  0
    4.0938    0.8522   -1.4078 C   0  0  0  0  0  0  0  0  0  0  0  0
    2.7189   -0.8039   -0.3031 C   0  0  0  0  0  0  0  0  0  0  0  0
    1.5079   -0.9451    0.6205 C   0  0  0  0  0  0  0  0  0  0  0  0
    0.6132    0.1312    0.3858 O   0  0  0  0  0  0  0  0  0  0  0  0
   -0.7438   -0.1523    0.7301 C   0  0  0  0  0  0  0  0  0  0  0  0
   -0.8526   -0.5525    2.2282 C   0  0  0  0  0  0  0  0  0  0  0  0
   -1.5679    1.1278    0.5495 C   0  0  0  0  0  0  0  0  0  0  0  0
   -2.9765    1.0865    0.6522 C   0  0  0  0  0  0  0  0  0  0  0  0
   -3.7399    2.2465    0.4971 C   0  0  0  0  0  0  0  0  0  0  0  0
   -3.1150    3.4676    0.2434 C   0  0  0  0  0  0  0  0  0  0  0  0
   -1.7246    3.5321    0.1467 C   0  0  0  0  0  0  0  0  0  0  0  0
   -0.9535    2.3759    0.3002 C   0  0  0  0  0  0  0  0  0  0  0  0
   -1.2997   -1.1949   -0.2445 C   0  0  0  0  0  0  0  0  0  0  0  0
   -1.9835   -2.3571    0.1697 C   0  0  0  0  0  0  0  0  0  0  0  0
   -2.4601   -3.2539   -0.7885 C   0  0  0  0  0  0  0  0  0  0  0  0
   -2.2608   -2.9972   -2.1443 C   0  0  0  0  0  0  0  0  0  0  0  0
   -1.5850   -1.8387   -2.5254 C   0  0  0  0  0  0  0  0  0  0  0  0
   -1.1275   -0.9760   -1.5802 N   0  0  0  0  0  0  0  0  0  0  0  0
    4.6476    1.6512    1.0534 H   0  0  0  0  0  0  0  0  0  0  0  0
    5.0319   -0.1118    0.9298 H   0  0  0  0  0  0  0  0  0  0  0  0
    3.6311    0.4731    1.9173 H   0  0  0  0  0  0  0  0  0  0  0  0
    4.5533    1.8613   -1.3279 H   0  0  0  0  0  0  0  0  0  0  0  0
    3.4205    0.8741   -2.2917 H   0  0  0  0  0  0  0  0  0  0  0  0
    4.8957    0.0992   -1.5789 H   0  0  0  0  0  0  0  0  0  0  0  0
    2.3519   -0.9824   -1.3398 H   0  0  0  0  0  0  0  0  0  0  0  0
    3.4615   -1.6029   -0.0777 H   0  0  0  0  0  0  0  0  0  0  0  0
    1.0517   -1.9410    0.4247 H   0  0  0  0  0  0  0  0  0  0  0  0
    1.8447   -0.9276    1.6779 H   0  0  0  0  0  0  0  0  0  0  0  0
   -0.3739   -1.5344    2.4259 H   0  0  0  0  0  0  0  0  0  0  0  0
   -0.3484    0.2110    2.8589 H   0  0  0  0  0  0  0  0  0  0  0  0
   -1.9109   -0.6229    2.5578 H   0  0  0  0  0  0  0  0  0  0  0  0
   -3.4868    0.1522    0.8491 H   0  0  0  0  0  0  0  0  0  0  0  0
   -4.8184    2.1980    0.5749 H   0  0  0  0  0  0  0  0  0  0  0  0
   -3.7082    4.3650    0.1243 H   0  0  0  0  0  0  0  0  0  0  0  0
   -1.2414    4.4815   -0.0453 H   0  0  0  0  0  0  0  0  0  0  0  0
    0.1217    2.4702    0.2277 H   0  0  0  0  0  0  0  0  0  0  0  0
   -2.1593   -2.5780    1.2124 H   0  0  0  0  0  0  0  0  0  0  0  0
   -2.9861   -4.1479   -0.4793 H   0  0  0  0  0  0  0  0  0  0  0  0
   -2.6279   -3.6880   -2.8922 H   0  0  0  0  0  0  0  0  0  0  0  0
   -1.4237   -1.6237   -3.5732 H   0  0  0  0  0  0  0  0  0  0  0  0
  1  2  1  0
  2  3  1  0
  2  4  1  0
  4  5  1  0
  5  6  1  0
  6  7  1  0
  7  8  1  0
  7  9  1  0
  9 10  2  0
 10 11  1  0
 11 12  2  0
 12 13  1  0
 13 14  2  0
 14  9  1  0
  7 15  1  0
 15 16  2  0
 16 17  1  0
 17 18  2  0
 18 19  1  0
 19 20  2  0
 20 15  1  0
  1 21  1  0
  1 22  1  0
  1 23  1  0
  3 24  1  0
  3 25  1  0
  3 26  1  0
  4 27  1  0
  4 28  1  0
  5 29  1  0
  5 30  1  0
  8 31  1  0
  8 32  1  0
  8 33  1  0
 10 34  1  0
 11 35  1  0
 12 36  1  0
 13 37  1  0
 14 38  1  0
 16 39  1  0
 17 40  1  0
 18 41  1  0
 19 42  1  0
M  END
> <ID>
HT0721

> <Class>
1.0

> <Clusters>
0

> <Fold>
5

$$$$