
     RDKit          3D

 42 44  0  0  0  0  0  0  0  0999 V2000
    4.5828   -0.5475   -0.2418 C   0  0  0  0  0  0  0  0  0  0  0  0
    4.1980    0.8331   -0.5460 N   0  0  0  0  0  0  0  0  0  0  0  0
    3.1270    0.9181   -1.5534 C   0  0  0  0  0  0  0  0  0  0  0  0
    1.7980    0.2629   -1.1247 C   0  0  0  0  0  0  0  0  0  0  0  0
    1.1763    0.9154    0.1190 C   0  0  0  0  0  0  0  0  0  0  0  0
   -0.1685    0.3733    0.3773 N   0  0  0  0  0  0  0  0  0  0  0  0
   -1.2625    1.2886    0.5211 C   0  0  0  0  0  0  0  0  0  0  0  0
   -1.2582    2.2456    1.5471 C   0  0  0  0  0  0  0  0  0  0  0  0
   -2.3305    3.1316    1.6839 C   0  0  0  0  0  0  0  0  0  0  0  0
   -3.4084    3.0669    0.7968 C   0  0  0  0  0  0  0  0  0  0  0  0
   -3.4124    2.1207   -0.2325 C   0  0  0  0  0  0  0  0  0  0  0  0
   -2.3314    1.2362   -0.3791 C   0  0  0  0  0  0  0  0  0  0  0  0
   -2.3046    0.2129   -1.4725 C   0  0  0  0  0  0  0  0  0  0  0  0
   -2.5428   -1.1862   -0.9066 C   0  0  0  0  0  0  0  0  0  0  0  0
   -1.4889   -1.7549    0.0368 C   0  0  0  0  0  0  0  0  0  0  0  0
   -1.6472   -3.1172    0.3582 C   0  0  0  0  0  0  0  0  0  0  0  0
   -0.7443   -3.7746    1.1905 C   0  0  0  0  0  0  0  0  0  0  0  0
    0.3334   -3.0839    1.7307 C   0  0  0  0  0  0  0  0  0  0  0  0
    0.5096   -1.7318    1.4459 C   0  0  0  0  0  0  0  0  0  0  0  0
   -0.3847   -1.0399    0.6026 C   0  0  0  0  0  0  0  0  0  0  0  0
    3.8192   -1.0395    0.3983 H   0  0  0  0  0  0  0  0  0  0  0  0
    5.5427   -0.5404    0.3152 H   0  0  0  0  0  0  0  0  0  0  0  0
    4.7321   -1.1335   -1.1743 H   0  0  0  0  0  0  0  0  0  0  0  0
    3.9099    1.3162    0.3351 H   0  0  0  0  0  0  0  0  0  0  0  0
    2.9419    1.9895   -1.7845 H   0  0  0  0  0  0  0  0  0  0  0  0
    3.4722    0.4480   -2.5001 H   0  0  0  0  0  0  0  0  0  0  0  0
    1.0848    0.3670   -1.9699 H   0  0  0  0  0  0  0  0  0  0  0  0
    1.9423   -0.8248   -0.9592 H   0  0  0  0  0  0  0  0  0  0  0  0
    1.1208    2.0144   -0.0483 H   0  0  0  0  0  0  0  0  0  0  0  0
    1.8179    0.7564    1.0078 H   0  0  0  0  0  0  0  0  0  0  0  0
   -0.4298    2.2953    2.2425 H   0  0  0  0  0  0  0  0  0  0  0  0
   -2.3277    3.8656    2.4793 H   0  0  0  0  0  0  0  0  0  0  0  0
   -4.2403    3.7506    0.9062 H   0  0  0  0  0  0  0  0  0  0  0  0
   -4.2531    2.0808   -0.9138 H   0  0  0  0  0  0  0  0  0  0  0  0
   -3.0938    0.4339   -2.2243 H   0  0  0  0  0  0  0  0  0  0  0  0
   -1.3342    0.2458   -2.0115 H   0  0  0  0  0  0  0  0  0  0  0  0
   -2.6267   -1.8709   -1.7794 H   0  0  0  0  0  0  0  0  0  0  0  0
   -3.5275   -1.2027   -0.3893 H   0  0  0  0  0  0  0  0  0  0  0  0
   -2.4785   -3.6812   -0.0486 H   0  0  0  0  0  0  0  0  0  0  0  0
   -0.8833   -4.8236    1.4188 H   0  0  0  0  0  0  0  0  0  0  0  0
    1.0301   -3.5947    2.3830 H   0  0  0  0  0  0  0  0  0  0  0  0
    1.3403   -1.2217    1.9119 H   0  0  0  0  0  0  0  0  0  0  0  0
  1  2  1  0
  2  3  1  0
  3  4  1  0
  4  5  1  0
  5  6  1  0
  6  7  1  0
  7  8  2  0
  8  9  1  0
  9 10  2  0
 10 11  1  0
 11 12  2  0
 12  7  1  0
 12 13  1  0
 13 14  1  0
 14 15  1  0
 15 16  2  0
 16 17  1  0
 17 18  2  0
 18 19  1  0
 19 20  2  0
 20  6  1  0
 20 15  1  0
  1 21  1  0
  1 22  1  0
  1 23  1  0
  2 24  1  0
  3 25  1  0
  3 26  1  0
  4 27  1  0
  4 28  1  0
  5 29  1  0
  5 30  1  0
  8 31  1  0
  9 32  1  0
 10 33  1  0
 11 34  1  0
 13 35  1  0
 13 36  1  0
 14 37  1  0
 14 38  1  0
 16 39  1  0
 17 40  1  0
 18 41  1  0
 19 42  1  0
M  END
> <ID>
HT0611

> <Class>
1.0

> <Clusters>
131

> <Fold>
5

$$$$