
     RDKit          3D

 46 48  0  0  0  0  0  0  0  0999 V2000
   -1.9713   -1.4062   -2.1792 C   0  0  0  0  0  0  0  0  0  0  0  0
   -1.1096   -1.2323   -0.9208 C   0  0  0  0  0  0  0  0  0  0  0  0
   -0.3918    0.1044   -0.9715 C   0  0  0  0  0  0  0  0  0  0  0  0
    0.9152    0.2992   -1.2268 C   0  0  0  0  0  0  0  0  0  0  0  0
    1.9336   -0.7725   -1.5206 C   0  0  0  0  0  0  0  0  0  0  0  0
    2.4757   -1.4279   -0.2397 C   0  0  0  0  0  0  0  0  0  0  0  0
    3.0145   -0.4268    0.7092 N   0  0  0  0  0  0  0  0  0  0  0  0
    3.1158   -1.0139    2.0554 C   0  0  0  0  0  0  0  0  0  0  0  0
    4.3447    0.0473    0.2864 C   0  0  0  0  0  0  0  0  0  0  0  0
    1.2668    1.7646   -1.2599 C   0  0  0  0  0  0  0  0  0  0  0  0
   -0.0533    2.3842   -0.9766 C   0  0  0  0  0  0  0  0  0  0  0  0
   -0.3622    3.7414   -0.8786 C   0  0  0  0  0  0  0  0  0  0  0  0
   -1.6902    4.1078   -0.6085 C   0  0  0  0  0  0  0  0  0  0  0  0
   -2.6793    3.1193   -0.4449 C   0  0  0  0  0  0  0  0  0  0  0  0
   -2.3463    1.7591   -0.5490 C   0  0  0  0  0  0  0  0  0  0  0  0
   -1.0161    1.4166   -0.8150 C   0  0  0  0  0  0  0  0  0  0  0  0
   -1.9027   -1.3751    0.3629 C   0  0  0  0  0  0  0  0  0  0  0  0
   -1.2567   -1.2715    1.6057 C   0  0  0  0  0  0  0  0  0  0  0  0
   -1.9967   -1.4089    2.7811 C   0  0  0  0  0  0  0  0  0  0  0  0
   -3.3683   -1.6547    2.7137 C   0  0  0  0  0  0  0  0  0  0  0  0
   -3.9813   -1.7614    1.4644 C   0  0  0  0  0  0  0  0  0  0  0  0
   -3.2442   -1.6232    0.3304 N   0  0  0  0  0  0  0  0  0  0  0  0
   -2.4455   -2.4109   -2.1824 H   0  0  0  0  0  0  0  0  0  0  0  0
   -1.3362   -1.3240   -3.0874 H   0  0  0  0  0  0  0  0  0  0  0  0
   -2.7665   -0.6331   -2.2320 H   0  0  0  0  0  0  0  0  0  0  0  0
   -0.3746   -2.0619   -0.9297 H   0  0  0  0  0  0  0  0  0  0  0  0
    1.4913   -1.5467   -2.1828 H   0  0  0  0  0  0  0  0  0  0  0  0
    2.7730   -0.3317   -2.0968 H   0  0  0  0  0  0  0  0  0  0  0  0
    3.2525   -2.1780   -0.5118 H   0  0  0  0  0  0  0  0  0  0  0  0
    1.6418   -1.9938    0.2294 H   0  0  0  0  0  0  0  0  0  0  0  0
    3.7829   -1.9051    2.0570 H   0  0  0  0  0  0  0  0  0  0  0  0
    2.1115   -1.3138    2.4219 H   0  0  0  0  0  0  0  0  0  0  0  0
    3.5089   -0.2638    2.7753 H   0  0  0  0  0  0  0  0  0  0  0  0
    4.2784    0.5869   -0.6798 H   0  0  0  0  0  0  0  0  0  0  0  0
    5.0647   -0.7955    0.1876 H   0  0  0  0  0  0  0  0  0  0  0  0
    4.7456    0.7758    1.0240 H   0  0  0  0  0  0  0  0  0  0  0  0
    1.9999    2.0177   -0.4654 H   0  0  0  0  0  0  0  0  0  0  0  0
    1.6345    2.0630   -2.2645 H   0  0  0  0  0  0  0  0  0  0  0  0
    0.4037    4.4950   -1.0084 H   0  0  0  0  0  0  0  0  0  0  0  0
   -1.9547    5.1540   -0.5275 H   0  0  0  0  0  0  0  0  0  0  0  0
   -3.7015    3.4090   -0.2388 H   0  0  0  0  0  0  0  0  0  0  0  0
   -3.1106    1.0060   -0.4258 H   0  0  0  0  0  0  0  0  0  0  0  0
   -0.1947   -1.0760    1.6619 H   0  0  0  0  0  0  0  0  0  0  0  0
   -1.5074   -1.3247    3.7428 H   0  0  0  0  0  0  0  0  0  0  0  0
   -3.9502   -1.7630    3.6199 H   0  0  0  0  0  0  0  0  0  0  0  0
   -5.0434   -1.9546    1.3953 H   0  0  0  0  0  0  0  0  0  0  0  0
  1  2  1  0
  2  3  1  0
  3  4  2  0
  4  5  1  0
  5  6  1  0
  6  7  1  0
  7  8  1  0
  7  9  1  0
  4 10  1  0
 10 11  1  0
 11 12  2  0
 12 13  1  0
 13 14  2  0
 14 15  1  0
 15 16  2  0
 16  3  1  0
 16 11  1  0
  2 17  1  0
 17 18  2  0
 18 19  1  0
 19 20  2  0
 20 21  1  0
 21 22  2  0
 22 17  1  0
  1 23  1  0
  1 24  1  0
  1 25  1  0
  2 26  1  0
  5 27  1  0
  5 28  1  0
  6 29  1  0
  6 30  1  0
  8 31  1  0
  8 32  1  0
  8 33  1  0
  9 34  1  0
  9 35  1  0
  9 36  1  0
 10 37  1  0
 10 38  1  0
 12 39  1  0
 13 40  1  0
 14 41  1  0
 15 42  1  0
 18 43  1  0
 19 44  1  0
 20 45  1  0
 21 46  1  0
M  END
> <ID>
HT0680

> <Class>
1.0

> <Clusters>
0

> <Fold>
5

$$$$