
     RDKit          3D

 48 49  0  0  0  0  0  0  0  0999 V2000
   -0.7648    1.9466   -1.3512 C   0  0  0  0  0  0  0  0  0  0  0  0
   -0.9372    0.5626   -0.7003 C   0  0  2  0  0  0  0  0  0  0  0  0
   -2.3151    0.4380   -0.0145 C   0  0  0  0  0  0  0  0  0  0  0  0
   -3.4797    0.3642   -1.0156 C   0  0  0  0  0  0  0  0  0  0  0  0
   -4.7787    0.0730   -0.3085 C   0  0  0  0  0  0  0  0  0  0  0  0
   -5.4172   -1.1688   -0.4701 C   0  0  0  0  0  0  0  0  0  0  0  0
   -6.6234   -1.4317    0.1869 C   0  0  0  0  0  0  0  0  0  0  0  0
   -7.2023   -0.4585    1.0058 C   0  0  0  0  0  0  0  0  0  0  0  0
   -6.5765    0.7803    1.1685 C   0  0  0  0  0  0  0  0  0  0  0  0
   -5.3702    1.0476    0.5139 C   0  0  0  0  0  0  0  0  0  0  0  0
    0.1186    0.3348    0.3104 N   0  0  0  0  0  0  0  0  0  0  0  0
    0.5760   -1.0664    0.3625 C   0  0  0  0  0  0  0  0  0  0  0  0
    1.6078   -1.4066   -0.7409 C   0  0  2  0  0  0  0  0  0  0  0  0
    1.9205   -2.7747   -0.6912 O   0  0  0  0  0  0  0  0  0  0  0  0
    2.8841   -0.6092   -0.5791 C   0  0  0  0  0  0  0  0  0  0  0  0
    3.2514    0.3404   -1.5442 C   0  0  0  0  0  0  0  0  0  0  0  0
    4.4173    1.0909   -1.3880 C   0  0  0  0  0  0  0  0  0  0  0  0
    5.2396    0.9072   -0.2718 C   0  0  0  0  0  0  0  0  0  0  0  0
    6.3507    1.7410   -0.1302 O   0  0  0  0  0  0  0  0  0  0  0  0
    4.9079   -0.0789    0.6865 C   0  0  0  0  0  0  0  0  0  0  0  0
    3.7197   -0.8132    0.5323 C   0  0  0  0  0  0  0  0  0  0  0  0
    5.7802   -0.3790    1.8406 C   0  0  0  0  0  0  0  0  0  0  0  0
    5.2736   -0.5157    2.9864 O   0  0  0  0  0  0  0  0  0  0  0  0
    7.1837   -0.5799    1.6662 N   0  0  0  0  0  0  0  0  0  0  0  0
   -0.8744    2.7516   -0.5935 H   0  0  0  0  0  0  0  0  0  0  0  0
    0.2430    2.0247   -1.8123 H   0  0  0  0  0  0  0  0  0  0  0  0
   -1.5083    2.1010   -2.1594 H   0  0  0  0  0  0  0  0  0  0  0  0
   -0.8751   -0.1918   -1.5161 H   0  0  0  0  0  0  0  0  0  0  0  0
   -2.3271   -0.4906    0.5976 H   0  0  0  0  0  0  0  0  0  0  0  0
   -2.4646    1.2936    0.6803 H   0  0  0  0  0  0  0  0  0  0  0  0
   -3.2661   -0.4284   -1.7662 H   0  0  0  0  0  0  0  0  0  0  0  0
   -3.5844    1.3243   -1.5629 H   0  0  0  0  0  0  0  0  0  0  0  0
   -4.9808   -1.9347   -1.0991 H   0  0  0  0  0  0  0  0  0  0  0  0
   -7.1095   -2.3906    0.0611 H   0  0  0  0  0  0  0  0  0  0  0  0
   -8.1360   -0.6639    1.5132 H   0  0  0  0  0  0  0  0  0  0  0  0
   -7.0269    1.5343    1.8011 H   0  0  0  0  0  0  0  0  0  0  0  0
   -4.8987    2.0137    0.6446 H   0  0  0  0  0  0  0  0  0  0  0  0
    0.9378    0.9722    0.1790 H   0  0  0  0  0  0  0  0  0  0  0  0
    1.0250   -1.2522    1.3613 H   0  0  0  0  0  0  0  0  0  0  0  0
   -0.2922   -1.7576    0.2833 H   0  0  0  0  0  0  0  0  0  0  0  0
    1.1592   -1.1815   -1.7353 H   0  0  0  0  0  0  0  0  0  0  0  0
    1.1417   -3.2637   -1.0663 H   0  0  0  0  0  0  0  0  0  0  0  0
    2.6262    0.5153   -2.4110 H   0  0  0  0  0  0  0  0  0  0  0  0
    4.6726    1.8383   -2.1287 H   0  0  0  0  0  0  0  0  0  0  0  0
    6.9141    1.7719    0.7092 H   0  0  0  0  0  0  0  0  0  0  0  0
    3.4565   -1.5660    1.2663 H   0  0  0  0  0  0  0  0  0  0  0  0
    7.7932   -0.7756    2.4910 H   0  0  0  0  0  0  0  0  0  0  0  0
    7.6093   -0.5882    0.7127 H   0  0  0  0  0  0  0  0  0  0  0  0
  2  1  1  0
  2  3  1  0
  3  4  1  0
  4  5  1  0
  5  6  2  0
  6  7  1  0
  7  8  2  0
  8  9  1  0
  9 10  2  0
 10  5  1  0
  2 11  1  0
 11 12  1  0
 12 13  1  0
 13 14  1  0
 13 15  1  0
 15 16  2  0
 16 17  1  0
 17 18  2  0
 18 19  1  0
 18 20  1  0
 20 21  2  0
 21 15  1  0
 20 22  1  0
 22 23  2  0
 22 24  1  0
  1 25  1  0
  1 26  1  0
  1 27  1  0
  2 28  1  6
  3 29  1  0
  3 30  1  0
  4 31  1  0
  4 32  1  0
  6 33  1  0
  7 34  1  0
  8 35  1  0
  9 36  1  0
 10 37  1  0
 11 38  1  0
 12 39  1  0
 12 40  1  0
 13 41  1  6
 14 42  1  0
 16 43  1  0
 17 44  1  0
 19 45  1  0
 21 46  1  0
 24 47  1  0
 24 48  1  0
M  END
> <ID>
HT0672

> <Class>
1.0

> <Clusters>
265

> <Fold>
5

$$$$