
     RDKit          3D

 51 53  0  0  0  0  0  0  0  0999 V2000
   -6.4746    1.5878    0.8870 C   0  0  0  0  0  0  0  0  0  0  0  0
   -5.0983    1.1973    1.4408 C   0  0  0  0  0  0  0  0  0  0  0  0
   -5.2257    0.2689    2.4933 O   0  0  0  0  0  0  0  0  0  0  0  0
   -4.1567    0.6928    0.3180 C   0  0  0  0  0  0  0  0  0  0  0  0
   -2.8487    0.2507    0.7817 C   0  0  0  0  0  0  0  0  0  0  0  0
   -1.5122    0.6532    0.0728 C   0  0  0  0  0  0  0  0  0  0  0  0
   -1.6271    1.7801   -0.9601 C   0  0  0  0  0  0  0  0  0  0  0  0
   -1.0403   -0.6451   -0.5787 C   0  0  0  0  0  0  0  0  0  0  0  0
   -1.9494   -1.6104   -0.4395 C   0  0  0  0  0  0  0  0  0  0  0  0
   -3.0316   -1.0781    0.2771 N   0  0  0  0  0  0  0  0  0  0  0  0
   -4.4142   -0.7210   -0.1137 C   0  0  0  0  0  0  0  0  0  0  0  0
   -5.3709   -1.3301   -0.6604 O   0  0  0  0  0  0  0  0  0  0  0  0
   -1.9234   -2.9814   -0.9782 C   0  0  0  0  0  0  0  0  0  0  0  0
   -2.8992   -3.7493   -0.7643 O   0  0  0  0  0  0  0  0  0  0  0  0
   -0.8371   -3.4435   -1.7143 O   0  0  0  0  0  0  0  0  0  0  0  0
    0.5237   -0.7965   -1.4570 S   0  0  0  0  0  0  0  0  0  0  0  0
    1.4385   -1.5005   -0.0324 C   0  0  0  0  0  0  0  0  0  0  0  0
    1.7673   -0.4479    1.0163 C   0  0  0  0  0  0  0  0  0  0  0  0
    3.0614   -0.8007    1.5890 N   0  0  0  0  0  0  0  0  0  0  0  0
    3.8055   -1.5106    0.5409 C   0  0  0  0  0  0  0  0  0  0  0  0
    4.8838   -0.6196   -0.1239 C   0  0  0  0  0  0  0  0  0  0  0  0
    4.3164    0.6390   -0.6229 N   0  0  0  0  0  0  0  0  0  0  0  0
    5.5856    1.6611   -1.2277 S   0  0  0  0  0  0  0  0  0  0  0  0
    4.9716    2.8803   -1.8583 O   0  0  0  0  0  0  0  0  0  0  0  0
    6.3918    0.9264   -2.2635 O   0  0  0  0  0  0  0  0  0  0  0  0
    6.6184    2.1570    0.0693 N   0  0  0  0  0  0  0  0  0  0  0  0
    2.7852   -2.0640   -0.4627 C   0  0  0  0  0  0  0  0  0  0  0  0
   -6.9746    0.7128    0.4203 H   0  0  0  0  0  0  0  0  0  0  0  0
   -7.1159    1.9669    1.7102 H   0  0  0  0  0  0  0  0  0  0  0  0
   -6.3681    2.3896    0.1248 H   0  0  0  0  0  0  0  0  0  0  0  0
   -4.6434    2.1202    1.8620 H   0  0  0  0  0  0  0  0  0  0  0  0
   -5.7696   -0.4946    2.1659 H   0  0  0  0  0  0  0  0  0  0  0  0
   -4.1515    1.3731   -0.5576 H   0  0  0  0  0  0  0  0  0  0  0  0
   -2.7309    0.2238    1.8896 H   0  0  0  0  0  0  0  0  0  0  0  0
   -0.7774    0.9608    0.8467 H   0  0  0  0  0  0  0  0  0  0  0  0
   -0.6154    2.0605   -1.3234 H   0  0  0  0  0  0  0  0  0  0  0  0
   -2.2332    1.4573   -1.8346 H   0  0  0  0  0  0  0  0  0  0  0  0
   -2.0868    2.6784   -0.4959 H   0  0  0  0  0  0  0  0  0  0  0  0
   -0.8213   -4.3862   -2.0836 H   0  0  0  0  0  0  0  0  0  0  0  0
    0.8416   -2.3156    0.4362 H   0  0  0  0  0  0  0  0  0  0  0  0
    0.9965   -0.4421    1.8165 H   0  0  0  0  0  0  0  0  0  0  0  0
    1.8176    0.5663    0.5587 H   0  0  0  0  0  0  0  0  0  0  0  0
    3.5574    0.0663    1.9040 H   0  0  0  0  0  0  0  0  0  0  0  0
    4.3311   -2.3686    1.0156 H   0  0  0  0  0  0  0  0  0  0  0  0
    5.6596   -0.4027    0.6418 H   0  0  0  0  0  0  0  0  0  0  0  0
    5.3697   -1.1833   -0.9517 H   0  0  0  0  0  0  0  0  0  0  0  0
    3.6966    0.4285   -1.4375 H   0  0  0  0  0  0  0  0  0  0  0  0
    7.2520    1.3549    0.2875 H   0  0  0  0  0  0  0  0  0  0  0  0
    7.2279    2.9204   -0.3021 H   0  0  0  0  0  0  0  0  0  0  0  0
    3.0378   -1.7903   -1.5101 H   0  0  0  0  0  0  0  0  0  0  0  0
    2.7603   -3.1756   -0.4119 H   0  0  0  0  0  0  0  0  0  0  0  0
  1  2  1  0
  2  3  1  0
  2  4  1  0
  4  5  1  0
  5  6  1  0
  6  7  1  0
  6  8  1  0
  8  9  2  0
  9 10  1  0
 10  5  1  0
 10 11  1  0
 11  4  1  0
 11 12  2  0
  9 13  1  0
 13 14  2  0
 13 15  1  0
  8 16  1  0
 16 17  1  0
 17 18  1  0
 18 19  1  0
 19 20  1  0
 20 21  1  0
 21 22  1  0
 22 23  1  0
 23 24  2  0
 23 25  2  0
 23 26  1  0
 20 27  1  0
 27 17  1  0
  1 28  1  0
  1 29  1  0
  1 30  1  0
  2 31  1  0
  3 32  1  0
  4 33  1  0
  5 34  1  0
  6 35  1  0
  7 36  1  0
  7 37  1  0
  7 38  1  0
 15 39  1  0
 17 40  1  0
 18 41  1  0
 18 42  1  0
 19 43  1  0
 20 44  1  0
 21 45  1  0
 21 46  1  0
 22 47  1  0
 26 48  1  0
 26 49  1  0
 27 50  1  0
 27 51  1  0
M  END
> <ID>
HT0710

> <Class>
1.0

> <Clusters>
158

> <Fold>
5

$$$$