
     RDKit          3D

 48 50  0  0  0  0  0  0  0  0999 V2000
    4.7793    0.1591    2.4047 C   0  0  0  0  0  0  0  0  0  0  0  0
    3.9558    0.2225    1.1866 N   0  0  0  0  0  0  0  0  0  0  0  0
    4.7401    0.8314    0.0972 C   0  0  0  0  0  0  0  0  0  0  0  0
    3.4830   -1.1295    0.8117 C   0  0  0  0  0  0  0  0  0  0  0  0
    2.1699   -1.0574    0.0193 C   0  0  0  0  0  0  0  0  0  0  0  0
    1.0308   -0.4416    0.8538 C   0  0  0  0  0  0  0  0  0  0  0  0
   -0.1951   -0.2838    0.0415 N   0  0  0  0  0  0  0  0  0  0  0  0
   -0.4514    0.9741   -0.6326 C   0  0  0  0  0  0  0  0  0  0  0  0
    0.6050    1.8806   -0.8982 C   0  0  0  0  0  0  0  0  0  0  0  0
    0.3643    3.1188   -1.4864 C   0  0  0  0  0  0  0  0  0  0  0  0
   -0.9305    3.4890   -1.8177 C   0  0  0  0  0  0  0  0  0  0  0  0
   -1.9850    2.6118   -1.5850 C   0  0  0  0  0  0  0  0  0  0  0  0
   -1.7675    1.3305   -1.0195 C   0  0  0  0  0  0  0  0  0  0  0  0
   -2.9595    0.3839   -0.8263 C   0  0  0  0  0  0  0  0  0  0  0  0
   -3.6483    0.1838   -2.2039 C   0  0  0  0  0  0  0  0  0  0  0  0
   -3.9471    1.0339    0.1710 C   0  0  0  0  0  0  0  0  0  0  0  0
   -2.5589   -0.9952   -0.2856 C   0  0  0  0  0  0  0  0  0  0  0  0
   -3.5523   -1.9938   -0.1320 C   0  0  0  0  0  0  0  0  0  0  0  0
   -3.2309   -3.2730    0.3100 C   0  0  0  0  0  0  0  0  0  0  0  0
   -1.9160   -3.5896    0.6146 C   0  0  0  0  0  0  0  0  0  0  0  0
   -0.9226   -2.6208    0.5037 C   0  0  0  0  0  0  0  0  0  0  0  0
   -1.2247   -1.3034    0.0801 C   0  0  0  0  0  0  0  0  0  0  0  0
    5.1282    1.1756    2.6879 H   0  0  0  0  0  0  0  0  0  0  0  0
    5.6620   -0.5039    2.2592 H   0  0  0  0  0  0  0  0  0  0  0  0
    4.1761   -0.2241    3.2556 H   0  0  0  0  0  0  0  0  0  0  0  0
    5.0352    1.8666    0.3739 H   0  0  0  0  0  0  0  0  0  0  0  0
    4.1335    0.9079   -0.8288 H   0  0  0  0  0  0  0  0  0  0  0  0
    5.6578    0.2417   -0.1207 H   0  0  0  0  0  0  0  0  0  0  0  0
    4.2489   -1.6727    0.2121 H   0  0  0  0  0  0  0  0  0  0  0  0
    3.2899   -1.7514    1.7161 H   0  0  0  0  0  0  0  0  0  0  0  0
    1.8937   -2.0863   -0.2896 H   0  0  0  0  0  0  0  0  0  0  0  0
    2.3210   -0.4876   -0.9187 H   0  0  0  0  0  0  0  0  0  0  0  0
    1.3379    0.5380    1.2783 H   0  0  0  0  0  0  0  0  0  0  0  0
    0.8335   -1.0657    1.7515 H   0  0  0  0  0  0  0  0  0  0  0  0
    1.6291    1.6518   -0.6508 H   0  0  0  0  0  0  0  0  0  0  0  0
    1.1856    3.7984   -1.6745 H   0  0  0  0  0  0  0  0  0  0  0  0
   -1.1197    4.4589   -2.2596 H   0  0  0  0  0  0  0  0  0  0  0  0
   -2.9776    2.9465   -1.8520 H   0  0  0  0  0  0  0  0  0  0  0  0
   -2.9409   -0.2890   -2.9195 H   0  0  0  0  0  0  0  0  0  0  0  0
   -4.5498   -0.4571   -2.1330 H   0  0  0  0  0  0  0  0  0  0  0  0
   -3.9979    1.1395   -2.6422 H   0  0  0  0  0  0  0  0  0  0  0  0
   -4.2964    2.0251   -0.1856 H   0  0  0  0  0  0  0  0  0  0  0  0
   -4.8527    0.4094    0.3155 H   0  0  0  0  0  0  0  0  0  0  0  0
   -3.4573    1.1718    1.1593 H   0  0  0  0  0  0  0  0  0  0  0  0
   -4.5897   -1.7920   -0.3555 H   0  0  0  0  0  0  0  0  0  0  0  0
   -4.0052   -4.0225    0.4108 H   0  0  0  0  0  0  0  0  0  0  0  0
   -1.6644   -4.5879    0.9487 H   0  0  0  0  0  0  0  0  0  0  0  0
    0.0810   -2.9217    0.7590 H   0  0  0  0  0  0  0  0  0  0  0  0
  1  2  1  0
  2  3  1  0
  2  4  1  0
  4  5  1  0
  5  6  1  0
  6  7  1  0
  7  8  1  0
  8  9  2  0
  9 10  1  0
 10 11  2  0
 11 12  1  0
 12 13  2  0
 13  8  1  0
 13 14  1  0
 14 15  1  0
 14 16  1  0
 14 17  1  0
 17 18  2  0
 18 19  1  0
 19 20  2  0
 20 21  1  0
 21 22  2  0
 22  7  1  0
 22 17  1  0
  1 23  1  0
  1 24  1  0
  1 25  1  0
  3 26  1  0
  3 27  1  0
  3 28  1  0
  4 29  1  0
  4 30  1  0
  5 31  1  0
  5 32  1  0
  6 33  1  0
  6 34  1  0
  9 35  1  0
 10 36  1  0
 11 37  1  0
 12 38  1  0
 15 39  1  0
 15 40  1  0
 15 41  1  0
 16 42  1  0
 16 43  1  0
 16 44  1  0
 18 45  1  0
 19 46  1  0
 20 47  1  0
 21 48  1  0
M  END
> <ID>
HT0677

> <Class>
1.0

> <Clusters>
131

> <Fold>
5

$$$$