
     RDKit          3D

 30 31  0  0  0  0  0  0  0  0999 V2000
   -1.7322    3.4763   -0.4967 O   0  0  0  0  0  0  0  0  0  0  0  0
   -2.5673    2.3635   -0.5069 C   0  0  0  0  0  0  0  0  0  0  0  0
   -3.4253    2.2299   -1.4204 O   0  0  0  0  0  0  0  0  0  0  0  0
   -2.4569    1.3349    0.5752 C   0  0  0  0  0  0  0  0  0  0  0  0
   -2.0701   -0.0079    0.0016 C   0  0  0  0  0  0  0  0  0  0  0  0
   -3.0817   -0.9510   -0.2552 C   0  0  0  0  0  0  0  0  0  0  0  0
   -2.7677   -2.2088   -0.7712 C   0  0  0  0  0  0  0  0  0  0  0  0
   -1.4419   -2.5422   -1.0406 C   0  0  0  0  0  0  0  0  0  0  0  0
   -0.4243   -1.6195   -0.7953 C   0  0  0  0  0  0  0  0  0  0  0  0
   -0.7196   -0.3465   -0.2689 C   0  0  0  0  0  0  0  0  0  0  0  0
    0.3412    0.6006   -0.0324 N   0  0  0  0  0  0  0  0  0  0  0  0
    1.7081    0.2161    0.1859 C   0  0  0  0  0  0  0  0  0  0  0  0
    2.0581   -0.6388    1.2531 C   0  0  0  0  0  0  0  0  0  0  0  0
    0.8559   -1.2228    2.3977 Cl  0  0  0  0  0  0  0  0  0  0  0  0
    3.3961   -0.9995    1.4486 C   0  0  0  0  0  0  0  0  0  0  0  0
    4.3892   -0.5089    0.5992 C   0  0  0  0  0  0  0  0  0  0  0  0
    4.0528    0.3523   -0.4464 C   0  0  0  0  0  0  0  0  0  0  0  0
    2.7194    0.7218   -0.6536 C   0  0  0  0  0  0  0  0  0  0  0  0
    2.3333    1.7914   -1.9954 Cl  0  0  0  0  0  0  0  0  0  0  0  0
   -1.7968    4.1810   -1.2215 H   0  0  0  0  0  0  0  0  0  0  0  0
   -3.4369    1.2683    1.0956 H   0  0  0  0  0  0  0  0  0  0  0  0
   -1.7197    1.6544    1.3426 H   0  0  0  0  0  0  0  0  0  0  0  0
   -4.1191   -0.7110   -0.0566 H   0  0  0  0  0  0  0  0  0  0  0  0
   -3.5551   -2.9258   -0.9648 H   0  0  0  0  0  0  0  0  0  0  0  0
   -1.2016   -3.5169   -1.4453 H   0  0  0  0  0  0  0  0  0  0  0  0
    0.5955   -1.8975   -1.0280 H   0  0  0  0  0  0  0  0  0  0  0  0
    0.1445    1.6193   -0.1403 H   0  0  0  0  0  0  0  0  0  0  0  0
    3.6693   -1.6534    2.2671 H   0  0  0  0  0  0  0  0  0  0  0  0
    5.4224   -0.7906    0.7562 H   0  0  0  0  0  0  0  0  0  0  0  0
    4.8302    0.7314   -1.0977 H   0  0  0  0  0  0  0  0  0  0  0  0
  1  2  1  0
  2  3  2  0
  2  4  1  0
  4  5  1  0
  5  6  2  0
  6  7  1  0
  7  8  2  0
  8  9  1  0
  9 10  2  0
 10  5  1  0
 10 11  1  0
 11 12  1  0
 12 13  2  0
 13 14  1  0
 13 15  1  0
 15 16  2  0
 16 17  1  0
 17 18  2  0
 18 12  1  0
 18 19  1  0
  1 20  1  0
  4 21  1  0
  4 22  1  0
  6 23  1  0
  7 24  1  0
  8 25  1  0
  9 26  1  0
 11 27  1  0
 15 28  1  0
 16 29  1  0
 17 30  1  0
M  END
> <ID>
HT0648

> <Class>
1.0

> <Clusters>
75

> <Fold>
5

$$$$