
     RDKit          3D

 65 69  0  0  0  0  0  0  0  0999 V2000
   -0.3887   -1.1160    0.5269 C   0  0  0  0  0  0  0  0  0  0  0  0
   -0.6186   -0.0556   -0.5975 C   0  0  2  0  0  0  0  0  0  0  0  0
   -1.0153    1.2988    0.0309 C   0  0  0  0  0  0  0  0  0  0  0  0
   -2.4244    1.2420    0.6739 C   0  0  0  0  0  0  0  0  0  0  0  0
   -3.5223    0.6853   -0.2837 C   0  0  1  0  0  0  0  0  0  0  0  0
   -3.0781   -0.6575   -0.9364 C   0  0  1  0  0  0  0  0  0  0  0  0
   -4.1509   -1.0946   -1.9404 C   0  0  0  0  0  0  0  0  0  0  0  0
   -5.4597   -1.4221   -1.2132 C   0  0  0  0  0  0  0  0  0  0  0  0
   -5.8085   -0.4536   -0.1029 C   0  0  0  0  0  0  0  0  0  0  0  0
   -7.0745   -0.5747    0.4937 C   0  0  0  0  0  0  0  0  0  0  0  0
   -7.4696    0.2944    1.5148 C   0  0  0  0  0  0  0  0  0  0  0  0
   -8.7267    0.1763    2.1035 O   0  0  0  0  0  0  0  0  0  0  0  0
   -6.6003    1.2952    1.9442 C   0  0  0  0  0  0  0  0  0  0  0  0
   -5.3334    1.4235    1.3723 C   0  0  0  0  0  0  0  0  0  0  0  0
   -4.8982    0.5330    0.3665 C   0  0  0  0  0  0  0  0  0  0  0  0
   -1.7092   -0.4385   -1.6082 C   0  0  2  0  0  0  0  0  0  0  0  0
   -1.0941   -1.5600   -2.4333 C   0  0  0  0  0  0  0  0  0  0  0  0
    0.3989   -1.1931   -2.5018 C   0  0  0  0  0  0  0  0  0  0  0  0
    0.6155   -0.0139   -1.5285 C   0  0  2  0  0  0  0  0  0  0  0  0
    1.8569   -0.1641   -0.8355 O   0  0  0  0  0  0  0  0  0  0  0  0
    2.4998    0.8817   -0.1640 C   0  0  0  0  0  0  0  0  0  0  0  0
    2.0501    2.0571   -0.2172 O   0  0  0  0  0  0  0  0  0  0  0  0
    3.7625    0.6056    0.5886 C   0  0  0  0  0  0  0  0  0  0  0  0
    4.9815    1.0545   -0.2375 C   0  0  0  0  0  0  0  0  0  0  0  0
    6.3685    0.7097    0.3557 C   0  0  0  0  0  0  0  0  0  0  0  0
    6.6912   -0.7788    0.4175 C   0  0  0  0  0  0  0  0  0  0  0  0
    7.8274   -0.8900    1.4252 C   0  0  0  0  0  0  0  0  0  0  0  0
    7.7389    0.3437    2.3269 C   0  0  0  0  0  0  0  0  0  0  0  0
    6.6355    1.2351    1.7626 C   0  0  0  0  0  0  0  0  0  0  0  0
   -1.2762   -1.2683    1.1692 H   0  0  0  0  0  0  0  0  0  0  0  0
    0.4306   -0.7850    1.2008 H   0  0  0  0  0  0  0  0  0  0  0  0
   -0.1018   -2.1040    0.1108 H   0  0  0  0  0  0  0  0  0  0  0  0
   -1.0091    2.0953   -0.7464 H   0  0  0  0  0  0  0  0  0  0  0  0
   -0.2806    1.5910    0.8110 H   0  0  0  0  0  0  0  0  0  0  0  0
   -2.3978    0.6421    1.6078 H   0  0  0  0  0  0  0  0  0  0  0  0
   -2.6709    2.2851    0.9609 H   0  0  0  0  0  0  0  0  0  0  0  0
   -3.6461    1.4422   -1.0915 H   0  0  0  0  0  0  0  0  0  0  0  0
   -3.0006   -1.4543   -0.1664 H   0  0  0  0  0  0  0  0  0  0  0  0
   -3.8225   -2.0020   -2.4912 H   0  0  0  0  0  0  0  0  0  0  0  0
   -4.3287   -0.2893   -2.6882 H   0  0  0  0  0  0  0  0  0  0  0  0
   -6.2803   -1.4323   -1.9645 H   0  0  0  0  0  0  0  0  0  0  0  0
   -5.3875   -2.4431   -0.7763 H   0  0  0  0  0  0  0  0  0  0  0  0
   -7.7598   -1.3430    0.1558 H   0  0  0  0  0  0  0  0  0  0  0  0
   -9.3857   -0.5354    1.8094 H   0  0  0  0  0  0  0  0  0  0  0  0
   -6.9077    1.9817    2.7237 H   0  0  0  0  0  0  0  0  0  0  0  0
   -4.7084    2.2288    1.7255 H   0  0  0  0  0  0  0  0  0  0  0  0
   -1.8436    0.4123   -2.3223 H   0  0  0  0  0  0  0  0  0  0  0  0
   -1.5412   -1.6037   -3.4506 H   0  0  0  0  0  0  0  0  0  0  0  0
   -1.2361   -2.5421   -1.9313 H   0  0  0  0  0  0  0  0  0  0  0  0
    0.6823   -0.8943   -3.5348 H   0  0  0  0  0  0  0  0  0  0  0  0
    1.0136   -2.0720   -2.2059 H   0  0  0  0  0  0  0  0  0  0  0  0
    0.6273    0.9289   -2.1230 H   0  0  0  0  0  0  0  0  0  0  0  0
    3.8083   -0.4786    0.8118 H   0  0  0  0  0  0  0  0  0  0  0  0
    3.7144    1.1584    1.5487 H   0  0  0  0  0  0  0  0  0  0  0  0
    4.9198    0.5990   -1.2508 H   0  0  0  0  0  0  0  0  0  0  0  0
    4.9282    2.1585   -0.3699 H   0  0  0  0  0  0  0  0  0  0  0  0
    7.1253    1.1765   -0.3161 H   0  0  0  0  0  0  0  0  0  0  0  0
    6.9976   -1.1661   -0.5793 H   0  0  0  0  0  0  0  0  0  0  0  0
    5.8275   -1.3703    0.7868 H   0  0  0  0  0  0  0  0  0  0  0  0
    8.8031   -0.8920    0.8897 H   0  0  0  0  0  0  0  0  0  0  0  0
    7.7417   -1.8277    2.0178 H   0  0  0  0  0  0  0  0  0  0  0  0
    8.7101    0.8879    2.3226 H   0  0  0  0  0  0  0  0  0  0  0  0
    7.5015    0.0480    3.3730 H   0  0  0  0  0  0  0  0  0  0  0  0
    6.9539    2.2995    1.7334 H   0  0  0  0  0  0  0  0  0  0  0  0
    5.7450    1.1447    2.4152 H   0  0  0  0  0  0  0  0  0  0  0  0
  2  1  1  1
  2  3  1  0
  3  4  1  0
  5  4  1  0
  5  6  1  0
  6  7  1  0
  7  8  1  0
  8  9  1  0
  9 10  2  0
 10 11  1  0
 11 12  1  0
 11 13  2  0
 13 14  1  0
 14 15  2  0
 15  5  1  0
 15  9  1  0
  6 16  1  0
 16  2  1  0
 16 17  1  0
 17 18  1  0
 18 19  1  0
 19  2  1  0
 19 20  1  0
 20 21  1  0
 21 22  2  0
 21 23  1  0
 23 24  1  0
 24 25  1  0
 25 26  1  0
 26 27  1  0
 27 28  1  0
 28 29  1  0
 29 25  1  0
  1 30  1  0
  1 31  1  0
  1 32  1  0
  3 33  1  0
  3 34  1  0
  4 35  1  0
  4 36  1  0
  5 37  1  6
  6 38  1  1
  7 39  1  0
  7 40  1  0
  8 41  1  0
  8 42  1  0
 10 43  1  0
 12 44  1  0
 13 45  1  0
 14 46  1  0
 16 47  1  6
 17 48  1  0
 17 49  1  0
 18 50  1  0
 18 51  1  0
 19 52  1  6
 23 53  1  0
 23 54  1  0
 24 55  1  0
 24 56  1  0
 25 57  1  0
 26 58  1  0
 26 59  1  0
 27 60  1  0
 27 61  1  0
 28 62  1  0
 28 63  1  0
 29 64  1  0
 29 65  1  0
M  END
> <ID>
HT0792

> <Class>
1.0

> <Clusters>
96

> <Fold>
5

$$$$