
     RDKit          3D

 58 61  0  0  0  0  0  0  0  0999 V2000
    7.6270    0.1385    0.8543 C   0  0  0  0  0  0  0  0  0  0  0  0
    6.8782    0.9104   -0.2431 C   0  0  1  0  0  0  0  0  0  0  0  0
    7.3751    0.6025   -1.5254 O   0  0  0  0  0  0  0  0  0  0  0  0
    5.3468    0.7079   -0.1335 C   0  0  2  0  0  0  0  0  0  0  0  0
    4.8384   -0.6272   -0.4274 C   0  0  1  0  0  0  0  0  0  0  0  0
    3.7743   -1.3400    0.4705 C   0  0  1  0  0  0  0  0  0  0  0  0
    3.5955   -0.7458    1.8704 C   0  0  0  0  0  0  0  0  0  0  0  0
    2.4899   -1.2751   -0.3546 C   0  0  0  0  0  0  0  0  0  0  0  0
    2.6879   -0.6204   -1.5002 C   0  0  0  0  0  0  0  0  0  0  0  0
    4.0136   -0.1586   -1.5026 N   0  0  0  0  0  0  0  0  0  0  0  0
    4.6034    1.1907   -1.3425 C   0  0  0  0  0  0  0  0  0  0  0  0
    4.4663    2.2982   -1.9256 O   0  0  0  0  0  0  0  0  0  0  0  0
    1.6985   -0.2507   -2.5301 C   0  0  0  0  0  0  0  0  0  0  0  0
    1.8605    0.8154   -3.1795 O   0  0  0  0  0  0  0  0  0  0  0  0
    0.6186   -1.0717   -2.8455 O   0  0  0  0  0  0  0  0  0  0  0  0
    0.9222   -1.9587    0.2116 S   0  0  0  0  0  0  0  0  0  0  0  0
    0.2414   -0.3711    0.8307 C   0  0  2  0  0  0  0  0  0  0  0  0
   -0.1172   -0.4541    2.3023 C   0  0  0  0  0  0  0  0  0  0  0  0
   -1.2041    0.4947    2.5385 N   0  0  0  0  0  0  0  0  0  0  0  0
   -1.8422    0.7488    1.2359 C   0  0  1  0  0  0  0  0  0  0  0  0
   -1.0771   -0.0382    0.1696 C   0  0  0  0  0  0  0  0  0  0  0  0
   -3.2975    0.3571    1.2686 C   0  0  0  0  0  0  0  0  0  0  0  0
   -3.7776   -0.2035    2.2922 O   0  0  0  0  0  0  0  0  0  0  0  0
   -4.1388    0.6567    0.1436 N   0  0  0  0  0  0  0  0  0  0  0  0
   -5.4738    0.1472   -0.0147 C   0  0  0  0  0  0  0  0  0  0  0  0
   -5.7993   -1.1675    0.3651 C   0  0  0  0  0  0  0  0  0  0  0  0
   -7.0928   -1.6539    0.1702 C   0  0  0  0  0  0  0  0  0  0  0  0
   -8.0694   -0.8429   -0.4126 C   0  0  0  0  0  0  0  0  0  0  0  0
   -7.7631    0.4733   -0.8027 C   0  0  0  0  0  0  0  0  0  0  0  0
   -6.4525    0.9507   -0.6171 C   0  0  0  0  0  0  0  0  0  0  0  0
   -8.8084    1.3268   -1.4149 C   0  0  0  0  0  0  0  0  0  0  0  0
   -9.8065    0.7959   -1.9713 O   0  0  0  0  0  0  0  0  0  0  0  0
   -8.7303    2.7193   -1.3776 O   0  0  0  0  0  0  0  0  0  0  0  0
    7.4711   -0.9569    0.7468 H   0  0  0  0  0  0  0  0  0  0  0  0
    8.7158    0.3519    0.7889 H   0  0  0  0  0  0  0  0  0  0  0  0
    7.2636    0.4537    1.8560 H   0  0  0  0  0  0  0  0  0  0  0  0
    7.0734    1.9925   -0.0709 H   0  0  0  0  0  0  0  0  0  0  0  0
    7.4377   -0.3838   -1.6111 H   0  0  0  0  0  0  0  0  0  0  0  0
    4.9383    1.1919    0.7769 H   0  0  0  0  0  0  0  0  0  0  0  0
    5.5909   -1.3495   -0.8121 H   0  0  0  0  0  0  0  0  0  0  0  0
    4.0616   -2.4073    0.5828 H   0  0  0  0  0  0  0  0  0  0  0  0
    4.5792   -0.6843    2.3838 H   0  0  0  0  0  0  0  0  0  0  0  0
    3.1360    0.2645    1.8232 H   0  0  0  0  0  0  0  0  0  0  0  0
    2.9339   -1.4021    2.4740 H   0  0  0  0  0  0  0  0  0  0  0  0
    0.5276   -2.0076   -2.4758 H   0  0  0  0  0  0  0  0  0  0  0  0
    0.9453    0.4788    0.6785 H   0  0  0  0  0  0  0  0  0  0  0  0
    0.7636   -0.2219    2.9435 H   0  0  0  0  0  0  0  0  0  0  0  0
   -0.4803   -1.4748    2.5597 H   0  0  0  0  0  0  0  0  0  0  0  0
   -0.7802    1.3904    2.8800 H   0  0  0  0  0  0  0  0  0  0  0  0
   -1.7818    1.8361    0.9953 H   0  0  0  0  0  0  0  0  0  0  0  0
   -0.9200    0.5687   -0.7495 H   0  0  0  0  0  0  0  0  0  0  0  0
   -1.6184   -0.9741   -0.0999 H   0  0  0  0  0  0  0  0  0  0  0  0
   -3.7894    1.3505   -0.5569 H   0  0  0  0  0  0  0  0  0  0  0  0
   -5.0511   -1.8217    0.7896 H   0  0  0  0  0  0  0  0  0  0  0  0
   -7.3364   -2.6648    0.4672 H   0  0  0  0  0  0  0  0  0  0  0  0
   -9.0679   -1.2412   -0.5474 H   0  0  0  0  0  0  0  0  0  0  0  0
   -6.1778    1.9449   -0.9420 H   0  0  0  0  0  0  0  0  0  0  0  0
   -8.0219    3.2112   -0.8473 H   0  0  0  0  0  0  0  0  0  0  0  0
  1  2  1  0
  2  3  1  0
  4  2  1  0
  4  5  1  0
  5  6  1  0
  6  7  1  0
  6  8  1  0
  8  9  2  0
  9 10  1  0
  5 10  1  0
 10 11  1  0
 11  4  1  0
 11 12  2  0
  9 13  1  0
 13 14  2  0
 13 15  1  0
  8 16  1  0
 17 16  1  0
 17 18  1  0
 18 19  1  0
 19 20  1  0
 20 21  1  0
 21 17  1  0
 20 22  1  0
 22 23  2  0
 22 24  1  0
 24 25  1  0
 25 26  2  0
 26 27  1  0
 27 28  2  0
 28 29  1  0
 29 30  2  0
 30 25  1  0
 29 31  1  0
 31 32  2  0
 31 33  1  0
  1 34  1  0
  1 35  1  0
  1 36  1  0
  2 37  1  1
  3 38  1  0
  4 39  1  1
  5 40  1  6
  6 41  1  1
  7 42  1  0
  7 43  1  0
  7 44  1  0
 15 45  1  0
 17 46  1  1
 18 47  1  0
 18 48  1  0
 19 49  1  0
 20 50  1  6
 21 51  1  0
 21 52  1  0
 24 53  1  0
 26 54  1  0
 27 55  1  0
 28 56  1  0
 30 57  1  0
 33 58  1  0
M  END
> <ID>
HT0782

> <Class>
1.0

> <Clusters>
158

> <Fold>
5

$$$$