
     RDKit          3D

 44 45  0  0  0  0  0  0  0  0999 V2000
    2.6640   -1.3816   -0.5962 O   0  0  0  0  0  0  0  0  0  0  0  0
    2.0312   -0.3939   -1.0629 C   0  0  0  0  0  0  0  0  0  0  0  0
    0.5653   -0.5201   -1.3912 C   0  0  0  0  0  0  0  0  0  0  0  0
    2.6646    0.8416   -1.2373 O   0  0  0  0  0  0  0  0  0  0  0  0
    3.9967    1.1073   -0.8050 C   0  0  0  0  0  0  0  0  0  0  0  0
    4.0381    1.3038    0.7059 C   0  0  0  0  0  0  0  0  0  0  0  0
   -0.2554   -0.5717   -0.0716 C   0  0  0  0  0  0  0  0  0  0  0  0
    0.2867   -1.7127   -2.2813 C   0  0  0  0  0  0  0  0  0  0  0  0
   -1.6500   -1.1624   -0.2374 C   0  0  0  0  0  0  0  0  0  0  0  0
   -0.2673    0.8072    0.5908 C   0  0  0  0  0  0  0  0  0  0  0  0
   -0.8442   -2.3439   -2.1935 N   0  0  0  0  0  0  0  0  0  0  0  0
    1.2014   -2.0714   -3.4170 C   0  0  0  0  0  0  0  0  0  0  0  0
   -1.8730   -2.0496   -1.2375 C   0  0  0  0  0  0  0  0  0  0  0  0
   -2.6619   -0.9046    0.8226 C   0  0  0  0  0  0  0  0  0  0  0  0
    0.4991    0.9924    1.7574 C   0  0  0  0  0  0  0  0  0  0  0  0
   -1.0026    1.9077    0.0724 C   0  0  0  0  0  0  0  0  0  0  0  0
   -3.1697   -2.7955   -1.3868 C   0  0  0  0  0  0  0  0  0  0  0  0
   -3.8867   -0.8147    0.5332 O   0  0  0  0  0  0  0  0  0  0  0  0
   -2.2392   -0.7177    2.1425 O   0  0  0  0  0  0  0  0  0  0  0  0
    0.5390    2.2298    2.3977 C   0  0  0  0  0  0  0  0  0  0  0  0
   -0.9532    3.1517    0.7316 C   0  0  0  0  0  0  0  0  0  0  0  0
   -2.0022    1.7537   -1.3776 Cl  0  0  0  0  0  0  0  0  0  0  0  0
   -3.1344   -0.3871    3.1965 C   0  0  0  0  0  0  0  0  0  0  0  0
   -0.1836    3.3050    1.8873 C   0  0  0  0  0  0  0  0  0  0  0  0
   -1.8491    4.5433    0.1333 Cl  0  0  0  0  0  0  0  0  0  0  0  0
    0.2778    0.3735   -1.9826 H   0  0  0  0  0  0  0  0  0  0  0  0
    4.3487    2.0390   -1.2957 H   0  0  0  0  0  0  0  0  0  0  0  0
    4.6755    0.2802   -1.1068 H   0  0  0  0  0  0  0  0  0  0  0  0
    5.0729    1.5523    1.0223 H   0  0  0  0  0  0  0  0  0  0  0  0
    3.3627    2.1357    0.9977 H   0  0  0  0  0  0  0  0  0  0  0  0
    3.7184    0.3766    1.2258 H   0  0  0  0  0  0  0  0  0  0  0  0
    0.2599   -1.2914    0.6052 H   0  0  0  0  0  0  0  0  0  0  0  0
    2.0253   -1.3370   -3.5309 H   0  0  0  0  0  0  0  0  0  0  0  0
    0.6278   -2.0899   -4.3677 H   0  0  0  0  0  0  0  0  0  0  0  0
    1.6365   -3.0766   -3.2375 H   0  0  0  0  0  0  0  0  0  0  0  0
    1.0765    0.1761    2.1733 H   0  0  0  0  0  0  0  0  0  0  0  0
   -3.0713   -3.5856   -2.1610 H   0  0  0  0  0  0  0  0  0  0  0  0
   -3.9731   -2.0998   -1.7070 H   0  0  0  0  0  0  0  0  0  0  0  0
   -3.4479   -3.2892   -0.4316 H   0  0  0  0  0  0  0  0  0  0  0  0
    1.1354    2.3559    3.2920 H   0  0  0  0  0  0  0  0  0  0  0  0
   -2.5628   -0.2896    4.1421 H   0  0  0  0  0  0  0  0  0  0  0  0
   -3.6359    0.5796    2.9784 H   0  0  0  0  0  0  0  0  0  0  0  0
   -3.8949   -1.1877    3.3152 H   0  0  0  0  0  0  0  0  0  0  0  0
   -0.1451    4.2615    2.3929 H   0  0  0  0  0  0  0  0  0  0  0  0
  1  2  2  0
  2  3  1  0
  4  2  1  0
  5  4  1  0
  6  5  1  0
  3  7  1  0
  8  3  1  0
  7  9  1  0
  7 10  1  0
 11  8  2  0
  8 12  1  0
  9 13  2  0
  9 14  1  0
 10 15  2  0
 16 10  1  0
 13 11  1  0
 13 17  1  0
 14 18  2  0
 14 19  1  0
 15 20  1  0
 21 16  2  0
 16 22  1  0
 19 23  1  0
 20 24  2  0
 24 21  1  0
 21 25  1  0
  3 26  1  0
  5 27  1  0
  5 28  1  0
  6 29  1  0
  6 30  1  0
  6 31  1  0
  7 32  1  0
 12 33  1  0
 12 34  1  0
 12 35  1  0
 15 36  1  0
 17 37  1  0
 17 38  1  0
 17 39  1  0
 20 40  1  0
 23 41  1  0
 23 42  1  0
 23 43  1  0
 24 44  1  0
M  END
> <ID>
HT0853

> <Class>
1.0

> <Clusters>
102

> <Fold>
5

$$$$