
     RDKit          3D

111119  0  0  0  0  0  0  0  0999 V2000
    3.9347   -2.8441   -2.0134 C   0  0  0  0  0  0  0  0  0  0  0  0
    4.2323   -1.7782   -1.1419 O   0  0  0  0  0  0  0  0  0  0  0  0
    3.3031   -1.7320   -0.0726 C   0  0  1  0  0  0  0  0  0  0  0  0
    3.9973   -1.3741    1.2407 C   0  0  1  0  0  0  0  0  0  0  0  0
    5.4184   -1.9706    1.4004 C   0  0  0  0  0  0  0  0  0  0  0  0
    6.5670   -1.0037    1.0242 C   0  0  2  0  0  0  0  0  0  0  0  0
    6.5142   -0.6967   -0.3439 O   0  0  0  0  0  0  0  0  0  0  0  0
    7.9299   -1.6356    1.3524 C   0  0  0  0  0  0  0  0  0  0  0  0
    9.0120   -0.7015    1.0424 N   0  0  0  0  0  0  0  0  0  0  0  0
    4.0072    0.0245    1.3962 O   0  0  0  0  0  0  0  0  0  0  0  0
    3.0329    0.5761    0.5380 C   0  0  1  0  0  0  0  0  0  0  0  0
    3.7251    1.6311   -0.3463 C   0  0  0  0  0  0  0  0  0  0  0  0
    2.7565    2.5982   -1.0602 C   0  0  1  0  0  0  0  0  0  0  0  0
    1.7518    3.0215   -0.1390 O   0  0  0  0  0  0  0  0  0  0  0  0
    1.3480    4.3625   -0.3124 C   0  0  1  0  0  0  0  0  0  0  0  0
    0.1535    4.6483    0.6155 C   0  0  0  0  0  0  0  0  0  0  0  0
   -1.1564    4.0178    0.0889 C   0  0  0  0  0  0  0  0  0  0  0  0
   -1.6719    2.8062    0.9032 C   0  0  2  0  0  0  0  0  0  0  0  0
   -2.5415    2.0480    0.0862 O   0  0  0  0  0  0  0  0  0  0  0  0
   -3.8445    2.5440    0.3285 C   0  0  1  0  0  0  0  0  0  0  0  0
   -4.9106    1.5431   -0.1409 C   0  0  0  0  0  0  0  0  0  0  0  0
   -5.0222    0.2449    0.6923 C   0  0  0  0  0  0  0  0  0  0  0  0
   -5.5775   -0.9389   -0.1355 C   0  0  1  0  0  0  0  0  0  0  0  0
   -6.8406   -0.5420   -0.8818 C   0  0  0  0  0  0  0  0  0  0  0  0
   -7.4535   -1.8817   -1.1068 C   0  0  1  0  0  0  0  0  0  0  0  0
   -6.8704   -2.4340   -2.2730 O   0  0  0  0  0  0  0  0  0  0  0  0
   -5.9145   -3.3605   -1.8207 C   0  0  2  0  0  0  0  0  0  0  0  0
   -6.4703   -3.9442   -0.5490 C   0  0  1  0  0  0  0  0  0  0  0  0
   -5.5866   -4.7792    0.1951 O   0  0  0  0  0  0  0  0  0  0  0  0
   -4.3080   -4.2263    0.4558 C   0  0  1  0  0  0  0  0  0  0  0  0
   -3.3836   -5.3295    0.9689 C   0  0  0  0  0  0  0  0  0  0  0  0
   -2.0099   -4.7337    1.2854 C   0  0  0  0  0  0  0  0  0  0  0  0
   -1.4741   -3.8578    0.1212 C   0  0  2  0  0  0  0  0  0  0  0  0
   -0.2427   -3.0940    0.6307 C   0  0  0  0  0  0  0  0  0  0  0  0
    0.2883   -2.0591   -0.3312 C   0  0  0  0  0  0  0  0  0  0  0  0
    0.2355   -2.2423   -1.5366 O   0  0  0  0  0  0  0  0  0  0  0  0
    0.9264   -0.8082    0.2237 C   0  0  0  0  0  0  0  0  0  0  0  0
    2.3648   -0.5526   -0.2831 C   0  0  2  0  0  0  0  0  0  0  0  0
   -2.4491   -2.9306   -0.3530 O   0  0  0  0  0  0  0  0  0  0  0  0
   -3.6183   -3.6114   -0.7792 C   0  0  2  0  0  0  0  0  0  0  0  0
   -4.5453   -2.6718   -1.5701 C   0  0  2  0  0  0  0  0  0  0  0  0
   -4.5472   -1.3368   -1.0460 O   0  0  0  0  0  0  0  0  0  0  0  0
   -6.9958   -2.6923    0.1103 C   0  0  1  0  0  0  0  0  0  0  0  0
   -5.9532   -1.9769    0.7412 O   0  0  0  0  0  0  0  0  0  0  0  0
   -3.9266    2.9760    1.7909 C   0  0  0  0  0  0  0  0  0  0  0  0
   -2.5010    3.2223    2.0765 C   0  0  0  0  0  0  0  0  0  0  0  0
   -2.0380    3.6745    3.2465 C   0  0  0  0  0  0  0  0  0  0  0  0
    2.5366    5.2677    0.0161 C   0  0  0  0  0  0  0  0  0  0  0  0
    3.6077    5.1178   -1.0746 C   0  0  1  0  0  0  0  0  0  0  0  0
    4.9899    5.4719   -0.5139 C   0  0  0  0  0  0  0  0  0  0  0  0
    3.5929    3.7236   -1.6840 C   0  0  0  0  0  0  0  0  0  0  0  0
    4.2643    3.4892   -2.8239 C   0  0  0  0  0  0  0  0  0  0  0  0
    4.6321   -2.8004   -2.8724 H   0  0  0  0  0  0  0  0  0  0  0  0
    2.8972   -2.7658   -2.4126 H   0  0  0  0  0  0  0  0  0  0  0  0
    4.0847   -3.8249   -1.5068 H   0  0  0  0  0  0  0  0  0  0  0  0
    2.7640   -2.6972    0.0808 H   0  0  0  0  0  0  0  0  0  0  0  0
    3.3692   -1.7807    2.0659 H   0  0  0  0  0  0  0  0  0  0  0  0
    5.5085   -2.9111    0.8176 H   0  0  0  0  0  0  0  0  0  0  0  0
    5.5443   -2.2501    2.4707 H   0  0  0  0  0  0  0  0  0  0  0  0
    6.4697   -0.0792    1.6402 H   0  0  0  0  0  0  0  0  0  0  0  0
    6.7830    0.2554   -0.4404 H   0  0  0  0  0  0  0  0  0  0  0  0
    8.0692   -2.5809    0.7814 H   0  0  0  0  0  0  0  0  0  0  0  0
    7.9661   -1.8804    2.4378 H   0  0  0  0  0  0  0  0  0  0  0  0
    9.8945   -1.0729    1.4681 H   0  0  0  0  0  0  0  0  0  0  0  0
    9.1626   -0.7063    0.0050 H   0  0  0  0  0  0  0  0  0  0  0  0
    2.2922    1.0922    1.1896 H   0  0  0  0  0  0  0  0  0  0  0  0
    4.3713    1.1207   -1.0930 H   0  0  0  0  0  0  0  0  0  0  0  0
    4.3971    2.2328    0.3099 H   0  0  0  0  0  0  0  0  0  0  0  0
    2.2441    2.0484   -1.8793 H   0  0  0  0  0  0  0  0  0  0  0  0
    1.0308    4.5499   -1.3639 H   0  0  0  0  0  0  0  0  0  0  0  0
    0.3972    4.2951    1.6393 H   0  0  0  0  0  0  0  0  0  0  0  0
    0.0065    5.7475    0.6774 H   0  0  0  0  0  0  0  0  0  0  0  0
   -1.9436    4.8020    0.0640 H   0  0  0  0  0  0  0  0  0  0  0  0
   -1.0266    3.6950   -0.9664 H   0  0  0  0  0  0  0  0  0  0  0  0
   -0.8297    2.1564    1.2295 H   0  0  0  0  0  0  0  0  0  0  0  0
   -3.9795    3.4522   -0.3057 H   0  0  0  0  0  0  0  0  0  0  0  0
   -5.8963    2.0532   -0.1350 H   0  0  0  0  0  0  0  0  0  0  0  0
   -4.6711    1.2923   -1.1996 H   0  0  0  0  0  0  0  0  0  0  0  0
   -4.0255   -0.0382    1.0897 H   0  0  0  0  0  0  0  0  0  0  0  0
   -5.6835    0.4295    1.5689 H   0  0  0  0  0  0  0  0  0  0  0  0
   -7.5080    0.0721   -0.2386 H   0  0  0  0  0  0  0  0  0  0  0  0
   -6.6293   -0.0073   -1.8337 H   0  0  0  0  0  0  0  0  0  0  0  0
   -8.5614   -1.8290   -1.2044 H   0  0  0  0  0  0  0  0  0  0  0  0
   -5.8010   -4.1654   -2.5764 H   0  0  0  0  0  0  0  0  0  0  0  0
   -7.3484   -4.5730   -0.8225 H   0  0  0  0  0  0  0  0  0  0  0  0
   -4.3694   -3.4946    1.2849 H   0  0  0  0  0  0  0  0  0  0  0  0
   -3.2801   -6.1308    0.2036 H   0  0  0  0  0  0  0  0  0  0  0  0
   -3.8108   -5.7865    1.8901 H   0  0  0  0  0  0  0  0  0  0  0  0
   -2.1058   -4.1235    2.2125 H   0  0  0  0  0  0  0  0  0  0  0  0
   -1.2969   -5.5583    1.5019 H   0  0  0  0  0  0  0  0  0  0  0  0
   -1.1526   -4.5219   -0.7149 H   0  0  0  0  0  0  0  0  0  0  0  0
   -0.5229   -2.5770    1.5691 H   0  0  0  0  0  0  0  0  0  0  0  0
    0.5692   -3.8102    0.8659 H   0  0  0  0  0  0  0  0  0  0  0  0
    0.9406   -0.8666    1.3343 H   0  0  0  0  0  0  0  0  0  0  0  0
    0.2894    0.0612   -0.0516 H   0  0  0  0  0  0  0  0  0  0  0  0
    2.3003   -0.2975   -1.3664 H   0  0  0  0  0  0  0  0  0  0  0  0
   -3.3577   -4.4326   -1.4913 H   0  0  0  0  0  0  0  0  0  0  0  0
   -4.0856   -2.5776   -2.5785 H   0  0  0  0  0  0  0  0  0  0  0  0
   -7.8215   -2.9048    0.8256 H   0  0  0  0  0  0  0  0  0  0  0  0
   -4.5227    3.9061    1.9008 H   0  0  0  0  0  0  0  0  0  0  0  0
   -4.3085    2.1801    2.4593 H   0  0  0  0  0  0  0  0  0  0  0  0
   -0.9729    3.7796    3.4198 H   0  0  0  0  0  0  0  0  0  0  0  0
   -2.7285    3.9292    4.0466 H   0  0  0  0  0  0  0  0  0  0  0  0
    2.9434    4.9730    1.0094 H   0  0  0  0  0  0  0  0  0  0  0  0
    2.2178    6.3304    0.0729 H   0  0  0  0  0  0  0  0  0  0  0  0
    3.3655    5.8447   -1.8833 H   0  0  0  0  0  0  0  0  0  0  0  0
    5.2831    4.7470    0.2775 H   0  0  0  0  0  0  0  0  0  0  0  0
    5.7521    5.4506   -1.3196 H   0  0  0  0  0  0  0  0  0  0  0  0
    4.9721    6.4972   -0.0861 H   0  0  0  0  0  0  0  0  0  0  0  0
    4.8372    4.2754   -3.3095 H   0  0  0  0  0  0  0  0  0  0  0  0
    4.2480    2.5063   -3.2864 H   0  0  0  0  0  0  0  0  0  0  0  0
  1  2  1  0
  3  2  1  0
  3  4  1  0
  4  5  1  0
  5  6  1  0
  6  7  1  0
  6  8  1  0
  8  9  1  0
  4 10  1  0
 11 10  1  0
 11 12  1  0
 12 13  1  0
 13 14  1  0
 14 15  1  0
 15 16  1  0
 16 17  1  0
 18 17  1  0
 18 19  1  0
 20 19  1  0
 20 21  1  0
 21 22  1  0
 23 22  1  1
 23 24  1  0
 24 25  1  0
 25 26  1  0
 27 26  1  0
 27 28  1  0
 28 29  1  0
 30 29  1  0
 30 31  1  0
 31 32  1  0
 32 33  1  0
 33 34  1  0
 34 35  1  0
 35 36  2  0
 35 37  1  0
 38 37  1  0
 38  3  1  0
 38 11  1  0
 33 39  1  0
 40 39  1  0
 40 30  1  0
 40 41  1  0
 41 27  1  0
 41 42  1  0
 42 23  1  0
 28 43  1  0
 43 25  1  0
 43 44  1  0
 44 23  1  0
 20 45  1  0
 45 46  1  0
 46 18  1  0
 46 47  2  3
 15 48  1  0
 48 49  1  0
 49 50  1  0
 49 51  1  0
 51 13  1  0
 51 52  2  3
  1 53  1  0
  1 54  1  0
  1 55  1  0
  3 56  1  1
  4 57  1  1
  5 58  1  0
  5 59  1  0
  6 60  1  1
  7 61  1  0
  8 62  1  0
  8 63  1  0
  9 64  1  0
  9 65  1  0
 11 66  1  1
 12 67  1  0
 12 68  1  0
 13 69  1  6
 15 70  1  6
 16 71  1  0
 16 72  1  0
 17 73  1  0
 17 74  1  0
 18 75  1  1
 20 76  1  6
 21 77  1  0
 21 78  1  0
 22 79  1  0
 22 80  1  0
 24 81  1  0
 24 82  1  0
 25 83  1  6
 27 84  1  6
 28 85  1  6
 30 86  1  1
 31 87  1  0
 31 88  1  0
 32 89  1  0
 32 90  1  0
 33 91  1  6
 34 92  1  0
 34 93  1  0
 37 94  1  0
 37 95  1  0
 38 96  1  6
 40 97  1  6
 41 98  1  6
 43 99  1  1
 45100  1  0
 45101  1  0
 47102  1  0
 47103  1  0
 48104  1  0
 48105  1  0
 49106  1  6
 50107  1  0
 50108  1  0
 50109  1  0
 52110  1  0
 52111  1  0
M  END
> <ID>
HT0780

> <Class>
1.0

> <Clusters>
78

> <Fold>
5

$$$$