
     RDKit          3D

 51 54  0  0  0  0  0  0  0  0999 V2000
    2.6691    0.2581   -1.2786 O   0  0  0  0  0  0  0  0  0  0  0  0
    3.1743    0.1167    0.0264 C   0  0  1  0  0  0  0  0  0  0  0  0
    2.3241   -0.8612    0.8743 C   0  0  0  0  0  0  0  0  0  0  0  0
    0.9919   -0.2631    1.3638 C   0  0  0  0  0  0  0  0  0  0  0  0
   -0.0294   -0.0056    0.2367 C   0  0  2  0  0  0  0  0  0  0  0  0
   -1.3571    0.3313    0.7160 C   0  0  2  0  0  0  0  0  0  0  0  0
   -1.9494   -0.8768    0.1702 N   0  0  0  0  0  0  0  0  0  0  0  0
   -0.6093   -1.2677   -0.3329 C   0  0  0  0  0  0  0  0  0  0  0  0
   -0.1521   -2.2441   -0.9827 O   0  0  0  0  0  0  0  0  0  0  0  0
   -3.2606   -1.4518    0.1445 C   0  0  0  0  0  0  0  0  0  0  0  0
   -3.4919   -2.6581   -0.5336 C   0  0  0  0  0  0  0  0  0  0  0  0
   -4.7749   -3.2138   -0.5629 C   0  0  0  0  0  0  0  0  0  0  0  0
   -5.8330   -2.5690    0.0846 C   0  0  0  0  0  0  0  0  0  0  0  0
   -7.0764   -3.1083    0.0544 F   0  0  0  0  0  0  0  0  0  0  0  0
   -5.6081   -1.3676    0.7630 C   0  0  0  0  0  0  0  0  0  0  0  0
   -4.3263   -0.8098    0.7941 C   0  0  0  0  0  0  0  0  0  0  0  0
   -1.9438    1.5831    0.0889 C   0  0  0  0  0  0  0  0  0  0  0  0
   -2.1858    1.6674   -1.2962 C   0  0  0  0  0  0  0  0  0  0  0  0
   -2.7298    2.8299   -1.8495 C   0  0  0  0  0  0  0  0  0  0  0  0
   -3.0367    3.9215   -1.0320 C   0  0  0  0  0  0  0  0  0  0  0  0
   -3.5782    5.0737   -1.5973 O   0  0  0  0  0  0  0  0  0  0  0  0
   -2.7963    3.8468    0.3461 C   0  0  0  0  0  0  0  0  0  0  0  0
   -2.2526    2.6854    0.9029 C   0  0  0  0  0  0  0  0  0  0  0  0
    4.6257   -0.3214   -0.0251 C   0  0  0  0  0  0  0  0  0  0  0  0
    4.9860   -1.5627   -0.5840 C   0  0  0  0  0  0  0  0  0  0  0  0
    6.3266   -1.9575   -0.6259 C   0  0  0  0  0  0  0  0  0  0  0  0
    7.3203   -1.1208   -0.1120 C   0  0  0  0  0  0  0  0  0  0  0  0
    8.6196   -1.5060   -0.1531 F   0  0  0  0  0  0  0  0  0  0  0  0
    6.9745    0.1124    0.4461 C   0  0  0  0  0  0  0  0  0  0  0  0
    5.6352    0.5120    0.4903 C   0  0  0  0  0  0  0  0  0  0  0  0
    2.5769   -0.6466   -1.6758 H   0  0  0  0  0  0  0  0  0  0  0  0
    3.1205    1.1171    0.5088 H   0  0  0  0  0  0  0  0  0  0  0  0
    2.9067   -1.1359    1.7817 H   0  0  0  0  0  0  0  0  0  0  0  0
    2.1389   -1.8054    0.3199 H   0  0  0  0  0  0  0  0  0  0  0  0
    1.1915    0.6931    1.8948 H   0  0  0  0  0  0  0  0  0  0  0  0
    0.5574   -0.9659    2.1103 H   0  0  0  0  0  0  0  0  0  0  0  0
    0.3502    0.6720   -0.5571 H   0  0  0  0  0  0  0  0  0  0  0  0
   -1.4523    0.3336    1.8268 H   0  0  0  0  0  0  0  0  0  0  0  0
   -2.6832   -3.1668   -1.0410 H   0  0  0  0  0  0  0  0  0  0  0  0
   -4.9479   -4.1440   -1.0887 H   0  0  0  0  0  0  0  0  0  0  0  0
   -6.4262   -0.8676    1.2653 H   0  0  0  0  0  0  0  0  0  0  0  0
   -4.1656    0.1198    1.3245 H   0  0  0  0  0  0  0  0  0  0  0  0
   -1.9547    0.8340   -1.9475 H   0  0  0  0  0  0  0  0  0  0  0  0
   -2.9127    2.8827   -2.9153 H   0  0  0  0  0  0  0  0  0  0  0  0
   -3.8107    5.8819   -1.0318 H   0  0  0  0  0  0  0  0  0  0  0  0
   -3.0299    4.6877    0.9865 H   0  0  0  0  0  0  0  0  0  0  0  0
   -2.0727    2.6469    1.9701 H   0  0  0  0  0  0  0  0  0  0  0  0
    4.2317   -2.2280   -0.9838 H   0  0  0  0  0  0  0  0  0  0  0  0
    6.5939   -2.9140   -1.0564 H   0  0  0  0  0  0  0  0  0  0  0  0
    7.7440    0.7608    0.8451 H   0  0  0  0  0  0  0  0  0  0  0  0
    5.3886    1.4716    0.9273 H   0  0  0  0  0  0  0  0  0  0  0  0
  2  1  1  0
  2  3  1  0
  3  4  1  0
  5  4  1  0
  5  6  1  0
  6  7  1  0
  7  8  1  0
  8  5  1  0
  8  9  2  0
  7 10  1  0
 10 11  2  0
 11 12  1  0
 12 13  2  0
 13 14  1  0
 13 15  1  0
 15 16  2  0
 16 10  1  0
  6 17  1  0
 17 18  2  0
 18 19  1  0
 19 20  2  0
 20 21  1  0
 20 22  1  0
 22 23  2  0
 23 17  1  0
  2 24  1  0
 24 25  2  0
 25 26  1  0
 26 27  2  0
 27 28  1  0
 27 29  1  0
 29 30  2  0
 30 24  1  0
  1 31  1  0
  2 32  1  1
  3 33  1  0
  3 34  1  0
  4 35  1  0
  4 36  1  0
  5 37  1  6
  6 38  1  1
 11 39  1  0
 12 40  1  0
 15 41  1  0
 16 42  1  0
 18 43  1  0
 19 44  1  0
 21 45  1  0
 22 46  1  0
 23 47  1  0
 25 48  1  0
 26 49  1  0
 29 50  1  0
 30 51  1  0
M  END
> <ID>
HT0843

> <Class>
1.0

> <Clusters>
198

> <Fold>
5

$$$$