
     RDKit          3D

 49 52  0  0  0  0  0  0  0  0999 V2000
    7.6961    0.7145   -0.3066 C   0  0  0  0  0  0  0  0  0  0  0  0
    6.2096    0.8181   -0.3524 C   0  0  0  0  0  0  0  0  0  0  0  0
    5.6601    1.3953   -1.3293 O   0  0  0  0  0  0  0  0  0  0  0  0
    5.4514    0.3234    0.7170 O   0  0  0  0  0  0  0  0  0  0  0  0
    4.0651    0.1086    0.6976 C   0  0  0  0  0  0  0  0  0  0  0  0
    3.3624    0.1973    1.8984 C   0  0  0  0  0  0  0  0  0  0  0  0
    1.9824   -0.0052    1.9327 C   0  0  0  0  0  0  0  0  0  0  0  0
    1.2618   -0.2913    0.7540 C   0  0  0  0  0  0  0  0  0  0  0  0
   -0.2429   -0.5610    0.7926 C   0  0  1  0  0  0  0  0  0  0  0  0
   -1.0055    0.2437    1.8921 C   0  0  0  0  0  0  0  0  0  0  0  0
   -2.5424    0.0458    1.8462 C   0  0  0  0  0  0  0  0  0  0  0  0
   -3.1023    0.2991    0.4306 C   0  0  2  0  0  0  0  0  0  0  0  0
   -2.9738    1.8150    0.0692 C   0  0  0  0  0  0  0  0  0  0  0  0
   -4.5579   -0.1616    0.2194 C   0  0  1  0  0  0  0  0  0  0  0  0
   -5.4904    0.8055    0.6298 O   0  0  0  0  0  0  0  0  0  0  0  0
   -4.6554   -0.4406   -1.2979 C   0  0  0  0  0  0  0  0  0  0  0  0
   -3.2129   -0.6080   -1.8092 C   0  0  0  0  0  0  0  0  0  0  0  0
   -2.3735   -0.6407   -0.5386 C   0  0  1  0  0  0  0  0  0  0  0  0
   -0.8656   -0.3368   -0.6182 C   0  0  2  0  0  0  0  0  0  0  0  0
   -0.1477   -1.2480   -1.6204 C   0  0  0  0  0  0  0  0  0  0  0  0
    1.3204   -0.8327   -1.7633 C   0  0  0  0  0  0  0  0  0  0  0  0
    1.9884   -0.4584   -0.4562 C   0  0  0  0  0  0  0  0  0  0  0  0
    3.3755   -0.2379   -0.4743 C   0  0  0  0  0  0  0  0  0  0  0  0
    8.1426    1.7305   -0.3293 H   0  0  0  0  0  0  0  0  0  0  0  0
    8.0565    0.1350   -1.1821 H   0  0  0  0  0  0  0  0  0  0  0  0
    8.0164    0.1999    0.6236 H   0  0  0  0  0  0  0  0  0  0  0  0
    3.8904    0.4298    2.8148 H   0  0  0  0  0  0  0  0  0  0  0  0
    1.4946    0.0627    2.8926 H   0  0  0  0  0  0  0  0  0  0  0  0
   -0.3577   -1.6371    1.0562 H   0  0  0  0  0  0  0  0  0  0  0  0
   -0.6819   -0.0982    2.8968 H   0  0  0  0  0  0  0  0  0  0  0  0
   -0.7532    1.3222    1.8167 H   0  0  0  0  0  0  0  0  0  0  0  0
   -3.0263    0.7306    2.5761 H   0  0  0  0  0  0  0  0  0  0  0  0
   -2.7748   -0.9939    2.1676 H   0  0  0  0  0  0  0  0  0  0  0  0
   -3.3746    2.0342   -0.9419 H   0  0  0  0  0  0  0  0  0  0  0  0
   -3.5452    2.4298    0.7968 H   0  0  0  0  0  0  0  0  0  0  0  0
   -1.9321    2.1842    0.1016 H   0  0  0  0  0  0  0  0  0  0  0  0
   -4.7347   -1.1127    0.7769 H   0  0  0  0  0  0  0  0  0  0  0  0
   -6.3830    0.3739    0.5803 H   0  0  0  0  0  0  0  0  0  0  0  0
   -5.1460    0.4053   -1.8277 H   0  0  0  0  0  0  0  0  0  0  0  0
   -5.2456   -1.3653   -1.4790 H   0  0  0  0  0  0  0  0  0  0  0  0
   -2.9205    0.2511   -2.4515 H   0  0  0  0  0  0  0  0  0  0  0  0
   -3.1024   -1.5510   -2.3878 H   0  0  0  0  0  0  0  0  0  0  0  0
   -2.4627   -1.6876   -0.1537 H   0  0  0  0  0  0  0  0  0  0  0  0
   -0.7056    0.7109   -0.9493 H   0  0  0  0  0  0  0  0  0  0  0  0
   -0.6288   -1.1808   -2.6198 H   0  0  0  0  0  0  0  0  0  0  0  0
   -0.2060   -2.3078   -1.2859 H   0  0  0  0  0  0  0  0  0  0  0  0
    1.8748   -1.6738   -2.2339 H   0  0  0  0  0  0  0  0  0  0  0  0
    1.3848    0.0400   -2.4494 H   0  0  0  0  0  0  0  0  0  0  0  0
    3.9180   -0.3762   -1.4004 H   0  0  0  0  0  0  0  0  0  0  0  0
  1  2  1  0
  2  3  2  0
  2  4  1  0
  4  5  1  0
  5  6  2  0
  6  7  1  0
  7  8  2  0
  8  9  1  0
  9 10  1  0
 10 11  1  0
 11 12  1  0
 12 13  1  6
 12 14  1  0
 14 15  1  0
 14 16  1  0
 16 17  1  0
 18 17  1  0
 18 12  1  0
 18 19  1  0
 19  9  1  0
 19 20  1  0
 20 21  1  0
 21 22  1  0
 22  8  1  0
 22 23  2  0
 23  5  1  0
  1 24  1  0
  1 25  1  0
  1 26  1  0
  6 27  1  0
  7 28  1  0
  9 29  1  1
 10 30  1  0
 10 31  1  0
 11 32  1  0
 11 33  1  0
 13 34  1  0
 13 35  1  0
 13 36  1  0
 14 37  1  1
 15 38  1  0
 16 39  1  0
 16 40  1  0
 17 41  1  0
 17 42  1  0
 18 43  1  1
 19 44  1  6
 20 45  1  0
 20 46  1  0
 21 47  1  0
 21 48  1  0
 23 49  1  0
M  END
> <ID>
HT0791

> <Class>
1.0

> <Clusters>
96

> <Fold>
5

$$$$