
     RDKit          3D

 65 68  0  0  0  0  0  0  0  0999 V2000
    3.8187    1.8695    0.1890 C   0  0  0  0  0  0  0  0  0  0  0  0
    4.0345    0.3368   -0.0347 C   0  0  2  0  0  0  0  0  0  0  0  0
    3.5563   -0.0568   -1.4491 C   0  0  0  0  0  0  0  0  0  0  0  0
    2.0144    0.0497   -1.5807 C   0  0  0  0  0  0  0  0  0  0  0  0
    1.2462   -0.7159   -0.4585 C   0  0  1  0  0  0  0  0  0  0  0  0
    1.7763   -0.3266    0.9540 C   0  0  1  0  0  0  0  0  0  0  0  0
    1.0487   -1.1722    2.0038 C   0  0  0  0  0  0  0  0  0  0  0  0
   -0.4393   -0.8096    2.0353 C   0  0  0  0  0  0  0  0  0  0  0  0
   -1.0544   -0.6198    0.6647 C   0  0  0  0  0  0  0  0  0  0  0  0
   -2.4503   -0.4875    0.5906 C   0  0  0  0  0  0  0  0  0  0  0  0
   -3.0954   -0.3387   -0.6463 C   0  0  0  0  0  0  0  0  0  0  0  0
   -4.4894   -0.2274   -0.7542 O   0  0  0  0  0  0  0  0  0  0  0  0
   -5.3371    0.3104    0.2241 C   0  0  0  0  0  0  0  0  0  0  0  0
   -4.8742    1.0917    1.1002 O   0  0  0  0  0  0  0  0  0  0  0  0
   -6.7438   -0.0126    0.2124 N   0  0  0  0  0  0  0  0  0  0  0  0
   -7.2491   -1.0070   -0.7491 C   0  0  0  0  0  0  0  0  0  0  0  0
   -7.3491   -0.4102   -2.1527 C   0  0  0  0  0  0  0  0  0  0  0  0
   -7.8990   -1.6505   -3.3066 Cl  0  0  0  0  0  0  0  0  0  0  0  0
   -7.6118    0.4750    1.2991 C   0  0  0  0  0  0  0  0  0  0  0  0
   -7.9583    1.9553    1.1176 C   0  0  0  0  0  0  0  0  0  0  0  0
   -9.1310    2.1823   -0.2068 Cl  0  0  0  0  0  0  0  0  0  0  0  0
   -2.3360   -0.3565   -1.8150 C   0  0  0  0  0  0  0  0  0  0  0  0
   -0.9462   -0.4710   -1.7595 C   0  0  0  0  0  0  0  0  0  0  0  0
   -0.2745   -0.5593   -0.5220 C   0  0  0  0  0  0  0  0  0  0  0  0
    3.2994   -0.5536    0.9768 C   0  0  2  0  0  0  0  0  0  0  0  0
    4.0678   -0.3680    2.2774 C   0  0  0  0  0  0  0  0  0  0  0  0
    5.5259   -0.1745    1.8216 C   0  0  0  0  0  0  0  0  0  0  0  0
    5.4995   -0.0365    0.2825 C   0  0  2  0  0  0  0  0  0  0  0  0
    6.4095    0.9691   -0.1328 O   0  0  0  0  0  0  0  0  0  0  0  0
    7.4741    0.3531   -1.3176 P   0  0  0  0  0  0  0  0  0  0  0  0
    6.6947   -0.0714   -2.5420 O   0  0  0  0  0  0  0  0  0  0  0  0
    8.3232   -0.9736   -0.6991 O   0  0  0  0  0  0  0  0  0  0  0  0
    8.5791    1.5565   -1.7562 O   0  0  0  0  0  0  0  0  0  0  0  0
    2.7638    2.1835    0.0796 H   0  0  0  0  0  0  0  0  0  0  0  0
    4.3928    2.4501   -0.5641 H   0  0  0  0  0  0  0  0  0  0  0  0
    4.1615    2.1913    1.1932 H   0  0  0  0  0  0  0  0  0  0  0  0
    4.0355    0.5987   -2.2079 H   0  0  0  0  0  0  0  0  0  0  0  0
    3.8606   -1.1027   -1.6761 H   0  0  0  0  0  0  0  0  0  0  0  0
    1.6988    1.1144   -1.5956 H   0  0  0  0  0  0  0  0  0  0  0  0
    1.7607   -0.3812   -2.5712 H   0  0  0  0  0  0  0  0  0  0  0  0
    1.4492   -1.7986   -0.6236 H   0  0  0  0  0  0  0  0  0  0  0  0
    1.5483    0.7382    1.1721 H   0  0  0  0  0  0  0  0  0  0  0  0
    1.1670   -2.2552    1.7742 H   0  0  0  0  0  0  0  0  0  0  0  0
    1.4744   -0.9886    3.0134 H   0  0  0  0  0  0  0  0  0  0  0  0
   -0.9810   -1.6165    2.5749 H   0  0  0  0  0  0  0  0  0  0  0  0
   -0.5730    0.1324    2.6110 H   0  0  0  0  0  0  0  0  0  0  0  0
   -3.0336   -0.5465    1.5001 H   0  0  0  0  0  0  0  0  0  0  0  0
   -8.2563   -1.3721   -0.4517 H   0  0  0  0  0  0  0  0  0  0  0  0
   -6.5732   -1.8899   -0.7624 H   0  0  0  0  0  0  0  0  0  0  0  0
   -6.3644   -0.0285   -2.4908 H   0  0  0  0  0  0  0  0  0  0  0  0
   -8.0762    0.4260   -2.1613 H   0  0  0  0  0  0  0  0  0  0  0  0
   -7.0956    0.3382    2.2756 H   0  0  0  0  0  0  0  0  0  0  0  0
   -8.5553   -0.1105    1.3597 H   0  0  0  0  0  0  0  0  0  0  0  0
   -7.0484    2.5542    0.9080 H   0  0  0  0  0  0  0  0  0  0  0  0
   -8.4195    2.3403    2.0524 H   0  0  0  0  0  0  0  0  0  0  0  0
   -2.8274   -0.2796   -2.7765 H   0  0  0  0  0  0  0  0  0  0  0  0
   -0.4119   -0.4970   -2.6961 H   0  0  0  0  0  0  0  0  0  0  0  0
    3.4593   -1.6242    0.6929 H   0  0  0  0  0  0  0  0  0  0  0  0
    3.7038    0.5281    2.8254 H   0  0  0  0  0  0  0  0  0  0  0  0
    3.9688   -1.2611    2.9312 H   0  0  0  0  0  0  0  0  0  0  0  0
    6.1496   -1.0451    2.1184 H   0  0  0  0  0  0  0  0  0  0  0  0
    5.9491    0.7371    2.2984 H   0  0  0  0  0  0  0  0  0  0  0  0
    5.7076   -1.0522   -0.1370 H   0  0  0  0  0  0  0  0  0  0  0  0
    8.7198   -0.6440    0.1463 H   0  0  0  0  0  0  0  0  0  0  0  0
    8.1158    2.4104   -1.5601 H   0  0  0  0  0  0  0  0  0  0  0  0
  2  1  1  1
  2  3  1  0
  3  4  1  0
  5  4  1  0
  5  6  1  0
  6  7  1  0
  7  8  1  0
  8  9  1  0
  9 10  2  0
 10 11  1  0
 11 12  1  0
 12 13  1  0
 13 14  2  0
 13 15  1  0
 15 16  1  0
 16 17  1  0
 17 18  1  0
 15 19  1  0
 19 20  1  0
 20 21  1  0
 11 22  2  0
 22 23  1  0
 23 24  2  0
 24  5  1  0
 24  9  1  0
  6 25  1  0
 25  2  1  0
 25 26  1  0
 26 27  1  0
 27 28  1  0
 28  2  1  0
 28 29  1  0
 29 30  1  0
 30 31  2  0
 30 32  1  0
 30 33  1  0
  1 34  1  0
  1 35  1  0
  1 36  1  0
  3 37  1  0
  3 38  1  0
  4 39  1  0
  4 40  1  0
  5 41  1  6
  6 42  1  1
  7 43  1  0
  7 44  1  0
  8 45  1  0
  8 46  1  0
 10 47  1  0
 16 48  1  0
 16 49  1  0
 17 50  1  0
 17 51  1  0
 19 52  1  0
 19 53  1  0
 20 54  1  0
 20 55  1  0
 22 56  1  0
 23 57  1  0
 25 58  1  6
 26 59  1  0
 26 60  1  0
 27 61  1  0
 27 62  1  0
 28 63  1  6
 32 64  1  0
 33 65  1  0
M  END
> <ID>
HT0796

> <Class>
1.0

> <Clusters>
96

> <Fold>
5

$$$$