
     RDKit          3D

 32 33  0  0  0  0  0  0  0  0999 V2000
   -4.0224    0.8708   -1.1687 C   0  0  0  0  0  0  0  0  0  0  0  0
   -3.5877   -0.0252   -0.0036 C   0  0  0  0  0  0  0  0  0  0  0  0
   -3.7187    0.6962    1.3105 C   0  0  0  0  0  0  0  0  0  0  0  0
   -4.4316    0.2066    2.2273 O   0  0  0  0  0  0  0  0  0  0  0  0
   -3.0582    1.9035    1.5221 O   0  0  0  0  0  0  0  0  0  0  0  0
   -2.1765   -0.5492   -0.1939 C   0  0  0  0  0  0  0  0  0  0  0  0
   -1.9432   -1.9354   -0.2311 C   0  0  0  0  0  0  0  0  0  0  0  0
   -0.6502   -2.4316   -0.4115 C   0  0  0  0  0  0  0  0  0  0  0  0
    0.4264   -1.5537   -0.5481 C   0  0  0  0  0  0  0  0  0  0  0  0
    0.2174   -0.1653   -0.4928 C   0  0  0  0  0  0  0  0  0  0  0  0
    1.2706    0.7491   -0.6418 O   0  0  0  0  0  0  0  0  0  0  0  0
    2.5958    0.5370   -0.2338 C   0  0  0  0  0  0  0  0  0  0  0  0
    2.9130   -0.2550    0.8860 C   0  0  0  0  0  0  0  0  0  0  0  0
    4.2465   -0.4276    1.2703 C   0  0  0  0  0  0  0  0  0  0  0  0
    5.2693    0.1959    0.5504 C   0  0  0  0  0  0  0  0  0  0  0  0
    4.9591    0.9992   -0.5504 C   0  0  0  0  0  0  0  0  0  0  0  0
    3.6264    1.1738   -0.9367 C   0  0  0  0  0  0  0  0  0  0  0  0
   -1.0827    0.3282   -0.3329 C   0  0  0  0  0  0  0  0  0  0  0  0
   -3.4086    1.7947   -1.2215 H   0  0  0  0  0  0  0  0  0  0  0  0
   -5.0872    1.1632   -1.0443 H   0  0  0  0  0  0  0  0  0  0  0  0
   -3.9232    0.3200   -2.1285 H   0  0  0  0  0  0  0  0  0  0  0  0
   -4.2944   -0.8858    0.0126 H   0  0  0  0  0  0  0  0  0  0  0  0
   -3.1411    2.3938    2.4045 H   0  0  0  0  0  0  0  0  0  0  0  0
   -2.7625   -2.6357   -0.1264 H   0  0  0  0  0  0  0  0  0  0  0  0
   -0.4831   -3.5002   -0.4519 H   0  0  0  0  0  0  0  0  0  0  0  0
    1.4165   -1.9569   -0.7154 H   0  0  0  0  0  0  0  0  0  0  0  0
    2.1320   -0.7213    1.4719 H   0  0  0  0  0  0  0  0  0  0  0  0
    4.4864   -1.0388    2.1308 H   0  0  0  0  0  0  0  0  0  0  0  0
    6.3008    0.0627    0.8497 H   0  0  0  0  0  0  0  0  0  0  0  0
    5.7508    1.4881   -1.1031 H   0  0  0  0  0  0  0  0  0  0  0  0
    3.3935    1.7995   -1.7889 H   0  0  0  0  0  0  0  0  0  0  0  0
   -1.2332    1.3995   -0.3107 H   0  0  0  0  0  0  0  0  0  0  0  0
  1  2  1  0
  2  3  1  0
  3  4  2  0
  3  5  1  0
  2  6  1  0
  6  7  2  0
  7  8  1  0
  8  9  2  0
  9 10  1  0
 10 11  1  0
 11 12  1  0
 12 13  2  0
 13 14  1  0
 14 15  2  0
 15 16  1  0
 16 17  2  0
 17 12  1  0
 10 18  2  0
 18  6  1  0
  1 19  1  0
  1 20  1  0
  1 21  1  0
  2 22  1  0
  5 23  1  0
  7 24  1  0
  8 25  1  0
  9 26  1  0
 13 27  1  0
 14 28  1  0
 15 29  1  0
 16 30  1  0
 17 31  1  0
 18 32  1  0
M  END
> <ID>
HT0862

> <Class>
1.0

> <Clusters>
142

> <Fold>
5

$$$$