
     RDKit          3D

 58 61  0  0  0  0  0  0  0  0999 V2000
    5.5115    3.4367    1.4996 C   0  0  0  0  0  0  0  0  0  0  0  0
    4.2979    2.5467    1.7529 C   0  0  0  0  0  0  0  0  0  0  0  0
    4.1278    1.5116    0.6352 C   0  0  0  0  0  0  0  0  0  0  0  0
    2.9147    0.6089    0.9018 C   0  0  0  0  0  0  0  0  0  0  0  0
    2.6986   -0.4189   -0.1727 C   0  0  0  0  0  0  0  0  0  0  0  0
    3.4763   -0.4936   -1.1644 O   0  0  0  0  0  0  0  0  0  0  0  0
    1.6133   -1.2954   -0.0501 O   0  0  0  0  0  0  0  0  0  0  0  0
    1.3303   -2.3525   -0.9716 C   0  0  1  0  0  0  0  0  0  0  0  0
    0.8725   -3.5745   -0.1788 C   0  0  0  0  0  0  0  0  0  0  0  0
   -0.6554   -3.6042   -0.2321 C   0  0  0  0  0  0  0  0  0  0  0  0
   -1.1200   -2.4109   -1.0963 C   0  0  1  0  0  0  0  0  0  0  0  0
   -1.6932   -1.2658   -0.2074 C   0  0  2  0  0  0  0  0  0  0  0  0
   -3.0612   -1.6444    0.3899 C   0  0  0  0  0  0  0  0  0  0  0  0
   -3.4672   -0.6220    1.4501 C   0  0  0  0  0  0  0  0  0  0  0  0
   -3.3215    0.8005    0.9686 C   0  0  0  0  0  0  0  0  0  0  0  0
   -3.9556    1.8143    1.7049 C   0  0  0  0  0  0  0  0  0  0  0  0
   -3.9281    3.1377    1.2646 C   0  0  0  0  0  0  0  0  0  0  0  0
   -4.5685    4.1251    2.0106 O   0  0  0  0  0  0  0  0  0  0  0  0
   -3.2733    3.4568    0.0732 C   0  0  0  0  0  0  0  0  0  0  0  0
   -2.6213    2.4632   -0.6590 C   0  0  0  0  0  0  0  0  0  0  0  0
   -2.5758    1.1312   -0.1944 C   0  0  0  0  0  0  0  0  0  0  0  0
   -1.8549    0.0498   -1.0069 C   0  0  1  0  0  0  0  0  0  0  0  0
   -0.4569    0.4922   -1.4689 C   0  0  0  0  0  0  0  0  0  0  0  0
    0.1489   -0.5412   -2.4232 C   0  0  0  0  0  0  0  0  0  0  0  0
    0.1451   -2.0137   -1.9098 C   0  0  1  0  0  0  0  0  0  0  0  0
    0.2462   -2.9287   -3.1629 C   0  0  0  0  0  0  0  0  0  0  0  0
    5.3950    3.9840    0.5400 H   0  0  0  0  0  0  0  0  0  0  0  0
    6.4382    2.8245    1.4631 H   0  0  0  0  0  0  0  0  0  0  0  0
    5.6074    4.1771    2.3218 H   0  0  0  0  0  0  0  0  0  0  0  0
    4.4299    2.0287    2.7279 H   0  0  0  0  0  0  0  0  0  0  0  0
    3.3898    3.1857    1.8135 H   0  0  0  0  0  0  0  0  0  0  0  0
    3.9880    2.0396   -0.3343 H   0  0  0  0  0  0  0  0  0  0  0  0
    5.0451    0.8852    0.5717 H   0  0  0  0  0  0  0  0  0  0  0  0
    3.0547    0.0781    1.8679 H   0  0  0  0  0  0  0  0  0  0  0  0
    2.0001    1.2352    0.9795 H   0  0  0  0  0  0  0  0  0  0  0  0
    2.2492   -2.6160   -1.5439 H   0  0  0  0  0  0  0  0  0  0  0  0
    1.2335   -3.5324    0.8731 H   0  0  0  0  0  0  0  0  0  0  0  0
    1.2812   -4.5003   -0.6422 H   0  0  0  0  0  0  0  0  0  0  0  0
   -0.9928   -4.5552   -0.7005 H   0  0  0  0  0  0  0  0  0  0  0  0
   -1.0546   -3.5830    0.8029 H   0  0  0  0  0  0  0  0  0  0  0  0
   -1.9311   -2.7407   -1.7857 H   0  0  0  0  0  0  0  0  0  0  0  0
   -0.9837   -1.0874    0.6341 H   0  0  0  0  0  0  0  0  0  0  0  0
   -3.8318   -1.6757   -0.4128 H   0  0  0  0  0  0  0  0  0  0  0  0
   -3.0450   -2.6456    0.8656 H   0  0  0  0  0  0  0  0  0  0  0  0
   -4.5272   -0.8151    1.7258 H   0  0  0  0  0  0  0  0  0  0  0  0
   -2.8458   -0.7587    2.3619 H   0  0  0  0  0  0  0  0  0  0  0  0
   -4.4941    1.5707    2.6131 H   0  0  0  0  0  0  0  0  0  0  0  0
   -4.5704    5.0945    1.7153 H   0  0  0  0  0  0  0  0  0  0  0  0
   -3.2760    4.4756   -0.2928 H   0  0  0  0  0  0  0  0  0  0  0  0
   -2.1692    2.7473   -1.5972 H   0  0  0  0  0  0  0  0  0  0  0  0
   -2.4805   -0.1490   -1.9066 H   0  0  0  0  0  0  0  0  0  0  0  0
   -0.4987    1.4469   -2.0287 H   0  0  0  0  0  0  0  0  0  0  0  0
    0.1953    0.6685   -0.5919 H   0  0  0  0  0  0  0  0  0  0  0  0
    1.1851   -0.2354   -2.6829 H   0  0  0  0  0  0  0  0  0  0  0  0
   -0.4366   -0.4762   -3.3681 H   0  0  0  0  0  0  0  0  0  0  0  0
    1.1621   -2.6905   -3.7462 H   0  0  0  0  0  0  0  0  0  0  0  0
    0.2854   -4.0038   -2.8873 H   0  0  0  0  0  0  0  0  0  0  0  0
   -0.6328   -2.7856   -3.8281 H   0  0  0  0  0  0  0  0  0  0  0  0
  1  2  1  0
  2  3  1  0
  3  4  1  0
  4  5  1  0
  5  6  2  0
  5  7  1  0
  8  7  1  0
  8  9  1  0
  9 10  1  0
 11 10  1  0
 11 12  1  0
 12 13  1  0
 13 14  1  0
 14 15  1  0
 15 16  2  0
 16 17  1  0
 17 18  1  0
 17 19  2  0
 19 20  1  0
 20 21  2  0
 21 15  1  0
 21 22  1  0
 22 12  1  0
 22 23  1  0
 23 24  1  0
 24 25  1  0
 25  8  1  0
 25 11  1  0
 25 26  1  6
  1 27  1  0
  1 28  1  0
  1 29  1  0
  2 30  1  0
  2 31  1  0
  3 32  1  0
  3 33  1  0
  4 34  1  0
  4 35  1  0
  8 36  1  6
  9 37  1  0
  9 38  1  0
 10 39  1  0
 10 40  1  0
 11 41  1  6
 12 42  1  1
 13 43  1  0
 13 44  1  0
 14 45  1  0
 14 46  1  0
 16 47  1  0
 18 48  1  0
 19 49  1  0
 20 50  1  0
 22 51  1  6
 23 52  1  0
 23 53  1  0
 24 54  1  0
 24 55  1  0
 26 56  1  0
 26 57  1  0
 26 58  1  0
M  END
> <ID>
HT0793

> <Class>
1.0

> <Clusters>
96

> <Fold>
5

$$$$