
     RDKit          3D

 67 68  0  0  0  0  0  0  0  0999 V2000
   -1.9620   -2.4009   -2.7506 C   0  0  0  0  0  0  0  0  0  0  0  0
   -2.3215   -2.1550   -1.2690 C   0  0  0  0  0  0  0  0  0  0  0  0
   -3.2797   -3.2912   -0.8410 C   0  0  0  0  0  0  0  0  0  0  0  0
   -2.8994   -0.7811   -1.0814 N   0  0  0  0  0  0  0  0  0  0  0  0
   -1.9525    0.3348   -1.3728 C   0  0  0  0  0  0  0  0  0  0  0  0
   -0.9165    0.6064   -0.2616 C   0  0  0  0  0  0  0  0  0  0  0  0
    0.2766    1.4651   -0.7578 C   0  0  2  0  0  0  0  0  0  0  0  0
    1.2334    0.8023   -1.7421 C   0  0  0  0  0  0  0  0  0  0  0  0
    1.3316   -0.5956   -1.9033 C   0  0  0  0  0  0  0  0  0  0  0  0
    2.2514   -1.1444   -2.8001 C   0  0  0  0  0  0  0  0  0  0  0  0
    3.0861   -0.3104   -3.5488 C   0  0  0  0  0  0  0  0  0  0  0  0
    3.0035    1.0761   -3.4003 C   0  0  0  0  0  0  0  0  0  0  0  0
    2.0857    1.6289   -2.5028 C   0  0  0  0  0  0  0  0  0  0  0  0
    1.0607    2.0373    0.4157 C   0  0  0  0  0  0  0  0  0  0  0  0
    1.1317    3.4358    0.5694 C   0  0  0  0  0  0  0  0  0  0  0  0
    1.8641    4.0107    1.6168 C   0  0  0  0  0  0  0  0  0  0  0  0
    1.9013    5.5047    1.7862 C   0  0  0  0  0  0  0  0  0  0  0  0
    0.8275    5.9251    2.5826 O   0  0  0  0  0  0  0  0  0  0  0  0
    2.5143    3.1819    2.5382 C   0  0  0  0  0  0  0  0  0  0  0  0
    2.4493    1.7955    2.4055 C   0  0  0  0  0  0  0  0  0  0  0  0
    1.7198    1.2085    1.3561 C   0  0  0  0  0  0  0  0  0  0  0  0
    1.6685   -0.1879    1.2267 O   0  0  0  0  0  0  0  0  0  0  0  0
    1.5642   -1.0676    2.3151 C   0  0  0  0  0  0  0  0  0  0  0  0
    1.1479   -0.6554    3.4327 O   0  0  0  0  0  0  0  0  0  0  0  0
    1.8861   -2.5258    2.1445 C   0  0  0  0  0  0  0  0  0  0  0  0
    0.8005   -3.2265    1.3220 C   0  0  0  0  0  0  0  0  0  0  0  0
    3.2658   -2.7009    1.4992 C   0  0  0  0  0  0  0  0  0  0  0  0
   -3.8181   -0.5784    0.0856 C   0  0  0  0  0  0  0  0  0  0  0  0
   -3.1584   -0.8179    1.4633 C   0  0  0  0  0  0  0  0  0  0  0  0
   -4.5360    0.7813    0.0493 C   0  0  0  0  0  0  0  0  0  0  0  0
   -1.0766   -1.8204   -3.0632 H   0  0  0  0  0  0  0  0  0  0  0  0
   -2.8229   -2.1384   -3.4017 H   0  0  0  0  0  0  0  0  0  0  0  0
   -1.6952   -3.4645   -2.9262 H   0  0  0  0  0  0  0  0  0  0  0  0
   -1.3958   -2.2649   -0.6679 H   0  0  0  0  0  0  0  0  0  0  0  0
   -2.8355   -4.2844   -1.0710 H   0  0  0  0  0  0  0  0  0  0  0  0
   -4.2474   -3.2088   -1.3810 H   0  0  0  0  0  0  0  0  0  0  0  0
   -3.4612   -3.2857    0.2524 H   0  0  0  0  0  0  0  0  0  0  0  0
   -2.5187    1.2684   -1.5730 H   0  0  0  0  0  0  0  0  0  0  0  0
   -1.4326    0.1579   -2.3307 H   0  0  0  0  0  0  0  0  0  0  0  0
   -0.5739   -0.3341    0.2055 H   0  0  0  0  0  0  0  0  0  0  0  0
   -1.4224    1.1953    0.5294 H   0  0  0  0  0  0  0  0  0  0  0  0
   -0.1917    2.3095   -1.3142 H   0  0  0  0  0  0  0  0  0  0  0  0
    0.7054   -1.2717   -1.3488 H   0  0  0  0  0  0  0  0  0  0  0  0
    2.3139   -2.2195   -2.9169 H   0  0  0  0  0  0  0  0  0  0  0  0
    3.7969   -0.7398   -4.2428 H   0  0  0  0  0  0  0  0  0  0  0  0
    3.6528    1.7232   -3.9787 H   0  0  0  0  0  0  0  0  0  0  0  0
    2.0423    2.7066   -2.3943 H   0  0  0  0  0  0  0  0  0  0  0  0
    0.6168    4.0839   -0.1300 H   0  0  0  0  0  0  0  0  0  0  0  0
    2.8694    5.8235    2.2355 H   0  0  0  0  0  0  0  0  0  0  0  0
    1.8259    6.0018    0.7952 H   0  0  0  0  0  0  0  0  0  0  0  0
    1.0621    5.6952    3.5199 H   0  0  0  0  0  0  0  0  0  0  0  0
    3.0775    3.6090    3.3584 H   0  0  0  0  0  0  0  0  0  0  0  0
    2.9876    1.1779    3.1128 H   0  0  0  0  0  0  0  0  0  0  0  0
    1.9167   -3.0030    3.1513 H   0  0  0  0  0  0  0  0  0  0  0  0
    0.8053   -2.8647    0.2738 H   0  0  0  0  0  0  0  0  0  0  0  0
    0.9784   -4.3227    1.3169 H   0  0  0  0  0  0  0  0  0  0  0  0
   -0.2021   -3.0414    1.7646 H   0  0  0  0  0  0  0  0  0  0  0  0
    3.2818   -2.2660    0.4735 H   0  0  0  0  0  0  0  0  0  0  0  0
    4.0423   -2.1953    2.1176 H   0  0  0  0  0  0  0  0  0  0  0  0
    3.5208   -3.7807    1.4320 H   0  0  0  0  0  0  0  0  0  0  0  0
   -4.6500   -1.3076   -0.0086 H   0  0  0  0  0  0  0  0  0  0  0  0
   -2.7437    0.1112    1.9026 H   0  0  0  0  0  0  0  0  0  0  0  0
   -3.9239   -1.1904    2.1765 H   0  0  0  0  0  0  0  0  0  0  0  0
   -2.3505   -1.5752    1.4129 H   0  0  0  0  0  0  0  0  0  0  0  0
   -4.9814    0.9490   -0.9530 H   0  0  0  0  0  0  0  0  0  0  0  0
   -5.3511    0.7971    0.8031 H   0  0  0  0  0  0  0  0  0  0  0  0
   -3.8453    1.6147    0.2908 H   0  0  0  0  0  0  0  0  0  0  0  0
  1  2  1  0
  2  3  1  0
  2  4  1  0
  4  5  1  0
  5  6  1  0
  7  6  1  0
  7  8  1  0
  8  9  2  0
  9 10  1  0
 10 11  2  0
 11 12  1  0
 12 13  2  0
 13  8  1  0
  7 14  1  0
 14 15  2  0
 15 16  1  0
 16 17  1  0
 17 18  1  0
 16 19  2  0
 19 20  1  0
 20 21  2  0
 21 14  1  0
 21 22  1  0
 22 23  1  0
 23 24  2  0
 23 25  1  0
 25 26  1  0
 25 27  1  0
  4 28  1  0
 28 29  1  0
 28 30  1  0
  1 31  1  0
  1 32  1  0
  1 33  1  0
  2 34  1  0
  3 35  1  0
  3 36  1  0
  3 37  1  0
  5 38  1  0
  5 39  1  0
  6 40  1  0
  6 41  1  0
  7 42  1  6
  9 43  1  0
 10 44  1  0
 11 45  1  0
 12 46  1  0
 13 47  1  0
 15 48  1  0
 17 49  1  0
 17 50  1  0
 18 51  1  0
 19 52  1  0
 20 53  1  0
 25 54  1  0
 26 55  1  0
 26 56  1  0
 26 57  1  0
 27 58  1  0
 27 59  1  0
 27 60  1  0
 28 61  1  0
 29 62  1  0
 29 63  1  0
 29 64  1  0
 30 65  1  0
 30 66  1  0
 30 67  1  0
M  END
> <ID>
HT0870

> <Class>
1.0

> <Clusters>
0

> <Fold>
5

$$$$