
     RDKit          3D

 42 45  0  0  0  0  0  0  0  0999 V2000
   -2.8855   -0.8560    0.2013 C   0  0  0  0  0  0  0  0  0  0  0  0
   -2.4328    0.4778   -0.4564 C   0  0  2  0  0  0  0  0  0  0  0  0
   -1.8825    0.2316   -1.8739 C   0  0  0  0  0  0  0  0  0  0  0  0
   -0.5307   -0.5317   -1.8190 C   0  0  0  0  0  0  0  0  0  0  0  0
    0.5151    0.0999   -0.8410 C   0  0  1  0  0  0  0  0  0  0  0  0
   -0.1068    0.4207    0.5535 C   0  0  1  0  0  0  0  0  0  0  0  0
    0.9370    1.1553    1.4007 C   0  0  0  0  0  0  0  0  0  0  0  0
    2.1249    0.2334    1.6983 C   0  0  0  0  0  0  0  0  0  0  0  0
    2.5555   -0.6219    0.5241 C   0  0  0  0  0  0  0  0  0  0  0  0
    3.7393   -1.3653    0.6596 C   0  0  0  0  0  0  0  0  0  0  0  0
    4.2014   -2.1696   -0.3820 C   0  0  0  0  0  0  0  0  0  0  0  0
    5.3812   -2.8929   -0.2216 O   0  0  0  0  0  0  0  0  0  0  0  0
    3.4812   -2.2375   -1.5762 C   0  0  0  0  0  0  0  0  0  0  0  0
    2.2964   -1.5153   -1.7260 C   0  0  0  0  0  0  0  0  0  0  0  0
    1.7926   -0.7221   -0.6723 C   0  0  0  0  0  0  0  0  0  0  0  0
   -1.3707    1.2646    0.3235 C   0  0  2  0  0  0  0  0  0  0  0  0
   -2.1202    1.8966    1.4977 C   0  0  0  0  0  0  0  0  0  0  0  0
   -3.4716    2.2953    0.8775 C   0  0  0  0  0  0  0  0  0  0  0  0
   -3.5775    1.4284   -0.3410 C   0  0  0  0  0  0  0  0  0  0  0  0
   -4.5223    1.4608   -1.1144 O   0  0  0  0  0  0  0  0  0  0  0  0
   -2.0890   -1.6238    0.2174 H   0  0  0  0  0  0  0  0  0  0  0  0
   -3.2242   -0.7014    1.2473 H   0  0  0  0  0  0  0  0  0  0  0  0
   -3.7384   -1.2843   -0.3683 H   0  0  0  0  0  0  0  0  0  0  0  0
   -1.7302    1.2025   -2.3962 H   0  0  0  0  0  0  0  0  0  0  0  0
   -2.6139   -0.3539   -2.4725 H   0  0  0  0  0  0  0  0  0  0  0  0
   -0.1256   -0.5191   -2.8523 H   0  0  0  0  0  0  0  0  0  0  0  0
   -0.7034   -1.5948   -1.5500 H   0  0  0  0  0  0  0  0  0  0  0  0
    0.8311    1.0604   -1.3081 H   0  0  0  0  0  0  0  0  0  0  0  0
   -0.3687   -0.5183    1.0864 H   0  0  0  0  0  0  0  0  0  0  0  0
    1.2928    2.0652    0.8681 H   0  0  0  0  0  0  0  0  0  0  0  0
    0.4930    1.4781    2.3669 H   0  0  0  0  0  0  0  0  0  0  0  0
    1.8572   -0.4414    2.5406 H   0  0  0  0  0  0  0  0  0  0  0  0
    2.9794    0.8633    2.0289 H   0  0  0  0  0  0  0  0  0  0  0  0
    4.3109   -1.3127    1.5788 H   0  0  0  0  0  0  0  0  0  0  0  0
    5.7444   -3.4847   -0.9598 H   0  0  0  0  0  0  0  0  0  0  0  0
    3.8416   -2.8483   -2.3943 H   0  0  0  0  0  0  0  0  0  0  0  0
    1.7872   -1.5859   -2.6748 H   0  0  0  0  0  0  0  0  0  0  0  0
   -1.0478    2.1389   -0.2972 H   0  0  0  0  0  0  0  0  0  0  0  0
   -2.2627    1.1586    2.3166 H   0  0  0  0  0  0  0  0  0  0  0  0
   -1.5850    2.7875    1.8921 H   0  0  0  0  0  0  0  0  0  0  0  0
   -3.4632    3.3648    0.5756 H   0  0  0  0  0  0  0  0  0  0  0  0
   -4.3093    2.0972    1.5796 H   0  0  0  0  0  0  0  0  0  0  0  0
  2  1  1  1
  2  3  1  0
  3  4  1  0
  5  4  1  0
  5  6  1  0
  6  7  1  0
  7  8  1  0
  8  9  1  0
  9 10  2  0
 10 11  1  0
 11 12  1  0
 11 13  2  0
 13 14  1  0
 14 15  2  0
 15  5  1  0
 15  9  1  0
  6 16  1  0
 16  2  1  0
 16 17  1  0
 17 18  1  0
 18 19  1  0
 19  2  1  0
 19 20  2  0
  1 21  1  0
  1 22  1  0
  1 23  1  0
  3 24  1  0
  3 25  1  0
  4 26  1  0
  4 27  1  0
  5 28  1  6
  6 29  1  1
  7 30  1  0
  7 31  1  0
  8 32  1  0
  8 33  1  0
 10 34  1  0
 12 35  1  0
 13 36  1  0
 14 37  1  0
 16 38  1  6
 17 39  1  0
 17 40  1  0
 18 41  1  0
 18 42  1  0
M  END
> <ID>
HT0798

> <Class>
1.0

> <Clusters>
96

> <Fold>
5

$$$$