
     RDKit          3D

 74 80  0  0  0  0  0  0  0  0999 V2000
   -7.0155    3.5781    0.3672 C   0  0  0  0  0  0  0  0  0  0  0  0
   -7.0406    2.2813    0.9528 O   0  0  0  0  0  0  0  0  0  0  0  0
   -5.9819    1.3597    0.9009 C   0  0  0  0  0  0  0  0  0  0  0  0
   -4.7731    1.6526    0.2442 C   0  0  0  0  0  0  0  0  0  0  0  0
   -3.7242    0.7206    0.2139 C   0  0  0  0  0  0  0  0  0  0  0  0
   -3.9058   -0.5273    0.8382 C   0  0  0  0  0  0  0  0  0  0  0  0
   -5.1071   -0.8341    1.4998 C   0  0  0  0  0  0  0  0  0  0  0  0
   -5.3091   -2.0653    2.1449 O   0  0  0  0  0  0  0  0  0  0  0  0
   -4.3433   -3.1098    2.2127 C   0  0  0  0  0  0  0  0  0  0  0  0
   -6.1407    0.1110    1.5278 C   0  0  0  0  0  0  0  0  0  0  0  0
   -7.3279   -0.2089    2.1874 O   0  0  0  0  0  0  0  0  0  0  0  0
   -2.4134    1.0953   -0.4705 C   0  0  1  0  0  0  0  0  0  0  0  0
   -1.3928    1.7529    0.4801 C   0  0  2  0  0  0  0  0  0  0  0  0
   -0.6923    0.6997    1.3340 C   0  0  2  0  0  0  0  0  0  0  0  0
   -0.1397    1.4825    2.5358 C   0  0  0  0  0  0  0  0  0  0  0  0
   -1.0407    2.5787    2.6664 O   0  0  0  0  0  0  0  0  0  0  0  0
   -1.8155    2.7149    1.5251 C   0  0  0  0  0  0  0  0  0  0  0  0
   -2.6575    3.6368    1.3661 O   0  0  0  0  0  0  0  0  0  0  0  0
    0.2659   -0.1176    0.4635 C   0  0  2  0  0  0  0  0  0  0  0  0
    1.2814    0.7396   -0.0352 O   0  0  0  0  0  0  0  0  0  0  0  0
    2.5261    0.0826   -0.2006 C   0  0  2  0  0  0  0  0  0  0  0  0
    3.3663    0.4280    0.8928 O   0  0  0  0  0  0  0  0  0  0  0  0
    4.6157   -0.2279    0.7664 C   0  0  2  0  0  0  0  0  0  0  0  0
    5.4954    0.0326    1.9892 C   0  0  0  0  0  0  0  0  0  0  0  0
    6.7802   -0.5299    1.7955 O   0  0  0  0  0  0  0  0  0  0  0  0
    7.3852    0.0346    0.6411 C   0  0  1  0  0  0  0  0  0  0  0  0
    8.7918   -0.5340    0.5017 C   0  0  0  0  0  0  0  0  0  0  0  0
    6.6505   -0.2944   -0.5293 O   0  0  0  0  0  0  0  0  0  0  0  0
    5.3724    0.3059   -0.4576 C   0  0  1  0  0  0  0  0  0  0  0  0
    4.5562   -0.0066   -1.7154 C   0  0  2  0  0  0  0  0  0  0  0  0
    5.1782    0.5838   -2.8292 O   0  0  0  0  0  0  0  0  0  0  0  0
    3.1340    0.5633   -1.5380 C   0  0  1  0  0  0  0  0  0  0  0  0
    2.3112    0.1412   -2.5943 O   0  0  0  0  0  0  0  0  0  0  0  0
   -0.5344   -0.7043   -0.7049 C   0  0  0  0  0  0  0  0  0  0  0  0
   -0.0541   -1.8708   -1.3427 C   0  0  0  0  0  0  0  0  0  0  0  0
   -0.7559   -2.3689   -2.4309 C   0  0  0  0  0  0  0  0  0  0  0  0
   -0.4606   -3.4733   -3.2049 O   0  0  0  0  0  0  0  0  0  0  0  0
   -1.4712   -3.5892   -4.2148 C   0  0  0  0  0  0  0  0  0  0  0  0
   -2.3643   -2.4932   -3.9755 O   0  0  0  0  0  0  0  0  0  0  0  0
   -1.8890   -1.7866   -2.8879 C   0  0  0  0  0  0  0  0  0  0  0  0
   -2.4318   -0.6586   -2.2881 C   0  0  0  0  0  0  0  0  0  0  0  0
   -1.7659   -0.1024   -1.1729 C   0  0  0  0  0  0  0  0  0  0  0  0
   -7.9803    4.0876    0.5714 H   0  0  0  0  0  0  0  0  0  0  0  0
   -6.8779    3.4972   -0.7325 H   0  0  0  0  0  0  0  0  0  0  0  0
   -6.1944    4.1808    0.8118 H   0  0  0  0  0  0  0  0  0  0  0  0
   -4.6361    2.6103   -0.2407 H   0  0  0  0  0  0  0  0  0  0  0  0
   -3.1127   -1.2595    0.8058 H   0  0  0  0  0  0  0  0  0  0  0  0
   -4.0955   -3.4692    1.1900 H   0  0  0  0  0  0  0  0  0  0  0  0
   -4.7649   -3.9574    2.7928 H   0  0  0  0  0  0  0  0  0  0  0  0
   -3.4261   -2.7489    2.7242 H   0  0  0  0  0  0  0  0  0  0  0  0
   -8.1068    0.4378    2.2453 H   0  0  0  0  0  0  0  0  0  0  0  0
   -2.6352    1.8495   -1.2605 H   0  0  0  0  0  0  0  0  0  0  0  0
   -0.6478    2.2960   -0.1483 H   0  0  0  0  0  0  0  0  0  0  0  0
   -1.4420   -0.0022    1.7611 H   0  0  0  0  0  0  0  0  0  0  0  0
    0.8868    1.8615    2.3464 H   0  0  0  0  0  0  0  0  0  0  0  0
   -0.1535    0.8590    3.4575 H   0  0  0  0  0  0  0  0  0  0  0  0
    0.6657   -0.9335    1.1125 H   0  0  0  0  0  0  0  0  0  0  0  0
    2.4223   -1.0266   -0.2573 H   0  0  0  0  0  0  0  0  0  0  0  0
    4.4805   -1.3321    0.6872 H   0  0  0  0  0  0  0  0  0  0  0  0
    5.0292   -0.4477    2.8759 H   0  0  0  0  0  0  0  0  0  0  0  0
    5.5712    1.1240    2.2006 H   0  0  0  0  0  0  0  0  0  0  0  0
    7.4940    1.1410    0.7500 H   0  0  0  0  0  0  0  0  0  0  0  0
    9.2875   -0.0959   -0.3912 H   0  0  0  0  0  0  0  0  0  0  0  0
    9.3939   -0.2870    1.4046 H   0  0  0  0  0  0  0  0  0  0  0  0
    8.7478   -1.6389    0.3856 H   0  0  0  0  0  0  0  0  0  0  0  0
    5.4749    1.4179   -0.3885 H   0  0  0  0  0  0  0  0  0  0  0  0
    4.5036   -1.1143   -1.8455 H   0  0  0  0  0  0  0  0  0  0  0  0
    4.8627    0.0891   -3.6295 H   0  0  0  0  0  0  0  0  0  0  0  0
    3.1860    1.6774   -1.5116 H   0  0  0  0  0  0  0  0  0  0  0  0
    2.4486    0.7804   -3.3427 H   0  0  0  0  0  0  0  0  0  0  0  0
    0.8337   -2.3846   -1.0043 H   0  0  0  0  0  0  0  0  0  0  0  0
   -1.0164   -3.4998   -5.2238 H   0  0  0  0  0  0  0  0  0  0  0  0
   -2.0100   -4.5546   -4.1090 H   0  0  0  0  0  0  0  0  0  0  0  0
   -3.3512   -0.2297   -2.6647 H   0  0  0  0  0  0  0  0  0  0  0  0
  1  2  1  0
  2  3  1  0
  3  4  2  0
  4  5  1  0
  5  6  2  0
  6  7  1  0
  7  8  1  0
  8  9  1  0
  7 10  2  0
 10  3  1  0
 10 11  1  0
 12  5  1  0
 12 13  1  0
 13 14  1  0
 14 15  1  0
 15 16  1  0
 16 17  1  0
 13 17  1  0
 17 18  2  0
 14 19  1  0
 19 20  1  0
 21 20  1  0
 21 22  1  0
 22 23  1  0
 23 24  1  0
 24 25  1  0
 25 26  1  0
 26 27  1  0
 26 28  1  0
 29 28  1  0
 29 23  1  0
 29 30  1  0
 30 31  1  0
 30 32  1  0
 32 21  1  0
 32 33  1  0
 19 34  1  0
 34 35  2  0
 35 36  1  0
 36 37  1  0
 37 38  1  0
 38 39  1  0
 39 40  1  0
 40 36  2  0
 40 41  1  0
 41 42  2  0
 42 12  1  0
 42 34  1  0
  1 43  1  0
  1 44  1  0
  1 45  1  0
  4 46  1  0
  6 47  1  0
  9 48  1  0
  9 49  1  0
  9 50  1  0
 11 51  1  0
 12 52  1  6
 13 53  1  6
 14 54  1  1
 15 55  1  0
 15 56  1  0
 19 57  1  1
 21 58  1  6
 23 59  1  6
 24 60  1  0
 24 61  1  0
 26 62  1  1
 27 63  1  0
 27 64  1  0
 27 65  1  0
 29 66  1  1
 30 67  1  6
 31 68  1  0
 32 69  1  1
 33 70  1  0
 35 71  1  0
 38 72  1  0
 38 73  1  0
 41 74  1  0
M  END
> <ID>
HT0831

> <Class>
1.0

> <Clusters>
99

> <Fold>
5

$$$$