
     RDKit          3D

 44 47  0  0  0  0  0  0  0  0999 V2000
   -2.2696   -0.8831   -1.4426 C   0  0  0  0  0  0  0  0  0  0  0  0
   -2.1952    0.3982   -0.5495 C   0  0  2  0  0  0  0  0  0  0  0  0
   -1.4431    1.5251   -1.2920 C   0  0  0  0  0  0  0  0  0  0  0  0
    0.0496    1.1637   -1.4825 C   0  0  0  0  0  0  0  0  0  0  0  0
    0.7569    0.7565   -0.1549 C   0  0  1  0  0  0  0  0  0  0  0  0
   -0.0454   -0.3114    0.6545 C   0  0  1  0  0  0  0  0  0  0  0  0
    0.6061   -0.5930    2.0428 C   0  0  0  0  0  0  0  0  0  0  0  0
    2.1028   -0.2242    2.1427 C   0  0  0  0  0  0  0  0  0  0  0  0
    2.8098   -0.2954    0.8133 C   0  0  0  0  0  0  0  0  0  0  0  0
    4.0943   -0.8508    0.7146 C   0  0  0  0  0  0  0  0  0  0  0  0
    4.7632   -0.8656   -0.5116 C   0  0  0  0  0  0  0  0  0  0  0  0
    6.0390   -1.4194   -0.5921 O   0  0  0  0  0  0  0  0  0  0  0  0
    4.1495   -0.3207   -1.6453 C   0  0  0  0  0  0  0  0  0  0  0  0
    2.8677    0.2293   -1.5585 C   0  0  0  0  0  0  0  0  0  0  0  0
    2.1792    0.2409   -0.3276 C   0  0  0  0  0  0  0  0  0  0  0  0
   -1.5004    0.1793    0.8003 C   0  0  2  0  0  0  0  0  0  0  0  0
   -2.4879   -0.6498    1.6106 C   0  0  0  0  0  0  0  0  0  0  0  0
   -3.8656   -0.1444    1.1439 C   0  0  0  0  0  0  0  0  0  0  0  0
   -3.6133    0.7750   -0.0708 C   0  0  2  0  0  0  0  0  0  0  0  0
   -4.5956    0.5828   -1.0562 O   0  0  0  0  0  0  0  0  0  0  0  0
   -2.8463   -1.6946   -0.9528 H   0  0  0  0  0  0  0  0  0  0  0  0
   -1.2770   -1.2957   -1.7003 H   0  0  0  0  0  0  0  0  0  0  0  0
   -2.7746   -0.6477   -2.4035 H   0  0  0  0  0  0  0  0  0  0  0  0
   -1.9092    1.7060   -2.2848 H   0  0  0  0  0  0  0  0  0  0  0  0
   -1.5100    2.4756   -0.7178 H   0  0  0  0  0  0  0  0  0  0  0  0
    0.5652    2.0516   -1.9086 H   0  0  0  0  0  0  0  0  0  0  0  0
    0.1348    0.3478   -2.2297 H   0  0  0  0  0  0  0  0  0  0  0  0
    0.8190    1.6797    0.4652 H   0  0  0  0  0  0  0  0  0  0  0  0
   -0.0258   -1.2707    0.0955 H   0  0  0  0  0  0  0  0  0  0  0  0
    0.4866   -1.6742    2.2751 H   0  0  0  0  0  0  0  0  0  0  0  0
    0.0750   -0.0376    2.8466 H   0  0  0  0  0  0  0  0  0  0  0  0
    2.5960   -0.8758    2.8968 H   0  0  0  0  0  0  0  0  0  0  0  0
    2.1858    0.8220    2.5098 H   0  0  0  0  0  0  0  0  0  0  0  0
    4.5813   -1.2613    1.5907 H   0  0  0  0  0  0  0  0  0  0  0  0
    6.5514   -1.4442   -1.4660 H   0  0  0  0  0  0  0  0  0  0  0  0
    4.6651   -0.3246   -2.5973 H   0  0  0  0  0  0  0  0  0  0  0  0
    2.4316    0.6407   -2.4572 H   0  0  0  0  0  0  0  0  0  0  0  0
   -1.4399    1.1646    1.3272 H   0  0  0  0  0  0  0  0  0  0  0  0
   -2.3679   -1.7321    1.3859 H   0  0  0  0  0  0  0  0  0  0  0  0
   -2.3531   -0.4875    2.7020 H   0  0  0  0  0  0  0  0  0  0  0  0
   -4.5073   -1.0089    0.8645 H   0  0  0  0  0  0  0  0  0  0  0  0
   -4.3695    0.4239    1.9560 H   0  0  0  0  0  0  0  0  0  0  0  0
   -3.6352    1.8349    0.2796 H   0  0  0  0  0  0  0  0  0  0  0  0
   -4.4777    1.3151   -1.7157 H   0  0  0  0  0  0  0  0  0  0  0  0
  2  1  1  6
  2  3  1  0
  3  4  1  0
  5  4  1  0
  5  6  1  0
  6  7  1  0
  7  8  1  0
  8  9  1  0
  9 10  2  0
 10 11  1  0
 11 12  1  0
 11 13  2  0
 13 14  1  0
 14 15  2  0
 15  5  1  0
 15  9  1  0
  6 16  1  0
 16  2  1  0
 16 17  1  0
 17 18  1  0
 18 19  1  0
 19  2  1  0
 19 20  1  0
  1 21  1  0
  1 22  1  0
  1 23  1  0
  3 24  1  0
  3 25  1  0
  4 26  1  0
  4 27  1  0
  5 28  1  1
  6 29  1  6
  7 30  1  0
  7 31  1  0
  8 32  1  0
  8 33  1  0
 10 34  1  0
 12 35  1  0
 13 36  1  0
 14 37  1  0
 16 38  1  1
 17 39  1  0
 17 40  1  0
 18 41  1  0
 18 42  1  0
 19 43  1  1
 20 44  1  0
M  END
> <ID>
HT0794

> <Class>
1.0

> <Clusters>
96

> <Fold>
5

$$$$