
     RDKit          3D

 48 51  0  0  0  0  0  0  0  0999 V2000
    5.6033   -0.1905   -1.1791 C   0  0  0  0  0  0  0  0  0  0  0  0
    4.4361    0.1442   -0.2498 C   0  0  0  0  0  0  0  0  0  0  0  0
    3.0914   -0.2982   -0.8769 C   0  0  0  0  0  0  0  0  0  0  0  0
    2.0835   -0.4773    0.1712 N   0  0  0  0  0  0  0  0  0  0  0  0
    2.3968   -1.3277    1.3241 C   0  0  0  0  0  0  0  0  0  0  0  0
    3.8974   -1.6470    1.3661 C   0  0  0  0  0  0  0  0  0  0  0  0
    4.6907   -0.4408    1.0882 N   0  0  0  0  0  0  0  0  0  0  0  0
    0.8004    0.1668    0.0814 C   0  0  0  0  0  0  0  0  0  0  0  0
   -0.3618   -0.6001    0.0983 C   0  0  0  0  0  0  0  0  0  0  0  0
   -1.6389   -0.0088    0.0008 C   0  0  0  0  0  0  0  0  0  0  0  0
   -2.7771   -0.7904   -0.0280 N   0  0  0  0  0  0  0  0  0  0  0  0
   -4.0130   -0.2165    0.0358 C   0  0  0  0  0  0  0  0  0  0  0  0
   -4.1766    1.1671    0.0065 C   0  0  0  0  0  0  0  0  0  0  0  0
   -5.5489    1.7307    0.0478 C   0  0  0  0  0  0  0  0  0  0  0  0
   -6.4905    1.1264   -0.5314 O   0  0  0  0  0  0  0  0  0  0  0  0
   -5.8331    2.9044    0.7435 O   0  0  0  0  0  0  0  0  0  0  0  0
   -3.0417    1.9858   -0.0905 C   0  0  0  0  0  0  0  0  0  0  0  0
   -3.2057    3.2280   -0.2234 O   0  0  0  0  0  0  0  0  0  0  0  0
   -1.7399    1.4149   -0.0594 C   0  0  0  0  0  0  0  0  0  0  0  0
   -0.5395    2.2000   -0.0732 C   0  0  0  0  0  0  0  0  0  0  0  0
   -0.5524    3.7128   -0.1380 C   0  0  0  0  0  0  0  0  0  0  0  0
    0.7119    1.5566   -0.0065 C   0  0  0  0  0  0  0  0  0  0  0  0
    1.8591    2.2846    0.0183 F   0  0  0  0  0  0  0  0  0  0  0  0
   -2.7120   -2.2657   -0.0198 C   0  0  0  0  0  0  0  0  0  0  0  0
   -3.6070   -2.9646   -1.0433 C   0  0  0  0  0  0  0  0  0  0  0  0
   -2.1158   -2.8689   -1.2885 C   0  0  0  0  0  0  0  0  0  0  0  0
    5.6985   -1.2905   -1.3032 H   0  0  0  0  0  0  0  0  0  0  0  0
    5.4470    0.2752   -2.1756 H   0  0  0  0  0  0  0  0  0  0  0  0
    6.5504    0.2026   -0.7520 H   0  0  0  0  0  0  0  0  0  0  0  0
    4.4079    1.2536   -0.1514 H   0  0  0  0  0  0  0  0  0  0  0  0
    2.7594    0.4456   -1.6343 H   0  0  0  0  0  0  0  0  0  0  0  0
    3.2155   -1.2684   -1.4066 H   0  0  0  0  0  0  0  0  0  0  0  0
    1.8165   -2.2730    1.2707 H   0  0  0  0  0  0  0  0  0  0  0  0
    2.1194   -0.7924    2.2585 H   0  0  0  0  0  0  0  0  0  0  0  0
    4.1637   -2.0418    2.3701 H   0  0  0  0  0  0  0  0  0  0  0  0
    4.1420   -2.4369    0.6223 H   0  0  0  0  0  0  0  0  0  0  0  0
    4.4654    0.2737    1.8208 H   0  0  0  0  0  0  0  0  0  0  0  0
   -0.2487   -1.6705    0.1855 H   0  0  0  0  0  0  0  0  0  0  0  0
   -4.8952   -0.8436    0.1103 H   0  0  0  0  0  0  0  0  0  0  0  0
   -5.1439    3.3639    1.3257 H   0  0  0  0  0  0  0  0  0  0  0  0
    0.4641    4.1562   -0.1209 H   0  0  0  0  0  0  0  0  0  0  0  0
   -1.0288    4.0470   -1.0833 H   0  0  0  0  0  0  0  0  0  0  0  0
   -1.0943    4.1252    0.7388 H   0  0  0  0  0  0  0  0  0  0  0  0
   -2.5159   -2.7904    0.9393 H   0  0  0  0  0  0  0  0  0  0  0  0
   -3.9431   -3.9809   -0.7486 H   0  0  0  0  0  0  0  0  0  0  0  0
   -4.1961   -2.3186   -1.7286 H   0  0  0  0  0  0  0  0  0  0  0  0
   -1.8344   -2.1417   -2.0803 H   0  0  0  0  0  0  0  0  0  0  0  0
   -1.5662   -3.8201   -1.1270 H   0  0  0  0  0  0  0  0  0  0  0  0
  1  2  1  0
  2  3  1  0
  3  4  1  0
  4  5  1  0
  5  6  1  0
  6  7  1  0
  7  2  1  0
  4  8  1  0
  8  9  2  0
  9 10  1  0
 10 11  1  0
 11 12  1  0
 12 13  2  0
 13 14  1  0
 14 15  2  0
 14 16  1  0
 13 17  1  0
 17 18  2  0
 17 19  1  0
 19 10  2  0
 19 20  1  0
 20 21  1  0
 20 22  2  0
 22  8  1  0
 22 23  1  0
 11 24  1  0
 24 25  1  0
 25 26  1  0
 26 24  1  0
  1 27  1  0
  1 28  1  0
  1 29  1  0
  2 30  1  0
  3 31  1  0
  3 32  1  0
  5 33  1  0
  5 34  1  0
  6 35  1  0
  6 36  1  0
  7 37  1  0
  9 38  1  0
 12 39  1  0
 16 40  1  0
 21 41  1  0
 21 42  1  0
 21 43  1  0
 24 44  1  0
 25 45  1  0
 25 46  1  0
 26 47  1  0
 26 48  1  0
M  END
> <ID>
HT1004

> <Class>
1.0

> <Clusters>
117

> <Fold>
5

$$$$