
     RDKit          3D

 31 32  0  0  0  0  0  0  0  0999 V2000
   -3.9946    1.3146    0.3017 C   0  0  0  0  0  0  0  0  0  0  0  0
   -3.3969   -0.0964    0.4086 C   0  0  0  0  0  0  0  0  0  0  0  0
   -3.9615   -1.0476   -0.6164 C   0  0  0  0  0  0  0  0  0  0  0  0
   -4.7318   -0.6417   -1.5291 O   0  0  0  0  0  0  0  0  0  0  0  0
   -3.6228   -2.3959   -0.5525 O   0  0  0  0  0  0  0  0  0  0  0  0
   -1.8867   -0.0462    0.3002 C   0  0  0  0  0  0  0  0  0  0  0  0
   -1.2629    0.3658   -0.8905 C   0  0  0  0  0  0  0  0  0  0  0  0
    0.1301    0.4099   -0.9827 C   0  0  0  0  0  0  0  0  0  0  0  0
    0.9307    0.0393    0.1108 C   0  0  0  0  0  0  0  0  0  0  0  0
    0.3076   -0.3692    1.3057 C   0  0  0  0  0  0  0  0  0  0  0  0
    1.0451   -0.6925    2.3985 F   0  0  0  0  0  0  0  0  0  0  0  0
   -1.0873   -0.4116    1.3956 C   0  0  0  0  0  0  0  0  0  0  0  0
    2.4088    0.0852   -0.0043 C   0  0  0  0  0  0  0  0  0  0  0  0
    3.1954   -0.9981    0.4288 C   0  0  0  0  0  0  0  0  0  0  0  0
    4.5879   -0.9524    0.3107 C   0  0  0  0  0  0  0  0  0  0  0  0
    5.2080    0.1707   -0.2422 C   0  0  0  0  0  0  0  0  0  0  0  0
    4.4365    1.2494   -0.6808 C   0  0  0  0  0  0  0  0  0  0  0  0
    3.0436    1.2084   -0.5657 C   0  0  0  0  0  0  0  0  0  0  0  0
   -5.0946    1.2742    0.4532 H   0  0  0  0  0  0  0  0  0  0  0  0
   -3.7878    1.7651   -0.6925 H   0  0  0  0  0  0  0  0  0  0  0  0
   -3.5615    1.9704    1.0872 H   0  0  0  0  0  0  0  0  0  0  0  0
   -3.6885   -0.4916    1.4069 H   0  0  0  0  0  0  0  0  0  0  0  0
   -3.9858   -3.0557   -1.2300 H   0  0  0  0  0  0  0  0  0  0  0  0
   -1.8562    0.6464   -1.7517 H   0  0  0  0  0  0  0  0  0  0  0  0
    0.5840    0.7184   -1.9165 H   0  0  0  0  0  0  0  0  0  0  0  0
   -1.5438   -0.7240    2.3267 H   0  0  0  0  0  0  0  0  0  0  0  0
    2.7320   -1.8856    0.8414 H   0  0  0  0  0  0  0  0  0  0  0  0
    5.1864   -1.7904    0.6441 H   0  0  0  0  0  0  0  0  0  0  0  0
    6.2861    0.2040   -0.3328 H   0  0  0  0  0  0  0  0  0  0  0  0
    4.9180    2.1191   -1.1090 H   0  0  0  0  0  0  0  0  0  0  0  0
    2.4625    2.0581   -0.9020 H   0  0  0  0  0  0  0  0  0  0  0  0
  1  2  1  0
  2  3  1  0
  3  4  2  0
  3  5  1  0
  2  6  1  0
  6  7  2  0
  7  8  1  0
  8  9  2  0
  9 10  1  0
 10 11  1  0
 10 12  2  0
 12  6  1  0
  9 13  1  0
 13 14  2  0
 14 15  1  0
 15 16  2  0
 16 17  1  0
 17 18  2  0
 18 13  1  0
  1 19  1  0
  1 20  1  0
  1 21  1  0
  2 22  1  0
  5 23  1  0
  7 24  1  0
  8 25  1  0
 12 26  1  0
 14 27  1  0
 15 28  1  0
 16 29  1  0
 17 30  1  0
 18 31  1  0
M  END
> <ID>
HT0920

> <Class>
1.0

> <Clusters>
142

> <Fold>
5

$$$$