
     RDKit          3D

 12 12  0  0  0  0  0  0  0  0999 V2000
    1.5353    2.1187    0.1057 O   0  0  0  0  0  0  0  0  0  0  0  0
    0.7946    1.1006    0.0549 C   0  0  0  0  0  0  0  0  0  0  0  0
   -0.5593    1.2407    0.0687 N   0  0  0  0  0  0  0  0  0  0  0  0
    1.3606   -0.1737   -0.0156 C   0  0  0  0  0  0  0  0  0  0  0  0
    0.5114   -1.2775   -0.0705 C   0  0  0  0  0  0  0  0  0  0  0  0
    2.7070   -0.3408   -0.0308 F   0  0  0  0  0  0  0  0  0  0  0  0
   -0.8361   -1.0996   -0.0547 N   0  0  0  0  0  0  0  0  0  0  0  0
   -1.3731    0.1498    0.0144 C   0  0  0  0  0  0  0  0  0  0  0  0
   -2.6248    0.2969    0.0281 O   0  0  0  0  0  0  0  0  0  0  0  0
   -0.9794    2.1969    0.1217 H   0  0  0  0  0  0  0  0  0  0  0  0
    0.9256   -2.2765   -0.1257 H   0  0  0  0  0  0  0  0  0  0  0  0
   -1.4619   -1.9356   -0.0963 H   0  0  0  0  0  0  0  0  0  0  0  0
  1  2  2  0
  2  3  1  0
  4  2  1  0
  5  4  2  0
  4  6  1  0
  7  5  1  0
  8  7  1  0
  9  8  2  0
  3  8  1  0
  3 10  1  0
  5 11  1  0
  7 12  1  0
M  END
> <ID>
HT0909

> <Class>
1.0

> <Clusters>
107

> <Fold>
5

$$$$