
     RDKit          3D

 58 57  0  0  0  0  0  0  0  0999 V2000
    3.1276    5.4140   -1.1676 C   0  0  0  0  0  0  0  0  0  0  0  0
    2.8057    4.0659   -0.6997 N   0  0  0  0  0  0  0  0  0  0  0  0
    3.6873    3.2772    0.1150 C   0  0  0  0  0  0  0  0  0  0  0  0
    4.7854    3.7509    0.5127 O   0  0  0  0  0  0  0  0  0  0  0  0
    3.3106    1.8718    0.4732 C   0  0  0  0  0  0  0  0  0  0  0  0
    3.3738    1.0145   -0.7292 N   0  0  0  0  0  0  0  0  0  0  0  0
    2.4493   -0.1364   -0.6608 C   0  0  0  0  0  0  0  0  0  0  0  0
    1.0986    0.2471   -1.2519 C   0  0  0  0  0  0  0  0  0  0  0  0
    0.2115   -0.9356   -1.2293 N   0  0  0  0  0  0  0  0  0  0  0  0
   -1.0659   -0.6758   -0.5239 C   0  0  0  0  0  0  0  0  0  0  0  0
   -1.8116   -1.9867   -0.2142 C   0  0  0  0  0  0  0  0  0  0  0  0
   -2.9093   -1.7440    0.7544 N   0  0  0  0  0  0  0  0  0  0  0  0
   -3.1953   -2.9614    1.5474 C   0  0  0  0  0  0  0  0  0  0  0  0
   -2.1737   -3.1238    2.6309 C   0  0  0  0  0  0  0  0  0  0  0  0
   -2.0431   -2.2281    3.5124 O   0  0  0  0  0  0  0  0  0  0  0  0
   -1.3457   -4.2395    2.6481 O   0  0  0  0  0  0  0  0  0  0  0  0
   -4.1278   -1.2782    0.0540 C   0  0  0  0  0  0  0  0  0  0  0  0
   -5.0740   -0.6054    1.0142 C   0  0  0  0  0  0  0  0  0  0  0  0
   -6.3127   -0.8139    0.9041 O   0  0  0  0  0  0  0  0  0  0  0  0
   -4.5763    0.3049    2.0066 N   0  0  0  0  0  0  0  0  0  0  0  0
   -5.4445    0.9062    3.0067 C   0  0  0  0  0  0  0  0  0  0  0  0
    0.0804   -1.5770   -2.5675 C   0  0  0  0  0  0  0  0  0  0  0  0
   -0.9042   -0.8976   -3.4898 C   0  0  0  0  0  0  0  0  0  0  0  0
   -1.6163   -1.5922   -4.2500 O   0  0  0  0  0  0  0  0  0  0  0  0
   -1.0005    0.4876   -3.5587 O   0  0  0  0  0  0  0  0  0  0  0  0
    4.7590    0.6319   -1.1084 C   0  0  0  0  0  0  0  0  0  0  0  0
    5.3404   -0.4705   -0.2501 C   0  0  0  0  0  0  0  0  0  0  0  0
    5.6648   -0.2458    0.9496 O   0  0  0  0  0  0  0  0  0  0  0  0
    5.5723   -1.7296   -0.8001 O   0  0  0  0  0  0  0  0  0  0  0  0
    2.3965    6.1324   -0.7394 H   0  0  0  0  0  0  0  0  0  0  0  0
    4.1519    5.7243   -0.8735 H   0  0  0  0  0  0  0  0  0  0  0  0
    3.0539    5.4478   -2.2724 H   0  0  0  0  0  0  0  0  0  0  0  0
    1.8951    3.6522   -0.9971 H   0  0  0  0  0  0  0  0  0  0  0  0
    2.2793    1.9006    0.8920 H   0  0  0  0  0  0  0  0  0  0  0  0
    3.9667    1.4881    1.2798 H   0  0  0  0  0  0  0  0  0  0  0  0
    2.8328   -0.9989   -1.2466 H   0  0  0  0  0  0  0  0  0  0  0  0
    2.3163   -0.4881    0.3856 H   0  0  0  0  0  0  0  0  0  0  0  0
    1.2580    0.6296   -2.2804 H   0  0  0  0  0  0  0  0  0  0  0  0
    0.6760    1.0960   -0.6713 H   0  0  0  0  0  0  0  0  0  0  0  0
   -1.7052    0.0282   -1.1120 H   0  0  0  0  0  0  0  0  0  0  0  0
   -0.8439   -0.1885    0.4622 H   0  0  0  0  0  0  0  0  0  0  0  0
   -1.0592   -2.6877    0.2153 H   0  0  0  0  0  0  0  0  0  0  0  0
   -2.2038   -2.4474   -1.1557 H   0  0  0  0  0  0  0  0  0  0  0  0
   -3.2108   -3.8638    0.8979 H   0  0  0  0  0  0  0  0  0  0  0  0
   -4.1870   -2.8948    2.0393 H   0  0  0  0  0  0  0  0  0  0  0  0
   -0.6504   -4.3613    3.3772 H   0  0  0  0  0  0  0  0  0  0  0  0
   -3.8716   -0.5172   -0.7197 H   0  0  0  0  0  0  0  0  0  0  0  0
   -4.6330   -2.1304   -0.4718 H   0  0  0  0  0  0  0  0  0  0  0  0
   -3.5427    0.4886    2.0747 H   0  0  0  0  0  0  0  0  0  0  0  0
   -6.0064    0.1173    3.5496 H   0  0  0  0  0  0  0  0  0  0  0  0
   -6.1451    1.6110    2.5143 H   0  0  0  0  0  0  0  0  0  0  0  0
   -4.8336    1.4865    3.7342 H   0  0  0  0  0  0  0  0  0  0  0  0
    1.0689   -1.5930   -3.0762 H   0  0  0  0  0  0  0  0  0  0  0  0
   -0.2108   -2.6443   -2.4430 H   0  0  0  0  0  0  0  0  0  0  0  0
   -1.6330    0.9459   -4.2132 H   0  0  0  0  0  0  0  0  0  0  0  0
    5.4320    1.5140   -1.0844 H   0  0  0  0  0  0  0  0  0  0  0  0
    4.7547    0.2915   -2.1723 H   0  0  0  0  0  0  0  0  0  0  0  0
    5.9883   -2.4694   -0.2402 H   0  0  0  0  0  0  0  0  0  0  0  0
  1  2  1  0
  2  3  1  0
  3  4  2  0
  3  5  1  0
  5  6  1  0
  6  7  1  0
  7  8  1  0
  8  9  1  0
  9 10  1  0
 10 11  1  0
 11 12  1  0
 12 13  1  0
 13 14  1  0
 14 15  2  0
 14 16  1  0
 12 17  1  0
 17 18  1  0
 18 19  2  0
 18 20  1  0
 20 21  1  0
  9 22  1  0
 22 23  1  0
 23 24  2  0
 23 25  1  0
  6 26  1  0
 26 27  1  0
 27 28  2  0
 27 29  1  0
  1 30  1  0
  1 31  1  0
  1 32  1  0
  2 33  1  0
  5 34  1  0
  5 35  1  0
  7 36  1  0
  7 37  1  0
  8 38  1  0
  8 39  1  0
 10 40  1  0
 10 41  1  0
 11 42  1  0
 11 43  1  0
 13 44  1  0
 13 45  1  0
 16 46  1  0
 17 47  1  0
 17 48  1  0
 20 49  1  0
 21 50  1  0
 21 51  1  0
 21 52  1  0
 22 53  1  0
 22 54  1  0
 25 55  1  0
 26 56  1  0
 26 57  1  0
 29 58  1  0
M  END
> <ID>
HT0952

> <Class>
1.0

> <Clusters>
114

> <Fold>
5

$$$$