
     RDKit          3D

 40 42  0  0  0  0  0  0  0  0999 V2000
    5.6426    1.4389   -1.7804 O   0  0  0  0  0  0  0  0  0  0  0  0
    5.3396    0.0770   -0.8181 P   0  0  0  0  0  0  0  0  0  0  0  0
    5.7450    0.3571    0.6124 O   0  0  0  0  0  0  0  0  0  0  0  0
    6.2584   -1.2174   -1.4017 O   0  0  0  0  0  0  0  0  0  0  0  0
    3.6889   -0.3493   -0.8835 O   0  0  0  0  0  0  0  0  0  0  0  0
    2.9211    0.7693   -0.5093 C   0  0  0  0  0  0  0  0  0  0  0  0
    1.5111    0.3965   -0.5063 N   0  0  0  0  0  0  0  0  0  0  0  0
    0.7322   -0.0280   -1.6075 C   0  0  0  0  0  0  0  0  0  0  0  0
    1.1815   -0.1501   -2.7776 O   0  0  0  0  0  0  0  0  0  0  0  0
   -0.6166   -0.2991   -1.2548 N   0  0  0  0  0  0  0  0  0  0  0  0
   -0.7835   -0.0548    0.1837 C   0  0  0  0  0  0  0  0  0  0  0  0
    0.6046    0.3961    0.5896 C   0  0  0  0  0  0  0  0  0  0  0  0
    0.9322    0.7447    1.7563 O   0  0  0  0  0  0  0  0  0  0  0  0
   -1.7636    1.0877    0.4554 C   0  0  0  0  0  0  0  0  0  0  0  0
   -2.1689    1.9781   -0.5625 C   0  0  0  0  0  0  0  0  0  0  0  0
   -3.0383    3.0353   -0.2774 C   0  0  0  0  0  0  0  0  0  0  0  0
   -3.5022    3.2316    1.0242 C   0  0  0  0  0  0  0  0  0  0  0  0
   -3.0908    2.3764    2.0473 C   0  0  0  0  0  0  0  0  0  0  0  0
   -2.2218    1.3179    1.7695 C   0  0  0  0  0  0  0  0  0  0  0  0
   -1.2264   -1.3648    0.8404 C   0  0  0  0  0  0  0  0  0  0  0  0
   -2.5594   -1.7979    0.6816 C   0  0  0  0  0  0  0  0  0  0  0  0
   -2.9892   -3.0076    1.2334 C   0  0  0  0  0  0  0  0  0  0  0  0
   -2.0925   -3.8160    1.9326 C   0  0  0  0  0  0  0  0  0  0  0  0
   -0.7614   -3.4213    2.0721 C   0  0  0  0  0  0  0  0  0  0  0  0
   -0.3245   -2.2120    1.5229 C   0  0  0  0  0  0  0  0  0  0  0  0
    5.4806    2.2169   -1.1890 H   0  0  0  0  0  0  0  0  0  0  0  0
    5.9384   -1.3542   -2.3289 H   0  0  0  0  0  0  0  0  0  0  0  0
    3.0566    1.6008   -1.2357 H   0  0  0  0  0  0  0  0  0  0  0  0
    3.2054    1.1230    0.5075 H   0  0  0  0  0  0  0  0  0  0  0  0
   -1.3580   -0.6314   -1.9119 H   0  0  0  0  0  0  0  0  0  0  0  0
   -1.8151    1.8674   -1.5786 H   0  0  0  0  0  0  0  0  0  0  0  0
   -3.3483    3.7074   -1.0672 H   0  0  0  0  0  0  0  0  0  0  0  0
   -4.1737    4.0521    1.2417 H   0  0  0  0  0  0  0  0  0  0  0  0
   -3.4416    2.5363    3.0587 H   0  0  0  0  0  0  0  0  0  0  0  0
   -1.9046    0.6754    2.5815 H   0  0  0  0  0  0  0  0  0  0  0  0
   -3.2694   -1.1960    0.1280 H   0  0  0  0  0  0  0  0  0  0  0  0
   -4.0181   -3.3212    1.1129 H   0  0  0  0  0  0  0  0  0  0  0  0
   -2.4266   -4.7538    2.3573 H   0  0  0  0  0  0  0  0  0  0  0  0
   -0.0632   -4.0576    2.6007 H   0  0  0  0  0  0  0  0  0  0  0  0
    0.7197   -1.9535    1.6317 H   0  0  0  0  0  0  0  0  0  0  0  0
  1  2  1  0
  2  3  2  0
  2  4  1  0
  2  5  1  0
  5  6  1  0
  6  7  1  0
  7  8  1  0
  8  9  2  0
  8 10  1  0
 10 11  1  0
 11 12  1  0
 12  7  1  0
 12 13  2  0
 11 14  1  0
 14 15  2  0
 15 16  1  0
 16 17  2  0
 17 18  1  0
 18 19  2  0
 19 14  1  0
 11 20  1  0
 20 21  2  0
 21 22  1  0
 22 23  2  0
 23 24  1  0
 24 25  2  0
 25 20  1  0
  1 26  1  0
  4 27  1  0
  6 28  1  0
  6 29  1  0
 10 30  1  0
 15 31  1  0
 16 32  1  0
 17 33  1  0
 18 34  1  0
 19 35  1  0
 21 36  1  0
 22 37  1  0
 23 38  1  0
 24 39  1  0
 25 40  1  0
M  END
> <ID>
HT0939

> <Class>
1.0

> <Clusters>
195

> <Fold>
5

$$$$