
     RDKit          3D

 43 43  0  0  0  0  0  0  0  0999 V2000
    5.0302   -0.3519    1.1486 C   0  0  0  0  0  0  0  0  0  0  0  0
    3.7930   -0.9079    1.5367 O   0  0  0  0  0  0  0  0  0  0  0  0
    3.1715   -1.5477    0.4377 C   0  0  0  0  0  0  0  0  0  0  0  0
    2.1513   -0.6075   -0.2119 C   0  0  0  0  0  0  0  0  0  0  0  0
    1.4022   -1.3067   -1.3541 C   0  0  0  0  0  0  0  0  0  0  0  0
    0.3532   -0.3976   -2.0184 C   0  0  0  0  0  0  0  0  0  0  0  0
   -0.8076   -0.0704   -1.0957 C   0  0  0  0  0  0  0  0  0  0  0  0
   -1.6683   -0.9958   -0.7871 N   0  0  0  0  0  0  0  0  0  0  0  0
   -1.5802   -2.2843   -1.2684 O   0  0  0  0  0  0  0  0  0  0  0  0
   -2.4995   -3.2830   -0.8479 C   0  0  0  0  0  0  0  0  0  0  0  0
   -2.1823   -3.7467    0.5747 C   0  0  0  0  0  0  0  0  0  0  0  0
   -2.4125   -2.6710    1.5344 N   0  0  0  0  0  0  0  0  0  0  0  0
   -1.0329    1.3104   -0.5743 C   0  0  0  0  0  0  0  0  0  0  0  0
    0.0132    2.2491   -0.4789 C   0  0  0  0  0  0  0  0  0  0  0  0
   -0.2221    3.5333    0.0201 C   0  0  0  0  0  0  0  0  0  0  0  0
   -1.5101    3.9192    0.4218 C   0  0  0  0  0  0  0  0  0  0  0  0
   -2.5495    2.9786    0.3611 C   0  0  0  0  0  0  0  0  0  0  0  0
   -2.3160    1.6939   -0.1365 C   0  0  0  0  0  0  0  0  0  0  0  0
   -1.7506    5.2886    1.0060 C   0  0  0  0  0  0  0  0  0  0  0  0
   -1.5363    5.2450    2.3709 F   0  0  0  0  0  0  0  0  0  0  0  0
   -3.0500    5.7012    0.7663 F   0  0  0  0  0  0  0  0  0  0  0  0
   -0.8917    6.2172    0.4439 F   0  0  0  0  0  0  0  0  0  0  0  0
    5.7579   -1.1522    0.8893 H   0  0  0  0  0  0  0  0  0  0  0  0
    4.9126    0.3558    0.2984 H   0  0  0  0  0  0  0  0  0  0  0  0
    5.4465    0.2175    2.0047 H   0  0  0  0  0  0  0  0  0  0  0  0
    2.6336   -2.4381    0.8280 H   0  0  0  0  0  0  0  0  0  0  0  0
    3.8936   -1.9260   -0.3258 H   0  0  0  0  0  0  0  0  0  0  0  0
    2.6803    0.2830   -0.6128 H   0  0  0  0  0  0  0  0  0  0  0  0
    1.4287   -0.2745    0.5643 H   0  0  0  0  0  0  0  0  0  0  0  0
    2.1376   -1.6117   -2.1305 H   0  0  0  0  0  0  0  0  0  0  0  0
    0.9210   -2.2322   -0.9727 H   0  0  0  0  0  0  0  0  0  0  0  0
    0.8436    0.5185   -2.4058 H   0  0  0  0  0  0  0  0  0  0  0  0
   -0.0481   -0.9162   -2.9158 H   0  0  0  0  0  0  0  0  0  0  0  0
   -2.4124   -4.1520   -1.5336 H   0  0  0  0  0  0  0  0  0  0  0  0
   -3.5395   -2.8953   -0.9118 H   0  0  0  0  0  0  0  0  0  0  0  0
   -1.1186   -4.0671    0.6248 H   0  0  0  0  0  0  0  0  0  0  0  0
   -2.8225   -4.6208    0.8289 H   0  0  0  0  0  0  0  0  0  0  0  0
   -3.4426   -2.4982    1.5916 H   0  0  0  0  0  0  0  0  0  0  0  0
   -2.1160   -3.0160    2.4759 H   0  0  0  0  0  0  0  0  0  0  0  0
    1.0233    1.9983   -0.7626 H   0  0  0  0  0  0  0  0  0  0  0  0
    0.6081    4.2244    0.0981 H   0  0  0  0  0  0  0  0  0  0  0  0
   -3.5453    3.2357    0.7002 H   0  0  0  0  0  0  0  0  0  0  0  0
   -3.1470    1.0010   -0.1819 H   0  0  0  0  0  0  0  0  0  0  0  0
  1  2  1  0
  2  3  1  0
  3  4  1  0
  4  5  1  0
  5  6  1  0
  6  7  1  0
  7  8  2  0
  8  9  1  0
  9 10  1  0
 10 11  1  0
 11 12  1  0
  7 13  1  0
 13 14  2  0
 14 15  1  0
 15 16  2  0
 16 17  1  0
 17 18  2  0
 18 13  1  0
 16 19  1  0
 19 20  1  0
 19 21  1  0
 19 22  1  0
  1 23  1  0
  1 24  1  0
  1 25  1  0
  3 26  1  0
  3 27  1  0
  4 28  1  0
  4 29  1  0
  5 30  1  0
  5 31  1  0
  6 32  1  0
  6 33  1  0
 10 34  1  0
 10 35  1  0
 11 36  1  0
 11 37  1  0
 12 38  1  0
 12 39  1  0
 14 40  1  0
 15 41  1  0
 17 42  1  0
 18 43  1  0
M  END
> <ID>
HT0927

> <Class>
1.0

> <Clusters>
204

> <Fold>
5

$$$$