
     RDKit          3D

 30 30  0  0  0  0  0  0  0  0999 V2000
    3.9094   -0.8469    0.8840 C   0  0  0  0  0  0  0  0  0  0  0  0
    3.4913    0.3786    0.0647 C   0  0  0  0  0  0  0  0  0  0  0  0
    3.7744    0.1692   -1.4261 C   0  0  0  0  0  0  0  0  0  0  0  0
    2.0377    0.7106    0.2915 C   0  0  0  0  0  0  0  0  0  0  0  0
    1.7417    1.7922    0.8685 O   0  0  0  0  0  0  0  0  0  0  0  0
    1.0023   -0.2025   -0.1134 N   0  0  0  0  0  0  0  0  0  0  0  0
   -0.3974    0.1267   -0.1300 C   0  0  0  0  0  0  0  0  0  0  0  0
   -0.8413    1.4060   -0.4899 C   0  0  0  0  0  0  0  0  0  0  0  0
   -2.2051    1.6896   -0.5408 C   0  0  0  0  0  0  0  0  0  0  0  0
   -3.1593    0.7022   -0.2443 C   0  0  0  0  0  0  0  0  0  0  0  0
   -2.7224   -0.5914    0.1489 C   0  0  0  0  0  0  0  0  0  0  0  0
   -1.3402   -0.8673    0.1621 C   0  0  0  0  0  0  0  0  0  0  0  0
   -3.6981   -1.6864    0.5333 C   0  0  0  0  0  0  0  0  0  0  0  0
   -3.0764   -2.6753    1.2771 F   0  0  0  0  0  0  0  0  0  0  0  0
   -4.7268   -1.1718    1.3026 F   0  0  0  0  0  0  0  0  0  0  0  0
   -4.2200   -2.2621   -0.6101 F   0  0  0  0  0  0  0  0  0  0  0  0
   -4.5546    1.0289   -0.3650 N   0  0  0  0  0  0  0  0  0  0  0  0
   -4.9552    2.1747   -0.0727 O   0  0  0  0  0  0  0  0  0  0  0  0
   -5.4181    0.1687   -1.0023 O   0  0  0  0  0  0  0  0  0  0  0  0
    3.3825   -1.7616    0.5392 H   0  0  0  0  0  0  0  0  0  0  0  0
    3.6809   -0.6835    1.9590 H   0  0  0  0  0  0  0  0  0  0  0  0
    5.0033   -1.0133    0.7844 H   0  0  0  0  0  0  0  0  0  0  0  0
    4.1101    1.2378    0.4081 H   0  0  0  0  0  0  0  0  0  0  0  0
    3.4734    1.0708   -2.0015 H   0  0  0  0  0  0  0  0  0  0  0  0
    3.2183   -0.7091   -1.8181 H   0  0  0  0  0  0  0  0  0  0  0  0
    4.8608    0.0017   -1.5869 H   0  0  0  0  0  0  0  0  0  0  0  0
    1.2711   -1.1865   -0.3384 H   0  0  0  0  0  0  0  0  0  0  0  0
   -0.1374    2.1780   -0.7708 H   0  0  0  0  0  0  0  0  0  0  0  0
   -2.5215    2.6790   -0.8467 H   0  0  0  0  0  0  0  0  0  0  0  0
   -0.9833   -1.8569    0.4193 H   0  0  0  0  0  0  0  0  0  0  0  0
  1  2  1  0
  2  3  1  0
  2  4  1  0
  4  5  2  0
  4  6  1  0
  6  7  1  0
  7  8  2  0
  8  9  1  0
  9 10  2  0
 10 11  1  0
 11 12  2  0
 12  7  1  0
 11 13  1  0
 13 14  1  0
 13 15  1  0
 13 16  1  0
 10 17  1  0
 17 18  2  0
 17 19  1  0
  1 20  1  0
  1 21  1  0
  1 22  1  0
  2 23  1  0
  3 24  1  0
  3 25  1  0
  3 26  1  0
  6 27  1  0
  8 28  1  0
  9 29  1  0
 12 30  1  0
M  CHG  2  17   1  19  -1
M  END
> <ID>
HT0922

> <Class>
1.0

> <Clusters>
108

> <Fold>
5

$$$$