
     RDKit          3D

 75 77  0  0  0  0  0  0  0  0999 V2000
    4.1025   -1.9103   -1.8532 C   0  0  0  0  0  0  0  0  0  0  0  0
    3.1229   -1.5579   -0.7278 C   0  0  0  0  0  0  0  0  0  0  0  0
    2.6294   -2.8360   -0.0389 C   0  0  0  0  0  0  0  0  0  0  0  0
    1.9425   -0.7289   -1.2780 C   0  0  0  0  0  0  0  0  0  0  0  0
    1.1921   -0.0910   -0.1685 N   0  0  0  0  0  0  0  0  0  0  0  0
   -0.2806   -0.1486   -0.3372 C   0  0  0  0  0  0  0  0  0  0  0  0
   -0.9118   -0.8056    0.9077 C   0  0  1  0  0  0  0  0  0  0  0  0
   -0.7530    0.0912    1.9932 O   0  0  0  0  0  0  0  0  0  0  0  0
   -0.1352   -0.7244    3.3605 P   0  0  0  0  0  0  0  0  0  0  0  0
   -0.1043    0.2361    4.5270 O   0  0  0  0  0  0  0  0  0  0  0  0
    1.4405   -1.2558    3.0419 O   0  0  0  0  0  0  0  0  0  0  0  0
   -1.1230   -2.0421    3.7581 O   0  0  0  0  0  0  0  0  0  0  0  0
   -2.4304   -1.1231    0.7507 C   0  0  2  0  0  0  0  0  0  0  0  0
   -2.7317   -2.5376    0.1984 C   0  0  0  0  0  0  0  0  0  0  0  0
   -2.1660   -2.8139   -1.1728 C   0  0  0  0  0  0  0  0  0  0  0  0
   -2.8706   -2.4292   -2.3262 C   0  0  0  0  0  0  0  0  0  0  0  0
   -2.3435   -2.6899   -3.5946 C   0  0  0  0  0  0  0  0  0  0  0  0
   -1.1193   -3.3512   -3.7222 C   0  0  0  0  0  0  0  0  0  0  0  0
   -0.4254   -3.7626   -2.5813 C   0  0  0  0  0  0  0  0  0  0  0  0
   -0.9484   -3.5025   -1.3112 C   0  0  0  0  0  0  0  0  0  0  0  0
   -3.1286   -0.0870   -0.0230 N   0  0  0  0  0  0  0  0  0  0  0  0
   -3.9642    0.9111    0.5747 C   0  0  0  0  0  0  0  0  0  0  0  0
   -4.1573    0.9249    1.8216 O   0  0  0  0  0  0  0  0  0  0  0  0
   -4.5537    1.8806   -0.2432 O   0  0  0  0  0  0  0  0  0  0  0  0
   -5.3397    2.9580    0.2656 C   0  0  1  0  0  0  0  0  0  0  0  0
   -4.4944    3.9921    0.9501 C   0  0  0  0  0  0  0  0  0  0  0  0
   -5.2196    5.2862    0.6352 C   0  0  0  0  0  0  0  0  0  0  0  0
   -6.0573    5.0998   -0.4848 O   0  0  0  0  0  0  0  0  0  0  0  0
   -5.9684    3.7462   -0.8646 C   0  0  0  0  0  0  0  0  0  0  0  0
    1.7181    1.5662    0.0685 S   0  0  0  0  0  0  0  0  0  0  0  0
    0.9312    2.2033    1.1799 O   0  0  0  0  0  0  0  0  0  0  0  0
    1.4869    2.3611   -1.1879 O   0  0  0  0  0  0  0  0  0  0  0  0
    3.4236    1.6197    0.4995 C   0  0  0  0  0  0  0  0  0  0  0  0
    3.8189    1.3413    1.8147 C   0  0  0  0  0  0  0  0  0  0  0  0
    5.1742    1.3458    2.1581 C   0  0  0  0  0  0  0  0  0  0  0  0
    6.1465    1.6273    1.1881 C   0  0  0  0  0  0  0  0  0  0  0  0
    7.5329    1.6347    1.5392 N   0  0  0  0  0  0  0  0  0  0  0  0
    5.7507    1.8999   -0.1297 C   0  0  0  0  0  0  0  0  0  0  0  0
    4.3955    1.8943   -0.4729 C   0  0  0  0  0  0  0  0  0  0  0  0
    4.9529   -2.5004   -1.4503 H   0  0  0  0  0  0  0  0  0  0  0  0
    3.5947   -2.5040   -2.6441 H   0  0  0  0  0  0  0  0  0  0  0  0
    4.5147   -0.9829   -2.3059 H   0  0  0  0  0  0  0  0  0  0  0  0
    3.6803   -0.9649    0.0245 H   0  0  0  0  0  0  0  0  0  0  0  0
    1.9223   -2.5880    0.7781 H   0  0  0  0  0  0  0  0  0  0  0  0
    2.1183   -3.5021   -0.7658 H   0  0  0  0  0  0  0  0  0  0  0  0
    3.4862   -3.3866    0.4051 H   0  0  0  0  0  0  0  0  0  0  0  0
    2.3132    0.0347   -1.9976 H   0  0  0  0  0  0  0  0  0  0  0  0
    1.3100   -1.4180   -1.8798 H   0  0  0  0  0  0  0  0  0  0  0  0
   -0.5791   -0.7070   -1.2451 H   0  0  0  0  0  0  0  0  0  0  0  0
   -0.7171    0.8654   -0.4763 H   0  0  0  0  0  0  0  0  0  0  0  0
   -0.3709   -1.7701    1.0502 H   0  0  0  0  0  0  0  0  0  0  0  0
    1.7121   -1.7497    3.8558 H   0  0  0  0  0  0  0  0  0  0  0  0
   -0.7724   -2.7987    3.2244 H   0  0  0  0  0  0  0  0  0  0  0  0
   -2.8531   -1.1437    1.7798 H   0  0  0  0  0  0  0  0  0  0  0  0
   -2.3385   -3.2893    0.9183 H   0  0  0  0  0  0  0  0  0  0  0  0
   -3.8331   -2.6910    0.1758 H   0  0  0  0  0  0  0  0  0  0  0  0
   -3.8279   -1.9307   -2.2436 H   0  0  0  0  0  0  0  0  0  0  0  0
   -2.8871   -2.3834   -4.4789 H   0  0  0  0  0  0  0  0  0  0  0  0
   -0.7125   -3.5529   -4.7048 H   0  0  0  0  0  0  0  0  0  0  0  0
    0.5184   -4.2830   -2.6815 H   0  0  0  0  0  0  0  0  0  0  0  0
   -0.4004   -3.8289   -0.4366 H   0  0  0  0  0  0  0  0  0  0  0  0
   -2.9600   -0.0131   -1.0503 H   0  0  0  0  0  0  0  0  0  0  0  0
   -6.1330    2.5810    0.9509 H   0  0  0  0  0  0  0  0  0  0  0  0
   -3.4720    4.0170    0.5091 H   0  0  0  0  0  0  0  0  0  0  0  0
   -4.4285    3.8107    2.0456 H   0  0  0  0  0  0  0  0  0  0  0  0
   -5.8457    5.5872    1.5025 H   0  0  0  0  0  0  0  0  0  0  0  0
   -4.4915    6.0995    0.4270 H   0  0  0  0  0  0  0  0  0  0  0  0
   -6.9817    3.3535   -1.0950 H   0  0  0  0  0  0  0  0  0  0  0  0
   -5.3444    3.6763   -1.7830 H   0  0  0  0  0  0  0  0  0  0  0  0
    3.0793    1.1137    2.5722 H   0  0  0  0  0  0  0  0  0  0  0  0
    5.4664    1.1281    3.1780 H   0  0  0  0  0  0  0  0  0  0  0  0
    8.2613    1.8642    0.8277 H   0  0  0  0  0  0  0  0  0  0  0  0
    7.8377    1.4288    2.5170 H   0  0  0  0  0  0  0  0  0  0  0  0
    6.4916    2.1125   -0.8899 H   0  0  0  0  0  0  0  0  0  0  0  0
    4.1076    2.0938   -1.4970 H   0  0  0  0  0  0  0  0  0  0  0  0
  1  2  1  0
  2  3  1  0
  2  4  1  0
  4  5  1  0
  5  6  1  0
  6  7  1  0
  7  8  1  0
  8  9  1  0
  9 10  2  0
  9 11  1  0
  9 12  1  0
  7 13  1  0
 13 14  1  0
 14 15  1  0
 15 16  2  0
 16 17  1  0
 17 18  2  0
 18 19  1  0
 19 20  2  0
 20 15  1  0
 13 21  1  0
 21 22  1  0
 22 23  2  0
 22 24  1  0
 25 24  1  0
 25 26  1  0
 26 27  1  0
 27 28  1  0
 28 29  1  0
 29 25  1  0
  5 30  1  0
 30 31  2  0
 30 32  2  0
 30 33  1  0
 33 34  2  0
 34 35  1  0
 35 36  2  0
 36 37  1  0
 36 38  1  0
 38 39  2  0
 39 33  1  0
  1 40  1  0
  1 41  1  0
  1 42  1  0
  2 43  1  0
  3 44  1  0
  3 45  1  0
  3 46  1  0
  4 47  1  0
  4 48  1  0
  6 49  1  0
  6 50  1  0
  7 51  1  1
 11 52  1  0
 12 53  1  0
 13 54  1  1
 14 55  1  0
 14 56  1  0
 16 57  1  0
 17 58  1  0
 18 59  1  0
 19 60  1  0
 20 61  1  0
 21 62  1  0
 25 63  1  1
 26 64  1  0
 26 65  1  0
 27 66  1  0
 27 67  1  0
 29 68  1  0
 29 69  1  0
 34 70  1  0
 35 71  1  0
 37 72  1  0
 37 73  1  0
 38 74  1  0
 39 75  1  0
M  END
> <ID>
HT0934

> <Class>
1.0

> <Clusters>
19

> <Fold>
5

$$$$