
     RDKit          3D

 49 52  0  0  0  0  0  0  0  0999 V2000
   -0.6196   -2.4153    0.0921 C   0  0  0  0  0  0  0  0  0  0  0  0
    0.0320   -1.2809    0.6552 O   0  0  0  0  0  0  0  0  0  0  0  0
    0.2858   -0.1186   -0.0795 C   0  0  0  0  0  0  0  0  0  0  0  0
   -0.8071    0.6690   -0.5004 C   0  0  0  0  0  0  0  0  0  0  0  0
   -2.1369    0.3929   -0.0256 N   0  0  0  0  0  0  0  0  0  0  0  0
   -2.4112    0.4603    1.4137 C   0  0  0  0  0  0  0  0  0  0  0  0
   -3.8169    1.0197    1.7181 C   0  0  0  0  0  0  0  0  0  0  0  0
   -4.7203    1.0601    0.5547 N   0  0  0  0  0  0  0  0  0  0  0  0
   -4.5610   -0.0821   -0.3590 C   0  0  0  0  0  0  0  0  0  0  0  0
   -4.9380   -1.4105    0.3155 C   0  0  0  0  0  0  0  0  0  0  0  0
   -3.1472   -0.1017   -0.9691 C   0  0  0  0  0  0  0  0  0  0  0  0
   -0.5925    1.7677   -1.3360 C   0  0  0  0  0  0  0  0  0  0  0  0
   -1.6295    2.5571   -1.7140 F   0  0  0  0  0  0  0  0  0  0  0  0
    0.6882    2.0733   -1.7790 C   0  0  0  0  0  0  0  0  0  0  0  0
    1.7971    1.3232   -1.3493 C   0  0  0  0  0  0  0  0  0  0  0  0
    3.0850    1.6214   -1.8309 C   0  0  0  0  0  0  0  0  0  0  0  0
    3.2480    2.5737   -2.6437 O   0  0  0  0  0  0  0  0  0  0  0  0
    4.1842    0.8512   -1.4192 C   0  0  0  0  0  0  0  0  0  0  0  0
    3.9710   -0.1627   -0.4766 C   0  0  0  0  0  0  0  0  0  0  0  0
    2.7355   -0.4029    0.0606 N   0  0  0  0  0  0  0  0  0  0  0  0
    2.6662   -1.4044    1.1423 C   0  0  0  0  0  0  0  0  0  0  0  0
    3.6516   -1.1795    2.2907 C   0  0  0  0  0  0  0  0  0  0  0  0
    2.1868   -0.8518    2.4826 C   0  0  0  0  0  0  0  0  0  0  0  0
    1.6190    0.2516   -0.4314 C   0  0  0  0  0  0  0  0  0  0  0  0
    5.5579    1.0939   -1.9406 C   0  0  0  0  0  0  0  0  0  0  0  0
    6.5297    0.4140   -1.5118 O   0  0  0  0  0  0  0  0  0  0  0  0
    5.7944    2.0670   -2.9083 O   0  0  0  0  0  0  0  0  0  0  0  0
   -0.7959   -2.2810   -0.9967 H   0  0  0  0  0  0  0  0  0  0  0  0
    0.0207   -3.3094    0.2354 H   0  0  0  0  0  0  0  0  0  0  0  0
   -1.5878   -2.5818    0.6066 H   0  0  0  0  0  0  0  0  0  0  0  0
   -2.3137   -0.5557    1.8493 H   0  0  0  0  0  0  0  0  0  0  0  0
   -1.6529    1.0995    1.9186 H   0  0  0  0  0  0  0  0  0  0  0  0
   -3.7164    2.0487    2.1293 H   0  0  0  0  0  0  0  0  0  0  0  0
   -4.2883    0.4108    2.5193 H   0  0  0  0  0  0  0  0  0  0  0  0
   -4.5292    1.9396    0.0178 H   0  0  0  0  0  0  0  0  0  0  0  0
   -5.2837    0.0519   -1.1952 H   0  0  0  0  0  0  0  0  0  0  0  0
   -4.2030   -1.7039    1.0910 H   0  0  0  0  0  0  0  0  0  0  0  0
   -4.9806   -2.2197   -0.4444 H   0  0  0  0  0  0  0  0  0  0  0  0
   -5.9399   -1.3227    0.7866 H   0  0  0  0  0  0  0  0  0  0  0  0
   -2.8793   -1.1224   -1.3138 H   0  0  0  0  0  0  0  0  0  0  0  0
   -3.1551    0.5520   -1.8674 H   0  0  0  0  0  0  0  0  0  0  0  0
    0.8098    2.9135   -2.4520 H   0  0  0  0  0  0  0  0  0  0  0  0
    4.8184   -0.7523   -0.1439 H   0  0  0  0  0  0  0  0  0  0  0  0
    2.4383   -2.4608    0.8861 H   0  0  0  0  0  0  0  0  0  0  0  0
    4.2904   -0.2719    2.2429 H   0  0  0  0  0  0  0  0  0  0  0  0
    3.9704   -2.1031    2.8181 H   0  0  0  0  0  0  0  0  0  0  0  0
    1.9641    0.2368    2.4997 H   0  0  0  0  0  0  0  0  0  0  0  0
    1.6334   -1.5856    3.1055 H   0  0  0  0  0  0  0  0  0  0  0  0
    6.7285    2.2317   -3.2642 H   0  0  0  0  0  0  0  0  0  0  0  0
  1  2  1  0
  2  3  1  0
  3  4  2  0
  4  5  1  0
  5  6  1  0
  6  7  1  0
  7  8  1  0
  8  9  1  0
  9 10  1  0
  9 11  1  0
 11  5  1  0
  4 12  1  0
 12 13  1  0
 12 14  2  0
 14 15  1  0
 15 16  1  0
 16 17  2  0
 16 18  1  0
 18 19  2  0
 19 20  1  0
 20 21  1  0
 21 22  1  0
 22 23  1  0
 23 21  1  0
 20 24  1  0
 24  3  1  0
 24 15  2  0
 18 25  1  0
 25 26  2  0
 25 27  1  0
  1 28  1  0
  1 29  1  0
  1 30  1  0
  6 31  1  0
  6 32  1  0
  7 33  1  0
  7 34  1  0
  8 35  1  0
  9 36  1  0
 10 37  1  0
 10 38  1  0
 10 39  1  0
 11 40  1  0
 11 41  1  0
 14 42  1  0
 19 43  1  0
 21 44  1  0
 22 45  1  0
 22 46  1  0
 23 47  1  0
 23 48  1  0
 27 49  1  0
M  END
> <ID>
HT0967

> <Class>
1.0

> <Clusters>
117

> <Fold>
5

$$$$