
     RDKit          3D

 45 47  0  0  0  0  0  0  0  0999 V2000
    3.9361   -1.6742    0.3790 C   0  0  0  0  0  0  0  0  0  0  0  0
    3.7316   -0.2153    0.4245 N   0  0  0  0  0  0  0  0  0  0  0  0
    5.0283    0.4542    0.6153 C   0  0  0  0  0  0  0  0  0  0  0  0
    3.0869    0.2751   -0.8147 C   0  0  0  0  0  0  0  0  0  0  0  0
    1.5762   -0.0046   -0.8229 C   0  0  0  0  0  0  0  0  0  0  0  0
    0.8668    0.6215    0.3863 C   0  0  0  0  0  0  0  0  0  0  0  0
   -0.5797    0.3489    0.3444 N   0  0  0  0  0  0  0  0  0  0  0  0
   -1.4899    1.4545    0.4069 C   0  0  0  0  0  0  0  0  0  0  0  0
   -1.5113    2.2951    1.5300 C   0  0  0  0  0  0  0  0  0  0  0  0
   -2.4043    3.3689    1.5848 C   0  0  0  0  0  0  0  0  0  0  0  0
   -3.2762    3.6083    0.5192 C   0  0  0  0  0  0  0  0  0  0  0  0
   -3.2516    2.7784   -0.6058 C   0  0  0  0  0  0  0  0  0  0  0  0
   -2.3480    1.7051   -0.6684 C   0  0  0  0  0  0  0  0  0  0  0  0
   -2.2958    0.7984   -1.8595 C   0  0  0  0  0  0  0  0  0  0  0  0
   -2.9003   -0.5644   -1.5251 C   0  0  0  0  0  0  0  0  0  0  0  0
   -2.1791   -1.4210   -0.4906 C   0  0  0  0  0  0  0  0  0  0  0  0
   -2.6483   -2.7444   -0.3779 C   0  0  0  0  0  0  0  0  0  0  0  0
   -2.0651   -3.6464    0.5091 C   0  0  0  0  0  0  0  0  0  0  0  0
   -1.0053   -3.2448    1.3129 C   0  0  0  0  0  0  0  0  0  0  0  0
   -0.5284   -1.9381    1.2380 C   0  0  0  0  0  0  0  0  0  0  0  0
   -1.0953   -1.0032    0.3468 C   0  0  0  0  0  0  0  0  0  0  0  0
    4.5497   -1.9717   -0.5004 H   0  0  0  0  0  0  0  0  0  0  0  0
    2.9622   -2.2033    0.3426 H   0  0  0  0  0  0  0  0  0  0  0  0
    4.4458   -2.0201    1.3042 H   0  0  0  0  0  0  0  0  0  0  0  0
    5.5156    0.0948    1.5474 H   0  0  0  0  0  0  0  0  0  0  0  0
    4.8798    1.5493    0.7318 H   0  0  0  0  0  0  0  0  0  0  0  0
    5.7082    0.2682   -0.2464 H   0  0  0  0  0  0  0  0  0  0  0  0
    3.2164    1.3774   -0.9107 H   0  0  0  0  0  0  0  0  0  0  0  0
    3.5530   -0.1828   -1.7166 H   0  0  0  0  0  0  0  0  0  0  0  0
    1.1469    0.4261   -1.7528 H   0  0  0  0  0  0  0  0  0  0  0  0
    1.3923   -1.0979   -0.8555 H   0  0  0  0  0  0  0  0  0  0  0  0
    1.2968    0.2383    1.3338 H   0  0  0  0  0  0  0  0  0  0  0  0
    1.0521    1.7190    0.3723 H   0  0  0  0  0  0  0  0  0  0  0  0
   -0.8436    2.1099    2.3619 H   0  0  0  0  0  0  0  0  0  0  0  0
   -2.4229    4.0131    2.4544 H   0  0  0  0  0  0  0  0  0  0  0  0
   -3.9704    4.4375    0.5645 H   0  0  0  0  0  0  0  0  0  0  0  0
   -3.9319    2.9743   -1.4251 H   0  0  0  0  0  0  0  0  0  0  0  0
   -2.8631    1.2438   -2.7061 H   0  0  0  0  0  0  0  0  0  0  0  0
   -1.2483    0.6751   -2.2081 H   0  0  0  0  0  0  0  0  0  0  0  0
   -2.9374   -1.1369   -2.4783 H   0  0  0  0  0  0  0  0  0  0  0  0
   -3.9530   -0.4208   -1.1952 H   0  0  0  0  0  0  0  0  0  0  0  0
   -3.4730   -3.0856   -0.9926 H   0  0  0  0  0  0  0  0  0  0  0  0
   -2.4388   -4.6602    0.5740 H   0  0  0  0  0  0  0  0  0  0  0  0
   -0.5578   -3.9452    2.0064 H   0  0  0  0  0  0  0  0  0  0  0  0
    0.2744   -1.6546    1.9032 H   0  0  0  0  0  0  0  0  0  0  0  0
  1  2  1  0
  2  3  1  0
  2  4  1  0
  4  5  1  0
  5  6  1  0
  6  7  1  0
  7  8  1  0
  8  9  2  0
  9 10  1  0
 10 11  2  0
 11 12  1  0
 12 13  2  0
 13  8  1  0
 13 14  1  0
 14 15  1  0
 15 16  1  0
 16 17  2  0
 17 18  1  0
 18 19  2  0
 19 20  1  0
 20 21  2  0
 21  7  1  0
 21 16  1  0
  1 22  1  0
  1 23  1  0
  1 24  1  0
  3 25  1  0
  3 26  1  0
  3 27  1  0
  4 28  1  0
  4 29  1  0
  5 30  1  0
  5 31  1  0
  6 32  1  0
  6 33  1  0
  9 34  1  0
 10 35  1  0
 11 36  1  0
 12 37  1  0
 14 38  1  0
 14 39  1  0
 15 40  1  0
 15 41  1  0
 17 42  1  0
 18 43  1  0
 19 44  1  0
 20 45  1  0
M  END
> <ID>
HT1082

> <Class>
1.0

> <Clusters>
131

> <Fold>
5

$$$$