
     RDKit          3D

 49 50  0  0  0  0  0  0  0  0999 V2000
   -5.9165   -1.2612    1.4176 C   0  0  0  0  0  0  0  0  0  0  0  0
   -4.4498   -1.1336    1.8272 C   0  0  0  0  0  0  0  0  0  0  0  0
   -3.6636   -0.4338    0.7842 N   0  0  0  0  0  0  0  0  0  0  0  0
   -3.9154    1.0327    0.8023 C   0  0  0  0  0  0  0  0  0  0  0  0
   -4.3506    1.5106   -0.5829 C   0  0  0  0  0  0  0  0  0  0  0  0
   -5.5578    0.9002   -0.9447 O   0  0  0  0  0  0  0  0  0  0  0  0
   -2.2229   -0.7484    0.9373 C   0  0  0  0  0  0  0  0  0  0  0  0
   -1.4236   -0.3533   -0.3141 C   0  0  0  0  0  0  0  0  0  0  0  0
    0.0243   -0.8616   -0.2289 C   0  0  0  0  0  0  0  0  0  0  0  0
    0.9054   -0.3535   -1.3873 C   0  0  0  0  0  0  0  0  0  0  0  0
    0.5032   -0.9686   -2.7322 C   0  0  0  0  0  0  0  0  0  0  0  0
    2.3036   -0.6892   -1.1057 N   0  0  0  0  0  0  0  0  0  0  0  0
    3.3350    0.3059   -0.9854 C   0  0  0  0  0  0  0  0  0  0  0  0
    3.4164    1.3418   -1.9293 C   0  0  0  0  0  0  0  0  0  0  0  0
    4.4437    2.2811   -1.8474 C   0  0  0  0  0  0  0  0  0  0  0  0
    5.3700    2.1962   -0.8593 N   0  0  0  0  0  0  0  0  0  0  0  0
    5.3313    1.2120    0.0771 C   0  0  0  0  0  0  0  0  0  0  0  0
    6.3065    1.1731    1.0801 C   0  0  0  0  0  0  0  0  0  0  0  0
    6.2675    0.1771    2.0595 C   0  0  0  0  0  0  0  0  0  0  0  0
    7.4905    0.1350    3.3164 Cl  0  0  0  0  0  0  0  0  0  0  0  0
    5.2495   -0.7801    2.0434 C   0  0  0  0  0  0  0  0  0  0  0  0
    4.2704   -0.7530    1.0458 C   0  0  0  0  0  0  0  0  0  0  0  0
    4.3048    0.2352    0.0415 C   0  0  0  0  0  0  0  0  0  0  0  0
   -6.4121   -0.2692    1.3925 H   0  0  0  0  0  0  0  0  0  0  0  0
   -5.9922   -1.7349    0.4158 H   0  0  0  0  0  0  0  0  0  0  0  0
   -6.4537   -1.8965    2.1532 H   0  0  0  0  0  0  0  0  0  0  0  0
   -4.3682   -0.6135    2.8084 H   0  0  0  0  0  0  0  0  0  0  0  0
   -4.0776   -2.1720    1.9735 H   0  0  0  0  0  0  0  0  0  0  0  0
   -4.7086    1.3205    1.5280 H   0  0  0  0  0  0  0  0  0  0  0  0
   -3.0157    1.6108    1.1112 H   0  0  0  0  0  0  0  0  0  0  0  0
   -3.5677    1.2691   -1.3340 H   0  0  0  0  0  0  0  0  0  0  0  0
   -4.4850    2.6150   -0.5570 H   0  0  0  0  0  0  0  0  0  0  0  0
   -5.7844    1.2502   -1.8452 H   0  0  0  0  0  0  0  0  0  0  0  0
   -1.8029   -0.2468    1.8389 H   0  0  0  0  0  0  0  0  0  0  0  0
   -2.0868   -1.8450    1.0729 H   0  0  0  0  0  0  0  0  0  0  0  0
   -1.4090    0.7523   -0.4158 H   0  0  0  0  0  0  0  0  0  0  0  0
   -1.9225   -0.7898   -1.2053 H   0  0  0  0  0  0  0  0  0  0  0  0
    0.4679   -0.5052    0.7275 H   0  0  0  0  0  0  0  0  0  0  0  0
    0.0316   -1.9739   -0.2099 H   0  0  0  0  0  0  0  0  0  0  0  0
    0.7889    0.7508   -1.4569 H   0  0  0  0  0  0  0  0  0  0  0  0
    1.2246   -0.6583   -3.5177 H   0  0  0  0  0  0  0  0  0  0  0  0
    0.5016   -2.0779   -2.6712 H   0  0  0  0  0  0  0  0  0  0  0  0
   -0.5029   -0.6166   -3.0402 H   0  0  0  0  0  0  0  0  0  0  0  0
    2.5477   -1.6943   -0.9550 H   0  0  0  0  0  0  0  0  0  0  0  0
    2.7033    1.4089   -2.7408 H   0  0  0  0  0  0  0  0  0  0  0  0
    4.5099    3.0761   -2.5780 H   0  0  0  0  0  0  0  0  0  0  0  0
    7.0919    1.9190    1.1014 H   0  0  0  0  0  0  0  0  0  0  0  0
    5.2126   -1.5453    2.8084 H   0  0  0  0  0  0  0  0  0  0  0  0
    3.4875   -1.4980    1.0803 H   0  0  0  0  0  0  0  0  0  0  0  0
  1  2  1  0
  2  3  1  0
  3  4  1  0
  4  5  1  0
  5  6  1  0
  3  7  1  0
  7  8  1  0
  8  9  1  0
  9 10  1  0
 10 11  1  0
 10 12  1  0
 12 13  1  0
 13 14  2  0
 14 15  1  0
 15 16  2  0
 16 17  1  0
 17 18  2  0
 18 19  1  0
 19 20  1  0
 19 21  2  0
 21 22  1  0
 22 23  2  0
 23 13  1  0
 23 17  1  0
  1 24  1  0
  1 25  1  0
  1 26  1  0
  2 27  1  0
  2 28  1  0
  4 29  1  0
  4 30  1  0
  5 31  1  0
  5 32  1  0
  6 33  1  0
  7 34  1  0
  7 35  1  0
  8 36  1  0
  8 37  1  0
  9 38  1  0
  9 39  1  0
 10 40  1  0
 11 41  1  0
 11 42  1  0
 11 43  1  0
 12 44  1  0
 14 45  1  0
 15 46  1  0
 18 47  1  0
 21 48  1  0
 22 49  1  0
M  END
> <ID>
HT1061

> <Class>
1.0

> <Clusters>
52

> <Fold>
5

$$$$