
     RDKit          3D

 33 34  0  0  0  0  0  0  0  0999 V2000
   -2.0840    2.3670    0.1995 C   0  0  0  0  0  0  0  0  0  0  0  0
   -2.7415    1.0380   -0.2027 C   0  0  0  0  0  0  0  0  0  0  0  0
   -2.8239    0.8585   -1.7004 C   0  0  0  0  0  0  0  0  0  0  0  0
   -2.2503    1.6628   -2.4832 O   0  0  0  0  0  0  0  0  0  0  0  0
   -3.5384   -0.2102   -2.2345 O   0  0  0  0  0  0  0  0  0  0  0  0
   -2.0085   -0.1293    0.4257 C   0  0  0  0  0  0  0  0  0  0  0  0
   -2.6543   -0.9416    1.3722 C   0  0  0  0  0  0  0  0  0  0  0  0
   -1.9843   -2.0218    1.9498 C   0  0  0  0  0  0  0  0  0  0  0  0
   -0.6620   -2.2996    1.5971 C   0  0  0  0  0  0  0  0  0  0  0  0
    0.0096   -1.4919    0.6650 C   0  0  0  0  0  0  0  0  0  0  0  0
   -0.6780   -0.4190    0.0697 C   0  0  0  0  0  0  0  0  0  0  0  0
    1.4105   -1.8017    0.2886 C   0  0  0  0  0  0  0  0  0  0  0  0
    1.7891   -3.0051    0.2905 O   0  0  0  0  0  0  0  0  0  0  0  0
    2.3822   -0.7465   -0.0899 C   0  0  0  0  0  0  0  0  0  0  0  0
    2.3302    0.5320    0.4975 C   0  0  0  0  0  0  0  0  0  0  0  0
    3.2607    1.5126    0.1406 C   0  0  0  0  0  0  0  0  0  0  0  0
    4.2575    1.2256   -0.7947 C   0  0  0  0  0  0  0  0  0  0  0  0
    4.3292   -0.0448   -1.3710 C   0  0  0  0  0  0  0  0  0  0  0  0
    3.4007   -1.0290   -1.0178 C   0  0  0  0  0  0  0  0  0  0  0  0
   -1.0418    2.4325   -0.1802 H   0  0  0  0  0  0  0  0  0  0  0  0
   -2.0658    2.4612    1.3064 H   0  0  0  0  0  0  0  0  0  0  0  0
   -2.6672    3.2192   -0.2104 H   0  0  0  0  0  0  0  0  0  0  0  0
   -3.7873    1.0730    0.1751 H   0  0  0  0  0  0  0  0  0  0  0  0
   -4.0130   -0.8747   -1.6349 H   0  0  0  0  0  0  0  0  0  0  0  0
   -3.6784   -0.7425    1.6622 H   0  0  0  0  0  0  0  0  0  0  0  0
   -2.4911   -2.6451    2.6752 H   0  0  0  0  0  0  0  0  0  0  0  0
   -0.1592   -3.1387    2.0620 H   0  0  0  0  0  0  0  0  0  0  0  0
   -0.1865    0.1844   -0.6834 H   0  0  0  0  0  0  0  0  0  0  0  0
    1.5803    0.7693    1.2415 H   0  0  0  0  0  0  0  0  0  0  0  0
    3.2122    2.4941    0.5943 H   0  0  0  0  0  0  0  0  0  0  0  0
    4.9776    1.9857   -1.0688 H   0  0  0  0  0  0  0  0  0  0  0  0
    5.1051   -0.2676   -2.0921 H   0  0  0  0  0  0  0  0  0  0  0  0
    3.4705   -2.0069   -1.4782 H   0  0  0  0  0  0  0  0  0  0  0  0
  1  2  1  0
  2  3  1  0
  3  4  2  0
  3  5  1  0
  2  6  1  0
  6  7  2  0
  7  8  1  0
  8  9  2  0
  9 10  1  0
 10 11  2  0
 11  6  1  0
 10 12  1  0
 12 13  2  0
 12 14  1  0
 14 15  2  0
 15 16  1  0
 16 17  2  0
 17 18  1  0
 18 19  2  0
 19 14  1  0
  1 20  1  0
  1 21  1  0
  1 22  1  0
  2 23  1  0
  5 24  1  0
  7 25  1  0
  8 26  1  0
  9 27  1  0
 11 28  1  0
 15 29  1  0
 16 30  1  0
 17 31  1  0
 18 32  1  0
 19 33  1  0
M  END
> <ID>
HT1160

> <Class>
1.0

> <Clusters>
142

> <Fold>
5

$$$$