
     RDKit          3D

 42 44  0  0  0  0  0  0  0  0999 V2000
    4.8458    0.2307   -1.9368 C   0  0  0  0  0  0  0  0  0  0  0  0
    4.2734   -0.8040   -1.0160 C   0  0  0  0  0  0  0  0  0  0  0  0
    4.8903   -1.8379   -0.8070 O   0  0  0  0  0  0  0  0  0  0  0  0
    2.9391   -0.5841   -0.3581 C   0  0  0  0  0  0  0  0  0  0  0  0
    3.1000   -0.4502    1.1678 C   0  0  0  0  0  0  0  0  0  0  0  0
    1.7777   -0.1943    1.9190 C   0  0  0  0  0  0  0  0  0  0  0  0
    0.7334   -1.2339    1.6378 C   0  0  0  0  0  0  0  0  0  0  0  0
    0.8709   -2.4624    1.8822 O   0  0  0  0  0  0  0  0  0  0  0  0
   -0.4280   -0.6754    1.0254 N   0  0  0  0  0  0  0  0  0  0  0  0
   -0.2213    0.7033    0.8785 N   0  0  0  0  0  0  0  0  0  0  0  0
    1.0562    1.0242    1.4265 C   0  0  0  0  0  0  0  0  0  0  0  0
    1.4966    2.2002    1.5305 O   0  0  0  0  0  0  0  0  0  0  0  0
   -1.2423    1.6592    0.5432 C   0  0  0  0  0  0  0  0  0  0  0  0
   -2.5600    1.4842    0.9984 C   0  0  0  0  0  0  0  0  0  0  0  0
   -3.5515    2.4100    0.6599 C   0  0  0  0  0  0  0  0  0  0  0  0
   -3.2352    3.5167   -0.1326 C   0  0  0  0  0  0  0  0  0  0  0  0
   -1.9264    3.6994   -0.5870 C   0  0  0  0  0  0  0  0  0  0  0  0
   -0.9323    2.7754   -0.2506 C   0  0  0  0  0  0  0  0  0  0  0  0
   -1.4142   -1.4368    0.3079 C   0  0  0  0  0  0  0  0  0  0  0  0
   -2.0540   -2.5228    0.9260 C   0  0  0  0  0  0  0  0  0  0  0  0
   -3.0175   -3.2613    0.2320 C   0  0  0  0  0  0  0  0  0  0  0  0
   -3.3458   -2.9227   -1.0836 C   0  0  0  0  0  0  0  0  0  0  0  0
   -2.7097   -1.8462   -1.7076 C   0  0  0  0  0  0  0  0  0  0  0  0
   -1.7458   -1.1058   -1.0167 C   0  0  0  0  0  0  0  0  0  0  0  0
    4.1558    0.3923   -2.7912 H   0  0  0  0  0  0  0  0  0  0  0  0
    4.9768    1.1859   -1.3866 H   0  0  0  0  0  0  0  0  0  0  0  0
    5.8326   -0.0954   -2.3294 H   0  0  0  0  0  0  0  0  0  0  0  0
    2.2776   -1.4425   -0.6028 H   0  0  0  0  0  0  0  0  0  0  0  0
    2.4711    0.3365   -0.7689 H   0  0  0  0  0  0  0  0  0  0  0  0
    3.5581   -1.3800    1.5713 H   0  0  0  0  0  0  0  0  0  0  0  0
    3.7985    0.3871    1.3881 H   0  0  0  0  0  0  0  0  0  0  0  0
    1.9575   -0.1190    3.0129 H   0  0  0  0  0  0  0  0  0  0  0  0
   -2.8169    0.6388    1.6234 H   0  0  0  0  0  0  0  0  0  0  0  0
   -4.5647    2.2707    1.0140 H   0  0  0  0  0  0  0  0  0  0  0  0
   -4.0038    4.2324   -0.3942 H   0  0  0  0  0  0  0  0  0  0  0  0
   -1.6828    4.5550   -1.2035 H   0  0  0  0  0  0  0  0  0  0  0  0
    0.0736    2.9193   -0.6236 H   0  0  0  0  0  0  0  0  0  0  0  0
   -1.8180   -2.7861    1.9491 H   0  0  0  0  0  0  0  0  0  0  0  0
   -3.5116   -4.0943    0.7151 H   0  0  0  0  0  0  0  0  0  0  0  0
   -4.0919   -3.4950   -1.6196 H   0  0  0  0  0  0  0  0  0  0  0  0
   -2.9612   -1.5873   -2.7280 H   0  0  0  0  0  0  0  0  0  0  0  0
   -1.2504   -0.2839   -1.5173 H   0  0  0  0  0  0  0  0  0  0  0  0
  1  2  1  0
  2  3  2  0
  2  4  1  0
  4  5  1  0
  5  6  1  0
  6  7  1  0
  7  8  2  0
  7  9  1  0
  9 10  1  0
 10 11  1  0
 11  6  1  0
 11 12  2  0
 10 13  1  0
 13 14  2  0
 14 15  1  0
 15 16  2  0
 16 17  1  0
 17 18  2  0
 18 13  1  0
  9 19  1  0
 19 20  2  0
 20 21  1  0
 21 22  2  0
 22 23  1  0
 23 24  2  0
 24 19  1  0
  1 25  1  0
  1 26  1  0
  1 27  1  0
  4 28  1  0
  4 29  1  0
  5 30  1  0
  5 31  1  0
  6 32  1  0
 14 33  1  0
 15 34  1  0
 16 35  1  0
 17 36  1  0
 18 37  1  0
 20 38  1  0
 21 39  1  0
 22 40  1  0
 23 41  1  0
 24 42  1  0
M  END
> <ID>
HT1156

> <Class>
1.0

> <Clusters>
195

> <Fold>
5

$$$$