
     RDKit          3D

 49 51  0  0  0  0  0  0  0  0999 V2000
    5.0902   -0.2342    0.0470 C   0  0  0  0  0  0  0  0  0  0  0  0
    4.2779    0.9360   -0.3306 N   0  0  0  0  0  0  0  0  0  0  0  0
    5.1653    2.0302   -0.7561 C   0  0  0  0  0  0  0  0  0  0  0  0
    3.4262    1.3825    0.7950 C   0  0  0  0  0  0  0  0  0  0  0  0
    2.1718    0.5084    0.9423 C   0  0  0  0  0  0  0  0  0  0  0  0
    1.3268    0.4929   -0.3359 C   0  0  0  0  0  0  0  0  0  0  0  0
    0.1214   -0.3200   -0.1344 N   0  0  0  0  0  0  0  0  0  0  0  0
   -1.0920    0.0919    0.3313 C   0  0  0  0  0  0  0  0  0  0  0  0
   -1.3897    1.4757    0.8585 C   0  0  0  0  0  0  0  0  0  0  0  0
   -2.4559    2.2226    0.0302 C   0  0  0  0  0  0  0  0  0  0  0  0
   -3.8761    2.1118    0.6288 C   0  0  0  0  0  0  0  0  0  0  0  0
   -4.8193    1.1343   -0.0974 C   0  0  0  0  0  0  0  0  0  0  0  0
   -4.2349   -0.2418   -0.4595 C   0  0  0  0  0  0  0  0  0  0  0  0
   -3.4557   -0.9304    0.6784 C   0  0  0  0  0  0  0  0  0  0  0  0
   -1.9888   -0.9799    0.3496 C   0  0  0  0  0  0  0  0  0  0  0  0
   -1.2797   -2.0714   -0.1187 C   0  0  0  0  0  0  0  0  0  0  0  0
   -1.6700   -3.3959   -0.3327 C   0  0  0  0  0  0  0  0  0  0  0  0
   -0.7094   -4.2960   -0.8238 C   0  0  0  0  0  0  0  0  0  0  0  0
    0.6053   -3.8621   -1.0908 C   0  0  0  0  0  0  0  0  0  0  0  0
    0.9703   -2.5219   -0.8773 C   0  0  0  0  0  0  0  0  0  0  0  0
   -0.0054   -1.6402   -0.3954 C   0  0  0  0  0  0  0  0  0  0  0  0
    5.7412   -0.0121    0.9219 H   0  0  0  0  0  0  0  0  0  0  0  0
    5.7311   -0.5477   -0.8053 H   0  0  0  0  0  0  0  0  0  0  0  0
    4.4399   -1.1001    0.2856 H   0  0  0  0  0  0  0  0  0  0  0  0
    4.5636    2.8893   -1.1233 H   0  0  0  0  0  0  0  0  0  0  0  0
    5.8066    1.7012   -1.6024 H   0  0  0  0  0  0  0  0  0  0  0  0
    5.8143    2.3712    0.0816 H   0  0  0  0  0  0  0  0  0  0  0  0
    3.0784    2.4281    0.6311 H   0  0  0  0  0  0  0  0  0  0  0  0
    3.9940    1.3799    1.7531 H   0  0  0  0  0  0  0  0  0  0  0  0
    1.5594    0.9124    1.7773 H   0  0  0  0  0  0  0  0  0  0  0  0
    2.4522   -0.5294    1.2179 H   0  0  0  0  0  0  0  0  0  0  0  0
    1.0516    1.5253   -0.6375 H   0  0  0  0  0  0  0  0  0  0  0  0
    1.9208    0.0841   -1.1798 H   0  0  0  0  0  0  0  0  0  0  0  0
   -1.6831    1.3942    1.9263 H   0  0  0  0  0  0  0  0  0  0  0  0
   -0.4676    2.0889    0.8689 H   0  0  0  0  0  0  0  0  0  0  0  0
   -2.1790    3.3003    0.0322 H   0  0  0  0  0  0  0  0  0  0  0  0
   -2.4325    1.9104   -1.0364 H   0  0  0  0  0  0  0  0  0  0  0  0
   -4.3523    3.1159    0.5769 H   0  0  0  0  0  0  0  0  0  0  0  0
   -3.8461    1.8680    1.7117 H   0  0  0  0  0  0  0  0  0  0  0  0
   -5.1733    1.6141   -1.0361 H   0  0  0  0  0  0  0  0  0  0  0  0
   -5.7160    0.9816    0.5423 H   0  0  0  0  0  0  0  0  0  0  0  0
   -3.6109   -0.1447   -1.3760 H   0  0  0  0  0  0  0  0  0  0  0  0
   -5.0844   -0.8973   -0.7526 H   0  0  0  0  0  0  0  0  0  0  0  0
   -3.6076   -0.4360    1.6596 H   0  0  0  0  0  0  0  0  0  0  0  0
   -3.8425   -1.9636    0.8001 H   0  0  0  0  0  0  0  0  0  0  0  0
   -2.6771   -3.7321   -0.1279 H   0  0  0  0  0  0  0  0  0  0  0  0
   -0.9798   -5.3297   -0.9959 H   0  0  0  0  0  0  0  0  0  0  0  0
    1.3382   -4.5657   -1.4635 H   0  0  0  0  0  0  0  0  0  0  0  0
    1.9824   -2.1988   -1.0785 H   0  0  0  0  0  0  0  0  0  0  0  0
  1  2  1  0
  2  3  1  0
  2  4  1  0
  4  5  1  0
  5  6  1  0
  6  7  1  0
  7  8  1  0
  8  9  1  0
  9 10  1  0
 10 11  1  0
 11 12  1  0
 12 13  1  0
 13 14  1  0
 14 15  1  0
 15  8  2  0
 15 16  1  0
 16 17  2  0
 17 18  1  0
 18 19  2  0
 19 20  1  0
 20 21  2  0
 21  7  1  0
 21 16  1  0
  1 22  1  0
  1 23  1  0
  1 24  1  0
  3 25  1  0
  3 26  1  0
  3 27  1  0
  4 28  1  0
  4 29  1  0
  5 30  1  0
  5 31  1  0
  6 32  1  0
  6 33  1  0
  9 34  1  0
  9 35  1  0
 10 36  1  0
 10 37  1  0
 11 38  1  0
 11 39  1  0
 12 40  1  0
 12 41  1  0
 13 42  1  0
 13 43  1  0
 14 44  1  0
 14 45  1  0
 17 46  1  0
 18 47  1  0
 19 48  1  0
 20 49  1  0
M  END
> <ID>
HT1121

> <Class>
1.0

> <Clusters>
131

> <Fold>
5

$$$$