
     RDKit          3D

 52 54  0  0  0  0  0  0  0  0999 V2000
    7.5196   -1.1454    2.0443 O   0  0  0  0  0  0  0  0  0  0  0  0
    6.1797   -1.0395    2.4053 C   0  0  0  0  0  0  0  0  0  0  0  0
    5.8671   -1.0120    3.6250 O   0  0  0  0  0  0  0  0  0  0  0  0
    5.1160   -0.9129    1.3571 C   0  0  0  0  0  0  0  0  0  0  0  0
    4.9632    0.5511    0.9244 C   0  0  0  0  0  0  0  0  0  0  0  0
    3.9973    0.7209   -0.2588 C   0  0  0  0  0  0  0  0  0  0  0  0
    2.5325    0.4771    0.1330 C   0  0  0  0  0  0  0  0  0  0  0  0
    1.5944    0.7715   -1.0438 C   0  0  0  0  0  0  0  0  0  0  0  0
    0.1331    0.5251   -0.6597 C   0  0  0  0  0  0  0  0  0  0  0  0
   -0.7362    0.7872   -1.8143 N   0  0  0  0  0  0  0  0  0  0  0  0
   -2.1523    0.4318   -1.5771 C   0  0  0  0  0  0  0  0  0  0  0  0
   -2.7894    1.3904   -0.5585 C   0  0  0  0  0  0  0  0  0  0  0  0
   -3.1373    2.6746   -1.0339 C   0  0  0  0  0  0  0  0  0  0  0  0
   -3.5950    3.6692   -0.1704 C   0  0  0  0  0  0  0  0  0  0  0  0
   -3.7031    3.4128    1.1916 C   0  0  0  0  0  0  0  0  0  0  0  0
   -3.3655    2.1574    1.6915 C   0  0  0  0  0  0  0  0  0  0  0  0
   -2.9075    1.1385    0.8334 C   0  0  0  0  0  0  0  0  0  0  0  0
   -2.6785   -0.2253    1.4083 C   0  0  0  0  0  0  0  0  0  0  0  0
   -3.6119   -1.2128    0.7209 C   0  0  0  0  0  0  0  0  0  0  0  0
   -2.9505   -1.8450   -0.4707 C   0  0  0  0  0  0  0  0  0  0  0  0
   -2.9820   -3.2523   -0.5541 C   0  0  0  0  0  0  0  0  0  0  0  0
   -2.4248   -3.9206   -1.6405 C   0  0  0  0  0  0  0  0  0  0  0  0
   -1.8309   -3.1992   -2.6674 C   0  0  0  0  0  0  0  0  0  0  0  0
   -1.7832   -1.8083   -2.6050 C   0  0  0  0  0  0  0  0  0  0  0  0
   -2.3212   -1.0958   -1.5086 C   0  0  0  0  0  0  0  0  0  0  0  0
    7.8009   -1.1494    1.0709 H   0  0  0  0  0  0  0  0  0  0  0  0
    4.1573   -1.2944    1.7679 H   0  0  0  0  0  0  0  0  0  0  0  0
    5.3924   -1.5411    0.4830 H   0  0  0  0  0  0  0  0  0  0  0  0
    5.9580    0.9386    0.6112 H   0  0  0  0  0  0  0  0  0  0  0  0
    4.6183    1.1662    1.7848 H   0  0  0  0  0  0  0  0  0  0  0  0
    4.2884    0.0344   -1.0839 H   0  0  0  0  0  0  0  0  0  0  0  0
    4.0984    1.7622   -0.6363 H   0  0  0  0  0  0  0  0  0  0  0  0
    2.2640    1.1339    0.9896 H   0  0  0  0  0  0  0  0  0  0  0  0
    2.3987   -0.5816    0.4414 H   0  0  0  0  0  0  0  0  0  0  0  0
    1.7163    1.8315   -1.3583 H   0  0  0  0  0  0  0  0  0  0  0  0
    1.8598    0.1157   -1.9024 H   0  0  0  0  0  0  0  0  0  0  0  0
    0.0330   -0.5352   -0.3419 H   0  0  0  0  0  0  0  0  0  0  0  0
   -0.1376    1.1938    0.1869 H   0  0  0  0  0  0  0  0  0  0  0  0
   -0.6723    1.8035   -2.0605 H   0  0  0  0  0  0  0  0  0  0  0  0
   -2.6818    0.6661   -2.5294 H   0  0  0  0  0  0  0  0  0  0  0  0
   -3.0339    2.9177   -2.0847 H   0  0  0  0  0  0  0  0  0  0  0  0
   -3.8544    4.6456   -0.5587 H   0  0  0  0  0  0  0  0  0  0  0  0
   -4.0559    4.1862    1.8618 H   0  0  0  0  0  0  0  0  0  0  0  0
   -3.4770    1.9773    2.7538 H   0  0  0  0  0  0  0  0  0  0  0  0
   -2.8993   -0.2333    2.4987 H   0  0  0  0  0  0  0  0  0  0  0  0
   -1.6151   -0.5242    1.3102 H   0  0  0  0  0  0  0  0  0  0  0  0
   -4.5593   -0.7252    0.3978 H   0  0  0  0  0  0  0  0  0  0  0  0
   -3.9048   -1.9861    1.4657 H   0  0  0  0  0  0  0  0  0  0  0  0
   -3.4520   -3.8429    0.2232 H   0  0  0  0  0  0  0  0  0  0  0  0
   -2.4611   -5.0014   -1.6892 H   0  0  0  0  0  0  0  0  0  0  0  0
   -1.4036   -3.7183   -3.5159 H   0  0  0  0  0  0  0  0  0  0  0  0
   -1.3112   -1.2779   -3.4236 H   0  0  0  0  0  0  0  0  0  0  0  0
  1  2  1  0
  2  3  2  0
  2  4  1  0
  4  5  1  0
  5  6  1  0
  6  7  1  0
  7  8  1  0
  8  9  1  0
  9 10  1  0
 10 11  1  0
 11 12  1  0
 12 13  2  0
 13 14  1  0
 14 15  2  0
 15 16  1  0
 16 17  2  0
 17 12  1  0
 17 18  1  0
 18 19  1  0
 19 20  1  0
 20 21  2  0
 21 22  1  0
 22 23  2  0
 23 24  1  0
 24 25  2  0
 25 11  1  0
 25 20  1  0
  1 26  1  0
  4 27  1  0
  4 28  1  0
  5 29  1  0
  5 30  1  0
  6 31  1  0
  6 32  1  0
  7 33  1  0
  7 34  1  0
  8 35  1  0
  8 36  1  0
  9 37  1  0
  9 38  1  0
 10 39  1  0
 11 40  1  0
 13 41  1  0
 14 42  1  0
 15 43  1  0
 16 44  1  0
 18 45  1  0
 18 46  1  0
 19 47  1  0
 19 48  1  0
 21 49  1  0
 22 50  1  0
 23 51  1  0
 24 52  1  0
M  END
> <ID>
HT0132

> <Class>
1.0

> <Clusters>
131

> <Fold>
5

$$$$