
     RDKit          3D

 48 50  0  0  0  0  0  0  0  0999 V2000
   -4.9983   -0.8712   -0.1378 C   0  0  0  0  0  0  0  0  0  0  0  0
   -3.6309   -1.0502    0.2222 O   0  0  0  0  0  0  0  0  0  0  0  0
   -2.7379   -1.8803   -0.4661 C   0  0  0  0  0  0  0  0  0  0  0  0
   -3.1379   -2.5888   -1.4300 O   0  0  0  0  0  0  0  0  0  0  0  0
   -1.3084   -1.9159   -0.0636 C   0  0  0  0  0  0  0  0  0  0  0  0
   -0.6165   -3.1441    0.0396 C   0  0  0  0  0  0  0  0  0  0  0  0
   -1.2861   -4.4676   -0.1977 C   0  0  0  0  0  0  0  0  0  0  0  0
    0.7002   -3.1495    0.3664 N   0  0  0  0  0  0  0  0  0  0  0  0
    1.4089   -2.0204    0.6165 C   0  0  0  0  0  0  0  0  0  0  0  0
    2.8606   -2.1653    0.9756 C   0  0  0  0  0  0  0  0  0  0  0  0
    0.7740   -0.7622    0.5330 C   0  0  0  0  0  0  0  0  0  0  0  0
    1.5508    0.4826    0.7480 C   0  0  0  0  0  0  0  0  0  0  0  0
    1.1016    1.3859    1.5049 O   0  0  0  0  0  0  0  0  0  0  0  0
    2.7809    0.6490    0.1015 O   0  0  0  0  0  0  0  0  0  0  0  0
    3.6397    1.7688    0.3131 C   0  0  0  0  0  0  0  0  0  0  0  0
    4.6556    1.8329   -0.8252 C   0  0  0  0  0  0  0  0  0  0  0  0
    4.3532    1.6374    1.6615 C   0  0  0  0  0  0  0  0  0  0  0  0
   -0.6040   -0.7154    0.2060 C   0  0  0  0  0  0  0  0  0  0  0  0
   -1.2749    0.5915    0.0242 C   0  0  0  0  0  0  0  0  0  0  0  0
   -1.8918    1.2621    1.1047 C   0  0  0  0  0  0  0  0  0  0  0  0
   -2.5544    2.4944    0.8921 C   0  0  0  0  0  0  0  0  0  0  0  0
   -2.5974    3.0642   -0.3958 C   0  0  0  0  0  0  0  0  0  0  0  0
   -1.9617    2.3706   -1.4221 C   0  0  0  0  0  0  0  0  0  0  0  0
   -1.8439    2.6819   -2.7937 N   0  0  0  0  0  0  0  0  0  0  0  0
   -1.1631    1.6938   -3.4644 O   0  0  0  0  0  0  0  0  0  0  0  0
   -0.8679    0.7742   -2.4864 N   0  0  0  0  0  0  0  0  0  0  0  0
   -1.3551    1.1988   -1.2303 C   0  0  0  0  0  0  0  0  0  0  0  0
   -5.2775   -1.4569   -1.0386 H   0  0  0  0  0  0  0  0  0  0  0  0
   -5.1797    0.2039   -0.3433 H   0  0  0  0  0  0  0  0  0  0  0  0
   -5.6416   -1.1876    0.7087 H   0  0  0  0  0  0  0  0  0  0  0  0
   -2.2523   -4.5167    0.3473 H   0  0  0  0  0  0  0  0  0  0  0  0
   -1.4574   -4.6132   -1.2845 H   0  0  0  0  0  0  0  0  0  0  0  0
   -0.6450   -5.2975    0.1688 H   0  0  0  0  0  0  0  0  0  0  0  0
    3.4929   -1.8787    0.1097 H   0  0  0  0  0  0  0  0  0  0  0  0
    3.0902   -3.2188    1.2425 H   0  0  0  0  0  0  0  0  0  0  0  0
    3.1105   -1.5291    1.8509 H   0  0  0  0  0  0  0  0  0  0  0  0
    3.0443    2.7089    0.2997 H   0  0  0  0  0  0  0  0  0  0  0  0
    5.3246    2.7105   -0.6969 H   0  0  0  0  0  0  0  0  0  0  0  0
    4.1244    1.9345   -1.7953 H   0  0  0  0  0  0  0  0  0  0  0  0
    5.2691    0.9068   -0.8508 H   0  0  0  0  0  0  0  0  0  0  0  0
    5.0402    2.4961    1.8187 H   0  0  0  0  0  0  0  0  0  0  0  0
    4.9365    0.6925    1.6995 H   0  0  0  0  0  0  0  0  0  0  0  0
    3.6124    1.6301    2.4879 H   0  0  0  0  0  0  0  0  0  0  0  0
   -1.8684    0.8311    2.0977 H   0  0  0  0  0  0  0  0  0  0  0  0
   -3.0310    3.0004    1.7214 H   0  0  0  0  0  0  0  0  0  0  0  0
   -3.0982    4.0057   -0.5788 H   0  0  0  0  0  0  0  0  0  0  0  0
   -2.5131    3.3208   -3.2772 H   0  0  0  0  0  0  0  0  0  0  0  0
   -0.0762    0.1000   -2.5794 H   0  0  0  0  0  0  0  0  0  0  0  0
  1  2  1  0
  2  3  1  0
  3  4  2  0
  3  5  1  0
  5  6  2  0
  6  7  1  0
  6  8  1  0
  8  9  2  0
  9 10  1  0
  9 11  1  0
 11 12  1  0
 12 13  2  0
 12 14  1  0
 14 15  1  0
 15 16  1  0
 15 17  1  0
 11 18  2  0
 18  5  1  0
 18 19  1  0
 19 20  2  0
 20 21  1  0
 21 22  2  0
 22 23  1  0
 23 24  1  0
 24 25  1  0
 25 26  1  0
 26 27  1  0
 27 19  1  0
 27 23  2  0
  1 28  1  0
  1 29  1  0
  1 30  1  0
  7 31  1  0
  7 32  1  0
  7 33  1  0
 10 34  1  0
 10 35  1  0
 10 36  1  0
 15 37  1  0
 16 38  1  0
 16 39  1  0
 16 40  1  0
 17 41  1  0
 17 42  1  0
 17 43  1  0
 20 44  1  0
 21 45  1  0
 22 46  1  0
 24 47  1  0
 26 48  1  0
M  END
> <ID>
HT1146

> <Class>
1.0

> <Clusters>
102

> <Fold>
5

$$$$