
     RDKit          3D

 46 48  0  0  0  0  0  0  0  0999 V2000
    5.2358    0.1486   -0.8879 C   0  0  0  0  0  0  0  0  0  0  0  0
    3.8243   -0.2461   -1.0534 N   0  0  0  0  0  0  0  0  0  0  0  0
    3.7236   -1.7169   -1.1355 C   0  0  0  0  0  0  0  0  0  0  0  0
    3.3887    0.2780   -2.2287 O   0  0  0  0  0  0  0  0  0  0  0  0
    3.0128    0.3166    0.0566 C   0  0  0  0  0  0  0  0  0  0  0  0
    1.5014    0.0323   -0.0752 C   0  0  0  0  0  0  0  0  0  0  0  0
    0.7025    0.7925    0.9921 C   0  0  0  0  0  0  0  0  0  0  0  0
   -0.7365    0.4900    0.8901 N   0  0  0  0  0  0  0  0  0  0  0  0
   -1.7018    1.5467    0.6928 C   0  0  0  0  0  0  0  0  0  0  0  0
   -1.5754    2.7176    1.4674 C   0  0  0  0  0  0  0  0  0  0  0  0
   -2.4668    3.7782    1.3223 C   0  0  0  0  0  0  0  0  0  0  0  0
   -3.5122    3.6883    0.4109 C   0  0  0  0  0  0  0  0  0  0  0  0
   -3.6749    2.5337   -0.3523 C   0  0  0  0  0  0  0  0  0  0  0  0
   -2.7843    1.4480   -0.2368 C   0  0  0  0  0  0  0  0  0  0  0  0
   -3.1264    0.2295   -1.0838 C   0  0  0  0  0  0  0  0  0  0  0  0
   -2.0390   -0.8304   -1.2584 C   0  0  0  0  0  0  0  0  0  0  0  0
   -1.7960   -1.5472    0.0366 C   0  0  0  0  0  0  0  0  0  0  0  0
   -2.1749   -2.8891    0.2063 C   0  0  0  0  0  0  0  0  0  0  0  0
   -1.9417   -3.5353    1.4236 C   0  0  0  0  0  0  0  0  0  0  0  0
   -1.3282   -2.8485    2.4741 C   0  0  0  0  0  0  0  0  0  0  0  0
   -0.9447   -1.5151    2.3083 C   0  0  0  0  0  0  0  0  0  0  0  0
   -1.1823   -0.8591    1.0905 C   0  0  0  0  0  0  0  0  0  0  0  0
    5.8511   -0.2156   -1.7407 H   0  0  0  0  0  0  0  0  0  0  0  0
    5.6570   -0.2694    0.0538 H   0  0  0  0  0  0  0  0  0  0  0  0
    5.3351    1.2565   -0.8572 H   0  0  0  0  0  0  0  0  0  0  0  0
    4.4378   -2.1221   -1.8864 H   0  0  0  0  0  0  0  0  0  0  0  0
    3.9456   -2.1860   -0.1514 H   0  0  0  0  0  0  0  0  0  0  0  0
    2.7098   -2.0304   -1.4647 H   0  0  0  0  0  0  0  0  0  0  0  0
    3.3669   -0.0894    1.0319 H   0  0  0  0  0  0  0  0  0  0  0  0
    3.1539    1.4216    0.0918 H   0  0  0  0  0  0  0  0  0  0  0  0
    1.1424    0.3453   -1.0782 H   0  0  0  0  0  0  0  0  0  0  0  0
    1.3176   -1.0551    0.0497 H   0  0  0  0  0  0  0  0  0  0  0  0
    0.8859    1.8792    0.8467 H   0  0  0  0  0  0  0  0  0  0  0  0
    1.0695    0.5211    2.0051 H   0  0  0  0  0  0  0  0  0  0  0  0
   -0.7886    2.8036    2.2060 H   0  0  0  0  0  0  0  0  0  0  0  0
   -2.3509    4.6693    1.9259 H   0  0  0  0  0  0  0  0  0  0  0  0
   -4.2082    4.5103    0.3041 H   0  0  0  0  0  0  0  0  0  0  0  0
   -4.5125    2.4832   -1.0381 H   0  0  0  0  0  0  0  0  0  0  0  0
   -3.4000    0.5799   -2.1038 H   0  0  0  0  0  0  0  0  0  0  0  0
   -4.0348   -0.2514   -0.6582 H   0  0  0  0  0  0  0  0  0  0  0  0
   -1.1025   -0.3670   -1.6337 H   0  0  0  0  0  0  0  0  0  0  0  0
   -2.3750   -1.5509   -2.0361 H   0  0  0  0  0  0  0  0  0  0  0  0
   -2.6529   -3.4330   -0.5989 H   0  0  0  0  0  0  0  0  0  0  0  0
   -2.2365   -4.5687    1.5525 H   0  0  0  0  0  0  0  0  0  0  0  0
   -1.1470   -3.3504    3.4156 H   0  0  0  0  0  0  0  0  0  0  0  0
   -0.4677   -0.9926    3.1274 H   0  0  0  0  0  0  0  0  0  0  0  0
  1  2  1  0
  2  3  1  0
  2  4  1  0
  2  5  1  0
  5  6  1  0
  6  7  1  0
  7  8  1  0
  8  9  1  0
  9 10  2  0
 10 11  1  0
 11 12  2  0
 12 13  1  0
 13 14  2  0
 14  9  1  0
 14 15  1  0
 15 16  1  0
 16 17  1  0
 17 18  2  0
 18 19  1  0
 19 20  2  0
 20 21  1  0
 21 22  2  0
 22  8  1  0
 22 17  1  0
  1 23  1  0
  1 24  1  0
  1 25  1  0
  3 26  1  0
  3 27  1  0
  3 28  1  0
  5 29  1  0
  5 30  1  0
  6 31  1  0
  6 32  1  0
  7 33  1  0
  7 34  1  0
 10 35  1  0
 11 36  1  0
 12 37  1  0
 13 38  1  0
 15 39  1  0
 15 40  1  0
 16 41  1  0
 16 42  1  0
 18 43  1  0
 19 44  1  0
 20 45  1  0
 21 46  1  0
M  CHG  2   2   1   4  -1
M  END
> <ID>
HT1083

> <Class>
1.0

> <Clusters>
131

> <Fold>
5

$$$$