
     RDKit          3D

 53 54  0  0  0  0  0  0  0  0999 V2000
   -0.1607    1.7575   -1.7114 O   0  0  0  0  0  0  0  0  0  0  0  0
    0.0143    1.4902   -0.4901 C   0  0  0  0  0  0  0  0  0  0  0  0
    0.0611    0.0565   -0.0282 C   0  0  0  0  0  0  0  0  0  0  0  0
    0.1815    2.5154    0.4471 O   0  0  0  0  0  0  0  0  0  0  0  0
    0.2891    3.8912    0.0903 C   0  0  0  0  0  0  0  0  0  0  0  0
    1.6676    4.1858   -0.4903 C   0  0  0  0  0  0  0  0  0  0  0  0
   -1.2693   -0.6712   -0.3657 C   0  0  0  0  0  0  0  0  0  0  0  0
    1.2528   -0.6784   -0.6042 C   0  0  0  0  0  0  0  0  0  0  0  0
   -1.1491   -2.1866   -0.2266 C   0  0  0  0  0  0  0  0  0  0  0  0
   -2.3969   -0.1037    0.4977 C   0  0  0  0  0  0  0  0  0  0  0  0
    1.2138   -1.9711   -0.7228 N   0  0  0  0  0  0  0  0  0  0  0  0
    2.5637    0.0231   -0.8332 C   0  0  0  0  0  0  0  0  0  0  0  0
    0.0538   -2.7730   -0.4521 C   0  0  0  0  0  0  0  0  0  0  0  0
   -2.3893   -2.9889   -0.0515 C   0  0  0  0  0  0  0  0  0  0  0  0
   -2.3911   -0.3471    1.8870 C   0  0  0  0  0  0  0  0  0  0  0  0
   -3.4539    0.6636   -0.0527 C   0  0  0  0  0  0  0  0  0  0  0  0
    3.0126    0.5716    0.3888 O   0  0  0  0  0  0  0  0  0  0  0  0
    0.2364   -4.2648   -0.4863 C   0  0  0  0  0  0  0  0  0  0  0  0
   -2.3794   -4.0433    0.6414 O   0  0  0  0  0  0  0  0  0  0  0  0
   -3.5816   -2.5412   -0.6293 O   0  0  0  0  0  0  0  0  0  0  0  0
   -3.4067    0.1521    2.7042 C   0  0  0  0  0  0  0  0  0  0  0  0
   -4.4657    1.1582    0.7800 C   0  0  0  0  0  0  0  0  0  0  0  0
   -3.5607    1.0366   -1.7707 Cl  0  0  0  0  0  0  0  0  0  0  0  0
    4.2682    1.2027    0.2220 C   0  0  0  0  0  0  0  0  0  0  0  0
   -4.8236   -3.2079   -0.4438 C   0  0  0  0  0  0  0  0  0  0  0  0
   -4.4426    0.9035    2.1516 C   0  0  0  0  0  0  0  0  0  0  0  0
    5.3976    0.2474    0.6276 C   0  0  0  0  0  0  0  0  0  0  0  0
    6.7026    0.9005    0.5498 N   0  0  0  0  0  0  0  0  0  0  0  0
    0.2078    0.0560    1.0740 H   0  0  0  0  0  0  0  0  0  0  0  0
   -0.5047    4.1665   -0.6378 H   0  0  0  0  0  0  0  0  0  0  0  0
    0.1475    4.5059    1.0040 H   0  0  0  0  0  0  0  0  0  0  0  0
    1.8275    3.6059   -1.4232 H   0  0  0  0  0  0  0  0  0  0  0  0
    2.4536    3.9137    0.2453 H   0  0  0  0  0  0  0  0  0  0  0  0
    1.7514    5.2680   -0.7233 H   0  0  0  0  0  0  0  0  0  0  0  0
   -1.4792   -0.5032   -1.4420 H   0  0  0  0  0  0  0  0  0  0  0  0
    3.3068   -0.7016   -1.2381 H   0  0  0  0  0  0  0  0  0  0  0  0
    2.4105    0.8230   -1.5911 H   0  0  0  0  0  0  0  0  0  0  0  0
   -1.6015   -0.9358    2.3372 H   0  0  0  0  0  0  0  0  0  0  0  0
    1.2544   -4.5188   -0.8501 H   0  0  0  0  0  0  0  0  0  0  0  0
    0.1225   -4.6848    0.5348 H   0  0  0  0  0  0  0  0  0  0  0  0
   -0.4977   -4.7316   -1.1767 H   0  0  0  0  0  0  0  0  0  0  0  0
   -3.3910   -0.0461    3.7681 H   0  0  0  0  0  0  0  0  0  0  0  0
   -5.2751    1.7438    0.3627 H   0  0  0  0  0  0  0  0  0  0  0  0
    4.2930    2.0847    0.8966 H   0  0  0  0  0  0  0  0  0  0  0  0
    4.4397    1.5918   -0.8101 H   0  0  0  0  0  0  0  0  0  0  0  0
   -5.6153   -2.6620   -0.9966 H   0  0  0  0  0  0  0  0  0  0  0  0
   -4.7605   -4.2456   -0.8343 H   0  0  0  0  0  0  0  0  0  0  0  0
   -5.0861   -3.2266    0.6351 H   0  0  0  0  0  0  0  0  0  0  0  0
   -5.2293    1.2893    2.7869 H   0  0  0  0  0  0  0  0  0  0  0  0
    5.2287   -0.1051    1.6682 H   0  0  0  0  0  0  0  0  0  0  0  0
    5.3984   -0.6411   -0.0391 H   0  0  0  0  0  0  0  0  0  0  0  0
    6.7010    1.7359    1.1794 H   0  0  0  0  0  0  0  0  0  0  0  0
    6.8529    1.2391   -0.4285 H   0  0  0  0  0  0  0  0  0  0  0  0
  1  2  2  0
  2  3  1  0
  4  2  1  0
  5  4  1  0
  6  5  1  0
  3  7  1  0
  8  3  1  0
  7  9  1  0
  7 10  1  0
 11  8  2  0
  8 12  1  0
  9 13  2  0
  9 14  1  0
 10 15  2  0
 16 10  1  0
 13 11  1  0
 12 17  1  0
 13 18  1  0
 14 19  2  0
 14 20  1  0
 15 21  1  0
 22 16  2  0
 16 23  1  0
 17 24  1  0
 20 25  1  0
 21 26  2  0
 26 22  1  0
 24 27  1  0
 27 28  1  0
  3 29  1  0
  5 30  1  0
  5 31  1  0
  6 32  1  0
  6 33  1  0
  6 34  1  0
  7 35  1  0
 12 36  1  0
 12 37  1  0
 15 38  1  0
 18 39  1  0
 18 40  1  0
 18 41  1  0
 21 42  1  0
 22 43  1  0
 24 44  1  0
 24 45  1  0
 25 46  1  0
 25 47  1  0
 25 48  1  0
 26 49  1  0
 27 50  1  0
 27 51  1  0
 28 52  1  0
 28 53  1  0
M  END
> <ID>
HT0143

> <Class>
1.0

> <Clusters>
102

> <Fold>
5

$$$$