
     RDKit          3D

 32 34  0  0  0  0  0  0  0  0999 V2000
   -4.1716    1.3943    1.1603 O   0  0  0  0  0  0  0  0  0  0  0  0
   -4.3522    0.0157    1.0660 C   0  0  0  0  0  0  0  0  0  0  0  0
   -5.2977   -0.5254    1.6970 O   0  0  0  0  0  0  0  0  0  0  0  0
   -3.4427   -0.8313    0.2178 C   0  0  0  0  0  0  0  0  0  0  0  0
   -3.4540   -0.3962   -1.2808 C   0  0  0  0  0  0  0  0  0  0  0  0
   -2.0196    0.0882   -1.6229 C   0  0  0  0  0  0  0  0  0  0  0  0
   -1.2935   -0.1304   -0.3955 N   0  0  0  0  0  0  0  0  0  0  0  0
   -2.0267   -0.6160    0.5789 C   0  0  0  0  0  0  0  0  0  0  0  0
   -1.2787   -0.8000    1.7219 C   0  0  0  0  0  0  0  0  0  0  0  0
    0.0074   -0.3805    1.3797 C   0  0  0  0  0  0  0  0  0  0  0  0
   -0.0335    0.0241    0.0441 C   0  0  0  0  0  0  0  0  0  0  0  0
    1.0756    0.5884   -0.7534 C   0  0  0  0  0  0  0  0  0  0  0  0
    0.8022    1.2665   -1.7802 O   0  0  0  0  0  0  0  0  0  0  0  0
    2.4951    0.3980   -0.3770 C   0  0  0  0  0  0  0  0  0  0  0  0
    2.9445   -0.8192    0.1676 C   0  0  0  0  0  0  0  0  0  0  0  0
    4.2918   -0.9896    0.5010 C   0  0  0  0  0  0  0  0  0  0  0  0
    5.2039    0.0459    0.2843 C   0  0  0  0  0  0  0  0  0  0  0  0
    4.7717    1.2517   -0.2729 C   0  0  0  0  0  0  0  0  0  0  0  0
    3.4255    1.4267   -0.6084 C   0  0  0  0  0  0  0  0  0  0  0  0
   -3.4244    1.8642    0.6632 H   0  0  0  0  0  0  0  0  0  0  0  0
   -3.6952   -1.9099    0.3170 H   0  0  0  0  0  0  0  0  0  0  0  0
   -4.1901    0.4143   -1.4779 H   0  0  0  0  0  0  0  0  0  0  0  0
   -3.7180   -1.2662   -1.9208 H   0  0  0  0  0  0  0  0  0  0  0  0
   -1.5756   -0.5149   -2.4438 H   0  0  0  0  0  0  0  0  0  0  0  0
   -2.0143    1.1687   -1.8817 H   0  0  0  0  0  0  0  0  0  0  0  0
   -1.6182   -1.1721    2.6790 H   0  0  0  0  0  0  0  0  0  0  0  0
    0.8625   -0.3539    2.0417 H   0  0  0  0  0  0  0  0  0  0  0  0
    2.2605   -1.6449    0.3167 H   0  0  0  0  0  0  0  0  0  0  0  0
    4.6300   -1.9282    0.9209 H   0  0  0  0  0  0  0  0  0  0  0  0
    6.2466   -0.0885    0.5419 H   0  0  0  0  0  0  0  0  0  0  0  0
    5.4803    2.0514   -0.4460 H   0  0  0  0  0  0  0  0  0  0  0  0
    3.1082    2.3692   -1.0375 H   0  0  0  0  0  0  0  0  0  0  0  0
  1  2  1  0
  2  3  2  0
  2  4  1  0
  4  5  1  0
  5  6  1  0
  6  7  1  0
  7  8  1  0
  8  4  1  0
  8  9  2  0
  9 10  1  0
 10 11  2  0
 11  7  1  0
 11 12  1  0
 12 13  2  0
 12 14  1  0
 14 15  2  0
 15 16  1  0
 16 17  2  0
 17 18  1  0
 18 19  2  0
 19 14  1  0
  1 20  1  0
  4 21  1  0
  5 22  1  0
  5 23  1  0
  6 24  1  0
  6 25  1  0
  9 26  1  0
 10 27  1  0
 15 28  1  0
 16 29  1  0
 17 30  1  0
 18 31  1  0
 19 32  1  0
M  END
> <ID>
HT1161

> <Class>
1.0

> <Clusters>
142

> <Fold>
5

$$$$