
     RDKit          3D

 35 37  0  0  0  0  0  0  0  0999 V2000
   -3.3215    2.5243   -1.0451 O   0  0  0  0  0  0  0  0  0  0  0  0
   -1.9392    2.6656   -0.9583 C   0  0  0  0  0  0  0  0  0  0  0  0
   -1.2760    2.8982   -2.0034 O   0  0  0  0  0  0  0  0  0  0  0  0
   -1.2342    2.5437    0.3598 C   0  0  0  0  0  0  0  0  0  0  0  0
   -0.3277    1.3450    0.3704 C   0  0  0  0  0  0  0  0  0  0  0  0
    1.0511    1.3769    0.4192 C   0  0  0  0  0  0  0  0  0  0  0  0
    1.5156    0.1170    0.2727 N   0  0  0  0  0  0  0  0  0  0  0  0
    0.4942   -0.7144    0.1231 N   0  0  0  0  0  0  0  0  0  0  0  0
   -0.6444    0.0031    0.1918 C   0  0  0  0  0  0  0  0  0  0  0  0
   -1.9823   -0.5950    0.0205 C   0  0  0  0  0  0  0  0  0  0  0  0
   -3.0478   -0.2421    0.8651 C   0  0  0  0  0  0  0  0  0  0  0  0
   -4.3077   -0.8230    0.6914 C   0  0  0  0  0  0  0  0  0  0  0  0
   -4.5108   -1.7704   -0.3168 C   0  0  0  0  0  0  0  0  0  0  0  0
   -6.0920   -2.4981   -0.5327 Cl  0  0  0  0  0  0  0  0  0  0  0  0
   -3.4486   -2.1444   -1.1457 C   0  0  0  0  0  0  0  0  0  0  0  0
   -2.1876   -1.5652   -0.9739 C   0  0  0  0  0  0  0  0  0  0  0  0
    2.8950   -0.3040    0.2375 C   0  0  0  0  0  0  0  0  0  0  0  0
    3.2253   -1.5942   -0.2196 C   0  0  0  0  0  0  0  0  0  0  0  0
    4.5577   -2.0159   -0.2568 C   0  0  0  0  0  0  0  0  0  0  0  0
    5.5758   -1.1589    0.1649 C   0  0  0  0  0  0  0  0  0  0  0  0
    5.2632    0.1208    0.6273 C   0  0  0  0  0  0  0  0  0  0  0  0
    3.9324    0.5487    0.6664 C   0  0  0  0  0  0  0  0  0  0  0  0
   -3.8873    2.3490   -0.2237 H   0  0  0  0  0  0  0  0  0  0  0  0
   -1.9622    2.4787    1.1924 H   0  0  0  0  0  0  0  0  0  0  0  0
   -0.6361    3.4656    0.5247 H   0  0  0  0  0  0  0  0  0  0  0  0
    1.6586    2.2676    0.5032 H   0  0  0  0  0  0  0  0  0  0  0  0
   -2.9028    0.4595    1.6745 H   0  0  0  0  0  0  0  0  0  0  0  0
   -5.1227   -0.5420    1.3463 H   0  0  0  0  0  0  0  0  0  0  0  0
   -3.5984   -2.8830   -1.9228 H   0  0  0  0  0  0  0  0  0  0  0  0
   -1.3756   -1.8628   -1.6262 H   0  0  0  0  0  0  0  0  0  0  0  0
    2.4529   -2.2743   -0.5551 H   0  0  0  0  0  0  0  0  0  0  0  0
    4.8007   -3.0085   -0.6136 H   0  0  0  0  0  0  0  0  0  0  0  0
    6.6067   -1.4875    0.1362 H   0  0  0  0  0  0  0  0  0  0  0  0
    6.0531    0.7818    0.9601 H   0  0  0  0  0  0  0  0  0  0  0  0
    3.7226    1.5382    1.0463 H   0  0  0  0  0  0  0  0  0  0  0  0
  1  2  1  0
  2  3  2  0
  2  4  1  0
  4  5  1  0
  5  6  2  0
  6  7  1  0
  7  8  1  0
  8  9  2  0
  9  5  1  0
  9 10  1  0
 10 11  2  0
 11 12  1  0
 12 13  2  0
 13 14  1  0
 13 15  1  0
 15 16  2  0
 16 10  1  0
  7 17  1  0
 17 18  2  0
 18 19  1  0
 19 20  2  0
 20 21  1  0
 21 22  2  0
 22 17  1  0
  1 23  1  0
  4 24  1  0
  4 25  1  0
  6 26  1  0
 11 27  1  0
 12 28  1  0
 15 29  1  0
 16 30  1  0
 18 31  1  0
 19 32  1  0
 20 33  1  0
 21 34  1  0
 22 35  1  0
M  END
> <ID>
HT1231

> <Class>
1.0

> <Clusters>
75

> <Fold>
5

$$$$