
     RDKit          3D

 46 49  0  0  0  0  0  0  0  0999 V2000
    2.5887   -0.6107   -2.6334 C   0  0  0  0  0  0  0  0  0  0  0  0
    2.4962    0.7498   -1.9347 C   0  0  1  0  0  0  0  0  0  0  0  0
    1.1149    1.3871   -2.1539 C   0  0  0  0  0  0  0  0  0  0  0  0
    0.1392    0.7224   -1.3616 O   0  0  0  0  0  0  0  0  0  0  0  0
    0.4157    0.3680   -0.0403 C   0  0  0  0  0  0  0  0  0  0  0  0
   -0.6314    0.0504    0.8409 C   0  0  0  0  0  0  0  0  0  0  0  0
   -1.9930    0.0240    0.3753 N   0  0  0  0  0  0  0  0  0  0  0  0
   -3.0183    0.8390    1.0342 C   0  0  0  0  0  0  0  0  0  0  0  0
   -4.1005    1.2246    0.0189 C   0  0  0  0  0  0  0  0  0  0  0  0
   -4.7001    0.0538   -0.6737 N   0  0  0  0  0  0  0  0  0  0  0  0
   -6.0569   -0.2212   -0.1765 C   0  0  0  0  0  0  0  0  0  0  0  0
   -3.8792   -1.1798   -0.6398 C   0  0  0  0  0  0  0  0  0  0  0  0
   -2.3808   -0.8739   -0.7183 C   0  0  0  0  0  0  0  0  0  0  0  0
   -0.3373   -0.2227    2.1860 C   0  0  0  0  0  0  0  0  0  0  0  0
   -1.3271   -0.5447    3.0556 F   0  0  0  0  0  0  0  0  0  0  0  0
    0.9816   -0.1887    2.6427 C   0  0  0  0  0  0  0  0  0  0  0  0
    2.0381    0.0970    1.7593 C   0  0  0  0  0  0  0  0  0  0  0  0
    3.3747    0.1181    2.1946 C   0  0  0  0  0  0  0  0  0  0  0  0
    3.6484   -0.1150    3.4051 O   0  0  0  0  0  0  0  0  0  0  0  0
    4.4079    0.3818    1.2751 C   0  0  0  0  0  0  0  0  0  0  0  0
    4.0731    0.6130   -0.0676 C   0  0  0  0  0  0  0  0  0  0  0  0
    2.7735    0.5911   -0.4908 N   0  0  0  0  0  0  0  0  0  0  0  0
    1.7540    0.3559    0.4003 C   0  0  0  0  0  0  0  0  0  0  0  0
    5.8311    0.4196    1.7015 C   0  0  0  0  0  0  0  0  0  0  0  0
    6.1308    0.7846    2.8715 O   0  0  0  0  0  0  0  0  0  0  0  0
    6.8588    0.0531    0.8326 O   0  0  0  0  0  0  0  0  0  0  0  0
    3.6019   -1.0425   -2.4892 H   0  0  0  0  0  0  0  0  0  0  0  0
    1.8389   -1.3158   -2.2166 H   0  0  0  0  0  0  0  0  0  0  0  0
    2.4118   -0.4966   -3.7233 H   0  0  0  0  0  0  0  0  0  0  0  0
    3.2493    1.4272   -2.3966 H   0  0  0  0  0  0  0  0  0  0  0  0
    0.8177    1.3507   -3.2225 H   0  0  0  0  0  0  0  0  0  0  0  0
    1.1567    2.4529   -1.8448 H   0  0  0  0  0  0  0  0  0  0  0  0
   -2.5635    1.7664    1.4459 H   0  0  0  0  0  0  0  0  0  0  0  0
   -3.4776    0.2662    1.8681 H   0  0  0  0  0  0  0  0  0  0  0  0
   -4.8687    1.8490    0.5290 H   0  0  0  0  0  0  0  0  0  0  0  0
   -3.6344    1.8757   -0.7518 H   0  0  0  0  0  0  0  0  0  0  0  0
   -6.0461   -0.4160    0.9193 H   0  0  0  0  0  0  0  0  0  0  0  0
   -6.7199    0.6452   -0.3853 H   0  0  0  0  0  0  0  0  0  0  0  0
   -6.4902   -1.1025   -0.6996 H   0  0  0  0  0  0  0  0  0  0  0  0
   -4.1576   -1.8241   -1.5020 H   0  0  0  0  0  0  0  0  0  0  0  0
   -4.0658   -1.7585    0.2945 H   0  0  0  0  0  0  0  0  0  0  0  0
   -1.8154   -1.8287   -0.6436 H   0  0  0  0  0  0  0  0  0  0  0  0
   -2.1520   -0.3982   -1.6956 H   0  0  0  0  0  0  0  0  0  0  0  0
    1.1735   -0.4026    3.6866 H   0  0  0  0  0  0  0  0  0  0  0  0
    4.8589    0.8229   -0.7827 H   0  0  0  0  0  0  0  0  0  0  0  0
    6.6806   -0.3244   -0.0929 H   0  0  0  0  0  0  0  0  0  0  0  0
  2  1  1  0
  2  3  1  0
  3  4  1  0
  4  5  1  0
  5  6  1  0
  6  7  1  0
  7  8  1  0
  8  9  1  0
  9 10  1  0
 10 11  1  0
 10 12  1  0
 12 13  1  0
 13  7  1  0
  6 14  2  0
 14 15  1  0
 14 16  1  0
 16 17  2  0
 17 18  1  0
 18 19  2  0
 18 20  1  0
 20 21  2  0
 21 22  1  0
 22  2  1  0
 22 23  1  0
 23  5  2  0
 23 17  1  0
 20 24  1  0
 24 25  2  0
 24 26  1  0
  1 27  1  0
  1 28  1  0
  1 29  1  0
  2 30  1  6
  3 31  1  0
  3 32  1  0
  8 33  1  0
  8 34  1  0
  9 35  1  0
  9 36  1  0
 11 37  1  0
 11 38  1  0
 11 39  1  0
 12 40  1  0
 12 41  1  0
 13 42  1  0
 13 43  1  0
 16 44  1  0
 21 45  1  0
 26 46  1  0
M  END
> <ID>
HT1197

> <Class>
1.0

> <Clusters>
117

> <Fold>
5

$$$$