
     RDKit          3D

 70 72  0  0  0  0  0  0  0  0999 V2000
   -3.6937   -2.2782   -3.7038 C   0  0  0  0  0  0  0  0  0  0  0  0
   -4.1817   -2.0336   -2.2688 C   0  0  0  0  0  0  0  0  0  0  0  0
   -5.6787   -1.6987   -2.2689 C   0  0  0  0  0  0  0  0  0  0  0  0
   -3.3828   -0.8992   -1.5885 C   0  0  0  0  0  0  0  0  0  0  0  0
   -1.9207   -1.1423   -1.6028 N   0  0  0  0  0  0  0  0  0  0  0  0
   -1.1718    0.1088   -1.3407 C   0  0  0  0  0  0  0  0  0  0  0  0
    0.1153    0.1518   -2.1854 C   0  0  1  0  0  0  0  0  0  0  0  0
   -0.2472    0.1503   -3.5443 O   0  0  0  0  0  0  0  0  0  0  0  0
    0.9580    1.4166   -1.8706 C   0  0  2  0  0  0  0  0  0  0  0  0
    2.2848    1.4338   -2.6635 C   0  0  0  0  0  0  0  0  0  0  0  0
    3.1674    2.5905   -2.2627 C   0  0  0  0  0  0  0  0  0  0  0  0
    2.7934    3.9089   -2.5746 C   0  0  0  0  0  0  0  0  0  0  0  0
    3.6103    4.9805   -2.2001 C   0  0  0  0  0  0  0  0  0  0  0  0
    4.8049    4.7449   -1.5148 C   0  0  0  0  0  0  0  0  0  0  0  0
    5.1851    3.4371   -1.2020 C   0  0  0  0  0  0  0  0  0  0  0  0
    4.3723    2.3622   -1.5751 C   0  0  0  0  0  0  0  0  0  0  0  0
    1.2032    1.5522   -0.4262 N   0  0  0  0  0  0  0  0  0  0  0  0
    1.9003    0.5933    0.3809 C   0  0  0  0  0  0  0  0  0  0  0  0
    2.4946   -0.3850   -0.1498 O   0  0  0  0  0  0  0  0  0  0  0  0
    1.9042    0.7531    1.7701 O   0  0  0  0  0  0  0  0  0  0  0  0
    2.5840   -0.1362    2.6558 C   0  0  1  0  0  0  0  0  0  0  0  0
    4.0693    0.0928    2.6310 C   0  0  0  0  0  0  0  0  0  0  0  0
    4.4581   -0.1018    4.0785 C   0  0  0  0  0  0  0  0  0  0  0  0
    3.3689    0.2634    4.8905 O   0  0  0  0  0  0  0  0  0  0  0  0
    2.2032    0.1485    4.1029 C   0  0  0  0  0  0  0  0  0  0  0  0
   -1.4566   -2.3802   -0.4384 S   0  0  0  0  0  0  0  0  0  0  0  0
   -1.9139   -3.7308   -0.9124 O   0  0  0  0  0  0  0  0  0  0  0  0
    0.0407   -2.4379   -0.3186 O   0  0  0  0  0  0  0  0  0  0  0  0
   -2.1229   -2.0668    1.1674 C   0  0  0  0  0  0  0  0  0  0  0  0
   -3.3851   -2.5660    1.5201 C   0  0  0  0  0  0  0  0  0  0  0  0
   -3.9086   -2.3195    2.7926 C   0  0  0  0  0  0  0  0  0  0  0  0
   -3.1722   -1.5794    3.7289 C   0  0  0  0  0  0  0  0  0  0  0  0
   -3.7067   -1.3315    5.0321 N   0  0  0  0  0  0  0  0  0  0  0  0
   -1.9063   -1.0873    3.3801 C   0  0  0  0  0  0  0  0  0  0  0  0
   -1.3841   -1.3306    2.1066 C   0  0  0  0  0  0  0  0  0  0  0  0
   -3.7956   -1.3555   -4.3139 H   0  0  0  0  0  0  0  0  0  0  0  0
   -4.2859   -3.0916   -4.1760 H   0  0  0  0  0  0  0  0  0  0  0  0
   -2.6283   -2.5920   -3.7046 H   0  0  0  0  0  0  0  0  0  0  0  0
   -4.0688   -2.9734   -1.6937 H   0  0  0  0  0  0  0  0  0  0  0  0
   -5.8762   -0.7698   -2.8464 H   0  0  0  0  0  0  0  0  0  0  0  0
   -6.0389   -1.5579   -1.2269 H   0  0  0  0  0  0  0  0  0  0  0  0
   -6.2576   -2.5296   -2.7250 H   0  0  0  0  0  0  0  0  0  0  0  0
   -3.6184    0.0302   -2.1554 H   0  0  0  0  0  0  0  0  0  0  0  0
   -3.7451   -0.7371   -0.5511 H   0  0  0  0  0  0  0  0  0  0  0  0
   -0.9454    0.2120   -0.2596 H   0  0  0  0  0  0  0  0  0  0  0  0
   -1.7624    1.0139   -1.6084 H   0  0  0  0  0  0  0  0  0  0  0  0
    0.7209   -0.7526   -1.9577 H   0  0  0  0  0  0  0  0  0  0  0  0
    0.4589   -0.3430   -4.0380 H   0  0  0  0  0  0  0  0  0  0  0  0
    0.3634    2.2993   -2.1992 H   0  0  0  0  0  0  0  0  0  0  0  0
    2.0703    1.5174   -3.7511 H   0  0  0  0  0  0  0  0  0  0  0  0
    2.8224    0.4724   -2.5214 H   0  0  0  0  0  0  0  0  0  0  0  0
    1.8719    4.1050   -3.1091 H   0  0  0  0  0  0  0  0  0  0  0  0
    3.3176    5.9941   -2.4427 H   0  0  0  0  0  0  0  0  0  0  0  0
    5.4367    5.5756   -1.2272 H   0  0  0  0  0  0  0  0  0  0  0  0
    6.1105    3.2563   -0.6702 H   0  0  0  0  0  0  0  0  0  0  0  0
    4.6802    1.3549   -1.3214 H   0  0  0  0  0  0  0  0  0  0  0  0
    0.7962    2.3834    0.0592 H   0  0  0  0  0  0  0  0  0  0  0  0
    2.3457   -1.1962    2.4082 H   0  0  0  0  0  0  0  0  0  0  0  0
    4.3015    1.1357    2.3174 H   0  0  0  0  0  0  0  0  0  0  0  0
    4.5891   -0.6300    1.9639 H   0  0  0  0  0  0  0  0  0  0  0  0
    5.3409    0.5235    4.3301 H   0  0  0  0  0  0  0  0  0  0  0  0
    4.7092   -1.1696    4.2655 H   0  0  0  0  0  0  0  0  0  0  0  0
    1.6292    1.0985    4.1791 H   0  0  0  0  0  0  0  0  0  0  0  0
    1.5688   -0.6733    4.5020 H   0  0  0  0  0  0  0  0  0  0  0  0
   -3.9662   -3.1411    0.8106 H   0  0  0  0  0  0  0  0  0  0  0  0
   -4.8864   -2.7057    3.0496 H   0  0  0  0  0  0  0  0  0  0  0  0
   -4.6483   -1.6949    5.3015 H   0  0  0  0  0  0  0  0  0  0  0  0
   -3.1678   -0.7775    5.7342 H   0  0  0  0  0  0  0  0  0  0  0  0
   -1.3240   -0.5178    4.0948 H   0  0  0  0  0  0  0  0  0  0  0  0
   -0.4028   -0.9473    1.8574 H   0  0  0  0  0  0  0  0  0  0  0  0
  1  2  1  0
  2  3  1  0
  2  4  1  0
  4  5  1  0
  5  6  1  0
  6  7  1  0
  7  8  1  0
  7  9  1  0
  9 10  1  0
 10 11  1  0
 11 12  2  0
 12 13  1  0
 13 14  2  0
 14 15  1  0
 15 16  2  0
 16 11  1  0
  9 17  1  0
 17 18  1  0
 18 19  2  0
 18 20  1  0
 21 20  1  0
 21 22  1  0
 22 23  1  0
 23 24  1  0
 24 25  1  0
 25 21  1  0
  5 26  1  0
 26 27  2  0
 26 28  2  0
 26 29  1  0
 29 30  2  0
 30 31  1  0
 31 32  2  0
 32 33  1  0
 32 34  1  0
 34 35  2  0
 35 29  1  0
  1 36  1  0
  1 37  1  0
  1 38  1  0
  2 39  1  0
  3 40  1  0
  3 41  1  0
  3 42  1  0
  4 43  1  0
  4 44  1  0
  6 45  1  0
  6 46  1  0
  7 47  1  6
  8 48  1  0
  9 49  1  6
 10 50  1  0
 10 51  1  0
 12 52  1  0
 13 53  1  0
 14 54  1  0
 15 55  1  0
 16 56  1  0
 17 57  1  0
 21 58  1  6
 22 59  1  0
 22 60  1  0
 23 61  1  0
 23 62  1  0
 25 63  1  0
 25 64  1  0
 30 65  1  0
 31 66  1  0
 33 67  1  0
 33 68  1  0
 34 69  1  0
 35 70  1  0
M  END
> <ID>
HT0154

> <Class>
1.0

> <Clusters>
19

> <Fold>
5

$$$$