
     RDKit          3D

 45 49  0  0  0  0  0  0  0  0999 V2000
    0.3628   -0.0060   -1.3569 C   0  0  0  0  0  0  0  0  0  0  0  0
    1.3645   -0.7659   -0.4570 C   0  0  0  0  0  0  0  0  0  0  0  0
    2.7769   -0.8449   -1.1140 C   0  0  0  0  0  0  0  0  0  0  0  0
    3.8291   -0.3583   -0.1887 N   0  0  0  0  0  0  0  0  0  0  0  0
    3.8130   -1.1726    1.0519 C   0  0  0  0  0  0  0  0  0  0  0  0
    2.4430   -1.0744    1.7720 C   0  0  0  0  0  0  0  0  0  0  0  0
    1.5125   -0.1508    0.9626 C   0  0  0  0  0  0  0  0  0  0  0  0
    2.2022    1.2251    0.8679 C   0  0  0  0  0  0  0  0  0  0  0  0
    3.5645    1.0623    0.1479 C   0  0  0  0  0  0  0  0  0  0  0  0
   -0.9636    0.1026   -0.7247 N   0  0  0  0  0  0  0  0  0  0  0  0
   -1.7138   -1.0694   -0.3315 C   0  0  0  0  0  0  0  0  0  0  0  0
   -1.7645   -2.2126   -1.1495 C   0  0  0  0  0  0  0  0  0  0  0  0
   -2.6161   -3.2731   -0.8251 C   0  0  0  0  0  0  0  0  0  0  0  0
   -3.4342   -3.1971    0.3051 C   0  0  0  0  0  0  0  0  0  0  0  0
   -3.3894   -2.0684    1.1269 C   0  0  0  0  0  0  0  0  0  0  0  0
   -2.5214   -1.0152    0.8213 C   0  0  0  0  0  0  0  0  0  0  0  0
   -2.3571    0.3700    1.9520 S   0  0  0  0  0  0  0  0  0  0  0  0
   -2.3759    1.5913    0.6372 C   0  0  0  0  0  0  0  0  0  0  0  0
   -3.1310    2.7602    0.7786 C   0  0  0  0  0  0  0  0  0  0  0  0
   -3.0801    3.7480   -0.2079 C   0  0  0  0  0  0  0  0  0  0  0  0
   -2.2851    3.5643   -1.3422 C   0  0  0  0  0  0  0  0  0  0  0  0
   -1.5478    2.3868   -1.5004 C   0  0  0  0  0  0  0  0  0  0  0  0
   -1.5815    1.3904   -0.5081 C   0  0  0  0  0  0  0  0  0  0  0  0
    0.2674   -0.5291   -2.3313 H   0  0  0  0  0  0  0  0  0  0  0  0
    0.7735    0.9988   -1.5864 H   0  0  0  0  0  0  0  0  0  0  0  0
    0.9821   -1.8052   -0.3439 H   0  0  0  0  0  0  0  0  0  0  0  0
    2.9956   -1.8970   -1.4025 H   0  0  0  0  0  0  0  0  0  0  0  0
    2.8218   -0.2589   -2.0591 H   0  0  0  0  0  0  0  0  0  0  0  0
    4.6224   -0.8304    1.7338 H   0  0  0  0  0  0  0  0  0  0  0  0
    4.0343   -2.2346    0.8057 H   0  0  0  0  0  0  0  0  0  0  0  0
    1.9873   -2.0844    1.8681 H   0  0  0  0  0  0  0  0  0  0  0  0
    2.5792   -0.6713    2.7997 H   0  0  0  0  0  0  0  0  0  0  0  0
    0.5327   -0.0634    1.4757 H   0  0  0  0  0  0  0  0  0  0  0  0
    2.3625    1.6336    1.8900 H   0  0  0  0  0  0  0  0  0  0  0  0
    1.5594    1.9535    0.3305 H   0  0  0  0  0  0  0  0  0  0  0  0
    4.3818    1.4512    0.7944 H   0  0  0  0  0  0  0  0  0  0  0  0
    3.5756    1.6767   -0.7795 H   0  0  0  0  0  0  0  0  0  0  0  0
   -1.1767   -2.2757   -2.0544 H   0  0  0  0  0  0  0  0  0  0  0  0
   -2.6555   -4.1478   -1.4615 H   0  0  0  0  0  0  0  0  0  0  0  0
   -4.0979   -4.0168    0.5481 H   0  0  0  0  0  0  0  0  0  0  0  0
   -4.0079   -2.0258    2.0144 H   0  0  0  0  0  0  0  0  0  0  0  0
   -3.7387    2.9140    1.6612 H   0  0  0  0  0  0  0  0  0  0  0  0
   -3.6571    4.6566   -0.0936 H   0  0  0  0  0  0  0  0  0  0  0  0
   -2.2582    4.3256   -2.1111 H   0  0  0  0  0  0  0  0  0  0  0  0
   -0.9905    2.2383   -2.4158 H   0  0  0  0  0  0  0  0  0  0  0  0
  1  2  1  0
  2  3  1  0
  3  4  1  0
  4  5  1  0
  5  6  1  0
  6  7  1  0
  7  2  1  0
  7  8  1  0
  8  9  1  0
  9  4  1  0
  1 10  1  0
 10 11  1  0
 11 12  2  0
 12 13  1  0
 13 14  2  0
 14 15  1  0
 15 16  2  0
 16 11  1  0
 16 17  1  0
 17 18  1  0
 18 19  2  0
 19 20  1  0
 20 21  2  0
 21 22  1  0
 22 23  2  0
 23 10  1  0
 23 18  1  0
  1 24  1  0
  1 25  1  0
  2 26  1  0
  3 27  1  0
  3 28  1  0
  5 29  1  0
  5 30  1  0
  6 31  1  0
  6 32  1  0
  7 33  1  0
  8 34  1  0
  8 35  1  0
  9 36  1  0
  9 37  1  0
 12 38  1  0
 13 39  1  0
 14 40  1  0
 15 41  1  0
 19 42  1  0
 20 43  1  0
 21 44  1  0
 22 45  1  0
M  END
> <ID>
HT1313

> <Class>
1.0

> <Clusters>
154

> <Fold>
5

$$$$