
     RDKit          3D

 51 53  0  0  0  0  0  0  0  0999 V2000
   -5.5699    2.3960   -0.4905 C   0  0  0  0  0  0  0  0  0  0  0  0
   -4.0594    2.3219   -0.2364 C   0  0  1  0  0  0  0  0  0  0  0  0
   -3.7030    3.2078    0.7965 O   0  0  0  0  0  0  0  0  0  0  0  0
   -3.6144    0.8820    0.1115 C   0  0  2  0  0  0  0  0  0  0  0  0
   -2.1709    0.7184    0.2157 C   0  0  1  0  0  0  0  0  0  0  0  0
   -1.4875   -0.0703    1.3810 C   0  0  1  0  0  0  0  0  0  0  0  0
   -2.3849   -0.3723    2.5856 C   0  0  0  0  0  0  0  0  0  0  0  0
   -0.9887   -1.3539    0.7167 C   0  0  0  0  0  0  0  0  0  0  0  0
   -1.3821   -1.4123   -0.5581 C   0  0  0  0  0  0  0  0  0  0  0  0
   -2.1243   -0.2539   -0.8337 N   0  0  0  0  0  0  0  0  0  0  0  0
   -3.5646   -0.0243   -1.0836 C   0  0  0  0  0  0  0  0  0  0  0  0
   -4.4078   -0.4744   -1.9027 O   0  0  0  0  0  0  0  0  0  0  0  0
   -1.2087   -2.5149   -1.5213 C   0  0  0  0  0  0  0  0  0  0  0  0
   -1.7335   -2.4281   -2.6635 O   0  0  0  0  0  0  0  0  0  0  0  0
   -0.4665   -3.6456   -1.1936 O   0  0  0  0  0  0  0  0  0  0  0  0
   -0.1332   -2.6816    1.5961 S   0  0  0  0  0  0  0  0  0  0  0  0
    1.6076   -2.0767    1.5154 C   0  0  2  0  0  0  0  0  0  0  0  0
    1.9080   -0.9718    2.5254 C   0  0  0  0  0  0  0  0  0  0  0  0
    2.6954    0.0632    1.8478 N   0  0  0  0  0  0  0  0  0  0  0  0
    3.1150   -0.4968    0.5613 C   0  0  1  0  0  0  0  0  0  0  0  0
    2.0779   -1.5415    0.1730 C   0  0  0  0  0  0  0  0  0  0  0  0
    3.2150    0.6039   -0.4717 C   0  0  0  0  0  0  0  0  0  0  0  0
    2.2322    1.3856   -0.6086 O   0  0  0  0  0  0  0  0  0  0  0  0
    4.3882    0.7881   -1.2970 N   0  0  0  0  0  0  0  0  0  0  0  0
    5.4572   -0.2163   -1.3419 C   0  0  0  0  0  0  0  0  0  0  0  0
    4.4946    2.0029   -2.1139 C   0  0  0  0  0  0  0  0  0  0  0  0
   -5.8680    3.4498   -0.6730 H   0  0  0  0  0  0  0  0  0  0  0  0
   -6.1343    2.0138    0.3864 H   0  0  0  0  0  0  0  0  0  0  0  0
   -5.8427    1.7976   -1.3843 H   0  0  0  0  0  0  0  0  0  0  0  0
   -3.5437    2.6580   -1.1646 H   0  0  0  0  0  0  0  0  0  0  0  0
   -4.1470    2.8917    1.6267 H   0  0  0  0  0  0  0  0  0  0  0  0
   -4.2179    0.4305    0.9247 H   0  0  0  0  0  0  0  0  0  0  0  0
   -1.5795    1.6179   -0.0756 H   0  0  0  0  0  0  0  0  0  0  0  0
   -0.6168    0.5232    1.7278 H   0  0  0  0  0  0  0  0  0  0  0  0
   -1.7772   -0.8164    3.4025 H   0  0  0  0  0  0  0  0  0  0  0  0
   -3.1851   -1.0949    2.3162 H   0  0  0  0  0  0  0  0  0  0  0  0
   -2.8401    0.5664    2.9666 H   0  0  0  0  0  0  0  0  0  0  0  0
   -0.3434   -4.3990   -1.8600 H   0  0  0  0  0  0  0  0  0  0  0  0
    2.2515   -2.9488    1.7690 H   0  0  0  0  0  0  0  0  0  0  0  0
    2.4727   -1.3929    3.3895 H   0  0  0  0  0  0  0  0  0  0  0  0
    0.9813   -0.5179    2.9288 H   0  0  0  0  0  0  0  0  0  0  0  0
    3.5486    0.2801    2.4192 H   0  0  0  0  0  0  0  0  0  0  0  0
    4.0893   -1.0164    0.6983 H   0  0  0  0  0  0  0  0  0  0  0  0
    2.5275   -2.3461   -0.4503 H   0  0  0  0  0  0  0  0  0  0  0  0
    1.2602   -1.0661   -0.3998 H   0  0  0  0  0  0  0  0  0  0  0  0
    6.1842   -0.0064   -2.1545 H   0  0  0  0  0  0  0  0  0  0  0  0
    6.0080   -0.2176   -0.3783 H   0  0  0  0  0  0  0  0  0  0  0  0
    5.0247   -1.2212   -1.5331 H   0  0  0  0  0  0  0  0  0  0  0  0
    5.4647    2.0557   -2.6518 H   0  0  0  0  0  0  0  0  0  0  0  0
    4.4163    2.9004   -1.4633 H   0  0  0  0  0  0  0  0  0  0  0  0
    3.6753    2.0240   -2.8642 H   0  0  0  0  0  0  0  0  0  0  0  0
  1  2  1  0
  2  3  1  0
  4  2  1  0
  4  5  1  0
  5  6  1  0
  6  7  1  0
  6  8  1  0
  8  9  2  0
  9 10  1  0
  5 10  1  0
 10 11  1  0
 11  4  1  0
 11 12  2  0
  9 13  1  0
 13 14  2  0
 13 15  1  0
  8 16  1  0
 17 16  1  0
 17 18  1  0
 18 19  1  0
 19 20  1  0
 20 21  1  0
 21 17  1  0
 20 22  1  0
 22 23  2  0
 22 24  1  0
 24 25  1  0
 24 26  1  0
  1 27  1  0
  1 28  1  0
  1 29  1  0
  2 30  1  6
  3 31  1  0
  4 32  1  1
  5 33  1  6
  6 34  1  1
  7 35  1  0
  7 36  1  0
  7 37  1  0
 15 38  1  0
 17 39  1  1
 18 40  1  0
 18 41  1  0
 19 42  1  0
 20 43  1  1
 21 44  1  0
 21 45  1  0
 25 46  1  0
 25 47  1  0
 25 48  1  0
 26 49  1  0
 26 50  1  0
 26 51  1  0
M  END
> <ID>
HT1316

> <Class>
1.0

> <Clusters>
158

> <Fold>
5

$$$$