
     RDKit          3D

 44 47  0  0  0  0  0  0  0  0999 V2000
    2.5154   -1.4942   -2.1901 C   0  0  0  0  0  0  0  0  0  0  0  0
    2.8453   -0.1646   -1.6488 N   0  0  0  0  0  0  0  0  0  0  0  0
    4.0763   -0.1701   -0.8309 C   0  0  0  0  0  0  0  0  0  0  0  0
    3.8667   -0.7970    0.5560 C   0  0  0  0  0  0  0  0  0  0  0  0
    2.7092   -0.1190    1.2886 C   0  0  0  0  0  0  0  0  0  0  0  0
    1.4314   -0.1588    0.4370 C   0  0  0  0  0  0  0  0  0  0  0  0
    0.2845    0.5776    1.1605 C   0  0  0  0  0  0  0  0  0  0  0  0
   -0.9849    0.4517    0.4230 N   0  0  0  0  0  0  0  0  0  0  0  0
   -1.5637   -0.8397    0.1273 C   0  0  0  0  0  0  0  0  0  0  0  0
   -1.5730   -1.8717    1.0827 C   0  0  0  0  0  0  0  0  0  0  0  0
   -2.2673   -3.0588    0.8294 C   0  0  0  0  0  0  0  0  0  0  0  0
   -2.9690   -3.2206   -0.3682 C   0  0  0  0  0  0  0  0  0  0  0  0
   -2.9628   -2.2037   -1.3262 C   0  0  0  0  0  0  0  0  0  0  0  0
   -2.2496   -1.0243   -1.0887 C   0  0  0  0  0  0  0  0  0  0  0  0
   -2.1196    0.2227   -2.3741 S   0  0  0  0  0  0  0  0  0  0  0  0
   -2.4053    1.5834   -1.2388 C   0  0  0  0  0  0  0  0  0  0  0  0
   -3.2663    2.6263   -1.5962 C   0  0  0  0  0  0  0  0  0  0  0  0
   -3.4225    3.7248   -0.7471 C   0  0  0  0  0  0  0  0  0  0  0  0
   -2.7283    3.7775    0.4646 C   0  0  0  0  0  0  0  0  0  0  0  0
   -1.8855    2.7260    0.8381 C   0  0  0  0  0  0  0  0  0  0  0  0
   -1.7124    1.6204   -0.0136 C   0  0  0  0  0  0  0  0  0  0  0  0
    1.7056    0.4670   -0.9509 C   0  0  0  0  0  0  0  0  0  0  0  0
    2.3047   -2.2299   -1.3875 H   0  0  0  0  0  0  0  0  0  0  0  0
    1.6278   -1.4267   -2.8549 H   0  0  0  0  0  0  0  0  0  0  0  0
    3.3585   -1.8717   -2.8069 H   0  0  0  0  0  0  0  0  0  0  0  0
    4.4276    0.8775   -0.7043 H   0  0  0  0  0  0  0  0  0  0  0  0
    4.8897   -0.7126   -1.3610 H   0  0  0  0  0  0  0  0  0  0  0  0
    3.6696   -1.8860    0.4617 H   0  0  0  0  0  0  0  0  0  0  0  0
    4.7959   -0.6772    1.1538 H   0  0  0  0  0  0  0  0  0  0  0  0
    2.9856    0.9350    1.5153 H   0  0  0  0  0  0  0  0  0  0  0  0
    2.5356   -0.6446    2.2530 H   0  0  0  0  0  0  0  0  0  0  0  0
    1.1357   -1.2219    0.3104 H   0  0  0  0  0  0  0  0  0  0  0  0
    0.1566    0.1725    2.1863 H   0  0  0  0  0  0  0  0  0  0  0  0
    0.5695    1.6464    1.2716 H   0  0  0  0  0  0  0  0  0  0  0  0
   -1.0759   -1.7520    2.0351 H   0  0  0  0  0  0  0  0  0  0  0  0
   -2.2763   -3.8475    1.5705 H   0  0  0  0  0  0  0  0  0  0  0  0
   -3.5116   -4.1378   -0.5571 H   0  0  0  0  0  0  0  0  0  0  0  0
   -3.4880   -2.3448   -2.2623 H   0  0  0  0  0  0  0  0  0  0  0  0
   -3.7963    2.5974   -2.5397 H   0  0  0  0  0  0  0  0  0  0  0  0
   -4.0815    4.5360   -1.0282 H   0  0  0  0  0  0  0  0  0  0  0  0
   -2.8611    4.6239    1.1260 H   0  0  0  0  0  0  0  0  0  0  0  0
   -1.4068    2.7572    1.8079 H   0  0  0  0  0  0  0  0  0  0  0  0
    1.9210    1.5519   -0.8307 H   0  0  0  0  0  0  0  0  0  0  0  0
    0.7955    0.4000   -1.5844 H   0  0  0  0  0  0  0  0  0  0  0  0
  1  2  1  0
  2  3  1  0
  3  4  1  0
  4  5  1  0
  5  6  1  0
  6  7  1  0
  7  8  1  0
  8  9  1  0
  9 10  2  0
 10 11  1  0
 11 12  2  0
 12 13  1  0
 13 14  2  0
 14  9  1  0
 14 15  1  0
 15 16  1  0
 16 17  2  0
 17 18  1  0
 18 19  2  0
 19 20  1  0
 20 21  2  0
 21  8  1  0
 21 16  1  0
  6 22  1  0
 22  2  1  0
  1 23  1  0
  1 24  1  0
  1 25  1  0
  3 26  1  0
  3 27  1  0
  4 28  1  0
  4 29  1  0
  5 30  1  0
  5 31  1  0
  6 32  1  0
  7 33  1  0
  7 34  1  0
 10 35  1  0
 11 36  1  0
 12 37  1  0
 13 38  1  0
 17 39  1  0
 18 40  1  0
 19 41  1  0
 20 42  1  0
 22 43  1  0
 22 44  1  0
M  END
> <ID>
HT1303

> <Class>
1.0

> <Clusters>
154

> <Fold>
5

$$$$