
     RDKit          3D

 44 46  0  0  0  0  0  0  0  0999 V2000
    3.7800   -0.6889   -1.6782 C   0  0  0  0  0  0  0  0  0  0  0  0
    2.9279    0.0495   -0.6275 C   0  0  0  0  0  0  0  0  0  0  0  0
    2.6955    1.4912   -1.1146 C   0  0  0  0  0  0  0  0  0  0  0  0
    1.2667   -0.7754   -0.5113 S   0  0  0  0  0  0  0  0  0  0  0  0
    1.2497   -0.7561    1.3192 C   0  0  2  0  0  0  0  0  0  0  0  0
    0.3828    0.1756    2.0051 C   0  0  2  0  0  0  0  0  0  0  0  0
   -0.4555    0.9949    1.1251 N   0  0  0  0  0  0  0  0  0  0  0  0
   -1.8850    0.9668    1.2206 C   0  0  0  0  0  0  0  0  0  0  0  0
   -2.4933    2.0213    1.5469 O   0  0  0  0  0  0  0  0  0  0  0  0
   -2.6958   -0.2410    0.8090 C   0  0  2  0  0  0  0  0  0  0  0  0
   -1.8953   -1.4666    0.8290 N   0  0  0  0  0  0  0  0  0  0  0  0
   -3.2687   -0.0153   -0.5751 C   0  0  0  0  0  0  0  0  0  0  0  0
   -2.4198    0.1346   -1.6870 C   0  0  0  0  0  0  0  0  0  0  0  0
   -2.9529    0.3390   -2.9629 C   0  0  0  0  0  0  0  0  0  0  0  0
   -4.3376    0.3959   -3.1459 C   0  0  0  0  0  0  0  0  0  0  0  0
   -4.8551    0.6002   -4.4229 O   0  0  0  0  0  0  0  0  0  0  0  0
   -5.1907    0.2479   -2.0441 C   0  0  0  0  0  0  0  0  0  0  0  0
   -4.6604    0.0440   -0.7665 C   0  0  0  0  0  0  0  0  0  0  0  0
    1.6143    0.9048    2.4433 C   0  0  0  0  0  0  0  0  0  0  0  0
    1.8453    1.9407    3.1196 O   0  0  0  0  0  0  0  0  0  0  0  0
    2.4451   -0.0621    1.6875 N   0  0  0  0  0  0  0  0  0  0  0  0
    3.5682    0.0811    0.7995 C   0  0  1  0  0  0  0  0  0  0  0  0
    4.5415   -1.0339    1.0758 C   0  0  0  0  0  0  0  0  0  0  0  0
    5.7595   -0.7727    1.2668 O   0  0  0  0  0  0  0  0  0  0  0  0
    4.1012   -2.3542    1.1227 O   0  0  0  0  0  0  0  0  0  0  0  0
    4.8040   -0.2599   -1.7193 H   0  0  0  0  0  0  0  0  0  0  0  0
    3.3190   -0.5994   -2.6855 H   0  0  0  0  0  0  0  0  0  0  0  0
    3.8510   -1.7711   -1.4430 H   0  0  0  0  0  0  0  0  0  0  0  0
    2.1044    2.0663   -0.3720 H   0  0  0  0  0  0  0  0  0  0  0  0
    3.6655    2.0132   -1.2647 H   0  0  0  0  0  0  0  0  0  0  0  0
    2.1412    1.4954   -2.0779 H   0  0  0  0  0  0  0  0  0  0  0  0
    1.2315   -1.7791    1.7556 H   0  0  0  0  0  0  0  0  0  0  0  0
   -0.1667   -0.2552    2.8707 H   0  0  0  0  0  0  0  0  0  0  0  0
   -0.0318    1.8333    0.6669 H   0  0  0  0  0  0  0  0  0  0  0  0
   -3.5261   -0.3530    1.5440 H   0  0  0  0  0  0  0  0  0  0  0  0
   -1.7193   -1.7241    1.8270 H   0  0  0  0  0  0  0  0  0  0  0  0
   -2.4726   -2.2475    0.4399 H   0  0  0  0  0  0  0  0  0  0  0  0
   -1.3461    0.0951   -1.5654 H   0  0  0  0  0  0  0  0  0  0  0  0
   -2.2889    0.4543   -3.8103 H   0  0  0  0  0  0  0  0  0  0  0  0
   -5.8537    0.6445   -4.5891 H   0  0  0  0  0  0  0  0  0  0  0  0
   -6.2643    0.2919   -2.1766 H   0  0  0  0  0  0  0  0  0  0  0  0
   -5.3368   -0.0674    0.0718 H   0  0  0  0  0  0  0  0  0  0  0  0
    4.0744    1.0532    0.9955 H   0  0  0  0  0  0  0  0  0  0  0  0
    4.7481   -3.1116    1.3071 H   0  0  0  0  0  0  0  0  0  0  0  0
  1  2  1  0
  2  3  1  0
  2  4  1  0
  5  4  1  0
  5  6  1  0
  6  7  1  0
  7  8  1  0
  8  9  2  0
  8 10  1  0
 10 11  1  0
 10 12  1  0
 12 13  2  0
 13 14  1  0
 14 15  2  0
 15 16  1  0
 15 17  1  0
 17 18  2  0
 18 12  1  0
  6 19  1  0
 19 20  2  0
 19 21  1  0
 21  5  1  0
 21 22  1  0
 22  2  1  0
 22 23  1  0
 23 24  2  0
 23 25  1  0
  1 26  1  0
  1 27  1  0
  1 28  1  0
  3 29  1  0
  3 30  1  0
  3 31  1  0
  5 32  1  1
  6 33  1  1
  7 34  1  0
 10 35  1  1
 11 36  1  0
 11 37  1  0
 13 38  1  0
 14 39  1  0
 16 40  1  0
 17 41  1  0
 18 42  1  0
 22 43  1  1
 25 44  1  0
M  END
> <ID>
HT0150

> <Class>
1.0

> <Clusters>
18

> <Fold>
5

$$$$