
     RDKit          3D

 44 46  0  0  0  0  0  0  0  0999 V2000
   -2.4934   -2.1592    1.7046 C   0  0  0  0  0  0  0  0  0  0  0  0
   -2.8637   -2.0009    0.2298 C   0  0  0  0  0  0  0  0  0  0  0  0
   -2.8178   -0.5800   -0.1772 N   0  0  0  0  0  0  0  0  0  0  0  0
   -4.0243    0.0680   -0.2291 C   0  0  0  0  0  0  0  0  0  0  0  0
   -4.1333    1.4155   -0.5933 C   0  0  0  0  0  0  0  0  0  0  0  0
   -5.4757    2.0613   -0.6305 C   0  0  0  0  0  0  0  0  0  0  0  0
   -6.5095    1.3955   -0.3498 O   0  0  0  0  0  0  0  0  0  0  0  0
   -5.6153    3.4038   -0.9733 O   0  0  0  0  0  0  0  0  0  0  0  0
   -2.9626    2.1183   -0.9109 C   0  0  0  0  0  0  0  0  0  0  0  0
   -3.0261    3.3344   -1.2447 O   0  0  0  0  0  0  0  0  0  0  0  0
   -1.7156    1.4705   -0.8576 C   0  0  0  0  0  0  0  0  0  0  0  0
   -0.5410    2.1803   -1.1716 C   0  0  0  0  0  0  0  0  0  0  0  0
    0.7006    1.5607   -1.1224 C   0  0  0  0  0  0  0  0  0  0  0  0
    1.8167    2.2788   -1.4059 F   0  0  0  0  0  0  0  0  0  0  0  0
    0.8001    0.2181   -0.7620 C   0  0  0  0  0  0  0  0  0  0  0  0
    2.0914   -0.4068   -0.7069 N   0  0  0  0  0  0  0  0  0  0  0  0
    2.7780   -0.7438   -1.9576 C   0  0  0  0  0  0  0  0  0  0  0  0
    4.1954   -1.2527   -1.6724 C   0  0  0  0  0  0  0  0  0  0  0  0
    4.8150   -0.4471   -0.6139 N   0  0  0  0  0  0  0  0  0  0  0  0
    4.1427   -0.6333    0.6928 C   0  0  0  0  0  0  0  0  0  0  0  0
    4.4206    0.5691    1.6053 C   0  0  0  0  0  0  0  0  0  0  0  0
    2.6155   -0.8976    0.5715 C   0  0  0  0  0  0  0  0  0  0  0  0
   -0.3547   -0.5154   -0.4465 C   0  0  0  0  0  0  0  0  0  0  0  0
   -0.1721   -1.8187   -0.1254 F   0  0  0  0  0  0  0  0  0  0  0  0
   -1.6451    0.0967   -0.4838 C   0  0  0  0  0  0  0  0  0  0  0  0
   -2.4596   -3.2374    1.9670 H   0  0  0  0  0  0  0  0  0  0  0  0
   -3.2590   -1.6622    2.3374 H   0  0  0  0  0  0  0  0  0  0  0  0
   -1.5072   -1.7049    1.9280 H   0  0  0  0  0  0  0  0  0  0  0  0
   -3.8857   -2.4233    0.1016 H   0  0  0  0  0  0  0  0  0  0  0  0
   -2.2453   -2.6344   -0.4357 H   0  0  0  0  0  0  0  0  0  0  0  0
   -4.9313   -0.4679    0.0283 H   0  0  0  0  0  0  0  0  0  0  0  0
   -6.5278    3.8431   -0.9986 H   0  0  0  0  0  0  0  0  0  0  0  0
   -0.5778    3.2259   -1.4528 H   0  0  0  0  0  0  0  0  0  0  0  0
    2.2010   -1.5181   -2.5074 H   0  0  0  0  0  0  0  0  0  0  0  0
    2.8478    0.1625   -2.5970 H   0  0  0  0  0  0  0  0  0  0  0  0
    4.1657   -2.3227   -1.3679 H   0  0  0  0  0  0  0  0  0  0  0  0
    4.8082   -1.1838   -2.5968 H   0  0  0  0  0  0  0  0  0  0  0  0
    4.7701    0.5591   -0.9052 H   0  0  0  0  0  0  0  0  0  0  0  0
    4.6008   -1.5197    1.1852 H   0  0  0  0  0  0  0  0  0  0  0  0
    3.9304    1.4822    1.2043 H   0  0  0  0  0  0  0  0  0  0  0  0
    5.5147    0.7480    1.6748 H   0  0  0  0  0  0  0  0  0  0  0  0
    4.0343    0.3728    2.6284 H   0  0  0  0  0  0  0  0  0  0  0  0
    2.0602   -0.4412    1.4216 H   0  0  0  0  0  0  0  0  0  0  0  0
    2.4349   -1.9934    0.6244 H   0  0  0  0  0  0  0  0  0  0  0  0
  1  2  1  0
  2  3  1  0
  3  4  1  0
  4  5  2  0
  5  6  1  0
  6  7  2  0
  6  8  1  0
  5  9  1  0
  9 10  2  0
  9 11  1  0
 11 12  2  0
 12 13  1  0
 13 14  1  0
 13 15  2  0
 15 16  1  0
 16 17  1  0
 17 18  1  0
 18 19  1  0
 19 20  1  0
 20 21  1  0
 20 22  1  0
 22 16  1  0
 15 23  1  0
 23 24  1  0
 23 25  2  0
 25  3  1  0
 25 11  1  0
  1 26  1  0
  1 27  1  0
  1 28  1  0
  2 29  1  0
  2 30  1  0
  4 31  1  0
  8 32  1  0
 12 33  1  0
 17 34  1  0
 17 35  1  0
 18 36  1  0
 18 37  1  0
 19 38  1  0
 20 39  1  0
 21 40  1  0
 21 41  1  0
 21 42  1  0
 22 43  1  0
 22 44  1  0
M  END
> <ID>
HT1229

> <Class>
1.0

> <Clusters>
117

> <Fold>
5

$$$$