
     RDKit          3D

 61 62  0  0  0  0  0  0  0  0999 V2000
    5.4466   -3.7072    0.8484 C   0  0  0  0  0  0  0  0  0  0  0  0
    4.4136   -2.6035    1.0569 C   0  0  0  0  0  0  0  0  0  0  0  0
    4.1144   -1.8722   -0.2583 C   0  0  0  0  0  0  0  0  0  0  0  0
    3.0370   -0.7832   -0.0794 C   0  0  2  0  0  0  0  0  0  0  0  0
    2.6561   -0.1210   -1.3990 C   0  0  0  0  0  0  0  0  0  0  0  0
    2.4264    1.3600   -1.0603 C   0  0  2  0  0  0  0  0  0  0  0  0
    2.6796    1.5306    0.3797 N   0  0  0  0  0  0  0  0  0  0  0  0
    3.3506    2.8036    0.6840 C   0  0  0  0  0  0  0  0  0  0  0  0
    3.4843    0.3797    0.7948 C   0  0  0  0  0  0  0  0  0  0  0  0
    1.0183    1.7863   -1.3704 C   0  0  0  0  0  0  0  0  0  0  0  0
    0.8182    2.6844   -2.2327 O   0  0  0  0  0  0  0  0  0  0  0  0
   -0.0866    1.1843   -0.6790 N   0  0  0  0  0  0  0  0  0  0  0  0
   -1.4658    1.6711   -0.8099 C   0  0  2  0  0  0  0  0  0  0  0  0
   -1.7082    2.8983    0.1283 C   0  0  1  0  0  0  0  0  0  0  0  0
   -0.9693    2.8062    1.4707 C   0  0  0  0  0  0  0  0  0  0  0  0
   -1.2968    4.0754   -0.5165 O   0  0  0  0  0  0  0  0  0  0  0  0
   -2.4600    0.4949   -0.5881 C   0  0  1  0  0  0  0  0  0  0  0  0
   -2.6510    0.2590    0.7947 O   0  0  0  0  0  0  0  0  0  0  0  0
   -3.2009   -1.0290    1.0464 C   0  0  2  0  0  0  0  0  0  0  0  0
   -1.8363   -2.2498    1.2246 S   0  0  0  0  0  0  0  0  0  0  0  0
   -2.8160   -3.5092    2.1066 C   0  0  0  0  0  0  0  0  0  0  0  0
   -4.2928   -1.4670    0.0181 C   0  0  2  0  0  0  0  0  0  0  0  0
   -3.7373   -2.3078   -0.9650 O   0  0  0  0  0  0  0  0  0  0  0  0
   -4.9202   -0.2324   -0.6621 C   0  0  1  0  0  0  0  0  0  0  0  0
   -5.7259    0.4744    0.2527 O   0  0  0  0  0  0  0  0  0  0  0  0
   -3.8331    0.6703   -1.3083 C   0  0  1  0  0  0  0  0  0  0  0  0
   -4.2691    2.0074   -1.3024 O   0  0  0  0  0  0  0  0  0  0  0  0
    6.3990   -3.2765    0.4721 H   0  0  0  0  0  0  0  0  0  0  0  0
    5.0688   -4.4586    0.1219 H   0  0  0  0  0  0  0  0  0  0  0  0
    5.6478   -4.2156    1.8139 H   0  0  0  0  0  0  0  0  0  0  0  0
    4.8089   -1.8858    1.8084 H   0  0  0  0  0  0  0  0  0  0  0  0
    3.4789   -3.0549    1.4574 H   0  0  0  0  0  0  0  0  0  0  0  0
    5.0497   -1.4194   -0.6551 H   0  0  0  0  0  0  0  0  0  0  0  0
    3.7493   -2.6126   -1.0050 H   0  0  0  0  0  0  0  0  0  0  0  0
    2.1209   -1.2351    0.3658 H   0  0  0  0  0  0  0  0  0  0  0  0
    1.7580   -0.6139   -1.8337 H   0  0  0  0  0  0  0  0  0  0  0  0
    3.4822   -0.2017   -2.1410 H   0  0  0  0  0  0  0  0  0  0  0  0
    3.1355    1.9679   -1.6721 H   0  0  0  0  0  0  0  0  0  0  0  0
    4.3300    2.8833    0.1619 H   0  0  0  0  0  0  0  0  0  0  0  0
    3.5168    2.8898    1.7798 H   0  0  0  0  0  0  0  0  0  0  0  0
    2.7039    3.6501    0.3723 H   0  0  0  0  0  0  0  0  0  0  0  0
    4.5724    0.5738    0.6469 H   0  0  0  0  0  0  0  0  0  0  0  0
    3.2959    0.1562    1.8674 H   0  0  0  0  0  0  0  0  0  0  0  0
    0.1157    0.4341    0.0205 H   0  0  0  0  0  0  0  0  0  0  0  0
   -1.6094    1.9981   -1.8640 H   0  0  0  0  0  0  0  0  0  0  0  0
   -2.7898    2.9828    0.3737 H   0  0  0  0  0  0  0  0  0  0  0  0
   -1.2135    1.8662    2.0056 H   0  0  0  0  0  0  0  0  0  0  0  0
   -1.2699    3.6581    2.1178 H   0  0  0  0  0  0  0  0  0  0  0  0
    0.1302    2.8626    1.3209 H   0  0  0  0  0  0  0  0  0  0  0  0
   -1.9959    4.2976   -1.1854 H   0  0  0  0  0  0  0  0  0  0  0  0
   -1.9727   -0.3953   -1.0547 H   0  0  0  0  0  0  0  0  0  0  0  0
   -3.7000   -0.9526    2.0356 H   0  0  0  0  0  0  0  0  0  0  0  0
   -2.1552   -4.3636    2.3596 H   0  0  0  0  0  0  0  0  0  0  0  0
   -3.6418   -3.8782    1.4627 H   0  0  0  0  0  0  0  0  0  0  0  0
   -3.2292   -3.0875    3.0465 H   0  0  0  0  0  0  0  0  0  0  0  0
   -5.0909   -2.0218    0.5682 H   0  0  0  0  0  0  0  0  0  0  0  0
   -4.4853   -2.8340   -1.3546 H   0  0  0  0  0  0  0  0  0  0  0  0
   -5.5957   -0.5882   -1.4713 H   0  0  0  0  0  0  0  0  0  0  0  0
   -5.1328    0.9166    0.9127 H   0  0  0  0  0  0  0  0  0  0  0  0
   -3.6994    0.3270   -2.3634 H   0  0  0  0  0  0  0  0  0  0  0  0
   -3.9581    2.4275   -2.1457 H   0  0  0  0  0  0  0  0  0  0  0  0
  1  2  1  0
  2  3  1  0
  4  3  1  0
  4  5  1  0
  5  6  1  0
  6  7  1  0
  7  8  1  0
  7  9  1  0
  9  4  1  0
  6 10  1  0
 10 11  2  0
 10 12  1  0
 13 12  1  0
 13 14  1  0
 14 15  1  0
 14 16  1  0
 17 13  1  0
 17 18  1  0
 18 19  1  0
 19 20  1  0
 20 21  1  0
 19 22  1  0
 22 23  1  0
 22 24  1  0
 24 25  1  0
 24 26  1  0
 26 17  1  0
 26 27  1  0
  1 28  1  0
  1 29  1  0
  1 30  1  0
  2 31  1  0
  2 32  1  0
  3 33  1  0
  3 34  1  0
  4 35  1  1
  5 36  1  0
  5 37  1  0
  6 38  1  6
  8 39  1  0
  8 40  1  0
  8 41  1  0
  9 42  1  0
  9 43  1  0
 12 44  1  0
 13 45  1  6
 14 46  1  1
 15 47  1  0
 15 48  1  0
 15 49  1  0
 16 50  1  0
 17 51  1  6
 19 52  1  1
 21 53  1  0
 21 54  1  0
 21 55  1  0
 22 56  1  1
 23 57  1  0
 24 58  1  6
 25 59  1  0
 26 60  1  6
 27 61  1  0
M  END
> <ID>
HT1212

> <Class>
1.0

> <Clusters>
59

> <Fold>
5

$$$$