
     RDKit          3D

 65 67  0  0  0  0  0  0  0  0999 V2000
   -4.6125    2.1591   -2.4704 C   0  0  0  0  0  0  0  0  0  0  0  0
   -3.7182    1.6608   -1.3349 C   0  0  0  0  0  0  0  0  0  0  0  0
   -2.2856    2.2280   -1.4102 C   0  0  2  0  0  0  0  0  0  0  0  0
   -1.5131    1.6921   -2.6239 C   0  0  0  0  0  0  0  0  0  0  0  0
   -1.5373    1.8910   -0.1510 C   0  0  0  0  0  0  0  0  0  0  0  0
   -1.1028    2.8197    0.5848 O   0  0  0  0  0  0  0  0  0  0  0  0
   -1.3081    0.5501    0.1822 O   0  0  0  0  0  0  0  0  0  0  0  0
   -0.4823    0.1475    1.2759 C   0  0  1  0  0  0  0  0  0  0  0  0
   -1.2360    0.2381    2.6140 C   0  0  0  0  0  0  0  0  0  0  0  0
   -2.3978   -0.7809    2.7375 C   0  0  1  0  0  0  0  0  0  0  0  0
   -3.7227   -0.1716    2.2630 C   0  0  0  0  0  0  0  0  0  0  0  0
   -2.1571   -2.0832    2.0028 C   0  0  0  0  0  0  0  0  0  0  0  0
   -1.1262   -2.2855    1.1678 C   0  0  0  0  0  0  0  0  0  0  0  0
   -1.0952   -3.5009    0.3324 C   0  0  0  0  0  0  0  0  0  0  0  0
   -0.5080   -3.4570   -0.8624 C   0  0  0  0  0  0  0  0  0  0  0  0
    0.0289   -2.1442   -1.3715 C   0  0  2  0  0  0  0  0  0  0  0  0
    0.7684   -2.3124   -2.7037 C   0  0  0  0  0  0  0  0  0  0  0  0
    0.8647   -1.4359   -0.2626 C   0  0  2  0  0  0  0  0  0  0  0  0
    2.2376   -2.1408    0.0005 C   0  0  0  0  0  0  0  0  0  0  0  0
    3.4486   -1.4894   -0.7085 C   0  0  0  0  0  0  0  0  0  0  0  0
    3.8306   -0.0512   -0.2766 C   0  0  2  0  0  0  0  0  0  0  0  0
    3.8488    0.1647    1.2506 C   0  0  0  0  0  0  0  0  0  0  0  0
    4.1453    1.6323    1.5766 C   0  0  1  0  0  0  0  0  0  0  0  0
    5.4011    1.9914    1.0583 O   0  0  0  0  0  0  0  0  0  0  0  0
    3.0459    2.5432    1.0030 C   0  0  0  0  0  0  0  0  0  0  0  0
    2.6193    2.1347   -0.3804 C   0  0  0  0  0  0  0  0  0  0  0  0
    1.8615    2.8947   -1.0378 O   0  0  0  0  0  0  0  0  0  0  0  0
    3.0081    0.9118   -0.9418 O   0  0  0  0  0  0  0  0  0  0  0  0
    0.0212   -1.2908    1.0646 C   0  0  1  0  0  0  0  0  0  0  0  0
   -4.6082    3.2695   -2.5109 H   0  0  0  0  0  0  0  0  0  0  0  0
   -4.2749    1.7500   -3.4459 H   0  0  0  0  0  0  0  0  0  0  0  0
   -5.6551    1.8166   -2.2958 H   0  0  0  0  0  0  0  0  0  0  0  0
   -4.1830    1.9774   -0.3750 H   0  0  0  0  0  0  0  0  0  0  0  0
   -3.6947    0.5490   -1.3519 H   0  0  0  0  0  0  0  0  0  0  0  0
   -2.3445    3.3364   -1.4987 H   0  0  0  0  0  0  0  0  0  0  0  0
   -1.9519    2.0799   -3.5664 H   0  0  0  0  0  0  0  0  0  0  0  0
   -0.4549    2.0281   -2.5843 H   0  0  0  0  0  0  0  0  0  0  0  0
   -1.5327    0.5825   -2.6480 H   0  0  0  0  0  0  0  0  0  0  0  0
    0.4072    0.8137    1.3297 H   0  0  0  0  0  0  0  0  0  0  0  0
   -1.5975    1.2767    2.7755 H   0  0  0  0  0  0  0  0  0  0  0  0
   -0.5083    0.0394    3.4320 H   0  0  0  0  0  0  0  0  0  0  0  0
   -2.5181   -1.0243    3.8162 H   0  0  0  0  0  0  0  0  0  0  0  0
   -4.5614   -0.8717    2.4668 H   0  0  0  0  0  0  0  0  0  0  0  0
   -3.9318    0.7752    2.8037 H   0  0  0  0  0  0  0  0  0  0  0  0
   -3.6927    0.0317    1.1738 H   0  0  0  0  0  0  0  0  0  0  0  0
   -2.9287   -2.8415    2.0795 H   0  0  0  0  0  0  0  0  0  0  0  0
   -1.5782   -4.4120    0.6638 H   0  0  0  0  0  0  0  0  0  0  0  0
   -0.4661   -4.3504   -1.4742 H   0  0  0  0  0  0  0  0  0  0  0  0
   -0.8517   -1.4987   -1.5847 H   0  0  0  0  0  0  0  0  0  0  0  0
    1.5951   -3.0478   -2.6200 H   0  0  0  0  0  0  0  0  0  0  0  0
    1.1733   -1.3347   -3.0400 H   0  0  0  0  0  0  0  0  0  0  0  0
    0.0608   -2.6753   -3.4798 H   0  0  0  0  0  0  0  0  0  0  0  0
    1.0640   -0.4190   -0.6474 H   0  0  0  0  0  0  0  0  0  0  0  0
    2.1799   -3.2017   -0.3227 H   0  0  0  0  0  0  0  0  0  0  0  0
    2.4818   -2.2173    1.0787 H   0  0  0  0  0  0  0  0  0  0  0  0
    3.2936   -1.5002   -1.8068 H   0  0  0  0  0  0  0  0  0  0  0  0
    4.3283   -2.1421   -0.5160 H   0  0  0  0  0  0  0  0  0  0  0  0
    4.8673    0.1102   -0.6473 H   0  0  0  0  0  0  0  0  0  0  0  0
    2.8624   -0.0861    1.6941 H   0  0  0  0  0  0  0  0  0  0  0  0
    4.6214   -0.4877    1.7139 H   0  0  0  0  0  0  0  0  0  0  0  0
    4.1579    1.7430    2.6867 H   0  0  0  0  0  0  0  0  0  0  0  0
    5.6820    2.8174    1.5322 H   0  0  0  0  0  0  0  0  0  0  0  0
    2.1556    2.5088    1.6666 H   0  0  0  0  0  0  0  0  0  0  0  0
    3.4067    3.5936    0.9832 H   0  0  0  0  0  0  0  0  0  0  0  0
    0.6703   -1.5039    1.9409 H   0  0  0  0  0  0  0  0  0  0  0  0
  1  2  1  0
  2  3  1  0
  3  4  1  0
  3  5  1  0
  5  6  2  0
  5  7  1  0
  8  7  1  0
  8  9  1  0
  9 10  1  0
 10 11  1  0
 10 12  1  0
 12 13  2  0
 13 14  1  0
 14 15  2  0
 15 16  1  0
 16 17  1  0
 16 18  1  0
 18 19  1  0
 19 20  1  0
 21 20  1  0
 21 22  1  0
 22 23  1  0
 23 24  1  0
 23 25  1  0
 25 26  1  0
 26 27  2  0
 26 28  1  0
 28 21  1  0
 18 29  1  0
 29  8  1  0
 29 13  1  0
  1 30  1  0
  1 31  1  0
  1 32  1  0
  2 33  1  0
  2 34  1  0
  3 35  1  6
  4 36  1  0
  4 37  1  0
  4 38  1  0
  8 39  1  1
  9 40  1  0
  9 41  1  0
 10 42  1  1
 11 43  1  0
 11 44  1  0
 11 45  1  0
 12 46  1  0
 14 47  1  0
 15 48  1  0
 16 49  1  6
 17 50  1  0
 17 51  1  0
 17 52  1  0
 18 53  1  6
 19 54  1  0
 19 55  1  0
 20 56  1  0
 20 57  1  0
 21 58  1  6
 22 59  1  0
 22 60  1  0
 23 61  1  1
 24 62  1  0
 25 63  1  0
 25 64  1  0
 29 65  1  1
M  END
> <ID>
HT1245

> <Class>
1.0

> <Clusters>
149

> <Fold>
5

$$$$