
     RDKit          3D

 38 41  0  0  0  0  0  0  0  0999 V2000
   -0.5904    5.1219    0.4868 Cl  0  0  0  0  0  0  0  0  0  0  0  0
    0.2347    3.6752   -0.0638 C   0  0  0  0  0  0  0  0  0  0  0  0
    1.3497    3.7809   -0.8948 C   0  0  0  0  0  0  0  0  0  0  0  0
    2.0106    2.6289   -1.3215 C   0  0  0  0  0  0  0  0  0  0  0  0
    1.5690    1.3620   -0.9186 C   0  0  0  0  0  0  0  0  0  0  0  0
    2.3183    0.2592   -1.3213 O   0  0  0  0  0  0  0  0  0  0  0  0
    2.7424   -0.7324   -0.4391 C   0  0  0  0  0  0  0  0  0  0  0  0
    4.0833   -1.1345   -0.5029 C   0  0  0  0  0  0  0  0  0  0  0  0
    4.5741   -2.1098    0.3670 C   0  0  0  0  0  0  0  0  0  0  0  0
    3.7212   -2.7067    1.2950 C   0  0  0  0  0  0  0  0  0  0  0  0
    2.3760   -2.3349    1.3451 C   0  0  0  0  0  0  0  0  0  0  0  0
    1.8758   -1.3401    0.4924 C   0  0  0  0  0  0  0  0  0  0  0  0
    0.4591   -1.1328    0.4752 N   0  0  0  0  0  0  0  0  0  0  0  0
   -0.2250   -0.0704    0.1658 C   0  0  0  0  0  0  0  0  0  0  0  0
   -1.6626   -0.1686    0.1785 N   0  0  0  0  0  0  0  0  0  0  0  0
   -2.3617   -0.8108    1.2954 C   0  0  0  0  0  0  0  0  0  0  0  0
   -3.4578   -1.7357    0.7545 C   0  0  0  0  0  0  0  0  0  0  0  0
   -4.3339   -1.0284   -0.1911 N   0  0  0  0  0  0  0  0  0  0  0  0
   -3.5658   -0.5043   -1.3299 C   0  0  0  0  0  0  0  0  0  0  0  0
   -2.4732    0.4657   -0.8658 C   0  0  0  0  0  0  0  0  0  0  0  0
    0.4089    1.2421   -0.1270 C   0  0  0  0  0  0  0  0  0  0  0  0
   -0.2347    2.4148    0.3149 C   0  0  0  0  0  0  0  0  0  0  0  0
    1.7121    4.7539   -1.2012 H   0  0  0  0  0  0  0  0  0  0  0  0
    2.8897    2.7203   -1.9468 H   0  0  0  0  0  0  0  0  0  0  0  0
    4.7510   -0.6760   -1.2215 H   0  0  0  0  0  0  0  0  0  0  0  0
    5.6141   -2.4059    0.3181 H   0  0  0  0  0  0  0  0  0  0  0  0
    4.0971   -3.4716    1.9621 H   0  0  0  0  0  0  0  0  0  0  0  0
    1.7134   -2.8343    2.0412 H   0  0  0  0  0  0  0  0  0  0  0  0
   -1.6624   -1.4030    1.9243 H   0  0  0  0  0  0  0  0  0  0  0  0
   -2.8184   -0.0266    1.9371 H   0  0  0  0  0  0  0  0  0  0  0  0
   -2.9939   -2.6137    0.2532 H   0  0  0  0  0  0  0  0  0  0  0  0
   -4.0663   -2.1169    1.6026 H   0  0  0  0  0  0  0  0  0  0  0  0
   -4.7955   -0.2293    0.3048 H   0  0  0  0  0  0  0  0  0  0  0  0
   -4.2542    0.0247   -2.0236 H   0  0  0  0  0  0  0  0  0  0  0  0
   -3.1055   -1.3465   -1.8924 H   0  0  0  0  0  0  0  0  0  0  0  0
   -1.8444    0.7442   -1.7397 H   0  0  0  0  0  0  0  0  0  0  0  0
   -2.9432    1.3878   -0.4610 H   0  0  0  0  0  0  0  0  0  0  0  0
   -1.1114    2.3516    0.9478 H   0  0  0  0  0  0  0  0  0  0  0  0
  1  2  1  0
  2  3  2  0
  3  4  1  0
  4  5  2  0
  5  6  1  0
  6  7  1  0
  7  8  2  0
  8  9  1  0
  9 10  2  0
 10 11  1  0
 11 12  2  0
 12  7  1  0
 12 13  1  0
 13 14  2  0
 14 15  1  0
 15 16  1  0
 16 17  1  0
 17 18  1  0
 18 19  1  0
 19 20  1  0
 20 15  1  0
 14 21  1  0
 21  5  1  0
 21 22  2  0
 22  2  1  0
  3 23  1  0
  4 24  1  0
  8 25  1  0
  9 26  1  0
 10 27  1  0
 11 28  1  0
 16 29  1  0
 16 30  1  0
 17 31  1  0
 17 32  1  0
 18 33  1  0
 19 34  1  0
 19 35  1  0
 20 36  1  0
 20 37  1  0
 22 38  1  0
M  END
> <ID>
HT0149

> <Class>
1.0

> <Clusters>
150

> <Fold>
5

$$$$