
     RDKit          3D

 57 60  0  0  0  0  0  0  0  0999 V2000
    2.2965    1.4115    1.2742 C   0  0  0  0  0  0  0  0  0  0  0  0
    2.0793    0.3680    0.2518 N   0  0  0  0  0  0  0  0  0  0  0  0
    1.0178    0.7885   -0.6913 C   0  0  0  0  0  0  0  0  0  0  0  0
   -0.3480    0.3056   -0.1905 C   0  0  0  0  0  0  0  0  0  0  0  0
   -1.4850    0.8320   -1.0747 C   0  0  0  0  0  0  0  0  0  0  0  0
   -2.7703    0.2339   -0.6783 N   0  0  0  0  0  0  0  0  0  0  0  0
   -3.8189    1.0881   -0.2058 C   0  0  0  0  0  0  0  0  0  0  0  0
   -4.3887    2.0498   -1.0534 C   0  0  0  0  0  0  0  0  0  0  0  0
   -5.4218    2.8681   -0.5886 C   0  0  0  0  0  0  0  0  0  0  0  0
   -5.8853    2.7327    0.7235 C   0  0  0  0  0  0  0  0  0  0  0  0
   -5.3122    1.7827    1.5743 C   0  0  0  0  0  0  0  0  0  0  0  0
   -4.2692    0.9631    1.1128 C   0  0  0  0  0  0  0  0  0  0  0  0
   -3.6367   -0.0673    1.9992 C   0  0  0  0  0  0  0  0  0  0  0  0
   -4.0644   -1.4750    1.5834 C   0  0  0  0  0  0  0  0  0  0  0  0
   -3.6262   -1.9718    0.2092 C   0  0  0  0  0  0  0  0  0  0  0  0
   -3.8742   -3.3364   -0.0426 C   0  0  0  0  0  0  0  0  0  0  0  0
   -3.5295   -3.9215   -1.2582 C   0  0  0  0  0  0  0  0  0  0  0  0
   -2.9294   -3.1589   -2.2527 C   0  0  0  0  0  0  0  0  0  0  0  0
   -2.6834   -1.8035   -2.0398 C   0  0  0  0  0  0  0  0  0  0  0  0
   -3.0166   -1.1839   -0.8188 C   0  0  0  0  0  0  0  0  0  0  0  0
    3.3372    0.0760   -0.4702 C   0  0  0  0  0  0  0  0  0  0  0  0
    4.3460   -0.5963    0.4272 C   0  0  0  0  0  0  0  0  0  0  0  0
    3.9410   -1.4262    1.2869 O   0  0  0  0  0  0  0  0  0  0  0  0
    5.7962   -0.3101    0.3195 C   0  0  0  0  0  0  0  0  0  0  0  0
    6.6292   -0.4643    1.4438 C   0  0  0  0  0  0  0  0  0  0  0  0
    8.0001   -0.2029    1.3517 C   0  0  0  0  0  0  0  0  0  0  0  0
    8.5561    0.2029    0.1345 C   0  0  0  0  0  0  0  0  0  0  0  0
   10.2771    0.5247    0.0190 Cl  0  0  0  0  0  0  0  0  0  0  0  0
    7.7398    0.3461   -0.9931 C   0  0  0  0  0  0  0  0  0  0  0  0
    6.3678    0.0921   -0.9036 C   0  0  0  0  0  0  0  0  0  0  0  0
    3.0014    1.0515    2.0526 H   0  0  0  0  0  0  0  0  0  0  0  0
    1.3480    1.6508    1.7972 H   0  0  0  0  0  0  0  0  0  0  0  0
    2.7056    2.3440    0.8240 H   0  0  0  0  0  0  0  0  0  0  0  0
    1.1711    0.3439   -1.7007 H   0  0  0  0  0  0  0  0  0  0  0  0
    1.0100    1.8943   -0.8291 H   0  0  0  0  0  0  0  0  0  0  0  0
   -0.5157    0.6565    0.8492 H   0  0  0  0  0  0  0  0  0  0  0  0
   -0.3518   -0.8064   -0.1869 H   0  0  0  0  0  0  0  0  0  0  0  0
   -1.5253    1.9385   -0.9685 H   0  0  0  0  0  0  0  0  0  0  0  0
   -1.2760    0.6224   -2.1437 H   0  0  0  0  0  0  0  0  0  0  0  0
   -4.0408    2.1530   -2.0737 H   0  0  0  0  0  0  0  0  0  0  0  0
   -5.8664    3.6047   -1.2455 H   0  0  0  0  0  0  0  0  0  0  0  0
   -6.6909    3.3602    1.0806 H   0  0  0  0  0  0  0  0  0  0  0  0
   -5.6795    1.6874    2.5893 H   0  0  0  0  0  0  0  0  0  0  0  0
   -3.9372    0.1006    3.0566 H   0  0  0  0  0  0  0  0  0  0  0  0
   -2.5302    0.0183    1.9660 H   0  0  0  0  0  0  0  0  0  0  0  0
   -5.1729   -1.5483    1.6502 H   0  0  0  0  0  0  0  0  0  0  0  0
   -3.6499   -2.1702    2.3469 H   0  0  0  0  0  0  0  0  0  0  0  0
   -4.3455   -3.9538    0.7142 H   0  0  0  0  0  0  0  0  0  0  0  0
   -3.7283   -4.9725   -1.4295 H   0  0  0  0  0  0  0  0  0  0  0  0
   -2.6696   -3.6135   -3.2012 H   0  0  0  0  0  0  0  0  0  0  0  0
   -2.2530   -1.2353   -2.8524 H   0  0  0  0  0  0  0  0  0  0  0  0
    3.7536    1.0107   -0.9084 H   0  0  0  0  0  0  0  0  0  0  0  0
    3.1419   -0.6342   -1.3024 H   0  0  0  0  0  0  0  0  0  0  0  0
    6.2177   -0.7741    2.3973 H   0  0  0  0  0  0  0  0  0  0  0  0
    8.6288   -0.3169    2.2269 H   0  0  0  0  0  0  0  0  0  0  0  0
    8.1677    0.6504   -1.9407 H   0  0  0  0  0  0  0  0  0  0  0  0
    5.7626    0.1902   -1.7970 H   0  0  0  0  0  0  0  0  0  0  0  0
  1  2  1  0
  2  3  1  0
  3  4  1  0
  4  5  1  0
  5  6  1  0
  6  7  1  0
  7  8  2  0
  8  9  1  0
  9 10  2  0
 10 11  1  0
 11 12  2  0
 12  7  1  0
 12 13  1  0
 13 14  1  0
 14 15  1  0
 15 16  2  0
 16 17  1  0
 17 18  2  0
 18 19  1  0
 19 20  2  0
 20  6  1  0
 20 15  1  0
  2 21  1  0
 21 22  1  0
 22 23  2  0
 22 24  1  0
 24 25  2  0
 25 26  1  0
 26 27  2  0
 27 28  1  0
 27 29  1  0
 29 30  2  0
 30 24  1  0
  1 31  1  0
  1 32  1  0
  1 33  1  0
  3 34  1  0
  3 35  1  0
  4 36  1  0
  4 37  1  0
  5 38  1  0
  5 39  1  0
  8 40  1  0
  9 41  1  0
 10 42  1  0
 11 43  1  0
 13 44  1  0
 13 45  1  0
 14 46  1  0
 14 47  1  0
 16 48  1  0
 17 49  1  0
 18 50  1  0
 19 51  1  0
 21 52  1  0
 21 53  1  0
 25 54  1  0
 26 55  1  0
 29 56  1  0
 30 57  1  0
M  END
> <ID>
HT1227

> <Class>
1.0

> <Clusters>
131

> <Fold>
5

$$$$