
     RDKit          3D

 43 45  0  0  0  0  0  0  0  0999 V2000
    3.2411    1.1654    2.0703 C   0  0  0  0  0  0  0  0  0  0  0  0
    3.0761   -0.0925    1.2052 C   0  0  0  0  0  0  0  0  0  0  0  0
    4.4636   -0.6213    0.7871 C   0  0  0  0  0  0  0  0  0  0  0  0
    2.1680    0.3651   -0.3447 S   0  0  0  0  0  0  0  0  0  0  0  0
    1.4631   -1.3152   -0.4676 C   0  0  2  0  0  0  0  0  0  0  0  0
    0.0372   -1.4790   -0.6603 C   0  0  2  0  0  0  0  0  0  0  0  0
   -0.7132   -0.2252   -0.7811 N   0  0  0  0  0  0  0  0  0  0  0  0
   -0.7497    0.5182   -2.0090 C   0  0  0  0  0  0  0  0  0  0  0  0
   -0.1774    0.0697   -3.0389 O   0  0  0  0  0  0  0  0  0  0  0  0
   -1.4594    1.8436   -2.0834 C   0  0  2  0  0  0  0  0  0  0  0  0
   -0.7863    2.8274   -1.2284 N   0  0  0  0  0  0  0  0  0  0  0  0
   -2.9399    1.6701   -1.7701 C   0  0  0  0  0  0  0  0  0  0  0  0
   -3.7762    1.1218   -2.7607 C   0  0  0  0  0  0  0  0  0  0  0  0
   -5.1401    0.9333   -2.5176 C   0  0  0  0  0  0  0  0  0  0  0  0
   -5.6861    1.2818   -1.2818 C   0  0  0  0  0  0  0  0  0  0  0  0
   -4.8692    1.8174   -0.2839 C   0  0  0  0  0  0  0  0  0  0  0  0
   -3.5031    2.0093   -0.5204 C   0  0  0  0  0  0  0  0  0  0  0  0
   -0.0228   -2.0352    0.7287 C   0  0  0  0  0  0  0  0  0  0  0  0
   -0.9337   -2.4773    1.4766 O   0  0  0  0  0  0  0  0  0  0  0  0
    1.4252   -1.7694    0.8868 N   0  0  0  0  0  0  0  0  0  0  0  0
    2.2099   -1.1649    1.9363 C   0  0  1  0  0  0  0  0  0  0  0  0
    2.9780   -2.1944    2.7202 C   0  0  0  0  0  0  0  0  0  0  0  0
    2.9607   -3.4093    2.3825 O   0  0  0  0  0  0  0  0  0  0  0  0
    3.6924   -1.8006    3.8449 O   0  0  0  0  0  0  0  0  0  0  0  0
    2.2485    1.6004    2.3187 H   0  0  0  0  0  0  0  0  0  0  0  0
    3.7687    0.9220    3.0165 H   0  0  0  0  0  0  0  0  0  0  0  0
    3.8310    1.9363    1.5287 H   0  0  0  0  0  0  0  0  0  0  0  0
    5.1063   -0.8055    1.6747 H   0  0  0  0  0  0  0  0  0  0  0  0
    4.9794    0.1227    0.1411 H   0  0  0  0  0  0  0  0  0  0  0  0
    4.3634   -1.5679    0.2129 H   0  0  0  0  0  0  0  0  0  0  0  0
    2.0806   -1.9908   -1.0964 H   0  0  0  0  0  0  0  0  0  0  0  0
   -0.2467   -2.2335   -1.4258 H   0  0  0  0  0  0  0  0  0  0  0  0
   -1.2448    0.1366    0.0435 H   0  0  0  0  0  0  0  0  0  0  0  0
   -1.3829    2.2251   -3.1269 H   0  0  0  0  0  0  0  0  0  0  0  0
   -1.3326    3.7194   -1.2361 H   0  0  0  0  0  0  0  0  0  0  0  0
   -0.7221    2.4846   -0.2441 H   0  0  0  0  0  0  0  0  0  0  0  0
   -3.3705    0.8412   -3.7252 H   0  0  0  0  0  0  0  0  0  0  0  0
   -5.7752    0.5200   -3.2899 H   0  0  0  0  0  0  0  0  0  0  0  0
   -6.7437    1.1337   -1.0938 H   0  0  0  0  0  0  0  0  0  0  0  0
   -5.2948    2.0870    0.6752 H   0  0  0  0  0  0  0  0  0  0  0  0
   -2.9016    2.4172    0.2790 H   0  0  0  0  0  0  0  0  0  0  0  0
    1.5038   -0.6665    2.6385 H   0  0  0  0  0  0  0  0  0  0  0  0
    4.1751   -2.4790    4.4187 H   0  0  0  0  0  0  0  0  0  0  0  0
  1  2  1  0
  2  3  1  0
  2  4  1  0
  5  4  1  0
  5  6  1  0
  6  7  1  0
  7  8  1  0
  8  9  2  0
  8 10  1  0
 10 11  1  0
 10 12  1  0
 12 13  2  0
 13 14  1  0
 14 15  2  0
 15 16  1  0
 16 17  2  0
 17 12  1  0
  6 18  1  0
 18 19  2  0
 18 20  1  0
 20  5  1  0
 20 21  1  0
 21  2  1  0
 21 22  1  0
 22 23  2  0
 22 24  1  0
  1 25  1  0
  1 26  1  0
  1 27  1  0
  3 28  1  0
  3 29  1  0
  3 30  1  0
  5 31  1  6
  6 32  1  6
  7 33  1  0
 10 34  1  6
 11 35  1  0
 11 36  1  0
 13 37  1  0
 14 38  1  0
 15 39  1  0
 16 40  1  0
 17 41  1  0
 21 42  1  1
 24 43  1  0
M  END
> <ID>
HT0153

> <Class>
1.0

> <Clusters>
18

> <Fold>
5

$$$$