
     RDKit          3D

 65 69  0  0  0  0  0  0  0  0999 V2000
    2.8985    2.3382    2.5785 C   0  0  0  0  0  0  0  0  0  0  0  0
    1.7879    2.3747    1.5153 C   0  0  2  0  0  0  0  0  0  0  0  0
    0.4226    1.7946    1.9652 C   0  0  0  0  0  0  0  0  0  0  0  0
   -0.0025    0.8471    0.8378 C   0  0  1  0  0  0  0  0  0  0  0  0
   -1.4981    0.5141    0.6215 C   0  0  2  0  0  0  0  0  0  0  0  0
   -2.1798    0.0975    1.9458 C   0  0  0  0  0  0  0  0  0  0  0  0
   -3.6557   -0.2436    1.7283 C   0  0  0  0  0  0  0  0  0  0  0  0
   -3.8027   -1.2710    0.6310 C   0  0  0  0  0  0  0  0  0  0  0  0
   -4.4649   -2.4126    0.8792 C   0  0  0  0  0  0  0  0  0  0  0  0
   -4.5844   -3.4511   -0.1440 C   0  0  0  0  0  0  0  0  0  0  0  0
   -5.2238   -4.5082    0.0984 O   0  0  0  0  0  0  0  0  0  0  0  0
   -3.9467   -3.2610   -1.4445 C   0  0  0  0  0  0  0  0  0  0  0  0
   -3.2806   -2.1382   -1.7159 C   0  0  0  0  0  0  0  0  0  0  0  0
   -3.1687   -0.9641   -0.7392 C   0  0  1  0  0  0  0  0  0  0  0  0
   -3.9969    0.1881   -1.3690 C   0  0  0  0  0  0  0  0  0  0  0  0
   -1.6350   -0.6192   -0.4804 C   0  0  2  0  0  0  0  0  0  0  0  0
   -0.8745   -2.1488    0.1523 Cl  0  0  0  0  0  0  0  0  0  0  0  0
   -0.8079   -0.2678   -1.7817 C   0  0  1  0  0  0  0  0  0  0  0  0
   -1.4734    0.6727   -2.5802 O   0  0  0  0  0  0  0  0  0  0  0  0
    0.6474    0.2222   -1.4897 C   0  0  0  0  0  0  0  0  0  0  0  0
    0.7044    1.3544   -0.4283 C   0  0  1  0  0  0  0  0  0  0  0  0
    0.0226    2.6495   -1.0029 C   0  0  0  0  0  0  0  0  0  0  0  0
    2.1346    1.7179    0.1290 C   0  0  2  0  0  0  0  0  0  0  0  0
    3.0140    0.5695    0.2257 O   0  0  0  0  0  0  0  0  0  0  0  0
    2.9596   -0.6027    0.9996 C   0  0  0  0  0  0  0  0  0  0  0  0
    2.4092   -0.6388    2.1305 O   0  0  0  0  0  0  0  0  0  0  0  0
    3.6259   -1.8029    0.4875 C   0  0  0  0  0  0  0  0  0  0  0  0
    4.2483   -1.8549   -0.6672 O   0  0  0  0  0  0  0  0  0  0  0  0
    4.7273   -3.0670   -0.8299 C   0  0  0  0  0  0  0  0  0  0  0  0
    4.4053   -3.8452    0.2639 C   0  0  0  0  0  0  0  0  0  0  0  0
    3.6926   -3.0305    1.1172 C   0  0  0  0  0  0  0  0  0  0  0  0
    2.8839    2.6917   -0.7940 C   0  0  0  0  0  0  0  0  0  0  0  0
    2.9886    3.8761   -0.5062 O   0  0  0  0  0  0  0  0  0  0  0  0
    3.5563    2.2078   -2.0532 C   0  0  0  0  0  0  0  0  0  0  0  0
    2.9075    3.0552   -3.4791 Cl  0  0  0  0  0  0  0  0  0  0  0  0
    2.7276    3.1498    3.3179 H   0  0  0  0  0  0  0  0  0  0  0  0
    2.9248    1.3955    3.1505 H   0  0  0  0  0  0  0  0  0  0  0  0
    3.8887    2.5081    2.1057 H   0  0  0  0  0  0  0  0  0  0  0  0
    1.5965    3.4589    1.3601 H   0  0  0  0  0  0  0  0  0  0  0  0
    0.4977    1.2474    2.9305 H   0  0  0  0  0  0  0  0  0  0  0  0
   -0.3261    2.6095    2.0795 H   0  0  0  0  0  0  0  0  0  0  0  0
    0.4345   -0.1207    1.1087 H   0  0  0  0  0  0  0  0  0  0  0  0
   -2.0158    1.4341    0.3024 H   0  0  0  0  0  0  0  0  0  0  0  0
   -2.1254    0.9341    2.6751 H   0  0  0  0  0  0  0  0  0  0  0  0
   -1.6600   -0.7717    2.4034 H   0  0  0  0  0  0  0  0  0  0  0  0
   -4.0847   -0.6017    2.6900 H   0  0  0  0  0  0  0  0  0  0  0  0
   -4.2109    0.6763    1.4471 H   0  0  0  0  0  0  0  0  0  0  0  0
   -4.9091   -2.5921    1.8513 H   0  0  0  0  0  0  0  0  0  0  0  0
   -4.0152   -4.0395   -2.1942 H   0  0  0  0  0  0  0  0  0  0  0  0
   -2.8503   -2.0368   -2.7044 H   0  0  0  0  0  0  0  0  0  0  0  0
   -3.8167    1.1658   -0.8851 H   0  0  0  0  0  0  0  0  0  0  0  0
   -5.0830   -0.0311   -1.2724 H   0  0  0  0  0  0  0  0  0  0  0  0
   -3.8119    0.2957   -2.4572 H   0  0  0  0  0  0  0  0  0  0  0  0
   -0.7046   -1.2053   -2.3766 H   0  0  0  0  0  0  0  0  0  0  0  0
   -1.0824    0.6159   -3.4912 H   0  0  0  0  0  0  0  0  0  0  0  0
    1.2441   -0.6504   -1.1524 H   0  0  0  0  0  0  0  0  0  0  0  0
    1.1119    0.5686   -2.4369 H   0  0  0  0  0  0  0  0  0  0  0  0
    0.0996    3.5095   -0.3095 H   0  0  0  0  0  0  0  0  0  0  0  0
   -1.0512    2.5442   -1.2214 H   0  0  0  0  0  0  0  0  0  0  0  0
    0.4959    2.9443   -1.9603 H   0  0  0  0  0  0  0  0  0  0  0  0
    5.2876   -3.3913   -1.6965 H   0  0  0  0  0  0  0  0  0  0  0  0
    4.6610   -4.8849    0.4199 H   0  0  0  0  0  0  0  0  0  0  0  0
    3.2736   -3.3021    2.0773 H   0  0  0  0  0  0  0  0  0  0  0  0
    3.4170    1.1171   -2.1983 H   0  0  0  0  0  0  0  0  0  0  0  0
    4.6455    2.4090   -1.9850 H   0  0  0  0  0  0  0  0  0  0  0  0
  2  1  1  0
  2  3  1  0
  4  3  1  0
  4  5  1  0
  5  6  1  0
  6  7  1  0
  7  8  1  0
  8  9  2  0
  9 10  1  0
 10 11  2  0
 10 12  1  0
 12 13  2  0
 13 14  1  0
 14  8  1  0
 14 15  1  6
 14 16  1  0
 16  5  1  0
 16 17  1  1
 16 18  1  0
 18 19  1  0
 18 20  1  0
 20 21  1  0
 21  4  1  0
 21 22  1  6
 21 23  1  0
 23  2  1  0
 23 24  1  1
 24 25  1  0
 25 26  2  0
 25 27  1  0
 27 28  1  0
 28 29  1  0
 29 30  2  0
 30 31  1  0
 31 27  2  0
 23 32  1  0
 32 33  2  0
 32 34  1  0
 34 35  1  0
  1 36  1  0
  1 37  1  0
  1 38  1  0
  2 39  1  6
  3 40  1  0
  3 41  1  0
  4 42  1  1
  5 43  1  6
  6 44  1  0
  6 45  1  0
  7 46  1  0
  7 47  1  0
  9 48  1  0
 12 49  1  0
 13 50  1  0
 15 51  1  0
 15 52  1  0
 15 53  1  0
 18 54  1  6
 19 55  1  0
 20 56  1  0
 20 57  1  0
 22 58  1  0
 22 59  1  0
 22 60  1  0
 29 61  1  0
 30 62  1  0
 31 63  1  0
 34 64  1  0
 34 65  1  0
M  END
> <ID>
HT1428

> <Class>
1.0

> <Clusters>
34

> <Fold>
5

$$$$