
     RDKit          3D

 61 64  0  0  0  0  0  0  0  0999 V2000
   -5.7581   -1.7018   -0.4435 C   0  0  0  0  0  0  0  0  0  0  0  0
   -4.8215   -0.6035    0.0980 C   0  0  0  0  0  0  0  0  0  0  0  0
   -4.1959   -1.0994    1.4142 C   0  0  0  0  0  0  0  0  0  0  0  0
   -3.4363   -0.3421   -1.1101 S   0  0  0  0  0  0  0  0  0  0  0  0
   -3.5126    1.4846   -0.9871 C   0  0  2  0  0  0  0  0  0  0  0  0
   -2.4972    2.1881   -0.2319 C   0  0  2  0  0  0  0  0  0  0  0  0
   -1.4732    1.3271    0.3647 N   0  0  0  0  0  0  0  0  0  0  0  0
   -0.3781    0.8103   -0.4033 C   0  0  0  0  0  0  0  0  0  0  0  0
   -0.1944    1.2092   -1.5863 O   0  0  0  0  0  0  0  0  0  0  0  0
    0.4815   -0.2889    0.1662 C   0  0  2  0  0  0  0  0  0  0  0  0
    1.8961   -0.0859   -0.1642 N   0  0  0  0  0  0  0  0  0  0  0  0
    2.9444   -0.6823    0.6166 C   0  0  0  0  0  0  0  0  0  0  0  0
    2.6720   -1.6125    1.4234 O   0  0  0  0  0  0  0  0  0  0  0  0
    4.3050   -0.2415    0.4834 N   0  0  0  0  0  0  0  0  0  0  0  0
    5.4636   -0.9587    1.0137 C   0  0  0  0  0  0  0  0  0  0  0  0
    6.6782   -0.0169    0.8159 C   0  0  0  0  0  0  0  0  0  0  0  0
    6.1465    1.1768    0.1730 N   0  0  0  0  0  0  0  0  0  0  0  0
    4.7544    1.0191    0.0232 C   0  0  0  0  0  0  0  0  0  0  0  0
    3.9982    1.9233   -0.4229 O   0  0  0  0  0  0  0  0  0  0  0  0
    7.0198    2.6516   -0.0786 S   0  0  0  0  0  0  0  0  0  0  0  0
    6.5533    3.6853    0.9075 O   0  0  0  0  0  0  0  0  0  0  0  0
    6.7776    3.1436   -1.4780 O   0  0  0  0  0  0  0  0  0  0  0  0
    8.7646    2.3747    0.1427 C   0  0  0  0  0  0  0  0  0  0  0  0
   -0.0085   -1.6242   -0.3462 C   0  0  0  0  0  0  0  0  0  0  0  0
   -0.7642   -2.4634    0.4908 C   0  0  0  0  0  0  0  0  0  0  0  0
   -1.2816   -3.6674    0.0036 C   0  0  0  0  0  0  0  0  0  0  0  0
   -1.0483   -4.0455   -1.3207 C   0  0  0  0  0  0  0  0  0  0  0  0
   -0.2980   -3.2199   -2.1611 C   0  0  0  0  0  0  0  0  0  0  0  0
    0.2169   -2.0124   -1.6804 C   0  0  0  0  0  0  0  0  0  0  0  0
   -3.5656    2.5443    0.7541 C   0  0  0  0  0  0  0  0  0  0  0  0
   -3.6046    3.1964    1.8304 O   0  0  0  0  0  0  0  0  0  0  0  0
   -4.5404    1.7464   -0.0260 N   0  0  0  0  0  0  0  0  0  0  0  0
   -5.5304    0.7690    0.3438 C   0  0  1  0  0  0  0  0  0  0  0  0
   -6.7703    0.9978   -0.4794 C   0  0  0  0  0  0  0  0  0  0  0  0
   -6.6944    1.1132   -1.7339 O   0  0  0  0  0  0  0  0  0  0  0  0
   -8.0077    1.0901    0.1509 O   0  0  0  0  0  0  0  0  0  0  0  0
   -5.2211   -2.6722   -0.5124 H   0  0  0  0  0  0  0  0  0  0  0  0
   -6.6347   -1.8291    0.2272 H   0  0  0  0  0  0  0  0  0  0  0  0
   -6.1174   -1.4510   -1.4641 H   0  0  0  0  0  0  0  0  0  0  0  0
   -3.6331   -2.0426    1.2493 H   0  0  0  0  0  0  0  0  0  0  0  0
   -4.9852   -1.2936    2.1721 H   0  0  0  0  0  0  0  0  0  0  0  0
   -3.4933   -0.3438    1.8242 H   0  0  0  0  0  0  0  0  0  0  0  0
   -3.7484    1.9650   -1.9620 H   0  0  0  0  0  0  0  0  0  0  0  0
   -2.0754    3.0837   -0.7385 H   0  0  0  0  0  0  0  0  0  0  0  0
   -1.5159    1.1102    1.3848 H   0  0  0  0  0  0  0  0  0  0  0  0
    0.3802   -0.2513    1.2740 H   0  0  0  0  0  0  0  0  0  0  0  0
    2.1527    0.3966   -1.0538 H   0  0  0  0  0  0  0  0  0  0  0  0
    5.6081   -1.9069    0.4525 H   0  0  0  0  0  0  0  0  0  0  0  0
    5.3166   -1.1778    2.0935 H   0  0  0  0  0  0  0  0  0  0  0  0
    7.4445   -0.4887    0.1639 H   0  0  0  0  0  0  0  0  0  0  0  0
    7.1259    0.2503    1.7977 H   0  0  0  0  0  0  0  0  0  0  0  0
    9.1082    1.5916   -0.5655 H   0  0  0  0  0  0  0  0  0  0  0  0
    9.3167    3.3178   -0.0523 H   0  0  0  0  0  0  0  0  0  0  0  0
    8.9605    2.0436    1.1839 H   0  0  0  0  0  0  0  0  0  0  0  0
   -0.9677   -2.1790    1.5157 H   0  0  0  0  0  0  0  0  0  0  0  0
   -1.8701   -4.3032    0.6515 H   0  0  0  0  0  0  0  0  0  0  0  0
   -1.4519   -4.9763   -1.6967 H   0  0  0  0  0  0  0  0  0  0  0  0
   -0.1218   -3.5113   -3.1886 H   0  0  0  0  0  0  0  0  0  0  0  0
    0.7822   -1.3761   -2.3495 H   0  0  0  0  0  0  0  0  0  0  0  0
   -5.7961    0.8997    1.4163 H   0  0  0  0  0  0  0  0  0  0  0  0
   -8.8541    1.2436   -0.3857 H   0  0  0  0  0  0  0  0  0  0  0  0
  1  2  1  0
  2  3  1  0
  2  4  1  0
  5  4  1  0
  5  6  1  0
  6  7  1  0
  7  8  1  0
  8  9  2  0
  8 10  1  0
 10 11  1  0
 11 12  1  0
 12 13  2  0
 12 14  1  0
 14 15  1  0
 15 16  1  0
 16 17  1  0
 17 18  1  0
 18 14  1  0
 18 19  2  0
 17 20  1  0
 20 21  2  0
 20 22  2  0
 20 23  1  0
 10 24  1  0
 24 25  2  0
 25 26  1  0
 26 27  2  0
 27 28  1  0
 28 29  2  0
 29 24  1  0
  6 30  1  0
 30 31  2  0
 30 32  1  0
 32  5  1  0
 32 33  1  0
 33  2  1  0
 33 34  1  0
 34 35  2  0
 34 36  1  0
  1 37  1  0
  1 38  1  0
  1 39  1  0
  3 40  1  0
  3 41  1  0
  3 42  1  0
  5 43  1  6
  6 44  1  6
  7 45  1  0
 10 46  1  1
 11 47  1  0
 15 48  1  0
 15 49  1  0
 16 50  1  0
 16 51  1  0
 23 52  1  0
 23 53  1  0
 23 54  1  0
 25 55  1  0
 26 56  1  0
 27 57  1  0
 28 58  1  0
 29 59  1  0
 33 60  1  1
 36 61  1  0
M  END
> <ID>
HT1388

> <Class>
1.0

> <Clusters>
18

> <Fold>
5

$$$$