
     RDKit          3D

 39 41  0  0  0  0  0  0  0  0999 V2000
   -1.5276   -0.1242    1.0961 C   0  0  0  0  0  0  0  0  0  0  0  0
   -0.4025    0.0343    0.1660 N   0  0  0  0  0  0  0  0  0  0  0  0
    0.6527   -0.9890    0.1211 C   0  0  0  0  0  0  0  0  0  0  0  0
    1.9896   -0.3798    0.4503 C   0  0  0  0  0  0  0  0  0  0  0  0
    2.9949   -0.2898   -0.5271 C   0  0  0  0  0  0  0  0  0  0  0  0
    4.2255    0.2981   -0.2183 C   0  0  0  0  0  0  0  0  0  0  0  0
    4.4604    0.7993    1.0650 C   0  0  0  0  0  0  0  0  0  0  0  0
    3.4646    0.7141    2.0420 C   0  0  0  0  0  0  0  0  0  0  0  0
    2.2326    0.1273    1.7374 C   0  0  0  0  0  0  0  0  0  0  0  0
   -0.3176    1.1988   -0.6797 C   0  0  0  0  0  0  0  0  0  0  0  0
   -0.4287    2.4860   -0.1263 C   0  0  0  0  0  0  0  0  0  0  0  0
   -0.3206    3.6167   -0.9414 C   0  0  0  0  0  0  0  0  0  0  0  0
   -0.0981    3.4724   -2.3132 C   0  0  0  0  0  0  0  0  0  0  0  0
    0.0182    2.1969   -2.8716 C   0  0  0  0  0  0  0  0  0  0  0  0
   -0.0888    1.0636   -2.0599 C   0  0  0  0  0  0  0  0  0  0  0  0
   -2.3598   -1.3039    0.7024 C   0  0  0  0  0  0  0  0  0  0  0  0
   -2.9909   -1.3662   -0.4179 N   0  0  0  0  0  0  0  0  0  0  0  0
   -3.6917   -2.6414   -0.5136 C   0  0  0  0  0  0  0  0  0  0  0  0
   -3.3601   -3.3813    0.7925 C   0  0  0  0  0  0  0  0  0  0  0  0
   -2.5093   -2.4536    1.5097 N   0  0  0  0  0  0  0  0  0  0  0  0
   -2.1812    0.7744    1.0941 H   0  0  0  0  0  0  0  0  0  0  0  0
   -1.1384   -0.2560    2.1283 H   0  0  0  0  0  0  0  0  0  0  0  0
    0.4453   -1.8017    0.8515 H   0  0  0  0  0  0  0  0  0  0  0  0
    0.6651   -1.4643   -0.8825 H   0  0  0  0  0  0  0  0  0  0  0  0
    2.8248   -0.6666   -1.5281 H   0  0  0  0  0  0  0  0  0  0  0  0
    4.9965    0.3671   -0.9748 H   0  0  0  0  0  0  0  0  0  0  0  0
    5.4131    1.2548    1.3020 H   0  0  0  0  0  0  0  0  0  0  0  0
    3.6467    1.1042    3.0349 H   0  0  0  0  0  0  0  0  0  0  0  0
    1.4671    0.0708    2.5013 H   0  0  0  0  0  0  0  0  0  0  0  0
   -0.5799    2.6129    0.9381 H   0  0  0  0  0  0  0  0  0  0  0  0
   -0.4040    4.6052   -0.5085 H   0  0  0  0  0  0  0  0  0  0  0  0
   -0.0137    4.3486   -2.9429 H   0  0  0  0  0  0  0  0  0  0  0  0
    0.1904    2.0862   -3.9344 H   0  0  0  0  0  0  0  0  0  0  0  0
   -0.0056    0.0837   -2.5106 H   0  0  0  0  0  0  0  0  0  0  0  0
   -4.7848   -2.4641   -0.6034 H   0  0  0  0  0  0  0  0  0  0  0  0
   -3.3237   -3.2076   -1.3959 H   0  0  0  0  0  0  0  0  0  0  0  0
   -4.2789   -3.5878    1.3821 H   0  0  0  0  0  0  0  0  0  0  0  0
   -2.8079   -4.3240    0.5905 H   0  0  0  0  0  0  0  0  0  0  0  0
   -2.0735   -2.6142    2.4448 H   0  0  0  0  0  0  0  0  0  0  0  0
  1  2  1  0
  2  3  1  0
  3  4  1  0
  4  5  2  0
  5  6  1  0
  6  7  2  0
  7  8  1  0
  8  9  2  0
  9  4  1  0
  2 10  1  0
 10 11  2  0
 11 12  1  0
 12 13  2  0
 13 14  1  0
 14 15  2  0
 15 10  1  0
  1 16  1  0
 16 17  2  0
 17 18  1  0
 18 19  1  0
 19 20  1  0
 20 16  1  0
  1 21  1  0
  1 22  1  0
  3 23  1  0
  3 24  1  0
  5 25  1  0
  6 26  1  0
  7 27  1  0
  8 28  1  0
  9 29  1  0
 11 30  1  0
 12 31  1  0
 13 32  1  0
 14 33  1  0
 15 34  1  0
 18 35  1  0
 18 36  1  0
 19 37  1  0
 19 38  1  0
 20 39  1  0
M  END
> <ID>
HT0165

> <Class>
1.0

> <Clusters>
31

> <Fold>
5

$$$$