
     RDKit          3D

 41 44  0  0  0  0  0  0  0  0999 V2000
    4.4284   -0.0242    0.0163 C   0  0  0  0  0  0  0  0  0  0  0  0
    3.7120   -1.2633   -0.3342 N   0  0  0  0  0  0  0  0  0  0  0  0
    2.9417   -1.0857   -1.5713 C   0  0  0  0  0  0  0  0  0  0  0  0
    1.5516   -0.6257   -1.1805 C   0  0  0  0  0  0  0  0  0  0  0  0
    1.3301   -1.2163    0.2064 C   0  0  0  0  0  0  0  0  0  0  0  0
    0.6276   -0.2298    1.1615 C   0  0  0  0  0  0  0  0  0  0  0  0
   -0.6837    0.1780    0.6308 N   0  0  0  0  0  0  0  0  0  0  0  0
   -1.7140   -0.7908    0.3351 C   0  0  0  0  0  0  0  0  0  0  0  0
   -1.9967   -1.8471    1.2186 C   0  0  0  0  0  0  0  0  0  0  0  0
   -3.0951   -2.6814    0.9880 C   0  0  0  0  0  0  0  0  0  0  0  0
   -3.9265   -2.4603   -0.1137 C   0  0  0  0  0  0  0  0  0  0  0  0
   -3.6511   -1.4163   -1.0006 C   0  0  0  0  0  0  0  0  0  0  0  0
   -2.5397   -0.5943   -0.7881 C   0  0  0  0  0  0  0  0  0  0  0  0
   -2.0972    0.6561   -1.9990 S   0  0  0  0  0  0  0  0  0  0  0  0
   -1.7609    1.9037   -0.7529 C   0  0  0  0  0  0  0  0  0  0  0  0
   -2.2186    3.2139   -0.9275 C   0  0  0  0  0  0  0  0  0  0  0  0
   -1.8802    4.2010    0.0018 C   0  0  0  0  0  0  0  0  0  0  0  0
   -1.0937    3.8786    1.1113 C   0  0  0  0  0  0  0  0  0  0  0  0
   -0.6543    2.5649    1.3033 C   0  0  0  0  0  0  0  0  0  0  0  0
   -0.9820    1.5661    0.3699 C   0  0  0  0  0  0  0  0  0  0  0  0
    2.7279   -1.6127    0.7043 C   0  0  0  0  0  0  0  0  0  0  0  0
    3.7254    0.8271    0.1574 H   0  0  0  0  0  0  0  0  0  0  0  0
    5.1573    0.2336   -0.7818 H   0  0  0  0  0  0  0  0  0  0  0  0
    5.0089   -0.1740    0.9519 H   0  0  0  0  0  0  0  0  0  0  0  0
    2.8702   -2.0686   -2.0867 H   0  0  0  0  0  0  0  0  0  0  0  0
    3.4181   -0.3704   -2.2796 H   0  0  0  0  0  0  0  0  0  0  0  0
    1.5312    0.4867   -1.1583 H   0  0  0  0  0  0  0  0  0  0  0  0
    0.7888   -0.9876   -1.9039 H   0  0  0  0  0  0  0  0  0  0  0  0
    0.7131   -2.1382    0.1129 H   0  0  0  0  0  0  0  0  0  0  0  0
    0.4985   -0.6977    2.1598 H   0  0  0  0  0  0  0  0  0  0  0  0
    1.2860    0.6555    1.3005 H   0  0  0  0  0  0  0  0  0  0  0  0
   -1.3950   -2.0075    2.1023 H   0  0  0  0  0  0  0  0  0  0  0  0
   -3.3129   -3.4893    1.6745 H   0  0  0  0  0  0  0  0  0  0  0  0
   -4.7801   -3.1034   -0.2842 H   0  0  0  0  0  0  0  0  0  0  0  0
   -4.2843   -1.2652   -1.8655 H   0  0  0  0  0  0  0  0  0  0  0  0
   -2.8155    3.4727   -1.7928 H   0  0  0  0  0  0  0  0  0  0  0  0
   -2.2263    5.2169   -0.1385 H   0  0  0  0  0  0  0  0  0  0  0  0
   -0.8427    4.6431    1.8352 H   0  0  0  0  0  0  0  0  0  0  0  0
   -0.0979    2.3224    2.1992 H   0  0  0  0  0  0  0  0  0  0  0  0
    2.7609   -2.7136    0.8562 H   0  0  0  0  0  0  0  0  0  0  0  0
    2.9708   -1.1569    1.6924 H   0  0  0  0  0  0  0  0  0  0  0  0
  1  2  1  0
  2  3  1  0
  3  4  1  0
  4  5  1  0
  5  6  1  0
  6  7  1  0
  7  8  1  0
  8  9  2  0
  9 10  1  0
 10 11  2  0
 11 12  1  0
 12 13  2  0
 13  8  1  0
 13 14  1  0
 14 15  1  0
 15 16  2  0
 16 17  1  0
 17 18  2  0
 18 19  1  0
 19 20  2  0
 20  7  1  0
 20 15  1  0
  5 21  1  0
 21  2  1  0
  1 22  1  0
  1 23  1  0
  1 24  1  0
  3 25  1  0
  3 26  1  0
  4 27  1  0
  4 28  1  0
  5 29  1  0
  6 30  1  0
  6 31  1  0
  9 32  1  0
 10 33  1  0
 11 34  1  0
 12 35  1  0
 16 36  1  0
 17 37  1  0
 18 38  1  0
 19 39  1  0
 21 40  1  0
 21 41  1  0
M  END
> <ID>
HT1339

> <Class>
1.0

> <Clusters>
154

> <Fold>
5

$$$$