
     RDKit          3D

 53 57  0  0  0  0  0  0  0  0999 V2000
   -0.1476    0.1674   -2.8005 C   0  0  0  0  0  0  0  0  0  0  0  0
    0.6900   -0.2919   -1.7396 O   0  0  0  0  0  0  0  0  0  0  0  0
    1.0041    0.4254   -0.5792 C   0  0  0  0  0  0  0  0  0  0  0  0
   -0.0061    1.1561    0.0909 C   0  0  0  0  0  0  0  0  0  0  0  0
   -1.3934    0.8465   -0.1404 N   0  0  0  0  0  0  0  0  0  0  0  0
   -2.4249    1.8349   -0.4236 C   0  0  0  0  0  0  0  0  0  0  0  0
   -3.7687    1.1104   -0.2503 C   0  0  2  0  0  0  0  0  0  0  0  0
   -4.5297    1.6270    0.9827 C   0  0  0  0  0  0  0  0  0  0  0  0
   -5.8020    0.8033    1.2255 C   0  0  0  0  0  0  0  0  0  0  0  0
   -5.6135   -0.6927    0.9002 C   0  0  0  0  0  0  0  0  0  0  0  0
   -4.2022   -1.0861    0.9411 N   0  0  0  0  0  0  0  0  0  0  0  0
   -3.4297   -0.3951   -0.1132 C   0  0  2  0  0  0  0  0  0  0  0  0
   -1.9267   -0.4710    0.1590 C   0  0  0  0  0  0  0  0  0  0  0  0
    0.3374    1.9976    1.1546 C   0  0  0  0  0  0  0  0  0  0  0  0
   -0.6131    2.6651    1.8558 F   0  0  0  0  0  0  0  0  0  0  0  0
    1.6517    2.0796    1.5881 C   0  0  0  0  0  0  0  0  0  0  0  0
    2.6427    1.2554    1.0398 C   0  0  0  0  0  0  0  0  0  0  0  0
    3.9348    1.2517    1.5973 C   0  0  0  0  0  0  0  0  0  0  0  0
    4.2007    1.9800    2.5968 O   0  0  0  0  0  0  0  0  0  0  0  0
    4.9135    0.4040    1.0832 C   0  0  0  0  0  0  0  0  0  0  0  0
    4.5960   -0.3990   -0.0117 C   0  0  0  0  0  0  0  0  0  0  0  0
    3.3253   -0.4493   -0.5353 N   0  0  0  0  0  0  0  0  0  0  0  0
    3.1445   -1.2769   -1.7479 C   0  0  0  0  0  0  0  0  0  0  0  0
    3.8153   -2.6604   -1.7477 C   0  0  0  0  0  0  0  0  0  0  0  0
    2.3216   -2.5438   -1.5324 C   0  0  0  0  0  0  0  0  0  0  0  0
    2.3388    0.3949   -0.0535 C   0  0  0  0  0  0  0  0  0  0  0  0
    6.2953    0.3797    1.6282 C   0  0  0  0  0  0  0  0  0  0  0  0
    6.7972    1.4228    2.1276 O   0  0  0  0  0  0  0  0  0  0  0  0
    7.0602   -0.7863    1.6150 O   0  0  0  0  0  0  0  0  0  0  0  0
    0.4507    0.2112   -3.7339 H   0  0  0  0  0  0  0  0  0  0  0  0
   -0.5549    1.1789   -2.6140 H   0  0  0  0  0  0  0  0  0  0  0  0
   -0.9621   -0.5605   -2.9577 H   0  0  0  0  0  0  0  0  0  0  0  0
   -2.3101    2.2061   -1.4646 H   0  0  0  0  0  0  0  0  0  0  0  0
   -2.3465    2.7086    0.2594 H   0  0  0  0  0  0  0  0  0  0  0  0
   -4.3984    1.2763   -1.1529 H   0  0  0  0  0  0  0  0  0  0  0  0
   -4.8040    2.6984    0.8509 H   0  0  0  0  0  0  0  0  0  0  0  0
   -3.8782    1.5564    1.8833 H   0  0  0  0  0  0  0  0  0  0  0  0
   -6.1105    0.9105    2.2902 H   0  0  0  0  0  0  0  0  0  0  0  0
   -6.6280    1.2037    0.6006 H   0  0  0  0  0  0  0  0  0  0  0  0
   -6.1849   -1.3059    1.6285 H   0  0  0  0  0  0  0  0  0  0  0  0
   -6.0353   -0.9237   -0.0997 H   0  0  0  0  0  0  0  0  0  0  0  0
   -3.8351   -0.8586    1.8958 H   0  0  0  0  0  0  0  0  0  0  0  0
   -3.6303   -0.8917   -1.0903 H   0  0  0  0  0  0  0  0  0  0  0  0
   -1.7040   -0.7083    1.2218 H   0  0  0  0  0  0  0  0  0  0  0  0
   -1.4472   -1.2467   -0.4831 H   0  0  0  0  0  0  0  0  0  0  0  0
    1.8726    2.7289    2.4314 H   0  0  0  0  0  0  0  0  0  0  0  0
    5.3972   -0.9591   -0.4821 H   0  0  0  0  0  0  0  0  0  0  0  0
    3.0730   -0.7569   -2.7317 H   0  0  0  0  0  0  0  0  0  0  0  0
    4.0928   -3.0344   -2.7552 H   0  0  0  0  0  0  0  0  0  0  0  0
    4.3403   -2.9920   -0.8253 H   0  0  0  0  0  0  0  0  0  0  0  0
    2.0041   -2.7525   -0.4841 H   0  0  0  0  0  0  0  0  0  0  0  0
    1.7041   -2.8288   -2.4145 H   0  0  0  0  0  0  0  0  0  0  0  0
    6.6829   -1.6788    1.3165 H   0  0  0  0  0  0  0  0  0  0  0  0
  1  2  1  0
  2  3  1  0
  3  4  2  0
  4  5  1  0
  5  6  1  0
  7  6  1  0
  7  8  1  0
  8  9  1  0
  9 10  1  0
 10 11  1  0
 12 11  1  0
 12  7  1  0
 12 13  1  0
 13  5  1  0
  4 14  1  0
 14 15  1  0
 14 16  2  0
 16 17  1  0
 17 18  1  0
 18 19  2  0
 18 20  1  0
 20 21  2  0
 21 22  1  0
 22 23  1  0
 23 24  1  0
 24 25  1  0
 25 23  1  0
 22 26  1  0
 26  3  1  0
 26 17  2  0
 20 27  1  0
 27 28  2  0
 27 29  1  0
  1 30  1  0
  1 31  1  0
  1 32  1  0
  6 33  1  0
  6 34  1  0
  7 35  1  6
  8 36  1  0
  8 37  1  0
  9 38  1  0
  9 39  1  0
 10 40  1  0
 10 41  1  0
 11 42  1  0
 12 43  1  6
 13 44  1  0
 13 45  1  0
 16 46  1  0
 21 47  1  0
 23 48  1  0
 24 49  1  0
 24 50  1  0
 25 51  1  0
 25 52  1  0
 29 53  1  0
M  END
> <ID>
HT1438

> <Class>
1.0

> <Clusters>
117

> <Fold>
5

$$$$