
     RDKit          3D

  5  4  0  0  0  0  0  0  0  0999 V2000
    0.0306   -0.0906    1.4577 F   0  0  0  0  0  0  0  0  0  0  0  0
    0.0017   -0.0049    0.0791 C   0  0  0  0  0  0  0  0  0  0  0  0
   -1.3526   -0.9722   -0.5465 Cl  0  0  0  0  0  0  0  0  0  0  0  0
    1.5297   -0.6252   -0.5854 Cl  0  0  0  0  0  0  0  0  0  0  0  0
   -0.2093    1.6929   -0.4049 Cl  0  0  0  0  0  0  0  0  0  0  0  0
  1  2  1  0
  2  3  1  0
  2  4  1  0
  2  5  1  0
M  END
> <ID>
HT2579

> <Class>
0.0

> <Clusters>
251

> <Fold>
3

$$$$