
     RDKit          3D

 53 55  0  0  0  0  0  0  0  0999 V2000
   -1.0715    0.7327    1.6274 O   0  0  0  0  0  0  0  0  0  0  0  0
   -0.9885    0.2038    0.3205 C   0  0  0  0  0  0  0  0  0  0  0  0
    0.4926    0.3576   -0.1453 C   0  0  0  0  0  0  0  0  0  0  0  0
    1.4937   -0.4396    0.7179 C   0  0  0  0  0  0  0  0  0  0  0  0
    2.8907   -0.0681    0.4017 N   0  0  0  0  0  0  0  0  0  0  0  0
    3.8053   -0.5909    1.4370 C   0  0  0  0  0  0  0  0  0  0  0  0
    5.2139    0.0078    1.2673 C   0  0  0  0  0  0  0  0  0  0  0  0
    5.5215    0.3818   -0.1911 C   0  0  0  0  0  0  0  0  0  0  0  0
    4.8179   -0.5708   -1.1571 C   0  0  0  0  0  0  0  0  0  0  0  0
    3.2877   -0.5511   -0.9474 C   0  0  0  0  0  0  0  0  0  0  0  0
   -1.9366    1.0245   -0.6432 C   0  0  0  0  0  0  0  0  0  0  0  0
   -3.4270    0.5765   -0.5647 C   0  0  0  0  0  0  0  0  0  0  0  0
   -4.3505    1.5967   -1.2372 C   0  0  0  0  0  0  0  0  0  0  0  0
   -4.3057    2.9654   -0.5323 C   0  0  0  0  0  0  0  0  0  0  0  0
   -2.9935    3.2163    0.2312 C   0  0  0  0  0  0  0  0  0  0  0  0
   -1.7908    2.5727   -0.4713 C   0  0  0  0  0  0  0  0  0  0  0  0
   -1.3454   -1.2956    0.3098 C   0  0  0  0  0  0  0  0  0  0  0  0
   -1.3343   -2.0176   -0.9039 C   0  0  0  0  0  0  0  0  0  0  0  0
   -1.6366   -3.3814   -0.9281 C   0  0  0  0  0  0  0  0  0  0  0  0
   -1.9457   -4.0515    0.2555 C   0  0  0  0  0  0  0  0  0  0  0  0
   -1.9488   -3.3599    1.4670 C   0  0  0  0  0  0  0  0  0  0  0  0
   -1.6480   -1.9951    1.4993 C   0  0  0  0  0  0  0  0  0  0  0  0
   -2.0211    0.7242    1.9113 H   0  0  0  0  0  0  0  0  0  0  0  0
    0.7962    1.4239   -0.1096 H   0  0  0  0  0  0  0  0  0  0  0  0
    0.5851    0.0327   -1.2028 H   0  0  0  0  0  0  0  0  0  0  0  0
    1.3401   -1.5338    0.5830 H   0  0  0  0  0  0  0  0  0  0  0  0
    1.2795   -0.2055    1.7840 H   0  0  0  0  0  0  0  0  0  0  0  0
    3.4435   -0.3268    2.4556 H   0  0  0  0  0  0  0  0  0  0  0  0
    3.8584   -1.7025    1.3761 H   0  0  0  0  0  0  0  0  0  0  0  0
    5.9636   -0.7297    1.6282 H   0  0  0  0  0  0  0  0  0  0  0  0
    5.3113    0.9195    1.8964 H   0  0  0  0  0  0  0  0  0  0  0  0
    5.1747    1.4200   -0.3902 H   0  0  0  0  0  0  0  0  0  0  0  0
    6.6191    0.3501   -0.3630 H   0  0  0  0  0  0  0  0  0  0  0  0
    5.2025   -1.6014   -0.9900 H   0  0  0  0  0  0  0  0  0  0  0  0
    5.0603   -0.2879   -2.2045 H   0  0  0  0  0  0  0  0  0  0  0  0
    2.8918   -1.5732   -1.1447 H   0  0  0  0  0  0  0  0  0  0  0  0
    2.8538    0.1324   -1.7082 H   0  0  0  0  0  0  0  0  0  0  0  0
   -1.6171    0.8024   -1.6866 H   0  0  0  0  0  0  0  0  0  0  0  0
   -3.5575   -0.3987   -1.0802 H   0  0  0  0  0  0  0  0  0  0  0  0
   -3.7522    0.4410    0.4885 H   0  0  0  0  0  0  0  0  0  0  0  0
   -5.3936    1.2124   -1.2347 H   0  0  0  0  0  0  0  0  0  0  0  0
   -4.0411    1.7163   -2.2991 H   0  0  0  0  0  0  0  0  0  0  0  0
   -4.4476    3.7639   -1.2930 H   0  0  0  0  0  0  0  0  0  0  0  0
   -5.1517    3.0394    0.1855 H   0  0  0  0  0  0  0  0  0  0  0  0
   -3.0792    2.8063    1.2605 H   0  0  0  0  0  0  0  0  0  0  0  0
   -2.8266    4.3113    0.3247 H   0  0  0  0  0  0  0  0  0  0  0  0
   -0.8799    2.8456    0.0981 H   0  0  0  0  0  0  0  0  0  0  0  0
   -1.6851    3.0421   -1.4747 H   0  0  0  0  0  0  0  0  0  0  0  0
   -1.0972   -1.5253   -1.8375 H   0  0  0  0  0  0  0  0  0  0  0  0
   -1.6296   -3.9198   -1.8671 H   0  0  0  0  0  0  0  0  0  0  0  0
   -2.1781   -5.1084    0.2346 H   0  0  0  0  0  0  0  0  0  0  0  0
   -2.1801   -3.8836    2.3856 H   0  0  0  0  0  0  0  0  0  0  0  0
   -1.6427   -1.5011    2.4609 H   0  0  0  0  0  0  0  0  0  0  0  0
  1  2  1  0
  2  3  1  0
  3  4  1  0
  4  5  1  0
  5  6  1  0
  6  7  1  0
  7  8  1  0
  8  9  1  0
  9 10  1  0
 10  5  1  0
  2 11  1  0
 11 12  1  0
 12 13  1  0
 13 14  1  0
 14 15  1  0
 15 16  1  0
 16 11  1  0
  2 17  1  0
 17 18  2  0
 18 19  1  0
 19 20  2  0
 20 21  1  0
 21 22  2  0
 22 17  1  0
  1 23  1  0
  3 24  1  0
  3 25  1  0
  4 26  1  0
  4 27  1  0
  6 28  1  0
  6 29  1  0
  7 30  1  0
  7 31  1  0
  8 32  1  0
  8 33  1  0
  9 34  1  0
  9 35  1  0
 10 36  1  0
 10 37  1  0
 11 38  1  0
 12 39  1  0
 12 40  1  0
 13 41  1  0
 13 42  1  0
 14 43  1  0
 14 44  1  0
 15 45  1  0
 15 46  1  0
 16 47  1  0
 16 48  1  0
 18 49  1  0
 19 50  1  0
 20 51  1  0
 21 52  1  0
 22 53  1  0
M  END
> <ID>
HT2121

> <Class>
0.0

> <Clusters>
67

> <Fold>
3

$$$$