
     RDKit          3D

 67 71  0  0  0  0  0  0  0  0999 V2000
    8.6368   -1.5670   -0.4508 C   0  0  0  0  0  0  0  0  0  0  0  0
    8.0891   -0.1819   -0.0429 C   0  0  0  0  0  0  0  0  0  0  0  0
    8.5536    0.0970    1.4055 C   0  0  0  0  0  0  0  0  0  0  0  0
    6.5998   -0.1290   -0.1651 N   0  0  0  0  0  0  0  0  0  0  0  0
    6.1447   -0.2992   -1.5663 C   0  0  0  0  0  0  0  0  0  0  0  0
    4.6306   -0.5533   -1.5915 C   0  0  0  0  0  0  0  0  0  0  0  0
    3.9551    0.2350   -0.5538 N   0  0  0  0  0  0  0  0  0  0  0  0
    4.6195    1.4577   -0.0932 C   0  0  0  0  0  0  0  0  0  0  0  0
    6.0417    1.1315    0.4052 C   0  0  0  0  0  0  0  0  0  0  0  0
    2.7097   -0.2210    0.0188 C   0  0  0  0  0  0  0  0  0  0  0  0
    1.7462   -0.8530   -0.7872 C   0  0  0  0  0  0  0  0  0  0  0  0
    0.5503   -1.3199   -0.2349 C   0  0  0  0  0  0  0  0  0  0  0  0
    0.2827   -1.1416    1.1341 C   0  0  0  0  0  0  0  0  0  0  0  0
   -0.9111   -1.5618    1.7411 O   0  0  0  0  0  0  0  0  0  0  0  0
   -2.1352   -1.8738    1.0723 C   0  0  0  0  0  0  0  0  0  0  0  0
   -2.9097   -0.5929    0.7221 C   0  0  1  0  0  0  0  0  0  0  0  0
   -2.4516    0.0720   -0.5429 C   0  0  0  0  0  0  0  0  0  0  0  0
   -3.5812    0.7004   -1.0530 O   0  0  0  0  0  0  0  0  0  0  0  0
   -4.6902    0.0209   -0.4948 C   0  0  1  0  0  0  0  0  0  0  0  0
   -5.3869   -0.7959   -1.6037 C   0  0  0  0  0  0  0  0  0  0  0  0
   -6.5795   -1.4724   -1.0944 N   0  0  0  0  0  0  0  0  0  0  0  0
   -7.8569   -1.2007   -1.4085 C   0  0  0  0  0  0  0  0  0  0  0  0
   -8.7033   -2.0105   -0.7417 N   0  0  0  0  0  0  0  0  0  0  0  0
   -7.8612   -2.7820   -0.0191 C   0  0  0  0  0  0  0  0  0  0  0  0
   -6.5677   -2.4657   -0.2247 N   0  0  0  0  0  0  0  0  0  0  0  0
   -4.2536   -0.8836    0.5052 O   0  0  0  0  0  0  0  0  0  0  0  0
   -5.6629    1.0479    0.0969 C   0  0  0  0  0  0  0  0  0  0  0  0
   -6.2140    0.8398    1.3827 C   0  0  0  0  0  0  0  0  0  0  0  0
   -7.1252    1.7456    1.9282 C   0  0  0  0  0  0  0  0  0  0  0  0
   -7.5099    2.8752    1.2065 C   0  0  0  0  0  0  0  0  0  0  0  0
   -8.6644    4.0053    1.8926 Cl  0  0  0  0  0  0  0  0  0  0  0  0
   -6.9816    3.1022   -0.0639 C   0  0  0  0  0  0  0  0  0  0  0  0
   -6.0661    2.2036   -0.6264 C   0  0  0  0  0  0  0  0  0  0  0  0
   -5.4511    2.5928   -2.2309 Cl  0  0  0  0  0  0  0  0  0  0  0  0
    1.2518   -0.5379    1.9416 C   0  0  0  0  0  0  0  0  0  0  0  0
    2.4567   -0.0871    1.3953 C   0  0  0  0  0  0  0  0  0  0  0  0
    8.6587   -1.6837   -1.5525 H   0  0  0  0  0  0  0  0  0  0  0  0
    8.0194   -2.3746   -0.0030 H   0  0  0  0  0  0  0  0  0  0  0  0
    9.6887   -1.6983   -0.1154 H   0  0  0  0  0  0  0  0  0  0  0  0
    8.5531    0.5851   -0.7051 H   0  0  0  0  0  0  0  0  0  0  0  0
    8.0291   -0.5771    2.1164 H   0  0  0  0  0  0  0  0  0  0  0  0
    9.6497   -0.0594    1.5051 H   0  0  0  0  0  0  0  0  0  0  0  0
    8.3668    1.1522    1.6966 H   0  0  0  0  0  0  0  0  0  0  0  0
    6.3930    0.6049   -2.1679 H   0  0  0  0  0  0  0  0  0  0  0  0
    6.6164   -1.1702   -2.0590 H   0  0  0  0  0  0  0  0  0  0  0  0
    4.4487   -1.6390   -1.4124 H   0  0  0  0  0  0  0  0  0  0  0  0
    4.2224   -0.2858   -2.5904 H   0  0  0  0  0  0  0  0  0  0  0  0
    4.0390    1.9802    0.6968 H   0  0  0  0  0  0  0  0  0  0  0  0
    4.6880    2.1635   -0.9510 H   0  0  0  0  0  0  0  0  0  0  0  0
    6.6977    2.0014    0.1700 H   0  0  0  0  0  0  0  0  0  0  0  0
    5.9892    1.0259    1.5106 H   0  0  0  0  0  0  0  0  0  0  0  0
    1.9185   -0.9872   -1.8473 H   0  0  0  0  0  0  0  0  0  0  0  0
   -0.1449   -1.8296   -0.8820 H   0  0  0  0  0  0  0  0  0  0  0  0
   -2.7549   -2.4594    1.7836 H   0  0  0  0  0  0  0  0  0  0  0  0
   -1.9716   -2.5267    0.1907 H   0  0  0  0  0  0  0  0  0  0  0  0
   -2.8381    0.1248    1.5727 H   0  0  0  0  0  0  0  0  0  0  0  0
   -2.0969   -0.6633   -1.2959 H   0  0  0  0  0  0  0  0  0  0  0  0
   -1.6550    0.8215   -0.3419 H   0  0  0  0  0  0  0  0  0  0  0  0
   -4.6813   -1.5576   -1.9995 H   0  0  0  0  0  0  0  0  0  0  0  0
   -5.6645   -0.1400   -2.4550 H   0  0  0  0  0  0  0  0  0  0  0  0
   -8.1714   -0.4256   -2.0972 H   0  0  0  0  0  0  0  0  0  0  0  0
   -8.1879   -3.5654    0.6525 H   0  0  0  0  0  0  0  0  0  0  0  0
   -5.9579   -0.0323    1.9703 H   0  0  0  0  0  0  0  0  0  0  0  0
   -7.5401    1.5611    2.9117 H   0  0  0  0  0  0  0  0  0  0  0  0
   -7.2859    3.9808   -0.6174 H   0  0  0  0  0  0  0  0  0  0  0  0
    1.0691   -0.4172    3.0019 H   0  0  0  0  0  0  0  0  0  0  0  0
    3.1976    0.3440    2.0556 H   0  0  0  0  0  0  0  0  0  0  0  0
  1  2  1  0
  2  3  1  0
  2  4  1  0
  4  5  1  0
  5  6  1  0
  6  7  1  0
  7  8  1  0
  8  9  1  0
  9  4  1  0
  7 10  1  0
 10 11  2  0
 11 12  1  0
 12 13  2  0
 13 14  1  0
 14 15  1  0
 16 15  1  0
 16 17  1  0
 17 18  1  0
 18 19  1  0
 19 20  1  6
 20 21  1  0
 21 22  1  0
 22 23  2  0
 23 24  1  0
 24 25  2  0
 25 21  1  0
 19 26  1  0
 26 16  1  0
 19 27  1  0
 27 28  2  0
 28 29  1  0
 29 30  2  0
 30 31  1  0
 30 32  1  0
 32 33  2  0
 33 27  1  0
 33 34  1  0
 13 35  1  0
 35 36  2  0
 36 10  1  0
  1 37  1  0
  1 38  1  0
  1 39  1  0
  2 40  1  0
  3 41  1  0
  3 42  1  0
  3 43  1  0
  5 44  1  0
  5 45  1  0
  6 46  1  0
  6 47  1  0
  8 48  1  0
  8 49  1  0
  9 50  1  0
  9 51  1  0
 11 52  1  0
 12 53  1  0
 15 54  1  0
 15 55  1  0
 16 56  1  1
 17 57  1  0
 17 58  1  0
 20 59  1  0
 20 60  1  0
 22 61  1  0
 24 62  1  0
 28 63  1  0
 29 64  1  0
 32 65  1  0
 35 66  1  0
 36 67  1  0
M  END
> <ID>
HT2010

> <Class>
0.0

> <Clusters>
140

> <Fold>
3

$$$$