
     RDKit          3D

 52 54  0  0  0  0  0  0  0  0999 V2000
    7.6275    1.6687    0.5687 C   0  0  0  0  0  0  0  0  0  0  0  0
    6.2828    1.1623    1.0648 C   0  0  0  0  0  0  0  0  0  0  0  0
    5.4719    0.7975   -0.0490 O   0  0  0  0  0  0  0  0  0  0  0  0
    4.1669    0.2895    0.0487 C   0  0  0  0  0  0  0  0  0  0  0  0
    3.5326    0.0930    1.2901 C   0  0  0  0  0  0  0  0  0  0  0  0
    2.2334   -0.4138    1.3473 C   0  0  0  0  0  0  0  0  0  0  0  0
    1.5498   -0.7440    0.1698 C   0  0  0  0  0  0  0  0  0  0  0  0
    0.1283   -1.2467    0.2316 C   0  0  0  0  0  0  0  0  0  0  0  0
   -0.8925   -0.1291    0.1586 C   0  0  0  0  0  0  0  0  0  0  0  0
   -0.4598    1.1595    0.0528 N   0  0  0  0  0  0  0  0  0  0  0  0
   -1.3052    2.2192   -0.0192 C   0  0  0  0  0  0  0  0  0  0  0  0
   -0.7526    3.6040   -0.1343 C   0  0  0  0  0  0  0  0  0  0  0  0
   -2.6846    2.0093    0.0149 C   0  0  0  0  0  0  0  0  0  0  0  0
   -3.1828    0.7053    0.1229 C   0  0  0  0  0  0  0  0  0  0  0  0
   -4.5665    0.4837    0.1579 C   0  0  0  0  0  0  0  0  0  0  0  0
   -5.0805   -0.8206    0.2660 C   0  0  0  0  0  0  0  0  0  0  0  0
   -6.4607   -1.0766    0.3036 O   0  0  0  0  0  0  0  0  0  0  0  0
   -7.4710   -0.0751    0.2385 C   0  0  0  0  0  0  0  0  0  0  0  0
   -4.2016   -1.9097    0.3397 C   0  0  0  0  0  0  0  0  0  0  0  0
   -4.7512   -3.1979    0.4470 O   0  0  0  0  0  0  0  0  0  0  0  0
   -3.9907   -4.3989    0.5308 C   0  0  0  0  0  0  0  0  0  0  0  0
   -2.8110   -1.6914    0.3049 C   0  0  0  0  0  0  0  0  0  0  0  0
   -2.2869   -0.3877    0.1966 C   0  0  0  0  0  0  0  0  0  0  0  0
    2.1731   -0.5378   -1.0699 C   0  0  0  0  0  0  0  0  0  0  0  0
    3.4834   -0.0247   -1.1365 C   0  0  0  0  0  0  0  0  0  0  0  0
    4.1383    0.1898   -2.3597 O   0  0  0  0  0  0  0  0  0  0  0  0
    3.5687   -0.0755   -3.6375 C   0  0  0  0  0  0  0  0  0  0  0  0
    8.1422    0.8730   -0.0106 H   0  0  0  0  0  0  0  0  0  0  0  0
    8.2630    1.9542    1.4333 H   0  0  0  0  0  0  0  0  0  0  0  0
    7.4818    2.5572   -0.0815 H   0  0  0  0  0  0  0  0  0  0  0  0
    6.4458    0.2777    1.7179 H   0  0  0  0  0  0  0  0  0  0  0  0
    5.7835    1.9671    1.6467 H   0  0  0  0  0  0  0  0  0  0  0  0
    4.0337    0.3336    2.2176 H   0  0  0  0  0  0  0  0  0  0  0  0
    1.7579   -0.5455    2.3115 H   0  0  0  0  0  0  0  0  0  0  0  0
   -0.0434   -1.9525   -0.6101 H   0  0  0  0  0  0  0  0  0  0  0  0
   -0.0184   -1.8126    1.1774 H   0  0  0  0  0  0  0  0  0  0  0  0
   -1.0839    4.2134    0.7327 H   0  0  0  0  0  0  0  0  0  0  0  0
    0.3580    3.5809   -0.1505 H   0  0  0  0  0  0  0  0  0  0  0  0
   -1.1130    4.0750   -1.0729 H   0  0  0  0  0  0  0  0  0  0  0  0
   -3.3600    2.8558   -0.0425 H   0  0  0  0  0  0  0  0  0  0  0  0
   -5.2388    1.3301    0.1005 H   0  0  0  0  0  0  0  0  0  0  0  0
   -7.3959    0.4816   -0.7194 H   0  0  0  0  0  0  0  0  0  0  0  0
   -7.3727    0.6230    1.0965 H   0  0  0  0  0  0  0  0  0  0  0  0
   -8.4667   -0.5613    0.2891 H   0  0  0  0  0  0  0  0  0  0  0  0
   -3.3461   -4.3808    1.4349 H   0  0  0  0  0  0  0  0  0  0  0  0
   -4.6836   -5.2617    0.6068 H   0  0  0  0  0  0  0  0  0  0  0  0
   -3.3692   -4.5221   -0.3812 H   0  0  0  0  0  0  0  0  0  0  0  0
   -2.1456   -2.5394    0.3626 H   0  0  0  0  0  0  0  0  0  0  0  0
    1.6293   -0.7735   -1.9750 H   0  0  0  0  0  0  0  0  0  0  0  0
    2.6575    0.5420   -3.7850 H   0  0  0  0  0  0  0  0  0  0  0  0
    3.3196   -1.1539   -3.7282 H   0  0  0  0  0  0  0  0  0  0  0  0
    4.3057    0.1859   -4.4241 H   0  0  0  0  0  0  0  0  0  0  0  0
  1  2  1  0
  2  3  1  0
  3  4  1  0
  4  5  2  0
  5  6  1  0
  6  7  2  0
  7  8  1  0
  8  9  1  0
  9 10  2  0
 10 11  1  0
 11 12  1  0
 11 13  2  0
 13 14  1  0
 14 15  2  0
 15 16  1  0
 16 17  1  0
 17 18  1  0
 16 19  2  0
 19 20  1  0
 20 21  1  0
 19 22  1  0
 22 23  2  0
 23  9  1  0
 23 14  1  0
  7 24  1  0
 24 25  2  0
 25  4  1  0
 25 26  1  0
 26 27  1  0
  1 28  1  0
  1 29  1  0
  1 30  1  0
  2 31  1  0
  2 32  1  0
  5 33  1  0
  6 34  1  0
  8 35  1  0
  8 36  1  0
 12 37  1  0
 12 38  1  0
 12 39  1  0
 13 40  1  0
 15 41  1  0
 18 42  1  0
 18 43  1  0
 18 44  1  0
 21 45  1  0
 21 46  1  0
 21 47  1  0
 22 48  1  0
 24 49  1  0
 27 50  1  0
 27 51  1  0
 27 52  1  0
M  END
> <ID>
HT3667

> <Class>
0.0

> <Clusters>
271

> <Fold>
3

$$$$