
     RDKit          3D

 81 82  0  0  0  0  0  0  0  0999 V2000
    6.8100    4.1290   -0.7658 C   0  0  0  0  0  0  0  0  0  0  0  0
    6.3343    2.7356   -1.2000 C   0  0  0  0  0  0  0  0  0  0  0  0
    7.4175    1.6801   -0.9398 C   0  0  0  0  0  0  0  0  0  0  0  0
    4.9724    2.3517   -0.5743 C   0  0  0  0  0  0  0  0  0  0  0  0
    5.0066    2.1410    0.9529 C   0  0  0  0  0  0  0  0  0  0  0  0
    3.6027    2.0030    1.5737 C   0  0  0  0  0  0  0  0  0  0  0  0
    2.7227    0.8633    0.9980 C   0  0  2  0  0  0  0  0  0  0  0  0
    1.3362    0.9221    1.6595 C   0  0  0  0  0  0  0  0  0  0  0  0
    3.3853   -0.5261    1.1960 C   0  0  0  0  0  0  0  0  0  0  0  0
    2.5766   -1.7184    0.6491 C   0  0  0  0  0  0  0  0  0  0  0  0
    2.3361   -1.6287   -0.8691 C   0  0  0  0  0  0  0  0  0  0  0  0
    1.8396   -2.9612   -1.4774 C   0  0  2  0  0  0  0  0  0  0  0  0
    1.7913   -2.8615   -3.0098 C   0  0  0  0  0  0  0  0  0  0  0  0
    0.4927   -3.4620   -0.8934 C   0  0  0  0  0  0  0  0  0  0  0  0
   -0.6918   -2.4954   -1.0808 C   0  0  0  0  0  0  0  0  0  0  0  0
   -1.9941   -3.1274   -0.5549 C   0  0  0  0  0  0  0  0  0  0  0  0
   -3.2349   -2.1974   -0.6333 C   0  0  1  0  0  0  0  0  0  0  0  0
   -3.5780   -1.8679   -2.1030 C   0  0  0  0  0  0  0  0  0  0  0  0
   -4.4226   -2.9049    0.0564 C   0  0  0  0  0  0  0  0  0  0  0  0
   -5.6402   -1.9846    0.2178 C   0  0  0  0  0  0  0  0  0  0  0  0
   -5.2809   -0.5802    0.6682 C   0  0  0  0  0  0  0  0  0  0  0  0
   -6.2811    0.3048    1.1334 C   0  0  0  0  0  0  0  0  0  0  0  0
   -7.7325   -0.1226    1.1634 C   0  0  0  0  0  0  0  0  0  0  0  0
   -5.9173    1.5709    1.6358 C   0  0  0  0  0  0  0  0  0  0  0  0
   -6.9272    2.4164    2.1122 O   0  0  0  0  0  0  0  0  0  0  0  0
   -4.5602    1.9726    1.6508 C   0  0  0  0  0  0  0  0  0  0  0  0
   -4.1817    3.2979    2.2772 C   0  0  0  0  0  0  0  0  0  0  0  0
   -3.5820    1.1391    1.0521 C   0  0  0  0  0  0  0  0  0  0  0  0
   -2.1440    1.5882    0.9294 C   0  0  0  0  0  0  0  0  0  0  0  0
   -3.9434   -0.1421    0.5937 C   0  0  0  0  0  0  0  0  0  0  0  0
   -2.9531   -0.9858    0.0673 O   0  0  0  0  0  0  0  0  0  0  0  0
    7.1215    4.1378    0.2992 H   0  0  0  0  0  0  0  0  0  0  0  0
    6.0025    4.8769   -0.9144 H   0  0  0  0  0  0  0  0  0  0  0  0
    7.6817    4.4369   -1.3818 H   0  0  0  0  0  0  0  0  0  0  0  0
    6.1774    2.7772   -2.3011 H   0  0  0  0  0  0  0  0  0  0  0  0
    8.3226    1.9124   -1.5397 H   0  0  0  0  0  0  0  0  0  0  0  0
    7.0537    0.6739   -1.2367 H   0  0  0  0  0  0  0  0  0  0  0  0
    7.7064    1.6595    0.1319 H   0  0  0  0  0  0  0  0  0  0  0  0
    4.6279    1.4140   -1.0611 H   0  0  0  0  0  0  0  0  0  0  0  0
    4.2294    3.1422   -0.8208 H   0  0  0  0  0  0  0  0  0  0  0  0
    5.6216    1.2540    1.2080 H   0  0  0  0  0  0  0  0  0  0  0  0
    5.4887    3.0149    1.4372 H   0  0  0  0  0  0  0  0  0  0  0  0
    3.0750    2.9730    1.4363 H   0  0  0  0  0  0  0  0  0  0  0  0
    3.7219    1.8528    2.6695 H   0  0  0  0  0  0  0  0  0  0  0  0
    2.5757    1.0527   -0.0852 H   0  0  0  0  0  0  0  0  0  0  0  0
    0.6266    0.2433    1.1449 H   0  0  0  0  0  0  0  0  0  0  0  0
    0.9152    1.9475    1.5853 H   0  0  0  0  0  0  0  0  0  0  0  0
    1.3995    0.6399    2.7323 H   0  0  0  0  0  0  0  0  0  0  0  0
    4.3749   -0.5447    0.6942 H   0  0  0  0  0  0  0  0  0  0  0  0
    3.5646   -0.6931    2.2807 H   0  0  0  0  0  0  0  0  0  0  0  0
    1.6129   -1.8053    1.1912 H   0  0  0  0  0  0  0  0  0  0  0  0
    3.1548   -2.6428    0.8682 H   0  0  0  0  0  0  0  0  0  0  0  0
    3.2969   -1.3578   -1.3608 H   0  0  0  0  0  0  0  0  0  0  0  0
    1.6127   -0.8176   -1.0940 H   0  0  0  0  0  0  0  0  0  0  0  0
    2.5988   -3.7399   -1.2399 H   0  0  0  0  0  0  0  0  0  0  0  0
    1.3858   -3.7978   -3.4490 H   0  0  0  0  0  0  0  0  0  0  0  0
    2.8167   -2.7121   -3.4110 H   0  0  0  0  0  0  0  0  0  0  0  0
    1.1647   -2.0054   -3.3370 H   0  0  0  0  0  0  0  0  0  0  0  0
    0.2433   -4.4334   -1.3753 H   0  0  0  0  0  0  0  0  0  0  0  0
    0.6201   -3.6787    0.1888 H   0  0  0  0  0  0  0  0  0  0  0  0
   -0.4968   -1.5528   -0.5286 H   0  0  0  0  0  0  0  0  0  0  0  0
   -0.8032   -2.2678   -2.1586 H   0  0  0  0  0  0  0  0  0  0  0  0
   -2.1994   -4.0629   -1.1220 H   0  0  0  0  0  0  0  0  0  0  0  0
   -1.8284   -3.4134    0.5078 H   0  0  0  0  0  0  0  0  0  0  0  0
   -3.7311   -2.7992   -2.6891 H   0  0  0  0  0  0  0  0  0  0  0  0
   -4.4968   -1.2514   -2.1731 H   0  0  0  0  0  0  0  0  0  0  0  0
   -2.7705   -1.2718   -2.5741 H   0  0  0  0  0  0  0  0  0  0  0  0
   -4.1127   -3.2358    1.0730 H   0  0  0  0  0  0  0  0  0  0  0  0
   -4.7188   -3.8129   -0.5142 H   0  0  0  0  0  0  0  0  0  0  0  0
   -6.3113   -2.4547    0.9687 H   0  0  0  0  0  0  0  0  0  0  0  0
   -6.1982   -1.9303   -0.7408 H   0  0  0  0  0  0  0  0  0  0  0  0
   -7.9068   -0.7800    2.0406 H   0  0  0  0  0  0  0  0  0  0  0  0
   -8.4248    0.7421    1.2255 H   0  0  0  0  0  0  0  0  0  0  0  0
   -8.0021   -0.6685    0.2360 H   0  0  0  0  0  0  0  0  0  0  0  0
   -6.7763    3.3762    2.3917 H   0  0  0  0  0  0  0  0  0  0  0  0
   -4.4422    4.1265    1.5862 H   0  0  0  0  0  0  0  0  0  0  0  0
   -3.1055    3.3643    2.5301 H   0  0  0  0  0  0  0  0  0  0  0  0
   -4.7120    3.4346    3.2423 H   0  0  0  0  0  0  0  0  0  0  0  0
   -1.6437    1.5008    1.9160 H   0  0  0  0  0  0  0  0  0  0  0  0
   -1.5766    0.9884    0.1887 H   0  0  0  0  0  0  0  0  0  0  0  0
   -2.0952    2.6391    0.5753 H   0  0  0  0  0  0  0  0  0  0  0  0
  1  2  1  0
  2  3  1  0
  2  4  1  0
  4  5  1  0
  5  6  1  0
  6  7  1  0
  7  8  1  0
  7  9  1  0
  9 10  1  0
 10 11  1  0
 11 12  1  0
 12 13  1  0
 12 14  1  0
 14 15  1  0
 15 16  1  0
 17 16  1  6
 17 18  1  0
 17 19  1  0
 19 20  1  0
 20 21  1  0
 21 22  2  0
 22 23  1  0
 22 24  1  0
 24 25  1  0
 24 26  2  0
 26 27  1  0
 26 28  1  0
 28 29  1  0
 28 30  2  0
 30 21  1  0
 30 31  1  0
 31 17  1  0
  1 32  1  0
  1 33  1  0
  1 34  1  0
  2 35  1  0
  3 36  1  0
  3 37  1  0
  3 38  1  0
  4 39  1  0
  4 40  1  0
  5 41  1  0
  5 42  1  0
  6 43  1  0
  6 44  1  0
  7 45  1  6
  8 46  1  0
  8 47  1  0
  8 48  1  0
  9 49  1  0
  9 50  1  0
 10 51  1  0
 10 52  1  0
 11 53  1  0
 11 54  1  0
 12 55  1  6
 13 56  1  0
 13 57  1  0
 13 58  1  0
 14 59  1  0
 14 60  1  0
 15 61  1  0
 15 62  1  0
 16 63  1  0
 16 64  1  0
 18 65  1  0
 18 66  1  0
 18 67  1  0
 19 68  1  0
 19 69  1  0
 20 70  1  0
 20 71  1  0
 23 72  1  0
 23 73  1  0
 23 74  1  0
 25 75  1  0
 27 76  1  0
 27 77  1  0
 27 78  1  0
 29 79  1  0
 29 80  1  0
 29 81  1  0
M  END
> <ID>
HT2191

> <Class>
0.0

> <Clusters>
229

> <Fold>
3

$$$$