
     RDKit          3D

 26 28  0  0  0  0  0  0  0  0999 V2000
   -1.7632    1.3952   -0.5487 C   0  0  0  0  0  0  0  0  0  0  0  0
   -0.6354    0.6412    0.1855 C   0  0  0  0  0  0  0  0  0  0  0  0
    0.7426    1.3128   -0.0675 C   0  0  0  0  0  0  0  0  0  0  0  0
    1.8155    0.8772    0.9439 C   0  0  0  0  0  0  0  0  0  0  0  0
    2.1144   -0.5318    0.4506 C   0  0  0  0  0  0  0  0  0  0  0  0
    1.1537   -0.6258   -0.7461 C   0  0  0  0  0  0  0  0  0  0  0  0
    1.1734    0.6833   -1.2412 O   0  0  0  0  0  0  0  0  0  0  0  0
   -0.3299   -0.7992   -0.3187 C   0  0  0  0  0  0  0  0  0  0  0  0
   -1.1902   -1.3064   -1.4944 C   0  0  0  0  0  0  0  0  0  0  0  0
   -0.5651   -1.6446    0.9043 C   0  0  0  0  0  0  0  0  0  0  0  0
   -0.3963   -2.8918    0.9495 O   0  0  0  0  0  0  0  0  0  0  0  0
   -0.9659   -0.9049    2.0001 O   0  0  0  0  0  0  0  0  0  0  0  0
   -1.0041    0.4251    1.6287 C   0  0  0  0  0  0  0  0  0  0  0  0
   -1.2956    1.3487    2.4338 O   0  0  0  0  0  0  0  0  0  0  0  0
   -1.8832    2.4103   -0.1135 H   0  0  0  0  0  0  0  0  0  0  0  0
   -1.5267    1.5163   -1.6268 H   0  0  0  0  0  0  0  0  0  0  0  0
   -2.7313    0.8611   -0.4437 H   0  0  0  0  0  0  0  0  0  0  0  0
    0.6909    2.4176   -0.1802 H   0  0  0  0  0  0  0  0  0  0  0  0
    2.7162    1.5211    0.8384 H   0  0  0  0  0  0  0  0  0  0  0  0
    1.4801    0.8987    2.0013 H   0  0  0  0  0  0  0  0  0  0  0  0
    1.9471   -1.3031    1.2306 H   0  0  0  0  0  0  0  0  0  0  0  0
    3.1661   -0.6005    0.0957 H   0  0  0  0  0  0  0  0  0  0  0  0
    1.4931   -1.3648   -1.5042 H   0  0  0  0  0  0  0  0  0  0  0  0
   -2.2644   -1.3404   -1.2142 H   0  0  0  0  0  0  0  0  0  0  0  0
   -1.0651   -0.6603   -2.3887 H   0  0  0  0  0  0  0  0  0  0  0  0
   -0.8767   -2.3348   -1.7745 H   0  0  0  0  0  0  0  0  0  0  0  0
  1  2  1  0
  2  3  1  0
  3  4  1  0
  4  5  1  0
  5  6  1  0
  6  7  1  0
  7  3  1  0
  6  8  1  0
  8  2  1  0
  8  9  1  0
  8 10  1  0
 10 11  2  0
 10 12  1  0
 12 13  1  0
 13  2  1  0
 13 14  2  0
  1 15  1  0
  1 16  1  0
  1 17  1  0
  3 18  1  0
  4 19  1  0
  4 20  1  0
  5 21  1  0
  5 22  1  0
  6 23  1  0
  9 24  1  0
  9 25  1  0
  9 26  1  0
M  END
> <ID>
HT2837

> <Class>
0.0

> <Clusters>
235

> <Fold>
3

$$$$