
     RDKit          3D

 20 20  0  0  0  0  0  0  0  0999 V2000
    3.7028    0.8901    0.2534 C   0  0  0  0  0  0  0  0  0  0  0  0
    2.4374    1.4038   -0.1498 O   0  0  0  0  0  0  0  0  0  0  0  0
    1.2310    0.6884   -0.0841 C   0  0  0  0  0  0  0  0  0  0  0  0
    1.1694   -0.6321    0.3988 C   0  0  0  0  0  0  0  0  0  0  0  0
   -0.0515   -1.3133    0.4493 C   0  0  0  0  0  0  0  0  0  0  0  0
   -0.0893   -2.9614    1.0585 Cl  0  0  0  0  0  0  0  0  0  0  0  0
   -1.2310   -0.6884    0.0190 C   0  0  0  0  0  0  0  0  0  0  0  0
   -2.4374   -1.4037    0.0847 O   0  0  0  0  0  0  0  0  0  0  0  0
   -3.7027   -0.8900   -0.3185 C   0  0  0  0  0  0  0  0  0  0  0  0
   -1.1694    0.6322   -0.4639 C   0  0  0  0  0  0  0  0  0  0  0  0
    0.0515    1.3133   -0.5144 C   0  0  0  0  0  0  0  0  0  0  0  0
    0.0893    2.9614   -1.1236 Cl  0  0  0  0  0  0  0  0  0  0  0  0
    3.9634   -0.0027   -0.3535 H   0  0  0  0  0  0  0  0  0  0  0  0
    3.6819    0.6268    1.3320 H   0  0  0  0  0  0  0  0  0  0  0  0
    4.4774    1.6675    0.0924 H   0  0  0  0  0  0  0  0  0  0  0  0
    2.0626   -1.1395    0.7374 H   0  0  0  0  0  0  0  0  0  0  0  0
   -4.4773   -1.6675   -0.1575 H   0  0  0  0  0  0  0  0  0  0  0  0
   -3.9635    0.0025    0.2886 H   0  0  0  0  0  0  0  0  0  0  0  0
   -3.6820   -0.6270   -1.3972 H   0  0  0  0  0  0  0  0  0  0  0  0
   -2.0626    1.1395   -0.8025 H   0  0  0  0  0  0  0  0  0  0  0  0
  1  2  1  0
  2  3  1  0
  3  4  2  0
  4  5  1  0
  5  6  1  0
  5  7  2  0
  7  8  1  0
  8  9  1  0
  7 10  1  0
 10 11  2  0
 11  3  1  0
 11 12  1  0
  1 13  1  0
  1 14  1  0
  1 15  1  0
  4 16  1  0
  9 17  1  0
  9 18  1  0
  9 19  1  0
 10 20  1  0
M  END
> <ID>
HT2890

> <Class>
0.0

> <Clusters>
160

> <Fold>
3

$$$$