
     RDKit          3D

 31 30  0  0  0  0  0  0  0  0999 V2000
    4.4154   -0.0941   -1.6855 O   0  0  0  0  0  0  0  0  0  0  0  0
    3.3859   -0.9911   -1.5330 N   0  0  0  0  0  0  0  0  0  0  0  0
    3.5968   -2.0751   -0.9501 O   0  0  0  0  0  0  0  0  0  0  0  0
    2.1391   -0.6852   -2.0449 O   0  0  0  0  0  0  0  0  0  0  0  0
    1.0139   -1.5476   -1.8921 C   0  0  0  0  0  0  0  0  0  0  0  0
    0.4390   -1.4698   -0.4756 C   0  0  0  0  0  0  0  0  0  0  0  0
   -0.0986   -0.1110   -0.2174 N   0  0  0  0  0  0  0  0  0  0  0  0
    0.8654    0.7228    0.5366 C   0  0  0  0  0  0  0  0  0  0  0  0
    0.7220    2.1925    0.1311 C   0  0  0  0  0  0  0  0  0  0  0  0
    1.7084    2.9904    0.7821 O   0  0  0  0  0  0  0  0  0  0  0  0
    1.6542    3.2876    2.1307 N   0  0  0  0  0  0  0  0  0  0  0  0
    0.6707    2.9572    2.8256 O   0  0  0  0  0  0  0  0  0  0  0  0
    2.6703    4.0156    2.7013 O   0  0  0  0  0  0  0  0  0  0  0  0
   -1.4092   -0.1657    0.4697 C   0  0  0  0  0  0  0  0  0  0  0  0
   -2.5327   -0.3768   -0.5495 C   0  0  0  0  0  0  0  0  0  0  0  0
   -3.8028   -0.3602    0.0958 O   0  0  0  0  0  0  0  0  0  0  0  0
   -4.2401   -1.4015    0.8903 N   0  0  0  0  0  0  0  0  0  0  0  0
   -5.3399   -1.3094    1.4705 O   0  0  0  0  0  0  0  0  0  0  0  0
   -3.5124   -2.5645    1.0007 O   0  0  0  0  0  0  0  0  0  0  0  0
    1.3044   -2.5938   -2.1297 H   0  0  0  0  0  0  0  0  0  0  0  0
    0.2298   -1.2419   -2.6171 H   0  0  0  0  0  0  0  0  0  0  0  0
    1.2067   -1.7652    0.2744 H   0  0  0  0  0  0  0  0  0  0  0  0
   -0.3559   -2.2462   -0.4118 H   0  0  0  0  0  0  0  0  0  0  0  0
    0.7272    0.6009    1.6344 H   0  0  0  0  0  0  0  0  0  0  0  0
    1.9142    0.4298    0.3127 H   0  0  0  0  0  0  0  0  0  0  0  0
   -0.2905    2.5823    0.3668 H   0  0  0  0  0  0  0  0  0  0  0  0
    0.8736    2.2754   -0.9662 H   0  0  0  0  0  0  0  0  0  0  0  0
   -1.6253    0.7897    0.9971 H   0  0  0  0  0  0  0  0  0  0  0  0
   -1.4205   -0.9656    1.2435 H   0  0  0  0  0  0  0  0  0  0  0  0
   -2.4055   -1.3315   -1.1022 H   0  0  0  0  0  0  0  0  0  0  0  0
   -2.5038    0.4522   -1.2882 H   0  0  0  0  0  0  0  0  0  0  0  0
  1  2  1  0
  2  3  2  0
  2  4  1  0
  4  5  1  0
  5  6  1  0
  6  7  1  0
  7  8  1  0
  8  9  1  0
  9 10  1  0
 10 11  1  0
 11 12  2  0
 11 13  1  0
  7 14  1  0
 14 15  1  0
 15 16  1  0
 16 17  1  0
 17 18  2  0
 17 19  1  0
  5 20  1  0
  5 21  1  0
  6 22  1  0
  6 23  1  0
  8 24  1  0
  8 25  1  0
  9 26  1  0
  9 27  1  0
 14 28  1  0
 14 29  1  0
 15 30  1  0
 15 31  1  0
M  CHG  6   1  -1   2   1  11   1  13  -1  17   1  19  -1
M  END
> <ID>
HT3258

> <Class>
0.0

> <Clusters>
267

> <Fold>
3

$$$$