
     RDKit          3D

 35 35  0  0  0  0  0  0  0  0999 V2000
   -1.6238   -2.9636   -0.3163 C   0  0  0  0  0  0  0  0  0  0  0  0
   -1.8678   -1.4664   -0.2119 C   0  0  0  0  0  0  0  0  0  0  0  0
   -1.2762   -0.9872    0.9715 O   0  0  0  0  0  0  0  0  0  0  0  0
   -1.4986    0.7017    1.0322 P   0  0  0  0  0  0  0  0  0  0  0  0
   -0.7905    1.2956    2.4939 S   0  0  0  0  0  0  0  0  0  0  0  0
   -3.1710    1.0490    1.0448 O   0  0  0  0  0  0  0  0  0  0  0  0
   -3.3752    2.3150    0.4651 C   0  0  0  0  0  0  0  0  0  0  0  0
   -4.8418    2.6931    0.6021 C   0  0  0  0  0  0  0  0  0  0  0  0
   -0.7190    1.4352   -0.3191 O   0  0  0  0  0  0  0  0  0  0  0  0
    0.6107    1.1683   -0.6463 C   0  0  0  0  0  0  0  0  0  0  0  0
    1.2391    1.7524   -1.6882 N   0  0  0  0  0  0  0  0  0  0  0  0
    2.4611    1.1886   -1.6242 C   0  0  0  0  0  0  0  0  0  0  0  0
    3.7389    1.5332   -2.7777 Cl  0  0  0  0  0  0  0  0  0  0  0  0
    2.5584    0.3238   -0.5951 N   0  0  0  0  0  0  0  0  0  0  0  0
    1.3902    0.2941    0.0206 N   0  0  0  0  0  0  0  0  0  0  0  0
    3.6918   -0.5429   -0.2581 C   0  0  0  0  0  0  0  0  0  0  0  0
    3.4354   -1.9573   -0.7819 C   0  0  0  0  0  0  0  0  0  0  0  0
    3.9262   -0.5538    1.2557 C   0  0  0  0  0  0  0  0  0  0  0  0
   -0.5323   -3.1690   -0.3438 H   0  0  0  0  0  0  0  0  0  0  0  0
   -2.0709   -3.4838    0.5574 H   0  0  0  0  0  0  0  0  0  0  0  0
   -2.0877   -3.3563   -1.2456 H   0  0  0  0  0  0  0  0  0  0  0  0
   -1.4199   -0.9851   -1.1106 H   0  0  0  0  0  0  0  0  0  0  0  0
   -2.9675   -1.2931   -0.2013 H   0  0  0  0  0  0  0  0  0  0  0  0
   -2.7687    3.0975    0.9763 H   0  0  0  0  0  0  0  0  0  0  0  0
   -3.1261    2.2902   -0.6193 H   0  0  0  0  0  0  0  0  0  0  0  0
   -5.1242    2.7367    1.6754 H   0  0  0  0  0  0  0  0  0  0  0  0
   -5.0178    3.6886    0.1425 H   0  0  0  0  0  0  0  0  0  0  0  0
   -5.4780    1.9415    0.0880 H   0  0  0  0  0  0  0  0  0  0  0  0
    4.6173   -0.1551   -0.7369 H   0  0  0  0  0  0  0  0  0  0  0  0
    2.5241   -2.3879   -0.3137 H   0  0  0  0  0  0  0  0  0  0  0  0
    3.2919   -1.9301   -1.8830 H   0  0  0  0  0  0  0  0  0  0  0  0
    4.3031   -2.6136   -0.5573 H   0  0  0  0  0  0  0  0  0  0  0  0
    3.0507   -0.9838    1.7881 H   0  0  0  0  0  0  0  0  0  0  0  0
    4.8257   -1.1586    1.4989 H   0  0  0  0  0  0  0  0  0  0  0  0
    4.0923    0.4830    1.6181 H   0  0  0  0  0  0  0  0  0  0  0  0
  1  2  1  0
  2  3  1  0
  3  4  1  0
  4  5  2  0
  4  6  1  0
  6  7  1  0
  7  8  1  0
  4  9  1  0
  9 10  1  0
 10 11  1  0
 11 12  2  0
 12 13  1  0
 12 14  1  0
 14 15  1  0
 15 10  2  0
 14 16  1  0
 16 17  1  0
 16 18  1  0
  1 19  1  0
  1 20  1  0
  1 21  1  0
  2 22  1  0
  2 23  1  0
  7 24  1  0
  7 25  1  0
  8 26  1  0
  8 27  1  0
  8 28  1  0
 16 29  1  0
 17 30  1  0
 17 31  1  0
 17 32  1  0
 18 33  1  0
 18 34  1  0
 18 35  1  0
M  END
> <ID>
HT3431

> <Class>
0.0

> <Clusters>
92

> <Fold>
3

$$$$