
     RDKit          3D

  8  7  0  0  0  0  0  0  0  0999 V2000
   -1.0799   -0.0498    0.6351 N   0  0  0  0  0  0  0  0  0  0  0  0
    0.0657    0.5023   -0.0114 C   0  0  0  0  0  0  0  0  0  0  0  0
    0.2289    1.7508   -0.0399 O   0  0  0  0  0  0  0  0  0  0  0  0
    1.0271   -0.3540   -0.6259 N   0  0  0  0  0  0  0  0  0  0  0  0
   -1.7845    0.5756    1.0853 H   0  0  0  0  0  0  0  0  0  0  0  0
   -1.2256   -1.0831    0.6649 H   0  0  0  0  0  0  0  0  0  0  0  0
    0.9022   -1.3903   -0.6086 H   0  0  0  0  0  0  0  0  0  0  0  0
    1.8661    0.0485   -1.0995 H   0  0  0  0  0  0  0  0  0  0  0  0
  1  2  1  0
  2  3  2  0
  2  4  1  0
  1  5  1  0
  1  6  1  0
  4  7  1  0
  4  8  1  0
M  END
> <ID>
HT2154

> <Class>
0.0

> <Clusters>
122

> <Fold>
3

$$$$