
     RDKit          3D

 72 75  0  0  0  0  0  0  0  0999 V2000
    2.7192   -1.7278   -2.1296 C   0  0  0  0  0  0  0  0  0  0  0  0
    1.2826   -2.0184   -1.6672 C   0  0  0  0  0  0  0  0  0  0  0  0
    0.2323   -1.0266   -2.2283 C   0  0  0  0  0  0  0  0  0  0  0  0
   -0.5114   -0.5228   -0.9940 C   0  0  0  0  0  0  0  0  0  0  0  0
   -1.8565    0.2438   -1.1312 C   0  0  0  0  0  0  0  0  0  0  0  0
   -2.9626   -0.5787   -1.8474 C   0  0  0  0  0  0  0  0  0  0  0  0
   -4.2916    0.1582   -1.9289 C   0  0  0  0  0  0  0  0  0  0  0  0
   -5.2368   -0.6808   -2.5001 F   0  0  0  0  0  0  0  0  0  0  0  0
   -4.6865    0.6089   -0.5411 C   0  0  0  0  0  0  0  0  0  0  0  0
   -5.8275    0.1753    0.0252 C   0  0  0  0  0  0  0  0  0  0  0  0
   -6.2169    0.5996    1.3773 C   0  0  0  0  0  0  0  0  0  0  0  0
   -7.3444    0.1502    1.9321 C   0  0  0  0  0  0  0  0  0  0  0  0
   -5.3489    1.5289    2.1069 C   0  0  0  0  0  0  0  0  0  0  0  0
   -4.2111    1.9639    1.5666 C   0  0  0  0  0  0  0  0  0  0  0  0
   -3.7144    1.5482    0.1834 C   0  0  0  0  0  0  0  0  0  0  0  0
   -3.6634    2.8729   -0.6308 C   0  0  0  0  0  0  0  0  0  0  0  0
   -2.2821    0.8448    0.2778 C   0  0  0  0  0  0  0  0  0  0  0  0
   -1.0692    2.1136    0.7423 Cl  0  0  0  0  0  0  0  0  0  0  0  0
   -2.2122   -0.2989    1.3757 C   0  0  0  0  0  0  0  0  0  0  0  0
   -2.5122    0.1731    2.6673 O   0  0  0  0  0  0  0  0  0  0  0  0
   -0.8368   -1.0500    1.4261 C   0  0  0  0  0  0  0  0  0  0  0  0
   -0.4349   -1.6469    0.0547 C   0  0  0  0  0  0  0  0  0  0  0  0
   -1.3336   -2.8938   -0.2419 C   0  0  0  0  0  0  0  0  0  0  0  0
    1.0486   -2.1160   -0.1238 C   0  0  0  0  0  0  0  0  0  0  0  0
    2.0798   -1.4347    0.7857 C   0  0  0  0  0  0  0  0  0  0  0  0
    2.5243   -2.0809    1.7237 O   0  0  0  0  0  0  0  0  0  0  0  0
    2.5886   -0.0246    0.6252 C   0  0  0  0  0  0  0  0  0  0  0  0
    4.0089   -0.0521    0.5370 O   0  0  0  0  0  0  0  0  0  0  0  0
    4.7821    1.1037    0.3834 C   0  0  0  0  0  0  0  0  0  0  0  0
    4.2301    2.2394    0.4114 O   0  0  0  0  0  0  0  0  0  0  0  0
    6.2892    0.9884    0.2642 C   0  0  0  0  0  0  0  0  0  0  0  0
    6.8565    2.1632   -0.5597 C   0  0  0  0  0  0  0  0  0  0  0  0
    6.8994    1.0085    1.6760 C   0  0  0  0  0  0  0  0  0  0  0  0
    6.6605   -0.3338   -0.4377 C   0  0  0  0  0  0  0  0  0  0  0  0
    3.4400   -2.3563   -1.5653 H   0  0  0  0  0  0  0  0  0  0  0  0
    2.8155   -1.9756   -3.2080 H   0  0  0  0  0  0  0  0  0  0  0  0
    2.9894   -0.6612   -2.0150 H   0  0  0  0  0  0  0  0  0  0  0  0
    1.0333   -3.0196   -2.0891 H   0  0  0  0  0  0  0  0  0  0  0  0
   -0.4562   -1.5549   -2.9202 H   0  0  0  0  0  0  0  0  0  0  0  0
    0.6993   -0.1795   -2.7784 H   0  0  0  0  0  0  0  0  0  0  0  0
    0.1552    0.2742   -0.6301 H   0  0  0  0  0  0  0  0  0  0  0  0
   -1.6419    1.0997   -1.8080 H   0  0  0  0  0  0  0  0  0  0  0  0
   -2.6379   -0.8196   -2.8816 H   0  0  0  0  0  0  0  0  0  0  0  0
   -3.1724   -1.5265   -1.3391 H   0  0  0  0  0  0  0  0  0  0  0  0
   -4.1908    1.0346   -2.6008 H   0  0  0  0  0  0  0  0  0  0  0  0
   -6.4845   -0.5000   -0.5094 H   0  0  0  0  0  0  0  0  0  0  0  0
   -7.9931   -0.5352    1.4005 H   0  0  0  0  0  0  0  0  0  0  0  0
   -7.6375    0.4592    2.9282 H   0  0  0  0  0  0  0  0  0  0  0  0
   -5.6271    1.8705    3.0973 H   0  0  0  0  0  0  0  0  0  0  0  0
   -3.6079    2.6539    2.1457 H   0  0  0  0  0  0  0  0  0  0  0  0
   -3.1424    3.6811   -0.0736 H   0  0  0  0  0  0  0  0  0  0  0  0
   -3.1396    2.7608   -1.5993 H   0  0  0  0  0  0  0  0  0  0  0  0
   -4.6934    3.2378   -0.8391 H   0  0  0  0  0  0  0  0  0  0  0  0
   -3.0101   -1.0261    1.1355 H   0  0  0  0  0  0  0  0  0  0  0  0
   -1.7681    0.7549    2.9698 H   0  0  0  0  0  0  0  0  0  0  0  0
   -0.8874   -1.8618    2.1842 H   0  0  0  0  0  0  0  0  0  0  0  0
   -0.0635   -0.3366    1.7763 H   0  0  0  0  0  0  0  0  0  0  0  0
   -0.9546   -3.7902    0.2934 H   0  0  0  0  0  0  0  0  0  0  0  0
   -1.3608   -3.1378   -1.3240 H   0  0  0  0  0  0  0  0  0  0  0  0
   -2.3669   -2.8054    0.1327 H   0  0  0  0  0  0  0  0  0  0  0  0
    1.1359   -3.1966    0.1357 H   0  0  0  0  0  0  0  0  0  0  0  0
    2.2847    0.5702    1.5132 H   0  0  0  0  0  0  0  0  0  0  0  0
    2.1959    0.4735   -0.2753 H   0  0  0  0  0  0  0  0  0  0  0  0
    7.9560    2.0613   -0.6842 H   0  0  0  0  0  0  0  0  0  0  0  0
    6.3918    2.1902   -1.5690 H   0  0  0  0  0  0  0  0  0  0  0  0
    6.6580    3.1334   -0.0555 H   0  0  0  0  0  0  0  0  0  0  0  0
    8.0066    0.9224    1.6262 H   0  0  0  0  0  0  0  0  0  0  0  0
    6.6461    1.9570    2.1980 H   0  0  0  0  0  0  0  0  0  0  0  0
    6.5095    0.1623    2.2828 H   0  0  0  0  0  0  0  0  0  0  0  0
    6.3151   -1.2094    0.1540 H   0  0  0  0  0  0  0  0  0  0  0  0
    7.7625   -0.4177   -0.5586 H   0  0  0  0  0  0  0  0  0  0  0  0
    6.1925   -0.3848   -1.4454 H   0  0  0  0  0  0  0  0  0  0  0  0
  1  2  1  0
  2  3  1  0
  3  4  1  0
  4  5  1  0
  5  6  1  0
  6  7  1  0
  7  8  1  0
  7  9  1  0
  9 10  2  0
 10 11  1  0
 11 12  2  3
 11 13  1  0
 13 14  2  0
 14 15  1  0
 15  9  1  0
 15 16  1  0
 15 17  1  0
 17  5  1  0
 17 18  1  0
 17 19  1  0
 19 20  1  0
 19 21  1  0
 21 22  1  0
 22  4  1  0
 22 23  1  0
 22 24  1  0
 24  2  1  0
 24 25  1  0
 25 26  2  0
 25 27  1  0
 27 28  1  0
 28 29  1  0
 29 30  2  0
 29 31  1  0
 31 32  1  0
 31 33  1  0
 31 34  1  0
  1 35  1  0
  1 36  1  0
  1 37  1  0
  2 38  1  0
  3 39  1  0
  3 40  1  0
  4 41  1  0
  5 42  1  0
  6 43  1  0
  6 44  1  0
  7 45  1  0
 10 46  1  0
 12 47  1  0
 12 48  1  0
 13 49  1  0
 14 50  1  0
 16 51  1  0
 16 52  1  0
 16 53  1  0
 19 54  1  0
 20 55  1  0
 21 56  1  0
 21 57  1  0
 23 58  1  0
 23 59  1  0
 23 60  1  0
 24 61  1  0
 27 62  1  0
 27 63  1  0
 32 64  1  0
 32 65  1  0
 32 66  1  0
 33 67  1  0
 33 68  1  0
 33 69  1  0
 34 70  1  0
 34 71  1  0
 34 72  1  0
M  END
> <ID>
HT3881

> <Class>
0.0

> <Clusters>
109

> <Fold>
3

$$$$