
     RDKit          3D

 11 10  0  0  0  0  0  0  0  0999 V2000
   -1.5346   -0.7011    1.1343 F   0  0  0  0  0  0  0  0  0  0  0  0
   -1.3025    0.0041   -0.0333 C   0  0  0  0  0  0  0  0  0  0  0  0
   -1.4775   -0.8395   -1.1160 F   0  0  0  0  0  0  0  0  0  0  0  0
   -2.2279    1.0287   -0.1198 F   0  0  0  0  0  0  0  0  0  0  0  0
    0.1149    0.5972   -0.0338 C   0  0  0  0  0  0  0  0  0  0  0  0
    0.2963    1.3233   -1.1992 F   0  0  0  0  0  0  0  0  0  0  0  0
    0.2394    1.4611    1.0415 F   0  0  0  0  0  0  0  0  0  0  0  0
    1.2121   -0.4744    0.0599 C   0  0  0  0  0  0  0  0  0  0  0  0
    1.0852   -1.1996    1.2315 F   0  0  0  0  0  0  0  0  0  0  0  0
    2.4524    0.1382    0.0538 F   0  0  0  0  0  0  0  0  0  0  0  0
    1.1424   -1.3380   -1.0189 F   0  0  0  0  0  0  0  0  0  0  0  0
  1  2  1  0
  2  3  1  0
  2  4  1  0
  2  5  1  0
  5  6  1  0
  5  7  1  0
  5  8  1  0
  8  9  1  0
  8 10  1  0
  8 11  1  0
M  END
> <ID>
HT1633

> <Class>
0.0

> <Clusters>
190

> <Fold>
3

$$$$