
     RDKit          3D

 83 87  0  0  0  0  0  0  0  0999 V2000
   -0.8733    3.3779   -0.5317 C   0  0  0  0  0  0  0  0  0  0  0  0
   -2.0754    2.5013   -0.9492 C   0  0  2  0  0  0  0  0  0  0  0  0
   -3.2344    2.7488    0.0293 C   0  0  0  0  0  0  0  0  0  0  0  0
   -4.4749    1.9612   -0.3743 C   0  0  0  0  0  0  0  0  0  0  0  0
   -4.2487    0.4155   -0.3869 C   0  0  1  0  0  0  0  0  0  0  0  0
   -5.4697   -0.2190   -1.1155 C   0  0  0  0  0  0  0  0  0  0  0  0
   -5.2298   -0.0592   -2.6067 C   0  0  0  0  0  0  0  0  0  0  0  0
   -3.7546    0.0069   -2.7109 C   0  0  0  0  0  0  0  0  0  0  0  0
   -3.1989   -0.2143   -3.7764 O   0  0  0  0  0  0  0  0  0  0  0  0
   -3.0493    0.0781   -1.3685 C   0  0  1  0  0  0  0  0  0  0  0  0
   -1.7334    0.9709   -1.2502 C   0  0  1  0  0  0  0  0  0  0  0  0
   -0.9842    0.9795   -2.6236 C   0  0  0  0  0  0  0  0  0  0  0  0
   -0.7028    0.3019   -0.2241 C   0  0  1  0  0  0  0  0  0  0  0  0
   -1.1242    0.1040    1.2674 C   0  0  0  0  0  0  0  0  0  0  0  0
   -1.8601   -1.1904    1.8196 C   0  0  1  0  0  0  0  0  0  0  0  0
   -1.0312   -2.4662    1.5018 C   0  0  0  0  0  0  0  0  0  0  0  0
   -1.9542   -0.9596    3.3420 C   0  0  0  0  0  0  0  0  0  0  0  0
   -1.3069   -1.6537    4.2925 C   0  0  0  0  0  0  0  0  0  0  0  0
   -3.3283   -1.4440    1.2979 C   0  0  1  0  0  0  0  0  0  0  0  0
   -3.9702   -2.3346    2.1880 O   0  0  0  0  0  0  0  0  0  0  0  0
   -4.1631   -0.1261    1.1143 C   0  0  2  0  0  0  0  0  0  0  0  0
   -5.5516   -0.2009    1.8146 C   0  0  0  0  0  0  0  0  0  0  0  0
   -0.1314   -0.9137   -0.7344 O   0  0  0  0  0  0  0  0  0  0  0  0
    1.2201   -1.0174   -1.1065 C   0  0  0  0  0  0  0  0  0  0  0  0
    1.6219   -0.4693   -2.1678 O   0  0  0  0  0  0  0  0  0  0  0  0
    2.2143   -1.6864   -0.2099 C   0  0  0  0  0  0  0  0  0  0  0  0
    2.4863   -0.6695    1.2862 S   0  0  0  0  0  0  0  0  0  0  0  0
    4.1865   -0.0369    0.9756 C   0  0  0  0  0  0  0  0  0  0  0  0
    5.2649   -1.1489    1.1822 C   0  0  0  0  0  0  0  0  0  0  0  0
    6.5314   -0.9482    0.3108 C   0  0  1  0  0  0  0  0  0  0  0  0
    6.3420   -1.6095   -1.0625 C   0  0  0  0  0  0  0  0  0  0  0  0
    5.7610   -0.5060   -1.9292 C   0  0  0  0  0  0  0  0  0  0  0  0
    5.6987    0.7190   -0.9990 C   0  0  1  0  0  0  0  0  0  0  0  0
    4.3131    0.8295   -0.3215 C   0  0  0  0  0  0  0  0  0  0  0  0
    6.6853    0.4927    0.0616 N   0  0  0  0  0  0  0  0  0  0  0  0
    8.0528    0.8468   -0.3555 C   0  0  0  0  0  0  0  0  0  0  0  0
   -1.1825    4.4416   -0.4653 H   0  0  0  0  0  0  0  0  0  0  0  0
   -0.0474    3.3377   -1.2717 H   0  0  0  0  0  0  0  0  0  0  0  0
   -0.4981    3.0870    0.4687 H   0  0  0  0  0  0  0  0  0  0  0  0
   -2.4333    2.9517   -1.9038 H   0  0  0  0  0  0  0  0  0  0  0  0
   -2.9496    2.5774    1.0808 H   0  0  0  0  0  0  0  0  0  0  0  0
   -3.5066    3.8285   -0.0137 H   0  0  0  0  0  0  0  0  0  0  0  0
   -5.3069    2.2413    0.3020 H   0  0  0  0  0  0  0  0  0  0  0  0
   -4.7745    2.3240   -1.3826 H   0  0  0  0  0  0  0  0  0  0  0  0
   -6.4385    0.2482   -0.8278 H   0  0  0  0  0  0  0  0  0  0  0  0
   -5.5275   -1.3086   -0.8882 H   0  0  0  0  0  0  0  0  0  0  0  0
   -5.6318   -0.9343   -3.1588 H   0  0  0  0  0  0  0  0  0  0  0  0
   -5.6870    0.8732   -2.9990 H   0  0  0  0  0  0  0  0  0  0  0  0
   -2.6980   -0.9606   -1.2758 H   0  0  0  0  0  0  0  0  0  0  0  0
    0.0066    1.4744   -2.5501 H   0  0  0  0  0  0  0  0  0  0  0  0
   -0.8242   -0.0514   -3.0019 H   0  0  0  0  0  0  0  0  0  0  0  0
   -1.5410    1.5350   -3.4057 H   0  0  0  0  0  0  0  0  0  0  0  0
    0.1411    1.0266   -0.1608 H   0  0  0  0  0  0  0  0  0  0  0  0
   -0.1638    0.1332    1.8287 H   0  0  0  0  0  0  0  0  0  0  0  0
   -1.5906    1.0305    1.6317 H   0  0  0  0  0  0  0  0  0  0  0  0
   -1.4325   -3.3473    2.0451 H   0  0  0  0  0  0  0  0  0  0  0  0
   -1.0867   -2.7316    0.4245 H   0  0  0  0  0  0  0  0  0  0  0  0
    0.0349   -2.3321    1.7836 H   0  0  0  0  0  0  0  0  0  0  0  0
   -2.5910   -0.1486    3.6839 H   0  0  0  0  0  0  0  0  0  0  0  0
   -0.6357   -2.4781    4.0739 H   0  0  0  0  0  0  0  0  0  0  0  0
   -1.4520   -1.3990    5.3386 H   0  0  0  0  0  0  0  0  0  0  0  0
   -3.2864   -1.9862    0.3375 H   0  0  0  0  0  0  0  0  0  0  0  0
   -4.6446   -2.8453    1.6719 H   0  0  0  0  0  0  0  0  0  0  0  0
   -3.6773    0.6438    1.7268 H   0  0  0  0  0  0  0  0  0  0  0  0
   -6.0964    0.7646    1.7644 H   0  0  0  0  0  0  0  0  0  0  0  0
   -6.1978   -0.9883    1.3718 H   0  0  0  0  0  0  0  0  0  0  0  0
   -5.4186   -0.4211    2.8974 H   0  0  0  0  0  0  0  0  0  0  0  0
    1.8117   -2.6711    0.1067 H   0  0  0  0  0  0  0  0  0  0  0  0
    3.1603   -1.8751   -0.7548 H   0  0  0  0  0  0  0  0  0  0  0  0
    4.3555    0.6813    1.8127 H   0  0  0  0  0  0  0  0  0  0  0  0
    5.5789   -1.1282    2.2485 H   0  0  0  0  0  0  0  0  0  0  0  0
    4.8330   -2.1621    1.0295 H   0  0  0  0  0  0  0  0  0  0  0  0
    7.4202   -1.3783    0.8337 H   0  0  0  0  0  0  0  0  0  0  0  0
    7.3233   -1.9352   -1.4695 H   0  0  0  0  0  0  0  0  0  0  0  0
    5.6778   -2.5002   -1.0336 H   0  0  0  0  0  0  0  0  0  0  0  0
    4.7736   -0.7964   -2.3396 H   0  0  0  0  0  0  0  0  0  0  0  0
    6.4348   -0.2985   -2.7883 H   0  0  0  0  0  0  0  0  0  0  0  0
    5.9043    1.6516   -1.5748 H   0  0  0  0  0  0  0  0  0  0  0  0
    4.1578    1.8936   -0.0395 H   0  0  0  0  0  0  0  0  0  0  0  0
    3.5146    0.6144   -1.0458 H   0  0  0  0  0  0  0  0  0  0  0  0
    8.4163    0.2252   -1.2063 H   0  0  0  0  0  0  0  0  0  0  0  0
    8.7510    0.7146    0.5006 H   0  0  0  0  0  0  0  0  0  0  0  0
    8.0970    1.9181   -0.6519 H   0  0  0  0  0  0  0  0  0  0  0  0
  2  1  1  0
  2  3  1  0
  3  4  1  0
  5  4  1  1
  5  6  1  0
  6  7  1  0
  7  8  1  0
  8  9  2  0
 10  8  1  0
 10  5  1  0
 10 11  1  0
 11  2  1  0
 11 12  1  6
 11 13  1  0
 13 14  1  0
 14 15  1  0
 15 16  1  0
 15 17  1  1
 17 18  2  3
 15 19  1  0
 19 20  1  0
 19 21  1  0
 21  5  1  0
 21 22  1  0
 13 23  1  0
 23 24  1  0
 24 25  2  0
 24 26  1  0
 26 27  1  0
 27 28  1  0
 28 29  1  0
 30 29  1  0
 30 31  1  0
 31 32  1  0
 32 33  1  0
 33 34  1  0
 34 28  1  0
 33 35  1  0
 35 30  1  0
 35 36  1  0
  1 37  1  0
  1 38  1  0
  1 39  1  0
  2 40  1  6
  3 41  1  0
  3 42  1  0
  4 43  1  0
  4 44  1  0
  6 45  1  0
  6 46  1  0
  7 47  1  0
  7 48  1  0
 10 49  1  1
 12 50  1  0
 12 51  1  0
 12 52  1  0
 13 53  1  1
 14 54  1  0
 14 55  1  0
 16 56  1  0
 16 57  1  0
 16 58  1  0
 17 59  1  0
 18 60  1  0
 18 61  1  0
 19 62  1  6
 20 63  1  0
 21 64  1  1
 22 65  1  0
 22 66  1  0
 22 67  1  0
 26 68  1  0
 26 69  1  0
 28 70  1  0
 29 71  1  0
 29 72  1  0
 30 73  1  1
 31 74  1  0
 31 75  1  0
 32 76  1  0
 32 77  1  0
 33 78  1  6
 34 79  1  0
 34 80  1  0
 36 81  1  0
 36 82  1  0
 36 83  1  0
M  END
> <ID>
HT1815

> <Class>
0.0

> <Clusters>
89

> <Fold>
3

$$$$