
     RDKit          3D

 44 44  0  0  0  0  0  0  0  0999 V2000
   -5.6096   -2.5290    0.8769 C   0  0  0  0  0  0  0  0  0  0  0  0
   -4.8589   -1.2655    1.1432 C   0  0  0  0  0  0  0  0  0  0  0  0
   -4.6074   -0.9314    2.3322 O   0  0  0  0  0  0  0  0  0  0  0  0
   -4.4467   -0.4354    0.0437 N   0  0  0  0  0  0  0  0  0  0  0  0
   -3.6361    0.7831    0.1776 C   0  0  0  0  0  0  0  0  0  0  0  0
   -2.2721    0.4930    0.8343 C   0  0  0  0  0  0  0  0  0  0  0  0
   -1.5017   -0.6126    0.1041 C   0  0  0  0  0  0  0  0  0  0  0  0
    0.1610   -0.8108    0.8389 S   0  0  0  0  0  0  0  0  0  0  0  0
    0.9962    0.2953   -0.3212 C   0  0  0  0  0  0  0  0  0  0  0  0
    0.9355    1.4984   -0.1214 O   0  0  0  0  0  0  0  0  0  0  0  0
    1.7859   -0.2228   -1.5168 C   0  0  0  0  0  0  0  0  0  0  0  0
    2.0656   -1.7403   -1.4470 C   0  0  0  0  0  0  0  0  0  0  0  0
    0.9721    0.0583   -2.7896 C   0  0  0  0  0  0  0  0  0  0  0  0
    3.0245    0.4923   -1.6508 O   0  0  0  0  0  0  0  0  0  0  0  0
    4.0795    0.6023   -0.7233 C   0  0  0  0  0  0  0  0  0  0  0  0
    4.0161    0.1114    0.5976 C   0  0  0  0  0  0  0  0  0  0  0  0
    5.0994    0.2821    1.4670 C   0  0  0  0  0  0  0  0  0  0  0  0
    6.2530    0.9425    1.0341 C   0  0  0  0  0  0  0  0  0  0  0  0
    7.6096    1.1575    2.1275 Cl  0  0  0  0  0  0  0  0  0  0  0  0
    6.3253    1.4260   -0.2741 C   0  0  0  0  0  0  0  0  0  0  0  0
    5.2461    1.2515   -1.1465 C   0  0  0  0  0  0  0  0  0  0  0  0
   -4.3795    1.8642    0.9217 C   0  0  0  0  0  0  0  0  0  0  0  0
   -5.5592    1.6774    1.3241 O   0  0  0  0  0  0  0  0  0  0  0  0
   -3.7722    3.1010    1.1307 O   0  0  0  0  0  0  0  0  0  0  0  0
   -5.7947   -3.0827    1.8234 H   0  0  0  0  0  0  0  0  0  0  0  0
   -6.5854   -2.2836    0.4062 H   0  0  0  0  0  0  0  0  0  0  0  0
   -5.0210   -3.1744    0.1902 H   0  0  0  0  0  0  0  0  0  0  0  0
   -4.7136   -0.7336   -0.9227 H   0  0  0  0  0  0  0  0  0  0  0  0
   -3.4373    1.1798   -0.8428 H   0  0  0  0  0  0  0  0  0  0  0  0
   -2.4041    0.2074    1.9001 H   0  0  0  0  0  0  0  0  0  0  0  0
   -1.6627    1.4216    0.8144 H   0  0  0  0  0  0  0  0  0  0  0  0
   -1.4393   -0.3862   -0.9802 H   0  0  0  0  0  0  0  0  0  0  0  0
   -2.0373   -1.5792    0.2197 H   0  0  0  0  0  0  0  0  0  0  0  0
    2.6874   -2.0522   -2.3118 H   0  0  0  0  0  0  0  0  0  0  0  0
    1.1179   -2.3207   -1.4741 H   0  0  0  0  0  0  0  0  0  0  0  0
    2.6105   -2.0156   -0.5223 H   0  0  0  0  0  0  0  0  0  0  0  0
    0.0275   -0.5262   -2.8012 H   0  0  0  0  0  0  0  0  0  0  0  0
    0.7236    1.1402   -2.8625 H   0  0  0  0  0  0  0  0  0  0  0  0
    1.5595   -0.2182   -3.6918 H   0  0  0  0  0  0  0  0  0  0  0  0
    3.1409   -0.3889    0.9775 H   0  0  0  0  0  0  0  0  0  0  0  0
    5.0374   -0.0930    2.4804 H   0  0  0  0  0  0  0  0  0  0  0  0
    7.2146    1.9387   -0.6158 H   0  0  0  0  0  0  0  0  0  0  0  0
    5.3124    1.6321   -2.1568 H   0  0  0  0  0  0  0  0  0  0  0  0
   -4.2627    3.8463    1.6111 H   0  0  0  0  0  0  0  0  0  0  0  0
  1  2  1  0
  2  3  2  0
  2  4  1  0
  4  5  1  0
  5  6  1  0
  6  7  1  0
  7  8  1  0
  8  9  1  0
  9 10  2  0
  9 11  1  0
 11 12  1  0
 11 13  1  0
 11 14  1  0
 14 15  1  0
 15 16  2  0
 16 17  1  0
 17 18  2  0
 18 19  1  0
 18 20  1  0
 20 21  2  0
 21 15  1  0
  5 22  1  0
 22 23  2  0
 22 24  1  0
  1 25  1  0
  1 26  1  0
  1 27  1  0
  4 28  1  0
  5 29  1  0
  6 30  1  0
  6 31  1  0
  7 32  1  0
  7 33  1  0
 12 34  1  0
 12 35  1  0
 12 36  1  0
 13 37  1  0
 13 38  1  0
 13 39  1  0
 16 40  1  0
 17 41  1  0
 20 42  1  0
 21 43  1  0
 24 44  1  0
M  END
> <ID>
HT1877

> <Class>
0.0

> <Clusters>
56

> <Fold>
3

$$$$