
     RDKit          3D

 24 24  0  0  0  0  0  0  0  0999 V2000
   -2.6973    1.9985    0.4232 C   0  0  0  0  0  0  0  0  0  0  0  0
   -2.7156    0.7345   -0.2323 O   0  0  0  0  0  0  0  0  0  0  0  0
   -1.6128   -0.1292   -0.3235 C   0  0  0  0  0  0  0  0  0  0  0  0
   -0.3612    0.1886    0.2406 C   0  0  0  0  0  0  0  0  0  0  0  0
    0.7167   -0.7050    0.1339 C   0  0  0  0  0  0  0  0  0  0  0  0
    2.0583   -0.3431    0.7086 C   0  0  0  0  0  0  0  0  0  0  0  0
    2.8468    0.4514   -0.2949 C   0  0  0  0  0  0  0  0  0  0  0  0
    3.2098    1.7170   -0.0676 C   0  0  0  0  0  0  0  0  0  0  0  0
    0.5463   -1.9114   -0.5609 C   0  0  0  0  0  0  0  0  0  0  0  0
   -0.6919   -2.2316   -1.1208 C   0  0  0  0  0  0  0  0  0  0  0  0
   -1.7712   -1.3460   -1.0028 C   0  0  0  0  0  0  0  0  0  0  0  0
   -3.0071   -1.6670   -1.5617 O   0  0  0  0  0  0  0  0  0  0  0  0
   -3.7010    2.4636    0.3418 H   0  0  0  0  0  0  0  0  0  0  0  0
   -2.4520    1.8676    1.4983 H   0  0  0  0  0  0  0  0  0  0  0  0
   -1.9548    2.6683   -0.0598 H   0  0  0  0  0  0  0  0  0  0  0  0
   -0.2156    1.1260    0.7609 H   0  0  0  0  0  0  0  0  0  0  0  0
    1.9194    0.2247    1.6555 H   0  0  0  0  0  0  0  0  0  0  0  0
    2.6293   -1.2613    0.9652 H   0  0  0  0  0  0  0  0  0  0  0  0
    3.1246   -0.0180   -1.2342 H   0  0  0  0  0  0  0  0  0  0  0  0
    2.9457    2.2209    0.8571 H   0  0  0  0  0  0  0  0  0  0  0  0
    3.7767    2.2606   -0.8164 H   0  0  0  0  0  0  0  0  0  0  0  0
    1.3723   -2.6033   -0.6696 H   0  0  0  0  0  0  0  0  0  0  0  0
   -0.8114   -3.1683   -1.6502 H   0  0  0  0  0  0  0  0  0  0  0  0
   -3.1542   -2.5374   -2.0594 H   0  0  0  0  0  0  0  0  0  0  0  0
  1  2  1  0
  2  3  1  0
  3  4  2  0
  4  5  1  0
  5  6  1  0
  6  7  1  0
  7  8  2  3
  5  9  2  0
  9 10  1  0
 10 11  2  0
 11  3  1  0
 11 12  1  0
  1 13  1  0
  1 14  1  0
  1 15  1  0
  4 16  1  0
  6 17  1  0
  6 18  1  0
  7 19  1  0
  8 20  1  0
  8 21  1  0
  9 22  1  0
 10 23  1  0
 12 24  1  0
M  END
> <ID>
HT2690

> <Class>
0.0

> <Clusters>
254

> <Fold>
3

$$$$