
     RDKit          3D

 48 53  0  0  0  0  0  0  0  0999 V2000
   -5.1722    0.3452    1.8510 O   0  0  0  0  0  0  0  0  0  0  0  0
   -3.9193    0.7631    1.4112 C   0  0  0  0  0  0  0  0  0  0  0  0
   -3.5884    2.1320    1.3203 C   0  0  0  0  0  0  0  0  0  0  0  0
   -2.3458    2.5275    0.7775 C   0  0  0  0  0  0  0  0  0  0  0  0
   -1.4028    1.5548    0.3945 C   0  0  0  0  0  0  0  0  0  0  0  0
   -0.1906    1.8998   -0.4407 C   0  0  0  0  0  0  0  0  0  0  0  0
    0.6913    0.6620   -0.8116 C   0  0  0  0  0  0  0  0  0  0  0  0
    1.6918    0.4357    0.2706 N   0  0  0  0  0  0  0  0  0  0  0  0
    2.9068   -0.2893   -0.1586 C   0  0  0  0  0  0  0  0  0  0  0  0
    4.1311    0.3105    0.5462 C   0  0  0  0  0  0  0  0  0  0  0  0
    5.4300    0.2958   -0.2472 C   0  0  0  0  0  0  0  0  0  0  0  0
    4.6565    1.5960   -0.0788 C   0  0  0  0  0  0  0  0  0  0  0  0
    1.1227   -0.0948    1.5353 C   0  0  0  0  0  0  0  0  0  0  0  0
    0.1333   -1.2620    1.3271 C   0  0  0  0  0  0  0  0  0  0  0  0
   -0.9001   -0.9611    0.2137 C   0  0  1  0  0  0  0  0  0  0  0  0
   -2.0061   -2.0737    0.1321 C   0  0  1  0  0  0  0  0  0  0  0  0
   -3.1348   -1.5247    0.8255 O   0  0  0  0  0  0  0  0  0  0  0  0
   -2.9619   -0.1686    1.0129 C   0  0  0  0  0  0  0  0  0  0  0  0
   -1.7178    0.2172    0.6246 C   0  0  0  0  0  0  0  0  0  0  0  0
   -2.4444   -2.4284   -1.2760 C   0  0  0  0  0  0  0  0  0  0  0  0
   -3.2425   -3.3438   -1.4108 O   0  0  0  0  0  0  0  0  0  0  0  0
   -1.9562   -1.7233   -2.5260 C   0  0  0  0  0  0  0  0  0  0  0  0
   -1.1440   -0.4483   -2.2614 C   0  0  0  0  0  0  0  0  0  0  0  0
   -0.1423   -0.6374   -1.0992 C   0  0  1  0  0  0  0  0  0  0  0  0
    0.7590   -1.6669   -1.4532 O   0  0  0  0  0  0  0  0  0  0  0  0
   -5.8767    1.0089    2.1414 H   0  0  0  0  0  0  0  0  0  0  0  0
   -4.3113    2.8856    1.6028 H   0  0  0  0  0  0  0  0  0  0  0  0
   -2.1405    3.5778    0.6151 H   0  0  0  0  0  0  0  0  0  0  0  0
   -0.5476    2.3753   -1.3802 H   0  0  0  0  0  0  0  0  0  0  0  0
    0.4227    2.6571    0.0947 H   0  0  0  0  0  0  0  0  0  0  0  0
    1.2260    0.9450   -1.7473 H   0  0  0  0  0  0  0  0  0  0  0  0
    2.8437   -1.3666    0.1063 H   0  0  0  0  0  0  0  0  0  0  0  0
    3.0382   -0.2429   -1.2625 H   0  0  0  0  0  0  0  0  0  0  0  0
    4.2233    0.2667    1.6522 H   0  0  0  0  0  0  0  0  0  0  0  0
    5.3795   -0.1315   -1.2726 H   0  0  0  0  0  0  0  0  0  0  0  0
    6.3461    0.2353    0.3753 H   0  0  0  0  0  0  0  0  0  0  0  0
    4.1410    1.9400   -1.0019 H   0  0  0  0  0  0  0  0  0  0  0  0
    5.1220    2.2985    0.6416 H   0  0  0  0  0  0  0  0  0  0  0  0
    0.6097    0.7307    2.0713 H   0  0  0  0  0  0  0  0  0  0  0  0
    1.9304   -0.4282    2.2227 H   0  0  0  0  0  0  0  0  0  0  0  0
   -0.3887   -1.4585    2.2872 H   0  0  0  0  0  0  0  0  0  0  0  0
    0.7021   -2.1816    1.0782 H   0  0  0  0  0  0  0  0  0  0  0  0
   -1.6683   -2.9998    0.6456 H   0  0  0  0  0  0  0  0  0  0  0  0
   -1.3398   -2.4381   -3.1156 H   0  0  0  0  0  0  0  0  0  0  0  0
   -2.8345   -1.4519   -3.1525 H   0  0  0  0  0  0  0  0  0  0  0  0
   -1.8540    0.3806   -2.0537 H   0  0  0  0  0  0  0  0  0  0  0  0
   -0.5915   -0.1753   -3.1880 H   0  0  0  0  0  0  0  0  0  0  0  0
    0.3151   -2.5445   -1.3345 H   0  0  0  0  0  0  0  0  0  0  0  0
  1  2  1  0
  2  3  2  0
  3  4  1  0
  4  5  2  0
  5  6  1  0
  6  7  1  0
  7  8  1  0
  8  9  1  0
  9 10  1  0
 10 11  1  0
 11 12  1  0
 12 10  1  0
  8 13  1  0
 13 14  1  0
 15 14  1  1
 15 16  1  0
 16 17  1  0
 17 18  1  0
 18  2  1  0
 18 19  2  0
 19  5  1  0
 19 15  1  0
 16 20  1  0
 20 21  2  0
 20 22  1  0
 22 23  1  0
 23 24  1  0
 24  7  1  0
 24 15  1  0
 24 25  1  6
  1 26  1  0
  3 27  1  0
  4 28  1  0
  6 29  1  0
  6 30  1  0
  7 31  1  0
  9 32  1  0
  9 33  1  0
 10 34  1  0
 11 35  1  0
 11 36  1  0
 12 37  1  0
 12 38  1  0
 13 39  1  0
 13 40  1  0
 14 41  1  0
 14 42  1  0
 16 43  1  1
 22 44  1  0
 22 45  1  0
 23 46  1  0
 23 47  1  0
 25 48  1  0
M  END
> <ID>
HT1460

> <Class>
0.0

> <Clusters>
175

> <Fold>
3

$$$$