
     RDKit          3D

 19 19  0  0  0  0  0  0  0  0999 V2000
    2.8395    0.3198   -0.0522 C   0  0  0  0  0  0  0  0  0  0  0  0
    1.4257    0.1038    0.2267 N   0  0  0  0  0  0  0  0  0  0  0  0
    0.8313   -0.2386    1.4636 C   0  0  0  0  0  0  0  0  0  0  0  0
    1.4796   -0.4077    2.5294 O   0  0  0  0  0  0  0  0  0  0  0  0
   -0.5488   -0.3684    1.3745 O   0  0  0  0  0  0  0  0  0  0  0  0
   -0.9751   -0.1130    0.0321 C   0  0  0  0  0  0  0  0  0  0  0  0
   -1.9114    1.0986    0.0005 C   0  0  0  0  0  0  0  0  0  0  0  0
   -1.6446   -1.3605   -0.5520 C   0  0  0  0  0  0  0  0  0  0  0  0
    0.3257    0.1852   -0.6671 C   0  0  0  0  0  0  0  0  0  0  0  0
    0.4404    0.4722   -1.8890 O   0  0  0  0  0  0  0  0  0  0  0  0
    2.9896    0.5764   -1.1218 H   0  0  0  0  0  0  0  0  0  0  0  0
    3.2190    1.1531    0.5752 H   0  0  0  0  0  0  0  0  0  0  0  0
    3.4096   -0.6036    0.1804 H   0  0  0  0  0  0  0  0  0  0  0  0
   -2.2062    1.3357   -1.0443 H   0  0  0  0  0  0  0  0  0  0  0  0
   -1.4075    1.9865    0.4397 H   0  0  0  0  0  0  0  0  0  0  0  0
   -2.8277    0.8884    0.5923 H   0  0  0  0  0  0  0  0  0  0  0  0
   -2.5563   -1.6125    0.0304 H   0  0  0  0  0  0  0  0  0  0  0  0
   -1.9324   -1.1881   -1.6113 H   0  0  0  0  0  0  0  0  0  0  0  0
   -0.9503   -2.2272   -0.5070 H   0  0  0  0  0  0  0  0  0  0  0  0
  1  2  1  0
  2  3  1  0
  3  4  2  0
  3  5  1  0
  5  6  1  0
  6  7  1  0
  6  8  1  0
  6  9  1  0
  9  2  1  0
  9 10  2  0
  1 11  1  0
  1 12  1  0
  1 13  1  0
  7 14  1  0
  7 15  1  0
  7 16  1  0
  8 17  1  0
  8 18  1  0
  8 19  1  0
M  END
> <ID>
HT2124

> <Class>
0.0

> <Clusters>
235

> <Fold>
3

$$$$