
     RDKit          3D

 86 92  0  0  0  0  0  0  0  0999 V2000
   -6.5852    1.4090    2.5527 C   0  0  0  0  0  0  0  0  0  0  0  0
   -5.3992    1.8260    1.8837 O   0  0  0  0  0  0  0  0  0  0  0  0
   -4.6725    1.0365    0.9753 C   0  0  0  0  0  0  0  0  0  0  0  0
   -5.0790   -0.2641    0.6266 C   0  0  0  0  0  0  0  0  0  0  0  0
   -4.3289   -1.0315   -0.2731 C   0  0  0  0  0  0  0  0  0  0  0  0
   -4.9006   -2.3306   -0.7842 C   0  0  0  0  0  0  0  0  0  0  0  0
   -4.1718   -2.9652   -2.0076 C   0  0  0  0  0  0  0  0  0  0  0  0
   -3.0901   -2.1320   -2.6242 N   0  0  0  0  0  0  0  0  0  0  0  0
   -3.7094   -1.1029   -3.5127 C   0  0  0  0  0  0  0  0  0  0  0  0
   -2.2553   -2.9958   -3.5011 C   0  0  0  0  0  0  0  0  0  0  0  0
   -2.2377   -1.4624   -1.5806 C   0  0  0  0  0  0  0  0  0  0  0  0
   -1.4140   -2.4805   -0.7091 C   0  0  0  0  0  0  0  0  0  0  0  0
   -1.0117   -2.0162    0.6788 C   0  0  0  0  0  0  0  0  0  0  0  0
   -1.9077   -2.1806    1.7453 C   0  0  0  0  0  0  0  0  0  0  0  0
   -1.5021   -1.9560    3.0583 C   0  0  0  0  0  0  0  0  0  0  0  0
   -0.1794   -1.5941    3.3317 C   0  0  0  0  0  0  0  0  0  0  0  0
    0.2318   -1.3941    4.6472 O   0  0  0  0  0  0  0  0  0  0  0  0
    0.7377   -1.4300    2.2885 C   0  0  0  0  0  0  0  0  0  0  0  0
    2.0636   -1.1006    2.6292 O   0  0  0  0  0  0  0  0  0  0  0  0
    3.0301   -0.6628    1.7221 C   0  0  0  0  0  0  0  0  0  0  0  0
    3.3941    0.6852    1.7529 C   0  0  0  0  0  0  0  0  0  0  0  0
    4.1996    1.2292    0.7422 C   0  0  0  0  0  0  0  0  0  0  0  0
    4.4033    2.7413    0.5821 C   0  0  0  0  0  0  0  0  0  0  0  0
    3.1663    3.5746    1.0409 C   0  0  0  0  0  0  0  0  0  0  0  0
    1.8527    3.0716    0.4820 C   0  0  0  0  0  0  0  0  0  0  0  0
    0.8615    2.5668    1.3430 C   0  0  0  0  0  0  0  0  0  0  0  0
   -0.2827    1.9584    0.8232 C   0  0  0  0  0  0  0  0  0  0  0  0
   -0.4932    1.9181   -0.5653 C   0  0  0  0  0  0  0  0  0  0  0  0
   -1.6231    1.3300   -1.1477 O   0  0  0  0  0  0  0  0  0  0  0  0
   -2.7288    0.7914   -0.4711 C   0  0  0  0  0  0  0  0  0  0  0  0
   -3.5325    1.5882    0.3748 C   0  0  0  0  0  0  0  0  0  0  0  0
   -3.2538    2.9388    0.5974 O   0  0  0  0  0  0  0  0  0  0  0  0
   -3.0954   -0.5486   -0.7256 C   0  0  0  0  0  0  0  0  0  0  0  0
    0.4625    2.4861   -1.4196 C   0  0  0  0  0  0  0  0  0  0  0  0
    1.6219    3.0641   -0.9030 C   0  0  0  0  0  0  0  0  0  0  0  0
    4.7665    3.1527   -0.8103 N   0  0  0  0  0  0  0  0  0  0  0  0
    5.6880    4.3071   -0.8301 C   0  0  0  0  0  0  0  0  0  0  0  0
    5.1806    2.0929   -1.7671 C   0  0  0  0  0  0  0  0  0  0  0  0
    5.8566    0.9214   -1.0750 C   0  0  0  0  0  0  0  0  0  0  0  0
    4.8819    0.3437   -0.1100 C   0  0  0  0  0  0  0  0  0  0  0  0
    4.5926   -1.0339   -0.0927 C   0  0  0  0  0  0  0  0  0  0  0  0
    3.6325   -1.5418    0.8053 C   0  0  0  0  0  0  0  0  0  0  0  0
    3.2553   -2.8958    0.8159 O   0  0  0  0  0  0  0  0  0  0  0  0
    3.6884   -3.8568   -0.1452 C   0  0  0  0  0  0  0  0  0  0  0  0
    0.3077   -1.6048    0.9530 C   0  0  0  0  0  0  0  0  0  0  0  0
   -6.3825    0.4998    3.1580 H   0  0  0  0  0  0  0  0  0  0  0  0
   -7.3858    1.2125    1.8086 H   0  0  0  0  0  0  0  0  0  0  0  0
   -6.9303    2.2157    3.2345 H   0  0  0  0  0  0  0  0  0  0  0  0
   -5.9959   -0.6739    1.0232 H   0  0  0  0  0  0  0  0  0  0  0  0
   -5.9636   -2.1517   -1.0729 H   0  0  0  0  0  0  0  0  0  0  0  0
   -4.9155   -3.0644    0.0513 H   0  0  0  0  0  0  0  0  0  0  0  0
   -4.9399   -3.2212   -2.7734 H   0  0  0  0  0  0  0  0  0  0  0  0
   -3.7811   -3.9622   -1.6858 H   0  0  0  0  0  0  0  0  0  0  0  0
   -2.9375   -0.4271   -3.9334 H   0  0  0  0  0  0  0  0  0  0  0  0
   -4.2621   -1.5671   -4.3609 H   0  0  0  0  0  0  0  0  0  0  0  0
   -4.4527   -0.4777   -2.9768 H   0  0  0  0  0  0  0  0  0  0  0  0
   -2.8550   -3.4058   -4.3479 H   0  0  0  0  0  0  0  0  0  0  0  0
   -1.8365   -3.8704   -2.9539 H   0  0  0  0  0  0  0  0  0  0  0  0
   -1.4042   -2.4163   -3.9187 H   0  0  0  0  0  0  0  0  0  0  0  0
   -1.4734   -0.8417   -2.0992 H   0  0  0  0  0  0  0  0  0  0  0  0
   -0.4936   -2.7596   -1.2712 H   0  0  0  0  0  0  0  0  0  0  0  0
   -1.9559   -3.4383   -0.5748 H   0  0  0  0  0  0  0  0  0  0  0  0
   -2.9148   -2.5309    1.5707 H   0  0  0  0  0  0  0  0  0  0  0  0
   -2.2153   -2.0728    3.8625 H   0  0  0  0  0  0  0  0  0  0  0  0
   -0.3999   -1.5412    5.4283 H   0  0  0  0  0  0  0  0  0  0  0  0
    2.9836    1.3138    2.5238 H   0  0  0  0  0  0  0  0  0  0  0  0
    5.2372    2.9968    1.2753 H   0  0  0  0  0  0  0  0  0  0  0  0
    3.1338    3.5741    2.1490 H   0  0  0  0  0  0  0  0  0  0  0  0
    3.2768    4.6411    0.7570 H   0  0  0  0  0  0  0  0  0  0  0  0
    0.9962    2.5869    2.4177 H   0  0  0  0  0  0  0  0  0  0  0  0
   -0.9928    1.5052    1.5024 H   0  0  0  0  0  0  0  0  0  0  0  0
   -2.5475    3.4497    0.0857 H   0  0  0  0  0  0  0  0  0  0  0  0
    0.3096    2.4728   -2.4917 H   0  0  0  0  0  0  0  0  0  0  0  0
    2.3424    3.4812   -1.5879 H   0  0  0  0  0  0  0  0  0  0  0  0
    6.6548    4.0637   -0.3311 H   0  0  0  0  0  0  0  0  0  0  0  0
    5.8840    4.6381   -1.8803 H   0  0  0  0  0  0  0  0  0  0  0  0
    5.2221    5.1800   -0.3174 H   0  0  0  0  0  0  0  0  0  0  0  0
    5.8728    2.4800   -2.5527 H   0  0  0  0  0  0  0  0  0  0  0  0
    4.2735    1.7268   -2.3030 H   0  0  0  0  0  0  0  0  0  0  0  0
    6.1781    0.1709   -1.8256 H   0  0  0  0  0  0  0  0  0  0  0  0
    6.7595    1.2803   -0.5334 H   0  0  0  0  0  0  0  0  0  0  0  0
    5.0972   -1.6930   -0.7839 H   0  0  0  0  0  0  0  0  0  0  0  0
    3.4157   -3.5311   -1.1719 H   0  0  0  0  0  0  0  0  0  0  0  0
    4.7921   -4.0009   -0.0713 H   0  0  0  0  0  0  0  0  0  0  0  0
    3.1861   -4.8269    0.0446 H   0  0  0  0  0  0  0  0  0  0  0  0
    0.9989   -1.4677    0.1350 H   0  0  0  0  0  0  0  0  0  0  0  0
  1  2  1  0
  2  3  1  0
  3  4  2  0
  4  5  1  0
  5  6  1  0
  6  7  1  0
  7  8  1  0
  8  9  1  0
  8 10  1  0
  8 11  1  0
 11 12  1  0
 12 13  1  0
 13 14  2  0
 14 15  1  0
 15 16  2  0
 16 17  1  0
 16 18  1  0
 18 19  1  0
 19 20  1  0
 20 21  2  0
 21 22  1  0
 22 23  1  0
 23 24  1  0
 24 25  1  0
 25 26  2  0
 26 27  1  0
 27 28  2  0
 28 29  1  0
 29 30  1  0
 30 31  2  0
 31  3  1  0
 31 32  1  0
 30 33  1  0
 33  5  2  0
 33 11  1  0
 28 34  1  0
 34 35  2  0
 35 25  1  0
 23 36  1  0
 36 37  1  0
 36 38  1  0
 38 39  1  0
 39 40  1  0
 40 22  2  0
 40 41  1  0
 41 42  2  0
 42 20  1  0
 42 43  1  0
 43 44  1  0
 18 45  2  0
 45 13  1  0
  1 46  1  0
  1 47  1  0
  1 48  1  0
  4 49  1  0
  6 50  1  0
  6 51  1  0
  7 52  1  0
  7 53  1  0
  9 54  1  0
  9 55  1  0
  9 56  1  0
 10 57  1  0
 10 58  1  0
 10 59  1  0
 11 60  1  0
 12 61  1  0
 12 62  1  0
 14 63  1  0
 15 64  1  0
 17 65  1  0
 21 66  1  0
 23 67  1  0
 24 68  1  0
 24 69  1  0
 26 70  1  0
 27 71  1  0
 32 72  1  0
 34 73  1  0
 35 74  1  0
 37 75  1  0
 37 76  1  0
 37 77  1  0
 38 78  1  0
 38 79  1  0
 39 80  1  0
 39 81  1  0
 41 82  1  0
 44 83  1  0
 44 84  1  0
 44 85  1  0
 45 86  1  0
M  CHG  1   8   1
M  END
> <ID>
HT2145

> <Class>
0.0

> <Clusters>
279

> <Fold>
3

$$$$