
     RDKit          3D

 18 18  0  0  0  0  0  0  0  0999 V2000
   -3.1103   -0.9093   -0.3362 O   0  0  0  0  0  0  0  0  0  0  0  0
   -2.3804    0.2669   -0.4748 C   0  0  0  0  0  0  0  0  0  0  0  0
   -2.4390    0.9226   -1.5491 O   0  0  0  0  0  0  0  0  0  0  0  0
   -1.4903    0.7282    0.6356 C   0  0  0  0  0  0  0  0  0  0  0  0
   -0.1046    0.3160    0.3796 N   0  0  0  0  0  0  0  0  0  0  0  0
    0.2511   -0.9933    0.5527 C   0  0  0  0  0  0  0  0  0  0  0  0
    1.5618   -1.4140    0.3116 C   0  0  0  0  0  0  0  0  0  0  0  0
    2.0671   -3.4491    0.5916 I   0  0  0  0  0  0  0  0  0  0  0  0
    2.5134   -0.4803   -0.1113 C   0  0  0  0  0  0  0  0  0  0  0  0
    3.6999   -0.8411   -0.3338 O   0  0  0  0  0  0  0  0  0  0  0  0
    2.1399    0.8563   -0.2865 C   0  0  0  0  0  0  0  0  0  0  0  0
    0.8186    1.2363   -0.0346 C   0  0  0  0  0  0  0  0  0  0  0  0
    3.5348    2.3119   -0.9278 I   0  0  0  0  0  0  0  0  0  0  0  0
   -3.7043   -1.2432   -1.0857 H   0  0  0  0  0  0  0  0  0  0  0  0
   -1.8394    0.3050    1.6030 H   0  0  0  0  0  0  0  0  0  0  0  0
   -1.5698    1.8345    0.7236 H   0  0  0  0  0  0  0  0  0  0  0  0
   -0.4838   -1.7196    0.8797 H   0  0  0  0  0  0  0  0  0  0  0  0
    0.5351    2.2722   -0.1777 H   0  0  0  0  0  0  0  0  0  0  0  0
  1  2  1  0
  2  3  2  0
  2  4  1  0
  4  5  1  0
  5  6  1  0
  6  7  2  0
  7  8  1  0
  7  9  1  0
  9 10  2  0
  9 11  1  0
 11 12  2  0
 12  5  1  0
 11 13  1  0
  1 14  1  0
  4 15  1  0
  4 16  1  0
  6 17  1  0
 12 18  1  0
M  END
> <ID>
HT3774

> <Class>
0.0

> <Clusters>
274

> <Fold>
3

$$$$