
     RDKit          3D

 30 32  0  0  0  0  0  0  0  0999 V2000
   -2.2395   -2.4587    0.1942 C   0  0  0  0  0  0  0  0  0  0  0  0
   -1.8733   -1.6452   -1.0455 C   0  0  0  0  0  0  0  0  0  0  0  0
   -1.2423   -0.3639   -0.6656 N   0  0  0  0  0  0  0  0  0  0  0  0
   -2.0373    0.7507   -0.6727 C   0  0  0  0  0  0  0  0  0  0  0  0
   -1.5443    2.0195   -0.3312 C   0  0  0  0  0  0  0  0  0  0  0  0
   -2.4605    3.1938   -0.3575 C   0  0  0  0  0  0  0  0  0  0  0  0
   -3.6684    3.0502   -0.6906 O   0  0  0  0  0  0  0  0  0  0  0  0
   -2.0051    4.4650   -0.0170 O   0  0  0  0  0  0  0  0  0  0  0  0
   -0.1912    2.1420    0.0288 C   0  0  0  0  0  0  0  0  0  0  0  0
    0.2841    3.2695    0.3394 O   0  0  0  0  0  0  0  0  0  0  0  0
    0.6372    1.0076    0.0445 C   0  0  0  0  0  0  0  0  0  0  0  0
    2.0028    1.1197    0.4081 C   0  0  0  0  0  0  0  0  0  0  0  0
    2.7797   -0.0286    0.4096 C   0  0  0  0  0  0  0  0  0  0  0  0
    4.1183   -0.1585    0.7265 O   0  0  0  0  0  0  0  0  0  0  0  0
    4.4742   -1.5401    0.5834 C   0  0  0  0  0  0  0  0  0  0  0  0
    3.2672   -2.1930    0.1675 O   0  0  0  0  0  0  0  0  0  0  0  0
    2.2738   -1.2367    0.0772 C   0  0  0  0  0  0  0  0  0  0  0  0
    0.9450   -1.4080   -0.2878 C   0  0  0  0  0  0  0  0  0  0  0  0
    0.0887   -0.2693   -0.3109 C   0  0  0  0  0  0  0  0  0  0  0  0
   -1.3416   -2.6803    0.8062 H   0  0  0  0  0  0  0  0  0  0  0  0
   -2.9654   -1.8924    0.8154 H   0  0  0  0  0  0  0  0  0  0  0  0
   -2.7055   -3.4182   -0.1141 H   0  0  0  0  0  0  0  0  0  0  0  0
   -1.2190   -2.2263   -1.7281 H   0  0  0  0  0  0  0  0  0  0  0  0
   -2.8061   -1.4739   -1.6281 H   0  0  0  0  0  0  0  0  0  0  0  0
   -3.0835    0.6563   -0.9416 H   0  0  0  0  0  0  0  0  0  0  0  0
   -2.6280    5.2637   -0.0347 H   0  0  0  0  0  0  0  0  0  0  0  0
    2.4505    2.0668    0.6821 H   0  0  0  0  0  0  0  0  0  0  0  0
    4.8168   -1.9513    1.5560 H   0  0  0  0  0  0  0  0  0  0  0  0
    5.2596   -1.6560   -0.1926 H   0  0  0  0  0  0  0  0  0  0  0  0
    0.6131   -2.4044   -0.5352 H   0  0  0  0  0  0  0  0  0  0  0  0
  1  2  1  0
  2  3  1  0
  3  4  1  0
  4  5  2  0
  5  6  1  0
  6  7  2  0
  6  8  1  0
  5  9  1  0
  9 10  2  0
  9 11  1  0
 11 12  2  0
 12 13  1  0
 13 14  1  0
 14 15  1  0
 15 16  1  0
 16 17  1  0
 17 13  2  0
 17 18  1  0
 18 19  2  0
 19  3  1  0
 19 11  1  0
  1 20  1  0
  1 21  1  0
  1 22  1  0
  2 23  1  0
  2 24  1  0
  4 25  1  0
  8 26  1  0
 12 27  1  0
 15 28  1  0
 15 29  1  0
 18 30  1  0
M  END
> <ID>
HT3150

> <Class>
0.0

> <Clusters>
261

> <Fold>
3

$$$$