
     RDKit          3D

 35 36  0  0  0  0  0  0  0  0999 V2000
    2.0952    1.1537    4.9087 N   0  0  0  0  0  0  0  0  0  0  0  0
    0.9504    1.2931    4.0681 C   0  0  0  0  0  0  0  0  0  0  0  0
    0.0346    2.0930    4.3996 O   0  0  0  0  0  0  0  0  0  0  0  0
    0.8559    0.5273    2.8571 N   0  0  0  0  0  0  0  0  0  0  0  0
   -0.2531    0.5990    1.9455 C   0  0  0  0  0  0  0  0  0  0  0  0
   -1.2583    1.3129    2.2101 O   0  0  0  0  0  0  0  0  0  0  0  0
   -0.2430   -0.2101    0.6810 C   0  0  0  0  0  0  0  0  0  0  0  0
   -1.1347   -1.3106    0.8436 O   0  0  0  0  0  0  0  0  0  0  0  0
   -1.3285   -2.3324   -0.0993 C   0  0  0  0  0  0  0  0  0  0  0  0
   -0.6086   -2.3956   -1.3097 C   0  0  0  0  0  0  0  0  0  0  0  0
   -0.8439   -3.4353   -2.2148 C   0  0  0  0  0  0  0  0  0  0  0  0
   -1.7927   -4.4199   -1.9227 C   0  0  0  0  0  0  0  0  0  0  0  0
   -2.0853   -5.7230   -3.0599 Cl  0  0  0  0  0  0  0  0  0  0  0  0
   -2.5077   -4.3640   -0.7225 C   0  0  0  0  0  0  0  0  0  0  0  0
   -2.2753   -3.3251    0.1838 C   0  0  0  0  0  0  0  0  0  0  0  0
   -0.6787    0.5923   -0.4191 O   0  0  0  0  0  0  0  0  0  0  0  0
    0.0557    1.6364   -1.0042 C   0  0  0  0  0  0  0  0  0  0  0  0
    1.3493    1.9930   -0.5726 C   0  0  0  0  0  0  0  0  0  0  0  0
    2.0337    3.0429   -1.1930 C   0  0  0  0  0  0  0  0  0  0  0  0
    1.4396    3.7426   -2.2477 C   0  0  0  0  0  0  0  0  0  0  0  0
    2.3013    5.0578   -3.0252 Cl  0  0  0  0  0  0  0  0  0  0  0  0
    0.1578    3.3918   -2.6818 C   0  0  0  0  0  0  0  0  0  0  0  0
   -0.5293    2.3439   -2.0619 C   0  0  0  0  0  0  0  0  0  0  0  0
    2.1719    1.7062    5.7916 H   0  0  0  0  0  0  0  0  0  0  0  0
    2.8667    0.4989    4.6523 H   0  0  0  0  0  0  0  0  0  0  0  0
    1.6466   -0.1147    2.6250 H   0  0  0  0  0  0  0  0  0  0  0  0
    0.7781   -0.6043    0.4851 H   0  0  0  0  0  0  0  0  0  0  0  0
    0.1334   -1.6505   -1.5608 H   0  0  0  0  0  0  0  0  0  0  0  0
   -0.2871   -3.4749   -3.1424 H   0  0  0  0  0  0  0  0  0  0  0  0
   -3.2426   -5.1242   -0.4905 H   0  0  0  0  0  0  0  0  0  0  0  0
   -2.8338   -3.2899    1.1106 H   0  0  0  0  0  0  0  0  0  0  0  0
    1.8352    1.4696    0.2383 H   0  0  0  0  0  0  0  0  0  0  0  0
    3.0256    3.3116   -0.8530 H   0  0  0  0  0  0  0  0  0  0  0  0
   -0.3066    3.9288   -3.4988 H   0  0  0  0  0  0  0  0  0  0  0  0
   -1.5218    2.0796   -2.4045 H   0  0  0  0  0  0  0  0  0  0  0  0
  1  2  1  0
  2  3  2  0
  2  4  1  0
  4  5  1  0
  5  6  2  0
  5  7  1  0
  7  8  1  0
  8  9  1  0
  9 10  2  0
 10 11  1  0
 11 12  2  0
 12 13  1  0
 12 14  1  0
 14 15  2  0
 15  9  1  0
  7 16  1  0
 16 17  1  0
 17 18  2  0
 18 19  1  0
 19 20  2  0
 20 21  1  0
 20 22  1  0
 22 23  2  0
 23 17  1  0
  1 24  1  0
  1 25  1  0
  4 26  1  0
  7 27  1  0
 10 28  1  0
 11 29  1  0
 14 30  1  0
 15 31  1  0
 18 32  1  0
 19 33  1  0
 22 34  1  0
 23 35  1  0
M  END
> <ID>
HT2155

> <Class>
0.0

> <Clusters>
37

> <Fold>
3

$$$$