
     RDKit          3D

 12 12  0  0  0  0  0  0  0  0999 V2000
   -1.9920   -0.4532   -0.0182 C   0  0  0  0  0  0  0  0  0  0  0  0
   -0.5474   -0.2569   -0.0349 N   0  0  0  0  0  0  0  0  0  0  0  0
    0.5785   -1.4357   -0.3484 S   0  0  0  0  0  0  0  0  0  0  0  0
    1.9628   -0.5120   -0.1983 C   0  0  0  0  0  0  0  0  0  0  0  0
    1.5467    0.7792    0.1106 C   0  0  0  0  0  0  0  0  0  0  0  0
    0.1439    0.8906    0.1949 C   0  0  0  0  0  0  0  0  0  0  0  0
   -0.4287    1.9799    0.4648 O   0  0  0  0  0  0  0  0  0  0  0  0
    3.6104   -1.0710   -0.3939 Cl  0  0  0  0  0  0  0  0  0  0  0  0
   -2.2542   -1.2099    0.7502 H   0  0  0  0  0  0  0  0  0  0  0  0
   -2.5189    0.4952    0.2179 H   0  0  0  0  0  0  0  0  0  0  0  0
   -2.3286   -0.8120   -1.0131 H   0  0  0  0  0  0  0  0  0  0  0  0
    2.2275    1.6057    0.2684 H   0  0  0  0  0  0  0  0  0  0  0  0
  1  2  1  0
  2  3  1  0
  3  4  1  0
  4  5  2  0
  5  6  1  0
  6  2  1  0
  6  7  2  0
  4  8  1  0
  1  9  1  0
  1 10  1  0
  1 11  1  0
  5 12  1  0
M  END
> <ID>
HT2624

> <Class>
0.0

> <Clusters>
247

> <Fold>
3

$$$$