
     RDKit          3D

 39 41  0  0  0  0  0  0  0  0999 V2000
   -5.1361    2.8641   -0.5851 O   0  0  0  0  0  0  0  0  0  0  0  0
   -4.4824    1.7901   -0.5337 C   0  0  0  0  0  0  0  0  0  0  0  0
   -5.0336    0.5290   -0.8216 N   0  0  0  0  0  0  0  0  0  0  0  0
   -3.9901   -0.4597   -0.6039 C   0  0  0  0  0  0  0  0  0  0  0  0
   -2.7068    0.3662   -0.2316 C   0  0  0  0  0  0  0  0  0  0  0  0
   -2.1724   -0.0404    1.1667 C   0  0  0  0  0  0  0  0  0  0  0  0
   -0.6807    0.2925    1.3101 C   0  0  0  0  0  0  0  0  0  0  0  0
    0.1644   -0.4096    0.3050 N   0  0  0  0  0  0  0  0  0  0  0  0
    0.8851   -1.5662    0.8803 C   0  0  0  0  0  0  0  0  0  0  0  0
    2.1529   -1.1105    1.6172 C   0  0  0  0  0  0  0  0  0  0  0  0
    3.0629   -0.3156    0.7146 C   0  0  0  0  0  0  0  0  0  0  0  0
    3.2326    1.0655    0.9130 C   0  0  0  0  0  0  0  0  0  0  0  0
    4.0687    1.8011    0.0674 C   0  0  0  0  0  0  0  0  0  0  0  0
    4.7424    1.1651   -0.9788 C   0  0  0  0  0  0  0  0  0  0  0  0
    4.5818   -0.2083   -1.1809 C   0  0  0  0  0  0  0  0  0  0  0  0
    3.7465   -0.9479   -0.3381 C   0  0  0  0  0  0  0  0  0  0  0  0
   -0.5567   -0.7985   -0.9310 C   0  0  0  0  0  0  0  0  0  0  0  0
   -1.6039    0.2494   -1.3189 C   0  0  0  0  0  0  0  0  0  0  0  0
   -3.1540    1.7220   -0.1874 O   0  0  0  0  0  0  0  0  0  0  0  0
   -6.0273    0.3331   -1.0752 H   0  0  0  0  0  0  0  0  0  0  0  0
   -3.8595   -1.0722   -1.5212 H   0  0  0  0  0  0  0  0  0  0  0  0
   -4.3096   -1.1358    0.2182 H   0  0  0  0  0  0  0  0  0  0  0  0
   -2.2901   -1.1346    1.3289 H   0  0  0  0  0  0  0  0  0  0  0  0
   -2.7508    0.4783    1.9621 H   0  0  0  0  0  0  0  0  0  0  0  0
   -0.3660    0.0646    2.3519 H   0  0  0  0  0  0  0  0  0  0  0  0
   -0.5438    1.3877    1.1800 H   0  0  0  0  0  0  0  0  0  0  0  0
    0.2285   -2.1357    1.5759 H   0  0  0  0  0  0  0  0  0  0  0  0
    1.1969   -2.2778    0.0818 H   0  0  0  0  0  0  0  0  0  0  0  0
    1.8710   -0.5139    2.5107 H   0  0  0  0  0  0  0  0  0  0  0  0
    2.7000   -2.0027    1.9914 H   0  0  0  0  0  0  0  0  0  0  0  0
    2.7123    1.5741    1.7151 H   0  0  0  0  0  0  0  0  0  0  0  0
    4.1931    2.8651    0.2223 H   0  0  0  0  0  0  0  0  0  0  0  0
    5.3889    1.7362   -1.6324 H   0  0  0  0  0  0  0  0  0  0  0  0
    5.1050   -0.7002   -1.9907 H   0  0  0  0  0  0  0  0  0  0  0  0
    3.6330   -2.0119   -0.5044 H   0  0  0  0  0  0  0  0  0  0  0  0
    0.1768   -0.8925   -1.7610 H   0  0  0  0  0  0  0  0  0  0  0  0
   -1.0627   -1.7837   -0.8067 H   0  0  0  0  0  0  0  0  0  0  0  0
   -1.0836    1.2268   -1.4306 H   0  0  0  0  0  0  0  0  0  0  0  0
   -2.0328    0.0068   -2.3150 H   0  0  0  0  0  0  0  0  0  0  0  0
  1  2  2  0
  2  3  1  0
  3  4  1  0
  4  5  1  0
  5  6  1  0
  6  7  1  0
  7  8  1  0
  8  9  1  0
  9 10  1  0
 10 11  1  0
 11 12  2  0
 12 13  1  0
 13 14  2  0
 14 15  1  0
 15 16  2  0
 16 11  1  0
  8 17  1  0
 17 18  1  0
 18  5  1  0
  5 19  1  0
 19  2  1  0
  3 20  1  0
  4 21  1  0
  4 22  1  0
  6 23  1  0
  6 24  1  0
  7 25  1  0
  7 26  1  0
  9 27  1  0
  9 28  1  0
 10 29  1  0
 10 30  1  0
 12 31  1  0
 13 32  1  0
 14 33  1  0
 15 34  1  0
 16 35  1  0
 17 36  1  0
 17 37  1  0
 18 38  1  0
 18 39  1  0
M  END
> <ID>
HT3147

> <Class>
0.0

> <Clusters>
218

> <Fold>
3

$$$$