
     RDKit          3D

 36 37  0  0  0  0  0  0  0  0999 V2000
    6.4588    2.8446    0.3050 O   0  0  0  0  0  0  0  0  0  0  0  0
    6.4313    1.4709    0.5270 C   0  0  0  0  0  0  0  0  0  0  0  0
    7.4460    0.7784    0.2508 O   0  0  0  0  0  0  0  0  0  0  0  0
    5.1918    0.8076    1.0466 C   0  0  0  0  0  0  0  0  0  0  0  0
    4.2190    0.5144   -0.1024 C   0  0  0  0  0  0  0  0  0  0  0  0
    2.9451   -0.1444    0.3560 C   0  0  0  0  0  0  0  0  0  0  0  0
    2.7760   -0.4372    1.5719 O   0  0  0  0  0  0  0  0  0  0  0  0
    1.9405   -0.4739   -0.6158 N   0  0  0  0  0  0  0  0  0  0  0  0
    0.6110   -0.9118   -0.2867 C   0  0  0  0  0  0  0  0  0  0  0  0
   -0.0732   -0.4059    0.8333 C   0  0  0  0  0  0  0  0  0  0  0  0
   -1.3749   -0.8298    1.1160 C   0  0  0  0  0  0  0  0  0  0  0  0
   -2.0161   -1.7491    0.2765 C   0  0  0  0  0  0  0  0  0  0  0  0
   -1.3450   -2.2422   -0.8497 C   0  0  0  0  0  0  0  0  0  0  0  0
   -0.0435   -1.8188   -1.1337 C   0  0  0  0  0  0  0  0  0  0  0  0
   -3.6606   -2.2658    0.6338 S   0  0  0  0  0  0  0  0  0  0  0  0
   -3.6169   -3.3489    1.6742 O   0  0  0  0  0  0  0  0  0  0  0  0
   -4.3277   -2.8005   -0.6027 O   0  0  0  0  0  0  0  0  0  0  0  0
   -4.5822   -0.9276    1.2367 N   0  0  0  0  0  0  0  0  0  0  0  0
   -4.7935    0.2654    0.4755 C   0  0  0  0  0  0  0  0  0  0  0  0
   -5.4819    1.3233    0.9538 N   0  0  0  0  0  0  0  0  0  0  0  0
   -5.5419    2.3349    0.0469 C   0  0  0  0  0  0  0  0  0  0  0  0
   -4.8995    2.0858   -1.1608 C   0  0  0  0  0  0  0  0  0  0  0  0
   -4.2334    0.5430   -1.0886 S   0  0  0  0  0  0  0  0  0  0  0  0
    5.6499    3.4227    0.4993 H   0  0  0  0  0  0  0  0  0  0  0  0
    4.7074    1.4768    1.7906 H   0  0  0  0  0  0  0  0  0  0  0  0
    5.4678   -0.1404    1.5586 H   0  0  0  0  0  0  0  0  0  0  0  0
    4.7139   -0.1522   -0.8418 H   0  0  0  0  0  0  0  0  0  0  0  0
    3.9554    1.4665   -0.6125 H   0  0  0  0  0  0  0  0  0  0  0  0
    2.2213   -0.4718   -1.6227 H   0  0  0  0  0  0  0  0  0  0  0  0
    0.3842    0.3351    1.4749 H   0  0  0  0  0  0  0  0  0  0  0  0
   -1.8871   -0.4319    1.9829 H   0  0  0  0  0  0  0  0  0  0  0  0
   -1.8278   -2.9509   -1.5102 H   0  0  0  0  0  0  0  0  0  0  0  0
    0.4610   -2.2055   -2.0103 H   0  0  0  0  0  0  0  0  0  0  0  0
   -4.9802   -0.9915    2.1998 H   0  0  0  0  0  0  0  0  0  0  0  0
   -6.0547    3.2635    0.2583 H   0  0  0  0  0  0  0  0  0  0  0  0
   -4.8400    2.7670   -1.9988 H   0  0  0  0  0  0  0  0  0  0  0  0
  1  2  1  0
  2  3  2  0
  2  4  1  0
  4  5  1  0
  5  6  1  0
  6  7  2  0
  6  8  1  0
  8  9  1  0
  9 10  2  0
 10 11  1  0
 11 12  2  0
 12 13  1  0
 13 14  2  0
 14  9  1  0
 12 15  1  0
 15 16  2  0
 15 17  2  0
 15 18  1  0
 18 19  1  0
 19 20  2  0
 20 21  1  0
 21 22  2  0
 22 23  1  0
 23 19  1  0
  1 24  1  0
  4 25  1  0
  4 26  1  0
  5 27  1  0
  5 28  1  0
  8 29  1  0
 10 30  1  0
 11 31  1  0
 13 32  1  0
 14 33  1  0
 18 34  1  0
 21 35  1  0
 22 36  1  0
M  END
> <ID>
HT3619

> <Class>
0.0

> <Clusters>
197

> <Fold>
3

$$$$