
     RDKit          3D

 44 46  0  0  0  0  0  0  0  0999 V2000
   -0.1952    3.7720    0.7182 C   0  0  0  0  0  0  0  0  0  0  0  0
    0.4393    2.3892    0.8331 C   0  0  0  0  0  0  0  0  0  0  0  0
    0.1405    1.5277   -0.4138 C   0  0  0  0  0  0  0  0  0  0  0  0
    0.4147    0.0410   -0.2094 C   0  0  0  0  0  0  0  0  0  0  0  0
    1.7820   -0.3288   -0.1331 C   0  0  0  0  0  0  0  0  0  0  0  0
    2.7106    0.6025    0.0852 O   0  0  0  0  0  0  0  0  0  0  0  0
    4.0128    0.3473    0.1809 C   0  0  0  0  0  0  0  0  0  0  0  0
    4.4711   -0.9677    0.0291 C   0  0  0  0  0  0  0  0  0  0  0  0
    3.5477   -1.9791   -0.2280 C   0  0  0  0  0  0  0  0  0  0  0  0
    3.9556   -3.1623   -0.3875 O   0  0  0  0  0  0  0  0  0  0  0  0
    2.1798   -1.6644   -0.3161 C   0  0  0  0  0  0  0  0  0  0  0  0
    1.2300   -2.6221   -0.6609 C   0  0  0  0  0  0  0  0  0  0  0  0
   -0.1310   -2.2913   -0.7360 C   0  0  0  0  0  0  0  0  0  0  0  0
   -1.0504   -3.2512   -1.1807 C   0  0  0  0  0  0  0  0  0  0  0  0
   -0.6727   -4.3930   -1.5632 O   0  0  0  0  0  0  0  0  0  0  0  0
   -2.3955   -2.9453   -1.2203 C   0  0  0  0  0  0  0  0  0  0  0  0
   -2.8537   -1.7400   -0.6961 C   0  0  0  0  0  0  0  0  0  0  0  0
   -1.9651   -0.7880   -0.2202 N   0  0  0  0  0  0  0  0  0  0  0  0
   -2.5086    0.2868    0.6462 C   0  0  0  0  0  0  0  0  0  0  0  0
   -3.3541    1.3076   -0.1333 C   0  0  0  0  0  0  0  0  0  0  0  0
   -0.5894   -0.9870   -0.3772 C   0  0  0  0  0  0  0  0  0  0  0  0
   -4.3228   -1.5793   -0.6460 C   0  0  0  0  0  0  0  0  0  0  0  0
   -4.9227   -1.4981    0.4589 O   0  0  0  0  0  0  0  0  0  0  0  0
   -5.0538   -1.5905   -1.8300 O   0  0  0  0  0  0  0  0  0  0  0  0
    4.9315    1.4778    0.4315 C   0  0  0  0  0  0  0  0  0  0  0  0
    4.5082    2.6536    0.2752 O   0  0  0  0  0  0  0  0  0  0  0  0
    6.2474    1.2936    0.8557 O   0  0  0  0  0  0  0  0  0  0  0  0
    0.1718    4.2891   -0.1941 H   0  0  0  0  0  0  0  0  0  0  0  0
    0.0760    4.3812    1.6062 H   0  0  0  0  0  0  0  0  0  0  0  0
   -1.3003    3.6894    0.6731 H   0  0  0  0  0  0  0  0  0  0  0  0
    1.5328    2.5348    0.9448 H   0  0  0  0  0  0  0  0  0  0  0  0
    0.0823    1.9001    1.7622 H   0  0  0  0  0  0  0  0  0  0  0  0
   -0.8767    1.7041   -0.7891 H   0  0  0  0  0  0  0  0  0  0  0  0
    0.7866    1.8906   -1.2436 H   0  0  0  0  0  0  0  0  0  0  0  0
    5.5237   -1.2114    0.0698 H   0  0  0  0  0  0  0  0  0  0  0  0
    1.5546   -3.6327   -0.8815 H   0  0  0  0  0  0  0  0  0  0  0  0
   -3.0989   -3.6871   -1.5852 H   0  0  0  0  0  0  0  0  0  0  0  0
   -3.1249   -0.1574    1.4561 H   0  0  0  0  0  0  0  0  0  0  0  0
   -1.7183    0.7936    1.2154 H   0  0  0  0  0  0  0  0  0  0  0  0
   -4.4318    1.0525   -0.0758 H   0  0  0  0  0  0  0  0  0  0  0  0
   -3.2325    2.3164    0.3111 H   0  0  0  0  0  0  0  0  0  0  0  0
   -3.0636    1.3434   -1.2040 H   0  0  0  0  0  0  0  0  0  0  0  0
   -6.0632   -1.5053   -1.8184 H   0  0  0  0  0  0  0  0  0  0  0  0
    6.6263    0.3877    1.0966 H   0  0  0  0  0  0  0  0  0  0  0  0
  1  2  1  0
  2  3  1  0
  3  4  1  0
  4  5  2  0
  5  6  1  0
  6  7  1  0
  7  8  2  0
  8  9  1  0
  9 10  2  0
  9 11  1  0
 11  5  1  0
 11 12  2  0
 12 13  1  0
 13 14  1  0
 14 15  2  0
 14 16  1  0
 16 17  2  0
 17 18  1  0
 18 19  1  0
 19 20  1  0
 18 21  1  0
 21  4  1  0
 21 13  2  0
 17 22  1  0
 22 23  2  0
 22 24  1  0
  7 25  1  0
 25 26  2  0
 25 27  1  0
  1 28  1  0
  1 29  1  0
  1 30  1  0
  2 31  1  0
  2 32  1  0
  3 33  1  0
  3 34  1  0
  8 35  1  0
 12 36  1  0
 16 37  1  0
 19 38  1  0
 19 39  1  0
 20 40  1  0
 20 41  1  0
 20 42  1  0
 24 43  1  0
 27 44  1  0
M  END
> <ID>
HT1469

> <Class>
0.0

> <Clusters>
261

> <Fold>
3

$$$$