
     RDKit          3D

 51 55  0  0  0  0  0  0  0  0999 V2000
   -5.9424   -0.3395    0.2634 O   0  0  0  0  0  0  0  0  0  0  0  0
   -4.7441   -0.1714    0.0908 C   0  0  0  0  0  0  0  0  0  0  0  0
   -4.2219    1.2273   -0.1536 C   0  0  0  0  0  0  0  0  0  0  0  0
   -3.8382   -1.3644    0.2093 C   0  0  1  0  0  0  0  0  0  0  0  0
   -3.0064   -1.4900   -0.9256 O   0  0  0  0  0  0  0  0  0  0  0  0
   -2.3761   -1.1201    0.2826 C   0  0  2  0  0  0  0  0  0  0  0  0
   -1.4961   -2.2473    0.8295 C   0  0  0  0  0  0  0  0  0  0  0  0
   -1.8173    0.3324    0.2762 C   0  0  2  0  0  0  0  0  0  0  0  0
   -0.1266   -2.2147    0.1530 C   0  0  0  0  0  0  0  0  0  0  0  0
   -2.7395    1.2559   -0.5796 C   0  0  0  0  0  0  0  0  0  0  0  0
   -0.3704    0.2837   -0.3526 C   0  0  2  0  0  0  0  0  0  0  0  0
   -1.7925    0.8536    1.7366 C   0  0  0  0  0  0  0  0  0  0  0  0
    0.5344   -0.8281    0.2939 C   0  0  2  0  0  0  0  0  0  0  0  0
    0.3439    1.6743   -0.4018 C   0  0  0  0  0  0  0  0  0  0  0  0
    1.9061   -0.8051   -0.4126 C   0  0  1  0  0  0  0  0  0  0  0  0
    1.7761    1.6107   -0.9842 C   0  0  0  0  0  0  0  0  0  0  0  0
    2.6248    0.5414   -0.2651 C   0  0  1  0  0  0  0  0  0  0  0  0
    2.9558   -1.8430   -0.0353 C   0  0  0  0  0  0  0  0  0  0  0  0
    2.8849    0.9647    1.2171 C   0  0  0  0  0  0  0  0  0  0  0  0
    3.9674    0.2176   -0.9543 C   0  0  2  0  0  0  0  0  0  0  0  0
    4.2802   -1.2316   -0.5266 C   0  0  0  0  0  0  0  0  0  0  0  0
    5.0042    1.0858   -0.5746 O   0  0  0  0  0  0  0  0  0  0  0  0
   -5.0350    1.8959   -1.1836 C   0  0  0  0  0  0  0  0  0  0  0  0
   -5.6736    2.4218   -1.9929 N   0  0  0  0  0  0  0  0  0  0  0  0
   -4.3399    1.8061    0.7871 H   0  0  0  0  0  0  0  0  0  0  0  0
   -4.2462   -2.3492    0.5223 H   0  0  0  0  0  0  0  0  0  0  0  0
   -1.9614   -3.2424    0.6539 H   0  0  0  0  0  0  0  0  0  0  0  0
   -1.3769   -2.1186    1.9265 H   0  0  0  0  0  0  0  0  0  0  0  0
    0.5126   -2.9892    0.6288 H   0  0  0  0  0  0  0  0  0  0  0  0
   -0.2402   -2.4781   -0.9222 H   0  0  0  0  0  0  0  0  0  0  0  0
   -2.3956    2.3101   -0.5111 H   0  0  0  0  0  0  0  0  0  0  0  0
   -2.6588    0.9597   -1.6505 H   0  0  0  0  0  0  0  0  0  0  0  0
   -0.5051   -0.0129   -1.4190 H   0  0  0  0  0  0  0  0  0  0  0  0
   -1.0454    0.3232    2.3575 H   0  0  0  0  0  0  0  0  0  0  0  0
   -2.7783    0.7004    2.2243 H   0  0  0  0  0  0  0  0  0  0  0  0
   -1.5695    1.9401    1.7736 H   0  0  0  0  0  0  0  0  0  0  0  0
    0.6817   -0.6448    1.3752 H   0  0  0  0  0  0  0  0  0  0  0  0
   -0.2316    2.3681   -1.0481 H   0  0  0  0  0  0  0  0  0  0  0  0
    0.3811    2.1329    0.6054 H   0  0  0  0  0  0  0  0  0  0  0  0
    1.7009   -0.9775   -1.4989 H   0  0  0  0  0  0  0  0  0  0  0  0
    2.2584    2.6078   -0.8890 H   0  0  0  0  0  0  0  0  0  0  0  0
    1.7090    1.3805   -2.0708 H   0  0  0  0  0  0  0  0  0  0  0  0
    2.7566   -2.8160   -0.5352 H   0  0  0  0  0  0  0  0  0  0  0  0
    2.9784   -1.9959    1.0659 H   0  0  0  0  0  0  0  0  0  0  0  0
    3.5210    0.2284    1.7502 H   0  0  0  0  0  0  0  0  0  0  0  0
    3.4085    1.9438    1.2471 H   0  0  0  0  0  0  0  0  0  0  0  0
    1.9565    1.0863    1.8055 H   0  0  0  0  0  0  0  0  0  0  0  0
    3.8481    0.2378   -2.0643 H   0  0  0  0  0  0  0  0  0  0  0  0
    4.6813   -1.8078   -1.3888 H   0  0  0  0  0  0  0  0  0  0  0  0
    5.0303   -1.2527    0.2945 H   0  0  0  0  0  0  0  0  0  0  0  0
    4.8267    1.9497   -1.0298 H   0  0  0  0  0  0  0  0  0  0  0  0
  1  2  2  0
  2  3  1  0
  4  2  1  0
  4  5  1  0
  4  6  1  0
  6  5  1  6
  6  7  1  0
  8  6  1  0
  9  7  1  0
 10  8  1  0
  8 11  1  0
  8 12  1  1
 13  9  1  0
  3 10  1  0
 11 14  1  0
 11 13  1  0
 13 15  1  0
 16 14  1  0
 15 17  1  0
 15 18  1  0
 17 16  1  0
 17 19  1  1
 20 17  1  0
 18 21  1  0
 21 20  1  0
 20 22  1  0
  3 23  1  0
 23 24  3  0
  3 25  1  0
  4 26  1  1
  7 27  1  0
  7 28  1  0
  9 29  1  0
  9 30  1  0
 10 31  1  0
 10 32  1  0
 11 33  1  6
 12 34  1  0
 12 35  1  0
 12 36  1  0
 13 37  1  1
 14 38  1  0
 14 39  1  0
 15 40  1  6
 16 41  1  0
 16 42  1  0
 18 43  1  0
 18 44  1  0
 19 45  1  0
 19 46  1  0
 19 47  1  0
 20 48  1  6
 21 49  1  0
 21 50  1  0
 22 51  1  0
M  END
> <ID>
HT2122

> <Class>
0.0

> <Clusters>
89

> <Fold>
3

$$$$