
     RDKit          3D

 54 56  0  0  0  0  0  0  0  0999 V2000
   10.4964   -0.1470    0.5375 C   0  0  0  0  0  0  0  0  0  0  0  0
    9.5184   -0.1800   -0.4968 O   0  0  0  0  0  0  0  0  0  0  0  0
    8.1342   -0.1086   -0.2804 C   0  0  0  0  0  0  0  0  0  0  0  0
    7.5756    0.0029    1.0060 C   0  0  0  0  0  0  0  0  0  0  0  0
    6.1888    0.0710    1.1696 C   0  0  0  0  0  0  0  0  0  0  0  0
    5.3337    0.0367    0.0537 C   0  0  0  0  0  0  0  0  0  0  0  0
    5.8976   -0.0841   -1.2289 C   0  0  0  0  0  0  0  0  0  0  0  0
    7.2844   -0.1530   -1.3902 C   0  0  0  0  0  0  0  0  0  0  0  0
    3.8633    0.1035    0.2375 C   0  0  0  0  0  0  0  0  0  0  0  0
    3.3686   -0.1333    1.3738 O   0  0  0  0  0  0  0  0  0  0  0  0
    3.0012    0.4826   -0.8489 N   0  0  0  0  0  0  0  0  0  0  0  0
    1.5941    0.1877   -0.8924 C   0  0  0  0  0  0  0  0  0  0  0  0
    0.7296    1.0525   -1.5799 C   0  0  0  0  0  0  0  0  0  0  0  0
   -0.6388    0.7775   -1.6531 C   0  0  0  0  0  0  0  0  0  0  0  0
   -1.1610   -0.3818   -1.0597 C   0  0  0  0  0  0  0  0  0  0  0  0
   -2.6407   -0.6595   -1.1075 C   0  0  0  0  0  0  0  0  0  0  0  0
   -3.3608    0.0379    0.0596 C   0  0  0  0  0  0  0  0  0  0  0  0
   -4.8358   -0.4192    0.2555 C   0  0  0  0  0  0  0  0  0  0  0  0
   -5.6344   -0.2126   -1.0575 C   0  0  0  0  0  0  0  0  0  0  0  0
   -7.1050   -0.5913   -0.8893 C   0  0  0  0  0  0  0  0  0  0  0  0
   -7.7134    0.1553    0.2904 C   0  0  0  0  0  0  0  0  0  0  0  0
   -6.8923   -0.1082    1.5504 C   0  0  0  0  0  0  0  0  0  0  0  0
   -5.4915    0.3323    1.3681 N   0  0  0  0  0  0  0  0  0  0  0  0
   -4.7773    0.1649    2.6507 C   0  0  0  0  0  0  0  0  0  0  0  0
   -0.2980   -1.2530   -0.3776 C   0  0  0  0  0  0  0  0  0  0  0  0
    1.0705   -0.9773   -0.3035 C   0  0  0  0  0  0  0  0  0  0  0  0
   10.4261    0.8084    1.0991 H   0  0  0  0  0  0  0  0  0  0  0  0
   10.3530   -1.0064    1.2261 H   0  0  0  0  0  0  0  0  0  0  0  0
   11.5062   -0.2194    0.0842 H   0  0  0  0  0  0  0  0  0  0  0  0
    8.2034    0.0376    1.8859 H   0  0  0  0  0  0  0  0  0  0  0  0
    5.7861    0.1599    2.1710 H   0  0  0  0  0  0  0  0  0  0  0  0
    5.2718   -0.1453   -2.1094 H   0  0  0  0  0  0  0  0  0  0  0  0
    7.7017   -0.2468   -2.3849 H   0  0  0  0  0  0  0  0  0  0  0  0
    3.3926    1.1042   -1.5922 H   0  0  0  0  0  0  0  0  0  0  0  0
    1.1160    1.9487   -2.0490 H   0  0  0  0  0  0  0  0  0  0  0  0
   -1.2917    1.4682   -2.1725 H   0  0  0  0  0  0  0  0  0  0  0  0
   -2.8201   -1.7561   -1.0603 H   0  0  0  0  0  0  0  0  0  0  0  0
   -3.0400   -0.2938   -2.0775 H   0  0  0  0  0  0  0  0  0  0  0  0
   -3.3281    1.1394   -0.0910 H   0  0  0  0  0  0  0  0  0  0  0  0
   -2.7837   -0.2017    0.9772 H   0  0  0  0  0  0  0  0  0  0  0  0
   -4.8304   -1.5092    0.4911 H   0  0  0  0  0  0  0  0  0  0  0  0
   -5.5629    0.8503   -1.3785 H   0  0  0  0  0  0  0  0  0  0  0  0
   -5.2250   -0.8514   -1.8676 H   0  0  0  0  0  0  0  0  0  0  0  0
   -7.6626   -0.3358   -1.8162 H   0  0  0  0  0  0  0  0  0  0  0  0
   -7.1930   -1.6882   -0.7251 H   0  0  0  0  0  0  0  0  0  0  0  0
   -7.7339    1.2469    0.0776 H   0  0  0  0  0  0  0  0  0  0  0  0
   -8.7581   -0.1899    0.4476 H   0  0  0  0  0  0  0  0  0  0  0  0
   -6.9360   -1.1912    1.8106 H   0  0  0  0  0  0  0  0  0  0  0  0
   -7.3694    0.4634    2.3775 H   0  0  0  0  0  0  0  0  0  0  0  0
   -3.8560    0.7825    2.6587 H   0  0  0  0  0  0  0  0  0  0  0  0
   -5.3850    0.5385    3.5038 H   0  0  0  0  0  0  0  0  0  0  0  0
   -4.5229   -0.9021    2.8375 H   0  0  0  0  0  0  0  0  0  0  0  0
   -0.6841   -2.1491    0.0923 H   0  0  0  0  0  0  0  0  0  0  0  0
    1.7184   -1.6845    0.1970 H   0  0  0  0  0  0  0  0  0  0  0  0
  1  2  1  0
  2  3  1  0
  3  4  2  0
  4  5  1  0
  5  6  2  0
  6  7  1  0
  7  8  2  0
  8  3  1  0
  6  9  1  0
  9 10  2  0
  9 11  1  0
 11 12  1  0
 12 13  2  0
 13 14  1  0
 14 15  2  0
 15 16  1  0
 16 17  1  0
 17 18  1  0
 18 19  1  0
 19 20  1  0
 20 21  1  0
 21 22  1  0
 22 23  1  0
 23 18  1  0
 23 24  1  0
 15 25  1  0
 25 26  2  0
 26 12  1  0
  1 27  1  0
  1 28  1  0
  1 29  1  0
  4 30  1  0
  5 31  1  0
  7 32  1  0
  8 33  1  0
 11 34  1  0
 13 35  1  0
 14 36  1  0
 16 37  1  0
 16 38  1  0
 17 39  1  0
 17 40  1  0
 18 41  1  0
 19 42  1  0
 19 43  1  0
 20 44  1  0
 20 45  1  0
 21 46  1  0
 21 47  1  0
 22 48  1  0
 22 49  1  0
 24 50  1  0
 24 51  1  0
 24 52  1  0
 25 53  1  0
 26 54  1  0
M  END
> <ID>
HT3609

> <Class>
0.0

> <Clusters>
269

> <Fold>
3

$$$$