
     RDKit          3D

 17 17  0  0  0  0  0  0  0  0999 V2000
    2.7653   -0.6874    0.1826 C   0  0  0  0  0  0  0  0  0  0  0  0
    1.8053    0.3405   -0.0399 O   0  0  0  0  0  0  0  0  0  0  0  0
    0.4155    0.1455   -0.0227 C   0  0  0  0  0  0  0  0  0  0  0  0
   -0.1633   -1.1163    0.2224 C   0  0  0  0  0  0  0  0  0  0  0  0
   -1.5533   -1.2645    0.2301 C   0  0  0  0  0  0  0  0  0  0  0  0
   -2.3771   -0.1620   -0.0052 C   0  0  0  0  0  0  0  0  0  0  0  0
   -1.8130    1.0923   -0.2490 C   0  0  0  0  0  0  0  0  0  0  0  0
   -0.4193    1.2492   -0.2585 C   0  0  0  0  0  0  0  0  0  0  0  0
    0.1449    2.5004   -0.5016 O   0  0  0  0  0  0  0  0  0  0  0  0
    2.6330   -1.1204    1.1966 H   0  0  0  0  0  0  0  0  0  0  0  0
    2.6614   -1.4801   -0.5881 H   0  0  0  0  0  0  0  0  0  0  0  0
    3.7838   -0.2539    0.1115 H   0  0  0  0  0  0  0  0  0  0  0  0
    0.4510   -1.9867    0.4076 H   0  0  0  0  0  0  0  0  0  0  0  0
   -1.9923   -2.2357    0.4189 H   0  0  0  0  0  0  0  0  0  0  0  0
   -3.4530   -0.2795    0.0013 H   0  0  0  0  0  0  0  0  0  0  0  0
   -2.4588    1.9419   -0.4306 H   0  0  0  0  0  0  0  0  0  0  0  0
   -0.4299    3.3166   -0.6753 H   0  0  0  0  0  0  0  0  0  0  0  0
  1  2  1  0
  2  3  1  0
  3  4  2  0
  4  5  1  0
  5  6  2  0
  6  7  1  0
  7  8  2  0
  8  3  1  0
  8  9  1  0
  1 10  1  0
  1 11  1  0
  1 12  1  0
  4 13  1  0
  5 14  1  0
  6 15  1  0
  7 16  1  0
  9 17  1  0
M  END
> <ID>
HT2515

> <Class>
0.0

> <Clusters>
121

> <Fold>
3

$$$$