
     RDKit          3D

  8  7  0  0  0  0  0  0  0  0999 V2000
   -1.6473    0.0136    0.2343 O   0  0  0  0  0  0  0  0  0  0  0  0
   -0.4149   -0.3615   -0.2944 C   0  0  0  0  0  0  0  0  0  0  0  0
   -0.3733   -1.1920   -1.2421 O   0  0  0  0  0  0  0  0  0  0  0  0
    0.8473    0.2819    0.2026 C   0  0  0  0  0  0  0  0  0  0  0  0
    0.6671    0.7968    1.9004 Cl  0  0  0  0  0  0  0  0  0  0  0  0
    2.2198   -0.8543    0.1074 Cl  0  0  0  0  0  0  0  0  0  0  0  0
    1.2088    1.7096   -0.7960 Cl  0  0  0  0  0  0  0  0  0  0  0  0
   -2.5075   -0.3941   -0.1121 H   0  0  0  0  0  0  0  0  0  0  0  0
  1  2  1  0
  2  3  2  0
  2  4  1  0
  4  5  1  0
  4  6  1  0
  4  7  1  0
  1  8  1  0
M  END
> <ID>
HT2113

> <Class>
0.0

> <Clusters>
251

> <Fold>
3

$$$$