
     RDKit          3D

 55 56  0  0  0  0  0  0  0  0999 V2000
   -4.6267    0.6263   -3.2510 C   0  0  0  0  0  0  0  0  0  0  0  0
   -3.2963    0.3902   -2.5365 C   0  0  0  0  0  0  0  0  0  0  0  0
   -3.4449    0.2532   -1.0393 C   0  0  0  0  0  0  0  0  0  0  0  0
   -4.5969    0.2714   -0.5228 O   0  0  0  0  0  0  0  0  0  0  0  0
   -2.2914    0.1653   -0.1710 N   0  0  0  0  0  0  0  0  0  0  0  0
   -2.3341    1.0107    0.9931 C   0  0  0  0  0  0  0  0  0  0  0  0
   -2.8354    0.5150    2.2069 C   0  0  0  0  0  0  0  0  0  0  0  0
   -2.9148    1.3472    3.3274 C   0  0  0  0  0  0  0  0  0  0  0  0
   -2.5163    2.6839    3.2358 C   0  0  0  0  0  0  0  0  0  0  0  0
   -2.0487    3.1926    2.0206 C   0  0  0  0  0  0  0  0  0  0  0  0
   -1.9684    2.3626    0.8983 C   0  0  0  0  0  0  0  0  0  0  0  0
   -1.0749   -0.6289   -0.5249 C   0  0  0  0  0  0  0  0  0  0  0  0
   -0.2267   -1.0038    0.7396 C   0  0  0  0  0  0  0  0  0  0  0  0
    0.8583    0.0390    1.0593 C   0  0  0  0  0  0  0  0  0  0  0  0
    1.8222    0.2350   -0.0581 N   0  0  0  0  0  0  0  0  0  0  0  0
    3.1217   -0.4225    0.1975 C   0  0  0  0  0  0  0  0  0  0  0  0
    4.0012    0.4636    1.0932 C   0  0  0  0  0  0  0  0  0  0  0  0
    5.3524   -0.1334    1.3697 C   0  0  0  0  0  0  0  0  0  0  0  0
    5.6726   -1.2624    0.9031 O   0  0  0  0  0  0  0  0  0  0  0  0
    6.2544    0.5857    2.1587 O   0  0  0  0  0  0  0  0  0  0  0  0
    7.5532    0.0992    2.4750 C   0  0  0  0  0  0  0  0  0  0  0  0
    1.2911   -0.1500   -1.3868 C   0  0  0  0  0  0  0  0  0  0  0  0
   -0.1972    0.1945   -1.5187 C   0  0  0  0  0  0  0  0  0  0  0  0
   -1.5096   -1.9525   -1.1376 C   0  0  0  0  0  0  0  0  0  0  0  0
   -2.3705   -2.6564   -0.5392 O   0  0  0  0  0  0  0  0  0  0  0  0
   -0.9416   -2.4095   -2.3325 O   0  0  0  0  0  0  0  0  0  0  0  0
   -1.3317   -3.6296   -2.9498 C   0  0  0  0  0  0  0  0  0  0  0  0
   -5.1032    1.5596   -2.8814 H   0  0  0  0  0  0  0  0  0  0  0  0
   -4.4487    0.7289   -4.3422 H   0  0  0  0  0  0  0  0  0  0  0  0
   -5.3126   -0.2319   -3.0841 H   0  0  0  0  0  0  0  0  0  0  0  0
   -2.6305    1.2530   -2.7496 H   0  0  0  0  0  0  0  0  0  0  0  0
   -2.8392   -0.5263   -2.9587 H   0  0  0  0  0  0  0  0  0  0  0  0
   -3.1618   -0.5146    2.2805 H   0  0  0  0  0  0  0  0  0  0  0  0
   -3.2911    0.9578    4.2645 H   0  0  0  0  0  0  0  0  0  0  0  0
   -2.5801    3.3282    4.1033 H   0  0  0  0  0  0  0  0  0  0  0  0
   -1.7551    4.2318    1.9467 H   0  0  0  0  0  0  0  0  0  0  0  0
   -1.6240    2.7716   -0.0420 H   0  0  0  0  0  0  0  0  0  0  0  0
   -0.8694   -1.1737    1.6261 H   0  0  0  0  0  0  0  0  0  0  0  0
    0.3075   -1.9686    0.5792 H   0  0  0  0  0  0  0  0  0  0  0  0
    0.3852    1.0144    1.2830 H   0  0  0  0  0  0  0  0  0  0  0  0
    1.3674   -0.2675    1.9993 H   0  0  0  0  0  0  0  0  0  0  0  0
    3.6747   -0.5778   -0.7581 H   0  0  0  0  0  0  0  0  0  0  0  0
    2.9723   -1.4239    0.6627 H   0  0  0  0  0  0  0  0  0  0  0  0
    3.4978    0.6426    2.0660 H   0  0  0  0  0  0  0  0  0  0  0  0
    4.1464    1.4468    0.5962 H   0  0  0  0  0  0  0  0  0  0  0  0
    7.4752   -0.8574    3.0339 H   0  0  0  0  0  0  0  0  0  0  0  0
    8.0772    0.8439    3.1083 H   0  0  0  0  0  0  0  0  0  0  0  0
    8.1383   -0.0566    1.5439 H   0  0  0  0  0  0  0  0  0  0  0  0
    1.8523    0.4025   -2.1713 H   0  0  0  0  0  0  0  0  0  0  0  0
    1.4305   -1.2396   -1.5729 H   0  0  0  0  0  0  0  0  0  0  0  0
   -0.5107    0.0388   -2.5721 H   0  0  0  0  0  0  0  0  0  0  0  0
   -0.3096    1.2807   -1.3177 H   0  0  0  0  0  0  0  0  0  0  0  0
   -0.7373   -3.7759   -3.8750 H   0  0  0  0  0  0  0  0  0  0  0  0
   -1.1432   -4.4814   -2.2623 H   0  0  0  0  0  0  0  0  0  0  0  0
   -2.4093   -3.5918   -3.2161 H   0  0  0  0  0  0  0  0  0  0  0  0
  1  2  1  0
  2  3  1  0
  3  4  2  0
  3  5  1  0
  5  6  1  0
  6  7  2  0
  7  8  1  0
  8  9  2  0
  9 10  1  0
 10 11  2  0
 11  6  1  0
  5 12  1  0
 12 13  1  0
 13 14  1  0
 14 15  1  0
 15 16  1  0
 16 17  1  0
 17 18  1  0
 18 19  2  0
 18 20  1  0
 20 21  1  0
 15 22  1  0
 22 23  1  0
 23 12  1  0
 12 24  1  0
 24 25  2  0
 24 26  1  0
 26 27  1  0
  1 28  1  0
  1 29  1  0
  1 30  1  0
  2 31  1  0
  2 32  1  0
  7 33  1  0
  8 34  1  0
  9 35  1  0
 10 36  1  0
 11 37  1  0
 13 38  1  0
 13 39  1  0
 14 40  1  0
 14 41  1  0
 16 42  1  0
 16 43  1  0
 17 44  1  0
 17 45  1  0
 21 46  1  0
 21 47  1  0
 21 48  1  0
 22 49  1  0
 22 50  1  0
 23 51  1  0
 23 52  1  0
 27 53  1  0
 27 54  1  0
 27 55  1  0
M  END
> <ID>
HT1808

> <Class>
0.0

> <Clusters>
218

> <Fold>
3

$$$$