
     RDKit          3D

 64 66  0  0  0  0  0  0  0  0999 V2000
    8.7727    1.2758    1.1156 C   0  0  0  0  0  0  0  0  0  0  0  0
    7.7287    0.6450    0.3868 O   0  0  0  0  0  0  0  0  0  0  0  0
    7.9271   -0.2897   -0.6405 C   0  0  0  0  0  0  0  0  0  0  0  0
    9.2134   -0.7076   -1.0357 C   0  0  0  0  0  0  0  0  0  0  0  0
    9.3668   -1.6393   -2.0653 C   0  0  0  0  0  0  0  0  0  0  0  0
    8.2461   -2.1604   -2.7109 C   0  0  0  0  0  0  0  0  0  0  0  0
    6.9669   -1.7539   -2.3284 C   0  0  0  0  0  0  0  0  0  0  0  0
    6.7984   -0.8173   -1.2884 C   0  0  0  0  0  0  0  0  0  0  0  0
    5.5305   -0.3864   -0.8706 O   0  0  0  0  0  0  0  0  0  0  0  0
    4.2983   -0.8237   -1.4385 C   0  0  0  0  0  0  0  0  0  0  0  0
    3.1300   -0.1721   -0.6846 C   0  0  0  0  0  0  0  0  0  0  0  0
    3.2072   -0.4888    0.6829 O   0  0  0  0  0  0  0  0  0  0  0  0
    1.7735   -0.5917   -1.2923 C   0  0  0  0  0  0  0  0  0  0  0  0
    0.6533    0.1860   -0.7087 N   0  0  0  0  0  0  0  0  0  0  0  0
   -0.4784    0.2579   -1.6557 C   0  0  0  0  0  0  0  0  0  0  0  0
   -1.5444    1.2389   -1.1371 C   0  0  0  0  0  0  0  0  0  0  0  0
   -1.6129    1.2517    0.3394 N   0  0  0  0  0  0  0  0  0  0  0  0
   -2.8662    1.8308    0.8749 C   0  0  0  0  0  0  0  0  0  0  0  0
   -4.1062    0.9801    0.6987 C   0  0  0  0  0  0  0  0  0  0  0  0
   -4.0995   -0.0470   -0.0335 O   0  0  0  0  0  0  0  0  0  0  0  0
   -5.3173    1.3755    1.3571 N   0  0  0  0  0  0  0  0  0  0  0  0
   -6.5197    0.5906    1.2882 C   0  0  0  0  0  0  0  0  0  0  0  0
   -6.5757   -0.6987    1.8723 C   0  0  0  0  0  0  0  0  0  0  0  0
   -5.3958   -1.2924    2.5958 C   0  0  0  0  0  0  0  0  0  0  0  0
   -7.7547   -1.4548    1.7635 C   0  0  0  0  0  0  0  0  0  0  0  0
   -8.8806   -0.9276    1.1311 C   0  0  0  0  0  0  0  0  0  0  0  0
   -8.8440    0.3588    0.5946 C   0  0  0  0  0  0  0  0  0  0  0  0
   -7.6689    1.1234    0.6584 C   0  0  0  0  0  0  0  0  0  0  0  0
   -7.6565    2.5118    0.0774 C   0  0  0  0  0  0  0  0  0  0  0  0
   -1.2367   -0.0329    0.9529 C   0  0  0  0  0  0  0  0  0  0  0  0
    0.2253   -0.3677    0.6041 C   0  0  0  0  0  0  0  0  0  0  0  0
    9.4117    1.8695    0.4276 H   0  0  0  0  0  0  0  0  0  0  0  0
    8.3277    1.9615    1.8619 H   0  0  0  0  0  0  0  0  0  0  0  0
    9.3830    0.5149    1.6499 H   0  0  0  0  0  0  0  0  0  0  0  0
   10.0989   -0.3197   -0.5507 H   0  0  0  0  0  0  0  0  0  0  0  0
   10.3558   -1.9618   -2.3599 H   0  0  0  0  0  0  0  0  0  0  0  0
    8.3667   -2.8838   -3.5067 H   0  0  0  0  0  0  0  0  0  0  0  0
    6.1175   -2.1744   -2.8485 H   0  0  0  0  0  0  0  0  0  0  0  0
    4.2243   -1.9328   -1.3635 H   0  0  0  0  0  0  0  0  0  0  0  0
    4.2617   -0.5263   -2.5092 H   0  0  0  0  0  0  0  0  0  0  0  0
    3.2257    0.9325   -0.7865 H   0  0  0  0  0  0  0  0  0  0  0  0
    3.0912   -1.4722    0.7677 H   0  0  0  0  0  0  0  0  0  0  0  0
    1.6136   -1.6877   -1.1836 H   0  0  0  0  0  0  0  0  0  0  0  0
    1.8391   -0.3986   -2.3862 H   0  0  0  0  0  0  0  0  0  0  0  0
   -0.9294   -0.7519   -1.7955 H   0  0  0  0  0  0  0  0  0  0  0  0
   -0.1398    0.6207   -2.6511 H   0  0  0  0  0  0  0  0  0  0  0  0
   -1.2791    2.2633   -1.4773 H   0  0  0  0  0  0  0  0  0  0  0  0
   -2.5193    0.9827   -1.6008 H   0  0  0  0  0  0  0  0  0  0  0  0
   -3.0464    2.8214    0.4029 H   0  0  0  0  0  0  0  0  0  0  0  0
   -2.7307    2.0197    1.9616 H   0  0  0  0  0  0  0  0  0  0  0  0
   -5.3677    2.3330    1.7699 H   0  0  0  0  0  0  0  0  0  0  0  0
   -4.8037   -0.5075    3.1058 H   0  0  0  0  0  0  0  0  0  0  0  0
   -4.7521   -1.8323    1.8761 H   0  0  0  0  0  0  0  0  0  0  0  0
   -5.7291   -2.0071    3.3774 H   0  0  0  0  0  0  0  0  0  0  0  0
   -7.8057   -2.4504    2.1859 H   0  0  0  0  0  0  0  0  0  0  0  0
   -9.7891   -1.5137    1.0637 H   0  0  0  0  0  0  0  0  0  0  0  0
   -9.7333    0.7567    0.1204 H   0  0  0  0  0  0  0  0  0  0  0  0
   -6.7242    2.6762   -0.5149 H   0  0  0  0  0  0  0  0  0  0  0  0
   -7.7040    3.2623    0.9022 H   0  0  0  0  0  0  0  0  0  0  0  0
   -8.5208    2.6710   -0.6082 H   0  0  0  0  0  0  0  0  0  0  0  0
   -1.8865   -0.8541    0.5815 H   0  0  0  0  0  0  0  0  0  0  0  0
   -1.3457    0.0140    2.0593 H   0  0  0  0  0  0  0  0  0  0  0  0
    0.3418   -1.4747    0.6451 H   0  0  0  0  0  0  0  0  0  0  0  0
    0.8669    0.0748    1.3943 H   0  0  0  0  0  0  0  0  0  0  0  0
  1  2  1  0
  2  3  1  0
  3  4  2  0
  4  5  1  0
  5  6  2  0
  6  7  1  0
  7  8  2  0
  8  3  1  0
  8  9  1  0
  9 10  1  0
 10 11  1  0
 11 12  1  0
 11 13  1  0
 13 14  1  0
 14 15  1  0
 15 16  1  0
 16 17  1  0
 17 18  1  0
 18 19  1  0
 19 20  2  0
 19 21  1  0
 21 22  1  0
 22 23  2  0
 23 24  1  0
 23 25  1  0
 25 26  2  0
 26 27  1  0
 27 28  2  0
 28 22  1  0
 28 29  1  0
 17 30  1  0
 30 31  1  0
 31 14  1  0
  1 32  1  0
  1 33  1  0
  1 34  1  0
  4 35  1  0
  5 36  1  0
  6 37  1  0
  7 38  1  0
 10 39  1  0
 10 40  1  0
 11 41  1  0
 12 42  1  0
 13 43  1  0
 13 44  1  0
 15 45  1  0
 15 46  1  0
 16 47  1  0
 16 48  1  0
 18 49  1  0
 18 50  1  0
 21 51  1  0
 24 52  1  0
 24 53  1  0
 24 54  1  0
 25 55  1  0
 26 56  1  0
 27 57  1  0
 29 58  1  0
 29 59  1  0
 29 60  1  0
 30 61  1  0
 30 62  1  0
 31 63  1  0
 31 64  1  0
M  END
> <ID>
HT1801

> <Class>
0.0

> <Clusters>
121

> <Fold>
3

$$$$