
     RDKit          3D

 36 37  0  0  0  0  0  0  0  0999 V2000
   -5.0691   -1.1014   -0.2002 C   0  0  0  0  0  0  0  0  0  0  0  0
   -4.1557   -0.8264    0.9900 C   0  0  0  0  0  0  0  0  0  0  0  0
   -2.7872   -0.7883    0.5840 O   0  0  0  0  0  0  0  0  0  0  0  0
   -2.1776    0.2430   -0.1516 C   0  0  0  0  0  0  0  0  0  0  0  0
   -2.8284    1.4640   -0.4203 C   0  0  0  0  0  0  0  0  0  0  0  0
   -2.1821    2.4614   -1.1524 C   0  0  0  0  0  0  0  0  0  0  0  0
   -0.8868    2.2542   -1.6244 C   0  0  0  0  0  0  0  0  0  0  0  0
   -0.2293    1.0512   -1.3614 C   0  0  0  0  0  0  0  0  0  0  0  0
   -0.8655    0.0401   -0.6136 C   0  0  0  0  0  0  0  0  0  0  0  0
   -0.2456   -1.1869   -0.3198 O   0  0  0  0  0  0  0  0  0  0  0  0
    1.1459   -1.4849   -0.4524 C   0  0  0  0  0  0  0  0  0  0  0  0
    1.9383   -0.9415    0.7490 C   0  0  0  0  0  0  0  0  0  0  0  0
    3.3713   -1.5274    0.8018 C   0  0  0  0  0  0  0  0  0  0  0  0
    4.2364   -0.6146    1.5503 N   0  0  0  0  0  0  0  0  0  0  0  0
    4.3300    0.6887    0.8729 C   0  0  0  0  0  0  0  0  0  0  0  0
    3.0244    1.0538    0.1408 C   0  0  0  0  0  0  0  0  0  0  0  0
    1.9044    0.4822    0.7893 O   0  0  0  0  0  0  0  0  0  0  0  0
   -6.1207   -1.1788    0.1475 H   0  0  0  0  0  0  0  0  0  0  0  0
   -4.7798   -2.0580   -0.6845 H   0  0  0  0  0  0  0  0  0  0  0  0
   -5.0018   -0.2845   -0.9473 H   0  0  0  0  0  0  0  0  0  0  0  0
   -4.2780   -1.6546    1.7194 H   0  0  0  0  0  0  0  0  0  0  0  0
   -4.4421    0.1142    1.5061 H   0  0  0  0  0  0  0  0  0  0  0  0
   -3.8299    1.6580   -0.0645 H   0  0  0  0  0  0  0  0  0  0  0  0
   -2.6877    3.3966   -1.3559 H   0  0  0  0  0  0  0  0  0  0  0  0
   -0.3911    3.0271   -2.1976 H   0  0  0  0  0  0  0  0  0  0  0  0
    0.7659    0.9201   -1.7555 H   0  0  0  0  0  0  0  0  0  0  0  0
    1.5514   -1.1213   -1.4183 H   0  0  0  0  0  0  0  0  0  0  0  0
    1.2470   -2.5912   -0.4648 H   0  0  0  0  0  0  0  0  0  0  0  0
    1.4192   -1.2952    1.6670 H   0  0  0  0  0  0  0  0  0  0  0  0
    3.7794   -1.6777   -0.2246 H   0  0  0  0  0  0  0  0  0  0  0  0
    3.3514   -2.5185    1.3058 H   0  0  0  0  0  0  0  0  0  0  0  0
    5.1947   -1.0336    1.5967 H   0  0  0  0  0  0  0  0  0  0  0  0
    4.5466    1.4639    1.6385 H   0  0  0  0  0  0  0  0  0  0  0  0
    5.1702    0.6872    0.1425 H   0  0  0  0  0  0  0  0  0  0  0  0
    2.9066    2.1578    0.1276 H   0  0  0  0  0  0  0  0  0  0  0  0
    3.0751    0.7214   -0.9202 H   0  0  0  0  0  0  0  0  0  0  0  0
  1  2  1  0
  2  3  1  0
  3  4  1  0
  4  5  2  0
  5  6  1  0
  6  7  2  0
  7  8  1  0
  8  9  2  0
  9  4  1  0
  9 10  1  0
 10 11  1  0
 11 12  1  0
 12 13  1  0
 13 14  1  0
 14 15  1  0
 15 16  1  0
 16 17  1  0
 17 12  1  0
  1 18  1  0
  1 19  1  0
  1 20  1  0
  2 21  1  0
  2 22  1  0
  5 23  1  0
  6 24  1  0
  7 25  1  0
  8 26  1  0
 11 27  1  0
 11 28  1  0
 12 29  1  0
 13 30  1  0
 13 31  1  0
 14 32  1  0
 15 33  1  0
 15 34  1  0
 16 35  1  0
 16 36  1  0
M  END
> <ID>
HT2180

> <Class>
0.0

> <Clusters>
121

> <Fold>
3

$$$$