
     RDKit          3D

 24 23  0  0  0  0  0  0  0  0999 V2000
   -4.0293    0.7799   -0.7794 C   0  0  0  0  0  0  0  0  0  0  0  0
   -2.9231    0.5268    0.1522 N   0  0  0  0  0  0  0  0  0  0  0  0
   -3.1647   -0.2473    1.3745 C   0  0  0  0  0  0  0  0  0  0  0  0
   -1.5959    1.0295   -0.1291 C   0  0  0  0  0  0  0  0  0  0  0  0
   -1.3233    2.0673   -1.3711 S   0  0  0  0  0  0  0  0  0  0  0  0
   -0.2085    0.6319    0.9426 S   0  0  0  0  0  0  0  0  0  0  0  0
    0.2049   -1.2031   -0.0645 S   0  0  0  0  0  0  0  0  0  0  0  0
    1.6002   -0.5161   -0.9657 C   0  0  0  0  0  0  0  0  0  0  0  0
    1.3398   -0.0253   -2.5101 S   0  0  0  0  0  0  0  0  0  0  0  0
    2.9236   -0.4878   -0.3819 N   0  0  0  0  0  0  0  0  0  0  0  0
    4.0343    0.1673   -1.0838 C   0  0  0  0  0  0  0  0  0  0  0  0
    3.1561   -1.1100    0.9259 C   0  0  0  0  0  0  0  0  0  0  0  0
   -4.2122    1.8723   -0.8585 H   0  0  0  0  0  0  0  0  0  0  0  0
   -4.9714    0.2977   -0.4446 H   0  0  0  0  0  0  0  0  0  0  0  0
   -3.7754    0.3742   -1.7815 H   0  0  0  0  0  0  0  0  0  0  0  0
   -2.5613   -1.1787    1.3562 H   0  0  0  0  0  0  0  0  0  0  0  0
   -4.2323   -0.5325    1.4797 H   0  0  0  0  0  0  0  0  0  0  0  0
   -2.8846    0.3571    2.2629 H   0  0  0  0  0  0  0  0  0  0  0  0
    4.2315   -0.3534   -2.0444 H   0  0  0  0  0  0  0  0  0  0  0  0
    3.7767    1.2287   -1.2848 H   0  0  0  0  0  0  0  0  0  0  0  0
    4.9693    0.1511   -0.4856 H   0  0  0  0  0  0  0  0  0  0  0  0
    4.2223   -1.0501    1.2292 H   0  0  0  0  0  0  0  0  0  0  0  0
    2.8734   -2.1831    0.8865 H   0  0  0  0  0  0  0  0  0  0  0  0
    2.5496   -0.5965    1.7008 H   0  0  0  0  0  0  0  0  0  0  0  0
  1  2  1  0
  2  3  1  0
  2  4  1  0
  4  5  2  0
  4  6  1  0
  6  7  1  0
  7  8  1  0
  8  9  2  0
  8 10  1  0
 10 11  1  0
 10 12  1  0
  1 13  1  0
  1 14  1  0
  1 15  1  0
  3 16  1  0
  3 17  1  0
  3 18  1  0
 11 19  1  0
 11 20  1  0
 11 21  1  0
 12 22  1  0
 12 23  1  0
 12 24  1  0
M  END
> <ID>
HT3049

> <Class>
0.0

> <Clusters>
260

> <Fold>
3

$$$$