
     RDKit          3D

 54 55  0  0  0  0  0  0  0  0999 V2000
    8.3816    0.2882   -1.1142 C   0  0  0  0  0  0  0  0  0  0  0  0
    7.4876   -0.9326   -1.3275 C   0  0  0  0  0  0  0  0  0  0  0  0
    6.2499   -0.6224   -2.1860 C   0  0  0  0  0  0  0  0  0  0  0  0
    5.2310    0.2818   -1.4848 C   0  0  0  0  0  0  0  0  0  0  0  0
    4.7855   -0.3331   -0.2924 O   0  0  0  0  0  0  0  0  0  0  0  0
    3.7593    0.4322    0.3109 C   0  0  0  0  0  0  0  0  0  0  0  0
    2.3876   -0.1244   -0.0745 C   0  0  0  0  0  0  0  0  0  0  0  0
    1.3667    0.6130    0.5714 O   0  0  0  0  0  0  0  0  0  0  0  0
    0.9017   -0.0770    1.7134 C   0  0  0  0  0  0  0  0  0  0  0  0
   -0.0801    0.8090    2.4769 C   0  0  0  0  0  0  0  0  0  0  0  0
   -1.1394    1.2178    1.6310 O   0  0  0  0  0  0  0  0  0  0  0  0
   -2.2668    0.3796    1.7982 C   0  0  0  0  0  0  0  0  0  0  0  0
   -3.3558    0.7033    0.7933 C   0  0  0  0  0  0  0  0  0  0  0  0
   -3.1940    1.7856   -0.1112 C   0  0  0  0  0  0  0  0  0  0  0  0
   -4.2245    2.0721   -0.9966 C   0  0  0  0  0  0  0  0  0  0  0  0
   -4.2822    3.0677   -1.9529 O   0  0  0  0  0  0  0  0  0  0  0  0
   -5.5472    2.9673   -2.6206 C   0  0  0  0  0  0  0  0  0  0  0  0
   -6.2114    1.8617   -1.9938 O   0  0  0  0  0  0  0  0  0  0  0  0
   -5.3708    1.3559   -1.0210 C   0  0  0  0  0  0  0  0  0  0  0  0
   -5.5880    0.2858   -0.1650 C   0  0  0  0  0  0  0  0  0  0  0  0
   -4.5727   -0.0595    0.7578 C   0  0  0  0  0  0  0  0  0  0  0  0
   -4.8046   -1.2584    1.6552 C   0  0  0  0  0  0  0  0  0  0  0  0
   -4.2596   -2.5597    1.0442 C   0  0  0  0  0  0  0  0  0  0  0  0
   -5.0748   -3.0325   -0.1587 C   0  0  0  0  0  0  0  0  0  0  0  0
    8.6487    0.7500   -2.0885 H   0  0  0  0  0  0  0  0  0  0  0  0
    7.8755    1.0397   -0.4737 H   0  0  0  0  0  0  0  0  0  0  0  0
    9.3166   -0.0246   -0.6041 H   0  0  0  0  0  0  0  0  0  0  0  0
    7.1828   -1.3473   -0.3426 H   0  0  0  0  0  0  0  0  0  0  0  0
    8.0844   -1.7136   -1.8465 H   0  0  0  0  0  0  0  0  0  0  0  0
    6.5661   -0.1484   -3.1408 H   0  0  0  0  0  0  0  0  0  0  0  0
    5.7499   -1.5814   -2.4431 H   0  0  0  0  0  0  0  0  0  0  0  0
    5.6976    1.2685   -1.2698 H   0  0  0  0  0  0  0  0  0  0  0  0
    4.3817    0.4412   -2.1872 H   0  0  0  0  0  0  0  0  0  0  0  0
    3.8119    1.5217    0.0729 H   0  0  0  0  0  0  0  0  0  0  0  0
    3.8789    0.3479    1.4113 H   0  0  0  0  0  0  0  0  0  0  0  0
    2.2495   -0.0052   -1.1692 H   0  0  0  0  0  0  0  0  0  0  0  0
    2.3508   -1.2217    0.1289 H   0  0  0  0  0  0  0  0  0  0  0  0
    0.3839   -1.0149    1.4127 H   0  0  0  0  0  0  0  0  0  0  0  0
    1.7424   -0.3308    2.3983 H   0  0  0  0  0  0  0  0  0  0  0  0
   -0.4216    0.2878    3.4029 H   0  0  0  0  0  0  0  0  0  0  0  0
    0.4606    1.7191    2.8131 H   0  0  0  0  0  0  0  0  0  0  0  0
   -1.9764   -0.6854    1.6681 H   0  0  0  0  0  0  0  0  0  0  0  0
   -2.6855    0.5281    2.8186 H   0  0  0  0  0  0  0  0  0  0  0  0
   -2.3016    2.3964   -0.1302 H   0  0  0  0  0  0  0  0  0  0  0  0
   -5.3960    2.7607   -3.7009 H   0  0  0  0  0  0  0  0  0  0  0  0
   -6.1331    3.8990   -2.4754 H   0  0  0  0  0  0  0  0  0  0  0  0
   -6.5153   -0.2703   -0.2194 H   0  0  0  0  0  0  0  0  0  0  0  0
   -4.3297   -1.0988    2.6447 H   0  0  0  0  0  0  0  0  0  0  0  0
   -5.8906   -1.3747    1.8663 H   0  0  0  0  0  0  0  0  0  0  0  0
   -4.2926   -3.3537    1.8215 H   0  0  0  0  0  0  0  0  0  0  0  0
   -3.1996   -2.4338    0.7384 H   0  0  0  0  0  0  0  0  0  0  0  0
   -4.9644   -2.3253   -1.0067 H   0  0  0  0  0  0  0  0  0  0  0  0
   -4.7056   -4.0268   -0.4870 H   0  0  0  0  0  0  0  0  0  0  0  0
   -6.1482   -3.1249    0.1102 H   0  0  0  0  0  0  0  0  0  0  0  0
  1  2  1  0
  2  3  1  0
  3  4  1  0
  4  5  1  0
  5  6  1  0
  6  7  1  0
  7  8  1  0
  8  9  1  0
  9 10  1  0
 10 11  1  0
 11 12  1  0
 12 13  1  0
 13 14  2  0
 14 15  1  0
 15 16  1  0
 16 17  1  0
 17 18  1  0
 18 19  1  0
 19 15  2  0
 19 20  1  0
 20 21  2  0
 21 13  1  0
 21 22  1  0
 22 23  1  0
 23 24  1  0
  1 25  1  0
  1 26  1  0
  1 27  1  0
  2 28  1  0
  2 29  1  0
  3 30  1  0
  3 31  1  0
  4 32  1  0
  4 33  1  0
  6 34  1  0
  6 35  1  0
  7 36  1  0
  7 37  1  0
  9 38  1  0
  9 39  1  0
 10 40  1  0
 10 41  1  0
 12 42  1  0
 12 43  1  0
 14 44  1  0
 17 45  1  0
 17 46  1  0
 20 47  1  0
 22 48  1  0
 22 49  1  0
 23 50  1  0
 23 51  1  0
 24 52  1  0
 24 53  1  0
 24 54  1  0
M  END
> <ID>
HT1684

> <Class>
0.0

> <Clusters>
261

> <Fold>
3

$$$$