
     RDKit          3D

 45 47  0  0  0  0  0  0  0  0999 V2000
   -2.8634   -2.4005   -0.0519 C   0  0  0  0  0  0  0  0  0  0  0  0
   -1.7451   -1.3741    0.2164 C   0  0  0  0  0  0  0  0  0  0  0  0
   -1.2383   -0.7628   -1.1060 C   0  0  0  0  0  0  0  0  0  0  0  0
   -0.2633    0.3097   -0.8493 N   0  0  0  0  0  0  0  0  0  0  0  0
   -0.5159    1.6618   -1.2845 C   0  0  0  0  0  0  0  0  0  0  0  0
   -0.9585    1.9304   -2.5909 C   0  0  0  0  0  0  0  0  0  0  0  0
   -1.0447    3.2497   -3.0465 C   0  0  0  0  0  0  0  0  0  0  0  0
   -0.6707    4.3068   -2.2117 C   0  0  0  0  0  0  0  0  0  0  0  0
   -0.2231    4.0494   -0.9130 C   0  0  0  0  0  0  0  0  0  0  0  0
   -0.1584    2.7330   -0.4449 C   0  0  0  0  0  0  0  0  0  0  0  0
    0.3026    2.3999    1.2580 S   0  0  0  0  0  0  0  0  0  0  0  0
    1.3893    1.0392    0.8167 C   0  0  0  0  0  0  0  0  0  0  0  0
    2.6334    0.9074    1.4345 C   0  0  0  0  0  0  0  0  0  0  0  0
    3.4290   -0.2115    1.1781 C   0  0  0  0  0  0  0  0  0  0  0  0
    2.9911   -1.2153    0.2917 C   0  0  0  0  0  0  0  0  0  0  0  0
    1.7450   -1.0592   -0.3469 C   0  0  0  0  0  0  0  0  0  0  0  0
    0.9437    0.0665   -0.0936 C   0  0  0  0  0  0  0  0  0  0  0  0
    3.8254   -2.4156    0.0116 C   0  0  0  0  0  0  0  0  0  0  0  0
    3.4033   -3.3002   -0.7822 O   0  0  0  0  0  0  0  0  0  0  0  0
    5.1673   -2.6151    0.6503 C   0  0  0  0  0  0  0  0  0  0  0  0
   -2.1281   -0.3014    1.1754 N   0  0  0  0  0  0  0  0  0  0  0  0
   -3.4302    0.3308    0.8999 C   0  0  0  0  0  0  0  0  0  0  0  0
   -2.0557   -0.7526    2.5741 C   0  0  0  0  0  0  0  0  0  0  0  0
   -3.2365   -2.8350    0.8977 H   0  0  0  0  0  0  0  0  0  0  0  0
   -3.7120   -1.9406   -0.6008 H   0  0  0  0  0  0  0  0  0  0  0  0
   -2.4658   -3.2321   -0.6721 H   0  0  0  0  0  0  0  0  0  0  0  0
   -0.8881   -1.9478    0.6371 H   0  0  0  0  0  0  0  0  0  0  0  0
   -0.7726   -1.5507   -1.7348 H   0  0  0  0  0  0  0  0  0  0  0  0
   -2.1034   -0.3728   -1.6827 H   0  0  0  0  0  0  0  0  0  0  0  0
   -1.1963    1.1217   -3.2696 H   0  0  0  0  0  0  0  0  0  0  0  0
   -1.3814    3.4518   -4.0551 H   0  0  0  0  0  0  0  0  0  0  0  0
   -0.7302    5.3261   -2.5708 H   0  0  0  0  0  0  0  0  0  0  0  0
    0.0495    4.8729   -0.2655 H   0  0  0  0  0  0  0  0  0  0  0  0
    2.9737    1.6573    2.1374 H   0  0  0  0  0  0  0  0  0  0  0  0
    4.3814   -0.2878    1.6848 H   0  0  0  0  0  0  0  0  0  0  0  0
    1.4138   -1.7956   -1.0662 H   0  0  0  0  0  0  0  0  0  0  0  0
    5.0567   -2.6593    1.7540 H   0  0  0  0  0  0  0  0  0  0  0  0
    5.8442   -1.7796    0.3745 H   0  0  0  0  0  0  0  0  0  0  0  0
    5.6259   -3.5663    0.3052 H   0  0  0  0  0  0  0  0  0  0  0  0
   -3.5379    1.2470    1.5188 H   0  0  0  0  0  0  0  0  0  0  0  0
   -3.4997    0.6492   -0.1602 H   0  0  0  0  0  0  0  0  0  0  0  0
   -4.2731   -0.3546    1.1365 H   0  0  0  0  0  0  0  0  0  0  0  0
   -1.0402   -1.1417    2.8018 H   0  0  0  0  0  0  0  0  0  0  0  0
   -2.8080   -1.5421    2.7853 H   0  0  0  0  0  0  0  0  0  0  0  0
   -2.2344    0.1037    3.2595 H   0  0  0  0  0  0  0  0  0  0  0  0
  1  2  1  0
  2  3  1  0
  3  4  1  0
  4  5  1  0
  5  6  2  0
  6  7  1  0
  7  8  2  0
  8  9  1  0
  9 10  2  0
 10  5  1  0
 10 11  1  0
 11 12  1  0
 12 13  2  0
 13 14  1  0
 14 15  2  0
 15 16  1  0
 16 17  2  0
 17  4  1  0
 17 12  1  0
 15 18  1  0
 18 19  2  0
 18 20  1  0
  2 21  1  0
 21 22  1  0
 21 23  1  0
  1 24  1  0
  1 25  1  0
  1 26  1  0
  2 27  1  0
  3 28  1  0
  3 29  1  0
  6 30  1  0
  7 31  1  0
  8 32  1  0
  9 33  1  0
 13 34  1  0
 14 35  1  0
 16 36  1  0
 20 37  1  0
 20 38  1  0
 20 39  1  0
 22 40  1  0
 22 41  1  0
 22 42  1  0
 23 43  1  0
 23 44  1  0
 23 45  1  0
M  END
> <ID>
HT0052

> <Class>
0.0

> <Clusters>
1

> <Fold>
3

$$$$