
     RDKit          3D

102101  0  0  0  0  0  0  0  0999 V2000
  -16.0924    1.5288   -0.3711 C   0  0  0  0  0  0  0  0  0  0  0  0
  -15.6038    0.4562    0.6018 C   0  0  0  0  0  0  0  0  0  0  0  0
  -14.0795    0.4666    0.7980 C   0  0  0  0  0  0  0  0  0  0  0  0
  -13.3268   -0.0820   -0.4251 C   0  0  0  0  0  0  0  0  0  0  0  0
  -11.8007   -0.0594   -0.2352 C   0  0  0  0  0  0  0  0  0  0  0  0
  -11.3043   -1.1332    0.7522 C   0  0  0  0  0  0  0  0  0  0  0  0
   -9.7692   -1.2468    0.7654 C   0  0  0  0  0  0  0  0  0  0  0  0
   -9.0979   -0.0494    1.4631 C   0  0  0  0  0  0  0  0  0  0  0  0
   -7.5733   -0.2146    1.5932 C   0  0  0  0  0  0  0  0  0  0  0  0
   -6.8523   -0.1218    0.2383 C   0  0  0  0  0  0  0  0  0  0  0  0
   -5.3255    0.0002    0.3817 C   0  0  0  0  0  0  0  0  0  0  0  0
   -4.6570   -1.2411    1.0061 C   0  0  0  0  0  0  0  0  0  0  0  0
   -5.1208   -2.4747    0.4765 O   0  0  0  0  0  0  0  0  0  0  0  0
   -4.7385   -2.6836   -0.8747 C   0  0  0  0  0  0  0  0  0  0  0  0
   -3.2411   -2.9707   -1.0428 C   0  0  0  0  0  0  0  0  0  0  0  0
   -2.5441   -1.7540   -1.2131 O   0  0  0  0  0  0  0  0  0  0  0  0
   -1.2090   -2.0183   -1.5854 C   0  0  0  0  0  0  0  0  0  0  0  0
   -0.4592   -0.6988   -1.7096 C   0  0  0  0  0  0  0  0  0  0  0  0
   -0.3108   -0.1292   -0.4249 O   0  0  0  0  0  0  0  0  0  0  0  0
    0.1902    1.1935   -0.5087 C   0  0  0  0  0  0  0  0  0  0  0  0
    1.7173    1.2114   -0.6514 C   0  0  0  0  0  0  0  0  0  0  0  0
    2.0666    1.0949   -2.0186 O   0  0  0  0  0  0  0  0  0  0  0  0
    3.2650    0.3666   -2.1972 C   0  0  0  0  0  0  0  0  0  0  0  0
    4.5055    1.2436   -1.9663 C   0  0  0  0  0  0  0  0  0  0  0  0
    4.6875    1.5458   -0.5946 O   0  0  0  0  0  0  0  0  0  0  0  0
    5.4271    0.5286    0.0602 C   0  0  0  0  0  0  0  0  0  0  0  0
    6.9160    0.8788    0.1021 C   0  0  0  0  0  0  0  0  0  0  0  0
    7.1092    2.0323    0.8989 O   0  0  0  0  0  0  0  0  0  0  0  0
    8.4740    2.4214    0.9025 C   0  0  0  0  0  0  0  0  0  0  0  0
    9.3005    1.5852    1.8853 C   0  0  0  0  0  0  0  0  0  0  0  0
    9.7950    0.4407    1.2278 O   0  0  0  0  0  0  0  0  0  0  0  0
   10.2116   -0.5198    2.1730 C   0  0  0  0  0  0  0  0  0  0  0  0
   10.8802   -1.6900    1.4517 C   0  0  0  0  0  0  0  0  0  0  0  0
   12.1346   -1.2902    0.9299 O   0  0  0  0  0  0  0  0  0  0  0  0
   12.0517   -1.0508   -0.4636 C   0  0  0  0  0  0  0  0  0  0  0  0
   13.3069   -0.3114   -0.9322 C   0  0  0  0  0  0  0  0  0  0  0  0
   13.2523    1.0545   -0.5599 O   0  0  0  0  0  0  0  0  0  0  0  0
   13.9435    1.2912    0.6559 C   0  0  0  0  0  0  0  0  0  0  0  0
   15.4085    1.6542    0.3872 C   0  0  0  0  0  0  0  0  0  0  0  0
   15.4901    2.8196   -0.3913 O   0  0  0  0  0  0  0  0  0  0  0  0
  -15.7608    1.3053   -1.4038 H   0  0  0  0  0  0  0  0  0  0  0  0
  -17.2030    1.5553   -0.3636 H   0  0  0  0  0  0  0  0  0  0  0  0
  -15.7134    2.5275   -0.0722 H   0  0  0  0  0  0  0  0  0  0  0  0
  -16.0846    0.6405    1.5851 H   0  0  0  0  0  0  0  0  0  0  0  0
  -15.9373   -0.5416    0.2462 H   0  0  0  0  0  0  0  0  0  0  0  0
  -13.7376    1.5004    1.0254 H   0  0  0  0  0  0  0  0  0  0  0  0
  -13.8526   -0.1683    1.6796 H   0  0  0  0  0  0  0  0  0  0  0  0
  -13.6675   -1.1183   -0.6476 H   0  0  0  0  0  0  0  0  0  0  0  0
  -13.5633    0.5495   -1.3079 H   0  0  0  0  0  0  0  0  0  0  0  0
  -11.3325   -0.2452   -1.2266 H   0  0  0  0  0  0  0  0  0  0  0  0
  -11.4882    0.9514    0.1070 H   0  0  0  0  0  0  0  0  0  0  0  0
  -11.6650   -0.9134    1.7789 H   0  0  0  0  0  0  0  0  0  0  0  0
  -11.7204   -2.1207    0.4562 H   0  0  0  0  0  0  0  0  0  0  0  0
   -9.4010   -1.3441   -0.2805 H   0  0  0  0  0  0  0  0  0  0  0  0
   -9.4934   -2.1768    1.3100 H   0  0  0  0  0  0  0  0  0  0  0  0
   -9.5213    0.0520    2.4874 H   0  0  0  0  0  0  0  0  0  0  0  0
   -9.3172    0.8926    0.9152 H   0  0  0  0  0  0  0  0  0  0  0  0
   -7.2004    0.5928    2.2554 H   0  0  0  0  0  0  0  0  0  0  0  0
   -7.3457   -1.1893    2.0761 H   0  0  0  0  0  0  0  0  0  0  0  0
   -7.2110    0.7724   -0.3119 H   0  0  0  0  0  0  0  0  0  0  0  0
   -7.0948   -1.0079   -0.3802 H   0  0  0  0  0  0  0  0  0  0  0  0
   -5.0817    0.8876    1.0052 H   0  0  0  0  0  0  0  0  0  0  0  0
   -4.8799    0.1973   -0.6181 H   0  0  0  0  0  0  0  0  0  0  0  0
   -4.8926   -1.2394    2.0939 H   0  0  0  0  0  0  0  0  0  0  0  0
   -3.5507   -1.1603    0.9493 H   0  0  0  0  0  0  0  0  0  0  0  0
   -5.0606   -1.8598   -1.5470 H   0  0  0  0  0  0  0  0  0  0  0  0
   -5.2940   -3.5817   -1.2279 H   0  0  0  0  0  0  0  0  0  0  0  0
   -3.1230   -3.6246   -1.9383 H   0  0  0  0  0  0  0  0  0  0  0  0
   -2.8611   -3.5155   -0.1500 H   0  0  0  0  0  0  0  0  0  0  0  0
   -1.1703   -2.5298   -2.5714 H   0  0  0  0  0  0  0  0  0  0  0  0
   -0.6985   -2.6534   -0.8259 H   0  0  0  0  0  0  0  0  0  0  0  0
   -1.0351   -0.0370   -2.3964 H   0  0  0  0  0  0  0  0  0  0  0  0
    0.5376   -0.9120   -2.1504 H   0  0  0  0  0  0  0  0  0  0  0  0
   -0.2982    1.7993   -1.3094 H   0  0  0  0  0  0  0  0  0  0  0  0
   -0.0616    1.6983    0.4492 H   0  0  0  0  0  0  0  0  0  0  0  0
    2.1400    0.4091    0.0004 H   0  0  0  0  0  0  0  0  0  0  0  0
    2.0946    2.1893   -0.2775 H   0  0  0  0  0  0  0  0  0  0  0  0
    3.2914    0.0266   -3.2547 H   0  0  0  0  0  0  0  0  0  0  0  0
    3.2945   -0.5658   -1.5908 H   0  0  0  0  0  0  0  0  0  0  0  0
    5.4045    0.7641   -2.4204 H   0  0  0  0  0  0  0  0  0  0  0  0
    4.3633    2.1992   -2.5141 H   0  0  0  0  0  0  0  0  0  0  0  0
    5.0586    0.4494    1.1050 H   0  0  0  0  0  0  0  0  0  0  0  0
    5.2933   -0.4831   -0.3928 H   0  0  0  0  0  0  0  0  0  0  0  0
    7.2814    1.0395   -0.9386 H   0  0  0  0  0  0  0  0  0  0  0  0
    7.4467    0.0044    0.5426 H   0  0  0  0  0  0  0  0  0  0  0  0
    8.9272    2.4057   -0.1169 H   0  0  0  0  0  0  0  0  0  0  0  0
    8.5164    3.4821    1.2401 H   0  0  0  0  0  0  0  0  0  0  0  0
    8.6587    1.3292    2.7603 H   0  0  0  0  0  0  0  0  0  0  0  0
   10.1590    2.1968    2.2405 H   0  0  0  0  0  0  0  0  0  0  0  0
   10.9401   -0.0856    2.8952 H   0  0  0  0  0  0  0  0  0  0  0  0
    9.3320   -0.9132    2.7308 H   0  0  0  0  0  0  0  0  0  0  0  0
   10.1842   -2.1249    0.6929 H   0  0  0  0  0  0  0  0  0  0  0  0
   11.0650   -2.4941    2.1972 H   0  0  0  0  0  0  0  0  0  0  0  0
   11.1596   -0.4379   -0.7376 H   0  0  0  0  0  0  0  0  0  0  0  0
   11.9950   -2.0255   -1.0036 H   0  0  0  0  0  0  0  0  0  0  0  0
   14.2249   -0.8418   -0.5821 H   0  0  0  0  0  0  0  0  0  0  0  0
   13.3323   -0.3509   -2.0428 H   0  0  0  0  0  0  0  0  0  0  0  0
   13.4573    2.1511    1.1636 H   0  0  0  0  0  0  0  0  0  0  0  0
   13.8901    0.4367    1.3697 H   0  0  0  0  0  0  0  0  0  0  0  0
   15.9129    1.8423    1.3613 H   0  0  0  0  0  0  0  0  0  0  0  0
   15.9417    0.8064   -0.1009 H   0  0  0  0  0  0  0  0  0  0  0  0
   15.3890    2.5339   -1.3345 H   0  0  0  0  0  0  0  0  0  0  0  0
  1  2  1  0
  2  3  1  0
  3  4  1  0
  4  5  1  0
  5  6  1  0
  6  7  1  0
  7  8  1  0
  8  9  1  0
  9 10  1  0
 10 11  1  0
 11 12  1  0
 12 13  1  0
 13 14  1  0
 14 15  1  0
 15 16  1  0
 16 17  1  0
 17 18  1  0
 18 19  1  0
 19 20  1  0
 20 21  1  0
 21 22  1  0
 22 23  1  0
 23 24  1  0
 24 25  1  0
 25 26  1  0
 26 27  1  0
 27 28  1  0
 28 29  1  0
 29 30  1  0
 30 31  1  0
 31 32  1  0
 32 33  1  0
 33 34  1  0
 34 35  1  0
 35 36  1  0
 36 37  1  0
 37 38  1  0
 38 39  1  0
 39 40  1  0
  1 41  1  0
  1 42  1  0
  1 43  1  0
  2 44  1  0
  2 45  1  0
  3 46  1  0
  3 47  1  0
  4 48  1  0
  4 49  1  0
  5 50  1  0
  5 51  1  0
  6 52  1  0
  6 53  1  0
  7 54  1  0
  7 55  1  0
  8 56  1  0
  8 57  1  0
  9 58  1  0
  9 59  1  0
 10 60  1  0
 10 61  1  0
 11 62  1  0
 11 63  1  0
 12 64  1  0
 12 65  1  0
 14 66  1  0
 14 67  1  0
 15 68  1  0
 15 69  1  0
 17 70  1  0
 17 71  1  0
 18 72  1  0
 18 73  1  0
 20 74  1  0
 20 75  1  0
 21 76  1  0
 21 77  1  0
 23 78  1  0
 23 79  1  0
 24 80  1  0
 24 81  1  0
 26 82  1  0
 26 83  1  0
 27 84  1  0
 27 85  1  0
 29 86  1  0
 29 87  1  0
 30 88  1  0
 30 89  1  0
 32 90  1  0
 32 91  1  0
 33 92  1  0
 33 93  1  0
 35 94  1  0
 35 95  1  0
 36 96  1  0
 36 97  1  0
 38 98  1  0
 38 99  1  0
 39100  1  0
 39101  1  0
 40102  1  0
M  END
> <ID>
HT1705

> <Class>
0.0

> <Clusters>
278

> <Fold>
3

$$$$