
     RDKit          3D

109112  0  0  0  0  0  0  0  0999 V2000
   -5.3555   -5.1474   -2.2142 C   0  0  0  0  0  0  0  0  0  0  0  0
   -4.2242   -5.5280   -1.4610 O   0  0  0  0  0  0  0  0  0  0  0  0
   -3.0707   -4.8430   -1.9192 C   0  0  1  0  0  0  0  0  0  0  0  0
   -2.9526   -3.4769   -1.2157 C   0  0  0  0  0  0  0  0  0  0  0  0
   -1.4868   -3.0128   -1.0749 C   0  0  2  0  0  0  0  0  0  0  0  0
   -1.4600   -1.5981   -1.1665 O   0  0  0  0  0  0  0  0  0  0  0  0
   -0.9232   -0.9511   -0.0162 C   0  0  1  0  0  0  0  0  0  0  0  0
   -0.2343    0.3967   -0.4576 C   0  0  2  0  0  0  0  0  0  0  0  0
    0.2651    0.2989   -1.9186 C   0  0  0  0  0  0  0  0  0  0  0  0
    0.9186    0.8612    0.5169 C   0  0  1  0  0  0  0  0  0  0  0  0
    2.1919    0.6778   -0.0969 O   0  0  0  0  0  0  0  0  0  0  0  0
    3.2003    0.1820    0.7717 C   0  0  2  0  0  0  0  0  0  0  0  0
    4.3355    1.0213    0.6234 O   0  0  0  0  0  0  0  0  0  0  0  0
    5.3777    0.6294    1.5023 C   0  0  2  0  0  0  0  0  0  0  0  0
    6.4966    1.6683    1.4341 C   0  0  0  0  0  0  0  0  0  0  0  0
    5.9100   -0.7552    1.0988 C   0  0  0  0  0  0  0  0  0  0  0  0
    4.7565   -1.7811    1.1535 C   0  0  1  0  0  0  0  0  0  0  0  0
    3.5478   -1.2590    0.3415 C   0  0  1  0  0  0  0  0  0  0  0  0
    2.4366   -2.0883    0.5576 O   0  0  0  0  0  0  0  0  0  0  0  0
    5.1350   -3.1600    0.7259 N   0  0  0  0  0  0  0  0  0  0  0  0
    5.8371   -3.8956    1.7926 C   0  0  0  0  0  0  0  0  0  0  0  0
    5.8991   -3.2339   -0.5331 C   0  0  0  0  0  0  0  0  0  0  0  0
    0.7495    2.3555    0.9603 C   0  0  1  0  0  0  0  0  0  0  0  0
    1.6330    2.6774    2.1779 C   0  0  0  0  0  0  0  0  0  0  0  0
    0.9980    3.3928   -0.1771 C   0  0  0  0  0  0  0  0  0  0  0  0
   -0.2978    3.9671   -0.8130 C   0  0  1  0  0  0  0  0  0  0  0  0
   -0.1263    4.4105   -2.2260 C   0  0  0  0  0  0  0  0  0  0  0  0
   -0.8351    3.2352   -1.8890 O   0  0  0  0  0  0  0  0  0  0  0  0
   -1.3059    4.7637    0.0109 C   0  0  0  0  0  0  0  0  0  0  0  0
   -0.9853    5.1119    1.1409 O   0  0  0  0  0  0  0  0  0  0  0  0
   -2.6472    5.2345   -0.5465 C   0  0  2  0  0  0  0  0  0  0  0  0
   -2.5520    6.7569   -0.7684 C   0  0  0  0  0  0  0  0  0  0  0  0
   -3.8651    4.8790    0.3812 C   0  0  1  0  0  0  0  0  0  0  0  0
   -4.9931    5.6572    0.0521 O   0  0  0  0  0  0  0  0  0  0  0  0
   -4.2968    3.3687    0.4218 C   0  0  1  0  0  0  0  0  0  0  0  0
   -4.5201    2.7861   -0.9855 C   0  0  0  0  0  0  0  0  0  0  0  0
   -3.3518    2.4496    1.2488 C   0  0  1  0  0  0  0  0  0  0  0  0
   -3.2421    2.8952    2.7162 C   0  0  0  0  0  0  0  0  0  0  0  0
   -3.8294    1.1000    1.2330 O   0  0  0  0  0  0  0  0  0  0  0  0
   -3.2244    0.0847    0.4780 C   0  0  0  0  0  0  0  0  0  0  0  0
   -3.7232   -0.2110   -0.6397 O   0  0  0  0  0  0  0  0  0  0  0  0
   -2.0859   -0.7632    1.0190 C   0  0  2  0  0  0  0  0  0  0  0  0
   -1.6092   -0.3258    2.4083 C   0  0  0  0  0  0  0  0  0  0  0  0
   -0.6934   -3.5284   -2.1311 O   0  0  0  0  0  0  0  0  0  0  0  0
   -0.5529   -4.9449   -2.0757 C   0  0  1  0  0  0  0  0  0  0  0  0
    0.6783   -5.3320   -1.2477 C   0  0  0  0  0  0  0  0  0  0  0  0
   -1.8339   -5.6915   -1.6041 C   0  0  2  0  0  0  0  0  0  0  0  0
   -1.9460   -6.9316   -2.2526 O   0  0  0  0  0  0  0  0  0  0  0  0
   -5.5190   -4.0482   -2.1872 H   0  0  0  0  0  0  0  0  0  0  0  0
   -5.2669   -5.4975   -3.2632 H   0  0  0  0  0  0  0  0  0  0  0  0
   -6.2541   -5.6217   -1.7699 H   0  0  0  0  0  0  0  0  0  0  0  0
   -3.0861   -4.6813   -3.0253 H   0  0  0  0  0  0  0  0  0  0  0  0
   -3.4011   -3.5440   -0.1980 H   0  0  0  0  0  0  0  0  0  0  0  0
   -3.5430   -2.7272   -1.7909 H   0  0  0  0  0  0  0  0  0  0  0  0
   -1.1026   -3.3974   -0.1003 H   0  0  0  0  0  0  0  0  0  0  0  0
   -0.1226   -1.5757    0.4445 H   0  0  0  0  0  0  0  0  0  0  0  0
   -1.0210    1.1731   -0.4716 H   0  0  0  0  0  0  0  0  0  0  0  0
   -0.5935    0.1975   -2.6116 H   0  0  0  0  0  0  0  0  0  0  0  0
    0.9319   -0.5831   -2.0409 H   0  0  0  0  0  0  0  0  0  0  0  0
    0.8169    1.2078   -2.2215 H   0  0  0  0  0  0  0  0  0  0  0  0
    0.8245    0.2419    1.4310 H   0  0  0  0  0  0  0  0  0  0  0  0
    2.8895    0.1715    1.8456 H   0  0  0  0  0  0  0  0  0  0  0  0
    5.0180    0.5998    2.5570 H   0  0  0  0  0  0  0  0  0  0  0  0
    6.8827    1.7568    0.3941 H   0  0  0  0  0  0  0  0  0  0  0  0
    6.1032    2.6598    1.7520 H   0  0  0  0  0  0  0  0  0  0  0  0
    7.3320    1.3833    2.1128 H   0  0  0  0  0  0  0  0  0  0  0  0
    6.3238   -0.6867    0.0707 H   0  0  0  0  0  0  0  0  0  0  0  0
    6.7248   -1.0600    1.7886 H   0  0  0  0  0  0  0  0  0  0  0  0
    4.4159   -1.8235    2.2135 H   0  0  0  0  0  0  0  0  0  0  0  0
    3.7962   -1.2264   -0.7438 H   0  0  0  0  0  0  0  0  0  0  0  0
    2.5023   -2.8379   -0.0873 H   0  0  0  0  0  0  0  0  0  0  0  0
    6.8050   -3.4130    2.0488 H   0  0  0  0  0  0  0  0  0  0  0  0
    5.2040   -3.9571    2.7030 H   0  0  0  0  0  0  0  0  0  0  0  0
    6.0346   -4.9410    1.4691 H   0  0  0  0  0  0  0  0  0  0  0  0
    5.9134   -4.2829   -0.8963 H   0  0  0  0  0  0  0  0  0  0  0  0
    6.9506   -2.9021   -0.3904 H   0  0  0  0  0  0  0  0  0  0  0  0
    5.4268   -2.6290   -1.3306 H   0  0  0  0  0  0  0  0  0  0  0  0
   -0.2782    2.4844    1.3376 H   0  0  0  0  0  0  0  0  0  0  0  0
    1.3683    3.6813    2.5774 H   0  0  0  0  0  0  0  0  0  0  0  0
    2.7065    2.6888    1.9020 H   0  0  0  0  0  0  0  0  0  0  0  0
    1.4585    1.9372    2.9898 H   0  0  0  0  0  0  0  0  0  0  0  0
    1.5609    4.2691    0.2179 H   0  0  0  0  0  0  0  0  0  0  0  0
    1.6640    2.9572   -0.9499 H   0  0  0  0  0  0  0  0  0  0  0  0
   -0.8198    5.1646   -2.6563 H   0  0  0  0  0  0  0  0  0  0  0  0
    0.8209    4.1532   -2.7472 H   0  0  0  0  0  0  0  0  0  0  0  0
   -2.8232    4.7818   -1.5437 H   0  0  0  0  0  0  0  0  0  0  0  0
   -3.4109    7.1233   -1.3673 H   0  0  0  0  0  0  0  0  0  0  0  0
   -2.5327    7.2971    0.2025 H   0  0  0  0  0  0  0  0  0  0  0  0
   -1.6307    7.0144   -1.3312 H   0  0  0  0  0  0  0  0  0  0  0  0
   -3.6001    5.1953    1.4089 H   0  0  0  0  0  0  0  0  0  0  0  0
   -5.1563    5.5757   -0.9221 H   0  0  0  0  0  0  0  0  0  0  0  0
   -5.2861    3.3387    0.9323 H   0  0  0  0  0  0  0  0  0  0  0  0
   -5.1421    1.8702   -0.9214 H   0  0  0  0  0  0  0  0  0  0  0  0
   -3.5511    2.5276   -1.4612 H   0  0  0  0  0  0  0  0  0  0  0  0
   -5.0681    3.4868   -1.6467 H   0  0  0  0  0  0  0  0  0  0  0  0
   -2.3542    2.4864    0.7876 H   0  0  0  0  0  0  0  0  0  0  0  0
   -2.7796    2.0978    3.3289 H   0  0  0  0  0  0  0  0  0  0  0  0
   -2.5974    3.7894    2.8176 H   0  0  0  0  0  0  0  0  0  0  0  0
   -4.2467    3.1046    3.1378 H   0  0  0  0  0  0  0  0  0  0  0  0
   -2.5266   -1.7678    1.1839 H   0  0  0  0  0  0  0  0  0  0  0  0
   -0.8178   -1.0125    2.7783 H   0  0  0  0  0  0  0  0  0  0  0  0
   -1.2087    0.7030    2.3926 H   0  0  0  0  0  0  0  0  0  0  0  0
   -2.4533   -0.3688    3.1282 H   0  0  0  0  0  0  0  0  0  0  0  0
   -0.3494   -5.2693   -3.1176 H   0  0  0  0  0  0  0  0  0  0  0  0
    0.5439   -5.0564   -0.1825 H   0  0  0  0  0  0  0  0  0  0  0  0
    0.8556   -6.4268   -1.3188 H   0  0  0  0  0  0  0  0  0  0  0  0
    1.5782   -4.8092   -1.6386 H   0  0  0  0  0  0  0  0  0  0  0  0
   -1.8000   -5.8506   -0.4991 H   0  0  0  0  0  0  0  0  0  0  0  0
   -1.2522   -7.5252   -1.8581 H   0  0  0  0  0  0  0  0  0  0  0  0
  1  2  1  0
  3  2  1  0
  3  4  1  0
  4  5  1  0
  5  6  1  0
  7  6  1  0
  7  8  1  0
  8  9  1  0
  8 10  1  0
 10 11  1  0
 12 11  1  0
 12 13  1  0
 13 14  1  0
 14 15  1  0
 14 16  1  0
 16 17  1  0
 17 18  1  0
 18 12  1  0
 18 19  1  0
 17 20  1  0
 20 21  1  0
 20 22  1  0
 10 23  1  0
 23 24  1  0
 23 25  1  0
 26 25  1  0
 26 27  1  0
 27 28  1  0
 26 28  1  6
 26 29  1  0
 29 30  2  0
 29 31  1  0
 31 32  1  0
 31 33  1  0
 33 34  1  0
 33 35  1  0
 35 36  1  0
 35 37  1  0
 37 38  1  0
 37 39  1  0
 39 40  1  0
 40 41  2  0
 40 42  1  0
 42  7  1  0
 42 43  1  0
  5 44  1  0
 44 45  1  0
 45 46  1  0
 45 47  1  0
 47  3  1  0
 47 48  1  0
  1 49  1  0
  1 50  1  0
  1 51  1  0
  3 52  1  6
  4 53  1  0
  4 54  1  0
  5 55  1  1
  7 56  1  1
  8 57  1  6
  9 58  1  0
  9 59  1  0
  9 60  1  0
 10 61  1  1
 12 62  1  1
 14 63  1  1
 15 64  1  0
 15 65  1  0
 15 66  1  0
 16 67  1  0
 16 68  1  0
 17 69  1  1
 18 70  1  6
 19 71  1  0
 21 72  1  0
 21 73  1  0
 21 74  1  0
 22 75  1  0
 22 76  1  0
 22 77  1  0
 23 78  1  1
 24 79  1  0
 24 80  1  0
 24 81  1  0
 25 82  1  0
 25 83  1  0
 27 84  1  0
 27 85  1  0
 31 86  1  6
 32 87  1  0
 32 88  1  0
 32 89  1  0
 33 90  1  1
 34 91  1  0
 35 92  1  1
 36 93  1  0
 36 94  1  0
 36 95  1  0
 37 96  1  6
 38 97  1  0
 38 98  1  0
 38 99  1  0
 42100  1  1
 43101  1  0
 43102  1  0
 43103  1  0
 45104  1  6
 46105  1  0
 46106  1  0
 46107  1  0
 47108  1  1
 48109  1  0
M  END
> <ID>
HT3989

> <Class>
0.0

> <Clusters>
95

> <Fold>
3

$$$$