
     RDKit          3D

 78 82  0  0  0  0  0  0  0  0999 V2000
    2.1193    0.1010    5.9036 C   0  0  0  0  0  0  0  0  0  0  0  0
    2.3648    0.5221    4.5637 O   0  0  0  0  0  0  0  0  0  0  0  0
    1.5130    0.2447    3.4876 C   0  0  0  0  0  0  0  0  0  0  0  0
    0.4612   -0.4312    3.6517 O   0  0  0  0  0  0  0  0  0  0  0  0
    1.8758    0.7377    2.1168 C   0  0  0  0  0  0  0  0  0  0  0  0
    2.5637   -0.3563    1.2571 C   0  0  2  0  0  0  0  0  0  0  0  0
    3.6398   -0.8711    2.0127 O   0  0  0  0  0  0  0  0  0  0  0  0
    3.1327    0.2560   -0.0587 C   0  0  0  0  0  0  0  0  0  0  0  0
    2.1214    1.0683   -0.8864 C   0  0  0  0  0  0  0  0  0  0  0  0
    2.5538    1.3016   -2.3489 C   0  0  0  0  0  0  0  0  0  0  0  0
    3.7920    2.2276   -2.5608 C   0  0  0  0  0  0  0  0  0  0  0  0
    5.0967    1.3996   -2.5917 C   0  0  0  0  0  0  0  0  0  0  0  0
    3.6427    2.9591   -3.9107 C   0  0  0  0  0  0  0  0  0  0  0  0
    3.8530    3.1823   -1.5263 O   0  0  0  0  0  0  0  0  0  0  0  0
    1.5826   -1.4777    0.9433 C   0  0  0  0  0  0  0  0  0  0  0  0
    1.9664   -2.6792    0.9689 O   0  0  0  0  0  0  0  0  0  0  0  0
    0.2446   -1.1754    0.6635 O   0  0  0  0  0  0  0  0  0  0  0  0
   -0.7886   -2.1570    0.5581 C   0  0  1  0  0  0  0  0  0  0  0  0
   -2.1945   -1.5500    0.8010 C   0  0  1  0  0  0  0  0  0  0  0  0
   -2.1664   -0.0448    1.0913 C   0  0  0  0  0  0  0  0  0  0  0  0
   -2.3611    0.3771    2.4291 C   0  0  0  0  0  0  0  0  0  0  0  0
   -2.2629    1.7307    2.7216 C   0  0  0  0  0  0  0  0  0  0  0  0
   -2.4006    2.3566    3.9451 O   0  0  0  0  0  0  0  0  0  0  0  0
   -2.2037    3.7635    3.7475 C   0  0  0  0  0  0  0  0  0  0  0  0
   -1.9462    3.9090    2.3449 O   0  0  0  0  0  0  0  0  0  0  0  0
   -1.9957    2.6535    1.7703 C   0  0  0  0  0  0  0  0  0  0  0  0
   -1.8164    2.3077    0.4383 C   0  0  0  0  0  0  0  0  0  0  0  0
   -1.9012    0.9427    0.0805 C   0  0  0  0  0  0  0  0  0  0  0  0
   -1.7335    0.5672   -1.3720 C   0  0  0  0  0  0  0  0  0  0  0  0
   -3.0269    0.0168   -1.9856 C   0  0  0  0  0  0  0  0  0  0  0  0
   -3.7849   -0.8390   -1.0471 N   0  0  0  0  0  0  0  0  0  0  0  0
   -5.0078   -1.3850   -1.6570 C   0  0  0  0  0  0  0  0  0  0  0  0
   -5.2143   -2.7967   -1.1169 C   0  0  0  0  0  0  0  0  0  0  0  0
   -4.1493   -2.9811   -0.0555 C   0  0  0  0  0  0  0  0  0  0  0  0
   -3.0589   -1.9718   -0.4307 C   0  0  2  0  0  0  0  0  0  0  0  0
   -2.0703   -2.6296   -1.3533 C   0  0  0  0  0  0  0  0  0  0  0  0
   -0.8603   -2.7214   -0.8176 C   0  0  0  0  0  0  0  0  0  0  0  0
    0.2519   -3.2947   -1.4475 O   0  0  0  0  0  0  0  0  0  0  0  0
    0.2356   -3.8008   -2.7784 C   0  0  0  0  0  0  0  0  0  0  0  0
    2.0451    0.9960    6.5572 H   0  0  0  0  0  0  0  0  0  0  0  0
    2.9680   -0.5263    6.2483 H   0  0  0  0  0  0  0  0  0  0  0  0
    1.1810   -0.4864    5.9960 H   0  0  0  0  0  0  0  0  0  0  0  0
    0.9549    1.1171    1.6233 H   0  0  0  0  0  0  0  0  0  0  0  0
    2.5634    1.6038    2.2287 H   0  0  0  0  0  0  0  0  0  0  0  0
    4.1523   -1.5040    1.4421 H   0  0  0  0  0  0  0  0  0  0  0  0
    3.5451   -0.5659   -0.6851 H   0  0  0  0  0  0  0  0  0  0  0  0
    3.9722    0.9300    0.2149 H   0  0  0  0  0  0  0  0  0  0  0  0
    1.9166    2.0432   -0.3937 H   0  0  0  0  0  0  0  0  0  0  0  0
    1.1635    0.5216   -0.9219 H   0  0  0  0  0  0  0  0  0  0  0  0
    1.6703    1.7535   -2.8520 H   0  0  0  0  0  0  0  0  0  0  0  0
    2.7097    0.3191   -2.8475 H   0  0  0  0  0  0  0  0  0  0  0  0
    5.0354    0.5895   -3.3522 H   0  0  0  0  0  0  0  0  0  0  0  0
    5.3118    0.9439   -1.6061 H   0  0  0  0  0  0  0  0  0  0  0  0
    5.9619    2.0476   -2.8489 H   0  0  0  0  0  0  0  0  0  0  0  0
    3.5393    2.2284   -4.7424 H   0  0  0  0  0  0  0  0  0  0  0  0
    4.5271    3.5991   -4.1121 H   0  0  0  0  0  0  0  0  0  0  0  0
    2.7458    3.6137   -3.8971 H   0  0  0  0  0  0  0  0  0  0  0  0
    4.6599    3.7451   -1.6708 H   0  0  0  0  0  0  0  0  0  0  0  0
   -0.6053   -2.9824    1.2830 H   0  0  0  0  0  0  0  0  0  0  0  0
   -2.5877   -2.0603    1.7102 H   0  0  0  0  0  0  0  0  0  0  0  0
   -2.5587   -0.3308    3.2245 H   0  0  0  0  0  0  0  0  0  0  0  0
   -1.3300    4.1165    4.3352 H   0  0  0  0  0  0  0  0  0  0  0  0
   -3.1191    4.3237    4.0290 H   0  0  0  0  0  0  0  0  0  0  0  0
   -1.6164    3.0767   -0.2979 H   0  0  0  0  0  0  0  0  0  0  0  0
   -0.9234   -0.1724   -1.4825 H   0  0  0  0  0  0  0  0  0  0  0  0
   -1.4050    1.4423   -1.9728 H   0  0  0  0  0  0  0  0  0  0  0  0
   -3.6682    0.8815   -2.2666 H   0  0  0  0  0  0  0  0  0  0  0  0
   -2.7805   -0.5322   -2.9219 H   0  0  0  0  0  0  0  0  0  0  0  0
   -5.8676   -0.7415   -1.3750 H   0  0  0  0  0  0  0  0  0  0  0  0
   -4.9447   -1.4221   -2.7685 H   0  0  0  0  0  0  0  0  0  0  0  0
   -5.0660   -3.5398   -1.9309 H   0  0  0  0  0  0  0  0  0  0  0  0
   -6.2324   -2.9245   -0.6901 H   0  0  0  0  0  0  0  0  0  0  0  0
   -3.7804   -4.0312   -0.0191 H   0  0  0  0  0  0  0  0  0  0  0  0
   -4.5958   -2.7240    0.9316 H   0  0  0  0  0  0  0  0  0  0  0  0
   -2.3287   -3.0030   -2.3356 H   0  0  0  0  0  0  0  0  0  0  0  0
   -0.0462   -2.9951   -3.4896 H   0  0  0  0  0  0  0  0  0  0  0  0
   -0.4835   -4.6435   -2.8550 H   0  0  0  0  0  0  0  0  0  0  0  0
    1.2489   -4.1688   -3.0400 H   0  0  0  0  0  0  0  0  0  0  0  0
  1  2  1  0
  2  3  1  0
  3  4  2  0
  3  5  1  0
  5  6  1  0
  6  7  1  1
  6  8  1  0
  8  9  1  0
  9 10  1  0
 10 11  1  0
 11 12  1  0
 11 13  1  0
 11 14  1  0
  6 15  1  0
 15 16  2  0
 15 17  1  0
 18 17  1  0
 18 19  1  0
 19 20  1  0
 20 21  2  0
 21 22  1  0
 22 23  1  0
 23 24  1  0
 24 25  1  0
 25 26  1  0
 26 22  2  0
 26 27  1  0
 27 28  2  0
 28 20  1  0
 28 29  1  0
 29 30  1  0
 30 31  1  0
 31 32  1  0
 32 33  1  0
 33 34  1  0
 35 34  1  0
 35 19  1  0
 35 31  1  0
 35 36  1  6
 36 37  2  0
 37 18  1  0
 37 38  1  0
 38 39  1  0
  1 40  1  0
  1 41  1  0
  1 42  1  0
  5 43  1  0
  5 44  1  0
  7 45  1  0
  8 46  1  0
  8 47  1  0
  9 48  1  0
  9 49  1  0
 10 50  1  0
 10 51  1  0
 12 52  1  0
 12 53  1  0
 12 54  1  0
 13 55  1  0
 13 56  1  0
 13 57  1  0
 14 58  1  0
 18 59  1  1
 19 60  1  1
 21 61  1  0
 24 62  1  0
 24 63  1  0
 27 64  1  0
 29 65  1  0
 29 66  1  0
 30 67  1  0
 30 68  1  0
 32 69  1  0
 32 70  1  0
 33 71  1  0
 33 72  1  0
 34 73  1  0
 34 74  1  0
 36 75  1  0
 39 76  1  0
 39 77  1  0
 39 78  1  0
M  END
> <ID>
HT1539

> <Class>
0.0

> <Clusters>
261

> <Fold>
3

$$$$