
     RDKit          3D

 37 38  0  0  0  0  0  0  0  0999 V2000
   -0.3882   -2.8555   -0.0550 O   0  0  0  0  0  0  0  0  0  0  0  0
   -1.0287   -1.7692   -0.6794 C   0  0  0  0  0  0  0  0  0  0  0  0
   -0.5800   -0.4172   -0.0699 C   0  0  0  0  0  0  0  0  0  0  0  0
    0.7756   -0.5154    0.3318 O   0  0  0  0  0  0  0  0  0  0  0  0
    1.2914    0.7343    0.7608 C   0  0  0  0  0  0  0  0  0  0  0  0
    1.2173    0.8185    2.2274 C   0  0  0  0  0  0  0  0  0  0  0  0
    1.1579    0.8837    3.3814 N   0  0  0  0  0  0  0  0  0  0  0  0
    2.7332    0.8392    0.3263 C   0  0  0  0  0  0  0  0  0  0  0  0
    3.6624   -0.1550    0.6874 C   0  0  0  0  0  0  0  0  0  0  0  0
    4.9947   -0.0616    0.2744 C   0  0  0  0  0  0  0  0  0  0  0  0
    5.4117    1.0199   -0.5055 C   0  0  0  0  0  0  0  0  0  0  0  0
    4.4972    2.0093   -0.8744 C   0  0  0  0  0  0  0  0  0  0  0  0
    3.1635    1.9211   -0.4638 C   0  0  0  0  0  0  0  0  0  0  0  0
   -1.3974   -0.1012    1.0461 O   0  0  0  0  0  0  0  0  0  0  0  0
   -2.7296    0.2350    0.6597 C   0  0  0  0  0  0  0  0  0  0  0  0
   -3.2641   -0.5779   -0.5568 C   0  0  0  0  0  0  0  0  0  0  0  0
   -4.6532   -0.7517   -0.4329 O   0  0  0  0  0  0  0  0  0  0  0  0
   -2.5673   -1.9462   -0.6107 C   0  0  0  0  0  0  0  0  0  0  0  0
   -3.0203   -2.6633   -1.7298 O   0  0  0  0  0  0  0  0  0  0  0  0
   -2.8678    1.7214    0.4356 C   0  0  0  0  0  0  0  0  0  0  0  0
   -1.8489    2.4611    0.4129 O   0  0  0  0  0  0  0  0  0  0  0  0
   -4.1242    2.2992    0.2719 O   0  0  0  0  0  0  0  0  0  0  0  0
   -0.5925   -2.8053    0.9158 H   0  0  0  0  0  0  0  0  0  0  0  0
   -0.7148   -1.7665   -1.7471 H   0  0  0  0  0  0  0  0  0  0  0  0
   -0.6741    0.3607   -0.8675 H   0  0  0  0  0  0  0  0  0  0  0  0
    0.7274    1.6038    0.3497 H   0  0  0  0  0  0  0  0  0  0  0  0
    3.3529   -1.0016    1.2872 H   0  0  0  0  0  0  0  0  0  0  0  0
    5.7033   -0.8293    0.5570 H   0  0  0  0  0  0  0  0  0  0  0  0
    6.4432    1.0901   -0.8256 H   0  0  0  0  0  0  0  0  0  0  0  0
    4.8211    2.8444   -1.4824 H   0  0  0  0  0  0  0  0  0  0  0  0
    2.4695    2.6972   -0.7619 H   0  0  0  0  0  0  0  0  0  0  0  0
   -3.3698   -0.0114    1.5341 H   0  0  0  0  0  0  0  0  0  0  0  0
   -3.0336   -0.0249   -1.5001 H   0  0  0  0  0  0  0  0  0  0  0  0
   -5.0062   -0.9259   -1.3441 H   0  0  0  0  0  0  0  0  0  0  0  0
   -2.8455   -2.4978    0.3191 H   0  0  0  0  0  0  0  0  0  0  0  0
   -2.7459   -3.6079   -1.5930 H   0  0  0  0  0  0  0  0  0  0  0  0
   -4.9704    1.7460    0.3213 H   0  0  0  0  0  0  0  0  0  0  0  0
  1  2  1  0
  2  3  1  0
  3  4  1  0
  4  5  1  0
  5  6  1  0
  6  7  3  0
  5  8  1  0
  8  9  2  0
  9 10  1  0
 10 11  2  0
 11 12  1  0
 12 13  2  0
 13  8  1  0
  3 14  1  0
 14 15  1  0
 15 16  1  0
 16 17  1  0
 16 18  1  0
 18  2  1  0
 18 19  1  0
 15 20  1  0
 20 21  2  0
 20 22  1  0
  1 23  1  0
  2 24  1  0
  3 25  1  0
  5 26  1  0
  9 27  1  0
 10 28  1  0
 11 29  1  0
 12 30  1  0
 13 31  1  0
 15 32  1  0
 16 33  1  0
 17 34  1  0
 18 35  1  0
 19 36  1  0
 22 37  1  0
M  END
> <ID>
HT3403

> <Class>
0.0

> <Clusters>
24

> <Fold>
3

$$$$