
     RDKit          3D

 56 56  0  0  0  0  0  0  0  0999 V2000
    6.8097    3.6308    1.2731 C   0  0  0  0  0  0  0  0  0  0  0  0
    6.5812    2.3041    0.6310 C   0  0  0  0  0  0  0  0  0  0  0  0
    6.1125    2.2440   -0.5400 O   0  0  0  0  0  0  0  0  0  0  0  0
    6.8921    1.1396    1.3411 O   0  0  0  0  0  0  0  0  0  0  0  0
    6.6656   -0.1752    0.8359 C   0  0  0  0  0  0  0  0  0  0  0  0
    5.1918   -0.4644    0.7431 C   0  0  0  0  0  0  0  0  0  0  0  0
    4.6883   -1.6827    0.4632 C   0  0  0  0  0  0  0  0  0  0  0  0
    5.5728   -2.8960    0.3534 C   0  0  0  0  0  0  0  0  0  0  0  0
    3.2240   -1.8852    0.3880 C   0  0  0  0  0  0  0  0  0  0  0  0
    2.4089   -1.0109   -0.2127 C   0  0  0  0  0  0  0  0  0  0  0  0
    0.9468   -1.2270   -0.2369 C   0  0  0  0  0  0  0  0  0  0  0  0
    0.0997   -0.5132   -1.0039 C   0  0  0  0  0  0  0  0  0  0  0  0
    0.6005    0.4821   -2.0275 C   0  0  0  0  0  0  0  0  0  0  0  0
   -1.3565   -0.7061   -0.8054 C   0  0  0  0  0  0  0  0  0  0  0  0
   -2.2363    0.2851   -0.9734 C   0  0  0  0  0  0  0  0  0  0  0  0
   -3.6760    0.0930   -0.6879 C   0  0  0  0  0  0  0  0  0  0  0  0
   -4.4850   -0.4402   -1.6343 C   0  0  0  0  0  0  0  0  0  0  0  0
   -3.9669   -0.8085   -3.0020 C   0  0  0  0  0  0  0  0  0  0  0  0
   -5.9499   -0.6193   -1.3364 C   0  0  0  0  0  0  0  0  0  0  0  0
   -6.4686    0.6267   -0.6334 C   0  0  0  0  0  0  0  0  0  0  0  0
   -5.7278    0.8710    0.6923 C   0  0  0  0  0  0  0  0  0  0  0  0
   -4.2184    0.4180    0.7163 C   0  0  0  0  0  0  0  0  0  0  0  0
   -4.0755   -0.8529    1.5853 C   0  0  0  0  0  0  0  0  0  0  0  0
   -3.3862    1.5434    1.3815 C   0  0  0  0  0  0  0  0  0  0  0  0
    6.4384    4.4485    0.6211 H   0  0  0  0  0  0  0  0  0  0  0  0
    6.2713    3.6703    2.2414 H   0  0  0  0  0  0  0  0  0  0  0  0
    7.8955    3.7718    1.4552 H   0  0  0  0  0  0  0  0  0  0  0  0
    7.1444   -0.8917    1.5330 H   0  0  0  0  0  0  0  0  0  0  0  0
    7.1400   -0.2858   -0.1644 H   0  0  0  0  0  0  0  0  0  0  0  0
    4.5112    0.3611    0.9165 H   0  0  0  0  0  0  0  0  0  0  0  0
    6.4466   -2.6941   -0.3017 H   0  0  0  0  0  0  0  0  0  0  0  0
    5.0137   -3.7488   -0.0897 H   0  0  0  0  0  0  0  0  0  0  0  0
    5.9231   -3.1942    1.3624 H   0  0  0  0  0  0  0  0  0  0  0  0
    2.8170   -2.8092    0.7803 H   0  0  0  0  0  0  0  0  0  0  0  0
    2.8296   -0.1280   -0.6796 H   0  0  0  0  0  0  0  0  0  0  0  0
    0.5407   -1.9694    0.4416 H   0  0  0  0  0  0  0  0  0  0  0  0
    1.4615    0.0631   -2.5922 H   0  0  0  0  0  0  0  0  0  0  0  0
    0.9029    1.4240   -1.5226 H   0  0  0  0  0  0  0  0  0  0  0  0
   -0.1852    0.7061   -2.7802 H   0  0  0  0  0  0  0  0  0  0  0  0
   -1.7096   -1.6629   -0.4363 H   0  0  0  0  0  0  0  0  0  0  0  0
   -1.9100    1.2747   -1.2720 H   0  0  0  0  0  0  0  0  0  0  0  0
   -3.2249   -1.6311   -2.9161 H   0  0  0  0  0  0  0  0  0  0  0  0
   -3.4848    0.0692   -3.4783 H   0  0  0  0  0  0  0  0  0  0  0  0
   -4.7845   -1.1512   -3.6729 H   0  0  0  0  0  0  0  0  0  0  0  0
   -6.5351   -0.7788   -2.2659 H   0  0  0  0  0  0  0  0  0  0  0  0
   -6.0955   -1.5090   -0.6894 H   0  0  0  0  0  0  0  0  0  0  0  0
   -7.5593    0.5223   -0.4388 H   0  0  0  0  0  0  0  0  0  0  0  0
   -6.3312    1.5042   -1.3031 H   0  0  0  0  0  0  0  0  0  0  0  0
   -6.2971    0.3618    1.5026 H   0  0  0  0  0  0  0  0  0  0  0  0
   -5.8245    1.9571    0.9138 H   0  0  0  0  0  0  0  0  0  0  0  0
   -4.4000   -0.6520    2.6273 H   0  0  0  0  0  0  0  0  0  0  0  0
   -3.0175   -1.1889    1.6251 H   0  0  0  0  0  0  0  0  0  0  0  0
   -4.6859   -1.6863    1.1771 H   0  0  0  0  0  0  0  0  0  0  0  0
   -3.4048    2.4561    0.7487 H   0  0  0  0  0  0  0  0  0  0  0  0
   -2.3289    1.2379    1.5277 H   0  0  0  0  0  0  0  0  0  0  0  0
   -3.8039    1.7971    2.3813 H   0  0  0  0  0  0  0  0  0  0  0  0
  1  2  1  0
  2  3  2  0
  2  4  1  0
  4  5  1  0
  5  6  1  0
  6  7  2  0
  7  8  1  0
  7  9  1  0
  9 10  2  0
 10 11  1  0
 11 12  2  0
 12 13  1  0
 12 14  1  0
 14 15  2  0
 15 16  1  0
 16 17  2  0
 17 18  1  0
 17 19  1  0
 19 20  1  0
 20 21  1  0
 21 22  1  0
 22 16  1  0
 22 23  1  0
 22 24  1  0
  1 25  1  0
  1 26  1  0
  1 27  1  0
  5 28  1  0
  5 29  1  0
  6 30  1  0
  8 31  1  0
  8 32  1  0
  8 33  1  0
  9 34  1  0
 10 35  1  0
 11 36  1  0
 13 37  1  0
 13 38  1  0
 13 39  1  0
 14 40  1  0
 15 41  1  0
 18 42  1  0
 18 43  1  0
 18 44  1  0
 19 45  1  0
 19 46  1  0
 20 47  1  0
 20 48  1  0
 21 49  1  0
 21 50  1  0
 23 51  1  0
 23 52  1  0
 23 53  1  0
 24 54  1  0
 24 55  1  0
 24 56  1  0
M  END
> <ID>
HT3506

> <Class>
0.0

> <Clusters>
268

> <Fold>
3

$$$$