
     RDKit          3D

 63 65  0  0  0  0  0  0  0  0999 V2000
    7.8542   -2.0938    0.7562 C   0  0  0  0  0  0  0  0  0  0  0  0
    7.1993   -0.7735    0.3110 C   0  0  0  0  0  0  0  0  0  0  0  0
    7.2917    0.2583    1.4500 C   0  0  0  0  0  0  0  0  0  0  0  0
    7.9504   -0.2291   -0.9234 C   0  0  0  0  0  0  0  0  0  0  0  0
    5.7380   -1.0296   -0.0029 C   0  0  0  0  0  0  0  0  0  0  0  0
    5.2744   -0.8002   -1.1554 O   0  0  0  0  0  0  0  0  0  0  0  0
    4.8992   -1.5241    1.0037 O   0  0  0  0  0  0  0  0  0  0  0  0
    3.5082   -1.7501    0.8057 C   0  0  0  0  0  0  0  0  0  0  0  0
    2.8594   -0.5123    0.5365 O   0  0  0  0  0  0  0  0  0  0  0  0
    1.4975   -0.4205    0.2409 C   0  0  0  0  0  0  0  0  0  0  0  0
    0.7715   -1.4532    0.2306 O   0  0  0  0  0  0  0  0  0  0  0  0
    0.9231    0.9229   -0.1166 C   0  0  0  0  0  0  0  0  0  0  0  0
   -0.5184    0.9033   -0.0894 N   0  0  0  0  0  0  0  0  0  0  0  0
   -1.3139    1.3048   -1.2107 C   0  0  0  0  0  0  0  0  0  0  0  0
   -0.1955    2.3557   -2.1896 S   0  0  0  0  0  0  0  0  0  0  0  0
    1.2836    1.4371   -1.5489 C   0  0  0  0  0  0  0  0  0  0  0  0
    1.5822    0.2971   -2.5452 C   0  0  0  0  0  0  0  0  0  0  0  0
    2.4816    2.3967   -1.4968 C   0  0  0  0  0  0  0  0  0  0  0  0
   -2.2800    1.9968   -0.3941 C   0  0  0  0  0  0  0  0  0  0  0  0
   -3.6376    1.4410   -0.4684 N   0  0  0  0  0  0  0  0  0  0  0  0
   -3.9604    0.1983   -0.2543 C   0  0  0  0  0  0  0  0  0  0  0  0
   -5.3284   -0.2394   -0.3437 N   0  0  0  0  0  0  0  0  0  0  0  0
   -6.3971    0.6920   -0.7506 C   0  0  0  0  0  0  0  0  0  0  0  0
   -7.2174    1.1990    0.4517 C   0  0  0  0  0  0  0  0  0  0  0  0
   -7.1818    0.2882    1.6902 C   0  0  0  0  0  0  0  0  0  0  0  0
   -7.7459   -1.1241    1.4534 C   0  0  0  0  0  0  0  0  0  0  0  0
   -7.1189   -1.9096    0.2825 C   0  0  0  0  0  0  0  0  0  0  0  0
   -5.6209   -1.6281    0.0587 C   0  0  0  0  0  0  0  0  0  0  0  0
   -1.5200    1.5287    0.8071 C   0  0  0  0  0  0  0  0  0  0  0  0
   -1.6376    1.6722    2.0517 O   0  0  0  0  0  0  0  0  0  0  0  0
    7.3579   -2.4945    1.6664 H   0  0  0  0  0  0  0  0  0  0  0  0
    8.9298   -1.9390    0.9893 H   0  0  0  0  0  0  0  0  0  0  0  0
    7.7767   -2.8572   -0.0479 H   0  0  0  0  0  0  0  0  0  0  0  0
    6.7923   -0.1199    2.3683 H   0  0  0  0  0  0  0  0  0  0  0  0
    8.3534    0.4743    1.6984 H   0  0  0  0  0  0  0  0  0  0  0  0
    6.8009    1.2110    1.1535 H   0  0  0  0  0  0  0  0  0  0  0  0
    7.9054   -0.9569   -1.7626 H   0  0  0  0  0  0  0  0  0  0  0  0
    7.5020    0.7299   -1.2634 H   0  0  0  0  0  0  0  0  0  0  0  0
    9.0201   -0.0447   -0.6825 H   0  0  0  0  0  0  0  0  0  0  0  0
    3.0814   -2.2016    1.7261 H   0  0  0  0  0  0  0  0  0  0  0  0
    3.3610   -2.4527   -0.0438 H   0  0  0  0  0  0  0  0  0  0  0  0
    1.2651    1.6495    0.6532 H   0  0  0  0  0  0  0  0  0  0  0  0
   -1.6897    0.4242   -1.7775 H   0  0  0  0  0  0  0  0  0  0  0  0
    0.7443   -0.4321   -2.5660 H   0  0  0  0  0  0  0  0  0  0  0  0
    2.5159   -0.2388   -2.2706 H   0  0  0  0  0  0  0  0  0  0  0  0
    1.7125    0.7041   -3.5710 H   0  0  0  0  0  0  0  0  0  0  0  0
    3.3765    1.8774   -1.0910 H   0  0  0  0  0  0  0  0  0  0  0  0
    2.2528    3.2686   -0.8473 H   0  0  0  0  0  0  0  0  0  0  0  0
    2.7215    2.7764   -2.5131 H   0  0  0  0  0  0  0  0  0  0  0  0
   -2.2746    3.1030   -0.4988 H   0  0  0  0  0  0  0  0  0  0  0  0
   -3.1933   -0.5212    0.0108 H   0  0  0  0  0  0  0  0  0  0  0  0
   -5.9804    1.5641   -1.2988 H   0  0  0  0  0  0  0  0  0  0  0  0
   -7.0634    0.2007   -1.4889 H   0  0  0  0  0  0  0  0  0  0  0  0
   -6.8186    2.1919    0.7540 H   0  0  0  0  0  0  0  0  0  0  0  0
   -8.2724    1.3531    0.1366 H   0  0  0  0  0  0  0  0  0  0  0  0
   -6.1437    0.2224    2.0832 H   0  0  0  0  0  0  0  0  0  0  0  0
   -7.7846    0.7695    2.4907 H   0  0  0  0  0  0  0  0  0  0  0  0
   -7.5959   -1.7064    2.3885 H   0  0  0  0  0  0  0  0  0  0  0  0
   -8.8432   -1.0544    1.2886 H   0  0  0  0  0  0  0  0  0  0  0  0
   -7.6923   -1.7302   -0.6499 H   0  0  0  0  0  0  0  0  0  0  0  0
   -7.2374   -2.9946    0.4942 H   0  0  0  0  0  0  0  0  0  0  0  0
   -5.0802   -1.8652    1.0019 H   0  0  0  0  0  0  0  0  0  0  0  0
   -5.2404   -2.3148   -0.7278 H   0  0  0  0  0  0  0  0  0  0  0  0
  1  2  1  0
  2  3  1  0
  2  4  1  0
  2  5  1  0
  5  6  2  0
  5  7  1  0
  7  8  1  0
  8  9  1  0
  9 10  1  0
 10 11  2  0
 10 12  1  0
 12 13  1  0
 13 14  1  0
 14 15  1  0
 15 16  1  0
 16 12  1  0
 16 17  1  0
 16 18  1  0
 14 19  1  0
 19 20  1  0
 20 21  2  3
 21 22  1  0
 22 23  1  0
 23 24  1  0
 24 25  1  0
 25 26  1  0
 26 27  1  0
 27 28  1  0
 28 22  1  0
 19 29  1  0
 29 13  1  0
 29 30  2  0
  1 31  1  0
  1 32  1  0
  1 33  1  0
  3 34  1  0
  3 35  1  0
  3 36  1  0
  4 37  1  0
  4 38  1  0
  4 39  1  0
  8 40  1  0
  8 41  1  0
 12 42  1  0
 14 43  1  0
 17 44  1  0
 17 45  1  0
 17 46  1  0
 18 47  1  0
 18 48  1  0
 18 49  1  0
 19 50  1  0
 21 51  1  0
 23 52  1  0
 23 53  1  0
 24 54  1  0
 24 55  1  0
 25 56  1  0
 25 57  1  0
 26 58  1  0
 26 59  1  0
 27 60  1  0
 27 61  1  0
 28 62  1  0
 28 63  1  0
M  END
> <ID>
HT1700

> <Class>
0.0

> <Clusters>
14

> <Fold>
3

$$$$