
     RDKit          3D

 24 25  0  0  0  0  0  0  0  0999 V2000
    0.0898   -1.3851   -2.2329 O   0  0  0  0  0  0  0  0  0  0  0  0
    0.0456   -0.7034   -1.1724 C   0  0  0  0  0  0  0  0  0  0  0  0
    1.3187   -0.3285   -0.5101 C   0  0  0  0  0  0  0  0  0  0  0  0
    1.4046   -0.2264    0.8913 C   0  0  0  0  0  0  0  0  0  0  0  0
    2.6160    0.1102    1.5030 C   0  0  0  0  0  0  0  0  0  0  0  0
    3.7543    0.3373    0.7259 C   0  0  0  0  0  0  0  0  0  0  0  0
    3.6847    0.2225   -0.6645 C   0  0  0  0  0  0  0  0  0  0  0  0
    2.4755   -0.1141   -1.2810 C   0  0  0  0  0  0  0  0  0  0  0  0
   -1.2776   -0.3058   -0.6329 C   0  0  0  0  0  0  0  0  0  0  0  0
   -1.4496    0.9218    0.0343 C   0  0  0  0  0  0  0  0  0  0  0  0
   -2.7069    1.2917    0.5217 C   0  0  0  0  0  0  0  0  0  0  0  0
   -3.8052    0.4480    0.3397 C   0  0  0  0  0  0  0  0  0  0  0  0
   -3.6495   -0.7648   -0.3354 C   0  0  0  0  0  0  0  0  0  0  0  0
   -2.3943   -1.1392   -0.8250 C   0  0  0  0  0  0  0  0  0  0  0  0
    0.5407   -0.4215    1.5141 H   0  0  0  0  0  0  0  0  0  0  0  0
    2.6736    0.1888    2.5809 H   0  0  0  0  0  0  0  0  0  0  0  0
    4.6913    0.5967    1.2014 H   0  0  0  0  0  0  0  0  0  0  0  0
    4.5685    0.3937   -1.2654 H   0  0  0  0  0  0  0  0  0  0  0  0
    2.4408   -0.1960   -2.3604 H   0  0  0  0  0  0  0  0  0  0  0  0
   -0.6172    1.6015    0.1655 H   0  0  0  0  0  0  0  0  0  0  0  0
   -2.8308    2.2362    1.0355 H   0  0  0  0  0  0  0  0  0  0  0  0
   -4.7778    0.7367    0.7168 H   0  0  0  0  0  0  0  0  0  0  0  0
   -4.5022   -1.4155   -0.4804 H   0  0  0  0  0  0  0  0  0  0  0  0
   -2.2930   -2.0846   -1.3437 H   0  0  0  0  0  0  0  0  0  0  0  0
  1  2  2  0
  2  3  1  0
  3  4  2  0
  4  5  1  0
  5  6  2  0
  6  7  1  0
  7  8  2  0
  8  3  1  0
  2  9  1  0
  9 10  2  0
 10 11  1  0
 11 12  2  0
 12 13  1  0
 13 14  2  0
 14  9  1  0
  4 15  1  0
  5 16  1  0
  6 17  1  0
  7 18  1  0
  8 19  1  0
 10 20  1  0
 11 21  1  0
 12 22  1  0
 13 23  1  0
 14 24  1  0
M  END
> <ID>
HT0251

> <Class>
0.0

> <Clusters>
30

> <Fold>
3

$$$$