
     RDKit          3D

 50 52  0  0  0  0  0  0  0  0999 V2000
   -3.9332   -2.7785    3.3432 C   0  0  0  0  0  0  0  0  0  0  0  0
   -4.5687   -1.8989    2.4208 O   0  0  0  0  0  0  0  0  0  0  0  0
   -3.8976   -1.0966    1.4892 C   0  0  0  0  0  0  0  0  0  0  0  0
   -2.4982   -1.0851    1.3985 C   0  0  0  0  0  0  0  0  0  0  0  0
   -1.8481   -0.2981    0.4378 C   0  0  0  0  0  0  0  0  0  0  0  0
   -0.4088   -0.3385    0.3588 N   0  0  0  0  0  0  0  0  0  0  0  0
    0.3716    0.3362   -0.6859 C   0  0  0  0  0  0  0  0  0  0  0  0
    1.8208   -0.1167   -0.6461 C   0  0  0  0  0  0  0  0  0  0  0  0
    2.0664   -1.4906   -0.7729 C   0  0  0  0  0  0  0  0  0  0  0  0
    3.3590   -1.9956   -0.7190 C   0  0  0  0  0  0  0  0  0  0  0  0
    4.4330   -1.1463   -0.4709 C   0  0  0  0  0  0  0  0  0  0  0  0
    5.6843   -1.6710   -0.4204 N   0  0  0  0  0  0  0  0  0  0  0  0
    6.7653   -0.8926   -0.1846 C   0  0  0  0  0  0  0  0  0  0  0  0
    8.0695   -1.4722   -0.1377 N   0  0  0  0  0  0  0  0  0  0  0  0
    6.5994    0.4253    0.0722 N   0  0  0  0  0  0  0  0  0  0  0  0
    5.3727    1.0128    0.0598 C   0  0  0  0  0  0  0  0  0  0  0  0
    5.2865    2.3696    0.4997 N   0  0  0  0  0  0  0  0  0  0  0  0
    4.2273    0.2456   -0.2936 C   0  0  0  0  0  0  0  0  0  0  0  0
    2.9185    0.7781   -0.5234 C   0  0  0  0  0  0  0  0  0  0  0  0
    2.6976    2.2523   -0.7958 C   0  0  0  0  0  0  0  0  0  0  0  0
   -2.6139    0.5010   -0.4341 C   0  0  0  0  0  0  0  0  0  0  0  0
   -4.0224    0.5148   -0.3461 C   0  0  0  0  0  0  0  0  0  0  0  0
   -4.7900    1.3177   -1.2102 O   0  0  0  0  0  0  0  0  0  0  0  0
   -4.2635    2.1688   -2.2251 C   0  0  0  0  0  0  0  0  0  0  0  0
   -4.6657   -0.2958    0.6283 C   0  0  0  0  0  0  0  0  0  0  0  0
   -6.0609   -0.3575    0.7920 O   0  0  0  0  0  0  0  0  0  0  0  0
   -7.0437    0.3232    0.0190 C   0  0  0  0  0  0  0  0  0  0  0  0
   -3.3564   -3.5562    2.7980 H   0  0  0  0  0  0  0  0  0  0  0  0
   -4.7053   -3.2783    3.9577 H   0  0  0  0  0  0  0  0  0  0  0  0
   -3.2648   -2.2064    4.0157 H   0  0  0  0  0  0  0  0  0  0  0  0
   -1.9017   -1.6979    2.0636 H   0  0  0  0  0  0  0  0  0  0  0  0
    0.1026   -0.8928    1.0858 H   0  0  0  0  0  0  0  0  0  0  0  0
   -0.0397    0.0746   -1.6868 H   0  0  0  0  0  0  0  0  0  0  0  0
    0.2583    1.4307   -0.5405 H   0  0  0  0  0  0  0  0  0  0  0  0
    1.2445   -2.1818   -0.9276 H   0  0  0  0  0  0  0  0  0  0  0  0
    3.5217   -3.0563   -0.8525 H   0  0  0  0  0  0  0  0  0  0  0  0
    8.9043   -0.8799    0.0538 H   0  0  0  0  0  0  0  0  0  0  0  0
    8.1940   -2.5046   -0.2305 H   0  0  0  0  0  0  0  0  0  0  0  0
    4.4927    2.6967    1.1008 H   0  0  0  0  0  0  0  0  0  0  0  0
    6.0523    3.0434    0.2312 H   0  0  0  0  0  0  0  0  0  0  0  0
    1.9428    2.4003   -1.5966 H   0  0  0  0  0  0  0  0  0  0  0  0
    3.6046    2.7344   -1.2127 H   0  0  0  0  0  0  0  0  0  0  0  0
    2.3665    2.7725    0.1263 H   0  0  0  0  0  0  0  0  0  0  0  0
   -2.1121    1.1171   -1.1803 H   0  0  0  0  0  0  0  0  0  0  0  0
   -3.6057    2.9428   -1.7729 H   0  0  0  0  0  0  0  0  0  0  0  0
   -5.1044    2.6778   -2.7435 H   0  0  0  0  0  0  0  0  0  0  0  0
   -3.6985    1.5704   -2.9723 H   0  0  0  0  0  0  0  0  0  0  0  0
   -6.9855    0.0041   -1.0432 H   0  0  0  0  0  0  0  0  0  0  0  0
   -8.0467    0.0553    0.4088 H   0  0  0  0  0  0  0  0  0  0  0  0
   -6.9210    1.4226    0.1229 H   0  0  0  0  0  0  0  0  0  0  0  0
  1  2  1  0
  2  3  1  0
  3  4  2  0
  4  5  1  0
  5  6  1  0
  6  7  1  0
  7  8  1  0
  8  9  2  0
  9 10  1  0
 10 11  2  0
 11 12  1  0
 12 13  2  0
 13 14  1  0
 13 15  1  0
 15 16  2  0
 16 17  1  0
 16 18  1  0
 18 11  1  0
 18 19  2  0
 19  8  1  0
 19 20  1  0
  5 21  2  0
 21 22  1  0
 22 23  1  0
 23 24  1  0
 22 25  2  0
 25  3  1  0
 25 26  1  0
 26 27  1  0
  1 28  1  0
  1 29  1  0
  1 30  1  0
  4 31  1  0
  6 32  1  0
  7 33  1  0
  7 34  1  0
  9 35  1  0
 10 36  1  0
 14 37  1  0
 14 38  1  0
 17 39  1  0
 17 40  1  0
 20 41  1  0
 20 42  1  0
 20 43  1  0
 21 44  1  0
 24 45  1  0
 24 46  1  0
 24 47  1  0
 27 48  1  0
 27 49  1  0
 27 50  1  0
M  END
> <ID>
HT2129

> <Class>
0.0

> <Clusters>
160

> <Fold>
3

$$$$