
     RDKit          3D

 20 19  0  0  0  0  0  0  0  0999 V2000
   -1.5710   -1.9310    0.5663 C   0  0  0  0  0  0  0  0  0  0  0  0
   -0.8696   -1.1080    1.4642 O   0  0  0  0  0  0  0  0  0  0  0  0
   -0.4611    0.3477    0.6713 P   0  0  0  0  0  0  0  0  0  0  0  0
   -0.3379    1.4291    1.7223 O   0  0  0  0  0  0  0  0  0  0  0  0
   -1.6992    0.7759   -0.4289 O   0  0  0  0  0  0  0  0  0  0  0  0
   -1.3938    2.0260   -0.9955 C   0  0  0  0  0  0  0  0  0  0  0  0
    1.1461    0.1722   -0.2071 C   0  0  0  0  0  0  0  0  0  0  0  0
    0.9351   -0.5833   -1.3723 O   0  0  0  0  0  0  0  0  0  0  0  0
    2.2647   -0.4710    0.6499 C   0  0  0  0  0  0  0  0  0  0  0  0
    3.8064   -0.4083   -0.2460 Cl  0  0  0  0  0  0  0  0  0  0  0  0
    1.9291   -2.1864    1.0155 Cl  0  0  0  0  0  0  0  0  0  0  0  0
    2.5196    0.4070    2.1838 Cl  0  0  0  0  0  0  0  0  0  0  0  0
   -1.7325   -2.9168    1.0482 H   0  0  0  0  0  0  0  0  0  0  0  0
   -2.5729   -1.5067    0.3388 H   0  0  0  0  0  0  0  0  0  0  0  0
   -0.9947   -2.1122   -0.3674 H   0  0  0  0  0  0  0  0  0  0  0  0
   -1.2891    2.8165   -0.2203 H   0  0  0  0  0  0  0  0  0  0  0  0
   -0.4845    1.9685   -1.6307 H   0  0  0  0  0  0  0  0  0  0  0  0
   -2.2338    2.3249   -1.6551 H   0  0  0  0  0  0  0  0  0  0  0  0
    1.4713    1.2040   -0.4773 H   0  0  0  0  0  0  0  0  0  0  0  0
    1.5679   -0.2483   -2.0598 H   0  0  0  0  0  0  0  0  0  0  0  0
  1  2  1  0
  2  3  1  0
  3  4  2  0
  3  5  1  0
  5  6  1  0
  3  7  1  0
  7  8  1  0
  7  9  1  0
  9 10  1  0
  9 11  1  0
  9 12  1  0
  1 13  1  0
  1 14  1  0
  1 15  1  0
  6 16  1  0
  6 17  1  0
  6 18  1  0
  7 19  1  0
  8 20  1  0
M  END
> <ID>
HT2111

> <Class>
0.0

> <Clusters>
251

> <Fold>
3

$$$$