
     RDKit          3D

  5  4  0  0  0  0  0  0  0  0999 V2000
    0.0151   -0.9332   -1.0918 F   0  0  0  0  0  0  0  0  0  0  0  0
   -0.0067   -0.0913    0.0033 C   0  0  0  0  0  0  0  0  0  0  0  0
   -0.1454   -0.8392    1.1566 F   0  0  0  0  0  0  0  0  0  0  0  0
    1.5126    0.8296    0.0733 Cl  0  0  0  0  0  0  0  0  0  0  0  0
   -1.3756    1.0341   -0.1414 Cl  0  0  0  0  0  0  0  0  0  0  0  0
  1  2  1  0
  2  3  1  0
  2  4  1  0
  2  5  1  0
M  END
> <ID>
HT2492

> <Class>
0.0

> <Clusters>
251

> <Fold>
3

$$$$