
     RDKit          3D

 12 12  0  0  0  0  0  0  0  0999 V2000
   -1.9566   -0.3985    0.0004 C   0  0  0  0  0  0  0  0  0  0  0  0
   -0.5053   -0.2708   -0.0083 N   0  0  0  0  0  0  0  0  0  0  0  0
    0.5901   -1.5144   -0.0819 S   0  0  0  0  0  0  0  0  0  0  0  0
    2.0110   -0.6302   -0.0524 C   0  0  0  0  0  0  0  0  0  0  0  0
    1.6183    0.7057    0.0185 C   0  0  0  0  0  0  0  0  0  0  0  0
    0.2191    0.8744    0.0415 C   0  0  0  0  0  0  0  0  0  0  0  0
   -0.3231    2.0100    0.1040 O   0  0  0  0  0  0  0  0  0  0  0  0
   -2.3839    0.1328   -0.8758 H   0  0  0  0  0  0  0  0  0  0  0  0
   -2.2481   -1.4687   -0.0502 H   0  0  0  0  0  0  0  0  0  0  0  0
   -2.3651    0.0422    0.9338 H   0  0  0  0  0  0  0  0  0  0  0  0
    3.0228   -1.0109   -0.0820 H   0  0  0  0  0  0  0  0  0  0  0  0
    2.3208    1.5283    0.0524 H   0  0  0  0  0  0  0  0  0  0  0  0
  1  2  1  0
  2  3  1  0
  3  4  1  0
  4  5  2  0
  5  6  1  0
  6  2  1  0
  6  7  2  0
  1  8  1  0
  1  9  1  0
  1 10  1  0
  4 11  1  0
  5 12  1  0
M  END
> <ID>
HT2470

> <Class>
0.0

> <Clusters>
247

> <Fold>
3

$$$$