
     RDKit          3D

 65 68  0  0  0  0  0  0  0  0999 V2000
    5.4285    1.2912   -1.4167 C   0  0  0  0  0  0  0  0  0  0  0  0
    6.5301    0.2853   -1.0977 C   0  0  0  0  0  0  0  0  0  0  0  0
    5.9745   -0.9387   -0.6207 O   0  0  0  0  0  0  0  0  0  0  0  0
    5.3749   -1.0735    0.6376 C   0  0  0  0  0  0  0  0  0  0  0  0
    5.4564   -0.1466    1.4887 O   0  0  0  0  0  0  0  0  0  0  0  0
    4.6686   -2.3482    0.9932 C   0  0  0  0  0  0  0  0  0  0  0  0
    3.6758   -2.8002   -0.0933 C   0  0  1  0  0  0  0  0  0  0  0  0
    3.0444   -3.9805    0.3331 O   0  0  0  0  0  0  0  0  0  0  0  0
    2.6142   -1.7378   -0.4721 C   0  0  0  0  0  0  0  0  0  0  0  0
    1.6916   -1.3089    0.6891 C   0  0  1  0  0  0  0  0  0  0  0  0
    2.3932   -0.4523    1.5540 O   0  0  0  0  0  0  0  0  0  0  0  0
    0.4828   -0.5838    0.1575 C   0  0  0  0  0  0  0  0  0  0  0  0
   -0.4492   -0.0930    0.9784 C   0  0  0  0  0  0  0  0  0  0  0  0
   -1.6155    0.6698    0.4654 C   0  0  0  0  0  0  0  0  0  0  0  0
   -2.5219    0.0878   -0.3687 C   0  0  0  0  0  0  0  0  0  0  0  0
   -2.3645   -1.3233   -0.8028 C   0  0  0  0  0  0  0  0  0  0  0  0
   -2.0975   -1.6211   -2.1492 C   0  0  0  0  0  0  0  0  0  0  0  0
   -1.9321   -2.9477   -2.5560 C   0  0  0  0  0  0  0  0  0  0  0  0
   -2.0348   -3.9844   -1.6252 C   0  0  0  0  0  0  0  0  0  0  0  0
   -1.8733   -5.2701   -2.0230 F   0  0  0  0  0  0  0  0  0  0  0  0
   -2.3013   -3.6947   -0.2831 C   0  0  0  0  0  0  0  0  0  0  0  0
   -2.4686   -2.3697    0.1285 C   0  0  0  0  0  0  0  0  0  0  0  0
   -3.6781    0.8784   -0.8786 C   0  0  0  0  0  0  0  0  0  0  0  0
   -4.7254    0.2968   -1.6224 C   0  0  0  0  0  0  0  0  0  0  0  0
   -5.7480    1.0958   -2.1421 C   0  0  0  0  0  0  0  0  0  0  0  0
   -5.7398    2.4758   -1.9246 C   0  0  0  0  0  0  0  0  0  0  0  0
   -4.7183    3.0573   -1.1728 C   0  0  0  0  0  0  0  0  0  0  0  0
   -3.7028    2.2595   -0.6381 C   0  0  0  0  0  0  0  0  0  0  0  0
   -2.7007    2.8395    0.1353 O   0  0  0  0  0  0  0  0  0  0  0  0
   -1.8759    2.0752    1.0235 C   0  0  0  0  0  0  0  0  0  0  0  0
   -0.6033    2.8875    1.2775 C   0  0  0  0  0  0  0  0  0  0  0  0
   -0.9998    3.9139    2.3267 C   0  0  0  0  0  0  0  0  0  0  0  0
   -2.1193    3.2723    3.1448 C   0  0  0  0  0  0  0  0  0  0  0  0
   -2.5536    2.0128    2.3950 C   0  0  0  0  0  0  0  0  0  0  0  0
    4.8793    1.5689   -0.4939 H   0  0  0  0  0  0  0  0  0  0  0  0
    4.7143    0.8538   -2.1452 H   0  0  0  0  0  0  0  0  0  0  0  0
    5.8745    2.2073   -1.8563 H   0  0  0  0  0  0  0  0  0  0  0  0
    7.2357    0.7065   -0.3491 H   0  0  0  0  0  0  0  0  0  0  0  0
    7.0982    0.0756   -2.0279 H   0  0  0  0  0  0  0  0  0  0  0  0
    5.4360   -3.1386    1.1261 H   0  0  0  0  0  0  0  0  0  0  0  0
    4.1451   -2.2417    1.9679 H   0  0  0  0  0  0  0  0  0  0  0  0
    4.2722   -3.0203   -1.0109 H   0  0  0  0  0  0  0  0  0  0  0  0
    2.7019   -4.4375   -0.4780 H   0  0  0  0  0  0  0  0  0  0  0  0
    3.1131   -0.8409   -0.9007 H   0  0  0  0  0  0  0  0  0  0  0  0
    1.9931   -2.1733   -1.2869 H   0  0  0  0  0  0  0  0  0  0  0  0
    1.3388   -2.2217    1.2253 H   0  0  0  0  0  0  0  0  0  0  0  0
    2.0817   -0.6513    2.4769 H   0  0  0  0  0  0  0  0  0  0  0  0
    0.3727   -0.4398   -0.9120 H   0  0  0  0  0  0  0  0  0  0  0  0
   -0.2984   -0.1426    2.0462 H   0  0  0  0  0  0  0  0  0  0  0  0
   -2.0109   -0.8267   -2.8799 H   0  0  0  0  0  0  0  0  0  0  0  0
   -1.7250   -3.1715   -3.5940 H   0  0  0  0  0  0  0  0  0  0  0  0
   -2.3800   -4.4958    0.4385 H   0  0  0  0  0  0  0  0  0  0  0  0
   -2.6730   -2.1577    1.1720 H   0  0  0  0  0  0  0  0  0  0  0  0
   -4.7563   -0.7677   -1.8116 H   0  0  0  0  0  0  0  0  0  0  0  0
   -6.5409    0.6467   -2.7238 H   0  0  0  0  0  0  0  0  0  0  0  0
   -6.5291    3.0936   -2.3325 H   0  0  0  0  0  0  0  0  0  0  0  0
   -4.7206    4.1263   -0.9977 H   0  0  0  0  0  0  0  0  0  0  0  0
   -0.2379    3.3758    0.3478 H   0  0  0  0  0  0  0  0  0  0  0  0
    0.2163    2.2673    1.6978 H   0  0  0  0  0  0  0  0  0  0  0  0
   -0.1322    4.1871    2.9675 H   0  0  0  0  0  0  0  0  0  0  0  0
   -1.3811    4.8300    1.8215 H   0  0  0  0  0  0  0  0  0  0  0  0
   -2.9725    3.9769    3.2479 H   0  0  0  0  0  0  0  0  0  0  0  0
   -1.7520    3.0062    4.1593 H   0  0  0  0  0  0  0  0  0  0  0  0
   -3.6609    1.9628    2.3008 H   0  0  0  0  0  0  0  0  0  0  0  0
   -2.2137    1.1180    2.9632 H   0  0  0  0  0  0  0  0  0  0  0  0
  1  2  1  0
  2  3  1  0
  3  4  1  0
  4  5  2  0
  4  6  1  0
  6  7  1  0
  7  8  1  0
  7  9  1  0
  9 10  1  0
 10 11  1  0
 10 12  1  0
 12 13  2  0
 13 14  1  0
 14 15  2  0
 15 16  1  0
 16 17  2  0
 17 18  1  0
 18 19  2  0
 19 20  1  0
 19 21  1  0
 21 22  2  0
 22 16  1  0
 15 23  1  0
 23 24  2  0
 24 25  1  0
 25 26  2  0
 26 27  1  0
 27 28  2  0
 28 23  1  0
 28 29  1  0
 29 30  1  0
 30 14  1  0
 30 31  1  0
 31 32  1  0
 32 33  1  0
 33 34  1  0
 34 30  1  0
  1 35  1  0
  1 36  1  0
  1 37  1  0
  2 38  1  0
  2 39  1  0
  6 40  1  0
  6 41  1  0
  7 42  1  6
  8 43  1  0
  9 44  1  0
  9 45  1  0
 10 46  1  1
 11 47  1  0
 12 48  1  0
 13 49  1  0
 17 50  1  0
 18 51  1  0
 21 52  1  0
 22 53  1  0
 24 54  1  0
 25 55  1  0
 26 56  1  0
 27 57  1  0
 31 58  1  0
 31 59  1  0
 32 60  1  0
 32 61  1  0
 33 62  1  0
 33 63  1  0
 34 64  1  0
 34 65  1  0
M  END
> <ID>
HT0265

> <Class>
0.0

> <Clusters>
110

> <Fold>
3

$$$$