
     RDKit          3D

 92 93  0  0  0  0  0  0  0  0999 V2000
    5.5943   -3.1165   -2.6081 C   0  0  0  0  0  0  0  0  0  0  0  0
    6.1342   -2.1329   -1.5551 C   0  0  0  0  0  0  0  0  0  0  0  0
    6.7345   -0.8955   -2.2436 C   0  0  0  0  0  0  0  0  0  0  0  0
    7.1249   -2.7767   -0.7399 O   0  0  0  0  0  0  0  0  0  0  0  0
    8.3060   -3.3411   -1.2350 C   0  0  0  0  0  0  0  0  0  0  0  0
    8.3529   -4.7096   -1.5297 C   0  0  0  0  0  0  0  0  0  0  0  0
    9.5332   -5.2840   -2.0106 C   0  0  0  0  0  0  0  0  0  0  0  0
   10.6749   -4.4939   -2.1921 C   0  0  0  0  0  0  0  0  0  0  0  0
   12.1557   -5.2162   -2.7934 Cl  0  0  0  0  0  0  0  0  0  0  0  0
   10.6367   -3.1289   -1.8837 C   0  0  0  0  0  0  0  0  0  0  0  0
    9.4562   -2.5548   -1.4002 C   0  0  0  0  0  0  0  0  0  0  0  0
    4.9929   -1.6935   -0.6693 C   0  0  0  0  0  0  0  0  0  0  0  0
    5.0266   -1.9249    0.5720 O   0  0  0  0  0  0  0  0  0  0  0  0
    3.9000   -1.0234   -1.2293 O   0  0  0  0  0  0  0  0  0  0  0  0
    2.7969   -0.5651   -0.4545 C   0  0  0  0  0  0  0  0  0  0  0  0
    1.8228    0.1852   -1.3549 C   0  0  0  0  0  0  0  0  0  0  0  0
    0.3940    0.7786   -0.3759 S   0  0  0  0  0  0  0  0  0  0  0  0
    0.7178    2.5773   -0.5353 C   0  0  0  0  0  0  0  0  0  0  0  0
    1.8985    3.0487    0.3316 C   0  0  0  0  0  0  0  0  0  0  0  0
    1.6626    2.8881    1.8445 C   0  0  0  0  0  0  0  0  0  0  0  0
    0.7516    3.9864    2.4122 C   0  0  0  0  0  0  0  0  0  0  0  0
    0.4685    3.7483    3.9030 C   0  0  0  0  0  0  0  0  0  0  0  0
   -0.4670    4.8193    4.5034 C   0  0  0  0  0  0  0  0  0  0  0  0
   -1.9289    4.3570    4.6415 C   0  0  0  0  0  0  0  0  0  0  0  0
   -2.6184    4.1615    3.2832 C   0  0  0  0  0  0  0  0  0  0  0  0
   -4.1356    3.9451    3.4136 C   0  0  0  0  0  0  0  0  0  0  0  0
   -4.5424    2.6666    4.1684 C   0  0  0  0  0  0  0  0  0  0  0  0
   -3.6474    1.1404    3.6611 S   0  0  0  0  0  0  0  0  0  0  0  0
   -4.1791    1.0444    1.9120 C   0  0  0  0  0  0  0  0  0  0  0  0
   -5.6153    0.5297    1.7827 C   0  0  0  0  0  0  0  0  0  0  0  0
   -5.9987    0.4695    0.4098 O   0  0  0  0  0  0  0  0  0  0  0  0
   -5.4943   -0.4770   -0.4937 C   0  0  0  0  0  0  0  0  0  0  0  0
   -4.7830   -1.4307   -0.0745 O   0  0  0  0  0  0  0  0  0  0  0  0
   -5.8262   -0.3777   -1.9712 C   0  0  0  0  0  0  0  0  0  0  0  0
   -6.5232    0.9610   -2.2728 C   0  0  0  0  0  0  0  0  0  0  0  0
   -4.5306   -0.4521   -2.8018 C   0  0  0  0  0  0  0  0  0  0  0  0
   -6.7323   -1.4259   -2.3474 O   0  0  0  0  0  0  0  0  0  0  0  0
   -6.4459   -2.7917   -2.2425 C   0  0  0  0  0  0  0  0  0  0  0  0
   -5.7626   -3.4551   -3.2720 C   0  0  0  0  0  0  0  0  0  0  0  0
   -5.4863   -4.8212   -3.1636 C   0  0  0  0  0  0  0  0  0  0  0  0
   -5.9026   -5.5325   -2.0320 C   0  0  0  0  0  0  0  0  0  0  0  0
   -5.5614   -7.2498   -1.9000 Cl  0  0  0  0  0  0  0  0  0  0  0  0
   -6.6021   -4.8762   -1.0126 C   0  0  0  0  0  0  0  0  0  0  0  0
   -6.8779   -3.5099   -1.1199 C   0  0  0  0  0  0  0  0  0  0  0  0
    6.4012   -3.4291   -3.3038 H   0  0  0  0  0  0  0  0  0  0  0  0
    5.1893   -4.0245   -2.1119 H   0  0  0  0  0  0  0  0  0  0  0  0
    4.7853   -2.6480   -3.2093 H   0  0  0  0  0  0  0  0  0  0  0  0
    5.9593   -0.3457   -2.8185 H   0  0  0  0  0  0  0  0  0  0  0  0
    7.5375   -1.1897   -2.9537 H   0  0  0  0  0  0  0  0  0  0  0  0
    7.1667   -0.2078   -1.4871 H   0  0  0  0  0  0  0  0  0  0  0  0
    7.4744   -5.3259   -1.3844 H   0  0  0  0  0  0  0  0  0  0  0  0
    9.5592   -6.3423   -2.2394 H   0  0  0  0  0  0  0  0  0  0  0  0
   11.5198   -2.5155   -2.0145 H   0  0  0  0  0  0  0  0  0  0  0  0
    9.4378   -1.5024   -1.1522 H   0  0  0  0  0  0  0  0  0  0  0  0
    2.2814   -1.4337    0.0104 H   0  0  0  0  0  0  0  0  0  0  0  0
    3.1632    0.1103    0.3496 H   0  0  0  0  0  0  0  0  0  0  0  0
    1.4454   -0.5073   -2.1365 H   0  0  0  0  0  0  0  0  0  0  0  0
    2.3522    1.0142   -1.8689 H   0  0  0  0  0  0  0  0  0  0  0  0
   -0.2050    3.1214   -0.2524 H   0  0  0  0  0  0  0  0  0  0  0  0
    0.9177    2.8271   -1.5990 H   0  0  0  0  0  0  0  0  0  0  0  0
    2.8057    2.4755    0.0500 H   0  0  0  0  0  0  0  0  0  0  0  0
    2.1130    4.1156    0.1007 H   0  0  0  0  0  0  0  0  0  0  0  0
    1.2364    1.8852    2.0665 H   0  0  0  0  0  0  0  0  0  0  0  0
    2.6488    2.9488    2.3584 H   0  0  0  0  0  0  0  0  0  0  0  0
   -0.2001    4.0149    1.8490 H   0  0  0  0  0  0  0  0  0  0  0  0
    1.2494    4.9734    2.2878 H   0  0  0  0  0  0  0  0  0  0  0  0
    1.4378    3.7828    4.4478 H   0  0  0  0  0  0  0  0  0  0  0  0
    0.0461    2.7301    4.0514 H   0  0  0  0  0  0  0  0  0  0  0  0
   -0.4213    5.7656    3.9189 H   0  0  0  0  0  0  0  0  0  0  0  0
   -0.1014    5.0621    5.5259 H   0  0  0  0  0  0  0  0  0  0  0  0
   -2.4808    5.1326    5.2174 H   0  0  0  0  0  0  0  0  0  0  0  0
   -1.9648    3.4133    5.2275 H   0  0  0  0  0  0  0  0  0  0  0  0
   -2.4577    5.0692    2.6618 H   0  0  0  0  0  0  0  0  0  0  0  0
   -2.1654    3.3052    2.7441 H   0  0  0  0  0  0  0  0  0  0  0  0
   -4.5868    3.9347    2.4007 H   0  0  0  0  0  0  0  0  0  0  0  0
   -4.5834    4.8198    3.9358 H   0  0  0  0  0  0  0  0  0  0  0  0
   -5.6367    2.5139    4.0669 H   0  0  0  0  0  0  0  0  0  0  0  0
   -4.3488    2.8187    5.2508 H   0  0  0  0  0  0  0  0  0  0  0  0
   -3.4939    0.3315    1.4089 H   0  0  0  0  0  0  0  0  0  0  0  0
   -4.0656    2.0189    1.3964 H   0  0  0  0  0  0  0  0  0  0  0  0
   -5.7166   -0.4727    2.2555 H   0  0  0  0  0  0  0  0  0  0  0  0
   -6.3076    1.2257    2.2981 H   0  0  0  0  0  0  0  0  0  0  0  0
   -7.4736    1.0416   -1.7006 H   0  0  0  0  0  0  0  0  0  0  0  0
   -5.8676    1.8193   -2.0015 H   0  0  0  0  0  0  0  0  0  0  0  0
   -6.7698    1.0329   -3.3557 H   0  0  0  0  0  0  0  0  0  0  0  0
   -3.8557    0.3949   -2.5478 H   0  0  0  0  0  0  0  0  0  0  0  0
   -4.7643   -0.4093   -3.8856 H   0  0  0  0  0  0  0  0  0  0  0  0
   -3.9826   -1.3964   -2.6023 H   0  0  0  0  0  0  0  0  0  0  0  0
   -5.4470   -2.9134   -4.1543 H   0  0  0  0  0  0  0  0  0  0  0  0
   -4.9510   -5.3255   -3.9567 H   0  0  0  0  0  0  0  0  0  0  0  0
   -6.9323   -5.4233   -0.1389 H   0  0  0  0  0  0  0  0  0  0  0  0
   -7.4216   -3.0075   -0.3298 H   0  0  0  0  0  0  0  0  0  0  0  0
  1  2  1  0
  2  3  1  0
  2  4  1  0
  4  5  1  0
  5  6  2  0
  6  7  1  0
  7  8  2  0
  8  9  1  0
  8 10  1  0
 10 11  2  0
 11  5  1  0
  2 12  1  0
 12 13  2  0
 12 14  1  0
 14 15  1  0
 15 16  1  0
 16 17  1  0
 17 18  1  0
 18 19  1  0
 19 20  1  0
 20 21  1  0
 21 22  1  0
 22 23  1  0
 23 24  1  0
 24 25  1  0
 25 26  1  0
 26 27  1  0
 27 28  1  0
 28 29  1  0
 29 30  1  0
 30 31  1  0
 31 32  1  0
 32 33  2  0
 32 34  1  0
 34 35  1  0
 34 36  1  0
 34 37  1  0
 37 38  1  0
 38 39  2  0
 39 40  1  0
 40 41  2  0
 41 42  1  0
 41 43  1  0
 43 44  2  0
 44 38  1  0
  1 45  1  0
  1 46  1  0
  1 47  1  0
  3 48  1  0
  3 49  1  0
  3 50  1  0
  6 51  1  0
  7 52  1  0
 10 53  1  0
 11 54  1  0
 15 55  1  0
 15 56  1  0
 16 57  1  0
 16 58  1  0
 18 59  1  0
 18 60  1  0
 19 61  1  0
 19 62  1  0
 20 63  1  0
 20 64  1  0
 21 65  1  0
 21 66  1  0
 22 67  1  0
 22 68  1  0
 23 69  1  0
 23 70  1  0
 24 71  1  0
 24 72  1  0
 25 73  1  0
 25 74  1  0
 26 75  1  0
 26 76  1  0
 27 77  1  0
 27 78  1  0
 29 79  1  0
 29 80  1  0
 30 81  1  0
 30 82  1  0
 35 83  1  0
 35 84  1  0
 35 85  1  0
 36 86  1  0
 36 87  1  0
 36 88  1  0
 39 89  1  0
 40 90  1  0
 43 91  1  0
 44 92  1  0
M  END
> <ID>
HT2051

> <Class>
0.0

> <Clusters>
216

> <Fold>
3

$$$$