
     RDKit          3D

 65 68  0  0  0  0  0  0  0  0999 V2000
   -3.5285   -2.8798   -0.4866 C   0  0  0  0  0  0  0  0  0  0  0  0
   -4.1986   -2.1721   -1.5257 O   0  0  0  0  0  0  0  0  0  0  0  0
   -4.6597   -0.8491   -1.4182 C   0  0  0  0  0  0  0  0  0  0  0  0
   -4.5121   -0.0981   -0.2357 C   0  0  0  0  0  0  0  0  0  0  0  0
   -4.9600    1.2358   -0.1648 C   0  0  0  0  0  0  0  0  0  0  0  0
   -4.7645    2.0143    1.0354 N   0  0  0  0  0  0  0  0  0  0  0  0
   -3.8162    1.6607    2.0608 C   0  0  0  0  0  0  0  0  0  0  0  0
   -4.2720    1.3979    3.3664 C   0  0  0  0  0  0  0  0  0  0  0  0
   -3.3604    1.0007    4.3488 C   0  0  0  0  0  0  0  0  0  0  0  0
   -2.0429    0.8749    4.0499 N   0  0  0  0  0  0  0  0  0  0  0  0
   -1.5580    1.1401    2.8090 C   0  0  0  0  0  0  0  0  0  0  0  0
   -0.1901    1.0023    2.5599 C   0  0  0  0  0  0  0  0  0  0  0  0
    0.3377    1.2925    1.2886 C   0  0  0  0  0  0  0  0  0  0  0  0
    1.7053    1.1614    0.9945 O   0  0  0  0  0  0  0  0  0  0  0  0
    2.6771    0.5112    1.8155 C   0  0  0  0  0  0  0  0  0  0  0  0
    2.4883   -1.0130    1.8045 C   0  0  0  0  0  0  0  0  0  0  0  0
    2.5039   -1.5997    0.3833 C   0  0  0  0  0  0  0  0  0  0  0  0
    3.7456   -1.2360   -0.3335 N   0  0  0  0  0  0  0  0  0  0  0  0
    4.8483   -2.1621   -0.0130 C   0  0  0  0  0  0  0  0  0  0  0  0
    6.1663   -1.6568   -0.6324 C   0  0  0  0  0  0  0  0  0  0  0  0
    5.9265   -0.6441   -1.6829 N   0  0  0  0  0  0  0  0  0  0  0  0
    7.1586   -0.4041   -2.4493 C   0  0  0  0  0  0  0  0  0  0  0  0
    4.8390   -1.0769   -2.5786 C   0  0  0  0  0  0  0  0  0  0  0  0
    3.5163   -1.2040   -1.7945 C   0  0  0  0  0  0  0  0  0  0  0  0
   -0.5148    1.7422    0.2702 C   0  0  0  0  0  0  0  0  0  0  0  0
    0.0453    2.0284   -0.9856 O   0  0  0  0  0  0  0  0  0  0  0  0
   -0.6957    2.4733   -2.1188 C   0  0  0  0  0  0  0  0  0  0  0  0
   -1.8922    1.8874    0.5233 C   0  0  0  0  0  0  0  0  0  0  0  0
   -2.4308    1.5614    1.7814 C   0  0  0  0  0  0  0  0  0  0  0  0
   -5.6712    1.4958    3.7025 C   0  0  0  0  0  0  0  0  0  0  0  0
   -6.7941    1.5747    3.9716 N   0  0  0  0  0  0  0  0  0  0  0  0
   -5.5905    1.8056   -1.2885 C   0  0  0  0  0  0  0  0  0  0  0  0
   -6.1551    3.4734   -1.2827 Cl  0  0  0  0  0  0  0  0  0  0  0  0
   -5.7464    1.0559   -2.4584 C   0  0  0  0  0  0  0  0  0  0  0  0
   -5.2814   -0.2607   -2.5274 C   0  0  0  0  0  0  0  0  0  0  0  0
   -5.4801   -1.1654   -4.0222 Cl  0  0  0  0  0  0  0  0  0  0  0  0
   -3.2644   -3.8947   -0.8507 H   0  0  0  0  0  0  0  0  0  0  0  0
   -2.5934   -2.3490   -0.2031 H   0  0  0  0  0  0  0  0  0  0  0  0
   -4.1955   -2.9811    0.3966 H   0  0  0  0  0  0  0  0  0  0  0  0
   -4.0494   -0.5476    0.6318 H   0  0  0  0  0  0  0  0  0  0  0  0
   -5.4258    2.7961    1.2436 H   0  0  0  0  0  0  0  0  0  0  0  0
   -3.6981    0.7804    5.3537 H   0  0  0  0  0  0  0  0  0  0  0  0
    0.4511    0.6763    3.3660 H   0  0  0  0  0  0  0  0  0  0  0  0
    3.6866    0.7552    1.4213 H   0  0  0  0  0  0  0  0  0  0  0  0
    2.6399    0.9033    2.8536 H   0  0  0  0  0  0  0  0  0  0  0  0
    3.2850   -1.4800    2.4201 H   0  0  0  0  0  0  0  0  0  0  0  0
    1.5201   -1.2709    2.2834 H   0  0  0  0  0  0  0  0  0  0  0  0
    1.6088   -1.2052   -0.1506 H   0  0  0  0  0  0  0  0  0  0  0  0
    2.3795   -2.7051    0.4354 H   0  0  0  0  0  0  0  0  0  0  0  0
    4.9853   -2.2473    1.0862 H   0  0  0  0  0  0  0  0  0  0  0  0
    4.6216   -3.1807   -0.4033 H   0  0  0  0  0  0  0  0  0  0  0  0
    6.7827   -1.1947    0.1699 H   0  0  0  0  0  0  0  0  0  0  0  0
    6.7304   -2.5288   -1.0358 H   0  0  0  0  0  0  0  0  0  0  0  0
    7.9789   -0.0914   -1.7682 H   0  0  0  0  0  0  0  0  0  0  0  0
    6.9995    0.4195   -3.1784 H   0  0  0  0  0  0  0  0  0  0  0  0
    7.4766   -1.3174   -3.0003 H   0  0  0  0  0  0  0  0  0  0  0  0
    4.6990   -0.3374   -3.3985 H   0  0  0  0  0  0  0  0  0  0  0  0
    5.0904   -2.0575   -3.0451 H   0  0  0  0  0  0  0  0  0  0  0  0
    2.9789   -2.1206   -2.1322 H   0  0  0  0  0  0  0  0  0  0  0  0
    2.8748   -0.3271   -2.0344 H   0  0  0  0  0  0  0  0  0  0  0  0
   -1.1718    3.4530   -1.9009 H   0  0  0  0  0  0  0  0  0  0  0  0
   -0.0055    2.5962   -2.9791 H   0  0  0  0  0  0  0  0  0  0  0  0
   -1.4706    1.7231   -2.3888 H   0  0  0  0  0  0  0  0  0  0  0  0
   -2.5356    2.2636   -0.2570 H   0  0  0  0  0  0  0  0  0  0  0  0
   -6.2222    1.5019   -3.3224 H   0  0  0  0  0  0  0  0  0  0  0  0
  1  2  1  0
  2  3  1  0
  3  4  2  0
  4  5  1  0
  5  6  1  0
  6  7  1  0
  7  8  2  0
  8  9  1  0
  9 10  2  0
 10 11  1  0
 11 12  2  0
 12 13  1  0
 13 14  1  0
 14 15  1  0
 15 16  1  0
 16 17  1  0
 17 18  1  0
 18 19  1  0
 19 20  1  0
 20 21  1  0
 21 22  1  0
 21 23  1  0
 23 24  1  0
 24 18  1  0
 13 25  2  0
 25 26  1  0
 26 27  1  0
 25 28  1  0
 28 29  2  0
 29  7  1  0
 29 11  1  0
  8 30  1  0
 30 31  3  0
  5 32  2  0
 32 33  1  0
 32 34  1  0
 34 35  2  0
 35  3  1  0
 35 36  1  0
  1 37  1  0
  1 38  1  0
  1 39  1  0
  4 40  1  0
  6 41  1  0
  9 42  1  0
 12 43  1  0
 15 44  1  0
 15 45  1  0
 16 46  1  0
 16 47  1  0
 17 48  1  0
 17 49  1  0
 19 50  1  0
 19 51  1  0
 20 52  1  0
 20 53  1  0
 22 54  1  0
 22 55  1  0
 22 56  1  0
 23 57  1  0
 23 58  1  0
 24 59  1  0
 24 60  1  0
 27 61  1  0
 27 62  1  0
 27 63  1  0
 28 64  1  0
 34 65  1  0
M  END
> <ID>
HT0301

> <Class>
0.0

> <Clusters>
118

> <Fold>
3

$$$$