
     RDKit          3D

 48 50  0  0  0  0  0  0  0  0999 V2000
    4.3983   -1.3912   -0.6070 C   0  0  0  0  0  0  0  0  0  0  0  0
    3.4953   -1.5283    0.5468 N   0  0  0  0  0  0  0  0  0  0  0  0
    4.2529   -2.0327    1.7055 C   0  0  0  0  0  0  0  0  0  0  0  0
    2.8534   -0.2297    0.8540 C   0  0  0  0  0  0  0  0  0  0  0  0
    1.5064   -0.4256    1.5617 C   0  0  0  0  0  0  0  0  0  0  0  0
    0.5629   -1.2457    0.7157 C   0  0  0  0  0  0  0  0  0  0  0  0
   -0.5877   -0.7928    0.1729 C   0  0  0  0  0  0  0  0  0  0  0  0
   -1.4765   -1.7328   -0.5576 C   0  0  0  0  0  0  0  0  0  0  0  0
   -0.8928   -2.5504   -1.5474 C   0  0  0  0  0  0  0  0  0  0  0  0
   -1.6633   -3.4448   -2.2876 C   0  0  0  0  0  0  0  0  0  0  0  0
   -3.0319   -3.5373   -2.0609 C   0  0  0  0  0  0  0  0  0  0  0  0
   -3.6355   -2.7346   -1.0944 C   0  0  0  0  0  0  0  0  0  0  0  0
   -2.8837   -1.8242   -0.3268 C   0  0  0  0  0  0  0  0  0  0  0  0
   -3.6795   -1.0157    0.6900 C   0  0  0  0  0  0  0  0  0  0  0  0
   -2.9162   -0.1630    1.5364 O   0  0  0  0  0  0  0  0  0  0  0  0
   -2.1697    0.8908    1.0222 C   0  0  0  0  0  0  0  0  0  0  0  0
   -2.5698    2.2137    1.2310 C   0  0  0  0  0  0  0  0  0  0  0  0
   -1.8240    3.2628    0.6853 C   0  0  0  0  0  0  0  0  0  0  0  0
   -0.6656    2.9930   -0.0628 C   0  0  0  0  0  0  0  0  0  0  0  0
    0.1142    4.1184   -0.6848 C   0  0  0  0  0  0  0  0  0  0  0  0
   -0.4582    4.4687   -2.0254 C   0  0  0  0  0  0  0  0  0  0  0  0
   -0.3660    3.6512   -2.9790 O   0  0  0  0  0  0  0  0  0  0  0  0
   -1.0935    5.6901   -2.2321 O   0  0  0  0  0  0  0  0  0  0  0  0
   -0.2693    1.6601   -0.2624 C   0  0  0  0  0  0  0  0  0  0  0  0
   -1.0112    0.6117    0.3032 C   0  0  0  0  0  0  0  0  0  0  0  0
    4.8895   -2.3627   -0.8317 H   0  0  0  0  0  0  0  0  0  0  0  0
    5.1805   -0.6223   -0.4166 H   0  0  0  0  0  0  0  0  0  0  0  0
    3.8193   -1.1054   -1.5115 H   0  0  0  0  0  0  0  0  0  0  0  0
    4.6943   -3.0252    1.4701 H   0  0  0  0  0  0  0  0  0  0  0  0
    3.5828   -2.1796    2.5771 H   0  0  0  0  0  0  0  0  0  0  0  0
    5.0712   -1.3340    1.9905 H   0  0  0  0  0  0  0  0  0  0  0  0
    3.5142    0.4087    1.4835 H   0  0  0  0  0  0  0  0  0  0  0  0
    2.6550    0.3444   -0.0792 H   0  0  0  0  0  0  0  0  0  0  0  0
    1.0887    0.5706    1.8128 H   0  0  0  0  0  0  0  0  0  0  0  0
    1.6529   -0.9457    2.5302 H   0  0  0  0  0  0  0  0  0  0  0  0
    0.8236   -2.2909    0.5945 H   0  0  0  0  0  0  0  0  0  0  0  0
    0.1675   -2.4845   -1.7610 H   0  0  0  0  0  0  0  0  0  0  0  0
   -1.1976   -4.0635   -3.0439 H   0  0  0  0  0  0  0  0  0  0  0  0
   -3.6296   -4.2306   -2.6387 H   0  0  0  0  0  0  0  0  0  0  0  0
   -4.7047   -2.8245   -0.9416 H   0  0  0  0  0  0  0  0  0  0  0  0
   -4.2377   -1.7219    1.3408 H   0  0  0  0  0  0  0  0  0  0  0  0
   -4.4314   -0.4002    0.1495 H   0  0  0  0  0  0  0  0  0  0  0  0
   -3.4660    2.4267    1.7994 H   0  0  0  0  0  0  0  0  0  0  0  0
   -2.1520    4.2836    0.8383 H   0  0  0  0  0  0  0  0  0  0  0  0
    0.0882    5.0049   -0.0150 H   0  0  0  0  0  0  0  0  0  0  0  0
    1.1824    3.8349   -0.8047 H   0  0  0  0  0  0  0  0  0  0  0  0
   -1.1930    6.3663   -1.4847 H   0  0  0  0  0  0  0  0  0  0  0  0
    0.6130    1.4396   -0.8502 H   0  0  0  0  0  0  0  0  0  0  0  0
  1  2  1  0
  2  3  1  0
  2  4  1  0
  4  5  1  0
  5  6  1  0
  6  7  2  0
  7  8  1  0
  8  9  2  0
  9 10  1  0
 10 11  2  0
 11 12  1  0
 12 13  2  0
 13  8  1  0
 13 14  1  0
 14 15  1  0
 15 16  1  0
 16 17  2  0
 17 18  1  0
 18 19  2  0
 19 20  1  0
 20 21  1  0
 21 22  2  0
 21 23  1  0
 19 24  1  0
 24 25  2  0
 25  7  1  0
 25 16  1  0
  1 26  1  0
  1 27  1  0
  1 28  1  0
  3 29  1  0
  3 30  1  0
  3 31  1  0
  4 32  1  0
  4 33  1  0
  5 34  1  0
  5 35  1  0
  6 36  1  0
  9 37  1  0
 10 38  1  0
 11 39  1  0
 12 40  1  0
 14 41  1  0
 14 42  1  0
 17 43  1  0
 18 44  1  0
 20 45  1  0
 20 46  1  0
 23 47  1  0
 24 48  1  0
M  END
> <ID>
HT1537

> <Class>
0.0

> <Clusters>
17

> <Fold>
3

$$$$