
     RDKit          3D

 36 38  0  0  0  0  0  0  0  0999 V2000
   -1.4027    2.5688   -2.4121 C   0  0  0  0  0  0  0  0  0  0  0  0
   -1.0213    1.2674   -1.8411 N   0  0  0  0  0  0  0  0  0  0  0  0
    0.2568    1.3856   -1.1240 C   0  0  0  0  0  0  0  0  0  0  0  0
    0.7720   -0.0142   -0.7476 C   0  0  0  0  0  0  0  0  0  0  0  0
    1.9261    0.1077    0.2319 C   0  0  0  0  0  0  0  0  0  0  0  0
    3.2301   -0.2404   -0.1639 C   0  0  0  0  0  0  0  0  0  0  0  0
    4.2943   -0.1341    0.7369 C   0  0  0  0  0  0  0  0  0  0  0  0
    4.0685    0.3189    2.0390 C   0  0  0  0  0  0  0  0  0  0  0  0
    2.7775    0.6665    2.4438 C   0  0  0  0  0  0  0  0  0  0  0  0
    1.7101    0.5625    1.5473 C   0  0  0  0  0  0  0  0  0  0  0  0
   -0.3317   -0.9084   -0.2051 C   0  0  0  0  0  0  0  0  0  0  0  0
   -0.0010   -2.1771    0.3025 C   0  0  0  0  0  0  0  0  0  0  0  0
   -0.9869   -3.0138    0.8190 C   0  0  0  0  0  0  0  0  0  0  0  0
   -2.3162   -2.5992    0.8383 C   0  0  0  0  0  0  0  0  0  0  0  0
   -2.6829   -1.3520    0.3139 C   0  0  0  0  0  0  0  0  0  0  0  0
   -4.0585   -0.9508    0.3906 N   0  0  0  0  0  0  0  0  0  0  0  0
   -1.6926   -0.5165   -0.2639 C   0  0  0  0  0  0  0  0  0  0  0  0
   -2.0707    0.7976   -0.9167 C   0  0  0  0  0  0  0  0  0  0  0  0
   -0.6423    2.8980   -3.1525 H   0  0  0  0  0  0  0  0  0  0  0  0
   -2.3694    2.4817   -2.9534 H   0  0  0  0  0  0  0  0  0  0  0  0
   -1.4988    3.3462   -1.6210 H   0  0  0  0  0  0  0  0  0  0  0  0
    0.1346    2.0250   -0.2189 H   0  0  0  0  0  0  0  0  0  0  0  0
    1.0205    1.8689   -1.7748 H   0  0  0  0  0  0  0  0  0  0  0  0
    1.1319   -0.4939   -1.6855 H   0  0  0  0  0  0  0  0  0  0  0  0
    3.4247   -0.5935   -1.1688 H   0  0  0  0  0  0  0  0  0  0  0  0
    5.2951   -0.4036    0.4249 H   0  0  0  0  0  0  0  0  0  0  0  0
    4.8938    0.3998    2.7345 H   0  0  0  0  0  0  0  0  0  0  0  0
    2.6034    1.0153    3.4534 H   0  0  0  0  0  0  0  0  0  0  0  0
    0.7142    0.8296    1.8787 H   0  0  0  0  0  0  0  0  0  0  0  0
    1.0278   -2.5155    0.3075 H   0  0  0  0  0  0  0  0  0  0  0  0
   -0.7176   -3.9829    1.2191 H   0  0  0  0  0  0  0  0  0  0  0  0
   -3.0656   -3.2521    1.2680 H   0  0  0  0  0  0  0  0  0  0  0  0
   -4.7822   -1.6118    0.7518 H   0  0  0  0  0  0  0  0  0  0  0  0
   -4.3699    0.0203    0.1723 H   0  0  0  0  0  0  0  0  0  0  0  0
   -2.2681    1.5503   -0.1196 H   0  0  0  0  0  0  0  0  0  0  0  0
   -3.0027    0.6494   -1.5043 H   0  0  0  0  0  0  0  0  0  0  0  0
  1  2  1  0
  2  3  1  0
  3  4  1  0
  4  5  1  0
  5  6  2  0
  6  7  1  0
  7  8  2  0
  8  9  1  0
  9 10  2  0
 10  5  1  0
  4 11  1  0
 11 12  2  0
 12 13  1  0
 13 14  2  0
 14 15  1  0
 15 16  1  0
 15 17  2  0
 17 11  1  0
 17 18  1  0
 18  2  1  0
  1 19  1  0
  1 20  1  0
  1 21  1  0
  3 22  1  0
  3 23  1  0
  4 24  1  0
  6 25  1  0
  7 26  1  0
  8 27  1  0
  9 28  1  0
 10 29  1  0
 12 30  1  0
 13 31  1  0
 14 32  1  0
 16 33  1  0
 16 34  1  0
 18 35  1  0
 18 36  1  0
M  END
> <ID>
HT1516

> <Class>
0.0

> <Clusters>
192

> <Fold>
3

$$$$