
     RDKit          3D

 53 57  0  0  0  0  0  0  0  0999 V2000
    6.5766   -0.5622   -1.2380 C   0  0  0  0  0  0  0  0  0  0  0  0
    5.7983    0.1819   -0.3062 O   0  0  0  0  0  0  0  0  0  0  0  0
    4.3976    0.2684   -0.3183 C   0  0  0  0  0  0  0  0  0  0  0  0
    3.6338   -0.4072   -1.3077 C   0  0  0  0  0  0  0  0  0  0  0  0
    2.2342   -0.3276   -1.3208 C   0  0  0  0  0  0  0  0  0  0  0  0
    1.5939    0.4108   -0.3273 C   0  0  0  0  0  0  0  0  0  0  0  0
    0.1126    0.6733   -0.1437 C   0  0  2  0  0  0  0  0  0  0  0  0
    0.0993    1.5882    0.9619 O   0  0  0  0  0  0  0  0  0  0  0  0
    1.3860    1.8203    1.4219 C   0  0  0  0  0  0  0  0  0  0  0  0
    1.6643    2.5741    2.3907 O   0  0  0  0  0  0  0  0  0  0  0  0
    2.3292    1.0861    0.6180 C   0  0  0  0  0  0  0  0  0  0  0  0
    3.7255    1.0466    0.6672 C   0  0  0  0  0  0  0  0  0  0  0  0
    4.3702    1.7793    1.6802 O   0  0  0  0  0  0  0  0  0  0  0  0
    5.7750    1.8697    1.8870 C   0  0  0  0  0  0  0  0  0  0  0  0
   -0.6725   -0.6093    0.2383 C   0  0  2  0  0  0  0  0  0  0  0  0
   -0.4678   -1.7103   -0.7378 N   0  0  0  0  0  0  0  0  0  0  0  0
   -1.1258   -1.4646   -2.0390 C   0  0  0  0  0  0  0  0  0  0  0  0
   -0.8749   -3.0317   -0.1826 C   0  0  0  0  0  0  0  0  0  0  0  0
   -1.9685   -2.9697    0.9189 C   0  0  0  0  0  0  0  0  0  0  0  0
   -2.8031   -1.7152    0.8438 C   0  0  0  0  0  0  0  0  0  0  0  0
   -4.1882   -1.7716    1.0824 C   0  0  0  0  0  0  0  0  0  0  0  0
   -4.9121   -0.5938    0.9921 C   0  0  0  0  0  0  0  0  0  0  0  0
   -6.2685   -0.4155    1.1845 O   0  0  0  0  0  0  0  0  0  0  0  0
   -6.5666    0.9687    0.9746 C   0  0  0  0  0  0  0  0  0  0  0  0
   -5.3080    1.5712    0.6514 O   0  0  0  0  0  0  0  0  0  0  0  0
   -4.3308    0.5911    0.6741 C   0  0  0  0  0  0  0  0  0  0  0  0
   -2.9533    0.7072    0.4164 C   0  0  0  0  0  0  0  0  0  0  0  0
   -2.3678    1.9267    0.0455 O   0  0  0  0  0  0  0  0  0  0  0  0
   -3.0578    3.1620   -0.1055 C   0  0  0  0  0  0  0  0  0  0  0  0
   -2.1676   -0.4808    0.5323 C   0  0  0  0  0  0  0  0  0  0  0  0
    6.3098   -1.6389   -1.1850 H   0  0  0  0  0  0  0  0  0  0  0  0
    6.4137   -0.1761   -2.2663 H   0  0  0  0  0  0  0  0  0  0  0  0
    7.6503   -0.4500   -0.9832 H   0  0  0  0  0  0  0  0  0  0  0  0
    4.1152   -0.9929   -2.0782 H   0  0  0  0  0  0  0  0  0  0  0  0
    1.6717   -0.8279   -2.0961 H   0  0  0  0  0  0  0  0  0  0  0  0
   -0.2911    1.1692   -1.0498 H   0  0  0  0  0  0  0  0  0  0  0  0
    6.1962    0.8667    2.1088 H   0  0  0  0  0  0  0  0  0  0  0  0
    6.2663    2.3192    0.9986 H   0  0  0  0  0  0  0  0  0  0  0  0
    5.9673    2.5270    2.7595 H   0  0  0  0  0  0  0  0  0  0  0  0
   -0.2051   -0.9269    1.2003 H   0  0  0  0  0  0  0  0  0  0  0  0
   -0.8319   -0.4837   -2.4610 H   0  0  0  0  0  0  0  0  0  0  0  0
   -2.2332   -1.5060   -1.9524 H   0  0  0  0  0  0  0  0  0  0  0  0
   -0.8000   -2.2320   -2.7732 H   0  0  0  0  0  0  0  0  0  0  0  0
    0.0269   -3.5149    0.2507 H   0  0  0  0  0  0  0  0  0  0  0  0
   -1.2177   -3.7205   -0.9881 H   0  0  0  0  0  0  0  0  0  0  0  0
   -2.6073   -3.8779    0.8582 H   0  0  0  0  0  0  0  0  0  0  0  0
   -1.4742   -2.9852    1.9145 H   0  0  0  0  0  0  0  0  0  0  0  0
   -4.6840   -2.7016    1.3299 H   0  0  0  0  0  0  0  0  0  0  0  0
   -6.9798    1.4181    1.9018 H   0  0  0  0  0  0  0  0  0  0  0  0
   -7.2758    1.0853    0.1285 H   0  0  0  0  0  0  0  0  0  0  0  0
   -2.3318    3.9446   -0.4069 H   0  0  0  0  0  0  0  0  0  0  0  0
   -3.5189    3.4633    0.8584 H   0  0  0  0  0  0  0  0  0  0  0  0
   -3.8300    3.0748   -0.8984 H   0  0  0  0  0  0  0  0  0  0  0  0
  1  2  1  0
  2  3  1  0
  3  4  2  0
  4  5  1  0
  5  6  2  0
  6  7  1  0
  7  8  1  0
  8  9  1  0
  9 10  2  0
  9 11  1  0
 11  6  1  0
 11 12  2  0
 12  3  1  0
 12 13  1  0
 13 14  1  0
  7 15  1  0
 15 16  1  0
 16 17  1  0
 16 18  1  0
 18 19  1  0
 19 20  1  0
 20 21  2  0
 21 22  1  0
 22 23  1  0
 23 24  1  0
 24 25  1  0
 25 26  1  0
 26 22  2  0
 26 27  1  0
 27 28  1  0
 28 29  1  0
 27 30  2  0
 15 30  1  0
 30 20  1  0
  1 31  1  0
  1 32  1  0
  1 33  1  0
  4 34  1  0
  5 35  1  0
  7 36  1  6
 14 37  1  0
 14 38  1  0
 14 39  1  0
 15 40  1  1
 17 41  1  0
 17 42  1  0
 17 43  1  0
 18 44  1  0
 18 45  1  0
 19 46  1  0
 19 47  1  0
 21 48  1  0
 24 49  1  0
 24 50  1  0
 29 51  1  0
 29 52  1  0
 29 53  1  0
M  END
> <ID>
HT1528

> <Class>
0.0

> <Clusters>
279

> <Fold>
3

$$$$