
     RDKit          3D

 86 87  0  0  0  0  0  0  0  0999 V2000
    8.6957   -1.4518    1.9269 C   0  0  0  0  0  0  0  0  0  0  0  0
    7.8440   -2.3406    1.0104 C   0  0  0  0  0  0  0  0  0  0  0  0
    6.5779   -2.8314    1.7285 C   0  0  0  0  0  0  0  0  0  0  0  0
    7.5473   -1.7025   -0.3746 C   0  0  0  0  0  0  0  0  0  0  0  0
    7.2002   -0.1976   -0.4095 C   0  0  0  0  0  0  0  0  0  0  0  0
    5.8523    0.1431    0.2540 C   0  0  0  0  0  0  0  0  0  0  0  0
    5.3073    1.5567   -0.0809 C   0  0  1  0  0  0  0  0  0  0  0  0
    6.2458    2.6552    0.4409 C   0  0  0  0  0  0  0  0  0  0  0  0
    4.9909    1.7950   -1.5813 C   0  0  0  0  0  0  0  0  0  0  0  0
    4.0691    0.7461   -2.2310 C   0  0  0  0  0  0  0  0  0  0  0  0
    2.6887    0.6701   -1.5543 C   0  0  0  0  0  0  0  0  0  0  0  0
    1.6814   -0.1997   -2.3453 C   0  0  1  0  0  0  0  0  0  0  0  0
    2.0514   -1.6935   -2.3026 C   0  0  0  0  0  0  0  0  0  0  0  0
    0.2248    0.0507   -1.8804 C   0  0  0  0  0  0  0  0  0  0  0  0
   -0.0175   -0.2285   -0.3846 C   0  0  0  0  0  0  0  0  0  0  0  0
   -1.5089   -0.2258    0.0259 C   0  0  0  0  0  0  0  0  0  0  0  0
   -2.2778    1.1382    0.0299 C   0  0  1  0  0  0  0  0  0  0  0  0
   -1.3704    2.3039    0.4638 C   0  0  0  0  0  0  0  0  0  0  0  0
   -2.9168    1.4772   -1.3409 C   0  0  0  0  0  0  0  0  0  0  0  0
   -4.0993    0.5673   -1.6886 C   0  0  0  0  0  0  0  0  0  0  0  0
   -5.0785    0.4240   -0.5437 C   0  0  0  0  0  0  0  0  0  0  0  0
   -6.4112    0.0046   -0.7686 C   0  0  0  0  0  0  0  0  0  0  0  0
   -6.8868   -0.3518   -2.1591 C   0  0  0  0  0  0  0  0  0  0  0  0
   -7.3238   -0.0227    0.3053 C   0  0  0  0  0  0  0  0  0  0  0  0
   -8.6583   -0.3748    0.0544 O   0  0  0  0  0  0  0  0  0  0  0  0
   -9.2624   -1.5167    0.5936 C   0  0  0  0  0  0  0  0  0  0  0  0
   -8.5761   -2.3857    1.2011 O   0  0  0  0  0  0  0  0  0  0  0  0
  -10.7216   -1.7434    0.3856 C   0  0  0  0  0  0  0  0  0  0  0  0
   -6.9066    0.3313    1.6087 C   0  0  0  0  0  0  0  0  0  0  0  0
   -7.9199    0.4120    2.7289 C   0  0  0  0  0  0  0  0  0  0  0  0
   -5.5385    0.6038    1.8509 C   0  0  0  0  0  0  0  0  0  0  0  0
   -5.0302    0.8913    3.2463 C   0  0  0  0  0  0  0  0  0  0  0  0
   -4.6434    0.6881    0.7681 C   0  0  0  0  0  0  0  0  0  0  0  0
   -3.3099    1.0481    1.0180 O   0  0  0  0  0  0  0  0  0  0  0  0
    9.0189   -2.0298    2.8192 H   0  0  0  0  0  0  0  0  0  0  0  0
    9.6055   -1.1068    1.3906 H   0  0  0  0  0  0  0  0  0  0  0  0
    8.1208   -0.5697    2.2771 H   0  0  0  0  0  0  0  0  0  0  0  0
    8.4487   -3.2536    0.8073 H   0  0  0  0  0  0  0  0  0  0  0  0
    5.9503   -1.9940    2.0875 H   0  0  0  0  0  0  0  0  0  0  0  0
    5.9730   -3.4717    1.0521 H   0  0  0  0  0  0  0  0  0  0  0  0
    6.8618   -3.4428    2.6119 H   0  0  0  0  0  0  0  0  0  0  0  0
    6.7476   -2.2758   -0.8938 H   0  0  0  0  0  0  0  0  0  0  0  0
    8.4603   -1.8311   -0.9969 H   0  0  0  0  0  0  0  0  0  0  0  0
    7.1654    0.0889   -1.4798 H   0  0  0  0  0  0  0  0  0  0  0  0
    8.0164    0.3960    0.0533 H   0  0  0  0  0  0  0  0  0  0  0  0
    5.9770    0.0931    1.3548 H   0  0  0  0  0  0  0  0  0  0  0  0
    5.0941   -0.6215   -0.0155 H   0  0  0  0  0  0  0  0  0  0  0  0
    4.3571    1.6754    0.4849 H   0  0  0  0  0  0  0  0  0  0  0  0
    5.7686    3.6514    0.3256 H   0  0  0  0  0  0  0  0  0  0  0  0
    7.2036    2.6601   -0.1192 H   0  0  0  0  0  0  0  0  0  0  0  0
    6.4582    2.5031    1.5203 H   0  0  0  0  0  0  0  0  0  0  0  0
    5.9341    1.8452   -2.1660 H   0  0  0  0  0  0  0  0  0  0  0  0
    4.5095    2.7926   -1.6883 H   0  0  0  0  0  0  0  0  0  0  0  0
    3.9335    1.0326   -3.2970 H   0  0  0  0  0  0  0  0  0  0  0  0
    4.5638   -0.2470   -2.2241 H   0  0  0  0  0  0  0  0  0  0  0  0
    2.8016    0.2594   -0.5285 H   0  0  0  0  0  0  0  0  0  0  0  0
    2.2837    1.7035   -1.4693 H   0  0  0  0  0  0  0  0  0  0  0  0
    1.7193    0.1143   -3.4127 H   0  0  0  0  0  0  0  0  0  0  0  0
    2.2146   -2.0399   -1.2617 H   0  0  0  0  0  0  0  0  0  0  0  0
    2.9811   -1.8748   -2.8794 H   0  0  0  0  0  0  0  0  0  0  0  0
    1.2480   -2.3043   -2.7648 H   0  0  0  0  0  0  0  0  0  0  0  0
   -0.0080    1.1126   -2.0931 H   0  0  0  0  0  0  0  0  0  0  0  0
   -0.4657   -0.5723   -2.4912 H   0  0  0  0  0  0  0  0  0  0  0  0
    0.5558    0.4851    0.2431 H   0  0  0  0  0  0  0  0  0  0  0  0
    0.3730   -1.2388   -0.1419 H   0  0  0  0  0  0  0  0  0  0  0  0
   -2.0507   -0.9796   -0.5794 H   0  0  0  0  0  0  0  0  0  0  0  0
   -1.5356   -0.6214    1.0655 H   0  0  0  0  0  0  0  0  0  0  0  0
   -1.9753    3.2231    0.6163 H   0  0  0  0  0  0  0  0  0  0  0  0
   -0.8693    2.0661    1.4259 H   0  0  0  0  0  0  0  0  0  0  0  0
   -0.6018    2.5295   -0.3034 H   0  0  0  0  0  0  0  0  0  0  0  0
   -2.1786    1.4296   -2.1616 H   0  0  0  0  0  0  0  0  0  0  0  0
   -3.2977    2.5229   -1.3157 H   0  0  0  0  0  0  0  0  0  0  0  0
   -3.7424   -0.4367   -1.9994 H   0  0  0  0  0  0  0  0  0  0  0  0
   -4.6085    1.0256   -2.5637 H   0  0  0  0  0  0  0  0  0  0  0  0
   -7.7835   -1.0053   -2.1354 H   0  0  0  0  0  0  0  0  0  0  0  0
   -7.1359    0.5763   -2.7155 H   0  0  0  0  0  0  0  0  0  0  0  0
   -6.1074   -0.9167   -2.7101 H   0  0  0  0  0  0  0  0  0  0  0  0
  -10.8720   -2.4215   -0.4793 H   0  0  0  0  0  0  0  0  0  0  0  0
  -11.1685   -2.2005    1.2933 H   0  0  0  0  0  0  0  0  0  0  0  0
  -11.2300   -0.7770    0.1832 H   0  0  0  0  0  0  0  0  0  0  0  0
   -7.9201   -0.5392    3.3023 H   0  0  0  0  0  0  0  0  0  0  0  0
   -7.6885    1.2564    3.4127 H   0  0  0  0  0  0  0  0  0  0  0  0
   -8.9432    0.6064    2.3423 H   0  0  0  0  0  0  0  0  0  0  0  0
   -3.9628    0.6003    3.3549 H   0  0  0  0  0  0  0  0  0  0  0  0
   -5.1324    1.9770    3.4637 H   0  0  0  0  0  0  0  0  0  0  0  0
   -5.5866    0.3050    4.0089 H   0  0  0  0  0  0  0  0  0  0  0  0
  1  2  1  0
  2  3  1  0
  2  4  1  0
  4  5  1  0
  5  6  1  0
  6  7  1  0
  7  8  1  0
  7  9  1  0
  9 10  1  0
 10 11  1  0
 11 12  1  0
 12 13  1  0
 12 14  1  0
 14 15  1  0
 15 16  1  0
 17 16  1  6
 17 18  1  0
 17 19  1  0
 19 20  1  0
 20 21  1  0
 21 22  2  0
 22 23  1  0
 22 24  1  0
 24 25  1  0
 25 26  1  0
 26 27  2  0
 26 28  1  0
 24 29  2  0
 29 30  1  0
 29 31  1  0
 31 32  1  0
 31 33  2  0
 33 21  1  0
 33 34  1  0
 34 17  1  0
  1 35  1  0
  1 36  1  0
  1 37  1  0
  2 38  1  0
  3 39  1  0
  3 40  1  0
  3 41  1  0
  4 42  1  0
  4 43  1  0
  5 44  1  0
  5 45  1  0
  6 46  1  0
  6 47  1  0
  7 48  1  1
  8 49  1  0
  8 50  1  0
  8 51  1  0
  9 52  1  0
  9 53  1  0
 10 54  1  0
 10 55  1  0
 11 56  1  0
 11 57  1  0
 12 58  1  6
 13 59  1  0
 13 60  1  0
 13 61  1  0
 14 62  1  0
 14 63  1  0
 15 64  1  0
 15 65  1  0
 16 66  1  0
 16 67  1  0
 18 68  1  0
 18 69  1  0
 18 70  1  0
 19 71  1  0
 19 72  1  0
 20 73  1  0
 20 74  1  0
 23 75  1  0
 23 76  1  0
 23 77  1  0
 28 78  1  0
 28 79  1  0
 28 80  1  0
 30 81  1  0
 30 82  1  0
 30 83  1  0
 32 84  1  0
 32 85  1  0
 32 86  1  0
M  END
> <ID>
HT2076

> <Class>
0.0

> <Clusters>
229

> <Fold>
3

$$$$