
     RDKit          3D

 50 55  0  0  0  0  0  0  0  0999 V2000
   -4.5093    2.4564    0.9653 O   0  0  0  0  0  0  0  0  0  0  0  0
   -3.2206    2.1934    0.5088 C   0  0  0  0  0  0  0  0  0  0  0  0
   -2.5229    3.1163   -0.2968 C   0  0  0  0  0  0  0  0  0  0  0  0
   -1.2692    2.7707   -0.8445 C   0  0  0  0  0  0  0  0  0  0  0  0
   -0.6707    1.5392   -0.5153 C   0  0  0  0  0  0  0  0  0  0  0  0
    0.4610    0.9686   -1.3377 C   0  0  0  0  0  0  0  0  0  0  0  0
    0.9905   -0.3703   -0.7560 C   0  0  1  0  0  0  0  0  0  0  0  0
    1.8708    0.0010    0.3942 N   0  0  0  0  0  0  0  0  0  0  0  0
    3.3058   -0.1179    0.0534 C   0  0  0  0  0  0  0  0  0  0  0  0
    4.1640    0.7578    0.9829 C   0  0  0  0  0  0  0  0  0  0  0  0
    4.0721    2.2531    0.7200 C   0  0  0  0  0  0  0  0  0  0  0  0
    5.3271    1.4890    0.3267 C   0  0  0  0  0  0  0  0  0  0  0  0
    1.5555   -0.6439    1.6882 C   0  0  0  0  0  0  0  0  0  0  0  0
    0.0585   -0.5510    2.0537 C   0  0  0  0  0  0  0  0  0  0  0  0
   -0.9098   -0.6581    0.8315 C   0  0  1  0  0  0  0  0  0  0  0  0
   -2.3018   -1.2631    1.2576 C   0  0  1  0  0  0  0  0  0  0  0  0
   -3.1760   -0.1330    1.3743 O   0  0  0  0  0  0  0  0  0  0  0  0
   -2.5974    0.9829    0.8079 C   0  0  0  0  0  0  0  0  0  0  0  0
   -1.3187    0.7249    0.4186 C   0  0  0  0  0  0  0  0  0  0  0  0
   -2.9076   -2.2499    0.2674 C   0  0  0  0  0  0  0  0  0  0  0  0
   -4.0363   -2.8880    0.6141 C   0  0  0  0  0  0  0  0  0  0  0  0
   -2.2886   -2.5729   -1.0796 C   0  0  0  0  0  0  0  0  0  0  0  0
   -1.1933   -1.5925   -1.5059 C   0  0  0  0  0  0  0  0  0  0  0  0
   -0.1901   -1.3415   -0.3533 C   0  0  1  0  0  0  0  0  0  0  0  0
    0.3228   -2.5894    0.0604 O   0  0  0  0  0  0  0  0  0  0  0  0
   -4.9793    3.3264    0.7442 H   0  0  0  0  0  0  0  0  0  0  0  0
   -2.9808    4.0602   -0.5629 H   0  0  0  0  0  0  0  0  0  0  0  0
   -0.7987    3.4309   -1.5622 H   0  0  0  0  0  0  0  0  0  0  0  0
    1.2854    1.7119   -1.3994 H   0  0  0  0  0  0  0  0  0  0  0  0
    0.1003    0.8017   -2.3752 H   0  0  0  0  0  0  0  0  0  0  0  0
    1.5704   -0.8786   -1.5609 H   0  0  0  0  0  0  0  0  0  0  0  0
    3.6402   -1.1754    0.1360 H   0  0  0  0  0  0  0  0  0  0  0  0
    3.4737    0.1927   -1.0031 H   0  0  0  0  0  0  0  0  0  0  0  0
    4.3338    0.4646    2.0405 H   0  0  0  0  0  0  0  0  0  0  0  0
    4.1924    2.8858    1.6245 H   0  0  0  0  0  0  0  0  0  0  0  0
    3.4404    2.5590   -0.1415 H   0  0  0  0  0  0  0  0  0  0  0  0
    5.4477    1.3588   -0.7699 H   0  0  0  0  0  0  0  0  0  0  0  0
    6.1917    1.6775    0.9975 H   0  0  0  0  0  0  0  0  0  0  0  0
    1.8849   -1.7061    1.6845 H   0  0  0  0  0  0  0  0  0  0  0  0
    2.1208   -0.1459    2.5038 H   0  0  0  0  0  0  0  0  0  0  0  0
   -0.1345   -1.3733    2.7756 H   0  0  0  0  0  0  0  0  0  0  0  0
   -0.1226    0.3939    2.6148 H   0  0  0  0  0  0  0  0  0  0  0  0
   -2.2327   -1.7643    2.2471 H   0  0  0  0  0  0  0  0  0  0  0  0
   -4.4981   -3.6098   -0.0534 H   0  0  0  0  0  0  0  0  0  0  0  0
   -4.5137   -2.6978    1.5710 H   0  0  0  0  0  0  0  0  0  0  0  0
   -3.0791   -2.5631   -1.8623 H   0  0  0  0  0  0  0  0  0  0  0  0
   -1.8709   -3.6025   -1.0419 H   0  0  0  0  0  0  0  0  0  0  0  0
   -1.6838   -0.6549   -1.8411 H   0  0  0  0  0  0  0  0  0  0  0  0
   -0.6570   -2.0105   -2.3855 H   0  0  0  0  0  0  0  0  0  0  0  0
    0.8536   -2.9629   -0.6912 H   0  0  0  0  0  0  0  0  0  0  0  0
  1  2  1  0
  2  3  2  0
  3  4  1  0
  4  5  2  0
  5  6  1  0
  7  6  1  0
  7  8  1  0
  8  9  1  0
  9 10  1  0
 10 11  1  0
 11 12  1  0
 12 10  1  0
  8 13  1  0
 13 14  1  0
 15 14  1  1
 15 16  1  0
 16 17  1  0
 17 18  1  0
 18  2  1  0
 18 19  2  0
 19  5  1  0
 19 15  1  0
 16 20  1  0
 20 21  2  3
 20 22  1  0
 22 23  1  0
 23 24  1  0
 24  7  1  0
 24 15  1  0
 24 25  1  1
  1 26  1  0
  3 27  1  0
  4 28  1  0
  6 29  1  0
  6 30  1  0
  7 31  1  6
  9 32  1  0
  9 33  1  0
 10 34  1  0
 11 35  1  0
 11 36  1  0
 12 37  1  0
 12 38  1  0
 13 39  1  0
 13 40  1  0
 14 41  1  0
 14 42  1  0
 16 43  1  1
 21 44  1  0
 21 45  1  0
 22 46  1  0
 22 47  1  0
 23 48  1  0
 23 49  1  0
 25 50  1  0
M  END
> <ID>
HT1457

> <Class>
0.0

> <Clusters>
175

> <Fold>
3

$$$$