
     RDKit          3D

 57 58  0  0  0  0  0  0  0  0999 V2000
   -5.2796    2.0910    1.1623 C   0  0  0  0  0  0  0  0  0  0  0  0
   -4.1695    1.1140    0.7350 C   0  0  0  0  0  0  0  0  0  0  0  0
   -3.7850    0.1968    1.9100 C   0  0  0  0  0  0  0  0  0  0  0  0
   -4.6066    0.3275   -0.3837 O   0  0  0  0  0  0  0  0  0  0  0  0
   -5.7058   -0.5380   -0.3555 C   0  0  0  0  0  0  0  0  0  0  0  0
   -6.9780   -0.0717   -0.7118 C   0  0  0  0  0  0  0  0  0  0  0  0
   -8.0740   -0.9400   -0.6955 C   0  0  0  0  0  0  0  0  0  0  0  0
   -7.9006   -2.2806   -0.3331 C   0  0  0  0  0  0  0  0  0  0  0  0
   -9.2753   -3.3698   -0.3133 Cl  0  0  0  0  0  0  0  0  0  0  0  0
   -6.6279   -2.7524    0.0079 C   0  0  0  0  0  0  0  0  0  0  0  0
   -5.5318   -1.8842   -0.0084 C   0  0  0  0  0  0  0  0  0  0  0  0
   -2.9543    1.9014    0.3100 C   0  0  0  0  0  0  0  0  0  0  0  0
   -2.3883    2.6785    1.1289 O   0  0  0  0  0  0  0  0  0  0  0  0
   -2.4583    1.7616   -0.9928 O   0  0  0  0  0  0  0  0  0  0  0  0
   -1.2511    2.3687   -1.4529 C   0  0  0  0  0  0  0  0  0  0  0  0
   -0.0655    1.4076   -1.3191 C   0  0  0  0  0  0  0  0  0  0  0  0
    0.2932    1.1161    0.1423 C   0  0  0  0  0  0  0  0  0  0  0  0
    1.4535    0.2907    0.2176 O   0  0  0  0  0  0  0  0  0  0  0  0
    2.7512    0.7553   -0.0337 C   0  0  0  0  0  0  0  0  0  0  0  0
    2.9579    1.9816   -0.2505 O   0  0  0  0  0  0  0  0  0  0  0  0
    3.9040   -0.2187   -0.0289 C   0  0  0  0  0  0  0  0  0  0  0  0
    3.6431   -1.3008   -1.0916 C   0  0  0  0  0  0  0  0  0  0  0  0
    4.0068   -0.8584    1.3666 C   0  0  0  0  0  0  0  0  0  0  0  0
    5.1107    0.4973   -0.3370 O   0  0  0  0  0  0  0  0  0  0  0  0
    6.3760   -0.0942   -0.4216 C   0  0  0  0  0  0  0  0  0  0  0  0
    7.1943   -0.1713    0.7131 C   0  0  0  0  0  0  0  0  0  0  0  0
    8.4635   -0.7520    0.6253 C   0  0  0  0  0  0  0  0  0  0  0  0
    8.9239   -1.2482   -0.5996 C   0  0  0  0  0  0  0  0  0  0  0  0
   10.5160   -1.9761   -0.7097 Cl  0  0  0  0  0  0  0  0  0  0  0  0
    8.1145   -1.1580   -1.7377 C   0  0  0  0  0  0  0  0  0  0  0  0
    6.8453   -0.5776   -1.6501 C   0  0  0  0  0  0  0  0  0  0  0  0
   -5.5793    2.7296    0.3038 H   0  0  0  0  0  0  0  0  0  0  0  0
   -4.9331    2.7474    1.9897 H   0  0  0  0  0  0  0  0  0  0  0  0
   -6.1737    1.5375    1.5194 H   0  0  0  0  0  0  0  0  0  0  0  0
   -3.3878    0.7897    2.7622 H   0  0  0  0  0  0  0  0  0  0  0  0
   -3.0072   -0.5297    1.5903 H   0  0  0  0  0  0  0  0  0  0  0  0
   -4.6692   -0.3692    2.2723 H   0  0  0  0  0  0  0  0  0  0  0  0
   -7.1167    0.9623   -1.0000 H   0  0  0  0  0  0  0  0  0  0  0  0
   -9.0551   -0.5712   -0.9665 H   0  0  0  0  0  0  0  0  0  0  0  0
   -6.4869   -3.7899    0.2827 H   0  0  0  0  0  0  0  0  0  0  0  0
   -4.5485   -2.2560    0.2493 H   0  0  0  0  0  0  0  0  0  0  0  0
   -1.0500    3.3263   -0.9244 H   0  0  0  0  0  0  0  0  0  0  0  0
   -1.3784    2.6095   -2.5294 H   0  0  0  0  0  0  0  0  0  0  0  0
   -0.3038    0.4533   -1.8370 H   0  0  0  0  0  0  0  0  0  0  0  0
    0.8096    1.8624   -1.8301 H   0  0  0  0  0  0  0  0  0  0  0  0
    0.4605    2.0598    0.7064 H   0  0  0  0  0  0  0  0  0  0  0  0
   -0.5445    0.5683    0.6213 H   0  0  0  0  0  0  0  0  0  0  0  0
    2.6821   -1.8245   -0.8970 H   0  0  0  0  0  0  0  0  0  0  0  0
    4.4524   -2.0613   -1.0849 H   0  0  0  0  0  0  0  0  0  0  0  0
    3.5985   -0.8418   -2.1027 H   0  0  0  0  0  0  0  0  0  0  0  0
    4.8156   -1.6190    1.3915 H   0  0  0  0  0  0  0  0  0  0  0  0
    4.2295   -0.0812    2.1289 H   0  0  0  0  0  0  0  0  0  0  0  0
    3.0557   -1.3636    1.6419 H   0  0  0  0  0  0  0  0  0  0  0  0
    6.8464    0.2175    1.6613 H   0  0  0  0  0  0  0  0  0  0  0  0
    9.0879   -0.8133    1.5075 H   0  0  0  0  0  0  0  0  0  0  0  0
    8.4681   -1.5346   -2.6891 H   0  0  0  0  0  0  0  0  0  0  0  0
    6.2262   -0.5044   -2.5349 H   0  0  0  0  0  0  0  0  0  0  0  0
  1  2  1  0
  2  3  1  0
  2  4  1  0
  4  5  1  0
  5  6  2  0
  6  7  1  0
  7  8  2  0
  8  9  1  0
  8 10  1  0
 10 11  2  0
 11  5  1  0
  2 12  1  0
 12 13  2  0
 12 14  1  0
 14 15  1  0
 15 16  1  0
 16 17  1  0
 17 18  1  0
 18 19  1  0
 19 20  2  0
 19 21  1  0
 21 22  1  0
 21 23  1  0
 21 24  1  0
 24 25  1  0
 25 26  2  0
 26 27  1  0
 27 28  2  0
 28 29  1  0
 28 30  1  0
 30 31  2  0
 31 25  1  0
  1 32  1  0
  1 33  1  0
  1 34  1  0
  3 35  1  0
  3 36  1  0
  3 37  1  0
  6 38  1  0
  7 39  1  0
 10 40  1  0
 11 41  1  0
 15 42  1  0
 15 43  1  0
 16 44  1  0
 16 45  1  0
 17 46  1  0
 17 47  1  0
 22 48  1  0
 22 49  1  0
 22 50  1  0
 23 51  1  0
 23 52  1  0
 23 53  1  0
 26 54  1  0
 27 55  1  0
 30 56  1  0
 31 57  1  0
M  END
> <ID>
HT1888

> <Class>
0.0

> <Clusters>
216

> <Fold>
3

$$$$