
     RDKit          3D

 51 51  0  0  0  0  0  0  0  0999 V2000
   -0.5849   -3.6103    0.6615 C   0  0  0  0  0  0  0  0  0  0  0  0
   -1.8245   -3.3041   -0.1881 C   0  0  0  0  0  0  0  0  0  0  0  0
   -1.5583   -3.5367   -1.6801 C   0  0  0  0  0  0  0  0  0  0  0  0
   -2.4045   -1.9166    0.0846 C   0  0  0  0  0  0  0  0  0  0  0  0
   -3.7183   -1.8439    0.5841 C   0  0  0  0  0  0  0  0  0  0  0  0
   -4.3245   -0.6171    0.8320 C   0  0  0  0  0  0  0  0  0  0  0  0
   -3.6435    0.5668    0.5729 C   0  0  0  0  0  0  0  0  0  0  0  0
   -2.3325    0.5462    0.0647 C   0  0  0  0  0  0  0  0  0  0  0  0
   -1.6347    1.8656   -0.2488 C   0  0  0  0  0  0  0  0  0  0  0  0
   -2.4067    2.6672   -1.3053 C   0  0  0  0  0  0  0  0  0  0  0  0
   -1.4178    2.6939    1.0240 C   0  0  0  0  0  0  0  0  0  0  0  0
   -1.6959   -0.7054   -0.1531 C   0  0  0  0  0  0  0  0  0  0  0  0
   -0.3395   -0.7381   -0.6166 N   0  0  0  0  0  0  0  0  0  0  0  0
    0.7646   -0.5220    0.2743 C   0  0  0  0  0  0  0  0  0  0  0  0
    0.5605   -0.4170    1.5139 O   0  0  0  0  0  0  0  0  0  0  0  0
    2.1750   -0.5093   -0.2664 C   0  0  0  0  0  0  0  0  0  0  0  0
    3.0487    0.5236    0.3442 N   0  0  0  0  0  0  0  0  0  0  0  0
    3.4956    0.1675    1.7110 C   0  0  0  0  0  0  0  0  0  0  0  0
    4.9875    0.0248    1.7239 C   0  0  0  0  0  0  0  0  0  0  0  0
    5.5085   -1.0947    1.9707 O   0  0  0  0  0  0  0  0  0  0  0  0
    5.8109    1.1184    1.4705 O   0  0  0  0  0  0  0  0  0  0  0  0
    2.5214    1.9048    0.2496 C   0  0  0  0  0  0  0  0  0  0  0  0
    2.6105    2.4224   -1.1576 C   0  0  0  0  0  0  0  0  0  0  0  0
    1.7684    2.0566   -2.0195 O   0  0  0  0  0  0  0  0  0  0  0  0
    3.6025    3.3314   -1.5176 O   0  0  0  0  0  0  0  0  0  0  0  0
    0.3249   -3.1433    0.2388 H   0  0  0  0  0  0  0  0  0  0  0  0
   -0.4111   -4.7073    0.6882 H   0  0  0  0  0  0  0  0  0  0  0  0
   -0.7307   -3.2574    1.7045 H   0  0  0  0  0  0  0  0  0  0  0  0
   -2.5808   -4.0678    0.1021 H   0  0  0  0  0  0  0  0  0  0  0  0
   -1.3547   -4.6132   -1.8621 H   0  0  0  0  0  0  0  0  0  0  0  0
   -0.6816   -2.9624   -2.0356 H   0  0  0  0  0  0  0  0  0  0  0  0
   -2.4473   -3.2472   -2.2792 H   0  0  0  0  0  0  0  0  0  0  0  0
   -4.2854   -2.7451    0.7835 H   0  0  0  0  0  0  0  0  0  0  0  0
   -5.3357   -0.5836    1.2190 H   0  0  0  0  0  0  0  0  0  0  0  0
   -4.1472    1.5051    0.7647 H   0  0  0  0  0  0  0  0  0  0  0  0
   -0.6314    1.6825   -0.6834 H   0  0  0  0  0  0  0  0  0  0  0  0
   -2.5696    2.0427   -2.2102 H   0  0  0  0  0  0  0  0  0  0  0  0
   -3.3924    3.0043   -0.9191 H   0  0  0  0  0  0  0  0  0  0  0  0
   -1.8230    3.5643   -1.6033 H   0  0  0  0  0  0  0  0  0  0  0  0
   -2.3851    3.0237    1.4596 H   0  0  0  0  0  0  0  0  0  0  0  0
   -0.8705    2.0942    1.7811 H   0  0  0  0  0  0  0  0  0  0  0  0
   -0.8110    3.5945    0.7927 H   0  0  0  0  0  0  0  0  0  0  0  0
   -0.1688   -0.7692   -1.6455 H   0  0  0  0  0  0  0  0  0  0  0  0
    2.1561   -0.3688   -1.3657 H   0  0  0  0  0  0  0  0  0  0  0  0
    2.6191   -1.5165   -0.1113 H   0  0  0  0  0  0  0  0  0  0  0  0
    3.2016    0.9322    2.4636 H   0  0  0  0  0  0  0  0  0  0  0  0
    3.0484   -0.7898    2.0600 H   0  0  0  0  0  0  0  0  0  0  0  0
    5.4249    2.0349    1.2824 H   0  0  0  0  0  0  0  0  0  0  0  0
    3.1192    2.5868    0.8912 H   0  0  0  0  0  0  0  0  0  0  0  0
    1.4768    1.9720    0.6151 H   0  0  0  0  0  0  0  0  0  0  0  0
    4.2870    3.6603   -0.8472 H   0  0  0  0  0  0  0  0  0  0  0  0
  1  2  1  0
  2  3  1  0
  2  4  1  0
  4  5  2  0
  5  6  1  0
  6  7  2  0
  7  8  1  0
  8  9  1  0
  9 10  1  0
  9 11  1  0
  8 12  2  0
 12  4  1  0
 12 13  1  0
 13 14  1  0
 14 15  2  0
 14 16  1  0
 16 17  1  0
 17 18  1  0
 18 19  1  0
 19 20  2  0
 19 21  1  0
 17 22  1  0
 22 23  1  0
 23 24  2  0
 23 25  1  0
  1 26  1  0
  1 27  1  0
  1 28  1  0
  2 29  1  0
  3 30  1  0
  3 31  1  0
  3 32  1  0
  5 33  1  0
  6 34  1  0
  7 35  1  0
  9 36  1  0
 10 37  1  0
 10 38  1  0
 10 39  1  0
 11 40  1  0
 11 41  1  0
 11 42  1  0
 13 43  1  0
 16 44  1  0
 16 45  1  0
 18 46  1  0
 18 47  1  0
 21 48  1  0
 22 49  1  0
 22 50  1  0
 25 51  1  0
M  END
> <ID>
HT3599

> <Class>
0.0

> <Clusters>
264

> <Fold>
3

$$$$