
     RDKit          3D

 56 59  0  0  0  0  0  0  0  0999 V2000
   -3.8909    0.8719   -0.8872 C   0  0  0  0  0  0  0  0  0  0  0  0
   -2.6539    0.2378   -1.5886 C   0  0  0  0  0  0  0  0  0  0  0  0
   -3.1588   -0.8778   -2.5550 C   0  0  0  0  0  0  0  0  0  0  0  0
   -4.0617   -0.3426   -3.6893 C   0  0  0  0  0  0  0  0  0  0  0  0
   -3.6236    1.0081   -4.1956 C   0  0  0  0  0  0  0  0  0  0  0  0
   -4.2228    1.5240   -5.1757 O   0  0  0  0  0  0  0  0  0  0  0  0
   -2.4808    1.7166   -3.5941 C   0  0  0  0  0  0  0  0  0  0  0  0
   -1.9450    1.3010   -2.4379 C   0  0  0  0  0  0  0  0  0  0  0  0
   -0.5686    1.7283   -2.1009 C   0  0  0  0  0  0  0  0  0  0  0  0
    0.2574    0.8851   -1.4747 C   0  0  0  0  0  0  0  0  0  0  0  0
   -0.2268   -0.5090   -1.1267 C   0  0  0  0  0  0  0  0  0  0  0  0
   -1.6515   -0.3926   -0.5275 C   0  0  0  0  0  0  0  0  0  0  0  0
   -1.5971    0.3464    0.8557 C   0  0  0  0  0  0  0  0  0  0  0  0
   -0.2124    0.3561    1.5450 C   0  0  0  0  0  0  0  0  0  0  0  0
    0.6163   -0.9478    1.3400 C   0  0  0  0  0  0  0  0  0  0  0  0
   -0.0958   -2.0843    2.1338 C   0  0  0  0  0  0  0  0  0  0  0  0
    0.6700   -1.3481   -0.1716 C   0  0  0  0  0  0  0  0  0  0  0  0
    2.1413   -1.4548   -0.5710 C   0  0  0  0  0  0  0  0  0  0  0  0
    2.8757   -1.6854    0.7344 C   0  0  0  0  0  0  0  0  0  0  0  0
    2.1409   -0.8367    1.7886 C   0  0  0  0  0  0  0  0  0  0  0  0
    2.3528   -1.4187    3.0555 O   0  0  0  0  0  0  0  0  0  0  0  0
    2.7139    0.6239    1.8028 C   0  0  0  0  0  0  0  0  0  0  0  0
    4.1690    0.7383    2.3097 C   0  0  0  0  0  0  0  0  0  0  0  0
    4.6280    2.1659    2.4508 C   0  0  0  0  0  0  0  0  0  0  0  0
    3.8768    3.1274    2.1349 O   0  0  0  0  0  0  0  0  0  0  0  0
    5.9053    2.4355    2.9321 O   0  0  0  0  0  0  0  0  0  0  0  0
   -3.6381    1.8243   -0.3804 H   0  0  0  0  0  0  0  0  0  0  0  0
   -4.3231    0.1642   -0.1479 H   0  0  0  0  0  0  0  0  0  0  0  0
   -4.6916    1.1438   -1.6022 H   0  0  0  0  0  0  0  0  0  0  0  0
   -3.7195   -1.6526   -1.9872 H   0  0  0  0  0  0  0  0  0  0  0  0
   -2.2927   -1.3880   -3.0271 H   0  0  0  0  0  0  0  0  0  0  0  0
   -5.1133   -0.2754   -3.3381 H   0  0  0  0  0  0  0  0  0  0  0  0
   -4.0451   -1.0665   -4.5324 H   0  0  0  0  0  0  0  0  0  0  0  0
   -1.9935    2.4916   -4.1749 H   0  0  0  0  0  0  0  0  0  0  0  0
   -0.2082    2.7031   -2.4068 H   0  0  0  0  0  0  0  0  0  0  0  0
    1.2446    1.2310   -1.2075 H   0  0  0  0  0  0  0  0  0  0  0  0
   -0.2765   -1.0734   -2.0826 H   0  0  0  0  0  0  0  0  0  0  0  0
   -2.0048   -1.4258   -0.3100 H   0  0  0  0  0  0  0  0  0  0  0  0
   -2.3455   -0.1080    1.5410 H   0  0  0  0  0  0  0  0  0  0  0  0
   -1.8665    1.4142    0.7422 H   0  0  0  0  0  0  0  0  0  0  0  0
   -0.3442    0.5596    2.6303 H   0  0  0  0  0  0  0  0  0  0  0  0
    0.3276    1.2299    1.1317 H   0  0  0  0  0  0  0  0  0  0  0  0
   -0.2177   -1.8116    3.2036 H   0  0  0  0  0  0  0  0  0  0  0  0
   -1.1079   -2.2894    1.7278 H   0  0  0  0  0  0  0  0  0  0  0  0
    0.4850   -3.0301    2.0776 H   0  0  0  0  0  0  0  0  0  0  0  0
    0.2836   -2.3903   -0.2738 H   0  0  0  0  0  0  0  0  0  0  0  0
    2.5283   -0.5327   -1.0456 H   0  0  0  0  0  0  0  0  0  0  0  0
    2.3107   -2.3001   -1.2738 H   0  0  0  0  0  0  0  0  0  0  0  0
    2.7935   -2.7635    1.0007 H   0  0  0  0  0  0  0  0  0  0  0  0
    3.9531   -1.4587    0.6239 H   0  0  0  0  0  0  0  0  0  0  0  0
    1.8912   -0.8485    3.7249 H   0  0  0  0  0  0  0  0  0  0  0  0
    2.0974    1.2366    2.4953 H   0  0  0  0  0  0  0  0  0  0  0  0
    2.6515    1.0716    0.7882 H   0  0  0  0  0  0  0  0  0  0  0  0
    4.8689    0.2399    1.6114 H   0  0  0  0  0  0  0  0  0  0  0  0
    4.2602    0.2507    3.3031 H   0  0  0  0  0  0  0  0  0  0  0  0
    6.5348    1.6857    3.1926 H   0  0  0  0  0  0  0  0  0  0  0  0
  1  2  1  0
  2  3  1  0
  3  4  1  0
  4  5  1  0
  5  6  2  0
  5  7  1  0
  7  8  2  0
  8  2  1  0
  8  9  1  0
  9 10  2  0
 10 11  1  0
 11 12  1  0
 12  2  1  0
 12 13  1  0
 13 14  1  0
 14 15  1  0
 15 16  1  0
 15 17  1  0
 17 11  1  0
 17 18  1  0
 18 19  1  0
 19 20  1  0
 20 15  1  0
 20 21  1  0
 20 22  1  0
 22 23  1  0
 23 24  1  0
 24 25  2  0
 24 26  1  0
  1 27  1  0
  1 28  1  0
  1 29  1  0
  3 30  1  0
  3 31  1  0
  4 32  1  0
  4 33  1  0
  7 34  1  0
  9 35  1  0
 10 36  1  0
 11 37  1  0
 12 38  1  0
 13 39  1  0
 13 40  1  0
 14 41  1  0
 14 42  1  0
 16 43  1  0
 16 44  1  0
 16 45  1  0
 17 46  1  0
 18 47  1  0
 18 48  1  0
 19 49  1  0
 19 50  1  0
 21 51  1  0
 22 52  1  0
 22 53  1  0
 23 54  1  0
 23 55  1  0
 26 56  1  0
M  END
> <ID>
HT3632

> <Class>
0.0

> <Clusters>
167

> <Fold>
3

$$$$