
     RDKit          3D

 52 53  0  0  0  0  0  0  0  0999 V2000
   -2.4171   -3.4112    0.7280 C   0  0  0  0  0  0  0  0  0  0  0  0
   -1.8556   -2.1421    0.0836 C   0  0  0  0  0  0  0  0  0  0  0  0
   -2.7511   -0.8930    0.3064 C   0  0  0  0  0  0  0  0  0  0  0  0
   -4.0995   -1.0628   -0.4239 C   0  0  0  0  0  0  0  0  0  0  0  0
   -2.0237    0.4025   -0.1733 C   0  0  0  0  0  0  0  0  0  0  0  0
   -0.7155    0.6213    0.5424 C   0  0  0  0  0  0  0  0  0  0  0  0
   -0.6839    0.7054    1.8013 O   0  0  0  0  0  0  0  0  0  0  0  0
    0.4625    0.7205   -0.2064 O   0  0  0  0  0  0  0  0  0  0  0  0
    1.7596    0.8431    0.3790 C   0  0  0  0  0  0  0  0  0  0  0  0
    2.1612   -0.4892    1.0517 C   0  0  0  0  0  0  0  0  0  0  0  0
    3.6827   -0.6965    1.0099 C   0  0  0  0  0  0  0  0  0  0  0  0
    4.2161   -0.7784   -0.3904 N   0  0  0  0  0  0  0  0  0  0  0  0
    4.2095   -2.1935   -0.8385 C   0  0  0  0  0  0  0  0  0  0  0  0
    5.6243   -0.3095   -0.3909 C   0  0  0  0  0  0  0  0  0  0  0  0
    3.4182    0.0398   -1.3634 C   0  0  0  0  0  0  0  0  0  0  0  0
    2.7664    1.2671   -0.7084 C   0  0  0  0  0  0  0  0  0  0  0  0
   -2.8796    1.6526   -0.0402 C   0  0  0  0  0  0  0  0  0  0  0  0
   -3.4086    2.0464    1.2054 C   0  0  0  0  0  0  0  0  0  0  0  0
   -4.1961    3.1968    1.3085 C   0  0  0  0  0  0  0  0  0  0  0  0
   -4.4637    3.9670    0.1749 C   0  0  0  0  0  0  0  0  0  0  0  0
   -3.9442    3.5886   -1.0649 C   0  0  0  0  0  0  0  0  0  0  0  0
   -3.1561    2.4390   -1.1743 C   0  0  0  0  0  0  0  0  0  0  0  0
   -3.3106   -3.7728    0.1791 H   0  0  0  0  0  0  0  0  0  0  0  0
   -2.6804   -3.2259    1.7909 H   0  0  0  0  0  0  0  0  0  0  0  0
   -1.6501   -4.2135    0.6906 H   0  0  0  0  0  0  0  0  0  0  0  0
   -0.8539   -1.9732    0.5316 H   0  0  0  0  0  0  0  0  0  0  0  0
   -1.7073   -2.3179   -1.0044 H   0  0  0  0  0  0  0  0  0  0  0  0
   -2.9597   -0.8042    1.3954 H   0  0  0  0  0  0  0  0  0  0  0  0
   -3.9390   -1.1918   -1.5156 H   0  0  0  0  0  0  0  0  0  0  0  0
   -4.6546   -1.9390   -0.0325 H   0  0  0  0  0  0  0  0  0  0  0  0
   -4.7544   -0.1819   -0.2617 H   0  0  0  0  0  0  0  0  0  0  0  0
   -1.7793    0.2542   -1.2497 H   0  0  0  0  0  0  0  0  0  0  0  0
    1.7358    1.6498    1.1461 H   0  0  0  0  0  0  0  0  0  0  0  0
    1.8170   -0.4905    2.1086 H   0  0  0  0  0  0  0  0  0  0  0  0
    1.6652   -1.3415    0.5392 H   0  0  0  0  0  0  0  0  0  0  0  0
    3.9386   -1.6080    1.5970 H   0  0  0  0  0  0  0  0  0  0  0  0
    4.1409    0.1547    1.5660 H   0  0  0  0  0  0  0  0  0  0  0  0
    3.1849   -2.6237   -0.7934 H   0  0  0  0  0  0  0  0  0  0  0  0
    4.8689   -2.8236   -0.1998 H   0  0  0  0  0  0  0  0  0  0  0  0
    4.5694   -2.2811   -1.8886 H   0  0  0  0  0  0  0  0  0  0  0  0
    6.0956   -0.4441   -1.3907 H   0  0  0  0  0  0  0  0  0  0  0  0
    5.6870    0.7703   -0.1312 H   0  0  0  0  0  0  0  0  0  0  0  0
    6.2335   -0.8744    0.3505 H   0  0  0  0  0  0  0  0  0  0  0  0
    4.0440    0.3789   -2.2205 H   0  0  0  0  0  0  0  0  0  0  0  0
    2.5950   -0.5613   -1.8161 H   0  0  0  0  0  0  0  0  0  0  0  0
    3.5574    1.9049   -0.2580 H   0  0  0  0  0  0  0  0  0  0  0  0
    2.2557    1.8787   -1.4841 H   0  0  0  0  0  0  0  0  0  0  0  0
   -3.2162    1.4643    2.0968 H   0  0  0  0  0  0  0  0  0  0  0  0
   -4.5995    3.4911    2.2688 H   0  0  0  0  0  0  0  0  0  0  0  0
   -5.0737    4.8573    0.2571 H   0  0  0  0  0  0  0  0  0  0  0  0
   -4.1522    4.1866   -1.9427 H   0  0  0  0  0  0  0  0  0  0  0  0
   -2.7634    2.1636   -2.1451 H   0  0  0  0  0  0  0  0  0  0  0  0
  1  2  1  0
  2  3  1  0
  3  4  1  0
  3  5  1  0
  5  6  1  0
  6  7  2  0
  6  8  1  0
  8  9  1  0
  9 10  1  0
 10 11  1  0
 11 12  1  0
 12 13  1  0
 12 14  1  0
 12 15  1  0
 15 16  1  0
 16  9  1  0
  5 17  1  0
 17 18  2  0
 18 19  1  0
 19 20  2  0
 20 21  1  0
 21 22  2  0
 22 17  1  0
  1 23  1  0
  1 24  1  0
  1 25  1  0
  2 26  1  0
  2 27  1  0
  3 28  1  0
  4 29  1  0
  4 30  1  0
  4 31  1  0
  5 32  1  0
  9 33  1  0
 10 34  1  0
 10 35  1  0
 11 36  1  0
 11 37  1  0
 13 38  1  0
 13 39  1  0
 13 40  1  0
 14 41  1  0
 14 42  1  0
 14 43  1  0
 15 44  1  0
 15 45  1  0
 16 46  1  0
 16 47  1  0
 18 48  1  0
 19 49  1  0
 20 50  1  0
 21 51  1  0
 22 52  1  0
M  CHG  1  12   1
M  END
> <ID>
HT3380

> <Class>
0.0

> <Clusters>
24

> <Fold>
3

$$$$