
     RDKit          3D

 56 58  0  0  0  0  0  0  0  0999 V2000
    3.2187   -1.2027    0.1080 O   0  0  0  0  0  0  0  0  0  0  0  0
    2.6010   -0.2938   -0.5121 C   0  0  0  0  0  0  0  0  0  0  0  0
    3.2973    0.5880   -1.4023 N   0  0  0  0  0  0  0  0  0  0  0  0
    4.7279    0.7206   -1.4603 C   0  0  0  0  0  0  0  0  0  0  0  0
    5.5274    0.5881   -0.3085 C   0  0  0  0  0  0  0  0  0  0  0  0
    6.9144    0.7496   -0.3900 C   0  0  0  0  0  0  0  0  0  0  0  0
    7.5132    1.0576   -1.6142 C   0  0  0  0  0  0  0  0  0  0  0  0
    6.7252    1.2131   -2.7578 C   0  0  0  0  0  0  0  0  0  0  0  0
    5.3381    1.0531   -2.6803 C   0  0  0  0  0  0  0  0  0  0  0  0
    1.2199   -0.1530   -0.3655 O   0  0  0  0  0  0  0  0  0  0  0  0
    0.4515   -0.9354    0.5439 C   0  0  0  0  0  0  0  0  0  0  0  0
   -0.9959   -0.4288    0.5824 C   0  0  0  0  0  0  0  0  0  0  0  0
   -1.0946    0.9730    1.2131 C   0  0  0  0  0  0  0  0  0  0  0  0
   -0.3223    1.9649    0.4317 N   0  0  0  0  0  0  0  0  0  0  0  0
    0.2075    3.0335    1.3028 C   0  0  0  0  0  0  0  0  0  0  0  0
    1.1181    3.9691    0.4995 C   0  0  0  0  0  0  0  0  0  0  0  0
    0.3652    4.5624   -0.6947 C   0  0  0  0  0  0  0  0  0  0  0  0
   -0.2741    3.4544   -1.5358 C   0  0  0  0  0  0  0  0  0  0  0  0
   -1.1384    2.5460   -0.6557 C   0  0  0  0  0  0  0  0  0  0  0  0
   -1.7745   -1.3357    1.3668 O   0  0  0  0  0  0  0  0  0  0  0  0
   -2.8900   -2.0350    0.8905 C   0  0  0  0  0  0  0  0  0  0  0  0
   -3.3069   -1.8542   -0.2865 O   0  0  0  0  0  0  0  0  0  0  0  0
   -3.5802   -2.9246    1.7784 N   0  0  0  0  0  0  0  0  0  0  0  0
   -4.6244   -3.8272    1.3741 C   0  0  0  0  0  0  0  0  0  0  0  0
   -5.6602   -4.1270    2.2733 C   0  0  0  0  0  0  0  0  0  0  0  0
   -6.6761   -5.0174    1.9120 C   0  0  0  0  0  0  0  0  0  0  0  0
   -6.6582   -5.6278    0.6553 C   0  0  0  0  0  0  0  0  0  0  0  0
   -5.6191   -5.3559   -0.2379 C   0  0  0  0  0  0  0  0  0  0  0  0
   -4.6013   -4.4653    0.1192 C   0  0  0  0  0  0  0  0  0  0  0  0
    2.7215    1.1247   -2.0901 H   0  0  0  0  0  0  0  0  0  0  0  0
    5.0824    0.3887    0.6570 H   0  0  0  0  0  0  0  0  0  0  0  0
    7.5241    0.6460    0.4988 H   0  0  0  0  0  0  0  0  0  0  0  0
    8.5866    1.1842   -1.6747 H   0  0  0  0  0  0  0  0  0  0  0  0
    7.1888    1.4608   -3.7041 H   0  0  0  0  0  0  0  0  0  0  0  0
    4.7379    1.1792   -3.5730 H   0  0  0  0  0  0  0  0  0  0  0  0
    0.4610   -1.9951    0.2079 H   0  0  0  0  0  0  0  0  0  0  0  0
    0.8969   -0.8821    1.5619 H   0  0  0  0  0  0  0  0  0  0  0  0
   -1.3746   -0.3889   -0.4612 H   0  0  0  0  0  0  0  0  0  0  0  0
   -2.1649    1.2707    1.2921 H   0  0  0  0  0  0  0  0  0  0  0  0
   -0.7136    0.8972    2.2570 H   0  0  0  0  0  0  0  0  0  0  0  0
    0.8207    2.5906    2.1188 H   0  0  0  0  0  0  0  0  0  0  0  0
   -0.6231    3.6137    1.7668 H   0  0  0  0  0  0  0  0  0  0  0  0
    2.0033    3.4005    0.1363 H   0  0  0  0  0  0  0  0  0  0  0  0
    1.4784    4.7910    1.1553 H   0  0  0  0  0  0  0  0  0  0  0  0
    1.0704    5.1460   -1.3247 H   0  0  0  0  0  0  0  0  0  0  0  0
   -0.4247    5.2552   -0.3292 H   0  0  0  0  0  0  0  0  0  0  0  0
    0.5214    2.8488   -2.0233 H   0  0  0  0  0  0  0  0  0  0  0  0
   -0.9024    3.9092   -2.3318 H   0  0  0  0  0  0  0  0  0  0  0  0
   -1.5523    1.7421   -1.3007 H   0  0  0  0  0  0  0  0  0  0  0  0
   -1.9939    3.1282   -0.2424 H   0  0  0  0  0  0  0  0  0  0  0  0
   -3.3629   -2.8445    2.7975 H   0  0  0  0  0  0  0  0  0  0  0  0
   -5.6848   -3.6613    3.2506 H   0  0  0  0  0  0  0  0  0  0  0  0
   -7.4767   -5.2351    2.6069 H   0  0  0  0  0  0  0  0  0  0  0  0
   -7.4441   -6.3184    0.3777 H   0  0  0  0  0  0  0  0  0  0  0  0
   -5.5971   -5.8422   -1.2047 H   0  0  0  0  0  0  0  0  0  0  0  0
   -3.7878   -4.2988   -0.5739 H   0  0  0  0  0  0  0  0  0  0  0  0
  1  2  2  0
  2  3  1  0
  3  4  1  0
  4  5  2  0
  5  6  1  0
  6  7  2  0
  7  8  1  0
  8  9  2  0
  9  4  1  0
  2 10  1  0
 10 11  1  0
 11 12  1  0
 12 13  1  0
 13 14  1  0
 14 15  1  0
 15 16  1  0
 16 17  1  0
 17 18  1  0
 18 19  1  0
 19 14  1  0
 12 20  1  0
 20 21  1  0
 21 22  2  0
 21 23  1  0
 23 24  1  0
 24 25  2  0
 25 26  1  0
 26 27  2  0
 27 28  1  0
 28 29  2  0
 29 24  1  0
  3 30  1  0
  5 31  1  0
  6 32  1  0
  7 33  1  0
  8 34  1  0
  9 35  1  0
 11 36  1  0
 11 37  1  0
 12 38  1  0
 13 39  1  0
 13 40  1  0
 15 41  1  0
 15 42  1  0
 16 43  1  0
 16 44  1  0
 17 45  1  0
 17 46  1  0
 18 47  1  0
 18 48  1  0
 19 49  1  0
 19 50  1  0
 23 51  1  0
 25 52  1  0
 26 53  1  0
 27 54  1  0
 28 55  1  0
 29 56  1  0
M  END
> <ID>
HT3750

> <Class>
0.0

> <Clusters>
30

> <Fold>
3

$$$$