
     RDKit          3D

 70 69  0  0  0  0  0  0  0  0999 V2000
   -1.7815    3.4447   -1.3738 C   0  0  0  0  0  0  0  0  0  0  0  0
   -1.4102    2.4955   -0.2242 C   0  0  0  0  0  0  0  0  0  0  0  0
   -1.3534    3.2375    1.1279 C   0  0  0  0  0  0  0  0  0  0  0  0
   -2.2885    1.2747   -0.2115 N   0  0  0  0  0  0  0  0  0  0  0  0
   -3.7149    1.6080    0.1220 C   0  0  0  0  0  0  0  0  0  0  0  0
   -4.6276    1.3380   -1.0776 C   0  0  0  0  0  0  0  0  0  0  0  0
   -4.2648    1.0000    1.4145 C   0  0  0  0  0  0  0  0  0  0  0  0
   -1.6100    0.0728    0.4023 C   0  0  0  0  0  0  0  0  0  0  0  0
   -2.4648   -1.1644    0.4422 N   0  0  0  0  0  0  0  0  0  0  0  0
   -2.8235   -1.7907   -0.8681 C   0  0  0  0  0  0  0  0  0  0  0  0
   -1.8597   -2.9071   -1.3344 C   0  0  0  0  0  0  0  0  0  0  0  0
   -4.2510   -2.3692   -0.8173 C   0  0  0  0  0  0  0  0  0  0  0  0
   -2.2052   -2.1337    1.5612 C   0  0  0  0  0  0  0  0  0  0  0  0
   -0.7188   -2.4525    1.8021 C   0  0  0  0  0  0  0  0  0  0  0  0
   -2.8485   -1.6714    2.8741 C   0  0  0  0  0  0  0  0  0  0  0  0
   -0.3092   -0.1986   -0.3312 C   0  0  0  0  0  0  0  0  0  0  0  0
   -0.2935   -0.2238   -1.5930 O   0  0  0  0  0  0  0  0  0  0  0  0
    0.8837   -0.3095    0.3928 O   0  0  0  0  0  0  0  0  0  0  0  0
    2.1583   -0.5441   -0.2045 C   0  0  0  0  0  0  0  0  0  0  0  0
    2.8804    0.7881   -0.4900 C   0  0  0  0  0  0  0  0  0  0  0  0
    2.0684    1.6214   -1.2793 O   0  0  0  0  0  0  0  0  0  0  0  0
    4.2636    0.5942   -1.1769 C   0  0  0  0  0  0  0  0  0  0  0  0
    4.7795    1.8420   -1.5739 O   0  0  0  0  0  0  0  0  0  0  0  0
    5.2982   -0.1777   -0.3081 C   0  0  0  0  0  0  0  0  0  0  0  0
    5.5319    0.5043    0.9004 O   0  0  0  0  0  0  0  0  0  0  0  0
    6.6327   -0.3808   -1.0612 C   0  0  0  0  0  0  0  0  0  0  0  0
    7.3295    0.8350   -1.1612 O   0  0  0  0  0  0  0  0  0  0  0  0
    7.4926   -1.4012   -0.3595 C   0  0  0  0  0  0  0  0  0  0  0  0
    7.6663   -2.5356   -0.8795 O   0  0  0  0  0  0  0  0  0  0  0  0
    8.1104   -1.1079    0.8544 O   0  0  0  0  0  0  0  0  0  0  0  0
   -0.9987    4.2250   -1.4883 H   0  0  0  0  0  0  0  0  0  0  0  0
   -1.8420    2.8753   -2.3254 H   0  0  0  0  0  0  0  0  0  0  0  0
   -2.7488    3.9580   -1.1981 H   0  0  0  0  0  0  0  0  0  0  0  0
   -0.3619    2.2195   -0.4446 H   0  0  0  0  0  0  0  0  0  0  0  0
   -2.2842    3.7986    1.3448 H   0  0  0  0  0  0  0  0  0  0  0  0
   -1.1563    2.5334    1.9610 H   0  0  0  0  0  0  0  0  0  0  0  0
   -0.5227    3.9750    1.1101 H   0  0  0  0  0  0  0  0  0  0  0  0
   -3.8329    2.6974    0.2855 H   0  0  0  0  0  0  0  0  0  0  0  0
   -5.6480    1.7302   -0.8766 H   0  0  0  0  0  0  0  0  0  0  0  0
   -4.7126    0.2657   -1.3011 H   0  0  0  0  0  0  0  0  0  0  0  0
   -4.2324    1.8506   -1.9794 H   0  0  0  0  0  0  0  0  0  0  0  0
   -4.5574   -0.0521    1.2682 H   0  0  0  0  0  0  0  0  0  0  0  0
   -5.1863    1.5423    1.7187 H   0  0  0  0  0  0  0  0  0  0  0  0
   -3.5318    1.1094    2.2388 H   0  0  0  0  0  0  0  0  0  0  0  0
   -1.3414    0.3378    1.4445 H   0  0  0  0  0  0  0  0  0  0  0  0
   -2.8198   -1.0070   -1.6563 H   0  0  0  0  0  0  0  0  0  0  0  0
   -1.9252   -3.8068   -0.6889 H   0  0  0  0  0  0  0  0  0  0  0  0
   -0.8058   -2.5808   -1.3673 H   0  0  0  0  0  0  0  0  0  0  0  0
   -2.1338   -3.2209   -2.3650 H   0  0  0  0  0  0  0  0  0  0  0  0
   -4.6351   -2.5168   -1.8492 H   0  0  0  0  0  0  0  0  0  0  0  0
   -4.2771   -3.3503   -0.2991 H   0  0  0  0  0  0  0  0  0  0  0  0
   -4.9461   -1.6970   -0.2792 H   0  0  0  0  0  0  0  0  0  0  0  0
   -2.6956   -3.1043    1.3396 H   0  0  0  0  0  0  0  0  0  0  0  0
   -0.2031   -2.7319    0.8646 H   0  0  0  0  0  0  0  0  0  0  0  0
   -0.6313   -3.3193    2.4918 H   0  0  0  0  0  0  0  0  0  0  0  0
   -0.1979   -1.5977    2.2803 H   0  0  0  0  0  0  0  0  0  0  0  0
   -2.6569   -2.4187    3.6743 H   0  0  0  0  0  0  0  0  0  0  0  0
   -3.9483   -1.5956    2.7630 H   0  0  0  0  0  0  0  0  0  0  0  0
   -2.4306   -0.7015    3.2100 H   0  0  0  0  0  0  0  0  0  0  0  0
    2.0558   -1.1511   -1.1313 H   0  0  0  0  0  0  0  0  0  0  0  0
    2.7508   -1.1371    0.5207 H   0  0  0  0  0  0  0  0  0  0  0  0
    3.0327    1.3044    0.4821 H   0  0  0  0  0  0  0  0  0  0  0  0
    1.9558    1.1809   -2.1621 H   0  0  0  0  0  0  0  0  0  0  0  0
    4.0941    0.0003   -2.1030 H   0  0  0  0  0  0  0  0  0  0  0  0
    4.8867    2.3952   -0.7559 H   0  0  0  0  0  0  0  0  0  0  0  0
    4.8930   -1.1972   -0.1064 H   0  0  0  0  0  0  0  0  0  0  0  0
    4.8944    0.1419    1.5698 H   0  0  0  0  0  0  0  0  0  0  0  0
    6.3974   -0.7623   -2.0834 H   0  0  0  0  0  0  0  0  0  0  0  0
    8.0128    0.7167   -1.8723 H   0  0  0  0  0  0  0  0  0  0  0  0
    8.0202   -0.1973    1.2880 H   0  0  0  0  0  0  0  0  0  0  0  0
  1  2  1  0
  2  3  1  0
  2  4  1  0
  4  5  1  0
  5  6  1  0
  5  7  1  0
  4  8  1  0
  8  9  1  0
  9 10  1  0
 10 11  1  0
 10 12  1  0
  9 13  1  0
 13 14  1  0
 13 15  1  0
  8 16  1  0
 16 17  2  0
 16 18  1  0
 18 19  1  0
 19 20  1  0
 20 21  1  0
 20 22  1  0
 22 23  1  0
 22 24  1  0
 24 25  1  0
 24 26  1  0
 26 27  1  0
 26 28  1  0
 28 29  2  0
 28 30  1  0
  1 31  1  0
  1 32  1  0
  1 33  1  0
  2 34  1  0
  3 35  1  0
  3 36  1  0
  3 37  1  0
  5 38  1  0
  6 39  1  0
  6 40  1  0
  6 41  1  0
  7 42  1  0
  7 43  1  0
  7 44  1  0
  8 45  1  0
 10 46  1  0
 11 47  1  0
 11 48  1  0
 11 49  1  0
 12 50  1  0
 12 51  1  0
 12 52  1  0
 13 53  1  0
 14 54  1  0
 14 55  1  0
 14 56  1  0
 15 57  1  0
 15 58  1  0
 15 59  1  0
 19 60  1  0
 19 61  1  0
 20 62  1  0
 21 63  1  0
 22 64  1  0
 23 65  1  0
 24 66  1  0
 25 67  1  0
 26 68  1  0
 27 69  1  0
 30 70  1  0
M  END
> <ID>
HT3824

> <Class>
0.0

> <Clusters>
174

> <Fold>
3

$$$$