
     RDKit          3D

 64 63  0  0  0  0  0  0  0  0999 V2000
    4.9262    3.0877   -3.5070 C   0  0  0  0  0  0  0  0  0  0  0  0
    4.7654    2.2807   -2.2194 C   0  0  0  0  0  0  0  0  0  0  0  0
    3.4625    2.4518   -1.6911 O   0  0  0  0  0  0  0  0  0  0  0  0
    2.5916    1.4214   -2.1217 C   0  0  0  0  0  0  0  0  0  0  0  0
    2.6113    0.2438   -1.1444 C   0  0  0  0  0  0  0  0  0  0  0  0
    2.0577    0.7657    0.5703 P   0  0  0  0  0  0  0  0  0  0  0  0
    2.3627   -0.8454    1.4772 C   0  0  0  0  0  0  0  0  0  0  0  0
    3.8286   -0.9588    1.8926 C   0  0  0  0  0  0  0  0  0  0  0  0
    4.0197   -2.1369    2.6531 O   0  0  0  0  0  0  0  0  0  0  0  0
    4.6693   -3.1270    1.8822 C   0  0  0  0  0  0  0  0  0  0  0  0
    4.7745   -4.4074    2.6979 C   0  0  0  0  0  0  0  0  0  0  0  0
    0.2057    0.6300    0.3368 C   0  0  0  0  0  0  0  0  0  0  0  0
   -0.5320    1.0673    1.6071 C   0  0  0  0  0  0  0  0  0  0  0  0
   -2.3772    0.7104    1.5794 P   0  0  0  0  0  0  0  0  0  0  0  0
   -2.9447    1.3035   -0.1030 C   0  0  0  0  0  0  0  0  0  0  0  0
   -2.9438    2.8328   -0.1633 C   0  0  0  0  0  0  0  0  0  0  0  0
   -3.2502    3.2787   -1.4723 O   0  0  0  0  0  0  0  0  0  0  0  0
   -4.6483    3.4304   -1.6502 C   0  0  0  0  0  0  0  0  0  0  0  0
   -5.0606    4.8770   -1.4041 C   0  0  0  0  0  0  0  0  0  0  0  0
   -2.4156   -1.1433    1.3263 C   0  0  0  0  0  0  0  0  0  0  0  0
   -3.8158   -1.6840    1.6103 C   0  0  0  0  0  0  0  0  0  0  0  0
   -3.8201   -3.0955    1.5067 O   0  0  0  0  0  0  0  0  0  0  0  0
   -4.3056   -3.4978    0.2421 C   0  0  0  0  0  0  0  0  0  0  0  0
   -4.1417   -5.0006    0.0979 C   0  0  0  0  0  0  0  0  0  0  0  0
    4.2140    2.7276   -4.2781 H   0  0  0  0  0  0  0  0  0  0  0  0
    5.9604    2.9788   -3.8927 H   0  0  0  0  0  0  0  0  0  0  0  0
    4.7250    4.1606   -3.3084 H   0  0  0  0  0  0  0  0  0  0  0  0
    5.4905    2.6713   -1.4712 H   0  0  0  0  0  0  0  0  0  0  0  0
    5.0424    1.2117   -2.3996 H   0  0  0  0  0  0  0  0  0  0  0  0
    1.5635    1.8342   -2.1688 H   0  0  0  0  0  0  0  0  0  0  0  0
    2.8184    1.0608   -3.1536 H   0  0  0  0  0  0  0  0  0  0  0  0
    3.6380   -0.1677   -1.0894 H   0  0  0  0  0  0  0  0  0  0  0  0
    1.9466   -0.5591   -1.5245 H   0  0  0  0  0  0  0  0  0  0  0  0
    2.0796   -1.7047    0.8341 H   0  0  0  0  0  0  0  0  0  0  0  0
    1.7299   -0.8692    2.3881 H   0  0  0  0  0  0  0  0  0  0  0  0
    4.4943   -0.8815    1.0004 H   0  0  0  0  0  0  0  0  0  0  0  0
    4.0773   -0.0934    2.5429 H   0  0  0  0  0  0  0  0  0  0  0  0
    4.0971   -3.3515    0.9510 H   0  0  0  0  0  0  0  0  0  0  0  0
    5.7013   -2.7974    1.6147 H   0  0  0  0  0  0  0  0  0  0  0  0
    5.3179   -5.1795    2.1106 H   0  0  0  0  0  0  0  0  0  0  0  0
    3.7584   -4.7872    2.9480 H   0  0  0  0  0  0  0  0  0  0  0  0
    5.3328   -4.2127    3.6410 H   0  0  0  0  0  0  0  0  0  0  0  0
   -0.0413   -0.4154    0.0723 H   0  0  0  0  0  0  0  0  0  0  0  0
   -0.0829    1.2935   -0.5021 H   0  0  0  0  0  0  0  0  0  0  0  0
   -0.3821    2.1564    1.7621 H   0  0  0  0  0  0  0  0  0  0  0  0
   -0.1152    0.5432    2.4914 H   0  0  0  0  0  0  0  0  0  0  0  0
   -3.9760    0.9314   -0.2721 H   0  0  0  0  0  0  0  0  0  0  0  0
   -2.2990    0.8807   -0.9011 H   0  0  0  0  0  0  0  0  0  0  0  0
   -3.6245    3.2583    0.6145 H   0  0  0  0  0  0  0  0  0  0  0  0
   -1.9219    3.1937    0.0761 H   0  0  0  0  0  0  0  0  0  0  0  0
   -5.2619    2.7535   -1.0129 H   0  0  0  0  0  0  0  0  0  0  0  0
   -4.8875    3.1738   -2.7045 H   0  0  0  0  0  0  0  0  0  0  0  0
   -4.4465    5.5618   -2.0285 H   0  0  0  0  0  0  0  0  0  0  0  0
   -4.9368    5.1381   -0.3313 H   0  0  0  0  0  0  0  0  0  0  0  0
   -6.1292    5.0098   -1.6773 H   0  0  0  0  0  0  0  0  0  0  0  0
   -2.1220   -1.3947    0.2835 H   0  0  0  0  0  0  0  0  0  0  0  0
   -1.6940   -1.6151    2.0280 H   0  0  0  0  0  0  0  0  0  0  0  0
   -4.5656   -1.1820    0.9509 H   0  0  0  0  0  0  0  0  0  0  0  0
   -4.0892   -1.4231    2.6554 H   0  0  0  0  0  0  0  0  0  0  0  0
   -5.3868   -3.2538    0.1482 H   0  0  0  0  0  0  0  0  0  0  0  0
   -3.7390   -3.0065   -0.5810 H   0  0  0  0  0  0  0  0  0  0  0  0
   -3.0667   -5.2740    0.1484 H   0  0  0  0  0  0  0  0  0  0  0  0
   -4.5497   -5.3325   -0.8808 H   0  0  0  0  0  0  0  0  0  0  0  0
   -4.6889   -5.5228    0.9129 H   0  0  0  0  0  0  0  0  0  0  0  0
  1  2  1  0
  2  3  1  0
  3  4  1  0
  4  5  1  0
  5  6  1  0
  6  7  1  0
  7  8  1  0
  8  9  1  0
  9 10  1  0
 10 11  1  0
  6 12  1  0
 12 13  1  0
 13 14  1  0
 14 15  1  0
 15 16  1  0
 16 17  1  0
 17 18  1  0
 18 19  1  0
 14 20  1  0
 20 21  1  0
 21 22  1  0
 22 23  1  0
 23 24  1  0
  1 25  1  0
  1 26  1  0
  1 27  1  0
  2 28  1  0
  2 29  1  0
  4 30  1  0
  4 31  1  0
  5 32  1  0
  5 33  1  0
  7 34  1  0
  7 35  1  0
  8 36  1  0
  8 37  1  0
 10 38  1  0
 10 39  1  0
 11 40  1  0
 11 41  1  0
 11 42  1  0
 12 43  1  0
 12 44  1  0
 13 45  1  0
 13 46  1  0
 15 47  1  0
 15 48  1  0
 16 49  1  0
 16 50  1  0
 18 51  1  0
 18 52  1  0
 19 53  1  0
 19 54  1  0
 19 55  1  0
 20 56  1  0
 20 57  1  0
 21 58  1  0
 21 59  1  0
 23 60  1  0
 23 61  1  0
 24 62  1  0
 24 63  1  0
 24 64  1  0
M  END
> <ID>
HT2031

> <Class>
0.0

> <Clusters>
278

> <Fold>
3

$$$$