
     RDKit          3D

 15 15  0  0  0  0  0  0  0  0999 V2000
    2.5972   -0.3537    0.3863 N   0  0  0  0  0  0  0  0  0  0  0  0
    1.1947   -0.1866    0.1622 C   0  0  0  0  0  0  0  0  0  0  0  0
    0.4883   -1.1184   -0.6086 C   0  0  0  0  0  0  0  0  0  0  0  0
   -0.8836   -0.9574   -0.8293 C   0  0  0  0  0  0  0  0  0  0  0  0
   -1.7424   -2.1433   -1.8007 Cl  0  0  0  0  0  0  0  0  0  0  0  0
   -1.5638    0.1404   -0.2796 C   0  0  0  0  0  0  0  0  0  0  0  0
   -2.9333    0.2774   -0.5153 O   0  0  0  0  0  0  0  0  0  0  0  0
   -0.8541    1.0790    0.4964 C   0  0  0  0  0  0  0  0  0  0  0  0
   -1.6511    2.4744    1.2111 Cl  0  0  0  0  0  0  0  0  0  0  0  0
    0.5187    0.9102    0.7123 C   0  0  0  0  0  0  0  0  0  0  0  0
    3.1331    0.3355    0.9596 H   0  0  0  0  0  0  0  0  0  0  0  0
    3.1103   -1.1680   -0.0195 H   0  0  0  0  0  0  0  0  0  0  0  0
    1.0045   -1.9688   -1.0369 H   0  0  0  0  0  0  0  0  0  0  0  0
   -3.4792    1.0458   -0.1470 H   0  0  0  0  0  0  0  0  0  0  0  0
    1.0605    1.6336    1.3091 H   0  0  0  0  0  0  0  0  0  0  0  0
  1  2  1  0
  2  3  2  0
  3  4  1  0
  4  5  1  0
  4  6  2  0
  6  7  1  0
  6  8  1  0
  8  9  1  0
  8 10  2  0
 10  2  1  0
  1 11  1  0
  1 12  1  0
  3 13  1  0
  7 14  1  0
 10 15  1  0
M  END
> <ID>
HT0040

> <Class>
0.0

> <Clusters>
53

> <Fold>
3

$$$$