
     RDKit          3D

 90 92  0  0  0  0  0  0  0  0999 V2000
   -2.5790    0.8720   -0.0671 C   0  0  0  0  0  0  0  0  0  0  0  0
   -3.6033   -0.1597   -0.3377 N   0  0  0  0  0  0  0  0  0  0  0  0
   -3.6904   -1.1711    0.7455 C   0  0  0  0  0  0  0  0  0  0  0  0
   -4.3916   -0.6611    2.0357 C   0  0  0  0  0  0  0  0  0  0  0  0
   -5.6529   -1.4867    2.3609 C   0  0  0  0  0  0  0  0  0  0  0  0
   -6.4679   -0.8787    3.4356 N   0  0  0  0  0  0  0  0  0  0  0  0
   -7.8421   -0.5704    3.0002 C   0  0  0  0  0  0  0  0  0  0  0  0
   -7.9112    0.7484    2.1963 C   0  0  0  0  0  0  0  0  0  0  0  0
   -9.0732    0.7954    1.2879 N   0  0  0  0  0  0  0  0  0  0  0  0
   -8.7846    0.1711   -0.0140 C   0  0  0  0  0  0  0  0  0  0  0  0
   -8.1386    1.1922   -0.9660 C   0  0  0  0  0  0  0  0  0  0  0  0
   -7.5278    0.5249   -2.2230 C   0  0  0  0  0  0  0  0  0  0  0  0
   -6.2828    1.1897   -2.6606 N   0  0  0  0  0  0  0  0  0  0  0  0
   -5.0554    0.4934   -2.2311 C   0  0  0  0  0  0  0  0  0  0  0  0
   -4.9153    0.4197   -0.7040 C   0  0  0  0  0  0  0  0  0  0  0  0
   -1.2137    0.3463   -0.4202 C   0  0  0  0  0  0  0  0  0  0  0  0
   -0.2371    0.1611    0.5695 C   0  0  0  0  0  0  0  0  0  0  0  0
    1.0241   -0.3362    0.2301 C   0  0  0  0  0  0  0  0  0  0  0  0
    1.3358   -0.6308   -1.1080 C   0  0  0  0  0  0  0  0  0  0  0  0
    2.6846   -1.1987   -1.4758 C   0  0  0  0  0  0  0  0  0  0  0  0
    3.7664   -0.5213   -0.7277 N   0  0  0  0  0  0  0  0  0  0  0  0
    4.0502    0.8232   -1.2855 C   0  0  0  0  0  0  0  0  0  0  0  0
    4.5056    1.7670   -0.1595 C   0  0  0  0  0  0  0  0  0  0  0  0
    5.2358    3.0219   -0.6877 C   0  0  0  0  0  0  0  0  0  0  0  0
    6.5576    3.1785   -0.0563 N   0  0  0  0  0  0  0  0  0  0  0  0
    7.5527    2.2294   -0.5928 C   0  0  0  0  0  0  0  0  0  0  0  0
    8.1443    1.3946    0.5523 C   0  0  0  0  0  0  0  0  0  0  0  0
    8.8513    0.2083    0.0367 N   0  0  0  0  0  0  0  0  0  0  0  0
    9.1137   -0.7994    1.0824 C   0  0  0  0  0  0  0  0  0  0  0  0
    7.8705   -1.6323    1.4728 C   0  0  0  0  0  0  0  0  0  0  0  0
    7.4500   -2.6476    0.3891 C   0  0  0  0  0  0  0  0  0  0  0  0
    6.1083   -3.2110    0.6286 N   0  0  0  0  0  0  0  0  0  0  0  0
    4.9863   -2.2480    0.5664 C   0  0  0  0  0  0  0  0  0  0  0  0
    4.9924   -1.3560   -0.6884 C   0  0  0  0  0  0  0  0  0  0  0  0
    0.3527   -0.4593   -2.0933 C   0  0  0  0  0  0  0  0  0  0  0  0
   -0.9113    0.0282   -1.7524 C   0  0  0  0  0  0  0  0  0  0  0  0
   -2.7546    1.7785   -0.6883 H   0  0  0  0  0  0  0  0  0  0  0  0
   -2.6187    1.2030    0.9937 H   0  0  0  0  0  0  0  0  0  0  0  0
   -4.2078   -2.0699    0.3403 H   0  0  0  0  0  0  0  0  0  0  0  0
   -2.6700   -1.5290    1.0064 H   0  0  0  0  0  0  0  0  0  0  0  0
   -3.6870   -0.7396    2.8912 H   0  0  0  0  0  0  0  0  0  0  0  0
   -4.6587    0.4115    1.9471 H   0  0  0  0  0  0  0  0  0  0  0  0
   -6.2432   -1.6387    1.4307 H   0  0  0  0  0  0  0  0  0  0  0  0
   -5.3354   -2.4968    2.6973 H   0  0  0  0  0  0  0  0  0  0  0  0
   -6.0209   -0.0189    3.8324 H   0  0  0  0  0  0  0  0  0  0  0  0
   -8.4844   -0.4701    3.9027 H   0  0  0  0  0  0  0  0  0  0  0  0
   -8.2636   -1.4207    2.4187 H   0  0  0  0  0  0  0  0  0  0  0  0
   -7.9919    1.5940    2.9122 H   0  0  0  0  0  0  0  0  0  0  0  0
   -6.9686    0.9119    1.6360 H   0  0  0  0  0  0  0  0  0  0  0  0
   -9.8866    0.3055    1.7314 H   0  0  0  0  0  0  0  0  0  0  0  0
   -9.7342   -0.1823   -0.4738 H   0  0  0  0  0  0  0  0  0  0  0  0
   -8.1326   -0.7213    0.1123 H   0  0  0  0  0  0  0  0  0  0  0  0
   -7.3643    1.7643   -0.4171 H   0  0  0  0  0  0  0  0  0  0  0  0
   -8.9067    1.9344   -1.2811 H   0  0  0  0  0  0  0  0  0  0  0  0
   -8.2677    0.5941   -3.0503 H   0  0  0  0  0  0  0  0  0  0  0  0
   -7.3594   -0.5641   -2.0663 H   0  0  0  0  0  0  0  0  0  0  0  0
   -6.2512    2.1918   -2.3600 H   0  0  0  0  0  0  0  0  0  0  0  0
   -5.0342   -0.5333   -2.6593 H   0  0  0  0  0  0  0  0  0  0  0  0
   -4.1801    1.0364   -2.6493 H   0  0  0  0  0  0  0  0  0  0  0  0
   -5.0450    1.4308   -0.2583 H   0  0  0  0  0  0  0  0  0  0  0  0
   -5.7387   -0.2145   -0.3252 H   0  0  0  0  0  0  0  0  0  0  0  0
   -0.4540    0.3885    1.6054 H   0  0  0  0  0  0  0  0  0  0  0  0
    1.7573   -0.4903    1.0125 H   0  0  0  0  0  0  0  0  0  0  0  0
    2.8654   -1.1182   -2.5723 H   0  0  0  0  0  0  0  0  0  0  0  0
    2.6539   -2.2828   -1.2314 H   0  0  0  0  0  0  0  0  0  0  0  0
    4.8145    0.7577   -2.0942 H   0  0  0  0  0  0  0  0  0  0  0  0
    3.1428    1.2741   -1.7468 H   0  0  0  0  0  0  0  0  0  0  0  0
    5.1521    1.2134    0.5506 H   0  0  0  0  0  0  0  0  0  0  0  0
    3.6118    2.0771    0.4245 H   0  0  0  0  0  0  0  0  0  0  0  0
    4.6181    3.9125   -0.4389 H   0  0  0  0  0  0  0  0  0  0  0  0
    5.3333    3.0213   -1.7965 H   0  0  0  0  0  0  0  0  0  0  0  0
    6.8911    4.1492   -0.2585 H   0  0  0  0  0  0  0  0  0  0  0  0
    7.1076    1.5541   -1.3571 H   0  0  0  0  0  0  0  0  0  0  0  0
    8.3806    2.7782   -1.0958 H   0  0  0  0  0  0  0  0  0  0  0  0
    7.3288    1.1096    1.2408 H   0  0  0  0  0  0  0  0  0  0  0  0
    8.8554    2.0236    1.1302 H   0  0  0  0  0  0  0  0  0  0  0  0
    8.3201   -0.2278   -0.7479 H   0  0  0  0  0  0  0  0  0  0  0  0
    9.5188   -0.3016    1.9905 H   0  0  0  0  0  0  0  0  0  0  0  0
    9.9082   -1.4865    0.7202 H   0  0  0  0  0  0  0  0  0  0  0  0
    7.0413   -0.9575    1.7403 H   0  0  0  0  0  0  0  0  0  0  0  0
    8.1124   -2.2015    2.3970 H   0  0  0  0  0  0  0  0  0  0  0  0
    8.1861   -3.4829    0.4168 H   0  0  0  0  0  0  0  0  0  0  0  0
    7.5189   -2.2409   -0.6389 H   0  0  0  0  0  0  0  0  0  0  0  0
    5.9404   -3.9455   -0.0982 H   0  0  0  0  0  0  0  0  0  0  0  0
    4.9672   -1.6152    1.4777 H   0  0  0  0  0  0  0  0  0  0  0  0
    4.0366   -2.8256    0.5922 H   0  0  0  0  0  0  0  0  0  0  0  0
    5.8932   -0.7083   -0.6362 H   0  0  0  0  0  0  0  0  0  0  0  0
    5.0923   -1.9821   -1.6048 H   0  0  0  0  0  0  0  0  0  0  0  0
    0.5626   -0.7054   -3.1263 H   0  0  0  0  0  0  0  0  0  0  0  0
   -1.6553    0.1590   -2.5279 H   0  0  0  0  0  0  0  0  0  0  0  0
  1  2  1  0
  2  3  1  0
  3  4  1  0
  4  5  1  0
  5  6  1  0
  6  7  1  0
  7  8  1  0
  8  9  1  0
  9 10  1  0
 10 11  1  0
 11 12  1  0
 12 13  1  0
 13 14  1  0
 14 15  1  0
 15  2  1  0
  1 16  1  0
 16 17  2  0
 17 18  1  0
 18 19  2  0
 19 20  1  0
 20 21  1  0
 21 22  1  0
 22 23  1  0
 23 24  1  0
 24 25  1  0
 25 26  1  0
 26 27  1  0
 27 28  1  0
 28 29  1  0
 29 30  1  0
 30 31  1  0
 31 32  1  0
 32 33  1  0
 33 34  1  0
 34 21  1  0
 19 35  1  0
 35 36  2  0
 36 16  1  0
  1 37  1  0
  1 38  1  0
  3 39  1  0
  3 40  1  0
  4 41  1  0
  4 42  1  0
  5 43  1  0
  5 44  1  0
  6 45  1  0
  7 46  1  0
  7 47  1  0
  8 48  1  0
  8 49  1  0
  9 50  1  0
 10 51  1  0
 10 52  1  0
 11 53  1  0
 11 54  1  0
 12 55  1  0
 12 56  1  0
 13 57  1  0
 14 58  1  0
 14 59  1  0
 15 60  1  0
 15 61  1  0
 17 62  1  0
 18 63  1  0
 20 64  1  0
 20 65  1  0
 22 66  1  0
 22 67  1  0
 23 68  1  0
 23 69  1  0
 24 70  1  0
 24 71  1  0
 25 72  1  0
 26 73  1  0
 26 74  1  0
 27 75  1  0
 27 76  1  0
 28 77  1  0
 29 78  1  0
 29 79  1  0
 30 80  1  0
 30 81  1  0
 31 82  1  0
 31 83  1  0
 32 84  1  0
 33 85  1  0
 33 86  1  0
 34 87  1  0
 34 88  1  0
 35 89  1  0
 36 90  1  0
M  END
> <ID>
HT1703

> <Class>
0.0

> <Clusters>
67

> <Fold>
3

$$$$