
     RDKit          3D

 18 19  0  0  0  0  0  0  0  0999 V2000
    2.4003   -0.7849   -0.0601 C   0  0  0  0  0  0  0  0  0  0  0  0
    2.4501    0.6118   -0.0604 C   0  0  0  0  0  0  0  0  0  0  0  0
    1.2687    1.3585   -0.0306 C   0  0  0  0  0  0  0  0  0  0  0  0
    0.0253    0.7082   -0.0002 C   0  0  0  0  0  0  0  0  0  0  0  0
   -1.1686    1.4455    0.0300 C   0  0  0  0  0  0  0  0  0  0  0  0
   -2.4003    0.7849    0.0601 C   0  0  0  0  0  0  0  0  0  0  0  0
   -2.4501   -0.6118    0.0604 C   0  0  0  0  0  0  0  0  0  0  0  0
   -1.2687   -1.3585    0.0306 C   0  0  0  0  0  0  0  0  0  0  0  0
   -0.0253   -0.7082    0.0002 C   0  0  0  0  0  0  0  0  0  0  0  0
    1.1686   -1.4455   -0.0300 C   0  0  0  0  0  0  0  0  0  0  0  0
    3.3188   -1.3571   -0.0833 H   0  0  0  0  0  0  0  0  0  0  0  0
    3.4071    1.1171   -0.0839 H   0  0  0  0  0  0  0  0  0  0  0  0
    1.3265    2.4405   -0.0313 H   0  0  0  0  0  0  0  0  0  0  0  0
   -1.1492    2.5288    0.0302 H   0  0  0  0  0  0  0  0  0  0  0  0
   -3.3188    1.3571    0.0833 H   0  0  0  0  0  0  0  0  0  0  0  0
   -3.4071   -1.1171    0.0839 H   0  0  0  0  0  0  0  0  0  0  0  0
   -1.3265   -2.4405    0.0313 H   0  0  0  0  0  0  0  0  0  0  0  0
    1.1492   -2.5288   -0.0302 H   0  0  0  0  0  0  0  0  0  0  0  0
  1  2  2  0
  2  3  1  0
  3  4  2  0
  4  5  1  0
  5  6  2  0
  6  7  1  0
  7  8  2  0
  8  9  1  0
  9  4  1  0
  9 10  2  0
 10  1  1  0
  1 11  1  0
  2 12  1  0
  3 13  1  0
  5 14  1  0
  6 15  1  0
  7 16  1  0
  8 17  1  0
 10 18  1  0
M  END
> <ID>
HT2533

> <Class>
0.0

> <Clusters>
30

> <Fold>
3

$$$$