
     RDKit          3D

 32 32  0  0  0  0  0  0  0  0999 V2000
   -2.8734   -0.3853    0.5981 C   0  0  0  0  0  0  0  0  0  0  0  0
   -1.8121    0.3180   -0.2835 C   0  0  0  0  0  0  0  0  0  0  0  0
   -2.5405    0.9397   -1.5006 C   0  0  0  0  0  0  0  0  0  0  0  0
   -1.2066    1.3463    0.4616 O   0  0  0  0  0  0  0  0  0  0  0  0
   -0.7215   -0.7177   -0.7651 C   0  0  0  0  0  0  0  0  0  0  0  0
    0.3458   -0.1439   -1.7351 C   0  0  0  0  0  0  0  0  0  0  0  0
    1.4175    0.6995   -1.0259 C   0  0  0  0  0  0  0  0  0  0  0  0
    2.1181   -0.0882    0.1037 C   0  0  0  0  0  0  0  0  0  0  0  0
    3.0845    0.8512    0.8503 C   0  0  0  0  0  0  0  0  0  0  0  0
    2.8520   -1.1422   -0.4776 O   0  0  0  0  0  0  0  0  0  0  0  0
    1.0645   -0.6503    1.0912 C   0  0  0  0  0  0  0  0  0  0  0  0
   -0.0011   -1.4909    0.3717 C   0  0  0  0  0  0  0  0  0  0  0  0
   -3.7442    0.2809    0.7800 H   0  0  0  0  0  0  0  0  0  0  0  0
   -3.2427   -1.3128    0.1103 H   0  0  0  0  0  0  0  0  0  0  0  0
   -2.4605   -0.6334    1.5972 H   0  0  0  0  0  0  0  0  0  0  0  0
   -2.8764    0.1509   -2.2075 H   0  0  0  0  0  0  0  0  0  0  0  0
   -1.8846    1.6575   -2.0342 H   0  0  0  0  0  0  0  0  0  0  0  0
   -3.4329    1.5177   -1.1772 H   0  0  0  0  0  0  0  0  0  0  0  0
   -1.9152    1.9804    0.7498 H   0  0  0  0  0  0  0  0  0  0  0  0
   -1.2717   -1.4904   -1.3490 H   0  0  0  0  0  0  0  0  0  0  0  0
    0.8530   -0.9953   -2.2410 H   0  0  0  0  0  0  0  0  0  0  0  0
   -0.1126    0.4472   -2.5512 H   0  0  0  0  0  0  0  0  0  0  0  0
    2.1744    1.0098   -1.7797 H   0  0  0  0  0  0  0  0  0  0  0  0
    0.9636    1.6320   -0.6315 H   0  0  0  0  0  0  0  0  0  0  0  0
    3.8610    1.2360    0.1549 H   0  0  0  0  0  0  0  0  0  0  0  0
    2.5375    1.7156    1.2850 H   0  0  0  0  0  0  0  0  0  0  0  0
    3.5940    0.3094    1.6759 H   0  0  0  0  0  0  0  0  0  0  0  0
    3.3000   -1.6450    0.2525 H   0  0  0  0  0  0  0  0  0  0  0  0
    0.5792    0.1739    1.6534 H   0  0  0  0  0  0  0  0  0  0  0  0
    1.5670   -1.2914    1.8483 H   0  0  0  0  0  0  0  0  0  0  0  0
   -0.7161   -1.8993    1.1118 H   0  0  0  0  0  0  0  0  0  0  0  0
    0.5001   -2.3800   -0.0716 H   0  0  0  0  0  0  0  0  0  0  0  0
  1  2  1  0
  2  3  1  0
  2  4  1  0
  2  5  1  0
  5  6  1  0
  6  7  1  0
  7  8  1  0
  8  9  1  0
  8 10  1  0
  8 11  1  0
 11 12  1  0
 12  5  1  0
  1 13  1  0
  1 14  1  0
  1 15  1  0
  3 16  1  0
  3 17  1  0
  3 18  1  0
  4 19  1  0
  5 20  1  0
  6 21  1  0
  6 22  1  0
  7 23  1  0
  7 24  1  0
  9 25  1  0
  9 26  1  0
  9 27  1  0
 10 28  1  0
 11 29  1  0
 11 30  1  0
 12 31  1  0
 12 32  1  0
M  END
> <ID>
HT2735

> <Class>
0.0

> <Clusters>
167

> <Fold>
3

$$$$