
     RDKit          3D

 51 54  0  0  0  0  0  0  0  0999 V2000
   -2.4889    0.4721   -2.3157 C   0  0  0  0  0  0  0  0  0  0  0  0
   -2.2294    0.3302   -0.7889 C   0  0  0  0  0  0  0  0  0  0  0  0
   -3.0714    1.4809   -0.1130 C   0  0  0  0  0  0  0  0  0  0  0  0
   -3.6379    1.1364    1.2685 C   0  0  0  0  0  0  0  0  0  0  0  0
   -4.3347   -0.1772    1.2025 C   0  0  0  0  0  0  0  0  0  0  0  0
   -5.4455   -0.3446    1.7721 O   0  0  0  0  0  0  0  0  0  0  0  0
   -3.6874   -1.2864    0.5048 C   0  0  0  0  0  0  0  0  0  0  0  0
   -2.6803   -1.0744   -0.3595 C   0  0  0  0  0  0  0  0  0  0  0  0
   -1.9152   -2.2547   -0.9029 C   0  0  0  0  0  0  0  0  0  0  0  0
   -0.4339   -2.0998   -0.5612 C   0  0  0  0  0  0  0  0  0  0  0  0
    0.1388   -0.7472   -1.0533 C   0  0  0  0  0  0  0  0  0  0  0  0
   -0.6760    0.4784   -0.5198 C   0  0  0  0  0  0  0  0  0  0  0  0
   -0.3131    0.7415    0.9574 C   0  0  0  0  0  0  0  0  0  0  0  0
    1.1869    1.0097    1.1256 C   0  0  0  0  0  0  0  0  0  0  0  0
    2.0995   -0.1583    0.6379 C   0  0  0  0  0  0  0  0  0  0  0  0
    2.0872   -1.2968    1.6926 C   0  0  0  0  0  0  0  0  0  0  0  0
    1.6701   -0.6394   -0.7746 C   0  0  0  0  0  0  0  0  0  0  0  0
    2.3761    0.3059   -1.7658 C   0  0  0  0  0  0  0  0  0  0  0  0
    3.5024    1.0002   -1.0023 C   0  0  0  0  0  0  0  0  0  0  0  0
    3.5627    0.3354    0.3766 C   0  0  0  0  0  0  0  0  0  0  0  0
    4.4564   -0.7551    0.2768 O   0  0  0  0  0  0  0  0  0  0  0  0
    4.0600    1.2996    1.3908 C   0  0  0  0  0  0  0  0  0  0  0  0
    4.4638    2.0814    2.2150 C   0  0  0  0  0  0  0  0  0  0  0  0
   -1.9259   -0.2541   -2.9303 H   0  0  0  0  0  0  0  0  0  0  0  0
   -3.5657    0.3129   -2.5435 H   0  0  0  0  0  0  0  0  0  0  0  0
   -2.2086    1.4899   -2.6643 H   0  0  0  0  0  0  0  0  0  0  0  0
   -3.9549    1.7372   -0.7414 H   0  0  0  0  0  0  0  0  0  0  0  0
   -2.4794    2.4192   -0.0544 H   0  0  0  0  0  0  0  0  0  0  0  0
   -2.8366    1.0692    2.0288 H   0  0  0  0  0  0  0  0  0  0  0  0
   -4.3440    1.9313    1.5938 H   0  0  0  0  0  0  0  0  0  0  0  0
   -4.0167   -2.2937    0.7306 H   0  0  0  0  0  0  0  0  0  0  0  0
   -2.2779   -3.2146   -0.4731 H   0  0  0  0  0  0  0  0  0  0  0  0
   -2.0486   -2.3268   -2.0020 H   0  0  0  0  0  0  0  0  0  0  0  0
   -0.3220   -2.2076    0.5324 H   0  0  0  0  0  0  0  0  0  0  0  0
    0.1231   -2.9363   -1.0369 H   0  0  0  0  0  0  0  0  0  0  0  0
    0.0433   -0.7709   -2.1592 H   0  0  0  0  0  0  0  0  0  0  0  0
   -0.3401    1.3779   -1.0824 H   0  0  0  0  0  0  0  0  0  0  0  0
   -0.6461   -0.0962    1.6034 H   0  0  0  0  0  0  0  0  0  0  0  0
   -0.8153    1.6616    1.3136 H   0  0  0  0  0  0  0  0  0  0  0  0
    1.3875    1.2216    2.1991 H   0  0  0  0  0  0  0  0  0  0  0  0
    1.4234    1.9444    0.5721 H   0  0  0  0  0  0  0  0  0  0  0  0
    1.0706   -1.5191    2.0636 H   0  0  0  0  0  0  0  0  0  0  0  0
    2.6814   -0.9969    2.5821 H   0  0  0  0  0  0  0  0  0  0  0  0
    2.5192   -2.2350    1.2845 H   0  0  0  0  0  0  0  0  0  0  0  0
    2.1200   -1.6443   -0.9496 H   0  0  0  0  0  0  0  0  0  0  0  0
    1.6839    1.0727   -2.1753 H   0  0  0  0  0  0  0  0  0  0  0  0
    2.7874   -0.2732   -2.6219 H   0  0  0  0  0  0  0  0  0  0  0  0
    4.4692    0.9021   -1.5443 H   0  0  0  0  0  0  0  0  0  0  0  0
    3.2707    2.0864   -0.9186 H   0  0  0  0  0  0  0  0  0  0  0  0
    4.6940   -1.0633    1.1908 H   0  0  0  0  0  0  0  0  0  0  0  0
    4.8175    2.7677    2.9386 H   0  0  0  0  0  0  0  0  0  0  0  0
  1  2  1  0
  2  3  1  0
  3  4  1  0
  4  5  1  0
  5  6  2  0
  5  7  1  0
  7  8  2  0
  8  2  1  0
  8  9  1  0
  9 10  1  0
 10 11  1  0
 11 12  1  0
 12  2  1  0
 12 13  1  0
 13 14  1  0
 14 15  1  0
 15 16  1  0
 15 17  1  0
 17 11  1  0
 17 18  1  0
 18 19  1  0
 19 20  1  0
 20 15  1  0
 20 21  1  0
 20 22  1  0
 22 23  3  0
  1 24  1  0
  1 25  1  0
  1 26  1  0
  3 27  1  0
  3 28  1  0
  4 29  1  0
  4 30  1  0
  7 31  1  0
  9 32  1  0
  9 33  1  0
 10 34  1  0
 10 35  1  0
 11 36  1  0
 12 37  1  0
 13 38  1  0
 13 39  1  0
 14 40  1  0
 14 41  1  0
 16 42  1  0
 16 43  1  0
 16 44  1  0
 17 45  1  0
 18 46  1  0
 18 47  1  0
 19 48  1  0
 19 49  1  0
 21 50  1  0
 23 51  1  0
M  END
> <ID>
HT3423

> <Class>
0.0

> <Clusters>
167

> <Fold>
3

$$$$