
     RDKit          3D

 50 52  0  0  0  0  0  0  0  0999 V2000
   -1.1379   -0.0199    2.4573 O   0  0  0  0  0  0  0  0  0  0  0  0
   -0.7151    0.1580    1.1206 C   0  0  0  0  0  0  0  0  0  0  0  0
    0.7433   -0.3915    1.0641 C   0  0  0  0  0  0  0  0  0  0  0  0
    1.3759   -0.4631   -0.3398 C   0  0  0  0  0  0  0  0  0  0  0  0
    2.7823   -0.9049   -0.2519 N   0  0  0  0  0  0  0  0  0  0  0  0
    3.6829    0.1405    0.2604 C   0  0  0  0  0  0  0  0  0  0  0  0
    5.0146    0.0067   -0.4725 C   0  0  0  0  0  0  0  0  0  0  0  0
    4.8104   -1.0963   -1.4922 C   0  0  0  0  0  0  0  0  0  0  0  0
    3.3086   -1.2707   -1.5690 C   0  0  0  0  0  0  0  0  0  0  0  0
   -1.7040   -0.6499    0.1862 C   0  0  0  0  0  0  0  0  0  0  0  0
   -3.1505   -0.0844    0.2188 C   0  0  0  0  0  0  0  0  0  0  0  0
   -4.0633   -0.8439   -0.7506 C   0  0  0  0  0  0  0  0  0  0  0  0
   -4.0957   -2.3361   -0.4080 C   0  0  0  0  0  0  0  0  0  0  0  0
   -2.6831   -2.9277   -0.4128 C   0  0  0  0  0  0  0  0  0  0  0  0
   -1.7515   -2.1604    0.5366 C   0  0  0  0  0  0  0  0  0  0  0  0
   -0.6509    1.6680    0.7929 C   0  0  0  0  0  0  0  0  0  0  0  0
   -0.8027    2.1663   -0.5223 C   0  0  0  0  0  0  0  0  0  0  0  0
   -0.6942    3.5345   -0.7867 C   0  0  0  0  0  0  0  0  0  0  0  0
   -0.4124    4.4291    0.2450 C   0  0  0  0  0  0  0  0  0  0  0  0
   -0.2270    3.9567    1.5435 C   0  0  0  0  0  0  0  0  0  0  0  0
   -0.3345    2.5902    1.8155 C   0  0  0  0  0  0  0  0  0  0  0  0
   -1.9556    0.5211    2.6101 H   0  0  0  0  0  0  0  0  0  0  0  0
    1.3790    0.2515    1.7114 H   0  0  0  0  0  0  0  0  0  0  0  0
    0.7898   -1.4002    1.5265 H   0  0  0  0  0  0  0  0  0  0  0  0
    0.8090   -1.2051   -0.9417 H   0  0  0  0  0  0  0  0  0  0  0  0
    1.3060    0.5167   -0.8588 H   0  0  0  0  0  0  0  0  0  0  0  0
    3.2761    1.1650    0.0970 H   0  0  0  0  0  0  0  0  0  0  0  0
    3.8339   -0.0077    1.3513 H   0  0  0  0  0  0  0  0  0  0  0  0
    5.2683    0.9608   -0.9852 H   0  0  0  0  0  0  0  0  0  0  0  0
    5.8346   -0.2564    0.2312 H   0  0  0  0  0  0  0  0  0  0  0  0
    5.2401   -0.8268   -2.4816 H   0  0  0  0  0  0  0  0  0  0  0  0
    5.2780   -2.0378   -1.1282 H   0  0  0  0  0  0  0  0  0  0  0  0
    3.0476   -2.3242   -1.8077 H   0  0  0  0  0  0  0  0  0  0  0  0
    2.9079   -0.6022   -2.3670 H   0  0  0  0  0  0  0  0  0  0  0  0
   -1.3501   -0.5818   -0.8624 H   0  0  0  0  0  0  0  0  0  0  0  0
   -3.1649    0.9878   -0.0634 H   0  0  0  0  0  0  0  0  0  0  0  0
   -3.5815   -0.1691    1.2391 H   0  0  0  0  0  0  0  0  0  0  0  0
   -5.0933   -0.4317   -0.6849 H   0  0  0  0  0  0  0  0  0  0  0  0
   -3.7043   -0.7040   -1.7941 H   0  0  0  0  0  0  0  0  0  0  0  0
   -4.7204   -2.8711   -1.1552 H   0  0  0  0  0  0  0  0  0  0  0  0
   -4.5584   -2.4811    0.5931 H   0  0  0  0  0  0  0  0  0  0  0  0
   -2.7321   -3.9922   -0.0973 H   0  0  0  0  0  0  0  0  0  0  0  0
   -2.2702   -2.8971   -1.4453 H   0  0  0  0  0  0  0  0  0  0  0  0
   -2.0970   -2.3018    1.5842 H   0  0  0  0  0  0  0  0  0  0  0  0
   -0.7452   -2.6161    0.4427 H   0  0  0  0  0  0  0  0  0  0  0  0
   -0.9957    1.5107   -1.3574 H   0  0  0  0  0  0  0  0  0  0  0  0
   -0.8210    3.9007   -1.7974 H   0  0  0  0  0  0  0  0  0  0  0  0
   -0.3260    5.4875    0.0359 H   0  0  0  0  0  0  0  0  0  0  0  0
    0.0087    4.6494    2.3410 H   0  0  0  0  0  0  0  0  0  0  0  0
   -0.1588    2.2538    2.8292 H   0  0  0  0  0  0  0  0  0  0  0  0
  1  2  1  0
  2  3  1  0
  3  4  1  0
  4  5  1  0
  5  6  1  0
  6  7  1  0
  7  8  1  0
  8  9  1  0
  9  5  1  0
  2 10  1  0
 10 11  1  0
 11 12  1  0
 12 13  1  0
 13 14  1  0
 14 15  1  0
 15 10  1  0
  2 16  1  0
 16 17  2  0
 17 18  1  0
 18 19  2  0
 19 20  1  0
 20 21  2  0
 21 16  1  0
  1 22  1  0
  3 23  1  0
  3 24  1  0
  4 25  1  0
  4 26  1  0
  6 27  1  0
  6 28  1  0
  7 29  1  0
  7 30  1  0
  8 31  1  0
  8 32  1  0
  9 33  1  0
  9 34  1  0
 10 35  1  0
 11 36  1  0
 11 37  1  0
 12 38  1  0
 12 39  1  0
 13 40  1  0
 13 41  1  0
 14 42  1  0
 14 43  1  0
 15 44  1  0
 15 45  1  0
 17 46  1  0
 18 47  1  0
 19 48  1  0
 20 49  1  0
 21 50  1  0
M  END
> <ID>
HT1748

> <Class>
0.0

> <Clusters>
67

> <Fold>
3

$$$$