
     RDKit          3D

 28 29  0  0  0  0  0  0  0  0999 V2000
    0.3862   -0.4854    2.7845 O   0  0  0  0  0  0  0  0  0  0  0  0
    0.6898    0.5922    1.9355 C   0  0  0  0  0  0  0  0  0  0  0  0
   -0.5943    1.2366    1.4639 C   0  0  0  0  0  0  0  0  0  0  0  0
   -0.8132    2.4291    1.8135 O   0  0  0  0  0  0  0  0  0  0  0  0
   -1.5910    0.5462    0.5937 C   0  0  0  0  0  0  0  0  0  0  0  0
   -1.5560   -0.8464    0.3749 C   0  0  0  0  0  0  0  0  0  0  0  0
   -2.5005   -1.4609   -0.4531 C   0  0  0  0  0  0  0  0  0  0  0  0
   -3.4935   -0.6999   -1.0709 C   0  0  0  0  0  0  0  0  0  0  0  0
   -3.5462    0.6783   -0.8605 C   0  0  0  0  0  0  0  0  0  0  0  0
   -2.6045    1.2986   -0.0342 C   0  0  0  0  0  0  0  0  0  0  0  0
    1.5589    0.1806    0.7586 C   0  0  0  0  0  0  0  0  0  0  0  0
    2.0102    1.1672   -0.1382 C   0  0  0  0  0  0  0  0  0  0  0  0
    2.8145    0.8231   -1.2284 C   0  0  0  0  0  0  0  0  0  0  0  0
    3.1848   -0.5074   -1.4329 C   0  0  0  0  0  0  0  0  0  0  0  0
    2.7547   -1.4958   -0.5453 C   0  0  0  0  0  0  0  0  0  0  0  0
    1.9504   -1.1576    0.5474 C   0  0  0  0  0  0  0  0  0  0  0  0
    1.1954   -0.6579    3.3340 H   0  0  0  0  0  0  0  0  0  0  0  0
    1.2626    1.3525    2.5190 H   0  0  0  0  0  0  0  0  0  0  0  0
   -0.8142   -1.4727    0.8440 H   0  0  0  0  0  0  0  0  0  0  0  0
   -2.4634   -2.5308   -0.6132 H   0  0  0  0  0  0  0  0  0  0  0  0
   -4.2234   -1.1785   -1.7110 H   0  0  0  0  0  0  0  0  0  0  0  0
   -4.3170    1.2684   -1.3394 H   0  0  0  0  0  0  0  0  0  0  0  0
   -2.6661    2.3706    0.1055 H   0  0  0  0  0  0  0  0  0  0  0  0
    1.7356    2.2048    0.0072 H   0  0  0  0  0  0  0  0  0  0  0  0
    3.1518    1.5893   -1.9144 H   0  0  0  0  0  0  0  0  0  0  0  0
    3.8076   -0.7722   -2.2776 H   0  0  0  0  0  0  0  0  0  0  0  0
    3.0459   -2.5263   -0.7032 H   0  0  0  0  0  0  0  0  0  0  0  0
    1.6350   -1.9457    1.2181 H   0  0  0  0  0  0  0  0  0  0  0  0
  1  2  1  0
  2  3  1  0
  3  4  2  0
  3  5  1  0
  5  6  2  0
  6  7  1  0
  7  8  2  0
  8  9  1  0
  9 10  2  0
 10  5  1  0
  2 11  1  0
 11 12  2  0
 12 13  1  0
 13 14  2  0
 14 15  1  0
 15 16  2  0
 16 11  1  0
  1 17  1  0
  2 18  1  0
  6 19  1  0
  7 20  1  0
  8 21  1  0
  9 22  1  0
 10 23  1  0
 12 24  1  0
 13 25  1  0
 14 26  1  0
 15 27  1  0
 16 28  1  0
M  END
> <ID>
HT2913

> <Class>
0.0

> <Clusters>
30

> <Fold>
3

$$$$