
     RDKit          3D

 51 54  0  0  0  0  0  0  0  0999 V2000
   -2.7754    2.5153    0.6574 C   0  0  0  0  0  0  0  0  0  0  0  0
   -2.7334    2.4720   -0.8669 C   0  0  0  0  0  0  0  0  0  0  0  0
   -2.0495    1.3048   -1.3236 O   0  0  0  0  0  0  0  0  0  0  0  0
   -2.5352   -0.0149   -1.2595 C   0  0  0  0  0  0  0  0  0  0  0  0
   -3.8738   -0.2996   -0.9361 C   0  0  0  0  0  0  0  0  0  0  0  0
   -4.3226   -1.6162   -0.8613 C   0  0  0  0  0  0  0  0  0  0  0  0
   -3.4492   -2.6786   -1.1170 C   0  0  0  0  0  0  0  0  0  0  0  0
   -3.9130   -4.0020   -1.0436 C   0  0  0  0  0  0  0  0  0  0  0  0
   -3.0515   -5.0658   -1.3148 C   0  0  0  0  0  0  0  0  0  0  0  0
   -1.7246   -4.8197   -1.6663 C   0  0  0  0  0  0  0  0  0  0  0  0
   -1.2472   -3.5091   -1.7419 C   0  0  0  0  0  0  0  0  0  0  0  0
   -2.0968   -2.4175   -1.4578 C   0  0  0  0  0  0  0  0  0  0  0  0
   -1.6438   -1.0747   -1.5247 C   0  0  0  0  0  0  0  0  0  0  0  0
   -0.2334   -0.7489   -1.8171 C   0  0  0  0  0  0  0  0  0  0  0  0
    0.0492   -0.0706   -2.8421 O   0  0  0  0  0  0  0  0  0  0  0  0
    0.7984   -1.1459   -0.9042 N   0  0  0  0  0  0  0  0  0  0  0  0
    2.1926   -0.7384   -1.0933 C   0  0  1  0  0  0  0  0  0  0  0  0
    2.4876    0.6118   -0.6636 C   0  0  1  0  0  0  0  0  0  0  0  0
    1.1582    1.6188    0.0835 S   0  0  0  0  0  0  0  0  0  0  0  0
    2.2262    2.0303    1.5409 C   0  0  0  0  0  0  0  0  0  0  0  0
    1.3295    2.2085    2.7744 C   0  0  0  0  0  0  0  0  0  0  0  0
    2.9387    3.3613    1.2227 C   0  0  0  0  0  0  0  0  0  0  0  0
    3.2165    0.8366    1.7414 C   0  0  1  0  0  0  0  0  0  0  0  0
    3.2674    0.1829    0.4566 N   0  0  0  0  0  0  0  0  0  0  0  0
    3.0679   -1.2191    0.0216 C   0  0  0  0  0  0  0  0  0  0  0  0
    3.4299   -2.3458    0.4501 O   0  0  0  0  0  0  0  0  0  0  0  0
    4.5960    1.2138    2.2094 C   0  0  0  0  0  0  0  0  0  0  0  0
    4.7677    1.6070    3.3945 O   0  0  0  0  0  0  0  0  0  0  0  0
    5.6834    1.1328    1.3432 O   0  0  0  0  0  0  0  0  0  0  0  0
   -1.7425    2.4980    1.0652 H   0  0  0  0  0  0  0  0  0  0  0  0
   -3.2758    3.4497    0.9897 H   0  0  0  0  0  0  0  0  0  0  0  0
   -3.3372    1.6481    1.0616 H   0  0  0  0  0  0  0  0  0  0  0  0
   -3.7549    2.5271   -1.2980 H   0  0  0  0  0  0  0  0  0  0  0  0
   -2.1752    3.3626   -1.2242 H   0  0  0  0  0  0  0  0  0  0  0  0
   -4.5820    0.4911   -0.7355 H   0  0  0  0  0  0  0  0  0  0  0  0
   -5.3587   -1.8039   -0.6045 H   0  0  0  0  0  0  0  0  0  0  0  0
   -4.9427   -4.2132   -0.7803 H   0  0  0  0  0  0  0  0  0  0  0  0
   -3.4154   -6.0836   -1.2591 H   0  0  0  0  0  0  0  0  0  0  0  0
   -1.0634   -5.6477   -1.8847 H   0  0  0  0  0  0  0  0  0  0  0  0
   -0.2159   -3.3614   -2.0328 H   0  0  0  0  0  0  0  0  0  0  0  0
    0.5372   -1.7299   -0.0773 H   0  0  0  0  0  0  0  0  0  0  0  0
    2.5956   -1.0085   -2.0937 H   0  0  0  0  0  0  0  0  0  0  0  0
    3.1103    1.1852   -1.3854 H   0  0  0  0  0  0  0  0  0  0  0  0
    1.9442    2.4392    3.6701 H   0  0  0  0  0  0  0  0  0  0  0  0
    0.7501    1.2807    2.9707 H   0  0  0  0  0  0  0  0  0  0  0  0
    0.6076    3.0379    2.6142 H   0  0  0  0  0  0  0  0  0  0  0  0
    2.1952    4.1463    0.9659 H   0  0  0  0  0  0  0  0  0  0  0  0
    3.5229    3.7207    2.0965 H   0  0  0  0  0  0  0  0  0  0  0  0
    3.6257    3.2383    0.3581 H   0  0  0  0  0  0  0  0  0  0  0  0
    2.8016    0.1046    2.4700 H   0  0  0  0  0  0  0  0  0  0  0  0
    6.6137    1.3900    1.6514 H   0  0  0  0  0  0  0  0  0  0  0  0
  1  2  1  0
  2  3  1  0
  3  4  1  0
  4  5  2  0
  5  6  1  0
  6  7  2  0
  7  8  1  0
  8  9  2  0
  9 10  1  0
 10 11  2  0
 11 12  1  0
 12  7  1  0
 12 13  2  0
 13  4  1  0
 13 14  1  0
 14 15  2  0
 14 16  1  0
 17 16  1  0
 17 18  1  0
 18 19  1  0
 19 20  1  0
 20 21  1  0
 20 22  1  0
 20 23  1  0
 23 24  1  0
 24 18  1  0
 24 25  1  0
 25 17  1  0
 25 26  2  0
 23 27  1  0
 27 28  2  0
 27 29  1  0
  1 30  1  0
  1 31  1  0
  1 32  1  0
  2 33  1  0
  2 34  1  0
  5 35  1  0
  6 36  1  0
  8 37  1  0
  9 38  1  0
 10 39  1  0
 11 40  1  0
 16 41  1  0
 17 42  1  6
 18 43  1  6
 21 44  1  0
 21 45  1  0
 21 46  1  0
 22 47  1  0
 22 48  1  0
 22 49  1  0
 23 50  1  1
 29 51  1  0
M  END
> <ID>
HT1452

> <Class>
0.0

> <Clusters>
62

> <Fold>
3

$$$$