
     RDKit          3D

  7  6  0  0  0  0  0  0  0  0999 V2000
   -1.3252    1.5353   -0.2955 Cl  0  0  0  0  0  0  0  0  0  0  0  0
   -0.5423   -0.0488   -0.0682 C   0  0  0  0  0  0  0  0  0  0  0  0
   -1.2425   -0.8334    1.3695 Cl  0  0  0  0  0  0  0  0  0  0  0  0
   -0.8615   -1.0571   -1.5014 Cl  0  0  0  0  0  0  0  0  0  0  0  0
    0.9357    0.1276    0.1143 C   0  0  0  0  0  0  0  0  0  0  0  0
    1.6578   -0.8421    0.2857 O   0  0  0  0  0  0  0  0  0  0  0  0
    1.3781    1.1187    0.0958 H   0  0  0  0  0  0  0  0  0  0  0  0
  1  2  1  0
  2  3  1  0
  2  4  1  0
  2  5  1  0
  5  6  2  0
  5  7  1  0
M  END
> <ID>
HT2616

> <Class>
0.0

> <Clusters>
251

> <Fold>
3

$$$$