
     RDKit          3D

 37 39  0  0  0  0  0  0  0  0999 V2000
    6.3743   -0.6927    0.9381 O   0  0  0  0  0  0  0  0  0  0  0  0
    5.6035   -1.1557   -0.1243 C   0  0  0  0  0  0  0  0  0  0  0  0
    6.1702   -1.5213   -1.1876 O   0  0  0  0  0  0  0  0  0  0  0  0
    4.1082   -1.1783   -0.0277 C   0  0  0  0  0  0  0  0  0  0  0  0
    3.5290    0.1977   -0.3705 C   0  0  0  0  0  0  0  0  0  0  0  0
    2.0322    0.2173   -0.2812 C   0  0  0  0  0  0  0  0  0  0  0  0
    1.2935   -0.8183    0.0523 O   0  0  0  0  0  0  0  0  0  0  0  0
    0.0423   -0.4319    0.0162 C   0  0  0  0  0  0  0  0  0  0  0  0
   -1.0939   -1.3383    0.2789 C   0  0  0  0  0  0  0  0  0  0  0  0
   -0.9618   -2.3525    1.2412 C   0  0  0  0  0  0  0  0  0  0  0  0
   -2.0195   -3.2333    1.4881 C   0  0  0  0  0  0  0  0  0  0  0  0
   -3.2100   -3.1183    0.7657 C   0  0  0  0  0  0  0  0  0  0  0  0
   -3.3414   -2.1279   -0.2110 C   0  0  0  0  0  0  0  0  0  0  0  0
   -2.2860   -1.2456   -0.4612 C   0  0  0  0  0  0  0  0  0  0  0  0
    0.0294    0.9114   -0.3375 C   0  0  0  0  0  0  0  0  0  0  0  0
    1.2984    1.3201   -0.5372 N   0  0  0  0  0  0  0  0  0  0  0  0
   -1.1260    1.8298   -0.4085 C   0  0  0  0  0  0  0  0  0  0  0  0
   -1.1696    2.8184   -1.4055 C   0  0  0  0  0  0  0  0  0  0  0  0
   -2.2475    3.7067   -1.4720 C   0  0  0  0  0  0  0  0  0  0  0  0
   -3.2817    3.6248   -0.5360 C   0  0  0  0  0  0  0  0  0  0  0  0
   -3.2356    2.6595    0.4730 C   0  0  0  0  0  0  0  0  0  0  0  0
   -2.1593    1.7698    0.5435 C   0  0  0  0  0  0  0  0  0  0  0  0
    5.9433   -0.3736    1.7975 H   0  0  0  0  0  0  0  0  0  0  0  0
    3.7039   -1.9426   -0.7275 H   0  0  0  0  0  0  0  0  0  0  0  0
    3.8155   -1.4649    1.0058 H   0  0  0  0  0  0  0  0  0  0  0  0
    3.8253    0.4785   -1.4044 H   0  0  0  0  0  0  0  0  0  0  0  0
    3.9345    0.9578    0.3320 H   0  0  0  0  0  0  0  0  0  0  0  0
   -0.0449   -2.4545    1.8090 H   0  0  0  0  0  0  0  0  0  0  0  0
   -1.9154   -4.0062    2.2386 H   0  0  0  0  0  0  0  0  0  0  0  0
   -4.0273   -3.8016    0.9570 H   0  0  0  0  0  0  0  0  0  0  0  0
   -4.2585   -2.0487   -0.7803 H   0  0  0  0  0  0  0  0  0  0  0  0
   -2.3958   -0.5047   -1.2425 H   0  0  0  0  0  0  0  0  0  0  0  0
   -0.3759    2.8941   -2.1387 H   0  0  0  0  0  0  0  0  0  0  0  0
   -2.2803    4.4597   -2.2488 H   0  0  0  0  0  0  0  0  0  0  0  0
   -4.1148    4.3137   -0.5882 H   0  0  0  0  0  0  0  0  0  0  0  0
   -4.0305    2.6051    1.2056 H   0  0  0  0  0  0  0  0  0  0  0  0
   -2.1277    1.0466    1.3483 H   0  0  0  0  0  0  0  0  0  0  0  0
  1  2  1  0
  2  3  2  0
  2  4  1  0
  4  5  1  0
  5  6  1  0
  6  7  1  0
  7  8  1  0
  8  9  1  0
  9 10  2  0
 10 11  1  0
 11 12  2  0
 12 13  1  0
 13 14  2  0
 14  9  1  0
  8 15  2  0
 15 16  1  0
 16  6  2  0
 15 17  1  0
 17 18  2  0
 18 19  1  0
 19 20  2  0
 20 21  1  0
 21 22  2  0
 22 17  1  0
  1 23  1  0
  4 24  1  0
  4 25  1  0
  5 26  1  0
  5 27  1  0
 10 28  1  0
 11 29  1  0
 12 30  1  0
 13 31  1  0
 14 32  1  0
 18 33  1  0
 19 34  1  0
 20 35  1  0
 21 36  1  0
 22 37  1  0
M  END
> <ID>
HT1554

> <Class>
0.0

> <Clusters>
30

> <Fold>
3

$$$$