
     RDKit          3D

 41 45  0  0  0  0  0  0  0  0999 V2000
   -3.5498    1.3095   -0.8663 C   0  0  0  0  0  0  0  0  0  0  0  0
   -2.4207    0.3653   -0.8845 N   0  0  0  0  0  0  0  0  0  0  0  0
   -1.4279    0.7271   -1.9187 C   0  0  0  0  0  0  0  0  0  0  0  0
   -0.2945   -0.3171   -2.0057 C   0  0  0  0  0  0  0  0  0  0  0  0
    0.2883   -0.6626   -0.6084 C   0  0  2  0  0  0  0  0  0  0  0  0
    1.5187   -1.6328   -0.7150 C   0  0  1  0  0  0  0  0  0  0  0  0
    2.6701   -0.7889   -0.5780 O   0  0  0  0  0  0  0  0  0  0  0  0
    2.2949    0.4547   -0.1135 C   0  0  0  0  0  0  0  0  0  0  0  0
    3.1214    1.4722    0.3694 C   0  0  0  0  0  0  0  0  0  0  0  0
    4.5082    1.3908    0.2742 O   0  0  0  0  0  0  0  0  0  0  0  0
    2.5112    2.5790    0.9908 C   0  0  0  0  0  0  0  0  0  0  0  0
    1.1107    2.6096    1.1719 C   0  0  0  0  0  0  0  0  0  0  0  0
    0.3118    1.5655    0.6665 C   0  0  0  0  0  0  0  0  0  0  0  0
   -1.1348    1.3963    1.0666 C   0  0  0  0  0  0  0  0  0  0  0  0
   -1.8239    0.1201    0.4571 C   0  0  2  0  0  0  0  0  0  0  0  0
   -0.8647   -1.1079    0.3338 C   0  0  1  0  0  0  0  0  0  0  0  0
   -1.6148   -2.1693   -0.2244 O   0  0  0  0  0  0  0  0  0  0  0  0
   -0.2990   -1.5638    1.6964 C   0  0  0  0  0  0  0  0  0  0  0  0
    0.6380   -2.7706    1.5484 C   0  0  0  0  0  0  0  0  0  0  0  0
    1.5809   -2.6976    0.3649 C   0  0  0  0  0  0  0  0  0  0  0  0
    2.4441   -3.5567    0.2707 O   0  0  0  0  0  0  0  0  0  0  0  0
    0.9411    0.5574   -0.0562 C   0  0  0  0  0  0  0  0  0  0  0  0
   -4.2200    1.1102   -0.0028 H   0  0  0  0  0  0  0  0  0  0  0  0
   -3.2046    2.3646   -0.8285 H   0  0  0  0  0  0  0  0  0  0  0  0
   -4.1531    1.1773   -1.7893 H   0  0  0  0  0  0  0  0  0  0  0  0
   -1.9271    0.7722   -2.9115 H   0  0  0  0  0  0  0  0  0  0  0  0
   -1.0027    1.7357   -1.7230 H   0  0  0  0  0  0  0  0  0  0  0  0
   -0.6914   -1.2387   -2.4841 H   0  0  0  0  0  0  0  0  0  0  0  0
    0.5059    0.0757   -2.6715 H   0  0  0  0  0  0  0  0  0  0  0  0
    1.5389   -2.1290   -1.7101 H   0  0  0  0  0  0  0  0  0  0  0  0
    4.9619    0.5967   -0.1619 H   0  0  0  0  0  0  0  0  0  0  0  0
    3.1213    3.3799    1.3883 H   0  0  0  0  0  0  0  0  0  0  0  0
    0.6608    3.4150    1.7385 H   0  0  0  0  0  0  0  0  0  0  0  0
   -1.6921    2.3214    0.8228 H   0  0  0  0  0  0  0  0  0  0  0  0
   -1.1634    1.3023    2.1737 H   0  0  0  0  0  0  0  0  0  0  0  0
   -2.6429   -0.1768    1.1511 H   0  0  0  0  0  0  0  0  0  0  0  0
   -0.9934   -2.8424   -0.6040 H   0  0  0  0  0  0  0  0  0  0  0  0
    0.2608   -0.7443    2.1944 H   0  0  0  0  0  0  0  0  0  0  0  0
   -1.1366   -1.8401    2.3733 H   0  0  0  0  0  0  0  0  0  0  0  0
    0.0307   -3.6968    1.4556 H   0  0  0  0  0  0  0  0  0  0  0  0
    1.2378   -2.8632    2.4796 H   0  0  0  0  0  0  0  0  0  0  0  0
  1  2  1  0
  2  3  1  0
  3  4  1  0
  5  4  1  6
  5  6  1  0
  6  7  1  0
  7  8  1  0
  8  9  2  0
  9 10  1  0
  9 11  1  0
 11 12  2  0
 12 13  1  0
 13 14  1  0
 15 14  1  0
 15  2  1  0
 15 16  1  0
 16  5  1  0
 16 17  1  6
 16 18  1  0
 18 19  1  0
 19 20  1  0
 20  6  1  0
 20 21  2  0
 13 22  2  0
 22  5  1  0
 22  8  1  0
  1 23  1  0
  1 24  1  0
  1 25  1  0
  3 26  1  0
  3 27  1  0
  4 28  1  0
  4 29  1  0
  6 30  1  6
 10 31  1  0
 11 32  1  0
 12 33  1  0
 14 34  1  0
 14 35  1  0
 15 36  1  1
 17 37  1  0
 18 38  1  0
 18 39  1  0
 19 40  1  0
 19 41  1  0
M  END
> <ID>
HT1570

> <Class>
0.0

> <Clusters>
175

> <Fold>
3

$$$$