
     RDKit          3D

 36 38  0  0  0  0  0  0  0  0999 V2000
   -1.6907   -2.8406   -0.3527 C   0  0  0  0  0  0  0  0  0  0  0  0
   -1.7775   -2.0023    0.9215 C   0  0  0  0  0  0  0  0  0  0  0  0
   -1.8652   -0.5621    0.5999 N   0  0  0  0  0  0  0  0  0  0  0  0
   -3.1055    0.0150    0.6600 C   0  0  0  0  0  0  0  0  0  0  0  0
   -3.3019    1.3718    0.3797 C   0  0  0  0  0  0  0  0  0  0  0  0
   -4.6692    1.9401    0.4706 C   0  0  0  0  0  0  0  0  0  0  0  0
   -5.6611    1.2365    0.1420 O   0  0  0  0  0  0  0  0  0  0  0  0
   -4.8915    3.2321    0.9438 O   0  0  0  0  0  0  0  0  0  0  0  0
   -2.2011    2.1492   -0.0063 C   0  0  0  0  0  0  0  0  0  0  0  0
   -2.3637    3.3599   -0.3256 O   0  0  0  0  0  0  0  0  0  0  0  0
   -0.9216    1.5700   -0.0651 C   0  0  0  0  0  0  0  0  0  0  0  0
    0.1970    2.3398   -0.4347 C   0  0  0  0  0  0  0  0  0  0  0  0
    1.4647    1.7683   -0.4964 C   0  0  0  0  0  0  0  0  0  0  0  0
    1.6503    0.4145   -0.1920 C   0  0  0  0  0  0  0  0  0  0  0  0
    0.5404   -0.3623    0.1804 C   0  0  0  0  0  0  0  0  0  0  0  0
   -0.7616    0.1930    0.2462 C   0  0  0  0  0  0  0  0  0  0  0  0
    3.0048   -0.1916   -0.2660 C   0  0  0  0  0  0  0  0  0  0  0  0
    4.1280    0.5034    0.2146 C   0  0  0  0  0  0  0  0  0  0  0  0
    5.3923   -0.0854    0.1354 C   0  0  0  0  0  0  0  0  0  0  0  0
    5.5361   -1.3237   -0.4054 N   0  0  0  0  0  0  0  0  0  0  0  0
    4.4708   -2.0210   -0.8802 C   0  0  0  0  0  0  0  0  0  0  0  0
    3.1884   -1.4705   -0.8199 C   0  0  0  0  0  0  0  0  0  0  0  0
   -1.6220   -3.9163   -0.0867 H   0  0  0  0  0  0  0  0  0  0  0  0
   -0.8000   -2.5667   -0.9540 H   0  0  0  0  0  0  0  0  0  0  0  0
   -2.6006   -2.6828   -0.9695 H   0  0  0  0  0  0  0  0  0  0  0  0
   -2.6738   -2.3412    1.4879 H   0  0  0  0  0  0  0  0  0  0  0  0
   -0.9241   -2.2094    1.6001 H   0  0  0  0  0  0  0  0  0  0  0  0
   -3.9669   -0.5828    0.9383 H   0  0  0  0  0  0  0  0  0  0  0  0
   -4.1485    3.7955    1.3380 H   0  0  0  0  0  0  0  0  0  0  0  0
    0.0955    3.3899   -0.6808 H   0  0  0  0  0  0  0  0  0  0  0  0
    2.3013    2.3848   -0.8013 H   0  0  0  0  0  0  0  0  0  0  0  0
    0.7181   -1.3969    0.4277 H   0  0  0  0  0  0  0  0  0  0  0  0
    4.0274    1.4841    0.6625 H   0  0  0  0  0  0  0  0  0  0  0  0
    6.2602    0.4424    0.5075 H   0  0  0  0  0  0  0  0  0  0  0  0
    4.6193   -3.0032   -1.3085 H   0  0  0  0  0  0  0  0  0  0  0  0
    2.3521   -2.0316   -1.2179 H   0  0  0  0  0  0  0  0  0  0  0  0
  1  2  1  0
  2  3  1  0
  3  4  1  0
  4  5  2  0
  5  6  1  0
  6  7  2  0
  6  8  1  0
  5  9  1  0
  9 10  2  0
  9 11  1  0
 11 12  2  0
 12 13  1  0
 13 14  2  0
 14 15  1  0
 15 16  2  0
 16  3  1  0
 16 11  1  0
 14 17  1  0
 17 18  2  0
 18 19  1  0
 19 20  2  0
 20 21  1  0
 21 22  2  0
 22 17  1  0
  1 23  1  0
  1 24  1  0
  1 25  1  0
  2 26  1  0
  2 27  1  0
  4 28  1  0
  8 29  1  0
 12 30  1  0
 13 31  1  0
 15 32  1  0
 18 33  1  0
 19 34  1  0
 21 35  1  0
 22 36  1  0
M  END
> <ID>
HT1849

> <Class>
0.0

> <Clusters>
261

> <Fold>
3

$$$$