
     RDKit          3D

 20 20  0  0  0  0  0  0  0  0999 V2000
    3.5209    1.1011   -0.2673 O   0  0  0  0  0  0  0  0  0  0  0  0
    2.5059    0.4032   -0.0058 C   0  0  0  0  0  0  0  0  0  0  0  0
    1.0976    0.8871   -0.0085 C   0  0  0  0  0  0  0  0  0  0  0  0
    2.5178   -0.9938    0.3127 C   0  0  0  0  0  0  0  0  0  0  0  0
    1.2385   -1.4325    0.5725 O   0  0  0  0  0  0  0  0  0  0  0  0
    3.5366   -1.7321    0.3425 O   0  0  0  0  0  0  0  0  0  0  0  0
    0.3046   -0.3491    0.5427 C   0  0  0  0  0  0  0  0  0  0  0  0
   -0.9534   -0.7515   -0.2587 C   0  0  2  0  0  0  0  0  0  0  0  0
   -2.0670    0.3051   -0.1494 C   0  0  0  0  0  0  0  0  0  0  0  0
   -1.4283   -1.9816    0.2263 O   0  0  0  0  0  0  0  0  0  0  0  0
   -2.5174    0.4041    1.1742 O   0  0  0  0  0  0  0  0  0  0  0  0
    0.7225    1.2164   -1.3208 O   0  0  0  0  0  0  0  0  0  0  0  0
    0.9783    1.7602    0.6739 H   0  0  0  0  0  0  0  0  0  0  0  0
    0.0112   -0.1361    1.5949 H   0  0  0  0  0  0  0  0  0  0  0  0
   -0.6692   -0.8699   -1.3303 H   0  0  0  0  0  0  0  0  0  0  0  0
   -2.9133    0.0054   -0.8072 H   0  0  0  0  0  0  0  0  0  0  0  0
   -1.6997    1.2951   -0.4966 H   0  0  0  0  0  0  0  0  0  0  0  0
   -2.0374   -2.3495   -0.4664 H   0  0  0  0  0  0  0  0  0  0  0  0
   -3.2306    1.0942    1.1717 H   0  0  0  0  0  0  0  0  0  0  0  0
    1.0826    2.1241   -1.5002 H   0  0  0  0  0  0  0  0  0  0  0  0
  1  2  2  0
  2  3  1  0
  4  2  1  0
  5  4  1  0
  4  6  2  0
  7  5  1  0
  8  7  1  0
  3  7  1  0
  9  8  1  0
  8 10  1  0
 11  9  1  0
  3 12  1  0
  3 13  1  0
  7 14  1  0
  8 15  1  6
  9 16  1  0
  9 17  1  0
 10 18  1  0
 11 19  1  0
 12 20  1  0
M  END
> <ID>
HT0186

> <Class>
0.0

> <Clusters>
25

> <Fold>
3

$$$$