
     RDKit          3D

 65 67  0  0  0  0  0  0  0  0999 V2000
   -7.5177   -3.4496    0.1705 C   0  0  0  0  0  0  0  0  0  0  0  0
   -6.1386   -3.0171    0.5719 C   0  0  0  0  0  0  0  0  0  0  0  0
   -5.4983   -3.6444    1.6494 C   0  0  0  0  0  0  0  0  0  0  0  0
   -4.2132   -3.2501    2.0341 C   0  0  0  0  0  0  0  0  0  0  0  0
   -3.5463   -2.2227    1.3429 C   0  0  0  0  0  0  0  0  0  0  0  0
   -4.1926   -1.5974    0.2624 C   0  0  0  0  0  0  0  0  0  0  0  0
   -5.4778   -1.9911   -0.1196 C   0  0  0  0  0  0  0  0  0  0  0  0
   -2.1872   -1.7976    1.7425 C   0  0  0  0  0  0  0  0  0  0  0  0
   -1.6750   -2.2390    2.8080 O   0  0  0  0  0  0  0  0  0  0  0  0
   -1.5123   -0.8478    0.9664 O   0  0  0  0  0  0  0  0  0  0  0  0
   -0.1513   -0.5105    1.0440 C   0  0  0  0  0  0  0  0  0  0  0  0
    0.8191   -1.4105    1.5207 C   0  0  0  0  0  0  0  0  0  0  0  0
    2.1728   -1.0655    1.5068 C   0  0  0  0  0  0  0  0  0  0  0  0
    2.5919    0.1714    0.9918 C   0  0  0  0  0  0  0  0  0  0  0  0
    1.6208    1.0601    0.4942 C   0  0  0  0  0  0  0  0  0  0  0  0
    0.2603    0.7420    0.5491 C   0  0  0  0  0  0  0  0  0  0  0  0
   -0.6631    1.6776    0.0642 O   0  0  0  0  0  0  0  0  0  0  0  0
   -1.8428    2.0357    0.7345 C   0  0  0  0  0  0  0  0  0  0  0  0
   -2.0025    1.7251    1.9470 O   0  0  0  0  0  0  0  0  0  0  0  0
   -2.8856    2.8063    0.0234 C   0  0  0  0  0  0  0  0  0  0  0  0
   -4.1349    3.0490    0.6223 C   0  0  0  0  0  0  0  0  0  0  0  0
   -5.1173    3.7757   -0.0577 C   0  0  0  0  0  0  0  0  0  0  0  0
   -4.8750    4.2547   -1.3534 C   0  0  0  0  0  0  0  0  0  0  0  0
   -5.9126    5.0675   -2.0689 C   0  0  0  0  0  0  0  0  0  0  0  0
   -3.6266    4.0280   -1.9469 C   0  0  0  0  0  0  0  0  0  0  0  0
   -2.6414    3.3055   -1.2679 C   0  0  0  0  0  0  0  0  0  0  0  0
    4.0763    0.4885    0.9383 C   0  0  0  0  0  0  0  0  0  0  0  0
    4.3112    1.8747    0.8246 O   0  0  0  0  0  0  0  0  0  0  0  0
    4.7715   -0.3059   -0.1875 C   0  0  0  0  0  0  0  0  0  0  0  0
    6.2057    0.0338   -0.2327 N   0  0  0  0  0  0  0  0  0  0  0  0
    7.0725   -0.9525   -0.9312 C   0  0  0  0  0  0  0  0  0  0  0  0
    6.4934   -1.3679   -2.3057 C   0  0  0  0  0  0  0  0  0  0  0  0
    7.2818   -2.1999   -0.0442 C   0  0  0  0  0  0  0  0  0  0  0  0
    8.4556   -0.3039   -1.1620 C   0  0  0  0  0  0  0  0  0  0  0  0
   -8.2192   -3.3009    1.0203 H   0  0  0  0  0  0  0  0  0  0  0  0
   -7.8912   -2.8660   -0.6980 H   0  0  0  0  0  0  0  0  0  0  0  0
   -7.5062   -4.5252   -0.1073 H   0  0  0  0  0  0  0  0  0  0  0  0
   -5.9941   -4.4394    2.1927 H   0  0  0  0  0  0  0  0  0  0  0  0
   -3.7416   -3.7539    2.8678 H   0  0  0  0  0  0  0  0  0  0  0  0
   -3.7094   -0.7978   -0.2852 H   0  0  0  0  0  0  0  0  0  0  0  0
   -5.9554   -1.4947   -0.9556 H   0  0  0  0  0  0  0  0  0  0  0  0
    0.5475   -2.4015    1.8538 H   0  0  0  0  0  0  0  0  0  0  0  0
    2.9021   -1.7805    1.8683 H   0  0  0  0  0  0  0  0  0  0  0  0
    1.9045    2.0143    0.0738 H   0  0  0  0  0  0  0  0  0  0  0  0
   -4.3551    2.6773    1.6150 H   0  0  0  0  0  0  0  0  0  0  0  0
   -6.0685    3.9599    0.4256 H   0  0  0  0  0  0  0  0  0  0  0  0
   -6.9302    4.8159   -1.7037 H   0  0  0  0  0  0  0  0  0  0  0  0
   -5.8794    4.8697   -3.1622 H   0  0  0  0  0  0  0  0  0  0  0  0
   -5.7200    6.1472   -1.8953 H   0  0  0  0  0  0  0  0  0  0  0  0
   -3.4154    4.4102   -2.9379 H   0  0  0  0  0  0  0  0  0  0  0  0
   -1.6865    3.1481   -1.7528 H   0  0  0  0  0  0  0  0  0  0  0  0
    4.5259    0.1639    1.9038 H   0  0  0  0  0  0  0  0  0  0  0  0
    4.1779    2.1339   -0.1256 H   0  0  0  0  0  0  0  0  0  0  0  0
    4.2893   -0.0709   -1.1649 H   0  0  0  0  0  0  0  0  0  0  0  0
    4.6240   -1.3866    0.0138 H   0  0  0  0  0  0  0  0  0  0  0  0
    6.2868    0.9595   -0.7180 H   0  0  0  0  0  0  0  0  0  0  0  0
    5.5728   -1.9800   -2.1876 H   0  0  0  0  0  0  0  0  0  0  0  0
    6.2444   -0.4698   -2.9081 H   0  0  0  0  0  0  0  0  0  0  0  0
    7.2276   -1.9814   -2.8709 H   0  0  0  0  0  0  0  0  0  0  0  0
    6.3404   -2.7621    0.1138 H   0  0  0  0  0  0  0  0  0  0  0  0
    7.6851   -1.9023    0.9475 H   0  0  0  0  0  0  0  0  0  0  0  0
    8.0023   -2.9013   -0.5187 H   0  0  0  0  0  0  0  0  0  0  0  0
    8.3710    0.5703   -1.8450 H   0  0  0  0  0  0  0  0  0  0  0  0
    8.8808    0.0497   -0.1959 H   0  0  0  0  0  0  0  0  0  0  0  0
    9.1693   -1.0279   -1.6146 H   0  0  0  0  0  0  0  0  0  0  0  0
  1  2  1  0
  2  3  2  0
  3  4  1  0
  4  5  2  0
  5  6  1  0
  6  7  2  0
  7  2  1  0
  5  8  1  0
  8  9  2  0
  8 10  1  0
 10 11  1  0
 11 12  2  0
 12 13  1  0
 13 14  2  0
 14 15  1  0
 15 16  2  0
 16 11  1  0
 16 17  1  0
 17 18  1  0
 18 19  2  0
 18 20  1  0
 20 21  2  0
 21 22  1  0
 22 23  2  0
 23 24  1  0
 23 25  1  0
 25 26  2  0
 26 20  1  0
 14 27  1  0
 27 28  1  0
 27 29  1  0
 29 30  1  0
 30 31  1  0
 31 32  1  0
 31 33  1  0
 31 34  1  0
  1 35  1  0
  1 36  1  0
  1 37  1  0
  3 38  1  0
  4 39  1  0
  6 40  1  0
  7 41  1  0
 12 42  1  0
 13 43  1  0
 15 44  1  0
 21 45  1  0
 22 46  1  0
 24 47  1  0
 24 48  1  0
 24 49  1  0
 25 50  1  0
 26 51  1  0
 27 52  1  0
 28 53  1  0
 29 54  1  0
 29 55  1  0
 30 56  1  0
 32 57  1  0
 32 58  1  0
 32 59  1  0
 33 60  1  0
 33 61  1  0
 33 62  1  0
 34 63  1  0
 34 64  1  0
 34 65  1  0
M  END
> <ID>
HT0294

> <Class>
0.0

> <Clusters>
56

> <Fold>
3

$$$$