
     RDKit          3D

 94 97  0  0  0  0  0  0  0  0999 V2000
    5.8737   -2.7043    3.0957 C   0  0  0  0  0  0  0  0  0  0  0  0
    4.4605   -2.4640    2.5104 C   0  0  2  0  0  0  0  0  0  0  0  0
    3.4603   -3.5477    3.0063 C   0  0  0  0  0  0  0  0  0  0  0  0
    3.3871   -4.7424    2.0688 C   0  0  0  0  0  0  0  0  0  0  0  0
    2.2322   -5.2879    1.6553 C   0  0  0  0  0  0  0  0  0  0  0  0
    0.9339   -4.9249    2.2308 C   0  0  0  0  0  0  0  0  0  0  0  0
   -0.0620   -4.4144    1.5104 C   0  0  0  0  0  0  0  0  0  0  0  0
    0.0767   -4.0769    0.0859 C   0  0  0  0  0  0  0  0  0  0  0  0
    0.3487   -2.8225   -0.3146 C   0  0  0  0  0  0  0  0  0  0  0  0
    0.6534   -1.7556    0.6645 C   0  0  0  0  0  0  0  0  0  0  0  0
    0.0608   -0.5533    0.6799 C   0  0  0  0  0  0  0  0  0  0  0  0
   -1.0453   -0.1398   -0.2589 C   0  0  1  0  0  0  0  0  0  0  0  0
   -0.4603    0.1994   -1.6601 C   0  0  0  0  0  0  0  0  0  0  0  0
   -0.2705    1.7275   -1.9033 C   0  0  2  0  0  0  0  0  0  0  0  0
    0.2941    2.3248   -0.7368 O   0  0  0  0  0  0  0  0  0  0  0  0
    0.5417    3.7166   -0.8609 C   0  0  2  0  0  0  0  0  0  0  0  0
    1.4738    3.9532   -1.8859 O   0  0  0  0  0  0  0  0  0  0  0  0
    1.0908    4.2289    0.5016 C   0  0  0  0  0  0  0  0  0  0  0  0
    2.5618    3.8726    0.8146 C   0  0  1  0  0  0  0  0  0  0  0  0
    2.9124    4.5786    1.9702 O   0  0  0  0  0  0  0  0  0  0  0  0
    2.7919    2.3559    1.0551 C   0  0  0  0  0  0  0  0  0  0  0  0
    3.5326    1.7264   -0.1283 C   0  0  1  0  0  0  0  0  0  0  0  0
    4.9347    1.8200    0.0534 O   0  0  0  0  0  0  0  0  0  0  0  0
    4.3714    0.5359    0.1521 C   0  0  2  0  0  0  0  0  0  0  0  0
    4.7870   -0.2479   -1.0644 C   0  0  0  0  0  0  0  0  0  0  0  0
    5.3941   -1.4591   -1.0129 C   0  0  0  0  0  0  0  0  0  0  0  0
    5.5124   -2.3262    0.1845 C   0  0  0  0  0  0  0  0  0  0  0  0
    6.3696   -3.3061    0.1608 O   0  0  0  0  0  0  0  0  0  0  0  0
    4.4234   -2.3429    1.0688 O   0  0  0  0  0  0  0  0  0  0  0  0
   -0.7896    4.4556   -1.1523 C   0  0  0  0  0  0  0  0  0  0  0  0
   -1.4456    3.9102   -2.4292 C   0  0  2  0  0  0  0  0  0  0  0  0
   -2.6948    4.5386   -2.6368 O   0  0  0  0  0  0  0  0  0  0  0  0
   -1.6166    2.4019   -2.2949 C   0  0  1  0  0  0  0  0  0  0  0  0
   -2.1353    1.8478   -3.5996 C   0  0  0  0  0  0  0  0  0  0  0  0
   -3.2297    1.2402   -3.6205 O   0  0  0  0  0  0  0  0  0  0  0  0
   -1.3910    1.9920   -4.7675 O   0  0  0  0  0  0  0  0  0  0  0  0
   -1.9906   -1.1992   -0.3104 O   0  0  0  0  0  0  0  0  0  0  0  0
   -3.3087   -0.7464   -0.5545 C   0  0  2  0  0  0  0  0  0  0  0  0
   -3.7142    0.2155    0.4088 O   0  0  0  0  0  0  0  0  0  0  0  0
   -4.8342    0.9323   -0.0585 C   0  0  2  0  0  0  0  0  0  0  0  0
   -5.1828    1.9825    0.9993 C   0  0  0  0  0  0  0  0  0  0  0  0
   -6.0687    0.0197   -0.3898 C   0  0  1  0  0  0  0  0  0  0  0  0
   -6.7417    0.5302   -1.5104 O   0  0  0  0  0  0  0  0  0  0  0  0
   -5.7488   -1.4989   -0.6200 C   0  0  2  0  0  0  0  0  0  0  0  0
   -6.6994   -2.3252    0.1407 N   0  0  0  0  0  0  0  0  0  0  0  0
   -4.2674   -1.9277   -0.3875 C   0  0  2  0  0  0  0  0  0  0  0  0
   -4.0554   -2.5560    0.8504 O   0  0  0  0  0  0  0  0  0  0  0  0
    6.5762   -1.9345    2.7081 H   0  0  0  0  0  0  0  0  0  0  0  0
    5.8231   -2.5915    4.2057 H   0  0  0  0  0  0  0  0  0  0  0  0
    6.2394   -3.7113    2.8346 H   0  0  0  0  0  0  0  0  0  0  0  0
    4.1100   -1.4820    2.9193 H   0  0  0  0  0  0  0  0  0  0  0  0
    2.4670   -3.0738    3.1205 H   0  0  0  0  0  0  0  0  0  0  0  0
    3.7425   -3.9266    4.0191 H   0  0  0  0  0  0  0  0  0  0  0  0
    4.3162   -5.1160    1.6475 H   0  0  0  0  0  0  0  0  0  0  0  0
    2.2548   -6.0738    0.9046 H   0  0  0  0  0  0  0  0  0  0  0  0
    0.8560   -4.8976    3.3101 H   0  0  0  0  0  0  0  0  0  0  0  0
   -0.9089   -4.0212    2.0486 H   0  0  0  0  0  0  0  0  0  0  0  0
   -0.1313   -4.8379   -0.6615 H   0  0  0  0  0  0  0  0  0  0  0  0
    0.2940   -2.6039   -1.3652 H   0  0  0  0  0  0  0  0  0  0  0  0
    1.3693   -1.9724    1.4425 H   0  0  0  0  0  0  0  0  0  0  0  0
    0.3377    0.1234    1.4625 H   0  0  0  0  0  0  0  0  0  0  0  0
   -1.4737    0.7942    0.1932 H   0  0  0  0  0  0  0  0  0  0  0  0
    0.5275   -0.2852   -1.7899 H   0  0  0  0  0  0  0  0  0  0  0  0
   -1.1104   -0.2350   -2.4398 H   0  0  0  0  0  0  0  0  0  0  0  0
    0.4512    1.8389   -2.7487 H   0  0  0  0  0  0  0  0  0  0  0  0
    1.5855    4.9340   -1.9686 H   0  0  0  0  0  0  0  0  0  0  0  0
    1.0121    5.3325    0.5159 H   0  0  0  0  0  0  0  0  0  0  0  0
    0.4554    3.8531    1.3367 H   0  0  0  0  0  0  0  0  0  0  0  0
    3.2065    4.2404   -0.0243 H   0  0  0  0  0  0  0  0  0  0  0  0
    3.9094    4.5594    2.0201 H   0  0  0  0  0  0  0  0  0  0  0  0
    1.8278    1.8234    1.2051 H   0  0  0  0  0  0  0  0  0  0  0  0
    3.3727    2.2018    2.0023 H   0  0  0  0  0  0  0  0  0  0  0  0
    3.2062    1.9343   -1.1619 H   0  0  0  0  0  0  0  0  0  0  0  0
    4.5360    0.1871    1.1833 H   0  0  0  0  0  0  0  0  0  0  0  0
    4.7224    0.2437   -2.0490 H   0  0  0  0  0  0  0  0  0  0  0  0
    5.8092   -1.8278   -1.9540 H   0  0  0  0  0  0  0  0  0  0  0  0
   -0.5942    5.5422   -1.2970 H   0  0  0  0  0  0  0  0  0  0  0  0
   -1.4955    4.3225   -0.2931 H   0  0  0  0  0  0  0  0  0  0  0  0
   -0.7832    4.1401   -3.2932 H   0  0  0  0  0  0  0  0  0  0  0  0
   -3.2532    4.3538   -1.8288 H   0  0  0  0  0  0  0  0  0  0  0  0
   -2.3525    2.1959   -1.4926 H   0  0  0  0  0  0  0  0  0  0  0  0
   -1.7147    1.6250   -5.6560 H   0  0  0  0  0  0  0  0  0  0  0  0
   -3.3910   -0.3459   -1.5958 H   0  0  0  0  0  0  0  0  0  0  0  0
   -4.5436    1.5091   -0.9637 H   0  0  0  0  0  0  0  0  0  0  0  0
   -6.0099    2.6440    0.6489 H   0  0  0  0  0  0  0  0  0  0  0  0
   -4.2772    2.6102    1.2001 H   0  0  0  0  0  0  0  0  0  0  0  0
   -5.4471    1.4796    1.9515 H   0  0  0  0  0  0  0  0  0  0  0  0
   -6.7590    0.0756    0.4797 H   0  0  0  0  0  0  0  0  0  0  0  0
   -6.1109    0.4622   -2.2687 H   0  0  0  0  0  0  0  0  0  0  0  0
   -5.9514   -1.7374   -1.6939 H   0  0  0  0  0  0  0  0  0  0  0  0
   -6.5359   -3.3387   -0.0696 H   0  0  0  0  0  0  0  0  0  0  0  0
   -6.5438   -2.1569    1.1563 H   0  0  0  0  0  0  0  0  0  0  0  0
   -4.0047   -2.6652   -1.1793 H   0  0  0  0  0  0  0  0  0  0  0  0
   -4.3420   -1.9290    1.5683 H   0  0  0  0  0  0  0  0  0  0  0  0
  2  1  1  0
  2  3  1  0
  3  4  1  0
  4  5  2  3
  5  6  1  0
  6  7  2  3
  7  8  1  0
  8  9  2  3
  9 10  1  0
 10 11  2  3
 11 12  1  0
 12 13  1  0
 14 13  1  0
 14 15  1  0
 15 16  1  0
 16 17  1  6
 16 18  1  0
 18 19  1  0
 19 20  1  0
 19 21  1  0
 22 21  1  0
 22 23  1  0
 23 24  1  0
 24 22  1  0
 24 25  1  0
 25 26  2  3
 26 27  1  0
 27 28  2  0
 27 29  1  0
 29  2  1  0
 16 30  1  0
 30 31  1  0
 31 32  1  0
 31 33  1  0
 33 14  1  0
 33 34  1  0
 34 35  2  0
 34 36  1  0
 12 37  1  0
 38 37  1  0
 38 39  1  0
 39 40  1  0
 40 41  1  0
 40 42  1  0
 42 43  1  0
 42 44  1  0
 44 45  1  0
 44 46  1  0
 46 38  1  0
 46 47  1  0
  1 48  1  0
  1 49  1  0
  1 50  1  0
  2 51  1  1
  3 52  1  0
  3 53  1  0
  4 54  1  0
  5 55  1  0
  6 56  1  0
  7 57  1  0
  8 58  1  0
  9 59  1  0
 10 60  1  0
 11 61  1  0
 12 62  1  1
 13 63  1  0
 13 64  1  0
 14 65  1  6
 17 66  1  0
 18 67  1  0
 18 68  1  0
 19 69  1  6
 20 70  1  0
 21 71  1  0
 21 72  1  0
 22 73  1  6
 24 74  1  1
 25 75  1  0
 26 76  1  0
 30 77  1  0
 30 78  1  0
 31 79  1  6
 32 80  1  0
 33 81  1  1
 36 82  1  0
 38 83  1  6
 40 84  1  6
 41 85  1  0
 41 86  1  0
 41 87  1  0
 42 88  1  1
 43 89  1  0
 44 90  1  6
 45 91  1  0
 45 92  1  0
 46 93  1  6
 47 94  1  0
M  END
> <ID>
HT1466

> <Class>
0.0

> <Clusters>
95

> <Fold>
3

$$$$