
     RDKit          3D

 15 14  0  0  0  0  0  0  0  0999 V2000
    1.3084   -0.6344   -0.2252 C   0  0  0  0  0  0  0  0  0  0  0  0
   -0.0668    0.0746   -0.2686 C   0  0  0  0  0  0  0  0  0  0  0  0
    0.1327    1.5281    0.2092 C   0  0  0  0  0  0  0  0  0  0  0  0
   -0.5185    0.1381   -1.6025 O   0  0  0  0  0  0  0  0  0  0  0  0
   -1.1283   -0.6665    0.6161 C   0  0  0  0  0  0  0  0  0  0  0  0
   -0.6760   -0.6811    2.3475 Cl  0  0  0  0  0  0  0  0  0  0  0  0
   -1.3439   -2.3705    0.1144 Cl  0  0  0  0  0  0  0  0  0  0  0  0
   -2.7317    0.1133    0.4809 Cl  0  0  0  0  0  0  0  0  0  0  0  0
    1.7164   -0.6537    0.8075 H   0  0  0  0  0  0  0  0  0  0  0  0
    1.2369   -1.6786   -0.5941 H   0  0  0  0  0  0  0  0  0  0  0  0
    2.0350   -0.1011   -0.8753 H   0  0  0  0  0  0  0  0  0  0  0  0
    0.5338    1.5654    1.2439 H   0  0  0  0  0  0  0  0  0  0  0  0
   -0.8212    2.0945    0.1765 H   0  0  0  0  0  0  0  0  0  0  0  0
    0.8527    2.0535   -0.4550 H   0  0  0  0  0  0  0  0  0  0  0  0
   -0.5294   -0.7815   -1.9752 H   0  0  0  0  0  0  0  0  0  0  0  0
  1  2  1  0
  2  3  1  0
  2  4  1  0
  2  5  1  0
  5  6  1  0
  5  7  1  0
  5  8  1  0
  1  9  1  0
  1 10  1  0
  1 11  1  0
  3 12  1  0
  3 13  1  0
  3 14  1  0
  4 15  1  0
M  END
> <ID>
HT2759

> <Class>
0.0

> <Clusters>
251

> <Fold>
3

$$$$