
     RDKit          3D

 51 51  0  0  0  0  0  0  0  0999 V2000
    5.4211   -0.3862    2.3823 C   0  0  0  0  0  0  0  0  0  0  0  0
    5.1107    0.5205    1.2130 C   0  0  0  0  0  0  0  0  0  0  0  0
    6.0657    1.2857    0.6505 C   0  0  0  0  0  0  0  0  0  0  0  0
    7.5041    1.3039    1.0939 C   0  0  0  0  0  0  0  0  0  0  0  0
    8.1034    0.0533    0.8896 O   0  0  0  0  0  0  0  0  0  0  0  0
    3.7295    0.6261    0.6826 C   0  0  0  0  0  0  0  0  0  0  0  0
    2.8654   -0.3961    0.6911 C   0  0  0  0  0  0  0  0  0  0  0  0
    1.5006   -0.2338    0.1436 C   0  0  0  0  0  0  0  0  0  0  0  0
    0.6063   -1.2401    0.0451 C   0  0  0  0  0  0  0  0  0  0  0  0
    0.9672   -2.6514    0.4308 C   0  0  0  0  0  0  0  0  0  0  0  0
   -0.7494   -1.0093   -0.5136 C   0  0  0  0  0  0  0  0  0  0  0  0
   -1.4124    0.1481   -0.3919 C   0  0  0  0  0  0  0  0  0  0  0  0
   -2.7914    0.3022   -0.9170 C   0  0  0  0  0  0  0  0  0  0  0  0
   -3.0051    0.3497   -2.2619 C   0  0  0  0  0  0  0  0  0  0  0  0
   -1.8493    0.3826   -3.2339 C   0  0  0  0  0  0  0  0  0  0  0  0
   -4.3867    0.5322   -2.8505 C   0  0  0  0  0  0  0  0  0  0  0  0
   -5.5037    0.1073   -1.9048 C   0  0  0  0  0  0  0  0  0  0  0  0
   -5.2849    0.7414   -0.5367 C   0  0  0  0  0  0  0  0  0  0  0  0
   -3.9437    0.2876    0.1003 C   0  0  0  0  0  0  0  0  0  0  0  0
   -3.6368    1.2459    1.2744 C   0  0  0  0  0  0  0  0  0  0  0  0
   -4.0893   -1.1446    0.6634 C   0  0  0  0  0  0  0  0  0  0  0  0
    4.5008   -0.8078    2.8356 H   0  0  0  0  0  0  0  0  0  0  0  0
    6.0685   -1.2248    2.0514 H   0  0  0  0  0  0  0  0  0  0  0  0
    5.9341    0.1834    3.1852 H   0  0  0  0  0  0  0  0  0  0  0  0
    5.8031    1.9411   -0.1732 H   0  0  0  0  0  0  0  0  0  0  0  0
    7.5662    1.5706    2.1692 H   0  0  0  0  0  0  0  0  0  0  0  0
    8.0579    2.0871    0.5290 H   0  0  0  0  0  0  0  0  0  0  0  0
    8.2372   -0.0405   -0.0900 H   0  0  0  0  0  0  0  0  0  0  0  0
    3.4323    1.5610    0.2188 H   0  0  0  0  0  0  0  0  0  0  0  0
    3.1774   -1.3563    1.0792 H   0  0  0  0  0  0  0  0  0  0  0  0
    1.2285    0.7515   -0.2138 H   0  0  0  0  0  0  0  0  0  0  0  0
    1.8285   -3.0030   -0.1754 H   0  0  0  0  0  0  0  0  0  0  0  0
    0.1198   -3.3478    0.2577 H   0  0  0  0  0  0  0  0  0  0  0  0
    1.2252   -2.6961    1.5098 H   0  0  0  0  0  0  0  0  0  0  0  0
   -1.2512   -1.8449   -0.9884 H   0  0  0  0  0  0  0  0  0  0  0  0
   -0.9911    0.9689    0.1731 H   0  0  0  0  0  0  0  0  0  0  0  0
   -1.3232   -0.5941   -3.2332 H   0  0  0  0  0  0  0  0  0  0  0  0
   -2.1991    0.5803   -4.2692 H   0  0  0  0  0  0  0  0  0  0  0  0
   -1.1373    1.1894   -2.9582 H   0  0  0  0  0  0  0  0  0  0  0  0
   -4.4773   -0.0617   -3.7854 H   0  0  0  0  0  0  0  0  0  0  0  0
   -4.5176    1.6038   -3.1152 H   0  0  0  0  0  0  0  0  0  0  0  0
   -5.5381   -0.9997   -1.8258 H   0  0  0  0  0  0  0  0  0  0  0  0
   -6.4795    0.4454   -2.3158 H   0  0  0  0  0  0  0  0  0  0  0  0
   -5.2939    1.8481   -0.6626 H   0  0  0  0  0  0  0  0  0  0  0  0
   -6.1404    0.4856    0.1265 H   0  0  0  0  0  0  0  0  0  0  0  0
   -3.4228    2.2693    0.8962 H   0  0  0  0  0  0  0  0  0  0  0  0
   -2.7604    0.9005    1.8641 H   0  0  0  0  0  0  0  0  0  0  0  0
   -4.5030    1.3028    1.9685 H   0  0  0  0  0  0  0  0  0  0  0  0
   -4.2323   -1.8846   -0.1520 H   0  0  0  0  0  0  0  0  0  0  0  0
   -3.1789   -1.4413    1.2274 H   0  0  0  0  0  0  0  0  0  0  0  0
   -4.9549   -1.2115    1.3575 H   0  0  0  0  0  0  0  0  0  0  0  0
  1  2  1  0
  2  3  2  0
  3  4  1  0
  4  5  1  0
  2  6  1  0
  6  7  2  0
  7  8  1  0
  8  9  2  0
  9 10  1  0
  9 11  1  0
 11 12  2  0
 12 13  1  0
 13 14  2  0
 14 15  1  0
 14 16  1  0
 16 17  1  0
 17 18  1  0
 18 19  1  0
 19 13  1  0
 19 20  1  0
 19 21  1  0
  1 22  1  0
  1 23  1  0
  1 24  1  0
  3 25  1  0
  4 26  1  0
  4 27  1  0
  5 28  1  0
  6 29  1  0
  7 30  1  0
  8 31  1  0
 10 32  1  0
 10 33  1  0
 10 34  1  0
 11 35  1  0
 12 36  1  0
 15 37  1  0
 15 38  1  0
 15 39  1  0
 16 40  1  0
 16 41  1  0
 17 42  1  0
 17 43  1  0
 18 44  1  0
 18 45  1  0
 20 46  1  0
 20 47  1  0
 20 48  1  0
 21 49  1  0
 21 50  1  0
 21 51  1  0
M  END
> <ID>
HT1816

> <Class>
0.0

> <Clusters>
268

> <Fold>
3

$$$$