
     RDKit          3D

 41 42  0  0  0  0  0  0  0  0999 V2000
   -3.0193   -1.6512   -1.6050 C   0  0  0  0  0  0  0  0  0  0  0  0
   -2.4653   -1.7636   -0.1758 C   0  0  0  0  0  0  0  0  0  0  0  0
   -0.9135   -1.6894   -0.1523 C   0  0  0  0  0  0  0  0  0  0  0  0
   -0.3528   -0.3719    0.4171 C   0  0  0  0  0  0  0  0  0  0  0  0
   -1.2288    0.8183    0.0093 C   0  0  0  0  0  0  0  0  0  0  0  0
   -2.6566    0.7302    0.6273 C   0  0  0  0  0  0  0  0  0  0  0  0
   -2.6540    1.4103    2.0169 C   0  0  0  0  0  0  0  0  0  0  0  0
   -3.6491    1.5071   -0.2666 C   0  0  0  0  0  0  0  0  0  0  0  0
   -3.1256   -0.7548    0.7945 C   0  0  0  0  0  0  0  0  0  0  0  0
    0.9714   -0.1707   -0.0823 O   0  0  0  0  0  0  0  0  0  0  0  0
    2.1123   -0.0593    0.7233 C   0  0  0  0  0  0  0  0  0  0  0  0
    2.0140   -0.1006    1.9799 O   0  0  0  0  0  0  0  0  0  0  0  0
    3.4249    0.1759    0.0847 C   0  0  0  0  0  0  0  0  0  0  0  0
    3.4638    0.9404   -1.0957 C   0  0  0  0  0  0  0  0  0  0  0  0
    4.6822    1.2527   -1.7025 C   0  0  0  0  0  0  0  0  0  0  0  0
    5.8776    0.8059   -1.1410 C   0  0  0  0  0  0  0  0  0  0  0  0
    5.8568    0.0288    0.0181 C   0  0  0  0  0  0  0  0  0  0  0  0
    4.6423   -0.3110    0.6277 C   0  0  0  0  0  0  0  0  0  0  0  0
    4.6873   -1.1549    1.7396 O   0  0  0  0  0  0  0  0  0  0  0  0
   -2.7200   -2.5456   -2.1920 H   0  0  0  0  0  0  0  0  0  0  0  0
   -4.1291   -1.6068   -1.5925 H   0  0  0  0  0  0  0  0  0  0  0  0
   -2.6229   -0.7580   -2.1268 H   0  0  0  0  0  0  0  0  0  0  0  0
   -2.7545   -2.7788    0.1792 H   0  0  0  0  0  0  0  0  0  0  0  0
   -0.5068   -1.8507   -1.1757 H   0  0  0  0  0  0  0  0  0  0  0  0
   -0.5195   -2.5236    0.4690 H   0  0  0  0  0  0  0  0  0  0  0  0
   -0.3487   -0.4437    1.5269 H   0  0  0  0  0  0  0  0  0  0  0  0
   -0.7287    1.7632    0.3179 H   0  0  0  0  0  0  0  0  0  0  0  0
   -1.2783    0.8499   -1.1011 H   0  0  0  0  0  0  0  0  0  0  0  0
   -3.6589    1.3405    2.4873 H   0  0  0  0  0  0  0  0  0  0  0  0
   -1.9205    0.9268    2.6965 H   0  0  0  0  0  0  0  0  0  0  0  0
   -2.3858    2.4859    1.9324 H   0  0  0  0  0  0  0  0  0  0  0  0
   -4.6650    1.5117    0.1846 H   0  0  0  0  0  0  0  0  0  0  0  0
   -3.7273    1.0582   -1.2760 H   0  0  0  0  0  0  0  0  0  0  0  0
   -3.3198    2.5619   -0.3880 H   0  0  0  0  0  0  0  0  0  0  0  0
   -2.8779   -1.1083    1.8209 H   0  0  0  0  0  0  0  0  0  0  0  0
   -4.2332   -0.8307    0.7224 H   0  0  0  0  0  0  0  0  0  0  0  0
    2.5501    1.3208   -1.5365 H   0  0  0  0  0  0  0  0  0  0  0  0
    4.6995    1.8512   -2.6042 H   0  0  0  0  0  0  0  0  0  0  0  0
    6.8213    1.0539   -1.6095 H   0  0  0  0  0  0  0  0  0  0  0  0
    6.7892   -0.3318    0.4341 H   0  0  0  0  0  0  0  0  0  0  0  0
    3.8691   -1.5885    2.1446 H   0  0  0  0  0  0  0  0  0  0  0  0
  1  2  1  0
  2  3  1  0
  3  4  1  0
  4  5  1  0
  5  6  1  0
  6  7  1  0
  6  8  1  0
  6  9  1  0
  9  2  1  0
  4 10  1  0
 10 11  1  0
 11 12  2  0
 11 13  1  0
 13 14  2  0
 14 15  1  0
 15 16  2  0
 16 17  1  0
 17 18  2  0
 18 13  1  0
 18 19  1  0
  1 20  1  0
  1 21  1  0
  1 22  1  0
  2 23  1  0
  3 24  1  0
  3 25  1  0
  4 26  1  0
  5 27  1  0
  5 28  1  0
  7 29  1  0
  7 30  1  0
  7 31  1  0
  8 32  1  0
  8 33  1  0
  8 34  1  0
  9 35  1  0
  9 36  1  0
 14 37  1  0
 15 38  1  0
 16 39  1  0
 17 40  1  0
 19 41  1  0
M  END
> <ID>
HT3160

> <Class>
0.0

> <Clusters>
262

> <Fold>
3

$$$$