
     RDKit          3D

 54 56  0  0  0  0  0  0  0  0999 V2000
    7.5677    0.0349    1.1530 O   0  0  0  0  0  0  0  0  0  0  0  0
    6.9901    0.3333    0.0717 C   0  0  0  0  0  0  0  0  0  0  0  0
    7.7227    0.4511   -1.0701 N   0  0  0  0  0  0  0  0  0  0  0  0
    5.6027    0.5531    0.0373 C   0  0  0  0  0  0  0  0  0  0  0  0
    5.0183    0.8955   -1.1983 C   0  0  0  0  0  0  0  0  0  0  0  0
    4.7936    0.4491    1.1830 C   0  0  0  0  0  0  0  0  0  0  0  0
    3.6429    1.1295   -1.2809 C   0  0  0  0  0  0  0  0  0  0  0  0
    5.7927    0.9973   -2.3083 N   0  0  0  0  0  0  0  0  0  0  0  0
    3.4120    0.6881    1.0986 C   0  0  0  0  0  0  0  0  0  0  0  0
    2.8431    1.0232   -0.1401 C   0  0  0  0  0  0  0  0  0  0  0  0
    7.1318    0.7686   -2.2562 C   0  0  0  0  0  0  0  0  0  0  0  0
    2.5366    0.5404    2.3149 C   0  0  0  0  0  0  0  0  0  0  0  0
    7.9575    0.9247   -3.4935 C   0  0  0  0  0  0  0  0  0  0  0  0
    1.8477   -0.7584    2.2923 N   0  0  0  0  0  0  0  0  0  0  0  0
    2.6145   -1.9724    2.5927 C   0  0  0  0  0  0  0  0  0  0  0  0
    0.4423   -0.8620    1.9710 C   0  0  0  0  0  0  0  0  0  0  0  0
   -0.3067   -2.0380    1.9656 C   0  0  0  0  0  0  0  0  0  0  0  0
   -0.5712    0.4133    1.5333 S   0  0  0  0  0  0  0  0  0  0  0  0
   -1.6484   -1.8426    1.6139 C   0  0  0  0  0  0  0  0  0  0  0  0
   -1.9628   -0.5139    1.3337 C   0  0  0  0  0  0  0  0  0  0  0  0
   -3.2792    0.0268    0.9447 C   0  0  0  0  0  0  0  0  0  0  0  0
   -3.4057    1.2724    0.7967 O   0  0  0  0  0  0  0  0  0  0  0  0
   -4.4065   -0.8384    0.7279 N   0  0  0  0  0  0  0  0  0  0  0  0
   -5.7336   -0.3256    0.3758 C   0  0  1  0  0  0  0  0  0  0  0  0
   -5.8863   -0.3029   -1.1592 C   0  0  0  0  0  0  0  0  0  0  0  0
   -6.7929   -1.1834    1.0231 C   0  0  0  0  0  0  0  0  0  0  0  0
   -7.1779    0.3899   -1.6345 C   0  0  0  0  0  0  0  0  0  0  0  0
   -6.8710   -2.4100    0.7446 O   0  0  0  0  0  0  0  0  0  0  0  0
   -7.6974   -0.6342    1.9291 O   0  0  0  0  0  0  0  0  0  0  0  0
   -7.1648    1.8888   -1.4878 C   0  0  0  0  0  0  0  0  0  0  0  0
   -6.1346    2.4981   -1.0938 O   0  0  0  0  0  0  0  0  0  0  0  0
   -8.3024    2.6219   -1.8108 O   0  0  0  0  0  0  0  0  0  0  0  0
    8.7563    0.2962   -1.0331 H   0  0  0  0  0  0  0  0  0  0  0  0
    5.2320    0.1836    2.1382 H   0  0  0  0  0  0  0  0  0  0  0  0
    3.1902    1.3947   -2.2279 H   0  0  0  0  0  0  0  0  0  0  0  0
    1.7791    1.2027   -0.2227 H   0  0  0  0  0  0  0  0  0  0  0  0
    1.8157    1.3831    2.3492 H   0  0  0  0  0  0  0  0  0  0  0  0
    3.1362    0.6260    3.2481 H   0  0  0  0  0  0  0  0  0  0  0  0
    7.3149    0.8690   -4.3971 H   0  0  0  0  0  0  0  0  0  0  0  0
    8.4705    1.9093   -3.4736 H   0  0  0  0  0  0  0  0  0  0  0  0
    8.7172    0.1168   -3.5488 H   0  0  0  0  0  0  0  0  0  0  0  0
    2.1767   -2.4863    3.4744 H   0  0  0  0  0  0  0  0  0  0  0  0
    3.6737   -1.7341    2.8265 H   0  0  0  0  0  0  0  0  0  0  0  0
    2.5959   -2.6545    1.7163 H   0  0  0  0  0  0  0  0  0  0  0  0
    0.0928   -3.0128    2.2104 H   0  0  0  0  0  0  0  0  0  0  0  0
   -2.3568   -2.6576    1.5780 H   0  0  0  0  0  0  0  0  0  0  0  0
   -4.2469   -1.8673    0.6537 H   0  0  0  0  0  0  0  0  0  0  0  0
   -5.8409    0.7085    0.7670 H   0  0  0  0  0  0  0  0  0  0  0  0
   -5.0092    0.2048   -1.6155 H   0  0  0  0  0  0  0  0  0  0  0  0
   -5.8812   -1.3464   -1.5412 H   0  0  0  0  0  0  0  0  0  0  0  0
   -7.3277    0.1568   -2.7101 H   0  0  0  0  0  0  0  0  0  0  0  0
   -8.0518   -0.0198   -1.0853 H   0  0  0  0  0  0  0  0  0  0  0  0
   -7.6656    0.3456    2.1815 H   0  0  0  0  0  0  0  0  0  0  0  0
   -9.1460    2.1635   -2.1353 H   0  0  0  0  0  0  0  0  0  0  0  0
  1  2  2  0
  2  3  1  0
  2  4  1  0
  4  5  2  0
  4  6  1  0
  7  5  1  0
  5  8  1  0
  6  9  2  0
 10  7  2  0
  8 11  2  0
 12  9  1  0
  9 10  1  0
 11 13  1  0
 11  3  1  0
 14 12  1  0
 15 14  1  0
 14 16  1  0
 16 17  2  0
 18 16  1  0
 17 19  1  0
 20 18  1  0
 19 20  2  0
 20 21  1  0
 21 22  2  0
 21 23  1  0
 23 24  1  0
 24 25  1  0
 24 26  1  0
 25 27  1  0
 26 28  2  0
 26 29  1  0
 27 30  1  0
 30 31  2  0
 30 32  1  0
  3 33  1  0
  6 34  1  0
  7 35  1  0
 10 36  1  0
 12 37  1  0
 12 38  1  0
 13 39  1  0
 13 40  1  0
 13 41  1  0
 15 42  1  0
 15 43  1  0
 15 44  1  0
 17 45  1  0
 19 46  1  0
 23 47  1  0
 24 48  1  1
 25 49  1  0
 25 50  1  0
 27 51  1  0
 27 52  1  0
 29 53  1  0
 32 54  1  0
M  END
> <ID>
HT1796

> <Class>
0.0

> <Clusters>
111

> <Fold>
3

$$$$