
     RDKit          3D

 50 52  0  0  0  0  0  0  0  0999 V2000
    7.0092   -2.3641   -1.7690 O   0  0  0  0  0  0  0  0  0  0  0  0
    6.4347   -1.1133   -1.5572 C   0  0  0  0  0  0  0  0  0  0  0  0
    7.1706   -0.0895   -1.5506 O   0  0  0  0  0  0  0  0  0  0  0  0
    4.9761   -0.9894   -1.3419 C   0  0  0  0  0  0  0  0  0  0  0  0
    4.3859    0.2695   -1.1313 C   0  0  0  0  0  0  0  0  0  0  0  0
    3.0074    0.3816   -0.9270 C   0  0  0  0  0  0  0  0  0  0  0  0
    2.1959   -0.7646   -0.9180 C   0  0  0  0  0  0  0  0  0  0  0  0
    0.7748   -0.6741   -0.7297 N   0  0  0  0  0  0  0  0  0  0  0  0
    0.1470    0.2054    0.2181 C   0  0  0  0  0  0  0  0  0  0  0  0
    0.8462    0.9134    0.9936 O   0  0  0  0  0  0  0  0  0  0  0  0
   -1.3536    0.1901    0.3718 C   0  0  0  0  0  0  0  0  0  0  0  0
   -1.7736   -0.7560    1.5111 C   0  0  0  0  0  0  0  0  0  0  0  0
   -1.3774   -2.1849    1.2282 C   0  0  0  0  0  0  0  0  0  0  0  0
   -2.0477   -2.9224    0.2382 C   0  0  0  0  0  0  0  0  0  0  0  0
   -1.6548   -4.2320   -0.0530 C   0  0  0  0  0  0  0  0  0  0  0  0
   -0.5893   -4.8185    0.6430 C   0  0  0  0  0  0  0  0  0  0  0  0
   -0.1854   -6.1207    0.3578 O   0  0  0  0  0  0  0  0  0  0  0  0
    0.0767   -4.0903    1.6339 C   0  0  0  0  0  0  0  0  0  0  0  0
   -0.3155   -2.7812    1.9287 C   0  0  0  0  0  0  0  0  0  0  0  0
   -1.8395    1.5450    0.6539 N   0  0  0  0  0  0  0  0  0  0  0  0
   -2.7936    2.2249   -0.1798 C   0  0  0  0  0  0  0  0  0  0  0  0
   -3.4299    1.5801   -1.0579 O   0  0  0  0  0  0  0  0  0  0  0  0
   -3.0621    3.6728   -0.0070 C   0  0  0  0  0  0  0  0  0  0  0  0
   -4.2855    4.2195   -0.4385 C   0  0  0  0  0  0  0  0  0  0  0  0
   -4.5454    5.5848   -0.2852 C   0  0  0  0  0  0  0  0  0  0  0  0
   -3.5866    6.4201    0.2920 C   0  0  0  0  0  0  0  0  0  0  0  0
   -2.3641    5.8924    0.7127 C   0  0  0  0  0  0  0  0  0  0  0  0
   -2.0989    4.5275    0.5628 C   0  0  0  0  0  0  0  0  0  0  0  0
    2.7794   -2.0174   -1.1498 C   0  0  0  0  0  0  0  0  0  0  0  0
    4.1576   -2.1316   -1.3526 C   0  0  0  0  0  0  0  0  0  0  0  0
    8.0067   -2.4602   -1.9171 H   0  0  0  0  0  0  0  0  0  0  0  0
    4.9879    1.1697   -1.1319 H   0  0  0  0  0  0  0  0  0  0  0  0
    2.5752    1.3654   -0.8007 H   0  0  0  0  0  0  0  0  0  0  0  0
    0.1771   -1.3904   -1.2009 H   0  0  0  0  0  0  0  0  0  0  0  0
   -1.7976   -0.1784   -0.5784 H   0  0  0  0  0  0  0  0  0  0  0  0
   -1.3181   -0.4078    2.4649 H   0  0  0  0  0  0  0  0  0  0  0  0
   -2.8764   -0.7090    1.6445 H   0  0  0  0  0  0  0  0  0  0  0  0
   -2.8689   -2.4799   -0.3119 H   0  0  0  0  0  0  0  0  0  0  0  0
   -2.1763   -4.7884   -0.8213 H   0  0  0  0  0  0  0  0  0  0  0  0
   -0.6469   -6.6740   -0.3548 H   0  0  0  0  0  0  0  0  0  0  0  0
    0.9018   -4.5380    2.1731 H   0  0  0  0  0  0  0  0  0  0  0  0
    0.2201   -2.2280    2.6901 H   0  0  0  0  0  0  0  0  0  0  0  0
   -1.5133    2.0084    1.5320 H   0  0  0  0  0  0  0  0  0  0  0  0
   -5.0451    3.5896   -0.8846 H   0  0  0  0  0  0  0  0  0  0  0  0
   -5.4913    5.9953   -0.6142 H   0  0  0  0  0  0  0  0  0  0  0  0
   -3.7890    7.4769    0.4085 H   0  0  0  0  0  0  0  0  0  0  0  0
   -1.6176    6.5430    1.1499 H   0  0  0  0  0  0  0  0  0  0  0  0
   -1.1322    4.1525    0.8715 H   0  0  0  0  0  0  0  0  0  0  0  0
    2.1648   -2.9092   -1.1603 H   0  0  0  0  0  0  0  0  0  0  0  0
    4.5804   -3.1144   -1.5186 H   0  0  0  0  0  0  0  0  0  0  0  0
  1  2  1  0
  2  3  2  0
  2  4  1  0
  4  5  2  0
  5  6  1  0
  6  7  2  0
  7  8  1  0
  8  9  1  0
  9 10  2  0
  9 11  1  0
 11 12  1  0
 12 13  1  0
 13 14  2  0
 14 15  1  0
 15 16  2  0
 16 17  1  0
 16 18  1  0
 18 19  2  0
 19 13  1  0
 11 20  1  0
 20 21  1  0
 21 22  2  0
 21 23  1  0
 23 24  2  0
 24 25  1  0
 25 26  2  0
 26 27  1  0
 27 28  2  0
 28 23  1  0
  7 29  1  0
 29 30  2  0
 30  4  1  0
  1 31  1  0
  5 32  1  0
  6 33  1  0
  8 34  1  0
 11 35  1  0
 12 36  1  0
 12 37  1  0
 14 38  1  0
 15 39  1  0
 17 40  1  0
 18 41  1  0
 19 42  1  0
 20 43  1  0
 24 44  1  0
 25 45  1  0
 26 46  1  0
 27 47  1  0
 28 48  1  0
 29 49  1  0
 30 50  1  0
M  END
> <ID>
HT0241

> <Class>
0.0

> <Clusters>
197

> <Fold>
3

$$$$