
     RDKit          3D

 90 95  0  0  0  0  0  0  0  0999 V2000
    6.7310   -2.1070    1.9017 C   0  0  0  0  0  0  0  0  0  0  0  0
    6.1817   -1.0750    1.0930 O   0  0  0  0  0  0  0  0  0  0  0  0
    5.1513   -1.3007    0.1754 C   0  0  0  0  0  0  0  0  0  0  0  0
    4.6952   -2.4653   -0.0016 O   0  0  0  0  0  0  0  0  0  0  0  0
    4.6208   -0.1475   -0.6498 C   0  0  0  0  0  0  0  0  0  0  0  0
    5.7780    0.6270   -1.3093 C   0  0  0  0  0  0  0  0  0  0  0  0
    5.6736    1.9572   -1.5049 C   0  0  0  0  0  0  0  0  0  0  0  0
    4.4086    2.6688   -1.2581 C   0  0  0  0  0  0  0  0  0  0  0  0
    3.4498    2.0581   -0.5621 C   0  0  0  0  0  0  0  0  0  0  0  0
    2.0131    2.2977   -0.6276 C   0  0  0  0  0  0  0  0  0  0  0  0
    1.4326    3.4192   -1.2317 C   0  0  0  0  0  0  0  0  0  0  0  0
    0.0670    3.6561   -1.4059 C   0  0  0  0  0  0  0  0  0  0  0  0
   -0.9238    2.8620   -0.9411 N   0  0  0  0  0  0  0  0  0  0  0  0
   -2.0760    3.4651   -1.3159 C   0  0  0  0  0  0  0  0  0  0  0  0
   -3.3529    3.0328   -0.9455 C   0  0  0  0  0  0  0  0  0  0  0  0
   -3.6511    1.8239   -0.3075 C   0  0  0  0  0  0  0  0  0  0  0  0
   -2.7414    0.8708   -0.0047 N   0  0  0  0  0  0  0  0  0  0  0  0
   -3.4505   -0.1676    0.4908 C   0  0  0  0  0  0  0  0  0  0  0  0
   -2.8951   -1.3942    0.8693 C   0  0  0  0  0  0  0  0  0  0  0  0
   -1.5269   -1.6833    0.9391 C   0  0  0  0  0  0  0  0  0  0  0  0
   -0.5341   -0.7925    0.6917 N   0  0  0  0  0  0  0  0  0  0  0  0
    0.6134   -1.4417    0.9934 C   0  0  0  0  0  0  0  0  0  0  0  0
    1.8975   -0.8981    0.8913 C   0  0  0  0  0  0  0  0  0  0  0  0
    2.2407    0.3315    0.3231 C   0  0  0  0  0  0  0  0  0  0  0  0
    1.3370    1.2433   -0.1258 N   0  0  0  0  0  0  0  0  0  0  0  0
    3.6813    0.7938    0.1941 C   0  0  0  0  0  0  0  0  0  0  0  0
    4.2503    1.1512    1.5872 C   0  0  0  0  0  0  0  0  0  0  0  0
    0.3590   -2.7364    1.4247 C   0  0  0  0  0  0  0  0  0  0  0  0
    1.3806   -3.7345    1.8927 C   0  0  0  0  0  0  0  0  0  0  0  0
   -1.0106   -2.9068    1.3588 C   0  0  0  0  0  0  0  0  0  0  0  0
   -1.7825   -4.1556    1.7064 C   0  0  0  0  0  0  0  0  0  0  0  0
   -2.1673   -4.1656    3.1897 C   0  0  0  0  0  0  0  0  0  0  0  0
   -2.9466   -5.3903    3.5833 C   0  0  0  0  0  0  0  0  0  0  0  0
   -3.2392   -6.2810    2.7379 O   0  0  0  0  0  0  0  0  0  0  0  0
   -3.3457   -5.5404    4.9079 O   0  0  0  0  0  0  0  0  0  0  0  0
   -4.8121    0.1295    0.5247 C   0  0  0  0  0  0  0  0  0  0  0  0
   -4.9383    1.4092    0.0166 C   0  0  0  0  0  0  0  0  0  0  0  0
   -6.2275    2.1316   -0.2840 C   0  0  0  0  0  0  0  0  0  0  0  0
   -5.9470   -0.7909    0.9084 C   0  0  0  0  0  0  0  0  0  0  0  0
   -6.4755   -1.5372   -0.3239 C   0  0  0  0  0  0  0  0  0  0  0  0
   -7.5491   -2.5096    0.0591 C   0  0  0  0  0  0  0  0  0  0  0  0
   -7.3836   -3.7439   -0.1348 O   0  0  0  0  0  0  0  0  0  0  0  0
   -8.7503   -2.0601    0.5976 O   0  0  0  0  0  0  0  0  0  0  0  0
   -1.8173    4.6347   -2.0288 C   0  0  0  0  0  0  0  0  0  0  0  0
   -2.7775    5.5848   -2.6299 C   0  0  0  0  0  0  0  0  0  0  0  0
   -3.8124    5.1809   -3.3609 C   0  0  0  0  0  0  0  0  0  0  0  0
   -0.4466    4.7583   -2.0746 C   0  0  0  0  0  0  0  0  0  0  0  0
    0.3389    5.8582   -2.7315 C   0  0  0  0  0  0  0  0  0  0  0  0
    6.9393   -0.0978   -1.8948 C   0  0  0  0  0  0  0  0  0  0  0  0
    7.9384    0.5434   -2.3399 O   0  0  0  0  0  0  0  0  0  0  0  0
    6.9129   -1.4920   -1.9895 O   0  0  0  0  0  0  0  0  0  0  0  0
    7.9653   -2.2418   -2.5815 C   0  0  0  0  0  0  0  0  0  0  0  0
    5.9369   -2.5523    2.5442 H   0  0  0  0  0  0  0  0  0  0  0  0
    7.1785   -2.8932    1.2562 H   0  0  0  0  0  0  0  0  0  0  0  0
    7.5274   -1.6769    2.5432 H   0  0  0  0  0  0  0  0  0  0  0  0
    4.0224   -0.5710   -1.4896 H   0  0  0  0  0  0  0  0  0  0  0  0
    6.4566    2.5027   -2.0148 H   0  0  0  0  0  0  0  0  0  0  0  0
    4.2224    3.5808   -1.8021 H   0  0  0  0  0  0  0  0  0  0  0  0
    2.1082    4.1793   -1.5983 H   0  0  0  0  0  0  0  0  0  0  0  0
   -4.1780    3.6820   -1.1832 H   0  0  0  0  0  0  0  0  0  0  0  0
   -3.5802   -2.1729    1.1677 H   0  0  0  0  0  0  0  0  0  0  0  0
    2.7108   -1.5021    1.2571 H   0  0  0  0  0  0  0  0  0  0  0  0
    4.2590    0.2654    2.2570 H   0  0  0  0  0  0  0  0  0  0  0  0
    3.6321    1.9335    2.0822 H   0  0  0  0  0  0  0  0  0  0  0  0
    5.2892    1.5359    1.4929 H   0  0  0  0  0  0  0  0  0  0  0  0
    1.9147   -3.3183    2.7733 H   0  0  0  0  0  0  0  0  0  0  0  0
    2.1071   -3.9336    1.0794 H   0  0  0  0  0  0  0  0  0  0  0  0
    0.9197   -4.6944    2.1927 H   0  0  0  0  0  0  0  0  0  0  0  0
   -1.1744   -5.0507    1.4695 H   0  0  0  0  0  0  0  0  0  0  0  0
   -2.6882   -4.2287    1.0699 H   0  0  0  0  0  0  0  0  0  0  0  0
   -1.2451   -4.1180    3.8121 H   0  0  0  0  0  0  0  0  0  0  0  0
   -2.7860   -3.2698    3.4154 H   0  0  0  0  0  0  0  0  0  0  0  0
   -3.8758   -6.3515    5.2055 H   0  0  0  0  0  0  0  0  0  0  0  0
   -7.0413    1.7925    0.3879 H   0  0  0  0  0  0  0  0  0  0  0  0
   -6.1112    3.2231   -0.1299 H   0  0  0  0  0  0  0  0  0  0  0  0
   -6.5189    1.9368   -1.3381 H   0  0  0  0  0  0  0  0  0  0  0  0
   -6.7603   -0.2006    1.3788 H   0  0  0  0  0  0  0  0  0  0  0  0
   -5.6166   -1.5138    1.6826 H   0  0  0  0  0  0  0  0  0  0  0  0
   -6.8973   -0.8113   -1.0555 H   0  0  0  0  0  0  0  0  0  0  0  0
   -5.6409   -2.0837   -0.8171 H   0  0  0  0  0  0  0  0  0  0  0  0
   -8.9460   -1.0731    0.7004 H   0  0  0  0  0  0  0  0  0  0  0  0
   -2.5686    6.6464   -2.5664 H   0  0  0  0  0  0  0  0  0  0  0  0
   -4.0093    4.1284   -3.5264 H   0  0  0  0  0  0  0  0  0  0  0  0
   -4.4640    5.9103   -3.8224 H   0  0  0  0  0  0  0  0  0  0  0  0
    1.1391    5.4260   -3.3685 H   0  0  0  0  0  0  0  0  0  0  0  0
   -0.3099    6.4752   -3.3866 H   0  0  0  0  0  0  0  0  0  0  0  0
    0.7942    6.5070   -1.9533 H   0  0  0  0  0  0  0  0  0  0  0  0
    7.7515   -3.3262   -2.4552 H   0  0  0  0  0  0  0  0  0  0  0  0
    8.9317   -2.0023   -2.0843 H   0  0  0  0  0  0  0  0  0  0  0  0
    8.0338   -2.0135   -3.6688 H   0  0  0  0  0  0  0  0  0  0  0  0
  1  2  1  0
  2  3  1  0
  3  4  2  0
  3  5  1  0
  5  6  1  0
  6  7  2  0
  7  8  1  0
  8  9  2  0
  9 10  1  0
 10 11  2  0
 11 12  1  0
 12 13  2  0
 13 14  1  0
 14 15  2  0
 15 16  1  0
 16 17  2  0
 17 18  1  0
 18 19  2  0
 19 20  1  0
 20 21  2  0
 21 22  1  0
 22 23  2  0
 23 24  1  0
 24 25  2  0
 25 10  1  0
 24 26  1  0
 26  5  1  0
 26  9  1  0
 26 27  1  0
 22 28  1  0
 28 29  1  0
 28 30  2  0
 30 20  1  0
 30 31  1  0
 31 32  1  0
 32 33  1  0
 33 34  2  0
 33 35  1  0
 18 36  1  0
 36 37  2  0
 37 16  1  0
 37 38  1  0
 36 39  1  0
 39 40  1  0
 40 41  1  0
 41 42  2  0
 41 43  1  0
 14 44  1  0
 44 45  1  0
 45 46  2  3
 44 47  2  0
 47 12  1  0
 47 48  1  0
  6 49  1  0
 49 50  2  0
 49 51  1  0
 51 52  1  0
  1 53  1  0
  1 54  1  0
  1 55  1  0
  5 56  1  0
  7 57  1  0
  8 58  1  0
 11 59  1  0
 15 60  1  0
 19 61  1  0
 23 62  1  0
 27 63  1  0
 27 64  1  0
 27 65  1  0
 29 66  1  0
 29 67  1  0
 29 68  1  0
 31 69  1  0
 31 70  1  0
 32 71  1  0
 32 72  1  0
 35 73  1  0
 38 74  1  0
 38 75  1  0
 38 76  1  0
 39 77  1  0
 39 78  1  0
 40 79  1  0
 40 80  1  0
 43 81  1  0
 45 82  1  0
 46 83  1  0
 46 84  1  0
 48 85  1  0
 48 86  1  0
 48 87  1  0
 52 88  1  0
 52 89  1  0
 52 90  1  0
M  END
> <ID>
HT3991

> <Class>
0.0

> <Clusters>
280

> <Fold>
3

$$$$