
     RDKit          3D

 47 50  0  0  0  0  0  0  0  0999 V2000
    1.5749   -1.3184    1.4015 O   0  0  0  0  0  0  0  0  0  0  0  0
    1.5883   -0.4413    0.4932 C   0  0  0  0  0  0  0  0  0  0  0  0
    2.9176   -0.0534   -0.1208 C   0  0  0  0  0  0  0  0  0  0  0  0
    3.6923   -1.3054   -0.5791 C   0  0  0  0  0  0  0  0  0  0  0  0
    5.0520   -0.9203   -1.1764 C   0  0  0  0  0  0  0  0  0  0  0  0
    5.8805   -0.1041   -0.1764 C   0  0  0  0  0  0  0  0  0  0  0  0
    5.1140    1.1405    0.2885 C   0  0  0  0  0  0  0  0  0  0  0  0
    3.7536    0.7588    0.8864 C   0  0  0  0  0  0  0  0  0  0  0  0
    0.3445    0.1700    0.0812 N   0  0  0  0  0  0  0  0  0  0  0  0
   -0.9090   -0.5488    0.3777 C   0  0  0  0  0  0  0  0  0  0  0  0
   -2.0775   -0.0334   -0.4760 C   0  0  0  0  0  0  0  0  0  0  0  0
   -2.1816    1.4227   -0.3036 N   0  0  0  0  0  0  0  0  0  0  0  0
   -3.4812    2.0807   -0.1208 C   0  0  0  0  0  0  0  0  0  0  0  0
   -4.2929    1.3316    0.9289 C   0  0  0  0  0  0  0  0  0  0  0  0
   -4.4204   -0.1141    0.5452 C   0  0  0  0  0  0  0  0  0  0  0  0
   -5.5930   -0.8219    0.8547 C   0  0  0  0  0  0  0  0  0  0  0  0
   -5.7179   -2.1672    0.5018 C   0  0  0  0  0  0  0  0  0  0  0  0
   -4.6765   -2.8152   -0.1638 C   0  0  0  0  0  0  0  0  0  0  0  0
   -3.5051   -2.1210   -0.4757 C   0  0  0  0  0  0  0  0  0  0  0  0
   -3.3603   -0.7682   -0.1195 C   0  0  0  0  0  0  0  0  0  0  0  0
   -0.9775    2.1897   -0.4602 C   0  0  0  0  0  0  0  0  0  0  0  0
   -1.0221    3.4471   -0.5442 O   0  0  0  0  0  0  0  0  0  0  0  0
    0.3478    1.4928   -0.5744 C   0  0  0  0  0  0  0  0  0  0  0  0
    2.7473    0.5719   -1.0228 H   0  0  0  0  0  0  0  0  0  0  0  0
    3.1006   -1.8480   -1.3488 H   0  0  0  0  0  0  0  0  0  0  0  0
    3.8562   -1.9957    0.2785 H   0  0  0  0  0  0  0  0  0  0  0  0
    5.6087   -1.8433   -1.4466 H   0  0  0  0  0  0  0  0  0  0  0  0
    4.8988   -0.3285   -2.1059 H   0  0  0  0  0  0  0  0  0  0  0  0
    6.8315    0.2095   -0.6582 H   0  0  0  0  0  0  0  0  0  0  0  0
    6.1341   -0.7366    0.7028 H   0  0  0  0  0  0  0  0  0  0  0  0
    5.7147    1.6758    1.0548 H   0  0  0  0  0  0  0  0  0  0  0  0
    4.9641    1.8298   -0.5717 H   0  0  0  0  0  0  0  0  0  0  0  0
    3.2101    1.6878    1.1636 H   0  0  0  0  0  0  0  0  0  0  0  0
    3.9150    0.1673    1.8153 H   0  0  0  0  0  0  0  0  0  0  0  0
   -1.1483   -0.4289    1.4573 H   0  0  0  0  0  0  0  0  0  0  0  0
   -0.7675   -1.6325    0.1698 H   0  0  0  0  0  0  0  0  0  0  0  0
   -1.8495   -0.2360   -1.5466 H   0  0  0  0  0  0  0  0  0  0  0  0
   -4.0279    2.0914   -1.0887 H   0  0  0  0  0  0  0  0  0  0  0  0
   -3.3555    3.1307    0.2203 H   0  0  0  0  0  0  0  0  0  0  0  0
   -3.7783    1.3994    1.9119 H   0  0  0  0  0  0  0  0  0  0  0  0
   -5.2938    1.8072    1.0223 H   0  0  0  0  0  0  0  0  0  0  0  0
   -6.4097   -0.3325    1.3711 H   0  0  0  0  0  0  0  0  0  0  0  0
   -6.6241   -2.7076    0.7429 H   0  0  0  0  0  0  0  0  0  0  0  0
   -4.7773   -3.8570   -0.4401 H   0  0  0  0  0  0  0  0  0  0  0  0
   -2.7103   -2.6376   -0.9993 H   0  0  0  0  0  0  0  0  0  0  0  0
    0.5957    1.3705   -1.6498 H   0  0  0  0  0  0  0  0  0  0  0  0
    1.1151    2.1421   -0.1004 H   0  0  0  0  0  0  0  0  0  0  0  0
  1  2  2  0
  2  3  1  0
  3  4  1  0
  4  5  1  0
  5  6  1  0
  6  7  1  0
  7  8  1  0
  8  3  1  0
  2  9  1  0
  9 10  1  0
 10 11  1  0
 11 12  1  0
 12 13  1  0
 13 14  1  0
 14 15  1  0
 15 16  2  0
 16 17  1  0
 17 18  2  0
 18 19  1  0
 19 20  2  0
 20 11  1  0
 20 15  1  0
 12 21  1  0
 21 22  2  0
 21 23  1  0
 23  9  1  0
  3 24  1  0
  4 25  1  0
  4 26  1  0
  5 27  1  0
  5 28  1  0
  6 29  1  0
  6 30  1  0
  7 31  1  0
  7 32  1  0
  8 33  1  0
  8 34  1  0
 10 35  1  0
 10 36  1  0
 11 37  1  0
 13 38  1  0
 13 39  1  0
 14 40  1  0
 14 41  1  0
 16 42  1  0
 17 43  1  0
 18 44  1  0
 19 45  1  0
 23 46  1  0
 23 47  1  0
M  END
> <ID>
HT1727

> <Class>
0.0

> <Clusters>
67

> <Fold>
3

$$$$