
     RDKit          3D

 42 43  0  0  0  0  0  0  0  0999 V2000
    4.2527   -1.9033    0.6913 C   0  0  0  0  0  0  0  0  0  0  0  0
    3.3175   -0.7063    0.8601 C   0  0  0  0  0  0  0  0  0  0  0  0
    2.1314   -0.7444   -0.0610 C   0  0  0  0  0  0  0  0  0  0  0  0
    2.0158   -1.6672   -0.9106 O   0  0  0  0  0  0  0  0  0  0  0  0
    1.2112    0.3155    0.0139 O   0  0  0  0  0  0  0  0  0  0  0  0
   -0.1784    0.3925   -0.3822 C   0  0  0  0  0  0  0  0  0  0  0  0
   -0.5413   -0.6035   -1.5375 C   0  0  0  0  0  0  0  0  0  0  0  0
   -0.9792   -1.9771   -1.0096 C   0  0  0  0  0  0  0  0  0  0  0  0
   -2.2545   -1.8781   -0.2711 N   0  0  0  0  0  0  0  0  0  0  0  0
   -2.4807   -3.0666    0.5656 C   0  0  0  0  0  0  0  0  0  0  0  0
   -2.4342   -0.6136    0.4853 C   0  0  0  0  0  0  0  0  0  0  0  0
   -1.1123    0.1011    0.8700 C   0  0  0  0  0  0  0  0  0  0  0  0
   -0.4010   -0.6307    2.0247 C   0  0  0  0  0  0  0  0  0  0  0  0
   -0.3509    1.8656   -0.8218 C   0  0  0  0  0  0  0  0  0  0  0  0
   -0.0996    2.8864    0.1259 C   0  0  0  0  0  0  0  0  0  0  0  0
   -0.2024    4.2366   -0.2172 C   0  0  0  0  0  0  0  0  0  0  0  0
   -0.5207    4.6042   -1.5224 C   0  0  0  0  0  0  0  0  0  0  0  0
   -0.7117    3.6223   -2.4924 C   0  0  0  0  0  0  0  0  0  0  0  0
   -0.6098    2.2684   -2.1575 C   0  0  0  0  0  0  0  0  0  0  0  0
    3.7092   -2.8496    0.8997 H   0  0  0  0  0  0  0  0  0  0  0  0
    5.0986   -1.8164    1.4054 H   0  0  0  0  0  0  0  0  0  0  0  0
    4.6627   -1.9307   -0.3409 H   0  0  0  0  0  0  0  0  0  0  0  0
    3.8872    0.2282    0.6706 H   0  0  0  0  0  0  0  0  0  0  0  0
    2.9516   -0.6827    1.9086 H   0  0  0  0  0  0  0  0  0  0  0  0
   -1.4280   -0.2397   -2.0979 H   0  0  0  0  0  0  0  0  0  0  0  0
    0.2827   -0.6914   -2.2755 H   0  0  0  0  0  0  0  0  0  0  0  0
   -1.1268   -2.6529   -1.8797 H   0  0  0  0  0  0  0  0  0  0  0  0
   -0.1916   -2.4332   -0.3789 H   0  0  0  0  0  0  0  0  0  0  0  0
   -3.5177   -3.0582    0.9641 H   0  0  0  0  0  0  0  0  0  0  0  0
   -1.7663   -3.1042    1.4149 H   0  0  0  0  0  0  0  0  0  0  0  0
   -2.3690   -3.9908   -0.0418 H   0  0  0  0  0  0  0  0  0  0  0  0
   -3.0606   -0.7643    1.3941 H   0  0  0  0  0  0  0  0  0  0  0  0
   -3.0201    0.0803   -0.1557 H   0  0  0  0  0  0  0  0  0  0  0  0
   -1.4480    1.0567    1.3256 H   0  0  0  0  0  0  0  0  0  0  0  0
    0.4002    0.0140    2.4443 H   0  0  0  0  0  0  0  0  0  0  0  0
    0.0538   -1.5843    1.6961 H   0  0  0  0  0  0  0  0  0  0  0  0
   -1.1164   -0.8457    2.8468 H   0  0  0  0  0  0  0  0  0  0  0  0
    0.1899    2.6377    1.1394 H   0  0  0  0  0  0  0  0  0  0  0  0
   -0.0222    4.9992    0.5295 H   0  0  0  0  0  0  0  0  0  0  0  0
   -0.5952    5.6508   -1.7881 H   0  0  0  0  0  0  0  0  0  0  0  0
   -0.9222    3.9110   -3.5143 H   0  0  0  0  0  0  0  0  0  0  0  0
   -0.7035    1.5645   -2.9691 H   0  0  0  0  0  0  0  0  0  0  0  0
  1  2  1  0
  2  3  1  0
  3  4  2  0
  3  5  1  0
  5  6  1  0
  6  7  1  0
  7  8  1  0
  8  9  1  0
  9 10  1  0
  9 11  1  0
 11 12  1  0
 12  6  1  0
 12 13  1  0
  6 14  1  0
 14 15  2  0
 15 16  1  0
 16 17  2  0
 17 18  1  0
 18 19  2  0
 19 14  1  0
  1 20  1  0
  1 21  1  0
  1 22  1  0
  2 23  1  0
  2 24  1  0
  7 25  1  0
  7 26  1  0
  8 27  1  0
  8 28  1  0
 10 29  1  0
 10 30  1  0
 10 31  1  0
 11 32  1  0
 11 33  1  0
 12 34  1  0
 13 35  1  0
 13 36  1  0
 13 37  1  0
 15 38  1  0
 16 39  1  0
 17 40  1  0
 18 41  1  0
 19 42  1  0
M  END
> <ID>
HT3153

> <Class>
0.0

> <Clusters>
156

> <Fold>
3

$$$$