
     RDKit          3D

 34 35  0  0  0  0  0  0  0  0999 V2000
    5.4432    0.0216    0.3494 N   0  0  0  0  0  0  0  0  0  0  0  0
    4.0971    0.4770    0.5139 C   0  0  0  0  0  0  0  0  0  0  0  0
    3.8699    1.6334    1.1896 N   0  0  0  0  0  0  0  0  0  0  0  0
    2.6139    2.1125    1.3625 C   0  0  0  0  0  0  0  0  0  0  0  0
    1.5517    1.4224    0.8799 N   0  0  0  0  0  0  0  0  0  0  0  0
    1.7087    0.2549    0.1986 C   0  0  0  0  0  0  0  0  0  0  0  0
    0.5434   -0.4851   -0.2082 N   0  0  0  0  0  0  0  0  0  0  0  0
   -0.8018    0.0914   -0.1648 C   0  0  0  0  0  0  0  0  0  0  0  0
   -1.6724   -0.6936   -0.9523 O   0  0  0  0  0  0  0  0  0  0  0  0
   -2.9183   -0.7366   -0.2954 C   0  0  0  0  0  0  0  0  0  0  0  0
   -3.8542    0.3374   -0.8856 C   0  0  0  0  0  0  0  0  0  0  0  0
   -3.9708    0.1738   -2.2732 O   0  0  0  0  0  0  0  0  0  0  0  0
   -2.6618   -0.5922    1.2075 C   0  0  0  0  0  0  0  0  0  0  0  0
   -3.6831    0.1006    1.8811 O   0  0  0  0  0  0  0  0  0  0  0  0
   -1.3305    0.1324    1.2781 C   0  0  0  0  0  0  0  0  0  0  0  0
   -1.4481    1.4531    1.7552 O   0  0  0  0  0  0  0  0  0  0  0  0
    3.0151   -0.2356   -0.0346 C   0  0  0  0  0  0  0  0  0  0  0  0
    3.2672   -1.4253   -0.7991 N   0  0  0  0  0  0  0  0  0  0  0  0
    2.7747   -1.6387   -1.9790 C   0  0  0  0  0  0  0  0  0  0  0  0
    6.2329    0.5722    0.7537 H   0  0  0  0  0  0  0  0  0  0  0  0
    5.6682   -0.8583   -0.1655 H   0  0  0  0  0  0  0  0  0  0  0  0
    2.4576    3.0370    1.9009 H   0  0  0  0  0  0  0  0  0  0  0  0
    0.6348   -1.4822   -0.5037 H   0  0  0  0  0  0  0  0  0  0  0  0
   -0.7687    1.1112   -0.6101 H   0  0  0  0  0  0  0  0  0  0  0  0
   -3.3802   -1.7312   -0.4811 H   0  0  0  0  0  0  0  0  0  0  0  0
   -3.4456    1.3497   -0.6872 H   0  0  0  0  0  0  0  0  0  0  0  0
   -4.8612    0.2775   -0.4137 H   0  0  0  0  0  0  0  0  0  0  0  0
   -4.5614   -0.6110   -2.4184 H   0  0  0  0  0  0  0  0  0  0  0  0
   -2.5357   -1.6077    1.6539 H   0  0  0  0  0  0  0  0  0  0  0  0
   -4.4429   -0.5326    1.9665 H   0  0  0  0  0  0  0  0  0  0  0  0
   -0.6524   -0.4222    1.9650 H   0  0  0  0  0  0  0  0  0  0  0  0
   -2.0443    1.9542    1.1401 H   0  0  0  0  0  0  0  0  0  0  0  0
    2.1511   -0.9002   -2.4685 H   0  0  0  0  0  0  0  0  0  0  0  0
    3.0039   -2.5602   -2.4959 H   0  0  0  0  0  0  0  0  0  0  0  0
  1  2  1  0
  2  3  2  0
  3  4  1  0
  4  5  2  0
  5  6  1  0
  6  7  1  0
  7  8  1  0
  8  9  1  0
  9 10  1  0
 10 11  1  0
 11 12  1  0
 10 13  1  0
 13 14  1  0
 13 15  1  0
 15  8  1  0
 15 16  1  0
  6 17  2  0
 17  2  1  0
 17 18  1  0
 18 19  2  3
  1 20  1  0
  1 21  1  0
  4 22  1  0
  7 23  1  0
  8 24  1  0
 10 25  1  0
 11 26  1  0
 11 27  1  0
 12 28  1  0
 13 29  1  0
 14 30  1  0
 15 31  1  0
 16 32  1  0
 19 33  1  0
 19 34  1  0
M  END
> <ID>
HT3186

> <Class>
0.0

> <Clusters>
25

> <Fold>
3

$$$$