
     RDKit          3D

103105  0  0  0  0  0  0  0  0999 V2000
  -11.6366    2.1535   -0.0949 C   0  0  0  0  0  0  0  0  0  0  0  0
  -10.6902    1.3054   -0.9603 C   0  0  0  0  0  0  0  0  0  0  0  0
   -9.3412    2.0127   -1.1553 C   0  0  0  0  0  0  0  0  0  0  0  0
  -10.5479   -0.1461   -0.4310 C   0  0  0  0  0  0  0  0  0  0  0  0
   -9.7690   -0.3043    0.8959 C   0  0  0  0  0  0  0  0  0  0  0  0
   -8.2997   -0.7023    0.6677 C   0  0  0  0  0  0  0  0  0  0  0  0
   -7.5553   -1.0054    1.9964 C   0  0  1  0  0  0  0  0  0  0  0  0
   -7.7579   -2.4647    2.4388 C   0  0  0  0  0  0  0  0  0  0  0  0
   -6.0528   -0.6421    1.9186 C   0  0  0  0  0  0  0  0  0  0  0  0
   -5.2700   -1.4153    0.8326 C   0  0  0  0  0  0  0  0  0  0  0  0
   -3.9116   -0.7594    0.5180 C   0  0  0  0  0  0  0  0  0  0  0  0
   -2.8064   -1.0469    1.5666 C   0  0  1  0  0  0  0  0  0  0  0  0
   -2.2854   -2.4932    1.4780 C   0  0  0  0  0  0  0  0  0  0  0  0
   -1.6517   -0.0030    1.5273 C   0  0  0  0  0  0  0  0  0  0  0  0
   -1.1497    0.4472    0.1389 C   0  0  0  0  0  0  0  0  0  0  0  0
   -0.4721   -0.6705   -0.6730 C   0  0  0  0  0  0  0  0  0  0  0  0
    0.3705   -0.1446   -1.8674 C   0  0  2  0  0  0  0  0  0  0  0  0
   -0.5139    0.6636   -2.8351 C   0  0  0  0  0  0  0  0  0  0  0  0
    0.9934   -1.3260   -2.6554 C   0  0  0  0  0  0  0  0  0  0  0  0
    2.1650   -1.9691   -1.9107 C   0  0  0  0  0  0  0  0  0  0  0  0
    3.1813   -0.9349   -1.4759 C   0  0  0  0  0  0  0  0  0  0  0  0
    4.5407   -1.2746   -1.2885 C   0  0  0  0  0  0  0  0  0  0  0  0
    5.0226   -2.6916   -1.5042 C   0  0  0  0  0  0  0  0  0  0  0  0
    5.4663   -0.2715   -0.9313 C   0  0  0  0  0  0  0  0  0  0  0  0
    6.8276   -0.5974   -0.8477 O   0  0  0  0  0  0  0  0  0  0  0  0
    7.5163   -0.6826    0.3677 C   0  0  0  0  0  0  0  0  0  0  0  0
    6.8803   -0.6600    1.4616 O   0  0  0  0  0  0  0  0  0  0  0  0
    9.0149   -0.8872    0.3692 C   0  0  0  0  0  0  0  0  0  0  0  0
    9.3029   -2.3890    0.4940 C   0  0  0  0  0  0  0  0  0  0  0  0
    9.6332   -0.3669   -0.9400 C   0  0  0  0  0  0  0  0  0  0  0  0
    9.6116   -0.2337    1.5021 O   0  0  0  0  0  0  0  0  0  0  0  0
    9.4374    1.1216    1.8215 C   0  0  0  0  0  0  0  0  0  0  0  0
    8.6450    1.4656    2.9234 C   0  0  0  0  0  0  0  0  0  0  0  0
    8.4668    2.8069    3.2765 C   0  0  0  0  0  0  0  0  0  0  0  0
    9.0923    3.8148    2.5350 C   0  0  0  0  0  0  0  0  0  0  0  0
    8.8832    5.4994    2.9858 Cl  0  0  0  0  0  0  0  0  0  0  0  0
    9.9033    3.4774    1.4460 C   0  0  0  0  0  0  0  0  0  0  0  0
   10.0817    2.1332    1.0919 C   0  0  0  0  0  0  0  0  0  0  0  0
    5.0352    1.0511   -0.6873 C   0  0  0  0  0  0  0  0  0  0  0  0
    6.0486    2.1160   -0.3218 C   0  0  0  0  0  0  0  0  0  0  0  0
    3.6522    1.3544   -0.7543 C   0  0  0  0  0  0  0  0  0  0  0  0
    3.1390    2.7366   -0.4140 C   0  0  0  0  0  0  0  0  0  0  0  0
    2.7441    0.3763   -1.2047 C   0  0  0  0  0  0  0  0  0  0  0  0
    1.3945    0.7259   -1.3732 O   0  0  0  0  0  0  0  0  0  0  0  0
  -11.2101    2.3319    0.9148 H   0  0  0  0  0  0  0  0  0  0  0  0
  -12.6209    1.6457    0.0149 H   0  0  0  0  0  0  0  0  0  0  0  0
  -11.8163    3.1374   -0.5862 H   0  0  0  0  0  0  0  0  0  0  0  0
  -11.1595    1.2267   -1.9673 H   0  0  0  0  0  0  0  0  0  0  0  0
   -9.4982    2.9751   -1.6900 H   0  0  0  0  0  0  0  0  0  0  0  0
   -8.6668    1.3859   -1.7803 H   0  0  0  0  0  0  0  0  0  0  0  0
   -8.8550    2.2283   -0.1791 H   0  0  0  0  0  0  0  0  0  0  0  0
  -10.0814   -0.7713   -1.2257 H   0  0  0  0  0  0  0  0  0  0  0  0
  -11.5713   -0.5598   -0.2888 H   0  0  0  0  0  0  0  0  0  0  0  0
   -9.8067    0.6257    1.4932 H   0  0  0  0  0  0  0  0  0  0  0  0
  -10.2653   -1.0924    1.4953 H   0  0  0  0  0  0  0  0  0  0  0  0
   -7.7920    0.1288    0.1358 H   0  0  0  0  0  0  0  0  0  0  0  0
   -8.2504   -1.5916    0.0011 H   0  0  0  0  0  0  0  0  0  0  0  0
   -7.9838   -0.3555    2.7942 H   0  0  0  0  0  0  0  0  0  0  0  0
   -8.8340   -2.6676    2.6155 H   0  0  0  0  0  0  0  0  0  0  0  0
   -7.2133   -2.6595    3.3893 H   0  0  0  0  0  0  0  0  0  0  0  0
   -7.3941   -3.1702    1.6629 H   0  0  0  0  0  0  0  0  0  0  0  0
   -5.5859   -0.8343    2.9103 H   0  0  0  0  0  0  0  0  0  0  0  0
   -5.9769    0.4544    1.7285 H   0  0  0  0  0  0  0  0  0  0  0  0
   -5.1310   -2.4755    1.1390 H   0  0  0  0  0  0  0  0  0  0  0  0
   -5.8511   -1.4212   -0.1129 H   0  0  0  0  0  0  0  0  0  0  0  0
   -3.5754   -1.1173   -0.4793 H   0  0  0  0  0  0  0  0  0  0  0  0
   -4.0623    0.3375    0.4247 H   0  0  0  0  0  0  0  0  0  0  0  0
   -3.2595   -0.9486    2.5762 H   0  0  0  0  0  0  0  0  0  0  0  0
   -1.3704   -2.6227    2.0932 H   0  0  0  0  0  0  0  0  0  0  0  0
   -3.0470   -3.1966    1.8691 H   0  0  0  0  0  0  0  0  0  0  0  0
   -2.0541   -2.7905    0.4390 H   0  0  0  0  0  0  0  0  0  0  0  0
   -0.7879   -0.3598    2.1307 H   0  0  0  0  0  0  0  0  0  0  0  0
   -2.0177    0.9120    2.0439 H   0  0  0  0  0  0  0  0  0  0  0  0
   -1.9835    0.8889   -0.4409 H   0  0  0  0  0  0  0  0  0  0  0  0
   -0.4166    1.2625    0.3111 H   0  0  0  0  0  0  0  0  0  0  0  0
   -1.2508   -1.3518   -1.0681 H   0  0  0  0  0  0  0  0  0  0  0  0
    0.1820   -1.2512    0.0099 H   0  0  0  0  0  0  0  0  0  0  0  0
   -0.8631    1.6011   -2.3580 H   0  0  0  0  0  0  0  0  0  0  0  0
   -1.3985    0.0723   -3.1532 H   0  0  0  0  0  0  0  0  0  0  0  0
    0.0606    0.9636   -3.7371 H   0  0  0  0  0  0  0  0  0  0  0  0
    1.3876   -0.9560   -3.6354 H   0  0  0  0  0  0  0  0  0  0  0  0
    0.2206   -2.0995   -2.8757 H   0  0  0  0  0  0  0  0  0  0  0  0
    1.8075   -2.5242   -1.0204 H   0  0  0  0  0  0  0  0  0  0  0  0
    2.6262   -2.7040   -2.6082 H   0  0  0  0  0  0  0  0  0  0  0  0
    5.0828   -2.9032   -2.5930 H   0  0  0  0  0  0  0  0  0  0  0  0
    6.0179   -2.8706   -1.0546 H   0  0  0  0  0  0  0  0  0  0  0  0
    4.3294   -3.4055   -1.0186 H   0  0  0  0  0  0  0  0  0  0  0  0
    8.8922   -2.7806    1.4480 H   0  0  0  0  0  0  0  0  0  0  0  0
    8.8449   -2.9543   -0.3507 H   0  0  0  0  0  0  0  0  0  0  0  0
   10.3986   -2.5752    0.4994 H   0  0  0  0  0  0  0  0  0  0  0  0
    9.3342   -0.9964   -1.8047 H   0  0  0  0  0  0  0  0  0  0  0  0
   10.7406   -0.3787   -0.8690 H   0  0  0  0  0  0  0  0  0  0  0  0
    9.2982    0.6693   -1.1525 H   0  0  0  0  0  0  0  0  0  0  0  0
    8.1696    0.6890    3.5108 H   0  0  0  0  0  0  0  0  0  0  0  0
    7.8387    3.0594    4.1237 H   0  0  0  0  0  0  0  0  0  0  0  0
   10.4060    4.2521    0.8838 H   0  0  0  0  0  0  0  0  0  0  0  0
   10.7334    1.8895    0.2665 H   0  0  0  0  0  0  0  0  0  0  0  0
    7.0585    1.8727   -0.7038 H   0  0  0  0  0  0  0  0  0  0  0  0
    5.7806    3.0942   -0.7746 H   0  0  0  0  0  0  0  0  0  0  0  0
    6.0971    2.2155    0.7854 H   0  0  0  0  0  0  0  0  0  0  0  0
    3.2523    3.4077   -1.2894 H   0  0  0  0  0  0  0  0  0  0  0  0
    3.6829    3.1633    0.4532 H   0  0  0  0  0  0  0  0  0  0  0  0
    2.0696    2.7159   -0.1186 H   0  0  0  0  0  0  0  0  0  0  0  0
  1  2  1  0
  2  3  1  0
  2  4  1  0
  4  5  1  0
  5  6  1  0
  6  7  1  0
  7  8  1  0
  7  9  1  0
  9 10  1  0
 10 11  1  0
 11 12  1  0
 12 13  1  0
 12 14  1  0
 14 15  1  0
 15 16  1  0
 17 16  1  1
 17 18  1  0
 17 19  1  0
 19 20  1  0
 20 21  1  0
 21 22  2  0
 22 23  1  0
 22 24  1  0
 24 25  1  0
 25 26  1  0
 26 27  2  0
 26 28  1  0
 28 29  1  0
 28 30  1  0
 28 31  1  0
 31 32  1  0
 32 33  2  0
 33 34  1  0
 34 35  2  0
 35 36  1  0
 35 37  1  0
 37 38  2  0
 38 32  1  0
 24 39  2  0
 39 40  1  0
 39 41  1  0
 41 42  1  0
 41 43  2  0
 43 21  1  0
 43 44  1  0
 44 17  1  0
  1 45  1  0
  1 46  1  0
  1 47  1  0
  2 48  1  0
  3 49  1  0
  3 50  1  0
  3 51  1  0
  4 52  1  0
  4 53  1  0
  5 54  1  0
  5 55  1  0
  6 56  1  0
  6 57  1  0
  7 58  1  1
  8 59  1  0
  8 60  1  0
  8 61  1  0
  9 62  1  0
  9 63  1  0
 10 64  1  0
 10 65  1  0
 11 66  1  0
 11 67  1  0
 12 68  1  1
 13 69  1  0
 13 70  1  0
 13 71  1  0
 14 72  1  0
 14 73  1  0
 15 74  1  0
 15 75  1  0
 16 76  1  0
 16 77  1  0
 18 78  1  0
 18 79  1  0
 18 80  1  0
 19 81  1  0
 19 82  1  0
 20 83  1  0
 20 84  1  0
 23 85  1  0
 23 86  1  0
 23 87  1  0
 29 88  1  0
 29 89  1  0
 29 90  1  0
 30 91  1  0
 30 92  1  0
 30 93  1  0
 33 94  1  0
 34 95  1  0
 37 96  1  0
 38 97  1  0
 40 98  1  0
 40 99  1  0
 40100  1  0
 42101  1  0
 42102  1  0
 42103  1  0
M  END
> <ID>
HT2075

> <Class>
0.0

> <Clusters>
229

> <Fold>
3

$$$$