
     RDKit          3D

 27 27  0  0  0  0  0  0  0  0999 V2000
    3.9969    0.9640   -0.4481 C   0  0  0  0  0  0  0  0  0  0  0  0
    3.2358    0.9058    0.8745 C   0  0  0  0  0  0  0  0  0  0  0  0
    2.3957   -0.3655    0.9906 C   0  0  0  0  0  0  0  0  0  0  0  0
    1.3785   -0.3708   -0.0063 O   0  0  0  0  0  0  0  0  0  0  0  0
    0.4467   -1.4048   -0.1281 C   0  0  0  0  0  0  0  0  0  0  0  0
    0.4648   -2.3857    0.6646 O   0  0  0  0  0  0  0  0  0  0  0  0
   -0.6169   -1.3151   -1.1757 C   0  0  0  0  0  0  0  0  0  0  0  0
   -1.7763   -0.5800   -0.6555 N   0  0  0  0  0  0  0  0  0  0  0  0
   -2.9065   -1.2562   -0.2866 C   0  0  0  0  0  0  0  0  0  0  0  0
   -4.0140   -0.5696    0.2192 C   0  0  0  0  0  0  0  0  0  0  0  0
   -5.7413   -1.6550    0.7798 I   0  0  0  0  0  0  0  0  0  0  0  0
   -3.9571    0.8222    0.3476 C   0  0  0  0  0  0  0  0  0  0  0  0
   -4.9454    1.4576    0.8025 O   0  0  0  0  0  0  0  0  0  0  0  0
   -2.7961    1.5041   -0.0310 C   0  0  0  0  0  0  0  0  0  0  0  0
   -1.7112    0.7807   -0.5331 C   0  0  0  0  0  0  0  0  0  0  0  0
   -2.6487    3.6071    0.1446 I   0  0  0  0  0  0  0  0  0  0  0  0
    3.2889    0.9795   -1.3038 H   0  0  0  0  0  0  0  0  0  0  0  0
    4.6709    0.0862   -0.5448 H   0  0  0  0  0  0  0  0  0  0  0  0
    4.6113    1.8882   -0.4818 H   0  0  0  0  0  0  0  0  0  0  0  0
    2.5750    1.7956    0.9594 H   0  0  0  0  0  0  0  0  0  0  0  0
    3.9659    0.9351    1.7120 H   0  0  0  0  0  0  0  0  0  0  0  0
    3.0446   -1.2614    0.8748 H   0  0  0  0  0  0  0  0  0  0  0  0
    1.9252   -0.3948    1.9974 H   0  0  0  0  0  0  0  0  0  0  0  0
   -0.2151   -0.8027   -2.0771 H   0  0  0  0  0  0  0  0  0  0  0  0
   -0.9036   -2.3423   -1.4938 H   0  0  0  0  0  0  0  0  0  0  0  0
   -2.9549   -2.3348   -0.3769 H   0  0  0  0  0  0  0  0  0  0  0  0
   -0.8130    1.3126   -0.8244 H   0  0  0  0  0  0  0  0  0  0  0  0
  1  2  1  0
  2  3  1  0
  3  4  1  0
  4  5  1  0
  5  6  2  0
  5  7  1  0
  7  8  1  0
  8  9  1  0
  9 10  2  0
 10 11  1  0
 10 12  1  0
 12 13  2  0
 12 14  1  0
 14 15  2  0
 15  8  1  0
 14 16  1  0
  1 17  1  0
  1 18  1  0
  1 19  1  0
  2 20  1  0
  2 21  1  0
  3 22  1  0
  3 23  1  0
  7 24  1  0
  7 25  1  0
  9 26  1  0
 15 27  1  0
M  END
> <ID>
HT1767

> <Class>
0.0

> <Clusters>
274

> <Fold>
3

$$$$