
     RDKit          3D

 20 21  0  0  0  0  0  0  0  0999 V2000
   -1.8156   -2.7035   -0.1467 O   0  0  0  0  0  0  0  0  0  0  0  0
   -0.7350   -1.8236   -0.0695 C   0  0  0  0  0  0  0  0  0  0  0  0
    0.5556   -2.3492    0.0057 C   0  0  0  0  0  0  0  0  0  0  0  0
    1.6614   -1.5038    0.0947 C   0  0  0  0  0  0  0  0  0  0  0  0
    1.5013   -0.1090    0.1170 C   0  0  0  0  0  0  0  0  0  0  0  0
    0.1986    0.4388    0.0090 C   0  0  0  0  0  0  0  0  0  0  0  0
   -0.0325    1.8263   -0.0587 C   0  0  0  0  0  0  0  0  0  0  0  0
   -1.3341    2.3184   -0.1584 C   0  0  0  0  0  0  0  0  0  0  0  0
   -2.4038    1.4270   -0.2050 C   0  0  0  0  0  0  0  0  0  0  0  0
   -2.1764    0.0891   -0.1693 N   0  0  0  0  0  0  0  0  0  0  0  0
   -0.9212   -0.4300   -0.0727 C   0  0  0  0  0  0  0  0  0  0  0  0
    2.6619    0.7232    0.2757 N   0  0  0  0  0  0  0  0  0  0  0  0
    3.7326    0.4137   -0.2865 O   0  0  0  0  0  0  0  0  0  0  0  0
    2.6781    1.7046    1.2398 O   0  0  0  0  0  0  0  0  0  0  0  0
   -2.7743   -2.3816   -0.2040 H   0  0  0  0  0  0  0  0  0  0  0  0
    0.7023   -3.4219    0.0036 H   0  0  0  0  0  0  0  0  0  0  0  0
    2.6493   -1.9401    0.1735 H   0  0  0  0  0  0  0  0  0  0  0  0
    0.7805    2.5380   -0.0585 H   0  0  0  0  0  0  0  0  0  0  0  0
   -1.5119    3.3851   -0.2066 H   0  0  0  0  0  0  0  0  0  0  0  0
   -3.4168    1.7985   -0.2829 H   0  0  0  0  0  0  0  0  0  0  0  0
  1  2  1  0
  2  3  2  0
  3  4  1  0
  4  5  2  0
  5  6  1  0
  6  7  2  0
  7  8  1  0
  8  9  2  0
  9 10  1  0
 10 11  2  0
 11  2  1  0
 11  6  1  0
  5 12  1  0
 12 13  2  0
 12 14  1  0
  1 15  1  0
  3 16  1  0
  4 17  1  0
  7 18  1  0
  8 19  1  0
  9 20  1  0
M  CHG  2  12   1  14  -1
M  END
> <ID>
HT1512

> <Class>
0.0

> <Clusters>
53

> <Fold>
3

$$$$