
     RDKit          3D

 98 98  0  0  0  0  0  0  0  0999 V2000
   12.5965   -1.6131   -3.0838 C   0  0  0  0  0  0  0  0  0  0  0  0
   13.4477   -1.0525   -1.9458 C   0  0  0  0  0  0  0  0  0  0  0  0
   12.8270    0.1974   -1.2980 C   0  0  0  0  0  0  0  0  0  0  0  0
   11.4657   -0.0393   -0.6181 C   0  0  0  0  0  0  0  0  0  0  0  0
   11.5366   -1.0541    0.5369 C   0  0  0  0  0  0  0  0  0  0  0  0
   10.2680   -1.0441    1.4059 C   0  0  0  0  0  0  0  0  0  0  0  0
    9.0326   -1.5801    0.6588 C   0  0  0  0  0  0  0  0  0  0  0  0
    7.8201   -1.7846    1.5863 C   0  0  0  0  0  0  0  0  0  0  0  0
    7.3387   -0.5161    2.3228 C   0  0  0  0  0  0  0  0  0  0  0  0
    6.9761    0.6703    1.4122 C   0  0  0  0  0  0  0  0  0  0  0  0
    5.7249    0.4061    0.5566 C   0  0  0  0  0  0  0  0  0  0  0  0
    5.4403    1.5262   -0.4632 C   0  0  0  0  0  0  0  0  0  0  0  0
    5.1335    2.9049    0.1505 C   0  0  0  0  0  0  0  0  0  0  0  0
    3.8268    2.9801    0.9625 C   0  0  0  0  0  0  0  0  0  0  0  0
    2.5481    2.9118    0.0941 C   0  0  0  0  0  0  0  0  0  0  0  0
    1.8746    1.5644    0.0786 C   0  0  0  0  0  0  0  0  0  0  0  0
    2.4472    0.5407    0.5468 O   0  0  0  0  0  0  0  0  0  0  0  0
    0.5706    1.4687   -0.4176 O   0  0  0  0  0  0  0  0  0  0  0  0
   -0.2355    0.3177   -0.1957 C   0  0  0  0  0  0  0  0  0  0  0  0
   -1.6790    0.6172   -0.4800 C   0  0  0  0  0  0  0  0  0  0  0  0
   -2.4148    1.4940    0.2359 C   0  0  0  0  0  0  0  0  0  0  0  0
   -1.7733    2.4198    1.2383 C   0  0  0  0  0  0  0  0  0  0  0  0
   -3.8840    1.5968    0.0566 C   0  0  0  0  0  0  0  0  0  0  0  0
   -4.6581    0.5385   -0.2230 C   0  0  0  0  0  0  0  0  0  0  0  0
   -6.1330    0.6429   -0.1719 C   0  0  0  0  0  0  0  0  0  0  0  0
   -6.9836   -0.3004   -0.6324 C   0  0  0  0  0  0  0  0  0  0  0  0
   -6.4906   -1.4930   -1.4279 C   0  0  0  0  0  0  0  0  0  0  0  0
   -8.4170   -0.1838   -0.2376 C   0  0  0  0  0  0  0  0  0  0  0  0
   -9.3842   -1.0071   -0.6544 C   0  0  0  0  0  0  0  0  0  0  0  0
  -10.7797   -0.8793   -0.1656 C   0  0  0  0  0  0  0  0  0  0  0  0
  -11.1627   -1.5742    0.9406 C   0  0  0  0  0  0  0  0  0  0  0  0
  -10.1921   -2.4896    1.6536 C   0  0  0  0  0  0  0  0  0  0  0  0
  -12.5982   -1.5926    1.4279 C   0  0  0  0  0  0  0  0  0  0  0  0
  -13.4271   -0.4151    0.9371 C   0  0  0  0  0  0  0  0  0  0  0  0
  -13.2092   -0.2060   -0.5618 C   0  0  0  0  0  0  0  0  0  0  0  0
  -11.7229    0.0990   -0.8870 C   0  0  0  0  0  0  0  0  0  0  0  0
  -11.3783    1.5450   -0.4617 C   0  0  0  0  0  0  0  0  0  0  0  0
  -11.5413   -0.0085   -2.4215 C   0  0  0  0  0  0  0  0  0  0  0  0
   11.6615   -2.0591   -2.6883 H   0  0  0  0  0  0  0  0  0  0  0  0
   13.1589   -2.4123   -3.6100 H   0  0  0  0  0  0  0  0  0  0  0  0
   12.3484   -0.8150   -3.8152 H   0  0  0  0  0  0  0  0  0  0  0  0
   13.6281   -1.8419   -1.1856 H   0  0  0  0  0  0  0  0  0  0  0  0
   14.4370   -0.7696   -2.3643 H   0  0  0  0  0  0  0  0  0  0  0  0
   13.5397    0.5993   -0.5470 H   0  0  0  0  0  0  0  0  0  0  0  0
   12.7053    0.9824   -2.0778 H   0  0  0  0  0  0  0  0  0  0  0  0
   10.7205   -0.3687   -1.3709 H   0  0  0  0  0  0  0  0  0  0  0  0
   11.1202    0.9380   -0.2178 H   0  0  0  0  0  0  0  0  0  0  0  0
   12.4009   -0.7985    1.1897 H   0  0  0  0  0  0  0  0  0  0  0  0
   11.7013   -2.0775    0.1345 H   0  0  0  0  0  0  0  0  0  0  0  0
   10.0846   -0.0072    1.7655 H   0  0  0  0  0  0  0  0  0  0  0  0
   10.4549   -1.6832    2.2965 H   0  0  0  0  0  0  0  0  0  0  0  0
    8.7530   -0.8955   -0.1692 H   0  0  0  0  0  0  0  0  0  0  0  0
    9.2846   -2.5644    0.2019 H   0  0  0  0  0  0  0  0  0  0  0  0
    8.0865   -2.5452    2.3501 H   0  0  0  0  0  0  0  0  0  0  0  0
    6.9847   -2.2219    0.9998 H   0  0  0  0  0  0  0  0  0  0  0  0
    8.1235   -0.1889    3.0397 H   0  0  0  0  0  0  0  0  0  0  0  0
    6.4488   -0.7826    2.9367 H   0  0  0  0  0  0  0  0  0  0  0  0
    6.7726    1.5315    2.0796 H   0  0  0  0  0  0  0  0  0  0  0  0
    7.8361    0.9519    0.7691 H   0  0  0  0  0  0  0  0  0  0  0  0
    4.8505    0.2472    1.2186 H   0  0  0  0  0  0  0  0  0  0  0  0
    5.8640   -0.5301   -0.0241 H   0  0  0  0  0  0  0  0  0  0  0  0
    6.3293    1.6352   -1.1239 H   0  0  0  0  0  0  0  0  0  0  0  0
    4.5942    1.2146   -1.1134 H   0  0  0  0  0  0  0  0  0  0  0  0
    5.9805    3.2153    0.7975 H   0  0  0  0  0  0  0  0  0  0  0  0
    5.0861    3.6505   -0.6715 H   0  0  0  0  0  0  0  0  0  0  0  0
    3.8172    2.2289    1.7816 H   0  0  0  0  0  0  0  0  0  0  0  0
    3.8272    3.9674    1.4774 H   0  0  0  0  0  0  0  0  0  0  0  0
    1.8138    3.6375    0.5129 H   0  0  0  0  0  0  0  0  0  0  0  0
    2.7516    3.2326   -0.9497 H   0  0  0  0  0  0  0  0  0  0  0  0
   -0.1403   -0.0089    0.8568 H   0  0  0  0  0  0  0  0  0  0  0  0
    0.1112   -0.5097   -0.8447 H   0  0  0  0  0  0  0  0  0  0  0  0
   -2.1436    0.0314   -1.2596 H   0  0  0  0  0  0  0  0  0  0  0  0
   -2.5350    3.0344    1.7591 H   0  0  0  0  0  0  0  0  0  0  0  0
   -1.0711    3.1105    0.7237 H   0  0  0  0  0  0  0  0  0  0  0  0
   -1.2261    1.8396    2.0069 H   0  0  0  0  0  0  0  0  0  0  0  0
   -4.3543    2.5454    0.2829 H   0  0  0  0  0  0  0  0  0  0  0  0
   -4.2047   -0.4325   -0.3768 H   0  0  0  0  0  0  0  0  0  0  0  0
   -6.5423    1.5074    0.3409 H   0  0  0  0  0  0  0  0  0  0  0  0
   -6.3640   -2.3636   -0.7502 H   0  0  0  0  0  0  0  0  0  0  0  0
   -7.1982   -1.7514   -2.2420 H   0  0  0  0  0  0  0  0  0  0  0  0
   -5.5291   -1.2846   -1.9395 H   0  0  0  0  0  0  0  0  0  0  0  0
   -8.6895    0.5928    0.4655 H   0  0  0  0  0  0  0  0  0  0  0  0
   -9.1841   -1.8125   -1.3412 H   0  0  0  0  0  0  0  0  0  0  0  0
  -10.6823   -3.0216    2.4932 H   0  0  0  0  0  0  0  0  0  0  0  0
   -9.7899   -3.2480    0.9485 H   0  0  0  0  0  0  0  0  0  0  0  0
   -9.3524   -1.8966    2.0678 H   0  0  0  0  0  0  0  0  0  0  0  0
  -13.0676   -2.5413    1.0894 H   0  0  0  0  0  0  0  0  0  0  0  0
  -12.6095   -1.5845    2.5381 H   0  0  0  0  0  0  0  0  0  0  0  0
  -14.5028   -0.6193    1.1304 H   0  0  0  0  0  0  0  0  0  0  0  0
  -13.1586    0.5008    1.5041 H   0  0  0  0  0  0  0  0  0  0  0  0
  -13.5360   -1.1278   -1.0955 H   0  0  0  0  0  0  0  0  0  0  0  0
  -13.8633    0.6230   -0.9152 H   0  0  0  0  0  0  0  0  0  0  0  0
  -12.0685    2.2659   -0.9370 H   0  0  0  0  0  0  0  0  0  0  0  0
  -10.3489    1.8144   -0.7816 H   0  0  0  0  0  0  0  0  0  0  0  0
  -11.4418    1.6760    0.6383 H   0  0  0  0  0  0  0  0  0  0  0  0
  -10.5253    0.3188   -2.7260 H   0  0  0  0  0  0  0  0  0  0  0  0
  -11.6901   -1.0570   -2.7663 H   0  0  0  0  0  0  0  0  0  0  0  0
  -12.2678    0.6499   -2.9471 H   0  0  0  0  0  0  0  0  0  0  0  0
  1  2  1  0
  2  3  1  0
  3  4  1  0
  4  5  1  0
  5  6  1  0
  6  7  1  0
  7  8  1  0
  8  9  1  0
  9 10  1  0
 10 11  1  0
 11 12  1  0
 12 13  1  0
 13 14  1  0
 14 15  1  0
 15 16  1  0
 16 17  2  0
 16 18  1  0
 18 19  1  0
 19 20  1  0
 20 21  2  0
 21 22  1  0
 21 23  1  0
 23 24  2  0
 24 25  1  0
 25 26  2  0
 26 27  1  0
 26 28  1  0
 28 29  2  0
 29 30  1  0
 30 31  2  0
 31 32  1  0
 31 33  1  0
 33 34  1  0
 34 35  1  0
 35 36  1  0
 36 30  1  0
 36 37  1  0
 36 38  1  0
  1 39  1  0
  1 40  1  0
  1 41  1  0
  2 42  1  0
  2 43  1  0
  3 44  1  0
  3 45  1  0
  4 46  1  0
  4 47  1  0
  5 48  1  0
  5 49  1  0
  6 50  1  0
  6 51  1  0
  7 52  1  0
  7 53  1  0
  8 54  1  0
  8 55  1  0
  9 56  1  0
  9 57  1  0
 10 58  1  0
 10 59  1  0
 11 60  1  0
 11 61  1  0
 12 62  1  0
 12 63  1  0
 13 64  1  0
 13 65  1  0
 14 66  1  0
 14 67  1  0
 15 68  1  0
 15 69  1  0
 19 70  1  0
 19 71  1  0
 20 72  1  0
 22 73  1  0
 22 74  1  0
 22 75  1  0
 23 76  1  0
 24 77  1  0
 25 78  1  0
 27 79  1  0
 27 80  1  0
 27 81  1  0
 28 82  1  0
 29 83  1  0
 32 84  1  0
 32 85  1  0
 32 86  1  0
 33 87  1  0
 33 88  1  0
 34 89  1  0
 34 90  1  0
 35 91  1  0
 35 92  1  0
 37 93  1  0
 37 94  1  0
 37 95  1  0
 38 96  1  0
 38 97  1  0
 38 98  1  0
M  END
> <ID>
HT2189

> <Class>
0.0

> <Clusters>
268

> <Fold>
3

$$$$