
     RDKit          3D

 48 51  0  0  0  0  0  0  0  0999 V2000
    4.4266   -1.7367   -1.5078 C   0  0  0  0  0  0  0  0  0  0  0  0
    3.2121   -1.1060   -0.9579 N   0  0  0  0  0  0  0  0  0  0  0  0
    3.2155    0.3553   -1.1114 C   0  0  2  0  0  0  0  0  0  0  0  0
    4.1048    0.9021    0.0183 C   0  0  0  0  0  0  0  0  0  0  0  0
    4.0474   -0.1751    1.0930 C   0  0  0  0  0  0  0  0  0  0  0  0
    3.1151   -1.2451    0.5014 C   0  0  1  0  0  0  0  0  0  0  0  0
    1.6392   -0.9675    0.9105 C   0  0  0  0  0  0  0  0  0  0  0  0
    0.8571   -0.1554   -0.1608 C   0  0  2  0  0  0  0  0  0  0  0  0
    1.7501    0.8515   -0.9477 C   0  0  0  0  0  0  0  0  0  0  0  0
   -0.2034    0.5389    0.4783 O   0  0  0  0  0  0  0  0  0  0  0  0
   -1.3880    0.5320   -0.3062 C   0  0  0  0  0  0  0  0  0  0  0  0
   -2.3089    1.6580    0.1170 C   0  0  0  0  0  0  0  0  0  0  0  0
   -3.3424    2.0655   -0.7479 C   0  0  0  0  0  0  0  0  0  0  0  0
   -4.2290    3.0773   -0.3666 C   0  0  0  0  0  0  0  0  0  0  0  0
   -4.1014    3.6854    0.8841 C   0  0  0  0  0  0  0  0  0  0  0  0
   -3.0876    3.2817    1.7575 C   0  0  0  0  0  0  0  0  0  0  0  0
   -2.1963    2.2722    1.3809 C   0  0  0  0  0  0  0  0  0  0  0  0
   -2.1122   -0.7899   -0.1437 C   0  0  0  0  0  0  0  0  0  0  0  0
   -2.4836   -1.5413   -1.2729 C   0  0  0  0  0  0  0  0  0  0  0  0
   -3.1483   -2.7638   -1.1201 C   0  0  0  0  0  0  0  0  0  0  0  0
   -3.4466   -3.2460    0.1582 C   0  0  0  0  0  0  0  0  0  0  0  0
   -3.0816   -2.5062    1.2866 C   0  0  0  0  0  0  0  0  0  0  0  0
   -2.4172   -1.2835    1.1389 C   0  0  0  0  0  0  0  0  0  0  0  0
    4.4871   -1.5449   -2.6009 H   0  0  0  0  0  0  0  0  0  0  0  0
    5.3559   -1.3573   -1.0287 H   0  0  0  0  0  0  0  0  0  0  0  0
    4.3724   -2.8392   -1.3633 H   0  0  0  0  0  0  0  0  0  0  0  0
    3.6060    0.6694   -2.1054 H   0  0  0  0  0  0  0  0  0  0  0  0
    3.7663    1.8865    0.4094 H   0  0  0  0  0  0  0  0  0  0  0  0
    5.1501    1.0178   -0.3458 H   0  0  0  0  0  0  0  0  0  0  0  0
    3.6933    0.2347    2.0637 H   0  0  0  0  0  0  0  0  0  0  0  0
    5.0608   -0.6063    1.2546 H   0  0  0  0  0  0  0  0  0  0  0  0
    3.4140   -2.2626    0.8443 H   0  0  0  0  0  0  0  0  0  0  0  0
    1.1190   -1.9414    1.0546 H   0  0  0  0  0  0  0  0  0  0  0  0
    1.5849   -0.4490    1.8942 H   0  0  0  0  0  0  0  0  0  0  0  0
    0.4898   -0.9134   -0.8974 H   0  0  0  0  0  0  0  0  0  0  0  0
    1.3079    0.9852   -1.9602 H   0  0  0  0  0  0  0  0  0  0  0  0
    1.7151    1.8536   -0.4643 H   0  0  0  0  0  0  0  0  0  0  0  0
   -1.1394    0.7168   -1.3800 H   0  0  0  0  0  0  0  0  0  0  0  0
   -3.4577    1.6017   -1.7196 H   0  0  0  0  0  0  0  0  0  0  0  0
   -5.0204    3.3847   -1.0398 H   0  0  0  0  0  0  0  0  0  0  0  0
   -4.7912    4.4660    1.1790 H   0  0  0  0  0  0  0  0  0  0  0  0
   -2.9959    3.7471    2.7299 H   0  0  0  0  0  0  0  0  0  0  0  0
   -1.4349    1.9628    2.0847 H   0  0  0  0  0  0  0  0  0  0  0  0
   -2.2604   -1.1823   -2.2704 H   0  0  0  0  0  0  0  0  0  0  0  0
   -3.4322   -3.3378   -1.9933 H   0  0  0  0  0  0  0  0  0  0  0  0
   -3.9610   -4.1925    0.2744 H   0  0  0  0  0  0  0  0  0  0  0  0
   -3.3131   -2.8807    2.2762 H   0  0  0  0  0  0  0  0  0  0  0  0
   -2.1379   -0.7223    2.0223 H   0  0  0  0  0  0  0  0  0  0  0  0
  1  2  1  0
  2  3  1  0
  3  4  1  0
  4  5  1  0
  6  5  1  0
  6  2  1  0
  6  7  1  0
  7  8  1  0
  8  9  1  0
  9  3  1  0
  8 10  1  0
 10 11  1  0
 11 12  1  0
 12 13  2  0
 13 14  1  0
 14 15  2  0
 15 16  1  0
 16 17  2  0
 17 12  1  0
 11 18  1  0
 18 19  2  0
 19 20  1  0
 20 21  2  0
 21 22  1  0
 22 23  2  0
 23 18  1  0
  1 24  1  0
  1 25  1  0
  1 26  1  0
  3 27  1  6
  4 28  1  0
  4 29  1  0
  5 30  1  0
  5 31  1  0
  6 32  1  6
  7 33  1  0
  7 34  1  0
  8 35  1  6
  9 36  1  0
  9 37  1  0
 11 38  1  0
 13 39  1  0
 14 40  1  0
 15 41  1  0
 16 42  1  0
 17 43  1  0
 19 44  1  0
 20 45  1  0
 21 46  1  0
 22 47  1  0
 23 48  1  0
M  END
> <ID>
HT0256

> <Class>
0.0

> <Clusters>
24

> <Fold>
3

$$$$