
     RDKit          3D

 26 25  0  0  0  0  0  0  0  0999 V2000
   -2.8223   -1.6276   -0.8720 F   0  0  0  0  0  0  0  0  0  0  0  0
   -3.4214   -0.3826   -0.8617 C   0  0  0  0  0  0  0  0  0  0  0  0
   -4.3099   -0.3116    0.1963 F   0  0  0  0  0  0  0  0  0  0  0  0
   -4.1356   -0.2472   -2.0392 F   0  0  0  0  0  0  0  0  0  0  0  0
   -2.3691    0.7414   -0.7764 C   0  0  0  0  0  0  0  0  0  0  0  0
   -3.0053    1.9300   -1.0981 F   0  0  0  0  0  0  0  0  0  0  0  0
   -1.4043    0.5297   -1.7430 F   0  0  0  0  0  0  0  0  0  0  0  0
   -1.7132    0.9377    0.6219 C   0  0  0  0  0  0  0  0  0  0  0  0
   -0.8515    2.0181    0.5491 F   0  0  0  0  0  0  0  0  0  0  0  0
   -2.7132    1.3054    1.5089 F   0  0  0  0  0  0  0  0  0  0  0  0
   -0.9614   -0.2719    1.2539 C   0  0  0  0  0  0  0  0  0  0  0  0
   -0.5118    0.1321    2.5014 F   0  0  0  0  0  0  0  0  0  0  0  0
   -1.8698   -1.2899    1.4871 F   0  0  0  0  0  0  0  0  0  0  0  0
    0.2519   -0.8724    0.4816 C   0  0  0  0  0  0  0  0  0  0  0  0
   -0.1768   -1.4397   -0.7041 F   0  0  0  0  0  0  0  0  0  0  0  0
    0.7406   -1.9055    1.2661 F   0  0  0  0  0  0  0  0  0  0  0  0
    1.4121    0.1257    0.1872 C   0  0  0  0  0  0  0  0  0  0  0  0
    1.0247    0.9870   -0.8238 F   0  0  0  0  0  0  0  0  0  0  0  0
    1.6837    0.8726    1.3222 F   0  0  0  0  0  0  0  0  0  0  0  0
    2.7142   -0.5976   -0.2552 C   0  0  0  0  0  0  0  0  0  0  0  0
    2.4367   -1.4460   -1.3153 F   0  0  0  0  0  0  0  0  0  0  0  0
    3.2003   -1.3553    0.7989 F   0  0  0  0  0  0  0  0  0  0  0  0
    3.8199    0.3840   -0.6918 C   0  0  0  0  0  0  0  0  0  0  0  0
    4.1200    1.2647    0.3322 F   0  0  0  0  0  0  0  0  0  0  0  0
    3.4226    1.1027   -1.8055 F   0  0  0  0  0  0  0  0  0  0  0  0
    5.4389   -0.5838   -1.1519 Br  0  0  0  0  0  0  0  0  0  0  0  0
  1  2  1  0
  2  3  1  0
  2  4  1  0
  2  5  1  0
  5  6  1  0
  5  7  1  0
  5  8  1  0
  8  9  1  0
  8 10  1  0
  8 11  1  0
 11 12  1  0
 11 13  1  0
 11 14  1  0
 14 15  1  0
 14 16  1  0
 14 17  1  0
 17 18  1  0
 17 19  1  0
 17 20  1  0
 20 21  1  0
 20 22  1  0
 20 23  1  0
 23 24  1  0
 23 25  1  0
 23 26  1  0
M  END
> <ID>
HT1632

> <Class>
0.0

> <Clusters>
190

> <Fold>
3

$$$$