
     RDKit          3D

 39 40  0  0  0  0  0  0  0  0999 V2000
   -2.6614    2.7125    0.5039 C   0  0  0  0  0  0  0  0  0  0  0  0
   -2.7998    1.3763    0.9770 O   0  0  0  0  0  0  0  0  0  0  0  0
   -1.7670    0.4242    0.9942 C   0  0  0  0  0  0  0  0  0  0  0  0
   -0.4721    0.7290    0.5417 C   0  0  0  0  0  0  0  0  0  0  0  0
    0.5396   -0.2368    0.5626 C   0  0  0  0  0  0  0  0  0  0  0  0
    0.2513   -1.5185    1.0519 C   0  0  0  0  0  0  0  0  0  0  0  0
   -1.0385   -1.8471    1.5136 C   0  0  0  0  0  0  0  0  0  0  0  0
   -1.3222   -3.1334    1.9998 O   0  0  0  0  0  0  0  0  0  0  0  0
   -0.3850   -4.2027    2.0831 C   0  0  0  0  0  0  0  0  0  0  0  0
   -2.0577   -0.8605    1.4814 C   0  0  0  0  0  0  0  0  0  0  0  0
   -3.3781   -1.0861    1.9165 O   0  0  0  0  0  0  0  0  0  0  0  0
   -3.9030   -2.2991    2.4447 C   0  0  0  0  0  0  0  0  0  0  0  0
    1.8966    0.1069    0.0714 C   0  0  0  0  0  0  0  0  0  0  0  0
    3.2239   -0.4827    0.8397 S   0  0  0  0  0  0  0  0  0  0  0  0
    2.0669    0.9455   -1.0859 N   0  0  0  0  0  0  0  0  0  0  0  0
    1.2233    0.7515   -2.2686 C   0  0  0  0  0  0  0  0  0  0  0  0
    2.0024    1.1540   -3.5239 C   0  0  0  0  0  0  0  0  0  0  0  0
    2.5330    2.4593   -3.3879 O   0  0  0  0  0  0  0  0  0  0  0  0
    3.4969    2.4799   -2.3513 C   0  0  0  0  0  0  0  0  0  0  0  0
    2.8475    2.1825   -0.9960 C   0  0  0  0  0  0  0  0  0  0  0  0
   -1.9048    3.2555    1.1089 H   0  0  0  0  0  0  0  0  0  0  0  0
   -2.3656    2.7099   -0.5666 H   0  0  0  0  0  0  0  0  0  0  0  0
   -3.6351    3.2343    0.6022 H   0  0  0  0  0  0  0  0  0  0  0  0
   -0.2407    1.7238    0.1861 H   0  0  0  0  0  0  0  0  0  0  0  0
    1.0337   -2.2644    1.0545 H   0  0  0  0  0  0  0  0  0  0  0  0
    0.4582   -3.9211    2.7486 H   0  0  0  0  0  0  0  0  0  0  0  0
   -0.8902   -5.0934    2.5094 H   0  0  0  0  0  0  0  0  0  0  0  0
   -0.0077   -4.4601    1.0710 H   0  0  0  0  0  0  0  0  0  0  0  0
   -3.8331   -3.1099    1.6895 H   0  0  0  0  0  0  0  0  0  0  0  0
   -4.9739   -2.1482    2.6914 H   0  0  0  0  0  0  0  0  0  0  0  0
   -3.3689   -2.5755    3.3780 H   0  0  0  0  0  0  0  0  0  0  0  0
    0.3131    1.3830   -2.1843 H   0  0  0  0  0  0  0  0  0  0  0  0
    0.9149   -0.3133   -2.3562 H   0  0  0  0  0  0  0  0  0  0  0  0
    2.8067    0.4130   -3.7371 H   0  0  0  0  0  0  0  0  0  0  0  0
    1.3100    1.1423   -4.3918 H   0  0  0  0  0  0  0  0  0  0  0  0
    3.9532    3.4914   -2.3130 H   0  0  0  0  0  0  0  0  0  0  0  0
    4.3204    1.7575   -2.5543 H   0  0  0  0  0  0  0  0  0  0  0  0
    3.6418    2.1013   -0.2237 H   0  0  0  0  0  0  0  0  0  0  0  0
    2.1712    3.0191   -0.7163 H   0  0  0  0  0  0  0  0  0  0  0  0
  1  2  1  0
  2  3  1  0
  3  4  2  0
  4  5  1  0
  5  6  2  0
  6  7  1  0
  7  8  1  0
  8  9  1  0
  7 10  2  0
 10  3  1  0
 10 11  1  0
 11 12  1  0
  5 13  1  0
 13 14  2  0
 13 15  1  0
 15 16  1  0
 16 17  1  0
 17 18  1  0
 18 19  1  0
 19 20  1  0
 20 15  1  0
  1 21  1  0
  1 22  1  0
  1 23  1  0
  4 24  1  0
  6 25  1  0
  9 26  1  0
  9 27  1  0
  9 28  1  0
 12 29  1  0
 12 30  1  0
 12 31  1  0
 16 32  1  0
 16 33  1  0
 17 34  1  0
 17 35  1  0
 19 36  1  0
 19 37  1  0
 20 38  1  0
 20 39  1  0
M  END
> <ID>
HT2135

> <Class>
0.0

> <Clusters>
160

> <Fold>
3

$$$$