
     RDKit          3D

 55 56  0  0  0  0  0  0  0  0999 V2000
    6.4684    0.7279    0.9285 C   0  0  0  0  0  0  0  0  0  0  0  0
    5.7796   -0.6390    1.0520 C   0  0  0  0  0  0  0  0  0  0  0  0
    4.8730   -0.9700   -0.0763 N   0  0  0  0  0  0  0  0  0  0  0  0
    5.5567   -1.0672   -1.3877 C   0  0  0  0  0  0  0  0  0  0  0  0
    6.4595   -2.2975   -1.4626 C   0  0  0  0  0  0  0  0  0  0  0  0
    3.6996   -0.0692   -0.1351 C   0  0  0  0  0  0  0  0  0  0  0  0
    2.4519   -0.8515   -0.5580 C   0  0  0  0  0  0  0  0  0  0  0  0
    1.3003   -0.0363   -0.4478 O   0  0  0  0  0  0  0  0  0  0  0  0
    0.9974    0.5659   -1.6898 C   0  0  0  0  0  0  0  0  0  0  0  0
   -0.1694    1.5269   -1.5089 C   0  0  0  0  0  0  0  0  0  0  0  0
   -1.3223    0.8030   -1.0799 O   0  0  0  0  0  0  0  0  0  0  0  0
   -1.9911    1.0319    0.1302 C   0  0  0  0  0  0  0  0  0  0  0  0
   -1.6291    1.9692    0.8942 O   0  0  0  0  0  0  0  0  0  0  0  0
   -3.2012    0.1943    0.4980 C   0  0  0  0  0  0  0  0  0  0  0  0
   -3.2465   -1.1257   -0.2906 C   0  0  0  0  0  0  0  0  0  0  0  0
   -4.0242   -2.0977    0.5870 C   0  0  0  0  0  0  0  0  0  0  0  0
   -3.8186   -1.6324    2.0268 C   0  0  0  0  0  0  0  0  0  0  0  0
   -3.0585   -0.3088    1.9500 C   0  0  0  0  0  0  0  0  0  0  0  0
   -4.4787    1.0087    0.2099 C   0  0  0  0  0  0  0  0  0  0  0  0
   -4.6508    1.5774   -1.0721 C   0  0  0  0  0  0  0  0  0  0  0  0
   -5.7948    2.3150   -1.3873 C   0  0  0  0  0  0  0  0  0  0  0  0
   -6.7967    2.4924   -0.4350 C   0  0  0  0  0  0  0  0  0  0  0  0
   -6.6593    1.9267    0.8318 C   0  0  0  0  0  0  0  0  0  0  0  0
   -5.5162    1.1892    1.1555 C   0  0  0  0  0  0  0  0  0  0  0  0
    6.9713    0.9703    1.8885 H   0  0  0  0  0  0  0  0  0  0  0  0
    7.2485    0.7095    0.1405 H   0  0  0  0  0  0  0  0  0  0  0  0
    5.7362    1.5322    0.7101 H   0  0  0  0  0  0  0  0  0  0  0  0
    6.5522   -1.4269    1.1669 H   0  0  0  0  0  0  0  0  0  0  0  0
    5.2026   -0.6595    2.0021 H   0  0  0  0  0  0  0  0  0  0  0  0
    6.1380   -0.1501   -1.6183 H   0  0  0  0  0  0  0  0  0  0  0  0
    4.8058   -1.1745   -2.2006 H   0  0  0  0  0  0  0  0  0  0  0  0
    7.3609   -2.1664   -0.8303 H   0  0  0  0  0  0  0  0  0  0  0  0
    5.9035   -3.2018   -1.1373 H   0  0  0  0  0  0  0  0  0  0  0  0
    6.7978   -2.4444   -2.5098 H   0  0  0  0  0  0  0  0  0  0  0  0
    3.4837    0.3765    0.8621 H   0  0  0  0  0  0  0  0  0  0  0  0
    3.8794    0.7766   -0.8360 H   0  0  0  0  0  0  0  0  0  0  0  0
    2.3267   -1.7066    0.1396 H   0  0  0  0  0  0  0  0  0  0  0  0
    2.5815   -1.2956   -1.5717 H   0  0  0  0  0  0  0  0  0  0  0  0
    0.7056   -0.2074   -2.4362 H   0  0  0  0  0  0  0  0  0  0  0  0
    1.8661    1.1439   -2.0786 H   0  0  0  0  0  0  0  0  0  0  0  0
   -0.3961    2.0148   -2.4807 H   0  0  0  0  0  0  0  0  0  0  0  0
    0.1175    2.3209   -0.7858 H   0  0  0  0  0  0  0  0  0  0  0  0
   -2.2181   -1.5318   -0.4287 H   0  0  0  0  0  0  0  0  0  0  0  0
   -3.7165   -1.0244   -1.2932 H   0  0  0  0  0  0  0  0  0  0  0  0
   -5.1048   -2.0505    0.3265 H   0  0  0  0  0  0  0  0  0  0  0  0
   -3.6629   -3.1396    0.4433 H   0  0  0  0  0  0  0  0  0  0  0  0
   -3.2327   -2.3838    2.6011 H   0  0  0  0  0  0  0  0  0  0  0  0
   -4.7997   -1.4925    2.5297 H   0  0  0  0  0  0  0  0  0  0  0  0
   -3.3891    0.4257    2.7138 H   0  0  0  0  0  0  0  0  0  0  0  0
   -1.9871   -0.5256    2.1682 H   0  0  0  0  0  0  0  0  0  0  0  0
   -3.8944    1.4496   -1.8355 H   0  0  0  0  0  0  0  0  0  0  0  0
   -5.9046    2.7477   -2.3736 H   0  0  0  0  0  0  0  0  0  0  0  0
   -7.6834    3.0624   -0.6813 H   0  0  0  0  0  0  0  0  0  0  0  0
   -7.4436    2.0569    1.5668 H   0  0  0  0  0  0  0  0  0  0  0  0
   -5.4736    0.7609    2.1436 H   0  0  0  0  0  0  0  0  0  0  0  0
  1  2  1  0
  2  3  1  0
  3  4  1  0
  4  5  1  0
  3  6  1  0
  6  7  1  0
  7  8  1  0
  8  9  1  0
  9 10  1  0
 10 11  1  0
 11 12  1  0
 12 13  2  0
 12 14  1  0
 14 15  1  0
 15 16  1  0
 16 17  1  0
 17 18  1  0
 18 14  1  0
 14 19  1  0
 19 20  2  0
 20 21  1  0
 21 22  2  0
 22 23  1  0
 23 24  2  0
 24 19  1  0
  1 25  1  0
  1 26  1  0
  1 27  1  0
  2 28  1  0
  2 29  1  0
  4 30  1  0
  4 31  1  0
  5 32  1  0
  5 33  1  0
  5 34  1  0
  6 35  1  0
  6 36  1  0
  7 37  1  0
  7 38  1  0
  9 39  1  0
  9 40  1  0
 10 41  1  0
 10 42  1  0
 15 43  1  0
 15 44  1  0
 16 45  1  0
 16 46  1  0
 17 47  1  0
 17 48  1  0
 18 49  1  0
 18 50  1  0
 20 51  1  0
 21 52  1  0
 22 53  1  0
 23 54  1  0
 24 55  1  0
M  END
> <ID>
HT3523

> <Class>
0.0

> <Clusters>
263

> <Fold>
3

$$$$