
     RDKit          3D

 45 47  0  0  0  0  0  0  0  0999 V2000
    4.7958   -1.3230   -0.0073 C   0  0  0  0  0  0  0  0  0  0  0  0
    3.8051   -0.4847   -0.7056 N   0  0  0  0  0  0  0  0  0  0  0  0
    3.8100   -0.8156   -2.1400 C   0  0  0  0  0  0  0  0  0  0  0  0
    2.4521   -0.6767   -0.1388 C   0  0  0  0  0  0  0  0  0  0  0  0
    2.2477    0.2280    1.0856 C   0  0  0  0  0  0  0  0  0  0  0  0
    0.8167    0.1349    1.6360 C   0  0  0  0  0  0  0  0  0  0  0  0
   -0.1702    0.6435    0.6676 N   0  0  0  0  0  0  0  0  0  0  0  0
   -0.1063    1.9957    0.1613 C   0  0  0  0  0  0  0  0  0  0  0  0
    0.1752    3.0806    1.0105 C   0  0  0  0  0  0  0  0  0  0  0  0
    0.0816    4.3912    0.5317 C   0  0  0  0  0  0  0  0  0  0  0  0
   -0.3071    4.6308   -0.7892 C   0  0  0  0  0  0  0  0  0  0  0  0
   -0.5846    3.5599   -1.6426 C   0  0  0  0  0  0  0  0  0  0  0  0
   -0.4687    2.2466   -1.1759 C   0  0  0  0  0  0  0  0  0  0  0  0
   -0.6856    0.8666   -2.3040 S   0  0  0  0  0  0  0  0  0  0  0  0
   -1.6757   -0.0745   -1.1388 C   0  0  0  0  0  0  0  0  0  0  0  0
   -2.8292   -0.7303   -1.5707 C   0  0  0  0  0  0  0  0  0  0  0  0
   -3.5548   -1.5305   -0.6857 C   0  0  0  0  0  0  0  0  0  0  0  0
   -3.1423   -1.6749    0.6535 C   0  0  0  0  0  0  0  0  0  0  0  0
   -1.9911   -0.9873    1.0858 C   0  0  0  0  0  0  0  0  0  0  0  0
   -1.2500   -0.1915    0.1952 C   0  0  0  0  0  0  0  0  0  0  0  0
   -3.9099   -2.5167    1.6113 C   0  0  0  0  0  0  0  0  0  0  0  0
   -3.5106   -2.6330    2.8021 O   0  0  0  0  0  0  0  0  0  0  0  0
   -5.1566   -3.2442    1.2051 C   0  0  0  0  0  0  0  0  0  0  0  0
    4.8373   -1.0645    1.0705 H   0  0  0  0  0  0  0  0  0  0  0  0
    5.8110   -1.1380   -0.4199 H   0  0  0  0  0  0  0  0  0  0  0  0
    4.5574   -2.4052   -0.1119 H   0  0  0  0  0  0  0  0  0  0  0  0
    3.4756   -1.8633   -2.3123 H   0  0  0  0  0  0  0  0  0  0  0  0
    3.1384   -0.1239   -2.6931 H   0  0  0  0  0  0  0  0  0  0  0  0
    4.8290   -0.6841   -2.5644 H   0  0  0  0  0  0  0  0  0  0  0  0
    1.6788   -0.4039   -0.8904 H   0  0  0  0  0  0  0  0  0  0  0  0
    2.2741   -1.7415    0.1368 H   0  0  0  0  0  0  0  0  0  0  0  0
    2.9447   -0.0746    1.8946 H   0  0  0  0  0  0  0  0  0  0  0  0
    2.4839    1.2798    0.8164 H   0  0  0  0  0  0  0  0  0  0  0  0
    0.6138   -0.9280    1.8893 H   0  0  0  0  0  0  0  0  0  0  0  0
    0.7441    0.7100    2.5823 H   0  0  0  0  0  0  0  0  0  0  0  0
    0.4318    2.9215    2.0485 H   0  0  0  0  0  0  0  0  0  0  0  0
    0.2929    5.2231    1.1910 H   0  0  0  0  0  0  0  0  0  0  0  0
   -0.3860    5.6468   -1.1536 H   0  0  0  0  0  0  0  0  0  0  0  0
   -0.8620    3.7510   -2.6714 H   0  0  0  0  0  0  0  0  0  0  0  0
   -3.1528   -0.6404   -2.5999 H   0  0  0  0  0  0  0  0  0  0  0  0
   -4.4365   -2.0342   -1.0580 H   0  0  0  0  0  0  0  0  0  0  0  0
   -1.6952   -1.0346    2.1257 H   0  0  0  0  0  0  0  0  0  0  0  0
   -5.5785   -3.8056    2.0659 H   0  0  0  0  0  0  0  0  0  0  0  0
   -4.9244   -3.9669    0.3951 H   0  0  0  0  0  0  0  0  0  0  0  0
   -5.9191   -2.5183    0.8527 H   0  0  0  0  0  0  0  0  0  0  0  0
  1  2  1  0
  2  3  1  0
  2  4  1  0
  4  5  1  0
  5  6  1  0
  6  7  1  0
  7  8  1  0
  8  9  2  0
  9 10  1  0
 10 11  2  0
 11 12  1  0
 12 13  2  0
 13  8  1  0
 13 14  1  0
 14 15  1  0
 15 16  2  0
 16 17  1  0
 17 18  2  0
 18 19  1  0
 19 20  2  0
 20  7  1  0
 20 15  1  0
 18 21  1  0
 21 22  2  0
 21 23  1  0
  1 24  1  0
  1 25  1  0
  1 26  1  0
  3 27  1  0
  3 28  1  0
  3 29  1  0
  4 30  1  0
  4 31  1  0
  5 32  1  0
  5 33  1  0
  6 34  1  0
  6 35  1  0
  9 36  1  0
 10 37  1  0
 11 38  1  0
 12 39  1  0
 16 40  1  0
 17 41  1  0
 19 42  1  0
 23 43  1  0
 23 44  1  0
 23 45  1  0
M  END
> <ID>
HT0051

> <Class>
0.0

> <Clusters>
1

> <Fold>
3

$$$$