
     RDKit          3D

 30 32  0  0  0  0  0  0  0  0999 V2000
    0.5493   -0.7857    1.5399 O   0  0  0  0  0  0  0  0  0  0  0  0
    1.1013   -0.1245    0.6172 C   0  0  0  0  0  0  0  0  0  0  0  0
    0.4195    0.9375    0.0079 O   0  0  0  0  0  0  0  0  0  0  0  0
   -0.9564    1.1713    0.1374 C   0  0  0  0  0  0  0  0  0  0  0  0
   -1.3868    2.4747    0.4137 C   0  0  0  0  0  0  0  0  0  0  0  0
   -2.7470    2.7590    0.5614 C   0  0  0  0  0  0  0  0  0  0  0  0
   -3.6977    1.7462    0.4175 C   0  0  0  0  0  0  0  0  0  0  0  0
   -3.2898    0.4412    0.1090 C   0  0  0  0  0  0  0  0  0  0  0  0
   -4.2268   -0.5844   -0.0737 C   0  0  0  0  0  0  0  0  0  0  0  0
   -3.7948   -1.8675   -0.4129 C   0  0  0  0  0  0  0  0  0  0  0  0
   -2.4296   -2.1131   -0.5708 C   0  0  0  0  0  0  0  0  0  0  0  0
   -1.5295   -1.1113   -0.3857 N   0  0  0  0  0  0  0  0  0  0  0  0
   -1.9129    0.1488   -0.0391 C   0  0  0  0  0  0  0  0  0  0  0  0
    2.4870   -0.4398    0.2066 C   0  0  0  0  0  0  0  0  0  0  0  0
    3.1148    0.3075   -0.8068 C   0  0  0  0  0  0  0  0  0  0  0  0
    4.4239    0.0093   -1.1980 C   0  0  0  0  0  0  0  0  0  0  0  0
    5.1185   -1.0355   -0.5841 C   0  0  0  0  0  0  0  0  0  0  0  0
    4.5053   -1.7849    0.4224 C   0  0  0  0  0  0  0  0  0  0  0  0
    3.1964   -1.4912    0.8177 C   0  0  0  0  0  0  0  0  0  0  0  0
   -0.6603    3.2688    0.5305 H   0  0  0  0  0  0  0  0  0  0  0  0
   -3.0650    3.7685    0.7879 H   0  0  0  0  0  0  0  0  0  0  0  0
   -4.7483    1.9845    0.5331 H   0  0  0  0  0  0  0  0  0  0  0  0
   -5.2874   -0.3925    0.0372 H   0  0  0  0  0  0  0  0  0  0  0  0
   -4.5126   -2.6641   -0.5592 H   0  0  0  0  0  0  0  0  0  0  0  0
   -2.0844   -3.1020   -0.8411 H   0  0  0  0  0  0  0  0  0  0  0  0
    2.5962    1.1213   -1.2978 H   0  0  0  0  0  0  0  0  0  0  0  0
    4.9000    0.5889   -1.9783 H   0  0  0  0  0  0  0  0  0  0  0  0
    6.1315   -1.2645   -0.8886 H   0  0  0  0  0  0  0  0  0  0  0  0
    5.0444   -2.5946    0.8970 H   0  0  0  0  0  0  0  0  0  0  0  0
    2.7412   -2.0864    1.5994 H   0  0  0  0  0  0  0  0  0  0  0  0
  1  2  2  0
  2  3  1  0
  3  4  1  0
  4  5  2  0
  5  6  1  0
  6  7  2  0
  7  8  1  0
  8  9  2  0
  9 10  1  0
 10 11  2  0
 11 12  1  0
 12 13  2  0
 13  4  1  0
 13  8  1  0
  2 14  1  0
 14 15  2  0
 15 16  1  0
 16 17  2  0
 17 18  1  0
 18 19  2  0
 19 14  1  0
  5 20  1  0
  6 21  1  0
  7 22  1  0
  9 23  1  0
 10 24  1  0
 11 25  1  0
 15 26  1  0
 16 27  1  0
 17 28  1  0
 18 29  1  0
 19 30  1  0
M  END
> <ID>
HT3090

> <Class>
0.0

> <Clusters>
30

> <Fold>
3

$$$$