
     RDKit          3D

 56 58  0  0  0  0  0  0  0  0999 V2000
    4.2241   -2.1152    0.4456 C   0  0  0  0  0  0  0  0  0  0  0  0
    3.6812   -0.8069    0.0035 N   0  0  0  0  0  0  0  0  0  0  0  0
    4.8325    0.0460   -0.3907 C   0  0  0  0  0  0  0  0  0  0  0  0
    2.7738   -1.0406   -1.1539 C   0  0  0  0  0  0  0  0  0  0  0  0
    1.9482    0.2052   -1.5434 C   0  0  0  0  0  0  0  0  0  0  0  0
    1.2301    0.7916   -0.3943 N   0  0  0  0  0  0  0  0  0  0  0  0
    0.0081    0.0404   -0.0113 C   0  0  0  0  0  0  0  0  0  0  0  0
   -1.2837    0.7708   -0.4918 C   0  0  0  0  0  0  0  0  0  0  0  0
   -1.0707    1.1895   -1.8230 O   0  0  0  0  0  0  0  0  0  0  0  0
   -2.5190   -0.2236   -0.4857 C   0  0  0  0  0  0  0  0  0  0  0  0
   -2.7143   -1.0315    0.8416 C   0  0  0  0  0  0  0  0  0  0  0  0
   -2.3513   -2.5173    0.7122 C   0  0  0  0  0  0  0  0  0  0  0  0
   -3.1759   -3.2186   -0.3826 C   0  0  0  0  0  0  0  0  0  0  0  0
   -3.5394   -2.2982   -1.5630 C   0  0  0  0  0  0  0  0  0  0  0  0
   -2.5299   -1.1588   -1.7307 C   0  0  0  0  0  0  0  0  0  0  0  0
   -1.4947    2.0395    0.3722 C   0  0  0  0  0  0  0  0  0  0  0  0
   -2.5521    2.1882    1.3023 C   0  0  0  0  0  0  0  0  0  0  0  0
   -2.6855    3.3573    2.0577 C   0  0  0  0  0  0  0  0  0  0  0  0
   -1.7841    4.4072    1.8948 C   0  0  0  0  0  0  0  0  0  0  0  0
   -0.7526    4.2973    0.9652 C   0  0  0  0  0  0  0  0  0  0  0  0
   -0.6132    3.1329    0.2063 C   0  0  0  0  0  0  0  0  0  0  0  0
    2.1404    1.0539    0.7354 C   0  0  0  0  0  0  0  0  0  0  0  0
    2.9333   -0.2026    1.1400 C   0  0  0  0  0  0  0  0  0  0  0  0
    4.9157   -1.9911    1.3095 H   0  0  0  0  0  0  0  0  0  0  0  0
    4.7863   -2.6145   -0.3757 H   0  0  0  0  0  0  0  0  0  0  0  0
    3.4107   -2.8059    0.7633 H   0  0  0  0  0  0  0  0  0  0  0  0
    4.5137    1.0392   -0.7633 H   0  0  0  0  0  0  0  0  0  0  0  0
    5.5157    0.2174    0.4711 H   0  0  0  0  0  0  0  0  0  0  0  0
    5.4241   -0.4328   -1.2030 H   0  0  0  0  0  0  0  0  0  0  0  0
    2.0661   -1.8696   -0.9291 H   0  0  0  0  0  0  0  0  0  0  0  0
    3.3555   -1.3686   -2.0454 H   0  0  0  0  0  0  0  0  0  0  0  0
    2.6088    0.9762   -1.9917 H   0  0  0  0  0  0  0  0  0  0  0  0
    1.2283   -0.0743   -2.3437 H   0  0  0  0  0  0  0  0  0  0  0  0
   -0.0449   -0.0986    1.0902 H   0  0  0  0  0  0  0  0  0  0  0  0
    0.0398   -0.9832   -0.4304 H   0  0  0  0  0  0  0  0  0  0  0  0
   -1.8716    1.7020   -2.1129 H   0  0  0  0  0  0  0  0  0  0  0  0
   -3.4290    0.4068   -0.6081 H   0  0  0  0  0  0  0  0  0  0  0  0
   -3.7850   -0.9751    1.1400 H   0  0  0  0  0  0  0  0  0  0  0  0
   -2.1405   -0.5946    1.6835 H   0  0  0  0  0  0  0  0  0  0  0  0
   -1.2703   -2.6194    0.4838 H   0  0  0  0  0  0  0  0  0  0  0  0
   -2.5270   -3.0254    1.6850 H   0  0  0  0  0  0  0  0  0  0  0  0
   -4.1149   -3.6156    0.0614 H   0  0  0  0  0  0  0  0  0  0  0  0
   -2.5958   -4.0894   -0.7587 H   0  0  0  0  0  0  0  0  0  0  0  0
   -3.5840   -2.8963   -2.4989 H   0  0  0  0  0  0  0  0  0  0  0  0
   -4.5495   -1.8627   -1.3964 H   0  0  0  0  0  0  0  0  0  0  0  0
   -1.5270   -1.5969   -1.9172 H   0  0  0  0  0  0  0  0  0  0  0  0
   -2.8076   -0.5748   -2.6352 H   0  0  0  0  0  0  0  0  0  0  0  0
   -3.2940    1.4247    1.4593 H   0  0  0  0  0  0  0  0  0  0  0  0
   -3.4963    3.4505    2.7690 H   0  0  0  0  0  0  0  0  0  0  0  0
   -1.8923    5.3110    2.4805 H   0  0  0  0  0  0  0  0  0  0  0  0
   -0.0623    5.1193    0.8254 H   0  0  0  0  0  0  0  0  0  0  0  0
    0.1812    3.0979   -0.5266 H   0  0  0  0  0  0  0  0  0  0  0  0
    1.5686    1.4286    1.6130 H   0  0  0  0  0  0  0  0  0  0  0  0
    2.8320    1.8784    0.4653 H   0  0  0  0  0  0  0  0  0  0  0  0
    2.2113   -0.9381    1.5630 H   0  0  0  0  0  0  0  0  0  0  0  0
    3.6285    0.0686    1.9668 H   0  0  0  0  0  0  0  0  0  0  0  0
  1  2  1  0
  2  3  1  0
  2  4  1  0
  4  5  1  0
  5  6  1  0
  6  7  1  0
  7  8  1  0
  8  9  1  0
  8 10  1  0
 10 11  1  0
 11 12  1  0
 12 13  1  0
 13 14  1  0
 14 15  1  0
 15 10  1  0
  8 16  1  0
 16 17  2  0
 17 18  1  0
 18 19  2  0
 19 20  1  0
 20 21  2  0
 21 16  1  0
  6 22  1  0
 22 23  1  0
 23  2  1  0
  1 24  1  0
  1 25  1  0
  1 26  1  0
  3 27  1  0
  3 28  1  0
  3 29  1  0
  4 30  1  0
  4 31  1  0
  5 32  1  0
  5 33  1  0
  7 34  1  0
  7 35  1  0
  9 36  1  0
 10 37  1  0
 11 38  1  0
 11 39  1  0
 12 40  1  0
 12 41  1  0
 13 42  1  0
 13 43  1  0
 14 44  1  0
 14 45  1  0
 15 46  1  0
 15 47  1  0
 17 48  1  0
 18 49  1  0
 19 50  1  0
 20 51  1  0
 21 52  1  0
 22 53  1  0
 22 54  1  0
 23 55  1  0
 23 56  1  0
M  CHG  1   2   1
M  END
> <ID>
HT3446

> <Class>
0.0

> <Clusters>
67

> <Fold>
3

$$$$