
     RDKit          3D

 30 29  0  0  0  0  0  0  0  0999 V2000
   -2.4913    1.6595   -1.9927 C   0  0  0  0  0  0  0  0  0  0  0  0
   -1.7807    1.7074   -0.6795 C   0  0  0  0  0  0  0  0  0  0  0  0
   -1.3013    2.7994   -0.2700 O   0  0  0  0  0  0  0  0  0  0  0  0
   -1.6492    0.5130    0.1052 N   0  0  0  0  0  0  0  0  0  0  0  0
   -0.9173    0.4892    1.3819 C   0  0  0  0  0  0  0  0  0  0  0  0
   -1.3026   -0.6938    2.2448 C   0  0  0  0  0  0  0  0  0  0  0  0
   -1.9514   -1.6297    1.8039 O   0  0  0  0  0  0  0  0  0  0  0  0
    0.6237    0.5829    1.1601 C   0  0  0  0  0  0  0  0  0  0  0  0
    1.2293    1.1261    2.3085 O   0  0  0  0  0  0  0  0  0  0  0  0
    1.3445   -0.7503    0.7658 C   0  0  0  0  0  0  0  0  0  0  0  0
    2.7413   -0.5730    0.7490 O   0  0  0  0  0  0  0  0  0  0  0  0
    0.8580   -1.4121   -0.5578 C   0  0  0  0  0  0  0  0  0  0  0  0
    1.4270   -2.6894   -0.7136 O   0  0  0  0  0  0  0  0  0  0  0  0
    1.0677   -0.5691   -1.8348 C   0  0  0  0  0  0  0  0  0  0  0  0
    2.4289   -0.3961   -2.1276 O   0  0  0  0  0  0  0  0  0  0  0  0
   -2.4999    2.6621   -2.4708 H   0  0  0  0  0  0  0  0  0  0  0  0
   -3.5382    1.3257   -1.8366 H   0  0  0  0  0  0  0  0  0  0  0  0
   -1.9758    0.9437   -2.6665 H   0  0  0  0  0  0  0  0  0  0  0  0
   -2.1596   -0.3341   -0.2315 H   0  0  0  0  0  0  0  0  0  0  0  0
   -1.2331    1.3883    1.9563 H   0  0  0  0  0  0  0  0  0  0  0  0
   -0.9857   -0.7181    3.2821 H   0  0  0  0  0  0  0  0  0  0  0  0
    0.8056    1.3189    0.3510 H   0  0  0  0  0  0  0  0  0  0  0  0
    1.1431    0.4604    3.0396 H   0  0  0  0  0  0  0  0  0  0  0  0
    1.1393   -1.4861    1.5730 H   0  0  0  0  0  0  0  0  0  0  0  0
    2.9414    0.2517    0.2354 H   0  0  0  0  0  0  0  0  0  0  0  0
   -0.2312   -1.5815   -0.4635 H   0  0  0  0  0  0  0  0  0  0  0  0
    2.4135   -2.5868   -0.7341 H   0  0  0  0  0  0  0  0  0  0  0  0
    0.5475   -1.0635   -2.6880 H   0  0  0  0  0  0  0  0  0  0  0  0
    0.5988    0.4276   -1.7238 H   0  0  0  0  0  0  0  0  0  0  0  0
    2.7076   -1.1723   -2.6801 H   0  0  0  0  0  0  0  0  0  0  0  0
  1  2  1  0
  2  3  2  0
  2  4  1  0
  4  5  1  0
  5  6  1  0
  6  7  2  0
  5  8  1  0
  8  9  1  0
  8 10  1  0
 10 11  1  0
 10 12  1  0
 12 13  1  0
 12 14  1  0
 14 15  1  0
  1 16  1  0
  1 17  1  0
  1 18  1  0
  4 19  1  0
  5 20  1  0
  6 21  1  0
  8 22  1  0
  9 23  1  0
 10 24  1  0
 11 25  1  0
 12 26  1  0
 13 27  1  0
 14 28  1  0
 14 29  1  0
 15 30  1  0
M  END
> <ID>
HT1448

> <Class>
0.0

> <Clusters>
174

> <Fold>
3

$$$$