
     RDKit          3D

 18 19  0  0  0  0  0  0  0  0999 V2000
    2.0459   -2.1408    0.0597 O   0  0  0  0  0  0  0  0  0  0  0  0
    1.4956   -0.8603   -0.0266 C   0  0  0  0  0  0  0  0  0  0  0  0
    2.3458    0.2392   -0.2000 C   0  0  0  0  0  0  0  0  0  0  0  0
    4.4403   -0.0225   -0.3313 I   0  0  0  0  0  0  0  0  0  0  0  0
    1.8189    1.5297   -0.2890 C   0  0  0  0  0  0  0  0  0  0  0  0
    0.4400    1.7476   -0.2072 C   0  0  0  0  0  0  0  0  0  0  0  0
   -0.2285    3.7588   -0.3575 I   0  0  0  0  0  0  0  0  0  0  0  0
   -0.4312    0.6507   -0.0325 C   0  0  0  0  0  0  0  0  0  0  0  0
   -1.8258    0.8082    0.0566 C   0  0  0  0  0  0  0  0  0  0  0  0
   -2.6477   -0.3059    0.2294 C   0  0  0  0  0  0  0  0  0  0  0  0
   -2.0767   -1.5745    0.3129 C   0  0  0  0  0  0  0  0  0  0  0  0
   -0.7295   -1.7217    0.2264 N   0  0  0  0  0  0  0  0  0  0  0  0
    0.1055   -0.6591    0.0578 C   0  0  0  0  0  0  0  0  0  0  0  0
    1.4774   -2.9696    0.1850 H   0  0  0  0  0  0  0  0  0  0  0  0
    2.4877    2.3701   -0.4230 H   0  0  0  0  0  0  0  0  0  0  0  0
   -2.2914    1.7815   -0.0055 H   0  0  0  0  0  0  0  0  0  0  0  0
   -3.7213   -0.1865    0.2981 H   0  0  0  0  0  0  0  0  0  0  0  0
   -2.7051   -2.4448    0.4468 H   0  0  0  0  0  0  0  0  0  0  0  0
  1  2  1  0
  2  3  2  0
  3  4  1  0
  3  5  1  0
  5  6  2  0
  6  7  1  0
  6  8  1  0
  8  9  2  0
  9 10  1  0
 10 11  2  0
 11 12  1  0
 12 13  2  0
 13  2  1  0
 13  8  1  0
  1 14  1  0
  5 15  1  0
  9 16  1  0
 10 17  1  0
 11 18  1  0
M  END
> <ID>
HT3749

> <Class>
0.0

> <Clusters>
53

> <Fold>
3

$$$$