
     RDKit          3D

 92 98  0  0  0  0  0  0  0  0999 V2000
    1.1232    4.6061    0.7579 C   0  0  0  0  0  0  0  0  0  0  0  0
    1.6922    3.6171   -0.0949 O   0  0  0  0  0  0  0  0  0  0  0  0
    0.9442    2.7030   -0.8556 C   0  0  0  0  0  0  0  0  0  0  0  0
   -0.4620    2.6695   -0.8174 C   0  0  0  0  0  0  0  0  0  0  0  0
   -1.1792    1.7715   -1.6301 C   0  0  0  0  0  0  0  0  0  0  0  0
   -2.6845    1.8694   -1.7101 C   0  0  0  0  0  0  0  0  0  0  0  0
   -3.3974    1.5123   -0.3591 C   0  0  0  0  0  0  0  0  0  0  0  0
   -3.8311    0.0590   -0.4311 C   0  0  0  0  0  0  0  0  0  0  0  0
   -5.0282   -0.2351   -1.1003 C   0  0  0  0  0  0  0  0  0  0  0  0
   -5.8868    0.8628   -1.6791 C   0  0  0  0  0  0  0  0  0  0  0  0
   -5.6071    2.2997   -1.1422 C   0  0  0  0  0  0  0  0  0  0  0  0
   -4.5883    2.3802   -0.0515 N   0  0  0  0  0  0  0  0  0  0  0  0
   -4.1763    3.8028    0.1388 C   0  0  0  0  0  0  0  0  0  0  0  0
   -5.2089    1.9655    1.2409 C   0  0  0  0  0  0  0  0  0  0  0  0
   -5.4389   -1.5661   -1.2369 C   0  0  0  0  0  0  0  0  0  0  0  0
   -4.7014   -2.6127   -0.6568 C   0  0  0  0  0  0  0  0  0  0  0  0
   -5.1071   -3.9473   -0.7998 O   0  0  0  0  0  0  0  0  0  0  0  0
   -6.2561   -4.3744   -1.5234 C   0  0  0  0  0  0  0  0  0  0  0  0
   -3.5322   -2.3120    0.0807 C   0  0  0  0  0  0  0  0  0  0  0  0
   -2.7774   -3.2981    0.7398 O   0  0  0  0  0  0  0  0  0  0  0  0
   -3.3068   -4.5028    1.2880 C   0  0  0  0  0  0  0  0  0  0  0  0
   -3.0959   -0.9752    0.1821 C   0  0  0  0  0  0  0  0  0  0  0  0
   -1.9739   -0.6575    0.9580 O   0  0  0  0  0  0  0  0  0  0  0  0
   -0.7290   -1.2817    0.8373 C   0  0  0  0  0  0  0  0  0  0  0  0
    0.1036   -1.3590    1.9582 C   0  0  0  0  0  0  0  0  0  0  0  0
    1.3687   -1.9442    1.8605 C   0  0  0  0  0  0  0  0  0  0  0  0
    1.8508   -2.3788    0.6072 C   0  0  0  0  0  0  0  0  0  0  0  0
    3.2838   -2.8368    0.4169 C   0  0  0  0  0  0  0  0  0  0  0  0
    4.3613   -1.9514    1.1122 C   0  0  0  0  0  0  0  0  0  0  0  0
    5.6237   -2.7518    1.2444 N   0  0  0  0  0  0  0  0  0  0  0  0
    5.5937   -3.5883    2.4574 C   0  0  0  0  0  0  0  0  0  0  0  0
    6.8961   -1.9788    1.1923 C   0  0  0  0  0  0  0  0  0  0  0  0
    6.7276   -0.5505    1.7072 C   0  0  0  0  0  0  0  0  0  0  0  0
    5.7357    0.1312    0.8212 C   0  0  0  0  0  0  0  0  0  0  0  0
    5.9884    1.4067    0.3025 C   0  0  0  0  0  0  0  0  0  0  0  0
    5.0773    2.0069   -0.5845 C   0  0  0  0  0  0  0  0  0  0  0  0
    5.2805    3.2954   -1.1007 O   0  0  0  0  0  0  0  0  0  0  0  0
    6.3791    4.1323   -0.7538 C   0  0  0  0  0  0  0  0  0  0  0  0
    3.9168    1.3149   -0.9538 C   0  0  0  0  0  0  0  0  0  0  0  0
    3.0177    1.9267   -1.8382 O   0  0  0  0  0  0  0  0  0  0  0  0
    1.6312    1.8235   -1.7104 C   0  0  0  0  0  0  0  0  0  0  0  0
    0.9238    0.8999   -2.4885 C   0  0  0  0  0  0  0  0  0  0  0  0
   -0.4734    0.8774   -2.4572 C   0  0  0  0  0  0  0  0  0  0  0  0
    3.6755    0.0273   -0.4468 C   0  0  0  0  0  0  0  0  0  0  0  0
    4.5850   -0.5820    0.4477 C   0  0  0  0  0  0  0  0  0  0  0  0
    0.9880   -2.3437   -0.5052 C   0  0  0  0  0  0  0  0  0  0  0  0
   -0.2951   -1.8091   -0.3891 C   0  0  0  0  0  0  0  0  0  0  0  0
    0.5279    4.1225    1.5629 H   0  0  0  0  0  0  0  0  0  0  0  0
    1.9443    5.1927    1.2199 H   0  0  0  0  0  0  0  0  0  0  0  0
    0.4776    5.2940    0.1686 H   0  0  0  0  0  0  0  0  0  0  0  0
   -1.0116    3.3643   -0.1915 H   0  0  0  0  0  0  0  0  0  0  0  0
   -3.0610    1.2215   -2.5324 H   0  0  0  0  0  0  0  0  0  0  0  0
   -2.9124    2.8919   -2.0643 H   0  0  0  0  0  0  0  0  0  0  0  0
   -2.6600    1.6273    0.4688 H   0  0  0  0  0  0  0  0  0  0  0  0
   -6.9563    0.6161   -1.4726 H   0  0  0  0  0  0  0  0  0  0  0  0
   -5.7641    0.8598   -2.7871 H   0  0  0  0  0  0  0  0  0  0  0  0
   -6.5722    2.7334   -0.7917 H   0  0  0  0  0  0  0  0  0  0  0  0
   -5.3096    2.9395   -2.0050 H   0  0  0  0  0  0  0  0  0  0  0  0
   -5.0342    4.4255    0.4743 H   0  0  0  0  0  0  0  0  0  0  0  0
   -3.3768    3.8861    0.9062 H   0  0  0  0  0  0  0  0  0  0  0  0
   -3.8102    4.2864   -0.7834 H   0  0  0  0  0  0  0  0  0  0  0  0
   -6.0041    2.6753    1.5604 H   0  0  0  0  0  0  0  0  0  0  0  0
   -4.4470    1.9286    2.0504 H   0  0  0  0  0  0  0  0  0  0  0  0
   -5.6917    0.9659    1.1772 H   0  0  0  0  0  0  0  0  0  0  0  0
   -6.3439   -1.7728   -1.7895 H   0  0  0  0  0  0  0  0  0  0  0  0
   -6.3096   -5.4847   -1.4881 H   0  0  0  0  0  0  0  0  0  0  0  0
   -7.1768   -3.9550   -1.0596 H   0  0  0  0  0  0  0  0  0  0  0  0
   -6.1745   -4.0583   -2.5852 H   0  0  0  0  0  0  0  0  0  0  0  0
   -4.2504   -4.2955    1.8427 H   0  0  0  0  0  0  0  0  0  0  0  0
   -2.5587   -4.9183    1.9927 H   0  0  0  0  0  0  0  0  0  0  0  0
   -3.4701   -5.2533    0.4789 H   0  0  0  0  0  0  0  0  0  0  0  0
   -0.2318   -0.9579    2.9051 H   0  0  0  0  0  0  0  0  0  0  0  0
    1.9683   -2.0154    2.7531 H   0  0  0  0  0  0  0  0  0  0  0  0
    3.5328   -2.8824   -0.6646 H   0  0  0  0  0  0  0  0  0  0  0  0
    3.3366   -3.8765    0.7795 H   0  0  0  0  0  0  0  0  0  0  0  0
    4.0183   -1.6844    2.1297 H   0  0  0  0  0  0  0  0  0  0  0  0
    5.5915   -2.9604    3.3796 H   0  0  0  0  0  0  0  0  0  0  0  0
    4.6953   -4.2449    2.4654 H   0  0  0  0  0  0  0  0  0  0  0  0
    6.4789   -4.2564    2.4859 H   0  0  0  0  0  0  0  0  0  0  0  0
    7.2481   -1.9484    0.1359 H   0  0  0  0  0  0  0  0  0  0  0  0
    7.7124   -2.4683    1.7678 H   0  0  0  0  0  0  0  0  0  0  0  0
    7.7076   -0.0257    1.6961 H   0  0  0  0  0  0  0  0  0  0  0  0
    6.3373   -0.5619    2.7487 H   0  0  0  0  0  0  0  0  0  0  0  0
    6.8892    1.9264    0.5997 H   0  0  0  0  0  0  0  0  0  0  0  0
    6.2749    5.1015   -1.2796 H   0  0  0  0  0  0  0  0  0  0  0  0
    6.3817    4.3154    0.3407 H   0  0  0  0  0  0  0  0  0  0  0  0
    7.3318    3.6540   -1.0642 H   0  0  0  0  0  0  0  0  0  0  0  0
    1.4604    0.2227   -3.1429 H   0  0  0  0  0  0  0  0  0  0  0  0
   -1.0053    0.1781   -3.0918 H   0  0  0  0  0  0  0  0  0  0  0  0
    2.7963   -0.4852   -0.7863 H   0  0  0  0  0  0  0  0  0  0  0  0
    1.3267   -2.6786   -1.4791 H   0  0  0  0  0  0  0  0  0  0  0  0
   -0.9363   -1.7689   -1.2641 H   0  0  0  0  0  0  0  0  0  0  0  0
  1  2  1  0
  2  3  1  0
  3  4  2  0
  4  5  1  0
  5  6  1  0
  6  7  1  0
  7  8  1  0
  8  9  2  0
  9 10  1  0
 10 11  1  0
 11 12  1  0
 12  7  1  0
 12 13  1  0
 12 14  1  0
  9 15  1  0
 15 16  2  0
 16 17  1  0
 17 18  1  0
 16 19  1  0
 19 20  1  0
 20 21  1  0
 19 22  2  0
 22  8  1  0
 22 23  1  0
 23 24  1  0
 24 25  2  0
 25 26  1  0
 26 27  2  0
 27 28  1  0
 28 29  1  0
 29 30  1  0
 30 31  1  0
 30 32  1  0
 32 33  1  0
 33 34  1  0
 34 35  2  0
 35 36  1  0
 36 37  1  0
 37 38  1  0
 36 39  2  0
 39 40  1  0
 40 41  1  0
 41  3  1  0
 41 42  2  0
 42 43  1  0
 43  5  2  0
 39 44  1  0
 44 45  2  0
 45 29  1  0
 45 34  1  0
 27 46  1  0
 46 47  2  0
 47 24  1  0
  1 48  1  0
  1 49  1  0
  1 50  1  0
  4 51  1  0
  6 52  1  0
  6 53  1  0
  7 54  1  0
 10 55  1  0
 10 56  1  0
 11 57  1  0
 11 58  1  0
 13 59  1  0
 13 60  1  0
 13 61  1  0
 14 62  1  0
 14 63  1  0
 14 64  1  0
 15 65  1  0
 18 66  1  0
 18 67  1  0
 18 68  1  0
 21 69  1  0
 21 70  1  0
 21 71  1  0
 25 72  1  0
 26 73  1  0
 28 74  1  0
 28 75  1  0
 29 76  1  0
 31 77  1  0
 31 78  1  0
 31 79  1  0
 32 80  1  0
 32 81  1  0
 33 82  1  0
 33 83  1  0
 35 84  1  0
 38 85  1  0
 38 86  1  0
 38 87  1  0
 42 88  1  0
 43 89  1  0
 44 90  1  0
 46 91  1  0
 47 92  1  0
M  CHG  1  12   1
M  END
> <ID>
HT3969

> <Class>
0.0

> <Clusters>
279

> <Fold>
3

$$$$