
     RDKit          3D

 42 43  0  0  0  0  0  0  0  0999 V2000
   -4.1498    3.9949    0.5598 O   0  0  0  0  0  0  0  0  0  0  0  0
   -3.4270    2.7953    0.5250 C   0  0  0  0  0  0  0  0  0  0  0  0
   -4.3297    1.6517    0.0619 C   0  0  0  0  0  0  0  0  0  0  0  0
   -3.5656    0.4077   -0.1230 N   0  0  0  0  0  0  0  0  0  0  0  0
   -3.1862   -0.3769    1.0642 C   0  0  0  0  0  0  0  0  0  0  0  0
   -1.7211   -0.7407    1.0505 C   0  0  0  0  0  0  0  0  0  0  0  0
   -0.7400    0.2620    1.0093 C   0  0  0  0  0  0  0  0  0  0  0  0
    0.6156   -0.0750    1.0334 C   0  0  0  0  0  0  0  0  0  0  0  0
    1.0126   -1.4219    1.0996 C   0  0  0  0  0  0  0  0  0  0  0  0
    2.3639   -1.7934    1.1601 O   0  0  0  0  0  0  0  0  0  0  0  0
    3.4235   -1.1024    0.5558 C   0  0  0  0  0  0  0  0  0  0  0  0
    3.2598   -0.3857   -0.6431 C   0  0  0  0  0  0  0  0  0  0  0  0
    4.3444    0.2845   -1.2144 C   0  0  0  0  0  0  0  0  0  0  0  0
    5.6126    0.2380   -0.6097 C   0  0  0  0  0  0  0  0  0  0  0  0
    5.7727   -0.5003    0.5765 C   0  0  0  0  0  0  0  0  0  0  0  0
    4.6895   -1.1716    1.1459 C   0  0  0  0  0  0  0  0  0  0  0  0
    6.7325    0.9173   -1.2082 N   0  0  0  0  0  0  0  0  0  0  0  0
    7.8843    0.7825   -0.7400 O   0  0  0  0  0  0  0  0  0  0  0  0
    6.5648    1.6691   -2.3473 O   0  0  0  0  0  0  0  0  0  0  0  0
    0.0356   -2.4187    1.1631 C   0  0  0  0  0  0  0  0  0  0  0  0
   -1.3215   -2.0847    1.1345 C   0  0  0  0  0  0  0  0  0  0  0  0
   -3.3338   -0.0771   -1.4700 C   0  0  0  0  0  0  0  0  0  0  0  0
   -3.2070    0.7522   -2.4123 O   0  0  0  0  0  0  0  0  0  0  0  0
   -3.2746   -1.5461   -1.7936 C   0  0  0  0  0  0  0  0  0  0  0  0
   -1.7436   -1.9256   -2.6235 Cl  0  0  0  0  0  0  0  0  0  0  0  0
   -4.6436   -1.9804   -2.8451 Cl  0  0  0  0  0  0  0  0  0  0  0  0
   -4.2005    4.3203   -0.3777 H   0  0  0  0  0  0  0  0  0  0  0  0
   -3.0529    2.5813    1.5489 H   0  0  0  0  0  0  0  0  0  0  0  0
   -2.5452    2.8951   -0.1457 H   0  0  0  0  0  0  0  0  0  0  0  0
   -4.8329    1.9462   -0.8867 H   0  0  0  0  0  0  0  0  0  0  0  0
   -5.1354    1.4871    0.8109 H   0  0  0  0  0  0  0  0  0  0  0  0
   -3.3870    0.2018    1.9917 H   0  0  0  0  0  0  0  0  0  0  0  0
   -3.8277   -1.2812    1.1269 H   0  0  0  0  0  0  0  0  0  0  0  0
   -1.0212    1.3048    0.9647 H   0  0  0  0  0  0  0  0  0  0  0  0
    1.3504    0.7161    1.0486 H   0  0  0  0  0  0  0  0  0  0  0  0
    2.3011   -0.3559   -1.1435 H   0  0  0  0  0  0  0  0  0  0  0  0
    4.1936    0.8360   -2.1317 H   0  0  0  0  0  0  0  0  0  0  0  0
    6.7376   -0.5611    1.0642 H   0  0  0  0  0  0  0  0  0  0  0  0
    4.8230   -1.7332    2.0582 H   0  0  0  0  0  0  0  0  0  0  0  0
    0.3289   -3.4567    1.2301 H   0  0  0  0  0  0  0  0  0  0  0  0
   -2.0575   -2.8768    1.1722 H   0  0  0  0  0  0  0  0  0  0  0  0
   -3.3427   -2.1785   -0.8927 H   0  0  0  0  0  0  0  0  0  0  0  0
  1  2  1  0
  2  3  1  0
  3  4  1  0
  4  5  1  0
  5  6  1  0
  6  7  2  0
  7  8  1  0
  8  9  2  0
  9 10  1  0
 10 11  1  0
 11 12  2  0
 12 13  1  0
 13 14  2  0
 14 15  1  0
 15 16  2  0
 16 11  1  0
 14 17  1  0
 17 18  2  0
 17 19  1  0
  9 20  1  0
 20 21  2  0
 21  6  1  0
  4 22  1  0
 22 23  2  0
 22 24  1  0
 24 25  1  0
 24 26  1  0
  1 27  1  0
  2 28  1  0
  2 29  1  0
  3 30  1  0
  3 31  1  0
  5 32  1  0
  5 33  1  0
  7 34  1  0
  8 35  1  0
 12 36  1  0
 13 37  1  0
 15 38  1  0
 16 39  1  0
 20 40  1  0
 21 41  1  0
 24 42  1  0
M  CHG  2  17   1  19  -1
M  END
> <ID>
HT3753

> <Class>
0.0

> <Clusters>
49

> <Fold>
3

$$$$