
     RDKit          3D

 30 31  0  0  0  0  0  0  0  0999 V2000
    4.8057   -0.2729    0.2280 C   0  0  0  0  0  0  0  0  0  0  0  0
    3.7046   -0.6298   -0.7613 C   0  0  0  0  0  0  0  0  0  0  0  0
    3.1355    0.5600   -1.3280 O   0  0  0  0  0  0  0  0  0  0  0  0
    1.7935    0.5883   -0.9991 C   0  0  0  0  0  0  0  0  0  0  0  0
    0.8433    1.5442   -1.3280 C   0  0  0  0  0  0  0  0  0  0  0  0
   -0.4729    1.3524   -0.8710 C   0  0  0  0  0  0  0  0  0  0  0  0
   -0.8244    0.2069   -0.0898 C   0  0  0  0  0  0  0  0  0  0  0  0
    0.1976   -0.7347    0.2121 C   0  0  0  0  0  0  0  0  0  0  0  0
    1.4842   -0.5034   -0.2613 C   0  0  0  0  0  0  0  0  0  0  0  0
    2.6157   -1.2776   -0.0865 O   0  0  0  0  0  0  0  0  0  0  0  0
   -2.2552   -0.0383    0.4298 C   0  0  0  0  0  0  0  0  0  0  0  0
   -2.2377   -0.1038    1.9724 C   0  0  0  0  0  0  0  0  0  0  0  0
   -3.2489    1.0739    0.0172 C   0  0  0  0  0  0  0  0  0  0  0  0
   -2.7852   -1.3744   -0.1340 C   0  0  0  0  0  0  0  0  0  0  0  0
    4.4026    0.3824    1.0292 H   0  0  0  0  0  0  0  0  0  0  0  0
    5.2131   -1.1983    0.6868 H   0  0  0  0  0  0  0  0  0  0  0  0
    5.6256    0.2598   -0.2982 H   0  0  0  0  0  0  0  0  0  0  0  0
    4.0999   -1.2855   -1.5664 H   0  0  0  0  0  0  0  0  0  0  0  0
    1.1089    2.4112   -1.9185 H   0  0  0  0  0  0  0  0  0  0  0  0
   -1.1981    2.1065   -1.1368 H   0  0  0  0  0  0  0  0  0  0  0  0
    0.0038   -1.6226    0.7979 H   0  0  0  0  0  0  0  0  0  0  0  0
   -1.8191    0.8356    2.3943 H   0  0  0  0  0  0  0  0  0  0  0  0
   -3.2659   -0.2391    2.3731 H   0  0  0  0  0  0  0  0  0  0  0  0
   -1.6243   -0.9537    2.3379 H   0  0  0  0  0  0  0  0  0  0  0  0
   -2.9345    2.0581    0.4269 H   0  0  0  0  0  0  0  0  0  0  0  0
   -3.3280    1.1439   -1.0893 H   0  0  0  0  0  0  0  0  0  0  0  0
   -4.2664    0.8591    0.4108 H   0  0  0  0  0  0  0  0  0  0  0  0
   -3.8322   -1.5534    0.1941 H   0  0  0  0  0  0  0  0  0  0  0  0
   -2.7649   -1.3600   -1.2453 H   0  0  0  0  0  0  0  0  0  0  0  0
   -2.1763   -2.2347    0.2146 H   0  0  0  0  0  0  0  0  0  0  0  0
  1  2  1  0
  2  3  1  0
  3  4  1  0
  4  5  2  0
  5  6  1  0
  6  7  2  0
  7  8  1  0
  8  9  2  0
  9  4  1  0
  9 10  1  0
 10  2  1  0
  7 11  1  0
 11 12  1  0
 11 13  1  0
 11 14  1  0
  1 15  1  0
  1 16  1  0
  1 17  1  0
  2 18  1  0
  5 19  1  0
  6 20  1  0
  8 21  1  0
 12 22  1  0
 12 23  1  0
 12 24  1  0
 13 25  1  0
 13 26  1  0
 13 27  1  0
 14 28  1  0
 14 29  1  0
 14 30  1  0
M  END
> <ID>
HT1859

> <Class>
0.0

> <Clusters>
254

> <Fold>
3

$$$$