
     RDKit          3D

 21 22  0  0  0  0  0  0  0  0999 V2000
   -3.0809   -1.3749    0.4748 C   0  0  0  0  0  0  0  0  0  0  0  0
   -1.8759   -0.5479    0.1581 C   0  0  0  0  0  0  0  0  0  0  0  0
   -2.0187    0.7164   -0.4216 C   0  0  0  0  0  0  0  0  0  0  0  0
   -0.8834    1.4741   -0.7103 C   0  0  0  0  0  0  0  0  0  0  0  0
    0.3963    0.9691   -0.4200 C   0  0  0  0  0  0  0  0  0  0  0  0
    1.5713    1.7005   -0.6949 C   0  0  0  0  0  0  0  0  0  0  0  0
    1.5326    3.3046   -1.4236 Cl  0  0  0  0  0  0  0  0  0  0  0  0
    2.8192    1.1502   -0.3856 C   0  0  0  0  0  0  0  0  0  0  0  0
    2.9160   -0.1177    0.1935 C   0  0  0  0  0  0  0  0  0  0  0  0
    4.5035   -0.7723    0.5664 Cl  0  0  0  0  0  0  0  0  0  0  0  0
    1.7592   -0.8573    0.4730 C   0  0  0  0  0  0  0  0  0  0  0  0
    1.8817   -2.1224    1.0520 O   0  0  0  0  0  0  0  0  0  0  0  0
    0.4964   -0.3168    0.1674 C   0  0  0  0  0  0  0  0  0  0  0  0
   -0.6340   -1.0270    0.4348 N   0  0  0  0  0  0  0  0  0  0  0  0
   -3.7310   -0.8312    1.1922 H   0  0  0  0  0  0  0  0  0  0  0  0
   -3.6517   -1.5779   -0.4557 H   0  0  0  0  0  0  0  0  0  0  0  0
   -2.7815   -2.3437    0.9282 H   0  0  0  0  0  0  0  0  0  0  0  0
   -3.0017    1.1112   -0.6478 H   0  0  0  0  0  0  0  0  0  0  0  0
   -1.0170    2.4495   -1.1587 H   0  0  0  0  0  0  0  0  0  0  0  0
    3.7209    1.7118   -0.5966 H   0  0  0  0  0  0  0  0  0  0  0  0
    1.0789   -2.6984    1.2744 H   0  0  0  0  0  0  0  0  0  0  0  0
  1  2  1  0
  2  3  2  0
  3  4  1  0
  4  5  2  0
  5  6  1  0
  6  7  1  0
  6  8  2  0
  8  9  1  0
  9 10  1  0
  9 11  2  0
 11 12  1  0
 11 13  1  0
 13  5  1  0
 13 14  2  0
 14  2  1  0
  1 15  1  0
  1 16  1  0
  1 17  1  0
  3 18  1  0
  4 19  1  0
  8 20  1  0
 12 21  1  0
M  END
> <ID>
HT2989

> <Class>
0.0

> <Clusters>
53

> <Fold>
3

$$$$