
     RDKit          3D

 76 78  0  0  0  0  0  0  0  0999 V2000
   -5.0328    4.6285    1.9172 C   0  0  0  0  0  0  0  0  0  0  0  0
   -3.6321    4.9097    1.4912 C   0  0  0  0  0  0  0  0  0  0  0  0
   -3.1311    6.0423    1.7275 O   0  0  0  0  0  0  0  0  0  0  0  0
   -2.8788    3.8922    0.8884 O   0  0  0  0  0  0  0  0  0  0  0  0
   -1.6304    4.0627    0.2701 C   0  0  0  0  0  0  0  0  0  0  0  0
   -1.3328    5.2398   -0.4428 C   0  0  0  0  0  0  0  0  0  0  0  0
   -0.0909    5.4021   -1.0578 C   0  0  0  0  0  0  0  0  0  0  0  0
    0.8643    4.3908   -0.9795 C   0  0  0  0  0  0  0  0  0  0  0  0
    0.5791    3.2094   -0.2939 C   0  0  0  0  0  0  0  0  0  0  0  0
   -0.6686    3.0244    0.3321 C   0  0  0  0  0  0  0  0  0  0  0  0
   -0.9367    1.7466    1.0404 C   0  0  0  0  0  0  0  0  0  0  0  0
   -2.0836    1.4945    1.5014 O   0  0  0  0  0  0  0  0  0  0  0  0
    0.0979    0.8157    1.1971 O   0  0  0  0  0  0  0  0  0  0  0  0
   -0.0971   -0.5351    1.6169 C   0  0  0  0  0  0  0  0  0  0  0  0
    1.0552   -0.9385    2.5414 C   0  0  0  0  0  0  0  0  0  0  0  0
    2.3031   -0.6138    1.9297 O   0  0  0  0  0  0  0  0  0  0  0  0
    3.2996   -1.5478    1.6230 C   0  0  0  0  0  0  0  0  0  0  0  0
    3.1974   -2.7452    2.0073 O   0  0  0  0  0  0  0  0  0  0  0  0
    4.5123   -1.1008    0.8451 C   0  0  0  0  0  0  0  0  0  0  0  0
    5.3218   -0.1249    1.7143 C   0  0  0  0  0  0  0  0  0  0  0  0
    4.0474   -0.3998   -0.4444 C   0  0  0  0  0  0  0  0  0  0  0  0
    5.3031   -2.2566    0.5248 O   0  0  0  0  0  0  0  0  0  0  0  0
    6.5064   -2.2111   -0.1872 C   0  0  0  0  0  0  0  0  0  0  0  0
    6.5037   -2.3149   -1.5848 C   0  0  0  0  0  0  0  0  0  0  0  0
    7.7094   -2.2841   -2.2933 C   0  0  0  0  0  0  0  0  0  0  0  0
    8.9229   -2.1612   -1.6057 C   0  0  0  0  0  0  0  0  0  0  0  0
   10.4352   -2.1222   -2.4937 Cl  0  0  0  0  0  0  0  0  0  0  0  0
    8.9284   -2.0692   -0.2092 C   0  0  0  0  0  0  0  0  0  0  0  0
    7.7229   -2.0995    0.4986 C   0  0  0  0  0  0  0  0  0  0  0  0
   -0.1589   -1.4576    0.3868 C   0  0  0  0  0  0  0  0  0  0  0  0
   -1.1135   -0.9971   -0.5690 O   0  0  0  0  0  0  0  0  0  0  0  0
   -2.5006   -1.0548   -0.3814 C   0  0  0  0  0  0  0  0  0  0  0  0
   -2.9750   -1.5315    0.6856 O   0  0  0  0  0  0  0  0  0  0  0  0
   -3.4148   -0.5682   -1.4874 C   0  0  0  0  0  0  0  0  0  0  0  0
   -3.0267    0.8721   -1.8516 C   0  0  0  0  0  0  0  0  0  0  0  0
   -3.2291   -1.4614   -2.7259 C   0  0  0  0  0  0  0  0  0  0  0  0
   -4.7902   -0.5338   -1.0621 O   0  0  0  0  0  0  0  0  0  0  0  0
   -5.5601   -1.6350   -0.6561 C   0  0  0  0  0  0  0  0  0  0  0  0
   -5.9812   -2.6170   -1.5685 C   0  0  0  0  0  0  0  0  0  0  0  0
   -6.7666   -3.6906   -1.1342 C   0  0  0  0  0  0  0  0  0  0  0  0
   -7.1507   -3.7821    0.2077 C   0  0  0  0  0  0  0  0  0  0  0  0
   -8.1373   -5.1272    0.7504 Cl  0  0  0  0  0  0  0  0  0  0  0  0
   -6.7595   -2.7904    1.1128 C   0  0  0  0  0  0  0  0  0  0  0  0
   -5.9753   -1.7168    0.6799 C   0  0  0  0  0  0  0  0  0  0  0  0
   -5.1130    4.7259    3.0210 H   0  0  0  0  0  0  0  0  0  0  0  0
   -5.3226    3.5973    1.6220 H   0  0  0  0  0  0  0  0  0  0  0  0
   -5.7238    5.3518    1.4339 H   0  0  0  0  0  0  0  0  0  0  0  0
   -2.0701    6.0244   -0.5480 H   0  0  0  0  0  0  0  0  0  0  0  0
    0.1287    6.3110   -1.6040 H   0  0  0  0  0  0  0  0  0  0  0  0
    1.8259    4.5183   -1.4597 H   0  0  0  0  0  0  0  0  0  0  0  0
    1.3371    2.4363   -0.2624 H   0  0  0  0  0  0  0  0  0  0  0  0
   -1.0378   -0.6353    2.2013 H   0  0  0  0  0  0  0  0  0  0  0  0
    0.9800   -2.0192    2.7907 H   0  0  0  0  0  0  0  0  0  0  0  0
    0.9737   -0.3703    3.4929 H   0  0  0  0  0  0  0  0  0  0  0  0
    6.1966    0.2676    1.1516 H   0  0  0  0  0  0  0  0  0  0  0  0
    5.6903   -0.6390    2.6282 H   0  0  0  0  0  0  0  0  0  0  0  0
    4.6970    0.7411    2.0227 H   0  0  0  0  0  0  0  0  0  0  0  0
    4.9170   -0.0187   -1.0221 H   0  0  0  0  0  0  0  0  0  0  0  0
    3.4818   -1.1102   -1.0840 H   0  0  0  0  0  0  0  0  0  0  0  0
    3.3899    0.4669   -0.2118 H   0  0  0  0  0  0  0  0  0  0  0  0
    5.5681   -2.4182   -2.1204 H   0  0  0  0  0  0  0  0  0  0  0  0
    7.7006   -2.3607   -3.3734 H   0  0  0  0  0  0  0  0  0  0  0  0
    9.8641   -1.9804    0.3295 H   0  0  0  0  0  0  0  0  0  0  0  0
    7.7338   -2.0376    1.5798 H   0  0  0  0  0  0  0  0  0  0  0  0
    0.8342   -1.4740   -0.1106 H   0  0  0  0  0  0  0  0  0  0  0  0
   -0.4045   -2.4978    0.6926 H   0  0  0  0  0  0  0  0  0  0  0  0
   -3.6569    1.2395   -2.6887 H   0  0  0  0  0  0  0  0  0  0  0  0
   -1.9610    0.9411   -2.1600 H   0  0  0  0  0  0  0  0  0  0  0  0
   -3.1911    1.5439   -0.9825 H   0  0  0  0  0  0  0  0  0  0  0  0
   -2.2022   -1.3508   -3.1392 H   0  0  0  0  0  0  0  0  0  0  0  0
   -3.9557   -1.1822   -3.5183 H   0  0  0  0  0  0  0  0  0  0  0  0
   -3.3678   -2.5312   -2.4630 H   0  0  0  0  0  0  0  0  0  0  0  0
   -5.7348   -2.5408   -2.6179 H   0  0  0  0  0  0  0  0  0  0  0  0
   -7.0864   -4.4437   -1.8430 H   0  0  0  0  0  0  0  0  0  0  0  0
   -7.0655   -2.8476    2.1495 H   0  0  0  0  0  0  0  0  0  0  0  0
   -5.6813   -0.9501    1.3864 H   0  0  0  0  0  0  0  0  0  0  0  0
  1  2  1  0
  2  3  2  0
  2  4  1  0
  4  5  1  0
  5  6  2  0
  6  7  1  0
  7  8  2  0
  8  9  1  0
  9 10  2  0
 10  5  1  0
 10 11  1  0
 11 12  2  0
 11 13  1  0
 13 14  1  0
 14 15  1  0
 15 16  1  0
 16 17  1  0
 17 18  2  0
 17 19  1  0
 19 20  1  0
 19 21  1  0
 19 22  1  0
 22 23  1  0
 23 24  2  0
 24 25  1  0
 25 26  2  0
 26 27  1  0
 26 28  1  0
 28 29  2  0
 29 23  1  0
 14 30  1  0
 30 31  1  0
 31 32  1  0
 32 33  2  0
 32 34  1  0
 34 35  1  0
 34 36  1  0
 34 37  1  0
 37 38  1  0
 38 39  2  0
 39 40  1  0
 40 41  2  0
 41 42  1  0
 41 43  1  0
 43 44  2  0
 44 38  1  0
  1 45  1  0
  1 46  1  0
  1 47  1  0
  6 48  1  0
  7 49  1  0
  8 50  1  0
  9 51  1  0
 14 52  1  0
 15 53  1  0
 15 54  1  0
 20 55  1  0
 20 56  1  0
 20 57  1  0
 21 58  1  0
 21 59  1  0
 21 60  1  0
 24 61  1  0
 25 62  1  0
 28 63  1  0
 29 64  1  0
 30 65  1  0
 30 66  1  0
 35 67  1  0
 35 68  1  0
 35 69  1  0
 36 70  1  0
 36 71  1  0
 36 72  1  0
 39 73  1  0
 40 74  1  0
 43 75  1  0
 44 76  1  0
M  END
> <ID>
HT1860

> <Class>
0.0

> <Clusters>
216

> <Fold>
3

$$$$