
     RDKit          3D

 40 39  0  0  0  0  0  0  0  0999 V2000
   -5.2925   -1.8730   -0.1471 C   0  0  0  0  0  0  0  0  0  0  0  0
   -3.9825   -1.2269   -0.5711 C   0  0  0  0  0  0  0  0  0  0  0  0
   -3.6472   -0.2214    0.3544 O   0  0  0  0  0  0  0  0  0  0  0  0
   -2.1588    0.4692   -0.1121 P   0  0  0  0  0  0  0  0  0  0  0  0
   -1.8787    1.6606    0.7774 O   0  0  0  0  0  0  0  0  0  0  0  0
   -2.2077    0.9572   -1.7499 O   0  0  0  0  0  0  0  0  0  0  0  0
   -3.1216    2.0229   -1.9083 C   0  0  0  0  0  0  0  0  0  0  0  0
   -2.3674    3.3402   -2.0385 C   0  0  0  0  0  0  0  0  0  0  0  0
   -0.5982   -0.9421    0.1502 S   0  0  0  0  0  0  0  0  0  0  0  0
    0.6927    0.1639   -0.5171 C   0  0  0  0  0  0  0  0  0  0  0  0
    2.0772   -0.4834   -0.4072 C   0  0  0  0  0  0  0  0  0  0  0  0
    2.3864   -0.9347    0.9690 N   0  0  0  0  0  0  0  0  0  0  0  0
    3.3937   -2.0201    1.0605 C   0  0  0  0  0  0  0  0  0  0  0  0
    4.6013   -1.8528    0.1231 C   0  0  0  0  0  0  0  0  0  0  0  0
    2.5357    0.1314    1.9892 C   0  0  0  0  0  0  0  0  0  0  0  0
    3.8142    0.9625    1.8541 C   0  0  0  0  0  0  0  0  0  0  0  0
   -5.1885   -2.3143    0.8668 H   0  0  0  0  0  0  0  0  0  0  0  0
   -6.1029   -1.1130   -0.1348 H   0  0  0  0  0  0  0  0  0  0  0  0
   -5.5631   -2.6775   -0.8637 H   0  0  0  0  0  0  0  0  0  0  0  0
   -4.1243   -0.7995   -1.5886 H   0  0  0  0  0  0  0  0  0  0  0  0
   -3.2035   -2.0227   -0.5993 H   0  0  0  0  0  0  0  0  0  0  0  0
   -3.6809    1.8530   -2.8516 H   0  0  0  0  0  0  0  0  0  0  0  0
   -3.8907    2.1024   -1.1050 H   0  0  0  0  0  0  0  0  0  0  0  0
   -1.6617    3.2886   -2.8940 H   0  0  0  0  0  0  0  0  0  0  0  0
   -1.7959    3.5524   -1.1115 H   0  0  0  0  0  0  0  0  0  0  0  0
   -3.0866    4.1679   -2.2148 H   0  0  0  0  0  0  0  0  0  0  0  0
    0.4786    0.3584   -1.5891 H   0  0  0  0  0  0  0  0  0  0  0  0
    0.6807    1.1421    0.0050 H   0  0  0  0  0  0  0  0  0  0  0  0
    2.8469    0.2241   -0.7788 H   0  0  0  0  0  0  0  0  0  0  0  0
    2.0722   -1.3591   -1.0929 H   0  0  0  0  0  0  0  0  0  0  0  0
    3.7632   -2.1232    2.1050 H   0  0  0  0  0  0  0  0  0  0  0  0
    2.8951   -2.9822    0.8142 H   0  0  0  0  0  0  0  0  0  0  0  0
    5.3868   -2.5874    0.4005 H   0  0  0  0  0  0  0  0  0  0  0  0
    5.0369   -0.8378    0.1862 H   0  0  0  0  0  0  0  0  0  0  0  0
    4.3113   -2.0537   -0.9293 H   0  0  0  0  0  0  0  0  0  0  0  0
    1.6612    0.8110    1.9679 H   0  0  0  0  0  0  0  0  0  0  0  0
    2.5197   -0.3278    3.0018 H   0  0  0  0  0  0  0  0  0  0  0  0
    3.7721    1.8122    2.5682 H   0  0  0  0  0  0  0  0  0  0  0  0
    4.7038    0.3531    2.1143 H   0  0  0  0  0  0  0  0  0  0  0  0
    3.9232    1.3798    0.8335 H   0  0  0  0  0  0  0  0  0  0  0  0
  1  2  1  0
  2  3  1  0
  3  4  1  0
  4  5  2  0
  4  6  1  0
  6  7  1  0
  7  8  1  0
  4  9  1  0
  9 10  1  0
 10 11  1  0
 11 12  1  0
 12 13  1  0
 13 14  1  0
 12 15  1  0
 15 16  1  0
  1 17  1  0
  1 18  1  0
  1 19  1  0
  2 20  1  0
  2 21  1  0
  7 22  1  0
  7 23  1  0
  8 24  1  0
  8 25  1  0
  8 26  1  0
 10 27  1  0
 10 28  1  0
 11 29  1  0
 11 30  1  0
 13 31  1  0
 13 32  1  0
 14 33  1  0
 14 34  1  0
 14 35  1  0
 15 36  1  0
 15 37  1  0
 16 38  1  0
 16 39  1  0
 16 40  1  0
M  END
> <ID>
HT3189

> <Class>
0.0

> <Clusters>
92

> <Fold>
3

$$$$