
     RDKit          3D

 46 46  0  0  0  0  0  0  0  0999 V2000
   -4.8963   -2.6367    1.3054 C   0  0  0  0  0  0  0  0  0  0  0  0
   -4.8398   -1.4388    0.5370 O   0  0  0  0  0  0  0  0  0  0  0  0
   -3.6954   -0.6441    0.3630 C   0  0  0  0  0  0  0  0  0  0  0  0
   -2.4725   -0.9977    0.9665 C   0  0  0  0  0  0  0  0  0  0  0  0
   -1.3281   -0.2048    0.8043 C   0  0  0  0  0  0  0  0  0  0  0  0
   -1.4038    0.9463    0.0097 C   0  0  0  0  0  0  0  0  0  0  0  0
   -2.6124    1.3181   -0.6039 C   0  0  0  0  0  0  0  0  0  0  0  0
   -2.7133    2.4687   -1.4038 O   0  0  0  0  0  0  0  0  0  0  0  0
   -1.6394    3.3638   -1.6755 C   0  0  0  0  0  0  0  0  0  0  0  0
   -3.7621    0.5310   -0.4289 C   0  0  0  0  0  0  0  0  0  0  0  0
   -4.9339    0.9742   -1.0728 O   0  0  0  0  0  0  0  0  0  0  0  0
   -6.2112    0.3472   -1.0387 C   0  0  0  0  0  0  0  0  0  0  0  0
   -0.0506   -0.6024    1.4430 C   0  0  0  0  0  0  0  0  0  0  0  0
    0.1503   -1.8148    1.7290 O   0  0  0  0  0  0  0  0  0  0  0  0
    0.9558    0.3752    1.7509 N   0  0  0  0  0  0  0  0  0  0  0  0
    2.3288    0.0057    2.0925 C   0  0  0  0  0  0  0  0  0  0  0  0
    3.0807   -0.5269    0.8660 C   0  0  0  0  0  0  0  0  0  0  0  0
    3.2332    0.5487   -0.2225 C   0  0  0  0  0  0  0  0  0  0  0  0
    3.8731    0.0037   -1.5125 C   0  0  0  0  0  0  0  0  0  0  0  0
    5.3448   -0.4128   -1.3571 C   0  0  0  0  0  0  0  0  0  0  0  0
    6.2199    0.7399   -0.9562 C   0  0  0  0  0  0  0  0  0  0  0  0
    6.3651    1.7183   -1.7357 O   0  0  0  0  0  0  0  0  0  0  0  0
    6.8791    0.7401    0.2699 O   0  0  0  0  0  0  0  0  0  0  0  0
   -4.6459   -2.4228    2.3659 H   0  0  0  0  0  0  0  0  0  0  0  0
   -5.9261   -3.0464    1.2606 H   0  0  0  0  0  0  0  0  0  0  0  0
   -4.1961   -3.3913    0.8892 H   0  0  0  0  0  0  0  0  0  0  0  0
   -2.4071   -1.8878    1.5771 H   0  0  0  0  0  0  0  0  0  0  0  0
   -0.5154    1.5398   -0.1520 H   0  0  0  0  0  0  0  0  0  0  0  0
   -1.2618    3.8060   -0.7293 H   0  0  0  0  0  0  0  0  0  0  0  0
   -2.0064    4.1823   -2.3279 H   0  0  0  0  0  0  0  0  0  0  0  0
   -0.8208    2.8297   -2.2028 H   0  0  0  0  0  0  0  0  0  0  0  0
   -6.1531   -0.6691   -1.4819 H   0  0  0  0  0  0  0  0  0  0  0  0
   -6.5928    0.3072    0.0031 H   0  0  0  0  0  0  0  0  0  0  0  0
   -6.9209    0.9476   -1.6438 H   0  0  0  0  0  0  0  0  0  0  0  0
    0.6974    1.3866    1.7893 H   0  0  0  0  0  0  0  0  0  0  0  0
    2.3198   -0.7667    2.8916 H   0  0  0  0  0  0  0  0  0  0  0  0
    2.8631    0.8945    2.4940 H   0  0  0  0  0  0  0  0  0  0  0  0
    2.5460   -1.4100    0.4544 H   0  0  0  0  0  0  0  0  0  0  0  0
    4.0846   -0.8601    1.2030 H   0  0  0  0  0  0  0  0  0  0  0  0
    3.8275    1.4018    0.1701 H   0  0  0  0  0  0  0  0  0  0  0  0
    2.2280    0.9413   -0.4893 H   0  0  0  0  0  0  0  0  0  0  0  0
    3.8017    0.7844   -2.3013 H   0  0  0  0  0  0  0  0  0  0  0  0
    3.2875   -0.8711   -1.8704 H   0  0  0  0  0  0  0  0  0  0  0  0
    5.4325   -1.2402   -0.6232 H   0  0  0  0  0  0  0  0  0  0  0  0
    5.7091   -0.8078   -2.3296 H   0  0  0  0  0  0  0  0  0  0  0  0
    6.7772   -0.0269    0.9235 H   0  0  0  0  0  0  0  0  0  0  0  0
  1  2  1  0
  2  3  1  0
  3  4  2  0
  4  5  1  0
  5  6  2  0
  6  7  1  0
  7  8  1  0
  8  9  1  0
  7 10  2  0
 10  3  1  0
 10 11  1  0
 11 12  1  0
  5 13  1  0
 13 14  2  0
 13 15  1  0
 15 16  1  0
 16 17  1  0
 17 18  1  0
 18 19  1  0
 19 20  1  0
 20 21  1  0
 21 22  2  0
 21 23  1  0
  1 24  1  0
  1 25  1  0
  1 26  1  0
  4 27  1  0
  6 28  1  0
  9 29  1  0
  9 30  1  0
  9 31  1  0
 12 32  1  0
 12 33  1  0
 12 34  1  0
 15 35  1  0
 16 36  1  0
 16 37  1  0
 17 38  1  0
 17 39  1  0
 18 40  1  0
 18 41  1  0
 19 42  1  0
 19 43  1  0
 20 44  1  0
 20 45  1  0
 23 46  1  0
M  END
> <ID>
HT3480

> <Class>
0.0

> <Clusters>
160

> <Fold>
3

$$$$