
     RDKit          3D

 46 48  0  0  0  0  0  0  0  0999 V2000
    2.8679   -0.1350    5.0519 C   0  0  0  0  0  0  0  0  0  0  0  0
    3.2301   -0.0372    3.6783 O   0  0  0  0  0  0  0  0  0  0  0  0
    2.4608    0.6084    2.6972 C   0  0  0  0  0  0  0  0  0  0  0  0
    1.2367    1.2335    2.9998 C   0  0  0  0  0  0  0  0  0  0  0  0
    0.4970    1.8621    1.9972 C   0  0  0  0  0  0  0  0  0  0  0  0
    0.9569    1.8675    0.6728 C   0  0  0  0  0  0  0  0  0  0  0  0
    0.1572    2.5492   -0.4112 C   0  0  0  0  0  0  0  0  0  0  0  0
   -0.1454    1.6083   -1.5539 C   0  0  0  0  0  0  0  0  0  0  0  0
    0.5124    1.8115   -2.7290 N   0  0  0  0  0  0  0  0  0  0  0  0
    0.3414    1.0108   -3.8107 C   0  0  0  0  0  0  0  0  0  0  0  0
   -0.5290   -0.0734   -3.7479 C   0  0  0  0  0  0  0  0  0  0  0  0
   -1.2326   -0.3259   -2.5641 C   0  0  0  0  0  0  0  0  0  0  0  0
   -2.1114   -1.4154   -2.4878 C   0  0  0  0  0  0  0  0  0  0  0  0
   -2.8238   -1.6790   -1.3044 C   0  0  0  0  0  0  0  0  0  0  0  0
   -3.7066   -2.7653   -1.1923 O   0  0  0  0  0  0  0  0  0  0  0  0
   -3.9743   -3.7001   -2.2326 C   0  0  0  0  0  0  0  0  0  0  0  0
   -2.6593   -0.8405   -0.1936 C   0  0  0  0  0  0  0  0  0  0  0  0
   -3.3836   -1.1343    0.9734 O   0  0  0  0  0  0  0  0  0  0  0  0
   -3.2987   -0.3932    2.1868 C   0  0  0  0  0  0  0  0  0  0  0  0
   -1.7846    0.2595   -0.2706 C   0  0  0  0  0  0  0  0  0  0  0  0
   -1.0543    0.5225   -1.4453 C   0  0  0  0  0  0  0  0  0  0  0  0
    2.1877    1.2626    0.3721 C   0  0  0  0  0  0  0  0  0  0  0  0
    2.9398    0.6252    1.3781 C   0  0  0  0  0  0  0  0  0  0  0  0
    4.1661   -0.0022    1.1064 O   0  0  0  0  0  0  0  0  0  0  0  0
    4.7684   -0.0729   -0.1821 C   0  0  0  0  0  0  0  0  0  0  0  0
    3.6549   -0.6969    5.5952 H   0  0  0  0  0  0  0  0  0  0  0  0
    2.7829    0.8787    5.4975 H   0  0  0  0  0  0  0  0  0  0  0  0
    1.9059   -0.6801    5.1553 H   0  0  0  0  0  0  0  0  0  0  0  0
    0.8474    1.2401    4.0086 H   0  0  0  0  0  0  0  0  0  0  0  0
   -0.4400    2.3397    2.2558 H   0  0  0  0  0  0  0  0  0  0  0  0
   -0.7909    2.9776   -0.0202 H   0  0  0  0  0  0  0  0  0  0  0  0
    0.7552    3.4088   -0.7849 H   0  0  0  0  0  0  0  0  0  0  0  0
    0.8883    1.2148   -4.7215 H   0  0  0  0  0  0  0  0  0  0  0  0
   -0.6520   -0.7081   -4.6176 H   0  0  0  0  0  0  0  0  0  0  0  0
   -2.2350   -2.0559   -3.3517 H   0  0  0  0  0  0  0  0  0  0  0  0
   -4.4086   -3.1791   -3.1119 H   0  0  0  0  0  0  0  0  0  0  0  0
   -3.0409   -4.2275   -2.5218 H   0  0  0  0  0  0  0  0  0  0  0  0
   -4.7062   -4.4491   -1.8670 H   0  0  0  0  0  0  0  0  0  0  0  0
   -2.2571   -0.4089    2.5724 H   0  0  0  0  0  0  0  0  0  0  0  0
   -3.6292    0.6536    2.0191 H   0  0  0  0  0  0  0  0  0  0  0  0
   -3.9641   -0.8582    2.9426 H   0  0  0  0  0  0  0  0  0  0  0  0
   -1.6848    0.9064    0.5844 H   0  0  0  0  0  0  0  0  0  0  0  0
    2.5488    1.2886   -0.6472 H   0  0  0  0  0  0  0  0  0  0  0  0
    4.9809    0.9491   -0.5610 H   0  0  0  0  0  0  0  0  0  0  0  0
    4.1004   -0.6116   -0.8869 H   0  0  0  0  0  0  0  0  0  0  0  0
    5.7252   -0.6287   -0.1047 H   0  0  0  0  0  0  0  0  0  0  0  0
  1  2  1  0
  2  3  1  0
  3  4  2  0
  4  5  1  0
  5  6  2  0
  6  7  1  0
  7  8  1  0
  8  9  2  0
  9 10  1  0
 10 11  2  0
 11 12  1  0
 12 13  2  0
 13 14  1  0
 14 15  1  0
 15 16  1  0
 14 17  2  0
 17 18  1  0
 18 19  1  0
 17 20  1  0
 20 21  2  0
 21  8  1  0
 21 12  1  0
  6 22  1  0
 22 23  2  0
 23  3  1  0
 23 24  1  0
 24 25  1  0
  1 26  1  0
  1 27  1  0
  1 28  1  0
  4 29  1  0
  5 30  1  0
  7 31  1  0
  7 32  1  0
 10 33  1  0
 11 34  1  0
 13 35  1  0
 16 36  1  0
 16 37  1  0
 16 38  1  0
 19 39  1  0
 19 40  1  0
 19 41  1  0
 20 42  1  0
 22 43  1  0
 25 44  1  0
 25 45  1  0
 25 46  1  0
M  END
> <ID>
HT1587

> <Class>
0.0

> <Clusters>
271

> <Fold>
3

$$$$