
     RDKit          3D

 54 57  0  0  0  0  0  0  0  0999 V2000
    0.5746   -0.5570   -3.6531 C   0  0  0  0  0  0  0  0  0  0  0  0
   -0.1489   -0.5668   -2.4266 O   0  0  0  0  0  0  0  0  0  0  0  0
    0.4397   -0.5503   -1.1516 C   0  0  0  0  0  0  0  0  0  0  0  0
    1.8371   -0.5174   -0.9734 C   0  0  0  0  0  0  0  0  0  0  0  0
    2.3932   -0.5115    0.3195 C   0  0  0  0  0  0  0  0  0  0  0  0
    3.7860   -0.4816    0.5573 C   0  0  0  0  0  0  0  0  0  0  0  0
    4.7356   -0.5529   -0.5206 N   0  0  0  0  0  0  0  0  0  0  0  0
    6.0383    0.0575   -0.4688 C   0  0  0  0  0  0  0  0  0  0  0  0
    6.2656    1.2246    0.2858 C   0  0  0  0  0  0  0  0  0  0  0  0
    7.5335    1.8129    0.3147 C   0  0  0  0  0  0  0  0  0  0  0  0
    8.5837    1.2527   -0.4174 C   0  0  0  0  0  0  0  0  0  0  0  0
   10.3158    2.0582   -0.3746 Br  0  0  0  0  0  0  0  0  0  0  0  0
    8.3628    0.1075   -1.1875 C   0  0  0  0  0  0  0  0  0  0  0  0
    7.0963   -0.4864   -1.2197 C   0  0  0  0  0  0  0  0  0  0  0  0
    6.9072   -1.6028   -1.9670 F   0  0  0  0  0  0  0  0  0  0  0  0
    4.2391   -0.4444    1.8404 N   0  0  0  0  0  0  0  0  0  0  0  0
    3.3887   -0.4305    2.8971 C   0  0  0  0  0  0  0  0  0  0  0  0
    2.0489   -0.4667    2.6928 N   0  0  0  0  0  0  0  0  0  0  0  0
    1.5326   -0.5080    1.4378 C   0  0  0  0  0  0  0  0  0  0  0  0
    0.1473   -0.5405    1.2608 C   0  0  0  0  0  0  0  0  0  0  0  0
   -0.4061   -0.5654   -0.0325 C   0  0  0  0  0  0  0  0  0  0  0  0
   -1.7925   -0.6007   -0.2490 O   0  0  0  0  0  0  0  0  0  0  0  0
   -2.7754   -0.6118    0.7845 C   0  0  0  0  0  0  0  0  0  0  0  0
   -4.1815   -0.6450    0.1680 C   0  0  0  0  0  0  0  0  0  0  0  0
   -5.2471   -0.7816    1.2663 C   0  0  0  0  0  0  0  0  0  0  0  0
   -6.6605   -0.7543    0.6629 C   0  0  0  0  0  0  0  0  0  0  0  0
   -6.9046    0.4417   -0.1708 N   0  0  0  0  0  0  0  0  0  0  0  0
   -7.1006    1.6617    0.6300 C   0  0  0  0  0  0  0  0  0  0  0  0
   -5.8823    0.6109   -1.2249 C   0  0  0  0  0  0  0  0  0  0  0  0
   -4.4487    0.6164   -0.6703 C   0  0  0  0  0  0  0  0  0  0  0  0
    1.2263   -1.4537   -3.7195 H   0  0  0  0  0  0  0  0  0  0  0  0
    1.1853    0.3671   -3.7292 H   0  0  0  0  0  0  0  0  0  0  0  0
   -0.1440   -0.5770   -4.4977 H   0  0  0  0  0  0  0  0  0  0  0  0
    2.4793   -0.4811   -1.8400 H   0  0  0  0  0  0  0  0  0  0  0  0
    4.5220   -1.1868   -1.3223 H   0  0  0  0  0  0  0  0  0  0  0  0
    5.4618    1.6907    0.8412 H   0  0  0  0  0  0  0  0  0  0  0  0
    7.6966    2.7085    0.9013 H   0  0  0  0  0  0  0  0  0  0  0  0
    9.1734   -0.3250   -1.7594 H   0  0  0  0  0  0  0  0  0  0  0  0
    3.7803   -0.3983    3.9040 H   0  0  0  0  0  0  0  0  0  0  0  0
   -0.4900   -0.5435    2.1353 H   0  0  0  0  0  0  0  0  0  0  0  0
   -2.6294   -1.5163    1.4144 H   0  0  0  0  0  0  0  0  0  0  0  0
   -2.6625    0.2943    1.4193 H   0  0  0  0  0  0  0  0  0  0  0  0
   -4.2451   -1.5359   -0.4975 H   0  0  0  0  0  0  0  0  0  0  0  0
   -5.1385    0.0324    2.0155 H   0  0  0  0  0  0  0  0  0  0  0  0
   -5.1076   -1.7473    1.8003 H   0  0  0  0  0  0  0  0  0  0  0  0
   -6.8047   -1.6630    0.0381 H   0  0  0  0  0  0  0  0  0  0  0  0
   -7.4113   -0.8141    1.4810 H   0  0  0  0  0  0  0  0  0  0  0  0
   -7.3807    2.5095   -0.0314 H   0  0  0  0  0  0  0  0  0  0  0  0
   -7.9349    1.5160    1.3482 H   0  0  0  0  0  0  0  0  0  0  0  0
   -6.1875    1.9379    1.1959 H   0  0  0  0  0  0  0  0  0  0  0  0
   -6.0620    1.5524   -1.7894 H   0  0  0  0  0  0  0  0  0  0  0  0
   -5.9828   -0.2185   -1.9586 H   0  0  0  0  0  0  0  0  0  0  0  0
   -4.2816    1.5298   -0.0604 H   0  0  0  0  0  0  0  0  0  0  0  0
   -3.7403    0.6535   -1.5261 H   0  0  0  0  0  0  0  0  0  0  0  0
  1  2  1  0
  2  3  1  0
  3  4  2  0
  4  5  1  0
  5  6  2  0
  6  7  1  0
  7  8  1  0
  8  9  2  0
  9 10  1  0
 10 11  2  0
 11 12  1  0
 11 13  1  0
 13 14  2  0
 14  8  1  0
 14 15  1  0
  6 16  1  0
 16 17  2  0
 17 18  1  0
 18 19  2  0
 19  5  1  0
 19 20  1  0
 20 21  2  0
 21  3  1  0
 21 22  1  0
 22 23  1  0
 23 24  1  0
 24 25  1  0
 25 26  1  0
 26 27  1  0
 27 28  1  0
 27 29  1  0
 29 30  1  0
 30 24  1  0
  1 31  1  0
  1 32  1  0
  1 33  1  0
  4 34  1  0
  7 35  1  0
  9 36  1  0
 10 37  1  0
 13 38  1  0
 17 39  1  0
 20 40  1  0
 23 41  1  0
 23 42  1  0
 24 43  1  0
 25 44  1  0
 25 45  1  0
 26 46  1  0
 26 47  1  0
 28 48  1  0
 28 49  1  0
 28 50  1  0
 29 51  1  0
 29 52  1  0
 30 53  1  0
 30 54  1  0
M  END
> <ID>
HT2166

> <Class>
0.0

> <Clusters>
118

> <Fold>
3

$$$$