
     RDKit          3D

 36 36  0  0  0  0  0  0  0  0999 V2000
    4.6241    1.3681    0.1056 C   0  0  0  0  0  0  0  0  0  0  0  0
    4.2955   -0.0898   -0.8577 S   0  0  0  0  0  0  0  0  0  0  0  0
    5.1791   -1.2119   -0.3895 O   0  0  0  0  0  0  0  0  0  0  0  0
    4.5923    0.1860   -2.3051 O   0  0  0  0  0  0  0  0  0  0  0  0
    2.6051   -0.5435   -0.6711 C   0  0  0  0  0  0  0  0  0  0  0  0
    2.2171   -1.4054    0.3622 C   0  0  0  0  0  0  0  0  0  0  0  0
    0.8726   -1.7512    0.5234 C   0  0  0  0  0  0  0  0  0  0  0  0
   -0.1059   -1.2335   -0.3453 C   0  0  0  0  0  0  0  0  0  0  0  0
    0.2908   -0.3643   -1.3762 C   0  0  0  0  0  0  0  0  0  0  0  0
    1.6357   -0.0198   -1.5354 C   0  0  0  0  0  0  0  0  0  0  0  0
   -1.5745   -1.5807   -0.1724 C   0  0  1  0  0  0  0  0  0  0  0  0
   -1.7246   -2.8873    0.3244 O   0  0  0  0  0  0  0  0  0  0  0  0
   -2.3390   -0.5871    0.7384 C   0  0  1  0  0  0  0  0  0  0  0  0
   -1.8415   -0.5541    2.1965 C   0  0  0  0  0  0  0  0  0  0  0  0
   -0.6111    0.1092    2.2976 O   0  0  0  0  0  0  0  0  0  0  0  0
   -2.3190    0.7634    0.1618 N   0  0  0  0  0  0  0  0  0  0  0  0
   -3.4713    1.3845   -0.4280 C   0  0  0  0  0  0  0  0  0  0  0  0
   -4.5662    0.7622   -0.4989 O   0  0  0  0  0  0  0  0  0  0  0  0
   -3.3595    2.7543   -1.0260 C   0  0  0  0  0  0  0  0  0  0  0  0
   -3.2580    2.6241   -2.7979 Cl  0  0  0  0  0  0  0  0  0  0  0  0
   -4.7687    3.7523   -0.5836 Cl  0  0  0  0  0  0  0  0  0  0  0  0
    3.9762    2.1979   -0.2451 H   0  0  0  0  0  0  0  0  0  0  0  0
    5.6889    1.6576   -0.0091 H   0  0  0  0  0  0  0  0  0  0  0  0
    4.4108    1.1618    1.1748 H   0  0  0  0  0  0  0  0  0  0  0  0
    2.9535   -1.8052    1.0477 H   0  0  0  0  0  0  0  0  0  0  0  0
    0.5950   -2.4127    1.3343 H   0  0  0  0  0  0  0  0  0  0  0  0
   -0.4440    0.0540   -2.0533 H   0  0  0  0  0  0  0  0  0  0  0  0
    1.9190    0.6592   -2.3295 H   0  0  0  0  0  0  0  0  0  0  0  0
   -2.0660   -1.5360   -1.1736 H   0  0  0  0  0  0  0  0  0  0  0  0
   -1.4621   -3.5057   -0.4072 H   0  0  0  0  0  0  0  0  0  0  0  0
   -3.3880   -0.9553    0.7825 H   0  0  0  0  0  0  0  0  0  0  0  0
   -2.5946   -0.0169    2.8156 H   0  0  0  0  0  0  0  0  0  0  0  0
   -1.7498   -1.5902    2.5920 H   0  0  0  0  0  0  0  0  0  0  0  0
   -0.3506    0.0638    3.2540 H   0  0  0  0  0  0  0  0  0  0  0  0
   -1.4153    1.2880    0.1489 H   0  0  0  0  0  0  0  0  0  0  0  0
   -2.4460    3.2644   -0.6548 H   0  0  0  0  0  0  0  0  0  0  0  0
  1  2  1  0
  2  3  2  0
  2  4  2  0
  2  5  1  0
  5  6  2  0
  6  7  1  0
  7  8  2  0
  8  9  1  0
  9 10  2  0
 10  5  1  0
  8 11  1  0
 11 12  1  0
 11 13  1  0
 13 14  1  0
 14 15  1  0
 13 16  1  0
 16 17  1  0
 17 18  2  0
 17 19  1  0
 19 20  1  0
 19 21  1  0
  1 22  1  0
  1 23  1  0
  1 24  1  0
  6 25  1  0
  7 26  1  0
  9 27  1  0
 10 28  1  0
 11 29  1  6
 12 30  1  0
 13 31  1  1
 14 32  1  0
 14 33  1  0
 15 34  1  0
 16 35  1  0
 19 36  1  0
M  END
> <ID>
HT2037

> <Class>
0.0

> <Clusters>
49

> <Fold>
3

$$$$