
     RDKit          3D

 48 50  0  0  0  0  0  0  0  0999 V2000
    3.9797   -1.5927   -0.8827 C   0  0  0  0  0  0  0  0  0  0  0  0
    3.6557   -0.5363    0.0901 N   0  0  0  0  0  0  0  0  0  0  0  0
    4.4876    0.6521   -0.1215 C   0  0  0  0  0  0  0  0  0  0  0  0
    3.6990    1.8294    0.4114 C   0  0  0  0  0  0  0  0  0  0  0  0
    2.2467    1.4309    0.2349 C   0  0  0  0  0  0  0  0  0  0  0  0
    2.2587   -0.0846   -0.0231 C   0  0  0  0  0  0  0  0  0  0  0  0
    1.3832   -0.8388    0.9849 C   0  0  0  0  0  0  0  0  0  0  0  0
    0.0325   -0.4165    0.8422 O   0  0  0  0  0  0  0  0  0  0  0  0
   -1.0051   -0.8700    1.6604 C   0  0  0  0  0  0  0  0  0  0  0  0
   -0.7807   -1.7052    2.5774 O   0  0  0  0  0  0  0  0  0  0  0  0
   -2.3996   -0.3427    1.4587 C   0  0  0  0  0  0  0  0  0  0  0  0
   -3.2976   -1.4131    1.1555 O   0  0  0  0  0  0  0  0  0  0  0  0
   -3.2763   -2.2213    0.0044 C   0  0  0  0  0  0  0  0  0  0  0  0
   -4.2151   -3.2576   -0.0875 C   0  0  0  0  0  0  0  0  0  0  0  0
   -4.2414   -4.0973   -1.2050 C   0  0  0  0  0  0  0  0  0  0  0  0
   -3.3273   -3.9074   -2.2449 C   0  0  0  0  0  0  0  0  0  0  0  0
   -3.3593   -4.9633   -3.6459 Cl  0  0  0  0  0  0  0  0  0  0  0  0
   -2.3883   -2.8748   -2.1671 C   0  0  0  0  0  0  0  0  0  0  0  0
   -2.3598   -2.0332   -1.0506 C   0  0  0  0  0  0  0  0  0  0  0  0
   -2.4505    0.6424    0.4213 O   0  0  0  0  0  0  0  0  0  0  0  0
   -1.8171    1.8959    0.4571 C   0  0  0  0  0  0  0  0  0  0  0  0
   -1.2170    2.4111    1.6238 C   0  0  0  0  0  0  0  0  0  0  0  0
   -0.5745    3.6524    1.5954 C   0  0  0  0  0  0  0  0  0  0  0  0
   -0.5266    4.3914    0.4096 C   0  0  0  0  0  0  0  0  0  0  0  0
    0.2886    5.9448    0.3742 Cl  0  0  0  0  0  0  0  0  0  0  0  0
   -1.1298    3.8905   -0.7483 C   0  0  0  0  0  0  0  0  0  0  0  0
   -1.7739    2.6496   -0.7223 C   0  0  0  0  0  0  0  0  0  0  0  0
    5.0440   -1.8917   -0.7733 H   0  0  0  0  0  0  0  0  0  0  0  0
    3.3570   -2.4914   -0.6862 H   0  0  0  0  0  0  0  0  0  0  0  0
    3.8052   -1.2537   -1.9290 H   0  0  0  0  0  0  0  0  0  0  0  0
    5.4505    0.5479    0.4241 H   0  0  0  0  0  0  0  0  0  0  0  0
    4.6968    0.8208   -1.2049 H   0  0  0  0  0  0  0  0  0  0  0  0
    3.9229    1.9697    1.4931 H   0  0  0  0  0  0  0  0  0  0  0  0
    3.9390    2.7643   -0.1410 H   0  0  0  0  0  0  0  0  0  0  0  0
    1.6667    1.7120    1.1417 H   0  0  0  0  0  0  0  0  0  0  0  0
    1.8091    1.9638   -0.6396 H   0  0  0  0  0  0  0  0  0  0  0  0
    1.8547   -0.2674   -1.0471 H   0  0  0  0  0  0  0  0  0  0  0  0
    1.7360   -0.6370    2.0213 H   0  0  0  0  0  0  0  0  0  0  0  0
    1.4448   -1.9320    0.7913 H   0  0  0  0  0  0  0  0  0  0  0  0
   -2.7467    0.1149    2.4091 H   0  0  0  0  0  0  0  0  0  0  0  0
   -4.9265   -3.4134    0.7137 H   0  0  0  0  0  0  0  0  0  0  0  0
   -4.9709   -4.8950   -1.2606 H   0  0  0  0  0  0  0  0  0  0  0  0
   -1.6791   -2.7228   -2.9712 H   0  0  0  0  0  0  0  0  0  0  0  0
   -1.6244   -1.2439   -1.0267 H   0  0  0  0  0  0  0  0  0  0  0  0
   -1.2334    1.8579    2.5519 H   0  0  0  0  0  0  0  0  0  0  0  0
   -0.1095    4.0367    2.4944 H   0  0  0  0  0  0  0  0  0  0  0  0
   -1.0970    4.4591   -1.6687 H   0  0  0  0  0  0  0  0  0  0  0  0
   -2.2308    2.2655   -1.6258 H   0  0  0  0  0  0  0  0  0  0  0  0
  1  2  1  0
  2  3  1  0
  3  4  1  0
  4  5  1  0
  5  6  1  0
  6  2  1  0
  6  7  1  0
  7  8  1  0
  8  9  1  0
  9 10  2  0
  9 11  1  0
 11 12  1  0
 12 13  1  0
 13 14  2  0
 14 15  1  0
 15 16  2  0
 16 17  1  0
 16 18  1  0
 18 19  2  0
 19 13  1  0
 11 20  1  0
 20 21  1  0
 21 22  2  0
 22 23  1  0
 23 24  2  0
 24 25  1  0
 24 26  1  0
 26 27  2  0
 27 21  1  0
  1 28  1  0
  1 29  1  0
  1 30  1  0
  3 31  1  0
  3 32  1  0
  4 33  1  0
  4 34  1  0
  5 35  1  0
  5 36  1  0
  6 37  1  0
  7 38  1  0
  7 39  1  0
 11 40  1  0
 14 41  1  0
 15 42  1  0
 18 43  1  0
 19 44  1  0
 22 45  1  0
 23 46  1  0
 26 47  1  0
 27 48  1  0
M  END
> <ID>
HT0284

> <Class>
0.0

> <Clusters>
37

> <Fold>
3

$$$$