
     RDKit          3D

 45 49  0  0  0  0  0  0  0  0999 V2000
   -4.9885    1.3458    0.6351 O   0  0  0  0  0  0  0  0  0  0  0  0
   -3.6504    1.4427    0.2632 C   0  0  0  0  0  0  0  0  0  0  0  0
   -3.1571    2.5699   -0.4276 C   0  0  0  0  0  0  0  0  0  0  0  0
   -1.8192    2.5953   -0.8800 C   0  0  0  0  0  0  0  0  0  0  0  0
   -0.9535    1.5255   -0.5797 C   0  0  0  0  0  0  0  0  0  0  0  0
    0.3837    1.3578   -1.2641 C   0  0  0  0  0  0  0  0  0  0  0  0
    1.1468    0.0398   -0.8694 C   0  0  1  0  0  0  0  0  0  0  0  0
    2.0220    0.2195    0.3212 N   0  0  0  0  0  0  0  0  0  0  0  0
    3.1465    1.1503    0.0869 C   0  0  0  0  0  0  0  0  0  0  0  0
    4.3577    0.6809    0.8466 C   0  0  0  0  0  0  0  0  0  0  0  0
    5.4785    0.2963    0.2286 C   0  0  0  0  0  0  0  0  0  0  0  0
    1.2684    0.5546    1.5524 C   0  0  0  0  0  0  0  0  0  0  0  0
    0.1524   -0.4725    1.8352 C   0  0  0  0  0  0  0  0  0  0  0  0
   -0.7183   -0.7507    0.5801 C   0  0  1  0  0  0  0  0  0  0  0  0
   -1.9162   -1.7113    0.9107 C   0  0  1  0  0  0  0  0  0  0  0  0
   -3.0603   -0.8532    1.0217 O   0  0  0  0  0  0  0  0  0  0  0  0
   -2.7620    0.4040    0.5379 C   0  0  0  0  0  0  0  0  0  0  0  0
   -1.4441    0.4985    0.2206 C   0  0  0  0  0  0  0  0  0  0  0  0
   -2.2028   -2.7548   -0.1528 C   0  0  0  0  0  0  0  0  0  0  0  0
   -3.0334   -3.6147    0.0978 O   0  0  0  0  0  0  0  0  0  0  0  0
   -1.5271   -2.7963   -1.5067 C   0  0  0  0  0  0  0  0  0  0  0  0
   -0.6629   -1.5678   -1.8171 C   0  0  0  0  0  0  0  0  0  0  0  0
    0.1961   -1.1738   -0.5941 C   0  0  1  0  0  0  0  0  0  0  0  0
    0.9653   -2.2903   -0.1991 O   0  0  0  0  0  0  0  0  0  0  0  0
   -5.6468    2.0886    0.4315 H   0  0  0  0  0  0  0  0  0  0  0  0
   -3.8190    3.3913   -0.6698 H   0  0  0  0  0  0  0  0  0  0  0  0
   -1.4767    3.4171   -1.4960 H   0  0  0  0  0  0  0  0  0  0  0  0
    1.0052    2.2565   -1.0751 H   0  0  0  0  0  0  0  0  0  0  0  0
    0.1954    1.3286   -2.3592 H   0  0  0  0  0  0  0  0  0  0  0  0
    1.7889   -0.2424   -1.7347 H   0  0  0  0  0  0  0  0  0  0  0  0
    2.8949    2.1816    0.4199 H   0  0  0  0  0  0  0  0  0  0  0  0
    3.3904    1.2176   -0.9976 H   0  0  0  0  0  0  0  0  0  0  0  0
    4.3221    0.6544    1.9313 H   0  0  0  0  0  0  0  0  0  0  0  0
    6.3315   -0.0355    0.8115 H   0  0  0  0  0  0  0  0  0  0  0  0
    5.5570    0.3049   -0.8542 H   0  0  0  0  0  0  0  0  0  0  0  0
    0.8345    1.5762    1.4855 H   0  0  0  0  0  0  0  0  0  0  0  0
    1.9563    0.5535    2.4249 H   0  0  0  0  0  0  0  0  0  0  0  0
   -0.4813   -0.0941    2.6681 H   0  0  0  0  0  0  0  0  0  0  0  0
    0.6169   -1.4203    2.1853 H   0  0  0  0  0  0  0  0  0  0  0  0
   -1.7463   -2.2276    1.8811 H   0  0  0  0  0  0  0  0  0  0  0  0
   -0.8958   -3.7099   -1.5539 H   0  0  0  0  0  0  0  0  0  0  0  0
   -2.3042   -2.8876   -2.2961 H   0  0  0  0  0  0  0  0  0  0  0  0
   -0.0033   -1.8014   -2.6810 H   0  0  0  0  0  0  0  0  0  0  0  0
   -1.3251   -0.7352   -2.1356 H   0  0  0  0  0  0  0  0  0  0  0  0
    1.5837   -2.5117   -0.9441 H   0  0  0  0  0  0  0  0  0  0  0  0
  1  2  1  0
  2  3  2  0
  3  4  1  0
  4  5  2  0
  5  6  1  0
  7  6  1  0
  7  8  1  0
  8  9  1  0
  9 10  1  0
 10 11  2  3
  8 12  1  0
 12 13  1  0
 14 13  1  1
 14 15  1  0
 15 16  1  0
 16 17  1  0
 17  2  1  0
 17 18  2  0
 18  5  1  0
 18 14  1  0
 15 19  1  0
 19 20  2  0
 19 21  1  0
 21 22  1  0
 22 23  1  0
 23  7  1  0
 23 14  1  0
 23 24  1  1
  1 25  1  0
  3 26  1  0
  4 27  1  0
  6 28  1  0
  6 29  1  0
  7 30  1  6
  9 31  1  0
  9 32  1  0
 10 33  1  0
 11 34  1  0
 11 35  1  0
 12 36  1  0
 12 37  1  0
 13 38  1  0
 13 39  1  0
 15 40  1  1
 21 41  1  0
 21 42  1  0
 22 43  1  0
 22 44  1  0
 24 45  1  0
M  END
> <ID>
HT1459

> <Class>
0.0

> <Clusters>
175

> <Fold>
3

$$$$