
     RDKit          3D

 44 47  0  0  0  0  0  0  0  0999 V2000
   -4.0421   -1.8996   -0.9246 C   0  0  0  0  0  0  0  0  0  0  0  0
   -4.2465   -0.5393   -0.3124 C   0  0  0  0  0  0  0  0  0  0  0  0
   -5.3263    0.2573   -0.7586 C   0  0  0  0  0  0  0  0  0  0  0  0
   -5.4945    1.5161   -0.1949 C   0  0  0  0  0  0  0  0  0  0  0  0
   -6.4650    2.4591   -0.4735 O   0  0  0  0  0  0  0  0  0  0  0  0
   -6.2221    3.6029    0.3571 C   0  0  0  0  0  0  0  0  0  0  0  0
   -5.0601    3.2643    1.1264 O   0  0  0  0  0  0  0  0  0  0  0  0
   -4.6595    1.9946    0.7571 C   0  0  0  0  0  0  0  0  0  0  0  0
   -3.5832    1.2561    1.2325 C   0  0  0  0  0  0  0  0  0  0  0  0
   -3.3700   -0.0382    0.7040 C   0  0  0  0  0  0  0  0  0  0  0  0
   -2.1726   -0.8282    1.1873 C   0  0  0  0  0  0  0  0  0  0  0  0
   -0.9674   -0.6569    0.2958 C   0  0  0  0  0  0  0  0  0  0  0  0
   -1.0320    0.1022   -0.7084 O   0  0  0  0  0  0  0  0  0  0  0  0
    0.2871   -1.3838    0.5996 C   0  0  0  0  0  0  0  0  0  0  0  0
    0.4596   -2.4818    1.8669 S   0  0  0  0  0  0  0  0  0  0  0  0
    2.0597   -2.8892    1.5767 C   0  0  0  0  0  0  0  0  0  0  0  0
    2.4930   -2.1688    0.4746 C   0  0  0  0  0  0  0  0  0  0  0  0
    1.5158   -1.3227   -0.0758 C   0  0  0  0  0  0  0  0  0  0  0  0
    1.8547   -0.3033   -1.4758 S   0  0  0  0  0  0  0  0  0  0  0  0
    1.5646    1.1359   -1.1529 O   0  0  0  0  0  0  0  0  0  0  0  0
    0.9953   -0.7385   -2.6292 O   0  0  0  0  0  0  0  0  0  0  0  0
    3.5172   -0.4486   -1.9378 N   0  0  0  0  0  0  0  0  0  0  0  0
    4.5572    0.1316   -1.1478 C   0  0  0  0  0  0  0  0  0  0  0  0
    4.3639    0.8064   -0.0386 O   0  0  0  0  0  0  0  0  0  0  0  0
    5.4981    1.2009    0.4671 N   0  0  0  0  0  0  0  0  0  0  0  0
    6.4708    0.7653   -0.3604 C   0  0  0  0  0  0  0  0  0  0  0  0
    7.9296    0.9662   -0.1157 C   0  0  0  0  0  0  0  0  0  0  0  0
    5.9061    0.0663   -1.4071 C   0  0  0  0  0  0  0  0  0  0  0  0
    6.7182   -0.7387   -2.7383 Cl  0  0  0  0  0  0  0  0  0  0  0  0
   -3.0276   -1.9666   -1.3698 H   0  0  0  0  0  0  0  0  0  0  0  0
   -4.1589   -2.6842   -0.1484 H   0  0  0  0  0  0  0  0  0  0  0  0
   -4.7822   -2.1020   -1.7278 H   0  0  0  0  0  0  0  0  0  0  0  0
   -6.0111   -0.0895   -1.5221 H   0  0  0  0  0  0  0  0  0  0  0  0
   -6.0196    4.4966   -0.2697 H   0  0  0  0  0  0  0  0  0  0  0  0
   -7.0880    3.7805    1.0289 H   0  0  0  0  0  0  0  0  0  0  0  0
   -2.9283    1.6745    1.9865 H   0  0  0  0  0  0  0  0  0  0  0  0
   -2.4305   -1.9051    1.2555 H   0  0  0  0  0  0  0  0  0  0  0  0
   -1.9004   -0.5062    2.2161 H   0  0  0  0  0  0  0  0  0  0  0  0
    2.6518   -3.5926    2.1461 H   0  0  0  0  0  0  0  0  0  0  0  0
    3.4966   -2.2611    0.0829 H   0  0  0  0  0  0  0  0  0  0  0  0
    3.7549   -0.9816   -2.8034 H   0  0  0  0  0  0  0  0  0  0  0  0
    8.4253    1.3068   -1.0488 H   0  0  0  0  0  0  0  0  0  0  0  0
    8.3855    0.0096    0.2144 H   0  0  0  0  0  0  0  0  0  0  0  0
    8.0829    1.7333    0.6722 H   0  0  0  0  0  0  0  0  0  0  0  0
  1  2  1  0
  2  3  2  0
  3  4  1  0
  4  5  1  0
  5  6  1  0
  6  7  1  0
  7  8  1  0
  8  4  2  0
  8  9  1  0
  9 10  2  0
 10  2  1  0
 10 11  1  0
 11 12  1  0
 12 13  2  0
 12 14  1  0
 14 15  1  0
 15 16  1  0
 16 17  2  0
 17 18  1  0
 18 14  2  0
 18 19  1  0
 19 20  2  0
 19 21  2  0
 19 22  1  0
 22 23  1  0
 23 24  1  0
 24 25  1  0
 25 26  2  0
 26 27  1  0
 26 28  1  0
 28 23  2  0
 28 29  1  0
  1 30  1  0
  1 31  1  0
  1 32  1  0
  3 33  1  0
  6 34  1  0
  6 35  1  0
  9 36  1  0
 11 37  1  0
 11 38  1  0
 16 39  1  0
 17 40  1  0
 22 41  1  0
 27 42  1  0
 27 43  1  0
 27 44  1  0
M  END
> <ID>
HT1894

> <Class>
0.0

> <Clusters>
261

> <Fold>
3

$$$$