
     RDKit          3D

 53 58  0  0  0  0  0  0  0  0999 V2000
   -4.4077   -1.0804   -0.3285 O   0  0  0  0  0  0  0  0  0  0  0  0
   -3.5841   -1.7443    0.6011 C   0  0  1  0  0  0  0  0  0  0  0  0
   -2.7596   -2.8079   -0.1475 C   0  0  0  0  0  0  0  0  0  0  0  0
   -1.6224   -2.1825   -0.9655 C   0  0  0  0  0  0  0  0  0  0  0  0
   -0.6303   -1.4678   -0.0301 C   0  0  1  0  0  0  0  0  0  0  0  0
   -0.0336   -2.4441    0.8040 O   0  0  0  0  0  0  0  0  0  0  0  0
    0.5318   -0.7577   -0.7921 C   0  0  1  0  0  0  0  0  0  0  0  0
    0.0571    0.3924   -1.7565 C   0  0  0  0  0  0  0  0  0  0  0  0
   -1.0979    1.2014   -1.2203 C   0  0  0  0  0  0  0  0  0  0  0  0
   -1.6377    2.3121   -1.8982 C   0  0  0  0  0  0  0  0  0  0  0  0
   -2.8007    2.9469   -1.4020 C   0  0  0  0  0  0  0  0  0  0  0  0
   -3.4582    2.4400   -0.2619 C   0  0  0  0  0  0  0  0  0  0  0  0
   -4.6419    3.0177    0.1892 O   0  0  0  0  0  0  0  0  0  0  0  0
   -2.8999    1.3279    0.3719 C   0  0  0  0  0  0  0  0  0  0  0  0
   -3.4377    0.5517    1.3849 O   0  0  0  0  0  0  0  0  0  0  0  0
   -2.7390   -0.7062    1.4217 C   0  0  2  0  0  0  0  0  0  0  0  0
   -1.3397   -0.3599    0.7981 C   0  0  1  0  0  0  0  0  0  0  0  0
   -0.3368    0.1817    1.8530 C   0  0  0  0  0  0  0  0  0  0  0  0
    0.9704    0.6843    1.1935 C   0  0  0  0  0  0  0  0  0  0  0  0
    1.5234   -0.2899    0.2197 N   0  0  0  0  0  0  0  0  0  0  0  0
    2.7967    0.1698   -0.3799 C   0  0  0  0  0  0  0  0  0  0  0  0
    3.9867   -0.2273    0.5146 C   0  0  0  0  0  0  0  0  0  0  0  0
    5.3441   -0.0654   -0.1707 C   0  0  0  0  0  0  0  0  0  0  0  0
    5.7536    0.9607    0.8754 C   0  0  0  0  0  0  0  0  0  0  0  0
    4.3961    0.8235    1.5487 C   0  0  0  0  0  0  0  0  0  0  0  0
   -1.7307    0.7861   -0.0604 C   0  0  0  0  0  0  0  0  0  0  0  0
   -5.1722   -1.6824   -0.5272 H   0  0  0  0  0  0  0  0  0  0  0  0
   -4.2353   -2.2771    1.3338 H   0  0  0  0  0  0  0  0  0  0  0  0
   -2.3702   -3.5610    0.5686 H   0  0  0  0  0  0  0  0  0  0  0  0
   -3.4261   -3.3672   -0.8398 H   0  0  0  0  0  0  0  0  0  0  0  0
   -1.0937   -2.9861   -1.5229 H   0  0  0  0  0  0  0  0  0  0  0  0
   -2.0502   -1.4810   -1.7134 H   0  0  0  0  0  0  0  0  0  0  0  0
   -0.6302   -2.6280    1.5747 H   0  0  0  0  0  0  0  0  0  0  0  0
    1.0209   -1.5353   -1.4221 H   0  0  0  0  0  0  0  0  0  0  0  0
    0.8952    1.0765   -1.9986 H   0  0  0  0  0  0  0  0  0  0  0  0
   -0.2667   -0.0631   -2.7169 H   0  0  0  0  0  0  0  0  0  0  0  0
   -1.1746    2.6731   -2.8076 H   0  0  0  0  0  0  0  0  0  0  0  0
   -3.2104    3.8005   -1.9264 H   0  0  0  0  0  0  0  0  0  0  0  0
   -5.1293    2.6567    1.0007 H   0  0  0  0  0  0  0  0  0  0  0  0
   -2.6313   -1.0561    2.4717 H   0  0  0  0  0  0  0  0  0  0  0  0
   -0.7914    1.0190    2.4284 H   0  0  0  0  0  0  0  0  0  0  0  0
   -0.0904   -0.6086    2.5938 H   0  0  0  0  0  0  0  0  0  0  0  0
    0.7956    1.6689    0.7072 H   0  0  0  0  0  0  0  0  0  0  0  0
    1.7005    0.8494    2.0114 H   0  0  0  0  0  0  0  0  0  0  0  0
    2.7868    1.2668   -0.5708 H   0  0  0  0  0  0  0  0  0  0  0  0
    2.9552   -0.3217   -1.3659 H   0  0  0  0  0  0  0  0  0  0  0  0
    3.8723   -1.2416    0.9590 H   0  0  0  0  0  0  0  0  0  0  0  0
    5.9587   -0.9906   -0.1189 H   0  0  0  0  0  0  0  0  0  0  0  0
    5.2918    0.3770   -1.1904 H   0  0  0  0  0  0  0  0  0  0  0  0
    6.5873    0.6045    1.5194 H   0  0  0  0  0  0  0  0  0  0  0  0
    5.9154    1.9716    0.4413 H   0  0  0  0  0  0  0  0  0  0  0  0
    3.8181    1.7722    1.4997 H   0  0  0  0  0  0  0  0  0  0  0  0
    4.4722    0.4008    2.5742 H   0  0  0  0  0  0  0  0  0  0  0  0
  2  1  1  0
  2  3  1  0
  3  4  1  0
  4  5  1  0
  5  6  1  1
  5  7  1  0
  7  8  1  0
  8  9  1  0
  9 10  2  0
 10 11  1  0
 11 12  2  0
 12 13  1  0
 12 14  1  0
 14 15  1  0
 16 15  1  0
 16  2  1  0
 16 17  1  0
 17  5  1  0
 17 18  1  1
 18 19  1  0
 19 20  1  0
 20  7  1  0
 20 21  1  0
 21 22  1  0
 22 23  1  0
 23 24  1  0
 24 25  1  0
 25 22  1  0
 17 26  1  0
 26  9  1  0
 26 14  2  0
  1 27  1  0
  2 28  1  1
  3 29  1  0
  3 30  1  0
  4 31  1  0
  4 32  1  0
  6 33  1  0
  7 34  1  6
  8 35  1  0
  8 36  1  0
 10 37  1  0
 11 38  1  0
 13 39  1  0
 16 40  1  1
 18 41  1  0
 18 42  1  0
 19 43  1  0
 19 44  1  0
 21 45  1  0
 21 46  1  0
 22 47  1  0
 23 48  1  0
 23 49  1  0
 24 50  1  0
 24 51  1  0
 25 52  1  0
 25 53  1  0
M  END
> <ID>
HT1455

> <Class>
0.0

> <Clusters>
175

> <Fold>
3

$$$$