
     RDKit          3D

 14 13  0  0  0  0  0  0  0  0999 V2000
   -2.1055   -1.2061   -0.1918 O   0  0  0  0  0  0  0  0  0  0  0  0
   -1.5696    0.3920   -0.0323 P   0  0  0  0  0  0  0  0  0  0  0  0
   -1.7558    0.8491    1.3979 O   0  0  0  0  0  0  0  0  0  0  0  0
   -2.4839    1.3831   -1.0542 O   0  0  0  0  0  0  0  0  0  0  0  0
    0.0737    0.5092   -0.4734 O   0  0  0  0  0  0  0  0  0  0  0  0
    0.8135   -0.3906    0.3198 C   0  0  0  0  0  0  0  0  0  0  0  0
    2.2983   -0.2901   -0.0337 C   0  0  0  0  0  0  0  0  0  0  0  0
    2.5586   -0.6976   -1.7505 Cl  0  0  0  0  0  0  0  0  0  0  0  0
    2.9000    1.3612    0.2701 Cl  0  0  0  0  0  0  0  0  0  0  0  0
    3.2335   -1.4288    0.9684 Cl  0  0  0  0  0  0  0  0  0  0  0  0
   -3.0730   -1.1703    0.0171 H   0  0  0  0  0  0  0  0  0  0  0  0
   -2.0678    2.2785   -0.9760 H   0  0  0  0  0  0  0  0  0  0  0  0
    0.4819   -1.4380    0.1369 H   0  0  0  0  0  0  0  0  0  0  0  0
    0.6961   -0.1518    1.4018 H   0  0  0  0  0  0  0  0  0  0  0  0
  1  2  1  0
  2  3  2  0
  2  4  1  0
  2  5  1  0
  5  6  1  0
  6  7  1  0
  7  8  1  0
  7  9  1  0
  7 10  1  0
  1 11  1  0
  4 12  1  0
  6 13  1  0
  6 14  1  0
M  END
> <ID>
HT2998

> <Class>
0.0

> <Clusters>
251

> <Fold>
3

$$$$