
     RDKit          3D

 28 29  0  0  0  0  0  0  0  0999 V2000
    1.1549   -0.3868   -2.0905 O   0  0  0  0  0  0  0  0  0  0  0  0
    1.5806   -0.1885   -0.9199 C   0  0  0  0  0  0  0  0  0  0  0  0
    0.6711    0.0092    0.1176 O   0  0  0  0  0  0  0  0  0  0  0  0
   -0.6711   -0.0092   -0.1176 O   0  0  0  0  0  0  0  0  0  0  0  0
   -1.5806    0.1885    0.9199 C   0  0  0  0  0  0  0  0  0  0  0  0
   -1.1549    0.3868    2.0905 O   0  0  0  0  0  0  0  0  0  0  0  0
   -3.0343    0.1653    0.6468 C   0  0  0  0  0  0  0  0  0  0  0  0
   -3.5078   -0.0560   -0.6594 C   0  0  0  0  0  0  0  0  0  0  0  0
   -4.8818   -0.0783   -0.9195 C   0  0  0  0  0  0  0  0  0  0  0  0
   -5.7952    0.1196    0.1185 C   0  0  0  0  0  0  0  0  0  0  0  0
   -5.3367    0.3402    1.4192 C   0  0  0  0  0  0  0  0  0  0  0  0
   -3.9640    0.3635    1.6852 C   0  0  0  0  0  0  0  0  0  0  0  0
    3.0343   -0.1653   -0.6468 C   0  0  0  0  0  0  0  0  0  0  0  0
    3.9640   -0.3635   -1.6852 C   0  0  0  0  0  0  0  0  0  0  0  0
    5.3367   -0.3402   -1.4192 C   0  0  0  0  0  0  0  0  0  0  0  0
    5.7952   -0.1196   -0.1185 C   0  0  0  0  0  0  0  0  0  0  0  0
    4.8818    0.0783    0.9195 C   0  0  0  0  0  0  0  0  0  0  0  0
    3.5078    0.0560    0.6594 C   0  0  0  0  0  0  0  0  0  0  0  0
   -2.8188   -0.2119   -1.4800 H   0  0  0  0  0  0  0  0  0  0  0  0
   -5.2383   -0.2491   -1.9271 H   0  0  0  0  0  0  0  0  0  0  0  0
   -6.8581    0.1019   -0.0851 H   0  0  0  0  0  0  0  0  0  0  0  0
   -6.0456    0.4934    2.2227 H   0  0  0  0  0  0  0  0  0  0  0  0
   -3.6317    0.5363    2.7012 H   0  0  0  0  0  0  0  0  0  0  0  0
    3.6317   -0.5362   -2.7012 H   0  0  0  0  0  0  0  0  0  0  0  0
    6.0456   -0.4934   -2.2227 H   0  0  0  0  0  0  0  0  0  0  0  0
    6.8581   -0.1019    0.0852 H   0  0  0  0  0  0  0  0  0  0  0  0
    5.2383    0.2491    1.9271 H   0  0  0  0  0  0  0  0  0  0  0  0
    2.8188    0.2119    1.4800 H   0  0  0  0  0  0  0  0  0  0  0  0
  1  2  2  0
  2  3  1  0
  3  4  1  0
  4  5  1  0
  5  6  2  0
  5  7  1  0
  7  8  2  0
  8  9  1  0
  9 10  2  0
 10 11  1  0
 11 12  2  0
 12  7  1  0
  2 13  1  0
 13 14  2  0
 14 15  1  0
 15 16  2  0
 16 17  1  0
 17 18  2  0
 18 13  1  0
  8 19  1  0
  9 20  1  0
 10 21  1  0
 11 22  1  0
 12 23  1  0
 14 24  1  0
 15 25  1  0
 16 26  1  0
 17 27  1  0
 18 28  1  0
M  END
> <ID>
HT0252

> <Class>
0.0

> <Clusters>
30

> <Fold>
3

$$$$