
     RDKit          3D

 43 45  0  0  0  0  0  0  0  0999 V2000
   -5.8923    2.5835    0.8396 C   0  0  0  0  0  0  0  0  0  0  0  0
   -4.7968    2.3350   -0.0354 O   0  0  0  0  0  0  0  0  0  0  0  0
   -3.8799    1.2848    0.1213 C   0  0  0  0  0  0  0  0  0  0  0  0
   -3.9629    0.3634    1.1794 C   0  0  0  0  0  0  0  0  0  0  0  0
   -3.0237   -0.6632    1.2964 C   0  0  0  0  0  0  0  0  0  0  0  0
   -1.9836   -0.7910    0.3569 C   0  0  0  0  0  0  0  0  0  0  0  0
   -1.0190   -1.8077    0.4531 O   0  0  0  0  0  0  0  0  0  0  0  0
   -0.9581   -2.7709    1.4991 C   0  0  0  0  0  0  0  0  0  0  0  0
   -1.9010    0.1270   -0.7098 C   0  0  0  0  0  0  0  0  0  0  0  0
   -0.7827    0.0278   -1.7208 C   0  0  0  0  0  0  0  0  0  0  0  0
    0.5385    0.4424   -1.0987 C   0  0  0  0  0  0  0  0  0  0  0  0
    0.6651    1.7631   -0.6462 C   0  0  0  0  0  0  0  0  0  0  0  0
    1.8024    2.1811   -0.0436 N   0  0  0  0  0  0  0  0  0  0  0  0
    2.8320    1.3389    0.2109 C   0  0  0  0  0  0  0  0  0  0  0  0
    3.9426    1.8229    0.8205 N   0  0  0  0  0  0  0  0  0  0  0  0
    4.9827    1.0124    1.1298 C   0  0  0  0  0  0  0  0  0  0  0  0
    6.1458    1.5499    1.7547 N   0  0  0  0  0  0  0  0  0  0  0  0
    4.8926   -0.3190    0.8937 N   0  0  0  0  0  0  0  0  0  0  0  0
    3.8032   -0.8708    0.2963 C   0  0  0  0  0  0  0  0  0  0  0  0
    3.7010   -2.2975    0.2943 N   0  0  0  0  0  0  0  0  0  0  0  0
    2.7501   -0.0262   -0.1539 C   0  0  0  0  0  0  0  0  0  0  0  0
    1.6423   -0.4413   -0.9524 C   0  0  0  0  0  0  0  0  0  0  0  0
    1.6823   -1.7169   -1.7666 C   0  0  0  0  0  0  0  0  0  0  0  0
   -2.8483    1.1593   -0.8140 C   0  0  0  0  0  0  0  0  0  0  0  0
   -5.5220    2.7872    1.8666 H   0  0  0  0  0  0  0  0  0  0  0  0
   -6.4493    3.4727    0.4797 H   0  0  0  0  0  0  0  0  0  0  0  0
   -6.5802    1.7118    0.8472 H   0  0  0  0  0  0  0  0  0  0  0  0
   -4.7487    0.4329    1.9192 H   0  0  0  0  0  0  0  0  0  0  0  0
   -3.1150   -1.3531    2.1241 H   0  0  0  0  0  0  0  0  0  0  0  0
   -0.0869   -3.4357    1.3271 H   0  0  0  0  0  0  0  0  0  0  0  0
   -1.8814   -3.3878    1.5044 H   0  0  0  0  0  0  0  0  0  0  0  0
   -0.8297   -2.2631    2.4782 H   0  0  0  0  0  0  0  0  0  0  0  0
   -0.9830    0.6774   -2.6007 H   0  0  0  0  0  0  0  0  0  0  0  0
   -0.7763   -1.0116   -2.1024 H   0  0  0  0  0  0  0  0  0  0  0  0
   -0.1418    2.4707   -0.7884 H   0  0  0  0  0  0  0  0  0  0  0  0
    6.2126    2.5720    1.9574 H   0  0  0  0  0  0  0  0  0  0  0  0
    6.9425    0.9266    2.0138 H   0  0  0  0  0  0  0  0  0  0  0  0
    2.7751   -2.7734    0.3566 H   0  0  0  0  0  0  0  0  0  0  0  0
    4.5499   -2.8760    0.4812 H   0  0  0  0  0  0  0  0  0  0  0  0
    1.2680   -1.5424   -2.7814 H   0  0  0  0  0  0  0  0  0  0  0  0
    1.0982   -2.5159   -1.2648 H   0  0  0  0  0  0  0  0  0  0  0  0
    2.7204   -2.0545   -1.9564 H   0  0  0  0  0  0  0  0  0  0  0  0
   -2.7846    1.8752   -1.6246 H   0  0  0  0  0  0  0  0  0  0  0  0
  1  2  1  0
  2  3  1  0
  3  4  2  0
  4  5  1  0
  5  6  2  0
  6  7  1  0
  7  8  1  0
  6  9  1  0
  9 10  1  0
 10 11  1  0
 11 12  2  0
 12 13  1  0
 13 14  2  0
 14 15  1  0
 15 16  2  0
 16 17  1  0
 16 18  1  0
 18 19  2  0
 19 20  1  0
 19 21  1  0
 21 14  1  0
 21 22  2  0
 22 11  1  0
 22 23  1  0
  9 24  2  0
 24  3  1  0
  1 25  1  0
  1 26  1  0
  1 27  1  0
  4 28  1  0
  5 29  1  0
  8 30  1  0
  8 31  1  0
  8 32  1  0
 10 33  1  0
 10 34  1  0
 12 35  1  0
 17 36  1  0
 17 37  1  0
 20 38  1  0
 20 39  1  0
 23 40  1  0
 23 41  1  0
 23 42  1  0
 24 43  1  0
M  END
> <ID>
HT1695

> <Class>
0.0

> <Clusters>
271

> <Fold>
3

$$$$