
     RDKit          3D

 92 93  0  0  0  0  0  0  0  0999 V2000
   10.5710   -1.7484    2.8802 C   0  0  0  0  0  0  0  0  0  0  0  0
   10.5638   -1.7631    1.3449 C   0  0  0  0  0  0  0  0  0  0  0  0
   11.3304   -0.5586    0.7800 C   0  0  0  0  0  0  0  0  0  0  0  0
    9.1357   -1.8830    0.7635 C   0  0  0  0  0  0  0  0  0  0  0  0
    8.2063   -0.6934    1.0852 C   0  0  0  0  0  0  0  0  0  0  0  0
    6.8230   -0.8389    0.4129 C   0  0  0  0  0  0  0  0  0  0  0  0
    6.6408    0.0411   -0.8522 C   0  0  0  0  0  0  0  0  0  0  0  0
    7.6102   -0.3812   -1.9679 C   0  0  0  0  0  0  0  0  0  0  0  0
    5.1799   -0.0368   -1.3658 C   0  0  0  0  0  0  0  0  0  0  0  0
    4.2424    0.9332   -0.6221 C   0  0  0  0  0  0  0  0  0  0  0  0
    2.7496    0.6140   -0.8278 C   0  0  0  0  0  0  0  0  0  0  0  0
    2.2762    0.6240   -2.3011 C   0  0  0  0  0  0  0  0  0  0  0  0
    2.4436    2.0049   -2.9583 C   0  0  0  0  0  0  0  0  0  0  0  0
    0.8303    0.0844   -2.4494 C   0  0  0  0  0  0  0  0  0  0  0  0
   -0.2634    0.8859   -1.7037 C   0  0  0  0  0  0  0  0  0  0  0  0
   -0.6684    0.2320   -0.3646 C   0  0  0  0  0  0  0  0  0  0  0  0
   -1.8929    0.8958    0.3215 C   0  0  0  0  0  0  0  0  0  0  0  0
   -1.5983    2.3725    0.6597 C   0  0  0  0  0  0  0  0  0  0  0  0
   -2.2214    0.1033    1.6081 C   0  0  0  0  0  0  0  0  0  0  0  0
   -3.5645    0.5147    2.2220 C   0  0  0  0  0  0  0  0  0  0  0  0
   -4.6733    0.6135    1.1934 C   0  0  0  0  0  0  0  0  0  0  0  0
   -6.0308    0.5885    1.5895 C   0  0  0  0  0  0  0  0  0  0  0  0
   -6.4013    0.5754    3.0551 C   0  0  0  0  0  0  0  0  0  0  0  0
   -7.0433    0.5675    0.6047 C   0  0  0  0  0  0  0  0  0  0  0  0
   -8.3874    0.3893    0.9620 O   0  0  0  0  0  0  0  0  0  0  0  0
   -8.8655   -0.7746    1.5756 C   0  0  0  0  0  0  0  0  0  0  0  0
   -8.1040   -1.7636    1.7600 O   0  0  0  0  0  0  0  0  0  0  0  0
  -10.2979   -0.8470    2.0093 C   0  0  0  0  0  0  0  0  0  0  0  0
  -11.0556   -1.9875    1.3100 C   0  0  0  0  0  0  0  0  0  0  0  0
  -11.2547   -1.7778   -0.1690 C   0  0  0  0  0  0  0  0  0  0  0  0
  -10.8770   -0.7173   -0.7343 O   0  0  0  0  0  0  0  0  0  0  0  0
  -11.8734   -2.7665   -0.9287 O   0  0  0  0  0  0  0  0  0  0  0  0
   -6.7173    0.7286   -0.7564 C   0  0  0  0  0  0  0  0  0  0  0  0
   -7.8292    0.7603   -1.7815 C   0  0  0  0  0  0  0  0  0  0  0  0
   -5.3594    0.7741   -1.1513 C   0  0  0  0  0  0  0  0  0  0  0  0
   -4.9871    0.8785   -2.6139 C   0  0  0  0  0  0  0  0  0  0  0  0
   -4.3465    0.7385   -0.1722 C   0  0  0  0  0  0  0  0  0  0  0  0
   -3.0049    0.8334   -0.5735 O   0  0  0  0  0  0  0  0  0  0  0  0
    9.9990   -2.6155    3.2762 H   0  0  0  0  0  0  0  0  0  0  0  0
   11.6156   -1.8231    3.2520 H   0  0  0  0  0  0  0  0  0  0  0  0
   10.1256   -0.8103    3.2757 H   0  0  0  0  0  0  0  0  0  0  0  0
   11.1139   -2.6774    1.0252 H   0  0  0  0  0  0  0  0  0  0  0  0
   12.4019   -0.6330    1.0619 H   0  0  0  0  0  0  0  0  0  0  0  0
   11.2643   -0.5432   -0.3293 H   0  0  0  0  0  0  0  0  0  0  0  0
   10.9328    0.3974    1.1814 H   0  0  0  0  0  0  0  0  0  0  0  0
    9.2166   -2.0135   -0.3361 H   0  0  0  0  0  0  0  0  0  0  0  0
    8.6724   -2.8152    1.1562 H   0  0  0  0  0  0  0  0  0  0  0  0
    8.6741    0.2675    0.7889 H   0  0  0  0  0  0  0  0  0  0  0  0
    8.0530   -0.6566    2.1855 H   0  0  0  0  0  0  0  0  0  0  0  0
    6.6130   -1.9044    0.1677 H   0  0  0  0  0  0  0  0  0  0  0  0
    6.0593   -0.5421    1.1620 H   0  0  0  0  0  0  0  0  0  0  0  0
    6.8710    1.0998   -0.5941 H   0  0  0  0  0  0  0  0  0  0  0  0
    7.4824   -1.4590   -2.2108 H   0  0  0  0  0  0  0  0  0  0  0  0
    8.6599   -0.1907   -1.6649 H   0  0  0  0  0  0  0  0  0  0  0  0
    7.4300    0.2169   -2.8867 H   0  0  0  0  0  0  0  0  0  0  0  0
    5.1503    0.2330   -2.4440 H   0  0  0  0  0  0  0  0  0  0  0  0
    4.8034   -1.0800   -1.2785 H   0  0  0  0  0  0  0  0  0  0  0  0
    4.4388    0.8891    0.4687 H   0  0  0  0  0  0  0  0  0  0  0  0
    4.4587    1.9749   -0.9403 H   0  0  0  0  0  0  0  0  0  0  0  0
    2.1651    1.3608   -0.2487 H   0  0  0  0  0  0  0  0  0  0  0  0
    2.5456   -0.3859   -0.3865 H   0  0  0  0  0  0  0  0  0  0  0  0
    2.9096   -0.0859   -2.8750 H   0  0  0  0  0  0  0  0  0  0  0  0
    3.5195    2.2280   -3.1066 H   0  0  0  0  0  0  0  0  0  0  0  0
    1.9634    2.0199   -3.9595 H   0  0  0  0  0  0  0  0  0  0  0  0
    2.0039    2.8104   -2.3347 H   0  0  0  0  0  0  0  0  0  0  0  0
    0.8099   -0.9829   -2.1367 H   0  0  0  0  0  0  0  0  0  0  0  0
    0.5783    0.0767   -3.5327 H   0  0  0  0  0  0  0  0  0  0  0  0
   -1.1602    0.9350   -2.3596 H   0  0  0  0  0  0  0  0  0  0  0  0
    0.0703    1.9278   -1.5329 H   0  0  0  0  0  0  0  0  0  0  0  0
    0.1930    0.2429    0.3347 H   0  0  0  0  0  0  0  0  0  0  0  0
   -0.9175   -0.8340   -0.5636 H   0  0  0  0  0  0  0  0  0  0  0  0
   -1.4598    2.9718   -0.2633 H   0  0  0  0  0  0  0  0  0  0  0  0
   -2.4479    2.8359    1.2018 H   0  0  0  0  0  0  0  0  0  0  0  0
   -0.6870    2.4565    1.2890 H   0  0  0  0  0  0  0  0  0  0  0  0
   -1.4150    0.2366    2.3616 H   0  0  0  0  0  0  0  0  0  0  0  0
   -2.2778   -0.9829    1.3705 H   0  0  0  0  0  0  0  0  0  0  0  0
   -3.4658    1.4834    2.7552 H   0  0  0  0  0  0  0  0  0  0  0  0
   -3.8242   -0.2560    2.9789 H   0  0  0  0  0  0  0  0  0  0  0  0
   -6.2807   -0.4489    3.4631 H   0  0  0  0  0  0  0  0  0  0  0  0
   -5.7576    1.2751    3.6258 H   0  0  0  0  0  0  0  0  0  0  0  0
   -7.4448    0.9128    3.2218 H   0  0  0  0  0  0  0  0  0  0  0  0
  -10.3238   -1.0188    3.1063 H   0  0  0  0  0  0  0  0  0  0  0  0
  -10.8051    0.1231    1.8125 H   0  0  0  0  0  0  0  0  0  0  0  0
  -12.0555   -2.0889    1.7817 H   0  0  0  0  0  0  0  0  0  0  0  0
  -10.5165   -2.9453    1.4690 H   0  0  0  0  0  0  0  0  0  0  0  0
  -12.1957   -3.6280   -0.5027 H   0  0  0  0  0  0  0  0  0  0  0  0
   -8.7740    1.1418   -1.3436 H   0  0  0  0  0  0  0  0  0  0  0  0
   -8.0020   -0.2618   -2.1763 H   0  0  0  0  0  0  0  0  0  0  0  0
   -7.5856    1.4415   -2.6215 H   0  0  0  0  0  0  0  0  0  0  0  0
   -5.5631    0.1395   -3.2096 H   0  0  0  0  0  0  0  0  0  0  0  0
   -5.2084    1.9025   -2.9814 H   0  0  0  0  0  0  0  0  0  0  0  0
   -3.9125    0.6685   -2.7972 H   0  0  0  0  0  0  0  0  0  0  0  0
  1  2  1  0
  2  3  1  0
  2  4  1  0
  4  5  1  0
  5  6  1  0
  6  7  1  0
  7  8  1  0
  7  9  1  0
  9 10  1  0
 10 11  1  0
 11 12  1  0
 12 13  1  0
 12 14  1  0
 14 15  1  0
 15 16  1  0
 16 17  1  0
 17 18  1  0
 17 19  1  0
 19 20  1  0
 20 21  1  0
 21 22  2  0
 22 23  1  0
 22 24  1  0
 24 25  1  0
 25 26  1  0
 26 27  2  0
 26 28  1  0
 28 29  1  0
 29 30  1  0
 30 31  2  0
 30 32  1  0
 24 33  2  0
 33 34  1  0
 33 35  1  0
 35 36  1  0
 35 37  2  0
 37 21  1  0
 37 38  1  0
 38 17  1  0
  1 39  1  0
  1 40  1  0
  1 41  1  0
  2 42  1  0
  3 43  1  0
  3 44  1  0
  3 45  1  0
  4 46  1  0
  4 47  1  0
  5 48  1  0
  5 49  1  0
  6 50  1  0
  6 51  1  0
  7 52  1  0
  8 53  1  0
  8 54  1  0
  8 55  1  0
  9 56  1  0
  9 57  1  0
 10 58  1  0
 10 59  1  0
 11 60  1  0
 11 61  1  0
 12 62  1  0
 13 63  1  0
 13 64  1  0
 13 65  1  0
 14 66  1  0
 14 67  1  0
 15 68  1  0
 15 69  1  0
 16 70  1  0
 16 71  1  0
 18 72  1  0
 18 73  1  0
 18 74  1  0
 19 75  1  0
 19 76  1  0
 20 77  1  0
 20 78  1  0
 23 79  1  0
 23 80  1  0
 23 81  1  0
 28 82  1  0
 28 83  1  0
 29 84  1  0
 29 85  1  0
 32 86  1  0
 34 87  1  0
 34 88  1  0
 34 89  1  0
 36 90  1  0
 36 91  1  0
 36 92  1  0
M  END
> <ID>
HT3909

> <Class>
0.0

> <Clusters>
229

> <Fold>
3

$$$$