
     RDKit          3D

 37 38  0  0  0  0  0  0  0  0999 V2000
    1.2009   -2.3688    0.2778 C   0  0  0  0  0  0  0  0  0  0  0  0
    0.4151   -1.0517    0.4891 C   0  0  0  0  0  0  0  0  0  0  0  0
    0.5113   -0.5955    1.9677 C   0  0  0  0  0  0  0  0  0  0  0  0
    0.9190   -0.0518   -0.4106 O   0  0  0  0  0  0  0  0  0  0  0  0
    2.1918    0.5491   -0.4688 C   0  0  0  0  0  0  0  0  0  0  0  0
    3.2156    0.3272    0.4757 C   0  0  0  0  0  0  0  0  0  0  0  0
    4.4500    0.9712    0.3427 C   0  0  0  0  0  0  0  0  0  0  0  0
    4.6782    1.8428   -0.7255 C   0  0  0  0  0  0  0  0  0  0  0  0
    6.2288    2.6469   -0.8885 Cl  0  0  0  0  0  0  0  0  0  0  0  0
    3.6682    2.0726   -1.6625 C   0  0  0  0  0  0  0  0  0  0  0  0
    2.4349    1.4287   -1.5326 C   0  0  0  0  0  0  0  0  0  0  0  0
   -1.0590   -1.2696    0.1369 C   0  0  0  0  0  0  0  0  0  0  0  0
   -1.4657   -2.4411   -0.1065 O   0  0  0  0  0  0  0  0  0  0  0  0
   -2.0204   -0.1852    0.0958 N   0  0  0  0  0  0  0  0  0  0  0  0
   -1.6714    1.2275    0.2355 C   0  0  0  0  0  0  0  0  0  0  0  0
   -3.1727    2.2243    0.0028 S   0  0  0  0  0  0  0  0  0  0  0  0
   -4.2069    0.7844    0.3754 C   0  0  0  0  0  0  0  0  0  0  0  0
   -3.4476   -0.4567   -0.0778 C   0  0  0  0  0  0  0  0  0  0  0  0
   -3.7659   -0.7870   -1.5138 C   0  0  0  0  0  0  0  0  0  0  0  0
   -2.9103   -0.6089   -2.4234 O   0  0  0  0  0  0  0  0  0  0  0  0
   -5.0238   -1.2866   -1.8385 O   0  0  0  0  0  0  0  0  0  0  0  0
    1.1148   -2.6998   -0.7796 H   0  0  0  0  0  0  0  0  0  0  0  0
    0.8052   -3.1703    0.9387 H   0  0  0  0  0  0  0  0  0  0  0  0
    2.2774   -2.2529    0.5038 H   0  0  0  0  0  0  0  0  0  0  0  0
    1.3455   -1.0935    2.5044 H   0  0  0  0  0  0  0  0  0  0  0  0
   -0.4107   -0.8458    2.5364 H   0  0  0  0  0  0  0  0  0  0  0  0
    0.6737    0.4998    2.0361 H   0  0  0  0  0  0  0  0  0  0  0  0
    3.0841   -0.3263    1.3190 H   0  0  0  0  0  0  0  0  0  0  0  0
    5.2285    0.7927    1.0737 H   0  0  0  0  0  0  0  0  0  0  0  0
    3.8368    2.7489   -2.4916 H   0  0  0  0  0  0  0  0  0  0  0  0
    1.6586    1.6160   -2.2642 H   0  0  0  0  0  0  0  0  0  0  0  0
   -0.9416    1.5291   -0.5422 H   0  0  0  0  0  0  0  0  0  0  0  0
   -1.2721    1.4288    1.2487 H   0  0  0  0  0  0  0  0  0  0  0  0
   -5.1990    0.8805   -0.1161 H   0  0  0  0  0  0  0  0  0  0  0  0
   -4.3601    0.7458    1.4758 H   0  0  0  0  0  0  0  0  0  0  0  0
   -3.7485   -1.3150    0.5626 H   0  0  0  0  0  0  0  0  0  0  0  0
   -5.2628   -1.5097   -2.7970 H   0  0  0  0  0  0  0  0  0  0  0  0
  1  2  1  0
  2  3  1  0
  2  4  1  0
  4  5  1  0
  5  6  2  0
  6  7  1  0
  7  8  2  0
  8  9  1  0
  8 10  1  0
 10 11  2  0
 11  5  1  0
  2 12  1  0
 12 13  2  0
 12 14  1  0
 14 15  1  0
 15 16  1  0
 16 17  1  0
 17 18  1  0
 18 14  1  0
 18 19  1  0
 19 20  2  0
 19 21  1  0
  1 22  1  0
  1 23  1  0
  1 24  1  0
  3 25  1  0
  3 26  1  0
  3 27  1  0
  6 28  1  0
  7 29  1  0
 10 30  1  0
 11 31  1  0
 15 32  1  0
 15 33  1  0
 17 34  1  0
 17 35  1  0
 18 36  1  0
 21 37  1  0
M  END
> <ID>
HT2063

> <Class>
0.0

> <Clusters>
56

> <Fold>
3

$$$$