
     RDKit          3D

  7  6  0  0  0  0  0  0  0  0999 V2000
   -0.6471   -0.7301    0.4828 N   0  0  0  0  0  0  0  0  0  0  0  0
    0.0787    0.4598    0.1809 C   0  0  0  0  0  0  0  0  0  0  0  0
   -0.5949    1.9261    0.4417 S   0  0  0  0  0  0  0  0  0  0  0  0
    1.7349    0.3554   -0.4843 S   0  0  0  0  0  0  0  0  0  0  0  0
   -1.6149   -0.6817    0.8723 H   0  0  0  0  0  0  0  0  0  0  0  0
   -0.2155   -1.6657    0.3152 H   0  0  0  0  0  0  0  0  0  0  0  0
    1.2588    0.3361   -1.8086 H   0  0  0  0  0  0  0  0  0  0  0  0
  1  2  1  0
  2  3  2  0
  2  4  1  0
  1  5  1  0
  1  6  1  0
  4  7  1  0
M  END
> <ID>
HT2388

> <Class>
0.0

> <Clusters>
122

> <Fold>
3

$$$$