
     RDKit          3D

 52 54  0  0  0  0  0  0  0  0999 V2000
    0.1118   -2.3500   -1.5141 C   0  0  0  0  0  0  0  0  0  0  0  0
    0.3816   -1.4946   -0.3380 N   0  0  0  0  0  0  0  0  0  0  0  0
   -0.8295   -1.1862    0.4681 C   0  0  0  0  0  0  0  0  0  0  0  0
   -1.9051   -0.4510   -0.3717 C   0  0  0  0  0  0  0  0  0  0  0  0
   -2.9554    0.2851    0.4858 C   0  0  0  0  0  0  0  0  0  0  0  0
   -3.8144   -0.6439    1.0941 O   0  0  0  0  0  0  0  0  0  0  0  0
   -3.7644    1.2340   -0.3737 C   0  0  0  0  0  0  0  0  0  0  0  0
   -3.6732    2.6236   -0.1776 C   0  0  0  0  0  0  0  0  0  0  0  0
   -4.4201    3.4994   -0.9716 C   0  0  0  0  0  0  0  0  0  0  0  0
   -5.2648    2.9978   -1.9651 C   0  0  0  0  0  0  0  0  0  0  0  0
   -5.3652    1.6190   -2.1661 C   0  0  0  0  0  0  0  0  0  0  0  0
   -4.6204    0.7391   -1.3750 C   0  0  0  0  0  0  0  0  0  0  0  0
   -1.3821   -2.4487    1.1799 C   0  0  0  0  0  0  0  0  0  0  0  0
   -0.2679   -3.4089    1.6340 C   0  0  0  0  0  0  0  0  0  0  0  0
    1.0625   -2.6793    1.8104 C   0  0  0  0  0  0  0  0  0  0  0  0
    1.5175   -2.0053    0.4866 C   0  0  0  0  0  0  0  0  0  0  0  0
    2.4909   -0.8480    0.7995 C   0  0  0  0  0  0  0  0  0  0  0  0
    3.1666   -0.2570   -0.4188 C   0  0  0  0  0  0  0  0  0  0  0  0
    2.9610   -0.7662   -1.5549 O   0  0  0  0  0  0  0  0  0  0  0  0
    4.0804    0.9132   -0.3046 C   0  0  0  0  0  0  0  0  0  0  0  0
    4.4001    1.4790    0.9475 C   0  0  0  0  0  0  0  0  0  0  0  0
    5.2598    2.5786    1.0314 C   0  0  0  0  0  0  0  0  0  0  0  0
    5.8119    3.1282   -0.1266 C   0  0  0  0  0  0  0  0  0  0  0  0
    5.5062    2.5792   -1.3727 C   0  0  0  0  0  0  0  0  0  0  0  0
    4.6474    1.4797   -1.4640 C   0  0  0  0  0  0  0  0  0  0  0  0
   -0.3579   -3.3124   -1.2285 H   0  0  0  0  0  0  0  0  0  0  0  0
   -0.5446   -1.8225   -2.2352 H   0  0  0  0  0  0  0  0  0  0  0  0
    1.0505   -2.5659   -2.0667 H   0  0  0  0  0  0  0  0  0  0  0  0
   -0.5153   -0.4714    1.2621 H   0  0  0  0  0  0  0  0  0  0  0  0
   -2.4205   -1.1672   -1.0477 H   0  0  0  0  0  0  0  0  0  0  0  0
   -1.3852    0.3000   -1.0081 H   0  0  0  0  0  0  0  0  0  0  0  0
   -2.4179    0.8626    1.2743 H   0  0  0  0  0  0  0  0  0  0  0  0
   -4.2921   -0.1606    1.8184 H   0  0  0  0  0  0  0  0  0  0  0  0
   -3.0226    3.0308    0.5863 H   0  0  0  0  0  0  0  0  0  0  0  0
   -4.3438    4.5679   -0.8166 H   0  0  0  0  0  0  0  0  0  0  0  0
   -5.8421    3.6775   -2.5784 H   0  0  0  0  0  0  0  0  0  0  0  0
   -6.0214    1.2314   -2.9347 H   0  0  0  0  0  0  0  0  0  0  0  0
   -4.7130   -0.3270   -1.5403 H   0  0  0  0  0  0  0  0  0  0  0  0
   -2.0812   -2.9999    0.5140 H   0  0  0  0  0  0  0  0  0  0  0  0
   -1.9578   -2.1294    2.0755 H   0  0  0  0  0  0  0  0  0  0  0  0
   -0.5574   -3.8855    2.5957 H   0  0  0  0  0  0  0  0  0  0  0  0
   -0.1390   -4.2258    0.8919 H   0  0  0  0  0  0  0  0  0  0  0  0
    1.8375   -3.4022    2.1470 H   0  0  0  0  0  0  0  0  0  0  0  0
    0.9436   -1.9232    2.6186 H   0  0  0  0  0  0  0  0  0  0  0  0
    2.0980   -2.7767   -0.0714 H   0  0  0  0  0  0  0  0  0  0  0  0
    1.9316   -0.0414    1.3212 H   0  0  0  0  0  0  0  0  0  0  0  0
    3.2839   -1.2204    1.4843 H   0  0  0  0  0  0  0  0  0  0  0  0
    3.9940    1.0783    1.8660 H   0  0  0  0  0  0  0  0  0  0  0  0
    5.4987    3.0049    1.9973 H   0  0  0  0  0  0  0  0  0  0  0  0
    6.4771    3.9794   -0.0583 H   0  0  0  0  0  0  0  0  0  0  0  0
    5.9349    3.0061   -2.2703 H   0  0  0  0  0  0  0  0  0  0  0  0
    4.4268    1.0756   -2.4441 H   0  0  0  0  0  0  0  0  0  0  0  0
  1  2  1  0
  2  3  1  0
  3  4  1  0
  4  5  1  0
  5  6  1  0
  5  7  1  0
  7  8  2  0
  8  9  1  0
  9 10  2  0
 10 11  1  0
 11 12  2  0
 12  7  1  0
  3 13  1  0
 13 14  1  0
 14 15  1  0
 15 16  1  0
 16  2  1  0
 16 17  1  0
 17 18  1  0
 18 19  2  0
 18 20  1  0
 20 21  2  0
 21 22  1  0
 22 23  2  0
 23 24  1  0
 24 25  2  0
 25 20  1  0
  1 26  1  0
  1 27  1  0
  1 28  1  0
  3 29  1  0
  4 30  1  0
  4 31  1  0
  5 32  1  0
  6 33  1  0
  8 34  1  0
  9 35  1  0
 10 36  1  0
 11 37  1  0
 12 38  1  0
 13 39  1  0
 13 40  1  0
 14 41  1  0
 14 42  1  0
 15 43  1  0
 15 44  1  0
 16 45  1  0
 17 46  1  0
 17 47  1  0
 21 48  1  0
 22 49  1  0
 23 50  1  0
 24 51  1  0
 25 52  1  0
M  END
> <ID>
HT3543

> <Class>
0.0

> <Clusters>
30

> <Fold>
3

$$$$