
     RDKit          3D

 45 46  0  0  0  0  0  0  0  0999 V2000
    5.5122    2.6892   -0.2159 C   0  0  0  0  0  0  0  0  0  0  0  0
    4.2856    2.6394   -1.0756 C   0  0  0  0  0  0  0  0  0  0  0  0
    3.5910    3.6820   -1.2088 O   0  0  0  0  0  0  0  0  0  0  0  0
    3.8946    1.4456   -1.7716 N   0  0  0  0  0  0  0  0  0  0  0  0
    4.5148    0.1368   -1.5676 C   0  0  0  0  0  0  0  0  0  0  0  0
    3.9106   -0.5607   -0.3514 C   0  0  0  0  0  0  0  0  0  0  0  0
    2.5085   -0.7448   -0.5477 O   0  0  0  0  0  0  0  0  0  0  0  0
    1.5228   -0.1718    0.2650 C   0  0  0  0  0  0  0  0  0  0  0  0
    1.8355    0.5435    1.2565 O   0  0  0  0  0  0  0  0  0  0  0  0
    0.0819   -0.4576   -0.0266 C   0  0  0  0  0  0  0  0  0  0  0  0
   -0.7127    0.6779    0.3272 O   0  0  0  0  0  0  0  0  0  0  0  0
   -2.0774    0.8371    0.0353 C   0  0  0  0  0  0  0  0  0  0  0  0
   -2.7358    1.9603    0.5473 C   0  0  0  0  0  0  0  0  0  0  0  0
   -4.0953    2.1653    0.2955 C   0  0  0  0  0  0  0  0  0  0  0  0
   -4.8259    1.2367   -0.4659 C   0  0  0  0  0  0  0  0  0  0  0  0
   -4.1582    0.1246   -1.0068 C   0  0  0  0  0  0  0  0  0  0  0  0
   -2.7991   -0.0805   -0.7514 C   0  0  0  0  0  0  0  0  0  0  0  0
   -6.2805    1.4814   -0.7797 C   0  0  0  0  0  0  0  0  0  0  0  0
   -6.9516    0.2829   -0.9513 F   0  0  0  0  0  0  0  0  0  0  0  0
   -6.3766    2.2212   -1.9430 F   0  0  0  0  0  0  0  0  0  0  0  0
   -6.8929    2.1762    0.2487 F   0  0  0  0  0  0  0  0  0  0  0  0
   -0.3515   -1.6807    0.7477 C   0  0  0  0  0  0  0  0  0  0  0  0
   -0.5740   -1.6081    2.1345 C   0  0  0  0  0  0  0  0  0  0  0  0
   -0.9649   -2.7452    2.8476 C   0  0  0  0  0  0  0  0  0  0  0  0
   -1.1320   -3.9653    2.1855 C   0  0  0  0  0  0  0  0  0  0  0  0
   -1.6225   -5.3909    3.0820 Cl  0  0  0  0  0  0  0  0  0  0  0  0
   -0.9041   -4.0485    0.8082 C   0  0  0  0  0  0  0  0  0  0  0  0
   -0.5130   -2.9132    0.0919 C   0  0  0  0  0  0  0  0  0  0  0  0
    5.4235    1.9711    0.6236 H   0  0  0  0  0  0  0  0  0  0  0  0
    5.6461    3.7069    0.2088 H   0  0  0  0  0  0  0  0  0  0  0  0
    6.4079    2.4438   -0.8242 H   0  0  0  0  0  0  0  0  0  0  0  0
    3.0951    1.5060   -2.4422 H   0  0  0  0  0  0  0  0  0  0  0  0
    5.6139    0.2380   -1.4481 H   0  0  0  0  0  0  0  0  0  0  0  0
    4.3365   -0.4934   -2.4655 H   0  0  0  0  0  0  0  0  0  0  0  0
    4.3855   -1.5573   -0.2321 H   0  0  0  0  0  0  0  0  0  0  0  0
    4.1265    0.0235    0.5668 H   0  0  0  0  0  0  0  0  0  0  0  0
   -0.0032   -0.6297   -1.1224 H   0  0  0  0  0  0  0  0  0  0  0  0
   -2.1897    2.6795    1.1452 H   0  0  0  0  0  0  0  0  0  0  0  0
   -4.5751    3.0501    0.6956 H   0  0  0  0  0  0  0  0  0  0  0  0
   -4.6870   -0.5856   -1.6308 H   0  0  0  0  0  0  0  0  0  0  0  0
   -2.3216   -0.9501   -1.1788 H   0  0  0  0  0  0  0  0  0  0  0  0
   -0.4464   -0.6709    2.6620 H   0  0  0  0  0  0  0  0  0  0  0  0
   -1.1364   -2.6767    3.9140 H   0  0  0  0  0  0  0  0  0  0  0  0
   -1.0283   -4.9919    0.2921 H   0  0  0  0  0  0  0  0  0  0  0  0
   -0.3370   -2.9962   -0.9734 H   0  0  0  0  0  0  0  0  0  0  0  0
  1  2  1  0
  2  3  2  0
  2  4  1  0
  4  5  1  0
  5  6  1  0
  6  7  1  0
  7  8  1  0
  8  9  2  0
  8 10  1  0
 10 11  1  0
 11 12  1  0
 12 13  2  0
 13 14  1  0
 14 15  2  0
 15 16  1  0
 16 17  2  0
 17 12  1  0
 15 18  1  0
 18 19  1  0
 18 20  1  0
 18 21  1  0
 10 22  1  0
 22 23  2  0
 23 24  1  0
 24 25  2  0
 25 26  1  0
 25 27  1  0
 27 28  2  0
 28 22  1  0
  1 29  1  0
  1 30  1  0
  1 31  1  0
  4 32  1  0
  5 33  1  0
  5 34  1  0
  6 35  1  0
  6 36  1  0
 10 37  1  0
 13 38  1  0
 14 39  1  0
 16 40  1  0
 17 41  1  0
 23 42  1  0
 24 43  1  0
 27 44  1  0
 28 45  1  0
M  END
> <ID>
HT3797

> <Class>
0.0

> <Clusters>
56

> <Fold>
3

$$$$