
     RDKit          3D

 44 46  0  0  0  0  0  0  0  0999 V2000
   -5.0102   -1.0857    0.5446 C   0  0  0  0  0  0  0  0  0  0  0  0
   -3.6291   -0.6694    0.2418 N   0  0  0  0  0  0  0  0  0  0  0  0
   -2.8618   -0.3390    1.4495 C   0  0  2  0  0  0  0  0  0  0  0  0
   -3.2870    1.0834    1.8498 C   0  0  0  0  0  0  0  0  0  0  0  0
   -3.7614    1.7104    0.5479 C   0  0  0  0  0  0  0  0  0  0  0  0
   -3.5711    0.5985   -0.4969 C   0  0  1  0  0  0  0  0  0  0  0  0
   -2.1657    0.7008   -1.1546 C   0  0  0  0  0  0  0  0  0  0  0  0
   -1.1019   -0.1836   -0.4453 C   0  0  2  0  0  0  0  0  0  0  0  0
   -1.3524   -0.3741    1.0771 C   0  0  0  0  0  0  0  0  0  0  0  0
    0.1964    0.3792   -0.6466 O   0  0  0  0  0  0  0  0  0  0  0  0
    1.2424   -0.2677   -1.3154 C   0  0  0  0  0  0  0  0  0  0  0  0
    1.0903   -1.4314   -1.7801 O   0  0  0  0  0  0  0  0  0  0  0  0
    2.5760    0.4236   -1.4147 C   0  0  2  0  0  0  0  0  0  0  0  0
    3.2894    0.1342   -2.7498 C   0  0  0  0  0  0  0  0  0  0  0  0
    2.5090    0.5663   -3.8324 O   0  0  0  0  0  0  0  0  0  0  0  0
    3.4474    0.0486   -0.2328 C   0  0  0  0  0  0  0  0  0  0  0  0
    3.8486   -1.2853   -0.0205 C   0  0  0  0  0  0  0  0  0  0  0  0
    4.6475   -1.6179    1.0776 C   0  0  0  0  0  0  0  0  0  0  0  0
    5.0534   -0.6274    1.9746 C   0  0  0  0  0  0  0  0  0  0  0  0
    4.6607    0.6981    1.7759 C   0  0  0  0  0  0  0  0  0  0  0  0
    3.8617    1.0367    0.6795 C   0  0  0  0  0  0  0  0  0  0  0  0
   -4.9965   -2.0286    1.1315 H   0  0  0  0  0  0  0  0  0  0  0  0
   -5.5551   -1.2904   -0.4013 H   0  0  0  0  0  0  0  0  0  0  0  0
   -5.5683   -0.3157    1.1189 H   0  0  0  0  0  0  0  0  0  0  0  0
   -3.0585   -1.0562    2.2787 H   0  0  0  0  0  0  0  0  0  0  0  0
   -2.4692    1.6765    2.3131 H   0  0  0  0  0  0  0  0  0  0  0  0
   -4.1278    1.0343    2.5759 H   0  0  0  0  0  0  0  0  0  0  0  0
   -3.1976    2.6393    0.3143 H   0  0  0  0  0  0  0  0  0  0  0  0
   -4.8390    1.9743    0.6244 H   0  0  0  0  0  0  0  0  0  0  0  0
   -4.3570    0.6597   -1.2838 H   0  0  0  0  0  0  0  0  0  0  0  0
   -1.8170    1.7554   -1.1980 H   0  0  0  0  0  0  0  0  0  0  0  0
   -2.2434    0.3636   -2.2115 H   0  0  0  0  0  0  0  0  0  0  0  0
   -1.1684   -1.1944   -0.9082 H   0  0  0  0  0  0  0  0  0  0  0  0
   -0.7770    0.3810    1.6555 H   0  0  0  0  0  0  0  0  0  0  0  0
   -0.9370   -1.3625    1.3725 H   0  0  0  0  0  0  0  0  0  0  0  0
    2.3775    1.5185   -1.3884 H   0  0  0  0  0  0  0  0  0  0  0  0
    3.4772   -0.9545   -2.8641 H   0  0  0  0  0  0  0  0  0  0  0  0
    4.2798    0.6448   -2.7681 H   0  0  0  0  0  0  0  0  0  0  0  0
    2.5890    1.5554   -3.8643 H   0  0  0  0  0  0  0  0  0  0  0  0
    3.5415   -2.0686   -0.7012 H   0  0  0  0  0  0  0  0  0  0  0  0
    4.9511   -2.6451    1.2336 H   0  0  0  0  0  0  0  0  0  0  0  0
    5.6716   -0.8871    2.8242 H   0  0  0  0  0  0  0  0  0  0  0  0
    4.9751    1.4646    2.4724 H   0  0  0  0  0  0  0  0  0  0  0  0
    3.5671    2.0699    0.5446 H   0  0  0  0  0  0  0  0  0  0  0  0
  1  2  1  0
  2  3  1  0
  3  4  1  0
  4  5  1  0
  6  5  1  0
  6  2  1  0
  6  7  1  0
  7  8  1  0
  8  9  1  0
  9  3  1  0
  8 10  1  0
 10 11  1  0
 11 12  2  0
 11 13  1  0
 13 14  1  0
 14 15  1  0
 13 16  1  0
 16 17  2  0
 17 18  1  0
 18 19  2  0
 19 20  1  0
 20 21  2  0
 21 16  1  0
  1 22  1  0
  1 23  1  0
  1 24  1  0
  3 25  1  1
  4 26  1  0
  4 27  1  0
  5 28  1  0
  5 29  1  0
  6 30  1  6
  7 31  1  0
  7 32  1  0
  8 33  1  6
  9 34  1  0
  9 35  1  0
 13 36  1  1
 14 37  1  0
 14 38  1  0
 15 39  1  0
 17 40  1  0
 18 41  1  0
 19 42  1  0
 20 43  1  0
 21 44  1  0
M  END
> <ID>
HT0200

> <Class>
0.0

> <Clusters>
24

> <Fold>
3

$$$$