
     RDKit          3D

 64 68  0  0  0  0  0  0  0  0999 V2000
   -1.2051    4.9840   -0.2423 C   0  0  0  0  0  0  0  0  0  0  0  0
   -1.5310    3.8906    0.7729 C   0  0  0  0  0  0  0  0  0  0  0  0
   -2.7756    3.0838    0.3828 C   0  0  0  0  0  0  0  0  0  0  0  0
   -2.5392    2.1271   -1.1602 S   0  0  0  0  0  0  0  0  0  0  0  0
   -1.5655    0.8354   -0.3944 C   0  0  0  0  0  0  0  0  0  0  0  0
   -2.1955   -0.2253    0.2098 N   0  0  0  0  0  0  0  0  0  0  0  0
   -1.4886   -1.2304    0.8136 C   0  0  0  0  0  0  0  0  0  0  0  0
   -2.1556   -2.3323    1.4406 N   0  0  0  0  0  0  0  0  0  0  0  0
   -3.6123   -2.4011    1.4978 C   0  0  2  0  0  0  0  0  0  0  0  0
   -4.1685   -3.8008    1.2639 C   0  0  0  0  0  0  0  0  0  0  0  0
   -4.2400   -2.7563    0.1535 C   0  0  1  0  0  0  0  0  0  0  0  0
   -5.6394   -2.2617   -0.1652 C   0  0  0  0  0  0  0  0  0  0  0  0
   -6.5642   -1.8427    0.8171 C   0  0  0  0  0  0  0  0  0  0  0  0
   -7.8359   -1.3945    0.4466 C   0  0  0  0  0  0  0  0  0  0  0  0
   -8.2039   -1.3581   -0.9003 C   0  0  0  0  0  0  0  0  0  0  0  0
   -9.4393   -0.9233   -1.2529 F   0  0  0  0  0  0  0  0  0  0  0  0
   -7.3003   -1.7736   -1.8813 C   0  0  0  0  0  0  0  0  0  0  0  0
   -7.6567   -1.7437   -3.1900 F   0  0  0  0  0  0  0  0  0  0  0  0
   -6.0276   -2.2234   -1.5159 C   0  0  0  0  0  0  0  0  0  0  0  0
   -0.1041   -1.1354    0.7849 C   0  0  0  0  0  0  0  0  0  0  0  0
    0.8455   -1.9432    1.2916 N   0  0  0  0  0  0  0  0  0  0  0  0
    2.0078   -1.3654    0.9786 N   0  0  0  0  0  0  0  0  0  0  0  0
    1.8154   -0.2380    0.2950 N   0  0  0  0  0  0  0  0  0  0  0  0
    2.8668    0.6664   -0.1782 C   0  0  2  0  0  0  0  0  0  0  0  0
    3.8937   -0.0576   -1.0532 C   0  0  0  0  0  0  0  0  0  0  0  0
    5.2819    0.4496   -0.6254 C   0  0  2  0  0  0  0  0  0  0  0  0
    6.0131   -0.5890    0.0073 O   0  0  0  0  0  0  0  0  0  0  0  0
    6.7264   -1.3665   -0.9373 C   0  0  0  0  0  0  0  0  0  0  0  0
    8.1600   -0.8576   -1.0658 C   0  0  0  0  0  0  0  0  0  0  0  0
    8.8683   -1.6727   -1.9576 O   0  0  0  0  0  0  0  0  0  0  0  0
    5.0284    1.5682    0.3946 C   0  0  1  0  0  0  0  0  0  0  0  0
    5.0038    2.8167   -0.2521 O   0  0  0  0  0  0  0  0  0  0  0  0
    3.6575    1.2594    0.9847 C   0  0  1  0  0  0  0  0  0  0  0  0
    3.0446    2.4191    1.4854 O   0  0  0  0  0  0  0  0  0  0  0  0
    0.4913   -0.0903    0.1773 C   0  0  0  0  0  0  0  0  0  0  0  0
   -0.1995    0.9092   -0.4186 N   0  0  0  0  0  0  0  0  0  0  0  0
   -0.3530    5.5909    0.1296 H   0  0  0  0  0  0  0  0  0  0  0  0
   -2.0799    5.6523   -0.3876 H   0  0  0  0  0  0  0  0  0  0  0  0
   -0.9169    4.5382   -1.2174 H   0  0  0  0  0  0  0  0  0  0  0  0
   -0.6552    3.2194    0.8903 H   0  0  0  0  0  0  0  0  0  0  0  0
   -1.7176    4.3695    1.7580 H   0  0  0  0  0  0  0  0  0  0  0  0
   -3.0444    2.3949    1.2120 H   0  0  0  0  0  0  0  0  0  0  0  0
   -3.6330    3.7747    0.2383 H   0  0  0  0  0  0  0  0  0  0  0  0
   -1.5957   -3.0558    1.9459 H   0  0  0  0  0  0  0  0  0  0  0  0
   -4.1410   -1.7158    2.1884 H   0  0  0  0  0  0  0  0  0  0  0  0
   -3.4024   -4.5895    1.1013 H   0  0  0  0  0  0  0  0  0  0  0  0
   -5.1105   -4.0070    1.8140 H   0  0  0  0  0  0  0  0  0  0  0  0
   -3.5385   -2.9651   -0.6843 H   0  0  0  0  0  0  0  0  0  0  0  0
   -6.3258   -1.8738    1.8700 H   0  0  0  0  0  0  0  0  0  0  0  0
   -8.5387   -1.0793    1.2081 H   0  0  0  0  0  0  0  0  0  0  0  0
   -5.3412   -2.5424   -2.2913 H   0  0  0  0  0  0  0  0  0  0  0  0
    2.4180    1.4950   -0.7733 H   0  0  0  0  0  0  0  0  0  0  0  0
    3.8253   -1.1612   -0.9327 H   0  0  0  0  0  0  0  0  0  0  0  0
    3.7115    0.1781   -2.1246 H   0  0  0  0  0  0  0  0  0  0  0  0
    5.8303    0.8738   -1.5012 H   0  0  0  0  0  0  0  0  0  0  0  0
    6.7589   -2.4120   -0.5640 H   0  0  0  0  0  0  0  0  0  0  0  0
    6.2372   -1.4043   -1.9401 H   0  0  0  0  0  0  0  0  0  0  0  0
    8.1543    0.1905   -1.4408 H   0  0  0  0  0  0  0  0  0  0  0  0
    8.6492   -0.8808   -0.0654 H   0  0  0  0  0  0  0  0  0  0  0  0
    9.7835   -1.2911   -2.0114 H   0  0  0  0  0  0  0  0  0  0  0  0
    5.7986    1.5729    1.2019 H   0  0  0  0  0  0  0  0  0  0  0  0
    5.9497    3.0741   -0.4087 H   0  0  0  0  0  0  0  0  0  0  0  0
    3.7841    0.5081    1.8000 H   0  0  0  0  0  0  0  0  0  0  0  0
    2.2366    2.1192    1.9779 H   0  0  0  0  0  0  0  0  0  0  0  0
  1  2  1  0
  2  3  1  0
  3  4  1  0
  4  5  1  0
  5  6  2  0
  6  7  1  0
  7  8  1  0
  9  8  1  0
  9 10  1  0
 10 11  1  0
 11  9  1  0
 11 12  1  0
 12 13  2  0
 13 14  1  0
 14 15  2  0
 15 16  1  0
 15 17  1  0
 17 18  1  0
 17 19  2  0
 19 12  1  0
  7 20  2  0
 20 21  1  0
 21 22  2  0
 22 23  1  0
 24 23  1  0
 24 25  1  0
 25 26  1  0
 26 27  1  0
 27 28  1  0
 28 29  1  0
 29 30  1  0
 26 31  1  0
 31 32  1  0
 31 33  1  0
 33 24  1  0
 33 34  1  0
 23 35  1  0
 35 20  1  0
 35 36  2  0
 36  5  1  0
  1 37  1  0
  1 38  1  0
  1 39  1  0
  2 40  1  0
  2 41  1  0
  3 42  1  0
  3 43  1  0
  8 44  1  0
  9 45  1  1
 10 46  1  0
 10 47  1  0
 11 48  1  6
 13 49  1  0
 14 50  1  0
 19 51  1  0
 24 52  1  6
 25 53  1  0
 25 54  1  0
 26 55  1  6
 28 56  1  0
 28 57  1  0
 29 58  1  0
 29 59  1  0
 30 60  1  0
 31 61  1  1
 32 62  1  0
 33 63  1  1
 34 64  1  0
M  END
> <ID>
HT2056

> <Class>
0.0

> <Clusters>
118

> <Fold>
3

$$$$