
     RDKit          3D

 47 48  0  0  0  0  0  0  0  0999 V2000
    5.3043    1.6056    1.3556 C   0  0  0  0  0  0  0  0  0  0  0  0
    3.7923    1.7750    1.2573 C   0  0  0  0  0  0  0  0  0  0  0  0
    3.1599    0.5252    0.9907 O   0  0  0  0  0  0  0  0  0  0  0  0
    3.1952   -0.1101   -0.2566 C   0  0  0  0  0  0  0  0  0  0  0  0
    3.7823    0.4368   -1.2319 O   0  0  0  0  0  0  0  0  0  0  0  0
    2.5690   -1.4831   -0.3996 C   0  0  0  0  0  0  0  0  0  0  0  0
    2.4024   -1.8572   -1.8908 C   0  0  0  0  0  0  0  0  0  0  0  0
    3.5013   -2.4963    0.3092 C   0  0  0  0  0  0  0  0  0  0  0  0
    2.9565   -3.9275    0.3331 C   0  0  0  0  0  0  0  0  0  0  0  0
    1.2958   -1.4980    0.2661 O   0  0  0  0  0  0  0  0  0  0  0  0
    0.2170   -0.6718   -0.0754 C   0  0  0  0  0  0  0  0  0  0  0  0
   -0.6296   -1.0058   -1.1412 C   0  0  0  0  0  0  0  0  0  0  0  0
   -1.7086   -0.1799   -1.4691 C   0  0  0  0  0  0  0  0  0  0  0  0
   -1.9570    0.9874   -0.7294 C   0  0  0  0  0  0  0  0  0  0  0  0
   -3.1369    1.8626   -1.0563 C   0  0  0  0  0  0  0  0  0  0  0  0
   -4.2918    1.5518   -0.1415 C   0  0  0  0  0  0  0  0  0  0  0  0
   -4.6482    2.4421    0.8855 C   0  0  0  0  0  0  0  0  0  0  0  0
   -5.7149    2.1432    1.7387 C   0  0  0  0  0  0  0  0  0  0  0  0
   -6.4336    0.9547    1.5740 C   0  0  0  0  0  0  0  0  0  0  0  0
   -7.7707    0.5813    2.6462 Cl  0  0  0  0  0  0  0  0  0  0  0  0
   -6.0843    0.0637    0.5541 C   0  0  0  0  0  0  0  0  0  0  0  0
   -5.0182    0.3596   -0.3007 C   0  0  0  0  0  0  0  0  0  0  0  0
   -1.1267    1.3016    0.3583 C   0  0  0  0  0  0  0  0  0  0  0  0
   -0.0488    0.4739    0.6844 C   0  0  0  0  0  0  0  0  0  0  0  0
    5.5508    0.8533    2.1344 H   0  0  0  0  0  0  0  0  0  0  0  0
    5.7709    2.5748    1.6308 H   0  0  0  0  0  0  0  0  0  0  0  0
    5.7232    1.2732    0.3833 H   0  0  0  0  0  0  0  0  0  0  0  0
    3.4151    2.1597    2.2282 H   0  0  0  0  0  0  0  0  0  0  0  0
    3.5337    2.5150    0.4691 H   0  0  0  0  0  0  0  0  0  0  0  0
    3.3925   -2.0145   -2.3706 H   0  0  0  0  0  0  0  0  0  0  0  0
    1.8059   -2.7865   -1.9998 H   0  0  0  0  0  0  0  0  0  0  0  0
    1.8778   -1.0480   -2.4421 H   0  0  0  0  0  0  0  0  0  0  0  0
    3.6529   -2.1762    1.3642 H   0  0  0  0  0  0  0  0  0  0  0  0
    4.5003   -2.5028   -0.1808 H   0  0  0  0  0  0  0  0  0  0  0  0
    1.9355   -3.9551    0.7683 H   0  0  0  0  0  0  0  0  0  0  0  0
    2.9373   -4.3597   -0.6886 H   0  0  0  0  0  0  0  0  0  0  0  0
    3.6195   -4.5619    0.9585 H   0  0  0  0  0  0  0  0  0  0  0  0
   -0.4626   -1.9111   -1.7089 H   0  0  0  0  0  0  0  0  0  0  0  0
   -2.3538   -0.4543   -2.2945 H   0  0  0  0  0  0  0  0  0  0  0  0
   -3.4530    1.7229   -2.1133 H   0  0  0  0  0  0  0  0  0  0  0  0
   -2.8352    2.9287   -0.9587 H   0  0  0  0  0  0  0  0  0  0  0  0
   -4.0982    3.3638    1.0297 H   0  0  0  0  0  0  0  0  0  0  0  0
   -5.9807    2.8351    2.5278 H   0  0  0  0  0  0  0  0  0  0  0  0
   -6.6373   -0.8577    0.4230 H   0  0  0  0  0  0  0  0  0  0  0  0
   -4.7584   -0.3392   -1.0861 H   0  0  0  0  0  0  0  0  0  0  0  0
   -1.3190    2.1839    0.9564 H   0  0  0  0  0  0  0  0  0  0  0  0
    0.5764    0.7218    1.5317 H   0  0  0  0  0  0  0  0  0  0  0  0
  1  2  1  0
  2  3  1  0
  3  4  1  0
  4  5  2  0
  4  6  1  0
  6  7  1  0
  6  8  1  0
  8  9  1  0
  6 10  1  0
 10 11  1  0
 11 12  2  0
 12 13  1  0
 13 14  2  0
 14 15  1  0
 15 16  1  0
 16 17  2  0
 17 18  1  0
 18 19  2  0
 19 20  1  0
 19 21  1  0
 21 22  2  0
 22 16  1  0
 14 23  1  0
 23 24  2  0
 24 11  1  0
  1 25  1  0
  1 26  1  0
  1 27  1  0
  2 28  1  0
  2 29  1  0
  7 30  1  0
  7 31  1  0
  7 32  1  0
  8 33  1  0
  8 34  1  0
  9 35  1  0
  9 36  1  0
  9 37  1  0
 12 38  1  0
 13 39  1  0
 15 40  1  0
 15 41  1  0
 17 42  1  0
 18 43  1  0
 21 44  1  0
 22 45  1  0
 23 46  1  0
 24 47  1  0
M  END
> <ID>
HT0230

> <Class>
0.0

> <Clusters>
56

> <Fold>
3

$$$$