
     RDKit          3D

 27 27  0  0  0  0  0  0  0  0999 V2000
   -1.8296    2.3955   -0.2220 C   0  0  0  0  0  0  0  0  0  0  0  0
   -2.1805    0.9399   -0.0762 C   0  0  0  0  0  0  0  0  0  0  0  0
   -3.5354    0.5809    0.0071 C   0  0  0  0  0  0  0  0  0  0  0  0
   -3.9066   -0.7577    0.1435 C   0  0  0  0  0  0  0  0  0  0  0  0
   -2.9296   -1.7512    0.1981 C   0  0  0  0  0  0  0  0  0  0  0  0
   -1.5776   -1.4106    0.1164 C   0  0  0  0  0  0  0  0  0  0  0  0
   -1.1868   -0.0627   -0.0216 C   0  0  0  0  0  0  0  0  0  0  0  0
    0.1657    0.3069   -0.1060 O   0  0  0  0  0  0  0  0  0  0  0  0
    1.2616   -0.6037   -0.0572 C   0  0  0  0  0  0  0  0  0  0  0  0
    2.5789    0.1730   -0.1798 C   0  0  0  0  0  0  0  0  0  0  0  0
    2.6852    1.1346    0.8408 O   0  0  0  0  0  0  0  0  0  0  0  0
    3.7882   -0.7768   -0.1606 C   0  0  0  0  0  0  0  0  0  0  0  0
    4.9828   -0.0521   -0.2767 O   0  0  0  0  0  0  0  0  0  0  0  0
   -2.2897    2.7970   -1.1495 H   0  0  0  0  0  0  0  0  0  0  0  0
   -0.7349    2.5659   -0.2778 H   0  0  0  0  0  0  0  0  0  0  0  0
   -2.2235    2.9610    0.6487 H   0  0  0  0  0  0  0  0  0  0  0  0
   -4.3056    1.3416   -0.0337 H   0  0  0  0  0  0  0  0  0  0  0  0
   -4.9536   -1.0249    0.2070 H   0  0  0  0  0  0  0  0  0  0  0  0
   -3.2202   -2.7885    0.3038 H   0  0  0  0  0  0  0  0  0  0  0  0
   -0.8442   -2.2038    0.1615 H   0  0  0  0  0  0  0  0  0  0  0  0
    1.2411   -1.1614    0.9049 H   0  0  0  0  0  0  0  0  0  0  0  0
    1.1795   -1.3245   -0.9001 H   0  0  0  0  0  0  0  0  0  0  0  0
    2.5721    0.7063   -1.1556 H   0  0  0  0  0  0  0  0  0  0  0  0
    2.6880    0.6523    1.7091 H   0  0  0  0  0  0  0  0  0  0  0  0
    3.7087   -1.5179   -0.9888 H   0  0  0  0  0  0  0  0  0  0  0  0
    3.8088   -1.3415    0.7961 H   0  0  0  0  0  0  0  0  0  0  0  0
    5.0572    0.2222   -1.2280 H   0  0  0  0  0  0  0  0  0  0  0  0
  1  2  1  0
  2  3  2  0
  3  4  1  0
  4  5  2  0
  5  6  1  0
  6  7  2  0
  7  2  1  0
  7  8  1  0
  8  9  1  0
  9 10  1  0
 10 11  1  0
 10 12  1  0
 12 13  1  0
  1 14  1  0
  1 15  1  0
  1 16  1  0
  3 17  1  0
  4 18  1  0
  5 19  1  0
  6 20  1  0
  9 21  1  0
  9 22  1  0
 10 23  1  0
 11 24  1  0
 12 25  1  0
 12 26  1  0
 13 27  1  0
M  END
> <ID>
HT2789

> <Class>
0.0

> <Clusters>
121

> <Fold>
3

$$$$