
     RDKit          3D

 48 49  0  0  0  0  0  0  0  0999 V2000
    4.5343    0.9276    2.5226 C   0  0  0  0  0  0  0  0  0  0  0  0
    3.5213    1.0031    1.3835 C   0  0  0  0  0  0  0  0  0  0  0  0
    3.5226   -0.2617    0.6127 N   0  0  0  0  0  0  0  0  0  0  0  0
    4.5138   -0.2303   -0.4887 C   0  0  0  0  0  0  0  0  0  0  0  0
    4.7928   -1.6279   -1.0409 C   0  0  0  0  0  0  0  0  0  0  0  0
    2.1574   -0.6593    0.1875 C   0  0  0  0  0  0  0  0  0  0  0  0
    1.5177    0.2905   -0.8452 C   0  0  0  0  0  0  0  0  0  0  0  0
    0.1405   -0.0307   -1.0230 O   0  0  0  0  0  0  0  0  0  0  0  0
   -0.8523    0.2759   -0.0825 C   0  0  0  0  0  0  0  0  0  0  0  0
   -0.5759    0.9986    0.9162 O   0  0  0  0  0  0  0  0  0  0  0  0
   -2.2579   -0.2796   -0.2349 C   0  0  0  0  0  0  0  0  0  0  0  0
   -2.4927   -1.3554    0.8413 C   0  0  0  0  0  0  0  0  0  0  0  0
   -1.8787   -2.6365    0.2911 C   0  0  0  0  0  0  0  0  0  0  0  0
   -1.9015   -2.5018   -1.2292 C   0  0  0  0  0  0  0  0  0  0  0  0
   -2.4145   -1.0957   -1.5351 C   0  0  0  0  0  0  0  0  0  0  0  0
   -3.2536    0.8858   -0.1789 C   0  0  0  0  0  0  0  0  0  0  0  0
   -3.4136    1.7250   -1.3026 C   0  0  0  0  0  0  0  0  0  0  0  0
   -4.2869    2.8157   -1.2627 C   0  0  0  0  0  0  0  0  0  0  0  0
   -4.9967    3.1029   -0.0963 C   0  0  0  0  0  0  0  0  0  0  0  0
   -4.8242    2.3080    1.0373 C   0  0  0  0  0  0  0  0  0  0  0  0
   -3.9528    1.2150    1.0044 C   0  0  0  0  0  0  0  0  0  0  0  0
    5.5659    0.8242    2.1284 H   0  0  0  0  0  0  0  0  0  0  0  0
    4.4819    1.8554    3.1306 H   0  0  0  0  0  0  0  0  0  0  0  0
    4.3067    0.0587    3.1759 H   0  0  0  0  0  0  0  0  0  0  0  0
    2.5269    1.1976    1.8458 H   0  0  0  0  0  0  0  0  0  0  0  0
    3.7539    1.8765    0.7321 H   0  0  0  0  0  0  0  0  0  0  0  0
    5.4825    0.1612   -0.1094 H   0  0  0  0  0  0  0  0  0  0  0  0
    4.1980    0.4505   -1.3068 H   0  0  0  0  0  0  0  0  0  0  0  0
    4.9830   -2.3388   -0.2081 H   0  0  0  0  0  0  0  0  0  0  0  0
    5.6901   -1.5967   -1.6951 H   0  0  0  0  0  0  0  0  0  0  0  0
    3.9394   -1.9876   -1.6519 H   0  0  0  0  0  0  0  0  0  0  0  0
    1.5058   -0.7240    1.0862 H   0  0  0  0  0  0  0  0  0  0  0  0
    2.1711   -1.6897   -0.2253 H   0  0  0  0  0  0  0  0  0  0  0  0
    2.0197    0.1598   -1.8257 H   0  0  0  0  0  0  0  0  0  0  0  0
    1.6189    1.3552   -0.5436 H   0  0  0  0  0  0  0  0  0  0  0  0
   -2.0495   -1.0883    1.8266 H   0  0  0  0  0  0  0  0  0  0  0  0
   -3.5841   -1.5307    0.9767 H   0  0  0  0  0  0  0  0  0  0  0  0
   -0.8281   -2.7301    0.6462 H   0  0  0  0  0  0  0  0  0  0  0  0
   -2.4534   -3.5277    0.6264 H   0  0  0  0  0  0  0  0  0  0  0  0
   -2.5679   -3.2670   -1.6844 H   0  0  0  0  0  0  0  0  0  0  0  0
   -0.8749   -2.6326   -1.6381 H   0  0  0  0  0  0  0  0  0  0  0  0
   -1.8746   -0.6496   -2.3995 H   0  0  0  0  0  0  0  0  0  0  0  0
   -3.4927   -1.1666   -1.8078 H   0  0  0  0  0  0  0  0  0  0  0  0
   -2.8587    1.5400   -2.2132 H   0  0  0  0  0  0  0  0  0  0  0  0
   -4.4074    3.4436   -2.1362 H   0  0  0  0  0  0  0  0  0  0  0  0
   -5.6701    3.9498   -0.0668 H   0  0  0  0  0  0  0  0  0  0  0  0
   -5.3599    2.5443    1.9479 H   0  0  0  0  0  0  0  0  0  0  0  0
   -3.8217    0.6434    1.9127 H   0  0  0  0  0  0  0  0  0  0  0  0
  1  2  1  0
  2  3  1  0
  3  4  1  0
  4  5  1  0
  3  6  1  0
  6  7  1  0
  7  8  1  0
  8  9  1  0
  9 10  2  0
  9 11  1  0
 11 12  1  0
 12 13  1  0
 13 14  1  0
 14 15  1  0
 15 11  1  0
 11 16  1  0
 16 17  2  0
 17 18  1  0
 18 19  2  0
 19 20  1  0
 20 21  2  0
 21 16  1  0
  1 22  1  0
  1 23  1  0
  1 24  1  0
  2 25  1  0
  2 26  1  0
  4 27  1  0
  4 28  1  0
  5 29  1  0
  5 30  1  0
  5 31  1  0
  6 32  1  0
  6 33  1  0
  7 34  1  0
  7 35  1  0
 12 36  1  0
 12 37  1  0
 13 38  1  0
 13 39  1  0
 14 40  1  0
 14 41  1  0
 15 42  1  0
 15 43  1  0
 17 44  1  0
 18 45  1  0
 19 46  1  0
 20 47  1  0
 21 48  1  0
M  END
> <ID>
HT3298

> <Class>
0.0

> <Clusters>
263

> <Fold>
3

$$$$