
     RDKit          3D

 29 29  0  0  0  0  0  0  0  0999 V2000
    4.2524    1.1117   -1.2029 C   0  0  0  0  0  0  0  0  0  0  0  0
    2.8453    0.9844   -1.3812 O   0  0  0  0  0  0  0  0  0  0  0  0
    1.9721    0.4274   -0.4341 C   0  0  0  0  0  0  0  0  0  0  0  0
    2.4199   -0.0637    0.7989 C   0  0  0  0  0  0  0  0  0  0  0  0
    1.5140   -0.6065    1.7039 C   0  0  0  0  0  0  0  0  0  0  0  0
    0.1474   -0.6715    1.4011 C   0  0  0  0  0  0  0  0  0  0  0  0
   -0.7148   -1.2258    2.3458 O   0  0  0  0  0  0  0  0  0  0  0  0
   -0.3403   -0.1812    0.1570 C   0  0  0  0  0  0  0  0  0  0  0  0
    0.6096    0.3664   -0.7443 C   0  0  0  0  0  0  0  0  0  0  0  0
   -1.8509   -0.2445   -0.1967 C   0  0  0  0  0  0  0  0  0  0  0  0
   -2.1704    0.3409   -1.5966 C   0  0  0  0  0  0  0  0  0  0  0  0
   -2.3325   -1.7134   -0.2035 C   0  0  0  0  0  0  0  0  0  0  0  0
   -2.6700    0.5717    0.8292 C   0  0  0  0  0  0  0  0  0  0  0  0
    4.7121    0.1100   -1.0669 H   0  0  0  0  0  0  0  0  0  0  0  0
    4.6909    1.5843   -2.1055 H   0  0  0  0  0  0  0  0  0  0  0  0
    4.4693    1.7545   -0.3237 H   0  0  0  0  0  0  0  0  0  0  0  0
    3.4667   -0.0309    1.0685 H   0  0  0  0  0  0  0  0  0  0  0  0
    1.8780   -0.9814    2.6523 H   0  0  0  0  0  0  0  0  0  0  0  0
   -0.3809   -1.5785    3.2353 H   0  0  0  0  0  0  0  0  0  0  0  0
    0.3209    0.7588   -1.7069 H   0  0  0  0  0  0  0  0  0  0  0  0
   -1.8859    1.4140   -1.6534 H   0  0  0  0  0  0  0  0  0  0  0  0
   -3.2591    0.2785   -1.8142 H   0  0  0  0  0  0  0  0  0  0  0  0
   -1.6436   -0.2260   -2.3946 H   0  0  0  0  0  0  0  0  0  0  0  0
   -3.3867   -1.7812   -0.5501 H   0  0  0  0  0  0  0  0  0  0  0  0
   -1.7021   -2.3221   -0.8874 H   0  0  0  0  0  0  0  0  0  0  0  0
   -2.2989   -2.1736    0.8030 H   0  0  0  0  0  0  0  0  0  0  0  0
   -2.2832    1.6119    0.8906 H   0  0  0  0  0  0  0  0  0  0  0  0
   -2.6388    0.1282    1.8432 H   0  0  0  0  0  0  0  0  0  0  0  0
   -3.7408    0.6159    0.5333 H   0  0  0  0  0  0  0  0  0  0  0  0
  1  2  1  0
  2  3  1  0
  3  4  2  0
  4  5  1  0
  5  6  2  0
  6  7  1  0
  6  8  1  0
  8  9  2  0
  9  3  1  0
  8 10  1  0
 10 11  1  0
 10 12  1  0
 10 13  1  0
  1 14  1  0
  1 15  1  0
  1 16  1  0
  4 17  1  0
  5 18  1  0
  7 19  1  0
  9 20  1  0
 11 21  1  0
 11 22  1  0
 11 23  1  0
 12 24  1  0
 12 25  1  0
 12 26  1  0
 13 27  1  0
 13 28  1  0
 13 29  1  0
M  END
> <ID>
HT2775

> <Class>
0.0

> <Clusters>
254

> <Fold>
3

$$$$