
     RDKit          3D

  9  8  0  0  0  0  0  0  0  0999 V2000
   -1.2617   -1.0330    0.0006 O   0  0  0  0  0  0  0  0  0  0  0  0
   -0.6586    0.2186   -0.1989 C   0  0  0  0  0  0  0  0  0  0  0  0
    0.8642    0.1231   -0.0583 C   0  0  0  0  0  0  0  0  0  0  0  0
    1.5244   -1.0630   -1.2150 Cl  0  0  0  0  0  0  0  0  0  0  0  0
    1.5951    1.7122   -0.3975 Cl  0  0  0  0  0  0  0  0  0  0  0  0
    1.3161   -0.3639    1.5969 Cl  0  0  0  0  0  0  0  0  0  0  0  0
   -1.4057   -1.1319    0.9776 H   0  0  0  0  0  0  0  0  0  0  0  0
   -1.0640    0.9700    0.5178 H   0  0  0  0  0  0  0  0  0  0  0  0
   -0.9097    0.5679   -1.2231 H   0  0  0  0  0  0  0  0  0  0  0  0
  1  2  1  0
  2  3  1  0
  3  4  1  0
  3  5  1  0
  3  6  1  0
  1  7  1  0
  2  8  1  0
  2  9  1  0
M  END
> <ID>
HT2623

> <Class>
0.0

> <Clusters>
251

> <Fold>
3

$$$$