
     RDKit          3D

 51 53  0  0  0  0  0  0  0  0999 V2000
   -3.7495    3.3243    0.3903 C   0  0  0  0  0  0  0  0  0  0  0  0
   -3.7365    1.8957   -0.2081 C   0  0  0  0  0  0  0  0  0  0  0  0
   -4.2352    1.9656   -1.6695 C   0  0  0  0  0  0  0  0  0  0  0  0
   -4.7110    1.0442    0.6448 C   0  0  0  0  0  0  0  0  0  0  0  0
   -4.5246   -0.4496    0.4147 C   0  0  0  0  0  0  0  0  0  0  0  0
   -3.1125   -0.9354    0.8290 C   0  0  0  0  0  0  0  0  0  0  0  0
   -3.0264   -1.0628    2.3672 C   0  0  0  0  0  0  0  0  0  0  0  0
   -2.9208   -2.3389    0.2025 C   0  0  0  0  0  0  0  0  0  0  0  0
   -2.0176    0.0259    0.3411 C   0  0  0  0  0  0  0  0  0  0  0  0
   -0.6652   -0.3737    0.4355 C   0  0  0  0  0  0  0  0  0  0  0  0
    0.3690    0.4109   -0.0825 C   0  0  0  0  0  0  0  0  0  0  0  0
    1.7281   -0.0415    0.0435 N   0  0  0  0  0  0  0  0  0  0  0  0
    2.7284    0.1324   -0.9783 C   0  0  0  0  0  0  0  0  0  0  0  0
    2.4098    0.6323   -2.0919 O   0  0  0  0  0  0  0  0  0  0  0  0
    4.1367   -0.2740   -0.7531 C   0  0  0  0  0  0  0  0  0  0  0  0
    5.1718    0.4020   -1.4211 C   0  0  0  0  0  0  0  0  0  0  0  0
    6.5057    0.0330   -1.2261 C   0  0  0  0  0  0  0  0  0  0  0  0
    6.8335   -1.0277   -0.3649 C   0  0  0  0  0  0  0  0  0  0  0  0
    5.7992   -1.7142    0.2917 C   0  0  0  0  0  0  0  0  0  0  0  0
    4.4648   -1.3443    0.0978 C   0  0  0  0  0  0  0  0  0  0  0  0
    8.2439   -1.4227   -0.1553 C   0  0  0  0  0  0  0  0  0  0  0  0
    9.1736   -0.8097   -0.7468 O   0  0  0  0  0  0  0  0  0  0  0  0
    8.5582   -2.4765    0.6991 O   0  0  0  0  0  0  0  0  0  0  0  0
    0.0628    1.6432   -0.6654 C   0  0  0  0  0  0  0  0  0  0  0  0
   -1.2561    2.0843   -0.7258 C   0  0  0  0  0  0  0  0  0  0  0  0
   -2.3133    1.3168   -0.1897 C   0  0  0  0  0  0  0  0  0  0  0  0
   -3.2197    4.0536   -0.2564 H   0  0  0  0  0  0  0  0  0  0  0  0
   -3.2680    3.3308    1.3922 H   0  0  0  0  0  0  0  0  0  0  0  0
   -4.7931    3.6912    0.5024 H   0  0  0  0  0  0  0  0  0  0  0  0
   -3.6174    2.6699   -2.2665 H   0  0  0  0  0  0  0  0  0  0  0  0
   -5.2875    2.3202   -1.7119 H   0  0  0  0  0  0  0  0  0  0  0  0
   -4.1767    0.9721   -2.1608 H   0  0  0  0  0  0  0  0  0  0  0  0
   -5.7646    1.3144    0.4105 H   0  0  0  0  0  0  0  0  0  0  0  0
   -4.5715    1.2596    1.7262 H   0  0  0  0  0  0  0  0  0  0  0  0
   -5.3044   -1.0004    0.9861 H   0  0  0  0  0  0  0  0  0  0  0  0
   -4.7135   -0.6726   -0.6576 H   0  0  0  0  0  0  0  0  0  0  0  0
   -3.0854   -0.0678    2.8555 H   0  0  0  0  0  0  0  0  0  0  0  0
   -3.8497   -1.6986    2.7581 H   0  0  0  0  0  0  0  0  0  0  0  0
   -2.0658   -1.5284    2.6743 H   0  0  0  0  0  0  0  0  0  0  0  0
   -2.0112   -2.8469    0.5839 H   0  0  0  0  0  0  0  0  0  0  0  0
   -3.7837   -2.9965    0.4460 H   0  0  0  0  0  0  0  0  0  0  0  0
   -2.8410   -2.2635   -0.9038 H   0  0  0  0  0  0  0  0  0  0  0  0
   -0.4034   -1.3158    0.8973 H   0  0  0  0  0  0  0  0  0  0  0  0
    1.9705   -0.5689    0.9106 H   0  0  0  0  0  0  0  0  0  0  0  0
    4.9499    1.2271   -2.0869 H   0  0  0  0  0  0  0  0  0  0  0  0
    7.2799    0.5796   -1.7501 H   0  0  0  0  0  0  0  0  0  0  0  0
    6.0188   -2.5443    0.9514 H   0  0  0  0  0  0  0  0  0  0  0  0
    3.6966   -1.9209    0.5941 H   0  0  0  0  0  0  0  0  0  0  0  0
    9.5205   -2.7549    0.8497 H   0  0  0  0  0  0  0  0  0  0  0  0
    0.8463    2.2883   -1.0401 H   0  0  0  0  0  0  0  0  0  0  0  0
   -1.4428    3.0457   -1.1832 H   0  0  0  0  0  0  0  0  0  0  0  0
  1  2  1  0
  2  3  1  0
  2  4  1  0
  4  5  1  0
  5  6  1  0
  6  7  1  0
  6  8  1  0
  6  9  1  0
  9 10  2  0
 10 11  1  0
 11 12  1  0
 12 13  1  0
 13 14  2  0
 13 15  1  0
 15 16  2  0
 16 17  1  0
 17 18  2  0
 18 19  1  0
 19 20  2  0
 20 15  1  0
 18 21  1  0
 21 22  2  0
 21 23  1  0
 11 24  2  0
 24 25  1  0
 25 26  2  0
 26  2  1  0
 26  9  1  0
  1 27  1  0
  1 28  1  0
  1 29  1  0
  3 30  1  0
  3 31  1  0
  3 32  1  0
  4 33  1  0
  4 34  1  0
  5 35  1  0
  5 36  1  0
  7 37  1  0
  7 38  1  0
  7 39  1  0
  8 40  1  0
  8 41  1  0
  8 42  1  0
 10 43  1  0
 12 44  1  0
 16 45  1  0
 17 46  1  0
 19 47  1  0
 20 48  1  0
 23 49  1  0
 24 50  1  0
 25 51  1  0
M  END
> <ID>
HT1977

> <Class>
0.0

> <Clusters>
36

> <Fold>
3

$$$$