
     RDKit          3D

 43 45  0  0  0  0  0  0  0  0999 V2000
    3.9547   -0.2340    0.1626 C   0  0  0  0  0  0  0  0  0  0  0  0
    3.0179   -1.2159   -0.5552 C   0  0  0  0  0  0  0  0  0  0  0  0
    1.8372   -0.4845   -1.2119 C   0  0  0  0  0  0  0  0  0  0  0  0
    1.0214    0.3103   -0.2470 N   0  0  0  0  0  0  0  0  0  0  0  0
    1.7318    0.6323    1.0224 C   0  0  0  0  0  0  0  0  0  0  0  0
    3.2049    0.9646    0.7654 C   0  0  0  0  0  0  0  0  0  0  0  0
   -0.4190   -0.0948   -0.0791 C   0  0  0  0  0  0  0  0  0  0  0  0
   -1.1470   -0.1229   -1.4855 C   0  0  0  0  0  0  0  0  0  0  0  0
   -1.5593   -1.5198   -1.9823 C   0  0  0  0  0  0  0  0  0  0  0  0
   -2.4440   -2.2348   -0.9576 C   0  0  0  0  0  0  0  0  0  0  0  0
   -1.9084   -2.1451    0.4848 C   0  0  0  0  0  0  0  0  0  0  0  0
   -0.5045   -1.5170    0.5823 C   0  0  0  0  0  0  0  0  0  0  0  0
   -1.1201    1.0105    0.7559 C   0  0  0  0  0  0  0  0  0  0  0  0
   -1.6600    0.8072    2.0498 C   0  0  0  0  0  0  0  0  0  0  0  0
   -2.2460    1.8627    2.7552 C   0  0  0  0  0  0  0  0  0  0  0  0
   -2.2902    3.1414    2.2021 C   0  0  0  0  0  0  0  0  0  0  0  0
   -1.7379    3.3731    0.9441 C   0  0  0  0  0  0  0  0  0  0  0  0
   -1.1514    2.3243    0.2323 C   0  0  0  0  0  0  0  0  0  0  0  0
    4.7177    0.1416   -0.5538 H   0  0  0  0  0  0  0  0  0  0  0  0
    4.4938   -0.7798    0.9675 H   0  0  0  0  0  0  0  0  0  0  0  0
    2.6273   -1.9574    0.1751 H   0  0  0  0  0  0  0  0  0  0  0  0
    3.5885   -1.7753   -1.3280 H   0  0  0  0  0  0  0  0  0  0  0  0
    2.2363    0.2099   -1.9821 H   0  0  0  0  0  0  0  0  0  0  0  0
    1.2429   -1.2350   -1.7571 H   0  0  0  0  0  0  0  0  0  0  0  0
    1.6738   -0.2123    1.7406 H   0  0  0  0  0  0  0  0  0  0  0  0
    1.2783    1.5239    1.5032 H   0  0  0  0  0  0  0  0  0  0  0  0
    3.6921    1.2705    1.7166 H   0  0  0  0  0  0  0  0  0  0  0  0
    3.2584    1.8269    0.0646 H   0  0  0  0  0  0  0  0  0  0  0  0
   -2.0882    0.4718   -1.4621 H   0  0  0  0  0  0  0  0  0  0  0  0
   -0.5197    0.3642   -2.2628 H   0  0  0  0  0  0  0  0  0  0  0  0
   -2.1215   -1.4163   -2.9359 H   0  0  0  0  0  0  0  0  0  0  0  0
   -0.6746   -2.1493   -2.2020 H   0  0  0  0  0  0  0  0  0  0  0  0
   -3.4648   -1.7942   -0.9947 H   0  0  0  0  0  0  0  0  0  0  0  0
   -2.5389   -3.3021   -1.2544 H   0  0  0  0  0  0  0  0  0  0  0  0
   -2.6309   -1.5664    1.0949 H   0  0  0  0  0  0  0  0  0  0  0  0
   -1.8710   -3.1654    0.9250 H   0  0  0  0  0  0  0  0  0  0  0  0
    0.1977   -2.2138    0.0806 H   0  0  0  0  0  0  0  0  0  0  0  0
   -0.1775   -1.5027    1.6407 H   0  0  0  0  0  0  0  0  0  0  0  0
   -1.6272   -0.1479    2.5470 H   0  0  0  0  0  0  0  0  0  0  0  0
   -2.6592    1.6892    3.7406 H   0  0  0  0  0  0  0  0  0  0  0  0
   -2.7421    3.9555    2.7539 H   0  0  0  0  0  0  0  0  0  0  0  0
   -1.7580    4.3690    0.5206 H   0  0  0  0  0  0  0  0  0  0  0  0
   -0.7130    2.5379   -0.7347 H   0  0  0  0  0  0  0  0  0  0  0  0
  1  2  1  0
  2  3  1  0
  3  4  1  0
  4  5  1  0
  5  6  1  0
  6  1  1  0
  4  7  1  0
  7  8  1  0
  8  9  1  0
  9 10  1  0
 10 11  1  0
 11 12  1  0
 12  7  1  0
  7 13  1  0
 13 14  2  0
 14 15  1  0
 15 16  2  0
 16 17  1  0
 17 18  2  0
 18 13  1  0
  1 19  1  0
  1 20  1  0
  2 21  1  0
  2 22  1  0
  3 23  1  0
  3 24  1  0
  5 25  1  0
  5 26  1  0
  6 27  1  0
  6 28  1  0
  8 29  1  0
  8 30  1  0
  9 31  1  0
  9 32  1  0
 10 33  1  0
 10 34  1  0
 11 35  1  0
 11 36  1  0
 12 37  1  0
 12 38  1  0
 14 39  1  0
 15 40  1  0
 16 41  1  0
 17 42  1  0
 18 43  1  0
M  END
> <ID>
HT3064

> <Class>
0.0

> <Clusters>
67

> <Fold>
3

$$$$