
     RDKit          3D

 13 13  0  0  0  0  0  0  0  0999 V2000
   -2.4127   -0.8935   -0.0076 O   0  0  0  0  0  0  0  0  0  0  0  0
   -1.1086   -0.3917   -0.0042 C   0  0  0  0  0  0  0  0  0  0  0  0
   -0.9205    0.9970   -0.0508 C   0  0  0  0  0  0  0  0  0  0  0  0
   -2.3308    2.0537   -0.1118 Cl  0  0  0  0  0  0  0  0  0  0  0  0
    0.3765    1.5368   -0.0489 C   0  0  0  0  0  0  0  0  0  0  0  0
    0.6035    3.2862   -0.1078 Cl  0  0  0  0  0  0  0  0  0  0  0  0
    1.4912    0.6819    0.0001 C   0  0  0  0  0  0  0  0  0  0  0  0
    3.1220    1.3579    0.0026 Cl  0  0  0  0  0  0  0  0  0  0  0  0
    1.3068   -0.7115    0.0469 C   0  0  0  0  0  0  0  0  0  0  0  0
    2.7078   -1.7843    0.1083 Cl  0  0  0  0  0  0  0  0  0  0  0  0
    0.0072   -1.2504    0.0449 C   0  0  0  0  0  0  0  0  0  0  0  0
   -0.2169   -3.0000    0.1039 Cl  0  0  0  0  0  0  0  0  0  0  0  0
   -2.6255   -1.8821    0.0243 H   0  0  0  0  0  0  0  0  0  0  0  0
  1  2  1  0
  2  3  2  0
  3  4  1  0
  3  5  1  0
  5  6  1  0
  5  7  2  0
  7  8  1  0
  7  9  1  0
  9 10  1  0
  9 11  2  0
 11  2  1  0
 11 12  1  0
  1 13  1  0
M  END
> <ID>
HT3178

> <Class>
0.0

> <Clusters>
126

> <Fold>
3

$$$$