
     RDKit          3D

 20 19  0  0  0  0  0  0  0  0999 V2000
    2.8688    0.2343    1.8845 F   0  0  0  0  0  0  0  0  0  0  0  0
    2.7855    0.5590    0.5420 C   0  0  0  0  0  0  0  0  0  0  0  0
    3.2576    1.8485    0.3720 F   0  0  0  0  0  0  0  0  0  0  0  0
    3.5923   -0.2991   -0.1843 F   0  0  0  0  0  0  0  0  0  0  0  0
    1.3278    0.4817    0.0541 C   0  0  0  0  0  0  0  0  0  0  0  0
    1.3132    0.7792   -1.2985 F   0  0  0  0  0  0  0  0  0  0  0  0
    0.6119    1.4539    0.7292 F   0  0  0  0  0  0  0  0  0  0  0  0
    0.6916   -0.9159    0.2977 C   0  0  0  0  0  0  0  0  0  0  0  0
    1.5361   -1.8813   -0.2285 F   0  0  0  0  0  0  0  0  0  0  0  0
    0.5955   -1.1509    1.6603 F   0  0  0  0  0  0  0  0  0  0  0  0
   -0.7051   -1.1314   -0.3564 C   0  0  0  0  0  0  0  0  0  0  0  0
   -1.0240   -2.4675   -0.1613 F   0  0  0  0  0  0  0  0  0  0  0  0
   -0.5945   -0.9542   -1.7271 F   0  0  0  0  0  0  0  0  0  0  0  0
   -1.8807   -0.2687    0.2228 C   0  0  0  0  0  0  0  0  0  0  0  0
   -1.5497    0.2692    1.4549 F   0  0  0  0  0  0  0  0  0  0  0  0
   -2.9794   -1.0893    0.4300 F   0  0  0  0  0  0  0  0  0  0  0  0
   -2.3439    0.8680   -0.7088 C   0  0  0  0  0  0  0  0  0  0  0  0
   -1.2947    1.6963   -1.0549 F   0  0  0  0  0  0  0  0  0  0  0  0
   -2.9012    0.3432   -1.8621 F   0  0  0  0  0  0  0  0  0  0  0  0
   -3.3070    1.6249   -0.0655 F   0  0  0  0  0  0  0  0  0  0  0  0
  1  2  1  0
  2  3  1  0
  2  4  1  0
  2  5  1  0
  5  6  1  0
  5  7  1  0
  5  8  1  0
  8  9  1  0
  8 10  1  0
  8 11  1  0
 11 12  1  0
 11 13  1  0
 11 14  1  0
 14 15  1  0
 14 16  1  0
 14 17  1  0
 17 18  1  0
 17 19  1  0
 17 20  1  0
M  END
> <ID>
HT1631

> <Class>
0.0

> <Clusters>
190

> <Fold>
3

$$$$