
     RDKit          3D

 40 42  0  0  0  0  0  0  0  0999 V2000
   -3.3946   -3.2985   -1.3241 O   0  0  0  0  0  0  0  0  0  0  0  0
   -3.0491   -2.2007   -0.5377 C   0  0  0  0  0  0  0  0  0  0  0  0
   -1.8392   -2.0373   -0.2327 O   0  0  0  0  0  0  0  0  0  0  0  0
   -4.0847   -1.2508   -0.0553 C   0  0  0  0  0  0  0  0  0  0  0  0
   -5.3580   -1.7511    0.2764 C   0  0  0  0  0  0  0  0  0  0  0  0
   -6.3764   -0.8928    0.6955 C   0  0  0  0  0  0  0  0  0  0  0  0
   -6.1434    0.4782    0.7850 C   0  0  0  0  0  0  0  0  0  0  0  0
   -4.8883    0.9958    0.4640 C   0  0  0  0  0  0  0  0  0  0  0  0
   -3.8484    0.1455    0.0556 C   0  0  0  0  0  0  0  0  0  0  0  0
   -2.5531    0.7571   -0.2856 C   0  0  0  0  0  0  0  0  0  0  0  0
   -2.4665    1.4796   -1.3149 O   0  0  0  0  0  0  0  0  0  0  0  0
   -1.4350    0.6124    0.6032 N   0  0  0  0  0  0  0  0  0  0  0  0
   -0.0815    0.9526    0.2580 C   0  0  0  0  0  0  0  0  0  0  0  0
    0.7959    1.3873    1.2625 C   0  0  0  0  0  0  0  0  0  0  0  0
    2.1238    1.6988    0.9577 C   0  0  0  0  0  0  0  0  0  0  0  0
    2.5970    1.5617   -0.3529 C   0  0  0  0  0  0  0  0  0  0  0  0
    1.7311    1.1113   -1.3575 C   0  0  0  0  0  0  0  0  0  0  0  0
    0.4021    0.8008   -1.0542 C   0  0  0  0  0  0  0  0  0  0  0  0
    4.2762    1.9390   -0.7228 S   0  0  0  0  0  0  0  0  0  0  0  0
    4.4211    3.4270   -0.8716 O   0  0  0  0  0  0  0  0  0  0  0  0
    4.6989    1.2750   -2.0035 O   0  0  0  0  0  0  0  0  0  0  0  0
    5.3006    1.3877    0.5620 N   0  0  0  0  0  0  0  0  0  0  0  0
    5.3685    0.0136    0.9550 C   0  0  0  0  0  0  0  0  0  0  0  0
    6.1383   -0.4153    1.9774 N   0  0  0  0  0  0  0  0  0  0  0  0
    6.0297   -1.7586    2.1586 C   0  0  0  0  0  0  0  0  0  0  0  0
    5.1703   -2.4069    1.2784 C   0  0  0  0  0  0  0  0  0  0  0  0
    4.5246   -1.2549    0.2367 S   0  0  0  0  0  0  0  0  0  0  0  0
   -4.3391   -3.4432   -1.6590 H   0  0  0  0  0  0  0  0  0  0  0  0
   -5.5654   -2.8126    0.2265 H   0  0  0  0  0  0  0  0  0  0  0  0
   -7.3495   -1.2926    0.9501 H   0  0  0  0  0  0  0  0  0  0  0  0
   -6.9364    1.1416    1.1054 H   0  0  0  0  0  0  0  0  0  0  0  0
   -4.7241    2.0642    0.5396 H   0  0  0  0  0  0  0  0  0  0  0  0
   -1.6308    0.2981    1.5809 H   0  0  0  0  0  0  0  0  0  0  0  0
    0.4464    1.4929    2.2819 H   0  0  0  0  0  0  0  0  0  0  0  0
    2.7840    2.0412    1.7445 H   0  0  0  0  0  0  0  0  0  0  0  0
    2.0847    0.9894   -2.3732 H   0  0  0  0  0  0  0  0  0  0  0  0
   -0.2355    0.4175   -1.8394 H   0  0  0  0  0  0  0  0  0  0  0  0
    5.8732    2.0916    1.0784 H   0  0  0  0  0  0  0  0  0  0  0  0
    6.5762   -2.2776    2.9343 H   0  0  0  0  0  0  0  0  0  0  0  0
    4.9563   -3.4670    1.2678 H   0  0  0  0  0  0  0  0  0  0  0  0
  1  2  1  0
  2  3  2  0
  2  4  1  0
  4  5  2  0
  5  6  1  0
  6  7  2  0
  7  8  1  0
  8  9  2  0
  9  4  1  0
  9 10  1  0
 10 11  2  0
 10 12  1  0
 12 13  1  0
 13 14  2  0
 14 15  1  0
 15 16  2  0
 16 17  1  0
 17 18  2  0
 18 13  1  0
 16 19  1  0
 19 20  2  0
 19 21  2  0
 19 22  1  0
 22 23  1  0
 23 24  2  0
 24 25  1  0
 25 26  2  0
 26 27  1  0
 27 23  1  0
  1 28  1  0
  5 29  1  0
  6 30  1  0
  7 31  1  0
  8 32  1  0
 12 33  1  0
 14 34  1  0
 15 35  1  0
 17 36  1  0
 18 37  1  0
 22 38  1  0
 25 39  1  0
 26 40  1  0
M  END
> <ID>
HT1665

> <Class>
0.0

> <Clusters>
197

> <Fold>
3

$$$$