
     RDKit          3D

 61 63  0  0  0  0  0  0  0  0999 V2000
   -5.5057   -1.5661    0.6317 C   0  0  0  0  0  0  0  0  0  0  0  0
   -5.5599   -0.1908    1.3192 C   0  0  0  0  0  0  0  0  0  0  0  0
   -4.8341    0.8870    0.6039 N   0  0  0  0  0  0  0  0  0  0  0  0
   -5.6730    1.7163   -0.2942 C   0  0  0  0  0  0  0  0  0  0  0  0
   -6.3224    0.9437   -1.4445 C   0  0  0  0  0  0  0  0  0  0  0  0
   -3.5012    0.5202    0.0774 C   0  0  0  0  0  0  0  0  0  0  0  0
   -2.5422    1.7165    0.1287 C   0  0  0  0  0  0  0  0  0  0  0  0
   -1.2079    1.3083   -0.1652 O   0  0  0  0  0  0  0  0  0  0  0  0
   -0.3900    0.6244    0.7428 C   0  0  0  0  0  0  0  0  0  0  0  0
   -0.8082    0.3451    1.9022 O   0  0  0  0  0  0  0  0  0  0  0  0
    0.9867    0.1933    0.3093 C   0  0  0  0  0  0  0  0  0  0  0  0
    2.0621    0.5696    1.3647 C   0  0  0  0  0  0  0  0  0  0  0  0
    2.3886    2.0781    1.4402 C   0  0  0  0  0  0  0  0  0  0  0  0
    3.2591    2.5609    0.2833 C   0  0  0  0  0  0  0  0  0  0  0  0
    2.7192    3.9286    0.0071 C   0  0  0  0  0  0  0  0  0  0  0  0
    1.2894    3.8271    0.4858 C   0  0  0  0  0  0  0  0  0  0  0  0
    1.2145    2.8579    1.5054 O   0  0  0  0  0  0  0  0  0  0  0  0
    0.9674   -1.3245    0.0280 C   0  0  0  0  0  0  0  0  0  0  0  0
    2.2217   -1.7917   -0.6927 C   0  0  0  0  0  0  0  0  0  0  0  0
    2.3258   -1.4825   -2.0613 C   0  0  0  0  0  0  0  0  0  0  0  0
    3.4193   -1.9035   -2.8133 C   0  0  0  0  0  0  0  0  0  0  0  0
    4.4332   -2.6509   -2.2193 C   0  0  0  0  0  0  0  0  0  0  0  0
    4.3686   -2.9760   -0.8603 C   0  0  0  0  0  0  0  0  0  0  0  0
    5.4034   -3.7262   -0.2777 C   0  0  0  0  0  0  0  0  0  0  0  0
    5.3709   -4.0340    1.0812 C   0  0  0  0  0  0  0  0  0  0  0  0
    4.3142   -3.5905    1.8733 C   0  0  0  0  0  0  0  0  0  0  0  0
    3.2714   -2.8475    1.3100 C   0  0  0  0  0  0  0  0  0  0  0  0
    3.2668   -2.5383   -0.0701 C   0  0  0  0  0  0  0  0  0  0  0  0
   -4.5192   -2.0491    0.7926 H   0  0  0  0  0  0  0  0  0  0  0  0
   -5.6960   -1.4991   -0.4551 H   0  0  0  0  0  0  0  0  0  0  0  0
   -6.2771   -2.2283    1.0785 H   0  0  0  0  0  0  0  0  0  0  0  0
   -5.1222   -0.2933    2.3341 H   0  0  0  0  0  0  0  0  0  0  0  0
   -6.6230    0.0952    1.4708 H   0  0  0  0  0  0  0  0  0  0  0  0
   -5.0777    2.5478   -0.7207 H   0  0  0  0  0  0  0  0  0  0  0  0
   -6.4750    2.1993    0.3041 H   0  0  0  0  0  0  0  0  0  0  0  0
   -7.0942    0.2469   -1.0594 H   0  0  0  0  0  0  0  0  0  0  0  0
   -5.5680    0.3888   -2.0369 H   0  0  0  0  0  0  0  0  0  0  0  0
   -6.8295    1.6611   -2.1232 H   0  0  0  0  0  0  0  0  0  0  0  0
   -3.5687    0.1360   -0.9622 H   0  0  0  0  0  0  0  0  0  0  0  0
   -3.0569   -0.2818    0.7036 H   0  0  0  0  0  0  0  0  0  0  0  0
   -2.5796    2.2063    1.1259 H   0  0  0  0  0  0  0  0  0  0  0  0
   -2.8381    2.4649   -0.6335 H   0  0  0  0  0  0  0  0  0  0  0  0
    1.2139    0.7171   -0.6432 H   0  0  0  0  0  0  0  0  0  0  0  0
    1.7360    0.2190    2.3680 H   0  0  0  0  0  0  0  0  0  0  0  0
    3.0110    0.0374    1.1464 H   0  0  0  0  0  0  0  0  0  0  0  0
    2.9552    2.2504    2.3827 H   0  0  0  0  0  0  0  0  0  0  0  0
    4.3334    2.6005    0.5660 H   0  0  0  0  0  0  0  0  0  0  0  0
    3.1468    1.9250   -0.6223 H   0  0  0  0  0  0  0  0  0  0  0  0
    3.2688    4.6837    0.6108 H   0  0  0  0  0  0  0  0  0  0  0  0
    2.7792    4.1886   -1.0726 H   0  0  0  0  0  0  0  0  0  0  0  0
    0.6312    3.5142   -0.3550 H   0  0  0  0  0  0  0  0  0  0  0  0
    0.9357    4.8084    0.8690 H   0  0  0  0  0  0  0  0  0  0  0  0
    0.7653   -1.8846    0.9603 H   0  0  0  0  0  0  0  0  0  0  0  0
    0.0964   -1.5600   -0.6253 H   0  0  0  0  0  0  0  0  0  0  0  0
    1.5436   -0.9159   -2.5539 H   0  0  0  0  0  0  0  0  0  0  0  0
    3.4790   -1.6538   -3.8633 H   0  0  0  0  0  0  0  0  0  0  0  0
    5.2720   -2.9726   -2.8247 H   0  0  0  0  0  0  0  0  0  0  0  0
    6.2397   -4.0720   -0.8760 H   0  0  0  0  0  0  0  0  0  0  0  0
    6.1750   -4.6077    1.5264 H   0  0  0  0  0  0  0  0  0  0  0  0
    4.3049   -3.8191    2.9301 H   0  0  0  0  0  0  0  0  0  0  0  0
    2.5002   -2.5077    1.9826 H   0  0  0  0  0  0  0  0  0  0  0  0
  1  2  1  0
  2  3  1  0
  3  4  1  0
  4  5  1  0
  3  6  1  0
  6  7  1  0
  7  8  1  0
  8  9  1  0
  9 10  2  0
  9 11  1  0
 11 12  1  0
 12 13  1  0
 13 14  1  0
 14 15  1  0
 15 16  1  0
 16 17  1  0
 17 13  1  0
 11 18  1  0
 18 19  1  0
 19 20  2  0
 20 21  1  0
 21 22  2  0
 22 23  1  0
 23 24  2  0
 24 25  1  0
 25 26  2  0
 26 27  1  0
 27 28  2  0
 28 19  1  0
 28 23  1  0
  1 29  1  0
  1 30  1  0
  1 31  1  0
  2 32  1  0
  2 33  1  0
  4 34  1  0
  4 35  1  0
  5 36  1  0
  5 37  1  0
  5 38  1  0
  6 39  1  0
  6 40  1  0
  7 41  1  0
  7 42  1  0
 11 43  1  0
 12 44  1  0
 12 45  1  0
 13 46  1  0
 14 47  1  0
 14 48  1  0
 15 49  1  0
 15 50  1  0
 16 51  1  0
 16 52  1  0
 18 53  1  0
 18 54  1  0
 20 55  1  0
 21 56  1  0
 22 57  1  0
 24 58  1  0
 25 59  1  0
 26 60  1  0
 27 61  1  0
M  END
> <ID>
HT1453

> <Class>
0.0

> <Clusters>
263

> <Fold>
3

$$$$