
     RDKit          3D

 42 43  0  0  0  0  0  0  0  0999 V2000
    2.9494   -2.9157    2.0588 C   0  0  0  0  0  0  0  0  0  0  0  0
    2.9686   -2.0312    0.8230 C   0  0  0  0  0  0  0  0  0  0  0  0
    1.7628   -1.2785    0.7601 O   0  0  0  0  0  0  0  0  0  0  0  0
    1.4828   -0.3803   -0.2760 C   0  0  0  0  0  0  0  0  0  0  0  0
    2.3514   -0.1648   -1.1677 O   0  0  0  0  0  0  0  0  0  0  0  0
    0.1821    0.4232   -0.2691 C   0  0  0  0  0  0  0  0  0  0  0  0
   -0.8603   -0.2735    0.6693 C   0  0  0  0  0  0  0  0  0  0  0  0
   -1.2620   -1.7230    0.3191 C   0  0  0  0  0  0  0  0  0  0  0  0
   -1.2936   -2.0829   -1.1770 C   0  0  0  0  0  0  0  0  0  0  0  0
   -2.1412   -1.2043   -2.0154 N   0  0  0  0  0  0  0  0  0  0  0  0
   -3.5761   -1.4344   -1.7841 C   0  0  0  0  0  0  0  0  0  0  0  0
   -1.8229    0.2432   -1.9963 C   0  0  0  0  0  0  0  0  0  0  0  0
   -0.3287    0.5557   -1.7611 C   0  0  0  0  0  0  0  0  0  0  0  0
    0.4343    1.8332    0.3182 C   0  0  0  0  0  0  0  0  0  0  0  0
    1.6345    2.1786    0.9901 C   0  0  0  0  0  0  0  0  0  0  0  0
    1.8132    3.4550    1.5314 C   0  0  0  0  0  0  0  0  0  0  0  0
    0.8023    4.4091    1.4307 C   0  0  0  0  0  0  0  0  0  0  0  0
   -0.3951    4.0876    0.7946 C   0  0  0  0  0  0  0  0  0  0  0  0
   -0.5822    2.8142    0.2508 C   0  0  0  0  0  0  0  0  0  0  0  0
    2.8650   -2.2893    2.9720 H   0  0  0  0  0  0  0  0  0  0  0  0
    2.0851   -3.6118    2.0129 H   0  0  0  0  0  0  0  0  0  0  0  0
    3.8877   -3.5072    2.1115 H   0  0  0  0  0  0  0  0  0  0  0  0
    3.8391   -1.3419    0.8769 H   0  0  0  0  0  0  0  0  0  0  0  0
    3.0606   -2.6681   -0.0833 H   0  0  0  0  0  0  0  0  0  0  0  0
   -0.4596   -0.2807    1.7081 H   0  0  0  0  0  0  0  0  0  0  0  0
   -1.7845    0.3356    0.7465 H   0  0  0  0  0  0  0  0  0  0  0  0
   -0.5513   -2.4194    0.8137 H   0  0  0  0  0  0  0  0  0  0  0  0
   -2.2545   -1.9374    0.7699 H   0  0  0  0  0  0  0  0  0  0  0  0
   -0.2617   -2.1137   -1.5818 H   0  0  0  0  0  0  0  0  0  0  0  0
   -1.6474   -3.1335   -1.2694 H   0  0  0  0  0  0  0  0  0  0  0  0
   -3.8756   -1.1091   -0.7645 H   0  0  0  0  0  0  0  0  0  0  0  0
   -3.8227   -2.5102   -1.9122 H   0  0  0  0  0  0  0  0  0  0  0  0
   -4.1754   -0.8686   -2.5296 H   0  0  0  0  0  0  0  0  0  0  0  0
   -2.0885    0.6516   -2.9956 H   0  0  0  0  0  0  0  0  0  0  0  0
   -2.4632    0.7977   -1.2802 H   0  0  0  0  0  0  0  0  0  0  0  0
   -0.1339    1.5844   -2.1375 H   0  0  0  0  0  0  0  0  0  0  0  0
    0.2492   -0.0850   -2.4620 H   0  0  0  0  0  0  0  0  0  0  0  0
    2.4419    1.4712    1.1157 H   0  0  0  0  0  0  0  0  0  0  0  0
    2.7380    3.7024    2.0368 H   0  0  0  0  0  0  0  0  0  0  0  0
    0.9440    5.3956    1.8527 H   0  0  0  0  0  0  0  0  0  0  0  0
   -1.1838    4.8257    0.7251 H   0  0  0  0  0  0  0  0  0  0  0  0
   -1.5275    2.6005   -0.2251 H   0  0  0  0  0  0  0  0  0  0  0  0
  1  2  1  0
  2  3  1  0
  3  4  1  0
  4  5  2  0
  4  6  1  0
  6  7  1  0
  7  8  1  0
  8  9  1  0
  9 10  1  0
 10 11  1  0
 10 12  1  0
 12 13  1  0
 13  6  1  0
  6 14  1  0
 14 15  2  0
 15 16  1  0
 16 17  2  0
 17 18  1  0
 18 19  2  0
 19 14  1  0
  1 20  1  0
  1 21  1  0
  1 22  1  0
  2 23  1  0
  2 24  1  0
  7 25  1  0
  7 26  1  0
  8 27  1  0
  8 28  1  0
  9 29  1  0
  9 30  1  0
 11 31  1  0
 11 32  1  0
 11 33  1  0
 12 34  1  0
 12 35  1  0
 13 36  1  0
 13 37  1  0
 15 38  1  0
 16 39  1  0
 17 40  1  0
 18 41  1  0
 19 42  1  0
M  END
> <ID>
HT3154

> <Class>
0.0

> <Clusters>
156

> <Fold>
3

$$$$