
     RDKit          3D

 57 59  0  0  0  0  0  0  0  0999 V2000
   -4.4380   -1.4311    2.9886 C   0  0  0  0  0  0  0  0  0  0  0  0
   -3.9822   -0.5078    1.8585 C   0  0  0  0  0  0  0  0  0  0  0  0
   -2.6752   -0.9339    1.2268 C   0  0  0  0  0  0  0  0  0  0  0  0
   -2.1523   -2.0211    1.5927 O   0  0  0  0  0  0  0  0  0  0  0  0
   -2.0468   -0.1158    0.1997 N   0  0  0  0  0  0  0  0  0  0  0  0
   -2.9162    0.8137   -0.4789 C   0  0  0  0  0  0  0  0  0  0  0  0
   -3.6580    0.4057   -1.5961 C   0  0  0  0  0  0  0  0  0  0  0  0
   -4.5213    1.3037   -2.2283 C   0  0  0  0  0  0  0  0  0  0  0  0
   -4.6531    2.6082   -1.7463 C   0  0  0  0  0  0  0  0  0  0  0  0
   -3.9284    3.0153   -0.6253 C   0  0  0  0  0  0  0  0  0  0  0  0
   -3.0693    2.1191    0.0135 C   0  0  0  0  0  0  0  0  0  0  0  0
   -0.6443   -0.3367   -0.2964 C   0  0  0  0  0  0  0  0  0  0  0  0
   -0.6075   -1.6091   -1.1965 C   0  0  0  0  0  0  0  0  0  0  0  0
   -0.7488   -2.7874   -0.4338 O   0  0  0  0  0  0  0  0  0  0  0  0
   -0.7702   -3.9059   -1.2916 C   0  0  0  0  0  0  0  0  0  0  0  0
    0.3659   -0.4943    0.8998 C   0  0  0  0  0  0  0  0  0  0  0  0
    1.0437    0.8291    1.2875 C   0  0  0  0  0  0  0  0  0  0  0  0
    1.8269    1.4077    0.1698 N   0  0  0  0  0  0  0  0  0  0  0  0
    3.2959    1.3159    0.3237 C   0  0  0  0  0  0  0  0  0  0  0  0
    3.8252   -0.1274    0.4554 C   0  0  0  0  0  0  0  0  0  0  0  0
    5.3226   -0.1411    0.4922 C   0  0  0  0  0  0  0  0  0  0  0  0
    6.1672    0.1978   -0.5578 C   0  0  0  0  0  0  0  0  0  0  0  0
    7.5223    0.0498   -0.2425 C   0  0  0  0  0  0  0  0  0  0  0  0
    7.7485   -0.4075    1.0510 C   0  0  0  0  0  0  0  0  0  0  0  0
    6.2601   -0.6340    1.7983 S   0  0  0  0  0  0  0  0  0  0  0  0
    1.3516    1.0448   -1.1828 C   0  0  0  0  0  0  0  0  0  0  0  0
   -0.1721    0.8715   -1.1907 C   0  0  0  0  0  0  0  0  0  0  0  0
   -5.3973   -1.0628    3.4022 H   0  0  0  0  0  0  0  0  0  0  0  0
   -3.6843   -1.4457    3.8029 H   0  0  0  0  0  0  0  0  0  0  0  0
   -4.5920   -2.4631    2.6106 H   0  0  0  0  0  0  0  0  0  0  0  0
   -4.7718   -0.4859    1.0793 H   0  0  0  0  0  0  0  0  0  0  0  0
   -3.8664    0.5161    2.2703 H   0  0  0  0  0  0  0  0  0  0  0  0
   -3.5792   -0.6073   -1.9661 H   0  0  0  0  0  0  0  0  0  0  0  0
   -5.0942    0.9877   -3.0879 H   0  0  0  0  0  0  0  0  0  0  0  0
   -5.3210    3.3013   -2.2389 H   0  0  0  0  0  0  0  0  0  0  0  0
   -4.0350    4.0239   -0.2495 H   0  0  0  0  0  0  0  0  0  0  0  0
   -2.5157    2.4387    0.8856 H   0  0  0  0  0  0  0  0  0  0  0  0
   -1.4183   -1.5325   -1.9530 H   0  0  0  0  0  0  0  0  0  0  0  0
    0.3609   -1.6453   -1.7441 H   0  0  0  0  0  0  0  0  0  0  0  0
   -1.6396   -3.8652   -1.9840 H   0  0  0  0  0  0  0  0  0  0  0  0
   -0.8764   -4.8206   -0.6760 H   0  0  0  0  0  0  0  0  0  0  0  0
    0.1799   -3.9927   -1.8639 H   0  0  0  0  0  0  0  0  0  0  0  0
    1.1675   -1.2143    0.6282 H   0  0  0  0  0  0  0  0  0  0  0  0
   -0.1043   -0.8988    1.8133 H   0  0  0  0  0  0  0  0  0  0  0  0
    1.6713    0.6802    2.1925 H   0  0  0  0  0  0  0  0  0  0  0  0
    0.2560    1.5555    1.5810 H   0  0  0  0  0  0  0  0  0  0  0  0
    3.5975    1.8933    1.2249 H   0  0  0  0  0  0  0  0  0  0  0  0
    3.7837    1.8155   -0.5423 H   0  0  0  0  0  0  0  0  0  0  0  0
    3.4445   -0.5878    1.3895 H   0  0  0  0  0  0  0  0  0  0  0  0
    3.4973   -0.7574   -0.3943 H   0  0  0  0  0  0  0  0  0  0  0  0
    5.8156    0.5295   -1.5275 H   0  0  0  0  0  0  0  0  0  0  0  0
    8.3182    0.2635   -0.9429 H   0  0  0  0  0  0  0  0  0  0  0  0
    8.7162   -0.5995    1.4922 H   0  0  0  0  0  0  0  0  0  0  0  0
    1.6202    1.8607   -1.8880 H   0  0  0  0  0  0  0  0  0  0  0  0
    1.8318    0.1178   -1.5539 H   0  0  0  0  0  0  0  0  0  0  0  0
   -0.5295    0.7610   -2.2380 H   0  0  0  0  0  0  0  0  0  0  0  0
   -0.5815    1.8298   -0.8128 H   0  0  0  0  0  0  0  0  0  0  0  0
  1  2  1  0
  2  3  1  0
  3  4  2  0
  3  5  1  0
  5  6  1  0
  6  7  2  0
  7  8  1  0
  8  9  2  0
  9 10  1  0
 10 11  2  0
 11  6  1  0
  5 12  1  0
 12 13  1  0
 13 14  1  0
 14 15  1  0
 12 16  1  0
 16 17  1  0
 17 18  1  0
 18 19  1  0
 19 20  1  0
 20 21  1  0
 21 22  2  0
 22 23  1  0
 23 24  2  0
 24 25  1  0
 25 21  1  0
 18 26  1  0
 26 27  1  0
 27 12  1  0
  1 28  1  0
  1 29  1  0
  1 30  1  0
  2 31  1  0
  2 32  1  0
  7 33  1  0
  8 34  1  0
  9 35  1  0
 10 36  1  0
 11 37  1  0
 13 38  1  0
 13 39  1  0
 15 40  1  0
 15 41  1  0
 15 42  1  0
 16 43  1  0
 16 44  1  0
 17 45  1  0
 17 46  1  0
 19 47  1  0
 19 48  1  0
 20 49  1  0
 20 50  1  0
 22 51  1  0
 23 52  1  0
 24 53  1  0
 26 54  1  0
 26 55  1  0
 27 56  1  0
 27 57  1  0
M  END
> <ID>
HT1928

> <Class>
0.0

> <Clusters>
218

> <Fold>
3

$$$$