
     RDKit          3D

 55 59  0  0  0  0  0  0  0  0999 V2000
    6.2177   -0.3982    1.3588 C   0  0  0  0  0  0  0  0  0  0  0  0
    5.2484    0.5741    0.6872 C   0  0  0  0  0  0  0  0  0  0  0  0
    3.7784    0.1663    0.8660 C   0  0  0  0  0  0  0  0  0  0  0  0
    3.4061   -1.0766    0.0399 C   0  0  0  0  0  0  0  0  0  0  0  0
    1.9184   -1.4139    0.1705 C   0  0  0  0  0  0  0  0  0  0  0  0
    1.1041   -0.3441   -0.4350 N   0  0  0  0  0  0  0  0  0  0  0  0
   -0.2876   -0.2491    0.0882 C   0  0  2  0  0  0  0  0  0  0  0  0
   -0.2069    0.1162    1.5620 C   0  0  0  0  0  0  0  0  0  0  0  0
    0.1550    1.3516    1.9197 C   0  0  0  0  0  0  0  0  0  0  0  0
    0.2398    2.4243    0.9092 C   0  0  0  0  0  0  0  0  0  0  0  0
    0.9149    3.4583    1.1552 O   0  0  0  0  0  0  0  0  0  0  0  0
   -0.5824    2.3495   -0.3591 C   0  0  2  0  0  0  0  0  0  0  0  0
   -1.7891    3.0949   -0.1396 O   0  0  0  0  0  0  0  0  0  0  0  0
   -2.8409    2.2293    0.0916 C   0  0  0  0  0  0  0  0  0  0  0  0
   -4.1069    2.5306    0.5992 C   0  0  0  0  0  0  0  0  0  0  0  0
   -4.5207    3.8462    0.7906 O   0  0  0  0  0  0  0  0  0  0  0  0
   -4.9512    1.4569    0.9461 C   0  0  0  0  0  0  0  0  0  0  0  0
   -4.4920    0.1247    0.8353 C   0  0  0  0  0  0  0  0  0  0  0  0
   -3.2104   -0.1379    0.3130 C   0  0  0  0  0  0  0  0  0  0  0  0
   -2.5672   -1.5039    0.3937 C   0  0  0  0  0  0  0  0  0  0  0  0
   -1.0997   -1.5648   -0.1774 C   0  0  1  0  0  0  0  0  0  0  0  0
   -1.0526   -1.8469   -1.6381 N   0  0  0  0  0  0  0  0  0  0  0  0
   -1.5099   -3.2007   -1.9905 C   0  0  0  0  0  0  0  0  0  0  0  0
   -1.7155   -0.8178   -2.4688 C   0  0  0  0  0  0  0  0  0  0  0  0
   -1.1688    0.5982   -2.1798 C   0  0  0  0  0  0  0  0  0  0  0  0
   -1.0686    0.8836   -0.6560 C   0  0  1  0  0  0  0  0  0  0  0  0
   -2.4584    0.9440   -0.1275 C   0  0  0  0  0  0  0  0  0  0  0  0
    6.2064   -1.3824    0.8467 H   0  0  0  0  0  0  0  0  0  0  0  0
    5.9536   -0.5339    2.4291 H   0  0  0  0  0  0  0  0  0  0  0  0
    7.2488    0.0094    1.2990 H   0  0  0  0  0  0  0  0  0  0  0  0
    5.3917    1.5777    1.1432 H   0  0  0  0  0  0  0  0  0  0  0  0
    5.4937    0.6586   -0.3939 H   0  0  0  0  0  0  0  0  0  0  0  0
    3.1475    1.0219    0.5400 H   0  0  0  0  0  0  0  0  0  0  0  0
    3.5655   -0.0153    1.9424 H   0  0  0  0  0  0  0  0  0  0  0  0
    3.6524   -0.9085   -1.0314 H   0  0  0  0  0  0  0  0  0  0  0  0
    3.9901   -1.9513    0.3963 H   0  0  0  0  0  0  0  0  0  0  0  0
    1.6863   -1.5645    1.2460 H   0  0  0  0  0  0  0  0  0  0  0  0
    1.7248   -2.3777   -0.3518 H   0  0  0  0  0  0  0  0  0  0  0  0
    1.1177   -0.5094   -1.4654 H   0  0  0  0  0  0  0  0  0  0  0  0
   -0.3312   -0.6457    2.3216 H   0  0  0  0  0  0  0  0  0  0  0  0
    0.3569    1.5748    2.9595 H   0  0  0  0  0  0  0  0  0  0  0  0
   -0.0146    2.7761   -1.2142 H   0  0  0  0  0  0  0  0  0  0  0  0
   -3.9210    4.6279    0.5543 H   0  0  0  0  0  0  0  0  0  0  0  0
   -5.9345    1.6529    1.3539 H   0  0  0  0  0  0  0  0  0  0  0  0
   -5.1137   -0.6884    1.1881 H   0  0  0  0  0  0  0  0  0  0  0  0
   -2.5257   -1.7832    1.4688 H   0  0  0  0  0  0  0  0  0  0  0  0
   -3.2274   -2.2476   -0.0933 H   0  0  0  0  0  0  0  0  0  0  0  0
   -0.5876   -2.3940    0.3587 H   0  0  0  0  0  0  0  0  0  0  0  0
   -2.6180   -3.2750   -1.9882 H   0  0  0  0  0  0  0  0  0  0  0  0
   -1.0884   -3.9553   -1.2925 H   0  0  0  0  0  0  0  0  0  0  0  0
   -1.1485   -3.4573   -3.0087 H   0  0  0  0  0  0  0  0  0  0  0  0
   -1.5371   -1.0383   -3.5441 H   0  0  0  0  0  0  0  0  0  0  0  0
   -2.8165   -0.8371   -2.3130 H   0  0  0  0  0  0  0  0  0  0  0  0
   -0.1829    0.7299   -2.6712 H   0  0  0  0  0  0  0  0  0  0  0  0
   -1.8424    1.3412   -2.6630 H   0  0  0  0  0  0  0  0  0  0  0  0
  1  2  1  0
  2  3  1  0
  3  4  1  0
  4  5  1  0
  5  6  1  0
  7  6  1  6
  7  8  1  0
  8  9  2  0
  9 10  1  0
 10 11  2  0
 10 12  1  0
 12 13  1  0
 13 14  1  0
 14 15  1  0
 15 16  1  0
 15 17  2  0
 17 18  1  0
 18 19  2  0
 19 20  1  0
 21 20  1  0
 21  7  1  0
 21 22  1  0
 22 23  1  0
 22 24  1  0
 24 25  1  0
 26 25  1  6
 26  7  1  0
 26 12  1  0
 26 27  1  0
 27 14  2  0
 27 19  1  0
  1 28  1  0
  1 29  1  0
  1 30  1  0
  2 31  1  0
  2 32  1  0
  3 33  1  0
  3 34  1  0
  4 35  1  0
  4 36  1  0
  5 37  1  0
  5 38  1  0
  6 39  1  0
  8 40  1  0
  9 41  1  0
 12 42  1  6
 16 43  1  0
 17 44  1  0
 18 45  1  0
 20 46  1  0
 20 47  1  0
 21 48  1  1
 23 49  1  0
 23 50  1  0
 23 51  1  0
 24 52  1  0
 24 53  1  0
 25 54  1  0
 25 55  1  0
M  END
> <ID>
HT1619

> <Class>
0.0

> <Clusters>
175

> <Fold>
3

$$$$