
     RDKit          3D

 52 55  0  0  0  0  0  0  0  0999 V2000
   -1.2473    0.4931   -2.0981 O   0  0  0  0  0  0  0  0  0  0  0  0
   -1.0586   -0.1226   -0.8394 C   0  0  0  0  0  0  0  0  0  0  0  0
    0.4565   -0.4839   -0.7120 C   0  0  0  0  0  0  0  0  0  0  0  0
    1.3879    0.7399   -0.8042 C   0  0  0  0  0  0  0  0  0  0  0  0
    2.8012    0.3172   -0.6873 N   0  0  0  0  0  0  0  0  0  0  0  0
    3.2151    0.2558    0.7328 C   0  0  0  0  0  0  0  0  0  0  0  0
    4.6442   -0.2833    0.8496 C   0  0  0  0  0  0  0  0  0  0  0  0
    5.6123    0.5951    0.0541 C   0  0  0  0  0  0  0  0  0  0  0  0
    5.1342    0.7490   -1.3915 C   0  0  0  0  0  0  0  0  0  0  0  0
    3.6829    1.2413   -1.4320 C   0  0  0  0  0  0  0  0  0  0  0  0
   -1.9069   -1.4503   -0.8287 C   0  0  0  0  0  0  0  0  0  0  0  0
   -1.8733   -2.3437    0.4451 C   0  0  0  0  0  0  0  0  0  0  0  0
   -3.3678   -2.6659    0.6627 C   0  0  0  0  0  0  0  0  0  0  0  0
   -3.8886   -2.7275   -0.7629 C   0  0  0  0  0  0  0  0  0  0  0  0
   -3.4344   -1.3150   -1.0912 C   0  0  0  0  0  0  0  0  0  0  0  0
   -4.0890   -0.5910    0.0582 C   0  0  0  0  0  0  0  0  0  0  0  0
   -4.0350   -1.3976    1.1168 C   0  0  0  0  0  0  0  0  0  0  0  0
   -1.4865    0.8789    0.2557 C   0  0  0  0  0  0  0  0  0  0  0  0
   -1.0454    0.7630    1.5954 C   0  0  0  0  0  0  0  0  0  0  0  0
   -1.4434    1.6867    2.5656 C   0  0  0  0  0  0  0  0  0  0  0  0
   -2.2771    2.7497    2.2236 C   0  0  0  0  0  0  0  0  0  0  0  0
   -2.7092    2.8976    0.9072 C   0  0  0  0  0  0  0  0  0  0  0  0
   -2.3150    1.9794   -0.0695 C   0  0  0  0  0  0  0  0  0  0  0  0
   -0.9557   -0.1348   -2.8106 H   0  0  0  0  0  0  0  0  0  0  0  0
    0.7362   -1.1811   -1.5327 H   0  0  0  0  0  0  0  0  0  0  0  0
    0.6450   -1.0423    0.2251 H   0  0  0  0  0  0  0  0  0  0  0  0
    1.1334    1.4957   -0.0284 H   0  0  0  0  0  0  0  0  0  0  0  0
    1.2016    1.2227   -1.7897 H   0  0  0  0  0  0  0  0  0  0  0  0
    3.1577    1.2622    1.2080 H   0  0  0  0  0  0  0  0  0  0  0  0
    2.5488   -0.4260    1.3022 H   0  0  0  0  0  0  0  0  0  0  0  0
    4.9503   -0.2979    1.9178 H   0  0  0  0  0  0  0  0  0  0  0  0
    4.6801   -1.3255    0.4628 H   0  0  0  0  0  0  0  0  0  0  0  0
    5.6846    1.5973    0.5313 H   0  0  0  0  0  0  0  0  0  0  0  0
    6.6239    0.1353    0.0635 H   0  0  0  0  0  0  0  0  0  0  0  0
    5.2071   -0.2302   -1.9139 H   0  0  0  0  0  0  0  0  0  0  0  0
    5.7878    1.4746   -1.9219 H   0  0  0  0  0  0  0  0  0  0  0  0
    3.6198    2.2721   -1.0133 H   0  0  0  0  0  0  0  0  0  0  0  0
    3.3748    1.2825   -2.5001 H   0  0  0  0  0  0  0  0  0  0  0  0
   -1.5061   -2.0745   -1.6628 H   0  0  0  0  0  0  0  0  0  0  0  0
   -1.4461   -1.8565    1.3386 H   0  0  0  0  0  0  0  0  0  0  0  0
   -1.3047   -3.2797    0.2503 H   0  0  0  0  0  0  0  0  0  0  0  0
   -3.5776   -3.5563    1.2921 H   0  0  0  0  0  0  0  0  0  0  0  0
   -4.9960   -2.8567   -0.8190 H   0  0  0  0  0  0  0  0  0  0  0  0
   -3.3946   -3.5147   -1.3789 H   0  0  0  0  0  0  0  0  0  0  0  0
   -3.7175   -0.9500   -2.1011 H   0  0  0  0  0  0  0  0  0  0  0  0
   -4.6170    0.3555    0.0177 H   0  0  0  0  0  0  0  0  0  0  0  0
   -4.5011   -1.2103    2.0781 H   0  0  0  0  0  0  0  0  0  0  0  0
   -0.3705   -0.0190    1.9052 H   0  0  0  0  0  0  0  0  0  0  0  0
   -1.0962    1.5814    3.5855 H   0  0  0  0  0  0  0  0  0  0  0  0
   -2.5831    3.4629    2.9780 H   0  0  0  0  0  0  0  0  0  0  0  0
   -3.3546    3.7249    0.6415 H   0  0  0  0  0  0  0  0  0  0  0  0
   -2.6873    2.1219   -1.0752 H   0  0  0  0  0  0  0  0  0  0  0  0
  1  2  1  0
  2  3  1  0
  3  4  1  0
  4  5  1  0
  5  6  1  0
  6  7  1  0
  7  8  1  0
  8  9  1  0
  9 10  1  0
 10  5  1  0
  2 11  1  0
 11 12  1  0
 12 13  1  0
 13 14  1  0
 14 15  1  0
 15 11  1  0
 15 16  1  0
 16 17  2  0
 17 13  1  0
  2 18  1  0
 18 19  2  0
 19 20  1  0
 20 21  2  0
 21 22  1  0
 22 23  2  0
 23 18  1  0
  1 24  1  0
  3 25  1  0
  3 26  1  0
  4 27  1  0
  4 28  1  0
  6 29  1  0
  6 30  1  0
  7 31  1  0
  7 32  1  0
  8 33  1  0
  8 34  1  0
  9 35  1  0
  9 36  1  0
 10 37  1  0
 10 38  1  0
 11 39  1  0
 12 40  1  0
 12 41  1  0
 13 42  1  0
 14 43  1  0
 14 44  1  0
 15 45  1  0
 16 46  1  0
 17 47  1  0
 19 48  1  0
 20 49  1  0
 21 50  1  0
 22 51  1  0
 23 52  1  0
M  END
> <ID>
HT0289

> <Class>
0.0

> <Clusters>
67

> <Fold>
3

$$$$