
     RDKit          3D

 43 46  0  0  0  0  0  0  0  0999 V2000
   -4.0597   -0.8733    0.3496 C   0  0  0  0  0  0  0  0  0  0  0  0
   -3.9659   -0.0018   -0.9007 C   0  0  0  0  0  0  0  0  0  0  0  0
   -2.9729    1.1394   -0.6721 C   0  0  0  0  0  0  0  0  0  0  0  0
   -1.6272    0.6188   -0.3475 N   0  0  0  0  0  0  0  0  0  0  0  0
   -0.7098    1.7675   -0.1425 C   0  0  0  0  0  0  0  0  0  0  0  0
    0.7189    1.3093    0.2390 C   0  0  0  0  0  0  0  0  0  0  0  0
    0.6421    0.4516    1.5045 C   0  0  0  0  0  0  0  0  0  0  0  0
   -0.2316   -0.7614    1.1873 C   0  0  0  0  0  0  0  0  0  0  0  0
    0.3926   -1.5967    0.0241 C   0  0  0  0  0  0  0  0  0  0  0  0
    1.5171   -0.9261   -0.6662 N   0  0  0  0  0  0  0  0  0  0  0  0
    2.8623   -1.5332   -0.5561 C   0  0  0  0  0  0  0  0  0  0  0  0
    3.8524   -0.6478    0.2134 C   0  0  0  0  0  0  0  0  0  0  0  0
    3.8291    0.8328   -0.2172 C   0  0  0  0  0  0  0  0  0  0  0  0
    2.7785    1.1371   -1.2917 C   0  0  0  0  0  0  0  0  0  0  0  0
    1.4062    0.5305   -0.9324 C   0  0  0  0  0  0  0  0  0  0  0  0
   -1.6620   -0.2402    0.8659 C   0  0  0  0  0  0  0  0  0  0  0  0
   -2.6764   -1.4023    0.7238 C   0  0  0  0  0  0  0  0  0  0  0  0
   -4.4773   -0.2800    1.1930 H   0  0  0  0  0  0  0  0  0  0  0  0
   -4.7446   -1.7269    0.1564 H   0  0  0  0  0  0  0  0  0  0  0  0
   -3.6370   -0.6164   -1.7675 H   0  0  0  0  0  0  0  0  0  0  0  0
   -4.9678    0.4196   -1.1324 H   0  0  0  0  0  0  0  0  0  0  0  0
   -3.3523    1.7983    0.1430 H   0  0  0  0  0  0  0  0  0  0  0  0
   -2.9253    1.7420   -1.6060 H   0  0  0  0  0  0  0  0  0  0  0  0
   -1.0965    2.4371    0.6607 H   0  0  0  0  0  0  0  0  0  0  0  0
   -0.6513    2.3757   -1.0727 H   0  0  0  0  0  0  0  0  0  0  0  0
    1.2965    2.2270    0.4881 H   0  0  0  0  0  0  0  0  0  0  0  0
    0.2053    1.0396    2.3424 H   0  0  0  0  0  0  0  0  0  0  0  0
    1.6482    0.1337    1.8367 H   0  0  0  0  0  0  0  0  0  0  0  0
   -0.2835   -1.3945    2.1013 H   0  0  0  0  0  0  0  0  0  0  0  0
    0.7026   -2.5828    0.4312 H   0  0  0  0  0  0  0  0  0  0  0  0
   -0.3567   -1.8297   -0.7558 H   0  0  0  0  0  0  0  0  0  0  0  0
    3.2551   -1.6961   -1.5828 H   0  0  0  0  0  0  0  0  0  0  0  0
    2.8289   -2.5340   -0.0752 H   0  0  0  0  0  0  0  0  0  0  0  0
    4.8760   -1.0551    0.0630 H   0  0  0  0  0  0  0  0  0  0  0  0
    3.6466   -0.7280    1.3009 H   0  0  0  0  0  0  0  0  0  0  0  0
    3.6367    1.4691    0.6737 H   0  0  0  0  0  0  0  0  0  0  0  0
    4.8288    1.1218   -0.6085 H   0  0  0  0  0  0  0  0  0  0  0  0
    3.1210    0.7126   -2.2613 H   0  0  0  0  0  0  0  0  0  0  0  0
    2.6923    2.2364   -1.4340 H   0  0  0  0  0  0  0  0  0  0  0  0
    0.7866    0.6410   -1.8499 H   0  0  0  0  0  0  0  0  0  0  0  0
   -2.0080    0.3675    1.7366 H   0  0  0  0  0  0  0  0  0  0  0  0
   -2.3684   -2.1321   -0.0507 H   0  0  0  0  0  0  0  0  0  0  0  0
   -2.7496   -1.9500    1.6885 H   0  0  0  0  0  0  0  0  0  0  0  0
  1  2  1  0
  2  3  1  0
  3  4  1  0
  4  5  1  0
  5  6  1  0
  6  7  1  0
  7  8  1  0
  8  9  1  0
  9 10  1  0
 10 11  1  0
 11 12  1  0
 12 13  1  0
 13 14  1  0
 14 15  1  0
 15  6  1  0
 15 10  1  0
  8 16  1  0
 16  4  1  0
 16 17  1  0
 17  1  1  0
  1 18  1  0
  1 19  1  0
  2 20  1  0
  2 21  1  0
  3 22  1  0
  3 23  1  0
  5 24  1  0
  5 25  1  0
  6 26  1  0
  7 27  1  0
  7 28  1  0
  8 29  1  0
  9 30  1  0
  9 31  1  0
 11 32  1  0
 11 33  1  0
 12 34  1  0
 12 35  1  0
 13 36  1  0
 13 37  1  0
 14 38  1  0
 14 39  1  0
 15 40  1  0
 16 41  1  0
 17 42  1  0
 17 43  1  0
M  END
> <ID>
HT3021

> <Class>
0.0

> <Clusters>
67

> <Fold>
3

$$$$