
     RDKit          3D

 28 29  0  0  0  0  0  0  0  0999 V2000
    1.3352    1.7666    2.0363 O   0  0  0  0  0  0  0  0  0  0  0  0
    1.2335    0.9096    1.1152 C   0  0  0  0  0  0  0  0  0  0  0  0
   -0.0297    0.5217    0.6562 O   0  0  0  0  0  0  0  0  0  0  0  0
   -1.2398    1.0490    1.1898 C   0  0  0  0  0  0  0  0  0  0  0  0
   -2.4095    0.4077    0.5005 C   0  0  0  0  0  0  0  0  0  0  0  0
   -2.6246   -0.9745    0.6273 C   0  0  0  0  0  0  0  0  0  0  0  0
   -3.7101   -1.5804   -0.0131 C   0  0  0  0  0  0  0  0  0  0  0  0
   -4.5873   -0.8116   -0.7829 C   0  0  0  0  0  0  0  0  0  0  0  0
   -4.3804    0.5644   -0.9137 C   0  0  0  0  0  0  0  0  0  0  0  0
   -3.2959    1.1745   -0.2751 C   0  0  0  0  0  0  0  0  0  0  0  0
    2.4480    0.3120    0.5182 C   0  0  0  0  0  0  0  0  0  0  0  0
    3.7291    0.6926    0.9609 C   0  0  0  0  0  0  0  0  0  0  0  0
    4.8722    0.1226    0.3916 C   0  0  0  0  0  0  0  0  0  0  0  0
    4.7499   -0.8302   -0.6223 C   0  0  0  0  0  0  0  0  0  0  0  0
    3.4840   -1.2153   -1.0692 C   0  0  0  0  0  0  0  0  0  0  0  0
    2.3373   -0.6488   -0.5037 C   0  0  0  0  0  0  0  0  0  0  0  0
   -1.2960    0.8346    2.2792 H   0  0  0  0  0  0  0  0  0  0  0  0
   -1.2527    2.1522    1.0499 H   0  0  0  0  0  0  0  0  0  0  0  0
   -1.9514   -1.5807    1.2211 H   0  0  0  0  0  0  0  0  0  0  0  0
   -3.8712   -2.6460    0.0875 H   0  0  0  0  0  0  0  0  0  0  0  0
   -5.4271   -1.2820   -1.2780 H   0  0  0  0  0  0  0  0  0  0  0  0
   -5.0603    1.1586   -1.5105 H   0  0  0  0  0  0  0  0  0  0  0  0
   -3.1486    2.2414   -0.3875 H   0  0  0  0  0  0  0  0  0  0  0  0
    3.8483    1.4292    1.7455 H   0  0  0  0  0  0  0  0  0  0  0  0
    5.8538    0.4203    0.7371 H   0  0  0  0  0  0  0  0  0  0  0  0
    5.6360   -1.2700   -1.0615 H   0  0  0  0  0  0  0  0  0  0  0  0
    3.3905   -1.9539   -1.8549 H   0  0  0  0  0  0  0  0  0  0  0  0
    1.3667   -0.9635   -0.8663 H   0  0  0  0  0  0  0  0  0  0  0  0
  1  2  2  0
  2  3  1  0
  3  4  1  0
  4  5  1  0
  5  6  2  0
  6  7  1  0
  7  8  2  0
  8  9  1  0
  9 10  2  0
 10  5  1  0
  2 11  1  0
 11 12  2  0
 12 13  1  0
 13 14  2  0
 14 15  1  0
 15 16  2  0
 16 11  1  0
  4 17  1  0
  4 18  1  0
  6 19  1  0
  7 20  1  0
  8 21  1  0
  9 22  1  0
 10 23  1  0
 12 24  1  0
 13 25  1  0
 14 26  1  0
 15 27  1  0
 16 28  1  0
M  END
> <ID>
HT0258

> <Class>
0.0

> <Clusters>
30

> <Fold>
3

$$$$