
     RDKit          3D

 22 22  0  0  0  0  0  0  0  0999 V2000
   -2.8403    0.6369    0.1885 C   0  0  0  0  0  0  0  0  0  0  0  0
   -1.5731    0.0554    0.8180 C   0  0  0  0  0  0  0  0  0  0  0  0
   -0.4480   -0.2086   -0.2066 C   0  0  0  0  0  0  0  0  0  0  0  0
   -0.8192   -1.2809   -1.2406 C   0  0  0  0  0  0  0  0  0  0  0  0
   -0.0767    1.0021   -0.8704 O   0  0  0  0  0  0  0  0  0  0  0  0
    1.2466    1.3102   -0.5866 C   0  0  0  0  0  0  0  0  0  0  0  0
    1.8495    2.2969   -1.0847 O   0  0  0  0  0  0  0  0  0  0  0  0
    1.8525    0.3849    0.2988 N   0  0  0  0  0  0  0  0  0  0  0  0
    3.2840    0.1510    0.4384 C   0  0  0  0  0  0  0  0  0  0  0  0
    0.8293   -0.5807    0.5008 C   0  0  0  0  0  0  0  0  0  0  0  0
    0.9936   -1.6302    1.1794 O   0  0  0  0  0  0  0  0  0  0  0  0
   -3.3247   -0.1057   -0.4786 H   0  0  0  0  0  0  0  0  0  0  0  0
   -2.6064    1.5572   -0.3871 H   0  0  0  0  0  0  0  0  0  0  0  0
   -3.5620    0.8994    0.9905 H   0  0  0  0  0  0  0  0  0  0  0  0
   -1.2082    0.7763    1.5829 H   0  0  0  0  0  0  0  0  0  0  0  0
   -1.8328   -0.8891    1.3446 H   0  0  0  0  0  0  0  0  0  0  0  0
   -1.1384   -2.2169   -0.7342 H   0  0  0  0  0  0  0  0  0  0  0  0
   -1.6411   -0.9244   -1.8953 H   0  0  0  0  0  0  0  0  0  0  0  0
    0.0536   -1.5081   -1.8904 H   0  0  0  0  0  0  0  0  0  0  0  0
    3.4854   -0.4139    1.3727 H   0  0  0  0  0  0  0  0  0  0  0  0
    3.6536   -0.4324   -0.4308 H   0  0  0  0  0  0  0  0  0  0  0  0
    3.8229    1.1204    0.4868 H   0  0  0  0  0  0  0  0  0  0  0  0
  1  2  1  0
  2  3  1  0
  3  4  1  0
  3  5  1  0
  5  6  1  0
  6  7  2  0
  6  8  1  0
  8  9  1  0
  8 10  1  0
 10  3  1  0
 10 11  2  0
  1 12  1  0
  1 13  1  0
  1 14  1  0
  2 15  1  0
  2 16  1  0
  4 17  1  0
  4 18  1  0
  4 19  1  0
  9 20  1  0
  9 21  1  0
  9 22  1  0
M  END
> <ID>
HT1590

> <Class>
0.0

> <Clusters>
235

> <Fold>
3

$$$$