
     RDKit          3D

 42 42  0  0  0  0  0  0  0  0999 V2000
    5.7804   -0.2897    1.0764 C   0  0  0  0  0  0  0  0  0  0  0  0
    4.9500   -0.3632   -0.2105 C   0  0  0  0  0  0  0  0  0  0  0  0
    5.4811    0.6147   -1.2653 C   0  0  0  0  0  0  0  0  0  0  0  0
    3.4800   -0.1163    0.0730 C   0  0  0  0  0  0  0  0  0  0  0  0
    3.0374    1.1099    0.6029 C   0  0  0  0  0  0  0  0  0  0  0  0
    1.6802    1.3235    0.8582 C   0  0  0  0  0  0  0  0  0  0  0  0
    0.7406    0.3148    0.6054 C   0  0  0  0  0  0  0  0  0  0  0  0
   -0.6521    0.5700    0.8544 N   0  0  0  0  0  0  0  0  0  0  0  0
   -1.5954   -0.4371    1.2501 C   0  0  0  0  0  0  0  0  0  0  0  0
   -1.1996   -1.5497    1.6918 O   0  0  0  0  0  0  0  0  0  0  0  0
   -3.0665   -0.1585    1.1665 C   0  0  0  0  0  0  0  0  0  0  0  0
   -3.4743    0.0541   -0.2395 N   0  0  0  0  0  0  0  0  0  0  0  0
   -4.7422    0.8072   -0.3560 C   0  0  0  0  0  0  0  0  0  0  0  0
   -4.4856    2.2841   -0.3473 C   0  0  0  0  0  0  0  0  0  0  0  0
   -5.4589    3.0829   -0.3901 O   0  0  0  0  0  0  0  0  0  0  0  0
   -3.1859    2.7813   -0.3028 O   0  0  0  0  0  0  0  0  0  0  0  0
   -3.4492   -1.1837   -1.0575 C   0  0  0  0  0  0  0  0  0  0  0  0
   -4.5063   -2.2110   -0.7150 C   0  0  0  0  0  0  0  0  0  0  0  0
   -5.3771   -1.9967    0.1689 O   0  0  0  0  0  0  0  0  0  0  0  0
   -4.5281   -3.4224   -1.3989 O   0  0  0  0  0  0  0  0  0  0  0  0
    1.1762   -0.9027    0.0549 C   0  0  0  0  0  0  0  0  0  0  0  0
    2.5332   -1.1176   -0.2021 C   0  0  0  0  0  0  0  0  0  0  0  0
    5.7640    0.7341    1.5067 H   0  0  0  0  0  0  0  0  0  0  0  0
    5.3800   -1.0025    1.8288 H   0  0  0  0  0  0  0  0  0  0  0  0
    6.8353   -0.5659    0.8641 H   0  0  0  0  0  0  0  0  0  0  0  0
    5.0805   -1.3887   -0.6231 H   0  0  0  0  0  0  0  0  0  0  0  0
    6.5296    0.3579   -1.5278 H   0  0  0  0  0  0  0  0  0  0  0  0
    4.8664    0.5491   -2.1886 H   0  0  0  0  0  0  0  0  0  0  0  0
    5.4576    1.6602   -0.8912 H   0  0  0  0  0  0  0  0  0  0  0  0
    3.7407    1.9038    0.8179 H   0  0  0  0  0  0  0  0  0  0  0  0
    1.3601    2.2752    1.2637 H   0  0  0  0  0  0  0  0  0  0  0  0
   -0.9874    1.5585    0.8073 H   0  0  0  0  0  0  0  0  0  0  0  0
   -3.6402   -0.9856    1.6358 H   0  0  0  0  0  0  0  0  0  0  0  0
   -3.2639    0.7561    1.7680 H   0  0  0  0  0  0  0  0  0  0  0  0
   -5.4348    0.5570    0.4784 H   0  0  0  0  0  0  0  0  0  0  0  0
   -5.2634    0.5685   -1.3097 H   0  0  0  0  0  0  0  0  0  0  0  0
   -3.0104    3.7789   -0.2984 H   0  0  0  0  0  0  0  0  0  0  0  0
   -2.4523   -1.6665   -0.9745 H   0  0  0  0  0  0  0  0  0  0  0  0
   -3.5639   -0.9103   -2.1285 H   0  0  0  0  0  0  0  0  0  0  0  0
   -3.8461   -3.6285   -2.1191 H   0  0  0  0  0  0  0  0  0  0  0  0
    0.4681   -1.6794   -0.2018 H   0  0  0  0  0  0  0  0  0  0  0  0
    2.8421   -2.0654   -0.6253 H   0  0  0  0  0  0  0  0  0  0  0  0
  1  2  1  0
  2  3  1  0
  2  4  1  0
  4  5  2  0
  5  6  1  0
  6  7  2  0
  7  8  1  0
  8  9  1  0
  9 10  2  0
  9 11  1  0
 11 12  1  0
 12 13  1  0
 13 14  1  0
 14 15  2  0
 14 16  1  0
 12 17  1  0
 17 18  1  0
 18 19  2  0
 18 20  1  0
  7 21  1  0
 21 22  2  0
 22  4  1  0
  1 23  1  0
  1 24  1  0
  1 25  1  0
  2 26  1  0
  3 27  1  0
  3 28  1  0
  3 29  1  0
  5 30  1  0
  6 31  1  0
  8 32  1  0
 11 33  1  0
 11 34  1  0
 13 35  1  0
 13 36  1  0
 16 37  1  0
 17 38  1  0
 17 39  1  0
 20 40  1  0
 21 41  1  0
 22 42  1  0
M  END
> <ID>
HT3399

> <Class>
0.0

> <Clusters>
264

> <Fold>
3

$$$$