
     RDKit          3D

 35 36  0  0  0  0  0  0  0  0999 V2000
   -3.0725   -1.0488   -1.0222 C   0  0  0  0  0  0  0  0  0  0  0  0
   -3.0475   -0.2253    0.2863 C   0  0  0  0  0  0  0  0  0  0  0  0
   -4.4925    0.1994    0.6280 C   0  0  0  0  0  0  0  0  0  0  0  0
   -2.5257   -1.1251    1.4294 C   0  0  0  0  0  0  0  0  0  0  0  0
   -2.1494    1.0529    0.1651 C   0  0  0  0  0  0  0  0  0  0  0  0
   -2.6600    1.9583   -0.7846 O   0  0  0  0  0  0  0  0  0  0  0  0
   -0.6991    0.7337   -0.1444 C   0  0  0  0  0  0  0  0  0  0  0  0
    0.2818    0.9775    0.7354 C   0  0  0  0  0  0  0  0  0  0  0  0
    1.7116    0.6818    0.4772 C   0  0  0  0  0  0  0  0  0  0  0  0
    2.6923    1.3449    1.2608 C   0  0  0  0  0  0  0  0  0  0  0  0
    4.0621    1.0920    1.0659 C   0  0  0  0  0  0  0  0  0  0  0  0
    4.4194    0.1670    0.0919 C   0  0  0  0  0  0  0  0  0  0  0  0
    5.6840   -0.2493   -0.2767 O   0  0  0  0  0  0  0  0  0  0  0  0
    5.5424   -1.2240   -1.3195 C   0  0  0  0  0  0  0  0  0  0  0  0
    4.1283   -1.3440   -1.5286 O   0  0  0  0  0  0  0  0  0  0  0  0
    3.4929   -0.4832   -0.6544 C   0  0  0  0  0  0  0  0  0  0  0  0
    2.1277   -0.2629   -0.4959 C   0  0  0  0  0  0  0  0  0  0  0  0
   -3.4825   -0.4544   -1.8651 H   0  0  0  0  0  0  0  0  0  0  0  0
   -2.0568   -1.4033   -1.2951 H   0  0  0  0  0  0  0  0  0  0  0  0
   -3.7176   -1.9461   -0.9021 H   0  0  0  0  0  0  0  0  0  0  0  0
   -4.5161    0.7912    1.5686 H   0  0  0  0  0  0  0  0  0  0  0  0
   -5.1444   -0.6909    0.7629 H   0  0  0  0  0  0  0  0  0  0  0  0
   -4.9263    0.8195   -0.1857 H   0  0  0  0  0  0  0  0  0  0  0  0
   -3.1923   -2.0025    1.5761 H   0  0  0  0  0  0  0  0  0  0  0  0
   -1.5076   -1.5075    1.2022 H   0  0  0  0  0  0  0  0  0  0  0  0
   -2.4815   -0.5596    2.3852 H   0  0  0  0  0  0  0  0  0  0  0  0
   -2.1956    1.5760    1.1468 H   0  0  0  0  0  0  0  0  0  0  0  0
   -2.4753    1.5986   -1.6907 H   0  0  0  0  0  0  0  0  0  0  0  0
   -0.4710    0.3247   -1.1184 H   0  0  0  0  0  0  0  0  0  0  0  0
    0.0312    1.4444    1.6810 H   0  0  0  0  0  0  0  0  0  0  0  0
    2.3951    2.0616    2.0165 H   0  0  0  0  0  0  0  0  0  0  0  0
    4.8141    1.5985    1.6564 H   0  0  0  0  0  0  0  0  0  0  0  0
    6.0380   -0.8687   -2.2471 H   0  0  0  0  0  0  0  0  0  0  0  0
    5.9655   -2.1977   -0.9949 H   0  0  0  0  0  0  0  0  0  0  0  0
    1.4273   -0.8285   -1.0940 H   0  0  0  0  0  0  0  0  0  0  0  0
  1  2  1  0
  2  3  1  0
  2  4  1  0
  2  5  1  0
  5  6  1  0
  5  7  1  0
  7  8  2  0
  8  9  1  0
  9 10  2  0
 10 11  1  0
 11 12  2  0
 12 13  1  0
 13 14  1  0
 14 15  1  0
 15 16  1  0
 16 12  1  0
 16 17  2  0
 17  9  1  0
  1 18  1  0
  1 19  1  0
  1 20  1  0
  3 21  1  0
  3 22  1  0
  3 23  1  0
  4 24  1  0
  4 25  1  0
  4 26  1  0
  5 27  1  0
  6 28  1  0
  7 29  1  0
  8 30  1  0
 10 31  1  0
 11 32  1  0
 14 33  1  0
 14 34  1  0
 17 35  1  0
M  END
> <ID>
HT1917

> <Class>
0.0

> <Clusters>
261

> <Fold>
3

$$$$