
     RDKit          3D

 45 46  0  0  0  0  0  0  0  0999 V2000
    5.4634    1.8451    0.6687 C   0  0  0  0  0  0  0  0  0  0  0  0
    5.6827    0.4544    0.0434 C   0  0  0  0  0  0  0  0  0  0  0  0
    6.9594    0.4872   -0.8079 C   0  0  0  0  0  0  0  0  0  0  0  0
    4.5964    0.1008   -0.8326 O   0  0  0  0  0  0  0  0  0  0  0  0
    3.2506   -0.0408   -0.4592 C   0  0  0  0  0  0  0  0  0  0  0  0
    2.6591   -1.3092   -0.5132 C   0  0  0  0  0  0  0  0  0  0  0  0
    1.3175   -1.4816   -0.1615 C   0  0  0  0  0  0  0  0  0  0  0  0
    0.5445   -0.3809    0.2385 C   0  0  0  0  0  0  0  0  0  0  0  0
   -0.9099   -0.5587    0.5827 C   0  0  0  0  0  0  0  0  0  0  0  0
   -1.7818   -0.4162   -0.6654 C   0  0  0  0  0  0  0  0  0  0  0  0
   -3.1901   -0.5902   -0.3121 N   0  0  0  0  0  0  0  0  0  0  0  0
   -4.1489    0.4790   -0.3768 C   0  0  0  0  0  0  0  0  0  0  0  0
   -3.7513    1.6657   -0.5366 O   0  0  0  0  0  0  0  0  0  0  0  0
   -5.6007    0.2145   -0.2287 C   0  0  0  0  0  0  0  0  0  0  0  0
   -6.4636    1.2414    0.1977 C   0  0  0  0  0  0  0  0  0  0  0  0
   -7.8346    1.0048    0.3361 C   0  0  0  0  0  0  0  0  0  0  0  0
   -8.3620   -0.2558    0.0435 C   0  0  0  0  0  0  0  0  0  0  0  0
  -10.0827   -0.5499    0.2158 Cl  0  0  0  0  0  0  0  0  0  0  0  0
   -7.5170   -1.2798   -0.3928 C   0  0  0  0  0  0  0  0  0  0  0  0
   -6.1450   -1.0481   -0.5317 C   0  0  0  0  0  0  0  0  0  0  0  0
    1.1226    0.8979    0.2455 C   0  0  0  0  0  0  0  0  0  0  0  0
    2.4652    1.0677   -0.1056 C   0  0  0  0  0  0  0  0  0  0  0  0
    5.8605   -0.5825    1.1330 C   0  0  0  0  0  0  0  0  0  0  0  0
    6.6653   -0.3710    2.0811 O   0  0  0  0  0  0  0  0  0  0  0  0
    5.1764   -1.7928    1.0789 O   0  0  0  0  0  0  0  0  0  0  0  0
    6.3786    2.1889    1.1979 H   0  0  0  0  0  0  0  0  0  0  0  0
    5.2222    2.5891   -0.1202 H   0  0  0  0  0  0  0  0  0  0  0  0
    4.6411    1.8176    1.4143 H   0  0  0  0  0  0  0  0  0  0  0  0
    7.8464    0.7523   -0.1920 H   0  0  0  0  0  0  0  0  0  0  0  0
    7.1365   -0.5070   -1.2724 H   0  0  0  0  0  0  0  0  0  0  0  0
    6.8586    1.2361   -1.6228 H   0  0  0  0  0  0  0  0  0  0  0  0
    3.2428   -2.1655   -0.8262 H   0  0  0  0  0  0  0  0  0  0  0  0
    0.8799   -2.4713   -0.2060 H   0  0  0  0  0  0  0  0  0  0  0  0
   -1.2161    0.2000    1.3361 H   0  0  0  0  0  0  0  0  0  0  0  0
   -1.0709   -1.5607    1.0378 H   0  0  0  0  0  0  0  0  0  0  0  0
   -1.5016   -1.1917   -1.4108 H   0  0  0  0  0  0  0  0  0  0  0  0
   -1.6077    0.5784   -1.1307 H   0  0  0  0  0  0  0  0  0  0  0  0
   -3.4842   -1.5259    0.0466 H   0  0  0  0  0  0  0  0  0  0  0  0
   -6.0768    2.2249    0.4346 H   0  0  0  0  0  0  0  0  0  0  0  0
   -8.4855    1.8024    0.6711 H   0  0  0  0  0  0  0  0  0  0  0  0
   -7.9229   -2.2548   -0.6311 H   0  0  0  0  0  0  0  0  0  0  0  0
   -5.5211   -1.8518   -0.8989 H   0  0  0  0  0  0  0  0  0  0  0  0
    0.5299    1.7649    0.5101 H   0  0  0  0  0  0  0  0  0  0  0  0
    2.8730    2.0674   -0.1358 H   0  0  0  0  0  0  0  0  0  0  0  0
    5.3017   -2.4944    1.7986 H   0  0  0  0  0  0  0  0  0  0  0  0
  1  2  1  0
  2  3  1  0
  2  4  1  0
  4  5  1  0
  5  6  2  0
  6  7  1  0
  7  8  2  0
  8  9  1  0
  9 10  1  0
 10 11  1  0
 11 12  1  0
 12 13  2  0
 12 14  1  0
 14 15  2  0
 15 16  1  0
 16 17  2  0
 17 18  1  0
 17 19  1  0
 19 20  2  0
 20 14  1  0
  8 21  1  0
 21 22  2  0
 22  5  1  0
  2 23  1  0
 23 24  2  0
 23 25  1  0
  1 26  1  0
  1 27  1  0
  1 28  1  0
  3 29  1  0
  3 30  1  0
  3 31  1  0
  6 32  1  0
  7 33  1  0
  9 34  1  0
  9 35  1  0
 10 36  1  0
 10 37  1  0
 11 38  1  0
 15 39  1  0
 16 40  1  0
 19 41  1  0
 20 42  1  0
 21 43  1  0
 22 44  1  0
 25 45  1  0
M  END
> <ID>
HT0281

> <Class>
0.0

> <Clusters>
56

> <Fold>
3

$$$$