
     RDKit          3D

 39 39  0  0  0  0  0  0  0  0999 V2000
   -1.2508   -0.8929   -2.2753 C   0  0  0  0  0  0  0  0  0  0  0  0
   -2.3351   -0.6065   -1.2728 C   0  0  0  0  0  0  0  0  0  0  0  0
   -3.6536   -0.4076   -1.7113 C   0  0  0  0  0  0  0  0  0  0  0  0
   -4.6649   -0.1127   -0.7976 C   0  0  0  0  0  0  0  0  0  0  0  0
   -4.3767   -0.0249    0.5640 C   0  0  0  0  0  0  0  0  0  0  0  0
   -3.0708   -0.2396    1.0307 C   0  0  0  0  0  0  0  0  0  0  0  0
   -2.7969   -0.1540    2.5083 C   0  0  0  0  0  0  0  0  0  0  0  0
   -2.0354   -0.5060    0.1038 C   0  0  0  0  0  0  0  0  0  0  0  0
   -0.6878   -0.7052    0.5555 N   0  0  0  0  0  0  0  0  0  0  0  0
    0.1060    0.3680    1.0801 C   0  0  0  0  0  0  0  0  0  0  0  0
   -0.3518    1.5429    1.1012 O   0  0  0  0  0  0  0  0  0  0  0  0
    1.4948    0.0998    1.6054 C   0  0  0  0  0  0  0  0  0  0  0  0
    2.5726    0.4246    0.6385 N   0  0  0  0  0  0  0  0  0  0  0  0
    2.5758   -0.4753   -0.5393 C   0  0  0  0  0  0  0  0  0  0  0  0
    3.1922   -1.8054   -0.2190 C   0  0  0  0  0  0  0  0  0  0  0  0
    3.7662   -2.0063    0.8856 O   0  0  0  0  0  0  0  0  0  0  0  0
    3.1475   -2.8211   -1.1683 O   0  0  0  0  0  0  0  0  0  0  0  0
    2.5596    1.8504    0.2426 C   0  0  0  0  0  0  0  0  0  0  0  0
    3.9358    2.3300   -0.1275 C   0  0  0  0  0  0  0  0  0  0  0  0
    4.9379    1.5760   -0.0041 O   0  0  0  0  0  0  0  0  0  0  0  0
    4.1154    3.6266   -0.5987 O   0  0  0  0  0  0  0  0  0  0  0  0
   -0.4865   -0.0888   -2.2363 H   0  0  0  0  0  0  0  0  0  0  0  0
   -0.7717   -1.8675   -2.0450 H   0  0  0  0  0  0  0  0  0  0  0  0
   -1.6508   -0.9401   -3.3104 H   0  0  0  0  0  0  0  0  0  0  0  0
   -3.9002   -0.4720   -2.7639 H   0  0  0  0  0  0  0  0  0  0  0  0
   -5.6771    0.0469   -1.1461 H   0  0  0  0  0  0  0  0  0  0  0  0
   -5.1776    0.2021    1.2571 H   0  0  0  0  0  0  0  0  0  0  0  0
   -2.4321    0.8628    2.7616 H   0  0  0  0  0  0  0  0  0  0  0  0
   -3.7176   -0.3570    3.0958 H   0  0  0  0  0  0  0  0  0  0  0  0
   -2.0367   -0.9043    2.8115 H   0  0  0  0  0  0  0  0  0  0  0  0
   -0.2465   -1.6400    0.4047 H   0  0  0  0  0  0  0  0  0  0  0  0
    1.5698   -0.9643    1.9149 H   0  0  0  0  0  0  0  0  0  0  0  0
    1.6472    0.6894    2.5356 H   0  0  0  0  0  0  0  0  0  0  0  0
    3.1734   -0.0378   -1.3687 H   0  0  0  0  0  0  0  0  0  0  0  0
    1.5514   -0.6280   -0.9341 H   0  0  0  0  0  0  0  0  0  0  0  0
    3.5620   -3.7262   -0.9809 H   0  0  0  0  0  0  0  0  0  0  0  0
    1.8684    2.0152   -0.6144 H   0  0  0  0  0  0  0  0  0  0  0  0
    2.2148    2.4909    1.0841 H   0  0  0  0  0  0  0  0  0  0  0  0
    3.3299    4.2578   -0.7033 H   0  0  0  0  0  0  0  0  0  0  0  0
  1  2  1  0
  2  3  2  0
  3  4  1  0
  4  5  2  0
  5  6  1  0
  6  7  1  0
  6  8  2  0
  8  2  1  0
  8  9  1  0
  9 10  1  0
 10 11  2  0
 10 12  1  0
 12 13  1  0
 13 14  1  0
 14 15  1  0
 15 16  2  0
 15 17  1  0
 13 18  1  0
 18 19  1  0
 19 20  2  0
 19 21  1  0
  1 22  1  0
  1 23  1  0
  1 24  1  0
  3 25  1  0
  4 26  1  0
  5 27  1  0
  7 28  1  0
  7 29  1  0
  7 30  1  0
  9 31  1  0
 12 32  1  0
 12 33  1  0
 14 34  1  0
 14 35  1  0
 17 36  1  0
 18 37  1  0
 18 38  1  0
 21 39  1  0
M  END
> <ID>
HT3323

> <Class>
0.0

> <Clusters>
264

> <Fold>
3

$$$$