
     RDKit          3D

 59 62  0  0  0  0  0  0  0  0999 V2000
    6.1571   -3.3938   -1.7809 C   0  0  0  0  0  0  0  0  0  0  0  0
    4.9703   -2.8034   -1.1421 N   0  0  0  0  0  0  0  0  0  0  0  0
    4.8243   -3.3432    0.2215 C   0  0  0  0  0  0  0  0  0  0  0  0
    5.0922   -1.3310   -1.1138 C   0  0  0  0  0  0  0  0  0  0  0  0
    3.7694   -0.6904   -0.8044 C   0  0  0  0  0  0  0  0  0  0  0  0
    2.7218   -0.8383   -1.6219 C   0  0  0  0  0  0  0  0  0  0  0  0
    1.3950   -0.2520   -1.3516 C   0  0  0  0  0  0  0  0  0  0  0  0
    0.4197   -0.6266   -2.0563 O   0  0  0  0  0  0  0  0  0  0  0  0
    1.2064    0.7600   -0.3469 N   0  0  0  0  0  0  0  0  0  0  0  0
   -0.0713    1.0578    0.2468 C   0  0  0  0  0  0  0  0  0  0  0  0
   -1.0085    0.0343    0.4789 C   0  0  0  0  0  0  0  0  0  0  0  0
   -2.2491    0.3191    1.0750 C   0  0  0  0  0  0  0  0  0  0  0  0
   -3.2321   -0.6672    1.3094 C   0  0  0  0  0  0  0  0  0  0  0  0
   -2.9893   -2.0538    1.0205 N   0  0  0  0  0  0  0  0  0  0  0  0
   -4.0108   -2.9557    0.5598 C   0  0  0  0  0  0  0  0  0  0  0  0
   -3.8726   -4.3327    0.7933 C   0  0  0  0  0  0  0  0  0  0  0  0
   -4.8419   -5.2291    0.3339 C   0  0  0  0  0  0  0  0  0  0  0  0
   -5.9530   -4.7615   -0.3731 C   0  0  0  0  0  0  0  0  0  0  0  0
   -6.8871   -5.6408   -0.8145 F   0  0  0  0  0  0  0  0  0  0  0  0
   -6.0918   -3.3931   -0.6300 C   0  0  0  0  0  0  0  0  0  0  0  0
   -7.4720   -2.7980   -1.5371 Cl  0  0  0  0  0  0  0  0  0  0  0  0
   -5.1226   -2.4932   -0.1698 C   0  0  0  0  0  0  0  0  0  0  0  0
   -4.4201   -0.3026    1.8641 N   0  0  0  0  0  0  0  0  0  0  0  0
   -4.6856    0.9855    2.1961 C   0  0  0  0  0  0  0  0  0  0  0  0
   -3.7541    1.9480    1.9855 N   0  0  0  0  0  0  0  0  0  0  0  0
   -2.5489    1.6486    1.4356 C   0  0  0  0  0  0  0  0  0  0  0  0
   -1.6121    2.6635    1.2269 C   0  0  0  0  0  0  0  0  0  0  0  0
   -0.3674    2.3779    0.6363 C   0  0  0  0  0  0  0  0  0  0  0  0
    0.5931    3.3784    0.4065 O   0  0  0  0  0  0  0  0  0  0  0  0
    0.4281    4.7693    0.6958 C   0  0  1  0  0  0  0  0  0  0  0  0
    1.7291    5.4856    0.4771 C   0  0  0  0  0  0  0  0  0  0  0  0
    1.5912    6.0191   -0.9283 C   0  0  0  0  0  0  0  0  0  0  0  0
    0.2299    6.2606   -1.1805 O   0  0  0  0  0  0  0  0  0  0  0  0
   -0.5087    5.4308   -0.3133 C   0  0  0  0  0  0  0  0  0  0  0  0
    7.0896   -3.1098   -1.2421 H   0  0  0  0  0  0  0  0  0  0  0  0
    6.2307   -3.0544   -2.8369 H   0  0  0  0  0  0  0  0  0  0  0  0
    6.0720   -4.5022   -1.8011 H   0  0  0  0  0  0  0  0  0  0  0  0
    3.9082   -2.9390    0.7015 H   0  0  0  0  0  0  0  0  0  0  0  0
    4.7092   -4.4481    0.1860 H   0  0  0  0  0  0  0  0  0  0  0  0
    5.7054   -3.0925    0.8539 H   0  0  0  0  0  0  0  0  0  0  0  0
    5.8473   -1.0090   -0.3608 H   0  0  0  0  0  0  0  0  0  0  0  0
    5.4276   -0.9470   -2.1038 H   0  0  0  0  0  0  0  0  0  0  0  0
    3.6877   -0.1161    0.1094 H   0  0  0  0  0  0  0  0  0  0  0  0
    2.8300   -1.4523   -2.5093 H   0  0  0  0  0  0  0  0  0  0  0  0
    2.0163    1.3746   -0.1080 H   0  0  0  0  0  0  0  0  0  0  0  0
   -0.7576   -0.9780    0.1976 H   0  0  0  0  0  0  0  0  0  0  0  0
   -2.0554   -2.4534    1.2650 H   0  0  0  0  0  0  0  0  0  0  0  0
   -3.0161   -4.7101    1.3379 H   0  0  0  0  0  0  0  0  0  0  0  0
   -4.7297   -6.2880    0.5254 H   0  0  0  0  0  0  0  0  0  0  0  0
   -5.2299   -1.4412   -0.3998 H   0  0  0  0  0  0  0  0  0  0  0  0
   -5.6396    1.2439    2.6346 H   0  0  0  0  0  0  0  0  0  0  0  0
   -1.8673    3.6723    1.5206 H   0  0  0  0  0  0  0  0  0  0  0  0
    0.0880    4.9108    1.7460 H   0  0  0  0  0  0  0  0  0  0  0  0
    2.6111    4.8155    0.5798 H   0  0  0  0  0  0  0  0  0  0  0  0
    1.8194    6.3339    1.1920 H   0  0  0  0  0  0  0  0  0  0  0  0
    2.1686    6.9603   -1.0452 H   0  0  0  0  0  0  0  0  0  0  0  0
    1.9715    5.2725   -1.6609 H   0  0  0  0  0  0  0  0  0  0  0  0
   -1.2592    6.0517    0.2212 H   0  0  0  0  0  0  0  0  0  0  0  0
   -1.0564    4.6735   -0.9144 H   0  0  0  0  0  0  0  0  0  0  0  0
  1  2  1  0
  2  3  1  0
  2  4  1  0
  4  5  1  0
  5  6  2  0
  6  7  1  0
  7  8  2  0
  7  9  1  0
  9 10  1  0
 10 11  2  0
 11 12  1  0
 12 13  2  0
 13 14  1  0
 14 15  1  0
 15 16  2  0
 16 17  1  0
 17 18  2  0
 18 19  1  0
 18 20  1  0
 20 21  1  0
 20 22  2  0
 22 15  1  0
 13 23  1  0
 23 24  2  0
 24 25  1  0
 25 26  2  0
 26 12  1  0
 26 27  1  0
 27 28  2  0
 28 10  1  0
 28 29  1  0
 30 29  1  0
 30 31  1  0
 31 32  1  0
 32 33  1  0
 33 34  1  0
 34 30  1  0
  1 35  1  0
  1 36  1  0
  1 37  1  0
  3 38  1  0
  3 39  1  0
  3 40  1  0
  4 41  1  0
  4 42  1  0
  5 43  1  0
  6 44  1  0
  9 45  1  0
 11 46  1  0
 14 47  1  0
 16 48  1  0
 17 49  1  0
 22 50  1  0
 24 51  1  0
 27 52  1  0
 30 53  1  1
 31 54  1  0
 31 55  1  0
 32 56  1  0
 32 57  1  0
 34 58  1  0
 34 59  1  0
M  END
> <ID>
HT2287

> <Class>
0.0

> <Clusters>
118

> <Fold>
3

$$$$