
     RDKit          3D

 29 32  0  0  0  0  0  0  0  0999 V2000
   -2.2734   -1.5060   -0.1011 C   0  0  0  0  0  0  0  0  0  0  0  0
   -2.9605   -0.6386    0.8933 N   0  0  0  0  0  0  0  0  0  0  0  0
   -2.3343    0.6812    1.1748 C   0  0  0  0  0  0  0  0  0  0  0  0
   -1.5995    1.3074   -0.0426 C   0  0  0  0  0  0  0  0  0  0  0  0
   -2.1546    0.6779   -1.3250 C   0  0  0  0  0  0  0  0  0  0  0  0
   -1.5429   -0.7240   -1.2277 C   0  0  0  0  0  0  0  0  0  0  0  0
   -0.1677   -0.3917   -0.7579 C   0  0  0  0  0  0  0  0  0  0  0  0
    1.0165   -1.1128   -0.9190 C   0  0  0  0  0  0  0  0  0  0  0  0
    2.1923   -0.5902   -0.3544 C   0  0  0  0  0  0  0  0  0  0  0  0
    3.3732   -1.2502   -0.4821 N   0  0  0  0  0  0  0  0  0  0  0  0
    4.5164   -0.7550    0.0619 C   0  0  0  0  0  0  0  0  0  0  0  0
    4.4828    0.4524    0.7663 C   0  0  0  0  0  0  0  0  0  0  0  0
    3.3072    1.1216    0.9014 N   0  0  0  0  0  0  0  0  0  0  0  0
    2.1581    0.6371    0.3615 C   0  0  0  0  0  0  0  0  0  0  0  0
    0.9483    1.3363    0.5096 C   0  0  0  0  0  0  0  0  0  0  0  0
   -0.2007    0.7926   -0.0671 C   0  0  0  0  0  0  0  0  0  0  0  0
   -1.5660   -2.1775    0.4335 H   0  0  0  0  0  0  0  0  0  0  0  0
   -3.0264   -2.1734   -0.5754 H   0  0  0  0  0  0  0  0  0  0  0  0
   -3.9424   -0.4756    0.5671 H   0  0  0  0  0  0  0  0  0  0  0  0
   -3.1256    1.3906    1.5036 H   0  0  0  0  0  0  0  0  0  0  0  0
   -1.6426    0.5755    2.0394 H   0  0  0  0  0  0  0  0  0  0  0  0
   -1.6438    2.4180   -0.0547 H   0  0  0  0  0  0  0  0  0  0  0  0
   -3.2658    0.6744   -1.3720 H   0  0  0  0  0  0  0  0  0  0  0  0
   -1.7677    1.2125   -2.2229 H   0  0  0  0  0  0  0  0  0  0  0  0
   -1.5414   -1.2610   -2.2008 H   0  0  0  0  0  0  0  0  0  0  0  0
    1.0235   -2.0498   -1.4616 H   0  0  0  0  0  0  0  0  0  0  0  0
    5.4467   -1.2954   -0.0509 H   0  0  0  0  0  0  0  0  0  0  0  0
    5.3869    0.8547    1.2033 H   0  0  0  0  0  0  0  0  0  0  0  0
    0.9033    2.2690    1.0577 H   0  0  0  0  0  0  0  0  0  0  0  0
  1  2  1  0
  2  3  1  0
  3  4  1  0
  4  5  1  0
  5  6  1  0
  6  1  1  0
  6  7  1  0
  7  8  2  0
  8  9  1  0
  9 10  2  0
 10 11  1  0
 11 12  2  0
 12 13  1  0
 13 14  2  0
 14  9  1  0
 14 15  1  0
 15 16  2  0
 16  4  1  0
 16  7  1  0
  1 17  1  0
  1 18  1  0
  2 19  1  0
  3 20  1  0
  3 21  1  0
  4 22  1  0
  5 23  1  0
  5 24  1  0
  6 25  1  0
  8 26  1  0
 11 27  1  0
 12 28  1  0
 15 29  1  0
M  END
> <ID>
HT2169

> <Class>
0.0

> <Clusters>
53

> <Fold>
3

$$$$