
     RDKit          3D

 45 46  0  0  0  0  0  0  0  0999 V2000
    8.1699   -1.1257   -0.3856 C   0  0  0  0  0  0  0  0  0  0  0  0
    6.7863   -1.4147   -0.5579 O   0  0  0  0  0  0  0  0  0  0  0  0
    5.7572   -0.4711   -0.4218 C   0  0  0  0  0  0  0  0  0  0  0  0
    6.0045    0.8741   -0.0953 C   0  0  0  0  0  0  0  0  0  0  0  0
    4.9442    1.7766    0.0294 C   0  0  0  0  0  0  0  0  0  0  0  0
    3.6155    1.3582   -0.1712 C   0  0  0  0  0  0  0  0  0  0  0  0
    3.3769    0.0082   -0.4953 C   0  0  0  0  0  0  0  0  0  0  0  0
    4.4389   -0.8920   -0.6186 C   0  0  0  0  0  0  0  0  0  0  0  0
    2.5002    2.3358   -0.0306 C   0  0  0  0  0  0  0  0  0  0  0  0
    2.7393    3.4906    0.4173 O   0  0  0  0  0  0  0  0  0  0  0  0
    1.0742    1.9917   -0.3808 C   0  0  0  0  0  0  0  0  0  0  0  0
    0.3829    1.1931    0.7003 C   0  0  0  0  0  0  0  0  0  0  0  0
    0.9933    0.9513    1.7792 O   0  0  0  0  0  0  0  0  0  0  0  0
   -1.0062    0.6871    0.5225 C   0  0  0  0  0  0  0  0  0  0  0  0
   -1.5974   -0.1082    1.5172 C   0  0  0  0  0  0  0  0  0  0  0  0
   -2.8983   -0.5931    1.3663 C   0  0  0  0  0  0  0  0  0  0  0  0
   -3.6596   -0.3009    0.2147 C   0  0  0  0  0  0  0  0  0  0  0  0
   -3.0578    0.5014   -0.7813 C   0  0  0  0  0  0  0  0  0  0  0  0
   -1.7556    0.9855   -0.6285 C   0  0  0  0  0  0  0  0  0  0  0  0
   -5.0933   -0.8567    0.0870 C   0  0  0  0  0  0  0  0  0  0  0  0
   -5.0533   -2.3998    0.1336 C   0  0  0  0  0  0  0  0  0  0  0  0
   -5.9555   -0.3306    1.2551 C   0  0  0  0  0  0  0  0  0  0  0  0
   -5.7889   -0.4447   -1.2328 C   0  0  0  0  0  0  0  0  0  0  0  0
    8.3588   -0.7652    0.6476 H   0  0  0  0  0  0  0  0  0  0  0  0
    8.7572   -2.0518   -0.5519 H   0  0  0  0  0  0  0  0  0  0  0  0
    8.4948   -0.3611   -1.1225 H   0  0  0  0  0  0  0  0  0  0  0  0
    7.0120    1.2333    0.0643 H   0  0  0  0  0  0  0  0  0  0  0  0
    5.1680    2.8061    0.2797 H   0  0  0  0  0  0  0  0  0  0  0  0
    2.3735   -0.3650   -0.6458 H   0  0  0  0  0  0  0  0  0  0  0  0
    4.2352   -1.9260   -0.8670 H   0  0  0  0  0  0  0  0  0  0  0  0
    1.0599    1.4263   -1.3365 H   0  0  0  0  0  0  0  0  0  0  0  0
    0.5048    2.9320   -0.5460 H   0  0  0  0  0  0  0  0  0  0  0  0
   -1.0533   -0.3617    2.4186 H   0  0  0  0  0  0  0  0  0  0  0  0
   -3.3070   -1.2021    2.1611 H   0  0  0  0  0  0  0  0  0  0  0  0
   -3.5767    0.7688   -1.6895 H   0  0  0  0  0  0  0  0  0  0  0  0
   -1.3449    1.5976   -1.4199 H   0  0  0  0  0  0  0  0  0  0  0  0
   -4.6643   -2.7694    1.1053 H   0  0  0  0  0  0  0  0  0  0  0  0
   -6.0718   -2.8249    0.0003 H   0  0  0  0  0  0  0  0  0  0  0  0
   -4.4015   -2.7939   -0.6759 H   0  0  0  0  0  0  0  0  0  0  0  0
   -5.9600    0.7809    1.2617 H   0  0  0  0  0  0  0  0  0  0  0  0
   -7.0054   -0.6838    1.1607 H   0  0  0  0  0  0  0  0  0  0  0  0
   -5.5739   -0.6835    2.2360 H   0  0  0  0  0  0  0  0  0  0  0  0
   -5.2281   -0.8278   -2.1127 H   0  0  0  0  0  0  0  0  0  0  0  0
   -5.8776    0.6609   -1.3057 H   0  0  0  0  0  0  0  0  0  0  0  0
   -6.8170   -0.8651   -1.2846 H   0  0  0  0  0  0  0  0  0  0  0  0
  1  2  1  0
  2  3  1  0
  3  4  2  0
  4  5  1  0
  5  6  2  0
  6  7  1  0
  7  8  2  0
  8  3  1  0
  6  9  1  0
  9 10  2  0
  9 11  1  0
 11 12  1  0
 12 13  2  0
 12 14  1  0
 14 15  2  0
 15 16  1  0
 16 17  2  0
 17 18  1  0
 18 19  2  0
 19 14  1  0
 17 20  1  0
 20 21  1  0
 20 22  1  0
 20 23  1  0
  1 24  1  0
  1 25  1  0
  1 26  1  0
  4 27  1  0
  5 28  1  0
  7 29  1  0
  8 30  1  0
 11 31  1  0
 11 32  1  0
 15 33  1  0
 16 34  1  0
 18 35  1  0
 19 36  1  0
 21 37  1  0
 21 38  1  0
 21 39  1  0
 22 40  1  0
 22 41  1  0
 22 42  1  0
 23 43  1  0
 23 44  1  0
 23 45  1  0
M  END
> <ID>
HT0206

> <Class>
0.0

> <Clusters>
56

> <Fold>
3

$$$$