
     RDKit          3D

 36 37  0  0  0  0  0  0  0  0999 V2000
    5.5880    1.7574    0.5235 C   0  0  0  0  0  0  0  0  0  0  0  0
    5.0807    0.5306   -0.1545 C   0  0  0  0  0  0  0  0  0  0  0  0
    5.8985   -0.2836   -0.6628 O   0  0  0  0  0  0  0  0  0  0  0  0
    3.7047    0.2949   -0.2178 O   0  0  0  0  0  0  0  0  0  0  0  0
    3.1496   -0.8594   -0.8412 C   0  0  0  0  0  0  0  0  0  0  0  0
    1.6458   -0.8381   -0.7059 C   0  0  0  0  0  0  0  0  0  0  0  0
    1.0081   -0.8148    0.4879 C   0  0  0  0  0  0  0  0  0  0  0  0
   -0.3998   -0.6172    0.4453 N   0  0  0  0  0  0  0  0  0  0  0  0
   -1.2078    0.2350   -0.3935 C   0  0  0  0  0  0  0  0  0  0  0  0
   -0.4544    0.4372   -2.0601 S   0  0  0  0  0  0  0  0  0  0  0  0
    0.7964   -0.9073   -1.9646 C   0  0  0  0  0  0  0  0  0  0  0  0
   -2.3474   -0.6473   -0.3396 C   0  0  0  0  0  0  0  0  0  0  0  0
   -3.5096   -0.0352    0.3072 N   0  0  0  0  0  0  0  0  0  0  0  0
   -4.3203    0.9363   -0.3676 C   0  0  0  0  0  0  0  0  0  0  0  0
   -4.0460    1.2840   -1.5485 O   0  0  0  0  0  0  0  0  0  0  0  0
   -5.5221    1.5134    0.3107 C   0  0  0  0  0  0  0  0  0  0  0  0
   -6.6580    0.5985    0.1718 C   0  0  0  0  0  0  0  0  0  0  0  0
   -7.5553   -0.1241    0.0624 N   0  0  0  0  0  0  0  0  0  0  0  0
   -1.5685   -1.5108    0.6064 C   0  0  0  0  0  0  0  0  0  0  0  0
   -1.7911   -2.5837    1.2256 O   0  0  0  0  0  0  0  0  0  0  0  0
    1.6639   -0.9297    1.8166 C   0  0  0  0  0  0  0  0  0  0  0  0
    2.8264   -1.3975    1.9342 O   0  0  0  0  0  0  0  0  0  0  0  0
    0.9827   -0.5504    2.9714 O   0  0  0  0  0  0  0  0  0  0  0  0
    6.2456    1.4708    1.3706 H   0  0  0  0  0  0  0  0  0  0  0  0
    6.1652    2.3717   -0.1987 H   0  0  0  0  0  0  0  0  0  0  0  0
    4.7396    2.3588    0.9125 H   0  0  0  0  0  0  0  0  0  0  0  0
    3.4508   -0.8673   -1.9105 H   0  0  0  0  0  0  0  0  0  0  0  0
    3.5584   -1.7845   -0.3826 H   0  0  0  0  0  0  0  0  0  0  0  0
   -1.3690    1.2220    0.0959 H   0  0  0  0  0  0  0  0  0  0  0  0
    1.4225   -0.8533   -2.8790 H   0  0  0  0  0  0  0  0  0  0  0  0
    0.2658   -1.8830   -1.9881 H   0  0  0  0  0  0  0  0  0  0  0  0
   -2.6004   -1.1738   -1.2858 H   0  0  0  0  0  0  0  0  0  0  0  0
   -3.7988   -0.3547    1.2601 H   0  0  0  0  0  0  0  0  0  0  0  0
   -5.3084    1.6712    1.3886 H   0  0  0  0  0  0  0  0  0  0  0  0
   -5.7851    2.4926   -0.1426 H   0  0  0  0  0  0  0  0  0  0  0  0
    0.0493   -0.1587    2.9400 H   0  0  0  0  0  0  0  0  0  0  0  0
  1  2  1  0
  2  3  2  0
  2  4  1  0
  4  5  1  0
  5  6  1  0
  6  7  2  0
  7  8  1  0
  8  9  1  0
  9 10  1  0
 10 11  1  0
 11  6  1  0
  9 12  1  0
 12 13  1  0
 13 14  1  0
 14 15  2  0
 14 16  1  0
 16 17  1  0
 17 18  3  0
 12 19  1  0
 19  8  1  0
 19 20  2  0
  7 21  1  0
 21 22  2  0
 21 23  1  0
  1 24  1  0
  1 25  1  0
  1 26  1  0
  5 27  1  0
  5 28  1  0
  9 29  1  0
 11 30  1  0
 11 31  1  0
 12 32  1  0
 13 33  1  0
 16 34  1  0
 16 35  1  0
 23 36  1  0
M  END
> <ID>
HT0393

> <Class>
0.0

> <Clusters>
47

> <Fold>
3

$$$$