
     RDKit          3D

 64 65  0  0  0  0  0  0  0  0999 V2000
    9.8197    3.4900    0.2993 Cl  0  0  0  0  0  0  0  0  0  0  0  0
    8.7120    2.1753    0.6342 C   0  0  0  0  0  0  0  0  0  0  0  0
    7.3329    2.4088    0.6602 C   0  0  0  0  0  0  0  0  0  0  0  0
    6.4483    1.3584    0.9273 C   0  0  0  0  0  0  0  0  0  0  0  0
    6.9379    0.0589    1.1577 C   0  0  0  0  0  0  0  0  0  0  0  0
    6.0506   -1.0268    1.4780 N   0  0  0  0  0  0  0  0  0  0  0  0
    4.7222   -1.1591    0.9478 C   0  0  0  0  0  0  0  0  0  0  0  0
    3.7953   -1.6696    1.7021 N   0  0  0  0  0  0  0  0  0  0  0  0
    4.4364   -0.7476   -0.4047 N   0  0  0  0  0  0  0  0  0  0  0  0
    3.3992   -1.3183   -1.2209 C   0  0  0  0  0  0  0  0  0  0  0  0
    3.0386   -2.5529   -1.0482 N   0  0  0  0  0  0  0  0  0  0  0  0
    2.8197   -0.5514   -2.2889 N   0  0  0  0  0  0  0  0  0  0  0  0
    2.6532    0.9005   -2.2032 C   0  0  0  0  0  0  0  0  0  0  0  0
    1.5612    1.2557   -1.1841 C   0  0  0  0  0  0  0  0  0  0  0  0
    0.1704    0.8378   -1.6887 C   0  0  0  0  0  0  0  0  0  0  0  0
   -0.9254    0.9748   -0.6173 C   0  0  0  0  0  0  0  0  0  0  0  0
   -0.8236   -0.0346    0.5447 C   0  0  0  0  0  0  0  0  0  0  0  0
   -0.8025   -1.5113    0.1082 C   0  0  0  0  0  0  0  0  0  0  0  0
   -1.8821   -1.8199   -0.8323 N   0  0  0  0  0  0  0  0  0  0  0  0
   -3.2774   -1.6964   -0.5085 C   0  0  0  0  0  0  0  0  0  0  0  0
   -4.1560   -1.6643   -1.4636 N   0  0  0  0  0  0  0  0  0  0  0  0
   -3.7087   -1.6349    0.8596 N   0  0  0  0  0  0  0  0  0  0  0  0
   -4.9562   -1.0488    1.2610 C   0  0  0  0  0  0  0  0  0  0  0  0
   -5.5162   -1.4277    2.3677 N   0  0  0  0  0  0  0  0  0  0  0  0
   -5.5222    0.0329    0.5019 N   0  0  0  0  0  0  0  0  0  0  0  0
   -6.9037    0.4206    0.5639 C   0  0  0  0  0  0  0  0  0  0  0  0
   -7.2514    1.7700    0.3852 C   0  0  0  0  0  0  0  0  0  0  0  0
   -8.5934    2.1620    0.4023 C   0  0  0  0  0  0  0  0  0  0  0  0
   -9.6022    1.2044    0.5695 C   0  0  0  0  0  0  0  0  0  0  0  0
  -11.2865    1.6944    0.5770 Cl  0  0  0  0  0  0  0  0  0  0  0  0
   -9.2640   -0.1404    0.7479 C   0  0  0  0  0  0  0  0  0  0  0  0
   -7.9228   -0.5364    0.7305 C   0  0  0  0  0  0  0  0  0  0  0  0
    8.3239   -0.1607    1.1572 C   0  0  0  0  0  0  0  0  0  0  0  0
    9.2065    0.8919    0.8897 C   0  0  0  0  0  0  0  0  0  0  0  0
    6.9470    3.4034    0.4783 H   0  0  0  0  0  0  0  0  0  0  0  0
    5.3853    1.5610    0.9661 H   0  0  0  0  0  0  0  0  0  0  0  0
    6.3786   -1.7470    2.1627 H   0  0  0  0  0  0  0  0  0  0  0  0
    2.8012   -1.7723    1.3949 H   0  0  0  0  0  0  0  0  0  0  0  0
    5.0843   -0.0766   -0.8735 H   0  0  0  0  0  0  0  0  0  0  0  0
    2.2936   -2.9946   -1.6401 H   0  0  0  0  0  0  0  0  0  0  0  0
    2.3994   -1.0502   -3.1068 H   0  0  0  0  0  0  0  0  0  0  0  0
    3.6110    1.3807   -1.9089 H   0  0  0  0  0  0  0  0  0  0  0  0
    2.3777    1.3029   -3.2037 H   0  0  0  0  0  0  0  0  0  0  0  0
    1.7987    0.7628   -0.2190 H   0  0  0  0  0  0  0  0  0  0  0  0
    1.5684    2.3547   -1.0154 H   0  0  0  0  0  0  0  0  0  0  0  0
   -0.0979    1.4952   -2.5443 H   0  0  0  0  0  0  0  0  0  0  0  0
    0.1907   -0.1993   -2.0838 H   0  0  0  0  0  0  0  0  0  0  0  0
   -1.9143    0.8555   -1.1129 H   0  0  0  0  0  0  0  0  0  0  0  0
   -0.9034    2.0055   -0.1984 H   0  0  0  0  0  0  0  0  0  0  0  0
    0.0804    0.1759    1.1541 H   0  0  0  0  0  0  0  0  0  0  0  0
   -1.6905    0.1278    1.2193 H   0  0  0  0  0  0  0  0  0  0  0  0
    0.1746   -1.7407   -0.3656 H   0  0  0  0  0  0  0  0  0  0  0  0
   -0.8771   -2.1695    0.9984 H   0  0  0  0  0  0  0  0  0  0  0  0
   -1.6130   -2.0738   -1.8096 H   0  0  0  0  0  0  0  0  0  0  0  0
   -3.8818   -1.7171   -2.4693 H   0  0  0  0  0  0  0  0  0  0  0  0
   -3.1079   -2.0694    1.5940 H   0  0  0  0  0  0  0  0  0  0  0  0
   -5.1071   -2.1893    2.9553 H   0  0  0  0  0  0  0  0  0  0  0  0
   -4.8679    0.6305   -0.0538 H   0  0  0  0  0  0  0  0  0  0  0  0
   -6.4795    2.5216    0.2488 H   0  0  0  0  0  0  0  0  0  0  0  0
   -8.8503    3.2049    0.2653 H   0  0  0  0  0  0  0  0  0  0  0  0
  -10.0414   -0.8849    0.8704 H   0  0  0  0  0  0  0  0  0  0  0  0
   -7.6842   -1.5876    0.8264 H   0  0  0  0  0  0  0  0  0  0  0  0
    8.7185   -1.1526    1.3563 H   0  0  0  0  0  0  0  0  0  0  0  0
   10.2736    0.7069    0.8831 H   0  0  0  0  0  0  0  0  0  0  0  0
  1  2  1  0
  2  3  2  0
  3  4  1  0
  4  5  2  0
  5  6  1  0
  6  7  1  0
  7  8  2  3
  7  9  1  0
  9 10  1  0
 10 11  2  3
 10 12  1  0
 12 13  1  0
 13 14  1  0
 14 15  1  0
 15 16  1  0
 16 17  1  0
 17 18  1  0
 18 19  1  0
 19 20  1  0
 20 21  2  3
 20 22  1  0
 22 23  1  0
 23 24  2  3
 23 25  1  0
 25 26  1  0
 26 27  2  0
 27 28  1  0
 28 29  2  0
 29 30  1  0
 29 31  1  0
 31 32  2  0
 32 26  1  0
  5 33  1  0
 33 34  2  0
 34  2  1  0
  3 35  1  0
  4 36  1  0
  6 37  1  0
  8 38  1  0
  9 39  1  0
 11 40  1  0
 12 41  1  0
 13 42  1  0
 13 43  1  0
 14 44  1  0
 14 45  1  0
 15 46  1  0
 15 47  1  0
 16 48  1  0
 16 49  1  0
 17 50  1  0
 17 51  1  0
 18 52  1  0
 18 53  1  0
 19 54  1  0
 21 55  1  0
 22 56  1  0
 24 57  1  0
 25 58  1  0
 27 59  1  0
 28 60  1  0
 31 61  1  0
 32 62  1  0
 33 63  1  0
 34 64  1  0
M  END
> <ID>
HT0452

> <Class>
0.0

> <Clusters>
216

> <Fold>
3

$$$$