
     RDKit          3D

 10  9  0  0  0  0  0  0  0  0999 V2000
   -1.3851   -0.6808   -0.6461 O   0  0  0  0  0  0  0  0  0  0  0  0
   -0.5237    0.2029    0.0248 C   0  0  0  0  0  0  0  0  0  0  0  0
   -0.5625    1.4414   -0.6369 O   0  0  0  0  0  0  0  0  0  0  0  0
    0.9129   -0.3540    0.0240 C   0  0  0  0  0  0  0  0  0  0  0  0
    1.5054   -0.5765   -1.6452 Cl  0  0  0  0  0  0  0  0  0  0  0  0
    2.0157    0.7611    0.8750 Cl  0  0  0  0  0  0  0  0  0  0  0  0
    0.9735   -1.9274    0.8633 Cl  0  0  0  0  0  0  0  0  0  0  0  0
   -1.7098   -1.3401    0.0215 H   0  0  0  0  0  0  0  0  0  0  0  0
   -0.8666    0.3312    1.0830 H   0  0  0  0  0  0  0  0  0  0  0  0
   -0.3599    2.1422    0.0365 H   0  0  0  0  0  0  0  0  0  0  0  0
  1  2  1  0
  2  3  1  0
  2  4  1  0
  4  5  1  0
  4  6  1  0
  4  7  1  0
  1  8  1  0
  2  9  1  0
  3 10  1  0
M  END
> <ID>
HT0442

> <Class>
0.0

> <Clusters>
251

> <Fold>
3

$$$$