
     RDKit          3D

 46 49  0  0  0  0  0  0  0  0999 V2000
    0.2763    3.4237    0.5239 O   0  0  0  0  0  0  0  0  0  0  0  0
    1.3785    2.5813    0.6201 C   0  0  0  0  0  0  0  0  0  0  0  0
    2.5181    3.0736    0.8354 O   0  0  0  0  0  0  0  0  0  0  0  0
    1.1944    1.1183    0.5296 C   0  0  0  0  0  0  0  0  0  0  0  0
    1.9666    0.3074   -0.2426 C   0  0  0  0  0  0  0  0  0  0  0  0
    3.0497    0.8249   -1.1709 C   0  0  0  0  0  0  0  0  0  0  0  0
    4.3574    0.2597   -0.8060 N   0  0  0  0  0  0  0  0  0  0  0  0
    4.9786   -0.6287   -1.6426 C   0  0  0  0  0  0  0  0  0  0  0  0
    6.2199   -1.1736   -1.3052 C   0  0  0  0  0  0  0  0  0  0  0  0
    6.8273   -0.8039   -0.1067 C   0  0  0  0  0  0  0  0  0  0  0  0
    6.1909    0.1028    0.7385 C   0  0  0  0  0  0  0  0  0  0  0  0
    4.9501    0.6290    0.3713 C   0  0  0  0  0  0  0  0  0  0  0  0
    1.7389   -1.1995   -0.2364 C   0  0  0  0  0  0  0  0  0  0  0  0
   -0.0369   -1.6698   -0.2646 S   0  0  0  0  0  0  0  0  0  0  0  0
   -0.3492   -0.8357    1.3287 C   0  0  2  0  0  0  0  0  0  0  0  0
   -1.7069   -0.4740    1.6713 C   0  0  2  0  0  0  0  0  0  0  0  0
   -2.6896   -0.7461    0.6187 N   0  0  0  0  0  0  0  0  0  0  0  0
   -3.6894   -1.7648    0.7527 C   0  0  0  0  0  0  0  0  0  0  0  0
   -3.7577   -2.4596    1.8027 O   0  0  0  0  0  0  0  0  0  0  0  0
   -4.6755   -1.9937   -0.3503 C   0  0  0  0  0  0  0  0  0  0  0  0
   -5.6472   -0.8579   -0.4162 C   0  0  0  0  0  0  0  0  0  0  0  0
   -5.7545    0.0647   -1.4490 C   0  0  0  0  0  0  0  0  0  0  0  0
   -6.7520    1.0222   -1.2296 C   0  0  0  0  0  0  0  0  0  0  0  0
   -7.4303    0.8565   -0.0286 C   0  0  0  0  0  0  0  0  0  0  0  0
   -6.7880   -0.4823    0.7617 S   0  0  0  0  0  0  0  0  0  0  0  0
   -1.2730    0.9601    1.6493 C   0  0  0  0  0  0  0  0  0  0  0  0
   -1.8352    2.0625    1.8786 O   0  0  0  0  0  0  0  0  0  0  0  0
    0.0739    0.5349    1.1986 N   0  0  0  0  0  0  0  0  0  0  0  0
    0.3805    4.4281    0.6042 H   0  0  0  0  0  0  0  0  0  0  0  0
    2.7682    0.5319   -2.2064 H   0  0  0  0  0  0  0  0  0  0  0  0
    3.1230    1.9292   -1.2021 H   0  0  0  0  0  0  0  0  0  0  0  0
    4.5160   -0.9273   -2.5757 H   0  0  0  0  0  0  0  0  0  0  0  0
    6.7057   -1.8775   -1.9685 H   0  0  0  0  0  0  0  0  0  0  0  0
    7.7887   -1.2193    0.1664 H   0  0  0  0  0  0  0  0  0  0  0  0
    6.6537    0.3962    1.6719 H   0  0  0  0  0  0  0  0  0  0  0  0
    4.4631    1.3291    1.0374 H   0  0  0  0  0  0  0  0  0  0  0  0
    2.2140   -1.6302    0.6706 H   0  0  0  0  0  0  0  0  0  0  0  0
    2.2264   -1.6698   -1.1162 H   0  0  0  0  0  0  0  0  0  0  0  0
    0.1851   -1.3347    2.1684 H   0  0  0  0  0  0  0  0  0  0  0  0
   -2.0253   -0.8025    2.6849 H   0  0  0  0  0  0  0  0  0  0  0  0
   -2.6405   -0.2111   -0.2793 H   0  0  0  0  0  0  0  0  0  0  0  0
   -5.2313   -2.9415   -0.1846 H   0  0  0  0  0  0  0  0  0  0  0  0
   -4.1258   -2.0839   -1.3118 H   0  0  0  0  0  0  0  0  0  0  0  0
   -5.1301    0.0508   -2.3327 H   0  0  0  0  0  0  0  0  0  0  0  0
   -6.9733    1.8173   -1.9290 H   0  0  0  0  0  0  0  0  0  0  0  0
   -8.2334    1.4833    0.3344 H   0  0  0  0  0  0  0  0  0  0  0  0
  1  2  1  0
  2  3  2  0
  2  4  1  0
  4  5  2  0
  5  6  1  0
  6  7  1  0
  7  8  2  0
  8  9  1  0
  9 10  2  0
 10 11  1  0
 11 12  2  0
 12  7  1  0
  5 13  1  0
 13 14  1  0
 15 14  1  0
 15 16  1  0
 16 17  1  0
 17 18  1  0
 18 19  2  0
 18 20  1  0
 20 21  1  0
 21 22  2  0
 22 23  1  0
 23 24  2  0
 24 25  1  0
 25 21  1  0
 16 26  1  0
 26 27  2  0
 26 28  1  0
 28  4  1  0
 28 15  1  0
  1 29  1  0
  6 30  1  0
  6 31  1  0
  8 32  1  0
  9 33  1  0
 10 34  1  0
 11 35  1  0
 12 36  1  0
 13 37  1  0
 13 38  1  0
 15 39  1  1
 16 40  1  1
 17 41  1  0
 20 42  1  0
 20 43  1  0
 22 44  1  0
 23 45  1  0
 24 46  1  0
M  CHG  1   7   1
M  END
> <ID>
HT0396

> <Class>
0.0

> <Clusters>
47

> <Fold>
3

$$$$