
     RDKit          3D

 43 43  0  0  0  0  0  0  0  0999 V2000
    2.7212   -2.1627    0.5408 O   0  0  0  0  0  0  0  0  0  0  0  0
    2.1366   -1.1290   -0.2140 C   0  0  1  0  0  0  0  0  0  0  0  0
    0.5925   -1.1360   -0.0741 C   0  0  1  0  0  0  0  0  0  0  0  0
   -0.0669   -0.0995   -1.0037 C   0  0  0  0  0  0  0  0  0  0  0  0
   -1.4885   -0.2157   -0.9646 O   0  0  0  0  0  0  0  0  0  0  0  0
   -2.2625    0.1493    0.1425 C   0  0  0  0  0  0  0  0  0  0  0  0
   -1.7420    0.7439    1.1252 O   0  0  0  0  0  0  0  0  0  0  0  0
   -3.7308   -0.1462    0.1463 C   0  0  0  0  0  0  0  0  0  0  0  0
   -4.5643    1.1101   -0.1511 C   0  0  0  0  0  0  0  0  0  0  0  0
   -4.4625    1.5938   -1.5718 C   0  0  0  0  0  0  0  0  0  0  0  0
   -3.7805    0.9713   -2.4308 O   0  0  0  0  0  0  0  0  0  0  0  0
   -5.1444    2.7483   -1.9419 O   0  0  0  0  0  0  0  0  0  0  0  0
    0.0773   -2.4699   -0.4013 N   0  0  0  0  0  0  0  0  0  0  0  0
   -0.7316   -3.2418    0.4997 C   0  0  0  0  0  0  0  0  0  0  0  0
   -0.9888   -2.8095    1.6564 O   0  0  0  0  0  0  0  0  0  0  0  0
   -1.3334   -4.5364    0.0446 C   0  0  0  0  0  0  0  0  0  0  0  0
   -1.1997   -5.7765    1.3184 Cl  0  0  0  0  0  0  0  0  0  0  0  0
   -3.0472   -4.2840   -0.3611 Cl  0  0  0  0  0  0  0  0  0  0  0  0
    2.7474    0.2074    0.1694 C   0  0  0  0  0  0  0  0  0  0  0  0
    2.6377    0.7044    1.4802 C   0  0  0  0  0  0  0  0  0  0  0  0
    3.1939    1.9407    1.8196 C   0  0  0  0  0  0  0  0  0  0  0  0
    3.8722    2.7073    0.8574 C   0  0  0  0  0  0  0  0  0  0  0  0
    3.9825    2.2095   -0.4529 C   0  0  0  0  0  0  0  0  0  0  0  0
    3.4262    0.9733   -0.7925 C   0  0  0  0  0  0  0  0  0  0  0  0
    4.4429    3.9806    1.2106 N   0  0  0  0  0  0  0  0  0  0  0  0
    5.0343    4.6725    0.3559 O   0  0  0  0  0  0  0  0  0  0  0  0
    4.3566    4.4516    2.5001 O   0  0  0  0  0  0  0  0  0  0  0  0
    2.3866   -2.0930    1.4726 H   0  0  0  0  0  0  0  0  0  0  0  0
    2.3727   -1.3440   -1.2800 H   0  0  0  0  0  0  0  0  0  0  0  0
    0.3328   -0.8729    0.9729 H   0  0  0  0  0  0  0  0  0  0  0  0
    0.2315    0.9335   -0.7208 H   0  0  0  0  0  0  0  0  0  0  0  0
    0.2662   -0.2765   -2.0486 H   0  0  0  0  0  0  0  0  0  0  0  0
   -3.9610   -0.9466   -0.5902 H   0  0  0  0  0  0  0  0  0  0  0  0
   -4.0102   -0.5323    1.1501 H   0  0  0  0  0  0  0  0  0  0  0  0
   -5.6314    0.8820    0.0569 H   0  0  0  0  0  0  0  0  0  0  0  0
   -4.2589    1.9310    0.5330 H   0  0  0  0  0  0  0  0  0  0  0  0
   -5.1018    3.0939   -2.8929 H   0  0  0  0  0  0  0  0  0  0  0  0
    0.2666   -2.8500   -1.3565 H   0  0  0  0  0  0  0  0  0  0  0  0
   -0.8056   -4.9107   -0.8567 H   0  0  0  0  0  0  0  0  0  0  0  0
    2.1181    0.1397    2.2433 H   0  0  0  0  0  0  0  0  0  0  0  0
    3.0916    2.2967    2.8366 H   0  0  0  0  0  0  0  0  0  0  0  0
    4.5005    2.7755   -1.2166 H   0  0  0  0  0  0  0  0  0  0  0  0
    3.5239    0.6169   -1.8104 H   0  0  0  0  0  0  0  0  0  0  0  0
  2  1  1  0
  2  3  1  0
  3  4  1  0
  4  5  1  0
  5  6  1  0
  6  7  2  0
  6  8  1  0
  8  9  1  0
  9 10  1  0
 10 11  2  0
 10 12  1  0
  3 13  1  0
 13 14  1  0
 14 15  2  0
 14 16  1  0
 16 17  1  0
 16 18  1  0
  2 19  1  0
 19 20  2  0
 20 21  1  0
 21 22  2  0
 22 23  1  0
 23 24  2  0
 24 19  1  0
 22 25  1  0
 25 26  2  0
 25 27  1  0
  1 28  1  0
  2 29  1  6
  3 30  1  1
  4 31  1  0
  4 32  1  0
  8 33  1  0
  8 34  1  0
  9 35  1  0
  9 36  1  0
 12 37  1  0
 13 38  1  0
 16 39  1  0
 20 40  1  0
 21 41  1  0
 23 42  1  0
 24 43  1  0
M  CHG  2  25   1  27  -1
M  END
> <ID>
HT0446

> <Class>
0.0

> <Clusters>
49

> <Fold>
3

$$$$