
     RDKit          3D

 42 44  0  0  0  0  0  0  0  0999 V2000
   -6.8440    0.5382    1.4649 C   0  0  0  0  0  0  0  0  0  0  0  0
   -5.9274    0.8923    0.3439 C   0  0  0  0  0  0  0  0  0  0  0  0
   -6.3808    1.5015   -0.6628 O   0  0  0  0  0  0  0  0  0  0  0  0
   -4.5762    0.5438    0.4197 O   0  0  0  0  0  0  0  0  0  0  0  0
   -3.6460    0.8400   -0.6176 C   0  0  0  0  0  0  0  0  0  0  0  0
   -2.2840    0.3034   -0.2478 C   0  0  0  0  0  0  0  0  0  0  0  0
   -2.0323   -1.0112   -0.0429 C   0  0  0  0  0  0  0  0  0  0  0  0
   -0.7427   -1.3381    0.4609 N   0  0  0  0  0  0  0  0  0  0  0  0
    0.0990   -0.6715    1.4254 C   0  0  2  0  0  0  0  0  0  0  0  0
   -0.1924    1.1516    1.4148 S   0  0  0  0  0  0  0  0  0  0  0  0
   -1.1149    1.2715   -0.1700 C   0  0  0  0  0  0  0  0  0  0  0  0
    1.3193   -1.1830    0.8385 C   0  0  2  0  0  0  0  0  0  0  0  0
    2.1278   -0.1776    0.1441 N   0  0  0  0  0  0  0  0  0  0  0  0
    3.1336    0.5815    0.8281 C   0  0  0  0  0  0  0  0  0  0  0  0
    3.3477    0.3925    2.0564 O   0  0  0  0  0  0  0  0  0  0  0  0
    3.9657    1.5760    0.0791 C   0  0  0  0  0  0  0  0  0  0  0  0
    5.1902    0.9166   -0.4723 C   0  0  0  0  0  0  0  0  0  0  0  0
    5.2196   -0.0481   -1.4723 C   0  0  0  0  0  0  0  0  0  0  0  0
    6.5148   -0.4789   -1.7831 C   0  0  0  0  0  0  0  0  0  0  0  0
    7.5049    0.1439   -1.0336 C   0  0  0  0  0  0  0  0  0  0  0  0
    6.7678    1.2316    0.0167 S   0  0  0  0  0  0  0  0  0  0  0  0
    0.4675   -1.9628   -0.1188 C   0  0  0  0  0  0  0  0  0  0  0  0
    0.6908   -2.7668   -1.0609 O   0  0  0  0  0  0  0  0  0  0  0  0
   -2.9916   -2.1212   -0.2569 C   0  0  0  0  0  0  0  0  0  0  0  0
   -4.0931   -1.9467   -0.8421 O   0  0  0  0  0  0  0  0  0  0  0  0
   -2.6521   -3.3985    0.1795 O   0  0  0  0  0  0  0  0  0  0  0  0
   -7.6532   -0.1231    1.0906 H   0  0  0  0  0  0  0  0  0  0  0  0
   -6.2848    0.0077    2.2641 H   0  0  0  0  0  0  0  0  0  0  0  0
   -7.2904    1.4621    1.8883 H   0  0  0  0  0  0  0  0  0  0  0  0
   -3.6119    1.9410   -0.7622 H   0  0  0  0  0  0  0  0  0  0  0  0
   -3.9800    0.3981   -1.5802 H   0  0  0  0  0  0  0  0  0  0  0  0
   -0.0770   -1.0871    2.4423 H   0  0  0  0  0  0  0  0  0  0  0  0
   -1.4509    2.3224   -0.2865 H   0  0  0  0  0  0  0  0  0  0  0  0
   -0.4136    1.0578   -1.0044 H   0  0  0  0  0  0  0  0  0  0  0  0
    1.9172   -1.8487    1.4990 H   0  0  0  0  0  0  0  0  0  0  0  0
    1.9898   -0.0191   -0.8805 H   0  0  0  0  0  0  0  0  0  0  0  0
    4.2595    2.3998    0.7647 H   0  0  0  0  0  0  0  0  0  0  0  0
    3.3776    2.0211   -0.7515 H   0  0  0  0  0  0  0  0  0  0  0  0
    4.3344   -0.4295   -1.9639 H   0  0  0  0  0  0  0  0  0  0  0  0
    6.7253   -1.2258   -2.5368 H   0  0  0  0  0  0  0  0  0  0  0  0
    8.5675   -0.0403   -1.1143 H   0  0  0  0  0  0  0  0  0  0  0  0
   -3.2810   -4.1804    0.0405 H   0  0  0  0  0  0  0  0  0  0  0  0
  1  2  1  0
  2  3  2  0
  2  4  1  0
  4  5  1  0
  5  6  1  0
  6  7  2  0
  7  8  1  0
  8  9  1  0
  9 10  1  0
 10 11  1  0
 11  6  1  0
  9 12  1  0
 12 13  1  0
 13 14  1  0
 14 15  2  0
 14 16  1  0
 16 17  1  0
 17 18  2  0
 18 19  1  0
 19 20  2  0
 20 21  1  0
 21 17  1  0
 12 22  1  0
 22  8  1  0
 22 23  2  0
  7 24  1  0
 24 25  2  0
 24 26  1  0
  1 27  1  0
  1 28  1  0
  1 29  1  0
  5 30  1  0
  5 31  1  0
  9 32  1  1
 11 33  1  0
 11 34  1  0
 12 35  1  1
 13 36  1  0
 16 37  1  0
 16 38  1  0
 18 39  1  0
 19 40  1  0
 20 41  1  0
 26 42  1  0
M  END
> <ID>
HT0433

> <Class>
0.0

> <Clusters>
47

> <Fold>
3

$$$$