
     RDKit          3D

 53 57  0  0  0  0  0  0  0  0999 V2000
   -4.2357    3.4717    0.6921 O   0  0  0  0  0  0  0  0  0  0  0  0
   -3.1164    2.8210    0.1775 C   0  0  0  0  0  0  0  0  0  0  0  0
   -2.2241    3.5245   -0.6280 C   0  0  0  0  0  0  0  0  0  0  0  0
   -1.0760    2.8998   -1.1101 C   0  0  0  0  0  0  0  0  0  0  0  0
   -0.8148    1.5529   -0.8135 C   0  0  0  0  0  0  0  0  0  0  0  0
    0.4961    0.9715   -1.2833 C   0  0  0  0  0  0  0  0  0  0  0  0
    0.8184   -0.3965   -0.6575 C   0  0  1  0  0  0  0  0  0  0  0  0
    1.3848   -0.1968    0.7097 N   0  0  0  0  0  0  0  0  0  0  0  0
    2.4675   -1.1376    1.0924 C   0  0  0  0  0  0  0  0  0  0  0  0
    3.8338   -0.4324    1.2370 C   0  0  0  0  0  0  0  0  0  0  0  0
    3.8444    0.8465    2.0748 C   0  0  0  0  0  0  0  0  0  0  0  0
    4.2782    1.6411    0.8498 C   0  0  0  0  0  0  0  0  0  0  0  0
    4.2822    0.3676    0.0145 C   0  0  0  0  0  0  0  0  0  0  0  0
    0.4182    0.1147    1.8000 C   0  0  0  0  0  0  0  0  0  0  0  0
   -0.9150   -0.6683    1.7322 C   0  0  0  0  0  0  0  0  0  0  0  0
   -1.4985   -0.6905    0.2972 C   0  0  2  0  0  0  0  0  0  0  0  0
   -2.8491   -1.5097    0.2372 C   0  0  0  0  0  0  0  0  0  0  0  0
   -2.8235   -2.7604   -0.6549 C   0  0  0  0  0  0  0  0  0  0  0  0
   -2.2559   -2.4674   -2.0575 C   0  0  0  0  0  0  0  0  0  0  0  0
   -1.0465   -1.5021   -2.0635 C   0  0  0  0  0  0  0  0  0  0  0  0
   -0.4240   -1.3277   -0.6530 C   0  0  1  0  0  0  0  0  0  0  0  0
   -0.0295   -2.6294   -0.2575 O   0  0  0  0  0  0  0  0  0  0  0  0
   -1.7640    0.7918   -0.0765 C   0  0  0  0  0  0  0  0  0  0  0  0
   -2.8784    1.4729    0.4678 C   0  0  0  0  0  0  0  0  0  0  0  0
   -4.9041    2.9906    1.2824 H   0  0  0  0  0  0  0  0  0  0  0  0
   -2.4056    4.5669   -0.8570 H   0  0  0  0  0  0  0  0  0  0  0  0
   -0.3724    3.4758   -1.6990 H   0  0  0  0  0  0  0  0  0  0  0  0
    0.4685    0.8801   -2.3907 H   0  0  0  0  0  0  0  0  0  0  0  0
    1.3207    1.6789   -1.0446 H   0  0  0  0  0  0  0  0  0  0  0  0
    1.5861   -0.8574   -1.3193 H   0  0  0  0  0  0  0  0  0  0  0  0
    2.2363   -1.6565    2.0485 H   0  0  0  0  0  0  0  0  0  0  0  0
    2.5941   -1.9462    0.3402 H   0  0  0  0  0  0  0  0  0  0  0  0
    4.6237   -1.1433    1.5682 H   0  0  0  0  0  0  0  0  0  0  0  0
    4.6312    0.8272    2.8604 H   0  0  0  0  0  0  0  0  0  0  0  0
    2.8575    1.1740    2.4579 H   0  0  0  0  0  0  0  0  0  0  0  0
    3.5019    2.3645    0.5163 H   0  0  0  0  0  0  0  0  0  0  0  0
    5.2922    2.0831    0.9624 H   0  0  0  0  0  0  0  0  0  0  0  0
    5.3058    0.0884   -0.3187 H   0  0  0  0  0  0  0  0  0  0  0  0
    3.5490    0.4053   -0.8169 H   0  0  0  0  0  0  0  0  0  0  0  0
    0.8692   -0.0506    2.8024 H   0  0  0  0  0  0  0  0  0  0  0  0
    0.1990    1.2028    1.7656 H   0  0  0  0  0  0  0  0  0  0  0  0
   -0.7835   -1.6916    2.1398 H   0  0  0  0  0  0  0  0  0  0  0  0
   -1.6372   -0.1795    2.4230 H   0  0  0  0  0  0  0  0  0  0  0  0
   -3.1702   -1.8147    1.2571 H   0  0  0  0  0  0  0  0  0  0  0  0
   -3.6763   -0.8911   -0.1707 H   0  0  0  0  0  0  0  0  0  0  0  0
   -3.8583   -3.1534   -0.7611 H   0  0  0  0  0  0  0  0  0  0  0  0
   -2.2424   -3.5658   -0.1587 H   0  0  0  0  0  0  0  0  0  0  0  0
   -3.0636   -2.0377   -2.6901 H   0  0  0  0  0  0  0  0  0  0  0  0
   -1.9592   -3.4327   -2.5224 H   0  0  0  0  0  0  0  0  0  0  0  0
   -1.3935   -0.5308   -2.4730 H   0  0  0  0  0  0  0  0  0  0  0  0
   -0.2750   -1.8878   -2.7658 H   0  0  0  0  0  0  0  0  0  0  0  0
    0.3969   -2.6178    0.6301 H   0  0  0  0  0  0  0  0  0  0  0  0
   -3.5632    0.9617    1.1320 H   0  0  0  0  0  0  0  0  0  0  0  0
  1  2  1  0
  2  3  2  0
  3  4  1  0
  4  5  2  0
  5  6  1  0
  7  6  1  0
  7  8  1  0
  8  9  1  0
  9 10  1  0
 10 11  1  0
 11 12  1  0
 12 13  1  0
 13 10  1  0
  8 14  1  0
 14 15  1  0
 16 15  1  1
 16 17  1  0
 17 18  1  0
 18 19  1  0
 19 20  1  0
 20 21  1  0
 21  7  1  0
 21 16  1  0
 21 22  1  1
 16 23  1  0
 23  5  1  0
 23 24  2  0
 24  2  1  0
  1 25  1  0
  3 26  1  0
  4 27  1  0
  6 28  1  0
  6 29  1  0
  7 30  1  6
  9 31  1  0
  9 32  1  0
 10 33  1  0
 11 34  1  0
 11 35  1  0
 12 36  1  0
 12 37  1  0
 13 38  1  0
 13 39  1  0
 14 40  1  0
 14 41  1  0
 15 42  1  0
 15 43  1  0
 17 44  1  0
 17 45  1  0
 18 46  1  0
 18 47  1  0
 19 48  1  0
 19 49  1  0
 20 50  1  0
 20 51  1  0
 22 52  1  0
 24 53  1  0
M  END
> <ID>
HT0341

> <Class>
0.0

> <Clusters>
175

> <Fold>
3

$$$$