
     RDKit          3D

 18 19  0  0  0  0  0  0  0  0999 V2000
   -2.0559   -2.1302   -0.0218 O   0  0  0  0  0  0  0  0  0  0  0  0
   -1.5068   -0.8474   -0.0812 C   0  0  0  0  0  0  0  0  0  0  0  0
   -2.3548    0.2518   -0.2708 C   0  0  0  0  0  0  0  0  0  0  0  0
   -4.0893    0.0211   -0.4323 Cl  0  0  0  0  0  0  0  0  0  0  0  0
   -1.8295    1.5450   -0.3337 C   0  0  0  0  0  0  0  0  0  0  0  0
   -0.4539    1.7639   -0.2089 C   0  0  0  0  0  0  0  0  0  0  0  0
    0.1310    3.4238   -0.2990 Cl  0  0  0  0  0  0  0  0  0  0  0  0
    0.4146    0.6684   -0.0174 C   0  0  0  0  0  0  0  0  0  0  0  0
    1.8055    0.8310    0.1141 C   0  0  0  0  0  0  0  0  0  0  0  0
    2.6260   -0.2817    0.3021 C   0  0  0  0  0  0  0  0  0  0  0  0
    2.0571   -1.5531    0.3583 C   0  0  0  0  0  0  0  0  0  0  0  0
    0.7134   -1.7044    0.2308 N   0  0  0  0  0  0  0  0  0  0  0  0
   -0.1202   -0.6433    0.0461 C   0  0  0  0  0  0  0  0  0  0  0  0
   -1.4890   -2.9584    0.1135 H   0  0  0  0  0  0  0  0  0  0  0  0
   -2.4957    2.3861   -0.4806 H   0  0  0  0  0  0  0  0  0  0  0  0
    2.2664    1.8089    0.0733 H   0  0  0  0  0  0  0  0  0  0  0  0
    3.6967   -0.1592    0.4036 H   0  0  0  0  0  0  0  0  0  0  0  0
    2.6845   -2.4222    0.5038 H   0  0  0  0  0  0  0  0  0  0  0  0
  1  2  1  0
  2  3  2  0
  3  4  1  0
  3  5  1  0
  5  6  2  0
  6  7  1  0
  6  8  1  0
  8  9  2  0
  9 10  1  0
 10 11  2  0
 11 12  1  0
 12 13  2  0
 13  2  1  0
 13  8  1  0
  1 14  1  0
  5 15  1  0
  9 16  1  0
 10 17  1  0
 11 18  1  0
M  END
> <ID>
HT0463

> <Class>
0.0

> <Clusters>
53

> <Fold>
3

$$$$