
     RDKit          3D

 45 47  0  0  0  0  0  0  0  0999 V2000
   -7.3236    0.1863   -1.2454 C   0  0  0  0  0  0  0  0  0  0  0  0
   -6.1958   -0.4383   -0.4973 C   0  0  0  0  0  0  0  0  0  0  0  0
   -6.1638   -0.3561    0.7599 O   0  0  0  0  0  0  0  0  0  0  0  0
   -5.1863   -1.1054   -1.1996 O   0  0  0  0  0  0  0  0  0  0  0  0
   -4.0585   -1.7144   -0.5728 C   0  0  0  0  0  0  0  0  0  0  0  0
   -3.1289   -0.6606   -0.0044 C   0  0  0  0  0  0  0  0  0  0  0  0
   -2.6894   -0.6681    1.2824 C   0  0  0  0  0  0  0  0  0  0  0  0
   -1.6490    0.2451    1.6386 N   0  0  0  0  0  0  0  0  0  0  0  0
   -1.0302    1.3180    0.9032 C   0  0  2  0  0  0  0  0  0  0  0  0
   -0.8456    0.7650   -0.8268 S   0  0  0  0  0  0  0  0  0  0  0  0
   -2.6425    0.4097   -0.9736 C   0  0  0  0  0  0  0  0  0  0  0  0
    0.1370    1.3453    1.7583 C   0  0  2  0  0  0  0  0  0  0  0  0
    1.3620    0.8402    1.1328 N   0  0  0  0  0  0  0  0  0  0  0  0
    2.2292    1.6978    0.3791 C   0  0  0  0  0  0  0  0  0  0  0  0
    1.9600    2.9231    0.2521 O   0  0  0  0  0  0  0  0  0  0  0  0
    3.4782    1.1498   -0.2308 C   0  0  0  0  0  0  0  0  0  0  0  0
    4.7713    1.0316    1.0461 S   0  0  0  0  0  0  0  0  0  0  0  0
    5.9809    0.3258   -0.0741 C   0  0  0  0  0  0  0  0  0  0  0  0
    6.8420    1.1593   -0.7949 C   0  0  0  0  0  0  0  0  0  0  0  0
    7.7791    0.5892   -1.6605 C   0  0  0  0  0  0  0  0  0  0  0  0
    7.8500   -0.7626   -1.7939 N   0  0  0  0  0  0  0  0  0  0  0  0
    7.0247   -1.5918   -1.1001 C   0  0  0  0  0  0  0  0  0  0  0  0
    6.0739   -1.0615   -0.2243 C   0  0  0  0  0  0  0  0  0  0  0  0
   -0.5261    0.2997    2.6041 C   0  0  0  0  0  0  0  0  0  0  0  0
   -0.2288   -0.3036    3.6679 O   0  0  0  0  0  0  0  0  0  0  0  0
   -3.1348   -1.6479    2.2934 C   0  0  0  0  0  0  0  0  0  0  0  0
   -4.3621   -1.8549    2.4898 O   0  0  0  0  0  0  0  0  0  0  0  0
   -2.1946   -2.3067    3.0782 O   0  0  0  0  0  0  0  0  0  0  0  0
   -7.3456    1.2777   -1.0442 H   0  0  0  0  0  0  0  0  0  0  0  0
   -8.2835   -0.2669   -0.9207 H   0  0  0  0  0  0  0  0  0  0  0  0
   -7.1974    0.0227   -2.3363 H   0  0  0  0  0  0  0  0  0  0  0  0
   -4.4031   -2.4673    0.1613 H   0  0  0  0  0  0  0  0  0  0  0  0
   -3.4982   -2.2773   -1.3483 H   0  0  0  0  0  0  0  0  0  0  0  0
   -1.6348    2.2496    0.9806 H   0  0  0  0  0  0  0  0  0  0  0  0
   -2.8434    0.1036   -2.0221 H   0  0  0  0  0  0  0  0  0  0  0  0
   -3.2127    1.3452   -0.7900 H   0  0  0  0  0  0  0  0  0  0  0  0
    0.2879    2.2957    2.3157 H   0  0  0  0  0  0  0  0  0  0  0  0
    1.6325   -0.1627    1.2559 H   0  0  0  0  0  0  0  0  0  0  0  0
    3.8226    1.8157   -1.0514 H   0  0  0  0  0  0  0  0  0  0  0  0
    3.2714    0.1434   -0.6534 H   0  0  0  0  0  0  0  0  0  0  0  0
    6.7848    2.2351   -0.6888 H   0  0  0  0  0  0  0  0  0  0  0  0
    8.4502    1.2216   -2.2261 H   0  0  0  0  0  0  0  0  0  0  0  0
    7.1066   -2.6629   -1.2281 H   0  0  0  0  0  0  0  0  0  0  0  0
    5.4164   -1.7210    0.3276 H   0  0  0  0  0  0  0  0  0  0  0  0
   -2.4823   -2.9661    3.7912 H   0  0  0  0  0  0  0  0  0  0  0  0
  1  2  1  0
  2  3  2  0
  2  4  1  0
  4  5  1  0
  5  6  1  0
  6  7  2  0
  7  8  1  0
  8  9  1  0
  9 10  1  0
 10 11  1  0
 11  6  1  0
  9 12  1  0
 12 13  1  0
 13 14  1  0
 14 15  2  0
 14 16  1  0
 16 17  1  0
 17 18  1  0
 18 19  2  0
 19 20  1  0
 20 21  2  0
 21 22  1  0
 22 23  2  0
 23 18  1  0
 12 24  1  0
 24  8  1  0
 24 25  2  0
  7 26  1  0
 26 27  2  0
 26 28  1  0
  1 29  1  0
  1 30  1  0
  1 31  1  0
  5 32  1  0
  5 33  1  0
  9 34  1  6
 11 35  1  0
 11 36  1  0
 12 37  1  1
 13 38  1  0
 16 39  1  0
 16 40  1  0
 19 41  1  0
 20 42  1  0
 22 43  1  0
 23 44  1  0
 28 45  1  0
M  END
> <ID>
HT0434

> <Class>
0.0

> <Clusters>
47

> <Fold>
3

$$$$