
     RDKit          3D

 24 24  0  0  0  0  0  0  0  0999 V2000
   -4.1158    0.1331   -1.2773 O   0  0  0  0  0  0  0  0  0  0  0  0
   -3.5187    0.2446   -0.0132 C   0  0  0  0  0  0  0  0  0  0  0  0
   -2.1914   -0.5337    0.0381 C   0  0  0  0  0  0  0  0  0  0  0  0
   -1.6790   -0.5416    1.3470 O   0  0  0  0  0  0  0  0  0  0  0  0
   -1.1564    0.0383   -0.9427 C   0  0  0  0  0  0  0  0  0  0  0  0
    0.0348   -0.7504   -0.9068 O   0  0  0  0  0  0  0  0  0  0  0  0
    1.2861   -0.3352   -0.4231 C   0  0  0  0  0  0  0  0  0  0  0  0
    2.4137   -1.0797   -0.7935 C   0  0  0  0  0  0  0  0  0  0  0  0
    3.6858   -0.7184   -0.3399 C   0  0  0  0  0  0  0  0  0  0  0  0
    3.8418    0.3892    0.4982 C   0  0  0  0  0  0  0  0  0  0  0  0
    5.4375    0.8411    1.0695 Cl  0  0  0  0  0  0  0  0  0  0  0  0
    2.7226    1.1314    0.8865 C   0  0  0  0  0  0  0  0  0  0  0  0
    1.4488    0.7729    0.4335 C   0  0  0  0  0  0  0  0  0  0  0  0
   -4.5033   -0.7795   -1.3291 H   0  0  0  0  0  0  0  0  0  0  0  0
   -3.3351    1.3194    0.2007 H   0  0  0  0  0  0  0  0  0  0  0  0
   -4.2108   -0.1398    0.7704 H   0  0  0  0  0  0  0  0  0  0  0  0
   -2.3962   -1.5880   -0.2500 H   0  0  0  0  0  0  0  0  0  0  0  0
   -1.5348    0.4027    1.6185 H   0  0  0  0  0  0  0  0  0  0  0  0
   -1.5625   -0.0080   -1.9753 H   0  0  0  0  0  0  0  0  0  0  0  0
   -0.9604    1.1087   -0.7290 H   0  0  0  0  0  0  0  0  0  0  0  0
    2.3033   -1.9399   -1.4417 H   0  0  0  0  0  0  0  0  0  0  0  0
    4.5480   -1.3005   -0.6396 H   0  0  0  0  0  0  0  0  0  0  0  0
    2.8373    1.9828    1.5455 H   0  0  0  0  0  0  0  0  0  0  0  0
    0.6047    1.3504    0.7789 H   0  0  0  0  0  0  0  0  0  0  0  0
  1  2  1  0
  2  3  1  0
  3  4  1  0
  3  5  1  0
  5  6  1  0
  6  7  1  0
  7  8  2  0
  8  9  1  0
  9 10  2  0
 10 11  1  0
 10 12  1  0
 12 13  2  0
 13  7  1  0
  1 14  1  0
  2 15  1  0
  2 16  1  0
  3 17  1  0
  4 18  1  0
  5 19  1  0
  5 20  1  0
  8 21  1  0
  9 22  1  0
 12 23  1  0
 13 24  1  0
M  END
> <ID>
HT0464

> <Class>
0.0

> <Clusters>
121

> <Fold>
3

$$$$