
     RDKit          3D

 32 32  0  0  0  0  0  0  0  0999 V2000
   -3.2015   -1.5257   -2.3465 O   0  0  0  0  0  0  0  0  0  0  0  0
   -2.0855   -2.0795   -1.7019 C   0  0  0  0  0  0  0  0  0  0  0  0
   -1.1788   -0.9674   -1.1456 C   0  0  1  0  0  0  0  0  0  0  0  0
   -1.8916   -0.2462   -0.0824 N   0  0  0  0  0  0  0  0  0  0  0  0
   -2.4690    1.0553   -0.2698 C   0  0  0  0  0  0  0  0  0  0  0  0
   -2.4583    1.5995   -1.4079 O   0  0  0  0  0  0  0  0  0  0  0  0
   -3.0593    1.7916    0.8937 C   0  0  0  0  0  0  0  0  0  0  0  0
   -2.0280    3.1830    1.3051 Cl  0  0  0  0  0  0  0  0  0  0  0  0
   -4.6996    2.3636    0.4980 Cl  0  0  0  0  0  0  0  0  0  0  0  0
    0.1569   -1.5552   -0.6099 C   0  0  2  0  0  0  0  0  0  0  0  0
   -0.1033   -2.3868    0.4958 O   0  0  0  0  0  0  0  0  0  0  0  0
    1.2198   -0.5382   -0.2103 C   0  0  0  0  0  0  0  0  0  0  0  0
    2.4275   -1.0241    0.3224 C   0  0  0  0  0  0  0  0  0  0  0  0
    3.4469   -0.1503    0.7085 C   0  0  0  0  0  0  0  0  0  0  0  0
    3.2899    1.2376    0.5626 C   0  0  0  0  0  0  0  0  0  0  0  0
    2.0951    1.7292    0.0146 C   0  0  0  0  0  0  0  0  0  0  0  0
    1.0754    0.8552   -0.3733 C   0  0  0  0  0  0  0  0  0  0  0  0
    4.3363    2.1424    0.9606 N   0  0  0  0  0  0  0  0  0  0  0  0
    5.4023    1.7098    1.4457 O   0  0  0  0  0  0  0  0  0  0  0  0
    4.1782    3.5018    0.8151 O   0  0  0  0  0  0  0  0  0  0  0  0
   -3.8686   -1.3206   -1.6405 H   0  0  0  0  0  0  0  0  0  0  0  0
   -1.5218   -2.6797   -2.4477 H   0  0  0  0  0  0  0  0  0  0  0  0
   -2.4094   -2.7698   -0.8891 H   0  0  0  0  0  0  0  0  0  0  0  0
   -0.9452   -0.2904   -1.9966 H   0  0  0  0  0  0  0  0  0  0  0  0
   -2.0440   -0.7295    0.8316 H   0  0  0  0  0  0  0  0  0  0  0  0
   -3.1270    1.1287    1.7814 H   0  0  0  0  0  0  0  0  0  0  0  0
    0.6144   -2.1547   -1.4340 H   0  0  0  0  0  0  0  0  0  0  0  0
   -0.2306   -3.3090    0.1507 H   0  0  0  0  0  0  0  0  0  0  0  0
    2.5804   -2.0899    0.4429 H   0  0  0  0  0  0  0  0  0  0  0  0
    4.3592   -0.5623    1.1206 H   0  0  0  0  0  0  0  0  0  0  0  0
    1.9483    2.7931   -0.1205 H   0  0  0  0  0  0  0  0  0  0  0  0
    0.1911    1.2886   -0.8087 H   0  0  0  0  0  0  0  0  0  0  0  0
  1  2  1  0
  3  2  1  0
  3  4  1  0
  4  5  1  0
  5  6  2  0
  5  7  1  0
  7  8  1  0
  7  9  1  0
  3 10  1  0
 10 11  1  0
 10 12  1  0
 12 13  2  0
 13 14  1  0
 14 15  2  0
 15 16  1  0
 16 17  2  0
 17 12  1  0
 15 18  1  0
 18 19  2  0
 18 20  1  0
  1 21  1  0
  2 22  1  0
  2 23  1  0
  3 24  1  6
  4 25  1  0
  7 26  1  0
 10 27  1  6
 11 28  1  0
 13 29  1  0
 14 30  1  0
 16 31  1  0
 17 32  1  0
M  CHG  2  18   1  20  -1
M  END
> <ID>
HT0444

> <Class>
0.0

> <Clusters>
49

> <Fold>
3

$$$$