
     RDKit          3D

 46 47  0  0  0  0  0  0  0  0999 V2000
    2.7717   -0.7888   -1.9698 C   0  0  0  0  0  0  0  0  0  0  0  0
    2.5691   -0.3468   -0.5813 N   0  0  0  0  0  0  0  0  0  0  0  0
    3.4063    0.8348   -0.3119 C   0  0  0  0  0  0  0  0  0  0  0  0
    2.8777   -1.4479    0.3572 C   0  0  0  0  0  0  0  0  0  0  0  0
    2.1829   -1.2320    1.7023 C   0  0  0  0  0  0  0  0  0  0  0  0
    0.7925   -1.0003    1.4852 O   0  0  0  0  0  0  0  0  0  0  0  0
    0.1131    0.1537    1.8919 C   0  0  0  0  0  0  0  0  0  0  0  0
    0.6735    0.9811    2.6623 O   0  0  0  0  0  0  0  0  0  0  0  0
   -1.3044    0.4301    1.4279 C   0  0  0  0  0  0  0  0  0  0  0  0
   -1.3693    1.7808    0.7263 C   0  0  0  0  0  0  0  0  0  0  0  0
   -2.3469    2.7203    1.1056 C   0  0  0  0  0  0  0  0  0  0  0  0
   -2.4250    3.9611    0.4663 C   0  0  0  0  0  0  0  0  0  0  0  0
   -1.5279    4.2814   -0.5546 C   0  0  0  0  0  0  0  0  0  0  0  0
   -0.5492    3.3621   -0.9373 C   0  0  0  0  0  0  0  0  0  0  0  0
   -0.4673    2.1195   -0.3029 C   0  0  0  0  0  0  0  0  0  0  0  0
   -1.9904   -0.7104    0.5879 C   0  0  0  0  0  0  0  0  0  0  0  0
   -3.3387   -0.3626    0.3485 O   0  0  0  0  0  0  0  0  0  0  0  0
   -1.2937   -1.0175   -0.7584 C   0  0  0  0  0  0  0  0  0  0  0  0
   -1.4691   -2.5063   -0.9802 C   0  0  0  0  0  0  0  0  0  0  0  0
   -1.4445   -3.1192    0.4065 C   0  0  0  0  0  0  0  0  0  0  0  0
   -2.0046   -2.0588    1.3500 C   0  0  0  0  0  0  0  0  0  0  0  0
    2.0768   -1.6223   -2.2098 H   0  0  0  0  0  0  0  0  0  0  0  0
    2.5385    0.0375   -2.6758 H   0  0  0  0  0  0  0  0  0  0  0  0
    3.8192   -1.1266   -2.1356 H   0  0  0  0  0  0  0  0  0  0  0  0
    3.1518    1.6534   -1.0194 H   0  0  0  0  0  0  0  0  0  0  0  0
    3.2102    1.2261    0.7073 H   0  0  0  0  0  0  0  0  0  0  0  0
    4.4888    0.5963   -0.4112 H   0  0  0  0  0  0  0  0  0  0  0  0
    2.5031   -2.4167   -0.0452 H   0  0  0  0  0  0  0  0  0  0  0  0
    3.9753   -1.5572    0.5104 H   0  0  0  0  0  0  0  0  0  0  0  0
    2.6647   -0.3963    2.2517 H   0  0  0  0  0  0  0  0  0  0  0  0
    2.2990   -2.1462    2.3220 H   0  0  0  0  0  0  0  0  0  0  0  0
   -1.9020    0.5052    2.3646 H   0  0  0  0  0  0  0  0  0  0  0  0
   -3.0558    2.4898    1.8910 H   0  0  0  0  0  0  0  0  0  0  0  0
   -3.1829    4.6748    0.7627 H   0  0  0  0  0  0  0  0  0  0  0  0
   -1.5896    5.2430   -1.0475 H   0  0  0  0  0  0  0  0  0  0  0  0
    0.1499    3.6136   -1.7245 H   0  0  0  0  0  0  0  0  0  0  0  0
    0.3103    1.4336   -0.6066 H   0  0  0  0  0  0  0  0  0  0  0  0
   -3.3647    0.4048   -0.2798 H   0  0  0  0  0  0  0  0  0  0  0  0
   -1.7235   -0.4410   -1.6061 H   0  0  0  0  0  0  0  0  0  0  0  0
   -0.2092   -0.8010   -0.7240 H   0  0  0  0  0  0  0  0  0  0  0  0
   -2.4557   -2.6989   -1.4572 H   0  0  0  0  0  0  0  0  0  0  0  0
   -0.6614   -2.9205   -1.6222 H   0  0  0  0  0  0  0  0  0  0  0  0
   -2.0460   -4.0534    0.4408 H   0  0  0  0  0  0  0  0  0  0  0  0
   -0.3945   -3.3558    0.6877 H   0  0  0  0  0  0  0  0  0  0  0  0
   -1.4148   -2.0378    2.2912 H   0  0  0  0  0  0  0  0  0  0  0  0
   -3.0430   -2.3389    1.6370 H   0  0  0  0  0  0  0  0  0  0  0  0
  1  2  1  0
  2  3  1  0
  2  4  1  0
  4  5  1  0
  5  6  1  0
  6  7  1  0
  7  8  2  0
  7  9  1  0
  9 10  1  0
 10 11  2  0
 11 12  1  0
 12 13  2  0
 13 14  1  0
 14 15  2  0
 15 10  1  0
  9 16  1  0
 16 17  1  0
 16 18  1  0
 18 19  1  0
 19 20  1  0
 20 21  1  0
 21 16  1  0
  1 22  1  0
  1 23  1  0
  1 24  1  0
  3 25  1  0
  3 26  1  0
  3 27  1  0
  4 28  1  0
  4 29  1  0
  5 30  1  0
  5 31  1  0
  9 32  1  0
 11 33  1  0
 12 34  1  0
 13 35  1  0
 14 36  1  0
 15 37  1  0
 17 38  1  0
 18 39  1  0
 18 40  1  0
 19 41  1  0
 19 42  1  0
 20 43  1  0
 20 44  1  0
 21 45  1  0
 21 46  1  0
M  END
> <ID>
HT0567

> <Class>
0.0

> <Clusters>
263

> <Fold>
3

$$$$