
     RDKit          3D

 38 41  0  0  0  0  0  0  0  0999 V2000
    2.7279   -2.0623   -2.0819 C   0  0  0  0  0  0  0  0  0  0  0  0
    3.1551   -2.5525   -0.6895 C   0  0  0  0  0  0  0  0  0  0  0  0
    2.7148   -1.5120    0.2320 N   0  0  0  0  0  0  0  0  0  0  0  0
    2.1240   -0.5735   -0.4237 C   0  0  0  0  0  0  0  0  0  0  0  0
    2.0884   -0.7897   -1.8189 N   0  0  0  0  0  0  0  0  0  0  0  0
    1.5602    0.6658    0.2172 C   0  0  0  0  0  0  0  0  0  0  0  0
    1.2328    0.5551    1.7026 C   0  0  0  0  0  0  0  0  0  0  0  0
    0.0938    0.6076    0.6797 C   0  0  0  0  0  0  0  0  0  0  0  0
   -0.6920   -0.6685    0.4847 C   0  0  0  0  0  0  0  0  0  0  0  0
   -1.1896   -1.3783    1.5910 C   0  0  0  0  0  0  0  0  0  0  0  0
   -1.9455   -2.5392    1.4014 C   0  0  0  0  0  0  0  0  0  0  0  0
   -2.2286   -2.9873    0.1085 C   0  0  0  0  0  0  0  0  0  0  0  0
   -1.7674   -2.2677   -0.9969 C   0  0  0  0  0  0  0  0  0  0  0  0
   -1.0129   -1.1058   -0.8110 C   0  0  0  0  0  0  0  0  0  0  0  0
   -0.6700    1.9028    0.6220 C   0  0  0  0  0  0  0  0  0  0  0  0
   -0.7941    2.5955   -0.5932 C   0  0  0  0  0  0  0  0  0  0  0  0
   -1.5349    3.7798   -0.6551 C   0  0  0  0  0  0  0  0  0  0  0  0
   -2.1660    4.2720    0.4908 C   0  0  0  0  0  0  0  0  0  0  0  0
   -2.0618    3.5776    1.6995 C   0  0  0  0  0  0  0  0  0  0  0  0
   -1.3219    2.3929    1.7654 C   0  0  0  0  0  0  0  0  0  0  0  0
    3.6085   -1.9154   -2.7433 H   0  0  0  0  0  0  0  0  0  0  0  0
    2.0020   -2.7617   -2.5493 H   0  0  0  0  0  0  0  0  0  0  0  0
    4.2586   -2.6661   -0.6291 H   0  0  0  0  0  0  0  0  0  0  0  0
    2.6586   -3.5136   -0.4362 H   0  0  0  0  0  0  0  0  0  0  0  0
    1.6816   -0.1453   -2.5326 H   0  0  0  0  0  0  0  0  0  0  0  0
    1.9549    1.6567   -0.0941 H   0  0  0  0  0  0  0  0  0  0  0  0
    1.4165    1.4954    2.2653 H   0  0  0  0  0  0  0  0  0  0  0  0
    1.4146   -0.4361    2.1699 H   0  0  0  0  0  0  0  0  0  0  0  0
   -0.9928   -1.0336    2.5984 H   0  0  0  0  0  0  0  0  0  0  0  0
   -2.3166   -3.0883    2.2570 H   0  0  0  0  0  0  0  0  0  0  0  0
   -2.8151   -3.8853   -0.0368 H   0  0  0  0  0  0  0  0  0  0  0  0
   -2.0014   -2.6058   -1.9981 H   0  0  0  0  0  0  0  0  0  0  0  0
   -0.6840   -0.5438   -1.6753 H   0  0  0  0  0  0  0  0  0  0  0  0
   -0.3186    2.2174   -1.4898 H   0  0  0  0  0  0  0  0  0  0  0  0
   -1.6232    4.3137   -1.5925 H   0  0  0  0  0  0  0  0  0  0  0  0
   -2.7404    5.1880    0.4410 H   0  0  0  0  0  0  0  0  0  0  0  0
   -2.5580    3.9549    2.5842 H   0  0  0  0  0  0  0  0  0  0  0  0
   -1.2574    1.8569    2.7042 H   0  0  0  0  0  0  0  0  0  0  0  0
  1  2  1  0
  2  3  1  0
  3  4  2  0
  4  5  1  0
  5  1  1  0
  4  6  1  0
  6  7  1  0
  7  8  1  0
  8  6  1  0
  8  9  1  0
  9 10  2  0
 10 11  1  0
 11 12  2  0
 12 13  1  0
 13 14  2  0
 14  9  1  0
  8 15  1  0
 15 16  2  0
 16 17  1  0
 17 18  2  0
 18 19  1  0
 19 20  2  0
 20 15  1  0
  1 21  1  0
  1 22  1  0
  2 23  1  0
  2 24  1  0
  5 25  1  0
  6 26  1  0
  7 27  1  0
  7 28  1  0
 10 29  1  0
 11 30  1  0
 12 31  1  0
 13 32  1  0
 14 33  1  0
 16 34  1  0
 17 35  1  0
 18 36  1  0
 19 37  1  0
 20 38  1  0
M  END
> <ID>
HT0478

> <Class>
0.0

> <Clusters>
30

> <Fold>
3

$$$$