
     RDKit          3D

 50 52  0  0  0  0  0  0  0  0999 V2000
   -1.3327    0.4714    2.3028 O   0  0  0  0  0  0  0  0  0  0  0  0
   -1.2630    0.1528    0.9263 C   0  0  0  0  0  0  0  0  0  0  0  0
    0.2506   -0.0208    0.5876 C   0  0  0  0  0  0  0  0  0  0  0  0
    1.1084    1.1927    1.0327 C   0  0  0  0  0  0  0  0  0  0  0  0
    2.5131    1.1391    0.5697 N   0  0  0  0  0  0  0  0  0  0  0  0
    3.2698   -0.0577    1.0170 C   0  0  0  0  0  0  0  0  0  0  0  0
    3.5250   -1.0474   -0.1286 C   0  0  0  0  0  0  0  0  0  0  0  0
    4.3040   -0.3876   -1.2815 C   0  0  0  0  0  0  0  0  0  0  0  0
    4.0660    1.1301   -1.3788 C   0  0  0  0  0  0  0  0  0  0  0  0
    2.6762    1.5095   -0.8569 C   0  0  0  0  0  0  0  0  0  0  0  0
   -2.0918   -1.1709    0.6870 C   0  0  0  0  0  0  0  0  0  0  0  0
   -1.9459   -1.8640   -0.6726 C   0  0  0  0  0  0  0  0  0  0  0  0
   -2.3415   -3.3057   -0.4191 C   0  0  0  0  0  0  0  0  0  0  0  0
   -1.8734   -3.6085    0.9942 C   0  0  0  0  0  0  0  0  0  0  0  0
   -1.8328   -2.2726    1.7326 C   0  0  0  0  0  0  0  0  0  0  0  0
   -1.8555    1.3080    0.0899 C   0  0  0  0  0  0  0  0  0  0  0  0
   -1.7693    1.2996   -1.3214 C   0  0  0  0  0  0  0  0  0  0  0  0
   -2.2968    2.3472   -2.0811 C   0  0  0  0  0  0  0  0  0  0  0  0
   -2.9142    3.4275   -1.4531 C   0  0  0  0  0  0  0  0  0  0  0  0
   -2.9996    3.4662   -0.0623 C   0  0  0  0  0  0  0  0  0  0  0  0
   -2.4741    2.4225    0.7052 C   0  0  0  0  0  0  0  0  0  0  0  0
   -2.2778    0.3994    2.6015 H   0  0  0  0  0  0  0  0  0  0  0  0
    0.6330   -0.9292    1.0916 H   0  0  0  0  0  0  0  0  0  0  0  0
    0.3907   -0.1825   -0.4938 H   0  0  0  0  0  0  0  0  0  0  0  0
    0.6449    2.1370    0.6714 H   0  0  0  0  0  0  0  0  0  0  0  0
    1.1065    1.2527    2.1430 H   0  0  0  0  0  0  0  0  0  0  0  0
    4.2498    0.2791    1.4171 H   0  0  0  0  0  0  0  0  0  0  0  0
    2.7632   -0.5778    1.8588 H   0  0  0  0  0  0  0  0  0  0  0  0
    4.0946   -1.9216    0.2542 H   0  0  0  0  0  0  0  0  0  0  0  0
    2.5519   -1.4241   -0.5087 H   0  0  0  0  0  0  0  0  0  0  0  0
    5.3921   -0.5698   -1.1450 H   0  0  0  0  0  0  0  0  0  0  0  0
    4.0054   -0.8711   -2.2372 H   0  0  0  0  0  0  0  0  0  0  0  0
    4.1740    1.4587   -2.4355 H   0  0  0  0  0  0  0  0  0  0  0  0
    4.8334    1.6650   -0.7764 H   0  0  0  0  0  0  0  0  0  0  0  0
    2.5461    2.6084   -0.9598 H   0  0  0  0  0  0  0  0  0  0  0  0
    1.9142    1.0221   -1.5001 H   0  0  0  0  0  0  0  0  0  0  0  0
   -3.1701   -0.9006    0.7795 H   0  0  0  0  0  0  0  0  0  0  0  0
   -2.6134   -1.4124   -1.4375 H   0  0  0  0  0  0  0  0  0  0  0  0
   -0.9003   -1.8576   -1.0381 H   0  0  0  0  0  0  0  0  0  0  0  0
   -1.8750   -3.9922   -1.1590 H   0  0  0  0  0  0  0  0  0  0  0  0
   -3.4487   -3.4040   -0.4750 H   0  0  0  0  0  0  0  0  0  0  0  0
   -2.5595   -4.3267    1.4940 H   0  0  0  0  0  0  0  0  0  0  0  0
   -0.8525   -4.0495    0.9595 H   0  0  0  0  0  0  0  0  0  0  0  0
   -0.8524   -2.1585    2.2395 H   0  0  0  0  0  0  0  0  0  0  0  0
   -2.6217   -2.2460    2.5161 H   0  0  0  0  0  0  0  0  0  0  0  0
   -1.2819    0.4939   -1.8491 H   0  0  0  0  0  0  0  0  0  0  0  0
   -2.2217    2.3224   -3.1607 H   0  0  0  0  0  0  0  0  0  0  0  0
   -3.3208    4.2382   -2.0442 H   0  0  0  0  0  0  0  0  0  0  0  0
   -3.4721    4.3098    0.4247 H   0  0  0  0  0  0  0  0  0  0  0  0
   -2.5544    2.5056    1.7797 H   0  0  0  0  0  0  0  0  0  0  0  0
  1  2  1  0
  2  3  1  0
  3  4  1  0
  4  5  1  0
  5  6  1  0
  6  7  1  0
  7  8  1  0
  8  9  1  0
  9 10  1  0
 10  5  1  0
  2 11  1  0
 11 12  1  0
 12 13  1  0
 13 14  1  0
 14 15  1  0
 15 11  1  0
  2 16  1  0
 16 17  2  0
 17 18  1  0
 18 19  2  0
 19 20  1  0
 20 21  2  0
 21 16  1  0
  1 22  1  0
  3 23  1  0
  3 24  1  0
  4 25  1  0
  4 26  1  0
  6 27  1  0
  6 28  1  0
  7 29  1  0
  7 30  1  0
  8 31  1  0
  8 32  1  0
  9 33  1  0
  9 34  1  0
 10 35  1  0
 10 36  1  0
 11 37  1  0
 12 38  1  0
 12 39  1  0
 13 40  1  0
 13 41  1  0
 14 42  1  0
 14 43  1  0
 15 44  1  0
 15 45  1  0
 17 46  1  0
 18 47  1  0
 19 48  1  0
 20 49  1  0
 21 50  1  0
M  END
> <ID>
HT0573

> <Class>
0.0

> <Clusters>
67

> <Fold>
3

$$$$