
     RDKit          3D

 70 72  0  0  0  0  0  0  0  0999 V2000
   -4.4982    4.2105    0.4754 C   0  0  0  0  0  0  0  0  0  0  0  0
   -4.2720    2.7500    0.8830 C   0  0  0  0  0  0  0  0  0  0  0  0
   -5.3440    1.7553    0.3514 C   0  0  0  0  0  0  0  0  0  0  0  0
   -5.3035    1.6817   -1.1934 C   0  0  0  0  0  0  0  0  0  0  0  0
   -5.0988    0.4480    0.8922 O   0  0  0  0  0  0  0  0  0  0  0  0
   -3.9313   -0.2913    0.6693 C   0  0  0  0  0  0  0  0  0  0  0  0
   -2.8335   -0.1479    1.5207 C   0  0  0  0  0  0  0  0  0  0  0  0
   -1.6694   -0.8856    1.2973 C   0  0  0  0  0  0  0  0  0  0  0  0
   -1.5794   -1.7975    0.2223 C   0  0  0  0  0  0  0  0  0  0  0  0
   -2.7119   -1.9513   -0.6119 C   0  0  0  0  0  0  0  0  0  0  0  0
   -3.8725   -1.2061   -0.3851 C   0  0  0  0  0  0  0  0  0  0  0  0
   -0.2648   -2.5806    0.0208 C   0  0  0  0  0  0  0  0  0  0  0  0
   -0.2997   -3.5100   -1.2312 C   0  0  0  0  0  0  0  0  0  0  0  0
    1.0217   -4.2728   -1.4507 C   0  0  0  0  0  0  0  0  0  0  0  0
    1.7388   -4.6627   -0.1452 C   0  0  0  0  0  0  0  0  0  0  0  0
    0.7838   -4.7719    1.0479 C   0  0  0  0  0  0  0  0  0  0  0  0
   -0.0916   -3.5138    1.2704 C   0  0  0  0  0  0  0  0  0  0  0  0
    0.8573   -1.5325   -0.1725 C   0  0  0  0  0  0  0  0  0  0  0  0
    0.7605   -0.6265   -1.2501 C   0  0  0  0  0  0  0  0  0  0  0  0
    1.7396    0.3436   -1.4683 C   0  0  0  0  0  0  0  0  0  0  0  0
    2.8447    0.4488   -0.6216 C   0  0  0  0  0  0  0  0  0  0  0  0
    3.7925    1.4505   -0.9118 O   0  0  0  0  0  0  0  0  0  0  0  0
    5.0892    1.6568   -0.3249 C   0  0  0  0  0  0  0  0  0  0  0  0
    5.9831    0.4251   -0.5891 C   0  0  0  0  0  0  0  0  0  0  0  0
    5.7359    2.8768   -1.0275 C   0  0  0  0  0  0  0  0  0  0  0  0
    4.8929    4.1529   -0.9319 C   0  0  0  0  0  0  0  0  0  0  0  0
    4.9819    1.9426    1.1589 C   0  0  0  0  0  0  0  0  0  0  0  0
    6.0106    1.9112    1.8887 O   0  0  0  0  0  0  0  0  0  0  0  0
    3.7563    2.2983    1.7172 O   0  0  0  0  0  0  0  0  0  0  0  0
    2.9441   -0.4297    0.4720 C   0  0  0  0  0  0  0  0  0  0  0  0
    1.9658   -1.4029    0.6945 C   0  0  0  0  0  0  0  0  0  0  0  0
   -6.7200    2.1724    0.8373 C   0  0  0  0  0  0  0  0  0  0  0  0
   -7.6082    2.5541    0.0277 O   0  0  0  0  0  0  0  0  0  0  0  0
   -7.0274    2.1289    2.1962 O   0  0  0  0  0  0  0  0  0  0  0  0
   -4.4048    4.3339   -0.6231 H   0  0  0  0  0  0  0  0  0  0  0  0
   -3.7259    4.8470    0.9569 H   0  0  0  0  0  0  0  0  0  0  0  0
   -5.4948    4.5686    0.8067 H   0  0  0  0  0  0  0  0  0  0  0  0
   -4.2406    2.6999    1.9933 H   0  0  0  0  0  0  0  0  0  0  0  0
   -3.2670    2.4478    0.5166 H   0  0  0  0  0  0  0  0  0  0  0  0
   -5.9854    0.8817   -1.5542 H   0  0  0  0  0  0  0  0  0  0  0  0
   -4.2762    1.4522   -1.5486 H   0  0  0  0  0  0  0  0  0  0  0  0
   -5.6224    2.6395   -1.6560 H   0  0  0  0  0  0  0  0  0  0  0  0
   -2.8792    0.5393    2.3557 H   0  0  0  0  0  0  0  0  0  0  0  0
   -0.8300   -0.7411    1.9661 H   0  0  0  0  0  0  0  0  0  0  0  0
   -2.7216   -2.6397   -1.4436 H   0  0  0  0  0  0  0  0  0  0  0  0
   -4.7291   -1.3399   -1.0333 H   0  0  0  0  0  0  0  0  0  0  0  0
   -1.1078   -4.2649   -1.1027 H   0  0  0  0  0  0  0  0  0  0  0  0
   -0.5311   -2.9398   -2.1561 H   0  0  0  0  0  0  0  0  0  0  0  0
    0.8063   -5.1904   -2.0411 H   0  0  0  0  0  0  0  0  0  0  0  0
    1.7095   -3.6477   -2.0613 H   0  0  0  0  0  0  0  0  0  0  0  0
    2.2506   -5.6392   -0.2885 H   0  0  0  0  0  0  0  0  0  0  0  0
    2.5363   -3.9271    0.0824 H   0  0  0  0  0  0  0  0  0  0  0  0
    1.3712   -4.9795    1.9682 H   0  0  0  0  0  0  0  0  0  0  0  0
    0.1224   -5.6506    0.8776 H   0  0  0  0  0  0  0  0  0  0  0  0
    0.2536   -2.9496    2.1601 H   0  0  0  0  0  0  0  0  0  0  0  0
   -1.0947   -3.8922    1.5736 H   0  0  0  0  0  0  0  0  0  0  0  0
   -0.0859   -0.6618   -1.9242 H   0  0  0  0  0  0  0  0  0  0  0  0
    1.6385    1.0220   -2.3063 H   0  0  0  0  0  0  0  0  0  0  0  0
    5.6318   -0.4722   -0.0455 H   0  0  0  0  0  0  0  0  0  0  0  0
    5.9899    0.1851   -1.6739 H   0  0  0  0  0  0  0  0  0  0  0  0
    7.0293    0.6222   -0.2702 H   0  0  0  0  0  0  0  0  0  0  0  0
    5.8804    2.6454   -2.1061 H   0  0  0  0  0  0  0  0  0  0  0  0
    6.7404    3.0818   -0.5943 H   0  0  0  0  0  0  0  0  0  0  0  0
    3.8876    3.9932   -1.3752 H   0  0  0  0  0  0  0  0  0  0  0  0
    5.3965    4.9690   -1.4920 H   0  0  0  0  0  0  0  0  0  0  0  0
    4.7825    4.4744    0.1248 H   0  0  0  0  0  0  0  0  0  0  0  0
    3.6761    2.5062    2.7051 H   0  0  0  0  0  0  0  0  0  0  0  0
    3.7605   -0.3706    1.1737 H   0  0  0  0  0  0  0  0  0  0  0  0
    2.1089   -2.0524    1.5433 H   0  0  0  0  0  0  0  0  0  0  0  0
   -6.3483    1.8254    2.8830 H   0  0  0  0  0  0  0  0  0  0  0  0
  1  2  1  0
  2  3  1  0
  3  4  1  0
  3  5  1  0
  5  6  1  0
  6  7  2  0
  7  8  1  0
  8  9  2  0
  9 10  1  0
 10 11  2  0
 11  6  1  0
  9 12  1  0
 12 13  1  0
 13 14  1  0
 14 15  1  0
 15 16  1  0
 16 17  1  0
 17 12  1  0
 12 18  1  0
 18 19  2  0
 19 20  1  0
 20 21  2  0
 21 22  1  0
 22 23  1  0
 23 24  1  0
 23 25  1  0
 25 26  1  0
 23 27  1  0
 27 28  2  0
 27 29  1  0
 21 30  1  0
 30 31  2  0
 31 18  1  0
  3 32  1  0
 32 33  2  0
 32 34  1  0
  1 35  1  0
  1 36  1  0
  1 37  1  0
  2 38  1  0
  2 39  1  0
  4 40  1  0
  4 41  1  0
  4 42  1  0
  7 43  1  0
  8 44  1  0
 10 45  1  0
 11 46  1  0
 13 47  1  0
 13 48  1  0
 14 49  1  0
 14 50  1  0
 15 51  1  0
 15 52  1  0
 16 53  1  0
 16 54  1  0
 17 55  1  0
 17 56  1  0
 19 57  1  0
 20 58  1  0
 24 59  1  0
 24 60  1  0
 24 61  1  0
 25 62  1  0
 25 63  1  0
 26 64  1  0
 26 65  1  0
 26 66  1  0
 29 67  1  0
 30 68  1  0
 31 69  1  0
 34 70  1  0
M  END
> <ID>
HT0513

> <Class>
0.0

> <Clusters>
216

> <Fold>
3

$$$$