
     RDKit          3D

 62 66  0  0  0  0  0  0  0  0999 V2000
   -1.9000    3.4428    0.4863 N   0  0  0  0  0  0  0  0  0  0  0  0
   -2.2542    2.1460    0.9764 C   0  0  0  0  0  0  0  0  0  0  0  0
   -2.5843    2.0415    2.1902 O   0  0  0  0  0  0  0  0  0  0  0  0
   -2.3877    0.9451    0.0268 C   0  0  0  0  0  0  0  0  0  0  0  0
   -1.1718    0.9597   -1.0005 C   0  0  2  0  0  0  0  0  0  0  0  0
   -1.0912   -0.2468   -1.9388 C   0  0  0  0  0  0  0  0  0  0  0  0
    0.1634   -0.9840   -1.5232 C   0  0  0  0  0  0  0  0  0  0  0  0
    1.0900    0.0073   -0.9623 N   0  0  0  0  0  0  0  0  0  0  0  0
    1.9859    0.5795   -1.9977 C   0  0  0  0  0  0  0  0  0  0  0  0
    3.1461   -0.3747   -2.3313 C   0  0  0  0  0  0  0  0  0  0  0  0
    3.8789   -0.8220   -1.0922 C   0  0  0  0  0  0  0  0  0  0  0  0
    3.8378   -2.1771   -0.6859 C   0  0  0  0  0  0  0  0  0  0  0  0
    4.5273   -2.5956    0.4639 C   0  0  0  0  0  0  0  0  0  0  0  0
    5.2413   -1.6457    1.1878 C   0  0  0  0  0  0  0  0  0  0  0  0
    5.9703   -1.8609    2.3362 O   0  0  0  0  0  0  0  0  0  0  0  0
    6.5533   -0.6388    2.7853 C   0  0  0  0  0  0  0  0  0  0  0  0
    6.1176    0.4373    1.7601 C   0  0  0  0  0  0  0  0  0  0  0  0
    5.2870   -0.3384    0.8054 C   0  0  0  0  0  0  0  0  0  0  0  0
    4.6183    0.1093   -0.3323 C   0  0  0  0  0  0  0  0  0  0  0  0
    0.2294    1.0425   -0.3613 C   0  0  0  0  0  0  0  0  0  0  0  0
   -3.7617    1.1589   -0.6597 C   0  0  0  0  0  0  0  0  0  0  0  0
   -4.9323    1.1630    0.1399 C   0  0  0  0  0  0  0  0  0  0  0  0
   -6.1964    1.3596   -0.4239 C   0  0  0  0  0  0  0  0  0  0  0  0
   -6.3259    1.5525   -1.7965 C   0  0  0  0  0  0  0  0  0  0  0  0
   -5.1917    1.5527   -2.6083 C   0  0  0  0  0  0  0  0  0  0  0  0
   -3.9217    1.3621   -2.0522 C   0  0  0  0  0  0  0  0  0  0  0  0
   -2.4002   -0.4098    0.8041 C   0  0  0  0  0  0  0  0  0  0  0  0
   -1.6080   -0.6230    1.9616 C   0  0  0  0  0  0  0  0  0  0  0  0
   -1.5899   -1.8610    2.6123 C   0  0  0  0  0  0  0  0  0  0  0  0
   -2.3541   -2.9193    2.1281 C   0  0  0  0  0  0  0  0  0  0  0  0
   -3.1403   -2.7423    0.9907 C   0  0  0  0  0  0  0  0  0  0  0  0
   -3.1669   -1.5076    0.3366 C   0  0  0  0  0  0  0  0  0  0  0  0
   -1.7789    4.2332    1.1562 H   0  0  0  0  0  0  0  0  0  0  0  0
   -1.8467    3.6517   -0.5313 H   0  0  0  0  0  0  0  0  0  0  0  0
   -1.2559    1.8581   -1.6462 H   0  0  0  0  0  0  0  0  0  0  0  0
   -1.9764   -0.9100   -1.9208 H   0  0  0  0  0  0  0  0  0  0  0  0
   -0.9656    0.1057   -2.9873 H   0  0  0  0  0  0  0  0  0  0  0  0
    0.5900   -1.5472   -2.3781 H   0  0  0  0  0  0  0  0  0  0  0  0
   -0.0894   -1.7214   -0.7317 H   0  0  0  0  0  0  0  0  0  0  0  0
    1.4232    0.8239   -2.9262 H   0  0  0  0  0  0  0  0  0  0  0  0
    2.4407    1.5277   -1.6360 H   0  0  0  0  0  0  0  0  0  0  0  0
    3.8613    0.1449   -3.0077 H   0  0  0  0  0  0  0  0  0  0  0  0
    2.7659   -1.2501   -2.8987 H   0  0  0  0  0  0  0  0  0  0  0  0
    3.2731   -2.9055   -1.2548 H   0  0  0  0  0  0  0  0  0  0  0  0
    4.4997   -3.6284    0.7823 H   0  0  0  0  0  0  0  0  0  0  0  0
    6.1737   -0.3947    3.8018 H   0  0  0  0  0  0  0  0  0  0  0  0
    7.6600   -0.7375    2.8082 H   0  0  0  0  0  0  0  0  0  0  0  0
    5.5103    1.2302    2.2443 H   0  0  0  0  0  0  0  0  0  0  0  0
    6.9946    0.8741    1.2394 H   0  0  0  0  0  0  0  0  0  0  0  0
    4.6714    1.1501   -0.6213 H   0  0  0  0  0  0  0  0  0  0  0  0
    0.6441    2.0707   -0.4772 H   0  0  0  0  0  0  0  0  0  0  0  0
    0.2040    0.8677    0.7262 H   0  0  0  0  0  0  0  0  0  0  0  0
   -4.8662    1.0050    1.2081 H   0  0  0  0  0  0  0  0  0  0  0  0
   -7.0781    1.3618    0.2067 H   0  0  0  0  0  0  0  0  0  0  0  0
   -7.3056    1.7052   -2.2323 H   0  0  0  0  0  0  0  0  0  0  0  0
   -5.2948    1.7021   -3.6746 H   0  0  0  0  0  0  0  0  0  0  0  0
   -3.0881    1.3728   -2.7351 H   0  0  0  0  0  0  0  0  0  0  0  0
   -1.0030    0.1626    2.3876 H   0  0  0  0  0  0  0  0  0  0  0  0
   -0.9796   -1.9990    3.4966 H   0  0  0  0  0  0  0  0  0  0  0  0
   -2.3360   -3.8770    2.6323 H   0  0  0  0  0  0  0  0  0  0  0  0
   -3.7304   -3.5674    0.6122 H   0  0  0  0  0  0  0  0  0  0  0  0
   -3.7858   -1.4221   -0.5472 H   0  0  0  0  0  0  0  0  0  0  0  0
  1  2  1  0
  2  3  2  0
  2  4  1  0
  5  4  1  0
  5  6  1  0
  6  7  1  0
  7  8  1  0
  8  9  1  0
  9 10  1  0
 10 11  1  0
 11 12  2  0
 12 13  1  0
 13 14  2  0
 14 15  1  0
 15 16  1  0
 16 17  1  0
 17 18  1  0
 18 14  1  0
 18 19  2  0
 19 11  1  0
  8 20  1  0
 20  5  1  0
  4 21  1  0
 21 22  2  0
 22 23  1  0
 23 24  2  0
 24 25  1  0
 25 26  2  0
 26 21  1  0
  4 27  1  0
 27 28  2  0
 28 29  1  0
 29 30  2  0
 30 31  1  0
 31 32  2  0
 32 27  1  0
  1 33  1  0
  1 34  1  0
  5 35  1  6
  6 36  1  0
  6 37  1  0
  7 38  1  0
  7 39  1  0
  9 40  1  0
  9 41  1  0
 10 42  1  0
 10 43  1  0
 12 44  1  0
 13 45  1  0
 16 46  1  0
 16 47  1  0
 17 48  1  0
 17 49  1  0
 19 50  1  0
 20 51  1  0
 20 52  1  0
 22 53  1  0
 23 54  1  0
 24 55  1  0
 25 56  1  0
 26 57  1  0
 28 58  1  0
 29 59  1  0
 30 60  1  0
 31 61  1  0
 32 62  1  0
M  END
> <ID>
HT0592

> <Class>
0.0

> <Clusters>
103

> <Fold>
3

$$$$