
     RDKit          3D

 41 42  0  0  0  0  0  0  0  0999 V2000
   -2.9738   -0.2634    2.7045 C   0  0  0  0  0  0  0  0  0  0  0  0
   -2.0500    0.5613    1.7975 C   0  0  1  0  0  0  0  0  0  0  0  0
   -0.8559   -0.2848    1.3050 C   0  0  0  0  0  0  0  0  0  0  0  0
   -0.2433    0.3092    0.0361 C   0  0  2  0  0  0  0  0  0  0  0  0
   -1.2429    0.2624   -1.1367 C   0  0  0  0  0  0  0  0  0  0  0  0
   -2.7314    0.5532   -0.7394 C   0  0  0  0  0  0  0  0  0  0  0  0
   -3.5485   -0.7606   -0.7294 C   0  0  0  0  0  0  0  0  0  0  0  0
   -3.3657    1.4830   -1.7985 C   0  0  0  0  0  0  0  0  0  0  0  0
   -2.8276    1.2587    0.6456 C   0  0  0  0  0  0  0  0  0  0  0  0
    0.9261   -0.4353   -0.3127 O   0  0  0  0  0  0  0  0  0  0  0  0
    2.2139    0.1086   -0.3843 C   0  0  0  0  0  0  0  0  0  0  0  0
    2.4205    1.3251   -0.1193 O   0  0  0  0  0  0  0  0  0  0  0  0
    3.3652   -0.7851   -0.7421 C   0  0  2  0  0  0  0  0  0  0  0  0
    4.2596   -1.0917    0.4859 C   0  0  0  0  0  0  0  0  0  0  0  0
    5.6637   -0.5461    0.1767 C   0  0  0  0  0  0  0  0  0  0  0  0
    5.5265   -0.0016   -1.1879 C   0  0  0  0  0  0  0  0  0  0  0  0
    6.4683    0.5332   -1.8298 O   0  0  0  0  0  0  0  0  0  0  0  0
    4.2253   -0.1339   -1.7124 N   0  0  0  0  0  0  0  0  0  0  0  0
   -3.7584    0.3886    3.1442 H   0  0  0  0  0  0  0  0  0  0  0  0
   -2.3895   -0.7071    3.5389 H   0  0  0  0  0  0  0  0  0  0  0  0
   -3.4671   -1.0822    2.1438 H   0  0  0  0  0  0  0  0  0  0  0  0
   -1.6324    1.3712    2.4383 H   0  0  0  0  0  0  0  0  0  0  0  0
   -1.1578   -1.3360    1.1087 H   0  0  0  0  0  0  0  0  0  0  0  0
   -0.0817   -0.3166    2.1031 H   0  0  0  0  0  0  0  0  0  0  0  0
    0.0113    1.3739    0.2399 H   0  0  0  0  0  0  0  0  0  0  0  0
   -1.1700   -0.7305   -1.6346 H   0  0  0  0  0  0  0  0  0  0  0  0
   -0.8844    0.9962   -1.8927 H   0  0  0  0  0  0  0  0  0  0  0  0
   -3.6175   -1.1851   -1.7545 H   0  0  0  0  0  0  0  0  0  0  0  0
   -3.0780   -1.5325   -0.0914 H   0  0  0  0  0  0  0  0  0  0  0  0
   -4.5818   -0.5807   -0.3618 H   0  0  0  0  0  0  0  0  0  0  0  0
   -3.3148    1.0205   -2.8081 H   0  0  0  0  0  0  0  0  0  0  0  0
   -2.8318    2.4572   -1.8390 H   0  0  0  0  0  0  0  0  0  0  0  0
   -4.4328    1.6834   -1.5591 H   0  0  0  0  0  0  0  0  0  0  0  0
   -3.8941    1.4061    0.9280 H   0  0  0  0  0  0  0  0  0  0  0  0
   -2.4051    2.2834    0.5378 H   0  0  0  0  0  0  0  0  0  0  0  0
    2.9800   -1.7328   -1.1784 H   0  0  0  0  0  0  0  0  0  0  0  0
    3.8677   -0.6274    1.4186 H   0  0  0  0  0  0  0  0  0  0  0  0
    4.3113   -2.1908    0.6471 H   0  0  0  0  0  0  0  0  0  0  0  0
    5.9438    0.2634    0.8845 H   0  0  0  0  0  0  0  0  0  0  0  0
    6.4226   -1.3575    0.1939 H   0  0  0  0  0  0  0  0  0  0  0  0
    3.9308    0.1739   -2.6661 H   0  0  0  0  0  0  0  0  0  0  0  0
  2  1  1  0
  2  3  1  0
  3  4  1  0
  4  5  1  0
  5  6  1  0
  6  7  1  0
  6  8  1  0
  6  9  1  0
  9  2  1  0
  4 10  1  0
 10 11  1  0
 11 12  2  0
 13 11  1  0
 13 14  1  0
 14 15  1  0
 15 16  1  0
 16 17  2  0
 16 18  1  0
 18 13  1  0
  1 19  1  0
  1 20  1  0
  1 21  1  0
  2 22  1  1
  3 23  1  0
  3 24  1  0
  4 25  1  1
  5 26  1  0
  5 27  1  0
  7 28  1  0
  7 29  1  0
  7 30  1  0
  8 31  1  0
  8 32  1  0
  8 33  1  0
  9 34  1  0
  9 35  1  0
 13 36  1  6
 14 37  1  0
 14 38  1  0
 15 39  1  0
 15 40  1  0
 18 41  1  0
M  END
> <ID>
HT0555

> <Class>
0.0

> <Clusters>
262

> <Fold>
3

$$$$