
     RDKit          3D

 46 48  0  0  0  0  0  0  0  0999 V2000
    4.0591   -1.5913   -0.0641 C   0  0  0  0  0  0  0  0  0  0  0  0
    3.0932   -0.3997   -0.2116 C   0  0  0  0  0  0  0  0  0  0  0  0
    2.3563   -0.5307   -1.5574 C   0  0  0  0  0  0  0  0  0  0  0  0
    1.8146   -0.4824    1.1317 S   0  0  0  0  0  0  0  0  0  0  0  0
    1.8720    1.3207    1.4586 C   0  0  2  0  0  0  0  0  0  0  0  0
    0.8028    2.1632    0.9673 C   0  0  2  0  0  0  0  0  0  0  0  0
   -0.2595    1.4489    0.2545 N   0  0  0  0  0  0  0  0  0  0  0  0
   -1.2870    0.7298    0.9539 C   0  0  0  0  0  0  0  0  0  0  0  0
   -1.3467    0.8003    2.2130 O   0  0  0  0  0  0  0  0  0  0  0  0
   -2.3136   -0.0776    0.1732 C   0  0  0  0  0  0  0  0  0  0  0  0
   -1.5955   -0.8202   -0.8765 N   0  0  0  0  0  0  0  0  0  0  0  0
   -3.3134    0.9205   -0.4676 C   0  0  0  0  0  0  0  0  0  0  0  0
   -4.5195    0.2309   -1.1244 C   0  0  0  0  0  0  0  0  0  0  0  0
   -5.2356   -0.6970   -0.1393 C   0  0  0  0  0  0  0  0  0  0  0  0
   -4.2733   -1.7373    0.4401 C   0  0  0  0  0  0  0  0  0  0  0  0
   -3.0726   -1.0603    1.1171 C   0  0  0  0  0  0  0  0  0  0  0  0
    1.7962    2.7702    0.0267 C   0  0  0  0  0  0  0  0  0  0  0  0
    1.7551    3.6593   -0.8631 O   0  0  0  0  0  0  0  0  0  0  0  0
    2.8296    1.8329    0.5258 N   0  0  0  0  0  0  0  0  0  0  0  0
    3.7955    0.9948   -0.1358 C   0  0  1  0  0  0  0  0  0  0  0  0
    5.0781    1.0102    0.6603 C   0  0  0  0  0  0  0  0  0  0  0  0
    5.0568    0.8002    1.9026 O   0  0  0  0  0  0  0  0  0  0  0  0
    6.2974    1.2529    0.0339 O   0  0  0  0  0  0  0  0  0  0  0  0
    4.5014   -1.6210    0.9535 H   0  0  0  0  0  0  0  0  0  0  0  0
    4.8779   -1.5217   -0.8121 H   0  0  0  0  0  0  0  0  0  0  0  0
    3.5201   -2.5508   -0.2181 H   0  0  0  0  0  0  0  0  0  0  0  0
    3.0809   -0.5357   -2.4001 H   0  0  0  0  0  0  0  0  0  0  0  0
    1.6551    0.3168   -1.7061 H   0  0  0  0  0  0  0  0  0  0  0  0
    1.7692   -1.4737   -1.5928 H   0  0  0  0  0  0  0  0  0  0  0  0
    2.1709    1.5534    2.5044 H   0  0  0  0  0  0  0  0  0  0  0  0
    0.4148    2.8999    1.7041 H   0  0  0  0  0  0  0  0  0  0  0  0
   -0.3071    1.5085   -0.7881 H   0  0  0  0  0  0  0  0  0  0  0  0
   -2.2516   -1.3883   -1.4552 H   0  0  0  0  0  0  0  0  0  0  0  0
   -0.9257   -1.4903   -0.4317 H   0  0  0  0  0  0  0  0  0  0  0  0
   -3.6947    1.6171    0.3129 H   0  0  0  0  0  0  0  0  0  0  0  0
   -2.7950    1.5362   -1.2350 H   0  0  0  0  0  0  0  0  0  0  0  0
   -5.2343    1.0083   -1.4707 H   0  0  0  0  0  0  0  0  0  0  0  0
   -4.1995   -0.3418   -2.0206 H   0  0  0  0  0  0  0  0  0  0  0  0
   -6.0657   -1.2176   -0.6636 H   0  0  0  0  0  0  0  0  0  0  0  0
   -5.6765   -0.0956    0.6860 H   0  0  0  0  0  0  0  0  0  0  0  0
   -3.9342   -2.4306   -0.3582 H   0  0  0  0  0  0  0  0  0  0  0  0
   -4.8153   -2.3477    1.1944 H   0  0  0  0  0  0  0  0  0  0  0  0
   -2.3766   -1.8430    1.4904 H   0  0  0  0  0  0  0  0  0  0  0  0
   -3.4591   -0.5106    2.0042 H   0  0  0  0  0  0  0  0  0  0  0  0
    3.9998    1.3979   -1.1523 H   0  0  0  0  0  0  0  0  0  0  0  0
    6.3551    1.4149   -0.9642 H   0  0  0  0  0  0  0  0  0  0  0  0
  1  2  1  0
  2  3  1  0
  2  4  1  0
  5  4  1  0
  5  6  1  0
  6  7  1  0
  7  8  1  0
  8  9  2  0
  8 10  1  0
 10 11  1  0
 10 12  1  0
 12 13  1  0
 13 14  1  0
 14 15  1  0
 15 16  1  0
 16 10  1  0
  6 17  1  0
 17 18  2  0
 17 19  1  0
 19  5  1  0
 19 20  1  0
 20  2  1  0
 20 21  1  0
 21 22  2  0
 21 23  1  0
  1 24  1  0
  1 25  1  0
  1 26  1  0
  3 27  1  0
  3 28  1  0
  3 29  1  0
  5 30  1  1
  6 31  1  1
  7 32  1  0
 11 33  1  0
 11 34  1  0
 12 35  1  0
 12 36  1  0
 13 37  1  0
 13 38  1  0
 14 39  1  0
 14 40  1  0
 15 41  1  0
 15 42  1  0
 16 43  1  0
 16 44  1  0
 20 45  1  6
 23 46  1  0
M  END
> <ID>
HT0560

> <Class>
0.0

> <Clusters>
14

> <Fold>
3

$$$$