
     RDKit          3D

 59 61  0  0  0  0  0  0  0  0999 V2000
   -1.3017    4.6393    1.4023 C   0  0  0  0  0  0  0  0  0  0  0  0
   -0.9812    3.5736    0.3925 C   0  0  0  0  0  0  0  0  0  0  0  0
   -1.4135    2.2512    0.5901 C   0  0  0  0  0  0  0  0  0  0  0  0
   -1.1075    1.2583   -0.3530 C   0  0  0  0  0  0  0  0  0  0  0  0
   -0.3775    1.5895   -1.5035 C   0  0  0  0  0  0  0  0  0  0  0  0
    0.0563    2.9026   -1.7028 C   0  0  0  0  0  0  0  0  0  0  0  0
   -0.2408    3.8932   -0.7600 C   0  0  0  0  0  0  0  0  0  0  0  0
    0.1923    5.1627   -0.9699 F   0  0  0  0  0  0  0  0  0  0  0  0
   -1.5512   -0.1343   -0.1307 C   0  0  0  0  0  0  0  0  0  0  0  0
   -0.7416   -1.0410    0.4756 C   0  0  0  0  0  0  0  0  0  0  0  0
    0.6162   -0.6241    0.8956 C   0  0  0  0  0  0  0  0  0  0  0  0
    1.6310   -0.6199    0.0270 C   0  0  0  0  0  0  0  0  0  0  0  0
    2.9977   -0.1373    0.4161 C   0  0  2  0  0  0  0  0  0  0  0  0
    3.0053    1.3999    0.5404 C   0  0  0  0  0  0  0  0  0  0  0  0
    4.4359    1.9446    0.6366 C   0  0  1  0  0  0  0  0  0  0  0  0
    5.0609    1.5196    1.8267 O   0  0  0  0  0  0  0  0  0  0  0  0
    5.2585    1.5675   -0.6107 C   0  0  0  0  0  0  0  0  0  0  0  0
    5.0151    0.1498   -1.0501 C   0  0  0  0  0  0  0  0  0  0  0  0
    5.7709   -0.3619   -1.9189 O   0  0  0  0  0  0  0  0  0  0  0  0
    3.9431   -0.6033   -0.5525 O   0  0  0  0  0  0  0  0  0  0  0  0
   -1.1798   -2.4858    0.7726 C   0  0  0  0  0  0  0  0  0  0  0  0
   -0.1851   -3.4775    0.1170 C   0  0  0  0  0  0  0  0  0  0  0  0
   -1.1244   -2.7106    2.3028 C   0  0  0  0  0  0  0  0  0  0  0  0
   -2.6342   -2.8078    0.2830 C   0  0  0  0  0  0  0  0  0  0  0  0
   -3.1446   -1.9397   -0.8944 C   0  0  0  0  0  0  0  0  0  0  0  0
   -4.6460   -2.2289   -1.1152 C   0  0  0  0  0  0  0  0  0  0  0  0
   -2.3979   -2.2494   -2.2142 C   0  0  0  0  0  0  0  0  0  0  0  0
   -2.9718   -0.4604   -0.5080 C   0  0  0  0  0  0  0  0  0  0  0  0
   -1.8960    4.2343    2.2501 H   0  0  0  0  0  0  0  0  0  0  0  0
   -1.8900    5.4475    0.9182 H   0  0  0  0  0  0  0  0  0  0  0  0
   -0.3584    5.0662    1.8072 H   0  0  0  0  0  0  0  0  0  0  0  0
   -1.9807    1.9891    1.4769 H   0  0  0  0  0  0  0  0  0  0  0  0
   -0.1367    0.8292   -2.2377 H   0  0  0  0  0  0  0  0  0  0  0  0
    0.6282    3.1516   -2.5884 H   0  0  0  0  0  0  0  0  0  0  0  0
    0.7671   -0.3013    1.9194 H   0  0  0  0  0  0  0  0  0  0  0  0
    1.4690   -0.9724   -0.9863 H   0  0  0  0  0  0  0  0  0  0  0  0
    3.2628   -0.5933    1.3959 H   0  0  0  0  0  0  0  0  0  0  0  0
    2.5154    1.8502   -0.3540 H   0  0  0  0  0  0  0  0  0  0  0  0
    2.4273    1.7131    1.4401 H   0  0  0  0  0  0  0  0  0  0  0  0
    4.3732    3.0552    0.6761 H   0  0  0  0  0  0  0  0  0  0  0  0
    5.3294    0.5703    1.7161 H   0  0  0  0  0  0  0  0  0  0  0  0
    4.9867    2.2435   -1.4533 H   0  0  0  0  0  0  0  0  0  0  0  0
    6.3398    1.7091   -0.3940 H   0  0  0  0  0  0  0  0  0  0  0  0
    0.8401   -3.3436    0.5241 H   0  0  0  0  0  0  0  0  0  0  0  0
   -0.4837   -4.5289    0.3202 H   0  0  0  0  0  0  0  0  0  0  0  0
   -0.1296   -3.3398   -0.9796 H   0  0  0  0  0  0  0  0  0  0  0  0
   -1.7437   -1.9521    2.8294 H   0  0  0  0  0  0  0  0  0  0  0  0
   -1.5064   -3.7214    2.5638 H   0  0  0  0  0  0  0  0  0  0  0  0
   -0.0842   -2.6315    2.6869 H   0  0  0  0  0  0  0  0  0  0  0  0
   -3.3414   -2.6521    1.1309 H   0  0  0  0  0  0  0  0  0  0  0  0
   -2.7314   -3.8861    0.0231 H   0  0  0  0  0  0  0  0  0  0  0  0
   -5.2360   -2.0074   -0.1983 H   0  0  0  0  0  0  0  0  0  0  0  0
   -4.8019   -3.2981   -1.3798 H   0  0  0  0  0  0  0  0  0  0  0  0
   -5.0497   -1.6045   -1.9419 H   0  0  0  0  0  0  0  0  0  0  0  0
   -2.8826   -1.7277   -3.0682 H   0  0  0  0  0  0  0  0  0  0  0  0
   -2.4086   -3.3411   -2.4239 H   0  0  0  0  0  0  0  0  0  0  0  0
   -1.3476   -1.9000   -2.1866 H   0  0  0  0  0  0  0  0  0  0  0  0
   -3.6209   -0.2136    0.3623 H   0  0  0  0  0  0  0  0  0  0  0  0
   -3.2939    0.1854   -1.3566 H   0  0  0  0  0  0  0  0  0  0  0  0
  1  2  1  0
  2  3  2  0
  3  4  1  0
  4  5  2  0
  5  6  1  0
  6  7  2  0
  7  2  1  0
  7  8  1  0
  4  9  1  0
  9 10  2  0
 10 11  1  0
 11 12  2  0
 13 12  1  0
 13 14  1  0
 14 15  1  0
 15 16  1  0
 15 17  1  0
 17 18  1  0
 18 19  2  0
 18 20  1  0
 20 13  1  0
 10 21  1  0
 21 22  1  0
 21 23  1  0
 21 24  1  0
 24 25  1  0
 25 26  1  0
 25 27  1  0
 25 28  1  0
 28  9  1  0
  1 29  1  0
  1 30  1  0
  1 31  1  0
  3 32  1  0
  5 33  1  0
  6 34  1  0
 11 35  1  0
 12 36  1  0
 13 37  1  1
 14 38  1  0
 14 39  1  0
 15 40  1  1
 16 41  1  0
 17 42  1  0
 17 43  1  0
 22 44  1  0
 22 45  1  0
 22 46  1  0
 23 47  1  0
 23 48  1  0
 23 49  1  0
 24 50  1  0
 24 51  1  0
 26 52  1  0
 26 53  1  0
 26 54  1  0
 27 55  1  0
 27 56  1  0
 27 57  1  0
 28 58  1  0
 28 59  1  0
M  END
> <ID>
HT0586

> <Class>
0.0

> <Clusters>
36

> <Fold>
3

$$$$