
     RDKit          3D

 29 31  0  0  0  0  0  0  0  0999 V2000
   -1.0260    3.1809    0.3182 C   0  0  0  0  0  0  0  0  0  0  0  0
   -0.9869    2.3658   -0.9726 C   0  0  0  0  0  0  0  0  0  0  0  0
   -0.9951    0.9243   -0.6821 N   0  0  0  0  0  0  0  0  0  0  0  0
   -2.1632    0.2928   -0.8270 N   0  0  0  0  0  0  0  0  0  0  0  0
   -2.3346   -1.0329   -0.5883 C   0  0  0  0  0  0  0  0  0  0  0  0
   -3.6815   -1.6135   -0.7839 C   0  0  0  0  0  0  0  0  0  0  0  0
   -4.6294   -0.8738   -1.1626 O   0  0  0  0  0  0  0  0  0  0  0  0
   -3.9233   -2.9660   -0.5574 O   0  0  0  0  0  0  0  0  0  0  0  0
   -1.2359   -1.7956   -0.1663 C   0  0  0  0  0  0  0  0  0  0  0  0
   -1.3629   -3.0295    0.0675 O   0  0  0  0  0  0  0  0  0  0  0  0
    0.0100   -1.1708   -0.0083 C   0  0  0  0  0  0  0  0  0  0  0  0
    1.1445   -1.9091    0.4101 C   0  0  0  0  0  0  0  0  0  0  0  0
    2.3522   -1.2383    0.5406 C   0  0  0  0  0  0  0  0  0  0  0  0
    3.5776   -1.7451    0.9286 O   0  0  0  0  0  0  0  0  0  0  0  0
    4.5264   -0.6701    0.9108 C   0  0  0  0  0  0  0  0  0  0  0  0
    3.7781    0.4791    0.4917 O   0  0  0  0  0  0  0  0  0  0  0  0
    2.4709    0.0839    0.2809 C   0  0  0  0  0  0  0  0  0  0  0  0
    1.3931    0.8573   -0.1315 C   0  0  0  0  0  0  0  0  0  0  0  0
    0.1247    0.2299   -0.2797 C   0  0  0  0  0  0  0  0  0  0  0  0
   -0.1439    2.9657    0.9548 H   0  0  0  0  0  0  0  0  0  0  0  0
   -1.9474    2.9389    0.8893 H   0  0  0  0  0  0  0  0  0  0  0  0
   -1.0316    4.2640    0.0741 H   0  0  0  0  0  0  0  0  0  0  0  0
   -1.8867    2.6339   -1.5701 H   0  0  0  0  0  0  0  0  0  0  0  0
   -0.1131    2.6427   -1.5991 H   0  0  0  0  0  0  0  0  0  0  0  0
   -4.8470   -3.3594   -0.6926 H   0  0  0  0  0  0  0  0  0  0  0  0
    1.0942   -2.9691    0.6254 H   0  0  0  0  0  0  0  0  0  0  0  0
    5.3373   -0.8854    0.1838 H   0  0  0  0  0  0  0  0  0  0  0  0
    4.9414   -0.5072    1.9276 H   0  0  0  0  0  0  0  0  0  0  0  0
    1.5583    1.9066   -0.3237 H   0  0  0  0  0  0  0  0  0  0  0  0
  1  2  1  0
  2  3  1  0
  3  4  1  0
  4  5  2  0
  5  6  1  0
  6  7  2  0
  6  8  1  0
  5  9  1  0
  9 10  2  0
  9 11  1  0
 11 12  2  0
 12 13  1  0
 13 14  1  0
 14 15  1  0
 15 16  1  0
 16 17  1  0
 17 13  2  0
 17 18  1  0
 18 19  2  0
 19  3  1  0
 19 11  1  0
  1 20  1  0
  1 21  1  0
  1 22  1  0
  2 23  1  0
  2 24  1  0
  8 25  1  0
 12 26  1  0
 15 27  1  0
 15 28  1  0
 18 29  1  0
M  END
> <ID>
HT0495

> <Class>
0.0

> <Clusters>
261

> <Fold>
3

$$$$