
     RDKit          3D

 54 56  0  0  0  0  0  0  0  0999 V2000
   -2.1826    5.4114   -2.5074 C   0  0  0  0  0  0  0  0  0  0  0  0
   -2.7823    4.3604   -1.7571 O   0  0  0  0  0  0  0  0  0  0  0  0
   -2.1598    3.1554   -1.3628 C   0  0  0  0  0  0  0  0  0  0  0  0
   -0.8044    2.9568   -1.6447 C   0  0  0  0  0  0  0  0  0  0  0  0
    0.0356    1.9219   -1.2630 C   0  0  0  0  0  0  0  0  0  0  0  0
   -0.2537    0.6919   -0.6589 C   0  0  0  0  0  0  0  0  0  0  0  0
   -1.5437    0.1731   -0.3566 C   0  0  0  0  0  0  0  0  0  0  0  0
   -2.7323    0.9357   -0.3278 C   0  0  0  0  0  0  0  0  0  0  0  0
   -2.9982    2.2559   -0.7004 C   0  0  0  0  0  0  0  0  0  0  0  0
   -4.1687    2.6667   -0.4465 O   0  0  0  0  0  0  0  0  0  0  0  0
   -1.6136   -1.3197    0.0604 C   0  0  2  0  0  0  0  0  0  0  0  0
   -1.2983   -2.2756   -1.1218 C   0  0  0  0  0  0  0  0  0  0  0  0
   -0.0625   -1.9040   -1.9497 C   0  0  0  0  0  0  0  0  0  0  0  0
    1.0651   -1.4098   -1.0804 C   0  0  0  0  0  0  0  0  0  0  0  0
    2.2172   -2.1872   -0.9057 C   0  0  0  0  0  0  0  0  0  0  0  0
    3.2781   -1.7303   -0.1066 C   0  0  0  0  0  0  0  0  0  0  0  0
    4.4502   -2.4829    0.0707 O   0  0  0  0  0  0  0  0  0  0  0  0
    4.6813   -3.7675   -0.5043 C   0  0  0  0  0  0  0  0  0  0  0  0
    3.1866   -0.4850    0.5321 C   0  0  0  0  0  0  0  0  0  0  0  0
    4.3023   -0.0668    1.2800 O   0  0  0  0  0  0  0  0  0  0  0  0
    4.5974    1.2758    1.6487 C   0  0  0  0  0  0  0  0  0  0  0  0
    2.0002    0.2793    0.4117 C   0  0  0  0  0  0  0  0  0  0  0  0
    1.8505    1.4694    1.1267 O   0  0  0  0  0  0  0  0  0  0  0  0
    1.0065    1.5571    2.2668 C   0  0  0  0  0  0  0  0  0  0  0  0
    0.9524   -0.1671   -0.4275 C   0  0  0  0  0  0  0  0  0  0  0  0
   -2.9118   -1.7173    0.6269 N   0  0  0  0  0  0  0  0  0  0  0  0
   -3.1103   -2.0623    2.0099 C   0  0  0  0  0  0  0  0  0  0  0  0
   -2.1637   -1.9726    2.8413 O   0  0  0  0  0  0  0  0  0  0  0  0
   -4.4667   -2.4918    2.4807 C   0  0  0  0  0  0  0  0  0  0  0  0
   -1.8546    5.0314   -3.4990 H   0  0  0  0  0  0  0  0  0  0  0  0
   -2.9344    6.2115   -2.6649 H   0  0  0  0  0  0  0  0  0  0  0  0
   -1.3221    5.8424   -1.9503 H   0  0  0  0  0  0  0  0  0  0  0  0
   -0.2872    3.7470   -2.1717 H   0  0  0  0  0  0  0  0  0  0  0  0
    1.0811    2.0975   -1.5222 H   0  0  0  0  0  0  0  0  0  0  0  0
   -3.6238    0.4521    0.0597 H   0  0  0  0  0  0  0  0  0  0  0  0
   -0.8397   -1.4865    0.8430 H   0  0  0  0  0  0  0  0  0  0  0  0
   -1.1450   -3.3090   -0.7006 H   0  0  0  0  0  0  0  0  0  0  0  0
   -2.1690   -2.3216   -1.8106 H   0  0  0  0  0  0  0  0  0  0  0  0
    0.2455   -2.7843   -2.5478 H   0  0  0  0  0  0  0  0  0  0  0  0
   -0.3254   -1.1120   -2.6783 H   0  0  0  0  0  0  0  0  0  0  0  0
    2.2816   -3.1465   -1.4001 H   0  0  0  0  0  0  0  0  0  0  0  0
    4.6734   -3.6982   -1.6132 H   0  0  0  0  0  0  0  0  0  0  0  0
    5.6721   -4.1386   -0.1742 H   0  0  0  0  0  0  0  0  0  0  0  0
    3.9057   -4.4828   -0.1634 H   0  0  0  0  0  0  0  0  0  0  0  0
    4.5219    1.9392    0.7622 H   0  0  0  0  0  0  0  0  0  0  0  0
    5.6376    1.3185    2.0333 H   0  0  0  0  0  0  0  0  0  0  0  0
    3.9212    1.6193    2.4617 H   0  0  0  0  0  0  0  0  0  0  0  0
   -0.0250    1.2304    2.0227 H   0  0  0  0  0  0  0  0  0  0  0  0
    0.9690    2.6072    2.6165 H   0  0  0  0  0  0  0  0  0  0  0  0
    1.4128    0.9246    3.0780 H   0  0  0  0  0  0  0  0  0  0  0  0
   -3.7303   -1.8153   -0.0252 H   0  0  0  0  0  0  0  0  0  0  0  0
   -4.4033   -2.9893    3.4723 H   0  0  0  0  0  0  0  0  0  0  0  0
   -5.1262   -1.5989    2.5607 H   0  0  0  0  0  0  0  0  0  0  0  0
   -4.9062   -3.2094    1.7523 H   0  0  0  0  0  0  0  0  0  0  0  0
  1  2  1  0
  2  3  1  0
  3  4  2  0
  4  5  1  0
  5  6  2  0
  6  7  1  0
  7  8  2  0
  8  9  1  0
  9  3  1  0
  9 10  2  0
  7 11  1  0
 11 12  1  0
 12 13  1  0
 13 14  1  0
 14 15  2  0
 15 16  1  0
 16 17  1  0
 17 18  1  0
 16 19  2  0
 19 20  1  0
 20 21  1  0
 19 22  1  0
 22 23  1  0
 23 24  1  0
 22 25  2  0
 25  6  1  0
 25 14  1  0
 11 26  1  0
 26 27  1  0
 27 28  2  0
 27 29  1  0
  1 30  1  0
  1 31  1  0
  1 32  1  0
  4 33  1  0
  5 34  1  0
  8 35  1  0
 11 36  1  1
 12 37  1  0
 12 38  1  0
 13 39  1  0
 13 40  1  0
 15 41  1  0
 18 42  1  0
 18 43  1  0
 18 44  1  0
 21 45  1  0
 21 46  1  0
 21 47  1  0
 24 48  1  0
 24 49  1  0
 24 50  1  0
 26 51  1  0
 29 52  1  0
 29 53  1  0
 29 54  1  0
M  END
> <ID>
HT0543

> <Class>
0.0

> <Clusters>
271

> <Fold>
3

$$$$