
     RDKit          3D

 32 33  0  0  0  0  0  0  0  0999 V2000
   -2.9131    1.7352   -0.3799 C   0  0  0  0  0  0  0  0  0  0  0  0
   -2.9209    0.1924   -0.3649 C   0  0  0  0  0  0  0  0  0  0  0  0
   -4.2871   -0.2788    0.1550 C   0  0  0  0  0  0  0  0  0  0  0  0
   -1.9277   -0.2993    0.5485 O   0  0  0  0  0  0  0  0  0  0  0  0
   -0.5280   -0.1588    0.4769 C   0  0  0  0  0  0  0  0  0  0  0  0
    0.2203   -0.5748    1.5849 C   0  0  0  0  0  0  0  0  0  0  0  0
    1.6137   -0.4720    1.5862 C   0  0  0  0  0  0  0  0  0  0  0  0
    2.2874    0.0240    0.4620 C   0  0  0  0  0  0  0  0  0  0  0  0
    1.5435    0.4677   -0.6413 C   0  0  0  0  0  0  0  0  0  0  0  0
    0.1491    0.3656   -0.6427 C   0  0  0  0  0  0  0  0  0  0  0  0
    3.7855    0.1821    0.4946 C   0  0  0  0  0  0  0  0  0  0  0  0
    4.5352   -0.3399   -0.7316 C   0  0  0  0  0  0  0  0  0  0  0  0
    4.6087   -1.1030    0.5802 C   0  0  0  0  0  0  0  0  0  0  0  0
    3.8044   -2.7006    0.5259 Cl  0  0  0  0  0  0  0  0  0  0  0  0
    6.1789   -0.9775    1.4144 Cl  0  0  0  0  0  0  0  0  0  0  0  0
   -2.7188   -0.3952   -1.7443 C   0  0  0  0  0  0  0  0  0  0  0  0
   -2.5197   -1.6335   -1.8743 O   0  0  0  0  0  0  0  0  0  0  0  0
   -2.7658    0.4140   -2.8773 O   0  0  0  0  0  0  0  0  0  0  0  0
   -3.7554    2.1265   -0.9908 H   0  0  0  0  0  0  0  0  0  0  0  0
   -3.0194    2.1269    0.6545 H   0  0  0  0  0  0  0  0  0  0  0  0
   -1.9715    2.1395   -0.7998 H   0  0  0  0  0  0  0  0  0  0  0  0
   -4.4763    0.1290    1.1715 H   0  0  0  0  0  0  0  0  0  0  0  0
   -5.1053    0.0562   -0.5195 H   0  0  0  0  0  0  0  0  0  0  0  0
   -4.3161   -1.3880    0.2222 H   0  0  0  0  0  0  0  0  0  0  0  0
   -0.2840   -0.9738    2.4559 H   0  0  0  0  0  0  0  0  0  0  0  0
    2.1691   -0.7848    2.4619 H   0  0  0  0  0  0  0  0  0  0  0  0
    2.0431    0.8917   -1.5036 H   0  0  0  0  0  0  0  0  0  0  0  0
   -0.3770    0.6956   -1.5232 H   0  0  0  0  0  0  0  0  0  0  0  0
    4.2268    1.0848    0.9679 H   0  0  0  0  0  0  0  0  0  0  0  0
    3.9113   -0.8211   -1.5154 H   0  0  0  0  0  0  0  0  0  0  0  0
    5.4424    0.2476   -0.9872 H   0  0  0  0  0  0  0  0  0  0  0  0
   -2.6333    0.0221   -3.8019 H   0  0  0  0  0  0  0  0  0  0  0  0
  1  2  1  0
  2  3  1  0
  2  4  1  0
  4  5  1  0
  5  6  2  0
  6  7  1  0
  7  8  2  0
  8  9  1  0
  9 10  2  0
 10  5  1  0
  8 11  1  0
 11 12  1  0
 12 13  1  0
 13 11  1  0
 13 14  1  0
 13 15  1  0
  2 16  1  0
 16 17  2  0
 16 18  1  0
  1 19  1  0
  1 20  1  0
  1 21  1  0
  3 22  1  0
  3 23  1  0
  3 24  1  0
  6 25  1  0
  7 26  1  0
  9 27  1  0
 10 28  1  0
 11 29  1  0
 12 30  1  0
 12 31  1  0
 18 32  1  0
M  END
> <ID>
HT0496

> <Class>
0.0

> <Clusters>
56

> <Fold>
3

$$$$