
     RDKit          3D

 50 53  0  0  0  0  0  0  0  0999 V2000
    0.3285   -0.4550   -1.9764 O   0  0  0  0  0  0  0  0  0  0  0  0
    0.1714   -1.3023   -0.8649 C   0  0  0  0  0  0  0  0  0  0  0  0
    0.5205   -0.5672    0.4434 C   0  0  0  0  0  0  0  0  0  0  0  0
    1.8316   -0.0042    0.3777 O   0  0  0  0  0  0  0  0  0  0  0  0
    3.0427   -0.7202    0.4054 C   0  0  0  0  0  0  0  0  0  0  0  0
    3.0811   -2.0890    0.7428 C   0  0  0  0  0  0  0  0  0  0  0  0
    4.2910   -2.7831    0.7687 C   0  0  0  0  0  0  0  0  0  0  0  0
    5.4827   -2.1294    0.4645 C   0  0  0  0  0  0  0  0  0  0  0  0
    5.4758   -0.7731    0.1331 C   0  0  0  0  0  0  0  0  0  0  0  0
    6.6263   -0.1716   -0.1528 O   0  0  0  0  0  0  0  0  0  0  0  0
    6.7155    1.1137   -0.4836 C   0  0  0  0  0  0  0  0  0  0  0  0
    5.5543    1.8994   -0.5280 C   0  0  0  0  0  0  0  0  0  0  0  0
    4.3202    1.3160   -0.2370 C   0  0  0  0  0  0  0  0  0  0  0  0
    3.2833    2.0316   -0.2817 O   0  0  0  0  0  0  0  0  0  0  0  0
    4.2569   -0.0522    0.1022 C   0  0  0  0  0  0  0  0  0  0  0  0
    8.0529    1.6699   -0.7797 C   0  0  0  0  0  0  0  0  0  0  0  0
    9.0738    1.0085   -0.4545 O   0  0  0  0  0  0  0  0  0  0  0  0
    8.2293    2.8929   -1.4270 O   0  0  0  0  0  0  0  0  0  0  0  0
   -1.2451   -1.8967   -0.8308 C   0  0  0  0  0  0  0  0  0  0  0  0
   -2.2293   -0.8638   -0.7314 O   0  0  0  0  0  0  0  0  0  0  0  0
   -3.1063   -0.6430    0.3463 C   0  0  0  0  0  0  0  0  0  0  0  0
   -2.8427   -1.1586    1.6324 C   0  0  0  0  0  0  0  0  0  0  0  0
   -3.7222   -0.9220    2.6892 C   0  0  0  0  0  0  0  0  0  0  0  0
   -4.8733   -0.1641    2.4897 C   0  0  0  0  0  0  0  0  0  0  0  0
   -5.1523    0.3721    1.2313 C   0  0  0  0  0  0  0  0  0  0  0  0
   -6.2532    1.0991    1.0682 O   0  0  0  0  0  0  0  0  0  0  0  0
   -6.6004    1.6474   -0.0929 C   0  0  0  0  0  0  0  0  0  0  0  0
   -5.7743    1.4770   -1.2136 C   0  0  0  0  0  0  0  0  0  0  0  0
   -4.6067    0.7214   -1.0961 C   0  0  0  0  0  0  0  0  0  0  0  0
   -3.8718    0.5762   -2.1101 O   0  0  0  0  0  0  0  0  0  0  0  0
   -4.2705    0.1431    0.1467 C   0  0  0  0  0  0  0  0  0  0  0  0
   -7.8495    2.4358   -0.1502 C   0  0  0  0  0  0  0  0  0  0  0  0
   -8.3947    2.7937    0.9269 O   0  0  0  0  0  0  0  0  0  0  0  0
   -8.4626    2.7814   -1.3544 O   0  0  0  0  0  0  0  0  0  0  0  0
   -0.2523    0.3385   -1.8384 H   0  0  0  0  0  0  0  0  0  0  0  0
    0.8771   -2.1498   -0.9903 H   0  0  0  0  0  0  0  0  0  0  0  0
    0.4311   -1.2401    1.3219 H   0  0  0  0  0  0  0  0  0  0  0  0
   -0.1985    0.2650    0.5979 H   0  0  0  0  0  0  0  0  0  0  0  0
    2.1816   -2.6312    0.9952 H   0  0  0  0  0  0  0  0  0  0  0  0
    4.3046   -3.8338    1.0288 H   0  0  0  0  0  0  0  0  0  0  0  0
    6.4159   -2.6783    0.4879 H   0  0  0  0  0  0  0  0  0  0  0  0
    5.5939    2.9546   -0.7603 H   0  0  0  0  0  0  0  0  0  0  0  0
    7.4623    3.4322   -1.8053 H   0  0  0  0  0  0  0  0  0  0  0  0
   -1.4207   -2.4477   -1.7789 H   0  0  0  0  0  0  0  0  0  0  0  0
   -1.3301   -2.6475   -0.0199 H   0  0  0  0  0  0  0  0  0  0  0  0
   -1.9463   -1.7210    1.8433 H   0  0  0  0  0  0  0  0  0  0  0  0
   -3.5052   -1.3222    3.6714 H   0  0  0  0  0  0  0  0  0  0  0  0
   -5.5478    0.0140    3.3180 H   0  0  0  0  0  0  0  0  0  0  0  0
   -6.0076    1.9382   -2.1632 H   0  0  0  0  0  0  0  0  0  0  0  0
   -8.1412    2.4456   -2.2523 H   0  0  0  0  0  0  0  0  0  0  0  0
  1  2  1  0
  2  3  1  0
  3  4  1  0
  4  5  1  0
  5  6  2  0
  6  7  1  0
  7  8  2  0
  8  9  1  0
  9 10  1  0
 10 11  1  0
 11 12  2  0
 12 13  1  0
 13 14  2  0
 13 15  1  0
 15  5  1  0
 15  9  2  0
 11 16  1  0
 16 17  2  0
 16 18  1  0
  2 19  1  0
 19 20  1  0
 20 21  1  0
 21 22  2  0
 22 23  1  0
 23 24  2  0
 24 25  1  0
 25 26  1  0
 26 27  1  0
 27 28  2  0
 28 29  1  0
 29 30  2  0
 29 31  1  0
 31 21  1  0
 31 25  2  0
 27 32  1  0
 32 33  2  0
 32 34  1  0
  1 35  1  0
  2 36  1  0
  3 37  1  0
  3 38  1  0
  6 39  1  0
  7 40  1  0
  8 41  1  0
 12 42  1  0
 18 43  1  0
 19 44  1  0
 19 45  1  0
 22 46  1  0
 23 47  1  0
 24 48  1  0
 28 49  1  0
 34 50  1  0
M  END
> <ID>
HT0557

> <Class>
0.0

> <Clusters>
121

> <Fold>
3

$$$$