
     RDKit          3D

 52 55  0  0  0  0  0  0  0  0999 V2000
    5.3446   -2.6440    0.9473 C   0  0  0  0  0  0  0  0  0  0  0  0
    4.0397   -1.8664    0.7711 C   0  0  1  0  0  0  0  0  0  0  0  0
    3.5307   -1.4919    2.0538 O   0  0  0  0  0  0  0  0  0  0  0  0
    2.2870   -0.8798    2.2889 C   0  0  0  0  0  0  0  0  0  0  0  0
    1.3141   -0.7442    1.2824 C   0  0  0  0  0  0  0  0  0  0  0  0
    0.0897   -0.1088    1.5487 C   0  0  0  0  0  0  0  0  0  0  0  0
   -0.1356    0.3773    2.8473 C   0  0  0  0  0  0  0  0  0  0  0  0
    0.8109    0.2289    3.8094 N   0  0  0  0  0  0  0  0  0  0  0  0
    2.0017   -0.3812    3.5700 C   0  0  0  0  0  0  0  0  0  0  0  0
    2.9520   -0.4977    4.6319 N   0  0  0  0  0  0  0  0  0  0  0  0
   -0.9392    0.0412    0.4866 C   0  0  0  0  0  0  0  0  0  0  0  0
   -0.8144   -0.2477   -0.8659 C   0  0  0  0  0  0  0  0  0  0  0  0
   -1.9812    0.0056   -1.4885 N   0  0  0  0  0  0  0  0  0  0  0  0
   -2.8335    0.4579   -0.5808 N   0  0  0  0  0  0  0  0  0  0  0  0
   -2.2424    0.4861    0.6286 C   0  0  0  0  0  0  0  0  0  0  0  0
   -4.2362    0.7850   -0.8539 C   0  0  0  0  0  0  0  0  0  0  0  0
   -5.0354   -0.4954   -1.1263 C   0  0  0  0  0  0  0  0  0  0  0  0
   -6.5289   -0.1837   -1.3756 C   0  0  0  0  0  0  0  0  0  0  0  0
   -6.7761    1.1891   -1.8585 N   0  0  0  0  0  0  0  0  0  0  0  0
   -5.7154    1.6532   -2.7628 C   0  0  0  0  0  0  0  0  0  0  0  0
   -4.3579    1.7713   -2.0384 C   0  0  0  0  0  0  0  0  0  0  0  0
    4.2594   -0.6415   -0.1165 C   0  0  0  0  0  0  0  0  0  0  0  0
    4.9105    0.5197    0.3824 C   0  0  0  0  0  0  0  0  0  0  0  0
    5.5400    0.6357    2.0253 Cl  0  0  0  0  0  0  0  0  0  0  0  0
    5.0708    1.6428   -0.4359 C   0  0  0  0  0  0  0  0  0  0  0  0
    4.5987    1.6389   -1.7455 C   0  0  0  0  0  0  0  0  0  0  0  0
    3.9740    0.5047   -2.2601 C   0  0  0  0  0  0  0  0  0  0  0  0
    3.5357    0.5154   -3.5447 F   0  0  0  0  0  0  0  0  0  0  0  0
    3.8047   -0.6362   -1.4628 C   0  0  0  0  0  0  0  0  0  0  0  0
    3.0322   -2.0397   -2.2038 Cl  0  0  0  0  0  0  0  0  0  0  0  0
    5.7398   -2.9533   -0.0437 H   0  0  0  0  0  0  0  0  0  0  0  0
    6.1140   -2.0346    1.4653 H   0  0  0  0  0  0  0  0  0  0  0  0
    5.1579   -3.5587    1.5515 H   0  0  0  0  0  0  0  0  0  0  0  0
    3.3189   -2.5784    0.3204 H   0  0  0  0  0  0  0  0  0  0  0  0
    1.5020   -1.1460    0.3004 H   0  0  0  0  0  0  0  0  0  0  0  0
   -1.0568    0.8799    3.1032 H   0  0  0  0  0  0  0  0  0  0  0  0
    2.7405   -0.0895    5.5688 H   0  0  0  0  0  0  0  0  0  0  0  0
    3.8617   -0.9925    4.5004 H   0  0  0  0  0  0  0  0  0  0  0  0
    0.0646   -0.6180   -1.3757 H   0  0  0  0  0  0  0  0  0  0  0  0
   -2.7361    0.7866    1.5427 H   0  0  0  0  0  0  0  0  0  0  0  0
   -4.6752    1.2737    0.0469 H   0  0  0  0  0  0  0  0  0  0  0  0
   -4.9395   -1.1916   -0.2638 H   0  0  0  0  0  0  0  0  0  0  0  0
   -4.6138   -1.0061   -2.0204 H   0  0  0  0  0  0  0  0  0  0  0  0
   -6.9339   -0.9058   -2.1168 H   0  0  0  0  0  0  0  0  0  0  0  0
   -7.0951   -0.3407   -0.4308 H   0  0  0  0  0  0  0  0  0  0  0  0
   -6.8292    1.8399   -1.0393 H   0  0  0  0  0  0  0  0  0  0  0  0
   -5.6260    0.9474   -3.6192 H   0  0  0  0  0  0  0  0  0  0  0  0
   -5.9977    2.6423   -3.1842 H   0  0  0  0  0  0  0  0  0  0  0  0
   -4.2315    2.8077   -1.6539 H   0  0  0  0  0  0  0  0  0  0  0  0
   -3.5535    1.5975   -2.7860 H   0  0  0  0  0  0  0  0  0  0  0  0
    5.5609    2.5295   -0.0518 H   0  0  0  0  0  0  0  0  0  0  0  0
    4.7282    2.5159   -2.3674 H   0  0  0  0  0  0  0  0  0  0  0  0
  2  1  1  0
  2  3  1  0
  3  4  1  0
  4  5  2  0
  5  6  1  0
  6  7  2  0
  7  8  1  0
  8  9  2  0
  9  4  1  0
  9 10  1  0
  6 11  1  0
 11 12  1  0
 12 13  2  0
 13 14  1  0
 14 15  1  0
 15 11  2  0
 14 16  1  0
 16 17  1  0
 17 18  1  0
 18 19  1  0
 19 20  1  0
 20 21  1  0
 21 16  1  0
  2 22  1  0
 22 23  2  0
 23 24  1  0
 23 25  1  0
 25 26  2  0
 26 27  1  0
 27 28  1  0
 27 29  2  0
 29 22  1  0
 29 30  1  0
  1 31  1  0
  1 32  1  0
  1 33  1  0
  2 34  1  6
  5 35  1  0
  7 36  1  0
 10 37  1  0
 10 38  1  0
 12 39  1  0
 15 40  1  0
 16 41  1  0
 17 42  1  0
 17 43  1  0
 18 44  1  0
 18 45  1  0
 19 46  1  0
 20 47  1  0
 20 48  1  0
 21 49  1  0
 21 50  1  0
 25 51  1  0
 26 52  1  0
M  END
> <ID>
HT0556

> <Class>
0.0

> <Clusters>
118

> <Fold>
3

$$$$