
     RDKit          3D

 87 90  0  0  0  0  0  0  0  0999 V2000
  -12.5418    2.3677    2.4619 C   0  0  0  0  0  0  0  0  0  0  0  0
  -12.9204    2.4116    0.9816 C   0  0  0  0  0  0  0  0  0  0  0  0
  -12.1973    1.3398    0.1536 C   0  0  0  0  0  0  0  0  0  0  0  0
  -10.6964    1.6373   -0.0124 C   0  0  0  0  0  0  0  0  0  0  0  0
  -10.0121    0.6795   -1.0002 C   0  0  0  0  0  0  0  0  0  0  0  0
   -9.8976   -0.7425   -0.4514 C   0  0  0  0  0  0  0  0  0  0  0  0
   -9.1448   -1.5472   -1.3569 O   0  0  0  0  0  0  0  0  0  0  0  0
   -7.9106   -2.1282   -1.0460 C   0  0  0  0  0  0  0  0  0  0  0  0
   -7.2926   -1.7982    0.0057 O   0  0  0  0  0  0  0  0  0  0  0  0
   -7.3638   -3.1114   -1.9335 N   0  0  0  0  0  0  0  0  0  0  0  0
   -6.1464   -3.8275   -1.6761 C   0  0  0  0  0  0  0  0  0  0  0  0
   -6.0784   -5.0792   -2.0119 N   0  0  0  0  0  0  0  0  0  0  0  0
   -4.9565   -3.1405   -1.1175 C   0  0  0  0  0  0  0  0  0  0  0  0
   -4.6052   -1.8591   -1.5677 C   0  0  0  0  0  0  0  0  0  0  0  0
   -3.4517   -1.2306   -1.0874 C   0  0  0  0  0  0  0  0  0  0  0  0
   -2.6313   -1.8739   -0.1409 C   0  0  0  0  0  0  0  0  0  0  0  0
   -1.4121   -1.2752    0.3362 N   0  0  0  0  0  0  0  0  0  0  0  0
   -0.7601   -0.1567   -0.3489 C   0  0  0  0  0  0  0  0  0  0  0  0
    0.6524    0.0212    0.1391 C   0  0  0  0  0  0  0  0  0  0  0  0
    1.5507   -0.9999    0.1295 N   0  0  0  0  0  0  0  0  0  0  0  0
    2.6703   -0.4282    0.6080 C   0  0  0  0  0  0  0  0  0  0  0  0
    3.9065   -1.0365    0.8141 C   0  0  0  0  0  0  0  0  0  0  0  0
    4.9666   -0.2450    1.3129 C   0  0  0  0  0  0  0  0  0  0  0  0
    4.7357    1.1276    1.5973 C   0  0  0  0  0  0  0  0  0  0  0  0
    3.4698    1.7053    1.3907 C   0  0  0  0  0  0  0  0  0  0  0  0
    2.4560    0.8896    0.8848 C   0  0  0  0  0  0  0  0  0  0  0  0
    1.1792    1.1945    0.5864 N   0  0  0  0  0  0  0  0  0  0  0  0
    0.4905    2.4740    0.7574 C   0  0  0  0  0  0  0  0  0  0  0  0
    6.2903   -0.8681    1.5376 C   0  0  0  0  0  0  0  0  0  0  0  0
    6.3513   -2.0702    1.9118 O   0  0  0  0  0  0  0  0  0  0  0  0
    7.5125   -0.1631    1.2547 N   0  0  0  0  0  0  0  0  0  0  0  0
    8.0923    0.7246    2.2727 C   0  0  0  0  0  0  0  0  0  0  0  0
    8.3321    2.1359    1.7145 C   0  0  0  0  0  0  0  0  0  0  0  0
    9.6372    2.2577    0.9907 C   0  0  0  0  0  0  0  0  0  0  0  0
    9.6468    2.5143   -0.2445 O   0  0  0  0  0  0  0  0  0  0  0  0
   10.8346    2.1427    1.7067 O   0  0  0  0  0  0  0  0  0  0  0  0
   12.1141    2.4460    1.1526 C   0  0  0  0  0  0  0  0  0  0  0  0
   12.5927    1.3312    0.2332 C   0  0  0  0  0  0  0  0  0  0  0  0
    8.3349   -0.6612    0.1817 C   0  0  0  0  0  0  0  0  0  0  0  0
    7.7686   -0.9754   -1.0659 C   0  0  0  0  0  0  0  0  0  0  0  0
    8.5810   -1.4897   -2.0803 C   0  0  0  0  0  0  0  0  0  0  0  0
    9.9386   -1.7043   -1.8400 C   0  0  0  0  0  0  0  0  0  0  0  0
   10.4688   -1.3905   -0.5872 C   0  0  0  0  0  0  0  0  0  0  0  0
    9.6666   -0.8766    0.3841 N   0  0  0  0  0  0  0  0  0  0  0  0
   -3.0046   -3.1395    0.3309 C   0  0  0  0  0  0  0  0  0  0  0  0
   -4.1511   -3.7720   -0.1587 C   0  0  0  0  0  0  0  0  0  0  0  0
  -12.7341    1.3572    2.8820 H   0  0  0  0  0  0  0  0  0  0  0  0
  -11.4739    2.6342    2.6071 H   0  0  0  0  0  0  0  0  0  0  0  0
  -13.1589    3.1010    3.0201 H   0  0  0  0  0  0  0  0  0  0  0  0
  -14.0159    2.2410    0.8982 H   0  0  0  0  0  0  0  0  0  0  0  0
  -12.7054    3.4221    0.5723 H   0  0  0  0  0  0  0  0  0  0  0  0
  -12.3457    0.3474    0.6318 H   0  0  0  0  0  0  0  0  0  0  0  0
  -12.6705    1.3047   -0.8515 H   0  0  0  0  0  0  0  0  0  0  0  0
  -10.1784    1.5782    0.9693 H   0  0  0  0  0  0  0  0  0  0  0  0
  -10.5731    2.6735   -0.3987 H   0  0  0  0  0  0  0  0  0  0  0  0
   -8.9876    1.0618   -1.2023 H   0  0  0  0  0  0  0  0  0  0  0  0
  -10.5620    0.6676   -1.9663 H   0  0  0  0  0  0  0  0  0  0  0  0
   -9.4351   -0.7223    0.5583 H   0  0  0  0  0  0  0  0  0  0  0  0
  -10.9060   -1.1904   -0.3517 H   0  0  0  0  0  0  0  0  0  0  0  0
   -7.9719   -3.4459   -2.7141 H   0  0  0  0  0  0  0  0  0  0  0  0
   -5.2126   -5.6496   -1.8866 H   0  0  0  0  0  0  0  0  0  0  0  0
   -5.2116   -1.3543   -2.3093 H   0  0  0  0  0  0  0  0  0  0  0  0
   -3.2033   -0.2472   -1.4636 H   0  0  0  0  0  0  0  0  0  0  0  0
   -0.9318   -1.7193    1.1514 H   0  0  0  0  0  0  0  0  0  0  0  0
   -1.3571    0.7637   -0.1888 H   0  0  0  0  0  0  0  0  0  0  0  0
   -0.7158   -0.3679   -1.4399 H   0  0  0  0  0  0  0  0  0  0  0  0
    4.0446   -2.0855    0.5805 H   0  0  0  0  0  0  0  0  0  0  0  0
    5.5151    1.7452    2.0117 H   0  0  0  0  0  0  0  0  0  0  0  0
    3.3047    2.7467    1.6268 H   0  0  0  0  0  0  0  0  0  0  0  0
   -0.0707    2.7281   -0.1658 H   0  0  0  0  0  0  0  0  0  0  0  0
   -0.2142    2.4070    1.6122 H   0  0  0  0  0  0  0  0  0  0  0  0
    1.2082    3.2963    0.9454 H   0  0  0  0  0  0  0  0  0  0  0  0
    9.0301    0.2887    2.6772 H   0  0  0  0  0  0  0  0  0  0  0  0
    7.3981    0.8074    3.1362 H   0  0  0  0  0  0  0  0  0  0  0  0
    7.5017    2.4227    1.0349 H   0  0  0  0  0  0  0  0  0  0  0  0
    8.3403    2.8635    2.5538 H   0  0  0  0  0  0  0  0  0  0  0  0
   12.8414    2.5591    1.9840 H   0  0  0  0  0  0  0  0  0  0  0  0
   12.0755    3.4095    0.5985 H   0  0  0  0  0  0  0  0  0  0  0  0
   11.9138    1.2287   -0.6394 H   0  0  0  0  0  0  0  0  0  0  0  0
   12.6298    0.3720    0.7901 H   0  0  0  0  0  0  0  0  0  0  0  0
   13.6110    1.5673   -0.1407 H   0  0  0  0  0  0  0  0  0  0  0  0
    6.7137   -0.8184   -1.2510 H   0  0  0  0  0  0  0  0  0  0  0  0
    8.1567   -1.7274   -3.0471 H   0  0  0  0  0  0  0  0  0  0  0  0
   10.5730   -2.1151   -2.6149 H   0  0  0  0  0  0  0  0  0  0  0  0
   11.5178   -1.5585   -0.3844 H   0  0  0  0  0  0  0  0  0  0  0  0
   -2.3958   -3.6484    1.0663 H   0  0  0  0  0  0  0  0  0  0  0  0
   -4.4094   -4.7545    0.2140 H   0  0  0  0  0  0  0  0  0  0  0  0
  1  2  1  0
  2  3  1  0
  3  4  1  0
  4  5  1  0
  5  6  1  0
  6  7  1  0
  7  8  1  0
  8  9  2  0
  8 10  1  0
 10 11  1  0
 11 12  2  3
 11 13  1  0
 13 14  2  0
 14 15  1  0
 15 16  2  0
 16 17  1  0
 17 18  1  0
 18 19  1  0
 19 20  2  0
 20 21  1  0
 21 22  2  0
 22 23  1  0
 23 24  2  0
 24 25  1  0
 25 26  2  0
 26 21  1  0
 26 27  1  0
 27 19  1  0
 27 28  1  0
 23 29  1  0
 29 30  2  0
 29 31  1  0
 31 32  1  0
 32 33  1  0
 33 34  1  0
 34 35  2  0
 34 36  1  0
 36 37  1  0
 37 38  1  0
 31 39  1  0
 39 40  2  0
 40 41  1  0
 41 42  2  0
 42 43  1  0
 43 44  2  0
 44 39  1  0
 16 45  1  0
 45 46  2  0
 46 13  1  0
  1 47  1  0
  1 48  1  0
  1 49  1  0
  2 50  1  0
  2 51  1  0
  3 52  1  0
  3 53  1  0
  4 54  1  0
  4 55  1  0
  5 56  1  0
  5 57  1  0
  6 58  1  0
  6 59  1  0
 10 60  1  0
 12 61  1  0
 14 62  1  0
 15 63  1  0
 17 64  1  0
 18 65  1  0
 18 66  1  0
 22 67  1  0
 24 68  1  0
 25 69  1  0
 28 70  1  0
 28 71  1  0
 28 72  1  0
 32 73  1  0
 32 74  1  0
 33 75  1  0
 33 76  1  0
 37 77  1  0
 37 78  1  0
 38 79  1  0
 38 80  1  0
 38 81  1  0
 40 82  1  0
 41 83  1  0
 42 84  1  0
 43 85  1  0
 45 86  1  0
 46 87  1  0
M  END
> <ID>
HT0580

> <Class>
0.0

> <Clusters>
88

> <Fold>
3

$$$$