
     RDKit          3D

 43 45  0  0  0  0  0  0  0  0999 V2000
   -1.1657    3.8612    1.6476 C   0  0  0  0  0  0  0  0  0  0  0  0
   -1.5821    2.8848    0.7011 O   0  0  0  0  0  0  0  0  0  0  0  0
   -1.3194    1.5213    0.8623 C   0  0  0  0  0  0  0  0  0  0  0  0
   -0.6873    1.1078    1.8743 O   0  0  0  0  0  0  0  0  0  0  0  0
   -1.7381    0.5569   -0.2194 C   0  0  1  0  0  0  0  0  0  0  0  0
   -0.5603    0.3031   -1.2179 C   0  0  2  0  0  0  0  0  0  0  0  0
   -0.7565   -0.9956   -2.0480 C   0  0  0  0  0  0  0  0  0  0  0  0
   -1.4393   -2.1321   -1.2296 C   0  0  2  0  0  0  0  0  0  0  0  0
   -2.9544   -2.1538   -1.4917 C   0  0  0  0  0  0  0  0  0  0  0  0
   -3.5327   -1.2577   -0.4066 C   0  0  0  0  0  0  0  0  0  0  0  0
   -2.3015   -0.7788    0.3838 C   0  0  1  0  0  0  0  0  0  0  0  0
   -1.2800   -1.8183    0.1969 N   0  0  0  0  0  0  0  0  0  0  0  0
   -1.4906   -2.9903    1.0653 C   0  0  0  0  0  0  0  0  0  0  0  0
    0.6702    0.1829   -0.4936 O   0  0  0  0  0  0  0  0  0  0  0  0
    1.7668    1.0423   -0.6406 C   0  0  0  0  0  0  0  0  0  0  0  0
    1.7401    1.9721   -1.4933 O   0  0  0  0  0  0  0  0  0  0  0  0
    2.9570    0.8566    0.2171 C   0  0  0  0  0  0  0  0  0  0  0  0
    4.0802    1.6942    0.0814 C   0  0  0  0  0  0  0  0  0  0  0  0
    5.1997    1.5134    0.8996 C   0  0  0  0  0  0  0  0  0  0  0  0
    5.2103    0.4988    1.8594 C   0  0  0  0  0  0  0  0  0  0  0  0
    4.1009   -0.3376    2.0033 C   0  0  0  0  0  0  0  0  0  0  0  0
    2.9787   -0.1618    1.1879 C   0  0  0  0  0  0  0  0  0  0  0  0
   -0.0589    3.8508    1.7416 H   0  0  0  0  0  0  0  0  0  0  0  0
   -1.6283    3.6544    2.6358 H   0  0  0  0  0  0  0  0  0  0  0  0
   -1.4879    4.8648    1.3020 H   0  0  0  0  0  0  0  0  0  0  0  0
   -2.5393    1.0742   -0.7913 H   0  0  0  0  0  0  0  0  0  0  0  0
   -0.5120    1.1613   -1.9246 H   0  0  0  0  0  0  0  0  0  0  0  0
    0.2393   -1.3510   -2.3930 H   0  0  0  0  0  0  0  0  0  0  0  0
   -1.3267   -0.7586   -2.9720 H   0  0  0  0  0  0  0  0  0  0  0  0
   -0.9799   -3.1116   -1.4945 H   0  0  0  0  0  0  0  0  0  0  0  0
   -3.3415   -3.1898   -1.3743 H   0  0  0  0  0  0  0  0  0  0  0  0
   -3.2348   -1.7978   -2.5063 H   0  0  0  0  0  0  0  0  0  0  0  0
   -4.1982   -1.8512    0.2582 H   0  0  0  0  0  0  0  0  0  0  0  0
   -4.1376   -0.4307   -0.8363 H   0  0  0  0  0  0  0  0  0  0  0  0
   -2.5731   -0.6534    1.4575 H   0  0  0  0  0  0  0  0  0  0  0  0
   -0.7068   -3.7506    0.8627 H   0  0  0  0  0  0  0  0  0  0  0  0
   -2.4875   -3.4562    0.9136 H   0  0  0  0  0  0  0  0  0  0  0  0
   -1.3946   -2.6889    2.1299 H   0  0  0  0  0  0  0  0  0  0  0  0
    4.0943    2.4876   -0.6554 H   0  0  0  0  0  0  0  0  0  0  0  0
    6.0599    2.1612    0.7894 H   0  0  0  0  0  0  0  0  0  0  0  0
    6.0778    0.3609    2.4918 H   0  0  0  0  0  0  0  0  0  0  0  0
    4.1100   -1.1230    2.7480 H   0  0  0  0  0  0  0  0  0  0  0  0
    2.1299   -0.8214    1.3193 H   0  0  0  0  0  0  0  0  0  0  0  0
  1  2  1  0
  2  3  1  0
  3  4  2  0
  5  3  1  0
  5  6  1  0
  6  7  1  0
  8  7  1  0
  8  9  1  0
  9 10  1  0
 11 10  1  0
 11  5  1  0
 11 12  1  0
 12  8  1  0
 12 13  1  0
  6 14  1  0
 14 15  1  0
 15 16  2  0
 15 17  1  0
 17 18  2  0
 18 19  1  0
 19 20  2  0
 20 21  1  0
 21 22  2  0
 22 17  1  0
  1 23  1  0
  1 24  1  0
  1 25  1  0
  5 26  1  6
  6 27  1  6
  7 28  1  0
  7 29  1  0
  8 30  1  1
  9 31  1  0
  9 32  1  0
 10 33  1  0
 10 34  1  0
 11 35  1  1
 13 36  1  0
 13 37  1  0
 13 38  1  0
 18 39  1  0
 19 40  1  0
 20 41  1  0
 21 42  1  0
 22 43  1  0
M  END
> <ID>
HT0540

> <Class>
0.0

> <Clusters>
24

> <Fold>
3

$$$$