
     RDKit          3D

 57 58  0  0  0  0  0  0  0  0999 V2000
    5.2345    0.8185    1.8421 C   0  0  0  0  0  0  0  0  0  0  0  0
    4.7992   -0.5878    1.4019 C   0  0  0  0  0  0  0  0  0  0  0  0
    4.2939   -0.6501    0.0111 N   0  0  0  0  0  0  0  0  0  0  0  0
    5.2569   -0.1270   -0.9806 C   0  0  0  0  0  0  0  0  0  0  0  0
    5.0475   -0.7973   -2.3362 C   0  0  0  0  0  0  0  0  0  0  0  0
    2.9304   -0.0883   -0.1340 C   0  0  0  0  0  0  0  0  0  0  0  0
    1.9279   -1.2324   -0.2834 C   0  0  0  0  0  0  0  0  0  0  0  0
    0.6093   -0.7254   -0.4758 O   0  0  0  0  0  0  0  0  0  0  0  0
   -0.1513   -0.1403    0.5458 C   0  0  0  0  0  0  0  0  0  0  0  0
    0.2803   -0.1449    1.7329 O   0  0  0  0  0  0  0  0  0  0  0  0
   -1.5099    0.4666    0.1994 C   0  0  0  0  0  0  0  0  0  0  0  0
   -2.1232    1.1846    1.4546 C   0  0  0  0  0  0  0  0  0  0  0  0
   -1.5218    2.5807    1.6634 C   0  0  0  0  0  0  0  0  0  0  0  0
   -1.8334    3.5207    0.4821 C   0  0  0  0  0  0  0  0  0  0  0  0
   -2.1098    2.7736   -0.8351 C   0  0  0  0  0  0  0  0  0  0  0  0
   -1.2503    1.5055   -0.9526 C   0  0  0  0  0  0  0  0  0  0  0  0
   -2.4374   -0.7149   -0.2950 C   0  0  0  0  0  0  0  0  0  0  0  0
   -2.7089   -1.7618    0.8185 C   0  0  0  0  0  0  0  0  0  0  0  0
   -3.5035   -2.9572    0.2794 C   0  0  0  0  0  0  0  0  0  0  0  0
   -4.8266   -2.4993   -0.3408 C   0  0  0  0  0  0  0  0  0  0  0  0
   -4.5817   -1.4693   -1.4473 C   0  0  0  0  0  0  0  0  0  0  0  0
   -3.7862   -0.2664   -0.9209 C   0  0  0  0  0  0  0  0  0  0  0  0
    5.4848    0.8016    2.9235 H   0  0  0  0  0  0  0  0  0  0  0  0
    6.1403    1.1415    1.2889 H   0  0  0  0  0  0  0  0  0  0  0  0
    4.4287    1.5633    1.6837 H   0  0  0  0  0  0  0  0  0  0  0  0
    4.0185   -0.9610    2.1008 H   0  0  0  0  0  0  0  0  0  0  0  0
    5.6645   -1.2777    1.5060 H   0  0  0  0  0  0  0  0  0  0  0  0
    5.1644    0.9774   -1.0841 H   0  0  0  0  0  0  0  0  0  0  0  0
    6.3003   -0.3523   -0.6651 H   0  0  0  0  0  0  0  0  0  0  0  0
    5.1478   -1.8983   -2.2339 H   0  0  0  0  0  0  0  0  0  0  0  0
    5.8133   -0.4337   -3.0532 H   0  0  0  0  0  0  0  0  0  0  0  0
    4.0435   -0.5607   -2.7450 H   0  0  0  0  0  0  0  0  0  0  0  0
    2.6410    0.5337    0.7397 H   0  0  0  0  0  0  0  0  0  0  0  0
    2.8432    0.5699   -1.0272 H   0  0  0  0  0  0  0  0  0  0  0  0
    1.9566   -1.8982    0.6069 H   0  0  0  0  0  0  0  0  0  0  0  0
    2.2035   -1.8367   -1.1737 H   0  0  0  0  0  0  0  0  0  0  0  0
   -3.2192    1.3103    1.3493 H   0  0  0  0  0  0  0  0  0  0  0  0
   -1.9771    0.5831    2.3776 H   0  0  0  0  0  0  0  0  0  0  0  0
   -1.9239    3.0207    2.6017 H   0  0  0  0  0  0  0  0  0  0  0  0
   -0.4203    2.4916    1.7853 H   0  0  0  0  0  0  0  0  0  0  0  0
   -2.7214    4.1428    0.7284 H   0  0  0  0  0  0  0  0  0  0  0  0
   -0.9749    4.2128    0.3398 H   0  0  0  0  0  0  0  0  0  0  0  0
   -1.8951    3.4480   -1.6922 H   0  0  0  0  0  0  0  0  0  0  0  0
   -3.1865    2.5098   -0.8860 H   0  0  0  0  0  0  0  0  0  0  0  0
   -1.4001    1.0433   -1.9519 H   0  0  0  0  0  0  0  0  0  0  0  0
   -0.1896    1.8479   -0.9449 H   0  0  0  0  0  0  0  0  0  0  0  0
   -1.8845   -1.2426   -1.1065 H   0  0  0  0  0  0  0  0  0  0  0  0
   -3.2829   -1.3008    1.6512 H   0  0  0  0  0  0  0  0  0  0  0  0
   -1.7525   -2.1442    1.2337 H   0  0  0  0  0  0  0  0  0  0  0  0
   -2.8986   -3.4975   -0.4818 H   0  0  0  0  0  0  0  0  0  0  0  0
   -3.7148   -3.6626    1.1117 H   0  0  0  0  0  0  0  0  0  0  0  0
   -5.4766   -2.0569    0.4462 H   0  0  0  0  0  0  0  0  0  0  0  0
   -5.3553   -3.3785   -0.7680 H   0  0  0  0  0  0  0  0  0  0  0  0
   -4.0282   -1.9465   -2.2861 H   0  0  0  0  0  0  0  0  0  0  0  0
   -5.5596   -1.1180   -1.8417 H   0  0  0  0  0  0  0  0  0  0  0  0
   -4.4129    0.2715   -0.1803 H   0  0  0  0  0  0  0  0  0  0  0  0
   -3.6123    0.4094   -1.7822 H   0  0  0  0  0  0  0  0  0  0  0  0
  1  2  1  0
  2  3  1  0
  3  4  1  0
  4  5  1  0
  3  6  1  0
  6  7  1  0
  7  8  1  0
  8  9  1  0
  9 10  2  0
  9 11  1  0
 11 12  1  0
 12 13  1  0
 13 14  1  0
 14 15  1  0
 15 16  1  0
 16 11  1  0
 11 17  1  0
 17 18  1  0
 18 19  1  0
 19 20  1  0
 20 21  1  0
 21 22  1  0
 22 17  1  0
  1 23  1  0
  1 24  1  0
  1 25  1  0
  2 26  1  0
  2 27  1  0
  4 28  1  0
  4 29  1  0
  5 30  1  0
  5 31  1  0
  5 32  1  0
  6 33  1  0
  6 34  1  0
  7 35  1  0
  7 36  1  0
 12 37  1  0
 12 38  1  0
 13 39  1  0
 13 40  1  0
 14 41  1  0
 14 42  1  0
 15 43  1  0
 15 44  1  0
 16 45  1  0
 16 46  1  0
 17 47  1  0
 18 48  1  0
 18 49  1  0
 19 50  1  0
 19 51  1  0
 20 52  1  0
 20 53  1  0
 21 54  1  0
 21 55  1  0
 22 56  1  0
 22 57  1  0
M  END
> <ID>
HT0651

> <Class>
0.0

> <Clusters>
263

> <Fold>
3

$$$$