
     RDKit          3D

 45 47  0  0  0  0  0  0  0  0999 V2000
    3.3931    0.1305    2.1886 C   0  0  0  0  0  0  0  0  0  0  0  0
    3.1200   -0.5032    0.8741 N   0  0  0  0  0  0  0  0  0  0  0  0
    4.3488   -1.2235    0.4564 C   0  0  0  0  0  0  0  0  0  0  0  0
    2.8416    0.5655   -0.1399 C   0  0  0  0  0  0  0  0  0  0  0  0
    1.3832    1.0571   -0.1349 C   0  0  0  0  0  0  0  0  0  0  0  0
    0.4097   -0.0961   -0.2487 C   0  0  0  0  0  0  0  0  0  0  0  0
   -0.9228    0.1232   -0.3966 C   0  0  0  0  0  0  0  0  0  0  0  0
   -1.9102   -0.9754   -0.3891 C   0  0  0  0  0  0  0  0  0  0  0  0
   -2.2240   -1.6387    0.8085 C   0  0  0  0  0  0  0  0  0  0  0  0
   -3.1818   -2.6572    0.8163 C   0  0  0  0  0  0  0  0  0  0  0  0
   -3.8384   -3.0100   -0.3665 C   0  0  0  0  0  0  0  0  0  0  0  0
   -3.5408   -2.3421   -1.5581 C   0  0  0  0  0  0  0  0  0  0  0  0
   -2.5830   -1.3232   -1.5701 C   0  0  0  0  0  0  0  0  0  0  0  0
   -1.4683    1.4893   -0.5398 C   0  0  0  0  0  0  0  0  0  0  0  0
   -2.1648    2.0814    0.5248 C   0  0  0  0  0  0  0  0  0  0  0  0
   -2.7012    3.3651    0.3851 C   0  0  0  0  0  0  0  0  0  0  0  0
   -2.5529    4.0590   -0.8196 C   0  0  0  0  0  0  0  0  0  0  0  0
   -1.8711    3.4685   -1.8877 C   0  0  0  0  0  0  0  0  0  0  0  0
   -1.3334    2.1850   -1.7517 C   0  0  0  0  0  0  0  0  0  0  0  0
    1.0060   -1.4822   -0.1451 C   0  0  0  0  0  0  0  0  0  0  0  0
    1.9960   -1.4929    1.0262 C   0  0  0  0  0  0  0  0  0  0  0  0
    3.6069   -0.6387    2.9648 H   0  0  0  0  0  0  0  0  0  0  0  0
    4.2716    0.8126    2.1366 H   0  0  0  0  0  0  0  0  0  0  0  0
    2.5203    0.7260    2.5351 H   0  0  0  0  0  0  0  0  0  0  0  0
    5.1943   -0.5167    0.2951 H   0  0  0  0  0  0  0  0  0  0  0  0
    4.6667   -1.9619    1.2270 H   0  0  0  0  0  0  0  0  0  0  0  0
    4.1791   -1.7787   -0.4935 H   0  0  0  0  0  0  0  0  0  0  0  0
    3.5154    1.4414    0.0017 H   0  0  0  0  0  0  0  0  0  0  0  0
    3.0523    0.1932   -1.1700 H   0  0  0  0  0  0  0  0  0  0  0  0
    1.2596    1.7461   -0.9968 H   0  0  0  0  0  0  0  0  0  0  0  0
    1.1757    1.6256    0.7963 H   0  0  0  0  0  0  0  0  0  0  0  0
   -1.7255   -1.3670    1.7310 H   0  0  0  0  0  0  0  0  0  0  0  0
   -3.4173   -3.1708    1.7394 H   0  0  0  0  0  0  0  0  0  0  0  0
   -4.5805   -3.7979   -0.3588 H   0  0  0  0  0  0  0  0  0  0  0  0
   -4.0539   -2.6124   -2.4719 H   0  0  0  0  0  0  0  0  0  0  0  0
   -2.3627   -0.8089   -2.4976 H   0  0  0  0  0  0  0  0  0  0  0  0
   -2.2870    1.5510    1.4613 H   0  0  0  0  0  0  0  0  0  0  0  0
   -3.2332    3.8214    1.2098 H   0  0  0  0  0  0  0  0  0  0  0  0
   -2.9693    5.0523   -0.9265 H   0  0  0  0  0  0  0  0  0  0  0  0
   -1.7620    4.0042   -2.8218 H   0  0  0  0  0  0  0  0  0  0  0  0
   -0.8147    1.7321   -2.5878 H   0  0  0  0  0  0  0  0  0  0  0  0
    0.2517   -2.2759    0.0246 H   0  0  0  0  0  0  0  0  0  0  0  0
    1.5339   -1.7306   -1.0905 H   0  0  0  0  0  0  0  0  0  0  0  0
    1.3991   -1.2930    1.9475 H   0  0  0  0  0  0  0  0  0  0  0  0
    2.3738   -2.5334    1.1540 H   0  0  0  0  0  0  0  0  0  0  0  0
  1  2  1  0
  2  3  1  0
  2  4  1  0
  4  5  1  0
  5  6  1  0
  6  7  2  3
  7  8  1  0
  8  9  2  0
  9 10  1  0
 10 11  2  0
 11 12  1  0
 12 13  2  0
 13  8  1  0
  7 14  1  0
 14 15  2  0
 15 16  1  0
 16 17  2  0
 17 18  1  0
 18 19  2  0
 19 14  1  0
  6 20  1  0
 20 21  1  0
 21  2  1  0
  1 22  1  0
  1 23  1  0
  1 24  1  0
  3 25  1  0
  3 26  1  0
  3 27  1  0
  4 28  1  0
  4 29  1  0
  5 30  1  0
  5 31  1  0
  9 32  1  0
 10 33  1  0
 11 34  1  0
 12 35  1  0
 13 36  1  0
 15 37  1  0
 16 38  1  0
 17 39  1  0
 18 40  1  0
 19 41  1  0
 20 42  1  0
 20 43  1  0
 21 44  1  0
 21 45  1  0
M  CHG  1   2   1
M  END
> <ID>
HT0685

> <Class>
0.0

> <Clusters>
30

> <Fold>
3

$$$$