
     RDKit          3D

 62 64  0  0  0  0  0  0  0  0999 V2000
    8.5007   -0.2820   -0.0992 C   0  0  0  0  0  0  0  0  0  0  0  0
    7.7187   -0.1879    1.2062 C   0  0  0  0  0  0  0  0  0  0  0  0
    6.5994    0.7405    1.0699 N   0  0  0  0  0  0  0  0  0  0  0  0
    6.4829    1.8971    1.7079 N   0  0  0  0  0  0  0  0  0  0  0  0
    5.3274    2.4637    1.3742 N   0  0  0  0  0  0  0  0  0  0  0  0
    4.6939    1.6790    0.5141 N   0  0  0  0  0  0  0  0  0  0  0  0
    3.3598    1.9222   -0.0258 C   0  0  0  0  0  0  0  0  0  0  0  0
    2.3067    1.2133    0.8349 C   0  0  0  0  0  0  0  0  0  0  0  0
    0.9346    1.5256    0.3760 N   0  0  0  0  0  0  0  0  0  0  0  0
    0.6641    0.9608   -0.9733 C   0  0  0  0  0  0  0  0  0  0  0  0
   -0.8237    0.6415   -1.1870 C   0  0  0  0  0  0  0  0  0  0  0  0
   -1.3361   -0.4614   -0.1873 C   0  0  0  0  0  0  0  0  0  0  0  0
   -0.9798   -1.8529   -0.7909 C   0  0  0  0  0  0  0  0  0  0  0  0
   -1.7947   -2.1098   -1.9184 O   0  0  0  0  0  0  0  0  0  0  0  0
   -1.5326   -3.4060   -2.4057 C   0  0  0  0  0  0  0  0  0  0  0  0
   -0.6041   -0.2847    1.1870 C   0  0  0  0  0  0  0  0  0  0  0  0
   -0.0770    1.1435    1.3941 C   0  0  0  0  0  0  0  0  0  0  0  0
   -2.8196   -0.3929    0.0192 N   0  0  0  0  0  0  0  0  0  0  0  0
   -3.5429   -1.4519    0.7010 C   0  0  0  0  0  0  0  0  0  0  0  0
   -2.9567   -2.1747    1.5531 O   0  0  0  0  0  0  0  0  0  0  0  0
   -5.0157   -1.6785    0.4537 C   0  0  0  0  0  0  0  0  0  0  0  0
   -5.3817   -3.1612    0.4978 C   0  0  0  0  0  0  0  0  0  0  0  0
   -3.5895    0.7399   -0.4227 C   0  0  0  0  0  0  0  0  0  0  0  0
   -3.9674    0.8596   -1.7691 C   0  0  0  0  0  0  0  0  0  0  0  0
   -4.7152    1.9625   -2.1914 C   0  0  0  0  0  0  0  0  0  0  0  0
   -5.0915    2.9464   -1.2720 C   0  0  0  0  0  0  0  0  0  0  0  0
   -4.7227    2.8272    0.0715 C   0  0  0  0  0  0  0  0  0  0  0  0
   -3.9754    1.7249    0.4970 C   0  0  0  0  0  0  0  0  0  0  0  0
    5.4804    0.6056    0.3409 C   0  0  0  0  0  0  0  0  0  0  0  0
    5.1993   -0.3895   -0.3797 O   0  0  0  0  0  0  0  0  0  0  0  0
    7.8573   -0.6858   -0.9085 H   0  0  0  0  0  0  0  0  0  0  0  0
    9.3691   -0.9603    0.0346 H   0  0  0  0  0  0  0  0  0  0  0  0
    8.8713    0.7223   -0.3940 H   0  0  0  0  0  0  0  0  0  0  0  0
    8.4015    0.1662    2.0092 H   0  0  0  0  0  0  0  0  0  0  0  0
    7.3375   -1.1919    1.4915 H   0  0  0  0  0  0  0  0  0  0  0  0
    3.1581    3.0160   -0.0359 H   0  0  0  0  0  0  0  0  0  0  0  0
    3.3203    1.5543   -1.0737 H   0  0  0  0  0  0  0  0  0  0  0  0
    2.4507    1.5719    1.8784 H   0  0  0  0  0  0  0  0  0  0  0  0
    2.4841    0.1144    0.8291 H   0  0  0  0  0  0  0  0  0  0  0  0
    0.9663    1.7111   -1.7351 H   0  0  0  0  0  0  0  0  0  0  0  0
    1.2659    0.0458   -1.1634 H   0  0  0  0  0  0  0  0  0  0  0  0
   -1.3541    1.6062   -1.0492 H   0  0  0  0  0  0  0  0  0  0  0  0
   -0.9903    0.3347   -2.2425 H   0  0  0  0  0  0  0  0  0  0  0  0
   -1.1201   -2.6419   -0.0185 H   0  0  0  0  0  0  0  0  0  0  0  0
    0.0941   -1.8801   -1.0806 H   0  0  0  0  0  0  0  0  0  0  0  0
   -2.1662   -3.5811   -3.2986 H   0  0  0  0  0  0  0  0  0  0  0  0
   -0.4704   -3.5124   -2.7193 H   0  0  0  0  0  0  0  0  0  0  0  0
   -1.7961   -4.1799   -1.6511 H   0  0  0  0  0  0  0  0  0  0  0  0
   -1.2737   -0.5161    2.0390 H   0  0  0  0  0  0  0  0  0  0  0  0
    0.2609   -0.9794    1.2685 H   0  0  0  0  0  0  0  0  0  0  0  0
   -0.9285    1.8556    1.3374 H   0  0  0  0  0  0  0  0  0  0  0  0
    0.3210    1.2406    2.4285 H   0  0  0  0  0  0  0  0  0  0  0  0
   -5.6008   -1.1286    1.2215 H   0  0  0  0  0  0  0  0  0  0  0  0
   -5.3010   -1.2922   -0.5472 H   0  0  0  0  0  0  0  0  0  0  0  0
   -5.2021   -3.5769    1.5122 H   0  0  0  0  0  0  0  0  0  0  0  0
   -6.4576   -3.2857    0.2528 H   0  0  0  0  0  0  0  0  0  0  0  0
   -4.7795   -3.7274   -0.2453 H   0  0  0  0  0  0  0  0  0  0  0  0
   -3.6809    0.0992   -2.4842 H   0  0  0  0  0  0  0  0  0  0  0  0
   -5.0031    2.0547   -3.2305 H   0  0  0  0  0  0  0  0  0  0  0  0
   -5.6692    3.8004   -1.6005 H   0  0  0  0  0  0  0  0  0  0  0  0
   -5.0152    3.5887    0.7826 H   0  0  0  0  0  0  0  0  0  0  0  0
   -3.6910    1.6377    1.5379 H   0  0  0  0  0  0  0  0  0  0  0  0
  1  2  1  0
  2  3  1  0
  3  4  1  0
  4  5  2  0
  5  6  1  0
  6  7  1  0
  7  8  1  0
  8  9  1  0
  9 10  1  0
 10 11  1  0
 11 12  1  0
 12 13  1  0
 13 14  1  0
 14 15  1  0
 12 16  1  0
 16 17  1  0
 17  9  1  0
 12 18  1  0
 18 19  1  0
 19 20  2  0
 19 21  1  0
 21 22  1  0
 18 23  1  0
 23 24  2  0
 24 25  1  0
 25 26  2  0
 26 27  1  0
 27 28  2  0
 28 23  1  0
  6 29  1  0
 29  3  1  0
 29 30  2  0
  1 31  1  0
  1 32  1  0
  1 33  1  0
  2 34  1  0
  2 35  1  0
  7 36  1  0
  7 37  1  0
  8 38  1  0
  8 39  1  0
 10 40  1  0
 10 41  1  0
 11 42  1  0
 11 43  1  0
 13 44  1  0
 13 45  1  0
 15 46  1  0
 15 47  1  0
 15 48  1  0
 16 49  1  0
 16 50  1  0
 17 51  1  0
 17 52  1  0
 21 53  1  0
 21 54  1  0
 22 55  1  0
 22 56  1  0
 22 57  1  0
 24 58  1  0
 25 59  1  0
 26 60  1  0
 27 61  1  0
 28 62  1  0
M  END
> <ID>
HT0096

> <Class>
0.0

> <Clusters>
218

> <Fold>
3

$$$$