
     RDKit          3D

 67 70  0  0  0  0  0  0  0  0999 V2000
    2.9361   -1.3870   -2.2141 C   0  0  0  0  0  0  0  0  0  0  0  0
    2.1789   -0.4792   -1.2227 C   0  0  0  0  0  0  0  0  0  0  0  0
    0.8403   -0.0116   -1.8366 C   0  0  0  0  0  0  0  0  0  0  0  0
   -0.1859   -0.1185   -0.7123 C   0  0  0  0  0  0  0  0  0  0  0  0
   -1.6742   -0.1618   -1.1282 C   0  0  0  0  0  0  0  0  0  0  0  0
   -1.9974    1.0945   -1.9755 C   0  0  0  0  0  0  0  0  0  0  0  0
   -3.4809    1.4138   -2.0257 C   0  0  0  0  0  0  0  0  0  0  0  0
   -3.6583    2.5315   -2.8269 F   0  0  0  0  0  0  0  0  0  0  0  0
   -4.0228    1.6475   -0.6362 C   0  0  0  0  0  0  0  0  0  0  0  0
   -5.0997    2.4426   -0.4842 C   0  0  0  0  0  0  0  0  0  0  0  0
   -5.8543    2.4315    0.7720 C   0  0  0  0  0  0  0  0  0  0  0  0
   -6.7939    3.2495    0.9633 O   0  0  0  0  0  0  0  0  0  0  0  0
   -5.5881    1.3666    1.7392 C   0  0  0  0  0  0  0  0  0  0  0  0
   -4.5244    0.5751    1.5772 C   0  0  0  0  0  0  0  0  0  0  0  0
   -3.4062    0.9160    0.5768 C   0  0  0  0  0  0  0  0  0  0  0  0
   -2.4427    1.8920    1.2925 C   0  0  0  0  0  0  0  0  0  0  0  0
   -2.6668   -0.4034    0.0945 C   0  0  0  0  0  0  0  0  0  0  0  0
   -3.6864   -1.1919   -0.4329 F   0  0  0  0  0  0  0  0  0  0  0  0
   -2.0390   -1.2467    1.2994 C   0  0  0  0  0  0  0  0  0  0  0  0
   -2.4842   -2.5820    1.2353 O   0  0  0  0  0  0  0  0  0  0  0  0
   -0.4943   -1.2238    1.4551 C   0  0  0  0  0  0  0  0  0  0  0  0
    0.2618   -1.3201    0.1118 C   0  0  0  0  0  0  0  0  0  0  0  0
   -0.0735   -2.6868   -0.5742 C   0  0  0  0  0  0  0  0  0  0  0  0
    1.8288   -1.1281    0.1751 C   0  0  0  0  0  0  0  0  0  0  0  0
    2.4646   -2.4125    0.3334 O   0  0  0  0  0  0  0  0  0  0  0  0
    3.8363   -2.6277    0.5421 C   0  0  0  0  0  0  0  0  0  0  0  0
    4.6431   -1.6623    0.6185 O   0  0  0  0  0  0  0  0  0  0  0  0
    4.3492   -4.0237    0.6219 C   0  0  0  0  0  0  0  0  0  0  0  0
    2.2348   -0.2391    1.3707 C   0  0  0  0  0  0  0  0  0  0  0  0
    2.3899   -0.7710    2.4611 O   0  0  0  0  0  0  0  0  0  0  0  0
    2.4496    1.2515    1.2962 C   0  0  0  0  0  0  0  0  0  0  0  0
    3.8392    1.5137    1.1387 O   0  0  0  0  0  0  0  0  0  0  0  0
    4.3558    2.8067    1.0300 C   0  0  0  0  0  0  0  0  0  0  0  0
    3.5939    3.8107    1.0658 O   0  0  0  0  0  0  0  0  0  0  0  0
    5.8184    2.9939    0.8143 C   0  0  0  0  0  0  0  0  0  0  0  0
    2.9508   -0.9183   -3.2213 H   0  0  0  0  0  0  0  0  0  0  0  0
    2.4747   -2.3898   -2.3035 H   0  0  0  0  0  0  0  0  0  0  0  0
    3.9936   -1.5065   -1.9032 H   0  0  0  0  0  0  0  0  0  0  0  0
    2.8346    0.4060   -1.1002 H   0  0  0  0  0  0  0  0  0  0  0  0
    0.9202    1.0357   -2.2025 H   0  0  0  0  0  0  0  0  0  0  0  0
    0.5304   -0.6584   -2.6878 H   0  0  0  0  0  0  0  0  0  0  0  0
   -0.0624    0.7947   -0.0943 H   0  0  0  0  0  0  0  0  0  0  0  0
   -1.7999   -1.0157   -1.8289 H   0  0  0  0  0  0  0  0  0  0  0  0
   -1.6362    0.9329   -3.0156 H   0  0  0  0  0  0  0  0  0  0  0  0
   -1.4597    1.9901   -1.5967 H   0  0  0  0  0  0  0  0  0  0  0  0
   -4.0275    0.5638   -2.4878 H   0  0  0  0  0  0  0  0  0  0  0  0
   -5.5080    2.9981   -1.3199 H   0  0  0  0  0  0  0  0  0  0  0  0
   -6.2998    1.1664    2.5307 H   0  0  0  0  0  0  0  0  0  0  0  0
   -4.4389   -0.2609    2.2552 H   0  0  0  0  0  0  0  0  0  0  0  0
   -2.9925    2.7937    1.6418 H   0  0  0  0  0  0  0  0  0  0  0  0
   -1.9764    1.4259    2.1837 H   0  0  0  0  0  0  0  0  0  0  0  0
   -1.6391    2.2502    0.6245 H   0  0  0  0  0  0  0  0  0  0  0  0
   -2.3996   -0.8332    2.2639 H   0  0  0  0  0  0  0  0  0  0  0  0
   -2.3994   -2.9722    2.1446 H   0  0  0  0  0  0  0  0  0  0  0  0
   -0.2376   -0.2771    1.9770 H   0  0  0  0  0  0  0  0  0  0  0  0
   -0.1664   -2.0479    2.1270 H   0  0  0  0  0  0  0  0  0  0  0  0
   -1.1519   -2.8324   -0.7617 H   0  0  0  0  0  0  0  0  0  0  0  0
    0.4205   -2.7890   -1.5578 H   0  0  0  0  0  0  0  0  0  0  0  0
    0.2518   -3.5332    0.0680 H   0  0  0  0  0  0  0  0  0  0  0  0
    4.6124   -4.3772   -0.3963 H   0  0  0  0  0  0  0  0  0  0  0  0
    3.5691   -4.6882    1.0485 H   0  0  0  0  0  0  0  0  0  0  0  0
    5.2506   -4.0651    1.2691 H   0  0  0  0  0  0  0  0  0  0  0  0
    1.8863    1.7106    0.4620 H   0  0  0  0  0  0  0  0  0  0  0  0
    2.0868    1.7216    2.2360 H   0  0  0  0  0  0  0  0  0  0  0  0
    6.1414    3.9843    1.1992 H   0  0  0  0  0  0  0  0  0  0  0  0
    6.3817    2.2011    1.3510 H   0  0  0  0  0  0  0  0  0  0  0  0
    6.0427    2.9302   -0.2702 H   0  0  0  0  0  0  0  0  0  0  0  0
  1  2  1  0
  2  3  1  0
  3  4  1  0
  4  5  1  0
  5  6  1  0
  6  7  1  0
  7  8  1  0
  7  9  1  0
  9 10  2  0
 10 11  1  0
 11 12  2  0
 11 13  1  0
 13 14  2  0
 14 15  1  0
 15  9  1  0
 15 16  1  0
 15 17  1  0
 17  5  1  0
 17 18  1  0
 17 19  1  0
 19 20  1  0
 19 21  1  0
 21 22  1  0
 22  4  1  0
 22 23  1  0
 22 24  1  0
 24  2  1  0
 24 25  1  0
 25 26  1  0
 26 27  2  0
 26 28  1  0
 24 29  1  0
 29 30  2  0
 29 31  1  0
 31 32  1  0
 32 33  1  0
 33 34  2  0
 33 35  1  0
  1 36  1  0
  1 37  1  0
  1 38  1  0
  2 39  1  0
  3 40  1  0
  3 41  1  0
  4 42  1  0
  5 43  1  0
  6 44  1  0
  6 45  1  0
  7 46  1  0
 10 47  1  0
 13 48  1  0
 14 49  1  0
 16 50  1  0
 16 51  1  0
 16 52  1  0
 19 53  1  0
 20 54  1  0
 21 55  1  0
 21 56  1  0
 23 57  1  0
 23 58  1  0
 23 59  1  0
 28 60  1  0
 28 61  1  0
 28 62  1  0
 31 63  1  0
 31 64  1  0
 35 65  1  0
 35 66  1  0
 35 67  1  0
M  END
> <ID>
HT0661

> <Class>
0.0

> <Clusters>
109

> <Fold>
3

$$$$