
     RDKit          3D

 56 57  0  0  0  0  0  0  0  0999 V2000
   -0.4489    2.6853    2.4392 C   0  0  0  0  0  0  0  0  0  0  0  0
   -0.4937    2.0265    1.1209 N   0  0  0  0  0  0  0  0  0  0  0  0
    0.3559    0.8166    1.0716 C   0  0  0  0  0  0  0  0  0  0  0  0
    1.8131    1.1942    0.8132 C   0  0  0  0  0  0  0  0  0  0  0  0
    2.5830    0.0091    0.6278 O   0  0  0  0  0  0  0  0  0  0  0  0
    3.9606   -0.0081    0.3644 C   0  0  0  0  0  0  0  0  0  0  0  0
    4.7239    1.1684    0.2564 C   0  0  0  0  0  0  0  0  0  0  0  0
    6.0948    1.0968   -0.0069 C   0  0  0  0  0  0  0  0  0  0  0  0
    6.7298   -0.1442   -0.1711 C   0  0  0  0  0  0  0  0  0  0  0  0
    8.1439   -0.1749   -0.4397 N   0  0  0  0  0  0  0  0  0  0  0  0
    9.0384   -1.6039   -0.8542 S   0  0  0  0  0  0  0  0  0  0  0  0
   10.4917   -1.2451   -0.9847 O   0  0  0  0  0  0  0  0  0  0  0  0
    8.8932   -2.6361    0.2284 O   0  0  0  0  0  0  0  0  0  0  0  0
    8.4740   -2.2521   -2.4134 C   0  0  0  0  0  0  0  0  0  0  0  0
    5.9627   -1.3187   -0.0578 C   0  0  0  0  0  0  0  0  0  0  0  0
    4.5917   -1.2458    0.2058 C   0  0  0  0  0  0  0  0  0  0  0  0
   -1.8812    1.7707    0.6705 C   0  0  0  0  0  0  0  0  0  0  0  0
   -2.6616    0.7902    1.5719 C   0  0  0  0  0  0  0  0  0  0  0  0
   -4.0217    0.4977    0.9913 C   0  0  0  0  0  0  0  0  0  0  0  0
   -5.0156    1.4879    0.9860 C   0  0  0  0  0  0  0  0  0  0  0  0
   -6.2784    1.2184    0.4523 C   0  0  0  0  0  0  0  0  0  0  0  0
   -6.5752   -0.0445   -0.0842 C   0  0  0  0  0  0  0  0  0  0  0  0
   -7.8895   -0.2821   -0.6224 N   0  0  0  0  0  0  0  0  0  0  0  0
   -8.3914   -1.7550   -1.3930 S   0  0  0  0  0  0  0  0  0  0  0  0
   -9.8654   -1.6760   -1.6748 O   0  0  0  0  0  0  0  0  0  0  0  0
   -8.1382   -2.9253   -0.4844 O   0  0  0  0  0  0  0  0  0  0  0  0
   -7.5304   -1.9654   -2.9372 C   0  0  0  0  0  0  0  0  0  0  0  0
   -5.5784   -1.0386   -0.0709 C   0  0  0  0  0  0  0  0  0  0  0  0
   -4.3146   -0.7684    0.4624 C   0  0  0  0  0  0  0  0  0  0  0  0
    0.5594    3.1127    2.6152 H   0  0  0  0  0  0  0  0  0  0  0  0
   -1.1685    3.5314    2.4785 H   0  0  0  0  0  0  0  0  0  0  0  0
   -0.6818    1.9741    3.2611 H   0  0  0  0  0  0  0  0  0  0  0  0
    0.0362    0.1490    0.2398 H   0  0  0  0  0  0  0  0  0  0  0  0
    0.2844    0.2303    2.0153 H   0  0  0  0  0  0  0  0  0  0  0  0
    2.2158    1.7607    1.6793 H   0  0  0  0  0  0  0  0  0  0  0  0
    1.8717    1.8229   -0.1021 H   0  0  0  0  0  0  0  0  0  0  0  0
    4.2690    2.1424    0.3746 H   0  0  0  0  0  0  0  0  0  0  0  0
    6.6643    2.0143   -0.0863 H   0  0  0  0  0  0  0  0  0  0  0  0
    8.6751    0.7248   -0.4417 H   0  0  0  0  0  0  0  0  0  0  0  0
    8.5733   -1.4711   -3.1950 H   0  0  0  0  0  0  0  0  0  0  0  0
    7.4118   -2.5597   -2.3385 H   0  0  0  0  0  0  0  0  0  0  0  0
    9.0896   -3.1316   -2.6932 H   0  0  0  0  0  0  0  0  0  0  0  0
    6.4085   -2.2955   -0.1640 H   0  0  0  0  0  0  0  0  0  0  0  0
    4.0154   -2.1587    0.2899 H   0  0  0  0  0  0  0  0  0  0  0  0
   -1.8589    1.3745   -0.3691 H   0  0  0  0  0  0  0  0  0  0  0  0
   -2.4283    2.7374    0.6150 H   0  0  0  0  0  0  0  0  0  0  0  0
   -2.7976    1.2197    2.5868 H   0  0  0  0  0  0  0  0  0  0  0  0
   -2.0891   -0.1548    1.6835 H   0  0  0  0  0  0  0  0  0  0  0  0
   -4.8134    2.4684    1.3988 H   0  0  0  0  0  0  0  0  0  0  0  0
   -7.0297    1.9983    0.4584 H   0  0  0  0  0  0  0  0  0  0  0  0
   -8.5971    0.4853   -0.5783 H   0  0  0  0  0  0  0  0  0  0  0  0
   -7.7143   -1.0838   -3.5846 H   0  0  0  0  0  0  0  0  0  0  0  0
   -6.4410   -2.0657   -2.7585 H   0  0  0  0  0  0  0  0  0  0  0  0
   -7.9014   -2.8786   -3.4463 H   0  0  0  0  0  0  0  0  0  0  0  0
   -5.7622   -2.0263   -0.4640 H   0  0  0  0  0  0  0  0  0  0  0  0
   -3.5636   -1.5488    0.4583 H   0  0  0  0  0  0  0  0  0  0  0  0
  1  2  1  0
  2  3  1  0
  3  4  1  0
  4  5  1  0
  5  6  1  0
  6  7  2  0
  7  8  1  0
  8  9  2  0
  9 10  1  0
 10 11  1  0
 11 12  2  0
 11 13  2  0
 11 14  1  0
  9 15  1  0
 15 16  2  0
 16  6  1  0
  2 17  1  0
 17 18  1  0
 18 19  1  0
 19 20  2  0
 20 21  1  0
 21 22  2  0
 22 23  1  0
 23 24  1  0
 24 25  2  0
 24 26  2  0
 24 27  1  0
 22 28  1  0
 28 29  2  0
 29 19  1  0
  1 30  1  0
  1 31  1  0
  1 32  1  0
  3 33  1  0
  3 34  1  0
  4 35  1  0
  4 36  1  0
  7 37  1  0
  8 38  1  0
 10 39  1  0
 14 40  1  0
 14 41  1  0
 14 42  1  0
 15 43  1  0
 16 44  1  0
 17 45  1  0
 17 46  1  0
 18 47  1  0
 18 48  1  0
 20 49  1  0
 21 50  1  0
 23 51  1  0
 27 52  1  0
 27 53  1  0
 27 54  1  0
 28 55  1  0
 29 56  1  0
M  END
> <ID>
HT0705

> <Class>
0.0

> <Clusters>
88

> <Fold>
3

$$$$