
     RDKit          3D

 54 57  0  0  0  0  0  0  0  0999 V2000
    4.7783    1.8857   -0.6137 C   0  0  0  0  0  0  0  0  0  0  0  0
    3.5815    0.9378   -0.7818 C   0  0  0  0  0  0  0  0  0  0  0  0
    2.7194    0.9209    0.4957 C   0  0  0  0  0  0  0  0  0  0  0  0
    1.5271   -0.1024    0.4755 C   0  0  0  0  0  0  0  0  0  0  0  0
    1.0116   -0.1698    1.9443 C   0  0  0  0  0  0  0  0  0  0  0  0
    2.0682   -1.5209    0.0774 C   0  0  0  0  0  0  0  0  0  0  0  0
    0.9262   -2.5494   -0.0358 C   0  0  0  0  0  0  0  0  0  0  0  0
   -0.1242   -2.1513   -1.0737 C   0  0  0  0  0  0  0  0  0  0  0  0
   -0.6944   -0.7209   -0.8916 C   0  0  0  0  0  0  0  0  0  0  0  0
   -1.9627   -0.6615    0.0155 C   0  0  0  0  0  0  0  0  0  0  0  0
   -3.1196   -1.5187   -0.5408 C   0  0  0  0  0  0  0  0  0  0  0  0
   -4.3913   -0.7301   -0.3064 C   0  0  0  0  0  0  0  0  0  0  0  0
   -3.9628    0.7185   -0.4405 C   0  0  0  0  0  0  0  0  0  0  0  0
   -4.8742    1.5806    0.1937 O   0  0  0  0  0  0  0  0  0  0  0  0
   -2.5437    0.7844    0.1850 C   0  0  0  0  0  0  0  0  0  0  0  0
   -2.6341    1.1338    1.6959 C   0  0  0  0  0  0  0  0  0  0  0  0
   -1.6991    1.8607   -0.5551 C   0  0  0  0  0  0  0  0  0  0  0  0
   -0.2078    1.7529   -0.2247 C   0  0  0  0  0  0  0  0  0  0  0  0
    0.3993    0.3522   -0.5437 C   0  0  0  0  0  0  0  0  0  0  0  0
    2.9358   -1.5125   -1.2060 C   0  0  0  0  0  0  0  0  0  0  0  0
    4.0042   -0.4732   -1.0953 C   0  0  0  0  0  0  0  0  0  0  0  0
    5.1803   -0.7798   -1.2310 O   0  0  0  0  0  0  0  0  0  0  0  0
    5.4347    1.5501    0.2181 H   0  0  0  0  0  0  0  0  0  0  0  0
    4.4214    2.9146   -0.3944 H   0  0  0  0  0  0  0  0  0  0  0  0
    5.3731    1.9201   -1.5515 H   0  0  0  0  0  0  0  0  0  0  0  0
    2.9790    1.3216   -1.6315 H   0  0  0  0  0  0  0  0  0  0  0  0
    3.3915    0.6719    1.3492 H   0  0  0  0  0  0  0  0  0  0  0  0
    2.3427    1.9481    0.6893 H   0  0  0  0  0  0  0  0  0  0  0  0
    1.7760   -0.6361    2.6026 H   0  0  0  0  0  0  0  0  0  0  0  0
    0.0970   -0.7683    2.0558 H   0  0  0  0  0  0  0  0  0  0  0  0
    0.8227    0.8343    2.3726 H   0  0  0  0  0  0  0  0  0  0  0  0
    2.7386   -1.8808    0.8916 H   0  0  0  0  0  0  0  0  0  0  0  0
    1.3491   -3.5385   -0.3180 H   0  0  0  0  0  0  0  0  0  0  0  0
    0.4346   -2.6975    0.9477 H   0  0  0  0  0  0  0  0  0  0  0  0
   -0.9345   -2.9087   -1.0527 H   0  0  0  0  0  0  0  0  0  0  0  0
    0.3191   -2.2366   -2.0882 H   0  0  0  0  0  0  0  0  0  0  0  0
   -1.0616   -0.4441   -1.9077 H   0  0  0  0  0  0  0  0  0  0  0  0
   -1.7140   -1.0987    1.0013 H   0  0  0  0  0  0  0  0  0  0  0  0
   -3.1753   -2.5072   -0.0340 H   0  0  0  0  0  0  0  0  0  0  0  0
   -3.0096   -1.6881   -1.6351 H   0  0  0  0  0  0  0  0  0  0  0  0
   -4.7740   -0.9286    0.7194 H   0  0  0  0  0  0  0  0  0  0  0  0
   -5.1753   -0.9935   -1.0494 H   0  0  0  0  0  0  0  0  0  0  0  0
   -3.9202    0.9588   -1.5299 H   0  0  0  0  0  0  0  0  0  0  0  0
   -5.6937    1.5906   -0.3666 H   0  0  0  0  0  0  0  0  0  0  0  0
   -3.3287    0.4421    2.2188 H   0  0  0  0  0  0  0  0  0  0  0  0
   -2.9985    2.1728    1.8442 H   0  0  0  0  0  0  0  0  0  0  0  0
   -1.6463    1.0473    2.1893 H   0  0  0  0  0  0  0  0  0  0  0  0
   -2.0611    2.8783   -0.2894 H   0  0  0  0  0  0  0  0  0  0  0  0
   -1.8121    1.7651   -1.6574 H   0  0  0  0  0  0  0  0  0  0  0  0
   -0.0697    2.0479    0.8295 H   0  0  0  0  0  0  0  0  0  0  0  0
    0.3335    2.5252   -0.8151 H   0  0  0  0  0  0  0  0  0  0  0  0
    0.9167    0.4934   -1.5157 H   0  0  0  0  0  0  0  0  0  0  0  0
    3.3939   -2.5150   -1.3569 H   0  0  0  0  0  0  0  0  0  0  0  0
    2.3330   -1.2776   -2.1054 H   0  0  0  0  0  0  0  0  0  0  0  0
  1  2  1  0
  2  3  1  0
  3  4  1  0
  4  5  1  0
  4  6  1  0
  6  7  1  0
  7  8  1  0
  8  9  1  0
  9 10  1  0
 10 11  1  0
 11 12  1  0
 12 13  1  0
 13 14  1  0
 13 15  1  0
 15 10  1  0
 15 16  1  0
 15 17  1  0
 17 18  1  0
 18 19  1  0
 19  4  1  0
 19  9  1  0
  6 20  1  0
 20 21  1  0
 21  2  1  0
 21 22  2  0
  1 23  1  0
  1 24  1  0
  1 25  1  0
  2 26  1  0
  3 27  1  0
  3 28  1  0
  5 29  1  0
  5 30  1  0
  5 31  1  0
  6 32  1  0
  7 33  1  0
  7 34  1  0
  8 35  1  0
  8 36  1  0
  9 37  1  0
 10 38  1  0
 11 39  1  0
 11 40  1  0
 12 41  1  0
 12 42  1  0
 13 43  1  0
 14 44  1  0
 16 45  1  0
 16 46  1  0
 16 47  1  0
 17 48  1  0
 17 49  1  0
 18 50  1  0
 18 51  1  0
 19 52  1  0
 20 53  1  0
 20 54  1  0
M  END
> <ID>
HT0728

> <Class>
0.0

> <Clusters>
89

> <Fold>
3

$$$$