
     RDKit          3D

 62 65  0  0  0  0  0  0  0  0999 V2000
    7.2313   -1.2480    0.5797 C   0  0  0  0  0  0  0  0  0  0  0  0
    5.9957   -1.9293    0.0021 C   0  0  0  0  0  0  0  0  0  0  0  0
    4.7743   -1.5718    0.7889 C   0  0  0  0  0  0  0  0  0  0  0  0
    4.1297   -2.4740    1.3901 O   0  0  0  0  0  0  0  0  0  0  0  0
    4.3640   -0.2356    0.8495 O   0  0  0  0  0  0  0  0  0  0  0  0
    3.1424    0.1900    1.4582 C   0  0  1  0  0  0  0  0  0  0  0  0
    3.2138    1.6902    1.8142 C   0  0  0  0  0  0  0  0  0  0  0  0
    1.8374    2.2917    1.4835 C   0  0  0  0  0  0  0  0  0  0  0  0
    0.9696    1.0793    1.1760 C   0  0  1  0  0  0  0  0  0  0  0  0
   -0.3370    1.2736    0.3794 C   0  0  2  0  0  0  0  0  0  0  0  0
   -1.2386    2.3288    1.0500 C   0  0  0  0  0  0  0  0  0  0  0  0
   -2.5859    2.4531    0.3320 C   0  0  0  0  0  0  0  0  0  0  0  0
   -3.3030    1.0918    0.2850 C   0  0  1  0  0  0  0  0  0  0  0  0
   -4.7297    1.2330   -0.2746 C   0  0  0  0  0  0  0  0  0  0  0  0
   -5.4052   -0.1071   -0.2619 C   0  0  0  0  0  0  0  0  0  0  0  0
   -6.5243   -0.2169    0.2189 O   0  0  0  0  0  0  0  0  0  0  0  0
   -4.6875   -1.2973   -0.8598 C   0  0  2  0  0  0  0  0  0  0  0  0
   -5.4134   -2.6193   -0.5695 C   0  0  0  0  0  0  0  0  0  0  0  0
   -3.2295   -1.3618   -0.3407 C   0  0  0  0  0  0  0  0  0  0  0  0
   -2.4555   -0.0071   -0.4526 C   0  0  1  0  0  0  0  0  0  0  0  0
   -2.2455    0.3257   -1.9612 C   0  0  0  0  0  0  0  0  0  0  0  0
   -1.0713   -0.1114    0.3004 C   0  0  1  0  0  0  0  0  0  0  0  0
   -0.1333   -1.2461   -0.2235 C   0  0  0  0  0  0  0  0  0  0  0  0
    1.2284   -1.3027    0.5113 C   0  0  0  0  0  0  0  0  0  0  0  0
    1.9238    0.0763    0.5153 C   0  0  2  0  0  0  0  0  0  0  0  0
    2.3516    0.4660   -0.9365 C   0  0  0  0  0  0  0  0  0  0  0  0
    8.1265   -1.5451   -0.0070 H   0  0  0  0  0  0  0  0  0  0  0  0
    7.1240   -0.1429    0.5289 H   0  0  0  0  0  0  0  0  0  0  0  0
    7.3813   -1.5546    1.6372 H   0  0  0  0  0  0  0  0  0  0  0  0
    5.8537   -1.6074   -1.0519 H   0  0  0  0  0  0  0  0  0  0  0  0
    6.1488   -3.0305    0.0127 H   0  0  0  0  0  0  0  0  0  0  0  0
    2.9657   -0.3820    2.3988 H   0  0  0  0  0  0  0  0  0  0  0  0
    4.0003    2.2047    1.2196 H   0  0  0  0  0  0  0  0  0  0  0  0
    3.4476    1.8170    2.8938 H   0  0  0  0  0  0  0  0  0  0  0  0
    1.4351    2.8648    2.3468 H   0  0  0  0  0  0  0  0  0  0  0  0
    1.9036    2.9619    0.5987 H   0  0  0  0  0  0  0  0  0  0  0  0
    0.6697    0.6729    2.1742 H   0  0  0  0  0  0  0  0  0  0  0  0
   -0.0885    1.6534   -0.6290 H   0  0  0  0  0  0  0  0  0  0  0  0
   -0.7364    3.3200    1.0282 H   0  0  0  0  0  0  0  0  0  0  0  0
   -1.4144    2.0612    2.1154 H   0  0  0  0  0  0  0  0  0  0  0  0
   -2.4390    2.8601   -0.6908 H   0  0  0  0  0  0  0  0  0  0  0  0
   -3.2118    3.1825    0.8912 H   0  0  0  0  0  0  0  0  0  0  0  0
   -3.4261    0.7680    1.3460 H   0  0  0  0  0  0  0  0  0  0  0  0
   -4.7171    1.6351   -1.3083 H   0  0  0  0  0  0  0  0  0  0  0  0
   -5.3083    1.9495    0.3503 H   0  0  0  0  0  0  0  0  0  0  0  0
   -4.6737   -1.1711   -1.9631 H   0  0  0  0  0  0  0  0  0  0  0  0
   -5.4947   -2.7936    0.5252 H   0  0  0  0  0  0  0  0  0  0  0  0
   -6.4333   -2.6011   -1.0100 H   0  0  0  0  0  0  0  0  0  0  0  0
   -4.8589   -3.4691   -1.0247 H   0  0  0  0  0  0  0  0  0  0  0  0
   -2.7014   -2.1507   -0.9184 H   0  0  0  0  0  0  0  0  0  0  0  0
   -3.2427   -1.6863    0.7247 H   0  0  0  0  0  0  0  0  0  0  0  0
   -3.2031    0.4979   -2.4871 H   0  0  0  0  0  0  0  0  0  0  0  0
   -1.6325    1.2319   -2.1186 H   0  0  0  0  0  0  0  0  0  0  0  0
   -1.7522   -0.5151   -2.4894 H   0  0  0  0  0  0  0  0  0  0  0  0
   -1.3074   -0.3993    1.3514 H   0  0  0  0  0  0  0  0  0  0  0  0
   -0.6193   -2.2317   -0.0718 H   0  0  0  0  0  0  0  0  0  0  0  0
    0.0459   -1.1406   -1.3102 H   0  0  0  0  0  0  0  0  0  0  0  0
    1.0580   -1.6489    1.5546 H   0  0  0  0  0  0  0  0  0  0  0  0
    1.8762   -2.0556    0.0141 H   0  0  0  0  0  0  0  0  0  0  0  0
    1.5006    0.5327   -1.6391 H   0  0  0  0  0  0  0  0  0  0  0  0
    3.0413   -0.3004   -1.3482 H   0  0  0  0  0  0  0  0  0  0  0  0
    2.8799    1.4411   -0.9627 H   0  0  0  0  0  0  0  0  0  0  0  0
  1  2  1  0
  2  3  1  0
  3  4  2  0
  3  5  1  0
  6  5  1  0
  6  7  1  0
  7  8  1  0
  9  8  1  0
  9 10  1  0
 10 11  1  0
 11 12  1  0
 13 12  1  0
 13 14  1  0
 14 15  1  0
 15 16  2  0
 15 17  1  0
 17 18  1  0
 17 19  1  0
 19 20  1  0
 20 13  1  0
 20 21  1  6
 20 22  1  0
 22 10  1  0
 22 23  1  0
 23 24  1  0
 24 25  1  0
 25  6  1  0
 25  9  1  0
 25 26  1  6
  1 27  1  0
  1 28  1  0
  1 29  1  0
  2 30  1  0
  2 31  1  0
  6 32  1  1
  7 33  1  0
  7 34  1  0
  8 35  1  0
  8 36  1  0
  9 37  1  1
 10 38  1  6
 11 39  1  0
 11 40  1  0
 12 41  1  0
 12 42  1  0
 13 43  1  1
 14 44  1  0
 14 45  1  0
 17 46  1  6
 18 47  1  0
 18 48  1  0
 18 49  1  0
 19 50  1  0
 19 51  1  0
 21 52  1  0
 21 53  1  0
 21 54  1  0
 22 55  1  1
 23 56  1  0
 23 57  1  0
 24 58  1  0
 24 59  1  0
 26 60  1  0
 26 61  1  0
 26 62  1  0
M  END
> <ID>
HT0723

> <Class>
0.0

> <Clusters>
89

> <Fold>
3

$$$$