
     RDKit          3D

 35 36  0  0  0  0  0  0  0  0999 V2000
   -0.9159   -0.8311    1.5896 C   0  0  0  0  0  0  0  0  0  0  0  0
   -0.5591   -0.0624    0.3052 C   0  0  0  0  0  0  0  0  0  0  0  0
   -0.7041    1.4522    0.5351 C   0  0  0  0  0  0  0  0  0  0  0  0
   -1.4061   -0.4823   -0.7765 O   0  0  0  0  0  0  0  0  0  0  0  0
   -2.7995   -0.3539   -0.7793 C   0  0  0  0  0  0  0  0  0  0  0  0
   -3.3987    0.7981   -1.3056 C   0  0  0  0  0  0  0  0  0  0  0  0
   -4.7915    0.9215   -1.3193 C   0  0  0  0  0  0  0  0  0  0  0  0
   -5.5914   -0.1110   -0.8164 C   0  0  0  0  0  0  0  0  0  0  0  0
   -7.3385    0.0436   -0.8341 Cl  0  0  0  0  0  0  0  0  0  0  0  0
   -4.9956   -1.2694   -0.3046 C   0  0  0  0  0  0  0  0  0  0  0  0
   -3.6028   -1.3928   -0.2909 C   0  0  0  0  0  0  0  0  0  0  0  0
    0.8744   -0.3623   -0.0604 C   0  0  0  0  0  0  0  0  0  0  0  0
    1.1402   -0.9399   -1.1506 O   0  0  0  0  0  0  0  0  0  0  0  0
    1.8965   -0.0448    0.8461 O   0  0  0  0  0  0  0  0  0  0  0  0
    3.2636    0.0146    0.5391 C   0  0  0  0  0  0  0  0  0  0  0  0
    4.1882   -0.2417    1.5595 C   0  0  0  0  0  0  0  0  0  0  0  0
    5.5615   -0.1841    1.3031 C   0  0  0  0  0  0  0  0  0  0  0  0
    6.0222    0.1433    0.0240 C   0  0  0  0  0  0  0  0  0  0  0  0
    7.7451    0.2186   -0.2967 Cl  0  0  0  0  0  0  0  0  0  0  0  0
    5.1070    0.4208   -0.9964 C   0  0  0  0  0  0  0  0  0  0  0  0
    3.7330    0.3627   -0.7420 C   0  0  0  0  0  0  0  0  0  0  0  0
   -0.8421   -1.9259    1.4138 H   0  0  0  0  0  0  0  0  0  0  0  0
   -0.2289   -0.5576    2.4194 H   0  0  0  0  0  0  0  0  0  0  0  0
   -1.9515   -0.5950    1.9138 H   0  0  0  0  0  0  0  0  0  0  0  0
   -1.7383    1.7043    0.8520 H   0  0  0  0  0  0  0  0  0  0  0  0
   -0.0100    1.8009    1.3302 H   0  0  0  0  0  0  0  0  0  0  0  0
   -0.4772    2.0054   -0.4015 H   0  0  0  0  0  0  0  0  0  0  0  0
   -2.7851    1.5967   -1.7022 H   0  0  0  0  0  0  0  0  0  0  0  0
   -5.2472    1.8170   -1.7222 H   0  0  0  0  0  0  0  0  0  0  0  0
   -5.6097   -2.0738    0.0797 H   0  0  0  0  0  0  0  0  0  0  0  0
   -3.1476   -2.2939    0.0996 H   0  0  0  0  0  0  0  0  0  0  0  0
    3.8399   -0.4943    2.5531 H   0  0  0  0  0  0  0  0  0  0  0  0
    6.2653   -0.3923    2.0988 H   0  0  0  0  0  0  0  0  0  0  0  0
    5.4588    0.6903   -1.9842 H   0  0  0  0  0  0  0  0  0  0  0  0
    3.0454    0.6185   -1.5363 H   0  0  0  0  0  0  0  0  0  0  0  0
  1  2  1  0
  2  3  1  0
  2  4  1  0
  4  5  1  0
  5  6  2  0
  6  7  1  0
  7  8  2  0
  8  9  1  0
  8 10  1  0
 10 11  2  0
 11  5  1  0
  2 12  1  0
 12 13  2  0
 12 14  1  0
 14 15  1  0
 15 16  2  0
 16 17  1  0
 17 18  2  0
 18 19  1  0
 18 20  1  0
 20 21  2  0
 21 15  1  0
  1 22  1  0
  1 23  1  0
  1 24  1  0
  3 25  1  0
  3 26  1  0
  3 27  1  0
  6 28  1  0
  7 29  1  0
 10 30  1  0
 11 31  1  0
 16 32  1  0
 17 33  1  0
 20 34  1  0
 21 35  1  0
M  END
> <ID>
HT0732

> <Class>
0.0

> <Clusters>
216

> <Fold>
3

$$$$