
     RDKit          3D

 38 37  0  0  0  0  0  0  0  0999 V2000
    2.3013   -2.0772    1.5950 C   0  0  0  0  0  0  0  0  0  0  0  0
    2.2438   -1.3594    0.2559 C   0  0  0  0  0  0  0  0  0  0  0  0
    1.4225   -0.2240    0.3811 O   0  0  0  0  0  0  0  0  0  0  0  0
    1.4608    0.6425   -1.0903 P   0  0  0  0  0  0  0  0  0  0  0  0
    1.1808   -0.2876   -2.2503 O   0  0  0  0  0  0  0  0  0  0  0  0
    2.9957    1.3499   -1.3219 O   0  0  0  0  0  0  0  0  0  0  0  0
    3.3194    2.0980   -0.1741 C   0  0  0  0  0  0  0  0  0  0  0  0
    4.6619    2.7794   -0.3890 C   0  0  0  0  0  0  0  0  0  0  0  0
   -0.0256    2.1679   -1.0923 S   0  0  0  0  0  0  0  0  0  0  0  0
   -1.2490    1.2795   -0.0623 C   0  0  0  0  0  0  0  0  0  0  0  0
   -1.9966    0.2065   -0.8836 C   0  0  0  0  0  0  0  0  0  0  0  0
   -2.9291   -0.6573   -0.0964 N   0  0  0  0  0  0  0  0  0  0  0  0
   -3.9406    0.1525    0.6237 C   0  0  0  0  0  0  0  0  0  0  0  0
   -2.1866   -1.5029    0.8709 C   0  0  0  0  0  0  0  0  0  0  0  0
   -3.6365   -1.5514   -1.0456 C   0  0  0  0  0  0  0  0  0  0  0  0
    1.2786   -2.3746    1.9112 H   0  0  0  0  0  0  0  0  0  0  0  0
    2.7408   -1.4084    2.3655 H   0  0  0  0  0  0  0  0  0  0  0  0
    2.9306   -2.9877    1.5067 H   0  0  0  0  0  0  0  0  0  0  0  0
    1.8239   -2.0653   -0.4950 H   0  0  0  0  0  0  0  0  0  0  0  0
    3.2827   -1.0775   -0.0307 H   0  0  0  0  0  0  0  0  0  0  0  0
    2.5601    2.8890    0.0186 H   0  0  0  0  0  0  0  0  0  0  0  0
    3.4076    1.4382    0.7180 H   0  0  0  0  0  0  0  0  0  0  0  0
    4.6051    3.4650   -1.2613 H   0  0  0  0  0  0  0  0  0  0  0  0
    4.9349    3.3659    0.5140 H   0  0  0  0  0  0  0  0  0  0  0  0
    5.4491    2.0179   -0.5740 H   0  0  0  0  0  0  0  0  0  0  0  0
   -0.7483    0.8613    0.8294 H   0  0  0  0  0  0  0  0  0  0  0  0
   -1.9725    2.0425    0.2909 H   0  0  0  0  0  0  0  0  0  0  0  0
   -1.2499   -0.4340   -1.3997 H   0  0  0  0  0  0  0  0  0  0  0  0
   -2.5565    0.7386   -1.6868 H   0  0  0  0  0  0  0  0  0  0  0  0
   -4.7157   -0.4969    1.0901 H   0  0  0  0  0  0  0  0  0  0  0  0
   -3.4809    0.7420    1.4465 H   0  0  0  0  0  0  0  0  0  0  0  0
   -4.4532    0.8573   -0.0685 H   0  0  0  0  0  0  0  0  0  0  0  0
   -2.8592   -2.2533    1.3441 H   0  0  0  0  0  0  0  0  0  0  0  0
   -1.3579   -2.0528    0.3705 H   0  0  0  0  0  0  0  0  0  0  0  0
   -1.7558   -0.9021    1.6993 H   0  0  0  0  0  0  0  0  0  0  0  0
   -4.2232   -0.9644   -1.7883 H   0  0  0  0  0  0  0  0  0  0  0  0
   -2.9163   -2.1904   -1.6056 H   0  0  0  0  0  0  0  0  0  0  0  0
   -4.3462   -2.2268   -0.5157 H   0  0  0  0  0  0  0  0  0  0  0  0
  1  2  1  0
  2  3  1  0
  3  4  1  0
  4  5  2  0
  4  6  1  0
  6  7  1  0
  7  8  1  0
  4  9  1  0
  9 10  1  0
 10 11  1  0
 11 12  1  0
 12 13  1  0
 12 14  1  0
 12 15  1  0
  1 16  1  0
  1 17  1  0
  1 18  1  0
  2 19  1  0
  2 20  1  0
  7 21  1  0
  7 22  1  0
  8 23  1  0
  8 24  1  0
  8 25  1  0
 10 26  1  0
 10 27  1  0
 11 28  1  0
 11 29  1  0
 13 30  1  0
 13 31  1  0
 13 32  1  0
 14 33  1  0
 14 34  1  0
 14 35  1  0
 15 36  1  0
 15 37  1  0
 15 38  1  0
M  CHG  1  12   1
M  END
> <ID>
HT0740

> <Class>
0.0

> <Clusters>
92

> <Fold>
3

$$$$