
     RDKit          3D

 70 73  0  0  0  0  0  0  0  0999 V2000
   -6.3665   -1.6377    0.8470 C   0  0  0  0  0  0  0  0  0  0  0  0
   -5.1775   -2.5030    0.4138 C   0  0  0  0  0  0  0  0  0  0  0  0
   -4.1280   -2.6435    1.5298 C   0  0  0  0  0  0  0  0  0  0  0  0
   -3.3207   -1.3916    1.6861 C   0  0  0  0  0  0  0  0  0  0  0  0
   -3.5194   -0.6352    2.6725 O   0  0  0  0  0  0  0  0  0  0  0  0
   -2.3399   -1.0875    0.7325 O   0  0  0  0  0  0  0  0  0  0  0  0
   -1.4837    0.0683    0.7559 C   0  0  0  0  0  0  0  0  0  0  0  0
   -0.7724    0.2090    2.1178 C   0  0  0  0  0  0  0  0  0  0  0  0
    0.5813    0.8666    1.8397 C   0  0  0  0  0  0  0  0  0  0  0  0
    0.7688    0.8868    0.3070 C   0  0  0  0  0  0  0  0  0  0  0  0
    2.2578    0.6755   -0.1278 C   0  0  0  0  0  0  0  0  0  0  0  0
    2.7362    1.7479   -1.1454 C   0  0  0  0  0  0  0  0  0  0  0  0
    4.1292    1.4320   -1.7484 C   0  0  0  0  0  0  0  0  0  0  0  0
    3.9869    0.9320   -3.0322 F   0  0  0  0  0  0  0  0  0  0  0  0
    4.8780    0.4181   -0.9020 C   0  0  0  0  0  0  0  0  0  0  0  0
    6.0759    0.7441   -0.3839 C   0  0  0  0  0  0  0  0  0  0  0  0
    6.6578   -0.0653    0.6914 C   0  0  0  0  0  0  0  0  0  0  0  0
    7.8249    0.1660    1.1037 O   0  0  0  0  0  0  0  0  0  0  0  0
    5.8299   -1.0844    1.3394 C   0  0  0  0  0  0  0  0  0  0  0  0
    4.6416   -1.4117    0.8244 C   0  0  0  0  0  0  0  0  0  0  0  0
    4.1963   -0.9285   -0.5570 C   0  0  0  0  0  0  0  0  0  0  0  0
    4.7138   -1.9709   -1.5791 C   0  0  0  0  0  0  0  0  0  0  0  0
    2.6159   -0.7453   -0.6538 C   0  0  0  0  0  0  0  0  0  0  0  0
    2.2552   -0.8273   -1.9944 F   0  0  0  0  0  0  0  0  0  0  0  0
    1.7546   -1.7868    0.1061 C   0  0  0  0  0  0  0  0  0  0  0  0
    2.1455   -3.1055   -0.1875 O   0  0  0  0  0  0  0  0  0  0  0  0
    0.2487   -1.6081   -0.2060 C   0  0  0  0  0  0  0  0  0  0  0  0
   -0.2819   -0.1154   -0.2426 C   0  0  0  0  0  0  0  0  0  0  0  0
   -0.6901    0.2547   -1.6958 C   0  0  0  0  0  0  0  0  0  0  0  0
   -2.3161    1.3319    0.4651 C   0  0  0  0  0  0  0  0  0  0  0  0
   -1.8939    2.4322    0.7993 O   0  0  0  0  0  0  0  0  0  0  0  0
   -3.6534    1.2459   -0.2322 C   0  0  0  0  0  0  0  0  0  0  0  0
   -3.9259    2.4281   -0.9939 O   0  0  0  0  0  0  0  0  0  0  0  0
   -4.3833    3.6223   -0.4197 C   0  0  0  0  0  0  0  0  0  0  0  0
   -4.6082    3.6966    0.8227 O   0  0  0  0  0  0  0  0  0  0  0  0
   -4.5823    4.8256   -1.2804 C   0  0  0  0  0  0  0  0  0  0  0  0
   -6.0273   -0.6215    1.1396 H   0  0  0  0  0  0  0  0  0  0  0  0
   -7.0890   -1.5476    0.0080 H   0  0  0  0  0  0  0  0  0  0  0  0
   -6.8780   -2.1031    1.7158 H   0  0  0  0  0  0  0  0  0  0  0  0
   -5.5582   -3.5165    0.1580 H   0  0  0  0  0  0  0  0  0  0  0  0
   -4.7131   -2.0748   -0.5058 H   0  0  0  0  0  0  0  0  0  0  0  0
   -3.4330   -3.4758    1.2807 H   0  0  0  0  0  0  0  0  0  0  0  0
   -4.6283   -2.9032    2.4907 H   0  0  0  0  0  0  0  0  0  0  0  0
   -1.3645    0.8073    2.8454 H   0  0  0  0  0  0  0  0  0  0  0  0
   -0.6038   -0.7965    2.5630 H   0  0  0  0  0  0  0  0  0  0  0  0
    1.3769    0.2921    2.3616 H   0  0  0  0  0  0  0  0  0  0  0  0
    0.5977    1.9047    2.2410 H   0  0  0  0  0  0  0  0  0  0  0  0
    0.4696    1.9117   -0.0123 H   0  0  0  0  0  0  0  0  0  0  0  0
    2.8777    0.8506    0.7839 H   0  0  0  0  0  0  0  0  0  0  0  0
    2.7799    2.7316   -0.6278 H   0  0  0  0  0  0  0  0  0  0  0  0
    1.9953    1.8447   -1.9695 H   0  0  0  0  0  0  0  0  0  0  0  0
    4.7003    2.3823   -1.8330 H   0  0  0  0  0  0  0  0  0  0  0  0
    6.5723    1.6626   -0.6695 H   0  0  0  0  0  0  0  0  0  0  0  0
    6.1696   -1.5473    2.2570 H   0  0  0  0  0  0  0  0  0  0  0  0
    4.0881   -2.1881    1.3284 H   0  0  0  0  0  0  0  0  0  0  0  0
    4.3276   -2.9881   -1.3679 H   0  0  0  0  0  0  0  0  0  0  0  0
    4.4431   -1.6954   -2.6210 H   0  0  0  0  0  0  0  0  0  0  0  0
    5.8226   -2.0364   -1.5348 H   0  0  0  0  0  0  0  0  0  0  0  0
    1.8869   -1.6413    1.1974 H   0  0  0  0  0  0  0  0  0  0  0  0
    2.0021   -3.2524   -1.1585 H   0  0  0  0  0  0  0  0  0  0  0  0
   -0.2883   -2.2208    0.5500 H   0  0  0  0  0  0  0  0  0  0  0  0
    0.0164   -2.1122   -1.1718 H   0  0  0  0  0  0  0  0  0  0  0  0
   -0.9998    1.3160   -1.7790 H   0  0  0  0  0  0  0  0  0  0  0  0
   -1.5403   -0.3788   -2.0318 H   0  0  0  0  0  0  0  0  0  0  0  0
    0.1429    0.1042   -2.4076 H   0  0  0  0  0  0  0  0  0  0  0  0
   -3.6512    0.3837   -0.9326 H   0  0  0  0  0  0  0  0  0  0  0  0
   -4.4600    1.0821    0.5158 H   0  0  0  0  0  0  0  0  0  0  0  0
   -4.4650    4.5575   -2.3545 H   0  0  0  0  0  0  0  0  0  0  0  0
   -5.5985    5.2385   -1.1155 H   0  0  0  0  0  0  0  0  0  0  0  0
   -3.8259    5.5941   -1.0151 H   0  0  0  0  0  0  0  0  0  0  0  0
  1  2  1  0
  2  3  1  0
  3  4  1  0
  4  5  2  0
  4  6  1  0
  6  7  1  0
  7  8  1  0
  8  9  1  0
  9 10  1  0
 10 11  1  0
 11 12  1  0
 12 13  1  0
 13 14  1  0
 13 15  1  0
 15 16  2  0
 16 17  1  0
 17 18  2  0
 17 19  1  0
 19 20  2  0
 20 21  1  0
 21 15  1  0
 21 22  1  0
 21 23  1  0
 23 11  1  0
 23 24  1  0
 23 25  1  0
 25 26  1  0
 25 27  1  0
 27 28  1  0
 28  7  1  0
 28 10  1  0
 28 29  1  0
  7 30  1  0
 30 31  2  0
 30 32  1  0
 32 33  1  0
 33 34  1  0
 34 35  2  0
 34 36  1  0
  1 37  1  0
  1 38  1  0
  1 39  1  0
  2 40  1  0
  2 41  1  0
  3 42  1  0
  3 43  1  0
  8 44  1  0
  8 45  1  0
  9 46  1  0
  9 47  1  0
 10 48  1  0
 11 49  1  0
 12 50  1  0
 12 51  1  0
 13 52  1  0
 16 53  1  0
 19 54  1  0
 20 55  1  0
 22 56  1  0
 22 57  1  0
 22 58  1  0
 25 59  1  0
 26 60  1  0
 27 61  1  0
 27 62  1  0
 29 63  1  0
 29 64  1  0
 29 65  1  0
 32 66  1  0
 32 67  1  0
 36 68  1  0
 36 69  1  0
 36 70  1  0
M  END
> <ID>
HT0663

> <Class>
0.0

> <Clusters>
109

> <Fold>
3

$$$$