
     RDKit          3D

 60 62  0  0  0  0  0  0  0  0999 V2000
   -6.8220   -2.3551    0.9566 C   0  0  0  0  0  0  0  0  0  0  0  0
   -6.8024   -1.0136    1.6824 C   0  0  0  0  0  0  0  0  0  0  0  0
   -6.0993   -0.0320    0.9201 O   0  0  0  0  0  0  0  0  0  0  0  0
   -4.7072    0.0174    0.7302 C   0  0  0  0  0  0  0  0  0  0  0  0
   -3.8195   -0.8123    1.4413 C   0  0  0  0  0  0  0  0  0  0  0  0
   -2.4441   -0.7300    1.2197 C   0  0  0  0  0  0  0  0  0  0  0  0
   -1.9301    0.1690    0.2737 C   0  0  0  0  0  0  0  0  0  0  0  0
   -0.4734    0.3034    0.0559 C   0  0  0  0  0  0  0  0  0  0  0  0
    0.3741   -0.7364   -0.0996 C   0  0  0  0  0  0  0  0  0  0  0  0
   -0.1289   -2.0728   -0.2956 N   0  0  0  0  0  0  0  0  0  0  0  0
    0.7937   -3.1994   -0.3987 C   0  0  0  0  0  0  0  0  0  0  0  0
    1.9696   -2.8200   -1.2991 C   0  0  0  0  0  0  0  0  0  0  0  0
    2.6298   -1.5597   -0.7927 C   0  0  0  0  0  0  0  0  0  0  0  0
    4.0188   -1.4103   -0.9031 C   0  0  0  0  0  0  0  0  0  0  0  0
    4.6575   -0.2536   -0.4216 C   0  0  0  0  0  0  0  0  0  0  0  0
    6.0476   -0.0639   -0.5179 O   0  0  0  0  0  0  0  0  0  0  0  0
    6.9923   -1.0277   -0.9842 C   0  0  0  0  0  0  0  0  0  0  0  0
    7.2359   -2.1011    0.0713 C   0  0  0  0  0  0  0  0  0  0  0  0
    3.8955    0.7581    0.1777 C   0  0  0  0  0  0  0  0  0  0  0  0
    4.5660    1.8939    0.6600 O   0  0  0  0  0  0  0  0  0  0  0  0
    3.9324    3.0047    1.2894 C   0  0  0  0  0  0  0  0  0  0  0  0
    4.9796    4.0428    1.6588 C   0  0  0  0  0  0  0  0  0  0  0  0
    2.4997    0.6121    0.2872 C   0  0  0  0  0  0  0  0  0  0  0  0
    1.8514   -0.5318   -0.2180 C   0  0  0  0  0  0  0  0  0  0  0  0
   -2.8076    1.0216   -0.4092 C   0  0  0  0  0  0  0  0  0  0  0  0
   -4.1975    0.9447   -0.1921 C   0  0  0  0  0  0  0  0  0  0  0  0
   -5.1047    1.7717   -0.8735 O   0  0  0  0  0  0  0  0  0  0  0  0
   -4.7370    2.7548   -1.8375 C   0  0  0  0  0  0  0  0  0  0  0  0
   -5.9866    3.4461   -2.3584 C   0  0  0  0  0  0  0  0  0  0  0  0
   -7.2842   -2.2347   -0.0460 H   0  0  0  0  0  0  0  0  0  0  0  0
   -7.4187   -3.0862    1.5414 H   0  0  0  0  0  0  0  0  0  0  0  0
   -5.7942   -2.7534    0.8340 H   0  0  0  0  0  0  0  0  0  0  0  0
   -7.8512   -0.6709    1.8059 H   0  0  0  0  0  0  0  0  0  0  0  0
   -6.3651   -1.1142    2.6982 H   0  0  0  0  0  0  0  0  0  0  0  0
   -4.1773   -1.5167    2.1782 H   0  0  0  0  0  0  0  0  0  0  0  0
   -1.7789   -1.3605    1.7969 H   0  0  0  0  0  0  0  0  0  0  0  0
   -0.1023    1.3162   -0.0214 H   0  0  0  0  0  0  0  0  0  0  0  0
   -1.1328   -2.2426   -0.5281 H   0  0  0  0  0  0  0  0  0  0  0  0
    1.1669   -3.4617    0.6152 H   0  0  0  0  0  0  0  0  0  0  0  0
    0.2671   -4.0831   -0.8194 H   0  0  0  0  0  0  0  0  0  0  0  0
    2.6917   -3.6650   -1.3271 H   0  0  0  0  0  0  0  0  0  0  0  0
    1.5998   -2.6422   -2.3319 H   0  0  0  0  0  0  0  0  0  0  0  0
    4.5904   -2.2005   -1.3685 H   0  0  0  0  0  0  0  0  0  0  0  0
    6.6615   -1.4775   -1.9439 H   0  0  0  0  0  0  0  0  0  0  0  0
    7.9530   -0.5061   -1.1788 H   0  0  0  0  0  0  0  0  0  0  0  0
    7.5976   -1.6314    1.0103 H   0  0  0  0  0  0  0  0  0  0  0  0
    6.3035   -2.6624    0.2853 H   0  0  0  0  0  0  0  0  0  0  0  0
    8.0050   -2.8142   -0.2930 H   0  0  0  0  0  0  0  0  0  0  0  0
    3.4131    2.6687    2.2130 H   0  0  0  0  0  0  0  0  0  0  0  0
    3.1964    3.4629    0.5937 H   0  0  0  0  0  0  0  0  0  0  0  0
    5.7203    3.6020    2.3592 H   0  0  0  0  0  0  0  0  0  0  0  0
    4.4907    4.9107    2.1495 H   0  0  0  0  0  0  0  0  0  0  0  0
    5.5050    4.3933    0.7452 H   0  0  0  0  0  0  0  0  0  0  0  0
    1.9295    1.3759    0.7925 H   0  0  0  0  0  0  0  0  0  0  0  0
   -2.4015    1.7342   -1.1152 H   0  0  0  0  0  0  0  0  0  0  0  0
   -4.0716    3.5119   -1.3688 H   0  0  0  0  0  0  0  0  0  0  0  0
   -4.2089    2.2703   -2.6872 H   0  0  0  0  0  0  0  0  0  0  0  0
   -6.6603    2.7030   -2.8353 H   0  0  0  0  0  0  0  0  0  0  0  0
   -6.5233    3.9408   -1.5213 H   0  0  0  0  0  0  0  0  0  0  0  0
   -5.7052    4.2132   -3.1104 H   0  0  0  0  0  0  0  0  0  0  0  0
  1  2  1  0
  2  3  1  0
  3  4  1  0
  4  5  2  0
  5  6  1  0
  6  7  2  0
  7  8  1  0
  8  9  2  3
  9 10  1  0
 10 11  1  0
 11 12  1  0
 12 13  1  0
 13 14  2  0
 14 15  1  0
 15 16  1  0
 16 17  1  0
 17 18  1  0
 15 19  2  0
 19 20  1  0
 20 21  1  0
 21 22  1  0
 19 23  1  0
 23 24  2  0
 24  9  1  0
 24 13  1  0
  7 25  1  0
 25 26  2  0
 26  4  1  0
 26 27  1  0
 27 28  1  0
 28 29  1  0
  1 30  1  0
  1 31  1  0
  1 32  1  0
  2 33  1  0
  2 34  1  0
  5 35  1  0
  6 36  1  0
  8 37  1  0
 10 38  1  0
 11 39  1  0
 11 40  1  0
 12 41  1  0
 12 42  1  0
 14 43  1  0
 17 44  1  0
 17 45  1  0
 18 46  1  0
 18 47  1  0
 18 48  1  0
 21 49  1  0
 21 50  1  0
 22 51  1  0
 22 52  1  0
 22 53  1  0
 23 54  1  0
 25 55  1  0
 28 56  1  0
 28 57  1  0
 29 58  1  0
 29 59  1  0
 29 60  1  0
M  END
> <ID>
HT0729

> <Class>
0.0

> <Clusters>
271

> <Fold>
3

$$$$