
     RDKit          3D

 32 33  0  0  0  0  0  0  0  0999 V2000
   -3.9432    1.5018   -0.6523 C   0  0  0  0  0  0  0  0  0  0  0  0
   -3.3368    0.2704   -0.1335 N   0  0  0  0  0  0  0  0  0  0  0  0
   -4.1540   -0.8585    0.2554 C   0  0  0  0  0  0  0  0  0  0  0  0
   -3.6079   -1.9782    0.4592 O   0  0  0  0  0  0  0  0  0  0  0  0
   -5.6556   -0.7647    0.3380 C   0  0  0  0  0  0  0  0  0  0  0  0
   -6.2956   -1.8436    1.6071 Cl  0  0  0  0  0  0  0  0  0  0  0  0
   -6.3677   -1.2229   -1.2274 Cl  0  0  0  0  0  0  0  0  0  0  0  0
   -1.9014    0.1744   -0.0535 C   0  0  0  0  0  0  0  0  0  0  0  0
   -1.2814   -0.1859    1.1529 C   0  0  0  0  0  0  0  0  0  0  0  0
    0.1109   -0.2800    1.2307 C   0  0  0  0  0  0  0  0  0  0  0  0
    0.9059   -0.0049    0.1122 C   0  0  0  0  0  0  0  0  0  0  0  0
    2.2982   -0.1224    0.2375 O   0  0  0  0  0  0  0  0  0  0  0  0
    3.2437    0.5899   -0.5125 C   0  0  0  0  0  0  0  0  0  0  0  0
    2.9179    1.6243   -1.1551 O   0  0  0  0  0  0  0  0  0  0  0  0
    4.6454    0.1612   -0.5026 C   0  0  0  0  0  0  0  0  0  0  0  0
    5.6078    0.7776   -1.1495 O   0  0  0  0  0  0  0  0  0  0  0  0
    6.7341    0.1383   -0.9309 C   0  0  0  0  0  0  0  0  0  0  0  0
    6.5022   -0.9439   -0.1058 C   0  0  0  0  0  0  0  0  0  0  0  0
    5.1522   -0.9312    0.1725 C   0  0  0  0  0  0  0  0  0  0  0  0
    0.2853    0.3371   -1.1036 C   0  0  0  0  0  0  0  0  0  0  0  0
   -1.1074    0.4308   -1.1823 C   0  0  0  0  0  0  0  0  0  0  0  0
   -3.1688    2.2373   -0.9580 H   0  0  0  0  0  0  0  0  0  0  0  0
   -4.5735    1.2706   -1.5364 H   0  0  0  0  0  0  0  0  0  0  0  0
   -4.5586    1.9832    0.1353 H   0  0  0  0  0  0  0  0  0  0  0  0
   -5.9797    0.2627    0.5944 H   0  0  0  0  0  0  0  0  0  0  0  0
   -1.8780   -0.3858    2.0341 H   0  0  0  0  0  0  0  0  0  0  0  0
    0.5758   -0.5584    2.1680 H   0  0  0  0  0  0  0  0  0  0  0  0
    7.6913    0.4285   -1.3428 H   0  0  0  0  0  0  0  0  0  0  0  0
    7.2324   -1.6580    0.2505 H   0  0  0  0  0  0  0  0  0  0  0  0
    4.6086   -1.6333    0.7910 H   0  0  0  0  0  0  0  0  0  0  0  0
    0.8682    0.5000   -1.9995 H   0  0  0  0  0  0  0  0  0  0  0  0
   -1.5698    0.6837   -2.1281 H   0  0  0  0  0  0  0  0  0  0  0  0
  1  2  1  0
  2  3  1  0
  3  4  2  0
  3  5  1  0
  5  6  1  0
  5  7  1  0
  2  8  1  0
  8  9  2  0
  9 10  1  0
 10 11  2  0
 11 12  1  0
 12 13  1  0
 13 14  2  0
 13 15  1  0
 15 16  1  0
 16 17  1  0
 17 18  2  0
 18 19  1  0
 19 15  2  0
 11 20  1  0
 20 21  2  0
 21  8  1  0
  1 22  1  0
  1 23  1  0
  1 24  1  0
  5 25  1  0
  9 26  1  0
 10 27  1  0
 17 28  1  0
 18 29  1  0
 19 30  1  0
 20 31  1  0
 21 32  1  0
M  END
> <ID>
HT0673

> <Class>
0.0

> <Clusters>
56

> <Fold>
3

$$$$