
     RDKit          3D

 66 69  0  0  0  0  0  0  0  0999 V2000
    5.0541    3.3510   -2.4244 C   0  0  0  0  0  0  0  0  0  0  0  0
    5.3141    3.1393   -0.9374 C   0  0  0  0  0  0  0  0  0  0  0  0
    4.3825    2.2091   -0.3908 O   0  0  0  0  0  0  0  0  0  0  0  0
    4.4371    0.8289   -0.6254 C   0  0  0  0  0  0  0  0  0  0  0  0
    5.3865    0.3392   -1.2993 O   0  0  0  0  0  0  0  0  0  0  0  0
    3.3169   -0.0790   -0.1386 C   0  0  0  0  0  0  0  0  0  0  0  0
    2.4071   -0.3573   -1.3793 C   0  0  0  0  0  0  0  0  0  0  0  0
    0.9515   -0.6209   -0.9652 C   0  0  0  0  0  0  0  0  0  0  0  0
    0.3321    0.5711   -0.3252 N   0  0  0  0  0  0  0  0  0  0  0  0
   -0.8079    0.1974    0.5425 C   0  0  0  0  0  0  0  0  0  0  0  0
   -1.9679   -0.4136   -0.2779 C   0  0  0  0  0  0  0  0  0  0  0  0
   -3.2897   -0.6100    0.5316 C   0  0  0  0  0  0  0  0  0  0  0  0
   -2.9942   -1.5562    1.6355 C   0  0  0  0  0  0  0  0  0  0  0  0
   -2.7633   -2.2971    2.4946 N   0  0  0  0  0  0  0  0  0  0  0  0
   -3.7806    0.7571    1.0418 C   0  0  0  0  0  0  0  0  0  0  0  0
   -4.2086    1.7260    0.1081 C   0  0  0  0  0  0  0  0  0  0  0  0
   -4.6479    2.9836    0.5292 C   0  0  0  0  0  0  0  0  0  0  0  0
   -4.6680    3.3000    1.8875 C   0  0  0  0  0  0  0  0  0  0  0  0
   -4.2483    2.3592    2.8282 C   0  0  0  0  0  0  0  0  0  0  0  0
   -3.8069    1.0985    2.4151 C   0  0  0  0  0  0  0  0  0  0  0  0
   -4.4203   -1.2483   -0.2949 C   0  0  0  0  0  0  0  0  0  0  0  0
   -5.6696   -1.4812    0.3246 C   0  0  0  0  0  0  0  0  0  0  0  0
   -6.7307   -2.0486   -0.3852 C   0  0  0  0  0  0  0  0  0  0  0  0
   -6.5698   -2.3941   -1.7263 C   0  0  0  0  0  0  0  0  0  0  0  0
   -5.3478   -2.1717   -2.3608 C   0  0  0  0  0  0  0  0  0  0  0  0
   -4.2804   -1.6037   -1.6582 C   0  0  0  0  0  0  0  0  0  0  0  0
    1.3056    1.4303    0.4015 C   0  0  0  0  0  0  0  0  0  0  0  0
    2.4795    0.6238    0.9796 C   0  0  0  0  0  0  0  0  0  0  0  0
    3.9489   -1.3429    0.4826 C   0  0  0  0  0  0  0  0  0  0  0  0
    4.9175   -1.1880    1.5007 C   0  0  0  0  0  0  0  0  0  0  0  0
    5.5090   -2.2981    2.1088 C   0  0  0  0  0  0  0  0  0  0  0  0
    5.1393   -3.5856    1.7246 C   0  0  0  0  0  0  0  0  0  0  0  0
    4.1702   -3.7652    0.7385 C   0  0  0  0  0  0  0  0  0  0  0  0
    3.5722   -2.6596    0.1256 C   0  0  0  0  0  0  0  0  0  0  0  0
    5.7505    4.1204   -2.8187 H   0  0  0  0  0  0  0  0  0  0  0  0
    5.2111    2.4067   -2.9871 H   0  0  0  0  0  0  0  0  0  0  0  0
    4.0100    3.6964   -2.5793 H   0  0  0  0  0  0  0  0  0  0  0  0
    5.1900    4.1110   -0.4144 H   0  0  0  0  0  0  0  0  0  0  0  0
    6.3549    2.7876   -0.7698 H   0  0  0  0  0  0  0  0  0  0  0  0
    2.8026   -1.1795   -2.0111 H   0  0  0  0  0  0  0  0  0  0  0  0
    2.3880    0.5311   -2.0523 H   0  0  0  0  0  0  0  0  0  0  0  0
    0.9199   -1.5025   -0.2878 H   0  0  0  0  0  0  0  0  0  0  0  0
    0.3757   -0.8760   -1.8803 H   0  0  0  0  0  0  0  0  0  0  0  0
   -1.1933    1.1075    1.0492 H   0  0  0  0  0  0  0  0  0  0  0  0
   -0.4770   -0.5116    1.3339 H   0  0  0  0  0  0  0  0  0  0  0  0
   -1.6361   -1.4023   -0.6642 H   0  0  0  0  0  0  0  0  0  0  0  0
   -2.1540    0.2474   -1.1523 H   0  0  0  0  0  0  0  0  0  0  0  0
   -4.2071    1.5058   -0.9521 H   0  0  0  0  0  0  0  0  0  0  0  0
   -4.9735    3.7136   -0.2005 H   0  0  0  0  0  0  0  0  0  0  0  0
   -5.0079    4.2754    2.2114 H   0  0  0  0  0  0  0  0  0  0  0  0
   -4.2614    2.6083    3.8818 H   0  0  0  0  0  0  0  0  0  0  0  0
   -3.4815    0.4043    3.1772 H   0  0  0  0  0  0  0  0  0  0  0  0
   -5.8211   -1.2190    1.3648 H   0  0  0  0  0  0  0  0  0  0  0  0
   -7.6798   -2.2200    0.1062 H   0  0  0  0  0  0  0  0  0  0  0  0
   -7.3933   -2.8332   -2.2746 H   0  0  0  0  0  0  0  0  0  0  0  0
   -5.2264   -2.4387   -3.4030 H   0  0  0  0  0  0  0  0  0  0  0  0
   -3.3588   -1.4488   -2.1989 H   0  0  0  0  0  0  0  0  0  0  0  0
    0.8246    2.0059    1.2233 H   0  0  0  0  0  0  0  0  0  0  0  0
    1.6985    2.1932   -0.3038 H   0  0  0  0  0  0  0  0  0  0  0  0
    3.1168    1.2860    1.6058 H   0  0  0  0  0  0  0  0  0  0  0  0
    2.0480   -0.1332    1.6725 H   0  0  0  0  0  0  0  0  0  0  0  0
    5.2175   -0.1995    1.8254 H   0  0  0  0  0  0  0  0  0  0  0  0
    6.2536   -2.1583    2.8818 H   0  0  0  0  0  0  0  0  0  0  0  0
    5.5985   -4.4446    2.1966 H   0  0  0  0  0  0  0  0  0  0  0  0
    3.8759   -4.7660    0.4499 H   0  0  0  0  0  0  0  0  0  0  0  0
    2.8125   -2.8605   -0.6129 H   0  0  0  0  0  0  0  0  0  0  0  0
  1  2  1  0
  2  3  1  0
  3  4  1  0
  4  5  2  0
  4  6  1  0
  6  7  1  0
  7  8  1  0
  8  9  1  0
  9 10  1  0
 10 11  1  0
 11 12  1  0
 12 13  1  0
 13 14  3  0
 12 15  1  0
 15 16  2  0
 16 17  1  0
 17 18  2  0
 18 19  1  0
 19 20  2  0
 20 15  1  0
 12 21  1  0
 21 22  2  0
 22 23  1  0
 23 24  2  0
 24 25  1  0
 25 26  2  0
 26 21  1  0
  9 27  1  0
 27 28  1  0
 28  6  1  0
  6 29  1  0
 29 30  2  0
 30 31  1  0
 31 32  2  0
 32 33  1  0
 33 34  2  0
 34 29  1  0
  1 35  1  0
  1 36  1  0
  1 37  1  0
  2 38  1  0
  2 39  1  0
  7 40  1  0
  7 41  1  0
  8 42  1  0
  8 43  1  0
 10 44  1  0
 10 45  1  0
 11 46  1  0
 11 47  1  0
 16 48  1  0
 17 49  1  0
 18 50  1  0
 19 51  1  0
 20 52  1  0
 22 53  1  0
 23 54  1  0
 24 55  1  0
 25 56  1  0
 26 57  1  0
 27 58  1  0
 27 59  1  0
 28 60  1  0
 28 61  1  0
 30 62  1  0
 31 63  1  0
 32 64  1  0
 33 65  1  0
 34 66  1  0
M  END
> <ID>
HT0688

> <Class>
0.0

> <Clusters>
156

> <Fold>
3

$$$$