
     RDKit          3D

 53 55  0  0  0  0  0  0  0  0999 V2000
    7.8884    0.9528    0.1319 C   0  0  0  0  0  0  0  0  0  0  0  0
    6.3781    1.1080   -0.0224 C   0  0  0  0  0  0  0  0  0  0  0  0
    5.7025   -0.2531   -0.2437 C   0  0  0  0  0  0  0  0  0  0  0  0
    4.1989   -0.1254   -0.5335 C   0  0  0  0  0  0  0  0  0  0  0  0
    3.3923    0.3046    0.7016 C   0  0  0  0  0  0  0  0  0  0  0  0
    1.9125    0.2695    0.4166 C   0  0  0  0  0  0  0  0  0  0  0  0
    1.3378    1.2124   -0.4469 C   0  0  0  0  0  0  0  0  0  0  0  0
   -0.0381    1.1930   -0.7136 C   0  0  0  0  0  0  0  0  0  0  0  0
   -0.5742    2.1026   -1.6254 O   0  0  0  0  0  0  0  0  0  0  0  0
   -0.8693    0.2473   -0.0730 C   0  0  0  0  0  0  0  0  0  0  0  0
   -2.3712    0.2119   -0.3275 C   0  0  2  0  0  0  0  0  0  0  0  0
   -3.0330    1.5647   -0.1657 C   0  0  0  0  0  0  0  0  0  0  0  0
   -4.3767    1.6411   -0.1886 C   0  0  0  0  0  0  0  0  0  0  0  0
   -5.0590    2.9568    0.0642 C   0  0  0  0  0  0  0  0  0  0  0  0
   -5.1837    0.3850   -0.4571 C   0  0  0  0  0  0  0  0  0  0  0  0
   -4.6229   -0.8616    0.2750 C   0  0  0  0  0  0  0  0  0  0  0  0
   -3.1109   -0.7509    0.6386 C   0  0  1  0  0  0  0  0  0  0  0  0
   -2.3563   -2.1032    0.8011 C   0  0  0  0  0  0  0  0  0  0  0  0
   -3.0244   -2.9720    1.8800 C   0  0  0  0  0  0  0  0  0  0  0  0
   -2.2613   -2.9118   -0.5114 C   0  0  0  0  0  0  0  0  0  0  0  0
   -1.0291   -1.8105    1.2443 O   0  0  0  0  0  0  0  0  0  0  0  0
   -0.2698   -0.7549    0.7231 C   0  0  0  0  0  0  0  0  0  0  0  0
    1.1005   -0.7164    0.9928 C   0  0  0  0  0  0  0  0  0  0  0  0
    8.3273    0.5095   -0.7872 H   0  0  0  0  0  0  0  0  0  0  0  0
    8.1222    0.3020    1.0013 H   0  0  0  0  0  0  0  0  0  0  0  0
    8.3493    1.9490    0.2998 H   0  0  0  0  0  0  0  0  0  0  0  0
    6.1730    1.7762   -0.8869 H   0  0  0  0  0  0  0  0  0  0  0  0
    5.9799    1.5866    0.8970 H   0  0  0  0  0  0  0  0  0  0  0  0
    6.1780   -0.7520   -1.1167 H   0  0  0  0  0  0  0  0  0  0  0  0
    5.8618   -0.9043    0.6437 H   0  0  0  0  0  0  0  0  0  0  0  0
    3.8288   -1.1184   -0.8720 H   0  0  0  0  0  0  0  0  0  0  0  0
    4.0391    0.5941   -1.3661 H   0  0  0  0  0  0  0  0  0  0  0  0
    3.6700    1.3358    1.0063 H   0  0  0  0  0  0  0  0  0  0  0  0
    3.6363   -0.3717    1.5502 H   0  0  0  0  0  0  0  0  0  0  0  0
    1.9624    1.9605   -0.9198 H   0  0  0  0  0  0  0  0  0  0  0  0
    0.0046    2.7863   -2.0989 H   0  0  0  0  0  0  0  0  0  0  0  0
   -2.5281   -0.1248   -1.3758 H   0  0  0  0  0  0  0  0  0  0  0  0
   -2.4467    2.4491    0.0687 H   0  0  0  0  0  0  0  0  0  0  0  0
   -6.1622    2.8574   -0.0062 H   0  0  0  0  0  0  0  0  0  0  0  0
   -4.8012    3.3236    1.0802 H   0  0  0  0  0  0  0  0  0  0  0  0
   -4.7260    3.7025   -0.6882 H   0  0  0  0  0  0  0  0  0  0  0  0
   -5.1546    0.1964   -1.5524 H   0  0  0  0  0  0  0  0  0  0  0  0
   -6.2495    0.5290   -0.1778 H   0  0  0  0  0  0  0  0  0  0  0  0
   -5.2006   -1.0140    1.2131 H   0  0  0  0  0  0  0  0  0  0  0  0
   -4.8191   -1.7449   -0.3642 H   0  0  0  0  0  0  0  0  0  0  0  0
   -3.0745   -0.2676    1.6451 H   0  0  0  0  0  0  0  0  0  0  0  0
   -2.4203   -3.8861    2.0654 H   0  0  0  0  0  0  0  0  0  0  0  0
   -4.0431   -3.2856    1.5678 H   0  0  0  0  0  0  0  0  0  0  0  0
   -3.1007   -2.4119    2.8365 H   0  0  0  0  0  0  0  0  0  0  0  0
   -1.7731   -2.3237   -1.3147 H   0  0  0  0  0  0  0  0  0  0  0  0
   -1.6420   -3.8196   -0.3476 H   0  0  0  0  0  0  0  0  0  0  0  0
   -3.2573   -3.2459   -0.8653 H   0  0  0  0  0  0  0  0  0  0  0  0
    1.5349   -1.4779    1.6290 H   0  0  0  0  0  0  0  0  0  0  0  0
  1  2  1  0
  2  3  1  0
  3  4  1  0
  4  5  1  0
  5  6  1  0
  6  7  2  0
  7  8  1  0
  8  9  1  0
  8 10  2  0
 10 11  1  0
 11 12  1  0
 12 13  2  0
 13 14  1  0
 13 15  1  0
 15 16  1  0
 17 16  1  0
 17 11  1  0
 17 18  1  0
 18 19  1  0
 18 20  1  0
 18 21  1  0
 21 22  1  0
 22 10  1  0
 22 23  2  0
 23  6  1  0
  1 24  1  0
  1 25  1  0
  1 26  1  0
  2 27  1  0
  2 28  1  0
  3 29  1  0
  3 30  1  0
  4 31  1  0
  4 32  1  0
  5 33  1  0
  5 34  1  0
  7 35  1  0
  9 36  1  0
 11 37  1  6
 12 38  1  0
 14 39  1  0
 14 40  1  0
 14 41  1  0
 15 42  1  0
 15 43  1  0
 16 44  1  0
 16 45  1  0
 17 46  1  1
 19 47  1  0
 19 48  1  0
 19 49  1  0
 20 50  1  0
 20 51  1  0
 20 52  1  0
 23 53  1  0
M  END
> <ID>
HT0724

> <Class>
0.0

> <Clusters>
87

> <Fold>
3

$$$$