
     RDKit          3D

 19 19  0  0  0  0  0  0  0  0999 V2000
   -1.9669   -1.0573    0.2597 C   0  0  0  0  0  0  0  0  0  0  0  0
   -0.5442   -0.7507    0.0464 N   0  0  0  0  0  0  0  0  0  0  0  0
    0.3145   -1.7990   -0.1510 C   0  0  0  0  0  0  0  0  0  0  0  0
    1.6734   -1.5852   -0.3591 C   0  0  0  0  0  0  0  0  0  0  0  0
    2.1700   -0.2879   -0.3674 C   0  0  0  0  0  0  0  0  0  0  0  0
    3.4004   -0.0911   -0.5557 O   0  0  0  0  0  0  0  0  0  0  0  0
    1.3068    0.7919   -0.1676 C   0  0  0  0  0  0  0  0  0  0  0  0
   -0.0743    0.5496    0.0426 C   0  0  0  0  0  0  0  0  0  0  0  0
   -0.9938    1.7348    0.2574 C   0  0  0  0  0  0  0  0  0  0  0  0
    1.8445    2.0836   -0.1828 O   0  0  0  0  0  0  0  0  0  0  0  0
   -2.2892   -0.6882    1.2566 H   0  0  0  0  0  0  0  0  0  0  0  0
   -2.5800   -0.5883   -0.5391 H   0  0  0  0  0  0  0  0  0  0  0  0
   -2.1693   -2.1501    0.2317 H   0  0  0  0  0  0  0  0  0  0  0  0
   -0.0457   -2.8212   -0.1495 H   0  0  0  0  0  0  0  0  0  0  0  0
    2.3355   -2.4287   -0.5132 H   0  0  0  0  0  0  0  0  0  0  0  0
   -0.9552    2.4000   -0.6308 H   0  0  0  0  0  0  0  0  0  0  0  0
   -0.6661    2.3007    1.1547 H   0  0  0  0  0  0  0  0  0  0  0  0
   -2.0544    1.4658    0.4142 H   0  0  0  0  0  0  0  0  0  0  0  0
    1.2940    2.9212   -0.0471 H   0  0  0  0  0  0  0  0  0  0  0  0
  1  2  1  0
  2  3  1  0
  3  4  2  0
  4  5  1  0
  5  6  2  0
  5  7  1  0
  7  8  2  0
  8  2  1  0
  8  9  1  0
  7 10  1  0
  1 11  1  0
  1 12  1  0
  1 13  1  0
  3 14  1  0
  4 15  1  0
  9 16  1  0
  9 17  1  0
  9 18  1  0
 10 19  1  0
M  END
> <ID>
HT0600

> <Class>
0.0

> <Clusters>
247

> <Fold>
3

$$$$