
     RDKit          3D

 36 37  0  0  0  0  0  0  0  0999 V2000
   -1.7241    3.9028   -1.1371 C   0  0  0  0  0  0  0  0  0  0  0  0
   -1.2620    2.5602   -1.2176 O   0  0  0  0  0  0  0  0  0  0  0  0
   -0.7882    1.8591   -0.1048 C   0  0  0  0  0  0  0  0  0  0  0  0
   -0.7754    2.4027    1.0347 O   0  0  0  0  0  0  0  0  0  0  0  0
   -0.3373    0.4312   -0.2742 C   0  0  1  0  0  0  0  0  0  0  0  0
    0.9539    0.1262    0.5327 C   0  0  1  0  0  0  0  0  0  0  0  0
    1.4051   -1.3508    0.3500 C   0  0  0  0  0  0  0  0  0  0  0  0
    2.9066   -1.4953    0.5949 C   0  0  0  0  0  0  0  0  0  0  0  0
    3.7117   -0.6301   -0.3886 C   0  0  0  0  0  0  0  0  0  0  0  0
    2.9245    0.6049   -0.8671 C   0  0  0  0  0  0  0  0  0  0  0  0
    2.0137    1.1002    0.1744 N   0  0  0  0  0  0  0  0  0  0  0  0
   -1.4749   -0.5104    0.0808 C   0  0  0  0  0  0  0  0  0  0  0  0
   -2.0190   -1.3582   -0.9018 C   0  0  0  0  0  0  0  0  0  0  0  0
   -3.0611   -2.2341   -0.5835 C   0  0  0  0  0  0  0  0  0  0  0  0
   -3.5719   -2.2734    0.7157 C   0  0  0  0  0  0  0  0  0  0  0  0
   -3.0419   -1.4363    1.6999 C   0  0  0  0  0  0  0  0  0  0  0  0
   -1.9997   -0.5585    1.3876 C   0  0  0  0  0  0  0  0  0  0  0  0
   -2.5892    3.9660   -0.4435 H   0  0  0  0  0  0  0  0  0  0  0  0
   -2.0453    4.2389   -2.1443 H   0  0  0  0  0  0  0  0  0  0  0  0
   -0.9073    4.5651   -0.7797 H   0  0  0  0  0  0  0  0  0  0  0  0
   -0.0847    0.3050   -1.3507 H   0  0  0  0  0  0  0  0  0  0  0  0
    0.7244    0.2601    1.6147 H   0  0  0  0  0  0  0  0  0  0  0  0
    0.8509   -2.0036    1.0592 H   0  0  0  0  0  0  0  0  0  0  0  0
    1.1792   -1.7064   -0.6801 H   0  0  0  0  0  0  0  0  0  0  0  0
    3.2039   -2.5608    0.4871 H   0  0  0  0  0  0  0  0  0  0  0  0
    3.1340   -1.1840    1.6384 H   0  0  0  0  0  0  0  0  0  0  0  0
    3.9945   -1.2387   -1.2751 H   0  0  0  0  0  0  0  0  0  0  0  0
    4.6517   -0.3029    0.1068 H   0  0  0  0  0  0  0  0  0  0  0  0
    3.6360    1.4112   -1.1469 H   0  0  0  0  0  0  0  0  0  0  0  0
    2.3434    0.3520   -1.7811 H   0  0  0  0  0  0  0  0  0  0  0  0
    2.5790    1.3249    1.0276 H   0  0  0  0  0  0  0  0  0  0  0  0
   -1.6357   -1.3452   -1.9144 H   0  0  0  0  0  0  0  0  0  0  0  0
   -3.4726   -2.8836   -1.3453 H   0  0  0  0  0  0  0  0  0  0  0  0
   -4.3786   -2.9524    0.9598 H   0  0  0  0  0  0  0  0  0  0  0  0
   -3.4389   -1.4673    2.7063 H   0  0  0  0  0  0  0  0  0  0  0  0
   -1.6045    0.0817    2.1653 H   0  0  0  0  0  0  0  0  0  0  0  0
  1  2  1  0
  2  3  1  0
  3  4  2  0
  5  3  1  0
  6  5  1  0
  6  7  1  0
  7  8  1  0
  8  9  1  0
  9 10  1  0
 10 11  1  0
 11  6  1  0
  5 12  1  0
 12 13  2  0
 13 14  1  0
 14 15  2  0
 15 16  1  0
 16 17  2  0
 17 12  1  0
  1 18  1  0
  1 19  1  0
  1 20  1  0
  5 21  1  6
  6 22  1  1
  7 23  1  0
  7 24  1  0
  8 25  1  0
  8 26  1  0
  9 27  1  0
  9 28  1  0
 10 29  1  0
 10 30  1  0
 11 31  1  0
 13 32  1  0
 14 33  1  0
 15 34  1  0
 16 35  1  0
 17 36  1  0
M  END
> <ID>
HT0625

> <Class>
0.0

> <Clusters>
24

> <Fold>
3

$$$$