
     RDKit          3D

 57 63  0  0  0  0  0  0  0  0999 V2000
    3.0525   -1.0491   -1.8528 C   0  0  0  0  0  0  0  0  0  0  0  0
    2.6550   -0.6026   -0.4137 C   0  0  0  0  0  0  0  0  0  0  0  0
    3.2286   -1.6601    0.5890 C   0  0  0  0  0  0  0  0  0  0  0  0
    4.7569   -1.7932    0.5493 C   0  0  0  0  0  0  0  0  0  0  0  0
    5.4193   -0.4516    0.5082 C   0  0  0  0  0  0  0  0  0  0  0  0
    6.6616   -0.3687    0.6975 O   0  0  0  0  0  0  0  0  0  0  0  0
    4.6448    0.7708    0.2447 C   0  0  0  0  0  0  0  0  0  0  0  0
    3.3529    0.7388   -0.1380 C   0  0  0  0  0  0  0  0  0  0  0  0
    2.6829    2.0787   -0.3213 C   0  0  0  0  0  0  0  0  0  0  0  0
    1.6927    2.2476   -1.4696 C   0  0  0  0  0  0  0  0  0  0  0  0
    1.2005    2.1255   -0.0340 C   0  0  0  0  0  0  0  0  0  0  0  0
    0.5068    0.8158    0.3969 C   0  0  0  0  0  0  0  0  0  0  0  0
    1.0714   -0.5356   -0.1957 C   0  0  0  0  0  0  0  0  0  0  0  0
    0.1946   -1.1151   -1.3613 C   0  0  0  0  0  0  0  0  0  0  0  0
   -1.3312   -1.2376   -1.0546 C   0  0  0  0  0  0  0  0  0  0  0  0
   -1.7982   -0.3720    0.1606 C   0  0  0  0  0  0  0  0  0  0  0  0
   -1.5655   -1.1906    1.4906 C   0  0  0  0  0  0  0  0  0  0  0  0
   -1.0068    0.9490    0.0999 C   0  0  0  0  0  0  0  0  0  0  0  0
   -1.7964    2.0404    0.8396 C   0  0  0  0  0  0  0  0  0  0  0  0
   -2.5636    1.7624    2.1266 C   0  0  0  0  0  0  0  0  0  0  0  0
   -3.2510    1.5669    0.7811 C   0  0  0  0  0  0  0  0  0  0  0  0
   -3.2597    0.1895    0.0655 C   0  0  0  0  0  0  0  0  0  0  0  0
   -4.3975   -0.7437    0.5798 C   0  0  0  0  0  0  0  0  0  0  0  0
   -5.5247   -0.6811   -0.4566 C   0  0  0  0  0  0  0  0  0  0  0  0
   -4.8700   -0.0125   -1.5923 C   0  0  0  0  0  0  0  0  0  0  0  0
   -5.4033    0.1484   -2.7208 O   0  0  0  0  0  0  0  0  0  0  0  0
   -3.6129    0.4546   -1.2870 O   0  0  0  0  0  0  0  0  0  0  0  0
    4.1474   -0.9622   -2.0161 H   0  0  0  0  0  0  0  0  0  0  0  0
    2.7839   -2.1110   -2.0328 H   0  0  0  0  0  0  0  0  0  0  0  0
    2.5803   -0.4304   -2.6371 H   0  0  0  0  0  0  0  0  0  0  0  0
    2.7816   -2.6600    0.3919 H   0  0  0  0  0  0  0  0  0  0  0  0
    2.9416   -1.3697    1.6255 H   0  0  0  0  0  0  0  0  0  0  0  0
    5.0723   -2.3867   -0.3350 H   0  0  0  0  0  0  0  0  0  0  0  0
    5.0906   -2.3380    1.4588 H   0  0  0  0  0  0  0  0  0  0  0  0
    5.1503    1.7206    0.3800 H   0  0  0  0  0  0  0  0  0  0  0  0
    3.2217    3.0082   -0.0327 H   0  0  0  0  0  0  0  0  0  0  0  0
    1.6315    3.2822   -1.8676 H   0  0  0  0  0  0  0  0  0  0  0  0
    1.4956    1.3844   -2.1181 H   0  0  0  0  0  0  0  0  0  0  0  0
    0.8669    3.0792    0.4290 H   0  0  0  0  0  0  0  0  0  0  0  0
    0.6489    0.7843    1.4985 H   0  0  0  0  0  0  0  0  0  0  0  0
    0.8586   -1.2691    0.6068 H   0  0  0  0  0  0  0  0  0  0  0  0
    0.3084   -0.4841   -2.2649 H   0  0  0  0  0  0  0  0  0  0  0  0
    0.5548   -2.1316   -1.6256 H   0  0  0  0  0  0  0  0  0  0  0  0
   -1.6032   -2.3044   -0.9004 H   0  0  0  0  0  0  0  0  0  0  0  0
   -1.8654   -0.9505   -1.9832 H   0  0  0  0  0  0  0  0  0  0  0  0
   -1.2790   -2.2450    1.2946 H   0  0  0  0  0  0  0  0  0  0  0  0
   -0.7714   -0.7670    2.1320 H   0  0  0  0  0  0  0  0  0  0  0  0
   -2.4577   -1.2476    2.1422 H   0  0  0  0  0  0  0  0  0  0  0  0
   -1.0584    1.2927   -0.9632 H   0  0  0  0  0  0  0  0  0  0  0  0
   -1.6972    3.0985    0.5140 H   0  0  0  0  0  0  0  0  0  0  0  0
   -2.8716    2.6894    2.6535 H   0  0  0  0  0  0  0  0  0  0  0  0
   -2.2556    0.8856    2.7108 H   0  0  0  0  0  0  0  0  0  0  0  0
   -3.9584    2.3614    0.4579 H   0  0  0  0  0  0  0  0  0  0  0  0
   -4.7641   -0.4432    1.5858 H   0  0  0  0  0  0  0  0  0  0  0  0
   -4.0477   -1.7982    0.6229 H   0  0  0  0  0  0  0  0  0  0  0  0
   -6.3736   -0.0644   -0.0916 H   0  0  0  0  0  0  0  0  0  0  0  0
   -5.8707   -1.6979   -0.7425 H   0  0  0  0  0  0  0  0  0  0  0  0
  1  2  1  0
  2  3  1  0
  3  4  1  0
  4  5  1  0
  5  6  2  0
  5  7  1  0
  7  8  2  0
  8  2  1  0
  8  9  1  0
  9 10  1  0
 10 11  1  0
 11  9  1  0
 11 12  1  0
 12 13  1  0
 13  2  1  0
 13 14  1  0
 14 15  1  0
 15 16  1  0
 16 17  1  0
 16 18  1  0
 18 12  1  0
 18 19  1  0
 19 20  1  0
 20 21  1  0
 21 19  1  0
 21 22  1  0
 22 16  1  0
 22 23  1  0
 23 24  1  0
 24 25  1  0
 25 26  2  0
 25 27  1  0
 27 22  1  0
  1 28  1  0
  1 29  1  0
  1 30  1  0
  3 31  1  0
  3 32  1  0
  4 33  1  0
  4 34  1  0
  7 35  1  0
  9 36  1  0
 10 37  1  0
 10 38  1  0
 11 39  1  0
 12 40  1  0
 13 41  1  0
 14 42  1  0
 14 43  1  0
 15 44  1  0
 15 45  1  0
 17 46  1  0
 17 47  1  0
 17 48  1  0
 18 49  1  0
 19 50  1  0
 20 51  1  0
 20 52  1  0
 21 53  1  0
 23 54  1  0
 23 55  1  0
 24 56  1  0
 24 57  1  0
M  END
> <ID>
HT0727

> <Class>
0.0

> <Clusters>
167

> <Fold>
3

$$$$