
     RDKit          3D

 39 40  0  0  0  0  0  0  0  0999 V2000
    4.1592   -1.0374   -1.1114 C   0  0  0  0  0  0  0  0  0  0  0  0
    3.8332    0.2899   -0.3976 C   0  0  0  0  0  0  0  0  0  0  0  0
    3.3239    1.3657   -1.3779 C   0  0  0  0  0  0  0  0  0  0  0  0
    2.8972    0.0841    0.6755 O   0  0  0  0  0  0  0  0  0  0  0  0
    1.5516   -0.3366    0.6543 C   0  0  0  0  0  0  0  0  0  0  0  0
    0.8818   -0.3681    1.8831 C   0  0  0  0  0  0  0  0  0  0  0  0
   -0.4567   -0.7600    1.9656 C   0  0  0  0  0  0  0  0  0  0  0  0
   -1.1582   -1.1436    0.8091 C   0  0  0  0  0  0  0  0  0  0  0  0
   -0.4895   -1.1145   -0.4245 C   0  0  0  0  0  0  0  0  0  0  0  0
    0.8489   -0.7187   -0.5054 C   0  0  0  0  0  0  0  0  0  0  0  0
   -2.6249   -1.5341    0.8429 C   0  0  0  0  0  0  0  0  0  0  0  0
   -3.0486   -1.9066    2.1327 O   0  0  0  0  0  0  0  0  0  0  0  0
   -3.4991   -0.4337    0.2664 C   0  0  0  0  0  0  0  0  0  0  0  0
   -3.4645    0.8696    0.7973 C   0  0  0  0  0  0  0  0  0  0  0  0
   -4.2756    1.8742    0.2629 C   0  0  0  0  0  0  0  0  0  0  0  0
   -5.1347    1.5891   -0.8029 C   0  0  0  0  0  0  0  0  0  0  0  0
   -6.1623    2.8482   -1.4673 Cl  0  0  0  0  0  0  0  0  0  0  0  0
   -5.1790    0.2976   -1.3346 C   0  0  0  0  0  0  0  0  0  0  0  0
   -4.3637   -0.7084   -0.8092 C   0  0  0  0  0  0  0  0  0  0  0  0
    5.1131    0.8027    0.2273 C   0  0  0  0  0  0  0  0  0  0  0  0
    6.1096    1.0803   -0.4947 O   0  0  0  0  0  0  0  0  0  0  0  0
    5.2032    0.9696    1.6071 O   0  0  0  0  0  0  0  0  0  0  0  0
    3.2980   -1.4532   -1.6619 H   0  0  0  0  0  0  0  0  0  0  0  0
    4.9736   -0.8940   -1.8524 H   0  0  0  0  0  0  0  0  0  0  0  0
    4.4920   -1.7942   -0.3701 H   0  0  0  0  0  0  0  0  0  0  0  0
    2.4415    1.0367   -1.9549 H   0  0  0  0  0  0  0  0  0  0  0  0
    3.0485    2.2867   -0.8196 H   0  0  0  0  0  0  0  0  0  0  0  0
    4.1109    1.6253   -2.1195 H   0  0  0  0  0  0  0  0  0  0  0  0
    1.4042   -0.0768    2.7859 H   0  0  0  0  0  0  0  0  0  0  0  0
   -0.9334   -0.7567    2.9361 H   0  0  0  0  0  0  0  0  0  0  0  0
   -1.0121   -1.3932   -1.3318 H   0  0  0  0  0  0  0  0  0  0  0  0
    1.2975   -0.7201   -1.4798 H   0  0  0  0  0  0  0  0  0  0  0  0
   -2.7287   -2.4430    0.2114 H   0  0  0  0  0  0  0  0  0  0  0  0
   -3.1966   -1.0849    2.6677 H   0  0  0  0  0  0  0  0  0  0  0  0
   -2.8089    1.1091    1.6256 H   0  0  0  0  0  0  0  0  0  0  0  0
   -4.2397    2.8721    0.6809 H   0  0  0  0  0  0  0  0  0  0  0  0
   -5.8511    0.0697   -2.1536 H   0  0  0  0  0  0  0  0  0  0  0  0
   -4.4166   -1.7036   -1.2333 H   0  0  0  0  0  0  0  0  0  0  0  0
    6.0559    1.3105    2.0348 H   0  0  0  0  0  0  0  0  0  0  0  0
  1  2  1  0
  2  3  1  0
  2  4  1  0
  4  5  1  0
  5  6  2  0
  6  7  1  0
  7  8  2  0
  8  9  1  0
  9 10  2  0
 10  5  1  0
  8 11  1  0
 11 12  1  0
 11 13  1  0
 13 14  2  0
 14 15  1  0
 15 16  2  0
 16 17  1  0
 16 18  1  0
 18 19  2  0
 19 13  1  0
  2 20  1  0
 20 21  2  0
 20 22  1  0
  1 23  1  0
  1 24  1  0
  1 25  1  0
  3 26  1  0
  3 27  1  0
  3 28  1  0
  6 29  1  0
  7 30  1  0
  9 31  1  0
 10 32  1  0
 11 33  1  0
 12 34  1  0
 14 35  1  0
 15 36  1  0
 18 37  1  0
 19 38  1  0
 22 39  1  0
M  END
> <ID>
HT0859

> <Class>
0.0

> <Clusters>
56

> <Fold>
3

$$$$