
     RDKit          3D

 12 11  0  0  0  0  0  0  0  0999 V2000
   -2.8688    0.8672    0.4895 F   0  0  0  0  0  0  0  0  0  0  0  0
   -1.8750    0.2434   -0.2396 C   0  0  0  0  0  0  0  0  0  0  0  0
   -2.3075   -1.0299   -0.5664 F   0  0  0  0  0  0  0  0  0  0  0  0
   -0.7111    0.1660    0.5588 O   0  0  0  0  0  0  0  0  0  0  0  0
    0.4452   -0.0151   -0.2387 C   0  0  0  0  0  0  0  0  0  0  0  0
    0.6856    1.1203   -0.9996 F   0  0  0  0  0  0  0  0  0  0  0  0
    0.3053   -1.1144   -1.0760 F   0  0  0  0  0  0  0  0  0  0  0  0
    1.6406   -0.2523    0.6827 C   0  0  0  0  0  0  0  0  0  0  0  0
    1.8114    0.8330    1.5237 F   0  0  0  0  0  0  0  0  0  0  0  0
    3.1343   -0.4932   -0.2629 Cl  0  0  0  0  0  0  0  0  0  0  0  0
   -1.7227    0.8343   -1.1707 H   0  0  0  0  0  0  0  0  0  0  0  0
    1.4627   -1.1591    1.2992 H   0  0  0  0  0  0  0  0  0  0  0  0
  1  2  1  0
  2  3  1  0
  2  4  1  0
  4  5  1  0
  5  6  1  0
  5  7  1  0
  5  8  1  0
  8  9  1  0
  8 10  1  0
  2 11  1  0
  8 12  1  0
M  END
> <ID>
HT0756

> <Class>
0.0

> <Clusters>
136

> <Fold>
3

$$$$