
     RDKit          3D

 54 56  0  0  0  0  0  0  0  0999 V2000
    6.3430    1.5552    3.1116 C   0  0  0  0  0  0  0  0  0  0  0  0
    5.0831    1.9251    2.5609 O   0  0  0  0  0  0  0  0  0  0  0  0
    4.3872    1.1747    1.6015 C   0  0  0  0  0  0  0  0  0  0  0  0
    3.1549    1.6549    1.1475 C   0  0  0  0  0  0  0  0  0  0  0  0
    2.4225    0.9461    0.1914 C   0  0  0  0  0  0  0  0  0  0  0  0
    2.9145   -0.2629   -0.3335 C   0  0  0  0  0  0  0  0  0  0  0  0
    4.1490   -0.7493    0.1321 C   0  0  0  0  0  0  0  0  0  0  0  0
    4.8817   -0.0372    1.0863 C   0  0  0  0  0  0  0  0  0  0  0  0
    2.1424   -1.0420   -1.3333 C   0  0  0  0  0  0  0  0  0  0  0  0
    2.3491   -2.2823   -1.4390 O   0  0  0  0  0  0  0  0  0  0  0  0
    1.1604   -0.4119   -2.1735 N   0  0  0  0  0  0  0  0  0  0  0  0
    0.2792   -1.1635   -3.0206 C   0  0  0  0  0  0  0  0  0  0  0  0
    0.8144   -2.0017   -4.0118 C   0  0  0  0  0  0  0  0  0  0  0  0
   -0.0288   -2.7315   -4.8518 C   0  0  0  0  0  0  0  0  0  0  0  0
   -1.4132   -2.6334   -4.7093 C   0  0  0  0  0  0  0  0  0  0  0  0
   -1.9595   -1.8024   -3.7285 C   0  0  0  0  0  0  0  0  0  0  0  0
   -1.1244   -1.0486   -2.8850 C   0  0  0  0  0  0  0  0  0  0  0  0
   -1.7429   -0.2193   -1.7842 C   0  0  0  0  0  0  0  0  0  0  0  0
   -1.7669   -1.0121   -0.4657 C   0  0  0  0  0  0  0  0  0  0  0  0
   -2.3071   -0.2045    0.7379 C   0  0  0  0  0  0  0  0  0  0  0  0
   -1.2488    0.8018    1.2441 C   0  0  0  0  0  0  0  0  0  0  0  0
   -1.7379    1.5265    2.5070 C   0  0  0  0  0  0  0  0  0  0  0  0
   -3.2565    1.7724    2.5005 C   0  0  0  0  0  0  0  0  0  0  0  0
   -3.8247    1.7572    1.0747 C   0  0  0  0  0  0  0  0  0  0  0  0
   -3.5980    0.4586    0.3914 N   0  0  0  0  0  0  0  0  0  0  0  0
   -4.7394   -0.4505    0.6000 C   0  0  0  0  0  0  0  0  0  0  0  0
    6.2587    0.5803    3.6366 H   0  0  0  0  0  0  0  0  0  0  0  0
    6.6597    2.3266    3.8430 H   0  0  0  0  0  0  0  0  0  0  0  0
    7.1070    1.4916    2.3081 H   0  0  0  0  0  0  0  0  0  0  0  0
    2.7584    2.5813    1.5437 H   0  0  0  0  0  0  0  0  0  0  0  0
    1.4624    1.3393   -0.1100 H   0  0  0  0  0  0  0  0  0  0  0  0
    4.5540   -1.6789   -0.2488 H   0  0  0  0  0  0  0  0  0  0  0  0
    5.8299   -0.4387    1.4169 H   0  0  0  0  0  0  0  0  0  0  0  0
    1.0560    0.6257   -2.1659 H   0  0  0  0  0  0  0  0  0  0  0  0
    1.8868   -2.0808   -4.1382 H   0  0  0  0  0  0  0  0  0  0  0  0
    0.3918   -3.3750   -5.6137 H   0  0  0  0  0  0  0  0  0  0  0  0
   -2.0648   -3.2061   -5.3565 H   0  0  0  0  0  0  0  0  0  0  0  0
   -3.0362   -1.7524   -3.6219 H   0  0  0  0  0  0  0  0  0  0  0  0
   -1.1821    0.7284   -1.6646 H   0  0  0  0  0  0  0  0  0  0  0  0
   -2.7801    0.0642   -2.0671 H   0  0  0  0  0  0  0  0  0  0  0  0
   -2.3986   -1.9153   -0.6082 H   0  0  0  0  0  0  0  0  0  0  0  0
   -0.7437   -1.3788   -0.2296 H   0  0  0  0  0  0  0  0  0  0  0  0
   -2.4610   -0.9312    1.5707 H   0  0  0  0  0  0  0  0  0  0  0  0
   -1.0368    1.5580    0.4588 H   0  0  0  0  0  0  0  0  0  0  0  0
   -0.2969    0.2762    1.4766 H   0  0  0  0  0  0  0  0  0  0  0  0
   -1.4745    0.9245    3.4042 H   0  0  0  0  0  0  0  0  0  0  0  0
   -1.2027    2.4976    2.5906 H   0  0  0  0  0  0  0  0  0  0  0  0
   -3.4773    2.7514    2.9780 H   0  0  0  0  0  0  0  0  0  0  0  0
   -3.7631    0.9858    3.1006 H   0  0  0  0  0  0  0  0  0  0  0  0
   -3.3371    2.5613    0.4820 H   0  0  0  0  0  0  0  0  0  0  0  0
   -4.9063    2.0180    1.1086 H   0  0  0  0  0  0  0  0  0  0  0  0
   -4.5872   -1.4021    0.0495 H   0  0  0  0  0  0  0  0  0  0  0  0
   -4.8799   -0.6760    1.6796 H   0  0  0  0  0  0  0  0  0  0  0  0
   -5.6698    0.0057    0.1993 H   0  0  0  0  0  0  0  0  0  0  0  0
  1  2  1  0
  2  3  1  0
  3  4  2  0
  4  5  1  0
  5  6  2  0
  6  7  1  0
  7  8  2  0
  8  3  1  0
  6  9  1  0
  9 10  2  0
  9 11  1  0
 11 12  1  0
 12 13  2  0
 13 14  1  0
 14 15  2  0
 15 16  1  0
 16 17  2  0
 17 12  1  0
 17 18  1  0
 18 19  1  0
 19 20  1  0
 20 21  1  0
 21 22  1  0
 22 23  1  0
 23 24  1  0
 24 25  1  0
 25 20  1  0
 25 26  1  0
  1 27  1  0
  1 28  1  0
  1 29  1  0
  4 30  1  0
  5 31  1  0
  7 32  1  0
  8 33  1  0
 11 34  1  0
 13 35  1  0
 14 36  1  0
 15 37  1  0
 16 38  1  0
 18 39  1  0
 18 40  1  0
 19 41  1  0
 19 42  1  0
 20 43  1  0
 21 44  1  0
 21 45  1  0
 22 46  1  0
 22 47  1  0
 23 48  1  0
 23 49  1  0
 24 50  1  0
 24 51  1  0
 26 52  1  0
 26 53  1  0
 26 54  1  0
M  END
> <ID>
HT0755

> <Class>
0.0

> <Clusters>
269

> <Fold>
3

$$$$