
     RDKit          3D

 34 35  0  0  0  0  0  0  0  0999 V2000
   -3.7059    1.3002   -1.7463 C   0  0  0  0  0  0  0  0  0  0  0  0
   -3.8530    0.5518   -0.4315 C   0  0  0  0  0  0  0  0  0  0  0  0
   -2.6079   -0.0434   -0.0848 O   0  0  0  0  0  0  0  0  0  0  0  0
   -2.4230   -0.7983    1.0753 C   0  0  0  0  0  0  0  0  0  0  0  0
   -3.3919   -0.9950    1.8591 O   0  0  0  0  0  0  0  0  0  0  0  0
   -1.1103   -1.4057    1.3822 C   0  0  0  0  0  0  0  0  0  0  0  0
   -0.9117   -2.3969    2.3202 C   0  0  0  0  0  0  0  0  0  0  0  0
    0.3788   -2.7780    2.3057 N   0  0  0  0  0  0  0  0  0  0  0  0
    0.9484   -2.0023    1.3613 C   0  0  0  0  0  0  0  0  0  0  0  0
    0.0778   -1.1385    0.7888 N   0  0  0  0  0  0  0  0  0  0  0  0
    0.3747   -0.1809   -0.2919 C   0  0  2  0  0  0  0  0  0  0  0  0
    0.1855   -0.8480   -1.6608 C   0  0  0  0  0  0  0  0  0  0  0  0
    1.7517    0.4479   -0.1184 C   0  0  0  0  0  0  0  0  0  0  0  0
    1.8695    1.6605    0.5870 C   0  0  0  0  0  0  0  0  0  0  0  0
    3.1208    2.2538    0.7784 C   0  0  0  0  0  0  0  0  0  0  0  0
    4.2705    1.6421    0.2755 C   0  0  0  0  0  0  0  0  0  0  0  0
    4.1718    0.4334   -0.4161 C   0  0  0  0  0  0  0  0  0  0  0  0
    2.9231   -0.1647   -0.6110 C   0  0  0  0  0  0  0  0  0  0  0  0
   -3.4005    0.5973   -2.5502 H   0  0  0  0  0  0  0  0  0  0  0  0
   -2.9362    2.0946   -1.6459 H   0  0  0  0  0  0  0  0  0  0  0  0
   -4.6744    1.7675   -2.0229 H   0  0  0  0  0  0  0  0  0  0  0  0
   -4.1637    1.2633    0.3641 H   0  0  0  0  0  0  0  0  0  0  0  0
   -4.6287   -0.2367   -0.5416 H   0  0  0  0  0  0  0  0  0  0  0  0
   -1.6651   -2.8361    2.9610 H   0  0  0  0  0  0  0  0  0  0  0  0
    1.9939   -2.0784    1.0981 H   0  0  0  0  0  0  0  0  0  0  0  0
   -0.3521    0.6553   -0.2454 H   0  0  0  0  0  0  0  0  0  0  0  0
    0.4958   -0.1568   -2.4733 H   0  0  0  0  0  0  0  0  0  0  0  0
    0.7714   -1.7881   -1.7306 H   0  0  0  0  0  0  0  0  0  0  0  0
   -0.8838   -1.1047   -1.8123 H   0  0  0  0  0  0  0  0  0  0  0  0
    0.9914    2.1471    0.9934 H   0  0  0  0  0  0  0  0  0  0  0  0
    3.1989    3.1876    1.3200 H   0  0  0  0  0  0  0  0  0  0  0  0
    5.2385    2.1023    0.4260 H   0  0  0  0  0  0  0  0  0  0  0  0
    5.0649   -0.0438   -0.7985 H   0  0  0  0  0  0  0  0  0  0  0  0
    2.8807   -1.1083   -1.1369 H   0  0  0  0  0  0  0  0  0  0  0  0
  1  2  1  0
  2  3  1  0
  3  4  1  0
  4  5  2  0
  4  6  1  0
  6  7  2  0
  7  8  1  0
  8  9  2  0
  9 10  1  0
 10  6  1  0
 10 11  1  0
 11 12  1  0
 11 13  1  0
 13 14  2  0
 14 15  1  0
 15 16  2  0
 16 17  1  0
 17 18  2  0
 18 13  1  0
  1 19  1  0
  1 20  1  0
  1 21  1  0
  2 22  1  0
  2 23  1  0
  7 24  1  0
  9 25  1  0
 11 26  1  6
 12 27  1  0
 12 28  1  0
 12 29  1  0
 14 30  1  0
 15 31  1  0
 16 32  1  0
 17 33  1  0
 18 34  1  0
M  END
> <ID>
HT0829

> <Class>
0.0

> <Clusters>
156

> <Fold>
3

$$$$