
     RDKit          3D

 26 25  0  0  0  0  0  0  0  0999 V2000
   -4.0693   -2.1205   -0.5592 O   0  0  0  0  0  0  0  0  0  0  0  0
   -2.8596   -2.3510   -1.1738 N   0  0  0  0  0  0  0  0  0  0  0  0
   -2.7135   -3.3665   -1.8823 O   0  0  0  0  0  0  0  0  0  0  0  0
   -1.8054   -1.4757   -1.0145 O   0  0  0  0  0  0  0  0  0  0  0  0
   -1.9197   -0.3048   -0.2130 C   0  0  0  0  0  0  0  0  0  0  0  0
   -0.5952    0.4661   -0.2066 C   0  0  0  0  0  0  0  0  0  0  0  0
   -0.7723    1.6738    0.5374 O   0  0  0  0  0  0  0  0  0  0  0  0
   -0.5778    2.9295   -0.0058 N   0  0  0  0  0  0  0  0  0  0  0  0
   -0.7658    3.9367    0.7045 O   0  0  0  0  0  0  0  0  0  0  0  0
   -0.1535    3.0916   -1.3050 O   0  0  0  0  0  0  0  0  0  0  0  0
    0.5441   -0.3676    0.4195 C   0  0  0  0  0  0  0  0  0  0  0  0
    1.8898    0.3603    0.3302 C   0  0  0  0  0  0  0  0  0  0  0  0
    2.2532    0.5605   -1.0315 O   0  0  0  0  0  0  0  0  0  0  0  0
    3.4249    1.1980   -1.3830 N   0  0  0  0  0  0  0  0  0  0  0  0
    3.7016    1.3544   -2.5887 O   0  0  0  0  0  0  0  0  0  0  0  0
    4.2906    1.6673   -0.4216 O   0  0  0  0  0  0  0  0  0  0  0  0
    0.2524   -0.6233    1.7967 O   0  0  0  0  0  0  0  0  0  0  0  0
    0.0690   -1.8937    2.3113 N   0  0  0  0  0  0  0  0  0  0  0  0
    0.1148   -2.9052    1.5807 O   0  0  0  0  0  0  0  0  0  0  0  0
   -0.1954   -2.0426    3.6514 O   0  0  0  0  0  0  0  0  0  0  0  0
   -2.7166    0.3460   -0.6337 H   0  0  0  0  0  0  0  0  0  0  0  0
   -2.2072   -0.5861    0.8233 H   0  0  0  0  0  0  0  0  0  0  0  0
   -0.3375    0.6860   -1.2652 H   0  0  0  0  0  0  0  0  0  0  0  0
    0.6458   -1.3177   -0.1489 H   0  0  0  0  0  0  0  0  0  0  0  0
    2.6698   -0.2564    0.8270 H   0  0  0  0  0  0  0  0  0  0  0  0
    1.8329    1.3408    0.8510 H   0  0  0  0  0  0  0  0  0  0  0  0
  1  2  1  0
  2  3  2  0
  2  4  1  0
  4  5  1  0
  5  6  1  0
  6  7  1  0
  7  8  1  0
  8  9  2  0
  8 10  1  0
  6 11  1  0
 11 12  1  0
 12 13  1  0
 13 14  1  0
 14 15  2  0
 14 16  1  0
 11 17  1  0
 17 18  1  0
 18 19  2  0
 18 20  1  0
  5 21  1  0
  5 22  1  0
  6 23  1  0
 11 24  1  0
 12 25  1  0
 12 26  1  0
M  CHG  8   1  -1   2   1   8   1  10  -1  14   1  16  -1  18   1  20  -1
M  END
> <ID>
HT0783

> <Class>
0.0

> <Clusters>
267

> <Fold>
3

$$$$