
     RDKit          3D

 71 74  0  0  0  0  0  0  0  0999 V2000
    0.9718   -3.4755   -2.0557 C   0  0  0  0  0  0  0  0  0  0  0  0
    0.1989   -2.9817   -0.8224 C   0  0  0  0  0  0  0  0  0  0  0  0
   -1.2481   -2.5861   -1.1880 C   0  0  0  0  0  0  0  0  0  0  0  0
   -1.5358   -1.3632   -0.3216 C   0  0  0  0  0  0  0  0  0  0  0  0
   -2.7601   -0.4806   -0.6883 C   0  0  0  0  0  0  0  0  0  0  0  0
   -4.0384   -1.3298   -0.5664 C   0  0  0  0  0  0  0  0  0  0  0  0
   -5.2787   -0.5477   -0.9700 C   0  0  0  0  0  0  0  0  0  0  0  0
   -6.4062   -1.2445   -0.5683 F   0  0  0  0  0  0  0  0  0  0  0  0
   -5.3105    0.8445   -0.3965 C   0  0  0  0  0  0  0  0  0  0  0  0
   -6.3290    1.6330   -0.7825 C   0  0  0  0  0  0  0  0  0  0  0  0
   -6.4245    3.0204   -0.3393 C   0  0  0  0  0  0  0  0  0  0  0  0
   -7.4170    3.7258   -0.6617 O   0  0  0  0  0  0  0  0  0  0  0  0
   -5.3410    3.5908    0.4481 C   0  0  0  0  0  0  0  0  0  0  0  0
   -4.3212    2.8293    0.8456 C   0  0  0  0  0  0  0  0  0  0  0  0
   -4.2595    1.3046    0.6379 C   0  0  0  0  0  0  0  0  0  0  0  0
   -4.6453    0.6917    2.0085 C   0  0  0  0  0  0  0  0  0  0  0  0
   -2.7945    0.8800    0.1500 C   0  0  0  0  0  0  0  0  0  0  0  0
   -2.3831    1.8798   -0.7223 F   0  0  0  0  0  0  0  0  0  0  0  0
   -1.7257    0.8400    1.3169 C   0  0  0  0  0  0  0  0  0  0  0  0
   -1.6944    2.0314    2.0594 O   0  0  0  0  0  0  0  0  0  0  0  0
   -0.2781    0.4962    0.8448 C   0  0  0  0  0  0  0  0  0  0  0  0
   -0.2082   -0.5925   -0.2771 C   0  0  0  0  0  0  0  0  0  0  0  0
    0.0958    0.1143   -1.6411 C   0  0  0  0  0  0  0  0  0  0  0  0
    0.8042   -1.7662   -0.0098 C   0  0  0  0  0  0  0  0  0  0  0  0
    0.7271   -2.1066    1.3614 O   0  0  0  0  0  0  0  0  0  0  0  0
    2.2609   -1.3817   -0.3367 C   0  0  0  0  0  0  0  0  0  0  0  0
    2.6341   -1.2829   -1.4966 O   0  0  0  0  0  0  0  0  0  0  0  0
    3.2586   -1.1104    0.7607 C   0  0  0  0  0  0  0  0  0  0  0  0
    4.3556   -0.3535    0.2557 O   0  0  0  0  0  0  0  0  0  0  0  0
    5.4278    0.0541    1.0565 C   0  0  0  0  0  0  0  0  0  0  0  0
    5.4441   -0.2366    2.2857 O   0  0  0  0  0  0  0  0  0  0  0  0
    6.5518    0.8581    0.4319 C   0  0  0  0  0  0  0  0  0  0  0  0
    7.1499    0.0576   -0.7403 C   0  0  0  0  0  0  0  0  0  0  0  0
    5.9811    2.1884   -0.0926 C   0  0  0  0  0  0  0  0  0  0  0  0
    7.6662    1.1559    1.4585 C   0  0  0  0  0  0  0  0  0  0  0  0
    1.9907   -3.8063   -1.7639 H   0  0  0  0  0  0  0  0  0  0  0  0
    0.4485   -4.3518   -2.4942 H   0  0  0  0  0  0  0  0  0  0  0  0
    1.0402   -2.6962   -2.8405 H   0  0  0  0  0  0  0  0  0  0  0  0
    0.1314   -3.8664   -0.1490 H   0  0  0  0  0  0  0  0  0  0  0  0
   -1.3535   -2.3283   -2.2648 H   0  0  0  0  0  0  0  0  0  0  0  0
   -1.9501   -3.4172   -0.9555 H   0  0  0  0  0  0  0  0  0  0  0  0
   -1.7368   -1.7732    0.6974 H   0  0  0  0  0  0  0  0  0  0  0  0
   -2.6807   -0.2221   -1.7679 H   0  0  0  0  0  0  0  0  0  0  0  0
   -4.1450   -1.7531    0.4505 H   0  0  0  0  0  0  0  0  0  0  0  0
   -3.9701   -2.2036   -1.2505 H   0  0  0  0  0  0  0  0  0  0  0  0
   -5.2906   -0.4709   -2.0804 H   0  0  0  0  0  0  0  0  0  0  0  0
   -7.0831    1.2595   -1.4667 H   0  0  0  0  0  0  0  0  0  0  0  0
   -5.3606    4.6435    0.7038 H   0  0  0  0  0  0  0  0  0  0  0  0
   -3.5817    3.3210    1.4556 H   0  0  0  0  0  0  0  0  0  0  0  0
   -5.7179    0.8873    2.2299 H   0  0  0  0  0  0  0  0  0  0  0  0
   -4.4867   -0.3988    2.0564 H   0  0  0  0  0  0  0  0  0  0  0  0
   -4.0560    1.1451    2.8339 H   0  0  0  0  0  0  0  0  0  0  0  0
   -2.0261    0.0379    2.0243 H   0  0  0  0  0  0  0  0  0  0  0  0
   -1.3525    2.7484    1.4647 H   0  0  0  0  0  0  0  0  0  0  0  0
    0.3005    0.1957    1.7424 H   0  0  0  0  0  0  0  0  0  0  0  0
    0.2243    1.4265    0.4989 H   0  0  0  0  0  0  0  0  0  0  0  0
   -0.6744    0.8501   -1.9240 H   0  0  0  0  0  0  0  0  0  0  0  0
    0.1803   -0.6019   -2.4795 H   0  0  0  0  0  0  0  0  0  0  0  0
    1.0459    0.6854   -1.5832 H   0  0  0  0  0  0  0  0  0  0  0  0
    1.3097   -2.8959    1.5192 H   0  0  0  0  0  0  0  0  0  0  0  0
    3.6288   -2.0780    1.1621 H   0  0  0  0  0  0  0  0  0  0  0  0
    2.7685   -0.5358    1.5762 H   0  0  0  0  0  0  0  0  0  0  0  0
    7.9777    0.6242   -1.2201 H   0  0  0  0  0  0  0  0  0  0  0  0
    6.3788   -0.1477   -1.5143 H   0  0  0  0  0  0  0  0  0  0  0  0
    7.5534   -0.9146   -0.3831 H   0  0  0  0  0  0  0  0  0  0  0  0
    6.7810    2.7965   -0.5695 H   0  0  0  0  0  0  0  0  0  0  0  0
    5.5413    2.7805    0.7401 H   0  0  0  0  0  0  0  0  0  0  0  0
    5.1870    2.0068   -0.8493 H   0  0  0  0  0  0  0  0  0  0  0  0
    8.0967    0.2110    1.8550 H   0  0  0  0  0  0  0  0  0  0  0  0
    8.4864    1.7411    0.9892 H   0  0  0  0  0  0  0  0  0  0  0  0
    7.2661    1.7453    2.3124 H   0  0  0  0  0  0  0  0  0  0  0  0
  1  2  1  0
  2  3  1  0
  3  4  1  0
  4  5  1  0
  5  6  1  0
  6  7  1  0
  7  8  1  0
  7  9  1  0
  9 10  2  0
 10 11  1  0
 11 12  2  0
 11 13  1  0
 13 14  2  0
 14 15  1  0
 15  9  1  0
 15 16  1  0
 15 17  1  0
 17  5  1  0
 17 18  1  0
 17 19  1  0
 19 20  1  0
 19 21  1  0
 21 22  1  0
 22  4  1  0
 22 23  1  0
 22 24  1  0
 24  2  1  0
 24 25  1  0
 24 26  1  0
 26 27  2  0
 26 28  1  0
 28 29  1  0
 29 30  1  0
 30 31  2  0
 30 32  1  0
 32 33  1  0
 32 34  1  0
 32 35  1  0
  1 36  1  0
  1 37  1  0
  1 38  1  0
  2 39  1  0
  3 40  1  0
  3 41  1  0
  4 42  1  0
  5 43  1  0
  6 44  1  0
  6 45  1  0
  7 46  1  0
 10 47  1  0
 13 48  1  0
 14 49  1  0
 16 50  1  0
 16 51  1  0
 16 52  1  0
 19 53  1  0
 20 54  1  0
 21 55  1  0
 21 56  1  0
 23 57  1  0
 23 58  1  0
 23 59  1  0
 25 60  1  0
 28 61  1  0
 28 62  1  0
 33 63  1  0
 33 64  1  0
 33 65  1  0
 34 66  1  0
 34 67  1  0
 34 68  1  0
 35 69  1  0
 35 70  1  0
 35 71  1  0
M  END
> <ID>
HT0899

> <Class>
0.0

> <Clusters>
109

> <Fold>
3

$$$$