
     RDKit          3D

 57 60  0  0  0  0  0  0  0  0999 V2000
    3.3456    0.1399   -3.0331 C   0  0  0  0  0  0  0  0  0  0  0  0
    2.6282   -0.6663   -1.9393 C   0  0  2  0  0  0  0  0  0  0  0  0
    1.1016   -0.7711   -2.1805 C   0  0  0  0  0  0  0  0  0  0  0  0
    0.4650   -0.1443   -0.9454 C   0  0  1  0  0  0  0  0  0  0  0  0
   -1.0046   -0.4822   -0.5961 C   0  0  2  0  0  0  0  0  0  0  0  0
   -1.9214   -0.2339   -1.8151 C   0  0  0  0  0  0  0  0  0  0  0  0
   -3.3874   -0.5049   -1.4781 C   0  0  2  0  0  0  0  0  0  0  0  0
   -4.1607   -0.2332   -2.5963 F   0  0  0  0  0  0  0  0  0  0  0  0
   -3.7959    0.3242   -0.2774 C   0  0  0  0  0  0  0  0  0  0  0  0
   -4.8342    1.1759   -0.3593 C   0  0  0  0  0  0  0  0  0  0  0  0
   -5.2019    2.0286    0.7700 C   0  0  0  0  0  0  0  0  0  0  0  0
   -6.1874    2.8074    0.6813 O   0  0  0  0  0  0  0  0  0  0  0  0
   -4.4130    1.9817    1.9964 C   0  0  0  0  0  0  0  0  0  0  0  0
   -3.3808    1.1463    2.1061 C   0  0  0  0  0  0  0  0  0  0  0  0
   -2.9674    0.1593    1.0118 C   0  0  1  0  0  0  0  0  0  0  0  0
   -3.2592   -1.2568    1.5718 C   0  0  0  0  0  0  0  0  0  0  0  0
   -1.4493    0.4076    0.6274 C   0  0  2  0  0  0  0  0  0  0  0  0
   -1.3811    1.7342    0.2095 F   0  0  0  0  0  0  0  0  0  0  0  0
   -0.4350    0.3009    1.8275 C   0  0  1  0  0  0  0  0  0  0  0  0
   -0.5842   -0.9070    2.5240 O   0  0  0  0  0  0  0  0  0  0  0  0
    1.0498    0.4878    1.3935 C   0  0  0  0  0  0  0  0  0  0  0  0
    1.4502   -0.4267    0.2037 C   0  0  1  0  0  0  0  0  0  0  0  0
    1.4395   -1.9303    0.6519 C   0  0  0  0  0  0  0  0  0  0  0  0
    2.8299   -0.1029   -0.4791 C   0  0  2  0  0  0  0  0  0  0  0  0
    3.0870    1.2882   -0.4887 O   0  0  0  0  0  0  0  0  0  0  0  0
    4.0212   -0.7431    0.2357 C   0  0  0  0  0  0  0  0  0  0  0  0
    4.6674   -1.6391   -0.2861 O   0  0  0  0  0  0  0  0  0  0  0  0
    4.5064   -0.1918    1.8798 S   0  0  0  0  0  0  0  0  0  0  0  0
    5.8300    0.9111    1.2877 C   0  0  0  0  0  0  0  0  0  0  0  0
    6.8365    0.1675    0.7004 F   0  0  0  0  0  0  0  0  0  0  0  0
    3.2849   -0.4051   -3.9991 H   0  0  0  0  0  0  0  0  0  0  0  0
    2.8828    1.1389   -3.1735 H   0  0  0  0  0  0  0  0  0  0  0  0
    4.4173    0.2661   -2.7703 H   0  0  0  0  0  0  0  0  0  0  0  0
    3.0213   -1.7043   -2.0100 H   0  0  0  0  0  0  0  0  0  0  0  0
    0.7948   -1.8370   -2.2660 H   0  0  0  0  0  0  0  0  0  0  0  0
    0.7798   -0.2383   -3.1029 H   0  0  0  0  0  0  0  0  0  0  0  0
    0.4569    0.9474   -1.1577 H   0  0  0  0  0  0  0  0  0  0  0  0
   -1.0878   -1.5571   -0.3550 H   0  0  0  0  0  0  0  0  0  0  0  0
   -1.8134    0.8141   -2.1732 H   0  0  0  0  0  0  0  0  0  0  0  0
   -1.6280   -0.9082   -2.6484 H   0  0  0  0  0  0  0  0  0  0  0  0
   -3.5158   -1.5817   -1.2391 H   0  0  0  0  0  0  0  0  0  0  0  0
   -5.4126    1.2680   -1.2698 H   0  0  0  0  0  0  0  0  0  0  0  0
   -4.6731    2.6269    2.8266 H   0  0  0  0  0  0  0  0  0  0  0  0
   -2.8590    1.1242    3.0544 H   0  0  0  0  0  0  0  0  0  0  0  0
   -4.3550   -1.4465    1.5713 H   0  0  0  0  0  0  0  0  0  0  0  0
   -2.7823   -2.0582    0.9760 H   0  0  0  0  0  0  0  0  0  0  0  0
   -2.9323   -1.3655    2.6264 H   0  0  0  0  0  0  0  0  0  0  0  0
   -0.6541    1.1397    2.5274 H   0  0  0  0  0  0  0  0  0  0  0  0
   -0.1665   -0.7841    3.4164 H   0  0  0  0  0  0  0  0  0  0  0  0
    1.7120    0.2973    2.2636 H   0  0  0  0  0  0  0  0  0  0  0  0
    1.1903    1.5553    1.1182 H   0  0  0  0  0  0  0  0  0  0  0  0
    0.4434   -2.3190    0.9184 H   0  0  0  0  0  0  0  0  0  0  0  0
    1.8278   -2.6000   -0.1424 H   0  0  0  0  0  0  0  0  0  0  0  0
    2.0787   -2.0687    1.5491 H   0  0  0  0  0  0  0  0  0  0  0  0
    2.4115    1.7600   -1.0346 H   0  0  0  0  0  0  0  0  0  0  0  0
    6.2494    1.4635    2.1532 H   0  0  0  0  0  0  0  0  0  0  0  0
    5.4340    1.6456    0.5576 H   0  0  0  0  0  0  0  0  0  0  0  0
  2  1  1  0
  2  3  1  0
  4  3  1  0
  4  5  1  0
  5  6  1  0
  6  7  1  0
  7  8  1  0
  7  9  1  0
  9 10  2  0
 10 11  1  0
 11 12  2  0
 11 13  1  0
 13 14  2  0
 14 15  1  0
 15  9  1  0
 15 16  1  1
 15 17  1  0
 17  5  1  0
 17 18  1  6
 17 19  1  0
 19 20  1  0
 19 21  1  0
 21 22  1  0
 22  4  1  0
 22 23  1  1
 22 24  1  0
 24  2  1  0
 24 25  1  6
 24 26  1  0
 26 27  2  0
 26 28  1  0
 28 29  1  0
 29 30  1  0
  1 31  1  0
  1 32  1  0
  1 33  1  0
  2 34  1  1
  3 35  1  0
  3 36  1  0
  4 37  1  6
  5 38  1  1
  6 39  1  0
  6 40  1  0
  7 41  1  1
 10 42  1  0
 13 43  1  0
 14 44  1  0
 16 45  1  0
 16 46  1  0
 16 47  1  0
 19 48  1  1
 20 49  1  0
 21 50  1  0
 21 51  1  0
 23 52  1  0
 23 53  1  0
 23 54  1  0
 25 55  1  0
 29 56  1  0
 29 57  1  0
M  END
> <ID>
HT0923

> <Class>
0.0

> <Clusters>
109

> <Fold>
3

$$$$