
     RDKit          3D

  9  8  0  0  0  0  0  0  0  0999 V2000
    1.3413   -0.4065    0.1796 N   0  0  0  0  0  0  0  0  0  0  0  0
    0.0924    0.2370   -0.0717 C   0  0  0  0  0  0  0  0  0  0  0  0
    0.0746    1.4708   -0.4637 N   0  0  0  0  0  0  0  0  0  0  0  0
   -1.1301   -0.4812    0.1100 N   0  0  0  0  0  0  0  0  0  0  0  0
    1.3705   -1.4009    0.4961 H   0  0  0  0  0  0  0  0  0  0  0  0
    2.2400    0.1094    0.0498 H   0  0  0  0  0  0  0  0  0  0  0  0
   -0.8210    1.9724   -0.6566 H   0  0  0  0  0  0  0  0  0  0  0  0
   -1.1156   -1.4761    0.4261 H   0  0  0  0  0  0  0  0  0  0  0  0
   -2.0522   -0.0249   -0.0695 H   0  0  0  0  0  0  0  0  0  0  0  0
  1  2  1  0
  2  3  2  3
  2  4  1  0
  1  5  1  0
  1  6  1  0
  3  7  1  0
  4  8  1  0
  4  9  1  0
M  END
> <ID>
HT1011

> <Class>
0.0

> <Clusters>
122

> <Fold>
3

$$$$