
     RDKit          3D

 63 65  0  0  0  0  0  0  0  0999 V2000
    4.6756    3.9487   -0.3562 C   0  0  0  0  0  0  0  0  0  0  0  0
    4.8830    2.7680   -1.3064 C   0  0  0  0  0  0  0  0  0  0  0  0
    3.6746    1.8201   -1.3520 C   0  0  0  0  0  0  0  0  0  0  0  0
    3.4422    1.0848   -0.0240 C   0  0  0  0  0  0  0  0  0  0  0  0
    2.4457    0.0043   -0.2080 N   0  0  0  0  0  0  0  0  0  0  0  0
    2.7100   -1.1819    0.6377 C   0  0  0  0  0  0  0  0  0  0  0  0
    3.6128   -2.1619   -0.1182 C   0  0  0  0  0  0  0  0  0  0  0  0
    3.8392   -3.4465    0.6886 C   0  0  0  0  0  0  0  0  0  0  0  0
    4.7020   -4.4362   -0.0878 C   0  0  0  0  0  0  0  0  0  0  0  0
    1.0415    0.4706   -0.1158 C   0  0  0  0  0  0  0  0  0  0  0  0
    0.6399    0.9859    1.2932 C   0  0  0  0  0  0  0  0  0  0  0  0
   -0.6950    0.3879    1.7994 C   0  0  0  0  0  0  0  0  0  0  0  0
   -1.0047    0.9274    3.0581 O   0  0  0  0  0  0  0  0  0  0  0  0
   -1.9111    0.5645    0.8810 C   0  0  0  0  0  0  0  0  0  0  0  0
   -1.9655    1.6453   -0.0126 C   0  0  0  0  0  0  0  0  0  0  0  0
   -3.0105    1.7977   -0.9340 C   0  0  0  0  0  0  0  0  0  0  0  0
   -3.0083    2.8866   -1.8438 C   0  0  0  0  0  0  0  0  0  0  0  0
   -1.7155    4.0879   -1.8979 Cl  0  0  0  0  0  0  0  0  0  0  0  0
   -4.0519    3.0395   -2.7555 C   0  0  0  0  0  0  0  0  0  0  0  0
   -5.1021    2.1301   -2.7809 C   0  0  0  0  0  0  0  0  0  0  0  0
   -6.4156    2.3459   -3.9266 Cl  0  0  0  0  0  0  0  0  0  0  0  0
   -5.1184    1.0497   -1.8981 C   0  0  0  0  0  0  0  0  0  0  0  0
   -4.0719    0.8495   -0.9602 C   0  0  0  0  0  0  0  0  0  0  0  0
   -4.0636   -0.2389   -0.0316 C   0  0  0  0  0  0  0  0  0  0  0  0
   -5.0755   -1.2354   -0.0235 C   0  0  0  0  0  0  0  0  0  0  0  0
   -5.1021   -2.2526    0.9409 C   0  0  0  0  0  0  0  0  0  0  0  0
   -4.0921   -2.3046    1.9018 C   0  0  0  0  0  0  0  0  0  0  0  0
   -3.0685   -1.3633    1.9014 C   0  0  0  0  0  0  0  0  0  0  0  0
   -3.0052   -0.3443    0.9222 C   0  0  0  0  0  0  0  0  0  0  0  0
   -6.1556   -3.3308    0.8717 C   0  0  0  0  0  0  0  0  0  0  0  0
   -5.7828   -4.2666   -0.0729 F   0  0  0  0  0  0  0  0  0  0  0  0
   -6.3076   -3.9639    2.0935 F   0  0  0  0  0  0  0  0  0  0  0  0
   -7.3759   -2.7881    0.5097 F   0  0  0  0  0  0  0  0  0  0  0  0
    5.5154    4.6675   -0.4695 H   0  0  0  0  0  0  0  0  0  0  0  0
    4.6590    3.6055    0.6991 H   0  0  0  0  0  0  0  0  0  0  0  0
    3.7258    4.4758   -0.5951 H   0  0  0  0  0  0  0  0  0  0  0  0
    5.7968    2.2058   -1.0111 H   0  0  0  0  0  0  0  0  0  0  0  0
    5.0505    3.1690   -2.3297 H   0  0  0  0  0  0  0  0  0  0  0  0
    3.8616    1.0647   -2.1436 H   0  0  0  0  0  0  0  0  0  0  0  0
    2.7679    2.3929   -1.6391 H   0  0  0  0  0  0  0  0  0  0  0  0
    4.4180    0.6616    0.3067 H   0  0  0  0  0  0  0  0  0  0  0  0
    3.1201    1.8033    0.7593 H   0  0  0  0  0  0  0  0  0  0  0  0
    3.1830   -0.8913    1.6038 H   0  0  0  0  0  0  0  0  0  0  0  0
    1.7621   -1.7140    0.8849 H   0  0  0  0  0  0  0  0  0  0  0  0
    3.1314   -2.4175   -1.0885 H   0  0  0  0  0  0  0  0  0  0  0  0
    4.5937   -1.6819   -0.3288 H   0  0  0  0  0  0  0  0  0  0  0  0
    4.3438   -3.2019    1.6488 H   0  0  0  0  0  0  0  0  0  0  0  0
    2.8605   -3.9243    0.9174 H   0  0  0  0  0  0  0  0  0  0  0  0
    4.8380   -5.3614    0.5126 H   0  0  0  0  0  0  0  0  0  0  0  0
    4.2137   -4.7079   -1.0479 H   0  0  0  0  0  0  0  0  0  0  0  0
    5.7005   -3.9958   -0.2962 H   0  0  0  0  0  0  0  0  0  0  0  0
    0.3744   -0.3601   -0.4377 H   0  0  0  0  0  0  0  0  0  0  0  0
    0.8689    1.2779   -0.8586 H   0  0  0  0  0  0  0  0  0  0  0  0
    0.5983    2.0962    1.2964 H   0  0  0  0  0  0  0  0  0  0  0  0
    1.4216    0.7210    2.0373 H   0  0  0  0  0  0  0  0  0  0  0  0
   -0.4841   -0.7018    1.8935 H   0  0  0  0  0  0  0  0  0  0  0  0
   -0.4162    0.4777    3.7202 H   0  0  0  0  0  0  0  0  0  0  0  0
   -1.1786    2.3818    0.0085 H   0  0  0  0  0  0  0  0  0  0  0  0
   -4.0461    3.8726   -3.4487 H   0  0  0  0  0  0  0  0  0  0  0  0
   -5.9721    0.3999   -1.9699 H   0  0  0  0  0  0  0  0  0  0  0  0
   -5.8527   -1.2653   -0.7666 H   0  0  0  0  0  0  0  0  0  0  0  0
   -4.0817   -3.0840    2.6539 H   0  0  0  0  0  0  0  0  0  0  0  0
   -2.3410   -1.4455    2.6954 H   0  0  0  0  0  0  0  0  0  0  0  0
  1  2  1  0
  2  3  1  0
  3  4  1  0
  4  5  1  0
  5  6  1  0
  6  7  1  0
  7  8  1  0
  8  9  1  0
  5 10  1  0
 10 11  1  0
 11 12  1  0
 12 13  1  0
 12 14  1  0
 14 15  2  0
 15 16  1  0
 16 17  2  0
 17 18  1  0
 17 19  1  0
 19 20  2  0
 20 21  1  0
 20 22  1  0
 22 23  2  0
 23 16  1  0
 23 24  1  0
 24 25  2  0
 25 26  1  0
 26 27  2  0
 27 28  1  0
 28 29  2  0
 29 14  1  0
 29 24  1  0
 26 30  1  0
 30 31  1  0
 30 32  1  0
 30 33  1  0
  1 34  1  0
  1 35  1  0
  1 36  1  0
  2 37  1  0
  2 38  1  0
  3 39  1  0
  3 40  1  0
  4 41  1  0
  4 42  1  0
  6 43  1  0
  6 44  1  0
  7 45  1  0
  7 46  1  0
  8 47  1  0
  8 48  1  0
  9 49  1  0
  9 50  1  0
  9 51  1  0
 10 52  1  0
 10 53  1  0
 11 54  1  0
 11 55  1  0
 12 56  1  0
 13 57  1  0
 15 58  1  0
 19 59  1  0
 22 60  1  0
 25 61  1  0
 27 62  1  0
 28 63  1  0
M  END
> <ID>
HT1016

> <Class>
0.0

> <Clusters>
88

> <Fold>
3

$$$$