
     RDKit          3D

 51 53  0  0  0  0  0  0  0  0999 V2000
    6.2249    2.3728    2.6040 O   0  0  0  0  0  0  0  0  0  0  0  0
    6.8197    1.8173    1.6410 C   0  0  0  0  0  0  0  0  0  0  0  0
    8.0556    2.2488    1.2638 N   0  0  0  0  0  0  0  0  0  0  0  0
    6.2195    0.7584    0.9549 C   0  0  0  0  0  0  0  0  0  0  0  0
    4.9878    0.2899    1.2907 N   0  0  0  0  0  0  0  0  0  0  0  0
    6.9163    0.1704   -0.1115 C   0  0  0  0  0  0  0  0  0  0  0  0
    4.4229   -0.7479    0.6147 C   0  0  0  0  0  0  0  0  0  0  0  0
    6.3486   -0.8562   -0.7958 N   0  0  0  0  0  0  0  0  0  0  0  0
    8.1452    0.6317   -0.4543 N   0  0  0  0  0  0  0  0  0  0  0  0
    3.0462   -1.2177    0.9831 C   0  0  0  0  0  0  0  0  0  0  0  0
    5.1173   -1.3255   -0.4601 C   0  0  0  0  0  0  0  0  0  0  0  0
    8.7178    1.6629    0.2242 C   0  0  0  0  0  0  0  0  0  0  0  0
    2.0362   -0.5639    0.1486 N   0  0  0  0  0  0  0  0  0  0  0  0
   10.0123    2.1276   -0.1582 N   0  0  0  0  0  0  0  0  0  0  0  0
    0.6245   -0.8221    0.2698 C   0  0  0  0  0  0  0  0  0  0  0  0
    0.1145   -1.7269    1.2193 C   0  0  0  0  0  0  0  0  0  0  0  0
   -0.2712   -0.1518   -0.5765 C   0  0  0  0  0  0  0  0  0  0  0  0
   -1.2614   -1.9559    1.3118 C   0  0  0  0  0  0  0  0  0  0  0  0
   -1.6468   -0.3814   -0.4852 C   0  0  0  0  0  0  0  0  0  0  0  0
   -2.1565   -1.2944    0.4541 C   0  0  0  0  0  0  0  0  0  0  0  0
   -3.6139   -1.5404    0.5678 C   0  0  0  0  0  0  0  0  0  0  0  0
   -4.0863   -1.9643    1.6583 O   0  0  0  0  0  0  0  0  0  0  0  0
   -4.4923   -1.3183   -0.5484 N   0  0  0  0  0  0  0  0  0  0  0  0
   -5.9527   -1.2489   -0.3841 C   0  0  1  0  0  0  0  0  0  0  0  0
   -6.3583    0.0574    0.3291 C   0  0  0  0  0  0  0  0  0  0  0  0
   -6.6908   -1.3991   -1.6945 C   0  0  0  0  0  0  0  0  0  0  0  0
   -5.8996    1.3180   -0.4219 C   0  0  0  0  0  0  0  0  0  0  0  0
   -6.0851   -1.3511   -2.7994 O   0  0  0  0  0  0  0  0  0  0  0  0
   -8.0702   -1.5825   -1.6784 O   0  0  0  0  0  0  0  0  0  0  0  0
   -6.3313    2.5571    0.3061 C   0  0  0  0  0  0  0  0  0  0  0  0
   -5.8589    2.8113    1.4456 O   0  0  0  0  0  0  0  0  0  0  0  0
   -7.2436    3.4395   -0.2661 O   0  0  0  0  0  0  0  0  0  0  0  0
    8.5019    3.0410    1.7797 H   0  0  0  0  0  0  0  0  0  0  0  0
    2.8529   -0.9809    2.0517 H   0  0  0  0  0  0  0  0  0  0  0  0
    2.9828   -2.3197    0.8512 H   0  0  0  0  0  0  0  0  0  0  0  0
    4.6823   -2.1393   -1.0259 H   0  0  0  0  0  0  0  0  0  0  0  0
    2.3496    0.1250   -0.5742 H   0  0  0  0  0  0  0  0  0  0  0  0
   10.4676    2.9179    0.3501 H   0  0  0  0  0  0  0  0  0  0  0  0
   10.5191    1.6798   -0.9537 H   0  0  0  0  0  0  0  0  0  0  0  0
    0.7709   -2.2603    1.8928 H   0  0  0  0  0  0  0  0  0  0  0  0
    0.0972    0.5573   -1.3073 H   0  0  0  0  0  0  0  0  0  0  0  0
   -1.6249   -2.6607    2.0495 H   0  0  0  0  0  0  0  0  0  0  0  0
   -2.3073    0.1764   -1.1357 H   0  0  0  0  0  0  0  0  0  0  0  0
   -4.0680   -1.2240   -1.4975 H   0  0  0  0  0  0  0  0  0  0  0  0
   -6.2733   -2.1039    0.2507 H   0  0  0  0  0  0  0  0  0  0  0  0
   -7.4642    0.0814    0.4504 H   0  0  0  0  0  0  0  0  0  0  0  0
   -5.9178    0.0601    1.3500 H   0  0  0  0  0  0  0  0  0  0  0  0
   -6.3297    1.3207   -1.4458 H   0  0  0  0  0  0  0  0  0  0  0  0
   -4.7924    1.3290   -0.5137 H   0  0  0  0  0  0  0  0  0  0  0  0
   -8.5919   -1.6799   -2.5413 H   0  0  0  0  0  0  0  0  0  0  0  0
   -7.6453    3.2655   -1.1795 H   0  0  0  0  0  0  0  0  0  0  0  0
  1  2  2  0
  2  3  1  0
  2  4  1  0
  4  5  2  0
  6  4  1  0
  5  7  1  0
  8  6  2  0
  6  9  1  0
  7 10  1  0
  7 11  2  0
 11  8  1  0
  9 12  2  0
 10 13  1  0
 14 12  1  0
 12  3  1  0
 13 15  1  0
 15 16  2  0
 17 15  1  0
 16 18  1  0
 19 17  2  0
 18 20  2  0
 20 19  1  0
 20 21  1  0
 21 22  2  0
 21 23  1  0
 23 24  1  0
 24 25  1  0
 24 26  1  0
 25 27  1  0
 26 28  2  0
 26 29  1  0
 27 30  1  0
 30 31  2  0
 30 32  1  0
  3 33  1  0
 10 34  1  0
 10 35  1  0
 11 36  1  0
 13 37  1  0
 14 38  1  0
 14 39  1  0
 16 40  1  0
 17 41  1  0
 18 42  1  0
 19 43  1  0
 23 44  1  0
 24 45  1  1
 25 46  1  0
 25 47  1  0
 27 48  1  0
 27 49  1  0
 29 50  1  0
 32 51  1  0
M  END
> <ID>
HT0928

> <Class>
0.0

> <Clusters>
111

> <Fold>
3

$$$$