
     RDKit          3D

 65 68  0  0  0  0  0  0  0  0999 V2000
   -5.5713    1.4245    2.1298 C   0  0  0  0  0  0  0  0  0  0  0  0
   -4.1315    1.3653    1.6157 C   0  0  0  0  0  0  0  0  0  0  0  0
   -3.8091    0.0812    0.9079 C   0  0  0  0  0  0  0  0  0  0  0  0
   -4.6877   -0.8111    0.7581 O   0  0  0  0  0  0  0  0  0  0  0  0
   -2.5075   -0.0933    0.4119 O   0  0  0  0  0  0  0  0  0  0  0  0
   -1.9665   -1.2633   -0.2352 C   0  0  2  0  0  0  0  0  0  0  0  0
   -1.5904   -2.3775    0.8262 C   0  0  2  0  0  0  0  0  0  0  0  0
   -2.4785   -2.4545    2.0759 C   0  0  0  0  0  0  0  0  0  0  0  0
   -0.1083   -2.1553    1.2092 C   0  0  0  0  0  0  0  0  0  0  0  0
    0.2851   -0.8800    0.4841 C   0  0  1  0  0  0  0  0  0  0  0  0
    1.7908   -0.5920    0.2630 C   0  0  2  0  0  0  0  0  0  0  0  0
    2.5548   -0.6513    1.6051 C   0  0  0  0  0  0  0  0  0  0  0  0
    4.0371   -0.3323    1.4158 C   0  0  2  0  0  0  0  0  0  0  0  0
    4.6637   -0.3766    2.6518 F   0  0  0  0  0  0  0  0  0  0  0  0
    4.1874    1.0159    0.7409 C   0  0  0  0  0  0  0  0  0  0  0  0
    4.9271    1.9851    1.3117 C   0  0  0  0  0  0  0  0  0  0  0  0
    5.0423    3.3085    0.6990 C   0  0  0  0  0  0  0  0  0  0  0  0
    5.7634    4.1939    1.2318 O   0  0  0  0  0  0  0  0  0  0  0  0
    4.3055    3.6010   -0.5264 C   0  0  0  0  0  0  0  0  0  0  0  0
    3.5667    2.6586   -1.1128 C   0  0  0  0  0  0  0  0  0  0  0  0
    3.4732    1.2156   -0.6099 C   0  0  1  0  0  0  0  0  0  0  0  0
    4.2127    0.3434   -1.6563 C   0  0  0  0  0  0  0  0  0  0  0  0
    1.9488    0.8264   -0.4022 C   0  0  2  0  0  0  0  0  0  0  0  0
    1.4392    1.7587    0.4982 F   0  0  0  0  0  0  0  0  0  0  0  0
    1.0551    0.9559   -1.6877 C   0  0  1  0  0  0  0  0  0  0  0  0
    1.5908    0.2341   -2.7639 O   0  0  0  0  0  0  0  0  0  0  0  0
   -0.4208    0.5297   -1.4423 C   0  0  0  0  0  0  0  0  0  0  0  0
   -0.5486   -0.8888   -0.8084 C   0  0  2  0  0  0  0  0  0  0  0  0
   -0.0781   -1.9823   -1.8326 C   0  0  0  0  0  0  0  0  0  0  0  0
   -2.9409   -1.7714   -1.3113 C   0  0  0  0  0  0  0  0  0  0  0  0
   -3.5077   -2.8435   -1.1674 O   0  0  0  0  0  0  0  0  0  0  0  0
   -3.2506   -0.8521   -2.8371 S   0  0  0  0  0  0  0  0  0  0  0  0
   -4.8879   -0.1941   -2.3795 C   0  0  0  0  0  0  0  0  0  0  0  0
   -5.7436   -1.2199   -2.0216 F   0  0  0  0  0  0  0  0  0  0  0  0
   -6.2888    1.3253    1.2838 H   0  0  0  0  0  0  0  0  0  0  0  0
   -5.7441    2.4010    2.6292 H   0  0  0  0  0  0  0  0  0  0  0  0
   -5.7526    0.6153    2.8708 H   0  0  0  0  0  0  0  0  0  0  0  0
   -3.4347    1.4831    2.4746 H   0  0  0  0  0  0  0  0  0  0  0  0
   -3.9625    2.2098    0.9125 H   0  0  0  0  0  0  0  0  0  0  0  0
   -1.6460   -3.3822    0.3493 H   0  0  0  0  0  0  0  0  0  0  0  0
   -2.1041   -3.2552    2.7497 H   0  0  0  0  0  0  0  0  0  0  0  0
   -3.5158   -2.7247    1.7929 H   0  0  0  0  0  0  0  0  0  0  0  0
   -2.4637   -1.4995    2.6431 H   0  0  0  0  0  0  0  0  0  0  0  0
    0.5168   -3.0071    0.8586 H   0  0  0  0  0  0  0  0  0  0  0  0
    0.0372   -2.0357    2.3061 H   0  0  0  0  0  0  0  0  0  0  0  0
   -0.0902   -0.0529    1.1354 H   0  0  0  0  0  0  0  0  0  0  0  0
    2.2223   -1.3789   -0.3823 H   0  0  0  0  0  0  0  0  0  0  0  0
    2.1146    0.0668    2.3332 H   0  0  0  0  0  0  0  0  0  0  0  0
    2.4771   -1.6718    2.0424 H   0  0  0  0  0  0  0  0  0  0  0  0
    4.4999   -1.1154    0.7783 H   0  0  0  0  0  0  0  0  0  0  0  0
    5.4434    1.8156    2.2487 H   0  0  0  0  0  0  0  0  0  0  0  0
    4.3625    4.5908   -0.9660 H   0  0  0  0  0  0  0  0  0  0  0  0
    3.0824    2.9207   -2.0436 H   0  0  0  0  0  0  0  0  0  0  0  0
    3.9614    0.6376   -2.6954 H   0  0  0  0  0  0  0  0  0  0  0  0
    5.3132    0.4791   -1.5571 H   0  0  0  0  0  0  0  0  0  0  0  0
    4.0001   -0.7379   -1.5425 H   0  0  0  0  0  0  0  0  0  0  0  0
    1.0183    2.0333   -1.9678 H   0  0  0  0  0  0  0  0  0  0  0  0
    1.1821    0.6009   -3.5910 H   0  0  0  0  0  0  0  0  0  0  0  0
   -0.9651    0.5800   -2.4071 H   0  0  0  0  0  0  0  0  0  0  0  0
   -0.8845    1.2918   -0.7784 H   0  0  0  0  0  0  0  0  0  0  0  0
    1.0047   -1.9680   -2.0368 H   0  0  0  0  0  0  0  0  0  0  0  0
   -0.5822   -1.8443   -2.8097 H   0  0  0  0  0  0  0  0  0  0  0  0
   -0.3093   -3.0089   -1.4867 H   0  0  0  0  0  0  0  0  0  0  0  0
   -4.7944    0.5359   -1.5501 H   0  0  0  0  0  0  0  0  0  0  0  0
   -5.3128    0.3370   -3.2559 H   0  0  0  0  0  0  0  0  0  0  0  0
  1  2  1  0
  2  3  1  0
  3  4  2  0
  3  5  1  0
  6  5  1  1
  6  7  1  0
  7  8  1  0
  7  9  1  0
 10  9  1  0
 10 11  1  0
 11 12  1  0
 12 13  1  0
 13 14  1  0
 13 15  1  0
 15 16  2  0
 16 17  1  0
 17 18  2  0
 17 19  1  0
 19 20  2  0
 20 21  1  0
 21 15  1  0
 21 22  1  6
 21 23  1  0
 23 11  1  0
 23 24  1  1
 23 25  1  0
 25 26  1  0
 25 27  1  0
 27 28  1  0
 28  6  1  0
 28 10  1  0
 28 29  1  6
  6 30  1  0
 30 31  2  0
 30 32  1  0
 32 33  1  0
 33 34  1  0
  1 35  1  0
  1 36  1  0
  1 37  1  0
  2 38  1  0
  2 39  1  0
  7 40  1  6
  8 41  1  0
  8 42  1  0
  8 43  1  0
  9 44  1  0
  9 45  1  0
 10 46  1  1
 11 47  1  6
 12 48  1  0
 12 49  1  0
 13 50  1  6
 16 51  1  0
 19 52  1  0
 20 53  1  0
 22 54  1  0
 22 55  1  0
 22 56  1  0
 25 57  1  6
 26 58  1  0
 27 59  1  0
 27 60  1  0
 29 61  1  0
 29 62  1  0
 29 63  1  0
 33 64  1  0
 33 65  1  0
M  END
> <ID>
HT0925

> <Class>
0.0

> <Clusters>
109

> <Fold>
3

$$$$