
     RDKit          3D

 39 41  0  0  0  0  0  0  0  0999 V2000
   -3.7662   -1.2289    1.2660 C   0  0  0  0  0  0  0  0  0  0  0  0
   -3.0610   -1.0393   -0.0809 C   0  0  0  0  0  0  0  0  0  0  0  0
   -3.4185   -2.1599   -1.0765 C   0  0  0  0  0  0  0  0  0  0  0  0
   -1.5864   -0.8783    0.1046 N   0  0  0  0  0  0  0  0  0  0  0  0
   -0.8074   -1.9835    0.3740 C   0  0  0  0  0  0  0  0  0  0  0  0
   -1.3281   -3.0956    0.6543 O   0  0  0  0  0  0  0  0  0  0  0  0
    0.5427   -1.9033    0.3481 N   0  0  0  0  0  0  0  0  0  0  0  0
    1.1987   -0.7509    0.0914 C   0  0  0  0  0  0  0  0  0  0  0  0
    2.6765   -0.7880    0.1032 C   0  0  0  0  0  0  0  0  0  0  0  0
    3.4060   -0.0380    1.0416 C   0  0  0  0  0  0  0  0  0  0  0  0
    4.8022   -0.1092    1.0669 C   0  0  0  0  0  0  0  0  0  0  0  0
    5.4778   -0.9400    0.1682 C   0  0  0  0  0  0  0  0  0  0  0  0
    6.8315   -1.0093    0.1952 F   0  0  0  0  0  0  0  0  0  0  0  0
    4.7567   -1.7055   -0.7532 C   0  0  0  0  0  0  0  0  0  0  0  0
    3.3602   -1.6365   -0.7815 C   0  0  0  0  0  0  0  0  0  0  0  0
    0.4562    0.4272   -0.1099 C   0  0  0  0  0  0  0  0  0  0  0  0
    1.0826    1.6601   -0.3825 C   0  0  0  0  0  0  0  0  0  0  0  0
    0.3357    2.8296   -0.4807 C   0  0  0  0  0  0  0  0  0  0  0  0
   -1.0478    2.7978   -0.3023 C   0  0  0  0  0  0  0  0  0  0  0  0
   -1.8355    4.0758   -0.3010 C   0  0  0  0  0  0  0  0  0  0  0  0
   -1.6867    1.5760   -0.0514 C   0  0  0  0  0  0  0  0  0  0  0  0
   -0.9629    0.3548   -0.0312 C   0  0  0  0  0  0  0  0  0  0  0  0
   -3.5218   -0.3801    1.9393 H   0  0  0  0  0  0  0  0  0  0  0  0
   -4.8672   -1.2542    1.1195 H   0  0  0  0  0  0  0  0  0  0  0  0
   -3.4525   -2.1738    1.7554 H   0  0  0  0  0  0  0  0  0  0  0  0
   -3.5034   -0.1469   -0.5597 H   0  0  0  0  0  0  0  0  0  0  0  0
   -4.4608   -2.0237   -1.4381 H   0  0  0  0  0  0  0  0  0  0  0  0
   -3.3664   -3.1671   -0.6160 H   0  0  0  0  0  0  0  0  0  0  0  0
   -2.7405   -2.1202   -1.9554 H   0  0  0  0  0  0  0  0  0  0  0  0
    2.8933    0.5973    1.7536 H   0  0  0  0  0  0  0  0  0  0  0  0
    5.3592    0.4760    1.7873 H   0  0  0  0  0  0  0  0  0  0  0  0
    5.2788   -2.3548   -1.4441 H   0  0  0  0  0  0  0  0  0  0  0  0
    2.8125   -2.2377   -1.4971 H   0  0  0  0  0  0  0  0  0  0  0  0
    2.1530    1.7338   -0.5172 H   0  0  0  0  0  0  0  0  0  0  0  0
    0.8433    3.7679   -0.6691 H   0  0  0  0  0  0  0  0  0  0  0  0
   -2.8565    3.9053   -0.7041 H   0  0  0  0  0  0  0  0  0  0  0  0
   -1.9152    4.4592    0.7377 H   0  0  0  0  0  0  0  0  0  0  0  0
   -1.3427    4.8446   -0.9337 H   0  0  0  0  0  0  0  0  0  0  0  0
   -2.7396    1.6194    0.1793 H   0  0  0  0  0  0  0  0  0  0  0  0
  1  2  1  0
  2  3  1  0
  2  4  1  0
  4  5  1  0
  5  6  2  0
  5  7  1  0
  7  8  2  0
  8  9  1  0
  9 10  2  0
 10 11  1  0
 11 12  2  0
 12 13  1  0
 12 14  1  0
 14 15  2  0
 15  9  1  0
  8 16  1  0
 16 17  2  0
 17 18  1  0
 18 19  2  0
 19 20  1  0
 19 21  1  0
 21 22  2  0
 22  4  1  0
 22 16  1  0
  1 23  1  0
  1 24  1  0
  1 25  1  0
  2 26  1  0
  3 27  1  0
  3 28  1  0
  3 29  1  0
 10 30  1  0
 11 31  1  0
 14 32  1  0
 15 33  1  0
 17 34  1  0
 18 35  1  0
 20 36  1  0
 20 37  1  0
 20 38  1  0
 21 39  1  0
M  END
> <ID>
HT0917

> <Class>
0.0

> <Clusters>
110

> <Fold>
3

$$$$