
     RDKit          3D

 18 18  0  0  0  0  0  0  0  0999 V2000
   -4.1855    1.5149    0.1907 Cl  0  0  0  0  0  0  0  0  0  0  0  0
   -2.6295    0.7320   -0.0506 C   0  0  0  0  0  0  0  0  0  0  0  0
   -2.3100    0.2362   -1.3181 C   0  0  0  0  0  0  0  0  0  0  0  0
   -1.0804   -0.3909   -1.5438 C   0  0  0  0  0  0  0  0  0  0  0  0
   -0.7108   -1.0003   -3.1500 Cl  0  0  0  0  0  0  0  0  0  0  0  0
   -0.1527   -0.5289   -0.4996 C   0  0  0  0  0  0  0  0  0  0  0  0
    1.0730   -1.1637   -0.7680 O   0  0  0  0  0  0  0  0  0  0  0  0
    2.1353   -1.3413    0.1678 C   0  0  0  0  0  0  0  0  0  0  0  0
    2.7785   -0.0560    0.4613 C   0  0  0  0  0  0  0  0  0  0  0  0
    3.3012    1.0026    0.7033 C   0  0  0  0  0  0  0  0  0  0  0  0
    4.1973    2.8328    1.1213 I   0  0  0  0  0  0  0  0  0  0  0  0
   -0.4798   -0.0303    0.7772 C   0  0  0  0  0  0  0  0  0  0  0  0
   -1.7102    0.5980    1.0018 C   0  0  0  0  0  0  0  0  0  0  0  0
   -2.0731    1.2081    2.6109 Cl  0  0  0  0  0  0  0  0  0  0  0  0
   -3.0186    0.3388   -2.1306 H   0  0  0  0  0  0  0  0  0  0  0  0
    2.8926   -2.0181   -0.2783 H   0  0  0  0  0  0  0  0  0  0  0  0
    1.7612   -1.8107    1.1018 H   0  0  0  0  0  0  0  0  0  0  0  0
    0.2115   -0.1232    1.6029 H   0  0  0  0  0  0  0  0  0  0  0  0
  1  2  1  0
  2  3  2  0
  3  4  1  0
  4  5  1  0
  4  6  2  0
  6  7  1  0
  7  8  1  0
  8  9  1  0
  9 10  3  0
 10 11  1  0
  6 12  1  0
 12 13  2  0
 13  2  1  0
 13 14  1  0
  3 15  1  0
  8 16  1  0
  8 17  1  0
 12 18  1  0
M  END
> <ID>
HT1019

> <Class>
0.0

> <Clusters>
126

> <Fold>
3

$$$$