
     RDKit          3D

 74 78  0  0  0  0  0  0  0  0999 V2000
   -4.0275    4.5824   -0.8753 C   0  0  0  0  0  0  0  0  0  0  0  0
   -3.7004    3.1345   -0.6377 C   0  0  0  0  0  0  0  0  0  0  0  0
   -4.5949    2.1069   -0.4298 C   0  0  0  0  0  0  0  0  0  0  0  0
   -6.0677    2.2415   -0.4331 C   0  0  0  0  0  0  0  0  0  0  0  0
   -6.8343    1.6981    0.5093 C   0  0  0  0  0  0  0  0  0  0  0  0
   -3.8285    0.9573   -0.2486 C   0  0  0  0  0  0  0  0  0  0  0  0
   -4.3542   -0.3319   -0.1092 C   0  0  0  0  0  0  0  0  0  0  0  0
   -3.6126   -1.4997    0.1030 C   0  0  0  0  0  0  0  0  0  0  0  0
   -2.2638   -1.5548    0.1924 N   0  0  0  0  0  0  0  0  0  0  0  0
   -1.9641   -2.8579    0.3981 C   0  0  0  0  0  0  0  0  0  0  0  0
   -0.6698   -3.3657    0.5549 C   0  0  0  0  0  0  0  0  0  0  0  0
    0.5137   -2.6202    0.5082 C   0  0  0  0  0  0  0  0  0  0  0  0
    0.5851   -1.2948    0.2475 N   0  0  0  0  0  0  0  0  0  0  0  0
    1.9005   -0.9822    0.3034 C   0  0  0  0  0  0  0  0  0  0  0  0
    2.4329    0.2821    0.0277 C   0  0  0  0  0  0  0  0  0  0  0  0
    1.6950    1.4271   -0.2933 C   0  0  0  0  0  0  0  0  0  0  0  0
    0.3436    1.4961   -0.2982 N   0  0  0  0  0  0  0  0  0  0  0  0
    0.0455    2.7809   -0.5958 C   0  0  0  0  0  0  0  0  0  0  0  0
   -1.2488    3.3003   -0.6987 C   0  0  0  0  0  0  0  0  0  0  0  0
   -2.4344    2.5754   -0.5455 C   0  0  0  0  0  0  0  0  0  0  0  0
   -2.5076    1.2451   -0.3098 N   0  0  0  0  0  0  0  0  0  0  0  0
    1.1994    3.5317   -0.7727 C   0  0  0  0  0  0  0  0  0  0  0  0
    1.2712    5.0027   -1.0781 C   0  0  0  0  0  0  0  0  0  0  0  0
    2.2579    2.6601   -0.6109 C   0  0  0  0  0  0  0  0  0  0  0  0
    3.7251    3.0035   -0.7035 C   0  0  0  0  0  0  0  0  0  0  0  0
    4.2626    3.4436    0.6639 C   0  0  0  0  0  0  0  0  0  0  0  0
    5.7231    3.7969    0.6355 C   0  0  0  0  0  0  0  0  0  0  0  0
    6.4032    3.6877   -0.4205 O   0  0  0  0  0  0  0  0  0  0  0  0
    6.3318    4.2473    1.8023 O   0  0  0  0  0  0  0  0  0  0  0  0
    2.6641   -2.1000    0.6249 C   0  0  0  0  0  0  0  0  0  0  0  0
    1.7789   -3.1551    0.7143 C   0  0  0  0  0  0  0  0  0  0  0  0
    2.1122   -4.5874    1.0286 C   0  0  0  0  0  0  0  0  0  0  0  0
    4.1636   -2.1719    0.7809 C   0  0  0  0  0  0  0  0  0  0  0  0
    4.8361   -2.4166   -0.5761 C   0  0  0  0  0  0  0  0  0  0  0  0
    6.3340   -2.4859   -0.4848 C   0  0  0  0  0  0  0  0  0  0  0  0
    6.9304   -2.3470    0.6179 O   0  0  0  0  0  0  0  0  0  0  0  0
    7.0723   -2.7071   -1.6423 O   0  0  0  0  0  0  0  0  0  0  0  0
   -3.1155   -3.6359    0.4263 C   0  0  0  0  0  0  0  0  0  0  0  0
   -3.1802   -5.1018    0.6192 C   0  0  0  0  0  0  0  0  0  0  0  0
   -3.9969   -5.8785   -0.0888 C   0  0  0  0  0  0  0  0  0  0  0  0
   -4.1737   -2.7613    0.2635 C   0  0  0  0  0  0  0  0  0  0  0  0
   -5.6392   -3.0998    0.2952 C   0  0  0  0  0  0  0  0  0  0  0  0
   -3.6396    4.8930   -1.8681 H   0  0  0  0  0  0  0  0  0  0  0  0
   -5.1214    4.7640   -0.8502 H   0  0  0  0  0  0  0  0  0  0  0  0
   -3.5570    5.2049   -0.0859 H   0  0  0  0  0  0  0  0  0  0  0  0
   -6.5326    2.8744   -1.1777 H   0  0  0  0  0  0  0  0  0  0  0  0
   -6.4074    1.1246    1.3220 H   0  0  0  0  0  0  0  0  0  0  0  0
   -7.9055    1.8518    0.4892 H   0  0  0  0  0  0  0  0  0  0  0  0
   -5.4247   -0.4391   -0.1908 H   0  0  0  0  0  0  0  0  0  0  0  0
   -0.5748   -4.4264    0.7371 H   0  0  0  0  0  0  0  0  0  0  0  0
    3.5064    0.3810    0.0589 H   0  0  0  0  0  0  0  0  0  0  0  0
   -1.3420    4.3546   -0.9232 H   0  0  0  0  0  0  0  0  0  0  0  0
    0.6691    5.5667   -0.3341 H   0  0  0  0  0  0  0  0  0  0  0  0
    0.8669    5.1919   -2.0953 H   0  0  0  0  0  0  0  0  0  0  0  0
    2.3097    5.3852   -1.0273 H   0  0  0  0  0  0  0  0  0  0  0  0
    4.2986    2.1307   -1.0790 H   0  0  0  0  0  0  0  0  0  0  0  0
    3.8762    3.8126   -1.4485 H   0  0  0  0  0  0  0  0  0  0  0  0
    3.6936    4.3319    1.0130 H   0  0  0  0  0  0  0  0  0  0  0  0
    4.1145    2.6258    1.4014 H   0  0  0  0  0  0  0  0  0  0  0  0
    7.3140    4.4957    1.8141 H   0  0  0  0  0  0  0  0  0  0  0  0
    1.5512   -5.2665    0.3546 H   0  0  0  0  0  0  0  0  0  0  0  0
    1.8443   -4.8075    2.0824 H   0  0  0  0  0  0  0  0  0  0  0  0
    3.1901   -4.7969    0.8786 H   0  0  0  0  0  0  0  0  0  0  0  0
    4.4310   -2.9846    1.4881 H   0  0  0  0  0  0  0  0  0  0  0  0
    4.5424   -1.2314    1.2335 H   0  0  0  0  0  0  0  0  0  0  0  0
    4.4673   -3.3749   -1.0015 H   0  0  0  0  0  0  0  0  0  0  0  0
    4.5659   -1.5973   -1.2768 H   0  0  0  0  0  0  0  0  0  0  0  0
    8.0834   -2.7678   -1.6108 H   0  0  0  0  0  0  0  0  0  0  0  0
   -2.4938   -5.5728    1.3102 H   0  0  0  0  0  0  0  0  0  0  0  0
   -3.9909   -6.9493    0.0640 H   0  0  0  0  0  0  0  0  0  0  0  0
   -4.6530   -5.4664   -0.8449 H   0  0  0  0  0  0  0  0  0  0  0  0
   -5.8152   -4.0530    0.8335 H   0  0  0  0  0  0  0  0  0  0  0  0
   -6.0256   -3.1827   -0.7418 H   0  0  0  0  0  0  0  0  0  0  0  0
   -6.2087   -2.3178    0.8387 H   0  0  0  0  0  0  0  0  0  0  0  0
  1  2  1  0
  2  3  2  0
  3  4  1  0
  4  5  2  3
  3  6  1  0
  6  7  1  0
  7  8  2  0
  8  9  1  0
  9 10  2  0
 10 11  1  0
 11 12  2  0
 12 13  1  0
 13 14  2  0
 14 15  1  0
 15 16  2  0
 16 17  1  0
 17 18  2  0
 18 19  1  0
 19 20  2  0
 20  2  1  0
 20 21  1  0
 21  6  2  0
 18 22  1  0
 22 23  1  0
 22 24  2  0
 24 16  1  0
 24 25  1  0
 25 26  1  0
 26 27  1  0
 27 28  2  0
 27 29  1  0
 14 30  1  0
 30 31  2  0
 31 12  1  0
 31 32  1  0
 30 33  1  0
 33 34  1  0
 34 35  1  0
 35 36  2  0
 35 37  1  0
 10 38  1  0
 38 39  1  0
 39 40  2  3
 38 41  2  0
 41  8  1  0
 41 42  1  0
  1 43  1  0
  1 44  1  0
  1 45  1  0
  4 46  1  0
  5 47  1  0
  5 48  1  0
  7 49  1  0
 11 50  1  0
 15 51  1  0
 19 52  1  0
 23 53  1  0
 23 54  1  0
 23 55  1  0
 25 56  1  0
 25 57  1  0
 26 58  1  0
 26 59  1  0
 29 60  1  0
 32 61  1  0
 32 62  1  0
 32 63  1  0
 33 64  1  0
 33 65  1  0
 34 66  1  0
 34 67  1  0
 37 68  1  0
 39 69  1  0
 40 70  1  0
 40 71  1  0
 42 72  1  0
 42 73  1  0
 42 74  1  0
M  END
> <ID>
HT1022

> <Class>
0.0

> <Clusters>
280

> <Fold>
3

$$$$