
     RDKit          3D

 36 36  0  0  0  0  0  0  0  0999 V2000
    3.7632    1.7237    1.1124 N   0  0  0  0  0  0  0  0  0  0  0  0
    4.2268    0.4156    0.7622 C   0  0  0  0  0  0  0  0  0  0  0  0
    5.4601    0.2666    0.3956 N   0  0  0  0  0  0  0  0  0  0  0  0
    3.3580   -0.7309    0.8253 N   0  0  0  0  0  0  0  0  0  0  0  0
    1.9205   -0.6579    1.0829 C   0  0  0  0  0  0  0  0  0  0  0  0
    1.1825   -0.0952   -0.1486 C   0  0  0  0  0  0  0  0  0  0  0  0
   -0.2912   -0.1742   -0.0444 N   0  0  0  0  0  0  0  0  0  0  0  0
   -0.8299   -1.5416   -0.2207 C   0  0  0  0  0  0  0  0  0  0  0  0
   -1.6061   -1.6281   -1.5410 C   0  0  0  0  0  0  0  0  0  0  0  0
   -2.8651   -0.7410   -1.5978 C   0  0  0  0  0  0  0  0  0  0  0  0
   -2.5540    0.7735   -1.5841 C   0  0  0  0  0  0  0  0  0  0  0  0
   -2.8358    1.4833   -0.2420 C   0  0  0  0  0  0  0  0  0  0  0  0
   -2.3540    0.7652    1.0331 C   0  0  0  0  0  0  0  0  0  0  0  0
   -0.8332    0.5499    1.1226 C   0  0  0  0  0  0  0  0  0  0  0  0
    4.4077    2.5423    1.0396 H   0  0  0  0  0  0  0  0  0  0  0  0
    2.7993    1.8955    1.4698 H   0  0  0  0  0  0  0  0  0  0  0  0
    5.8488   -0.6670    0.1345 H   0  0  0  0  0  0  0  0  0  0  0  0
    3.7736   -1.6802    0.6872 H   0  0  0  0  0  0  0  0  0  0  0  0
    1.5487   -1.6795    1.3074 H   0  0  0  0  0  0  0  0  0  0  0  0
    1.7344   -0.0406    1.9856 H   0  0  0  0  0  0  0  0  0  0  0  0
    1.5170   -0.6419   -1.0583 H   0  0  0  0  0  0  0  0  0  0  0  0
    1.4743    0.9645   -0.3062 H   0  0  0  0  0  0  0  0  0  0  0  0
   -1.4812   -1.8551    0.6232 H   0  0  0  0  0  0  0  0  0  0  0  0
   -0.0171   -2.2995   -0.2659 H   0  0  0  0  0  0  0  0  0  0  0  0
   -0.9289   -1.3684   -2.3841 H   0  0  0  0  0  0  0  0  0  0  0  0
   -1.9201   -2.6842   -1.6892 H   0  0  0  0  0  0  0  0  0  0  0  0
   -3.3785   -0.9741   -2.5564 H   0  0  0  0  0  0  0  0  0  0  0  0
   -3.5822   -1.0254   -0.7998 H   0  0  0  0  0  0  0  0  0  0  0  0
   -3.1938    1.2651   -2.3498 H   0  0  0  0  0  0  0  0  0  0  0  0
   -1.5121    0.9745   -1.9131 H   0  0  0  0  0  0  0  0  0  0  0  0
   -3.9351    1.6246   -0.1512 H   0  0  0  0  0  0  0  0  0  0  0  0
   -2.3833    2.4982   -0.2766 H   0  0  0  0  0  0  0  0  0  0  0  0
   -2.8966   -0.1904    1.1726 H   0  0  0  0  0  0  0  0  0  0  0  0
   -2.6505    1.3936    1.9010 H   0  0  0  0  0  0  0  0  0  0  0  0
   -0.6161   -0.0103    2.0586 H   0  0  0  0  0  0  0  0  0  0  0  0
   -0.3501    1.5492    1.2022 H   0  0  0  0  0  0  0  0  0  0  0  0
  1  2  1  0
  2  3  2  3
  2  4  1  0
  4  5  1  0
  5  6  1  0
  6  7  1  0
  7  8  1  0
  8  9  1  0
  9 10  1  0
 10 11  1  0
 11 12  1  0
 12 13  1  0
 13 14  1  0
 14  7  1  0
  1 15  1  0
  1 16  1  0
  3 17  1  0
  4 18  1  0
  5 19  1  0
  5 20  1  0
  6 21  1  0
  6 22  1  0
  8 23  1  0
  8 24  1  0
  9 25  1  0
  9 26  1  0
 10 27  1  0
 10 28  1  0
 11 29  1  0
 11 30  1  0
 12 31  1  0
 12 32  1  0
 13 33  1  0
 13 34  1  0
 14 35  1  0
 14 36  1  0
M  END
> <ID>
HT1009

> <Class>
0.0

> <Clusters>
67

> <Fold>
3

$$$$