
     RDKit          3D

  8  7  0  0  0  0  0  0  0  0999 V2000
   -1.2811   -1.3050    0.1789 F   0  0  0  0  0  0  0  0  0  0  0  0
   -0.8012   -0.0248   -0.0312 C   0  0  0  0  0  0  0  0  0  0  0  0
   -1.4187    0.8333    0.8610 F   0  0  0  0  0  0  0  0  0  0  0  0
   -1.1084    0.3674   -1.3224 F   0  0  0  0  0  0  0  0  0  0  0  0
    0.7111    0.0030    0.1859 C   0  0  0  0  0  0  0  0  0  0  0  0
    1.3522    1.6491   -0.0597 Cl  0  0  0  0  0  0  0  0  0  0  0  0
    1.6053   -1.2086   -1.0376 Br  0  0  0  0  0  0  0  0  0  0  0  0
    0.9410   -0.3144    1.2250 H   0  0  0  0  0  0  0  0  0  0  0  0
  1  2  1  0
  2  3  1  0
  2  4  1  0
  2  5  1  0
  5  6  1  0
  5  7  1  0
  5  8  1  0
M  END
> <ID>
HT1020

> <Class>
0.0

> <Clusters>
136

> <Fold>
3

$$$$