
     RDKit          3D

 66 70  0  0  0  0  0  0  0  0999 V2000
    2.9680    1.6346   -2.6790 C   0  0  0  0  0  0  0  0  0  0  0  0
    1.9797    0.4673   -2.5167 C   0  0  2  0  0  0  0  0  0  0  0  0
    0.5123    0.9572   -2.4819 C   0  0  0  0  0  0  0  0  0  0  0  0
   -0.0243    0.4642   -1.1442 C   0  0  1  0  0  0  0  0  0  0  0  0
   -1.5616    0.3755   -0.9527 C   0  0  2  0  0  0  0  0  0  0  0  0
   -2.2232    1.7379   -1.2610 C   0  0  0  0  0  0  0  0  0  0  0  0
   -3.7345    1.6902   -1.0372 C   0  0  2  0  0  0  0  0  0  0  0  0
   -4.2646    2.9445   -1.2980 F   0  0  0  0  0  0  0  0  0  0  0  0
   -4.0260    1.2212    0.3736 C   0  0  0  0  0  0  0  0  0  0  0  0
   -4.7625    1.9808    1.2048 C   0  0  0  0  0  0  0  0  0  0  0  0
   -4.9975    1.5750    2.5895 C   0  0  0  0  0  0  0  0  0  0  0  0
   -5.7036    2.2900    3.3481 O   0  0  0  0  0  0  0  0  0  0  0  0
   -4.3989    0.3430    3.0916 C   0  0  0  0  0  0  0  0  0  0  0  0
   -3.6669   -0.4300    2.2902 C   0  0  0  0  0  0  0  0  0  0  0  0
   -3.4307   -0.1328    0.8073 C   0  0  1  0  0  0  0  0  0  0  0  0
   -4.1744   -1.2417    0.0201 C   0  0  0  0  0  0  0  0  0  0  0  0
   -1.8719   -0.0707    0.5251 C   0  0  2  0  0  0  0  0  0  0  0  0
   -1.3777    0.9273    1.3611 F   0  0  0  0  0  0  0  0  0  0  0  0
   -1.0764   -1.3702    0.9127 C   0  0  1  0  0  0  0  0  0  0  0  0
   -1.6165   -2.5118    0.3033 O   0  0  0  0  0  0  0  0  0  0  0  0
    0.4425   -1.2512    0.5958 C   0  0  0  0  0  0  0  0  0  0  0  0
    0.7327   -0.8545   -0.8804 C   0  0  1  0  0  0  0  0  0  0  0  0
    0.2516   -1.9981   -1.8346 C   0  0  0  0  0  0  0  0  0  0  0  0
    2.2116   -0.3886   -1.2228 C   0  0  2  0  0  0  0  0  0  0  0  0
    2.6805    0.5096   -0.1905 O   0  0  0  0  0  0  0  0  0  0  0  0
    3.2726    0.1534    1.0329 C   0  0  0  0  0  0  0  0  0  0  0  0
    3.4355   -1.0561    1.3518 O   0  0  0  0  0  0  0  0  0  0  0  0
    3.6888    1.2142    1.9536 C   0  0  0  0  0  0  0  0  0  0  0  0
    3.5487    2.4950    1.7018 O   0  0  0  0  0  0  0  0  0  0  0  0
    4.0160    3.1753    2.7233 C   0  0  0  0  0  0  0  0  0  0  0  0
    4.4830    2.3048    3.6876 C   0  0  0  0  0  0  0  0  0  0  0  0
    4.2726    1.0358    3.1924 C   0  0  0  0  0  0  0  0  0  0  0  0
    3.3242   -1.4202   -1.5222 C   0  0  0  0  0  0  0  0  0  0  0  0
    4.4803   -1.1058   -1.2802 O   0  0  0  0  0  0  0  0  0  0  0  0
    3.1082   -2.9581   -2.4376 S   0  0  0  0  0  0  0  0  0  0  0  0
    3.5008   -4.0411   -1.0250 C   0  0  0  0  0  0  0  0  0  0  0  0
    2.5502   -3.9095   -0.0331 F   0  0  0  0  0  0  0  0  0  0  0  0
    2.8359    2.3869   -1.8722 H   0  0  0  0  0  0  0  0  0  0  0  0
    4.0125    1.2593   -2.6584 H   0  0  0  0  0  0  0  0  0  0  0  0
    2.7985    2.1362   -3.6555 H   0  0  0  0  0  0  0  0  0  0  0  0
    2.0982   -0.1764   -3.4180 H   0  0  0  0  0  0  0  0  0  0  0  0
    0.4300    2.0646   -2.5526 H   0  0  0  0  0  0  0  0  0  0  0  0
   -0.0660    0.5065   -3.3183 H   0  0  0  0  0  0  0  0  0  0  0  0
    0.3218    1.2212   -0.3995 H   0  0  0  0  0  0  0  0  0  0  0  0
   -1.9846   -0.3423   -1.6769 H   0  0  0  0  0  0  0  0  0  0  0  0
   -2.0412    2.0119   -2.3226 H   0  0  0  0  0  0  0  0  0  0  0  0
   -1.7807    2.5360   -0.6242 H   0  0  0  0  0  0  0  0  0  0  0  0
   -4.1903    0.9805   -1.7595 H   0  0  0  0  0  0  0  0  0  0  0  0
   -5.1830    2.9232    0.8776 H   0  0  0  0  0  0  0  0  0  0  0  0
   -4.5574    0.0509    4.1225 H   0  0  0  0  0  0  0  0  0  0  0  0
   -3.2869   -1.3543    2.7059 H   0  0  0  0  0  0  0  0  0  0  0  0
   -5.2723   -1.0722    0.0725 H   0  0  0  0  0  0  0  0  0  0  0  0
   -3.8925   -1.2686   -1.0497 H   0  0  0  0  0  0  0  0  0  0  0  0
   -3.9991   -2.2487    0.4517 H   0  0  0  0  0  0  0  0  0  0  0  0
   -1.1475   -1.4943    2.0173 H   0  0  0  0  0  0  0  0  0  0  0  0
   -1.2669   -3.2990    0.7972 H   0  0  0  0  0  0  0  0  0  0  0  0
    0.8335   -0.4802    1.2873 H   0  0  0  0  0  0  0  0  0  0  0  0
    0.9538   -2.2023    0.8478 H   0  0  0  0  0  0  0  0  0  0  0  0
    0.5970   -2.9830   -1.4645 H   0  0  0  0  0  0  0  0  0  0  0  0
    0.6004   -1.8551   -2.8759 H   0  0  0  0  0  0  0  0  0  0  0  0
   -0.8423   -2.0920   -1.9139 H   0  0  0  0  0  0  0  0  0  0  0  0
    4.0262    4.2552    2.7848 H   0  0  0  0  0  0  0  0  0  0  0  0
    4.9247    2.5658    4.6399 H   0  0  0  0  0  0  0  0  0  0  0  0
    4.5152    0.0994    3.6776 H   0  0  0  0  0  0  0  0  0  0  0  0
    4.5021   -3.7915   -0.6164 H   0  0  0  0  0  0  0  0  0  0  0  0
    3.5123   -5.0939   -1.3737 H   0  0  0  0  0  0  0  0  0  0  0  0
  2  1  1  0
  2  3  1  0
  4  3  1  0
  4  5  1  0
  5  6  1  0
  6  7  1  0
  7  8  1  0
  7  9  1  0
  9 10  2  0
 10 11  1  0
 11 12  2  0
 11 13  1  0
 13 14  2  0
 14 15  1  0
 15  9  1  0
 15 16  1  6
 15 17  1  0
 17  5  1  0
 17 18  1  1
 17 19  1  0
 19 20  1  0
 19 21  1  0
 21 22  1  0
 22  4  1  0
 22 23  1  6
 22 24  1  0
 24  2  1  0
 24 25  1  1
 25 26  1  0
 26 27  2  0
 26 28  1  0
 28 29  1  0
 29 30  1  0
 30 31  2  0
 31 32  1  0
 32 28  2  0
 24 33  1  0
 33 34  2  0
 33 35  1  0
 35 36  1  0
 36 37  1  0
  1 38  1  0
  1 39  1  0
  1 40  1  0
  2 41  1  6
  3 42  1  0
  3 43  1  0
  4 44  1  1
  5 45  1  6
  6 46  1  0
  6 47  1  0
  7 48  1  6
 10 49  1  0
 13 50  1  0
 14 51  1  0
 16 52  1  0
 16 53  1  0
 16 54  1  0
 19 55  1  1
 20 56  1  0
 21 57  1  0
 21 58  1  0
 23 59  1  0
 23 60  1  0
 23 61  1  0
 30 62  1  0
 31 63  1  0
 32 64  1  0
 36 65  1  0
 36 66  1  0
M  END
> <ID>
HT0924

> <Class>
0.0

> <Clusters>
109

> <Fold>
3

$$$$