
     RDKit          3D

 27 28  0  0  0  0  0  0  0  0999 V2000
   -2.1155    2.6190   -0.0070 O   0  0  0  0  0  0  0  0  0  0  0  0
   -2.2172    1.2292   -0.1395 C   0  0  0  0  0  0  0  0  0  0  0  0
   -3.3152    0.7395   -0.8613 C   0  0  0  0  0  0  0  0  0  0  0  0
   -4.4607    1.8472   -1.6048 Cl  0  0  0  0  0  0  0  0  0  0  0  0
   -3.5282   -0.6297   -0.9869 C   0  0  0  0  0  0  0  0  0  0  0  0
   -2.6656   -1.5357   -0.3776 C   0  0  0  0  0  0  0  0  0  0  0  0
   -3.0182   -3.2540   -0.5291 Cl  0  0  0  0  0  0  0  0  0  0  0  0
   -1.5482   -1.0751    0.3398 C   0  0  0  0  0  0  0  0  0  0  0  0
   -0.5373   -2.2644    1.1664 Cl  0  0  0  0  0  0  0  0  0  0  0  0
   -1.2740    0.3176    0.4236 C   0  0  0  0  0  0  0  0  0  0  0  0
   -0.0029    0.7950    1.1238 C   0  0  0  0  0  0  0  0  0  0  0  0
    1.2715    0.2956    0.4456 C   0  0  0  0  0  0  0  0  0  0  0  0
    2.2123   -0.5405    1.1192 C   0  0  0  0  0  0  0  0  0  0  0  0
    2.1006   -0.8903    2.4701 O   0  0  0  0  0  0  0  0  0  0  0  0
    3.3183   -1.0482    0.4223 C   0  0  0  0  0  0  0  0  0  0  0  0
    4.4629   -2.1177    1.2213 Cl  0  0  0  0  0  0  0  0  0  0  0  0
    3.5391   -0.7027   -0.9073 C   0  0  0  0  0  0  0  0  0  0  0  0
    2.6762    0.1717   -1.5606 C   0  0  0  0  0  0  0  0  0  0  0  0
    3.0373    0.6097   -3.2272 Cl  0  0  0  0  0  0  0  0  0  0  0  0
    1.5520    0.6864   -0.8925 C   0  0  0  0  0  0  0  0  0  0  0  0
    0.5396    1.8593   -1.7408 Cl  0  0  0  0  0  0  0  0  0  0  0  0
   -1.4723    3.1031    0.5999 H   0  0  0  0  0  0  0  0  0  0  0  0
   -4.3846   -0.9917   -1.5424 H   0  0  0  0  0  0  0  0  0  0  0  0
   -0.0988    0.4864    2.1761 H   0  0  0  0  0  0  0  0  0  0  0  0
    0.0892    1.8908    1.1753 H   0  0  0  0  0  0  0  0  0  0  0  0
    1.4388   -0.5012    3.1232 H   0  0  0  0  0  0  0  0  0  0  0  0
    4.4011   -1.0991   -1.4295 H   0  0  0  0  0  0  0  0  0  0  0  0
  1  2  1  0
  2  3  2  0
  3  4  1  0
  3  5  1  0
  5  6  2  0
  6  7  1  0
  6  8  1  0
  8  9  1  0
  8 10  2  0
 10  2  1  0
 10 11  1  0
 11 12  1  0
 12 13  2  0
 13 14  1  0
 13 15  1  0
 15 16  1  0
 15 17  2  0
 17 18  1  0
 18 19  1  0
 18 20  2  0
 20 12  1  0
 20 21  1  0
  1 22  1  0
  5 23  1  0
 11 24  1  0
 11 25  1  0
 14 26  1  0
 17 27  1  0
M  END
> <ID>
HT1030

> <Class>
0.0

> <Clusters>
126

> <Fold>
3

$$$$