
     RDKit          3D

 58 61  0  0  0  0  0  0  0  0999 V2000
    1.1265   -2.5955    1.6888 C   0  0  0  0  0  0  0  0  0  0  0  0
    0.0002   -1.7117    2.2418 C   0  0  0  0  0  0  0  0  0  0  0  0
    0.5315   -0.6585    3.2233 C   0  0  0  0  0  0  0  0  0  0  0  0
   -0.8669   -1.1172    1.1418 C   0  0  0  0  0  0  0  0  0  0  0  0
   -2.1651   -1.5251    1.0985 N   0  0  0  0  0  0  0  0  0  0  0  0
   -3.0600   -1.0902    0.1719 C   0  0  0  0  0  0  0  0  0  0  0  0
   -2.6379   -0.1843   -0.8081 C   0  0  0  0  0  0  0  0  0  0  0  0
   -1.3168    0.2699   -0.8102 C   0  0  0  0  0  0  0  0  0  0  0  0
   -0.4072   -0.1940    0.1667 C   0  0  0  0  0  0  0  0  0  0  0  0
    0.9767    0.3183    0.1654 C   0  0  0  0  0  0  0  0  0  0  0  0
    1.8639   -0.0959   -0.7445 C   0  0  0  0  0  0  0  0  0  0  0  0
    3.2392    0.4999   -0.8395 C   0  0  0  0  0  0  0  0  0  0  0  0
    4.1320    0.0975    0.3669 C   0  0  0  0  0  0  0  0  0  0  0  0
    5.2998    1.0885    0.6521 C   0  0  0  0  0  0  0  0  0  0  0  0
    6.4722    0.3828    0.9633 O   0  0  0  0  0  0  0  0  0  0  0  0
    5.5836    2.0382   -0.5196 C   0  0  0  0  0  0  0  0  0  0  0  0
    4.2995    2.6989   -0.9094 C   0  0  0  0  0  0  0  0  0  0  0  0
    4.2394    3.9414   -1.1116 O   0  0  0  0  0  0  0  0  0  0  0  0
    3.1479    1.9192   -0.9722 O   0  0  0  0  0  0  0  0  0  0  0  0
   -0.9179    1.2656   -1.8242 C   0  0  0  0  0  0  0  0  0  0  0  0
   -0.3638    0.8504   -3.0456 C   0  0  0  0  0  0  0  0  0  0  0  0
    0.0339    1.8000   -3.9921 C   0  0  0  0  0  0  0  0  0  0  0  0
   -0.1340    3.1642   -3.7308 C   0  0  0  0  0  0  0  0  0  0  0  0
    0.2478    4.0829   -4.6527 F   0  0  0  0  0  0  0  0  0  0  0  0
   -0.6967    3.5811   -2.5199 C   0  0  0  0  0  0  0  0  0  0  0  0
   -1.0860    2.6351   -1.5661 C   0  0  0  0  0  0  0  0  0  0  0  0
   -4.4556   -1.5963    0.2180 C   0  0  0  0  0  0  0  0  0  0  0  0
   -4.7162   -2.8827    0.7259 C   0  0  0  0  0  0  0  0  0  0  0  0
   -6.0252   -3.3713    0.7846 C   0  0  0  0  0  0  0  0  0  0  0  0
   -7.0894   -2.5793    0.3496 C   0  0  0  0  0  0  0  0  0  0  0  0
   -6.8469   -1.2962   -0.1452 C   0  0  0  0  0  0  0  0  0  0  0  0
   -5.5392   -0.8039   -0.2108 C   0  0  0  0  0  0  0  0  0  0  0  0
    1.5656   -3.1995    2.5107 H   0  0  0  0  0  0  0  0  0  0  0  0
    1.9387   -1.9916    1.2411 H   0  0  0  0  0  0  0  0  0  0  0  0
    0.7282   -3.2907    0.9200 H   0  0  0  0  0  0  0  0  0  0  0  0
   -0.6512   -2.3868    2.8433 H   0  0  0  0  0  0  0  0  0  0  0  0
    1.3929   -0.1020    2.8044 H   0  0  0  0  0  0  0  0  0  0  0  0
   -0.2723    0.0580    3.4961 H   0  0  0  0  0  0  0  0  0  0  0  0
    0.8799   -1.1580    4.1530 H   0  0  0  0  0  0  0  0  0  0  0  0
   -3.3197    0.1599   -1.5764 H   0  0  0  0  0  0  0  0  0  0  0  0
    1.2395    1.1060    0.8624 H   0  0  0  0  0  0  0  0  0  0  0  0
    1.5811   -0.8587   -1.4633 H   0  0  0  0  0  0  0  0  0  0  0  0
    3.7180    0.1020   -1.7624 H   0  0  0  0  0  0  0  0  0  0  0  0
    3.5209    0.0171    1.2927 H   0  0  0  0  0  0  0  0  0  0  0  0
    4.5376   -0.9205    0.1680 H   0  0  0  0  0  0  0  0  0  0  0  0
    5.0152    1.7239    1.5238 H   0  0  0  0  0  0  0  0  0  0  0  0
    6.3379   -0.0087    1.8677 H   0  0  0  0  0  0  0  0  0  0  0  0
    5.9703    1.4599   -1.3843 H   0  0  0  0  0  0  0  0  0  0  0  0
    6.3401    2.7962   -0.2270 H   0  0  0  0  0  0  0  0  0  0  0  0
   -0.2320   -0.2042   -3.2586 H   0  0  0  0  0  0  0  0  0  0  0  0
    0.4699    1.4768   -4.9287 H   0  0  0  0  0  0  0  0  0  0  0  0
   -0.8319    4.6363   -2.3186 H   0  0  0  0  0  0  0  0  0  0  0  0
   -1.5171    2.9671   -0.6292 H   0  0  0  0  0  0  0  0  0  0  0  0
   -3.9063   -3.5165    1.0655 H   0  0  0  0  0  0  0  0  0  0  0  0
   -6.2138   -4.3647    1.1701 H   0  0  0  0  0  0  0  0  0  0  0  0
   -8.1024   -2.9579    0.3993 H   0  0  0  0  0  0  0  0  0  0  0  0
   -7.6738   -0.6789   -0.4722 H   0  0  0  0  0  0  0  0  0  0  0  0
   -5.3848    0.2038   -0.5726 H   0  0  0  0  0  0  0  0  0  0  0  0
  1  2  1  0
  2  3  1  0
  2  4  1  0
  4  5  2  0
  5  6  1  0
  6  7  2  0
  7  8  1  0
  8  9  2  0
  9  4  1  0
  9 10  1  0
 10 11  2  3
 11 12  1  0
 12 13  1  0
 13 14  1  0
 14 15  1  0
 14 16  1  0
 16 17  1  0
 17 18  2  0
 17 19  1  0
 19 12  1  0
  8 20  1  0
 20 21  2  0
 21 22  1  0
 22 23  2  0
 23 24  1  0
 23 25  1  0
 25 26  2  0
 26 20  1  0
  6 27  1  0
 27 28  2  0
 28 29  1  0
 29 30  2  0
 30 31  1  0
 31 32  2  0
 32 27  1  0
  1 33  1  0
  1 34  1  0
  1 35  1  0
  2 36  1  0
  3 37  1  0
  3 38  1  0
  3 39  1  0
  7 40  1  0
 10 41  1  0
 11 42  1  0
 12 43  1  0
 13 44  1  0
 13 45  1  0
 14 46  1  0
 15 47  1  0
 16 48  1  0
 16 49  1  0
 21 50  1  0
 22 51  1  0
 25 52  1  0
 26 53  1  0
 28 54  1  0
 29 55  1  0
 30 56  1  0
 31 57  1  0
 32 58  1  0
M  END
> <ID>
HT0985

> <Class>
0.0

> <Clusters>
110

> <Fold>
3

$$$$