
     RDKit          3D

 28 28  0  0  0  0  0  0  0  0999 V2000
   -2.3808   -2.3764    1.8315 C   0  0  0  0  0  0  0  0  0  0  0  0
   -1.4873   -1.4188    1.2730 O   0  0  0  0  0  0  0  0  0  0  0  0
   -1.8684   -0.3968    0.3891 C   0  0  0  0  0  0  0  0  0  0  0  0
   -3.2036   -0.2287   -0.0293 C   0  0  0  0  0  0  0  0  0  0  0  0
   -3.5418    0.8005   -0.9105 C   0  0  0  0  0  0  0  0  0  0  0  0
   -2.5580    1.6696   -1.3821 C   0  0  0  0  0  0  0  0  0  0  0  0
   -1.2314    1.5134   -0.9747 C   0  0  0  0  0  0  0  0  0  0  0  0
   -0.8776    0.4787   -0.0860 C   0  0  0  0  0  0  0  0  0  0  0  0
    0.4435    0.2875    0.3475 O   0  0  0  0  0  0  0  0  0  0  0  0
    1.5530    1.0857   -0.0597 C   0  0  0  0  0  0  0  0  0  0  0  0
    2.8368    0.5804    0.6137 C   0  0  0  0  0  0  0  0  0  0  0  0
    3.8998    1.4647    0.3599 O   0  0  0  0  0  0  0  0  0  0  0  0
    3.1940   -0.8458    0.1578 C   0  0  0  0  0  0  0  0  0  0  0  0
    4.3299   -1.3064    0.8389 O   0  0  0  0  0  0  0  0  0  0  0  0
   -3.1591   -1.8651    2.4366 H   0  0  0  0  0  0  0  0  0  0  0  0
   -2.8550   -2.9729    1.0237 H   0  0  0  0  0  0  0  0  0  0  0  0
   -1.8110   -3.0619    2.4916 H   0  0  0  0  0  0  0  0  0  0  0  0
   -3.9863   -0.8878    0.3204 H   0  0  0  0  0  0  0  0  0  0  0  0
   -4.5691    0.9245   -1.2283 H   0  0  0  0  0  0  0  0  0  0  0  0
   -2.8236    2.4664   -2.0650 H   0  0  0  0  0  0  0  0  0  0  0  0
   -0.4896    2.2017   -1.3556 H   0  0  0  0  0  0  0  0  0  0  0  0
    1.3774    2.1405    0.2447 H   0  0  0  0  0  0  0  0  0  0  0  0
    1.6637    1.0406   -1.1655 H   0  0  0  0  0  0  0  0  0  0  0  0
    2.6647    0.5618    1.7122 H   0  0  0  0  0  0  0  0  0  0  0  0
    4.0509    1.4782   -0.6219 H   0  0  0  0  0  0  0  0  0  0  0  0
    3.3593   -0.8762   -0.9440 H   0  0  0  0  0  0  0  0  0  0  0  0
    2.3513   -1.5314    0.3892 H   0  0  0  0  0  0  0  0  0  0  0  0
    5.1182   -0.9260    0.3705 H   0  0  0  0  0  0  0  0  0  0  0  0
  1  2  1  0
  2  3  1  0
  3  4  2  0
  4  5  1  0
  5  6  2  0
  6  7  1  0
  7  8  2  0
  8  3  1  0
  8  9  1  0
  9 10  1  0
 10 11  1  0
 11 12  1  0
 11 13  1  0
 13 14  1  0
  1 15  1  0
  1 16  1  0
  1 17  1  0
  4 18  1  0
  5 19  1  0
  6 20  1  0
  7 21  1  0
 10 22  1  0
 10 23  1  0
 11 24  1  0
 12 25  1  0
 13 26  1  0
 13 27  1  0
 14 28  1  0
M  END
> <ID>
HT1006

> <Class>
0.0

> <Clusters>
121

> <Fold>
3

$$$$