
     RDKit          3D

 45 47  0  0  0  0  0  0  0  0999 V2000
   -3.5352   -2.2562    0.4731 C   0  0  0  0  0  0  0  0  0  0  0  0
   -3.5793   -0.9445   -0.3247 C   0  0  0  0  0  0  0  0  0  0  0  0
   -4.7356   -1.0037   -1.3437 C   0  0  0  0  0  0  0  0  0  0  0  0
   -2.0032   -0.7792   -1.2892 S   0  0  0  0  0  0  0  0  0  0  0  0
   -2.0632    1.0421   -1.1550 C   0  0  2  0  0  0  0  0  0  0  0  0
   -0.8960    1.7482   -0.6794 C   0  0  2  0  0  0  0  0  0  0  0  0
    0.2354    0.8744   -0.3801 N   0  0  0  0  0  0  0  0  0  0  0  0
    1.3376    1.3124    0.1461 C   0  0  0  0  0  0  0  0  0  0  0  0
    2.4239    0.4121    0.4348 N   0  0  0  0  0  0  0  0  0  0  0  0
    2.2943   -1.0080    0.0544 C   0  0  0  0  0  0  0  0  0  0  0  0
    3.5888   -1.8285    0.1722 C   0  0  0  0  0  0  0  0  0  0  0  0
    4.7028   -1.3202   -0.7573 C   0  0  0  0  0  0  0  0  0  0  0  0
    5.5454   -0.2079   -0.1223 C   0  0  0  0  0  0  0  0  0  0  0  0
    4.7711    1.0994    0.0762 C   0  0  0  0  0  0  0  0  0  0  0  0
    3.6253    0.9569    1.0835 C   0  0  0  0  0  0  0  0  0  0  0  0
   -1.6744    2.0842    0.5538 C   0  0  0  0  0  0  0  0  0  0  0  0
   -1.4419    2.7265    1.6109 O   0  0  0  0  0  0  0  0  0  0  0  0
   -2.8060    1.2763    0.0445 N   0  0  0  0  0  0  0  0  0  0  0  0
   -3.6658    0.2847    0.6390 C   0  0  1  0  0  0  0  0  0  0  0  0
   -5.0525    0.8326    0.8674 C   0  0  0  0  0  0  0  0  0  0  0  0
   -5.7427    0.3876    1.8218 O   0  0  0  0  0  0  0  0  0  0  0  0
   -5.5982    1.8069    0.0332 O   0  0  0  0  0  0  0  0  0  0  0  0
   -4.4570   -2.3686    1.0834 H   0  0  0  0  0  0  0  0  0  0  0  0
   -3.4534   -3.1274   -0.2118 H   0  0  0  0  0  0  0  0  0  0  0  0
   -2.6560   -2.2685    1.1525 H   0  0  0  0  0  0  0  0  0  0  0  0
   -4.5784   -1.8403   -2.0579 H   0  0  0  0  0  0  0  0  0  0  0  0
   -5.7085   -1.1690   -0.8332 H   0  0  0  0  0  0  0  0  0  0  0  0
   -4.7904   -0.0609   -1.9278 H   0  0  0  0  0  0  0  0  0  0  0  0
   -2.5560    1.5245   -2.0281 H   0  0  0  0  0  0  0  0  0  0  0  0
   -0.6219    2.6363   -1.2906 H   0  0  0  0  0  0  0  0  0  0  0  0
    1.4370    2.3678    0.3763 H   0  0  0  0  0  0  0  0  0  0  0  0
    1.9400   -1.0755   -0.9981 H   0  0  0  0  0  0  0  0  0  0  0  0
    1.5185   -1.4789    0.6960 H   0  0  0  0  0  0  0  0  0  0  0  0
    3.9328   -1.8793    1.2274 H   0  0  0  0  0  0  0  0  0  0  0  0
    3.3451   -2.8719   -0.1250 H   0  0  0  0  0  0  0  0  0  0  0  0
    5.3837   -2.1712   -0.9779 H   0  0  0  0  0  0  0  0  0  0  0  0
    4.2842   -0.9797   -1.7299 H   0  0  0  0  0  0  0  0  0  0  0  0
    5.9649   -0.5534    0.8482 H   0  0  0  0  0  0  0  0  0  0  0  0
    6.4071    0.0002   -0.7932 H   0  0  0  0  0  0  0  0  0  0  0  0
    5.4836    1.8618    0.4600 H   0  0  0  0  0  0  0  0  0  0  0  0
    4.3838    1.4697   -0.8984 H   0  0  0  0  0  0  0  0  0  0  0  0
    3.4096    1.9615    1.5098 H   0  0  0  0  0  0  0  0  0  0  0  0
    3.9207    0.3252    1.9481 H   0  0  0  0  0  0  0  0  0  0  0  0
   -3.2313    0.0237    1.6301 H   0  0  0  0  0  0  0  0  0  0  0  0
   -5.0888    2.1782   -0.7593 H   0  0  0  0  0  0  0  0  0  0  0  0
  1  2  1  0
  2  3  1  0
  2  4  1  0
  5  4  1  0
  5  6  1  0
  6  7  1  0
  7  8  2  0
  8  9  1  0
  9 10  1  0
 10 11  1  0
 11 12  1  0
 12 13  1  0
 13 14  1  0
 14 15  1  0
 15  9  1  0
  6 16  1  0
 16 17  2  0
 16 18  1  0
 18  5  1  0
 18 19  1  0
 19  2  1  0
 19 20  1  0
 20 21  2  0
 20 22  1  0
  1 23  1  0
  1 24  1  0
  1 25  1  0
  3 26  1  0
  3 27  1  0
  3 28  1  0
  5 29  1  6
  6 30  1  6
  8 31  1  0
 10 32  1  0
 10 33  1  0
 11 34  1  0
 11 35  1  0
 12 36  1  0
 12 37  1  0
 13 38  1  0
 13 39  1  0
 14 40  1  0
 14 41  1  0
 15 42  1  0
 15 43  1  0
 19 44  1  1
 22 45  1  0
M  END
> <ID>
HT0127

> <Class>
0.0

> <Clusters>
14

> <Fold>
3

$$$$