
     RDKit          3D

 64 67  0  0  0  0  0  0  0  0999 V2000
    4.4361   -0.3045    4.4917 C   0  0  0  0  0  0  0  0  0  0  0  0
    3.1949   -0.5464    3.6338 C   0  0  0  0  0  0  0  0  0  0  0  0
    3.4282   -0.2946    2.1723 C   0  0  0  0  0  0  0  0  0  0  0  0
    4.5591    0.0757    1.7496 O   0  0  0  0  0  0  0  0  0  0  0  0
    2.3582   -0.4828    1.2825 O   0  0  0  0  0  0  0  0  0  0  0  0
    2.3980   -0.2655   -0.1457 C   0  0  2  0  0  0  0  0  0  0  0  0
    2.6022    1.2951   -0.3527 C   0  0  1  0  0  0  0  0  0  0  0  0
    3.6351    1.7851   -1.3748 C   0  0  0  0  0  0  0  0  0  0  0  0
    1.2007    1.8903   -0.6318 C   0  0  0  0  0  0  0  0  0  0  0  0
    0.2422    0.7772   -0.2267 C   0  0  1  0  0  0  0  0  0  0  0  0
   -1.2419    0.8656   -0.6592 C   0  0  2  0  0  0  0  0  0  0  0  0
   -1.8520    2.2133   -0.2126 C   0  0  0  0  0  0  0  0  0  0  0  0
   -3.3347    2.3055   -0.5706 C   0  0  2  0  0  0  0  0  0  0  0  0
   -3.8303    3.5175   -0.1147 F   0  0  0  0  0  0  0  0  0  0  0  0
   -4.0743    1.1211    0.0165 C   0  0  0  0  0  0  0  0  0  0  0  0
   -5.1120    1.3114    0.8516 C   0  0  0  0  0  0  0  0  0  0  0  0
   -5.7961    0.1800    1.4754 C   0  0  0  0  0  0  0  0  0  0  0  0
   -6.7760    0.3761    2.2414 O   0  0  0  0  0  0  0  0  0  0  0  0
   -5.3298   -1.1777    1.2150 C   0  0  0  0  0  0  0  0  0  0  0  0
   -4.3059   -1.3957    0.3907 C   0  0  0  0  0  0  0  0  0  0  0  0
   -3.5752   -0.2852   -0.3681 C   0  0  1  0  0  0  0  0  0  0  0  0
   -3.9011   -0.4979   -1.8689 C   0  0  0  0  0  0  0  0  0  0  0  0
   -2.0284   -0.3438   -0.0237 C   0  0  2  0  0  0  0  0  0  0  0  0
   -1.9456   -0.1971    1.3586 F   0  0  0  0  0  0  0  0  0  0  0  0
   -1.3333   -1.7220   -0.3358 C   0  0  1  0  0  0  0  0  0  0  0  0
   -1.5663   -2.1343   -1.6555 O   0  0  0  0  0  0  0  0  0  0  0  0
    0.1948   -1.7144   -0.0360 C   0  0  0  0  0  0  0  0  0  0  0  0
    0.9404   -0.5126   -0.6849 C   0  0  2  0  0  0  0  0  0  0  0  0
    0.9334   -0.6706   -2.2402 C   0  0  0  0  0  0  0  0  0  0  0  0
    3.4450   -1.2569   -0.7220 C   0  0  0  0  0  0  0  0  0  0  0  0
    3.7985   -2.1863   -0.0088 O   0  0  0  0  0  0  0  0  0  0  0  0
    4.0665   -1.2106   -2.0997 C   0  0  0  0  0  0  0  0  0  0  0  0
    3.9670   -2.8086   -2.8884 Cl  0  0  0  0  0  0  0  0  0  0  0  0
    5.2594   -0.9819    4.1792 H   0  0  0  0  0  0  0  0  0  0  0  0
    4.1961   -0.5075    5.5566 H   0  0  0  0  0  0  0  0  0  0  0  0
    4.7695    0.7512    4.3991 H   0  0  0  0  0  0  0  0  0  0  0  0
    2.8642   -1.5986    3.7653 H   0  0  0  0  0  0  0  0  0  0  0  0
    2.3784    0.1206    3.9836 H   0  0  0  0  0  0  0  0  0  0  0  0
    2.9330    1.7409    0.6108 H   0  0  0  0  0  0  0  0  0  0  0  0
    3.2983    1.6263   -2.4174 H   0  0  0  0  0  0  0  0  0  0  0  0
    3.7753    2.8804   -1.2518 H   0  0  0  0  0  0  0  0  0  0  0  0
    4.6200    1.3088   -1.1948 H   0  0  0  0  0  0  0  0  0  0  0  0
    1.0305    2.8054   -0.0228 H   0  0  0  0  0  0  0  0  0  0  0  0
    1.0572    2.1500   -1.7032 H   0  0  0  0  0  0  0  0  0  0  0  0
    0.2336    0.7976    0.8902 H   0  0  0  0  0  0  0  0  0  0  0  0
   -1.3052    0.8411   -1.7623 H   0  0  0  0  0  0  0  0  0  0  0  0
   -1.3230    3.0497   -0.7184 H   0  0  0  0  0  0  0  0  0  0  0  0
   -1.7291    2.3480    0.8852 H   0  0  0  0  0  0  0  0  0  0  0  0
   -3.4469    2.2956   -1.6754 H   0  0  0  0  0  0  0  0  0  0  0  0
   -5.4554    2.3075    1.1001 H   0  0  0  0  0  0  0  0  0  0  0  0
   -5.8250   -2.0155    1.6905 H   0  0  0  0  0  0  0  0  0  0  0  0
   -4.0320   -2.4258    0.2016 H   0  0  0  0  0  0  0  0  0  0  0  0
   -3.2397    0.0872   -2.5361 H   0  0  0  0  0  0  0  0  0  0  0  0
   -3.8367   -1.5654   -2.1641 H   0  0  0  0  0  0  0  0  0  0  0  0
   -4.9481   -0.1864   -2.0779 H   0  0  0  0  0  0  0  0  0  0  0  0
   -1.7728   -2.4816    0.3506 H   0  0  0  0  0  0  0  0  0  0  0  0
   -1.3784   -3.1086   -1.6954 H   0  0  0  0  0  0  0  0  0  0  0  0
    0.3078   -1.6918    1.0689 H   0  0  0  0  0  0  0  0  0  0  0  0
    0.6522   -2.6690   -0.3763 H   0  0  0  0  0  0  0  0  0  0  0  0
    1.3697   -1.6465   -2.5312 H   0  0  0  0  0  0  0  0  0  0  0  0
   -0.0719   -0.6452   -2.6891 H   0  0  0  0  0  0  0  0  0  0  0  0
    1.4883    0.1408   -2.7441 H   0  0  0  0  0  0  0  0  0  0  0  0
    5.1397   -0.9452   -2.0014 H   0  0  0  0  0  0  0  0  0  0  0  0
    3.5937   -0.4886   -2.7778 H   0  0  0  0  0  0  0  0  0  0  0  0
  1  2  1  0
  2  3  1  0
  3  4  2  0
  3  5  1  0
  6  5  1  1
  6  7  1  0
  7  8  1  0
  7  9  1  0
 10  9  1  0
 10 11  1  0
 11 12  1  0
 12 13  1  0
 13 14  1  0
 13 15  1  0
 15 16  2  0
 16 17  1  0
 17 18  2  0
 17 19  1  0
 19 20  2  0
 20 21  1  0
 21 15  1  0
 21 22  1  6
 21 23  1  0
 23 11  1  0
 23 24  1  1
 23 25  1  0
 25 26  1  0
 25 27  1  0
 27 28  1  0
 28  6  1  0
 28 10  1  0
 28 29  1  6
  6 30  1  0
 30 31  2  0
 30 32  1  0
 32 33  1  0
  1 34  1  0
  1 35  1  0
  1 36  1  0
  2 37  1  0
  2 38  1  0
  7 39  1  1
  8 40  1  0
  8 41  1  0
  8 42  1  0
  9 43  1  0
  9 44  1  0
 10 45  1  1
 11 46  1  6
 12 47  1  0
 12 48  1  0
 13 49  1  6
 16 50  1  0
 19 51  1  0
 20 52  1  0
 22 53  1  0
 22 54  1  0
 22 55  1  0
 25 56  1  1
 26 57  1  0
 27 58  1  0
 27 59  1  0
 29 60  1  0
 29 61  1  0
 29 62  1  0
 32 63  1  0
 32 64  1  0
M  END
> <ID>
HT1015

> <Class>
0.0

> <Clusters>
109

> <Fold>
3

$$$$