
     RDKit          3D

 62 62  0  0  0  0  0  0  0  0999 V2000
   -7.5427    2.3571   -0.0195 C   0  0  0  0  0  0  0  0  0  0  0  0
   -6.6217    1.8154   -1.1095 C   0  0  0  0  0  0  0  0  0  0  0  0
   -6.4166    0.3014   -0.9574 C   0  0  0  0  0  0  0  0  0  0  0  0
   -5.6172   -0.3113   -2.1216 C   0  0  0  0  0  0  0  0  0  0  0  0
   -4.1817    0.2295   -2.2857 C   0  0  0  0  0  0  0  0  0  0  0  0
   -3.2900    0.1234   -1.0349 C   0  0  0  0  0  0  0  0  0  0  0  0
   -3.0795   -1.3251   -0.5662 C   0  0  0  0  0  0  0  0  0  0  0  0
   -2.1649   -1.3667    0.5958 N   0  0  0  0  0  0  0  0  0  0  0  0
   -2.3968   -2.5364    1.4741 C   0  0  0  0  0  0  0  0  0  0  0  0
   -2.2820   -3.8861    0.7499 C   0  0  0  0  0  0  0  0  0  0  0  0
   -0.7374   -1.1823    0.2392 C   0  0  0  0  0  0  0  0  0  0  0  0
   -0.2013    0.0692    0.9449 C   0  0  0  0  0  0  0  0  0  0  0  0
    1.2463    0.4110    0.5466 C   0  0  0  0  0  0  0  0  0  0  0  0
    2.2978   -0.5148    1.2070 C   0  0  0  0  0  0  0  0  0  0  0  0
    2.2091   -0.4368    2.6083 O   0  0  0  0  0  0  0  0  0  0  0  0
    3.7369   -0.2695    0.7690 C   0  0  0  0  0  0  0  0  0  0  0  0
    4.1288    0.8244   -0.0297 C   0  0  0  0  0  0  0  0  0  0  0  0
    5.4679    0.9978   -0.3926 C   0  0  0  0  0  0  0  0  0  0  0  0
    6.4502    0.0874    0.0372 C   0  0  0  0  0  0  0  0  0  0  0  0
    7.8399    0.2357   -0.3110 N   0  0  0  0  0  0  0  0  0  0  0  0
    8.4914    1.5579   -1.2293 S   0  0  0  0  0  0  0  0  0  0  0  0
    9.9356    1.2733   -1.5308 O   0  0  0  0  0  0  0  0  0  0  0  0
    7.7483    1.6963   -2.5289 O   0  0  0  0  0  0  0  0  0  0  0  0
    8.3952    3.0671   -0.2895 C   0  0  0  0  0  0  0  0  0  0  0  0
    6.0603   -1.0006    0.8315 C   0  0  0  0  0  0  0  0  0  0  0  0
    4.7226   -1.1767    1.1930 C   0  0  0  0  0  0  0  0  0  0  0  0
   -7.1095    2.1595    0.9840 H   0  0  0  0  0  0  0  0  0  0  0  0
   -7.6620    3.4535   -0.1451 H   0  0  0  0  0  0  0  0  0  0  0  0
   -8.5443    1.8813   -0.0875 H   0  0  0  0  0  0  0  0  0  0  0  0
   -7.0692    2.0368   -2.1032 H   0  0  0  0  0  0  0  0  0  0  0  0
   -5.6461    2.3406   -1.0351 H   0  0  0  0  0  0  0  0  0  0  0  0
   -7.4123   -0.1943   -0.9348 H   0  0  0  0  0  0  0  0  0  0  0  0
   -5.9217    0.0773    0.0113 H   0  0  0  0  0  0  0  0  0  0  0  0
   -5.5832   -1.4141   -1.9931 H   0  0  0  0  0  0  0  0  0  0  0  0
   -6.1696   -0.1272   -3.0696 H   0  0  0  0  0  0  0  0  0  0  0  0
   -4.2258    1.2940   -2.6011 H   0  0  0  0  0  0  0  0  0  0  0  0
   -3.6944   -0.3238   -3.1186 H   0  0  0  0  0  0  0  0  0  0  0  0
   -2.3070    0.5707   -1.2933 H   0  0  0  0  0  0  0  0  0  0  0  0
   -3.7105    0.7311   -0.2058 H   0  0  0  0  0  0  0  0  0  0  0  0
   -2.6871   -1.9487   -1.4014 H   0  0  0  0  0  0  0  0  0  0  0  0
   -4.0705   -1.7350   -0.2741 H   0  0  0  0  0  0  0  0  0  0  0  0
   -3.4091   -2.4588    1.9259 H   0  0  0  0  0  0  0  0  0  0  0  0
   -1.6772   -2.5156    2.3224 H   0  0  0  0  0  0  0  0  0  0  0  0
   -3.0978   -4.0076    0.0077 H   0  0  0  0  0  0  0  0  0  0  0  0
   -1.3058   -3.9894    0.2360 H   0  0  0  0  0  0  0  0  0  0  0  0
   -2.3730   -4.7050    1.4927 H   0  0  0  0  0  0  0  0  0  0  0  0
   -0.1238   -2.0565    0.5415 H   0  0  0  0  0  0  0  0  0  0  0  0
   -0.5984   -1.0671   -0.8590 H   0  0  0  0  0  0  0  0  0  0  0  0
   -0.8457    0.9313    0.6678 H   0  0  0  0  0  0  0  0  0  0  0  0
   -0.2810   -0.0583    2.0459 H   0  0  0  0  0  0  0  0  0  0  0  0
    1.3404    0.3620   -0.5610 H   0  0  0  0  0  0  0  0  0  0  0  0
    1.4432    1.4603    0.8588 H   0  0  0  0  0  0  0  0  0  0  0  0
    2.0574   -1.5571    0.9103 H   0  0  0  0  0  0  0  0  0  0  0  0
    2.4479    0.4918    2.8682 H   0  0  0  0  0  0  0  0  0  0  0  0
    3.4146    1.5565   -0.3781 H   0  0  0  0  0  0  0  0  0  0  0  0
    5.7196    1.8476   -1.0083 H   0  0  0  0  0  0  0  0  0  0  0  0
    8.5200   -0.4873    0.0128 H   0  0  0  0  0  0  0  0  0  0  0  0
    9.0861    3.0079    0.5775 H   0  0  0  0  0  0  0  0  0  0  0  0
    8.6841    3.9242   -0.9316 H   0  0  0  0  0  0  0  0  0  0  0  0
    7.3629    3.2219    0.0844 H   0  0  0  0  0  0  0  0  0  0  0  0
    6.7968   -1.7168    1.1747 H   0  0  0  0  0  0  0  0  0  0  0  0
    4.4533   -2.0264    1.8092 H   0  0  0  0  0  0  0  0  0  0  0  0
  1  2  1  0
  2  3  1  0
  3  4  1  0
  4  5  1  0
  5  6  1  0
  6  7  1  0
  7  8  1  0
  8  9  1  0
  9 10  1  0
  8 11  1  0
 11 12  1  0
 12 13  1  0
 13 14  1  0
 14 15  1  0
 14 16  1  0
 16 17  2  0
 17 18  1  0
 18 19  2  0
 19 20  1  0
 20 21  1  0
 21 22  2  0
 21 23  2  0
 21 24  1  0
 19 25  1  0
 25 26  2  0
 26 16  1  0
  1 27  1  0
  1 28  1  0
  1 29  1  0
  2 30  1  0
  2 31  1  0
  3 32  1  0
  3 33  1  0
  4 34  1  0
  4 35  1  0
  5 36  1  0
  5 37  1  0
  6 38  1  0
  6 39  1  0
  7 40  1  0
  7 41  1  0
  9 42  1  0
  9 43  1  0
 10 44  1  0
 10 45  1  0
 10 46  1  0
 11 47  1  0
 11 48  1  0
 12 49  1  0
 12 50  1  0
 13 51  1  0
 13 52  1  0
 14 53  1  0
 15 54  1  0
 17 55  1  0
 18 56  1  0
 20 57  1  0
 24 58  1  0
 24 59  1  0
 24 60  1  0
 25 61  1  0
 26 62  1  0
M  END
> <ID>
HT1071

> <Class>
0.0

> <Clusters>
88

> <Fold>
3

$$$$