
     RDKit          3D

 45 47  0  0  0  0  0  0  0  0999 V2000
   -4.1158   -1.0709    0.5924 C   0  0  0  0  0  0  0  0  0  0  0  0
   -2.7406   -0.5899    0.2646 N   0  0  0  0  0  0  0  0  0  0  0  0
   -1.9878   -1.7962   -0.1880 C   0  0  0  0  0  0  0  0  0  0  0  0
   -2.7926    0.5145   -0.7268 C   0  0  0  0  0  0  0  0  0  0  0  0
   -3.3121    1.7411    0.0578 C   0  0  0  0  0  0  0  0  0  0  0  0
   -2.8737    1.4722    1.5027 C   0  0  0  0  0  0  0  0  0  0  0  0
   -2.1395    0.1139    1.4258 C   0  0  0  0  0  0  0  0  0  0  0  0
   -0.6247    0.3916    1.1919 C   0  0  0  0  0  0  0  0  0  0  0  0
   -0.3541    1.1583   -0.1345 C   0  0  0  0  0  0  0  0  0  0  0  0
   -1.3716    0.8498   -1.2701 C   0  0  0  0  0  0  0  0  0  0  0  0
    0.9636    0.8479   -0.5891 O   0  0  0  0  0  0  0  0  0  0  0  0
    2.0007    1.7814   -0.7125 C   0  0  0  0  0  0  0  0  0  0  0  0
    1.7847    3.0123   -0.5401 O   0  0  0  0  0  0  0  0  0  0  0  0
    3.3724    1.3124   -1.1252 C   0  0  0  0  0  0  0  0  0  0  0  0
    4.3735    2.1915   -0.6731 O   0  0  0  0  0  0  0  0  0  0  0  0
    3.6475   -0.0976   -0.6397 C   0  0  0  0  0  0  0  0  0  0  0  0
    3.9299   -1.1217   -1.5614 C   0  0  0  0  0  0  0  0  0  0  0  0
    4.1691   -2.4261   -1.1178 C   0  0  0  0  0  0  0  0  0  0  0  0
    4.1273   -2.7215    0.2469 C   0  0  0  0  0  0  0  0  0  0  0  0
    3.8464   -1.7129    1.1716 C   0  0  0  0  0  0  0  0  0  0  0  0
    3.6083   -0.4068    0.7338 C   0  0  0  0  0  0  0  0  0  0  0  0
   -4.7930   -0.2687    0.9470 H   0  0  0  0  0  0  0  0  0  0  0  0
   -4.6001   -1.5244   -0.3014 H   0  0  0  0  0  0  0  0  0  0  0  0
   -4.0851   -1.8402    1.3963 H   0  0  0  0  0  0  0  0  0  0  0  0
   -1.9570   -2.5625    0.6183 H   0  0  0  0  0  0  0  0  0  0  0  0
   -0.9374   -1.6027   -0.4706 H   0  0  0  0  0  0  0  0  0  0  0  0
   -2.4730   -2.2463   -1.0825 H   0  0  0  0  0  0  0  0  0  0  0  0
   -3.4668    0.2728   -1.5797 H   0  0  0  0  0  0  0  0  0  0  0  0
   -4.4201    1.8006   -0.0070 H   0  0  0  0  0  0  0  0  0  0  0  0
   -2.9006    2.7038   -0.3180 H   0  0  0  0  0  0  0  0  0  0  0  0
   -2.2306    2.2927    1.8905 H   0  0  0  0  0  0  0  0  0  0  0  0
   -3.7598    1.3955    2.1693 H   0  0  0  0  0  0  0  0  0  0  0  0
   -2.2681   -0.4623    2.3702 H   0  0  0  0  0  0  0  0  0  0  0  0
   -0.0505   -0.5578    1.2266 H   0  0  0  0  0  0  0  0  0  0  0  0
   -0.2259    0.9907    2.0398 H   0  0  0  0  0  0  0  0  0  0  0  0
   -0.4406    2.2437    0.0952 H   0  0  0  0  0  0  0  0  0  0  0  0
   -1.0054    0.0273   -1.9193 H   0  0  0  0  0  0  0  0  0  0  0  0
   -1.4350    1.7324   -1.9440 H   0  0  0  0  0  0  0  0  0  0  0  0
    3.3933    1.3337   -2.2359 H   0  0  0  0  0  0  0  0  0  0  0  0
    4.2939    2.2672    0.3138 H   0  0  0  0  0  0  0  0  0  0  0  0
    3.9636   -0.9134   -2.6235 H   0  0  0  0  0  0  0  0  0  0  0  0
    4.3854   -3.2090   -1.8333 H   0  0  0  0  0  0  0  0  0  0  0  0
    4.3109   -3.7322    0.5877 H   0  0  0  0  0  0  0  0  0  0  0  0
    3.8104   -1.9436    2.2284 H   0  0  0  0  0  0  0  0  0  0  0  0
    3.3805    0.3594    1.4641 H   0  0  0  0  0  0  0  0  0  0  0  0
  1  2  1  0
  2  3  1  0
  2  4  1  0
  4  5  1  0
  5  6  1  0
  6  7  1  0
  7  2  1  0
  7  8  1  0
  8  9  1  0
  9 10  1  0
 10  4  1  0
  9 11  1  0
 11 12  1  0
 12 13  2  0
 12 14  1  0
 14 15  1  0
 14 16  1  0
 16 17  2  0
 17 18  1  0
 18 19  2  0
 19 20  1  0
 20 21  2  0
 21 16  1  0
  1 22  1  0
  1 23  1  0
  1 24  1  0
  3 25  1  0
  3 26  1  0
  3 27  1  0
  4 28  1  0
  5 29  1  0
  5 30  1  0
  6 31  1  0
  6 32  1  0
  7 33  1  0
  8 34  1  0
  8 35  1  0
  9 36  1  0
 10 37  1  0
 10 38  1  0
 14 39  1  0
 15 40  1  0
 17 41  1  0
 18 42  1  0
 19 43  1  0
 20 44  1  0
 21 45  1  0
M  CHG  1   2   1
M  END
> <ID>
HT1039

> <Class>
0.0

> <Clusters>
24

> <Fold>
3

$$$$