
     RDKit          3D

 41 43  0  0  0  0  0  0  0  0999 V2000
   -3.0635    0.4188   -1.9869 C   0  0  0  0  0  0  0  0  0  0  0  0
   -3.4762   -0.2311   -0.7313 N   0  0  0  0  0  0  0  0  0  0  0  0
   -2.6791   -1.3750   -0.2875 C   0  0  0  0  0  0  0  0  0  0  0  0
   -3.3082   -1.7245    1.0692 C   0  0  0  0  0  0  0  0  0  0  0  0
   -3.8767   -0.3879    1.5742 C   0  0  0  0  0  0  0  0  0  0  0  0
   -3.5244    0.6124    0.4634 C   0  0  0  0  0  0  0  0  0  0  0  0
   -2.1430    1.2680    0.7427 C   0  0  0  0  0  0  0  0  0  0  0  0
   -1.0047    0.2220    0.8521 C   0  0  0  0  0  0  0  0  0  0  0  0
   -1.1863   -0.9816   -0.1073 C   0  0  0  0  0  0  0  0  0  0  0  0
    0.2461    0.8561    0.5777 O   0  0  0  0  0  0  0  0  0  0  0  0
    1.3078    0.9351    1.4867 C   0  0  0  0  0  0  0  0  0  0  0  0
    1.2110    0.4364    2.6420 O   0  0  0  0  0  0  0  0  0  0  0  0
    2.5925    1.5689    1.0450 C   0  0  0  0  0  0  0  0  0  0  0  0
    3.3294    1.9987    2.1605 O   0  0  0  0  0  0  0  0  0  0  0  0
    3.3962    0.5791    0.2336 C   0  0  0  0  0  0  0  0  0  0  0  0
    3.6055    0.7910   -1.1405 C   0  0  0  0  0  0  0  0  0  0  0  0
    4.3415   -0.1300   -1.8925 C   0  0  0  0  0  0  0  0  0  0  0  0
    4.8741   -1.2681   -1.2814 C   0  0  0  0  0  0  0  0  0  0  0  0
    4.6717   -1.4879    0.0834 C   0  0  0  0  0  0  0  0  0  0  0  0
    3.9364   -0.5702    0.8397 C   0  0  0  0  0  0  0  0  0  0  0  0
   -3.7705    1.2406   -2.2265 H   0  0  0  0  0  0  0  0  0  0  0  0
   -2.0400    0.8390   -1.9471 H   0  0  0  0  0  0  0  0  0  0  0  0
   -3.1074   -0.3188   -2.8156 H   0  0  0  0  0  0  0  0  0  0  0  0
   -2.7755   -2.2234   -0.9999 H   0  0  0  0  0  0  0  0  0  0  0  0
   -4.1348   -2.4541    0.9227 H   0  0  0  0  0  0  0  0  0  0  0  0
   -2.5745   -2.1567    1.7844 H   0  0  0  0  0  0  0  0  0  0  0  0
   -4.9818   -0.4628    1.6750 H   0  0  0  0  0  0  0  0  0  0  0  0
   -3.4477   -0.1039    2.5601 H   0  0  0  0  0  0  0  0  0  0  0  0
   -4.3127    1.3905    0.3656 H   0  0  0  0  0  0  0  0  0  0  0  0
   -2.1959    1.8456    1.6913 H   0  0  0  0  0  0  0  0  0  0  0  0
   -1.9115    2.0101   -0.0497 H   0  0  0  0  0  0  0  0  0  0  0  0
   -1.0203   -0.1770    1.8905 H   0  0  0  0  0  0  0  0  0  0  0  0
   -0.7332   -0.7599   -1.0962 H   0  0  0  0  0  0  0  0  0  0  0  0
   -0.6229   -1.8521    0.2941 H   0  0  0  0  0  0  0  0  0  0  0  0
    2.3253    2.4555    0.4242 H   0  0  0  0  0  0  0  0  0  0  0  0
    4.0437    2.5970    1.8168 H   0  0  0  0  0  0  0  0  0  0  0  0
    3.1971    1.6656   -1.6314 H   0  0  0  0  0  0  0  0  0  0  0  0
    4.4982    0.0384   -2.9502 H   0  0  0  0  0  0  0  0  0  0  0  0
    5.4431   -1.9797   -1.8655 H   0  0  0  0  0  0  0  0  0  0  0  0
    5.0843   -2.3701    0.5556 H   0  0  0  0  0  0  0  0  0  0  0  0
    3.7867   -0.7542    1.8963 H   0  0  0  0  0  0  0  0  0  0  0  0
  1  2  1  0
  2  3  1  0
  3  4  1  0
  4  5  1  0
  5  6  1  0
  6  2  1  0
  6  7  1  0
  7  8  1  0
  8  9  1  0
  9  3  1  0
  8 10  1  0
 10 11  1  0
 11 12  2  0
 11 13  1  0
 13 14  1  0
 13 15  1  0
 15 16  2  0
 16 17  1  0
 17 18  2  0
 18 19  1  0
 19 20  2  0
 20 15  1  0
  1 21  1  0
  1 22  1  0
  1 23  1  0
  3 24  1  0
  4 25  1  0
  4 26  1  0
  5 27  1  0
  5 28  1  0
  6 29  1  0
  7 30  1  0
  7 31  1  0
  8 32  1  0
  9 33  1  0
  9 34  1  0
 13 35  1  0
 14 36  1  0
 16 37  1  0
 17 38  1  0
 18 39  1  0
 19 40  1  0
 20 41  1  0
M  END
> <ID>
HT1038

> <Class>
0.0

> <Clusters>
24

> <Fold>
3

$$$$