
     RDKit          3D

 22 24  0  0  0  0  0  0  0  0999 V2000
    5.0201    1.9611    0.2054 Cl  0  0  0  0  0  0  0  0  0  0  0  0
    3.5804    0.9518    0.1807 C   0  0  0  0  0  0  0  0  0  0  0  0
    2.3291    1.5606    0.0194 C   0  0  0  0  0  0  0  0  0  0  0  0
    1.1687    0.7825   -0.0039 C   0  0  0  0  0  0  0  0  0  0  0  0
   -0.0860    1.3830   -0.1647 O   0  0  0  0  0  0  0  0  0  0  0  0
   -1.2555    0.6133   -0.1895 C   0  0  0  0  0  0  0  0  0  0  0  0
   -2.5022    1.2234   -0.3505 C   0  0  0  0  0  0  0  0  0  0  0  0
   -3.6674    0.4461   -0.3743 C   0  0  0  0  0  0  0  0  0  0  0  0
   -5.2196    1.2465   -0.5786 Cl  0  0  0  0  0  0  0  0  0  0  0  0
   -3.5804   -0.9518   -0.2356 C   0  0  0  0  0  0  0  0  0  0  0  0
   -5.0201   -1.9611   -0.2604 Cl  0  0  0  0  0  0  0  0  0  0  0  0
   -2.3291   -1.5606   -0.0743 C   0  0  0  0  0  0  0  0  0  0  0  0
   -1.1687   -0.7825   -0.0510 C   0  0  0  0  0  0  0  0  0  0  0  0
    0.0860   -1.3830    0.1097 O   0  0  0  0  0  0  0  0  0  0  0  0
    1.2555   -0.6133    0.1346 C   0  0  0  0  0  0  0  0  0  0  0  0
    2.5022   -1.2234    0.2956 C   0  0  0  0  0  0  0  0  0  0  0  0
    3.6674   -0.4461    0.3194 C   0  0  0  0  0  0  0  0  0  0  0  0
    5.2196   -1.2466    0.5237 Cl  0  0  0  0  0  0  0  0  0  0  0  0
    2.2573    2.6356   -0.0877 H   0  0  0  0  0  0  0  0  0  0  0  0
   -2.5641    2.2992   -0.4568 H   0  0  0  0  0  0  0  0  0  0  0  0
   -2.2573   -2.6356    0.0328 H   0  0  0  0  0  0  0  0  0  0  0  0
    2.5641   -2.2992    0.4019 H   0  0  0  0  0  0  0  0  0  0  0  0
  1  2  1  0
  2  3  2  0
  3  4  1  0
  4  5  1  0
  5  6  1  0
  6  7  2  0
  7  8  1  0
  8  9  1  0
  8 10  2  0
 10 11  1  0
 10 12  1  0
 12 13  2  0
 13  6  1  0
 13 14  1  0
 14 15  1  0
 15  4  2  0
 15 16  1  0
 16 17  2  0
 17  2  1  0
 17 18  1  0
  3 19  1  0
  7 20  1  0
 12 21  1  0
 16 22  1  0
M  END
> <ID>
HT0028

> <Class>
0.0

> <Clusters>
126

> <Fold>
3

$$$$