
     RDKit          3D

 54 56  0  0  0  0  0  0  0  0999 V2000
    3.8619    1.8983    2.5999 C   0  0  0  0  0  0  0  0  0  0  0  0
    3.9007    0.6696    1.6545 C   0  0  0  0  0  0  0  0  0  0  0  0
    5.1566    0.7858    0.7540 C   0  0  0  0  0  0  0  0  0  0  0  0
    2.5957    0.4229    0.8959 N   0  0  0  0  0  0  0  0  0  0  0  0
    2.1459    1.7118    0.2765 C   0  0  0  0  0  0  0  0  0  0  0  0
    2.7214   -0.6994   -0.0868 C   0  0  0  0  0  0  0  0  0  0  0  0
    2.8345   -1.9774    0.7701 C   0  0  0  0  0  0  0  0  0  0  0  0
    2.0202   -1.6497    2.0240 C   0  0  0  0  0  0  0  0  0  0  0  0
    1.5741   -0.1833    1.8065 C   0  0  0  0  0  0  0  0  0  0  0  0
    0.1574   -0.1995    1.1582 C   0  0  0  0  0  0  0  0  0  0  0  0
    0.1364   -0.9439   -0.2037 C   0  0  0  0  0  0  0  0  0  0  0  0
    1.4640   -0.8380   -1.0025 C   0  0  0  0  0  0  0  0  0  0  0  0
   -0.9355   -0.4312   -0.9954 O   0  0  0  0  0  0  0  0  0  0  0  0
   -1.9072   -1.2269   -1.6139 C   0  0  0  0  0  0  0  0  0  0  0  0
   -1.7794   -2.4797   -1.6573 O   0  0  0  0  0  0  0  0  0  0  0  0
   -3.1325   -0.5851   -2.2053 C   0  0  0  0  0  0  0  0  0  0  0  0
   -2.7776    0.7145   -2.9477 C   0  0  0  0  0  0  0  0  0  0  0  0
   -3.9243    1.2444   -3.5542 O   0  0  0  0  0  0  0  0  0  0  0  0
   -4.1687   -0.3459   -1.1222 C   0  0  0  0  0  0  0  0  0  0  0  0
   -3.8944    0.4998   -0.0278 C   0  0  0  0  0  0  0  0  0  0  0  0
   -4.8578    0.7121    0.9619 C   0  0  0  0  0  0  0  0  0  0  0  0
   -6.1030    0.0852    0.8731 C   0  0  0  0  0  0  0  0  0  0  0  0
   -6.3868   -0.7566   -0.2057 C   0  0  0  0  0  0  0  0  0  0  0  0
   -5.4264   -0.9732   -1.1988 C   0  0  0  0  0  0  0  0  0  0  0  0
    4.7360    1.8725    3.2854 H   0  0  0  0  0  0  0  0  0  0  0  0
    3.9190    2.8488    2.0264 H   0  0  0  0  0  0  0  0  0  0  0  0
    2.9545    1.9136    3.2337 H   0  0  0  0  0  0  0  0  0  0  0  0
    4.1258   -0.1816    2.3291 H   0  0  0  0  0  0  0  0  0  0  0  0
    6.0275    1.1361    1.3489 H   0  0  0  0  0  0  0  0  0  0  0  0
    5.4510   -0.2048    0.3509 H   0  0  0  0  0  0  0  0  0  0  0  0
    5.0133    1.4969   -0.0817 H   0  0  0  0  0  0  0  0  0  0  0  0
    1.2645    1.6284   -0.3806 H   0  0  0  0  0  0  0  0  0  0  0  0
    1.8385    2.4403    1.0555 H   0  0  0  0  0  0  0  0  0  0  0  0
    2.9409    2.1654   -0.3465 H   0  0  0  0  0  0  0  0  0  0  0  0
    3.5944   -0.5879   -0.7613 H   0  0  0  0  0  0  0  0  0  0  0  0
    2.4452   -2.8840    0.2561 H   0  0  0  0  0  0  0  0  0  0  0  0
    3.8961   -2.1659    1.0387 H   0  0  0  0  0  0  0  0  0  0  0  0
    1.1651   -2.3517    2.1431 H   0  0  0  0  0  0  0  0  0  0  0  0
    2.6476   -1.7423    2.9367 H   0  0  0  0  0  0  0  0  0  0  0  0
    1.5030    0.3433    2.7806 H   0  0  0  0  0  0  0  0  0  0  0  0
   -0.5578   -0.6986    1.8501 H   0  0  0  0  0  0  0  0  0  0  0  0
   -0.2302    0.8360    1.0519 H   0  0  0  0  0  0  0  0  0  0  0  0
   -0.0313   -2.0225    0.0174 H   0  0  0  0  0  0  0  0  0  0  0  0
    1.4264   -0.0090   -1.7405 H   0  0  0  0  0  0  0  0  0  0  0  0
    1.5694   -1.7505   -1.6316 H   0  0  0  0  0  0  0  0  0  0  0  0
   -3.5424   -1.2867   -2.9682 H   0  0  0  0  0  0  0  0  0  0  0  0
   -2.3469    1.4645   -2.2463 H   0  0  0  0  0  0  0  0  0  0  0  0
   -2.0167    0.4909   -3.7306 H   0  0  0  0  0  0  0  0  0  0  0  0
   -3.6274    2.0522   -4.0477 H   0  0  0  0  0  0  0  0  0  0  0  0
   -2.9359    0.9952    0.0613 H   0  0  0  0  0  0  0  0  0  0  0  0
   -4.6388    1.3643    1.7981 H   0  0  0  0  0  0  0  0  0  0  0  0
   -6.8479    0.2525    1.6401 H   0  0  0  0  0  0  0  0  0  0  0  0
   -7.3527   -1.2415   -0.2730 H   0  0  0  0  0  0  0  0  0  0  0  0
   -5.6656   -1.6283   -2.0274 H   0  0  0  0  0  0  0  0  0  0  0  0
  1  2  1  0
  2  3  1  0
  2  4  1  0
  4  5  1  0
  4  6  1  0
  6  7  1  0
  7  8  1  0
  8  9  1  0
  9  4  1  0
  9 10  1  0
 10 11  1  0
 11 12  1  0
 12  6  1  0
 11 13  1  0
 13 14  1  0
 14 15  2  0
 14 16  1  0
 16 17  1  0
 17 18  1  0
 16 19  1  0
 19 20  2  0
 20 21  1  0
 21 22  2  0
 22 23  1  0
 23 24  2  0
 24 19  1  0
  1 25  1  0
  1 26  1  0
  1 27  1  0
  2 28  1  0
  3 29  1  0
  3 30  1  0
  3 31  1  0
  5 32  1  0
  5 33  1  0
  5 34  1  0
  6 35  1  0
  7 36  1  0
  7 37  1  0
  8 38  1  0
  8 39  1  0
  9 40  1  0
 10 41  1  0
 10 42  1  0
 11 43  1  0
 12 44  1  0
 12 45  1  0
 16 46  1  0
 17 47  1  0
 17 48  1  0
 18 49  1  0
 20 50  1  0
 21 51  1  0
 22 52  1  0
 23 53  1  0
 24 54  1  0
M  CHG  1   4   1
M  END
> <ID>
HT1120

> <Class>
0.0

> <Clusters>
24

> <Fold>
3

$$$$