
     RDKit          3D

 71 77  0  0  0  0  0  0  0  0999 V2000
   -1.8204    0.7703   -2.7265 O   0  0  0  0  0  0  0  0  0  0  0  0
   -2.8175    0.4520   -2.0250 C   0  0  0  0  0  0  0  0  0  0  0  0
   -3.5039   -0.8774   -2.1043 C   0  0  0  0  0  0  0  0  0  0  0  0
   -2.6616   -2.0380   -1.5219 C   0  0  2  0  0  0  0  0  0  0  0  0
   -3.4381   -3.3461   -1.7605 C   0  0  0  0  0  0  0  0  0  0  0  0
   -4.6079   -3.2361   -0.7627 C   0  0  0  0  0  0  0  0  0  0  0  0
   -4.3447   -1.8842   -0.0730 C   0  0  1  0  0  0  0  0  0  0  0  0
   -2.8318   -1.8691   -0.0253 C   0  0  0  0  0  0  0  0  0  0  0  0
   -4.6654   -0.7603   -1.0860 C   0  0  0  0  0  0  0  0  0  0  0  0
   -4.5018    0.6151   -0.5116 C   0  0  0  0  0  0  0  0  0  0  0  0
   -5.2431    1.0940    0.3874 O   0  0  0  0  0  0  0  0  0  0  0  0
   -3.4124    1.3266   -1.0788 N   0  0  0  0  0  0  0  0  0  0  0  0
   -2.8672    2.5968   -0.5961 C   0  0  0  0  0  0  0  0  0  0  0  0
   -2.0588    2.4010    0.7128 C   0  0  2  0  0  0  0  0  0  0  0  0
   -1.8693    3.7450    1.4555 C   0  0  0  0  0  0  0  0  0  0  0  0
   -0.8413    4.6519    0.7700 C   0  0  0  0  0  0  0  0  0  0  0  0
    0.5063    3.9426    0.6230 C   0  0  0  0  0  0  0  0  0  0  0  0
    0.3562    2.6312   -0.1555 C   0  0  0  0  0  0  0  0  0  0  0  0
   -0.6944    1.6815    0.4731 C   0  0  1  0  0  0  0  0  0  0  0  0
   -0.1758    1.0093    1.7692 C   0  0  0  0  0  0  0  0  0  0  0  0
    1.0762    0.2634    1.5151 N   0  0  0  0  0  0  0  0  0  0  0  0
    0.8141   -1.1157    1.0515 C   0  0  0  0  0  0  0  0  0  0  0  0
    2.1160   -1.7406    0.5229 C   0  0  0  0  0  0  0  0  0  0  0  0
    3.2796   -1.1289    1.1798 N   0  0  0  0  0  0  0  0  0  0  0  0
    3.1194   -0.7313    2.5804 C   0  0  0  0  0  0  0  0  0  0  0  0
    1.9422    0.2563    2.7179 C   0  0  0  0  0  0  0  0  0  0  0  0
    4.3195   -0.5295    0.3867 C   0  0  0  0  0  0  0  0  0  0  0  0
    4.6781    0.7744    0.5647 N   0  0  0  0  0  0  0  0  0  0  0  0
    5.8696    1.0794   -0.5604 S   0  0  0  0  0  0  0  0  0  0  0  0
    5.9529   -0.4169   -1.2771 C   0  0  0  0  0  0  0  0  0  0  0  0
    6.7712   -0.8776   -2.3030 C   0  0  0  0  0  0  0  0  0  0  0  0
    6.6426   -2.2209   -2.6873 C   0  0  0  0  0  0  0  0  0  0  0  0
    5.7171   -3.0615   -2.0367 C   0  0  0  0  0  0  0  0  0  0  0  0
    4.9060   -2.5655   -0.9998 C   0  0  0  0  0  0  0  0  0  0  0  0
    5.0256   -1.2185   -0.6321 C   0  0  0  0  0  0  0  0  0  0  0  0
   -3.8624   -1.0722   -3.1391 H   0  0  0  0  0  0  0  0  0  0  0  0
   -1.6069   -2.0674   -1.8710 H   0  0  0  0  0  0  0  0  0  0  0  0
   -2.7989   -4.2234   -1.5169 H   0  0  0  0  0  0  0  0  0  0  0  0
   -3.7969   -3.4366   -2.8092 H   0  0  0  0  0  0  0  0  0  0  0  0
   -5.5931   -3.2583   -1.2780 H   0  0  0  0  0  0  0  0  0  0  0  0
   -4.5655   -4.0627   -0.0195 H   0  0  0  0  0  0  0  0  0  0  0  0
   -4.8438   -1.7751    0.9139 H   0  0  0  0  0  0  0  0  0  0  0  0
   -2.4039   -2.7153    0.5614 H   0  0  0  0  0  0  0  0  0  0  0  0
   -2.4182   -0.9148    0.3655 H   0  0  0  0  0  0  0  0  0  0  0  0
   -5.6643   -0.8720   -1.5621 H   0  0  0  0  0  0  0  0  0  0  0  0
   -2.2444    3.0635   -1.3867 H   0  0  0  0  0  0  0  0  0  0  0  0
   -3.7178    3.2882   -0.4126 H   0  0  0  0  0  0  0  0  0  0  0  0
   -2.6823    1.7609    1.3762 H   0  0  0  0  0  0  0  0  0  0  0  0
   -1.5418    3.5514    2.4995 H   0  0  0  0  0  0  0  0  0  0  0  0
   -2.8393    4.2829    1.5285 H   0  0  0  0  0  0  0  0  0  0  0  0
   -1.2145    4.9640   -0.2293 H   0  0  0  0  0  0  0  0  0  0  0  0
   -0.7033    5.5708    1.3796 H   0  0  0  0  0  0  0  0  0  0  0  0
    0.9430    3.7458    1.6256 H   0  0  0  0  0  0  0  0  0  0  0  0
    1.2093    4.6091    0.0784 H   0  0  0  0  0  0  0  0  0  0  0  0
    1.3461    2.1309   -0.2196 H   0  0  0  0  0  0  0  0  0  0  0  0
    0.0625    2.8661   -1.2009 H   0  0  0  0  0  0  0  0  0  0  0  0
   -0.8591    0.8664   -0.2552 H   0  0  0  0  0  0  0  0  0  0  0  0
   -0.9558    0.3306    2.1839 H   0  0  0  0  0  0  0  0  0  0  0  0
   -0.0123    1.7978    2.5355 H   0  0  0  0  0  0  0  0  0  0  0  0
    0.4109   -1.7336    1.8864 H   0  0  0  0  0  0  0  0  0  0  0  0
    0.0659   -1.1290    0.2321 H   0  0  0  0  0  0  0  0  0  0  0  0
    2.1673   -1.5868   -0.5781 H   0  0  0  0  0  0  0  0  0  0  0  0
    2.1097   -2.8337    0.7207 H   0  0  0  0  0  0  0  0  0  0  0  0
    2.9063   -1.6405    3.1844 H   0  0  0  0  0  0  0  0  0  0  0  0
    4.0557   -0.2847    2.9822 H   0  0  0  0  0  0  0  0  0  0  0  0
    2.3559    1.2785    2.8623 H   0  0  0  0  0  0  0  0  0  0  0  0
    1.3533   -0.0064    3.6266 H   0  0  0  0  0  0  0  0  0  0  0  0
    7.4869   -0.2243   -2.7850 H   0  0  0  0  0  0  0  0  0  0  0  0
    7.2633   -2.6154   -3.4813 H   0  0  0  0  0  0  0  0  0  0  0  0
    5.6343   -4.0991   -2.3331 H   0  0  0  0  0  0  0  0  0  0  0  0
    4.2173   -3.2283   -0.4952 H   0  0  0  0  0  0  0  0  0  0  0  0
  1  2  2  0
  2  3  1  0
  3  4  1  0
  4  5  1  0
  5  6  1  0
  6  7  1  0
  7  8  1  0
  4  8  1  0
  7  9  1  0
  9  3  1  0
  9 10  1  0
 10 11  2  0
 10 12  1  0
 12  2  1  0
 12 13  1  0
 14 13  1  0
 14 15  1  0
 15 16  1  0
 16 17  1  0
 17 18  1  0
 18 19  1  0
 19 14  1  0
 19 20  1  0
 20 21  1  0
 21 22  1  0
 22 23  1  0
 23 24  1  0
 24 25  1  0
 25 26  1  0
 26 21  1  0
 24 27  1  0
 27 28  2  0
 28 29  1  0
 29 30  1  0
 30 31  2  0
 31 32  1  0
 32 33  2  0
 33 34  1  0
 34 35  2  0
 35 27  1  0
 35 30  1  0
  3 36  1  0
  4 37  1  1
  5 38  1  0
  5 39  1  0
  6 40  1  0
  6 41  1  0
  7 42  1  1
  8 43  1  0
  8 44  1  0
  9 45  1  0
 13 46  1  0
 13 47  1  0
 14 48  1  1
 15 49  1  0
 15 50  1  0
 16 51  1  0
 16 52  1  0
 17 53  1  0
 17 54  1  0
 18 55  1  0
 18 56  1  0
 19 57  1  6
 20 58  1  0
 20 59  1  0
 22 60  1  0
 22 61  1  0
 23 62  1  0
 23 63  1  0
 25 64  1  0
 25 65  1  0
 26 66  1  0
 26 67  1  0
 31 68  1  0
 32 69  1  0
 33 70  1  0
 34 71  1  0
M  END
> <ID>
HT1258

> <Class>
0.0

> <Clusters>
67

> <Fold>
3

$$$$