
     RDKit          3D

 39 40  0  0  0  0  0  0  0  0999 V2000
    2.7262    3.3145   -0.6776 C   0  0  0  0  0  0  0  0  0  0  0  0
    3.1077    1.8608   -0.9348 C   0  0  0  0  0  0  0  0  0  0  0  0
    1.9540    1.0233   -0.9055 O   0  0  0  0  0  0  0  0  0  0  0  0
    1.2611    0.6998    0.2694 C   0  0  0  0  0  0  0  0  0  0  0  0
    1.7447    1.0250    1.3897 O   0  0  0  0  0  0  0  0  0  0  0  0
   -0.0057   -0.1467    0.1973 C   0  0  0  0  0  0  0  0  0  0  0  0
   -0.7322    0.1009   -1.1813 C   0  0  0  0  0  0  0  0  0  0  0  0
   -2.2554    0.2264   -1.0449 C   0  0  0  0  0  0  0  0  0  0  0  0
   -2.6240    1.3792   -0.1901 N   0  0  0  0  0  0  0  0  0  0  0  0
   -4.0376    1.2834    0.2055 C   0  0  0  0  0  0  0  0  0  0  0  0
   -1.7414    1.5608    0.9925 C   0  0  0  0  0  0  0  0  0  0  0  0
   -0.9756    0.2796    1.3539 C   0  0  0  0  0  0  0  0  0  0  0  0
    0.4495   -1.6179    0.3161 C   0  0  0  0  0  0  0  0  0  0  0  0
    1.2641   -2.1763   -0.6978 C   0  0  0  0  0  0  0  0  0  0  0  0
    1.7180   -3.4950   -0.6167 C   0  0  0  0  0  0  0  0  0  0  0  0
    1.3917   -4.2810    0.4865 C   0  0  0  0  0  0  0  0  0  0  0  0
    0.6244   -3.7443    1.5188 C   0  0  0  0  0  0  0  0  0  0  0  0
    0.1664   -2.4252    1.4460 C   0  0  0  0  0  0  0  0  0  0  0  0
    2.3086    3.4322    0.3439 H   0  0  0  0  0  0  0  0  0  0  0  0
    3.6259    3.9584   -0.7705 H   0  0  0  0  0  0  0  0  0  0  0  0
    1.9691    3.6439   -1.4203 H   0  0  0  0  0  0  0  0  0  0  0  0
    3.8540    1.5166   -0.1864 H   0  0  0  0  0  0  0  0  0  0  0  0
    3.5699    1.7883   -1.9417 H   0  0  0  0  0  0  0  0  0  0  0  0
   -0.5247   -0.7007   -1.9197 H   0  0  0  0  0  0  0  0  0  0  0  0
   -0.3866    1.0487   -1.6499 H   0  0  0  0  0  0  0  0  0  0  0  0
   -2.6910    0.3748   -2.0571 H   0  0  0  0  0  0  0  0  0  0  0  0
   -2.6633   -0.7288   -0.6412 H   0  0  0  0  0  0  0  0  0  0  0  0
   -4.6822    1.1580   -0.6916 H   0  0  0  0  0  0  0  0  0  0  0  0
   -4.2010    0.4254    0.8948 H   0  0  0  0  0  0  0  0  0  0  0  0
   -4.3551    2.2215    0.7094 H   0  0  0  0  0  0  0  0  0  0  0  0
   -2.3098    1.9038    1.8869 H   0  0  0  0  0  0  0  0  0  0  0  0
   -1.0117    2.3677    0.7662 H   0  0  0  0  0  0  0  0  0  0  0  0
   -1.7448   -0.5027    1.5312 H   0  0  0  0  0  0  0  0  0  0  0  0
   -0.4390    0.4213    2.3169 H   0  0  0  0  0  0  0  0  0  0  0  0
    1.5610   -1.5869   -1.5556 H   0  0  0  0  0  0  0  0  0  0  0  0
    2.3316   -3.9049   -1.4085 H   0  0  0  0  0  0  0  0  0  0  0  0
    1.7470   -5.3014    0.5491 H   0  0  0  0  0  0  0  0  0  0  0  0
    0.3923   -4.3490    2.3862 H   0  0  0  0  0  0  0  0  0  0  0  0
   -0.3861   -2.0534    2.2951 H   0  0  0  0  0  0  0  0  0  0  0  0
  1  2  1  0
  2  3  1  0
  3  4  1  0
  4  5  2  0
  4  6  1  0
  6  7  1  0
  7  8  1  0
  8  9  1  0
  9 10  1  0
  9 11  1  0
 11 12  1  0
 12  6  1  0
  6 13  1  0
 13 14  2  0
 14 15  1  0
 15 16  2  0
 16 17  1  0
 17 18  2  0
 18 13  1  0
  1 19  1  0
  1 20  1  0
  1 21  1  0
  2 22  1  0
  2 23  1  0
  7 24  1  0
  7 25  1  0
  8 26  1  0
  8 27  1  0
 10 28  1  0
 10 29  1  0
 10 30  1  0
 11 31  1  0
 11 32  1  0
 12 33  1  0
 12 34  1  0
 14 35  1  0
 15 36  1  0
 16 37  1  0
 17 38  1  0
 18 39  1  0
M  END
> <ID>
HT1305

> <Class>
0.0

> <Clusters>
156

> <Fold>
3

$$$$