
     RDKit          3D

 33 34  0  0  0  0  0  0  0  0999 V2000
    2.5219   -0.5432   -1.2882 C   0  0  0  0  0  0  0  0  0  0  0  0
    1.1735   -1.0477   -0.9881 N   0  0  0  0  0  0  0  0  0  0  0  0
    0.5501   -0.4886    0.2430 C   0  0  2  0  0  0  0  0  0  0  0  0
    1.5670   -0.5588    1.4286 C   0  0  0  0  0  0  0  0  0  0  0  0
   -0.7027   -1.3465    0.6370 C   0  0  2  0  0  0  0  0  0  0  0  0
   -1.6272   -1.5743   -0.5821 C   0  0  0  0  0  0  0  0  0  0  0  0
   -2.3085   -0.2118   -0.7566 C   0  0  0  0  0  0  0  0  0  0  0  0
   -1.6384    0.6454    0.3376 C   0  0  1  0  0  0  0  0  0  0  0  0
   -1.5434   -0.3789    1.4447 C   0  0  0  0  0  0  0  0  0  0  0  0
   -0.1314    0.9394    0.0031 C   0  0  0  0  0  0  0  0  0  0  0  0
    0.0175    1.4990   -1.4420 C   0  0  0  0  0  0  0  0  0  0  0  0
    0.3855    2.0528    0.9544 C   0  0  0  0  0  0  0  0  0  0  0  0
    3.2893   -1.1134   -0.7201 H   0  0  0  0  0  0  0  0  0  0  0  0
    2.7237   -0.6763   -2.3711 H   0  0  0  0  0  0  0  0  0  0  0  0
    2.6285    0.5326   -1.0469 H   0  0  0  0  0  0  0  0  0  0  0  0
    1.2518   -2.0883   -0.8923 H   0  0  0  0  0  0  0  0  0  0  0  0
    1.1064   -0.3410    2.4112 H   0  0  0  0  0  0  0  0  0  0  0  0
    1.9959   -1.5816    1.4947 H   0  0  0  0  0  0  0  0  0  0  0  0
    2.4064    0.1526    1.2922 H   0  0  0  0  0  0  0  0  0  0  0  0
   -0.4627   -2.2899    1.1750 H   0  0  0  0  0  0  0  0  0  0  0  0
   -1.0908   -1.8844   -1.5024 H   0  0  0  0  0  0  0  0  0  0  0  0
   -2.3844   -2.3537   -0.3431 H   0  0  0  0  0  0  0  0  0  0  0  0
   -3.3979   -0.3019   -0.5458 H   0  0  0  0  0  0  0  0  0  0  0  0
   -2.2081    0.1904   -1.7835 H   0  0  0  0  0  0  0  0  0  0  0  0
   -2.2367    1.5433    0.6068 H   0  0  0  0  0  0  0  0  0  0  0  0
   -2.5333   -0.8039    1.7364 H   0  0  0  0  0  0  0  0  0  0  0  0
   -1.0603    0.0001    2.3668 H   0  0  0  0  0  0  0  0  0  0  0  0
   -0.7470    2.2845   -1.6262 H   0  0  0  0  0  0  0  0  0  0  0  0
    1.0077    1.9745   -1.5961 H   0  0  0  0  0  0  0  0  0  0  0  0
   -0.0988    0.7173   -2.2196 H   0  0  0  0  0  0  0  0  0  0  0  0
   -0.1678    2.9998    0.7735 H   0  0  0  0  0  0  0  0  0  0  0  0
    1.4631    2.2529    0.7745 H   0  0  0  0  0  0  0  0  0  0  0  0
    0.2508    1.7997    2.0244 H   0  0  0  0  0  0  0  0  0  0  0  0
  1  2  1  0
  3  2  1  6
  3  4  1  0
  3  5  1  0
  5  6  1  0
  6  7  1  0
  7  8  1  0
  8  9  1  0
  9  5  1  0
  8 10  1  0
 10  3  1  0
 10 11  1  0
 10 12  1  0
  1 13  1  0
  1 14  1  0
  1 15  1  0
  2 16  1  0
  4 17  1  0
  4 18  1  0
  4 19  1  0
  5 20  1  1
  6 21  1  0
  6 22  1  0
  7 23  1  0
  7 24  1  0
  8 25  1  1
  9 26  1  0
  9 27  1  0
 11 28  1  0
 11 29  1  0
 11 30  1  0
 12 31  1  0
 12 32  1  0
 12 33  1  0
M  END
> <ID>
HT1280

> <Class>
0.0

> <Clusters>
89

> <Fold>
3

$$$$