
     RDKit          3D

 26 25  0  0  0  0  0  0  0  0999 V2000
    3.1239    1.1983    0.0817 O   0  0  0  0  0  0  0  0  0  0  0  0
    2.9422   -0.1342    0.4832 C   0  0  0  0  0  0  0  0  0  0  0  0
    1.4495   -0.4500    0.7205 C   0  0  1  0  0  0  0  0  0  0  0  0
    0.9767    0.3028    1.8088 O   0  0  0  0  0  0  0  0  0  0  0  0
    0.5697   -0.2410   -0.5523 C   0  0  1  0  0  0  0  0  0  0  0  0
    1.2343   -0.7561   -1.6818 O   0  0  0  0  0  0  0  0  0  0  0  0
   -0.8432   -0.8953   -0.4493 C   0  0  2  0  0  0  0  0  0  0  0  0
   -1.4442   -0.9083   -1.7227 O   0  0  0  0  0  0  0  0  0  0  0  0
   -1.8215   -0.2269    0.5591 C   0  0  2  0  0  0  0  0  0  0  0  0
   -2.9656   -1.0331    0.7044 O   0  0  0  0  0  0  0  0  0  0  0  0
   -2.2426    1.2099    0.1786 C   0  0  0  0  0  0  0  0  0  0  0  0
   -1.2414    2.1261    0.5221 O   0  0  0  0  0  0  0  0  0  0  0  0
    3.0283    1.2174   -0.9059 H   0  0  0  0  0  0  0  0  0  0  0  0
    3.4956   -0.2917    1.4334 H   0  0  0  0  0  0  0  0  0  0  0  0
    3.3815   -0.8370   -0.2615 H   0  0  0  0  0  0  0  0  0  0  0  0
    1.3936   -1.5227    1.0072 H   0  0  0  0  0  0  0  0  0  0  0  0
    1.0418    1.2623    1.5644 H   0  0  0  0  0  0  0  0  0  0  0  0
    0.4513    0.8464   -0.7306 H   0  0  0  0  0  0  0  0  0  0  0  0
    1.3545   -1.7319   -1.5386 H   0  0  0  0  0  0  0  0  0  0  0  0
   -0.7018   -1.9470   -0.1002 H   0  0  0  0  0  0  0  0  0  0  0  0
   -1.1644   -1.7463   -2.1762 H   0  0  0  0  0  0  0  0  0  0  0  0
   -1.3500   -0.1933    1.5600 H   0  0  0  0  0  0  0  0  0  0  0  0
   -3.4622   -1.0150   -0.1555 H   0  0  0  0  0  0  0  0  0  0  0  0
   -3.1693    1.4724    0.7371 H   0  0  0  0  0  0  0  0  0  0  0  0
   -2.4682    1.2781   -0.9088 H   0  0  0  0  0  0  0  0  0  0  0  0
   -1.5686    3.0162    0.2297 H   0  0  0  0  0  0  0  0  0  0  0  0
  1  2  1  0
  2  3  1  0
  3  4  1  0
  3  5  1  0
  5  6  1  0
  5  7  1  0
  7  8  1  0
  7  9  1  0
  9 10  1  0
  9 11  1  0
 11 12  1  0
  1 13  1  0
  2 14  1  0
  2 15  1  0
  3 16  1  1
  4 17  1  0
  5 18  1  6
  6 19  1  0
  7 20  1  1
  8 21  1  0
  9 22  1  1
 10 23  1  0
 11 24  1  0
 11 25  1  0
 12 26  1  0
M  END
> <ID>
HT1269

> <Class>
0.0

> <Clusters>
174

> <Fold>
3

$$$$