
     RDKit          3D

 27 27  0  0  0  0  0  0  0  0999 V2000
   -6.0416    0.9601    0.9559 O   0  0  0  0  0  0  0  0  0  0  0  0
   -4.7523    0.8821    1.4740 C   0  0  0  0  0  0  0  0  0  0  0  0
   -4.5565    1.1029    2.6990 O   0  0  0  0  0  0  0  0  0  0  0  0
   -3.6287    0.5388    0.5902 C   0  0  0  0  0  0  0  0  0  0  0  0
   -3.8551    0.3179   -0.6303 O   0  0  0  0  0  0  0  0  0  0  0  0
   -2.2856    0.4864    1.1000 N   0  0  0  0  0  0  0  0  0  0  0  0
   -1.1734   -0.0267    0.3447 C   0  0  0  0  0  0  0  0  0  0  0  0
   -1.3165   -1.2008   -0.4132 C   0  0  0  0  0  0  0  0  0  0  0  0
   -0.2350   -1.7196   -1.1295 C   0  0  0  0  0  0  0  0  0  0  0  0
    1.0051   -1.0777   -1.0835 C   0  0  0  0  0  0  0  0  0  0  0  0
    1.1808    0.0810   -0.3091 C   0  0  0  0  0  0  0  0  0  0  0  0
    2.4545    0.7503   -0.2877 N   0  0  0  0  0  0  0  0  0  0  0  0
    3.7099    0.0551   -0.2000 C   0  0  0  0  0  0  0  0  0  0  0  0
    3.7376   -1.1769    0.0661 O   0  0  0  0  0  0  0  0  0  0  0  0
    4.9786    0.7742   -0.3860 C   0  0  0  0  0  0  0  0  0  0  0  0
    4.9812    2.0046   -0.6579 O   0  0  0  0  0  0  0  0  0  0  0  0
    6.1853    0.0915   -0.2651 O   0  0  0  0  0  0  0  0  0  0  0  0
    0.0836    0.6120    0.4019 C   0  0  0  0  0  0  0  0  0  0  0  0
    0.2839    2.0779    1.3649 Cl  0  0  0  0  0  0  0  0  0  0  0  0
   -0.3983   -2.9152   -1.9149 C   0  0  0  0  0  0  0  0  0  0  0  0
   -0.5296   -3.8762   -2.5461 N   0  0  0  0  0  0  0  0  0  0  0  0
   -6.8276    1.1940    1.5508 H   0  0  0  0  0  0  0  0  0  0  0  0
   -2.0985    0.8915    2.0445 H   0  0  0  0  0  0  0  0  0  0  0  0
   -2.2662   -1.7220   -0.4313 H   0  0  0  0  0  0  0  0  0  0  0  0
    1.8299   -1.4707   -1.6658 H   0  0  0  0  0  0  0  0  0  0  0  0
    2.4655    1.7947   -0.2801 H   0  0  0  0  0  0  0  0  0  0  0  0
    7.0687    0.5710   -0.3914 H   0  0  0  0  0  0  0  0  0  0  0  0
  1  2  1  0
  2  3  2  0
  2  4  1  0
  4  5  2  0
  4  6  1  0
  6  7  1  0
  7  8  2  0
  8  9  1  0
  9 10  2  0
 10 11  1  0
 11 12  1  0
 12 13  1  0
 13 14  2  0
 13 15  1  0
 15 16  2  0
 15 17  1  0
 11 18  2  0
 18  7  1  0
 18 19  1  0
  9 20  1  0
 20 21  3  0
  1 22  1  0
  6 23  1  0
  8 24  1  0
 10 25  1  0
 12 26  1  0
 17 27  1  0
M  END
> <ID>
HT1226

> <Class>
0.0

> <Clusters>
264

> <Fold>
3

$$$$