
     RDKit          3D

 48 50  0  0  0  0  0  0  0  0999 V2000
    5.4103   -0.6194    1.1158 C   0  0  0  0  0  0  0  0  0  0  0  0
    4.0553   -0.3906    0.5926 N   0  0  0  0  0  0  0  0  0  0  0  0
    3.4613   -1.6677    0.1343 C   0  0  0  0  0  0  0  0  0  0  0  0
    1.9464   -1.5499   -0.1463 C   0  0  0  0  0  0  0  0  0  0  0  0
    1.5038   -0.0879   -0.2627 C   0  0  0  0  0  0  0  0  0  0  0  0
    1.8613    0.6878    1.0181 C   0  0  0  0  0  0  0  0  0  0  0  0
    3.2091    0.2449    1.6198 C   0  0  0  0  0  0  0  0  0  0  0  0
    0.0917   -0.0405   -0.4610 O   0  0  0  0  0  0  0  0  0  0  0  0
   -0.5335    0.5134   -1.5844 C   0  0  0  0  0  0  0  0  0  0  0  0
    0.1445    1.0124   -2.5226 O   0  0  0  0  0  0  0  0  0  0  0  0
   -2.0344    0.5228   -1.6736 C   0  0  0  0  0  0  0  0  0  0  0  0
   -2.5220    1.8666   -1.6405 O   0  0  0  0  0  0  0  0  0  0  0  0
   -2.3998    2.7740   -0.5722 C   0  0  0  0  0  0  0  0  0  0  0  0
   -2.8285    4.0917   -0.7788 C   0  0  0  0  0  0  0  0  0  0  0  0
   -2.7194    5.0438    0.2393 C   0  0  0  0  0  0  0  0  0  0  0  0
   -2.1820    4.6857    1.4790 C   0  0  0  0  0  0  0  0  0  0  0  0
   -2.0411    5.8814    2.7548 Cl  0  0  0  0  0  0  0  0  0  0  0  0
   -1.7590    3.3722    1.7006 C   0  0  0  0  0  0  0  0  0  0  0  0
   -1.8687    2.4177    0.6848 C   0  0  0  0  0  0  0  0  0  0  0  0
   -2.6368   -0.2392   -0.6233 O   0  0  0  0  0  0  0  0  0  0  0  0
   -2.5221   -1.6295   -0.4549 C   0  0  0  0  0  0  0  0  0  0  0  0
   -1.8605   -2.4572   -1.3845 C   0  0  0  0  0  0  0  0  0  0  0  0
   -1.7574   -3.8323   -1.1537 C   0  0  0  0  0  0  0  0  0  0  0  0
   -2.3164   -4.3953   -0.0024 C   0  0  0  0  0  0  0  0  0  0  0  0
   -2.1831   -6.1201    0.2866 Cl  0  0  0  0  0  0  0  0  0  0  0  0
   -2.9819   -3.5807    0.9186 C   0  0  0  0  0  0  0  0  0  0  0  0
   -3.0837   -2.2047    0.6918 C   0  0  0  0  0  0  0  0  0  0  0  0
    6.0366   -1.1267    0.3510 H   0  0  0  0  0  0  0  0  0  0  0  0
    5.3873   -1.2429    2.0371 H   0  0  0  0  0  0  0  0  0  0  0  0
    5.8958    0.3518    1.3494 H   0  0  0  0  0  0  0  0  0  0  0  0
    3.6229   -2.4761    0.8847 H   0  0  0  0  0  0  0  0  0  0  0  0
    3.9711   -1.9763   -0.8057 H   0  0  0  0  0  0  0  0  0  0  0  0
    1.3796   -2.0336    0.6801 H   0  0  0  0  0  0  0  0  0  0  0  0
    1.6939   -2.0910   -1.0847 H   0  0  0  0  0  0  0  0  0  0  0  0
    2.0457    0.3723   -1.1207 H   0  0  0  0  0  0  0  0  0  0  0  0
    1.8956    1.7730    0.7773 H   0  0  0  0  0  0  0  0  0  0  0  0
    1.0646    0.5435    1.7826 H   0  0  0  0  0  0  0  0  0  0  0  0
    3.0268   -0.4630    2.4613 H   0  0  0  0  0  0  0  0  0  0  0  0
    3.7166    1.1420    2.0383 H   0  0  0  0  0  0  0  0  0  0  0  0
   -2.3357    0.0879   -2.6507 H   0  0  0  0  0  0  0  0  0  0  0  0
   -3.2425    4.3799   -1.7370 H   0  0  0  0  0  0  0  0  0  0  0  0
   -3.0506    6.0589    0.0623 H   0  0  0  0  0  0  0  0  0  0  0  0
   -1.3453    3.0892    2.6606 H   0  0  0  0  0  0  0  0  0  0  0  0
   -1.5411    1.4122    0.8961 H   0  0  0  0  0  0  0  0  0  0  0  0
   -1.4192   -2.0497   -2.2829 H   0  0  0  0  0  0  0  0  0  0  0  0
   -1.2419   -4.4591   -1.8702 H   0  0  0  0  0  0  0  0  0  0  0  0
   -3.4173   -4.0108    1.8116 H   0  0  0  0  0  0  0  0  0  0  0  0
   -3.5963   -1.5810    1.4129 H   0  0  0  0  0  0  0  0  0  0  0  0
  1  2  1  0
  2  3  1  0
  3  4  1  0
  4  5  1  0
  5  6  1  0
  6  7  1  0
  7  2  1  0
  5  8  1  0
  8  9  1  0
  9 10  2  0
  9 11  1  0
 11 12  1  0
 12 13  1  0
 13 14  2  0
 14 15  1  0
 15 16  2  0
 16 17  1  0
 16 18  1  0
 18 19  2  0
 19 13  1  0
 11 20  1  0
 20 21  1  0
 21 22  2  0
 22 23  1  0
 23 24  2  0
 24 25  1  0
 24 26  1  0
 26 27  2  0
 27 21  1  0
  1 28  1  0
  1 29  1  0
  1 30  1  0
  3 31  1  0
  3 32  1  0
  4 33  1  0
  4 34  1  0
  5 35  1  0
  6 36  1  0
  6 37  1  0
  7 38  1  0
  7 39  1  0
 11 40  1  0
 14 41  1  0
 15 42  1  0
 18 43  1  0
 19 44  1  0
 22 45  1  0
 23 46  1  0
 26 47  1  0
 27 48  1  0
M  END
> <ID>
HT1210

> <Class>
0.0

> <Clusters>
37

> <Fold>
3

$$$$