
     RDKit          3D

 35 36  0  0  0  0  0  0  0  0999 V2000
    4.4535   -0.5724    1.5523 N   0  0  0  0  0  0  0  0  0  0  0  0
    4.4598   -0.9061    0.1232 C   0  0  1  0  0  0  0  0  0  0  0  0
    3.1527   -1.6114   -0.3103 C   0  0  0  0  0  0  0  0  0  0  0  0
    1.9152   -0.7701   -0.0990 C   0  0  0  0  0  0  0  0  0  0  0  0
    1.5420    0.1966   -1.0453 C   0  0  0  0  0  0  0  0  0  0  0  0
    0.3967    0.9741   -0.8505 C   0  0  0  0  0  0  0  0  0  0  0  0
   -0.1248    2.4178   -2.3040 I   0  0  0  0  0  0  0  0  0  0  0  0
   -0.4010    0.7802    0.2862 C   0  0  0  0  0  0  0  0  0  0  0  0
   -1.5469    1.5623    0.4642 O   0  0  0  0  0  0  0  0  0  0  0  0
   -2.8573    1.0743    0.3495 C   0  0  0  0  0  0  0  0  0  0  0  0
   -3.1388   -0.2097   -0.1544 C   0  0  0  0  0  0  0  0  0  0  0  0
   -4.4605   -0.6526   -0.2520 C   0  0  0  0  0  0  0  0  0  0  0  0
   -5.5156    0.1796    0.1458 C   0  0  0  0  0  0  0  0  0  0  0  0
   -6.8340   -0.2617    0.0498 O   0  0  0  0  0  0  0  0  0  0  0  0
   -5.2395    1.4619    0.6408 C   0  0  0  0  0  0  0  0  0  0  0  0
   -6.8027    2.7488    1.2480 I   0  0  0  0  0  0  0  0  0  0  0  0
   -3.9153    1.9040    0.7378 C   0  0  0  0  0  0  0  0  0  0  0  0
   -0.0302   -0.1844    1.2407 C   0  0  0  0  0  0  0  0  0  0  0  0
   -1.1372   -0.4640    3.0234 I   0  0  0  0  0  0  0  0  0  0  0  0
    1.1172   -0.9587    1.0403 C   0  0  0  0  0  0  0  0  0  0  0  0
    4.7501    0.3092   -0.7192 C   0  0  0  0  0  0  0  0  0  0  0  0
    4.8161    1.4564   -0.1996 O   0  0  0  0  0  0  0  0  0  0  0  0
    4.9557    0.1608   -2.0876 O   0  0  0  0  0  0  0  0  0  0  0  0
    3.6683    0.0852    1.7631 H   0  0  0  0  0  0  0  0  0  0  0  0
    4.2880   -1.4466    2.1025 H   0  0  0  0  0  0  0  0  0  0  0  0
    5.2949   -1.6195   -0.0509 H   0  0  0  0  0  0  0  0  0  0  0  0
    3.0598   -2.5638    0.2566 H   0  0  0  0  0  0  0  0  0  0  0  0
    3.2217   -1.9029   -1.3814 H   0  0  0  0  0  0  0  0  0  0  0  0
    2.1379    0.3441   -1.9369 H   0  0  0  0  0  0  0  0  0  0  0  0
   -2.3420   -0.8673   -0.4757 H   0  0  0  0  0  0  0  0  0  0  0  0
   -4.6641   -1.6430   -0.6391 H   0  0  0  0  0  0  0  0  0  0  0  0
   -7.0602   -1.1837   -0.3047 H   0  0  0  0  0  0  0  0  0  0  0  0
   -3.7059    2.8947    1.1206 H   0  0  0  0  0  0  0  0  0  0  0  0
    1.3970   -1.6957    1.7827 H   0  0  0  0  0  0  0  0  0  0  0  0
    5.1495    0.9637   -2.6740 H   0  0  0  0  0  0  0  0  0  0  0  0
  2  1  1  0
  2  3  1  0
  3  4  1  0
  4  5  2  0
  5  6  1  0
  6  7  1  0
  6  8  2  0
  8  9  1  0
  9 10  1  0
 10 11  2  0
 11 12  1  0
 12 13  2  0
 13 14  1  0
 13 15  1  0
 15 16  1  0
 15 17  2  0
 17 10  1  0
  8 18  1  0
 18 19  1  0
 18 20  2  0
 20  4  1  0
  2 21  1  0
 21 22  2  0
 21 23  1  0
  1 24  1  0
  1 25  1  0
  2 26  1  1
  3 27  1  0
  3 28  1  0
  5 29  1  0
 11 30  1  0
 12 31  1  0
 14 32  1  0
 17 33  1  0
 20 34  1  0
 23 35  1  0
M  END
> <ID>
HT1215

> <Class>
0.0

> <Clusters>
71

> <Fold>
3

$$$$