
     RDKit          3D

 54 56  0  0  0  0  0  0  0  0999 V2000
   -5.6681   -2.8290   -0.0095 C   0  0  0  0  0  0  0  0  0  0  0  0
   -4.9089   -1.9932    1.0080 C   0  0  0  0  0  0  0  0  0  0  0  0
   -3.8527   -1.2960    0.3571 O   0  0  0  0  0  0  0  0  0  0  0  0
   -2.9741   -0.4470    1.0386 C   0  0  0  0  0  0  0  0  0  0  0  0
   -3.1322   -0.2379    2.2739 O   0  0  0  0  0  0  0  0  0  0  0  0
   -1.8859    0.2787    0.2595 C   0  0  0  0  0  0  0  0  0  0  0  0
   -0.7826    0.8470    1.1994 C   0  0  0  0  0  0  0  0  0  0  0  0
    0.0591   -0.2532    1.8831 C   0  0  0  0  0  0  0  0  0  0  0  0
    0.6257   -1.2347    0.9322 N   0  0  0  0  0  0  0  0  0  0  0  0
    1.7942   -0.7208    0.1816 C   0  0  0  0  0  0  0  0  0  0  0  0
    3.0797   -0.9588    0.9823 C   0  0  0  0  0  0  0  0  0  0  0  0
    4.2920   -0.5096    0.2074 C   0  0  0  0  0  0  0  0  0  0  0  0
    4.5295    0.8590   -0.0017 C   0  0  0  0  0  0  0  0  0  0  0  0
    5.6540    1.2795   -0.7179 C   0  0  0  0  0  0  0  0  0  0  0  0
    6.5567    0.3382   -1.2312 C   0  0  0  0  0  0  0  0  0  0  0  0
    7.7067    0.7689   -1.9640 N   0  0  0  0  0  0  0  0  0  0  0  0
    6.3253   -1.0280   -1.0202 C   0  0  0  0  0  0  0  0  0  0  0  0
    5.2011   -1.4502   -0.3040 C   0  0  0  0  0  0  0  0  0  0  0  0
   -0.4170   -1.8119    0.0615 C   0  0  0  0  0  0  0  0  0  0  0  0
   -1.1922   -0.7274   -0.7034 C   0  0  0  0  0  0  0  0  0  0  0  0
   -2.5634    1.4477   -0.4823 C   0  0  0  0  0  0  0  0  0  0  0  0
   -3.2190    2.4528    0.2660 C   0  0  0  0  0  0  0  0  0  0  0  0
   -3.8506    3.5269   -0.3661 C   0  0  0  0  0  0  0  0  0  0  0  0
   -3.8493    3.6201   -1.7565 C   0  0  0  0  0  0  0  0  0  0  0  0
   -3.2215    2.6360   -2.5185 C   0  0  0  0  0  0  0  0  0  0  0  0
   -2.5873    1.5574   -1.8945 C   0  0  0  0  0  0  0  0  0  0  0  0
   -6.4928   -3.3757    0.4945 H   0  0  0  0  0  0  0  0  0  0  0  0
   -6.0974   -2.1719   -0.7953 H   0  0  0  0  0  0  0  0  0  0  0  0
   -4.9833   -3.5642   -0.4827 H   0  0  0  0  0  0  0  0  0  0  0  0
   -4.4903   -2.6601    1.7927 H   0  0  0  0  0  0  0  0  0  0  0  0
   -5.6049   -1.2655    1.4789 H   0  0  0  0  0  0  0  0  0  0  0  0
   -1.2274    1.4797    1.9967 H   0  0  0  0  0  0  0  0  0  0  0  0
   -0.1129    1.5165    0.6185 H   0  0  0  0  0  0  0  0  0  0  0  0
   -0.5714   -0.7950    2.6200 H   0  0  0  0  0  0  0  0  0  0  0  0
    0.8684    0.2282    2.4722 H   0  0  0  0  0  0  0  0  0  0  0  0
    1.9053   -1.2518   -0.7908 H   0  0  0  0  0  0  0  0  0  0  0  0
    1.6866    0.3588   -0.0532 H   0  0  0  0  0  0  0  0  0  0  0  0
    3.0458   -0.4084    1.9461 H   0  0  0  0  0  0  0  0  0  0  0  0
    3.1525   -2.0423    1.2231 H   0  0  0  0  0  0  0  0  0  0  0  0
    3.8448    1.5998    0.3926 H   0  0  0  0  0  0  0  0  0  0  0  0
    5.8223    2.3380   -0.8715 H   0  0  0  0  0  0  0  0  0  0  0  0
    7.8877    1.7846   -2.1261 H   0  0  0  0  0  0  0  0  0  0  0  0
    8.3853    0.0752   -2.3502 H   0  0  0  0  0  0  0  0  0  0  0  0
    7.0155   -1.7653   -1.4108 H   0  0  0  0  0  0  0  0  0  0  0  0
    5.0387   -2.5103   -0.1538 H   0  0  0  0  0  0  0  0  0  0  0  0
   -1.1187   -2.4122    0.6804 H   0  0  0  0  0  0  0  0  0  0  0  0
    0.0334   -2.5266   -0.6616 H   0  0  0  0  0  0  0  0  0  0  0  0
   -0.4709   -0.1918   -1.3586 H   0  0  0  0  0  0  0  0  0  0  0  0
   -1.9393   -1.2232   -1.3613 H   0  0  0  0  0  0  0  0  0  0  0  0
   -3.2524    2.4039    1.3463 H   0  0  0  0  0  0  0  0  0  0  0  0
   -4.3453    4.2866    0.2251 H   0  0  0  0  0  0  0  0  0  0  0  0
   -4.3401    4.4524   -2.2443 H   0  0  0  0  0  0  0  0  0  0  0  0
   -3.2286    2.7063   -3.5987 H   0  0  0  0  0  0  0  0  0  0  0  0
   -2.1295    0.8197   -2.5357 H   0  0  0  0  0  0  0  0  0  0  0  0
  1  2  1  0
  2  3  1  0
  3  4  1  0
  4  5  2  0
  4  6  1  0
  6  7  1  0
  7  8  1  0
  8  9  1  0
  9 10  1  0
 10 11  1  0
 11 12  1  0
 12 13  2  0
 13 14  1  0
 14 15  2  0
 15 16  1  0
 15 17  1  0
 17 18  2  0
 18 12  1  0
  9 19  1  0
 19 20  1  0
 20  6  1  0
  6 21  1  0
 21 22  2  0
 22 23  1  0
 23 24  2  0
 24 25  1  0
 25 26  2  0
 26 21  1  0
  1 27  1  0
  1 28  1  0
  1 29  1  0
  2 30  1  0
  2 31  1  0
  7 32  1  0
  7 33  1  0
  8 34  1  0
  8 35  1  0
 10 36  1  0
 10 37  1  0
 11 38  1  0
 11 39  1  0
 13 40  1  0
 14 41  1  0
 16 42  1  0
 16 43  1  0
 17 44  1  0
 18 45  1  0
 19 46  1  0
 19 47  1  0
 20 48  1  0
 20 49  1  0
 22 50  1  0
 23 51  1  0
 24 52  1  0
 25 53  1  0
 26 54  1  0
M  END
> <ID>
HT0160

> <Class>
0.0

> <Clusters>
156

> <Fold>
3

$$$$