
     RDKit          3D

 29 30  0  0  0  0  0  0  0  0999 V2000
   -4.8601   -0.7182   -1.7274 C   0  0  0  0  0  0  0  0  0  0  0  0
   -4.3339    0.3653   -0.9682 O   0  0  0  0  0  0  0  0  0  0  0  0
   -3.0579    0.3779   -0.3856 C   0  0  0  0  0  0  0  0  0  0  0  0
   -2.6675    1.5109    0.3368 C   0  0  0  0  0  0  0  0  0  0  0  0
   -1.4055    1.5729    0.9346 C   0  0  0  0  0  0  0  0  0  0  0  0
   -0.5060    0.5029    0.8063 C   0  0  0  0  0  0  0  0  0  0  0  0
   -0.9024   -0.6425    0.0983 C   0  0  0  0  0  0  0  0  0  0  0  0
   -2.1651   -0.7046   -0.4988 C   0  0  0  0  0  0  0  0  0  0  0  0
    0.8219    0.5693    1.4517 C   0  0  0  0  0  0  0  0  0  0  0  0
    0.9259    1.1181    2.5824 O   0  0  0  0  0  0  0  0  0  0  0  0
    1.9952    0.0415    0.8068 N   0  0  0  0  0  0  0  0  0  0  0  0
    2.2316    0.0865   -0.6290 C   0  0  0  0  0  0  0  0  0  0  0  0
    3.7183   -0.2639   -0.8375 C   0  0  0  0  0  0  0  0  0  0  0  0
    4.3396   -0.4823    0.5490 C   0  0  0  0  0  0  0  0  0  0  0  0
    3.2081   -0.2661    1.4700 C   0  0  0  0  0  0  0  0  0  0  0  0
    3.3067   -0.3542    2.7231 O   0  0  0  0  0  0  0  0  0  0  0  0
   -5.8836   -0.4593   -2.0678 H   0  0  0  0  0  0  0  0  0  0  0  0
   -4.2247   -0.9036   -2.6192 H   0  0  0  0  0  0  0  0  0  0  0  0
   -4.9146   -1.6330   -1.1002 H   0  0  0  0  0  0  0  0  0  0  0  0
   -3.3467    2.3482    0.4358 H   0  0  0  0  0  0  0  0  0  0  0  0
   -1.1263    2.4622    1.4865 H   0  0  0  0  0  0  0  0  0  0  0  0
   -0.2461   -1.5006    0.0279 H   0  0  0  0  0  0  0  0  0  0  0  0
   -2.4396   -1.6007   -1.0382 H   0  0  0  0  0  0  0  0  0  0  0  0
    1.5902   -0.6513   -1.1535 H   0  0  0  0  0  0  0  0  0  0  0  0
    2.0178    1.1069   -1.0154 H   0  0  0  0  0  0  0  0  0  0  0  0
    4.2386    0.5648   -1.3660 H   0  0  0  0  0  0  0  0  0  0  0  0
    3.8128   -1.1884   -1.4483 H   0  0  0  0  0  0  0  0  0  0  0  0
    5.1434    0.2585    0.7487 H   0  0  0  0  0  0  0  0  0  0  0  0
    4.7299   -1.5172    0.6555 H   0  0  0  0  0  0  0  0  0  0  0  0
  1  2  1  0
  2  3  1  0
  3  4  2  0
  4  5  1  0
  5  6  2  0
  6  7  1  0
  7  8  2  0
  8  3  1  0
  6  9  1  0
  9 10  2  0
  9 11  1  0
 11 12  1  0
 12 13  1  0
 13 14  1  0
 14 15  1  0
 15 11  1  0
 15 16  2  0
  1 17  1  0
  1 18  1  0
  1 19  1  0
  4 20  1  0
  5 21  1  0
  7 22  1  0
  8 23  1  0
 12 24  1  0
 12 25  1  0
 13 26  1  0
 13 27  1  0
 14 28  1  0
 14 29  1  0
M  END
> <ID>
HT0161

> <Class>
0.0

> <Clusters>
269

> <Fold>
3

$$$$