
     RDKit          3D

 19 19  0  0  0  0  0  0  0  0999 V2000
    3.3907    0.7887   -0.3536 C   0  0  0  0  0  0  0  0  0  0  0  0
    1.9761    0.7667   -0.2061 O   0  0  0  0  0  0  0  0  0  0  0  0
    1.2387   -0.4212   -0.1757 C   0  0  0  0  0  0  0  0  0  0  0  0
    1.8213   -1.5313   -0.3215 O   0  0  0  0  0  0  0  0  0  0  0  0
   -0.2329   -0.3794   -0.0362 C   0  0  0  0  0  0  0  0  0  0  0  0
   -1.0059   -1.3106   -0.7547 C   0  0  0  0  0  0  0  0  0  0  0  0
   -2.4010   -1.2599   -0.7142 C   0  0  0  0  0  0  0  0  0  0  0  0
   -3.0432   -0.2807    0.0429 C   0  0  0  0  0  0  0  0  0  0  0  0
   -2.2920    0.6380    0.7776 C   0  0  0  0  0  0  0  0  0  0  0  0
   -0.8922    0.5872    0.7647 C   0  0  0  0  0  0  0  0  0  0  0  0
   -0.2007    1.4831    1.5827 O   0  0  0  0  0  0  0  0  0  0  0  0
    3.7414    1.8410   -0.3463 H   0  0  0  0  0  0  0  0  0  0  0  0
    3.6799    0.3193   -1.3176 H   0  0  0  0  0  0  0  0  0  0  0  0
    3.8688    0.2439    0.4879 H   0  0  0  0  0  0  0  0  0  0  0  0
   -0.5293   -2.0633   -1.3710 H   0  0  0  0  0  0  0  0  0  0  0  0
   -2.9848   -1.9746   -1.2798 H   0  0  0  0  0  0  0  0  0  0  0  0
   -4.1245   -0.2391    0.0682 H   0  0  0  0  0  0  0  0  0  0  0  0
   -2.8000    1.3806    1.3800 H   0  0  0  0  0  0  0  0  0  0  0  0
    0.7895    1.4119    1.7726 H   0  0  0  0  0  0  0  0  0  0  0  0
  1  2  1  0
  2  3  1  0
  3  4  2  0
  3  5  1  0
  5  6  2  0
  6  7  1  0
  7  8  2  0
  8  9  1  0
  9 10  2  0
 10  5  1  0
 10 11  1  0
  1 12  1  0
  1 13  1  0
  1 14  1  0
  6 15  1  0
  7 16  1  0
  8 17  1  0
  9 18  1  0
 11 19  1  0
M  END
> <ID>
HT1368

> <Class>
0.0

> <Clusters>
262

> <Fold>
3

$$$$