
     RDKit          3D

 63 65  0  0  0  0  0  0  0  0999 V2000
    5.7785    2.5234   -1.8515 C   0  0  0  0  0  0  0  0  0  0  0  0
    6.1695    1.0537   -2.0019 C   0  0  0  0  0  0  0  0  0  0  0  0
    5.4007    0.1341   -1.0410 C   0  0  0  0  0  0  0  0  0  0  0  0
    3.9105    0.0163   -1.4042 C   0  0  0  0  0  0  0  0  0  0  0  0
    3.1905   -1.0646   -0.5838 C   0  0  0  0  0  0  0  0  0  0  0  0
    3.1218   -0.7178    0.9218 C   0  0  0  0  0  0  0  0  0  0  0  0
    2.0369   -1.5137    1.7202 C   0  0  0  0  0  0  0  0  0  0  0  0
    2.3105   -3.0296    1.5403 C   0  0  0  0  0  0  0  0  0  0  0  0
    2.2081   -1.1585    3.2135 C   0  0  0  0  0  0  0  0  0  0  0  0
    0.5822   -1.1779    1.3148 C   0  0  0  0  0  0  0  0  0  0  0  0
   -0.4827   -1.9425    1.8354 C   0  0  0  0  0  0  0  0  0  0  0  0
   -1.8152   -1.6739    1.4941 C   0  0  0  0  0  0  0  0  0  0  0  0
   -2.8328   -2.4232    2.0831 O   0  0  0  0  0  0  0  0  0  0  0  0
   -2.1198   -0.6395    0.5852 C   0  0  0  0  0  0  0  0  0  0  0  0
   -3.5561   -0.3720    0.1260 C   0  0  2  0  0  0  0  0  0  0  0  0
   -4.2159   -1.6401   -0.4754 C   0  0  0  0  0  0  0  0  0  0  0  0
   -5.5256   -1.3190   -1.1501 C   0  0  0  0  0  0  0  0  0  0  0  0
   -6.1194   -2.1943   -1.7607 O   0  0  0  0  0  0  0  0  0  0  0  0
   -6.1391    0.0499   -1.0186 C   0  0  0  0  0  0  0  0  0  0  0  0
   -5.1104    1.1849   -1.2084 C   0  0  0  0  0  0  0  0  0  0  0  0
   -3.6387    0.7563   -0.9460 C   0  0  1  0  0  0  0  0  0  0  0  0
   -2.6615    1.9311   -0.6460 C   0  0  0  0  0  0  0  0  0  0  0  0
   -2.9824    2.6710    0.6718 C   0  0  0  0  0  0  0  0  0  0  0  0
   -2.6490    2.9463   -1.8017 C   0  0  0  0  0  0  0  0  0  0  0  0
   -1.3486    1.3815   -0.5469 O   0  0  0  0  0  0  0  0  0  0  0  0
   -1.0765    0.2171    0.1781 C   0  0  0  0  0  0  0  0  0  0  0  0
    0.2498   -0.0658    0.5118 C   0  0  0  0  0  0  0  0  0  0  0  0
    5.8837    2.8477   -0.7944 H   0  0  0  0  0  0  0  0  0  0  0  0
    4.7336    2.6883   -2.1867 H   0  0  0  0  0  0  0  0  0  0  0  0
    6.4457    3.1492   -2.4806 H   0  0  0  0  0  0  0  0  0  0  0  0
    7.2556    0.9584   -1.7854 H   0  0  0  0  0  0  0  0  0  0  0  0
    6.0075    0.7307   -3.0530 H   0  0  0  0  0  0  0  0  0  0  0  0
    5.5135    0.5113   -0.0019 H   0  0  0  0  0  0  0  0  0  0  0  0
    5.8649   -0.8751   -1.0868 H   0  0  0  0  0  0  0  0  0  0  0  0
    3.3992    0.9905   -1.2508 H   0  0  0  0  0  0  0  0  0  0  0  0
    3.8183   -0.2493   -2.4800 H   0  0  0  0  0  0  0  0  0  0  0  0
    3.7122   -2.0367   -0.7208 H   0  0  0  0  0  0  0  0  0  0  0  0
    2.1704   -1.1868   -1.0024 H   0  0  0  0  0  0  0  0  0  0  0  0
    4.1221   -0.9376    1.3574 H   0  0  0  0  0  0  0  0  0  0  0  0
    2.9758    0.3741    1.0688 H   0  0  0  0  0  0  0  0  0  0  0  0
    2.0058   -3.3662    0.5262 H   0  0  0  0  0  0  0  0  0  0  0  0
    3.3906   -3.2545    1.6761 H   0  0  0  0  0  0  0  0  0  0  0  0
    1.7600   -3.6417    2.2843 H   0  0  0  0  0  0  0  0  0  0  0  0
    1.4981   -1.7294    3.8494 H   0  0  0  0  0  0  0  0  0  0  0  0
    2.0234   -0.0745    3.3772 H   0  0  0  0  0  0  0  0  0  0  0  0
    3.2373   -1.3944    3.5611 H   0  0  0  0  0  0  0  0  0  0  0  0
   -0.2881   -2.7486    2.5286 H   0  0  0  0  0  0  0  0  0  0  0  0
   -2.6361   -3.1661    2.7437 H   0  0  0  0  0  0  0  0  0  0  0  0
   -4.1405   -0.0625    1.0208 H   0  0  0  0  0  0  0  0  0  0  0  0
   -3.5313   -2.0930   -1.2262 H   0  0  0  0  0  0  0  0  0  0  0  0
   -4.4240   -2.3957    0.3069 H   0  0  0  0  0  0  0  0  0  0  0  0
   -6.9676    0.1734   -1.7499 H   0  0  0  0  0  0  0  0  0  0  0  0
   -6.5807    0.1252   -0.0014 H   0  0  0  0  0  0  0  0  0  0  0  0
   -5.1870    1.5617   -2.2520 H   0  0  0  0  0  0  0  0  0  0  0  0
   -5.4080    2.0205   -0.5445 H   0  0  0  0  0  0  0  0  0  0  0  0
   -3.2750    0.3071   -1.9010 H   0  0  0  0  0  0  0  0  0  0  0  0
   -2.1781    3.4049    0.8935 H   0  0  0  0  0  0  0  0  0  0  0  0
   -3.0348    1.9697    1.5292 H   0  0  0  0  0  0  0  0  0  0  0  0
   -3.9371    3.2312    0.6091 H   0  0  0  0  0  0  0  0  0  0  0  0
   -1.8632    3.7130   -1.6291 H   0  0  0  0  0  0  0  0  0  0  0  0
   -2.4256    2.4368   -2.7634 H   0  0  0  0  0  0  0  0  0  0  0  0
   -3.6264    3.4660   -1.8909 H   0  0  0  0  0  0  0  0  0  0  0  0
    1.0006    0.6196    0.1512 H   0  0  0  0  0  0  0  0  0  0  0  0
  1  2  1  0
  2  3  1  0
  3  4  1  0
  4  5  1  0
  5  6  1  0
  6  7  1  0
  7  8  1  0
  7  9  1  0
  7 10  1  0
 10 11  2  0
 11 12  1  0
 12 13  1  0
 12 14  2  0
 14 15  1  0
 15 16  1  0
 16 17  1  0
 17 18  2  0
 17 19  1  0
 19 20  1  0
 21 20  1  0
 21 15  1  0
 21 22  1  0
 22 23  1  0
 22 24  1  0
 22 25  1  0
 25 26  1  0
 26 14  1  0
 26 27  2  0
 27 10  1  0
  1 28  1  0
  1 29  1  0
  1 30  1  0
  2 31  1  0
  2 32  1  0
  3 33  1  0
  3 34  1  0
  4 35  1  0
  4 36  1  0
  5 37  1  0
  5 38  1  0
  6 39  1  0
  6 40  1  0
  8 41  1  0
  8 42  1  0
  8 43  1  0
  9 44  1  0
  9 45  1  0
  9 46  1  0
 11 47  1  0
 13 48  1  0
 15 49  1  1
 16 50  1  0
 16 51  1  0
 19 52  1  0
 19 53  1  0
 20 54  1  0
 20 55  1  0
 21 56  1  6
 23 57  1  0
 23 58  1  0
 23 59  1  0
 24 60  1  0
 24 61  1  0
 24 62  1  0
 27 63  1  0
M  END
> <ID>
HT1446

> <Class>
0.0

> <Clusters>
87

> <Fold>
3

$$$$