
     RDKit          3D

 12 11  0  0  0  0  0  0  0  0999 V2000
   -1.7471   -0.1500   -0.0327 C   0  0  0  0  0  0  0  0  0  0  0  0
   -0.7713    0.7271    0.4899 O   0  0  0  0  0  0  0  0  0  0  0  0
    0.4428    0.6706   -0.2453 C   0  0  0  0  0  0  0  0  0  0  0  0
    0.2292    0.4669   -1.6050 F   0  0  0  0  0  0  0  0  0  0  0  0
    1.0771    1.8929   -0.1055 F   0  0  0  0  0  0  0  0  0  0  0  0
    1.3654   -0.4270    0.3083 C   0  0  0  0  0  0  0  0  0  0  0  0
    1.6764   -0.1784    2.0478 Cl  0  0  0  0  0  0  0  0  0  0  0  0
    2.9253   -0.4304   -0.5573 Cl  0  0  0  0  0  0  0  0  0  0  0  0
   -2.1489    0.2400   -0.9929 H   0  0  0  0  0  0  0  0  0  0  0  0
   -1.3588   -1.1826   -0.1656 H   0  0  0  0  0  0  0  0  0  0  0  0
   -2.5921   -0.2033    0.6839 H   0  0  0  0  0  0  0  0  0  0  0  0
    0.9019   -1.4256    0.1744 H   0  0  0  0  0  0  0  0  0  0  0  0
  1  2  1  0
  2  3  1  0
  3  4  1  0
  3  5  1  0
  3  6  1  0
  6  7  1  0
  6  8  1  0
  1  9  1  0
  1 10  1  0
  1 11  1  0
  6 12  1  0
M  END
> <ID>
HT1353

> <Class>
0.0

> <Clusters>
136

> <Fold>
3

$$$$