
     RDKit          3D

 18 17  0  0  0  0  0  0  0  0999 V2000
    2.0799    0.2082    0.3325 C   0  0  0  0  0  0  0  0  0  0  0  0
    1.0204    0.7185   -0.4540 O   0  0  0  0  0  0  0  0  0  0  0  0
   -0.2477    0.1203   -0.1844 C   0  0  0  0  0  0  0  0  0  0  0  0
   -0.8233    0.6217    1.1589 C   0  0  0  0  0  0  0  0  0  0  0  0
   -0.2095   -1.4281   -0.2106 C   0  0  0  0  0  0  0  0  0  0  0  0
   -1.1894    0.5872   -1.3077 C   0  0  0  0  0  0  0  0  0  0  0  0
    1.8382    0.1703    1.4136 H   0  0  0  0  0  0  0  0  0  0  0  0
    2.3966   -0.7906   -0.0351 H   0  0  0  0  0  0  0  0  0  0  0  0
    2.9518    0.8845    0.2211 H   0  0  0  0  0  0  0  0  0  0  0  0
   -0.2923    0.1779    2.0256 H   0  0  0  0  0  0  0  0  0  0  0  0
   -1.8942    0.3399    1.2565 H   0  0  0  0  0  0  0  0  0  0  0  0
   -0.7425    1.7280    1.2223 H   0  0  0  0  0  0  0  0  0  0  0  0
   -1.2385   -1.8463   -0.1673 H   0  0  0  0  0  0  0  0  0  0  0  0
    0.2775   -1.7857   -1.1431 H   0  0  0  0  0  0  0  0  0  0  0  0
    0.3462   -1.8334    0.6614 H   0  0  0  0  0  0  0  0  0  0  0  0
   -0.8046    0.2541   -2.2959 H   0  0  0  0  0  0  0  0  0  0  0  0
   -1.2547    1.6968   -1.3210 H   0  0  0  0  0  0  0  0  0  0  0  0
   -2.2140    0.1768   -1.1730 H   0  0  0  0  0  0  0  0  0  0  0  0
  1  2  1  0
  2  3  1  0
  3  4  1  0
  3  5  1  0
  3  6  1  0
  1  7  1  0
  1  8  1  0
  1  9  1  0
  4 10  1  0
  4 11  1  0
  4 12  1  0
  5 13  1  0
  5 14  1  0
  5 15  1  0
  6 16  1  0
  6 17  1  0
  6 18  1  0
M  END
> <ID>
HT1358

> <Class>
0.0

> <Clusters>
254

> <Fold>
3

$$$$