
     RDKit          3D

 59 63  0  0  0  0  0  0  0  0999 V2000
    6.9373    3.8484    2.0494 C   0  0  0  0  0  0  0  0  0  0  0  0
    5.7610    3.1339    2.4153 O   0  0  0  0  0  0  0  0  0  0  0  0
    5.2477    2.0383    1.7055 C   0  0  0  0  0  0  0  0  0  0  0  0
    5.8668    1.5318    0.5463 C   0  0  0  0  0  0  0  0  0  0  0  0
    5.3143    0.4375   -0.1263 C   0  0  0  0  0  0  0  0  0  0  0  0
    4.1308   -0.1540    0.3353 C   0  0  0  0  0  0  0  0  0  0  0  0
    3.5275    0.3350    1.5035 C   0  0  0  0  0  0  0  0  0  0  0  0
    4.0789    1.4287    2.1766 C   0  0  0  0  0  0  0  0  0  0  0  0
    3.5939   -1.2989   -0.3411 N   0  0  0  0  0  0  0  0  0  0  0  0
    4.3136   -2.3812   -0.6070 N   0  0  0  0  0  0  0  0  0  0  0  0
    3.5041   -3.2926   -1.1927 C   0  0  0  0  0  0  0  0  0  0  0  0
    3.9465   -4.6441   -1.5820 C   0  0  0  0  0  0  0  0  0  0  0  0
    3.1259   -5.4652   -2.0698 O   0  0  0  0  0  0  0  0  0  0  0  0
    5.3075   -5.0390   -1.4036 N   0  0  0  0  0  0  0  0  0  0  0  0
    2.2330   -2.7504   -1.3173 C   0  0  0  0  0  0  0  0  0  0  0  0
    0.9390   -3.3396   -1.8033 C   0  0  0  0  0  0  0  0  0  0  0  0
   -0.0329   -2.2184   -2.2358 C   0  0  0  0  0  0  0  0  0  0  0  0
   -0.0771   -1.1124   -1.2552 N   0  0  0  0  0  0  0  0  0  0  0  0
    1.1675   -0.6068   -0.7303 C   0  0  0  0  0  0  0  0  0  0  0  0
    1.2548    0.5717   -0.2932 O   0  0  0  0  0  0  0  0  0  0  0  0
    2.3266   -1.5053   -0.7607 C   0  0  0  0  0  0  0  0  0  0  0  0
   -1.3338   -0.5205   -0.8702 C   0  0  0  0  0  0  0  0  0  0  0  0
   -1.5906   -0.2134    0.4758 C   0  0  0  0  0  0  0  0  0  0  0  0
   -2.8099    0.3556    0.8531 C   0  0  0  0  0  0  0  0  0  0  0  0
   -3.7952    0.6327   -0.1101 C   0  0  0  0  0  0  0  0  0  0  0  0
   -3.5385    0.3226   -1.4559 C   0  0  0  0  0  0  0  0  0  0  0  0
   -2.3199   -0.2486   -1.8326 C   0  0  0  0  0  0  0  0  0  0  0  0
   -5.0597    1.2123    0.2738 N   0  0  0  0  0  0  0  0  0  0  0  0
   -5.7097    0.7826    1.5216 C   0  0  0  0  0  0  0  0  0  0  0  0
   -7.2308    0.9491    1.4518 C   0  0  0  0  0  0  0  0  0  0  0  0
   -7.5940    2.3777    1.0420 C   0  0  0  0  0  0  0  0  0  0  0  0
   -7.0450    2.6952   -0.3496 C   0  0  0  0  0  0  0  0  0  0  0  0
   -5.5893    2.3429   -0.4508 C   0  0  0  0  0  0  0  0  0  0  0  0
   -4.8392    3.0336   -1.1928 O   0  0  0  0  0  0  0  0  0  0  0  0
    7.8161    3.1693    2.0617 H   0  0  0  0  0  0  0  0  0  0  0  0
    7.1083    4.6644    2.7810 H   0  0  0  0  0  0  0  0  0  0  0  0
    6.8138    4.2954    1.0401 H   0  0  0  0  0  0  0  0  0  0  0  0
    6.7749    1.9734    0.1593 H   0  0  0  0  0  0  0  0  0  0  0  0
    5.8026    0.0547   -1.0139 H   0  0  0  0  0  0  0  0  0  0  0  0
    2.6377   -0.1392    1.8984 H   0  0  0  0  0  0  0  0  0  0  0  0
    3.5996    1.8006    3.0734 H   0  0  0  0  0  0  0  0  0  0  0  0
    5.6148   -5.9995   -1.6741 H   0  0  0  0  0  0  0  0  0  0  0  0
    6.0128   -4.3814   -1.0038 H   0  0  0  0  0  0  0  0  0  0  0  0
    0.4826   -3.9285   -0.9797 H   0  0  0  0  0  0  0  0  0  0  0  0
    1.1204   -4.0107   -2.6681 H   0  0  0  0  0  0  0  0  0  0  0  0
   -1.0431   -2.6593   -2.3808 H   0  0  0  0  0  0  0  0  0  0  0  0
    0.3041   -1.8111   -3.2138 H   0  0  0  0  0  0  0  0  0  0  0  0
   -0.8496   -0.4262    1.2361 H   0  0  0  0  0  0  0  0  0  0  0  0
   -2.9793    0.5886    1.8962 H   0  0  0  0  0  0  0  0  0  0  0  0
   -4.2887    0.5138   -2.2128 H   0  0  0  0  0  0  0  0  0  0  0  0
   -2.1413   -0.4686   -2.8774 H   0  0  0  0  0  0  0  0  0  0  0  0
   -5.3118    1.3857    2.3666 H   0  0  0  0  0  0  0  0  0  0  0  0
   -5.4834   -0.2881    1.7211 H   0  0  0  0  0  0  0  0  0  0  0  0
   -7.6535    0.2269    0.7191 H   0  0  0  0  0  0  0  0  0  0  0  0
   -7.6702    0.7281    2.4483 H   0  0  0  0  0  0  0  0  0  0  0  0
   -8.6996    2.4897    1.0340 H   0  0  0  0  0  0  0  0  0  0  0  0
   -7.1810    3.0987    1.7816 H   0  0  0  0  0  0  0  0  0  0  0  0
   -7.1930    3.7757   -0.5657 H   0  0  0  0  0  0  0  0  0  0  0  0
   -7.6045    2.1086   -1.1098 H   0  0  0  0  0  0  0  0  0  0  0  0
  1  2  1  0
  2  3  1  0
  3  4  2  0
  4  5  1  0
  5  6  2  0
  6  7  1  0
  7  8  2  0
  8  3  1  0
  6  9  1  0
  9 10  1  0
 10 11  2  0
 11 12  1  0
 12 13  2  0
 12 14  1  0
 11 15  1  0
 15 16  1  0
 16 17  1  0
 17 18  1  0
 18 19  1  0
 19 20  2  0
 19 21  1  0
 21  9  1  0
 21 15  2  0
 18 22  1  0
 22 23  2  0
 23 24  1  0
 24 25  2  0
 25 26  1  0
 26 27  2  0
 27 22  1  0
 25 28  1  0
 28 29  1  0
 29 30  1  0
 30 31  1  0
 31 32  1  0
 32 33  1  0
 33 28  1  0
 33 34  2  0
  1 35  1  0
  1 36  1  0
  1 37  1  0
  4 38  1  0
  5 39  1  0
  7 40  1  0
  8 41  1  0
 14 42  1  0
 14 43  1  0
 16 44  1  0
 16 45  1  0
 17 46  1  0
 17 47  1  0
 23 48  1  0
 24 49  1  0
 26 50  1  0
 27 51  1  0
 29 52  1  0
 29 53  1  0
 30 54  1  0
 30 55  1  0
 31 56  1  0
 31 57  1  0
 32 58  1  0
 32 59  1  0
M  END
> <ID>
HT0169

> <Class>
0.0

> <Clusters>
269

> <Fold>
3

$$$$