
     RDKit          3D

 44 46  0  0  0  0  0  0  0  0999 V2000
    0.3918   -1.3603   -2.3197 C   0  0  0  0  0  0  0  0  0  0  0  0
    1.1260   -0.8569   -1.1060 C   0  0  0  0  0  0  0  0  0  0  0  0
    2.5188   -0.7127   -1.1485 C   0  0  0  0  0  0  0  0  0  0  0  0
    3.2072   -0.2353   -0.0245 C   0  0  0  0  0  0  0  0  0  0  0  0
    2.4927    0.0957    1.0835 N   0  0  0  0  0  0  0  0  0  0  0  0
    1.1676   -0.0365    1.1338 N   0  0  0  0  0  0  0  0  0  0  0  0
    0.4476   -0.5075    0.0798 C   0  0  0  0  0  0  0  0  0  0  0  0
   -0.9814   -0.6276    0.1949 N   0  0  0  0  0  0  0  0  0  0  0  0
   -1.6902   -0.1627    1.3896 C   0  0  0  0  0  0  0  0  0  0  0  0
   -3.2190   -0.2740    1.2344 C   0  0  0  0  0  0  0  0  0  0  0  0
   -3.8151    0.9798    0.7105 N   0  0  0  0  0  0  0  0  0  0  0  0
   -5.2805    1.0368    0.9304 C   0  0  0  0  0  0  0  0  0  0  0  0
   -6.0843    0.4786   -0.2634 C   0  0  0  0  0  0  0  0  0  0  0  0
   -5.3054   -0.4274   -1.0139 O   0  0  0  0  0  0  0  0  0  0  0  0
   -4.2440    0.2596   -1.6536 C   0  0  0  0  0  0  0  0  0  0  0  0
   -3.4983    1.2334   -0.7103 C   0  0  0  0  0  0  0  0  0  0  0  0
    4.6826   -0.0618   -0.0205 C   0  0  0  0  0  0  0  0  0  0  0  0
    5.2697    0.9222    0.7978 C   0  0  0  0  0  0  0  0  0  0  0  0
    6.6572    1.0940    0.8182 C   0  0  0  0  0  0  0  0  0  0  0  0
    7.4755    0.2823    0.0303 C   0  0  0  0  0  0  0  0  0  0  0  0
    6.9083   -0.7060   -0.7765 C   0  0  0  0  0  0  0  0  0  0  0  0
    5.5213   -0.8820   -0.8021 C   0  0  0  0  0  0  0  0  0  0  0  0
    1.0844   -1.5629   -3.1642 H   0  0  0  0  0  0  0  0  0  0  0  0
   -0.1348   -2.3066   -2.0749 H   0  0  0  0  0  0  0  0  0  0  0  0
   -0.3453   -0.6005   -2.6552 H   0  0  0  0  0  0  0  0  0  0  0  0
    3.0531   -0.9469   -2.0601 H   0  0  0  0  0  0  0  0  0  0  0  0
   -1.5284   -1.0588   -0.5823 H   0  0  0  0  0  0  0  0  0  0  0  0
   -1.4122    0.8918    1.6076 H   0  0  0  0  0  0  0  0  0  0  0  0
   -1.3667   -0.7851    2.2524 H   0  0  0  0  0  0  0  0  0  0  0  0
   -3.4980   -1.1559    0.6184 H   0  0  0  0  0  0  0  0  0  0  0  0
   -3.6162   -0.4693    2.2552 H   0  0  0  0  0  0  0  0  0  0  0  0
   -5.5748    0.5008    1.8598 H   0  0  0  0  0  0  0  0  0  0  0  0
   -5.5723    2.0973    1.0887 H   0  0  0  0  0  0  0  0  0  0  0  0
   -6.9820   -0.0533    0.1165 H   0  0  0  0  0  0  0  0  0  0  0  0
   -6.4524    1.3097   -0.9089 H   0  0  0  0  0  0  0  0  0  0  0  0
   -4.6275    0.8049   -2.5444 H   0  0  0  0  0  0  0  0  0  0  0  0
   -3.5226   -0.4980   -2.0257 H   0  0  0  0  0  0  0  0  0  0  0  0
   -3.8087    2.2727   -0.9576 H   0  0  0  0  0  0  0  0  0  0  0  0
   -2.4055    1.2036   -0.8951 H   0  0  0  0  0  0  0  0  0  0  0  0
    4.6551    1.5678    1.4127 H   0  0  0  0  0  0  0  0  0  0  0  0
    7.0980    1.8578    1.4457 H   0  0  0  0  0  0  0  0  0  0  0  0
    8.5494    0.4159    0.0487 H   0  0  0  0  0  0  0  0  0  0  0  0
    7.5448   -1.3418   -1.3785 H   0  0  0  0  0  0  0  0  0  0  0  0
    5.1140   -1.6752   -1.4146 H   0  0  0  0  0  0  0  0  0  0  0  0
  1  2  1  0
  2  3  2  0
  3  4  1  0
  4  5  2  0
  5  6  1  0
  6  7  2  0
  7  2  1  0
  7  8  1  0
  8  9  1  0
  9 10  1  0
 10 11  1  0
 11 12  1  0
 12 13  1  0
 13 14  1  0
 14 15  1  0
 15 16  1  0
 16 11  1  0
  4 17  1  0
 17 18  2  0
 18 19  1  0
 19 20  2  0
 20 21  1  0
 21 22  2  0
 22 17  1  0
  1 23  1  0
  1 24  1  0
  1 25  1  0
  3 26  1  0
  8 27  1  0
  9 28  1  0
  9 29  1  0
 10 30  1  0
 10 31  1  0
 12 32  1  0
 12 33  1  0
 13 34  1  0
 13 35  1  0
 15 36  1  0
 15 37  1  0
 16 38  1  0
 16 39  1  0
 18 40  1  0
 19 41  1  0
 20 42  1  0
 21 43  1  0
 22 44  1  0
M  END
> <ID>
HT1406

> <Class>
0.0

> <Clusters>
118

> <Fold>
3

$$$$