
     RDKit          3D

 32 32  0  0  0  0  0  0  0  0999 V2000
    3.8581   -1.8718   -0.6335 C   0  0  0  0  0  0  0  0  0  0  0  0
    3.6575   -0.4711   -0.7931 O   0  0  0  0  0  0  0  0  0  0  0  0
    2.4577    0.1971   -0.5056 C   0  0  0  0  0  0  0  0  0  0  0  0
    2.4033    1.5758   -0.7125 C   0  0  0  0  0  0  0  0  0  0  0  0
    1.2331    2.2877   -0.4514 C   0  0  0  0  0  0  0  0  0  0  0  0
    0.0853    1.6297    0.0306 C   0  0  0  0  0  0  0  0  0  0  0  0
   -1.1060    2.3304    0.2855 O   0  0  0  0  0  0  0  0  0  0  0  0
   -1.2840    3.7289    0.0860 C   0  0  0  0  0  0  0  0  0  0  0  0
    0.1311    0.2346    0.2589 C   0  0  0  0  0  0  0  0  0  0  0  0
    1.3184   -0.4703   -0.0222 C   0  0  0  0  0  0  0  0  0  0  0  0
   -1.0923   -0.5182    0.7673 C   0  0  0  0  0  0  0  0  0  0  0  0
   -0.7785   -1.2128    1.9515 O   0  0  0  0  0  0  0  0  0  0  0  0
   -1.6773   -1.4592   -0.3190 C   0  0  0  0  0  0  0  0  0  0  0  0
   -2.9290   -2.1900    0.1934 C   0  0  0  0  0  0  0  0  0  0  0  0
   -1.9914   -0.6941   -1.5295 N   0  0  0  0  0  0  0  0  0  0  0  0
    3.1529   -2.4348   -1.2808 H   0  0  0  0  0  0  0  0  0  0  0  0
    3.7144   -2.1595    0.4295 H   0  0  0  0  0  0  0  0  0  0  0  0
    4.8954   -2.1260   -0.9332 H   0  0  0  0  0  0  0  0  0  0  0  0
    3.2749    2.0998   -1.0842 H   0  0  0  0  0  0  0  0  0  0  0  0
    1.2315    3.3538   -0.6316 H   0  0  0  0  0  0  0  0  0  0  0  0
   -2.3214    4.0051    0.3648 H   0  0  0  0  0  0  0  0  0  0  0  0
   -0.5801    4.2991    0.7284 H   0  0  0  0  0  0  0  0  0  0  0  0
   -1.1231    3.9859   -0.9823 H   0  0  0  0  0  0  0  0  0  0  0  0
    1.3494   -1.5396    0.1299 H   0  0  0  0  0  0  0  0  0  0  0  0
   -1.8919    0.2034    1.0369 H   0  0  0  0  0  0  0  0  0  0  0  0
   -0.2518   -2.0187    1.7120 H   0  0  0  0  0  0  0  0  0  0  0  0
   -0.9175   -2.2291   -0.5803 H   0  0  0  0  0  0  0  0  0  0  0  0
   -3.7134   -1.4621    0.4922 H   0  0  0  0  0  0  0  0  0  0  0  0
   -3.3375   -2.8486   -0.6021 H   0  0  0  0  0  0  0  0  0  0  0  0
   -2.6760   -2.8257    1.0680 H   0  0  0  0  0  0  0  0  0  0  0  0
   -2.7869   -0.0431   -1.3328 H   0  0  0  0  0  0  0  0  0  0  0  0
   -2.3043   -1.3565   -2.2762 H   0  0  0  0  0  0  0  0  0  0  0  0
  1  2  1  0
  2  3  1  0
  3  4  2  0
  4  5  1  0
  5  6  2  0
  6  7  1  0
  7  8  1  0
  6  9  1  0
  9 10  2  0
 10  3  1  0
  9 11  1  0
 11 12  1  0
 11 13  1  0
 13 14  1  0
 13 15  1  0
  1 16  1  0
  1 17  1  0
  1 18  1  0
  4 19  1  0
  5 20  1  0
  8 21  1  0
  8 22  1  0
  8 23  1  0
 10 24  1  0
 11 25  1  0
 12 26  1  0
 13 27  1  0
 14 28  1  0
 14 29  1  0
 14 30  1  0
 15 31  1  0
 15 32  1  0
M  END
> <ID>
HT1349

> <Class>
0.0

> <Clusters>
254

> <Fold>
3

$$$$