
     RDKit          3D

 47 50  0  0  0  0  0  0  0  0999 V2000
   -3.9893    0.3858   -1.4278 C   0  0  0  0  0  0  0  0  0  0  0  0
   -3.6503   -0.5328   -0.3030 N   0  0  0  0  0  0  0  0  0  0  0  0
   -4.9278   -1.2010    0.0857 C   0  0  0  0  0  0  0  0  0  0  0  0
   -2.6106   -1.5391   -0.6097 C   0  0  0  0  0  0  0  0  0  0  0  0
   -1.3677   -0.8909   -1.2838 C   0  0  0  0  0  0  0  0  0  0  0  0
   -0.8637    0.4179   -0.5905 C   0  0  0  0  0  0  0  0  0  0  0  0
   -1.8524    1.0507    0.4498 C   0  0  0  0  0  0  0  0  0  0  0  0
   -3.0268    0.1194    0.8690 C   0  0  0  0  0  0  0  0  0  0  0  0
   -2.4835   -1.0413    1.7345 C   0  0  0  0  0  0  0  0  0  0  0  0
   -1.1745   -1.4864    1.4659 O   0  0  0  0  0  0  0  0  0  0  0  0
   -2.2072   -2.1339    0.7596 C   0  0  0  0  0  0  0  0  0  0  0  0
    0.4007    0.1594    0.0249 O   0  0  0  0  0  0  0  0  0  0  0  0
    1.3027    1.1632    0.3961 C   0  0  0  0  0  0  0  0  0  0  0  0
    1.0825    2.3671    0.0882 O   0  0  0  0  0  0  0  0  0  0  0  0
    2.5667    0.7738    1.1153 C   0  0  0  0  0  0  0  0  0  0  0  0
    3.0895    1.8907    2.0402 C   0  0  0  0  0  0  0  0  0  0  0  0
    2.1359    2.2127    3.0171 O   0  0  0  0  0  0  0  0  0  0  0  0
    3.6256    0.3512    0.1189 C   0  0  0  0  0  0  0  0  0  0  0  0
    4.1085    1.2511   -0.8506 C   0  0  0  0  0  0  0  0  0  0  0  0
    5.0930    0.8515   -1.7595 C   0  0  0  0  0  0  0  0  0  0  0  0
    5.6039   -0.4469   -1.7128 C   0  0  0  0  0  0  0  0  0  0  0  0
    5.1296   -1.3496   -0.7582 C   0  0  0  0  0  0  0  0  0  0  0  0
    4.1449   -0.9554    0.1530 C   0  0  0  0  0  0  0  0  0  0  0  0
   -4.7493    1.1317   -1.1058 H   0  0  0  0  0  0  0  0  0  0  0  0
   -4.4018   -0.1871   -2.2878 H   0  0  0  0  0  0  0  0  0  0  0  0
   -3.1329    0.9626   -1.8204 H   0  0  0  0  0  0  0  0  0  0  0  0
   -5.6811   -0.4524    0.4185 H   0  0  0  0  0  0  0  0  0  0  0  0
   -5.3566   -1.7637   -0.7737 H   0  0  0  0  0  0  0  0  0  0  0  0
   -4.8063   -1.9284    0.9166 H   0  0  0  0  0  0  0  0  0  0  0  0
   -3.0060   -2.3443   -1.2690 H   0  0  0  0  0  0  0  0  0  0  0  0
   -1.6113   -0.6762   -2.3471 H   0  0  0  0  0  0  0  0  0  0  0  0
   -0.5468   -1.6405   -1.3241 H   0  0  0  0  0  0  0  0  0  0  0  0
   -0.6964    1.1628   -1.4012 H   0  0  0  0  0  0  0  0  0  0  0  0
   -1.3029    1.3620    1.3650 H   0  0  0  0  0  0  0  0  0  0  0  0
   -2.2716    1.9920    0.0334 H   0  0  0  0  0  0  0  0  0  0  0  0
   -3.7711    0.7078    1.4512 H   0  0  0  0  0  0  0  0  0  0  0  0
   -2.9640   -1.4010    2.6685 H   0  0  0  0  0  0  0  0  0  0  0  0
   -2.5250   -3.1338    1.1227 H   0  0  0  0  0  0  0  0  0  0  0  0
    2.3132   -0.0912    1.7683 H   0  0  0  0  0  0  0  0  0  0  0  0
    3.3177    2.8061    1.4537 H   0  0  0  0  0  0  0  0  0  0  0  0
    4.0365    1.5652    2.5291 H   0  0  0  0  0  0  0  0  0  0  0  0
    2.1550    1.4787    3.6856 H   0  0  0  0  0  0  0  0  0  0  0  0
    3.7234    2.2612   -0.9048 H   0  0  0  0  0  0  0  0  0  0  0  0
    5.4605    1.5499   -2.5002 H   0  0  0  0  0  0  0  0  0  0  0  0
    6.3687   -0.7528   -2.4159 H   0  0  0  0  0  0  0  0  0  0  0  0
    5.5263   -2.3559   -0.7226 H   0  0  0  0  0  0  0  0  0  0  0  0
    3.7920   -1.6698    0.8858 H   0  0  0  0  0  0  0  0  0  0  0  0
  1  2  1  0
  2  3  1  0
  2  4  1  0
  4  5  1  0
  5  6  1  0
  6  7  1  0
  7  8  1  0
  8  2  1  0
  8  9  1  0
  9 10  1  0
 10 11  1  0
 11  4  1  0
 11  9  1  0
  6 12  1  0
 12 13  1  0
 13 14  2  0
 13 15  1  0
 15 16  1  0
 16 17  1  0
 15 18  1  0
 18 19  2  0
 19 20  1  0
 20 21  2  0
 21 22  1  0
 22 23  2  0
 23 18  1  0
  1 24  1  0
  1 25  1  0
  1 26  1  0
  3 27  1  0
  3 28  1  0
  3 29  1  0
  4 30  1  0
  5 31  1  0
  5 32  1  0
  6 33  1  0
  7 34  1  0
  7 35  1  0
  8 36  1  0
  9 37  1  0
 11 38  1  0
 15 39  1  0
 16 40  1  0
 16 41  1  0
 17 42  1  0
 19 43  1  0
 20 44  1  0
 21 45  1  0
 22 46  1  0
 23 47  1  0
M  CHG  1   2   1
M  END
> <ID>
HT1369

> <Class>
0.0

> <Clusters>
24

> <Fold>
3

$$$$