
     RDKit          3D

 96102  0  0  0  0  0  0  0  0999 V2000
    1.7411    4.7855   -3.1221 C   0  0  0  0  0  0  0  0  0  0  0  0
    1.7380    3.9241   -1.9751 O   0  0  0  0  0  0  0  0  0  0  0  0
    0.6284    3.1437   -1.6084 C   0  0  0  0  0  0  0  0  0  0  0  0
   -0.3756    2.8016   -2.5423 C   0  0  0  0  0  0  0  0  0  0  0  0
   -1.5252    2.1432   -2.0921 C   0  0  0  0  0  0  0  0  0  0  0  0
   -1.6717    1.7736   -0.7423 C   0  0  0  0  0  0  0  0  0  0  0  0
   -3.0301    1.3983   -0.2177 C   0  0  0  0  0  0  0  0  0  0  0  0
   -3.0935    0.0251    0.5484 C   0  0  2  0  0  0  0  0  0  0  0  0
   -3.8827   -0.9493   -0.3155 C   0  0  0  0  0  0  0  0  0  0  0  0
   -5.2824   -0.7408   -0.3285 C   0  0  0  0  0  0  0  0  0  0  0  0
   -5.9270    0.3327    0.5263 C   0  0  0  0  0  0  0  0  0  0  0  0
   -5.1274    0.7568    1.7962 C   0  0  0  0  0  0  0  0  0  0  0  0
   -3.7653    0.1386    1.8979 N   0  0  0  0  0  0  0  0  0  0  0  0
   -3.8929   -1.2088    2.5202 C   0  0  0  0  0  0  0  0  0  0  0  0
   -2.9215    0.9268    2.8283 C   0  0  0  0  0  0  0  0  0  0  0  0
   -6.1177   -1.5416   -1.1010 C   0  0  0  0  0  0  0  0  0  0  0  0
   -5.6061   -2.6395   -1.7902 C   0  0  0  0  0  0  0  0  0  0  0  0
   -6.4287   -3.4930   -2.5407 O   0  0  0  0  0  0  0  0  0  0  0  0
   -7.8478   -3.4029   -2.6210 C   0  0  0  0  0  0  0  0  0  0  0  0
   -4.2377   -2.9047   -1.7323 C   0  0  0  0  0  0  0  0  0  0  0  0
   -3.7355   -4.0531   -2.3629 O   0  0  0  0  0  0  0  0  0  0  0  0
   -3.7292   -5.3160   -1.7030 C   0  0  0  0  0  0  0  0  0  0  0  0
   -3.3477   -2.0787   -1.0242 C   0  0  0  0  0  0  0  0  0  0  0  0
   -2.0056   -2.4953   -1.0805 O   0  0  0  0  0  0  0  0  0  0  0  0
   -0.8478   -2.0345   -0.4514 C   0  0  0  0  0  0  0  0  0  0  0  0
   -0.5366   -2.4779    0.8271 C   0  0  0  0  0  0  0  0  0  0  0  0
    0.7614   -2.3142    1.3033 C   0  0  0  0  0  0  0  0  0  0  0  0
    1.7696   -1.7463    0.4889 C   0  0  0  0  0  0  0  0  0  0  0  0
    3.2134   -1.9400    0.9259 C   0  0  0  0  0  0  0  0  0  0  0  0
    4.3764   -0.9535    0.5143 C   0  0  1  0  0  0  0  0  0  0  0  0
    4.1087    0.5505    0.4745 C   0  0  0  0  0  0  0  0  0  0  0  0
    2.9041    1.1828    0.8098 C   0  0  0  0  0  0  0  0  0  0  0  0
    2.7432    2.5530    0.5811 C   0  0  0  0  0  0  0  0  0  0  0  0
    1.4643    3.0999    0.6860 O   0  0  0  0  0  0  0  0  0  0  0  0
    0.4995    2.7628   -0.2596 C   0  0  0  0  0  0  0  0  0  0  0  0
   -0.6551    2.0940    0.1589 C   0  0  0  0  0  0  0  0  0  0  0  0
    3.8289    3.3508    0.2108 C   0  0  0  0  0  0  0  0  0  0  0  0
    3.6217    4.7338    0.0669 O   0  0  0  0  0  0  0  0  0  0  0  0
    4.6407    5.6690   -0.2354 C   0  0  0  0  0  0  0  0  0  0  0  0
    5.0694    2.7462   -0.0326 C   0  0  0  0  0  0  0  0  0  0  0  0
    5.2015    1.3553    0.1032 C   0  0  0  0  0  0  0  0  0  0  0  0
    6.4892    0.6998   -0.2899 C   0  0  0  0  0  0  0  0  0  0  0  0
    6.8362   -0.4764    0.6498 C   0  0  0  0  0  0  0  0  0  0  0  0
    5.6559   -1.1778    1.3010 N   0  0  0  0  0  0  0  0  0  0  0  0
    6.0034   -2.6223    1.3553 C   0  0  0  0  0  0  0  0  0  0  0  0
    5.5534   -0.6753    2.7057 C   0  0  0  0  0  0  0  0  0  0  0  0
    1.4100   -1.2224   -0.7642 C   0  0  0  0  0  0  0  0  0  0  0  0
    0.0838   -1.3172   -1.2078 C   0  0  0  0  0  0  0  0  0  0  0  0
    1.7200    4.1792   -4.0596 H   0  0  0  0  0  0  0  0  0  0  0  0
    2.6514    5.4058   -3.0829 H   0  0  0  0  0  0  0  0  0  0  0  0
    0.8666    5.4818   -3.0894 H   0  0  0  0  0  0  0  0  0  0  0  0
   -0.3249    3.0989   -3.5853 H   0  0  0  0  0  0  0  0  0  0  0  0
   -2.3031    1.9290   -2.8069 H   0  0  0  0  0  0  0  0  0  0  0  0
   -3.3482    2.2549    0.4038 H   0  0  0  0  0  0  0  0  0  0  0  0
   -3.7737    1.4110   -1.0453 H   0  0  0  0  0  0  0  0  0  0  0  0
   -2.0512   -0.3068    0.6932 H   0  0  0  0  0  0  0  0  0  0  0  0
   -6.0960    1.2413   -0.1112 H   0  0  0  0  0  0  0  0  0  0  0  0
   -6.9367   -0.0017    0.8734 H   0  0  0  0  0  0  0  0  0  0  0  0
   -5.0718    1.8686    1.8140 H   0  0  0  0  0  0  0  0  0  0  0  0
   -5.7049    0.5088    2.7276 H   0  0  0  0  0  0  0  0  0  0  0  0
   -4.2496   -1.1397    3.5609 H   0  0  0  0  0  0  0  0  0  0  0  0
   -2.9365   -1.7614    2.5179 H   0  0  0  0  0  0  0  0  0  0  0  0
   -4.6360   -1.8384    1.9998 H   0  0  0  0  0  0  0  0  0  0  0  0
   -3.4094    1.0483    3.8110 H   0  0  0  0  0  0  0  0  0  0  0  0
   -1.9400    0.4333    3.0225 H   0  0  0  0  0  0  0  0  0  0  0  0
   -2.7199    1.9310    2.4392 H   0  0  0  0  0  0  0  0  0  0  0  0
   -7.1780   -1.3537   -1.1117 H   0  0  0  0  0  0  0  0  0  0  0  0
   -8.2807   -3.5067   -1.6063 H   0  0  0  0  0  0  0  0  0  0  0  0
   -8.2248   -4.2425   -3.2481 H   0  0  0  0  0  0  0  0  0  0  0  0
   -8.1370   -2.4366   -3.0857 H   0  0  0  0  0  0  0  0  0  0  0  0
   -3.3436   -6.1068   -2.3982 H   0  0  0  0  0  0  0  0  0  0  0  0
   -4.7627   -5.5918   -1.4271 H   0  0  0  0  0  0  0  0  0  0  0  0
   -3.1415   -5.2672   -0.7599 H   0  0  0  0  0  0  0  0  0  0  0  0
   -1.2513   -3.0705    1.3821 H   0  0  0  0  0  0  0  0  0  0  0  0
    1.0089   -2.7882    2.2426 H   0  0  0  0  0  0  0  0  0  0  0  0
    3.4783   -2.9505    0.5312 H   0  0  0  0  0  0  0  0  0  0  0  0
    3.1927   -2.0440    2.0341 H   0  0  0  0  0  0  0  0  0  0  0  0
    4.5641   -1.2185   -0.5563 H   0  0  0  0  0  0  0  0  0  0  0  0
    2.0718    0.6199    1.2132 H   0  0  0  0  0  0  0  0  0  0  0  0
   -0.7653    1.8632    1.2119 H   0  0  0  0  0  0  0  0  0  0  0  0
    5.0328    5.4675   -1.2609 H   0  0  0  0  0  0  0  0  0  0  0  0
    4.2203    6.6945   -0.1912 H   0  0  0  0  0  0  0  0  0  0  0  0
    5.4600    5.5825    0.5056 H   0  0  0  0  0  0  0  0  0  0  0  0
    5.9167    3.3432   -0.3629 H   0  0  0  0  0  0  0  0  0  0  0  0
    6.4053    0.3384   -1.3366 H   0  0  0  0  0  0  0  0  0  0  0  0
    7.3310    1.4293   -0.2853 H   0  0  0  0  0  0  0  0  0  0  0  0
    7.4830   -1.1737    0.0453 H   0  0  0  0  0  0  0  0  0  0  0  0
    7.5130   -0.0775    1.4331 H   0  0  0  0  0  0  0  0  0  0  0  0
    5.9441   -3.0778    0.3553 H   0  0  0  0  0  0  0  0  0  0  0  0
    7.0315   -2.7849    1.7530 H   0  0  0  0  0  0  0  0  0  0  0  0
    5.3366   -3.1911    2.0333 H   0  0  0  0  0  0  0  0  0  0  0  0
    6.4144   -1.0342    3.3152 H   0  0  0  0  0  0  0  0  0  0  0  0
    5.5893    0.4207    2.7356 H   0  0  0  0  0  0  0  0  0  0  0  0
    4.6385   -1.0123    3.2299 H   0  0  0  0  0  0  0  0  0  0  0  0
    2.1556   -0.7784   -1.4061 H   0  0  0  0  0  0  0  0  0  0  0  0
   -0.1904   -0.9628   -2.2068 H   0  0  0  0  0  0  0  0  0  0  0  0
  1  2  1  0
  2  3  1  0
  3  4  2  0
  4  5  1  0
  5  6  2  0
  6  7  1  0
  8  7  1  0
  8  9  1  0
  9 10  2  0
 10 11  1  0
 11 12  1  0
 12 13  1  0
 13  8  1  0
 13 14  1  0
 13 15  1  0
 10 16  1  0
 16 17  2  0
 17 18  1  0
 18 19  1  0
 17 20  1  0
 20 21  1  0
 21 22  1  0
 20 23  2  0
 23  9  1  0
 23 24  1  0
 24 25  1  0
 25 26  2  0
 26 27  1  0
 27 28  2  0
 28 29  1  0
 30 29  1  0
 30 31  1  0
 31 32  2  0
 32 33  1  0
 33 34  1  0
 34 35  1  0
 35  3  1  0
 35 36  2  0
 36  6  1  0
 33 37  2  0
 37 38  1  0
 38 39  1  0
 37 40  1  0
 40 41  2  0
 41 31  1  0
 41 42  1  0
 42 43  1  0
 43 44  1  0
 44 30  1  0
 44 45  1  0
 44 46  1  0
 28 47  1  0
 47 48  2  0
 48 25  1  0
  1 49  1  0
  1 50  1  0
  1 51  1  0
  4 52  1  0
  5 53  1  0
  7 54  1  0
  7 55  1  0
  8 56  1  1
 11 57  1  0
 11 58  1  0
 12 59  1  0
 12 60  1  0
 14 61  1  0
 14 62  1  0
 14 63  1  0
 15 64  1  0
 15 65  1  0
 15 66  1  0
 16 67  1  0
 19 68  1  0
 19 69  1  0
 19 70  1  0
 22 71  1  0
 22 72  1  0
 22 73  1  0
 26 74  1  0
 27 75  1  0
 29 76  1  0
 29 77  1  0
 30 78  1  6
 32 79  1  0
 36 80  1  0
 39 81  1  0
 39 82  1  0
 39 83  1  0
 40 84  1  0
 42 85  1  0
 42 86  1  0
 43 87  1  0
 43 88  1  0
 45 89  1  0
 45 90  1  0
 45 91  1  0
 46 92  1  0
 46 93  1  0
 46 94  1  0
 47 95  1  0
 48 96  1  0
M  CHG  2  13   1  44   1
M  END
> <ID>
HT1377

> <Class>
0.0

> <Clusters>
279

> <Fold>
3

$$$$