
     RDKit          3D

 32 32  0  0  0  0  0  0  0  0999 V2000
   -0.8416    2.8507   -2.7437 C   0  0  0  0  0  0  0  0  0  0  0  0
   -1.4820    1.9491   -1.8465 O   0  0  0  0  0  0  0  0  0  0  0  0
   -0.8245    0.9398   -1.1239 C   0  0  0  0  0  0  0  0  0  0  0  0
    0.5613    0.7332   -1.2339 C   0  0  0  0  0  0  0  0  0  0  0  0
    1.1897   -0.2822   -0.5066 C   0  0  0  0  0  0  0  0  0  0  0  0
    2.6819   -0.4750   -0.6115 C   0  0  0  0  0  0  0  0  0  0  0  0
    3.4462    0.5151    0.2740 C   0  0  0  0  0  0  0  0  0  0  0  0
    3.2242    0.2273    1.6888 N   0  0  0  0  0  0  0  0  0  0  0  0
    0.4302   -1.0875    0.3497 C   0  0  0  0  0  0  0  0  0  0  0  0
   -0.9598   -0.8993    0.4781 C   0  0  0  0  0  0  0  0  0  0  0  0
   -1.7188   -1.7101    1.3370 O   0  0  0  0  0  0  0  0  0  0  0  0
   -1.1970   -2.7633    2.1413 C   0  0  0  0  0  0  0  0  0  0  0  0
   -1.5916    0.1268   -0.2723 C   0  0  0  0  0  0  0  0  0  0  0  0
   -2.9731    0.3959   -0.2193 O   0  0  0  0  0  0  0  0  0  0  0  0
   -3.9431   -0.2919    0.5630 C   0  0  0  0  0  0  0  0  0  0  0  0
   -0.3633    2.2887   -3.5734 H   0  0  0  0  0  0  0  0  0  0  0  0
   -1.6009    3.5370   -3.1712 H   0  0  0  0  0  0  0  0  0  0  0  0
   -0.0825    3.4538   -2.2020 H   0  0  0  0  0  0  0  0  0  0  0  0
    1.1603    1.3589   -1.8822 H   0  0  0  0  0  0  0  0  0  0  0  0
    2.9964   -0.3289   -1.6680 H   0  0  0  0  0  0  0  0  0  0  0  0
    2.9635   -1.5148   -0.3346 H   0  0  0  0  0  0  0  0  0  0  0  0
    4.5313    0.4178    0.0507 H   0  0  0  0  0  0  0  0  0  0  0  0
    3.1424    1.5605    0.0405 H   0  0  0  0  0  0  0  0  0  0  0  0
    2.2691    0.5659    1.9476 H   0  0  0  0  0  0  0  0  0  0  0  0
    3.8976    0.8068    2.2403 H   0  0  0  0  0  0  0  0  0  0  0  0
    0.9336   -1.8581    0.9176 H   0  0  0  0  0  0  0  0  0  0  0  0
   -2.0267   -3.2257    2.7139 H   0  0  0  0  0  0  0  0  0  0  0  0
   -0.7332   -3.5413    1.4987 H   0  0  0  0  0  0  0  0  0  0  0  0
   -0.4510   -2.3622    2.8595 H   0  0  0  0  0  0  0  0  0  0  0  0
   -3.7122   -0.1848    1.6436 H   0  0  0  0  0  0  0  0  0  0  0  0
   -3.9873   -1.3614    0.2682 H   0  0  0  0  0  0  0  0  0  0  0  0
   -4.9389    0.1595    0.3763 H   0  0  0  0  0  0  0  0  0  0  0  0
  1  2  1  0
  2  3  1  0
  3  4  2  0
  4  5  1  0
  5  6  1  0
  6  7  1  0
  7  8  1  0
  5  9  2  0
  9 10  1  0
 10 11  1  0
 11 12  1  0
 10 13  2  0
 13  3  1  0
 13 14  1  0
 14 15  1  0
  1 16  1  0
  1 17  1  0
  1 18  1  0
  4 19  1  0
  6 20  1  0
  6 21  1  0
  7 22  1  0
  7 23  1  0
  8 24  1  0
  8 25  1  0
  9 26  1  0
 12 27  1  0
 12 28  1  0
 12 29  1  0
 15 30  1  0
 15 31  1  0
 15 32  1  0
M  END
> <ID>
HT1318

> <Class>
0.0

> <Clusters>
160

> <Fold>
3

$$$$