1[C@H](C)[C@H](O)[C@H](O[C@@H]2O[C@H](C)[C@@H](O)[C@H](O)C2)C[C@@H]1Oc1cc2c(c(O)c1C)c(O)c1c(C[C@@H]([C@H](OC)C(=O)[C@@H](O)[C@H](O)C)[C@H](O[C@@H]3O[C@H](C)[C@@H](O)[C@H](O[C@@H]4O[C@H](C)[C@@H](O)[C@H](O[C@@H]5O[C@H](C)[C@@H](O)[C@@](O)(C5)C)C4)C3)C1=O)c2
  MOE2013           2D

 76 83  0  0  1  0  0  0  0  0999 V2000
    0.0000    0.0000    0.0000 O   0  0  0  0  0  0  0  0  0  0  0  0
   -0.7530   -1.2970    0.0000 C   0  0  2  0  0  0  0  0  0  0  0  0
   -0.0070   -2.5980    0.0000 C   0  0  0  0  0  0  0  0  0  0  0  0
   -2.2530   -1.2930    0.0000 C   0  0  2  0  0  0  0  0  0  0  0  0
   -3.0070   -2.5900    0.0000 O   0  0  0  0  0  0  0  0  0  0  0  0
   -3.0000    0.0080    0.0000 C   0  0  2  0  0  0  0  0  0  0  0  0
   -4.5000    0.0120    0.0000 O   0  0  0  0  0  0  0  0  0  0  0  0
   -5.2460    1.3130    0.0000 C   0  0  2  0  0  0  0  0  0  0  0  0
   -6.7460    1.3170    0.0000 O   0  0  0  0  0  0  0  0  0  0  0  0
   -7.4930    2.6180    0.0000 C   0  0  2  0  0  0  0  0  0  0  0  0
   -8.9930    2.6220    0.0000 C   0  0  0  0  0  0  0  0  0  0  0  0
   -6.7390    3.9150    0.0000 C   0  0  1  0  0  0  0  0  0  0  0  0
   -7.4860    5.2160    0.0000 O   0  0  0  0  0  0  0  0  0  0  0  0
   -5.2390    3.9110    0.0000 C   0  0  2  0  0  0  0  0  0  0  0  0
   -4.4860    5.2080    0.0000 O   0  0  0  0  0  0  0  0  0  0  0  0
   -4.4930    2.6100    0.0000 C   0  0  0  0  0  0  0  0  0  0  0  0
   -2.2460    1.3050    0.0000 C   0  0  0  0  0  0  0  0  0  0  0  0
   -0.7460    1.3010    0.0000 C   0  0  2  0  0  0  0  0  0  0  0  0
    0.0070    2.5980    0.0000 O   0  0  0  0  0  0  0  0  0  0  0  0
    1.5070    2.5940    0.0000 C   0  0  0  0  0  0  0  0  0  0  0  0
    2.2600    3.8910    0.0000 C   0  0  0  0  0  0  0  0  0  0  0  0
    3.7600    3.8870    0.0000 C   0  0  0  0  0  0  0  0  0  0  0  0
    4.5070    2.5860    0.0000 C   0  0  0  0  0  0  0  0  0  0  0  0
    3.7530    1.2890    0.0000 C   0  0  0  0  0  0  0  0  0  0  0  0
    4.5000   -0.0120    0.0000 O   0  0  0  0  0  0  0  0  0  0  0  0
    2.2530    1.2930    0.0000 C   0  0  0  0  0  0  0  0  0  0  0  0
    1.5000   -0.0040    0.0000 C   0  0  0  0  0  0  0  0  0  0  0  0
    6.0070    2.5820    0.0000 C   0  0  0  0  0  0  0  0  0  0  0  0
    6.7530    1.2810    0.0000 O   0  0  0  0  0  0  0  0  0  0  0  0
    6.7600    3.8790    0.0000 C   0  0  0  0  0  0  0  0  0  0  0  0
    6.0140    5.1800    0.0000 C   0  0  0  0  0  0  0  0  0  0  0  0
    6.7670    6.4770    0.0000 C   0  0  0  0  0  0  0  0  0  0  0  0
    8.2670    6.4730    0.0000 C   0  0  1  0  0  0  0  0  0  0  0  0
    9.0210    7.7700    0.0000 C   0  0  2  0  0  0  0  0  0  0  0  0
   10.5210    7.7660    0.0000 O   0  0  0  0  0  0  0  0  0  0  0  0
   11.2740    9.0630    0.0000 C   0  0  0  0  0  0  0  0  0  0  0  0
    8.2740    9.0710    0.0000 C   0  0  0  0  0  0  0  0  0  0  0  0
    6.7740    9.0750    0.0000 O   0  0  0  0  0  0  0  0  0  0  0  0
    9.0280   10.3680    0.0000 C   0  0  1  0  0  0  0  0  0  0  0  0
   10.5280   10.3640    0.0000 O   0  0  0  0  0  0  0  0  0  0  0  0
    8.2810   11.6690    0.0000 C   0  0  2  0  0  0  0  0  0  0  0  0
    9.0350   12.9660    0.0000 O   0  0  0  0  0  0  0  0  0  0  0  0
    6.7810   11.6730    0.0000 C   0  0  0  0  0  0  0  0  0  0  0  0
    9.0140    5.1720    0.0000 C   0  0  2  0  0  0  0  0  0  0  0  0
   10.5140    5.1680    0.0000 O   0  0  0  0  0  0  0  0  0  0  0  0
   11.2600    3.8670    0.0000 C   0  0  2  0  0  0  0  0  0  0  0  0
   10.5070    2.5700    0.0000 O   0  0  0  0  0  0  0  0  0  0  0  0
   11.2530    1.2690    0.0000 C   0  0  2  0  0  0  0  0  0  0  0  0
   10.5000   -0.0280    0.0000 C   0  0  0  0  0  0  0  0  0  0  0  0
   12.7530    1.2650    0.0000 C   0  0  1  0  0  0  0  0  0  0  0  0
   13.5000   -0.0360    0.0000 O   0  0  0  0  0  0  0  0  0  0  0  0
   13.5070    2.5620    0.0000 C   0  0  2  0  0  0  0  0  0  0  0  0
   15.0070    2.5580    0.0000 O   0  0  0  0  0  0  0  0  0  0  0  0
   15.7600    3.8550    0.0000 C   0  0  2  0  0  0  0  0  0  0  0  0
   15.0140    5.1560    0.0000 O   0  0  0  0  0  0  0  0  0  0  0  0
   15.7670    6.4530    0.0000 C   0  0  2  0  0  0  0  0  0  0  0  0
   15.0210    7.7540    0.0000 C   0  0  0  0  0  0  0  0  0  0  0  0
   17.2670    6.4490    0.0000 C   0  0  1  0  0  0  0  0  0  0  0  0
   18.0210    7.7460    0.0000 O   0  0  0  0  0  0  0  0  0  0  0  0
   18.0140    5.1480    0.0000 C   0  0  2  0  0  0  0  0  0  0  0  0
   19.5140    5.1440    0.0000 O   0  0  0  0  0  0  0  0  0  0  0  0
   20.2600    3.8430    0.0000 C   0  0  2  0  0  0  0  0  0  0  0  0
   19.5070    2.5460    0.0000 O   0  0  0  0  0  0  0  0  0  0  0  0
   20.2530    1.2440    0.0000 C   0  0  2  0  0  0  0  0  0  0  0  0
   19.5000   -0.0530    0.0000 C   0  0  0  0  0  0  0  0  0  0  0  0
   21.7530    1.2400    0.0000 C   0  0  1  0  0  0  0  0  0  0  0  0
   22.5000   -0.0610    0.0000 O   0  0  0  0  0  0  0  0  0  0  0  0
   22.5070    2.5370    0.0000 C   0  0  1  0  0  0  0  0  0  0  0  0
   23.8080    3.2840    0.0000 O   0  0  0  0  0  0  0  0  0  0  0  0
   21.7600    3.8380    0.0000 C   0  0  0  0  0  0  0  0  0  0  0  0
   23.8040    1.7840    0.0000 C   0  0  0  0  0  0  0  0  0  0  0  0
   17.2600    3.8510    0.0000 C   0  0  0  0  0  0  0  0  0  0  0  0
   12.7600    3.8630    0.0000 C   0  0  0  0  0  0  0  0  0  0  0  0
    8.2600    3.8750    0.0000 C   0  0  0  0  0  0  0  0  0  0  0  0
    9.0070    2.5740    0.0000 O   0  0  0  0  0  0  0  0  0  0  0  0
    4.5140    5.1840    0.0000 C   0  0  0  0  0  0  0  0  0  0  0  0
  1  2  1  0  0  0  0
  1 18  1  0  0  0  0
  2  3  1  6  0  0  0
  2  4  1  0  0  0  0
  4  5  1  6  0  0  0
  4  6  1  0  0  0  0
  6  7  1  6  0  0  0
  6 17  1  0  0  0  0
  8  7  1  6  0  0  0
  8  9  1  0  0  0  0
  8 16  1  0  0  0  0
  9 10  1  0  0  0  0
 10 11  1  6  0  0  0
 10 12  1  0  0  0  0
 12 13  1  1  0  0  0
 12 14  1  0  0  0  0
 14 15  1  6  0  0  0
 14 16  1  0  0  0  0
 17 18  1  0  0  0  0
 18 19  1  6  0  0  0
 19 20  1  0  0  0  0
 20 21  2  0  0  0  0
 20 26  1  0  0  0  0
 21 22  1  0  0  0  0
 22 23  2  0  0  0  0
 22 76  1  0  0  0  0
 23 24  1  0  0  0  0
 23 28  1  0  0  0  0
 24 25  1  0  0  0  0
 24 26  2  0  0  0  0
 26 27  1  0  0  0  0
 28 29  1  0  0  0  0
 28 30  2  0  0  0  0
 30 31  1  0  0  0  0
 30 74  1  0  0  0  0
 31 32  1  0  0  0  0
 31 76  2  0  0  0  0
 33 32  1  1  0  0  0
 33 34  1  0  0  0  0
 33 44  1  0  0  0  0
 34 35  1  1  0  0  0
 34 37  1  0  0  0  0
 35 36  1  0  0  0  0
 37 38  2  0  0  0  0
 37 39  1  0  0  0  0
 39 40  1  6  0  0  0
 39 41  1  0  0  0  0
 41 42  1  1  0  0  0
 41 43  1  0  0  0  0
 44 45  1  6  0  0  0
 44 74  1  0  0  0  0
 46 45  1  1  0  0  0
 46 47  1  0  0  0  0
 46 73  1  0  0  0  0
 47 48  1  0  0  0  0
 48 49  1  1  0  0  0
 48 50  1  0  0  0  0
 50 51  1  6  0  0  0
 50 52  1  0  0  0  0
 52 53  1  1  0  0  0
 52 73  1  0  0  0  0
 54 53  1  6  0  0  0
 54 55  1  0  0  0  0
 54 72  1  0  0  0  0
 55 56  1  0  0  0  0
 56 57  1  6  0  0  0
 56 58  1  0  0  0  0
 58 59  1  1  0  0  0
 58 60  1  0  0  0  0
 60 61  1  6  0  0  0
 60 72  1  0  0  0  0
 62 61  1  1  0  0  0
 62 63  1  0  0  0  0
 62 70  1  0  0  0  0
 63 64  1  0  0  0  0
 64 65  1  1  0  0  0
 64 66  1  0  0  0  0
 66 67  1  6  0  0  0
 66 68  1  0  0  0  0
 68 69  1  6  0  0  0
 68 70  1  0  0  0  0
 68 71  1  1  0  0  0
 74 75  2  0  0  0  0
M  END
>  <Index>
1

>  <ID>
HT0009

>  <class>
0

>  <apol>
161.44427

>  <ast_fraglike>
0

>  <ast_fraglike_ext>
0

>  <ast_violation>
3

>  <ast_violation_ext>
5

>  <a_acc>
24

>  <a_acid>
0

>  <a_aro>
10

>  <a_base>
0

>  <a_count>
152

>  <a_don>
11

>  <a_donacc>
35

>  <a_heavy>
76

>  <a_hyd>
45

>  <a_IC>
220.38052

>  <a_ICM>
1.4498719

>  <a_nB>
0

>  <a_nBr>
0

>  <a_nC>
52

>  <a_nCl>
0

>  <a_nF>
0

>  <a_nH>
76

>  <a_nI>
0

>  <a_nN>
0

>  <a_nO>
24

>  <a_nP>
0

>  <a_nS>
0

>  <balabanJ>
0.96770859

>  <BCUT_PEOE_0>
-2.7886987

>  <BCUT_PEOE_1>
-0.51692563

>  <BCUT_PEOE_2>
0.57564557

>  <BCUT_PEOE_3>
2.8198106

>  <BCUT_SLOGP_0>
-2.895062

>  <BCUT_SLOGP_1>
-0.52548188

>  <BCUT_SLOGP_2>
0.47498074

>  <BCUT_SLOGP_3>
2.7237496

>  <BCUT_SMR_0>
-2.5743017

>  <BCUT_SMR_1>
-0.38706219

>  <BCUT_SMR_2>
0.66557842

>  <BCUT_SMR_3>
3.0223861

>  <bpol>
106.07573

>  <b_1rotN>
15

>  <b_1rotR>
0.18072289

>  <b_ar>
11

>  <b_count>
159

>  <b_double>
2

>  <b_heavy>
83

>  <b_max1len>
8

>  <b_rotN>
15

>  <b_rotR>
0.18072289

>  <b_single>
146

>  <b_triple>
0

>  <chi0>
55.564938

>  <chi0v>
43.980324

>  <chi0v_C>
33.753746

>  <chi0_C>
34.786762

>  <chi1>
35.682594

>  <chi1v>
26.03417

>  <chi1v_C>
17.563093

>  <chi1_C>
18.974072

>  <chiral>
25

>  <chiral_u>
0

>  <density>
0.7997238

>  <diameter>
31

>  <FCharge>
0

>  <GCUT_PEOE_0>
-0.80034196

>  <GCUT_PEOE_1>
-0.41653344

>  <GCUT_PEOE_2>
0.076583572

>  <GCUT_PEOE_3>
3.36904

>  <GCUT_SLOGP_0>
-0.95404041

>  <GCUT_SLOGP_1>
-0.38795045

>  <GCUT_SLOGP_2>
-0.0078513594

>  <GCUT_SLOGP_3>
3.3623745

>  <GCUT_SMR_0>
-0.52912575

>  <GCUT_SMR_1>
-0.2264353

>  <GCUT_SMR_2>
0.15503517

>  <GCUT_SMR_3>
3.5876567

>  <Kier1>
62.05545

>  <Kier2>
25.463451

>  <Kier3>
13.356544

>  <KierA1>
57.477356

>  <KierA2>
23.560282

>  <KierA3>
12.349459

>  <KierFlex>
17.818193

>  <lip_acc>
24

>  <lip_don>
11

>  <lip_druglike>
0

>  <lip_violation>
3

>  <logP(o/w)>
1.431

>  <logS>
-6.6968799

>  <mr>
25.873379

>  <mutagenic>
0

>  <nmol>
1

>  <opr_brigid>
46

>  <opr_leadlike>
0

>  <opr_nring>
8

>  <opr_nrot>
26

>  <opr_violation>
5

>  <PC+>
0

>  <PC->
0

>  <PEOE_PC+>
8.9865055

>  <PEOE_PC->
-8.9865055

>  <PEOE_RPC+>
0.024187997

>  <PEOE_RPC->
0.043294907

>  <PEOE_VSA+0>
230.74059

>  <PEOE_VSA+1>
196.06419

>  <PEOE_VSA+2>
39.239429

>  <PEOE_VSA+3>
72.691582

>  <PEOE_VSA+4>
113.5659

>  <PEOE_VSA+5>
0

>  <PEOE_VSA+6>
0

>  <PEOE_VSA-0>
187.60962

>  <PEOE_VSA-1>
0

>  <PEOE_VSA-2>
0

>  <PEOE_VSA-3>
0

>  <PEOE_VSA-4>
0

>  <PEOE_VSA-5>
27.133842

>  <PEOE_VSA-6>
112.98426

>  <PEOE_VSA_FHYD>
0.74114656

>  <PEOE_VSA_FNEG>
0.33440602

>  <PEOE_VSA_FPNEG>
0.14297336

>  <PEOE_VSA_FPOL>
0.25885347

>  <PEOE_VSA_FPOS>
0.66559398

>  <PEOE_VSA_FPPOS>
0.11588009

>  <PEOE_VSA_HYD>
726.3454

>  <PEOE_VSA_NEG>
327.72772

>  <PEOE_VSA_PNEG>
140.1181

>  <PEOE_VSA_POL>
253.68401

>  <PEOE_VSA_POS>
652.3017

>  <PEOE_VSA_PPOS>
113.5659

>  <petitjean>
0.48387095

>  <petitjeanSC>
0.9375

>  <Q_PC+>
0

>  <Q_PC->
0

>  <Q_RPC+>
0

>  <Q_RPC->
0

>  <Q_VSA_FHYD>
1

>  <Q_VSA_FNEG>
0

>  <Q_VSA_FPNEG>
0

>  <Q_VSA_FPOL>
0

>  <Q_VSA_FPOS>
1

>  <Q_VSA_FPPOS>
0

>  <Q_VSA_HYD>
980.02942

>  <Q_VSA_NEG>
0

>  <Q_VSA_PNEG>
0

>  <Q_VSA_POL>
0

>  <Q_VSA_POS>
980.02942

>  <Q_VSA_PPOS>
0

>  <radius>
16

>  <reactive>
1

>  <rings>
8

>  <RPC+>
0

>  <RPC->
0

>  <rsynth>
0.65789473

>  <SlogP>
-0.24931

>  <SlogP_VSA0>
290.23737

>  <SlogP_VSA1>
11.375222

>  <SlogP_VSA2>
292.92929

>  <SlogP_VSA3>
0

>  <SlogP_VSA4>
37.829739

>  <SlogP_VSA5>
54.252274

>  <SlogP_VSA6>
0

>  <SlogP_VSA7>
40.432297

>  <SlogP_VSA8>
94.342026

>  <SlogP_VSA9>
282.33841

>  <SMR>
25.857531

>  <SMR_VSA0>
157.72331

>  <SMR_VSA1>
290.23737

>  <SMR_VSA2>
4.4107962

>  <SMR_VSA3>
184.35521

>  <SMR_VSA4>
5.1459289

>  <SMR_VSA5>
148.4968

>  <SMR_VSA6>
11.375222

>  <SMR_VSA7>
301.99197

>  <TPSA>
358.20001

>  <VAdjEq>
0.18803115

>  <VAdjMa>
7.3750396

>  <VDistEq>
4.6534948

>  <VDistMa>
12.212621

>  <vdw_area>
980.02942

>  <vdw_vol>
1356.9135

>  <vsa_acc>
54.675159

>  <vsa_acid>
0

>  <vsa_base>
0

>  <vsa_don>
0

>  <vsa_hyd>
588.27411

>  <vsa_other>
90.459534

>  <vsa_pol>
203.91129

>  <Weight>
1085.156

>  <weinerPath>
32285

>  <weinerPol>
149

>  <zagreb>
420

$$$$