O(C(=O)C)C1CC2N(CC1C(=O)N(CC)CC)CCc1cc(OC)c(OC)cc12
  MOE2013           2D

 29 31  0  0  1  0  0  0  0  0999 V2000
    0.0000    0.0000    0.0000 O   0  0  0  0  0  0  0  0  0  0  0  0
   -0.7510    1.2980    0.0000 C   0  0  0  0  0  0  0  0  0  0  0  0
   -0.0020    2.5980    0.0000 O   0  0  0  0  0  0  0  0  0  0  0  0
   -2.2510    1.2970    0.0000 C   0  0  0  0  0  0  0  0  0  0  0  0
   -0.7490   -1.3000    0.0000 C   0  0  3  0  0  0  0  0  0  0  0  0
   -2.2490   -1.3010    0.0000 C   0  0  0  0  0  0  0  0  0  0  0  0
   -2.9980   -2.6000    0.0000 C   0  0  3  0  0  0  0  0  0  0  0  0
   -2.2470   -3.8990    0.0000 N   0  0  3  0  0  0  0  0  0  0  0  0
   -0.7470   -3.8980    0.0000 C   0  0  0  0  0  0  0  0  0  0  0  0
    0.0020   -2.5980    0.0000 C   0  0  3  0  0  0  0  0  0  0  0  0
    1.5020   -2.5970    0.0000 C   0  0  0  0  0  0  0  0  0  0  0  0
    2.2510   -1.2970    0.0000 O   0  0  0  0  0  0  0  0  0  0  0  0
    2.2530   -3.8950    0.0000 N   0  0  0  0  0  0  0  0  0  0  0  0
    3.7530   -3.8940    0.0000 C   0  0  0  0  0  0  0  0  0  0  0  0
    4.5040   -5.1930    0.0000 C   0  0  0  0  0  0  0  0  0  0  0  0
    1.5040   -5.1950    0.0000 C   0  0  0  0  0  0  0  0  0  0  0  0
    2.2550   -6.4940    0.0000 C   0  0  0  0  0  0  0  0  0  0  0  0
   -2.9960   -5.1980    0.0000 C   0  0  0  0  0  0  0  0  0  0  0  0
   -4.4960   -5.2000    0.0000 C   0  0  0  0  0  0  0  0  0  0  0  0
   -5.2470   -3.9010    0.0000 C   0  0  0  0  0  0  0  0  0  0  0  0
   -6.7470   -3.9020    0.0000 C   0  0  0  0  0  0  0  0  0  0  0  0
   -7.4980   -2.6040    0.0000 C   0  0  0  0  0  0  0  0  0  0  0  0
   -8.9980   -2.6050    0.0000 O   0  0  0  0  0  0  0  0  0  0  0  0
   -9.7470   -3.9040    0.0000 C   0  0  0  0  0  0  0  0  0  0  0  0
   -6.7490   -1.3040    0.0000 C   0  0  0  0  0  0  0  0  0  0  0  0
   -7.5000   -0.0060    0.0000 O   0  0  0  0  0  0  0  0  0  0  0  0
   -6.7510    1.2940    0.0000 C   0  0  0  0  0  0  0  0  0  0  0  0
   -5.2490   -1.3030    0.0000 C   0  0  0  0  0  0  0  0  0  0  0  0
   -4.4980   -2.6010    0.0000 C   0  0  0  0  0  0  0  0  0  0  0  0
  1  2  1  0  0  0  0
  1  5  1  0  0  0  0
  2  3  2  0  0  0  0
  2  4  1  0  0  0  0
  5  6  1  0  0  0  0
  5 10  1  0  0  0  0
  6  7  1  0  0  0  0
  7  8  1  0  0  0  0
  7 29  1  0  0  0  0
  8  9  1  0  0  0  0
  8 18  1  0  0  0  0
  9 10  1  0  0  0  0
 10 11  1  0  0  0  0
 11 12  2  0  0  0  0
 11 13  1  0  0  0  0
 13 14  1  0  0  0  0
 13 16  1  0  0  0  0
 14 15  1  0  0  0  0
 16 17  1  0  0  0  0
 18 19  1  0  0  0  0
 19 20  1  0  0  0  0
 20 21  1  0  0  0  0
 20 29  2  0  0  0  0
 21 22  2  0  0  0  0
 22 23  1  0  0  0  0
 22 25  1  0  0  0  0
 23 24  1  0  0  0  0
 25 26  1  0  0  0  0
 25 28  2  0  0  0  0
 26 27  1  0  0  0  0
 28 29  1  0  0  0  0
M  END
>  <Index>
127

>  <ID>
HT0254

>  <class>
0

>  <apol>
66.26738

>  <ast_fraglike>
0

>  <ast_fraglike_ext>
0

>  <ast_violation>
2

>  <ast_violation_ext>
3

>  <a_acc>
5

>  <a_acid>
0

>  <a_aro>
6

>  <a_base>
0

>  <a_count>
61

>  <a_don>
0

>  <a_donacc>
5

>  <a_heavy>
29

>  <a_hyd>
20

>  <a_IC>
90.057838

>  <a_ICM>
1.4763581

>  <a_nB>
0

>  <a_nBr>
0

>  <a_nC>
22

>  <a_nCl>
0

>  <a_nF>
0

>  <a_nH>
32

>  <a_nI>
0

>  <a_nN>
2

>  <a_nO>
5

>  <a_nP>
0

>  <a_nS>
0

>  <balabanJ>
1.7796496

>  <BCUT_PEOE_0>
-2.8089371

>  <BCUT_PEOE_1>
-0.3208645

>  <BCUT_PEOE_2>
0.34073287

>  <BCUT_PEOE_3>
2.7936208

>  <BCUT_SLOGP_0>
-2.8618038

>  <BCUT_SLOGP_1>
-0.22389372

>  <BCUT_SLOGP_2>
0.44538054

>  <BCUT_SLOGP_3>
2.7819915

>  <BCUT_SMR_0>
-2.5517688

>  <BCUT_SMR_1>
-0.12681465

>  <BCUT_SMR_2>
0.52522367

>  <BCUT_SMR_3>
3.0401676

>  <bpol>
46.606625

>  <b_1rotN>
7

>  <b_1rotR>
0.22580644

>  <b_ar>
6

>  <b_count>
63

>  <b_double>
2

>  <b_heavy>
31

>  <b_max1len>
6

>  <b_rotN>
8

>  <b_rotR>
0.25806451

>  <b_single>
55

>  <b_triple>
0

>  <chi0>
21.129028

>  <chi0v>
18.065062

>  <chi0v_C>
15.129392

>  <chi0_C>
15.853006

>  <chi1>
13.925784

>  <chi1v>
10.377432

>  <chi1v_C>
6.5578961

>  <chi1_C>
7.4242167

>  <chiral>
3

>  <chiral_u>
3

>  <density>
0.7196452

>  <diameter>
13

>  <FCharge>
0

>  <GCUT_PEOE_0>
-0.85702372

>  <GCUT_PEOE_1>
-0.36424688

>  <GCUT_PEOE_2>
-0.1071291

>  <GCUT_PEOE_3>
3.0195165

>  <GCUT_SLOGP_0>
-0.96502131

>  <GCUT_SLOGP_1>
-0.33074251

>  <GCUT_SLOGP_2>
0.026699603

>  <GCUT_SLOGP_3>
3.0457828

>  <GCUT_SMR_0>
-0.5243116

>  <GCUT_SMR_1>
-0.13943878

>  <GCUT_SMR_2>
0.077561311

>  <GCUT_SMR_3>
3.2602272

>  <Kier1>
23.658689

>  <Kier2>
10.543388

>  <Kier3>
5.0868044

>  <KierA1>
19.983442

>  <KierA2>
8.8490343

>  <KierA3>
4.249362

>  <KierFlex>
6.0977302

>  <lip_acc>
7

>  <lip_don>
0

>  <lip_druglike>
1

>  <lip_violation>
0

>  <logP(o/w)>
1.77474

>  <logS>
-2.78458

>  <mr>
11.101895

>  <mutagenic>
0

>  <nmol>
1

>  <opr_brigid>
16

>  <opr_leadlike>
1

>  <opr_nring>
3

>  <opr_nrot>
6

>  <opr_violation>
0

>  <PC+>
0

>  <PC->
0

>  <PEOE_PC+>
2.4041512

>  <PEOE_PC->
-2.4041512

>  <PEOE_RPC+>
0.10786197

>  <PEOE_RPC->
0.14364015

>  <PEOE_VSA+0>
218.49675

>  <PEOE_VSA+1>
47.558788

>  <PEOE_VSA+2>
16.917038

>  <PEOE_VSA+3>
0

>  <PEOE_VSA+4>
12.949531

>  <PEOE_VSA+5>
14.708499

>  <PEOE_VSA+6>
0

>  <PEOE_VSA-0>
83.824867

>  <PEOE_VSA-1>
0

>  <PEOE_VSA-2>
0

>  <PEOE_VSA-3>
0

>  <PEOE_VSA-4>
0

>  <PEOE_VSA-5>
27.133842

>  <PEOE_VSA-6>
7.5112681

>  <PEOE_VSA_FHYD>
0.85480529

>  <PEOE_VSA_FNEG>
0.27608907

>  <PEOE_VSA_FPNEG>
0.080738902

>  <PEOE_VSA_FPOL>
0.14519472

>  <PEOE_VSA_FPOS>
0.72391093

>  <PEOE_VSA_FPPOS>
0.064455822

>  <PEOE_VSA_HYD>
366.79745

>  <PEOE_VSA_NEG>
118.46998

>  <PEOE_VSA_PNEG>
34.645111

>  <PEOE_VSA_POL>
62.303139

>  <PEOE_VSA_POS>
310.63062

>  <PEOE_VSA_PPOS>
27.65803

>  <petitjean>
0.46153846

>  <petitjeanSC>
0.85714287

>  <Q_PC+>
0

>  <Q_PC->
0

>  <Q_RPC+>
0

>  <Q_RPC->
0

>  <Q_VSA_FHYD>
1

>  <Q_VSA_FNEG>
0

>  <Q_VSA_FPNEG>
0

>  <Q_VSA_FPOL>
0

>  <Q_VSA_FPOS>
1

>  <Q_VSA_FPPOS>
0

>  <Q_VSA_HYD>
429.10059

>  <Q_VSA_NEG>
0

>  <Q_VSA_PNEG>
0

>  <Q_VSA_POL>
0

>  <Q_VSA_POS>
429.10059

>  <Q_VSA_PPOS>
0

>  <radius>
7

>  <reactive>
0

>  <rings>
3

>  <RPC+>
0

>  <RPC->
0

>  <rsynth>
1

>  <SlogP>
2.51847

>  <SlogP_VSA0>
21.999775

>  <SlogP_VSA1>
19.252876

>  <SlogP_VSA2>
65.19297

>  <SlogP_VSA3>
73.758316

>  <SlogP_VSA4>
10.781946

>  <SlogP_VSA5>
89.636139

>  <SlogP_VSA6>
0

>  <SlogP_VSA7>
35.286369

>  <SlogP_VSA8>
22.850374

>  <SlogP_VSA9>
110.4649

>  <SMR>
10.9264

>  <SMR_VSA0>
58.724319

>  <SMR_VSA1>
28.248404

>  <SMR_VSA2>
4.4107962

>  <SMR_VSA3>
27.308624

>  <SMR_VSA4>
0

>  <SMR_VSA5>
73.023178

>  <SMR_VSA6>
86.762558

>  <SMR_VSA7>
170.74577

>  <TPSA>
68.309998

>  <VAdjEq>
0.3796615

>  <VAdjMa>
5.9541965

>  <VDistEq>
3.4377053

>  <VDistMa>
9.4504347

>  <vdw_area>
429.10059

>  <vdw_vol>
562.09222

>  <vsa_acc>
32.141354

>  <vsa_acid>
0

>  <vsa_base>
0

>  <vsa_don>
0

>  <vsa_hyd>
342.67493

>  <vsa_other>
30.161787

>  <vsa_pol>
32.141354

>  <Weight>
404.50699

>  <weinerPath>
2148

>  <weinerPol>
52

>  <zagreb>
150

$$$$