ClC(Cl)(Cl)C(O)=O
  MOE2013           2D

  7  6  0  0  0  0  0  0  0  0999 V2000
    0.0000    0.0000    0.0000 Cl  0  0  0  0  0  0  0  0  0  0  0  0
    0.0000   -1.5000    0.0000 C   0  0  0  0  0  0  0  0  0  0  0  0
    0.0000   -3.0000    0.0000 Cl  0  0  0  0  0  0  0  0  0  0  0  0
    1.5000   -1.5000    0.0000 Cl  0  0  0  0  0  0  0  0  0  0  0  0
   -1.5000   -1.5000    0.0000 C   0  0  0  0  0  0  0  0  0  0  0  0
   -2.2500   -0.2010    0.0000 O   0  0  0  0  0  0  0  0  0  0  0  0
   -2.2500   -2.7990    0.0000 O   0  0  0  0  0  0  0  0  0  0  0  0
  1  2  1  0  0  0  0
  2  3  1  0  0  0  0
  2  4  1  0  0  0  0
  2  5  1  0  0  0  0
  5  6  1  0  0  0  0
  5  7  2  0  0  0  0
M  END
>  <Index>
1106

>  <ID>
HT2113

>  <class>
0

>  <apol>
12.330793

>  <ast_fraglike>
1

>  <ast_fraglike_ext>
1

>  <ast_violation>
0

>  <ast_violation_ext>
0

>  <a_acc>
2

>  <a_acid>
0

>  <a_aro>
0

>  <a_base>
0

>  <a_count>
8

>  <a_don>
2

>  <a_donacc>
4

>  <a_heavy>
7

>  <a_hyd>
3

>  <a_IC>
15.245112

>  <a_ICM>
1.9056391

>  <a_nB>
0

>  <a_nBr>
0

>  <a_nC>
2

>  <a_nCl>
3

>  <a_nF>
0

>  <a_nH>
1

>  <a_nI>
0

>  <a_nN>
0

>  <a_nO>
2

>  <a_nP>
0

>  <a_nS>
0

>  <balabanJ>
3.6027832

>  <BCUT_PEOE_0>
-2.0363274

>  <BCUT_PEOE_1>
-0.37483409

>  <BCUT_PEOE_2>
0.29345325

>  <BCUT_PEOE_3>
2.2969475

>  <BCUT_SLOGP_0>
-2.2096863

>  <BCUT_SLOGP_1>
-0.16756091

>  <BCUT_SLOGP_2>
0.68949997

>  <BCUT_SLOGP_3>
2.2555807

>  <BCUT_SMR_0>
-1.7832273

>  <BCUT_SMR_1>
0.00077407807

>  <BCUT_SMR_2>
0.62258035

>  <BCUT_SMR_3>
2.5432384

>  <bpol>
3.3112071

>  <b_1rotN>
0

>  <b_1rotR>
0

>  <b_ar>
0

>  <b_count>
7

>  <b_double>
1

>  <b_heavy>
6

>  <b_max1len>
2

>  <b_rotN>
1

>  <b_rotR>
0.16666667

>  <b_single>
6

>  <b_triple>
0

>  <chi0>
6.0773501

>  <chi0v>
5.2571421

>  <chi0v_C>
1

>  <chi0_C>
1.0773503

>  <chi1>
2.9433756

>  <chi1v>
2.378571

>  <chi1v_C>
0.25

>  <chi1_C>
0.28867513

>  <chiral>
0

>  <chiral_u>
0

>  <density>
1.3579001

>  <diameter>
3

>  <FCharge>
0

>  <GCUT_PEOE_0>
-0.69069391

>  <GCUT_PEOE_1>
-0.39445686

>  <GCUT_PEOE_2>
0.003992328

>  <GCUT_PEOE_3>
1.5519104

>  <GCUT_SLOGP_0>
-0.90600729

>  <GCUT_SLOGP_1>
-0.27172351

>  <GCUT_SLOGP_2>
0.52950001

>  <GCUT_SLOGP_3>
1.6417929

>  <GCUT_SMR_0>
-0.40590388

>  <GCUT_SMR_1>
-0.059905346

>  <GCUT_SMR_2>
0.4253

>  <GCUT_SMR_3>
1.8441495

>  <Kier1>
7

>  <Kier2>
1.8518518

>  <Kier3>
2.6666667

>  <KierA1>
11.194226

>  <KierA2>
3.2124062

>  <KierA3>
5.0417938

>  <KierFlex>
5.1372004

>  <lip_acc>
2

>  <lip_don>
1

>  <lip_druglike>
1

>  <lip_violation>
0

>  <logP(o/w)>
1.30308

>  <logS>
-1.99414

>  <mr>
2.6863747

>  <mutagenic>
1

>  <nmol>
1

>  <opr_brigid>
0

>  <opr_leadlike>
1

>  <opr_nring>
0

>  <opr_nrot>
0

>  <opr_violation>
0

>  <PC+>
0

>  <PC->
0

>  <PEOE_PC+>
0.80714643

>  <PEOE_PC->
-0.80714643

>  <PEOE_RPC+>
0.38564783

>  <PEOE_RPC->
0.40646455

>  <PEOE_VSA+0>
0

>  <PEOE_VSA+1>
0

>  <PEOE_VSA+2>
0

>  <PEOE_VSA+3>
0

>  <PEOE_VSA+4>
10.324173

>  <PEOE_VSA+5>
0

>  <PEOE_VSA+6>
14.708499

>  <PEOE_VSA-0>
0

>  <PEOE_VSA-1>
88.745842

>  <PEOE_VSA-2>
0

>  <PEOE_VSA-3>
0

>  <PEOE_VSA-4>
0

>  <PEOE_VSA-5>
13.566921

>  <PEOE_VSA-6>
7.7675405

>  <PEOE_VSA_FHYD>
0.65682691

>  <PEOE_VSA_FNEG>
0.81472784

>  <PEOE_VSA_FPNEG>
0.1579009

>  <PEOE_VSA_FPOL>
0.34317306

>  <PEOE_VSA_FPOS>
0.18527216

>  <PEOE_VSA_FPPOS>
0.18527216

>  <PEOE_VSA_HYD>
88.745842

>  <PEOE_VSA_NEG>
110.0803

>  <PEOE_VSA_PNEG>
21.334461

>  <PEOE_VSA_POL>
46.367134

>  <PEOE_VSA_POS>
25.032671

>  <PEOE_VSA_PPOS>
25.032671

>  <petitjean>
0.33333334

>  <petitjeanSC>
0.5

>  <Q_PC+>
0

>  <Q_PC->
0

>  <Q_RPC+>
0

>  <Q_RPC->
0

>  <Q_VSA_FHYD>
1

>  <Q_VSA_FNEG>
0

>  <Q_VSA_FPNEG>
0

>  <Q_VSA_FPOL>
0

>  <Q_VSA_FPOS>
1

>  <Q_VSA_FPPOS>
0

>  <Q_VSA_HYD>
135.11298

>  <Q_VSA_NEG>
0

>  <Q_VSA_PNEG>
0

>  <Q_VSA_POL>
0

>  <Q_VSA_POS>
135.11298

>  <Q_VSA_PPOS>
0

>  <radius>
2

>  <reactive>
1

>  <rings>
0

>  <RPC+>
0

>  <RPC->
0

>  <rsynth>
1

>  <SlogP>
1.4412

>  <SlogP_VSA0>
0

>  <SlogP_VSA1>
7.7454643

>  <SlogP_VSA2>
23.862217

>  <SlogP_VSA3>
25.385227

>  <SlogP_VSA4>
0

>  <SlogP_VSA5>
0

>  <SlogP_VSA6>
0

>  <SlogP_VSA7>
0

>  <SlogP_VSA8>
0

>  <SlogP_VSA9>
117.44593

>  <SMR>
2.7925799

>  <SMR_VSA0>
23.862217

>  <SMR_VSA1>
0

>  <SMR_VSA2>
25.385227

>  <SMR_VSA3>
0

>  <SMR_VSA4>
0

>  <SMR_VSA5>
0

>  <SMR_VSA6>
7.7454643

>  <SMR_VSA7>
117.44593

>  <TPSA>
37.299999

>  <VAdjEq>
0.80309099

>  <VAdjMa>
3.5849626

>  <VDistEq>
1.5566567

>  <VDistMa>
5.2844763

>  <vdw_area>
135.11298

>  <vdw_vol>
120.32327

>  <vsa_acc>
0

>  <vsa_acid>
0

>  <vsa_base>
0

>  <vsa_don>
0

>  <vsa_hyd>
88.745842

>  <vsa_other>
14.708499

>  <vsa_pol>
27.133842

>  <Weight>
163.38699

>  <weinerPath>
42

>  <weinerPol>
6

>  <zagreb>
30

$$$$