S(=O)(=O)(Nc1ncc(OC)cn1)c1ccc(N)cc1
  MOE2013           2D

 19 20  0  0  0  0  0  0  0  0999 V2000
    0.0000    0.0000    0.0000 S   0  0  0  0  0  0  0  0  0  0  0  0
    0.7460   -1.3010    0.0000 O   0  0  0  0  0  0  0  0  0  0  0  0
   -0.7460    1.3010    0.0000 O   0  0  0  0  0  0  0  0  0  0  0  0
    1.3010    0.7460    0.0000 N   0  0  0  0  0  0  0  0  0  0  0  0
    2.5980   -0.0080    0.0000 C   0  0  0  0  0  0  0  0  0  0  0  0
    2.5930   -1.5080    0.0000 N   0  0  0  0  0  0  0  0  0  0  0  0
    3.8900   -2.2620    0.0000 C   0  0  0  0  0  0  0  0  0  0  0  0
    5.1910   -1.5170    0.0000 C   0  0  0  0  0  0  0  0  0  0  0  0
    6.4880   -2.2710    0.0000 O   0  0  0  0  0  0  0  0  0  0  0  0
    7.7890   -1.5250    0.0000 C   0  0  0  0  0  0  0  0  0  0  0  0
    5.1960   -0.0170    0.0000 C   0  0  0  0  0  0  0  0  0  0  0  0
    3.8990    0.7380    0.0000 N   0  0  0  0  0  0  0  0  0  0  0  0
   -1.3010   -0.7460    0.0000 C   0  0  0  0  0  0  0  0  0  0  0  0
   -1.3060   -2.2460    0.0000 C   0  0  0  0  0  0  0  0  0  0  0  0
   -2.6080   -2.9920    0.0000 C   0  0  0  0  0  0  0  0  0  0  0  0
   -3.9040   -2.2380    0.0000 C   0  0  0  0  0  0  0  0  0  0  0  0
   -5.2060   -2.9830    0.0000 N   0  0  0  0  0  0  0  0  0  0  0  0
   -3.8990   -0.7380    0.0000 C   0  0  0  0  0  0  0  0  0  0  0  0
   -2.5980    0.0080    0.0000 C   0  0  0  0  0  0  0  0  0  0  0  0
  1  2  2  0  0  0  0
  1  3  2  0  0  0  0
  1  4  1  0  0  0  0
  1 13  1  0  0  0  0
  4  5  1  0  0  0  0
  5  6  1  0  0  0  0
  5 12  2  0  0  0  0
  6  7  2  0  0  0  0
  7  8  1  0  0  0  0
  8  9  1  0  0  0  0
  8 11  2  0  0  0  0
  9 10  1  0  0  0  0
 11 12  1  0  0  0  0
 13 14  1  0  0  0  0
 13 19  2  0  0  0  0
 14 15  2  0  0  0  0
 15 16  1  0  0  0  0
 16 17  1  0  0  0  0
 16 18  2  0  0  0  0
 18 19  1  0  0  0  0
M  END
>  <Index>
1016

>  <ID>
HT1942

>  <class>
0

>  <apol>
37.067516

>  <ast_fraglike>
0

>  <ast_fraglike_ext>
0

>  <ast_violation>
1

>  <ast_violation_ext>
2

>  <a_acc>
5

>  <a_acid>
0

>  <a_aro>
12

>  <a_base>
0

>  <a_count>
31

>  <a_don>
2

>  <a_donacc>
7

>  <a_heavy>
19

>  <a_hyd>
10

>  <a_IC>
59.7519

>  <a_ICM>
1.9274807

>  <a_nB>
0

>  <a_nBr>
0

>  <a_nC>
11

>  <a_nCl>
0

>  <a_nF>
0

>  <a_nH>
12

>  <a_nI>
0

>  <a_nN>
4

>  <a_nO>
3

>  <a_nP>
0

>  <a_nS>
1

>  <balabanJ>
1.8095371

>  <BCUT_PEOE_0>
-2.3076129

>  <BCUT_PEOE_1>
-0.62320954

>  <BCUT_PEOE_2>
0.62744331

>  <BCUT_PEOE_3>
2.4543455

>  <BCUT_SLOGP_0>
-2.4375637

>  <BCUT_SLOGP_1>
-0.53807992

>  <BCUT_SLOGP_2>
0.69539458

>  <BCUT_SLOGP_3>
2.3914318

>  <BCUT_SMR_0>
-1.9915991

>  <BCUT_SMR_1>
-0.4848707

>  <BCUT_SMR_2>
0.85431087

>  <BCUT_SMR_3>
2.7623365

>  <bpol>
24.150484

>  <b_1rotN>
4

>  <b_1rotR>
0.2

>  <b_ar>
12

>  <b_count>
32

>  <b_double>
0

>  <b_heavy>
20

>  <b_max1len>
3

>  <b_rotN>
4

>  <b_rotR>
0.2

>  <b_single>
20

>  <b_triple>
0

>  <chi0>
13.880469

>  <chi0v>
10.885368

>  <chi0v_C>
6.4641018

>  <chi0_C>
7.5520415

>  <chi1>
9.0091686

>  <chi1v>
6.7381215

>  <chi1v_C>
2.3987174

>  <chi1_C>
3.4494898

>  <chiral>
0

>  <chiral_u>
0

>  <density>
0.84840643

>  <diameter>
12

>  <FCharge>
0

>  <GCUT_PEOE_0>
-0.8392902

>  <GCUT_PEOE_1>
-0.4106963

>  <GCUT_PEOE_2>
0.064920321

>  <GCUT_PEOE_3>
2.3145893

>  <GCUT_SLOGP_0>
-1.3342909

>  <GCUT_SLOGP_1>
-0.39146748

>  <GCUT_SLOGP_2>
0.15680923

>  <GCUT_SLOGP_3>
2.3612514

>  <GCUT_SMR_0>
-0.48312709

>  <GCUT_SMR_1>
-0.20085077

>  <GCUT_SMR_2>
0.19305076

>  <GCUT_SMR_3>
2.6008403

>  <Kier1>
15.39

>  <Kier2>
6.6352043

>  <Kier3>
4.2314048

>  <KierA1>
11.953475

>  <KierA2>
5.0754833

>  <KierA3>
3.198272

>  <KierFlex>
3.1931403

>  <lip_acc>
7

>  <lip_don>
3

>  <lip_druglike>
1

>  <lip_violation>
0

>  <logP(o/w)>
-0.071999997

>  <logS>
-2.3225801

>  <mr>
7.091424

>  <mutagenic>
1

>  <nmol>
1

>  <opr_brigid>
12

>  <opr_leadlike>
1

>  <opr_nring>
2

>  <opr_nrot>
3

>  <opr_violation>
0

>  <PC+>
0

>  <PC->
0

>  <PEOE_PC+>
1.727422

>  <PEOE_PC->
-1.727422

>  <PEOE_RPC+>
0.17961594

>  <PEOE_RPC->
0.22716878

>  <PEOE_VSA+0>
71.888588

>  <PEOE_VSA+1>
46.846992

>  <PEOE_VSA+2>
25.857038

>  <PEOE_VSA+3>
0

>  <PEOE_VSA+4>
10.105608

>  <PEOE_VSA+5>
0

>  <PEOE_VSA+6>
4.1846013

>  <PEOE_VSA-0>
90.018166

>  <PEOE_VSA-1>
2.5295215

>  <PEOE_VSA-2>
0

>  <PEOE_VSA-3>
0

>  <PEOE_VSA-4>
0

>  <PEOE_VSA-5>
0

>  <PEOE_VSA-6>
20.520027

>  <PEOE_VSA_FHYD>
0.87199789

>  <PEOE_VSA_FNEG>
0.4157657

>  <PEOE_VSA_FPNEG>
0.075454995

>  <PEOE_VSA_FPOL>
0.12800209

>  <PEOE_VSA_FPOS>
0.5842343

>  <PEOE_VSA_FPPOS>
0.05254709

>  <PEOE_VSA_HYD>
237.1403

>  <PEOE_VSA_NEG>
113.06771

>  <PEOE_VSA_PNEG>
20.520027

>  <PEOE_VSA_POL>
34.810238

>  <PEOE_VSA_POS>
158.88283

>  <PEOE_VSA_PPOS>
14.29021

>  <petitjean>
0.5

>  <petitjeanSC>
1

>  <Q_PC+>
0

>  <Q_PC->
0

>  <Q_RPC+>
0

>  <Q_RPC->
0

>  <Q_VSA_FHYD>
1

>  <Q_VSA_FNEG>
0

>  <Q_VSA_FPNEG>
0

>  <Q_VSA_FPOL>
0

>  <Q_VSA_FPOS>
1

>  <Q_VSA_FPPOS>
0

>  <Q_VSA_HYD>
271.95053

>  <Q_VSA_NEG>
0

>  <Q_VSA_PNEG>
0

>  <Q_VSA_POL>
0

>  <Q_VSA_POS>
271.95053

>  <Q_VSA_PPOS>
0

>  <radius>
6

>  <reactive>
0

>  <rings>
2

>  <RPC+>
0

>  <RPC->
0

>  <rsynth>
1

>  <SlogP>
0.8682

>  <SlogP_VSA0>
43.897076

>  <SlogP_VSA1>
98.147743

>  <SlogP_VSA2>
6.6407428

>  <SlogP_VSA3>
0

>  <SlogP_VSA4>
0

>  <SlogP_VSA5>
36.934601

>  <SlogP_VSA6>
0

>  <SlogP_VSA7>
105.00145

>  <SlogP_VSA8>
0

>  <SlogP_VSA9>
9.8992682

>  <SMR>
7.0246902

>  <SMR_VSA0>
48.171688

>  <SMR_VSA1>
44.570946

>  <SMR_VSA2>
1.5507339

>  <SMR_VSA3>
5.2434282

>  <SMR_VSA4>
21.060839

>  <SMR_VSA5>
137.89864

>  <SMR_VSA6>
0

>  <SMR_VSA7>
42.024612

>  <TPSA>
107.2

>  <VAdjEq>
0.5023343

>  <VAdjMa>
5.321928

>  <VDistEq>
3.24509

>  <VDistMa>
8.1705265

>  <vdw_area>
271.95053

>  <vdw_vol>
330.39352

>  <vsa_acc>
45.885433

>  <vsa_acid>
0

>  <vsa_base>
0

>  <vsa_don>
25.817696

>  <vsa_hyd>
158.83409

>  <vsa_other>
25.787182

>  <vsa_pol>
71.703125

>  <Weight>
280.30798

>  <weinerPath>
758

>  <weinerPol>
27

>  <zagreb>
96

$$$$