OC1CC(O)C(C=CC(O)(CCCCC)C)C1CC=CCCCC(O)=O
  MOE2013           2D

 26 26  0  0  1  0  0  0  0  0999 V2000
    0.0000    0.0000    0.0000 O   0  0  0  0  0  0  0  0  0  0  0  0
   -1.4660   -0.3190    0.0000 C   0  0  3  0  0  0  0  0  0  0  0  0
   -2.5850    0.6790    0.0000 C   0  0  0  0  0  0  0  0  0  0  0  0
   -3.8810   -0.0770    0.0000 C   0  0  3  0  0  0  0  0  0  0  0  0
   -5.2540    0.5270    0.0000 O   0  0  0  0  0  0  0  0  0  0  0  0
   -3.5620   -1.5430    0.0000 C   0  0  3  0  0  0  0  0  0  0  0  0
   -4.5600   -2.6620    0.0000 C   0  0  0  0  0  0  0  0  0  0  0  0
   -6.0290   -2.3570    0.0000 C   0  0  0  0  0  0  0  0  0  0  0  0
   -7.0270   -3.4770    0.0000 C   0  0  3  0  0  0  0  0  0  0  0  0
   -5.9080   -4.4750    0.0000 O   0  0  0  0  0  0  0  0  0  0  0  0
   -8.0250   -4.5960    0.0000 C   0  0  0  0  0  0  0  0  0  0  0  0
   -9.4940   -4.2920    0.0000 C   0  0  0  0  0  0  0  0  0  0  0  0
  -10.4920   -5.4110    0.0000 C   0  0  0  0  0  0  0  0  0  0  0  0
  -11.9610   -5.1060    0.0000 C   0  0  0  0  0  0  0  0  0  0  0  0
  -12.9590   -6.2260    0.0000 C   0  0  0  0  0  0  0  0  0  0  0  0
   -8.1470   -2.4790    0.0000 C   0  0  0  0  0  0  0  0  0  0  0  0
   -2.0690   -1.6920    0.0000 C   0  0  3  0  0  0  0  0  0  0  0  0
   -1.3130   -2.9880    0.0000 C   0  0  0  0  0  0  0  0  0  0  0  0
    0.1870   -2.9800    0.0000 C   0  0  0  0  0  0  0  0  0  0  0  0
    0.9430   -4.2760    0.0000 C   0  0  0  0  0  0  0  0  0  0  0  0
    2.4430   -4.2690    0.0000 C   0  0  0  0  0  0  0  0  0  0  0  0
    3.2000   -5.5640    0.0000 C   0  0  0  0  0  0  0  0  0  0  0  0
    4.7000   -5.5570    0.0000 C   0  0  0  0  0  0  0  0  0  0  0  0
    5.4560   -6.8520    0.0000 C   0  0  0  0  0  0  0  0  0  0  0  0
    6.9560   -6.8450    0.0000 O   0  0  0  0  0  0  0  0  0  0  0  0
    4.7120   -8.1550    0.0000 O   0  0  0  0  0  0  0  0  0  0  0  0
  1  2  1  0  0  0  0
  2  3  1  0  0  0  0
  2 17  1  0  0  0  0
  3  4  1  0  0  0  0
  4  5  1  0  0  0  0
  4  6  1  0  0  0  0
  6  7  1  0  0  0  0
  6 17  1  0  0  0  0
  7  8  2  3  0  0  0
  8  9  1  0  0  0  0
  9 10  1  0  0  0  0
  9 11  1  0  0  0  0
  9 16  1  0  0  0  0
 11 12  1  0  0  0  0
 12 13  1  0  0  0  0
 13 14  1  0  0  0  0
 14 15  1  0  0  0  0
 17 18  1  0  0  0  0
 18 19  1  0  0  0  0
 19 20  2  3  0  0  0
 20 21  1  0  0  0  0
 21 22  1  0  0  0  0
 22 23  1  0  0  0  0
 23 24  1  0  0  0  0
 24 25  1  0  0  0  0
 24 26  2  0  0  0  0
M  END
>  <Index>
192

>  <ID>
HT0381

>  <class>
0

>  <apol>
64.974548

>  <ast_fraglike>
0

>  <ast_fraglike_ext>
0

>  <ast_violation>
4

>  <ast_violation_ext>
6

>  <a_acc>
5

>  <a_acid>
0

>  <a_aro>
0

>  <a_base>
0

>  <a_count>
62

>  <a_don>
5

>  <a_donacc>
10

>  <a_heavy>
26

>  <a_hyd>
20

>  <a_IC>
79.194565

>  <a_ICM>
1.2773317

>  <a_nB>
0

>  <a_nBr>
0

>  <a_nC>
21

>  <a_nCl>
0

>  <a_nF>
0

>  <a_nH>
36

>  <a_nI>
0

>  <a_nN>
0

>  <a_nO>
5

>  <a_nP>
0

>  <a_nS>
0

>  <balabanJ>
2.3643022

>  <BCUT_PEOE_0>
-2.6922209

>  <BCUT_PEOE_1>
-0.54933059

>  <BCUT_PEOE_2>
0.58986783

>  <BCUT_PEOE_3>
2.8137877

>  <BCUT_SLOGP_0>
-2.6353192

>  <BCUT_SLOGP_1>
-0.50971937

>  <BCUT_SLOGP_2>
0.57139474

>  <BCUT_SLOGP_3>
2.8079579

>  <BCUT_SMR_0>
-2.4444447

>  <BCUT_SMR_1>
-0.42096317

>  <BCUT_SMR_2>
0.70493942

>  <BCUT_SMR_3>
3.045567

>  <bpol>
40.313454

>  <b_1rotN>
12

>  <b_1rotR>
0.46153846

>  <b_ar>
0

>  <b_count>
62

>  <b_double>
3

>  <b_heavy>
26

>  <b_max1len>
8

>  <b_rotN>
12

>  <b_rotR>
0.46153846

>  <b_single>
59

>  <b_triple>
0

>  <chi0>
19.57914

>  <chi0v>
16.179867

>  <chi0v_C>
13.982763

>  <chi0_C>
14.57914

>  <chi1>
12.264856

>  <chi1v>
9.9118652

>  <chi1v_C>
8.7441301

>  <chi1_C>
9.4554548

>  <chiral>
5

>  <chiral_u>
5

>  <density>
0.6869148

>  <diameter>
17

>  <FCharge>
0

>  <GCUT_PEOE_0>
-0.80141395

>  <GCUT_PEOE_1>
-0.38124537

>  <GCUT_PEOE_2>
0.08158128

>  <GCUT_PEOE_3>
2.8997216

>  <GCUT_SLOGP_0>
-0.88513184

>  <GCUT_SLOGP_1>
-0.31981269

>  <GCUT_SLOGP_2>
0.079548143

>  <GCUT_SLOGP_3>
2.9556608

>  <GCUT_SMR_0>
-0.53633958

>  <GCUT_SMR_1>
-0.22897525

>  <GCUT_SMR_2>
0.19502981

>  <GCUT_SMR_3>
3.1236238

>  <Kier1>
24.038462

>  <Kier2>
12.456747

>  <Kier3>
9.6771364

>  <KierA1>
21.778181

>  <KierA2>
11.238939

>  <KierA3>
8.7053242

>  <KierFlex>
9.4139872

>  <lip_acc>
5

>  <lip_don>
4

>  <lip_druglike>
1

>  <lip_violation>
0

>  <logP(o/w)>
3.0799999

>  <logS>
-3.3635499

>  <mr>
10.309721

>  <mutagenic>
0

>  <nmol>
1

>  <opr_brigid>
7

>  <opr_leadlike>
1

>  <opr_nring>
1

>  <opr_nrot>
13

>  <opr_violation>
1

>  <PC+>
0

>  <PC->
0

>  <PEOE_PC+>
2.4597449

>  <PEOE_PC->
-2.4597449

>  <PEOE_RPC+>
0.10553827

>  <PEOE_RPC->
0.15912093

>  <PEOE_VSA+0>
128.30266

>  <PEOE_VSA+1>
35.402172

>  <PEOE_VSA+2>
0

>  <PEOE_VSA+3>
0

>  <PEOE_VSA+4>
41.296692

>  <PEOE_VSA+5>
14.708499

>  <PEOE_VSA+6>
0

>  <PEOE_VSA-0>
53.552929

>  <PEOE_VSA-1>
93.871231

>  <PEOE_VSA-2>
0

>  <PEOE_VSA-3>
0

>  <PEOE_VSA-4>
0

>  <PEOE_VSA-5>
13.566921

>  <PEOE_VSA-6>
31.070162

>  <PEOE_VSA_FHYD>
0.75558692

>  <PEOE_VSA_FNEG>
0.46642703

>  <PEOE_VSA_FPNEG>
0.10840261

>  <PEOE_VSA_FPOL>
0.24441305

>  <PEOE_VSA_FPOS>
0.53357297

>  <PEOE_VSA_FPPOS>
0.13601044

>  <PEOE_VSA_HYD>
311.129

>  <PEOE_VSA_NEG>
192.06125

>  <PEOE_VSA_PNEG>
44.637081

>  <PEOE_VSA_POL>
100.64227

>  <PEOE_VSA_POS>
219.71002

>  <PEOE_VSA_PPOS>
56.005188

>  <petitjean>
0.47058824

>  <petitjeanSC>
0.8888889

>  <Q_PC+>
0

>  <Q_PC->
0

>  <Q_RPC+>
0

>  <Q_RPC->
0

>  <Q_VSA_FHYD>
1

>  <Q_VSA_FNEG>
0

>  <Q_VSA_FPNEG>
0

>  <Q_VSA_FPOL>
0

>  <Q_VSA_FPOS>
1

>  <Q_VSA_FPPOS>
0

>  <Q_VSA_HYD>
411.77127

>  <Q_VSA_NEG>
0

>  <Q_VSA_PNEG>
0

>  <Q_VSA_POL>
0

>  <Q_VSA_POS>
411.77127

>  <Q_VSA_PPOS>
0

>  <radius>
9

>  <reactive>
0

>  <rings>
1

>  <RPC+>
0

>  <RPC->
0

>  <rsynth>
0

>  <SlogP>
3.4330001

>  <SlogP_VSA0>
76.155678

>  <SlogP_VSA1>
7.7454643

>  <SlogP_VSA2>
36.799515

>  <SlogP_VSA3>
25.385227

>  <SlogP_VSA4>
8.8215923

>  <SlogP_VSA5>
0

>  <SlogP_VSA6>
0

>  <SlogP_VSA7>
70.572739

>  <SlogP_VSA8>
169.81564

>  <SlogP_VSA9>
66.652031

>  <SMR>
10.27602

>  <SMR_VSA0>
23.862217

>  <SMR_VSA1>
76.155678

>  <SMR_VSA2>
34.206818

>  <SMR_VSA3>
12.937299

>  <SMR_VSA4>
0

>  <SMR_VSA5>
240.38838

>  <SMR_VSA6>
7.7454643

>  <SMR_VSA7>
66.652031

>  <TPSA>
97.989998

>  <VAdjEq>
0.39124358

>  <VAdjMa>
5.7004399

>  <VDistEq>
3.7883413

>  <VDistMa>
9.0788631

>  <vdw_area>
411.77127

>  <vdw_vol>
536.47699

>  <vsa_acc>
0

>  <vsa_acid>
0

>  <vsa_base>
0

>  <vsa_don>
0

>  <vsa_hyd>
285.66144

>  <vsa_other>
14.708499

>  <vsa_pol>
67.834602

>  <Weight>
368.51398

>  <weinerPath>
2044

>  <weinerPol>
32

>  <zagreb>
120

$$$$