O[C@@H]1CC(=C/C=C2/[C@@H]3CC[C@H]([C@@H](CCCC(C)C)C)[C@]3(CCC/2)C)C(CC1)=C
  MOE2013           2D

 28 30  0  0  1  0  0  0  0  0999 V2000
    0.0000    0.0000    0.0000 O   0  0  0  0  0  0  0  0  0  0  0  0
   -0.7430   -1.3030    0.0000 C   0  0  2  0  0  0  0  0  0  0  0  0
    0.0140   -2.5980    0.0000 C   0  0  0  0  0  0  0  0  0  0  0  0
   -0.7290   -3.9010    0.0000 C   0  0  0  0  0  0  0  0  0  0  0  0
    0.0280   -5.1960    0.0000 C   0  0  0  0  0  0  0  0  0  0  0  0
    1.5280   -5.1880    0.0000 C   0  0  0  0  0  0  0  0  0  0  0  0
    2.2850   -6.4830    0.0000 C   0  0  0  0  0  0  0  0  0  0  0  0
    3.7850   -6.4750    0.0000 C   0  0  2  0  0  0  0  0  0  0  0  0
    4.7820   -5.3550    0.0000 C   0  0  0  0  0  0  0  0  0  0  0  0
    6.1560   -5.9580    0.0000 C   0  0  0  0  0  0  0  0  0  0  0  0
    6.0070   -7.4500    0.0000 C   0  0  2  0  0  0  0  0  0  0  0  0
    7.1270   -8.4480    0.0000 C   0  0  1  0  0  0  0  0  0  0  0  0
    8.5510   -7.9770    0.0000 C   0  0  0  0  0  0  0  0  0  0  0  0
    9.6710   -8.9750    0.0000 C   0  0  0  0  0  0  0  0  0  0  0  0
   11.0960   -8.5030    0.0000 C   0  0  0  0  0  0  0  0  0  0  0  0
   12.2160   -9.5010    0.0000 C   0  0  0  0  0  0  0  0  0  0  0  0
   11.9120  -10.9700    0.0000 C   0  0  0  0  0  0  0  0  0  0  0  0
   13.6400   -9.0300    0.0000 C   0  0  0  0  0  0  0  0  0  0  0  0
    6.8230   -9.9170    0.0000 C   0  0  0  0  0  0  0  0  0  0  0  0
    4.5420   -7.7700    0.0000 C   0  0  1  0  0  0  0  0  0  0  0  0
    3.7990   -9.0730    0.0000 C   0  0  0  0  0  0  0  0  0  0  0  0
    2.2990   -9.0810    0.0000 C   0  0  0  0  0  0  0  0  0  0  0  0
    1.5420   -7.7860    0.0000 C   0  0  0  0  0  0  0  0  0  0  0  0
    5.4300   -8.9790    0.0000 C   0  0  0  0  0  0  0  0  0  0  0  0
   -2.2290   -3.9090    0.0000 C   0  0  0  0  0  0  0  0  0  0  0  0
   -2.9860   -2.6140    0.0000 C   0  0  0  0  0  0  0  0  0  0  0  0
   -2.2430   -1.3110    0.0000 C   0  0  0  0  0  0  0  0  0  0  0  0
   -2.9720   -5.2120    0.0000 C   0  0  0  0  0  0  0  0  0  0  0  0
  2  1  1  6  0  0  0
  2  3  1  0  0  0  0
  2 27  1  0  0  0  0
  3  4  1  0  0  0  0
  4  5  2  3  0  0  0
  4 25  1  0  0  0  0
  5  6  1  0  0  0  0
  6  7  2  0  0  0  0
  7 23  1  0  0  0  0
  8  7  1  6  0  0  0
  8  9  1  0  0  0  0
  8 20  1  0  0  0  0
  9 10  1  0  0  0  0
 11 10  1  6  0  0  0
 11 12  1  0  0  0  0
 11 20  1  0  0  0  0
 12 13  1  0  0  0  0
 12 19  1  1  0  0  0
 13 14  1  0  0  0  0
 14 15  1  0  0  0  0
 15 16  1  0  0  0  0
 16 17  1  0  0  0  0
 16 18  1  0  0  0  0
 20 21  1  0  0  0  0
 20 24  1  6  0  0  0
 21 22  1  0  0  0  0
 22 23  1  0  0  0  0
 25 26  1  0  0  0  0
 25 28  2  0  0  0  0
 26 27  1  0  0  0  0
M  END
>  <Index>
1150

>  <ID>
HT2190

>  <class>
0

>  <apol>
77.660889

>  <ast_fraglike>
0

>  <ast_fraglike_ext>
0

>  <ast_violation>
2

>  <ast_violation_ext>
3

>  <a_acc>
1

>  <a_acid>
0

>  <a_aro>
0

>  <a_base>
0

>  <a_count>
72

>  <a_don>
1

>  <a_donacc>
2

>  <a_heavy>
28

>  <a_hyd>
27

>  <a_IC>
75.63765

>  <a_ICM>
1.0505229

>  <a_nB>
0

>  <a_nBr>
0

>  <a_nC>
27

>  <a_nCl>
0

>  <a_nF>
0

>  <a_nH>
44

>  <a_nI>
0

>  <a_nN>
0

>  <a_nO>
1

>  <a_nP>
0

>  <a_nS>
0

>  <balabanJ>
1.5515622

>  <BCUT_PEOE_0>
-2.8437121

>  <BCUT_PEOE_1>
-0.4597829

>  <BCUT_PEOE_2>
0.50046754

>  <BCUT_PEOE_3>
2.8976059

>  <BCUT_SLOGP_0>
-2.7393546

>  <BCUT_SLOGP_1>
-0.36935762

>  <BCUT_SLOGP_2>
0.51901996

>  <BCUT_SLOGP_3>
3.0058169

>  <BCUT_SMR_0>
-2.5849168

>  <BCUT_SMR_1>
-0.30199337

>  <BCUT_SMR_2>
0.65682405

>  <BCUT_SMR_3>
3.1594424

>  <bpol>
48.101109

>  <b_1rotN>
6

>  <b_1rotR>
0.2

>  <b_ar>
0

>  <b_count>
74

>  <b_double>
3

>  <b_heavy>
30

>  <b_max1len>
8

>  <b_rotN>
6

>  <b_rotR>
0.2

>  <b_single>
71

>  <b_triple>
0

>  <chi0>
20.31119

>  <chi0v>
18.973948

>  <chi0v_C>
18.526733

>  <chi0_C>
19.31119

>  <chi1>
13.308386

>  <chi1v>
12.067549

>  <chi1v_C>
11.80935

>  <chi1_C>
12.731036

>  <chiral>
5

>  <chiral_u>
0

>  <density>
0.61779654

>  <diameter>
15

>  <FCharge>
0

>  <GCUT_PEOE_0>
-0.80800432

>  <GCUT_PEOE_1>
-0.34107605

>  <GCUT_PEOE_2>
-0.03447032

>  <GCUT_PEOE_3>
3.2162595

>  <GCUT_SLOGP_0>
-0.87517804

>  <GCUT_SLOGP_1>
-0.24090567

>  <GCUT_SLOGP_2>
0.012385914

>  <GCUT_SLOGP_3>
3.3365967

>  <GCUT_SMR_0>
-0.54183656

>  <GCUT_SMR_1>
-0.16597399

>  <GCUT_SMR_2>
0.12951119

>  <GCUT_SMR_3>
3.4500532

>  <Kier1>
22.68

>  <Kier2>
9.8712816

>  <Kier3>
5.3890305

>  <KierA1>
20.792706

>  <KierA2>
9.0195723

>  <KierA3>
4.9123383

>  <KierFlex>
6.6979036

>  <lip_acc>
1

>  <lip_don>
1

>  <lip_druglike>
1

>  <lip_violation>
1

>  <logP(o/w)>
7.1960001

>  <logS>
-10.14528

>  <mr>
11.960979

>  <mutagenic>
0

>  <nmol>
1

>  <opr_brigid>
19

>  <opr_leadlike>
1

>  <opr_nring>
3

>  <opr_nrot>
9

>  <opr_violation>
1

>  <PC+>
0

>  <PC->
0

>  <PEOE_PC+>
1.5927393

>  <PEOE_PC->
-1.5927393

>  <PEOE_RPC+>
0.13171607

>  <PEOE_RPC->
0.245774

>  <PEOE_VSA+0>
162.08467

>  <PEOE_VSA+1>
26.231859

>  <PEOE_VSA+2>
0

>  <PEOE_VSA+3>
0

>  <PEOE_VSA+4>
10.324173

>  <PEOE_VSA+5>
0

>  <PEOE_VSA+6>
0

>  <PEOE_VSA-0>
71.819046

>  <PEOE_VSA-1>
152.3228

>  <PEOE_VSA-2>
0

>  <PEOE_VSA-3>
0

>  <PEOE_VSA-4>
0

>  <PEOE_VSA-5>
0

>  <PEOE_VSA-6>
7.7675405

>  <PEOE_VSA_FHYD>
0.95797998

>  <PEOE_VSA_FNEG>
0.53863508

>  <PEOE_VSA_FPNEG>
0.018040968

>  <PEOE_VSA_FPOL>
0.042019997

>  <PEOE_VSA_FPOS>
0.4613649

>  <PEOE_VSA_FPPOS>
0.023979029

>  <PEOE_VSA_HYD>
412.45837

>  <PEOE_VSA_NEG>
231.90939

>  <PEOE_VSA_PNEG>
7.7675405

>  <PEOE_VSA_POL>
18.091713

>  <PEOE_VSA_POS>
198.6407

>  <PEOE_VSA_PPOS>
10.324173

>  <petitjean>
0.46666667

>  <petitjeanSC>
0.875

>  <Q_PC+>
0

>  <Q_PC->
0

>  <Q_RPC+>
0

>  <Q_RPC->
0

>  <Q_VSA_FHYD>
1

>  <Q_VSA_FNEG>
0

>  <Q_VSA_FPNEG>
0

>  <Q_VSA_FPOL>
0

>  <Q_VSA_FPOS>
1

>  <Q_VSA_FPPOS>
0

>  <Q_VSA_HYD>
430.55008

>  <Q_VSA_NEG>
0

>  <Q_VSA_PNEG>
0

>  <Q_VSA_POL>
0

>  <Q_VSA_POS>
430.55008

>  <Q_VSA_PPOS>
0

>  <radius>
8

>  <reactive>
0

>  <rings>
3

>  <RPC+>
0

>  <RPC->
0

>  <rsynth>
0

>  <SlogP>
7.619

>  <SlogP_VSA0>
25.385227

>  <SlogP_VSA1>
0

>  <SlogP_VSA2>
6.4686494

>  <SlogP_VSA3>
0

>  <SlogP_VSA4>
17.643185

>  <SlogP_VSA5>
9.5567245

>  <SlogP_VSA6>
0

>  <SlogP_VSA7>
35.286369

>  <SlogP_VSA8>
207.55246

>  <SlogP_VSA9>
165.40485

>  <SMR>
12.11888

>  <SMR_VSA0>
0

>  <SMR_VSA1>
25.385227

>  <SMR_VSA2>
17.643185

>  <SMR_VSA3>
16.025373

>  <SMR_VSA4>
0

>  <SMR_VSA5>
242.83882

>  <SMR_VSA6>
0

>  <SMR_VSA7>
165.40485

>  <TPSA>
20.23

>  <VAdjEq>
0.38983503

>  <VAdjMa>
5.9068904

>  <VDistEq>
3.6619809

>  <VDistMa>
9.3036423

>  <vdw_area>
430.55008

>  <vdw_vol>
622.61273

>  <vsa_acc>
0

>  <vsa_acid>
0

>  <vsa_base>
0

>  <vsa_don>
0

>  <vsa_hyd>
376.47098

>  <vsa_other>
0

>  <vsa_pol>
13.566921

>  <Weight>
384.64798

>  <weinerPath>
2214

>  <weinerPol>
45

>  <zagreb>
146

$$$$