S(=O)(=O)(Nc1nccnc1OC)c1ccc(N)cc1
  MOE2013           2D

 19 20  0  0  0  0  0  0  0  0999 V2000
    0.0000    0.0000    0.0000 S   0  0  0  0  0  0  0  0  0  0  0  0
    0.0060    1.5000    0.0000 O   0  0  0  0  0  0  0  0  0  0  0  0
   -0.0060   -1.5000    0.0000 O   0  0  0  0  0  0  0  0  0  0  0  0
   -1.5000    0.0060    0.0000 N   0  0  0  0  0  0  0  0  0  0  0  0
   -2.2550   -1.2910    0.0000 C   0  0  0  0  0  0  0  0  0  0  0  0
   -1.5100   -2.5920    0.0000 N   0  0  0  0  0  0  0  0  0  0  0  0
   -2.2640   -3.8890    0.0000 C   0  0  0  0  0  0  0  0  0  0  0  0
   -3.7640   -3.8830    0.0000 C   0  0  0  0  0  0  0  0  0  0  0  0
   -4.5100   -2.5810    0.0000 N   0  0  0  0  0  0  0  0  0  0  0  0
   -3.7550   -1.2850    0.0000 C   0  0  0  0  0  0  0  0  0  0  0  0
   -4.5000    0.0170    0.0000 O   0  0  0  0  0  0  0  0  0  0  0  0
   -6.0000    0.0220    0.0000 C   0  0  0  0  0  0  0  0  0  0  0  0
    1.5000   -0.0060    0.0000 C   0  0  0  0  0  0  0  0  0  0  0  0
    2.2550    1.2910    0.0000 C   0  0  0  0  0  0  0  0  0  0  0  0
    3.7550    1.2850    0.0000 C   0  0  0  0  0  0  0  0  0  0  0  0
    4.5000   -0.0170    0.0000 C   0  0  0  0  0  0  0  0  0  0  0  0
    6.0000   -0.0220    0.0000 N   0  0  0  0  0  0  0  0  0  0  0  0
    3.7450   -1.3130    0.0000 C   0  0  0  0  0  0  0  0  0  0  0  0
    2.2450   -1.3070    0.0000 C   0  0  0  0  0  0  0  0  0  0  0  0
  1  2  2  0  0  0  0
  1  3  2  0  0  0  0
  1  4  1  0  0  0  0
  1 13  1  0  0  0  0
  4  5  1  0  0  0  0
  5  6  1  0  0  0  0
  5 10  2  0  0  0  0
  6  7  2  0  0  0  0
  7  8  1  0  0  0  0
  8  9  2  0  0  0  0
  9 10  1  0  0  0  0
 10 11  1  0  0  0  0
 11 12  1  0  0  0  0
 13 14  1  0  0  0  0
 13 19  2  0  0  0  0
 14 15  2  0  0  0  0
 15 16  1  0  0  0  0
 16 17  1  0  0  0  0
 16 18  2  0  0  0  0
 18 19  1  0  0  0  0
M  END
>  <Index>
1021

>  <ID>
HT1947

>  <class>
0

>  <apol>
37.067516

>  <ast_fraglike>
0

>  <ast_fraglike_ext>
0

>  <ast_violation>
1

>  <ast_violation_ext>
2

>  <a_acc>
4

>  <a_acid>
0

>  <a_aro>
12

>  <a_base>
0

>  <a_count>
31

>  <a_don>
2

>  <a_donacc>
6

>  <a_heavy>
19

>  <a_hyd>
9

>  <a_IC>
59.7519

>  <a_ICM>
1.9274807

>  <a_nB>
0

>  <a_nBr>
0

>  <a_nC>
11

>  <a_nCl>
0

>  <a_nF>
0

>  <a_nH>
12

>  <a_nI>
0

>  <a_nN>
4

>  <a_nO>
3

>  <a_nP>
0

>  <a_nS>
1

>  <balabanJ>
1.9214692

>  <BCUT_PEOE_0>
-2.33178

>  <BCUT_PEOE_1>
-0.62337822

>  <BCUT_PEOE_2>
0.72024977

>  <BCUT_PEOE_3>
2.4306488

>  <BCUT_SLOGP_0>
-2.4384077

>  <BCUT_SLOGP_1>
-0.53807992

>  <BCUT_SLOGP_2>
0.80591482

>  <BCUT_SLOGP_3>
2.4054766

>  <BCUT_SMR_0>
-2.006479

>  <BCUT_SMR_1>
-0.49986199

>  <BCUT_SMR_2>
0.85431087

>  <BCUT_SMR_3>
2.7690091

>  <bpol>
24.150484

>  <b_1rotN>
4

>  <b_1rotR>
0.2

>  <b_ar>
12

>  <b_count>
32

>  <b_double>
0

>  <b_heavy>
20

>  <b_max1len>
3

>  <b_rotN>
4

>  <b_rotR>
0.2

>  <b_single>
20

>  <b_triple>
0

>  <chi0>
13.880469

>  <chi0v>
10.885368

>  <chi0v_C>
6.4641018

>  <chi0_C>
7.5520415

>  <chi1>
9.0260048

>  <chi1v>
6.7441044

>  <chi1v_C>
2.4047005

>  <chi1_C>
3.4663265

>  <chiral>
0

>  <chiral_u>
0

>  <density>
0.84840643

>  <diameter>
10

>  <FCharge>
0

>  <GCUT_PEOE_0>
-0.85722125

>  <GCUT_PEOE_1>
-0.42593861

>  <GCUT_PEOE_2>
0.093038179

>  <GCUT_PEOE_3>
2.333699

>  <GCUT_SLOGP_0>
-1.334291

>  <GCUT_SLOGP_1>
-0.39147255

>  <GCUT_SLOGP_2>
0.16445385

>  <GCUT_SLOGP_3>
2.3906684

>  <GCUT_SMR_0>
-0.48337585

>  <GCUT_SMR_1>
-0.20101185

>  <GCUT_SMR_2>
0.19305076

>  <GCUT_SMR_3>
2.6265867

>  <Kier1>
15.39

>  <Kier2>
6.6352043

>  <Kier3>
3.9861591

>  <KierA1>
11.953475

>  <KierA2>
5.0754833

>  <KierA3>
3.0129049

>  <KierFlex>
3.1931403

>  <lip_acc>
7

>  <lip_don>
3

>  <lip_druglike>
1

>  <lip_violation>
0

>  <logP(o/w)>
0.47852999

>  <logS>
-0.92422003

>  <mr>
7.0951624

>  <mutagenic>
1

>  <nmol>
1

>  <opr_brigid>
12

>  <opr_leadlike>
1

>  <opr_nring>
2

>  <opr_nrot>
3

>  <opr_violation>
0

>  <PC+>
0

>  <PC->
0

>  <PEOE_PC+>
1.768728

>  <PEOE_PC->
-1.768728

>  <PEOE_RPC+>
0.16934529

>  <PEOE_RPC->
0.24619405

>  <PEOE_VSA+0>
72.952934

>  <PEOE_VSA+1>
58.198051

>  <PEOE_VSA+2>
17.238026

>  <PEOE_VSA+3>
23.05514

>  <PEOE_VSA+4>
0

>  <PEOE_VSA+5>
4.1846013

>  <PEOE_VSA+6>
0

>  <PEOE_VSA-0>
24.509808

>  <PEOE_VSA-1>
19.275436

>  <PEOE_VSA-2>
32.016521

>  <PEOE_VSA-3>
0

>  <PEOE_VSA-4>
5.6825762

>  <PEOE_VSA-5>
0

>  <PEOE_VSA-6>
14.837452

>  <PEOE_VSA_FHYD>
0.90915763

>  <PEOE_VSA_FNEG>
0.35418865

>  <PEOE_VSA_FPNEG>
0.075454995

>  <PEOE_VSA_FPOL>
0.090842359

>  <PEOE_VSA_FPOS>
0.64581138

>  <PEOE_VSA_FPPOS>
0.015387361

>  <PEOE_VSA_HYD>
247.24591

>  <PEOE_VSA_NEG>
96.321793

>  <PEOE_VSA_PNEG>
20.520027

>  <PEOE_VSA_POL>
24.70463

>  <PEOE_VSA_POS>
175.62875

>  <PEOE_VSA_PPOS>
4.1846013

>  <petitjean>
0.5

>  <petitjeanSC>
1

>  <Q_PC+>
0

>  <Q_PC->
0

>  <Q_RPC+>
0

>  <Q_RPC->
0

>  <Q_VSA_FHYD>
1

>  <Q_VSA_FNEG>
0

>  <Q_VSA_FPNEG>
0

>  <Q_VSA_FPOL>
0

>  <Q_VSA_FPOS>
1

>  <Q_VSA_FPPOS>
0

>  <Q_VSA_HYD>
271.95053

>  <Q_VSA_NEG>
0

>  <Q_VSA_PNEG>
0

>  <Q_VSA_POL>
0

>  <Q_VSA_POS>
271.95053

>  <Q_VSA_PPOS>
0

>  <radius>
5

>  <reactive>
0

>  <rings>
2

>  <RPC+>
0

>  <RPC->
0

>  <rsynth>
1

>  <SlogP>
0.8682

>  <SlogP_VSA0>
43.897076

>  <SlogP_VSA1>
98.147743

>  <SlogP_VSA2>
6.6407428

>  <SlogP_VSA3>
0

>  <SlogP_VSA4>
0

>  <SlogP_VSA5>
36.934601

>  <SlogP_VSA6>
0

>  <SlogP_VSA7>
105.00145

>  <SlogP_VSA8>
0

>  <SlogP_VSA9>
9.8992682

>  <SMR>
7.0246902

>  <SMR_VSA0>
48.171688

>  <SMR_VSA1>
44.570946

>  <SMR_VSA2>
1.5507339

>  <SMR_VSA3>
4.8146005

>  <SMR_VSA4>
21.489666

>  <SMR_VSA5>
137.89864

>  <SMR_VSA6>
0

>  <SMR_VSA7>
42.024612

>  <TPSA>
107.2

>  <VAdjEq>
0.5023343

>  <VAdjMa>
5.321928

>  <VDistEq>
3.0875585

>  <VDistMa>
8.2006502

>  <vdw_area>
271.95053

>  <vdw_vol>
330.39352

>  <vsa_acc>
43.381676

>  <vsa_acid>
0

>  <vsa_base>
0

>  <vsa_don>
25.817696

>  <vsa_hyd>
150.37558

>  <vsa_other>
36.749458

>  <vsa_pol>
69.199371

>  <Weight>
280.30798

>  <weinerPath>
714

>  <weinerPol>
28

>  <zagreb>
96

$$$$