O1c2c(CC[C@@]1(CCC[C@H](CCC[C@H](CCCC(C)C)C)C)C)c(C)c(O)c(C)c2C
  MOE2013           2D

 31 32  0  0  1  0  0  0  0  0999 V2000
    0.0000    0.0000    0.0000 O   0  0  0  0  0  0  0  0  0  0  0  0
   -0.7560   -1.2960    0.0000 C   0  0  0  0  0  0  0  0  0  0  0  0
   -0.0120   -2.5980    0.0000 C   0  0  0  0  0  0  0  0  0  0  0  0
    1.4880   -2.6050    0.0000 C   0  0  0  0  0  0  0  0  0  0  0  0
    2.2440   -1.3090    0.0000 C   0  0  0  0  0  0  0  0  0  0  0  0
    1.5000   -0.0070    0.0000 C   0  0  2  0  0  0  0  0  0  0  0  0
    2.8020    0.7380    0.0000 C   0  0  0  0  0  0  0  0  0  0  0  0
    4.0980   -0.0180    0.0000 C   0  0  0  0  0  0  0  0  0  0  0  0
    5.4000    0.7260    0.0000 C   0  0  0  0  0  0  0  0  0  0  0  0
    6.6960   -0.0300    0.0000 C   0  0  2  0  0  0  0  0  0  0  0  0
    7.9980    0.7150    0.0000 C   0  0  0  0  0  0  0  0  0  0  0  0
    9.2940   -0.0410    0.0000 C   0  0  0  0  0  0  0  0  0  0  0  0
   10.5960    0.7030    0.0000 C   0  0  0  0  0  0  0  0  0  0  0  0
   11.8920   -0.0530    0.0000 C   0  0  2  0  0  0  0  0  0  0  0  0
   13.1950    0.6920    0.0000 C   0  0  0  0  0  0  0  0  0  0  0  0
   14.4900   -0.0640    0.0000 C   0  0  0  0  0  0  0  0  0  0  0  0
   15.7930    0.6800    0.0000 C   0  0  0  0  0  0  0  0  0  0  0  0
   17.0880   -0.0760    0.0000 C   0  0  0  0  0  0  0  0  0  0  0  0
   17.0820   -1.5760    0.0000 C   0  0  0  0  0  0  0  0  0  0  0  0
   18.3910    0.6680    0.0000 C   0  0  0  0  0  0  0  0  0  0  0  0
   11.8860   -1.5530    0.0000 C   0  0  0  0  0  0  0  0  0  0  0  0
    6.6890   -1.5300    0.0000 C   0  0  0  0  0  0  0  0  0  0  0  0
    1.5070    1.4930    0.0000 C   0  0  0  0  0  0  0  0  0  0  0  0
   -0.7670   -3.8940    0.0000 C   0  0  0  0  0  0  0  0  0  0  0  0
   -0.0230   -5.1960    0.0000 C   0  0  0  0  0  0  0  0  0  0  0  0
   -2.2670   -3.8870    0.0000 C   0  0  0  0  0  0  0  0  0  0  0  0
   -3.0230   -5.1830    0.0000 O   0  0  0  0  0  0  0  0  0  0  0  0
   -3.0110   -2.5850    0.0000 C   0  0  0  0  0  0  0  0  0  0  0  0
   -4.5110   -2.5780    0.0000 C   0  0  0  0  0  0  0  0  0  0  0  0
   -2.2560   -1.2890    0.0000 C   0  0  0  0  0  0  0  0  0  0  0  0
   -3.0000    0.0130    0.0000 C   0  0  0  0  0  0  0  0  0  0  0  0
  1  2  1  0  0  0  0
  1  6  1  0  0  0  0
  2  3  1  0  0  0  0
  2 30  2  0  0  0  0
  3  4  1  0  0  0  0
  3 24  2  0  0  0  0
  4  5  1  0  0  0  0
  5  6  1  0  0  0  0
  6  7  1  1  0  0  0
  6 23  1  6  0  0  0
  7  8  1  0  0  0  0
  8  9  1  0  0  0  0
  9 10  1  0  0  0  0
 10 11  1  0  0  0  0
 10 22  1  6  0  0  0
 11 12  1  0  0  0  0
 12 13  1  0  0  0  0
 13 14  1  0  0  0  0
 14 15  1  0  0  0  0
 14 21  1  6  0  0  0
 15 16  1  0  0  0  0
 16 17  1  0  0  0  0
 17 18  1  0  0  0  0
 18 19  1  0  0  0  0
 18 20  1  0  0  0  0
 24 25  1  0  0  0  0
 24 26  1  0  0  0  0
 26 27  1  0  0  0  0
 26 28  2  0  0  0  0
 28 29  1  0  0  0  0
 28 30  1  0  0  0  0
 30 31  1  0  0  0  0
M  END
>  <Index>
1151

>  <ID>
HT2191

>  <class>
0

>  <apol>
85.98365

>  <ast_fraglike>
0

>  <ast_fraglike_ext>
0

>  <ast_violation>
2

>  <ast_violation_ext>
3

>  <a_acc>
2

>  <a_acid>
0

>  <a_aro>
6

>  <a_base>
0

>  <a_count>
81

>  <a_don>
1

>  <a_donacc>
3

>  <a_heavy>
31

>  <a_hyd>
29

>  <a_IC>
88.45359

>  <a_ICM>
1.0920197

>  <a_nB>
0

>  <a_nBr>
0

>  <a_nC>
29

>  <a_nCl>
0

>  <a_nF>
0

>  <a_nH>
50

>  <a_nI>
0

>  <a_nN>
0

>  <a_nO>
2

>  <a_nP>
0

>  <a_nS>
0

>  <balabanJ>
1.6632739

>  <BCUT_PEOE_0>
-2.7968247

>  <BCUT_PEOE_1>
-0.086088315

>  <BCUT_PEOE_2>
0.13559428

>  <BCUT_PEOE_3>
2.7437406

>  <BCUT_SLOGP_0>
-2.7161446

>  <BCUT_SLOGP_1>
0.0060269479

>  <BCUT_SLOGP_2>
0.19099873

>  <BCUT_SLOGP_3>
2.8666208

>  <BCUT_SMR_0>
-2.544157

>  <BCUT_SMR_1>
0.037626777

>  <BCUT_SMR_2>
0.24870102

>  <BCUT_SMR_3>
2.9946845

>  <bpol>
56.576351

>  <b_1rotN>
12

>  <b_1rotR>
0.375

>  <b_ar>
6

>  <b_count>
82

>  <b_double>
0

>  <b_heavy>
32

>  <b_max1len>
16

>  <b_rotN>
12

>  <b_rotR>
0.375

>  <b_single>
76

>  <b_triple>
0

>  <chi0>
23.181435

>  <chi0v>
21.865686

>  <chi0v_C>
21.010225

>  <chi0_C>
21.474327

>  <chi1>
14.5372

>  <chi1v>
13.043158

>  <chi1v_C>
12.411303

>  <chi1_C>
13.198049

>  <chiral>
3

>  <chiral_u>
0

>  <density>
0.61882085

>  <diameter>
19

>  <FCharge>
0

>  <GCUT_PEOE_0>
-0.80730706

>  <GCUT_PEOE_1>
-0.21215671

>  <GCUT_PEOE_2>
-0.12636229

>  <GCUT_PEOE_3>
3.0476511

>  <GCUT_SLOGP_0>
-0.89075196

>  <GCUT_SLOGP_1>
-0.16316018

>  <GCUT_SLOGP_2>
-0.037

>  <GCUT_SLOGP_3>
3.1708131

>  <GCUT_SMR_0>
-0.53888142

>  <GCUT_SMR_1>
-0.084983028

>  <GCUT_SMR_2>
-0.011631064

>  <GCUT_SMR_3>
3.2774746

>  <Kier1>
27.246094

>  <Kier2>
12.459259

>  <Kier3>
8.0658436

>  <KierA1>
25.197353

>  <KierA2>
11.491302

>  <KierA3>
7.4245296

>  <KierFlex>
9.3403349

>  <lip_acc>
2

>  <lip_don>
1

>  <lip_druglike>
1

>  <lip_violation>
1

>  <logP(o/w)>
10.205

>  <logS>
-10.00963

>  <mr>
13.310418

>  <mutagenic>
0

>  <nmol>
1

>  <opr_brigid>
11

>  <opr_leadlike>
0

>  <opr_nring>
2

>  <opr_nrot>
13

>  <opr_violation>
2

>  <PC+>
0

>  <PC->
0

>  <PEOE_PC+>
1.7574843

>  <PEOE_PC->
-1.7574843

>  <PEOE_RPC+>
0.12366316

>  <PEOE_RPC->
0.20443359

>  <PEOE_VSA+0>
209.00392

>  <PEOE_VSA+1>
16.917038

>  <PEOE_VSA+2>
0

>  <PEOE_VSA+3>
0

>  <PEOE_VSA+4>
10.324173

>  <PEOE_VSA+5>
0

>  <PEOE_VSA+6>
0

>  <PEOE_VSA-0>
109.92881

>  <PEOE_VSA-1>
144.60121

>  <PEOE_VSA-2>
0

>  <PEOE_VSA-3>
0

>  <PEOE_VSA-4>
0

>  <PEOE_VSA-5>
0

>  <PEOE_VSA-6>
10.271297

>  <PEOE_VSA_FHYD>
0.95889509

>  <PEOE_VSA_FNEG>
0.52849656

>  <PEOE_VSA_FPNEG>
0.02049969

>  <PEOE_VSA_FPOL>
0.041104909

>  <PEOE_VSA_FPOS>
0.47150344

>  <PEOE_VSA_FPPOS>
0.020605221

>  <PEOE_VSA_HYD>
480.45099

>  <PEOE_VSA_NEG>
264.80133

>  <PEOE_VSA_PNEG>
10.271297

>  <PEOE_VSA_POL>
20.595469

>  <PEOE_VSA_POS>
236.24513

>  <PEOE_VSA_PPOS>
10.324173

>  <petitjean>
0.47368422

>  <petitjeanSC>
0.89999998

>  <Q_PC+>
0

>  <Q_PC->
0

>  <Q_RPC+>
0

>  <Q_RPC->
0

>  <Q_VSA_FHYD>
1

>  <Q_VSA_FNEG>
0

>  <Q_VSA_FPNEG>
0

>  <Q_VSA_FPOL>
0

>  <Q_VSA_FPOS>
1

>  <Q_VSA_FPPOS>
0

>  <Q_VSA_HYD>
501.04645

>  <Q_VSA_NEG>
0

>  <Q_VSA_PNEG>
0

>  <Q_VSA_POL>
0

>  <Q_VSA_POS>
501.04645

>  <Q_VSA_PPOS>
0

>  <radius>
10

>  <reactive>
0

>  <rings>
2

>  <RPC+>
0

>  <RPC->
0

>  <rsynth>
0

>  <SlogP>
8.84023

>  <SlogP_VSA0>
36.385113

>  <SlogP_VSA1>
0

>  <SlogP_VSA2>
0

>  <SlogP_VSA3>
0

>  <SlogP_VSA4>
25.974688

>  <SlogP_VSA5>
18.868406

>  <SlogP_VSA6>
0

>  <SlogP_VSA7>
0

>  <SlogP_VSA8>
188.68405

>  <SlogP_VSA9>
277.09497

>  <SMR>
13.43908

>  <SMR_VSA0>
0

>  <SMR_VSA1>
36.385113

>  <SMR_VSA2>
13.232388

>  <SMR_VSA3>
23.229156

>  <SMR_VSA4>
0

>  <SMR_VSA5>
207.55246

>  <SMR_VSA6>
0

>  <SMR_VSA7>
266.60812

>  <TPSA>
29.459999

>  <VAdjEq>
0.35309514

>  <VAdjMa>
6

>  <VDistEq>
4.0382614

>  <VDistMa>
9.5566721

>  <vdw_area>
501.04645

>  <vdw_vol>
696.02856

>  <vsa_acc>
2.503756

>  <vsa_acid>
0

>  <vsa_base>
0

>  <vsa_don>
0

>  <vsa_hyd>
441.53784

>  <vsa_other>
0

>  <vsa_pol>
16.070677

>  <Weight>
430.71698

>  <weinerPath>
3414

>  <weinerPol>
48

>  <zagreb>
154

$$$$