S(=O)(=O)(Nc1nc(ccn1)C)c1ccc(N)cc1
  MOE2013           2D

 18 19  0  0  0  0  0  0  0  0999 V2000
    0.0000    0.0000    0.0000 S   0  0  0  0  0  0  0  0  0  0  0  0
    0.7420   -1.3040    0.0000 O   0  0  0  0  0  0  0  0  0  0  0  0
   -0.7420    1.3040    0.0000 O   0  0  0  0  0  0  0  0  0  0  0  0
    1.3040    0.7420    0.0000 N   0  0  0  0  0  0  0  0  0  0  0  0
    2.5980   -0.0160    0.0000 C   0  0  0  0  0  0  0  0  0  0  0  0
    3.9020    0.7260    0.0000 N   0  0  0  0  0  0  0  0  0  0  0  0
    5.1960   -0.0330    0.0000 C   0  0  0  0  0  0  0  0  0  0  0  0
    5.1870   -1.5320    0.0000 C   0  0  0  0  0  0  0  0  0  0  0  0
    3.8830   -2.2740    0.0000 C   0  0  0  0  0  0  0  0  0  0  0  0
    2.5890   -1.5160    0.0000 N   0  0  0  0  0  0  0  0  0  0  0  0
    6.5000    0.7090    0.0000 C   0  0  0  0  0  0  0  0  0  0  0  0
   -1.3040   -0.7420    0.0000 C   0  0  0  0  0  0  0  0  0  0  0  0
   -1.3130   -2.2420    0.0000 C   0  0  0  0  0  0  0  0  0  0  0  0
   -2.6170   -2.9840    0.0000 C   0  0  0  0  0  0  0  0  0  0  0  0
   -3.9110   -2.2260    0.0000 C   0  0  0  0  0  0  0  0  0  0  0  0
   -5.2150   -2.9670    0.0000 N   0  0  0  0  0  0  0  0  0  0  0  0
   -3.9020   -0.7260    0.0000 C   0  0  0  0  0  0  0  0  0  0  0  0
   -2.5980    0.0160    0.0000 C   0  0  0  0  0  0  0  0  0  0  0  0
  1  2  2  0  0  0  0
  1  3  2  0  0  0  0
  1  4  1  0  0  0  0
  1 12  1  0  0  0  0
  4  5  1  0  0  0  0
  5  6  1  0  0  0  0
  5 10  2  0  0  0  0
  6  7  2  0  0  0  0
  7  8  1  0  0  0  0
  7 11  1  0  0  0  0
  8  9  2  0  0  0  0
  9 10  1  0  0  0  0
 12 13  1  0  0  0  0
 12 18  2  0  0  0  0
 13 14  2  0  0  0  0
 14 15  1  0  0  0  0
 15 16  1  0  0  0  0
 15 17  2  0  0  0  0
 17 18  1  0  0  0  0
M  END
>  <Index>
1015

>  <ID>
HT1941

>  <class>
0

>  <apol>
36.265514

>  <ast_fraglike>
0

>  <ast_fraglike_ext>
0

>  <ast_violation>
1

>  <ast_violation_ext>
2

>  <a_acc>
4

>  <a_acid>
0

>  <a_aro>
12

>  <a_base>
0

>  <a_count>
30

>  <a_don>
2

>  <a_donacc>
6

>  <a_heavy>
18

>  <a_hyd>
10

>  <a_IC>
56.133419

>  <a_ICM>
1.871114

>  <a_nB>
0

>  <a_nBr>
0

>  <a_nC>
11

>  <a_nCl>
0

>  <a_nF>
0

>  <a_nH>
12

>  <a_nI>
0

>  <a_nN>
4

>  <a_nO>
2

>  <a_nP>
0

>  <a_nS>
1

>  <balabanJ>
1.8651451

>  <BCUT_PEOE_0>
-2.3250341

>  <BCUT_PEOE_1>
-0.65526789

>  <BCUT_PEOE_2>
0.66772771

>  <BCUT_PEOE_3>
2.454735

>  <BCUT_SLOGP_0>
-2.4389243

>  <BCUT_SLOGP_1>
-0.61753738

>  <BCUT_SLOGP_2>
0.71276426

>  <BCUT_SLOGP_3>
2.3930807

>  <BCUT_SMR_0>
-2.0014813

>  <BCUT_SMR_1>
-0.49417216

>  <BCUT_SMR_2>
0.86132127

>  <BCUT_SMR_3>
2.7633321

>  <bpol>
22.234484

>  <b_1rotN>
3

>  <b_1rotR>
0.15789473

>  <b_ar>
12

>  <b_count>
31

>  <b_double>
0

>  <b_heavy>
19

>  <b_max1len>
3

>  <b_rotN>
3

>  <b_rotR>
0.15789473

>  <b_single>
19

>  <b_triple>
0

>  <chi0>
13.173362

>  <chi0v>
10.47712

>  <chi0v_C>
6.4641018

>  <chi0_C>
7.5520415

>  <chi1>
8.4711637

>  <chi1v>
6.6358151

>  <chi1v_C>
2.9433756

>  <chi1_C>
4.1185918

>  <chiral>
0

>  <chiral_u>
0

>  <density>
0.82665759

>  <diameter>
10

>  <FCharge>
0

>  <GCUT_PEOE_0>
-0.84684914

>  <GCUT_PEOE_1>
-0.38231766

>  <GCUT_PEOE_2>
0.092006572

>  <GCUT_PEOE_3>
2.3234489

>  <GCUT_SLOGP_0>
-1.3342909

>  <GCUT_SLOGP_1>
-0.41787001

>  <GCUT_SLOGP_2>
0.1581957

>  <GCUT_SLOGP_3>
2.3681448

>  <GCUT_SMR_0>
-0.47983989

>  <GCUT_SMR_1>
-0.20203218

>  <GCUT_SMR_2>
0.21432193

>  <GCUT_SMR_3>
2.6121938

>  <Kier1>
14.409972

>  <Kier2>
5.9698215

>  <Kier3>
3.9958377

>  <KierA1>
11.022656

>  <KierA2>
4.4884605

>  <KierA3>
2.966105

>  <KierFlex>
2.7485976

>  <lip_acc>
6

>  <lip_don>
3

>  <lip_druglike>
1

>  <lip_violation>
0

>  <logP(o/w)>
0.233

>  <logS>
-2.5855899

>  <mr>
6.9002509

>  <mutagenic>
1

>  <nmol>
1

>  <opr_brigid>
12

>  <opr_leadlike>
1

>  <opr_nring>
2

>  <opr_nrot>
2

>  <opr_violation>
0

>  <PC+>
0

>  <PC->
0

>  <PEOE_PC+>
1.5292563

>  <PEOE_PC->
-1.5292563

>  <PEOE_RPC+>
0.20289111

>  <PEOE_RPC->
0.25823855

>  <PEOE_VSA+0>
59.687092

>  <PEOE_VSA+1>
25.592316

>  <PEOE_VSA+2>
25.857038

>  <PEOE_VSA+3>
0

>  <PEOE_VSA+4>
10.105608

>  <PEOE_VSA+5>
0

>  <PEOE_VSA+6>
4.1846013

>  <PEOE_VSA-0>
81.973557

>  <PEOE_VSA-1>
31.53034

>  <PEOE_VSA-2>
0

>  <PEOE_VSA-3>
0

>  <PEOE_VSA-4>
0

>  <PEOE_VSA-5>
0

>  <PEOE_VSA-6>
18.016272

>  <PEOE_VSA_FHYD>
0.87426782

>  <PEOE_VSA_FNEG>
0.51185757

>  <PEOE_VSA_FPNEG>
0.070116729

>  <PEOE_VSA_FPOL>
0.12573217

>  <PEOE_VSA_FPOS>
0.48814246

>  <PEOE_VSA_FPPOS>
0.055615436

>  <PEOE_VSA_HYD>
224.64035

>  <PEOE_VSA_NEG>
131.52017

>  <PEOE_VSA_PNEG>
18.016272

>  <PEOE_VSA_POL>
32.30648

>  <PEOE_VSA_POS>
125.42666

>  <PEOE_VSA_PPOS>
14.29021

>  <petitjean>
0.5

>  <petitjeanSC>
1

>  <Q_PC+>
0

>  <Q_PC->
0

>  <Q_RPC+>
0

>  <Q_RPC->
0

>  <Q_VSA_FHYD>
1

>  <Q_VSA_FNEG>
0

>  <Q_VSA_FPNEG>
0

>  <Q_VSA_FPOL>
0

>  <Q_VSA_FPOS>
1

>  <Q_VSA_FPPOS>
0

>  <Q_VSA_HYD>
256.94684

>  <Q_VSA_NEG>
0

>  <Q_VSA_PNEG>
0

>  <Q_VSA_POL>
0

>  <Q_VSA_POS>
256.94684

>  <Q_VSA_PPOS>
0

>  <radius>
5

>  <reactive>
0

>  <rings>
2

>  <RPC+>
0

>  <RPC->
0

>  <rsynth>
1

>  <SlogP>
1.16802

>  <SlogP_VSA0>
32.897186

>  <SlogP_VSA1>
98.147743

>  <SlogP_VSA2>
6.6407428

>  <SlogP_VSA3>
0

>  <SlogP_VSA4>
2.7567475

>  <SlogP_VSA5>
1.5507339

>  <SlogP_VSA6>
0

>  <SlogP_VSA7>
105.43027

>  <SlogP_VSA8>
0

>  <SlogP_VSA9>
37.981853

>  <SMR>
6.8431902

>  <SMR_VSA0>
48.171688

>  <SMR_VSA1>
33.57106

>  <SMR_VSA2>
1.5507339

>  <SMR_VSA3>
2.7567475

>  <SMR_VSA4>
21.060839

>  <SMR_VSA5>
138.32747

>  <SMR_VSA6>
0

>  <SMR_VSA7>
39.966759

>  <TPSA>
97.970001

>  <VAdjEq>
0.52150291

>  <VAdjMa>
5.2479277

>  <VDistEq>
3.0770042

>  <VDistMa>
8.031167

>  <vdw_area>
256.94684

>  <vdw_vol>
319.73215

>  <vsa_acc>
43.381676

>  <vsa_acid>
0

>  <vsa_base>
0

>  <vsa_don>
25.817696

>  <vsa_hyd>
146.33414

>  <vsa_other>
25.787182

>  <vsa_pol>
69.199371

>  <Weight>
264.30899

>  <weinerPath>
627

>  <weinerPol>
25

>  <zagreb>
92

$$$$