s1cc(nc1N)/C(=N/OC(C(O)=O)(C)C)/C(=O)N[C@H]1[C@@H](N(S(O)(=O)=O)C1=O)C
  MOE2013           2D

 28 29  0  0  1  0  0  0  0  0999 V2000
    0.0000    0.0000    0.0000 S   0  0  0  0  0  0  0  0  0  0  0  0
    0.4550   -1.4290    0.0000 C   0  0  0  0  0  0  0  0  0  0  0  0
   -0.7630   -2.3040    0.0000 C   0  0  0  0  0  0  0  0  0  0  0  0
   -1.9720   -1.4150    0.0000 N   0  0  0  0  0  0  0  0  0  0  0  0
   -1.5000    0.0090    0.0000 C   0  0  0  0  0  0  0  0  0  0  0  0
   -2.3750    1.2270    0.0000 N   0  0  0  0  0  0  0  0  0  0  0  0
   -0.7720   -3.8040    0.0000 C   0  0  0  0  0  0  0  0  0  0  0  0
   -2.0750   -4.5460    0.0000 N   0  0  0  0  0  0  0  0  0  0  0  0
   -2.0840   -6.0460    0.0000 O   0  0  0  0  0  0  0  0  0  0  0  0
   -3.3870   -6.7890    0.0000 C   0  0  0  0  0  0  0  0  0  0  0  0
   -4.6900   -7.5320    0.0000 C   0  0  0  0  0  0  0  0  0  0  0  0
   -4.6990   -9.0320    0.0000 O   0  0  0  0  0  0  0  0  0  0  0  0
   -5.9850   -6.7740    0.0000 O   0  0  0  0  0  0  0  0  0  0  0  0
   -2.6440   -8.0920    0.0000 C   0  0  0  0  0  0  0  0  0  0  0  0
   -4.1290   -5.4860    0.0000 C   0  0  0  0  0  0  0  0  0  0  0  0
    0.5230   -4.5610    0.0000 C   0  0  0  0  0  0  0  0  0  0  0  0
    0.5140   -6.0610    0.0000 O   0  0  0  0  0  0  0  0  0  0  0  0
    1.8260   -3.8190    0.0000 N   0  0  0  0  0  0  0  0  0  0  0  0
    3.1210   -4.5760    0.0000 C   0  0  1  0  0  0  0  0  0  0  0  0
    4.5720   -4.1960    0.0000 C   0  0  1  0  0  0  0  0  0  0  0  0
    4.9520   -5.6470    0.0000 N   0  0  0  0  0  0  0  0  0  0  0  0
    6.2470   -6.4050    0.0000 S   0  0  0  0  0  0  0  0  0  0  0  0
    7.5420   -7.1620    0.0000 O   0  0  0  0  0  0  0  0  0  0  0  0
    5.4890   -7.6990    0.0000 O   0  0  0  0  0  0  0  0  0  0  0  0
    7.0040   -5.1100    0.0000 O   0  0  0  0  0  0  0  0  0  0  0  0
    3.5010   -6.0270    0.0000 C   0  0  0  0  0  0  0  0  0  0  0  0
    2.7440   -7.3220    0.0000 O   0  0  0  0  0  0  0  0  0  0  0  0
    5.3300   -2.9010    0.0000 C   0  0  0  0  0  0  0  0  0  0  0  0
  1  2  1  0  0  0  0
  1  5  1  0  0  0  0
  2  3  2  0  0  0  0
  3  4  1  0  0  0  0
  3  7  1  0  0  0  0
  4  5  2  0  0  0  0
  5  6  1  0  0  0  0
  7  8  2  0  0  0  0
  7 16  1  0  0  0  0
  8  9  1  0  0  0  0
  9 10  1  0  0  0  0
 10 11  1  0  0  0  0
 10 14  1  0  0  0  0
 10 15  1  0  0  0  0
 11 12  1  0  0  0  0
 11 13  2  0  0  0  0
 16 17  2  0  0  0  0
 16 18  1  0  0  0  0
 19 18  1  1  0  0  0
 19 20  1  0  0  0  0
 19 26  1  0  0  0  0
 20 21  1  0  0  0  0
 20 28  1  6  0  0  0
 21 22  1  0  0  0  0
 21 26  1  0  0  0  0
 22 23  1  0  0  0  0
 22 24  2  0  0  0  0
 22 25  2  0  0  0  0
 26 27  2  0  0  0  0
M  END
>  <Index>
105

>  <ID>
HT0220

>  <class>
0

>  <apol>
51.93148

>  <ast_fraglike>
0

>  <ast_fraglike_ext>
0

>  <ast_violation>
3

>  <ast_violation_ext>
5

>  <a_acc>
9

>  <a_acid>
0

>  <a_aro>
5

>  <a_base>
0

>  <a_count>
45

>  <a_don>
7

>  <a_donacc>
16

>  <a_heavy>
28

>  <a_hyd>
9

>  <a_IC>
91.931168

>  <a_ICM>
2.0429149

>  <a_nB>
0

>  <a_nBr>
0

>  <a_nC>
13

>  <a_nCl>
0

>  <a_nF>
0

>  <a_nH>
17

>  <a_nI>
0

>  <a_nN>
5

>  <a_nO>
8

>  <a_nP>
0

>  <a_nS>
2

>  <balabanJ>
2.0435817

>  <BCUT_PEOE_0>
-2.6963766

>  <BCUT_PEOE_1>
-0.53589422

>  <BCUT_PEOE_2>
0.60877877

>  <BCUT_PEOE_3>
2.7597888

>  <BCUT_SLOGP_0>
-2.9335525

>  <BCUT_SLOGP_1>
-0.57662511

>  <BCUT_SLOGP_2>
0.56239897

>  <BCUT_SLOGP_3>
2.566057

>  <BCUT_SMR_0>
-2.4443309

>  <BCUT_SMR_1>
-0.37323835

>  <BCUT_SMR_2>
0.80207568

>  <BCUT_SMR_3>
3.0196209

>  <bpol>
35.430519

>  <b_1rotN>
7

>  <b_1rotR>
0.24137931

>  <b_ar>
5

>  <b_count>
46

>  <b_double>
4

>  <b_heavy>
29

>  <b_max1len>
4

>  <b_rotN>
8

>  <b_rotR>
0.27586207

>  <b_single>
37

>  <b_triple>
0

>  <chi0>
21.438793

>  <chi0v>
16.444448

>  <chi0v_C>
8.2320509

>  <chi0_C>
8.8259087

>  <chi1>
12.752744

>  <chi1v>
9.8556118

>  <chi1v_C>
3.2380338

>  <chi1_C>
3.6076071

>  <chiral>
2

>  <chiral_u>
0

>  <density>
0.95482612

>  <diameter>
12

>  <FCharge>
0

>  <GCUT_PEOE_0>
-0.82159543

>  <GCUT_PEOE_1>
-0.41347855

>  <GCUT_PEOE_2>
0.078798607

>  <GCUT_PEOE_3>
2.5430162

>  <GCUT_SLOGP_0>
-1.33456

>  <GCUT_SLOGP_1>
-0.49440673

>  <GCUT_SLOGP_2>
0.087343387

>  <GCUT_SLOGP_3>
2.4540646

>  <GCUT_SMR_0>
-0.53752738

>  <GCUT_SMR_1>
-0.20957987

>  <GCUT_SMR_2>
0.27658179

>  <GCUT_SMR_3>
2.8032525

>  <Kier1>
24.271107

>  <Kier2>
9.0133333

>  <Kier3>
5.5867767

>  <KierA1>
21.456348

>  <KierA2>
7.9300046

>  <KierA3>
4.8985915

>  <KierFlex>
6.0767479

>  <lip_acc>
13

>  <lip_don>
5

>  <lip_druglike>
1

>  <lip_violation>
1

>  <logP(o/w)>
-1.096

>  <logS>
-2.7604401

>  <mr>
9.5701504

>  <mutagenic>
1

>  <nmol>
1

>  <opr_brigid>
10

>  <opr_leadlike>
1

>  <opr_nring>
2

>  <opr_nrot>
6

>  <opr_violation>
1

>  <PC+>
0

>  <PC->
0

>  <PEOE_PC+>
3.082401

>  <PEOE_PC->
-3.082401

>  <PEOE_RPC+>
0.10135185

>  <PEOE_RPC->
0.16063142

>  <PEOE_VSA+0>
42.653858

>  <PEOE_VSA+1>
34.688869

>  <PEOE_VSA+2>
30.187557

>  <PEOE_VSA+3>
45.403355

>  <PEOE_VSA+4>
10.324173

>  <PEOE_VSA+5>
27.65803

>  <PEOE_VSA+6>
15.105593

>  <PEOE_VSA-0>
88.25956

>  <PEOE_VSA-1>
14.230966

>  <PEOE_VSA-2>
10.885262

>  <PEOE_VSA-3>
10.208881

>  <PEOE_VSA-4>
11.584935

>  <PEOE_VSA-5>
33.784962

>  <PEOE_VSA-6>
21.471352

>  <PEOE_VSA_FHYD>
0.69749063

>  <PEOE_VSA_FNEG>
0.48033091

>  <PEOE_VSA_FPNEG>
0.16860057

>  <PEOE_VSA_FPOL>
0.3025094

>  <PEOE_VSA_FPOS>
0.51966912

>  <PEOE_VSA_FPPOS>
0.13390882

>  <PEOE_VSA_HYD>
276.51831

>  <PEOE_VSA_NEG>
190.42592

>  <PEOE_VSA_PNEG>
66.841248

>  <PEOE_VSA_POL>
119.92905

>  <PEOE_VSA_POS>
206.02144

>  <PEOE_VSA_PPOS>
53.087795

>  <petitjean>
0.5

>  <petitjeanSC>
1

>  <Q_PC+>
0

>  <Q_PC->
0

>  <Q_RPC+>
0

>  <Q_RPC->
0

>  <Q_VSA_FHYD>
1

>  <Q_VSA_FNEG>
0

>  <Q_VSA_FPNEG>
0

>  <Q_VSA_FPOL>
0

>  <Q_VSA_FPOS>
1

>  <Q_VSA_FPPOS>
0

>  <Q_VSA_HYD>
396.44736

>  <Q_VSA_NEG>
0

>  <Q_VSA_PNEG>
0

>  <Q_VSA_POL>
0

>  <Q_VSA_POS>
396.44736

>  <Q_VSA_PPOS>
0

>  <radius>
6

>  <reactive>
1

>  <rings>
2

>  <RPC+>
0

>  <RPC->
0

>  <rsynth>
0.75

>  <SlogP>
-1.7381999

>  <SlogP_VSA0>
73.838692

>  <SlogP_VSA1>
87.49556

>  <SlogP_VSA2>
99.113976

>  <SlogP_VSA3>
25.385227

>  <SlogP_VSA4>
2.7567475

>  <SlogP_VSA5>
19.399862

>  <SlogP_VSA6>
0

>  <SlogP_VSA7>
15.81601

>  <SlogP_VSA8>
0

>  <SlogP_VSA9>
131.75648

>  <SMR>
9.5240498

>  <SMR_VSA0>
130.9771

>  <SMR_VSA1>
60.634705

>  <SMR_VSA2>
43.395977

>  <SMR_VSA3>
10.720685

>  <SMR_VSA4>
0.50074643

>  <SMR_VSA5>
48.7132

>  <SMR_VSA6>
21.019779

>  <SMR_VSA7>
139.60036

>  <TPSA>
201.58

>  <VAdjEq>
0.38060221

>  <VAdjMa>
5.8579812

>  <VDistEq>
3.4598429

>  <VDistMa>
9.3469

>  <vdw_area>
396.44736

>  <vdw_vol>
456.03906

>  <vsa_acc>
43.701679

>  <vsa_acid>
0

>  <vsa_base>
0

>  <vsa_don>
23.425066

>  <vsa_hyd>
145.86917

>  <vsa_other>
81.481689

>  <vsa_pol>
142.28537

>  <Weight>
435.43799

>  <weinerPath>
2092

>  <weinerPol>
42

>  <zagreb>
148

$$$$