Clc1c2Oc3cc4C(NC(=O)C(NC(=O)C(NC(=O)C(NC)CC(C)C)C(O)c(c1)cc2)CC(=O)N)C(=O)NC1c2cc(-c5c(cc(O)cc5O)C(NC(=O)C(NC1=O)C(O)c1cc(Cl)c(Oc(c4)c3OC3OC(CO)C(O)C(O)C3OC3OC(C)C(O)C(N)(C3)C)cc1)C(O)=O)c(O)cc2
  MOE2013           2D

101110  0  0  1  0  0  0  0  0999 V2000
    0.0000    0.0000    0.0000 Cl  0  0  0  0  0  0  0  0  0  0  0  0
    1.0220    1.0980    0.0000 C   0  0  0  0  0  0  0  0  0  0  0  0
    2.4010    0.5160    0.0000 C   0  0  0  0  0  0  0  0  0  0  0  0
    2.6450   -0.9690    0.0000 O   0  0  0  0  0  0  0  0  0  0  0  0
    4.0800   -1.4510    0.0000 C   0  0  0  0  0  0  0  0  0  0  0  0
    5.1930   -0.4450    0.0000 C   0  0  0  0  0  0  0  0  0  0  0  0
    6.6210   -0.9000    0.0000 C   0  0  0  0  0  0  0  0  0  0  0  0
    7.7490    0.0670    0.0000 C   0  0  3  0  0  0  0  0  0  0  0  0
    7.7610    1.4770    0.0000 N   0  0  0  0  0  0  0  0  0  0  0  0
    6.6670    2.4720    0.0000 C   0  0  0  0  0  0  0  0  0  0  0  0
    8.0960    2.9310    0.0000 O   0  0  0  0  0  0  0  0  0  0  0  0
    6.9860    3.9490    0.0000 C   0  0  3  0  0  0  0  0  0  0  0  0
    5.8990    4.9700    0.0000 N   0  0  0  0  0  0  0  0  0  0  0  0
    4.4740    4.6060    0.0000 C   0  0  0  0  0  0  0  0  0  0  0  0
    4.8560    6.0570    0.0000 O   0  0  0  0  0  0  0  0  0  0  0  0
    3.3760    5.6590    0.0000 C   0  0  3  0  0  0  0  0  0  0  0  0
    3.6290    7.1370    0.0000 N   0  0  0  0  0  0  0  0  0  0  0  0
    2.4760    8.0960    0.0000 C   0  0  0  0  0  0  0  0  0  0  0  0
    1.0690    7.5770    0.0000 O   0  0  0  0  0  0  0  0  0  0  0  0
    2.7300    9.5750    0.0000 C   0  0  3  0  0  0  0  0  0  0  0  0
    4.1370   10.0940    0.0000 N   0  0  0  0  0  0  0  0  0  0  0  0
    4.3910   11.5730    0.0000 C   0  0  0  0  0  0  0  0  0  0  0  0
    1.5760   10.5340    0.0000 C   0  0  0  0  0  0  0  0  0  0  0  0
    1.8300   12.0120    0.0000 C   0  0  0  0  0  0  0  0  0  0  0  0
    3.2370   12.5310    0.0000 C   0  0  0  0  0  0  0  0  0  0  0  0
    0.6760   12.9710    0.0000 C   0  0  0  0  0  0  0  0  0  0  0  0
    1.9380    5.0100    0.0000 C   0  0  3  0  0  0  0  0  0  0  0  0
    0.6540    5.7850    0.0000 O   0  0  0  0  0  0  0  0  0  0  0  0
    2.0290    3.4910    0.0000 C   0  0  0  0  0  0  0  0  0  0  0  0
    0.8380    2.5930    0.0000 C   0  0  0  0  0  0  0  0  0  0  0  0
    3.4170    2.9080    0.0000 C   0  0  0  0  0  0  0  0  0  0  0  0
    3.6000    1.4230    0.0000 C   0  0  0  0  0  0  0  0  0  0  0  0
    8.4180    4.3950    0.0000 C   0  0  0  0  0  0  0  0  0  0  0  0
    8.7480    5.8590    0.0000 C   0  0  0  0  0  0  0  0  0  0  0  0
   10.1800    6.3050    0.0000 O   0  0  0  0  0  0  0  0  0  0  0  0
    7.6450    6.8760    0.0000 N   0  0  0  0  0  0  0  0  0  0  0  0
    9.1740   -0.4180    0.0000 C   0  0  0  0  0  0  0  0  0  0  0  0
   10.2980    0.5760    0.0000 O   0  0  0  0  0  0  0  0  0  0  0  0
    9.4770   -1.8810    0.0000 N   0  0  0  0  0  0  0  0  0  0  0  0
   10.8980   -2.3750    0.0000 C   0  0  3  0  0  0  0  0  0  0  0  0
   12.1910   -1.5760    0.0000 C   0  0  0  0  0  0  0  0  0  0  0  0
   13.5140   -2.3000    0.0000 C   0  0  0  0  0  0  0  0  0  0  0  0
   14.7910   -1.5230    0.0000 C   0  0  0  0  0  0  0  0  0  0  0  0
   16.1510   -1.8840    0.0000 C   0  0  0  0  0  0  0  0  0  0  0  0
   17.0080   -3.0430    0.0000 C   0  0  0  0  0  0  0  0  0  0  0  0
   18.3380   -3.7460    0.0000 C   0  0  0  0  0  0  0  0  0  0  0  0
   19.7160   -3.1530    0.0000 C   0  0  0  0  0  0  0  0  0  0  0  0
   21.1310   -3.6490    0.0000 O   0  0  0  0  0  0  0  0  0  0  0  0
   19.0080   -1.8280    0.0000 C   0  0  0  0  0  0  0  0  0  0  0  0
   17.5710   -1.3920    0.0000 C   0  0  0  0  0  0  0  0  0  0  0  0
   17.5420    0.1080    0.0000 O   0  0  0  0  0  0  0  0  0  0  0  0
   16.5230   -4.4730    0.0000 C   0  0  3  0  0  0  0  0  0  0  0  0
   15.0750   -4.7260    0.0000 N   0  0  0  0  0  0  0  0  0  0  0  0
   14.3960   -6.0650    0.0000 C   0  0  0  0  0  0  0  0  0  0  0  0
   15.1020   -7.3880    0.0000 O   0  0  0  0  0  0  0  0  0  0  0  0
   12.8360   -5.8730    0.0000 C   0  0  3  0  0  0  0  0  0  0  0  0
   12.4870   -4.4130    0.0000 N   0  0  0  0  0  0  0  0  0  0  0  0
   11.1010   -3.9090    0.0000 C   0  0  0  0  0  0  0  0  0  0  0  0
   12.2700   -2.9700    0.0000 O   0  0  0  0  0  0  0  0  0  0  0  0
   11.7290   -6.9030    0.0000 C   0  0  3  0  0  0  0  0  0  0  0  0
   12.0380   -8.3710    0.0000 O   0  0  0  0  0  0  0  0  0  0  0  0
   10.3090   -6.4080    0.0000 C   0  0  0  0  0  0  0  0  0  0  0  0
    9.1570   -7.3650    0.0000 C   0  0  0  0  0  0  0  0  0  0  0  0
    7.7500   -6.8420    0.0000 C   0  0  0  0  0  0  0  0  0  0  0  0
    6.5940   -7.7990    0.0000 Cl  0  0  0  0  0  0  0  0  0  0  0  0
    7.4990   -5.3630    0.0000 C   0  0  0  0  0  0  0  0  0  0  0  0
    6.0960   -4.8420    0.0000 O   0  0  0  0  0  0  0  0  0  0  0  0
    5.8210   -3.3770    0.0000 C   0  0  0  0  0  0  0  0  0  0  0  0
    6.9320   -2.3770    0.0000 C   0  0  0  0  0  0  0  0  0  0  0  0
    4.3940   -2.9170    0.0000 C   0  0  0  0  0  0  0  0  0  0  0  0
    3.0050   -3.4810    0.0000 O   0  0  0  0  0  0  0  0  0  0  0  0
    2.7990   -4.9670    0.0000 C   0  0  3  0  0  0  0  0  0  0  0  0
    4.1250   -5.6690    0.0000 O   0  0  0  0  0  0  0  0  0  0  0  0
    4.1800   -7.1680    0.0000 C   0  0  3  0  0  0  0  0  0  0  0  0
    5.6070   -7.6280    0.0000 C   0  0  0  0  0  0  0  0  0  0  0  0
    5.9220   -9.0950    0.0000 O   0  0  0  0  0  0  0  0  0  0  0  0
    2.9090   -7.9650    0.0000 C   0  0  3  0  0  0  0  0  0  0  0  0
    2.9650   -9.4640    0.0000 O   0  0  0  0  0  0  0  0  0  0  0  0
    1.5840   -7.2640    0.0000 C   0  0  3  0  0  0  0  0  0  0  0  0
    0.3130   -8.0610    0.0000 O   0  0  0  0  0  0  0  0  0  0  0  0
    1.5280   -5.7650    0.0000 C   0  0  3  0  0  0  0  0  0  0  0  0
    0.2020   -5.0630    0.0000 O   0  0  0  0  0  0  0  0  0  0  0  0
   -1.0680   -5.8600    0.0000 C   0  0  3  0  0  0  0  0  0  0  0  0
   -1.0130   -7.3590    0.0000 O   0  0  0  0  0  0  0  0  0  0  0  0
   -2.2830   -8.1570    0.0000 C   0  0  3  0  0  0  0  0  0  0  0  0
   -2.2280   -9.6560    0.0000 C   0  0  0  0  0  0  0  0  0  0  0  0
   -3.6090   -7.4550    0.0000 C   0  0  3  0  0  0  0  0  0  0  0  0
   -4.8800   -8.2530    0.0000 O   0  0  0  0  0  0  0  0  0  0  0  0
   -3.6640   -5.9560    0.0000 C   0  0  3  0  0  0  0  0  0  0  0  0
   -4.4620   -4.6860    0.0000 N   0  0  0  0  0  0  0  0  0  0  0  0
   -2.3940   -5.1590    0.0000 C   0  0  0  0  0  0  0  0  0  0  0  0
   -5.1630   -6.0120    0.0000 C   0  0  0  0  0  0  0  0  0  0  0  0
    8.6550   -4.4070    0.0000 C   0  0  0  0  0  0  0  0  0  0  0  0
   10.0600   -4.9290    0.0000 C   0  0  0  0  0  0  0  0  0  0  0  0
   17.5000   -5.6110    0.0000 C   0  0  0  0  0  0  0  0  0  0  0  0
   18.9740   -5.3330    0.0000 O   0  0  0  0  0  0  0  0  0  0  0  0
   17.0040   -7.0260    0.0000 O   0  0  0  0  0  0  0  0  0  0  0  0
   14.7610   -0.0200    0.0000 C   0  0  0  0  0  0  0  0  0  0  0  0
   16.0440    0.7570    0.0000 O   0  0  0  0  0  0  0  0  0  0  0  0
   13.4440    0.7030    0.0000 C   0  0  0  0  0  0  0  0  0  0  0  0
   12.1600   -0.0750    0.0000 C   0  0  0  0  0  0  0  0  0  0  0  0
  1  2  1  0  0  0  0
  2  3  1  0  0  0  0
  2 30  2  0  0  0  0
  3  4  1  0  0  0  0
  3 32  2  0  0  0  0
  4  5  1  0  0  0  0
  5  6  1  0  0  0  0
  5 70  2  0  0  0  0
  6  7  2  0  0  0  0
  7  8  1  0  0  0  0
  7 69  1  0  0  0  0
  8  9  1  0  0  0  0
  8 37  1  0  0  0  0
  9 10  1  0  0  0  0
 10 11  2  0  0  0  0
 10 12  1  0  0  0  0
 12 13  1  0  0  0  0
 12 33  1  0  0  0  0
 13 14  1  0  0  0  0
 14 15  2  0  0  0  0
 14 16  1  0  0  0  0
 16 17  1  0  0  0  0
 16 27  1  0  0  0  0
 17 18  1  0  0  0  0
 18 19  2  0  0  0  0
 18 20  1  0  0  0  0
 20 21  1  0  0  0  0
 20 23  1  0  0  0  0
 21 22  1  0  0  0  0
 23 24  1  0  0  0  0
 24 25  1  0  0  0  0
 24 26  1  0  0  0  0
 27 28  1  0  0  0  0
 27 29  1  0  0  0  0
 29 30  1  0  0  0  0
 29 31  2  0  0  0  0
 31 32  1  0  0  0  0
 33 34  1  0  0  0  0
 34 35  2  0  0  0  0
 34 36  1  0  0  0  0
 37 38  2  0  0  0  0
 37 39  1  0  0  0  0
 39 40  1  0  0  0  0
 40 41  1  0  0  0  0
 40 58  1  0  0  0  0
 41 42  1  0  0  0  0
 41101  2  0  0  0  0
 42 43  2  0  0  0  0
 43 44  1  0  0  0  0
 43 98  1  0  0  0  0
 44 45  1  0  0  0  0
 44 50  2  0  0  0  0
 45 46  2  0  0  0  0
 45 52  1  0  0  0  0
 46 47  1  0  0  0  0
 47 48  1  0  0  0  0
 47 49  2  0  0  0  0
 49 50  1  0  0  0  0
 50 51  1  0  0  0  0
 52 53  1  0  0  0  0
 52 95  1  0  0  0  0
 53 54  1  0  0  0  0
 54 55  2  0  0  0  0
 54 56  1  0  0  0  0
 56 57  1  0  0  0  0
 56 60  1  0  0  0  0
 57 58  1  0  0  0  0
 58 59  2  0  0  0  0
 60 61  1  0  0  0  0
 60 62  1  0  0  0  0
 62 63  1  0  0  0  0
 62 94  2  0  0  0  0
 63 64  2  0  0  0  0
 64 65  1  0  0  0  0
 64 66  1  0  0  0  0
 66 67  1  0  0  0  0
 66 93  2  0  0  0  0
 67 68  1  0  0  0  0
 68 69  2  0  0  0  0
 68 70  1  0  0  0  0
 70 71  1  0  0  0  0
 71 72  1  0  0  0  0
 72 73  1  0  0  0  0
 72 81  1  0  0  0  0
 73 74  1  0  0  0  0
 74 75  1  0  0  0  0
 74 77  1  0  0  0  0
 75 76  1  0  0  0  0
 77 78  1  0  0  0  0
 77 79  1  0  0  0  0
 79 80  1  0  0  0  0
 79 81  1  0  0  0  0
 81 82  1  0  0  0  0
 82 83  1  0  0  0  0
 83 84  1  0  0  0  0
 83 91  1  0  0  0  0
 84 85  1  0  0  0  0
 85 86  1  0  0  0  0
 85 87  1  0  0  0  0
 87 88  1  0  0  0  0
 87 89  1  0  0  0  0
 89 90  1  0  0  0  0
 89 91  1  0  0  0  0
 89 92  1  0  0  0  0
 93 94  1  0  0  0  0
 95 96  1  0  0  0  0
 95 97  2  0  0  0  0
 98 99  1  0  0  0  0
 98100  2  0  0  0  0
100101  1  0  0  0  0
M  END
>  <Index>
1136

>  <ID>
HT2165

>  <class>
0

>  <apol>
199.67747

>  <ast_fraglike>
0

>  <ast_fraglike_ext>
0

>  <ast_violation>
3

>  <ast_violation_ext>
5

>  <a_acc>
24

>  <a_acid>
0

>  <a_aro>
30

>  <a_base>
0

>  <a_count>
176

>  <a_don>
20

>  <a_donacc>
44

>  <a_heavy>
101

>  <a_hyd>
58

>  <a_IC>
306.20013

>  <a_ICM>
1.7397734

>  <a_nB>
0

>  <a_nBr>
0

>  <a_nC>
66

>  <a_nCl>
2

>  <a_nF>
0

>  <a_nH>
75

>  <a_nI>
0

>  <a_nN>
9

>  <a_nO>
24

>  <a_nP>
0

>  <a_nS>
0

>  <balabanJ>
1.1192105

>  <BCUT_PEOE_0>
-2.7926123

>  <BCUT_PEOE_1>
-0.64445978

>  <BCUT_PEOE_2>
0.6800639

>  <BCUT_PEOE_3>
2.8210177

>  <BCUT_SLOGP_0>
-2.9527528

>  <BCUT_SLOGP_1>
-0.60094392

>  <BCUT_SLOGP_2>
0.61458409

>  <BCUT_SLOGP_3>
2.7005188

>  <BCUT_SMR_0>
-2.5703039

>  <BCUT_SMR_1>
-0.46081805

>  <BCUT_SMR_2>
0.80537421

>  <BCUT_SMR_3>
3.0253007

>  <bpol>
105.29053

>  <b_1rotN>
13

>  <b_1rotR>
0.11818182

>  <b_ar>
30

>  <b_count>
185

>  <b_double>
8

>  <b_heavy>
110

>  <b_max1len>
7

>  <b_rotN>
14

>  <b_rotR>
0.12727273

>  <b_single>
147

>  <b_triple>
0

>  <chi0>
73.539268

>  <chi0v>
55.836384

>  <chi0v_C>
38.726284

>  <chi0_C>
42.346878

>  <chi1>
47.656162

>  <chi1v>
32.377159

>  <chi1v_C>
19.840012

>  <chi1_C>
23.988735

>  <chiral>
18

>  <chiral_u>
18

>  <density>
0.83646166

>  <diameter>
24

>  <FCharge>
0

>  <GCUT_PEOE_0>
-0.83518398

>  <GCUT_PEOE_1>
-0.45172697

>  <GCUT_PEOE_2>
0.092941821

>  <GCUT_PEOE_3>
3.4881532

>  <GCUT_SLOGP_0>
-1.3705757

>  <GCUT_SLOGP_1>
-0.40078714

>  <GCUT_SLOGP_2>
0.12098321

>  <GCUT_SLOGP_3>
3.5033097

>  <GCUT_SMR_0>
-0.53268588

>  <GCUT_SMR_1>
-0.25046563

>  <GCUT_SMR_2>
0.21799253

>  <GCUT_SMR_3>
3.736131

>  <Kier1>
83.471077

>  <Kier2>
36

>  <Kier3>
19.487055

>  <KierA1>
68.105606

>  <KierA2>
29.310869

>  <KierA3>
15.843143

>  <KierFlex>
19.764698

>  <lip_acc>
33

>  <lip_don>
21

>  <lip_druglike>
0

>  <lip_violation>
3

>  <logP(o/w)>
0.70073998

>  <logS>
-12.25592

>  <mr>
35.217102

>  <mutagenic>
0

>  <nmol>
1

>  <opr_brigid>
69

>  <opr_leadlike>
0

>  <opr_nring>
7

>  <opr_nrot>
39

>  <opr_violation>
5

>  <PC+>
0

>  <PC->
0

>  <PEOE_PC+>
11.828589

>  <PEOE_PC->
-11.828589

>  <PEOE_RPC+>
0.024245212

>  <PEOE_RPC->
0.033171002

>  <PEOE_VSA+0>
106.95689

>  <PEOE_VSA+1>
207.51582

>  <PEOE_VSA+2>
116.45497

>  <PEOE_VSA+3>
91.261925

>  <PEOE_VSA+4>
193.88844

>  <PEOE_VSA+5>
14.708499

>  <PEOE_VSA+6>
0

>  <PEOE_VSA-0>
203.0271

>  <PEOE_VSA-1>
133.42397

>  <PEOE_VSA-2>
0

>  <PEOE_VSA-3>
0

>  <PEOE_VSA-4>
0

>  <PEOE_VSA-5>
108.53537

>  <PEOE_VSA-6>
106.95841

>  <PEOE_VSA_FHYD>
0.6693846

>  <PEOE_VSA_FNEG>
0.4302887

>  <PEOE_VSA_FPNEG>
0.16799603

>  <PEOE_VSA_FPOL>
0.33061537

>  <PEOE_VSA_FPOS>
0.56971127

>  <PEOE_VSA_FPPOS>
0.16261935

>  <PEOE_VSA_HYD>
858.64069

>  <PEOE_VSA_NEG>
551.94482

>  <PEOE_VSA_PNEG>
215.49377

>  <PEOE_VSA_POL>
424.09073

>  <PEOE_VSA_POS>
730.78656

>  <PEOE_VSA_PPOS>
208.59694

>  <petitjean>
0.45833334

>  <petitjeanSC>
0.84615386

>  <Q_PC+>
0

>  <Q_PC->
0

>  <Q_RPC+>
0

>  <Q_RPC->
0

>  <Q_VSA_FHYD>
1

>  <Q_VSA_FNEG>
0

>  <Q_VSA_FPNEG>
0

>  <Q_VSA_FPOL>
0

>  <Q_VSA_FPOS>
1

>  <Q_VSA_FPPOS>
0

>  <Q_VSA_HYD>
1282.7314

>  <Q_VSA_NEG>
0

>  <Q_VSA_PNEG>
0

>  <Q_VSA_POL>
0

>  <Q_VSA_POS>
1282.7314

>  <Q_VSA_PPOS>
0

>  <radius>
13

>  <reactive>
1

>  <rings>
10

>  <RPC+>
0

>  <RPC->
0

>  <rsynth>
0.81188118

>  <SlogP>
0.5837

>  <SlogP_VSA0>
453.33633

>  <SlogP_VSA1>
44.55695

>  <SlogP_VSA2>
295.69016

>  <SlogP_VSA3>
46.311485

>  <SlogP_VSA4>
20.338671

>  <SlogP_VSA5>
32.897186

>  <SlogP_VSA6>
7.0012131

>  <SlogP_VSA7>
235.73254

>  <SlogP_VSA8>
81.488419

>  <SlogP_VSA9>
253.54877

>  <SMR>
34.984669

>  <SMR_VSA0>
223.8974

>  <SMR_VSA1>
261.46671

>  <SMR_VSA2>
155.87128

>  <SMR_VSA3>
161.55249

>  <SMR_VSA4>
72.165527

>  <SMR_VSA5>
285.96661

>  <SMR_VSA6>
65.483208

>  <SMR_VSA7>
244.49854

>  <TPSA>
530.48999

>  <VAdjEq>
0.15014797

>  <VAdjMa>
7.7813597

>  <VDistEq>
4.3313766

>  <VDistMa>
13.114013

>  <vdw_area>
1282.7314

>  <vdw_vol>
1732.6208

>  <vsa_acc>
104.98347

>  <vsa_acid>
0

>  <vsa_base>
0

>  <vsa_don>
51.837948

>  <vsa_hyd>
694.63251

>  <vsa_other>
139.77972

>  <vsa_pol>
329.4826

>  <Weight>
1449.271

>  <weinerPath>
52810

>  <weinerPol>
201

>  <zagreb>
550

$$$$