o1c(ccc1[N+](=O)[O-])C=NO
  MOE2013           2D

 11 11  0  0  0  0  0  0  0  0999 V2000
    0.0000    0.0000    0.0000 O   0  0  0  0  0  0  0  0  0  0  0  0
    1.2830    0.7770    0.0000 C   0  0  0  0  0  0  0  0  0  0  0  0
    0.9400    2.2380    0.0000 C   0  0  0  0  0  0  0  0  0  0  0  0
   -0.5550    2.3630    0.0000 C   0  0  0  0  0  0  0  0  0  0  0  0
   -1.1360    0.9800    0.0000 C   0  0  0  0  0  0  0  0  0  0  0  0
   -2.5960    0.6370    0.0000 N   0  3  0  0  0  0  0  0  0  0  0  0
   -3.6230    1.7300    0.0000 O   0  0  0  0  0  0  0  0  0  0  0  0
   -3.0290   -0.7990    0.0000 O   0  5  0  0  0  0  0  0  0  0  0  0
    2.6660    0.1970    0.0000 C   0  0  0  0  0  0  0  0  0  0  0  0
    3.8600    1.1040    0.0000 N   0  0  0  0  0  0  0  0  0  0  0  0
    5.2430    0.5230    0.0000 O   0  0  0  0  0  0  0  0  0  0  0  0
  1  2  1  0  0  0  0
  1  5  1  0  0  0  0
  2  3  2  0  0  0  0
  2  9  1  0  0  0  0
  3  4  1  0  0  0  0
  4  5  2  0  0  0  0
  5  6  1  0  0  0  0
  6  7  2  0  0  0  0
  6  8  1  0  0  0  0
  9 10  2  3  0  0  0
 10 11  1  0  0  0  0
M  CHG  1   6   1
M  CHG  1   8  -1
M  END
>  <Index>
1232

>  <ID>
HT2656

>  <class>
0

>  <apol>
16.875172

>  <ast_fraglike>
1

>  <ast_fraglike_ext>
1

>  <ast_violation>
0

>  <ast_violation_ext>
0

>  <a_acc>
2

>  <a_acid>
0

>  <a_aro>
5

>  <a_base>
0

>  <a_count>
15

>  <a_don>
1

>  <a_donacc>
3

>  <a_heavy>
11

>  <a_hyd>
3

>  <a_IC>
28.993719

>  <a_ICM>
1.9329146

>  <a_nB>
0

>  <a_nBr>
0

>  <a_nC>
5

>  <a_nCl>
0

>  <a_nF>
0

>  <a_nH>
4

>  <a_nI>
0

>  <a_nN>
2

>  <a_nO>
4

>  <a_nP>
0

>  <a_nS>
0

>  <balabanJ>
2.2664289

>  <BCUT_PEOE_0>
-1.8942871

>  <BCUT_PEOE_1>
-0.66273224

>  <BCUT_PEOE_2>
0.70045966

>  <BCUT_PEOE_3>
2.2521157

>  <BCUT_SLOGP_0>
-1.9559195

>  <BCUT_SLOGP_1>
-0.54471505

>  <BCUT_SLOGP_2>
0.81614244

>  <BCUT_SLOGP_3>
2.2768705

>  <BCUT_SMR_0>
-1.6785198

>  <BCUT_SMR_1>
-0.47798592

>  <BCUT_SMR_2>
0.93337083

>  <BCUT_SMR_3>
2.4397616

>  <bpol>
7.5448279

>  <b_1rotN>
2

>  <b_1rotR>
0.18181819

>  <b_ar>
5

>  <b_count>
15

>  <b_double>
2

>  <b_heavy>
11

>  <b_max1len>
1

>  <b_rotN>
2

>  <b_rotR>
0.18181819

>  <b_single>
8

>  <b_triple>
0

>  <chi0>
8.2675848

>  <chi0v>
5.2984366

>  <chi0v_C>
2.7320509

>  <chi0_C>
3.2760208

>  <chi1>
5.236382

>  <chi1v>
2.654561

>  <chi1v_C>
1.1993587

>  <chi1_C>
1.7247449

>  <chiral>
0

>  <chiral_u>
0

>  <density>
0.96505147

>  <diameter>
7

>  <FCharge>
0

>  <GCUT_PEOE_0>
-0.75107545

>  <GCUT_PEOE_1>
-0.48947054

>  <GCUT_PEOE_2>
0.1359722

>  <GCUT_PEOE_3>
1.9711854

>  <GCUT_SLOGP_0>
-0.80939603

>  <GCUT_SLOGP_1>
-0.29273134

>  <GCUT_SLOGP_2>
0.23643562

>  <GCUT_SLOGP_3>
2.0085835

>  <GCUT_SMR_0>
-0.49465087

>  <GCUT_SMR_1>
-0.21612218

>  <GCUT_SMR_2>
0.32277077

>  <GCUT_SMR_3>
2.1715484

>  <Kier1>
9.090909

>  <Kier2>
4.1326532

>  <Kier3>
2.5

>  <KierA1>
6.3549809

>  <KierA2>
2.7722239

>  <KierA3>
1.6155653

>  <KierFlex>
1.6015847

>  <lip_acc>
6

>  <lip_don>
1

>  <lip_druglike>
1

>  <lip_violation>
0

>  <logP(o/w)>
0.94099998

>  <logS>
-2.0592699

>  <mr>
3.4085379

>  <mutagenic>
1

>  <nmol>
1

>  <opr_brigid>
6

>  <opr_leadlike>
1

>  <opr_nring>
1

>  <opr_nrot>
2

>  <opr_violation>
0

>  <PC+>
0

>  <PC->
0

>  <PEOE_PC+>
1.4069514

>  <PEOE_PC->
-1.4069514

>  <PEOE_RPC+>
0.31564167

>  <PEOE_RPC->
0.25347641

>  <PEOE_VSA+0>
12.254904

>  <PEOE_VSA+1>
25.051062

>  <PEOE_VSA+2>
16.745916

>  <PEOE_VSA+3>
0

>  <PEOE_VSA+4>
10.324173

>  <PEOE_VSA+5>
8.458519

>  <PEOE_VSA+6>
12.949531

>  <PEOE_VSA-0>
4.0280342

>  <PEOE_VSA-1>
0

>  <PEOE_VSA-2>
10.885262

>  <PEOE_VSA-3>
0

>  <PEOE_VSA-4>
0

>  <PEOE_VSA-5>
13.6699

>  <PEOE_VSA-6>
33.931049

>  <PEOE_VSA_FHYD>
0.46504346

>  <PEOE_VSA_FNEG>
0.42154378

>  <PEOE_VSA_FPNEG>
0.32098097

>  <PEOE_VSA_FPOL>
0.53495651

>  <PEOE_VSA_FPOS>
0.57845622

>  <PEOE_VSA_FPPOS>
0.21397556

>  <PEOE_VSA_HYD>
68.965179

>  <PEOE_VSA_NEG>
62.514244

>  <PEOE_VSA_PNEG>
47.600948

>  <PEOE_VSA_POL>
79.333168

>  <PEOE_VSA_POS>
85.784103

>  <PEOE_VSA_PPOS>
31.732224

>  <petitjean>
0.42857143

>  <petitjeanSC>
0.75

>  <Q_PC+>
0

>  <Q_PC->
0

>  <Q_RPC+>
0

>  <Q_RPC->
0

>  <Q_VSA_FHYD>
1

>  <Q_VSA_FNEG>
0

>  <Q_VSA_FPNEG>
0

>  <Q_VSA_FPOL>
0

>  <Q_VSA_FPOS>
1

>  <Q_VSA_FPPOS>
0

>  <Q_VSA_HYD>
148.29836

>  <Q_VSA_NEG>
0

>  <Q_VSA_PNEG>
0

>  <Q_VSA_POL>
0

>  <Q_VSA_POS>
148.29836

>  <Q_VSA_PPOS>
0

>  <radius>
4

>  <reactive>
1

>  <rings>
1

>  <RPC+>
0

>  <RPC->
0

>  <rsynth>
1

>  <SlogP>
0.99589998

>  <SlogP_VSA0>
0

>  <SlogP_VSA1>
7.0856161

>  <SlogP_VSA2>
42.818459

>  <SlogP_VSA3>
50.935009

>  <SlogP_VSA4>
5.4488211

>  <SlogP_VSA5>
28.907207

>  <SlogP_VSA6>
0

>  <SlogP_VSA7>
35.286369

>  <SlogP_VSA8>
0

>  <SlogP_VSA9>
5.0199933

>  <SMR>
3.5585201

>  <SMR_VSA0>
16.592962

>  <SMR_VSA1>
19.399862

>  <SMR_VSA2>
76.539108

>  <SMR_VSA3>
5.4488211

>  <SMR_VSA4>
5.0199933

>  <SMR_VSA5>
35.286369

>  <SMR_VSA6>
0

>  <SMR_VSA7>
17.214357

>  <TPSA>
91.550003

>  <VAdjEq>
0.68403846

>  <VAdjMa>
4.4594316

>  <VDistEq>
2.5758266

>  <VDistMa>
6.5712662

>  <vdw_area>
148.29836

>  <vdw_vol>
161.74992

>  <vsa_acc>
10.885262

>  <vsa_acid>
0

>  <vsa_base>
0

>  <vsa_don>
0

>  <vsa_hyd>
35.645023

>  <vsa_other>
78.142365

>  <vsa_pol>
27.850786

>  <Weight>
156.097

>  <weinerPath>
165

>  <weinerPol>
11

>  <zagreb>
50

$$$$