Clc1ccc(N(C(=O)Cc2ccccc2)C2CCN(CC2)C(C)C)cc1
  MOE2013           2D

 26 28  0  0  0  0  0  0  0  0999 V2000
    0.0000    0.0000    0.0000 Cl  0  0  0  0  0  0  0  0  0  0  0  0
    0.0050   -1.5000    0.0000 C   0  0  0  0  0  0  0  0  0  0  0  0
    1.3060   -2.2460    0.0000 C   0  0  0  0  0  0  0  0  0  0  0  0
    1.3110   -3.7460    0.0000 C   0  0  0  0  0  0  0  0  0  0  0  0
    0.0140   -4.5000    0.0000 C   0  0  0  0  0  0  0  0  0  0  0  0
    0.0190   -6.0000    0.0000 N   0  0  0  0  0  0  0  0  0  0  0  0
    1.3200   -6.7460    0.0000 C   0  0  0  0  0  0  0  0  0  0  0  0
    1.3250   -8.2460    0.0000 O   0  0  0  0  0  0  0  0  0  0  0  0
    2.6170   -5.9920    0.0000 C   0  0  0  0  0  0  0  0  0  0  0  0
    3.9180   -6.7380    0.0000 C   0  0  0  0  0  0  0  0  0  0  0  0
    5.2150   -5.9840    0.0000 C   0  0  0  0  0  0  0  0  0  0  0  0
    6.5160   -6.7300    0.0000 C   0  0  0  0  0  0  0  0  0  0  0  0
    6.5210   -8.2300    0.0000 C   0  0  0  0  0  0  0  0  0  0  0  0
    5.2240   -8.9840    0.0000 C   0  0  0  0  0  0  0  0  0  0  0  0
    3.9230   -8.2380    0.0000 C   0  0  0  0  0  0  0  0  0  0  0  0
   -1.2780   -6.7540    0.0000 C   0  0  0  0  0  0  0  0  0  0  0  0
   -1.2740   -8.2540    0.0000 C   0  0  0  0  0  0  0  0  0  0  0  0
   -2.5700   -9.0080    0.0000 C   0  0  0  0  0  0  0  0  0  0  0  0
   -3.8720   -8.2620    0.0000 N   0  0  0  0  0  0  0  0  0  0  0  0
   -3.8760   -6.7620    0.0000 C   0  0  0  0  0  0  0  0  0  0  0  0
   -2.5800   -6.0080    0.0000 C   0  0  0  0  0  0  0  0  0  0  0  0
   -5.1680   -9.0160    0.0000 C   0  0  0  0  0  0  0  0  0  0  0  0
   -5.1640  -10.5160    0.0000 C   0  0  0  0  0  0  0  0  0  0  0  0
   -6.4700   -8.2700    0.0000 C   0  0  0  0  0  0  0  0  0  0  0  0
   -1.2870   -3.7540    0.0000 C   0  0  0  0  0  0  0  0  0  0  0  0
   -1.2920   -2.2540    0.0000 C   0  0  0  0  0  0  0  0  0  0  0  0
  1  2  1  0  0  0  0
  2  3  1  0  0  0  0
  2 26  2  0  0  0  0
  3  4  2  0  0  0  0
  4  5  1  0  0  0  0
  5  6  1  0  0  0  0
  5 25  2  0  0  0  0
  6  7  1  0  0  0  0
  6 16  1  0  0  0  0
  7  8  2  0  0  0  0
  7  9  1  0  0  0  0
  9 10  1  0  0  0  0
 10 11  1  0  0  0  0
 10 15  2  0  0  0  0
 11 12  2  0  0  0  0
 12 13  1  0  0  0  0
 13 14  2  0  0  0  0
 14 15  1  0  0  0  0
 16 17  1  0  0  0  0
 16 21  1  0  0  0  0
 17 18  1  0  0  0  0
 18 19  1  0  0  0  0
 19 20  1  0  0  0  0
 19 22  1  0  0  0  0
 20 21  1  0  0  0  0
 22 23  1  0  0  0  0
 22 24  1  0  0  0  0
 25 26  1  0  0  0  0
M  END
>  <Index>
1363

>  <ID>
HT3683

>  <class>
0

>  <apol>
61.905411

>  <ast_fraglike>
0

>  <ast_fraglike_ext>
0

>  <ast_violation>
2

>  <ast_violation_ext>
3

>  <a_acc>
2

>  <a_acid>
0

>  <a_aro>
12

>  <a_base>
0

>  <a_count>
53

>  <a_don>
0

>  <a_donacc>
2

>  <a_heavy>
26

>  <a_hyd>
22

>  <a_IC>
75.090324

>  <a_ICM>
1.4167986

>  <a_nB>
0

>  <a_nBr>
0

>  <a_nC>
22

>  <a_nCl>
1

>  <a_nF>
0

>  <a_nH>
27

>  <a_nI>
0

>  <a_nN>
2

>  <a_nO>
1

>  <a_nP>
0

>  <a_nS>
0

>  <balabanJ>
1.6317192

>  <BCUT_PEOE_0>
-2.8145533

>  <BCUT_PEOE_1>
-0.61167455

>  <BCUT_PEOE_2>
0.62763506

>  <BCUT_PEOE_3>
2.7403631

>  <BCUT_SLOGP_0>
-2.8655772

>  <BCUT_SLOGP_1>
-0.4974944

>  <BCUT_SLOGP_2>
0.76480526

>  <BCUT_SLOGP_3>
2.7167506

>  <BCUT_SMR_0>
-2.5390568

>  <BCUT_SMR_1>
-0.4416399

>  <BCUT_SMR_2>
0.83403701

>  <BCUT_SMR_3>
3.010927

>  <bpol>
34.854588

>  <b_1rotN>
6

>  <b_1rotR>
0.21428572

>  <b_ar>
12

>  <b_count>
55

>  <b_double>
1

>  <b_heavy>
28

>  <b_max1len>
4

>  <b_rotN>
6

>  <b_rotR>
0.21428572

>  <b_single>
42

>  <b_triple>
0

>  <chi0>
18.518297

>  <chi0v>
16.322956

>  <chi0v_C>
13.886387

>  <chi0_C>
15.363597

>  <chi1>
12.541714

>  <chi1v>
9.7774925

>  <chi1v_C>
7.4103546

>  <chi1_C>
9.2371836

>  <chiral>
0

>  <chiral_u>
0

>  <density>
0.70360017

>  <diameter>
12

>  <FCharge>
0

>  <GCUT_PEOE_0>
-0.85810602

>  <GCUT_PEOE_1>
-0.37765971

>  <GCUT_PEOE_2>
0.07244321

>  <GCUT_PEOE_3>
2.8532469

>  <GCUT_SLOGP_0>
-0.99836308

>  <GCUT_SLOGP_1>
-0.26386139

>  <GCUT_SLOGP_2>
0.15581606

>  <GCUT_SLOGP_3>
2.8927085

>  <GCUT_SMR_0>
-0.52402264

>  <GCUT_SMR_1>
-0.2041211

>  <GCUT_SMR_2>
0.19305076

>  <GCUT_SMR_3>
3.1144814

>  <Kier1>
20.727041

>  <Kier2>
9.9722996

>  <Kier3>
5.75

>  <KierA1>
17.097244

>  <KierA2>
8.1588297

>  <KierA3>
4.6768703

>  <KierFlex>
5.3651342

>  <lip_acc>
3

>  <lip_don>
0

>  <lip_druglike>
1

>  <lip_violation>
0

>  <logP(o/w)>
5.0689998

>  <logS>
-5.1493301

>  <mr>
10.890368

>  <mutagenic>
0

>  <nmol>
1

>  <opr_brigid>
18

>  <opr_leadlike>
1

>  <opr_nring>
3

>  <opr_nrot>
7

>  <opr_violation>
1

>  <PC+>
0

>  <PC->
0

>  <PEOE_PC+>
1.5977488

>  <PEOE_PC->
-1.5977488

>  <PEOE_RPC+>
0.14543815

>  <PEOE_RPC->
0.19324848

>  <PEOE_VSA+0>
116.40743

>  <PEOE_VSA+1>
51.355175

>  <PEOE_VSA+2>
0

>  <PEOE_VSA+3>
0

>  <PEOE_VSA+4>
12.949531

>  <PEOE_VSA+5>
0

>  <PEOE_VSA+6>
0

>  <PEOE_VSA-0>
106.12614

>  <PEOE_VSA-1>
90.856468

>  <PEOE_VSA-2>
0

>  <PEOE_VSA-3>
0

>  <PEOE_VSA-4>
0

>  <PEOE_VSA-5>
13.566921

>  <PEOE_VSA-6>
0

>  <PEOE_VSA_FHYD>
0.93222833

>  <PEOE_VSA_FNEG>
0.53812969

>  <PEOE_VSA_FPNEG>
0.034674801

>  <PEOE_VSA_FPOL>
0.067771658

>  <PEOE_VSA_FPOS>
0.46187028

>  <PEOE_VSA_FPPOS>
0.033096857

>  <PEOE_VSA_HYD>
364.74521

>  <PEOE_VSA_NEG>
210.54953

>  <PEOE_VSA_PNEG>
13.566921

>  <PEOE_VSA_POL>
26.516451

>  <PEOE_VSA_POS>
180.71213

>  <PEOE_VSA_PPOS>
12.949531

>  <petitjean>
0.5

>  <petitjeanSC>
1

>  <Q_PC+>
0

>  <Q_PC->
0

>  <Q_RPC+>
0

>  <Q_RPC->
0

>  <Q_VSA_FHYD>
1

>  <Q_VSA_FNEG>
0

>  <Q_VSA_FPNEG>
0

>  <Q_VSA_FPOL>
0

>  <Q_VSA_FPOS>
1

>  <Q_VSA_FPPOS>
0

>  <Q_VSA_HYD>
391.26166

>  <Q_VSA_NEG>
0

>  <Q_VSA_PNEG>
0

>  <Q_VSA_POL>
0

>  <Q_VSA_POS>
391.26166

>  <Q_VSA_PPOS>
0

>  <radius>
6

>  <reactive>
0

>  <rings>
3

>  <RPC+>
0

>  <RPC->
0

>  <rsynth>
1

>  <SlogP>
4.7884698

>  <SlogP_VSA0>
3.1243138

>  <SlogP_VSA1>
8.3830976

>  <SlogP_VSA2>
31.826153

>  <SlogP_VSA3>
36.879158

>  <SlogP_VSA4>
3.185575

>  <SlogP_VSA5>
18.868406

>  <SlogP_VSA6>
3.5006065

>  <SlogP_VSA7>
158.78867

>  <SlogP_VSA8>
37.736813

>  <SlogP_VSA9>
108.55742

>  <SMR>
10.8815

>  <SMR_VSA0>
23.862217

>  <SMR_VSA1>
3.1243138

>  <SMR_VSA2>
3.1243138

>  <SMR_VSA3>
14.650119

>  <SMR_VSA4>
2.7567475

>  <SMR_VSA5>
215.39388

>  <SMR_VSA6>
42.137939

>  <SMR_VSA7>
105.80067

>  <TPSA>
23.549999

>  <VAdjEq>
0.41210872

>  <VAdjMa>
5.8073549

>  <VDistEq>
3.3842454

>  <VDistMa>
9.1301231

>  <vdw_area>
391.26166

>  <vdw_vol>
527.18005

>  <vsa_acc>
13.566921

>  <vsa_acid>
0

>  <vsa_base>
0

>  <vsa_don>
0

>  <vsa_hyd>
345.52673

>  <vsa_other>
12.949531

>  <vsa_pol>
13.566921

>  <Weight>
370.92398

>  <weinerPath>
1692

>  <weinerPol>
39

>  <zagreb>
132

$$$$