O(CCO)c1c(cc(cc1Cc1cc(ccc1OCCO)C(CC(C)(C)C)(C)C)C(CC(C)(C)C)(C)C)Cc1cc(cc(C)c1OCCO)C(CC(C)(C)C)(C)C
  MOE2013           2D

 57 59  0  0  0  0  0  0  0  0999 V2000
    0.0000    0.0000    0.0000 O   0  0  0  0  0  0  0  0  0  0  0  0
    1.5000    0.0050    0.0000 C   0  0  0  0  0  0  0  0  0  0  0  0
    2.2460    1.3060    0.0000 C   0  0  0  0  0  0  0  0  0  0  0  0
    1.4920    2.6030    0.0000 O   0  0  0  0  0  0  0  0  0  0  0  0
   -0.7460   -1.3010    0.0000 C   0  0  0  0  0  0  0  0  0  0  0  0
   -2.2460   -1.3060    0.0000 C   0  0  0  0  0  0  0  0  0  0  0  0
   -2.9920   -2.6070    0.0000 C   0  0  0  0  0  0  0  0  0  0  0  0
   -2.2380   -3.9040    0.0000 C   0  0  0  0  0  0  0  0  0  0  0  0
   -0.7380   -3.8990    0.0000 C   0  0  0  0  0  0  0  0  0  0  0  0
    0.0080   -2.5980    0.0000 C   0  0  0  0  0  0  0  0  0  0  0  0
    1.5080   -2.5930    0.0000 C   0  0  0  0  0  0  0  0  0  0  0  0
    2.2620   -3.8900    0.0000 C   0  0  0  0  0  0  0  0  0  0  0  0
    1.5160   -5.1920    0.0000 C   0  0  0  0  0  0  0  0  0  0  0  0
    2.2700   -6.4880    0.0000 C   0  0  0  0  0  0  0  0  0  0  0  0
    3.7700   -6.4840    0.0000 C   0  0  0  0  0  0  0  0  0  0  0  0
    4.5160   -5.1820    0.0000 C   0  0  0  0  0  0  0  0  0  0  0  0
    3.7620   -3.8860    0.0000 C   0  0  0  0  0  0  0  0  0  0  0  0
    4.5080   -2.5840    0.0000 O   0  0  0  0  0  0  0  0  0  0  0  0
    6.0080   -2.5800    0.0000 C   0  0  0  0  0  0  0  0  0  0  0  0
    6.7540   -1.2780    0.0000 C   0  0  0  0  0  0  0  0  0  0  0  0
    8.2540   -1.2740    0.0000 O   0  0  0  0  0  0  0  0  0  0  0  0
    1.5240   -7.7900    0.0000 C   0  0  0  0  0  0  0  0  0  0  0  0
    0.7780   -9.0910    0.0000 C   0  0  0  0  0  0  0  0  0  0  0  0
    1.5320  -10.3880    0.0000 C   0  0  0  0  0  0  0  0  0  0  0  0
    3.0320  -10.3830    0.0000 C   0  0  0  0  0  0  0  0  0  0  0  0
    0.7860  -11.6890    0.0000 C   0  0  0  0  0  0  0  0  0  0  0  0
    0.0320  -10.3920    0.0000 C   0  0  0  0  0  0  0  0  0  0  0  0
    2.8250   -8.5360    0.0000 C   0  0  0  0  0  0  0  0  0  0  0  0
    0.2230   -7.0440    0.0000 C   0  0  0  0  0  0  0  0  0  0  0  0
   -2.9840   -5.2050    0.0000 C   0  0  0  0  0  0  0  0  0  0  0  0
   -4.4840   -5.2100    0.0000 C   0  0  0  0  0  0  0  0  0  0  0  0
   -5.2300   -6.5110    0.0000 C   0  0  0  0  0  0  0  0  0  0  0  0
   -3.9290   -7.2570    0.0000 C   0  0  0  0  0  0  0  0  0  0  0  0
   -6.5310   -5.7650    0.0000 C   0  0  0  0  0  0  0  0  0  0  0  0
   -5.9760   -7.8130    0.0000 C   0  0  0  0  0  0  0  0  0  0  0  0
   -2.2300   -6.5020    0.0000 C   0  0  0  0  0  0  0  0  0  0  0  0
   -1.4840   -5.2010    0.0000 C   0  0  0  0  0  0  0  0  0  0  0  0
   -3.0000   -0.0090    0.0000 C   0  0  0  0  0  0  0  0  0  0  0  0
   -4.5000   -0.0140    0.0000 C   0  0  0  0  0  0  0  0  0  0  0  0
   -5.2460   -1.3150    0.0000 C   0  0  0  0  0  0  0  0  0  0  0  0
   -6.7460   -1.3200    0.0000 C   0  0  0  0  0  0  0  0  0  0  0  0
   -7.5000   -0.0230    0.0000 C   0  0  0  0  0  0  0  0  0  0  0  0
   -6.7540    1.2780    0.0000 C   0  0  0  0  0  0  0  0  0  0  0  0
   -7.5080    2.5750    0.0000 C   0  0  0  0  0  0  0  0  0  0  0  0
   -5.2540    1.2830    0.0000 C   0  0  0  0  0  0  0  0  0  0  0  0
   -4.5080    2.5840    0.0000 O   0  0  0  0  0  0  0  0  0  0  0  0
   -5.2620    3.8810    0.0000 C   0  0  0  0  0  0  0  0  0  0  0  0
   -4.5160    5.1820    0.0000 C   0  0  0  0  0  0  0  0  0  0  0  0
   -5.2700    6.4790    0.0000 O   0  0  0  0  0  0  0  0  0  0  0  0
   -7.4920   -2.6210    0.0000 C   0  0  0  0  0  0  0  0  0  0  0  0
   -8.2380   -3.9230    0.0000 C   0  0  0  0  0  0  0  0  0  0  0  0
   -9.7380   -3.9270    0.0000 C   0  0  0  0  0  0  0  0  0  0  0  0
  -10.4920   -2.6300    0.0000 C   0  0  0  0  0  0  0  0  0  0  0  0
  -10.4840   -5.2280    0.0000 C   0  0  0  0  0  0  0  0  0  0  0  0
   -8.9840   -5.2240    0.0000 C   0  0  0  0  0  0  0  0  0  0  0  0
   -8.7930   -1.8750    0.0000 C   0  0  0  0  0  0  0  0  0  0  0  0
   -6.1910   -3.3670    0.0000 C   0  0  0  0  0  0  0  0  0  0  0  0
  1  2  1  0  0  0  0
  1  5  1  0  0  0  0
  2  3  1  0  0  0  0
  3  4  1  0  0  0  0
  5  6  1  0  0  0  0
  5 10  2  0  0  0  0
  6  7  2  0  0  0  0
  6 38  1  0  0  0  0
  7  8  1  0  0  0  0
  8  9  2  0  0  0  0
  8 30  1  0  0  0  0
  9 10  1  0  0  0  0
 10 11  1  0  0  0  0
 11 12  1  0  0  0  0
 12 13  1  0  0  0  0
 12 17  2  0  0  0  0
 13 14  2  0  0  0  0
 14 15  1  0  0  0  0
 14 22  1  0  0  0  0
 15 16  2  0  0  0  0
 16 17  1  0  0  0  0
 17 18  1  0  0  0  0
 18 19  1  0  0  0  0
 19 20  1  0  0  0  0
 20 21  1  0  0  0  0
 22 23  1  0  0  0  0
 22 28  1  0  0  0  0
 22 29  1  0  0  0  0
 23 24  1  0  0  0  0
 24 25  1  0  0  0  0
 24 26  1  0  0  0  0
 24 27  1  0  0  0  0
 30 31  1  0  0  0  0
 30 36  1  0  0  0  0
 30 37  1  0  0  0  0
 31 32  1  0  0  0  0
 32 33  1  0  0  0  0
 32 34  1  0  0  0  0
 32 35  1  0  0  0  0
 38 39  1  0  0  0  0
 39 40  1  0  0  0  0
 39 45  2  0  0  0  0
 40 41  2  0  0  0  0
 41 42  1  0  0  0  0
 41 50  1  0  0  0  0
 42 43  2  0  0  0  0
 43 44  1  0  0  0  0
 43 45  1  0  0  0  0
 45 46  1  0  0  0  0
 46 47  1  0  0  0  0
 47 48  1  0  0  0  0
 48 49  1  0  0  0  0
 50 51  1  0  0  0  0
 50 56  1  0  0  0  0
 50 57  1  0  0  0  0
 51 52  1  0  0  0  0
 52 53  1  0  0  0  0
 52 54  1  0  0  0  0
 52 55  1  0  0  0  0
M  END
>  <Index>
1122

>  <ID>
HT2146

>  <class>
0

>  <apol>
147.91544

>  <ast_fraglike>
0

>  <ast_fraglike_ext>
0

>  <ast_violation>
3

>  <ast_violation_ext>
4

>  <a_acc>
6

>  <a_acid>
0

>  <a_aro>
18

>  <a_base>
0

>  <a_count>
137

>  <a_don>
3

>  <a_donacc>
9

>  <a_heavy>
57

>  <a_hyd>
51

>  <a_IC>
161.87268

>  <a_ICM>
1.1815524

>  <a_nB>
0

>  <a_nBr>
0

>  <a_nC>
51

>  <a_nCl>
0

>  <a_nF>
0

>  <a_nH>
80

>  <a_nI>
0

>  <a_nN>
0

>  <a_nO>
6

>  <a_nP>
0

>  <a_nS>
0

>  <balabanJ>
2.0898898

>  <BCUT_PEOE_0>
-2.7781925

>  <BCUT_PEOE_1>
-0.032213245

>  <BCUT_PEOE_2>
0.058520053

>  <BCUT_PEOE_3>
2.7188118

>  <BCUT_SLOGP_0>
-2.6712112

>  <BCUT_SLOGP_1>
0.043843798

>  <BCUT_SLOGP_2>
0.123

>  <BCUT_SLOGP_3>
2.8312445

>  <BCUT_SMR_0>
-2.5185533

>  <BCUT_SMR_1>
0.1057

>  <BCUT_SMR_2>
0.18176895

>  <BCUT_SMR_3>
2.9824464

>  <bpol>
93.204559

>  <b_1rotN>
19

>  <b_1rotR>
0.32203391

>  <b_ar>
18

>  <b_count>
139

>  <b_double>
0

>  <b_heavy>
59

>  <b_max1len>
6

>  <b_rotN>
22

>  <b_rotR>
0.37288135

>  <b_single>
121

>  <b_triple>
0

>  <chi0>
43.200096

>  <chi0v>
38.886013

>  <chi0v_C>
36.319626

>  <chi0_C>
38.078773

>  <chi1>
26.1094

>  <chi1v>
21.26005

>  <chi1v_C>
18.83297

>  <chi1_C>
21.263336

>  <chiral>
0

>  <chiral_u>
0

>  <density>
0.64554173

>  <diameter>
18

>  <FCharge>
0

>  <GCUT_PEOE_0>
-0.80600935

>  <GCUT_PEOE_1>
-0.26917782

>  <GCUT_PEOE_2>
-0.10147995

>  <GCUT_PEOE_3>
3.3984413

>  <GCUT_SLOGP_0>
-0.93267167

>  <GCUT_SLOGP_1>
-0.16716436

>  <GCUT_SLOGP_2>
-0.037

>  <GCUT_SLOGP_3>
3.5165718

>  <GCUT_SMR_0>
-0.53415096

>  <GCUT_SMR_1>
-0.067779511

>  <GCUT_SMR_2>
-0.051453859

>  <GCUT_SMR_3>
3.6529379

>  <Kier1>
51.350761

>  <Kier2>
20.91358

>  <Kier3>
16.007843

>  <KierA1>
45.213375

>  <KierA2>
18.37077

>  <KierA3>
14.038371

>  <KierFlex>
14.572009

>  <lip_acc>
6

>  <lip_don>
3

>  <lip_druglike>
0

>  <lip_violation>
2

>  <logP(o/w)>
13.681

>  <logS>
-16.93611

>  <mr>
23.563238

>  <mutagenic>
0

>  <nmol>
1

>  <opr_brigid>
18

>  <opr_leadlike>
0

>  <opr_nring>
3

>  <opr_nrot>
22

>  <opr_violation>
3

>  <PC+>
0

>  <PC->
0

>  <PEOE_PC+>
3.9131725

>  <PEOE_PC->
-3.9131725

>  <PEOE_RPC+>
0.053535625

>  <PEOE_RPC->
0.10036057

>  <PEOE_VSA+0>
264.79501

>  <PEOE_VSA+1>
196.12566

>  <PEOE_VSA+2>
0

>  <PEOE_VSA+3>
0

>  <PEOE_VSA+4>
30.972517

>  <PEOE_VSA+5>
0

>  <PEOE_VSA+6>
0

>  <PEOE_VSA-0>
74.774841

>  <PEOE_VSA-1>
354.7446

>  <PEOE_VSA-2>
0

>  <PEOE_VSA-3>
0

>  <PEOE_VSA-4>
0

>  <PEOE_VSA-5>
0

>  <PEOE_VSA-6>
30.813889

>  <PEOE_VSA_FHYD>
0.93511373

>  <PEOE_VSA_FNEG>
0.48342839

>  <PEOE_VSA_FPNEG>
0.032359831

>  <PEOE_VSA_FPOL>
0.06488625

>  <PEOE_VSA_FPOS>
0.51657164

>  <PEOE_VSA_FPPOS>
0.032526419

>  <PEOE_VSA_HYD>
890.44006

>  <PEOE_VSA_NEG>
460.33331

>  <PEOE_VSA_PNEG>
30.813889

>  <PEOE_VSA_POL>
61.786407

>  <PEOE_VSA_POS>
491.89319

>  <PEOE_VSA_PPOS>
30.972517

>  <petitjean>
0.5

>  <petitjeanSC>
1

>  <Q_PC+>
0

>  <Q_PC->
0

>  <Q_RPC+>
0

>  <Q_RPC->
0

>  <Q_VSA_FHYD>
1

>  <Q_VSA_FNEG>
0

>  <Q_VSA_FPNEG>
0

>  <Q_VSA_FPOL>
0

>  <Q_VSA_FPOS>
1

>  <Q_VSA_FPPOS>
0

>  <Q_VSA_HYD>
952.2265

>  <Q_VSA_NEG>
0

>  <Q_VSA_PNEG>
0

>  <Q_VSA_POL>
0

>  <Q_VSA_POS>
952.2265

>  <Q_VSA_PPOS>
0

>  <radius>
9

>  <reactive>
0

>  <rings>
3

>  <RPC+>
0

>  <RPC->
0

>  <rsynth>
1

>  <SlogP>
11.43126

>  <SlogP_VSA0>
109.15534

>  <SlogP_VSA1>
0

>  <SlogP_VSA2>
0

>  <SlogP_VSA3>
125.55755

>  <SlogP_VSA4>
25.4846

>  <SlogP_VSA5>
37.736813

>  <SlogP_VSA6>
0

>  <SlogP_VSA7>
123.50229

>  <SlogP_VSA8>
56.605217

>  <SlogP_VSA9>
548.94653

>  <SMR>
23.87114

>  <SMR_VSA0>
0

>  <SMR_VSA1>
109.15534

>  <SMR_VSA2>
0

>  <SMR_VSA3>
41.214886

>  <SMR_VSA4>
0

>  <SMR_VSA5>
217.84431

>  <SMR_VSA6>
125.55755

>  <SMR_VSA7>
533.21625

>  <TPSA>
88.379997

>  <VAdjEq>
0.22515193

>  <VAdjMa>
6.8826432

>  <VDistEq>
3.9557493

>  <VDistMa>
11.450742

>  <vdw_area>
952.2265

>  <vdw_vol>
1222.5314

>  <vsa_acc>
7.5112681

>  <vsa_acid>
0

>  <vsa_base>
0

>  <vsa_don>
0

>  <vsa_hyd>
835.63184

>  <vsa_other>
0

>  <vsa_pol>
48.212032

>  <Weight>
789.19501

>  <weinerPath>
12916

>  <weinerPol>
92

>  <zagreb>
298

$$$$