P(O)(O)(=O)CO[C@@H](Cn1c2ncnc(N)c2nc1)C
  MOE2013           2D

 19 20  0  0  1  0  0  0  0  0999 V2000
    0.0000    0.0000    0.0000 P   0  0  0  0  0  0  0  0  0  0  0  0
    1.2960    0.7560    0.0000 O   0  0  0  0  0  0  0  0  0  0  0  0
   -0.7560    1.2960    0.0000 O   0  0  0  0  0  0  0  0  0  0  0  0
    0.7560   -1.2960    0.0000 O   0  0  0  0  0  0  0  0  0  0  0  0
   -1.2960   -0.7560    0.0000 C   0  0  0  0  0  0  0  0  0  0  0  0
   -2.5980   -0.0110    0.0000 O   0  0  0  0  0  0  0  0  0  0  0  0
   -3.8940   -0.7670    0.0000 C   0  0  1  0  0  0  0  0  0  0  0  0
   -5.1960   -0.0230    0.0000 C   0  0  0  0  0  0  0  0  0  0  0  0
   -6.4920   -0.7780    0.0000 N   0  0  0  0  0  0  0  0  0  0  0  0
   -7.8650   -0.1740    0.0000 C   0  0  0  0  0  0  0  0  0  0  0  0
   -8.3350    1.2500    0.0000 N   0  0  0  0  0  0  0  0  0  0  0  0
   -9.8030    1.5560    0.0000 C   0  0  0  0  0  0  0  0  0  0  0  0
  -10.8020    0.4360    0.0000 N   0  0  0  0  0  0  0  0  0  0  0  0
  -10.3320   -0.9880    0.0000 C   0  0  0  0  0  0  0  0  0  0  0  0
  -11.3310   -2.1070    0.0000 N   0  0  0  0  0  0  0  0  0  0  0  0
   -8.8640   -1.2940    0.0000 C   0  0  0  0  0  0  0  0  0  0  0  0
   -8.1080   -2.5890    0.0000 N   0  0  0  0  0  0  0  0  0  0  0  0
   -6.6420   -2.2710    0.0000 C   0  0  0  0  0  0  0  0  0  0  0  0
   -3.8870   -2.2670    0.0000 C   0  0  0  0  0  0  0  0  0  0  0  0
  1  2  1  0  0  0  0
  1  3  1  0  0  0  0
  1  4  2  0  0  0  0
  1  5  1  0  0  0  0
  5  6  1  0  0  0  0
  6  7  1  0  0  0  0
  7  8  1  0  0  0  0
  7 19  1  6  0  0  0
  8  9  1  0  0  0  0
  9 10  1  0  0  0  0
  9 18  1  0  0  0  0
 10 11  2  0  0  0  0
 10 16  1  0  0  0  0
 11 12  1  0  0  0  0
 12 13  2  0  0  0  0
 13 14  1  0  0  0  0
 14 15  1  0  0  0  0
 14 16  2  0  0  0  0
 16 17  1  0  0  0  0
 17 18  2  0  0  0  0
M  END
>  <Index>
1046

>  <ID>
HT2004

>  <class>
0

>  <apol>
37.513103

>  <ast_fraglike>
0

>  <ast_fraglike_ext>
0

>  <ast_violation>
2

>  <ast_violation_ext>
4

>  <a_acc>
7

>  <a_acid>
0

>  <a_aro>
9

>  <a_base>
0

>  <a_count>
33

>  <a_don>
4

>  <a_donacc>
11

>  <a_heavy>
19

>  <a_hyd>
5

>  <a_IC>
65.023071

>  <a_ICM>
1.9703962

>  <a_nB>
0

>  <a_nBr>
0

>  <a_nC>
9

>  <a_nCl>
0

>  <a_nF>
0

>  <a_nH>
14

>  <a_nI>
0

>  <a_nN>
5

>  <a_nO>
4

>  <a_nP>
1

>  <a_nS>
0

>  <balabanJ>
1.8011217

>  <BCUT_PEOE_0>
-2.5561936

>  <BCUT_PEOE_1>
-0.62364435

>  <BCUT_PEOE_2>
0.59134912

>  <BCUT_PEOE_3>
2.593426

>  <BCUT_SLOGP_0>
-2.5677733

>  <BCUT_SLOGP_1>
-0.77196509

>  <BCUT_SLOGP_2>
0.42970246

>  <BCUT_SLOGP_3>
2.6346493

>  <BCUT_SMR_0>
-2.3245769

>  <BCUT_SMR_1>
-0.40513298

>  <BCUT_SMR_2>
0.75572574

>  <BCUT_SMR_3>
2.8276753

>  <bpol>
30.938898

>  <b_1rotN>
5

>  <b_1rotR>
0.25

>  <b_ar>
10

>  <b_count>
34

>  <b_double>
0

>  <b_heavy>
20

>  <b_max1len>
7

>  <b_rotN>
5

>  <b_rotR>
0.25

>  <b_single>
24

>  <b_triple>
0

>  <chi0>
14.043606

>  <chi0v>
11.065034

>  <chi0v_C>
5.6462646

>  <chi0_C>
6.1378284

>  <chi1>
8.8659916

>  <chi1v>
7.2385073

>  <chi1v_C>
1.4855986

>  <chi1_C>
1.6522652

>  <chiral>
1

>  <chiral_u>
0

>  <density>
0.88456529

>  <diameter>
10

>  <FCharge>
0

>  <GCUT_PEOE_0>
-0.82632947

>  <GCUT_PEOE_1>
-0.42741507

>  <GCUT_PEOE_2>
0.092507973

>  <GCUT_PEOE_3>
2.442914

>  <GCUT_SLOGP_0>
-1.3347332

>  <GCUT_SLOGP_1>
-0.4156515

>  <GCUT_SLOGP_2>
0.022573089

>  <GCUT_SLOGP_3>
2.4860706

>  <GCUT_SMR_0>
-0.52025443

>  <GCUT_SMR_1>
-0.21719551

>  <GCUT_SMR_2>
0.22615483

>  <GCUT_SMR_3>
2.695266

>  <Kier1>
15.39

>  <Kier2>
6.1854935

>  <Kier3>
4.2314048

>  <KierA1>
13.104628

>  <KierA2>
5.2168722

>  <KierA3>
3.5422571

>  <KierFlex>
3.5981667

>  <lip_acc>
9

>  <lip_don>
4

>  <lip_druglike>
1

>  <lip_violation>
0

>  <logP(o/w)>
-1.59694

>  <logS>
-0.90391999

>  <mr>
6.8816485

>  <mutagenic>
1

>  <nmol>
1

>  <opr_brigid>
10

>  <opr_leadlike>
1

>  <opr_nring>
2

>  <opr_nrot>
5

>  <opr_violation>
1

>  <PC+>
0

>  <PC->
0

>  <PEOE_PC+>
2.5289268

>  <PEOE_PC->
-2.5289268

>  <PEOE_RPC+>
0.12263792

>  <PEOE_RPC->
0.13452333

>  <PEOE_VSA+0>
12.796158

>  <PEOE_VSA+1>
52.130337

>  <PEOE_VSA+2>
94.074959

>  <PEOE_VSA+3>
27.662369

>  <PEOE_VSA+4>
0

>  <PEOE_VSA+5>
0

>  <PEOE_VSA+6>
13.666999

>  <PEOE_VSA-0>
18.747677

>  <PEOE_VSA-1>
0

>  <PEOE_VSA-2>
0

>  <PEOE_VSA-3>
0

>  <PEOE_VSA-4>
32.776863

>  <PEOE_VSA-5>
6.6511192

>  <PEOE_VSA-6>
22.363268

>  <PEOE_VSA_FHYD>
0.73134077

>  <PEOE_VSA_FNEG>
0.28674832

>  <PEOE_VSA_FPNEG>
0.21999967

>  <PEOE_VSA_FPOL>
0.26865923

>  <PEOE_VSA_FPOS>
0.71325165

>  <PEOE_VSA_FPPOS>
0.048659559

>  <PEOE_VSA_HYD>
205.4115

>  <PEOE_VSA_NEG>
80.538933

>  <PEOE_VSA_PNEG>
61.791252

>  <PEOE_VSA_POL>
75.458252

>  <PEOE_VSA_POS>
200.33083

>  <PEOE_VSA_PPOS>
13.666999

>  <petitjean>
0.5

>  <petitjeanSC>
1

>  <Q_PC+>
0

>  <Q_PC->
0

>  <Q_RPC+>
0

>  <Q_RPC->
0

>  <Q_VSA_FHYD>
1

>  <Q_VSA_FNEG>
0

>  <Q_VSA_FPNEG>
0

>  <Q_VSA_FPOL>
0

>  <Q_VSA_FPOS>
1

>  <Q_VSA_FPPOS>
0

>  <Q_VSA_HYD>
280.86975

>  <Q_VSA_NEG>
0

>  <Q_VSA_PNEG>
0

>  <Q_VSA_POL>
0

>  <Q_VSA_POS>
280.86975

>  <Q_VSA_PPOS>
0

>  <radius>
5

>  <reactive>
1

>  <rings>
2

>  <RPC+>
0

>  <RPC->
0

>  <rsynth>
1

>  <SlogP>
-0.85500002

>  <SlogP_VSA0>
97.944893

>  <SlogP_VSA1>
52.25568

>  <SlogP_VSA2>
17.468536

>  <SlogP_VSA3>
18.097094

>  <SlogP_VSA4>
0

>  <SlogP_VSA5>
0

>  <SlogP_VSA6>
0

>  <SlogP_VSA7>
37.430504

>  <SlogP_VSA8>
0

>  <SlogP_VSA9>
68.892982

>  <SMR>
6.6711998

>  <SMR_VSA0>
33.433655

>  <SMR_VSA1>
94.869621

>  <SMR_VSA2>
0

>  <SMR_VSA3>
6.4686494

>  <SMR_VSA4>
6.187367

>  <SMR_VSA5>
84.907822

>  <SMR_VSA6>
18.097094

>  <SMR_VSA7>
48.125488

>  <TPSA>
136.38

>  <VAdjEq>
0.5023343

>  <VAdjMa>
5.321928

>  <VDistEq>
3.1970551

>  <VDistMa>
8.1737041

>  <vdw_area>
280.86975

>  <vdw_vol>
324.69736

>  <vsa_acc>
19.551485

>  <vsa_acid>
0

>  <vsa_base>
0

>  <vsa_don>
17.742489

>  <vsa_hyd>
88.445015

>  <vsa_other>
85.629158

>  <vsa_pol>
84.481384

>  <Weight>
287.216

>  <weinerPath>
761

>  <weinerPol>
25

>  <zagreb>
98

$$$$