O=C(N(CC)CC)C1C=C2C(N(C1)C)Cc1c3c2cccc3[nH]c1
  MOE2013           2D

 24 27  0  0  1  0  0  0  0  0999 V2000
    0.0000    0.0000    0.0000 O   0  0  0  0  0  0  0  0  0  0  0  0
    0.7430   -1.3030    0.0000 C   0  0  0  0  0  0  0  0  0  0  0  0
    2.2430   -1.3110    0.0000 N   0  0  0  0  0  0  0  0  0  0  0  0
    3.0000   -0.0160    0.0000 C   0  0  0  0  0  0  0  0  0  0  0  0
    4.5000   -0.0240    0.0000 C   0  0  0  0  0  0  0  0  0  0  0  0
    2.9860   -2.6140    0.0000 C   0  0  0  0  0  0  0  0  0  0  0  0
    4.4860   -2.6220    0.0000 C   0  0  0  0  0  0  0  0  0  0  0  0
   -0.0140   -2.5980    0.0000 C   0  0  3  0  0  0  0  0  0  0  0  0
   -1.5140   -2.5900    0.0000 C   0  0  0  0  0  0  0  0  0  0  0  0
   -2.2620   -3.9170    0.0000 C   0  0  0  0  0  0  0  0  0  0  0  0
   -1.5230   -5.1800    0.0000 C   0  0  3  0  0  0  0  0  0  0  0  0
   -0.0280   -5.1960    0.0000 N   0  0  3  0  0  0  0  0  0  0  0  0
    0.7290   -3.9010    0.0000 C   0  0  0  0  0  0  0  0  0  0  0  0
    0.7110   -6.5010    0.0000 C   0  0  0  0  0  0  0  0  0  0  0  0
   -2.2530   -6.4530    0.0000 C   0  0  0  0  0  0  0  0  0  0  0  0
   -3.7180   -6.4590    0.0000 C   0  0  0  0  0  0  0  0  0  0  0  0
   -4.4550   -5.1890    0.0000 C   0  0  0  0  0  0  0  0  0  0  0  0
   -3.7270   -3.9140    0.0000 C   0  0  0  0  0  0  0  0  0  0  0  0
   -4.4650   -2.6520    0.0000 C   0  0  0  0  0  0  0  0  0  0  0  0
   -5.9270   -2.6490    0.0000 C   0  0  0  0  0  0  0  0  0  0  0  0
   -6.6600   -3.9230    0.0000 C   0  0  0  0  0  0  0  0  0  0  0  0
   -5.9230   -5.1960    0.0000 C   0  0  0  0  0  0  0  0  0  0  0  0
   -6.3150   -6.6530    0.0000 N   0  0  0  0  0  0  0  0  0  0  0  0
   -4.7010   -7.5890    0.0000 C   0  0  0  0  0  0  0  0  0  0  0  0
  1  2  2  0  0  0  0
  2  3  1  0  0  0  0
  2  8  1  0  0  0  0
  3  4  1  0  0  0  0
  3  6  1  0  0  0  0
  4  5  1  0  0  0  0
  6  7  1  0  0  0  0
  8  9  1  0  0  0  0
  8 13  1  0  0  0  0
  9 10  2  0  0  0  0
 10 11  1  0  0  0  0
 10 18  1  0  0  0  0
 11 12  1  0  0  0  0
 11 15  1  0  0  0  0
 12 13  1  0  0  0  0
 12 14  1  0  0  0  0
 15 16  1  0  0  0  0
 16 17  1  0  0  0  0
 16 24  2  0  0  0  0
 17 18  1  0  0  0  0
 17 22  2  0  0  0  0
 18 19  2  0  0  0  0
 19 20  1  0  0  0  0
 20 21  2  0  0  0  0
 21 22  1  0  0  0  0
 22 23  1  0  0  0  0
 23 24  1  0  0  0  0
M  END
>  <Index>
1335

>  <ID>
HT3474

>  <class>
0

>  <apol>
55.971825

>  <ast_fraglike>
0

>  <ast_fraglike_ext>
0

>  <ast_violation>
1

>  <ast_violation_ext>
1

>  <a_acc>
2

>  <a_acid>
0

>  <a_aro>
9

>  <a_base>
0

>  <a_count>
49

>  <a_don>
1

>  <a_donacc>
3

>  <a_heavy>
24

>  <a_hyd>
19

>  <a_IC>
67.830925

>  <a_ICM>
1.3843046

>  <a_nB>
0

>  <a_nBr>
0

>  <a_nC>
20

>  <a_nCl>
0

>  <a_nF>
0

>  <a_nH>
25

>  <a_nI>
0

>  <a_nN>
3

>  <a_nO>
1

>  <a_nP>
0

>  <a_nS>
0

>  <balabanJ>
1.5396287

>  <BCUT_PEOE_0>
-2.7222888

>  <BCUT_PEOE_1>
-0.49556884

>  <BCUT_PEOE_2>
0.51613313

>  <BCUT_PEOE_3>
2.6776359

>  <BCUT_SLOGP_0>
-2.7971985

>  <BCUT_SLOGP_1>
-0.4186039

>  <BCUT_SLOGP_2>
0.5322963

>  <BCUT_SLOGP_3>
2.6541195

>  <BCUT_SMR_0>
-2.4366319

>  <BCUT_SMR_1>
-0.35613054

>  <BCUT_SMR_2>
0.66029203

>  <BCUT_SMR_3>
2.9620359

>  <bpol>
32.908176

>  <b_1rotN>
4

>  <b_1rotR>
0.14814815

>  <b_ar>
10

>  <b_count>
52

>  <b_double>
2

>  <b_heavy>
27

>  <b_max1len>
6

>  <b_rotN>
4

>  <b_rotR>
0.14814815

>  <b_single>
40

>  <b_triple>
0

>  <chi0>
16.84457

>  <chi0v>
14.672554

>  <chi0v_C>
12.869879

>  <chi0_C>
13.982763

>  <chi1>
11.634561

>  <chi1v>
8.9368162

>  <chi1v_C>
6.3163142

>  <chi1_C>
7.6802001

>  <chiral>
2

>  <chiral_u>
2

>  <density>
0.68720734

>  <diameter>
10

>  <FCharge>
0

>  <GCUT_PEOE_0>
-0.8629269

>  <GCUT_PEOE_1>
-0.36370566

>  <GCUT_PEOE_2>
0.036760397

>  <GCUT_PEOE_3>
2.8888645

>  <GCUT_SLOGP_0>
-0.96639132

>  <GCUT_SLOGP_1>
-0.30514514

>  <GCUT_SLOGP_2>
0.052411016

>  <GCUT_SLOGP_3>
2.9355218

>  <GCUT_SMR_0>
-0.52031261

>  <GCUT_SMR_1>
-0.17537403

>  <GCUT_SMR_2>
0.14173388

>  <GCUT_SMR_3>
3.1702662

>  <Kier1>
17.415638

>  <Kier2>
6.9575

>  <Kier3>
2.9198506

>  <KierA1>
13.421304

>  <KierA2>
5.2966375

>  <KierA3>
2.203336

>  <KierFlex>
2.9619908

>  <lip_acc>
4

>  <lip_don>
1

>  <lip_druglike>
1

>  <lip_violation>
0

>  <logP(o/w)>
2.5090001

>  <logS>
-2.87183

>  <mr>
9.5948009

>  <mutagenic>
0

>  <nmol>
1

>  <opr_brigid>
19

>  <opr_leadlike>
1

>  <opr_nring>
4

>  <opr_nrot>
3

>  <opr_violation>
0

>  <PC+>
0

>  <PC->
0

>  <PEOE_PC+>
1.6575227

>  <PEOE_PC->
-1.6575227

>  <PEOE_RPC+>
0.13971235

>  <PEOE_RPC->
0.21740368

>  <PEOE_VSA+0>
145.15388

>  <PEOE_VSA+1>
25.592316

>  <PEOE_VSA+2>
0

>  <PEOE_VSA+3>
8.6190128

>  <PEOE_VSA+4>
12.949531

>  <PEOE_VSA+5>
0

>  <PEOE_VSA+6>
0

>  <PEOE_VSA-0>
88.31588

>  <PEOE_VSA-1>
36.764713

>  <PEOE_VSA-2>
0

>  <PEOE_VSA-3>
0

>  <PEOE_VSA-4>
0

>  <PEOE_VSA-5>
13.566921

>  <PEOE_VSA-6>
0.13689101

>  <PEOE_VSA_FHYD>
0.91950041

>  <PEOE_VSA_FNEG>
0.41916266

>  <PEOE_VSA_FPNEG>
0.041388847

>  <PEOE_VSA_FPOL>
0.080499582

>  <PEOE_VSA_FPOS>
0.58083731

>  <PEOE_VSA_FPPOS>
0.039110735

>  <PEOE_VSA_HYD>
304.4458

>  <PEOE_VSA_NEG>
138.78441

>  <PEOE_VSA_PNEG>
13.703812

>  <PEOE_VSA_POL>
26.653343

>  <PEOE_VSA_POS>
192.31474

>  <PEOE_VSA_PPOS>
12.949531

>  <petitjean>
0.5

>  <petitjeanSC>
1

>  <Q_PC+>
0

>  <Q_PC->
0

>  <Q_RPC+>
0

>  <Q_RPC->
0

>  <Q_VSA_FHYD>
1

>  <Q_VSA_FNEG>
0

>  <Q_VSA_FPNEG>
0

>  <Q_VSA_FPOL>
0

>  <Q_VSA_FPOS>
1

>  <Q_VSA_FPPOS>
0

>  <Q_VSA_HYD>
331.09915

>  <Q_VSA_NEG>
0

>  <Q_VSA_PNEG>
0

>  <Q_VSA_POL>
0

>  <Q_VSA_POS>
331.09915

>  <Q_VSA_PPOS>
0

>  <radius>
5

>  <reactive>
0

>  <rings>
4

>  <RPC+>
0

>  <RPC->
0

>  <rsynth>
1

>  <SlogP>
2.9059701

>  <SlogP_VSA0>
0

>  <SlogP_VSA1>
11.507411

>  <SlogP_VSA2>
44.629715

>  <SlogP_VSA3>
55.318733

>  <SlogP_VSA4>
10.781946

>  <SlogP_VSA5>
51.765594

>  <SlogP_VSA6>
0

>  <SlogP_VSA7>
95.689774

>  <SlogP_VSA8>
0

>  <SlogP_VSA9>
66.652031

>  <SMR>
9.7815704

>  <SMR_VSA0>
23.862217

>  <SMR_VSA1>
6.2486277

>  <SMR_VSA2>
21.196325

>  <SMR_VSA3>
10.353119

>  <SMR_VSA4>
7.9026761

>  <SMR_VSA5>
106.6555

>  <SMR_VSA6>
60.577518

>  <SMR_VSA7>
99.549217

>  <TPSA>
39.34

>  <VAdjEq>
0.44886449

>  <VAdjMa>
5.7548876

>  <VDistEq>
3.1579633

>  <VDistMa>
8.8973227

>  <vdw_area>
331.09915

>  <vdw_vol>
470.65851

>  <vsa_acc>
13.566921

>  <vsa_acid>
0

>  <vsa_base>
0

>  <vsa_don>
5.6825762

>  <vsa_hyd>
277.39865

>  <vsa_other>
12.949531

>  <vsa_pol>
19.249496

>  <Weight>
323.44

>  <weinerPath>
1227

>  <weinerPol>
45

>  <zagreb>
134

$$$$