ClC(Cl)C(=O)N[C@@H]([C@H](O)c1ccc(S(=O)(=O)C)cc1)CO
  MOE2013           2D

 21 21  0  0  1  0  0  0  0  0999 V2000
    0.0000    0.0000    0.0000 Cl  0  0  0  0  0  0  0  0  0  0  0  0
   -1.5000   -0.0090    0.0000 C   0  0  0  0  0  0  0  0  0  0  0  0
   -2.2420   -1.3130    0.0000 Cl  0  0  0  0  0  0  0  0  0  0  0  0
   -2.2580    1.2850    0.0000 C   0  0  0  0  0  0  0  0  0  0  0  0
   -3.7580    1.2760    0.0000 O   0  0  0  0  0  0  0  0  0  0  0  0
   -1.5160    2.5890    0.0000 N   0  0  0  0  0  0  0  0  0  0  0  0
   -2.2740    3.8830    0.0000 C   0  0  1  0  0  0  0  0  0  0  0  0
   -1.5320    5.1870    0.0000 C   0  0  2  0  0  0  0  0  0  0  0  0
   -2.2900    6.4810    0.0000 O   0  0  0  0  0  0  0  0  0  0  0  0
   -0.0320    5.1960    0.0000 C   0  0  0  0  0  0  0  0  0  0  0  0
    0.7260    3.9020    0.0000 C   0  0  0  0  0  0  0  0  0  0  0  0
    2.2260    3.9110    0.0000 C   0  0  0  0  0  0  0  0  0  0  0  0
    2.9680    5.2140    0.0000 C   0  0  0  0  0  0  0  0  0  0  0  0
    4.4680    5.2240    0.0000 S   0  0  0  0  0  0  0  0  0  0  0  0
    4.4770    3.7240    0.0000 O   0  0  0  0  0  0  0  0  0  0  0  0
    4.4590    6.7240    0.0000 O   0  0  0  0  0  0  0  0  0  0  0  0
    5.9680    5.2330    0.0000 C   0  0  0  0  0  0  0  0  0  0  0  0
    2.2100    6.5090    0.0000 C   0  0  0  0  0  0  0  0  0  0  0  0
    0.7100    6.5000    0.0000 C   0  0  0  0  0  0  0  0  0  0  0  0
   -3.7740    3.8740    0.0000 C   0  0  0  0  0  0  0  0  0  0  0  0
   -4.5320    5.1690    0.0000 O   0  0  0  0  0  0  0  0  0  0  0  0
  1  2  1  0  0  0  0
  2  3  1  0  0  0  0
  2  4  1  0  0  0  0
  4  5  2  0  0  0  0
  4  6  1  0  0  0  0
  7  6  1  6  0  0  0
  7  8  1  0  0  0  0
  7 20  1  0  0  0  0
  8  9  1  6  0  0  0
  8 10  1  0  0  0  0
 10 11  1  0  0  0  0
 10 19  2  0  0  0  0
 11 12  2  0  0  0  0
 12 13  1  0  0  0  0
 13 14  1  0  0  0  0
 13 18  2  0  0  0  0
 14 15  2  0  0  0  0
 14 16  2  0  0  0  0
 14 17  1  0  0  0  0
 18 19  1  0  0  0  0
 20 21  1  0  0  0  0
M  END
>  <Index>
1065

>  <ID>
HT2037

>  <class>
0

>  <apol>
43.491894

>  <ast_fraglike>
0

>  <ast_fraglike_ext>
0

>  <ast_violation>
2

>  <ast_violation_ext>
4

>  <a_acc>
5

>  <a_acid>
0

>  <a_aro>
6

>  <a_base>
0

>  <a_count>
36

>  <a_don>
3

>  <a_donacc>
8

>  <a_heavy>
21

>  <a_hyd>
12

>  <a_IC>
70.88475

>  <a_ICM>
1.9690208

>  <a_nB>
0

>  <a_nBr>
0

>  <a_nC>
12

>  <a_nCl>
2

>  <a_nF>
0

>  <a_nH>
15

>  <a_nI>
0

>  <a_nN>
1

>  <a_nO>
5

>  <a_nP>
0

>  <a_nS>
1

>  <balabanJ>
2.5332069

>  <BCUT_PEOE_0>
-2.5865927

>  <BCUT_PEOE_1>
-0.59078324

>  <BCUT_PEOE_2>
0.64413983

>  <BCUT_PEOE_3>
2.6040208

>  <BCUT_SLOGP_0>
-2.7591279

>  <BCUT_SLOGP_1>
-0.55273587

>  <BCUT_SLOGP_2>
0.61683887

>  <BCUT_SLOGP_3>
2.5426502

>  <BCUT_SMR_0>
-2.3422759

>  <BCUT_SMR_1>
-0.43379232

>  <BCUT_SMR_2>
0.76990283

>  <BCUT_SMR_3>
2.8445854

>  <bpol>
25.332106

>  <b_1rotN>
6

>  <b_1rotR>
0.2857143

>  <b_ar>
6

>  <b_count>
36

>  <b_double>
1

>  <b_heavy>
21

>  <b_max1len>
6

>  <b_rotN>
7

>  <b_rotR>
0.33333334

>  <b_single>
29

>  <b_triple>
0

>  <chi0>
16.206743

>  <chi0v>
13.360263

>  <chi0v_C>
7.2485585

>  <chi0_C>
7.9996357

>  <chi1>
9.662921

>  <chi1v>
8.6039495

>  <chi1v_C>
3.1402991

>  <chi1_C>
4.0412416

>  <chiral>
2

>  <chiral_u>
0

>  <density>
0.93508047

>  <diameter>
11

>  <FCharge>
0

>  <GCUT_PEOE_0>
-0.88747901

>  <GCUT_PEOE_1>
-0.44555002

>  <GCUT_PEOE_2>
0.093400247

>  <GCUT_PEOE_3>
2.5282159

>  <GCUT_SLOGP_0>
-1.163257

>  <GCUT_SLOGP_1>
-0.46937037

>  <GCUT_SLOGP_2>
0.14354037

>  <GCUT_SLOGP_3>
2.5358725

>  <GCUT_SMR_0>
-0.5168609

>  <GCUT_SMR_1>
-0.20930429

>  <GCUT_SMR_2>
0.23050366

>  <GCUT_SMR_3>
2.7828097

>  <Kier1>
19.047619

>  <Kier2>
8.0222225

>  <Kier3>
5.6055365

>  <KierA1>
19.506096

>  <KierA2>
8.2254

>  <KierA3>
5.7528996

>  <KierFlex>
7.6402597

>  <lip_acc>
6

>  <lip_don>
3

>  <lip_druglike>
1

>  <lip_violation>
0

>  <logP(o/w)>
0.35936001

>  <logS>
-2.6779101

>  <mr>
8.1382284

>  <mutagenic>
1

>  <nmol>
1

>  <opr_brigid>
6

>  <opr_leadlike>
1

>  <opr_nring>
1

>  <opr_nrot>
6

>  <opr_violation>
0

>  <PC+>
0

>  <PC->
0

>  <PEOE_PC+>
2.7611153

>  <PEOE_PC->
-2.7611153

>  <PEOE_RPC+>
0.092021704

>  <PEOE_RPC->
0.17120954

>  <PEOE_VSA+0>
24.509808

>  <PEOE_VSA+1>
56.485729

>  <PEOE_VSA+2>
17.701086

>  <PEOE_VSA+3>
32.620113

>  <PEOE_VSA+4>
20.648346

>  <PEOE_VSA+5>
17.134132

>  <PEOE_VSA+6>
0

>  <PEOE_VSA-0>
26.718348

>  <PEOE_VSA-1>
59.163895

>  <PEOE_VSA-2>
6.5127993

>  <PEOE_VSA-3>
0

>  <PEOE_VSA-4>
0

>  <PEOE_VSA-5>
13.566921

>  <PEOE_VSA-6>
47.688496

>  <PEOE_VSA_FHYD>
0.69314331

>  <PEOE_VSA_FNEG>
0.47606698

>  <PEOE_VSA_FPNEG>
0.18979234

>  <PEOE_VSA_FPOL>
0.30685669

>  <PEOE_VSA_FPOS>
0.52393305

>  <PEOE_VSA_FPPOS>
0.11706434

>  <PEOE_VSA_HYD>
223.71178

>  <PEOE_VSA_NEG>
153.65045

>  <PEOE_VSA_PNEG>
61.255417

>  <PEOE_VSA_POL>
99.037895

>  <PEOE_VSA_POS>
169.09921

>  <PEOE_VSA_PPOS>
37.782478

>  <petitjean>
0.45454547

>  <petitjeanSC>
0.83333331

>  <Q_PC+>
0

>  <Q_PC->
0

>  <Q_RPC+>
0

>  <Q_RPC->
0

>  <Q_VSA_FHYD>
1

>  <Q_VSA_FNEG>
0

>  <Q_VSA_FPNEG>
0

>  <Q_VSA_FPOL>
0

>  <Q_VSA_FPOS>
1

>  <Q_VSA_FPPOS>
0

>  <Q_VSA_HYD>
322.74966

>  <Q_VSA_NEG>
0

>  <Q_VSA_PNEG>
0

>  <Q_VSA_POL>
0

>  <Q_VSA_POS>
322.74966

>  <Q_VSA_PPOS>
0

>  <radius>
6

>  <reactive>
1

>  <rings>
1

>  <RPC+>
0

>  <RPC->
0

>  <rsynth>
0.2857143

>  <SlogP>
0.4998

>  <SlogP_VSA0>
68.781204

>  <SlogP_VSA1>
53.430473

>  <SlogP_VSA2>
39.764313

>  <SlogP_VSA3>
20.926258

>  <SlogP_VSA4>
3.185575

>  <SlogP_VSA5>
33.241909

>  <SlogP_VSA6>
0

>  <SlogP_VSA7>
70.572739

>  <SlogP_VSA8>
6.4686494

>  <SlogP_VSA9>
78.297287

>  <SMR>
7.9133101

>  <SMR_VSA0>
72.033905

>  <SMR_VSA1>
50.770454

>  <SMR_VSA2>
19.561485

>  <SMR_VSA3>
18.677052

>  <SMR_VSA4>
0

>  <SMR_VSA5>
70.572739

>  <SMR_VSA6>
26.185041

>  <SMR_VSA7>
116.86773

>  <TPSA>
103.7

>  <VAdjEq>
0.45371634

>  <VAdjMa>
5.3923173

>  <VDistEq>
3.3105509

>  <VDistMa>
8.4768152

>  <vdw_area>
322.74966

>  <vdw_vol>
380.95758

>  <vsa_acc>
45.583443

>  <vsa_acid>
0

>  <vsa_base>
0

>  <vsa_don>
5.6825762

>  <vsa_hyd>
197.39207

>  <vsa_other>
26.293283

>  <vsa_pol>
78.399864

>  <Weight>
356.22598

>  <weinerPath>
1002

>  <weinerPol>
31

>  <zagreb>
102

$$$$