O(C)C1C(C2C(CC1OC(=O)c1cc(OC)c(OC(OCC)=O)c(OC)c1)CN1C(C2)c2[nH]c3cc(OC)ccc3c2CC1)C(OC)=O
  MOE2013           2D

 48 53  0  0  1  0  0  0  0  0999 V2000
    0.0000    0.0000    0.0000 O   0  0  0  0  0  0  0  0  0  0  0  0
   -1.5000   -0.0080    0.0000 C   0  0  0  0  0  0  0  0  0  0  0  0
    0.7570   -1.2950    0.0000 C   0  0  3  0  0  0  0  0  0  0  0  0
    2.2570   -1.2870    0.0000 C   0  0  3  0  0  0  0  0  0  0  0  0
    3.0140   -2.5820    0.0000 C   0  0  3  0  0  0  0  0  0  0  0  0
    2.2710   -3.8850    0.0000 C   0  0  3  0  0  0  0  0  0  0  0  0
    0.7710   -3.8930    0.0000 C   0  0  0  0  0  0  0  0  0  0  0  0
    0.0140   -2.5980    0.0000 C   0  0  3  0  0  0  0  0  0  0  0  0
   -1.4860   -2.6060    0.0000 O   0  0  0  0  0  0  0  0  0  0  0  0
   -2.2290   -3.9090    0.0000 C   0  0  0  0  0  0  0  0  0  0  0  0
   -1.4720   -5.2040    0.0000 O   0  0  0  0  0  0  0  0  0  0  0  0
   -3.7290   -3.9170    0.0000 C   0  0  0  0  0  0  0  0  0  0  0  0
   -4.4720   -5.2200    0.0000 C   0  0  0  0  0  0  0  0  0  0  0  0
   -5.9720   -5.2280    0.0000 C   0  0  0  0  0  0  0  0  0  0  0  0
   -6.7150   -6.5310    0.0000 O   0  0  0  0  0  0  0  0  0  0  0  0
   -5.9580   -7.8260    0.0000 C   0  0  0  0  0  0  0  0  0  0  0  0
   -6.7290   -3.9330    0.0000 C   0  0  0  0  0  0  0  0  0  0  0  0
   -8.2290   -3.9410    0.0000 O   0  0  0  0  0  0  0  0  0  0  0  0
   -8.9860   -2.6460    0.0000 C   0  0  0  0  0  0  0  0  0  0  0  0
  -10.4860   -2.6540    0.0000 O   0  0  0  0  0  0  0  0  0  0  0  0
  -11.2430   -1.3590    0.0000 C   0  0  0  0  0  0  0  0  0  0  0  0
  -12.7430   -1.3670    0.0000 C   0  0  0  0  0  0  0  0  0  0  0  0
   -8.2430   -1.3430    0.0000 O   0  0  0  0  0  0  0  0  0  0  0  0
   -5.9860   -2.6300    0.0000 C   0  0  0  0  0  0  0  0  0  0  0  0
   -6.7430   -1.3350    0.0000 O   0  0  0  0  0  0  0  0  0  0  0  0
   -6.0000   -0.0320    0.0000 C   0  0  0  0  0  0  0  0  0  0  0  0
   -4.4860   -2.6220    0.0000 C   0  0  0  0  0  0  0  0  0  0  0  0
    3.0280   -5.1800    0.0000 C   0  0  0  0  0  0  0  0  0  0  0  0
    4.5280   -5.1720    0.0000 N   0  0  3  0  0  0  0  0  0  0  0  0
    5.2710   -3.8690    0.0000 C   0  0  3  0  0  0  0  0  0  0  0  0
    4.5140   -2.5740    0.0000 C   0  0  0  0  0  0  0  0  0  0  0  0
    6.7710   -3.8610    0.0000 C   0  0  0  0  0  0  0  0  0  0  0  0
    7.7680   -2.7410    0.0000 N   0  0  0  0  0  0  0  0  0  0  0  0
    9.1420   -3.3440    0.0000 C   0  0  0  0  0  0  0  0  0  0  0  0
   10.5090   -2.7270    0.0000 C   0  0  0  0  0  0  0  0  0  0  0  0
   11.7270   -3.6020    0.0000 C   0  0  0  0  0  0  0  0  0  0  0  0
   13.0940   -2.9840    0.0000 O   0  0  0  0  0  0  0  0  0  0  0  0
   14.3120   -3.8600    0.0000 C   0  0  0  0  0  0  0  0  0  0  0  0
   11.5780   -5.0940    0.0000 C   0  0  0  0  0  0  0  0  0  0  0  0
   10.2110   -5.7120    0.0000 C   0  0  0  0  0  0  0  0  0  0  0  0
    8.9930   -4.8370    0.0000 C   0  0  0  0  0  0  0  0  0  0  0  0
    7.5280   -5.1560    0.0000 C   0  0  0  0  0  0  0  0  0  0  0  0
    6.7840   -6.4590    0.0000 C   0  0  0  0  0  0  0  0  0  0  0  0
    5.2840   -6.4670    0.0000 C   0  0  0  0  0  0  0  0  0  0  0  0
    3.0000    0.0160    0.0000 C   0  0  0  0  0  0  0  0  0  0  0  0
    2.2430    1.3110    0.0000 O   0  0  0  0  0  0  0  0  0  0  0  0
    2.9860    2.6140    0.0000 C   0  0  0  0  0  0  0  0  0  0  0  0
    4.5000    0.0240    0.0000 O   0  0  0  0  0  0  0  0  0  0  0  0
  1  2  1  0  0  0  0
  1  3  1  0  0  0  0
  3  4  1  0  0  0  0
  3  8  1  0  0  0  0
  4  5  1  0  0  0  0
  4 45  1  0  0  0  0
  5  6  1  0  0  0  0
  5 31  1  0  0  0  0
  6  7  1  0  0  0  0
  6 28  1  0  0  0  0
  7  8  1  0  0  0  0
  8  9  1  0  0  0  0
  9 10  1  0  0  0  0
 10 11  2  0  0  0  0
 10 12  1  0  0  0  0
 12 13  1  0  0  0  0
 12 27  2  0  0  0  0
 13 14  2  0  0  0  0
 14 15  1  0  0  0  0
 14 17  1  0  0  0  0
 15 16  1  0  0  0  0
 17 18  1  0  0  0  0
 17 24  2  0  0  0  0
 18 19  1  0  0  0  0
 19 20  1  0  0  0  0
 19 23  2  0  0  0  0
 20 21  1  0  0  0  0
 21 22  1  0  0  0  0
 24 25  1  0  0  0  0
 24 27  1  0  0  0  0
 25 26  1  0  0  0  0
 28 29  1  0  0  0  0
 29 30  1  0  0  0  0
 29 44  1  0  0  0  0
 30 31  1  0  0  0  0
 30 32  1  0  0  0  0
 32 33  1  0  0  0  0
 32 42  2  0  0  0  0
 33 34  1  0  0  0  0
 34 35  1  0  0  0  0
 34 41  2  0  0  0  0
 35 36  2  0  0  0  0
 36 37  1  0  0  0  0
 36 39  1  0  0  0  0
 37 38  1  0  0  0  0
 39 40  2  0  0  0  0
 40 41  1  0  0  0  0
 41 42  1  0  0  0  0
 42 43  1  0  0  0  0
 43 44  1  0  0  0  0
 45 46  1  0  0  0  0
 45 48  2  0  0  0  0
 46 47  1  0  0  0  0
M  END
>  <Index>
1407

>  <ID>
HT3982

>  <class>
0

>  <apol>
100.6273

>  <ast_fraglike>
0

>  <ast_fraglike_ext>
0

>  <ast_violation>
3

>  <ast_violation_ext>
4

>  <a_acc>
8

>  <a_acid>
0

>  <a_aro>
15

>  <a_base>
0

>  <a_count>
90

>  <a_don>
1

>  <a_donacc>
9

>  <a_heavy>
48

>  <a_hyd>
32

>  <a_IC>
138.2108

>  <a_ICM>
1.5356755

>  <a_nB>
0

>  <a_nBr>
0

>  <a_nC>
35

>  <a_nCl>
0

>  <a_nF>
0

>  <a_nH>
42

>  <a_nI>
0

>  <a_nN>
2

>  <a_nO>
11

>  <a_nP>
0

>  <a_nS>
0

>  <balabanJ>
1.1526209

>  <BCUT_PEOE_0>
-2.8980963

>  <BCUT_PEOE_1>
-0.526586

>  <BCUT_PEOE_2>
0.46113941

>  <BCUT_PEOE_3>
2.8961816

>  <BCUT_SLOGP_0>
-2.9231892

>  <BCUT_SLOGP_1>
-0.45357516

>  <BCUT_SLOGP_2>
0.54653859

>  <BCUT_SLOGP_3>
2.8920252

>  <BCUT_SMR_0>
-2.6560757

>  <BCUT_SMR_1>
-0.31997052

>  <BCUT_SMR_2>
0.60223216

>  <BCUT_SMR_3>
3.1297386

>  <bpol>
66.756691

>  <b_1rotN>
9

>  <b_1rotR>
0.16981132

>  <b_ar>
16

>  <b_count>
95

>  <b_double>
3

>  <b_heavy>
53

>  <b_max1len>
4

>  <b_rotN>
13

>  <b_rotR>
0.24528302

>  <b_single>
76

>  <b_triple>
0

>  <chi0>
34.11179

>  <chi0v>
28.031439

>  <chi0v_C>
22.593494

>  <chi0_C>
24.170479

>  <chi1>
23.238977

>  <chi1v>
16.092661

>  <chi1v_C>
9.6553192

>  <chi1_C>
11.422583

>  <chiral>
6

>  <chiral_u>
6

>  <density>
0.76878256

>  <diameter>
23

>  <FCharge>
0

>  <GCUT_PEOE_0>
-0.85639793

>  <GCUT_PEOE_1>
-0.42887715

>  <GCUT_PEOE_2>
-0.054549612

>  <GCUT_PEOE_3>
3.2621188

>  <GCUT_SLOGP_0>
-0.93145084

>  <GCUT_SLOGP_1>
-0.31854007

>  <GCUT_SLOGP_2>
0.088646114

>  <GCUT_SLOGP_3>
3.2942283

>  <GCUT_SMR_0>
-0.52768028

>  <GCUT_SMR_1>
-0.19553646

>  <GCUT_SMR_2>
0.11294375

>  <GCUT_SMR_3>
3.4992039

>  <Kier1>
37.747242

>  <Kier2>
16.773823

>  <Kier3>
7.7282686

>  <KierA1>
31.246056

>  <KierA2>
13.826481

>  <KierA3>
6.3517785

>  <KierFlex>
9.0004787

>  <lip_acc>
13

>  <lip_don>
1

>  <lip_druglike>
0

>  <lip_violation>
2

>  <logP(o/w)>
4.2852201

>  <logS>
-6.1215901

>  <mr>
17.417677

>  <mutagenic>
0

>  <nmol>
1

>  <opr_brigid>
31

>  <opr_leadlike>
0

>  <opr_nring>
6

>  <opr_nrot>
10

>  <opr_violation>
4

>  <PC+>
0

>  <PC->
0

>  <PEOE_PC+>
4.2634115

>  <PEOE_PC->
-4.2634115

>  <PEOE_RPC+>
0.09657196

>  <PEOE_RPC->
0.08828713

>  <PEOE_VSA+0>
235.22676

>  <PEOE_VSA+1>
145.20882

>  <PEOE_VSA+2>
25.375559

>  <PEOE_VSA+3>
8.6190128

>  <PEOE_VSA+4>
0

>  <PEOE_VSA+5>
29.416998

>  <PEOE_VSA+6>
20.958479

>  <PEOE_VSA-0>
108.33468

>  <PEOE_VSA-1>
0

>  <PEOE_VSA-2>
0

>  <PEOE_VSA-3>
0

>  <PEOE_VSA-4>
16.070677

>  <PEOE_VSA-5>
29.637598

>  <PEOE_VSA-6>
15.159428

>  <PEOE_VSA_FHYD>
0.82453978

>  <PEOE_VSA_FNEG>
0.26687735

>  <PEOE_VSA_FPNEG>
0.096004628

>  <PEOE_VSA_FPOL>
0.17546022

>  <PEOE_VSA_FPOS>
0.73312265

>  <PEOE_VSA_FPPOS>
0.079455584

>  <PEOE_VSA_HYD>
522.76483

>  <PEOE_VSA_NEG>
169.20238

>  <PEOE_VSA_PNEG>
60.867702

>  <PEOE_VSA_POL>
111.24318

>  <PEOE_VSA_POS>
464.80563

>  <PEOE_VSA_PPOS>
50.375477

>  <petitjean>
0.47826087

>  <petitjeanSC>
0.91666669

>  <Q_PC+>
0

>  <Q_PC->
0

>  <Q_RPC+>
0

>  <Q_RPC->
0

>  <Q_VSA_FHYD>
1

>  <Q_VSA_FNEG>
0

>  <Q_VSA_FPNEG>
0

>  <Q_VSA_FPOL>
0

>  <Q_VSA_FPOS>
1

>  <Q_VSA_FPPOS>
0

>  <Q_VSA_HYD>
634.008

>  <Q_VSA_NEG>
0

>  <Q_VSA_PNEG>
0

>  <Q_VSA_POL>
0

>  <Q_VSA_POS>
634.008

>  <Q_VSA_PPOS>
0

>  <radius>
12

>  <reactive>
0

>  <rings>
6

>  <RPC+>
0

>  <RPC->
0

>  <rsynth>
0.66666669

>  <SlogP>
4.7932701

>  <SlogP_VSA0>
43.99955

>  <SlogP_VSA1>
28.41856

>  <SlogP_VSA2>
97.584595

>  <SlogP_VSA3>
57.805416

>  <SlogP_VSA4>
46.222504

>  <SlogP_VSA5>
195.78775

>  <SlogP_VSA6>
0

>  <SlogP_VSA7>
92.933022

>  <SlogP_VSA8>
41.718781

>  <SlogP_VSA9>
78.161942

>  <SMR>
17.189619

>  <SMR_VSA0>
115.5862

>  <SMR_VSA1>
47.123867

>  <SMR_VSA2>
30.017918

>  <SMR_VSA3>
47.020878

>  <SMR_VSA4>
4.7171016

>  <SMR_VSA5>
144.82114

>  <SMR_VSA6>
83.099663

>  <SMR_VSA7>
210.24536

>  <TPSA>
144.08

>  <VAdjEq>
0.26918626

>  <VAdjMa>
6.7279205

>  <VDistEq>
4.1436334

>  <VDistMa>
10.880114

>  <vdw_area>
634.008

>  <vdw_vol>
867.24646

>  <vsa_acc>
50.715786

>  <vsa_acid>
0

>  <vsa_base>
0

>  <vsa_don>
5.6825762

>  <vsa_hyd>
480.92706

>  <vsa_other>
60.390503

>  <vsa_pol>
56.398365

>  <Weight>
666.724

>  <weinerPath>
9010

>  <weinerPol>
91

>  <zagreb>
260

$$$$