Clc1cc2c3c([nH]c2cc1)cc(cc3)C(C(O)=O)C
  MOE2013           2D

 19 21  0  0  1  0  0  0  0  0999 V2000
    0.0000    0.0000    0.0000 Cl  0  0  0  0  0  0  0  0  0  0  0  0
    1.1400    0.9750    0.0000 C   0  0  0  0  0  0  0  0  0  0  0  0
    2.5540    0.4750    0.0000 C   0  0  0  0  0  0  0  0  0  0  0  0
    3.6940    1.4500    0.0000 C   0  0  0  0  0  0  0  0  0  0  0  0
    5.1810    1.2560    0.0000 C   0  0  0  0  0  0  0  0  0  0  0  0
    5.8260    2.6100    0.0000 C   0  0  0  0  0  0  0  0  0  0  0  0
    4.7370    3.6420    0.0000 N   0  0  0  0  0  0  0  0  0  0  0  0
    3.4200    2.9250    0.0000 C   0  0  0  0  0  0  0  0  0  0  0  0
    2.0050    3.4250    0.0000 C   0  0  0  0  0  0  0  0  0  0  0  0
    0.8660    2.4500    0.0000 C   0  0  0  0  0  0  0  0  0  0  0  0
    7.3220    2.7290    0.0000 C   0  0  0  0  0  0  0  0  0  0  0  0
    8.1720    1.4930    0.0000 C   0  0  0  0  0  0  0  0  0  0  0  0
    7.5270    0.1390    0.0000 C   0  0  0  0  0  0  0  0  0  0  0  0
    6.0320    0.0200    0.0000 C   0  0  0  0  0  0  0  0  0  0  0  0
    9.6670    1.6120    0.0000 C   0  0  3  0  0  0  0  0  0  0  0  0
   10.5180    0.3760    0.0000 C   0  0  0  0  0  0  0  0  0  0  0  0
   12.0130    0.4950    0.0000 O   0  0  0  0  0  0  0  0  0  0  0  0
    9.8730   -0.9780    0.0000 O   0  0  0  0  0  0  0  0  0  0  0  0
   10.3120    2.9660    0.0000 C   0  0  0  0  0  0  0  0  0  0  0  0
  1  2  1  0  0  0  0
  2  3  1  0  0  0  0
  2 10  2  0  0  0  0
  3  4  2  0  0  0  0
  4  5  1  0  0  0  0
  4  8  1  0  0  0  0
  5  6  1  0  0  0  0
  5 14  2  0  0  0  0
  6  7  1  0  0  0  0
  6 11  2  0  0  0  0
  7  8  1  0  0  0  0
  8  9  2  0  0  0  0
  9 10  1  0  0  0  0
 11 12  1  0  0  0  0
 12 13  2  0  0  0  0
 12 15  1  0  0  0  0
 13 14  1  0  0  0  0
 15 16  1  0  0  0  0
 15 19  1  0  0  0  0
 16 17  1  0  0  0  0
 16 18  2  0  0  0  0
M  END
>  <Index>
196

>  <ID>
HT0388

>  <class>
0

>  <apol>
39.285515

>  <ast_fraglike>
0

>  <ast_fraglike_ext>
0

>  <ast_violation>
1

>  <ast_violation_ext>
1

>  <a_acc>
2

>  <a_acid>
0

>  <a_aro>
13

>  <a_base>
0

>  <a_count>
31

>  <a_don>
3

>  <a_donacc>
5

>  <a_heavy>
19

>  <a_hyd>
15

>  <a_IC>
49.957176

>  <a_ICM>
1.6115218

>  <a_nB>
0

>  <a_nBr>
0

>  <a_nC>
15

>  <a_nCl>
1

>  <a_nF>
0

>  <a_nH>
12

>  <a_nI>
0

>  <a_nN>
1

>  <a_nO>
2

>  <a_nP>
0

>  <a_nS>
0

>  <balabanJ>
1.6564645

>  <BCUT_PEOE_0>
-2.4198561

>  <BCUT_PEOE_1>
-0.56339842

>  <BCUT_PEOE_2>
0.59644055

>  <BCUT_PEOE_3>
2.4712739

>  <BCUT_SLOGP_0>
-2.3799179

>  <BCUT_SLOGP_1>
-0.45005673

>  <BCUT_SLOGP_2>
0.84898561

>  <BCUT_SLOGP_3>
2.5449586

>  <BCUT_SMR_0>
-2.1791921

>  <BCUT_SMR_1>
-0.36049077

>  <BCUT_SMR_2>
0.86934245

>  <BCUT_SMR_3>
2.7235181

>  <bpol>
15.156484

>  <b_1rotN>
2

>  <b_1rotR>
0.095238097

>  <b_ar>
15

>  <b_count>
33

>  <b_double>
1

>  <b_heavy>
21

>  <b_max1len>
3

>  <b_rotN>
2

>  <b_rotR>
0.095238097

>  <b_single>
17

>  <b_triple>
0

>  <chi0>
13.568549

>  <chi0v>
11.030807

>  <chi0v_C>
8.5414515

>  <chi0_C>
9.8614426

>  <chi1>
9.0585508

>  <chi1v>
6.3754458

>  <chi1v_C>
4.8807683

>  <chi1_C>
6.5100031

>  <chiral>
1

>  <chiral_u>
1

>  <density>
0.79297614

>  <diameter>
10

>  <FCharge>
0

>  <GCUT_PEOE_0>
-0.85329366

>  <GCUT_PEOE_1>
-0.44487259

>  <GCUT_PEOE_2>
0.055011459

>  <GCUT_PEOE_3>
2.4892015

>  <GCUT_SLOGP_0>
-0.87406141

>  <GCUT_SLOGP_1>
-0.32406241

>  <GCUT_SLOGP_2>
0.27769691

>  <GCUT_SLOGP_3>
2.654675

>  <GCUT_SMR_0>
-0.50061136

>  <GCUT_SMR_1>
-0.23053898

>  <GCUT_SMR_2>
0.31859708

>  <GCUT_SMR_3>
2.8132637

>  <Kier1>
13.959184

>  <Kier2>
5.4131112

>  <Kier3>
2.6122448

>  <KierA1>
10.661385

>  <KierA2>
4.0672922

>  <KierA3>
1.9378265

>  <KierFlex>
2.2822611

>  <lip_acc>
3

>  <lip_don>
2

>  <lip_druglike>
1

>  <lip_violation>
0

>  <logP(o/w)>
4.5079999

>  <logS>
-4.48839

>  <mr>
7.5474463

>  <mutagenic>
1

>  <nmol>
1

>  <opr_brigid>
15

>  <opr_leadlike>
1

>  <opr_nring>
3

>  <opr_nrot>
2

>  <opr_violation>
0

>  <PC+>
0

>  <PC->
0

>  <PEOE_PC+>
1.369459

>  <PEOE_PC->
-1.369459

>  <PEOE_RPC+>
0.19481872

>  <PEOE_RPC->
0.25858045

>  <PEOE_VSA+0>
39.397472

>  <PEOE_VSA+1>
25.592316

>  <PEOE_VSA+2>
0

>  <PEOE_VSA+3>
8.6190128

>  <PEOE_VSA+4>
10.324173

>  <PEOE_VSA+5>
14.708499

>  <PEOE_VSA+6>
0

>  <PEOE_VSA-0>
69.97583

>  <PEOE_VSA-1>
54.091755

>  <PEOE_VSA-2>
0

>  <PEOE_VSA-3>
0

>  <PEOE_VSA-4>
0

>  <PEOE_VSA-5>
13.566921

>  <PEOE_VSA-6>
7.9044313

>  <PEOE_VSA_FHYD>
0.80955058

>  <PEOE_VSA_FNEG>
0.59603035

>  <PEOE_VSA_FPNEG>
0.087932326

>  <PEOE_VSA_FPOL>
0.19044945

>  <PEOE_VSA_FPOS>
0.40396965

>  <PEOE_VSA_FPPOS>
0.10251712

>  <PEOE_VSA_HYD>
197.67639

>  <PEOE_VSA_NEG>
145.53894

>  <PEOE_VSA_PNEG>
21.471352

>  <PEOE_VSA_POL>
46.504025

>  <PEOE_VSA_POS>
98.641472

>  <PEOE_VSA_PPOS>
25.032671

>  <petitjean>
0.5

>  <petitjeanSC>
1

>  <Q_PC+>
0

>  <Q_PC->
0

>  <Q_RPC+>
0

>  <Q_RPC->
0

>  <Q_VSA_FHYD>
1

>  <Q_VSA_FNEG>
0

>  <Q_VSA_FPNEG>
0

>  <Q_VSA_FPOL>
0

>  <Q_VSA_FPOS>
1

>  <Q_VSA_FPPOS>
0

>  <Q_VSA_HYD>
244.18042

>  <Q_VSA_NEG>
0

>  <Q_VSA_PNEG>
0

>  <Q_VSA_POL>
0

>  <Q_VSA_POS>
244.18042

>  <Q_VSA_PPOS>
0

>  <radius>
5

>  <reactive>
0

>  <rings>
3

>  <RPC+>
0

>  <RPC->
0

>  <rsynth>
0

>  <SlogP>
4.1626

>  <SlogP_VSA0>
0

>  <SlogP_VSA1>
7.7454643

>  <SlogP_VSA2>
40.647747

>  <SlogP_VSA3>
25.385227

>  <SlogP_VSA4>
3.185575

>  <SlogP_VSA5>
0

>  <SlogP_VSA6>
7.9114027

>  <SlogP_VSA7>
115.29331

>  <SlogP_VSA8>
0

>  <SlogP_VSA9>
72.474655

>  <SMR>
7.6865501

>  <SMR_VSA0>
23.862217

>  <SMR_VSA1>
0

>  <SMR_VSA2>
42.170757

>  <SMR_VSA3>
11.096977

>  <SMR_VSA4>
9.4342031

>  <SMR_VSA5>
105.85911

>  <SMR_VSA6>
7.7454643

>  <SMR_VSA7>
72.474655

>  <TPSA>
53.09

>  <VAdjEq>
0.51875818

>  <VAdjMa>
5.3923173

>  <VDistEq>
3.0632911

>  <VDistMa>
8.1873999

>  <vdw_area>
244.18042

>  <vdw_vol>
345.17938

>  <vsa_acc>
0

>  <vsa_acid>
0

>  <vsa_base>
0

>  <vsa_don>
5.6825762

>  <vsa_hyd>
180.59438

>  <vsa_other>
14.708499

>  <vsa_pol>
32.816418

>  <Weight>
273.71899

>  <weinerPath>
689

>  <weinerPol>
31

>  <zagreb>
104

$$$$