S=C1N(CC=C)C(=S)NC1CC(C)C
  MOE2013           2D

 14 14  0  0  1  0  0  0  0  0999 V2000
    0.0000    0.0000    0.0000 S   0  0  0  0  0  0  0  0  0  0  0  0
   -0.0320   -1.5000    0.0000 C   0  0  0  0  0  0  0  0  0  0  0  0
    1.1620   -2.4070    0.0000 N   0  0  0  0  0  0  0  0  0  0  0  0
    2.5980   -1.9750    0.0000 C   0  0  0  0  0  0  0  0  0  0  0  0
    3.6910   -3.0020    0.0000 C   0  0  0  0  0  0  0  0  0  0  0  0
    5.1270   -2.5700    0.0000 C   0  0  0  0  0  0  0  0  0  0  0  0
    0.6670   -3.8240    0.0000 C   0  0  0  0  0  0  0  0  0  0  0  0
    1.5230   -5.0560    0.0000 S   0  0  0  0  0  0  0  0  0  0  0  0
   -0.8320   -3.7910    0.0000 N   0  0  0  0  0  0  0  0  0  0  0  0
   -1.2650   -2.3550    0.0000 C   0  0  3  0  0  0  0  0  0  0  0  0
   -2.6810   -1.8610    0.0000 C   0  0  0  0  0  0  0  0  0  0  0  0
   -3.8170   -2.8400    0.0000 C   0  0  0  0  0  0  0  0  0  0  0  0
   -5.2330   -2.3460    0.0000 C   0  0  0  0  0  0  0  0  0  0  0  0
   -3.5370   -4.3140    0.0000 C   0  0  0  0  0  0  0  0  0  0  0  0
  1  2  2  0  0  0  0
  2  3  1  0  0  0  0
  2 10  1  0  0  0  0
  3  4  1  0  0  0  0
  3  7  1  0  0  0  0
  4  5  1  0  0  0  0
  5  6  2  0  0  0  0
  7  8  2  0  0  0  0
  7  9  1  0  0  0  0
  9 10  1  0  0  0  0
 10 11  1  0  0  0  0
 11 12  1  0  0  0  0
 12 13  1  0  0  0  0
 12 14  1  0  0  0  0
M  END
>  <Index>
1275

>  <ID>
HT2993

>  <class>
0

>  <apol>
36.268688

>  <ast_fraglike>
1

>  <ast_fraglike_ext>
0

>  <ast_violation>
0

>  <ast_violation_ext>
2

>  <a_acc>
2

>  <a_acid>
0

>  <a_aro>
0

>  <a_base>
0

>  <a_count>
30

>  <a_don>
1

>  <a_donacc>
3

>  <a_heavy>
14

>  <a_hyd>
8

>  <a_IC>
45.987438

>  <a_ICM>
1.5329145

>  <a_nB>
0

>  <a_nBr>
0

>  <a_nC>
10

>  <a_nCl>
0

>  <a_nF>
0

>  <a_nH>
16

>  <a_nI>
0

>  <a_nN>
2

>  <a_nO>
0

>  <a_nP>
0

>  <a_nS>
2

>  <balabanJ>
2.5116725

>  <BCUT_PEOE_0>
-2.664835

>  <BCUT_PEOE_1>
-0.46015891

>  <BCUT_PEOE_2>
0.5199852

>  <BCUT_PEOE_3>
2.6437504

>  <BCUT_SLOGP_0>
-2.6728902

>  <BCUT_SLOGP_1>
-0.41077837

>  <BCUT_SLOGP_2>
0.66405475

>  <BCUT_SLOGP_3>
2.696811

>  <BCUT_SMR_0>
-2.4080634

>  <BCUT_SMR_1>
-0.12951744

>  <BCUT_SMR_2>
0.7388106

>  <BCUT_SMR_3>
2.9445264

>  <bpol>
22.411312

>  <b_1rotN>
4

>  <b_1rotR>
0.2857143

>  <b_ar>
0

>  <b_count>
30

>  <b_double>
3

>  <b_heavy>
14

>  <b_max1len>
5

>  <b_rotN>
4

>  <b_rotR>
0.2857143

>  <b_single>
27

>  <b_triple>
0

>  <chi0>
10.715178

>  <chi0v>
10.250074

>  <chi0v_C>
6.8533711

>  <chi0_C>
7.4307213

>  <chi1>
6.5577493

>  <chi1v>
5.60323

>  <chi1v_C>
3.0763688

>  <chi1_C>
3.5116372

>  <chiral>
1

>  <chiral_u>
1

>  <density>
0.75702292

>  <diameter>
8

>  <FCharge>
0

>  <GCUT_PEOE_0>
-0.84416974

>  <GCUT_PEOE_1>
-0.36615974

>  <GCUT_PEOE_2>
0.066947915

>  <GCUT_PEOE_3>
2.4519706

>  <GCUT_SLOGP_0>
-1.1680967

>  <GCUT_SLOGP_1>
-0.28607866

>  <GCUT_SLOGP_2>
0.16229157

>  <GCUT_SLOGP_3>
2.481745

>  <GCUT_SMR_0>
-0.5322203

>  <GCUT_SMR_1>
-0.10322411

>  <GCUT_SMR_2>
0.22686362

>  <GCUT_SMR_3>
2.7536082

>  <Kier1>
12.071428

>  <Kier2>
5.1855955

>  <Kier3>
2.994329

>  <KierA1>
11.64153

>  <KierA2>
4.9861026

>  <KierA3>
2.8726122

>  <KierFlex>
4.1461329

>  <lip_acc>
2

>  <lip_don>
1

>  <lip_druglike>
1

>  <lip_violation>
0

>  <logP(o/w)>
2.016

>  <logS>
-4.7969999

>  <mr>
6.5254021

>  <mutagenic>
0

>  <nmol>
1

>  <opr_brigid>
6

>  <opr_leadlike>
1

>  <opr_nring>
1

>  <opr_nrot>
4

>  <opr_violation>
0

>  <PC+>
0

>  <PC->
0

>  <PEOE_PC+>
0.95795751

>  <PEOE_PC->
-0.95795751

>  <PEOE_RPC+>
0.13396989

>  <PEOE_RPC->
0.29358831

>  <PEOE_VSA+0>
76.424156

>  <PEOE_VSA+1>
17.061544

>  <PEOE_VSA+2>
71.388039

>  <PEOE_VSA+3>
0

>  <PEOE_VSA+4>
0

>  <PEOE_VSA+5>
0

>  <PEOE_VSA+6>
0

>  <PEOE_VSA-0>
17.376926

>  <PEOE_VSA-1>
49.750259

>  <PEOE_VSA-2>
22.301268

>  <PEOE_VSA-3>
0

>  <PEOE_VSA-4>
0

>  <PEOE_VSA-5>
0.13689101

>  <PEOE_VSA-6>
0

>  <PEOE_VSA_FHYD>
0.99946201

>  <PEOE_VSA_FNEG>
0.35201097

>  <PEOE_VSA_FPNEG>
0.00053801091

>  <PEOE_VSA_FPOL>
0.00053801091

>  <PEOE_VSA_FPOS>
0.64798903

>  <PEOE_VSA_FPPOS>
0

>  <PEOE_VSA_HYD>
254.30219

>  <PEOE_VSA_NEG>
89.565346

>  <PEOE_VSA_PNEG>
0.13689101

>  <PEOE_VSA_POL>
0.13689101

>  <PEOE_VSA_POS>
164.87373

>  <PEOE_VSA_PPOS>
0

>  <petitjean>
0.5

>  <petitjeanSC>
1

>  <Q_PC+>
0

>  <Q_PC->
0

>  <Q_RPC+>
0

>  <Q_RPC->
0

>  <Q_VSA_FHYD>
1

>  <Q_VSA_FNEG>
0

>  <Q_VSA_FPNEG>
0

>  <Q_VSA_FPOL>
0

>  <Q_VSA_FPOS>
1

>  <Q_VSA_FPPOS>
0

>  <Q_VSA_HYD>
254.43909

>  <Q_VSA_NEG>
0

>  <Q_VSA_PNEG>
0

>  <Q_VSA_POL>
0

>  <Q_VSA_POS>
254.43909

>  <Q_VSA_PPOS>
0

>  <radius>
4

>  <reactive>
0

>  <rings>
1

>  <RPC+>
0

>  <RPC->
0

>  <rsynth>
1

>  <SlogP>
2.1046

>  <SlogP_VSA0>
18.01075

>  <SlogP_VSA1>
4.1221843

>  <SlogP_VSA2>
3.9819686

>  <SlogP_VSA3>
18.439579

>  <SlogP_VSA4>
4.4107962

>  <SlogP_VSA5>
0

>  <SlogP_VSA6>
0

>  <SlogP_VSA7>
17.643185

>  <SlogP_VSA8>
18.868406

>  <SlogP_VSA9>
189.13689

>  <SMR>
6.84797

>  <SMR_VSA0>
0

>  <SMR_VSA1>
3.1243138

>  <SMR_VSA2>
22.421547

>  <SMR_VSA3>
3.9819686

>  <SMR_VSA4>
0

>  <SMR_VSA5>
36.511589

>  <SMR_VSA6>
19.437449

>  <SMR_VSA7>
189.13689

>  <TPSA>
79.449997

>  <VAdjEq>
0.59167278

>  <VAdjMa>
4.8073549

>  <VDistEq>
2.7336998

>  <VDistMa>
7.3105321

>  <vdw_area>
254.43909

>  <vdw_vol>
301.68704

>  <vsa_acc>
62.769024

>  <vsa_acid>
0

>  <vsa_base>
0

>  <vsa_don>
5.6825762

>  <vsa_hyd>
149.04994

>  <vsa_other>
21.842237

>  <vsa_pol>
68.451599

>  <Weight>
228.384

>  <weinerPath>
308

>  <weinerPol>
18

>  <zagreb>
66

$$$$