S(=O)(=O)(Nc1noc(c1)C)c1ccc(N)cc1
  MOE2013           2D

 17 18  0  0  0  0  0  0  0  0999 V2000
    0.0000    0.0000    0.0000 S   0  0  0  0  0  0  0  0  0  0  0  0
   -0.7570   -1.2950    0.0000 O   0  0  0  0  0  0  0  0  0  0  0  0
    0.7570    1.2950    0.0000 O   0  0  0  0  0  0  0  0  0  0  0  0
    1.2950   -0.7570    0.0000 N   0  0  0  0  0  0  0  0  0  0  0  0
    2.5980   -0.0140    0.0000 C   0  0  0  0  0  0  0  0  0  0  0  0
    2.7630    1.4770    0.0000 N   0  0  0  0  0  0  0  0  0  0  0  0
    4.2320    1.7810    0.0000 O   0  0  0  0  0  0  0  0  0  0  0  0
    4.9750    0.4780    0.0000 C   0  0  0  0  0  0  0  0  0  0  0  0
    3.9650   -0.6310    0.0000 C   0  0  0  0  0  0  0  0  0  0  0  0
    6.4660    0.3140    0.0000 C   0  0  0  0  0  0  0  0  0  0  0  0
   -1.2950    0.7570    0.0000 C   0  0  0  0  0  0  0  0  0  0  0  0
   -2.5980    0.0140    0.0000 C   0  0  0  0  0  0  0  0  0  0  0  0
   -3.8930    0.7710    0.0000 C   0  0  0  0  0  0  0  0  0  0  0  0
   -3.8850    2.2710    0.0000 C   0  0  0  0  0  0  0  0  0  0  0  0
   -5.1800    3.0280    0.0000 N   0  0  0  0  0  0  0  0  0  0  0  0
   -2.5820    3.0140    0.0000 C   0  0  0  0  0  0  0  0  0  0  0  0
   -1.2870    2.2570    0.0000 C   0  0  0  0  0  0  0  0  0  0  0  0
  1  2  2  0  0  0  0
  1  3  2  0  0  0  0
  1  4  1  0  0  0  0
  1 11  1  0  0  0  0
  4  5  1  0  0  0  0
  5  6  2  0  0  0  0
  5  9  1  0  0  0  0
  6  7  1  0  0  0  0
  7  8  1  0  0  0  0
  8  9  2  0  0  0  0
  8 10  1  0  0  0  0
 11 12  1  0  0  0  0
 11 17  2  0  0  0  0
 12 13  2  0  0  0  0
 13 14  1  0  0  0  0
 14 15  1  0  0  0  0
 14 16  2  0  0  0  0
 16 17  1  0  0  0  0
M  END
>  <Index>
1019

>  <ID>
HT1945

>  <class>
0

>  <apol>
33.540722

>  <ast_fraglike>
1

>  <ast_fraglike_ext>
0

>  <ast_violation>
0

>  <ast_violation_ext>
1

>  <a_acc>
3

>  <a_acid>
0

>  <a_aro>
11

>  <a_base>
0

>  <a_count>
28

>  <a_don>
2

>  <a_donacc>
5

>  <a_heavy>
17

>  <a_hyd>
8

>  <a_IC>
53.823135

>  <a_ICM>
1.9222548

>  <a_nB>
0

>  <a_nBr>
0

>  <a_nC>
10

>  <a_nCl>
0

>  <a_nF>
0

>  <a_nH>
11

>  <a_nI>
0

>  <a_nN>
3

>  <a_nO>
3

>  <a_nP>
0

>  <a_nS>
1

>  <balabanJ>
1.8581145

>  <BCUT_PEOE_0>
-2.3048303

>  <BCUT_PEOE_1>
-0.62337822

>  <BCUT_PEOE_2>
0.68784034

>  <BCUT_PEOE_3>
2.4308014

>  <BCUT_SLOGP_0>
-2.4320927

>  <BCUT_SLOGP_1>
-0.53807992

>  <BCUT_SLOGP_2>
0.80591482

>  <BCUT_SLOGP_3>
2.4101112

>  <BCUT_SMR_0>
-1.985093

>  <BCUT_SMR_1>
-0.49986199

>  <BCUT_SMR_2>
0.85431087

>  <BCUT_SMR_3>
2.7694435

>  <bpol>
20.417276

>  <b_1rotN>
3

>  <b_1rotR>
0.16666667

>  <b_ar>
11

>  <b_count>
29

>  <b_double>
0

>  <b_heavy>
18

>  <b_max1len>
3

>  <b_rotN>
3

>  <b_rotR>
0.16666667

>  <b_single>
18

>  <b_triple>
0

>  <chi0>
12.466255

>  <chi0v>
9.8608046

>  <chi0v_C>
5.8867512

>  <chi0_C>
6.8449349

>  <chi1>
7.9711637

>  <chi1v>
6.2724428

>  <chi1v_C>
2.8987174

>  <chi1_C>
4.0268402

>  <chiral>
0

>  <chiral_u>
0

>  <density>
0.8574717

>  <diameter>
10

>  <FCharge>
0

>  <GCUT_PEOE_0>
-0.92383438

>  <GCUT_PEOE_1>
-0.35586563

>  <GCUT_PEOE_2>
0.079774939

>  <GCUT_PEOE_3>
2.3056736

>  <GCUT_SLOGP_0>
-1.3342893

>  <GCUT_SLOGP_1>
-0.39145333

>  <GCUT_SLOGP_2>
0.16445385

>  <GCUT_SLOGP_3>
2.364167

>  <GCUT_SMR_0>
-0.48405203

>  <GCUT_SMR_1>
-0.20176119

>  <GCUT_SMR_2>
0.19305076

>  <GCUT_SMR_3>
2.5940025

>  <Kier1>
13.432098

>  <Kier2>
5.3254437

>  <Kier3>
3.4844444

>  <KierA1>
10.724027

>  <KierA2>
4.1871409

>  <KierA3>
2.7063363

>  <KierFlex>
2.6413536

>  <lip_acc>
6

>  <lip_don>
3

>  <lip_druglike>
1

>  <lip_violation>
0

>  <logP(o/w)>
0.93099999

>  <logS>
-2.0386

>  <mr>
6.3716831

>  <mutagenic>
1

>  <nmol>
1

>  <opr_brigid>
11

>  <opr_leadlike>
1

>  <opr_nring>
2

>  <opr_nrot>
2

>  <opr_violation>
0

>  <PC+>
0

>  <PC->
0

>  <PEOE_PC+>
1.4756202

>  <PEOE_PC->
-1.4756202

>  <PEOE_RPC+>
0.2029826

>  <PEOE_RPC->
0.31102914

>  <PEOE_VSA+0>
55.196079

>  <PEOE_VSA+1>
29.945944

>  <PEOE_VSA+2>
25.696545

>  <PEOE_VSA+3>
10.105608

>  <PEOE_VSA+4>
0

>  <PEOE_VSA+5>
4.1846013

>  <PEOE_VSA+6>
0

>  <PEOE_VSA-0>
55.51239

>  <PEOE_VSA-1>
0

>  <PEOE_VSA-2>
34.546043

>  <PEOE_VSA-3>
0

>  <PEOE_VSA-4>
0

>  <PEOE_VSA-5>
10.885262

>  <PEOE_VSA-6>
12.553479

>  <PEOE_VSA_FHYD>
0.88423997

>  <PEOE_VSA_FNEG>
0.47562796

>  <PEOE_VSA_FPNEG>
0.098223768

>  <PEOE_VSA_FPOL>
0.11576001

>  <PEOE_VSA_FPOS>
0.52437204

>  <PEOE_VSA_FPPOS>
0.017536238

>  <PEOE_VSA_HYD>
211.00261

>  <PEOE_VSA_NEG>
113.49718

>  <PEOE_VSA_PNEG>
23.43874

>  <PEOE_VSA_POL>
27.623343

>  <PEOE_VSA_POS>
125.12878

>  <PEOE_VSA_PPOS>
4.1846013

>  <petitjean>
0.5

>  <petitjeanSC>
1

>  <Q_PC+>
0

>  <Q_PC->
0

>  <Q_RPC+>
0

>  <Q_RPC->
0

>  <Q_VSA_FHYD>
1

>  <Q_VSA_FNEG>
0

>  <Q_VSA_FPNEG>
0

>  <Q_VSA_FPOL>
0

>  <Q_VSA_FPOS>
1

>  <Q_VSA_FPPOS>
0

>  <Q_VSA_HYD>
238.62595

>  <Q_VSA_NEG>
0

>  <Q_VSA_PNEG>
0

>  <Q_VSA_POL>
0

>  <Q_VSA_POS>
238.62595

>  <Q_VSA_PPOS>
0

>  <radius>
5

>  <reactive>
0

>  <rings>
2

>  <RPC+>
0

>  <RPC->
0

>  <rsynth>
1

>  <SlogP>
1.36602

>  <SlogP_VSA0>
32.897186

>  <SlogP_VSA1>
84.173279

>  <SlogP_VSA2>
6.6407428

>  <SlogP_VSA3>
0

>  <SlogP_VSA4>
5.4488211

>  <SlogP_VSA5>
11.284855

>  <SlogP_VSA6>
0

>  <SlogP_VSA7>
88.215919

>  <SlogP_VSA8>
0

>  <SlogP_VSA9>
38.410683

>  <SMR>
6.2902899

>  <SMR_VSA0>
57.905807

>  <SMR_VSA1>
19.596598

>  <SMR_VSA2>
1.5507339

>  <SMR_VSA3>
5.4488211

>  <SMR_VSA4>
21.489666

>  <SMR_VSA5>
121.11311

>  <SMR_VSA6>
0

>  <SMR_VSA7>
39.966759

>  <TPSA>
98.220001

>  <VAdjEq>
0.54234898

>  <VAdjMa>
5.1699252

>  <VDistEq>
3.0214891

>  <VDistMa>
7.8609862

>  <vdw_area>
238.62595

>  <vdw_vol>
295.38235

>  <vsa_acc>
42.901787

>  <vsa_acid>
0

>  <vsa_base>
0

>  <vsa_don>
25.817696

>  <vsa_hyd>
119.33508

>  <vsa_other>
35.657051

>  <vsa_pol>
68.719482

>  <Weight>
253.282

>  <weinerPath>
535

>  <weinerPol>
22

>  <zagreb>
88

$$$$