Clc1cccc(Nc2ccccc2C(O)=O)c1C
  MOE2013           2D

 18 19  0  0  0  0  0  0  0  0999 V2000
    0.0000    0.0000    0.0000 Cl  0  0  0  0  0  0  0  0  0  0  0  0
   -1.2940    0.7590    0.0000 C   0  0  0  0  0  0  0  0  0  0  0  0
   -1.2830    2.2590    0.0000 C   0  0  0  0  0  0  0  0  0  0  0  0
   -2.5770    3.0180    0.0000 C   0  0  0  0  0  0  0  0  0  0  0  0
   -3.8810    2.2770    0.0000 C   0  0  0  0  0  0  0  0  0  0  0  0
   -3.8920    0.7770    0.0000 C   0  0  0  0  0  0  0  0  0  0  0  0
   -5.1960    0.0370    0.0000 N   0  0  0  0  0  0  0  0  0  0  0  0
   -6.4900    0.7960    0.0000 C   0  0  0  0  0  0  0  0  0  0  0  0
   -6.4790    2.2960    0.0000 C   0  0  0  0  0  0  0  0  0  0  0  0
   -7.7730    3.0550    0.0000 C   0  0  0  0  0  0  0  0  0  0  0  0
   -9.0770    2.3140    0.0000 C   0  0  0  0  0  0  0  0  0  0  0  0
   -9.0880    0.8140    0.0000 C   0  0  0  0  0  0  0  0  0  0  0  0
   -7.7940    0.0550    0.0000 C   0  0  0  0  0  0  0  0  0  0  0  0
   -7.8050   -1.4450    0.0000 C   0  0  0  0  0  0  0  0  0  0  0  0
   -6.5110   -2.2040    0.0000 O   0  0  0  0  0  0  0  0  0  0  0  0
   -9.1090   -2.1860    0.0000 O   0  0  0  0  0  0  0  0  0  0  0  0
   -2.5980    0.0180    0.0000 C   0  0  0  0  0  0  0  0  0  0  0  0
   -2.6090   -1.4820    0.0000 C   0  0  0  0  0  0  0  0  0  0  0  0
  1  2  1  0  0  0  0
  2  3  1  0  0  0  0
  2 17  2  0  0  0  0
  3  4  2  0  0  0  0
  4  5  1  0  0  0  0
  5  6  2  0  0  0  0
  6  7  1  0  0  0  0
  6 17  1  0  0  0  0
  7  8  1  0  0  0  0
  8  9  1  0  0  0  0
  8 13  2  0  0  0  0
  9 10  2  0  0  0  0
 10 11  1  0  0  0  0
 11 12  2  0  0  0  0
 12 13  1  0  0  0  0
 13 14  1  0  0  0  0
 14 15  1  0  0  0  0
 14 16  2  0  0  0  0
 17 18  1  0  0  0  0
M  END
>  <Index>
1086

>  <ID>
HT2083

>  <class>
0

>  <apol>
37.525517

>  <ast_fraglike>
0

>  <ast_fraglike_ext>
0

>  <ast_violation>
1

>  <ast_violation_ext>
1

>  <a_acc>
2

>  <a_acid>
0

>  <a_aro>
12

>  <a_base>
0

>  <a_count>
30

>  <a_don>
3

>  <a_donacc>
5

>  <a_heavy>
18

>  <a_hyd>
14

>  <a_IC>
48.884197

>  <a_ICM>
1.6294733

>  <a_nB>
0

>  <a_nBr>
0

>  <a_nC>
14

>  <a_nCl>
1

>  <a_nF>
0

>  <a_nH>
12

>  <a_nI>
0

>  <a_nN>
1

>  <a_nO>
2

>  <a_nP>
0

>  <a_nS>
0

>  <balabanJ>
1.9478087

>  <BCUT_PEOE_0>
-2.3436415

>  <BCUT_PEOE_1>
-0.5676676

>  <BCUT_PEOE_2>
0.62305754

>  <BCUT_PEOE_3>
2.2948349

>  <BCUT_SLOGP_0>
-2.2322533

>  <BCUT_SLOGP_1>
-0.46271059

>  <BCUT_SLOGP_2>
0.75110918

>  <BCUT_SLOGP_3>
2.471889

>  <BCUT_SMR_0>
-2.0127275

>  <BCUT_SMR_1>
-0.40955848

>  <BCUT_SMR_2>
0.79969811

>  <BCUT_SMR_3>
2.6356664

>  <bpol>
15.156484

>  <b_1rotN>
3

>  <b_1rotR>
0.15789473

>  <b_ar>
12

>  <b_count>
31

>  <b_double>
1

>  <b_heavy>
19

>  <b_max1len>
2

>  <b_rotN>
3

>  <b_rotR>
0.15789473

>  <b_single>
18

>  <b_triple>
0

>  <chi0>
13.120955

>  <chi0v>
10.530807

>  <chi0v_C>
8.0414515

>  <chi0_C>
9.4138489

>  <chi1>
8.5922241

>  <chi1v>
5.8160448

>  <chi1v_C>
4.3213673

>  <chi1_C>
6.0436769

>  <chiral>
0

>  <chiral_u>
0

>  <density>
0.78204364

>  <diameter>
8

>  <FCharge>
0

>  <GCUT_PEOE_0>
-0.79964352

>  <GCUT_PEOE_1>
-0.40167814

>  <GCUT_PEOE_2>
0.088663951

>  <GCUT_PEOE_3>
2.3498447

>  <GCUT_SLOGP_0>
-0.89560986

>  <GCUT_SLOGP_1>
-0.26481023

>  <GCUT_SLOGP_2>
0.21906465

>  <GCUT_SLOGP_3>
2.5189979

>  <GCUT_SMR_0>
-0.4785907

>  <GCUT_SMR_1>
-0.20171899

>  <GCUT_SMR_2>
0.26398876

>  <GCUT_SMR_3>
2.6678889

>  <Kier1>
14.409972

>  <Kier2>
6.43787

>  <Kier3>
3.5261707

>  <KierA1>
10.827334

>  <KierA2>
4.7488461

>  <KierA3>
2.5656638

>  <KierFlex>
2.856519

>  <lip_acc>
3

>  <lip_don>
2

>  <lip_druglike>
1

>  <lip_violation>
0

>  <logP(o/w)>
3.849

>  <logS>
-3.86936

>  <mr>
7.228941

>  <mutagenic>
0

>  <nmol>
1

>  <opr_brigid>
12

>  <opr_leadlike>
1

>  <opr_nring>
2

>  <opr_nrot>
3

>  <opr_violation>
0

>  <PC+>
0

>  <PC->
0

>  <PEOE_PC+>
1.3351064

>  <PEOE_PC->
-1.3351064

>  <PEOE_RPC+>
0.21928026

>  <PEOE_RPC->
0.24526227

>  <PEOE_VSA+0>
30.715008

>  <PEOE_VSA+1>
32.066242

>  <PEOE_VSA+2>
8.6190128

>  <PEOE_VSA+3>
0

>  <PEOE_VSA+4>
10.324173

>  <PEOE_VSA+5>
14.708499

>  <PEOE_VSA+6>
0

>  <PEOE_VSA-0>
69.97583

>  <PEOE_VSA-1>
66.346657

>  <PEOE_VSA-2>
0

>  <PEOE_VSA-3>
0

>  <PEOE_VSA-4>
0

>  <PEOE_VSA-5>
13.703812

>  <PEOE_VSA-6>
7.7675405

>  <PEOE_VSA_FHYD>
0.81707662

>  <PEOE_VSA_FNEG>
0.62068146

>  <PEOE_VSA_FPNEG>
0.084457479

>  <PEOE_VSA_FPOL>
0.18292339

>  <PEOE_VSA_FPOS>
0.37931857

>  <PEOE_VSA_FPPOS>
0.098465912

>  <PEOE_VSA_HYD>
207.72275

>  <PEOE_VSA_NEG>
157.79384

>  <PEOE_VSA_PNEG>
21.471352

>  <PEOE_VSA_POL>
46.504025

>  <PEOE_VSA_POS>
96.43293

>  <PEOE_VSA_PPOS>
25.032671

>  <petitjean>
0.5

>  <petitjeanSC>
1

>  <Q_PC+>
0

>  <Q_PC->
0

>  <Q_RPC+>
0

>  <Q_RPC->
0

>  <Q_VSA_FHYD>
1

>  <Q_VSA_FNEG>
0

>  <Q_VSA_FPNEG>
0

>  <Q_VSA_FPOL>
0

>  <Q_VSA_FPOS>
1

>  <Q_VSA_FPPOS>
0

>  <Q_VSA_HYD>
254.22678

>  <Q_VSA_NEG>
0

>  <Q_VSA_PNEG>
0

>  <Q_VSA_POL>
0

>  <Q_VSA_POS>
254.22678

>  <Q_VSA_PPOS>
0

>  <radius>
4

>  <reactive>
0

>  <rings>
2

>  <RPC+>
0

>  <RPC->
0

>  <rsynth>
1

>  <SlogP>
4.09022

>  <SlogP_VSA0>
0

>  <SlogP_VSA1>
25.756214

>  <SlogP_VSA2>
0

>  <SlogP_VSA3>
25.385227

>  <SlogP_VSA4>
30.233366

>  <SlogP_VSA5>
0

>  <SlogP_VSA6>
3.5006065

>  <SlogP_VSA7>
123.50229

>  <SlogP_VSA8>
0

>  <SlogP_VSA9>
77.988152

>  <SMR>
7.2873001

>  <SMR_VSA0>
23.862217

>  <SMR_VSA1>
0

>  <SMR_VSA2>
25.385227

>  <SMR_VSA3>
9.8717566

>  <SMR_VSA4>
23.524246

>  <SMR_VSA5>
123.50229

>  <SMR_VSA6>
7.7454643

>  <SMR_VSA7>
72.474655

>  <TPSA>
49.330002

>  <VAdjEq>
0.52150291

>  <VAdjMa>
5.2479277

>  <VDistEq>
2.9113362

>  <VDistMa>
8.0568371

>  <vdw_area>
254.22678

>  <vdw_vol>
334.64627

>  <vsa_acc>
0

>  <vsa_acid>
0

>  <vsa_base>
0

>  <vsa_don>
5.6825762

>  <vsa_hyd>
191.98579

>  <vsa_other>
14.708499

>  <vsa_pol>
32.816418

>  <Weight>
261.70801

>  <weinerPath>
602

>  <weinerPol>
27

>  <zagreb>
90

$$$$