ClC(Cl)(F)F
  MOE2013           2D

  5  4  0  0  0  0  0  0  0  0999 V2000
    0.0000    0.0000    0.0000 Cl  0  0  0  0  0  0  0  0  0  0  0  0
    1.5000    0.0000    0.0000 C   0  0  0  0  0  0  0  0  0  0  0  0
    1.5000   -1.5000    0.0000 Cl  0  0  0  0  0  0  0  0  0  0  0  0
    3.0000    0.0000    0.0000 F   0  0  0  0  0  0  0  0  0  0  0  0
    1.5000    1.5000    0.0000 F   0  0  0  0  0  0  0  0  0  0  0  0
  1  2  1  0  0  0  0
  2  3  1  0  0  0  0
  2  4  1  0  0  0  0
  2  5  1  0  0  0  0
M  END
>  <Index>
1210

>  <ID>
HT2492

>  <class>
0

>  <apol>
7.2340002

>  <ast_fraglike>
1

>  <ast_fraglike_ext>
1

>  <ast_violation>
0

>  <ast_violation_ext>
0

>  <a_acc>
0

>  <a_acid>
0

>  <a_aro>
0

>  <a_base>
0

>  <a_count>
5

>  <a_don>
0

>  <a_donacc>
0

>  <a_heavy>
5

>  <a_hyd>
4

>  <a_IC>
7.6096406

>  <a_ICM>
1.5219281

>  <a_nB>
0

>  <a_nBr>
0

>  <a_nC>
1

>  <a_nCl>
2

>  <a_nF>
2

>  <a_nH>
0

>  <a_nI>
0

>  <a_nN>
0

>  <a_nO>
0

>  <a_nP>
0

>  <a_nS>
0

>  <balabanJ>
3.0237157

>  <BCUT_PEOE_0>
-1.8665813

>  <BCUT_PEOE_1>
-0.14743431

>  <BCUT_PEOE_2>
-0.053117264

>  <BCUT_PEOE_3>
2.1674087

>  <BCUT_SLOGP_0>
-1.8639519

>  <BCUT_SLOGP_1>
0.46394107

>  <BCUT_SLOGP_2>
0.6434744

>  <BCUT_SLOGP_3>
2.2171288

>  <BCUT_SMR_0>
-1.7032858

>  <BCUT_SMR_1>
0.18953666

>  <BCUT_SMR_2>
0.50586998

>  <BCUT_SMR_3>
2.3254759

>  <bpol>
3.2460001

>  <b_1rotN>
0

>  <b_1rotR>
0

>  <b_ar>
0

>  <b_count>
4

>  <b_double>
0

>  <b_heavy>
4

>  <b_max1len>
2

>  <b_rotN>
0

>  <b_rotR>
0

>  <b_single>
4

>  <b_triple>
0

>  <chi0>
4.5

>  <chi0v>
3.5237157

>  <chi0v_C>
0.5

>  <chi0_C>
0.5

>  <chi1>
2

>  <chi1v>
1.5118579

>  <chi1v_C>
0

>  <chi1_C>
0

>  <chiral>
0

>  <chiral_u>
0

>  <density>
1.5801156

>  <diameter>
2

>  <FCharge>
0

>  <GCUT_PEOE_0>
-0.50850415

>  <GCUT_PEOE_1>
-0.30475411

>  <GCUT_PEOE_2>
-0.21043706

>  <GCUT_PEOE_3>
1.2812909

>  <GCUT_SLOGP_0>
-0.67252201

>  <GCUT_SLOGP_1>
0.30204096

>  <GCUT_SLOGP_2>
0.4815743

>  <GCUT_SLOGP_3>
1.5113991

>  <GCUT_SMR_0>
-0.414489

>  <GCUT_SMR_1>
0.031887289

>  <GCUT_SMR_2>
0.34822062

>  <GCUT_SMR_3>
1.5096271

>  <Kier1>
5

>  <Kier2>
1

>  <Kier3>
0

>  <KierA1>
8.3230915

>  <KierA2>
1.9170249

>  <KierA3>
0

>  <KierFlex>
3.1911149

>  <lip_acc>
0

>  <lip_don>
0

>  <lip_druglike>
1

>  <lip_violation>
0

>  <logP(o/w)>
2.49596

>  <logS>
-1.93636

>  <mr>
1.5552245

>  <mutagenic>
1

>  <nmol>
1

>  <opr_brigid>
0

>  <opr_leadlike>
1

>  <opr_nring>
0

>  <opr_nrot>
0

>  <opr_violation>
0

>  <PC+>
0

>  <PC->
0

>  <PEOE_PC+>
0.40194008

>  <PEOE_PC->
-0.40194008

>  <PEOE_RPC+>
1

>  <PEOE_RPC->
0.42599088

>  <PEOE_VSA+0>
0

>  <PEOE_VSA+1>
0

>  <PEOE_VSA+2>
0

>  <PEOE_VSA+3>
0

>  <PEOE_VSA+4>
0

>  <PEOE_VSA+5>
0

>  <PEOE_VSA+6>
6.8556099

>  <PEOE_VSA-0>
59.163895

>  <PEOE_VSA-1>
0

>  <PEOE_VSA-2>
0

>  <PEOE_VSA-3>
23.817272

>  <PEOE_VSA-4>
0

>  <PEOE_VSA-5>
0

>  <PEOE_VSA-6>
0

>  <PEOE_VSA_FHYD>
0.92368817

>  <PEOE_VSA_FNEG>
0.92368817

>  <PEOE_VSA_FPNEG>
0

>  <PEOE_VSA_FPOL>
0.076311842

>  <PEOE_VSA_FPOS>
0.076311842

>  <PEOE_VSA_FPPOS>
0.076311842

>  <PEOE_VSA_HYD>
82.981163

>  <PEOE_VSA_NEG>
82.981163

>  <PEOE_VSA_PNEG>
0

>  <PEOE_VSA_POL>
6.8556099

>  <PEOE_VSA_POS>
6.8556099

>  <PEOE_VSA_PPOS>
6.8556099

>  <petitjean>
0.5

>  <petitjeanSC>
1

>  <Q_PC+>
0

>  <Q_PC->
0

>  <Q_RPC+>
0

>  <Q_RPC->
0

>  <Q_VSA_FHYD>
1

>  <Q_VSA_FNEG>
0

>  <Q_VSA_FPNEG>
0

>  <Q_VSA_FPOL>
0

>  <Q_VSA_FPOS>
1

>  <Q_VSA_FPPOS>
0

>  <Q_VSA_HYD>
89.836777

>  <Q_VSA_NEG>
0

>  <Q_VSA_PNEG>
0

>  <Q_VSA_POL>
0

>  <Q_VSA_POS>
89.836777

>  <Q_VSA_PPOS>
0

>  <radius>
1

>  <reactive>
1

>  <rings>
0

>  <RPC+>
0

>  <RPC->
0

>  <rsynth>
1

>  <SlogP>
2.0143001

>  <SlogP_VSA0>
0

>  <SlogP_VSA1>
2.4541361

>  <SlogP_VSA2>
0

>  <SlogP_VSA3>
0

>  <SlogP_VSA4>
0

>  <SlogP_VSA5>
0

>  <SlogP_VSA6>
0

>  <SlogP_VSA7>
0

>  <SlogP_VSA8>
0

>  <SlogP_VSA9>
108.21751

>  <SMR>
1.6653

>  <SMR_VSA0>
0

>  <SMR_VSA1>
29.920227

>  <SMR_VSA2>
2.4541361

>  <SMR_VSA3>
0

>  <SMR_VSA4>
0

>  <SMR_VSA5>
0

>  <SMR_VSA6>
0

>  <SMR_VSA7>
78.297287

>  <TPSA>
0

>  <VAdjEq>
0.90438145

>  <VAdjMa>
3

>  <VDistEq>
0.9709506

>  <VDistMa>
4.25

>  <vdw_area>
89.836777

>  <vdw_vol>
76.521614

>  <vsa_acc>
0

>  <vsa_acid>
0

>  <vsa_base>
0

>  <vsa_don>
0

>  <vsa_hyd>
82.981163

>  <vsa_other>
6.8556099

>  <vsa_pol>
0

>  <Weight>
120.91299

>  <weinerPath>
16

>  <weinerPol>
0

>  <zagreb>
20

$$$$