OCCN(C)C
  MOE2013           2D

  6  5  0  0  0  0  0  0  0  0999 V2000
    0.0000    0.0000    0.0000 O   0  0  0  0  0  0  0  0  0  0  0  0
   -1.3010    0.7470    0.0000 C   0  0  0  0  0  0  0  0  0  0  0  0
   -2.5980   -0.0070    0.0000 C   0  0  0  0  0  0  0  0  0  0  0  0
   -3.8990    0.7400    0.0000 N   0  0  0  0  0  0  0  0  0  0  0  0
   -5.1960   -0.0140    0.0000 C   0  0  0  0  0  0  0  0  0  0  0  0
   -3.9030    2.2400    0.0000 C   0  0  0  0  0  0  0  0  0  0  0  0
  1  2  1  0  0  0  0
  2  3  1  0  0  0  0
  3  4  1  0  0  0  0
  4  5  1  0  0  0  0
  4  6  1  0  0  0  0
M  END
>  <Index>
1192

>  <ID>
HT2376

>  <class>
0

>  <apol>
16.276724

>  <ast_fraglike>
1

>  <ast_fraglike_ext>
1

>  <ast_violation>
0

>  <ast_violation_ext>
0

>  <a_acc>
2

>  <a_acid>
0

>  <a_aro>
0

>  <a_base>
0

>  <a_count>
17

>  <a_don>
1

>  <a_donacc>
3

>  <a_heavy>
6

>  <a_hyd>
4

>  <a_IC>
23.433121

>  <a_ICM>
1.3784188

>  <a_nB>
0

>  <a_nBr>
0

>  <a_nC>
4

>  <a_nCl>
0

>  <a_nF>
0

>  <a_nH>
11

>  <a_nI>
0

>  <a_nN>
1

>  <a_nO>
1

>  <a_nP>
0

>  <a_nS>
0

>  <balabanJ>
2.6272149

>  <BCUT_PEOE_0>
-2.5923159

>  <BCUT_PEOE_1>
-0.065621607

>  <BCUT_PEOE_2>
0.052939687

>  <BCUT_PEOE_3>
2.4883044

>  <BCUT_SLOGP_0>
-2.7004781

>  <BCUT_SLOGP_1>
-0.013327354

>  <BCUT_SLOGP_2>
0.123

>  <BCUT_SLOGP_3>
2.3802664

>  <BCUT_SMR_0>
-2.3171194

>  <BCUT_SMR_1>
0.1057

>  <BCUT_SMR_2>
0.129785

>  <BCUT_SMR_3>
2.7486126

>  <bpol>
14.005277

>  <b_1rotN>
2

>  <b_1rotR>
0.40000001

>  <b_ar>
0

>  <b_count>
16

>  <b_double>
0

>  <b_heavy>
5

>  <b_max1len>
6

>  <b_rotN>
2

>  <b_rotR>
0.40000001

>  <b_single>
16

>  <b_triple>
0

>  <chi0>
4.9915638

>  <chi0v>
4.308641

>  <chi0v_C>
3.4142137

>  <chi0_C>
3.4142137

>  <chi1>
2.7700555

>  <chi1v>
2.0268826

>  <chi1v_C>
0.5

>  <chi1_C>
0.5

>  <chiral>
0

>  <chiral_u>
0

>  <density>
0.64575016

>  <diameter>
4

>  <FCharge>
0

>  <GCUT_PEOE_0>
-0.85885513

>  <GCUT_PEOE_1>
-0.25764444

>  <GCUT_PEOE_2>
-0.10706031

>  <GCUT_PEOE_3>
2.0188911

>  <GCUT_SLOGP_0>
-0.9600386

>  <GCUT_SLOGP_1>
-0.23022157

>  <GCUT_SLOGP_2>
-0.037

>  <GCUT_SLOGP_3>
1.952682

>  <GCUT_SMR_0>
-0.51918268

>  <GCUT_SMR_1>
-0.076502353

>  <GCUT_SMR_2>
-0.054299999

>  <GCUT_SMR_3>
2.2399199

>  <Kier1>
6

>  <Kier2>
3.2

>  <Kier3>
5.3333335

>  <KierA1>
6

>  <KierA2>
3.2

>  <KierA3>
5.3333335

>  <KierFlex>
3.2

>  <lip_acc>
2

>  <lip_don>
1

>  <lip_druglike>
1

>  <lip_violation>
0

>  <logP(o/w)>
-0.52700001

>  <logS>
0.71411002

>  <mr>
2.5604756

>  <mutagenic>
0

>  <nmol>
1

>  <opr_brigid>
0

>  <opr_leadlike>
1

>  <opr_nring>
0

>  <opr_nrot>
2

>  <opr_violation>
0

>  <PC+>
0

>  <PC->
0

>  <PEOE_PC+>
0.72587109

>  <PEOE_PC->
-0.72587109

>  <PEOE_RPC+>
0.28855076

>  <PEOE_RPC->
0.54244816

>  <PEOE_VSA+0>
47.315414

>  <PEOE_VSA+1>
23.482065

>  <PEOE_VSA+2>
0

>  <PEOE_VSA+3>
0

>  <PEOE_VSA+4>
10.324173

>  <PEOE_VSA+5>
0

>  <PEOE_VSA+6>
0

>  <PEOE_VSA-0>
46.477379

>  <PEOE_VSA-1>
0

>  <PEOE_VSA-2>
0

>  <PEOE_VSA-3>
0

>  <PEOE_VSA-4>
0

>  <PEOE_VSA-5>
0

>  <PEOE_VSA-6>
7.7675405

>  <PEOE_VSA_FHYD>
0.86635023

>  <PEOE_VSA_FNEG>
0.40072611

>  <PEOE_VSA_FPNEG>
0.057381526

>  <PEOE_VSA_FPOL>
0.13364978

>  <PEOE_VSA_FPOS>
0.59927392

>  <PEOE_VSA_FPPOS>
0.076268263

>  <PEOE_VSA_HYD>
117.27486

>  <PEOE_VSA_NEG>
54.244919

>  <PEOE_VSA_PNEG>
7.7675405

>  <PEOE_VSA_POL>
18.091713

>  <PEOE_VSA_POS>
81.121651

>  <PEOE_VSA_PPOS>
10.324173

>  <petitjean>
0.5

>  <petitjeanSC>
1

>  <Q_PC+>
0

>  <Q_PC->
0

>  <Q_RPC+>
0

>  <Q_RPC->
0

>  <Q_VSA_FHYD>
1

>  <Q_VSA_FNEG>
0

>  <Q_VSA_FPNEG>
0

>  <Q_VSA_FPOL>
0

>  <Q_VSA_FPOS>
1

>  <Q_VSA_FPPOS>
0

>  <Q_VSA_HYD>
135.36656

>  <Q_VSA_NEG>
0

>  <Q_VSA_PNEG>
0

>  <Q_VSA_POL>
0

>  <Q_VSA_POS>
135.36656

>  <Q_VSA_PPOS>
0

>  <radius>
2

>  <reactive>
0

>  <rings>
0

>  <RPC+>
0

>  <RPC->
0

>  <rsynth>
1

>  <SlogP>
-0.45969999

>  <SlogP_VSA0>
25.385227

>  <SlogP_VSA1>
3.1243138

>  <SlogP_VSA2>
0

>  <SlogP_VSA3>
39.365837

>  <SlogP_VSA4>
0

>  <SlogP_VSA5>
65.794373

>  <SlogP_VSA6>
0

>  <SlogP_VSA7>
0

>  <SlogP_VSA8>
0

>  <SlogP_VSA9>
0

>  <SMR>
2.5639801

>  <SMR_VSA0>
0

>  <SMR_VSA1>
28.509541

>  <SMR_VSA2>
0

>  <SMR_VSA3>
0

>  <SMR_VSA4>
0

>  <SMR_VSA5>
0

>  <SMR_VSA6>
39.365837

>  <SMR_VSA7>
65.794373

>  <TPSA>
23.469999

>  <VAdjEq>
0.85240519

>  <VAdjMa>
3.321928

>  <VDistEq>
1.9086127

>  <VDistMa>
4.7417293

>  <vdw_area>
135.36656

>  <vdw_vol>
138.0379

>  <vsa_acc>
0

>  <vsa_acid>
0

>  <vsa_base>
0

>  <vsa_don>
0

>  <vsa_hyd>
110.15691

>  <vsa_other>
0

>  <vsa_pol>
13.566921

>  <Weight>
89.138

>  <weinerPath>
32

>  <weinerPol>
3

>  <zagreb>
20

$$$$