O=C1CCC(C)(C)C(C=CC(=CC=CC(=CC=CC=C(C=CC=C(C=CC2=C(C)C(=O)CCC2(C)C)/C)/C)C)C)=C1C
  MOE2013           2D

 42 43  0  0  0  0  0  0  0  0999 V2000
    0.0000    0.0000    0.0000 O   0  0  0  0  0  0  0  0  0  0  0  0
   -0.7480   -1.3000    0.0000 C   0  0  0  0  0  0  0  0  0  0  0  0
    0.0030   -2.5980    0.0000 C   0  0  0  0  0  0  0  0  0  0  0  0
   -0.7450   -3.8980    0.0000 C   0  0  0  0  0  0  0  0  0  0  0  0
   -2.2450   -3.9000    0.0000 C   0  0  0  0  0  0  0  0  0  0  0  0
   -2.2440   -5.4000    0.0000 C   0  0  0  0  0  0  0  0  0  0  0  0
   -3.5440   -4.6510    0.0000 C   0  0  0  0  0  0  0  0  0  0  0  0
   -2.9970   -2.6020    0.0000 C   0  0  0  0  0  0  0  0  0  0  0  0
   -4.4970   -2.6030    0.0000 C   0  0  0  0  0  0  0  0  0  0  0  0
   -5.2480   -1.3050    0.0000 C   0  0  0  0  0  0  0  0  0  0  0  0
   -6.7480   -1.3070    0.0000 C   0  0  0  0  0  0  0  0  0  0  0  0
   -7.5000   -0.0090    0.0000 C   0  0  0  0  0  0  0  0  0  0  0  0
   -9.0000   -0.0110    0.0000 C   0  0  0  0  0  0  0  0  0  0  0  0
   -9.7520    1.2880    0.0000 C   0  0  0  0  0  0  0  0  0  0  0  0
  -11.2520    1.2860    0.0000 C   0  0  0  0  0  0  0  0  0  0  0  0
  -12.0000   -0.0140    0.0000 C   0  0  0  0  0  0  0  0  0  0  0  0
  -13.5000   -0.0160    0.0000 C   0  0  0  0  0  0  0  0  0  0  0  0
  -14.2480   -1.3160    0.0000 C   0  0  0  0  0  0  0  0  0  0  0  0
  -15.7480   -1.3180    0.0000 C   0  0  0  0  0  0  0  0  0  0  0  0
  -16.4970   -2.6170    0.0000 C   0  0  0  0  0  0  0  0  0  0  0  0
  -17.9970   -2.6190    0.0000 C   0  0  0  0  0  0  0  0  0  0  0  0
  -18.7450   -3.9190    0.0000 C   0  0  0  0  0  0  0  0  0  0  0  0
  -20.2450   -3.9210    0.0000 C   0  0  0  0  0  0  0  0  0  0  0  0
  -20.9940   -5.2210    0.0000 C   0  0  0  0  0  0  0  0  0  0  0  0
  -22.4940   -5.2230    0.0000 C   0  0  0  0  0  0  0  0  0  0  0  0
  -23.2450   -3.9240    0.0000 C   0  0  0  0  0  0  0  0  0  0  0  0
  -24.7450   -3.9260    0.0000 C   0  0  0  0  0  0  0  0  0  0  0  0
  -25.4940   -5.2260    0.0000 C   0  0  0  0  0  0  0  0  0  0  0  0
  -24.7420   -6.5240    0.0000 C   0  0  0  0  0  0  0  0  0  0  0  0
  -26.9940   -5.2280    0.0000 C   0  0  0  0  0  0  0  0  0  0  0  0
  -27.7420   -6.5280    0.0000 O   0  0  0  0  0  0  0  0  0  0  0  0
  -27.7450   -3.9300    0.0000 C   0  0  0  0  0  0  0  0  0  0  0  0
  -26.9970   -2.6300    0.0000 C   0  0  0  0  0  0  0  0  0  0  0  0
  -25.4970   -2.6280    0.0000 C   0  0  0  0  0  0  0  0  0  0  0  0
  -24.1990   -1.8760    0.0000 C   0  0  0  0  0  0  0  0  0  0  0  0
  -25.4990   -1.1280    0.0000 C   0  0  0  0  0  0  0  0  0  0  0  0
  -20.2420   -6.5190    0.0000 C   0  0  0  0  0  0  0  0  0  0  0  0
  -15.7450   -3.9160    0.0000 C   0  0  0  0  0  0  0  0  0  0  0  0
  -12.0030    2.5840    0.0000 C   0  0  0  0  0  0  0  0  0  0  0  0
   -7.4970   -2.6070    0.0000 C   0  0  0  0  0  0  0  0  0  0  0  0
   -2.2480   -1.3020    0.0000 C   0  0  0  0  0  0  0  0  0  0  0  0
   -3.0000   -0.0040    0.0000 C   0  0  0  0  0  0  0  0  0  0  0  0
  1  2  2  0  0  0  0
  2  3  1  0  0  0  0
  2 41  1  0  0  0  0
  3  4  1  0  0  0  0
  4  5  1  0  0  0  0
  5  6  1  0  0  0  0
  5  7  1  0  0  0  0
  5  8  1  0  0  0  0
  8  9  1  0  0  0  0
  8 41  2  0  0  0  0
  9 10  2  3  0  0  0
 10 11  1  0  0  0  0
 11 12  2  3  0  0  0
 11 40  1  0  0  0  0
 12 13  1  0  0  0  0
 13 14  2  3  0  0  0
 14 15  1  0  0  0  0
 15 16  2  3  0  0  0
 15 39  1  0  0  0  0
 16 17  1  0  0  0  0
 17 18  2  3  0  0  0
 18 19  1  0  0  0  0
 19 20  2  3  0  0  0
 20 21  1  0  0  0  0
 20 38  1  0  0  0  0
 21 22  2  3  0  0  0
 22 23  1  0  0  0  0
 23 24  2  3  0  0  0
 24 25  1  0  0  0  0
 24 37  1  0  0  0  0
 25 26  2  3  0  0  0
 26 27  1  0  0  0  0
 27 28  2  0  0  0  0
 27 34  1  0  0  0  0
 28 29  1  0  0  0  0
 28 30  1  0  0  0  0
 30 31  2  0  0  0  0
 30 32  1  0  0  0  0
 32 33  1  0  0  0  0
 33 34  1  0  0  0  0
 34 35  1  0  0  0  0
 34 36  1  0  0  0  0
 41 42  1  0  0  0  0
M  END
>  <Index>
1399

>  <ID>
HT3935

>  <class>
0

>  <apol>
106.67724

>  <ast_fraglike>
0

>  <ast_fraglike_ext>
0

>  <ast_violation>
2

>  <ast_violation_ext>
3

>  <a_acc>
2

>  <a_acid>
0

>  <a_aro>
0

>  <a_base>
0

>  <a_count>
94

>  <a_don>
0

>  <a_donacc>
2

>  <a_heavy>
42

>  <a_hyd>
38

>  <a_IC>
104.83136

>  <a_ICM>
1.1152272

>  <a_nB>
0

>  <a_nBr>
0

>  <a_nC>
40

>  <a_nCl>
0

>  <a_nF>
0

>  <a_nH>
52

>  <a_nI>
0

>  <a_nN>
0

>  <a_nO>
2

>  <a_nP>
0

>  <a_nS>
0

>  <balabanJ>
1.4896994

>  <BCUT_PEOE_0>
-2.7067645

>  <BCUT_PEOE_1>
-0.47268447

>  <BCUT_PEOE_2>
0.44569635

>  <BCUT_PEOE_3>
2.6832364

>  <BCUT_SLOGP_0>
-2.6051238

>  <BCUT_SLOGP_1>
-0.37123296

>  <BCUT_SLOGP_2>
0.50363159

>  <BCUT_SLOGP_3>
2.7896268

>  <BCUT_SMR_0>
-2.4487884

>  <BCUT_SMR_1>
-0.27831328

>  <BCUT_SMR_2>
0.62964988

>  <BCUT_SMR_3>
2.9482296

>  <bpol>
58.762764

>  <b_1rotN>
10

>  <b_1rotR>
0.23255815

>  <b_ar>
0

>  <b_count>
95

>  <b_double>
13

>  <b_heavy>
43

>  <b_max1len>
4

>  <b_rotN>
10

>  <b_rotR>
0.23255815

>  <b_single>
82

>  <b_triple>
0

>  <chi0>
31.501425

>  <chi0v>
27.727827

>  <chi0v_C>
26.911331

>  <chi0_C>
29.501425

>  <chi1>
19.635572

>  <chi1v>
15.209213

>  <chi1v_C>
14.800965

>  <chi1_C>
18.480871

>  <chiral>
0

>  <chiral_u>
0

>  <density>
0.62712085

>  <diameter>
25

>  <FCharge>
0

>  <GCUT_PEOE_0>
-0.78676629

>  <GCUT_PEOE_1>
-0.33720919

>  <GCUT_PEOE_2>
-0.030756705

>  <GCUT_PEOE_3>
2.7946441

>  <GCUT_SLOGP_0>
-0.80956304

>  <GCUT_SLOGP_1>
-0.22411661

>  <GCUT_SLOGP_2>
0.021580482

>  <GCUT_SLOGP_3>
2.9226379

>  <GCUT_SMR_0>
-0.52740586

>  <GCUT_SMR_1>
-0.18231694

>  <GCUT_SMR_2>
0.15595402

>  <GCUT_SMR_3>
3.0625818

>  <Kier1>
38.183884

>  <Kier2>
18.222221

>  <Kier3>
13.10649

>  <KierA1>
29.374016

>  <KierA2>
13.922873

>  <KierA3>
9.9668131

>  <KierFlex>
9.7373972

>  <lip_acc>
2

>  <lip_don>
0

>  <lip_druglike>
0

>  <lip_violation>
2

>  <logP(o/w)>
8.8280001

>  <logS>
-15.75072

>  <mr>
17.858406

>  <mutagenic>
0

>  <nmol>
1

>  <opr_brigid>
21

>  <opr_leadlike>
0

>  <opr_nring>
2

>  <opr_nrot>
12

>  <opr_violation>
3

>  <PC+>
0

>  <PC->
0

>  <PEOE_PC+>
2.242933

>  <PEOE_PC->
-2.242933

>  <PEOE_RPC+>
0.071008578

>  <PEOE_RPC->
0.13036256

>  <PEOE_VSA+0>
179.48729

>  <PEOE_VSA+1>
59.715405

>  <PEOE_VSA+2>
0

>  <PEOE_VSA+3>
16.917038

>  <PEOE_VSA+4>
0

>  <PEOE_VSA+5>
0

>  <PEOE_VSA+6>
0

>  <PEOE_VSA-0>
138.72285

>  <PEOE_VSA-1>
255.39352

>  <PEOE_VSA-2>
0

>  <PEOE_VSA-3>
0

>  <PEOE_VSA-4>
0

>  <PEOE_VSA-5>
27.133842

>  <PEOE_VSA-6>
0

>  <PEOE_VSA_FHYD>
0.95994234

>  <PEOE_VSA_FNEG>
0.6218909

>  <PEOE_VSA_FPNEG>
0.040057641

>  <PEOE_VSA_FPOL>
0.040057641

>  <PEOE_VSA_FPOS>
0.3781091

>  <PEOE_VSA_FPPOS>
0

>  <PEOE_VSA_HYD>
650.23608

>  <PEOE_VSA_NEG>
421.25021

>  <PEOE_VSA_PNEG>
27.133842

>  <PEOE_VSA_POL>
27.133842

>  <PEOE_VSA_POS>
256.11975

>  <PEOE_VSA_PPOS>
0

>  <petitjean>
0.47999999

>  <petitjeanSC>
0.92307693

>  <Q_PC+>
0

>  <Q_PC->
0

>  <Q_RPC+>
0

>  <Q_RPC->
0

>  <Q_VSA_FHYD>
1

>  <Q_VSA_FNEG>
0

>  <Q_VSA_FPNEG>
0

>  <Q_VSA_FPOL>
0

>  <Q_VSA_FPOS>
1

>  <Q_VSA_FPPOS>
0

>  <Q_VSA_HYD>
677.36993

>  <Q_VSA_NEG>
0

>  <Q_VSA_PNEG>
0

>  <Q_VSA_POL>
0

>  <Q_VSA_POS>
677.36993

>  <Q_VSA_PPOS>
0

>  <radius>
13

>  <reactive>
1

>  <rings>
2

>  <RPC+>
0

>  <RPC->
0

>  <rsynth>
0

>  <SlogP>
10.9638

>  <SlogP_VSA0>
0

>  <SlogP_VSA1>
11.375222

>  <SlogP_VSA2>
47.724434

>  <SlogP_VSA3>
0

>  <SlogP_VSA4>
0

>  <SlogP_VSA5>
25.4846

>  <SlogP_VSA6>
0

>  <SlogP_VSA7>
247.00458

>  <SlogP_VSA8>
75.473625

>  <SlogP_VSA9>
333.26016

>  <SMR>
18.217199

>  <SMR_VSA0>
47.724434

>  <SMR_VSA1>
0

>  <SMR_VSA2>
0

>  <SMR_VSA3>
25.4846

>  <SMR_VSA4>
0

>  <SMR_VSA5>
322.47821

>  <SMR_VSA6>
11.375222

>  <SMR_VSA7>
333.26016

>  <TPSA>
34.139999

>  <VAdjEq>
0.28107527

>  <VAdjMa>
6.4262648

>  <VDistEq>
4.5257177

>  <VDistMa>
10.423508

>  <vdw_area>
677.36993

>  <vdw_vol>
900.7099

>  <vsa_acc>
27.133842

>  <vsa_acid>
0

>  <vsa_base>
0

>  <vsa_don>
0

>  <vsa_hyd>
596.30573

>  <vsa_other>
16.917038

>  <vsa_pol>
27.133842

>  <Weight>
564.854

>  <weinerPath>
9049

>  <weinerPol>
63

>  <zagreb>
206

$$$$