O(CC(C)C)CC(N1CCCC1)CN(Cc1ccccc1)c1ccccc1
  MOE2013           2D

 27 29  0  0  1  0  0  0  0  0999 V2000
    0.0000    0.0000    0.0000 O   0  0  0  0  0  0  0  0  0  0  0  0
    0.7450   -1.3020    0.0000 C   0  0  0  0  0  0  0  0  0  0  0  0
    2.2450   -1.3080    0.0000 C   0  0  0  0  0  0  0  0  0  0  0  0
    3.0000   -0.0120    0.0000 C   0  0  0  0  0  0  0  0  0  0  0  0
    2.9890   -2.6100    0.0000 C   0  0  0  0  0  0  0  0  0  0  0  0
   -1.5000    0.0060    0.0000 C   0  0  0  0  0  0  0  0  0  0  0  0
   -2.2450    1.3080    0.0000 C   0  0  3  0  0  0  0  0  0  0  0  0
   -1.4890    2.6040    0.0000 N   0  0  0  0  0  0  0  0  0  0  0  0
   -2.0940    3.9770    0.0000 C   0  0  0  0  0  0  0  0  0  0  0  0
   -0.9750    4.9760    0.0000 C   0  0  0  0  0  0  0  0  0  0  0  0
    0.3210    4.2210    0.0000 C   0  0  0  0  0  0  0  0  0  0  0  0
    0.0030    2.7550    0.0000 C   0  0  0  0  0  0  0  0  0  0  0  0
   -3.7450    1.3140    0.0000 C   0  0  0  0  0  0  0  0  0  0  0  0
   -4.5000    0.0180    0.0000 N   0  0  3  0  0  0  0  0  0  0  0  0
   -3.7550   -1.2840    0.0000 C   0  0  0  0  0  0  0  0  0  0  0  0
   -4.5110   -2.5800    0.0000 C   0  0  0  0  0  0  0  0  0  0  0  0
   -3.7660   -3.8820    0.0000 C   0  0  0  0  0  0  0  0  0  0  0  0
   -4.5210   -5.1780    0.0000 C   0  0  0  0  0  0  0  0  0  0  0  0
   -6.0210   -5.1720    0.0000 C   0  0  0  0  0  0  0  0  0  0  0  0
   -6.7660   -3.8700    0.0000 C   0  0  0  0  0  0  0  0  0  0  0  0
   -6.0110   -2.5740    0.0000 C   0  0  0  0  0  0  0  0  0  0  0  0
   -6.0000    0.0240    0.0000 C   0  0  0  0  0  0  0  0  0  0  0  0
   -6.7550   -1.2710    0.0000 C   0  0  0  0  0  0  0  0  0  0  0  0
   -8.2550   -1.2650    0.0000 C   0  0  0  0  0  0  0  0  0  0  0  0
   -9.0000    0.0370    0.0000 C   0  0  0  0  0  0  0  0  0  0  0  0
   -8.2450    1.3330    0.0000 C   0  0  0  0  0  0  0  0  0  0  0  0
   -6.7450    1.3270    0.0000 C   0  0  0  0  0  0  0  0  0  0  0  0
  1  2  1  0  0  0  0
  1  6  1  0  0  0  0
  2  3  1  0  0  0  0
  3  4  1  0  0  0  0
  3  5  1  0  0  0  0
  6  7  1  0  0  0  0
  7  8  1  0  0  0  0
  7 13  1  0  0  0  0
  8  9  1  0  0  0  0
  8 12  1  0  0  0  0
  9 10  1  0  0  0  0
 10 11  1  0  0  0  0
 11 12  1  0  0  0  0
 13 14  1  0  0  0  0
 14 15  1  0  0  0  0
 14 22  1  0  0  0  0
 15 16  1  0  0  0  0
 16 17  1  0  0  0  0
 16 21  2  0  0  0  0
 17 18  2  0  0  0  0
 18 19  1  0  0  0  0
 19 20  2  0  0  0  0
 20 21  1  0  0  0  0
 22 23  1  0  0  0  0
 22 27  2  0  0  0  0
 23 24  2  0  0  0  0
 24 25  1  0  0  0  0
 25 26  2  0  0  0  0
 26 27  1  0  0  0  0
M  END
>  <Index>
130

>  <ID>
HT0263

>  <class>
0

>  <apol>
67.912964

>  <ast_fraglike>
0

>  <ast_fraglike_ext>
0

>  <ast_violation>
2

>  <ast_violation_ext>
3

>  <a_acc>
2

>  <a_acid>
0

>  <a_aro>
12

>  <a_base>
0

>  <a_count>
61

>  <a_don>
0

>  <a_donacc>
2

>  <a_heavy>
27

>  <a_hyd>
24

>  <a_IC>
76.762138

>  <a_ICM>
1.2583958

>  <a_nB>
0

>  <a_nBr>
0

>  <a_nC>
24

>  <a_nCl>
0

>  <a_nF>
0

>  <a_nH>
34

>  <a_nI>
0

>  <a_nN>
2

>  <a_nO>
1

>  <a_nP>
0

>  <a_nS>
0

>  <balabanJ>
1.6110545

>  <BCUT_PEOE_0>
-2.7106597

>  <BCUT_PEOE_1>
-0.57639378

>  <BCUT_PEOE_2>
0.61276281

>  <BCUT_PEOE_3>
2.7333372

>  <BCUT_SLOGP_0>
-2.8202524

>  <BCUT_SLOGP_1>
-0.48545763

>  <BCUT_SLOGP_2>
0.72357816

>  <BCUT_SLOGP_3>
2.7143915

>  <BCUT_SMR_0>
-2.4396253

>  <BCUT_SMR_1>
-0.41548541

>  <BCUT_SMR_2>
0.78013241

>  <BCUT_SMR_3>
3.0007217

>  <bpol>
43.045036

>  <b_1rotN>
10

>  <b_1rotR>
0.34482759

>  <b_ar>
12

>  <b_count>
63

>  <b_double>
0

>  <b_heavy>
29

>  <b_max1len>
10

>  <b_rotN>
10

>  <b_rotR>
0.34482759

>  <b_single>
51

>  <b_triple>
0

>  <chi0>
18.89913

>  <chi0v>
16.887733

>  <chi0v_C>
15.585057

>  <chi0_C>
17.037323

>  <chi1>
13.220346

>  <chi1v>
10.378433

>  <chi1v_C>
8.0543661

>  <chi1_C>
9.9206867

>  <chiral>
1

>  <chiral_u>
1

>  <density>
0.64355952

>  <diameter>
12

>  <FCharge>
0

>  <GCUT_PEOE_0>
-0.85548919

>  <GCUT_PEOE_1>
-0.38594514

>  <GCUT_PEOE_2>
0.060352147

>  <GCUT_PEOE_3>
2.8969772

>  <GCUT_SLOGP_0>
-0.97640294

>  <GCUT_SLOGP_1>
-0.26386139

>  <GCUT_SLOGP_2>
0.14618629

>  <GCUT_SLOGP_3>
2.9401278

>  <GCUT_SMR_0>
-0.53125829

>  <GCUT_SMR_1>
-0.1861244

>  <GCUT_SMR_2>
0.16914825

>  <GCUT_SMR_3>
3.1514516

>  <Kier1>
21.702734

>  <Kier2>
11.869978

>  <Kier3>
7.3955555

>  <KierA1>
17.699003

>  <KierA2>
9.5997314

>  <KierA3>
5.9440875

>  <KierFlex>
6.2928028

>  <lip_acc>
3

>  <lip_don>
0

>  <lip_druglike>
1

>  <lip_violation>
1

>  <logP(o/w)>
5.3699999

>  <logS>
-4.4038501

>  <mr>
11.394744

>  <mutagenic>
0

>  <nmol>
1

>  <opr_brigid>
17

>  <opr_leadlike>
0

>  <opr_nring>
3

>  <opr_nrot>
11

>  <opr_violation>
2

>  <PC+>
0

>  <PC->
0

>  <PEOE_PC+>
1.7678252

>  <PEOE_PC->
-1.7678252

>  <PEOE_RPC+>
0.03643566

>  <PEOE_RPC->
0.21377803

>  <PEOE_VSA+0>
121.53788

>  <PEOE_VSA+1>
89.617989

>  <PEOE_VSA+2>
0

>  <PEOE_VSA+3>
0

>  <PEOE_VSA+4>
0

>  <PEOE_VSA+5>
0

>  <PEOE_VSA+6>
0

>  <PEOE_VSA-0>
70.505623

>  <PEOE_VSA-1>
135.53459

>  <PEOE_VSA-2>
0

>  <PEOE_VSA-3>
0

>  <PEOE_VSA-4>
0

>  <PEOE_VSA-5>
0

>  <PEOE_VSA-6>
2.503756

>  <PEOE_VSA_FHYD>
0.99403441

>  <PEOE_VSA_FNEG>
0.49688837

>  <PEOE_VSA_FPNEG>
0.0059655877

>  <PEOE_VSA_FPOL>
0.0059655877

>  <PEOE_VSA_FPOS>
0.50311166

>  <PEOE_VSA_FPPOS>
0

>  <PEOE_VSA_HYD>
417.19608

>  <PEOE_VSA_NEG>
208.54396

>  <PEOE_VSA_PNEG>
2.503756

>  <PEOE_VSA_POL>
2.503756

>  <PEOE_VSA_POS>
211.15587

>  <PEOE_VSA_PPOS>
0

>  <petitjean>
0.5

>  <petitjeanSC>
1

>  <Q_PC+>
0

>  <Q_PC->
0

>  <Q_RPC+>
0

>  <Q_RPC->
0

>  <Q_VSA_FHYD>
1

>  <Q_VSA_FNEG>
0

>  <Q_VSA_FPNEG>
0

>  <Q_VSA_FPOL>
0

>  <Q_VSA_FPOS>
1

>  <Q_VSA_FPPOS>
0

>  <Q_VSA_HYD>
419.69983

>  <Q_VSA_NEG>
0

>  <Q_VSA_PNEG>
0

>  <Q_VSA_POL>
0

>  <Q_VSA_POS>
419.69983

>  <Q_VSA_PPOS>
0

>  <radius>
6

>  <reactive>
0

>  <rings>
3

>  <RPC+>
0

>  <RPC->
0

>  <rsynth>
1

>  <SlogP>
5.0966001

>  <SlogP_VSA0>
3.1243138

>  <SlogP_VSA1>
3.1243138

>  <SlogP_VSA2>
14.981856

>  <SlogP_VSA3>
97.171249

>  <SlogP_VSA4>
7.5963712

>  <SlogP_VSA5>
0

>  <SlogP_VSA6>
0

>  <SlogP_VSA7>
176.43184

>  <SlogP_VSA8>
37.736813

>  <SlogP_VSA9>
87.848358

>  <SMR>
11.4391

>  <SMR_VSA0>
10.999887

>  <SMR_VSA1>
3.1243138

>  <SMR_VSA2>
7.53511

>  <SMR_VSA3>
7.1675434

>  <SMR_VSA4>
2.7567475

>  <SMR_VSA5>
232.60823

>  <SMR_VSA6>
97.171249

>  <SMR_VSA7>
66.652031

>  <TPSA>
15.71

>  <VAdjEq>
0.40063059

>  <VAdjMa>
5.8579812

>  <VDistEq>
3.3681695

>  <VDistMa>
9.2583628

>  <vdw_area>
419.69983

>  <vdw_vol>
569.56506

>  <vsa_acc>
2.503756

>  <vsa_acid>
0

>  <vsa_base>
0

>  <vsa_don>
0

>  <vsa_hyd>
391.64999

>  <vsa_other>
0

>  <vsa_pol>
2.503756

>  <Weight>
366.54898

>  <weinerPath>
1895

>  <weinerPol>
34

>  <zagreb>
132

$$$$