Brc1cc(cc(Br)c1O)C(=O)c1c2c(oc1CC)cccc2
  MOE2013           2D

 22 24  0  0  0  0  0  0  0  0999 V2000
    0.0000    0.0000    0.0000 Br  0  0  0  0  0  0  0  0  0  0  0  0
    1.2990    0.7500    0.0000 C   0  0  0  0  0  0  0  0  0  0  0  0
    2.5980   -0.0010    0.0000 C   0  0  0  0  0  0  0  0  0  0  0  0
    3.8970    0.7490    0.0000 C   0  0  0  0  0  0  0  0  0  0  0  0
    3.8980    2.2490    0.0000 C   0  0  0  0  0  0  0  0  0  0  0  0
    2.5990    2.9990    0.0000 C   0  0  0  0  0  0  0  0  0  0  0  0
    2.5990    4.4990    0.0000 Br  0  0  0  0  0  0  0  0  0  0  0  0
    1.2990    2.2500    0.0000 C   0  0  0  0  0  0  0  0  0  0  0  0
    0.0010    3.0000    0.0000 O   0  0  0  0  0  0  0  0  0  0  0  0
    5.1960   -0.0010    0.0000 C   0  0  0  0  0  0  0  0  0  0  0  0
    5.1960   -1.5010    0.0000 O   0  0  0  0  0  0  0  0  0  0  0  0
    6.4950    0.7490    0.0000 C   0  0  0  0  0  0  0  0  0  0  0  0
    7.8660    0.1380    0.0000 C   0  0  0  0  0  0  0  0  0  0  0  0
    8.8690    1.2530    0.0000 C   0  0  0  0  0  0  0  0  0  0  0  0
    8.1200    2.5520    0.0000 O   0  0  0  0  0  0  0  0  0  0  0  0
    6.6520    2.2400    0.0000 C   0  0  0  0  0  0  0  0  0  0  0  0
    5.5380    3.2440    0.0000 C   0  0  0  0  0  0  0  0  0  0  0  0
    5.8500    4.7120    0.0000 C   0  0  0  0  0  0  0  0  0  0  0  0
   10.3370    0.9410    0.0000 C   0  0  0  0  0  0  0  0  0  0  0  0
   10.8000   -0.4860    0.0000 C   0  0  0  0  0  0  0  0  0  0  0  0
    9.7960   -1.6010    0.0000 C   0  0  0  0  0  0  0  0  0  0  0  0
    8.3290   -1.2880    0.0000 C   0  0  0  0  0  0  0  0  0  0  0  0
  1  2  1  0  0  0  0
  2  3  1  0  0  0  0
  2  8  2  0  0  0  0
  3  4  2  0  0  0  0
  4  5  1  0  0  0  0
  4 10  1  0  0  0  0
  5  6  2  0  0  0  0
  6  7  1  0  0  0  0
  6  8  1  0  0  0  0
  8  9  1  0  0  0  0
 10 11  2  0  0  0  0
 10 12  1  0  0  0  0
 12 13  1  0  0  0  0
 12 16  2  0  0  0  0
 13 14  1  0  0  0  0
 13 22  2  0  0  0  0
 14 15  1  0  0  0  0
 14 19  2  0  0  0  0
 15 16  1  0  0  0  0
 16 17  1  0  0  0  0
 17 18  1  0  0  0  0
 19 20  1  0  0  0  0
 20 21  2  0  0  0  0
 21 22  1  0  0  0  0
M  END
>  <Index>
121

>  <ID>
HT0245

>  <class>
0

>  <apol>
46.427517

>  <ast_fraglike>
0

>  <ast_fraglike_ext>
0

>  <ast_violation>
2

>  <ast_violation_ext>
2

>  <a_acc>
2

>  <a_acid>
0

>  <a_aro>
15

>  <a_base>
0

>  <a_count>
34

>  <a_don>
1

>  <a_donacc>
3

>  <a_heavy>
22

>  <a_hyd>
16

>  <a_IC>
53.712429

>  <a_ICM>
1.5797774

>  <a_nB>
0

>  <a_nBr>
2

>  <a_nC>
17

>  <a_nCl>
0

>  <a_nF>
0

>  <a_nH>
12

>  <a_nI>
0

>  <a_nN>
0

>  <a_nO>
3

>  <a_nP>
0

>  <a_nS>
0

>  <balabanJ>
1.7396255

>  <BCUT_PEOE_0>
-2.3705299

>  <BCUT_PEOE_1>
-0.6659292

>  <BCUT_PEOE_2>
0.68163663

>  <BCUT_PEOE_3>
2.4106538

>  <BCUT_SLOGP_0>
-2.3044057

>  <BCUT_SLOGP_1>
-0.43063873

>  <BCUT_SLOGP_2>
0.87834501

>  <BCUT_SLOGP_3>
2.4936101

>  <BCUT_SMR_0>
-2.144351

>  <BCUT_SMR_1>
-0.39959002

>  <BCUT_SMR_2>
0.9425422

>  <BCUT_SMR_3>
2.673697

>  <bpol>
18.572483

>  <b_1rotN>
3

>  <b_1rotR>
0.125

>  <b_ar>
16

>  <b_count>
36

>  <b_double>
1

>  <b_heavy>
24

>  <b_max1len>
3

>  <b_rotN>
3

>  <b_rotR>
0.125

>  <b_single>
19

>  <b_triple>
0

>  <chi0>
15.853006

>  <chi0v>
14.862841

>  <chi0v_C>
9.6712084

>  <chi0_C>
11.1459

>  <chi1>
10.524076

>  <chi1v>
8.3426514

>  <chi1v_C>
5.5427108

>  <chi1_C>
7.3981781

>  <chiral>
0

>  <chiral_u>
0

>  <density>
0.99896008

>  <diameter>
10

>  <FCharge>
0

>  <GCUT_PEOE_0>
-0.83425754

>  <GCUT_PEOE_1>
-0.4208003

>  <GCUT_PEOE_2>
0.063000306

>  <GCUT_PEOE_3>
2.4806693

>  <GCUT_SLOGP_0>
-0.77653939

>  <GCUT_SLOGP_1>
-0.26020628

>  <GCUT_SLOGP_2>
0.22103445

>  <GCUT_SLOGP_3>
2.6281292

>  <GCUT_SMR_0>
-0.51314729

>  <GCUT_SMR_1>
-0.19564931

>  <GCUT_SMR_2>
0.27486867

>  <GCUT_SMR_3>
2.7891128

>  <Kier1>
16.84375

>  <Kier2>
6.8571429

>  <Kier3>
3.1653478

>  <KierA1>
15.548563

>  <KierA2>
6.3046322

>  <KierA3>
2.9018905

>  <KierFlex>
4.4558167

>  <lip_acc>
3

>  <lip_don>
1

>  <lip_druglike>
1

>  <lip_violation>
1

>  <logP(o/w)>
5.697

>  <logS>
-7.23701

>  <mr>
9.2397032

>  <mutagenic>
0

>  <nmol>
1

>  <opr_brigid>
16

>  <opr_leadlike>
1

>  <opr_nring>
3

>  <opr_nrot>
3

>  <opr_violation>
1

>  <PC+>
0

>  <PC->
0

>  <PEOE_PC+>
1.5136179

>  <PEOE_PC->
-1.5136179

>  <PEOE_RPC+>
0.14363143

>  <PEOE_RPC->
0.30322376

>  <PEOE_VSA+0>
38.949738

>  <PEOE_VSA+1>
27.800856

>  <PEOE_VSA+2>
25.375559

>  <PEOE_VSA+3>
8.458519

>  <PEOE_VSA+4>
10.324173

>  <PEOE_VSA+5>
0

>  <PEOE_VSA+6>
0

>  <PEOE_VSA-0>
124.01441

>  <PEOE_VSA-1>
55.51239

>  <PEOE_VSA-2>
0

>  <PEOE_VSA-3>
0

>  <PEOE_VSA-4>
0

>  <PEOE_VSA-5>
13.566921

>  <PEOE_VSA-6>
10.271297

>  <PEOE_VSA_FHYD>
0.8912974

>  <PEOE_VSA_FNEG>
0.64709491

>  <PEOE_VSA_FPNEG>
0.075851731

>  <PEOE_VSA_FPOL>
0.10870261

>  <PEOE_VSA_FPOS>
0.35290509

>  <PEOE_VSA_FPPOS>
0.03285088

>  <PEOE_VSA_HYD>
280.11148

>  <PEOE_VSA_NEG>
203.36502

>  <PEOE_VSA_PNEG>
23.838217

>  <PEOE_VSA_POL>
34.162392

>  <PEOE_VSA_POS>
110.90884

>  <PEOE_VSA_PPOS>
10.324173

>  <petitjean>
0.5

>  <petitjeanSC>
1

>  <Q_PC+>
0

>  <Q_PC->
0

>  <Q_RPC+>
0

>  <Q_RPC->
0

>  <Q_VSA_FHYD>
1

>  <Q_VSA_FNEG>
0

>  <Q_VSA_FPNEG>
0

>  <Q_VSA_FPOL>
0

>  <Q_VSA_FPOS>
1

>  <Q_VSA_FPPOS>
0

>  <Q_VSA_HYD>
314.27386

>  <Q_VSA_NEG>
0

>  <Q_VSA_PNEG>
0

>  <Q_VSA_POL>
0

>  <Q_VSA_POS>
314.27386

>  <Q_VSA_PPOS>
0

>  <radius>
5

>  <reactive>
1

>  <rings>
3

>  <RPC+>
0

>  <RPC->
0

>  <rsynth>
1

>  <SlogP>
5.4567699

>  <SlogP_VSA0>
25.385227

>  <SlogP_VSA1>
5.6876111

>  <SlogP_VSA2>
0

>  <SlogP_VSA3>
0

>  <SlogP_VSA4>
35.682186

>  <SlogP_VSA5>
34.485962

>  <SlogP_VSA6>
0

>  <SlogP_VSA7>
113.26828

>  <SlogP_VSA8>
0

>  <SlogP_VSA9>
130.47763

>  <SMR>
9.25313

>  <SMR_VSA0>
33.369564

>  <SMR_VSA1>
25.385227

>  <SMR_VSA2>
6.110209

>  <SMR_VSA3>
17.063398

>  <SMR_VSA4>
7.4091749

>  <SMR_VSA5>
124.72751

>  <SMR_VSA6>
5.6876111

>  <SMR_VSA7>
125.2342

>  <TPSA>
50.439999

>  <VAdjEq>
0.46637034

>  <VAdjMa>
5.5849624

>  <VDistEq>
3.0742695

>  <VDistMa>
8.649828

>  <vdw_area>
314.27386

>  <vdw_vol>
424.52945

>  <vsa_acc>
13.566921

>  <vsa_acid>
0

>  <vsa_base>
0

>  <vsa_don>
0

>  <vsa_hyd>
246.90616

>  <vsa_other>
27.879314

>  <vsa_pol>
27.133842

>  <Weight>
424.08798

>  <weinerPath>
988

>  <weinerPol>
38

>  <zagreb>
118

$$$$