O(C(=O)C(N(C(C)C)C(C)C)N(C(C)C)C(C)C)CC(O)C(O)C(O)C(O)C(O)=O
  MOE2013           2D

 30 29  0  0  1  0  0  0  0  0999 V2000
    0.0000    0.0000    0.0000 O   0  0  0  0  0  0  0  0  0  0  0  0
   -0.7530    1.2970    0.0000 C   0  0  0  0  0  0  0  0  0  0  0  0
   -0.0060    2.5980    0.0000 O   0  0  0  0  0  0  0  0  0  0  0  0
   -2.2530    1.2940    0.0000 C   0  0  0  0  0  0  0  0  0  0  0  0
   -3.0060    2.5910    0.0000 N   0  0  0  0  0  0  0  0  0  0  0  0
   -4.4550    2.9770    0.0000 C   0  0  0  0  0  0  0  0  0  0  0  0
   -5.5140    1.9140    0.0000 C   0  0  0  0  0  0  0  0  0  0  0  0
   -4.8470    4.4250    0.0000 C   0  0  0  0  0  0  0  0  0  0  0  0
   -2.2590    3.8920    0.0000 C   0  0  0  0  0  0  0  0  0  0  0  0
   -3.0110    5.1900    0.0000 C   0  0  0  0  0  0  0  0  0  0  0  0
   -0.7590    3.8950    0.0000 C   0  0  0  0  0  0  0  0  0  0  0  0
   -3.0000   -0.0070    0.0000 N   0  0  0  0  0  0  0  0  0  0  0  0
   -2.2470   -1.3040    0.0000 C   0  0  0  0  0  0  0  0  0  0  0  0
   -0.7470   -1.3010    0.0000 C   0  0  0  0  0  0  0  0  0  0  0  0
   -2.9940   -2.6050    0.0000 C   0  0  0  0  0  0  0  0  0  0  0  0
   -4.4480   -0.3980    0.0000 C   0  0  0  0  0  0  0  0  0  0  0  0
   -4.8330   -1.8480    0.0000 C   0  0  0  0  0  0  0  0  0  0  0  0
   -5.5110    0.6600    0.0000 C   0  0  0  0  0  0  0  0  0  0  0  0
    1.5000    0.0030    0.0000 C   0  0  0  0  0  0  0  0  0  0  0  0
    2.2530   -1.2940    0.0000 C   0  0  3  0  0  0  0  0  0  0  0  0
    1.5060   -2.5950    0.0000 O   0  0  0  0  0  0  0  0  0  0  0  0
    3.7530   -1.2910    0.0000 C   0  0  3  0  0  0  0  0  0  0  0  0
    4.5060   -2.5880    0.0000 O   0  0  0  0  0  0  0  0  0  0  0  0
    4.5000    0.0100    0.0000 C   0  0  3  0  0  0  0  0  0  0  0  0
    3.7470    1.3070    0.0000 O   0  0  0  0  0  0  0  0  0  0  0  0
    6.0000    0.0130    0.0000 C   0  0  3  0  0  0  0  0  0  0  0  0
    6.7530   -1.2840    0.0000 O   0  0  0  0  0  0  0  0  0  0  0  0
    6.7470    1.3140    0.0000 C   0  0  0  0  0  0  0  0  0  0  0  0
    5.9940    2.6110    0.0000 O   0  0  0  0  0  0  0  0  0  0  0  0
    8.2470    1.3170    0.0000 O   0  0  0  0  0  0  0  0  0  0  0  0
  1  2  1  0  0  0  0
  1 19  1  0  0  0  0
  2  3  2  0  0  0  0
  2  4  1  0  0  0  0
  4  5  1  0  0  0  0
  4 12  1  0  0  0  0
  5  6  1  0  0  0  0
  5  9  1  0  0  0  0
  6  7  1  0  0  0  0
  6  8  1  0  0  0  0
  9 10  1  0  0  0  0
  9 11  1  0  0  0  0
 12 13  1  0  0  0  0
 12 16  1  0  0  0  0
 13 14  1  0  0  0  0
 13 15  1  0  0  0  0
 16 17  1  0  0  0  0
 16 18  1  0  0  0  0
 19 20  1  0  0  0  0
 20 21  1  0  0  0  0
 20 22  1  0  0  0  0
 22 23  1  0  0  0  0
 22 24  1  0  0  0  0
 24 25  1  0  0  0  0
 24 26  1  0  0  0  0
 26 27  1  0  0  0  0
 26 28  1  0  0  0  0
 28 29  1  0  0  0  0
 28 30  2  0  0  0  0
M  END
>  <Index>
1385

>  <ID>
HT3824

>  <class>
0

>  <apol>
70.487717

>  <ast_fraglike>
0

>  <ast_fraglike_ext>
0

>  <ast_violation>
3

>  <ast_violation_ext>
5

>  <a_acc>
9

>  <a_acid>
0

>  <a_aro>
0

>  <a_base>
0

>  <a_count>
70

>  <a_don>
6

>  <a_donacc>
15

>  <a_heavy>
30

>  <a_hyd>
17

>  <a_IC>
103.73412

>  <a_ICM>
1.4819161

>  <a_nB>
0

>  <a_nBr>
0

>  <a_nC>
20

>  <a_nCl>
0

>  <a_nF>
0

>  <a_nH>
40

>  <a_nI>
0

>  <a_nN>
2

>  <a_nO>
8

>  <a_nP>
0

>  <a_nS>
0

>  <balabanJ>
5.4993854

>  <BCUT_PEOE_0>
-2.7920465

>  <BCUT_PEOE_1>
-0.41488191

>  <BCUT_PEOE_2>
0.50619626

>  <BCUT_PEOE_3>
2.7278249

>  <BCUT_SLOGP_0>
-2.8865478

>  <BCUT_SLOGP_1>
-0.45862722

>  <BCUT_SLOGP_2>
0.41740564

>  <BCUT_SLOGP_3>
2.6689923

>  <BCUT_SMR_0>
-2.5203807

>  <BCUT_SMR_1>
-0.29787013

>  <BCUT_SMR_2>
0.56324583

>  <BCUT_SMR_3>
2.9834166

>  <bpol>
51.520279

>  <b_1rotN>
13

>  <b_1rotR>
0.44827586

>  <b_ar>
0

>  <b_count>
69

>  <b_double>
2

>  <b_heavy>
29

>  <b_max1len>
8

>  <b_rotN>
14

>  <b_rotR>
0.48275861

>  <b_single>
67

>  <b_triple>
0

>  <chi0>
23.919767

>  <chi0v>
19.258499

>  <chi0v_C>
14.903259

>  <chi0_C>
15.05796

>  <chi1>
13.643417

>  <chi1v>
10.311044

>  <chi1v_C>
6.6044006

>  <chi1_C>
6.693717

>  <chiral>
4

>  <chiral_u>
4

>  <density>
0.73503047

>  <diameter>
12

>  <FCharge>
0

>  <GCUT_PEOE_0>
-0.8345623

>  <GCUT_PEOE_1>
-0.37366357

>  <GCUT_PEOE_2>
0.078949414

>  <GCUT_PEOE_3>
3.0297556

>  <GCUT_SLOGP_0>
-0.98463911

>  <GCUT_SLOGP_1>
-0.39979076

>  <GCUT_SLOGP_2>
-0.010477979

>  <GCUT_SLOGP_3>
2.9892952

>  <GCUT_SMR_0>
-0.5300498

>  <GCUT_SMR_1>
-0.21458627

>  <GCUT_SMR_2>
0.12944378

>  <GCUT_SMR_3>
3.2459486

>  <Kier1>
30

>  <Kier2>
13.525283

>  <Kier3>
8.8163261

>  <KierA1>
28.196033

>  <KierA2>
12.683869

>  <KierA3>
8.25492

>  <KierFlex>
11.92116

>  <lip_acc>
10

>  <lip_don>
5

>  <lip_druglike>
1

>  <lip_violation>
0

>  <logP(o/w)>
0.43599999

>  <logS>
-1.47858

>  <mr>
11.105517

>  <mutagenic>
0

>  <nmol>
1

>  <opr_brigid>
0

>  <opr_leadlike>
0

>  <opr_nring>
0

>  <opr_nrot>
13

>  <opr_violation>
2

>  <PC+>
0

>  <PC->
0

>  <PEOE_PC+>
3.6474102

>  <PEOE_PC->
-3.6474102

>  <PEOE_RPC+>
0.080786377

>  <PEOE_RPC->
0.10605955

>  <PEOE_VSA+0>
132.01465

>  <PEOE_VSA+1>
44.808994

>  <PEOE_VSA+2>
14.714787

>  <PEOE_VSA+3>
12.541901

>  <PEOE_VSA+4>
51.620865

>  <PEOE_VSA+5>
29.416998

>  <PEOE_VSA+6>
0

>  <PEOE_VSA-0>
149.98141

>  <PEOE_VSA-1>
0

>  <PEOE_VSA-2>
0

>  <PEOE_VSA-3>
0

>  <PEOE_VSA-4>
0

>  <PEOE_VSA-5>
27.133842

>  <PEOE_VSA-6>
41.341457

>  <PEOE_VSA_FHYD>
0.70309651

>  <PEOE_VSA_FNEG>
0.43381175

>  <PEOE_VSA_FPNEG>
0.13597837

>  <PEOE_VSA_FPOL>
0.29690352

>  <PEOE_VSA_FPOS>
0.56618822

>  <PEOE_VSA_FPPOS>
0.16092514

>  <PEOE_VSA_HYD>
354.06177

>  <PEOE_VSA_NEG>
218.45673

>  <PEOE_VSA_PNEG>
68.475296

>  <PEOE_VSA_POL>
149.51317

>  <PEOE_VSA_POS>
285.11819

>  <PEOE_VSA_PPOS>
81.037865

>  <petitjean>
0.5

>  <petitjeanSC>
1

>  <Q_PC+>
0

>  <Q_PC->
0

>  <Q_RPC+>
0

>  <Q_RPC->
0

>  <Q_VSA_FHYD>
1

>  <Q_VSA_FNEG>
0

>  <Q_VSA_FPNEG>
0

>  <Q_VSA_FPOL>
0

>  <Q_VSA_FPOS>
1

>  <Q_VSA_FPPOS>
0

>  <Q_VSA_HYD>
503.57492

>  <Q_VSA_NEG>
0

>  <Q_VSA_PNEG>
0

>  <Q_VSA_POL>
0

>  <Q_VSA_POS>
503.57492

>  <Q_VSA_PPOS>
0

>  <radius>
6

>  <reactive>
1

>  <rings>
0

>  <RPC+>
0

>  <RPC->
0

>  <rsynth>
1

>  <SlogP>
-0.37850001

>  <SlogP_VSA0>
101.54091

>  <SlogP_VSA1>
21.739555

>  <SlogP_VSA2>
104.07993

>  <SlogP_VSA3>
46.311485

>  <SlogP_VSA4>
0

>  <SlogP_VSA5>
0

>  <SlogP_VSA6>
0

>  <SlogP_VSA7>
0

>  <SlogP_VSA8>
0

>  <SlogP_VSA9>
266.60812

>  <SMR>
11.0632

>  <SMR_VSA0>
58.724319

>  <SMR_VSA1>
107.78954

>  <SMR_VSA2>
25.385227

>  <SMR_VSA3>
45.355614

>  <SMR_VSA4>
0

>  <SMR_VSA5>
0

>  <SMR_VSA6>
36.417187

>  <SMR_VSA7>
266.60812

>  <TPSA>
151

>  <VAdjEq>
0.34484071

>  <VAdjMa>
5.8579812

>  <VDistEq>
3.5049236

>  <VDistMa>
9.5477991

>  <vdw_area>
503.57492

>  <vdw_vol>
593.91553

>  <vsa_acc>
13.566921

>  <vsa_acid>
0

>  <vsa_base>
0

>  <vsa_don>
0

>  <vsa_hyd>
317.95834

>  <vsa_other>
43.111317

>  <vsa_pol>
94.968445

>  <Weight>
436.54599

>  <weinerPath>
2508

>  <weinerPol>
49

>  <zagreb>
140

$$$$