Oc1cc(O)ccc1CCCCCC
  MOE2013           2D

 14 14  0  0  0  0  0  0  0  0999 V2000
    0.0000    0.0000    0.0000 O   0  0  0  0  0  0  0  0  0  0  0  0
   -0.7590    1.2940    0.0000 C   0  0  0  0  0  0  0  0  0  0  0  0
   -2.2590    1.2840    0.0000 C   0  0  0  0  0  0  0  0  0  0  0  0
   -3.0170    2.5780    0.0000 C   0  0  0  0  0  0  0  0  0  0  0  0
   -4.5170    2.5680    0.0000 O   0  0  0  0  0  0  0  0  0  0  0  0
   -2.2760    3.8820    0.0000 C   0  0  0  0  0  0  0  0  0  0  0  0
   -0.7760    3.8920    0.0000 C   0  0  0  0  0  0  0  0  0  0  0  0
   -0.0170    2.5980    0.0000 C   0  0  0  0  0  0  0  0  0  0  0  0
    1.4830    2.6080    0.0000 C   0  0  0  0  0  0  0  0  0  0  0  0
    2.2240    3.9120    0.0000 C   0  0  0  0  0  0  0  0  0  0  0  0
    3.7240    3.9220    0.0000 C   0  0  0  0  0  0  0  0  0  0  0  0
    4.4660    5.2260    0.0000 C   0  0  0  0  0  0  0  0  0  0  0  0
    5.9660    5.2360    0.0000 C   0  0  0  0  0  0  0  0  0  0  0  0
    6.7070    6.5400    0.0000 C   0  0  0  0  0  0  0  0  0  0  0  0
  1  2  1  0  0  0  0
  2  3  1  0  0  0  0
  2  8  2  0  0  0  0
  3  4  2  0  0  0  0
  4  5  1  0  0  0  0
  4  6  1  0  0  0  0
  6  7  2  0  0  0  0
  7  8  1  0  0  0  0
  8  9  1  0  0  0  0
  9 10  1  0  0  0  0
 10 11  1  0  0  0  0
 11 12  1  0  0  0  0
 12 13  1  0  0  0  0
 13 14  1  0  0  0  0
M  END
>  <Index>
1262

>  <ID>
HT2830

>  <class>
0

>  <apol>
34.726273

>  <ast_fraglike>
0

>  <ast_fraglike_ext>
0

>  <ast_violation>
1

>  <ast_violation_ext>
2

>  <a_acc>
2

>  <a_acid>
0

>  <a_aro>
6

>  <a_base>
0

>  <a_count>
32

>  <a_don>
2

>  <a_donacc>
4

>  <a_heavy>
14

>  <a_hyd>
12

>  <a_IC>
39.921799

>  <a_ICM>
1.2475562

>  <a_nB>
0

>  <a_nBr>
0

>  <a_nC>
12

>  <a_nCl>
0

>  <a_nF>
0

>  <a_nH>
18

>  <a_nI>
0

>  <a_nN>
0

>  <a_nO>
2

>  <a_nP>
0

>  <a_nS>
0

>  <balabanJ>
2.1240301

>  <BCUT_PEOE_0>
-2.6601613

>  <BCUT_PEOE_1>
-0.58955556

>  <BCUT_PEOE_2>
0.65331006

>  <BCUT_PEOE_3>
2.5959773

>  <BCUT_SLOGP_0>
-2.5054317

>  <BCUT_SLOGP_1>
-0.49751627

>  <BCUT_SLOGP_2>
0.68002504

>  <BCUT_SLOGP_3>
2.7554302

>  <BCUT_SMR_0>
-2.4082203

>  <BCUT_SMR_1>
-0.43659765

>  <BCUT_SMR_2>
0.78787625

>  <BCUT_SMR_3>
2.8509228

>  <bpol>
19.677727

>  <b_1rotN>
5

>  <b_1rotR>
0.35714287

>  <b_ar>
6

>  <b_count>
32

>  <b_double>
0

>  <b_heavy>
14

>  <b_max1len>
7

>  <b_rotN>
5

>  <b_rotR>
0.35714287

>  <b_single>
26

>  <b_triple>
0

>  <chi0>
10.388906

>  <chi0v>
8.6620121

>  <chi0v_C>
7.7675848

>  <chi0_C>
8.3889055

>  <chi1>
6.736382

>  <chi1v>
5.2459078

>  <chi1v_C>
4.7986941

>  <chi1_C>
5.5816817

>  <chiral>
0

>  <chiral_u>
0

>  <density>
0.66420859

>  <diameter>
10

>  <FCharge>
0

>  <GCUT_PEOE_0>
-0.8006202

>  <GCUT_PEOE_1>
-0.38713318

>  <GCUT_PEOE_2>
0.088694759

>  <GCUT_PEOE_3>
2.4295874

>  <GCUT_SLOGP_0>
-0.7646575

>  <GCUT_SLOGP_1>
-0.26157933

>  <GCUT_SLOGP_2>
0.10101935

>  <GCUT_SLOGP_3>
2.5883167

>  <GCUT_SMR_0>
-0.53172779

>  <GCUT_SMR_1>
-0.21087717

>  <GCUT_SMR_2>
0.20552845

>  <GCUT_SMR_3>
2.6753764

>  <Kier1>
12.071428

>  <Kier2>
6.4775085

>  <Kier3>
4.3878117

>  <KierA1>
10.072048

>  <KierA2>
5.3230319

>  <KierA3>
3.5639319

>  <KierFlex>
3.8295596

>  <lip_acc>
2

>  <lip_don>
2

>  <lip_druglike>
1

>  <lip_violation>
0

>  <logP(o/w)>
3.8659999

>  <logS>
-3.3975501

>  <mr>
5.8196006

>  <mutagenic>
0

>  <nmol>
1

>  <opr_brigid>
6

>  <opr_leadlike>
1

>  <opr_nring>
1

>  <opr_nrot>
5

>  <opr_violation>
0

>  <PC+>
0

>  <PC->
0

>  <PEOE_PC+>
1.1253325

>  <PEOE_PC->
-1.1253325

>  <PEOE_RPC+>
0.1931216

>  <PEOE_RPC->
0.3196831

>  <PEOE_VSA+0>
55.45002

>  <PEOE_VSA+1>
29.713198

>  <PEOE_VSA+2>
0

>  <PEOE_VSA+3>
0

>  <PEOE_VSA+4>
20.648346

>  <PEOE_VSA+5>
0

>  <PEOE_VSA+6>
0

>  <PEOE_VSA-0>
44.120975

>  <PEOE_VSA-1>
57.106522

>  <PEOE_VSA-2>
0

>  <PEOE_VSA-3>
0

>  <PEOE_VSA-4>
0

>  <PEOE_VSA-5>
0

>  <PEOE_VSA-6>
15.535081

>  <PEOE_VSA_FHYD>
0.83743203

>  <PEOE_VSA_FNEG>
0.5246008

>  <PEOE_VSA_FPNEG>
0.06979733

>  <PEOE_VSA_FPOL>
0.16256797

>  <PEOE_VSA_FPOS>
0.47539917

>  <PEOE_VSA_FPPOS>
0.092770644

>  <PEOE_VSA_HYD>
186.39072

>  <PEOE_VSA_NEG>
116.76257

>  <PEOE_VSA_PNEG>
15.535081

>  <PEOE_VSA_POL>
36.183426

>  <PEOE_VSA_POS>
105.81156

>  <PEOE_VSA_PPOS>
20.648346

>  <petitjean>
0.5

>  <petitjeanSC>
1

>  <Q_PC+>
0

>  <Q_PC->
0

>  <Q_RPC+>
0

>  <Q_RPC->
0

>  <Q_VSA_FHYD>
1

>  <Q_VSA_FNEG>
0

>  <Q_VSA_FPNEG>
0

>  <Q_VSA_FPOL>
0

>  <Q_VSA_FPOS>
1

>  <Q_VSA_FPPOS>
0

>  <Q_VSA_HYD>
222.57414

>  <Q_VSA_NEG>
0

>  <Q_VSA_PNEG>
0

>  <Q_VSA_POL>
0

>  <Q_VSA_POS>
222.57414

>  <Q_VSA_PPOS>
0

>  <radius>
5

>  <reactive>
0

>  <rings>
1

>  <RPC+>
0

>  <RPC->
0

>  <rsynth>
1

>  <SlogP>
3.2205701

>  <SlogP_VSA0>
50.770454

>  <SlogP_VSA1>
0

>  <SlogP_VSA2>
0

>  <SlogP_VSA3>
0

>  <SlogP_VSA4>
3.185575

>  <SlogP_VSA5>
18.868406

>  <SlogP_VSA6>
0

>  <SlogP_VSA7>
52.929554

>  <SlogP_VSA8>
75.473625

>  <SlogP_VSA9>
43.81287

>  <SMR>
5.7617602

>  <SMR_VSA0>
0

>  <SMR_VSA1>
50.770454

>  <SMR_VSA2>
0

>  <SMR_VSA3>
13.672431

>  <SMR_VSA4>
0

>  <SMR_VSA5>
147.27158

>  <SMR_VSA6>
0

>  <SMR_VSA7>
33.326015

>  <TPSA>
40.459999

>  <VAdjEq>
0.59167278

>  <VAdjMa>
4.8073549

>  <VDistEq>
3.0396645

>  <VDistMa>
7.257206

>  <vdw_area>
222.57414

>  <vdw_vol>
292.48944

>  <vsa_acc>
0

>  <vsa_acid>
0

>  <vsa_base>
0

>  <vsa_don>
0

>  <vsa_hyd>
175.00198

>  <vsa_other>
0

>  <vsa_pol>
27.133842

>  <Weight>
194.274

>  <weinerPath>
354

>  <weinerPol>
16

>  <zagreb>
62

$$$$