Fc1ccc(cc1)C=1c2c(OC3(CCCC3)C=1C=C[C@H](O)C[C@H](O)CC(OCC)=O)cccc2
  MOE2013           2D

 34 37  0  0  1  0  0  0  0  0999 V2000
    0.0000    0.0000    0.0000 F   0  0  0  0  0  0  0  0  0  0  0  0
    0.0100    1.5000    0.0000 C   0  0  0  0  0  0  0  0  0  0  0  0
    1.3130    2.2420    0.0000 C   0  0  0  0  0  0  0  0  0  0  0  0
    1.3230    3.7420    0.0000 C   0  0  0  0  0  0  0  0  0  0  0  0
    0.0290    4.5000    0.0000 C   0  0  0  0  0  0  0  0  0  0  0  0
   -1.2750    3.7580    0.0000 C   0  0  0  0  0  0  0  0  0  0  0  0
   -1.2850    2.2580    0.0000 C   0  0  0  0  0  0  0  0  0  0  0  0
    0.0380    6.0000    0.0000 C   0  0  0  0  0  0  0  0  0  0  0  0
   -1.2560    6.7580    0.0000 C   0  0  0  0  0  0  0  0  0  0  0  0
   -1.2470    8.2580    0.0000 C   0  0  0  0  0  0  0  0  0  0  0  0
    0.0570    9.0000    0.0000 O   0  0  0  0  0  0  0  0  0  0  0  0
    1.3510    8.2420    0.0000 C   0  0  0  0  0  0  0  0  0  0  0  0
    2.7070    7.5990    0.0000 C   0  0  0  0  0  0  0  0  0  0  0  0
    3.7370    8.6900    0.0000 C   0  0  0  0  0  0  0  0  0  0  0  0
    3.0180   10.0060    0.0000 C   0  0  0  0  0  0  0  0  0  0  0  0
    1.5440    9.7290    0.0000 C   0  0  0  0  0  0  0  0  0  0  0  0
    1.3420    6.7420    0.0000 C   0  0  0  0  0  0  0  0  0  0  0  0
    2.6360    5.9830    0.0000 C   0  0  0  0  0  0  0  0  0  0  0  0
    3.9400    6.7250    0.0000 C   0  0  0  0  0  0  0  0  0  0  0  0
    5.2340    5.9670    0.0000 C   0  0  2  0  0  0  0  0  0  0  0  0
    5.2250    4.4670    0.0000 O   0  0  0  0  0  0  0  0  0  0  0  0
    6.5380    6.7090    0.0000 C   0  0  0  0  0  0  0  0  0  0  0  0
    7.8320    5.9500    0.0000 C   0  0  2  0  0  0  0  0  0  0  0  0
    7.8230    4.4510    0.0000 O   0  0  0  0  0  0  0  0  0  0  0  0
    9.1360    6.6920    0.0000 C   0  0  0  0  0  0  0  0  0  0  0  0
   10.4300    5.9340    0.0000 C   0  0  0  0  0  0  0  0  0  0  0  0
   11.7340    6.6760    0.0000 O   0  0  0  0  0  0  0  0  0  0  0  0
   13.0280    5.9180    0.0000 C   0  0  0  0  0  0  0  0  0  0  0  0
   14.3320    6.6590    0.0000 C   0  0  0  0  0  0  0  0  0  0  0  0
   10.4210    4.4340    0.0000 O   0  0  0  0  0  0  0  0  0  0  0  0
   -2.5410    9.0160    0.0000 C   0  0  0  0  0  0  0  0  0  0  0  0
   -3.8450    8.2750    0.0000 C   0  0  0  0  0  0  0  0  0  0  0  0
   -3.8540    6.7750    0.0000 C   0  0  0  0  0  0  0  0  0  0  0  0
   -2.5600    6.0160    0.0000 C   0  0  0  0  0  0  0  0  0  0  0  0
  1  2  1  0  0  0  0
  2  3  1  0  0  0  0
  2  7  2  0  0  0  0
  3  4  2  0  0  0  0
  4  5  1  0  0  0  0
  5  6  2  0  0  0  0
  5  8  1  0  0  0  0
  6  7  1  0  0  0  0
  8  9  1  0  0  0  0
  8 17  2  0  0  0  0
  9 10  2  0  0  0  0
  9 34  1  0  0  0  0
 10 11  1  0  0  0  0
 10 31  1  0  0  0  0
 11 12  1  0  0  0  0
 12 13  1  0  0  0  0
 12 16  1  0  0  0  0
 12 17  1  0  0  0  0
 13 14  1  0  0  0  0
 14 15  1  0  0  0  0
 15 16  1  0  0  0  0
 17 18  1  0  0  0  0
 18 19  2  3  0  0  0
 19 20  1  0  0  0  0
 20 21  1  1  0  0  0
 20 22  1  0  0  0  0
 22 23  1  0  0  0  0
 23 24  1  1  0  0  0
 23 25  1  0  0  0  0
 25 26  1  0  0  0  0
 26 27  1  0  0  0  0
 26 30  2  0  0  0  0
 27 28  1  0  0  0  0
 28 29  1  0  0  0  0
 31 32  2  0  0  0  0
 32 33  1  0  0  0  0
 33 34  2  0  0  0  0
M  END
>  <Index>
131

>  <ID>
HT0265

>  <class>
0

>  <apol>
74.517586

>  <ast_fraglike>
0

>  <ast_fraglike_ext>
0

>  <ast_violation>
3

>  <ast_violation_ext>
4

>  <a_acc>
4

>  <a_acid>
0

>  <a_aro>
12

>  <a_base>
0

>  <a_count>
65

>  <a_don>
2

>  <a_donacc>
6

>  <a_heavy>
34

>  <a_hyd>
28

>  <a_IC>
91.658241

>  <a_ICM>
1.4101268

>  <a_nB>
0

>  <a_nBr>
0

>  <a_nC>
28

>  <a_nCl>
0

>  <a_nF>
1

>  <a_nH>
31

>  <a_nI>
0

>  <a_nN>
0

>  <a_nO>
5

>  <a_nP>
0

>  <a_nS>
0

>  <balabanJ>
1.4590414

>  <BCUT_PEOE_0>
-2.5992112

>  <BCUT_PEOE_1>
-0.61851615

>  <BCUT_PEOE_2>
0.67116636

>  <BCUT_PEOE_3>
2.7660997

>  <BCUT_SLOGP_0>
-2.6466613

>  <BCUT_SLOGP_1>
-0.54190451

>  <BCUT_SLOGP_2>
0.73893142

>  <BCUT_SLOGP_3>
2.849277

>  <BCUT_SMR_0>
-2.3699517

>  <BCUT_SMR_1>
-0.46763286

>  <BCUT_SMR_2>
0.8121146

>  <BCUT_SMR_3>
3.0131679

>  <bpol>
39.882416

>  <b_1rotN>
8

>  <b_1rotR>
0.21621622

>  <b_ar>
12

>  <b_count>
68

>  <b_double>
3

>  <b_heavy>
37

>  <b_max1len>
6

>  <b_rotN>
9

>  <b_rotR>
0.24324325

>  <b_single>
53

>  <b_triple>
0

>  <chi0>
24.131182

>  <chi0v>
19.375088

>  <chi0v_C>
16.877951

>  <chi0_C>
18.716969

>  <chi1>
16.414652

>  <chi1v>
11.907123

>  <chi1v_C>
10.096571

>  <chi1_C>
12.435202

>  <chiral>
2

>  <chiral_u>
0

>  <density>
0.73149347

>  <diameter>
16

>  <FCharge>
0

>  <GCUT_PEOE_0>
-0.79350764

>  <GCUT_PEOE_1>
-0.39981478

>  <GCUT_PEOE_2>
0.077258319

>  <GCUT_PEOE_3>
2.9505224

>  <GCUT_SLOGP_0>
-0.89156914

>  <GCUT_SLOGP_1>
-0.30772203

>  <GCUT_SLOGP_2>
0.14587183

>  <GCUT_SLOGP_3>
3.0456984

>  <GCUT_SMR_0>
-0.53139472

>  <GCUT_SMR_1>
-0.21683031

>  <GCUT_SMR_2>
0.18211575

>  <GCUT_SMR_3>
3.2124138

>  <Kier1>
27.046019

>  <Kier2>
12.497042

>  <Kier3>
6.6675067

>  <KierA1>
21.532272

>  <KierA2>
9.876585

>  <KierA3>
5.2422934

>  <KierFlex>
6.2548623

>  <lip_acc>
5

>  <lip_don>
2

>  <lip_druglike>
1

>  <lip_violation>
0

>  <logP(o/w)>
5.9720001

>  <logS>
-6.0212698

>  <mr>
12.949946

>  <mutagenic>
0

>  <nmol>
1

>  <opr_brigid>
23

>  <opr_leadlike>
0

>  <opr_nring>
4

>  <opr_nrot>
9

>  <opr_violation>
2

>  <PC+>
0

>  <PC->
0

>  <PEOE_PC+>
2.5725119

>  <PEOE_PC->
-2.5725119

>  <PEOE_RPC+>
0.10286728

>  <PEOE_RPC->
0.15206543

>  <PEOE_VSA+0>
74.89064

>  <PEOE_VSA+1>
101.63639

>  <PEOE_VSA+2>
9.0208454

>  <PEOE_VSA+3>
0

>  <PEOE_VSA+4>
20.648346

>  <PEOE_VSA+5>
14.708499

>  <PEOE_VSA+6>
0

>  <PEOE_VSA-0>
79.540634

>  <PEOE_VSA-1>
103.18695

>  <PEOE_VSA-2>
0

>  <PEOE_VSA-3>
0

>  <PEOE_VSA-4>
11.908636

>  <PEOE_VSA-5>
13.566921

>  <PEOE_VSA-6>
20.542593

>  <PEOE_VSA_FHYD>
0.81902611

>  <PEOE_VSA_FNEG>
0.50871903

>  <PEOE_VSA_FPNEG>
0.10234205

>  <PEOE_VSA_FPOL>
0.18097389

>  <PEOE_VSA_FPOS>
0.49128097

>  <PEOE_VSA_FPPOS>
0.078631841

>  <PEOE_VSA_HYD>
368.27545

>  <PEOE_VSA_NEG>
228.74574

>  <PEOE_VSA_PNEG>
46.01815

>  <PEOE_VSA_POL>
81.374992

>  <PEOE_VSA_POS>
220.90472

>  <PEOE_VSA_PPOS>
35.356846

>  <petitjean>
0.5

>  <petitjeanSC>
1

>  <Q_PC+>
0

>  <Q_PC->
0

>  <Q_RPC+>
0

>  <Q_RPC->
0

>  <Q_VSA_FHYD>
1

>  <Q_VSA_FNEG>
0

>  <Q_VSA_FPNEG>
0

>  <Q_VSA_FPOL>
0

>  <Q_VSA_FPOS>
1

>  <Q_VSA_FPPOS>
0

>  <Q_VSA_HYD>
449.65045

>  <Q_VSA_NEG>
0

>  <Q_VSA_PNEG>
0

>  <Q_VSA_POL>
0

>  <Q_VSA_POS>
449.65045

>  <Q_VSA_PPOS>
0

>  <radius>
8

>  <reactive>
0

>  <rings>
4

>  <RPC+>
0

>  <RPC->
0

>  <rsynth>
0.17647059

>  <SlogP>
4.77139

>  <SlogP_VSA0>
61.77034

>  <SlogP_VSA1>
7.7454643

>  <SlogP_VSA2>
56.920422

>  <SlogP_VSA3>
24.111834

>  <SlogP_VSA4>
6.37115

>  <SlogP_VSA5>
3.185575

>  <SlogP_VSA6>
0

>  <SlogP_VSA7>
176.43184

>  <SlogP_VSA8>
113.21043

>  <SlogP_VSA9>
53.529556

>  <SMR>
12.66496

>  <SMR_VSA0>
34.862103

>  <SMR_VSA1>
76.730453

>  <SMR_VSA2>
12.306593

>  <SMR_VSA3>
27.737452

>  <SMR_VSA4>
0

>  <SMR_VSA5>
289.64227

>  <SMR_VSA6>
28.671722

>  <SMR_VSA7>
33.326015

>  <TPSA>
75.989998

>  <VAdjEq>
0.34317648

>  <VAdjMa>
6.2094536

>  <VDistEq>
3.7030609

>  <VDistMa>
9.8997269

>  <vdw_area>
449.65045

>  <vdw_vol>
637.80334

>  <vsa_acc>
16.070677

>  <vsa_acid>
0

>  <vsa_base>
0

>  <vsa_don>
0

>  <vsa_hyd>
359.54202

>  <vsa_other>
17.212255

>  <vsa_pol>
43.204517

>  <Weight>
466.54898

>  <weinerPath>
3476

>  <weinerPol>
55

>  <zagreb>
178

$$$$