Clc1cc(Cl)ccc1Oc1ccc(Cl)cc1O
  MOE2013           2D

 17 18  0  0  0  0  0  0  0  0999 V2000
    0.0000    0.0000    0.0000 Cl  0  0  0  0  0  0  0  0  0  0  0  0
    0.0000   -1.5000    0.0000 C   0  0  0  0  0  0  0  0  0  0  0  0
    1.2990   -2.2500    0.0000 C   0  0  0  0  0  0  0  0  0  0  0  0
    1.2990   -3.7500    0.0000 C   0  0  0  0  0  0  0  0  0  0  0  0
    2.5980   -4.5000    0.0000 Cl  0  0  0  0  0  0  0  0  0  0  0  0
    0.0000   -4.5000    0.0000 C   0  0  0  0  0  0  0  0  0  0  0  0
   -1.2990   -3.7500    0.0000 C   0  0  0  0  0  0  0  0  0  0  0  0
   -1.2990   -2.2500    0.0000 C   0  0  0  0  0  0  0  0  0  0  0  0
   -2.5980   -1.5000    0.0000 O   0  0  0  0  0  0  0  0  0  0  0  0
   -3.8970   -2.2500    0.0000 C   0  0  0  0  0  0  0  0  0  0  0  0
   -3.8970   -3.7500    0.0000 C   0  0  0  0  0  0  0  0  0  0  0  0
   -5.1960   -4.5000    0.0000 C   0  0  0  0  0  0  0  0  0  0  0  0
   -6.4950   -3.7500    0.0000 C   0  0  0  0  0  0  0  0  0  0  0  0
   -7.7940   -4.5000    0.0000 Cl  0  0  0  0  0  0  0  0  0  0  0  0
   -6.4950   -2.2500    0.0000 C   0  0  0  0  0  0  0  0  0  0  0  0
   -5.1960   -1.5000    0.0000 C   0  0  0  0  0  0  0  0  0  0  0  0
   -5.1960    0.0000    0.0000 O   0  0  0  0  0  0  0  0  0  0  0  0
  1  2  1  0  0  0  0
  2  3  1  0  0  0  0
  2  8  2  0  0  0  0
  3  4  2  0  0  0  0
  4  5  1  0  0  0  0
  4  6  1  0  0  0  0
  6  7  2  0  0  0  0
  7  8  1  0  0  0  0
  8  9  1  0  0  0  0
  9 10  1  0  0  0  0
 10 11  1  0  0  0  0
 10 16  2  0  0  0  0
 11 12  2  0  0  0  0
 12 13  1  0  0  0  0
 13 14  1  0  0  0  0
 13 15  2  0  0  0  0
 15 16  1  0  0  0  0
 16 17  1  0  0  0  0
M  END
>  <Index>
1107

>  <ID>
HT2115

>  <class>
0

>  <apol>
33.931553

>  <ast_fraglike>
0

>  <ast_fraglike_ext>
0

>  <ast_violation>
1

>  <ast_violation_ext>
1

>  <a_acc>
1

>  <a_acid>
0

>  <a_aro>
12

>  <a_base>
0

>  <a_count>
24

>  <a_don>
1

>  <a_donacc>
2

>  <a_heavy>
17

>  <a_hyd>
15

>  <a_IC>
40.613178

>  <a_ICM>
1.6922158

>  <a_nB>
0

>  <a_nBr>
0

>  <a_nC>
12

>  <a_nCl>
3

>  <a_nF>
0

>  <a_nH>
7

>  <a_nI>
0

>  <a_nN>
0

>  <a_nO>
2

>  <a_nP>
0

>  <a_nS>
0

>  <balabanJ>
1.8502251

>  <BCUT_PEOE_0>
-2.2098379

>  <BCUT_PEOE_1>
-0.69975466

>  <BCUT_PEOE_2>
0.70483375

>  <BCUT_PEOE_3>
2.2022376

>  <BCUT_SLOGP_0>
-2.0018198

>  <BCUT_SLOGP_1>
-0.49563381

>  <BCUT_SLOGP_2>
0.93998516

>  <BCUT_SLOGP_3>
2.4648471

>  <BCUT_SMR_0>
-1.889199

>  <BCUT_SMR_1>
-0.44292352

>  <BCUT_SMR_2>
0.99253076

>  <BCUT_SMR_3>
2.5239081

>  <bpol>
10.828449

>  <b_1rotN>
2

>  <b_1rotR>
0.11111111

>  <b_ar>
12

>  <b_count>
25

>  <b_double>
0

>  <b_heavy>
18

>  <b_max1len>
1

>  <b_rotN>
2

>  <b_rotR>
0.11111111

>  <b_single>
13

>  <b_triple>
0

>  <chi0>
12.413849

>  <chi0v>
10.721244

>  <chi0v_C>
6.4641018

>  <chi0_C>
7.7067423

>  <chi1>
8.0585508

>  <chi1v>
5.808763

>  <chi1v_C>
3.4760678

>  <chi1_C>
4.932653

>  <chiral>
0

>  <chiral_u>
0

>  <density>
0.93132657

>  <diameter>
10

>  <FCharge>
0

>  <GCUT_PEOE_0>
-0.75286448

>  <GCUT_PEOE_1>
-0.42378467

>  <GCUT_PEOE_2>
0.054629561

>  <GCUT_PEOE_3>
2.1736965

>  <GCUT_SLOGP_0>
-0.76196837

>  <GCUT_SLOGP_1>
-0.21868385

>  <GCUT_SLOGP_2>
0.41021547

>  <GCUT_SLOGP_3>
2.4290736

>  <GCUT_SMR_0>
-0.42773768

>  <GCUT_SMR_1>
-0.17344132

>  <GCUT_SMR_2>
0.41602409

>  <GCUT_SMR_3>
2.4891346

>  <Kier1>
13.432098

>  <Kier2>
5.7600002

>  <Kier3>
3.4844444

>  <KierA1>
12.962727

>  <KierA2>
5.5457377

>  <KierA3>
3.3486061

>  <KierFlex>
4.2286992

>  <lip_acc>
2

>  <lip_don>
1

>  <lip_druglike>
1

>  <lip_violation>
1

>  <logP(o/w)>
5.0539999

>  <logS>
-5.0085101

>  <mr>
6.9493947

>  <mutagenic>
0

>  <nmol>
1

>  <opr_brigid>
12

>  <opr_leadlike>
1

>  <opr_nring>
2

>  <opr_nrot>
2

>  <opr_violation>
1

>  <PC+>
0

>  <PC->
0

>  <PEOE_PC+>
1.0810242

>  <PEOE_PC->
-1.0810242

>  <PEOE_RPC+>
0.20112625

>  <PEOE_RPC->
0.33045098

>  <PEOE_VSA+0>
9.0394926

>  <PEOE_VSA+1>
30.112062

>  <PEOE_VSA+2>
25.375559

>  <PEOE_VSA+3>
0

>  <PEOE_VSA+4>
10.324173

>  <PEOE_VSA+5>
0

>  <PEOE_VSA+6>
0

>  <PEOE_VSA-0>
73.529427

>  <PEOE_VSA-1>
88.745842

>  <PEOE_VSA-2>
0

>  <PEOE_VSA-3>
0

>  <PEOE_VSA-4>
0

>  <PEOE_VSA-5>
0

>  <PEOE_VSA-6>
10.271297

>  <PEOE_VSA_FHYD>
0.91675162

>  <PEOE_VSA_FNEG>
0.69744569

>  <PEOE_VSA_FPNEG>
0.041517325

>  <PEOE_VSA_FPOL>
0.083248377

>  <PEOE_VSA_FPOS>
0.30255431

>  <PEOE_VSA_FPPOS>
0.041731052

>  <PEOE_VSA_HYD>
226.80238

>  <PEOE_VSA_NEG>
172.54655

>  <PEOE_VSA_PNEG>
10.271297

>  <PEOE_VSA_POL>
20.595469

>  <PEOE_VSA_POS>
74.851288

>  <PEOE_VSA_PPOS>
10.324173

>  <petitjean>
0.5

>  <petitjeanSC>
1

>  <Q_PC+>
0

>  <Q_PC->
0

>  <Q_RPC+>
0

>  <Q_RPC->
0

>  <Q_VSA_FHYD>
1

>  <Q_VSA_FNEG>
0

>  <Q_VSA_FPNEG>
0

>  <Q_VSA_FPOL>
0

>  <Q_VSA_FPOS>
1

>  <Q_VSA_FPPOS>
0

>  <Q_VSA_HYD>
247.39784

>  <Q_VSA_NEG>
0

>  <Q_VSA_PNEG>
0

>  <Q_VSA_POL>
0

>  <Q_VSA_POS>
247.39784

>  <Q_VSA_PPOS>
0

>  <radius>
5

>  <reactive>
0

>  <rings>
2

>  <RPC+>
0

>  <RPC->
0

>  <rsynth>
1

>  <SlogP>
5.1447001

>  <SlogP_VSA0>
36.385113

>  <SlogP_VSA1>
0

>  <SlogP_VSA2>
0

>  <SlogP_VSA3>
0

>  <SlogP_VSA4>
0

>  <SlogP_VSA5>
0

>  <SlogP_VSA6>
10.50182

>  <SlogP_VSA7>
105.85911

>  <SlogP_VSA8>
0

>  <SlogP_VSA9>
133.17622

>  <SMR>
6.9652801

>  <SMR_VSA0>
0

>  <SMR_VSA1>
36.385113

>  <SMR_VSA2>
0

>  <SMR_VSA3>
26.232103

>  <SMR_VSA4>
0

>  <SMR_VSA5>
105.85911

>  <SMR_VSA6>
0

>  <SMR_VSA7>
117.44593

>  <TPSA>
29.459999

>  <VAdjEq>
0.54234898

>  <VAdjMa>
5.1699252

>  <VDistEq>
3.0159414

>  <VDistMa>
7.8621507

>  <vdw_area>
247.39784

>  <vdw_vol>
310.89523

>  <vsa_acc>
0

>  <vsa_acid>
0

>  <vsa_base>
0

>  <vsa_don>
0

>  <vsa_hyd>
222.5316

>  <vsa_other>
2.503756

>  <vsa_pol>
13.566921

>  <Weight>
289.54498

>  <weinerPath>
536

>  <weinerPol>
24

>  <zagreb>
86

$$$$