O[C@@H]1C[C@H](O)[C@H](CC=CCCCC(O)=O)[C@H]1CCC(=O)CCCCCCC
  MOE2013           2D

 27 27  0  0  1  0  0  0  0  0999 V2000
    0.0000    0.0000    0.0000 O   0  0  0  0  0  0  0  0  0  0  0  0
   -1.4650    0.3230    0.0000 C   0  0  2  0  0  0  0  0  0  0  0  0
   -2.5870   -0.6720    0.0000 C   0  0  0  0  0  0  0  0  0  0  0  0
   -3.8800    0.0870    0.0000 C   0  0  2  0  0  0  0  0  0  0  0  0
   -5.2550   -0.5120    0.0000 O   0  0  0  0  0  0  0  0  0  0  0  0
   -3.5570    1.5520    0.0000 C   0  0  2  0  0  0  0  0  0  0  0  0
   -4.5530    2.6750    0.0000 C   0  0  0  0  0  0  0  0  0  0  0  0
   -6.0220    2.3740    0.0000 C   0  0  0  0  0  0  0  0  0  0  0  0
   -7.0180    3.4960    0.0000 C   0  0  0  0  0  0  0  0  0  0  0  0
   -8.4870    3.1950    0.0000 C   0  0  0  0  0  0  0  0  0  0  0  0
   -9.4820    4.3180    0.0000 C   0  0  0  0  0  0  0  0  0  0  0  0
  -10.9520    4.0170    0.0000 C   0  0  0  0  0  0  0  0  0  0  0  0
  -11.9470    5.1390    0.0000 C   0  0  0  0  0  0  0  0  0  0  0  0
  -11.4730    6.5620    0.0000 O   0  0  0  0  0  0  0  0  0  0  0  0
  -13.4170    4.8380    0.0000 O   0  0  0  0  0  0  0  0  0  0  0  0
   -2.0650    1.6980    0.0000 C   0  0  1  0  0  0  0  0  0  0  0  0
   -1.3050    2.9910    0.0000 C   0  0  0  0  0  0  0  0  0  0  0  0
    0.1950    2.9800    0.0000 C   0  0  0  0  0  0  0  0  0  0  0  0
    0.9550    4.2730    0.0000 C   0  0  0  0  0  0  0  0  0  0  0  0
    0.2150    5.5780    0.0000 O   0  0  0  0  0  0  0  0  0  0  0  0
    2.4550    4.2620    0.0000 C   0  0  0  0  0  0  0  0  0  0  0  0
    3.2150    5.5550    0.0000 C   0  0  0  0  0  0  0  0  0  0  0  0
    4.7150    5.5440    0.0000 C   0  0  0  0  0  0  0  0  0  0  0  0
    5.4740    6.8370    0.0000 C   0  0  0  0  0  0  0  0  0  0  0  0
    6.9740    6.8260    0.0000 C   0  0  0  0  0  0  0  0  0  0  0  0
    7.7340    8.1190    0.0000 C   0  0  0  0  0  0  0  0  0  0  0  0
    9.2340    8.1080    0.0000 C   0  0  0  0  0  0  0  0  0  0  0  0
  2  1  1  6  0  0  0
  2  3  1  0  0  0  0
  2 16  1  0  0  0  0
  3  4  1  0  0  0  0
  4  5  1  6  0  0  0
  4  6  1  0  0  0  0
  6  7  1  6  0  0  0
  6 16  1  0  0  0  0
  7  8  1  0  0  0  0
  8  9  2  3  0  0  0
  9 10  1  0  0  0  0
 10 11  1  0  0  0  0
 11 12  1  0  0  0  0
 12 13  1  0  0  0  0
 13 14  1  0  0  0  0
 13 15  2  0  0  0  0
 16 17  1  1  0  0  0
 17 18  1  0  0  0  0
 18 19  1  0  0  0  0
 19 20  2  0  0  0  0
 19 21  1  0  0  0  0
 21 22  1  0  0  0  0
 22 23  1  0  0  0  0
 23 24  1  0  0  0  0
 24 25  1  0  0  0  0
 25 26  1  0  0  0  0
 26 27  1  0  0  0  0
M  END
>  <Index>
1127

>  <ID>
HT2151

>  <class>
0

>  <apol>
68.06813

>  <ast_fraglike>
0

>  <ast_fraglike_ext>
0

>  <ast_violation>
4

>  <ast_violation_ext>
6

>  <a_acc>
5

>  <a_acid>
0

>  <a_aro>
0

>  <a_base>
0

>  <a_count>
65

>  <a_don>
4

>  <a_donacc>
9

>  <a_heavy>
27

>  <a_hyd>
20

>  <a_IC>
82.315529

>  <a_ICM>
1.2663927

>  <a_nB>
0

>  <a_nBr>
0

>  <a_nC>
22

>  <a_nCl>
0

>  <a_nF>
0

>  <a_nH>
38

>  <a_nI>
0

>  <a_nN>
0

>  <a_nO>
5

>  <a_nP>
0

>  <a_nS>
0

>  <balabanJ>
2.2348106

>  <BCUT_PEOE_0>
-2.7018237

>  <BCUT_PEOE_1>
-0.55112708

>  <BCUT_PEOE_2>
0.51826859

>  <BCUT_PEOE_3>
2.8430669

>  <BCUT_SLOGP_0>
-2.6629159

>  <BCUT_SLOGP_1>
-0.51204556

>  <BCUT_SLOGP_2>
0.46076041

>  <BCUT_SLOGP_3>
2.8504975

>  <BCUT_SMR_0>
-2.4599104

>  <BCUT_SMR_1>
-0.38694704

>  <BCUT_SMR_2>
0.62922436

>  <BCUT_SMR_3>
3.0741534

>  <bpol>
43.457867

>  <b_1rotN>
15

>  <b_1rotR>
0.55555558

>  <b_ar>
0

>  <b_count>
65

>  <b_double>
3

>  <b_heavy>
27

>  <b_max1len>
12

>  <b_rotN>
15

>  <b_rotR>
0.55555558

>  <b_single>
62

>  <b_triple>
0

>  <chi0>
20.070704

>  <chi0v>
16.814627

>  <chi0v_C>
14.656489

>  <chi0_C>
15.070704

>  <chi1>
12.951596

>  <chi1v>
10.698843

>  <chi1v_C>
9.5505896

>  <chi1_C>
10.064845

>  <chiral>
4

>  <chiral_u>
0

>  <density>
0.68376279

>  <diameter>
19

>  <FCharge>
0

>  <GCUT_PEOE_0>
-0.80261356

>  <GCUT_PEOE_1>
-0.40133452

>  <GCUT_PEOE_2>
0.066784844

>  <GCUT_PEOE_3>
2.915051

>  <GCUT_SLOGP_0>
-0.88452023

>  <GCUT_SLOGP_1>
-0.31588918

>  <GCUT_SLOGP_2>
0.024195861

>  <GCUT_SLOGP_3>
2.9719348

>  <GCUT_SMR_0>
-0.53938383

>  <GCUT_SMR_1>
-0.23418882

>  <GCUT_SMR_2>
0.19507223

>  <GCUT_SMR_3>
3.1311643

>  <Kier1>
25.037037

>  <Kier2>
14.921947

>  <Kier3>
10.939372

>  <KierA1>
22.66254

>  <KierA2>
13.452777

>  <KierA3>
9.8330564

>  <KierFlex>
11.291634

>  <lip_acc>
5

>  <lip_don>
3

>  <lip_druglike>
1

>  <lip_violation>
0

>  <logP(o/w)>
3.559

>  <logS>
-4.1785402

>  <mr>
10.823157

>  <mutagenic>
0

>  <nmol>
1

>  <opr_brigid>
6

>  <opr_leadlike>
1

>  <opr_nring>
1

>  <opr_nrot>
16

>  <opr_violation>
1

>  <PC+>
0

>  <PC->
0

>  <PEOE_PC+>
2.3393016

>  <PEOE_PC->
-2.3393016

>  <PEOE_RPC+>
0.1109721

>  <PEOE_RPC->
0.16732202

>  <PEOE_VSA+0>
158.3309

>  <PEOE_VSA+1>
26.871401

>  <PEOE_VSA+2>
8.458519

>  <PEOE_VSA+3>
0

>  <PEOE_VSA+4>
30.972517

>  <PEOE_VSA+5>
14.708499

>  <PEOE_VSA+6>
0

>  <PEOE_VSA-0>
52.207878

>  <PEOE_VSA-1>
78.062737

>  <PEOE_VSA-2>
0

>  <PEOE_VSA-3>
0

>  <PEOE_VSA-4>
0

>  <PEOE_VSA-5>
27.133842

>  <PEOE_VSA-6>
23.30262

>  <PEOE_VSA_FHYD>
0.7711755

>  <PEOE_VSA_FNEG>
0.43020484

>  <PEOE_VSA_FPNEG>
0.12007283

>  <PEOE_VSA_FPOL>
0.22882448

>  <PEOE_VSA_FPOS>
0.56979513

>  <PEOE_VSA_FPPOS>
0.10875166

>  <PEOE_VSA_HYD>
323.93146

>  <PEOE_VSA_NEG>
180.70708

>  <PEOE_VSA_PNEG>
50.436462

>  <PEOE_VSA_POL>
96.117477

>  <PEOE_VSA_POS>
239.34184

>  <PEOE_VSA_PPOS>
45.681019

>  <petitjean>
0.47368422

>  <petitjeanSC>
0.89999998

>  <Q_PC+>
0

>  <Q_PC->
0

>  <Q_RPC+>
0

>  <Q_RPC->
0

>  <Q_VSA_FHYD>
1

>  <Q_VSA_FNEG>
0

>  <Q_VSA_FPNEG>
0

>  <Q_VSA_FPOL>
0

>  <Q_VSA_FPOS>
1

>  <Q_VSA_FPPOS>
0

>  <Q_VSA_HYD>
420.04892

>  <Q_VSA_NEG>
0

>  <Q_VSA_PNEG>
0

>  <Q_VSA_POL>
0

>  <Q_VSA_POS>
420.04892

>  <Q_VSA_PPOS>
0

>  <radius>
10

>  <reactive>
1

>  <rings>
1

>  <RPC+>
0

>  <RPC->
0

>  <rsynth>
0

>  <SlogP>
4.2553

>  <SlogP_VSA0>
50.770454

>  <SlogP_VSA1>
13.433075

>  <SlogP_VSA2>
60.661732

>  <SlogP_VSA3>
25.385227

>  <SlogP_VSA4>
8.8215923

>  <SlogP_VSA5>
0

>  <SlogP_VSA6>
0

>  <SlogP_VSA7>
35.286369

>  <SlogP_VSA8>
245.28928

>  <SlogP_VSA9>
33.326015

>  <SMR>
10.64714

>  <SMR_VSA0>
47.724434

>  <SMR_VSA1>
50.770454

>  <SMR_VSA2>
34.206818

>  <SMR_VSA3>
12.937299

>  <SMR_VSA4>
0

>  <SMR_VSA5>
280.57565

>  <SMR_VSA6>
13.433075

>  <SMR_VSA7>
33.326015

>  <TPSA>
94.830002

>  <VAdjEq>
0.38094658

>  <VAdjMa>
5.7548876

>  <VDistEq>
3.9463825

>  <VDistMa>
9.1761637

>  <vdw_area>
420.04892

>  <vdw_vol>
559.46448

>  <vsa_acc>
13.566921

>  <vsa_acid>
0

>  <vsa_base>
0

>  <vsa_don>
0

>  <vsa_hyd>
287.87

>  <vsa_other>
23.167019

>  <vsa_pol>
67.834602

>  <Weight>
382.54099

>  <weinerPath>
2416

>  <weinerPol>
32

>  <zagreb>
120

$$$$