O=C1NC(=O)NC(=O)C1(CC(C)C)CC=C
  MOE2013           2D

 16 16  0  0  0  0  0  0  0  0999 V2000
    0.0000    0.0000    0.0000 O   0  0  0  0  0  0  0  0  0  0  0  0
    0.0000   -1.5000    0.0000 C   0  0  0  0  0  0  0  0  0  0  0  0
    1.2990   -2.2500    0.0000 N   0  0  0  0  0  0  0  0  0  0  0  0
    1.2990   -3.7500    0.0000 C   0  0  0  0  0  0  0  0  0  0  0  0
    2.5980   -4.5000    0.0000 O   0  0  0  0  0  0  0  0  0  0  0  0
    0.0000   -4.5000    0.0000 N   0  0  0  0  0  0  0  0  0  0  0  0
   -1.2990   -3.7500    0.0000 C   0  0  0  0  0  0  0  0  0  0  0  0
   -2.5980   -4.5000    0.0000 O   0  0  0  0  0  0  0  0  0  0  0  0
   -1.2990   -2.2500    0.0000 C   0  0  0  0  0  0  0  0  0  0  0  0
   -2.0490   -0.9510    0.0000 C   0  0  0  0  0  0  0  0  0  0  0  0
   -3.5490   -0.9510    0.0000 C   0  0  0  0  0  0  0  0  0  0  0  0
   -4.2990   -2.2500    0.0000 C   0  0  0  0  0  0  0  0  0  0  0  0
   -4.2990    0.3480    0.0000 C   0  0  0  0  0  0  0  0  0  0  0  0
   -2.7990   -2.2500    0.0000 C   0  0  0  0  0  0  0  0  0  0  0  0
   -3.5490   -3.5490    0.0000 C   0  0  0  0  0  0  0  0  0  0  0  0
   -5.0490   -3.5490    0.0000 C   0  0  0  0  0  0  0  0  0  0  0  0
  1  2  2  0  0  0  0
  2  3  1  0  0  0  0
  2  9  1  0  0  0  0
  3  4  1  0  0  0  0
  4  5  2  0  0  0  0
  4  6  1  0  0  0  0
  6  7  1  0  0  0  0
  7  8  2  0  0  0  0
  7  9  1  0  0  0  0
  9 10  1  0  0  0  0
  9 14  1  0  0  0  0
 10 11  1  0  0  0  0
 11 12  1  0  0  0  0
 11 13  1  0  0  0  0
 14 15  1  0  0  0  0
 15 16  2  0  0  0  0
M  END
>  <Index>
168

>  <ID>
HT0334

>  <class>
0

>  <apol>
34.634689

>  <ast_fraglike>
1

>  <ast_fraglike_ext>
0

>  <ast_violation>
0

>  <ast_violation_ext>
1

>  <a_acc>
3

>  <a_acid>
0

>  <a_aro>
0

>  <a_base>
0

>  <a_count>
32

>  <a_don>
2

>  <a_donacc>
5

>  <a_heavy>
16

>  <a_hyd>
8

>  <a_IC>
51.191364

>  <a_ICM>
1.5997301

>  <a_nB>
0

>  <a_nBr>
0

>  <a_nC>
11

>  <a_nCl>
0

>  <a_nF>
0

>  <a_nH>
16

>  <a_nI>
0

>  <a_nN>
2

>  <a_nO>
3

>  <a_nP>
0

>  <a_nS>
0

>  <balabanJ>
2.8831143

>  <BCUT_PEOE_0>
-2.6910677

>  <BCUT_PEOE_1>
-0.52306479

>  <BCUT_PEOE_2>
0.46526277

>  <BCUT_PEOE_3>
2.7375619

>  <BCUT_SLOGP_0>
-2.8000729

>  <BCUT_SLOGP_1>
-0.44296071

>  <BCUT_SLOGP_2>
0.53119171

>  <BCUT_SLOGP_3>
2.7505939

>  <BCUT_SMR_0>
-2.456655

>  <BCUT_SMR_1>
-0.31599969

>  <BCUT_SMR_2>
0.58571279

>  <BCUT_SMR_3>
2.9686055

>  <bpol>
21.685312

>  <b_1rotN>
4

>  <b_1rotR>
0.25

>  <b_ar>
0

>  <b_count>
32

>  <b_double>
4

>  <b_heavy>
16

>  <b_max1len>
7

>  <b_rotN>
4

>  <b_rotR>
0.25

>  <b_single>
28

>  <b_triple>
0

>  <chi0>
12.344935

>  <chi0v>
9.5007658

>  <chi0v_C>
7.276021

>  <chi0_C>
7.9307213

>  <chi1>
7.4195566

>  <chi1v>
5.1989245

>  <chi1v_C>
3.5865521

>  <chi1_C>
4.0545125

>  <chiral>
0

>  <chiral_u>
0

>  <density>
0.75020915

>  <diameter>
7

>  <FCharge>
0

>  <GCUT_PEOE_0>
-0.79602224

>  <GCUT_PEOE_1>
-0.4278411

>  <GCUT_PEOE_2>
0.084642276

>  <GCUT_PEOE_3>
2.6206355

>  <GCUT_SLOGP_0>
-1.1839302

>  <GCUT_SLOGP_1>
-0.32455727

>  <GCUT_SLOGP_2>
0.10659591

>  <GCUT_SLOGP_3>
2.6107187

>  <GCUT_SMR_0>
-0.53274667

>  <GCUT_SMR_1>
-0.21793094

>  <GCUT_SMR_2>
0.16168179

>  <GCUT_SMR_3>
2.8458354

>  <Kier1>
14.0625

>  <Kier2>
5.5576558

>  <Kier3>
3.0297265

>  <KierA1>
10.322754

>  <KierA2>
3.9874763

>  <KierA3>
2.1365933

>  <KierFlex>
2.5726085

>  <lip_acc>
5

>  <lip_don>
2

>  <lip_druglike>
1

>  <lip_violation>
0

>  <logP(o/w)>
1.48

>  <logS>
-3.0367501

>  <mr>
5.9697442

>  <mutagenic>
0

>  <nmol>
1

>  <opr_brigid>
7

>  <opr_leadlike>
1

>  <opr_nring>
1

>  <opr_nrot>
4

>  <opr_violation>
0

>  <PC+>
0

>  <PC->
0

>  <PEOE_PC+>
1.7477752

>  <PEOE_PC->
-1.7477752

>  <PEOE_RPC+>
0.18824245

>  <PEOE_RPC->
0.15890686

>  <PEOE_VSA+0>
46.919247

>  <PEOE_VSA+1>
12.796158

>  <PEOE_VSA+2>
0

>  <PEOE_VSA+3>
17.238026

>  <PEOE_VSA+4>
25.899061

>  <PEOE_VSA+5>
0

>  <PEOE_VSA+6>
17.440542

>  <PEOE_VSA-0>
17.402626

>  <PEOE_VSA-1>
49.750259

>  <PEOE_VSA-2>
22.301268

>  <PEOE_VSA-3>
0

>  <PEOE_VSA-4>
13.566921

>  <PEOE_VSA-5>
27.407623

>  <PEOE_VSA-6>
0

>  <PEOE_VSA_FHYD>
0.66371423

>  <PEOE_VSA_FNEG>
0.52021295

>  <PEOE_VSA_FPNEG>
0.16342638

>  <PEOE_VSA_FPOL>
0.33628577

>  <PEOE_VSA_FPOS>
0.47978702

>  <PEOE_VSA_FPPOS>
0.17285939

>  <PEOE_VSA_HYD>
166.40758

>  <PEOE_VSA_NEG>
130.4287

>  <PEOE_VSA_PNEG>
40.974545

>  <PEOE_VSA_POL>
84.314148

>  <PEOE_VSA_POS>
120.29304

>  <PEOE_VSA_PPOS>
43.339603

>  <petitjean>
0.42857143

>  <petitjeanSC>
0.75

>  <Q_PC+>
0

>  <Q_PC->
0

>  <Q_RPC+>
0

>  <Q_RPC->
0

>  <Q_VSA_FHYD>
1

>  <Q_VSA_FNEG>
0

>  <Q_VSA_FPNEG>
0

>  <Q_VSA_FPOL>
0

>  <Q_VSA_FPOS>
1

>  <Q_VSA_FPPOS>
0

>  <Q_VSA_HYD>
250.72173

>  <Q_VSA_NEG>
0

>  <Q_VSA_PNEG>
0

>  <Q_VSA_POL>
0

>  <Q_VSA_POS>
250.72173

>  <Q_VSA_PPOS>
0

>  <radius>
4

>  <reactive>
0

>  <rings>
1

>  <RPC+>
0

>  <RPC->
0

>  <rsynth>
1

>  <SlogP>
0.96100003

>  <SlogP_VSA0>
36.0215

>  <SlogP_VSA1>
15.347524

>  <SlogP_VSA2>
47.724434

>  <SlogP_VSA3>
0

>  <SlogP_VSA4>
4.4107962

>  <SlogP_VSA5>
0

>  <SlogP_VSA6>
0

>  <SlogP_VSA7>
17.643185

>  <SlogP_VSA8>
37.736813

>  <SlogP_VSA9>
122.61504

>  <SMR>
5.8383398

>  <SMR_VSA0>
71.586647

>  <SMR_VSA1>
0

>  <SMR_VSA2>
40.432297

>  <SMR_VSA3>
0

>  <SMR_VSA4>
0

>  <SMR_VSA5>
55.379993

>  <SMR_VSA6>
15.347524

>  <SMR_VSA7>
98.752823

>  <TPSA>
75.269997

>  <VAdjEq>
0.54356444

>  <VAdjMa>
5

>  <VDistEq>
2.593709

>  <VDistMa>
7.746243

>  <vdw_area>
250.72173

>  <vdw_vol>
298.92996

>  <vsa_acc>
40.700764

>  <vsa_acid>
0

>  <vsa_base>
0

>  <vsa_don>
11.365152

>  <vsa_hyd>
137.85938

>  <vsa_other>
43.339603

>  <vsa_pol>
52.065914

>  <Weight>
224.25999

>  <weinerPath>
402

>  <weinerPol>
26

>  <zagreb>
78

$$$$