O1C[C@@H](O)[C@H](O)[C@@H](O)C1O
  MOE2013           2D

 10 10  0  0  1  0  0  0  0  0999 V2000
    0.0000    0.0000    0.0000 O   0  0  0  0  0  0  0  0  0  0  0  0
    1.5000    0.0000    0.0000 C   0  0  0  0  0  0  0  0  0  0  0  0
    2.2500    1.2990    0.0000 C   0  0  1  0  0  0  0  0  0  0  0  0
    3.7500    1.2990    0.0000 O   0  0  0  0  0  0  0  0  0  0  0  0
    1.5000    2.5980    0.0000 C   0  0  2  0  0  0  0  0  0  0  0  0
    2.2500    3.8970    0.0000 O   0  0  0  0  0  0  0  0  0  0  0  0
    0.0000    2.5980    0.0000 C   0  0  1  0  0  0  0  0  0  0  0  0
   -0.7500    3.8970    0.0000 O   0  0  0  0  0  0  0  0  0  0  0  0
   -0.7500    1.2990    0.0000 C   0  0  3  0  0  0  0  0  0  0  0  0
   -2.2500    1.2990    0.0000 O   0  0  0  0  0  0  0  0  0  0  0  0
  1  2  1  0  0  0  0
  1  9  1  0  0  0  0
  2  3  1  0  0  0  0
  3  4  1  6  0  0  0
  3  5  1  0  0  0  0
  5  6  1  1  0  0  0
  5  7  1  0  0  0  0
  7  8  1  6  0  0  0
  7  9  1  0  0  0  0
  9 10  1  0  0  0  0
M  END
>  <Index>
1157

>  <ID>
HT2204

>  <class>
0

>  <apol>
19.47793

>  <ast_fraglike>
0

>  <ast_fraglike_ext>
0

>  <ast_violation>
2

>  <ast_violation_ext>
2

>  <a_acc>
5

>  <a_acid>
0

>  <a_aro>
0

>  <a_base>
0

>  <a_count>
20

>  <a_don>
4

>  <a_donacc>
9

>  <a_heavy>
10

>  <a_hyd>
4

>  <a_IC>
30

>  <a_ICM>
1.5

>  <a_nB>
0

>  <a_nBr>
0

>  <a_nC>
5

>  <a_nCl>
0

>  <a_nF>
0

>  <a_nH>
10

>  <a_nI>
0

>  <a_nN>
0

>  <a_nO>
5

>  <a_nP>
0

>  <a_nS>
0

>  <balabanJ>
2.515836

>  <BCUT_PEOE_0>
-2.6760626

>  <BCUT_PEOE_1>
-0.66597587

>  <BCUT_PEOE_2>
0.7288003

>  <BCUT_PEOE_3>
2.7423208

>  <BCUT_SLOGP_0>
-2.8732803

>  <BCUT_SLOGP_1>
-0.82623827

>  <BCUT_SLOGP_2>
0.52768588

>  <BCUT_SLOGP_3>
2.5330594

>  <BCUT_SMR_0>
-2.4783354

>  <BCUT_SMR_1>
-0.54299432

>  <BCUT_SMR_2>
0.80717778

>  <BCUT_SMR_3>
2.9216495

>  <bpol>
12.84807

>  <b_1rotN>
0

>  <b_1rotR>
0

>  <b_ar>
0

>  <b_count>
20

>  <b_double>
0

>  <b_heavy>
10

>  <b_max1len>
3

>  <b_rotN>
0

>  <b_rotR>
0

>  <b_single>
20

>  <b_triple>
0

>  <chi0>
7.7236147

>  <chi0v>
5.2136106

>  <chi0v_C>
3.0165079

>  <chi0_C>
3.0165079

>  <chi1>
4.6258979

>  <chi1v>
2.9654212

>  <chi1v_C>
1.4082483

>  <chi1_C>
1.4082483

>  <chiral>
4

>  <chiral_u>
1

>  <density>
0.8995415

>  <diameter>
5

>  <FCharge>
0

>  <GCUT_PEOE_0>
-0.78514647

>  <GCUT_PEOE_1>
-0.43365067

>  <GCUT_PEOE_2>
0.18981163

>  <GCUT_PEOE_3>
2.33427

>  <GCUT_SLOGP_0>
-0.95264357

>  <GCUT_SLOGP_1>
-0.6033603

>  <GCUT_SLOGP_2>
-0.0093430085

>  <GCUT_SLOGP_3>
2.1731837

>  <GCUT_SMR_0>
-0.52349943

>  <GCUT_SMR_1>
-0.27909017

>  <GCUT_SMR_2>
0.2193087

>  <GCUT_SMR_3>
2.5093954

>  <Kier1>
8.1000004

>  <Kier2>
2.9387755

>  <Kier3>
1.550173

>  <KierA1>
8.1000004

>  <KierA2>
2.9387755

>  <KierA3>
1.550173

>  <KierFlex>
2.380408

>  <lip_acc>
5

>  <lip_don>
4

>  <lip_druglike>
1

>  <lip_violation>
0

>  <logP(o/w)>
-2.359

>  <logS>
1.04741

>  <mr>
3.036833

>  <mutagenic>
0

>  <nmol>
1

>  <opr_brigid>
6

>  <opr_leadlike>
1

>  <opr_nring>
1

>  <opr_nrot>
2

>  <opr_violation>
0

>  <PC+>
0

>  <PC->
0

>  <PEOE_PC+>
1.8685102

>  <PEOE_PC->
-1.8685102

>  <PEOE_RPC+>
0.11375954

>  <PEOE_RPC->
0.20704122

>  <PEOE_VSA+0>
0

>  <PEOE_VSA+1>
40.54361

>  <PEOE_VSA+2>
14.714787

>  <PEOE_VSA+3>
11.154908

>  <PEOE_VSA+4>
41.296692

>  <PEOE_VSA+5>
0

>  <PEOE_VSA+6>
0

>  <PEOE_VSA-0>
0

>  <PEOE_VSA-1>
0

>  <PEOE_VSA-2>
0

>  <PEOE_VSA-3>
0

>  <PEOE_VSA-4>
0

>  <PEOE_VSA-5>
0

>  <PEOE_VSA-6>
33.573917

>  <PEOE_VSA_FHYD>
0.47006983

>  <PEOE_VSA_FNEG>
0.23763439

>  <PEOE_VSA_FPNEG>
0.23763439

>  <PEOE_VSA_FPOL>
0.52993017

>  <PEOE_VSA_FPOS>
0.76236558

>  <PEOE_VSA_FPPOS>
0.29229578

>  <PEOE_VSA_HYD>
66.413307

>  <PEOE_VSA_NEG>
33.573917

>  <PEOE_VSA_PNEG>
33.573917

>  <PEOE_VSA_POL>
74.870605

>  <PEOE_VSA_POS>
107.70999

>  <PEOE_VSA_PPOS>
41.296692

>  <petitjean>
0.40000001

>  <petitjeanSC>
0.66666669

>  <Q_PC+>
0

>  <Q_PC->
0

>  <Q_RPC+>
0

>  <Q_RPC->
0

>  <Q_VSA_FHYD>
1

>  <Q_VSA_FNEG>
0

>  <Q_VSA_FPNEG>
0

>  <Q_VSA_FPOL>
0

>  <Q_VSA_FPOS>
1

>  <Q_VSA_FPPOS>
0

>  <Q_VSA_HYD>
141.28391

>  <Q_VSA_NEG>
0

>  <Q_VSA_PNEG>
0

>  <Q_VSA_POL>
0

>  <Q_VSA_POS>
141.28391

>  <Q_VSA_PPOS>
0

>  <radius>
3

>  <reactive>
1

>  <rings>
1

>  <RPC+>
0

>  <RPC->
0

>  <rsynth>
1

>  <SlogP>
-2.5822999

>  <SlogP_VSA0>
101.54091

>  <SlogP_VSA1>
0

>  <SlogP_VSA2>
38.932339

>  <SlogP_VSA3>
20.926258

>  <SlogP_VSA4>
0

>  <SlogP_VSA5>
0

>  <SlogP_VSA6>
0

>  <SlogP_VSA7>
0

>  <SlogP_VSA8>
0

>  <SlogP_VSA9>
0

>  <SMR>
2.99792

>  <SMR_VSA0>
10.999887

>  <SMR_VSA1>
101.54091

>  <SMR_VSA2>
0

>  <SMR_VSA3>
27.932449

>  <SMR_VSA4>
0

>  <SMR_VSA5>
0

>  <SMR_VSA6>
20.926258

>  <SMR_VSA7>
0

>  <TPSA>
90.150002

>  <VAdjEq>
0.72192812

>  <VAdjMa>
4.321928

>  <VDistEq>
2.0399644

>  <VDistMa>
6.3537068

>  <vdw_area>
141.28391

>  <vdw_vol>
166.89613

>  <vsa_acc>
2.503756

>  <vsa_acid>
0

>  <vsa_base>
0

>  <vsa_don>
0

>  <vsa_hyd>
47.434032

>  <vsa_other>
14.708499

>  <vsa_pol>
56.771439

>  <Weight>
150.12999

>  <weinerPath>
109

>  <weinerPol>
14

>  <zagreb>
48

$$$$