O1C(C)C(O)C(O)C(O)C1OC1CCC2(C3C(CCC2=C1)C1(O)CCC(C1(CC3)C)C=1C=CC(OC=1)=O)C
  MOE2013           2D

 38 43  0  0  1  0  0  0  0  0999 V2000
    0.0000    0.0000    0.0000 O   0  0  0  0  0  0  0  0  0  0  0  0
    1.3010    0.7470    0.0000 C   0  0  3  0  0  0  0  0  0  0  0  0
    1.3040    2.2470    0.0000 C   0  0  0  0  0  0  0  0  0  0  0  0
    2.5980   -0.0050    0.0000 C   0  0  3  0  0  0  0  0  0  0  0  0
    3.8990    0.7420    0.0000 O   0  0  0  0  0  0  0  0  0  0  0  0
    2.5950   -1.5050    0.0000 C   0  0  3  0  0  0  0  0  0  0  0  0
    3.8920   -2.2580    0.0000 O   0  0  0  0  0  0  0  0  0  0  0  0
    1.2940   -2.2530    0.0000 C   0  0  3  0  0  0  0  0  0  0  0  0
    1.2910   -3.7530    0.0000 O   0  0  0  0  0  0  0  0  0  0  0  0
   -0.0030   -1.5000    0.0000 C   0  0  3  0  0  0  0  0  0  0  0  0
   -1.3040   -2.2470    0.0000 O   0  0  0  0  0  0  0  0  0  0  0  0
   -2.6010   -1.4950    0.0000 C   0  0  3  0  0  0  0  0  0  0  0  0
   -2.5980    0.0050    0.0000 C   0  0  0  0  0  0  0  0  0  0  0  0
   -3.8960    0.7580    0.0000 C   0  0  0  0  0  0  0  0  0  0  0  0
   -5.1960    0.0110    0.0000 C   0  0  3  0  0  0  0  0  0  0  0  0
   -6.4940    0.7640    0.0000 C   0  0  3  0  0  0  0  0  0  0  0  0
   -7.7940    0.0160    0.0000 C   0  0  3  0  0  0  0  0  0  0  0  0
   -7.7970   -1.4840    0.0000 C   0  0  0  0  0  0  0  0  0  0  0  0
   -6.5000   -2.2360    0.0000 C   0  0  0  0  0  0  0  0  0  0  0  0
   -5.1990   -1.4890    0.0000 C   0  0  0  0  0  0  0  0  0  0  0  0
   -3.9020   -2.2420    0.0000 C   0  0  0  0  0  0  0  0  0  0  0  0
   -9.0920    0.7690    0.0000 C   0  0  3  0  0  0  0  0  0  0  0  0
   -9.1990   -0.7270    0.0000 O   0  0  0  0  0  0  0  0  0  0  0  0
  -10.5190    0.3080    0.0000 C   0  0  0  0  0  0  0  0  0  0  0  0
  -11.3980    1.5240    0.0000 C   0  0  0  0  0  0  0  0  0  0  0  0
  -10.5140    2.7360    0.0000 C   0  0  3  0  0  0  0  0  0  0  0  0
   -9.0890    2.2690    0.0000 C   0  0  3  0  0  0  0  0  0  0  0  0
   -7.7880    3.0160    0.0000 C   0  0  0  0  0  0  0  0  0  0  0  0
   -6.4900    2.2640    0.0000 C   0  0  0  0  0  0  0  0  0  0  0  0
   -9.2420    3.7610    0.0000 C   0  0  0  0  0  0  0  0  0  0  0  0
  -10.9750    4.1630    0.0000 C   0  0  0  0  0  0  0  0  0  0  0  0
  -12.4410    4.4780    0.0000 C   0  0  0  0  0  0  0  0  0  0  0  0
  -12.9020    5.9060    0.0000 C   0  0  0  0  0  0  0  0  0  0  0  0
  -11.8960    7.0180    0.0000 C   0  0  0  0  0  0  0  0  0  0  0  0
  -10.4290    6.7030    0.0000 O   0  0  0  0  0  0  0  0  0  0  0  0
   -9.9690    5.2760    0.0000 C   0  0  0  0  0  0  0  0  0  0  0  0
  -12.3560    8.4460    0.0000 O   0  0  0  0  0  0  0  0  0  0  0  0
   -5.2190    1.5110    0.0000 C   0  0  0  0  0  0  0  0  0  0  0  0
  1  2  1  0  0  0  0
  1 10  1  0  0  0  0
  2  3  1  0  0  0  0
  2  4  1  0  0  0  0
  4  5  1  0  0  0  0
  4  6  1  0  0  0  0
  6  7  1  0  0  0  0
  6  8  1  0  0  0  0
  8  9  1  0  0  0  0
  8 10  1  0  0  0  0
 10 11  1  0  0  0  0
 11 12  1  0  0  0  0
 12 13  1  0  0  0  0
 12 21  1  0  0  0  0
 13 14  1  0  0  0  0
 14 15  1  0  0  0  0
 15 16  1  0  0  0  0
 15 20  1  0  0  0  0
 15 38  1  0  0  0  0
 16 17  1  0  0  0  0
 16 29  1  0  0  0  0
 17 18  1  0  0  0  0
 17 22  1  0  0  0  0
 18 19  1  0  0  0  0
 19 20  1  0  0  0  0
 20 21  2  0  0  0  0
 22 23  1  0  0  0  0
 22 24  1  0  0  0  0
 22 27  1  0  0  0  0
 24 25  1  0  0  0  0
 25 26  1  0  0  0  0
 26 27  1  0  0  0  0
 26 31  1  0  0  0  0
 27 28  1  0  0  0  0
 27 30  1  0  0  0  0
 28 29  1  0  0  0  0
 31 32  1  0  0  0  0
 31 36  2  0  0  0  0
 32 33  2  0  0  0  0
 33 34  1  0  0  0  0
 34 35  1  0  0  0  0
 34 37  2  0  0  0  0
 35 36  1  0  0  0  0
M  END
>  <Index>
1394

>  <ID>
HT3908

>  <class>
0

>  <apol>
87.221306

>  <ast_fraglike>
0

>  <ast_fraglike_ext>
0

>  <ast_violation>
3

>  <ast_violation_ext>
5

>  <a_acc>
7

>  <a_acid>
0

>  <a_aro>
0

>  <a_base>
0

>  <a_count>
80

>  <a_don>
4

>  <a_donacc>
11

>  <a_heavy>
38

>  <a_hyd>
28

>  <a_IC>
108.0702

>  <a_ICM>
1.3508775

>  <a_nB>
0

>  <a_nBr>
0

>  <a_nC>
30

>  <a_nCl>
0

>  <a_nF>
0

>  <a_nH>
42

>  <a_nI>
0

>  <a_nN>
0

>  <a_nO>
8

>  <a_nP>
0

>  <a_nS>
0

>  <balabanJ>
1.138483

>  <BCUT_PEOE_0>
-2.9475772

>  <BCUT_PEOE_1>
-0.52195108

>  <BCUT_PEOE_2>
0.5972513

>  <BCUT_PEOE_3>
2.9730551

>  <BCUT_SLOGP_0>
-2.905231

>  <BCUT_SLOGP_1>
-0.51716179

>  <BCUT_SLOGP_2>
0.53512776

>  <BCUT_SLOGP_3>
3.0310843

>  <BCUT_SMR_0>
-2.6961081

>  <BCUT_SMR_1>
-0.39130703

>  <BCUT_SMR_2>
0.70506698

>  <BCUT_SMR_3>
3.221348

>  <bpol>
52.620693

>  <b_1rotN>
3

>  <b_1rotR>
0.069767445

>  <b_ar>
0

>  <b_count>
85

>  <b_double>
4

>  <b_heavy>
43

>  <b_max1len>
4

>  <b_rotN>
3

>  <b_rotR>
0.069767445

>  <b_single>
81

>  <b_triple>
0

>  <chi0>
27.034805

>  <chi0v>
22.584255

>  <chi0v_C>
19.162407

>  <chi0_C>
19.913485

>  <chi1>
17.975836

>  <chi1v>
14.352255

>  <chi1v_C>
11.767291

>  <chi1_C>
12.625194

>  <chiral>
12

>  <chiral_u>
12

>  <density>
0.74432176

>  <diameter>
19

>  <FCharge>
0

>  <GCUT_PEOE_0>
-0.80268067

>  <GCUT_PEOE_1>
-0.40189719

>  <GCUT_PEOE_2>
0.070087373

>  <GCUT_PEOE_3>
3.4641635

>  <GCUT_SLOGP_0>
-0.95184451

>  <GCUT_SLOGP_1>
-0.35050243

>  <GCUT_SLOGP_2>
0.0052557029

>  <GCUT_SLOGP_3>
3.5312872

>  <GCUT_SMR_0>
-0.53750092

>  <GCUT_SMR_1>
-0.21815172

>  <GCUT_SMR_2>
0.16328022

>  <GCUT_SMR_3>
3.689115

>  <Kier1>
28.135208

>  <Kier2>
10.071834

>  <Kier3>
4.3598614

>  <KierA1>
25.76306

>  <KierA2>
9.1999741

>  <KierA3>
3.9756117

>  <KierFlex>
6.2373548

>  <lip_acc>
8

>  <lip_don>
4

>  <lip_druglike>
1

>  <lip_violation>
1

>  <logP(o/w)>
2.3740001

>  <logS>
-4.8920102

>  <mr>
13.806783

>  <mutagenic>
0

>  <nmol>
1

>  <opr_brigid>
32

>  <opr_leadlike>
0

>  <opr_nring>
6

>  <opr_nrot>
5

>  <opr_violation>
2

>  <PC+>
0

>  <PC->
0

>  <PEOE_PC+>
3.4537175

>  <PEOE_PC->
-3.4537175

>  <PEOE_RPC+>
0.0842629

>  <PEOE_RPC->
0.11226472

>  <PEOE_VSA+0>
131.68571

>  <PEOE_VSA+1>
70.968605

>  <PEOE_VSA+2>
14.714787

>  <PEOE_VSA+3>
11.154908

>  <PEOE_VSA+4>
41.296692

>  <PEOE_VSA+5>
14.708499

>  <PEOE_VSA+6>
0

>  <PEOE_VSA-0>
90.566727

>  <PEOE_VSA-1>
64.213699

>  <PEOE_VSA-2>
0

>  <PEOE_VSA-3>
0

>  <PEOE_VSA-4>
0

>  <PEOE_VSA-5>
16.070677

>  <PEOE_VSA-6>
36.077675

>  <PEOE_VSA_FHYD>
0.77993327

>  <PEOE_VSA_FNEG>
0.42105082

>  <PEOE_VSA_FPNEG>
0.10610948

>  <PEOE_VSA_FPOL>
0.22006671

>  <PEOE_VSA_FPOS>
0.57894921

>  <PEOE_VSA_FPPOS>
0.11395723

>  <PEOE_VSA_HYD>
383.30444

>  <PEOE_VSA_NEG>
206.92877

>  <PEOE_VSA_PNEG>
52.14835

>  <PEOE_VSA_POL>
108.15354

>  <PEOE_VSA_POS>
284.52921

>  <PEOE_VSA_PPOS>
56.005188

>  <petitjean>
0.47368422

>  <petitjeanSC>
0.89999998

>  <Q_PC+>
0

>  <Q_PC->
0

>  <Q_RPC+>
0

>  <Q_RPC->
0

>  <Q_VSA_FHYD>
1

>  <Q_VSA_FNEG>
0

>  <Q_VSA_FPNEG>
0

>  <Q_VSA_FPOL>
0

>  <Q_VSA_FPOS>
1

>  <Q_VSA_FPPOS>
0

>  <Q_VSA_HYD>
491.45798

>  <Q_VSA_NEG>
0

>  <Q_VSA_PNEG>
0

>  <Q_VSA_POL>
0

>  <Q_VSA_POS>
491.45798

>  <Q_VSA_PPOS>
0

>  <radius>
10

>  <reactive>
1

>  <rings>
6

>  <RPC+>
0

>  <RPC->
0

>  <rsynth>
0.44736841

>  <SlogP>
2.8899

>  <SlogP_VSA0>
101.54091

>  <SlogP_VSA1>
7.7454643

>  <SlogP_VSA2>
97.731628

>  <SlogP_VSA3>
0

>  <SlogP_VSA4>
13.232388

>  <SlogP_VSA5>
6.37115

>  <SlogP_VSA6>
0

>  <SlogP_VSA7>
72.630592

>  <SlogP_VSA8>
150.94725

>  <SlogP_VSA9>
99.978043

>  <SMR>
13.71962

>  <SMR_VSA0>
56.861881

>  <SMR_VSA1>
101.54091

>  <SMR_VSA2>
13.232388

>  <SMR_VSA3>
47.240898

>  <SMR_VSA4>
0

>  <SMR_VSA5>
223.57784

>  <SMR_VSA6>
7.7454643

>  <SMR_VSA7>
99.978043

>  <TPSA>
125.68

>  <VAdjEq>
0.325683

>  <VAdjMa>
6.4262648

>  <VDistEq>
3.9191926

>  <VDistMa>
10.176345

>  <vdw_area>
491.45798

>  <vdw_vol>
712.94165

>  <vsa_acc>
18.574432

>  <vsa_acid>
0

>  <vsa_base>
0

>  <vsa_don>
0

>  <vsa_hyd>
337.51257

>  <vsa_other>
31.920755

>  <vsa_pol>
72.842117

>  <Weight>
530.65796

>  <weinerPath>
4759

>  <weinerPol>
82

>  <zagreb>
224

$$$$