S1[C@H]2N([C@@H](C(O)=O)C1(C)C)C(=O)[C@H]2NC(=O)C(C(O)=O)c1ccccc1
  MOE2013           2D

 26 28  0  0  1  0  0  0  0  0999 V2000
    0.0000    0.0000    0.0000 S   0  0  0  0  0  0  0  0  0  0  0  0
    1.1340    0.9820    0.0000 C   0  0  1  0  0  0  0  0  0  0  0  0
    0.5500    2.3640    0.0000 N   0  0  0  0  0  0  0  0  0  0  0  0
   -0.9450    2.2360    0.0000 C   0  0  1  0  0  0  0  0  0  0  0  0
   -1.9270    3.3690    0.0000 C   0  0  0  0  0  0  0  0  0  0  0  0
   -3.4000    3.0860    0.0000 O   0  0  0  0  0  0  0  0  0  0  0  0
   -1.4360    4.7870    0.0000 O   0  0  0  0  0  0  0  0  0  0  0  0
   -1.2840    0.7750    0.0000 C   0  0  0  0  0  0  0  0  0  0  0  0
   -2.1580   -0.4450    0.0000 C   0  0  0  0  0  0  0  0  0  0  0  0
   -2.7680    0.9990    0.0000 C   0  0  0  0  0  0  0  0  0  0  0  0
    1.9320    2.9480    0.0000 C   0  0  0  0  0  0  0  0  0  0  0  0
    2.4960    4.3380    0.0000 O   0  0  0  0  0  0  0  0  0  0  0  0
    2.5150    1.5660    0.0000 C   0  0  1  0  0  0  0  0  0  0  0  0
    3.9050    1.0020    0.0000 N   0  0  0  0  0  0  0  0  0  0  0  0
    5.0890    1.9230    0.0000 C   0  0  0  0  0  0  0  0  0  0  0  0
    4.8830    3.4090    0.0000 O   0  0  0  0  0  0  0  0  0  0  0  0
    6.4790    1.3590    0.0000 C   0  0  3  0  0  0  0  0  0  0  0  0
    6.6850   -0.1270    0.0000 C   0  0  0  0  0  0  0  0  0  0  0  0
    8.0750   -0.6910    0.0000 O   0  0  0  0  0  0  0  0  0  0  0  0
    5.5010   -1.0480    0.0000 O   0  0  0  0  0  0  0  0  0  0  0  0
    7.6620    2.2800    0.0000 C   0  0  0  0  0  0  0  0  0  0  0  0
    9.0520    1.7160    0.0000 C   0  0  0  0  0  0  0  0  0  0  0  0
   10.2360    2.6380    0.0000 C   0  0  0  0  0  0  0  0  0  0  0  0
   10.0290    4.1230    0.0000 C   0  0  0  0  0  0  0  0  0  0  0  0
    8.6400    4.6880    0.0000 C   0  0  0  0  0  0  0  0  0  0  0  0
    7.4560    3.7660    0.0000 C   0  0  0  0  0  0  0  0  0  0  0  0
  1  8  1  0  0  0  0
  2  1  1  1  0  0  0
  2  3  1  0  0  0  0
  2 13  1  0  0  0  0
  3  4  1  0  0  0  0
  3 11  1  0  0  0  0
  4  5  1  6  0  0  0
  4  8  1  0  0  0  0
  5  6  1  0  0  0  0
  5  7  2  0  0  0  0
  8  9  1  0  0  0  0
  8 10  1  0  0  0  0
 11 12  2  0  0  0  0
 11 13  1  0  0  0  0
 13 14  1  1  0  0  0
 14 15  1  0  0  0  0
 15 16  2  0  0  0  0
 15 17  1  0  0  0  0
 17 18  1  0  0  0  0
 17 21  1  0  0  0  0
 18 19  1  0  0  0  0
 18 20  2  0  0  0  0
 21 22  1  0  0  0  0
 21 26  2  0  0  0  0
 22 23  2  0  0  0  0
 23 24  1  0  0  0  0
 24 25  2  0  0  0  0
 25 26  1  0  0  0  0
M  END
>  <Index>
187

>  <ID>
HT0373

>  <class>
0

>  <apol>
51.834274

>  <ast_fraglike>
0

>  <ast_fraglike_ext>
0

>  <ast_violation>
3

>  <ast_violation_ext>
5

>  <a_acc>
6

>  <a_acid>
0

>  <a_aro>
6

>  <a_base>
0

>  <a_count>
44

>  <a_don>
5

>  <a_donacc>
11

>  <a_heavy>
26

>  <a_hyd>
14

>  <a_IC>
78.159698

>  <a_ICM>
1.7763568

>  <a_nB>
0

>  <a_nBr>
0

>  <a_nC>
17

>  <a_nCl>
0

>  <a_nF>
0

>  <a_nH>
18

>  <a_nI>
0

>  <a_nN>
2

>  <a_nO>
6

>  <a_nP>
0

>  <a_nS>
1

>  <balabanJ>
1.6719244

>  <BCUT_PEOE_0>
-2.6446187

>  <BCUT_PEOE_1>
-0.54276305

>  <BCUT_PEOE_2>
0.5641247

>  <BCUT_PEOE_3>
2.8506131

>  <BCUT_SLOGP_0>
-2.9002562

>  <BCUT_SLOGP_1>
-0.51740003

>  <BCUT_SLOGP_2>
0.59041977

>  <BCUT_SLOGP_3>
2.7545471

>  <BCUT_SMR_0>
-2.3908796

>  <BCUT_SMR_1>
-0.36788672

>  <BCUT_SMR_2>
0.76099563

>  <BCUT_SMR_3>
3.131305

>  <bpol>
28.429726

>  <b_1rotN>
5

>  <b_1rotR>
0.17857143

>  <b_ar>
6

>  <b_count>
46

>  <b_double>
4

>  <b_heavy>
28

>  <b_max1len>
4

>  <b_rotN>
6

>  <b_rotR>
0.21428572

>  <b_single>
36

>  <b_triple>
0

>  <chi0>
19.223249

>  <chi0v>
14.895532

>  <chi0v_C>
10.196153

>  <chi0_C>
11.231687

>  <chi1>
12.147572

>  <chi1v>
8.8379364

>  <chi1v_C>
4.9760675

>  <chi1_C>
6.1051717

>  <chiral>
4

>  <chiral_u>
1

>  <density>
0.84440643

>  <diameter>
12

>  <FCharge>
0

>  <GCUT_PEOE_0>
-0.83761287

>  <GCUT_PEOE_1>
-0.42914298

>  <GCUT_PEOE_2>
0.074255437

>  <GCUT_PEOE_3>
2.728411

>  <GCUT_SLOGP_0>
-1.1647658

>  <GCUT_SLOGP_1>
-0.42472994

>  <GCUT_SLOGP_2>
0.11614056

>  <GCUT_SLOGP_3>
2.673748

>  <GCUT_SMR_0>
-0.53657252

>  <GCUT_SMR_1>
-0.22796018

>  <GCUT_SMR_2>
0.1979862

>  <GCUT_SMR_3>
2.9906173

>  <Kier1>
20.727041

>  <Kier2>
7.7879934

>  <Kier3>
3.8058028

>  <KierA1>
16.933887

>  <KierA2>
6.3081937

>  <KierA3>
3.0637188

>  <KierFlex>
4.1085477

>  <lip_acc>
8

>  <lip_don>
3

>  <lip_druglike>
1

>  <lip_violation>
0

>  <logP(o/w)>
0.98699999

>  <logS>
-3.3500099

>  <mr>
9.4027786

>  <mutagenic>
0

>  <nmol>
1

>  <opr_brigid>
14

>  <opr_leadlike>
1

>  <opr_nring>
3

>  <opr_nrot>
5

>  <opr_violation>
0

>  <PC+>
0

>  <PC->
0

>  <PEOE_PC+>
2.929776

>  <PEOE_PC->
-2.929776

>  <PEOE_RPC+>
0.096859455

>  <PEOE_RPC->
0.11647943

>  <PEOE_VSA+0>
25.592316

>  <PEOE_VSA+1>
38.388474

>  <PEOE_VSA+2>
11.413943

>  <PEOE_VSA+3>
8.6190128

>  <PEOE_VSA+4>
33.597878

>  <PEOE_VSA+5>
42.366531

>  <PEOE_VSA+6>
0

>  <PEOE_VSA-0>
39.703896

>  <PEOE_VSA-1>
61.274521

>  <PEOE_VSA-2>
19.760618

>  <PEOE_VSA-3>
0

>  <PEOE_VSA-4>
0

>  <PEOE_VSA-5>
54.267685

>  <PEOE_VSA-6>
15.671971

>  <PEOE_VSA_FHYD>
0.58391213

>  <PEOE_VSA_FNEG>
0.54377574

>  <PEOE_VSA_FPNEG>
0.19945328

>  <PEOE_VSA_FPOL>
0.41608787

>  <PEOE_VSA_FPOS>
0.45622423

>  <PEOE_VSA_FPPOS>
0.2166346

>  <PEOE_VSA_HYD>
204.75278

>  <PEOE_VSA_NEG>
190.67868

>  <PEOE_VSA_PNEG>
69.939651

>  <PEOE_VSA_POL>
145.90407

>  <PEOE_VSA_POS>
159.97815

>  <PEOE_VSA_PPOS>
75.964409

>  <petitjean>
0.5

>  <petitjeanSC>
1

>  <Q_PC+>
0

>  <Q_PC->
0

>  <Q_RPC+>
0

>  <Q_RPC->
0

>  <Q_VSA_FHYD>
1

>  <Q_VSA_FNEG>
0

>  <Q_VSA_FPNEG>
0

>  <Q_VSA_FPOL>
0

>  <Q_VSA_FPOS>
1

>  <Q_VSA_FPPOS>
0

>  <Q_VSA_HYD>
350.65683

>  <Q_VSA_NEG>
0

>  <Q_VSA_PNEG>
0

>  <Q_VSA_POL>
0

>  <Q_VSA_POS>
350.65683

>  <Q_VSA_PPOS>
0

>  <radius>
6

>  <reactive>
0

>  <rings>
3

>  <RPC+>
0

>  <RPC->
0

>  <rsynth>
1

>  <SlogP>
0.48649999

>  <SlogP_VSA0>
18.01075

>  <SlogP_VSA1>
29.132809

>  <SlogP_VSA2>
105.75993

>  <SlogP_VSA3>
50.770454

>  <SlogP_VSA4>
3.185575

>  <SlogP_VSA5>
0

>  <SlogP_VSA6>
4.4107962

>  <SlogP_VSA7>
88.215919

>  <SlogP_VSA8>
0

>  <SlogP_VSA9>
98.871574

>  <SMR>
9.2478304

>  <SMR_VSA0>
95.448868

>  <SMR_VSA1>
3.1243138

>  <SMR_VSA2>
68.781204

>  <SMR_VSA3>
17.907436

>  <SMR_VSA4>
0

>  <SMR_VSA5>
88.215919

>  <SMR_VSA6>
26.008495

>  <SMR_VSA7>
98.871574

>  <TPSA>
124.01

>  <VAdjEq>
0.41210872

>  <VAdjMa>
5.8073549

>  <VDistEq>
3.3754606

>  <VDistMa>
9.1182146

>  <vdw_area>
350.65683

>  <vdw_vol>
448.13138

>  <vsa_acc>
27.133842

>  <vsa_acid>
0

>  <vsa_base>
0

>  <vsa_don>
5.6825762

>  <vsa_hyd>
184.11179

>  <vsa_other>
55.316059

>  <vsa_pol>
87.084099

>  <Weight>
378.405

>  <weinerPath>
1651

>  <weinerPol>
43

>  <zagreb>
142

$$$$