n1ccccc1/C(=C/CN1CCCC1)/c1ccc(cc1)C
  MOE2013           2D

 21 23  0  0  0  0  0  0  0  0999 V2000
    0.0000    0.0000    0.0000 N   0  0  0  0  0  0  0  0  0  0  0  0
   -0.7510   -1.2980    0.0000 C   0  0  0  0  0  0  0  0  0  0  0  0
   -2.2510   -1.2970    0.0000 C   0  0  0  0  0  0  0  0  0  0  0  0
   -3.0000    0.0030    0.0000 C   0  0  0  0  0  0  0  0  0  0  0  0
   -2.2490    1.3010    0.0000 C   0  0  0  0  0  0  0  0  0  0  0  0
   -0.7490    1.3000    0.0000 C   0  0  0  0  0  0  0  0  0  0  0  0
    0.0020    2.5980    0.0000 C   0  0  0  0  0  0  0  0  0  0  0  0
    1.5020    2.5970    0.0000 C   0  0  0  0  0  0  0  0  0  0  0  0
    2.2540    3.8950    0.0000 C   0  0  0  0  0  0  0  0  0  0  0  0
    3.7540    3.8940    0.0000 N   0  0  0  0  0  0  0  0  0  0  0  0
    4.6360    5.1060    0.0000 C   0  0  0  0  0  0  0  0  0  0  0  0
    6.0620    4.6420    0.0000 C   0  0  0  0  0  0  0  0  0  0  0  0
    6.0610    3.1420    0.0000 C   0  0  0  0  0  0  0  0  0  0  0  0
    4.6340    2.6790    0.0000 C   0  0  0  0  0  0  0  0  0  0  0  0
   -0.7460    3.8980    0.0000 C   0  0  0  0  0  0  0  0  0  0  0  0
   -2.2460    3.8990    0.0000 C   0  0  0  0  0  0  0  0  0  0  0  0
   -2.9950    5.1990    0.0000 C   0  0  0  0  0  0  0  0  0  0  0  0
   -2.2440    6.4970    0.0000 C   0  0  0  0  0  0  0  0  0  0  0  0
   -0.7440    6.4960    0.0000 C   0  0  0  0  0  0  0  0  0  0  0  0
    0.0050    5.1960    0.0000 C   0  0  0  0  0  0  0  0  0  0  0  0
   -2.9930    7.7970    0.0000 C   0  0  0  0  0  0  0  0  0  0  0  0
  1  2  1  0  0  0  0
  1  6  2  0  0  0  0
  2  3  2  0  0  0  0
  3  4  1  0  0  0  0
  4  5  2  0  0  0  0
  5  6  1  0  0  0  0
  6  7  1  0  0  0  0
  7  8  2  0  0  0  0
  7 15  1  0  0  0  0
  8  9  1  0  0  0  0
  9 10  1  0  0  0  0
 10 11  1  0  0  0  0
 10 14  1  0  0  0  0
 11 12  1  0  0  0  0
 12 13  1  0  0  0  0
 13 14  1  0  0  0  0
 15 16  1  0  0  0  0
 15 20  2  0  0  0  0
 16 17  2  0  0  0  0
 17 18  1  0  0  0  0
 18 19  2  0  0  0  0
 18 21  1  0  0  0  0
 19 20  1  0  0  0  0
M  END
>  <Index>
1114

>  <ID>
HT2133

>  <class>
0

>  <apol>
50.309444

>  <ast_fraglike>
0

>  <ast_fraglike_ext>
0

>  <ast_violation>
1

>  <ast_violation_ext>
2

>  <a_acc>
2

>  <a_acid>
0

>  <a_aro>
12

>  <a_base>
0

>  <a_count>
43

>  <a_don>
0

>  <a_donacc>
2

>  <a_heavy>
21

>  <a_hyd>
19

>  <a_IC>
52.511265

>  <a_ICM>
1.2211922

>  <a_nB>
0

>  <a_nBr>
0

>  <a_nC>
19

>  <a_nCl>
0

>  <a_nF>
0

>  <a_nH>
22

>  <a_nI>
0

>  <a_nN>
2

>  <a_nO>
0

>  <a_nP>
0

>  <a_nS>
0

>  <balabanJ>
1.5635765

>  <BCUT_PEOE_0>
-2.5442235

>  <BCUT_PEOE_1>
-0.58882397

>  <BCUT_PEOE_2>
0.65997022

>  <BCUT_PEOE_3>
2.678149

>  <BCUT_SLOGP_0>
-2.6182003

>  <BCUT_SLOGP_1>
-0.49875239

>  <BCUT_SLOGP_2>
0.74793667

>  <BCUT_SLOGP_3>
2.6982925

>  <BCUT_SMR_0>
-2.2471886

>  <BCUT_SMR_1>
-0.43630207

>  <BCUT_SMR_2>
0.82150286

>  <BCUT_SMR_3>
2.948293

>  <bpol>
27.350554

>  <b_1rotN>
4

>  <b_1rotR>
0.17391305

>  <b_ar>
12

>  <b_count>
45

>  <b_double>
1

>  <b_heavy>
23

>  <b_max1len>
3

>  <b_rotN>
4

>  <b_rotR>
0.17391305

>  <b_single>
32

>  <b_triple>
0

>  <chi0>
14.493353

>  <chi0v>
12.626114

>  <chi0v_C>
11.731687

>  <chi0_C>
13.208896

>  <chi1>
10.3265

>  <chi1v>
7.7374549

>  <chi1v_C>
6.3069658

>  <chi1_C>
8.1935062

>  <chiral>
0

>  <chiral_u>
0

>  <density>
0.64999902

>  <diameter>
10

>  <FCharge>
0

>  <GCUT_PEOE_0>
-0.86019975

>  <GCUT_PEOE_1>
-0.37263411

>  <GCUT_PEOE_2>
0.067650497

>  <GCUT_PEOE_3>
2.5990169

>  <GCUT_SLOGP_0>
-0.95879537

>  <GCUT_SLOGP_1>
-0.26386139

>  <GCUT_SLOGP_2>
0.14185947

>  <GCUT_SLOGP_3>
2.6791074

>  <GCUT_SMR_0>
-0.52623183

>  <GCUT_SMR_1>
-0.19147693

>  <GCUT_SMR_2>
0.17357616

>  <GCUT_SMR_3>
2.8749082

>  <Kier1>
15.879017

>  <Kier2>
8.0222225

>  <Kier3>
4.4875345

>  <KierA1>
11.905862

>  <KierA2>
5.9212909

>  <KierA3>
3.2724812

>  <KierFlex>
3.3570509

>  <lip_acc>
2

>  <lip_don>
0

>  <lip_druglike>
1

>  <lip_violation>
0

>  <logP(o/w)>
3.8640001

>  <logS>
-3.4607201

>  <mr>
8.8206434

>  <mutagenic>
0

>  <nmol>
1

>  <opr_brigid>
18

>  <opr_leadlike>
1

>  <opr_nring>
3

>  <opr_nrot>
5

>  <opr_violation>
0

>  <PC+>
0

>  <PC->
0

>  <PEOE_PC+>
1.1613163

>  <PEOE_PC->
-1.1613163

>  <PEOE_RPC+>
0.071432471

>  <PEOE_RPC->
0.25719705

>  <PEOE_VSA+0>
87.596802

>  <PEOE_VSA+1>
45.088024

>  <PEOE_VSA+2>
0

>  <PEOE_VSA+3>
0

>  <PEOE_VSA+4>
0

>  <PEOE_VSA+5>
0

>  <PEOE_VSA+6>
0

>  <PEOE_VSA-0>
89.253304

>  <PEOE_VSA-1>
75.737961

>  <PEOE_VSA-2>
0

>  <PEOE_VSA-3>
0

>  <PEOE_VSA-4>
0

>  <PEOE_VSA-5>
5.6825762

>  <PEOE_VSA-6>
0

>  <PEOE_VSA_FHYD>
0.98126781

>  <PEOE_VSA_FNEG>
0.56261402

>  <PEOE_VSA_FPNEG>
0.018732203

>  <PEOE_VSA_FPOL>
0.018732203

>  <PEOE_VSA_FPOS>
0.43738598

>  <PEOE_VSA_FPPOS>
0

>  <PEOE_VSA_HYD>
297.67609

>  <PEOE_VSA_NEG>
170.67384

>  <PEOE_VSA_PNEG>
5.6825762

>  <PEOE_VSA_POL>
5.6825762

>  <PEOE_VSA_POS>
132.68483

>  <PEOE_VSA_PPOS>
0

>  <petitjean>
0.5

>  <petitjeanSC>
1

>  <Q_PC+>
0

>  <Q_PC->
0

>  <Q_RPC+>
0

>  <Q_RPC->
0

>  <Q_VSA_FHYD>
1

>  <Q_VSA_FNEG>
0

>  <Q_VSA_FPNEG>
0

>  <Q_VSA_FPOL>
0

>  <Q_VSA_FPOS>
1

>  <Q_VSA_FPPOS>
0

>  <Q_VSA_HYD>
303.35867

>  <Q_VSA_NEG>
0

>  <Q_VSA_PNEG>
0

>  <Q_VSA_POL>
0

>  <Q_VSA_POS>
303.35867

>  <Q_VSA_PPOS>
0

>  <radius>
5

>  <reactive>
0

>  <rings>
3

>  <RPC+>
0

>  <RPC->
0

>  <rsynth>
1

>  <SlogP>
3.7348101

>  <SlogP_VSA0>
0

>  <SlogP_VSA1>
19.909843

>  <SlogP_VSA2>
0

>  <SlogP_VSA3>
58.504311

>  <SlogP_VSA4>
9.1278973

>  <SlogP_VSA5>
0

>  <SlogP_VSA6>
0

>  <SlogP_VSA7>
158.35983

>  <SlogP_VSA8>
37.736813

>  <SlogP_VSA9>
33.326015

>  <SMR>
8.7107

>  <SMR_VSA0>
0

>  <SMR_VSA1>
19.909843

>  <SMR_VSA2>
3.185575

>  <SMR_VSA3>
9.1278973

>  <SMR_VSA4>
0

>  <SMR_VSA5>
196.09665

>  <SMR_VSA6>
55.318733

>  <SMR_VSA7>
33.326015

>  <TPSA>
16.129999

>  <VAdjEq>
0.48250595

>  <VAdjMa>
5.523562

>  <VDistEq>
3.1406131

>  <VDistMa>
8.5064611

>  <vdw_area>
303.35867

>  <vdw_vol>
428.30679

>  <vsa_acc>
5.6825762

>  <vsa_acid>
0

>  <vsa_base>
0

>  <vsa_don>
0

>  <vsa_hyd>
282.0166

>  <vsa_other>
0

>  <vsa_pol>
5.6825762

>  <Weight>
278.39899

>  <weinerPath>
953

>  <weinerPol>
27

>  <zagreb>
106

$$$$