OCC(C(=O)N(Cc1ccncc1)CC)c1ccccc1
  MOE2013           2D

 21 22  0  0  1  0  0  0  0  0999 V2000
    0.0000    0.0000    0.0000 O   0  0  0  0  0  0  0  0  0  0  0  0
   -1.3010    0.7460    0.0000 C   0  0  0  0  0  0  0  0  0  0  0  0
   -1.3060    2.2460    0.0000 C   0  0  3  0  0  0  0  0  0  0  0  0
   -2.6080    2.9920    0.0000 C   0  0  0  0  0  0  0  0  0  0  0  0
   -2.6120    4.4920    0.0000 O   0  0  0  0  0  0  0  0  0  0  0  0
   -3.9040    2.2380    0.0000 N   0  0  0  0  0  0  0  0  0  0  0  0
   -3.8990    0.7380    0.0000 C   0  0  0  0  0  0  0  0  0  0  0  0
   -5.1960   -0.0170    0.0000 C   0  0  0  0  0  0  0  0  0  0  0  0
   -6.4980    0.7290    0.0000 C   0  0  0  0  0  0  0  0  0  0  0  0
   -7.7940   -0.0250    0.0000 C   0  0  0  0  0  0  0  0  0  0  0  0
   -7.7890   -1.5250    0.0000 N   0  0  0  0  0  0  0  0  0  0  0  0
   -6.4880   -2.2710    0.0000 C   0  0  0  0  0  0  0  0  0  0  0  0
   -5.1910   -1.5170    0.0000 C   0  0  0  0  0  0  0  0  0  0  0  0
   -5.2060    2.9830    0.0000 C   0  0  0  0  0  0  0  0  0  0  0  0
   -5.2100    4.4830    0.0000 C   0  0  0  0  0  0  0  0  0  0  0  0
   -0.0100    3.0000    0.0000 C   0  0  0  0  0  0  0  0  0  0  0  0
    1.2920    2.2540    0.0000 C   0  0  0  0  0  0  0  0  0  0  0  0
    2.5880    3.0080    0.0000 C   0  0  0  0  0  0  0  0  0  0  0  0
    2.5840    4.5080    0.0000 C   0  0  0  0  0  0  0  0  0  0  0  0
    1.2820    5.2540    0.0000 C   0  0  0  0  0  0  0  0  0  0  0  0
   -0.0140    4.5000    0.0000 C   0  0  0  0  0  0  0  0  0  0  0  0
  1  2  1  0  0  0  0
  2  3  1  0  0  0  0
  3  4  1  0  0  0  0
  3 16  1  0  0  0  0
  4  5  2  0  0  0  0
  4  6  1  0  0  0  0
  6  7  1  0  0  0  0
  6 14  1  0  0  0  0
  7  8  1  0  0  0  0
  8  9  1  0  0  0  0
  8 13  2  0  0  0  0
  9 10  2  0  0  0  0
 10 11  1  0  0  0  0
 11 12  2  0  0  0  0
 12 13  1  0  0  0  0
 14 15  1  0  0  0  0
 16 17  1  0  0  0  0
 16 21  2  0  0  0  0
 17 18  2  0  0  0  0
 18 19  1  0  0  0  0
 19 20  2  0  0  0  0
 20 21  1  0  0  0  0
M  END
>  <Index>
1118

>  <ID>
HT2140

>  <class>
0

>  <apol>
47.05986

>  <ast_fraglike>
1

>  <ast_fraglike_ext>
0

>  <ast_violation>
0

>  <ast_violation_ext>
1

>  <a_acc>
3

>  <a_acid>
0

>  <a_aro>
12

>  <a_base>
0

>  <a_count>
41

>  <a_don>
1

>  <a_donacc>
4

>  <a_heavy>
21

>  <a_hyd>
16

>  <a_IC>
59.734203

>  <a_ICM>
1.4569317

>  <a_nB>
0

>  <a_nBr>
0

>  <a_nC>
17

>  <a_nCl>
0

>  <a_nF>
0

>  <a_nH>
20

>  <a_nI>
0

>  <a_nN>
2

>  <a_nO>
2

>  <a_nP>
0

>  <a_nS>
0

>  <balabanJ>
1.9074993

>  <BCUT_PEOE_0>
-2.5912745

>  <BCUT_PEOE_1>
-0.62647849

>  <BCUT_PEOE_2>
0.68238515

>  <BCUT_PEOE_3>
2.5678194

>  <BCUT_SLOGP_0>
-2.6347761

>  <BCUT_SLOGP_1>
-0.53807992

>  <BCUT_SLOGP_2>
0.67060149

>  <BCUT_SLOGP_3>
2.5539806

>  <BCUT_SMR_0>
-2.3145509

>  <BCUT_SMR_1>
-0.48897979

>  <BCUT_SMR_2>
0.83707219

>  <BCUT_SMR_3>
2.8297133

>  <bpol>
26.122141

>  <b_1rotN>
7

>  <b_1rotR>
0.31818181

>  <b_ar>
12

>  <b_count>
42

>  <b_double>
1

>  <b_heavy>
22

>  <b_max1len>
5

>  <b_rotN>
7

>  <b_rotR>
0.31818181

>  <b_single>
29

>  <b_triple>
0

>  <chi0>
15.07914

>  <chi0v>
12.144712

>  <chi0v_C>
10.394823

>  <chi0_C>
11.794683

>  <chi1>
10.25755

>  <chi1v>
7.0937715

>  <chi1v_C>
5.2009592

>  <chi1_C>
6.8232632

>  <chiral>
1

>  <chiral_u>
1

>  <density>
0.69534391

>  <diameter>
11

>  <FCharge>
0

>  <GCUT_PEOE_0>
-0.84776765

>  <GCUT_PEOE_1>
-0.38577929

>  <GCUT_PEOE_2>
0.080027185

>  <GCUT_PEOE_3>
2.5907967

>  <GCUT_SLOGP_0>
-0.93772763

>  <GCUT_SLOGP_1>
-0.29520616

>  <GCUT_SLOGP_2>
0.11429973

>  <GCUT_SLOGP_3>
2.6386769

>  <GCUT_SMR_0>
-0.51729929

>  <GCUT_SMR_1>
-0.21605732

>  <GCUT_SMR_2>
0.19305076

>  <GCUT_SMR_3>
2.8512118

>  <Kier1>
17.355371

>  <Kier2>
9.2091837

>  <Kier3>
5

>  <KierA1>
12.573779

>  <KierA2>
6.5550823

>  <KierA3>
3.5108061

>  <KierFlex>
3.9248645

>  <lip_acc>
4

>  <lip_don>
1

>  <lip_druglike>
1

>  <lip_violation>
0

>  <logP(o/w)>
1.55

>  <logS>
-1.9954799

>  <mr>
8.475008

>  <mutagenic>
0

>  <nmol>
1

>  <opr_brigid>
12

>  <opr_leadlike>
1

>  <opr_nring>
2

>  <opr_nrot>
6

>  <opr_violation>
0

>  <PC+>
0

>  <PC->
0

>  <PEOE_PC+>
1.7505748

>  <PEOE_PC->
-1.7505748

>  <PEOE_RPC+>
0.13333215

>  <PEOE_RPC->
0.22502559

>  <PEOE_VSA+0>
85.468796

>  <PEOE_VSA+1>
70.401314

>  <PEOE_VSA+2>
0

>  <PEOE_VSA+3>
0

>  <PEOE_VSA+4>
23.273705

>  <PEOE_VSA+5>
0

>  <PEOE_VSA+6>
0

>  <PEOE_VSA-0>
47.674564

>  <PEOE_VSA-1>
61.274521

>  <PEOE_VSA-2>
0

>  <PEOE_VSA-3>
0

>  <PEOE_VSA-4>
0

>  <PEOE_VSA-5>
19.249496

>  <PEOE_VSA-6>
7.7675405

>  <PEOE_VSA_FHYD>
0.84040254

>  <PEOE_VSA_FNEG>
0.43148789

>  <PEOE_VSA_FPNEG>
0.08573845

>  <PEOE_VSA_FPOL>
0.15959744

>  <PEOE_VSA_FPOS>
0.56851208

>  <PEOE_VSA_FPPOS>
0.073858999

>  <PEOE_VSA_HYD>
264.81918

>  <PEOE_VSA_NEG>
135.96613

>  <PEOE_VSA_PNEG>
27.017036

>  <PEOE_VSA_POL>
50.290741

>  <PEOE_VSA_POS>
179.14381

>  <PEOE_VSA_PPOS>
23.273705

>  <petitjean>
0.45454547

>  <petitjeanSC>
0.83333331

>  <Q_PC+>
0

>  <Q_PC->
0

>  <Q_RPC+>
0

>  <Q_RPC->
0

>  <Q_VSA_FHYD>
1

>  <Q_VSA_FNEG>
0

>  <Q_VSA_FPNEG>
0

>  <Q_VSA_FPOL>
0

>  <Q_VSA_FPOS>
1

>  <Q_VSA_FPPOS>
0

>  <Q_VSA_HYD>
315.10992

>  <Q_VSA_NEG>
0

>  <Q_VSA_PNEG>
0

>  <Q_VSA_POL>
0

>  <Q_VSA_POS>
315.10992

>  <Q_VSA_PPOS>
0

>  <radius>
6

>  <reactive>
0

>  <rings>
2

>  <RPC+>
0

>  <RPC->
0

>  <rsynth>
1

>  <SlogP>
2.4726

>  <SlogP_VSA0>
25.385227

>  <SlogP_VSA1>
25.168627

>  <SlogP_VSA2>
23.862217

>  <SlogP_VSA3>
39.365837

>  <SlogP_VSA4>
6.37115

>  <SlogP_VSA5>
0

>  <SlogP_VSA6>
4.4107962

>  <SlogP_VSA7>
157.931

>  <SlogP_VSA8>
0

>  <SlogP_VSA9>
51.765594

>  <SMR>
8.1801796

>  <SMR_VSA0>
23.862217

>  <SMR_VSA1>
45.295071

>  <SMR_VSA2>
0

>  <SMR_VSA3>
10.781946

>  <SMR_VSA4>
0

>  <SMR_VSA5>
176.37057

>  <SMR_VSA6>
44.624619

>  <SMR_VSA7>
33.326015

>  <TPSA>
53.43

>  <VAdjEq>
0.46827638

>  <VAdjMa>
5.4594316

>  <VDistEq>
3.1984248

>  <VDistMa>
8.5032272

>  <vdw_area>
315.10992

>  <vdw_vol>
408.94727

>  <vsa_acc>
19.249496

>  <vsa_acid>
0

>  <vsa_base>
0

>  <vsa_don>
0

>  <vsa_hyd>
249.95003

>  <vsa_other>
12.949531

>  <vsa_pol>
32.816418

>  <Weight>
284.35901

>  <weinerPath>
956

>  <weinerPol>
30

>  <zagreb>
100

$$$$