O=C1[C@H]2[C@](CC[C@@H]3[C@@]2(CC[C@H](OC(=O)CCC(O)=O)C3(C)C)C)(C)[C@@]2(CC[C@@]3([C@H](C2=C1)C[C@](CC3)(C(O)=O)C)C)C
  MOE2013           2D

 41 45  0  0  1  0  0  0  0  0999 V2000
    0.0000    0.0000    0.0000 O   0  0  0  0  0  0  0  0  0  0  0  0
   -0.7560    1.2960    0.0000 C   0  0  0  0  0  0  0  0  0  0  0  0
   -0.0120    2.5980    0.0000 C   0  0  1  0  0  0  0  0  0  0  0  0
   -0.7680    3.8940    0.0000 C   0  0  2  0  0  0  0  0  0  0  0  0
   -0.0240    5.1960    0.0000 C   0  0  0  0  0  0  0  0  0  0  0  0
    1.4760    5.2030    0.0000 C   0  0  0  0  0  0  0  0  0  0  0  0
    2.2320    3.9070    0.0000 C   0  0  2  0  0  0  0  0  0  0  0  0
    1.4880    2.6050    0.0000 C   0  0  2  0  0  0  0  0  0  0  0  0
    2.2440    1.3090    0.0000 C   0  0  0  0  0  0  0  0  0  0  0  0
    3.7440    1.3160    0.0000 C   0  0  0  0  0  0  0  0  0  0  0  0
    4.4880    2.6190    0.0000 C   0  0  2  0  0  0  0  0  0  0  0  0
    5.9880    2.6250    0.0000 O   0  0  0  0  0  0  0  0  0  0  0  0
    6.7440    1.3300    0.0000 C   0  0  0  0  0  0  0  0  0  0  0  0
    6.0000    0.0270    0.0000 O   0  0  0  0  0  0  0  0  0  0  0  0
    8.2440    1.3370    0.0000 C   0  0  0  0  0  0  0  0  0  0  0  0
    9.0000    0.0410    0.0000 C   0  0  0  0  0  0  0  0  0  0  0  0
   10.5000    0.0480    0.0000 C   0  0  0  0  0  0  0  0  0  0  0  0
   11.2440    1.3500    0.0000 O   0  0  0  0  0  0  0  0  0  0  0  0
   11.2560   -1.2480    0.0000 O   0  0  0  0  0  0  0  0  0  0  0  0
    3.7320    3.9140    0.0000 C   0  0  0  0  0  0  0  0  0  0  0  0
    3.7250    5.4140    0.0000 C   0  0  0  0  0  0  0  0  0  0  0  0
    5.0280    4.6700    0.0000 C   0  0  0  0  0  0  0  0  0  0  0  0
    0.7440    1.3020    0.0000 C   0  0  0  0  0  0  0  0  0  0  0  0
   -1.5240    5.1890    0.0000 C   0  0  0  0  0  0  0  0  0  0  0  0
   -2.2680    3.8870    0.0000 C   0  0  2  0  0  0  0  0  0  0  0  0
   -3.0240    5.1820    0.0000 C   0  0  0  0  0  0  0  0  0  0  0  0
   -4.5240    5.1760    0.0000 C   0  0  0  0  0  0  0  0  0  0  0  0
   -5.2680    3.8730    0.0000 C   0  0  2  0  0  0  0  0  0  0  0  0
   -4.5120    2.5780    0.0000 C   0  0  2  0  0  0  0  0  0  0  0  0
   -3.0120    2.5840    0.0000 C   0  0  0  0  0  0  0  0  0  0  0  0
   -2.2560    1.2890    0.0000 C   0  0  0  0  0  0  0  0  0  0  0  0
   -5.2560    1.2750    0.0000 C   0  0  0  0  0  0  0  0  0  0  0  0
   -6.7560    1.2680    0.0000 C   0  0  2  0  0  0  0  0  0  0  0  0
   -7.5120    2.5640    0.0000 C   0  0  0  0  0  0  0  0  0  0  0  0
   -6.7680    3.8660    0.0000 C   0  0  0  0  0  0  0  0  0  0  0  0
   -8.0510    0.5120    0.0000 C   0  0  0  0  0  0  0  0  0  0  0  0
   -9.3540    1.2560    0.0000 O   0  0  0  0  0  0  0  0  0  0  0  0
   -8.0450   -0.9880    0.0000 O   0  0  0  0  0  0  0  0  0  0  0  0
   -6.7490   -0.2320    0.0000 C   0  0  0  0  0  0  0  0  0  0  0  0
   -6.0240    5.1690    0.0000 C   0  0  0  0  0  0  0  0  0  0  0  0
   -3.7680    3.8800    0.0000 C   0  0  0  0  0  0  0  0  0  0  0  0
  1  2  2  0  0  0  0
  2 31  1  0  0  0  0
  3  2  1  1  0  0  0
  3  4  1  0  0  0  0
  3  8  1  0  0  0  0
  4  5  1  0  0  0  0
  4 24  1  1  0  0  0
  4 25  1  0  0  0  0
  5  6  1  0  0  0  0
  7  6  1  1  0  0  0
  7  8  1  0  0  0  0
  7 20  1  0  0  0  0
  8  9  1  0  0  0  0
  8 23  1  1  0  0  0
  9 10  1  0  0  0  0
 10 11  1  0  0  0  0
 11 12  1  1  0  0  0
 11 20  1  0  0  0  0
 12 13  1  0  0  0  0
 13 14  2  0  0  0  0
 13 15  1  0  0  0  0
 15 16  1  0  0  0  0
 16 17  1  0  0  0  0
 17 18  1  0  0  0  0
 17 19  2  0  0  0  0
 20 21  1  0  0  0  0
 20 22  1  0  0  0  0
 25 26  1  0  0  0  0
 25 30  1  0  0  0  0
 25 41  1  6  0  0  0
 26 27  1  0  0  0  0
 27 28  1  0  0  0  0
 28 29  1  0  0  0  0
 28 35  1  0  0  0  0
 28 40  1  1  0  0  0
 29 30  1  0  0  0  0
 29 32  1  6  0  0  0
 30 31  2  0  0  0  0
 32 33  1  0  0  0  0
 33 34  1  0  0  0  0
 33 36  1  1  0  0  0
 33 39  1  6  0  0  0
 34 35  1  0  0  0  0
 36 37  1  0  0  0  0
 36 38  2  0  0  0  0
M  END
>  <Index>
189

>  <ID>
HT0375

>  <class>
0

>  <apol>
98.793648

>  <ast_fraglike>
0

>  <ast_fraglike_ext>
0

>  <ast_violation>
4

>  <ast_violation_ext>
6

>  <a_acc>
6

>  <a_acid>
0

>  <a_aro>
0

>  <a_base>
0

>  <a_count>
91

>  <a_don>
4

>  <a_donacc>
10

>  <a_heavy>
41

>  <a_hyd>
30

>  <a_IC>
117.39128

>  <a_ICM>
1.290014

>  <a_nB>
0

>  <a_nBr>
0

>  <a_nC>
34

>  <a_nCl>
0

>  <a_nF>
0

>  <a_nH>
50

>  <a_nI>
0

>  <a_nN>
0

>  <a_nO>
7

>  <a_nP>
0

>  <a_nS>
0

>  <balabanJ>
1.4315925

>  <BCUT_PEOE_0>
-3.0101752

>  <BCUT_PEOE_1>
-0.21232481

>  <BCUT_PEOE_2>
0.037096132

>  <BCUT_PEOE_3>
2.983238

>  <BCUT_SLOGP_0>
-2.9485366

>  <BCUT_SLOGP_1>
-0.081598677

>  <BCUT_SLOGP_2>
0.123

>  <BCUT_SLOGP_3>
3.0556314

>  <BCUT_SMR_0>
-2.7580366

>  <BCUT_SMR_1>
0.052768905

>  <BCUT_SMR_2>
0.19645768

>  <BCUT_SMR_3>
3.2370634

>  <bpol>
60.408352

>  <b_1rotN>
5

>  <b_1rotR>
0.11111111

>  <b_ar>
0

>  <b_count>
95

>  <b_double>
5

>  <b_heavy>
45

>  <b_max1len>
4

>  <b_rotN>
6

>  <b_rotR>
0.13333334

>  <b_single>
90

>  <b_triple>
0

>  <chi0>
30.38854

>  <chi0v>
26.100595

>  <chi0v_C>
23.164927

>  <chi0_C>
23.681435

>  <chi1>
18.839277

>  <chi1v>
15.747013

>  <chi1v_C>
14.043477

>  <chi1_C>
14.55868

>  <chiral>
9

>  <chiral_u>
0

>  <density>
0.71209943

>  <diameter>
18

>  <FCharge>
0

>  <GCUT_PEOE_0>
-0.79947811

>  <GCUT_PEOE_1>
-0.37330016

>  <GCUT_PEOE_2>
-0.12290387

>  <GCUT_PEOE_3>
3.7009034

>  <GCUT_SLOGP_0>
-0.88384897

>  <GCUT_SLOGP_1>
-0.27177346

>  <GCUT_SLOGP_2>
-0.037

>  <GCUT_SLOGP_3>
3.7784398

>  <GCUT_SMR_0>
-0.54191911

>  <GCUT_SMR_1>
-0.13554771

>  <GCUT_SMR_2>
-0.044010781

>  <GCUT_SMR_3>
3.9260783

>  <Kier1>
32.395061

>  <Kier2>
10.533241

>  <Kier3>
4.8615437

>  <KierA1>
29.002476

>  <KierA2>
9.4031439

>  <KierA3>
4.3310761

>  <KierFlex>
6.6515713

>  <lip_acc>
7

>  <lip_don>
2

>  <lip_druglike>
0

>  <lip_violation>
2

>  <logP(o/w)>
5.737

>  <logS>
-7.8679199

>  <mr>
15.498215

>  <mutagenic>
0

>  <nmol>
1

>  <opr_brigid>
26

>  <opr_leadlike>
0

>  <opr_nring>
5

>  <opr_nrot>
5

>  <opr_violation>
3

>  <PC+>
0

>  <PC->
0

>  <PEOE_PC+>
3.005357

>  <PEOE_PC->
-3.005357

>  <PEOE_RPC+>
0.088362209

>  <PEOE_RPC->
0.11022259

>  <PEOE_VSA+0>
213.61038

>  <PEOE_VSA+1>
13.4357

>  <PEOE_VSA+2>
0

>  <PEOE_VSA+3>
8.458519

>  <PEOE_VSA+4>
20.648346

>  <PEOE_VSA+5>
44.125496

>  <PEOE_VSA+6>
0

>  <PEOE_VSA-0>
90.566727

>  <PEOE_VSA-1>
133.44228

>  <PEOE_VSA-2>
0

>  <PEOE_VSA-3>
0

>  <PEOE_VSA-4>
0

>  <PEOE_VSA-5>
54.267685

>  <PEOE_VSA-6>
18.038837

>  <PEOE_VSA_FHYD>
0.77022839

>  <PEOE_VSA_FNEG>
0.49667871

>  <PEOE_VSA_FPNEG>
0.12119888

>  <PEOE_VSA_FPOL>
0.22977161

>  <PEOE_VSA_FPOS>
0.50332129

>  <PEOE_VSA_FPPOS>
0.10857274

>  <PEOE_VSA_HYD>
459.51361

>  <PEOE_VSA_NEG>
296.31552

>  <PEOE_VSA_PNEG>
72.306519

>  <PEOE_VSA_POL>
137.08037

>  <PEOE_VSA_POS>
300.27844

>  <PEOE_VSA_PPOS>
64.773842

>  <petitjean>
0.5

>  <petitjeanSC>
1

>  <Q_PC+>
0

>  <Q_PC->
0

>  <Q_RPC+>
0

>  <Q_RPC->
0

>  <Q_VSA_FHYD>
1

>  <Q_VSA_FNEG>
0

>  <Q_VSA_FPNEG>
0

>  <Q_VSA_FPOL>
0

>  <Q_VSA_FPOS>
1

>  <Q_VSA_FPPOS>
0

>  <Q_VSA_HYD>
596.59399

>  <Q_VSA_NEG>
0

>  <Q_VSA_PNEG>
0

>  <Q_VSA_POL>
0

>  <Q_VSA_POS>
596.59399

>  <Q_VSA_PPOS>
0

>  <radius>
9

>  <reactive>
1

>  <rings>
5

>  <RPC+>
0

>  <RPC->
0

>  <rsynth>
0.17073171

>  <SlogP>
6.8283

>  <SlogP_VSA0>
0

>  <SlogP_VSA1>
28.924004

>  <SlogP_VSA2>
112.9174

>  <SlogP_VSA3>
50.770454

>  <SlogP_VSA4>
13.232388

>  <SlogP_VSA5>
3.185575

>  <SlogP_VSA6>
0

>  <SlogP_VSA7>
17.643185

>  <SlogP_VSA8>
207.55246

>  <SlogP_VSA9>
233.2821

>  <SMR>
15.38146

>  <SMR_VSA0>
106.44875

>  <SMR_VSA1>
0

>  <SMR_VSA2>
64.002838

>  <SMR_VSA3>
9.6542244

>  <SMR_VSA4>
0

>  <SMR_VSA5>
225.19565

>  <SMR_VSA6>
28.924004

>  <SMR_VSA7>
233.2821

>  <TPSA>
117.97

>  <VAdjEq>
0.30124658

>  <VAdjMa>
6.4918532

>  <VDistEq>
3.8363798

>  <VDistMa>
10.419492

>  <vdw_area>
596.59399

>  <vdw_vol>
801.5271

>  <vsa_acc>
27.133842

>  <vsa_acid>
0

>  <vsa_base>
0

>  <vsa_don>
0

>  <vsa_hyd>
412.85376

>  <vsa_other>
55.087772

>  <vsa_pol>
81.401527

>  <Weight>
570.76697

>  <weinerPath>
5328

>  <weinerPol>
94

>  <zagreb>
242

$$$$