Oc1cc(NC(=O)c2ccccc2)ccc1C(O)=O
  MOE2013           2D

 19 20  0  0  0  0  0  0  0  0999 V2000
    0.0000    0.0000    0.0000 O   0  0  0  0  0  0  0  0  0  0  0  0
    1.3030   -0.7420    0.0000 C   0  0  0  0  0  0  0  0  0  0  0  0
    2.5980    0.0150    0.0000 C   0  0  0  0  0  0  0  0  0  0  0  0
    3.9010   -0.7270    0.0000 C   0  0  0  0  0  0  0  0  0  0  0  0
    5.1960    0.0310    0.0000 N   0  0  0  0  0  0  0  0  0  0  0  0
    6.5000   -0.7120    0.0000 C   0  0  0  0  0  0  0  0  0  0  0  0
    6.5080   -2.2120    0.0000 O   0  0  0  0  0  0  0  0  0  0  0  0
    7.7940    0.0460    0.0000 C   0  0  0  0  0  0  0  0  0  0  0  0
    7.7850    1.5460    0.0000 C   0  0  0  0  0  0  0  0  0  0  0  0
    9.0800    2.3040    0.0000 C   0  0  0  0  0  0  0  0  0  0  0  0
   10.3830    1.5610    0.0000 C   0  0  0  0  0  0  0  0  0  0  0  0
   10.3920    0.0610    0.0000 C   0  0  0  0  0  0  0  0  0  0  0  0
    9.0980   -0.6960    0.0000 C   0  0  0  0  0  0  0  0  0  0  0  0
    3.9100   -2.2270    0.0000 C   0  0  0  0  0  0  0  0  0  0  0  0
    2.6160   -2.9850    0.0000 C   0  0  0  0  0  0  0  0  0  0  0  0
    1.3120   -2.2420    0.0000 C   0  0  0  0  0  0  0  0  0  0  0  0
    0.0180   -3.0000    0.0000 C   0  0  0  0  0  0  0  0  0  0  0  0
   -1.2860   -2.2580    0.0000 O   0  0  0  0  0  0  0  0  0  0  0  0
    0.0270   -4.5000    0.0000 O   0  0  0  0  0  0  0  0  0  0  0  0
  1  2  1  0  0  0  0
  2  3  1  0  0  0  0
  2 16  2  0  0  0  0
  3  4  2  0  0  0  0
  4  5  1  0  0  0  0
  4 14  1  0  0  0  0
  5  6  1  0  0  0  0
  6  7  2  0  0  0  0
  6  8  1  0  0  0  0
  8  9  1  0  0  0  0
  8 13  2  0  0  0  0
  9 10  2  0  0  0  0
 10 11  1  0  0  0  0
 11 12  2  0  0  0  0
 12 13  1  0  0  0  0
 14 15  2  0  0  0  0
 15 16  1  0  0  0  0
 16 17  1  0  0  0  0
 17 18  1  0  0  0  0
 17 19  2  0  0  0  0
M  END
>  <Index>
179

>  <ID>
HT0352

>  <class>
0

>  <apol>
36.282722

>  <ast_fraglike>
0

>  <ast_fraglike_ext>
0

>  <ast_violation>
2

>  <ast_violation_ext>
2

>  <a_acc>
4

>  <a_acid>
0

>  <a_aro>
12

>  <a_base>
0

>  <a_count>
30

>  <a_don>
4

>  <a_donacc>
8

>  <a_heavy>
19

>  <a_hyd>
12

>  <a_IC>
47.850002

>  <a_ICM>
1.595

>  <a_nB>
0

>  <a_nBr>
0

>  <a_nC>
14

>  <a_nCl>
0

>  <a_nF>
0

>  <a_nH>
11

>  <a_nI>
0

>  <a_nN>
1

>  <a_nO>
4

>  <a_nP>
0

>  <a_nS>
0

>  <balabanJ>
1.7809947

>  <BCUT_PEOE_0>
-2.2787185

>  <BCUT_PEOE_1>
-0.65967506

>  <BCUT_PEOE_2>
0.70132059

>  <BCUT_PEOE_3>
2.2640996

>  <BCUT_SLOGP_0>
-2.2971921

>  <BCUT_SLOGP_1>
-0.57092327

>  <BCUT_SLOGP_2>
0.76658016

>  <BCUT_SLOGP_3>
2.3905449

>  <BCUT_SMR_0>
-1.9323043

>  <BCUT_SMR_1>
-0.48448515

>  <BCUT_SMR_2>
0.86412352

>  <BCUT_SMR_3>
2.5984516

>  <bpol>
14.601277

>  <b_1rotN>
3

>  <b_1rotR>
0.15000001

>  <b_ar>
12

>  <b_count>
31

>  <b_double>
2

>  <b_heavy>
20

>  <b_max1len>
1

>  <b_rotN>
4

>  <b_rotR>
0.2

>  <b_single>
17

>  <b_triple>
0

>  <chi0>
13.828063

>  <chi0v>
9.8297262

>  <chi0v_C>
7.6188021

>  <chi0_C>
9.1209555

>  <chi1>
9.075387

>  <chi1v>
5.5041795

>  <chi1v_C>
4.1487174

>  <chi1_C>
5.9494896

>  <chiral>
0

>  <chiral_u>
0

>  <density>
0.7833488

>  <diameter>
11

>  <FCharge>
0

>  <GCUT_PEOE_0>
-0.808478

>  <GCUT_PEOE_1>
-0.4906171

>  <GCUT_PEOE_2>
0.13151357

>  <GCUT_PEOE_3>
2.288846

>  <GCUT_SLOGP_0>
-0.9930895

>  <GCUT_SLOGP_1>
-0.35613641

>  <GCUT_SLOGP_2>
0.18106139

>  <GCUT_SLOGP_3>
2.4024975

>  <GCUT_SMR_0>
-0.42787996

>  <GCUT_SMR_1>
-0.23575822

>  <GCUT_SMR_2>
0.24652053

>  <GCUT_SMR_3>
2.5916812

>  <Kier1>
15.39

>  <Kier2>
7.1358023

>  <Kier3>
4.2314048

>  <KierA1>
10.233251

>  <KierA2>
4.625958

>  <KierA3>
2.6889217

>  <KierFlex>
2.4915047

>  <lip_acc>
5

>  <lip_don>
3

>  <lip_druglike>
1

>  <lip_violation>
0

>  <logP(o/w)>
2.263

>  <logS>
-2.9623201

>  <mr>
6.9548693

>  <mutagenic>
0

>  <nmol>
1

>  <opr_brigid>
12

>  <opr_leadlike>
1

>  <opr_nring>
2

>  <opr_nrot>
3

>  <opr_violation>
0

>  <PC+>
0

>  <PC->
0

>  <PEOE_PC+>
1.9072777

>  <PEOE_PC->
-1.9072777

>  <PEOE_RPC+>
0.15400706

>  <PEOE_RPC->
0.18821932

>  <PEOE_VSA+0>
8.9080906

>  <PEOE_VSA+1>
44.790146

>  <PEOE_VSA+2>
0

>  <PEOE_VSA+3>
8.6190128

>  <PEOE_VSA+4>
20.648346

>  <PEOE_VSA+5>
27.65803

>  <PEOE_VSA+6>
0

>  <PEOE_VSA-0>
61.274521

>  <PEOE_VSA-1>
36.764713

>  <PEOE_VSA-2>
0

>  <PEOE_VSA-3>
0

>  <PEOE_VSA-4>
0

>  <PEOE_VSA-5>
27.133842

>  <PEOE_VSA-6>
15.671971

>  <PEOE_VSA_FHYD>
0.63767976

>  <PEOE_VSA_FNEG>
0.56008983

>  <PEOE_VSA_FPNEG>
0.17022325

>  <PEOE_VSA_FPOL>
0.36232024

>  <PEOE_VSA_FPOS>
0.43991017

>  <PEOE_VSA_FPPOS>
0.19209699

>  <PEOE_VSA_HYD>
160.35648

>  <PEOE_VSA_NEG>
140.84505

>  <PEOE_VSA_PNEG>
42.805813

>  <PEOE_VSA_POL>
91.11219

>  <PEOE_VSA_POS>
110.62363

>  <PEOE_VSA_PPOS>
48.306377

>  <petitjean>
0.45454547

>  <petitjeanSC>
0.83333331

>  <Q_PC+>
0

>  <Q_PC->
0

>  <Q_RPC+>
0

>  <Q_RPC->
0

>  <Q_VSA_FHYD>
1

>  <Q_VSA_FNEG>
0

>  <Q_VSA_FPNEG>
0

>  <Q_VSA_FPOL>
0

>  <Q_VSA_FPOS>
1

>  <Q_VSA_FPPOS>
0

>  <Q_VSA_HYD>
251.46867

>  <Q_VSA_NEG>
0

>  <Q_VSA_PNEG>
0

>  <Q_VSA_POL>
0

>  <Q_VSA_POS>
251.46867

>  <Q_VSA_PPOS>
0

>  <radius>
6

>  <reactive>
0

>  <rings>
2

>  <RPC+>
0

>  <RPC->
0

>  <rsynth>
1

>  <SlogP>
2.3427

>  <SlogP_VSA0>
25.385227

>  <SlogP_VSA1>
31.014997

>  <SlogP_VSA2>
0

>  <SlogP_VSA3>
25.385227

>  <SlogP_VSA4>
54.095581

>  <SlogP_VSA5>
0

>  <SlogP_VSA6>
0

>  <SlogP_VSA7>
141.14548

>  <SlogP_VSA8>
0

>  <SlogP_VSA9>
8.0001755

>  <SMR>
6.9461298

>  <SMR_VSA0>
47.724434

>  <SMR_VSA1>
25.385227

>  <SMR_VSA2>
25.385227

>  <SMR_VSA3>
11.614578

>  <SMR_VSA4>
20.767498

>  <SMR_VSA5>
141.14548

>  <SMR_VSA6>
13.004248

>  <SMR_VSA7>
0

>  <TPSA>
86.629997

>  <VAdjEq>
0.5023343

>  <VAdjMa>
5.321928

>  <VDistEq>
3.2385342

>  <VDistMa>
8.1719818

>  <vdw_area>
251.46867

>  <vdw_vol>
328.39139

>  <vsa_acc>
13.566921

>  <vsa_acid>
0

>  <vsa_base>
0

>  <vsa_don>
5.6825762

>  <vsa_hyd>
146.04311

>  <vsa_other>
27.65803

>  <vsa_pol>
59.95026

>  <Weight>
257.245

>  <weinerPath>
766

>  <weinerPol>
27

>  <zagreb>
94

$$$$