O1CCN(CC1)CC
  MOE2013           2D

  8  8  0  0  0  0  0  0  0  0999 V2000
    0.0000    0.0000    0.0000 O   0  0  0  0  0  0  0  0  0  0  0  0
    0.7430    1.3030    0.0000 C   0  0  0  0  0  0  0  0  0  0  0  0
    2.2430    1.3100    0.0000 C   0  0  0  0  0  0  0  0  0  0  0  0
    3.0000    0.0150    0.0000 N   0  0  0  0  0  0  0  0  0  0  0  0
    2.2570   -1.2880    0.0000 C   0  0  0  0  0  0  0  0  0  0  0  0
    0.7570   -1.2950    0.0000 C   0  0  0  0  0  0  0  0  0  0  0  0
    4.5000    0.0230    0.0000 C   0  0  0  0  0  0  0  0  0  0  0  0
    5.2430    1.3260    0.0000 C   0  0  0  0  0  0  0  0  0  0  0  0
  1  2  1  0  0  0  0
  1  6  1  0  0  0  0
  2  3  1  0  0  0  0
  3  4  1  0  0  0  0
  4  5  1  0  0  0  0
  4  7  1  0  0  0  0
  5  6  1  0  0  0  0
  7  8  1  0  0  0  0
M  END
>  <Index>
1208

>  <ID>
HT2471

>  <class>
0

>  <apol>
21.130308

>  <ast_fraglike>
1

>  <ast_fraglike_ext>
1

>  <ast_violation>
0

>  <ast_violation_ext>
0

>  <a_acc>
2

>  <a_acid>
0

>  <a_aro>
0

>  <a_base>
0

>  <a_count>
21

>  <a_don>
0

>  <a_donacc>
2

>  <a_heavy>
8

>  <a_hyd>
6

>  <a_IC>
28.623175

>  <a_ICM>
1.3630083

>  <a_nB>
0

>  <a_nBr>
0

>  <a_nC>
6

>  <a_nCl>
0

>  <a_nF>
0

>  <a_nH>
13

>  <a_nI>
0

>  <a_nN>
1

>  <a_nO>
1

>  <a_nP>
0

>  <a_nS>
0

>  <balabanJ>
2.1250162

>  <BCUT_PEOE_0>
-2.7191424

>  <BCUT_PEOE_1>
-0.11363123

>  <BCUT_PEOE_2>
0.057243187

>  <BCUT_PEOE_3>
2.6315689

>  <BCUT_SLOGP_0>
-2.8204668

>  <BCUT_SLOGP_1>
-0.00035579863

>  <BCUT_SLOGP_2>
0.123

>  <BCUT_SLOGP_3>
2.5407407

>  <BCUT_SMR_0>
-2.4487822

>  <BCUT_SMR_1>
0.1057

>  <BCUT_SMR_2>
0.11707276

>  <BCUT_SMR_3>
2.890013

>  <bpol>
18.107691

>  <b_1rotN>
1

>  <b_1rotR>
0.125

>  <b_ar>
0

>  <b_count>
21

>  <b_double>
0

>  <b_heavy>
8

>  <b_max1len>
3

>  <b_rotN>
1

>  <b_rotR>
0.125

>  <b_single>
21

>  <b_triple>
0

>  <chi0>
5.8199911

>  <chi0v>
5.390996

>  <chi0v_C>
4.5355339

>  <chi0_C>
4.5355339

>  <chi1>
3.9318516

>  <chi1v>
3.2331402

>  <chi1v_C>
1.7071068

>  <chi1_C>
1.7071068

>  <chiral>
0

>  <chiral_u>
0

>  <density>
0.6576249

>  <diameter>
5

>  <FCharge>
0

>  <GCUT_PEOE_0>
-0.85063231

>  <GCUT_PEOE_1>
-0.30573758

>  <GCUT_PEOE_2>
-0.10275681

>  <GCUT_PEOE_3>
2.2932751

>  <GCUT_SLOGP_0>
-0.95815021

>  <GCUT_SLOGP_1>
-0.22779757

>  <GCUT_SLOGP_2>
-0.037

>  <GCUT_SLOGP_3>
2.248219

>  <GCUT_SMR_0>
-0.51802707

>  <GCUT_SMR_1>
-0.087894745

>  <GCUT_SMR_2>
-0.054299999

>  <GCUT_SMR_3>
2.5160627

>  <Kier1>
6.125

>  <Kier2>
3.1111112

>  <Kier3>
1.8

>  <KierA1>
6.125

>  <KierA2>
3.1111112

>  <KierA3>
1.8

>  <KierFlex>
2.3819444

>  <lip_acc>
2

>  <lip_don>
0

>  <lip_druglike>
1

>  <lip_violation>
0

>  <logP(o/w)>
0.074000001

>  <logS>
-0.10712

>  <mr>
3.3360927

>  <mutagenic>
0

>  <nmol>
1

>  <opr_brigid>
6

>  <opr_leadlike>
1

>  <opr_nring>
1

>  <opr_nrot>
3

>  <opr_violation>
0

>  <PC+>
0

>  <PC->
0

>  <PEOE_PC+>
0.73162907

>  <PEOE_PC->
-0.73162907

>  <PEOE_RPC+>
0.082591474

>  <PEOE_RPC->
0.51561993

>  <PEOE_VSA+0>
64.773125

>  <PEOE_VSA+1>
46.96413

>  <PEOE_VSA+2>
0

>  <PEOE_VSA+3>
0

>  <PEOE_VSA+4>
0

>  <PEOE_VSA+5>
0

>  <PEOE_VSA+6>
0

>  <PEOE_VSA-0>
13.192325

>  <PEOE_VSA-1>
18.747677

>  <PEOE_VSA-2>
0

>  <PEOE_VSA-3>
0

>  <PEOE_VSA-4>
0

>  <PEOE_VSA-5>
0

>  <PEOE_VSA-6>
2.503756

>  <PEOE_VSA_FHYD>
0.98287225

>  <PEOE_VSA_FNEG>
0.23562403

>  <PEOE_VSA_FPNEG>
0.01712778

>  <PEOE_VSA_FPOL>
0.01712778

>  <PEOE_VSA_FPOS>
0.76437598

>  <PEOE_VSA_FPPOS>
0

>  <PEOE_VSA_HYD>
143.67726

>  <PEOE_VSA_NEG>
34.44376

>  <PEOE_VSA_PNEG>
2.503756

>  <PEOE_VSA_POL>
2.503756

>  <PEOE_VSA_POS>
111.73725

>  <PEOE_VSA_PPOS>
0

>  <petitjean>
0.40000001

>  <petitjeanSC>
0.66666669

>  <Q_PC+>
0

>  <Q_PC->
0

>  <Q_RPC+>
0

>  <Q_RPC->
0

>  <Q_VSA_FHYD>
1

>  <Q_VSA_FNEG>
0

>  <Q_VSA_FPNEG>
0

>  <Q_VSA_FPOL>
0

>  <Q_VSA_FPOS>
1

>  <Q_VSA_FPPOS>
0

>  <Q_VSA_HYD>
146.18102

>  <Q_VSA_NEG>
0

>  <Q_VSA_PNEG>
0

>  <Q_VSA_POL>
0

>  <Q_VSA_POS>
146.18102

>  <Q_VSA_PPOS>
0

>  <radius>
3

>  <reactive>
0

>  <rings>
1

>  <RPC+>
0

>  <RPC->
0

>  <rsynth>
1

>  <SlogP>
0.33849999

>  <SlogP_VSA0>
0

>  <SlogP_VSA1>
3.1243138

>  <SlogP_VSA2>
10.999887

>  <SlogP_VSA3>
97.171249

>  <SlogP_VSA4>
0

>  <SlogP_VSA5>
0

>  <SlogP_VSA6>
0

>  <SlogP_VSA7>
0

>  <SlogP_VSA8>
0

>  <SlogP_VSA9>
33.326015

>  <SMR>
3.2932999

>  <SMR_VSA0>
10.999887

>  <SMR_VSA1>
3.1243138

>  <SMR_VSA2>
0

>  <SMR_VSA3>
0

>  <SMR_VSA4>
0

>  <SMR_VSA5>
0

>  <SMR_VSA6>
97.171249

>  <SMR_VSA7>
33.326015

>  <TPSA>
12.47

>  <VAdjEq>
0.8112781

>  <VAdjMa>
4

>  <VDistEq>
2.0596514

>  <VDistMa>
5.6422834

>  <vdw_area>
146.18102

>  <vdw_vol>
175.13934

>  <vsa_acc>
2.503756

>  <vsa_acid>
0

>  <vsa_base>
0

>  <vsa_don>
0

>  <vsa_hyd>
134.42392

>  <vsa_other>
0

>  <vsa_pol>
2.503756

>  <Weight>
115.17599

>  <weinerPath>
64

>  <weinerPol>
7

>  <zagreb>
34

$$$$