P(OCC(OC(=O)CCCCCCCC=CCCCCCCCC)COC(=O)CCCCCCCC=CCCCCCCCC)(OCCN1C(=O)CCC1=O)(O)=O
  MOE2013           2D

 57 57  0  0  1  0  0  0  0  0999 V2000
    0.0000    0.0000    0.0000 P   0  0  3  0  0  0  0  0  0  0  0  0
   -0.7570   -1.2950    0.0000 O   0  0  0  0  0  0  0  0  0  0  0  0
   -0.0140   -2.5980    0.0000 C   0  0  0  0  0  0  0  0  0  0  0  0
   -0.7710   -3.8930    0.0000 C   0  0  3  0  0  0  0  0  0  0  0  0
   -2.2710   -3.8850    0.0000 O   0  0  0  0  0  0  0  0  0  0  0  0
   -3.0280   -5.1800    0.0000 C   0  0  0  0  0  0  0  0  0  0  0  0
   -2.2860   -6.4830    0.0000 O   0  0  0  0  0  0  0  0  0  0  0  0
   -4.5280   -5.1710    0.0000 C   0  0  0  0  0  0  0  0  0  0  0  0
   -5.2860   -6.4660    0.0000 C   0  0  0  0  0  0  0  0  0  0  0  0
   -6.7860   -6.4580    0.0000 C   0  0  0  0  0  0  0  0  0  0  0  0
   -7.5430   -7.7530    0.0000 C   0  0  0  0  0  0  0  0  0  0  0  0
   -9.0430   -7.7450    0.0000 C   0  0  0  0  0  0  0  0  0  0  0  0
   -9.8000   -9.0400    0.0000 C   0  0  0  0  0  0  0  0  0  0  0  0
  -11.3000   -9.0310    0.0000 C   0  0  0  0  0  0  0  0  0  0  0  0
  -12.0570  -10.3260    0.0000 C   0  0  0  0  0  0  0  0  0  0  0  0
  -13.5570  -10.3180    0.0000 C   0  0  0  0  0  0  0  0  0  0  0  0
  -14.3140  -11.6130    0.0000 C   0  0  0  0  0  0  0  0  0  0  0  0
  -15.8140  -11.6050    0.0000 C   0  0  0  0  0  0  0  0  0  0  0  0
  -16.5710  -12.9000    0.0000 C   0  0  0  0  0  0  0  0  0  0  0  0
  -18.0710  -12.8910    0.0000 C   0  0  0  0  0  0  0  0  0  0  0  0
  -18.8280  -14.1860    0.0000 C   0  0  0  0  0  0  0  0  0  0  0  0
  -20.3280  -14.1780    0.0000 C   0  0  0  0  0  0  0  0  0  0  0  0
  -21.0850  -15.4730    0.0000 C   0  0  0  0  0  0  0  0  0  0  0  0
  -22.5850  -15.4650    0.0000 C   0  0  0  0  0  0  0  0  0  0  0  0
   -0.0290   -5.1960    0.0000 C   0  0  0  0  0  0  0  0  0  0  0  0
    1.4710   -5.2040    0.0000 O   0  0  0  0  0  0  0  0  0  0  0  0
    2.2140   -6.5070    0.0000 C   0  0  0  0  0  0  0  0  0  0  0  0
    1.4570   -7.8020    0.0000 O   0  0  0  0  0  0  0  0  0  0  0  0
    3.7140   -6.5160    0.0000 C   0  0  0  0  0  0  0  0  0  0  0  0
    4.4570   -7.8190    0.0000 C   0  0  0  0  0  0  0  0  0  0  0  0
    5.9570   -7.8270    0.0000 C   0  0  0  0  0  0  0  0  0  0  0  0
    6.7000   -9.1300    0.0000 C   0  0  0  0  0  0  0  0  0  0  0  0
    8.2000   -9.1380    0.0000 C   0  0  0  0  0  0  0  0  0  0  0  0
    8.9430  -10.4420    0.0000 C   0  0  0  0  0  0  0  0  0  0  0  0
   10.4430  -10.4500    0.0000 C   0  0  0  0  0  0  0  0  0  0  0  0
   11.1860  -11.7530    0.0000 C   0  0  0  0  0  0  0  0  0  0  0  0
   12.6860  -11.7610    0.0000 C   0  0  0  0  0  0  0  0  0  0  0  0
   13.4290  -13.0640    0.0000 C   0  0  0  0  0  0  0  0  0  0  0  0
   14.9280  -13.0730    0.0000 C   0  0  0  0  0  0  0  0  0  0  0  0
   15.6710  -14.3760    0.0000 C   0  0  0  0  0  0  0  0  0  0  0  0
   17.1710  -14.3840    0.0000 C   0  0  0  0  0  0  0  0  0  0  0  0
   17.9140  -15.6870    0.0000 C   0  0  0  0  0  0  0  0  0  0  0  0
   19.4140  -15.6950    0.0000 C   0  0  0  0  0  0  0  0  0  0  0  0
   20.1570  -16.9980    0.0000 C   0  0  0  0  0  0  0  0  0  0  0  0
   21.6570  -17.0070    0.0000 C   0  0  0  0  0  0  0  0  0  0  0  0
   -1.2950    0.7570    0.0000 O   0  0  0  0  0  0  0  0  0  0  0  0
   -1.2870    2.2570    0.0000 C   0  0  0  0  0  0  0  0  0  0  0  0
   -2.5820    3.0140    0.0000 C   0  0  0  0  0  0  0  0  0  0  0  0
   -2.5730    4.5140    0.0000 N   0  0  0  0  0  0  0  0  0  0  0  0
   -1.3550    5.3890    0.0000 C   0  0  0  0  0  0  0  0  0  0  0  0
    0.0690    4.9180    0.0000 O   0  0  0  0  0  0  0  0  0  0  0  0
   -1.8110    6.8180    0.0000 C   0  0  0  0  0  0  0  0  0  0  0  0
   -3.3110    6.8270    0.0000 C   0  0  0  0  0  0  0  0  0  0  0  0
   -3.7820    5.4030    0.0000 C   0  0  0  0  0  0  0  0  0  0  0  0
   -5.2110    4.9470    0.0000 O   0  0  0  0  0  0  0  0  0  0  0  0
    1.2950   -0.7570    0.0000 O   0  0  0  0  0  0  0  0  0  0  0  0
    0.7570    1.2950    0.0000 O   0  0  0  0  0  0  0  0  0  0  0  0
  1  2  1  0  0  0  0
  1 46  1  0  0  0  0
  1 56  1  0  0  0  0
  1 57  2  0  0  0  0
  2  3  1  0  0  0  0
  3  4  1  0  0  0  0
  4  5  1  0  0  0  0
  4 25  1  0  0  0  0
  5  6  1  0  0  0  0
  6  7  2  0  0  0  0
  6  8  1  0  0  0  0
  8  9  1  0  0  0  0
  9 10  1  0  0  0  0
 10 11  1  0  0  0  0
 11 12  1  0  0  0  0
 12 13  1  0  0  0  0
 13 14  1  0  0  0  0
 14 15  1  0  0  0  0
 15 16  2  3  0  0  0
 16 17  1  0  0  0  0
 17 18  1  0  0  0  0
 18 19  1  0  0  0  0
 19 20  1  0  0  0  0
 20 21  1  0  0  0  0
 21 22  1  0  0  0  0
 22 23  1  0  0  0  0
 23 24  1  0  0  0  0
 25 26  1  0  0  0  0
 26 27  1  0  0  0  0
 27 28  2  0  0  0  0
 27 29  1  0  0  0  0
 29 30  1  0  0  0  0
 30 31  1  0  0  0  0
 31 32  1  0  0  0  0
 32 33  1  0  0  0  0
 33 34  1  0  0  0  0
 34 35  1  0  0  0  0
 35 36  1  0  0  0  0
 36 37  2  3  0  0  0
 37 38  1  0  0  0  0
 38 39  1  0  0  0  0
 39 40  1  0  0  0  0
 40 41  1  0  0  0  0
 41 42  1  0  0  0  0
 42 43  1  0  0  0  0
 43 44  1  0  0  0  0
 44 45  1  0  0  0  0
 46 47  1  0  0  0  0
 47 48  1  0  0  0  0
 48 49  1  0  0  0  0
 49 50  1  0  0  0  0
 49 54  1  0  0  0  0
 50 51  2  0  0  0  0
 50 52  1  0  0  0  0
 52 53  1  0  0  0  0
 53 54  1  0  0  0  0
 54 55  2  0  0  0  0
M  END
>  <Index>
1414

>  <ID>
HT4011

>  <class>
0

>  <apol>
145.29344

>  <ast_fraglike>
0

>  <ast_fraglike_ext>
0

>  <ast_violation>
3

>  <ast_violation_ext>
5

>  <a_acc>
8

>  <a_acid>
0

>  <a_aro>
0

>  <a_base>
0

>  <a_count>
137

>  <a_don>
2

>  <a_donacc>
10

>  <a_heavy>
57

>  <a_hyd>
41

>  <a_IC>
186.32347

>  <a_ICM>
1.3600254

>  <a_nB>
0

>  <a_nBr>
0

>  <a_nC>
45

>  <a_nCl>
0

>  <a_nF>
0

>  <a_nH>
80

>  <a_nI>
0

>  <a_nN>
1

>  <a_nO>
10

>  <a_nP>
1

>  <a_nS>
0

>  <balabanJ>
2.2973351

>  <BCUT_PEOE_0>
-2.7011967

>  <BCUT_PEOE_1>
-0.56714618

>  <BCUT_PEOE_2>
0.57421416

>  <BCUT_PEOE_3>
2.6510704

>  <BCUT_SLOGP_0>
-2.6785285

>  <BCUT_SLOGP_1>
-0.45598853

>  <BCUT_SLOGP_2>
0.51546097

>  <BCUT_SLOGP_3>
2.8054645

>  <BCUT_SMR_0>
-2.4470215

>  <BCUT_SMR_1>
-0.4294394

>  <BCUT_SMR_2>
0.72982931

>  <BCUT_SMR_3>
2.8943167

>  <bpol>
109.37056

>  <b_1rotN>
40

>  <b_1rotR>
0.70175439

>  <b_ar>
0

>  <b_count>
137

>  <b_double>
6

>  <b_heavy>
57

>  <b_max1len>
10

>  <b_rotN>
42

>  <b_rotR>
0.7368421

>  <b_single>
131

>  <b_triple>
0

>  <chi0>
41.662586

>  <chi0v>
36.838684

>  <chi0v_C>
30.928381

>  <chi0_C>
31.756809

>  <chi1>
27.679871

>  <chi1v>
24.277664

>  <chi1v_C>
18.944584

>  <chi1_C>
19.863703

>  <chiral>
2

>  <chiral_u>
2

>  <density>
0.69029611

>  <diameter>
39

>  <FCharge>
0

>  <GCUT_PEOE_0>
-0.80317861

>  <GCUT_PEOE_1>
-0.41207814

>  <GCUT_PEOE_2>
0.064227425

>  <GCUT_PEOE_3>
2.887074

>  <GCUT_SLOGP_0>
-1.2938874

>  <GCUT_SLOGP_1>
-0.29051477

>  <GCUT_SLOGP_2>
0.0025053206

>  <GCUT_SLOGP_3>
2.9729593

>  <GCUT_SMR_0>
-0.5340119

>  <GCUT_SMR_1>
-0.18347558

>  <GCUT_SMR_2>
0.17423289

>  <GCUT_SMR_3>
3.1031668

>  <Kier1>
55.017544

>  <Kier2>
38.888889

>  <Kier3>
34.298676

>  <KierA1>
51.1674

>  <KierA2>
36.11945

>  <KierA3>
31.826536

>  <KierFlex>
32.423481

>  <lip_acc>
11

>  <lip_don>
1

>  <lip_druglike>
0

>  <lip_violation>
3

>  <logP(o/w)>
9.8794804

>  <logS>
-15.50369

>  <mr>
23.556345

>  <mutagenic>
0

>  <nmol>
1

>  <opr_brigid>
7

>  <opr_leadlike>
0

>  <opr_nring>
1

>  <opr_nrot>
40

>  <opr_violation>
4

>  <PC+>
0

>  <PC->
0

>  <PEOE_PC+>
4.6658502

>  <PEOE_PC->
-4.6658502

>  <PEOE_RPC+>
0.088712469

>  <PEOE_RPC->
0.066987209

>  <PEOE_VSA+0>
346.57458

>  <PEOE_VSA+1>
83.242355

>  <PEOE_VSA+2>
4.9049287

>  <PEOE_VSA+3>
10.324173

>  <PEOE_VSA+4>
25.899061

>  <PEOE_VSA+5>
29.416998

>  <PEOE_VSA+6>
18.713068

>  <PEOE_VSA-0>
87.01313

>  <PEOE_VSA-1>
225.73598

>  <PEOE_VSA-2>
15.729136

>  <PEOE_VSA-3>
0

>  <PEOE_VSA-4>
0

>  <PEOE_VSA-5>
73.529381

>  <PEOE_VSA-6>
5.0075121

>  <PEOE_VSA_FHYD>
0.83525795

>  <PEOE_VSA_FNEG>
0.43949834

>  <PEOE_VSA_FPNEG>
0.084804788

>  <PEOE_VSA_FPOL>
0.16474205

>  <PEOE_VSA_FPOS>
0.56050169

>  <PEOE_VSA_FPPOS>
0.079937264

>  <PEOE_VSA_HYD>
773.52429

>  <PEOE_VSA_NEG>
407.01514

>  <PEOE_VSA_PNEG>
78.536896

>  <PEOE_VSA_POL>
152.56602

>  <PEOE_VSA_POS>
519.0752

>  <PEOE_VSA_PPOS>
74.029129

>  <petitjean>
0.48717949

>  <petitjeanSC>
0.94999999

>  <Q_PC+>
0

>  <Q_PC->
0

>  <Q_RPC+>
0

>  <Q_RPC->
0

>  <Q_VSA_FHYD>
1

>  <Q_VSA_FNEG>
0

>  <Q_VSA_FPNEG>
0

>  <Q_VSA_FPOL>
0

>  <Q_VSA_FPOS>
1

>  <Q_VSA_FPPOS>
0

>  <Q_VSA_HYD>
926.09033

>  <Q_VSA_NEG>
0

>  <Q_VSA_PNEG>
0

>  <Q_VSA_POL>
0

>  <Q_VSA_POS>
926.09033

>  <Q_VSA_PPOS>
0

>  <radius>
20

>  <reactive>
0

>  <rings>
1

>  <RPC+>
0

>  <RPC->
0

>  <rsynth>
1

>  <SlogP>
10.7288

>  <SlogP_VSA0>
43.740734

>  <SlogP_VSA1>
29.132809

>  <SlogP_VSA2>
137.76054

>  <SlogP_VSA3>
81.218353

>  <SlogP_VSA4>
0

>  <SlogP_VSA5>
0

>  <SlogP_VSA6>
0

>  <SlogP_VSA7>
70.572739

>  <SlogP_VSA8>
566.05219

>  <SlogP_VSA9>
83.34687

>  <SMR>
22.673981

>  <SMR_VSA0>
153.72566

>  <SMR_VSA1>
24.431282

>  <SMR_VSA2>
0

>  <SMR_VSA3>
6.4686494

>  <SMR_VSA4>
0

>  <SMR_VSA5>
636.62488

>  <SMR_VSA6>
107.22685

>  <SMR_VSA7>
83.34687

>  <TPSA>
145.74001

>  <VAdjEq>
0.2192973

>  <VAdjMa>
6.83289

>  <VDistEq>
4.9476228

>  <VDistMa>
11.35578

>  <vdw_area>
926.09033

>  <vdw_vol>
1196.7415

>  <vsa_acc>
63.599628

>  <vsa_acid>
0

>  <vsa_base>
0

>  <vsa_don>
0

>  <vsa_hyd>
691.23914

>  <vsa_other>
79.036644

>  <vsa_pol>
95.057899

>  <Weight>
826.10596

>  <weinerPath>
21765

>  <weinerPol>
64

>  <zagreb>
246

$$$$