S(=O)(=O)(Nc1nc(cc(n1)C)C)c1ccc(N)cc1
  MOE2013           2D

 19 20  0  0  0  0  0  0  0  0999 V2000
    0.0000    0.0000    0.0000 S   0  0  0  0  0  0  0  0  0  0  0  0
   -0.7590    1.2940    0.0000 O   0  0  0  0  0  0  0  0  0  0  0  0
    0.7590   -1.2940    0.0000 O   0  0  0  0  0  0  0  0  0  0  0  0
   -1.2940   -0.7590    0.0000 N   0  0  0  0  0  0  0  0  0  0  0  0
   -2.5980   -0.0170    0.0000 C   0  0  0  0  0  0  0  0  0  0  0  0
   -2.6080    1.4830    0.0000 N   0  0  0  0  0  0  0  0  0  0  0  0
   -3.9120    2.2240    0.0000 C   0  0  0  0  0  0  0  0  0  0  0  0
   -5.2060    1.4660    0.0000 C   0  0  0  0  0  0  0  0  0  0  0  0
   -5.1960   -0.0340    0.0000 C   0  0  0  0  0  0  0  0  0  0  0  0
   -3.8920   -0.7760    0.0000 N   0  0  0  0  0  0  0  0  0  0  0  0
   -6.4900   -0.7930    0.0000 C   0  0  0  0  0  0  0  0  0  0  0  0
   -3.9220    3.7240    0.0000 C   0  0  0  0  0  0  0  0  0  0  0  0
    1.2940    0.7590    0.0000 C   0  0  0  0  0  0  0  0  0  0  0  0
    1.2840    2.2590    0.0000 C   0  0  0  0  0  0  0  0  0  0  0  0
    2.5780    3.0170    0.0000 C   0  0  0  0  0  0  0  0  0  0  0  0
    3.8820    2.2760    0.0000 C   0  0  0  0  0  0  0  0  0  0  0  0
    5.1760    3.0340    0.0000 N   0  0  0  0  0  0  0  0  0  0  0  0
    3.8920    0.7760    0.0000 C   0  0  0  0  0  0  0  0  0  0  0  0
    2.5980    0.0170    0.0000 C   0  0  0  0  0  0  0  0  0  0  0  0
  1  2  2  0  0  0  0
  1  3  2  0  0  0  0
  1  4  1  0  0  0  0
  1 13  1  0  0  0  0
  4  5  1  0  0  0  0
  5  6  1  0  0  0  0
  5 10  2  0  0  0  0
  6  7  2  0  0  0  0
  7  8  1  0  0  0  0
  7 12  1  0  0  0  0
  8  9  2  0  0  0  0
  9 10  1  0  0  0  0
  9 11  1  0  0  0  0
 13 14  1  0  0  0  0
 13 19  2  0  0  0  0
 14 15  2  0  0  0  0
 15 16  1  0  0  0  0
 16 17  1  0  0  0  0
 16 18  2  0  0  0  0
 18 19  1  0  0  0  0
M  END
>  <Index>
1017

>  <ID>
HT1943

>  <class>
0

>  <apol>
39.3591

>  <ast_fraglike>
0

>  <ast_fraglike_ext>
0

>  <ast_violation>
1

>  <ast_violation_ext>
2

>  <a_acc>
4

>  <a_acid>
0

>  <a_aro>
12

>  <a_base>
0

>  <a_count>
33

>  <a_don>
2

>  <a_donacc>
6

>  <a_heavy>
19

>  <a_hyd>
11

>  <a_IC>
60.142487

>  <a_ICM>
1.8224996

>  <a_nB>
0

>  <a_nBr>
0

>  <a_nC>
12

>  <a_nCl>
0

>  <a_nF>
0

>  <a_nH>
14

>  <a_nI>
0

>  <a_nN>
4

>  <a_nO>
2

>  <a_nP>
0

>  <a_nS>
1

>  <balabanJ>
1.8961365

>  <BCUT_PEOE_0>
-2.3576353

>  <BCUT_PEOE_1>
-0.653373

>  <BCUT_PEOE_2>
0.55835265

>  <BCUT_PEOE_3>
2.4556155

>  <BCUT_SLOGP_0>
-2.4408369

>  <BCUT_SLOGP_1>
-0.61744845

>  <BCUT_SLOGP_2>
0.64825791

>  <BCUT_SLOGP_3>
2.4020061

>  <BCUT_SMR_0>
-2.0315015

>  <BCUT_SMR_1>
-0.46047735

>  <BCUT_SMR_2>
0.86032975

>  <BCUT_SMR_3>
2.7650247

>  <bpol>
24.420898

>  <b_1rotN>
3

>  <b_1rotR>
0.15000001

>  <b_ar>
12

>  <b_count>
34

>  <b_double>
0

>  <b_heavy>
20

>  <b_max1len>
3

>  <b_rotN>
3

>  <b_rotR>
0.15000001

>  <b_single>
22

>  <b_triple>
0

>  <chi0>
14.043606

>  <chi0v>
11.39977

>  <chi0v_C>
7.3867512

>  <chi0_C>
8.4222851

>  <chi1>
8.8650103

>  <chi1v>
7.0565648

>  <chi1v_C>
3.3987174

>  <chi1_C>
4.6041903

>  <chiral>
0

>  <chiral_u>
0

>  <density>
0.80873704

>  <diameter>
10

>  <FCharge>
0

>  <GCUT_PEOE_0>
-0.84578598

>  <GCUT_PEOE_1>
-0.38198388

>  <GCUT_PEOE_2>
0.0069853244

>  <GCUT_PEOE_3>
2.3674693

>  <GCUT_SLOGP_0>
-1.3342916

>  <GCUT_SLOGP_1>
-0.41371918

>  <GCUT_SLOGP_2>
0.08815179

>  <GCUT_SLOGP_3>
2.4204288

>  <GCUT_SMR_0>
-0.4857969

>  <GCUT_SMR_1>
-0.20178969

>  <GCUT_SMR_2>
0.21407171

>  <GCUT_SMR_3>
2.659765

>  <Kier1>
15.39

>  <Kier2>
6.1854935

>  <Kier3>
4.2314048

>  <KierA1>
11.953475

>  <KierA2>
4.7314849

>  <KierA3>
3.198272

>  <KierFlex>
2.9767206

>  <lip_acc>
6

>  <lip_don>
3

>  <lip_druglike>
1

>  <lip_violation>
0

>  <logP(o/w)>
0.52899998

>  <logS>
-2.8989799

>  <mr>
7.3544855

>  <mutagenic>
1

>  <nmol>
1

>  <opr_brigid>
12

>  <opr_leadlike>
1

>  <opr_nring>
2

>  <opr_nrot>
2

>  <opr_violation>
0

>  <PC+>
0

>  <PC->
0

>  <PEOE_PC+>
1.5515243

>  <PEOE_PC->
-1.5515243

>  <PEOE_RPC+>
0.19997916

>  <PEOE_RPC->
0.25249997

>  <PEOE_VSA+0>
72.483246

>  <PEOE_VSA+1>
21.326929

>  <PEOE_VSA+2>
25.857038

>  <PEOE_VSA+3>
0

>  <PEOE_VSA+4>
10.105608

>  <PEOE_VSA+5>
0

>  <PEOE_VSA+6>
4.1846013

>  <PEOE_VSA-0>
107.42079

>  <PEOE_VSA-1>
14.784426

>  <PEOE_VSA-2>
0

>  <PEOE_VSA-3>
0

>  <PEOE_VSA-4>
0

>  <PEOE_VSA-5>
0

>  <PEOE_VSA-6>
18.016272

>  <PEOE_VSA_FHYD>
0.88217008

>  <PEOE_VSA_FNEG>
0.51142329

>  <PEOE_VSA_FPNEG>
0.065709911

>  <PEOE_VSA_FPOL>
0.11782993

>  <PEOE_VSA_FPOS>
0.48857671

>  <PEOE_VSA_FPPOS>
0.052120019

>  <PEOE_VSA_HYD>
241.87244

>  <PEOE_VSA_NEG>
140.22148

>  <PEOE_VSA_PNEG>
18.016272

>  <PEOE_VSA_POL>
32.30648

>  <PEOE_VSA_POS>
133.95743

>  <PEOE_VSA_PPOS>
14.29021

>  <petitjean>
0.5

>  <petitjeanSC>
1

>  <Q_PC+>
0

>  <Q_PC->
0

>  <Q_RPC+>
0

>  <Q_RPC->
0

>  <Q_VSA_FHYD>
1

>  <Q_VSA_FNEG>
0

>  <Q_VSA_FPNEG>
0

>  <Q_VSA_FPOL>
0

>  <Q_VSA_FPOS>
1

>  <Q_VSA_FPPOS>
0

>  <Q_VSA_HYD>
274.17892

>  <Q_VSA_NEG>
0

>  <Q_VSA_PNEG>
0

>  <Q_VSA_POL>
0

>  <Q_VSA_POS>
274.17892

>  <Q_VSA_PPOS>
0

>  <radius>
5

>  <reactive>
0

>  <rings>
2

>  <RPC+>
0

>  <RPC->
0

>  <rsynth>
1

>  <SlogP>
1.47644

>  <SlogP_VSA0>
32.897186

>  <SlogP_VSA1>
98.147743

>  <SlogP_VSA2>
6.6407428

>  <SlogP_VSA3>
0

>  <SlogP_VSA4>
5.513495

>  <SlogP_VSA5>
1.5507339

>  <SlogP_VSA6>
0

>  <SlogP_VSA7>
88.215919

>  <SlogP_VSA8>
0

>  <SlogP_VSA9>
71.307869

>  <SMR>
7.3168898

>  <SMR_VSA0>
48.171688

>  <SMR_VSA1>
33.57106

>  <SMR_VSA2>
1.5507339

>  <SMR_VSA3>
5.513495

>  <SMR_VSA4>
21.060839

>  <SMR_VSA5>
121.11311

>  <SMR_VSA6>
0

>  <SMR_VSA7>
73.29277

>  <TPSA>
97.970001

>  <VAdjEq>
0.5023343

>  <VAdjMa>
5.321928

>  <VDistEq>
3.1115375

>  <VDistMa>
8.1933012

>  <vdw_area>
274.17892

>  <vdw_vol>
344.16132

>  <vsa_acc>
43.381676

>  <vsa_acid>
0

>  <vsa_base>
0

>  <vsa_don>
25.817696

>  <vsa_hyd>
162.14262

>  <vsa_other>
25.787182

>  <vsa_pol>
69.199371

>  <Weight>
278.336

>  <weinerPath>
722

>  <weinerPol>
27

>  <zagreb>
98

$$$$