F[C@@]12[C@H]([C@@H]3C[C@H]4OC(O[C@@]4(C(=O)CO)[C@]3(C[C@@H]1O)C)(C)C)CCC1=CC(=O)C=C[C@@]12C
  MOE2013           2D

 31 35  0  0  1  0  0  0  0  0999 V2000
    0.0000    0.0000    0.0000 F   0  0  0  0  0  0  0  0  0  0  0  0
    1.5000   -0.0010    0.0000 C   0  0  1  0  0  0  0  0  0  0  0  0
    0.7490   -1.3000    0.0000 C   0  0  2  0  0  0  0  0  0  0  0  0
   -0.7510   -1.2990    0.0000 C   0  0  2  0  0  0  0  0  0  0  0  0
   -1.7550   -2.4130    0.0000 C   0  0  0  0  0  0  0  0  0  0  0  0
   -3.1250   -1.8020    0.0000 C   0  0  1  0  0  0  0  0  0  0  0  0
   -4.5930   -2.1120    0.0000 O   0  0  0  0  0  0  0  0  0  0  0  0
   -5.3420   -0.8130    0.0000 C   0  0  0  0  0  0  0  0  0  0  0  0
   -4.3370    0.3010    0.0000 O   0  0  0  0  0  0  0  0  0  0  0  0
   -2.9670   -0.3100    0.0000 C   0  0  2  0  0  0  0  0  0  0  0  0
   -3.3550    1.1390    0.0000 C   0  0  0  0  0  0  0  0  0  0  0  0
   -2.2930    2.1990    0.0000 O   0  0  0  0  0  0  0  0  0  0  0  0
   -4.8030    1.5290    0.0000 C   0  0  0  0  0  0  0  0  0  0  0  0
   -5.1910    2.9780    0.0000 O   0  0  0  0  0  0  0  0  0  0  0  0
   -1.5000    0.0010    0.0000 C   0  0  1  0  0  0  0  0  0  0  0  0
   -0.7490    1.3000    0.0000 C   0  0  0  0  0  0  0  0  0  0  0  0
    0.7510    1.2990    0.0000 C   0  0  2  0  0  0  0  0  0  0  0  0
    1.5020    2.5970    0.0000 O   0  0  0  0  0  0  0  0  0  0  0  0
   -1.8870    1.4500    0.0000 C   0  0  0  0  0  0  0  0  0  0  0  0
   -6.5510    0.0750    0.0000 C   0  0  0  0  0  0  0  0  0  0  0  0
   -6.6880   -1.4750    0.0000 C   0  0  0  0  0  0  0  0  0  0  0  0
    1.4980   -2.5990    0.0000 C   0  0  0  0  0  0  0  0  0  0  0  0
    2.9980   -2.6000    0.0000 C   0  0  0  0  0  0  0  0  0  0  0  0
    3.7490   -1.3020    0.0000 C   0  0  0  0  0  0  0  0  0  0  0  0
    5.2490   -1.3030    0.0000 C   0  0  0  0  0  0  0  0  0  0  0  0
    6.0000   -0.0040    0.0000 C   0  0  0  0  0  0  0  0  0  0  0  0
    7.5000   -0.0050    0.0000 O   0  0  0  0  0  0  0  0  0  0  0  0
    5.2510    1.2950    0.0000 C   0  0  0  0  0  0  0  0  0  0  0  0
    3.7510    1.2960    0.0000 C   0  0  0  0  0  0  0  0  0  0  0  0
    3.0000   -0.0020    0.0000 C   0  0  2  0  0  0  0  0  0  0  0  0
    2.2510    1.2970    0.0000 C   0  0  0  0  0  0  0  0  0  0  0  0
  2  1  1  1  0  0  0
  2  3  1  0  0  0  0
  2 17  1  0  0  0  0
  2 30  1  0  0  0  0
  3  4  1  0  0  0  0
  3 22  1  1  0  0  0
  4  5  1  6  0  0  0
  4 15  1  0  0  0  0
  5  6  1  0  0  0  0
  6  7  1  1  0  0  0
  6 10  1  0  0  0  0
  7  8  1  0  0  0  0
  8  9  1  0  0  0  0
  8 20  1  0  0  0  0
  8 21  1  0  0  0  0
  9 10  1  0  0  0  0
 10 11  1  6  0  0  0
 10 15  1  0  0  0  0
 11 12  2  0  0  0  0
 11 13  1  0  0  0  0
 13 14  1  0  0  0  0
 15 16  1  0  0  0  0
 15 19  1  6  0  0  0
 16 17  1  0  0  0  0
 17 18  1  6  0  0  0
 22 23  1  0  0  0  0
 23 24  1  0  0  0  0
 24 25  2  0  0  0  0
 24 30  1  0  0  0  0
 25 26  1  0  0  0  0
 26 27  2  0  0  0  0
 26 28  1  0  0  0  0
 28 29  2  0  0  0  0
 29 30  1  0  0  0  0
 30 31  1  6  0  0  0
M  END
>  <Index>
1103

>  <ID>
HT2106

>  <class>
0

>  <apol>
68.279587

>  <ast_fraglike>
0

>  <ast_fraglike_ext>
0

>  <ast_violation>
2

>  <ast_violation_ext>
2

>  <a_acc>
6

>  <a_acid>
0

>  <a_aro>
0

>  <a_base>
0

>  <a_count>
62

>  <a_don>
2

>  <a_donacc>
8

>  <a_heavy>
31

>  <a_hyd>
22

>  <a_IC>
90.031212

>  <a_ICM>
1.4521163

>  <a_nB>
0

>  <a_nBr>
0

>  <a_nC>
24

>  <a_nCl>
0

>  <a_nF>
1

>  <a_nH>
31

>  <a_nI>
0

>  <a_nN>
0

>  <a_nO>
6

>  <a_nP>
0

>  <a_nS>
0

>  <balabanJ>
1.5861104

>  <BCUT_PEOE_0>
-2.8983986

>  <BCUT_PEOE_1>
-0.49969614

>  <BCUT_PEOE_2>
0.47583959

>  <BCUT_PEOE_3>
3.018235

>  <BCUT_SLOGP_0>
-2.9223359

>  <BCUT_SLOGP_1>
-0.42694277

>  <BCUT_SLOGP_2>
0.50881428

>  <BCUT_SLOGP_3>
2.9911039

>  <BCUT_SMR_0>
-2.6730254

>  <BCUT_SMR_1>
-0.33527303

>  <BCUT_SMR_2>
0.62881148

>  <BCUT_SMR_3>
3.2364507

>  <bpol>
40.840416

>  <b_1rotN>
2

>  <b_1rotR>
0.057142857

>  <b_ar>
0

>  <b_count>
66

>  <b_double>
4

>  <b_heavy>
35

>  <b_max1len>
4

>  <b_rotN>
2

>  <b_rotR>
0.057142857

>  <b_single>
62

>  <b_triple>
0

>  <chi0>
22.61252

>  <chi0v>
18.48237

>  <chi0v_C>
15.576985

>  <chi0_C>
16.198307

>  <chi1>
14.354792

>  <chi1v>
11.189453

>  <chi1v_C>
9.1697206

>  <chi1_C>
9.9467258

>  <chiral>
8

>  <chiral_u>
0

>  <density>
0.77206773

>  <diameter>
12

>  <FCharge>
0

>  <GCUT_PEOE_0>
-0.78990138

>  <GCUT_PEOE_1>
-0.3964605

>  <GCUT_PEOE_2>
0.010557691

>  <GCUT_PEOE_3>
3.4293461

>  <GCUT_SLOGP_0>
-0.95003814

>  <GCUT_SLOGP_1>
-0.3396588

>  <GCUT_SLOGP_2>
-0.0034229194

>  <GCUT_SLOGP_3>
3.4379406

>  <GCUT_SMR_0>
-0.5367564

>  <GCUT_SMR_1>
-0.21402407

>  <GCUT_SMR_2>
0.14321753

>  <GCUT_SMR_3>
3.6416998

>  <Kier1>
22.775511

>  <Kier2>
6.7804356

>  <Kier3>
2.6060941

>  <KierA1>
20.221441

>  <KierA2>
5.9951911

>  <KierA3>
2.2973127

>  <KierFlex>
3.9106903

>  <lip_acc>
6

>  <lip_don>
2

>  <lip_druglike>
1

>  <lip_violation>
0

>  <logP(o/w)>
3.1329999

>  <logS>
-4.1226301

>  <mr>
10.975589

>  <mutagenic>
0

>  <nmol>
1

>  <opr_brigid>
24

>  <opr_leadlike>
1

>  <opr_nring>
5

>  <opr_nrot>
2

>  <opr_violation>
1

>  <PC+>
0

>  <PC->
0

>  <PEOE_PC+>
2.6802237

>  <PEOE_PC->
-2.6802237

>  <PEOE_RPC+>
0.078340262

>  <PEOE_RPC->
0.14498067

>  <PEOE_VSA+0>
93.838493

>  <PEOE_VSA+1>
39.667561

>  <PEOE_VSA+2>
14.951293

>  <PEOE_VSA+3>
18.025583

>  <PEOE_VSA+4>
20.648346

>  <PEOE_VSA+5>
0

>  <PEOE_VSA+6>
0

>  <PEOE_VSA-0>
115.55809

>  <PEOE_VSA-1>
33.211121

>  <PEOE_VSA-2>
0

>  <PEOE_VSA-3>
0

>  <PEOE_VSA-4>
11.908636

>  <PEOE_VSA-5>
27.133842

>  <PEOE_VSA-6>
20.542593

>  <PEOE_VSA_FHYD>
0.79712683

>  <PEOE_VSA_FNEG>
0.52683157

>  <PEOE_VSA_FPNEG>
0.15066308

>  <PEOE_VSA_FPOL>
0.20287319

>  <PEOE_VSA_FPOS>
0.4731684

>  <PEOE_VSA_FPPOS>
0.052210111

>  <PEOE_VSA_HYD>
315.25214

>  <PEOE_VSA_NEG>
208.35428

>  <PEOE_VSA_PNEG>
59.585072

>  <PEOE_VSA_POL>
80.233414

>  <PEOE_VSA_POS>
187.13127

>  <PEOE_VSA_PPOS>
20.648346

>  <petitjean>
0.5

>  <petitjeanSC>
1

>  <Q_PC+>
0

>  <Q_PC->
0

>  <Q_RPC+>
0

>  <Q_RPC->
0

>  <Q_VSA_FHYD>
1

>  <Q_VSA_FNEG>
0

>  <Q_VSA_FPNEG>
0

>  <Q_VSA_FPOL>
0

>  <Q_VSA_FPOS>
1

>  <Q_VSA_FPPOS>
0

>  <Q_VSA_HYD>
395.48557

>  <Q_VSA_NEG>
0

>  <Q_VSA_PNEG>
0

>  <Q_VSA_POL>
0

>  <Q_VSA_POS>
395.48557

>  <Q_VSA_PPOS>
0

>  <radius>
6

>  <reactive>
1

>  <rings>
5

>  <RPC+>
0

>  <RPC->
0

>  <rsynth>
0.38709676

>  <SlogP>
2.4188001

>  <SlogP_VSA0>
50.770454

>  <SlogP_VSA1>
11.375222

>  <SlogP_VSA2>
82.661507

>  <SlogP_VSA3>
20.926258

>  <SlogP_VSA4>
8.8215923

>  <SlogP_VSA5>
3.185575

>  <SlogP_VSA6>
0

>  <SlogP_VSA7>
52.929554

>  <SlogP_VSA8>
75.473625

>  <SlogP_VSA9>
148.26418

>  <SMR>
10.85986

>  <SMR_VSA0>
69.724205

>  <SMR_VSA1>
65.730568

>  <SMR_VSA2>
8.8215923

>  <SMR_VSA3>
16.122873

>  <SMR_VSA4>
0

>  <SMR_VSA5>
128.40317

>  <SMR_VSA6>
32.301479

>  <SMR_VSA7>
133.30406

>  <TPSA>
93.059998

>  <VAdjEq>
0.37643659

>  <VAdjMa>
6.129283

>  <VDistEq>
3.2486529

>  <VDistMa>
9.6558371

>  <vdw_area>
395.48557

>  <vdw_vol>
562.7796

>  <vsa_acc>
32.141354

>  <vsa_acid>
0

>  <vsa_base>
0

>  <vsa_don>
0

>  <vsa_hyd>
285.80304

>  <vsa_other>
18.025583

>  <vsa_pol>
59.275196

>  <Weight>
434.504

>  <weinerPath>
2185

>  <weinerPol>
76

>  <zagreb>
192

$$$$