O=C(N)C(CCC)CCC
  MOE2013           2D

 10  9  0  0  0  0  0  0  0  0999 V2000
    0.0000    0.0000    0.0000 O   0  0  0  0  0  0  0  0  0  0  0  0
    1.2960   -0.7550    0.0000 C   0  0  0  0  0  0  0  0  0  0  0  0
    1.2910   -2.2550    0.0000 N   0  0  0  0  0  0  0  0  0  0  0  0
    2.5980   -0.0100    0.0000 C   0  0  0  0  0  0  0  0  0  0  0  0
    2.6040    1.4900    0.0000 C   0  0  0  0  0  0  0  0  0  0  0  0
    1.3070    2.2450    0.0000 C   0  0  0  0  0  0  0  0  0  0  0  0
    1.3130    3.7450    0.0000 C   0  0  0  0  0  0  0  0  0  0  0  0
    3.8940   -0.7640    0.0000 C   0  0  0  0  0  0  0  0  0  0  0  0
    5.1960   -0.0190    0.0000 C   0  0  0  0  0  0  0  0  0  0  0  0
    6.4920   -0.7740    0.0000 C   0  0  0  0  0  0  0  0  0  0  0  0
  1  2  2  0  0  0  0
  2  3  1  0  0  0  0
  2  4  1  0  0  0  0
  4  5  1  0  0  0  0
  4  8  1  0  0  0  0
  5  6  1  0  0  0  0
  6  7  1  0  0  0  0
  8  9  1  0  0  0  0
  9 10  1  0  0  0  0
M  END
>  <Index>
1218

>  <ID>
HT2602

>  <class>
0

>  <apol>
27.31748

>  <ast_fraglike>
1

>  <ast_fraglike_ext>
0

>  <ast_violation>
0

>  <ast_violation_ext>
1

>  <a_acc>
1

>  <a_acid>
0

>  <a_aro>
0

>  <a_base>
0

>  <a_count>
27

>  <a_don>
1

>  <a_donacc>
2

>  <a_heavy>
10

>  <a_hyd>
7

>  <a_IC>
34.895096

>  <a_ICM>
1.2924109

>  <a_nB>
0

>  <a_nBr>
0

>  <a_nC>
8

>  <a_nCl>
0

>  <a_nF>
0

>  <a_nH>
17

>  <a_nI>
0

>  <a_nN>
1

>  <a_nO>
1

>  <a_nP>
0

>  <a_nS>
0

>  <balabanJ>
3.5176966

>  <BCUT_PEOE_0>
-2.677326

>  <BCUT_PEOE_1>
-0.1461719

>  <BCUT_PEOE_2>
0.23443963

>  <BCUT_PEOE_3>
2.6583488

>  <BCUT_SLOGP_0>
-2.6591685

>  <BCUT_SLOGP_1>
-0.058537379

>  <BCUT_SLOGP_2>
0.26143262

>  <BCUT_SLOGP_3>
2.7589216

>  <BCUT_SMR_0>
-2.4367111

>  <BCUT_SMR_1>
-0.034354825

>  <BCUT_SMR_2>
0.24987817

>  <BCUT_SMR_3>
2.9002483

>  <bpol>
18.882519

>  <b_1rotN>
5

>  <b_1rotR>
0.55555558

>  <b_ar>
0

>  <b_count>
26

>  <b_double>
1

>  <b_heavy>
9

>  <b_max1len>
8

>  <b_rotN>
5

>  <b_rotR>
0.55555558

>  <b_single>
25

>  <b_triple>
0

>  <chi0>
7.9831276

>  <chi0v>
6.891376

>  <chi0v_C>
5.9057775

>  <chi0_C>
5.9831276

>  <chi1>
4.7187438

>  <chi1v>
4.0121846

>  <chi1v_C>
3.5193853

>  <chi1_C>
3.5640435

>  <chiral>
0

>  <chiral_u>
0

>  <density>
0.63606983

>  <diameter>
6

>  <FCharge>
0

>  <GCUT_PEOE_0>
-0.82322288

>  <GCUT_PEOE_1>
-0.21724088

>  <GCUT_PEOE_2>
0.0036830585

>  <GCUT_PEOE_3>
2.4068732

>  <GCUT_SLOGP_0>
-1.3705626

>  <GCUT_SLOGP_1>
-0.11886896

>  <GCUT_SLOGP_2>
0.020558536

>  <GCUT_SLOGP_3>
2.4839442

>  <GCUT_SMR_0>
-0.52890497

>  <GCUT_SMR_1>
-0.11304525

>  <GCUT_SMR_2>
0.0084795989

>  <GCUT_SMR_3>
2.6225166

>  <Kier1>
10

>  <Kier2>
5.7600002

>  <Kier3>
4.48

>  <KierA1>
8.5606346

>  <KierA2>
4.836587

>  <KierA3>
3.7025688

>  <KierFlex>
4.1404252

>  <lip_acc>
2

>  <lip_don>
2

>  <lip_druglike>
1

>  <lip_violation>
0

>  <logP(o/w)>
1.8

>  <logS>
-2.3408799

>  <mr>
4.3420305

>  <mutagenic>
0

>  <nmol>
1

>  <opr_brigid>
0

>  <opr_leadlike>
1

>  <opr_nring>
0

>  <opr_nrot>
5

>  <opr_violation>
0

>  <PC+>
0

>  <PC->
0

>  <PEOE_PC+>
0.96767843

>  <PEOE_PC->
-0.96767843

>  <PEOE_RPC+>
0.22891016

>  <PEOE_RPC->
0.38195148

>  <PEOE_VSA+0>
63.980789

>  <PEOE_VSA+1>
0

>  <PEOE_VSA+2>
0

>  <PEOE_VSA+3>
17.238026

>  <PEOE_VSA+4>
12.949531

>  <PEOE_VSA+5>
0

>  <PEOE_VSA+6>
0

>  <PEOE_VSA-0>
17.402626

>  <PEOE_VSA-1>
54.89798

>  <PEOE_VSA-2>
0

>  <PEOE_VSA-3>
0

>  <PEOE_VSA-4>
0

>  <PEOE_VSA-5>
13.566921

>  <PEOE_VSA-6>
6.6511192

>  <PEOE_VSA_FHYD>
0.82233596

>  <PEOE_VSA_FNEG>
0.49558166

>  <PEOE_VSA_FPNEG>
0.10829914

>  <PEOE_VSA_FPOL>
0.17766407

>  <PEOE_VSA_FPOS>
0.50441837

>  <PEOE_VSA_FPPOS>
0.069364935

>  <PEOE_VSA_HYD>
153.51942

>  <PEOE_VSA_NEG>
92.518646

>  <PEOE_VSA_PNEG>
20.21804

>  <PEOE_VSA_POL>
33.167572

>  <PEOE_VSA_POS>
94.16835

>  <PEOE_VSA_PPOS>
12.949531

>  <petitjean>
0.5

>  <petitjeanSC>
1

>  <Q_PC+>
0

>  <Q_PC->
0

>  <Q_RPC+>
0

>  <Q_RPC->
0

>  <Q_VSA_FHYD>
1

>  <Q_VSA_FNEG>
0

>  <Q_VSA_FPNEG>
0

>  <Q_VSA_FPOL>
0

>  <Q_VSA_FPOS>
1

>  <Q_VSA_FPPOS>
0

>  <Q_VSA_HYD>
186.687

>  <Q_VSA_NEG>
0

>  <Q_VSA_PNEG>
0

>  <Q_VSA_POL>
0

>  <Q_VSA_POS>
186.687

>  <Q_VSA_PPOS>
0

>  <radius>
3

>  <reactive>
0

>  <rings>
0

>  <RPC+>
0

>  <RPC->
0

>  <rsynth>
1

>  <SlogP>
1.6881

>  <SlogP_VSA0>
32.897186

>  <SlogP_VSA1>
5.2587838

>  <SlogP_VSA2>
23.862217

>  <SlogP_VSA3>
0

>  <SlogP_VSA4>
4.4107962

>  <SlogP_VSA5>
0

>  <SlogP_VSA6>
0

>  <SlogP_VSA7>
0

>  <SlogP_VSA8>
75.473625

>  <SlogP_VSA9>
66.652031

>  <SMR>
4.2500401

>  <SMR_VSA0>
23.862217

>  <SMR_VSA1>
0

>  <SMR_VSA2>
4.4107962

>  <SMR_VSA3>
0

>  <SMR_VSA4>
32.897186

>  <SMR_VSA5>
75.473625

>  <SMR_VSA6>
5.2587838

>  <SMR_VSA7>
66.652031

>  <TPSA>
43.09

>  <VAdjEq>
0.68007702

>  <VAdjMa>
4.1699252

>  <VDistEq>
2.4028089

>  <VDistMa>
6.3180299

>  <vdw_area>
186.687

>  <vdw_vol>
225.17967

>  <vsa_acc>
13.566921

>  <vsa_acid>
0

>  <vsa_base>
0

>  <vsa_don>
17.742489

>  <vsa_hyd>
124.25941

>  <vsa_other>
12.949531

>  <vsa_pol>
31.30941

>  <Weight>
143.23

>  <weinerPath>
131

>  <weinerPol>
10

>  <zagreb>
38

$$$$