OC(=O)CCCCCCCCC=C
  MOE2013           2D

 13 12  0  0  0  0  0  0  0  0999 V2000
    0.0000    0.0000    0.0000 O   0  0  0  0  0  0  0  0  0  0  0  0
    0.7390    1.3050    0.0000 C   0  0  0  0  0  0  0  0  0  0  0  0
   -0.0210    2.5980    0.0000 O   0  0  0  0  0  0  0  0  0  0  0  0
    2.2390    1.3170    0.0000 C   0  0  0  0  0  0  0  0  0  0  0  0
    3.0000    0.0240    0.0000 C   0  0  0  0  0  0  0  0  0  0  0  0
    4.5000    0.0360    0.0000 C   0  0  0  0  0  0  0  0  0  0  0  0
    5.2600   -1.2570    0.0000 C   0  0  0  0  0  0  0  0  0  0  0  0
    6.7600   -1.2440    0.0000 C   0  0  0  0  0  0  0  0  0  0  0  0
    7.5210   -2.5370    0.0000 C   0  0  0  0  0  0  0  0  0  0  0  0
    9.0210   -2.5250    0.0000 C   0  0  0  0  0  0  0  0  0  0  0  0
    9.7810   -3.8180    0.0000 C   0  0  0  0  0  0  0  0  0  0  0  0
   11.2810   -3.8060    0.0000 C   0  0  0  0  0  0  0  0  0  0  0  0
   12.0420   -5.0990    0.0000 C   0  0  0  0  0  0  0  0  0  0  0  0
  1  2  1  0  0  0  0
  2  3  2  0  0  0  0
  2  4  1  0  0  0  0
  4  5  1  0  0  0  0
  5  6  1  0  0  0  0
  6  7  1  0  0  0  0
  7  8  1  0  0  0  0
  8  9  1  0  0  0  0
  9 10  1  0  0  0  0
 10 11  1  0  0  0  0
 11 12  1  0  0  0  0
 12 13  2  0  0  0  0
M  END
>  <Index>
1253

>  <ID>
HT2797

>  <class>
0

>  <apol>
34.299858

>  <ast_fraglike>
0

>  <ast_fraglike_ext>
0

>  <ast_violation>
1

>  <ast_violation_ext>
2

>  <a_acc>
2

>  <a_acid>
0

>  <a_aro>
0

>  <a_base>
0

>  <a_count>
33

>  <a_don>
2

>  <a_donacc>
4

>  <a_heavy>
13

>  <a_hyd>
10

>  <a_IC>
39.972694

>  <a_ICM>
1.2112938

>  <a_nB>
0

>  <a_nBr>
0

>  <a_nC>
11

>  <a_nCl>
0

>  <a_nF>
0

>  <a_nH>
20

>  <a_nI>
0

>  <a_nN>
0

>  <a_nO>
2

>  <a_nP>
0

>  <a_nS>
0

>  <balabanJ>
2.840754

>  <BCUT_PEOE_0>
-2.6958115

>  <BCUT_PEOE_1>
-0.56457019

>  <BCUT_PEOE_2>
0.52833045

>  <BCUT_PEOE_3>
2.6394007

>  <BCUT_SLOGP_0>
-2.5347967

>  <BCUT_SLOGP_1>
-0.49933019

>  <BCUT_SLOGP_2>
0.53049827

>  <BCUT_SLOGP_3>
2.802175

>  <BCUT_SMR_0>
-2.4454598

>  <BCUT_SMR_1>
-0.37517589

>  <BCUT_SMR_2>
0.66560912

>  <BCUT_SMR_3>
2.8897378

>  <bpol>
22.82214

>  <b_1rotN>
9

>  <b_1rotR>
0.75

>  <b_ar>
0

>  <b_count>
32

>  <b_double>
2

>  <b_heavy>
12

>  <b_max1len>
10

>  <b_rotN>
9

>  <b_rotR>
0.75

>  <b_single>
30

>  <b_triple>
0

>  <chi0>
9.9413109

>  <chi0v>
8.296773

>  <chi0v_C>
7.4413114

>  <chi0_C>
7.9413114

>  <chi1>
6.2700558

>  <chi1v>
5.0977807

>  <chi1v_C>
4.6700501

>  <chi1_C>
5.115355

>  <chiral>
0

>  <chiral_u>
0

>  <density>
0.64339548

>  <diameter>
11

>  <FCharge>
0

>  <GCUT_PEOE_0>
-0.80063504

>  <GCUT_PEOE_1>
-0.40353686

>  <GCUT_PEOE_2>
0.092030928

>  <GCUT_PEOE_3>
2.4447689

>  <GCUT_SLOGP_0>
-0.87253529

>  <GCUT_SLOGP_1>
-0.2695837

>  <GCUT_SLOGP_2>
0.091619164

>  <GCUT_SLOGP_3>
2.5819442

>  <GCUT_SMR_0>
-0.53159779

>  <GCUT_SMR_1>
-0.21761489

>  <GCUT_SMR_2>
0.20906049

>  <GCUT_SMR_3>
2.6632822

>  <Kier1>
13

>  <Kier2>
10.083333

>  <Kier3>
12

>  <KierA1>
11.306025

>  <KierA2>
8.6589355

>  <KierA3>
10.194596

>  <KierFlex>
7.5306268

>  <lip_acc>
2

>  <lip_don>
1

>  <lip_druglike>
1

>  <lip_violation>
0

>  <logP(o/w)>
3.2850001

>  <logS>
-3.5646701

>  <mr>
5.5587039

>  <mutagenic>
0

>  <nmol>
1

>  <opr_brigid>
1

>  <opr_leadlike>
1

>  <opr_nring>
0

>  <opr_nrot>
9

>  <opr_violation>
0

>  <PC+>
0

>  <PC->
0

>  <PEOE_PC+>
1.1303482

>  <PEOE_PC->
-1.1303482

>  <PEOE_RPC+>
0.22965279

>  <PEOE_RPC->
0.29306671

>  <PEOE_VSA+0>
76.947487

>  <PEOE_VSA+1>
12.796158

>  <PEOE_VSA+2>
0

>  <PEOE_VSA+3>
0

>  <PEOE_VSA+4>
10.324173

>  <PEOE_VSA+5>
14.708499

>  <PEOE_VSA+6>
0

>  <PEOE_VSA-0>
26.103939

>  <PEOE_VSA-1>
47.060158

>  <PEOE_VSA-2>
22.301268

>  <PEOE_VSA-3>
0

>  <PEOE_VSA-4>
0

>  <PEOE_VSA-5>
13.566921

>  <PEOE_VSA-6>
7.7675405

>  <PEOE_VSA_FHYD>
0.79977584

>  <PEOE_VSA_FNEG>
0.50436896

>  <PEOE_VSA_FPNEG>
0.092127196

>  <PEOE_VSA_FPOL>
0.20022413

>  <PEOE_VSA_FPOS>
0.49563101

>  <PEOE_VSA_FPPOS>
0.10809693

>  <PEOE_VSA_HYD>
185.20901

>  <PEOE_VSA_NEG>
116.79983

>  <PEOE_VSA_PNEG>
21.334461

>  <PEOE_VSA_POL>
46.367134

>  <PEOE_VSA_POS>
114.77632

>  <PEOE_VSA_PPOS>
25.032671

>  <petitjean>
0.45454547

>  <petitjeanSC>
0.83333331

>  <Q_PC+>
0

>  <Q_PC->
0

>  <Q_RPC+>
0

>  <Q_RPC->
0

>  <Q_VSA_FHYD>
1

>  <Q_VSA_FNEG>
0

>  <Q_VSA_FPNEG>
0

>  <Q_VSA_FPOL>
0

>  <Q_VSA_FPOS>
1

>  <Q_VSA_FPPOS>
0

>  <Q_VSA_HYD>
231.57614

>  <Q_VSA_NEG>
0

>  <Q_VSA_PNEG>
0

>  <Q_VSA_POL>
0

>  <Q_VSA_POS>
231.57614

>  <Q_VSA_PPOS>
0

>  <radius>
6

>  <reactive>
0

>  <rings>
0

>  <RPC+>
0

>  <RPC->
0

>  <rsynth>
1

>  <SlogP>
3.3778

>  <SlogP_VSA0>
0

>  <SlogP_VSA1>
7.7454643

>  <SlogP_VSA2>
23.862217

>  <SlogP_VSA3>
25.385227

>  <SlogP_VSA4>
0

>  <SlogP_VSA5>
0

>  <SlogP_VSA6>
0

>  <SlogP_VSA7>
17.643185

>  <SlogP_VSA8>
150.94725

>  <SlogP_VSA9>
32.100792

>  <SMR>
5.4768801

>  <SMR_VSA0>
23.862217

>  <SMR_VSA1>
0

>  <SMR_VSA2>
25.385227

>  <SMR_VSA3>
0

>  <SMR_VSA4>
0

>  <SMR_VSA5>
168.59042

>  <SMR_VSA6>
7.7454643

>  <SMR_VSA7>
32.100792

>  <TPSA>
37.299999

>  <VAdjEq>
0.5894835

>  <VAdjMa>
4.5849624

>  <VDistEq>
3.2942035

>  <VDistMa>
7.0021086

>  <vdw_area>
231.57614

>  <vdw_vol>
286.41635

>  <vsa_acc>
0

>  <vsa_acid>
0

>  <vsa_base>
0

>  <vsa_don>
0

>  <vsa_hyd>
171.68491

>  <vsa_other>
14.708499

>  <vsa_pol>
27.133842

>  <Weight>
184.27899

>  <weinerPath>
354

>  <weinerPol>
10

>  <zagreb>
48

$$$$