Ic1cc(I)c2c(nccc2)c1O
  MOE2013           2D

 13 14  0  0  0  0  0  0  0  0999 V2000
    0.0000    0.0000    0.0000 I   0  0  0  0  0  0  0  0  0  0  0  0
   -1.5000   -0.0060    0.0000 C   0  0  0  0  0  0  0  0  0  0  0  0
   -2.2450   -1.3080    0.0000 C   0  0  0  0  0  0  0  0  0  0  0  0
   -3.7450   -1.3150    0.0000 C   0  0  0  0  0  0  0  0  0  0  0  0
   -4.4890   -2.6170    0.0000 I   0  0  0  0  0  0  0  0  0  0  0  0
   -4.5000   -0.0190    0.0000 C   0  0  0  0  0  0  0  0  0  0  0  0
   -3.7550    1.2840    0.0000 C   0  0  0  0  0  0  0  0  0  0  0  0
   -4.5110    2.5790    0.0000 N   0  0  0  0  0  0  0  0  0  0  0  0
   -6.0110    2.5730    0.0000 C   0  0  0  0  0  0  0  0  0  0  0  0
   -6.7550    1.2710    0.0000 C   0  0  0  0  0  0  0  0  0  0  0  0
   -6.0000   -0.0250    0.0000 C   0  0  0  0  0  0  0  0  0  0  0  0
   -2.2550    1.2900    0.0000 C   0  0  0  0  0  0  0  0  0  0  0  0
   -1.5110    2.5920    0.0000 O   0  0  0  0  0  0  0  0  0  0  0  0
  1  2  1  0  0  0  0
  2  3  1  0  0  0  0
  2 12  2  0  0  0  0
  3  4  2  0  0  0  0
  4  5  1  0  0  0  0
  4  6  1  0  0  0  0
  6  7  1  0  0  0  0
  6 11  2  0  0  0  0
  7  8  2  0  0  0  0
  7 12  1  0  0  0  0
  8  9  1  0  0  0  0
  9 10  2  0  0  0  0
 10 11  1  0  0  0  0
 12 13  1  0  0  0  0
M  END
>  <Index>
1369

>  <ID>
HT3749

>  <class>
0

>  <apol>
31.775965

>  <ast_fraglike>
0

>  <ast_fraglike_ext>
0

>  <ast_violation>
2

>  <ast_violation_ext>
2

>  <a_acc>
2

>  <a_acid>
0

>  <a_aro>
10

>  <a_base>
0

>  <a_count>
18

>  <a_don>
1

>  <a_donacc>
3

>  <a_heavy>
13

>  <a_hyd>
11

>  <a_IC>
32.919685

>  <a_ICM>
1.8288714

>  <a_nB>
0

>  <a_nBr>
0

>  <a_nC>
9

>  <a_nCl>
0

>  <a_nF>
0

>  <a_nH>
5

>  <a_nI>
2

>  <a_nN>
1

>  <a_nO>
1

>  <a_nP>
0

>  <a_nS>
0

>  <balabanJ>
2.1321476

>  <BCUT_PEOE_0>
-2.1628337

>  <BCUT_PEOE_1>
-0.71940655

>  <BCUT_PEOE_2>
0.73689002

>  <BCUT_PEOE_3>
2.1694651

>  <BCUT_SLOGP_0>
-2.0019138

>  <BCUT_SLOGP_1>
-0.56819695

>  <BCUT_SLOGP_2>
1.0338199

>  <BCUT_SLOGP_3>
2.3829596

>  <BCUT_SMR_0>
-1.8128188

>  <BCUT_SMR_1>
-0.44253725

>  <BCUT_SMR_2>
1.3037094

>  <BCUT_SMR_3>
2.5927513

>  <bpol>
13.966035

>  <b_1rotN>
0

>  <b_1rotR>
0

>  <b_ar>
11

>  <b_count>
19

>  <b_double>
0

>  <b_heavy>
14

>  <b_max1len>
1

>  <b_rotN>
0

>  <b_rotR>
0

>  <b_single>
8

>  <b_triple>
0

>  <chi0>
9.4222851

>  <chi0v>
10.774754

>  <chi0v_C>
4.809401

>  <chi0_C>
5.7151785

>  <chi1>
6.1983771

>  <chi1v>
5.7735672

>  <chi1v_C>
2.532692

>  <chi1_C>
3.5580783

>  <chiral>
0

>  <chiral_u>
0

>  <density>
1.4953127

>  <diameter>
6

>  <FCharge>
0

>  <GCUT_PEOE_0>
-0.74844903

>  <GCUT_PEOE_1>
-0.43067765

>  <GCUT_PEOE_2>
0.13321534

>  <GCUT_PEOE_3>
2.1195505

>  <GCUT_SLOGP_0>
-0.76202852

>  <GCUT_SLOGP_1>
-0.27699891

>  <GCUT_SLOGP_2>
0.3978737

>  <GCUT_SLOGP_3>
2.3315315

>  <GCUT_SMR_0>
-0.42568004

>  <GCUT_SMR_1>
-0.18408528

>  <GCUT_SMR_2>
0.59468186

>  <GCUT_SMR_3>
2.5448465

>  <Kier1>
9.5510206

>  <Kier2>
3.6300001

>  <Kier3>
1.6460905

>  <KierA1>
11.476798

>  <KierA2>
4.4310632

>  <KierA3>
2.0359695

>  <KierFlex>
3.9118783

>  <lip_acc>
2

>  <lip_don>
1

>  <lip_druglike>
1

>  <lip_violation>
0

>  <logP(o/w)>
4.211

>  <logS>
-3.5945101

>  <mr>
6.9797115

>  <mutagenic>
0

>  <nmol>
1

>  <opr_brigid>
11

>  <opr_leadlike>
1

>  <opr_nring>
2

>  <opr_nrot>
0

>  <opr_violation>
0

>  <PC+>
0

>  <PC->
0

>  <PEOE_PC+>
0.81858599

>  <PEOE_PC->
-0.81858599

>  <PEOE_RPC+>
0.26563033

>  <PEOE_RPC->
0.43585917

>  <PEOE_VSA+0>
25.034643

>  <PEOE_VSA+1>
17.061544

>  <PEOE_VSA+2>
15.158071

>  <PEOE_VSA+3>
0

>  <PEOE_VSA+4>
10.324173

>  <PEOE_VSA+5>
0

>  <PEOE_VSA+6>
0

>  <PEOE_VSA-0>
118.48984

>  <PEOE_VSA-1>
12.254904

>  <PEOE_VSA-2>
0

>  <PEOE_VSA-3>
0

>  <PEOE_VSA-4>
0

>  <PEOE_VSA-5>
5.6825762

>  <PEOE_VSA-6>
7.7675405

>  <PEOE_VSA_FHYD>
0.8877371

>  <PEOE_VSA_FNEG>
0.68089259

>  <PEOE_VSA_FPNEG>
0.063511863

>  <PEOE_VSA_FPOL>
0.11226293

>  <PEOE_VSA_FPOS>
0.31910744

>  <PEOE_VSA_FPPOS>
0.048751064

>  <PEOE_VSA_HYD>
187.99899

>  <PEOE_VSA_NEG>
144.19485

>  <PEOE_VSA_PNEG>
13.450116

>  <PEOE_VSA_POL>
23.774288

>  <PEOE_VSA_POS>
67.57843

>  <PEOE_VSA_PPOS>
10.324173

>  <petitjean>
0.5

>  <petitjeanSC>
1

>  <Q_PC+>
0

>  <Q_PC->
0

>  <Q_RPC+>
0

>  <Q_RPC->
0

>  <Q_VSA_FHYD>
1

>  <Q_VSA_FNEG>
0

>  <Q_VSA_FPNEG>
0

>  <Q_VSA_FPOL>
0

>  <Q_VSA_FPOS>
1

>  <Q_VSA_FPPOS>
0

>  <Q_VSA_HYD>
211.77328

>  <Q_VSA_NEG>
0

>  <Q_VSA_PNEG>
0

>  <Q_VSA_POL>
0

>  <Q_VSA_POS>
211.77328

>  <Q_VSA_PPOS>
0

>  <radius>
3

>  <reactive>
0

>  <rings>
2

>  <RPC+>
0

>  <RPC->
0

>  <rsynth>
1

>  <SlogP>
3.1496

>  <SlogP_VSA0>
25.385227

>  <SlogP_VSA1>
16.78553

>  <SlogP_VSA2>
3.3192859

>  <SlogP_VSA3>
0

>  <SlogP_VSA4>
0

>  <SlogP_VSA5>
0

>  <SlogP_VSA6>
0

>  <SlogP_VSA7>
74.861008

>  <SlogP_VSA8>
0

>  <SlogP_VSA9>
118.80744

>  <SMR>
6.8841801

>  <SMR_VSA0>
0

>  <SMR_VSA1>
42.170757

>  <SMR_VSA2>
3.3192859

>  <SMR_VSA3>
5.2434282

>  <SMR_VSA4>
4.7171016

>  <SMR_VSA5>
70.143913

>  <SMR_VSA6>
0

>  <SMR_VSA7>
113.56402

>  <TPSA>
33.119999

>  <VAdjEq>
0.64772749

>  <VAdjMa>
4.8073549

>  <VDistEq>
2.3080299

>  <VDistMa>
7.1322675

>  <vdw_area>
211.77328

>  <vdw_vol>
265.46487

>  <vsa_acc>
5.6825762

>  <vsa_acid>
0

>  <vsa_base>
0

>  <vsa_don>
0

>  <vsa_hyd>
185.15181

>  <vsa_other>
0

>  <vsa_pol>
19.249496

>  <Weight>
396.953

>  <weinerPath>
218

>  <weinerPol>
21

>  <zagreb>
68

$$$$