O1CC2=C(C=C3N(Cc4c3nc3c(c4)c(CN(C)C)c(O)cc3)C2=O)[C@@](O)(CC)C1=O
  MOE2013           2D

 31 35  0  0  1  0  0  0  0  0999 V2000
    0.0000    0.0000    0.0000 O   0  0  0  0  0  0  0  0  0  0  0  0
   -1.2930   -0.7600    0.0000 C   0  0  0  0  0  0  0  0  0  0  0  0
   -2.5980   -0.0200    0.0000 C   0  0  0  0  0  0  0  0  0  0  0  0
   -2.6100    1.4800    0.0000 C   0  0  0  0  0  0  0  0  0  0  0  0
   -3.9140    2.2200    0.0000 C   0  0  0  0  0  0  0  0  0  0  0  0
   -5.2080    1.4600    0.0000 C   0  0  0  0  0  0  0  0  0  0  0  0
   -5.1960   -0.0400    0.0000 N   0  0  0  0  0  0  0  0  0  0  0  0
   -6.6190   -0.5140    0.0000 C   0  0  0  0  0  0  0  0  0  0  0  0
   -7.5100    0.6920    0.0000 C   0  0  0  0  0  0  0  0  0  0  0  0
   -6.6380    1.9130    0.0000 C   0  0  0  0  0  0  0  0  0  0  0  0
   -7.2580    3.2780    0.0000 N   0  0  0  0  0  0  0  0  0  0  0  0
   -8.7510    3.4240    0.0000 C   0  0  0  0  0  0  0  0  0  0  0  0
   -9.6240    2.2030    0.0000 C   0  0  0  0  0  0  0  0  0  0  0  0
   -9.0030    0.8380    0.0000 C   0  0  0  0  0  0  0  0  0  0  0  0
  -11.1160    2.3490    0.0000 C   0  0  0  0  0  0  0  0  0  0  0  0
  -11.9890    1.1280    0.0000 C   0  0  0  0  0  0  0  0  0  0  0  0
  -13.4820    1.2740    0.0000 N   0  0  0  0  0  0  0  0  0  0  0  0
  -14.1020    2.6390    0.0000 C   0  0  0  0  0  0  0  0  0  0  0  0
  -14.3540    0.0530    0.0000 C   0  0  0  0  0  0  0  0  0  0  0  0
  -11.7370    3.7140    0.0000 C   0  0  0  0  0  0  0  0  0  0  0  0
  -13.2300    3.8590    0.0000 O   0  0  0  0  0  0  0  0  0  0  0  0
  -10.8650    4.9340    0.0000 C   0  0  0  0  0  0  0  0  0  0  0  0
   -9.3720    4.7890    0.0000 C   0  0  0  0  0  0  0  0  0  0  0  0
   -3.8910   -0.7800    0.0000 C   0  0  0  0  0  0  0  0  0  0  0  0
   -3.8800   -2.2800    0.0000 O   0  0  0  0  0  0  0  0  0  0  0  0
   -1.3160    2.2400    0.0000 C   0  0  1  0  0  0  0  0  0  0  0  0
   -0.5590    3.5350    0.0000 O   0  0  0  0  0  0  0  0  0  0  0  0
   -2.0480    3.5490    0.0000 C   0  0  0  0  0  0  0  0  0  0  0  0
   -1.2800    4.8380    0.0000 C   0  0  0  0  0  0  0  0  0  0  0  0
   -0.0120    1.5000    0.0000 C   0  0  0  0  0  0  0  0  0  0  0  0
    1.2820    2.2600    0.0000 O   0  0  0  0  0  0  0  0  0  0  0  0
  1  2  1  0  0  0  0
  1 30  1  0  0  0  0
  2  3  1  0  0  0  0
  3  4  2  0  0  0  0
  3 24  1  0  0  0  0
  4  5  1  0  0  0  0
  4 26  1  0  0  0  0
  5  6  2  0  0  0  0
  6  7  1  0  0  0  0
  6 10  1  0  0  0  0
  7  8  1  0  0  0  0
  7 24  1  0  0  0  0
  8  9  1  0  0  0  0
  9 10  1  0  0  0  0
  9 14  2  0  0  0  0
 10 11  2  0  0  0  0
 11 12  1  0  0  0  0
 12 13  1  0  0  0  0
 12 23  2  0  0  0  0
 13 14  1  0  0  0  0
 13 15  2  0  0  0  0
 15 16  1  0  0  0  0
 15 20  1  0  0  0  0
 16 17  1  0  0  0  0
 17 18  1  0  0  0  0
 17 19  1  0  0  0  0
 20 21  1  0  0  0  0
 20 22  2  0  0  0  0
 22 23  1  0  0  0  0
 24 25  2  0  0  0  0
 26 27  1  6  0  0  0
 26 28  1  1  0  0  0
 26 30  1  0  0  0  0
 28 29  1  0  0  0  0
 30 31  2  0  0  0  0
M  END
>  <Index>
1094

>  <ID>
HT2091

>  <class>
0

>  <apol>
63.12624

>  <ast_fraglike>
0

>  <ast_fraglike_ext>
0

>  <ast_violation>
2

>  <ast_violation_ext>
2

>  <a_acc>
6

>  <a_acid>
0

>  <a_aro>
10

>  <a_base>
0

>  <a_count>
54

>  <a_don>
2

>  <a_donacc>
8

>  <a_heavy>
31

>  <a_hyd>
21

>  <a_IC>
86.315544

>  <a_ICM>
1.5984361

>  <a_nB>
0

>  <a_nBr>
0

>  <a_nC>
23

>  <a_nCl>
0

>  <a_nF>
0

>  <a_nH>
23

>  <a_nI>
0

>  <a_nN>
3

>  <a_nO>
5

>  <a_nP>
0

>  <a_nS>
0

>  <balabanJ>
1.3804681

>  <BCUT_PEOE_0>
-2.5719538

>  <BCUT_PEOE_1>
-0.4705517

>  <BCUT_PEOE_2>
0.48961374

>  <BCUT_PEOE_3>
2.6519279

>  <BCUT_SLOGP_0>
-2.6505497

>  <BCUT_SLOGP_1>
-0.42513198

>  <BCUT_SLOGP_2>
0.51409715

>  <BCUT_SLOGP_3>
2.6314557

>  <BCUT_SMR_0>
-2.3367443

>  <BCUT_SMR_1>
-0.2458196

>  <BCUT_SMR_2>
0.69163448

>  <BCUT_SMR_3>
2.8996363

>  <bpol>
34.25576

>  <b_1rotN>
3

>  <b_1rotR>
0.085714288

>  <b_ar>
11

>  <b_count>
58

>  <b_double>
4

>  <b_heavy>
35

>  <b_max1len>
5

>  <b_rotN>
3

>  <b_rotR>
0.085714288

>  <b_single>
43

>  <b_triple>
0

>  <chi0>
22.076622

>  <chi0v>
17.59864

>  <chi0v_C>
14.137828

>  <chi0_C>
15.507708

>  <chi1>
14.740238

>  <chi1v>
10.206276

>  <chi1v_C>
6.4367046

>  <chi1_C>
8.1455784

>  <chiral>
1

>  <chiral_u>
0

>  <density>
0.77161252

>  <diameter>
13

>  <FCharge>
0

>  <GCUT_PEOE_0>
-0.85771769

>  <GCUT_PEOE_1>
-0.45350367

>  <GCUT_PEOE_2>
0.0020322001

>  <GCUT_PEOE_3>
2.8532755

>  <GCUT_SLOGP_0>
-0.92513222

>  <GCUT_SLOGP_1>
-0.33660901

>  <GCUT_SLOGP_2>
0.0064921053

>  <GCUT_SLOGP_3>
2.9170635

>  <GCUT_SMR_0>
-0.52129501

>  <GCUT_SMR_1>
-0.1910179

>  <GCUT_SMR_2>
0.17320184

>  <GCUT_SMR_3>
3.1326318

>  <Kier1>
22.775511

>  <Kier2>
8.3404961

>  <Kier3>
3.5848193

>  <KierA1>
17.348936

>  <KierA2>
6.2917242

>  <KierA3>
2.6850088

>  <KierFlex>
3.5211201

>  <lip_acc>
8

>  <lip_don>
2

>  <lip_druglike>
1

>  <lip_violation>
0

>  <logP(o/w)>
2.0409999

>  <logS>
-3.9270401

>  <mr>
11.218434

>  <mutagenic>
0

>  <nmol>
1

>  <opr_brigid>
25

>  <opr_leadlike>
1

>  <opr_nring>
5

>  <opr_nrot>
3

>  <opr_violation>
1

>  <PC+>
0

>  <PC->
0

>  <PEOE_PC+>
2.658581

>  <PEOE_PC->
-2.658581

>  <PEOE_RPC+>
0.11246642

>  <PEOE_RPC->
0.14068919

>  <PEOE_VSA+0>
79.685043

>  <PEOE_VSA+1>
90.823875

>  <PEOE_VSA+2>
0

>  <PEOE_VSA+3>
0

>  <PEOE_VSA+4>
20.648346

>  <PEOE_VSA+5>
27.65803

>  <PEOE_VSA+6>
0

>  <PEOE_VSA-0>
104.19831

>  <PEOE_VSA-1>
18.747677

>  <PEOE_VSA-2>
0

>  <PEOE_VSA-3>
0

>  <PEOE_VSA-4>
5.6825762

>  <PEOE_VSA-5>
27.133842

>  <PEOE_VSA-6>
18.038837

>  <PEOE_VSA_FHYD>
0.7474339

>  <PEOE_VSA_FNEG>
0.44267428

>  <PEOE_VSA_FPNEG>
0.12952907

>  <PEOE_VSA_FPOL>
0.2525661

>  <PEOE_VSA_FPOS>
0.55732572

>  <PEOE_VSA_FPPOS>
0.12303704

>  <PEOE_VSA_HYD>
293.4549

>  <PEOE_VSA_NEG>
173.80124

>  <PEOE_VSA_PNEG>
50.855255

>  <PEOE_VSA_POL>
99.161629

>  <PEOE_VSA_POS>
218.81529

>  <PEOE_VSA_PPOS>
48.306377

>  <petitjean>
0.46153846

>  <petitjeanSC>
0.85714287

>  <Q_PC+>
0

>  <Q_PC->
0

>  <Q_RPC+>
0

>  <Q_RPC->
0

>  <Q_VSA_FHYD>
1

>  <Q_VSA_FNEG>
0

>  <Q_VSA_FPNEG>
0

>  <Q_VSA_FPOL>
0

>  <Q_VSA_FPOS>
1

>  <Q_VSA_FPPOS>
0

>  <Q_VSA_HYD>
392.61655

>  <Q_VSA_NEG>
0

>  <Q_VSA_PNEG>
0

>  <Q_VSA_POL>
0

>  <Q_VSA_POS>
392.61655

>  <Q_VSA_PPOS>
0

>  <radius>
7

>  <reactive>
1

>  <rings>
5

>  <RPC+>
0

>  <RPC->
0

>  <rsynth>
1

>  <SlogP>
2.2260001

>  <SlogP_VSA0>
50.770454

>  <SlogP_VSA1>
36.038406

>  <SlogP_VSA2>
58.724319

>  <SlogP_VSA3>
20.926258

>  <SlogP_VSA4>
9.1278973

>  <SlogP_VSA5>
72.165527

>  <SlogP_VSA6>
0

>  <SlogP_VSA7>
78.046585

>  <SlogP_VSA8>
18.868406

>  <SlogP_VSA9>
75.448601

>  <SMR>
11.29616

>  <SMR_VSA0>
58.724319

>  <SMR_VSA1>
73.804611

>  <SMR_VSA2>
0

>  <SMR_VSA3>
20.742476

>  <SMR_VSA4>
7.4738488

>  <SMR_VSA5>
126.3203

>  <SMR_VSA6>
33.930508

>  <SMR_VSA7>
99.120392

>  <TPSA>
103.2

>  <VAdjEq>
0.37643659

>  <VAdjMa>
6.129283

>  <VDistEq>
3.4834559

>  <VDistMa>
9.6274605

>  <vdw_area>
392.61655

>  <vdw_vol>
546.19769

>  <vsa_acc>
32.816418

>  <vsa_acid>
0

>  <vsa_base>
0

>  <vsa_don>
0

>  <vsa_hyd>
278.5072

>  <vsa_other>
30.161787

>  <vsa_pol>
59.95026

>  <Weight>
421.453

>  <weinerPath>
2485

>  <weinerPol>
64

>  <zagreb>
180

$$$$