Clc1ccc(cc1)C(O)(C(O)(C)C)C
  MOE2013           2D

 14 14  0  0  1  0  0  0  0  0999 V2000
    0.0000    0.0000    0.0000 Cl  0  0  0  0  0  0  0  0  0  0  0  0
   -1.5000    0.0000    0.0000 C   0  0  0  0  0  0  0  0  0  0  0  0
   -2.2500   -1.2990    0.0000 C   0  0  0  0  0  0  0  0  0  0  0  0
   -3.7500   -1.2990    0.0000 C   0  0  0  0  0  0  0  0  0  0  0  0
   -4.5000    0.0000    0.0000 C   0  0  0  0  0  0  0  0  0  0  0  0
   -3.7500    1.2990    0.0000 C   0  0  0  0  0  0  0  0  0  0  0  0
   -2.2500    1.2990    0.0000 C   0  0  0  0  0  0  0  0  0  0  0  0
   -6.0000    0.0000    0.0000 C   0  0  3  0  0  0  0  0  0  0  0  0
   -6.0000    1.5000    0.0000 O   0  0  0  0  0  0  0  0  0  0  0  0
   -7.5000    0.0000    0.0000 C   0  0  0  0  0  0  0  0  0  0  0  0
   -9.0000    0.0000    0.0000 O   0  0  0  0  0  0  0  0  0  0  0  0
   -7.5000   -1.5000    0.0000 C   0  0  0  0  0  0  0  0  0  0  0  0
   -7.5000    1.5000    0.0000 C   0  0  0  0  0  0  0  0  0  0  0  0
   -6.0000   -1.5000    0.0000 C   0  0  0  0  0  0  0  0  0  0  0  0
  1  2  1  0  0  0  0
  2  3  1  0  0  0  0
  2  7  2  0  0  0  0
  3  4  2  0  0  0  0
  4  5  1  0  0  0  0
  5  6  2  0  0  0  0
  5  8  1  0  0  0  0
  6  7  1  0  0  0  0
  8  9  1  0  0  0  0
  8 10  1  0  0  0  0
  8 14  1  0  0  0  0
 10 11  1  0  0  0  0
 10 12  1  0  0  0  0
 10 13  1  0  0  0  0
M  END
>  <Index>
1268

>  <ID>
HT2925

>  <class>
0

>  <apol>
33.145893

>  <ast_fraglike>
1

>  <ast_fraglike_ext>
1

>  <ast_violation>
0

>  <ast_violation_ext>
0

>  <a_acc>
2

>  <a_acid>
0

>  <a_aro>
6

>  <a_base>
0

>  <a_count>
29

>  <a_don>
2

>  <a_donacc>
4

>  <a_heavy>
14

>  <a_hyd>
12

>  <a_IC>
42.224342

>  <a_ICM>
1.4560118

>  <a_nB>
0

>  <a_nBr>
0

>  <a_nC>
11

>  <a_nCl>
1

>  <a_nF>
0

>  <a_nH>
15

>  <a_nI>
0

>  <a_nN>
0

>  <a_nO>
2

>  <a_nP>
0

>  <a_nS>
0

>  <balabanJ>
2.6642425

>  <BCUT_PEOE_0>
-2.6643057

>  <BCUT_PEOE_1>
-0.53670299

>  <BCUT_PEOE_2>
0.58869553

>  <BCUT_PEOE_3>
2.6792605

>  <BCUT_SLOGP_0>
-2.652036

>  <BCUT_SLOGP_1>
-0.43769088

>  <BCUT_SLOGP_2>
0.68102974

>  <BCUT_SLOGP_3>
2.7195594

>  <BCUT_SMR_0>
-2.4351931

>  <BCUT_SMR_1>
-0.30348346

>  <BCUT_SMR_2>
0.78686368

>  <BCUT_SMR_3>
2.9037728

>  <bpol>
16.818106

>  <b_1rotN>
2

>  <b_1rotR>
0.14285715

>  <b_ar>
6

>  <b_count>
29

>  <b_double>
0

>  <b_heavy>
14

>  <b_max1len>
5

>  <b_rotN>
2

>  <b_rotR>
0.14285715

>  <b_single>
23

>  <b_triple>
0

>  <chi0>
10.983128

>  <chi0v>
9.3377218

>  <chi0v_C>
7.309401

>  <chi0_C>
7.9831276

>  <chi1>
6.2490187

>  <chi1v>
4.8355274

>  <chi1v_C>
3.8213673

>  <chi1_C>
4.6716685

>  <chiral>
1

>  <chiral_u>
1

>  <density>
0.75591463

>  <diameter>
7

>  <FCharge>
0

>  <GCUT_PEOE_0>
-0.79106194

>  <GCUT_PEOE_1>
-0.36739486

>  <GCUT_PEOE_2>
0.053210512

>  <GCUT_PEOE_3>
2.513072

>  <GCUT_SLOGP_0>
-0.87292892

>  <GCUT_SLOGP_1>
-0.2494453

>  <GCUT_SLOGP_2>
0.078579687

>  <GCUT_SLOGP_3>
2.6045556

>  <GCUT_SMR_0>
-0.52803159

>  <GCUT_SMR_1>
-0.16026051

>  <GCUT_SMR_2>
0.17752154

>  <GCUT_SMR_3>
2.7542331

>  <Kier1>
12.071428

>  <Kier2>
3.8677685

>  <Kier3>
2.5344

>  <KierA1>
11.211292

>  <KierA2>
3.5703621

>  <KierA3>
2.3286445

>  <KierFlex>
2.8591695

>  <lip_acc>
2

>  <lip_don>
2

>  <lip_druglike>
1

>  <lip_violation>
0

>  <logP(o/w)>
2.6789999

>  <logS>
-2.6692801

>  <mr>
5.7575307

>  <mutagenic>
0

>  <nmol>
1

>  <opr_brigid>
6

>  <opr_leadlike>
1

>  <opr_nring>
1

>  <opr_nrot>
2

>  <opr_violation>
0

>  <PC+>
0

>  <PC->
0

>  <PEOE_PC+>
1.1550862

>  <PEOE_PC->
-1.1550862

>  <PEOE_RPC+>
0.18243654

>  <PEOE_RPC->
0.33412635

>  <PEOE_VSA+0>
42.908222

>  <PEOE_VSA+1>
17.061544

>  <PEOE_VSA+2>
0

>  <PEOE_VSA+3>
0

>  <PEOE_VSA+4>
20.648346

>  <PEOE_VSA+5>
0

>  <PEOE_VSA+6>
0

>  <PEOE_VSA-0>
82.96138

>  <PEOE_VSA-1>
54.091755

>  <PEOE_VSA-2>
0

>  <PEOE_VSA-3>
0

>  <PEOE_VSA-4>
0

>  <PEOE_VSA-5>
0

>  <PEOE_VSA-6>
15.535081

>  <PEOE_VSA_FHYD>
0.84484375

>  <PEOE_VSA_FNEG>
0.65430564

>  <PEOE_VSA_FPNEG>
0.066615179

>  <PEOE_VSA_FPOL>
0.15515628

>  <PEOE_VSA_FPOS>
0.34569436

>  <PEOE_VSA_FPPOS>
0.088541105

>  <PEOE_VSA_HYD>
197.0229

>  <PEOE_VSA_NEG>
152.58821

>  <PEOE_VSA_PNEG>
15.535081

>  <PEOE_VSA_POL>
36.183426

>  <PEOE_VSA_POS>
80.618111

>  <PEOE_VSA_PPOS>
20.648346

>  <petitjean>
0.42857143

>  <petitjeanSC>
0.75

>  <Q_PC+>
0

>  <Q_PC->
0

>  <Q_RPC+>
0

>  <Q_RPC->
0

>  <Q_VSA_FHYD>
1

>  <Q_VSA_FNEG>
0

>  <Q_VSA_FPNEG>
0

>  <Q_VSA_FPOL>
0

>  <Q_VSA_FPOS>
1

>  <Q_VSA_FPPOS>
0

>  <Q_VSA_HYD>
233.20633

>  <Q_VSA_NEG>
0

>  <Q_VSA_PNEG>
0

>  <Q_VSA_POL>
0

>  <Q_VSA_POS>
233.20633

>  <Q_VSA_PPOS>
0

>  <radius>
4

>  <reactive>
0

>  <rings>
1

>  <RPC+>
0

>  <RPC->
0

>  <rsynth>
0.071428575

>  <SlogP>
2.6299

>  <SlogP_VSA0>
50.770454

>  <SlogP_VSA1>
0

>  <SlogP_VSA2>
0

>  <SlogP_VSA3>
0

>  <SlogP_VSA4>
3.185575

>  <SlogP_VSA5>
0

>  <SlogP_VSA6>
3.5006065

>  <SlogP_VSA7>
70.572739

>  <SlogP_VSA8>
0

>  <SlogP_VSA9>
139.12669

>  <SMR>
5.7437601

>  <SMR_VSA0>
0

>  <SMR_VSA1>
50.770454

>  <SMR_VSA2>
0

>  <SMR_VSA3>
6.6861815

>  <SMR_VSA4>
0

>  <SMR_VSA5>
70.572739

>  <SMR_VSA6>
0

>  <SMR_VSA7>
139.12669

>  <TPSA>
40.459999

>  <VAdjEq>
0.59167278

>  <VAdjMa>
4.8073549

>  <VDistEq>
2.5923564

>  <VDistMa>
7.3226871

>  <vdw_area>
233.20633

>  <vdw_vol>
284.0162

>  <vsa_acc>
0

>  <vsa_acid>
0

>  <vsa_base>
0

>  <vsa_don>
0

>  <vsa_hyd>
187.76956

>  <vsa_other>
0

>  <vsa_pol>
27.133842

>  <Weight>
214.692

>  <weinerPath>
287

>  <weinerPol>
22

>  <zagreb>
72

$$$$