OCC(N)(CO)CO
  MOE2013           2D

  8  7  0  0  0  0  0  0  0  0999 V2000
    0.0000    0.0000    0.0000 O   0  0  0  0  0  0  0  0  0  0  0  0
    0.7490   -1.3000    0.0000 C   0  0  0  0  0  0  0  0  0  0  0  0
   -0.0020   -2.5980    0.0000 C   0  0  0  0  0  0  0  0  0  0  0  0
   -1.3000   -1.8470    0.0000 N   0  0  0  0  0  0  0  0  0  0  0  0
    1.2970   -3.3490    0.0000 C   0  0  0  0  0  0  0  0  0  0  0  0
    2.5960   -2.6000    0.0000 O   0  0  0  0  0  0  0  0  0  0  0  0
   -0.7530   -3.8970    0.0000 C   0  0  0  0  0  0  0  0  0  0  0  0
   -2.2530   -3.8960    0.0000 O   0  0  0  0  0  0  0  0  0  0  0  0
  1  2  1  0  0  0  0
  2  3  1  0  0  0  0
  3  4  1  0  0  0  0
  3  5  1  0  0  0  0
  3  7  1  0  0  0  0
  5  6  1  0  0  0  0
  7  8  1  0  0  0  0
M  END
>  <Index>
1117

>  <ID>
HT2138

>  <class>
0

>  <apol>
17.880724

>  <ast_fraglike>
0

>  <ast_fraglike_ext>
0

>  <ast_violation>
2

>  <ast_violation_ext>
2

>  <a_acc>
4

>  <a_acid>
0

>  <a_aro>
0

>  <a_base>
0

>  <a_count>
19

>  <a_don>
4

>  <a_donacc>
8

>  <a_heavy>
8

>  <a_hyd>
4

>  <a_IC>
29.901987

>  <a_ICM>
1.5737888

>  <a_nB>
0

>  <a_nBr>
0

>  <a_nC>
4

>  <a_nCl>
0

>  <a_nF>
0

>  <a_nH>
11

>  <a_nI>
0

>  <a_nN>
1

>  <a_nO>
3

>  <a_nP>
0

>  <a_nS>
0

>  <balabanJ>
3.5832126

>  <BCUT_PEOE_0>
-2.6365457

>  <BCUT_PEOE_1>
-0.77304864

>  <BCUT_PEOE_2>
0.79810512

>  <BCUT_PEOE_3>
2.647083

>  <BCUT_SLOGP_0>
-2.9008939

>  <BCUT_SLOGP_1>
-0.93311262

>  <BCUT_SLOGP_2>
0.59000206

>  <BCUT_SLOGP_3>
2.428731

>  <BCUT_SMR_0>
-2.4053211

>  <BCUT_SMR_1>
-0.63865978

>  <BCUT_SMR_2>
0.89207786

>  <BCUT_SMR_3>
2.8642838

>  <bpol>
11.365277

>  <b_1rotN>
3

>  <b_1rotR>
0.42857143

>  <b_ar>
0

>  <b_count>
18

>  <b_double>
0

>  <b_heavy>
7

>  <b_max1len>
6

>  <b_rotN>
3

>  <b_rotR>
0.42857143

>  <b_single>
18

>  <b_triple>
0

>  <chi0>
6.6213202

>  <chi0v>
4.5403113

>  <chi0v_C>
2.6213202

>  <chi0_C>
2.6213202

>  <chi1>
3.6819806

>  <chi1v>
2.2980187

>  <chi1v_C>
1.0606601

>  <chi1_C>
1.0606601

>  <chiral>
0

>  <chiral_u>
0

>  <density>
0.79773051

>  <diameter>
4

>  <FCharge>
0

>  <GCUT_PEOE_0>
-0.81447655

>  <GCUT_PEOE_1>
-0.45856905

>  <GCUT_PEOE_2>
0.23819821

>  <GCUT_PEOE_3>
2.2006435

>  <GCUT_SLOGP_0>
-1.3635757

>  <GCUT_SLOGP_1>
-0.61995995

>  <GCUT_SLOGP_2>
-0.0023672376

>  <GCUT_SLOGP_3>
2.0379021

>  <GCUT_SMR_0>
-0.51942134

>  <GCUT_SMR_1>
-0.29938909

>  <GCUT_SMR_2>
0.27216741

>  <GCUT_SMR_3>
2.3985374

>  <Kier1>
8

>  <Kier2>
3.1111112

>  <Kier3>
2.2222223

>  <KierA1>
8

>  <KierA2>
3.1111112

>  <KierA3>
2.2222223

>  <KierFlex>
3.1111112

>  <lip_acc>
4

>  <lip_don>
5

>  <lip_druglike>
1

>  <lip_violation>
0

>  <logP(o/w)>
-2.5209999

>  <logS>
1.32572

>  <mr>
2.8183696

>  <mutagenic>
0

>  <nmol>
1

>  <opr_brigid>
0

>  <opr_leadlike>
1

>  <opr_nring>
0

>  <opr_nrot>
3

>  <opr_violation>
0

>  <PC+>
0

>  <PC->
0

>  <PEOE_PC+>
1.4983699

>  <PEOE_PC->
-1.4983699

>  <PEOE_RPC+>
0.13980381

>  <PEOE_RPC->
0.26231122

>  <PEOE_VSA+0>
0

>  <PEOE_VSA+1>
70.446198

>  <PEOE_VSA+2>
17.238026

>  <PEOE_VSA+3>
0

>  <PEOE_VSA+4>
30.972517

>  <PEOE_VSA+5>
0

>  <PEOE_VSA+6>
0

>  <PEOE_VSA-0>
0

>  <PEOE_VSA-1>
0

>  <PEOE_VSA-2>
0

>  <PEOE_VSA-3>
0

>  <PEOE_VSA-4>
0

>  <PEOE_VSA-5>
0

>  <PEOE_VSA-6>
29.953741

>  <PEOE_VSA_FHYD>
0.59002715

>  <PEOE_VSA_FNEG>
0.20155874

>  <PEOE_VSA_FPNEG>
0.20155874

>  <PEOE_VSA_FPOL>
0.40997282

>  <PEOE_VSA_FPOS>
0.79844129

>  <PEOE_VSA_FPPOS>
0.20841409

>  <PEOE_VSA_HYD>
87.684219

>  <PEOE_VSA_NEG>
29.953741

>  <PEOE_VSA_PNEG>
29.953741

>  <PEOE_VSA_POL>
60.926258

>  <PEOE_VSA_POS>
118.65674

>  <PEOE_VSA_PPOS>
30.972517

>  <petitjean>
0.5

>  <petitjeanSC>
1

>  <Q_PC+>
0

>  <Q_PC->
0

>  <Q_RPC+>
0

>  <Q_RPC->
0

>  <Q_VSA_FHYD>
1

>  <Q_VSA_FNEG>
0

>  <Q_VSA_FPNEG>
0

>  <Q_VSA_FPOL>
0

>  <Q_VSA_FPOS>
1

>  <Q_VSA_FPPOS>
0

>  <Q_VSA_HYD>
148.61047

>  <Q_VSA_NEG>
0

>  <Q_VSA_PNEG>
0

>  <Q_VSA_POL>
0

>  <Q_VSA_POS>
148.61047

>  <Q_VSA_PPOS>
0

>  <radius>
2

>  <reactive>
0

>  <rings>
0

>  <RPC+>
0

>  <RPC->
0

>  <rsynth>
1

>  <SlogP>
-2.3392

>  <SlogP_VSA0>
109.05286

>  <SlogP_VSA1>
0

>  <SlogP_VSA2>
0

>  <SlogP_VSA3>
62.778774

>  <SlogP_VSA4>
0

>  <SlogP_VSA5>
0

>  <SlogP_VSA6>
0

>  <SlogP_VSA7>
0

>  <SlogP_VSA8>
0

>  <SlogP_VSA9>
0

>  <SMR>
2.81758

>  <SMR_VSA0>
0

>  <SMR_VSA1>
76.155678

>  <SMR_VSA2>
0

>  <SMR_VSA3>
0

>  <SMR_VSA4>
32.897186

>  <SMR_VSA5>
0

>  <SMR_VSA6>
62.778774

>  <SMR_VSA7>
0

>  <TPSA>
86.709999

>  <VAdjEq>
0.75787848

>  <VAdjMa>
3.8073549

>  <VDistEq>
1.8978899

>  <VDistMa>
5.6750941

>  <vdw_area>
148.61047

>  <vdw_vol>
151.85078

>  <vsa_acc>
0

>  <vsa_acid>
0

>  <vsa_base>
0

>  <vsa_don>
0

>  <vsa_hyd>
66.175423

>  <vsa_other>
0

>  <vsa_pol>
58.443253

>  <Weight>
121.13599

>  <weinerPath>
64

>  <weinerPol>
9

>  <zagreb>
32

$$$$