Oc1ccc(cc1)CC(NC(=O)C(NC(=O)C(NC(=O)CNC)CCCN=C(N)/N)C(C)C)C(=O)NC(C(C)C)C(=O)NC(Cc1nc[nH]c1)C(=O)N1CCCC1C(=O)NC(C(O)=O)C
  MOE2013           2D

 65 67  0  0  1  0  0  0  0  0999 V2000
    0.0000    0.0000    0.0000 O   0  0  0  0  0  0  0  0  0  0  0  0
   -0.7430   -1.3030    0.0000 C   0  0  0  0  0  0  0  0  0  0  0  0
   -2.2430   -1.3100    0.0000 C   0  0  0  0  0  0  0  0  0  0  0  0
   -2.9870   -2.6130    0.0000 C   0  0  0  0  0  0  0  0  0  0  0  0
   -2.2300   -3.9090    0.0000 C   0  0  0  0  0  0  0  0  0  0  0  0
   -0.7300   -3.9010    0.0000 C   0  0  0  0  0  0  0  0  0  0  0  0
    0.0130   -2.5980    0.0000 C   0  0  0  0  0  0  0  0  0  0  0  0
   -2.9730   -5.2110    0.0000 C   0  0  0  0  0  0  0  0  0  0  0  0
   -2.2170   -6.5070    0.0000 C   0  0  3  0  0  0  0  0  0  0  0  0
   -0.7170   -6.4990    0.0000 N   0  0  0  0  0  0  0  0  0  0  0  0
    0.0400   -7.7940    0.0000 C   0  0  0  0  0  0  0  0  0  0  0  0
   -0.7040   -9.0970    0.0000 O   0  0  0  0  0  0  0  0  0  0  0  0
    1.5400   -7.7860    0.0000 C   0  0  3  0  0  0  0  0  0  0  0  0
    2.2960   -9.0820    0.0000 N   0  0  0  0  0  0  0  0  0  0  0  0
    3.7960   -9.0740    0.0000 C   0  0  0  0  0  0  0  0  0  0  0  0
    4.5400   -7.7710    0.0000 O   0  0  0  0  0  0  0  0  0  0  0  0
    4.5530  -10.3690    0.0000 C   0  0  3  0  0  0  0  0  0  0  0  0
    3.8100  -11.6720    0.0000 N   0  0  0  0  0  0  0  0  0  0  0  0
    4.5660  -12.9670    0.0000 C   0  0  0  0  0  0  0  0  0  0  0  0
    6.0660  -12.9600    0.0000 O   0  0  0  0  0  0  0  0  0  0  0  0
    3.8230  -14.2700    0.0000 C   0  0  0  0  0  0  0  0  0  0  0  0
    4.5790  -15.5650    0.0000 N   0  0  0  0  0  0  0  0  0  0  0  0
    3.8360  -16.8680    0.0000 C   0  0  0  0  0  0  0  0  0  0  0  0
    6.0530  -10.3620    0.0000 C   0  0  0  0  0  0  0  0  0  0  0  0
    6.7960   -9.0590    0.0000 C   0  0  0  0  0  0  0  0  0  0  0  0
    8.2960   -9.0510    0.0000 C   0  0  0  0  0  0  0  0  0  0  0  0
    9.0400   -7.7480    0.0000 N   0  0  0  0  0  0  0  0  0  0  0  0
   10.5400   -7.7410    0.0000 C   0  0  0  0  0  0  0  0  0  0  0  0
   11.2960   -9.0360    0.0000 N   0  0  0  0  0  0  0  0  0  0  0  0
   11.2830   -6.4380    0.0000 N   0  0  0  0  0  0  0  0  0  0  0  0
    2.2830   -6.4840    0.0000 C   0  0  0  0  0  0  0  0  0  0  0  0
    3.7830   -6.4760    0.0000 C   0  0  0  0  0  0  0  0  0  0  0  0
    1.5260   -5.1880    0.0000 C   0  0  0  0  0  0  0  0  0  0  0  0
   -2.9600   -7.8090    0.0000 C   0  0  0  0  0  0  0  0  0  0  0  0
   -4.4600   -7.8170    0.0000 O   0  0  0  0  0  0  0  0  0  0  0  0
   -2.2040   -9.1050    0.0000 N   0  0  0  0  0  0  0  0  0  0  0  0
   -2.9470  -10.4070    0.0000 C   0  0  3  0  0  0  0  0  0  0  0  0
   -2.1900  -11.7030    0.0000 C   0  0  0  0  0  0  0  0  0  0  0  0
   -2.9340  -13.0060    0.0000 C   0  0  0  0  0  0  0  0  0  0  0  0
   -0.6900  -11.6950    0.0000 C   0  0  0  0  0  0  0  0  0  0  0  0
   -4.4470  -10.4150    0.0000 C   0  0  0  0  0  0  0  0  0  0  0  0
   -5.1900  -11.7180    0.0000 O   0  0  0  0  0  0  0  0  0  0  0  0
   -5.2040   -9.1200    0.0000 N   0  0  0  0  0  0  0  0  0  0  0  0
   -6.7040   -9.1280    0.0000 C   0  0  3  0  0  0  0  0  0  0  0  0
   -7.4600   -7.8320    0.0000 C   0  0  0  0  0  0  0  0  0  0  0  0
   -6.7170   -6.5300    0.0000 C   0  0  0  0  0  0  0  0  0  0  0  0
   -7.3340   -5.1620    0.0000 N   0  0  0  0  0  0  0  0  0  0  0  0
   -6.2240   -4.1530    0.0000 C   0  0  0  0  0  0  0  0  0  0  0  0
   -4.9210   -4.8960    0.0000 N   0  0  0  0  0  0  0  0  0  0  0  0
   -5.2260   -6.3650    0.0000 C   0  0  0  0  0  0  0  0  0  0  0  0
   -7.4470  -10.4300    0.0000 C   0  0  0  0  0  0  0  0  0  0  0  0
   -6.6900  -11.7260    0.0000 O   0  0  0  0  0  0  0  0  0  0  0  0
   -8.9470  -10.4380    0.0000 N   0  0  0  0  0  0  0  0  0  0  0  0
   -9.8350   -9.2290    0.0000 C   0  0  0  0  0  0  0  0  0  0  0  0
  -11.2590   -9.7000    0.0000 C   0  0  0  0  0  0  0  0  0  0  0  0
  -11.2510  -11.2000    0.0000 C   0  0  0  0  0  0  0  0  0  0  0  0
   -9.8220  -11.6560    0.0000 C   0  0  3  0  0  0  0  0  0  0  0  0
   -9.3520  -13.0800    0.0000 C   0  0  0  0  0  0  0  0  0  0  0  0
   -7.8830  -13.3850    0.0000 O   0  0  0  0  0  0  0  0  0  0  0  0
  -10.3500  -14.2000    0.0000 N   0  0  0  0  0  0  0  0  0  0  0  0
   -9.8790  -15.6240    0.0000 C   0  0  3  0  0  0  0  0  0  0  0  0
  -10.8770  -16.7440    0.0000 C   0  0  0  0  0  0  0  0  0  0  0  0
  -12.3460  -16.4400    0.0000 O   0  0  0  0  0  0  0  0  0  0  0  0
  -10.4060  -18.1680    0.0000 O   0  0  0  0  0  0  0  0  0  0  0  0
   -8.4100  -15.9290    0.0000 C   0  0  0  0  0  0  0  0  0  0  0  0
  1  2  1  0  0  0  0
  2  3  1  0  0  0  0
  2  7  2  0  0  0  0
  3  4  2  0  0  0  0
  4  5  1  0  0  0  0
  5  6  2  0  0  0  0
  5  8  1  0  0  0  0
  6  7  1  0  0  0  0
  8  9  1  0  0  0  0
  9 10  1  0  0  0  0
  9 34  1  0  0  0  0
 10 11  1  0  0  0  0
 11 12  2  0  0  0  0
 11 13  1  0  0  0  0
 13 14  1  0  0  0  0
 13 31  1  0  0  0  0
 14 15  1  0  0  0  0
 15 16  2  0  0  0  0
 15 17  1  0  0  0  0
 17 18  1  0  0  0  0
 17 24  1  0  0  0  0
 18 19  1  0  0  0  0
 19 20  2  0  0  0  0
 19 21  1  0  0  0  0
 21 22  1  0  0  0  0
 22 23  1  0  0  0  0
 24 25  1  0  0  0  0
 25 26  1  0  0  0  0
 26 27  1  0  0  0  0
 27 28  2  3  0  0  0
 28 29  1  0  0  0  0
 28 30  1  0  0  0  0
 31 32  1  0  0  0  0
 31 33  1  0  0  0  0
 34 35  2  0  0  0  0
 34 36  1  0  0  0  0
 36 37  1  0  0  0  0
 37 38  1  0  0  0  0
 37 41  1  0  0  0  0
 38 39  1  0  0  0  0
 38 40  1  0  0  0  0
 41 42  2  0  0  0  0
 41 43  1  0  0  0  0
 43 44  1  0  0  0  0
 44 45  1  0  0  0  0
 44 51  1  0  0  0  0
 45 46  1  0  0  0  0
 46 47  1  0  0  0  0
 46 50  2  0  0  0  0
 47 48  2  0  0  0  0
 48 49  1  0  0  0  0
 49 50  1  0  0  0  0
 51 52  2  0  0  0  0
 51 53  1  0  0  0  0
 53 54  1  0  0  0  0
 53 57  1  0  0  0  0
 54 55  1  0  0  0  0
 55 56  1  0  0  0  0
 56 57  1  0  0  0  0
 57 58  1  0  0  0  0
 58 59  2  0  0  0  0
 58 60  1  0  0  0  0
 60 61  1  0  0  0  0
 61 62  1  0  0  0  0
 61 65  1  0  0  0  0
 62 63  1  0  0  0  0
 62 64  2  0  0  0  0
M  END
>  <Index>
1417

>  <ID>
HT4020

>  <class>
0

>  <apol>
139.58154

>  <ast_fraglike>
0

>  <ast_fraglike_ext>
0

>  <ast_violation>
3

>  <ast_violation_ext>
5

>  <a_acc>
14

>  <a_acid>
0

>  <a_aro>
11

>  <a_base>
0

>  <a_count>
130

>  <a_don>
14

>  <a_donacc>
28

>  <a_heavy>
65

>  <a_hyd>
32

>  <a_IC>
213.65158

>  <a_ICM>
1.6434736

>  <a_nB>
0

>  <a_nBr>
0

>  <a_nC>
42

>  <a_nCl>
0

>  <a_nF>
0

>  <a_nH>
65

>  <a_nI>
0

>  <a_nN>
13

>  <a_nO>
10

>  <a_nP>
0

>  <a_nS>
0

>  <balabanJ>
1.8269733

>  <BCUT_PEOE_0>
-2.6723537

>  <BCUT_PEOE_1>
-0.52701342

>  <BCUT_PEOE_2>
0.43320584

>  <BCUT_PEOE_3>
2.740876

>  <BCUT_SLOGP_0>
-2.8835306

>  <BCUT_SLOGP_1>
-0.52880126

>  <BCUT_SLOGP_2>
0.46287861

>  <BCUT_SLOGP_3>
2.6896391

>  <BCUT_SMR_0>
-2.4193487

>  <BCUT_SMR_1>
-0.32254606

>  <BCUT_SMR_2>
0.62570459

>  <BCUT_SMR_3>
2.9927127

>  <bpol>
87.302452

>  <b_1rotN>
26

>  <b_1rotR>
0.38805971

>  <b_ar>
11

>  <b_count>
132

>  <b_double>
9

>  <b_heavy>
67

>  <b_max1len>
6

>  <b_rotN>
32

>  <b_rotR>
0.47761193

>  <b_single>
112

>  <b_triple>
0

>  <chi0>
48.379375

>  <chi0v>
37.680969

>  <chi0v_C>
27.024216

>  <chi0_C>
28.730957

>  <chi1>
30.711432

>  <chi1v>
21.518024

>  <chi1v_C>
12.37784

>  <chi1_C>
13.78573

>  <chiral>
7

>  <chiral_u>
7

>  <density>
0.76160878

>  <diameter>
26

>  <FCharge>
0

>  <GCUT_PEOE_0>
-0.84795427

>  <GCUT_PEOE_1>
-0.39978412

>  <GCUT_PEOE_2>
0.06738092

>  <GCUT_PEOE_3>
3.1654618

>  <GCUT_SLOGP_0>
-1.3840818

>  <GCUT_SLOGP_1>
-0.39826035

>  <GCUT_SLOGP_2>
0.054200001

>  <GCUT_SLOGP_3>
3.0821226

>  <GCUT_SMR_0>
-0.53004587

>  <GCUT_SMR_1>
-0.22003265

>  <GCUT_SMR_2>
0.18137313

>  <GCUT_SMR_3>
3.3998218

>  <Kier1>
59.309422

>  <Kier2>
30.674557

>  <Kier3>
20.706675

>  <KierA1>
44.807735

>  <KierA2>
23.066961

>  <KierA3>
15.520902

>  <KierFlex>
15.901205

>  <lip_acc>
23

>  <lip_don>
14

>  <lip_druglike>
0

>  <lip_violation>
3

>  <logP(o/w)>
-1.164

>  <logS>
-5.57442

>  <mr>
23.871738

>  <mutagenic>
0

>  <nmol>
1

>  <opr_brigid>
17

>  <opr_leadlike>
0

>  <opr_nring>
3

>  <opr_nrot>
26

>  <opr_violation>
4

>  <PC+>
0

>  <PC->
0

>  <PEOE_PC+>
7.786231

>  <PEOE_PC->
-7.786231

>  <PEOE_RPC+>
0.036205307

>  <PEOE_RPC->
0.047536049

>  <PEOE_VSA+0>
205.55632

>  <PEOE_VSA+1>
117.8335

>  <PEOE_VSA+2>
34.906124

>  <PEOE_VSA+3>
110.49072

>  <PEOE_VSA+4>
111.29506

>  <PEOE_VSA+5>
14.708499

>  <PEOE_VSA+6>
0

>  <PEOE_VSA-0>
103.50996

>  <PEOE_VSA-1>
99.500519

>  <PEOE_VSA-2>
0

>  <PEOE_VSA-3>
0

>  <PEOE_VSA-4>
5.6825762

>  <PEOE_VSA-5>
114.21794

>  <PEOE_VSA-6>
29.932447

>  <PEOE_VSA_FHYD>
0.70892072

>  <PEOE_VSA_FNEG>
0.3723416

>  <PEOE_VSA_FPNEG>
0.15811275

>  <PEOE_VSA_FPOL>
0.29107928

>  <PEOE_VSA_FPOS>
0.62765837

>  <PEOE_VSA_FPPOS>
0.13296653

>  <PEOE_VSA_HYD>
671.79712

>  <PEOE_VSA_NEG>
352.84344

>  <PEOE_VSA_PNEG>
149.83296

>  <PEOE_VSA_POL>
275.83652

>  <PEOE_VSA_POS>
594.79022

>  <PEOE_VSA_PPOS>
126.00356

>  <petitjean>
0.5

>  <petitjeanSC>
1

>  <Q_PC+>
0

>  <Q_PC->
0

>  <Q_RPC+>
0

>  <Q_RPC->
0

>  <Q_VSA_FHYD>
1

>  <Q_VSA_FNEG>
0

>  <Q_VSA_FPNEG>
0

>  <Q_VSA_FPOL>
0

>  <Q_VSA_FPOS>
1

>  <Q_VSA_FPPOS>
0

>  <Q_VSA_HYD>
947.63367

>  <Q_VSA_NEG>
0

>  <Q_VSA_PNEG>
0

>  <Q_VSA_POL>
0

>  <Q_VSA_POS>
947.63367

>  <Q_VSA_PPOS>
0

>  <radius>
13

>  <reactive>
0

>  <rings>
3

>  <RPC+>
0

>  <RPC->
0

>  <rsynth>
1

>  <SlogP>
-2.5102601

>  <SlogP_VSA0>
217.25485

>  <SlogP_VSA1>
66.365883

>  <SlogP_VSA2>
235.55704

>  <SlogP_VSA3>
80.703964

>  <SlogP_VSA4>
14.763915

>  <SlogP_VSA5>
87.419525

>  <SlogP_VSA6>
0

>  <SlogP_VSA7>
104.57262

>  <SlogP_VSA8>
75.473625

>  <SlogP_VSA9>
171.8735

>  <SMR>
23.724501

>  <SMR_VSA0>
190.89774

>  <SMR_VSA1>
62.080601

>  <SMR_VSA2>
177.0676

>  <SMR_VSA3>
39.059532

>  <SMR_VSA4>
65.794373

>  <SMR_VSA5>
217.78305

>  <SMR_VSA6>
101.77477

>  <SMR_VSA7>
199.52727

>  <TPSA>
357.54999

>  <VAdjEq>
0.20292571

>  <VAdjMa>
7.0660892

>  <VDistEq>
4.4389138

>  <VDistMa>
11.792214

>  <vdw_area>
947.63367

>  <vdw_vol>
1197.5479

>  <vsa_acc>
100.65102

>  <vsa_acid>
0

>  <vsa_base>
0

>  <vsa_don>
69.580437

>  <vsa_hyd>
488.90521

>  <vsa_other>
145.8273

>  <vsa_pol>
227.97995

>  <Weight>
912.06299

>  <weinerPath>
21366

>  <weinerPol>
96

>  <zagreb>
316

$$$$