BrC=CC=C(C(CCN(C)C)c1ncccc1)/C=C
  MOE2013           2D

 19 19  0  0  1  0  0  0  0  0999 V2000
    0.0000    0.0000    0.0000 Br  0  0  0  0  0  0  0  0  0  0  0  0
   -1.2940   -0.7580    0.0000 C   0  0  0  0  0  0  0  0  0  0  0  0
   -2.5980   -0.0160    0.0000 C   0  0  0  0  0  0  0  0  0  0  0  0
   -3.8920   -0.7740    0.0000 C   0  0  0  0  0  0  0  0  0  0  0  0
   -5.1960   -0.0320    0.0000 C   0  0  0  0  0  0  0  0  0  0  0  0
   -6.4910   -0.7890    0.0000 C   0  0  3  0  0  0  0  0  0  0  0  0
   -6.4810   -2.2890    0.0000 C   0  0  0  0  0  0  0  0  0  0  0  0
   -7.7760   -3.0470    0.0000 C   0  0  0  0  0  0  0  0  0  0  0  0
   -7.7670   -4.5470    0.0000 N   0  0  0  0  0  0  0  0  0  0  0  0
   -9.0610   -5.3050    0.0000 C   0  0  0  0  0  0  0  0  0  0  0  0
   -6.4630   -5.2890    0.0000 C   0  0  0  0  0  0  0  0  0  0  0  0
   -7.7940   -0.0470    0.0000 C   0  0  0  0  0  0  0  0  0  0  0  0
   -9.0890   -0.8050    0.0000 N   0  0  0  0  0  0  0  0  0  0  0  0
  -10.3920   -0.0630    0.0000 C   0  0  0  0  0  0  0  0  0  0  0  0
  -10.4010    1.4370    0.0000 C   0  0  0  0  0  0  0  0  0  0  0  0
   -9.1070    2.1950    0.0000 C   0  0  0  0  0  0  0  0  0  0  0  0
   -7.8030    1.4530    0.0000 C   0  0  0  0  0  0  0  0  0  0  0  0
   -5.2050    1.4680    0.0000 C   0  0  0  0  0  0  0  0  0  0  0  0
   -3.9110    2.2260    0.0000 C   0  0  0  0  0  0  0  0  0  0  0  0
  1  2  1  0  0  0  0
  2  3  2  3  0  0  0
  3  4  1  0  0  0  0
  4  5  2  3  0  0  0
  5  6  1  0  0  0  0
  5 18  1  0  0  0  0
  6  7  1  0  0  0  0
  6 12  1  0  0  0  0
  7  8  1  0  0  0  0
  8  9  1  0  0  0  0
  9 10  1  0  0  0  0
  9 11  1  0  0  0  0
 12 13  1  0  0  0  0
 12 17  2  0  0  0  0
 13 14  2  0  0  0  0
 14 15  1  0  0  0  0
 15 16  2  0  0  0  0
 16 17  1  0  0  0  0
 18 19  2  0  0  0  0
M  END
>  <Index>
1334

>  <ID>
HT3466

>  <class>
0

>  <apol>
47.412655

>  <ast_fraglike>
0

>  <ast_fraglike_ext>
0

>  <ast_violation>
2

>  <ast_violation_ext>
3

>  <a_acc>
2

>  <a_acid>
0

>  <a_aro>
6

>  <a_base>
0

>  <a_count>
40

>  <a_don>
0

>  <a_donacc>
2

>  <a_heavy>
19

>  <a_hyd>
17

>  <a_IC>
54.638458

>  <a_ICM>
1.3659614

>  <a_nB>
0

>  <a_nBr>
1

>  <a_nC>
16

>  <a_nCl>
0

>  <a_nF>
0

>  <a_nH>
21

>  <a_nI>
0

>  <a_nN>
2

>  <a_nO>
0

>  <a_nP>
0

>  <a_nS>
0

>  <balabanJ>
2.5957358

>  <BCUT_PEOE_0>
-2.6492741

>  <BCUT_PEOE_1>
-0.53076291

>  <BCUT_PEOE_2>
0.59716773

>  <BCUT_PEOE_3>
2.579809

>  <BCUT_SLOGP_0>
-2.678216

>  <BCUT_SLOGP_1>
-0.43975684

>  <BCUT_SLOGP_2>
0.68816102

>  <BCUT_SLOGP_3>
2.6458249

>  <BCUT_SMR_0>
-2.3744256

>  <BCUT_SMR_1>
-0.40299401

>  <BCUT_SMR_2>
0.72663587

>  <BCUT_SMR_3>
2.8478336

>  <bpol>
27.547346

>  <b_1rotN>
7

>  <b_1rotR>
0.36842105

>  <b_ar>
6

>  <b_count>
40

>  <b_double>
3

>  <b_heavy>
19

>  <b_max1len>
6

>  <b_rotN>
7

>  <b_rotR>
0.36842105

>  <b_single>
31

>  <b_triple>
0

>  <chi0>
14.087576

>  <chi0v>
13.175861

>  <chi0v_C>
10.317472

>  <chi0_C>
11.803119

>  <chi1>
9.18507

>  <chi1v>
7.252893

>  <chi1v_C>
4.4265389

>  <chi1_C>
6.0067668

>  <chiral>
1

>  <chiral_u>
1

>  <density>
0.7691201

>  <diameter>
9

>  <FCharge>
0

>  <GCUT_PEOE_0>
-0.86393487

>  <GCUT_PEOE_1>
-0.34914219

>  <GCUT_PEOE_2>
0.064833596

>  <GCUT_PEOE_3>
2.5663252

>  <GCUT_SLOGP_0>
-0.95313871

>  <GCUT_SLOGP_1>
-0.25356975

>  <GCUT_SLOGP_2>
0.14334524

>  <GCUT_SLOGP_3>
2.6645248

>  <GCUT_SMR_0>
-0.51968759

>  <GCUT_SMR_1>
-0.18261829

>  <GCUT_SMR_2>
0.17006022

>  <GCUT_SMR_3>
2.8380992

>  <Kier1>
17.052631

>  <Kier2>
9.8336487

>  <Kier3>
6.3209877

>  <KierA1>
14.862409

>  <KierA2>
8.5011578

>  <KierA3>
5.4298854

>  <KierFlex>
6.649878

>  <lip_acc>
2

>  <lip_don>
0

>  <lip_druglike>
1

>  <lip_violation>
0

>  <logP(o/w)>
3.279

>  <logS>
-3.29355

>  <mr>
8.5941782

>  <mutagenic>
0

>  <nmol>
1

>  <opr_brigid>
9

>  <opr_leadlike>
1

>  <opr_nring>
1

>  <opr_nrot>
7

>  <opr_violation>
0

>  <PC+>
0

>  <PC->
0

>  <PEOE_PC+>
1.1563455

>  <PEOE_PC->
-1.1563455

>  <PEOE_RPC+>
0.071729317

>  <PEOE_RPC->
0.26662707

>  <PEOE_VSA+0>
70.364716

>  <PEOE_VSA+1>
42.653858

>  <PEOE_VSA+2>
0

>  <PEOE_VSA+3>
0

>  <PEOE_VSA+4>
0

>  <PEOE_VSA+5>
0

>  <PEOE_VSA+6>
0

>  <PEOE_VSA-0>
107.38794

>  <PEOE_VSA-1>
114.94573

>  <PEOE_VSA-2>
0

>  <PEOE_VSA-3>
0

>  <PEOE_VSA-4>
0

>  <PEOE_VSA-5>
5.6825762

>  <PEOE_VSA-6>
0

>  <PEOE_VSA_FHYD>
0.98333728

>  <PEOE_VSA_FNEG>
0.6686011

>  <PEOE_VSA_FPNEG>
0.016662745

>  <PEOE_VSA_FPOL>
0.016662745

>  <PEOE_VSA_FPOS>
0.33139893

>  <PEOE_VSA_FPPOS>
0

>  <PEOE_VSA_HYD>
335.35223

>  <PEOE_VSA_NEG>
228.01625

>  <PEOE_VSA_PNEG>
5.6825762

>  <PEOE_VSA_POL>
5.6825762

>  <PEOE_VSA_POS>
113.01857

>  <PEOE_VSA_PPOS>
0

>  <petitjean>
0.44444445

>  <petitjeanSC>
0.80000001

>  <Q_PC+>
0

>  <Q_PC->
0

>  <Q_RPC+>
0

>  <Q_RPC->
0

>  <Q_VSA_FHYD>
1

>  <Q_VSA_FNEG>
0

>  <Q_VSA_FPNEG>
0

>  <Q_VSA_FPOL>
0

>  <Q_VSA_FPOS>
1

>  <Q_VSA_FPPOS>
0

>  <Q_VSA_HYD>
341.03482

>  <Q_VSA_NEG>
0

>  <Q_VSA_PNEG>
0

>  <Q_VSA_POL>
0

>  <Q_VSA_POS>
341.03482

>  <Q_VSA_PPOS>
0

>  <radius>
5

>  <reactive>
0

>  <rings>
1

>  <RPC+>
0

>  <RPC->
0

>  <rsynth>
0.31578946

>  <SlogP>
4.1378999

>  <SlogP_VSA0>
0

>  <SlogP_VSA1>
19.909843

>  <SlogP_VSA2>
0

>  <SlogP_VSA3>
18.439579

>  <SlogP_VSA4>
2.7567475

>  <SlogP_VSA5>
68.97995

>  <SlogP_VSA6>
4.4107962

>  <SlogP_VSA7>
140.58618

>  <SlogP_VSA8>
18.868406

>  <SlogP_VSA9>
78.054886

>  <SMR>
8.6496

>  <SMR_VSA0>
0

>  <SMR_VSA1>
19.909843

>  <SMR_VSA2>
0

>  <SMR_VSA3>
10.353119

>  <SMR_VSA4>
0

>  <SMR_VSA5>
159.45459

>  <SMR_VSA6>
18.439579

>  <SMR_VSA7>
143.84926

>  <TPSA>
16.129999

>  <VAdjEq>
0.48546076

>  <VAdjMa>
5.2479277

>  <VDistEq>
3.0107872

>  <VDistMa>
8.2302008

>  <vdw_area>
341.03482

>  <vdw_vol>
417.70068

>  <vsa_acc>
5.6825762

>  <vsa_acid>
0

>  <vsa_base>
0

>  <vsa_don>
0

>  <vsa_hyd>
319.05948

>  <vsa_other>
0

>  <vsa_pol>
5.6825762

>  <Weight>
321.26199

>  <weinerPath>
732

>  <weinerPol>
24

>  <zagreb>
84

$$$$