OC(CO)C
  MOE2013           2D

  5  4  0  0  1  0  0  0  0  0999 V2000
    0.0000    0.0000    0.0000 O   0  0  0  0  0  0  0  0  0  0  0  0
   -1.2990    0.7500    0.0000 C   0  0  3  0  0  0  0  0  0  0  0  0
   -2.5980    0.0000    0.0000 C   0  0  0  0  0  0  0  0  0  0  0  0
   -3.8970    0.7500    0.0000 O   0  0  0  0  0  0  0  0  0  0  0  0
   -1.2990    2.2500    0.0000 C   0  0  0  0  0  0  0  0  0  0  0  0
  1  2  1  0  0  0  0
  2  3  1  0  0  0  0
  2  5  1  0  0  0  0
  3  4  1  0  0  0  0
M  END
>  <Index>
1188

>  <ID>
HT2341

>  <class>
0

>  <apol>
12.218344

>  <ast_fraglike>
1

>  <ast_fraglike_ext>
1

>  <ast_violation>
0

>  <ast_violation_ext>
0

>  <a_acc>
2

>  <a_acid>
0

>  <a_aro>
0

>  <a_base>
0

>  <a_count>
13

>  <a_don>
2

>  <a_donacc>
4

>  <a_heavy>
5

>  <a_hyd>
3

>  <a_IC>
17.350828

>  <a_ICM>
1.3346791

>  <a_nB>
0

>  <a_nBr>
0

>  <a_nC>
3

>  <a_nCl>
0

>  <a_nF>
0

>  <a_nH>
8

>  <a_nI>
0

>  <a_nN>
0

>  <a_nO>
2

>  <a_nP>
0

>  <a_nS>
0

>  <balabanJ>
2.5395389

>  <BCUT_PEOE_0>
-2.4994161

>  <BCUT_PEOE_1>
-0.47544527

>  <BCUT_PEOE_2>
0.60839319

>  <BCUT_PEOE_3>
2.4935732

>  <BCUT_SLOGP_0>
-2.5990858

>  <BCUT_SLOGP_1>
-0.57227945

>  <BCUT_SLOGP_2>
0.4758231

>  <BCUT_SLOGP_3>
2.4260721

>  <BCUT_SMR_0>
-2.2787199

>  <BCUT_SMR_1>
-0.39932597

>  <BCUT_SMR_2>
0.66776508

>  <BCUT_SMR_3>
2.7032907

>  <bpol>
8.745656

>  <b_1rotN>
1

>  <b_1rotR>
0.25

>  <b_ar>
0

>  <b_count>
12

>  <b_double>
0

>  <b_heavy>
4

>  <b_max1len>
5

>  <b_rotN>
1

>  <b_rotR>
0.25

>  <b_single>
12

>  <b_triple>
0

>  <chi0>
4.2844572

>  <chi0v>
3.1788843

>  <chi0v_C>
2.284457

>  <chi0_C>
2.284457

>  <chi1>
2.2700555

>  <chi1v>
1.5600252

>  <chi1v_C>
0.98559856

>  <chi1_C>
0.98559856

>  <chiral>
1

>  <chiral_u>
1

>  <density>
0.7300818

>  <diameter>
3

>  <FCharge>
0

>  <GCUT_PEOE_0>
-0.7988084

>  <GCUT_PEOE_1>
-0.32177269

>  <GCUT_PEOE_2>
0.11451183

>  <GCUT_PEOE_3>
1.8746544

>  <GCUT_SLOGP_0>
-0.92257667

>  <GCUT_SLOGP_1>
-0.41017962

>  <GCUT_SLOGP_2>
-0.0087453928

>  <GCUT_SLOGP_3>
1.8260105

>  <GCUT_SMR_0>
-0.52565068

>  <GCUT_SMR_1>
-0.2149085

>  <GCUT_SMR_2>
0.15761356

>  <GCUT_SMR_3>
2.0624852

>  <Kier1>
5

>  <Kier2>
2.25

>  <Kier3>
4

>  <KierA1>
5

>  <KierA2>
2.25

>  <KierA3>
4

>  <KierFlex>
2.25

>  <lip_acc>
2

>  <lip_don>
2

>  <lip_druglike>
1

>  <lip_violation>
0

>  <logP(o/w)>
-0.63599998

>  <logS>
0.48732999

>  <mr>
1.914418

>  <mutagenic>
0

>  <nmol>
1

>  <opr_brigid>
0

>  <opr_leadlike>
1

>  <opr_nring>
0

>  <opr_nrot>
1

>  <opr_violation>
0

>  <PC+>
0

>  <PC->
0

>  <PEOE_PC+>
0.81906581

>  <PEOE_PC->
-0.81906581

>  <PEOE_RPC+>
0.25622258

>  <PEOE_RPC->
0.47917682

>  <PEOE_VSA+0>
12.796158

>  <PEOE_VSA+1>
32.652378

>  <PEOE_VSA+2>
0

>  <PEOE_VSA+3>
0

>  <PEOE_VSA+4>
20.648346

>  <PEOE_VSA+5>
0

>  <PEOE_VSA+6>
0

>  <PEOE_VSA-0>
18.747677

>  <PEOE_VSA-1>
0

>  <PEOE_VSA-2>
0

>  <PEOE_VSA-3>
0

>  <PEOE_VSA-4>
0

>  <PEOE_VSA-5>
0

>  <PEOE_VSA-6>
15.535081

>  <PEOE_VSA_FHYD>
0.63953424

>  <PEOE_VSA_FNEG>
0.34153098

>  <PEOE_VSA_FPNEG>
0.15476327

>  <PEOE_VSA_FPOL>
0.36046579

>  <PEOE_VSA_FPOS>
0.65846902

>  <PEOE_VSA_FPPOS>
0.20570253

>  <PEOE_VSA_HYD>
64.196213

>  <PEOE_VSA_NEG>
34.282757

>  <PEOE_VSA_PNEG>
15.535081

>  <PEOE_VSA_POL>
36.183426

>  <PEOE_VSA_POS>
66.096886

>  <PEOE_VSA_PPOS>
20.648346

>  <petitjean>
0.33333334

>  <petitjeanSC>
0.5

>  <Q_PC+>
0

>  <Q_PC->
0

>  <Q_RPC+>
0

>  <Q_RPC->
0

>  <Q_VSA_FHYD>
1

>  <Q_VSA_FNEG>
0

>  <Q_VSA_FPNEG>
0

>  <Q_VSA_FPOL>
0

>  <Q_VSA_FPOS>
1

>  <Q_VSA_FPPOS>
0

>  <Q_VSA_HYD>
100.37964

>  <Q_VSA_NEG>
0

>  <Q_VSA_PNEG>
0

>  <Q_VSA_POL>
0

>  <Q_VSA_POS>
100.37964

>  <Q_VSA_PPOS>
0

>  <radius>
2

>  <reactive>
0

>  <rings>
0

>  <RPC+>
0

>  <RPC->
0

>  <rsynth>
1

>  <SlogP>
-0.64050001

>  <SlogP_VSA0>
50.770454

>  <SlogP_VSA1>
0

>  <SlogP_VSA2>
6.4686494

>  <SlogP_VSA3>
20.926258

>  <SlogP_VSA4>
0

>  <SlogP_VSA5>
0

>  <SlogP_VSA6>
0

>  <SlogP_VSA7>
0

>  <SlogP_VSA8>
0

>  <SlogP_VSA9>
33.326015

>  <SMR>
1.87666

>  <SMR_VSA0>
0

>  <SMR_VSA1>
50.770454

>  <SMR_VSA2>
0

>  <SMR_VSA3>
6.4686494

>  <SMR_VSA4>
0

>  <SMR_VSA5>
0

>  <SMR_VSA6>
20.926258

>  <SMR_VSA7>
33.326015

>  <TPSA>
40.459999

>  <VAdjEq>
0.90438145

>  <VAdjMa>
3

>  <VDistEq>
1.5219281

>  <VDistMa>
4.1971598

>  <vdw_area>
100.37964

>  <vdw_vol>
104.22804

>  <vsa_acc>
0

>  <vsa_acid>
0

>  <vsa_base>
0

>  <vsa_don>
0

>  <vsa_hyd>
59.925442

>  <vsa_other>
0

>  <vsa_pol>
27.133842

>  <Weight>
76.095001

>  <weinerPath>
18

>  <weinerPol>
2

>  <zagreb>
16

$$$$