s1c2CCCCc2c2c1NC(=O)CN=C2c1ccccc1
  MOE2013           2D

 21 24  0  0  0  0  0  0  0  0999 V2000
    0.0000    0.0000    0.0000 S   0  0  0  0  0  0  0  0  0  0  0  0
   -1.4870   -0.2010    0.0000 C   0  0  0  0  0  0  0  0  0  0  0  0
   -2.3320   -1.4390    0.0000 C   0  0  0  0  0  0  0  0  0  0  0  0
   -3.8280   -1.3260    0.0000 C   0  0  0  0  0  0  0  0  0  0  0  0
   -4.4780    0.0250    0.0000 C   0  0  0  0  0  0  0  0  0  0  0  0
   -3.6320    1.2640    0.0000 C   0  0  0  0  0  0  0  0  0  0  0  0
   -2.1370    1.1510    0.0000 C   0  0  0  0  0  0  0  0  0  0  0  0
   -1.0520    2.1870    0.0000 C   0  0  0  0  0  0  0  0  0  0  0  0
    0.2690    1.4760    0.0000 C   0  0  0  0  0  0  0  0  0  0  0  0
    1.6480    2.0660    0.0000 N   0  0  0  0  0  0  0  0  0  0  0  0
    2.0460    3.5120    0.0000 C   0  0  0  0  0  0  0  0  0  0  0  0
    3.5220    3.7800    0.0000 O   0  0  0  0  0  0  0  0  0  0  0  0
    1.1650    4.7260    0.0000 C   0  0  0  0  0  0  0  0  0  0  0  0
   -0.3330    4.7920    0.0000 N   0  0  0  0  0  0  0  0  0  0  0  0
   -1.3200    3.6630    0.0000 C   0  0  0  0  0  0  0  0  0  0  0  0
   -2.7660    4.0620    0.0000 C   0  0  0  0  0  0  0  0  0  0  0  0
   -3.1430    5.5140    0.0000 C   0  0  0  0  0  0  0  0  0  0  0  0
   -4.5890    5.9120    0.0000 C   0  0  0  0  0  0  0  0  0  0  0  0
   -5.6580    4.8600    0.0000 C   0  0  0  0  0  0  0  0  0  0  0  0
   -5.2800    3.4080    0.0000 C   0  0  0  0  0  0  0  0  0  0  0  0
   -3.8340    3.0090    0.0000 C   0  0  0  0  0  0  0  0  0  0  0  0
  1  2  1  0  0  0  0
  1  9  1  0  0  0  0
  2  3  1  0  0  0  0
  2  7  2  0  0  0  0
  3  4  1  0  0  0  0
  4  5  1  0  0  0  0
  5  6  1  0  0  0  0
  6  7  1  0  0  0  0
  7  8  1  0  0  0  0
  8  9  2  0  0  0  0
  8 15  1  0  0  0  0
  9 10  1  0  0  0  0
 10 11  1  0  0  0  0
 11 12  2  0  0  0  0
 11 13  1  0  0  0  0
 13 14  1  0  0  0  0
 14 15  2  0  0  0  0
 15 16  1  0  0  0  0
 16 17  1  0  0  0  0
 16 21  2  0  0  0  0
 17 18  2  0  0  0  0
 18 19  1  0  0  0  0
 19 20  2  0  0  0  0
 20 21  1  0  0  0  0
M  END
>  <Index>
118

>  <ID>
HT0240

>  <class>
0

>  <apol>
46.490688

>  <ast_fraglike>
0

>  <ast_fraglike_ext>
0

>  <ast_violation>
1

>  <ast_violation_ext>
1

>  <a_acc>
2

>  <a_acid>
0

>  <a_aro>
11

>  <a_base>
0

>  <a_count>
37

>  <a_don>
1

>  <a_donacc>
3

>  <a_heavy>
21

>  <a_hyd>
16

>  <a_IC>
57.262905

>  <a_ICM>
1.5476462

>  <a_nB>
0

>  <a_nBr>
0

>  <a_nC>
17

>  <a_nCl>
0

>  <a_nF>
0

>  <a_nH>
16

>  <a_nI>
0

>  <a_nN>
2

>  <a_nO>
1

>  <a_nP>
0

>  <a_nS>
1

>  <balabanJ>
1.5838041

>  <BCUT_PEOE_0>
-2.6419399

>  <BCUT_PEOE_1>
-0.6482026

>  <BCUT_PEOE_2>
0.58243114

>  <BCUT_PEOE_3>
2.6007326

>  <BCUT_SLOGP_0>
-2.5297081

>  <BCUT_SLOGP_1>
-0.53807992

>  <BCUT_SLOGP_2>
0.68841463

>  <BCUT_SLOGP_3>
2.7244656

>  <BCUT_SMR_0>
-2.3775508

>  <BCUT_SMR_1>
-0.43902916

>  <BCUT_SMR_2>
0.75109673

>  <BCUT_SMR_3>
2.8885326

>  <bpol>
22.709312

>  <b_1rotN>
1

>  <b_1rotR>
0.041666668

>  <b_ar>
11

>  <b_count>
40

>  <b_double>
2

>  <b_heavy>
24

>  <b_max1len>
2

>  <b_rotN>
1

>  <b_rotR>
0.041666668

>  <b_single>
27

>  <b_triple>
0

>  <chi0>
14.23384

>  <chi0v>
12.502492

>  <chi0v_C>
9.9222851

>  <chi0_C>
11.112519

>  <chi1>
10.3265

>  <chi1v>
8.1900473

>  <chi1v_C>
5.721344

>  <chi1_C>
7.2079082

>  <chiral>
0

>  <chiral_u>
0

>  <density>
0.75341636

>  <diameter>
9

>  <FCharge>
0

>  <GCUT_PEOE_0>
-0.82090044

>  <GCUT_PEOE_1>
-0.4402236

>  <GCUT_PEOE_2>
0.079252191

>  <GCUT_PEOE_3>
2.6513865

>  <GCUT_SLOGP_0>
-1.0067921

>  <GCUT_SLOGP_1>
-0.26386139

>  <GCUT_SLOGP_2>
0.13961267

>  <GCUT_SLOGP_3>
2.7648675

>  <GCUT_SMR_0>
-0.52225161

>  <GCUT_SMR_1>
-0.20102207

>  <GCUT_SMR_2>
0.2070553

>  <GCUT_SMR_3>
2.967298

>  <Kier1>
14.583333

>  <Kier2>
6.2456746

>  <Kier3>
2.8125

>  <KierA1>
11.457793

>  <KierA2>
4.843533

>  <KierA3>
2.1593249

>  <KierFlex>
2.6426764

>  <lip_acc>
3

>  <lip_don>
1

>  <lip_druglike>
1

>  <lip_violation>
0

>  <logP(o/w)>
3.073

>  <logS>
-4.9572101

>  <mr>
8.6230211

>  <mutagenic>
0

>  <nmol>
1

>  <opr_brigid>
22

>  <opr_leadlike>
1

>  <opr_nring>
4

>  <opr_nrot>
1

>  <opr_violation>
0

>  <PC+>
0

>  <PC->
0

>  <PEOE_PC+>
1.4671438

>  <PEOE_PC->
-1.4671438

>  <PEOE_RPC+>
0.1676776

>  <PEOE_RPC->
0.22732268

>  <PEOE_VSA+0>
47.215778

>  <PEOE_VSA+1>
36.557255

>  <PEOE_VSA+2>
13.192325

>  <PEOE_VSA+3>
28.379631

>  <PEOE_VSA+4>
12.949531

>  <PEOE_VSA+5>
0

>  <PEOE_VSA+6>
0

>  <PEOE_VSA-0>
37.013794

>  <PEOE_VSA-1>
65.459122

>  <PEOE_VSA-2>
0

>  <PEOE_VSA-3>
0

>  <PEOE_VSA-4>
0

>  <PEOE_VSA-5>
19.249496

>  <PEOE_VSA-6>
0.13689101

>  <PEOE_VSA_FHYD>
0.87570465

>  <PEOE_VSA_FNEG>
0.46841249

>  <PEOE_VSA_FPNEG>
0.074518941

>  <PEOE_VSA_FPOL>
0.12429538

>  <PEOE_VSA_FPOS>
0.53158748

>  <PEOE_VSA_FPPOS>
0.049776439

>  <PEOE_VSA_HYD>
227.8179

>  <PEOE_VSA_NEG>
121.8593

>  <PEOE_VSA_PNEG>
19.386389

>  <PEOE_VSA_POL>
32.335918

>  <PEOE_VSA_POS>
138.29453

>  <PEOE_VSA_PPOS>
12.949531

>  <petitjean>
0.44444445

>  <petitjeanSC>
0.80000001

>  <Q_PC+>
0

>  <Q_PC->
0

>  <Q_RPC+>
0

>  <Q_RPC->
0

>  <Q_VSA_FHYD>
1

>  <Q_VSA_FNEG>
0

>  <Q_VSA_FPNEG>
0

>  <Q_VSA_FPOL>
0

>  <Q_VSA_FPOS>
1

>  <Q_VSA_FPPOS>
0

>  <Q_VSA_HYD>
260.15381

>  <Q_VSA_NEG>
0

>  <Q_VSA_PNEG>
0

>  <Q_VSA_POL>
0

>  <Q_VSA_POS>
260.15381

>  <Q_VSA_PPOS>
0

>  <radius>
5

>  <reactive>
0

>  <rings>
4

>  <RPC+>
0

>  <RPC->
0

>  <rsynth>
1

>  <SlogP>
3.4163401

>  <SlogP_VSA0>
0

>  <SlogP_VSA1>
26.026281

>  <SlogP_VSA2>
23.862217

>  <SlogP_VSA3>
18.439579

>  <SlogP_VSA4>
10.915126

>  <SlogP_VSA5>
54.522339

>  <SlogP_VSA6>
0

>  <SlogP_VSA7>
88.215919

>  <SlogP_VSA8>
37.736813

>  <SlogP_VSA9>
32.20726

>  <SMR>
8.6538696

>  <SMR_VSA0>
23.862217

>  <SMR_VSA1>
16.78553

>  <SMR_VSA2>
0

>  <SMR_VSA3>
10.915126

>  <SMR_VSA4>
18.940325

>  <SMR_VSA5>
163.68954

>  <SMR_VSA6>
26.455109

>  <SMR_VSA7>
31.277687

>  <TPSA>
41.459999

>  <VAdjEq>
0.49641782

>  <VAdjMa>
5.5849624

>  <VDistEq>
2.8917315

>  <VDistMa>
8.530736

>  <vdw_area>
260.15381

>  <vdw_vol>
393.39999

>  <vsa_acc>
19.249496

>  <vsa_acid>
0

>  <vsa_base>
0

>  <vsa_don>
5.6825762

>  <vsa_hyd>
201.8224

>  <vsa_other>
19.649082

>  <vsa_pol>
24.932074

>  <Weight>
296.39398

>  <weinerPath>
822

>  <weinerPol>
37

>  <zagreb>
116

$$$$