O(C)c1cc(ccc1O)CC=C
  MOE2013           2D

 12 12  0  0  0  0  0  0  0  0999 V2000
    0.0000    0.0000    0.0000 O   0  0  0  0  0  0  0  0  0  0  0  0
   -0.0020    1.5000    0.0000 C   0  0  0  0  0  0  0  0  0  0  0  0
    1.3000   -0.7490    0.0000 C   0  0  0  0  0  0  0  0  0  0  0  0
    2.5980    0.0030    0.0000 C   0  0  0  0  0  0  0  0  0  0  0  0
    3.8980   -0.7460    0.0000 C   0  0  0  0  0  0  0  0  0  0  0  0
    3.9000   -2.2460    0.0000 C   0  0  0  0  0  0  0  0  0  0  0  0
    2.6010   -2.9970    0.0000 C   0  0  0  0  0  0  0  0  0  0  0  0
    1.3010   -2.2490    0.0000 C   0  0  0  0  0  0  0  0  0  0  0  0
    0.0030   -3.0000    0.0000 O   0  0  0  0  0  0  0  0  0  0  0  0
    5.1960    0.0060    0.0000 C   0  0  0  0  0  0  0  0  0  0  0  0
    6.4960   -0.7430    0.0000 C   0  0  0  0  0  0  0  0  0  0  0  0
    7.7940    0.0080    0.0000 C   0  0  0  0  0  0  0  0  0  0  0  0
  1  2  1  0  0  0  0
  1  3  1  0  0  0  0
  3  4  1  0  0  0  0
  3  8  2  0  0  0  0
  4  5  2  0  0  0  0
  5  6  1  0  0  0  0
  5 10  1  0  0  0  0
  6  7  2  0  0  0  0
  7  8  1  0  0  0  0
  8  9  1  0  0  0  0
 10 11  1  0  0  0  0
 11 12  2  0  0  0  0
M  END
>  <Index>
1235

>  <ID>
HT2690

>  <class>
0

>  <apol>
27.205517

>  <ast_fraglike>
1

>  <ast_fraglike_ext>
1

>  <ast_violation>
0

>  <ast_violation_ext>
0

>  <a_acc>
2

>  <a_acid>
0

>  <a_aro>
6

>  <a_base>
0

>  <a_count>
24

>  <a_don>
1

>  <a_donacc>
3

>  <a_heavy>
12

>  <a_hyd>
10

>  <a_IC>
31.800268

>  <a_ICM>
1.3250113

>  <a_nB>
0

>  <a_nBr>
0

>  <a_nC>
10

>  <a_nCl>
0

>  <a_nF>
0

>  <a_nH>
12

>  <a_nI>
0

>  <a_nN>
0

>  <a_nO>
2

>  <a_nP>
0

>  <a_nS>
0

>  <balabanJ>
2.3629498

>  <BCUT_PEOE_0>
-2.347357

>  <BCUT_PEOE_1>
-0.66811198

>  <BCUT_PEOE_2>
0.66304916

>  <BCUT_PEOE_3>
2.3050158

>  <BCUT_SLOGP_0>
-2.2656088

>  <BCUT_SLOGP_1>
-0.57955158

>  <BCUT_SLOGP_2>
0.75816625

>  <BCUT_SLOGP_3>
2.465745

>  <BCUT_SMR_0>
-2.0529282

>  <BCUT_SMR_1>
-0.48084894

>  <BCUT_SMR_2>
0.84289622

>  <BCUT_SMR_3>
2.605382

>  <bpol>
15.034484

>  <b_1rotN>
3

>  <b_1rotR>
0.25

>  <b_ar>
6

>  <b_count>
24

>  <b_double>
1

>  <b_heavy>
12

>  <b_max1len>
3

>  <b_rotN>
3

>  <b_rotR>
0.25

>  <b_single>
17

>  <b_triple>
0

>  <chi0>
8.9746914

>  <chi0v>
7.0790763

>  <chi0v_C>
6.2236147

>  <chi0_C>
7.2675848

>  <chi1>
5.7743869

>  <chi1v>
3.7440631

>  <chi1v_C>
2.9080839

>  <chi1_C>
4.0816817

>  <chiral>
0

>  <chiral_u>
0

>  <density>
0.68455821

>  <diameter>
7

>  <FCharge>
0

>  <GCUT_PEOE_0>
-0.78266943

>  <GCUT_PEOE_1>
-0.42134088

>  <GCUT_PEOE_2>
0.060798515

>  <GCUT_PEOE_3>
2.1943357

>  <GCUT_SLOGP_0>
-0.88687927

>  <GCUT_SLOGP_1>
-0.29095149

>  <GCUT_SLOGP_2>
0.14751628

>  <GCUT_SLOGP_3>
2.3640568

>  <GCUT_SMR_0>
-0.48374134

>  <GCUT_SMR_1>
-0.21811593

>  <GCUT_SMR_2>
0.19314586

>  <GCUT_SMR_3>
2.4786985

>  <Kier1>
10.083333

>  <Kier2>
4.8888888

>  <Kier3>
2.7777777

>  <KierA1>
7.550344

>  <KierA2>
3.5537989

>  <KierA3>
1.9723505

>  <KierFlex>
2.2360337

>  <lip_acc>
2

>  <lip_don>
1

>  <lip_druglike>
1

>  <lip_violation>
0

>  <logP(o/w)>
2.5109999

>  <logS>
-2.54492

>  <mr>
4.8739901

>  <mutagenic>
0

>  <nmol>
1

>  <opr_brigid>
7

>  <opr_leadlike>
1

>  <opr_nring>
1

>  <opr_nrot>
3

>  <opr_violation>
0

>  <PC+>
0

>  <PC->
0

>  <PEOE_PC+>
1.0529245

>  <PEOE_PC->
-1.0529245

>  <PEOE_RPC+>
0.20649311

>  <PEOE_RPC->
0.33931082

>  <PEOE_VSA+0>
33.528431

>  <PEOE_VSA+1>
38.388474

>  <PEOE_VSA+2>
16.917038

>  <PEOE_VSA+3>
0

>  <PEOE_VSA+4>
10.324173

>  <PEOE_VSA+5>
0

>  <PEOE_VSA+6>
0

>  <PEOE_VSA-0>
35.419662

>  <PEOE_VSA-1>
24.509808

>  <PEOE_VSA-2>
22.301268

>  <PEOE_VSA-3>
0

>  <PEOE_VSA-4>
0

>  <PEOE_VSA-5>
0

>  <PEOE_VSA-6>
10.271297

>  <PEOE_VSA_FHYD>
0.89254171

>  <PEOE_VSA_FNEG>
0.48263571

>  <PEOE_VSA_FPNEG>
0.053591195

>  <PEOE_VSA_FPOL>
0.10745828

>  <PEOE_VSA_FPOS>
0.51736426

>  <PEOE_VSA_FPPOS>
0.053867079

>  <PEOE_VSA_HYD>
171.06468

>  <PEOE_VSA_NEG>
92.502029

>  <PEOE_VSA_PNEG>
10.271297

>  <PEOE_VSA_POL>
20.595469

>  <PEOE_VSA_POS>
99.158112

>  <PEOE_VSA_PPOS>
10.324173

>  <petitjean>
0.42857143

>  <petitjeanSC>
0.75

>  <Q_PC+>
0

>  <Q_PC->
0

>  <Q_RPC+>
0

>  <Q_RPC->
0

>  <Q_VSA_FHYD>
1

>  <Q_VSA_FNEG>
0

>  <Q_VSA_FPNEG>
0

>  <Q_VSA_FPOL>
0

>  <Q_VSA_FPOS>
1

>  <Q_VSA_FPPOS>
0

>  <Q_VSA_HYD>
191.66014

>  <Q_VSA_NEG>
0

>  <Q_VSA_PNEG>
0

>  <Q_VSA_POL>
0

>  <Q_VSA_POS>
191.66014

>  <Q_VSA_PPOS>
0

>  <radius>
4

>  <reactive>
0

>  <rings>
1

>  <RPC+>
0

>  <RPC->
0

>  <rsynth>
0.083333336

>  <SlogP>
2.1292701

>  <SlogP_VSA0>
36.385113

>  <SlogP_VSA1>
0

>  <SlogP_VSA2>
0

>  <SlogP_VSA3>
0

>  <SlogP_VSA4>
3.185575

>  <SlogP_VSA5>
54.252274

>  <SlogP_VSA6>
0

>  <SlogP_VSA7>
70.572739

>  <SlogP_VSA8>
0

>  <SlogP_VSA9>
42.58765

>  <SMR>
4.8559799

>  <SMR_VSA0>
0

>  <SMR_VSA1>
36.385113

>  <SMR_VSA2>
0

>  <SMR_VSA3>
13.672431

>  <SMR_VSA4>
0

>  <SMR_VSA5>
89.441139

>  <SMR_VSA6>
0

>  <SMR_VSA7>
67.484665

>  <TPSA>
29.459999

>  <VAdjEq>
0.65002245

>  <VAdjMa>
4.5849624

>  <VDistEq>
2.5908866

>  <VDistMa>
6.849225

>  <vdw_area>
191.66014

>  <vdw_vol>
239.86856

>  <vsa_acc>
2.503756

>  <vsa_acid>
0

>  <vsa_base>
0

>  <vsa_don>
0

>  <vsa_hyd>
163.23492

>  <vsa_other>
0

>  <vsa_pol>
16.070677

>  <Weight>
164.20399

>  <weinerPath>
204

>  <weinerPol>
15

>  <zagreb>
54

$$$$