S(SC(=S)N(C)C)C(=S)N(C)C
  MOE2013           2D

 12 11  0  0  0  0  0  0  0  0999 V2000
    0.0000    0.0000    0.0000 S   0  0  0  0  0  0  0  0  0  0  0  0
    1.5000    0.0000    0.0000 S   0  0  0  0  0  0  0  0  0  0  0  0
    2.2500   -1.2980    0.0000 C   0  0  0  0  0  0  0  0  0  0  0  0
    1.5010   -2.5980    0.0000 S   0  0  0  0  0  0  0  0  0  0  0  0
    3.7500   -1.2980    0.0000 N   0  0  0  0  0  0  0  0  0  0  0  0
    4.5000    0.0010    0.0000 C   0  0  0  0  0  0  0  0  0  0  0  0
    4.5010   -2.5970    0.0000 C   0  0  0  0  0  0  0  0  0  0  0  0
   -0.7500    1.2990    0.0000 C   0  0  0  0  0  0  0  0  0  0  0  0
   -0.0010    2.5980    0.0000 S   0  0  0  0  0  0  0  0  0  0  0  0
   -2.2500    1.2980    0.0000 N   0  0  0  0  0  0  0  0  0  0  0  0
   -3.0000   -0.0010    0.0000 C   0  0  0  0  0  0  0  0  0  0  0  0
   -3.0010    2.5970    0.0000 C   0  0  0  0  0  0  0  0  0  0  0  0
  1  2  1  0  0  0  0
  1  8  1  0  0  0  0
  2  3  1  0  0  0  0
  3  4  2  0  0  0  0
  3  5  1  0  0  0  0
  5  6  1  0  0  0  0
  5  7  1  0  0  0  0
  8  9  2  0  0  0  0
  8 10  1  0  0  0  0
 10 11  1  0  0  0  0
 10 12  1  0  0  0  0
M  END
>  <Index>
1283

>  <ID>
HT3049

>  <class>
0

>  <apol>
32.361515

>  <ast_fraglike>
1

>  <ast_fraglike_ext>
0

>  <ast_violation>
0

>  <ast_violation_ext>
1

>  <a_acc>
2

>  <a_acid>
0

>  <a_aro>
0

>  <a_base>
0

>  <a_count>
24

>  <a_don>
0

>  <a_donacc>
2

>  <a_heavy>
12

>  <a_hyd>
6

>  <a_IC>
41.509773

>  <a_ICM>
1.729574

>  <a_nB>
0

>  <a_nBr>
0

>  <a_nC>
6

>  <a_nCl>
0

>  <a_nF>
0

>  <a_nH>
12

>  <a_nI>
0

>  <a_nN>
2

>  <a_nO>
0

>  <a_nP>
0

>  <a_nS>
4

>  <balabanJ>
3.5591495

>  <BCUT_PEOE_0>
-2.4786091

>  <BCUT_PEOE_1>
-0.0027884461

>  <BCUT_PEOE_2>
0.039422918

>  <BCUT_PEOE_3>
2.3415446

>  <BCUT_SLOGP_0>
-2.5514088

>  <BCUT_SLOGP_1>
0.123

>  <BCUT_SLOGP_2>
0.22332658

>  <BCUT_SLOGP_3>
2.3629746

>  <BCUT_SMR_0>
-2.1508811

>  <BCUT_SMR_1>
0.1057

>  <BCUT_SMR_2>
0.4729017

>  <BCUT_SMR_3>
2.7372105

>  <bpol>
21.638483

>  <b_1rotN>
3

>  <b_1rotR>
0.27272728

>  <b_ar>
0

>  <b_count>
23

>  <b_double>
2

>  <b_heavy>
11

>  <b_max1len>
4

>  <b_rotN>
5

>  <b_rotR>
0.45454547

>  <b_single>
21

>  <b_triple>
0

>  <chi0>
9.7236147

>  <chi0v>
10.793406

>  <chi0v_C>
5

>  <chi0_C>
5.1547008

>  <chi1>
5.4472647

>  <chi1v>
6.1855578

>  <chi1v_C>
0

>  <chi1_C>
0

>  <chiral>
0

>  <chiral_u>
0

>  <density>
0.8906731

>  <diameter>
7

>  <FCharge>
0

>  <GCUT_PEOE_0>
-0.84823561

>  <GCUT_PEOE_1>
-0.25696081

>  <GCUT_PEOE_2>
-0.12057708

>  <GCUT_PEOE_3>
2.0009787

>  <GCUT_SLOGP_0>
-0.95801747

>  <GCUT_SLOGP_1>
-0.10922984

>  <GCUT_SLOGP_2>
0.049707048

>  <GCUT_SLOGP_3>
2.0999455

>  <GCUT_SMR_0>
-0.49966335

>  <GCUT_SMR_1>
-0.054299999

>  <GCUT_SMR_2>
0.22571087

>  <GCUT_SMR_3>
2.4080327

>  <Kier1>
12

>  <Kier2>
5.6122451

>  <Kier3>
5.3254437

>  <KierA1>
15.851

>  <KierA2>
7.6063313

>  <KierA3>
7.3634377

>  <KierFlex>
10.047329

>  <lip_acc>
2

>  <lip_don>
0

>  <lip_druglike>
1

>  <lip_violation>
0

>  <logP(o/w)>
1.952

>  <logS>
-4.8751001

>  <mr>
6.2630386

>  <mutagenic>
0

>  <nmol>
1

>  <opr_brigid>
0

>  <opr_leadlike>
1

>  <opr_nring>
0

>  <opr_nrot>
3

>  <opr_violation>
0

>  <PC+>
0

>  <PC->
0

>  <PEOE_PC+>
0.70806521

>  <PEOE_PC->
-0.70806521

>  <PEOE_RPC+>
0.16337024

>  <PEOE_RPC->
0.40108854

>  <PEOE_VSA+0>
72.487984

>  <PEOE_VSA+1>
0

>  <PEOE_VSA+2>
62.769024

>  <PEOE_VSA+3>
0

>  <PEOE_VSA+4>
0

>  <PEOE_VSA+5>
0

>  <PEOE_VSA+6>
0

>  <PEOE_VSA-0>
92.954758

>  <PEOE_VSA-1>
43.473358

>  <PEOE_VSA-2>
0

>  <PEOE_VSA-3>
0

>  <PEOE_VSA-4>
0

>  <PEOE_VSA-5>
0

>  <PEOE_VSA-6>
0

>  <PEOE_VSA_FHYD>
1

>  <PEOE_VSA_FNEG>
0.5021553

>  <PEOE_VSA_FPNEG>
0

>  <PEOE_VSA_FPOL>
0

>  <PEOE_VSA_FPOS>
0.49784473

>  <PEOE_VSA_FPPOS>
0

>  <PEOE_VSA_HYD>
271.68512

>  <PEOE_VSA_NEG>
136.42812

>  <PEOE_VSA_PNEG>
0

>  <PEOE_VSA_POL>
0

>  <PEOE_VSA_POS>
135.257

>  <PEOE_VSA_PPOS>
0

>  <petitjean>
0.42857143

>  <petitjeanSC>
0.75

>  <Q_PC+>
0

>  <Q_PC->
0

>  <Q_RPC+>
0

>  <Q_RPC->
0

>  <Q_VSA_FHYD>
1

>  <Q_VSA_FNEG>
0

>  <Q_VSA_FPNEG>
0

>  <Q_VSA_FPOL>
0

>  <Q_VSA_FPOS>
1

>  <Q_VSA_FPPOS>
0

>  <Q_VSA_HYD>
271.68512

>  <Q_VSA_NEG>
0

>  <Q_VSA_PNEG>
0

>  <Q_VSA_POL>
0

>  <Q_VSA_POS>
271.68512

>  <Q_VSA_PPOS>
0

>  <radius>
4

>  <reactive>
1

>  <rings>
0

>  <RPC+>
0

>  <RPC->
0

>  <rsynth>
1

>  <SlogP>
2.0608001

>  <SlogP_VSA0>
0

>  <SlogP_VSA1>
6.2486277

>  <SlogP_VSA2>
0

>  <SlogP_VSA3>
0

>  <SlogP_VSA4>
0

>  <SlogP_VSA5>
131.58875

>  <SlogP_VSA6>
0

>  <SlogP_VSA7>
0

>  <SlogP_VSA8>
0

>  <SlogP_VSA9>
150.74756

>  <SMR>
6.7756

>  <SMR_VSA0>
0

>  <SMR_VSA1>
6.2486277

>  <SMR_VSA2>
0

>  <SMR_VSA3>
0

>  <SMR_VSA4>
0

>  <SMR_VSA5>
0

>  <SMR_VSA6>
0

>  <SMR_VSA7>
282.3363

>  <TPSA>
70.660004

>  <VAdjEq>
0.61674827

>  <VAdjMa>
4.4594316

>  <VDistEq>
2.7192059

>  <VDistMa>
6.8317947

>  <vdw_area>
271.68512

>  <vdw_vol>
269.95316

>  <vsa_acc>
62.769024

>  <vsa_acid>
0

>  <vsa_base>
0

>  <vsa_don>
0

>  <vsa_hyd>
179.0712

>  <vsa_other>
21.303349

>  <vsa_pol>
62.769024

>  <Weight>
240.44

>  <weinerPath>
226

>  <weinerPol>
13

>  <zagreb>
50

$$$$