O=C1N(N=C(C=C1)c1ccccc1)CC(=O)N(C(Cc1ccccc1)C)C
  MOE2013           2D

 27 29  0  0  1  0  0  0  0  0999 V2000
    0.0000    0.0000    0.0000 O   0  0  0  0  0  0  0  0  0  0  0  0
   -0.7570   -1.2950    0.0000 C   0  0  0  0  0  0  0  0  0  0  0  0
   -0.0150   -2.5980    0.0000 N   0  0  0  0  0  0  0  0  0  0  0  0
   -0.7720   -3.8930    0.0000 N   0  0  0  0  0  0  0  0  0  0  0  0
   -2.2720   -3.8840    0.0000 C   0  0  0  0  0  0  0  0  0  0  0  0
   -3.0150   -2.5810    0.0000 C   0  0  0  0  0  0  0  0  0  0  0  0
   -2.2570   -1.2860    0.0000 C   0  0  0  0  0  0  0  0  0  0  0  0
   -3.0300   -5.1790    0.0000 C   0  0  0  0  0  0  0  0  0  0  0  0
   -4.5300   -5.1700    0.0000 C   0  0  0  0  0  0  0  0  0  0  0  0
   -5.2870   -6.4650    0.0000 C   0  0  0  0  0  0  0  0  0  0  0  0
   -4.5440   -7.7680    0.0000 C   0  0  0  0  0  0  0  0  0  0  0  0
   -3.0440   -7.7770    0.0000 C   0  0  0  0  0  0  0  0  0  0  0  0
   -2.2870   -6.4820    0.0000 C   0  0  0  0  0  0  0  0  0  0  0  0
    1.4850   -2.6070    0.0000 C   0  0  0  0  0  0  0  0  0  0  0  0
    2.2280   -3.9100    0.0000 C   0  0  0  0  0  0  0  0  0  0  0  0
    1.4700   -5.2050    0.0000 O   0  0  0  0  0  0  0  0  0  0  0  0
    3.7280   -3.9180    0.0000 N   0  0  0  0  0  0  0  0  0  0  0  0
    4.4700   -5.2220    0.0000 C   0  0  3  0  0  0  0  0  0  0  0  0
    5.9700   -5.2300    0.0000 C   0  0  0  0  0  0  0  0  0  0  0  0
    6.7130   -6.5340    0.0000 C   0  0  0  0  0  0  0  0  0  0  0  0
    8.2130   -6.5420    0.0000 C   0  0  0  0  0  0  0  0  0  0  0  0
    8.9550   -7.8450    0.0000 C   0  0  0  0  0  0  0  0  0  0  0  0
    8.1980   -9.1400    0.0000 C   0  0  0  0  0  0  0  0  0  0  0  0
    6.6980   -9.1320    0.0000 C   0  0  0  0  0  0  0  0  0  0  0  0
    5.9550   -7.8280    0.0000 C   0  0  0  0  0  0  0  0  0  0  0  0
    3.7130   -6.5160    0.0000 C   0  0  0  0  0  0  0  0  0  0  0  0
    4.4850   -2.6240    0.0000 C   0  0  0  0  0  0  0  0  0  0  0  0
  1  2  2  0  0  0  0
  2  3  1  0  0  0  0
  2  7  1  0  0  0  0
  3  4  1  0  0  0  0
  3 14  1  0  0  0  0
  4  5  2  0  0  0  0
  5  6  1  0  0  0  0
  5  8  1  0  0  0  0
  6  7  2  0  0  0  0
  8  9  1  0  0  0  0
  8 13  2  0  0  0  0
  9 10  2  0  0  0  0
 10 11  1  0  0  0  0
 11 12  2  0  0  0  0
 12 13  1  0  0  0  0
 14 15  1  0  0  0  0
 15 16  2  0  0  0  0
 15 17  1  0  0  0  0
 17 18  1  0  0  0  0
 17 27  1  0  0  0  0
 18 19  1  0  0  0  0
 18 26  1  0  0  0  0
 19 20  1  0  0  0  0
 20 21  1  0  0  0  0
 20 25  2  0  0  0  0
 21 22  2  0  0  0  0
 22 23  1  0  0  0  0
 23 24  2  0  0  0  0
 24 25  1  0  0  0  0
M  END
>  <Index>
1359

>  <ID>
HT3648

>  <class>
0

>  <apol>
58.960239

>  <ast_fraglike>
0

>  <ast_fraglike_ext>
0

>  <ast_violation>
1

>  <ast_violation_ext>
2

>  <a_acc>
3

>  <a_acid>
0

>  <a_aro>
12

>  <a_base>
0

>  <a_count>
50

>  <a_don>
0

>  <a_donacc>
3

>  <a_heavy>
27

>  <a_hyd>
19

>  <a_IC>
73.288498

>  <a_ICM>
1.46577

>  <a_nB>
0

>  <a_nBr>
0

>  <a_nC>
22

>  <a_nCl>
0

>  <a_nF>
0

>  <a_nH>
23

>  <a_nI>
0

>  <a_nN>
3

>  <a_nO>
2

>  <a_nP>
0

>  <a_nS>
0

>  <balabanJ>
1.4747823

>  <BCUT_PEOE_0>
-2.6417036

>  <BCUT_PEOE_1>
-0.61152738

>  <BCUT_PEOE_2>
0.64643204

>  <BCUT_PEOE_3>
2.5890918

>  <BCUT_SLOGP_0>
-2.7334716

>  <BCUT_SLOGP_1>
-0.50669771

>  <BCUT_SLOGP_2>
0.6902281

>  <BCUT_SLOGP_3>
2.5502934

>  <BCUT_SMR_0>
-2.3678374

>  <BCUT_SMR_1>
-0.4511255

>  <BCUT_SMR_2>
0.80360121

>  <BCUT_SMR_3>
2.8562231

>  <bpol>
31.01976

>  <b_1rotN>
7

>  <b_1rotR>
0.24137931

>  <b_ar>
12

>  <b_count>
52

>  <b_double>
4

>  <b_heavy>
29

>  <b_max1len>
5

>  <b_rotN>
7

>  <b_rotR>
0.24137931

>  <b_single>
36

>  <b_triple>
0

>  <chi0>
19.225405

>  <chi0v>
15.577905

>  <chi0v_C>
13.419767

>  <chi0_C>
15.363597

>  <chi1>
13.041714

>  <chi1v>
8.9754648

>  <chi1v_C>
6.6747561

>  <chi1_C>
9.084918

>  <chiral>
1

>  <chiral_u>
1

>  <density>
0.70164269

>  <diameter>
15

>  <FCharge>
0

>  <GCUT_PEOE_0>
-0.85136932

>  <GCUT_PEOE_1>
-0.38949063

>  <GCUT_PEOE_2>
0.07281398

>  <GCUT_PEOE_3>
2.6323121

>  <GCUT_SLOGP_0>
-0.97631866

>  <GCUT_SLOGP_1>
-0.29070258

>  <GCUT_SLOGP_2>
0.13876857

>  <GCUT_SLOGP_3>
2.6407068

>  <GCUT_SMR_0>
-0.51971471

>  <GCUT_SMR_1>
-0.20969033

>  <GCUT_SMR_2>
0.1832785

>  <GCUT_SMR_3>
2.900996

>  <Kier1>
21.702734

>  <Kier2>
10.683761

>  <Kier3>
6.237401

>  <KierA1>
14.980109

>  <KierA2>
7.2600136

>  <KierA3>
4.1894269

>  <KierFlex>
4.0279927

>  <lip_acc>
5

>  <lip_don>
0

>  <lip_druglike>
1

>  <lip_violation>
0

>  <logP(o/w)>
3.8559999

>  <logS>
-4.8408799

>  <mr>
10.709887

>  <mutagenic>
0

>  <nmol>
1

>  <opr_brigid>
18

>  <opr_leadlike>
1

>  <opr_nring>
3

>  <opr_nrot>
6

>  <opr_violation>
0

>  <PC+>
0

>  <PC->
0

>  <PEOE_PC+>
1.9821383

>  <PEOE_PC->
-1.9821383

>  <PEOE_RPC+>
0.13506734

>  <PEOE_RPC->
0.17190784

>  <PEOE_VSA+0>
74.971184

>  <PEOE_VSA+1>
70.680344

>  <PEOE_VSA+2>
13.192325

>  <PEOE_VSA+3>
0

>  <PEOE_VSA+4>
12.949531

>  <PEOE_VSA+5>
12.949531

>  <PEOE_VSA+6>
0

>  <PEOE_VSA-0>
41.912434

>  <PEOE_VSA-1>
122.54904

>  <PEOE_VSA-2>
0

>  <PEOE_VSA-3>
9.4210396

>  <PEOE_VSA-4>
0

>  <PEOE_VSA-5>
27.133842

>  <PEOE_VSA-6>
0

>  <PEOE_VSA_FHYD>
0.86252332

>  <PEOE_VSA_FNEG>
0.52109277

>  <PEOE_VSA_FPNEG>
0.070338793

>  <PEOE_VSA_FPOL>
0.13747668

>  <PEOE_VSA_FPOS>
0.47890726

>  <PEOE_VSA_FPPOS>
0.06713789

>  <PEOE_VSA_HYD>
332.72635

>  <PEOE_VSA_NEG>
201.01636

>  <PEOE_VSA_PNEG>
27.133842

>  <PEOE_VSA_POL>
53.032902

>  <PEOE_VSA_POS>
184.7429

>  <PEOE_VSA_PPOS>
25.899061

>  <petitjean>
0.46666667

>  <petitjeanSC>
0.875

>  <Q_PC+>
0

>  <Q_PC->
0

>  <Q_RPC+>
0

>  <Q_RPC->
0

>  <Q_VSA_FHYD>
1

>  <Q_VSA_FNEG>
0

>  <Q_VSA_FPNEG>
0

>  <Q_VSA_FPOL>
0

>  <Q_VSA_FPOS>
1

>  <Q_VSA_FPPOS>
0

>  <Q_VSA_HYD>
385.75928

>  <Q_VSA_NEG>
0

>  <Q_VSA_PNEG>
0

>  <Q_VSA_POL>
0

>  <Q_VSA_POS>
385.75928

>  <Q_VSA_PPOS>
0

>  <radius>
8

>  <reactive>
0

>  <rings>
3

>  <RPC+>
0

>  <RPC->
0

>  <rsynth>
1

>  <SlogP>
2.87867

>  <SlogP_VSA0>
0

>  <SlogP_VSA1>
19.400421

>  <SlogP_VSA2>
51.706402

>  <SlogP_VSA3>
18.439579

>  <SlogP_VSA4>
6.37115

>  <SlogP_VSA5>
68.428604

>  <SlogP_VSA6>
0

>  <SlogP_VSA7>
211.71822

>  <SlogP_VSA8>
0

>  <SlogP_VSA9>
33.326015

>  <SMR>
10.621

>  <SMR_VSA0>
47.724434

>  <SMR_VSA1>
22.789114

>  <SMR_VSA2>
0

>  <SMR_VSA3>
10.353119

>  <SMR_VSA4>
0

>  <SMR_VSA5>
230.58662

>  <SMR_VSA6>
31.713892

>  <SMR_VSA7>
66.223206

>  <TPSA>
52.98

>  <VAdjEq>
0.40063059

>  <VAdjMa>
5.8579812

>  <VDistEq>
3.6476433

>  <VDistMa>
9.2030029

>  <vdw_area>
385.75928

>  <vdw_vol>
515.14111

>  <vsa_acc>
36.554882

>  <vsa_acid>
0

>  <vsa_base>
0

>  <vsa_don>
0

>  <vsa_hyd>
300.23447

>  <vsa_other>
32.598614

>  <vsa_pol>
36.554882

>  <Weight>
361.44498

>  <weinerPath>
2046

>  <weinerPol>
40

>  <zagreb>
136

$$$$