O=C1NC(=O)NC(=O)C1(CCCC)CC
  MOE2013           2D

 15 15  0  0  0  0  0  0  0  0999 V2000
    0.0000    0.0000    0.0000 O   0  0  0  0  0  0  0  0  0  0  0  0
   -0.7540    1.2970    0.0000 C   0  0  0  0  0  0  0  0  0  0  0  0
   -2.2540    1.2920    0.0000 N   0  0  0  0  0  0  0  0  0  0  0  0
   -3.0080    2.5890    0.0000 C   0  0  0  0  0  0  0  0  0  0  0  0
   -4.5080    2.5840    0.0000 O   0  0  0  0  0  0  0  0  0  0  0  0
   -2.2620    3.8900    0.0000 N   0  0  0  0  0  0  0  0  0  0  0  0
   -0.7620    3.8950    0.0000 C   0  0  0  0  0  0  0  0  0  0  0  0
   -0.0160    5.1960    0.0000 O   0  0  0  0  0  0  0  0  0  0  0  0
   -0.0080    2.5980    0.0000 C   0  0  0  0  0  0  0  0  0  0  0  0
    1.2930    1.8520    0.0000 C   0  0  0  0  0  0  0  0  0  0  0  0
    2.5900    2.6060    0.0000 C   0  0  0  0  0  0  0  0  0  0  0  0
    3.8910    1.8600    0.0000 C   0  0  0  0  0  0  0  0  0  0  0  0
    5.1880    2.6140    0.0000 C   0  0  0  0  0  0  0  0  0  0  0  0
    1.2890    3.3520    0.0000 C   0  0  0  0  0  0  0  0  0  0  0  0
    1.2840    4.8520    0.0000 C   0  0  0  0  0  0  0  0  0  0  0  0
  1  2  2  0  0  0  0
  2  3  1  0  0  0  0
  2  9  1  0  0  0  0
  3  4  1  0  0  0  0
  4  5  2  0  0  0  0
  4  6  1  0  0  0  0
  6  7  1  0  0  0  0
  7  8  2  0  0  0  0
  7  9  1  0  0  0  0
  9 10  1  0  0  0  0
  9 14  1  0  0  0  0
 10 11  1  0  0  0  0
 11 12  1  0  0  0  0
 12 13  1  0  0  0  0
 14 15  1  0  0  0  0
M  END
>  <Index>
170

>  <ID>
HT0336

>  <class>
0

>  <apol>
32.874687

>  <ast_fraglike>
1

>  <ast_fraglike_ext>
0

>  <ast_violation>
0

>  <ast_violation_ext>
1

>  <a_acc>
3

>  <a_acid>
0

>  <a_aro>
0

>  <a_base>
0

>  <a_count>
31

>  <a_don>
2

>  <a_donacc>
5

>  <a_heavy>
15

>  <a_hyd>
7

>  <a_IC>
49.605919

>  <a_ICM>
1.6001909

>  <a_nB>
0

>  <a_nBr>
0

>  <a_nC>
10

>  <a_nCl>
0

>  <a_nF>
0

>  <a_nH>
16

>  <a_nI>
0

>  <a_nN>
2

>  <a_nO>
3

>  <a_nP>
0

>  <a_nS>
0

>  <balabanJ>
2.7582092

>  <BCUT_PEOE_0>
-2.6853356

>  <BCUT_PEOE_1>
-0.44877201

>  <BCUT_PEOE_2>
0.42036918

>  <BCUT_PEOE_3>
2.7363505

>  <BCUT_SLOGP_0>
-2.7981548

>  <BCUT_SLOGP_1>
-0.22709154

>  <BCUT_SLOGP_2>
0.398238

>  <BCUT_SLOGP_3>
2.7673607

>  <BCUT_SMR_0>
-2.4537184

>  <BCUT_SMR_1>
-0.25365576

>  <BCUT_SMR_2>
0.50699031

>  <BCUT_SMR_3>
2.9657242

>  <bpol>
21.685312

>  <b_1rotN>
4

>  <b_1rotR>
0.26666668

>  <b_ar>
0

>  <b_count>
31

>  <b_double>
3

>  <b_heavy>
15

>  <b_max1len>
8

>  <b_rotN>
4

>  <b_rotR>
0.26666668

>  <b_single>
28

>  <b_triple>
0

>  <chi0>
11.474691

>  <chi0v>
9.0531721

>  <chi0v_C>
6.8284273

>  <chi0_C>
7.0604777

>  <chi1>
7.0637145

>  <chi1v>
5.2336926

>  <chi1v_C>
3.6213202

>  <chi1_C>
3.6986706

>  <chiral>
0

>  <chiral_u>
0

>  <density>
0.75694406

>  <diameter>
8

>  <FCharge>
0

>  <GCUT_PEOE_0>
-0.79431731

>  <GCUT_PEOE_1>
-0.45905489

>  <GCUT_PEOE_2>
0.089602575

>  <GCUT_PEOE_3>
2.5940356

>  <GCUT_SLOGP_0>
-1.183894

>  <GCUT_SLOGP_1>
-0.33851245

>  <GCUT_SLOGP_2>
0.018506758

>  <GCUT_SLOGP_3>
2.5908256

>  <GCUT_SMR_0>
-0.5304181

>  <GCUT_SMR_1>
-0.20706728

>  <GCUT_SMR_2>
0.14031948

>  <GCUT_SMR_3>
2.8124611

>  <Kier1>
13.066667

>  <Kier2>
5.3650794

>  <Kier3>
2.5714285

>  <KierA1>
9.957201

>  <KierA2>
4.0015359

>  <KierA3>
1.8843395

>  <KierFlex>
2.6562731

>  <lip_acc>
5

>  <lip_don>
2

>  <lip_druglike>
1

>  <lip_violation>
0

>  <logP(o/w)>
1.7690001

>  <logS>
-2.87413

>  <mr>
5.5835733

>  <mutagenic>
0

>  <nmol>
1

>  <opr_brigid>
6

>  <opr_leadlike>
1

>  <opr_nring>
1

>  <opr_nrot>
4

>  <opr_violation>
0

>  <PC+>
0

>  <PC->
0

>  <PEOE_PC+>
1.645466

>  <PEOE_PC->
-1.645466

>  <PEOE_RPC+>
0.19994658

>  <PEOE_RPC->
0.16879244

>  <PEOE_VSA+0>
59.715405

>  <PEOE_VSA+1>
0

>  <PEOE_VSA+2>
0

>  <PEOE_VSA+3>
17.238026

>  <PEOE_VSA+4>
25.899061

>  <PEOE_VSA+5>
0

>  <PEOE_VSA+6>
17.440542

>  <PEOE_VSA-0>
17.402626

>  <PEOE_VSA-1>
54.89798

>  <PEOE_VSA-2>
0

>  <PEOE_VSA-3>
0

>  <PEOE_VSA-4>
13.566921

>  <PEOE_VSA-5>
27.407623

>  <PEOE_VSA-6>
0

>  <PEOE_VSA_FHYD>
0.63901699

>  <PEOE_VSA_FNEG>
0.4849768

>  <PEOE_VSA_FPNEG>
0.17542861

>  <PEOE_VSA_FPOL>
0.36098301

>  <PEOE_VSA_FPOS>
0.51502317

>  <PEOE_VSA_FPPOS>
0.1855544

>  <PEOE_VSA_HYD>
149.25404

>  <PEOE_VSA_NEG>
113.27515

>  <PEOE_VSA_PNEG>
40.974545

>  <PEOE_VSA_POL>
84.314148

>  <PEOE_VSA_POS>
120.29304

>  <PEOE_VSA_PPOS>
43.339603

>  <petitjean>
0.5

>  <petitjeanSC>
1

>  <Q_PC+>
0

>  <Q_PC->
0

>  <Q_RPC+>
0

>  <Q_RPC->
0

>  <Q_VSA_FHYD>
1

>  <Q_VSA_FNEG>
0

>  <Q_VSA_FPNEG>
0

>  <Q_VSA_FPOL>
0

>  <Q_VSA_FPOS>
1

>  <Q_VSA_FPPOS>
0

>  <Q_VSA_HYD>
233.56819

>  <Q_VSA_NEG>
0

>  <Q_VSA_PNEG>
0

>  <Q_VSA_POL>
0

>  <Q_VSA_POS>
233.56819

>  <Q_VSA_PPOS>
0

>  <radius>
4

>  <reactive>
0

>  <rings>
1

>  <RPC+>
0

>  <RPC->
0

>  <rsynth>
1

>  <SlogP>
0.93900001

>  <SlogP_VSA0>
36.0215

>  <SlogP_VSA1>
15.347524

>  <SlogP_VSA2>
47.724434

>  <SlogP_VSA3>
0

>  <SlogP_VSA4>
0

>  <SlogP_VSA5>
0

>  <SlogP_VSA6>
0

>  <SlogP_VSA7>
0

>  <SlogP_VSA8>
75.473625

>  <SlogP_VSA9>
90.514244

>  <SMR>
5.3930402

>  <SMR_VSA0>
71.586647

>  <SMR_VSA1>
0

>  <SMR_VSA2>
36.0215

>  <SMR_VSA3>
0

>  <SMR_VSA4>
0

>  <SMR_VSA5>
75.473625

>  <SMR_VSA6>
15.347524

>  <SMR_VSA7>
66.652031

>  <TPSA>
75.269997

>  <VAdjEq>
0.56650949

>  <VAdjMa>
4.9068904

>  <VDistEq>
2.6361823

>  <VDistMa>
7.5399199

>  <vdw_area>
233.56819

>  <vdw_vol>
280.4025

>  <vsa_acc>
40.700764

>  <vsa_acid>
0

>  <vsa_base>
0

>  <vsa_don>
11.365152

>  <vsa_hyd>
122.05088

>  <vsa_other>
43.339603

>  <vsa_pol>
52.065914

>  <Weight>
212.24899

>  <weinerPath>
346

>  <weinerPol>
25

>  <zagreb>
72

$$$$