O1C(COC(=O)c2n(Cc3ccc(cc3)-c3ccccc3-c3nn[nH]n3)c(nc2C(O)(C)C)CCC)=C(OC1=O)C
  MOE2013           2D

 41 45  0  0  0  0  0  0  0  0999 V2000
    0.0000    0.0000    0.0000 O   0  0  0  0  0  0  0  0  0  0  0  0
   -0.5930   -1.3780    0.0000 C   0  0  0  0  0  0  0  0  0  0  0  0
   -2.0560   -1.7080    0.0000 C   0  0  0  0  0  0  0  0  0  0  0  0
   -3.0740   -0.6060    0.0000 O   0  0  0  0  0  0  0  0  0  0  0  0
   -4.5370   -0.9360    0.0000 C   0  0  0  0  0  0  0  0  0  0  0  0
   -4.9830   -2.3680    0.0000 O   0  0  0  0  0  0  0  0  0  0  0  0
   -5.5540    0.1660    0.0000 C   0  0  0  0  0  0  0  0  0  0  0  0
   -7.0440   -0.0090    0.0000 N   0  0  0  0  0  0  0  0  0  0  0  0
   -7.7780   -1.3180    0.0000 C   0  0  0  0  0  0  0  0  0  0  0  0
   -9.2780   -1.3360    0.0000 C   0  0  0  0  0  0  0  0  0  0  0  0
  -10.0110   -2.6450    0.0000 C   0  0  0  0  0  0  0  0  0  0  0  0
  -11.5110   -2.6640    0.0000 C   0  0  0  0  0  0  0  0  0  0  0  0
  -12.2780   -1.3740    0.0000 C   0  0  0  0  0  0  0  0  0  0  0  0
  -11.5440   -0.0660    0.0000 C   0  0  0  0  0  0  0  0  0  0  0  0
  -10.0440   -0.0470    0.0000 C   0  0  0  0  0  0  0  0  0  0  0  0
  -13.7770   -1.3930    0.0000 C   0  0  0  0  0  0  0  0  0  0  0  0
  -14.5440   -0.1030    0.0000 C   0  0  0  0  0  0  0  0  0  0  0  0
  -16.0430   -0.1220    0.0000 C   0  0  0  0  0  0  0  0  0  0  0  0
  -16.7770   -1.4300    0.0000 C   0  0  0  0  0  0  0  0  0  0  0  0
  -16.0110   -2.7200    0.0000 C   0  0  0  0  0  0  0  0  0  0  0  0
  -14.5110   -2.7010    0.0000 C   0  0  0  0  0  0  0  0  0  0  0  0
  -13.7450   -3.9910    0.0000 C   0  0  0  0  0  0  0  0  0  0  0  0
  -14.3380   -5.3680    0.0000 N   0  0  0  0  0  0  0  0  0  0  0  0
  -13.2110   -6.3580    0.0000 N   0  0  0  0  0  0  0  0  0  0  0  0
  -11.9210   -5.5920    0.0000 N   0  0  0  0  0  0  0  0  0  0  0  0
  -12.2510   -4.1290    0.0000 N   0  0  0  0  0  0  0  0  0  0  0  0
   -7.6710    1.3530    0.0000 C   0  0  0  0  0  0  0  0  0  0  0  0
   -6.5690    2.3710    0.0000 N   0  0  0  0  0  0  0  0  0  0  0  0
   -5.2610    1.6370    0.0000 C   0  0  0  0  0  0  0  0  0  0  0  0
   -3.8980    2.2640    0.0000 C   0  0  0  0  0  0  0  0  0  0  0  0
   -4.5260    3.6270    0.0000 O   0  0  0  0  0  0  0  0  0  0  0  0
   -3.2710    0.9020    0.0000 C   0  0  0  0  0  0  0  0  0  0  0  0
   -2.5360    2.8910    0.0000 C   0  0  0  0  0  0  0  0  0  0  0  0
   -9.1420    1.6470    0.0000 C   0  0  0  0  0  0  0  0  0  0  0  0
   -9.6240    3.0670    0.0000 C   0  0  0  0  0  0  0  0  0  0  0  0
  -11.0950    3.3610    0.0000 C   0  0  0  0  0  0  0  0  0  0  0  0
    0.5340   -2.3680    0.0000 C   0  0  0  0  0  0  0  0  0  0  0  0
    1.8240   -1.6010    0.0000 O   0  0  0  0  0  0  0  0  0  0  0  0
    1.4940   -0.1380    0.0000 C   0  0  0  0  0  0  0  0  0  0  0  0
    2.4830    0.9890    0.0000 O   0  0  0  0  0  0  0  0  0  0  0  0
    0.3960   -3.8610    0.0000 C   0  0  0  0  0  0  0  0  0  0  0  0
  1  2  1  0  0  0  0
  1 39  1  0  0  0  0
  2  3  1  0  0  0  0
  2 37  2  0  0  0  0
  3  4  1  0  0  0  0
  4  5  1  0  0  0  0
  5  6  2  0  0  0  0
  5  7  1  0  0  0  0
  7  8  1  0  0  0  0
  7 29  2  0  0  0  0
  8  9  1  0  0  0  0
  8 27  1  0  0  0  0
  9 10  1  0  0  0  0
 10 11  1  0  0  0  0
 10 15  2  0  0  0  0
 11 12  2  0  0  0  0
 12 13  1  0  0  0  0
 13 14  2  0  0  0  0
 13 16  1  0  0  0  0
 14 15  1  0  0  0  0
 16 17  1  0  0  0  0
 16 21  2  0  0  0  0
 17 18  2  0  0  0  0
 18 19  1  0  0  0  0
 19 20  2  0  0  0  0
 20 21  1  0  0  0  0
 21 22  1  0  0  0  0
 22 23  1  0  0  0  0
 22 26  2  0  0  0  0
 23 24  2  0  0  0  0
 24 25  1  0  0  0  0
 25 26  1  0  0  0  0
 27 28  2  0  0  0  0
 27 34  1  0  0  0  0
 28 29  1  0  0  0  0
 29 30  1  0  0  0  0
 30 31  1  0  0  0  0
 30 32  1  0  0  0  0
 30 33  1  0  0  0  0
 34 35  1  0  0  0  0
 35 36  1  0  0  0  0
 37 38  1  0  0  0  0
 37 41  1  0  0  0  0
 38 39  1  0  0  0  0
 39 40  2  0  0  0  0
M  END
>  <Index>
116

>  <ID>
HT0237

>  <class>
0

>  <apol>
82.455788

>  <ast_fraglike>
0

>  <ast_fraglike_ext>
0

>  <ast_violation>
3

>  <ast_violation_ext>
5

>  <a_acc>
8

>  <a_acid>
0

>  <a_aro>
22

>  <a_base>
0

>  <a_count>
71

>  <a_don>
3

>  <a_donacc>
11

>  <a_heavy>
41

>  <a_hyd>
25

>  <a_IC>
117.52433

>  <a_ICM>
1.6552722

>  <a_nB>
0

>  <a_nBr>
0

>  <a_nC>
29

>  <a_nCl>
0

>  <a_nF>
0

>  <a_nH>
30

>  <a_nI>
0

>  <a_nN>
6

>  <a_nO>
6

>  <a_nP>
0

>  <a_nS>
0

>  <balabanJ>
1.2282922

>  <BCUT_PEOE_0>
-2.5175207

>  <BCUT_PEOE_1>
-0.53500921

>  <BCUT_PEOE_2>
0.57358479

>  <BCUT_PEOE_3>
2.5683844

>  <BCUT_SLOGP_0>
-2.4274428

>  <BCUT_SLOGP_1>
-0.44260639

>  <BCUT_SLOGP_2>
0.63798958

>  <BCUT_SLOGP_3>
2.6628952

>  <BCUT_SMR_0>
-2.2931049

>  <BCUT_SMR_1>
-0.38439891

>  <BCUT_SMR_2>
0.79200232

>  <BCUT_SMR_3>
2.8062348

>  <bpol>
44.420212

>  <b_1rotN>
10

>  <b_1rotR>
0.22222222

>  <b_ar>
22

>  <b_count>
75

>  <b_double>
3

>  <b_heavy>
45

>  <b_max1len>
4

>  <b_rotN>
11

>  <b_rotR>
0.24444444

>  <b_single>
50

>  <b_triple>
0

>  <chi0>
29.14769

>  <chi0v>
23.171753

>  <chi0v_C>
17.947229

>  <chi0_C>
19.913485

>  <chi1>
19.651217

>  <chi1v>
13.162718

>  <chi1v_C>
8.9164848

>  <chi1_C>
11.247367

>  <chiral>
0

>  <chiral_u>
0

>  <density>
0.77156627

>  <diameter>
18

>  <FCharge>
0

>  <GCUT_PEOE_0>
-0.83134323

>  <GCUT_PEOE_1>
-0.38751027

>  <GCUT_PEOE_2>
0.021510968

>  <GCUT_PEOE_3>
2.8495145

>  <GCUT_SLOGP_0>
-0.96363878

>  <GCUT_SLOGP_1>
-0.27357423

>  <GCUT_SLOGP_2>
0.069261536

>  <GCUT_SLOGP_3>
2.9293764

>  <GCUT_SMR_0>
-0.52686417

>  <GCUT_SMR_1>
-0.18130697

>  <GCUT_SMR_2>
0.17791802

>  <GCUT_SMR_3>
3.1122692

>  <Kier1>
32.395061

>  <Kier2>
14.4

>  <Kier3>
7.8096271

>  <KierA1>
23.758308

>  <KierA2>
10.473366

>  <KierA3>
5.6463394

>  <KierFlex>
6.0690107

>  <lip_acc>
12

>  <lip_don>
2

>  <lip_druglike>
0

>  <lip_violation>
3

>  <logP(o/w)>
5.5830002

>  <logS>
-8.4544497

>  <mr>
15.054539

>  <mutagenic>
0

>  <nmol>
1

>  <opr_brigid>
27

>  <opr_leadlike>
0

>  <opr_nring>
5

>  <opr_nrot>
10

>  <opr_violation>
4

>  <PC+>
0

>  <PC->
0

>  <PEOE_PC+>
3.3893373

>  <PEOE_PC->
-3.3893373

>  <PEOE_RPC+>
0.12280875

>  <PEOE_RPC->
0.11297766

>  <PEOE_VSA+0>
79.156029

>  <PEOE_VSA+1>
72.83548

>  <PEOE_VSA+2>
47.999477

>  <PEOE_VSA+3>
0

>  <PEOE_VSA+4>
30.133749

>  <PEOE_VSA+5>
0

>  <PEOE_VSA+6>
35.666977

>  <PEOE_VSA-0>
84.729469

>  <PEOE_VSA-1>
116.78691

>  <PEOE_VSA-2>
18.842079

>  <PEOE_VSA-3>
7.6138182

>  <PEOE_VSA-4>
19.249496

>  <PEOE_VSA-5>
18.574432

>  <PEOE_VSA-6>
10.271297

>  <PEOE_VSA_FHYD>
0.78980529

>  <PEOE_VSA_FNEG>
0.50948197

>  <PEOE_VSA_FPNEG>
0.088759638

>  <PEOE_VSA_FPOL>
0.21019474

>  <PEOE_VSA_FPOS>
0.49051803

>  <PEOE_VSA_FPPOS>
0.1214351

>  <PEOE_VSA_HYD>
427.96326

>  <PEOE_VSA_NEG>
276.0675

>  <PEOE_VSA_PNEG>
48.095226

>  <PEOE_VSA_POL>
113.89595

>  <PEOE_VSA_POS>
265.79172

>  <PEOE_VSA_PPOS>
65.800728

>  <petitjean>
0.5

>  <petitjeanSC>
1

>  <Q_PC+>
0

>  <Q_PC->
0

>  <Q_RPC+>
0

>  <Q_RPC->
0

>  <Q_VSA_FHYD>
1

>  <Q_VSA_FNEG>
0

>  <Q_VSA_FPNEG>
0

>  <Q_VSA_FPOL>
0

>  <Q_VSA_FPOS>
1

>  <Q_VSA_FPPOS>
0

>  <Q_VSA_HYD>
541.85919

>  <Q_VSA_NEG>
0

>  <Q_VSA_PNEG>
0

>  <Q_VSA_POL>
0

>  <Q_VSA_POS>
541.85919

>  <Q_VSA_PPOS>
0

>  <radius>
9

>  <reactive>
0

>  <rings>
5

>  <RPC+>
0

>  <RPC->
0

>  <rsynth>
1

>  <SlogP>
5.0913701

>  <SlogP_VSA0>
25.385227

>  <SlogP_VSA1>
86.099907

>  <SlogP_VSA2>
49.54015

>  <SlogP_VSA3>
20.926258

>  <SlogP_VSA4>
34.889206

>  <SlogP_VSA5>
29.355261

>  <SlogP_VSA6>
0

>  <SlogP_VSA7>
153.03012

>  <SlogP_VSA8>
18.868406

>  <SlogP_VSA9>
175.60585

>  <SMR>
14.6489

>  <SMR_VSA0>
80.724098

>  <SMR_VSA1>
93.936348

>  <SMR_VSA2>
16.540485

>  <SMR_VSA3>
21.513847

>  <SMR_VSA4>
11.884645

>  <SMR_VSA5>
197.32187

>  <SMR_VSA6>
38.47504

>  <SMR_VSA7>
133.30406

>  <TPSA>
154.34

>  <VAdjEq>
0.30124658

>  <VAdjMa>
6.4918532

>  <VDistEq>
3.9589658

>  <VDistMa>
10.437341

>  <vdw_area>
541.85919

>  <vdw_vol>
723.9754

>  <vsa_acc>
55.396961

>  <vsa_acid>
0

>  <vsa_base>
0

>  <vsa_don>
0

>  <vsa_hyd>
357.22702

>  <vsa_other>
65.559372

>  <vsa_pol>
91.544426

>  <Weight>
558.59497

>  <weinerPath>
6025

>  <weinerPol>
65

>  <zagreb>
220

$$$$