N1CCN=C1Cc1ccccc1
  MOE2013           2D

 12 13  0  0  0  0  0  0  0  0999 V2000
    0.0000    0.0000    0.0000 N   0  0  0  0  0  0  0  0  0  0  0  0
    1.4690   -0.3040    0.0000 C   0  0  0  0  0  0  0  0  0  0  0  0
    2.2120    0.9990    0.0000 C   0  0  0  0  0  0  0  0  0  0  0  0
    1.2020    2.1080    0.0000 N   0  0  0  0  0  0  0  0  0  0  0  0
   -0.1650    1.4910    0.0000 C   0  0  0  0  0  0  0  0  0  0  0  0
   -1.4680    2.2340    0.0000 C   0  0  0  0  0  0  0  0  0  0  0  0
   -2.7630    1.4770    0.0000 C   0  0  0  0  0  0  0  0  0  0  0  0
   -2.7550   -0.0230    0.0000 C   0  0  0  0  0  0  0  0  0  0  0  0
   -4.0500   -0.7800    0.0000 C   0  0  0  0  0  0  0  0  0  0  0  0
   -5.3530   -0.0370    0.0000 C   0  0  0  0  0  0  0  0  0  0  0  0
   -5.3610    1.4630    0.0000 C   0  0  0  0  0  0  0  0  0  0  0  0
   -4.0660    2.2200    0.0000 C   0  0  0  0  0  0  0  0  0  0  0  0
  1  2  1  0  0  0  0
  1  5  1  0  0  0  0
  2  3  1  0  0  0  0
  3  4  1  0  0  0  0
  4  5  2  0  0  0  0
  5  6  1  0  0  0  0
  6  7  1  0  0  0  0
  7  8  1  0  0  0  0
  7 12  2  0  0  0  0
  8  9  2  0  0  0  0
  9 10  1  0  0  0  0
 10 11  2  0  0  0  0
 11 12  1  0  0  0  0
M  END
>  <Index>
1085

>  <ID>
HT2080

>  <class>
0

>  <apol>
27.801516

>  <ast_fraglike>
1

>  <ast_fraglike_ext>
1

>  <ast_violation>
0

>  <ast_violation_ext>
0

>  <a_acc>
1

>  <a_acid>
0

>  <a_aro>
6

>  <a_base>
0

>  <a_count>
24

>  <a_don>
1

>  <a_donacc>
2

>  <a_heavy>
12

>  <a_hyd>
9

>  <a_IC>
31.800268

>  <a_ICM>
1.3250113

>  <a_nB>
0

>  <a_nBr>
0

>  <a_nC>
10

>  <a_nCl>
0

>  <a_nF>
0

>  <a_nH>
12

>  <a_nI>
0

>  <a_nN>
2

>  <a_nO>
0

>  <a_nP>
0

>  <a_nS>
0

>  <balabanJ>
1.7132821

>  <BCUT_PEOE_0>
-2.416544

>  <BCUT_PEOE_1>
-0.5625388

>  <BCUT_PEOE_2>
0.62038541

>  <BCUT_PEOE_3>
2.4998913

>  <BCUT_SLOGP_0>
-2.6152904

>  <BCUT_SLOGP_1>
-0.45980197

>  <BCUT_SLOGP_2>
0.72113818

>  <BCUT_SLOGP_3>
2.41207

>  <BCUT_SMR_0>
-2.1391857

>  <BCUT_SMR_1>
-0.4273034

>  <BCUT_SMR_2>
0.76179355

>  <BCUT_SMR_3>
2.7894969

>  <bpol>
15.098484

>  <b_1rotN>
2

>  <b_1rotR>
0.15384616

>  <b_ar>
6

>  <b_count>
25

>  <b_double>
1

>  <b_heavy>
13

>  <b_max1len>
2

>  <b_rotN>
2

>  <b_rotR>
0.15384616

>  <b_single>
18

>  <b_triple>
0

>  <chi0>
8.2257681

>  <chi0v>
6.9552851

>  <chi0v_C>
6.0080719

>  <chi0_C>
6.8115549

>  <chi1>
5.9494896

>  <chi1v>
4.2611785

>  <chi1v_C>
3.1177905

>  <chi1_C>
4.1329932

>  <chiral>
0

>  <chiral_u>
0

>  <density>
0.67198026

>  <diameter>
7

>  <FCharge>
0

>  <GCUT_PEOE_0>
-0.86312717

>  <GCUT_PEOE_1>
-0.39867228

>  <GCUT_PEOE_2>
0.065691158

>  <GCUT_PEOE_3>
2.2664695

>  <GCUT_SLOGP_0>
-1.1663668

>  <GCUT_SLOGP_1>
-0.31057689

>  <GCUT_SLOGP_2>
0.14709142

>  <GCUT_SLOGP_3>
2.3085928

>  <GCUT_SMR_0>
-0.50484085

>  <GCUT_SMR_1>
-0.19204636

>  <GCUT_SMR_2>
0.16958901

>  <GCUT_SMR_3>
2.5556269

>  <Kier1>
8.5917158

>  <Kier2>
4.296875

>  <Kier3>
2.4930749

>  <KierA1>
6.046875

>  <KierA2>
2.9159546

>  <KierA3>
1.6436548

>  <KierFlex>
1.4693677

>  <lip_acc>
2

>  <lip_don>
1

>  <lip_druglike>
1

>  <lip_violation>
0

>  <logP(o/w)>
1.325

>  <logS>
-1.83609

>  <mr>
4.9592047

>  <mutagenic>
0

>  <nmol>
1

>  <opr_brigid>
11

>  <opr_leadlike>
1

>  <opr_nring>
2

>  <opr_nrot>
2

>  <opr_violation>
0

>  <PC+>
0

>  <PC->
0

>  <PEOE_PC+>
0.98181874

>  <PEOE_PC->
-0.98181874

>  <PEOE_RPC+>
0.16378054

>  <PEOE_RPC->
0.37818047

>  <PEOE_VSA+0>
30.42441

>  <PEOE_VSA+1>
51.580799

>  <PEOE_VSA+2>
11.190562

>  <PEOE_VSA+3>
8.6190128

>  <PEOE_VSA+4>
0

>  <PEOE_VSA+5>
0

>  <PEOE_VSA+6>
0

>  <PEOE_VSA-0>
2.2085397

>  <PEOE_VSA-1>
61.274521

>  <PEOE_VSA-2>
0

>  <PEOE_VSA-3>
0

>  <PEOE_VSA-4>
0

>  <PEOE_VSA-5>
5.6825762

>  <PEOE_VSA-6>
0.13689101

>  <PEOE_VSA_FHYD>
0.96599138

>  <PEOE_VSA_FNEG>
0.40500009

>  <PEOE_VSA_FPNEG>
0.034008641

>  <PEOE_VSA_FPOL>
0.034008641

>  <PEOE_VSA_FPOS>
0.59499991

>  <PEOE_VSA_FPPOS>
0

>  <PEOE_VSA_HYD>
165.29784

>  <PEOE_VSA_NEG>
69.302528

>  <PEOE_VSA_PNEG>
5.8194671

>  <PEOE_VSA_POL>
5.8194671

>  <PEOE_VSA_POS>
101.81478

>  <PEOE_VSA_PPOS>
0

>  <petitjean>
0.42857143

>  <petitjeanSC>
0.75

>  <Q_PC+>
0

>  <Q_PC->
0

>  <Q_RPC+>
0

>  <Q_RPC->
0

>  <Q_VSA_FHYD>
1

>  <Q_VSA_FNEG>
0

>  <Q_VSA_FPNEG>
0

>  <Q_VSA_FPOL>
0

>  <Q_VSA_FPOS>
1

>  <Q_VSA_FPPOS>
0

>  <Q_VSA_HYD>
171.11731

>  <Q_VSA_NEG>
0

>  <Q_VSA_PNEG>
0

>  <Q_VSA_POL>
0

>  <Q_VSA_POS>
171.11731

>  <Q_VSA_PPOS>
0

>  <radius>
4

>  <reactive>
0

>  <rings>
2

>  <RPC+>
0

>  <RPC->
0

>  <rsynth>
1

>  <SlogP>
1.23077

>  <SlogP_VSA0>
18.01075

>  <SlogP_VSA1>
2.3279202

>  <SlogP_VSA2>
0

>  <SlogP_VSA3>
36.879158

>  <SlogP_VSA4>
3.185575

>  <SlogP_VSA5>
35.653934

>  <SlogP_VSA6>
0

>  <SlogP_VSA7>
88.215919

>  <SlogP_VSA8>
0

>  <SlogP_VSA9>
0

>  <SMR>
5.0450702

>  <SMR_VSA0>
0

>  <SMR_VSA1>
16.78553

>  <SMR_VSA2>
18.01075

>  <SMR_VSA3>
3.185575

>  <SMR_VSA4>
0

>  <SMR_VSA5>
107.08433

>  <SMR_VSA6>
39.207077

>  <SMR_VSA7>
0

>  <TPSA>
24.389999

>  <VAdjEq>
0.68129086

>  <VAdjMa>
4.7004399

>  <VDistEq>
2.639426

>  <VDistMa>
6.8262482

>  <vdw_area>
171.11731

>  <vdw_vol>
238.42961

>  <vsa_acc>
5.6825762

>  <vsa_acid>
0

>  <vsa_base>
0

>  <vsa_don>
5.6825762

>  <vsa_hyd>
137.65852

>  <vsa_other>
11.190562

>  <vsa_pol>
11.365152

>  <Weight>
160.22

>  <weinerPath>
209

>  <weinerPol>
11

>  <zagreb>
58

$$$$