S(=O)(=O)(CC(O)(C(=O)Nc1cc(C(F)(F)F)c(cc1)C#N)C)c1ccc(F)cc1
  MOE2013           2D

 29 30  0  0  1  0  0  0  0  0999 V2000
    0.0000    0.0000    0.0000 S   0  0  0  0  0  0  0  0  0  0  0  0
   -0.7430   -1.3030    0.0000 O   0  0  0  0  0  0  0  0  0  0  0  0
    0.7430    1.3030    0.0000 O   0  0  0  0  0  0  0  0  0  0  0  0
   -1.3030    0.7430    0.0000 C   0  0  0  0  0  0  0  0  0  0  0  0
   -2.5980   -0.0140    0.0000 C   0  0  3  0  0  0  0  0  0  0  0  0
   -1.8410   -1.3090    0.0000 O   0  0  0  0  0  0  0  0  0  0  0  0
   -3.8930   -0.7710    0.0000 C   0  0  0  0  0  0  0  0  0  0  0  0
   -3.8850   -2.2710    0.0000 O   0  0  0  0  0  0  0  0  0  0  0  0
   -5.1960   -0.0280    0.0000 N   0  0  0  0  0  0  0  0  0  0  0  0
   -6.4910   -0.7850    0.0000 C   0  0  0  0  0  0  0  0  0  0  0  0
   -7.7940   -0.0410    0.0000 C   0  0  0  0  0  0  0  0  0  0  0  0
   -9.0890   -0.7980    0.0000 C   0  0  0  0  0  0  0  0  0  0  0  0
  -10.3920   -0.0550    0.0000 C   0  0  0  0  0  0  0  0  0  0  0  0
  -11.6950    0.6880    0.0000 F   0  0  0  0  0  0  0  0  0  0  0  0
   -9.6490    1.2480    0.0000 F   0  0  0  0  0  0  0  0  0  0  0  0
  -11.1350   -1.3580    0.0000 F   0  0  0  0  0  0  0  0  0  0  0  0
   -9.0810   -2.2980    0.0000 C   0  0  0  0  0  0  0  0  0  0  0  0
   -7.7780   -3.0410    0.0000 C   0  0  0  0  0  0  0  0  0  0  0  0
   -6.4830   -2.2840    0.0000 C   0  0  0  0  0  0  0  0  0  0  0  0
  -10.3760   -3.0550    0.0000 C   0  0  0  0  0  0  0  0  0  0  0  0
  -11.6710   -3.8120    0.0000 N   0  0  0  0  0  0  0  0  0  0  0  0
   -3.3550    1.2810    0.0000 C   0  0  0  0  0  0  0  0  0  0  0  0
    1.3030   -0.7430    0.0000 C   0  0  0  0  0  0  0  0  0  0  0  0
    2.5980    0.0140    0.0000 C   0  0  0  0  0  0  0  0  0  0  0  0
    3.9010   -0.7290    0.0000 C   0  0  0  0  0  0  0  0  0  0  0  0
    3.9090   -2.2290    0.0000 C   0  0  0  0  0  0  0  0  0  0  0  0
    5.2120   -2.9720    0.0000 F   0  0  0  0  0  0  0  0  0  0  0  0
    2.6140   -2.9860    0.0000 C   0  0  0  0  0  0  0  0  0  0  0  0
    1.3110   -2.2430    0.0000 C   0  0  0  0  0  0  0  0  0  0  0  0
  1  2  2  0  0  0  0
  1  3  2  0  0  0  0
  1  4  1  0  0  0  0
  1 23  1  0  0  0  0
  4  5  1  0  0  0  0
  5  6  1  0  0  0  0
  5  7  1  0  0  0  0
  5 22  1  0  0  0  0
  7  8  2  0  0  0  0
  7  9  1  0  0  0  0
  9 10  1  0  0  0  0
 10 11  1  0  0  0  0
 10 19  2  0  0  0  0
 11 12  2  0  0  0  0
 12 13  1  0  0  0  0
 12 17  1  0  0  0  0
 13 14  1  0  0  0  0
 13 15  1  0  0  0  0
 13 16  1  0  0  0  0
 17 18  2  0  0  0  0
 17 20  1  0  0  0  0
 18 19  1  0  0  0  0
 20 21  3  0  0  0  0
 23 24  1  0  0  0  0
 23 29  2  0  0  0  0
 24 25  2  0  0  0  0
 25 26  1  0  0  0  0
 26 27  1  0  0  0  0
 26 28  2  0  0  0  0
 28 29  1  0  0  0  0
M  END
>  <Index>
143

>  <ID>
HT0283

>  <class>
0

>  <apol>
51.551102

>  <ast_fraglike>
0

>  <ast_fraglike_ext>
0

>  <ast_violation>
3

>  <ast_violation_ext>
5

>  <a_acc>
5

>  <a_acid>
0

>  <a_aro>
12

>  <a_base>
0

>  <a_count>
43

>  <a_don>
2

>  <a_donacc>
7

>  <a_heavy>
29

>  <a_hyd>
20

>  <a_IC>
86.967766

>  <a_ICM>
2.0225062

>  <a_nB>
0

>  <a_nBr>
0

>  <a_nC>
18

>  <a_nCl>
0

>  <a_nF>
4

>  <a_nH>
14

>  <a_nI>
0

>  <a_nN>
2

>  <a_nO>
4

>  <a_nP>
0

>  <a_nS>
1

>  <balabanJ>
1.9683442

>  <BCUT_PEOE_0>
-2.5585556

>  <BCUT_PEOE_1>
-0.62076104

>  <BCUT_PEOE_2>
0.65162528

>  <BCUT_PEOE_3>
2.7015533

>  <BCUT_SLOGP_0>
-2.7359738

>  <BCUT_SLOGP_1>
-0.53807992

>  <BCUT_SLOGP_2>
0.75111181

>  <BCUT_SLOGP_3>
2.536155

>  <BCUT_SMR_0>
-2.3206985

>  <BCUT_SMR_1>
-0.43655178

>  <BCUT_SMR_2>
0.79158831

>  <BCUT_SMR_3>
2.9378507

>  <bpol>
28.870897

>  <b_1rotN>
5

>  <b_1rotR>
0.16666667

>  <b_ar>
12

>  <b_count>
44

>  <b_double>
1

>  <b_heavy>
30

>  <b_max1len>
5

>  <b_rotN>
8

>  <b_rotR>
0.26666668

>  <b_single>
30

>  <b_triple>
1

>  <chi0>
22.03517

>  <chi0v>
15.604334

>  <chi0v_C>
10.248559

>  <chi0_C>
11.828063

>  <chi1>
13.259004

>  <chi1v>
9.5486193

>  <chi1v_C>
5.1629543

>  <chi1_C>
6.9384718

>  <chiral>
1

>  <chiral_u>
1

>  <density>
0.91751873

>  <diameter>
15

>  <FCharge>
0

>  <GCUT_PEOE_0>
-0.88398683

>  <GCUT_PEOE_1>
-0.46911693

>  <GCUT_PEOE_2>
0.09474019

>  <GCUT_PEOE_3>
2.6205401

>  <GCUT_SLOGP_0>
-1.0101738

>  <GCUT_SLOGP_1>
-0.34125102

>  <GCUT_SLOGP_2>
0.2140014

>  <GCUT_SLOGP_3>
2.6151896

>  <GCUT_SMR_0>
-0.5108726

>  <GCUT_SMR_1>
-0.20909689

>  <GCUT_SMR_2>
0.19305076

>  <GCUT_SMR_3>
2.8708391

>  <Kier1>
25.262222

>  <Kier2>
9.6465025

>  <Kier3>
6.7383409

>  <KierA1>
19.718363

>  <KierA2>
7.4585853

>  <KierA3>
5.1737347

>  <KierFlex>
5.0714169

>  <lip_acc>
6

>  <lip_don>
2

>  <lip_druglike>
1

>  <lip_violation>
0

>  <logP(o/w)>
2.50176

>  <logS>
-5.3491302

>  <mr>
9.8045673

>  <mutagenic>
0

>  <nmol>
1

>  <opr_brigid>
12

>  <opr_leadlike>
1

>  <opr_nring>
2

>  <opr_nrot>
6

>  <opr_violation>
0

>  <PC+>
0

>  <PC->
0

>  <PEOE_PC+>
3.0764294

>  <PEOE_PC->
-3.0764294

>  <PEOE_RPC+>
0.13608967

>  <PEOE_RPC->
0.1535743

>  <PEOE_VSA+0>
44.005516

>  <PEOE_VSA+1>
54.574287

>  <PEOE_VSA+2>
17.551617

>  <PEOE_VSA+3>
8.6190128

>  <PEOE_VSA+4>
21.001547

>  <PEOE_VSA+5>
17.134132

>  <PEOE_VSA+6>
9.0455017

>  <PEOE_VSA-0>
80.022194

>  <PEOE_VSA-1>
0

>  <PEOE_VSA-2>
6.5127993

>  <PEOE_VSA-3>
53.468395

>  <PEOE_VSA-4>
11.908636

>  <PEOE_VSA-5>
13.566921

>  <PEOE_VSA-6>
39.920956

>  <PEOE_VSA_FHYD>
0.70164782

>  <PEOE_VSA_FNEG>
0.54434866

>  <PEOE_VSA_FPNEG>
0.17331314

>  <PEOE_VSA_FPOL>
0.29835221

>  <PEOE_VSA_FPOS>
0.45565134

>  <PEOE_VSA_FPPOS>
0.12503907

>  <PEOE_VSA_HYD>
264.75381

>  <PEOE_VSA_NEG>
205.3999

>  <PEOE_VSA_PNEG>
65.396507

>  <PEOE_VSA_POL>
112.57769

>  <PEOE_VSA_POS>
171.93161

>  <PEOE_VSA_PPOS>
47.181183

>  <petitjean>
0.46666667

>  <petitjeanSC>
0.875

>  <Q_PC+>
0

>  <Q_PC->
0

>  <Q_RPC+>
0

>  <Q_RPC->
0

>  <Q_VSA_FHYD>
1

>  <Q_VSA_FNEG>
0

>  <Q_VSA_FPNEG>
0

>  <Q_VSA_FPOL>
0

>  <Q_VSA_FPOS>
1

>  <Q_VSA_FPPOS>
0

>  <Q_VSA_HYD>
377.33151

>  <Q_VSA_NEG>
0

>  <Q_VSA_PNEG>
0

>  <Q_VSA_POL>
0

>  <Q_VSA_POS>
377.33151

>  <Q_VSA_PPOS>
0

>  <radius>
8

>  <reactive>
0

>  <rings>
2

>  <RPC+>
0

>  <RPC->
0

>  <rsynth>
1

>  <SlogP>
3.1910839

>  <SlogP_VSA0>
25.385227

>  <SlogP_VSA1>
71.441223

>  <SlogP_VSA2>
39.862503

>  <SlogP_VSA3>
64.894669

>  <SlogP_VSA4>
6.37115

>  <SlogP_VSA5>
1.5507339

>  <SlogP_VSA6>
7.7595162

>  <SlogP_VSA7>
123.50229

>  <SlogP_VSA8>
0

>  <SlogP_VSA9>
95.923218

>  <SMR>
9.3982296

>  <SMR_VSA0>
72.033905

>  <SMR_VSA1>
116.28503

>  <SMR_VSA2>
18.431269

>  <SMR_VSA3>
22.972897

>  <SMR_VSA4>
20.767498

>  <SMR_VSA5>
123.50229

>  <SMR_VSA6>
22.492348

>  <SMR_VSA7>
40.20528

>  <TPSA>
107.26

>  <VAdjEq>
0.37091795

>  <VAdjMa>
5.9068904

>  <VDistEq>
3.6443443

>  <VDistMa>
9.4164829

>  <vdw_area>
377.33151

>  <vdw_vol>
469.06726

>  <vsa_acc>
63.325935

>  <vsa_acid>
0

>  <vsa_base>
0

>  <vsa_don>
5.6825762

>  <vsa_hyd>
238.85458

>  <vsa_other>
39.761837

>  <vsa_pol>
82.575432

>  <Weight>
430.37799

>  <weinerPath>
2378

>  <weinerPol>
47

>  <zagreb>
152

$$$$