OCCN(CCO)CCO
  MOE2013           2D

 10  9  0  0  0  0  0  0  0  0999 V2000
    0.0000    0.0000    0.0000 O   0  0  0  0  0  0  0  0  0  0  0  0
    0.0000   -1.5000    0.0000 C   0  0  0  0  0  0  0  0  0  0  0  0
    1.2990   -2.2500    0.0000 C   0  0  0  0  0  0  0  0  0  0  0  0
    1.2990   -3.7500    0.0000 N   0  0  0  0  0  0  0  0  0  0  0  0
    2.5980   -4.5000    0.0000 C   0  0  0  0  0  0  0  0  0  0  0  0
    3.8970   -3.7500    0.0000 C   0  0  0  0  0  0  0  0  0  0  0  0
    5.1960   -4.5000    0.0000 O   0  0  0  0  0  0  0  0  0  0  0  0
    0.0000   -4.5000    0.0000 C   0  0  0  0  0  0  0  0  0  0  0  0
    0.0000   -6.0000    0.0000 C   0  0  0  0  0  0  0  0  0  0  0  0
   -1.2990   -6.7500    0.0000 O   0  0  0  0  0  0  0  0  0  0  0  0
  1  2  1  0  0  0  0
  2  3  1  0  0  0  0
  3  4  1  0  0  0  0
  4  5  1  0  0  0  0
  4  8  1  0  0  0  0
  5  6  1  0  0  0  0
  6  7  1  0  0  0  0
  8  9  1  0  0  0  0
  9 10  1  0  0  0  0
M  END
>  <Index>
1222

>  <ID>
HT2621

>  <class>
0

>  <apol>
24.067896

>  <ast_fraglike>
0

>  <ast_fraglike_ext>
0

>  <ast_violation>
1

>  <ast_violation_ext>
2

>  <a_acc>
4

>  <a_acid>
0

>  <a_aro>
0

>  <a_base>
0

>  <a_count>
25

>  <a_don>
3

>  <a_donacc>
7

>  <a_heavy>
10

>  <a_hyd>
6

>  <a_IC>
37.228382

>  <a_ICM>
1.4891354

>  <a_nB>
0

>  <a_nBr>
0

>  <a_nC>
6

>  <a_nCl>
0

>  <a_nF>
0

>  <a_nH>
15

>  <a_nI>
0

>  <a_nN>
1

>  <a_nO>
3

>  <a_nP>
0

>  <a_nS>
0

>  <balabanJ>
3.2950821

>  <BCUT_PEOE_0>
-2.6644523

>  <BCUT_PEOE_1>
-0.71243757

>  <BCUT_PEOE_2>
0.76894522

>  <BCUT_PEOE_3>
2.5885866

>  <BCUT_SLOGP_0>
-2.7964797

>  <BCUT_SLOGP_1>
-0.82795662

>  <BCUT_SLOGP_2>
0.58252585

>  <BCUT_SLOGP_3>
2.4570432

>  <BCUT_SMR_0>
-2.3996332

>  <BCUT_SMR_1>
-0.59645456

>  <BCUT_SMR_2>
0.85582459

>  <BCUT_SMR_3>
2.8413413

>  <bpol>
18.378105

>  <b_1rotN>
6

>  <b_1rotR>
0.66666669

>  <b_ar>
0

>  <b_count>
24

>  <b_double>
0

>  <b_heavy>
9

>  <b_max1len>
8

>  <b_rotN>
6

>  <b_rotR>
0.66666669

>  <b_single>
24

>  <b_triple>
0

>  <chi0>
7.8199911

>  <chi0v>
6.0314951

>  <chi0v_C>
4.2426405

>  <chi0_C>
4.2426405

>  <chi1>
4.846065

>  <chi1v>
3.3973665

>  <chi1v_C>
1.5

>  <chi1_C>
1.5

>  <chiral>
0

>  <chiral_u>
0

>  <density>
0.73153621

>  <diameter>
6

>  <FCharge>
0

>  <GCUT_PEOE_0>
-0.8437984

>  <GCUT_PEOE_1>
-0.41955104

>  <GCUT_PEOE_2>
0.20715921

>  <GCUT_PEOE_3>
2.2997561

>  <GCUT_SLOGP_0>
-0.96824735

>  <GCUT_SLOGP_1>
-0.54266286

>  <GCUT_SLOGP_2>
-0.0014731194

>  <GCUT_SLOGP_3>
2.2050788

>  <GCUT_SMR_0>
-0.52067935

>  <GCUT_SMR_1>
-0.28077897

>  <GCUT_SMR_2>
0.25105235

>  <GCUT_SMR_3>
2.5143125

>  <Kier1>
10

>  <Kier2>
7.1111112

>  <Kier3>
5.5308642

>  <KierA1>
10

>  <KierA2>
7.1111112

>  <KierA3>
5.5308642

>  <KierFlex>
7.1111112

>  <lip_acc>
4

>  <lip_don>
3

>  <lip_druglike>
1

>  <lip_violation>
0

>  <logP(o/w)>
-1.915

>  <logS>
1.11919

>  <mr>
3.8303118

>  <mutagenic>
0

>  <nmol>
1

>  <opr_brigid>
0

>  <opr_leadlike>
1

>  <opr_nring>
0

>  <opr_nrot>
6

>  <opr_violation>
0

>  <PC+>
0

>  <PC->
0

>  <PEOE_PC+>
1.4770864

>  <PEOE_PC->
-1.4770864

>  <PEOE_RPC+>
0.14179987

>  <PEOE_RPC->
0.26657015

>  <PEOE_VSA+0>
65.169289

>  <PEOE_VSA+1>
70.446198

>  <PEOE_VSA+2>
0

>  <PEOE_VSA+3>
0

>  <PEOE_VSA+4>
30.972517

>  <PEOE_VSA+5>
0

>  <PEOE_VSA+6>
0

>  <PEOE_VSA-0>
0

>  <PEOE_VSA-1>
0

>  <PEOE_VSA-2>
0

>  <PEOE_VSA-3>
0

>  <PEOE_VSA-4>
0

>  <PEOE_VSA-5>
0

>  <PEOE_VSA-6>
23.30262

>  <PEOE_VSA_FHYD>
0.71417683

>  <PEOE_VSA_FNEG>
0.12271602

>  <PEOE_VSA_FPNEG>
0.12271602

>  <PEOE_VSA_FPOL>
0.28582317

>  <PEOE_VSA_FPOS>
0.87728399

>  <PEOE_VSA_FPPOS>
0.16310714

>  <PEOE_VSA_HYD>
135.61548

>  <PEOE_VSA_NEG>
23.30262

>  <PEOE_VSA_PNEG>
23.30262

>  <PEOE_VSA_POL>
54.275139

>  <PEOE_VSA_POS>
166.588

>  <PEOE_VSA_PPOS>
30.972517

>  <petitjean>
0.5

>  <petitjeanSC>
1

>  <Q_PC+>
0

>  <Q_PC->
0

>  <Q_RPC+>
0

>  <Q_RPC->
0

>  <Q_VSA_FHYD>
1

>  <Q_VSA_FNEG>
0

>  <Q_VSA_FPNEG>
0

>  <Q_VSA_FPOL>
0

>  <Q_VSA_FPOS>
1

>  <Q_VSA_FPPOS>
0

>  <Q_VSA_HYD>
189.89062

>  <Q_VSA_NEG>
0

>  <Q_VSA_PNEG>
0

>  <Q_VSA_POL>
0

>  <Q_VSA_POS>
189.89062

>  <Q_VSA_PPOS>
0

>  <radius>
3

>  <reactive>
0

>  <rings>
0

>  <RPC+>
0

>  <RPC->
0

>  <rsynth>
1

>  <SlogP>
-1.7347

>  <SlogP_VSA0>
76.155678

>  <SlogP_VSA1>
3.1243138

>  <SlogP_VSA2>
0

>  <SlogP_VSA3>
118.09751

>  <SlogP_VSA4>
0

>  <SlogP_VSA5>
0

>  <SlogP_VSA6>
0

>  <SlogP_VSA7>
0

>  <SlogP_VSA8>
0

>  <SlogP_VSA9>
0

>  <SMR>
3.7697401

>  <SMR_VSA0>
0

>  <SMR_VSA1>
79.279991

>  <SMR_VSA2>
0

>  <SMR_VSA3>
0

>  <SMR_VSA4>
0

>  <SMR_VSA5>
0

>  <SMR_VSA6>
118.09751

>  <SMR_VSA7>
0

>  <TPSA>
63.93

>  <VAdjEq>
0.68007702

>  <VAdjMa>
4.1699252

>  <VDistEq>
2.5055873

>  <VDistMa>
6.3043132

>  <vdw_area>
189.89062

>  <vdw_vol>
203.94069

>  <vsa_acc>
0

>  <vsa_acid>
0

>  <vsa_base>
0

>  <vsa_don>
0

>  <vsa_hyd>
127.07394

>  <vsa_other>
0

>  <vsa_pol>
40.700764

>  <Weight>
149.19

>  <weinerPath>
138

>  <weinerPol>
9

>  <zagreb>
36

$$$$