OCc1ccccc1
  MOE2013           2D

  8  8  0  0  0  0  0  0  0  0999 V2000
    0.0000    0.0000    0.0000 O   0  0  0  0  0  0  0  0  0  0  0  0
   -0.7430   -1.3030    0.0000 C   0  0  0  0  0  0  0  0  0  0  0  0
   -2.2430   -1.3100    0.0000 C   0  0  0  0  0  0  0  0  0  0  0  0
   -2.9870   -2.6130    0.0000 C   0  0  0  0  0  0  0  0  0  0  0  0
   -4.4870   -2.6210    0.0000 C   0  0  0  0  0  0  0  0  0  0  0  0
   -5.2430   -1.3260    0.0000 C   0  0  0  0  0  0  0  0  0  0  0  0
   -4.5000   -0.0230    0.0000 C   0  0  0  0  0  0  0  0  0  0  0  0
   -3.0000   -0.0150    0.0000 C   0  0  0  0  0  0  0  0  0  0  0  0
  1  2  1  0  0  0  0
  2  3  1  0  0  0  0
  3  4  1  0  0  0  0
  3  8  2  0  0  0  0
  4  5  2  0  0  0  0
  5  6  1  0  0  0  0
  6  7  2  0  0  0  0
  7  8  1  0  0  0  0
M  END
>  <Index>
1203

>  <ID>
HT2442

>  <class>
0

>  <apol>
18.456345

>  <ast_fraglike>
1

>  <ast_fraglike_ext>
1

>  <ast_violation>
0

>  <ast_violation_ext>
0

>  <a_acc>
1

>  <a_acid>
0

>  <a_aro>
6

>  <a_base>
0

>  <a_count>
16

>  <a_don>
1

>  <a_donacc>
2

>  <a_heavy>
8

>  <a_hyd>
7

>  <a_IC>
20.348516

>  <a_ICM>
1.2717823

>  <a_nB>
0

>  <a_nBr>
0

>  <a_nC>
7

>  <a_nCl>
0

>  <a_nF>
0

>  <a_nH>
8

>  <a_nI>
0

>  <a_nN>
0

>  <a_nO>
1

>  <a_nP>
0

>  <a_nS>
0

>  <balabanJ>
2.1889248

>  <BCUT_PEOE_0>
-2.2986736

>  <BCUT_PEOE_1>
-0.64900392

>  <BCUT_PEOE_2>
0.69763994

>  <BCUT_PEOE_3>
2.2558029

>  <BCUT_SLOGP_0>
-2.1678491

>  <BCUT_SLOGP_1>
-0.53807992

>  <BCUT_SLOGP_2>
0.68828928

>  <BCUT_SLOGP_3>
2.4025686

>  <BCUT_SMR_0>
-2.019145

>  <BCUT_SMR_1>
-0.49986199

>  <BCUT_SMR_2>
0.85431087

>  <BCUT_SMR_3>
2.540606

>  <bpol>
8.745656

>  <b_1rotN>
1

>  <b_1rotR>
0.125

>  <b_ar>
6

>  <b_count>
16

>  <b_double>
0

>  <b_heavy>
8

>  <b_max1len>
3

>  <b_rotN>
1

>  <b_rotR>
0.125

>  <b_single>
10

>  <b_triple>
0

>  <chi0>
5.8199911

>  <chi0v>
4.5410719

>  <chi0v_C>
4.0938582

>  <chi0_C>
4.8199911

>  <chi1>
3.9318516

>  <chi1v>
2.5804648

>  <chi1v_C>
2.2642369

>  <chi1_C>
3.2247448

>  <chiral>
0

>  <chiral_u>
0

>  <density>
0.66826785

>  <diameter>
5

>  <FCharge>
0

>  <GCUT_PEOE_0>
-0.78898138

>  <GCUT_PEOE_1>
-0.38949409

>  <GCUT_PEOE_2>
0.079447642

>  <GCUT_PEOE_3>
1.9876819

>  <GCUT_SLOGP_0>
-0.77981281

>  <GCUT_SLOGP_1>
-0.26386139

>  <GCUT_SLOGP_2>
0.13864018

>  <GCUT_SLOGP_3>
2.1390769

>  <GCUT_SMR_0>
-0.49487352

>  <GCUT_SMR_1>
-0.21605732

>  <GCUT_SMR_2>
0.19305076

>  <GCUT_SMR_3>
2.2759962

>  <Kier1>
6.125

>  <Kier2>
3.1111112

>  <Kier3>
1.8

>  <KierA1>
4.3645353

>  <KierA2>
2.0924079

>  <KierA3>
1.1498824

>  <KierFlex>
1.1415485

>  <lip_acc>
1

>  <lip_don>
1

>  <lip_druglike>
1

>  <lip_violation>
0

>  <logP(o/w)>
1.3839999

>  <logS>
-1.1559

>  <mr>
3.3845012

>  <mutagenic>
0

>  <nmol>
1

>  <opr_brigid>
6

>  <opr_leadlike>
1

>  <opr_nring>
1

>  <opr_nrot>
1

>  <opr_violation>
0

>  <PC+>
0

>  <PC->
0

>  <PEOE_PC+>
0.70999521

>  <PEOE_PC->
-0.70999521

>  <PEOE_RPC+>
0.29556116

>  <PEOE_RPC->
0.54988587

>  <PEOE_VSA+0>
0

>  <PEOE_VSA+1>
44.808994

>  <PEOE_VSA+2>
0

>  <PEOE_VSA+3>
0

>  <PEOE_VSA+4>
10.324173

>  <PEOE_VSA+5>
0

>  <PEOE_VSA+6>
0

>  <PEOE_VSA-0>
2.2085397

>  <PEOE_VSA-1>
61.274521

>  <PEOE_VSA-2>
0

>  <PEOE_VSA-3>
0

>  <PEOE_VSA-4>
0

>  <PEOE_VSA-5>
0

>  <PEOE_VSA-6>
7.7675405

>  <PEOE_VSA_FHYD>
0.85685098

>  <PEOE_VSA_FNEG>
0.56376386

>  <PEOE_VSA_FPNEG>
0.061459951

>  <PEOE_VSA_FPOL>
0.14314902

>  <PEOE_VSA_FPOS>
0.43623614

>  <PEOE_VSA_FPPOS>
0.081689075

>  <PEOE_VSA_HYD>
108.29205

>  <PEOE_VSA_NEG>
71.250603

>  <PEOE_VSA_PNEG>
7.7675405

>  <PEOE_VSA_POL>
18.091713

>  <PEOE_VSA_POS>
55.133167

>  <PEOE_VSA_PPOS>
10.324173

>  <petitjean>
0.40000001

>  <petitjeanSC>
0.66666669

>  <Q_PC+>
0

>  <Q_PC->
0

>  <Q_RPC+>
0

>  <Q_RPC->
0

>  <Q_VSA_FHYD>
1

>  <Q_VSA_FNEG>
0

>  <Q_VSA_FPNEG>
0

>  <Q_VSA_FPOL>
0

>  <Q_VSA_FPOS>
1

>  <Q_VSA_FPPOS>
0

>  <Q_VSA_HYD>
126.38377

>  <Q_VSA_NEG>
0

>  <Q_VSA_PNEG>
0

>  <Q_VSA_POL>
0

>  <Q_VSA_POS>
126.38377

>  <Q_VSA_PPOS>
0

>  <radius>
3

>  <reactive>
0

>  <rings>
1

>  <RPC+>
0

>  <RPC->
0

>  <rsynth>
1

>  <SlogP>
1.4453

>  <SlogP_VSA0>
25.385227

>  <SlogP_VSA1>
0

>  <SlogP_VSA2>
0

>  <SlogP_VSA3>
0

>  <SlogP_VSA4>
3.185575

>  <SlogP_VSA5>
0

>  <SlogP_VSA6>
0

>  <SlogP_VSA7>
88.215919

>  <SlogP_VSA8>
0

>  <SlogP_VSA9>
20.926258

>  <SMR>
3.2569799

>  <SMR_VSA0>
0

>  <SMR_VSA1>
25.385227

>  <SMR_VSA2>
0

>  <SMR_VSA3>
3.185575

>  <SMR_VSA4>
0

>  <SMR_VSA5>
109.14218

>  <SMR_VSA6>
0

>  <SMR_VSA7>
0

>  <TPSA>
20.23

>  <VAdjEq>
0.8112781

>  <VAdjMa>
4

>  <VDistEq>
2.0596514

>  <VDistMa>
5.6422834

>  <vdw_area>
126.38377

>  <vdw_vol>
161.82135

>  <vsa_acc>
0

>  <vsa_acid>
0

>  <vsa_base>
0

>  <vsa_don>
0

>  <vsa_hyd>
103.30949

>  <vsa_other>
0

>  <vsa_pol>
13.566921

>  <Weight>
108.14

>  <weinerPath>
64

>  <weinerPol>
7

>  <zagreb>
34

$$$$