O1[C@@H](CC(=O)[C@H](C=C(/C)[C@@H](O)[C@@H](OC)C(=O)[C@H](C[C@@H](C=CC=CC=C(C)/[C@H](OC)C[C@H]2O[C@](O)([C@@H](CC2)C)C(=O)C(=O)N2[C@@H](CCCC2)C1=O)C)C)C)[C@@H](C[C@@H]1C[C@H](OC)[C@@H](OC(=O)C(CO)(CO)C)CC1)C
  MOE2013           2D

 73 76  0  0  1  0  0  0  0  0999 V2000
    0.0000    0.0000    0.0000 O   0  0  0  0  0  0  0  0  0  0  0  0
    0.7490   -1.2890    0.0000 C   0  0  1  0  0  0  0  0  0  0  0  0
    2.2540   -1.2720    0.0000 C   0  0  0  0  0  0  0  0  0  0  0  0
    3.0310   -2.5530    0.0000 C   0  0  0  0  0  0  0  0  0  0  0  0
    2.3120   -3.8690    0.0000 O   0  0  0  0  0  0  0  0  0  0  0  0
    4.5270   -2.5150    0.0000 C   0  0  2  0  0  0  0  0  0  0  0  0
    5.3870   -3.6760    0.0000 C   0  0  0  0  0  0  0  0  0  0  0  0
    4.9220   -5.0940    0.0000 C   0  0  0  0  0  0  0  0  0  0  0  0
    3.4550   -5.4060    0.0000 C   0  0  0  0  0  0  0  0  0  0  0  0
    5.9340   -6.2120    0.0000 C   0  0  1  0  0  0  0  0  0  0  0  0
    7.3950   -5.8710    0.0000 O   0  0  0  0  0  0  0  0  0  0  0  0
    5.5330   -7.6270    0.0000 C   0  0  1  0  0  0  0  0  0  0  0  0
    6.5960   -8.6850    0.0000 O   0  0  0  0  0  0  0  0  0  0  0  0
    8.0440   -8.2930    0.0000 C   0  0  0  0  0  0  0  0  0  0  0  0
    4.0870   -8.0460    0.0000 C   0  0  0  0  0  0  0  0  0  0  0  0
    2.9990   -7.0130    0.0000 O   0  0  0  0  0  0  0  0  0  0  0  0
    3.7470   -9.5030    0.0000 C   0  0  2  0  0  0  0  0  0  0  0  0
    2.3120   -9.9540    0.0000 C   0  0  0  0  0  0  0  0  0  0  0  0
    2.0080  -11.4250    0.0000 C   0  0  1  0  0  0  0  0  0  0  0  0
    0.6750  -11.9860    0.0000 C   0  0  0  0  0  0  0  0  0  0  0  0
   -0.5870  -11.1840    0.0000 C   0  0  0  0  0  0  0  0  0  0  0  0
   -1.9110  -11.8920    0.0000 C   0  0  0  0  0  0  0  0  0  0  0  0
   -3.1960  -11.1150    0.0000 C   0  0  0  0  0  0  0  0  0  0  0  0
   -4.5060  -11.8430    0.0000 C   0  0  0  0  0  0  0  0  0  0  0  0
   -5.8000  -11.1870    0.0000 C   0  0  0  0  0  0  0  0  0  0  0  0
   -6.9920  -12.0980    0.0000 C   0  0  0  0  0  0  0  0  0  0  0  0
   -6.0920   -9.7730    0.0000 C   0  0  2  0  0  0  0  0  0  0  0  0
   -7.5330   -9.3580    0.0000 O   0  0  0  0  0  0  0  0  0  0  0  0
   -8.6130  -10.3990    0.0000 C   0  0  0  0  0  0  0  0  0  0  0  0
   -5.0540   -8.6890    0.0000 C   0  0  0  0  0  0  0  0  0  0  0  0
   -5.1530   -7.3620    0.0000 C   0  0  1  0  0  0  0  0  0  0  0  0
   -4.3330   -6.1450    0.0000 O   0  0  0  0  0  0  0  0  0  0  0  0
   -4.9860   -4.8040    0.0000 C   0  0  2  0  0  0  0  0  0  0  0  0
   -3.4920   -4.6660    0.0000 O   0  0  0  0  0  0  0  0  0  0  0  0
   -6.4840   -4.6870    0.0000 C   0  0  1  0  0  0  0  0  0  0  0  0
   -7.3240   -5.9390    0.0000 C   0  0  0  0  0  0  0  0  0  0  0  0
   -6.6520   -7.2950    0.0000 C   0  0  0  0  0  0  0  0  0  0  0  0
   -7.1380   -3.3370    0.0000 C   0  0  0  0  0  0  0  0  0  0  0  0
   -4.7130   -3.5400    0.0000 C   0  0  0  0  0  0  0  0  0  0  0  0
   -5.9810   -2.7370    0.0000 O   0  0  0  0  0  0  0  0  0  0  0  0
   -3.5300   -2.6330    0.0000 C   0  0  0  0  0  0  0  0  0  0  0  0
   -2.1970   -3.3220    0.0000 O   0  0  0  0  0  0  0  0  0  0  0  0
   -3.4780   -1.2690    0.0000 N   0  0  0  0  0  0  0  0  0  0  0  0
   -2.6170   -0.1530    0.0000 C   0  0  1  0  0  0  0  0  0  0  0  0
   -3.1820    1.2850    0.0000 C   0  0  0  0  0  0  0  0  0  0  0  0
   -4.6670    1.4690    0.0000 C   0  0  0  0  0  0  0  0  0  0  0  0
   -5.5780    0.2710    0.0000 C   0  0  0  0  0  0  0  0  0  0  0  0
   -4.9990   -1.1160    0.0000 C   0  0  0  0  0  0  0  0  0  0  0  0
   -1.3520    0.2640    0.0000 C   0  0  0  0  0  0  0  0  0  0  0  0
   -1.4460    1.7610    0.0000 O   0  0  0  0  0  0  0  0  0  0  0  0
    3.1670  -12.3770    0.0000 C   0  0  0  0  0  0  0  0  0  0  0  0
    4.8460  -10.5230    0.0000 C   0  0  0  0  0  0  0  0  0  0  0  0
    5.1850   -1.1670    0.0000 C   0  0  0  0  0  0  0  0  0  0  0  0
    0.0080   -2.5930    0.0000 C   0  0  1  0  0  0  0  0  0  0  0  0
    0.7670   -3.8870    0.0000 C   0  0  0  0  0  0  0  0  0  0  0  0
    0.0260   -5.1910    0.0000 C   0  0  2  0  0  0  0  0  0  0  0  0
    0.7850   -6.4850    0.0000 C   0  0  0  0  0  0  0  0  0  0  0  0
    0.0440   -7.7890    0.0000 C   0  0  2  0  0  0  0  0  0  0  0  0
    0.8030   -9.0830    0.0000 O   0  0  0  0  0  0  0  0  0  0  0  0
    0.0620  -10.3870    0.0000 C   0  0  0  0  0  0  0  0  0  0  0  0
   -1.4560   -7.8000    0.0000 C   0  0  1  0  0  0  0  0  0  0  0  0
   -2.1970   -9.1040    0.0000 O   0  0  0  0  0  0  0  0  0  0  0  0
   -3.6970   -9.1140    0.0000 C   0  0  0  0  0  0  0  0  0  0  0  0
   -4.4380  -10.4180    0.0000 O   0  0  0  0  0  0  0  0  0  0  0  0
   -4.4560   -7.8200    0.0000 C   0  0  0  0  0  0  0  0  0  0  0  0
   -5.2150   -6.5270    0.0000 C   0  0  0  0  0  0  0  0  0  0  0  0
   -6.7150   -6.5370    0.0000 O   0  0  0  0  0  0  0  0  0  0  0  0
   -3.1620   -7.0610    0.0000 C   0  0  0  0  0  0  0  0  0  0  0  0
   -3.1730   -5.5610    0.0000 O   0  0  0  0  0  0  0  0  0  0  0  0
   -5.7500   -8.5790    0.0000 C   0  0  0  0  0  0  0  0  0  0  0  0
   -2.2150   -6.5060    0.0000 C   0  0  0  0  0  0  0  0  0  0  0  0
   -1.4740   -5.2020    0.0000 C   0  0  0  0  0  0  0  0  0  0  0  0
   -1.4920   -2.6040    0.0000 C   0  0  0  0  0  0  0  0  0  0  0  0
  1 49  1  0  0  0  0
  2  1  1  1  0  0  0
  2  3  1  0  0  0  0
  2 54  1  0  0  0  0
  3  4  1  0  0  0  0
  4  5  2  0  0  0  0
  4  6  1  0  0  0  0
  6  7  1  0  0  0  0
  6 53  1  1  0  0  0
  7  8  2  3  0  0  0
  8  9  1  0  0  0  0
  8 10  1  0  0  0  0
 10 11  1  1  0  0  0
 10 12  1  0  0  0  0
 12 13  1  1  0  0  0
 12 15  1  0  0  0  0
 13 14  1  0  0  0  0
 15 16  2  0  0  0  0
 15 17  1  0  0  0  0
 17 18  1  0  0  0  0
 17 52  1  1  0  0  0
 18 19  1  0  0  0  0
 19 20  1  0  0  0  0
 19 51  1  6  0  0  0
 20 21  2  3  0  0  0
 21 22  1  0  0  0  0
 22 23  2  3  0  0  0
 23 24  1  0  0  0  0
 24 25  2  3  0  0  0
 25 26  1  0  0  0  0
 25 27  1  0  0  0  0
 27 28  1  6  0  0  0
 27 30  1  0  0  0  0
 28 29  1  0  0  0  0
 31 30  1  6  0  0  0
 31 32  1  0  0  0  0
 31 37  1  0  0  0  0
 32 33  1  0  0  0  0
 33 34  1  1  0  0  0
 33 35  1  0  0  0  0
 33 39  1  0  0  0  0
 35 36  1  0  0  0  0
 35 38  1  1  0  0  0
 36 37  1  0  0  0  0
 39 40  2  0  0  0  0
 39 41  1  0  0  0  0
 41 42  2  0  0  0  0
 41 43  1  0  0  0  0
 43 44  1  0  0  0  0
 43 48  1  0  0  0  0
 44 45  1  0  0  0  0
 44 49  1  1  0  0  0
 45 46  1  0  0  0  0
 46 47  1  0  0  0  0
 47 48  1  0  0  0  0
 49 50  2  0  0  0  0
 54 55  1  0  0  0  0
 54 73  1  1  0  0  0
 56 55  1  6  0  0  0
 56 57  1  0  0  0  0
 56 72  1  0  0  0  0
 57 58  1  0  0  0  0
 58 59  1  6  0  0  0
 58 61  1  0  0  0  0
 59 60  1  0  0  0  0
 61 62  1  1  0  0  0
 61 71  1  0  0  0  0
 62 63  1  0  0  0  0
 63 64  2  0  0  0  0
 63 65  1  0  0  0  0
 65 66  1  0  0  0  0
 65 68  1  0  0  0  0
 65 70  1  0  0  0  0
 66 67  1  0  0  0  0
 68 69  1  0  0  0  0
 71 72  1  0  0  0  0
M  END
>  <Index>
1042

>  <ID>
HT2000

>  <class>
0

>  <apol>
170.50299

>  <ast_fraglike>
0

>  <ast_fraglike_ext>
0

>  <ast_violation>
4

>  <ast_violation_ext>
6

>  <a_acc>
14

>  <a_acid>
0

>  <a_aro>
0

>  <a_base>
0

>  <a_count>
160

>  <a_don>
4

>  <a_donacc>
18

>  <a_heavy>
73

>  <a_hyd>
49

>  <a_IC>
221.76053

>  <a_ICM>
1.3860034

>  <a_nB>
0

>  <a_nBr>
0

>  <a_nC>
56

>  <a_nCl>
0

>  <a_nF>
0

>  <a_nH>
87

>  <a_nI>
0

>  <a_nN>
1

>  <a_nO>
16

>  <a_nP>
0

>  <a_nS>
0

>  <balabanJ>
1.6303617

>  <BCUT_PEOE_0>
-2.8330986

>  <BCUT_PEOE_1>
-0.50154704

>  <BCUT_PEOE_2>
0.51039118

>  <BCUT_PEOE_3>
2.8199577

>  <BCUT_SLOGP_0>
-2.8335586

>  <BCUT_SLOGP_1>
-0.41795829

>  <BCUT_SLOGP_2>
0.41087997

>  <BCUT_SLOGP_3>
2.8642831

>  <BCUT_SMR_0>
-2.5961514

>  <BCUT_SMR_1>
-0.33855465

>  <BCUT_SMR_2>
0.63162786

>  <BCUT_SMR_3>
3.0536432

>  <bpol>
114.33301

>  <b_1rotN>
10

>  <b_1rotR>
0.13157895

>  <b_ar>
0

>  <b_count>
163

>  <b_double>
10

>  <b_heavy>
76

>  <b_max1len>
6

>  <b_rotN>
11

>  <b_rotR>
0.14473684

>  <b_single>
153

>  <b_triple>
0

>  <chi0>
54.370941

>  <chi0v>
45.288654

>  <chi0v_C>
38.153606

>  <chi0_C>
39.550949

>  <chi1>
34.476074

>  <chi1v>
26.399334

>  <chi1v_C>
20.010963

>  <chi1_C>
21.704636

>  <chiral>
15

>  <chiral_u>
0

>  <density>
0.72262818

>  <diameter>
25

>  <FCharge>
0

>  <GCUT_PEOE_0>
-0.82385635

>  <GCUT_PEOE_1>
-0.3791796

>  <GCUT_PEOE_2>
0.0375483

>  <GCUT_PEOE_3>
3.4168706

>  <GCUT_SLOGP_0>
-0.98243821

>  <GCUT_SLOGP_1>
-0.30683601

>  <GCUT_SLOGP_2>
-0.0077437707

>  <GCUT_SLOGP_3>
3.4243174

>  <GCUT_SMR_0>
-0.5353114

>  <GCUT_SMR_1>
-0.20564693

>  <GCUT_SMR_2>
0.13875143

>  <GCUT_SMR_3>
3.6319649

>  <Kier1>
65.518005

>  <Kier2>
31.117285

>  <Kier3>
18

>  <KierA1>
57.674137

>  <KierA2>
27.341902

>  <KierA3>
15.796105

>  <KierFlex>
21.601652

>  <lip_acc>
17

>  <lip_don>
4

>  <lip_druglike>
0

>  <lip_violation>
3

>  <logP(o/w)>
6.00174

>  <logS>
-7.7574301

>  <mr>
27.583822

>  <mutagenic>
0

>  <nmol>
1

>  <opr_brigid>
44

>  <opr_leadlike>
0

>  <opr_nring>
3

>  <opr_nrot>
33

>  <opr_violation>
4

>  <PC+>
0

>  <PC->
0

>  <PEOE_PC+>
6.9313393

>  <PEOE_PC->
-6.9313393

>  <PEOE_RPC+>
0.042733159

>  <PEOE_RPC->
0.056827072

>  <PEOE_VSA+0>
344.44955

>  <PEOE_VSA+1>
169.59265

>  <PEOE_VSA+2>
21.414337

>  <PEOE_VSA+3>
8.458519

>  <PEOE_VSA+4>
42.405235

>  <PEOE_VSA+5>
50.82505

>  <PEOE_VSA+6>
0

>  <PEOE_VSA-0>
147.67325

>  <PEOE_VSA-1>
167.26781

>  <PEOE_VSA-2>
0

>  <PEOE_VSA-3>
0

>  <PEOE_VSA-4>
0

>  <PEOE_VSA-5>
81.401527

>  <PEOE_VSA-6>
46.092697

>  <PEOE_VSA_FHYD>
0.79554605

>  <PEOE_VSA_FNEG>
0.40982145

>  <PEOE_VSA_FPNEG>
0.11809607

>  <PEOE_VSA_FPOL>
0.20445393

>  <PEOE_VSA_FPOS>
0.59017855

>  <PEOE_VSA_FPPOS>
0.086357869

>  <PEOE_VSA_HYD>
858.85608

>  <PEOE_VSA_NEG>
442.43527

>  <PEOE_VSA_PNEG>
127.49422

>  <PEOE_VSA_POL>
220.7245

>  <PEOE_VSA_POS>
637.14532

>  <PEOE_VSA_PPOS>
93.230286

>  <petitjean>
0.44

>  <petitjeanSC>
0.78571427

>  <Q_PC+>
0

>  <Q_PC->
0

>  <Q_RPC+>
0

>  <Q_RPC->
0

>  <Q_VSA_FHYD>
1

>  <Q_VSA_FNEG>
0

>  <Q_VSA_FPNEG>
0

>  <Q_VSA_FPOL>
0

>  <Q_VSA_FPOS>
1

>  <Q_VSA_FPPOS>
0

>  <Q_VSA_HYD>
1079.5806

>  <Q_VSA_NEG>
0

>  <Q_VSA_PNEG>
0

>  <Q_VSA_POL>
0

>  <Q_VSA_POS>
1079.5806

>  <Q_VSA_PPOS>
0

>  <radius>
14

>  <reactive>
1

>  <rings>
4

>  <RPC+>
0

>  <RPC->
0

>  <rsynth>
0.31506848

>  <SlogP>
5.7224002

>  <SlogP_VSA0>
101.54091

>  <SlogP_VSA1>
40.936859

>  <SlogP_VSA2>
258.43515

>  <SlogP_VSA3>
60.292095

>  <SlogP_VSA4>
26.464777

>  <SlogP_VSA5>
112.52275

>  <SlogP_VSA6>
0

>  <SlogP_VSA7>
105.85911

>  <SlogP_VSA8>
226.42087

>  <SlogP_VSA9>
266.60812

>  <SMR>
27.12892

>  <SMR_VSA0>
209.17262

>  <SMR_VSA1>
104.66522

>  <SMR_VSA2>
26.464777

>  <SMR_VSA3>
55.633663

>  <SMR_VSA4>
0

>  <SMR_VSA5>
332.27997

>  <SMR_VSA6>
98.104637

>  <SMR_VSA7>
372.75974

>  <TPSA>
241.96001

>  <VAdjEq>
0.1869307

>  <VAdjMa>
7.2479277

>  <VDistEq>
4.3876748

>  <VDistMa>
12.146338

>  <vdw_area>
1079.5806

>  <vdw_vol>
1425.7719

>  <vsa_acc>
91.41655

>  <vsa_acid>
0

>  <vsa_base>
0

>  <vsa_don>
0

>  <vsa_hyd>
774.78973

>  <vsa_other>
73.858147

>  <vsa_pol>
145.68423

>  <Weight>
1030.303

>  <weinerPath>
27223

>  <weinerPol>
131

>  <zagreb>
368

$$$$