P(OCC(=O)[C@]1(O)[C@@]2([C@H]([C@@H]3CCC4=CC(=O)C=C[C@]4(C)[C@@]3(F)[C@@H](O)C2)C[C@@H]1C)C)(O)(O)=O
  MOE2013           2D

 32 35  0  0  1  0  0  0  0  0999 V2000
    0.0000    0.0000    0.0000 P   0  0  0  0  0  0  0  0  0  0  0  0
    0.7510   -1.2980    0.0000 O   0  0  0  0  0  0  0  0  0  0  0  0
    2.2510   -1.2970    0.0000 C   0  0  0  0  0  0  0  0  0  0  0  0
    3.0020   -2.5960    0.0000 C   0  0  0  0  0  0  0  0  0  0  0  0
    2.2530   -3.8950    0.0000 O   0  0  0  0  0  0  0  0  0  0  0  0
    4.5020   -2.5950    0.0000 C   0  0  2  0  0  0  0  0  0  0  0  0
    3.7970   -1.2710    0.0000 O   0  0  0  0  0  0  0  0  0  0  0  0
    5.9020   -2.0560    0.0000 C   0  0  2  0  0  0  0  0  0  0  0  0
    6.8470   -3.2210    0.0000 C   0  0  2  0  0  0  0  0  0  0  0  0
    8.3280   -2.9860    0.0000 C   0  0  2  0  0  0  0  0  0  0  0  0
    9.2730   -4.1510    0.0000 C   0  0  0  0  0  0  0  0  0  0  0  0
   10.7540   -3.9150    0.0000 C   0  0  0  0  0  0  0  0  0  0  0  0
   11.2910   -2.5140    0.0000 C   0  0  0  0  0  0  0  0  0  0  0  0
   12.7720   -2.2780    0.0000 C   0  0  0  0  0  0  0  0  0  0  0  0
   13.3090   -0.8780    0.0000 C   0  0  0  0  0  0  0  0  0  0  0  0
   14.7900   -0.6420    0.0000 O   0  0  0  0  0  0  0  0  0  0  0  0
   12.3640    0.2870    0.0000 C   0  0  0  0  0  0  0  0  0  0  0  0
   10.8820    0.0520    0.0000 C   0  0  0  0  0  0  0  0  0  0  0  0
   10.3460   -1.3490    0.0000 C   0  0  1  0  0  0  0  0  0  0  0  0
    9.4010   -0.1840    0.0000 C   0  0  0  0  0  0  0  0  0  0  0  0
    8.8650   -1.5850    0.0000 C   0  0  2  0  0  0  0  0  0  0  0  0
    7.3830   -1.8200    0.0000 F   0  0  0  0  0  0  0  0  0  0  0  0
    7.9200   -0.4200    0.0000 C   0  0  1  0  0  0  0  0  0  0  0  0
    8.4560    0.9810    0.0000 O   0  0  0  0  0  0  0  0  0  0  0  0
    6.4380   -0.6550    0.0000 C   0  0  0  0  0  0  0  0  0  0  0  0
    6.0310   -4.4800    0.0000 C   0  0  0  0  0  0  0  0  0  0  0  0
    4.5810   -4.0930    0.0000 C   0  0  2  0  0  0  0  0  0  0  0  0
    3.4160   -5.0380    0.0000 C   0  0  0  0  0  0  0  0  0  0  0  0
    4.8590   -0.9780    0.0000 C   0  0  0  0  0  0  0  0  0  0  0  0
   -1.2980   -0.7510    0.0000 O   0  0  0  0  0  0  0  0  0  0  0  0
   -0.7510    1.2980    0.0000 O   0  0  0  0  0  0  0  0  0  0  0  0
    1.2980    0.7510    0.0000 O   0  0  0  0  0  0  0  0  0  0  0  0
  1  2  1  0  0  0  0
  1 30  1  0  0  0  0
  1 31  1  0  0  0  0
  1 32  2  0  0  0  0
  2  3  1  0  0  0  0
  3  4  1  0  0  0  0
  4  5  2  0  0  0  0
  6  4  1  6  0  0  0
  6  7  1  1  0  0  0
  6  8  1  0  0  0  0
  6 27  1  0  0  0  0
  8  9  1  0  0  0  0
  8 25  1  0  0  0  0
  8 29  1  6  0  0  0
  9 10  1  0  0  0  0
  9 26  1  6  0  0  0
 10 11  1  1  0  0  0
 10 21  1  0  0  0  0
 11 12  1  0  0  0  0
 12 13  1  0  0  0  0
 13 14  2  0  0  0  0
 13 19  1  0  0  0  0
 14 15  1  0  0  0  0
 15 16  2  0  0  0  0
 15 17  1  0  0  0  0
 17 18  2  0  0  0  0
 18 19  1  0  0  0  0
 19 20  1  6  0  0  0
 19 21  1  0  0  0  0
 21 22  1  1  0  0  0
 21 23  1  0  0  0  0
 23 24  1  6  0  0  0
 23 25  1  0  0  0  0
 26 27  1  0  0  0  0
 27 28  1  6  0  0  0
M  END
>  <Index>
134

>  <ID>
HT0271

>  <class>
0

>  <apol>
69.32679

>  <ast_fraglike>
0

>  <ast_fraglike_ext>
0

>  <ast_violation>
3

>  <ast_violation_ext>
5

>  <a_acc>
8

>  <a_acid>
0

>  <a_aro>
0

>  <a_base>
0

>  <a_count>
62

>  <a_don>
5

>  <a_donacc>
13

>  <a_heavy>
32

>  <a_hyd>
21

>  <a_IC>
99.845955

>  <a_ICM>
1.6104187

>  <a_nB>
0

>  <a_nBr>
0

>  <a_nC>
22

>  <a_nCl>
0

>  <a_nF>
1

>  <a_nH>
30

>  <a_nI>
0

>  <a_nN>
0

>  <a_nO>
8

>  <a_nP>
1

>  <a_nS>
0

>  <balabanJ>
1.6850859

>  <BCUT_PEOE_0>
-2.8985865

>  <BCUT_PEOE_1>
-0.52663225

>  <BCUT_PEOE_2>
0.57559615

>  <BCUT_PEOE_3>
3.0001445

>  <BCUT_SLOGP_0>
-2.9230204

>  <BCUT_SLOGP_1>
-0.49567345

>  <BCUT_SLOGP_2>
0.50888377

>  <BCUT_SLOGP_3>
2.9976909

>  <BCUT_SMR_0>
-2.671778

>  <BCUT_SMR_1>
-0.40422437

>  <BCUT_SMR_2>
0.68908298

>  <BCUT_SMR_3>
3.2264409

>  <bpol>
46.269211

>  <b_1rotN>
4

>  <b_1rotR>
0.11428571

>  <b_ar>
0

>  <b_count>
65

>  <b_double>
4

>  <b_heavy>
35

>  <b_max1len>
8

>  <b_rotN>
4

>  <b_rotR>
0.11428571

>  <b_single>
61

>  <b_triple>
0

>  <chi0>
23.905413

>  <chi0v>
19.218439

>  <chi0v_C>
14.076985

>  <chi0_C>
14.698306

>  <chi1>
14.60968

>  <chi1v>
12.410228

>  <chi1v_C>
8.7470713

>  <chi1_C>
9.5240755

>  <chiral>
8

>  <chiral_u>
0

>  <density>
0.82936722

>  <diameter>
14

>  <FCharge>
0

>  <GCUT_PEOE_0>
-0.7904405

>  <GCUT_PEOE_1>
-0.40756169

>  <GCUT_PEOE_2>
0.048461195

>  <GCUT_PEOE_3>
3.3950527

>  <GCUT_SLOGP_0>
-1.2940255

>  <GCUT_SLOGP_1>
-0.35909751

>  <GCUT_SLOGP_2>
0.00018722372

>  <GCUT_SLOGP_3>
3.4179664

>  <GCUT_SMR_0>
-0.5378952

>  <GCUT_SMR_1>
-0.22608671

>  <GCUT_SMR_2>
0.15700145

>  <GCUT_SMR_3>
3.611593

>  <Kier1>
25.103674

>  <Kier2>
7.75

>  <Kier3>
3.3703513

>  <KierA1>
23.608492

>  <KierA2>
7.2735043

>  <KierA3>
3.158571

>  <KierFlex>
5.3661399

>  <lip_acc>
8

>  <lip_don>
4

>  <lip_druglike>
1

>  <lip_violation>
0

>  <logP(o/w)>
1.2640001

>  <logS>
-2.9667101

>  <mr>
11.429833

>  <mutagenic>
0

>  <nmol>
1

>  <opr_brigid>
20

>  <opr_leadlike>
1

>  <opr_nring>
4

>  <opr_nrot>
4

>  <opr_violation>
1

>  <PC+>
0

>  <PC->
0

>  <PEOE_PC+>
3.0107303

>  <PEOE_PC->
-3.0107303

>  <PEOE_RPC+>
0.1366462

>  <PEOE_RPC->
0.12906523

>  <PEOE_VSA+0>
85.307716

>  <PEOE_VSA+1>
30.497244

>  <PEOE_VSA+2>
14.951293

>  <PEOE_VSA+3>
37.565384

>  <PEOE_VSA+4>
20.648346

>  <PEOE_VSA+5>
0

>  <PEOE_VSA+6>
18.713068

>  <PEOE_VSA-0>
78.062737

>  <PEOE_VSA-1>
51.958797

>  <PEOE_VSA-2>
15.729136

>  <PEOE_VSA-3>
0

>  <PEOE_VSA-4>
11.908636

>  <PEOE_VSA-5>
51.659325

>  <PEOE_VSA-6>
15.535081

>  <PEOE_VSA_FHYD>
0.72611701

>  <PEOE_VSA_FNEG>
0.51984876

>  <PEOE_VSA_FPNEG>
0.18288165

>  <PEOE_VSA_FPOL>
0.27388296

>  <PEOE_VSA_FPOS>
0.48015121

>  <PEOE_VSA_FPPOS>
0.091001309

>  <PEOE_VSA_HYD>
314.07233

>  <PEOE_VSA_NEG>
224.85371

>  <PEOE_VSA_PNEG>
79.103043

>  <PEOE_VSA_POL>
118.46445

>  <PEOE_VSA_POS>
207.68306

>  <PEOE_VSA_PPOS>
39.361416

>  <petitjean>
0.5

>  <petitjeanSC>
1

>  <Q_PC+>
0

>  <Q_PC->
0

>  <Q_RPC+>
0

>  <Q_RPC->
0

>  <Q_VSA_FHYD>
1

>  <Q_VSA_FNEG>
0

>  <Q_VSA_FPNEG>
0

>  <Q_VSA_FPOL>
0

>  <Q_VSA_FPOS>
1

>  <Q_VSA_FPPOS>
0

>  <Q_VSA_HYD>
432.53677

>  <Q_VSA_NEG>
0

>  <Q_VSA_PNEG>
0

>  <Q_VSA_POL>
0

>  <Q_VSA_POS>
432.53677

>  <Q_VSA_PPOS>
0

>  <radius>
7

>  <reactive>
1

>  <rings>
4

>  <RPC+>
0

>  <RPC->
0

>  <rsynth>
0.40625

>  <SlogP>
0.9425

>  <SlogP_VSA0>
115.81815

>  <SlogP_VSA1>
11.375222

>  <SlogP_VSA2>
61.114712

>  <SlogP_VSA3>
20.926258

>  <SlogP_VSA4>
13.232388

>  <SlogP_VSA5>
3.185575

>  <SlogP_VSA6>
0

>  <SlogP_VSA7>
52.929554

>  <SlogP_VSA8>
75.473625

>  <SlogP_VSA9>
131.633

>  <SMR>
11.01682

>  <SMR_VSA0>
77.079826

>  <SMR_VSA1>
108.34451

>  <SMR_VSA2>
13.232388

>  <SMR_VSA3>
9.6542244

>  <SMR_VSA4>
0

>  <SMR_VSA5>
128.40317

>  <SMR_VSA6>
32.301479

>  <SMR_VSA7>
116.67288

>  <TPSA>
141.36

>  <VAdjEq>
0.3597711

>  <VAdjMa>
6.129283

>  <VDistEq>
3.443862

>  <VDistMa>
9.7261648

>  <vdw_area>
432.53677

>  <vdw_vol>
569.64636

>  <vsa_acc>
31.799814

>  <vsa_acid>
0

>  <vsa_base>
0

>  <vsa_don>
0

>  <vsa_hyd>
250.14459

>  <vsa_other>
35.630108

>  <vsa_pol>
106.12106

>  <Weight>
472.44598

>  <weinerPath>
2567

>  <weinerPol>
74

>  <zagreb>
190

$$$$