FC(F)(C)[C@@H]1C[C@@H]2C[C@](c3[nH]c4c(c3CN(C1)C2)cccc4)(C(OC)=O)c1cc2[C@@]34[C@@H](N(c2cc1OC)C)[C@@](O)(C(OC)=O)[C@H](OC(=O)C)[C@]1([C@@H]3N(CC=C1)CC4)CC
  MOE2013           2D

 59 67  0  0  1  0  0  0  0  0999 V2000
   -1.0000    0.0040    0.0000 F   0  0  0  0  0  0  0  0  0  0  0  0
    0.1440    0.9750    0.0000 C   0  0  0  0  0  0  0  0  0  0  0  0
   -1.2690    1.4800    0.0000 F   0  0  0  0  0  0  0  0  0  0  0  0
    0.6490    2.3870    0.0000 C   0  0  0  0  0  0  0  0  0  0  0  0
    1.1140   -0.1690    0.0000 C   0  0  2  0  0  0  0  0  0  0  0  0
    2.5450    0.0890    0.0000 C   0  0  0  0  0  0  0  0  0  0  0  0
    3.5090   -1.0080    0.0000 C   0  0  2  0  0  0  0  0  0  0  0  0
    5.1140   -1.2990    0.0000 C   0  0  0  0  0  0  0  0  0  0  0  0
    5.2540   -2.8670    0.0000 C   0  0  2  0  0  0  0  0  0  0  0  0
    4.2350   -3.8470    0.0000 C   0  0  0  0  0  0  0  0  0  0  0  0
    5.4800   -4.6580    0.0000 N   0  0  0  0  0  0  0  0  0  0  0  0
    5.0720   -6.1010    0.0000 C   0  0  0  0  0  0  0  0  0  0  0  0
    3.5730   -6.1570    0.0000 C   0  0  0  0  0  0  0  0  0  0  0  0
    3.0980   -4.6910    0.0000 C   0  0  0  0  0  0  0  0  0  0  0  0
    1.5750   -4.2980    0.0000 C   0  0  0  0  0  0  0  0  0  0  0  0
    1.5510   -2.6660    0.0000 N   0  0  3  0  0  0  0  0  0  0  0  0
    0.6270   -1.5380    0.0000 C   0  0  0  0  0  0  0  0  0  0  0  0
    2.9900   -2.3810    0.0000 C   0  0  0  0  0  0  0  0  0  0  0  0
    2.8740   -7.4840    0.0000 C   0  0  0  0  0  0  0  0  0  0  0  0
    3.6730   -8.7530    0.0000 C   0  0  0  0  0  0  0  0  0  0  0  0
    5.1720   -8.6970    0.0000 C   0  0  0  0  0  0  0  0  0  0  0  0
    5.8720   -7.3700    0.0000 C   0  0  0  0  0  0  0  0  0  0  0  0
    6.6150   -4.3330    0.0000 C   0  0  0  0  0  0  0  0  0  0  0  0
    6.1730   -5.7670    0.0000 O   0  0  0  0  0  0  0  0  0  0  0  0
    7.1940   -6.8660    0.0000 C   0  0  0  0  0  0  0  0  0  0  0  0
    8.0770   -3.9990    0.0000 O   0  0  0  0  0  0  0  0  0  0  0  0
    7.7540   -2.8770    0.0000 C   0  0  0  0  0  0  0  0  0  0  0  0
    8.5090   -1.5810    0.0000 C   0  0  0  0  0  0  0  0  0  0  0  0
   10.0100   -1.5900    0.0000 C   0  0  0  0  0  0  0  0  0  0  0  0
   11.0130   -0.4780    0.0000 C   0  0  1  0  0  0  0  0  0  0  0  0
   12.3920   -1.1020    0.0000 C   0  0  1  0  0  0  0  0  0  0  0  0
   12.2220   -2.5890    0.0000 N   0  0  3  0  0  0  0  0  0  0  0  0
   10.7540   -2.8900    0.0000 C   0  0  0  0  0  0  0  0  0  0  0  0
    9.9990   -4.1850    0.0000 C   0  0  0  0  0  0  0  0  0  0  0  0
    8.4990   -4.1790    0.0000 C   0  0  0  0  0  0  0  0  0  0  0  0
    8.2330   -5.6560    0.0000 O   0  0  0  0  0  0  0  0  0  0  0  0
    9.3780   -6.6240    0.0000 C   0  0  0  0  0  0  0  0  0  0  0  0
   13.3290   -3.6010    0.0000 C   0  0  0  0  0  0  0  0  0  0  0  0
   13.6140   -0.2280    0.0000 C   0  0  1  0  0  0  0  0  0  0  0  0
   15.1010   -0.0300    0.0000 O   0  0  0  0  0  0  0  0  0  0  0  0
   14.5530   -1.3970    0.0000 C   0  0  0  0  0  0  0  0  0  0  0  0
   16.0360   -1.1690    0.0000 O   0  0  0  0  0  0  0  0  0  0  0  0
   16.9750   -2.3380    0.0000 C   0  0  0  0  0  0  0  0  0  0  0  0
   14.0100   -2.7960    0.0000 O   0  0  0  0  0  0  0  0  0  0  0  0
   13.4630    1.2650    0.0000 C   0  0  2  0  0  0  0  0  0  0  0  0
   14.6820    2.1390    0.0000 O   0  0  0  0  0  0  0  0  0  0  0  0
   16.0480    1.5200    0.0000 C   0  0  0  0  0  0  0  0  0  0  0  0
   16.1950    0.0270    0.0000 O   0  0  0  0  0  0  0  0  0  0  0  0
   17.2680    2.3930    0.0000 C   0  0  0  0  0  0  0  0  0  0  0  0
   12.0860    1.8930    0.0000 C   0  0  1  0  0  0  0  0  0  0  0  0
   10.9000    0.9940    0.0000 C   0  0  2  0  0  0  0  0  0  0  0  0
    9.5140    1.4990    0.0000 N   0  0  3  0  0  0  0  0  0  0  0  0
    9.2850    2.9970    0.0000 C   0  0  0  0  0  0  0  0  0  0  0  0
   10.4550    3.9370    0.0000 C   0  0  0  0  0  0  0  0  0  0  0  0
   11.8530    3.3880    0.0000 C   0  0  0  0  0  0  0  0  0  0  0  0
    8.6590    0.2370    0.0000 C   0  0  0  0  0  0  0  0  0  0  0  0
    9.5670   -0.9610    0.0000 C   0  0  0  0  0  0  0  0  0  0  0  0
   13.2660    2.8200    0.0000 C   0  0  0  0  0  0  0  0  0  0  0  0
   13.0520    4.3050    0.0000 C   0  0  0  0  0  0  0  0  0  0  0  0
  1  2  1  0  0  0  0
  2  3  1  0  0  0  0
  2  4  1  0  0  0  0
  5  2  1  6  0  0  0
  5  6  1  0  0  0  0
  5 17  1  0  0  0  0
  6  7  1  0  0  0  0
  7  8  1  0  0  0  0
  7 18  1  6  0  0  0
  8  9  1  0  0  0  0
  9 10  1  0  0  0  0
  9 23  1  1  0  0  0
  9 27  1  6  0  0  0
 10 11  1  0  0  0  0
 10 14  2  0  0  0  0
 11 12  1  0  0  0  0
 12 13  2  0  0  0  0
 12 22  1  0  0  0  0
 13 14  1  0  0  0  0
 13 19  1  0  0  0  0
 14 15  1  0  0  0  0
 15 16  1  0  0  0  0
 16 17  1  0  0  0  0
 16 18  1  0  0  0  0
 19 20  2  0  0  0  0
 20 21  1  0  0  0  0
 21 22  2  0  0  0  0
 23 24  1  0  0  0  0
 23 26  2  0  0  0  0
 24 25  1  0  0  0  0
 27 28  1  0  0  0  0
 27 35  2  0  0  0  0
 28 29  2  0  0  0  0
 29 30  1  0  0  0  0
 29 33  1  0  0  0  0
 30 31  1  0  0  0  0
 30 51  1  0  0  0  0
 30 57  1  1  0  0  0
 31 32  1  6  0  0  0
 31 39  1  0  0  0  0
 32 33  1  0  0  0  0
 32 38  1  0  0  0  0
 33 34  2  0  0  0  0
 34 35  1  0  0  0  0
 35 36  1  0  0  0  0
 36 37  1  0  0  0  0
 39 40  1  1  0  0  0
 39 41  1  6  0  0  0
 39 45  1  0  0  0  0
 41 42  1  0  0  0  0
 41 44  2  0  0  0  0
 42 43  1  0  0  0  0
 45 46  1  1  0  0  0
 45 50  1  0  0  0  0
 46 47  1  0  0  0  0
 47 48  2  0  0  0  0
 47 49  1  0  0  0  0
 50 51  1  0  0  0  0
 50 55  1  0  0  0  0
 50 58  1  6  0  0  0
 51 52  1  1  0  0  0
 52 53  1  0  0  0  0
 52 56  1  0  0  0  0
 53 54  1  0  0  0  0
 54 55  2  0  0  0  0
 56 57  1  0  0  0  0
 58 59  1  0  0  0  0
M  END
>  <Index>
1147

>  <ID>
HT2184

>  <class>
0

>  <apol>
127.13683

>  <ast_fraglike>
0

>  <ast_fraglike_ext>
0

>  <ast_violation>
3

>  <ast_violation_ext>
5

>  <a_acc>
7

>  <a_acid>
0

>  <a_aro>
15

>  <a_base>
0

>  <a_count>
113

>  <a_don>
2

>  <a_donacc>
9

>  <a_heavy>
59

>  <a_hyd>
44

>  <a_IC>
178.78291

>  <a_ICM>
1.5821496

>  <a_nB>
0

>  <a_nBr>
0

>  <a_nC>
45

>  <a_nCl>
0

>  <a_nF>
2

>  <a_nH>
54

>  <a_nI>
0

>  <a_nN>
4

>  <a_nO>
8

>  <a_nP>
0

>  <a_nS>
0

>  <balabanJ>
1.2132647

>  <BCUT_PEOE_0>
-2.8473365

>  <BCUT_PEOE_1>
-0.50905007

>  <BCUT_PEOE_2>
0.53285408

>  <BCUT_PEOE_3>
2.978327

>  <BCUT_SLOGP_0>
-2.9862938

>  <BCUT_SLOGP_1>
-0.41627568

>  <BCUT_SLOGP_2>
0.64061999

>  <BCUT_SLOGP_3>
2.8913877

>  <BCUT_SMR_0>
-2.6139777

>  <BCUT_SMR_1>
-0.34726167

>  <BCUT_SMR_2>
0.70345294

>  <BCUT_SMR_3>
3.2190938

>  <bpol>
78.577179

>  <b_1rotN>
7

>  <b_1rotR>
0.10447761

>  <b_ar>
16

>  <b_count>
121

>  <b_double>
4

>  <b_heavy>
67

>  <b_max1len>
4

>  <b_rotN>
10

>  <b_rotR>
0.14925373

>  <b_single>
101

>  <b_triple>
0

>  <chi0>
42.026005

>  <chi0v>
34.772038

>  <chi0v_C>
28.869514

>  <chi0_C>
30.758419

>  <chi1>
28.058119

>  <chi1v>
20.70484

>  <chi1v_C>
13.945596

>  <chi1_C>
16.228418

>  <chiral>
9

>  <chiral_u>
0

>  <density>
0.76213396

>  <diameter>
16

>  <FCharge>
0

>  <GCUT_PEOE_0>
-0.85579568

>  <GCUT_PEOE_1>
-0.41411409

>  <GCUT_PEOE_2>
-0.012412492

>  <GCUT_PEOE_3>
3.7154646

>  <GCUT_SLOGP_0>
-0.99730247

>  <GCUT_SLOGP_1>
-0.30304381

>  <GCUT_SLOGP_2>
0.10644506

>  <GCUT_SLOGP_3>
3.7284713

>  <GCUT_SMR_0>
-0.5280742

>  <GCUT_SMR_1>
-0.18197134

>  <GCUT_SMR_2>
0.14695561

>  <GCUT_SMR_3>
3.9615448

>  <Kier1>
44.213856

>  <Kier2>
15.860786

>  <Kier3>
6.2937026

>  <KierA1>
36.848278

>  <KierA2>
13.175266

>  <KierA3>
5.2160873

>  <KierFlex>
8.2285738

>  <lip_acc>
12

>  <lip_don>
2

>  <lip_druglike>
0

>  <lip_violation>
3

>  <logP(o/w)>
6.2799201

>  <logS>
-7.6012101

>  <mr>
21.514917

>  <mutagenic>
0

>  <nmol>
1

>  <opr_brigid>
44

>  <opr_leadlike>
0

>  <opr_nring>
9

>  <opr_nrot>
7

>  <opr_violation>
4

>  <PC+>
0

>  <PC->
0

>  <PEOE_PC+>
4.7631021

>  <PEOE_PC->
-4.7631021

>  <PEOE_RPC+>
0.062594883

>  <PEOE_RPC->
0.078742258

>  <PEOE_VSA+0>
328.1217

>  <PEOE_VSA+1>
92.646812

>  <PEOE_VSA+2>
4.9049287

>  <PEOE_VSA+3>
8.6190128

>  <PEOE_VSA+4>
10.324173

>  <PEOE_VSA+5>
46.358692

>  <PEOE_VSA+6>
0

>  <PEOE_VSA-0>
117.97341

>  <PEOE_VSA-1>
80.022194

>  <PEOE_VSA-2>
0

>  <PEOE_VSA-3>
0

>  <PEOE_VSA-4>
23.817272

>  <PEOE_VSA-5>
40.700764

>  <PEOE_VSA-6>
17.919456

>  <PEOE_VSA_FHYD>
0.81965411

>  <PEOE_VSA_FNEG>
0.36353388

>  <PEOE_VSA_FPNEG>
0.1068662

>  <PEOE_VSA_FPOL>
0.18034591

>  <PEOE_VSA_FPOS>
0.63646615

>  <PEOE_VSA_FPPOS>
0.073479712

>  <PEOE_VSA_HYD>
632.28809

>  <PEOE_VSA_NEG>
280.43311

>  <PEOE_VSA_PNEG>
82.437492

>  <PEOE_VSA_POL>
139.12036

>  <PEOE_VSA_POS>
490.97534

>  <PEOE_VSA_PPOS>
56.682865

>  <petitjean>
0.5

>  <petitjeanSC>
1

>  <Q_PC+>
0

>  <Q_PC->
0

>  <Q_RPC+>
0

>  <Q_RPC->
0

>  <Q_VSA_FHYD>
1

>  <Q_VSA_FNEG>
0

>  <Q_VSA_FPNEG>
0

>  <Q_VSA_FPOL>
0

>  <Q_VSA_FPOS>
1

>  <Q_VSA_FPPOS>
0

>  <Q_VSA_HYD>
771.40845

>  <Q_VSA_NEG>
0

>  <Q_VSA_PNEG>
0

>  <Q_VSA_POL>
0

>  <Q_VSA_POS>
771.40845

>  <Q_VSA_PPOS>
0

>  <radius>
8

>  <reactive>
0

>  <rings>
9

>  <RPC+>
0

>  <RPC->
0

>  <rsynth>
0.42372882

>  <SlogP>
5.3450999

>  <SlogP_VSA0>
39.50943

>  <SlogP_VSA1>
31.309093

>  <SlogP_VSA2>
135.80443

>  <SlogP_VSA3>
73.758316

>  <SlogP_VSA4>
21.135065

>  <SlogP_VSA5>
139.0488

>  <SlogP_VSA6>
0

>  <SlogP_VSA7>
145.86258

>  <SlogP_VSA8>
75.473625

>  <SlogP_VSA9>
156.33803

>  <SMR>
21.46365

>  <SMR_VSA0>
104.58631

>  <SMR_VSA1>
72.55397

>  <SMR_VSA2>
30.555508

>  <SMR_VSA3>
31.989487

>  <SMR_VSA4>
7.4738488

>  <SMR_VSA5>
235.05867

>  <SMR_VSA6>
96.994705

>  <SMR_VSA7>
239.02684

>  <TPSA>
133.87

>  <VAdjEq>
0.23534729

>  <VAdjMa>
7.0660892

>  <VDistEq>
3.7491438

>  <VDistMa>
11.549516

>  <vdw_area>
771.40845

>  <vdw_vol>
1071.9153

>  <vsa_acc>
43.204517

>  <vsa_acid>
0

>  <vsa_base>
0

>  <vsa_don>
5.6825762

>  <vsa_hyd>
610.01605

>  <vsa_other>
51.636765

>  <vsa_pol>
62.454014

>  <Weight>
816.94299

>  <weinerPath>
11764

>  <weinerPol>
140

>  <zagreb>
352

$$$$