S(O)(=O)(=O)CCCNC(=O)C
  MOE2013           2D

 11 10  0  0  0  0  0  0  0  0999 V2000
    0.0000    0.0000    0.0000 S   0  0  0  0  0  0  0  0  0  0  0  0
   -1.2970   -0.7540    0.0000 O   0  0  0  0  0  0  0  0  0  0  0  0
    0.7540   -1.2970    0.0000 O   0  0  0  0  0  0  0  0  0  0  0  0
   -0.7540    1.2970    0.0000 O   0  0  0  0  0  0  0  0  0  0  0  0
    1.2970    0.7540    0.0000 C   0  0  0  0  0  0  0  0  0  0  0  0
    2.5980    0.0080    0.0000 C   0  0  0  0  0  0  0  0  0  0  0  0
    3.8950    0.7610    0.0000 C   0  0  0  0  0  0  0  0  0  0  0  0
    5.1960    0.0150    0.0000 N   0  0  0  0  0  0  0  0  0  0  0  0
    6.4930    0.7690    0.0000 C   0  0  0  0  0  0  0  0  0  0  0  0
    7.7940    0.0230    0.0000 O   0  0  0  0  0  0  0  0  0  0  0  0
    6.4890    2.2690    0.0000 C   0  0  0  0  0  0  0  0  0  0  0  0
  1  2  1  0  0  0  0
  1  3  2  0  0  0  0
  1  4  2  0  0  0  0
  1  5  1  0  0  0  0
  5  6  1  0  0  0  0
  6  7  1  0  0  0  0
  7  8  1  0  0  0  0
  8  9  1  0  0  0  0
  9 10  2  0  0  0  0
  9 11  1  0  0  0  0
M  END
>  <Index>
14

>  <ID>
HT0045

>  <class>
0

>  <apol>
23.342724

>  <ast_fraglike>
0

>  <ast_fraglike_ext>
0

>  <ast_violation>
2

>  <ast_violation_ext>
4

>  <a_acc>
4

>  <a_acid>
0

>  <a_aro>
0

>  <a_base>
0

>  <a_count>
22

>  <a_don>
4

>  <a_donacc>
8

>  <a_heavy>
11

>  <a_hyd>
4

>  <a_IC>
40.444107

>  <a_ICM>
1.8383685

>  <a_nB>
0

>  <a_nBr>
0

>  <a_nC>
5

>  <a_nCl>
0

>  <a_nF>
0

>  <a_nH>
11

>  <a_nI>
0

>  <a_nN>
1

>  <a_nO>
4

>  <a_nP>
0

>  <a_nS>
1

>  <balabanJ>
3.1602705

>  <BCUT_PEOE_0>
-2.5463779

>  <BCUT_PEOE_1>
-0.51943117

>  <BCUT_PEOE_2>
0.42832124

>  <BCUT_PEOE_3>
2.6350629

>  <BCUT_SLOGP_0>
-2.7014811

>  <BCUT_SLOGP_1>
-0.51717269

>  <BCUT_SLOGP_2>
0.37679681

>  <BCUT_SLOGP_3>
2.5216346

>  <BCUT_SMR_0>
-2.3133934

>  <BCUT_SMR_1>
-0.31615767

>  <BCUT_SMR_2>
0.56553024

>  <BCUT_SMR_3>
2.876627

>  <bpol>
20.119276

>  <b_1rotN>
4

>  <b_1rotR>
0.40000001

>  <b_ar>
0

>  <b_count>
21

>  <b_double>
1

>  <b_heavy>
10

>  <b_max1len>
7

>  <b_rotN>
5

>  <b_rotR>
0.5

>  <b_single>
20

>  <b_triple>
0

>  <chi0>
8.905777

>  <chi0v>
7.0180235

>  <chi0v_C>
3.6213202

>  <chi0_C>
3.6986706

>  <chi1>
4.916502

>  <chi1v>
4.7214255

>  <chi1v_C>
1.5

>  <chi1_C>
1.5773503

>  <chiral>
0

>  <chiral_u>
0

>  <density>
0.90395415

>  <diameter>
7

>  <FCharge>
0

>  <GCUT_PEOE_0>
-0.83897972

>  <GCUT_PEOE_1>
-0.38585833

>  <GCUT_PEOE_2>
0.071374342

>  <GCUT_PEOE_3>
2.2085493

>  <GCUT_SLOGP_0>
-1.1614364

>  <GCUT_SLOGP_1>
-0.47027972

>  <GCUT_SLOGP_2>
0.019147785

>  <GCUT_SLOGP_3>
2.1240454

>  <GCUT_SMR_0>
-0.51286775

>  <GCUT_SMR_1>
-0.17612906

>  <GCUT_SMR_2>
0.16029839

>  <GCUT_SMR_3>
2.4340396

>  <Kier1>
11

>  <Kier2>
4.7928996

>  <Kier3>
10

>  <KierA1>
11.096279

>  <KierA2>
4.8393798

>  <KierA3>
10.105366

>  <KierFlex>
4.8817372

>  <lip_acc>
5

>  <lip_don>
2

>  <lip_druglike>
1

>  <lip_violation>
0

>  <logP(o/w)>
-1.156

>  <logS>
0.00721

>  <mr>
4.0352664

>  <mutagenic>
0

>  <nmol>
1

>  <opr_brigid>
0

>  <opr_leadlike>
1

>  <opr_nring>
0

>  <opr_nrot>
4

>  <opr_violation>
0

>  <PC+>
0

>  <PC->
0

>  <PEOE_PC+>
1.3846132

>  <PEOE_PC->
-1.3846132

>  <PEOE_RPC+>
0.15735096

>  <PEOE_RPC->
0.25699094

>  <PEOE_VSA+0>
61.797703

>  <PEOE_VSA+1>
30.538269

>  <PEOE_VSA+2>
8.5307722

>  <PEOE_VSA+3>
8.6190128

>  <PEOE_VSA+4>
23.626905

>  <PEOE_VSA+5>
0

>  <PEOE_VSA+6>
0

>  <PEOE_VSA-0>
0

>  <PEOE_VSA-1>
0

>  <PEOE_VSA-2>
0

>  <PEOE_VSA-3>
0

>  <PEOE_VSA-4>
32.016521

>  <PEOE_VSA-5>
13.566921

>  <PEOE_VSA-6>
10.345772

>  <PEOE_VSA_FHYD>
0.57916141

>  <PEOE_VSA_FNEG>
0.29585621

>  <PEOE_VSA_FPNEG>
0.29585621

>  <PEOE_VSA_FPOL>
0.42083859

>  <PEOE_VSA_FPOS>
0.70414376

>  <PEOE_VSA_FPPOS>
0.12498239

>  <PEOE_VSA_HYD>
109.48576

>  <PEOE_VSA_NEG>
55.929214

>  <PEOE_VSA_PNEG>
55.929214

>  <PEOE_VSA_POL>
79.556122

>  <PEOE_VSA_POS>
133.11267

>  <PEOE_VSA_PPOS>
23.626905

>  <petitjean>
0.42857143

>  <petitjeanSC>
0.75

>  <Q_PC+>
0

>  <Q_PC->
0

>  <Q_RPC+>
0

>  <Q_RPC->
0

>  <Q_VSA_FHYD>
1

>  <Q_VSA_FNEG>
0

>  <Q_VSA_FPNEG>
0

>  <Q_VSA_FPOL>
0

>  <Q_VSA_FPOS>
1

>  <Q_VSA_FPPOS>
0

>  <Q_VSA_HYD>
189.04189

>  <Q_VSA_NEG>
0

>  <Q_VSA_PNEG>
0

>  <Q_VSA_POL>
0

>  <Q_VSA_POS>
189.04189

>  <Q_VSA_PPOS>
0

>  <radius>
4

>  <reactive>
0

>  <rings>
0

>  <RPC+>
0

>  <RPC->
0

>  <rsynth>
1

>  <SlogP>
-1.1653

>  <SlogP_VSA0>
40.941502

>  <SlogP_VSA1>
53.430473

>  <SlogP_VSA2>
32.445366

>  <SlogP_VSA3>
35.673141

>  <SlogP_VSA4>
0

>  <SlogP_VSA5>
0

>  <SlogP_VSA6>
0

>  <SlogP_VSA7>
0

>  <SlogP_VSA8>
18.868406

>  <SlogP_VSA9>
33.326015

>  <SMR>
3.93063

>  <SMR_VSA0>
72.033905

>  <SMR_VSA1>
22.930752

>  <SMR_VSA2>
18.01075

>  <SMR_VSA3>
0

>  <SMR_VSA4>
0

>  <SMR_VSA5>
18.868406

>  <SMR_VSA6>
40.931927

>  <SMR_VSA7>
41.909164

>  <TPSA>
83.470001

>  <VAdjEq>
0.64681429

>  <VAdjMa>
4.321928

>  <VDistEq>
2.7339838

>  <VDistMa>
6.5427256

>  <vdw_area>
189.04189

>  <vdw_vol>
200.46593

>  <vsa_acc>
13.566921

>  <vsa_acid>
0

>  <vsa_base>
0

>  <vsa_don>
5.6825762

>  <vsa_hyd>
83.30101

>  <vsa_other>
24.462315

>  <vsa_pol>
67.274284

>  <Weight>
181.21201

>  <weinerPath>
190

>  <weinerPol>
8

>  <zagreb>
46

$$$$