O(CCC)c1cc(N)ccc1C(OCCN(CC)CC)=O
  MOE2013           2D

 21 21  0  0  0  0  0  0  0  0999 V2000
    0.0000    0.0000    0.0000 O   0  0  0  0  0  0  0  0  0  0  0  0
   -1.2970   -0.7540    0.0000 C   0  0  0  0  0  0  0  0  0  0  0  0
   -1.2930   -2.2540    0.0000 C   0  0  0  0  0  0  0  0  0  0  0  0
   -2.5900   -3.0070    0.0000 C   0  0  0  0  0  0  0  0  0  0  0  0
   -0.0040    1.5000    0.0000 C   0  0  0  0  0  0  0  0  0  0  0  0
   -1.3050    2.2460    0.0000 C   0  0  0  0  0  0  0  0  0  0  0  0
   -1.3090    3.7460    0.0000 C   0  0  0  0  0  0  0  0  0  0  0  0
   -2.6100    4.4930    0.0000 N   0  0  0  0  0  0  0  0  0  0  0  0
   -0.0120    4.5000    0.0000 C   0  0  0  0  0  0  0  0  0  0  0  0
    1.2890    3.7540    0.0000 C   0  0  0  0  0  0  0  0  0  0  0  0
    1.2930    2.2540    0.0000 C   0  0  0  0  0  0  0  0  0  0  0  0
    2.5940    1.5070    0.0000 C   0  0  0  0  0  0  0  0  0  0  0  0
    3.8910    2.2610    0.0000 O   0  0  0  0  0  0  0  0  0  0  0  0
    5.1920    1.5140    0.0000 C   0  0  0  0  0  0  0  0  0  0  0  0
    6.4890    2.2680    0.0000 C   0  0  0  0  0  0  0  0  0  0  0  0
    7.7900    1.5210    0.0000 N   0  0  0  0  0  0  0  0  0  0  0  0
    9.0870    2.2750    0.0000 C   0  0  0  0  0  0  0  0  0  0  0  0
    9.0830    3.7750    0.0000 C   0  0  0  0  0  0  0  0  0  0  0  0
    7.7940    0.0210    0.0000 C   0  0  0  0  0  0  0  0  0  0  0  0
    9.0950   -0.7250    0.0000 C   0  0  0  0  0  0  0  0  0  0  0  0
    2.5980    0.0070    0.0000 O   0  0  0  0  0  0  0  0  0  0  0  0
  1  2  1  0  0  0  0
  1  5  1  0  0  0  0
  2  3  1  0  0  0  0
  3  4  1  0  0  0  0
  5  6  1  0  0  0  0
  5 11  2  0  0  0  0
  6  7  2  0  0  0  0
  7  8  1  0  0  0  0
  7  9  1  0  0  0  0
  9 10  2  0  0  0  0
 10 11  1  0  0  0  0
 11 12  1  0  0  0  0
 12 13  1  0  0  0  0
 12 21  2  0  0  0  0
 13 14  1  0  0  0  0
 14 15  1  0  0  0  0
 15 16  1  0  0  0  0
 16 17  1  0  0  0  0
 16 19  1  0  0  0  0
 17 18  1  0  0  0  0
 19 20  1  0  0  0  0
M  END
>  <Index>
1314

>  <ID>
HT3326

>  <class>
0

>  <apol>
50.102619

>  <ast_fraglike>
1

>  <ast_fraglike_ext>
0

>  <ast_violation>
0

>  <ast_violation_ext>
1

>  <a_acc>
3

>  <a_acid>
0

>  <a_aro>
6

>  <a_base>
0

>  <a_count>
47

>  <a_don>
1

>  <a_donacc>
4

>  <a_heavy>
21

>  <a_hyd>
15

>  <a_IC>
68.099358

>  <a_ICM>
1.4489225

>  <a_nB>
0

>  <a_nBr>
0

>  <a_nC>
16

>  <a_nCl>
0

>  <a_nF>
0

>  <a_nH>
26

>  <a_nI>
0

>  <a_nN>
2

>  <a_nO>
3

>  <a_nP>
0

>  <a_nS>
0

>  <balabanJ>
2.4007556

>  <BCUT_PEOE_0>
-2.6683664

>  <BCUT_PEOE_1>
-0.18296187

>  <BCUT_PEOE_2>
0.10190474

>  <BCUT_PEOE_3>
2.5714321

>  <BCUT_SLOGP_0>
-2.7461119

>  <BCUT_SLOGP_1>
-0.034963742

>  <BCUT_SLOGP_2>
0.24261266

>  <BCUT_SLOGP_3>
2.5424573

>  <BCUT_SMR_0>
-2.3931372

>  <BCUT_SMR_1>
0.069177993

>  <BCUT_SMR_2>
0.19865756

>  <BCUT_SMR_3>
2.8359523

>  <bpol>
34.533382

>  <b_1rotN>
9

>  <b_1rotR>
0.42857143

>  <b_ar>
6

>  <b_count>
47

>  <b_double>
1

>  <b_heavy>
21

>  <b_max1len>
6

>  <b_rotN>
10

>  <b_rotR>
0.47619048

>  <b_single>
40

>  <b_triple>
0

>  <chi0>
15.664926

>  <chi0v>
13.224

>  <chi0v_C>
10.974691

>  <chi0_C>
11.673362

>  <chi1>
10.116922

>  <chi1v>
7.5364351

>  <chi1v_C>
5.109354

>  <chi1_C>
5.92098

>  <chiral>
0

>  <chiral_u>
0

>  <density>
0.6874572

>  <diameter>
12

>  <FCharge>
0

>  <GCUT_PEOE_0>
-0.8558929

>  <GCUT_PEOE_1>
-0.35404104

>  <GCUT_PEOE_2>
-0.058095258

>  <GCUT_PEOE_3>
2.5193338

>  <GCUT_SLOGP_0>
-1.3343472

>  <GCUT_SLOGP_1>
-0.26081485

>  <GCUT_SLOGP_2>
0.049753185

>  <GCUT_SLOGP_3>
2.5642383

>  <GCUT_SMR_0>
-0.52388632

>  <GCUT_SMR_1>
-0.11050882

>  <GCUT_SMR_2>
-0.016938306

>  <GCUT_SMR_3>
2.767518

>  <Kier1>
19.047619

>  <Kier2>
10.680473

>  <Kier3>
6.7429762

>  <KierA1>
15.744579

>  <KierA2>
8.7387896

>  <KierA3>
5.4740343

>  <KierFlex>
6.5518365

>  <lip_acc>
5

>  <lip_don>
2

>  <lip_druglike>
1

>  <lip_violation>
0

>  <logP(o/w)>
2.6800001

>  <logS>
-2.6191599

>  <mr>
8.4618139

>  <mutagenic>
1

>  <nmol>
1

>  <opr_brigid>
6

>  <opr_leadlike>
1

>  <opr_nring>
1

>  <opr_nrot>
9

>  <opr_violation>
0

>  <PC+>
0

>  <PC->
0

>  <PEOE_PC+>
1.8248116

>  <PEOE_PC->
-1.8248116

>  <PEOE_RPC+>
0.16240259

>  <PEOE_RPC->
0.18844295

>  <PEOE_VSA+0>
92.403435

>  <PEOE_VSA+1>
70.427345

>  <PEOE_VSA+2>
17.238026

>  <PEOE_VSA+3>
0

>  <PEOE_VSA+4>
0

>  <PEOE_VSA+5>
14.708499

>  <PEOE_VSA+6>
0

>  <PEOE_VSA-0>
71.850677

>  <PEOE_VSA-1>
56.243034

>  <PEOE_VSA-2>
0

>  <PEOE_VSA-3>
0

>  <PEOE_VSA-4>
0

>  <PEOE_VSA-5>
13.566921

>  <PEOE_VSA-6>
11.658631

>  <PEOE_VSA_FHYD>
0.88527882

>  <PEOE_VSA_FNEG>
0.44045037

>  <PEOE_VSA_FPNEG>
0.072467111

>  <PEOE_VSA_FPOL>
0.11472119

>  <PEOE_VSA_FPOS>
0.55954963

>  <PEOE_VSA_FPPOS>
0.042254075

>  <PEOE_VSA_HYD>
308.16251

>  <PEOE_VSA_NEG>
153.31926

>  <PEOE_VSA_PNEG>
25.225552

>  <PEOE_VSA_POL>
39.934052

>  <PEOE_VSA_POS>
194.77731

>  <PEOE_VSA_PPOS>
14.708499

>  <petitjean>
0.5

>  <petitjeanSC>
1

>  <Q_PC+>
0

>  <Q_PC->
0

>  <Q_RPC+>
0

>  <Q_RPC->
0

>  <Q_VSA_FHYD>
1

>  <Q_VSA_FNEG>
0

>  <Q_VSA_FPNEG>
0

>  <Q_VSA_FPOL>
0

>  <Q_VSA_FPOS>
1

>  <Q_VSA_FPPOS>
0

>  <Q_VSA_HYD>
348.09656

>  <Q_VSA_NEG>
0

>  <Q_VSA_PNEG>
0

>  <Q_VSA_POL>
0

>  <Q_VSA_POS>
348.09656

>  <Q_VSA_PPOS>
0

>  <radius>
6

>  <reactive>
0

>  <rings>
1

>  <RPC+>
0

>  <RPC->
0

>  <rsynth>
1

>  <SlogP>
2.5562

>  <SlogP_VSA0>
43.897076

>  <SlogP_VSA1>
10.869778

>  <SlogP_VSA2>
10.999887

>  <SlogP_VSA3>
97.171249

>  <SlogP_VSA4>
27.047791

>  <SlogP_VSA5>
0

>  <SlogP_VSA6>
0

>  <SlogP_VSA7>
52.929554

>  <SlogP_VSA8>
18.868406

>  <SlogP_VSA9>
107.97822

>  <SMR>
8.4710903

>  <SMR_VSA0>
34.862103

>  <SMR_VSA1>
14.124202

>  <SMR_VSA2>
0

>  <SMR_VSA3>
8.4290028

>  <SMR_VSA4>
2.7567475

>  <SMR_VSA5>
104.69514

>  <SMR_VSA6>
104.91672

>  <SMR_VSA7>
99.978043

>  <TPSA>
64.790001

>  <VAdjEq>
0.45371634

>  <VAdjMa>
5.3923173

>  <VDistEq>
3.3957899

>  <VDistMa>
8.477211

>  <vdw_area>
348.09656

>  <vdw_vol>
428.23758

>  <vsa_acc>
16.070677

>  <vsa_acid>
0

>  <vsa_base>
0

>  <vsa_don>
17.742489

>  <vsa_hyd>
273.8414

>  <vsa_other>
17.212255

>  <vsa_pol>
33.813168

>  <Weight>
294.39499

>  <weinerPath>
1058

>  <weinerPol>
28

>  <zagreb>
94

$$$$