OC(=O)CCCNC(=O)[C@H](O)C(CO)(C)C
  MOE2013           2D

 16 15  0  0  1  0  0  0  0  0999 V2000
    0.0000    0.0000    0.0000 O   0  0  0  0  0  0  0  0  0  0  0  0
   -0.7510    1.2980    0.0000 C   0  0  0  0  0  0  0  0  0  0  0  0
   -0.0020    2.5980    0.0000 O   0  0  0  0  0  0  0  0  0  0  0  0
   -2.2510    1.2970    0.0000 C   0  0  0  0  0  0  0  0  0  0  0  0
   -3.0000   -0.0020    0.0000 C   0  0  0  0  0  0  0  0  0  0  0  0
   -4.5000   -0.0040    0.0000 C   0  0  0  0  0  0  0  0  0  0  0  0
   -5.2490   -1.3030    0.0000 N   0  0  0  0  0  0  0  0  0  0  0  0
   -6.7490   -1.3050    0.0000 C   0  0  0  0  0  0  0  0  0  0  0  0
   -7.5000   -0.0060    0.0000 O   0  0  0  0  0  0  0  0  0  0  0  0
   -7.4980   -2.6040    0.0000 C   0  0  2  0  0  0  0  0  0  0  0  0
   -6.7470   -3.9030    0.0000 O   0  0  0  0  0  0  0  0  0  0  0  0
   -8.9980   -2.6060    0.0000 C   0  0  0  0  0  0  0  0  0  0  0  0
   -8.9970   -4.1060    0.0000 C   0  0  0  0  0  0  0  0  0  0  0  0
  -10.2950   -4.8570    0.0000 O   0  0  0  0  0  0  0  0  0  0  0  0
   -8.9990   -1.1060    0.0000 C   0  0  0  0  0  0  0  0  0  0  0  0
  -10.4980   -2.6070    0.0000 C   0  0  0  0  0  0  0  0  0  0  0  0
  1  2  1  0  0  0  0
  2  3  2  0  0  0  0
  2  4  1  0  0  0  0
  4  5  1  0  0  0  0
  5  6  1  0  0  0  0
  6  7  1  0  0  0  0
  7  8  1  0  0  0  0
  8  9  2  0  0  0  0
  8 10  1  0  0  0  0
 10 11  1  6  0  0  0
 10 12  1  0  0  0  0
 12 13  1  0  0  0  0
 12 15  1  0  0  0  0
 12 16  1  0  0  0  0
 13 14  1  0  0  0  0
M  END
>  <Index>
182

>  <ID>
HT0355

>  <class>
0

>  <apol>
35.379066

>  <ast_fraglike>
0

>  <ast_fraglike_ext>
0

>  <ast_violation>
2

>  <ast_violation_ext>
4

>  <a_acc>
5

>  <a_acid>
0

>  <a_aro>
0

>  <a_base>
0

>  <a_count>
35

>  <a_don>
5

>  <a_donacc>
10

>  <a_heavy>
16

>  <a_hyd>
8

>  <a_IC>
53.985363

>  <a_ICM>
1.5424389

>  <a_nB>
0

>  <a_nBr>
0

>  <a_nC>
10

>  <a_nCl>
0

>  <a_nF>
0

>  <a_nH>
19

>  <a_nI>
0

>  <a_nN>
1

>  <a_nO>
5

>  <a_nP>
0

>  <a_nS>
0

>  <balabanJ>
3.8453374

>  <BCUT_PEOE_0>
-2.6812255

>  <BCUT_PEOE_1>
-0.50291115

>  <BCUT_PEOE_2>
0.43314359

>  <BCUT_PEOE_3>
2.7053528

>  <BCUT_SLOGP_0>
-2.7843077

>  <BCUT_SLOGP_1>
-0.48217776

>  <BCUT_SLOGP_2>
0.37752941

>  <BCUT_SLOGP_3>
2.6703415

>  <BCUT_SMR_0>
-2.4555237

>  <BCUT_SMR_1>
-0.29849467

>  <BCUT_SMR_2>
0.56384915

>  <BCUT_SMR_3>
2.9257741

>  <bpol>
23.346933

>  <b_1rotN>
7

>  <b_1rotR>
0.46666667

>  <b_ar>
0

>  <b_count>
34

>  <b_double>
2

>  <b_heavy>
15

>  <b_max1len>
6

>  <b_rotN>
8

>  <b_rotR>
0.53333336

>  <b_single>
32

>  <b_triple>
0

>  <chi0>
12.767585

>  <chi0v>
9.5639143

>  <chi0v_C>
6.9057775

>  <chi0_C>
7.0604777

>  <chi1>
7.3085661

>  <chi1v>
5.0942922

>  <chi1v_C>
3.284457

>  <chi1_C>
3.38381

>  <chiral>
1

>  <chiral_u>
0

>  <density>
0.7713775

>  <diameter>
10

>  <FCharge>
0

>  <GCUT_PEOE_0>
-0.83956522

>  <GCUT_PEOE_1>
-0.41430014

>  <GCUT_PEOE_2>
0.076778561

>  <GCUT_PEOE_3>
2.5280514

>  <GCUT_SLOGP_0>
-1.1627839

>  <GCUT_SLOGP_1>
-0.42659852

>  <GCUT_SLOGP_2>
-0.0026935772

>  <GCUT_SLOGP_3>
2.478905

>  <GCUT_SMR_0>
-0.53112745

>  <GCUT_SMR_1>
-0.23324142

>  <GCUT_SMR_2>
0.181238

>  <GCUT_SMR_3>
2.7361238

>  <Kier1>
16

>  <Kier2>
7.3499999

>  <Kier3>
6.3699999

>  <KierA1>
13.706519

>  <KierA2>
6.2267952

>  <KierA3>
5.3516307

>  <KierFlex>
5.3342309

>  <lip_acc>
6

>  <lip_don>
4

>  <lip_druglike>
1

>  <lip_violation>
0

>  <logP(o/w)>
-0.616

>  <logS>
-0.04287

>  <mr>
5.7890372

>  <mutagenic>
0

>  <nmol>
1

>  <opr_brigid>
0

>  <opr_leadlike>
1

>  <opr_nring>
0

>  <opr_nrot>
7

>  <opr_violation>
0

>  <PC+>
0

>  <PC->
0

>  <PEOE_PC+>
2.133013

>  <PEOE_PC->
-2.133013

>  <PEOE_RPC+>
0.121727

>  <PEOE_RPC->
0.18489327

>  <PEOE_VSA+0>
73.07827

>  <PEOE_VSA+1>
27.747452

>  <PEOE_VSA+2>
4.9049287

>  <PEOE_VSA+3>
8.6190128

>  <PEOE_VSA+4>
30.972517

>  <PEOE_VSA+5>
27.65803

>  <PEOE_VSA+6>
0

>  <PEOE_VSA-0>
8.701313

>  <PEOE_VSA-1>
37.495354

>  <PEOE_VSA-2>
0

>  <PEOE_VSA-3>
0

>  <PEOE_VSA-4>
0

>  <PEOE_VSA-5>
27.133842

>  <PEOE_VSA-6>
23.439512

>  <PEOE_VSA_FHYD>
0.59516662

>  <PEOE_VSA_FNEG>
0.35873935

>  <PEOE_VSA_FPNEG>
0.18748215

>  <PEOE_VSA_FPOL>
0.40483341

>  <PEOE_VSA_FPOS>
0.64126068

>  <PEOE_VSA_FPPOS>
0.21735124

>  <PEOE_VSA_HYD>
160.54633

>  <PEOE_VSA_NEG>
96.77002

>  <PEOE_VSA_PNEG>
50.573353

>  <PEOE_VSA_POL>
109.2039

>  <PEOE_VSA_POS>
172.98021

>  <PEOE_VSA_PPOS>
58.630547

>  <petitjean>
0.5

>  <petitjeanSC>
1

>  <Q_PC+>
0

>  <Q_PC->
0

>  <Q_RPC+>
0

>  <Q_RPC->
0

>  <Q_VSA_FHYD>
1

>  <Q_VSA_FNEG>
0

>  <Q_VSA_FPNEG>
0

>  <Q_VSA_FPOL>
0

>  <Q_VSA_FPOS>
1

>  <Q_VSA_FPPOS>
0

>  <Q_VSA_HYD>
269.75024

>  <Q_VSA_NEG>
0

>  <Q_VSA_PNEG>
0

>  <Q_VSA_POL>
0

>  <Q_VSA_POS>
269.75024

>  <Q_VSA_PPOS>
0

>  <radius>
5

>  <reactive>
0

>  <rings>
0

>  <RPC+>
0

>  <RPC->
0

>  <rsynth>
1

>  <SlogP>
-0.65319997

>  <SlogP_VSA0>
68.781204

>  <SlogP_VSA1>
13.004248

>  <SlogP_VSA2>
54.193081

>  <SlogP_VSA3>
64.75106

>  <SlogP_VSA4>
0

>  <SlogP_VSA5>
0

>  <SlogP_VSA6>
0

>  <SlogP_VSA7>
0

>  <SlogP_VSA8>
37.736813

>  <SlogP_VSA9>
66.652031

>  <SMR>
5.6753101

>  <SMR_VSA0>
47.724434

>  <SMR_VSA1>
50.770454

>  <SMR_VSA2>
43.395977

>  <SMR_VSA3>
6.4686494

>  <SMR_VSA4>
0

>  <SMR_VSA5>
37.736813

>  <SMR_VSA6>
52.370083

>  <SMR_VSA7>
66.652031

>  <TPSA>
106.86

>  <VAdjEq>
0.521222

>  <VAdjMa>
4.9068904

>  <VDistEq>
3.1519732

>  <VDistMa>
7.6620607

>  <vdw_area>
269.75024

>  <vdw_vol>
302.39926

>  <vsa_acc>
13.566921

>  <vsa_acid>
0

>  <vsa_base>
0

>  <vsa_don>
5.6825762

>  <vsa_hyd>
141.25038

>  <vsa_other>
27.65803

>  <vsa_pol>
73.517181

>  <Weight>
233.26399

>  <weinerPath>
516

>  <weinerPol>
20

>  <zagreb>
70

$$$$