S1C(C)(C)C(NC1C(NC(=O)Cc1ccccc1)C(=O)NCCCCC(N)C(O)=O)C(O)=O
  MOE2013           2D

 33 34  0  0  1  0  0  0  0  0999 V2000
    0.0000    0.0000    0.0000 S   0  0  0  0  0  0  0  0  0  0  0  0
   -0.0170   -1.5000    0.0000 C   0  0  0  0  0  0  0  0  0  0  0  0
    1.4740   -1.6670    0.0000 C   0  0  0  0  0  0  0  0  0  0  0  0
    0.5240   -2.8990    0.0000 C   0  0  0  0  0  0  0  0  0  0  0  0
   -1.4480   -1.9470    0.0000 C   0  0  3  0  0  0  0  0  0  0  0  0
   -2.3160   -0.7240    0.0000 N   0  0  0  0  0  0  0  0  0  0  0  0
   -1.4210    0.4790    0.0000 C   0  0  3  0  0  0  0  0  0  0  0  0
   -1.8690    1.9110    0.0000 C   0  0  3  0  0  0  0  0  0  0  0  0
   -3.3330    2.2390    0.0000 N   0  0  0  0  0  0  0  0  0  0  0  0
   -3.7800    3.6710    0.0000 C   0  0  0  0  0  0  0  0  0  0  0  0
   -2.7640    4.7740    0.0000 O   0  0  0  0  0  0  0  0  0  0  0  0
   -5.2440    3.9990    0.0000 C   0  0  0  0  0  0  0  0  0  0  0  0
   -5.6910    5.4310    0.0000 C   0  0  0  0  0  0  0  0  0  0  0  0
   -7.1550    5.7590    0.0000 C   0  0  0  0  0  0  0  0  0  0  0  0
   -7.6030    7.1910    0.0000 C   0  0  0  0  0  0  0  0  0  0  0  0
   -6.5870    8.2940    0.0000 C   0  0  0  0  0  0  0  0  0  0  0  0
   -5.1230    7.9660    0.0000 C   0  0  0  0  0  0  0  0  0  0  0  0
   -4.6750    6.5340    0.0000 C   0  0  0  0  0  0  0  0  0  0  0  0
   -0.8530    3.0150    0.0000 C   0  0  0  0  0  0  0  0  0  0  0  0
   -1.3000    4.4460    0.0000 O   0  0  0  0  0  0  0  0  0  0  0  0
    0.6110    2.6860    0.0000 N   0  0  0  0  0  0  0  0  0  0  0  0
    1.6270    3.7900    0.0000 C   0  0  0  0  0  0  0  0  0  0  0  0
    3.0910    3.4620    0.0000 C   0  0  0  0  0  0  0  0  0  0  0  0
    4.1070    4.5650    0.0000 C   0  0  0  0  0  0  0  0  0  0  0  0
    5.5700    4.2370    0.0000 C   0  0  0  0  0  0  0  0  0  0  0  0
    6.5860    5.3400    0.0000 C   0  0  3  0  0  0  0  0  0  0  0  0
    6.1390    6.7720    0.0000 N   0  0  0  0  0  0  0  0  0  0  0  0
    8.0500    5.0120    0.0000 C   0  0  0  0  0  0  0  0  0  0  0  0
    9.0660    6.1150    0.0000 O   0  0  0  0  0  0  0  0  0  0  0  0
    8.4980    3.5800    0.0000 O   0  0  0  0  0  0  0  0  0  0  0  0
   -1.9280   -3.3690    0.0000 C   0  0  0  0  0  0  0  0  0  0  0  0
   -0.9370   -4.4950    0.0000 O   0  0  0  0  0  0  0  0  0  0  0  0
   -3.3980   -3.6640    0.0000 O   0  0  0  0  0  0  0  0  0  0  0  0
  1  2  1  0  0  0  0
  1  7  1  0  0  0  0
  2  3  1  0  0  0  0
  2  4  1  0  0  0  0
  2  5  1  0  0  0  0
  5  6  1  0  0  0  0
  5 31  1  0  0  0  0
  6  7  1  0  0  0  0
  7  8  1  0  0  0  0
  8  9  1  0  0  0  0
  8 19  1  0  0  0  0
  9 10  1  0  0  0  0
 10 11  2  0  0  0  0
 10 12  1  0  0  0  0
 12 13  1  0  0  0  0
 13 14  1  0  0  0  0
 13 18  2  0  0  0  0
 14 15  2  0  0  0  0
 15 16  1  0  0  0  0
 16 17  2  0  0  0  0
 17 18  1  0  0  0  0
 19 20  2  0  0  0  0
 19 21  1  0  0  0  0
 21 22  1  0  0  0  0
 22 23  1  0  0  0  0
 23 24  1  0  0  0  0
 24 25  1  0  0  0  0
 25 26  1  0  0  0  0
 26 27  1  0  0  0  0
 26 28  1  0  0  0  0
 28 29  1  0  0  0  0
 28 30  2  0  0  0  0
 31 32  1  0  0  0  0
 31 33  2  0  0  0  0
M  END
>  <Index>
129

>  <ID>
HT0261

>  <class>
0

>  <apol>
72.169373

>  <ast_fraglike>
0

>  <ast_fraglike_ext>
0

>  <ast_violation>
3

>  <ast_violation_ext>
5

>  <a_acc>
8

>  <a_acid>
0

>  <a_aro>
6

>  <a_base>
0

>  <a_count>
65

>  <a_don>
8

>  <a_donacc>
16

>  <a_heavy>
33

>  <a_hyd>
19

>  <a_IC>
109.83664

>  <a_ICM>
1.6897944

>  <a_nB>
0

>  <a_nBr>
0

>  <a_nC>
22

>  <a_nCl>
0

>  <a_nF>
0

>  <a_nH>
32

>  <a_nI>
0

>  <a_nN>
4

>  <a_nO>
6

>  <a_nP>
0

>  <a_nS>
1

>  <balabanJ>
1.943083

>  <BCUT_PEOE_0>
-2.6559389

>  <BCUT_PEOE_1>
-0.53176218

>  <BCUT_PEOE_2>
0.55508143

>  <BCUT_PEOE_3>
2.770921

>  <BCUT_SLOGP_0>
-2.8526151

>  <BCUT_SLOGP_1>
-0.52130103

>  <BCUT_SLOGP_2>
0.62042409

>  <BCUT_SLOGP_3>
2.7049859

>  <BCUT_SMR_0>
-2.4054623

>  <BCUT_SMR_1>
-0.36859086

>  <BCUT_SMR_2>
0.69103199

>  <BCUT_SMR_3>
3.0616336

>  <bpol>
42.414623

>  <b_1rotN>
12

>  <b_1rotR>
0.35294119

>  <b_ar>
6

>  <b_count>
66

>  <b_double>
4

>  <b_heavy>
34

>  <b_max1len>
8

>  <b_rotN>
14

>  <b_rotR>
0.41176471

>  <b_single>
56

>  <b_triple>
0

>  <chi0>
24.595648

>  <chi0v>
19.561201

>  <chi0v_C>
13.731687

>  <chi0_C>
14.76722

>  <chi1>
15.507745

>  <chi1v>
11.650174

>  <chi1v_C>
7.0140724

>  <chi1_C>
8.16325

>  <chiral>
4

>  <chiral_u>
4

>  <density>
0.7833308

>  <diameter>
16

>  <FCharge>
0

>  <GCUT_PEOE_0>
-0.8417446

>  <GCUT_PEOE_1>
-0.41392791

>  <GCUT_PEOE_2>
0.07581538

>  <GCUT_PEOE_3>
2.8590403

>  <GCUT_SLOGP_0>
-1.363521

>  <GCUT_SLOGP_1>
-0.39159557

>  <GCUT_SLOGP_2>
0.12767638

>  <GCUT_SLOGP_3>
2.8058312

>  <GCUT_SMR_0>
-0.52738178

>  <GCUT_SMR_1>
-0.22688155

>  <GCUT_SMR_2>
0.18577787

>  <GCUT_SMR_3>
3.1156914

>  <Kier1>
29.231834

>  <Kier2>
13.921231

>  <Kier3>
9.5206614

>  <KierA1>
24.567261

>  <KierA2>
11.633063

>  <KierA3>
7.9227476

>  <KierFlex>
8.6603794

>  <lip_acc>
10

>  <lip_don>
7

>  <lip_druglike>
1

>  <lip_violation>
1

>  <logP(o/w)>
-0.97373003

>  <logS>
-3.4962101

>  <mr>
12.575179

>  <mutagenic>
0

>  <nmol>
1

>  <opr_brigid>
11

>  <opr_leadlike>
0

>  <opr_nring>
2

>  <opr_nrot>
13

>  <opr_violation>
4

>  <PC+>
0

>  <PC->
0

>  <PEOE_PC+>
3.7182918

>  <PEOE_PC->
-3.7182918

>  <PEOE_RPC+>
0.07479874

>  <PEOE_RPC->
0.095255479

>  <PEOE_VSA+0>
81.438499

>  <PEOE_VSA+1>
55.357769

>  <PEOE_VSA+2>
32.14896

>  <PEOE_VSA+3>
17.238026

>  <PEOE_VSA+4>
46.547409

>  <PEOE_VSA+5>
29.416998

>  <PEOE_VSA+6>
0

>  <PEOE_VSA-0>
65.807831

>  <PEOE_VSA-1>
61.274521

>  <PEOE_VSA-2>
19.760618

>  <PEOE_VSA-3>
0

>  <PEOE_VSA-4>
0

>  <PEOE_VSA-5>
54.404575

>  <PEOE_VSA-6>
22.459982

>  <PEOE_VSA_FHYD>
0.6854434

>  <PEOE_VSA_FNEG>
0.46044075

>  <PEOE_VSA_FPNEG>
0.15820466

>  <PEOE_VSA_FPOL>
0.3145566

>  <PEOE_VSA_FPOS>
0.53955925

>  <PEOE_VSA_FPPOS>
0.15635195

>  <PEOE_VSA_HYD>
333.02621

>  <PEOE_VSA_NEG>
223.70753

>  <PEOE_VSA_PNEG>
76.864555

>  <PEOE_VSA_POL>
152.82896

>  <PEOE_VSA_POS>
262.14767

>  <PEOE_VSA_PPOS>
75.964409

>  <petitjean>
0.5

>  <petitjeanSC>
1

>  <Q_PC+>
0

>  <Q_PC->
0

>  <Q_RPC+>
0

>  <Q_RPC->
0

>  <Q_VSA_FHYD>
1

>  <Q_VSA_FNEG>
0

>  <Q_VSA_FPNEG>
0

>  <Q_VSA_FPOL>
0

>  <Q_VSA_FPOS>
1

>  <Q_VSA_FPPOS>
0

>  <Q_VSA_HYD>
485.85519

>  <Q_VSA_NEG>
0

>  <Q_VSA_PNEG>
0

>  <Q_VSA_POL>
0

>  <Q_VSA_POS>
485.85519

>  <Q_VSA_PPOS>
0

>  <radius>
8

>  <reactive>
1

>  <rings>
2

>  <RPC+>
0

>  <RPC->
0

>  <rsynth>
1

>  <SlogP>
0.30656999

>  <SlogP_VSA0>
86.929436

>  <SlogP_VSA1>
26.008495

>  <SlogP_VSA2>
109.7419

>  <SlogP_VSA3>
69.21003

>  <SlogP_VSA4>
3.185575

>  <SlogP_VSA5>
18.868406

>  <SlogP_VSA6>
0

>  <SlogP_VSA7>
88.215919

>  <SlogP_VSA8>
56.605217

>  <SlogP_VSA9>
98.871574

>  <SMR>
12.45671

>  <SMR_VSA0>
95.448868

>  <SMR_VSA1>
0

>  <SMR_VSA2>
104.8027

>  <SMR_VSA3>
17.478609

>  <SMR_VSA4>
32.897186

>  <SMR_VSA5>
163.68954

>  <SMR_VSA6>
44.448074

>  <SMR_VSA7>
98.871574

>  <TPSA>
170.85001

>  <VAdjEq>
0.33706582

>  <VAdjMa>
6.0874629

>  <VDistEq>
3.8063865

>  <VDistMa>
9.8096743

>  <vdw_area>
485.85519

>  <vdw_vol>
613.51605

>  <vsa_acc>
27.133842

>  <vsa_acid>
0

>  <vsa_base>
0

>  <vsa_don>
11.365152

>  <vsa_hyd>
272.13629

>  <vsa_other>
55.316059

>  <vsa_pol>
116.19174

>  <Weight>
480.586

>  <weinerPath>
3559

>  <weinerPol>
47

>  <zagreb>
162

$$$$