OC1(CCC2C3C(C4(C(=CC(=O)C=C4)CC3)C)C(O)CC12C)C(=O)C
  MOE2013           2D

 25 28  0  0  1  0  0  0  0  0999 V2000
    0.0000    0.0000    0.0000 O   0  0  0  0  0  0  0  0  0  0  0  0
    0.7190   -1.3160    0.0000 C   0  0  3  0  0  0  0  0  0  0  0  0
    0.8140   -2.8130    0.0000 C   0  0  0  0  0  0  0  0  0  0  0  0
    2.2680   -3.1850    0.0000 C   0  0  0  0  0  0  0  0  0  0  0  0
    3.0700   -1.9180    0.0000 C   0  0  3  0  0  0  0  0  0  0  0  0
    4.5490   -1.6670    0.0000 C   0  0  3  0  0  0  0  0  0  0  0  0
    5.0710   -0.2600    0.0000 C   0  0  3  0  0  0  0  0  0  0  0  0
    6.5500   -0.0090    0.0000 C   0  0  3  0  0  0  0  0  0  0  0  0
    7.5070   -1.1640    0.0000 C   0  0  0  0  0  0  0  0  0  0  0  0
    8.9860   -0.9130    0.0000 C   0  0  0  0  0  0  0  0  0  0  0  0
    9.5070    0.4930    0.0000 C   0  0  0  0  0  0  0  0  0  0  0  0
   10.9860    0.7450    0.0000 O   0  0  0  0  0  0  0  0  0  0  0  0
    8.5500    1.6480    0.0000 C   0  0  0  0  0  0  0  0  0  0  0  0
    7.0710    1.3970    0.0000 C   0  0  0  0  0  0  0  0  0  0  0  0
    6.9850   -2.5710    0.0000 C   0  0  0  0  0  0  0  0  0  0  0  0
    5.5060   -2.8220    0.0000 C   0  0  0  0  0  0  0  0  0  0  0  0
    5.5930    1.1460    0.0000 C   0  0  0  0  0  0  0  0  0  0  0  0
    4.1140    0.8950    0.0000 C   0  0  3  0  0  0  0  0  0  0  0  0
    4.6360    2.3010    0.0000 O   0  0  0  0  0  0  0  0  0  0  0  0
    2.6350    0.6430    0.0000 C   0  0  0  0  0  0  0  0  0  0  0  0
    2.1130   -0.7630    0.0000 C   0  0  3  0  0  0  0  0  0  0  0  0
    1.0590    0.3040    0.0000 C   0  0  0  0  0  0  0  0  0  0  0  0
   -0.7810   -1.3330    0.0000 C   0  0  0  0  0  0  0  0  0  0  0  0
   -1.5450   -0.0430    0.0000 O   0  0  0  0  0  0  0  0  0  0  0  0
   -1.5160   -2.6410    0.0000 C   0  0  0  0  0  0  0  0  0  0  0  0
  1  2  1  0  0  0  0
  2  3  1  0  0  0  0
  2 21  1  0  0  0  0
  2 23  1  0  0  0  0
  3  4  1  0  0  0  0
  4  5  1  0  0  0  0
  5  6  1  0  0  0  0
  5 21  1  0  0  0  0
  6  7  1  0  0  0  0
  6 16  1  0  0  0  0
  7  8  1  0  0  0  0
  7 18  1  0  0  0  0
  8  9  1  0  0  0  0
  8 14  1  0  0  0  0
  8 17  1  0  0  0  0
  9 10  2  0  0  0  0
  9 15  1  0  0  0  0
 10 11  1  0  0  0  0
 11 12  2  0  0  0  0
 11 13  1  0  0  0  0
 13 14  2  0  0  0  0
 15 16  1  0  0  0  0
 18 19  1  0  0  0  0
 18 20  1  0  0  0  0
 20 21  1  0  0  0  0
 21 22  1  0  0  0  0
 23 24  2  0  0  0  0
 23 25  1  0  0  0  0
M  END
>  <Index>
1348

>  <ID>
HT3578

>  <class>
0

>  <apol>
58.838203

>  <ast_fraglike>
0

>  <ast_fraglike_ext>
0

>  <ast_violation>
2

>  <ast_violation_ext>
2

>  <a_acc>
4

>  <a_acid>
0

>  <a_aro>
0

>  <a_base>
0

>  <a_count>
53

>  <a_don>
2

>  <a_donacc>
6

>  <a_heavy>
25

>  <a_hyd>
19

>  <a_IC>
68.735184

>  <a_ICM>
1.2968901

>  <a_nB>
0

>  <a_nBr>
0

>  <a_nC>
21

>  <a_nCl>
0

>  <a_nF>
0

>  <a_nH>
28

>  <a_nI>
0

>  <a_nN>
0

>  <a_nO>
4

>  <a_nP>
0

>  <a_nS>
0

>  <balabanJ>
1.6900121

>  <BCUT_PEOE_0>
-2.9212952

>  <BCUT_PEOE_1>
-0.49440911

>  <BCUT_PEOE_2>
0.48917103

>  <BCUT_PEOE_3>
2.9735596

>  <BCUT_SLOGP_0>
-2.8974595

>  <BCUT_SLOGP_1>
-0.44265455

>  <BCUT_SLOGP_2>
0.48506302

>  <BCUT_SLOGP_3>
3.0061741

>  <BCUT_SMR_0>
-2.6753292

>  <BCUT_SMR_1>
-0.33735082

>  <BCUT_SMR_2>
0.62786078

>  <BCUT_SMR_3>
3.2146418

>  <bpol>
32.525795

>  <b_1rotN>
1

>  <b_1rotR>
0.035714287

>  <b_ar>
0

>  <b_count>
56

>  <b_double>
4

>  <b_heavy>
28

>  <b_max1len>
5

>  <b_rotN>
1

>  <b_rotR>
0.035714287

>  <b_single>
52

>  <b_triple>
0

>  <chi0>
18.198307

>  <chi0v>
15.28791

>  <chi0v_C>
13.576985

>  <chi0_C>
14.198306

>  <chi1>
11.6325

>  <chi1v>
9.4908428

>  <chi1v_C>
8.6007891

>  <chi1_C>
9.4004488

>  <chiral>
7

>  <chiral_u>
7

>  <density>
0.71921974

>  <diameter>
11

>  <FCharge>
0

>  <GCUT_PEOE_0>
-0.8005473

>  <GCUT_PEOE_1>
-0.37789449

>  <GCUT_PEOE_2>
0.019792093

>  <GCUT_PEOE_3>
3.306067

>  <GCUT_SLOGP_0>
-0.92427963

>  <GCUT_SLOGP_1>
-0.33456531

>  <GCUT_SLOGP_2>
0.0011761473

>  <GCUT_SLOGP_3>
3.3526497

>  <GCUT_SMR_0>
-0.53692639

>  <GCUT_SMR_1>
-0.21565452

>  <GCUT_SMR_2>
0.14360303

>  <GCUT_SMR_3>
3.5317712

>  <Kier1>
18.367348

>  <Kier2>
5.7473969

>  <Kier3>
2.3043046

>  <KierA1>
15.945212

>  <KierA2>
4.9585528

>  <KierA3>
1.9787928

>  <KierFlex>
3.162607

>  <lip_acc>
4

>  <lip_don>
2

>  <lip_druglike>
1

>  <lip_violation>
0

>  <logP(o/w)>
2.598

>  <logS>
-3.5668001

>  <mr>
9.4094448

>  <mutagenic>
0

>  <nmol>
1

>  <opr_brigid>
20

>  <opr_leadlike>
1

>  <opr_nring>
4

>  <opr_nrot>
1

>  <opr_violation>
0

>  <PC+>
0

>  <PC->
0

>  <PEOE_PC+>
1.8416095

>  <PEOE_PC->
-1.8416095

>  <PEOE_RPC+>
0.11444414

>  <PEOE_RPC->
0.21255614

>  <PEOE_VSA+0>
93.838493

>  <PEOE_VSA+1>
21.966473

>  <PEOE_VSA+2>
0

>  <PEOE_VSA+3>
16.917038

>  <PEOE_VSA+4>
20.648346

>  <PEOE_VSA+5>
0

>  <PEOE_VSA+6>
0

>  <PEOE_VSA-0>
86.764053

>  <PEOE_VSA-1>
51.958797

>  <PEOE_VSA-2>
0

>  <PEOE_VSA-3>
0

>  <PEOE_VSA-4>
0

>  <PEOE_VSA-5>
27.133842

>  <PEOE_VSA-6>
15.535081

>  <PEOE_VSA_FHYD>
0.81085891

>  <PEOE_VSA_FNEG>
0.54185271

>  <PEOE_VSA_FPNEG>
0.12746042

>  <PEOE_VSA_FPOL>
0.18914108

>  <PEOE_VSA_FPOS>
0.45814726

>  <PEOE_VSA_FPPOS>
0.061680648

>  <PEOE_VSA_HYD>
271.44485

>  <PEOE_VSA_NEG>
181.39177

>  <PEOE_VSA_PNEG>
42.668922

>  <PEOE_VSA_POL>
63.317268

>  <PEOE_VSA_POS>
153.37035

>  <PEOE_VSA_PPOS>
20.648346

>  <petitjean>
0.45454547

>  <petitjeanSC>
0.83333331

>  <Q_PC+>
0

>  <Q_PC->
0

>  <Q_RPC+>
0

>  <Q_RPC->
0

>  <Q_VSA_FHYD>
1

>  <Q_VSA_FNEG>
0

>  <Q_VSA_FPNEG>
0

>  <Q_VSA_FPOL>
0

>  <Q_VSA_FPOS>
1

>  <Q_VSA_FPPOS>
0

>  <Q_VSA_HYD>
334.76212

>  <Q_VSA_NEG>
0

>  <Q_VSA_PNEG>
0

>  <Q_VSA_POL>
0

>  <Q_VSA_POS>
334.76212

>  <Q_VSA_PPOS>
0

>  <radius>
6

>  <reactive>
1

>  <rings>
4

>  <RPC+>
0

>  <RPC->
0

>  <rsynth>
0.31999999

>  <SlogP>
2.5852001

>  <SlogP_VSA0>
50.770454

>  <SlogP_VSA1>
11.375222

>  <SlogP_VSA2>
54.193081

>  <SlogP_VSA3>
0

>  <SlogP_VSA4>
13.232388

>  <SlogP_VSA5>
3.185575

>  <SlogP_VSA6>
0

>  <SlogP_VSA7>
52.929554

>  <SlogP_VSA8>
94.342026

>  <SlogP_VSA9>
99.978043

>  <SMR>
9.3636599

>  <SMR_VSA0>
47.724434

>  <SMR_VSA1>
50.770454

>  <SMR_VSA2>
13.232388

>  <SMR_VSA3>
9.6542244

>  <SMR_VSA4>
0

>  <SMR_VSA5>
147.27158

>  <SMR_VSA6>
11.375222

>  <SMR_VSA7>
99.978043

>  <TPSA>
74.599998

>  <VAdjEq>
0.43513325

>  <VAdjMa>
5.8073549

>  <VDistEq>
3.0926902

>  <VDistMa>
9.022789

>  <vdw_area>
334.76212

>  <vdw_vol>
478.92316

>  <vsa_acc>
27.133842

>  <vsa_acid>
0

>  <vsa_base>
0

>  <vsa_don>
0

>  <vsa_hyd>
231.98598

>  <vsa_other>
16.917038

>  <vsa_pol>
54.267685

>  <Weight>
344.45099

>  <weinerPath>
1265

>  <weinerPol>
57

>  <zagreb>
150

$$$$