O1C2CC(=O)N3C4C5(C6N(CC(C(C24)C6)=CC1)CC5)c1c3cccc1
  MOE2013           2D

 25 31  0  0  1  0  0  0  0  0999 V2000
    0.0000    0.0000    0.0000 O   0  0  0  0  0  0  0  0  0  0  0  0
    1.5820   -0.3450    0.0000 C   0  0  3  0  0  0  0  0  0  0  0  0
    2.4540   -1.5370    0.0000 C   0  0  0  0  0  0  0  0  0  0  0  0
    3.9010   -1.3830    0.0000 C   0  0  0  0  0  0  0  0  0  0  0  0
    4.7870   -2.5940    0.0000 O   0  0  0  0  0  0  0  0  0  0  0  0
    4.5040   -0.0110    0.0000 N   0  0  0  0  0  0  0  0  0  0  0  0
    3.6860    1.0660    0.0000 C   0  0  3  0  0  0  0  0  0  0  0  0
    4.2770    2.5280    0.0000 C   0  0  3  0  0  0  0  0  0  0  0  0
    3.3080    3.6000    0.0000 C   0  0  3  0  0  0  0  0  0  0  0  0
    2.7760    4.8790    0.0000 N   0  0  3  0  0  0  0  0  0  0  0  0
    1.1540    5.0470    0.0000 C   0  0  0  0  0  0  0  0  0  0  0  0
    0.4080    3.6450    0.0000 C   0  0  0  0  0  0  0  0  0  0  0  0
    1.2940    2.2970    0.0000 C   0  0  3  0  0  0  0  0  0  0  0  0
    2.1730    0.9580    0.0000 C   0  0  3  0  0  0  0  0  0  0  0  0
    2.0400    3.4720    0.0000 C   0  0  0  0  0  0  0  0  0  0  0  0
   -0.7570    2.8450    0.0000 C   0  0  0  0  0  0  0  0  0  0  0  0
   -0.9690    1.3790    0.0000 C   0  0  0  0  0  0  0  0  0  0  0  0
    4.3430    5.0960    0.0000 C   0  0  0  0  0  0  0  0  0  0  0  0
    5.1280    3.8520    0.0000 C   0  0  0  0  0  0  0  0  0  0  0  0
    5.6950    2.0990    0.0000 C   0  0  0  0  0  0  0  0  0  0  0  0
    5.8510    0.6600    0.0000 C   0  0  0  0  0  0  0  0  0  0  0  0
    7.2020    0.0240    0.0000 C   0  0  0  0  0  0  0  0  0  0  0  0
    8.4260    0.8900    0.0000 C   0  0  0  0  0  0  0  0  0  0  0  0
    8.2880    2.3840    0.0000 C   0  0  0  0  0  0  0  0  0  0  0  0
    6.9260    3.0130    0.0000 C   0  0  0  0  0  0  0  0  0  0  0  0
  1  2  1  0  0  0  0
  1 17  1  0  0  0  0
  2  3  1  0  0  0  0
  2 14  1  0  0  0  0
  3  4  1  0  0  0  0
  4  5  2  0  0  0  0
  4  6  1  0  0  0  0
  6  7  1  0  0  0  0
  6 21  1  0  0  0  0
  7  8  1  0  0  0  0
  7 14  1  0  0  0  0
  8  9  1  0  0  0  0
  8 19  1  0  0  0  0
  8 20  1  0  0  0  0
  9 10  1  0  0  0  0
  9 15  1  0  0  0  0
 10 11  1  0  0  0  0
 10 18  1  0  0  0  0
 11 12  1  0  0  0  0
 12 13  1  0  0  0  0
 12 16  2  0  0  0  0
 13 14  1  0  0  0  0
 13 15  1  0  0  0  0
 16 17  1  0  0  0  0
 18 19  1  0  0  0  0
 20 21  1  0  0  0  0
 20 25  2  0  0  0  0
 21 22  2  0  0  0  0
 22 23  1  0  0  0  0
 23 24  2  0  0  0  0
 24 25  1  0  0  0  0
M  END
>  <Index>
1343

>  <ID>
HT3528

>  <class>
0

>  <apol>
55.433445

>  <ast_fraglike>
0

>  <ast_fraglike_ext>
0

>  <ast_violation>
1

>  <ast_violation_ext>
1

>  <a_acc>
3

>  <a_acid>
0

>  <a_aro>
6

>  <a_base>
0

>  <a_count>
47

>  <a_don>
0

>  <a_donacc>
3

>  <a_heavy>
25

>  <a_hyd>
20

>  <a_IC>
66.719513

>  <a_ICM>
1.4195641

>  <a_nB>
0

>  <a_nBr>
0

>  <a_nC>
21

>  <a_nCl>
0

>  <a_nF>
0

>  <a_nH>
22

>  <a_nI>
0

>  <a_nN>
2

>  <a_nO>
2

>  <a_nP>
0

>  <a_nS>
0

>  <balabanJ>
1.4519042

>  <BCUT_PEOE_0>
-2.8747821

>  <BCUT_PEOE_1>
-0.55576396

>  <BCUT_PEOE_2>
0.60685295

>  <BCUT_PEOE_3>
2.9703324

>  <BCUT_SLOGP_0>
-2.9460478

>  <BCUT_SLOGP_1>
-0.47870412

>  <BCUT_SLOGP_2>
0.67554331

>  <BCUT_SLOGP_3>
2.9298034

>  <BCUT_SMR_0>
-2.6249356

>  <BCUT_SMR_1>
-0.4100298

>  <BCUT_SMR_2>
0.75915778

>  <BCUT_SMR_3>
3.2310908

>  <bpol>
30.884554

>  <b_1rotN>
0

>  <b_1rotR>
0

>  <b_ar>
6

>  <b_count>
53

>  <b_double>
2

>  <b_heavy>
31

>  <b_max1len>
2

>  <b_rotN>
0

>  <b_rotR>
0

>  <b_single>
45

>  <b_triple>
0

>  <chi0>
16.336134

>  <chi0v>
14.227067

>  <chi0v_C>
12.516144

>  <chi0_C>
13.474327

>  <chi1>
12.287661

>  <chi1v>
9.7502728

>  <chi1v_C>
7.425704

>  <chi1_C>
8.6522322

>  <chiral>
6

>  <chiral_u>
6

>  <density>
0.73713273

>  <diameter>
8

>  <FCharge>
0

>  <GCUT_PEOE_0>
-0.8533417

>  <GCUT_PEOE_1>
-0.4130601

>  <GCUT_PEOE_2>
0.052872185

>  <GCUT_PEOE_3>
3.3083243

>  <GCUT_SLOGP_0>
-0.99908763

>  <GCUT_SLOGP_1>
-0.3521412

>  <GCUT_SLOGP_2>
0.1243977

>  <GCUT_SLOGP_3>
3.3158643

>  <GCUT_SMR_0>
-0.52348578

>  <GCUT_SMR_1>
-0.21843879

>  <GCUT_SMR_2>
0.1621919

>  <GCUT_SMR_3>
3.5605471

>  <Kier1>
14.984391

>  <Kier2>
4.8811994

>  <Kier3>
1.6077509

>  <KierA1>
12.363418

>  <KierA2>
3.9932079

>  <KierA3>
1.3068794

>  <KierFlex>
1.974788

>  <lip_acc>
4

>  <lip_don>
0

>  <lip_druglike>
1

>  <lip_violation>
0

>  <logP(o/w)>
1.038

>  <logS>
-2.8323801

>  <mr>
9.2754679

>  <mutagenic>
0

>  <nmol>
1

>  <opr_brigid>
30

>  <opr_leadlike>
1

>  <opr_nring>
7

>  <opr_nrot>
0

>  <opr_violation>
1

>  <PC+>
0

>  <PC->
0

>  <PEOE_PC+>
1.653757

>  <PEOE_PC->
-1.653757

>  <PEOE_RPC+>
0.13942391

>  <PEOE_RPC->
0.22476867

>  <PEOE_VSA+0>
91.680176

>  <PEOE_VSA+1>
70.091972

>  <PEOE_VSA+2>
0

>  <PEOE_VSA+3>
0

>  <PEOE_VSA+4>
12.949531

>  <PEOE_VSA+5>
0

>  <PEOE_VSA+6>
0

>  <PEOE_VSA-0>
31.86607

>  <PEOE_VSA-1>
51.228157

>  <PEOE_VSA-2>
0

>  <PEOE_VSA-3>
0

>  <PEOE_VSA-4>
0

>  <PEOE_VSA-5>
13.566921

>  <PEOE_VSA-6>
2.503756

>  <PEOE_VSA_FHYD>
0.89404297

>  <PEOE_VSA_FNEG>
0.36206558

>  <PEOE_VSA_FPNEG>
0.058676396

>  <PEOE_VSA_FPOL>
0.10595702

>  <PEOE_VSA_FPOS>
0.63793445

>  <PEOE_VSA_FPPOS>
0.047280632

>  <PEOE_VSA_HYD>
244.86638

>  <PEOE_VSA_NEG>
99.164902

>  <PEOE_VSA_PNEG>
16.070677

>  <PEOE_VSA_POL>
29.020208

>  <PEOE_VSA_POS>
174.72168

>  <PEOE_VSA_PPOS>
12.949531

>  <petitjean>
0.5

>  <petitjeanSC>
1

>  <Q_PC+>
0

>  <Q_PC->
0

>  <Q_RPC+>
0

>  <Q_RPC->
0

>  <Q_VSA_FHYD>
1

>  <Q_VSA_FNEG>
0

>  <Q_VSA_FPNEG>
0

>  <Q_VSA_FPOL>
0

>  <Q_VSA_FPOS>
1

>  <Q_VSA_FPPOS>
0

>  <Q_VSA_HYD>
273.8866

>  <Q_VSA_NEG>
0

>  <Q_VSA_PNEG>
0

>  <Q_VSA_POL>
0

>  <Q_VSA_POS>
273.8866

>  <Q_VSA_PPOS>
0

>  <radius>
4

>  <reactive>
0

>  <rings>
7

>  <RPC+>
0

>  <RPC->
0

>  <rsynth>
1

>  <SlogP>
2.0925

>  <SlogP_VSA0>
3.1243138

>  <SlogP_VSA1>
8.3830976

>  <SlogP_VSA2>
49.294689

>  <SlogP_VSA3>
57.805416

>  <SlogP_VSA4>
12.007167

>  <SlogP_VSA5>
3.185575

>  <SlogP_VSA6>
0

>  <SlogP_VSA7>
88.215919

>  <SlogP_VSA8>
56.605217

>  <SlogP_VSA9>
2.7567475

>  <SMR>
9.3409004

>  <SMR_VSA0>
34.862103

>  <SMR_VSA1>
3.1243138

>  <SMR_VSA2>
11.945906

>  <SMR_VSA3>
20.803736

>  <SMR_VSA4>
2.7567475

>  <SMR_VSA5>
144.82114

>  <SMR_VSA6>
63.064198

>  <SMR_VSA7>
0

>  <TPSA>
32.779999

>  <VAdjEq>
0.46645451

>  <VAdjMa>
5.9541965

>  <VDistEq>
2.7191648

>  <VDistMa>
9.072176

>  <vdw_area>
273.8866

>  <vdw_vol>
453.67542

>  <vsa_acc>
16.070677

>  <vsa_acid>
0

>  <vsa_base>
0

>  <vsa_don>
0

>  <vsa_hyd>
226.51677

>  <vsa_other>
12.949531

>  <vsa_pol>
16.070677

>  <Weight>
334.41901

>  <weinerPath>
1096

>  <weinerPol>
63

>  <zagreb>
164

$$$$