O1C(OC)C(O)C(O)C(O)C1O
  MOE2013           2D

 12 12  0  0  1  0  0  0  0  0999 V2000
    0.0000    0.0000    0.0000 O   0  0  0  0  0  0  0  0  0  0  0  0
    0.7460   -1.3010    0.0000 C   0  0  3  0  0  0  0  0  0  0  0  0
    2.2460   -1.3060    0.0000 O   0  0  0  0  0  0  0  0  0  0  0  0
    3.0000   -0.0090    0.0000 C   0  0  0  0  0  0  0  0  0  0  0  0
   -0.0080   -2.5980    0.0000 C   0  0  3  0  0  0  0  0  0  0  0  0
    0.7380   -3.8990    0.0000 O   0  0  0  0  0  0  0  0  0  0  0  0
   -1.5080   -2.5930    0.0000 C   0  0  3  0  0  0  0  0  0  0  0  0
   -2.2620   -3.8900    0.0000 O   0  0  0  0  0  0  0  0  0  0  0  0
   -2.2540   -1.2920    0.0000 C   0  0  3  0  0  0  0  0  0  0  0  0
   -3.7540   -1.2880    0.0000 O   0  0  0  0  0  0  0  0  0  0  0  0
   -1.5000    0.0050    0.0000 C   0  0  3  0  0  0  0  0  0  0  0  0
   -2.2460    1.3060    0.0000 O   0  0  0  0  0  0  0  0  0  0  0  0
  1  2  1  0  0  0  0
  1 11  1  0  0  0  0
  2  3  1  0  0  0  0
  2  5  1  0  0  0  0
  3  4  1  0  0  0  0
  5  6  1  0  0  0  0
  5  7  1  0  0  0  0
  7  8  1  0  0  0  0
  7  9  1  0  0  0  0
  9 10  1  0  0  0  0
  9 11  1  0  0  0  0
 11 12  1  0  0  0  0
M  END
>  <Index>
1245

>  <ID>
HT2772

>  <class>
0

>  <apol>
23.373516

>  <ast_fraglike>
0

>  <ast_fraglike_ext>
0

>  <ast_violation>
2

>  <ast_violation_ext>
2

>  <a_acc>
6

>  <a_acid>
0

>  <a_aro>
0

>  <a_base>
0

>  <a_count>
24

>  <a_don>
4

>  <a_donacc>
10

>  <a_heavy>
12

>  <a_hyd>
4

>  <a_IC>
36

>  <a_ICM>
1.5

>  <a_nB>
0

>  <a_nBr>
0

>  <a_nC>
6

>  <a_nCl>
0

>  <a_nF>
0

>  <a_nH>
12

>  <a_nI>
0

>  <a_nN>
0

>  <a_nO>
6

>  <a_nP>
0

>  <a_nS>
0

>  <balabanJ>
2.634409

>  <BCUT_PEOE_0>
-2.6805604

>  <BCUT_PEOE_1>
-0.57190484

>  <BCUT_PEOE_2>
0.67017078

>  <BCUT_PEOE_3>
2.7653365

>  <BCUT_SLOGP_0>
-2.8856404

>  <BCUT_SLOGP_1>
-0.70228148

>  <BCUT_SLOGP_2>
0.49694294

>  <BCUT_SLOGP_3>
2.544976

>  <BCUT_SMR_0>
-2.491878

>  <BCUT_SMR_1>
-0.46535712

>  <BCUT_SMR_2>
0.73339045

>  <BCUT_SMR_3>
2.9329605

>  <bpol>
16.950483

>  <b_1rotN>
1

>  <b_1rotR>
0.083333336

>  <b_ar>
0

>  <b_count>
24

>  <b_double>
0

>  <b_heavy>
12

>  <b_max1len>
4

>  <b_rotN>
1

>  <b_rotR>
0.083333336

>  <b_single>
24

>  <b_triple>
0

>  <chi0>
9.3009653

>  <chi0v>
6.4921021

>  <chi0v_C>
3.8867514

>  <chi0_C>
3.8867514

>  <chi1>
5.5745859

>  <chi1v>
3.4814839

>  <chi1v_C>
1.3333334

>  <chi1_C>
1.3333334

>  <chiral>
5

>  <chiral_u>
5

>  <density>
0.89192009

>  <diameter>
6

>  <FCharge>
0

>  <GCUT_PEOE_0>
-0.78707063

>  <GCUT_PEOE_1>
-0.4308731

>  <GCUT_PEOE_2>
0.14825453

>  <GCUT_PEOE_3>
2.4235837

>  <GCUT_SLOGP_0>
-0.95293444

>  <GCUT_SLOGP_1>
-0.54852724

>  <GCUT_SLOGP_2>
-0.0099041807

>  <GCUT_SLOGP_3>
2.2640183

>  <GCUT_SMR_0>
-0.52380639

>  <GCUT_SMR_1>
-0.25480139

>  <GCUT_SMR_2>
0.17660661

>  <GCUT_SMR_3>
2.5942836

>  <Kier1>
10.083333

>  <Kier2>
3.8062284

>  <Kier3>
1.8595041

>  <KierA1>
10.083333

>  <KierA2>
3.8062284

>  <KierA3>
1.8595041

>  <KierFlex>
3.1982892

>  <lip_acc>
6

>  <lip_don>
4

>  <lip_druglike>
1

>  <lip_violation>
0

>  <logP(o/w)>
-2.243

>  <logS>
1.02404

>  <mr>
3.6575034

>  <mutagenic>
0

>  <nmol>
1

>  <opr_brigid>
6

>  <opr_leadlike>
1

>  <opr_nring>
1

>  <opr_nrot>
3

>  <opr_violation>
0

>  <PC+>
0

>  <PC->
0

>  <PEOE_PC+>
2.1888225

>  <PEOE_PC->
-2.1888225

>  <PEOE_RPC+>
0.097112484

>  <PEOE_RPC->
0.17649393

>  <PEOE_VSA+0>
24.997658

>  <PEOE_VSA+1>
34.123089

>  <PEOE_VSA+2>
14.714787

>  <PEOE_VSA+3>
22.309816

>  <PEOE_VSA+4>
41.296692

>  <PEOE_VSA+5>
0

>  <PEOE_VSA+6>
0

>  <PEOE_VSA-0>
0

>  <PEOE_VSA-1>
0

>  <PEOE_VSA-2>
0

>  <PEOE_VSA-3>
0

>  <PEOE_VSA-4>
0

>  <PEOE_VSA-5>
0

>  <PEOE_VSA-6>
36.077675

>  <PEOE_VSA_FHYD>
0.55408889

>  <PEOE_VSA_FNEG>
0.20791686

>  <PEOE_VSA_FPNEG>
0.20791686

>  <PEOE_VSA_FPOL>
0.44591108

>  <PEOE_VSA_FPOS>
0.79208314

>  <PEOE_VSA_FPPOS>
0.23799422

>  <PEOE_VSA_HYD>
96.145348

>  <PEOE_VSA_NEG>
36.077675

>  <PEOE_VSA_PNEG>
36.077675

>  <PEOE_VSA_POL>
77.374367

>  <PEOE_VSA_POS>
137.44205

>  <PEOE_VSA_PPOS>
41.296692

>  <petitjean>
0.33333334

>  <petitjeanSC>
0.5

>  <Q_PC+>
0

>  <Q_PC->
0

>  <Q_RPC+>
0

>  <Q_RPC->
0

>  <Q_VSA_FHYD>
1

>  <Q_VSA_FNEG>
0

>  <Q_VSA_FPNEG>
0

>  <Q_VSA_FPOL>
0

>  <Q_VSA_FPOS>
1

>  <Q_VSA_FPPOS>
0

>  <Q_VSA_HYD>
173.51971

>  <Q_VSA_NEG>
0

>  <Q_VSA_PNEG>
0

>  <Q_VSA_POL>
0

>  <Q_VSA_POS>
173.51971

>  <Q_VSA_PPOS>
0

>  <radius>
4

>  <reactive>
1

>  <rings>
1

>  <RPC+>
0

>  <RPC->
0

>  <rsynth>
1

>  <SlogP>
-2.6098001

>  <SlogP_VSA0>
101.54091

>  <SlogP_VSA1>
0

>  <SlogP_VSA2>
58.458729

>  <SlogP_VSA3>
0

>  <SlogP_VSA4>
0

>  <SlogP_VSA5>
35.383869

>  <SlogP_VSA6>
0

>  <SlogP_VSA7>
0

>  <SlogP_VSA8>
0

>  <SlogP_VSA9>
0

>  <SMR>
3.59092

>  <SMR_VSA0>
21.999775

>  <SMR_VSA1>
101.54091

>  <SMR_VSA2>
0

>  <SMR_VSA3>
36.458954

>  <SMR_VSA4>
0

>  <SMR_VSA5>
0

>  <SMR_VSA6>
0

>  <SMR_VSA7>
35.383869

>  <TPSA>
99.379997

>  <VAdjEq>
0.65002245

>  <VAdjMa>
4.5849624

>  <VDistEq>
2.2891481

>  <VDistMa>
6.8929548

>  <vdw_area>
173.51971

>  <vdw_vol>
201.98669

>  <vsa_acc>
5.0075121

>  <vsa_acid>
0

>  <vsa_base>
0

>  <vsa_don>
0

>  <vsa_hyd>
61.033989

>  <vsa_other>
29.416998

>  <vsa_pol>
59.275196

>  <Weight>
180.15599

>  <weinerPath>
182

>  <weinerPol>
19

>  <zagreb>
58

$$$$