O(C)c1cc(ccc1OC)C(OCCCCN(C(Cc1ccc(OC)cc1)C)CC)=O
  MOE2013           2D

 31 32  0  0  1  0  0  0  0  0999 V2000
    0.0000    0.0000    0.0000 O   0  0  0  0  0  0  0  0  0  0  0  0
    0.0070   -1.5000    0.0000 C   0  0  0  0  0  0  0  0  0  0  0  0
    1.2950    0.7560    0.0000 C   0  0  0  0  0  0  0  0  0  0  0  0
    2.5980    0.0130    0.0000 C   0  0  0  0  0  0  0  0  0  0  0  0
    3.8930    0.7690    0.0000 C   0  0  0  0  0  0  0  0  0  0  0  0
    3.8860    2.2690    0.0000 C   0  0  0  0  0  0  0  0  0  0  0  0
    2.5830    3.0130    0.0000 C   0  0  0  0  0  0  0  0  0  0  0  0
    1.2880    2.2560    0.0000 C   0  0  0  0  0  0  0  0  0  0  0  0
   -0.0150    3.0000    0.0000 O   0  0  0  0  0  0  0  0  0  0  0  0
   -0.0220    4.5000    0.0000 C   0  0  0  0  0  0  0  0  0  0  0  0
    5.1960    0.0260    0.0000 C   0  0  0  0  0  0  0  0  0  0  0  0
    6.4910    0.7820    0.0000 O   0  0  0  0  0  0  0  0  0  0  0  0
    7.7940    0.0390    0.0000 C   0  0  0  0  0  0  0  0  0  0  0  0
    9.0890    0.7950    0.0000 C   0  0  0  0  0  0  0  0  0  0  0  0
   10.3920    0.0520    0.0000 C   0  0  0  0  0  0  0  0  0  0  0  0
   11.6870    0.8080    0.0000 C   0  0  0  0  0  0  0  0  0  0  0  0
   12.9900    0.0640    0.0000 N   0  0  3  0  0  0  0  0  0  0  0  0
   14.2860    0.8210    0.0000 C   0  0  3  0  0  0  0  0  0  0  0  0
   14.2780    2.3210    0.0000 C   0  0  0  0  0  0  0  0  0  0  0  0
   15.5730    3.0770    0.0000 C   0  0  0  0  0  0  0  0  0  0  0  0
   16.8760    2.3340    0.0000 C   0  0  0  0  0  0  0  0  0  0  0  0
   18.1710    3.0900    0.0000 C   0  0  0  0  0  0  0  0  0  0  0  0
   18.1640    4.5900    0.0000 C   0  0  0  0  0  0  0  0  0  0  0  0
   19.4590    5.3470    0.0000 O   0  0  0  0  0  0  0  0  0  0  0  0
   19.4520    6.8470    0.0000 C   0  0  0  0  0  0  0  0  0  0  0  0
   16.8610    5.3340    0.0000 C   0  0  0  0  0  0  0  0  0  0  0  0
   15.5660    4.5770    0.0000 C   0  0  0  0  0  0  0  0  0  0  0  0
   15.5880    0.0770    0.0000 C   0  0  0  0  0  0  0  0  0  0  0  0
   12.9980   -1.4360    0.0000 C   0  0  0  0  0  0  0  0  0  0  0  0
   14.3000   -2.1790    0.0000 C   0  0  0  0  0  0  0  0  0  0  0  0
    5.2040   -1.4740    0.0000 O   0  0  0  0  0  0  0  0  0  0  0  0
  1  2  1  0  0  0  0
  1  3  1  0  0  0  0
  3  4  1  0  0  0  0
  3  8  2  0  0  0  0
  4  5  2  0  0  0  0
  5  6  1  0  0  0  0
  5 11  1  0  0  0  0
  6  7  2  0  0  0  0
  7  8  1  0  0  0  0
  8  9  1  0  0  0  0
  9 10  1  0  0  0  0
 11 12  1  0  0  0  0
 11 31  2  0  0  0  0
 12 13  1  0  0  0  0
 13 14  1  0  0  0  0
 14 15  1  0  0  0  0
 15 16  1  0  0  0  0
 16 17  1  0  0  0  0
 17 18  1  0  0  0  0
 17 29  1  0  0  0  0
 18 19  1  0  0  0  0
 18 28  1  0  0  0  0
 19 20  1  0  0  0  0
 20 21  1  0  0  0  0
 20 27  2  0  0  0  0
 21 22  2  0  0  0  0
 22 23  1  0  0  0  0
 23 24  1  0  0  0  0
 23 26  2  0  0  0  0
 24 25  1  0  0  0  0
 26 27  1  0  0  0  0
 29 30  1  0  0  0  0
M  END
>  <Index>
1384

>  <ID>
HT3815

>  <class>
0

>  <apol>
72.447754

>  <ast_fraglike>
0

>  <ast_fraglike_ext>
0

>  <ast_violation>
3

>  <ast_violation_ext>
4

>  <a_acc>
5

>  <a_acid>
0

>  <a_aro>
12

>  <a_base>
0

>  <a_count>
66

>  <a_don>
0

>  <a_donacc>
5

>  <a_heavy>
31

>  <a_hyd>
24

>  <a_IC>
91.699059

>  <a_ICM>
1.3893797

>  <a_nB>
0

>  <a_nBr>
0

>  <a_nC>
25

>  <a_nCl>
0

>  <a_nF>
0

>  <a_nH>
35

>  <a_nI>
0

>  <a_nN>
1

>  <a_nO>
5

>  <a_nP>
0

>  <a_nS>
0

>  <balabanJ>
1.598083

>  <BCUT_PEOE_0>
-2.7404869

>  <BCUT_PEOE_1>
-0.56139171

>  <BCUT_PEOE_2>
0.38396859

>  <BCUT_PEOE_3>
2.6502101

>  <BCUT_SLOGP_0>
-2.7792361

>  <BCUT_SLOGP_1>
-0.50961071

>  <BCUT_SLOGP_2>
0.50745559

>  <BCUT_SLOGP_3>
2.6564229

>  <BCUT_SMR_0>
-2.4653351

>  <BCUT_SMR_1>
-0.30368295

>  <BCUT_SMR_2>
0.64378309

>  <BCUT_SMR_3>
2.9182427

>  <bpol>
48.864246

>  <b_1rotN>
13

>  <b_1rotR>
0.40625

>  <b_ar>
12

>  <b_count>
67

>  <b_double>
1

>  <b_heavy>
32

>  <b_max1len>
8

>  <b_rotN>
14

>  <b_rotR>
0.4375

>  <b_single>
54

>  <b_triple>
0

>  <chi0>
22.639618

>  <chi0v>
19.349897

>  <chi0v_C>
16.861443

>  <chi0_C>
18.233841

>  <chi1>
15.0151

>  <chi1v>
10.780354

>  <chi1v_C>
7.35566

>  <chi1_C>
9.0336065

>  <chiral>
1

>  <chiral_u>
1

>  <density>
0.68933117

>  <diameter>
20

>  <FCharge>
0

>  <GCUT_PEOE_0>
-0.85786897

>  <GCUT_PEOE_1>
-0.39392725

>  <GCUT_PEOE_2>
-0.088753305

>  <GCUT_PEOE_3>
2.7589443

>  <GCUT_SLOGP_0>
-0.9550935

>  <GCUT_SLOGP_1>
-0.27730033

>  <GCUT_SLOGP_2>
0.075411223

>  <GCUT_SLOGP_3>
2.8161812

>  <GCUT_SMR_0>
-0.52621061

>  <GCUT_SMR_1>
-0.19658516

>  <GCUT_SMR_2>
0.090069048

>  <GCUT_SMR_3>
3.0027044

>  <Kier1>
27.246094

>  <Kier2>
15.008924

>  <Kier3>
9.042676

>  <KierA1>
22.533974

>  <KierA2>
12.330369

>  <KierA3>
7.392561

>  <KierFlex>
8.9629745

>  <lip_acc>
6

>  <lip_don>
0

>  <lip_druglike>
1

>  <lip_violation>
0

>  <logP(o/w)>
4.94174

>  <logS>
-4.70297

>  <mr>
12.420501

>  <mutagenic>
0

>  <nmol>
1

>  <opr_brigid>
12

>  <opr_leadlike>
0

>  <opr_nring>
2

>  <opr_nrot>
13

>  <opr_violation>
2

>  <PC+>
0

>  <PC->
0

>  <PEOE_PC+>
2.4045901

>  <PEOE_PC->
-2.4045901

>  <PEOE_RPC+>
0.12222138

>  <PEOE_RPC->
0.14468668

>  <PEOE_VSA+0>
152.85904

>  <PEOE_VSA+1>
100.18676

>  <PEOE_VSA+2>
16.917038

>  <PEOE_VSA+3>
0

>  <PEOE_VSA+4>
0

>  <PEOE_VSA+5>
14.708499

>  <PEOE_VSA+6>
0

>  <PEOE_VSA-0>
134.71933

>  <PEOE_VSA-1>
43.257484

>  <PEOE_VSA-2>
0

>  <PEOE_VSA-3>
0

>  <PEOE_VSA-4>
0

>  <PEOE_VSA-5>
13.566921

>  <PEOE_VSA-6>
10.015024

>  <PEOE_VSA_FHYD>
0.92125034

>  <PEOE_VSA_FNEG>
0.4145337

>  <PEOE_VSA_FPNEG>
0.048499558

>  <PEOE_VSA_FPOL>
0.078749642

>  <PEOE_VSA_FPOS>
0.58546633

>  <PEOE_VSA_FPPOS>
0.03025008

>  <PEOE_VSA_HYD>
447.93964

>  <PEOE_VSA_NEG>
201.55876

>  <PEOE_VSA_PNEG>
23.581945

>  <PEOE_VSA_POL>
38.290443

>  <PEOE_VSA_POS>
284.67133

>  <PEOE_VSA_PPOS>
14.708499

>  <petitjean>
0.5

>  <petitjeanSC>
1

>  <Q_PC+>
0

>  <Q_PC->
0

>  <Q_RPC+>
0

>  <Q_RPC->
0

>  <Q_VSA_FHYD>
1

>  <Q_VSA_FNEG>
0

>  <Q_VSA_FPNEG>
0

>  <Q_VSA_FPOL>
0

>  <Q_VSA_FPOS>
1

>  <Q_VSA_FPPOS>
0

>  <Q_VSA_HYD>
486.2301

>  <Q_VSA_NEG>
0

>  <Q_VSA_PNEG>
0

>  <Q_VSA_POL>
0

>  <Q_VSA_POS>
486.2301

>  <Q_VSA_PPOS>
0

>  <radius>
10

>  <reactive>
0

>  <rings>
2

>  <RPC+>
0

>  <RPC->
0

>  <rsynth>
0.41935483

>  <SlogP>
4.6024699

>  <SlogP_VSA0>
32.999664

>  <SlogP_VSA1>
10.869778

>  <SlogP_VSA2>
14.981856

>  <SlogP_VSA3>
57.805416

>  <SlogP_VSA4>
30.233366

>  <SlogP_VSA5>
125.02001

>  <SlogP_VSA6>
0

>  <SlogP_VSA7>
123.50229

>  <SlogP_VSA8>
37.736813

>  <SlogP_VSA9>
82.382317

>  <SMR>
12.24695

>  <SMR_VSA0>
34.862103

>  <SMR_VSA1>
36.123978

>  <SMR_VSA2>
0

>  <SMR_VSA3>
26.083403

>  <SMR_VSA4>
0

>  <SMR_VSA5>
180.10751

>  <SMR_VSA6>
65.55088

>  <SMR_VSA7>
172.80363

>  <TPSA>
57.23

>  <VAdjEq>
0.35309514

>  <VAdjMa>
6

>  <VDistEq>
4.0693264

>  <VDistMa>
9.5683022

>  <vdw_area>
486.2301

>  <vdw_vol>
623.15039

>  <vsa_acc>
21.07819

>  <vsa_acid>
0

>  <vsa_base>
0

>  <vsa_don>
0

>  <vsa_hyd>
423.02679

>  <vsa_other>
17.212255

>  <vsa_pol>
21.07819

>  <Weight>
429.55698

>  <weinerPath>
3498

>  <weinerPol>
45

>  <zagreb>
146

$$$$