O[C@H]1C[C@@H](O)[C@H](C=C[C@@H](O)CCc2ccccc2)[C@H]1CC=CCCCC(=O)NCC
  MOE2013           2D

 30 31  0  0  1  0  0  0  0  0999 V2000
    0.0000    0.0000    0.0000 O   0  0  0  0  0  0  0  0  0  0  0  0
   -1.4630   -0.3310    0.0000 C   0  0  1  0  0  0  0  0  0  0  0  0
   -2.5910    0.6580    0.0000 C   0  0  0  0  0  0  0  0  0  0  0  0
   -3.8800   -0.1090    0.0000 C   0  0  1  0  0  0  0  0  0  0  0  0
   -5.2580    0.4830    0.0000 O   0  0  0  0  0  0  0  0  0  0  0  0
   -3.5490   -1.5720    0.0000 C   0  0  2  0  0  0  0  0  0  0  0  0
   -4.5380   -2.7000    0.0000 C   0  0  0  0  0  0  0  0  0  0  0  0
   -6.0090   -2.4080    0.0000 C   0  0  0  0  0  0  0  0  0  0  0  0
   -6.9980   -3.5350    0.0000 C   0  0  1  0  0  0  0  0  0  0  0  0
   -6.5160   -4.9560    0.0000 O   0  0  0  0  0  0  0  0  0  0  0  0
   -8.4690   -3.2430    0.0000 C   0  0  0  0  0  0  0  0  0  0  0  0
   -9.4580   -4.3710    0.0000 C   0  0  0  0  0  0  0  0  0  0  0  0
  -10.9290   -4.0780    0.0000 C   0  0  0  0  0  0  0  0  0  0  0  0
  -11.4110   -2.6580    0.0000 C   0  0  0  0  0  0  0  0  0  0  0  0
  -12.8830   -2.3650    0.0000 C   0  0  0  0  0  0  0  0  0  0  0  0
  -13.8720   -3.4930    0.0000 C   0  0  0  0  0  0  0  0  0  0  0  0
  -13.3890   -4.9130    0.0000 C   0  0  0  0  0  0  0  0  0  0  0  0
  -11.9180   -5.2060    0.0000 C   0  0  0  0  0  0  0  0  0  0  0  0
   -2.0550   -1.7090    0.0000 C   0  0  1  0  0  0  0  0  0  0  0  0
   -1.2880   -2.9980    0.0000 C   0  0  0  0  0  0  0  0  0  0  0  0
    0.2120   -2.9790    0.0000 C   0  0  0  0  0  0  0  0  0  0  0  0
    0.9790   -4.2680    0.0000 C   0  0  0  0  0  0  0  0  0  0  0  0
    2.4790   -4.2480    0.0000 C   0  0  0  0  0  0  0  0  0  0  0  0
    3.2460   -5.5370    0.0000 C   0  0  0  0  0  0  0  0  0  0  0  0
    4.7460   -5.5170    0.0000 C   0  0  0  0  0  0  0  0  0  0  0  0
    5.5130   -6.8060    0.0000 C   0  0  0  0  0  0  0  0  0  0  0  0
    4.7800   -8.1150    0.0000 O   0  0  0  0  0  0  0  0  0  0  0  0
    7.0130   -6.7870    0.0000 N   0  0  0  0  0  0  0  0  0  0  0  0
    7.7800   -8.0760    0.0000 C   0  0  0  0  0  0  0  0  0  0  0  0
    9.2800   -8.0560    0.0000 C   0  0  0  0  0  0  0  0  0  0  0  0
  2  1  1  6  0  0  0
  2  3  1  0  0  0  0
  2 19  1  0  0  0  0
  3  4  1  0  0  0  0
  4  5  1  6  0  0  0
  4  6  1  0  0  0  0
  6  7  1  1  0  0  0
  6 19  1  0  0  0  0
  7  8  2  3  0  0  0
  8  9  1  0  0  0  0
  9 10  1  1  0  0  0
  9 11  1  0  0  0  0
 11 12  1  0  0  0  0
 12 13  1  0  0  0  0
 13 14  1  0  0  0  0
 13 18  2  0  0  0  0
 14 15  2  0  0  0  0
 15 16  1  0  0  0  0
 16 17  2  0  0  0  0
 17 18  1  0  0  0  0
 19 20  1  6  0  0  0
 20 21  1  0  0  0  0
 21 22  2  3  0  0  0
 22 23  1  0  0  0  0
 23 24  1  0  0  0  0
 24 25  1  0  0  0  0
 25 26  1  0  0  0  0
 26 27  2  0  0  0  0
 26 28  1  0  0  0  0
 28 29  1  0  0  0  0
 29 30  1  0  0  0  0
M  END
>  <Index>
145

>  <ID>
HT0286

>  <class>
0

>  <apol>
72.97934

>  <ast_fraglike>
0

>  <ast_fraglike_ext>
0

>  <ast_violation>
4

>  <ast_violation_ext>
5

>  <a_acc>
4

>  <a_acid>
0

>  <a_aro>
6

>  <a_base>
0

>  <a_count>
67

>  <a_don>
4

>  <a_donacc>
8

>  <a_heavy>
30

>  <a_hyd>
24

>  <a_IC>
89.581795

>  <a_ICM>
1.3370417

>  <a_nB>
0

>  <a_nBr>
0

>  <a_nC>
25

>  <a_nCl>
0

>  <a_nF>
0

>  <a_nH>
37

>  <a_nI>
0

>  <a_nN>
1

>  <a_nO>
4

>  <a_nP>
0

>  <a_nS>
0

>  <balabanJ>
1.6160578

>  <BCUT_PEOE_0>
-2.629467

>  <BCUT_PEOE_1>
-0.56698877

>  <BCUT_PEOE_2>
0.61498046

>  <BCUT_PEOE_3>
2.8129318

>  <BCUT_SLOGP_0>
-2.6435676

>  <BCUT_SLOGP_1>
-0.53807992

>  <BCUT_SLOGP_2>
0.67750776

>  <BCUT_SLOGP_3>
2.8041766

>  <BCUT_SMR_0>
-2.3824193

>  <BCUT_SMR_1>
-0.43547797

>  <BCUT_SMR_2>
0.75228256

>  <BCUT_SMR_3>
3.0442686

>  <bpol>
42.066658

>  <b_1rotN>
12

>  <b_1rotR>
0.38709676

>  <b_ar>
6

>  <b_count>
68

>  <b_double>
3

>  <b_heavy>
31

>  <b_max1len>
5

>  <b_rotN>
13

>  <b_rotR>
0.41935483

>  <b_single>
59

>  <b_triple>
0

>  <chi0>
21.769375

>  <chi0v>
17.989647

>  <chi0v_C>
15.739758

>  <chi0_C>
17.062267

>  <chi1>
14.507239

>  <chi1v>
11.189995

>  <chi1v_C>
9.6077204

>  <chi1_C>
11.28959

>  <chiral>
5

>  <chiral_u>
0

>  <density>
0.68086988

>  <diameter>
20

>  <FCharge>
0

>  <GCUT_PEOE_0>
-0.84395903

>  <GCUT_PEOE_1>
-0.39002717

>  <GCUT_PEOE_2>
0.072106808

>  <GCUT_PEOE_3>
2.8638237

>  <GCUT_SLOGP_0>
-1.1613936

>  <GCUT_SLOGP_1>
-0.33019814

>  <GCUT_SLOGP_2>
0.1382827

>  <GCUT_SLOGP_3>
2.9116223

>  <GCUT_SMR_0>
-0.53507054

>  <GCUT_SMR_1>
-0.22730413

>  <GCUT_SMR_2>
0.17629729

>  <GCUT_SMR_3>
3.0949824

>  <Kier1>
26.253902

>  <Kier2>
14.94806

>  <Kier3>
10.00378

>  <KierA1>
21.781248

>  <KierA2>
12.317286

>  <KierA3>
8.2034807

>  <KierFlex>
8.9428616

>  <lip_acc>
5

>  <lip_don>
4

>  <lip_druglike>
1

>  <lip_violation>
0

>  <logP(o/w)>
2.6730001

>  <logS>
-3.4967799

>  <mr>
12.141845

>  <mutagenic>
0

>  <nmol>
1

>  <opr_brigid>
13

>  <opr_leadlike>
1

>  <opr_nring>
2

>  <opr_nrot>
13

>  <opr_violation>
1

>  <PC+>
0

>  <PC->
0

>  <PEOE_PC+>
2.6627116

>  <PEOE_PC->
-2.6627116

>  <PEOE_RPC+>
0.082985148

>  <PEOE_RPC->
0.14699185

>  <PEOE_VSA+0>
120.16806

>  <PEOE_VSA+1>
65.899422

>  <PEOE_VSA+2>
0

>  <PEOE_VSA+3>
8.6190128

>  <PEOE_VSA+4>
43.92205

>  <PEOE_VSA+5>
0

>  <PEOE_VSA+6>
0

>  <PEOE_VSA-0>
64.462784

>  <PEOE_VSA-1>
110.29414

>  <PEOE_VSA-2>
0

>  <PEOE_VSA-3>
0

>  <PEOE_VSA-4>
0

>  <PEOE_VSA-5>
13.566921

>  <PEOE_VSA-6>
23.439512

>  <PEOE_VSA_FHYD>
0.82030743

>  <PEOE_VSA_FNEG>
0.47019663

>  <PEOE_VSA_FPNEG>
0.082168609

>  <PEOE_VSA_FPOL>
0.17969257

>  <PEOE_VSA_FPOS>
0.52980334

>  <PEOE_VSA_FPPOS>
0.097523957

>  <PEOE_VSA_HYD>
369.44342

>  <PEOE_VSA_NEG>
211.76335

>  <PEOE_VSA_PNEG>
37.006432

>  <PEOE_VSA_POL>
80.928482

>  <PEOE_VSA_POS>
238.60854

>  <PEOE_VSA_PPOS>
43.92205

>  <petitjean>
0.5

>  <petitjeanSC>
1

>  <Q_PC+>
0

>  <Q_PC->
0

>  <Q_RPC+>
0

>  <Q_RPC->
0

>  <Q_VSA_FHYD>
1

>  <Q_VSA_FNEG>
0

>  <Q_VSA_FPNEG>
0

>  <Q_VSA_FPOL>
0

>  <Q_VSA_FPOS>
1

>  <Q_VSA_FPPOS>
0

>  <Q_VSA_HYD>
450.37189

>  <Q_VSA_NEG>
0

>  <Q_VSA_PNEG>
0

>  <Q_VSA_POL>
0

>  <Q_VSA_POS>
450.37189

>  <Q_VSA_PPOS>
0

>  <radius>
10

>  <reactive>
0

>  <rings>
2

>  <RPC+>
0

>  <RPC->
0

>  <rsynth>
0.30000001

>  <SlogP>
3.1468699

>  <SlogP_VSA0>
94.166428

>  <SlogP_VSA1>
5.2587838

>  <SlogP_VSA2>
43.268166

>  <SlogP_VSA3>
18.439579

>  <SlogP_VSA4>
12.007167

>  <SlogP_VSA5>
18.868406

>  <SlogP_VSA6>
0

>  <SlogP_VSA7>
158.78867

>  <SlogP_VSA8>
113.21043

>  <SlogP_VSA9>
33.326015

>  <SMR>
11.98121

>  <SMR_VSA0>
23.862217

>  <SMR_VSA1>
76.155678

>  <SMR_VSA2>
26.832342

>  <SMR_VSA3>
22.591522

>  <SMR_VSA4>
0

>  <SMR_VSA5>
290.86749

>  <SMR_VSA6>
23.698362

>  <SMR_VSA7>
33.326015

>  <TPSA>
89.790001

>  <VAdjEq>
0.36176345

>  <VAdjMa>
5.9541965

>  <VDistEq>
4.0396709

>  <VDistMa>
9.4817781

>  <vdw_area>
450.37189

>  <vdw_vol>
610.35742

>  <vsa_acc>
13.566921

>  <vsa_acid>
0

>  <vsa_base>
0

>  <vsa_don>
5.6825762

>  <vsa_hyd>
334.64505

>  <vsa_other>
12.949531

>  <vsa_pol>
59.95026

>  <Weight>
415.57401

>  <weinerPath>
3203

>  <weinerPol>
38

>  <zagreb>
140

$$$$