Clc1ccc(SC(P(O)(O)=O)P(O)(O)=O)cc1
  MOE2013           2D

 17 17  0  0  0  0  0  0  0  0999 V2000
    0.0000    0.0000    0.0000 Cl  0  0  0  0  0  0  0  0  0  0  0  0
   -1.5000   -0.0010    0.0000 C   0  0  0  0  0  0  0  0  0  0  0  0
   -2.2510    1.2970    0.0000 C   0  0  0  0  0  0  0  0  0  0  0  0
   -3.7510    1.2960    0.0000 C   0  0  0  0  0  0  0  0  0  0  0  0
   -4.5000   -0.0040    0.0000 C   0  0  0  0  0  0  0  0  0  0  0  0
   -6.0000   -0.0050    0.0000 S   0  0  0  0  0  0  0  0  0  0  0  0
   -6.7510    1.2940    0.0000 C   0  0  0  0  0  0  0  0  0  0  0  0
   -8.2510    1.2930    0.0000 P   0  0  0  0  0  0  0  0  0  0  0  0
   -8.2520    2.7930    0.0000 O   0  0  0  0  0  0  0  0  0  0  0  0
   -8.2500   -0.2070    0.0000 O   0  0  0  0  0  0  0  0  0  0  0  0
   -9.7510    1.2910    0.0000 O   0  0  0  0  0  0  0  0  0  0  0  0
   -6.0020    2.5930    0.0000 P   0  0  0  0  0  0  0  0  0  0  0  0
   -7.3020    3.3420    0.0000 O   0  0  0  0  0  0  0  0  0  0  0  0
   -5.2530    3.8930    0.0000 O   0  0  0  0  0  0  0  0  0  0  0  0
   -4.7020    1.8440    0.0000 O   0  0  0  0  0  0  0  0  0  0  0  0
   -3.7490   -1.3020    0.0000 C   0  0  0  0  0  0  0  0  0  0  0  0
   -2.2490   -1.3010    0.0000 C   0  0  0  0  0  0  0  0  0  0  0  0
  1  2  1  0  0  0  0
  2  3  1  0  0  0  0
  2 17  2  0  0  0  0
  3  4  2  0  0  0  0
  4  5  1  0  0  0  0
  5  6  1  0  0  0  0
  5 16  2  0  0  0  0
  6  7  1  0  0  0  0
  7  8  1  0  0  0  0
  7 12  1  0  0  0  0
  8  9  1  0  0  0  0
  8 10  1  0  0  0  0
  8 11  2  0  0  0  0
 12 13  1  0  0  0  0
 12 14  1  0  0  0  0
 12 15  2  0  0  0  0
 16 17  1  0  0  0  0
M  END
>  <Index>
1075

>  <ID>
HT2062

>  <class>
0

>  <apol>
35.473137

>  <ast_fraglike>
0

>  <ast_fraglike_ext>
0

>  <ast_violation>
3

>  <ast_violation_ext>
5

>  <a_acc>
6

>  <a_acid>
0

>  <a_aro>
6

>  <a_base>
0

>  <a_count>
26

>  <a_don>
6

>  <a_donacc>
12

>  <a_heavy>
17

>  <a_hyd>
9

>  <a_IC>
56.520847

>  <a_ICM>
2.1738787

>  <a_nB>
0

>  <a_nBr>
0

>  <a_nC>
7

>  <a_nCl>
1

>  <a_nF>
0

>  <a_nH>
9

>  <a_nI>
0

>  <a_nN>
0

>  <a_nO>
6

>  <a_nP>
2

>  <a_nS>
1

>  <balabanJ>
2.6258738

>  <BCUT_PEOE_0>
-2.4263394

>  <BCUT_PEOE_1>
-0.63979805

>  <BCUT_PEOE_2>
0.67662805

>  <BCUT_PEOE_3>
2.7041254

>  <BCUT_SLOGP_0>
-2.4551852

>  <BCUT_SLOGP_1>
-1.1923558

>  <BCUT_SLOGP_2>
0.72155833

>  <BCUT_SLOGP_3>
2.8128669

>  <BCUT_SMR_0>
-2.161145

>  <BCUT_SMR_1>
-0.46516937

>  <BCUT_SMR_2>
0.91870224

>  <BCUT_SMR_3>
2.9629302

>  <bpol>
29.414864

>  <b_1rotN>
4

>  <b_1rotR>
0.23529412

>  <b_ar>
6

>  <b_count>
26

>  <b_double>
0

>  <b_heavy>
17

>  <b_max1len>
6

>  <b_rotN>
4

>  <b_rotR>
0.23529412

>  <b_single>
20

>  <b_triple>
0

>  <chi0>
13.267585

>  <chi0v>
11.534022

>  <chi0v_C>
3.8867514

>  <chi0_C>
4.5604777

>  <chi1>
7.6041903

>  <chi1v>
8.7524319

>  <chi1v_C>
1.8213673

>  <chi1_C>
2.6329932

>  <chiral>
0

>  <chiral_u>
0

>  <density>
1.0701654

>  <diameter>
8

>  <FCharge>
0

>  <GCUT_PEOE_0>
-0.73107284

>  <GCUT_PEOE_1>
-0.44294927

>  <GCUT_PEOE_2>
0.081840448

>  <GCUT_PEOE_3>
2.3288972

>  <GCUT_SLOGP_0>
-1.3054259

>  <GCUT_SLOGP_1>
-0.48224229

>  <GCUT_SLOGP_2>
0.083962336

>  <GCUT_SLOGP_3>
2.4755704

>  <GCUT_SMR_0>
-0.40638521

>  <GCUT_SMR_1>
-0.21789533

>  <GCUT_SMR_2>
0.34116217

>  <GCUT_SMR_3>
2.6224623

>  <Kier1>
15.058824

>  <Kier2>
5.3254437

>  <Kier3>
4.6390533

>  <KierA1>
18.83604

>  <KierA2>
6.7555184

>  <KierA3>
5.9503303

>  <KierFlex>
7.4851303

>  <lip_acc>
6

>  <lip_don>
4

>  <lip_druglike>
1

>  <lip_violation>
0

>  <logP(o/w)>
0.041000001

>  <logS>
-1.2380199

>  <mr>
6.9480214

>  <mutagenic>
0

>  <nmol>
1

>  <opr_brigid>
6

>  <opr_leadlike>
1

>  <opr_nring>
1

>  <opr_nrot>
4

>  <opr_violation>
0

>  <PC+>
0

>  <PC->
0

>  <PEOE_PC+>
2.0372651

>  <PEOE_PC->
-2.0372651

>  <PEOE_RPC+>
0.16676559

>  <PEOE_RPC->
0.16484761

>  <PEOE_VSA+0>
8.7043476

>  <PEOE_VSA+1>
17.061544

>  <PEOE_VSA+2>
41.296692

>  <PEOE_VSA+3>
4.2653861

>  <PEOE_VSA+4>
0

>  <PEOE_VSA+5>
3.6720366

>  <PEOE_VSA+6>
27.333998

>  <PEOE_VSA-0>
68.780235

>  <PEOE_VSA-1>
29.581947

>  <PEOE_VSA-2>
0

>  <PEOE_VSA-3>
0

>  <PEOE_VSA-4>
31.458273

>  <PEOE_VSA-5>
0

>  <PEOE_VSA-6>
39.719025

>  <PEOE_VSA_FHYD>
0.62415117

>  <PEOE_VSA_FNEG>
0.62359697

>  <PEOE_VSA_FPNEG>
0.26180303

>  <PEOE_VSA_FPOL>
0.37584883

>  <PEOE_VSA_FPOS>
0.37640303

>  <PEOE_VSA_FPPOS>
0.11404582

>  <PEOE_VSA_HYD>
169.69016

>  <PEOE_VSA_NEG>
169.53947

>  <PEOE_VSA_PNEG>
71.177299

>  <PEOE_VSA_POL>
102.18333

>  <PEOE_VSA_POS>
102.334

>  <PEOE_VSA_PPOS>
31.006033

>  <petitjean>
0.5

>  <petitjeanSC>
1

>  <Q_PC+>
0

>  <Q_PC->
0

>  <Q_RPC+>
0

>  <Q_RPC->
0

>  <Q_VSA_FHYD>
1

>  <Q_VSA_FNEG>
0

>  <Q_VSA_FPNEG>
0

>  <Q_VSA_FPOL>
0

>  <Q_VSA_FPOS>
1

>  <Q_VSA_FPPOS>
0

>  <Q_VSA_HYD>
271.87347

>  <Q_VSA_NEG>
0

>  <Q_VSA_PNEG>
0

>  <Q_VSA_POL>
0

>  <Q_VSA_POS>
271.87347

>  <Q_VSA_PPOS>
0

>  <radius>
4

>  <reactive>
1

>  <rings>
1

>  <RPC+>
0

>  <RPC->
0

>  <rsynth>
1

>  <SlogP>
-0.069300003

>  <SlogP_VSA0>
130.0954

>  <SlogP_VSA1>
0

>  <SlogP_VSA2>
0

>  <SlogP_VSA3>
0

>  <SlogP_VSA4>
0

>  <SlogP_VSA5>
1.5507339

>  <SlogP_VSA6>
3.5006065

>  <SlogP_VSA7>
70.572739

>  <SlogP_VSA8>
0

>  <SlogP_VSA9>
100.96712

>  <SMR>
6.38132

>  <SMR_VSA0>
44.867531

>  <SMR_VSA1>
85.227875

>  <SMR_VSA2>
1.5507339

>  <SMR_VSA3>
3.5006065

>  <SMR_VSA4>
0

>  <SMR_VSA5>
70.572739

>  <SMR_VSA6>
0

>  <SMR_VSA7>
100.96712

>  <TPSA>
115.06

>  <VAdjEq>
0.52255934

>  <VAdjMa>
5.0874629

>  <VDistEq>
2.8745663

>  <VDistMa>
7.8885145

>  <vdw_area>
271.87347

>  <vdw_vol>
297.72031

>  <vsa_acc>
0

>  <vsa_acid>
0

>  <vsa_base>
0

>  <vsa_don>
0

>  <vsa_hyd>
128.50652

>  <vsa_other>
27.333998

>  <vsa_pol>
94.374817

>  <Weight>
318.60999

>  <weinerPath>
514

>  <weinerPol>
23

>  <zagreb>
86

$$$$