OC1(CCC2C3C(CCC12C)C1(C(=CC(=O)CC1)CC3)C)C#C
  MOE2013           2D

 23 26  0  0  1  0  0  0  0  0999 V2000
    0.0000    0.0000    0.0000 O   0  0  0  0  0  0  0  0  0  0  0  0
   -0.4430    1.4330    0.0000 C   0  0  3  0  0  0  0  0  0  0  0  0
   -0.2390    2.9190    0.0000 C   0  0  0  0  0  0  0  0  0  0  0  0
   -1.5890    3.5720    0.0000 C   0  0  0  0  0  0  0  0  0  0  0  0
   -2.6280    2.4900    0.0000 C   0  0  3  0  0  0  0  0  0  0  0  0
   -4.1270    2.5380    0.0000 C   0  0  3  0  0  0  0  0  0  0  0  0
   -4.9180    1.2630    0.0000 C   0  0  3  0  0  0  0  0  0  0  0  0
   -4.2100   -0.0590    0.0000 C   0  0  0  0  0  0  0  0  0  0  0  0
   -2.7100   -0.1070    0.0000 C   0  0  0  0  0  0  0  0  0  0  0  0
   -1.9190    1.1680    0.0000 C   0  0  3  0  0  0  0  0  0  0  0  0
   -1.0990   -0.0880    0.0000 C   0  0  0  0  0  0  0  0  0  0  0  0
   -6.4170    1.3110    0.0000 C   0  0  3  0  0  0  0  0  0  0  0  0
   -7.1260    2.6330    0.0000 C   0  0  0  0  0  0  0  0  0  0  0  0
   -8.6250    2.6800    0.0000 C   0  0  0  0  0  0  0  0  0  0  0  0
   -9.4160    1.4060    0.0000 C   0  0  0  0  0  0  0  0  0  0  0  0
  -10.9150    1.4540    0.0000 O   0  0  0  0  0  0  0  0  0  0  0  0
   -8.7070    0.0840    0.0000 C   0  0  0  0  0  0  0  0  0  0  0  0
   -7.2080    0.0360    0.0000 C   0  0  0  0  0  0  0  0  0  0  0  0
   -6.3350    3.9070    0.0000 C   0  0  0  0  0  0  0  0  0  0  0  0
   -4.8360    3.8600    0.0000 C   0  0  0  0  0  0  0  0  0  0  0  0
   -5.7090   -0.0110    0.0000 C   0  0  0  0  0  0  0  0  0  0  0  0
    1.0300    1.1520    0.0000 C   0  0  0  0  0  0  0  0  0  0  0  0
    2.5040    0.8700    0.0000 C   0  0  0  0  0  0  0  0  0  0  0  0
  1  2  1  0  0  0  0
  2  3  1  0  0  0  0
  2 10  1  0  0  0  0
  2 22  1  0  0  0  0
  3  4  1  0  0  0  0
  4  5  1  0  0  0  0
  5  6  1  0  0  0  0
  5 10  1  0  0  0  0
  6  7  1  0  0  0  0
  6 20  1  0  0  0  0
  7  8  1  0  0  0  0
  7 12  1  0  0  0  0
  8  9  1  0  0  0  0
  9 10  1  0  0  0  0
 10 11  1  0  0  0  0
 12 13  1  0  0  0  0
 12 18  1  0  0  0  0
 12 21  1  0  0  0  0
 13 14  2  0  0  0  0
 13 19  1  0  0  0  0
 14 15  1  0  0  0  0
 15 16  2  0  0  0  0
 15 17  1  0  0  0  0
 17 18  1  0  0  0  0
 19 20  1  0  0  0  0
 22 23  3  0  0  0  0
M  END
>  <Index>
1330

>  <ID>
HT3423

>  <class>
0

>  <apol>
57.234203

>  <ast_fraglike>
0

>  <ast_fraglike_ext>
0

>  <ast_violation>
2

>  <ast_violation_ext>
2

>  <a_acc>
2

>  <a_acid>
0

>  <a_aro>
0

>  <a_base>
0

>  <a_count>
51

>  <a_don>
1

>  <a_donacc>
3

>  <a_heavy>
23

>  <a_hyd>
20

>  <a_IC>
60.449089

>  <a_ICM>
1.1852763

>  <a_nB>
0

>  <a_nBr>
0

>  <a_nC>
21

>  <a_nCl>
0

>  <a_nF>
0

>  <a_nH>
28

>  <a_nI>
0

>  <a_nN>
0

>  <a_nO>
2

>  <a_nP>
0

>  <a_nS>
0

>  <balabanJ>
1.6312265

>  <BCUT_PEOE_0>
-2.9429076

>  <BCUT_PEOE_1>
-0.51462632

>  <BCUT_PEOE_2>
0.46200222

>  <BCUT_PEOE_3>
2.9619639

>  <BCUT_SLOGP_0>
-2.8643041

>  <BCUT_SLOGP_1>
-0.4578748

>  <BCUT_SLOGP_2>
0.47254881

>  <BCUT_SLOGP_3>
3.0334904

>  <BCUT_SMR_0>
-2.688081

>  <BCUT_SMR_1>
-0.33168712

>  <BCUT_SMR_2>
0.64113706

>  <BCUT_SMR_3>
3.2115765

>  <bpol>
31.567797

>  <b_1rotN>
0

>  <b_1rotR>
0

>  <b_ar>
0

>  <b_count>
54

>  <b_double>
2

>  <b_heavy>
26

>  <b_max1len>
3

>  <b_rotN>
1

>  <b_rotR>
0.03846154

>  <b_single>
51

>  <b_triple>
1

>  <chi0>
16.457819

>  <chi0v>
14.399068

>  <chi0v_C>
13.543606

>  <chi0_C>
14.457819

>  <chi1>
10.839101

>  <chi1v>
9.2802849

>  <chi1v_C>
8.8525543

>  <chi1_C>
9.7617502

>  <chiral>
6

>  <chiral_u>
6

>  <density>
0.6743778

>  <diameter>
11

>  <FCharge>
0

>  <GCUT_PEOE_0>
-0.79380322

>  <GCUT_PEOE_1>
-0.37774864

>  <GCUT_PEOE_2>
0.013840009

>  <GCUT_PEOE_3>
3.285089

>  <GCUT_SLOGP_0>
-0.88826478

>  <GCUT_SLOGP_1>
-0.31155914

>  <GCUT_SLOGP_2>
-0.0011834484

>  <GCUT_SLOGP_3>
3.3677521

>  <GCUT_SMR_0>
-0.53898191

>  <GCUT_SMR_1>
-0.20894657

>  <GCUT_SMR_2>
0.14623766

>  <GCUT_SMR_3>
3.5136616

>  <Kier1>
16.467455

>  <Kier2>
5.2471604

>  <Kier3>
2.0828402

>  <KierA1>
14.352071

>  <KierA2>
4.5429964

>  <KierA3>
1.7943195

>  <KierFlex>
2.8348436

>  <lip_acc>
2

>  <lip_don>
1

>  <lip_druglike>
1

>  <lip_violation>
0

>  <logP(o/w)>
3.474

>  <logS>
-5.38272

>  <mr>
9.0687723

>  <mutagenic>
0

>  <nmol>
1

>  <opr_brigid>
21

>  <opr_leadlike>
1

>  <opr_nring>
4

>  <opr_nrot>
1

>  <opr_violation>
0

>  <PC+>
0

>  <PC->
0

>  <PEOE_PC+>
1.4076176

>  <PEOE_PC->
-1.4076176

>  <PEOE_RPC+>
0.15018769

>  <PEOE_RPC->
0.26710927

>  <PEOE_VSA+0>
115.33596

>  <PEOE_VSA+1>
4.2653861

>  <PEOE_VSA+2>
4.2653861

>  <PEOE_VSA+3>
8.458519

>  <PEOE_VSA+4>
10.324173

>  <PEOE_VSA+5>
0

>  <PEOE_VSA+6>
0

>  <PEOE_VSA-0>
73.164093

>  <PEOE_VSA-1>
55.51239

>  <PEOE_VSA-2>
25.854858

>  <PEOE_VSA-3>
0

>  <PEOE_VSA-4>
0

>  <PEOE_VSA-5>
13.566921

>  <PEOE_VSA-6>
7.7675405

>  <PEOE_VSA_FHYD>
0.90060562

>  <PEOE_VSA_FNEG>
0.5521425

>  <PEOE_VSA_FPNEG>
0.066980973

>  <PEOE_VSA_FPOL>
0.099394411

>  <PEOE_VSA_FPOS>
0.44785747

>  <PEOE_VSA_FPPOS>
0.032413434

>  <PEOE_VSA_HYD>
286.8566

>  <PEOE_VSA_NEG>
175.8658

>  <PEOE_VSA_PNEG>
21.334461

>  <PEOE_VSA_POL>
31.658634

>  <PEOE_VSA_POS>
142.64943

>  <PEOE_VSA_PPOS>
10.324173

>  <petitjean>
0.45454547

>  <petitjeanSC>
0.83333331

>  <Q_PC+>
0

>  <Q_PC->
0

>  <Q_RPC+>
0

>  <Q_RPC->
0

>  <Q_VSA_FHYD>
1

>  <Q_VSA_FNEG>
0

>  <Q_VSA_FPNEG>
0

>  <Q_VSA_FPOL>
0

>  <Q_VSA_FPOS>
1

>  <Q_VSA_FPPOS>
0

>  <Q_VSA_HYD>
318.51523

>  <Q_VSA_NEG>
0

>  <Q_VSA_PNEG>
0

>  <Q_VSA_POL>
0

>  <Q_VSA_POS>
318.51523

>  <Q_VSA_PPOS>
0

>  <radius>
6

>  <reactive>
1

>  <rings>
4

>  <RPC+>
0

>  <RPC->
0

>  <rsynth>
0

>  <SlogP>
3.8826079

>  <SlogP_VSA0>
25.385227

>  <SlogP_VSA1>
5.6876111

>  <SlogP_VSA2>
23.862217

>  <SlogP_VSA3>
17.030573

>  <SlogP_VSA4>
44.72057

>  <SlogP_VSA5>
3.185575

>  <SlogP_VSA6>
0

>  <SlogP_VSA7>
17.643185

>  <SlogP_VSA8>
150.94725

>  <SlogP_VSA9>
66.652031

>  <SMR>
9.0492802

>  <SMR_VSA0>
23.862217

>  <SMR_VSA1>
25.385227

>  <SMR_VSA2>
13.232388

>  <SMR_VSA3>
20.216148

>  <SMR_VSA4>
0

>  <SMR_VSA5>
168.59042

>  <SMR_VSA6>
37.175793

>  <SMR_VSA7>
66.652031

>  <TPSA>
37.299999

>  <VAdjEq>
0.46357921

>  <VAdjMa>
5.7004399

>  <VDistEq>
3.0615723

>  <VDistMa>
8.7692938

>  <vdw_area>
318.51523

>  <vdw_vol>
463.3204

>  <vsa_acc>
13.566921

>  <vsa_acid>
0

>  <vsa_base>
0

>  <vsa_don>
0

>  <vsa_hyd>
255.14445

>  <vsa_other>
8.458519

>  <vsa_pol>
27.133842

>  <Weight>
312.453

>  <weinerPath>
1034

>  <weinerPol>
51

>  <zagreb>
138

$$$$