N12C(C3CC(C4N(C3)CCCC4)C1)CCCC2
  MOE2013           2D

 17 20  0  0  1  0  0  0  0  0999 V2000
    0.0000    0.0000    0.0000 N   0  0  3  0  0  0  0  0  0  0  0  0
    0.7440    1.3060    0.0000 C   0  0  3  0  0  0  0  0  0  0  0  0
   -0.6260    2.4300    0.0000 C   0  0  3  0  0  0  0  0  0  0  0  0
   -1.5400    3.5700    0.0000 C   0  0  0  0  0  0  0  0  0  0  0  0
   -1.6230    2.3070    0.0000 C   0  0  3  0  0  0  0  0  0  0  0  0
   -2.7250    1.0820    0.0000 C   0  0  3  0  0  0  0  0  0  0  0  0
   -1.8070   -0.0450    0.0000 N   0  0  3  0  0  0  0  0  0  0  0  0
   -1.7660    1.1350    0.0000 C   0  0  0  0  0  0  0  0  0  0  0  0
   -2.3100   -1.4520    0.0000 C   0  0  0  0  0  0  0  0  0  0  0  0
   -3.7880   -1.7120    0.0000 C   0  0  0  0  0  0  0  0  0  0  0  0
   -4.7500   -0.5620    0.0000 C   0  0  0  0  0  0  0  0  0  0  0  0
   -4.2360    0.8470    0.0000 C   0  0  0  0  0  0  0  0  0  0  0  0
   -0.2780    1.2500    0.0000 C   0  0  0  0  0  0  0  0  0  0  0  0
    2.2440    1.3130    0.0000 C   0  0  0  0  0  0  0  0  0  0  0  0
    3.0010    0.0210    0.0000 C   0  0  0  0  0  0  0  0  0  0  0  0
    2.2590   -1.2830    0.0000 C   0  0  0  0  0  0  0  0  0  0  0  0
    0.7590   -1.2910    0.0000 C   0  0  0  0  0  0  0  0  0  0  0  0
  1  2  1  0  0  0  0
  1 13  1  0  0  0  0
  1 17  1  0  0  0  0
  2  3  1  0  0  0  0
  2 14  1  0  0  0  0
  3  4  1  0  0  0  0
  3  8  1  0  0  0  0
  4  5  1  0  0  0  0
  5  6  1  0  0  0  0
  5 13  1  0  0  0  0
  6  7  1  0  0  0  0
  6 12  1  0  0  0  0
  7  8  1  0  0  0  0
  7  9  1  0  0  0  0
  9 10  1  0  0  0  0
 10 11  1  0  0  0  0
 11 12  1  0  0  0  0
 14 15  1  0  0  0  0
 15 16  1  0  0  0  0
 16 17  1  0  0  0  0
M  END
>  <Index>
1279

>  <ID>
HT3021

>  <class>
0

>  <apol>
45.936619

>  <ast_fraglike>
1

>  <ast_fraglike_ext>
1

>  <ast_violation>
0

>  <ast_violation_ext>
0

>  <a_acc>
2

>  <a_acid>
0

>  <a_aro>
0

>  <a_base>
0

>  <a_count>
43

>  <a_don>
0

>  <a_donacc>
2

>  <a_heavy>
17

>  <a_hyd>
15

>  <a_IC>
50.514591

>  <a_ICM>
1.174758

>  <a_nB>
0

>  <a_nBr>
0

>  <a_nC>
15

>  <a_nCl>
0

>  <a_nF>
0

>  <a_nH>
26

>  <a_nI>
0

>  <a_nN>
2

>  <a_nO>
0

>  <a_nP>
0

>  <a_nS>
0

>  <balabanJ>
1.5611579

>  <BCUT_PEOE_0>
-2.9745049

>  <BCUT_PEOE_1>
-0.53803438

>  <BCUT_PEOE_2>
0.57017809

>  <BCUT_PEOE_3>
2.8984683

>  <BCUT_SLOGP_0>
-3.0064154

>  <BCUT_SLOGP_1>
-0.48779213

>  <BCUT_SLOGP_2>
0.63703984

>  <BCUT_SLOGP_3>
2.8995447

>  <BCUT_SMR_0>
-2.7040098

>  <BCUT_SMR_1>
-0.4224962

>  <BCUT_SMR_2>
0.69783658

>  <BCUT_SMR_3>
3.1641991

>  <bpol>
32.383381

>  <b_1rotN>
0

>  <b_1rotR>
0

>  <b_ar>
0

>  <b_count>
46

>  <b_double>
0

>  <b_heavy>
20

>  <b_max1len>
2

>  <b_rotN>
0

>  <b_rotR>
0

>  <b_single>
46

>  <b_triple>
0

>  <chi0>
11.242276

>  <chi0v>
10.982003

>  <chi0v_C>
10.087576

>  <chi0_C>
10.087576

>  <chi1>
8.4158163

>  <chi1v>
7.8974652

>  <chi1v_C>
6.1161566

>  <chi1_C>
6.1161566

>  <chiral>
4

>  <chiral_u>
4

>  <density>
0.6500724

>  <diameter>
8

>  <FCharge>
0

>  <GCUT_PEOE_0>
-0.85373276

>  <GCUT_PEOE_1>
-0.37838942

>  <GCUT_PEOE_2>
0.036453683

>  <GCUT_PEOE_3>
3.0925055

>  <GCUT_SLOGP_0>
-0.9549644

>  <GCUT_SLOGP_1>
-0.32480195

>  <GCUT_SLOGP_2>
0.10679341

>  <GCUT_SLOGP_3>
3.1120698

>  <GCUT_SMR_0>
-0.53041667

>  <GCUT_SMR_1>
-0.23366773

>  <GCUT_SMR_2>
0.13084683

>  <GCUT_SMR_3>
3.3226237

>  <Kier1>
10.88

>  <Kier2>
4.2806182

>  <Kier3>
1.7777778

>  <KierA1>
10.88

>  <KierA2>
4.2806182

>  <KierA3>
1.7777778

>  <KierFlex>
2.7395957

>  <lip_acc>
2

>  <lip_don>
0

>  <lip_druglike>
1

>  <lip_violation>
0

>  <logP(o/w)>
2.546

>  <logS>
-1.54673

>  <mr>
6.9370184

>  <mutagenic>
0

>  <nmol>
1

>  <opr_brigid>
20

>  <opr_leadlike>
1

>  <opr_nring>
4

>  <opr_nrot>
0

>  <opr_violation>
0

>  <PC+>
0

>  <PC->
0

>  <PEOE_PC+>
0.92114866

>  <PEOE_PC->
-0.92114866

>  <PEOE_RPC+>
0.050542012

>  <PEOE_RPC->
0.32434508

>  <PEOE_VSA+0>
143.57661

>  <PEOE_VSA+1>
0

>  <PEOE_VSA+2>
0

>  <PEOE_VSA+3>
0

>  <PEOE_VSA+4>
0

>  <PEOE_VSA+5>
0

>  <PEOE_VSA+6>
0

>  <PEOE_VSA-0>
69.891212

>  <PEOE_VSA-1>
17.402626

>  <PEOE_VSA-2>
0

>  <PEOE_VSA-3>
0

>  <PEOE_VSA-4>
0

>  <PEOE_VSA-5>
0

>  <PEOE_VSA-6>
0

>  <PEOE_VSA_FHYD>
1

>  <PEOE_VSA_FNEG>
0.37810749

>  <PEOE_VSA_FPNEG>
0

>  <PEOE_VSA_FPOL>
0

>  <PEOE_VSA_FPOS>
0.62189251

>  <PEOE_VSA_FPPOS>
0

>  <PEOE_VSA_HYD>
230.87045

>  <PEOE_VSA_NEG>
87.293846

>  <PEOE_VSA_PNEG>
0

>  <PEOE_VSA_POL>
0

>  <PEOE_VSA_POS>
143.57661

>  <PEOE_VSA_PPOS>
0

>  <petitjean>
0.375

>  <petitjeanSC>
0.60000002

>  <Q_PC+>
0

>  <Q_PC->
0

>  <Q_RPC+>
0

>  <Q_RPC->
0

>  <Q_VSA_FHYD>
1

>  <Q_VSA_FNEG>
0

>  <Q_VSA_FPNEG>
0

>  <Q_VSA_FPOL>
0

>  <Q_VSA_FPOS>
1

>  <Q_VSA_FPPOS>
0

>  <Q_VSA_HYD>
230.87045

>  <Q_VSA_NEG>
0

>  <Q_VSA_PNEG>
0

>  <Q_VSA_POL>
0

>  <Q_VSA_POS>
230.87045

>  <Q_VSA_PPOS>
0

>  <radius>
5

>  <reactive>
0

>  <rings>
4

>  <RPC+>
0

>  <RPC->
0

>  <rsynth>
0

>  <SlogP>
2.3450999

>  <SlogP_VSA0>
0

>  <SlogP_VSA1>
6.2486277

>  <SlogP_VSA2>
7.9639373

>  <SlogP_VSA3>
73.758316

>  <SlogP_VSA4>
8.8215923

>  <SlogP_VSA5>
0

>  <SlogP_VSA6>
0

>  <SlogP_VSA7>
0

>  <SlogP_VSA8>
132.07884

>  <SlogP_VSA9>
0

>  <SMR>
7.0021

>  <SMR_VSA0>
0

>  <SMR_VSA1>
6.2486277

>  <SMR_VSA2>
8.8215923

>  <SMR_VSA3>
7.9639373

>  <SMR_VSA4>
0

>  <SMR_VSA5>
132.07884

>  <SMR_VSA6>
73.758316

>  <SMR_VSA7>
0

>  <TPSA>
6.48

>  <VAdjEq>
0.58005506

>  <VAdjMa>
5.321928

>  <VDistEq>
2.7249796

>  <VDistMa>
7.892899

>  <vdw_area>
230.87045

>  <vdw_vol>
360.55521

>  <vsa_acc>
0

>  <vsa_acid>
0

>  <vsa_base>
0

>  <vsa_don>
0

>  <vsa_hyd>
209.67368

>  <vsa_other>
0

>  <vsa_pol>
0

>  <Weight>
234.38699

>  <weinerPath>
458

>  <weinerPol>
30

>  <zagreb>
98

$$$$