OC(=O)c1ccccc1
  MOE2013           2D

  9  9  0  0  0  0  0  0  0  0999 V2000
    0.0000    0.0000    0.0000 O   0  0  0  0  0  0  0  0  0  0  0  0
    0.7500   -1.2990    0.0000 C   0  0  0  0  0  0  0  0  0  0  0  0
    0.0000   -2.5980    0.0000 O   0  0  0  0  0  0  0  0  0  0  0  0
    2.2500   -1.2990    0.0000 C   0  0  0  0  0  0  0  0  0  0  0  0
    3.0000   -2.5980    0.0000 C   0  0  0  0  0  0  0  0  0  0  0  0
    4.5000   -2.5980    0.0000 C   0  0  0  0  0  0  0  0  0  0  0  0
    5.2500   -1.2990    0.0000 C   0  0  0  0  0  0  0  0  0  0  0  0
    4.5000    0.0000    0.0000 C   0  0  0  0  0  0  0  0  0  0  0  0
    3.0000    0.0000    0.0000 C   0  0  0  0  0  0  0  0  0  0  0  0
  1  2  1  0  0  0  0
  2  3  2  0  0  0  0
  2  4  1  0  0  0  0
  4  5  1  0  0  0  0
  4  9  2  0  0  0  0
  5  6  2  0  0  0  0
  6  7  1  0  0  0  0
  7  8  2  0  0  0  0
  8  9  1  0  0  0  0
M  END
>  <Index>
123

>  <ID>
HT0249

>  <class>
0

>  <apol>
17.924759

>  <ast_fraglike>
1

>  <ast_fraglike_ext>
1

>  <ast_violation>
0

>  <ast_violation_ext>
0

>  <a_acc>
2

>  <a_acid>
0

>  <a_aro>
6

>  <a_base>
0

>  <a_count>
15

>  <a_don>
2

>  <a_donacc>
4

>  <a_heavy>
9

>  <a_hyd>
6

>  <a_IC>
21.442099

>  <a_ICM>
1.4294733

>  <a_nB>
0

>  <a_nBr>
0

>  <a_nC>
7

>  <a_nCl>
0

>  <a_nF>
0

>  <a_nH>
6

>  <a_nI>
0

>  <a_nN>
0

>  <a_nO>
2

>  <a_nP>
0

>  <a_nS>
0

>  <balabanJ>
2.2906082

>  <BCUT_PEOE_0>
-2.1609256

>  <BCUT_PEOE_1>
-0.63632387

>  <BCUT_PEOE_2>
0.6890161

>  <BCUT_PEOE_3>
2.1639042

>  <BCUT_SLOGP_0>
-2.1051879

>  <BCUT_SLOGP_1>
-0.54315341

>  <BCUT_SLOGP_2>
0.76243216

>  <BCUT_SLOGP_3>
2.2676179

>  <BCUT_SMR_0>
-1.8467311

>  <BCUT_SMR_1>
-0.46584502

>  <BCUT_SMR_2>
0.83215487

>  <BCUT_SMR_3>
2.4730387

>  <bpol>
7.517242

>  <b_1rotN>
1

>  <b_1rotR>
0.11111111

>  <b_ar>
6

>  <b_count>
15

>  <b_double>
1

>  <b_heavy>
9

>  <b_max1len>
1

>  <b_rotN>
1

>  <b_rotR>
0.11111111

>  <b_single>
8

>  <b_triple>
0

>  <chi0>
6.6902347

>  <chi0v>
4.7422132

>  <chi0v_C>
3.8867514

>  <chi0_C>
4.6902347

>  <chi1>
4.3045306

>  <chi1v>
2.5884144

>  <chi1v_C>
2.1606836

>  <chi1_C>
3.1498299

>  <chiral>
0

>  <chiral_u>
0

>  <density>
0.74922007

>  <diameter>
5

>  <FCharge>
0

>  <GCUT_PEOE_0>
-0.74657285

>  <GCUT_PEOE_1>
-0.42395213

>  <GCUT_PEOE_2>
0.1107562

>  <GCUT_PEOE_3>
1.9421742

>  <GCUT_SLOGP_0>
-0.85410458

>  <GCUT_SLOGP_1>
-0.3109673

>  <GCUT_SLOGP_2>
0.18222699

>  <GCUT_SLOGP_3>
2.0490565

>  <GCUT_SMR_0>
-0.40451828

>  <GCUT_SMR_1>
-0.22441636

>  <GCUT_SMR_2>
0.21903294

>  <GCUT_SMR_3>
2.2351949

>  <Kier1>
7.1111112

>  <Kier2>
3.2396693

>  <Kier3>
2

>  <KierA1>
4.6822257

>  <KierA2>
2.0043066

>  <KierA3>
1.163252

>  <KierFlex>
1.0427351

>  <lip_acc>
2

>  <lip_don>
1

>  <lip_druglike>
1

>  <lip_violation>
0

>  <logP(o/w)>
1.5829999

>  <logS>
-1.35428

>  <mr>
3.4539573

>  <mutagenic>
0

>  <nmol>
1

>  <opr_brigid>
6

>  <opr_leadlike>
1

>  <opr_nring>
1

>  <opr_nrot>
1

>  <opr_violation>
0

>  <PC+>
0

>  <PC->
0

>  <PEOE_PC+>
0.86843967

>  <PEOE_PC->
-0.86843967

>  <PEOE_RPC+>
0.33535516

>  <PEOE_RPC->
0.37710103

>  <PEOE_VSA+0>
2.2085397

>  <PEOE_VSA+1>
21.326929

>  <PEOE_VSA+2>
0

>  <PEOE_VSA+3>
0

>  <PEOE_VSA+4>
10.324173

>  <PEOE_VSA+5>
14.708499

>  <PEOE_VSA+6>
0

>  <PEOE_VSA-0>
24.509808

>  <PEOE_VSA-1>
36.764713

>  <PEOE_VSA-2>
0

>  <PEOE_VSA-3>
0

>  <PEOE_VSA-4>
0

>  <PEOE_VSA-5>
13.566921

>  <PEOE_VSA-6>
7.7675405

>  <PEOE_VSA_FHYD>
0.64653033

>  <PEOE_VSA_FNEG>
0.62975144

>  <PEOE_VSA_FPNEG>
0.16263857

>  <PEOE_VSA_FPOL>
0.35346967

>  <PEOE_VSA_FPOS>
0.37024856

>  <PEOE_VSA_FPPOS>
0.19083108

>  <PEOE_VSA_HYD>
84.80999

>  <PEOE_VSA_NEG>
82.608978

>  <PEOE_VSA_PNEG>
21.334461

>  <PEOE_VSA_POL>
46.367134

>  <PEOE_VSA_POS>
48.568142

>  <PEOE_VSA_PPOS>
25.032671

>  <petitjean>
0.40000001

>  <petitjeanSC>
0.66666669

>  <Q_PC+>
0

>  <Q_PC->
0

>  <Q_RPC+>
0

>  <Q_RPC->
0

>  <Q_VSA_FHYD>
1

>  <Q_VSA_FNEG>
0

>  <Q_VSA_FPNEG>
0

>  <Q_VSA_FPOL>
0

>  <Q_VSA_FPOS>
1

>  <Q_VSA_FPPOS>
0

>  <Q_VSA_HYD>
131.17712

>  <Q_VSA_NEG>
0

>  <Q_VSA_PNEG>
0

>  <Q_VSA_POL>
0

>  <Q_VSA_POS>
131.17712

>  <Q_VSA_PPOS>
0

>  <radius>
3

>  <reactive>
0

>  <rings>
1

>  <RPC+>
0

>  <RPC->
0

>  <rsynth>
1

>  <SlogP>
1.3848

>  <SlogP_VSA0>
0

>  <SlogP_VSA1>
7.7454643

>  <SlogP_VSA2>
0

>  <SlogP_VSA3>
25.385227

>  <SlogP_VSA4>
27.047791

>  <SlogP_VSA5>
0

>  <SlogP_VSA6>
0

>  <SlogP_VSA7>
88.215919

>  <SlogP_VSA8>
0

>  <SlogP_VSA9>
0

>  <SMR>
3.3401301

>  <SMR_VSA0>
23.862217

>  <SMR_VSA1>
0

>  <SMR_VSA2>
25.385227

>  <SMR_VSA3>
3.185575

>  <SMR_VSA4>
0

>  <SMR_VSA5>
88.215919

>  <SMR_VSA6>
7.7454643

>  <SMR_VSA7>
0

>  <TPSA>
37.299999

>  <VAdjEq>
0.7642045

>  <VAdjMa>
4.1699252

>  <VDistEq>
2.1498685

>  <VDistMa>
6.0047355

>  <vdw_area>
131.17712

>  <vdw_vol>
163.00017

>  <vsa_acc>
0

>  <vsa_acid>
0

>  <vsa_base>
0

>  <vsa_don>
0

>  <vsa_hyd>
81.251015

>  <vsa_other>
14.708499

>  <vsa_pol>
27.133842

>  <Weight>
122.12299

>  <weinerPath>
88

>  <weinerPol>
9

>  <zagreb>
40

$$$$