OC(=O)CN(CC(=O)Nc1c(cccc1C(C)C)C(C)C)CC(O)=O
  MOE2013           2D

 25 25  0  0  0  0  0  0  0  0999 V2000
    0.0000    0.0000    0.0000 O   0  0  0  0  0  0  0  0  0  0  0  0
   -1.3040   -0.7410    0.0000 C   0  0  0  0  0  0  0  0  0  0  0  0
   -1.3140   -2.2410    0.0000 O   0  0  0  0  0  0  0  0  0  0  0  0
   -2.5980    0.0180    0.0000 C   0  0  0  0  0  0  0  0  0  0  0  0
   -2.5880    1.5180    0.0000 N   0  0  0  0  0  0  0  0  0  0  0  0
   -3.8820    2.2760    0.0000 C   0  0  0  0  0  0  0  0  0  0  0  0
   -5.1860    1.5350    0.0000 C   0  0  0  0  0  0  0  0  0  0  0  0
   -5.1960    0.0350    0.0000 O   0  0  0  0  0  0  0  0  0  0  0  0
   -6.4800    2.2940    0.0000 N   0  0  0  0  0  0  0  0  0  0  0  0
   -6.8580    3.7450    0.0000 C   0  0  0  0  0  0  0  0  0  0  0  0
   -8.3530    3.6250    0.0000 C   0  0  0  0  0  0  0  0  0  0  0  0
   -9.2050    4.8590    0.0000 C   0  0  0  0  0  0  0  0  0  0  0  0
   -8.5620    6.2140    0.0000 C   0  0  0  0  0  0  0  0  0  0  0  0
   -7.0670    6.3350    0.0000 C   0  0  0  0  0  0  0  0  0  0  0  0
   -6.2150    5.1000    0.0000 C   0  0  0  0  0  0  0  0  0  0  0  0
   -4.7220    4.9600    0.0000 C   0  0  0  0  0  0  0  0  0  0  0  0
   -3.8530    6.1830    0.0000 C   0  0  0  0  0  0  0  0  0  0  0  0
   -4.0970    3.5960    0.0000 C   0  0  0  0  0  0  0  0  0  0  0  0
   -8.9970    2.2690    0.0000 C   0  0  0  0  0  0  0  0  0  0  0  0
   -8.1440    1.0350    0.0000 C   0  0  0  0  0  0  0  0  0  0  0  0
  -10.4920    2.1490    0.0000 C   0  0  0  0  0  0  0  0  0  0  0  0
   -1.2840    2.2590    0.0000 C   0  0  0  0  0  0  0  0  0  0  0  0
   -1.2740    3.7590    0.0000 C   0  0  0  0  0  0  0  0  0  0  0  0
   -2.5680    4.5170    0.0000 O   0  0  0  0  0  0  0  0  0  0  0  0
    0.0300    4.5000    0.0000 O   0  0  0  0  0  0  0  0  0  0  0  0
  1  2  1  0  0  0  0
  2  3  2  0  0  0  0
  2  4  1  0  0  0  0
  4  5  1  0  0  0  0
  5  6  1  0  0  0  0
  5 22  1  0  0  0  0
  6  7  1  0  0  0  0
  7  8  2  0  0  0  0
  7  9  1  0  0  0  0
  9 10  1  0  0  0  0
 10 11  1  0  0  0  0
 10 15  2  0  0  0  0
 11 12  2  0  0  0  0
 11 19  1  0  0  0  0
 12 13  1  0  0  0  0
 13 14  2  0  0  0  0
 14 15  1  0  0  0  0
 15 16  1  0  0  0  0
 16 17  1  0  0  0  0
 16 18  1  0  0  0  0
 19 20  1  0  0  0  0
 19 21  1  0  0  0  0
 22 23  1  0  0  0  0
 23 24  1  0  0  0  0
 23 25  2  0  0  0  0
M  END
>  <Index>
1352

>  <ID>
HT3599

>  <class>
0

>  <apol>
55.22662

>  <ast_fraglike>
0

>  <ast_fraglike_ext>
0

>  <ast_violation>
3

>  <ast_violation_ext>
5

>  <a_acc>
6

>  <a_acid>
0

>  <a_aro>
6

>  <a_base>
0

>  <a_count>
51

>  <a_don>
5

>  <a_donacc>
11

>  <a_heavy>
25

>  <a_hyd>
15

>  <a_IC>
78.413971

>  <a_ICM>
1.5375288

>  <a_nB>
0

>  <a_nBr>
0

>  <a_nC>
18

>  <a_nCl>
0

>  <a_nF>
0

>  <a_nH>
26

>  <a_nI>
0

>  <a_nN>
2

>  <a_nO>
5

>  <a_nP>
0

>  <a_nS>
0

>  <balabanJ>
2.7551744

>  <BCUT_PEOE_0>
-2.5836067

>  <BCUT_PEOE_1>
-0.5204342

>  <BCUT_PEOE_2>
0.46296874

>  <BCUT_PEOE_3>
2.5591953

>  <BCUT_SLOGP_0>
-2.732198

>  <BCUT_SLOGP_1>
-0.48733151

>  <BCUT_SLOGP_2>
0.39556402

>  <BCUT_SLOGP_3>
2.6895492

>  <BCUT_SMR_0>
-2.3099232

>  <BCUT_SMR_1>
-0.30854115

>  <BCUT_SMR_2>
0.59381914

>  <BCUT_SMR_3>
2.8297095

>  <bpol>
33.937382

>  <b_1rotN>
9

>  <b_1rotR>
0.36000001

>  <b_ar>
6

>  <b_count>
51

>  <b_double>
3

>  <b_heavy>
25

>  <b_max1len>
4

>  <b_rotN>
10

>  <b_rotR>
0.40000001

>  <b_single>
42

>  <b_triple>
0

>  <chi0>
19.145901

>  <chi0v>
15.074457

>  <chi0v_C>
12.008072

>  <chi0_C>
12.861443

>  <chi1>
11.611969

>  <chi1v>
8.1996975

>  <chi1v_C>
5.6914287

>  <chi1_C>
6.6839757

>  <chiral>
0

>  <chiral_u>
0

>  <density>
0.73494464

>  <diameter>
10

>  <FCharge>
0

>  <GCUT_PEOE_0>
-0.81170678

>  <GCUT_PEOE_1>
-0.43092084

>  <GCUT_PEOE_2>
0.077495307

>  <GCUT_PEOE_3>
2.7171488

>  <GCUT_SLOGP_0>
-1.0097543

>  <GCUT_SLOGP_1>
-0.31757277

>  <GCUT_SLOGP_2>
0.037110288

>  <GCUT_SLOGP_3>
2.8030231

>  <GCUT_SMR_0>
-0.52217674

>  <GCUT_SMR_1>
-0.22372305

>  <GCUT_SMR_2>
0.19169593

>  <GCUT_SMR_3>
2.9837198

>  <Kier1>
23.040001

>  <Kier2>
10.982699

>  <Kier3>
8.0443211

>  <KierA1>
18.172657

>  <KierA2>
8.5711012

>  <KierA3>
6.2281151

>  <KierFlex>
6.2303877

>  <lip_acc>
7

>  <lip_don>
3

>  <lip_druglike>
1

>  <lip_violation>
0

>  <logP(o/w)>
2.24

>  <logS>
-3.8583601

>  <mr>
9.4839783

>  <mutagenic>
0

>  <nmol>
1

>  <opr_brigid>
6

>  <opr_leadlike>
1

>  <opr_nring>
1

>  <opr_nrot>
9

>  <opr_violation>
0

>  <PC+>
0

>  <PC->
0

>  <PEOE_PC+>
2.5491979

>  <PEOE_PC->
-2.5491979

>  <PEOE_RPC+>
0.10740606

>  <PEOE_RPC->
0.12957102

>  <PEOE_VSA+0>
66.414955

>  <PEOE_VSA+1>
77.965446

>  <PEOE_VSA+2>
0

>  <PEOE_VSA+3>
8.6190128

>  <PEOE_VSA+4>
33.597878

>  <PEOE_VSA+5>
29.416998

>  <PEOE_VSA+6>
0

>  <PEOE_VSA-0>
4.4170794

>  <PEOE_VSA-1>
111.75542

>  <PEOE_VSA-2>
0

>  <PEOE_VSA-3>
0

>  <PEOE_VSA-4>
0

>  <PEOE_VSA-5>
40.700764

>  <PEOE_VSA-6>
15.671971

>  <PEOE_VSA_FHYD>
0.69274306

>  <PEOE_VSA_FNEG>
0.44406384

>  <PEOE_VSA_FPNEG>
0.14508133

>  <PEOE_VSA_FPOL>
0.30725694

>  <PEOE_VSA_FPOS>
0.55593616

>  <PEOE_VSA_FPPOS>
0.1621756

>  <PEOE_VSA_HYD>
269.17191

>  <PEOE_VSA_NEG>
172.54524

>  <PEOE_VSA_PNEG>
56.372734

>  <PEOE_VSA_POL>
119.38761

>  <PEOE_VSA_POS>
216.0143

>  <PEOE_VSA_PPOS>
63.014874

>  <petitjean>
0.5

>  <petitjeanSC>
1

>  <Q_PC+>
0

>  <Q_PC->
0

>  <Q_RPC+>
0

>  <Q_RPC->
0

>  <Q_VSA_FHYD>
1

>  <Q_VSA_FNEG>
0

>  <Q_VSA_FPNEG>
0

>  <Q_VSA_FPOL>
0

>  <Q_VSA_FPOS>
1

>  <Q_VSA_FPPOS>
0

>  <Q_VSA_HYD>
388.55954

>  <Q_VSA_NEG>
0

>  <Q_VSA_PNEG>
0

>  <Q_VSA_POL>
0

>  <Q_VSA_POS>
388.55954

>  <Q_VSA_PPOS>
0

>  <radius>
5

>  <reactive>
0

>  <rings>
1

>  <RPC+>
0

>  <RPC->
0

>  <rsynth>
1

>  <SlogP>
2.3431001

>  <SlogP_VSA0>
0

>  <SlogP_VSA1>
41.884777

>  <SlogP_VSA2>
71.586647

>  <SlogP_VSA3>
106.08919

>  <SlogP_VSA4>
6.37115

>  <SlogP_VSA5>
0

>  <SlogP_VSA6>
8.8215923

>  <SlogP_VSA7>
52.929554

>  <SlogP_VSA8>
0

>  <SlogP_VSA9>
136.06081

>  <SMR>
9.49613

>  <SMR_VSA0>
71.586647

>  <SMR_VSA1>
3.1243138

>  <SMR_VSA2>
50.770454

>  <SMR_VSA3>
15.192742

>  <SMR_VSA4>
20.767498

>  <SMR_VSA5>
52.929554

>  <SMR_VSA6>
76.068443

>  <SMR_VSA7>
133.30406

>  <TPSA>
106.94

>  <VAdjEq>
0.40217918

>  <VAdjMa>
5.643856

>  <VDistEq>
3.2840209

>  <VDistMa>
9.0217981

>  <vdw_area>
388.55954

>  <vdw_vol>
476.79099

>  <vsa_acc>
13.566921

>  <vsa_acid>
0

>  <vsa_base>
0

>  <vsa_don>
5.6825762

>  <vsa_hyd>
241.49152

>  <vsa_other>
42.366531

>  <vsa_pol>
73.517181

>  <Weight>
350.41498

>  <weinerPath>
1548

>  <weinerPol>
35

>  <zagreb>
118

$$$$