O1C(C)(C)C(=O)N(C)C1=O
  MOE2013           2D

 10 10  0  0  0  0  0  0  0  0999 V2000
    0.0000    0.0000    0.0000 O   0  0  0  0  0  0  0  0  0  0  0  0
    1.0770    1.0440    0.0000 C   0  0  0  0  0  0  0  0  0  0  0  0
    2.2240    0.0770    0.0000 C   0  0  0  0  0  0  0  0  0  0  0  0
    2.4640    1.6150    0.0000 C   0  0  0  0  0  0  0  0  0  0  0  0
    0.4170    2.3910    0.0000 C   0  0  0  0  0  0  0  0  0  0  0  0
    1.1180    3.7170    0.0000 O   0  0  0  0  0  0  0  0  0  0  0  0
   -1.0680    2.1790    0.0000 N   0  0  0  0  0  0  0  0  0  0  0  0
   -2.1120    3.2560    0.0000 C   0  0  0  0  0  0  0  0  0  0  0  0
   -1.3260    0.7020    0.0000 C   0  0  0  0  0  0  0  0  0  0  0  0
   -2.6730    0.0410    0.0000 O   0  0  0  0  0  0  0  0  0  0  0  0
  1  2  1  0  0  0  0
  1  9  1  0  0  0  0
  2  3  1  0  0  0  0
  2  4  1  0  0  0  0
  2  5  1  0  0  0  0
  5  6  2  0  0  0  0
  5  7  1  0  0  0  0
  7  8  1  0  0  0  0
  7  9  1  0  0  0  0
  9 10  2  0  0  0  0
M  END
>  <Index>
1110

>  <ID>
HT2124

>  <class>
0

>  <apol>
20.067137

>  <ast_fraglike>
1

>  <ast_fraglike_ext>
1

>  <ast_violation>
0

>  <ast_violation_ext>
0

>  <a_acc>
2

>  <a_acid>
0

>  <a_aro>
0

>  <a_base>
0

>  <a_count>
19

>  <a_don>
0

>  <a_donacc>
2

>  <a_heavy>
10

>  <a_hyd>
4

>  <a_IC>
31.916636

>  <a_ICM>
1.6798229

>  <a_nB>
0

>  <a_nBr>
0

>  <a_nC>
6

>  <a_nCl>
0

>  <a_nF>
0

>  <a_nH>
9

>  <a_nI>
0

>  <a_nN>
1

>  <a_nO>
3

>  <a_nP>
0

>  <a_nS>
0

>  <balabanJ>
2.7432702

>  <BCUT_PEOE_0>
-2.4703484

>  <BCUT_PEOE_1>
-0.23530415

>  <BCUT_PEOE_2>
0.045822226

>  <BCUT_PEOE_3>
2.652142

>  <BCUT_SLOGP_0>
-2.5736272

>  <BCUT_SLOGP_1>
0.095263831

>  <BCUT_SLOGP_2>
0.123

>  <BCUT_SLOGP_3>
2.5504284

>  <BCUT_SMR_0>
-2.2670209

>  <BCUT_SMR_1>
0.05552619

>  <BCUT_SMR_2>
0.1057

>  <BCUT_SMR_3>
2.8733728

>  <bpol>
15.650863

>  <b_1rotN>
0

>  <b_1rotR>
0

>  <b_ar>
0

>  <b_count>
19

>  <b_double>
2

>  <b_heavy>
10

>  <b_max1len>
4

>  <b_rotN>
0

>  <b_rotR>
0

>  <b_single>
17

>  <b_triple>
0

>  <chi0>
7.9391575

>  <chi0v>
6.1719584

>  <chi0v_C>
4.5

>  <chi0_C>
4.6547008

>  <chi1>
4.4491944

>  <chi1v>
2.9609237

>  <chi1v_C>
1.25

>  <chi1_C>
1.2886752

>  <chiral>
0

>  <chiral_u>
0

>  <density>
0.80644745

>  <diameter>
4

>  <FCharge>
0

>  <GCUT_PEOE_0>
-0.77247053

>  <GCUT_PEOE_1>
-0.41517067

>  <GCUT_PEOE_2>
-0.11417777

>  <GCUT_PEOE_3>
2.2481179

>  <GCUT_SLOGP_0>
-0.98265684

>  <GCUT_SLOGP_1>
-0.29521847

>  <GCUT_SLOGP_2>
-0.037

>  <GCUT_SLOGP_3>
2.1719689

>  <GCUT_SMR_0>
-0.51455796

>  <GCUT_SMR_1>
-0.12463571

>  <GCUT_SMR_2>
-0.054299999

>  <GCUT_SMR_3>
2.4602225

>  <Kier1>
8.1000004

>  <Kier2>
2.25

>  <Kier3>
1.2409972

>  <KierA1>
6.2517467

>  <KierA2>
1.680492

>  <KierA3>
0.90210575

>  <KierFlex>
1.050601

>  <lip_acc>
4

>  <lip_don>
0

>  <lip_druglike>
1

>  <lip_violation>
0

>  <logP(o/w)>
0.39399999

>  <logS>
-0.92451

>  <mr>
3.4370196

>  <mutagenic>
0

>  <nmol>
1

>  <opr_brigid>
5

>  <opr_leadlike>
1

>  <opr_nring>
1

>  <opr_nrot>
0

>  <opr_violation>
0

>  <PC+>
0

>  <PC->
0

>  <PEOE_PC+>
1.1016622

>  <PEOE_PC->
-1.1016622

>  <PEOE_RPC+>
0.33631265

>  <PEOE_RPC->
0.2559115

>  <PEOE_VSA+0>
61.627163

>  <PEOE_VSA+1>
0

>  <PEOE_VSA+2>
0

>  <PEOE_VSA+3>
0

>  <PEOE_VSA+4>
0

>  <PEOE_VSA+5>
12.949531

>  <PEOE_VSA+6>
19.199511

>  <PEOE_VSA-0>
37.495354

>  <PEOE_VSA-1>
0

>  <PEOE_VSA-2>
0

>  <PEOE_VSA-3>
0

>  <PEOE_VSA-4>
13.566921

>  <PEOE_VSA-5>
16.070677

>  <PEOE_VSA-6>
0

>  <PEOE_VSA_FHYD>
0.61601537

>  <PEOE_VSA_FNEG>
0.41721028

>  <PEOE_VSA_FPNEG>
0.18418838

>  <PEOE_VSA_FPOL>
0.3839846

>  <PEOE_VSA_FPOS>
0.58278972

>  <PEOE_VSA_FPPOS>
0.19979621

>  <PEOE_VSA_HYD>
99.12252

>  <PEOE_VSA_NEG>
67.13295

>  <PEOE_VSA_PNEG>
29.637598

>  <PEOE_VSA_POL>
61.78664

>  <PEOE_VSA_POS>
93.776207

>  <PEOE_VSA_PPOS>
32.14904

>  <petitjean>
0.25

>  <petitjeanSC>
0.33333334

>  <Q_PC+>
0

>  <Q_PC->
0

>  <Q_RPC+>
0

>  <Q_RPC->
0

>  <Q_VSA_FHYD>
1

>  <Q_VSA_FNEG>
0

>  <Q_VSA_FPNEG>
0

>  <Q_VSA_FPOL>
0

>  <Q_VSA_FPOS>
1

>  <Q_VSA_FPPOS>
0

>  <Q_VSA_HYD>
160.90916

>  <Q_VSA_NEG>
0

>  <Q_VSA_PNEG>
0

>  <Q_VSA_POL>
0

>  <Q_VSA_POS>
160.90916

>  <Q_VSA_PPOS>
0

>  <radius>
3

>  <reactive>
0

>  <rings>
1

>  <RPC+>
0

>  <RPC->
0

>  <rsynth>
1

>  <SlogP>
0.37360001

>  <SlogP_VSA0>
0

>  <SlogP_VSA1>
15.699734

>  <SlogP_VSA2>
34.862103

>  <SlogP_VSA3>
0

>  <SlogP_VSA4>
0

>  <SlogP_VSA5>
32.897186

>  <SlogP_VSA6>
0

>  <SlogP_VSA7>
0

>  <SlogP_VSA8>
0

>  <SlogP_VSA9>
90.514244

>  <SMR>
3.3329999

>  <SMR_VSA0>
58.724319

>  <SMR_VSA1>
3.1243138

>  <SMR_VSA2>
0

>  <SMR_VSA3>
0

>  <SMR_VSA4>
0

>  <SMR_VSA5>
0

>  <SMR_VSA6>
12.57542

>  <SMR_VSA7>
99.549217

>  <TPSA>
46.610001

>  <VAdjEq>
0.72192812

>  <VAdjMa>
4.321928

>  <VDistEq>
1.8889222

>  <VDistMa>
6.3680511

>  <vdw_area>
160.90916

>  <vdw_vol>
177.49699

>  <vsa_acc>
27.133842

>  <vsa_acid>
0

>  <vsa_base>
0

>  <vsa_don>
0

>  <vsa_hyd>
92.716362

>  <vsa_other>
34.652798

>  <vsa_pol>
27.133842

>  <Weight>
143.142

>  <weinerPath>
104

>  <weinerPol>
14

>  <zagreb>
52

$$$$