O=C1NC(=O)NC(=O)C1(/C(=C/CC)/C)CC
  MOE2013           2D

 16 16  0  0  0  0  0  0  0  0999 V2000
    0.0000    0.0000    0.0000 O   0  0  0  0  0  0  0  0  0  0  0  0
   -1.3050    0.7390    0.0000 C   0  0  0  0  0  0  0  0  0  0  0  0
   -2.5980   -0.0220    0.0000 N   0  0  0  0  0  0  0  0  0  0  0  0
   -3.9030    0.7170    0.0000 C   0  0  0  0  0  0  0  0  0  0  0  0
   -5.1960   -0.0440    0.0000 O   0  0  0  0  0  0  0  0  0  0  0  0
   -3.9160    2.2170    0.0000 N   0  0  0  0  0  0  0  0  0  0  0  0
   -2.6240    2.9780    0.0000 C   0  0  0  0  0  0  0  0  0  0  0  0
   -2.6360    4.4780    0.0000 O   0  0  0  0  0  0  0  0  0  0  0  0
   -1.3180    2.2390    0.0000 C   0  0  0  0  0  0  0  0  0  0  0  0
    0.1820    2.2520    0.0000 C   0  0  0  0  0  0  0  0  0  0  0  0
    0.9210    3.5570    0.0000 C   0  0  0  0  0  0  0  0  0  0  0  0
    2.4210    3.5700    0.0000 C   0  0  0  0  0  0  0  0  0  0  0  0
    3.1590    4.8750    0.0000 C   0  0  0  0  0  0  0  0  0  0  0  0
    0.9430    0.9590    0.0000 C   0  0  0  0  0  0  0  0  0  0  0  0
   -0.5790    3.5440    0.0000 C   0  0  0  0  0  0  0  0  0  0  0  0
   -1.3400    4.8370    0.0000 C   0  0  0  0  0  0  0  0  0  0  0  0
  1  2  2  0  0  0  0
  2  3  1  0  0  0  0
  2  9  1  0  0  0  0
  3  4  1  0  0  0  0
  4  5  2  0  0  0  0
  4  6  1  0  0  0  0
  6  7  1  0  0  0  0
  7  8  2  0  0  0  0
  7  9  1  0  0  0  0
  9 10  1  0  0  0  0
  9 15  1  0  0  0  0
 10 11  2  0  0  0  0
 10 14  1  0  0  0  0
 11 12  1  0  0  0  0
 12 13  1  0  0  0  0
 15 16  1  0  0  0  0
M  END
>  <Index>
1273

>  <ID>
HT2975

>  <class>
0

>  <apol>
34.634689

>  <ast_fraglike>
1

>  <ast_fraglike_ext>
1

>  <ast_violation>
0

>  <ast_violation_ext>
0

>  <a_acc>
3

>  <a_acid>
0

>  <a_aro>
0

>  <a_base>
0

>  <a_count>
32

>  <a_don>
2

>  <a_donacc>
5

>  <a_heavy>
16

>  <a_hyd>
8

>  <a_IC>
51.191364

>  <a_ICM>
1.5997301

>  <a_nB>
0

>  <a_nBr>
0

>  <a_nC>
11

>  <a_nCl>
0

>  <a_nF>
0

>  <a_nH>
16

>  <a_nI>
0

>  <a_nN>
2

>  <a_nO>
3

>  <a_nP>
0

>  <a_nS>
0

>  <balabanJ>
2.9208007

>  <BCUT_PEOE_0>
-2.5938599

>  <BCUT_PEOE_1>
-0.43886924

>  <BCUT_PEOE_2>
0.37216431

>  <BCUT_PEOE_3>
2.67542

>  <BCUT_SLOGP_0>
-2.7740827

>  <BCUT_SLOGP_1>
-0.28211856

>  <BCUT_SLOGP_2>
0.35742381

>  <BCUT_SLOGP_3>
2.6600914

>  <BCUT_SMR_0>
-2.3523912

>  <BCUT_SMR_1>
-0.22953513

>  <BCUT_SMR_2>
0.52033651

>  <BCUT_SMR_3>
2.914376

>  <bpol>
21.685312

>  <b_1rotN>
3

>  <b_1rotR>
0.1875

>  <b_ar>
0

>  <b_count>
32

>  <b_double>
4

>  <b_heavy>
16

>  <b_max1len>
6

>  <b_rotN>
3

>  <b_rotR>
0.1875

>  <b_single>
28

>  <b_triple>
0

>  <chi0>
12.344935

>  <chi0v>
9.7163086

>  <chi0v_C>
7.4915638

>  <chi0_C>
7.9307213

>  <chi1>
7.4844351

>  <chi1v>
5.3270626

>  <chi1v_C>
3.7146904

>  <chi1_C>
4.119391

>  <chiral>
0

>  <chiral_u>
0

>  <density>
0.75020915

>  <diameter>
8

>  <FCharge>
0

>  <GCUT_PEOE_0>
-0.78149593

>  <GCUT_PEOE_1>
-0.42990446

>  <GCUT_PEOE_2>
0.018482732

>  <GCUT_PEOE_3>
2.5728183

>  <GCUT_SLOGP_0>
-1.183827

>  <GCUT_SLOGP_1>
-0.33732635

>  <GCUT_SLOGP_2>
4.5050774e-006

>  <GCUT_SLOGP_3>
2.5679142

>  <GCUT_SMR_0>
-0.52088714

>  <GCUT_SMR_1>
-0.19920297

>  <GCUT_SMR_2>
0.11982137

>  <GCUT_SMR_3>
2.8102145

>  <Kier1>
14.0625

>  <Kier2>
5.5576558

>  <Kier3>
2.4882812

>  <KierA1>
10.322754

>  <KierA2>
3.9874763

>  <KierA3>
1.7547607

>  <KierFlex>
2.5726085

>  <lip_acc>
5

>  <lip_don>
2

>  <lip_druglike>
1

>  <lip_violation>
0

>  <logP(o/w)>
1.219

>  <logS>
-2.9869599

>  <mr>
5.9937625

>  <mutagenic>
0

>  <nmol>
1

>  <opr_brigid>
7

>  <opr_leadlike>
1

>  <opr_nring>
1

>  <opr_nrot>
3

>  <opr_violation>
0

>  <PC+>
0

>  <PC->
0

>  <PEOE_PC+>
1.7147452

>  <PEOE_PC->
-1.7147452

>  <PEOE_RPC+>
0.19187738

>  <PEOE_RPC->
0.16181585

>  <PEOE_VSA+0>
55.45002

>  <PEOE_VSA+1>
4.2653861

>  <PEOE_VSA+2>
0

>  <PEOE_VSA+3>
17.238026

>  <PEOE_VSA+4>
25.899061

>  <PEOE_VSA+5>
0

>  <PEOE_VSA+6>
17.440542

>  <PEOE_VSA-0>
36.150303

>  <PEOE_VSA-1>
51.958797

>  <PEOE_VSA-2>
0

>  <PEOE_VSA-3>
0

>  <PEOE_VSA-4>
13.566921

>  <PEOE_VSA-5>
27.407623

>  <PEOE_VSA-6>
0

>  <PEOE_VSA_FHYD>
0.6619004

>  <PEOE_VSA_FNEG>
0.51762515

>  <PEOE_VSA_FPNEG>
0.16430785

>  <PEOE_VSA_FPOL>
0.33809957

>  <PEOE_VSA_FPOS>
0.48237482

>  <PEOE_VSA_FPPOS>
0.17379172

>  <PEOE_VSA_HYD>
165.06253

>  <PEOE_VSA_NEG>
129.08365

>  <PEOE_VSA_PNEG>
40.974545

>  <PEOE_VSA_POL>
84.314148

>  <PEOE_VSA_POS>
120.29304

>  <PEOE_VSA_PPOS>
43.339603

>  <petitjean>
0.5

>  <petitjeanSC>
1

>  <Q_PC+>
0

>  <Q_PC->
0

>  <Q_RPC+>
0

>  <Q_RPC->
0

>  <Q_VSA_FHYD>
1

>  <Q_VSA_FNEG>
0

>  <Q_VSA_FPNEG>
0

>  <Q_VSA_FPOL>
0

>  <Q_VSA_FPOS>
1

>  <Q_VSA_FPPOS>
0

>  <Q_VSA_HYD>
249.37668

>  <Q_VSA_NEG>
0

>  <Q_VSA_PNEG>
0

>  <Q_VSA_POL>
0

>  <Q_VSA_POS>
249.37668

>  <Q_VSA_PPOS>
0

>  <radius>
4

>  <reactive>
0

>  <rings>
1

>  <RPC+>
0

>  <RPC->
0

>  <rsynth>
0.375

>  <SlogP>
1.1051

>  <SlogP_VSA0>
36.0215

>  <SlogP_VSA1>
15.347524

>  <SlogP_VSA2>
47.724434

>  <SlogP_VSA3>
0

>  <SlogP_VSA4>
0

>  <SlogP_VSA5>
3.185575

>  <SlogP_VSA6>
0

>  <SlogP_VSA7>
17.643185

>  <SlogP_VSA8>
37.736813

>  <SlogP_VSA9>
123.84026

>  <SMR>
5.8453398

>  <SMR_VSA0>
71.586647

>  <SMR_VSA1>
0

>  <SMR_VSA2>
36.0215

>  <SMR_VSA3>
3.185575

>  <SMR_VSA4>
0

>  <SMR_VSA5>
55.379993

>  <SMR_VSA6>
15.347524

>  <SMR_VSA7>
99.978043

>  <TPSA>
75.269997

>  <VAdjEq>
0.54356444

>  <VAdjMa>
5

>  <VDistEq>
2.6073875

>  <VDistMa>
7.7428861

>  <vdw_area>
249.37668

>  <vdw_vol>
298.92996

>  <vsa_acc>
40.700764

>  <vsa_acid>
0

>  <vsa_base>
0

>  <vsa_don>
11.365152

>  <vsa_hyd>
137.85938

>  <vsa_other>
43.339603

>  <vsa_pol>
52.065914

>  <Weight>
224.25999

>  <weinerPath>
398

>  <weinerPol>
29

>  <zagreb>
78

$$$$