S=C(Oc1cc2c(cc1)cccc2)N(C)c1cc(ccc1)C
  MOE2013           2D

 22 24  0  0  0  0  0  0  0  0999 V2000
    0.0000    0.0000    0.0000 S   0  0  0  0  0  0  0  0  0  0  0  0
    0.0000    1.5000    0.0000 C   0  0  0  0  0  0  0  0  0  0  0  0
   -1.2990    2.2500    0.0000 O   0  0  0  0  0  0  0  0  0  0  0  0
   -2.5980    1.5000    0.0000 C   0  0  0  0  0  0  0  0  0  0  0  0
   -3.8980    2.2490    0.0000 C   0  0  0  0  0  0  0  0  0  0  0  0
   -5.1960    1.4990    0.0000 C   0  0  0  0  0  0  0  0  0  0  0  0
   -5.1960   -0.0010    0.0000 C   0  0  0  0  0  0  0  0  0  0  0  0
   -3.8970   -0.7510    0.0000 C   0  0  0  0  0  0  0  0  0  0  0  0
   -2.5980    0.0000    0.0000 C   0  0  0  0  0  0  0  0  0  0  0  0
   -6.4950   -0.7510    0.0000 C   0  0  0  0  0  0  0  0  0  0  0  0
   -7.7940   -0.0010    0.0000 C   0  0  0  0  0  0  0  0  0  0  0  0
   -7.7950    1.4990    0.0000 C   0  0  0  0  0  0  0  0  0  0  0  0
   -6.4960    2.2490    0.0000 C   0  0  0  0  0  0  0  0  0  0  0  0
    1.2990    2.2500    0.0000 N   0  0  0  0  0  0  0  0  0  0  0  0
    1.2980    3.7500    0.0000 C   0  0  0  0  0  0  0  0  0  0  0  0
    2.5980    1.5000    0.0000 C   0  0  0  0  0  0  0  0  0  0  0  0
    3.8970    2.2510    0.0000 C   0  0  0  0  0  0  0  0  0  0  0  0
    5.1960    1.5010    0.0000 C   0  0  0  0  0  0  0  0  0  0  0  0
    5.1960    0.0010    0.0000 C   0  0  0  0  0  0  0  0  0  0  0  0
    3.8970   -0.7490    0.0000 C   0  0  0  0  0  0  0  0  0  0  0  0
    2.5980    0.0000    0.0000 C   0  0  0  0  0  0  0  0  0  0  0  0
    6.4950    2.2510    0.0000 C   0  0  0  0  0  0  0  0  0  0  0  0
  1  2  2  0  0  0  0
  2  3  1  0  0  0  0
  2 14  1  0  0  0  0
  3  4  1  0  0  0  0
  4  5  1  0  0  0  0
  4  9  2  0  0  0  0
  5  6  2  0  0  0  0
  6  7  1  0  0  0  0
  6 13  1  0  0  0  0
  7  8  2  0  0  0  0
  7 10  1  0  0  0  0
  8  9  1  0  0  0  0
 10 11  2  0  0  0  0
 11 12  1  0  0  0  0
 12 13  2  0  0  0  0
 14 15  1  0  0  0  0
 14 16  1  0  0  0  0
 16 17  1  0  0  0  0
 16 21  2  0  0  0  0
 17 18  2  0  0  0  0
 18 19  1  0  0  0  0
 18 22  1  0  0  0  0
 19 20  2  0  0  0  0
 20 21  1  0  0  0  0
M  END
>  <Index>
1088

>  <ID>
HT2085

>  <class>
0

>  <apol>
49.57748

>  <ast_fraglike>
0

>  <ast_fraglike_ext>
0

>  <ast_violation>
2

>  <ast_violation_ext>
2

>  <a_acc>
1

>  <a_acid>
0

>  <a_aro>
16

>  <a_base>
0

>  <a_count>
39

>  <a_don>
0

>  <a_donacc>
1

>  <a_heavy>
22

>  <a_hyd>
18

>  <a_IC>
55.933197

>  <a_ICM>
1.4341846

>  <a_nB>
0

>  <a_nBr>
0

>  <a_nC>
19

>  <a_nCl>
0

>  <a_nF>
0

>  <a_nH>
17

>  <a_nI>
0

>  <a_nN>
1

>  <a_nO>
1

>  <a_nP>
0

>  <a_nS>
1

>  <balabanJ>
1.4776421

>  <BCUT_PEOE_0>
-2.4121511

>  <BCUT_PEOE_1>
-0.58629882

>  <BCUT_PEOE_2>
0.61527038

>  <BCUT_PEOE_3>
2.3132415

>  <BCUT_SLOGP_0>
-2.483125

>  <BCUT_SLOGP_1>
-0.50545019

>  <BCUT_SLOGP_2>
0.72261536

>  <BCUT_SLOGP_3>
2.4309144

>  <BCUT_SMR_0>
-2.0678844

>  <BCUT_SMR_1>
-0.42089316

>  <BCUT_SMR_2>
0.78674334

>  <BCUT_SMR_3>
2.667527

>  <bpol>
23.62052

>  <b_1rotN>
3

>  <b_1rotR>
0.125

>  <b_ar>
17

>  <b_count>
41

>  <b_double>
1

>  <b_heavy>
24

>  <b_max1len>
2

>  <b_rotN>
4

>  <b_rotR>
0.16666667

>  <b_single>
23

>  <b_triple>
0

>  <chi0>
15.526733

>  <chi0v>
13.43106

>  <chi0v_C>
11.350853

>  <chi0_C>
13.242276

>  <chi1>
10.63103

>  <chi1v>
7.5517993

>  <chi1v_C>
5.6367512

>  <chi1_C>
7.9931664

>  <chiral>
0

>  <chiral_u>
0

>  <density>
0.71117496

>  <diameter>
12

>  <FCharge>
0

>  <GCUT_PEOE_0>
-0.81066769

>  <GCUT_PEOE_1>
-0.3838045

>  <GCUT_PEOE_2>
0.064407423

>  <GCUT_PEOE_3>
2.4190376

>  <GCUT_SLOGP_0>
-1.0007792

>  <GCUT_SLOGP_1>
-0.25994819

>  <GCUT_SLOGP_2>
0.14793903

>  <GCUT_SLOGP_3>
2.5843129

>  <GCUT_SMR_0>
-0.47932383

>  <GCUT_SMR_1>
-0.18905778

>  <GCUT_SMR_2>
0.20058522

>  <GCUT_SMR_3>
2.7552567

>  <Kier1>
16.84375

>  <Kier2>
7.7134986

>  <Kier3>
4.3083901

>  <KierA1>
12.476427

>  <KierA2>
5.6251693

>  <KierA3>
3.1065576

>  <KierFlex>
3.1900916

>  <lip_acc>
2

>  <lip_don>
0

>  <lip_druglike>
1

>  <lip_violation>
0

>  <logP(o/w)>
5.3340001

>  <logS>
-7.1138301

>  <mr>
9.4099092

>  <mutagenic>
0

>  <nmol>
1

>  <opr_brigid>
17

>  <opr_leadlike>
1

>  <opr_nring>
3

>  <opr_nrot>
3

>  <opr_violation>
1

>  <PC+>
0

>  <PC->
0

>  <PEOE_PC+>
1.2089473

>  <PEOE_PC->
-1.2089473

>  <PEOE_RPC+>
0.11014348

>  <PEOE_RPC->
0.25590113

>  <PEOE_VSA+0>
32.291866

>  <PEOE_VSA+1>
70.30336

>  <PEOE_VSA+2>
31.384512

>  <PEOE_VSA+3>
0

>  <PEOE_VSA+4>
0

>  <PEOE_VSA+5>
0

>  <PEOE_VSA+6>
0

>  <PEOE_VSA-0>
97.631599

>  <PEOE_VSA-1>
85.784325

>  <PEOE_VSA-2>
0

>  <PEOE_VSA-3>
0

>  <PEOE_VSA-4>
0

>  <PEOE_VSA-5>
0

>  <PEOE_VSA-6>
2.503756

>  <PEOE_VSA_FHYD>
0.99217331

>  <PEOE_VSA_FNEG>
0.5811817

>  <PEOE_VSA_FPNEG>
0.007826698

>  <PEOE_VSA_FPOL>
0.007826698

>  <PEOE_VSA_FPOS>
0.41881832

>  <PEOE_VSA_FPPOS>
0

>  <PEOE_VSA_HYD>
317.39566

>  <PEOE_VSA_NEG>
185.91968

>  <PEOE_VSA_PNEG>
2.503756

>  <PEOE_VSA_POL>
2.503756

>  <PEOE_VSA_POS>
133.97974

>  <PEOE_VSA_PPOS>
0

>  <petitjean>
0.5

>  <petitjeanSC>
1

>  <Q_PC+>
0

>  <Q_PC->
0

>  <Q_RPC+>
0

>  <Q_RPC->
0

>  <Q_VSA_FHYD>
1

>  <Q_VSA_FNEG>
0

>  <Q_VSA_FPNEG>
0

>  <Q_VSA_FPOL>
0

>  <Q_VSA_FPOS>
1

>  <Q_VSA_FPPOS>
0

>  <Q_VSA_HYD>
319.89941

>  <Q_VSA_NEG>
0

>  <Q_VSA_PNEG>
0

>  <Q_VSA_POL>
0

>  <Q_VSA_POS>
319.89941

>  <Q_VSA_PPOS>
0

>  <radius>
6

>  <reactive>
0

>  <rings>
3

>  <RPC+>
0

>  <RPC->
0

>  <rsynth>
1

>  <SlogP>
4.9483199

>  <SlogP_VSA0>
14.124202

>  <SlogP_VSA1>
2.7712021

>  <SlogP_VSA2>
0

>  <SlogP_VSA3>
0

>  <SlogP_VSA4>
3.185575

>  <SlogP_VSA5>
32.897186

>  <SlogP_VSA6>
0

>  <SlogP_VSA7>
199.22096

>  <SlogP_VSA8>
0

>  <SlogP_VSA9>
86.518219

>  <SMR>
9.6757002

>  <SMR_VSA0>
0

>  <SMR_VSA1>
10.999887

>  <SMR_VSA2>
3.1243138

>  <SMR_VSA3>
8.4290028

>  <SMR_VSA4>
7.9026761

>  <SMR_VSA5>
194.07503

>  <SMR_VSA6>
2.7712021

>  <SMR_VSA7>
111.41523

>  <TPSA>
44.560001

>  <VAdjEq>
0.46637034

>  <VAdjMa>
5.5849624

>  <VDistEq>
3.3780255

>  <VDistMa>
8.6016912

>  <vdw_area>
319.89941

>  <vdw_vol>
432.26633

>  <vsa_acc>
31.384512

>  <vsa_acid>
0

>  <vsa_base>
0

>  <vsa_don>
0

>  <vsa_hyd>
258.98505

>  <vsa_other>
17.429348

>  <vsa_pol>
31.384512

>  <Weight>
307.41699

>  <weinerPath>
1136

>  <weinerPol>
33

>  <zagreb>
114

$$$$