Clc1ccc(cc1S(=O)(=O)N)C(=O)NN1C(CCCC1C)C
  MOE2013           2D

 22 23  0  0  1  0  0  0  0  0999 V2000
    0.0000    0.0000    0.0000 Cl  0  0  0  0  0  0  0  0  0  0  0  0
    1.5000    0.0120    0.0000 C   0  0  0  0  0  0  0  0  0  0  0  0
    2.2400    1.3160    0.0000 C   0  0  0  0  0  0  0  0  0  0  0  0
    3.7400    1.3280    0.0000 C   0  0  0  0  0  0  0  0  0  0  0  0
    4.5000    0.0350    0.0000 C   0  0  0  0  0  0  0  0  0  0  0  0
    3.7600   -1.2700    0.0000 C   0  0  0  0  0  0  0  0  0  0  0  0
    2.2600   -1.2820    0.0000 C   0  0  0  0  0  0  0  0  0  0  0  0
    1.5200   -2.5860    0.0000 S   0  0  0  0  0  0  0  0  0  0  0  0
    0.2150   -1.8460    0.0000 O   0  0  0  0  0  0  0  0  0  0  0  0
    2.8250   -3.3260    0.0000 O   0  0  0  0  0  0  0  0  0  0  0  0
    0.7800   -3.8910    0.0000 N   0  0  0  0  0  0  0  0  0  0  0  0
    6.0000    0.0460    0.0000 C   0  0  0  0  0  0  0  0  0  0  0  0
    6.7600   -1.2470    0.0000 O   0  0  0  0  0  0  0  0  0  0  0  0
    6.7400    1.3510    0.0000 N   0  0  0  0  0  0  0  0  0  0  0  0
    8.2400    1.3630    0.0000 N   0  0  0  0  0  0  0  0  0  0  0  0
    9.0000    0.0690    0.0000 C   0  0  3  0  0  0  0  0  0  0  0  0
   10.5000    0.0810    0.0000 C   0  0  0  0  0  0  0  0  0  0  0  0
   11.2400    1.3860    0.0000 C   0  0  0  0  0  0  0  0  0  0  0  0
   10.4800    2.6790    0.0000 C   0  0  0  0  0  0  0  0  0  0  0  0
    8.9800    2.6670    0.0000 C   0  0  3  0  0  0  0  0  0  0  0  0
    8.2200    3.9610    0.0000 C   0  0  0  0  0  0  0  0  0  0  0  0
    8.2600   -1.2350    0.0000 C   0  0  0  0  0  0  0  0  0  0  0  0
  1  2  1  0  0  0  0
  2  3  1  0  0  0  0
  2  7  2  0  0  0  0
  3  4  2  0  0  0  0
  4  5  1  0  0  0  0
  5  6  2  0  0  0  0
  5 12  1  0  0  0  0
  6  7  1  0  0  0  0
  7  8  1  0  0  0  0
  8  9  2  0  0  0  0
  8 10  2  0  0  0  0
  8 11  1  0  0  0  0
 12 13  2  0  0  0  0
 12 14  1  0  0  0  0
 14 15  1  0  0  0  0
 15 16  1  0  0  0  0
 15 20  1  0  0  0  0
 16 17  1  0  0  0  0
 16 22  1  0  0  0  0
 17 18  1  0  0  0  0
 18 19  1  0  0  0  0
 19 20  1  0  0  0  0
 20 21  1  0  0  0  0
M  END
>  <Index>
1349

>  <ID>
HT3584

>  <class>
0

>  <apol>
48.76186

>  <ast_fraglike>
0

>  <ast_fraglike_ext>
0

>  <ast_violation>
2

>  <ast_violation_ext>
4

>  <a_acc>
4

>  <a_acid>
0

>  <a_aro>
6

>  <a_base>
0

>  <a_count>
42

>  <a_don>
2

>  <a_donacc>
6

>  <a_heavy>
22

>  <a_hyd>
14

>  <a_IC>
77.226028

>  <a_ICM>
1.838715

>  <a_nB>
0

>  <a_nBr>
0

>  <a_nC>
14

>  <a_nCl>
1

>  <a_nF>
0

>  <a_nH>
20

>  <a_nI>
0

>  <a_nN>
3

>  <a_nO>
3

>  <a_nP>
0

>  <a_nS>
1

>  <balabanJ>
1.9612848

>  <BCUT_PEOE_0>
-2.8086345

>  <BCUT_PEOE_1>
-0.59148628

>  <BCUT_PEOE_2>
0.63382936

>  <BCUT_PEOE_3>
2.7404034

>  <BCUT_SLOGP_0>
-2.8532519

>  <BCUT_SLOGP_1>
-0.46902704

>  <BCUT_SLOGP_2>
0.6694355

>  <BCUT_SLOGP_3>
2.7813423

>  <BCUT_SMR_0>
-2.5458963

>  <BCUT_SMR_1>
-0.3953329

>  <BCUT_SMR_2>
0.78605175

>  <BCUT_SMR_3>
2.9991736

>  <bpol>
30.378139

>  <b_1rotN>
3

>  <b_1rotR>
0.13043478

>  <b_ar>
6

>  <b_count>
43

>  <b_double>
1

>  <b_heavy>
23

>  <b_max1len>
3

>  <b_rotN>
4

>  <b_rotR>
0.17391305

>  <b_single>
36

>  <b_triple>
0

>  <chi0>
16.491199

>  <chi0v>
14.116018

>  <chi0v_C>
9.0080719

>  <chi0_C>
9.7067423

>  <chi1>
10.197396

>  <chi1v>
9.0397854

>  <chi1v_C>
4.9592309

>  <chi1_C>
5.7708569

>  <chiral>
2

>  <chiral_u>
2

>  <density>
0.83489847

>  <diameter>
10

>  <FCharge>
0

>  <GCUT_PEOE_0>
-0.86341244

>  <GCUT_PEOE_1>
-0.40211007

>  <GCUT_PEOE_2>
0.071090177

>  <GCUT_PEOE_3>
2.6973066

>  <GCUT_SLOGP_0>
-1.3482791

>  <GCUT_SLOGP_1>
-0.35338047

>  <GCUT_SLOGP_2>
0.15161964

>  <GCUT_SLOGP_3>
2.7183874

>  <GCUT_SMR_0>
-0.52396852

>  <GCUT_SMR_1>
-0.17671505

>  <GCUT_SMR_2>
0.19921638

>  <GCUT_SMR_3>
2.9410734

>  <Kier1>
18.340265

>  <Kier2>
7.2664361

>  <Kier3>
4.5211182

>  <KierA1>
17.591759

>  <KierA2>
6.9554892

>  <KierA3>
4.3211789

>  <KierFlex>
5.5617857

>  <lip_acc>
6

>  <lip_don>
3

>  <lip_druglike>
1

>  <lip_violation>
0

>  <logP(o/w)>
1.706

>  <logS>
-3.6733501

>  <mr>
8.6964016

>  <mutagenic>
0

>  <nmol>
1

>  <opr_brigid>
12

>  <opr_leadlike>
1

>  <opr_nring>
2

>  <opr_nrot>
5

>  <opr_violation>
0

>  <PC+>
0

>  <PC->
0

>  <PEOE_PC+>
1.7992111

>  <PEOE_PC->
-1.7992111

>  <PEOE_RPC+>
0.16716196

>  <PEOE_RPC->
0.15774083

>  <PEOE_VSA+0>
95.559502

>  <PEOE_VSA+1>
25.051062

>  <PEOE_VSA+2>
4.5197463

>  <PEOE_VSA+3>
8.6190128

>  <PEOE_VSA+4>
0

>  <PEOE_VSA+5>
12.949531

>  <PEOE_VSA+6>
4.1846013

>  <PEOE_VSA-0>
79.407791

>  <PEOE_VSA-1>
38.28326

>  <PEOE_VSA-2>
0

>  <PEOE_VSA-3>
9.0437498

>  <PEOE_VSA-4>
32.016521

>  <PEOE_VSA-5>
17.442276

>  <PEOE_VSA-6>
0

>  <PEOE_VSA_FHYD>
0.79639989

>  <PEOE_VSA_FNEG>
0.5386914

>  <PEOE_VSA_FPNEG>
0.15121453

>  <PEOE_VSA_FPOL>
0.20360014

>  <PEOE_VSA_FPOS>
0.4613086

>  <PEOE_VSA_FPPOS>
0.052385613

>  <PEOE_VSA_HYD>
260.48413

>  <PEOE_VSA_NEG>
176.1936

>  <PEOE_VSA_PNEG>
49.458797

>  <PEOE_VSA_POL>
66.592934

>  <PEOE_VSA_POS>
150.88345

>  <PEOE_VSA_PPOS>
17.134132

>  <petitjean>
0.5

>  <petitjeanSC>
1

>  <Q_PC+>
0

>  <Q_PC->
0

>  <Q_RPC+>
0

>  <Q_RPC->
0

>  <Q_VSA_FHYD>
1

>  <Q_VSA_FNEG>
0

>  <Q_VSA_FPNEG>
0

>  <Q_VSA_FPOL>
0

>  <Q_VSA_FPOS>
1

>  <Q_VSA_FPPOS>
0

>  <Q_VSA_HYD>
327.07706

>  <Q_VSA_NEG>
0

>  <Q_VSA_PNEG>
0

>  <Q_VSA_POL>
0

>  <Q_VSA_POS>
327.07706

>  <Q_VSA_PPOS>
0

>  <radius>
5

>  <reactive>
1

>  <rings>
2

>  <RPC+>
0

>  <RPC->
0

>  <rsynth>
1

>  <SlogP>
1.8951

>  <SlogP_VSA0>
49.179665

>  <SlogP_VSA1>
56.432262

>  <SlogP_VSA2>
14.60468

>  <SlogP_VSA3>
0

>  <SlogP_VSA4>
27.047791

>  <SlogP_VSA5>
1.5507339

>  <SlogP_VSA6>
3.5006065

>  <SlogP_VSA7>
52.929554

>  <SlogP_VSA8>
56.605217

>  <SlogP_VSA9>
105.80067

>  <SMR>
8.4905396

>  <SMR_VSA0>
72.033905

>  <SMR_VSA1>
3.0017917

>  <SMR_VSA2>
19.438963

>  <SMR_VSA3>
14.650119

>  <SMR_VSA4>
31.291433

>  <SMR_VSA5>
109.53477

>  <SMR_VSA6>
5.2587838

>  <SMR_VSA7>
112.44141

>  <TPSA>
92.5

>  <VAdjEq>
0.4530769

>  <VAdjMa>
5.523562

>  <VDistEq>
3.1957009

>  <VDistMa>
8.6296263

>  <vdw_area>
327.07706

>  <vdw_vol>
414.24316

>  <vsa_acc>
45.583443

>  <vsa_acid>
0

>  <vsa_base>
0

>  <vsa_don>
29.55616

>  <vsa_hyd>
207.5618

>  <vsa_other>
23.05514

>  <vsa_pol>
75.139603

>  <Weight>
345.85098

>  <weinerPath>
1066

>  <weinerPol>
35

>  <zagreb>
114

$$$$