O(C)c1ccccc1O
  MOE2013           2D

  9  9  0  0  0  0  0  0  0  0999 V2000
    0.0000    0.0000    0.0000 O   0  0  0  0  0  0  0  0  0  0  0  0
    0.7560    1.2960    0.0000 C   0  0  0  0  0  0  0  0  0  0  0  0
   -1.5000    0.0070    0.0000 C   0  0  0  0  0  0  0  0  0  0  0  0
   -2.2440    1.3090    0.0000 C   0  0  0  0  0  0  0  0  0  0  0  0
   -3.7440    1.3160    0.0000 C   0  0  0  0  0  0  0  0  0  0  0  0
   -4.5000    0.0200    0.0000 C   0  0  0  0  0  0  0  0  0  0  0  0
   -3.7560   -1.2830    0.0000 C   0  0  0  0  0  0  0  0  0  0  0  0
   -2.2560   -1.2890    0.0000 C   0  0  0  0  0  0  0  0  0  0  0  0
   -1.5110   -2.5910    0.0000 O   0  0  0  0  0  0  0  0  0  0  0  0
  1  2  1  0  0  0  0
  1  3  1  0  0  0  0
  3  4  1  0  0  0  0
  3  8  2  0  0  0  0
  4  5  2  0  0  0  0
  5  6  1  0  0  0  0
  6  7  2  0  0  0  0
  7  8  1  0  0  0  0
  8  9  1  0  0  0  0
M  END
>  <Index>
1211

>  <ID>
HT2515

>  <class>
0

>  <apol>
19.258345

>  <ast_fraglike>
1

>  <ast_fraglike_ext>
1

>  <ast_violation>
0

>  <ast_violation_ext>
0

>  <a_acc>
2

>  <a_acid>
0

>  <a_aro>
6

>  <a_base>
0

>  <a_count>
17

>  <a_don>
1

>  <a_donacc>
3

>  <a_heavy>
9

>  <a_hyd>
7

>  <a_IC>
23.835384

>  <a_ICM>
1.4020814

>  <a_nB>
0

>  <a_nBr>
0

>  <a_nC>
7

>  <a_nCl>
0

>  <a_nF>
0

>  <a_nH>
8

>  <a_nI>
0

>  <a_nN>
0

>  <a_nO>
2

>  <a_nP>
0

>  <a_nS>
0

>  <balabanJ>
2.3545578

>  <BCUT_PEOE_0>
-2.2501783

>  <BCUT_PEOE_1>
-0.60499126

>  <BCUT_PEOE_2>
0.6167621

>  <BCUT_PEOE_3>
2.2012057

>  <BCUT_SLOGP_0>
-2.2419622

>  <BCUT_SLOGP_1>
-0.52386761

>  <BCUT_SLOGP_2>
0.71806663

>  <BCUT_SLOGP_3>
2.4055521

>  <BCUT_SMR_0>
-1.9684879

>  <BCUT_SMR_1>
-0.43057695

>  <BCUT_SMR_2>
0.78201616

>  <BCUT_SMR_3>
2.4928012

>  <bpol>
10.661656

>  <b_1rotN>
1

>  <b_1rotR>
0.11111111

>  <b_ar>
6

>  <b_count>
17

>  <b_double>
0

>  <b_heavy>
9

>  <b_max1len>
2

>  <b_rotN>
1

>  <b_rotR>
0.11111111

>  <b_single>
11

>  <b_triple>
0

>  <chi0>
6.6902347

>  <chi0v>
5.1648631

>  <chi0v_C>
4.309401

>  <chi0_C>
4.9831276

>  <chi1>
4.342535

>  <chi1v>
2.6633296

>  <chi1v_C>
1.8273503

>  <chi1_C>
2.6498299

>  <chiral>
0

>  <chiral_u>
0

>  <density>
0.7197184

>  <diameter>
5

>  <FCharge>
0

>  <GCUT_PEOE_0>
-0.78209138

>  <GCUT_PEOE_1>
-0.40691027

>  <GCUT_PEOE_2>
0.052514356

>  <GCUT_PEOE_3>
1.9819936

>  <GCUT_SLOGP_0>
-0.88684285

>  <GCUT_SLOGP_1>
-0.28934059

>  <GCUT_SLOGP_2>
0.14314279

>  <GCUT_SLOGP_3>
2.1795492

>  <GCUT_SMR_0>
-0.48341274

>  <GCUT_SMR_1>
-0.20504874

>  <GCUT_SMR_2>
0.16645521

>  <GCUT_SMR_3>
2.2656686

>  <Kier1>
7.1111112

>  <Kier2>
3.2396693

>  <Kier3>
1.704142

>  <KierA1>
5.2900672

>  <KierA2>
2.3085144

>  <KierA3>
1.1641033

>  <KierFlex>
1.3569107

>  <lip_acc>
2

>  <lip_don>
1

>  <lip_druglike>
1

>  <lip_violation>
0

>  <logP(o/w)>
1.552

>  <logS>
-1.07331

>  <mr>
3.5403683

>  <mutagenic>
0

>  <nmol>
1

>  <opr_brigid>
6

>  <opr_leadlike>
1

>  <opr_nring>
1

>  <opr_nrot>
1

>  <opr_violation>
0

>  <PC+>
0

>  <PC->
0

>  <PEOE_PC+>
0.8794983

>  <PEOE_PC->
-0.8794983

>  <PEOE_RPC+>
0.24721099

>  <PEOE_RPC->
0.40621889

>  <PEOE_VSA+0>
24.997658

>  <PEOE_VSA+1>
29.857702

>  <PEOE_VSA+2>
16.917038

>  <PEOE_VSA+3>
0

>  <PEOE_VSA+4>
10.324173

>  <PEOE_VSA+5>
0

>  <PEOE_VSA+6>
0

>  <PEOE_VSA-0>
24.509808

>  <PEOE_VSA-1>
24.509808

>  <PEOE_VSA-2>
0

>  <PEOE_VSA-3>
0

>  <PEOE_VSA-4>
0

>  <PEOE_VSA-5>
0

>  <PEOE_VSA-6>
10.271297

>  <PEOE_VSA_FHYD>
0.85433316

>  <PEOE_VSA_FNEG>
0.4193505

>  <PEOE_VSA_FPNEG>
0.072646432

>  <PEOE_VSA_FPOL>
0.14566685

>  <PEOE_VSA_FPOS>
0.5806495

>  <PEOE_VSA_FPPOS>
0.073020414

>  <PEOE_VSA_HYD>
120.79202

>  <PEOE_VSA_NEG>
59.290913

>  <PEOE_VSA_PNEG>
10.271297

>  <PEOE_VSA_POL>
20.595469

>  <PEOE_VSA_POS>
82.096573

>  <PEOE_VSA_PPOS>
10.324173

>  <petitjean>
0.40000001

>  <petitjeanSC>
0.66666669

>  <Q_PC+>
0

>  <Q_PC->
0

>  <Q_RPC+>
0

>  <Q_RPC->
0

>  <Q_VSA_FHYD>
1

>  <Q_VSA_FNEG>
0

>  <Q_VSA_FPNEG>
0

>  <Q_VSA_FPOL>
0

>  <Q_VSA_FPOS>
1

>  <Q_VSA_FPPOS>
0

>  <Q_VSA_HYD>
141.38748

>  <Q_VSA_NEG>
0

>  <Q_VSA_PNEG>
0

>  <Q_VSA_POL>
0

>  <Q_VSA_POS>
141.38748

>  <Q_VSA_PPOS>
0

>  <radius>
3

>  <reactive>
0

>  <rings>
1

>  <RPC+>
0

>  <RPC->
0

>  <rsynth>
1

>  <SlogP>
1.4008

>  <SlogP_VSA0>
36.385113

>  <SlogP_VSA1>
0

>  <SlogP_VSA2>
0

>  <SlogP_VSA3>
0

>  <SlogP_VSA4>
0

>  <SlogP_VSA5>
35.383869

>  <SlogP_VSA6>
0

>  <SlogP_VSA7>
70.572739

>  <SlogP_VSA8>
0

>  <SlogP_VSA9>
10.486856

>  <SMR>
3.4658799

>  <SMR_VSA0>
0

>  <SMR_VSA1>
36.385113

>  <SMR_VSA2>
0

>  <SMR_VSA3>
10.486856

>  <SMR_VSA4>
0

>  <SMR_VSA5>
70.572739

>  <SMR_VSA6>
0

>  <SMR_VSA7>
35.383869

>  <TPSA>
29.459999

>  <VAdjEq>
0.7642045

>  <VAdjMa>
4.1699252

>  <VDistEq>
2.0751474

>  <VDistMa>
6.0174446

>  <vdw_area>
141.38748

>  <vdw_vol>
172.48273

>  <vsa_acc>
2.503756

>  <vsa_acid>
0

>  <vsa_base>
0

>  <vsa_don>
0

>  <vsa_hyd>
115.80945

>  <vsa_other>
0

>  <vsa_pol>
16.070677

>  <Weight>
124.139

>  <weinerPath>
86

>  <weinerPol>
10

>  <zagreb>
40

$$$$