O(C)c1c(OC)cc(NCc2ccc3nc(nc(N)c3c2C)N)cc1OC
  MOE2013           2D

 27 29  0  0  0  0  0  0  0  0999 V2000
    0.0000    0.0000    0.0000 O   0  0  0  0  0  0  0  0  0  0  0  0
   -0.7440    1.3020    0.0000 C   0  0  0  0  0  0  0  0  0  0  0  0
    1.5000   -0.0060    0.0000 C   0  0  0  0  0  0  0  0  0  0  0  0
    2.2440   -1.3090    0.0000 C   0  0  0  0  0  0  0  0  0  0  0  0
    1.4890   -2.6040    0.0000 O   0  0  0  0  0  0  0  0  0  0  0  0
    2.2330   -3.9070    0.0000 C   0  0  0  0  0  0  0  0  0  0  0  0
    3.7440   -1.3150    0.0000 C   0  0  0  0  0  0  0  0  0  0  0  0
    4.5000   -0.0190    0.0000 C   0  0  0  0  0  0  0  0  0  0  0  0
    6.0000   -0.0260    0.0000 N   0  0  0  0  0  0  0  0  0  0  0  0
    6.7440   -1.3280    0.0000 C   0  0  0  0  0  0  0  0  0  0  0  0
    8.2440   -1.3340    0.0000 C   0  0  0  0  0  0  0  0  0  0  0  0
    9.0000   -0.0380    0.0000 C   0  0  0  0  0  0  0  0  0  0  0  0
   10.5000   -0.0450    0.0000 C   0  0  0  0  0  0  0  0  0  0  0  0
   11.2440   -1.3470    0.0000 C   0  0  0  0  0  0  0  0  0  0  0  0
   12.7440   -1.3530    0.0000 N   0  0  0  0  0  0  0  0  0  0  0  0
   13.4890   -2.6560    0.0000 C   0  0  0  0  0  0  0  0  0  0  0  0
   12.7330   -3.9510    0.0000 N   0  0  0  0  0  0  0  0  0  0  0  0
   11.2330   -3.9450    0.0000 C   0  0  0  0  0  0  0  0  0  0  0  0
   10.4780   -5.2410    0.0000 N   0  0  0  0  0  0  0  0  0  0  0  0
   10.4890   -2.6430    0.0000 C   0  0  0  0  0  0  0  0  0  0  0  0
    8.9890   -2.6360    0.0000 C   0  0  0  0  0  0  0  0  0  0  0  0
    8.2330   -3.9320    0.0000 C   0  0  0  0  0  0  0  0  0  0  0  0
   14.9890   -2.6620    0.0000 N   0  0  0  0  0  0  0  0  0  0  0  0
    3.7560    1.2830    0.0000 C   0  0  0  0  0  0  0  0  0  0  0  0
    2.2560    1.2890    0.0000 C   0  0  0  0  0  0  0  0  0  0  0  0
    1.5110    2.5920    0.0000 O   0  0  0  0  0  0  0  0  0  0  0  0
    2.2670    3.8870    0.0000 C   0  0  0  0  0  0  0  0  0  0  0  0
  1  2  1  0  0  0  0
  1  3  1  0  0  0  0
  3  4  1  0  0  0  0
  3 25  2  0  0  0  0
  4  5  1  0  0  0  0
  4  7  2  0  0  0  0
  5  6  1  0  0  0  0
  7  8  1  0  0  0  0
  8  9  1  0  0  0  0
  8 24  2  0  0  0  0
  9 10  1  0  0  0  0
 10 11  1  0  0  0  0
 11 12  1  0  0  0  0
 11 21  2  0  0  0  0
 12 13  2  0  0  0  0
 13 14  1  0  0  0  0
 14 15  1  0  0  0  0
 14 20  2  0  0  0  0
 15 16  2  0  0  0  0
 16 17  1  0  0  0  0
 16 23  1  0  0  0  0
 17 18  2  0  0  0  0
 18 19  1  0  0  0  0
 18 20  1  0  0  0  0
 20 21  1  0  0  0  0
 21 22  1  0  0  0  0
 24 25  1  0  0  0  0
 25 26  1  0  0  0  0
 26 27  1  0  0  0  0
M  END
>  <Index>
1111

>  <ID>
HT2129

>  <class>
0

>  <apol>
56.68224

>  <ast_fraglike>
0

>  <ast_fraglike_ext>
0

>  <ast_violation>
3

>  <ast_violation_ext>
5

>  <a_acc>
5

>  <a_acid>
0

>  <a_aro>
16

>  <a_base>
0

>  <a_count>
50

>  <a_don>
3

>  <a_donacc>
8

>  <a_heavy>
27

>  <a_hyd>
17

>  <a_IC>
81.075737

>  <a_ICM>
1.6215147

>  <a_nB>
0

>  <a_nBr>
0

>  <a_nC>
19

>  <a_nCl>
0

>  <a_nF>
0

>  <a_nH>
23

>  <a_nI>
0

>  <a_nN>
5

>  <a_nO>
3

>  <a_nP>
0

>  <a_nS>
0

>  <balabanJ>
1.5557958

>  <BCUT_PEOE_0>
-2.437381

>  <BCUT_PEOE_1>
-0.61834031

>  <BCUT_PEOE_2>
0.48860869

>  <BCUT_PEOE_3>
2.3770564

>  <BCUT_SLOGP_0>
-2.3834276

>  <BCUT_SLOGP_1>
-0.58558559

>  <BCUT_SLOGP_2>
0.59407073

>  <BCUT_SLOGP_3>
2.5444181

>  <BCUT_SMR_0>
-2.118665

>  <BCUT_SMR_1>
-0.32600561

>  <BCUT_SMR_2>
0.73149765

>  <BCUT_SMR_3>
2.6977923

>  <bpol>
32.871761

>  <b_1rotN>
6

>  <b_1rotR>
0.20689656

>  <b_ar>
17

>  <b_count>
52

>  <b_double>
0

>  <b_heavy>
29

>  <b_max1len>
3

>  <b_rotN>
6

>  <b_rotR>
0.20689656

>  <b_single>
35

>  <b_triple>
0

>  <chi0>
19.551678

>  <chi0v>
15.79038

>  <chi0v_C>
12.016508

>  <chi0_C>
13.309036

>  <chi1>
12.977096

>  <chi1v>
8.3313856

>  <chi1v_C>
4.4189377

>  <chi1_C>
5.9350882

>  <chiral>
0

>  <chiral_u>
0

>  <density>
0.74260789

>  <diameter>
14

>  <FCharge>
0

>  <GCUT_PEOE_0>
-0.82119644

>  <GCUT_PEOE_1>
-0.4651511

>  <GCUT_PEOE_2>
-0.033684101

>  <GCUT_PEOE_3>
2.6062326

>  <GCUT_SLOGP_0>
-1.3403708

>  <GCUT_SLOGP_1>
-0.36243114

>  <GCUT_SLOGP_2>
0.10817166

>  <GCUT_SLOGP_3>
2.7598646

>  <GCUT_SMR_0>
-0.4870806

>  <GCUT_SMR_1>
-0.20702448

>  <GCUT_SMR_2>
0.12710334

>  <GCUT_SMR_3>
2.9063942

>  <Kier1>
21.702734

>  <Kier2>
9.6668653

>  <Kier3>
4.7755103

>  <KierA1>
15.746194

>  <KierA2>
6.9202929

>  <KierA3>
3.3847017

>  <KierFlex>
4.035862

>  <lip_acc>
8

>  <lip_don>
5

>  <lip_druglike>
1

>  <lip_violation>
0

>  <logP(o/w)>
1.56048

>  <logS>
-4.6785998

>  <mr>
10.247662

>  <mutagenic>
1

>  <nmol>
1

>  <opr_brigid>
17

>  <opr_leadlike>
1

>  <opr_nring>
3

>  <opr_nrot>
6

>  <opr_violation>
0

>  <PC+>
0

>  <PC->
0

>  <PEOE_PC+>
2.5115595

>  <PEOE_PC->
-2.5115595

>  <PEOE_RPC+>
0.079939619

>  <PEOE_RPC->
0.13744581

>  <PEOE_VSA+0>
118.42032

>  <PEOE_VSA+1>
62.14957

>  <PEOE_VSA+2>
79.661186

>  <PEOE_VSA+3>
0

>  <PEOE_VSA+4>
15.681574

>  <PEOE_VSA+5>
0

>  <PEOE_VSA+6>
0

>  <PEOE_VSA-0>
59.92947

>  <PEOE_VSA-1>
12.254904

>  <PEOE_VSA-2>
0

>  <PEOE_VSA-3>
0

>  <PEOE_VSA-4>
11.365152

>  <PEOE_VSA-5>
13.43913

>  <PEOE_VSA-6>
7.5112681

>  <PEOE_VSA_FHYD>
0.87382877

>  <PEOE_VSA_FNEG>
0.27470157

>  <PEOE_VSA_FPNEG>
0.084948689

>  <PEOE_VSA_FPOL>
0.12617123

>  <PEOE_VSA_FPOS>
0.72529846

>  <PEOE_VSA_FPPOS>
0.041222546

>  <PEOE_VSA_HYD>
332.41544

>  <PEOE_VSA_NEG>
104.49992

>  <PEOE_VSA_PNEG>
32.315552

>  <PEOE_VSA_POL>
47.997124

>  <PEOE_VSA_POS>
275.91266

>  <PEOE_VSA_PPOS>
15.681574

>  <petitjean>
0.5

>  <petitjeanSC>
1

>  <Q_PC+>
0

>  <Q_PC->
0

>  <Q_RPC+>
0

>  <Q_RPC->
0

>  <Q_VSA_FHYD>
1

>  <Q_VSA_FNEG>
0

>  <Q_VSA_FPNEG>
0

>  <Q_VSA_FPOL>
0

>  <Q_VSA_FPOS>
1

>  <Q_VSA_FPPOS>
0

>  <Q_VSA_HYD>
380.41257

>  <Q_VSA_NEG>
0

>  <Q_VSA_PNEG>
0

>  <Q_VSA_POL>
0

>  <Q_VSA_POS>
380.41257

>  <Q_VSA_PPOS>
0

>  <radius>
7

>  <reactive>
0

>  <rings>
3

>  <RPC+>
0

>  <RPC->
0

>  <rsynth>
1

>  <SlogP>
3.0069201

>  <SlogP_VSA0>
98.794037

>  <SlogP_VSA1>
51.58181

>  <SlogP_VSA2>
0

>  <SlogP_VSA3>
0

>  <SlogP_VSA4>
6.37115

>  <SlogP_VSA5>
106.1516

>  <SlogP_VSA6>
0

>  <SlogP_VSA7>
75.289841

>  <SlogP_VSA8>
0

>  <SlogP_VSA9>
74.479637

>  <SMR>
10.67295

>  <SMR_VSA0>
0

>  <SMR_VSA1>
66.570724

>  <SMR_VSA2>
0

>  <SMR_VSA3>
22.101435

>  <SMR_VSA4>
29.711613

>  <SMR_VSA5>
154.80669

>  <SMR_VSA6>
0

>  <SMR_VSA7>
139.47762

>  <TPSA>
117.54

>  <VAdjEq>
0.40063059

>  <VAdjMa>
5.8579812

>  <VDistEq>
3.5492053

>  <VDistMa>
9.204565

>  <vdw_area>
380.41257

>  <vdw_vol>
497.46979

>  <vsa_acc>
18.876421

>  <vsa_acid>
0

>  <vsa_base>
0

>  <vsa_don>
41.167557

>  <vsa_hyd>
265.3175

>  <vsa_other>
26.872137

>  <vsa_pol>
60.043976

>  <Weight>
369.42499

>  <weinerPath>
1952

>  <weinerPol>
47

>  <zagreb>
140

$$$$