Brc1c2nccnc2ccc1NC=1NCCN=1
  MOE2013           2D

 17 19  0  0  0  0  0  0  0  0999 V2000
    0.0000    0.0000    0.0000 Br  0  0  0  0  0  0  0  0  0  0  0  0
   -0.7480    1.3000    0.0000 C   0  0  0  0  0  0  0  0  0  0  0  0
   -2.2480    1.3030    0.0000 C   0  0  0  0  0  0  0  0  0  0  0  0
   -3.0000    0.0050    0.0000 N   0  0  0  0  0  0  0  0  0  0  0  0
   -4.5000    0.0070    0.0000 C   0  0  0  0  0  0  0  0  0  0  0  0
   -5.2480    1.3070    0.0000 C   0  0  0  0  0  0  0  0  0  0  0  0
   -4.4960    2.6050    0.0000 N   0  0  0  0  0  0  0  0  0  0  0  0
   -2.9960    2.6030    0.0000 C   0  0  0  0  0  0  0  0  0  0  0  0
   -2.2440    3.9010    0.0000 C   0  0  0  0  0  0  0  0  0  0  0  0
   -0.7440    3.8980    0.0000 C   0  0  0  0  0  0  0  0  0  0  0  0
    0.0040    2.5980    0.0000 C   0  0  0  0  0  0  0  0  0  0  0  0
    1.5040    2.5960    0.0000 N   0  0  0  0  0  0  0  0  0  0  0  0
    2.2560    3.8940    0.0000 C   0  0  0  0  0  0  0  0  0  0  0  0
    3.7480    4.0480    0.0000 N   0  0  0  0  0  0  0  0  0  0  0  0
    4.0620    5.5150    0.0000 C   0  0  0  0  0  0  0  0  0  0  0  0
    2.7640    6.2670    0.0000 C   0  0  0  0  0  0  0  0  0  0  0  0
    1.6480    5.2650    0.0000 N   0  0  0  0  0  0  0  0  0  0  0  0
  1  2  1  0  0  0  0
  2  3  1  0  0  0  0
  2 11  2  0  0  0  0
  3  4  1  0  0  0  0
  3  8  2  0  0  0  0
  4  5  2  0  0  0  0
  5  6  1  0  0  0  0
  6  7  2  0  0  0  0
  7  8  1  0  0  0  0
  8  9  1  0  0  0  0
  9 10  2  0  0  0  0
 10 11  1  0  0  0  0
 11 12  1  0  0  0  0
 12 13  1  0  0  0  0
 13 14  1  0  0  0  0
 13 17  2  0  0  0  0
 14 15  1  0  0  0  0
 15 16  1  0  0  0  0
 16 17  1  0  0  0  0
M  END
>  <Index>
156

>  <ID>
HT0304

>  <class>
0

>  <apol>
34.57793

>  <ast_fraglike>
1

>  <ast_fraglike_ext>
1

>  <ast_violation>
0

>  <ast_violation_ext>
0

>  <a_acc>
3

>  <a_acid>
0

>  <a_aro>
10

>  <a_base>
0

>  <a_count>
27

>  <a_don>
2

>  <a_donacc>
5

>  <a_heavy>
17

>  <a_hyd>
11

>  <a_IC>
45.499294

>  <a_ICM>
1.685159

>  <a_nB>
0

>  <a_nBr>
1

>  <a_nC>
11

>  <a_nCl>
0

>  <a_nF>
0

>  <a_nH>
10

>  <a_nI>
0

>  <a_nN>
5

>  <a_nO>
0

>  <a_nP>
0

>  <a_nS>
0

>  <balabanJ>
1.59092

>  <BCUT_PEOE_0>
-2.393491

>  <BCUT_PEOE_1>
-0.65420222

>  <BCUT_PEOE_2>
0.69004971

>  <BCUT_PEOE_3>
2.4757881

>  <BCUT_SLOGP_0>
-2.6165967

>  <BCUT_SLOGP_1>
-0.55121762

>  <BCUT_SLOGP_2>
0.83364642

>  <BCUT_SLOGP_3>
2.391638

>  <BCUT_SMR_0>
-2.127656

>  <BCUT_SMR_1>
-0.41917819

>  <BCUT_SMR_2>
0.96225971

>  <BCUT_SMR_3>
2.7657688

>  <bpol>
17.502069

>  <b_1rotN>
1

>  <b_1rotR>
0.052631579

>  <b_ar>
11

>  <b_count>
29

>  <b_double>
1

>  <b_heavy>
19

>  <b_max1len>
2

>  <b_rotN>
2

>  <b_rotR>
0.10526316

>  <b_single>
17

>  <b_triple>
0

>  <chi0>
11.664926

>  <chi0v>
10.529217

>  <chi0v_C>
6.2236147

>  <chi0_C>
7.1293921

>  <chi1>
8.3433371

>  <chi1v>
6.0829968

>  <chi1v_C>
2.4940169

>  <chi1_C>
3.3164966

>  <chiral>
0

>  <chiral_u>
0

>  <density>
0.93293381

>  <diameter>
9

>  <FCharge>
0

>  <GCUT_PEOE_0>
-0.84504622

>  <GCUT_PEOE_1>
-0.42738435

>  <GCUT_PEOE_2>
0.091937453

>  <GCUT_PEOE_3>
2.2966471

>  <GCUT_SLOGP_0>
-1.170115

>  <GCUT_SLOGP_1>
-0.36443087

>  <GCUT_SLOGP_2>
0.24149504

>  <GCUT_SLOGP_3>
2.3979666

>  <GCUT_SMR_0>
-0.50483513

>  <GCUT_SMR_1>
-0.18554682

>  <GCUT_SMR_2>
0.31794584

>  <GCUT_SMR_3>
2.6273751

>  <Kier1>
12.055402

>  <Kier2>
5.3254437

>  <Kier3>
2.5599999

>  <KierA1>
9.5097895

>  <KierA2>
4.1335397

>  <KierA3>
1.9615269

>  <KierFlex>
2.3122995

>  <lip_acc>
5

>  <lip_don>
2

>  <lip_druglike>
1

>  <lip_violation>
0

>  <logP(o/w)>
1.4585299

>  <logS>
-2.0613899

>  <mr>
6.7689199

>  <mutagenic>
0

>  <nmol>
1

>  <opr_brigid>
16

>  <opr_leadlike>
1

>  <opr_nring>
3

>  <opr_nrot>
2

>  <opr_violation>
0

>  <PC+>
0

>  <PC->
0

>  <PEOE_PC+>
1.5453967

>  <PEOE_PC->
-1.5453967

>  <PEOE_RPC+>
0.12789981

>  <PEOE_RPC->
0.2291027

>  <PEOE_VSA+0>
46.684155

>  <PEOE_VSA+1>
62.966724

>  <PEOE_VSA+2>
6.6995511

>  <PEOE_VSA+3>
32.919601

>  <PEOE_VSA+4>
0

>  <PEOE_VSA+5>
0

>  <PEOE_VSA+6>
0

>  <PEOE_VSA-0>
68.134659

>  <PEOE_VSA-1>
0

>  <PEOE_VSA-2>
0

>  <PEOE_VSA-3>
0

>  <PEOE_VSA-4>
0

>  <PEOE_VSA-5>
17.047728

>  <PEOE_VSA-6>
0.27378201

>  <PEOE_VSA_FHYD>
0.92620546

>  <PEOE_VSA_FNEG>
0.36406744

>  <PEOE_VSA_FPNEG>
0.073794536

>  <PEOE_VSA_FPOL>
0.073794536

>  <PEOE_VSA_FPOS>
0.63593256

>  <PEOE_VSA_FPPOS>
0

>  <PEOE_VSA_HYD>
217.40469

>  <PEOE_VSA_NEG>
85.456169

>  <PEOE_VSA_PNEG>
17.32151

>  <PEOE_VSA_POL>
17.32151

>  <PEOE_VSA_POS>
149.27003

>  <PEOE_VSA_PPOS>
0

>  <petitjean>
0.44444445

>  <petitjeanSC>
0.80000001

>  <Q_PC+>
0

>  <Q_PC->
0

>  <Q_RPC+>
0

>  <Q_RPC->
0

>  <Q_VSA_FHYD>
1

>  <Q_VSA_FNEG>
0

>  <Q_VSA_FPNEG>
0

>  <Q_VSA_FPOL>
0

>  <Q_VSA_FPOS>
1

>  <Q_VSA_FPPOS>
0

>  <Q_VSA_HYD>
234.7262

>  <Q_VSA_NEG>
0

>  <Q_VSA_PNEG>
0

>  <Q_VSA_POL>
0

>  <Q_VSA_POS>
234.7262

>  <Q_VSA_PPOS>
0

>  <radius>
5

>  <reactive>
0

>  <rings>
3

>  <RPC+>
0

>  <RPC->
0

>  <rsynth>
1

>  <SlogP>
1.7634

>  <SlogP_VSA0>
18.01075

>  <SlogP_VSA1>
53.480904

>  <SlogP_VSA2>
0

>  <SlogP_VSA3>
36.879158

>  <SlogP_VSA4>
0

>  <SlogP_VSA5>
19.840633

>  <SlogP_VSA6>
0

>  <SlogP_VSA7>
74.003357

>  <SlogP_VSA8>
0

>  <SlogP_VSA9>
48.710842

>  <SMR>
7.11654

>  <SMR_VSA0>
0

>  <SMR_VSA1>
50.35659

>  <SMR_VSA2>
21.065855

>  <SMR_VSA3>
0

>  <SMR_VSA4>
25.055773

>  <SMR_VSA5>
69.71508

>  <SMR_VSA6>
38.778248

>  <SMR_VSA7>
45.954094

>  <TPSA>
62.200001

>  <VAdjEq>
0.56150466

>  <VAdjMa>
5.2479277

>  <VDistEq>
2.947526

>  <VDistMa>
7.8666224

>  <vdw_area>
234.7262

>  <vdw_vol>
313.1412

>  <vsa_acc>
17.047728

>  <vsa_acid>
0

>  <vsa_base>
0

>  <vsa_don>
11.365152

>  <vsa_hyd>
178.79073

>  <vsa_other>
15.681574

>  <vsa_pol>
28.41288

>  <Weight>
292.13998

>  <weinerPath>
515

>  <weinerPol>
24

>  <zagreb>
90

$$$$