S(=O)(=O)(NC1=NC(=O)N(C=C1)CC)c1ccc(N)cc1
  MOE2013           2D

 20 21  0  0  0  0  0  0  0  0999 V2000
    0.0000    0.0000    0.0000 S   0  0  0  0  0  0  0  0  0  0  0  0
   -0.0090    1.5000    0.0000 O   0  0  0  0  0  0  0  0  0  0  0  0
    0.0090   -1.5000    0.0000 O   0  0  0  0  0  0  0  0  0  0  0  0
   -1.5000   -0.0090    0.0000 N   0  0  0  0  0  0  0  0  0  0  0  0
   -2.2570    1.2860    0.0000 C   0  0  0  0  0  0  0  0  0  0  0  0
   -3.7570    1.2780    0.0000 N   0  0  0  0  0  0  0  0  0  0  0  0
   -4.5150    2.5720    0.0000 C   0  0  0  0  0  0  0  0  0  0  0  0
   -6.0150    2.5640    0.0000 O   0  0  0  0  0  0  0  0  0  0  0  0
   -3.7720    3.8760    0.0000 N   0  0  0  0  0  0  0  0  0  0  0  0
   -2.2720    3.8840    0.0000 C   0  0  0  0  0  0  0  0  0  0  0  0
   -1.5150    2.5890    0.0000 C   0  0  0  0  0  0  0  0  0  0  0  0
   -4.5300    5.1700    0.0000 C   0  0  0  0  0  0  0  0  0  0  0  0
   -3.7870    6.4740    0.0000 C   0  0  0  0  0  0  0  0  0  0  0  0
    1.5000    0.0090    0.0000 C   0  0  0  0  0  0  0  0  0  0  0  0
    2.2430    1.3120    0.0000 C   0  0  0  0  0  0  0  0  0  0  0  0
    3.7430    1.3200    0.0000 C   0  0  0  0  0  0  0  0  0  0  0  0
    4.5000    0.0260    0.0000 C   0  0  0  0  0  0  0  0  0  0  0  0
    6.0000    0.0340    0.0000 N   0  0  0  0  0  0  0  0  0  0  0  0
    3.7570   -1.2780    0.0000 C   0  0  0  0  0  0  0  0  0  0  0  0
    2.2570   -1.2860    0.0000 C   0  0  0  0  0  0  0  0  0  0  0  0
  1  2  2  0  0  0  0
  1  3  2  0  0  0  0
  1  4  1  0  0  0  0
  1 14  1  0  0  0  0
  4  5  1  0  0  0  0
  5  6  2  0  0  0  0
  5 11  1  0  0  0  0
  6  7  1  0  0  0  0
  7  8  2  0  0  0  0
  7  9  1  0  0  0  0
  9 10  1  0  0  0  0
  9 12  1  0  0  0  0
 10 11  2  0  0  0  0
 12 13  1  0  0  0  0
 14 15  1  0  0  0  0
 14 20  2  0  0  0  0
 15 16  2  0  0  0  0
 16 17  1  0  0  0  0
 17 18  1  0  0  0  0
 17 19  2  0  0  0  0
 19 20  1  0  0  0  0
M  END
>  <Index>
1011

>  <ID>
HT1936

>  <class>
0

>  <apol>
40.161102

>  <ast_fraglike>
0

>  <ast_fraglike_ext>
0

>  <ast_violation>
1

>  <ast_violation_ext>
2

>  <a_acc>
4

>  <a_acid>
0

>  <a_aro>
6

>  <a_base>
0

>  <a_count>
34

>  <a_don>
2

>  <a_donacc>
6

>  <a_heavy>
20

>  <a_hyd>
10

>  <a_IC>
63.896332

>  <a_ICM>
1.8793038

>  <a_nB>
0

>  <a_nBr>
0

>  <a_nC>
12

>  <a_nCl>
0

>  <a_nF>
0

>  <a_nH>
14

>  <a_nI>
0

>  <a_nN>
4

>  <a_nO>
3

>  <a_nP>
0

>  <a_nS>
1

>  <balabanJ>
1.8592343

>  <BCUT_PEOE_0>
-2.5466866

>  <BCUT_PEOE_1>
-0.62297088

>  <BCUT_PEOE_2>
0.72058862

>  <BCUT_PEOE_3>
2.4899485

>  <BCUT_SLOGP_0>
-2.5957544

>  <BCUT_SLOGP_1>
-0.53807992

>  <BCUT_SLOGP_2>
0.76599532

>  <BCUT_SLOGP_3>
2.4147334

>  <BCUT_SMR_0>
-2.2113364

>  <BCUT_SMR_1>
-0.49986199

>  <BCUT_SMR_2>
0.85431087

>  <BCUT_SMR_3>
2.7857716

>  <bpol>
26.038898

>  <b_1rotN>
3

>  <b_1rotR>
0.14285715

>  <b_ar>
6

>  <b_count>
35

>  <b_double>
3

>  <b_heavy>
21

>  <b_max1len>
3

>  <b_rotN>
4

>  <b_rotR>
0.19047619

>  <b_single>
26

>  <b_triple>
0

>  <chi0>
14.750712

>  <chi0v>
11.592476

>  <chi0v_C>
7.1712084

>  <chi0_C>
8.2591486

>  <chi1>
9.4198523

>  <chi1v>
7.3632736

>  <chi1v_C>
3.1504824

>  <chi1_C>
4.2483482

>  <chiral>
0

>  <chiral_u>
0

>  <density>
0.83194566

>  <diameter>
12

>  <FCharge>
0

>  <GCUT_PEOE_0>
-0.90389621

>  <GCUT_PEOE_1>
-0.40181163

>  <GCUT_PEOE_2>
0.09322276

>  <GCUT_PEOE_3>
2.3949914

>  <GCUT_SLOGP_0>
-1.3342954

>  <GCUT_SLOGP_1>
-0.39143682

>  <GCUT_SLOGP_2>
0.16445385

>  <GCUT_SLOGP_3>
2.3922861

>  <GCUT_SMR_0>
-0.51228046

>  <GCUT_SMR_1>
-0.20272392

>  <GCUT_SMR_2>
0.19305076

>  <GCUT_SMR_3>
2.6819565

>  <Kier1>
16.371881

>  <Kier2>
6.8400002

>  <Kier3>
4.25

>  <KierA1>
12.525539

>  <KierA2>
5.1533837

>  <KierA3>
3.166204

>  <KierFlex>
3.2274456

>  <lip_acc>
7

>  <lip_don>
3

>  <lip_druglike>
1

>  <lip_violation>
0

>  <logP(o/w)>
0.51599997

>  <logS>
-2.49687

>  <mr>
7.4737101

>  <mutagenic>
1

>  <nmol>
1

>  <opr_brigid>
12

>  <opr_leadlike>
1

>  <opr_nring>
2

>  <opr_nrot>
3

>  <opr_violation>
0

>  <PC+>
0

>  <PC->
0

>  <PEOE_PC+>
1.8770897

>  <PEOE_PC->
-1.8770897

>  <PEOE_RPC+>
0.17262642

>  <PEOE_RPC->
0.24439289

>  <PEOE_VSA+0>
84.552811

>  <PEOE_VSA+1>
36.782879

>  <PEOE_VSA+2>
34.67857

>  <PEOE_VSA+3>
8.6190128

>  <PEOE_VSA+4>
0

>  <PEOE_VSA+5>
10.105608

>  <PEOE_VSA+6>
4.1846013

>  <PEOE_VSA-0>
66.70295

>  <PEOE_VSA-1>
18.747677

>  <PEOE_VSA-2>
2.5295215

>  <PEOE_VSA-3>
0

>  <PEOE_VSA-4>
0

>  <PEOE_VSA-5>
0

>  <PEOE_VSA-6>
25.900616

>  <PEOE_VSA_FHYD>
0.86273825

>  <PEOE_VSA_FNEG>
0.38893139

>  <PEOE_VSA_FPNEG>
0.088457108

>  <PEOE_VSA_FPOL>
0.13726176

>  <PEOE_VSA_FPOS>
0.61106861

>  <PEOE_VSA_FPPOS>
0.048804652

>  <PEOE_VSA_HYD>
252.61342

>  <PEOE_VSA_NEG>
113.88077

>  <PEOE_VSA_PNEG>
25.900616

>  <PEOE_VSA_POL>
40.190826

>  <PEOE_VSA_POS>
178.92348

>  <PEOE_VSA_PPOS>
14.29021

>  <petitjean>
0.5

>  <petitjeanSC>
1

>  <Q_PC+>
0

>  <Q_PC->
0

>  <Q_RPC+>
0

>  <Q_RPC->
0

>  <Q_VSA_FHYD>
1

>  <Q_VSA_FNEG>
0

>  <Q_VSA_FPNEG>
0

>  <Q_VSA_FPOL>
0

>  <Q_VSA_FPOS>
1

>  <Q_VSA_FPPOS>
0

>  <Q_VSA_HYD>
292.80426

>  <Q_VSA_NEG>
0

>  <Q_VSA_PNEG>
0

>  <Q_VSA_POL>
0

>  <Q_VSA_POS>
292.80426

>  <Q_VSA_PPOS>
0

>  <radius>
6

>  <reactive>
0

>  <rings>
2

>  <RPC+>
0

>  <RPC->
0

>  <rsynth>
1

>  <SlogP>
0.91479999

>  <SlogP_VSA0>
49.302185

>  <SlogP_VSA1>
58.453876

>  <SlogP_VSA2>
6.6407428

>  <SlogP_VSA3>
18.439579

>  <SlogP_VSA4>
0

>  <SlogP_VSA5>
18.336264

>  <SlogP_VSA6>
0

>  <SlogP_VSA7>
105.43027

>  <SlogP_VSA8>
0

>  <SlogP_VSA9>
59.944977

>  <SMR>
7.55269

>  <SMR_VSA0>
72.033905

>  <SMR_VSA1>
19.909843

>  <SMR_VSA2>
17.955732

>  <SMR_VSA3>
0

>  <SMR_VSA4>
2.7567475

>  <SMR_VSA5>
138.32747

>  <SMR_VSA6>
25.597454

>  <SMR_VSA7>
39.966759

>  <TPSA>
104.86

>  <VAdjEq>
0.48464775

>  <VAdjMa>
5.3923173

>  <VDistEq>
3.254359

>  <VDistMa>
8.3287735

>  <vdw_area>
292.80426

>  <vdw_vol>
353.79114

>  <vsa_acc>
51.266022

>  <vsa_acid>
0

>  <vsa_base>
0

>  <vsa_don>
25.817696

>  <vsa_hyd>
159.93408

>  <vsa_other>
38.736713

>  <vsa_pol>
77.083717

>  <Weight>
294.33499

>  <weinerPath>
856

>  <weinerPol>
30

>  <zagreb>
102

$$$$