Fc1cc2c(OCCC23NC(=O)NC3=O)cc1
  MOE2013           2D

 17 19  0  0  1  0  0  0  0  0999 V2000
    0.0000    0.0000    0.0000 F   0  0  0  0  0  0  0  0  0  0  0  0
    0.7400   -1.3050    0.0000 C   0  0  0  0  0  0  0  0  0  0  0  0
    2.2400   -1.3160    0.0000 C   0  0  0  0  0  0  0  0  0  0  0  0
    2.9800   -2.6210    0.0000 C   0  0  0  0  0  0  0  0  0  0  0  0
    2.2200   -3.9140    0.0000 C   0  0  0  0  0  0  0  0  0  0  0  0
    2.9600   -5.2190    0.0000 O   0  0  0  0  0  0  0  0  0  0  0  0
    4.4600   -5.2300    0.0000 C   0  0  0  0  0  0  0  0  0  0  0  0
    5.2200   -3.9370    0.0000 C   0  0  0  0  0  0  0  0  0  0  0  0
    4.4800   -2.6320    0.0000 C   0  0  3  0  0  0  0  0  0  0  0  0
    5.9730   -2.7750    0.0000 N   0  0  0  0  0  0  0  0  0  0  0  0
    6.5700   -1.3980    0.0000 C   0  0  0  0  0  0  0  0  0  0  0  0
    8.0340   -1.0720    0.0000 O   0  0  0  0  0  0  0  0  0  0  0  0
    5.4450   -0.4060    0.0000 N   0  0  0  0  0  0  0  0  0  0  0  0
    4.1540   -1.1680    0.0000 C   0  0  0  0  0  0  0  0  0  0  0  0
    2.7780   -0.5720    0.0000 O   0  0  0  0  0  0  0  0  0  0  0  0
    0.7200   -3.9030    0.0000 C   0  0  0  0  0  0  0  0  0  0  0  0
   -0.0200   -2.5980    0.0000 C   0  0  0  0  0  0  0  0  0  0  0  0
  1  2  1  0  0  0  0
  2  3  1  0  0  0  0
  2 17  2  0  0  0  0
  3  4  2  0  0  0  0
  4  5  1  0  0  0  0
  4  9  1  0  0  0  0
  5  6  1  0  0  0  0
  5 16  2  0  0  0  0
  6  7  1  0  0  0  0
  7  8  1  0  0  0  0
  8  9  1  0  0  0  0
  9 10  1  0  0  0  0
  9 14  1  0  0  0  0
 10 11  1  0  0  0  0
 11 12  2  0  0  0  0
 11 13  1  0  0  0  0
 13 14  1  0  0  0  0
 14 15  2  0  0  0  0
 16 17  1  0  0  0  0
M  END
>  <Index>
1280

>  <ID>
HT3027

>  <class>
0

>  <apol>
30.524137

>  <ast_fraglike>
1

>  <ast_fraglike_ext>
1

>  <ast_violation>
0

>  <ast_violation_ext>
0

>  <a_acc>
3

>  <a_acid>
0

>  <a_aro>
6

>  <a_base>
0

>  <a_count>
26

>  <a_don>
2

>  <a_donacc>
5

>  <a_heavy>
17

>  <a_hyd>
10

>  <a_IC>
48.873474

>  <a_ICM>
1.8797489

>  <a_nB>
0

>  <a_nBr>
0

>  <a_nC>
11

>  <a_nCl>
0

>  <a_nF>
1

>  <a_nH>
9

>  <a_nI>
0

>  <a_nN>
2

>  <a_nO>
3

>  <a_nP>
0

>  <a_nS>
0

>  <balabanJ>
1.8806942

>  <BCUT_PEOE_0>
-2.5780938

>  <BCUT_PEOE_1>
-0.62370807

>  <BCUT_PEOE_2>
0.58557975

>  <BCUT_PEOE_3>
2.695914

>  <BCUT_SLOGP_0>
-2.6205404

>  <BCUT_SLOGP_1>
-0.48812738

>  <BCUT_SLOGP_2>
0.78611976

>  <BCUT_SLOGP_3>
2.6748395

>  <BCUT_SMR_0>
-2.3417218

>  <BCUT_SMR_1>
-0.4208706

>  <BCUT_SMR_2>
0.77462959

>  <BCUT_SMR_3>
2.9388525

>  <bpol>
16.193863

>  <b_1rotN>
0

>  <b_1rotR>
0

>  <b_ar>
6

>  <b_count>
28

>  <b_double>
2

>  <b_heavy>
19

>  <b_max1len>
2

>  <b_rotN>
0

>  <b_rotR>
0

>  <b_single>
20

>  <b_triple>
0

>  <chi0>
12.043606

>  <chi0v>
8.7489738

>  <chi0v_C>
6.1462646

>  <chi0_C>
6.9222851

>  <chi1>
8.1158276

>  <chi1v>
5.1816173

>  <chi1v_C>
3.0915873

>  <chi1_C>
3.8972301

>  <chiral>
1

>  <chiral_u>
1

>  <density>
0.86851996

>  <diameter>
7

>  <FCharge>
0

>  <GCUT_PEOE_0>
-0.79541534

>  <GCUT_PEOE_1>
-0.45810664

>  <GCUT_PEOE_2>
0.068977177

>  <GCUT_PEOE_3>
2.5448353

>  <GCUT_SLOGP_0>
-1.1954967

>  <GCUT_SLOGP_1>
-0.37896952

>  <GCUT_SLOGP_2>
0.24305329

>  <GCUT_SLOGP_3>
2.5673261

>  <GCUT_SMR_0>
-0.50953138

>  <GCUT_SMR_1>
-0.2190164

>  <GCUT_SMR_2>
0.16627213

>  <GCUT_SMR_3>
2.7937901

>  <Kier1>
12.055402

>  <Kier2>
4.2806182

>  <Kier3>
1.8655562

>  <KierA1>
8.5273104

>  <KierA2>
2.955832

>  <KierA3>
1.2635541

>  <KierFlex>
1.4826645

>  <lip_acc>
5

>  <lip_don>
2

>  <lip_druglike>
1

>  <lip_violation>
0

>  <logP(o/w)>
0.89499998

>  <logS>
-2.6043501

>  <mr>
5.6763954

>  <mutagenic>
0

>  <nmol>
1

>  <opr_brigid>
16

>  <opr_leadlike>
1

>  <opr_nring>
3

>  <opr_nrot>
0

>  <opr_violation>
0

>  <PC+>
0

>  <PC->
0

>  <PEOE_PC+>
1.7337711

>  <PEOE_PC->
-1.7337711

>  <PEOE_RPC+>
0.18669274

>  <PEOE_RPC->
0.19854234

>  <PEOE_VSA+0>
19.440624

>  <PEOE_VSA+1>
44.736744

>  <PEOE_VSA+2>
9.0208454

>  <PEOE_VSA+3>
17.238026

>  <PEOE_VSA+4>
0

>  <PEOE_VSA+5>
12.949531

>  <PEOE_VSA+6>
17.440542

>  <PEOE_VSA-0>
36.764713

>  <PEOE_VSA-1>
0

>  <PEOE_VSA-2>
0

>  <PEOE_VSA-3>
0

>  <PEOE_VSA-4>
25.475557

>  <PEOE_VSA-5>
13.703812

>  <PEOE_VSA-6>
2.6406472

>  <PEOE_VSA_FHYD>
0.63788319

>  <PEOE_VSA_FNEG>
0.39408413

>  <PEOE_VSA_FPNEG>
0.20971766

>  <PEOE_VSA_FPOL>
0.36211681

>  <PEOE_VSA_FPOS>
0.60591584

>  <PEOE_VSA_FPPOS>
0.15239915

>  <PEOE_VSA_HYD>
127.20095

>  <PEOE_VSA_NEG>
78.584724

>  <PEOE_VSA_PNEG>
41.820015

>  <PEOE_VSA_POL>
72.210091

>  <PEOE_VSA_POS>
120.82631

>  <PEOE_VSA_PPOS>
30.390074

>  <petitjean>
0.42857143

>  <petitjeanSC>
0.75

>  <Q_PC+>
0

>  <Q_PC->
0

>  <Q_RPC+>
0

>  <Q_RPC->
0

>  <Q_VSA_FHYD>
1

>  <Q_VSA_FNEG>
0

>  <Q_VSA_FPNEG>
0

>  <Q_VSA_FPOL>
0

>  <Q_VSA_FPOS>
1

>  <Q_VSA_FPPOS>
0

>  <Q_VSA_HYD>
199.41104

>  <Q_VSA_NEG>
0

>  <Q_VSA_PNEG>
0

>  <Q_VSA_POL>
0

>  <Q_VSA_POS>
199.41104

>  <Q_VSA_PPOS>
0

>  <radius>
4

>  <reactive>
0

>  <rings>
3

>  <RPC+>
0

>  <RPC->
0

>  <rsynth>
1

>  <SlogP>
0.9544

>  <SlogP_VSA0>
47.021389

>  <SlogP_VSA1>
10.088739

>  <SlogP_VSA2>
32.983234

>  <SlogP_VSA3>
20.926258

>  <SlogP_VSA4>
3.185575

>  <SlogP_VSA5>
0

>  <SlogP_VSA6>
0

>  <SlogP_VSA7>
52.929554

>  <SlogP_VSA8>
18.868406

>  <SlogP_VSA9>
44.065758

>  <SMR>
5.4981399

>  <SMR_VSA0>
47.724434

>  <SMR_VSA1>
25.960001

>  <SMR_VSA2>
45.142521

>  <SMR_VSA3>
8.4290028

>  <SMR_VSA4>
0

>  <SMR_VSA5>
71.797958

>  <SMR_VSA6>
31.014997

>  <SMR_VSA7>
0

>  <TPSA>
67.43

>  <VAdjEq>
0.56150466

>  <VAdjMa>
5.2479277

>  <VDistEq>
2.5825505

>  <VDistMa>
7.9207172

>  <vdw_area>
199.41104

>  <vdw_vol>
271.9592

>  <vsa_acc>
29.637598

>  <vsa_acid>
0

>  <vsa_base>
0

>  <vsa_don>
11.365152

>  <vsa_hyd>
116.88899

>  <vsa_other>
30.390074

>  <vsa_pol>
41.00275

>  <Weight>
236.202

>  <weinerPath>
445

>  <weinerPol>
30

>  <zagreb>
96

$$$$