O(C(=O)C1(CCCC1)c1ccccc1)CCOCCN(CC)CC
  MOE2013           2D

 24 25  0  0  0  0  0  0  0  0999 V2000
    0.0000    0.0000    0.0000 O   0  0  0  0  0  0  0  0  0  0  0  0
   -1.2930    0.7600    0.0000 C   0  0  0  0  0  0  0  0  0  0  0  0
   -1.2820    2.2600    0.0000 O   0  0  0  0  0  0  0  0  0  0  0  0
   -2.5980    0.0200    0.0000 C   0  0  0  0  0  0  0  0  0  0  0  0
   -4.0200   -0.4570    0.0000 C   0  0  0  0  0  0  0  0  0  0  0  0
   -4.0050   -1.9570    0.0000 C   0  0  0  0  0  0  0  0  0  0  0  0
   -2.5740   -2.4070    0.0000 C   0  0  0  0  0  0  0  0  0  0  0  0
   -1.7050   -1.1850    0.0000 C   0  0  0  0  0  0  0  0  0  0  0  0
   -3.3830    1.2980    0.0000 C   0  0  0  0  0  0  0  0  0  0  0  0
   -4.8530    0.9980    0.0000 C   0  0  0  0  0  0  0  0  0  0  0  0
   -5.8480    2.1200    0.0000 C   0  0  0  0  0  0  0  0  0  0  0  0
   -5.3730    3.5430    0.0000 C   0  0  0  0  0  0  0  0  0  0  0  0
   -3.9030    3.8440    0.0000 C   0  0  0  0  0  0  0  0  0  0  0  0
   -2.9080    2.7210    0.0000 C   0  0  0  0  0  0  0  0  0  0  0  0
    1.3050    0.7400    0.0000 C   0  0  0  0  0  0  0  0  0  0  0  0
    2.5980   -0.0200    0.0000 C   0  0  0  0  0  0  0  0  0  0  0  0
    3.9030    0.7200    0.0000 O   0  0  0  0  0  0  0  0  0  0  0  0
    5.1960   -0.0400    0.0000 C   0  0  0  0  0  0  0  0  0  0  0  0
    6.5010    0.7000    0.0000 C   0  0  0  0  0  0  0  0  0  0  0  0
    7.7940   -0.0600    0.0000 N   0  0  0  0  0  0  0  0  0  0  0  0
    9.0990    0.6800    0.0000 C   0  0  0  0  0  0  0  0  0  0  0  0
    9.1100    2.1800    0.0000 C   0  0  0  0  0  0  0  0  0  0  0  0
    7.7820   -1.5600    0.0000 C   0  0  0  0  0  0  0  0  0  0  0  0
    9.0760   -2.3200    0.0000 C   0  0  0  0  0  0  0  0  0  0  0  0
  1  2  1  0  0  0  0
  1 15  1  0  0  0  0
  2  3  2  0  0  0  0
  2  4  1  0  0  0  0
  4  5  1  0  0  0  0
  4  8  1  0  0  0  0
  4  9  1  0  0  0  0
  5  6  1  0  0  0  0
  6  7  1  0  0  0  0
  7  8  1  0  0  0  0
  9 10  1  0  0  0  0
  9 14  2  0  0  0  0
 10 11  2  0  0  0  0
 11 12  1  0  0  0  0
 12 13  2  0  0  0  0
 13 14  1  0  0  0  0
 15 16  1  0  0  0  0
 16 17  1  0  0  0  0
 17 18  1  0  0  0  0
 18 19  1  0  0  0  0
 19 20  1  0  0  0  0
 20 21  1  0  0  0  0
 20 23  1  0  0  0  0
 21 22  1  0  0  0  0
 23 24  1  0  0  0  0
M  END
>  <Index>
1341

>  <ID>
HT3523

>  <class>
0

>  <apol>
59.376583

>  <ast_fraglike>
0

>  <ast_fraglike_ext>
0

>  <ast_violation>
2

>  <ast_violation_ext>
3

>  <a_acc>
3

>  <a_acid>
0

>  <a_aro>
6

>  <a_base>
0

>  <a_count>
55

>  <a_don>
0

>  <a_donacc>
3

>  <a_heavy>
24

>  <a_hyd>
19

>  <a_IC>
73.201248

>  <a_ICM>
1.3309318

>  <a_nB>
0

>  <a_nBr>
0

>  <a_nC>
20

>  <a_nCl>
0

>  <a_nF>
0

>  <a_nH>
31

>  <a_nI>
0

>  <a_nN>
1

>  <a_nO>
3

>  <a_nP>
0

>  <a_nS>
0

>  <balabanJ>
1.6871291

>  <BCUT_PEOE_0>
-2.6775415

>  <BCUT_PEOE_1>
-0.34239835

>  <BCUT_PEOE_2>
0.35452479

>  <BCUT_PEOE_3>
2.7743969

>  <BCUT_SLOGP_0>
-2.7553244

>  <BCUT_SLOGP_1>
-0.27692324

>  <BCUT_SLOGP_2>
0.41128814

>  <BCUT_SLOGP_3>
2.8580499

>  <BCUT_SMR_0>
-2.4033606

>  <BCUT_SMR_1>
-0.17990166

>  <BCUT_SMR_2>
0.51905179

>  <BCUT_SMR_3>
3.0179193

>  <bpol>
40.659416

>  <b_1rotN>
10

>  <b_1rotR>
0.40000001

>  <b_ar>
6

>  <b_count>
56

>  <b_double>
1

>  <b_heavy>
25

>  <b_max1len>
9

>  <b_rotN>
11

>  <b_rotR>
0.44

>  <b_single>
49

>  <b_triple>
0

>  <chi0>
17.252867

>  <chi0v>
15.129778

>  <chi0v_C>
13.457819

>  <chi0_C>
14.261302

>  <chi1>
11.725511

>  <chi1v>
9.254961

>  <chi1v_C>
7.0320039

>  <chi1_C>
8.0151672

>  <chiral>
0

>  <chiral_u>
0

>  <density>
0.67044795

>  <diameter>
14

>  <FCharge>
0

>  <GCUT_PEOE_0>
-0.85607094

>  <GCUT_PEOE_1>
-0.37038955

>  <GCUT_PEOE_2>
-0.086798683

>  <GCUT_PEOE_3>
2.7559934

>  <GCUT_SLOGP_0>
-0.9588241

>  <GCUT_SLOGP_1>
-0.26615351

>  <GCUT_SLOGP_2>
-0.026031263

>  <GCUT_SLOGP_3>
2.8059514

>  <GCUT_SMR_0>
-0.53139472

>  <GCUT_SMR_1>
-0.1588271

>  <GCUT_SMR_2>
0.070669018

>  <GCUT_SMR_3>
2.9922245

>  <Kier1>
20.313601

>  <Kier2>
10.871094

>  <Kier3>
5.7619047

>  <KierA1>
17.620398

>  <KierA2>
9.3683681

>  <KierA3>
4.9421296

>  <KierFlex>
6.878099

>  <lip_acc>
4

>  <lip_don>
0

>  <lip_druglike>
1

>  <lip_violation>
0

>  <logP(o/w)>
3.92974

>  <logS>
-3.85497

>  <mr>
9.8315811

>  <mutagenic>
0

>  <nmol>
1

>  <opr_brigid>
11

>  <opr_leadlike>
1

>  <opr_nring>
2

>  <opr_nrot>
11

>  <opr_violation>
1

>  <PC+>
0

>  <PC->
0

>  <PEOE_PC+>
1.869061

>  <PEOE_PC->
-1.869061

>  <PEOE_RPC+>
0.14596431

>  <PEOE_RPC->
0.20129022

>  <PEOE_VSA+0>
98.500046

>  <PEOE_VSA+1>
91.773125

>  <PEOE_VSA+2>
0

>  <PEOE_VSA+3>
0

>  <PEOE_VSA+4>
0

>  <PEOE_VSA+5>
14.708499

>  <PEOE_VSA+6>
0

>  <PEOE_VSA-0>
45.995815

>  <PEOE_VSA-1>
116.1725

>  <PEOE_VSA-2>
0

>  <PEOE_VSA-3>
0

>  <PEOE_VSA-4>
0

>  <PEOE_VSA-5>
13.566921

>  <PEOE_VSA-6>
5.0075121

>  <PEOE_VSA_FHYD>
0.91371316

>  <PEOE_VSA_FNEG>
0.46858001

>  <PEOE_VSA_FPNEG>
0.048154671

>  <PEOE_VSA_FPOL>
0.08628682

>  <PEOE_VSA_FPOS>
0.53141999

>  <PEOE_VSA_FPPOS>
0.038132146

>  <PEOE_VSA_HYD>
352.4415

>  <PEOE_VSA_NEG>
180.74275

>  <PEOE_VSA_PNEG>
18.574432

>  <PEOE_VSA_POL>
33.282932

>  <PEOE_VSA_POS>
204.98167

>  <PEOE_VSA_PPOS>
14.708499

>  <petitjean>
0.5

>  <petitjeanSC>
1

>  <Q_PC+>
0

>  <Q_PC->
0

>  <Q_RPC+>
0

>  <Q_RPC->
0

>  <Q_VSA_FHYD>
1

>  <Q_VSA_FNEG>
0

>  <Q_VSA_FPNEG>
0

>  <Q_VSA_FPOL>
0

>  <Q_VSA_FPOS>
1

>  <Q_VSA_FPPOS>
0

>  <Q_VSA_HYD>
385.72443

>  <Q_VSA_NEG>
0

>  <Q_VSA_PNEG>
0

>  <Q_VSA_POL>
0

>  <Q_VSA_POS>
385.72443

>  <Q_VSA_PPOS>
0

>  <radius>
7

>  <reactive>
0

>  <rings>
2

>  <RPC+>
0

>  <RPC->
0

>  <rsynth>
1

>  <SlogP>
3.4000001

>  <SlogP_VSA0>
0

>  <SlogP_VSA1>
10.869778

>  <SlogP_VSA2>
45.861992

>  <SlogP_VSA3>
118.09751

>  <SlogP_VSA4>
3.185575

>  <SlogP_VSA5>
0

>  <SlogP_VSA6>
0

>  <SlogP_VSA7>
88.215919

>  <SlogP_VSA8>
75.473625

>  <SlogP_VSA9>
66.652031

>  <SMR>
9.6154003

>  <SMR_VSA0>
45.861992

>  <SMR_VSA1>
3.1243138

>  <SMR_VSA2>
0

>  <SMR_VSA3>
3.185575

>  <SMR_VSA4>
0

>  <SMR_VSA5>
163.68954

>  <SMR_VSA6>
125.84297

>  <SMR_VSA7>
66.652031

>  <TPSA>
38.77

>  <VAdjEq>
0.42571631

>  <VAdjMa>
5.643856

>  <VDistEq>
3.6221771

>  <VDistMa>
8.8344765

>  <vdw_area>
385.72443

>  <vdw_vol>
497.38684

>  <vsa_acc>
16.070677

>  <vsa_acid>
0

>  <vsa_base>
0

>  <vsa_don>
0

>  <vsa_hyd>
330.37582

>  <vsa_other>
17.212255

>  <vsa_pol>
16.070677

>  <Weight>
333.47198

>  <weinerPath>
1594

>  <weinerPol>
34

>  <zagreb>
114

$$$$