O1c2cc(ccc2OC1)CC(NC)C
  MOE2013           2D

 14 15  0  0  1  0  0  0  0  0999 V2000
    0.0000    0.0000    0.0000 O   0  0  0  0  0  0  0  0  0  0  0  0
    1.3650    0.6210    0.0000 C   0  0  0  0  0  0  0  0  0  0  0  0
    2.7410    0.0220    0.0000 C   0  0  0  0  0  0  0  0  0  0  0  0
    3.9470    0.9140    0.0000 C   0  0  0  0  0  0  0  0  0  0  0  0
    3.7780    2.4040    0.0000 C   0  0  0  0  0  0  0  0  0  0  0  0
    2.4030    3.0030    0.0000 C   0  0  0  0  0  0  0  0  0  0  0  0
    1.1970    2.1120    0.0000 C   0  0  0  0  0  0  0  0  0  0  0  0
   -0.2730    2.4120    0.0000 O   0  0  0  0  0  0  0  0  0  0  0  0
   -1.0130    1.1070    0.0000 C   0  0  0  0  0  0  0  0  0  0  0  0
    5.3220    0.3150    0.0000 C   0  0  0  0  0  0  0  0  0  0  0  0
    6.5280    1.2060    0.0000 C   0  0  3  0  0  0  0  0  0  0  0  0
    7.9040    0.6070    0.0000 N   0  0  0  0  0  0  0  0  0  0  0  0
    9.1100    1.4980    0.0000 C   0  0  0  0  0  0  0  0  0  0  0  0
    6.3600    2.6960    0.0000 C   0  0  0  0  0  0  0  0  0  0  0  0
  1  2  1  0  0  0  0
  1  9  1  0  0  0  0
  2  3  1  0  0  0  0
  2  7  2  0  0  0  0
  3  4  2  0  0  0  0
  4  5  1  0  0  0  0
  4 10  1  0  0  0  0
  5  6  2  0  0  0  0
  6  7  1  0  0  0  0
  7  8  1  0  0  0  0
  8  9  1  0  0  0  0
 10 11  1  0  0  0  0
 11 12  1  0  0  0  0
 11 14  1  0  0  0  0
 12 13  1  0  0  0  0
M  END
>  <Index>
1259

>  <ID>
HT2825

>  <class>
0

>  <apol>
32.065895

>  <ast_fraglike>
1

>  <ast_fraglike_ext>
1

>  <ast_violation>
0

>  <ast_violation_ext>
0

>  <a_acc>
3

>  <a_acid>
0

>  <a_aro>
6

>  <a_base>
0

>  <a_count>
29

>  <a_don>
1

>  <a_donacc>
4

>  <a_heavy>
14

>  <a_hyd>
10

>  <a_IC>
42.224342

>  <a_ICM>
1.4560118

>  <a_nB>
0

>  <a_nBr>
0

>  <a_nC>
11

>  <a_nCl>
0

>  <a_nF>
0

>  <a_nH>
15

>  <a_nI>
0

>  <a_nN>
1

>  <a_nO>
2

>  <a_nP>
0

>  <a_nS>
0

>  <balabanJ>
1.8057426

>  <BCUT_PEOE_0>
-2.6197388

>  <BCUT_PEOE_1>
-0.46863919

>  <BCUT_PEOE_2>
0.51993376

>  <BCUT_PEOE_3>
2.5433571

>  <BCUT_SLOGP_0>
-2.7357409

>  <BCUT_SLOGP_1>
-0.46213305

>  <BCUT_SLOGP_2>
0.57431281

>  <BCUT_SLOGP_3>
2.549602

>  <BCUT_SMR_0>
-2.3449821

>  <BCUT_SMR_1>
-0.3319782

>  <BCUT_SMR_2>
0.70573789

>  <BCUT_SMR_3>
2.8138909

>  <bpol>
20.890104

>  <b_1rotN>
3

>  <b_1rotR>
0.2

>  <b_ar>
6

>  <b_count>
30

>  <b_double>
0

>  <b_heavy>
15

>  <b_max1len>
5

>  <b_rotN>
3

>  <b_rotR>
0.2

>  <b_single>
24

>  <b_triple>
0

>  <chi0>
9.9662552

>  <chi0v>
8.5401115

>  <chi0v_C>
7.2236147

>  <chi0_C>
7.8449349

>  <chi1>
6.7920251

>  <chi1v>
4.8514595

>  <chi1v_C>
3.0771859

>  <chi1_C>
3.8601735

>  <chiral>
1

>  <chiral_u>
1

>  <density>
0.70340419

>  <diameter>
8

>  <FCharge>
0

>  <GCUT_PEOE_0>
-0.85207015

>  <GCUT_PEOE_1>
-0.35478672

>  <GCUT_PEOE_2>
0.0056582978

>  <GCUT_PEOE_3>
2.4076376

>  <GCUT_SLOGP_0>
-1.1529257

>  <GCUT_SLOGP_1>
-0.34939638

>  <GCUT_SLOGP_2>
0.11536516

>  <GCUT_SLOGP_3>
2.4968786

>  <GCUT_SMR_0>
-0.5187133

>  <GCUT_SMR_1>
-0.2008442

>  <GCUT_SMR_2>
0.13835175

>  <GCUT_SMR_3>
2.6681232

>  <Kier1>
10.515555

>  <Kier2>
4.6799998

>  <Kier3>
2.5344

>  <KierA1>
8.7738733

>  <KierA2>
3.8458905

>  <KierA3>
2.0585272

>  <KierFlex>
2.4102397

>  <lip_acc>
3

>  <lip_don>
1

>  <lip_druglike>
1

>  <lip_violation>
0

>  <logP(o/w)>
1.942

>  <logS>
-1.46916

>  <mr>
5.5332232

>  <mutagenic>
0

>  <nmol>
1

>  <opr_brigid>
10

>  <opr_leadlike>
1

>  <opr_nring>
2

>  <opr_nrot>
3

>  <opr_violation>
0

>  <PC+>
0

>  <PC->
0

>  <PEOE_PC+>
1.1774306

>  <PEOE_PC->
-1.1774306

>  <PEOE_RPC+>
0.13591532

>  <PEOE_RPC->
0.26854876

>  <PEOE_VSA+0>
41.534435

>  <PEOE_VSA+1>
21.326929

>  <PEOE_VSA+2>
25.536053

>  <PEOE_VSA+3>
21.201273

>  <PEOE_VSA+4>
0

>  <PEOE_VSA+5>
0

>  <PEOE_VSA+6>
0

>  <PEOE_VSA-0>
77.406029

>  <PEOE_VSA-1>
12.254904

>  <PEOE_VSA-2>
0

>  <PEOE_VSA-3>
0

>  <PEOE_VSA-4>
0

>  <PEOE_VSA-5>
0

>  <PEOE_VSA-6>
5.1444035

>  <PEOE_VSA_FHYD>
0.97483218

>  <PEOE_VSA_FNEG>
0.46381345

>  <PEOE_VSA_FPNEG>
0.025167817

>  <PEOE_VSA_FPOL>
0.025167817

>  <PEOE_VSA_FPOS>
0.53618658

>  <PEOE_VSA_FPPOS>
0

>  <PEOE_VSA_HYD>
199.25963

>  <PEOE_VSA_NEG>
94.805336

>  <PEOE_VSA_PNEG>
5.1444035

>  <PEOE_VSA_POL>
5.1444035

>  <PEOE_VSA_POS>
109.59869

>  <PEOE_VSA_PPOS>
0

>  <petitjean>
0.5

>  <petitjeanSC>
1

>  <Q_PC+>
0

>  <Q_PC->
0

>  <Q_RPC+>
0

>  <Q_RPC->
0

>  <Q_VSA_FHYD>
1

>  <Q_VSA_FNEG>
0

>  <Q_VSA_FPNEG>
0

>  <Q_VSA_FPOL>
0

>  <Q_VSA_FPOS>
1

>  <Q_VSA_FPPOS>
0

>  <Q_VSA_HYD>
204.40402

>  <Q_VSA_NEG>
0

>  <Q_VSA_PNEG>
0

>  <Q_VSA_POL>
0

>  <Q_VSA_POS>
204.40402

>  <Q_VSA_PPOS>
0

>  <radius>
4

>  <reactive>
0

>  <rings>
2

>  <RPC+>
0

>  <RPC->
0

>  <rsynth>
1

>  <SlogP>
1.56567

>  <SlogP_VSA0>
40.010525

>  <SlogP_VSA1>
0

>  <SlogP_VSA2>
3.9819686

>  <SlogP_VSA3>
22.984112

>  <SlogP_VSA4>
3.185575

>  <SlogP_VSA5>
51.765594

>  <SlogP_VSA6>
0

>  <SlogP_VSA7>
52.929554

>  <SlogP_VSA8>
0

>  <SlogP_VSA9>
43.81287

>  <SMR>
5.4790702

>  <SMR_VSA0>
0

>  <SMR_VSA1>
21.999775

>  <SMR_VSA2>
18.01075

>  <SMR_VSA3>
17.6544

>  <SMR_VSA4>
0

>  <SMR_VSA5>
71.797958

>  <SMR_VSA6>
22.984112

>  <SMR_VSA7>
66.223206

>  <TPSA>
30.49

>  <VAdjEq>
0.61744827

>  <VAdjMa>
4.9068904

>  <VDistEq>
2.8005028

>  <VDistMa>
7.2853322

>  <vdw_area>
204.40402

>  <vdw_vol>
274.72964

>  <vsa_acc>
5.0075121

>  <vsa_acid>
0

>  <vsa_base>
0

>  <vsa_don>
0

>  <vsa_hyd>
152.36702

>  <vsa_other>
28.308455

>  <vsa_pol>
10.690088

>  <Weight>
193.246

>  <weinerPath>
314

>  <weinerPol>
17

>  <zagreb>
70

$$$$