OC(=O)c1ccc(cc1)C(=O)Nc1cc2c(cc1)C(CCC2(C)C)(C)C
  MOE2013           2D

 26 28  0  0  0  0  0  0  0  0999 V2000
    0.0000    0.0000    0.0000 O   0  0  0  0  0  0  0  0  0  0  0  0
   -0.7570   -1.2950    0.0000 C   0  0  0  0  0  0  0  0  0  0  0  0
   -0.0140   -2.5980    0.0000 O   0  0  0  0  0  0  0  0  0  0  0  0
   -2.2570   -1.2870    0.0000 C   0  0  0  0  0  0  0  0  0  0  0  0
   -3.0130   -2.5820    0.0000 C   0  0  0  0  0  0  0  0  0  0  0  0
   -4.5130   -2.5750    0.0000 C   0  0  0  0  0  0  0  0  0  0  0  0
   -5.2570   -1.2720    0.0000 C   0  0  0  0  0  0  0  0  0  0  0  0
   -4.5000    0.0230    0.0000 C   0  0  0  0  0  0  0  0  0  0  0  0
   -3.0000    0.0160    0.0000 C   0  0  0  0  0  0  0  0  0  0  0  0
   -6.7570   -1.2640    0.0000 C   0  0  0  0  0  0  0  0  0  0  0  0
   -7.5130   -2.5590    0.0000 O   0  0  0  0  0  0  0  0  0  0  0  0
   -7.5000    0.0390    0.0000 N   0  0  0  0  0  0  0  0  0  0  0  0
   -9.0000    0.0470    0.0000 C   0  0  0  0  0  0  0  0  0  0  0  0
   -9.7430    1.3500    0.0000 C   0  0  0  0  0  0  0  0  0  0  0  0
  -11.2430    1.3580    0.0000 C   0  0  0  0  0  0  0  0  0  0  0  0
  -12.0000    0.0620    0.0000 C   0  0  0  0  0  0  0  0  0  0  0  0
  -11.2570   -1.2400    0.0000 C   0  0  0  0  0  0  0  0  0  0  0  0
   -9.7570   -1.2480    0.0000 C   0  0  0  0  0  0  0  0  0  0  0  0
  -13.5000    0.0700    0.0000 C   0  0  0  0  0  0  0  0  0  0  0  0
  -14.2430    1.3730    0.0000 C   0  0  0  0  0  0  0  0  0  0  0  0
  -13.4860    2.6680    0.0000 C   0  0  0  0  0  0  0  0  0  0  0  0
  -11.9860    2.6610    0.0000 C   0  0  0  0  0  0  0  0  0  0  0  0
  -11.9790    4.1600    0.0000 C   0  0  0  0  0  0  0  0  0  0  0  0
  -10.6830    3.4040    0.0000 C   0  0  0  0  0  0  0  0  0  0  0  0
  -13.5080   -1.4300    0.0000 C   0  0  0  0  0  0  0  0  0  0  0  0
  -14.8030   -0.6730    0.0000 C   0  0  0  0  0  0  0  0  0  0  0  0
  1  2  1  0  0  0  0
  2  3  2  0  0  0  0
  2  4  1  0  0  0  0
  4  5  1  0  0  0  0
  4  9  2  0  0  0  0
  5  6  2  0  0  0  0
  6  7  1  0  0  0  0
  7  8  2  0  0  0  0
  7 10  1  0  0  0  0
  8  9  1  0  0  0  0
 10 11  2  0  0  0  0
 10 12  1  0  0  0  0
 12 13  1  0  0  0  0
 13 14  1  0  0  0  0
 13 18  2  0  0  0  0
 14 15  2  0  0  0  0
 15 16  1  0  0  0  0
 15 22  1  0  0  0  0
 16 17  2  0  0  0  0
 16 19  1  0  0  0  0
 17 18  1  0  0  0  0
 19 20  1  0  0  0  0
 19 25  1  0  0  0  0
 19 26  1  0  0  0  0
 20 21  1  0  0  0  0
 21 22  1  0  0  0  0
 22 23  1  0  0  0  0
 22 24  1  0  0  0  0
M  END
>  <Index>
1032

>  <ID>
HT1977

>  <class>
0

>  <apol>
58.895824

>  <ast_fraglike>
0

>  <ast_fraglike_ext>
0

>  <ast_violation>
2

>  <ast_violation_ext>
3

>  <a_acc>
3

>  <a_acid>
0

>  <a_aro>
12

>  <a_base>
0

>  <a_count>
51

>  <a_don>
3

>  <a_donacc>
6

>  <a_heavy>
26

>  <a_hyd>
20

>  <a_IC>
70.334908

>  <a_ICM>
1.3791158

>  <a_nB>
0

>  <a_nBr>
0

>  <a_nC>
22

>  <a_nCl>
0

>  <a_nF>
0

>  <a_nH>
25

>  <a_nI>
0

>  <a_nN>
1

>  <a_nO>
3

>  <a_nP>
0

>  <a_nS>
0

>  <balabanJ>
1.5539392

>  <BCUT_PEOE_0>
-2.7926831

>  <BCUT_PEOE_1>
-0.57803524

>  <BCUT_PEOE_2>
0.60467893

>  <BCUT_PEOE_3>
2.7416556

>  <BCUT_SLOGP_0>
-2.696285

>  <BCUT_SLOGP_1>
-0.48143849

>  <BCUT_SLOGP_2>
0.65562516

>  <BCUT_SLOGP_3>
2.8449132

>  <BCUT_SMR_0>
-2.5253408

>  <BCUT_SMR_1>
-0.39278588

>  <BCUT_SMR_2>
0.75222713

>  <BCUT_SMR_3>
3.014116

>  <bpol>
29.906176

>  <b_1rotN>
3

>  <b_1rotR>
0.10714286

>  <b_ar>
12

>  <b_count>
53

>  <b_double>
2

>  <b_heavy>
28

>  <b_max1len>
4

>  <b_rotN>
4

>  <b_rotR>
0.14285715

>  <b_single>
39

>  <b_triple>
0

>  <chi0>
19.11252

>  <chi0v>
15.719376

>  <chi0v_C>
13.955666

>  <chi0_C>
15.405413

>  <chi1>
12.09899

>  <chi1v>
8.8983631

>  <chi1v_C>
7.7665076

>  <chi1_C>
9.5504436

>  <chiral>
0

>  <chiral_u>
0

>  <density>
0.70092028

>  <diameter>
13

>  <FCharge>
0

>  <GCUT_PEOE_0>
-0.81070399

>  <GCUT_PEOE_1>
-0.38277289

>  <GCUT_PEOE_2>
0.046401862

>  <GCUT_PEOE_3>
2.8780684

>  <GCUT_SLOGP_0>
-0.9931283

>  <GCUT_SLOGP_1>
-0.26787645

>  <GCUT_SLOGP_2>
0.12814079

>  <GCUT_SLOGP_3>
2.9944842

>  <GCUT_SMR_0>
-0.52566963

>  <GCUT_SMR_1>
-0.20623662

>  <GCUT_SMR_2>
0.17650498

>  <GCUT_SMR_3>
3.1450653

>  <Kier1>
20.727041

>  <Kier2>
7.7879934

>  <Kier3>
4.54321

>  <KierA1>
15.516195

>  <KierA2>
5.7574801

>  <KierA3>
3.3286703

>  <KierFlex>
3.43593

>  <lip_acc>
4

>  <lip_don>
2

>  <lip_druglike>
1

>  <lip_violation>
0

>  <logP(o/w)>
5.0749998

>  <logS>
-7.2613902

>  <mr>
10.221929

>  <mutagenic>
0

>  <nmol>
1

>  <opr_brigid>
17

>  <opr_leadlike>
1

>  <opr_nring>
3

>  <opr_nrot>
4

>  <opr_violation>
1

>  <PC+>
0

>  <PC->
0

>  <PEOE_PC+>
1.9004574

>  <PEOE_PC->
-1.9004574

>  <PEOE_RPC+>
0.15324533

>  <PEOE_RPC->
0.17232142

>  <PEOE_VSA+0>
79.362808

>  <PEOE_VSA+1>
29.857702

>  <PEOE_VSA+2>
0

>  <PEOE_VSA+3>
8.6190128

>  <PEOE_VSA+4>
10.324173

>  <PEOE_VSA+5>
27.65803

>  <PEOE_VSA+6>
0

>  <PEOE_VSA-0>
95.349129

>  <PEOE_VSA-1>
87.245613

>  <PEOE_VSA-2>
0

>  <PEOE_VSA-3>
0

>  <PEOE_VSA-4>
0

>  <PEOE_VSA-5>
27.133842

>  <PEOE_VSA-6>
7.9044313

>  <PEOE_VSA_FHYD>
0.80447304

>  <PEOE_VSA_FNEG>
0.58275604

>  <PEOE_VSA_FPNEG>
0.093822002

>  <PEOE_VSA_FPOL>
0.19552697

>  <PEOE_VSA_FPOS>
0.41724393

>  <PEOE_VSA_FPPOS>
0.10170497

>  <PEOE_VSA_HYD>
300.43427

>  <PEOE_VSA_NEG>
217.63301

>  <PEOE_VSA_PNEG>
35.038273

>  <PEOE_VSA_POL>
73.020477

>  <PEOE_VSA_POS>
155.82173

>  <PEOE_VSA_PPOS>
37.982204

>  <petitjean>
0.46153846

>  <petitjeanSC>
0.85714287

>  <Q_PC+>
0

>  <Q_PC->
0

>  <Q_RPC+>
0

>  <Q_RPC->
0

>  <Q_VSA_FHYD>
1

>  <Q_VSA_FNEG>
0

>  <Q_VSA_FPNEG>
0

>  <Q_VSA_FPOL>
0

>  <Q_VSA_FPOS>
1

>  <Q_VSA_FPPOS>
0

>  <Q_VSA_HYD>
373.45474

>  <Q_VSA_NEG>
0

>  <Q_VSA_PNEG>
0

>  <Q_VSA_POL>
0

>  <Q_VSA_POS>
373.45474

>  <Q_VSA_PPOS>
0

>  <radius>
7

>  <reactive>
0

>  <rings>
3

>  <RPC+>
0

>  <RPC->
0

>  <rsynth>
1

>  <SlogP>
4.9861002

>  <SlogP_VSA0>
0

>  <SlogP_VSA1>
31.014997

>  <SlogP_VSA2>
0

>  <SlogP_VSA3>
25.385227

>  <SlogP_VSA4>
60.466732

>  <SlogP_VSA5>
0

>  <SlogP_VSA6>
0

>  <SlogP_VSA7>
123.50229

>  <SlogP_VSA8>
37.736813

>  <SlogP_VSA9>
136.06081

>  <SMR>
10.30825

>  <SMR_VSA0>
47.724434

>  <SMR_VSA1>
0

>  <SMR_VSA2>
25.385227

>  <SMR_VSA3>
12.7423

>  <SMR_VSA4>
20.767498

>  <SMR_VSA5>
161.23911

>  <SMR_VSA6>
13.004248

>  <SMR_VSA7>
133.30406

>  <TPSA>
66.400002

>  <VAdjEq>
0.41210872

>  <VAdjMa>
5.8073549

>  <VDistEq>
3.5317285

>  <VDistMa>
9.0823784

>  <vdw_area>
373.45474

>  <vdw_vol>
501.40649

>  <vsa_acc>
13.566921

>  <vsa_acid>
0

>  <vsa_base>
0

>  <vsa_don>
5.6825762

>  <vsa_hyd>
275.44397

>  <vsa_other>
27.65803

>  <vsa_pol>
46.383339

>  <Weight>
351.44598

>  <weinerPath>
1763

>  <weinerPol>
45

>  <zagreb>
142

$$$$