Brc1cc(F)c(Nc2ncnc3c2cc(OC)c(OCC2CCN(CC2)C)c3)cc1
  MOE2013           2D

 30 33  0  0  0  0  0  0  0  0999 V2000
    0.0000    0.0000    0.0000 Br  0  0  0  0  0  0  0  0  0  0  0  0
    1.5000    0.0030    0.0000 C   0  0  0  0  0  0  0  0  0  0  0  0
    2.2520   -1.2950    0.0000 C   0  0  0  0  0  0  0  0  0  0  0  0
    3.7520   -1.2920    0.0000 C   0  0  0  0  0  0  0  0  0  0  0  0
    4.5050   -2.5900    0.0000 F   0  0  0  0  0  0  0  0  0  0  0  0
    4.5000    0.0080    0.0000 C   0  0  0  0  0  0  0  0  0  0  0  0
    6.0000    0.0110    0.0000 N   0  0  0  0  0  0  0  0  0  0  0  0
    6.7480    1.3120    0.0000 C   0  0  0  0  0  0  0  0  0  0  0  0
    5.9950    2.6090    0.0000 N   0  0  0  0  0  0  0  0  0  0  0  0
    6.7430    3.9100    0.0000 C   0  0  0  0  0  0  0  0  0  0  0  0
    8.2430    3.9130    0.0000 N   0  0  0  0  0  0  0  0  0  0  0  0
    8.9950    2.6150    0.0000 C   0  0  0  0  0  0  0  0  0  0  0  0
    8.2480    1.3150    0.0000 C   0  0  0  0  0  0  0  0  0  0  0  0
    9.0000    0.0170    0.0000 C   0  0  0  0  0  0  0  0  0  0  0  0
   10.5000    0.0200    0.0000 C   0  0  0  0  0  0  0  0  0  0  0  0
   11.2520   -1.2780    0.0000 O   0  0  0  0  0  0  0  0  0  0  0  0
   10.5050   -2.5780    0.0000 C   0  0  0  0  0  0  0  0  0  0  0  0
   11.2480    1.3200    0.0000 C   0  0  0  0  0  0  0  0  0  0  0  0
   12.7480    1.3230    0.0000 O   0  0  0  0  0  0  0  0  0  0  0  0
   13.4950    2.6230    0.0000 C   0  0  0  0  0  0  0  0  0  0  0  0
   14.9950    2.6260    0.0000 C   0  0  0  0  0  0  0  0  0  0  0  0
   15.7430    3.9270    0.0000 C   0  0  0  0  0  0  0  0  0  0  0  0
   17.2430    3.9300    0.0000 C   0  0  0  0  0  0  0  0  0  0  0  0
   17.9950    2.6320    0.0000 N   0  0  0  0  0  0  0  0  0  0  0  0
   17.2480    1.3310    0.0000 C   0  0  0  0  0  0  0  0  0  0  0  0
   15.7480    1.3290    0.0000 C   0  0  0  0  0  0  0  0  0  0  0  0
   19.4950    2.6350    0.0000 C   0  0  0  0  0  0  0  0  0  0  0  0
   10.4950    2.6180    0.0000 C   0  0  0  0  0  0  0  0  0  0  0  0
    3.7480    1.3060    0.0000 C   0  0  0  0  0  0  0  0  0  0  0  0
    2.2480    1.3030    0.0000 C   0  0  0  0  0  0  0  0  0  0  0  0
  1  2  1  0  0  0  0
  2  3  1  0  0  0  0
  2 30  2  0  0  0  0
  3  4  2  0  0  0  0
  4  5  1  0  0  0  0
  4  6  1  0  0  0  0
  6  7  1  0  0  0  0
  6 29  2  0  0  0  0
  7  8  1  0  0  0  0
  8  9  2  0  0  0  0
  8 13  1  0  0  0  0
  9 10  1  0  0  0  0
 10 11  2  0  0  0  0
 11 12  1  0  0  0  0
 12 13  1  0  0  0  0
 12 28  2  0  0  0  0
 13 14  2  0  0  0  0
 14 15  1  0  0  0  0
 15 16  1  0  0  0  0
 15 18  2  0  0  0  0
 16 17  1  0  0  0  0
 18 19  1  0  0  0  0
 18 28  1  0  0  0  0
 19 20  1  0  0  0  0
 20 21  1  0  0  0  0
 21 22  1  0  0  0  0
 21 26  1  0  0  0  0
 22 23  1  0  0  0  0
 23 24  1  0  0  0  0
 24 25  1  0  0  0  0
 24 27  1  0  0  0  0
 25 26  1  0  0  0  0
 29 30  1  0  0  0  0
M  END
>  <Index>
1137

>  <ID>
HT2166

>  <class>
0

>  <apol>
64.33403

>  <ast_fraglike>
0

>  <ast_fraglike_ext>
0

>  <ast_violation>
3

>  <ast_violation_ext>
4

>  <a_acc>
5

>  <a_acid>
0

>  <a_aro>
16

>  <a_base>
0

>  <a_count>
54

>  <a_don>
1

>  <a_donacc>
6

>  <a_heavy>
30

>  <a_hyd>
22

>  <a_IC>
92.617332

>  <a_ICM>
1.7151357

>  <a_nB>
0

>  <a_nBr>
1

>  <a_nC>
22

>  <a_nCl>
0

>  <a_nF>
1

>  <a_nH>
24

>  <a_nI>
0

>  <a_nN>
4

>  <a_nO>
2

>  <a_nP>
0

>  <a_nS>
0

>  <balabanJ>
1.3143785

>  <BCUT_PEOE_0>
-2.7965486

>  <BCUT_PEOE_1>
-0.58384246

>  <BCUT_PEOE_2>
0.57482708

>  <BCUT_PEOE_3>
2.7295189

>  <BCUT_SLOGP_0>
-2.8165326

>  <BCUT_SLOGP_1>
-0.48018688

>  <BCUT_SLOGP_2>
0.70813906

>  <BCUT_SLOGP_3>
2.7429533

>  <BCUT_SMR_0>
-2.534817

>  <BCUT_SMR_1>
-0.35522562

>  <BCUT_SMR_2>
0.79399925

>  <BCUT_SMR_3>
2.984318

>  <bpol>
37.841969

>  <b_1rotN>
6

>  <b_1rotR>
0.18181819

>  <b_ar>
17

>  <b_count>
57

>  <b_double>
0

>  <b_heavy>
33

>  <b_max1len>
3

>  <b_rotN>
6

>  <b_rotR>
0.18181819

>  <b_single>
40

>  <b_triple>
0

>  <chi0>
21.087212

>  <chi0v>
18.577049

>  <chi0v_C>
13.576985

>  <chi0_C>
14.974327

>  <chi1>
14.529208

>  <chi1v>
10.686894

>  <chi1v_C>
5.8674793

>  <chi1_C>
7.3240647

>  <chiral>
0

>  <chiral_u>
0

>  <density>
0.83854383

>  <diameter>
17

>  <FCharge>
0

>  <GCUT_PEOE_0>
-0.86019021

>  <GCUT_PEOE_1>
-0.41629434

>  <GCUT_PEOE_2>
0.034842804

>  <GCUT_PEOE_3>
2.7156622

>  <GCUT_SLOGP_0>
-0.95338058

>  <GCUT_SLOGP_1>
-0.29224411

>  <GCUT_SLOGP_2>
0.16325895

>  <GCUT_SLOGP_3>
2.8113797

>  <GCUT_SMR_0>
-0.52645326

>  <GCUT_SMR_1>
-0.19869804

>  <GCUT_SMR_2>
0.18042541

>  <GCUT_SMR_3>
2.9780807

>  <Kier1>
23.168043

>  <Kier2>
10.744802

>  <Kier3>
5.8800001

>  <KierA1>
19.559116

>  <KierA2>
9.0153761

>  <KierA3>
4.9121137

>  <KierFlex>
5.8777595

>  <lip_acc>
6

>  <lip_don>
1

>  <lip_druglike>
1

>  <lip_violation>
1

>  <logP(o/w)>
4.1667399

>  <logS>
-6.0787301

>  <mr>
11.878467

>  <mutagenic>
0

>  <nmol>
1

>  <opr_brigid>
23

>  <opr_leadlike>
0

>  <opr_nring>
4

>  <opr_nrot>
8

>  <opr_violation>
2

>  <PC+>
0

>  <PC->
0

>  <PEOE_PC+>
2.1616735

>  <PEOE_PC->
-2.1616735

>  <PEOE_RPC+>
0.065910995

>  <PEOE_RPC->
0.15974645

>  <PEOE_VSA+0>
80.643036

>  <PEOE_VSA+1>
71.004257

>  <PEOE_VSA+2>
71.249771

>  <PEOE_VSA+3>
0

>  <PEOE_VSA+4>
0

>  <PEOE_VSA+5>
0

>  <PEOE_VSA+6>
0

>  <PEOE_VSA-0>
128.30049

>  <PEOE_VSA-1>
43.624847

>  <PEOE_VSA-2>
0

>  <PEOE_VSA-3>
0

>  <PEOE_VSA-4>
23.410679

>  <PEOE_VSA-5>
0

>  <PEOE_VSA-6>
5.0075121

>  <PEOE_VSA_FHYD>
0.93285573

>  <PEOE_VSA_FNEG>
0.47335613

>  <PEOE_VSA_FPNEG>
0.067144297

>  <PEOE_VSA_FPOL>
0.067144297

>  <PEOE_VSA_FPOS>
0.52664387

>  <PEOE_VSA_FPPOS>
0

>  <PEOE_VSA_HYD>
394.82239

>  <PEOE_VSA_NEG>
200.34352

>  <PEOE_VSA_PNEG>
28.418192

>  <PEOE_VSA_POL>
28.418192

>  <PEOE_VSA_POS>
222.89706

>  <PEOE_VSA_PPOS>
0

>  <petitjean>
0.47058824

>  <petitjeanSC>
0.8888889

>  <Q_PC+>
0

>  <Q_PC->
0

>  <Q_RPC+>
0

>  <Q_RPC->
0

>  <Q_VSA_FHYD>
1

>  <Q_VSA_FNEG>
0

>  <Q_VSA_FPNEG>
0

>  <Q_VSA_FPOL>
0

>  <Q_VSA_FPOS>
1

>  <Q_VSA_FPPOS>
0

>  <Q_VSA_HYD>
423.2406

>  <Q_VSA_NEG>
0

>  <Q_VSA_PNEG>
0

>  <Q_VSA_POL>
0

>  <Q_VSA_POS>
423.2406

>  <Q_VSA_PPOS>
0

>  <radius>
9

>  <reactive>
0

>  <rings>
4

>  <RPC+>
0

>  <RPC->
0

>  <rsynth>
1

>  <SlogP>
5.0042

>  <SlogP_VSA0>
21.999775

>  <SlogP_VSA1>
54.706123

>  <SlogP_VSA2>
9.1210184

>  <SlogP_VSA3>
57.805416

>  <SlogP_VSA4>
4.4107962

>  <SlogP_VSA5>
71.336159

>  <SlogP_VSA6>
0

>  <SlogP_VSA7>
109.71855

>  <SlogP_VSA8>
37.736813

>  <SlogP_VSA9>
76.485733

>  <SMR>
11.91887

>  <SMR_VSA0>
0

>  <SMR_VSA1>
73.655266

>  <SMR_VSA2>
16.586918

>  <SMR_VSA3>
10.486856

>  <SMR_VSA4>
27.812519

>  <SMR_VSA5>
142.73827

>  <SMR_VSA6>
57.805416

>  <SMR_VSA7>
114.23515

>  <TPSA>
59.509998

>  <VAdjEq>
0.37824166

>  <VAdjMa>
6.044394

>  <VDistEq>
3.7537611

>  <VDistMa>
9.5038195

>  <vdw_area>
423.2406

>  <vdw_vol>
566.88983

>  <vsa_acc>
16.372663

>  <vsa_acid>
0

>  <vsa_base>
0

>  <vsa_don>
5.6825762

>  <vsa_hyd>
344.41461

>  <vsa_other>
35.981079

>  <vsa_pol>
22.055241

>  <Weight>
475.362

>  <weinerPath>
2677

>  <weinerPol>
48

>  <zagreb>
158

$$$$