Clc1cccc(Cl)c1Nc1ccccc1CC(OCC(O)=O)=O
  MOE2013           2D

 23 24  0  0  0  0  0  0  0  0999 V2000
    0.0000    0.0000    0.0000 Cl  0  0  0  0  0  0  0  0  0  0  0  0
   -0.7430    1.3030    0.0000 C   0  0  0  0  0  0  0  0  0  0  0  0
   -2.2430    1.3110    0.0000 C   0  0  0  0  0  0  0  0  0  0  0  0
   -2.9870    2.6140    0.0000 C   0  0  0  0  0  0  0  0  0  0  0  0
   -2.2300    3.9090    0.0000 C   0  0  0  0  0  0  0  0  0  0  0  0
   -0.7300    3.9010    0.0000 C   0  0  0  0  0  0  0  0  0  0  0  0
    0.0270    5.1960    0.0000 Cl  0  0  0  0  0  0  0  0  0  0  0  0
    0.0130    2.5980    0.0000 C   0  0  0  0  0  0  0  0  0  0  0  0
    1.5130    2.5900    0.0000 N   0  0  0  0  0  0  0  0  0  0  0  0
    2.2700    3.8850    0.0000 C   0  0  0  0  0  0  0  0  0  0  0  0
    1.5270    5.1880    0.0000 C   0  0  0  0  0  0  0  0  0  0  0  0
    2.2840    6.4830    0.0000 C   0  0  0  0  0  0  0  0  0  0  0  0
    3.7840    6.4760    0.0000 C   0  0  0  0  0  0  0  0  0  0  0  0
    4.5270    5.1730    0.0000 C   0  0  0  0  0  0  0  0  0  0  0  0
    3.7700    3.8780    0.0000 C   0  0  0  0  0  0  0  0  0  0  0  0
    4.5130    2.5750    0.0000 C   0  0  0  0  0  0  0  0  0  0  0  0
    6.0130    2.5670    0.0000 C   0  0  0  0  0  0  0  0  0  0  0  0
    6.7570    1.2640    0.0000 O   0  0  0  0  0  0  0  0  0  0  0  0
    8.2570    1.2560    0.0000 C   0  0  0  0  0  0  0  0  0  0  0  0
    9.0000   -0.0470    0.0000 C   0  0  0  0  0  0  0  0  0  0  0  0
   10.5000   -0.0540    0.0000 O   0  0  0  0  0  0  0  0  0  0  0  0
    8.2430   -1.3420    0.0000 O   0  0  0  0  0  0  0  0  0  0  0  0
    6.7700    3.8620    0.0000 O   0  0  0  0  0  0  0  0  0  0  0  0
  1  2  1  0  0  0  0
  2  3  1  0  0  0  0
  2  8  2  0  0  0  0
  3  4  2  0  0  0  0
  4  5  1  0  0  0  0
  5  6  2  0  0  0  0
  6  7  1  0  0  0  0
  6  8  1  0  0  0  0
  8  9  1  0  0  0  0
  9 10  1  0  0  0  0
 10 11  1  0  0  0  0
 10 15  2  0  0  0  0
 11 12  2  0  0  0  0
 12 13  1  0  0  0  0
 13 14  2  0  0  0  0
 14 15  1  0  0  0  0
 15 16  1  0  0  0  0
 16 17  1  0  0  0  0
 17 18  1  0  0  0  0
 17 23  2  0  0  0  0
 18 19  1  0  0  0  0
 19 20  1  0  0  0  0
 20 21  1  0  0  0  0
 20 22  2  0  0  0  0
M  END
>  <Index>
17

>  <ID>
HT0048

>  <class>
0

>  <apol>
45.496307

>  <ast_fraglike>
0

>  <ast_fraglike_ext>
0

>  <ast_violation>
2

>  <ast_violation_ext>
3

>  <a_acc>
3

>  <a_acid>
0

>  <a_aro>
12

>  <a_base>
0

>  <a_count>
36

>  <a_don>
3

>  <a_donacc>
6

>  <a_heavy>
23

>  <a_hyd>
16

>  <a_IC>
64.011581

>  <a_ICM>
1.7780995

>  <a_nB>
0

>  <a_nBr>
0

>  <a_nC>
16

>  <a_nCl>
2

>  <a_nF>
0

>  <a_nH>
13

>  <a_nI>
0

>  <a_nN>
1

>  <a_nO>
4

>  <a_nP>
0

>  <a_nS>
0

>  <balabanJ>
1.8766664

>  <BCUT_PEOE_0>
-2.3607085

>  <BCUT_PEOE_1>
-0.57855773

>  <BCUT_PEOE_2>
0.62004906

>  <BCUT_PEOE_3>
2.4074295

>  <BCUT_SLOGP_0>
-2.4406772

>  <BCUT_SLOGP_1>
-0.45034337

>  <BCUT_SLOGP_2>
0.72943598

>  <BCUT_SLOGP_3>
2.469728

>  <BCUT_SMR_0>
-2.0839026

>  <BCUT_SMR_1>
-0.37891814

>  <BCUT_SMR_2>
0.82784778

>  <BCUT_SMR_3>
2.6733

>  <bpol>
19.543692

>  <b_1rotN>
6

>  <b_1rotR>
0.25

>  <b_ar>
12

>  <b_count>
37

>  <b_double>
2

>  <b_heavy>
24

>  <b_max1len>
2

>  <b_rotN>
7

>  <b_rotR>
0.29166666

>  <b_single>
23

>  <b_triple>
0

>  <chi0>
16.819626

>  <chi0v>
13.395411

>  <chi0v_C>
8.9556656

>  <chi0_C>
10.405413

>  <chi1>
10.969234

>  <chi1v>
7.3905749

>  <chi1v_C>
4.6320271

>  <chi1_C>
6.357738

>  <chiral>
0

>  <chiral_u>
0

>  <density>
0.86114353

>  <diameter>
12

>  <FCharge>
0

>  <GCUT_PEOE_0>
-0.79438359

>  <GCUT_PEOE_1>
-0.43723473

>  <GCUT_PEOE_2>
0.078178219

>  <GCUT_PEOE_3>
2.4105659

>  <GCUT_SLOGP_0>
-0.92138118

>  <GCUT_SLOGP_1>
-0.28931764

>  <GCUT_SLOGP_2>
0.17029288

>  <GCUT_SLOGP_3>
2.5580237

>  <GCUT_SMR_0>
-0.46732679

>  <GCUT_SMR_1>
-0.2029011

>  <GCUT_SMR_2>
0.26646957

>  <GCUT_SMR_3>
2.7173228

>  <Kier1>
19.326389

>  <Kier2>
9.4746094

>  <Kier3>
6.094183

>  <KierA1>
15.871928

>  <KierA2>
7.7070169

>  <KierA3>
4.9214077

>  <KierFlex>
5.3184876

>  <lip_acc>
5

>  <lip_don>
2

>  <lip_druglike>
1

>  <lip_violation>
0

>  <logP(o/w)>
4

>  <logS>
-4.9128199

>  <mr>
8.9212475

>  <mutagenic>
0

>  <nmol>
1

>  <opr_brigid>
12

>  <opr_leadlike>
1

>  <opr_nring>
2

>  <opr_nrot>
6

>  <opr_violation>
0

>  <PC+>
0

>  <PC->
0

>  <PEOE_PC+>
1.9649292

>  <PEOE_PC->
-1.9649292

>  <PEOE_RPC+>
0.14563914

>  <PEOE_RPC->
0.1677023

>  <PEOE_VSA+0>
15.230323

>  <PEOE_VSA+1>
62.828831

>  <PEOE_VSA+2>
23.570307

>  <PEOE_VSA+3>
0

>  <PEOE_VSA+4>
10.324173

>  <PEOE_VSA+5>
29.416998

>  <PEOE_VSA+6>
0

>  <PEOE_VSA-0>
38.973251

>  <PEOE_VSA-1>
108.18351

>  <PEOE_VSA-2>
0

>  <PEOE_VSA-3>
0

>  <PEOE_VSA-4>
0

>  <PEOE_VSA-5>
27.270733

>  <PEOE_VSA-6>
10.271297

>  <PEOE_VSA_FHYD>
0.76298547

>  <PEOE_VSA_FNEG>
0.56644011

>  <PEOE_VSA_FPNEG>
0.11513508

>  <PEOE_VSA_FPOL>
0.23701456

>  <PEOE_VSA_FPOS>
0.43355992

>  <PEOE_VSA_FPPOS>
0.12187948

>  <PEOE_VSA_HYD>
248.78622

>  <PEOE_VSA_NEG>
184.69879

>  <PEOE_VSA_PNEG>
37.54203

>  <PEOE_VSA_POL>
77.283203

>  <PEOE_VSA_POS>
141.37064

>  <PEOE_VSA_PPOS>
39.741173

>  <petitjean>
0.5

>  <petitjeanSC>
1

>  <Q_PC+>
0

>  <Q_PC->
0

>  <Q_RPC+>
0

>  <Q_RPC->
0

>  <Q_VSA_FHYD>
1

>  <Q_VSA_FNEG>
0

>  <Q_VSA_FPNEG>
0

>  <Q_VSA_FPOL>
0

>  <Q_VSA_FPOS>
1

>  <Q_VSA_FPPOS>
0

>  <Q_VSA_HYD>
326.06943

>  <Q_VSA_NEG>
0

>  <Q_VSA_PNEG>
0

>  <Q_VSA_POL>
0

>  <Q_VSA_POS>
326.06943

>  <Q_VSA_PPOS>
0

>  <radius>
6

>  <reactive>
0

>  <rings>
2

>  <RPC+>
0

>  <RPC->
0

>  <rsynth>
1

>  <SlogP>
3.90727

>  <SlogP_VSA0>
0

>  <SlogP_VSA1>
33.501678

>  <SlogP_VSA2>
58.724319

>  <SlogP_VSA3>
46.311485

>  <SlogP_VSA4>
3.185575

>  <SlogP_VSA5>
18.868406

>  <SlogP_VSA6>
7.0012131

>  <SlogP_VSA7>
123.50229

>  <SlogP_VSA8>
0

>  <SlogP_VSA9>
83.810783

>  <SMR>
8.8485498

>  <SMR_VSA0>
58.724319

>  <SMR_VSA1>
0

>  <SMR_VSA2>
25.385227

>  <SMR_VSA3>
10.186788

>  <SMR_VSA4>
23.524246

>  <SMR_VSA5>
142.3707

>  <SMR_VSA6>
36.417187

>  <SMR_VSA7>
78.297287

>  <TPSA>
75.629997

>  <VAdjEq>
0.43892586

>  <VAdjMa>
5.5849624

>  <VDistEq>
3.3824484

>  <VDistMa>
8.7536917

>  <vdw_area>
326.06943

>  <vdw_vol>
411.30078

>  <vsa_acc>
13.566921

>  <vsa_acid>
0

>  <vsa_base>
0

>  <vsa_don>
5.6825762

>  <vsa_hyd>
232.33746

>  <vsa_other>
31.920755

>  <vsa_pol>
46.383339

>  <Weight>
354.189

>  <weinerPath>
1278

>  <weinerPol>
32

>  <zagreb>
112

$$$$