Clc1cc(Cl)c(OC)cc1Nc1c2cc(OC)c(OCCCN3CCN(CC3)C)cc2ncc1C#N
  MOE2013           2D

 36 39  0  0  0  0  0  0  0  0999 V2000
    0.0000    0.0000    0.0000 Cl  0  0  0  0  0  0  0  0  0  0  0  0
    0.0020    1.5000    0.0000 C   0  0  0  0  0  0  0  0  0  0  0  0
   -1.2970    2.2510    0.0000 C   0  0  0  0  0  0  0  0  0  0  0  0
   -1.2950    3.7510    0.0000 C   0  0  0  0  0  0  0  0  0  0  0  0
   -2.5930    4.5030    0.0000 Cl  0  0  0  0  0  0  0  0  0  0  0  0
    0.0050    4.5000    0.0000 C   0  0  0  0  0  0  0  0  0  0  0  0
    0.0060    6.0000    0.0000 O   0  0  0  0  0  0  0  0  0  0  0  0
   -1.2920    6.7510    0.0000 C   0  0  0  0  0  0  0  0  0  0  0  0
    1.3030    3.7490    0.0000 C   0  0  0  0  0  0  0  0  0  0  0  0
    1.3010    2.2490    0.0000 C   0  0  0  0  0  0  0  0  0  0  0  0
    2.6000    1.4970    0.0000 N   0  0  0  0  0  0  0  0  0  0  0  0
    3.8990    2.2460    0.0000 C   0  0  0  0  0  0  0  0  0  0  0  0
    5.1980    1.4950    0.0000 C   0  0  0  0  0  0  0  0  0  0  0  0
    5.1960   -0.0050    0.0000 C   0  0  0  0  0  0  0  0  0  0  0  0
    6.4940   -0.7570    0.0000 C   0  0  0  0  0  0  0  0  0  0  0  0
    6.4930   -2.2570    0.0000 O   0  0  0  0  0  0  0  0  0  0  0  0
    5.1930   -3.0050    0.0000 C   0  0  0  0  0  0  0  0  0  0  0  0
    7.7940   -0.0080    0.0000 C   0  0  0  0  0  0  0  0  0  0  0  0
    9.0920   -0.7600    0.0000 O   0  0  0  0  0  0  0  0  0  0  0  0
   10.3920   -0.0110    0.0000 C   0  0  0  0  0  0  0  0  0  0  0  0
   11.6910   -0.7620    0.0000 C   0  0  0  0  0  0  0  0  0  0  0  0
   12.9900   -0.0140    0.0000 C   0  0  0  0  0  0  0  0  0  0  0  0
   14.2890   -0.7650    0.0000 N   0  0  0  0  0  0  0  0  0  0  0  0
   14.2870   -2.2650    0.0000 C   0  0  0  0  0  0  0  0  0  0  0  0
   15.5850   -3.0160    0.0000 C   0  0  0  0  0  0  0  0  0  0  0  0
   16.8850   -2.2680    0.0000 N   0  0  0  0  0  0  0  0  0  0  0  0
   16.8870   -0.7680    0.0000 C   0  0  0  0  0  0  0  0  0  0  0  0
   15.5880   -0.0160    0.0000 C   0  0  0  0  0  0  0  0  0  0  0  0
   18.1830   -3.0190    0.0000 C   0  0  0  0  0  0  0  0  0  0  0  0
    7.7960    1.4920    0.0000 C   0  0  0  0  0  0  0  0  0  0  0  0
    6.4980    2.2430    0.0000 C   0  0  0  0  0  0  0  0  0  0  0  0
    6.4990    3.7430    0.0000 N   0  0  0  0  0  0  0  0  0  0  0  0
    5.2010    4.4950    0.0000 C   0  0  0  0  0  0  0  0  0  0  0  0
    3.9010    3.7460    0.0000 C   0  0  0  0  0  0  0  0  0  0  0  0
    2.6030    4.4970    0.0000 C   0  0  0  0  0  0  0  0  0  0  0  0
    1.3050    5.2490    0.0000 N   0  0  0  0  0  0  0  0  0  0  0  0
  1  2  1  0  0  0  0
  2  3  1  0  0  0  0
  2 10  2  0  0  0  0
  3  4  2  0  0  0  0
  4  5  1  0  0  0  0
  4  6  1  0  0  0  0
  6  7  1  0  0  0  0
  6  9  2  0  0  0  0
  7  8  1  0  0  0  0
  9 10  1  0  0  0  0
 10 11  1  0  0  0  0
 11 12  1  0  0  0  0
 12 13  1  0  0  0  0
 12 34  2  0  0  0  0
 13 14  1  0  0  0  0
 13 31  2  0  0  0  0
 14 15  2  0  0  0  0
 15 16  1  0  0  0  0
 15 18  1  0  0  0  0
 16 17  1  0  0  0  0
 18 19  1  0  0  0  0
 18 30  2  0  0  0  0
 19 20  1  0  0  0  0
 20 21  1  0  0  0  0
 21 22  1  0  0  0  0
 22 23  1  0  0  0  0
 23 24  1  0  0  0  0
 23 28  1  0  0  0  0
 24 25  1  0  0  0  0
 25 26  1  0  0  0  0
 26 27  1  0  0  0  0
 26 29  1  0  0  0  0
 27 28  1  0  0  0  0
 30 31  1  0  0  0  0
 31 32  1  0  0  0  0
 32 33  2  0  0  0  0
 33 34  1  0  0  0  0
 34 35  1  0  0  0  0
 35 36  3  0  0  0  0
M  END
>  <Index>
154

>  <ID>
HT0301

>  <class>
0

>  <apol>
77.362999

>  <ast_fraglike>
0

>  <ast_fraglike_ext>
0

>  <ast_violation>
3

>  <ast_violation_ext>
4

>  <a_acc>
7

>  <a_acid>
0

>  <a_aro>
16

>  <a_base>
0

>  <a_count>
65

>  <a_don>
1

>  <a_donacc>
8

>  <a_heavy>
36

>  <a_hyd>
27

>  <a_IC>
109.9965

>  <a_ICM>
1.6922538

>  <a_nB>
0

>  <a_nBr>
0

>  <a_nC>
26

>  <a_nCl>
2

>  <a_nF>
0

>  <a_nH>
29

>  <a_nI>
0

>  <a_nN>
5

>  <a_nO>
3

>  <a_nP>
0

>  <a_nS>
0

>  <balabanJ>
1.3202233

>  <BCUT_PEOE_0>
-2.7871275

>  <BCUT_PEOE_1>
-0.55756193

>  <BCUT_PEOE_2>
0.42623416

>  <BCUT_PEOE_3>
2.6787727

>  <BCUT_SLOGP_0>
-2.8971138

>  <BCUT_SLOGP_1>
-0.40327892

>  <BCUT_SLOGP_2>
0.6417703

>  <BCUT_SLOGP_3>
2.5911098

>  <BCUT_SMR_0>
-2.5025024

>  <BCUT_SMR_1>
-0.25461385

>  <BCUT_SMR_2>
0.73858672

>  <BCUT_SMR_3>
2.9532797

>  <bpol>
44.891003

>  <b_1rotN>
9

>  <b_1rotR>
0.23076923

>  <b_ar>
17

>  <b_count>
68

>  <b_double>
0

>  <b_heavy>
39

>  <b_max1len>
4

>  <b_rotN>
10

>  <b_rotR>
0.25641027

>  <b_single>
50

>  <b_triple>
1

>  <chi0>
25.656126

>  <chi0v>
22.117886

>  <chi0v_C>
16.336498

>  <chi0_C>
17.965891

>  <chi1>
17.426586

>  <chi1v>
12.433279

>  <chi1v_C>
6.3480763

>  <chi1_C>
8.0824833

>  <chiral>
0

>  <chiral_u>
0

>  <density>
0.78169143

>  <diameter>
19

>  <FCharge>
0

>  <GCUT_PEOE_0>
-0.86187994

>  <GCUT_PEOE_1>
-0.42174253

>  <GCUT_PEOE_2>
-0.049776182

>  <GCUT_PEOE_3>
2.7420394

>  <GCUT_SLOGP_0>
-0.96385103

>  <GCUT_SLOGP_1>
-0.30989259

>  <GCUT_SLOGP_2>
0.15622206

>  <GCUT_SLOGP_3>
2.8427038

>  <GCUT_SMR_0>
-0.5216974

>  <GCUT_SMR_1>
-0.15660812

>  <GCUT_SMR_2>
0.18880394

>  <GCUT_SMR_3>
3.0174472

>  <Kier1>
28.994083

>  <Kier2>
13.875172

>  <Kier3>
7.3587961

>  <KierA1>
24.65517

>  <KierA2>
11.741607

>  <KierA3>
6.2060843

>  <KierFlex>
8.0414257

>  <lip_acc>
8

>  <lip_don>
1

>  <lip_druglike>
0

>  <lip_violation>
2

>  <logP(o/w)>
3.9347401

>  <logS>
-5.7107801

>  <mr>
14.237304

>  <mutagenic>
0

>  <nmol>
1

>  <opr_brigid>
23

>  <opr_leadlike>
0

>  <opr_nring>
4

>  <opr_nrot>
12

>  <opr_violation>
3

>  <PC+>
0

>  <PC->
0

>  <PEOE_PC+>
2.5811834

>  <PEOE_PC->
-2.5811834

>  <PEOE_RPC+>
0.051788118

>  <PEOE_RPC->
0.13420498

>  <PEOE_VSA+0>
212.29129

>  <PEOE_VSA+1>
96.807411

>  <PEOE_VSA+2>
45.83556

>  <PEOE_VSA+3>
0

>  <PEOE_VSA+4>
0

>  <PEOE_VSA+5>
0

>  <PEOE_VSA+6>
0

>  <PEOE_VSA-0>
80.959618

>  <PEOE_VSA-1>
59.163895

>  <PEOE_VSA-2>
0

>  <PEOE_VSA-3>
17.742489

>  <PEOE_VSA-4>
0

>  <PEOE_VSA-5>
5.8194671

>  <PEOE_VSA-6>
7.5112681

>  <PEOE_VSA_FHYD>
0.97466272

>  <PEOE_VSA_FNEG>
0.32538804

>  <PEOE_VSA_FPNEG>
0.025337294

>  <PEOE_VSA_FPOL>
0.025337294

>  <PEOE_VSA_FPOS>
0.67461193

>  <PEOE_VSA_FPPOS>
0

>  <PEOE_VSA_HYD>
512.80023

>  <PEOE_VSA_NEG>
171.19673

>  <PEOE_VSA_PNEG>
13.330735

>  <PEOE_VSA_POL>
13.330735

>  <PEOE_VSA_POS>
354.93427

>  <PEOE_VSA_PPOS>
0

>  <petitjean>
0.47368422

>  <petitjeanSC>
0.89999998

>  <Q_PC+>
0

>  <Q_PC->
0

>  <Q_RPC+>
0

>  <Q_RPC->
0

>  <Q_VSA_FHYD>
1

>  <Q_VSA_FNEG>
0

>  <Q_VSA_FPNEG>
0

>  <Q_VSA_FPOL>
0

>  <Q_VSA_FPOS>
1

>  <Q_VSA_FPPOS>
0

>  <Q_VSA_HYD>
526.13098

>  <Q_VSA_NEG>
0

>  <Q_VSA_PNEG>
0

>  <Q_VSA_POL>
0

>  <Q_VSA_POS>
526.13098

>  <Q_VSA_PPOS>
0

>  <radius>
10

>  <reactive>
0

>  <rings>
4

>  <RPC+>
0

>  <RPC->
0

>  <rsynth>
1

>  <SlogP>
5.1903839

>  <SlogP_VSA0>
32.999664

>  <SlogP_VSA1>
41.044907

>  <SlogP_VSA2>
0

>  <SlogP_VSA3>
160.78525

>  <SlogP_VSA4>
3.185575

>  <SlogP_VSA5>
103.66492

>  <SlogP_VSA6>
7.0012131

>  <SlogP_VSA7>
92.504196

>  <SlogP_VSA8>
18.868406

>  <SlogP_VSA9>
99.541069

>  <SMR>
14.33557

>  <SMR_VSA0>
0

>  <SMR_VSA1>
87.093178

>  <SMR_VSA2>
0

>  <SMR_VSA3>
42.518818

>  <SMR_VSA4>
28.241346

>  <SMR_VSA5>
106.6555

>  <SMR_VSA6>
113.12415

>  <SMR_VSA7>
181.96222

>  <TPSA>
82.879997

>  <VAdjEq>
0.3281796

>  <VAdjMa>
6.2854023

>  <VDistEq>
3.9755354

>  <VDistMa>
10.031107

>  <vdw_area>
526.13098

>  <vdw_vol>
678.60022

>  <vsa_acc>
30.936335

>  <vsa_acid>
0

>  <vsa_base>
0

>  <vsa_don>
5.6825762

>  <vsa_hyd>
446.20898

>  <vsa_other>
20.299505

>  <vsa_pol>
36.618912

>  <Weight>
530.45599

>  <weinerPath>
4488

>  <weinerPol>
60

>  <zagreb>
186

$$$$