Oc1ccc(cc1)C(O)C(NC(CCc1ccccc1)C)C
  MOE2013           2D

 22 23  0  0  1  0  0  0  0  0999 V2000
    0.0000    0.0000    0.0000 O   0  0  0  0  0  0  0  0  0  0  0  0
   -1.4140   -0.5000    0.0000 C   0  0  0  0  0  0  0  0  0  0  0  0
   -2.5540    0.4740    0.0000 C   0  0  0  0  0  0  0  0  0  0  0  0
   -3.9690   -0.0260    0.0000 C   0  0  0  0  0  0  0  0  0  0  0  0
   -4.2420   -1.5010    0.0000 C   0  0  0  0  0  0  0  0  0  0  0  0
   -3.1020   -2.4760    0.0000 C   0  0  0  0  0  0  0  0  0  0  0  0
   -1.6880   -1.9750    0.0000 C   0  0  0  0  0  0  0  0  0  0  0  0
   -5.6560   -2.0010    0.0000 C   0  0  3  0  0  0  0  0  0  0  0  0
   -5.9300   -3.4760    0.0000 O   0  0  0  0  0  0  0  0  0  0  0  0
   -6.7970   -1.0270    0.0000 C   0  0  3  0  0  0  0  0  0  0  0  0
   -8.2110   -1.5270    0.0000 N   0  0  0  0  0  0  0  0  0  0  0  0
   -9.3510   -0.5530    0.0000 C   0  0  3  0  0  0  0  0  0  0  0  0
  -10.7650   -1.0530    0.0000 C   0  0  0  0  0  0  0  0  0  0  0  0
  -11.9060   -0.0790    0.0000 C   0  0  0  0  0  0  0  0  0  0  0  0
  -13.3200   -0.5790    0.0000 C   0  0  0  0  0  0  0  0  0  0  0  0
  -14.4600    0.3950    0.0000 C   0  0  0  0  0  0  0  0  0  0  0  0
  -15.8740   -0.1050    0.0000 C   0  0  0  0  0  0  0  0  0  0  0  0
  -16.1480   -1.5800    0.0000 C   0  0  0  0  0  0  0  0  0  0  0  0
  -15.0080   -2.5540    0.0000 C   0  0  0  0  0  0  0  0  0  0  0  0
  -13.5930   -2.0540    0.0000 C   0  0  0  0  0  0  0  0  0  0  0  0
   -9.0770    0.9220    0.0000 C   0  0  0  0  0  0  0  0  0  0  0  0
   -6.5230    0.4480    0.0000 C   0  0  0  0  0  0  0  0  0  0  0  0
  1  2  1  0  0  0  0
  2  3  1  0  0  0  0
  2  7  2  0  0  0  0
  3  4  2  0  0  0  0
  4  5  1  0  0  0  0
  5  6  2  0  0  0  0
  5  8  1  0  0  0  0
  6  7  1  0  0  0  0
  8  9  1  0  0  0  0
  8 10  1  0  0  0  0
 10 11  1  0  0  0  0
 10 22  1  0  0  0  0
 11 12  1  0  0  0  0
 12 13  1  0  0  0  0
 12 21  1  0  0  0  0
 13 14  1  0  0  0  0
 14 15  1  0  0  0  0
 15 16  1  0  0  0  0
 15 20  2  0  0  0  0
 16 17  2  0  0  0  0
 17 18  1  0  0  0  0
 18 19  2  0  0  0  0
 19 20  1  0  0  0  0
M  END
>  <Index>
1316

>  <ID>
HT3352

>  <class>
0

>  <apol>
52.813824

>  <ast_fraglike>
0

>  <ast_fraglike_ext>
0

>  <ast_violation>
1

>  <ast_violation_ext>
2

>  <a_acc>
3

>  <a_acid>
0

>  <a_aro>
12

>  <a_base>
0

>  <a_count>
47

>  <a_don>
3

>  <a_donacc>
6

>  <a_heavy>
22

>  <a_hyd>
19

>  <a_IC>
62.258648

>  <a_ICM>
1.3246521

>  <a_nB>
0

>  <a_nBr>
0

>  <a_nC>
19

>  <a_nCl>
0

>  <a_nF>
0

>  <a_nH>
25

>  <a_nI>
0

>  <a_nN>
1

>  <a_nO>
2

>  <a_nP>
0

>  <a_nS>
0

>  <balabanJ>
1.6505151

>  <BCUT_PEOE_0>
-2.7096217

>  <BCUT_PEOE_1>
-0.61503941

>  <BCUT_PEOE_2>
0.68043226

>  <BCUT_PEOE_3>
2.644068

>  <BCUT_SLOGP_0>
-2.7967339

>  <BCUT_SLOGP_1>
-0.53807992

>  <BCUT_SLOGP_2>
0.74514633

>  <BCUT_SLOGP_3>
2.6446023

>  <BCUT_SMR_0>
-2.4414153

>  <BCUT_SMR_1>
-0.48426563

>  <BCUT_SMR_2>
0.81752759

>  <BCUT_SMR_3>
2.9062974

>  <bpol>
27.990175

>  <b_1rotN>
7

>  <b_1rotR>
0.30434781

>  <b_ar>
12

>  <b_count>
48

>  <b_double>
0

>  <b_heavy>
23

>  <b_max1len>
8

>  <b_rotN>
7

>  <b_rotR>
0.30434781

>  <b_single>
36

>  <b_triple>
0

>  <chi0>
15.949383

>  <chi0v>
13.236844

>  <chi0v_C>
11.842417

>  <chi0_C>
13.242276

>  <chi1>
10.558551

>  <chi1v>
7.8297176

>  <chi1v_C>
6.7705617

>  <chi1_C>
8.5873537

>  <chiral>
3

>  <chiral_u>
3

>  <density>
0.66806698

>  <diameter>
14

>  <FCharge>
0

>  <GCUT_PEOE_0>
-0.84287691

>  <GCUT_PEOE_1>
-0.37974069

>  <GCUT_PEOE_2>
0.081555016

>  <GCUT_PEOE_3>
2.6814144

>  <GCUT_SLOGP_0>
-1.1529781

>  <GCUT_SLOGP_1>
-0.28469545

>  <GCUT_SLOGP_2>
0.14774705

>  <GCUT_SLOGP_3>
2.7480352

>  <GCUT_SMR_0>
-0.52363896

>  <GCUT_SMR_1>
-0.21605732

>  <GCUT_SMR_2>
0.18680376

>  <GCUT_SMR_3>
2.9310319

>  <Kier1>
18.340265

>  <Kier2>
9.333333

>  <Kier3>
6.2040815

>  <KierA1>
14.602181

>  <KierA2>
7.3447256

>  <KierA3>
4.8409681

>  <KierFlex>
4.8749552

>  <lip_acc>
3

>  <lip_don>
3

>  <lip_druglike>
1

>  <lip_violation>
0

>  <logP(o/w)>
4.0479999

>  <logS>
-3.2464499

>  <mr>
9.0809736

>  <mutagenic>
0

>  <nmol>
1

>  <opr_brigid>
12

>  <opr_leadlike>
1

>  <opr_nring>
2

>  <opr_nrot>
7

>  <opr_violation>
0

>  <PC+>
0

>  <PC->
0

>  <PEOE_PC+>
1.747668

>  <PEOE_PC->
-1.747668

>  <PEOE_RPC+>
0.12434471

>  <PEOE_RPC->
0.22065973

>  <PEOE_VSA+0>
57.476555

>  <PEOE_VSA+1>
56.017307

>  <PEOE_VSA+2>
8.6190128

>  <PEOE_VSA+3>
0

>  <PEOE_VSA+4>
20.648346

>  <PEOE_VSA+5>
0

>  <PEOE_VSA+6>
0

>  <PEOE_VSA-0>
83.824867

>  <PEOE_VSA-1>
85.784325

>  <PEOE_VSA-2>
0

>  <PEOE_VSA-3>
0

>  <PEOE_VSA-4>
0

>  <PEOE_VSA-5>
0

>  <PEOE_VSA-6>
15.671971

>  <PEOE_VSA_FHYD>
0.88928163

>  <PEOE_VSA_FNEG>
0.56480861

>  <PEOE_VSA_FPNEG>
0.047774225

>  <PEOE_VSA_FPOL>
0.11071836

>  <PEOE_VSA_FPOS>
0.43519139

>  <PEOE_VSA_FPPOS>
0.062944137

>  <PEOE_VSA_HYD>
291.72208

>  <PEOE_VSA_NEG>
185.28117

>  <PEOE_VSA_PNEG>
15.671971

>  <PEOE_VSA_POL>
36.320316

>  <PEOE_VSA_POS>
142.76122

>  <PEOE_VSA_PPOS>
20.648346

>  <petitjean>
0.5

>  <petitjeanSC>
1

>  <Q_PC+>
0

>  <Q_PC->
0

>  <Q_RPC+>
0

>  <Q_RPC->
0

>  <Q_VSA_FHYD>
1

>  <Q_VSA_FNEG>
0

>  <Q_VSA_FPNEG>
0

>  <Q_VSA_FPOL>
0

>  <Q_VSA_FPOS>
1

>  <Q_VSA_FPPOS>
0

>  <Q_VSA_HYD>
328.04239

>  <Q_VSA_NEG>
0

>  <Q_VSA_PNEG>
0

>  <Q_VSA_POL>
0

>  <Q_VSA_POS>
328.04239

>  <Q_VSA_PPOS>
0

>  <radius>
7

>  <reactive>
0

>  <rings>
2

>  <RPC+>
0

>  <RPC->
0

>  <rsynth>
1

>  <SlogP>
3.5204699

>  <SlogP_VSA0>
68.781204

>  <SlogP_VSA1>
0

>  <SlogP_VSA2>
7.9639373

>  <SlogP_VSA3>
0

>  <SlogP_VSA4>
6.37115

>  <SlogP_VSA5>
18.868406

>  <SlogP_VSA6>
0

>  <SlogP_VSA7>
158.78867

>  <SlogP_VSA8>
25.337055

>  <SlogP_VSA9>
71.895454

>  <SMR>
9.0000296

>  <SMR_VSA0>
0

>  <SMR_VSA1>
50.770454

>  <SMR_VSA2>
18.01075

>  <SMR_VSA3>
26.047165

>  <SMR_VSA4>
0

>  <SMR_VSA5>
196.52547

>  <SMR_VSA6>
0

>  <SMR_VSA7>
66.652031

>  <TPSA>
52.490002

>  <VAdjEq>
0.4530769

>  <VAdjMa>
5.523562

>  <VDistEq>
3.5505486

>  <VDistMa>
8.5859385

>  <vdw_area>
328.04239

>  <vdw_vol>
448.17963

>  <vsa_acc>
0

>  <vsa_acid>
0

>  <vsa_base>
0

>  <vsa_don>
0

>  <vsa_hyd>
267.44357

>  <vsa_other>
0

>  <vsa_pol>
32.816418

>  <Weight>
299.414

>  <weinerPath>
1247

>  <weinerPol>
29

>  <zagreb>
106

$$$$