O(C)c1cc(ccc1OC)C(C(C)C)(CCCN(CCc1cc(OC)c(OC)cc1)C)C#N
  MOE2013           2D

 33 34  0  0  1  0  0  0  0  0999 V2000
    0.0000    0.0000    0.0000 O   0  0  0  0  0  0  0  0  0  0  0  0
    1.5000    0.0000    0.0000 C   0  0  0  0  0  0  0  0  0  0  0  0
   -0.7500    1.2990    0.0000 C   0  0  0  0  0  0  0  0  0  0  0  0
   -2.2500    1.2990    0.0000 C   0  0  0  0  0  0  0  0  0  0  0  0
   -3.0000    2.5980    0.0000 C   0  0  0  0  0  0  0  0  0  0  0  0
   -2.2500    3.8970    0.0000 C   0  0  0  0  0  0  0  0  0  0  0  0
   -0.7500    3.8970    0.0000 C   0  0  0  0  0  0  0  0  0  0  0  0
    0.0000    2.5980    0.0000 C   0  0  0  0  0  0  0  0  0  0  0  0
    1.5000    2.5980    0.0000 O   0  0  0  0  0  0  0  0  0  0  0  0
    2.2500    3.8970    0.0000 C   0  0  0  0  0  0  0  0  0  0  0  0
   -4.5000    2.5990    0.0000 C   0  0  3  0  0  0  0  0  0  0  0  0
   -4.5000    4.0990    0.0000 C   0  0  0  0  0  0  0  0  0  0  0  0
   -3.2000    4.8480    0.0000 C   0  0  0  0  0  0  0  0  0  0  0  0
   -5.7990    4.8490    0.0000 C   0  0  0  0  0  0  0  0  0  0  0  0
   -6.0000    2.5990    0.0000 C   0  0  0  0  0  0  0  0  0  0  0  0
   -6.7500    1.3000    0.0000 C   0  0  0  0  0  0  0  0  0  0  0  0
   -8.2500    1.3000    0.0000 C   0  0  0  0  0  0  0  0  0  0  0  0
   -9.0000    0.0010    0.0000 N   0  0  3  0  0  0  0  0  0  0  0  0
  -10.5000    0.0010    0.0000 C   0  0  0  0  0  0  0  0  0  0  0  0
  -11.2500   -1.2980    0.0000 C   0  0  0  0  0  0  0  0  0  0  0  0
  -12.7500   -1.2980    0.0000 C   0  0  0  0  0  0  0  0  0  0  0  0
  -13.5000   -2.5970    0.0000 C   0  0  0  0  0  0  0  0  0  0  0  0
  -15.0000   -2.5970    0.0000 C   0  0  0  0  0  0  0  0  0  0  0  0
  -15.7500   -3.8960    0.0000 O   0  0  0  0  0  0  0  0  0  0  0  0
  -15.0010   -5.1950    0.0000 C   0  0  0  0  0  0  0  0  0  0  0  0
  -15.7500   -1.2970    0.0000 C   0  0  0  0  0  0  0  0  0  0  0  0
  -17.2500   -1.2970    0.0000 O   0  0  0  0  0  0  0  0  0  0  0  0
  -18.0000    0.0020    0.0000 C   0  0  0  0  0  0  0  0  0  0  0  0
  -15.0000    0.0010    0.0000 C   0  0  0  0  0  0  0  0  0  0  0  0
  -13.5000    0.0010    0.0000 C   0  0  0  0  0  0  0  0  0  0  0  0
   -8.2500   -1.2980    0.0000 C   0  0  0  0  0  0  0  0  0  0  0  0
   -4.5000    1.0990    0.0000 C   0  0  0  0  0  0  0  0  0  0  0  0
   -4.5000   -0.4010    0.0000 N   0  0  0  0  0  0  0  0  0  0  0  0
  1  2  1  0  0  0  0
  1  3  1  0  0  0  0
  3  4  1  0  0  0  0
  3  8  2  0  0  0  0
  4  5  2  0  0  0  0
  5  6  1  0  0  0  0
  5 11  1  0  0  0  0
  6  7  2  0  0  0  0
  7  8  1  0  0  0  0
  8  9  1  0  0  0  0
  9 10  1  0  0  0  0
 11 12  1  0  0  0  0
 11 15  1  0  0  0  0
 11 32  1  0  0  0  0
 12 13  1  0  0  0  0
 12 14  1  0  0  0  0
 15 16  1  0  0  0  0
 16 17  1  0  0  0  0
 17 18  1  0  0  0  0
 18 19  1  0  0  0  0
 18 31  1  0  0  0  0
 19 20  1  0  0  0  0
 20 21  1  0  0  0  0
 21 22  1  0  0  0  0
 21 30  2  0  0  0  0
 22 23  2  0  0  0  0
 23 24  1  0  0  0  0
 23 26  1  0  0  0  0
 24 25  1  0  0  0  0
 26 27  1  0  0  0  0
 26 29  2  0  0  0  0
 27 28  1  0  0  0  0
 29 30  1  0  0  0  0
 32 33  3  0  0  0  0
M  END
>  <Index>
1141

>  <ID>
HT2173

>  <class>
0

>  <apol>
78.266136

>  <ast_fraglike>
0

>  <ast_fraglike_ext>
0

>  <ast_violation>
3

>  <ast_violation_ext>
4

>  <a_acc>
6

>  <a_acid>
0

>  <a_aro>
12

>  <a_base>
0

>  <a_count>
71

>  <a_don>
0

>  <a_donacc>
6

>  <a_heavy>
33

>  <a_hyd>
26

>  <a_IC>
98.828835

>  <a_ICM>
1.3919555

>  <a_nB>
0

>  <a_nBr>
0

>  <a_nC>
27

>  <a_nCl>
0

>  <a_nF>
0

>  <a_nH>
38

>  <a_nI>
0

>  <a_nN>
2

>  <a_nO>
4

>  <a_nP>
0

>  <a_nS>
0

>  <balabanJ>
1.8372674

>  <BCUT_PEOE_0>
-2.727304

>  <BCUT_PEOE_1>
-0.47732407

>  <BCUT_PEOE_2>
0.31002411

>  <BCUT_PEOE_3>
2.7024419

>  <BCUT_SLOGP_0>
-2.7378001

>  <BCUT_SLOGP_1>
-0.40673149

>  <BCUT_SLOGP_2>
0.42561251

>  <BCUT_SLOGP_3>
2.756618

>  <BCUT_SMR_0>
-2.474987

>  <BCUT_SMR_1>
-0.21368417

>  <BCUT_SMR_2>
0.57213604

>  <BCUT_SMR_3>
2.9487793

>  <bpol>
51.845867

>  <b_1rotN>
13

>  <b_1rotR>
0.38235295

>  <b_ar>
12

>  <b_count>
72

>  <b_double>
0

>  <b_heavy>
34

>  <b_max1len>
10

>  <b_rotN>
14

>  <b_rotR>
0.41176471

>  <b_single>
59

>  <b_triple>
1

>  <chi0>
24.43251

>  <chi0v>
21.104406

>  <chi0v_C>
18.576986

>  <chi0_C>
20.026733

>  <chi1>
15.842433

>  <chi1v>
11.379316

>  <chi1v_C>
7.6265502

>  <chi1_C>
9.2800589

>  <chiral>
1

>  <chiral_u>
1

>  <density>
0.67667478

>  <diameter>
18

>  <FCharge>
0

>  <GCUT_PEOE_0>
-0.86108142

>  <GCUT_PEOE_1>
-0.38566333

>  <GCUT_PEOE_2>
-0.1071291

>  <GCUT_PEOE_3>
2.9032135

>  <GCUT_SLOGP_0>
-0.9550184

>  <GCUT_SLOGP_1>
-0.30175847

>  <GCUT_SLOGP_2>
0.033617016

>  <GCUT_SLOGP_3>
2.9868312

>  <GCUT_SMR_0>
-0.52951491

>  <GCUT_SMR_1>
-0.17321444

>  <GCUT_SMR_2>
0.073180765

>  <GCUT_SMR_3>
3.147244

>  <Kier1>
29.231834

>  <Kier2>
14.533081

>  <Kier3>
7.7398548

>  <KierA1>
24.039572

>  <KierA2>
11.874717

>  <KierA3>
6.2944307

>  <KierFlex>
8.6503973

>  <lip_acc>
6

>  <lip_don>
0

>  <lip_druglike>
1

>  <lip_violation>
1

>  <logP(o/w)>
5.35148

>  <logS>
-5.2363701

>  <mr>
13.370621

>  <mutagenic>
0

>  <nmol>
1

>  <opr_brigid>
12

>  <opr_leadlike>
0

>  <opr_nring>
2

>  <opr_nrot>
14

>  <opr_violation>
3

>  <PC+>
0

>  <PC->
0

>  <PEOE_PC+>
2.4110963

>  <PEOE_PC->
-2.4110963

>  <PEOE_RPC+>
0.043944869

>  <PEOE_RPC->
0.14323002

>  <PEOE_VSA+0>
198.49068

>  <PEOE_VSA+1>
97.076454

>  <PEOE_VSA+2>
33.834076

>  <PEOE_VSA+3>
0

>  <PEOE_VSA+4>
0

>  <PEOE_VSA+5>
0

>  <PEOE_VSA+6>
0

>  <PEOE_VSA-0>
115.97165

>  <PEOE_VSA-1>
62.005161

>  <PEOE_VSA-2>
0

>  <PEOE_VSA-3>
17.742489

>  <PEOE_VSA-4>
0

>  <PEOE_VSA-5>
0

>  <PEOE_VSA-6>
10.015024

>  <PEOE_VSA_FHYD>
0.9812851

>  <PEOE_VSA_FNEG>
0.38445276

>  <PEOE_VSA_FPNEG>
0.018714931

>  <PEOE_VSA_FPOL>
0.018714931

>  <PEOE_VSA_FPOS>
0.61554724

>  <PEOE_VSA_FPPOS>
0

>  <PEOE_VSA_HYD>
525.12048

>  <PEOE_VSA_NEG>
205.73433

>  <PEOE_VSA_PNEG>
10.015024

>  <PEOE_VSA_POL>
10.015024

>  <PEOE_VSA_POS>
329.40121

>  <PEOE_VSA_PPOS>
0

>  <petitjean>
0.5

>  <petitjeanSC>
1

>  <Q_PC+>
0

>  <Q_PC->
0

>  <Q_RPC+>
0

>  <Q_RPC->
0

>  <Q_VSA_FHYD>
1

>  <Q_VSA_FNEG>
0

>  <Q_VSA_FPNEG>
0

>  <Q_VSA_FPOL>
0

>  <Q_VSA_FPOS>
1

>  <Q_VSA_FPPOS>
0

>  <Q_VSA_HYD>
535.13556

>  <Q_VSA_NEG>
0

>  <Q_VSA_PNEG>
0

>  <Q_VSA_POL>
0

>  <Q_VSA_POS>
535.13556

>  <Q_VSA_PPOS>
0

>  <radius>
9

>  <reactive>
0

>  <rings>
2

>  <RPC+>
0

>  <RPC->
0

>  <rsynth>
1

>  <SlogP>
5.0930538

>  <SlogP_VSA0>
43.99955

>  <SlogP_VSA1>
3.1243138

>  <SlogP_VSA2>
0

>  <SlogP_VSA3>
84.54026

>  <SlogP_VSA4>
10.781946

>  <SlogP_VSA5>
193.30107

>  <SlogP_VSA6>
0

>  <SlogP_VSA7>
105.85911

>  <SlogP_VSA8>
37.736813

>  <SlogP_VSA9>
87.62574

>  <SMR>
13.1656

>  <SMR_VSA0>
0

>  <SMR_VSA1>
78.18322

>  <SMR_VSA2>
4.4107962

>  <SMR_VSA3>
43.946609

>  <SMR_VSA4>
0

>  <SMR_VSA5>
162.46432

>  <SMR_VSA6>
36.879158

>  <SMR_VSA7>
241.08469

>  <TPSA>
63.950001

>  <VAdjEq>
0.33706582

>  <VAdjMa>
6.0874629

>  <VDistEq>
3.9250216

>  <VDistMa>
9.7747688

>  <vdw_area>
535.13556

>  <vdw_vol>
671.83087

>  <vsa_acc>
27.757515

>  <vsa_acid>
0

>  <vsa_base>
0

>  <vsa_don>
0

>  <vsa_hyd>
458.68524

>  <vsa_other>
20.299505

>  <vsa_pol>
27.757515

>  <Weight>
454.61099

>  <weinerPath>
3698

>  <weinerPol>
55

>  <zagreb>
160

$$$$