O=C(N(C)C)Cc1n2C=C(C=Cc2nc1-c1ccc(cc1)C)C
  MOE2013           2D

 23 25  0  0  0  0  0  0  0  0999 V2000
    0.0000    0.0000    0.0000 O   0  0  0  0  0  0  0  0  0  0  0  0
    1.5000    0.0100    0.0000 C   0  0  0  0  0  0  0  0  0  0  0  0
    2.2410    1.3150    0.0000 N   0  0  0  0  0  0  0  0  0  0  0  0
    3.7410    1.3250    0.0000 C   0  0  0  0  0  0  0  0  0  0  0  0
    1.4820    2.6080    0.0000 C   0  0  0  0  0  0  0  0  0  0  0  0
    2.2590   -1.2830    0.0000 C   0  0  0  0  0  0  0  0  0  0  0  0
    1.5180   -2.5880    0.0000 C   0  0  0  0  0  0  0  0  0  0  0  0
    0.0270   -2.7550    0.0000 N   0  0  0  0  0  0  0  0  0  0  0  0
   -1.0940   -1.7590    0.0000 C   0  0  0  0  0  0  0  0  0  0  0  0
   -2.5180   -2.2320    0.0000 C   0  0  0  0  0  0  0  0  0  0  0  0
   -2.8190   -3.7020    0.0000 C   0  0  0  0  0  0  0  0  0  0  0  0
   -1.6980   -4.6980    0.0000 C   0  0  0  0  0  0  0  0  0  0  0  0
   -0.2740   -4.2240    0.0000 C   0  0  0  0  0  0  0  0  0  0  0  0
    1.0300   -4.9650    0.0000 N   0  0  0  0  0  0  0  0  0  0  0  0
    2.1380   -3.9540    0.0000 C   0  0  0  0  0  0  0  0  0  0  0  0
    3.6070   -4.2550    0.0000 C   0  0  0  0  0  0  0  0  0  0  0  0
    4.0800   -5.6790    0.0000 C   0  0  0  0  0  0  0  0  0  0  0  0
    5.5500   -5.9800    0.0000 C   0  0  0  0  0  0  0  0  0  0  0  0
    6.5460   -4.8590    0.0000 C   0  0  0  0  0  0  0  0  0  0  0  0
    6.0720   -3.4350    0.0000 C   0  0  0  0  0  0  0  0  0  0  0  0
    4.6030   -3.1340    0.0000 C   0  0  0  0  0  0  0  0  0  0  0  0
    8.0150   -5.1600    0.0000 C   0  0  0  0  0  0  0  0  0  0  0  0
   -3.6390   -1.2360    0.0000 C   0  0  0  0  0  0  0  0  0  0  0  0
  1  2  2  0  0  0  0
  2  3  1  0  0  0  0
  2  6  1  0  0  0  0
  3  4  1  0  0  0  0
  3  5  1  0  0  0  0
  6  7  1  0  0  0  0
  7  8  1  0  0  0  0
  7 15  2  0  0  0  0
  8  9  1  0  0  0  0
  8 13  1  0  0  0  0
  9 10  2  0  0  0  0
 10 11  1  0  0  0  0
 10 23  1  0  0  0  0
 11 12  2  0  0  0  0
 12 13  1  0  0  0  0
 13 14  2  0  0  0  0
 14 15  1  0  0  0  0
 15 16  1  0  0  0  0
 16 17  1  0  0  0  0
 16 21  2  0  0  0  0
 17 18  2  0  0  0  0
 18 19  1  0  0  0  0
 19 20  2  0  0  0  0
 19 22  1  0  0  0  0
 20 21  1  0  0  0  0
M  END
>  <Index>
1167

>  <ID>
HT2220

>  <class>
0

>  <apol>
51.544655

>  <ast_fraglike>
0

>  <ast_fraglike_ext>
0

>  <ast_violation>
2

>  <ast_violation_ext>
2

>  <a_acc>
2

>  <a_acid>
0

>  <a_aro>
11

>  <a_base>
0

>  <a_count>
44

>  <a_don>
0

>  <a_donacc>
2

>  <a_heavy>
23

>  <a_hyd>
17

>  <a_IC>
62.510815

>  <a_ICM>
1.4207003

>  <a_nB>
0

>  <a_nBr>
0

>  <a_nC>
19

>  <a_nCl>
0

>  <a_nF>
0

>  <a_nH>
21

>  <a_nI>
0

>  <a_nN>
3

>  <a_nO>
1

>  <a_nP>
0

>  <a_nS>
0

>  <balabanJ>
1.734408

>  <BCUT_PEOE_0>
-2.4873128

>  <BCUT_PEOE_1>
-0.45498842

>  <BCUT_PEOE_2>
0.40781757

>  <BCUT_PEOE_3>
2.4561598

>  <BCUT_SLOGP_0>
-2.5999355

>  <BCUT_SLOGP_1>
-0.37257078

>  <BCUT_SLOGP_2>
0.46769971

>  <BCUT_SLOGP_3>
2.4799533

>  <BCUT_SMR_0>
-2.1984074

>  <BCUT_SMR_1>
-0.22845563

>  <BCUT_SMR_2>
0.62403762

>  <BCUT_SMR_3>
2.7385828

>  <bpol>
29.195347

>  <b_1rotN>
4

>  <b_1rotR>
0.16

>  <b_ar>
11

>  <b_count>
46

>  <b_double>
3

>  <b_heavy>
25

>  <b_max1len>
4

>  <b_rotN>
4

>  <b_rotR>
0.16

>  <b_single>
32

>  <b_triple>
0

>  <chi0>
16.560114

>  <chi0v>
13.998447

>  <chi0v_C>
12.248559

>  <chi0_C>
13.698306

>  <chi1>
10.952397

>  <chi1v>
7.7026172

>  <chi1v_C>
5.2278328

>  <chi1_C>
6.9956017

>  <chiral>
0

>  <chiral_u>
0

>  <density>
0.68709183

>  <diameter>
10

>  <FCharge>
0

>  <GCUT_PEOE_0>
-0.85818273

>  <GCUT_PEOE_1>
-0.38758594

>  <GCUT_PEOE_2>
-0.050225079

>  <GCUT_PEOE_3>
2.6104457

>  <GCUT_SLOGP_0>
-0.96569717

>  <GCUT_SLOGP_1>
-0.26291353

>  <GCUT_SLOGP_2>
0.01818981

>  <GCUT_SLOGP_3>
2.6969581

>  <GCUT_SMR_0>
-0.49927354

>  <GCUT_SMR_1>
-0.16559111

>  <GCUT_SMR_2>
0.13697365

>  <GCUT_SMR_3>
2.9076788

>  <Kier1>
17.811199

>  <Kier2>
7.4861112

>  <Kier3>
3.9837031

>  <KierA1>
12.4722

>  <KierA2>
5.1495948

>  <KierA3>
2.7034292

>  <KierFlex>
2.7924685

>  <lip_acc>
4

>  <lip_don>
0

>  <lip_druglike>
1

>  <lip_violation>
0

>  <logP(o/w)>
2.5599999

>  <logS>
-3.7563

>  <mr>
9.2170382

>  <mutagenic>
0

>  <nmol>
1

>  <opr_brigid>
16

>  <opr_leadlike>
1

>  <opr_nring>
3

>  <opr_nrot>
3

>  <opr_violation>
0

>  <PC+>
0

>  <PC->
0

>  <PEOE_PC+>
1.606168

>  <PEOE_PC->
-1.606168

>  <PEOE_RPC+>
0.14248237

>  <PEOE_RPC->
0.21666838

>  <PEOE_VSA+0>
125.14724

>  <PEOE_VSA+1>
51.958118

>  <PEOE_VSA+2>
11.190562

>  <PEOE_VSA+3>
0

>  <PEOE_VSA+4>
12.949531

>  <PEOE_VSA+5>
0

>  <PEOE_VSA+6>
0

>  <PEOE_VSA-0>
51.958797

>  <PEOE_VSA-1>
63.483059

>  <PEOE_VSA-2>
0

>  <PEOE_VSA-3>
0

>  <PEOE_VSA-4>
5.6825762

>  <PEOE_VSA-5>
13.566921

>  <PEOE_VSA-6>
0

>  <PEOE_VSA_FHYD>
0.90415156

>  <PEOE_VSA_FNEG>
0.40094253

>  <PEOE_VSA_FPNEG>
0.057300948

>  <PEOE_VSA_FPOL>
0.095848471

>  <PEOE_VSA_FPOS>
0.59905744

>  <PEOE_VSA_FPPOS>
0.03854752

>  <PEOE_VSA_HYD>
303.73776

>  <PEOE_VSA_NEG>
134.69136

>  <PEOE_VSA_PNEG>
19.249496

>  <PEOE_VSA_POL>
32.199028

>  <PEOE_VSA_POS>
201.24545

>  <PEOE_VSA_PPOS>
12.949531

>  <petitjean>
0.5

>  <petitjeanSC>
1

>  <Q_PC+>
0

>  <Q_PC->
0

>  <Q_RPC+>
0

>  <Q_RPC->
0

>  <Q_VSA_FHYD>
1

>  <Q_VSA_FNEG>
0

>  <Q_VSA_FPNEG>
0

>  <Q_VSA_FPOL>
0

>  <Q_VSA_FPOS>
1

>  <Q_VSA_FPPOS>
0

>  <Q_VSA_HYD>
335.9368

>  <Q_VSA_NEG>
0

>  <Q_VSA_PNEG>
0

>  <Q_VSA_POL>
0

>  <Q_VSA_POS>
335.9368

>  <Q_VSA_PPOS>
0

>  <radius>
5

>  <reactive>
0

>  <rings>
3

>  <RPC+>
0

>  <RPC->
0

>  <rsynth>
1

>  <SlogP>
3.37679

>  <SlogP_VSA0>
0

>  <SlogP_VSA1>
27.06772

>  <SlogP_VSA2>
23.862217

>  <SlogP_VSA3>
0

>  <SlogP_VSA4>
8.2702427

>  <SlogP_VSA5>
87.848358

>  <SlogP_VSA6>
0

>  <SlogP_VSA7>
94.158241

>  <SlogP_VSA8>
34.85754

>  <SlogP_VSA9>
66.652031

>  <SMR>
9.3779001

>  <SMR_VSA0>
23.862217

>  <SMR_VSA1>
21.808937

>  <SMR_VSA2>
0

>  <SMR_VSA3>
11.455817

>  <SMR_VSA4>
5.9423227

>  <SMR_VSA5>
107.08433

>  <SMR_VSA6>
40.116325

>  <SMR_VSA7>
132.44641

>  <TPSA>
38.130001

>  <VAdjEq>
0.45137304

>  <VAdjMa>
5.643856

>  <VDistEq>
3.1239862

>  <VDistMa>
8.7847452

>  <vdw_area>
335.9368

>  <vdw_vol>
447.38849

>  <vsa_acc>
19.249496

>  <vsa_acid>
0

>  <vsa_base>
0

>  <vsa_don>
0

>  <vsa_hyd>
277.59952

>  <vsa_other>
24.140093

>  <vsa_pol>
19.249496

>  <Weight>
307.397

>  <weinerPath>
1137

>  <weinerPol>
36

>  <zagreb>
122

$$$$