O(C)c1cc2c(cc(cc2)C(C(C(O)=O)(C)C)CC)cc1
  MOE2013           2D

 21 22  0  0  1  0  0  0  0  0999 V2000
    0.0000    0.0000    0.0000 O   0  0  0  0  0  0  0  0  0  0  0  0
    0.7460    1.3010    0.0000 C   0  0  0  0  0  0  0  0  0  0  0  0
   -1.5000   -0.0050    0.0000 C   0  0  0  0  0  0  0  0  0  0  0  0
   -2.2460   -1.3060    0.0000 C   0  0  0  0  0  0  0  0  0  0  0  0
   -3.7460   -1.3110    0.0000 C   0  0  0  0  0  0  0  0  0  0  0  0
   -4.5000   -0.0140    0.0000 C   0  0  0  0  0  0  0  0  0  0  0  0
   -6.0000   -0.0190    0.0000 C   0  0  0  0  0  0  0  0  0  0  0  0
   -6.7460   -1.3200    0.0000 C   0  0  0  0  0  0  0  0  0  0  0  0
   -5.9920   -2.6170    0.0000 C   0  0  0  0  0  0  0  0  0  0  0  0
   -4.4920   -2.6120    0.0000 C   0  0  0  0  0  0  0  0  0  0  0  0
   -8.2460   -1.3250    0.0000 C   0  0  3  0  0  0  0  0  0  0  0  0
   -8.9920   -2.6260    0.0000 C   0  0  0  0  0  0  0  0  0  0  0  0
   -9.7380   -3.9270    0.0000 C   0  0  0  0  0  0  0  0  0  0  0  0
   -8.9840   -5.2240    0.0000 O   0  0  0  0  0  0  0  0  0  0  0  0
  -11.2380   -3.9320    0.0000 O   0  0  0  0  0  0  0  0  0  0  0  0
  -10.2930   -1.8800    0.0000 C   0  0  0  0  0  0  0  0  0  0  0  0
   -7.6910   -3.3720    0.0000 C   0  0  0  0  0  0  0  0  0  0  0  0
   -9.0000   -0.0280    0.0000 C   0  0  0  0  0  0  0  0  0  0  0  0
   -8.2540    1.2740    0.0000 C   0  0  0  0  0  0  0  0  0  0  0  0
   -3.7540    1.2870    0.0000 C   0  0  0  0  0  0  0  0  0  0  0  0
   -2.2540    1.2920    0.0000 C   0  0  0  0  0  0  0  0  0  0  0  0
  1  2  1  0  0  0  0
  1  3  1  0  0  0  0
  3  4  2  0  0  0  0
  3 21  1  0  0  0  0
  4  5  1  0  0  0  0
  5  6  1  0  0  0  0
  5 10  2  0  0  0  0
  6  7  2  0  0  0  0
  6 20  1  0  0  0  0
  7  8  1  0  0  0  0
  8  9  2  0  0  0  0
  8 11  1  0  0  0  0
  9 10  1  0  0  0  0
 11 12  1  0  0  0  0
 11 18  1  0  0  0  0
 12 13  1  0  0  0  0
 12 16  1  0  0  0  0
 12 17  1  0  0  0  0
 13 14  1  0  0  0  0
 13 15  2  0  0  0  0
 18 19  1  0  0  0  0
 20 21  2  0  0  0  0
M  END
>  <Index>
1309

>  <ID>
HT3278

>  <class>
0

>  <apol>
48.755447

>  <ast_fraglike>
0

>  <ast_fraglike_ext>
0

>  <ast_violation>
1

>  <ast_violation_ext>
2

>  <a_acc>
3

>  <a_acid>
0

>  <a_aro>
10

>  <a_base>
0

>  <a_count>
43

>  <a_don>
2

>  <a_donacc>
5

>  <a_heavy>
21

>  <a_hyd>
17

>  <a_IC>
55.408352

>  <a_ICM>
1.2885664

>  <a_nB>
0

>  <a_nBr>
0

>  <a_nC>
18

>  <a_nCl>
0

>  <a_nF>
0

>  <a_nH>
22

>  <a_nI>
0

>  <a_nN>
0

>  <a_nO>
3

>  <a_nP>
0

>  <a_nS>
0

>  <balabanJ>
2.0126307

>  <BCUT_PEOE_0>
-2.6892395

>  <BCUT_PEOE_1>
-0.56381333

>  <BCUT_PEOE_2>
0.46787885

>  <BCUT_PEOE_3>
2.7006311

>  <BCUT_SLOGP_0>
-2.6244404

>  <BCUT_SLOGP_1>
-0.50635612

>  <BCUT_SLOGP_2>
0.59505016

>  <BCUT_SLOGP_3>
2.7815878

>  <BCUT_SMR_0>
-2.4497097

>  <BCUT_SMR_1>
-0.33879411

>  <BCUT_SMR_2>
0.67945844

>  <BCUT_SMR_3>
2.9414182

>  <bpol>
26.924555

>  <b_1rotN>
5

>  <b_1rotR>
0.22727273

>  <b_ar>
11

>  <b_count>
44

>  <b_double>
1

>  <b_heavy>
22

>  <b_max1len>
6

>  <b_rotN>
5

>  <b_rotR>
0.22727273

>  <b_single>
32

>  <b_triple>
0

>  <chi0>
15.620955

>  <chi0v>
13.012269

>  <chi0v_C>
11.748559

>  <chi0_C>
12.913849

>  <chi1>
9.8954144

>  <chi1v>
7.2088766

>  <chi1v_C>
6.1687732

>  <chi1_C>
7.6253581

>  <chiral>
1

>  <chiral_u>
1

>  <density>
0.68726343

>  <diameter>
11

>  <FCharge>
0

>  <GCUT_PEOE_0>
-0.78947824

>  <GCUT_PEOE_1>
-0.41412315

>  <GCUT_PEOE_2>
-0.053523224

>  <GCUT_PEOE_3>
2.7313173

>  <GCUT_SLOGP_0>
-0.88677424

>  <GCUT_SLOGP_1>
-0.28504977

>  <GCUT_SLOGP_2>
0.11227682

>  <GCUT_SLOGP_3>
2.8597028

>  <GCUT_SMR_0>
-0.52384239

>  <GCUT_SMR_1>
-0.19553559

>  <GCUT_SMR_2>
0.11974132

>  <GCUT_SMR_3>
2.9968429

>  <Kier1>
17.355371

>  <Kier2>
7.0507812

>  <Kier3>
3.6734693

>  <KierA1>
13.57038

>  <KierA2>
5.4402189

>  <KierA3>
2.8054786

>  <KierFlex>
3.515516

>  <lip_acc>
3

>  <lip_don>
1

>  <lip_druglike>
1

>  <lip_violation>
0

>  <logP(o/w)>
4.5489998

>  <logS>
-4.6599102

>  <mr>
8.4280834

>  <mutagenic>
0

>  <nmol>
1

>  <opr_brigid>
11

>  <opr_leadlike>
1

>  <opr_nring>
2

>  <opr_nrot>
5

>  <opr_violation>
0

>  <PC+>
0

>  <PC->
0

>  <PEOE_PC+>
1.5025799

>  <PEOE_PC->
-1.5025799

>  <PEOE_RPC+>
0.17693456

>  <PEOE_RPC->
0.2315307

>  <PEOE_VSA+0>
76.182289

>  <PEOE_VSA+1>
46.846992

>  <PEOE_VSA+2>
0

>  <PEOE_VSA+3>
0

>  <PEOE_VSA+4>
10.324173

>  <PEOE_VSA+5>
14.708499

>  <PEOE_VSA+6>
0

>  <PEOE_VSA-0>
39.836739

>  <PEOE_VSA-1>
105.26265

>  <PEOE_VSA-2>
0

>  <PEOE_VSA-3>
0

>  <PEOE_VSA-4>
0

>  <PEOE_VSA-5>
13.566921

>  <PEOE_VSA-6>
10.271297

>  <PEOE_VSA_FHYD>
0.84583294

>  <PEOE_VSA_FNEG>
0.53292692

>  <PEOE_VSA_FPNEG>
0.07519953

>  <PEOE_VSA_FPOL>
0.15416706

>  <PEOE_VSA_FPOS>
0.46707305

>  <PEOE_VSA_FPPOS>
0.078967527

>  <PEOE_VSA_HYD>
268.12866

>  <PEOE_VSA_NEG>
168.93761

>  <PEOE_VSA_PNEG>
23.838217

>  <PEOE_VSA_POL>
48.870888

>  <PEOE_VSA_POS>
148.06195

>  <PEOE_VSA_PPOS>
25.032671

>  <petitjean>
0.45454547

>  <petitjeanSC>
0.83333331

>  <Q_PC+>
0

>  <Q_PC->
0

>  <Q_RPC+>
0

>  <Q_RPC->
0

>  <Q_VSA_FHYD>
1

>  <Q_VSA_FNEG>
0

>  <Q_VSA_FPNEG>
0

>  <Q_VSA_FPOL>
0

>  <Q_VSA_FPOS>
1

>  <Q_VSA_FPPOS>
0

>  <Q_VSA_HYD>
316.99957

>  <Q_VSA_NEG>
0

>  <Q_VSA_PNEG>
0

>  <Q_VSA_POL>
0

>  <Q_VSA_POS>
316.99957

>  <Q_VSA_PPOS>
0

>  <radius>
6

>  <reactive>
0

>  <rings>
2

>  <RPC+>
0

>  <RPC->
0

>  <rsynth>
0.047619049

>  <SlogP>
4.4527998

>  <SlogP_VSA0>
10.999887

>  <SlogP_VSA1>
7.7454643

>  <SlogP_VSA2>
23.862217

>  <SlogP_VSA3>
25.385227

>  <SlogP_VSA4>
3.185575

>  <SlogP_VSA5>
35.383869

>  <SlogP_VSA6>
4.4107962

>  <SlogP_VSA7>
111.00504

>  <SlogP_VSA8>
18.868406

>  <SlogP_VSA9>
105.22147

>  <SMR>
8.4948797

>  <SMR_VSA0>
23.862217

>  <SMR_VSA1>
10.999887

>  <SMR_VSA2>
25.385227

>  <SMR_VSA3>
12.839799

>  <SMR_VSA4>
5.1459289

>  <SMR_VSA5>
124.72751

>  <SMR_VSA6>
7.7454643

>  <SMR_VSA7>
135.36191

>  <TPSA>
46.529999

>  <VAdjEq>
0.46827638

>  <VAdjMa>
5.4594316

>  <VDistEq>
3.1903484

>  <VDistMa>
8.4871225

>  <vdw_area>
316.99957

>  <vdw_vol>
416.68301

>  <vsa_acc>
2.503756

>  <vsa_acid>
0

>  <vsa_base>
0

>  <vsa_don>
0

>  <vsa_hyd>
251.83592

>  <vsa_other>
14.708499

>  <vsa_pol>
29.637598

>  <Weight>
286.371

>  <weinerPath>
922

>  <weinerPol>
36

>  <zagreb>
108

$$$$