s1c(C(O)=O)c(CC(O)=O)c(C#N)c1N(CC(O)=O)CC(O)=O
  MOE2013           2D

 23 23  0  0  0  0  0  0  0  0999 V2000
    0.0000    0.0000    0.0000 S   0  0  0  0  0  0  0  0  0  0  0  0
   -1.4660    0.3170    0.0000 C   0  0  0  0  0  0  0  0  0  0  0  0
   -2.0710    1.6900    0.0000 C   0  0  0  0  0  0  0  0  0  0  0  0
   -1.1850    2.9000    0.0000 O   0  0  0  0  0  0  0  0  0  0  0  0
   -3.5630    1.8520    0.0000 O   0  0  0  0  0  0  0  0  0  0  0  0
   -2.2210   -0.9790    0.0000 C   0  0  0  0  0  0  0  0  0  0  0  0
   -3.7130   -1.1310    0.0000 C   0  0  0  0  0  0  0  0  0  0  0  0
   -4.3280   -2.4990    0.0000 C   0  0  0  0  0  0  0  0  0  0  0  0
   -5.8200   -2.6500    0.0000 O   0  0  0  0  0  0  0  0  0  0  0  0
   -3.4510   -3.7160    0.0000 O   0  0  0  0  0  0  0  0  0  0  0  0
   -1.2210   -2.0980    0.0000 C   0  0  0  0  0  0  0  0  0  0  0  0
   -1.5380   -3.5640    0.0000 C   0  0  0  0  0  0  0  0  0  0  0  0
   -1.8550   -5.0300    0.0000 N   0  0  0  0  0  0  0  0  0  0  0  0
    0.1510   -1.4920    0.0000 C   0  0  0  0  0  0  0  0  0  0  0  0
    1.4480   -2.2470    0.0000 N   0  0  0  0  0  0  0  0  0  0  0  0
    1.4420   -3.7470    0.0000 C   0  0  0  0  0  0  0  0  0  0  0  0
    2.7390   -4.5020    0.0000 C   0  0  0  0  0  0  0  0  0  0  0  0
    4.0410   -3.7560    0.0000 O   0  0  0  0  0  0  0  0  0  0  0  0
    2.7330   -6.0020    0.0000 O   0  0  0  0  0  0  0  0  0  0  0  0
    2.7500   -1.5020    0.0000 C   0  0  0  0  0  0  0  0  0  0  0  0
    2.7550   -0.0020    0.0000 C   0  0  0  0  0  0  0  0  0  0  0  0
    1.4590    0.7530    0.0000 O   0  0  0  0  0  0  0  0  0  0  0  0
    4.0570    0.7440    0.0000 O   0  0  0  0  0  0  0  0  0  0  0  0
  1  2  1  0  0  0  0
  1 14  1  0  0  0  0
  2  3  1  0  0  0  0
  2  6  2  0  0  0  0
  3  4  1  0  0  0  0
  3  5  2  0  0  0  0
  6  7  1  0  0  0  0
  6 11  1  0  0  0  0
  7  8  1  0  0  0  0
  8  9  1  0  0  0  0
  8 10  2  0  0  0  0
 11 12  1  0  0  0  0
 11 14  2  0  0  0  0
 12 13  3  0  0  0  0
 14 15  1  0  0  0  0
 15 16  1  0  0  0  0
 15 20  1  0  0  0  0
 16 17  1  0  0  0  0
 17 18  1  0  0  0  0
 17 19  2  0  0  0  0
 20 21  1  0  0  0  0
 21 22  1  0  0  0  0
 21 23  2  0  0  0  0
M  END
>  <Index>
1002

>  <ID>
HT1921

>  <class>
0

>  <apol>
39.303928

>  <ast_fraglike>
0

>  <ast_fraglike_ext>
0

>  <ast_violation>
3

>  <ast_violation_ext>
5

>  <a_acc>
9

>  <a_acid>
0

>  <a_aro>
5

>  <a_base>
0

>  <a_count>
33

>  <a_don>
8

>  <a_donacc>
17

>  <a_heavy>
23

>  <a_hyd>
8

>  <a_IC>
64.226173

>  <a_ICM>
1.9462477

>  <a_nB>
0

>  <a_nBr>
0

>  <a_nC>
12

>  <a_nCl>
0

>  <a_nF>
0

>  <a_nH>
10

>  <a_nI>
0

>  <a_nN>
2

>  <a_nO>
8

>  <a_nP>
0

>  <a_nS>
1

>  <balabanJ>
3.0190117

>  <BCUT_PEOE_0>
-2.4534595

>  <BCUT_PEOE_1>
-0.52894604

>  <BCUT_PEOE_2>
0.47404009

>  <BCUT_PEOE_3>
2.4886334

>  <BCUT_SLOGP_0>
-2.6386845

>  <BCUT_SLOGP_1>
-0.49385142

>  <BCUT_SLOGP_2>
0.43821535

>  <BCUT_SLOGP_3>
2.4546504

>  <BCUT_SMR_0>
-2.1677494

>  <BCUT_SMR_1>
-0.30802736

>  <BCUT_SMR_2>
0.63365656

>  <BCUT_SMR_3>
2.7758083

>  <bpol>
19.684071

>  <b_1rotN>
8

>  <b_1rotR>
0.34782609

>  <b_ar>
5

>  <b_count>
33

>  <b_double>
4

>  <b_heavy>
23

>  <b_max1len>
4

>  <b_rotN>
9

>  <b_rotR>
0.39130434

>  <b_single>
23

>  <b_triple>
1

>  <chi0>
17.731686

>  <chi0v>
12.16234

>  <chi0v_C>
6.6213202

>  <chi0_C>
7.4472294

>  <chi1>
10.66681

>  <chi1v>
6.6795511

>  <chi1v_C>
2.6642137

>  <chi1_C>
3.3745749

>  <chiral>
0

>  <chiral_u>
0

>  <density>
0.94700724

>  <diameter>
9

>  <FCharge>
0

>  <GCUT_PEOE_0>
-0.80662346

>  <GCUT_PEOE_1>
-0.49247521

>  <GCUT_PEOE_2>
0.11087345

>  <GCUT_PEOE_3>
2.4391029

>  <GCUT_SLOGP_0>
-0.99690479

>  <GCUT_SLOGP_1>
-0.47385082

>  <GCUT_SLOGP_2>
0.11728185

>  <GCUT_SLOGP_3>
2.4550331

>  <GCUT_SMR_0>
-0.46556926

>  <GCUT_SMR_1>
-0.23966524

>  <GCUT_SMR_2>
0.24941643

>  <GCUT_SMR_3>
2.7285378

>  <Kier1>
21.043478

>  <Kier2>
9.4746094

>  <Kier3>
6.094183

>  <KierA1>
16.185696

>  <KierA2>
7.1940551

>  <KierA3>
4.5821805

>  <KierFlex>
5.0626431

>  <lip_acc>
10

>  <lip_don>
4

>  <lip_druglike>
1

>  <lip_violation>
0

>  <logP(o/w)>
-0.331

>  <logS>
-1.7731

>  <mr>
7.6520181

>  <mutagenic>
0

>  <nmol>
1

>  <opr_brigid>
5

>  <opr_leadlike>
1

>  <opr_nring>
1

>  <opr_nrot>
9

>  <opr_violation>
1

>  <PC+>
0

>  <PC->
0

>  <PEOE_PC+>
2.8562675

>  <PEOE_PC->
-2.8562675

>  <PEOE_RPC+>
0.098292083

>  <PEOE_RPC->
0.1158931

>  <PEOE_VSA+0>
12.715373

>  <PEOE_VSA+1>
54.356045

>  <PEOE_VSA+2>
20.299505

>  <PEOE_VSA+3>
19.760618

>  <PEOE_VSA+4>
41.296692

>  <PEOE_VSA+5>
58.833996

>  <PEOE_VSA+6>
0

>  <PEOE_VSA-0>
10.884152

>  <PEOE_VSA-1>
0

>  <PEOE_VSA-2>
0

>  <PEOE_VSA-3>
17.742489

>  <PEOE_VSA-4>
0

>  <PEOE_VSA-5>
54.267685

>  <PEOE_VSA-6>
31.070162

>  <PEOE_VSA_FHYD>
0.4226242

>  <PEOE_VSA_FNEG>
0.35477898

>  <PEOE_VSA_FPNEG>
0.26566234

>  <PEOE_VSA_FPOL>
0.57737577

>  <PEOE_VSA_FPOS>
0.64522099

>  <PEOE_VSA_FPPOS>
0.31171346

>  <PEOE_VSA_HYD>
135.75818

>  <PEOE_VSA_NEG>
113.96449

>  <PEOE_VSA_PNEG>
85.337845

>  <PEOE_VSA_POL>
185.46854

>  <PEOE_VSA_POS>
207.26224

>  <PEOE_VSA_PPOS>
100.13068

>  <petitjean>
0.44444445

>  <petitjeanSC>
0.80000001

>  <Q_PC+>
0

>  <Q_PC->
0

>  <Q_RPC+>
0

>  <Q_RPC->
0

>  <Q_VSA_FHYD>
1

>  <Q_VSA_FNEG>
0

>  <Q_VSA_FPNEG>
0

>  <Q_VSA_FPOL>
0

>  <Q_VSA_FPOS>
1

>  <Q_VSA_FPPOS>
0

>  <Q_VSA_HYD>
321.22672

>  <Q_VSA_NEG>
0

>  <Q_VSA_PNEG>
0

>  <Q_VSA_POL>
0

>  <Q_VSA_POS>
321.22672

>  <Q_VSA_PPOS>
0

>  <radius>
5

>  <reactive>
0

>  <rings>
1

>  <RPC+>
0

>  <RPC->
0

>  <rsynth>
1

>  <SlogP>
-0.079346001

>  <SlogP_VSA0>
3.1243138

>  <SlogP_VSA1>
30.981857

>  <SlogP_VSA2>
71.586647

>  <SlogP_VSA3>
186.08116

>  <SlogP_VSA4>
31.591768

>  <SlogP_VSA5>
18.868406

>  <SlogP_VSA6>
0

>  <SlogP_VSA7>
0

>  <SlogP_VSA8>
0

>  <SlogP_VSA9>
32.20726

>  <SMR>
7.48177

>  <SMR_VSA0>
95.448868

>  <SMR_VSA1>
31.059357

>  <SMR_VSA2>
104.66522

>  <SMR_VSA3>
24.331297

>  <SMR_VSA4>
0.92957383

>  <SMR_VSA5>
18.868406

>  <SMR_VSA6>
67.861015

>  <SMR_VSA7>
31.277687

>  <TPSA>
176.23

>  <VAdjEq>
0.42622864

>  <VAdjMa>
5.523562

>  <VDistEq>
3.0479248

>  <VDistMa>
8.806263

>  <vdw_area>
321.22672

>  <vdw_vol>
361.43756

>  <vsa_acc>
17.742489

>  <vsa_acid>
0

>  <vsa_base>
0

>  <vsa_don>
0

>  <vsa_hyd>
93.445419

>  <vsa_other>
79.133507

>  <vsa_pol>
126.27785

>  <Weight>
342.284

>  <weinerPath>
1133

>  <weinerPol>
33

>  <zagreb>
110

$$$$