S(=O)(=O)(N[C@@H](Cc1ccc(OCCCCC2CCNCC2)cc1)C(O)=O)CCCC
  MOE2013           2D

 30 31  0  0  1  0  0  0  0  0999 V2000
    0.0000    0.0000    0.0000 S   0  0  0  0  0  0  0  0  0  0  0  0
   -1.2980    0.7520    0.0000 O   0  0  0  0  0  0  0  0  0  0  0  0
    1.2980   -0.7520    0.0000 O   0  0  0  0  0  0  0  0  0  0  0  0
    0.7520    1.2980    0.0000 N   0  0  0  0  0  0  0  0  0  0  0  0
    2.2520    1.2960    0.0000 C   0  0  1  0  0  0  0  0  0  0  0  0
    3.0000   -0.0040    0.0000 C   0  0  0  0  0  0  0  0  0  0  0  0
    4.5000   -0.0060    0.0000 C   0  0  0  0  0  0  0  0  0  0  0  0
    5.2480   -1.3060    0.0000 C   0  0  0  0  0  0  0  0  0  0  0  0
    6.7480   -1.3080    0.0000 C   0  0  0  0  0  0  0  0  0  0  0  0
    7.5000   -0.0100    0.0000 C   0  0  0  0  0  0  0  0  0  0  0  0
    9.0000   -0.0130    0.0000 O   0  0  0  0  0  0  0  0  0  0  0  0
    9.7480   -1.3130    0.0000 C   0  0  0  0  0  0  0  0  0  0  0  0
   11.2480   -1.3150    0.0000 C   0  0  0  0  0  0  0  0  0  0  0  0
   11.9960   -2.6150    0.0000 C   0  0  0  0  0  0  0  0  0  0  0  0
   13.4960   -2.6170    0.0000 C   0  0  0  0  0  0  0  0  0  0  0  0
   14.2450   -3.9170    0.0000 C   0  0  0  0  0  0  0  0  0  0  0  0
   15.7450   -3.9190    0.0000 C   0  0  0  0  0  0  0  0  0  0  0  0
   16.4930   -5.2190    0.0000 C   0  0  0  0  0  0  0  0  0  0  0  0
   15.7410   -6.5170    0.0000 N   0  0  0  0  0  0  0  0  0  0  0  0
   14.2410   -6.5150    0.0000 C   0  0  0  0  0  0  0  0  0  0  0  0
   13.4930   -5.2150    0.0000 C   0  0  0  0  0  0  0  0  0  0  0  0
    6.7520    1.2900    0.0000 C   0  0  0  0  0  0  0  0  0  0  0  0
    5.2520    1.2920    0.0000 C   0  0  0  0  0  0  0  0  0  0  0  0
    3.0040    2.5940    0.0000 C   0  0  0  0  0  0  0  0  0  0  0  0
    2.2550    3.8940    0.0000 O   0  0  0  0  0  0  0  0  0  0  0  0
    4.5040    2.5920    0.0000 O   0  0  0  0  0  0  0  0  0  0  0  0
   -0.7520   -1.2980    0.0000 C   0  0  0  0  0  0  0  0  0  0  0  0
   -2.2520   -1.2960    0.0000 C   0  0  0  0  0  0  0  0  0  0  0  0
   -3.0040   -2.5940    0.0000 C   0  0  0  0  0  0  0  0  0  0  0  0
   -4.5040   -2.5920    0.0000 C   0  0  0  0  0  0  0  0  0  0  0  0
  1  2  2  0  0  0  0
  1  3  2  0  0  0  0
  1  4  1  0  0  0  0
  1 27  1  0  0  0  0
  5  4  1  6  0  0  0
  5  6  1  0  0  0  0
  5 24  1  0  0  0  0
  6  7  1  0  0  0  0
  7  8  1  0  0  0  0
  7 23  2  0  0  0  0
  8  9  2  0  0  0  0
  9 10  1  0  0  0  0
 10 11  1  0  0  0  0
 10 22  2  0  0  0  0
 11 12  1  0  0  0  0
 12 13  1  0  0  0  0
 13 14  1  0  0  0  0
 14 15  1  0  0  0  0
 15 16  1  0  0  0  0
 16 17  1  0  0  0  0
 16 21  1  0  0  0  0
 17 18  1  0  0  0  0
 18 19  1  0  0  0  0
 19 20  1  0  0  0  0
 20 21  1  0  0  0  0
 22 23  1  0  0  0  0
 24 25  1  0  0  0  0
 24 26  2  0  0  0  0
 27 28  1  0  0  0  0
 28 29  1  0  0  0  0
 29 30  1  0  0  0  0
M  END
>  <Index>
1080

>  <ID>
HT2071

>  <class>
0

>  <apol>
71.834549

>  <ast_fraglike>
0

>  <ast_fraglike_ext>
0

>  <ast_violation>
3

>  <ast_violation_ext>
5

>  <a_acc>
6

>  <a_acid>
0

>  <a_aro>
6

>  <a_base>
0

>  <a_count>
66

>  <a_don>
4

>  <a_donacc>
10

>  <a_heavy>
30

>  <a_hyd>
21

>  <a_IC>
101.09557

>  <a_ICM>
1.5317512

>  <a_nB>
0

>  <a_nBr>
0

>  <a_nC>
22

>  <a_nCl>
0

>  <a_nF>
0

>  <a_nH>
36

>  <a_nI>
0

>  <a_nN>
2

>  <a_nO>
5

>  <a_nP>
0

>  <a_nS>
1

>  <balabanJ>
1.588869

>  <BCUT_PEOE_0>
-2.8059297

>  <BCUT_PEOE_1>
-0.5743804

>  <BCUT_PEOE_2>
0.5890854

>  <BCUT_PEOE_3>
2.7341678

>  <BCUT_SLOGP_0>
-2.8209779

>  <BCUT_SLOGP_1>
-0.48674428

>  <BCUT_SLOGP_2>
0.62016761

>  <BCUT_SLOGP_3>
2.8114614

>  <BCUT_SMR_0>
-2.5439789

>  <BCUT_SMR_1>
-0.44209838

>  <BCUT_SMR_2>
0.71941185

>  <BCUT_SMR_3>
2.9935036

>  <bpol>
50.025452

>  <b_1rotN>
14

>  <b_1rotR>
0.45161289

>  <b_ar>
6

>  <b_count>
67

>  <b_double>
1

>  <b_heavy>
31

>  <b_max1len>
9

>  <b_rotN>
14

>  <b_rotR>
0.45161289

>  <b_single>
60

>  <b_triple>
0

>  <chi0>
21.821779

>  <chi0v>
18.754335

>  <chi0v_C>
14.449383

>  <chi0_C>
15.200459

>  <chi1>
14.392979

>  <chi1v>
12.698405

>  <chi1v_C>
8.3036957

>  <chi1_C>
9.2146749

>  <chiral>
1

>  <chiral_u>
0

>  <density>
0.73750162

>  <diameter>
20

>  <FCharge>
0

>  <GCUT_PEOE_0>
-0.85000437

>  <GCUT_PEOE_1>
-0.38738233

>  <GCUT_PEOE_2>
0.06312076

>  <GCUT_PEOE_3>
2.7583842

>  <GCUT_SLOGP_0>
-1.1532071

>  <GCUT_SLOGP_1>
-0.34228957

>  <GCUT_SLOGP_2>
0.11944091

>  <GCUT_SLOGP_3>
2.8147662

>  <GCUT_SMR_0>
-0.53150922

>  <GCUT_SMR_1>
-0.2098449

>  <GCUT_SMR_2>
0.17145489

>  <GCUT_SMR_3>
3.0015342

>  <Kier1>
26.253902

>  <Kier2>
14.21

>  <Kier3>
10.933885

>  <KierA1>
24.726772

>  <KierA2>
13.354849

>  <KierA3>
10.260354

>  <KierFlex>
11.00741

>  <lip_acc>
7

>  <lip_don>
3

>  <lip_druglike>
1

>  <lip_violation>
0

>  <logP(o/w)>
3.9560001

>  <logS>
-3.6331999

>  <mr>
12.019202

>  <mutagenic>
0

>  <nmol>
1

>  <opr_brigid>
12

>  <opr_leadlike>
1

>  <opr_nring>
2

>  <opr_nrot>
15

>  <opr_violation>
1

>  <PC+>
0

>  <PC->
0

>  <PEOE_PC+>
2.5219512

>  <PEOE_PC->
-2.5219512

>  <PEOE_RPC+>
0.10342124

>  <PEOE_RPC->
0.13667706

>  <PEOE_VSA+0>
125.44157

>  <PEOE_VSA+1>
60.767101

>  <PEOE_VSA+2>
17.149784

>  <PEOE_VSA+3>
10.677375

>  <PEOE_VSA+4>
10.324173

>  <PEOE_VSA+5>
14.708499

>  <PEOE_VSA+6>
0

>  <PEOE_VSA-0>
96.609566

>  <PEOE_VSA-1>
60.66011

>  <PEOE_VSA-2>
0

>  <PEOE_VSA-3>
2.5295215

>  <PEOE_VSA-4>
32.016521

>  <PEOE_VSA-5>
13.566921

>  <PEOE_VSA-6>
10.408187

>  <PEOE_VSA_FHYD>
0.82186955

>  <PEOE_VSA_FNEG>
0.47441223

>  <PEOE_VSA_FPNEG>
0.12309659

>  <PEOE_VSA_FPOL>
0.17813046

>  <PEOE_VSA_FPOS>
0.5255878

>  <PEOE_VSA_FPPOS>
0.055033874

>  <PEOE_VSA_HYD>
373.83502

>  <PEOE_VSA_NEG>
215.79083

>  <PEOE_VSA_PNEG>
55.991631

>  <PEOE_VSA_POL>
81.0243

>  <PEOE_VSA_POS>
239.06851

>  <PEOE_VSA_PPOS>
25.032671

>  <petitjean>
0.5

>  <petitjeanSC>
1

>  <Q_PC+>
0

>  <Q_PC->
0

>  <Q_RPC+>
0

>  <Q_RPC->
0

>  <Q_VSA_FHYD>
1

>  <Q_VSA_FNEG>
0

>  <Q_VSA_FPNEG>
0

>  <Q_VSA_FPOL>
0

>  <Q_VSA_FPOS>
1

>  <Q_VSA_FPPOS>
0

>  <Q_VSA_HYD>
454.85934

>  <Q_VSA_NEG>
0

>  <Q_VSA_PNEG>
0

>  <Q_VSA_POL>
0

>  <Q_VSA_POS>
454.85934

>  <Q_VSA_PPOS>
0

>  <radius>
10

>  <reactive>
0

>  <rings>
2

>  <RPC+>
0

>  <RPC->
0

>  <rsynth>
1

>  <SlogP>
2.95047

>  <SlogP_VSA0>
45.415634

>  <SlogP_VSA1>
55.917152

>  <SlogP_VSA2>
34.484928

>  <SlogP_VSA3>
100.4242

>  <SlogP_VSA4>
7.5963712

>  <SlogP_VSA5>
18.868406

>  <SlogP_VSA6>
0

>  <SlogP_VSA7>
70.572739

>  <SlogP_VSA8>
132.07884

>  <SlogP_VSA9>
38.569443

>  <SMR>
11.834

>  <SMR_VSA0>
72.033905

>  <SMR_VSA1>
10.999887

>  <SMR_VSA2>
64.211769

>  <SMR_VSA3>
12.410972

>  <SMR_VSA4>
0

>  <SMR_VSA5>
221.51997

>  <SMR_VSA6>
82.784447

>  <SMR_VSA7>
39.966759

>  <TPSA>
104.73

>  <VAdjEq>
0.36176345

>  <VAdjMa>
5.9541965

>  <VDistEq>
4.0639825

>  <VDistMa>
9.4657249

>  <vdw_area>
454.85934

>  <vdw_vol>
597.4292

>  <vsa_acc>
34.520279

>  <vsa_acid>
0

>  <vsa_base>
0

>  <vsa_don>
8.0752068

>  <vsa_hyd>
319.12756

>  <vsa_other>
24.814108

>  <vsa_pol>
75.411903

>  <Weight>
440.60498

>  <weinerPath>
3235

>  <weinerPol>
38

>  <zagreb>
142

$$$$