Clc1cc2c(N(CCCC2O)C(=O)c2ccc(NC(=O)c3ccccc3C)cc2C)cc1
  MOE2013           2D

 32 35  0  0  1  0  0  0  0  0999 V2000
    0.0000    0.0000    0.0000 Cl  0  0  0  0  0  0  0  0  0  0  0  0
    1.4550   -0.3650    0.0000 C   0  0  0  0  0  0  0  0  0  0  0  0
    1.8660   -1.8070    0.0000 C   0  0  0  0  0  0  0  0  0  0  0  0
    3.3210   -2.1720    0.0000 C   0  0  0  0  0  0  0  0  0  0  0  0
    4.3650   -1.0950    0.0000 C   0  0  0  0  0  0  0  0  0  0  0  0
    5.8580   -1.2400    0.0000 N   0  0  0  0  0  0  0  0  0  0  0  0
    6.6750   -2.4980    0.0000 C   0  0  0  0  0  0  0  0  0  0  0  0
    6.2020   -3.9220    0.0000 C   0  0  0  0  0  0  0  0  0  0  0  0
    4.7950   -4.4390    0.0000 C   0  0  0  0  0  0  0  0  0  0  0  0
    3.5130   -3.6600    0.0000 C   0  0  3  0  0  0  0  0  0  0  0  0
    2.2550   -4.4770    0.0000 O   0  0  0  0  0  0  0  0  0  0  0  0
    6.6370    0.0420    0.0000 C   0  0  0  0  0  0  0  0  0  0  0  0
    5.9160    1.3570    0.0000 O   0  0  0  0  0  0  0  0  0  0  0  0
    8.1360    0.0080    0.0000 C   0  0  0  0  0  0  0  0  0  0  0  0
    8.8570   -1.3070    0.0000 C   0  0  0  0  0  0  0  0  0  0  0  0
   10.3570   -1.3410    0.0000 C   0  0  0  0  0  0  0  0  0  0  0  0
   11.1350   -0.0590    0.0000 C   0  0  0  0  0  0  0  0  0  0  0  0
   12.6350   -0.0920    0.0000 N   0  0  0  0  0  0  0  0  0  0  0  0
   13.4140    1.1900    0.0000 C   0  0  0  0  0  0  0  0  0  0  0  0
   12.6930    2.5050    0.0000 O   0  0  0  0  0  0  0  0  0  0  0  0
   14.9130    1.1560    0.0000 C   0  0  0  0  0  0  0  0  0  0  0  0
   15.6340   -0.1590    0.0000 C   0  0  0  0  0  0  0  0  0  0  0  0
   17.1340   -0.1930    0.0000 C   0  0  0  0  0  0  0  0  0  0  0  0
   17.9130    1.0890    0.0000 C   0  0  0  0  0  0  0  0  0  0  0  0
   17.1920    2.4050    0.0000 C   0  0  0  0  0  0  0  0  0  0  0  0
   15.6920    2.4380    0.0000 C   0  0  0  0  0  0  0  0  0  0  0  0
   14.9710    3.7540    0.0000 C   0  0  0  0  0  0  0  0  0  0  0  0
   10.4150    1.2570    0.0000 C   0  0  0  0  0  0  0  0  0  0  0  0
    8.9150    1.2900    0.0000 C   0  0  0  0  0  0  0  0  0  0  0  0
    8.1940    2.6060    0.0000 C   0  0  0  0  0  0  0  0  0  0  0  0
    3.9530    0.3480    0.0000 C   0  0  0  0  0  0  0  0  0  0  0  0
    2.4980    0.7130    0.0000 C   0  0  0  0  0  0  0  0  0  0  0  0
  1  2  1  0  0  0  0
  2  3  1  0  0  0  0
  2 32  2  0  0  0  0
  3  4  2  0  0  0  0
  4  5  1  0  0  0  0
  4 10  1  0  0  0  0
  5  6  1  0  0  0  0
  5 31  2  0  0  0  0
  6  7  1  0  0  0  0
  6 12  1  0  0  0  0
  7  8  1  0  0  0  0
  8  9  1  0  0  0  0
  9 10  1  0  0  0  0
 10 11  1  0  0  0  0
 12 13  2  0  0  0  0
 12 14  1  0  0  0  0
 14 15  1  0  0  0  0
 14 29  2  0  0  0  0
 15 16  2  0  0  0  0
 16 17  1  0  0  0  0
 17 18  1  0  0  0  0
 17 28  2  0  0  0  0
 18 19  1  0  0  0  0
 19 20  2  0  0  0  0
 19 21  1  0  0  0  0
 21 22  1  0  0  0  0
 21 26  2  0  0  0  0
 22 23  2  0  0  0  0
 23 24  1  0  0  0  0
 24 25  2  0  0  0  0
 25 26  1  0  0  0  0
 26 27  1  0  0  0  0
 28 29  1  0  0  0  0
 29 30  1  0  0  0  0
 31 32  1  0  0  0  0
M  END
>  <Index>
1092

>  <ID>
HT2089

>  <class>
0

>  <apol>
69.215828

>  <ast_fraglike>
0

>  <ast_fraglike_ext>
0

>  <ast_violation>
2

>  <ast_violation_ext>
3

>  <a_acc>
3

>  <a_acid>
0

>  <a_aro>
18

>  <a_base>
0

>  <a_count>
57

>  <a_don>
2

>  <a_donacc>
5

>  <a_heavy>
32

>  <a_hyd>
25

>  <a_IC>
87.412003

>  <a_ICM>
1.5335439

>  <a_nB>
0

>  <a_nBr>
0

>  <a_nC>
26

>  <a_nCl>
1

>  <a_nF>
0

>  <a_nH>
25

>  <a_nI>
0

>  <a_nN>
2

>  <a_nO>
3

>  <a_nP>
0

>  <a_nS>
0

>  <balabanJ>
1.344487

>  <BCUT_PEOE_0>
-2.5807619

>  <BCUT_PEOE_1>
-0.59943748

>  <BCUT_PEOE_2>
0.62104601

>  <BCUT_PEOE_3>
2.6226254

>  <BCUT_SLOGP_0>
-2.5819819

>  <BCUT_SLOGP_1>
-0.47996104

>  <BCUT_SLOGP_2>
0.70009953

>  <BCUT_SLOGP_3>
2.7180998

>  <BCUT_SMR_0>
-2.3381441

>  <BCUT_SMR_1>
-0.42104691

>  <BCUT_SMR_2>
0.82692099

>  <BCUT_SMR_3>
2.8902051

>  <bpol>
32.306175

>  <b_1rotN>
4

>  <b_1rotR>
0.11428571

>  <b_ar>
18

>  <b_count>
60

>  <b_double>
2

>  <b_heavy>
35

>  <b_max1len>
3

>  <b_rotN>
5

>  <b_rotR>
0.14285715

>  <b_single>
40

>  <b_triple>
0

>  <chi0>
22.827698

>  <chi0v>
18.81699

>  <chi0v_C>
15.472174

>  <chi0_C>
17.543242

>  <chi1>
15.346245

>  <chi1v>
10.997177

>  <chi1v_C>
8.5003414

>  <chi1_C>
11.145432

>  <chiral>
1

>  <chiral_u>
1

>  <density>
0.7465319

>  <diameter>
16

>  <FCharge>
0

>  <GCUT_PEOE_0>
-0.82434684

>  <GCUT_PEOE_1>
-0.39742243

>  <GCUT_PEOE_2>
0.081017457

>  <GCUT_PEOE_3>
2.7717705

>  <GCUT_SLOGP_0>
-0.99346757

>  <GCUT_SLOGP_1>
-0.30502489

>  <GCUT_SLOGP_2>
0.15421841

>  <GCUT_SLOGP_3>
2.8727708

>  <GCUT_SMR_0>
-0.52449948

>  <GCUT_SMR_1>
-0.20080033

>  <GCUT_SMR_2>
0.21436897

>  <GCUT_SMR_3>
3.059834

>  <Kier1>
25.103674

>  <Kier2>
11.16

>  <Kier3>
5.8142123

>  <KierA1>
18.907885

>  <KierA2>
8.3234777

>  <KierA3>
4.3064461

>  <KierFlex>
4.9181051

>  <lip_acc>
5

>  <lip_don>
2

>  <lip_druglike>
1

>  <lip_violation>
1

>  <logP(o/w)>
5.3959999

>  <logS>
-7.2244

>  <mr>
12.704585

>  <mutagenic>
0

>  <nmol>
1

>  <opr_brigid>
24

>  <opr_leadlike>
1

>  <opr_nring>
4

>  <opr_nrot>
5

>  <opr_violation>
1

>  <PC+>
0

>  <PC->
0

>  <PEOE_PC+>
2.3031034

>  <PEOE_PC->
-2.3031034

>  <PEOE_RPC+>
0.11252356

>  <PEOE_RPC->
0.1680833

>  <PEOE_VSA+0>
82.22187

>  <PEOE_VSA+1>
58.523727

>  <PEOE_VSA+2>
0

>  <PEOE_VSA+3>
8.6190128

>  <PEOE_VSA+4>
10.324173

>  <PEOE_VSA+5>
25.899061

>  <PEOE_VSA+6>
0

>  <PEOE_VSA-0>
145.0994

>  <PEOE_VSA-1>
66.346657

>  <PEOE_VSA-2>
0

>  <PEOE_VSA-3>
0

>  <PEOE_VSA-4>
0

>  <PEOE_VSA-5>
27.133842

>  <PEOE_VSA-6>
7.9044313

>  <PEOE_VSA_FHYD>
0.83507037

>  <PEOE_VSA_FNEG>
0.57047027

>  <PEOE_VSA_FPNEG>
0.081093565

>  <PEOE_VSA_FPOL>
0.16492964

>  <PEOE_VSA_FPOS>
0.42952976

>  <PEOE_VSA_FPPOS>
0.083836079

>  <PEOE_VSA_HYD>
360.81067

>  <PEOE_VSA_NEG>
246.48431

>  <PEOE_VSA_PNEG>
35.038273

>  <PEOE_VSA_POL>
71.261505

>  <PEOE_VSA_POS>
185.58784

>  <PEOE_VSA_PPOS>
36.223236

>  <petitjean>
0.5

>  <petitjeanSC>
1

>  <Q_PC+>
0

>  <Q_PC->
0

>  <Q_RPC+>
0

>  <Q_RPC->
0

>  <Q_VSA_FHYD>
1

>  <Q_VSA_FNEG>
0

>  <Q_VSA_FPNEG>
0

>  <Q_VSA_FPOL>
0

>  <Q_VSA_FPOS>
1

>  <Q_VSA_FPPOS>
0

>  <Q_VSA_HYD>
432.07217

>  <Q_VSA_NEG>
0

>  <Q_VSA_PNEG>
0

>  <Q_VSA_POL>
0

>  <Q_VSA_POS>
432.07217

>  <Q_VSA_PPOS>
0

>  <radius>
8

>  <reactive>
0

>  <rings>
4

>  <RPC+>
0

>  <RPC->
0

>  <rsynth>
1

>  <SlogP>
5.7786398

>  <SlogP_VSA0>
28.509541

>  <SlogP_VSA1>
28.528318

>  <SlogP_VSA2>
0

>  <SlogP_VSA3>
18.439579

>  <SlogP_VSA4>
63.652306

>  <SlogP_VSA5>
0

>  <SlogP_VSA6>
3.5006065

>  <SlogP_VSA7>
176.43184

>  <SlogP_VSA8>
44.20546

>  <SlogP_VSA9>
111.31417

>  <SMR>
12.77445

>  <SMR_VSA0>
47.724434

>  <SMR_VSA1>
25.385227

>  <SMR_VSA2>
3.1243138

>  <SMR_VSA3>
25.897131

>  <SMR_VSA4>
23.524246

>  <SMR_VSA5>
214.16866

>  <SMR_VSA6>
28.957146

>  <SMR_VSA7>
105.80067

>  <TPSA>
69.639999

>  <VAdjEq>
0.3597711

>  <VAdjMa>
6.129283

>  <VDistEq>
3.7538185

>  <VDistMa>
9.6898165

>  <vdw_area>
432.07217

>  <vdw_vol>
601.38086

>  <vsa_acc>
27.133842

>  <vsa_acid>
0

>  <vsa_base>
0

>  <vsa_don>
5.6825762

>  <vsa_hyd>
335.82034

>  <vsa_other>
25.899061

>  <vsa_pol>
46.383339

>  <Weight>
448.94998

>  <weinerPath>
3110

>  <weinerPol>
58

>  <zagreb>
170

$$$$