s1ccnc1NS(=O)(=O)c1ccc(N)cc1
  MOE2013           2D

 16 17  0  0  0  0  0  0  0  0999 V2000
    0.0000    0.0000    0.0000 S   0  0  0  0  0  0  0  0  0  0  0  0
   -1.3790    0.5900    0.0000 C   0  0  0  0  0  0  0  0  0  0  0  0
   -2.3660   -0.5400    0.0000 C   0  0  0  0  0  0  0  0  0  0  0  0
   -1.5970   -1.8270    0.0000 N   0  0  0  0  0  0  0  0  0  0  0  0
   -0.1350   -1.4940    0.0000 C   0  0  0  0  0  0  0  0  0  0  0  0
    0.9950   -2.4810    0.0000 N   0  0  0  0  0  0  0  0  0  0  0  0
    2.4140   -1.9960    0.0000 S   0  0  0  0  0  0  0  0  0  0  0  0
    1.9300   -0.5770    0.0000 O   0  0  0  0  0  0  0  0  0  0  0  0
    2.8990   -3.4160    0.0000 O   0  0  0  0  0  0  0  0  0  0  0  0
    3.8340   -1.5120    0.0000 C   0  0  0  0  0  0  0  0  0  0  0  0
    4.1240   -0.0400    0.0000 C   0  0  0  0  0  0  0  0  0  0  0  0
    5.5440    0.4440    0.0000 C   0  0  0  0  0  0  0  0  0  0  0  0
    6.6730   -0.5430    0.0000 C   0  0  0  0  0  0  0  0  0  0  0  0
    8.0930   -0.0580    0.0000 N   0  0  0  0  0  0  0  0  0  0  0  0
    6.3830   -2.0140    0.0000 C   0  0  0  0  0  0  0  0  0  0  0  0
    4.9630   -2.4990    0.0000 C   0  0  0  0  0  0  0  0  0  0  0  0
  1  2  1  0  0  0  0
  1  5  1  0  0  0  0
  2  3  2  0  0  0  0
  3  4  1  0  0  0  0
  4  5  2  0  0  0  0
  5  6  1  0  0  0  0
  6  7  1  0  0  0  0
  7  8  2  0  0  0  0
  7  9  2  0  0  0  0
  7 10  1  0  0  0  0
 10 11  1  0  0  0  0
 10 16  2  0  0  0  0
 11 12  2  0  0  0  0
 12 13  1  0  0  0  0
 13 14  1  0  0  0  0
 13 15  2  0  0  0  0
 15 16  1  0  0  0  0
M  END
>  <Index>
1023

>  <ID>
HT1953

>  <class>
0

>  <apol>
32.545135

>  <ast_fraglike>
1

>  <ast_fraglike_ext>
0

>  <ast_violation>
0

>  <ast_violation_ext>
1

>  <a_acc>
3

>  <a_acid>
0

>  <a_aro>
11

>  <a_base>
0

>  <a_count>
25

>  <a_don>
2

>  <a_donacc>
5

>  <a_heavy>
16

>  <a_hyd>
9

>  <a_IC>
50.282867

>  <a_ICM>
2.0113146

>  <a_nB>
0

>  <a_nBr>
0

>  <a_nC>
9

>  <a_nCl>
0

>  <a_nF>
0

>  <a_nH>
9

>  <a_nI>
0

>  <a_nN>
3

>  <a_nO>
2

>  <a_nP>
0

>  <a_nS>
2

>  <balabanJ>
1.8591998

>  <BCUT_PEOE_0>
-2.3076279

>  <BCUT_PEOE_1>
-0.62337828

>  <BCUT_PEOE_2>
0.72024971

>  <BCUT_PEOE_3>
2.4200051

>  <BCUT_SLOGP_0>
-2.4271312

>  <BCUT_SLOGP_1>
-0.53807992

>  <BCUT_SLOGP_2>
0.80591482

>  <BCUT_SLOGP_3>
2.4019685

>  <BCUT_SMR_0>
-1.9737382

>  <BCUT_SMR_1>
-0.49986199

>  <BCUT_SMR_2>
0.85431087

>  <BCUT_SMR_3>
2.7686341

>  <bpol>
19.914864

>  <b_1rotN>
3

>  <b_1rotR>
0.17647059

>  <b_ar>
11

>  <b_count>
26

>  <b_double>
0

>  <b_heavy>
17

>  <b_max1len>
3

>  <b_rotN>
3

>  <b_rotR>
0.17647059

>  <b_single>
15

>  <b_triple>
0

>  <chi0>
11.596012

>  <chi0v>
9.754652

>  <chi0v_C>
4.9641018

>  <chi0_C>
5.9746914

>  <chi1>
7.5773168

>  <chi1v>
6.7194057

>  <chi1v_C>
2.1547005

>  <chi1_C>
3.1329932

>  <chiral>
0

>  <chiral_u>
0

>  <density>
0.89963955

>  <diameter>
9

>  <FCharge>
0

>  <GCUT_PEOE_0>
-0.90091735

>  <GCUT_PEOE_1>
-0.3762739

>  <GCUT_PEOE_2>
0.093038157

>  <GCUT_PEOE_3>
2.2558458

>  <GCUT_SLOGP_0>
-1.3342885

>  <GCUT_SLOGP_1>
-0.39145926

>  <GCUT_SLOGP_2>
0.16445385

>  <GCUT_SLOGP_3>
2.3302343

>  <GCUT_SMR_0>
-0.40679166

>  <GCUT_SMR_1>
-0.20139489

>  <GCUT_SMR_2>
0.24614671

>  <GCUT_SMR_3>
2.5636992

>  <Kier1>
12.456747

>  <Kier2>
5.1041665

>  <Kier3>
3.25

>  <KierA1>
10.870436

>  <KierA2>
4.4109178

>  <KierA3>
2.7880661

>  <KierFlex>
2.9967875

>  <lip_acc>
5

>  <lip_don>
3

>  <lip_druglike>
1

>  <lip_violation>
0

>  <logP(o/w)>
0.96399999

>  <logS>
-2.23897

>  <mr>
6.4476399

>  <mutagenic>
1

>  <nmol>
1

>  <opr_brigid>
11

>  <opr_leadlike>
1

>  <opr_nring>
2

>  <opr_nrot>
2

>  <opr_violation>
0

>  <PC+>
0

>  <PC->
0

>  <PEOE_PC+>
1.4308296

>  <PEOE_PC->
-1.4308296

>  <PEOE_RPC+>
0.20931831

>  <PEOE_RPC->
0.31533533

>  <PEOE_VSA+0>
35.474747

>  <PEOE_VSA+1>
29.945944

>  <PEOE_VSA+2>
17.238026

>  <PEOE_VSA+3>
29.866226

>  <PEOE_VSA+4>
0

>  <PEOE_VSA+5>
4.1846013

>  <PEOE_VSA+6>
0

>  <PEOE_VSA-0>
37.676434

>  <PEOE_VSA-1>
16.745916

>  <PEOE_VSA-2>
48.777012

>  <PEOE_VSA-3>
0

>  <PEOE_VSA-4>
0

>  <PEOE_VSA-5>
0

>  <PEOE_VSA-6>
12.333695

>  <PEOE_VSA_FHYD>
0.92887479

>  <PEOE_VSA_FNEG>
0.4974671

>  <PEOE_VSA_FPNEG>
0.053106949

>  <PEOE_VSA_FPOL>
0.07112518

>  <PEOE_VSA_FPOS>
0.5025329

>  <PEOE_VSA_FPPOS>
0.018018233

>  <PEOE_VSA_HYD>
215.7243

>  <PEOE_VSA_NEG>
115.53305

>  <PEOE_VSA_PNEG>
12.333695

>  <PEOE_VSA_POL>
16.518297

>  <PEOE_VSA_POS>
116.70954

>  <PEOE_VSA_PPOS>
4.1846013

>  <petitjean>
0.44444445

>  <petitjeanSC>
0.80000001

>  <Q_PC+>
0

>  <Q_PC->
0

>  <Q_RPC+>
0

>  <Q_RPC->
0

>  <Q_VSA_FHYD>
1

>  <Q_VSA_FNEG>
0

>  <Q_VSA_FPNEG>
0

>  <Q_VSA_FPOL>
0

>  <Q_VSA_FPOS>
1

>  <Q_VSA_FPPOS>
0

>  <Q_VSA_HYD>
232.2426

>  <Q_VSA_NEG>
0

>  <Q_VSA_PNEG>
0

>  <Q_VSA_POL>
0

>  <Q_VSA_POS>
232.2426

>  <Q_VSA_PPOS>
0

>  <radius>
5

>  <reactive>
0

>  <rings>
2

>  <RPC+>
0

>  <RPC->
0

>  <rsynth>
1

>  <SlogP>
1.5261

>  <SlogP_VSA0>
32.897186

>  <SlogP_VSA1>
81.362213

>  <SlogP_VSA2>
6.6407428

>  <SlogP_VSA3>
0

>  <SlogP_VSA4>
0

>  <SlogP_VSA5>
1.5507339

>  <SlogP_VSA6>
0

>  <SlogP_VSA7>
103.6031

>  <SlogP_VSA8>
0

>  <SlogP_VSA9>
34.535183

>  <SMR>
6.3776898

>  <SMR_VSA0>
48.171688

>  <SMR_VSA1>
16.78553

>  <SMR_VSA2>
1.5507339

>  <SMR_VSA3>
0

>  <SMR_VSA4>
19.662491

>  <SMR_VSA5>
136.50029

>  <SMR_VSA6>
0

>  <SMR_VSA7>
37.91843

>  <TPSA>
85.080002

>  <VAdjEq>
0.56510133

>  <VAdjMa>
5.0874629

>  <VDistEq>
2.9261055

>  <VDistMa>
7.6877379

>  <vdw_area>
232.2426

>  <vdw_vol>
283.80478

>  <vsa_acc>
37.6991

>  <vsa_acid>
0

>  <vsa_base>
0

>  <vsa_don>
25.817696

>  <vsa_hyd>
131.96281

>  <vsa_other>
23.272232

>  <vsa_pol>
63.516796

>  <Weight>
255.32201

>  <weinerPath>
448

>  <weinerPol>
20

>  <zagreb>
82

$$$$