O(C(=O)c1ccccc1O)C1CC(CC(C1)C)(C)C
  MOE2013           2D

 19 20  0  0  1  0  0  0  0  0999 V2000
    0.0000    0.0000    0.0000 O   0  0  0  0  0  0  0  0  0  0  0  0
   -1.2940    0.7580    0.0000 C   0  0  0  0  0  0  0  0  0  0  0  0
   -1.2850    2.2580    0.0000 O   0  0  0  0  0  0  0  0  0  0  0  0
   -2.5980    0.0160    0.0000 C   0  0  0  0  0  0  0  0  0  0  0  0
   -2.6070   -1.4840    0.0000 C   0  0  0  0  0  0  0  0  0  0  0  0
   -3.9110   -2.2260    0.0000 C   0  0  0  0  0  0  0  0  0  0  0  0
   -5.2050   -1.4690    0.0000 C   0  0  0  0  0  0  0  0  0  0  0  0
   -5.1960    0.0310    0.0000 C   0  0  0  0  0  0  0  0  0  0  0  0
   -3.8930    0.7740    0.0000 C   0  0  0  0  0  0  0  0  0  0  0  0
   -3.8830    2.2740    0.0000 O   0  0  0  0  0  0  0  0  0  0  0  0
    1.3040    0.7420    0.0000 C   0  0  3  0  0  0  0  0  0  0  0  0
    2.5980   -0.0160    0.0000 C   0  0  0  0  0  0  0  0  0  0  0  0
    3.9020    0.7260    0.0000 C   0  0  0  0  0  0  0  0  0  0  0  0
    3.9110    2.2260    0.0000 C   0  0  0  0  0  0  0  0  0  0  0  0
    2.6160    2.9840    0.0000 C   0  0  3  0  0  0  0  0  0  0  0  0
    1.3130    2.2420    0.0000 C   0  0  0  0  0  0  0  0  0  0  0  0
    2.6250    4.4840    0.0000 C   0  0  0  0  0  0  0  0  0  0  0  0
    4.6440   -0.5770    0.0000 C   0  0  0  0  0  0  0  0  0  0  0  0
    5.4020    0.7170    0.0000 C   0  0  0  0  0  0  0  0  0  0  0  0
  1  2  1  0  0  0  0
  1 11  1  0  0  0  0
  2  3  2  0  0  0  0
  2  4  1  0  0  0  0
  4  5  1  0  0  0  0
  4  9  2  0  0  0  0
  5  6  2  0  0  0  0
  6  7  1  0  0  0  0
  7  8  2  0  0  0  0
  8  9  1  0  0  0  0
  9 10  1  0  0  0  0
 11 12  1  0  0  0  0
 11 16  1  0  0  0  0
 12 13  1  0  0  0  0
 13 14  1  0  0  0  0
 13 18  1  0  0  0  0
 13 19  1  0  0  0  0
 14 15  1  0  0  0  0
 15 16  1  0  0  0  0
 15 17  1  0  0  0  0
M  END
>  <Index>
1297

>  <ID>
HT3160

>  <class>
0

>  <apol>
45.235447

>  <ast_fraglike>
0

>  <ast_fraglike_ext>
0

>  <ast_violation>
1

>  <ast_violation_ext>
2

>  <a_acc>
2

>  <a_acid>
0

>  <a_aro>
6

>  <a_base>
0

>  <a_count>
41

>  <a_don>
1

>  <a_donacc>
3

>  <a_heavy>
19

>  <a_hyd>
15

>  <a_IC>
52.797249

>  <a_ICM>
1.2877377

>  <a_nB>
0

>  <a_nBr>
0

>  <a_nC>
16

>  <a_nCl>
0

>  <a_nF>
0

>  <a_nH>
22

>  <a_nI>
0

>  <a_nN>
0

>  <a_nO>
3

>  <a_nP>
0

>  <a_nS>
0

>  <balabanJ>
1.8918391

>  <BCUT_PEOE_0>
-2.8555658

>  <BCUT_PEOE_1>
-0.43743873

>  <BCUT_PEOE_2>
0.5092482

>  <BCUT_PEOE_3>
2.8141742

>  <BCUT_SLOGP_0>
-2.7773836

>  <BCUT_SLOGP_1>
-0.34143114

>  <BCUT_SLOGP_2>
0.562962

>  <BCUT_SLOGP_3>
2.9029512

>  <BCUT_SMR_0>
-2.6083012

>  <BCUT_SMR_1>
-0.29647726

>  <BCUT_SMR_2>
0.63937247

>  <BCUT_SMR_3>
3.061204

>  <bpol>
26.924555

>  <b_1rotN>
2

>  <b_1rotR>
0.1

>  <b_ar>
6

>  <b_count>
42

>  <b_double>
1

>  <b_heavy>
20

>  <b_max1len>
4

>  <b_rotN>
3

>  <b_rotR>
0.15000001

>  <b_single>
35

>  <b_triple>
0

>  <chi0>
14.043606

>  <chi0v>
11.849133

>  <chi0v_C>
10.585422

>  <chi0_C>
11.336499

>  <chi1>
8.8718109

>  <chi1v>
6.8623576

>  <chi1v_C>
5.9948006

>  <chi1_C>
6.9006133

>  <chiral>
2

>  <chiral_u>
2

>  <density>
0.69106847

>  <diameter>
9

>  <FCharge>
0

>  <GCUT_PEOE_0>
-0.79870653

>  <GCUT_PEOE_1>
-0.33047235

>  <GCUT_PEOE_2>
0.031238949

>  <GCUT_PEOE_3>
2.7784219

>  <GCUT_SLOGP_0>
-0.83360249

>  <GCUT_SLOGP_1>
-0.21437876

>  <GCUT_SLOGP_2>
0.080863491

>  <GCUT_SLOGP_3>
2.8674502

>  <GCUT_SMR_0>
-0.53202182

>  <GCUT_SMR_1>
-0.16429709

>  <GCUT_SMR_2>
0.1377293

>  <GCUT_SMR_3>
3.0023284

>  <Kier1>
15.39

>  <Kier2>
6.1854935

>  <Kier3>
4.2314048

>  <KierA1>
12.825631

>  <KierA2>
5.0990644

>  <KierA3>
3.458678

>  <KierFlex>
3.4420376

>  <lip_acc>
3

>  <lip_don>
1

>  <lip_druglike>
1

>  <lip_violation>
0

>  <logP(o/w)>
4.631

>  <logS>
-4.4214602

>  <mr>
7.5104203

>  <mutagenic>
0

>  <nmol>
1

>  <opr_brigid>
12

>  <opr_leadlike>
1

>  <opr_nring>
2

>  <opr_nrot>
4

>  <opr_violation>
0

>  <PC+>
0

>  <PC->
0

>  <PEOE_PC+>
1.4682688

>  <PEOE_PC->
-1.4682688

>  <PEOE_RPC+>
0.20198047

>  <PEOE_RPC->
0.24454175

>  <PEOE_VSA+0>
68.246178

>  <PEOE_VSA+1>
36.898918

>  <PEOE_VSA+2>
0

>  <PEOE_VSA+3>
0

>  <PEOE_VSA+4>
10.324173

>  <PEOE_VSA+5>
14.708499

>  <PEOE_VSA+6>
0

>  <PEOE_VSA-0>
50.613747

>  <PEOE_VSA-1>
80.752838

>  <PEOE_VSA-2>
0

>  <PEOE_VSA-3>
0

>  <PEOE_VSA-4>
0

>  <PEOE_VSA-5>
13.566921

>  <PEOE_VSA-6>
10.271297

>  <PEOE_VSA_FHYD>
0.82875305

>  <PEOE_VSA_FNEG>
0.54384822

>  <PEOE_VSA_FPNEG>
0.083530739

>  <PEOE_VSA_FPOL>
0.17124693

>  <PEOE_VSA_FPOS>
0.45615178

>  <PEOE_VSA_FPPOS>
0.087716192

>  <PEOE_VSA_HYD>
236.51169

>  <PEOE_VSA_NEG>
155.2048

>  <PEOE_VSA_PNEG>
23.838217

>  <PEOE_VSA_POL>
48.870888

>  <PEOE_VSA_POS>
130.17776

>  <PEOE_VSA_PPOS>
25.032671

>  <petitjean>
0.44444445

>  <petitjeanSC>
0.80000001

>  <Q_PC+>
0

>  <Q_PC->
0

>  <Q_RPC+>
0

>  <Q_RPC->
0

>  <Q_VSA_FHYD>
1

>  <Q_VSA_FNEG>
0

>  <Q_VSA_FPNEG>
0

>  <Q_VSA_FPOL>
0

>  <Q_VSA_FPOS>
1

>  <Q_VSA_FPPOS>
0

>  <Q_VSA_HYD>
285.38257

>  <Q_VSA_NEG>
0

>  <Q_VSA_PNEG>
0

>  <Q_VSA_POL>
0

>  <Q_VSA_POS>
285.38257

>  <Q_VSA_PPOS>
0

>  <radius>
5

>  <reactive>
0

>  <rings>
2

>  <RPC+>
0

>  <RPC->
0

>  <rsynth>
1

>  <SlogP>
3.7637999

>  <SlogP_VSA0>
25.385227

>  <SlogP_VSA1>
7.7454643

>  <SlogP_VSA2>
17.468536

>  <SlogP_VSA3>
0

>  <SlogP_VSA4>
31.458588

>  <SlogP_VSA5>
0

>  <SlogP_VSA6>
0

>  <SlogP_VSA7>
70.572739

>  <SlogP_VSA8>
56.605217

>  <SlogP_VSA9>
105.22147

>  <SMR>
7.4106302

>  <SMR_VSA0>
34.862103

>  <SMR_VSA1>
25.385227

>  <SMR_VSA2>
4.4107962

>  <SMR_VSA3>
14.897653

>  <SMR_VSA4>
0

>  <SMR_VSA5>
127.17796

>  <SMR_VSA6>
7.7454643

>  <SMR_VSA7>
99.978043

>  <TPSA>
46.529999

>  <VAdjEq>
0.5023343

>  <VAdjMa>
5.321928

>  <VDistEq>
3.047684

>  <VDistMa>
8.1995773

>  <vdw_area>
285.38257

>  <vdw_vol>
379.62808

>  <vsa_acc>
13.566921

>  <vsa_acid>
0

>  <vsa_base>
0

>  <vsa_don>
0

>  <vsa_hyd>
220.21893

>  <vsa_other>
17.212255

>  <vsa_pol>
27.133842

>  <Weight>
262.349

>  <weinerPath>
718

>  <weinerPol>
27

>  <zagreb>
98

$$$$