O(C(=O)C1(CCCN(CC1)C)c1ccccc1)CC
  MOE2013           2D

 19 20  0  0  1  0  0  0  0  0999 V2000
    0.0000    0.0000    0.0000 O   0  0  0  0  0  0  0  0  0  0  0  0
    1.5000   -0.0070    0.0000 C   0  0  0  0  0  0  0  0  0  0  0  0
    2.2440   -1.3100    0.0000 O   0  0  0  0  0  0  0  0  0  0  0  0
    2.2560    1.2880    0.0000 C   0  0  3  0  0  0  0  0  0  0  0  0
    2.6690    2.7300    0.0000 C   0  0  0  0  0  0  0  0  0  0  0  0
    4.0540    3.3050    0.0000 C   0  0  0  0  0  0  0  0  0  0  0  0
    5.3680    2.5810    0.0000 C   0  0  0  0  0  0  0  0  0  0  0  0
    5.6220    1.1030    0.0000 N   0  0  3  0  0  0  0  0  0  0  0  0
    4.6240   -0.0170    0.0000 C   0  0  0  0  0  0  0  0  0  0  0  0
    3.1260    0.0660    0.0000 C   0  0  0  0  0  0  0  0  0  0  0  0
    7.0640    0.6890    0.0000 C   0  0  0  0  0  0  0  0  0  0  0  0
    0.9250    1.9790    0.0000 C   0  0  0  0  0  0  0  0  0  0  0  0
   -0.4600    1.4030    0.0000 C   0  0  0  0  0  0  0  0  0  0  0  0
   -1.6510    2.3150    0.0000 C   0  0  0  0  0  0  0  0  0  0  0  0
   -1.4570    3.8020    0.0000 C   0  0  0  0  0  0  0  0  0  0  0  0
   -0.0720    4.3780    0.0000 C   0  0  0  0  0  0  0  0  0  0  0  0
    1.1190    3.4660    0.0000 C   0  0  0  0  0  0  0  0  0  0  0  0
   -0.7560   -1.2950    0.0000 C   0  0  0  0  0  0  0  0  0  0  0  0
   -2.2560   -1.2880    0.0000 C   0  0  0  0  0  0  0  0  0  0  0  0
  1  2  1  0  0  0  0
  1 18  1  0  0  0  0
  2  3  2  0  0  0  0
  2  4  1  0  0  0  0
  4  5  1  0  0  0  0
  4 10  1  0  0  0  0
  4 12  1  0  0  0  0
  5  6  1  0  0  0  0
  6  7  1  0  0  0  0
  7  8  1  0  0  0  0
  8  9  1  0  0  0  0
  8 11  1  0  0  0  0
  9 10  1  0  0  0  0
 12 13  1  0  0  0  0
 12 17  2  0  0  0  0
 13 14  2  0  0  0  0
 14 15  1  0  0  0  0
 15 16  2  0  0  0  0
 16 17  1  0  0  0  0
 18 19  1  0  0  0  0
M  END
>  <Index>
1295

>  <ID>
HT3154

>  <class>
0

>  <apol>
46.200237

>  <ast_fraglike>
1

>  <ast_fraglike_ext>
0

>  <ast_violation>
0

>  <ast_violation_ext>
1

>  <a_acc>
2

>  <a_acid>
0

>  <a_aro>
6

>  <a_base>
0

>  <a_count>
42

>  <a_don>
0

>  <a_donacc>
2

>  <a_heavy>
19

>  <a_hyd>
15

>  <a_IC>
56.435406

>  <a_ICM>
1.3437002

>  <a_nB>
0

>  <a_nBr>
0

>  <a_nC>
16

>  <a_nCl>
0

>  <a_nF>
0

>  <a_nH>
23

>  <a_nI>
0

>  <a_nN>
1

>  <a_nO>
2

>  <a_nP>
0

>  <a_nS>
0

>  <balabanJ>
2.1536014

>  <BCUT_PEOE_0>
-2.6354067

>  <BCUT_PEOE_1>
-0.41224745

>  <BCUT_PEOE_2>
0.43634945

>  <BCUT_PEOE_3>
2.7454512

>  <BCUT_SLOGP_0>
-2.6934879

>  <BCUT_SLOGP_1>
-0.33642361

>  <BCUT_SLOGP_2>
0.5056684

>  <BCUT_SLOGP_3>
2.755182

>  <BCUT_SMR_0>
-2.3956194

>  <BCUT_SMR_1>
-0.25583264

>  <BCUT_SMR_2>
0.59588784

>  <BCUT_SMR_3>
2.995616

>  <bpol>
29.997761

>  <b_1rotN>
3

>  <b_1rotR>
0.15000001

>  <b_ar>
6

>  <b_count>
43

>  <b_double>
1

>  <b_heavy>
20

>  <b_max1len>
3

>  <b_rotN>
4

>  <b_rotR>
0.2

>  <b_single>
36

>  <b_triple>
0

>  <chi0>
13.717332

>  <chi0v>
11.893103

>  <chi0v_C>
10.629392

>  <chi0_C>
11.432875

>  <chi1>
9.1875057

>  <chi1v>
7.1014895

>  <chi1v_C>
5.3248973

>  <chi1_C>
6.3080606

>  <chiral>
1

>  <chiral_u>
1

>  <density>
0.67187434

>  <diameter>
8

>  <FCharge>
0

>  <GCUT_PEOE_0>
-0.86097139

>  <GCUT_PEOE_1>
-0.38022229

>  <GCUT_PEOE_2>
-0.037341155

>  <GCUT_PEOE_3>
2.816864

>  <GCUT_SLOGP_0>
-0.95272082

>  <GCUT_SLOGP_1>
-0.26872855

>  <GCUT_SLOGP_2>
0.02899847

>  <GCUT_SLOGP_3>
2.8517444

>  <GCUT_SMR_0>
-0.52486461

>  <GCUT_SMR_1>
-0.17012131

>  <GCUT_SMR_2>
0.10236622

>  <GCUT_SMR_3>
3.0573981

>  <Kier1>
15.39

>  <Kier2>
7.1358023

>  <Kier3>
3.5555556

>  <KierA1>
12.825631

>  <KierA2>
5.8824596

>  <KierA3>
2.9062502

>  <KierFlex>
3.9708555

>  <lip_acc>
3

>  <lip_don>
0

>  <lip_druglike>
1

>  <lip_violation>
0

>  <logP(o/w)>
3.477

>  <logS>
-2.5564499

>  <mr>
7.7734218

>  <mutagenic>
0

>  <nmol>
1

>  <opr_brigid>
13

>  <opr_leadlike>
1

>  <opr_nring>
2

>  <opr_nrot>
6

>  <opr_violation>
0

>  <PC+>
0

>  <PC->
0

>  <PEOE_PC+>
1.364169

>  <PEOE_PC->
-1.364169

>  <PEOE_RPC+>
0.19996215

>  <PEOE_RPC->
0.2307677

>  <PEOE_VSA+0>
68.246178

>  <PEOE_VSA+1>
44.808994

>  <PEOE_VSA+2>
0

>  <PEOE_VSA+3>
0

>  <PEOE_VSA+4>
0

>  <PEOE_VSA+5>
14.708499

>  <PEOE_VSA+6>
0

>  <PEOE_VSA-0>
96.683495

>  <PEOE_VSA-1>
61.274521

>  <PEOE_VSA-2>
0

>  <PEOE_VSA-3>
0

>  <PEOE_VSA-4>
0

>  <PEOE_VSA-5>
13.566921

>  <PEOE_VSA-6>
2.503756

>  <PEOE_VSA_FHYD>
0.8980121

>  <PEOE_VSA_FNEG>
0.57665044

>  <PEOE_VSA_FPNEG>
0.053250775

>  <PEOE_VSA_FPOL>
0.10198792

>  <PEOE_VSA_FPOS>
0.42334959

>  <PEOE_VSA_FPPOS>
0.04873715

>  <PEOE_VSA_HYD>
271.01318

>  <PEOE_VSA_NEG>
174.02869

>  <PEOE_VSA_PNEG>
16.070677

>  <PEOE_VSA_POL>
30.779177

>  <PEOE_VSA_POS>
127.76367

>  <PEOE_VSA_PPOS>
14.708499

>  <petitjean>
0.5

>  <petitjeanSC>
1

>  <Q_PC+>
0

>  <Q_PC->
0

>  <Q_RPC+>
0

>  <Q_RPC->
0

>  <Q_VSA_FHYD>
1

>  <Q_VSA_FNEG>
0

>  <Q_VSA_FPNEG>
0

>  <Q_VSA_FPOL>
0

>  <Q_VSA_FPOS>
1

>  <Q_VSA_FPPOS>
0

>  <Q_VSA_HYD>
301.79236

>  <Q_VSA_NEG>
0

>  <Q_VSA_PNEG>
0

>  <Q_VSA_POL>
0

>  <Q_VSA_POS>
301.79236

>  <Q_VSA_PPOS>
0

>  <radius>
4

>  <reactive>
0

>  <rings>
2

>  <RPC+>
0

>  <RPC->
0

>  <rsynth>
0.47368422

>  <SlogP>
2.6032

>  <SlogP_VSA0>
0

>  <SlogP_VSA1>
10.869778

>  <SlogP_VSA2>
34.862103

>  <SlogP_VSA3>
57.805416

>  <SlogP_VSA4>
3.185575

>  <SlogP_VSA5>
32.897186

>  <SlogP_VSA6>
0

>  <SlogP_VSA7>
88.215919

>  <SlogP_VSA8>
56.605217

>  <SlogP_VSA9>
33.326015

>  <SMR>
7.6100998

>  <SMR_VSA0>
34.862103

>  <SMR_VSA1>
3.1243138

>  <SMR_VSA2>
0

>  <SMR_VSA3>
3.185575

>  <SMR_VSA4>
0

>  <SMR_VSA5>
144.82114

>  <SMR_VSA6>
65.55088

>  <SMR_VSA7>
66.223206

>  <TPSA>
29.540001

>  <VAdjEq>
0.5023343

>  <VAdjMa>
5.321928

>  <VDistEq>
2.8125255

>  <VDistMa>
8.2438173

>  <vdw_area>
301.79236

>  <vdw_vol>
389.00876

>  <vsa_acc>
13.566921

>  <vsa_acid>
0

>  <vsa_base>
0

>  <vsa_don>
0

>  <vsa_hyd>
254.64189

>  <vsa_other>
17.212255

>  <vsa_pol>
13.566921

>  <Weight>
261.36499

>  <weinerPath>
647

>  <weinerPol>
33

>  <zagreb>
94

$$$$