Brc1[nH]c2c3c1C[C@H]1N(C[C@@H](C=C1c3ccc2)C(=O)N[C@@]1(O[C@]2(O)N([C@@H](CC(C)C)C(=O)N3[C@H]2CCC3)C1=O)C(C)C)C
  MOE2013           2D

 43 49  0  0  1  0  0  0  0  0999 V2000
    0.0000    0.0000    0.0000 Br  0  0  0  0  0  0  0  0  0  0  0  0
   -0.9920    1.1260    0.0000 C   0  0  0  0  0  0  0  0  0  0  0  0
   -0.6970    2.9680    0.0000 N   0  0  0  0  0  0  0  0  0  0  0  0
   -2.0740    3.5860    0.0000 C   0  0  0  0  0  0  0  0  0  0  0  0
   -3.0070    2.4530    0.0000 C   0  0  0  0  0  0  0  0  0  0  0  0
   -2.4880    1.0780    0.0000 C   0  0  0  0  0  0  0  0  0  0  0  0
   -3.4190   -0.0520    0.0000 C   0  0  0  0  0  0  0  0  0  0  0  0
   -4.8660    0.1860    0.0000 C   0  0  1  0  0  0  0  0  0  0  0  0
   -5.7990   -0.9830    0.0000 N   0  0  3  0  0  0  0  0  0  0  0  0
   -7.2810   -0.7510    0.0000 C   0  0  0  0  0  0  0  0  0  0  0  0
   -7.8210    0.6470    0.0000 C   0  0  1  0  0  0  0  0  0  0  0  0
   -6.8790    1.8150    0.0000 C   0  0  0  0  0  0  0  0  0  0  0  0
   -5.3780    1.5570    0.0000 C   0  0  0  0  0  0  0  0  0  0  0  0
   -4.4540    2.6940    0.0000 C   0  0  0  0  0  0  0  0  0  0  0  0
   -4.9660    4.0630    0.0000 C   0  0  0  0  0  0  0  0  0  0  0  0
   -4.0450    5.1980    0.0000 C   0  0  0  0  0  0  0  0  0  0  0  0
   -2.5940    4.9620    0.0000 C   0  0  0  0  0  0  0  0  0  0  0  0
   -9.3030    0.8790    0.0000 C   0  0  0  0  0  0  0  0  0  0  0  0
   -9.8430    2.2780    0.0000 O   0  0  0  0  0  0  0  0  0  0  0  0
  -10.2440   -0.2890    0.0000 N   0  0  0  0  0  0  0  0  0  0  0  0
  -11.7260   -0.0580    0.0000 C   0  0  2  0  0  0  0  0  0  0  0  0
  -11.5730    1.4340    0.0000 O   0  0  0  0  0  0  0  0  0  0  0  0
  -12.9440    2.0410    0.0000 C   0  0  2  0  0  0  0  0  0  0  0  0
  -11.7970    3.0080    0.0000 O   0  0  0  0  0  0  0  0  0  0  0  0
  -13.9460    0.9240    0.0000 N   0  0  0  0  0  0  0  0  0  0  0  0
  -15.4130    1.2330    0.0000 C   0  0  1  0  0  0  0  0  0  0  0  0
  -16.4150    0.1160    0.0000 C   0  0  0  0  0  0  0  0  0  0  0  0
  -17.8830    0.4240    0.0000 C   0  0  0  0  0  0  0  0  0  0  0  0
  -18.8840   -0.6920    0.0000 C   0  0  0  0  0  0  0  0  0  0  0  0
  -18.3490    1.8500    0.0000 C   0  0  0  0  0  0  0  0  0  0  0  0
  -15.8800    2.6580    0.0000 C   0  0  0  0  0  0  0  0  0  0  0  0
  -17.3480    2.9670    0.0000 O   0  0  0  0  0  0  0  0  0  0  0  0
  -14.8790    3.7750    0.0000 N   0  0  0  0  0  0  0  0  0  0  0  0
  -13.4110    3.4670    0.0000 C   0  0  1  0  0  0  0  0  0  0  0  0
  -12.6640    4.7680    0.0000 C   0  0  0  0  0  0  0  0  0  0  0  0
  -13.6700    5.8800    0.0000 C   0  0  0  0  0  0  0  0  0  0  0  0
  -15.0390    5.2670    0.0000 C   0  0  0  0  0  0  0  0  0  0  0  0
  -13.1930   -0.3730    0.0000 C   0  0  0  0  0  0  0  0  0  0  0  0
  -13.8000   -1.7450    0.0000 O   0  0  0  0  0  0  0  0  0  0  0  0
  -11.2350   -1.4750    0.0000 C   0  0  0  0  0  0  0  0  0  0  0  0
   -9.7620   -1.7580    0.0000 C   0  0  0  0  0  0  0  0  0  0  0  0
  -12.2160   -2.6090    0.0000 C   0  0  0  0  0  0  0  0  0  0  0  0
   -5.2540   -2.3800    0.0000 C   0  0  0  0  0  0  0  0  0  0  0  0
  1  2  1  0  0  0  0
  2  3  1  0  0  0  0
  2  6  2  0  0  0  0
  3  4  1  0  0  0  0
  4  5  2  0  0  0  0
  4 17  1  0  0  0  0
  5  6  1  0  0  0  0
  5 14  1  0  0  0  0
  6  7  1  0  0  0  0
  8  7  1  1  0  0  0
  8  9  1  0  0  0  0
  8 13  1  0  0  0  0
  9 10  1  0  0  0  0
  9 43  1  0  0  0  0
 10 11  1  0  0  0  0
 11 12  1  0  0  0  0
 11 18  1  6  0  0  0
 12 13  2  0  0  0  0
 13 14  1  0  0  0  0
 14 15  2  0  0  0  0
 15 16  1  0  0  0  0
 16 17  2  0  0  0  0
 18 19  2  0  0  0  0
 18 20  1  0  0  0  0
 21 20  1  1  0  0  0
 21 22  1  0  0  0  0
 21 38  1  0  0  0  0
 21 40  1  6  0  0  0
 22 23  1  0  0  0  0
 23 24  1  1  0  0  0
 23 25  1  0  0  0  0
 23 34  1  0  0  0  0
 25 26  1  0  0  0  0
 25 38  1  0  0  0  0
 26 27  1  1  0  0  0
 26 31  1  0  0  0  0
 27 28  1  0  0  0  0
 28 29  1  0  0  0  0
 28 30  1  0  0  0  0
 31 32  2  0  0  0  0
 31 33  1  0  0  0  0
 33 34  1  0  0  0  0
 33 37  1  0  0  0  0
 34 35  1  1  0  0  0
 35 36  1  0  0  0  0
 36 37  1  0  0  0  0
 38 39  2  0  0  0  0
 40 41  1  0  0  0  0
 40 42  1  0  0  0  0
M  END
>  <Index>
158

>  <ID>
HT0310

>  <class>
0

>  <apol>
95.55172

>  <ast_fraglike>
0

>  <ast_fraglike_ext>
0

>  <ast_violation>
3

>  <ast_violation_ext>
5

>  <a_acc>
6

>  <a_acid>
0

>  <a_aro>
9

>  <a_base>
0

>  <a_count>
83

>  <a_don>
3

>  <a_donacc>
9

>  <a_heavy>
43

>  <a_hyd>
27

>  <a_IC>
133.03188

>  <a_ICM>
1.6027936

>  <a_nB>
0

>  <a_nBr>
1

>  <a_nC>
32

>  <a_nCl>
0

>  <a_nF>
0

>  <a_nH>
40

>  <a_nI>
0

>  <a_nN>
5

>  <a_nO>
5

>  <a_nP>
0

>  <a_nS>
0

>  <balabanJ>
1.151428

>  <BCUT_PEOE_0>
-2.7203164

>  <BCUT_PEOE_1>
-0.54753286

>  <BCUT_PEOE_2>
0.58121163

>  <BCUT_PEOE_3>
2.8865144

>  <BCUT_SLOGP_0>
-2.8728044

>  <BCUT_SLOGP_1>
-0.47253177

>  <BCUT_SLOGP_2>
0.5346145

>  <BCUT_SLOGP_3>
2.7732677

>  <BCUT_SMR_0>
-2.482374

>  <BCUT_SMR_1>
-0.35848182

>  <BCUT_SMR_2>
0.74246675

>  <BCUT_SMR_3>
3.1097176

>  <bpol>
57.068279

>  <b_1rotN>
5

>  <b_1rotR>
0.10204082

>  <b_ar>
10

>  <b_count>
89

>  <b_double>
4

>  <b_heavy>
49

>  <b_max1len>
5

>  <b_rotN>
6

>  <b_rotR>
0.12244898

>  <b_single>
75

>  <b_triple>
0

>  <chi0>
30.584694

>  <chi0v>
26.901953

>  <chi0v_C>
20.516144

>  <chi0_C>
21.731321

>  <chi1>
20.36857

>  <chi1v>
16.264891

>  <chi1v_C>
10.513597

>  <chi1_C>
11.924576

>  <chiral>
6

>  <chiral_u>
0

>  <density>
0.8113215

>  <diameter>
16

>  <FCharge>
0

>  <GCUT_PEOE_0>
-0.84952515

>  <GCUT_PEOE_1>
-0.40857688

>  <GCUT_PEOE_2>
0.046593249

>  <GCUT_PEOE_3>
3.2792797

>  <GCUT_SLOGP_0>
-1.1639259

>  <GCUT_SLOGP_1>
-0.32188463

>  <GCUT_SLOGP_2>
0.058313772

>  <GCUT_SLOGP_3>
3.2352631

>  <GCUT_SMR_0>
-0.53656334

>  <GCUT_SMR_1>
-0.20862782

>  <GCUT_SMR_2>
0.16869709

>  <GCUT_SMR_3>
3.5146177

>  <Kier1>
31.591837

>  <Kier2>
11.312611

>  <Kier3>
4.7454276

>  <KierA1>
27.118015

>  <KierA2>
9.6738281

>  <KierA3>
4.04704

>  <KierFlex>
6.1008143

>  <lip_acc>
10

>  <lip_don>
3

>  <lip_druglike>
1

>  <lip_violation>
1

>  <logP(o/w)>
5.0999999

>  <logS>
-7.10642

>  <mr>
16.361883

>  <mutagenic>
0

>  <nmol>
1

>  <opr_brigid>
33

>  <opr_leadlike>
0

>  <opr_nring>
7

>  <opr_nrot>
5

>  <opr_violation>
3

>  <PC+>
0

>  <PC->
0

>  <PEOE_PC+>
3.6901617

>  <PEOE_PC->
-3.6901617

>  <PEOE_RPC+>
0.076263748

>  <PEOE_RPC->
0.09451063

>  <PEOE_VSA+0>
166.40028

>  <PEOE_VSA+1>
36.600922

>  <PEOE_VSA+2>
6.2919211

>  <PEOE_VSA+3>
17.238026

>  <PEOE_VSA+4>
36.223236

>  <PEOE_VSA+5>
18.549088

>  <PEOE_VSA+6>
0

>  <PEOE_VSA-0>
120.54932

>  <PEOE_VSA-1>
111.75542

>  <PEOE_VSA-2>
0

>  <PEOE_VSA-3>
0

>  <PEOE_VSA-4>
0

>  <PEOE_VSA-5>
43.204517

>  <PEOE_VSA-6>
8.0413227

>  <PEOE_VSA_FHYD>
0.81230873

>  <PEOE_VSA_FNEG>
0.50198913

>  <PEOE_VSA_FPNEG>
0.090724036

>  <PEOE_VSA_FPOL>
0.18769126

>  <PEOE_VSA_FPOS>
0.4980109

>  <PEOE_VSA_FPPOS>
0.096967213

>  <PEOE_VSA_HYD>
458.83588

>  <PEOE_VSA_NEG>
283.55057

>  <PEOE_VSA_PNEG>
51.245842

>  <PEOE_VSA_POL>
106.01817

>  <PEOE_VSA_POS>
281.30347

>  <PEOE_VSA_PPOS>
54.77232

>  <petitjean>
0.5

>  <petitjeanSC>
1

>  <Q_PC+>
0

>  <Q_PC->
0

>  <Q_RPC+>
0

>  <Q_RPC->
0

>  <Q_VSA_FHYD>
1

>  <Q_VSA_FNEG>
0

>  <Q_VSA_FPNEG>
0

>  <Q_VSA_FPOL>
0

>  <Q_VSA_FPOS>
1

>  <Q_VSA_FPPOS>
0

>  <Q_VSA_HYD>
564.85406

>  <Q_VSA_NEG>
0

>  <Q_VSA_PNEG>
0

>  <Q_VSA_POL>
0

>  <Q_VSA_POS>
564.85406

>  <Q_VSA_PPOS>
0

>  <radius>
8

>  <reactive>
1

>  <rings>
7

>  <RPC+>
0

>  <RPC->
0

>  <rsynth>
1

>  <SlogP>
3.19277

>  <SlogP_VSA0>
43.395977

>  <SlogP_VSA1>
25.149292

>  <SlogP_VSA2>
111.31797

>  <SlogP_VSA3>
36.879158

>  <SlogP_VSA4>
19.603539

>  <SlogP_VSA5>
54.391869

>  <SlogP_VSA6>
0

>  <SlogP_VSA7>
78.47541

>  <SlogP_VSA8>
56.605217

>  <SlogP_VSA9>
179.25815

>  <SMR>
16.415819

>  <SMR_VSA0>
82.58654

>  <SMR_VSA1>
34.758167

>  <SMR_VSA2>
50.654945

>  <SMR_VSA3>
18.317057

>  <SMR_VSA4>
7.9026761

>  <SMR_VSA5>
146.04636

>  <SMR_VSA6>
52.655506

>  <SMR_VSA7>
212.15533

>  <TPSA>
118.21

>  <VAdjEq>
0.29901332

>  <VAdjMa>
6.6147099

>  <VDistEq>
3.7771301

>  <VDistMa>
10.58389

>  <vdw_area>
564.85406

>  <vdw_vol>
806.83923

>  <vsa_acc>
43.204517

>  <vsa_acid>
0

>  <vsa_base>
0

>  <vsa_don>
11.365152

>  <vsa_hyd>
404.48306

>  <vsa_other>
51.191368

>  <vsa_pol>
68.136589

>  <Weight>
654.60596

>  <weinerPath>
5950

>  <weinerPol>
92

>  <zagreb>
256

$$$$