O1C2(CCN(CC2)CCc2ccccc2)CNC1=O
  MOE2013           2D

 19 21  0  0  0  0  0  0  0  0999 V2000
    0.0000    0.0000    0.0000 O   0  0  0  0  0  0  0  0  0  0  0  0
   -1.1300    0.9860    0.0000 C   0  0  0  0  0  0  0  0  0  0  0  0
   -1.5710   -0.4480    0.0000 C   0  0  0  0  0  0  0  0  0  0  0  0
   -3.0330   -0.7830    0.0000 C   0  0  0  0  0  0  0  0  0  0  0  0
   -4.0550    0.3160    0.0000 N   0  0  0  0  0  0  0  0  0  0  0  0
   -3.6140    1.7500    0.0000 C   0  0  0  0  0  0  0  0  0  0  0  0
   -2.1520    2.0850    0.0000 C   0  0  0  0  0  0  0  0  0  0  0  0
   -5.5170   -0.0190    0.0000 C   0  0  0  0  0  0  0  0  0  0  0  0
   -6.5380    1.0790    0.0000 C   0  0  0  0  0  0  0  0  0  0  0  0
   -8.0000    0.7440    0.0000 C   0  0  0  0  0  0  0  0  0  0  0  0
   -8.4410   -0.6890    0.0000 C   0  0  0  0  0  0  0  0  0  0  0  0
   -9.9030   -1.0240    0.0000 C   0  0  0  0  0  0  0  0  0  0  0  0
  -10.9240    0.0740    0.0000 C   0  0  0  0  0  0  0  0  0  0  0  0
  -10.4830    1.5080    0.0000 C   0  0  0  0  0  0  0  0  0  0  0  0
   -9.0210    1.8430    0.0000 C   0  0  0  0  0  0  0  0  0  0  0  0
   -0.5420    2.3660    0.0000 C   0  0  0  0  0  0  0  0  0  0  0  0
    0.9520    2.2330    0.0000 N   0  0  0  0  0  0  0  0  0  0  0  0
    1.2870    0.7700    0.0000 C   0  0  0  0  0  0  0  0  0  0  0  0
    2.6670    0.1820    0.0000 O   0  0  0  0  0  0  0  0  0  0  0  0
  1  2  1  0  0  0  0
  1 18  1  0  0  0  0
  2  3  1  0  0  0  0
  2  7  1  0  0  0  0
  2 16  1  0  0  0  0
  3  4  1  0  0  0  0
  4  5  1  0  0  0  0
  5  6  1  0  0  0  0
  5  8  1  0  0  0  0
  6  7  1  0  0  0  0
  8  9  1  0  0  0  0
  9 10  1  0  0  0  0
 10 11  1  0  0  0  0
 10 15  2  0  0  0  0
 11 12  2  0  0  0  0
 12 13  1  0  0  0  0
 13 14  2  0  0  0  0
 14 15  1  0  0  0  0
 16 17  1  0  0  0  0
 17 18  1  0  0  0  0
 18 19  2  0  0  0  0
M  END
>  <Index>
1291

>  <ID>
HT3147

>  <class>
0

>  <apol>
43.53986

>  <ast_fraglike>
1

>  <ast_fraglike_ext>
0

>  <ast_violation>
0

>  <ast_violation_ext>
1

>  <a_acc>
2

>  <a_acid>
0

>  <a_aro>
6

>  <a_base>
0

>  <a_count>
39

>  <a_don>
1

>  <a_donacc>
3

>  <a_heavy>
19

>  <a_hyd>
14

>  <a_IC>
57.088764

>  <a_ICM>
1.4638145

>  <a_nB>
0

>  <a_nBr>
0

>  <a_nC>
15

>  <a_nCl>
0

>  <a_nF>
0

>  <a_nH>
20

>  <a_nI>
0

>  <a_nN>
2

>  <a_nO>
2

>  <a_nP>
0

>  <a_nS>
0

>  <balabanJ>
1.382022

>  <BCUT_PEOE_0>
-2.7932231

>  <BCUT_PEOE_1>
-0.56070083

>  <BCUT_PEOE_2>
0.61916888

>  <BCUT_PEOE_3>
2.7961483

>  <BCUT_SLOGP_0>
-2.8662698

>  <BCUT_SLOGP_1>
-0.45696509

>  <BCUT_SLOGP_2>
0.70580614

>  <BCUT_SLOGP_3>
2.7279551

>  <BCUT_SMR_0>
-2.539721

>  <BCUT_SMR_1>
-0.42658794

>  <BCUT_SMR_2>
0.75993627

>  <BCUT_SMR_3>
3.0385897

>  <bpol>
27.378139

>  <b_1rotN>
3

>  <b_1rotR>
0.14285715

>  <b_ar>
6

>  <b_count>
41

>  <b_double>
1

>  <b_heavy>
21

>  <b_max1len>
3

>  <b_rotN>
3

>  <b_rotR>
0.14285715

>  <b_single>
34

>  <b_triple>
0

>  <chi0>
13.131546

>  <chi0v>
11.100209

>  <chi0v_C>
9.3364992

>  <chi0_C>
10.139982

>  <chi1>
9.2575502

>  <chi1v>
6.9895062

>  <chi1v_C>
4.8248973

>  <chi1_C>
5.7854052

>  <chiral>
0

>  <chiral_u>
0

>  <density>
0.70942193

>  <diameter>
12

>  <FCharge>
0

>  <GCUT_PEOE_0>
-0.85651922

>  <GCUT_PEOE_1>
-0.41095448

>  <GCUT_PEOE_2>
0.0655737

>  <GCUT_PEOE_3>
2.732233

>  <GCUT_SLOGP_0>
-1.1661987

>  <GCUT_SLOGP_1>
-0.29480666

>  <GCUT_SLOGP_2>
0.14699815

>  <GCUT_SLOGP_3>
2.7214808

>  <GCUT_SMR_0>
-0.52254647

>  <GCUT_SMR_1>
-0.20984982

>  <GCUT_SMR_2>
0.16934712

>  <GCUT_SMR_3>
2.9651554

>  <Kier1>
13.959184

>  <Kier2>
6.1854935

>  <Kier3>
3.5555556

>  <KierA1>
11.292481

>  <KierA2>
4.9406028

>  <KierA3>
2.811861

>  <KierFlex>
2.9364035

>  <lip_acc>
4

>  <lip_don>
1

>  <lip_druglike>
1

>  <lip_violation>
0

>  <logP(o/w)>
1.949

>  <logS>
-2.26841

>  <mr>
7.4178891

>  <mutagenic>
0

>  <nmol>
1

>  <opr_brigid>
17

>  <opr_leadlike>
1

>  <opr_nring>
3

>  <opr_nrot>
5

>  <opr_violation>
0

>  <PC+>
0

>  <PC->
0

>  <PEOE_PC+>
1.5392258

>  <PEOE_PC->
-1.5392258

>  <PEOE_RPC+>
0.23475628

>  <PEOE_RPC->
0.21388438

>  <PEOE_VSA+0>
90.761604

>  <PEOE_VSA+1>
43.050026

>  <PEOE_VSA+2>
0

>  <PEOE_VSA+3>
8.6190128

>  <PEOE_VSA+4>
0

>  <PEOE_VSA+5>
0

>  <PEOE_VSA+6>
19.199511

>  <PEOE_VSA-0>
28.312479

>  <PEOE_VSA-1>
61.274521

>  <PEOE_VSA-2>
0

>  <PEOE_VSA-3>
0

>  <PEOE_VSA-4>
13.566921

>  <PEOE_VSA-5>
2.503756

>  <PEOE_VSA-6>
0.13689101

>  <PEOE_VSA_FHYD>
0.86759984

>  <PEOE_VSA_FNEG>
0.39560503

>  <PEOE_VSA_FPNEG>
0.060606092

>  <PEOE_VSA_FPOL>
0.13240017

>  <PEOE_VSA_FPOS>
0.60439497

>  <PEOE_VSA_FPPOS>
0.071794078

>  <PEOE_VSA_HYD>
232.01764

>  <PEOE_VSA_NEG>
105.79456

>  <PEOE_VSA_PNEG>
16.207567

>  <PEOE_VSA_POL>
35.407078

>  <PEOE_VSA_POS>
161.63016

>  <PEOE_VSA_PPOS>
19.199511

>  <petitjean>
0.5

>  <petitjeanSC>
1

>  <Q_PC+>
0

>  <Q_PC->
0

>  <Q_RPC+>
0

>  <Q_RPC->
0

>  <Q_VSA_FHYD>
1

>  <Q_VSA_FNEG>
0

>  <Q_VSA_FPNEG>
0

>  <Q_VSA_FPOL>
0

>  <Q_VSA_FPOS>
1

>  <Q_VSA_FPPOS>
0

>  <Q_VSA_HYD>
267.42471

>  <Q_VSA_NEG>
0

>  <Q_VSA_PNEG>
0

>  <Q_VSA_POL>
0

>  <Q_VSA_POS>
267.42471

>  <Q_VSA_PPOS>
0

>  <radius>
6

>  <reactive>
0

>  <rings>
3

>  <RPC+>
0

>  <RPC->
0

>  <rsynth>
0.10526316

>  <SlogP>
1.80347

>  <SlogP_VSA0>
18.01075

>  <SlogP_VSA1>
10.44095

>  <SlogP_VSA2>
10.999887

>  <SlogP_VSA3>
73.758316

>  <SlogP_VSA4>
3.185575

>  <SlogP_VSA5>
18.868406

>  <SlogP_VSA6>
0

>  <SlogP_VSA7>
88.215919

>  <SlogP_VSA8>
37.736813

>  <SlogP_VSA9>
23.862217

>  <SMR>
7.3034701

>  <SMR_VSA0>
34.862103

>  <SMR_VSA1>
3.1243138

>  <SMR_VSA2>
18.01075

>  <SMR_VSA3>
3.185575

>  <SMR_VSA4>
0

>  <SMR_VSA5>
144.82114

>  <SMR_VSA6>
81.074951

>  <SMR_VSA7>
0

>  <TPSA>
41.57

>  <VAdjEq>
0.51875818

>  <VAdjMa>
5.3923173

>  <VDistEq>
3.3344767

>  <VDistMa>
8.1425066

>  <vdw_area>
267.42471

>  <vdw_vol>
366.97061

>  <vsa_acc>
13.566921

>  <vsa_acid>
0

>  <vsa_base>
0

>  <vsa_don>
5.6825762

>  <vsa_hyd>
209.87453

>  <vsa_other>
21.703266

>  <vsa_pol>
19.249496

>  <Weight>
260.33701

>  <weinerPath>
801

>  <weinerPol>
25

>  <zagreb>
100

$$$$