O=C1NC(=O)NC(=O)C1(C(CC)C)CC=C
  MOE2013           2D

 16 16  0  0  1  0  0  0  0  0999 V2000
    0.0000    0.0000    0.0000 O   0  0  0  0  0  0  0  0  0  0  0  0
    1.2930   -0.7600    0.0000 C   0  0  0  0  0  0  0  0  0  0  0  0
    2.5980   -0.0190    0.0000 N   0  0  0  0  0  0  0  0  0  0  0  0
    3.8910   -0.7790    0.0000 C   0  0  0  0  0  0  0  0  0  0  0  0
    5.1960   -0.0380    0.0000 O   0  0  0  0  0  0  0  0  0  0  0  0
    3.8800   -2.2790    0.0000 N   0  0  0  0  0  0  0  0  0  0  0  0
    2.5760   -3.0190    0.0000 C   0  0  0  0  0  0  0  0  0  0  0  0
    2.5650   -4.5190    0.0000 O   0  0  0  0  0  0  0  0  0  0  0  0
    1.2820   -2.2600    0.0000 C   0  0  0  0  0  0  0  0  0  0  0  0
    0.5230   -3.5530    0.0000 C   0  0  3  0  0  0  0  0  0  0  0  0
   -0.9770   -3.5420    0.0000 C   0  0  0  0  0  0  0  0  0  0  0  0
   -1.7370   -4.8350    0.0000 C   0  0  0  0  0  0  0  0  0  0  0  0
    1.2630   -4.8580    0.0000 C   0  0  0  0  0  0  0  0  0  0  0  0
   -0.2180   -2.2480    0.0000 C   0  0  0  0  0  0  0  0  0  0  0  0
   -0.9580   -0.9440    0.0000 C   0  0  0  0  0  0  0  0  0  0  0  0
   -2.4580   -0.9330    0.0000 C   0  0  0  0  0  0  0  0  0  0  0  0
  1  2  2  0  0  0  0
  2  3  1  0  0  0  0
  2  9  1  0  0  0  0
  3  4  1  0  0  0  0
  4  5  2  0  0  0  0
  4  6  1  0  0  0  0
  6  7  1  0  0  0  0
  7  8  2  0  0  0  0
  7  9  1  0  0  0  0
  9 10  1  0  0  0  0
  9 14  1  0  0  0  0
 10 11  1  0  0  0  0
 10 13  1  0  0  0  0
 11 12  1  0  0  0  0
 14 15  1  0  0  0  0
 15 16  2  0  0  0  0
M  END
>  <Index>
1272

>  <ID>
HT2974

>  <class>
0

>  <apol>
34.634689

>  <ast_fraglike>
1

>  <ast_fraglike_ext>
0

>  <ast_violation>
0

>  <ast_violation_ext>
1

>  <a_acc>
3

>  <a_acid>
0

>  <a_aro>
0

>  <a_base>
0

>  <a_count>
32

>  <a_don>
2

>  <a_donacc>
5

>  <a_heavy>
16

>  <a_hyd>
8

>  <a_IC>
51.191364

>  <a_ICM>
1.5997301

>  <a_nB>
0

>  <a_nBr>
0

>  <a_nC>
11

>  <a_nCl>
0

>  <a_nF>
0

>  <a_nH>
16

>  <a_nI>
0

>  <a_nN>
2

>  <a_nO>
3

>  <a_nP>
0

>  <a_nS>
0

>  <balabanJ>
2.9755189

>  <BCUT_PEOE_0>
-2.7002161

>  <BCUT_PEOE_1>
-0.5221923

>  <BCUT_PEOE_2>
0.46414074

>  <BCUT_PEOE_3>
2.7547379

>  <BCUT_SLOGP_0>
-2.8152077

>  <BCUT_SLOGP_1>
-0.46005544

>  <BCUT_SLOGP_2>
0.51821673

>  <BCUT_SLOGP_3>
2.7551963

>  <BCUT_SMR_0>
-2.4685121

>  <BCUT_SMR_1>
-0.31531337

>  <BCUT_SMR_2>
0.5839951

>  <BCUT_SMR_3>
2.9843366

>  <bpol>
21.685312

>  <b_1rotN>
4

>  <b_1rotR>
0.25

>  <b_ar>
0

>  <b_count>
32

>  <b_double>
4

>  <b_heavy>
16

>  <b_max1len>
7

>  <b_rotN>
4

>  <b_rotR>
0.25

>  <b_single>
28

>  <b_triple>
0

>  <chi0>
12.344935

>  <chi0v>
9.5007658

>  <chi0v_C>
7.276021

>  <chi0_C>
7.9307213

>  <chi1>
7.4844351

>  <chi1v>
5.263803

>  <chi1v_C>
3.6514304

>  <chi1_C>
4.119391

>  <chiral>
1

>  <chiral_u>
1

>  <density>
0.75020915

>  <diameter>
7

>  <FCharge>
0

>  <GCUT_PEOE_0>
-0.78832024

>  <GCUT_PEOE_1>
-0.44270802

>  <GCUT_PEOE_2>
0.088951237

>  <GCUT_PEOE_3>
2.6477721

>  <GCUT_SLOGP_0>
-1.1839163

>  <GCUT_SLOGP_1>
-0.33921281

>  <GCUT_SLOGP_2>
0.091969676

>  <GCUT_SLOGP_3>
2.6325295

>  <GCUT_SMR_0>
-0.53187156

>  <GCUT_SMR_1>
-0.21699314

>  <GCUT_SMR_2>
0.16091803

>  <GCUT_SMR_3>
2.8727119

>  <Kier1>
14.0625

>  <Kier2>
5.5576558

>  <Kier3>
2.4882812

>  <KierA1>
10.322754

>  <KierA2>
3.9874763

>  <KierA3>
1.7547607

>  <KierFlex>
2.5726085

>  <lip_acc>
5

>  <lip_don>
2

>  <lip_druglike>
1

>  <lip_violation>
0

>  <logP(o/w)>
1.48

>  <logS>
-3.0367501

>  <mr>
5.9816575

>  <mutagenic>
0

>  <nmol>
1

>  <opr_brigid>
7

>  <opr_leadlike>
1

>  <opr_nring>
1

>  <opr_nrot>
4

>  <opr_violation>
0

>  <PC+>
0

>  <PC->
0

>  <PEOE_PC+>
1.7482933

>  <PEOE_PC->
-1.7482933

>  <PEOE_RPC+>
0.18818676

>  <PEOE_RPC->
0.15885532

>  <PEOE_VSA+0>
46.919247

>  <PEOE_VSA+1>
12.796158

>  <PEOE_VSA+2>
0

>  <PEOE_VSA+3>
17.238026

>  <PEOE_VSA+4>
25.899061

>  <PEOE_VSA+5>
0

>  <PEOE_VSA+6>
17.440542

>  <PEOE_VSA-0>
8.701313

>  <PEOE_VSA-1>
58.451572

>  <PEOE_VSA-2>
22.301268

>  <PEOE_VSA-3>
0

>  <PEOE_VSA-4>
13.566921

>  <PEOE_VSA-5>
27.407623

>  <PEOE_VSA-6>
0

>  <PEOE_VSA_FHYD>
0.66371423

>  <PEOE_VSA_FNEG>
0.52021295

>  <PEOE_VSA_FPNEG>
0.16342638

>  <PEOE_VSA_FPOL>
0.33628577

>  <PEOE_VSA_FPOS>
0.47978702

>  <PEOE_VSA_FPPOS>
0.17285939

>  <PEOE_VSA_HYD>
166.40758

>  <PEOE_VSA_NEG>
130.4287

>  <PEOE_VSA_PNEG>
40.974545

>  <PEOE_VSA_POL>
84.314148

>  <PEOE_VSA_POS>
120.29304

>  <PEOE_VSA_PPOS>
43.339603

>  <petitjean>
0.42857143

>  <petitjeanSC>
0.75

>  <Q_PC+>
0

>  <Q_PC->
0

>  <Q_RPC+>
0

>  <Q_RPC->
0

>  <Q_VSA_FHYD>
1

>  <Q_VSA_FNEG>
0

>  <Q_VSA_FPNEG>
0

>  <Q_VSA_FPOL>
0

>  <Q_VSA_FPOS>
1

>  <Q_VSA_FPPOS>
0

>  <Q_VSA_HYD>
250.72173

>  <Q_VSA_NEG>
0

>  <Q_VSA_PNEG>
0

>  <Q_VSA_POL>
0

>  <Q_VSA_POS>
250.72173

>  <Q_VSA_PPOS>
0

>  <radius>
4

>  <reactive>
0

>  <rings>
1

>  <RPC+>
0

>  <RPC->
0

>  <rsynth>
1

>  <SlogP>
0.96100003

>  <SlogP_VSA0>
36.0215

>  <SlogP_VSA1>
15.347524

>  <SlogP_VSA2>
47.724434

>  <SlogP_VSA3>
0

>  <SlogP_VSA4>
4.4107962

>  <SlogP_VSA5>
0

>  <SlogP_VSA6>
0

>  <SlogP_VSA7>
17.643185

>  <SlogP_VSA8>
37.736813

>  <SlogP_VSA9>
122.61504

>  <SMR>
5.8383398

>  <SMR_VSA0>
71.586647

>  <SMR_VSA1>
0

>  <SMR_VSA2>
40.432297

>  <SMR_VSA3>
0

>  <SMR_VSA4>
0

>  <SMR_VSA5>
55.379993

>  <SMR_VSA6>
15.347524

>  <SMR_VSA7>
98.752823

>  <TPSA>
75.269997

>  <VAdjEq>
0.54356444

>  <VAdjMa>
5

>  <VDistEq>
2.531565

>  <VDistMa>
7.7542276

>  <vdw_area>
250.72173

>  <vdw_vol>
298.92996

>  <vsa_acc>
40.700764

>  <vsa_acid>
0

>  <vsa_base>
0

>  <vsa_don>
11.365152

>  <vsa_hyd>
137.85938

>  <vsa_other>
43.339603

>  <vsa_pol>
52.065914

>  <Weight>
224.25999

>  <weinerPath>
391

>  <weinerPol>
29

>  <zagreb>
78

$$$$