S=C1NC(=O)C(C(CCC)C)(CC=C)C(=O)N1
  MOE2013           2D

 17 17  0  0  1  0  0  0  0  0999 V2000
    0.0000    0.0000    0.0000 S   0  0  0  0  0  0  0  0  0  0  0  0
   -1.2970    0.7530    0.0000 C   0  0  0  0  0  0  0  0  0  0  0  0
   -1.2930    2.2530    0.0000 N   0  0  0  0  0  0  0  0  0  0  0  0
   -2.5900    3.0070    0.0000 C   0  0  0  0  0  0  0  0  0  0  0  0
   -2.5870    4.5070    0.0000 O   0  0  0  0  0  0  0  0  0  0  0  0
   -3.8910    2.2600    0.0000 C   0  0  0  0  0  0  0  0  0  0  0  0
   -5.3910    2.2640    0.0000 C   0  0  3  0  0  0  0  0  0  0  0  0
   -6.1450    0.9670    0.0000 C   0  0  0  0  0  0  0  0  0  0  0  0
   -7.6450    0.9700    0.0000 C   0  0  0  0  0  0  0  0  0  0  0  0
   -8.3980   -0.3270    0.0000 C   0  0  0  0  0  0  0  0  0  0  0  0
   -6.1380    3.5650    0.0000 C   0  0  0  0  0  0  0  0  0  0  0  0
   -4.6380    3.5610    0.0000 C   0  0  0  0  0  0  0  0  0  0  0  0
   -3.8850    4.8580    0.0000 C   0  0  0  0  0  0  0  0  0  0  0  0
   -4.6320    6.1590    0.0000 C   0  0  0  0  0  0  0  0  0  0  0  0
   -3.8950    0.7600    0.0000 C   0  0  0  0  0  0  0  0  0  0  0  0
   -5.1960    0.0130    0.0000 O   0  0  0  0  0  0  0  0  0  0  0  0
   -2.5980    0.0070    0.0000 N   0  0  0  0  0  0  0  0  0  0  0  0
  1  2  2  0  0  0  0
  2  3  1  0  0  0  0
  2 17  1  0  0  0  0
  3  4  1  0  0  0  0
  4  5  2  0  0  0  0
  4  6  1  0  0  0  0
  6  7  1  0  0  0  0
  6 12  1  0  0  0  0
  6 15  1  0  0  0  0
  7  8  1  0  0  0  0
  7 11  1  0  0  0  0
  8  9  1  0  0  0  0
  9 10  1  0  0  0  0
 12 13  1  0  0  0  0
 13 14  2  0  0  0  0
 15 16  2  0  0  0  0
 15 17  1  0  0  0  0
M  END
>  <Index>
1066

>  <ID>
HT2038

>  <class>
0

>  <apol>
39.826275

>  <ast_fraglike>
1

>  <ast_fraglike_ext>
0

>  <ast_violation>
0

>  <ast_violation_ext>
2

>  <a_acc>
3

>  <a_acid>
0

>  <a_aro>
0

>  <a_base>
0

>  <a_count>
35

>  <a_don>
2

>  <a_donacc>
5

>  <a_heavy>
17

>  <a_hyd>
9

>  <a_IC>
57.446705

>  <a_ICM>
1.6413344

>  <a_nB>
0

>  <a_nBr>
0

>  <a_nC>
12

>  <a_nCl>
0

>  <a_nF>
0

>  <a_nH>
18

>  <a_nI>
0

>  <a_nN>
2

>  <a_nO>
2

>  <a_nP>
0

>  <a_nS>
1

>  <balabanJ>
2.9531031

>  <BCUT_PEOE_0>
-2.7225342

>  <BCUT_PEOE_1>
-0.47007114

>  <BCUT_PEOE_2>
0.48053986

>  <BCUT_PEOE_3>
2.7562082

>  <BCUT_SLOGP_0>
-2.816139

>  <BCUT_SLOGP_1>
-0.44606289

>  <BCUT_SLOGP_2>
0.54134321

>  <BCUT_SLOGP_3>
2.7807221

>  <BCUT_SMR_0>
-2.4837351

>  <BCUT_SMR_1>
-0.22830237

>  <BCUT_SMR_2>
0.70600647

>  <BCUT_SMR_3>
2.9938388

>  <bpol>
24.053726

>  <b_1rotN>
5

>  <b_1rotR>
0.29411766

>  <b_ar>
0

>  <b_count>
35

>  <b_double>
4

>  <b_heavy>
17

>  <b_max1len>
8

>  <b_rotN>
5

>  <b_rotR>
0.29411766

>  <b_single>
31

>  <b_triple>
0

>  <chi0>
13.052042

>  <chi0v>
11.024369

>  <chi0v_C>
7.9831276

>  <chi0_C>
8.6378279

>  <chi1>
7.9844351

>  <chi1v>
6.172051

>  <chi1v_C>
4.1514306

>  <chi1_C>
4.619391

>  <chiral>
1

>  <chiral_u>
1

>  <density>
0.75535631

>  <diameter>
8

>  <FCharge>
0

>  <GCUT_PEOE_0>
-0.82581586

>  <GCUT_PEOE_1>
-0.37839618

>  <GCUT_PEOE_2>
0.088690586

>  <GCUT_PEOE_3>
2.691483

>  <GCUT_SLOGP_0>
-1.1836823

>  <GCUT_SLOGP_1>
-0.32325822

>  <GCUT_SLOGP_2>
0.092198968

>  <GCUT_SLOGP_3>
2.7003582

>  <GCUT_SMR_0>
-0.53237009

>  <GCUT_SMR_1>
-0.18216541

>  <GCUT_SMR_2>
0.19885556

>  <GCUT_SMR_3>
2.9312572

>  <Kier1>
15.058824

>  <Kier2>
6.25

>  <Kier3>
2.8797061

>  <KierA1>
12.5056

>  <KierA2>
5.1255856

>  <KierA3>
2.338105

>  <KierFlex>
3.7705011

>  <lip_acc>
4

>  <lip_don>
2

>  <lip_druglike>
1

>  <lip_violation>
0

>  <logP(o/w)>
1.778

>  <logS>
-4.8052502

>  <mr>
7.0457325

>  <mutagenic>
0

>  <nmol>
1

>  <opr_brigid>
7

>  <opr_leadlike>
1

>  <opr_nring>
1

>  <opr_nrot>
5

>  <opr_violation>
0

>  <PC+>
0

>  <PC->
0

>  <PEOE_PC+>
1.6418862

>  <PEOE_PC->
-1.6418862

>  <PEOE_RPC+>
0.14703599

>  <PEOE_RPC->
0.19562489

>  <PEOE_VSA+0>
55.45002

>  <PEOE_VSA+1>
25.962782

>  <PEOE_VSA+2>
31.384512

>  <PEOE_VSA+3>
17.238026

>  <PEOE_VSA+4>
25.899061

>  <PEOE_VSA+5>
0

>  <PEOE_VSA+6>
0

>  <PEOE_VSA-0>
17.402626

>  <PEOE_VSA-1>
58.451572

>  <PEOE_VSA-2>
22.301268

>  <PEOE_VSA-3>
0

>  <PEOE_VSA-4>
0

>  <PEOE_VSA-5>
27.133842

>  <PEOE_VSA-6>
0.27378201

>  <PEOE_VSA_FHYD>
0.81063175

>  <PEOE_VSA_FNEG>
0.44605404

>  <PEOE_VSA_FPNEG>
0.097363651

>  <PEOE_VSA_FPOL>
0.18936825

>  <PEOE_VSA_FPOS>
0.55394596

>  <PEOE_VSA_FPPOS>
0.09200459

>  <PEOE_VSA_HYD>
228.19081

>  <PEOE_VSA_NEG>
125.56309

>  <PEOE_VSA_PNEG>
27.407623

>  <PEOE_VSA_POL>
53.306686

>  <PEOE_VSA_POS>
155.9344

>  <PEOE_VSA_PPOS>
25.899061

>  <petitjean>
0.5

>  <petitjeanSC>
1

>  <Q_PC+>
0

>  <Q_PC->
0

>  <Q_RPC+>
0

>  <Q_RPC->
0

>  <Q_VSA_FHYD>
1

>  <Q_VSA_FNEG>
0

>  <Q_VSA_FPNEG>
0

>  <Q_VSA_FPOL>
0

>  <Q_VSA_FPOS>
1

>  <Q_VSA_FPPOS>
0

>  <Q_VSA_HYD>
281.4975

>  <Q_VSA_NEG>
0

>  <Q_VSA_PNEG>
0

>  <Q_VSA_POL>
0

>  <Q_VSA_POS>
281.4975

>  <Q_VSA_PPOS>
0

>  <radius>
4

>  <reactive>
0

>  <rings>
1

>  <RPC+>
0

>  <RPC->
0

>  <rsynth>
1

>  <SlogP>
1.516

>  <SlogP_VSA0>
36.0215

>  <SlogP_VSA1>
10.802089

>  <SlogP_VSA2>
47.724434

>  <SlogP_VSA3>
0

>  <SlogP_VSA4>
4.4107962

>  <SlogP_VSA5>
0

>  <SlogP_VSA6>
0

>  <SlogP_VSA7>
17.643185

>  <SlogP_VSA8>
56.605217

>  <SlogP_VSA9>
143.94485

>  <SMR>
7.02034

>  <SMR_VSA0>
47.724434

>  <SMR_VSA1>
0

>  <SMR_VSA2>
40.432297

>  <SMR_VSA3>
0

>  <SMR_VSA4>
0

>  <SMR_VSA5>
74.248398

>  <SMR_VSA6>
10.802089

>  <SMR_VSA7>
143.94485

>  <TPSA>
90.290001

>  <VAdjEq>
0.52255934

>  <VAdjMa>
5.0874629

>  <VDistEq>
2.6705234

>  <VDistMa>
7.924077

>  <vdw_area>
281.4975

>  <vdw_vol>
336.7338

>  <vsa_acc>
58.518353

>  <vsa_acid>
0

>  <vsa_base>
0

>  <vsa_don>
11.365152

>  <vsa_hyd>
153.66786

>  <vsa_other>
39.065685

>  <vsa_pol>
69.883507

>  <Weight>
254.354

>  <weinerPath>
472

>  <weinerPol>
30

>  <zagreb>
82

$$$$