O1C(C)C(OC2OC(C)C(OC(=O)CC(C)C)C(O)(C2)C)C(N(C)C)C(O)C1OC1C(OC)C(OC(C)=C)CC(OC(C/C=CC=CC(O)C(CC1OC(C)=C)C)C)=O
  MOE2013           2D

 59 61  0  0  1  0  0  0  0  0999 V2000
    0.0000    0.0000    0.0000 O   0  0  0  0  0  0  0  0  0  0  0  0
    1.2930   -0.7600    0.0000 C   0  0  3  0  0  0  0  0  0  0  0  0
    2.5980   -0.0210    0.0000 C   0  0  0  0  0  0  0  0  0  0  0  0
    1.2810   -2.2600    0.0000 C   0  0  3  0  0  0  0  0  0  0  0  0
    2.5740   -3.0200    0.0000 O   0  0  0  0  0  0  0  0  0  0  0  0
    3.8790   -2.2810    0.0000 C   0  0  3  0  0  0  0  0  0  0  0  0
    5.1720   -3.0410    0.0000 O   0  0  0  0  0  0  0  0  0  0  0  0
    6.4770   -2.3010    0.0000 C   0  0  3  0  0  0  0  0  0  0  0  0
    7.7700   -3.0620    0.0000 C   0  0  0  0  0  0  0  0  0  0  0  0
    6.4890   -0.8010    0.0000 C   0  0  3  0  0  0  0  0  0  0  0  0
    7.7940   -0.0620    0.0000 O   0  0  0  0  0  0  0  0  0  0  0  0
    9.0870   -0.8220    0.0000 C   0  0  0  0  0  0  0  0  0  0  0  0
    9.0750   -2.3220    0.0000 O   0  0  0  0  0  0  0  0  0  0  0  0
   10.3920   -0.0820    0.0000 C   0  0  0  0  0  0  0  0  0  0  0  0
   11.6850   -0.8430    0.0000 C   0  0  0  0  0  0  0  0  0  0  0  0
   12.9900   -0.1030    0.0000 C   0  0  0  0  0  0  0  0  0  0  0  0
   11.6730   -2.3420    0.0000 C   0  0  0  0  0  0  0  0  0  0  0  0
    5.1960   -0.0410    0.0000 C   0  0  3  0  0  0  0  0  0  0  0  0
    5.9560    1.2520    0.0000 O   0  0  0  0  0  0  0  0  0  0  0  0
    3.8910   -0.7810    0.0000 C   0  0  0  0  0  0  0  0  0  0  0  0
    4.4560    1.2640    0.0000 C   0  0  0  0  0  0  0  0  0  0  0  0
   -0.0240   -3.0000    0.0000 C   0  0  3  0  0  0  0  0  0  0  0  0
   -0.2960   -4.4750    0.0000 N   0  0  0  0  0  0  0  0  0  0  0  0
   -1.7090   -4.9770    0.0000 C   0  0  0  0  0  0  0  0  0  0  0  0
    0.8450   -5.4480    0.0000 C   0  0  0  0  0  0  0  0  0  0  0  0
   -1.3170   -2.2400    0.0000 C   0  0  3  0  0  0  0  0  0  0  0  0
   -2.4730   -3.1950    0.0000 O   0  0  0  0  0  0  0  0  0  0  0  0
   -1.3050   -0.7400    0.0000 C   0  0  3  0  0  0  0  0  0  0  0  0
   -2.5980    0.0210    0.0000 O   0  0  0  0  0  0  0  0  0  0  0  0
   -4.0500   -0.3560    0.0000 C   0  0  3  0  0  0  0  0  0  0  0  0
   -4.5090   -1.6190    0.0000 C   0  0  3  0  0  0  0  0  0  0  0  0
   -3.3950   -2.6240    0.0000 O   0  0  0  0  0  0  0  0  0  0  0  0
   -3.7080   -4.0910    0.0000 C   0  0  0  0  0  0  0  0  0  0  0  0
   -5.8420   -2.2650    0.0000 C   0  0  3  0  0  0  0  0  0  0  0  0
   -4.6120   -3.1240    0.0000 O   0  0  0  0  0  0  0  0  0  0  0  0
   -4.7400   -4.6180    0.0000 C   0  0  0  0  0  0  0  0  0  0  0  0
   -6.0980   -5.2540    0.0000 C   0  0  0  0  0  0  0  0  0  0  0  0
   -3.5100   -5.4760    0.0000 C   0  0  0  0  0  0  0  0  0  0  0  0
   -5.9880   -3.7400    0.0000 C   0  0  0  0  0  0  0  0  0  0  0  0
   -7.0170   -4.6050    0.0000 C   0  0  0  0  0  0  0  0  0  0  0  0
   -8.3630   -4.8600    0.0000 O   0  0  0  0  0  0  0  0  0  0  0  0
   -9.5710   -4.0590    0.0000 C   0  0  3  0  0  0  0  0  0  0  0  0
   -9.6110   -2.5780    0.0000 C   0  0  0  0  0  0  0  0  0  0  0  0
  -10.9400   -1.8460    0.0000 C   0  0  0  0  0  0  0  0  0  0  0  0
  -10.8850   -0.3170    0.0000 C   0  0  0  0  0  0  0  0  0  0  0  0
   -9.5330    0.3270    0.0000 C   0  0  0  0  0  0  0  0  0  0  0  0
   -9.3930    1.8180    0.0000 C   0  0  0  0  0  0  0  0  0  0  0  0
   -7.9740    2.3930    0.0000 C   0  0  3  0  0  0  0  0  0  0  0  0
   -7.7230    3.8710    0.0000 O   0  0  0  0  0  0  0  0  0  0  0  0
   -6.8370    1.3910    0.0000 C   0  0  3  0  0  0  0  0  0  0  0  0
   -5.4310    1.8600    0.0000 C   0  0  0  0  0  0  0  0  0  0  0  0
   -4.2650    0.9960    0.0000 C   0  0  3  0  0  0  0  0  0  0  0  0
   -3.3260    2.1660    0.0000 O   0  0  0  0  0  0  0  0  0  0  0  0
   -3.8700    3.5640    0.0000 C   0  0  0  0  0  0  0  0  0  0  0  0
   -5.3520    3.7920    0.0000 C   0  0  0  0  0  0  0  0  0  0  0  0
   -2.9310    4.7330    0.0000 C   0  0  0  0  0  0  0  0  0  0  0  0
   -7.1340   -0.0790    0.0000 C   0  0  0  0  0  0  0  0  0  0  0  0
  -10.8830   -4.7860    0.0000 C   0  0  0  0  0  0  0  0  0  0  0  0
   -6.3740   -5.9600    0.0000 O   0  0  0  0  0  0  0  0  0  0  0  0
  1  2  1  0  0  0  0
  1 28  1  0  0  0  0
  2  3  1  0  0  0  0
  2  4  1  0  0  0  0
  4  5  1  0  0  0  0
  4 22  1  0  0  0  0
  5  6  1  0  0  0  0
  6  7  1  0  0  0  0
  6 20  1  0  0  0  0
  7  8  1  0  0  0  0
  8  9  1  0  0  0  0
  8 10  1  0  0  0  0
 10 11  1  0  0  0  0
 10 18  1  0  0  0  0
 11 12  1  0  0  0  0
 12 13  2  0  0  0  0
 12 14  1  0  0  0  0
 14 15  1  0  0  0  0
 15 16  1  0  0  0  0
 15 17  1  0  0  0  0
 18 19  1  0  0  0  0
 18 20  1  0  0  0  0
 18 21  1  0  0  0  0
 22 23  1  0  0  0  0
 22 26  1  0  0  0  0
 23 24  1  0  0  0  0
 23 25  1  0  0  0  0
 26 27  1  0  0  0  0
 26 28  1  0  0  0  0
 28 29  1  0  0  0  0
 29 30  1  0  0  0  0
 30 31  1  0  0  0  0
 30 52  1  0  0  0  0
 31 32  1  0  0  0  0
 31 34  1  0  0  0  0
 32 33  1  0  0  0  0
 34 35  1  0  0  0  0
 34 39  1  0  0  0  0
 35 36  1  0  0  0  0
 36 37  1  0  0  0  0
 36 38  2  0  0  0  0
 39 40  1  0  0  0  0
 40 41  1  0  0  0  0
 40 59  2  0  0  0  0
 41 42  1  0  0  0  0
 42 43  1  0  0  0  0
 42 58  1  0  0  0  0
 43 44  1  0  0  0  0
 44 45  2  3  0  0  0
 45 46  1  0  0  0  0
 46 47  2  3  0  0  0
 47 48  1  0  0  0  0
 48 49  1  0  0  0  0
 48 50  1  0  0  0  0
 50 51  1  0  0  0  0
 50 57  1  0  0  0  0
 51 52  1  0  0  0  0
 52 53  1  0  0  0  0
 53 54  1  0  0  0  0
 54 55  1  0  0  0  0
 54 56  2  0  0  0  0
M  END
>  <Index>
1416

>  <ID>
HT4015

>  <class>
0

>  <apol>
138.44389

>  <ast_fraglike>
0

>  <ast_fraglike_ext>
0

>  <ast_violation>
3

>  <ast_violation_ext>
5

>  <a_acc>
13

>  <a_acid>
0

>  <a_aro>
0

>  <a_base>
0

>  <a_count>
132

>  <a_don>
3

>  <a_donacc>
16

>  <a_heavy>
59

>  <a_hyd>
40

>  <a_IC>
184.48486

>  <a_ICM>
1.3976127

>  <a_nB>
0

>  <a_nBr>
0

>  <a_nC>
44

>  <a_nCl>
0

>  <a_nF>
0

>  <a_nH>
73

>  <a_nI>
0

>  <a_nN>
1

>  <a_nO>
14

>  <a_nP>
0

>  <a_nS>
0

>  <balabanJ>
1.9751325

>  <BCUT_PEOE_0>
-2.8071625

>  <BCUT_PEOE_1>
-0.43251303

>  <BCUT_PEOE_2>
0.47425365

>  <BCUT_PEOE_3>
2.8363509

>  <BCUT_SLOGP_0>
-2.9531701

>  <BCUT_SLOGP_1>
-0.37761098

>  <BCUT_SLOGP_2>
0.48627794

>  <BCUT_SLOGP_3>
2.7243621

>  <BCUT_SMR_0>
-2.5868969

>  <BCUT_SMR_1>
-0.29758635

>  <BCUT_SMR_2>
0.61502349

>  <BCUT_SMR_3>
3.0412049

>  <bpol>
100.94411

>  <b_1rotN>
13

>  <b_1rotR>
0.21311475

>  <b_ar>
0

>  <b_count>
134

>  <b_double>
6

>  <b_heavy>
61

>  <b_max1len>
4

>  <b_rotN>
14

>  <b_rotR>
0.22950819

>  <b_single>
128

>  <b_triple>
0

>  <chi0>
44.352276

>  <chi0v>
37.276337

>  <chi0v_C>
30.996754

>  <chi0_C>
32.410965

>  <chi1>
27.534729

>  <chi1v>
20.801369

>  <chi1v_C>
14.211615

>  <chi1_C>
15.589966

>  <chiral>
16

>  <chiral_u>
16

>  <density>
0.72091872

>  <diameter>
23

>  <FCharge>
0

>  <GCUT_PEOE_0>
-0.85203707

>  <GCUT_PEOE_1>
-0.35222003

>  <GCUT_PEOE_2>
-0.028941462

>  <GCUT_PEOE_3>
3.4191694

>  <GCUT_SLOGP_0>
-0.97010654

>  <GCUT_SLOGP_1>
-0.29689223

>  <GCUT_SLOGP_2>
0.0081833359

>  <GCUT_SLOGP_3>
3.3842027

>  <GCUT_SMR_0>
-0.53261882

>  <GCUT_SMR_1>
-0.18897675

>  <GCUT_SMR_2>
0.11218255

>  <GCUT_SMR_3>
3.6224518

>  <Kier1>
53.339424

>  <Kier2>
24.896551

>  <Kier3>
16.497778

>  <KierA1>
48.965641

>  <KierA2>
22.820473

>  <KierA3>
15.106063

>  <KierFlex>
18.939306

>  <lip_acc>
15

>  <lip_don>
3

>  <lip_druglike>
0

>  <lip_violation>
2

>  <logP(o/w)>
5.0062199

>  <logS>
-5.9292998

>  <mr>
22.10623

>  <mutagenic>
0

>  <nmol>
1

>  <opr_brigid>
30

>  <opr_leadlike>
0

>  <opr_nring>
2

>  <opr_nrot>
30

>  <opr_violation>
4

>  <PC+>
0

>  <PC->
0

>  <PEOE_PC+>
5.9196587

>  <PEOE_PC->
-5.9196587

>  <PEOE_RPC+>
0.044766948

>  <PEOE_RPC->
0.065458648

>  <PEOE_VSA+0>
251.25969

>  <PEOE_VSA+1>
143.00656

>  <PEOE_VSA+2>
29.429573

>  <PEOE_VSA+3>
22.309816

>  <PEOE_VSA+4>
30.972517

>  <PEOE_VSA+5>
29.416998

>  <PEOE_VSA+6>
0

>  <PEOE_VSA-0>
176.36607

>  <PEOE_VSA-1>
149.86519

>  <PEOE_VSA-2>
0

>  <PEOE_VSA-3>
0

>  <PEOE_VSA-4>
0

>  <PEOE_VSA-5>
27.133842

>  <PEOE_VSA-6>
45.836426

>  <PEOE_VSA_FHYD>
0.8527382

>  <PEOE_VSA_FNEG>
0.44081602

>  <PEOE_VSA_FPNEG>
0.080577001

>  <PEOE_VSA_FPOL>
0.14726178

>  <PEOE_VSA_FPOS>
0.55918401

>  <PEOE_VSA_FPPOS>
0.066684783

>  <PEOE_VSA_HYD>
772.23688

>  <PEOE_VSA_NEG>
399.20151

>  <PEOE_VSA_PNEG>
72.970268

>  <PEOE_VSA_POL>
133.35979

>  <PEOE_VSA_POS>
506.39517

>  <PEOE_VSA_PPOS>
60.389515

>  <petitjean>
0.47826087

>  <petitjeanSC>
0.91666669

>  <Q_PC+>
0

>  <Q_PC->
0

>  <Q_RPC+>
0

>  <Q_RPC->
0

>  <Q_VSA_FHYD>
1

>  <Q_VSA_FNEG>
0

>  <Q_VSA_FPNEG>
0

>  <Q_VSA_FPOL>
0

>  <Q_VSA_FPOS>
1

>  <Q_VSA_FPPOS>
0

>  <Q_VSA_HYD>
905.59668

>  <Q_VSA_NEG>
0

>  <Q_VSA_PNEG>
0

>  <Q_VSA_POL>
0

>  <Q_VSA_POS>
905.59668

>  <Q_VSA_PPOS>
0

>  <radius>
12

>  <reactive>
1

>  <rings>
3

>  <RPC+>
0

>  <RPC->
0

>  <rsynth>
0.74576271

>  <SlogP>
4.7140999

>  <SlogP_VSA0>
76.155678

>  <SlogP_VSA1>
18.615242

>  <SlogP_VSA2>
238.91354

>  <SlogP_VSA3>
0

>  <SlogP_VSA4>
8.8215923

>  <SlogP_VSA5>
111.6651

>  <SlogP_VSA6>
0

>  <SlogP_VSA7>
70.572739

>  <SlogP_VSA8>
94.342026

>  <SlogP_VSA9>
364.13571

>  <SMR>
21.950041

>  <SMR_VSA0>
146.72342

>  <SMR_VSA1>
79.279991

>  <SMR_VSA2>
8.8215923

>  <SMR_VSA3>
102.67697

>  <SMR_VSA4>
0

>  <SMR_VSA5>
164.91476

>  <SMR_VSA6>
15.490929

>  <SMR_VSA7>
465.31396

>  <TPSA>
181.14

>  <VAdjEq>
0.2191045

>  <VAdjMa>
6.9307375

>  <VDistEq>
4.2134819

>  <VDistMa>
11.508867

>  <vdw_area>
905.59668

>  <vdw_vol>
1165.2645

>  <vsa_acc>
44.660133

>  <vsa_acid>
0

>  <vsa_base>
0

>  <vsa_don>
0

>  <vsa_hyd>
690.30414

>  <vsa_other>
63.841511

>  <vsa_pol>
85.360901

>  <Weight>
840.06097

>  <weinerPath>
14974

>  <weinerPol>
99

>  <zagreb>
296

$$$$