O=C1CC[C@@]2([C@@H]3[C@H]([C@@H]4CC[C@H](OC(=O)CCCCCC)[C@]4(CC3)C)CCC2=C1)C
  MOE2013           2D

 29 32  0  0  1  0  0  0  0  0999 V2000
    0.0000    0.0000    0.0000 O   0  0  0  0  0  0  0  0  0  0  0  0
    1.5000   -0.0090    0.0000 C   0  0  0  0  0  0  0  0  0  0  0  0
    2.2580    1.2850    0.0000 C   0  0  0  0  0  0  0  0  0  0  0  0
    3.7580    1.2760    0.0000 C   0  0  0  0  0  0  0  0  0  0  0  0
    4.5000   -0.0280    0.0000 C   0  0  2  0  0  0  0  0  0  0  0  0
    6.0000   -0.0370    0.0000 C   0  0  2  0  0  0  0  0  0  0  0  0
    6.7420   -1.3410    0.0000 C   0  0  2  0  0  0  0  0  0  0  0  0
    8.2420   -1.3500    0.0000 C   0  0  2  0  0  0  0  0  0  0  0  0
    9.2390   -2.4710    0.0000 C   0  0  0  0  0  0  0  0  0  0  0  0
   10.6130   -1.8690    0.0000 C   0  0  0  0  0  0  0  0  0  0  0  0
   10.4650   -0.3770    0.0000 C   0  0  2  0  0  0  0  0  0  0  0  0
   11.5860    0.6200    0.0000 O   0  0  0  0  0  0  0  0  0  0  0  0
   13.0100    0.1480    0.0000 C   0  0  0  0  0  0  0  0  0  0  0  0
   13.3120   -1.3210    0.0000 O   0  0  0  0  0  0  0  0  0  0  0  0
   14.1310    1.1440    0.0000 C   0  0  0  0  0  0  0  0  0  0  0  0
   15.5540    0.6720    0.0000 C   0  0  0  0  0  0  0  0  0  0  0  0
   16.6750    1.6690    0.0000 C   0  0  0  0  0  0  0  0  0  0  0  0
   18.0990    1.1960    0.0000 C   0  0  0  0  0  0  0  0  0  0  0  0
   19.2200    2.1930    0.0000 C   0  0  0  0  0  0  0  0  0  0  0  0
   20.6430    1.7210    0.0000 C   0  0  0  0  0  0  0  0  0  0  0  0
    9.0000   -0.0560    0.0000 C   0  0  1  0  0  0  0  0  0  0  0  0
    8.2580    1.2480    0.0000 C   0  0  0  0  0  0  0  0  0  0  0  0
    6.7580    1.2570    0.0000 C   0  0  0  0  0  0  0  0  0  0  0  0
    9.8890    1.1520    0.0000 C   0  0  0  0  0  0  0  0  0  0  0  0
    5.9840   -2.6350    0.0000 C   0  0  0  0  0  0  0  0  0  0  0  0
    4.4840   -2.6260    0.0000 C   0  0  0  0  0  0  0  0  0  0  0  0
    3.7420   -1.3220    0.0000 C   0  0  0  0  0  0  0  0  0  0  0  0
    2.2420   -1.3130    0.0000 C   0  0  0  0  0  0  0  0  0  0  0  0
    5.2800    1.2530    0.0000 C   0  0  0  0  0  0  0  0  0  0  0  0
  1  2  2  0  0  0  0
  2  3  1  0  0  0  0
  2 28  1  0  0  0  0
  3  4  1  0  0  0  0
  4  5  1  0  0  0  0
  5  6  1  0  0  0  0
  5 27  1  0  0  0  0
  5 29  1  1  0  0  0
  6  7  1  0  0  0  0
  6 23  1  1  0  0  0
  7  8  1  0  0  0  0
  7 25  1  6  0  0  0
  8  9  1  1  0  0  0
  8 21  1  0  0  0  0
  9 10  1  0  0  0  0
 10 11  1  0  0  0  0
 11 12  1  1  0  0  0
 11 21  1  0  0  0  0
 12 13  1  0  0  0  0
 13 14  2  0  0  0  0
 13 15  1  0  0  0  0
 15 16  1  0  0  0  0
 16 17  1  0  0  0  0
 17 18  1  0  0  0  0
 18 19  1  0  0  0  0
 19 20  1  0  0  0  0
 21 22  1  0  0  0  0
 21 24  1  1  0  0  0
 22 23  1  0  0  0  0
 25 26  1  0  0  0  0
 26 27  1  0  0  0  0
 27 28  2  0  0  0  0
M  END
>  <Index>
1057

>  <ID>
HT2019

>  <class>
0

>  <apol>
74.837723

>  <ast_fraglike>
0

>  <ast_fraglike_ext>
0

>  <ast_violation>
2

>  <ast_violation_ext>
3

>  <a_acc>
2

>  <a_acid>
0

>  <a_aro>
0

>  <a_base>
0

>  <a_count>
69

>  <a_don>
0

>  <a_donacc>
2

>  <a_heavy>
29

>  <a_hyd>
24

>  <a_IC>
81.644745

>  <a_ICM>
1.1832571

>  <a_nB>
0

>  <a_nBr>
0

>  <a_nC>
26

>  <a_nCl>
0

>  <a_nF>
0

>  <a_nH>
40

>  <a_nI>
0

>  <a_nN>
0

>  <a_nO>
3

>  <a_nP>
0

>  <a_nS>
0

>  <balabanJ>
1.3950294

>  <BCUT_PEOE_0>
-2.9444714

>  <BCUT_PEOE_1>
-0.40906292

>  <BCUT_PEOE_2>
0.36864606

>  <BCUT_PEOE_3>
2.9575469

>  <BCUT_SLOGP_0>
-2.862937

>  <BCUT_SLOGP_1>
-0.31555155

>  <BCUT_SLOGP_2>
0.39746964

>  <BCUT_SLOGP_3>
3.0349367

>  <BCUT_SMR_0>
-2.6884811

>  <BCUT_SMR_1>
-0.23558235

>  <BCUT_SMR_2>
0.54443038

>  <BCUT_SMR_3>
3.2103505

>  <bpol>
47.56028

>  <b_1rotN>
6

>  <b_1rotR>
0.1875

>  <b_ar>
0

>  <b_count>
72

>  <b_double>
3

>  <b_heavy>
32

>  <b_max1len>
7

>  <b_rotN>
7

>  <b_rotR>
0.21875

>  <b_single>
69

>  <b_triple>
0

>  <chi0>
20.648054

>  <chi0v>
18.803885

>  <chi0v_C>
17.57914

>  <chi0_C>
17.940947

>  <chi1>
13.881013

>  <chi1v>
12.315984

>  <chi1v_C>
11.467909

>  <chi1_C>
11.909816

>  <chiral>
6

>  <chiral_u>
0

>  <density>
0.66701829

>  <diameter>
17

>  <FCharge>
0

>  <GCUT_PEOE_0>
-0.79991335

>  <GCUT_PEOE_1>
-0.37558487

>  <GCUT_PEOE_2>
-0.055533238

>  <GCUT_PEOE_3>
3.3386977

>  <GCUT_SLOGP_0>
-0.851677

>  <GCUT_SLOGP_1>
-0.27463555

>  <GCUT_SLOGP_2>
-0.001354116

>  <GCUT_SLOGP_3>
3.4245753

>  <GCUT_SMR_0>
-0.53930646

>  <GCUT_SMR_1>
-0.18238252

>  <GCUT_SMR_2>
0.088447258

>  <GCUT_SMR_3>
3.5638361

>  <Kier1>
22.203125

>  <Kier2>
8.859375

>  <Kier3>
4.0934258

>  <KierA1>
20.241552

>  <KierA2>
8.0489368

>  <KierA3>
3.7095613

>  <KierFlex>
5.6180339

>  <lip_acc>
3

>  <lip_don>
0

>  <lip_druglike>
1

>  <lip_violation>
1

>  <logP(o/w)>
5.934

>  <logS>
-7.34479

>  <mr>
11.688134

>  <mutagenic>
0

>  <nmol>
1

>  <opr_brigid>
20

>  <opr_leadlike>
1

>  <opr_nring>
4

>  <opr_nrot>
6

>  <opr_violation>
1

>  <PC+>
0

>  <PC->
0

>  <PEOE_PC+>
1.7126678

>  <PEOE_PC->
-1.7126678

>  <PEOE_RPC+>
0.1532295

>  <PEOE_RPC->
0.18177629

>  <PEOE_VSA+0>
179.48729

>  <PEOE_VSA+1>
13.4357

>  <PEOE_VSA+2>
0

>  <PEOE_VSA+3>
8.458519

>  <PEOE_VSA+4>
0

>  <PEOE_VSA+5>
14.708499

>  <PEOE_VSA+6>
0

>  <PEOE_VSA-0>
81.86541

>  <PEOE_VSA-1>
84.555511

>  <PEOE_VSA-2>
0

>  <PEOE_VSA-3>
0

>  <PEOE_VSA-4>
0

>  <PEOE_VSA-5>
27.133842

>  <PEOE_VSA-6>
2.503756

>  <PEOE_VSA_FHYD>
0.89240265

>  <PEOE_VSA_FNEG>
0.47569871

>  <PEOE_VSA_FPNEG>
0.071909994

>  <PEOE_VSA_FPOL>
0.10759737

>  <PEOE_VSA_FPOS>
0.52430129

>  <PEOE_VSA_FPPOS>
0.035687376

>  <PEOE_VSA_HYD>
367.80243

>  <PEOE_VSA_NEG>
196.05852

>  <PEOE_VSA_PNEG>
29.637598

>  <PEOE_VSA_POL>
44.346096

>  <PEOE_VSA_POS>
216.09001

>  <PEOE_VSA_PPOS>
14.708499

>  <petitjean>
0.47058824

>  <petitjeanSC>
0.8888889

>  <Q_PC+>
0

>  <Q_PC->
0

>  <Q_RPC+>
0

>  <Q_RPC->
0

>  <Q_VSA_FHYD>
1

>  <Q_VSA_FNEG>
0

>  <Q_VSA_FPNEG>
0

>  <Q_VSA_FPOL>
0

>  <Q_VSA_FPOS>
1

>  <Q_VSA_FPPOS>
0

>  <Q_VSA_HYD>
412.14853

>  <Q_VSA_NEG>
0

>  <Q_VSA_PNEG>
0

>  <Q_VSA_POL>
0

>  <Q_VSA_POS>
412.14853

>  <Q_VSA_PPOS>
0

>  <radius>
9

>  <reactive>
1

>  <rings>
4

>  <RPC+>
0

>  <RPC->
0

>  <rsynth>
0.27586207

>  <SlogP>
6.4004998

>  <SlogP_VSA0>
0

>  <SlogP_VSA1>
13.433075

>  <SlogP_VSA2>
65.19297

>  <SlogP_VSA3>
0

>  <SlogP_VSA4>
13.232388

>  <SlogP_VSA5>
3.185575

>  <SlogP_VSA6>
0

>  <SlogP_VSA7>
17.643185

>  <SlogP_VSA8>
245.28928

>  <SlogP_VSA9>
99.978043

>  <SMR>
11.5349

>  <SMR_VSA0>
58.724319

>  <SMR_VSA1>
0

>  <SMR_VSA2>
13.232388

>  <SMR_VSA3>
9.6542244

>  <SMR_VSA4>
0

>  <SMR_VSA5>
262.93246

>  <SMR_VSA6>
13.433075

>  <SMR_VSA7>
99.978043

>  <TPSA>
43.369999

>  <VAdjEq>
0.38828552

>  <VAdjMa>
6

>  <VDistEq>
3.6863244

>  <VDistMa>
9.3890514

>  <vdw_area>
412.14853

>  <vdw_vol>
600.58771

>  <vsa_acc>
27.133842

>  <vsa_acid>
0

>  <vsa_base>
0

>  <vsa_don>
0

>  <vsa_hyd>
326.83694

>  <vsa_other>
25.670774

>  <vsa_pol>
27.133842

>  <Weight>
400.603

>  <weinerPath>
2340

>  <weinerPol>
54

>  <zagreb>
160

$$$$