O(C(=O)c1c2c([nH]c1)cccc2)C1CC2N(C(C1)CC2)C
  MOE2013           2D

 21 24  0  0  1  0  0  0  0  0999 V2000
    0.0000    0.0000    0.0000 O   0  0  0  0  0  0  0  0  0  0  0  0
   -1.2830   -0.7770    0.0000 C   0  0  0  0  0  0  0  0  0  0  0  0
   -1.2520   -2.2760    0.0000 O   0  0  0  0  0  0  0  0  0  0  0  0
   -2.5980   -0.0540    0.0000 C   0  0  0  0  0  0  0  0  0  0  0  0
   -3.9550   -0.6920    0.0000 C   0  0  0  0  0  0  0  0  0  0  0  0
   -4.9810    0.4010    0.0000 C   0  0  0  0  0  0  0  0  0  0  0  0
   -4.2590    1.7160    0.0000 N   0  0  0  0  0  0  0  0  0  0  0  0
   -2.7850    1.4340    0.0000 C   0  0  0  0  0  0  0  0  0  0  0  0
   -6.4420    0.0590    0.0000 C   0  0  0  0  0  0  0  0  0  0  0  0
   -6.8760   -1.3770    0.0000 C   0  0  0  0  0  0  0  0  0  0  0  0
   -5.8490   -2.4700    0.0000 C   0  0  0  0  0  0  0  0  0  0  0  0
   -4.3890   -2.1280    0.0000 C   0  0  0  0  0  0  0  0  0  0  0  0
    1.3140   -0.7230    0.0000 C   0  0  0  0  0  0  0  0  0  0  0  0
    2.5420   -0.9070    0.0000 C   0  0  0  0  0  0  0  0  0  0  0  0
    4.0760    0.0220    0.0000 C   0  0  3  0  0  0  0  0  0  0  0  0
    5.0650   -1.1300    0.0000 N   0  0  0  0  0  0  0  0  0  0  0  0
    3.7600   -0.9700    0.0000 C   0  0  3  0  0  0  0  0  0  0  0  0
    2.3130   -1.8770    0.0000 C   0  0  0  0  0  0  0  0  0  0  0  0
    3.5910    0.4600    0.0000 C   0  0  0  0  0  0  0  0  0  0  0  0
    4.2090    1.6420    0.0000 C   0  0  0  0  0  0  0  0  0  0  0  0
    6.3870   -1.8380    0.0000 C   0  0  0  0  0  0  0  0  0  0  0  0
  1  2  1  0  0  0  0
  1 13  1  0  0  0  0
  2  3  2  0  0  0  0
  2  4  1  0  0  0  0
  4  5  1  0  0  0  0
  4  8  2  0  0  0  0
  5  6  1  0  0  0  0
  5 12  2  0  0  0  0
  6  7  1  0  0  0  0
  6  9  2  0  0  0  0
  7  8  1  0  0  0  0
  9 10  1  0  0  0  0
 10 11  2  0  0  0  0
 11 12  1  0  0  0  0
 13 14  1  0  0  0  0
 13 18  1  0  0  0  0
 14 15  1  0  0  0  0
 15 16  1  0  0  0  0
 15 20  1  0  0  0  0
 16 17  1  0  0  0  0
 16 21  1  0  0  0  0
 17 18  1  0  0  0  0
 17 19  1  0  0  0  0
 19 20  1  0  0  0  0
M  END
>  <Index>
1119

>  <ID>
HT2141

>  <class>
0

>  <apol>
47.05986

>  <ast_fraglike>
1

>  <ast_fraglike_ext>
0

>  <ast_violation>
0

>  <ast_violation_ext>
1

>  <a_acc>
2

>  <a_acid>
0

>  <a_aro>
9

>  <a_base>
0

>  <a_count>
41

>  <a_don>
1

>  <a_donacc>
3

>  <a_heavy>
21

>  <a_hyd>
16

>  <a_IC>
59.734203

>  <a_ICM>
1.4569317

>  <a_nB>
0

>  <a_nBr>
0

>  <a_nC>
17

>  <a_nCl>
0

>  <a_nF>
0

>  <a_nH>
20

>  <a_nI>
0

>  <a_nN>
2

>  <a_nO>
2

>  <a_nP>
0

>  <a_nS>
0

>  <balabanJ>
1.3499986

>  <BCUT_PEOE_0>
-2.7510927

>  <BCUT_PEOE_1>
-0.61784679

>  <BCUT_PEOE_2>
0.63049483

>  <BCUT_PEOE_3>
2.8485382

>  <BCUT_SLOGP_0>
-2.8022246

>  <BCUT_SLOGP_1>
-0.55572325

>  <BCUT_SLOGP_2>
0.69411159

>  <BCUT_SLOGP_3>
2.8505836

>  <BCUT_SMR_0>
-2.492754

>  <BCUT_SMR_1>
-0.4788152

>  <BCUT_SMR_2>
0.75387645

>  <BCUT_SMR_3>
3.1039436

>  <bpol>
27.378139

>  <b_1rotN>
2

>  <b_1rotR>
0.083333336

>  <b_ar>
10

>  <b_count>
44

>  <b_double>
1

>  <b_heavy>
24

>  <b_max1len>
2

>  <b_rotN>
3

>  <b_rotR>
0.125

>  <b_single>
33

>  <b_triple>
0

>  <chi0>
14.396976

>  <chi0v>
12.210939

>  <chi0v_C>
10.447229

>  <chi0_C>
11.405413

>  <chi1>
10.220346

>  <chi1v>
7.7117524

>  <chi1v_C>
5.565515

>  <chi1_C>
6.6742344

>  <chiral>
2

>  <chiral_u>
2

>  <density>
0.71802175

>  <diameter>
11

>  <FCharge>
0

>  <GCUT_PEOE_0>
-0.86034185

>  <GCUT_PEOE_1>
-0.39209619

>  <GCUT_PEOE_2>
0.067148618

>  <GCUT_PEOE_3>
2.7827435

>  <GCUT_SLOGP_0>
-0.95952439

>  <GCUT_SLOGP_1>
-0.3005459

>  <GCUT_SLOGP_2>
0.13904031

>  <GCUT_SLOGP_3>
2.8143108

>  <GCUT_SMR_0>
-0.53000486

>  <GCUT_SMR_1>
-0.22441927

>  <GCUT_SMR_2>
0.16704573

>  <GCUT_SMR_3>
3.0237827

>  <Kier1>
14.583333

>  <Kier2>
5.8938775

>  <Kier3>
2.6988754

>  <KierA1>
11.56813

>  <KierA2>
4.6172185

>  <KierA3>
2.0940452

>  <KierFlex>
2.5434566

>  <lip_acc>
4

>  <lip_don>
1

>  <lip_druglike>
1

>  <lip_violation>
0

>  <logP(o/w)>
3.517

>  <logS>
-3.05916

>  <mr>
8.1491804

>  <mutagenic>
0

>  <nmol>
1

>  <opr_brigid>
19

>  <opr_leadlike>
1

>  <opr_nring>
4

>  <opr_nrot>
5

>  <opr_violation>
0

>  <PC+>
0

>  <PC->
0

>  <PEOE_PC+>
1.5411583

>  <PEOE_PC->
-1.5411583

>  <PEOE_RPC+>
0.19213068

>  <PEOE_RPC->
0.23351182

>  <PEOE_VSA+0>
87.395943

>  <PEOE_VSA+1>
32.705784

>  <PEOE_VSA+2>
0

>  <PEOE_VSA+3>
8.6190128

>  <PEOE_VSA+4>
0

>  <PEOE_VSA+5>
14.708499

>  <PEOE_VSA+6>
0

>  <PEOE_VSA-0>
70.298843

>  <PEOE_VSA-1>
36.764713

>  <PEOE_VSA-2>
0

>  <PEOE_VSA-3>
0

>  <PEOE_VSA-4>
0

>  <PEOE_VSA-5>
13.566921

>  <PEOE_VSA-6>
2.6406472

>  <PEOE_VSA_FHYD>
0.8840794

>  <PEOE_VSA_FNEG>
0.4622083

>  <PEOE_VSA_FPNEG>
0.060770698

>  <PEOE_VSA_FPOL>
0.1159206

>  <PEOE_VSA_FPOS>
0.53779167

>  <PEOE_VSA_FPPOS>
0.055149902

>  <PEOE_VSA_HYD>
235.7843

>  <PEOE_VSA_NEG>
123.27113

>  <PEOE_VSA_PNEG>
16.207567

>  <PEOE_VSA_POL>
30.916067

>  <PEOE_VSA_POS>
143.42924

>  <PEOE_VSA_PPOS>
14.708499

>  <petitjean>
0.45454547

>  <petitjeanSC>
0.83333331

>  <Q_PC+>
0

>  <Q_PC->
0

>  <Q_RPC+>
0

>  <Q_RPC->
0

>  <Q_VSA_FHYD>
1

>  <Q_VSA_FNEG>
0

>  <Q_VSA_FPNEG>
0

>  <Q_VSA_FPOL>
0

>  <Q_VSA_FPOS>
1

>  <Q_VSA_FPPOS>
0

>  <Q_VSA_HYD>
266.70038

>  <Q_VSA_NEG>
0

>  <Q_VSA_PNEG>
0

>  <Q_VSA_POL>
0

>  <Q_VSA_POS>
266.70038

>  <Q_VSA_PPOS>
0

>  <radius>
6

>  <reactive>
0

>  <rings>
4

>  <RPC+>
0

>  <RPC->
0

>  <rsynth>
1

>  <SlogP>
2.9498999

>  <SlogP_VSA0>
0

>  <SlogP_VSA1>
10.869778

>  <SlogP_VSA2>
42.218002

>  <SlogP_VSA3>
0

>  <SlogP_VSA4>
27.047791

>  <SlogP_VSA5>
32.897186

>  <SlogP_VSA6>
0

>  <SlogP_VSA7>
92.504196

>  <SlogP_VSA8>
75.473625

>  <SlogP_VSA9>
0

>  <SMR>
8.1309204

>  <SMR_VSA0>
34.862103

>  <SMR_VSA1>
3.1243138

>  <SMR_VSA2>
16.78553

>  <SMR_VSA3>
17.618162

>  <SMR_VSA4>
4.7171016

>  <SMR_VSA5>
163.26071

>  <SMR_VSA6>
7.7454643

>  <SMR_VSA7>
32.897186

>  <TPSA>
45.330002

>  <VAdjEq>
0.49641782

>  <VAdjMa>
5.5849624

>  <VDistEq>
3.2161207

>  <VDistMa>
8.4714565

>  <vdw_area>
266.70038

>  <vdw_vol>
396.03119

>  <vsa_acc>
13.566921

>  <vsa_acid>
0

>  <vsa_base>
0

>  <vsa_don>
5.6825762

>  <vsa_hyd>
213.64117

>  <vsa_other>
17.212255

>  <vsa_pol>
19.249496

>  <Weight>
284.35901

>  <weinerPath>
944

>  <weinerPol>
33

>  <zagreb>
118

$$$$