S(O)(=O)(=O)c1cc2c(ccc(S(O)(=O)=O)c2)c(N=Nc2c3c(cccc3)c(S(O)(=O)=O)cc2)c1O
  MOE2013           2D

 35 38  0  0  0  0  0  0  0  0999 V2000
    0.0000    0.0000    0.0000 S   0  0  0  0  0  0  0  0  0  0  0  0
   -0.0020    1.5000    0.0000 O   0  0  0  0  0  0  0  0  0  0  0  0
    1.5000    0.0020    0.0000 O   0  0  0  0  0  0  0  0  0  0  0  0
   -1.5000   -0.0020    0.0000 O   0  0  0  0  0  0  0  0  0  0  0  0
    0.0020   -1.5000    0.0000 C   0  0  0  0  0  0  0  0  0  0  0  0
    1.3020   -2.2480    0.0000 C   0  0  0  0  0  0  0  0  0  0  0  0
    1.3050   -3.7480    0.0000 C   0  0  0  0  0  0  0  0  0  0  0  0
    0.0070   -4.5000    0.0000 C   0  0  0  0  0  0  0  0  0  0  0  0
    0.0090   -6.0000    0.0000 C   0  0  0  0  0  0  0  0  0  0  0  0
    1.3090   -6.7480    0.0000 C   0  0  0  0  0  0  0  0  0  0  0  0
    2.6070   -5.9960    0.0000 C   0  0  0  0  0  0  0  0  0  0  0  0
    3.9070   -6.7440    0.0000 S   0  0  0  0  0  0  0  0  0  0  0  0
    5.2070   -7.4920    0.0000 O   0  0  0  0  0  0  0  0  0  0  0  0
    4.6550   -5.4440    0.0000 O   0  0  0  0  0  0  0  0  0  0  0  0
    3.1590   -8.0440    0.0000 O   0  0  0  0  0  0  0  0  0  0  0  0
    2.6050   -4.4960    0.0000 C   0  0  0  0  0  0  0  0  0  0  0  0
   -1.2930   -3.7520    0.0000 C   0  0  0  0  0  0  0  0  0  0  0  0
   -2.5910   -4.5040    0.0000 N   0  0  0  0  0  0  0  0  0  0  0  0
   -3.8920   -3.7560    0.0000 N   0  0  0  0  0  0  0  0  0  0  0  0
   -5.1890   -4.5080    0.0000 C   0  0  0  0  0  0  0  0  0  0  0  0
   -6.4900   -3.7600    0.0000 C   0  0  0  0  0  0  0  0  0  0  0  0
   -7.7880   -4.5120    0.0000 C   0  0  0  0  0  0  0  0  0  0  0  0
   -9.0880   -3.7630    0.0000 C   0  0  0  0  0  0  0  0  0  0  0  0
   -9.0900   -2.2630    0.0000 C   0  0  0  0  0  0  0  0  0  0  0  0
   -7.7920   -1.5120    0.0000 C   0  0  0  0  0  0  0  0  0  0  0  0
   -6.4920   -2.2600    0.0000 C   0  0  0  0  0  0  0  0  0  0  0  0
   -7.7850   -6.0120    0.0000 C   0  0  0  0  0  0  0  0  0  0  0  0
   -9.0830   -6.7630    0.0000 S   0  0  0  0  0  0  0  0  0  0  0  0
  -10.3810   -7.5150    0.0000 O   0  0  0  0  0  0  0  0  0  0  0  0
   -9.8350   -5.4660    0.0000 O   0  0  0  0  0  0  0  0  0  0  0  0
   -8.3310   -8.0610    0.0000 O   0  0  0  0  0  0  0  0  0  0  0  0
   -6.4850   -6.7600    0.0000 C   0  0  0  0  0  0  0  0  0  0  0  0
   -5.1870   -6.0080    0.0000 C   0  0  0  0  0  0  0  0  0  0  0  0
   -1.2960   -2.2520    0.0000 C   0  0  0  0  0  0  0  0  0  0  0  0
   -2.5960   -1.5040    0.0000 O   0  0  0  0  0  0  0  0  0  0  0  0
  1  2  1  0  0  0  0
  1  3  2  0  0  0  0
  1  4  2  0  0  0  0
  1  5  1  0  0  0  0
  5  6  2  0  0  0  0
  5 34  1  0  0  0  0
  6  7  1  0  0  0  0
  7  8  1  0  0  0  0
  7 16  2  0  0  0  0
  8  9  2  0  0  0  0
  8 17  1  0  0  0  0
  9 10  1  0  0  0  0
 10 11  2  0  0  0  0
 11 12  1  0  0  0  0
 11 16  1  0  0  0  0
 12 13  1  0  0  0  0
 12 14  2  0  0  0  0
 12 15  2  0  0  0  0
 17 18  1  0  0  0  0
 17 34  2  0  0  0  0
 18 19  2  3  0  0  0
 19 20  1  0  0  0  0
 20 21  1  0  0  0  0
 20 33  2  0  0  0  0
 21 22  1  0  0  0  0
 21 26  2  0  0  0  0
 22 23  2  0  0  0  0
 22 27  1  0  0  0  0
 23 24  1  0  0  0  0
 24 25  2  0  0  0  0
 25 26  1  0  0  0  0
 27 28  1  0  0  0  0
 27 32  2  0  0  0  0
 28 29  1  0  0  0  0
 28 30  2  0  0  0  0
 28 31  2  0  0  0  0
 32 33  1  0  0  0  0
 34 35  1  0  0  0  0
M  END
>  <Index>
1396

>  <ID>
HT3916

>  <class>
0

>  <apol>
63.455101

>  <ast_fraglike>
0

>  <ast_fraglike_ext>
0

>  <ast_violation>
4

>  <ast_violation_ext>
6

>  <a_acc>
12

>  <a_acid>
0

>  <a_aro>
20

>  <a_base>
0

>  <a_count>
49

>  <a_don>
10

>  <a_donacc>
22

>  <a_heavy>
35

>  <a_hyd>
20

>  <a_IC>
95.405083

>  <a_ICM>
1.9470425

>  <a_nB>
0

>  <a_nBr>
0

>  <a_nC>
20

>  <a_nCl>
0

>  <a_nF>
0

>  <a_nH>
14

>  <a_nI>
0

>  <a_nN>
2

>  <a_nO>
10

>  <a_nP>
0

>  <a_nS>
3

>  <balabanJ>
1.4890444

>  <BCUT_PEOE_0>
-2.2743483

>  <BCUT_PEOE_1>
-0.80406749

>  <BCUT_PEOE_2>
0.72273463

>  <BCUT_PEOE_3>
2.4014437

>  <BCUT_SLOGP_0>
-2.288203

>  <BCUT_SLOGP_1>
-0.72122645

>  <BCUT_SLOGP_2>
0.81844944

>  <BCUT_SLOGP_3>
2.5041044

>  <BCUT_SMR_0>
-1.9618714

>  <BCUT_SMR_1>
-0.58057761

>  <BCUT_SMR_2>
0.94370848

>  <BCUT_SMR_3>
2.7111876

>  <bpol>
36.052898

>  <b_1rotN>
5

>  <b_1rotR>
0.13157895

>  <b_ar>
22

>  <b_count>
52

>  <b_double>
1

>  <b_heavy>
38

>  <b_max1len>
3

>  <b_rotN>
5

>  <b_rotR>
0.13157895

>  <b_single>
29

>  <b_triple>
0

>  <chi0>
25.758783

>  <chi0v>
19.580509

>  <chi0v_C>
10.773502

>  <chi0_C>
12.84457

>  <chi1>
16.175688

>  <chi1v>
13.654524

>  <chi1v_C>
6.3034182

>  <chi1_C>
8.9158163

>  <chiral>
0

>  <chiral_u>
0

>  <density>
0.95949531

>  <diameter>
14

>  <FCharge>
0

>  <GCUT_PEOE_0>
-0.74974245

>  <GCUT_PEOE_1>
-0.47295973

>  <GCUT_PEOE_2>
0.1194466

>  <GCUT_PEOE_3>
2.6554391

>  <GCUT_SLOGP_0>
-0.80627429

>  <GCUT_SLOGP_1>
-0.42255145

>  <GCUT_SLOGP_2>
0.20431253

>  <GCUT_SLOGP_3>
2.7985139

>  <GCUT_SMR_0>
-0.42876336

>  <GCUT_SMR_1>
-0.19951579

>  <GCUT_SMR_2>
0.3259615

>  <GCUT_SMR_3>
2.9443169

>  <Kier1>
28.01939

>  <Kier2>
10.285

>  <Kier3>
6.0277009

>  <KierA1>
24.639027

>  <KierA2>
9.0085707

>  <KierA3>
5.2645822

>  <KierFlex>
6.341783

>  <lip_acc>
12

>  <lip_don>
4

>  <lip_druglike>
0

>  <lip_violation>
2

>  <logP(o/w)>
2.803

>  <logS>
-6.8217001

>  <mr>
12.330043

>  <mutagenic>
1

>  <nmol>
1

>  <opr_brigid>
23

>  <opr_leadlike>
0

>  <opr_nring>
4

>  <opr_nrot>
5

>  <opr_violation>
2

>  <PC+>
0

>  <PC->
0

>  <PEOE_PC+>
3.1318166

>  <PEOE_PC->
-3.1318166

>  <PEOE_RPC+>
0.10520191

>  <PEOE_RPC->
0.1118523

>  <PEOE_VSA+0>
31.135427

>  <PEOE_VSA+1>
107.04427

>  <PEOE_VSA+2>
41.2379

>  <PEOE_VSA+3>
0

>  <PEOE_VSA+4>
18.782692

>  <PEOE_VSA+5>
4.1846013

>  <PEOE_VSA+6>
8.3692026

>  <PEOE_VSA-0>
36.764713

>  <PEOE_VSA-1>
36.764713

>  <PEOE_VSA-2>
18.842079

>  <PEOE_VSA-3>
0

>  <PEOE_VSA-4>
96.049568

>  <PEOE_VSA-5>
30.626642

>  <PEOE_VSA-6>
7.7675405

>  <PEOE_VSA_FHYD>
0.6211338

>  <PEOE_VSA_FNEG>
0.51835269

>  <PEOE_VSA_FPNEG>
0.3072513

>  <PEOE_VSA_FPOL>
0.37886623

>  <PEOE_VSA_FPOS>
0.48164731

>  <PEOE_VSA_FPPOS>
0.071614921

>  <PEOE_VSA_HYD>
271.78909

>  <PEOE_VSA_NEG>
226.81526

>  <PEOE_VSA_PNEG>
134.44376

>  <PEOE_VSA_POL>
165.78024

>  <PEOE_VSA_POS>
210.7541

>  <PEOE_VSA_PPOS>
31.336496

>  <petitjean>
0.5

>  <petitjeanSC>
1

>  <Q_PC+>
0

>  <Q_PC->
0

>  <Q_RPC+>
0

>  <Q_RPC->
0

>  <Q_VSA_FHYD>
1

>  <Q_VSA_FNEG>
0

>  <Q_VSA_FPNEG>
0

>  <Q_VSA_FPOL>
0

>  <Q_VSA_FPOS>
1

>  <Q_VSA_FPPOS>
0

>  <Q_VSA_HYD>
437.56937

>  <Q_VSA_NEG>
0

>  <Q_VSA_PNEG>
0

>  <Q_VSA_POL>
0

>  <Q_VSA_POS>
437.56937

>  <Q_VSA_PPOS>
0

>  <radius>
7

>  <reactive>
1

>  <rings>
4

>  <RPC+>
0

>  <RPC->
0

>  <rsynth>
0.11428571

>  <SlogP>
2.1570001

>  <SlogP_VSA0>
94.177483

>  <SlogP_VSA1>
144.51506

>  <SlogP_VSA2>
25.749445

>  <SlogP_VSA3>
0

>  <SlogP_VSA4>
0

>  <SlogP_VSA5>
37.978218

>  <SlogP_VSA6>
0

>  <SlogP_VSA7>
186.72369

>  <SlogP_VSA8>
0

>  <SlogP_VSA9>
10.756924

>  <SMR>
12.19506

>  <SMR_VSA0>
144.51506

>  <SMR_VSA1>
127.5035

>  <SMR_VSA2>
4.6522017

>  <SMR_VSA3>
5.2434282

>  <SMR_VSA4>
15.805352

>  <SMR_VSA5>
176.43184

>  <SMR_VSA6>
0

>  <SMR_VSA7>
25.749445

>  <TPSA>
208.06

>  <VAdjEq>
0.33549348

>  <VAdjMa>
6.2479277

>  <VDistEq>
3.6532245

>  <VDistMa>
9.9878559

>  <vdw_area>
437.56937

>  <vdw_vol>
561.26801

>  <vsa_acc>
18.842079

>  <vsa_acid>
0

>  <vsa_base>
0

>  <vsa_don>
0

>  <vsa_hyd>
201.33054

>  <vsa_other>
34.538349

>  <vsa_pol>
176.48335

>  <Weight>
538.534

>  <weinerPath>
3654

>  <weinerPol>
64

>  <zagreb>
196

$$$$