O1C(C)C(O)C(N)C(O)C1OC1CC2OC(O)(CC(O)C2C(O)=O)CC(O)CC(O)CC(O)CC(=O)CCCC(=O)CC(OC(C(CC(C(O)CC(=O)c2ccc(N)cc2)C)C)C(C=CC=CC=CC=CC=CC=CC=C1)C)=O
  MOE2013           2D

 79 82  0  0  1  0  0  0  0  0999 V2000
   -1.4260    1.1140    0.0000 O   0  0  0  0  0  0  0  0  0  0  0  0
   -2.1510    2.4160    0.0000 C   0  0  3  0  0  0  0  0  0  0  0  0
   -1.3850    3.7150    0.0000 C   0  0  0  0  0  0  0  0  0  0  0  0
   -3.6540    2.4470    0.0000 C   0  0  3  0  0  0  0  0  0  0  0  0
   -4.3890    3.7470    0.0000 O   0  0  0  0  0  0  0  0  0  0  0  0
   -4.4080    1.1430    0.0000 C   0  0  3  0  0  0  0  0  0  0  0  0
   -5.9250    1.1840    0.0000 N   0  0  0  0  0  0  0  0  0  0  0  0
   -3.6950   -0.1500    0.0000 C   0  0  3  0  0  0  0  0  0  0  0  0
   -4.4370   -1.4560    0.0000 O   0  0  0  0  0  0  0  0  0  0  0  0
   -2.1580   -0.1960    0.0000 C   0  0  3  0  0  0  0  0  0  0  0  0
   -1.4830   -1.4870    0.0000 O   0  0  0  0  0  0  0  0  0  0  0  0
   -0.0960   -1.8680    0.0000 C   0  0  3  0  0  0  0  0  0  0  0  0
    0.3490   -3.2570    0.0000 C   0  0  0  0  0  0  0  0  0  0  0  0
    0.9570   -4.3320    0.0000 C   0  0  3  0  0  0  0  0  0  0  0  0
    2.3860   -4.6090    0.0000 O   0  0  0  0  0  0  0  0  0  0  0  0
    2.6590   -6.2190    0.0000 C   0  0  3  0  0  0  0  0  0  0  0  0
    3.9040   -5.3290    0.0000 O   0  0  0  0  0  0  0  0  0  0  0  0
    1.4840   -7.0960    0.0000 C   0  0  0  0  0  0  0  0  0  0  0  0
    0.0200   -6.5880    0.0000 C   0  0  3  0  0  0  0  0  0  0  0  0
   -0.9270   -7.7400    0.0000 O   0  0  0  0  0  0  0  0  0  0  0  0
   -0.2730   -4.9680    0.0000 C   0  0  3  0  0  0  0  0  0  0  0  0
    0.8100   -5.8810    0.0000 C   0  0  0  0  0  0  0  0  0  0  0  0
    2.1810   -5.5350    0.0000 O   0  0  0  0  0  0  0  0  0  0  0  0
    0.4810   -7.5320    0.0000 O   0  0  0  0  0  0  0  0  0  0  0  0
    3.6230   -6.9550    0.0000 C   0  0  0  0  0  0  0  0  0  0  0  0
    4.4700   -8.1290    0.0000 C   0  0  3  0  0  0  0  0  0  0  0  0
    3.8150   -9.4960    0.0000 O   0  0  0  0  0  0  0  0  0  0  0  0
    5.9710   -8.0780    0.0000 C   0  0  0  0  0  0  0  0  0  0  0  0
    6.7970   -9.3210    0.0000 C   0  0  3  0  0  0  0  0  0  0  0  0
    6.1450  -10.6750    0.0000 O   0  0  0  0  0  0  0  0  0  0  0  0
    8.3060   -9.2250    0.0000 C   0  0  0  0  0  0  0  0  0  0  0  0
    9.1460  -10.4520    0.0000 C   0  0  3  0  0  0  0  0  0  0  0  0
    8.4140  -11.8060    0.0000 O   0  0  0  0  0  0  0  0  0  0  0  0
   10.5950  -10.4740    0.0000 C   0  0  0  0  0  0  0  0  0  0  0  0
   11.5150   -9.3160    0.0000 C   0  0  0  0  0  0  0  0  0  0  0  0
   10.9960   -7.9050    0.0000 O   0  0  0  0  0  0  0  0  0  0  0  0
   13.0110   -9.5530    0.0000 C   0  0  0  0  0  0  0  0  0  0  0  0
   13.9700   -8.4090    0.0000 C   0  0  0  0  0  0  0  0  0  0  0  0
   15.4470   -8.6750    0.0000 C   0  0  0  0  0  0  0  0  0  0  0  0
   16.4410   -7.5480    0.0000 C   0  0  0  0  0  0  0  0  0  0  0  0
   17.9260   -7.9110    0.0000 O   0  0  0  0  0  0  0  0  0  0  0  0
   16.0270   -6.1430    0.0000 C   0  0  0  0  0  0  0  0  0  0  0  0
   17.1040   -5.0130    0.0000 C   0  0  0  0  0  0  0  0  0  0  0  0
   16.7510   -3.6770    0.0000 O   0  0  0  0  0  0  0  0  0  0  0  0
   17.1500   -2.3410    0.0000 C   0  0  3  0  0  0  0  0  0  0  0  0
   18.5520   -1.7750    0.0000 C   0  0  3  0  0  0  0  0  0  0  0  0
   19.7570   -2.6350    0.0000 C   0  0  0  0  0  0  0  0  0  0  0  0
   21.1510   -2.0400    0.0000 C   0  0  3  0  0  0  0  0  0  0  0  0
   22.3450   -2.9530    0.0000 C   0  0  3  0  0  0  0  0  0  0  0  0
   22.0010   -4.4870    0.0000 O   0  0  0  0  0  0  0  0  0  0  0  0
   23.7190   -2.5600    0.0000 C   0  0  0  0  0  0  0  0  0  0  0  0
   24.4120   -1.3030    0.0000 C   0  0  0  0  0  0  0  0  0  0  0  0
   23.6700    0.0380    0.0000 O   0  0  0  0  0  0  0  0  0  0  0  0
   25.9370   -1.2150    0.0000 C   0  0  0  0  0  0  0  0  0  0  0  0
   26.5950    0.1280    0.0000 C   0  0  0  0  0  0  0  0  0  0  0  0
   28.1000    0.2230    0.0000 C   0  0  0  0  0  0  0  0  0  0  0  0
   28.9240   -1.0290    0.0000 C   0  0  0  0  0  0  0  0  0  0  0  0
   30.4280   -0.9350    0.0000 N   0  0  0  0  0  0  0  0  0  0  0  0
   28.2610   -2.3720    0.0000 C   0  0  0  0  0  0  0  0  0  0  0  0
   26.7530   -2.4610    0.0000 C   0  0  0  0  0  0  0  0  0  0  0  0
   21.3240   -0.5580    0.0000 C   0  0  0  0  0  0  0  0  0  0  0  0
   18.7090   -0.2600    0.0000 C   0  0  0  0  0  0  0  0  0  0  0  0
   16.0150   -1.2300    0.0000 C   0  0  3  0  0  0  0  0  0  0  0  0
   16.3460    0.1580    0.0000 C   0  0  0  0  0  0  0  0  0  0  0  0
   15.3470    1.2820    0.0000 C   0  0  0  0  0  0  0  0  0  0  0  0
   13.8780    0.9850    0.0000 C   0  0  0  0  0  0  0  0  0  0  0  0
   12.8750    2.0870    0.0000 C   0  0  0  0  0  0  0  0  0  0  0  0
   11.3950    1.7720    0.0000 C   0  0  0  0  0  0  0  0  0  0  0  0
   10.4020    2.8610    0.0000 C   0  0  0  0  0  0  0  0  0  0  0  0
    8.9960    2.8100    0.0000 C   0  0  0  0  0  0  0  0  0  0  0  0
    8.1000    1.6160    0.0000 C   0  0  0  0  0  0  0  0  0  0  0  0
    6.6130    1.8070    0.0000 C   0  0  0  0  0  0  0  0  0  0  0  0
    5.6690    0.6460    0.0000 C   0  0  0  0  0  0  0  0  0  0  0  0
    4.1920    0.8980    0.0000 C   0  0  0  0  0  0  0  0  0  0  0  0
    3.2080   -0.2400    0.0000 C   0  0  0  0  0  0  0  0  0  0  0  0
    1.7650    0.0010    0.0000 C   0  0  0  0  0  0  0  0  0  0  0  0
    0.6150   -0.6730    0.0000 C   0  0  0  0  0  0  0  0  0  0  0  0
   14.6220   -1.7820    0.0000 C   0  0  0  0  0  0  0  0  0  0  0  0
   18.5480   -5.5410    0.0000 O   0  0  0  0  0  0  0  0  0  0  0  0
  1  2  1  0  0  0  0
  1 10  1  0  0  0  0
  2  3  1  0  0  0  0
  2  4  1  0  0  0  0
  4  5  1  0  0  0  0
  4  6  1  0  0  0  0
  6  7  1  0  0  0  0
  6  8  1  0  0  0  0
  8  9  1  0  0  0  0
  8 10  1  0  0  0  0
 10 11  1  0  0  0  0
 11 12  1  0  0  0  0
 12 13  1  0  0  0  0
 12 77  1  0  0  0  0
 13 14  1  0  0  0  0
 14 15  1  0  0  0  0
 14 21  1  0  0  0  0
 15 16  1  0  0  0  0
 16 17  1  0  0  0  0
 16 18  1  0  0  0  0
 16 25  1  0  0  0  0
 18 19  1  0  0  0  0
 19 20  1  0  0  0  0
 19 21  1  0  0  0  0
 21 22  1  0  0  0  0
 22 23  1  0  0  0  0
 22 24  2  0  0  0  0
 25 26  1  0  0  0  0
 26 27  1  0  0  0  0
 26 28  1  0  0  0  0
 28 29  1  0  0  0  0
 29 30  1  0  0  0  0
 29 31  1  0  0  0  0
 31 32  1  0  0  0  0
 32 33  1  0  0  0  0
 32 34  1  0  0  0  0
 34 35  1  0  0  0  0
 35 36  2  0  0  0  0
 35 37  1  0  0  0  0
 37 38  1  0  0  0  0
 38 39  1  0  0  0  0
 39 40  1  0  0  0  0
 40 41  2  0  0  0  0
 40 42  1  0  0  0  0
 42 43  1  0  0  0  0
 43 44  1  0  0  0  0
 43 79  2  0  0  0  0
 44 45  1  0  0  0  0
 45 46  1  0  0  0  0
 45 63  1  0  0  0  0
 46 47  1  0  0  0  0
 46 62  1  0  0  0  0
 47 48  1  0  0  0  0
 48 49  1  0  0  0  0
 48 61  1  0  0  0  0
 49 50  1  0  0  0  0
 49 51  1  0  0  0  0
 51 52  1  0  0  0  0
 52 53  2  0  0  0  0
 52 54  1  0  0  0  0
 54 55  1  0  0  0  0
 54 60  2  0  0  0  0
 55 56  2  0  0  0  0
 56 57  1  0  0  0  0
 57 58  1  0  0  0  0
 57 59  2  0  0  0  0
 59 60  1  0  0  0  0
 63 64  1  0  0  0  0
 63 78  1  0  0  0  0
 64 65  2  3  0  0  0
 65 66  1  0  0  0  0
 66 67  2  3  0  0  0
 67 68  1  0  0  0  0
 68 69  2  3  0  0  0
 69 70  1  0  0  0  0
 70 71  2  3  0  0  0
 71 72  1  0  0  0  0
 72 73  2  3  0  0  0
 73 74  1  0  0  0  0
 74 75  2  3  0  0  0
 75 76  1  0  0  0  0
 76 77  2  3  0  0  0
M  END
>  <Index>
183

>  <ID>
HT0361

>  <class>
0

>  <apol>
176.48662

>  <ast_fraglike>
0

>  <ast_fraglike_ext>
0

>  <ast_violation>
4

>  <ast_violation_ext>
6

>  <a_acc>
18

>  <a_acid>
0

>  <a_aro>
6

>  <a_base>
0

>  <a_count>
163

>  <a_don>
12

>  <a_donacc>
30

>  <a_heavy>
79

>  <a_hyd>
52

>  <a_IC>
236.75343

>  <a_ICM>
1.4524751

>  <a_nB>
0

>  <a_nBr>
0

>  <a_nC>
59

>  <a_nCl>
0

>  <a_nF>
0

>  <a_nH>
84

>  <a_nI>
0

>  <a_nN>
2

>  <a_nO>
18

>  <a_nP>
0

>  <a_nS>
0

>  <balabanJ>
1.3957986

>  <BCUT_PEOE_0>
-2.7822208

>  <BCUT_PEOE_1>
-0.54726189

>  <BCUT_PEOE_2>
0.61179477

>  <BCUT_PEOE_3>
2.8327687

>  <BCUT_SLOGP_0>
-2.9567926

>  <BCUT_SLOGP_1>
-0.53807992

>  <BCUT_SLOGP_2>
0.61319077

>  <BCUT_SLOGP_3>
2.7821908

>  <BCUT_SMR_0>
-2.5718088

>  <BCUT_SMR_1>
-0.41398108

>  <BCUT_SMR_2>
0.69846451

>  <BCUT_SMR_3>
3.032093

>  <bpol>
102.96339

>  <b_1rotN>
10

>  <b_1rotR>
0.12195122

>  <b_ar>
6

>  <b_count>
166

>  <b_double>
12

>  <b_heavy>
82

>  <b_max1len>
7

>  <b_rotN>
10

>  <b_rotR>
0.12195122

>  <b_single>
148

>  <b_triple>
0

>  <chi0>
58.398037

>  <chi0v>
45.546398

>  <chi0v_C>
36.692539

>  <chi0_C>
39.569611

>  <chi1>
37.35268

>  <chi1v>
27.116547

>  <chi1v_C>
21.396851

>  <chi1_C>
24.981134

>  <chiral>
18

>  <chiral_u>
18

>  <density>
0.74191952

>  <diameter>
33

>  <FCharge>
0

>  <GCUT_PEOE_0>
-0.82156187

>  <GCUT_PEOE_1>
-0.39130518

>  <GCUT_PEOE_2>
0.081884339

>  <GCUT_PEOE_3>
3.2561536

>  <GCUT_SLOGP_0>
-1.3638116

>  <GCUT_SLOGP_1>
-0.3456986

>  <GCUT_SLOGP_2>
0.11766604

>  <GCUT_SLOGP_3>
3.2491455

>  <GCUT_SMR_0>
-0.53367829

>  <GCUT_SMR_1>
-0.22874677

>  <GCUT_SMR_2>
0.18918529

>  <GCUT_SMR_3>
3.4658148

>  <Kier1>
71.480667

>  <Kier2>
36.867188

>  <Kier3>
25.856749

>  <KierA1>
60.416527

>  <KierA2>
31.091047

>  <KierA3>
21.771986

>  <KierFlex>
23.777382

>  <lip_acc>
20

>  <lip_don>
13

>  <lip_druglike>
0

>  <lip_violation>
3

>  <logP(o/w)>
4.4120002

>  <logS>
-6.6967402

>  <mr>
29.361948

>  <mutagenic>
1

>  <nmol>
1

>  <opr_brigid>
52

>  <opr_leadlike>
0

>  <opr_nring>
3

>  <opr_nrot>
38

>  <opr_violation>
4

>  <PC+>
0

>  <PC->
0

>  <PEOE_PC+>
8.201148

>  <PEOE_PC->
-8.201148

>  <PEOE_RPC+>
0.032878328

>  <PEOE_RPC->
0.047751185

>  <PEOE_VSA+0>
240.43272

>  <PEOE_VSA+1>
193.12354

>  <PEOE_VSA+2>
56.298019

>  <PEOE_VSA+3>
20.721972

>  <PEOE_VSA+4>
92.917557

>  <PEOE_VSA+5>
29.416998

>  <PEOE_VSA+6>
0

>  <PEOE_VSA-0>
102.57255

>  <PEOE_VSA-1>
227.81169

>  <PEOE_VSA-2>
0

>  <PEOE_VSA-3>
0

>  <PEOE_VSA-4>
0

>  <PEOE_VSA-5>
67.834602

>  <PEOE_VSA-6>
93.225128

>  <PEOE_VSA_FHYD>
0.74794942

>  <PEOE_VSA_FNEG>
0.43708977

>  <PEOE_VSA_FPNEG>
0.14324637

>  <PEOE_VSA_FPOL>
0.25205058

>  <PEOE_VSA_FPOS>
0.56291026

>  <PEOE_VSA_FPPOS>
0.10880423

>  <PEOE_VSA_HYD>
840.96045

>  <PEOE_VSA_NEG>
491.44397

>  <PEOE_VSA_PNEG>
161.05972

>  <PEOE_VSA_POL>
283.39429

>  <PEOE_VSA_POS>
632.91077

>  <PEOE_VSA_PPOS>
122.33455

>  <petitjean>
0.45454547

>  <petitjeanSC>
0.83333331

>  <Q_PC+>
0

>  <Q_PC->
0

>  <Q_RPC+>
0

>  <Q_RPC->
0

>  <Q_VSA_FHYD>
1

>  <Q_VSA_FNEG>
0

>  <Q_VSA_FPNEG>
0

>  <Q_VSA_FPOL>
0

>  <Q_VSA_FPOS>
1

>  <Q_VSA_FPPOS>
0

>  <Q_VSA_HYD>
1124.3547

>  <Q_VSA_NEG>
0

>  <Q_VSA_PNEG>
0

>  <Q_VSA_POL>
0

>  <Q_VSA_POS>
1124.3547

>  <Q_VSA_PPOS>
0

>  <radius>
18

>  <reactive>
1

>  <rings>
4

>  <RPC+>
0

>  <RPC->
0

>  <rsynth>
0.62025315

>  <SlogP>
3.7697999

>  <SlogP_VSA0>
268.87619

>  <SlogP_VSA1>
32.553761

>  <SlogP_VSA2>
223.11203

>  <SlogP_VSA3>
25.385227

>  <SlogP_VSA4>
44.690975

>  <SlogP_VSA5>
0

>  <SlogP_VSA6>
0

>  <SlogP_VSA7>
317.57733

>  <SlogP_VSA8>
226.42087

>  <SlogP_VSA9>
136.06081

>  <SMR>
29.213449

>  <SMR_VSA0>
163.31064

>  <SMR_VSA1>
203.08182

>  <SMR_VSA2>
43.028412

>  <SMR_VSA3>
86.84919

>  <SMR_VSA4>
35.653934

>  <SMR_VSA5>
576.89539

>  <SMR_VSA6>
32.553761

>  <SMR_VSA7>
133.30406

>  <TPSA>
356.38

>  <VAdjEq>
0.1753673

>  <VAdjMa>
7.3575521

>  <VDistEq>
4.7892485

>  <VDistMa>
12.339494

>  <vdw_area>
1124.3547

>  <vdw_vol>
1495.1985

>  <vsa_acc>
61.778954

>  <vsa_acid>
0

>  <vsa_base>
0

>  <vsa_don>
17.742489

>  <vsa_hyd>
709.37415

>  <vsa_other>
73.113358

>  <vsa_pol>
232.93314

>  <Weight>
1109.317

>  <weinerPath>
39314

>  <weinerPol>
123

>  <zagreb>
388

$$$$