O1C(C)C(OC2OC(C)C(O)C(OC(=O)C)C2)C(O)CC1OC1C(OC(OC2CC3CCC4C(CC(O)C5(C)C(CCC45O)C4=CC(OC4)=O)C3(CC2)C)CC1O)C
  MOE2013           2D

 58 65  0  0  1  0  0  0  0  0999 V2000
    0.0000    0.0000    0.0000 O   0  0  0  0  0  0  0  0  0  0  0  0
    1.3020    0.7440    0.0000 C   0  0  3  0  0  0  0  0  0  0  0  0
    1.3090    2.2440    0.0000 C   0  0  0  0  0  0  0  0  0  0  0  0
    2.5980   -0.0110    0.0000 C   0  0  3  0  0  0  0  0  0  0  0  0
    3.9000    0.7330    0.0000 O   0  0  0  0  0  0  0  0  0  0  0  0
    5.1960   -0.0230    0.0000 C   0  0  3  0  0  0  0  0  0  0  0  0
    5.1900   -1.5230    0.0000 O   0  0  0  0  0  0  0  0  0  0  0  0
    6.4850   -2.2780    0.0000 C   0  0  3  0  0  0  0  0  0  0  0  0
    6.4790   -3.7780    0.0000 C   0  0  0  0  0  0  0  0  0  0  0  0
    7.7880   -1.5340    0.0000 C   0  0  3  0  0  0  0  0  0  0  0  0
    9.0830   -2.2900    0.0000 O   0  0  0  0  0  0  0  0  0  0  0  0
    7.7940   -0.0340    0.0000 C   0  0  3  0  0  0  0  0  0  0  0  0
    9.0960    0.7100    0.0000 O   0  0  0  0  0  0  0  0  0  0  0  0
    9.1030    2.2100    0.0000 C   0  0  0  0  0  0  0  0  0  0  0  0
   10.4050    2.9550    0.0000 O   0  0  0  0  0  0  0  0  0  0  0  0
    7.8070    2.9660    0.0000 C   0  0  0  0  0  0  0  0  0  0  0  0
    6.4980    0.7220    0.0000 C   0  0  0  0  0  0  0  0  0  0  0  0
    2.5920   -1.5110    0.0000 C   0  0  3  0  0  0  0  0  0  0  0  0
    3.8870   -2.2670    0.0000 O   0  0  0  0  0  0  0  0  0  0  0  0
    1.2890   -2.2560    0.0000 C   0  0  0  0  0  0  0  0  0  0  0  0
   -0.0070   -1.5000    0.0000 C   0  0  3  0  0  0  0  0  0  0  0  0
   -1.3090   -2.2440    0.0000 O   0  0  0  0  0  0  0  0  0  0  0  0
   -2.6050   -1.4890    0.0000 C   0  0  3  0  0  0  0  0  0  0  0  0
   -2.5980    0.0110    0.0000 C   0  0  3  0  0  0  0  0  0  0  0  0
   -3.8940    0.7670    0.0000 O   0  0  0  0  0  0  0  0  0  0  0  0
   -5.1960    0.0230    0.0000 C   0  0  3  0  0  0  0  0  0  0  0  0
   -6.4920    0.7780    0.0000 O   0  0  0  0  0  0  0  0  0  0  0  0
   -7.7940    0.0340    0.0000 C   0  0  3  0  0  0  0  0  0  0  0  0
   -9.0900    0.7900    0.0000 C   0  0  0  0  0  0  0  0  0  0  0  0
  -10.3920    0.0450    0.0000 C   0  0  3  0  0  0  0  0  0  0  0  0
  -11.6880    0.8010    0.0000 C   0  0  0  0  0  0  0  0  0  0  0  0
  -12.9900    0.0570    0.0000 C   0  0  0  0  0  0  0  0  0  0  0  0
  -12.9970   -1.4430    0.0000 C   0  0  3  0  0  0  0  0  0  0  0  0
  -11.7010   -2.1990    0.0000 C   0  0  3  0  0  0  0  0  0  0  0  0
  -11.7080   -3.6990    0.0000 C   0  0  0  0  0  0  0  0  0  0  0  0
  -13.0100   -4.4430    0.0000 C   0  0  3  0  0  0  0  0  0  0  0  0
  -13.0160   -5.9430    0.0000 O   0  0  0  0  0  0  0  0  0  0  0  0
  -14.3060   -3.6880    0.0000 C   0  0  3  0  0  0  0  0  0  0  0  0
  -14.4170   -5.1840    0.0000 C   0  0  0  0  0  0  0  0  0  0  0  0
  -15.7340   -4.1450    0.0000 C   0  0  3  0  0  0  0  0  0  0  0  0
  -16.6110   -2.9280    0.0000 C   0  0  0  0  0  0  0  0  0  0  0  0
  -15.7240   -1.7180    0.0000 C   0  0  0  0  0  0  0  0  0  0  0  0
  -14.2990   -2.1880    0.0000 C   0  0  3  0  0  0  0  0  0  0  0  0
  -14.4490   -0.6950    0.0000 O   0  0  0  0  0  0  0  0  0  0  0  0
  -16.2040   -5.5700    0.0000 C   0  0  0  0  0  0  0  0  0  0  0  0
  -17.6330   -6.0270    0.0000 C   0  0  0  0  0  0  0  0  0  0  0  0
  -17.6390   -7.5270    0.0000 C   0  0  0  0  0  0  0  0  0  0  0  0
  -16.2150   -7.9970    0.0000 O   0  0  0  0  0  0  0  0  0  0  0  0
  -15.3280   -6.7870    0.0000 C   0  0  0  0  0  0  0  0  0  0  0  0
  -18.8560   -8.4030    0.0000 O   0  0  0  0  0  0  0  0  0  0  0  0
  -10.3990   -1.4550    0.0000 C   0  0  3  0  0  0  0  0  0  0  0  0
   -9.1030   -2.2100    0.0000 C   0  0  0  0  0  0  0  0  0  0  0  0
   -7.8010   -1.4660    0.0000 C   0  0  0  0  0  0  0  0  0  0  0  0
  -10.3790   -2.9550    0.0000 C   0  0  0  0  0  0  0  0  0  0  0  0
   -5.2030   -1.4770    0.0000 C   0  0  0  0  0  0  0  0  0  0  0  0
   -3.9070   -2.2330    0.0000 C   0  0  3  0  0  0  0  0  0  0  0  0
   -3.9130   -3.7330    0.0000 O   0  0  0  0  0  0  0  0  0  0  0  0
   -1.2960    0.7560    0.0000 C   0  0  0  0  0  0  0  0  0  0  0  0
  1  2  1  0  0  0  0
  1 21  1  0  0  0  0
  2  3  1  0  0  0  0
  2  4  1  0  0  0  0
  4  5  1  0  0  0  0
  4 18  1  0  0  0  0
  5  6  1  0  0  0  0
  6  7  1  0  0  0  0
  6 17  1  0  0  0  0
  7  8  1  0  0  0  0
  8  9  1  0  0  0  0
  8 10  1  0  0  0  0
 10 11  1  0  0  0  0
 10 12  1  0  0  0  0
 12 13  1  0  0  0  0
 12 17  1  0  0  0  0
 13 14  1  0  0  0  0
 14 15  2  0  0  0  0
 14 16  1  0  0  0  0
 18 19  1  0  0  0  0
 18 20  1  0  0  0  0
 20 21  1  0  0  0  0
 21 22  1  0  0  0  0
 22 23  1  0  0  0  0
 23 24  1  0  0  0  0
 23 56  1  0  0  0  0
 24 25  1  0  0  0  0
 24 58  1  0  0  0  0
 25 26  1  0  0  0  0
 26 27  1  0  0  0  0
 26 55  1  0  0  0  0
 27 28  1  0  0  0  0
 28 29  1  0  0  0  0
 28 53  1  0  0  0  0
 29 30  1  0  0  0  0
 30 31  1  0  0  0  0
 30 51  1  0  0  0  0
 31 32  1  0  0  0  0
 32 33  1  0  0  0  0
 33 34  1  0  0  0  0
 33 43  1  0  0  0  0
 34 35  1  0  0  0  0
 34 51  1  0  0  0  0
 35 36  1  0  0  0  0
 36 37  1  0  0  0  0
 36 38  1  0  0  0  0
 38 39  1  0  0  0  0
 38 40  1  0  0  0  0
 38 43  1  0  0  0  0
 40 41  1  0  0  0  0
 40 45  1  0  0  0  0
 41 42  1  0  0  0  0
 42 43  1  0  0  0  0
 43 44  1  0  0  0  0
 45 46  2  0  0  0  0
 45 49  1  0  0  0  0
 46 47  1  0  0  0  0
 47 48  1  0  0  0  0
 47 50  2  0  0  0  0
 48 49  1  0  0  0  0
 51 52  1  0  0  0  0
 51 54  1  0  0  0  0
 52 53  1  0  0  0  0
 55 56  1  0  0  0  0
 56 57  1  0  0  0  0
M  END
>  <Index>
1413

>  <ID>
HT4010

>  <class>
0

>  <apol>
131.71834

>  <ast_fraglike>
0

>  <ast_fraglike_ext>
0

>  <ast_violation>
3

>  <ast_violation_ext>
5

>  <a_acc>
13

>  <a_acid>
0

>  <a_aro>
0

>  <a_base>
0

>  <a_count>
124

>  <a_don>
5

>  <a_donacc>
18

>  <a_heavy>
58

>  <a_hyd>
38

>  <a_IC>
171.45758

>  <a_ICM>
1.3827225

>  <a_nB>
0

>  <a_nBr>
0

>  <a_nC>
43

>  <a_nCl>
0

>  <a_nF>
0

>  <a_nH>
66

>  <a_nI>
0

>  <a_nN>
0

>  <a_nO>
15

>  <a_nP>
0

>  <a_nS>
0

>  <balabanJ>
0.82376653

>  <BCUT_PEOE_0>
-2.9918089

>  <BCUT_PEOE_1>
-0.48314074

>  <BCUT_PEOE_2>
0.57736319

>  <BCUT_PEOE_3>
3.0046449

>  <BCUT_SLOGP_0>
-2.9609213

>  <BCUT_SLOGP_1>
-0.51776415

>  <BCUT_SLOGP_2>
0.47165027

>  <BCUT_SLOGP_3>
3.0420964

>  <BCUT_SMR_0>
-2.7460811

>  <BCUT_SMR_1>
-0.37819108

>  <BCUT_SMR_2>
0.64826858

>  <BCUT_SMR_3>
3.2458844

>  <bpol>
89.39566

>  <b_1rotN>
8

>  <b_1rotR>
0.12307692

>  <b_ar>
0

>  <b_count>
131

>  <b_double>
3

>  <b_heavy>
65

>  <b_max1len>
4

>  <b_rotN>
9

>  <b_rotR>
0.13846155

>  <b_single>
128

>  <b_triple>
0

>  <chi0>
41.473598

>  <chi0v>
34.773487

>  <chi0v_C>
28.454937

>  <chi0_C>
28.816744

>  <chi1>
27.404596

>  <chi1v>
21.826626

>  <chi1v_C>
16.400921

>  <chi1_C>
16.816771

>  <chiral>
21

>  <chiral_u>
21

>  <density>
0.76376361

>  <diameter>
29

>  <FCharge>
0

>  <GCUT_PEOE_0>
-0.8040241

>  <GCUT_PEOE_1>
-0.38396645

>  <GCUT_PEOE_2>
0.079713374

>  <GCUT_PEOE_3>
3.5972476

>  <GCUT_SLOGP_0>
-0.93366587

>  <GCUT_SLOGP_1>
-0.36691085

>  <GCUT_SLOGP_2>
-0.0077747959

>  <GCUT_SLOGP_3>
3.635772

>  <GCUT_SMR_0>
-0.54082048

>  <GCUT_SMR_1>
-0.22520858

>  <GCUT_SMR_2>
0.1383418

>  <GCUT_SMR_3>
3.8092148

>  <Kier1>
44.601658

>  <Kier2>
17.181084

>  <Kier3>
8.2035675

>  <KierA1>
42.624405

>  <KierA2>
16.406109

>  <KierA3>
7.8291707

>  <KierFlex>
12.056908

>  <lip_acc>
15

>  <lip_don>
5

>  <lip_druglike>
0

>  <lip_violation>
2

>  <logP(o/w)>
3.9130001

>  <logS>
-6.2888198

>  <mr>
20.499384

>  <mutagenic>
0

>  <nmol>
1

>  <opr_brigid>
43

>  <opr_leadlike>
0

>  <opr_nring>
8

>  <opr_nrot>
14

>  <opr_violation>
4

>  <PC+>
0

>  <PC->
0

>  <PEOE_PC+>
5.791069

>  <PEOE_PC->
-5.791069

>  <PEOE_RPC+>
0.049545027

>  <PEOE_RPC->
0.067538872

>  <PEOE_VSA+0>
244.78351

>  <PEOE_VSA+1>
121.79736

>  <PEOE_VSA+2>
19.619715

>  <PEOE_VSA+3>
33.464725

>  <PEOE_VSA+4>
51.620865

>  <PEOE_VSA+5>
29.416998

>  <PEOE_VSA+6>
0

>  <PEOE_VSA-0>
128.06207

>  <PEOE_VSA-1>
37.495354

>  <PEOE_VSA-2>
0

>  <PEOE_VSA-3>
0

>  <PEOE_VSA-4>
0

>  <PEOE_VSA-5>
27.133842

>  <PEOE_VSA-6>
58.867752

>  <PEOE_VSA_FHYD>
0.77795047

>  <PEOE_VSA_FNEG>
0.3344034

>  <PEOE_VSA_FPNEG>
0.11432396

>  <PEOE_VSA_FPOL>
0.22204952

>  <PEOE_VSA_FPOS>
0.6655966

>  <PEOE_VSA_FPPOS>
0.10772555

>  <PEOE_VSA_HYD>
585.22272

>  <PEOE_VSA_NEG>
251.55902

>  <PEOE_VSA_PNEG>
86.001595

>  <PEOE_VSA_POL>
167.03946

>  <PEOE_VSA_POS>
500.70316

>  <PEOE_VSA_PPOS>
81.037865

>  <petitjean>
0.48275861

>  <petitjeanSC>
0.93333334

>  <Q_PC+>
0

>  <Q_PC->
0

>  <Q_RPC+>
0

>  <Q_RPC->
0

>  <Q_VSA_FHYD>
1

>  <Q_VSA_FNEG>
0

>  <Q_VSA_FPNEG>
0

>  <Q_VSA_FPOL>
0

>  <Q_VSA_FPOS>
1

>  <Q_VSA_FPPOS>
0

>  <Q_VSA_HYD>
752.26221

>  <Q_VSA_NEG>
0

>  <Q_VSA_PNEG>
0

>  <Q_VSA_POL>
0

>  <Q_VSA_POS>
752.26221

>  <Q_VSA_PPOS>
0

>  <radius>
15

>  <reactive>
1

>  <rings>
8

>  <RPC+>
0

>  <RPC->
0

>  <rsynth>
0.58620691

>  <SlogP>
2.7888999

>  <SlogP_VSA0>
126.92613

>  <SlogP_VSA1>
15.490929

>  <SlogP_VSA2>
232.45819

>  <SlogP_VSA3>
20.926258

>  <SlogP_VSA4>
17.643185

>  <SlogP_VSA5>
3.185575

>  <SlogP_VSA6>
0

>  <SlogP_VSA7>
17.643185

>  <SlogP_VSA8>
207.55246

>  <SlogP_VSA9>
199.95609

>  <SMR>
20.215799

>  <SMR_VSA0>
135.72354

>  <SMR_VSA1>
126.92613

>  <SMR_VSA2>
17.643185

>  <SMR_VSA3>
99.920227

>  <SMR_VSA4>
0

>  <SMR_VSA5>
225.19565

>  <SMR_VSA6>
36.417187

>  <SMR_VSA7>
199.95609

>  <TPSA>
209.13

>  <VAdjEq>
0.23604225

>  <VAdjMa>
7.022368

>  <VDistEq>
4.6040683

>  <VDistMa>
11.372244

>  <vdw_area>
752.26221

>  <vdw_vol>
1077.5402

>  <vsa_acc>
42.15638

>  <vsa_acid>
0

>  <vsa_base>
0

>  <vsa_don>
0

>  <vsa_hyd>
492.29752

>  <vsa_other>
78.550011

>  <vsa_pol>
109.99098

>  <Weight>
822.98596

>  <weinerPath>
17502

>  <weinerPol>
117

>  <zagreb>
334

$$$$