O[C@H]1C[C@H](O)CC(=C/C=C2/[C@@H]3CC[C@H]([C@@H](CCCC(O)(C)C)C)[C@]3(CCC/2)C)C1=C
  MOE2013           2D

 30 32  0  0  1  0  0  0  0  0999 V2000
    0.0000    0.0000    0.0000 O   0  0  0  0  0  0  0  0  0  0  0  0
    1.2950   -0.7570    0.0000 C   0  0  1  0  0  0  0  0  0  0  0  0
    1.2880   -2.2570    0.0000 C   0  0  0  0  0  0  0  0  0  0  0  0
    2.5830   -3.0130    0.0000 C   0  0  2  0  0  0  0  0  0  0  0  0
    2.5750   -4.5130    0.0000 O   0  0  0  0  0  0  0  0  0  0  0  0
    3.8860   -2.2700    0.0000 C   0  0  0  0  0  0  0  0  0  0  0  0
    3.8930   -0.7700    0.0000 C   0  0  0  0  0  0  0  0  0  0  0  0
    5.1960   -0.0260    0.0000 C   0  0  0  0  0  0  0  0  0  0  0  0
    6.4910   -0.7830    0.0000 C   0  0  0  0  0  0  0  0  0  0  0  0
    7.7940   -0.0400    0.0000 C   0  0  0  0  0  0  0  0  0  0  0  0
    9.0890   -0.7960    0.0000 C   0  0  2  0  0  0  0  0  0  0  0  0
    9.3940   -2.2650    0.0000 C   0  0  0  0  0  0  0  0  0  0  0  0
   10.8850   -2.4300    0.0000 C   0  0  0  0  0  0  0  0  0  0  0  0
   11.5020   -1.0620    0.0000 C   0  0  2  0  0  0  0  0  0  0  0  0
   12.9710   -0.7580    0.0000 C   0  0  1  0  0  0  0  0  0  0  0  0
   13.9690   -1.8780    0.0000 C   0  0  0  0  0  0  0  0  0  0  0  0
   15.4370   -1.5730    0.0000 C   0  0  0  0  0  0  0  0  0  0  0  0
   16.4350   -2.6930    0.0000 C   0  0  0  0  0  0  0  0  0  0  0  0
   17.9040   -2.3890    0.0000 C   0  0  0  0  0  0  0  0  0  0  0  0
   18.2090   -3.8580    0.0000 O   0  0  0  0  0  0  0  0  0  0  0  0
   19.3730   -2.0840    0.0000 C   0  0  0  0  0  0  0  0  0  0  0  0
   17.6000   -0.9200    0.0000 C   0  0  0  0  0  0  0  0  0  0  0  0
   13.4410    0.6660    0.0000 C   0  0  0  0  0  0  0  0  0  0  0  0
   10.3920   -0.0530    0.0000 C   0  0  1  0  0  0  0  0  0  0  0  0
   10.4000    1.4470    0.0000 C   0  0  0  0  0  0  0  0  0  0  0  0
    9.1050    2.2040    0.0000 C   0  0  0  0  0  0  0  0  0  0  0  0
    7.8020    1.4600    0.0000 C   0  0  0  0  0  0  0  0  0  0  0  0
   11.7660    0.5500    0.0000 C   0  0  0  0  0  0  0  0  0  0  0  0
    2.5980   -0.0130    0.0000 C   0  0  0  0  0  0  0  0  0  0  0  0
    2.6060    1.4870    0.0000 C   0  0  0  0  0  0  0  0  0  0  0  0
  2  1  1  6  0  0  0
  2  3  1  0  0  0  0
  2 29  1  0  0  0  0
  3  4  1  0  0  0  0
  4  5  1  1  0  0  0
  4  6  1  0  0  0  0
  6  7  1  0  0  0  0
  7  8  2  3  0  0  0
  7 29  1  0  0  0  0
  8  9  1  0  0  0  0
  9 10  2  0  0  0  0
 10 27  1  0  0  0  0
 11 10  1  1  0  0  0
 11 12  1  0  0  0  0
 11 24  1  0  0  0  0
 12 13  1  0  0  0  0
 14 13  1  1  0  0  0
 14 15  1  0  0  0  0
 14 24  1  0  0  0  0
 15 16  1  0  0  0  0
 15 23  1  6  0  0  0
 16 17  1  0  0  0  0
 17 18  1  0  0  0  0
 18 19  1  0  0  0  0
 19 20  1  0  0  0  0
 19 21  1  0  0  0  0
 19 22  1  0  0  0  0
 24 25  1  0  0  0  0
 24 28  1  1  0  0  0
 25 26  1  0  0  0  0
 26 27  1  0  0  0  0
 29 30  2  0  0  0  0
M  END
>  <Index>
178

>  <ID>
HT0351

>  <class>
0

>  <apol>
79.264893

>  <ast_fraglike>
0

>  <ast_fraglike_ext>
0

>  <ast_violation>
2

>  <ast_violation_ext>
3

>  <a_acc>
3

>  <a_acid>
0

>  <a_aro>
0

>  <a_base>
0

>  <a_count>
74

>  <a_don>
3

>  <a_donacc>
6

>  <a_heavy>
30

>  <a_hyd>
27

>  <a_IC>
86.147705

>  <a_ICM>
1.1641582

>  <a_nB>
0

>  <a_nBr>
0

>  <a_nC>
27

>  <a_nCl>
0

>  <a_nF>
0

>  <a_nH>
44

>  <a_nI>
0

>  <a_nN>
0

>  <a_nO>
3

>  <a_nP>
0

>  <a_nS>
0

>  <balabanJ>
1.5604447

>  <BCUT_PEOE_0>
-2.8432302

>  <BCUT_PEOE_1>
-0.43226346

>  <BCUT_PEOE_2>
0.51695698

>  <BCUT_PEOE_3>
2.8979089

>  <BCUT_SLOGP_0>
-2.7432623

>  <BCUT_SLOGP_1>
-0.39903066

>  <BCUT_SLOGP_2>
0.46579477

>  <BCUT_SLOGP_3>
3.0054893

>  <BCUT_SMR_0>
-2.585252

>  <BCUT_SMR_1>
-0.32691637

>  <BCUT_SMR_2>
0.62992656

>  <BCUT_SMR_3>
3.1595385

>  <bpol>
48.101109

>  <b_1rotN>
6

>  <b_1rotR>
0.1875

>  <b_ar>
0

>  <b_count>
76

>  <b_double>
3

>  <b_heavy>
32

>  <b_max1len>
8

>  <b_rotN>
6

>  <b_rotR>
0.1875

>  <b_single>
73

>  <b_triple>
0

>  <chi0>
22.104084

>  <chi0v>
19.661266

>  <chi0v_C>
18.319626

>  <chi0_C>
19.104084

>  <chi1>
14.009674

>  <chi1v>
12.183329

>  <chi1v_C>
11.443324

>  <chi1_C>
12.354974

>  <chiral>
6

>  <chiral_u>
0

>  <density>
0.65135831

>  <diameter>
15

>  <FCharge>
0

>  <GCUT_PEOE_0>
-0.80938274

>  <GCUT_PEOE_1>
-0.32133833

>  <GCUT_PEOE_2>
0.003613305

>  <GCUT_PEOE_3>
3.2290392

>  <GCUT_SLOGP_0>
-0.87889057

>  <GCUT_SLOGP_1>
-0.28832152

>  <GCUT_SLOGP_2>
-0.0090639303

>  <GCUT_SLOGP_3>
3.3386133

>  <GCUT_SMR_0>
-0.5412395

>  <GCUT_SMR_1>
-0.18573529

>  <GCUT_SMR_2>
0.12476907

>  <GCUT_SMR_3>
3.4612339

>  <Kier1>
24.638672

>  <Kier2>
9.8680553

>  <Kier3>
5.8800001

>  <KierA1>
22.724497

>  <KierA2>
9.0750866

>  <KierA3>
5.3964286

>  <KierFlex>
6.8742256

>  <lip_acc>
3

>  <lip_don>
3

>  <lip_druglike>
1

>  <lip_violation>
1

>  <logP(o/w)>
5.3969998

>  <logS>
-7.9012499

>  <mr>
12.254183

>  <mutagenic>
0

>  <nmol>
1

>  <opr_brigid>
19

>  <opr_leadlike>
1

>  <opr_nring>
3

>  <opr_nrot>
9

>  <opr_violation>
1

>  <PC+>
0

>  <PC->
0

>  <PEOE_PC+>
2.1593516

>  <PEOE_PC->
-2.1593516

>  <PEOE_RPC+>
0.097358868

>  <PEOE_RPC->
0.18124294

>  <PEOE_VSA+0>
157.98982

>  <PEOE_VSA+1>
35.402172

>  <PEOE_VSA+2>
0

>  <PEOE_VSA+3>
0

>  <PEOE_VSA+4>
30.972517

>  <PEOE_VSA+5>
0

>  <PEOE_VSA+6>
0

>  <PEOE_VSA-0>
102.82162

>  <PEOE_VSA-1>
103.91759

>  <PEOE_VSA-2>
0

>  <PEOE_VSA-3>
0

>  <PEOE_VSA-4>
0

>  <PEOE_VSA-5>
0

>  <PEOE_VSA-6>
23.30262

>  <PEOE_VSA_FHYD>
0.88055813

>  <PEOE_VSA_FNEG>
0.50624698

>  <PEOE_VSA_FPNEG>
0.05128146

>  <PEOE_VSA_FPOL>
0.11944185

>  <PEOE_VSA_FPOS>
0.49375302

>  <PEOE_VSA_FPPOS>
0.0681604

>  <PEOE_VSA_HYD>
400.13123

>  <PEOE_VSA_NEG>
230.04184

>  <PEOE_VSA_PNEG>
23.30262

>  <PEOE_VSA_POL>
54.275139

>  <PEOE_VSA_POS>
224.36452

>  <PEOE_VSA_PPOS>
30.972517

>  <petitjean>
0.46666667

>  <petitjeanSC>
0.875

>  <Q_PC+>
0

>  <Q_PC->
0

>  <Q_RPC+>
0

>  <Q_RPC->
0

>  <Q_VSA_FHYD>
1

>  <Q_VSA_FNEG>
0

>  <Q_VSA_FPNEG>
0

>  <Q_VSA_FPOL>
0

>  <Q_VSA_FPOS>
1

>  <Q_VSA_FPPOS>
0

>  <Q_VSA_HYD>
454.40637

>  <Q_VSA_NEG>
0

>  <Q_VSA_PNEG>
0

>  <Q_VSA_POL>
0

>  <Q_VSA_POS>
454.40637

>  <Q_VSA_PPOS>
0

>  <radius>
8

>  <reactive>
0

>  <rings>
3

>  <RPC+>
0

>  <RPC->
0

>  <rsynth>
0

>  <SlogP>
5.7047

>  <SlogP_VSA0>
76.155678

>  <SlogP_VSA1>
0

>  <SlogP_VSA2>
12.937299

>  <SlogP_VSA3>
0

>  <SlogP_VSA4>
13.232388

>  <SlogP_VSA5>
9.5567245

>  <SlogP_VSA6>
0

>  <SlogP_VSA7>
35.286369

>  <SlogP_VSA8>
188.68405

>  <SlogP_VSA9>
165.40485

>  <SMR>
12.40384

>  <SMR_VSA0>
0

>  <SMR_VSA1>
76.155678

>  <SMR_VSA2>
13.232388

>  <SMR_VSA3>
22.494022

>  <SMR_VSA4>
0

>  <SMR_VSA5>
223.97043

>  <SMR_VSA6>
0

>  <SMR_VSA7>
165.40485

>  <TPSA>
60.689999

>  <VAdjEq>
0.37005648

>  <VAdjMa>
6

>  <VDistEq>
3.71997

>  <VDistMa>
9.5034618

>  <vdw_area>
454.40637

>  <vdw_vol>
639.65717

>  <vsa_acc>
0

>  <vsa_acid>
0

>  <vsa_base>
0

>  <vsa_don>
0

>  <vsa_hyd>
366.91245

>  <vsa_other>
0

>  <vsa_pol>
40.700764

>  <Weight>
416.646

>  <weinerPath>
2677

>  <weinerPol>
49

>  <zagreb>
160

$$$$