O(CC(O)CO)c1ccccc1C
  MOE2013           2D

 13 13  0  0  1  0  0  0  0  0999 V2000
    0.0000    0.0000    0.0000 O   0  0  0  0  0  0  0  0  0  0  0  0
    0.7510    1.2990    0.0000 C   0  0  0  0  0  0  0  0  0  0  0  0
    2.2510    1.2980    0.0000 C   0  0  3  0  0  0  0  0  0  0  0  0
    3.0000   -0.0020    0.0000 O   0  0  0  0  0  0  0  0  0  0  0  0
    3.0010    2.5960    0.0000 C   0  0  0  0  0  0  0  0  0  0  0  0
    4.5010    2.5960    0.0000 O   0  0  0  0  0  0  0  0  0  0  0  0
   -1.5000    0.0010    0.0000 C   0  0  0  0  0  0  0  0  0  0  0  0
   -2.2490    1.3000    0.0000 C   0  0  0  0  0  0  0  0  0  0  0  0
   -3.7490    1.3010    0.0000 C   0  0  0  0  0  0  0  0  0  0  0  0
   -4.5000    0.0020    0.0000 C   0  0  0  0  0  0  0  0  0  0  0  0
   -3.7510   -1.2970    0.0000 C   0  0  0  0  0  0  0  0  0  0  0  0
   -2.2510   -1.2980    0.0000 C   0  0  0  0  0  0  0  0  0  0  0  0
   -1.5010   -2.5970    0.0000 C   0  0  0  0  0  0  0  0  0  0  0  0
  1  2  1  0  0  0  0
  1  7  1  0  0  0  0
  2  3  1  0  0  0  0
  3  4  1  0  0  0  0
  3  5  1  0  0  0  0
  5  6  1  0  0  0  0
  7  8  1  0  0  0  0
  7 12  2  0  0  0  0
  8  9  2  0  0  0  0
  9 10  1  0  0  0  0
 10 11  2  0  0  0  0
 11 12  1  0  0  0  0
 12 13  1  0  0  0  0
M  END
>  <Index>
1250

>  <ID>
HT2789

>  <class>
0

>  <apol>
29.341103

>  <ast_fraglike>
1

>  <ast_fraglike_ext>
0

>  <ast_violation>
0

>  <ast_violation_ext>
1

>  <a_acc>
3

>  <a_acid>
0

>  <a_aro>
6

>  <a_base>
0

>  <a_count>
27

>  <a_don>
2

>  <a_donacc>
5

>  <a_heavy>
13

>  <a_hyd>
10

>  <a_IC>
37.104824

>  <a_ICM>
1.3742528

>  <a_nB>
0

>  <a_nBr>
0

>  <a_nC>
10

>  <a_nCl>
0

>  <a_nF>
0

>  <a_nH>
14

>  <a_nI>
0

>  <a_nN>
0

>  <a_nO>
3

>  <a_nP>
0

>  <a_nS>
0

>  <balabanJ>
2.1995308

>  <BCUT_PEOE_0>
-2.5126059

>  <BCUT_PEOE_1>
-0.56091356

>  <BCUT_PEOE_2>
0.61531138

>  <BCUT_PEOE_3>
2.5357594

>  <BCUT_SLOGP_0>
-2.6793509

>  <BCUT_SLOGP_1>
-0.53737098

>  <BCUT_SLOGP_2>
0.62372482

>  <BCUT_SLOGP_3>
2.4523218

>  <BCUT_SMR_0>
-2.2954495

>  <BCUT_SMR_1>
-0.41912341

>  <BCUT_SMR_2>
0.74928373

>  <BCUT_SMR_3>
2.7385793

>  <bpol>
17.220898

>  <b_1rotN>
4

>  <b_1rotR>
0.30769232

>  <b_ar>
6

>  <b_count>
27

>  <b_double>
0

>  <b_heavy>
13

>  <b_max1len>
5

>  <b_rotN>
4

>  <b_rotR>
0.30769232

>  <b_single>
21

>  <b_triple>
0

>  <chi0>
9.681798

>  <chi0v>
7.6036406

>  <chi0v_C>
6.3009648

>  <chi0_C>
6.9746914

>  <chi1>
6.236382

>  <chi1v>
4.2110729

>  <chi1v_C>
3.1438468

>  <chi1_C>
4.0436769

>  <chiral>
1

>  <chiral_u>
1

>  <density>
0.71657246

>  <diameter>
8

>  <FCharge>
0

>  <GCUT_PEOE_0>
-0.79186314

>  <GCUT_PEOE_1>
-0.36885798

>  <GCUT_PEOE_2>
0.080353774

>  <GCUT_PEOE_3>
2.2697322

>  <GCUT_SLOGP_0>
-0.94893855

>  <GCUT_SLOGP_1>
-0.37489429

>  <GCUT_SLOGP_2>
0.045043927

>  <GCUT_SLOGP_3>
2.3514628

>  <GCUT_SMR_0>
-0.52304512

>  <GCUT_SMR_1>
-0.20881943

>  <GCUT_SMR_2>
0.16366199

>  <GCUT_SMR_3>
2.5219276

>  <Kier1>
11.076923

>  <Kier2>
5.671875

>  <Kier3>
3.7037036

>  <KierA1>
9.1026993

>  <KierA2>
4.5777774

>  <KierA3>
2.9438095

>  <KierFlex>
3.205395

>  <lip_acc>
3

>  <lip_don>
2

>  <lip_druglike>
1

>  <lip_violation>
0

>  <logP(o/w)>
0.89099997

>  <logS>
-1.19065

>  <mr>
5.0729823

>  <mutagenic>
0

>  <nmol>
1

>  <opr_brigid>
6

>  <opr_leadlike>
1

>  <opr_nring>
1

>  <opr_nrot>
4

>  <opr_violation>
0

>  <PC+>
0

>  <PC->
0

>  <PEOE_PC+>
1.3876362

>  <PEOE_PC->
-1.3876362

>  <PEOE_RPC+>
0.1513187

>  <PEOE_RPC->
0.28277391

>  <PEOE_VSA+0>
12.796158

>  <PEOE_VSA+1>
76.74958

>  <PEOE_VSA+2>
4.9049287

>  <PEOE_VSA+3>
0

>  <PEOE_VSA+4>
20.648346

>  <PEOE_VSA+5>
0

>  <PEOE_VSA+6>
0

>  <PEOE_VSA-0>
33.211121

>  <PEOE_VSA-1>
36.764713

>  <PEOE_VSA-2>
0

>  <PEOE_VSA-3>
0

>  <PEOE_VSA-4>
0

>  <PEOE_VSA-5>
0

>  <PEOE_VSA-6>
18.038837

>  <PEOE_VSA_FHYD>
0.80952942

>  <PEOE_VSA_FNEG>
0.43332714

>  <PEOE_VSA_FPNEG>
0.088811532

>  <PEOE_VSA_FPOL>
0.19047059

>  <PEOE_VSA_FPOS>
0.56667286

>  <PEOE_VSA_FPPOS>
0.10165906

>  <PEOE_VSA_HYD>
164.4265

>  <PEOE_VSA_NEG>
88.014671

>  <PEOE_VSA_PNEG>
18.038837

>  <PEOE_VSA_POL>
38.687183

>  <PEOE_VSA_POS>
115.09901

>  <PEOE_VSA_PPOS>
20.648346

>  <petitjean>
0.5

>  <petitjeanSC>
1

>  <Q_PC+>
0

>  <Q_PC->
0

>  <Q_RPC+>
0

>  <Q_RPC->
0

>  <Q_VSA_FHYD>
1

>  <Q_VSA_FNEG>
0

>  <Q_VSA_FPNEG>
0

>  <Q_VSA_FPOL>
0

>  <Q_VSA_FPOS>
1

>  <Q_VSA_FPPOS>
0

>  <Q_VSA_HYD>
203.11368

>  <Q_VSA_NEG>
0

>  <Q_VSA_PNEG>
0

>  <Q_VSA_POL>
0

>  <Q_VSA_POS>
203.11368

>  <Q_VSA_PPOS>
0

>  <radius>
4

>  <reactive>
0

>  <rings>
1

>  <RPC+>
0

>  <RPC->
0

>  <rsynth>
1

>  <SlogP>
0.72702003

>  <SlogP_VSA0>
61.77034

>  <SlogP_VSA1>
0

>  <SlogP_VSA2>
6.4686494

>  <SlogP_VSA3>
41.852516

>  <SlogP_VSA4>
3.185575

>  <SlogP_VSA5>
0

>  <SlogP_VSA6>
0

>  <SlogP_VSA7>
70.572739

>  <SlogP_VSA8>
0

>  <SlogP_VSA9>
38.569443

>  <SMR>
4.9766598

>  <SMR_VSA0>
0

>  <SMR_VSA1>
61.77034

>  <SMR_VSA2>
0

>  <SMR_VSA3>
14.897653

>  <SMR_VSA4>
0

>  <SMR_VSA5>
70.572739

>  <SMR_VSA6>
41.852516

>  <SMR_VSA7>
33.326015

>  <TPSA>
49.689999

>  <VAdjEq>
0.6193822

>  <VAdjMa>
4.7004399

>  <VDistEq>
2.7905734

>  <VDistMa>
7.0666709

>  <vdw_area>
203.11368

>  <vdw_vol>
254.29248

>  <vsa_acc>
2.503756

>  <vsa_acid>
0

>  <vsa_base>
0

>  <vsa_don>
0

>  <vsa_hyd>
155.88495

>  <vsa_other>
0

>  <vsa_pol>
29.637598

>  <Weight>
182.21899

>  <weinerPath>
272

>  <weinerPol>
15

>  <zagreb>
58

$$$$