O=C(NC(CC1CCC1)C(=O)C(=O)N)[C@H]1N(C[C@H]2[C@@H]1C2(C)C)C(=O)[C@@H](NC(=O)NC(C)(C)C)C(C)(C)C
  MOE2013           2D

 37 39  0  0  1  0  0  0  0  0999 V2000
    0.0000    0.0000    0.0000 O   0  0  0  0  0  0  0  0  0  0  0  0
   -0.0020    1.5000    0.0000 C   0  0  0  0  0  0  0  0  0  0  0  0
   -1.3020    2.2480    0.0000 N   0  0  0  0  0  0  0  0  0  0  0  0
   -2.6000    1.4970    0.0000 C   0  0  3  0  0  0  0  0  0  0  0  0
   -2.5980   -0.0030    0.0000 C   0  0  0  0  0  0  0  0  0  0  0  0
   -3.8960   -0.7550    0.0000 C   0  0  0  0  0  0  0  0  0  0  0  0
   -4.2830   -2.2040    0.0000 C   0  0  0  0  0  0  0  0  0  0  0  0
   -5.7320   -1.8180    0.0000 C   0  0  0  0  0  0  0  0  0  0  0  0
   -5.3460   -0.3680    0.0000 C   0  0  0  0  0  0  0  0  0  0  0  0
   -3.9000    2.2450    0.0000 C   0  0  0  0  0  0  0  0  0  0  0  0
   -5.1980    1.4940    0.0000 O   0  0  0  0  0  0  0  0  0  0  0  0
   -3.9020    3.7450    0.0000 C   0  0  0  0  0  0  0  0  0  0  0  0
   -2.6040    4.4970    0.0000 O   0  0  0  0  0  0  0  0  0  0  0  0
   -5.2020    4.4940    0.0000 N   0  0  0  0  0  0  0  0  0  0  0  0
    1.2960    2.2520    0.0000 C   0  0  1  0  0  0  0  0  0  0  0  0
    2.6680    1.6430    0.0000 N   0  0  0  0  0  0  0  0  0  0  0  0
    3.6700    2.7590    0.0000 C   0  0  0  0  0  0  0  0  0  0  0  0
    2.9180    4.0580    0.0000 C   0  0  1  0  0  0  0  0  0  0  0  0
    1.4510    3.7440    0.0000 C   0  0  2  0  0  0  0  0  0  0  0  0
    1.9130    5.1710    0.0000 C   0  0  0  0  0  0  0  0  0  0  0  0
    0.8260    6.2050    0.0000 C   0  0  0  0  0  0  0  0  0  0  0  0
    2.6010    6.5040    0.0000 C   0  0  0  0  0  0  0  0  0  0  0  0
    2.9810    0.1760    0.0000 C   0  0  0  0  0  0  0  0  0  0  0  0
    1.8680   -0.8290    0.0000 O   0  0  0  0  0  0  0  0  0  0  0  0
    4.4090   -0.2860    0.0000 C   0  0  1  0  0  0  0  0  0  0  0  0
    5.5220    0.7190    0.0000 N   0  0  0  0  0  0  0  0  0  0  0  0
    6.9490    0.2580    0.0000 C   0  0  0  0  0  0  0  0  0  0  0  0
    7.2630   -1.2090    0.0000 O   0  0  0  0  0  0  0  0  0  0  0  0
    8.0630    1.2630    0.0000 N   0  0  0  0  0  0  0  0  0  0  0  0
    9.4900    0.8010    0.0000 C   0  0  0  0  0  0  0  0  0  0  0  0
   10.9170    0.3390    0.0000 C   0  0  0  0  0  0  0  0  0  0  0  0
    9.0280   -0.6260    0.0000 C   0  0  0  0  0  0  0  0  0  0  0  0
    9.9520    2.2280    0.0000 C   0  0  0  0  0  0  0  0  0  0  0  0
    4.7220   -1.7520    0.0000 C   0  0  0  0  0  0  0  0  0  0  0  0
    5.0360   -3.2190    0.0000 C   0  0  0  0  0  0  0  0  0  0  0  0
    6.1890   -1.4390    0.0000 C   0  0  0  0  0  0  0  0  0  0  0  0
    3.2550   -2.0660    0.0000 C   0  0  0  0  0  0  0  0  0  0  0  0
  1  2  2  0  0  0  0
  2  3  1  0  0  0  0
  3  4  1  0  0  0  0
  4  5  1  0  0  0  0
  4 10  1  0  0  0  0
  5  6  1  0  0  0  0
  6  7  1  0  0  0  0
  6  9  1  0  0  0  0
  7  8  1  0  0  0  0
  8  9  1  0  0  0  0
 10 11  2  0  0  0  0
 10 12  1  0  0  0  0
 12 13  2  0  0  0  0
 12 14  1  0  0  0  0
 15  2  1  6  0  0  0
 15 16  1  0  0  0  0
 15 19  1  0  0  0  0
 16 17  1  0  0  0  0
 16 23  1  0  0  0  0
 18 17  1  1  0  0  0
 18 19  1  0  0  0  0
 18 20  1  0  0  0  0
 19 20  1  1  0  0  0
 20 21  1  0  0  0  0
 20 22  1  0  0  0  0
 23 24  2  0  0  0  0
 25 23  1  1  0  0  0
 25 26  1  0  0  0  0
 25 34  1  0  0  0  0
 26 27  1  0  0  0  0
 27 28  2  0  0  0  0
 27 29  1  0  0  0  0
 29 30  1  0  0  0  0
 30 31  1  0  0  0  0
 30 32  1  0  0  0  0
 30 33  1  0  0  0  0
 34 35  1  0  0  0  0
 34 36  1  0  0  0  0
 34 37  1  0  0  0  0
M  END
>  <Index>
151

>  <ID>
HT0297

>  <class>
0

>  <apol>
87.035683

>  <ast_fraglike>
0

>  <ast_fraglike_ext>
0

>  <ast_violation>
3

>  <ast_violation_ext>
5

>  <a_acc>
5

>  <a_acid>
0

>  <a_aro>
0

>  <a_base>
0

>  <a_count>
82

>  <a_don>
4

>  <a_donacc>
9

>  <a_heavy>
37

>  <a_hyd>
22

>  <a_IC>
122.58463

>  <a_ICM>
1.4949346

>  <a_nB>
0

>  <a_nBr>
0

>  <a_nC>
27

>  <a_nCl>
0

>  <a_nF>
0

>  <a_nH>
45

>  <a_nI>
0

>  <a_nN>
5

>  <a_nO>
5

>  <a_nP>
0

>  <a_nS>
0

>  <balabanJ>
1.801915

>  <BCUT_PEOE_0>
-2.8353508

>  <BCUT_PEOE_1>
-0.42197677

>  <BCUT_PEOE_2>
0.20742773

>  <BCUT_PEOE_3>
2.994452

>  <BCUT_SLOGP_0>
-2.8639321

>  <BCUT_SLOGP_1>
-0.27194527

>  <BCUT_SLOGP_2>
0.2142

>  <BCUT_SLOGP_3>
2.9818373

>  <BCUT_SMR_0>
-2.5830503

>  <BCUT_SMR_1>
-0.23259738

>  <BCUT_SMR_2>
0.41376388

>  <BCUT_SMR_3>
3.2405958

>  <bpol>
57.284313

>  <b_1rotN>
9

>  <b_1rotR>
0.23076923

>  <b_ar>
0

>  <b_count>
84

>  <b_double>
5

>  <b_heavy>
39

>  <b_max1len>
5

>  <b_rotN>
14

>  <b_rotR>
0.35897437

>  <b_single>
79

>  <b_triple>
0

>  <chi0>
28.085058

>  <chi0v>
23.565441

>  <chi0v_C>
18.999636

>  <chi0_C>
19.386387

>  <chi1>
16.841078

>  <chi1v>
13.374639

>  <chi1v_C>
9.6899586

>  <chi1_C>
9.9072666

>  <chiral>
5

>  <chiral_u>
1

>  <density>
0.72266537

>  <diameter>
15

>  <FCharge>
0

>  <GCUT_PEOE_0>
-0.86251372

>  <GCUT_PEOE_1>
-0.34197277

>  <GCUT_PEOE_2>
-0.0010294933

>  <GCUT_PEOE_3>
3.1465166

>  <GCUT_SLOGP_0>
-1.3706751

>  <GCUT_SLOGP_1>
-0.31016496

>  <GCUT_SLOGP_2>
0.0069361674

>  <GCUT_SLOGP_3>
3.09971

>  <GCUT_SMR_0>
-0.58739287

>  <GCUT_SMR_1>
-0.19247009

>  <GCUT_SMR_2>
0.10176808

>  <GCUT_SMR_3>
3.3731561

>  <Kier1>
31.526627

>  <Kier2>
11.472425

>  <Kier3>
7.0190587

>  <KierA1>
25.795513

>  <KierA2>
9.3318567

>  <KierA3>
5.6852694

>  <KierFlex>
6.5059466

>  <lip_acc>
10

>  <lip_don>
5

>  <lip_druglike>
1

>  <lip_violation>
1

>  <logP(o/w)>
2.0209999

>  <logS>
-6.0226898

>  <mr>
13.947836

>  <mutagenic>
0

>  <nmol>
1

>  <opr_brigid>
11

>  <opr_leadlike>
0

>  <opr_nring>
3

>  <opr_nrot>
10

>  <opr_violation>
2

>  <PC+>
0

>  <PC->
0

>  <PEOE_PC+>
3.7132964

>  <PEOE_PC->
-3.7132964

>  <PEOE_RPC+>
0.085419372

>  <PEOE_RPC->
0.097872488

>  <PEOE_VSA+0>
171.01161

>  <PEOE_VSA+1>
15.942119

>  <PEOE_VSA+2>
6.2919211

>  <PEOE_VSA+3>
43.095066

>  <PEOE_VSA+4>
34.357582

>  <PEOE_VSA+5>
12.949531

>  <PEOE_VSA+6>
17.440542

>  <PEOE_VSA-0>
64.944344

>  <PEOE_VSA-1>
119.84233

>  <PEOE_VSA-2>
0

>  <PEOE_VSA-3>
0

>  <PEOE_VSA-4>
13.566921

>  <PEOE_VSA-5>
54.267685

>  <PEOE_VSA-6>
7.0617924

>  <PEOE_VSA_FHYD>
0.75097865

>  <PEOE_VSA_FNEG>
0.46308184

>  <PEOE_VSA_FPNEG>
0.13355958

>  <PEOE_VSA_FPOL>
0.24902134

>  <PEOE_VSA_FPOS>
0.53691816

>  <PEOE_VSA_FPPOS>
0.11546176

>  <PEOE_VSA_HYD>
421.12738

>  <PEOE_VSA_NEG>
259.68307

>  <PEOE_VSA_PNEG>
74.8964

>  <PEOE_VSA_POL>
139.64406

>  <PEOE_VSA_POS>
301.08838

>  <PEOE_VSA_PPOS>
64.747658

>  <petitjean>
0.46666667

>  <petitjeanSC>
0.875

>  <Q_PC+>
0

>  <Q_PC->
0

>  <Q_RPC+>
0

>  <Q_RPC->
0

>  <Q_VSA_FHYD>
1

>  <Q_VSA_FNEG>
0

>  <Q_VSA_FPNEG>
0

>  <Q_VSA_FPOL>
0

>  <Q_VSA_FPOS>
1

>  <Q_VSA_FPPOS>
0

>  <Q_VSA_HYD>
560.77142

>  <Q_VSA_NEG>
0

>  <Q_VSA_PNEG>
0

>  <Q_VSA_POL>
0

>  <Q_VSA_POS>
560.77142

>  <Q_VSA_PPOS>
0

>  <radius>
8

>  <reactive>
0

>  <rings>
3

>  <RPC+>
0

>  <RPC->
0

>  <rsynth>
0.43243244

>  <SlogP>
1.7112

>  <SlogP_VSA0>
86.929436

>  <SlogP_VSA1>
29.418232

>  <SlogP_VSA2>
107.39477

>  <SlogP_VSA3>
18.439579

>  <SlogP_VSA4>
13.232388

>  <SlogP_VSA5>
0

>  <SlogP_VSA6>
0

>  <SlogP_VSA7>
0

>  <SlogP_VSA8>
75.473625

>  <SlogP_VSA9>
290.47034

>  <SMR>
13.90155

>  <SMR_VSA0>
119.31108

>  <SMR_VSA1>
3.1243138

>  <SMR_VSA2>
67.264641

>  <SMR_VSA3>
11.945906

>  <SMR_VSA4>
32.897186

>  <SMR_VSA5>
75.473625

>  <SMR_VSA6>
44.733498

>  <SMR_VSA7>
266.60812

>  <TPSA>
150.7

>  <VAdjEq>
0.31532151

>  <VAdjMa>
6.2854023

>  <VDistEq>
3.6891809

>  <VDistMa>
10.169347

>  <vdw_area>
560.77142

>  <vdw_vol>
719.12537

>  <vsa_acc>
67.834602

>  <vsa_acid>
0

>  <vsa_base>
0

>  <vsa_don>
34.790218

>  <vsa_hyd>
345.52536

>  <vsa_other>
64.747658

>  <vsa_pol>
102.62482

>  <Weight>
519.68701

>  <weinerPath>
4259

>  <weinerPol>
55

>  <zagreb>
202

$$$$