O(C(=O)c1ccc(N)cc1)CCCN(CCCC)CCCC
  MOE2013           2D

 22 22  0  0  0  0  0  0  0  0999 V2000
    0.0000    0.0000    0.0000 O   0  0  0  0  0  0  0  0  0  0  0  0
    0.7580    1.2940    0.0000 C   0  0  0  0  0  0  0  0  0  0  0  0
    0.0160    2.5980    0.0000 O   0  0  0  0  0  0  0  0  0  0  0  0
    2.2580    1.2850    0.0000 C   0  0  0  0  0  0  0  0  0  0  0  0
    3.0160    2.5800    0.0000 C   0  0  0  0  0  0  0  0  0  0  0  0
    4.5160    2.5700    0.0000 C   0  0  0  0  0  0  0  0  0  0  0  0
    5.2580    1.2670    0.0000 C   0  0  0  0  0  0  0  0  0  0  0  0
    6.7580    1.2570    0.0000 N   0  0  0  0  0  0  0  0  0  0  0  0
    4.5000   -0.0280    0.0000 C   0  0  0  0  0  0  0  0  0  0  0  0
    3.0000   -0.0180    0.0000 C   0  0  0  0  0  0  0  0  0  0  0  0
   -1.5000    0.0090    0.0000 C   0  0  0  0  0  0  0  0  0  0  0  0
   -2.2580   -1.2850    0.0000 C   0  0  0  0  0  0  0  0  0  0  0  0
   -3.7580   -1.2760    0.0000 C   0  0  0  0  0  0  0  0  0  0  0  0
   -4.5160   -2.5700    0.0000 N   0  0  0  0  0  0  0  0  0  0  0  0
   -6.0160   -2.5610    0.0000 C   0  0  0  0  0  0  0  0  0  0  0  0
   -6.7580   -1.2570    0.0000 C   0  0  0  0  0  0  0  0  0  0  0  0
   -8.2580   -1.2480    0.0000 C   0  0  0  0  0  0  0  0  0  0  0  0
   -9.0000    0.0550    0.0000 C   0  0  0  0  0  0  0  0  0  0  0  0
   -3.7740   -3.8740    0.0000 C   0  0  0  0  0  0  0  0  0  0  0  0
   -4.5320   -5.1680    0.0000 C   0  0  0  0  0  0  0  0  0  0  0  0
   -3.7900   -6.4720    0.0000 C   0  0  0  0  0  0  0  0  0  0  0  0
   -4.5480   -7.7660    0.0000 C   0  0  0  0  0  0  0  0  0  0  0  0
  1  2  1  0  0  0  0
  1 11  1  0  0  0  0
  2  3  2  0  0  0  0
  2  4  1  0  0  0  0
  4  5  1  0  0  0  0
  4 10  2  0  0  0  0
  5  6  2  0  0  0  0
  6  7  1  0  0  0  0
  7  8  1  0  0  0  0
  7  9  2  0  0  0  0
  9 10  1  0  0  0  0
 11 12  1  0  0  0  0
 12 13  1  0  0  0  0
 13 14  1  0  0  0  0
 14 15  1  0  0  0  0
 14 19  1  0  0  0  0
 15 16  1  0  0  0  0
 16 17  1  0  0  0  0
 17 18  1  0  0  0  0
 19 20  1  0  0  0  0
 20 21  1  0  0  0  0
 21 22  1  0  0  0  0
M  END
>  <Index>
1324

>  <ID>
HT3390

>  <class>
0

>  <apol>
55.487789

>  <ast_fraglike>
0

>  <ast_fraglike_ext>
0

>  <ast_violation>
2

>  <ast_violation_ext>
3

>  <a_acc>
2

>  <a_acid>
0

>  <a_aro>
6

>  <a_base>
0

>  <a_count>
52

>  <a_don>
1

>  <a_donacc>
3

>  <a_heavy>
22

>  <a_hyd>
17

>  <a_IC>
70.157501

>  <a_ICM>
1.3491826

>  <a_nB>
0

>  <a_nBr>
0

>  <a_nC>
18

>  <a_nCl>
0

>  <a_nF>
0

>  <a_nH>
30

>  <a_nI>
0

>  <a_nN>
2

>  <a_nO>
2

>  <a_nP>
0

>  <a_nS>
0

>  <balabanJ>
2.1275291

>  <BCUT_PEOE_0>
-2.7392879

>  <BCUT_PEOE_1>
-0.22754699

>  <BCUT_PEOE_2>
0.12392076

>  <BCUT_PEOE_3>
2.6461778

>  <BCUT_SLOGP_0>
-2.7610703

>  <BCUT_SLOGP_1>
-0.054227654

>  <BCUT_SLOGP_2>
0.2571432

>  <BCUT_SLOGP_3>
2.694042

>  <BCUT_SMR_0>
-2.4671688

>  <BCUT_SMR_1>
0.055370249

>  <BCUT_SMR_2>
0.2111042

>  <BCUT_SMR_3>
2.9113548

>  <bpol>
36.990211

>  <b_1rotN>
11

>  <b_1rotR>
0.5

>  <b_ar>
6

>  <b_count>
52

>  <b_double>
1

>  <b_heavy>
22

>  <b_max1len>
10

>  <b_rotN>
12

>  <b_rotR>
0.54545456

>  <b_single>
45

>  <b_triple>
0

>  <chi0>
16.208897

>  <chi0v>
14.014422

>  <chi0v_C>
12.173362

>  <chi0_C>
12.924439

>  <chi1>
10.668234

>  <chi1v>
8.4198627

>  <chi1v_C>
6.4855809

>  <chi1_C>
7.3805399

>  <chiral>
0

>  <chiral_u>
0

>  <density>
0.65700537

>  <diameter>
14

>  <FCharge>
0

>  <GCUT_PEOE_0>
-0.8593331

>  <GCUT_PEOE_1>
-0.37421411

>  <GCUT_PEOE_2>
-0.036079243

>  <GCUT_PEOE_3>
2.6584976

>  <GCUT_SLOGP_0>
-1.3342805

>  <GCUT_SLOGP_1>
-0.26386139

>  <GCUT_SLOGP_2>
0.054200001

>  <GCUT_SLOGP_3>
2.7050219

>  <GCUT_SMR_0>
-0.53123873

>  <GCUT_SMR_1>
-0.12381682

>  <GCUT_SMR_2>
0.0015520049

>  <GCUT_SMR_3>
2.8893325

>  <Kier1>
20.045454

>  <Kier2>
12.426036

>  <Kier3>
9.0368605

>  <KierA1>
16.722721

>  <KierA2>
10.271242

>  <KierA3>
7.4200172

>  <KierFlex>
7.8074141

>  <lip_acc>
4

>  <lip_don>
2

>  <lip_druglike>
1

>  <lip_violation>
0

>  <logP(o/w)>
4.2880001

>  <logS>
-3.67555

>  <mr>
9.2176819

>  <mutagenic>
1

>  <nmol>
1

>  <opr_brigid>
6

>  <opr_leadlike>
1

>  <opr_nring>
1

>  <opr_nrot>
11

>  <opr_violation>
1

>  <PC+>
0

>  <PC->
0

>  <PEOE_PC+>
1.6958472

>  <PEOE_PC->
-1.6958472

>  <PEOE_RPC+>
0.17325325

>  <PEOE_RPC->
0.18361878

>  <PEOE_VSA+0>
115.93891

>  <PEOE_VSA+1>
40.54361

>  <PEOE_VSA+2>
17.238026

>  <PEOE_VSA+3>
0

>  <PEOE_VSA+4>
0

>  <PEOE_VSA+5>
14.708499

>  <PEOE_VSA+6>
0

>  <PEOE_VSA-0>
101.5082

>  <PEOE_VSA-1>
54.89798

>  <PEOE_VSA-2>
0

>  <PEOE_VSA-3>
0

>  <PEOE_VSA-4>
0

>  <PEOE_VSA-5>
13.566921

>  <PEOE_VSA-6>
9.1548758

>  <PEOE_VSA_FHYD>
0.89816463

>  <PEOE_VSA_FNEG>
0.48734745

>  <PEOE_VSA_FPNEG>
0.061818425

>  <PEOE_VSA_FPOL>
0.10183534

>  <PEOE_VSA_FPOS>
0.51265252

>  <PEOE_VSA_FPPOS>
0.040016919

>  <PEOE_VSA_HYD>
330.12674

>  <PEOE_VSA_NEG>
179.12799

>  <PEOE_VSA_PNEG>
22.721796

>  <PEOE_VSA_POL>
37.430294

>  <PEOE_VSA_POS>
188.42905

>  <PEOE_VSA_PPOS>
14.708499

>  <petitjean>
0.5

>  <petitjeanSC>
1

>  <Q_PC+>
0

>  <Q_PC->
0

>  <Q_RPC+>
0

>  <Q_RPC->
0

>  <Q_VSA_FHYD>
1

>  <Q_VSA_FNEG>
0

>  <Q_VSA_FPNEG>
0

>  <Q_VSA_FPOL>
0

>  <Q_VSA_FPOS>
1

>  <Q_VSA_FPPOS>
0

>  <Q_VSA_HYD>
367.55704

>  <Q_VSA_NEG>
0

>  <Q_VSA_PNEG>
0

>  <Q_VSA_POL>
0

>  <Q_VSA_POS>
367.55704

>  <Q_VSA_PPOS>
0

>  <radius>
7

>  <reactive>
0

>  <rings>
1

>  <RPC+>
0

>  <RPC->
0

>  <rsynth>
1

>  <SlogP>
3.7179

>  <SlogP_VSA0>
32.897186

>  <SlogP_VSA1>
10.869778

>  <SlogP_VSA2>
10.999887

>  <SlogP_VSA3>
76.244995

>  <SlogP_VSA4>
27.047791

>  <SlogP_VSA5>
0

>  <SlogP_VSA6>
0

>  <SlogP_VSA7>
70.572739

>  <SlogP_VSA8>
94.342026

>  <SlogP_VSA9>
69.408775

>  <SMR>
9.2009897

>  <SMR_VSA0>
34.862103

>  <SMR_VSA1>
3.1243138

>  <SMR_VSA2>
0

>  <SMR_VSA3>
3.185575

>  <SMR_VSA4>
2.7567475

>  <SMR_VSA5>
197.81195

>  <SMR_VSA6>
83.990456

>  <SMR_VSA7>
66.652031

>  <TPSA>
55.560001

>  <VAdjEq>
0.43949699

>  <VAdjMa>
5.4594316

>  <VDistEq>
3.6297283

>  <VDistMa>
8.5894871

>  <vdw_area>
367.55704

>  <vdw_vol>
466.43454

>  <vsa_acc>
13.566921

>  <vsa_acid>
0

>  <vsa_base>
0

>  <vsa_don>
17.742489

>  <vsa_hyd>
292.95844

>  <vsa_other>
17.212255

>  <vsa_pol>
31.30941

>  <Weight>
306.44998

>  <weinerPath>
1338

>  <weinerPol>
26

>  <zagreb>
96

$$$$