O[C@H]1CC(=C/C=C2/C3CC[C@H]([C@@H](CCCC(O)(C)C)C)[C@]3(CCC/2)C)C(CC1)=C
  MOE2013           2D

 29 31  0  0  1  0  0  0  0  0999 V2000
    0.0000    0.0000    0.0000 O   0  0  0  0  0  0  0  0  0  0  0  0
   -0.7580   -1.2940    0.0000 C   0  0  1  0  0  0  0  0  0  0  0  0
   -0.0170   -2.5980    0.0000 C   0  0  0  0  0  0  0  0  0  0  0  0
   -0.7750   -3.8920    0.0000 C   0  0  0  0  0  0  0  0  0  0  0  0
   -0.0330   -5.1960    0.0000 C   0  0  0  0  0  0  0  0  0  0  0  0
    1.4670   -5.2060    0.0000 C   0  0  0  0  0  0  0  0  0  0  0  0
    2.2080   -6.5100    0.0000 C   0  0  0  0  0  0  0  0  0  0  0  0
    3.7080   -6.5190    0.0000 C   0  0  3  0  0  0  0  0  0  0  0  0
    4.7190   -5.4110    0.0000 C   0  0  0  0  0  0  0  0  0  0  0  0
    6.0850   -6.0300    0.0000 C   0  0  0  0  0  0  0  0  0  0  0  0
    5.9190   -7.5210    0.0000 C   0  0  2  0  0  0  0  0  0  0  0  0
    7.0270   -8.5310    0.0000 C   0  0  1  0  0  0  0  0  0  0  0  0
    8.4570   -8.0770    0.0000 C   0  0  0  0  0  0  0  0  0  0  0  0
    9.5650   -9.0880    0.0000 C   0  0  0  0  0  0  0  0  0  0  0  0
   10.9940   -8.6340    0.0000 C   0  0  0  0  0  0  0  0  0  0  0  0
   12.1030   -9.6450    0.0000 C   0  0  0  0  0  0  0  0  0  0  0  0
   13.1140   -8.5360    0.0000 O   0  0  0  0  0  0  0  0  0  0  0  0
   13.2110  -10.6550    0.0000 C   0  0  0  0  0  0  0  0  0  0  0  0
   11.0920  -10.7530    0.0000 C   0  0  0  0  0  0  0  0  0  0  0  0
    6.7060   -9.9970    0.0000 C   0  0  0  0  0  0  0  0  0  0  0  0
    4.4500   -7.8230    0.0000 C   0  0  1  0  0  0  0  0  0  0  0  0
    3.6910   -9.1170    0.0000 C   0  0  0  0  0  0  0  0  0  0  0  0
    2.1910   -9.1080    0.0000 C   0  0  0  0  0  0  0  0  0  0  0  0
    1.4500   -7.8040    0.0000 C   0  0  0  0  0  0  0  0  0  0  0  0
    5.3240   -9.0420    0.0000 C   0  0  0  0  0  0  0  0  0  0  0  0
   -2.2750   -3.8830    0.0000 C   0  0  0  0  0  0  0  0  0  0  0  0
   -3.0170   -2.5790    0.0000 C   0  0  0  0  0  0  0  0  0  0  0  0
   -2.2580   -1.2850    0.0000 C   0  0  0  0  0  0  0  0  0  0  0  0
   -3.0330   -5.1770    0.0000 C   0  0  0  0  0  0  0  0  0  0  0  0
  2  1  1  1  0  0  0
  2  3  1  0  0  0  0
  2 28  1  0  0  0  0
  3  4  1  0  0  0  0
  4  5  2  3  0  0  0
  4 26  1  0  0  0  0
  5  6  1  0  0  0  0
  6  7  2  0  0  0  0
  7  8  1  0  0  0  0
  7 24  1  0  0  0  0
  8  9  1  0  0  0  0
  8 21  1  0  0  0  0
  9 10  1  0  0  0  0
 11 10  1  6  0  0  0
 11 12  1  0  0  0  0
 11 21  1  0  0  0  0
 12 13  1  0  0  0  0
 12 20  1  1  0  0  0
 13 14  1  0  0  0  0
 14 15  1  0  0  0  0
 15 16  1  0  0  0  0
 16 17  1  0  0  0  0
 16 18  1  0  0  0  0
 16 19  1  0  0  0  0
 21 22  1  0  0  0  0
 21 25  1  6  0  0  0
 22 23  1  0  0  0  0
 23 24  1  0  0  0  0
 26 27  1  0  0  0  0
 26 29  2  0  0  0  0
 27 28  1  0  0  0  0
M  END
>  <Index>
176

>  <ID>
HT0349

>  <class>
0

>  <apol>
78.462891

>  <ast_fraglike>
0

>  <ast_fraglike_ext>
0

>  <ast_violation>
2

>  <ast_violation_ext>
3

>  <a_acc>
2

>  <a_acid>
0

>  <a_aro>
0

>  <a_base>
0

>  <a_count>
73

>  <a_don>
2

>  <a_donacc>
4

>  <a_heavy>
29

>  <a_hyd>
27

>  <a_IC>
81.260239

>  <a_ICM>
1.1131539

>  <a_nB>
0

>  <a_nBr>
0

>  <a_nC>
27

>  <a_nCl>
0

>  <a_nF>
0

>  <a_nH>
44

>  <a_nI>
0

>  <a_nN>
0

>  <a_nO>
2

>  <a_nP>
0

>  <a_nS>
0

>  <balabanJ>
1.548306

>  <BCUT_PEOE_0>
-2.8432348

>  <BCUT_PEOE_1>
-0.44291615

>  <BCUT_PEOE_2>
0.46905759

>  <BCUT_PEOE_3>
2.8979044

>  <BCUT_SLOGP_0>
-2.7432024

>  <BCUT_SLOGP_1>
-0.32630768

>  <BCUT_SLOGP_2>
0.47748065

>  <BCUT_SLOGP_3>
3.0054979

>  <BCUT_SMR_0>
-2.5852504

>  <BCUT_SMR_1>
-0.25355315

>  <BCUT_SMR_2>
0.64595574

>  <BCUT_SMR_3>
3.1595361

>  <bpol>
48.101109

>  <b_1rotN>
6

>  <b_1rotR>
0.19354838

>  <b_ar>
0

>  <b_count>
75

>  <b_double>
3

>  <b_heavy>
31

>  <b_max1len>
8

>  <b_rotN>
6

>  <b_rotR>
0.19354838

>  <b_single>
72

>  <b_triple>
0

>  <chi0>
21.233841

>  <chi0v>
19.343811

>  <chi0v_C>
18.449383

>  <chi0_C>
19.233841

>  <chi1>
13.59899

>  <chi1v>
12.08176

>  <chi1v_C>
11.599955

>  <chi1_C>
12.521641

>  <chiral>
5

>  <chiral_u>
1

>  <density>
0.63480401

>  <diameter>
15

>  <FCharge>
0

>  <GCUT_PEOE_0>
-0.80938548

>  <GCUT_PEOE_1>
-0.33040026

>  <GCUT_PEOE_2>
-0.070506617

>  <GCUT_PEOE_3>
3.2236414

>  <GCUT_SLOGP_0>
-0.87520808

>  <GCUT_SLOGP_1>
-0.26350579

>  <GCUT_SLOGP_2>
-0.0084598418

>  <GCUT_SLOGP_3>
3.3383443

>  <GCUT_SMR_0>
-0.54123974

>  <GCUT_SMR_1>
-0.14084764

>  <GCUT_SMR_2>
0.12333418

>  <GCUT_SMR_3>
3.4563563

>  <Kier1>
23.658689

>  <Kier2>
9.6465025

>  <Kier3>
5.8257928

>  <KierA1>
21.757544

>  <KierA2>
8.8437777

>  <KierA3>
5.3287897

>  <KierFlex>
6.6351342

>  <lip_acc>
2

>  <lip_don>
2

>  <lip_druglike>
1

>  <lip_violation>
1

>  <logP(o/w)>
6.0580001

>  <logS>
-8.29916

>  <mr>
12.100142

>  <mutagenic>
0

>  <nmol>
1

>  <opr_brigid>
19

>  <opr_leadlike>
1

>  <opr_nring>
3

>  <opr_nrot>
9

>  <opr_violation>
1

>  <PC+>
0

>  <PC->
0

>  <PEOE_PC+>
1.8538744

>  <PEOE_PC->
-1.8538744

>  <PEOE_RPC+>
0.11334897

>  <PEOE_RPC->
0.21115449

>  <PEOE_VSA+0>
157.81927

>  <PEOE_VSA+1>
26.231859

>  <PEOE_VSA+2>
0

>  <PEOE_VSA+3>
0

>  <PEOE_VSA+4>
20.648346

>  <PEOE_VSA+5>
0

>  <PEOE_VSA+6>
0

>  <PEOE_VSA-0>
118.01572

>  <PEOE_VSA-1>
106.12614

>  <PEOE_VSA-2>
0

>  <PEOE_VSA-3>
0

>  <PEOE_VSA-4>
0

>  <PEOE_VSA-5>
0

>  <PEOE_VSA-6>
15.535081

>  <PEOE_VSA_FHYD>
0.91857481

>  <PEOE_VSA_FNEG>
0.53935564

>  <PEOE_VSA_FPNEG>
0.034959283

>  <PEOE_VSA_FPOL>
0.081425168

>  <PEOE_VSA_FPOS>
0.46064436

>  <PEOE_VSA_FPPOS>
0.046465889

>  <PEOE_VSA_HYD>
408.19299

>  <PEOE_VSA_NEG>
239.67693

>  <PEOE_VSA_PNEG>
15.535081

>  <PEOE_VSA_POL>
36.183426

>  <PEOE_VSA_POS>
204.69949

>  <PEOE_VSA_PPOS>
20.648346

>  <petitjean>
0.46666667

>  <petitjeanSC>
0.875

>  <Q_PC+>
0

>  <Q_PC->
0

>  <Q_RPC+>
0

>  <Q_RPC->
0

>  <Q_VSA_FHYD>
1

>  <Q_VSA_FNEG>
0

>  <Q_VSA_FPNEG>
0

>  <Q_VSA_FPOL>
0

>  <Q_VSA_FPOS>
1

>  <Q_VSA_FPPOS>
0

>  <Q_VSA_HYD>
444.3764

>  <Q_VSA_NEG>
0

>  <Q_VSA_PNEG>
0

>  <Q_VSA_POL>
0

>  <Q_VSA_POS>
444.3764

>  <Q_VSA_PPOS>
0

>  <radius>
8

>  <reactive>
0

>  <rings>
3

>  <RPC+>
0

>  <RPC->
0

>  <rsynth>
0

>  <SlogP>
6.7339001

>  <SlogP_VSA0>
50.770454

>  <SlogP_VSA1>
0

>  <SlogP_VSA2>
6.4686494

>  <SlogP_VSA3>
0

>  <SlogP_VSA4>
13.232388

>  <SlogP_VSA5>
9.5567245

>  <SlogP_VSA6>
0

>  <SlogP_VSA7>
35.286369

>  <SlogP_VSA8>
207.55246

>  <SlogP_VSA9>
165.40485

>  <SMR>
12.26486

>  <SMR_VSA0>
0

>  <SMR_VSA1>
50.770454

>  <SMR_VSA2>
13.232388

>  <SMR_VSA3>
16.025373

>  <SMR_VSA4>
0

>  <SMR_VSA5>
242.83882

>  <SMR_VSA6>
0

>  <SMR_VSA7>
165.40485

>  <TPSA>
40.459999

>  <VAdjEq>
0.3796615

>  <VAdjMa>
5.9541965

>  <VDistEq>
3.697897

>  <VDistMa>
9.4041739

>  <vdw_area>
444.3764

>  <vdw_vol>
631.13495

>  <vsa_acc>
0

>  <vsa_acid>
0

>  <vsa_base>
0

>  <vsa_don>
0

>  <vsa_hyd>
374.26242

>  <vsa_other>
0

>  <vsa_pol>
27.133842

>  <Weight>
400.647

>  <weinerPath>
2450

>  <weinerPol>
46

>  <zagreb>
154

$$$$