O(C)c1cc(ccc1O)C(=O)N(CC)CC
  MOE2013           2D

 16 16  0  0  0  0  0  0  0  0999 V2000
    0.0000    0.0000    0.0000 O   0  0  0  0  0  0  0  0  0  0  0  0
   -0.0120   -1.5000    0.0000 C   0  0  0  0  0  0  0  0  0  0  0  0
    1.3050    0.7400    0.0000 C   0  0  0  0  0  0  0  0  0  0  0  0
    2.5980   -0.0210    0.0000 C   0  0  0  0  0  0  0  0  0  0  0  0
    3.9030    0.7190    0.0000 C   0  0  0  0  0  0  0  0  0  0  0  0
    3.9150    2.2190    0.0000 C   0  0  0  0  0  0  0  0  0  0  0  0
    2.6220    2.9790    0.0000 C   0  0  0  0  0  0  0  0  0  0  0  0
    1.3170    2.2400    0.0000 C   0  0  0  0  0  0  0  0  0  0  0  0
    0.0240    3.0000    0.0000 O   0  0  0  0  0  0  0  0  0  0  0  0
    5.1960   -0.0410    0.0000 C   0  0  0  0  0  0  0  0  0  0  0  0
    5.1840   -1.5410    0.0000 O   0  0  0  0  0  0  0  0  0  0  0  0
    6.5010    0.6990    0.0000 N   0  0  0  0  0  0  0  0  0  0  0  0
    7.7940   -0.0620    0.0000 C   0  0  0  0  0  0  0  0  0  0  0  0
    9.0990    0.6780    0.0000 C   0  0  0  0  0  0  0  0  0  0  0  0
    6.5130    2.1990    0.0000 C   0  0  0  0  0  0  0  0  0  0  0  0
    7.8180    2.9380    0.0000 C   0  0  0  0  0  0  0  0  0  0  0  0
  1  2  1  0  0  0  0
  1  3  1  0  0  0  0
  3  4  1  0  0  0  0
  3  8  2  0  0  0  0
  4  5  2  0  0  0  0
  5  6  1  0  0  0  0
  5 10  1  0  0  0  0
  6  7  2  0  0  0  0
  7  8  1  0  0  0  0
  8  9  1  0  0  0  0
 10 11  2  0  0  0  0
 10 12  1  0  0  0  0
 12 13  1  0  0  0  0
 12 15  1  0  0  0  0
 13 14  1  0  0  0  0
 15 16  1  0  0  0  0
M  END
>  <Index>
1271

>  <ID>
HT2969

>  <class>
0

>  <apol>
35.961479

>  <ast_fraglike>
1

>  <ast_fraglike_ext>
0

>  <ast_violation>
0

>  <ast_violation_ext>
1

>  <a_acc>
3

>  <a_acid>
0

>  <a_aro>
6

>  <a_base>
0

>  <a_count>
33

>  <a_don>
1

>  <a_donacc>
4

>  <a_heavy>
16

>  <a_hyd>
11

>  <a_IC>
49.203701

>  <a_ICM>
1.4910213

>  <a_nB>
0

>  <a_nBr>
0

>  <a_nC>
12

>  <a_nCl>
0

>  <a_nF>
0

>  <a_nH>
17

>  <a_nI>
0

>  <a_nN>
1

>  <a_nO>
3

>  <a_nP>
0

>  <a_nS>
0

>  <balabanJ>
2.5522709

>  <BCUT_PEOE_0>
-2.5878768

>  <BCUT_PEOE_1>
-0.35582712

>  <BCUT_PEOE_2>
0.24536033

>  <BCUT_PEOE_3>
2.5044854

>  <BCUT_SLOGP_0>
-2.6500866

>  <BCUT_SLOGP_1>
-0.20731844

>  <BCUT_SLOGP_2>
0.32301778

>  <BCUT_SLOGP_3>
2.4861488

>  <BCUT_SMR_0>
-2.3082891

>  <BCUT_SMR_1>
-0.10085709

>  <BCUT_SMR_2>
0.40475714

>  <BCUT_SMR_3>
2.7798357

>  <bpol>
23.438519

>  <b_1rotN>
5

>  <b_1rotR>
0.3125

>  <b_ar>
6

>  <b_count>
33

>  <b_double>
1

>  <b_heavy>
16

>  <b_max1len>
6

>  <b_rotN>
5

>  <b_rotR>
0.3125

>  <b_single>
26

>  <b_triple>
0

>  <chi0>
12.129392

>  <chi0v>
9.8571882

>  <chi0v_C>
8.1462641

>  <chi0_C>
8.8449354

>  <chi1>
7.633759

>  <chi1v>
5.2984133

>  <chi1v_C>
3.4022474

>  <chi1_C>
4.2138734

>  <chiral>
0

>  <chiral_u>
0

>  <density>
0.71171385

>  <diameter>
8

>  <FCharge>
0

>  <GCUT_PEOE_0>
-0.85134721

>  <GCUT_PEOE_1>
-0.38822407

>  <GCUT_PEOE_2>
-0.059470847

>  <GCUT_PEOE_3>
2.3939464

>  <GCUT_SLOGP_0>
-0.95942217

>  <GCUT_SLOGP_1>
-0.29112464

>  <GCUT_SLOGP_2>
0.021215979

>  <GCUT_SLOGP_3>
2.4641187

>  <GCUT_SMR_0>
-0.51675379

>  <GCUT_SMR_1>
-0.14160065

>  <GCUT_SMR_2>
0.03694601

>  <GCUT_SMR_3>
2.6567593

>  <Kier1>
14.0625

>  <Kier2>
6.6666665

>  <Kier3>
3.495199

>  <KierA1>
10.89325

>  <KierA2>
5.0685587

>  <KierA3>
2.6201775

>  <KierFlex>
3.4508171

>  <lip_acc>
4

>  <lip_don>
1

>  <lip_druglike>
1

>  <lip_violation>
0

>  <logP(o/w)>
1.767

>  <logS>
-1.7678699

>  <mr>
6.2773848

>  <mutagenic>
0

>  <nmol>
1

>  <opr_brigid>
6

>  <opr_leadlike>
1

>  <opr_nring>
1

>  <opr_nrot>
4

>  <opr_violation>
0

>  <PC+>
0

>  <PC->
0

>  <PEOE_PC+>
1.4959186

>  <PEOE_PC->
-1.4959186

>  <PEOE_RPC+>
0.17022888

>  <PEOE_RPC->
0.23882881

>  <PEOE_VSA+0>
96.244705

>  <PEOE_VSA+1>
25.592316

>  <PEOE_VSA+2>
16.917038

>  <PEOE_VSA+3>
0

>  <PEOE_VSA+4>
10.324173

>  <PEOE_VSA+5>
12.949531

>  <PEOE_VSA+6>
0

>  <PEOE_VSA-0>
74.260063

>  <PEOE_VSA-1>
0

>  <PEOE_VSA-2>
0

>  <PEOE_VSA-3>
0

>  <PEOE_VSA-4>
0

>  <PEOE_VSA-5>
13.566921

>  <PEOE_VSA-6>
10.271297

>  <PEOE_VSA_FHYD>
0.81888813

>  <PEOE_VSA_FNEG>
0.37711826

>  <PEOE_VSA_FPNEG>
0.091641024

>  <PEOE_VSA_FPOL>
0.18111189

>  <PEOE_VSA_FPOS>
0.62288171

>  <PEOE_VSA_FPPOS>
0.089470871

>  <PEOE_VSA_HYD>
213.01413

>  <PEOE_VSA_NEG>
98.098282

>  <PEOE_VSA_PNEG>
23.838217

>  <PEOE_VSA_POL>
47.111919

>  <PEOE_VSA_POS>
162.02777

>  <PEOE_VSA_PPOS>
23.273705

>  <petitjean>
0.5

>  <petitjeanSC>
1

>  <Q_PC+>
0

>  <Q_PC->
0

>  <Q_RPC+>
0

>  <Q_RPC->
0

>  <Q_VSA_FHYD>
1

>  <Q_VSA_FNEG>
0

>  <Q_VSA_FPNEG>
0

>  <Q_VSA_FPOL>
0

>  <Q_VSA_FPOS>
1

>  <Q_VSA_FPPOS>
0

>  <Q_VSA_HYD>
260.12604

>  <Q_VSA_NEG>
0

>  <Q_VSA_PNEG>
0

>  <Q_VSA_POL>
0

>  <Q_VSA_POS>
260.12604

>  <Q_VSA_PPOS>
0

>  <radius>
4

>  <reactive>
0

>  <rings>
1

>  <RPC+>
0

>  <RPC->
0

>  <rsynth>
0.375

>  <SlogP>
1.8828

>  <SlogP_VSA0>
36.385113

>  <SlogP_VSA1>
8.3830976

>  <SlogP_VSA2>
0

>  <SlogP_VSA3>
36.879158

>  <SlogP_VSA4>
27.047791

>  <SlogP_VSA5>
35.383869

>  <SlogP_VSA6>
0

>  <SlogP_VSA7>
52.929554

>  <SlogP_VSA8>
0

>  <SlogP_VSA9>
77.138885

>  <SMR>
6.19103

>  <SMR_VSA0>
23.862217

>  <SMR_VSA1>
39.50943

>  <SMR_VSA2>
0

>  <SMR_VSA3>
13.672431

>  <SMR_VSA4>
0

>  <SMR_VSA5>
52.929554

>  <SMR_VSA6>
42.137939

>  <SMR_VSA7>
102.0359

>  <TPSA>
49.77

>  <VAdjEq>
0.54356444

>  <VAdjMa>
5

>  <VDistEq>
2.8540635

>  <VDistMa>
7.708693

>  <vdw_area>
260.12604

>  <vdw_vol>
313.71033

>  <vsa_acc>
16.070677

>  <vsa_acid>
0

>  <vsa_base>
0

>  <vsa_don>
0

>  <vsa_hyd>
201.6254

>  <vsa_other>
12.949531

>  <vsa_pol>
29.637598

>  <Weight>
223.27199

>  <weinerPath>
445

>  <weinerPol>
24

>  <zagreb>
74

$$$$