O=C(N(CCCN(C)C)C(=O)NCC)[C@@H]1C[C@H]2[C@H](N(C1)CC=C)Cc1c3c2cccc3[nH]c1
  MOE2013           2D

 33 36  0  0  1  0  0  0  0  0999 V2000
    0.0000    0.0000    0.0000 O   0  0  0  0  0  0  0  0  0  0  0  0
    0.0050    1.5000    0.0000 C   0  0  0  0  0  0  0  0  0  0  0  0
    1.3060    2.2460    0.0000 N   0  0  0  0  0  0  0  0  0  0  0  0
    1.3110    3.7460    0.0000 C   0  0  0  0  0  0  0  0  0  0  0  0
    2.6120    4.4920    0.0000 C   0  0  0  0  0  0  0  0  0  0  0  0
    2.6170    5.9920    0.0000 C   0  0  0  0  0  0  0  0  0  0  0  0
    3.9180    6.7380    0.0000 N   0  0  0  0  0  0  0  0  0  0  0  0
    3.9230    8.2380    0.0000 C   0  0  0  0  0  0  0  0  0  0  0  0
    5.2150    5.9840    0.0000 C   0  0  0  0  0  0  0  0  0  0  0  0
    2.6030    1.4920    0.0000 C   0  0  0  0  0  0  0  0  0  0  0  0
    2.5980   -0.0080    0.0000 O   0  0  0  0  0  0  0  0  0  0  0  0
    3.9040    2.2380    0.0000 N   0  0  0  0  0  0  0  0  0  0  0  0
    5.2010    1.4840    0.0000 C   0  0  0  0  0  0  0  0  0  0  0  0
    6.5020    2.2300    0.0000 C   0  0  0  0  0  0  0  0  0  0  0  0
   -1.2920    2.2540    0.0000 C   0  0  2  0  0  0  0  0  0  0  0  0
   -2.5930    1.5080    0.0000 C   0  0  0  0  0  0  0  0  0  0  0  0
   -3.8980    2.2950    0.0000 C   0  0  1  0  0  0  0  0  0  0  0  0
   -3.8780    3.7580    0.0000 C   0  0  2  0  0  0  0  0  0  0  0  0
   -2.5840    4.5080    0.0000 N   0  0  3  0  0  0  0  0  0  0  0  0
   -1.2870    3.7540    0.0000 C   0  0  0  0  0  0  0  0  0  0  0  0
   -2.5830    6.0080    0.0000 C   0  0  0  0  0  0  0  0  0  0  0  0
   -3.8820    6.7590    0.0000 C   0  0  0  0  0  0  0  0  0  0  0  0
   -3.8810    8.2590    0.0000 C   0  0  0  0  0  0  0  0  0  0  0  0
   -5.1390    4.5060    0.0000 C   0  0  0  0  0  0  0  0  0  0  0  0
   -6.4180    3.7900    0.0000 C   0  0  0  0  0  0  0  0  0  0  0  0
   -6.4330    2.3210    0.0000 C   0  0  0  0  0  0  0  0  0  0  0  0
   -5.1720    1.5700    0.0000 C   0  0  0  0  0  0  0  0  0  0  0  0
   -5.1920    0.1080    0.0000 C   0  0  0  0  0  0  0  0  0  0  0  0
   -6.4630   -0.6150    0.0000 C   0  0  0  0  0  0  0  0  0  0  0  0
   -7.7290    0.1330    0.0000 C   0  0  0  0  0  0  0  0  0  0  0  0
   -7.7140    1.6040    0.0000 C   0  0  0  0  0  0  0  0  0  0  0  0
   -8.7730    2.6790    0.0000 N   0  0  0  0  0  0  0  0  0  0  0  0
   -7.8300    4.2890    0.0000 C   0  0  0  0  0  0  0  0  0  0  0  0
  1  2  2  0  0  0  0
  2  3  1  0  0  0  0
  3  4  1  0  0  0  0
  3 10  1  0  0  0  0
  4  5  1  0  0  0  0
  5  6  1  0  0  0  0
  6  7  1  0  0  0  0
  7  8  1  0  0  0  0
  7  9  1  0  0  0  0
 10 11  2  0  0  0  0
 10 12  1  0  0  0  0
 12 13  1  0  0  0  0
 13 14  1  0  0  0  0
 15  2  1  6  0  0  0
 15 16  1  0  0  0  0
 15 20  1  0  0  0  0
 16 17  1  0  0  0  0
 17 18  1  0  0  0  0
 17 27  1  6  0  0  0
 18 19  1  1  0  0  0
 18 24  1  0  0  0  0
 19 20  1  0  0  0  0
 19 21  1  0  0  0  0
 21 22  1  0  0  0  0
 22 23  2  0  0  0  0
 24 25  1  0  0  0  0
 25 26  1  0  0  0  0
 25 33  2  0  0  0  0
 26 27  1  0  0  0  0
 26 31  2  0  0  0  0
 27 28  2  0  0  0  0
 28 29  1  0  0  0  0
 29 30  2  0  0  0  0
 30 31  1  0  0  0  0
 31 32  1  0  0  0  0
 32 33  1  0  0  0  0
M  END
>  <Index>
174

>  <ID>
HT0345

>  <class>
0

>  <apol>
77.535339

>  <ast_fraglike>
0

>  <ast_fraglike_ext>
0

>  <ast_violation>
3

>  <ast_violation_ext>
4

>  <a_acc>
4

>  <a_acid>
0

>  <a_aro>
9

>  <a_base>
0

>  <a_count>
70

>  <a_don>
2

>  <a_donacc>
6

>  <a_heavy>
33

>  <a_hyd>
24

>  <a_IC>
100.47897

>  <a_ICM>
1.4354137

>  <a_nB>
0

>  <a_nBr>
0

>  <a_nC>
26

>  <a_nCl>
0

>  <a_nF>
0

>  <a_nH>
37

>  <a_nI>
0

>  <a_nN>
5

>  <a_nO>
2

>  <a_nP>
0

>  <a_nS>
0

>  <balabanJ>
1.5136874

>  <BCUT_PEOE_0>
-2.8207159

>  <BCUT_PEOE_1>
-0.51292455

>  <BCUT_PEOE_2>
0.59567249

>  <BCUT_PEOE_3>
2.7913764

>  <BCUT_SLOGP_0>
-2.872154

>  <BCUT_SLOGP_1>
-0.43296793

>  <BCUT_SLOGP_2>
0.67596328

>  <BCUT_SLOGP_3>
2.7919197

>  <BCUT_SMR_0>
-2.5558691

>  <BCUT_SMR_1>
-0.35218793

>  <BCUT_SMR_2>
0.74489588

>  <BCUT_SMR_3>
3.0528615

>  <bpol>
49.62466

>  <b_1rotN>
10

>  <b_1rotR>
0.27777779

>  <b_ar>
10

>  <b_count>
73

>  <b_double>
3

>  <b_heavy>
36

>  <b_max1len>
6

>  <b_rotN>
11

>  <b_rotR>
0.30555555

>  <b_single>
60

>  <b_triple>
0

>  <chi0>
23.534805

>  <chi0v>
20.1409

>  <chi0v_C>
16.982763

>  <chi0_C>
18.38854

>  <chi1>
15.939091

>  <chi1v>
12.118753

>  <chi1v_C>
7.7035255

>  <chi1_C>
9.1801996

>  <chiral>
3

>  <chiral_u>
0

>  <density>
0.69202161

>  <diameter>
13

>  <FCharge>
0

>  <GCUT_PEOE_0>
-0.86381596

>  <GCUT_PEOE_1>
-0.39285654

>  <GCUT_PEOE_2>
0.044986673

>  <GCUT_PEOE_3>
3.1018293

>  <GCUT_SLOGP_0>
-1.1619991

>  <GCUT_SLOGP_1>
-0.30974212

>  <GCUT_SLOGP_2>
0.12785242

>  <GCUT_SLOGP_3>
3.1269822

>  <GCUT_SMR_0>
-0.52376986

>  <GCUT_SMR_1>
-0.21344951

>  <GCUT_SMR_2>
0.16523002

>  <GCUT_SMR_3>
3.3592956

>  <Kier1>
26.074074

>  <Kier2>
11.823145

>  <Kier3>
5.7131519

>  <KierA1>
20.66638

>  <KierA2>
9.2989292

>  <KierA3>
4.4681902

>  <KierFlex>
5.8234906

>  <lip_acc>
7

>  <lip_don>
2

>  <lip_druglike>
1

>  <lip_violation>
0

>  <logP(o/w)>
2.595

>  <logS>
-2.99143

>  <mr>
13.089803

>  <mutagenic>
0

>  <nmol>
1

>  <opr_brigid>
20

>  <opr_leadlike>
1

>  <opr_nring>
4

>  <opr_nrot>
8

>  <opr_violation>
1

>  <PC+>
0

>  <PC->
0

>  <PEOE_PC+>
2.6091568

>  <PEOE_PC->
-2.6091568

>  <PEOE_RPC+>
0.12463463

>  <PEOE_RPC->
0.13811341

>  <PEOE_VSA+0>
201.00008

>  <PEOE_VSA+1>
29.857702

>  <PEOE_VSA+2>
0

>  <PEOE_VSA+3>
17.238026

>  <PEOE_VSA+4>
12.949531

>  <PEOE_VSA+5>
0

>  <PEOE_VSA+6>
17.440542

>  <PEOE_VSA-0>
121.19331

>  <PEOE_VSA-1>
36.764713

>  <PEOE_VSA-2>
22.301268

>  <PEOE_VSA-3>
0

>  <PEOE_VSA-4>
13.566921

>  <PEOE_VSA-5>
13.566921

>  <PEOE_VSA-6>
0.27378201

>  <PEOE_VSA_FHYD>
0.8811121

>  <PEOE_VSA_FNEG>
0.42716387

>  <PEOE_VSA_FPNEG>
0.056376565

>  <PEOE_VSA_FPOL>
0.11888793

>  <PEOE_VSA_FPOS>
0.5728361

>  <PEOE_VSA_FPPOS>
0.062511362

>  <PEOE_VSA_HYD>
428.35507

>  <PEOE_VSA_NEG>
207.6669

>  <PEOE_VSA_PNEG>
27.407623

>  <PEOE_VSA_POL>
57.797699

>  <PEOE_VSA_POS>
278.48587

>  <PEOE_VSA_PPOS>
30.390074

>  <petitjean>
0.46153846

>  <petitjeanSC>
0.85714287

>  <Q_PC+>
0

>  <Q_PC->
0

>  <Q_RPC+>
0

>  <Q_RPC->
0

>  <Q_VSA_FHYD>
1

>  <Q_VSA_FNEG>
0

>  <Q_VSA_FPNEG>
0

>  <Q_VSA_FPOL>
0

>  <Q_VSA_FPOS>
1

>  <Q_VSA_FPPOS>
0

>  <Q_VSA_HYD>
486.15277

>  <Q_VSA_NEG>
0

>  <Q_VSA_PNEG>
0

>  <Q_VSA_POL>
0

>  <Q_VSA_POS>
486.15277

>  <Q_VSA_PPOS>
0

>  <radius>
7

>  <reactive>
0

>  <rings>
4

>  <RPC+>
0

>  <RPC->
0

>  <rsynth>
0.39393941

>  <SlogP>
3.1938701

>  <SlogP_VSA0>
18.01075

>  <SlogP_VSA1>
19.461681

>  <SlogP_VSA2>
44.629715

>  <SlogP_VSA3>
92.197891

>  <SlogP_VSA4>
10.781946

>  <SlogP_VSA5>
84.662781

>  <SlogP_VSA6>
4.4107962

>  <SlogP_VSA7>
92.504196

>  <SlogP_VSA8>
37.736813

>  <SlogP_VSA9>
89.289024

>  <SMR>
13.23654

>  <SMR_VSA0>
47.724434

>  <SMR_VSA1>
9.372942

>  <SMR_VSA2>
39.207077

>  <SMR_VSA3>
14.763915

>  <SMR_VSA4>
4.7171016

>  <SMR_VSA5>
144.3923

>  <SMR_VSA6>
102.28663

>  <SMR_VSA7>
131.22118

>  <TPSA>
71.68

>  <VAdjEq>
0.3512581

>  <VAdjMa>
6.1699252

>  <VDistEq>
3.5446858

>  <VDistMa>
9.8320398

>  <vdw_area>
486.15277

>  <vdw_vol>
652.60242

>  <vsa_acc>
27.133842

>  <vsa_acid>
0

>  <vsa_base>
0

>  <vsa_don>
11.365152

>  <vsa_hyd>
383.51413

>  <vsa_other>
30.390074

>  <vsa_pol>
38.498993

>  <Weight>
451.61499

>  <weinerPath>
3064

>  <weinerPol>
57

>  <zagreb>
174

$$$$