O(C)c1cc(ccc1OC)CCNCC(O)COc1cc(ccc1)C
  MOE2013           2D

 25 26  0  0  1  0  0  0  0  0999 V2000
    0.0000    0.0000    0.0000 O   0  0  0  0  0  0  0  0  0  0  0  0
   -0.0010   -1.5000    0.0000 C   0  0  0  0  0  0  0  0  0  0  0  0
    1.3000    0.7490    0.0000 C   0  0  0  0  0  0  0  0  0  0  0  0
    2.5980   -0.0020    0.0000 C   0  0  0  0  0  0  0  0  0  0  0  0
    3.8980    0.7470    0.0000 C   0  0  0  0  0  0  0  0  0  0  0  0
    3.8990    2.2470    0.0000 C   0  0  0  0  0  0  0  0  0  0  0  0
    2.6010    2.9980    0.0000 C   0  0  0  0  0  0  0  0  0  0  0  0
    1.3010    2.2490    0.0000 C   0  0  0  0  0  0  0  0  0  0  0  0
    0.0030    3.0000    0.0000 O   0  0  0  0  0  0  0  0  0  0  0  0
    0.0040    4.5000    0.0000 C   0  0  0  0  0  0  0  0  0  0  0  0
    5.1960   -0.0050    0.0000 C   0  0  0  0  0  0  0  0  0  0  0  0
    6.4960    0.7440    0.0000 C   0  0  0  0  0  0  0  0  0  0  0  0
    7.7940   -0.0070    0.0000 N   0  0  0  0  0  0  0  0  0  0  0  0
    9.0940    0.7420    0.0000 C   0  0  0  0  0  0  0  0  0  0  0  0
   10.3920   -0.0090    0.0000 C   0  0  3  0  0  0  0  0  0  0  0  0
   10.3910   -1.5090    0.0000 O   0  0  0  0  0  0  0  0  0  0  0  0
   11.6920    0.7400    0.0000 C   0  0  0  0  0  0  0  0  0  0  0  0
   12.9900   -0.0120    0.0000 O   0  0  0  0  0  0  0  0  0  0  0  0
   14.2900    0.7370    0.0000 C   0  0  0  0  0  0  0  0  0  0  0  0
   15.5880   -0.0140    0.0000 C   0  0  0  0  0  0  0  0  0  0  0  0
   16.8880    0.7350    0.0000 C   0  0  0  0  0  0  0  0  0  0  0  0
   16.8890    2.2350    0.0000 C   0  0  0  0  0  0  0  0  0  0  0  0
   15.5910    2.9860    0.0000 C   0  0  0  0  0  0  0  0  0  0  0  0
   14.2910    2.2370    0.0000 C   0  0  0  0  0  0  0  0  0  0  0  0
   18.1870   -0.0160    0.0000 C   0  0  0  0  0  0  0  0  0  0  0  0
  1  2  1  0  0  0  0
  1  3  1  0  0  0  0
  3  4  1  0  0  0  0
  3  8  2  0  0  0  0
  4  5  2  0  0  0  0
  5  6  1  0  0  0  0
  5 11  1  0  0  0  0
  6  7  2  0  0  0  0
  7  8  1  0  0  0  0
  8  9  1  0  0  0  0
  9 10  1  0  0  0  0
 11 12  1  0  0  0  0
 12 13  1  0  0  0  0
 13 14  1  0  0  0  0
 14 15  1  0  0  0  0
 15 16  1  0  0  0  0
 15 17  1  0  0  0  0
 17 18  1  0  0  0  0
 18 19  1  0  0  0  0
 19 20  1  0  0  0  0
 19 24  2  0  0  0  0
 20 21  2  0  0  0  0
 21 22  1  0  0  0  0
 21 25  1  0  0  0  0
 22 23  2  0  0  0  0
 23 24  1  0  0  0  0
M  END
>  <Index>
141

>  <ID>
HT0279

>  <class>
0

>  <apol>
57.51141

>  <ast_fraglike>
0

>  <ast_fraglike_ext>
0

>  <ast_violation>
2

>  <ast_violation_ext>
3

>  <a_acc>
5

>  <a_acid>
0

>  <a_aro>
12

>  <a_base>
0

>  <a_count>
52

>  <a_don>
2

>  <a_donacc>
7

>  <a_heavy>
25

>  <a_hyd>
20

>  <a_IC>
73.602341

>  <a_ICM>
1.4154296

>  <a_nB>
0

>  <a_nBr>
0

>  <a_nC>
20

>  <a_nCl>
0

>  <a_nF>
0

>  <a_nH>
27

>  <a_nI>
0

>  <a_nN>
1

>  <a_nO>
4

>  <a_nP>
0

>  <a_nS>
0

>  <balabanJ>
1.5209304

>  <BCUT_PEOE_0>
-2.6191776

>  <BCUT_PEOE_1>
-0.57080764

>  <BCUT_PEOE_2>
0.59829593

>  <BCUT_PEOE_3>
2.5787723

>  <BCUT_SLOGP_0>
-2.8052964

>  <BCUT_SLOGP_1>
-0.51794672

>  <BCUT_SLOGP_2>
0.58908278

>  <BCUT_SLOGP_3>
2.4931622

>  <BCUT_SMR_0>
-2.3624277

>  <BCUT_SMR_1>
-0.4069283

>  <BCUT_SMR_2>
0.70015979

>  <BCUT_SMR_3>
2.8207841

>  <bpol>
35.924587

>  <b_1rotN>
10

>  <b_1rotR>
0.38461539

>  <b_ar>
12

>  <b_count>
53

>  <b_double>
0

>  <b_heavy>
26

>  <b_max1len>
7

>  <b_rotN>
10

>  <b_rotR>
0.38461539

>  <b_single>
41

>  <b_triple>
0

>  <chi0>
18.070704

>  <chi0v>
15.119187

>  <chi0v_C>
12.947229

>  <chi0_C>
14.242276

>  <chi1>
12.117723

>  <chi1v>
8.4123011

>  <chi1v_C>
5.7294512

>  <chi1_C>
7.4014149

>  <chiral>
1

>  <chiral_u>
1

>  <density>
0.69635028

>  <diameter>
16

>  <FCharge>
0

>  <GCUT_PEOE_0>
-0.84427041

>  <GCUT_PEOE_1>
-0.4138791

>  <GCUT_PEOE_2>
0.047712486

>  <GCUT_PEOE_3>
2.5589821

>  <GCUT_SLOGP_0>
-1.1536611

>  <GCUT_SLOGP_1>
-0.38061184

>  <GCUT_SLOGP_2>
0.11021326

>  <GCUT_SLOGP_3>
2.6149495

>  <GCUT_SMR_0>
-0.51951164

>  <GCUT_SMR_1>
-0.20074692

>  <GCUT_SMR_2>
0.15539593

>  <GCUT_SMR_3>
2.8120461

>  <Kier1>
21.301775

>  <Kier2>
11.658402

>  <Kier3>
7.6370807

>  <KierA1>
17.460497

>  <KierA2>
9.4720621

>  <KierA3>
6.1638975

>  <KierFlex>
6.6154766

>  <lip_acc>
5

>  <lip_don>
2

>  <lip_druglike>
1

>  <lip_violation>
0

>  <logP(o/w)>
2.80774

>  <logS>
-3.4037099

>  <mr>
9.973217

>  <mutagenic>
0

>  <nmol>
1

>  <opr_brigid>
12

>  <opr_leadlike>
1

>  <opr_nring>
2

>  <opr_nrot>
10

>  <opr_violation>
0

>  <PC+>
0

>  <PC->
0

>  <PEOE_PC+>
2.1693356

>  <PEOE_PC->
-2.1693356

>  <PEOE_RPC+>
0.096772261

>  <PEOE_RPC->
0.17896618

>  <PEOE_VSA+0>
101.57611

>  <PEOE_VSA+1>
96.560921

>  <PEOE_VSA+2>
25.536053

>  <PEOE_VSA+3>
0

>  <PEOE_VSA+4>
10.324173

>  <PEOE_VSA+5>
0

>  <PEOE_VSA+6>
0

>  <PEOE_VSA-0>
94.078011

>  <PEOE_VSA-1>
36.764713

>  <PEOE_VSA-2>
0

>  <PEOE_VSA-3>
0

>  <PEOE_VSA-4>
0

>  <PEOE_VSA-5>
0

>  <PEOE_VSA-6>
15.4157

>  <PEOE_VSA_FHYD>
0.93230903

>  <PEOE_VSA_FNEG>
0.38463178

>  <PEOE_VSA_FPNEG>
0.040540352

>  <PEOE_VSA_FPOL>
0.067690961

>  <PEOE_VSA_FPOS>
0.61536819

>  <PEOE_VSA_FPPOS>
0.027150607

>  <PEOE_VSA_HYD>
354.51581

>  <PEOE_VSA_NEG>
146.25842

>  <PEOE_VSA_PNEG>
15.4157

>  <PEOE_VSA_POL>
25.739872

>  <PEOE_VSA_POS>
233.99725

>  <PEOE_VSA_PPOS>
10.324173

>  <petitjean>
0.5

>  <petitjeanSC>
1

>  <Q_PC+>
0

>  <Q_PC->
0

>  <Q_RPC+>
0

>  <Q_RPC->
0

>  <Q_VSA_FHYD>
1

>  <Q_VSA_FNEG>
0

>  <Q_VSA_FPNEG>
0

>  <Q_VSA_FPOL>
0

>  <Q_VSA_FPOS>
1

>  <Q_VSA_FPPOS>
0

>  <Q_VSA_HYD>
380.25568

>  <Q_VSA_NEG>
0

>  <Q_VSA_PNEG>
0

>  <Q_VSA_POL>
0

>  <Q_VSA_POS>
380.25568

>  <Q_VSA_PPOS>
0

>  <radius>
8

>  <reactive>
0

>  <rings>
2

>  <RPC+>
0

>  <RPC->
0

>  <rsynth>
1

>  <SlogP>
2.5841899

>  <SlogP_VSA0>
76.395638

>  <SlogP_VSA1>
0

>  <SlogP_VSA2>
6.4686494

>  <SlogP_VSA3>
57.805416

>  <SlogP_VSA4>
6.37115

>  <SlogP_VSA5>
89.636139

>  <SlogP_VSA6>
0

>  <SlogP_VSA7>
123.50229

>  <SlogP_VSA8>
0

>  <SlogP_VSA9>
49.056297

>  <SMR>
9.8800497

>  <SMR_VSA0>
0

>  <SMR_VSA1>
58.384892

>  <SMR_VSA2>
18.01075

>  <SMR_VSA3>
28.570084

>  <SMR_VSA4>
0

>  <SMR_VSA5>
142.3707

>  <SMR_VSA6>
57.805416

>  <SMR_VSA7>
104.09375

>  <TPSA>
59.950001

>  <VAdjEq>
0.41335541

>  <VAdjMa>
5.7004399

>  <VDistEq>
3.8297043

>  <VDistMa>
8.9354982

>  <vdw_area>
380.25568

>  <vdw_vol>
496.07074

>  <vsa_acc>
7.5112681

>  <vsa_acid>
0

>  <vsa_base>
0

>  <vsa_don>
0

>  <vsa_hyd>
328.1019

>  <vsa_other>
0

>  <vsa_pol>
26.760765

>  <Weight>
345.439

>  <weinerPath>
1950

>  <weinerPol>
33

>  <zagreb>
118

$$$$