S(O)(=O)(=O)c1cc2c(c(O)c1N=Nc1ccc(cc1OC)-c1cc(OC)c(N=Nc3c(O)c4c(cc3S(O)(=O)=O)cc(S(O)(=O)=O)cc4N)cc1)c(N)cc(S(O)(=O)=O)c2
  MOE2013           2D

 60 65  0  0  0  0  0  0  0  0999 V2000
    0.0000    0.0000    0.0000 S   0  0  0  0  0  0  0  0  0  0  0  0
    0.7500    1.2990    0.0000 O   0  0  0  0  0  0  0  0  0  0  0  0
    1.2990   -0.7500    0.0000 O   0  0  0  0  0  0  0  0  0  0  0  0
   -1.2990    0.7500    0.0000 O   0  0  0  0  0  0  0  0  0  0  0  0
   -0.7500   -1.2990    0.0000 C   0  0  0  0  0  0  0  0  0  0  0  0
   -2.2500   -1.2990    0.0000 C   0  0  0  0  0  0  0  0  0  0  0  0
   -3.0000   -2.5980    0.0000 C   0  0  0  0  0  0  0  0  0  0  0  0
   -2.2500   -3.8970    0.0000 C   0  0  0  0  0  0  0  0  0  0  0  0
   -0.7500   -3.8970    0.0000 C   0  0  0  0  0  0  0  0  0  0  0  0
    0.0000   -5.1960    0.0000 O   0  0  0  0  0  0  0  0  0  0  0  0
    0.0000   -2.5980    0.0000 C   0  0  0  0  0  0  0  0  0  0  0  0
    1.5000   -2.5980    0.0000 N   0  0  0  0  0  0  0  0  0  0  0  0
    2.2500   -3.8970    0.0000 N   0  0  0  0  0  0  0  0  0  0  0  0
    3.7500   -3.8970    0.0000 C   0  0  0  0  0  0  0  0  0  0  0  0
    4.5000   -2.5980    0.0000 C   0  0  0  0  0  0  0  0  0  0  0  0
    6.0000   -2.5980    0.0000 C   0  0  0  0  0  0  0  0  0  0  0  0
    6.7500   -3.8970    0.0000 C   0  0  0  0  0  0  0  0  0  0  0  0
    6.0000   -5.1960    0.0000 C   0  0  0  0  0  0  0  0  0  0  0  0
    4.5000   -5.1960    0.0000 C   0  0  0  0  0  0  0  0  0  0  0  0
    3.7500   -6.4950    0.0000 O   0  0  0  0  0  0  0  0  0  0  0  0
    4.5000   -7.7940    0.0000 C   0  0  0  0  0  0  0  0  0  0  0  0
    8.2500   -3.8970    0.0000 C   0  0  0  0  0  0  0  0  0  0  0  0
    9.0000   -5.1960    0.0000 C   0  0  0  0  0  0  0  0  0  0  0  0
   10.5000   -5.1960    0.0000 C   0  0  0  0  0  0  0  0  0  0  0  0
   11.2500   -6.4950    0.0000 O   0  0  0  0  0  0  0  0  0  0  0  0
   10.5000   -7.7940    0.0000 C   0  0  0  0  0  0  0  0  0  0  0  0
   11.2500   -3.8970    0.0000 C   0  0  0  0  0  0  0  0  0  0  0  0
   12.7500   -3.8970    0.0000 N   0  0  0  0  0  0  0  0  0  0  0  0
   13.5000   -2.5980    0.0000 N   0  0  0  0  0  0  0  0  0  0  0  0
   15.0000   -2.5980    0.0000 C   0  0  0  0  0  0  0  0  0  0  0  0
   15.7500   -3.8970    0.0000 C   0  0  0  0  0  0  0  0  0  0  0  0
   15.0000   -5.1960    0.0000 O   0  0  0  0  0  0  0  0  0  0  0  0
   17.2500   -3.8970    0.0000 C   0  0  0  0  0  0  0  0  0  0  0  0
   18.0000   -2.5980    0.0000 C   0  0  0  0  0  0  0  0  0  0  0  0
   17.2500   -1.2990    0.0000 C   0  0  0  0  0  0  0  0  0  0  0  0
   15.7500   -1.2990    0.0000 C   0  0  0  0  0  0  0  0  0  0  0  0
   15.0000    0.0000    0.0000 S   0  0  0  0  0  0  0  0  0  0  0  0
   14.2500    1.2990    0.0000 O   0  0  0  0  0  0  0  0  0  0  0  0
   16.2990    0.7500    0.0000 O   0  0  0  0  0  0  0  0  0  0  0  0
   13.7010   -0.7500    0.0000 O   0  0  0  0  0  0  0  0  0  0  0  0
   19.5000   -2.5980    0.0000 C   0  0  0  0  0  0  0  0  0  0  0  0
   20.2500   -3.8970    0.0000 C   0  0  0  0  0  0  0  0  0  0  0  0
   21.7500   -3.8970    0.0000 S   0  0  0  0  0  0  0  0  0  0  0  0
   23.2500   -3.8970    0.0000 O   0  0  0  0  0  0  0  0  0  0  0  0
   21.7500   -2.3970    0.0000 O   0  0  0  0  0  0  0  0  0  0  0  0
   21.7500   -5.3970    0.0000 O   0  0  0  0  0  0  0  0  0  0  0  0
   19.5000   -5.1960    0.0000 C   0  0  0  0  0  0  0  0  0  0  0  0
   18.0000   -5.1960    0.0000 C   0  0  0  0  0  0  0  0  0  0  0  0
   17.2500   -6.4950    0.0000 N   0  0  0  0  0  0  0  0  0  0  0  0
   10.5000   -2.5980    0.0000 C   0  0  0  0  0  0  0  0  0  0  0  0
    9.0000   -2.5980    0.0000 C   0  0  0  0  0  0  0  0  0  0  0  0
   -3.0000   -5.1960    0.0000 C   0  0  0  0  0  0  0  0  0  0  0  0
   -2.2500   -6.4950    0.0000 N   0  0  0  0  0  0  0  0  0  0  0  0
   -4.5000   -5.1960    0.0000 C   0  0  0  0  0  0  0  0  0  0  0  0
   -5.2500   -3.8970    0.0000 C   0  0  0  0  0  0  0  0  0  0  0  0
   -6.7500   -3.8970    0.0000 S   0  0  0  0  0  0  0  0  0  0  0  0
   -8.2500   -3.8970    0.0000 O   0  0  0  0  0  0  0  0  0  0  0  0
   -6.7500   -2.3970    0.0000 O   0  0  0  0  0  0  0  0  0  0  0  0
   -6.7500   -5.3970    0.0000 O   0  0  0  0  0  0  0  0  0  0  0  0
   -4.5000   -2.5980    0.0000 C   0  0  0  0  0  0  0  0  0  0  0  0
  1  2  1  0  0  0  0
  1  3  2  0  0  0  0
  1  4  2  0  0  0  0
  1  5  1  0  0  0  0
  5  6  1  0  0  0  0
  5 11  2  0  0  0  0
  6  7  2  0  0  0  0
  7  8  1  0  0  0  0
  7 60  1  0  0  0  0
  8  9  2  0  0  0  0
  8 52  1  0  0  0  0
  9 10  1  0  0  0  0
  9 11  1  0  0  0  0
 11 12  1  0  0  0  0
 12 13  2  3  0  0  0
 13 14  1  0  0  0  0
 14 15  1  0  0  0  0
 14 19  2  0  0  0  0
 15 16  2  0  0  0  0
 16 17  1  0  0  0  0
 17 18  2  0  0  0  0
 17 22  1  0  0  0  0
 18 19  1  0  0  0  0
 19 20  1  0  0  0  0
 20 21  1  0  0  0  0
 22 23  1  0  0  0  0
 22 51  2  0  0  0  0
 23 24  2  0  0  0  0
 24 25  1  0  0  0  0
 24 27  1  0  0  0  0
 25 26  1  0  0  0  0
 27 28  1  0  0  0  0
 27 50  2  0  0  0  0
 28 29  2  3  0  0  0
 29 30  1  0  0  0  0
 30 31  1  0  0  0  0
 30 36  2  0  0  0  0
 31 32  1  0  0  0  0
 31 33  2  0  0  0  0
 33 34  1  0  0  0  0
 33 48  1  0  0  0  0
 34 35  2  0  0  0  0
 34 41  1  0  0  0  0
 35 36  1  0  0  0  0
 36 37  1  0  0  0  0
 37 38  1  0  0  0  0
 37 39  2  0  0  0  0
 37 40  2  0  0  0  0
 41 42  2  0  0  0  0
 42 43  1  0  0  0  0
 42 47  1  0  0  0  0
 43 44  1  0  0  0  0
 43 45  2  0  0  0  0
 43 46  2  0  0  0  0
 47 48  2  0  0  0  0
 48 49  1  0  0  0  0
 50 51  1  0  0  0  0
 52 53  1  0  0  0  0
 52 54  2  0  0  0  0
 54 55  1  0  0  0  0
 55 56  1  0  0  0  0
 55 60  2  0  0  0  0
 56 57  1  0  0  0  0
 56 58  2  0  0  0  0
 56 59  2  0  0  0  0
M  END
>  <Index>
1194

>  <ID>
HT2384

>  <class>
0

>  <apol>
109.54221

>  <ast_fraglike>
0

>  <ast_fraglike_ext>
0

>  <ast_violation>
4

>  <ast_violation_ext>
6

>  <a_acc>
20

>  <a_acid>
0

>  <a_aro>
32

>  <a_base>
0

>  <a_count>
88

>  <a_don>
16

>  <a_donacc>
36

>  <a_heavy>
60

>  <a_hyd>
34

>  <a_IC>
173.34053

>  <a_ICM>
1.9697788

>  <a_nB>
0

>  <a_nBr>
0

>  <a_nC>
34

>  <a_nCl>
0

>  <a_nF>
0

>  <a_nH>
28

>  <a_nI>
0

>  <a_nN>
6

>  <a_nO>
16

>  <a_nP>
0

>  <a_nS>
4

>  <balabanJ>
1.0377882

>  <BCUT_PEOE_0>
-2.2963712

>  <BCUT_PEOE_1>
-0.79089797

>  <BCUT_PEOE_2>
0.72522575

>  <BCUT_PEOE_3>
2.4093971

>  <BCUT_SLOGP_0>
-2.3482077

>  <BCUT_SLOGP_1>
-0.69865215

>  <BCUT_SLOGP_2>
0.79897308

>  <BCUT_SLOGP_3>
2.5236967

>  <BCUT_SMR_0>
-1.9892812

>  <BCUT_SMR_1>
-0.53709817

>  <BCUT_SMR_2>
0.9486503

>  <BCUT_SMR_3>
2.7201331

>  <bpol>
61.665794

>  <b_1rotN>
11

>  <b_1rotR>
0.16923077

>  <b_ar>
34

>  <b_count>
93

>  <b_double>
2

>  <b_heavy>
65

>  <b_max1len>
3

>  <b_rotN>
11

>  <b_rotR>
0.16923077

>  <b_single>
57

>  <b_triple>
0

>  <chi0>
44.274929

>  <chi0v>
33.536503

>  <chi0v_C>
18.928204

>  <chi0_C>
22.032288

>  <chi1>
27.826103

>  <chi1v>
21.874285

>  <chi1v_C>
9.6901693

>  <chi1_C>
13.4983

>  <chiral>
0

>  <chiral_u>
0

>  <density>
0.93266916

>  <diameter>
27

>  <FCharge>
0

>  <GCUT_PEOE_0>
-0.80555069

>  <GCUT_PEOE_1>
-0.48727548

>  <GCUT_PEOE_2>
0.12326003

>  <GCUT_PEOE_3>
2.7931163

>  <GCUT_SLOGP_0>
-1.3344254

>  <GCUT_SLOGP_1>
-0.41852066

>  <GCUT_SLOGP_2>
0.1870655

>  <GCUT_SLOGP_3>
2.9541433

>  <GCUT_SMR_0>
-0.48361903

>  <GCUT_SMR_1>
-0.21500169

>  <GCUT_SMR_2>
0.34108075

>  <GCUT_SMR_3>
3.0816905

>  <Kier1>
49.434319

>  <Kier2>
19.076893

>  <Kier3>
11.004821

>  <KierA1>
41.903873

>  <KierA2>
16.123806

>  <KierA3>
9.282691

>  <KierFlex>
11.260832

>  <lip_acc>
22

>  <lip_don>
10

>  <lip_druglike>
0

>  <lip_violation>
4

>  <logP(o/w)>
4.138

>  <logS>
-10.37152

>  <mr>
20.920078

>  <mutagenic>
1

>  <nmol>
1

>  <opr_brigid>
36

>  <opr_leadlike>
0

>  <opr_nring>
6

>  <opr_nrot>
11

>  <opr_violation>
6

>  <PC+>
0

>  <PC->
0

>  <PEOE_PC+>
5.750668

>  <PEOE_PC->
-5.750668

>  <PEOE_RPC+>
0.056913968

>  <PEOE_RPC->
0.062049489

>  <PEOE_VSA+0>
72.228577

>  <PEOE_VSA+1>
191.60306

>  <PEOE_VSA+2>
127.76036

>  <PEOE_VSA+3>
0

>  <PEOE_VSA+4>
34.047447

>  <PEOE_VSA+5>
8.3692026

>  <PEOE_VSA+6>
8.3692026

>  <PEOE_VSA-0>
53.436695

>  <PEOE_VSA-1>
24.509808

>  <PEOE_VSA-2>
37.684158

>  <PEOE_VSA-3>
0

>  <PEOE_VSA-4>
128.06609

>  <PEOE_VSA-5>
40.835526

>  <PEOE_VSA-6>
33.844833

>  <PEOE_VSA_FHYD>
0.66673595

>  <PEOE_VSA_FNEG>
0.41850153

>  <PEOE_VSA_FPNEG>
0.26650691

>  <PEOE_VSA_FPOL>
0.33326408

>  <PEOE_VSA_FPOS>
0.5814985

>  <PEOE_VSA_FPPOS>
0.066757172

>  <PEOE_VSA_HYD>
507.22266

>  <PEOE_VSA_NEG>
318.37711

>  <PEOE_VSA_PNEG>
202.74644

>  <PEOE_VSA_POL>
253.5323

>  <PEOE_VSA_POS>
442.37787

>  <PEOE_VSA_PPOS>
50.785854

>  <petitjean>
0.48148149

>  <petitjeanSC>
0.9285714

>  <Q_PC+>
0

>  <Q_PC->
0

>  <Q_RPC+>
0

>  <Q_RPC->
0

>  <Q_VSA_FHYD>
1

>  <Q_VSA_FNEG>
0

>  <Q_VSA_FPNEG>
0

>  <Q_VSA_FPOL>
0

>  <Q_VSA_FPOS>
1

>  <Q_VSA_FPPOS>
0

>  <Q_VSA_HYD>
760.75494

>  <Q_VSA_NEG>
0

>  <Q_VSA_PNEG>
0

>  <Q_VSA_POL>
0

>  <Q_VSA_POS>
760.75494

>  <Q_VSA_PPOS>
0

>  <radius>
14

>  <reactive>
1

>  <rings>
6

>  <RPC+>
0

>  <RPC->
0

>  <rsynth>
0.40000001

>  <SlogP>
3.8076

>  <SlogP_VSA0>
230.28761

>  <SlogP_VSA1>
192.68675

>  <SlogP_VSA2>
34.332596

>  <SlogP_VSA3>
0

>  <SlogP_VSA4>
0

>  <SlogP_VSA5>
143.6227

>  <SlogP_VSA6>
0

>  <SlogP_VSA7>
228.38123

>  <SlogP_VSA8>
0

>  <SlogP_VSA9>
37.514198

>  <SMR>
21.100281

>  <SMR_VSA0>
192.68675

>  <SMR_VSA1>
231.14526

>  <SMR_VSA2>
6.2029357

>  <SMR_VSA3>
20.973713

>  <SMR_VSA4>
33.203491

>  <SMR_VSA5>
277.51257

>  <SMR_VSA6>
0

>  <SMR_VSA7>
105.10033

>  <TPSA>
377.88

>  <VAdjEq>
0.2241684

>  <VAdjMa>
7.022368

>  <VDistEq>
4.5380826

>  <VDistMa>
11.494761

>  <vdw_area>
760.75494

>  <vdw_vol>
970.21326

>  <vsa_acc>
42.691669

>  <vsa_acid>
0

>  <vsa_base>
0

>  <vsa_don>
35.484978

>  <vsa_hyd>
365.03983

>  <vsa_other>
46.051132

>  <vsa_pol>
297.40964

>  <Weight>
904.888

>  <weinerPath>
18484

>  <weinerPol>
114

>  <zagreb>
334

$$$$