S1C[C@H](N(C1)C(=O)[C@@H](O)[C@@H](NC(=O)[C@@H](NC(=O)COc1c2c(ccc1)cncc2)CSC)Cc1ccccc1)C(=O)NC(C)(C)C
  MOE2013           2D

 46 49  0  0  1  0  0  0  0  0999 V2000
    0.0000    0.0000    0.0000 S   0  0  0  0  0  0  0  0  0  0  0  0
   -1.4290    0.4580    0.0000 C   0  0  0  0  0  0  0  0  0  0  0  0
   -1.4350    1.9570    0.0000 C   0  0  2  0  0  0  0  0  0  0  0  0
   -0.0100    2.4270    0.0000 N   0  0  0  0  0  0  0  0  0  0  0  0
    0.8770    1.2170    0.0000 C   0  0  0  0  0  0  0  0  0  0  0  0
    0.4470    3.8560    0.0000 C   0  0  0  0  0  0  0  0  0  0  0  0
   -0.5610    4.9660    0.0000 O   0  0  0  0  0  0  0  0  0  0  0  0
    1.9130    4.1740    0.0000 C   0  0  1  0  0  0  0  0  0  0  0  0
    2.3710    5.6020    0.0000 O   0  0  0  0  0  0  0  0  0  0  0  0
    2.9220    3.0630    0.0000 C   0  0  1  0  0  0  0  0  0  0  0  0
    4.3870    3.3810    0.0000 N   0  0  0  0  0  0  0  0  0  0  0  0
    4.8450    4.8100    0.0000 C   0  0  0  0  0  0  0  0  0  0  0  0
    3.8370    5.9200    0.0000 O   0  0  0  0  0  0  0  0  0  0  0  0
    6.3110    5.1280    0.0000 C   0  0  1  0  0  0  0  0  0  0  0  0
    7.3190    4.0170    0.0000 N   0  0  0  0  0  0  0  0  0  0  0  0
    8.7850    4.3350    0.0000 C   0  0  0  0  0  0  0  0  0  0  0  0
    9.2430    5.7640    0.0000 O   0  0  0  0  0  0  0  0  0  0  0  0
    9.7940    3.2250    0.0000 C   0  0  0  0  0  0  0  0  0  0  0  0
   11.2590    3.5430    0.0000 O   0  0  0  0  0  0  0  0  0  0  0  0
   12.2680    2.4320    0.0000 C   0  0  0  0  0  0  0  0  0  0  0  0
   13.7340    2.7500    0.0000 C   0  0  0  0  0  0  0  0  0  0  0  0
   14.7420    1.6400    0.0000 C   0  0  0  0  0  0  0  0  0  0  0  0
   14.2850    0.2110    0.0000 C   0  0  0  0  0  0  0  0  0  0  0  0
   12.8190   -0.1070    0.0000 C   0  0  0  0  0  0  0  0  0  0  0  0
   11.8100    1.0040    0.0000 C   0  0  0  0  0  0  0  0  0  0  0  0
   16.2080    1.9580    0.0000 C   0  0  0  0  0  0  0  0  0  0  0  0
   16.6650    3.3870    0.0000 N   0  0  0  0  0  0  0  0  0  0  0  0
   15.6570    4.4970    0.0000 C   0  0  0  0  0  0  0  0  0  0  0  0
   14.1910    4.1790    0.0000 C   0  0  0  0  0  0  0  0  0  0  0  0
    6.7680    6.5560    0.0000 C   0  0  0  0  0  0  0  0  0  0  0  0
    5.7600    7.6670    0.0000 S   0  0  0  0  0  0  0  0  0  0  0  0
    6.2170    9.0950    0.0000 C   0  0  0  0  0  0  0  0  0  0  0  0
    2.4640    1.6350    0.0000 C   0  0  0  0  0  0  0  0  0  0  0  0
    3.4720    0.5240    0.0000 C   0  0  0  0  0  0  0  0  0  0  0  0
    4.9380    0.8420    0.0000 C   0  0  0  0  0  0  0  0  0  0  0  0
    5.9470   -0.2680    0.0000 C   0  0  0  0  0  0  0  0  0  0  0  0
    5.4890   -1.6970    0.0000 C   0  0  0  0  0  0  0  0  0  0  0  0
    4.0230   -2.0150    0.0000 C   0  0  0  0  0  0  0  0  0  0  0  0
    3.0150   -0.9040    0.0000 C   0  0  0  0  0  0  0  0  0  0  0  0
   -2.6520    2.8340    0.0000 C   0  0  0  0  0  0  0  0  0  0  0  0
   -2.5020    4.3260    0.0000 O   0  0  0  0  0  0  0  0  0  0  0  0
   -4.0200    2.2180    0.0000 N   0  0  0  0  0  0  0  0  0  0  0  0
   -5.2370    3.0950    0.0000 C   0  0  0  0  0  0  0  0  0  0  0  0
   -6.4540    3.9710    0.0000 C   0  0  0  0  0  0  0  0  0  0  0  0
   -4.3600    4.3120    0.0000 C   0  0  0  0  0  0  0  0  0  0  0  0
   -6.1140    1.8770    0.0000 C   0  0  0  0  0  0  0  0  0  0  0  0
  1  2  1  0  0  0  0
  1  5  1  0  0  0  0
  2  3  1  0  0  0  0
  3  4  1  0  0  0  0
  3 40  1  1  0  0  0
  4  5  1  0  0  0  0
  4  6  1  0  0  0  0
  6  7  2  0  0  0  0
  6  8  1  0  0  0  0
  8  9  1  1  0  0  0
  8 10  1  0  0  0  0
 10 11  1  0  0  0  0
 10 33  1  1  0  0  0
 11 12  1  0  0  0  0
 12 13  2  0  0  0  0
 14 12  1  6  0  0  0
 14 15  1  0  0  0  0
 14 30  1  0  0  0  0
 15 16  1  0  0  0  0
 16 17  2  0  0  0  0
 16 18  1  0  0  0  0
 18 19  1  0  0  0  0
 19 20  1  0  0  0  0
 20 21  2  0  0  0  0
 20 25  1  0  0  0  0
 21 22  1  0  0  0  0
 21 29  1  0  0  0  0
 22 23  2  0  0  0  0
 22 26  1  0  0  0  0
 23 24  1  0  0  0  0
 24 25  2  0  0  0  0
 26 27  2  0  0  0  0
 27 28  1  0  0  0  0
 28 29  2  0  0  0  0
 30 31  1  0  0  0  0
 31 32  1  0  0  0  0
 33 34  1  0  0  0  0
 34 35  1  0  0  0  0
 34 39  2  0  0  0  0
 35 36  2  0  0  0  0
 36 37  1  0  0  0  0
 37 38  2  0  0  0  0
 38 39  1  0  0  0  0
 40 41  2  0  0  0  0
 40 42  1  0  0  0  0
 42 43  1  0  0  0  0
 43 44  1  0  0  0  0
 43 45  1  0  0  0  0
 43 46  1  0  0  0  0
M  END
>  <Index>
1408

>  <ID>
HT3983

>  <class>
0

>  <apol>
101.53051

>  <ast_fraglike>
0

>  <ast_fraglike_ext>
0

>  <ast_violation>
3

>  <ast_violation_ext>
5

>  <a_acc>
7

>  <a_acid>
0

>  <a_aro>
16

>  <a_base>
0

>  <a_count>
87

>  <a_don>
4

>  <a_donacc>
11

>  <a_heavy>
46

>  <a_hyd>
31

>  <a_IC>
145.29204

>  <a_ICM>
1.6700233

>  <a_nB>
0

>  <a_nBr>
0

>  <a_nC>
33

>  <a_nCl>
0

>  <a_nF>
0

>  <a_nH>
41

>  <a_nI>
0

>  <a_nN>
5

>  <a_nO>
6

>  <a_nP>
0

>  <a_nS>
2

>  <balabanJ>
1.3801123

>  <BCUT_PEOE_0>
-2.6672659

>  <BCUT_PEOE_1>
-0.51979768

>  <BCUT_PEOE_2>
0.53155589

>  <BCUT_PEOE_3>
2.7064981

>  <BCUT_SLOGP_0>
-2.8665309

>  <BCUT_SLOGP_1>
-0.47243953

>  <BCUT_SLOGP_2>
0.51249862

>  <BCUT_SLOGP_3>
2.6172569

>  <BCUT_SMR_0>
-2.40291

>  <BCUT_SMR_1>
-0.35514319

>  <BCUT_SMR_2>
0.66643691

>  <BCUT_SMR_3>
2.9851773

>  <bpol>
60.409489

>  <b_1rotN>
14

>  <b_1rotR>
0.2857143

>  <b_ar>
17

>  <b_count>
90

>  <b_double>
4

>  <b_heavy>
49

>  <b_max1len>
6

>  <b_rotN>
18

>  <b_rotR>
0.36734694

>  <b_single>
69

>  <b_triple>
0

>  <chi0>
33.269009

>  <chi0v>
28.02816

>  <chi0v_C>
20.695787

>  <chi0_C>
22.741911

>  <chi1>
21.962547

>  <chi1v>
17.478691

>  <chi1v_C>
9.1965942

>  <chi1_C>
11.490731

>  <chiral>
4

>  <chiral_u>
0

>  <density>
0.76937616

>  <diameter>
20

>  <FCharge>
0

>  <GCUT_PEOE_0>
-0.84053111

>  <GCUT_PEOE_1>
-0.38031667

>  <GCUT_PEOE_2>
0.060436141

>  <GCUT_PEOE_3>
2.9487848

>  <GCUT_SLOGP_0>
-1.1646208

>  <GCUT_SLOGP_1>
-0.3686794

>  <GCUT_SLOGP_2>
0.13487266

>  <GCUT_SLOGP_3>
2.8899961

>  <GCUT_SMR_0>
-0.52358949

>  <GCUT_SMR_1>
-0.21128228

>  <GCUT_SMR_2>
0.18458542

>  <GCUT_SMR_3>
3.2052257

>  <Kier1>
38.796333

>  <Kier2>
18.84083

>  <Kier3>
11.798186

>  <KierA1>
31.591837

>  <KierA2>
15.268599

>  <KierA3>
9.5294781

>  <KierFlex>
10.486154

>  <lip_acc>
11

>  <lip_don>
4

>  <lip_druglike>
0

>  <lip_violation>
2

>  <logP(o/w)>
2.296

>  <logS>
-7.0858498

>  <mr>
18.236364

>  <mutagenic>
0

>  <nmol>
1

>  <opr_brigid>
22

>  <opr_leadlike>
0

>  <opr_nring>
4

>  <opr_nrot>
15

>  <opr_violation>
3

>  <PC+>
0

>  <PC->
0

>  <PEOE_PC+>
4.3890266

>  <PEOE_PC->
-4.3890266

>  <PEOE_RPC+>
0.058201164

>  <PEOE_RPC->
0.086640328

>  <PEOE_VSA+0>
136.0406

>  <PEOE_VSA+1>
107.8152

>  <PEOE_VSA+2>
21.243214

>  <PEOE_VSA+3>
30.761969

>  <PEOE_VSA+4>
49.172764

>  <PEOE_VSA+5>
12.949531

>  <PEOE_VSA+6>
0

>  <PEOE_VSA-0>
112.38643

>  <PEOE_VSA-1>
85.784325

>  <PEOE_VSA-2>
19.760618

>  <PEOE_VSA-3>
19.760618

>  <PEOE_VSA-4>
0

>  <PEOE_VSA-5>
59.95026

>  <PEOE_VSA-6>
10.68197

>  <PEOE_VSA_FHYD>
0.80076087

>  <PEOE_VSA_FNEG>
0.46273562

>  <PEOE_VSA_FPNEG>
0.10600545

>  <PEOE_VSA_FPOL>
0.19923912

>  <PEOE_VSA_FPOS>
0.53726435

>  <PEOE_VSA_FPPOS>
0.093233675

>  <PEOE_VSA_HYD>
533.55298

>  <PEOE_VSA_NEG>
308.32422

>  <PEOE_VSA_PNEG>
70.632233

>  <PEOE_VSA_POL>
132.75453

>  <PEOE_VSA_POS>
357.98328

>  <PEOE_VSA_PPOS>
62.122295

>  <petitjean>
0.5

>  <petitjeanSC>
1

>  <Q_PC+>
0

>  <Q_PC->
0

>  <Q_RPC+>
0

>  <Q_RPC->
0

>  <Q_VSA_FHYD>
1

>  <Q_VSA_FNEG>
0

>  <Q_VSA_FPNEG>
0

>  <Q_VSA_FPOL>
0

>  <Q_VSA_FPOS>
1

>  <Q_VSA_FPPOS>
0

>  <Q_VSA_HYD>
666.3075

>  <Q_VSA_NEG>
0

>  <Q_VSA_PNEG>
0

>  <Q_VSA_POL>
0

>  <Q_VSA_POS>
666.3075

>  <Q_VSA_PPOS>
0

>  <radius>
10

>  <reactive>
0

>  <rings>
4

>  <RPC+>
0

>  <RPC->
0

>  <rsynth>
1

>  <SlogP>
2.3659699

>  <SlogP_VSA0>
90.417366

>  <SlogP_VSA1>
40.944977

>  <SlogP_VSA2>
113.86342

>  <SlogP_VSA3>
72.198128

>  <SlogP_VSA4>
3.185575

>  <SlogP_VSA5>
50.559578

>  <SlogP_VSA6>
0

>  <SlogP_VSA7>
198.3633

>  <SlogP_VSA8>
0

>  <SlogP_VSA9>
169.66055

>  <SMR>
18.14909

>  <SMR_VSA0>
95.448868

>  <SMR_VSA1>
56.294956

>  <SMR_VSA2>
54.032253

>  <SMR_VSA3>
26.843559

>  <SMR_VSA4>
5.1459289

>  <SMR_VSA5>
212.08578

>  <SMR_VSA6>
93.233261

>  <SMR_VSA7>
196.10831

>  <TPSA>
149.96001

>  <VAdjEq>
0.27052692

>  <VAdjMa>
6.6147099

>  <VDistEq>
4.1154513

>  <VDistMa>
10.778153

>  <vdw_area>
666.3075

>  <vdw_vol>
868.04352

>  <vsa_acc>
62.454014

>  <vsa_acid>
0

>  <vsa_base>
0

>  <vsa_don>
17.047728

>  <vsa_hyd>
481.35953

>  <vsa_other>
51.798122

>  <vsa_pol>
93.068665

>  <Weight>
667.85199

>  <weinerPath>
8500

>  <weinerPol>
70

>  <zagreb>
234

$$$$