O=C1CC[C@@]2([C@@H]3[C@H]([C@@H]4CC[C@H](OC(=O)CCC5CCCC5)[C@]4(CC3)C)CCC2=C1)C
  MOE2013           2D

 30 34  0  0  1  0  0  0  0  0999 V2000
    0.0000    0.0000    0.0000 O   0  0  0  0  0  0  0  0  0  0  0  0
    1.5000   -0.0110    0.0000 C   0  0  0  0  0  0  0  0  0  0  0  0
    2.2590    1.2830    0.0000 C   0  0  0  0  0  0  0  0  0  0  0  0
    3.7590    1.2730    0.0000 C   0  0  0  0  0  0  0  0  0  0  0  0
    4.5000   -0.0320    0.0000 C   0  0  2  0  0  0  0  0  0  0  0  0
    6.0000   -0.0420    0.0000 C   0  0  2  0  0  0  0  0  0  0  0  0
    6.7410   -1.3460    0.0000 C   0  0  2  0  0  0  0  0  0  0  0  0
    8.2410   -1.3570    0.0000 C   0  0  2  0  0  0  0  0  0  0  0  0
    9.2370   -2.4790    0.0000 C   0  0  0  0  0  0  0  0  0  0  0  0
   10.6110   -1.8780    0.0000 C   0  0  0  0  0  0  0  0  0  0  0  0
   10.4650   -0.3850    0.0000 C   0  0  2  0  0  0  0  0  0  0  0  0
   11.5870    0.6110    0.0000 O   0  0  0  0  0  0  0  0  0  0  0  0
   13.0100    0.1370    0.0000 C   0  0  0  0  0  0  0  0  0  0  0  0
   13.3110   -1.3320    0.0000 O   0  0  0  0  0  0  0  0  0  0  0  0
   14.1320    1.1330    0.0000 C   0  0  0  0  0  0  0  0  0  0  0  0
   15.5550    0.6590    0.0000 C   0  0  0  0  0  0  0  0  0  0  0  0
   16.6770    1.6550    0.0000 C   0  0  0  0  0  0  0  0  0  0  0  0
   18.1420    1.3330    0.0000 C   0  0  0  0  0  0  0  0  0  0  0  0
   18.9010    2.6270    0.0000 C   0  0  0  0  0  0  0  0  0  0  0  0
   17.9050    3.7490    0.0000 C   0  0  0  0  0  0  0  0  0  0  0  0
   16.5300    3.1480    0.0000 C   0  0  0  0  0  0  0  0  0  0  0  0
    9.0000   -0.0630    0.0000 C   0  0  1  0  0  0  0  0  0  0  0  0
    8.2590    1.2410    0.0000 C   0  0  0  0  0  0  0  0  0  0  0  0
    6.7590    1.2520    0.0000 C   0  0  0  0  0  0  0  0  0  0  0  0
    9.8900    1.1440    0.0000 C   0  0  0  0  0  0  0  0  0  0  0  0
    5.9820   -2.6400    0.0000 C   0  0  0  0  0  0  0  0  0  0  0  0
    4.4820   -2.6300    0.0000 C   0  0  0  0  0  0  0  0  0  0  0  0
    3.7410   -1.3250    0.0000 C   0  0  0  0  0  0  0  0  0  0  0  0
    2.2410   -1.3150    0.0000 C   0  0  0  0  0  0  0  0  0  0  0  0
    5.2810    1.2490    0.0000 C   0  0  0  0  0  0  0  0  0  0  0  0
  1  2  2  0  0  0  0
  2  3  1  0  0  0  0
  2 29  1  0  0  0  0
  3  4  1  0  0  0  0
  4  5  1  0  0  0  0
  5  6  1  0  0  0  0
  5 28  1  0  0  0  0
  5 30  1  1  0  0  0
  6  7  1  0  0  0  0
  6 24  1  1  0  0  0
  7  8  1  0  0  0  0
  7 26  1  6  0  0  0
  8  9  1  1  0  0  0
  8 22  1  0  0  0  0
  9 10  1  0  0  0  0
 10 11  1  0  0  0  0
 11 12  1  1  0  0  0
 11 22  1  0  0  0  0
 12 13  1  0  0  0  0
 13 14  2  0  0  0  0
 13 15  1  0  0  0  0
 15 16  1  0  0  0  0
 16 17  1  0  0  0  0
 17 18  1  0  0  0  0
 17 21  1  0  0  0  0
 18 19  1  0  0  0  0
 19 20  1  0  0  0  0
 20 21  1  0  0  0  0
 22 23  1  0  0  0  0
 22 25  1  1  0  0  0
 23 24  1  0  0  0  0
 26 27  1  0  0  0  0
 27 28  1  0  0  0  0
 28 29  2  0  0  0  0
M  END
>  <Index>
1056

>  <ID>
HT2018

>  <class>
0

>  <apol>
76.597717

>  <ast_fraglike>
0

>  <ast_fraglike_ext>
0

>  <ast_violation>
2

>  <ast_violation_ext>
3

>  <a_acc>
2

>  <a_acid>
0

>  <a_aro>
0

>  <a_base>
0

>  <a_count>
70

>  <a_don>
0

>  <a_donacc>
2

>  <a_heavy>
30

>  <a_hyd>
25

>  <a_IC>
83.035835

>  <a_ICM>
1.1862262

>  <a_nB>
0

>  <a_nBr>
0

>  <a_nC>
27

>  <a_nCl>
0

>  <a_nF>
0

>  <a_nH>
40

>  <a_nI>
0

>  <a_nN>
0

>  <a_nO>
3

>  <a_nP>
0

>  <a_nS>
0

>  <balabanJ>
1.2263494

>  <BCUT_PEOE_0>
-2.9444733

>  <BCUT_PEOE_1>
-0.52021039

>  <BCUT_PEOE_2>
0.4302381

>  <BCUT_PEOE_3>
2.9575942

>  <BCUT_SLOGP_0>
-2.8629532

>  <BCUT_SLOGP_1>
-0.43987909

>  <BCUT_SLOGP_2>
0.49903035

>  <BCUT_SLOGP_3>
3.034966

>  <BCUT_SMR_0>
-2.6884837

>  <BCUT_SMR_1>
-0.33022064

>  <BCUT_SMR_2>
0.62343937

>  <BCUT_SMR_3>
3.2103937

>  <bpol>
47.56028

>  <b_1rotN>
4

>  <b_1rotR>
0.11764706

>  <b_ar>
0

>  <b_count>
74

>  <b_double>
3

>  <b_heavy>
34

>  <b_max1len>
4

>  <b_rotN>
5

>  <b_rotR>
0.14705883

>  <b_single>
71

>  <b_triple>
0

>  <chi0>
20.93251

>  <chi0v>
19.088341

>  <chi0v_C>
17.863596

>  <chi0_C>
18.225405

>  <chi1>
14.39865

>  <chi1v>
12.833622

>  <chi1v_C>
11.985547

>  <chi1_C>
12.427453

>  <chiral>
6

>  <chiral_u>
0

>  <density>
0.67517585

>  <diameter>
16

>  <FCharge>
0

>  <GCUT_PEOE_0>
-0.80220479

>  <GCUT_PEOE_1>
-0.36173761

>  <GCUT_PEOE_2>
0.010126906

>  <GCUT_PEOE_3>
3.3543706

>  <GCUT_SLOGP_0>
-0.85174567

>  <GCUT_SLOGP_1>
-0.26307973

>  <GCUT_SLOGP_2>
0.021610606

>  <GCUT_SLOGP_3>
3.4400122

>  <GCUT_SMR_0>
-0.53998625

>  <GCUT_SMR_1>
-0.21015072

>  <GCUT_SMR_2>
0.1318644

>  <GCUT_SMR_3>
3.5791917

>  <Kier1>
21.82526

>  <Kier2>
8.4082842

>  <Kier3>
3.8655953

>  <KierA1>
19.96089

>  <KierA2>
7.6654401

>  <KierA3>
3.5161049

>  <KierFlex>
5.1003003

>  <lip_acc>
3

>  <lip_don>
0

>  <lip_druglike>
1

>  <lip_violation>
1

>  <logP(o/w)>
5.7979999

>  <logS>
-7.7579699

>  <mr>
11.938425

>  <mutagenic>
0

>  <nmol>
1

>  <opr_brigid>
25

>  <opr_leadlike>
0

>  <opr_nring>
5

>  <opr_nrot>
5

>  <opr_violation>
2

>  <PC+>
0

>  <PC->
0

>  <PEOE_PC+>
1.7293057

>  <PEOE_PC->
-1.7293057

>  <PEOE_RPC+>
0.15176043

>  <PEOE_RPC->
0.18002735

>  <PEOE_VSA+0>
179.48729

>  <PEOE_VSA+1>
13.4357

>  <PEOE_VSA+2>
0

>  <PEOE_VSA+3>
8.458519

>  <PEOE_VSA+4>
0

>  <PEOE_VSA+5>
14.708499

>  <PEOE_VSA+6>
0

>  <PEOE_VSA-0>
81.86541

>  <PEOE_VSA-1>
74.509148

>  <PEOE_VSA-2>
0

>  <PEOE_VSA-3>
0

>  <PEOE_VSA-4>
0

>  <PEOE_VSA-5>
27.133842

>  <PEOE_VSA-6>
2.503756

>  <PEOE_VSA_FHYD>
0.88971436

>  <PEOE_VSA_FNEG>
0.46259925

>  <PEOE_VSA_FPNEG>
0.073706634

>  <PEOE_VSA_FPOL>
0.11028565

>  <PEOE_VSA_FPOS>
0.53740078

>  <PEOE_VSA_FPPOS>
0.036579009

>  <PEOE_VSA_HYD>
357.75607

>  <PEOE_VSA_NEG>
186.01216

>  <PEOE_VSA_PNEG>
29.637598

>  <PEOE_VSA_POL>
44.346096

>  <PEOE_VSA_POS>
216.09001

>  <PEOE_VSA_PPOS>
14.708499

>  <petitjean>
0.5

>  <petitjeanSC>
1

>  <Q_PC+>
0

>  <Q_PC->
0

>  <Q_RPC+>
0

>  <Q_RPC->
0

>  <Q_VSA_FHYD>
1

>  <Q_VSA_FNEG>
0

>  <Q_VSA_FPNEG>
0

>  <Q_VSA_FPOL>
0

>  <Q_VSA_FPOS>
1

>  <Q_VSA_FPPOS>
0

>  <Q_VSA_HYD>
402.10217

>  <Q_VSA_NEG>
0

>  <Q_VSA_PNEG>
0

>  <Q_VSA_POL>
0

>  <Q_VSA_POS>
402.10217

>  <Q_VSA_PPOS>
0

>  <radius>
8

>  <reactive>
1

>  <rings>
5

>  <RPC+>
0

>  <RPC->
0

>  <rsynth>
0.30000001

>  <SlogP>
6.4004998

>  <SlogP_VSA0>
0

>  <SlogP_VSA1>
13.433075

>  <SlogP_VSA2>
65.19297

>  <SlogP_VSA3>
0

>  <SlogP_VSA4>
17.643185

>  <SlogP_VSA5>
3.185575

>  <SlogP_VSA6>
0

>  <SlogP_VSA7>
17.643185

>  <SlogP_VSA8>
264.15768

>  <SlogP_VSA9>
66.652031

>  <SMR>
11.7782

>  <SMR_VSA0>
58.724319

>  <SMR_VSA1>
0

>  <SMR_VSA2>
17.643185

>  <SMR_VSA3>
9.6542244

>  <SMR_VSA4>
0

>  <SMR_VSA5>
281.80087

>  <SMR_VSA6>
13.433075

>  <SMR_VSA7>
66.652031

>  <TPSA>
43.369999

>  <VAdjEq>
0.38632196

>  <VAdjMa>
6.0874629

>  <VDistEq>
3.6916883

>  <VDistMa>
9.491786

>  <vdw_area>
402.10217

>  <vdw_vol>
611.12079

>  <vsa_acc>
27.133842

>  <vsa_acid>
0

>  <vsa_base>
0

>  <vsa_don>
0

>  <vsa_hyd>
315.44553

>  <vsa_other>
25.670774

>  <vsa_pol>
27.133842

>  <Weight>
412.61398

>  <weinerPath>
2542

>  <weinerPol>
55

>  <zagreb>
172

$$$$