O1C(OC2C(O)C(OC3OCC(O)(C)C(NC)C3O)C(N)CC2N)C(N)CC=C1CN
  MOE2013           2D

 31 33  0  0  1  0  0  0  0  0999 V2000
    0.0000    0.0000    0.0000 O   0  0  0  0  0  0  0  0  0  0  0  0
    0.0080    1.5000    0.0000 C   0  0  3  0  0  0  0  0  0  0  0  0
   -1.2870    2.2570    0.0000 O   0  0  0  0  0  0  0  0  0  0  0  0
   -2.5900    1.5140    0.0000 C   0  0  3  0  0  0  0  0  0  0  0  0
   -3.8850    2.2710    0.0000 C   0  0  3  0  0  0  0  0  0  0  0  0
   -3.8770    3.7710    0.0000 O   0  0  0  0  0  0  0  0  0  0  0  0
   -5.1880    1.5280    0.0000 C   0  0  3  0  0  0  0  0  0  0  0  0
   -6.4830    2.2850    0.0000 O   0  0  0  0  0  0  0  0  0  0  0  0
   -7.7860    1.5410    0.0000 C   0  0  3  0  0  0  0  0  0  0  0  0
   -7.7940    0.0410    0.0000 O   0  0  0  0  0  0  0  0  0  0  0  0
   -9.0970   -0.7020    0.0000 C   0  0  0  0  0  0  0  0  0  0  0  0
  -10.3920    0.0550    0.0000 C   0  0  3  0  0  0  0  0  0  0  0  0
  -11.8920    0.0630    0.0000 O   0  0  0  0  0  0  0  0  0  0  0  0
  -11.1490   -1.2400    0.0000 C   0  0  0  0  0  0  0  0  0  0  0  0
  -10.3840    1.5550    0.0000 C   0  0  3  0  0  0  0  0  0  0  0  0
  -11.6790    2.3120    0.0000 N   0  0  0  0  0  0  0  0  0  0  0  0
  -11.6710    3.8120    0.0000 C   0  0  0  0  0  0  0  0  0  0  0  0
   -9.0810    2.2980    0.0000 C   0  0  3  0  0  0  0  0  0  0  0  0
   -9.0730    3.7980    0.0000 O   0  0  0  0  0  0  0  0  0  0  0  0
   -5.1960    0.0280    0.0000 C   0  0  3  0  0  0  0  0  0  0  0  0
   -6.4990   -0.7150    0.0000 N   0  0  0  0  0  0  0  0  0  0  0  0
   -3.9010   -0.7290    0.0000 C   0  0  0  0  0  0  0  0  0  0  0  0
   -2.5980    0.0140    0.0000 C   0  0  3  0  0  0  0  0  0  0  0  0
   -1.3030   -0.7430    0.0000 N   0  0  0  0  0  0  0  0  0  0  0  0
    1.3110    2.2430    0.0000 C   0  0  3  0  0  0  0  0  0  0  0  0
    1.3190    3.7430    0.0000 N   0  0  0  0  0  0  0  0  0  0  0  0
    2.6060    1.4860    0.0000 C   0  0  0  0  0  0  0  0  0  0  0  0
    2.5980   -0.0140    0.0000 C   0  0  0  0  0  0  0  0  0  0  0  0
    1.2950   -0.7570    0.0000 C   0  0  0  0  0  0  0  0  0  0  0  0
    1.2870   -2.2570    0.0000 C   0  0  0  0  0  0  0  0  0  0  0  0
    2.5820   -3.0140    0.0000 N   0  0  0  0  0  0  0  0  0  0  0  0
  1  2  1  0  0  0  0
  1 29  1  0  0  0  0
  2  3  1  0  0  0  0
  2 25  1  0  0  0  0
  3  4  1  0  0  0  0
  4  5  1  0  0  0  0
  4 23  1  0  0  0  0
  5  6  1  0  0  0  0
  5  7  1  0  0  0  0
  7  8  1  0  0  0  0
  7 20  1  0  0  0  0
  8  9  1  0  0  0  0
  9 10  1  0  0  0  0
  9 18  1  0  0  0  0
 10 11  1  0  0  0  0
 11 12  1  0  0  0  0
 12 13  1  0  0  0  0
 12 14  1  0  0  0  0
 12 15  1  0  0  0  0
 15 16  1  0  0  0  0
 15 18  1  0  0  0  0
 16 17  1  0  0  0  0
 18 19  1  0  0  0  0
 20 21  1  0  0  0  0
 20 22  1  0  0  0  0
 22 23  1  0  0  0  0
 23 24  1  0  0  0  0
 25 26  1  0  0  0  0
 25 27  1  0  0  0  0
 27 28  1  0  0  0  0
 28 29  2  0  0  0  0
 29 30  1  0  0  0  0
 30 31  1  0  0  0  0
M  END
>  <Index>
1387

>  <ID>
HT3834

>  <class>
0

>  <apol>
69.225342

>  <ast_fraglike>
0

>  <ast_fraglike_ext>
0

>  <ast_violation>
3

>  <ast_violation_ext>
5

>  <a_acc>
12

>  <a_acid>
0

>  <a_aro>
0

>  <a_base>
0

>  <a_count>
68

>  <a_don>
8

>  <a_donacc>
20

>  <a_heavy>
31

>  <a_hyd>
17

>  <a_IC>
109.22595

>  <a_ICM>
1.606264

>  <a_nB>
0

>  <a_nBr>
0

>  <a_nC>
19

>  <a_nCl>
0

>  <a_nF>
0

>  <a_nH>
37

>  <a_nI>
0

>  <a_nN>
5

>  <a_nO>
7

>  <a_nP>
0

>  <a_nS>
0

>  <balabanJ>
1.6836184

>  <BCUT_PEOE_0>
-2.8164918

>  <BCUT_PEOE_1>
-0.54780996

>  <BCUT_PEOE_2>
0.60084277

>  <BCUT_PEOE_3>
2.8412206

>  <BCUT_SLOGP_0>
-3.0151105

>  <BCUT_SLOGP_1>
-0.51719916

>  <BCUT_SLOGP_2>
0.59080321

>  <BCUT_SLOGP_3>
2.6795866

>  <BCUT_SMR_0>
-2.5903342

>  <BCUT_SMR_1>
-0.42096806

>  <BCUT_SMR_2>
0.70727855

>  <BCUT_SMR_3>
3.0542548

>  <bpol>
46.13266

>  <b_1rotN>
6

>  <b_1rotR>
0.18181819

>  <b_ar>
0

>  <b_count>
70

>  <b_double>
1

>  <b_heavy>
33

>  <b_max1len>
4

>  <b_rotN>
6

>  <b_rotR>
0.18181819

>  <b_single>
69

>  <b_triple>
0

>  <chi0>
22.921921

>  <chi0v>
17.963316

>  <chi0v_C>
12.17928

>  <chi0_C>
12.386387

>  <chi1>
14.583755

>  <chi1v>
10.594725

>  <chi1v_C>
5.7507834

>  <chi1_C>
6.0168033

>  <chiral>
11

>  <chiral_u>
11

>  <density>
0.78015643

>  <diameter>
14

>  <FCharge>
0

>  <GCUT_PEOE_0>
-0.83968079

>  <GCUT_PEOE_1>
-0.37636828

>  <GCUT_PEOE_2>
0.079145357

>  <GCUT_PEOE_3>
3.0686138

>  <GCUT_SLOGP_0>
-1.3699732

>  <GCUT_SLOGP_1>
-0.40868995

>  <GCUT_SLOGP_2>
0.091090418

>  <GCUT_SLOGP_3>
2.9618928

>  <GCUT_SMR_0>
-0.52451146

>  <GCUT_SMR_1>
-0.21937935

>  <GCUT_SMR_2>
0.1504415

>  <GCUT_SMR_3>
3.2729473

>  <Kier1>
25.619835

>  <Kier2>
10.508121

>  <Kier3>
5.566864

>  <KierA1>
24.966515

>  <KierA2>
10.2311

>  <KierA3>
5.416605

>  <KierFlex>
8.2398357

>  <lip_acc>
12

>  <lip_don>
12

>  <lip_druglike>
0

>  <lip_violation>
2

>  <logP(o/w)>
-4.0479999

>  <logS>
0.84566998

>  <mr>
10.886231

>  <mutagenic>
0

>  <nmol>
1

>  <opr_brigid>
18

>  <opr_leadlike>
0

>  <opr_nring>
3

>  <opr_nrot>
11

>  <opr_violation>
4

>  <PC+>
0

>  <PC->
0

>  <PEOE_PC+>
4.2442994

>  <PEOE_PC->
-4.2442994

>  <PEOE_RPC+>
0.04955269

>  <PEOE_RPC->
0.091073297

>  <PEOE_VSA+0>
79.199654

>  <PEOE_VSA+1>
76.620979

>  <PEOE_VSA+2>
97.190834

>  <PEOE_VSA+3>
22.309816

>  <PEOE_VSA+4>
30.972517

>  <PEOE_VSA+5>
0

>  <PEOE_VSA+6>
0

>  <PEOE_VSA-0>
59.388992

>  <PEOE_VSA-1>
12.254904

>  <PEOE_VSA-2>
0

>  <PEOE_VSA-3>
0

>  <PEOE_VSA-4>
0

>  <PEOE_VSA-5>
0

>  <PEOE_VSA-6>
60.059013

>  <PEOE_VSA_FHYD>
0.79216391

>  <PEOE_VSA_FNEG>
0.30069384

>  <PEOE_VSA_FPNEG>
0.13712206

>  <PEOE_VSA_FPOL>
0.20783611

>  <PEOE_VSA_FPOS>
0.69930619

>  <PEOE_VSA_FPPOS>
0.070714042

>  <PEOE_VSA_HYD>
346.96518

>  <PEOE_VSA_NEG>
131.70291

>  <PEOE_VSA_PNEG>
60.059013

>  <PEOE_VSA_POL>
91.031532

>  <PEOE_VSA_POS>
306.29379

>  <PEOE_VSA_PPOS>
30.972517

>  <petitjean>
0.5

>  <petitjeanSC>
1

>  <Q_PC+>
0

>  <Q_PC->
0

>  <Q_RPC+>
0

>  <Q_RPC->
0

>  <Q_VSA_FHYD>
1

>  <Q_VSA_FNEG>
0

>  <Q_VSA_FPNEG>
0

>  <Q_VSA_FPOL>
0

>  <Q_VSA_FPOS>
1

>  <Q_VSA_FPPOS>
0

>  <Q_VSA_HYD>
437.9967

>  <Q_VSA_NEG>
0

>  <Q_VSA_PNEG>
0

>  <Q_VSA_POL>
0

>  <Q_VSA_POS>
437.9967

>  <Q_VSA_PPOS>
0

>  <radius>
7

>  <reactive>
1

>  <rings>
3

>  <RPC+>
0

>  <RPC->
0

>  <rsynth>
0.77419353

>  <SlogP>
-3.8515

>  <SlogP_VSA0>
225.75517

>  <SlogP_VSA1>
0

>  <SlogP_VSA2>
102.85503

>  <SlogP_VSA3>
39.365837

>  <SlogP_VSA4>
0

>  <SlogP_VSA5>
38.140617

>  <SlogP_VSA6>
0

>  <SlogP_VSA7>
17.643185

>  <SlogP_VSA8>
37.736813

>  <SlogP_VSA9>
33.326015

>  <SMR>
11.01417

>  <SMR_VSA0>
43.99955

>  <SMR_VSA1>
76.155678

>  <SMR_VSA2>
18.01075

>  <SMR_VSA3>
64.098907

>  <SMR_VSA4>
131.58875

>  <SMR_VSA5>
55.379993

>  <SMR_VSA6>
39.365837

>  <SMR_VSA7>
66.223206

>  <TPSA>
213.72

>  <VAdjEq>
0.36097246

>  <VAdjMa>
6.044394

>  <VDistEq>
3.5983129

>  <VDistMa>
9.6286373

>  <vdw_area>
437.9967

>  <vdw_vol>
573.6452

>  <vsa_acc>
10.015024

>  <vsa_acid>
0

>  <vsa_base>
0

>  <vsa_don>
0

>  <vsa_hyd>
222.18217

>  <vsa_other>
29.416998

>  <vsa_pol>
127.36832

>  <Weight>
447.53299

>  <weinerPath>
2700

>  <weinerPol>
56

>  <zagreb>
164

$$$$