S1SCC(NC(=O)C(NC(=O)C(NC(=O)C(NC(=O)C(NC(=O)C(N)C1)Cc1ccc(O)cc1)Cc1ccccc1)CCC(=O)N)CC(=O)N)C(=O)N1CCCC1C(=O)NC(CCCN)C(=O)NCC(=O)N
  MOE2013           2D

 72 75  0  0  1  0  0  0  0  0999 V2000
    0.0000    0.0000    0.0000 S   0  0  0  0  0  0  0  0  0  0  0  0
    0.0490   -1.4840    0.0000 S   0  0  0  0  0  0  0  0  0  0  0  0
    1.3640   -2.1980    0.0000 C   0  0  0  0  0  0  0  0  0  0  0  0
    1.5410   -3.6260    0.0000 C   0  0  3  0  0  0  0  0  0  0  0  0
    0.4480   -4.6410    0.0000 N   0  0  0  0  0  0  0  0  0  0  0  0
    0.7990   -6.1060    0.0000 C   0  0  0  0  0  0  0  0  0  0  0  0
    2.2440   -6.5100    0.0000 O   0  0  0  0  0  0  0  0  0  0  0  0
   -0.2380   -7.1530    0.0000 C   0  0  3  0  0  0  0  0  0  0  0  0
   -1.6990   -6.8320    0.0000 N   0  0  0  0  0  0  0  0  0  0  0  0
   -2.7090   -7.9450    0.0000 C   0  0  0  0  0  0  0  0  0  0  0  0
   -2.2400   -9.3690    0.0000 O   0  0  0  0  0  0  0  0  0  0  0  0
   -4.1670   -7.6530    0.0000 C   0  0  3  0  0  0  0  0  0  0  0  0
   -4.6700   -6.2360    0.0000 N   0  0  0  0  0  0  0  0  0  0  0  0
   -6.1370   -5.9670    0.0000 C   0  0  0  0  0  0  0  0  0  0  0  0
   -7.0740   -7.1380    0.0000 O   0  0  0  0  0  0  0  0  0  0  0  0
   -6.7140   -4.6200    0.0000 C   0  0  3  0  0  0  0  0  0  0  0  0
   -5.8700   -3.3750    0.0000 N   0  0  0  0  0  0  0  0  0  0  0  0
   -6.5170   -2.0400    0.0000 C   0  0  0  0  0  0  0  0  0  0  0  0
   -8.0160   -2.0930    0.0000 O   0  0  0  0  0  0  0  0  0  0  0  0
   -6.0070   -0.7660    0.0000 C   0  0  3  0  0  0  0  0  0  0  0  0
   -4.9040    0.0290    0.0000 N   0  0  0  0  0  0  0  0  0  0  0  0
   -3.4440   -0.2370    0.0000 C   0  0  0  0  0  0  0  0  0  0  0  0
   -2.9490   -1.6520    0.0000 O   0  0  0  0  0  0  0  0  0  0  0  0
   -2.4640    0.8870    0.0000 C   0  0  3  0  0  0  0  0  0  0  0  0
   -3.0780    2.2550    0.0000 N   0  0  0  0  0  0  0  0  0  0  0  0
   -1.0780    0.8740    0.0000 C   0  0  0  0  0  0  0  0  0  0  0  0
   -7.1890    0.1580    0.0000 C   0  0  0  0  0  0  0  0  0  0  0  0
   -6.9790    1.6440    0.0000 C   0  0  0  0  0  0  0  0  0  0  0  0
   -5.5880    2.2050    0.0000 C   0  0  0  0  0  0  0  0  0  0  0  0
   -5.3790    3.6900    0.0000 C   0  0  0  0  0  0  0  0  0  0  0  0
   -6.5610    4.6140    0.0000 C   0  0  0  0  0  0  0  0  0  0  0  0
   -6.3510    6.1000    0.0000 O   0  0  0  0  0  0  0  0  0  0  0  0
   -7.9520    4.0530    0.0000 C   0  0  0  0  0  0  0  0  0  0  0  0
   -8.1610    2.5670    0.0000 C   0  0  0  0  0  0  0  0  0  0  0  0
   -8.2070   -4.4770    0.0000 C   0  0  0  0  0  0  0  0  0  0  0  0
   -9.0770   -5.6990    0.0000 C   0  0  0  0  0  0  0  0  0  0  0  0
   -8.4550   -7.0640    0.0000 C   0  0  0  0  0  0  0  0  0  0  0  0
   -9.3250   -8.2850    0.0000 C   0  0  0  0  0  0  0  0  0  0  0  0
  -10.8180   -8.1420    0.0000 C   0  0  0  0  0  0  0  0  0  0  0  0
  -11.4410   -6.7780    0.0000 C   0  0  0  0  0  0  0  0  0  0  0  0
  -10.5710   -5.5560    0.0000 C   0  0  0  0  0  0  0  0  0  0  0  0
   -5.1480   -8.7870    0.0000 C   0  0  0  0  0  0  0  0  0  0  0  0
   -4.6570  -10.2040    0.0000 C   0  0  0  0  0  0  0  0  0  0  0  0
   -5.6380  -11.3390    0.0000 C   0  0  0  0  0  0  0  0  0  0  0  0
   -5.1470  -12.7560    0.0000 O   0  0  0  0  0  0  0  0  0  0  0  0
   -7.1110  -11.0560    0.0000 N   0  0  0  0  0  0  0  0  0  0  0  0
    0.1870   -8.5920    0.0000 C   0  0  0  0  0  0  0  0  0  0  0  0
    1.6450   -8.9440    0.0000 C   0  0  0  0  0  0  0  0  0  0  0  0
    2.6790   -7.8570    0.0000 O   0  0  0  0  0  0  0  0  0  0  0  0
    2.0690  -10.3830    0.0000 N   0  0  0  0  0  0  0  0  0  0  0  0
    2.9500   -4.1390    0.0000 C   0  0  0  0  0  0  0  0  0  0  0  0
    3.2100   -5.6170    0.0000 O   0  0  0  0  0  0  0  0  0  0  0  0
    4.1000   -3.1750    0.0000 N   0  0  0  0  0  0  0  0  0  0  0  0
    3.9960   -1.6790    0.0000 C   0  0  0  0  0  0  0  0  0  0  0  0
    5.3870   -1.1180    0.0000 C   0  0  0  0  0  0  0  0  0  0  0  0
    6.3500   -2.2670    0.0000 C   0  0  0  0  0  0  0  0  0  0  0  0
    5.5550   -3.5390    0.0000 C   0  0  3  0  0  0  0  0  0  0  0  0
    6.1160   -4.9300    0.0000 C   0  0  0  0  0  0  0  0  0  0  0  0
    5.1920   -6.1120    0.0000 O   0  0  0  0  0  0  0  0  0  0  0  0
    7.6020   -5.1390    0.0000 N   0  0  0  0  0  0  0  0  0  0  0  0
    8.5260   -3.9570    0.0000 C   0  0  3  0  0  0  0  0  0  0  0  0
    7.9640   -2.5660    0.0000 C   0  0  0  0  0  0  0  0  0  0  0  0
    8.8880   -1.3850    0.0000 C   0  0  0  0  0  0  0  0  0  0  0  0
    8.3270    0.0060    0.0000 C   0  0  0  0  0  0  0  0  0  0  0  0
    9.2510    1.1880    0.0000 N   0  0  0  0  0  0  0  0  0  0  0  0
   10.0110   -4.1670    0.0000 C   0  0  0  0  0  0  0  0  0  0  0  0
   10.5720   -5.5580    0.0000 O   0  0  0  0  0  0  0  0  0  0  0  0
   10.9350   -2.9850    0.0000 N   0  0  0  0  0  0  0  0  0  0  0  0
   12.4200   -3.1940    0.0000 C   0  0  0  0  0  0  0  0  0  0  0  0
   13.3440   -2.0130    0.0000 C   0  0  0  0  0  0  0  0  0  0  0  0
   12.7830   -0.6220    0.0000 O   0  0  0  0  0  0  0  0  0  0  0  0
   14.8290   -2.2220    0.0000 N   0  0  0  0  0  0  0  0  0  0  0  0
  1  2  1  0  0  0  0
  1 26  1  0  0  0  0
  2  3  1  0  0  0  0
  3  4  1  0  0  0  0
  4  5  1  0  0  0  0
  4 51  1  0  0  0  0
  5  6  1  0  0  0  0
  6  7  2  0  0  0  0
  6  8  1  0  0  0  0
  8  9  1  0  0  0  0
  8 47  1  0  0  0  0
  9 10  1  0  0  0  0
 10 11  2  0  0  0  0
 10 12  1  0  0  0  0
 12 13  1  0  0  0  0
 12 42  1  0  0  0  0
 13 14  1  0  0  0  0
 14 15  2  0  0  0  0
 14 16  1  0  0  0  0
 16 17  1  0  0  0  0
 16 35  1  0  0  0  0
 17 18  1  0  0  0  0
 18 19  2  0  0  0  0
 18 20  1  0  0  0  0
 20 21  1  0  0  0  0
 20 27  1  0  0  0  0
 21 22  1  0  0  0  0
 22 23  2  0  0  0  0
 22 24  1  0  0  0  0
 24 25  1  0  0  0  0
 24 26  1  0  0  0  0
 27 28  1  0  0  0  0
 28 29  1  0  0  0  0
 28 34  2  0  0  0  0
 29 30  2  0  0  0  0
 30 31  1  0  0  0  0
 31 32  1  0  0  0  0
 31 33  2  0  0  0  0
 33 34  1  0  0  0  0
 35 36  1  0  0  0  0
 36 37  1  0  0  0  0
 36 41  2  0  0  0  0
 37 38  2  0  0  0  0
 38 39  1  0  0  0  0
 39 40  2  0  0  0  0
 40 41  1  0  0  0  0
 42 43  1  0  0  0  0
 43 44  1  0  0  0  0
 44 45  2  0  0  0  0
 44 46  1  0  0  0  0
 47 48  1  0  0  0  0
 48 49  2  0  0  0  0
 48 50  1  0  0  0  0
 51 52  2  0  0  0  0
 51 53  1  0  0  0  0
 53 54  1  0  0  0  0
 53 57  1  0  0  0  0
 54 55  1  0  0  0  0
 55 56  1  0  0  0  0
 56 57  1  0  0  0  0
 57 58  1  0  0  0  0
 58 59  2  0  0  0  0
 58 60  1  0  0  0  0
 60 61  1  0  0  0  0
 61 62  1  0  0  0  0
 61 66  1  0  0  0  0
 62 63  1  0  0  0  0
 63 64  1  0  0  0  0
 64 65  1  0  0  0  0
 66 67  2  0  0  0  0
 66 68  1  0  0  0  0
 68 69  1  0  0  0  0
 69 70  1  0  0  0  0
 70 71  2  0  0  0  0
 70 72  1  0  0  0  0
M  END
>  <Index>
1201

>  <ID>
HT2430

>  <class>
0

>  <apol>
150.93196

>  <ast_fraglike>
0

>  <ast_fraglike_ext>
0

>  <ast_violation>
3

>  <ast_violation_ext>
5

>  <a_acc>
14

>  <a_acid>
0

>  <a_aro>
12

>  <a_base>
0

>  <a_count>
135

>  <a_don>
13

>  <a_donacc>
27

>  <a_heavy>
72

>  <a_hyd>
36

>  <a_IC>
238.54282

>  <a_ICM>
1.7669839

>  <a_nB>
0

>  <a_nBr>
0

>  <a_nC>
45

>  <a_nCl>
0

>  <a_nF>
0

>  <a_nH>
63

>  <a_nI>
0

>  <a_nN>
13

>  <a_nO>
12

>  <a_nP>
0

>  <a_nS>
2

>  <balabanJ>
1.6653962

>  <BCUT_PEOE_0>
-2.6389201

>  <BCUT_PEOE_1>
-0.58193141

>  <BCUT_PEOE_2>
0.54487193

>  <BCUT_PEOE_3>
2.742604

>  <BCUT_SLOGP_0>
-2.8803678

>  <BCUT_SLOGP_1>
-0.53807992

>  <BCUT_SLOGP_2>
0.55137634

>  <BCUT_SLOGP_3>
2.6911383

>  <BCUT_SMR_0>
-2.3842766

>  <BCUT_SMR_1>
-0.36756843

>  <BCUT_SMR_2>
0.69635314

>  <BCUT_SMR_3>
2.9986372

>  <bpol>
84.990044

>  <b_1rotN>
19

>  <b_1rotR>
0.25333333

>  <b_ar>
12

>  <b_count>
138

>  <b_double>
11

>  <b_heavy>
75

>  <b_max1len>
7

>  <b_rotN>
21

>  <b_rotR>
0.28

>  <b_single>
115

>  <b_triple>
0

>  <chi0>
52.906475

>  <chi0v>
40.935848

>  <chi0v_C>
26.714449

>  <chi0_C>
28.965162

>  <chi1>
34.250237

>  <chi1v>
25.517473

>  <chi1v_C>
13.575205

>  <chi1_C>
15.923384

>  <chiral>
8

>  <chiral_u>
8

>  <density>
0.80570215

>  <diameter>
25

>  <FCharge>
0

>  <GCUT_PEOE_0>
-0.84161288

>  <GCUT_PEOE_1>
-0.44571066

>  <GCUT_PEOE_2>
0.075605296

>  <GCUT_PEOE_3>
3.2066338

>  <GCUT_SLOGP_0>
-1.3708817

>  <GCUT_SLOGP_1>
-0.42648181

>  <GCUT_SLOGP_2>
0.10963906

>  <GCUT_SLOGP_3>
3.1130996

>  <GCUT_SMR_0>
-0.52627259

>  <GCUT_SMR_1>
-0.23618889

>  <GCUT_SMR_2>
0.193919

>  <GCUT_SMR_3>
3.4551573

>  <Kier1>
64.524803

>  <Kier2>
34.1045

>  <Kier3>
23.092686

>  <KierA1>
50.190517

>  <KierA2>
26.429409

>  <KierA3>
17.850225

>  <KierFlex>
18.423691

>  <lip_acc>
25

>  <lip_don>
18

>  <lip_druglike>
0

>  <lip_violation>
3

>  <logP(o/w)>
-4.4159999

>  <logS>
-7.54635

>  <mr>
26.67458

>  <mutagenic>
0

>  <nmol>
1

>  <opr_brigid>
37

>  <opr_leadlike>
0

>  <opr_nring>
3

>  <opr_nrot>
34

>  <opr_violation>
5

>  <PC+>
0

>  <PC->
0

>  <PEOE_PC+>
8.720293

>  <PEOE_PC->
-8.720293

>  <PEOE_RPC+>
0.028367931

>  <PEOE_RPC->
0.042410612

>  <PEOE_VSA+0>
171.55106

>  <PEOE_VSA+1>
114.54045

>  <PEOE_VSA+2>
56.497776

>  <PEOE_VSA+3>
112.04717

>  <PEOE_VSA+4>
152.76901

>  <PEOE_VSA+5>
0

>  <PEOE_VSA+6>
0

>  <PEOE_VSA-0>
85.625778

>  <PEOE_VSA-1>
129.25769

>  <PEOE_VSA-2>
0

>  <PEOE_VSA-3>
0

>  <PEOE_VSA-4>
0

>  <PEOE_VSA-5>
149.23613

>  <PEOE_VSA-6>
41.981373

>  <PEOE_VSA_FHYD>
0.66059762

>  <PEOE_VSA_FNEG>
0.4006891

>  <PEOE_VSA_FPNEG>
0.18866925

>  <PEOE_VSA_FPOL>
0.33940241

>  <PEOE_VSA_FPOS>
0.59931093

>  <PEOE_VSA_FPPOS>
0.15073314

>  <PEOE_VSA_HYD>
669.5199

>  <PEOE_VSA_NEG>
406.10098

>  <PEOE_VSA_PNEG>
191.2175

>  <PEOE_VSA_POL>
343.98651

>  <PEOE_VSA_POS>
607.40546

>  <PEOE_VSA_PPOS>
152.76901

>  <petitjean>
0.44

>  <petitjeanSC>
0.78571427

>  <Q_PC+>
0

>  <Q_PC->
0

>  <Q_RPC+>
0

>  <Q_RPC->
0

>  <Q_VSA_FHYD>
1

>  <Q_VSA_FNEG>
0

>  <Q_VSA_FPNEG>
0

>  <Q_VSA_FPOL>
0

>  <Q_VSA_FPOS>
1

>  <Q_VSA_FPPOS>
0

>  <Q_VSA_HYD>
1013.5064

>  <Q_VSA_NEG>
0

>  <Q_VSA_PNEG>
0

>  <Q_VSA_POL>
0

>  <Q_VSA_POS>
1013.5064

>  <Q_VSA_PPOS>
0

>  <radius>
14

>  <reactive>
1

>  <rings>
4

>  <RPC+>
0

>  <RPC->
0

>  <rsynth>
1

>  <SlogP>
-4.7192602

>  <SlogP_VSA0>
315.94641

>  <SlogP_VSA1>
60.970932

>  <SlogP_VSA2>
294.34012

>  <SlogP_VSA3>
89.785866

>  <SlogP_VSA4>
6.37115

>  <SlogP_VSA5>
37.736813

>  <SlogP_VSA6>
0

>  <SlogP_VSA7>
158.78867

>  <SlogP_VSA8>
132.07884

>  <SlogP_VSA9>
65.606926

>  <SMR>
26.390169

>  <SMR_VSA0>
262.48438

>  <SMR_VSA1>
28.509541

>  <SMR_VSA2>
126.07526

>  <SMR_VSA3>
43.470329

>  <SMR_VSA4>
164.48593

>  <SMR_VSA5>
328.60431

>  <SMR_VSA6>
147.63248

>  <SMR_VSA7>
60.363499

>  <TPSA>
425.54999

>  <VAdjEq>
0.18902344

>  <VAdjMa>
7.2288189

>  <VDistEq>
4.3710461

>  <VDistMa>
12.107942

>  <vdw_area>
1013.5064

>  <vdw_vol>
1293.5425

>  <vsa_acc>
149.23613

>  <vsa_acid>
0

>  <vsa_base>
0

>  <vsa_don>
93.005501

>  <vsa_hyd>
490.96591

>  <vsa_other>
142.44484

>  <vsa_pol>
291.29352

>  <Weight>
1042.21

>  <weinerPath>
25792

>  <weinerPol>
110

>  <zagreb>
352

$$$$