Fc1cc(F)ccc1N1C=C(C(O)=O)C(=O)c2cc(F)c(nc12)N1C[C@@H]2[C@H](C1)C2N
  MOE2013           2D

 30 34  0  0  1  0  0  0  0  0999 V2000
    0.0000    0.0000    0.0000 F   0  0  0  0  0  0  0  0  0  0  0  0
    1.5000    0.0040    0.0000 C   0  0  0  0  0  0  0  0  0  0  0  0
    2.2460    1.3050    0.0000 C   0  0  0  0  0  0  0  0  0  0  0  0
    3.7460    1.3090    0.0000 C   0  0  0  0  0  0  0  0  0  0  0  0
    4.4930    2.6110    0.0000 F   0  0  0  0  0  0  0  0  0  0  0  0
    4.5000    0.0120    0.0000 C   0  0  0  0  0  0  0  0  0  0  0  0
    3.7540   -1.2890    0.0000 C   0  0  0  0  0  0  0  0  0  0  0  0
    2.2540   -1.2930    0.0000 C   0  0  0  0  0  0  0  0  0  0  0  0
    1.5070   -2.5940    0.0000 N   0  0  3  0  0  0  0  0  0  0  0  0
    0.0070   -2.5980    0.0000 C   0  0  0  0  0  0  0  0  0  0  0  0
   -0.7390   -3.8990    0.0000 C   0  0  0  0  0  0  0  0  0  0  0  0
   -2.2390   -3.9030    0.0000 C   0  0  0  0  0  0  0  0  0  0  0  0
   -2.9860   -5.2040    0.0000 O   0  0  0  0  0  0  0  0  0  0  0  0
   -2.9930   -2.6060    0.0000 O   0  0  0  0  0  0  0  0  0  0  0  0
    0.0140   -5.1960    0.0000 C   0  0  0  0  0  0  0  0  0  0  0  0
   -0.7320   -6.4970    0.0000 O   0  0  0  0  0  0  0  0  0  0  0  0
    1.5140   -5.1920    0.0000 C   0  0  0  0  0  0  0  0  0  0  0  0
    2.2680   -6.4890    0.0000 C   0  0  0  0  0  0  0  0  0  0  0  0
    3.7680   -6.4850    0.0000 C   0  0  0  0  0  0  0  0  0  0  0  0
    4.5220   -7.7820    0.0000 F   0  0  0  0  0  0  0  0  0  0  0  0
    4.5140   -5.1840    0.0000 C   0  0  0  0  0  0  0  0  0  0  0  0
    3.7610   -3.8870    0.0000 N   0  0  0  0  0  0  0  0  0  0  0  0
    2.2610   -3.8910    0.0000 C   0  0  0  0  0  0  0  0  0  0  0  0
    6.0140   -5.1800    0.0000 N   0  0  0  0  0  0  0  0  0  0  0  0
    6.8930   -3.9630    0.0000 C   0  0  0  0  0  0  0  0  0  0  0  0
    8.3210   -4.4230    0.0000 C   0  0  2  0  0  0  0  0  0  0  0  0
    8.3250   -5.9230    0.0000 C   0  0  2  0  0  0  0  0  0  0  0  0
    6.9000   -6.3910    0.0000 C   0  0  0  0  0  0  0  0  0  0  0  0
    9.6220   -5.1700    0.0000 C   0  0  0  0  0  0  0  0  0  0  0  0
   11.1220   -5.1660    0.0000 N   0  0  0  0  0  0  0  0  0  0  0  0
  1  2  1  0  0  0  0
  2  3  2  0  0  0  0
  2  8  1  0  0  0  0
  3  4  1  0  0  0  0
  4  5  1  0  0  0  0
  4  6  2  0  0  0  0
  6  7  1  0  0  0  0
  7  8  2  0  0  0  0
  8  9  1  0  0  0  0
  9 10  1  0  0  0  0
  9 23  1  0  0  0  0
 10 11  2  0  0  0  0
 11 12  1  0  0  0  0
 11 15  1  0  0  0  0
 12 13  1  0  0  0  0
 12 14  2  0  0  0  0
 15 16  2  0  0  0  0
 15 17  1  0  0  0  0
 17 18  2  0  0  0  0
 17 23  1  0  0  0  0
 18 19  1  0  0  0  0
 19 20  1  0  0  0  0
 19 21  2  0  0  0  0
 21 22  1  0  0  0  0
 21 24  1  0  0  0  0
 22 23  2  0  0  0  0
 24 25  1  0  0  0  0
 24 28  1  0  0  0  0
 26 25  1  1  0  0  0
 26 27  1  0  0  0  0
 26 29  1  0  0  0  0
 27 28  1  1  0  0  0
 27 29  1  0  0  0  0
 29 30  1  0  0  0  0
M  END
>  <Index>
1120

>  <ID>
HT2143

>  <class>
0

>  <apol>
53.678894

>  <ast_fraglike>
0

>  <ast_fraglike_ext>
0

>  <ast_violation>
2

>  <ast_violation_ext>
3

>  <a_acc>
5

>  <a_acid>
0

>  <a_aro>
12

>  <a_base>
0

>  <a_count>
45

>  <a_don>
3

>  <a_donacc>
8

>  <a_heavy>
30

>  <a_hyd>
19

>  <a_IC>
84.581696

>  <a_ICM>
1.8795931

>  <a_nB>
0

>  <a_nBr>
0

>  <a_nC>
20

>  <a_nCl>
0

>  <a_nF>
3

>  <a_nH>
15

>  <a_nI>
0

>  <a_nN>
4

>  <a_nO>
3

>  <a_nP>
0

>  <a_nS>
0

>  <balabanJ>
1.380185

>  <BCUT_PEOE_0>
-2.5125904

>  <BCUT_PEOE_1>
-0.65478325

>  <BCUT_PEOE_2>
0.59587044

>  <BCUT_PEOE_3>
2.9279847

>  <BCUT_SLOGP_0>
-2.6809657

>  <BCUT_SLOGP_1>
-0.53132367

>  <BCUT_SLOGP_2>
0.76997644

>  <BCUT_SLOGP_3>
2.8455744

>  <BCUT_SMR_0>
-2.2177389

>  <BCUT_SMR_1>
-0.44050103

>  <BCUT_SMR_2>
0.76098716

>  <BCUT_SMR_3>
3.1864963

>  <bpol>
26.543104

>  <b_1rotN>
3

>  <b_1rotR>
0.088235296

>  <b_ar>
12

>  <b_count>
49

>  <b_double>
3

>  <b_heavy>
34

>  <b_max1len>
3

>  <b_rotN>
3

>  <b_rotR>
0.088235296

>  <b_single>
34

>  <b_triple>
0

>  <chi0>
21.317108

>  <chi0v>
15.34961

>  <chi0v_C>
11.033015

>  <chi0_C>
12.455301

>  <chi1>
14.256927

>  <chi1v>
9.2113791

>  <chi1v_C>
5.6705561

>  <chi1_C>
7.1742344

>  <chiral>
2

>  <chiral_u>
0

>  <density>
0.87136358

>  <diameter>
13

>  <FCharge>
0

>  <GCUT_PEOE_0>
-0.83153808

>  <GCUT_PEOE_1>
-0.47593659

>  <GCUT_PEOE_2>
0.067015536

>  <GCUT_PEOE_3>
2.7193933

>  <GCUT_SLOGP_0>
-1.3635869

>  <GCUT_SLOGP_1>
-0.42029452

>  <GCUT_SLOGP_2>
0.25180119

>  <GCUT_SLOGP_3>
2.7469523

>  <GCUT_SMR_0>
-0.4918353

>  <GCUT_SMR_1>
-0.22785443

>  <GCUT_SMR_2>
0.18005496

>  <GCUT_SMR_3>
2.9919512

>  <Kier1>
21.82526

>  <Kier2>
8.0939837

>  <Kier3>
3.5702479

>  <KierA1>
15.831302

>  <KierA2>
5.8011165

>  <KierA3>
2.5371871

>  <KierFlex>
3.0613074

>  <lip_acc>
7

>  <lip_don>
3

>  <lip_druglike>
1

>  <lip_violation>
0

>  <logP(o/w)>
1.738

>  <logS>
-4.1863298

>  <mr>
9.9379511

>  <mutagenic>
0

>  <nmol>
1

>  <opr_brigid>
24

>  <opr_leadlike>
1

>  <opr_nring>
5

>  <opr_nrot>
3

>  <opr_violation>
1

>  <PC+>
0

>  <PC->
0

>  <PEOE_PC+>
2.5722158

>  <PEOE_PC->
-2.5722158

>  <PEOE_RPC+>
0.11505353

>  <PEOE_RPC->
0.12727319

>  <PEOE_VSA+0>
88.38913

>  <PEOE_VSA+1>
30.235022

>  <PEOE_VSA+2>
59.869381

>  <PEOE_VSA+3>
9.0208454

>  <PEOE_VSA+4>
18.782692

>  <PEOE_VSA+5>
14.708499

>  <PEOE_VSA+6>
0

>  <PEOE_VSA-0>
36.764713

>  <PEOE_VSA-1>
0

>  <PEOE_VSA-2>
0

>  <PEOE_VSA-3>
0

>  <PEOE_VSA-4>
41.408482

>  <PEOE_VSA-5>
27.133842

>  <PEOE_VSA-6>
14.418659

>  <PEOE_VSA_FHYD>
0.6582287

>  <PEOE_VSA_FNEG>
0.35137865

>  <PEOE_VSA_FPNEG>
0.24347922

>  <PEOE_VSA_FPOL>
0.34177133

>  <PEOE_VSA_FPOS>
0.64862132

>  <PEOE_VSA_FPPOS>
0.098292097

>  <PEOE_VSA_HYD>
224.2791

>  <PEOE_VSA_NEG>
119.72569

>  <PEOE_VSA_PNEG>
82.960983

>  <PEOE_VSA_POL>
116.45218

>  <PEOE_VSA_POS>
221.00557

>  <PEOE_VSA_PPOS>
33.491192

>  <petitjean>
0.46153846

>  <petitjeanSC>
0.85714287

>  <Q_PC+>
0

>  <Q_PC->
0

>  <Q_RPC+>
0

>  <Q_RPC->
0

>  <Q_VSA_FHYD>
1

>  <Q_VSA_FNEG>
0

>  <Q_VSA_FPNEG>
0

>  <Q_VSA_FPOL>
0

>  <Q_VSA_FPOS>
1

>  <Q_VSA_FPPOS>
0

>  <Q_VSA_HYD>
340.73126

>  <Q_VSA_NEG>
0

>  <Q_VSA_PNEG>
0

>  <Q_VSA_POL>
0

>  <Q_VSA_POS>
340.73126

>  <Q_VSA_PPOS>
0

>  <radius>
7

>  <reactive>
0

>  <rings>
5

>  <RPC+>
0

>  <RPC->
0

>  <rsynth>
0.76666665

>  <SlogP>
2.1951001

>  <SlogP_VSA0>
39.145817

>  <SlogP_VSA1>
30.218605

>  <SlogP_VSA2>
55.207241

>  <SlogP_VSA3>
62.264381

>  <SlogP_VSA4>
35.869385

>  <SlogP_VSA5>
3.185575

>  <SlogP_VSA6>
0

>  <SlogP_VSA7>
87.787094

>  <SlogP_VSA8>
0

>  <SlogP_VSA9>
52.292927

>  <SMR>
9.9909697

>  <SMR_VSA0>
47.724434

>  <SMR_VSA1>
61.665871

>  <SMR_VSA2>
67.818504

>  <SMR_VSA3>
10.353119

>  <SMR_VSA4>
40.309776

>  <SMR_VSA5>
87.787094

>  <SMR_VSA6>
50.312233

>  <SMR_VSA7>
0

>  <TPSA>
99.760002

>  <VAdjEq>
0.38632196

>  <VAdjMa>
6.0874629

>  <VDistEq>
3.3920598

>  <VDistMa>
9.5567102

>  <vdw_area>
340.73126

>  <vdw_vol>
477.82465

>  <vsa_acc>
19.249496

>  <vsa_acid>
0

>  <vsa_base>
0

>  <vsa_don>
0

>  <vsa_hyd>
209.15421

>  <vsa_other>
45.548145

>  <vsa_pol>
64.125832

>  <Weight>
416.35898

>  <weinerPath>
2266

>  <weinerPol>
53

>  <zagreb>
174

$$$$