S(=O)(=O)(NC(=O)CCCC=C/C[C@@H]1[C@@H](C=C[C@@H](O)COc2ccccc2)[C@H](O)CC1=O)C
  MOE2013           2D

 32 33  0  0  1  0  0  0  0  0999 V2000
    0.0000    0.0000    0.0000 S   0  0  0  0  0  0  0  0  0  0  0  0
    0.7410    1.3040    0.0000 O   0  0  0  0  0  0  0  0  0  0  0  0
   -0.7410   -1.3040    0.0000 O   0  0  0  0  0  0  0  0  0  0  0  0
   -1.3040    0.7410    0.0000 N   0  0  0  0  0  0  0  0  0  0  0  0
   -2.5980   -0.0180    0.0000 C   0  0  0  0  0  0  0  0  0  0  0  0
   -2.5880   -1.5180    0.0000 O   0  0  0  0  0  0  0  0  0  0  0  0
   -3.9020    0.7230    0.0000 C   0  0  0  0  0  0  0  0  0  0  0  0
   -5.1960   -0.0350    0.0000 C   0  0  0  0  0  0  0  0  0  0  0  0
   -6.5000    0.7060    0.0000 C   0  0  0  0  0  0  0  0  0  0  0  0
   -7.7940   -0.0530    0.0000 C   0  0  0  0  0  0  0  0  0  0  0  0
   -9.0980    0.6880    0.0000 C   0  0  0  0  0  0  0  0  0  0  0  0
  -10.3920   -0.0710    0.0000 C   0  0  0  0  0  0  0  0  0  0  0  0
  -11.6960    0.6700    0.0000 C   0  0  2  0  0  0  0  0  0  0  0  0
  -13.0620    0.0510    0.0000 C   0  0  1  0  0  0  0  0  0  0  0  0
  -13.3640   -1.4190    0.0000 C   0  0  0  0  0  0  0  0  0  0  0  0
  -14.7880   -1.8920    0.0000 C   0  0  0  0  0  0  0  0  0  0  0  0
  -15.0890   -3.3610    0.0000 C   0  0  1  0  0  0  0  0  0  0  0  0
  -13.9680   -4.3570    0.0000 O   0  0  0  0  0  0  0  0  0  0  0  0
  -16.5130   -3.8340    0.0000 C   0  0  0  0  0  0  0  0  0  0  0  0
  -16.8150   -5.3040    0.0000 O   0  0  0  0  0  0  0  0  0  0  0  0
  -18.2380   -5.7770    0.0000 C   0  0  0  0  0  0  0  0  0  0  0  0
  -19.3600   -4.7810    0.0000 C   0  0  0  0  0  0  0  0  0  0  0  0
  -20.7830   -5.2540    0.0000 C   0  0  0  0  0  0  0  0  0  0  0  0
  -21.0850   -6.7240    0.0000 C   0  0  0  0  0  0  0  0  0  0  0  0
  -19.9630   -7.7200    0.0000 C   0  0  0  0  0  0  0  0  0  0  0  0
  -18.5400   -7.2460    0.0000 C   0  0  0  0  0  0  0  0  0  0  0  0
  -14.0740    1.1590    0.0000 C   0  0  2  0  0  0  0  0  0  0  0  0
  -15.5640    0.9920    0.0000 O   0  0  0  0  0  0  0  0  0  0  0  0
  -13.3320    2.4630    0.0000 C   0  0  0  0  0  0  0  0  0  0  0  0
  -11.8630    2.1610    0.0000 C   0  0  0  0  0  0  0  0  0  0  0  0
  -10.7550    3.1720    0.0000 O   0  0  0  0  0  0  0  0  0  0  0  0
    1.3040   -0.7410    0.0000 C   0  0  0  0  0  0  0  0  0  0  0  0
  1  2  2  0  0  0  0
  1  3  2  0  0  0  0
  1  4  1  0  0  0  0
  1 32  1  0  0  0  0
  4  5  1  0  0  0  0
  5  6  2  0  0  0  0
  5  7  1  0  0  0  0
  7  8  1  0  0  0  0
  8  9  1  0  0  0  0
  9 10  1  0  0  0  0
 10 11  2  3  0  0  0
 11 12  1  0  0  0  0
 13 12  1  6  0  0  0
 13 14  1  0  0  0  0
 13 30  1  0  0  0  0
 14 15  1  1  0  0  0
 14 27  1  0  0  0  0
 15 16  2  3  0  0  0
 16 17  1  0  0  0  0
 17 18  1  1  0  0  0
 17 19  1  0  0  0  0
 19 20  1  0  0  0  0
 20 21  1  0  0  0  0
 21 22  1  0  0  0  0
 21 26  2  0  0  0  0
 22 23  2  0  0  0  0
 23 24  1  0  0  0  0
 24 25  2  0  0  0  0
 25 26  1  0  0  0  0
 27 28  1  6  0  0  0
 27 29  1  0  0  0  0
 29 30  1  0  0  0  0
 30 31  2  0  0  0  0
M  END
>  <Index>
1026

>  <ID>
HT1963

>  <class>
0

>  <apol>
70.76458

>  <ast_fraglike>
0

>  <ast_fraglike_ext>
0

>  <ast_violation>
2

>  <ast_violation_ext>
4

>  <a_acc>
7

>  <a_acid>
0

>  <a_aro>
6

>  <a_base>
0

>  <a_count>
63

>  <a_don>
3

>  <a_donacc>
10

>  <a_heavy>
32

>  <a_hyd>
21

>  <a_IC>
99.295143

>  <a_ICM>
1.5761133

>  <a_nB>
0

>  <a_nBr>
0

>  <a_nC>
23

>  <a_nCl>
0

>  <a_nF>
0

>  <a_nH>
31

>  <a_nI>
0

>  <a_nN>
1

>  <a_nO>
7

>  <a_nP>
0

>  <a_nS>
1

>  <balabanJ>
1.6125861

>  <BCUT_PEOE_0>
-2.5935171

>  <BCUT_PEOE_1>
-0.62376851

>  <BCUT_PEOE_2>
0.61774415

>  <BCUT_PEOE_3>
2.7679656

>  <BCUT_SLOGP_0>
-2.6626456

>  <BCUT_SLOGP_1>
-0.53506231

>  <BCUT_SLOGP_2>
0.67938298

>  <BCUT_SLOGP_3>
2.7481575

>  <BCUT_SMR_0>
-2.3470898

>  <BCUT_SMR_1>
-0.43705097

>  <BCUT_SMR_2>
0.77108276

>  <BCUT_SMR_3>
3.0040114

>  <bpol>
44.857418

>  <b_1rotN>
12

>  <b_1rotR>
0.36363637

>  <b_ar>
6

>  <b_count>
64

>  <b_double>
4

>  <b_heavy>
33

>  <b_max1len>
5

>  <b_rotN>
13

>  <b_rotR>
0.39393941

>  <b_single>
54

>  <b_triple>
0

>  <chi0>
23.562267

>  <chi0v>
18.908607

>  <chi0v_C>
14.248194

>  <chi0_C>
15.648053

>  <chi1>
15.153686

>  <chi1v>
12.45227

>  <chi1v_C>
7.9477072

>  <chi1_C>
9.6742344

>  <chiral>
4

>  <chiral_u>
0

>  <density>
0.77148467

>  <diameter>
20

>  <FCharge>
0

>  <GCUT_PEOE_0>
-0.82137358

>  <GCUT_PEOE_1>
-0.40317827

>  <GCUT_PEOE_2>
0.067137949

>  <GCUT_PEOE_3>
2.7717741

>  <GCUT_SLOGP_0>
-1.1435245

>  <GCUT_SLOGP_1>
-0.38178071

>  <GCUT_SLOGP_2>
0.11647867

>  <GCUT_SLOGP_3>
2.8068171

>  <GCUT_SMR_0>
-0.53148615

>  <GCUT_SMR_1>
-0.21421275

>  <GCUT_SMR_2>
0.173195

>  <GCUT_SMR_3>
3.0114861

>  <Kier1>
28.23875

>  <Kier2>
14.411157

>  <Kier3>
11.328125

>  <KierA1>
24.202187

>  <KierA2>
12.286796

>  <KierA3>
9.6227026

>  <KierFlex>
9.2927284

>  <lip_acc>
8

>  <lip_don>
3

>  <lip_druglike>
1

>  <lip_violation>
0

>  <logP(o/w)>
0.57599998

>  <logS>
-3.10043

>  <mr>
12.274425

>  <mutagenic>
0

>  <nmol>
1

>  <opr_brigid>
13

>  <opr_leadlike>
0

>  <opr_nring>
2

>  <opr_nrot>
12

>  <opr_violation>
2

>  <PC+>
0

>  <PC->
0

>  <PEOE_PC+>
3.0849302

>  <PEOE_PC->
-3.0849302

>  <PEOE_RPC+>
0.068172216

>  <PEOE_RPC->
0.17999485

>  <PEOE_VSA+0>
59.885944

>  <PEOE_VSA+1>
101.61922

>  <PEOE_VSA+2>
39.979298

>  <PEOE_VSA+3>
0

>  <PEOE_VSA+4>
41.372086

>  <PEOE_VSA+5>
0

>  <PEOE_VSA+6>
0

>  <PEOE_VSA-0>
59.31506

>  <PEOE_VSA-1>
85.784325

>  <PEOE_VSA-2>
32.016521

>  <PEOE_VSA-3>
0

>  <PEOE_VSA-4>
2.5295215

>  <PEOE_VSA-5>
13.566921

>  <PEOE_VSA-6>
31.605757

>  <PEOE_VSA_FHYD>
0.80953795

>  <PEOE_VSA_FNEG>
0.48071477

>  <PEOE_VSA_FPNEG>
0.10199869

>  <PEOE_VSA_FPOL>
0.19046207

>  <PEOE_VSA_FPOS>
0.51928526

>  <PEOE_VSA_FPPOS>
0.088463388

>  <PEOE_VSA_HYD>
378.60037

>  <PEOE_VSA_NEG>
224.81812

>  <PEOE_VSA_PNEG>
47.702198

>  <PEOE_VSA_POL>
89.074287

>  <PEOE_VSA_POS>
242.85655

>  <PEOE_VSA_PPOS>
41.372086

>  <petitjean>
0.5

>  <petitjeanSC>
1

>  <Q_PC+>
0

>  <Q_PC->
0

>  <Q_RPC+>
0

>  <Q_RPC->
0

>  <Q_VSA_FHYD>
1

>  <Q_VSA_FNEG>
0

>  <Q_VSA_FPNEG>
0

>  <Q_VSA_FPOL>
0

>  <Q_VSA_FPOS>
1

>  <Q_VSA_FPPOS>
0

>  <Q_VSA_HYD>
467.67465

>  <Q_VSA_NEG>
0

>  <Q_VSA_PNEG>
0

>  <Q_VSA_POL>
0

>  <Q_VSA_POS>
467.67465

>  <Q_VSA_PPOS>
0

>  <radius>
10

>  <reactive>
1

>  <rings>
2

>  <RPC+>
0

>  <RPC->
0

>  <rsynth>
0.40625

>  <SlogP>
1.7410001

>  <SlogP_VSA0>
78.175339

>  <SlogP_VSA1>
59.118084

>  <SlogP_VSA2>
67.302475

>  <SlogP_VSA3>
20.926258

>  <SlogP_VSA4>
8.8215923

>  <SlogP_VSA5>
31.691174

>  <SlogP_VSA6>
0

>  <SlogP_VSA7>
158.78867

>  <SlogP_VSA8>
94.342026

>  <SlogP_VSA9>
5.2434282

>  <SMR>
12.02891

>  <SMR_VSA0>
95.896118

>  <SMR_VSA1>
61.77034

>  <SMR_VSA2>
25.226589

>  <SMR_VSA3>
18.180727

>  <SMR_VSA4>
0

>  <SMR_VSA5>
253.13069

>  <SMR_VSA6>
31.872654

>  <SMR_VSA7>
38.331917

>  <TPSA>
130

>  <VAdjEq>
0.3448742

>  <VAdjMa>
6.044394

>  <VDistEq>
4.1160412

>  <VDistMa>
9.666441

>  <vdw_area>
467.67465

>  <vdw_vol>
603.46887

>  <vsa_acc>
61.654121

>  <vsa_acid>
0

>  <vsa_base>
0

>  <vsa_don>
8.0752068

>  <vsa_hyd>
304.55453

>  <vsa_other>
31.513659

>  <vsa_pol>
96.863167

>  <Weight>
465.56699

>  <weinerPath>
3861

>  <weinerPol>
40

>  <zagreb>
154

$$$$