S1c2c(N(c3c1cccc3)CCN1CCN(CC1)CCO)cc(cc2)C(=O)CC
  MOE2013           2D

 29 32  0  0  1  0  0  0  0  0999 V2000
    0.0000    0.0000    0.0000 S   0  0  0  0  0  0  0  0  0  0  0  0
    0.7520    1.2980    0.0000 C   0  0  0  0  0  0  0  0  0  0  0  0
    2.2520    1.2950    0.0000 C   0  0  0  0  0  0  0  0  0  0  0  0
    3.0000   -0.0050    0.0000 N   0  0  3  0  0  0  0  0  0  0  0  0
    2.2480   -1.3030    0.0000 C   0  0  0  0  0  0  0  0  0  0  0  0
    0.7480   -1.3000    0.0000 C   0  0  0  0  0  0  0  0  0  0  0  0
   -0.0040   -2.5980    0.0000 C   0  0  0  0  0  0  0  0  0  0  0  0
    0.7430   -3.8980    0.0000 C   0  0  0  0  0  0  0  0  0  0  0  0
    2.2430   -3.9010    0.0000 C   0  0  0  0  0  0  0  0  0  0  0  0
    2.9960   -2.6030    0.0000 C   0  0  0  0  0  0  0  0  0  0  0  0
    4.5000   -0.0080    0.0000 C   0  0  0  0  0  0  0  0  0  0  0  0
    5.2480   -1.3080    0.0000 C   0  0  0  0  0  0  0  0  0  0  0  0
    6.7480   -1.3110    0.0000 N   0  0  0  0  0  0  0  0  0  0  0  0
    7.5000   -0.0130    0.0000 C   0  0  0  0  0  0  0  0  0  0  0  0
    9.0000   -0.0150    0.0000 C   0  0  0  0  0  0  0  0  0  0  0  0
    9.7480   -1.3160    0.0000 N   0  0  0  0  0  0  0  0  0  0  0  0
    8.9960   -2.6140    0.0000 C   0  0  0  0  0  0  0  0  0  0  0  0
    7.4960   -2.6110    0.0000 C   0  0  0  0  0  0  0  0  0  0  0  0
   11.2480   -1.3180    0.0000 C   0  0  0  0  0  0  0  0  0  0  0  0
   11.9960   -2.6190    0.0000 C   0  0  0  0  0  0  0  0  0  0  0  0
   13.4960   -2.6210    0.0000 O   0  0  0  0  0  0  0  0  0  0  0  0
    3.0040    2.5930    0.0000 C   0  0  0  0  0  0  0  0  0  0  0  0
    2.2570    3.8930    0.0000 C   0  0  0  0  0  0  0  0  0  0  0  0
    0.7570    3.8960    0.0000 C   0  0  0  0  0  0  0  0  0  0  0  0
    0.0040    2.5980    0.0000 C   0  0  0  0  0  0  0  0  0  0  0  0
    3.0090    5.1910    0.0000 C   0  0  0  0  0  0  0  0  0  0  0  0
    4.5090    5.1880    0.0000 O   0  0  0  0  0  0  0  0  0  0  0  0
    2.2610    6.4910    0.0000 C   0  0  0  0  0  0  0  0  0  0  0  0
    3.0130    7.7890    0.0000 C   0  0  0  0  0  0  0  0  0  0  0  0
  1  2  1  0  0  0  0
  1  6  1  0  0  0  0
  2  3  1  0  0  0  0
  2 25  2  0  0  0  0
  3  4  1  0  0  0  0
  3 22  2  0  0  0  0
  4  5  1  0  0  0  0
  4 11  1  0  0  0  0
  5  6  1  0  0  0  0
  5 10  2  0  0  0  0
  6  7  2  0  0  0  0
  7  8  1  0  0  0  0
  8  9  2  0  0  0  0
  9 10  1  0  0  0  0
 11 12  1  0  0  0  0
 12 13  1  0  0  0  0
 13 14  1  0  0  0  0
 13 18  1  0  0  0  0
 14 15  1  0  0  0  0
 15 16  1  0  0  0  0
 16 17  1  0  0  0  0
 16 19  1  0  0  0  0
 17 18  1  0  0  0  0
 19 20  1  0  0  0  0
 20 21  1  0  0  0  0
 22 23  1  0  0  0  0
 23 24  2  0  0  0  0
 23 26  1  0  0  0  0
 24 25  1  0  0  0  0
 26 27  2  0  0  0  0
 26 28  1  0  0  0  0
 28 29  1  0  0  0  0
M  END
>  <Index>
195

>  <ID>
HT0387

>  <class>
0

>  <apol>
67.620995

>  <ast_fraglike>
0

>  <ast_fraglike_ext>
0

>  <ast_violation>
3

>  <ast_violation_ext>
4

>  <a_acc>
4

>  <a_acid>
0

>  <a_aro>
12

>  <a_base>
0

>  <a_count>
58

>  <a_don>
1

>  <a_donacc>
5

>  <a_heavy>
29

>  <a_hyd>
23

>  <a_IC>
88.084633

>  <a_ICM>
1.5187006

>  <a_nB>
0

>  <a_nBr>
0

>  <a_nC>
23

>  <a_nCl>
0

>  <a_nF>
0

>  <a_nH>
29

>  <a_nI>
0

>  <a_nN>
3

>  <a_nO>
2

>  <a_nP>
0

>  <a_nS>
1

>  <balabanJ>
1.3865889

>  <BCUT_PEOE_0>
-2.794364

>  <BCUT_PEOE_1>
-0.65497094

>  <BCUT_PEOE_2>
0.6399591

>  <BCUT_PEOE_3>
2.6899865

>  <BCUT_SLOGP_0>
-2.918556

>  <BCUT_SLOGP_1>
-0.50159007

>  <BCUT_SLOGP_2>
0.65874088

>  <BCUT_SLOGP_3>
2.5993543

>  <BCUT_SMR_0>
-2.5093668

>  <BCUT_SMR_1>
-0.43785411

>  <BCUT_SMR_2>
0.84199357

>  <BCUT_SMR_3>
2.9670033

>  <bpol>
40.881004

>  <b_1rotN>
7

>  <b_1rotR>
0.21875

>  <b_ar>
12

>  <b_count>
61

>  <b_double>
1

>  <b_heavy>
32

>  <b_max1len>
4

>  <b_rotN>
7

>  <b_rotR>
0.21875

>  <b_single>
48

>  <b_triple>
0

>  <chi0>
20.216969

>  <chi0v>
17.827261

>  <chi0v_C>
14.405413

>  <chi0_C>
15.77781

>  <chi1>
14.190203

>  <chi1v>
11.281949

>  <chi1v_C>
6.8760443

>  <chi1_C>
8.5648451

>  <chiral>
0

>  <chiral_u>
0

>  <density>
0.72133732

>  <diameter>
15

>  <FCharge>
0

>  <GCUT_PEOE_0>
-0.85608321

>  <GCUT_PEOE_1>
-0.41322586

>  <GCUT_PEOE_2>
0.062812574

>  <GCUT_PEOE_3>
2.8390968

>  <GCUT_SLOGP_0>
-0.96856683

>  <GCUT_SLOGP_1>
-0.31858784

>  <GCUT_SLOGP_2>
0.13745213

>  <GCUT_SLOGP_3>
2.90395

>  <GCUT_SMR_0>
-0.51975214

>  <GCUT_SMR_1>
-0.18572733

>  <GCUT_SMR_2>
0.20272139

>  <GCUT_SMR_3>
3.1215212

>  <Kier1>
22.203125

>  <Kier2>
10.543388

>  <Kier3>
5.2577777

>  <KierA1>
18.796049

>  <KierA2>
8.8696499

>  <KierA3>
4.4027028

>  <KierFlex>
5.7487717

>  <lip_acc>
5

>  <lip_don>
1

>  <lip_druglike>
1

>  <lip_violation>
0

>  <logP(o/w)>
2.7490001

>  <logS>
-3.99632

>  <mr>
11.894705

>  <mutagenic>
0

>  <nmol>
1

>  <opr_brigid>
22

>  <opr_leadlike>
1

>  <opr_nring>
4

>  <opr_nrot>
9

>  <opr_violation>
0

>  <PC+>
0

>  <PC->
0

>  <PEOE_PC+>
2.0052035

>  <PEOE_PC->
-2.0052035

>  <PEOE_RPC+>
0.10445357

>  <PEOE_RPC->
0.1963627

>  <PEOE_VSA+0>
206.06677

>  <PEOE_VSA+1>
53.339767

>  <PEOE_VSA+2>
0

>  <PEOE_VSA+3>
8.458519

>  <PEOE_VSA+4>
10.324173

>  <PEOE_VSA+5>
0

>  <PEOE_VSA+6>
0

>  <PEOE_VSA-0>
49.019615

>  <PEOE_VSA-1>
75.27301

>  <PEOE_VSA-2>
0

>  <PEOE_VSA-3>
0

>  <PEOE_VSA-4>
0

>  <PEOE_VSA-5>
13.566921

>  <PEOE_VSA-6>
7.7675405

>  <PEOE_VSA_FHYD>
0.92530107

>  <PEOE_VSA_FNEG>
0.34360898

>  <PEOE_VSA_FPNEG>
0.050338935

>  <PEOE_VSA_FPOL>
0.074698955

>  <PEOE_VSA_FPOS>
0.65639102

>  <PEOE_VSA_FPPOS>
0.024360018

>  <PEOE_VSA_HYD>
392.15768

>  <PEOE_VSA_NEG>
145.62709

>  <PEOE_VSA_PNEG>
21.334461

>  <PEOE_VSA_POL>
31.658634

>  <PEOE_VSA_POS>
278.18924

>  <PEOE_VSA_PPOS>
10.324173

>  <petitjean>
0.46666667

>  <petitjeanSC>
0.875

>  <Q_PC+>
0

>  <Q_PC->
0

>  <Q_RPC+>
0

>  <Q_RPC->
0

>  <Q_VSA_FHYD>
1

>  <Q_VSA_FNEG>
0

>  <Q_VSA_FPNEG>
0

>  <Q_VSA_FPOL>
0

>  <Q_VSA_FPOS>
1

>  <Q_VSA_FPPOS>
0

>  <Q_VSA_HYD>
423.81631

>  <Q_VSA_NEG>
0

>  <Q_VSA_PNEG>
0

>  <Q_VSA_POL>
0

>  <Q_VSA_POS>
423.81631

>  <Q_VSA_PPOS>
0

>  <radius>
8

>  <reactive>
1

>  <rings>
4

>  <RPC+>
0

>  <RPC->
0

>  <rsynth>
1

>  <SlogP>
3.4919

>  <SlogP_VSA0>
28.509541

>  <SlogP_VSA1>
11.936239

>  <SlogP_VSA2>
0

>  <SlogP_VSA3>
150.00331

>  <SlogP_VSA4>
27.047791

>  <SlogP_VSA5>
3.1014678

>  <SlogP_VSA6>
0

>  <SlogP_VSA7>
123.50229

>  <SlogP_VSA8>
18.868406

>  <SlogP_VSA9>
71.059052

>  <SMR>
11.86013

>  <SMR_VSA0>
23.862217

>  <SMR_VSA1>
31.633854

>  <SMR_VSA2>
6.2257819

>  <SMR_VSA3>
3.185575

>  <SMR_VSA4>
5.513495

>  <SMR_VSA5>
142.3707

>  <SMR_VSA6>
155.69092

>  <SMR_VSA7>
65.545555

>  <TPSA>
47.02

>  <VAdjEq>
0.38828552

>  <VAdjMa>
6

>  <VDistEq>
3.6007969

>  <VDistMa>
9.4265671

>  <vdw_area>
423.81631

>  <vdw_vol>
570.56525

>  <vsa_acc>
13.566921

>  <vsa_acid>
0

>  <vsa_base>
0

>  <vsa_don>
0

>  <vsa_hyd>
363.76889

>  <vsa_other>
8.458519

>  <vsa_pol>
27.133842

>  <Weight>
411.57001

>  <weinerPath>
2322

>  <weinerPol>
48

>  <zagreb>
152

$$$$