Clc1nc(OP(=S)(OCC)OCC)nn1C(C)C
  MOE2013           2D

 18 18  0  0  0  0  0  0  0  0999 V2000
    0.0000    0.0000    0.0000 Cl  0  0  0  0  0  0  0  0  0  0  0  0
   -0.7510    1.2990    0.0000 C   0  0  0  0  0  0  0  0  0  0  0  0
   -2.2430    1.4540    0.0000 N   0  0  0  0  0  0  0  0  0  0  0  0
   -2.5550    2.9210    0.0000 C   0  0  0  0  0  0  0  0  0  0  0  0
   -3.9260    3.5310    0.0000 O   0  0  0  0  0  0  0  0  0  0  0  0
   -5.1390    2.6480    0.0000 P   0  0  0  0  0  0  0  0  0  0  0  0
   -4.2570    1.4350    0.0000 S   0  0  0  0  0  0  0  0  0  0  0  0
   -6.3520    1.7660    0.0000 O   0  0  0  0  0  0  0  0  0  0  0  0
   -6.1940    0.2740    0.0000 C   0  0  0  0  0  0  0  0  0  0  0  0
   -7.4070   -0.6080    0.0000 C   0  0  0  0  0  0  0  0  0  0  0  0
   -6.0220    3.8610    0.0000 O   0  0  0  0  0  0  0  0  0  0  0  0
   -7.5130    3.7030    0.0000 C   0  0  0  0  0  0  0  0  0  0  0  0
   -8.3960    4.9160    0.0000 C   0  0  0  0  0  0  0  0  0  0  0  0
   -1.2570    3.6720    0.0000 N   0  0  0  0  0  0  0  0  0  0  0  0
   -0.1420    2.6690    0.0000 N   0  0  0  0  0  0  0  0  0  0  0  0
    1.3250    2.9820    0.0000 C   0  0  0  0  0  0  0  0  0  0  0  0
    2.3300    1.8680    0.0000 C   0  0  0  0  0  0  0  0  0  0  0  0
    1.7880    4.4090    0.0000 C   0  0  0  0  0  0  0  0  0  0  0  0
  1  2  1  0  0  0  0
  2  3  2  0  0  0  0
  2 15  1  0  0  0  0
  3  4  1  0  0  0  0
  4  5  1  0  0  0  0
  4 14  2  0  0  0  0
  5  6  1  0  0  0  0
  6  7  2  0  0  0  0
  6  8  1  0  0  0  0
  6 11  1  0  0  0  0
  8  9  1  0  0  0  0
  9 10  1  0  0  0  0
 11 12  1  0  0  0  0
 12 13  1  0  0  0  0
 14 15  1  0  0  0  0
 15 16  1  0  0  0  0
 16 17  1  0  0  0  0
 16 18  1  0  0  0  0
M  END
>  <Index>
1331

>  <ID>
HT3431

>  <class>
0

>  <apol>
41.59148

>  <ast_fraglike>
0

>  <ast_fraglike_ext>
0

>  <ast_violation>
3

>  <ast_violation_ext>
4

>  <a_acc>
4

>  <a_acid>
0

>  <a_aro>
5

>  <a_base>
0

>  <a_count>
35

>  <a_don>
0

>  <a_donacc>
4

>  <a_heavy>
18

>  <a_hyd>
8

>  <a_IC>
71.99894

>  <a_ICM>
2.0571125

>  <a_nB>
0

>  <a_nBr>
0

>  <a_nC>
9

>  <a_nCl>
1

>  <a_nF>
0

>  <a_nH>
17

>  <a_nI>
0

>  <a_nN>
3

>  <a_nO>
3

>  <a_nP>
1

>  <a_nS>
1

>  <balabanJ>
2.562999

>  <BCUT_PEOE_0>
-2.5076241

>  <BCUT_PEOE_1>
-0.23743439

>  <BCUT_PEOE_2>
0.061251573

>  <BCUT_PEOE_3>
2.511312

>  <BCUT_SLOGP_0>
-2.4145451

>  <BCUT_SLOGP_1>
-0.0045206863

>  <BCUT_SLOGP_2>
0.123

>  <BCUT_SLOGP_3>
2.6632752

>  <BCUT_SMR_0>
-2.2717526

>  <BCUT_SMR_1>
0.1057

>  <BCUT_SMR_2>
0.43161488

>  <BCUT_SMR_3>
2.7969892

>  <bpol>
34.392521

>  <b_1rotN>
7

>  <b_1rotR>
0.3888889

>  <b_ar>
5

>  <b_count>
35

>  <b_double>
0

>  <b_heavy>
18

>  <b_max1len>
8

>  <b_rotN>
7

>  <b_rotR>
0.3888889

>  <b_single>
30

>  <b_triple>
0

>  <chi0>
13.759149

>  <chi0v>
13.258228

>  <chi0v_C>
6.9915638

>  <chi0_C>
7.1462646

>  <chi1>
8.4148331

>  <chi1v>
8.5562963

>  <chi1v_C>
2.5689142

>  <chi1_C>
2.5689142

>  <chiral>
0

>  <chiral_u>
0

>  <density>
0.88876086

>  <diameter>
9

>  <FCharge>
0

>  <GCUT_PEOE_0>
-0.80267036

>  <GCUT_PEOE_1>
-0.35478598

>  <GCUT_PEOE_2>
-0.10733921

>  <GCUT_PEOE_3>
2.3464913

>  <GCUT_SLOGP_0>
-0.88359207

>  <GCUT_SLOGP_1>
-0.23019615

>  <GCUT_SLOGP_2>
-0.037

>  <GCUT_SLOGP_3>
2.4572155

>  <GCUT_SMR_0>
-0.52001369

>  <GCUT_SMR_1>
-0.098568045

>  <GCUT_SMR_2>
0.12968756

>  <GCUT_SMR_3>
2.6059701

>  <Kier1>
16.055555

>  <Kier2>
6.9632001

>  <Kier3>
4.5659928

>  <KierA1>
18.172314

>  <KierA2>
7.9400015

>  <KierA3>
5.2350955

>  <KierFlex>
8.0160112

>  <lip_acc>
6

>  <lip_don>
0

>  <lip_druglike>
1

>  <lip_violation>
0

>  <logP(o/w)>
2.1259999

>  <logS>
-4.56042

>  <mr>
7.725915

>  <mutagenic>
0

>  <nmol>
1

>  <opr_brigid>
5

>  <opr_leadlike>
1

>  <opr_nring>
1

>  <opr_nrot>
7

>  <opr_violation>
0

>  <PC+>
0

>  <PC->
0

>  <PEOE_PC+>
1.745844

>  <PEOE_PC->
-1.745844

>  <PEOE_RPC+>
0.19398513

>  <PEOE_RPC->
0.26213801

>  <PEOE_VSA+0>
51.184631

>  <PEOE_VSA+1>
54.375477

>  <PEOE_VSA+2>
0

>  <PEOE_VSA+3>
0

>  <PEOE_VSA+4>
13.501769

>  <PEOE_VSA+5>
0

>  <PEOE_VSA+6>
33.03075

>  <PEOE_VSA-0>
104.57265

>  <PEOE_VSA-1>
0

>  <PEOE_VSA-2>
14.087011

>  <PEOE_VSA-3>
5.6825762

>  <PEOE_VSA-4>
9.3319435

>  <PEOE_VSA-5>
0

>  <PEOE_VSA-6>
33.008488

>  <PEOE_VSA_FHYD>
0.72120506

>  <PEOE_VSA_FNEG>
0.52288455

>  <PEOE_VSA_FPNEG>
0.13282219

>  <PEOE_VSA_FPOL>
0.27879497

>  <PEOE_VSA_FPOS>
0.47711548

>  <PEOE_VSA_FPPOS>
0.14597279

>  <PEOE_VSA_HYD>
229.90236

>  <PEOE_VSA_NEG>
166.68268

>  <PEOE_VSA_PNEG>
42.340431

>  <PEOE_VSA_POL>
88.872948

>  <PEOE_VSA_POS>
152.09264

>  <PEOE_VSA_PPOS>
46.53252

>  <petitjean>
0.44444445

>  <petitjeanSC>
0.80000001

>  <Q_PC+>
0

>  <Q_PC->
0

>  <Q_RPC+>
0

>  <Q_RPC->
0

>  <Q_VSA_FHYD>
1

>  <Q_VSA_FNEG>
0

>  <Q_VSA_FPNEG>
0

>  <Q_VSA_FPOL>
0

>  <Q_VSA_FPOS>
1

>  <Q_VSA_FPPOS>
0

>  <Q_VSA_HYD>
318.7753

>  <Q_VSA_NEG>
0

>  <Q_VSA_PNEG>
0

>  <Q_VSA_POL>
0

>  <Q_VSA_POS>
318.7753

>  <Q_VSA_PPOS>
0

>  <radius>
5

>  <reactive>
1

>  <rings>
1

>  <RPC+>
0

>  <RPC->
0

>  <rsynth>
1

>  <SlogP>
3.2842

>  <SlogP_VSA0>
6.9216304

>  <SlogP_VSA1>
35.225109

>  <SlogP_VSA2>
56.537235

>  <SlogP_VSA3>
41.852516

>  <SlogP_VSA4>
0

>  <SlogP_VSA5>
0

>  <SlogP_VSA6>
2.6429517

>  <SlogP_VSA7>
0

>  <SlogP_VSA8>
3.9819686

>  <SlogP_VSA9>
189.76561

>  <SMR>
7.3692999

>  <SMR_VSA0>
13.843261

>  <SMR_VSA1>
42.146736

>  <SMR_VSA2>
0

>  <SMR_VSA3>
11.010694

>  <SMR_VSA4>
0

>  <SMR_VSA5>
0

>  <SMR_VSA6>
41.852516

>  <SMR_VSA7>
228.07382

>  <TPSA>
90.489998

>  <VAdjEq>
0.50325835

>  <VAdjMa>
5.1699252

>  <VDistEq>
3.0277209

>  <VDistMa>
8.0484219

>  <vdw_area>
318.7753

>  <vdw_vol>
353.01511

>  <vsa_acc>
24.43556

>  <vsa_acid>
0

>  <vsa_base>
0

>  <vsa_don>
0

>  <vsa_hyd>
198.03224

>  <vsa_other>
84.206978

>  <vsa_pol>
24.43556

>  <Weight>
313.746

>  <weinerPath>
630

>  <weinerPol>
24

>  <zagreb>
86

$$$$