O=C(C(CN1CCCCC1)C)c1ccc(cc1)C
  MOE2013           2D

 18 19  0  0  1  0  0  0  0  0999 V2000
    0.0000    0.0000    0.0000 O   0  0  0  0  0  0  0  0  0  0  0  0
    0.7530    1.2970    0.0000 C   0  0  0  0  0  0  0  0  0  0  0  0
    0.0050    2.5980    0.0000 C   0  0  3  0  0  0  0  0  0  0  0  0
   -1.4950    2.6010    0.0000 C   0  0  0  0  0  0  0  0  0  0  0  0
   -2.2420    3.9020    0.0000 N   0  0  0  0  0  0  0  0  0  0  0  0
   -3.7420    3.9050    0.0000 C   0  0  0  0  0  0  0  0  0  0  0  0
   -4.4890    5.2050    0.0000 C   0  0  0  0  0  0  0  0  0  0  0  0
   -3.7370    6.5030    0.0000 C   0  0  0  0  0  0  0  0  0  0  0  0
   -2.2370    6.5000    0.0000 C   0  0  0  0  0  0  0  0  0  0  0  0
   -1.4890    5.1990    0.0000 C   0  0  0  0  0  0  0  0  0  0  0  0
    0.7580    3.8960    0.0000 C   0  0  0  0  0  0  0  0  0  0  0  0
    2.2530    1.2940    0.0000 C   0  0  0  0  0  0  0  0  0  0  0  0
    3.0050    2.5920    0.0000 C   0  0  0  0  0  0  0  0  0  0  0  0
    4.5050    2.5890    0.0000 C   0  0  0  0  0  0  0  0  0  0  0  0
    5.2530    1.2880    0.0000 C   0  0  0  0  0  0  0  0  0  0  0  0
    4.5000   -0.0090    0.0000 C   0  0  0  0  0  0  0  0  0  0  0  0
    3.0000   -0.0060    0.0000 C   0  0  0  0  0  0  0  0  0  0  0  0
    6.7530    1.2850    0.0000 C   0  0  0  0  0  0  0  0  0  0  0  0
  1  2  2  0  0  0  0
  2  3  1  0  0  0  0
  2 12  1  0  0  0  0
  3  4  1  0  0  0  0
  3 11  1  0  0  0  0
  4  5  1  0  0  0  0
  5  6  1  0  0  0  0
  5 10  1  0  0  0  0
  6  7  1  0  0  0  0
  7  8  1  0  0  0  0
  8  9  1  0  0  0  0
  9 10  1  0  0  0  0
 12 13  1  0  0  0  0
 12 17  2  0  0  0  0
 13 14  2  0  0  0  0
 14 15  1  0  0  0  0
 15 16  2  0  0  0  0
 15 18  1  0  0  0  0
 16 17  1  0  0  0  0
M  END
>  <Index>
1089

>  <ID>
HT2086

>  <class>
0

>  <apol>
45.398239

>  <ast_fraglike>
0

>  <ast_fraglike_ext>
0

>  <ast_violation>
1

>  <ast_violation_ext>
2

>  <a_acc>
2

>  <a_acid>
0

>  <a_aro>
6

>  <a_base>
0

>  <a_count>
41

>  <a_don>
0

>  <a_donacc>
2

>  <a_heavy>
18

>  <a_hyd>
15

>  <a_IC>
51.617706

>  <a_ICM>
1.2589685

>  <a_nB>
0

>  <a_nBr>
0

>  <a_nC>
16

>  <a_nCl>
0

>  <a_nF>
0

>  <a_nH>
23

>  <a_nI>
0

>  <a_nN>
1

>  <a_nO>
1

>  <a_nP>
0

>  <a_nS>
0

>  <balabanJ>
1.7522209

>  <BCUT_PEOE_0>
-2.7887313

>  <BCUT_PEOE_1>
-0.40361825

>  <BCUT_PEOE_2>
0.36919442

>  <BCUT_PEOE_3>
2.7058263

>  <BCUT_SLOGP_0>
-2.8064804

>  <BCUT_SLOGP_1>
-0.31960809

>  <BCUT_SLOGP_2>
0.43967631

>  <BCUT_SLOGP_3>
2.745436

>  <BCUT_SMR_0>
-2.5178046

>  <BCUT_SMR_1>
-0.21257459

>  <BCUT_SMR_2>
0.52445805

>  <BCUT_SMR_3>
2.9713902

>  <bpol>
28.08176

>  <b_1rotN>
4

>  <b_1rotR>
0.21052632

>  <b_ar>
6

>  <b_count>
42

>  <b_double>
1

>  <b_heavy>
19

>  <b_max1len>
4

>  <b_rotN>
4

>  <b_rotR>
0.21052632

>  <b_single>
35

>  <b_triple>
0

>  <chi0>
12.957819

>  <chi0v>
11.484854

>  <chi0v_C>
10.629392

>  <chi0_C>
11.380469

>  <chi1>
8.6647034

>  <chi1v>
6.9984484

>  <chi1v_C>
5.8456411

>  <chi1_C>
6.8626084

>  <chiral>
1

>  <chiral_u>
1

>  <density>
0.64852041

>  <diameter>
11

>  <FCharge>
0

>  <GCUT_PEOE_0>
-0.85552049

>  <GCUT_PEOE_1>
-0.35619918

>  <GCUT_PEOE_2>
-0.015118114

>  <GCUT_PEOE_3>
2.6641684

>  <GCUT_SLOGP_0>
-0.95344323

>  <GCUT_SLOGP_1>
-0.26361209

>  <GCUT_SLOGP_2>
0.073408425

>  <GCUT_SLOGP_3>
2.7052991

>  <GCUT_SMR_0>
-0.52539146

>  <GCUT_SMR_1>
-0.17190081

>  <GCUT_SMR_2>
0.10354713

>  <GCUT_SMR_3>
2.9088347

>  <Kier1>
14.409972

>  <Kier2>
6.9632001

>  <Kier3>
4.2666669

>  <KierA1>
11.878983

>  <KierA2>
5.6702304

>  <KierA3>
3.4429791

>  <KierFlex>
3.7420318

>  <lip_acc>
2

>  <lip_don>
0

>  <lip_druglike>
1

>  <lip_violation>
0

>  <logP(o/w)>
3.24

>  <logS>
-2.8994401

>  <mr>
7.5734882

>  <mutagenic>
0

>  <nmol>
1

>  <opr_brigid>
12

>  <opr_leadlike>
1

>  <opr_nring>
2

>  <opr_nrot>
6

>  <opr_violation>
0

>  <PC+>
0

>  <PC->
0

>  <PEOE_PC+>
1.0892833

>  <PEOE_PC->
-1.0892833

>  <PEOE_RPC+>
0.15346003

>  <PEOE_RPC->
0.27692538

>  <PEOE_VSA+0>
96.443199

>  <PEOE_VSA+1>
17.061544

>  <PEOE_VSA+2>
0

>  <PEOE_VSA+3>
8.458519

>  <PEOE_VSA+4>
0

>  <PEOE_VSA+5>
0

>  <PEOE_VSA+6>
0

>  <PEOE_VSA-0>
62.534954

>  <PEOE_VSA-1>
78.677147

>  <PEOE_VSA-2>
0

>  <PEOE_VSA-3>
0

>  <PEOE_VSA-4>
0

>  <PEOE_VSA-5>
13.566921

>  <PEOE_VSA-6>
0

>  <PEOE_VSA_FHYD>
0.95097631

>  <PEOE_VSA_FNEG>
0.5592894

>  <PEOE_VSA_FPNEG>
0.049023665

>  <PEOE_VSA_FPOL>
0.049023665

>  <PEOE_VSA_FPOS>
0.4407106

>  <PEOE_VSA_FPPOS>
0

>  <PEOE_VSA_HYD>
263.17535

>  <PEOE_VSA_NEG>
154.77902

>  <PEOE_VSA_PNEG>
13.566921

>  <PEOE_VSA_POL>
13.566921

>  <PEOE_VSA_POS>
121.96326

>  <PEOE_VSA_PPOS>
0

>  <petitjean>
0.45454547

>  <petitjeanSC>
0.83333331

>  <Q_PC+>
0

>  <Q_PC->
0

>  <Q_RPC+>
0

>  <Q_RPC->
0

>  <Q_VSA_FHYD>
1

>  <Q_VSA_FNEG>
0

>  <Q_VSA_FPNEG>
0

>  <Q_VSA_FPOL>
0

>  <Q_VSA_FPOS>
1

>  <Q_VSA_FPPOS>
0

>  <Q_VSA_HYD>
276.74228

>  <Q_VSA_NEG>
0

>  <Q_VSA_PNEG>
0

>  <Q_VSA_POL>
0

>  <Q_VSA_POS>
276.74228

>  <Q_VSA_PPOS>
0

>  <radius>
6

>  <reactive>
1

>  <rings>
2

>  <RPC+>
0

>  <RPC->
0

>  <rsynth>
1

>  <SlogP>
3.29972

>  <SlogP_VSA0>
0

>  <SlogP_VSA1>
8.8119249

>  <SlogP_VSA2>
0

>  <SlogP_VSA3>
55.318733

>  <SlogP_VSA4>
34.644161

>  <SlogP_VSA5>
0

>  <SlogP_VSA6>
0

>  <SlogP_VSA7>
70.572739

>  <SlogP_VSA8>
56.605217

>  <SlogP_VSA9>
66.652031

>  <SMR>
7.4964499

>  <SMR_VSA0>
23.862217

>  <SMR_VSA1>
3.1243138

>  <SMR_VSA2>
4.4107962

>  <SMR_VSA3>
6.37115

>  <SMR_VSA4>
0

>  <SMR_VSA5>
127.17796

>  <SMR_VSA6>
61.006344

>  <SMR_VSA7>
66.652031

>  <TPSA>
20.309999

>  <VAdjEq>
0.52150291

>  <VAdjMa>
5.2479277

>  <VDistEq>
3.1821258

>  <VDistMa>
8.0181217

>  <vdw_area>
276.74228

>  <vdw_vol>
378.34735

>  <vsa_acc>
13.566921

>  <vsa_acid>
0

>  <vsa_base>
0

>  <vsa_don>
0

>  <vsa_hyd>
237.0005

>  <vsa_other>
8.458519

>  <vsa_pol>
13.566921

>  <Weight>
245.366

>  <weinerPath>
661

>  <weinerPol>
24

>  <zagreb>
88

$$$$