N1CCN=C1C1CCCc2c1cccc2
  MOE2013           2D

 15 17  0  0  1  0  0  0  0  0999 V2000
    0.0000    0.0000    0.0000 N   0  0  0  0  0  0  0  0  0  0  0  0
    1.4360    0.4320    0.0000 C   0  0  0  0  0  0  0  0  0  0  0  0
    1.4690    1.9320    0.0000 C   0  0  0  0  0  0  0  0  0  0  0  0
    0.0530    2.4260    0.0000 N   0  0  0  0  0  0  0  0  0  0  0  0
   -0.8550    1.2330    0.0000 C   0  0  0  0  0  0  0  0  0  0  0  0
   -2.3550    1.2650    0.0000 C   0  0  3  0  0  0  0  0  0  0  0  0
   -3.1330   -0.0170    0.0000 C   0  0  0  0  0  0  0  0  0  0  0  0
   -4.6320    0.0160    0.0000 C   0  0  0  0  0  0  0  0  0  0  0  0
   -5.3540    1.3310    0.0000 C   0  0  0  0  0  0  0  0  0  0  0  0
   -4.5750    2.6130    0.0000 C   0  0  0  0  0  0  0  0  0  0  0  0
   -3.0760    2.5810    0.0000 C   0  0  0  0  0  0  0  0  0  0  0  0
   -2.2980    3.8630    0.0000 C   0  0  0  0  0  0  0  0  0  0  0  0
   -3.0190    5.1780    0.0000 C   0  0  0  0  0  0  0  0  0  0  0  0
   -4.5190    5.2110    0.0000 C   0  0  0  0  0  0  0  0  0  0  0  0
   -5.2970    3.9290    0.0000 C   0  0  0  0  0  0  0  0  0  0  0  0
  1  2  1  0  0  0  0
  1  5  1  0  0  0  0
  2  3  1  0  0  0  0
  3  4  1  0  0  0  0
  4  5  2  0  0  0  0
  5  6  1  0  0  0  0
  6  7  1  0  0  0  0
  6 11  1  0  0  0  0
  7  8  1  0  0  0  0
  8  9  1  0  0  0  0
  9 10  1  0  0  0  0
 10 11  1  0  0  0  0
 10 15  2  0  0  0  0
 11 12  2  0  0  0  0
 12 13  1  0  0  0  0
 13 14  2  0  0  0  0
 14 15  1  0  0  0  0
M  END
>  <Index>
1062

>  <ID>
HT2029

>  <class>
0

>  <apol>
35.748688

>  <ast_fraglike>
1

>  <ast_fraglike_ext>
1

>  <ast_violation>
0

>  <ast_violation_ext>
0

>  <a_acc>
1

>  <a_acid>
0

>  <a_aro>
6

>  <a_base>
0

>  <a_count>
31

>  <a_don>
1

>  <a_donacc>
2

>  <a_heavy>
15

>  <a_hyd>
12

>  <a_IC>
39.474369

>  <a_ICM>
1.2733668

>  <a_nB>
0

>  <a_nBr>
0

>  <a_nC>
13

>  <a_nCl>
0

>  <a_nF>
0

>  <a_nH>
16

>  <a_nI>
0

>  <a_nN>
2

>  <a_nO>
0

>  <a_nP>
0

>  <a_nS>
0

>  <balabanJ>
1.7049865

>  <BCUT_PEOE_0>
-2.6623731

>  <BCUT_PEOE_1>
-0.52782756

>  <BCUT_PEOE_2>
0.59089041

>  <BCUT_PEOE_3>
2.6516192

>  <BCUT_SLOGP_0>
-2.6458058

>  <BCUT_SLOGP_1>
-0.42900375

>  <BCUT_SLOGP_2>
0.68763971

>  <BCUT_SLOGP_3>
2.7436864

>  <BCUT_SMR_0>
-2.3967454

>  <BCUT_SMR_1>
-0.40032542

>  <BCUT_SMR_2>
0.72315466

>  <BCUT_SMR_3>
2.9297268

>  <bpol>
19.471312

>  <b_1rotN>
1

>  <b_1rotR>
0.05882353

>  <b_ar>
6

>  <b_count>
33

>  <b_double>
1

>  <b_heavy>
17

>  <b_max1len>
2

>  <b_rotN>
1

>  <b_rotR>
0.05882353

>  <b_single>
26

>  <b_triple>
0

>  <chi0>
10.087576

>  <chi0v>
8.8694992

>  <chi0v_C>
7.9222851

>  <chi0_C>
8.6733618

>  <chi1>
7.4494896

>  <chi1v>
5.8098903

>  <chi1v_C>
4.666502

>  <chi1_C>
5.6329932

>  <chiral>
1

>  <chiral_u>
1

>  <density>
0.67250115

>  <diameter>
7

>  <FCharge>
0

>  <GCUT_PEOE_0>
-0.8629517

>  <GCUT_PEOE_1>
-0.40317702

>  <GCUT_PEOE_2>
0.06090311

>  <GCUT_PEOE_3>
2.6054606

>  <GCUT_SLOGP_0>
-1.1660802

>  <GCUT_SLOGP_1>
-0.29488662

>  <GCUT_SLOGP_2>
0.14078662

>  <GCUT_SLOGP_3>
2.6865044

>  <GCUT_SMR_0>
-0.5208739

>  <GCUT_SMR_1>
-0.18307827

>  <GCUT_SMR_2>
0.16057569

>  <GCUT_SMR_3>
2.8806813

>  <Kier1>
10.173011

>  <Kier2>
4.47259

>  <Kier3>
1.96875

>  <KierA1>
7.734375

>  <KierA2>
3.3275933

>  <KierA3>
1.4388885

>  <KierFlex>
1.7157903

>  <lip_acc>
2

>  <lip_don>
1

>  <lip_druglike>
1

>  <lip_violation>
0

>  <logP(o/w)>
1.972

>  <logS>
-2.9249599

>  <mr>
6.1303921

>  <mutagenic>
0

>  <nmol>
1

>  <opr_brigid>
16

>  <opr_leadlike>
1

>  <opr_nring>
3

>  <opr_nrot>
2

>  <opr_violation>
0

>  <PC+>
0

>  <PC->
0

>  <PEOE_PC+>
1.070892

>  <PEOE_PC->
-1.070892

>  <PEOE_RPC+>
0.15016575

>  <PEOE_RPC->
0.34651795

>  <PEOE_VSA+0>
43.050026

>  <PEOE_VSA+1>
47.315414

>  <PEOE_VSA+2>
11.190562

>  <PEOE_VSA+3>
8.6190128

>  <PEOE_VSA+4>
0

>  <PEOE_VSA+5>
0

>  <PEOE_VSA+6>
0

>  <PEOE_VSA-0>
30.521019

>  <PEOE_VSA-1>
49.019615

>  <PEOE_VSA-2>
0

>  <PEOE_VSA-3>
0

>  <PEOE_VSA-4>
0

>  <PEOE_VSA-5>
5.6825762

>  <PEOE_VSA-6>
0.13689101

>  <PEOE_VSA_FHYD>
0.97023827

>  <PEOE_VSA_FNEG>
0.43654615

>  <PEOE_VSA_FPNEG>
0.029761748

>  <PEOE_VSA_FPOL>
0.029761748

>  <PEOE_VSA_FPOS>
0.56345385

>  <PEOE_VSA_FPPOS>
0

>  <PEOE_VSA_HYD>
189.71565

>  <PEOE_VSA_NEG>
85.3601

>  <PEOE_VSA_PNEG>
5.8194671

>  <PEOE_VSA_POL>
5.8194671

>  <PEOE_VSA_POS>
110.17502

>  <PEOE_VSA_PPOS>
0

>  <petitjean>
0.42857143

>  <petitjeanSC>
0.75

>  <Q_PC+>
0

>  <Q_PC->
0

>  <Q_RPC+>
0

>  <Q_RPC->
0

>  <Q_VSA_FHYD>
1

>  <Q_VSA_FNEG>
0

>  <Q_VSA_FPNEG>
0

>  <Q_VSA_FPOL>
0

>  <Q_VSA_FPOS>
1

>  <Q_VSA_FPPOS>
0

>  <Q_VSA_HYD>
195.53511

>  <Q_VSA_NEG>
0

>  <Q_VSA_PNEG>
0

>  <Q_VSA_POL>
0

>  <Q_VSA_POS>
195.53511

>  <Q_VSA_PPOS>
0

>  <radius>
4

>  <reactive>
0

>  <rings>
3

>  <RPC+>
0

>  <RPC->
0

>  <rsynth>
1

>  <SlogP>
2.10817

>  <SlogP_VSA0>
18.01075

>  <SlogP_VSA1>
2.3279202

>  <SlogP_VSA2>
0

>  <SlogP_VSA3>
36.879158

>  <SlogP_VSA4>
6.37115

>  <SlogP_VSA5>
35.653934

>  <SlogP_VSA6>
4.4107962

>  <SlogP_VSA7>
70.572739

>  <SlogP_VSA8>
37.736813

>  <SlogP_VSA9>
0

>  <SMR>
6.2425699

>  <SMR_VSA0>
0

>  <SMR_VSA1>
16.78553

>  <SMR_VSA2>
18.01075

>  <SMR_VSA3>
10.781946

>  <SMR_VSA4>
0

>  <SMR_VSA5>
127.17796

>  <SMR_VSA6>
39.207077

>  <SMR_VSA7>
0

>  <TPSA>
24.389999

>  <VAdjEq>
0.61261392

>  <VAdjMa>
5.0874629

>  <VDistEq>
2.6087079

>  <VDistMa>
7.530869

>  <vdw_area>
195.53511

>  <vdw_vol>
297.82108

>  <vsa_acc>
5.6825762

>  <vsa_acid>
0

>  <vsa_base>
0

>  <vsa_don>
5.6825762

>  <vsa_hyd>
157.88409

>  <vsa_other>
11.190562

>  <vsa_pol>
11.365152

>  <Weight>
200.28499

>  <weinerPath>
339

>  <weinerPol>
21

>  <zagreb>
80

$$$$