O1C(C)C(O)C(N)CC1OC1CC(O)(Cc2c1c(O)c1c(C(=O)c3c(C1=O)c(OC)ccc3)c2O)/C(=N/NC(=O)c1ccccc1)/C
  MOE2013           2D

 47 52  0  0  1  0  0  0  0  0999 V2000
    0.0000    0.0000    0.0000 O   0  0  0  0  0  0  0  0  0  0  0  0
   -0.7390    1.3050    0.0000 C   0  0  3  0  0  0  0  0  0  0  0  0
    0.0220    2.5980    0.0000 C   0  0  0  0  0  0  0  0  0  0  0  0
   -2.2390    1.3180    0.0000 C   0  0  3  0  0  0  0  0  0  0  0  0
   -2.9780    2.6230    0.0000 O   0  0  0  0  0  0  0  0  0  0  0  0
   -3.0000    0.0250    0.0000 C   0  0  3  0  0  0  0  0  0  0  0  0
   -4.5000    0.0380    0.0000 N   0  0  0  0  0  0  0  0  0  0  0  0
   -2.2610   -1.2800    0.0000 C   0  0  0  0  0  0  0  0  0  0  0  0
   -0.7610   -1.2930    0.0000 C   0  0  3  0  0  0  0  0  0  0  0  0
   -0.0220   -2.5980    0.0000 O   0  0  0  0  0  0  0  0  0  0  0  0
   -0.7830   -3.8910    0.0000 C   0  0  3  0  0  0  0  0  0  0  0  0
   -2.2830   -3.8780    0.0000 C   0  0  0  0  0  0  0  0  0  0  0  0
   -3.0440   -5.1710    0.0000 C   0  0  3  0  0  0  0  0  0  0  0  0
   -4.3360   -4.4100    0.0000 O   0  0  0  0  0  0  0  0  0  0  0  0
   -2.3040   -6.4760    0.0000 C   0  0  0  0  0  0  0  0  0  0  0  0
   -0.8050   -6.4890    0.0000 C   0  0  0  0  0  0  0  0  0  0  0  0
   -0.0440   -5.1960    0.0000 C   0  0  0  0  0  0  0  0  0  0  0  0
    1.4560   -5.2090    0.0000 C   0  0  0  0  0  0  0  0  0  0  0  0
    2.2170   -3.9160    0.0000 O   0  0  0  0  0  0  0  0  0  0  0  0
    2.1950   -6.5140    0.0000 C   0  0  0  0  0  0  0  0  0  0  0  0
    1.4340   -7.8070    0.0000 C   0  0  0  0  0  0  0  0  0  0  0  0
    2.1740   -9.1120    0.0000 C   0  0  0  0  0  0  0  0  0  0  0  0
    1.4130  -10.4050    0.0000 O   0  0  0  0  0  0  0  0  0  0  0  0
    3.6730   -9.1240    0.0000 C   0  0  0  0  0  0  0  0  0  0  0  0
    4.4340   -7.8320    0.0000 C   0  0  0  0  0  0  0  0  0  0  0  0
    3.6950   -6.5260    0.0000 C   0  0  0  0  0  0  0  0  0  0  0  0
    4.4560   -5.2340    0.0000 O   0  0  0  0  0  0  0  0  0  0  0  0
    5.9340   -7.8440    0.0000 C   0  0  0  0  0  0  0  0  0  0  0  0
    6.6950   -6.5520    0.0000 O   0  0  0  0  0  0  0  0  0  0  0  0
    8.1950   -6.5640    0.0000 C   0  0  0  0  0  0  0  0  0  0  0  0
    6.6730   -9.1500    0.0000 C   0  0  0  0  0  0  0  0  0  0  0  0
    5.9130  -10.4420    0.0000 C   0  0  0  0  0  0  0  0  0  0  0  0
    4.4130  -10.4300    0.0000 C   0  0  0  0  0  0  0  0  0  0  0  0
   -0.0650   -7.7940    0.0000 C   0  0  0  0  0  0  0  0  0  0  0  0
   -0.8260   -9.0870    0.0000 O   0  0  0  0  0  0  0  0  0  0  0  0
   -4.3490   -5.9100    0.0000 C   0  0  0  0  0  0  0  0  0  0  0  0
   -5.6420   -5.1490    0.0000 N   0  0  0  0  0  0  0  0  0  0  0  0
   -6.9470   -5.8880    0.0000 N   0  0  0  0  0  0  0  0  0  0  0  0
   -8.2400   -5.1270    0.0000 C   0  0  0  0  0  0  0  0  0  0  0  0
   -8.2270   -3.6270    0.0000 O   0  0  0  0  0  0  0  0  0  0  0  0
   -9.5450   -5.8660    0.0000 C   0  0  0  0  0  0  0  0  0  0  0  0
   -9.5570   -7.3660    0.0000 C   0  0  0  0  0  0  0  0  0  0  0  0
  -10.8630   -8.1050    0.0000 C   0  0  0  0  0  0  0  0  0  0  0  0
  -12.1550   -7.3440    0.0000 C   0  0  0  0  0  0  0  0  0  0  0  0
  -12.1430   -5.8440    0.0000 C   0  0  0  0  0  0  0  0  0  0  0  0
  -10.8370   -5.1050    0.0000 C   0  0  0  0  0  0  0  0  0  0  0  0
   -4.3610   -7.4100    0.0000 C   0  0  0  0  0  0  0  0  0  0  0  0
  1  2  1  0  0  0  0
  1  9  1  0  0  0  0
  2  3  1  0  0  0  0
  2  4  1  0  0  0  0
  4  5  1  0  0  0  0
  4  6  1  0  0  0  0
  6  7  1  0  0  0  0
  6  8  1  0  0  0  0
  8  9  1  0  0  0  0
  9 10  1  0  0  0  0
 10 11  1  0  0  0  0
 11 12  1  0  0  0  0
 11 17  1  0  0  0  0
 12 13  1  0  0  0  0
 13 14  1  0  0  0  0
 13 15  1  0  0  0  0
 13 36  1  0  0  0  0
 15 16  1  0  0  0  0
 16 17  1  0  0  0  0
 16 34  2  0  0  0  0
 17 18  2  0  0  0  0
 18 19  1  0  0  0  0
 18 20  1  0  0  0  0
 20 21  2  0  0  0  0
 20 26  1  0  0  0  0
 21 22  1  0  0  0  0
 21 34  1  0  0  0  0
 22 23  2  0  0  0  0
 22 24  1  0  0  0  0
 24 25  2  0  0  0  0
 24 33  1  0  0  0  0
 25 26  1  0  0  0  0
 25 28  1  0  0  0  0
 26 27  2  0  0  0  0
 28 29  1  0  0  0  0
 28 31  2  0  0  0  0
 29 30  1  0  0  0  0
 31 32  1  0  0  0  0
 32 33  2  0  0  0  0
 34 35  1  0  0  0  0
 36 37  2  0  0  0  0
 36 47  1  0  0  0  0
 37 38  1  0  0  0  0
 38 39  1  0  0  0  0
 39 40  2  0  0  0  0
 39 41  1  0  0  0  0
 41 42  1  0  0  0  0
 41 46  2  0  0  0  0
 42 43  2  0  0  0  0
 43 44  1  0  0  0  0
 44 45  2  0  0  0  0
 45 46  1  0  0  0  0
M  END
>  <Index>
1406

>  <ID>
HT3975

>  <class>
0

>  <apol>
94.497757

>  <ast_fraglike>
0

>  <ast_fraglike_ext>
0

>  <ast_violation>
3

>  <ast_violation_ext>
5

>  <a_acc>
12

>  <a_acid>
0

>  <a_aro>
18

>  <a_base>
0

>  <a_count>
82

>  <a_don>
6

>  <a_donacc>
18

>  <a_heavy>
47

>  <a_hyd>
29

>  <a_IC>
130.84645

>  <a_ICM>
1.5956885

>  <a_nB>
0

>  <a_nBr>
0

>  <a_nC>
34

>  <a_nCl>
0

>  <a_nF>
0

>  <a_nH>
35

>  <a_nI>
0

>  <a_nN>
3

>  <a_nO>
10

>  <a_nP>
0

>  <a_nS>
0

>  <balabanJ>
1.2739416

>  <BCUT_PEOE_0>
-2.7548046

>  <BCUT_PEOE_1>
-0.53829825

>  <BCUT_PEOE_2>
0.62223476

>  <BCUT_PEOE_3>
2.7678728

>  <BCUT_SLOGP_0>
-2.9030204

>  <BCUT_SLOGP_1>
-0.53807992

>  <BCUT_SLOGP_2>
0.65007907

>  <BCUT_SLOGP_3>
2.7534659

>  <BCUT_SMR_0>
-2.5259757

>  <BCUT_SMR_1>
-0.38447827

>  <BCUT_SMR_2>
0.78157526

>  <BCUT_SMR_3>
2.991076

>  <bpol>
46.884247

>  <b_1rotN>
6

>  <b_1rotR>
0.11538462

>  <b_ar>
18

>  <b_count>
87

>  <b_double>
4

>  <b_heavy>
52

>  <b_max1len>
5

>  <b_rotN>
7

>  <b_rotR>
0.13461539

>  <b_single>
65

>  <b_triple>
0

>  <chi0>
33.783363

>  <chi0v>
25.889782

>  <chi0v_C>
20.126873

>  <chi0_C>
22.247829

>  <chi1>
22.356098

>  <chi1v>
15.099917

>  <chi1v_C>
10.972797

>  <chi1_C>
13.749802

>  <chiral>
6

>  <chiral_u>
6

>  <density>
0.79009026

>  <diameter>
18

>  <FCharge>
0

>  <GCUT_PEOE_0>
-0.82896787

>  <GCUT_PEOE_1>
-0.44137964

>  <GCUT_PEOE_2>
0.080102533

>  <GCUT_PEOE_3>
3.1161339

>  <GCUT_SLOGP_0>
-1.3637012

>  <GCUT_SLOGP_1>
-0.35523811

>  <GCUT_SLOGP_2>
0.13470961

>  <GCUT_SLOGP_3>
3.1538153

>  <GCUT_SMR_0>
-0.5219813

>  <GCUT_SMR_1>
-0.20481636

>  <GCUT_SMR_2>
0.19305076

>  <GCUT_SMR_3>
3.3654926

>  <Kier1>
36.779587

>  <Kier2>
14.925492

>  <Kier3>
6.974391

>  <KierA1>
28.632301

>  <KierA2>
11.552428

>  <KierA3>
5.3761988

>  <KierFlex>
7.037715

>  <lip_acc>
13

>  <lip_don>
7

>  <lip_druglike>
0

>  <lip_violation>
3

>  <logP(o/w)>
3.187

>  <logS>
-6.1866598

>  <mr>
16.70697

>  <mutagenic>
0

>  <nmol>
1

>  <opr_brigid>
34

>  <opr_leadlike>
0

>  <opr_nring>
6

>  <opr_nrot>
9

>  <opr_violation>
4

>  <PC+>
0

>  <PC->
0

>  <PEOE_PC+>
4.5935435

>  <PEOE_PC->
-4.5935435

>  <PEOE_RPC+>
0.059174124

>  <PEOE_RPC->
0.084400021

>  <PEOE_VSA+0>
116.3232

>  <PEOE_VSA+1>
117.3963

>  <PEOE_VSA+2>
17.238026

>  <PEOE_VSA+3>
36.69096

>  <PEOE_VSA+4>
41.296692

>  <PEOE_VSA+5>
12.949531

>  <PEOE_VSA+6>
0

>  <PEOE_VSA-0>
76.468605

>  <PEOE_VSA-1>
61.274521

>  <PEOE_VSA-2>
0

>  <PEOE_VSA-3>
9.4210396

>  <PEOE_VSA-4>
3.8753545

>  <PEOE_VSA-5>
40.700764

>  <PEOE_VSA-6>
45.232548

>  <PEOE_VSA_FHYD>
0.75114363

>  <PEOE_VSA_FNEG>
0.40937316

>  <PEOE_VSA_FPNEG>
0.15514545

>  <PEOE_VSA_FPOL>
0.2488564

>  <PEOE_VSA_FPOS>
0.59062684

>  <PEOE_VSA_FPPOS>
0.093710944

>  <PEOE_VSA_HYD>
434.81265

>  <PEOE_VSA_NEG>
236.97282

>  <PEOE_VSA_PNEG>
89.808662

>  <PEOE_VSA_POL>
144.05489

>  <PEOE_VSA_POS>
341.89471

>  <PEOE_VSA_PPOS>
54.246223

>  <petitjean>
0.5

>  <petitjeanSC>
1

>  <Q_PC+>
0

>  <Q_PC->
0

>  <Q_RPC+>
0

>  <Q_RPC->
0

>  <Q_VSA_FHYD>
1

>  <Q_VSA_FNEG>
0

>  <Q_VSA_FPNEG>
0

>  <Q_VSA_FPOL>
0

>  <Q_VSA_FPOS>
1

>  <Q_VSA_FPPOS>
0

>  <Q_VSA_HYD>
578.86755

>  <Q_VSA_NEG>
0

>  <Q_VSA_PNEG>
0

>  <Q_VSA_POL>
0

>  <Q_VSA_POS>
578.86755

>  <Q_VSA_PPOS>
0

>  <radius>
9

>  <reactive>
1

>  <rings>
6

>  <RPC+>
0

>  <RPC->
0

>  <rsynth>
0.68085104

>  <SlogP>
2.34127

>  <SlogP_VSA0>
163.3262

>  <SlogP_VSA1>
19.390753

>  <SlogP_VSA2>
47.445545

>  <SlogP_VSA3>
0

>  <SlogP_VSA4>
93.885674

>  <SlogP_VSA5>
70.915283

>  <SlogP_VSA6>
0

>  <SlogP_VSA7>
141.14548

>  <SlogP_VSA8>
44.20546

>  <SlogP_VSA9>
82.382317

>  <SMR>
16.67898

>  <SMR_VSA0>
93.586426

>  <SMR_VSA1>
129.2038

>  <SMR_VSA2>
17.888229

>  <SMR_VSA3>
69.943726

>  <SMR_VSA4>
32.897186

>  <SMR_VSA5>
197.75069

>  <SMR_VSA6>
19.390753

>  <SMR_VSA7>
102.0359

>  <TPSA>
210.23

>  <VAdjEq>
0.27386162

>  <VAdjMa>
6.7004399

>  <VDistEq>
3.8738937

>  <VDistMa>
10.858765

>  <vdw_area>
578.86755

>  <vdw_vol>
817.2041

>  <vsa_acc>
57.633072

>  <vsa_acid>
0

>  <vsa_base>
0

>  <vsa_don>
9.4210396

>  <vsa_hyd>
341.27921

>  <vsa_other>
51.27462

>  <vsa_pol>
139.06429

>  <Weight>
645.66498

>  <weinerPath>
7728

>  <weinerPol>
95

>  <zagreb>
262

$$$$