O(C)c1cc2N([C@@H]3[C@@]4([C@H]5N(CC=C[C@@]5(CC)[C@@H](O)[C@]3(O)C(=O)N)CC4)c2cc1[C@]1(CC2C[C@](O)(CN(C2)CCc2c1[nH]c1c2cccc1)CC)C(OC)=O)C
  MOE2013           2D

 55 63  0  0  1  0  0  0  0  0999 V2000
   -0.1390   -0.0520    0.0000 O   0  0  0  0  0  0  0  0  0  0  0  0
   -0.6390   -1.4780    0.0000 C   0  0  0  0  0  0  0  0  0  0  0  0
   -0.9660    1.1190    0.0000 C   0  0  0  0  0  0  0  0  0  0  0  0
   -2.4470    0.6500    0.0000 C   0  0  0  0  0  0  0  0  0  0  0  0
   -3.6200    1.5310    0.0000 C   0  0  0  0  0  0  0  0  0  0  0  0
   -5.1000    1.2680    0.0000 N   0  0  3  0  0  0  0  0  0  0  0  0
   -5.8150    2.5670    0.0000 C   0  0  2  0  0  0  0  0  0  0  0  0
   -4.7870    3.6770    0.0000 C   0  0  2  0  0  0  0  0  0  0  0  0
   -5.2840    5.0760    0.0000 C   0  0  1  0  0  0  0  0  0  0  0  0
   -4.2190    6.0950    0.0000 N   0  0  3  0  0  0  0  0  0  0  0  0
   -4.5980    7.5630    0.0000 C   0  0  0  0  0  0  0  0  0  0  0  0
   -6.0480    7.9630    0.0000 C   0  0  0  0  0  0  0  0  0  0  0  0
   -7.1010    6.8960    0.0000 C   0  0  0  0  0  0  0  0  0  0  0  0
   -6.7360    5.4360    0.0000 C   0  0  2  0  0  0  0  0  0  0  0  0
   -8.1840    5.8190    0.0000 C   0  0  0  0  0  0  0  0  0  0  0  0
   -8.6620    7.2160    0.0000 C   0  0  0  0  0  0  0  0  0  0  0  0
   -7.7490    4.2990    0.0000 C   0  0  1  0  0  0  0  0  0  0  0  0
   -9.2230    4.6510    0.0000 O   0  0  0  0  0  0  0  0  0  0  0  0
   -7.3090    2.8840    0.0000 C   0  0  1  0  0  0  0  0  0  0  0  0
   -7.6460    1.4120    0.0000 O   0  0  0  0  0  0  0  0  0  0  0  0
   -8.7290    2.4190    0.0000 C   0  0  0  0  0  0  0  0  0  0  0  0
   -9.0230    0.9120    0.0000 O   0  0  0  0  0  0  0  0  0  0  0  0
   -9.8900    3.3470    0.0000 N   0  0  0  0  0  0  0  0  0  0  0  0
   -2.9270    5.2830    0.0000 C   0  0  0  0  0  0  0  0  0  0  0  0
   -3.2810    3.8260    0.0000 C   0  0  0  0  0  0  0  0  0  0  0  0
   -3.4300    3.0510    0.0000 C   0  0  0  0  0  0  0  0  0  0  0  0
   -2.0170    3.5490    0.0000 C   0  0  0  0  0  0  0  0  0  0  0  0
   -0.7650    2.6970    0.0000 C   0  0  0  0  0  0  0  0  0  0  0  0
    0.7540    2.8850    0.0000 C   0  0  1  0  0  0  0  0  0  0  0  0
    1.7300    1.6090    0.0000 C   0  0  0  0  0  0  0  0  0  0  0  0
    3.2800    1.9270    0.0000 C   0  0  3  0  0  0  0  0  0  0  0  0
    4.4330    0.9620    0.0000 C   0  0  0  0  0  0  0  0  0  0  0  0
    5.8030    1.4290    0.0000 C   0  0  2  0  0  0  0  0  0  0  0  0
    6.3110    0.0160    0.0000 O   0  0  0  0  0  0  0  0  0  0  0  0
    6.0830    2.8730    0.0000 C   0  0  0  0  0  0  0  0  0  0  0  0
    5.0190    3.8340    0.0000 N   0  0  3  0  0  0  0  0  0  0  0  0
    3.6010    3.3420    0.0000 C   0  0  0  0  0  0  0  0  0  0  0  0
    4.9780    5.4590    0.0000 C   0  0  0  0  0  0  0  0  0  0  0  0
    3.5000    5.9550    0.0000 C   0  0  0  0  0  0  0  0  0  0  0  0
    2.2290    5.2860    0.0000 C   0  0  0  0  0  0  0  0  0  0  0  0
    1.2040    4.2800    0.0000 C   0  0  0  0  0  0  0  0  0  0  0  0
   -0.1050    4.8660    0.0000 N   0  0  0  0  0  0  0  0  0  0  0  0
    0.0550    6.3730    0.0000 C   0  0  0  0  0  0  0  0  0  0  0  0
    1.5030    6.6710    0.0000 C   0  0  0  0  0  0  0  0  0  0  0  0
    2.0010    8.0920    0.0000 C   0  0  0  0  0  0  0  0  0  0  0  0
    1.0020    9.2170    0.0000 C   0  0  0  0  0  0  0  0  0  0  0  0
   -0.4630    8.9190    0.0000 C   0  0  0  0  0  0  0  0  0  0  0  0
   -0.9460    7.4900    0.0000 C   0  0  0  0  0  0  0  0  0  0  0  0
    7.2900    1.1600    0.0000 C   0  0  0  0  0  0  0  0  0  0  0  0
    8.2780    2.2640    0.0000 C   0  0  0  0  0  0  0  0  0  0  0  0
    0.0440    1.5860    0.0000 C   0  0  0  0  0  0  0  0  0  0  0  0
   -1.4880    1.6670    0.0000 O   0  0  0  0  0  0  0  0  0  0  0  0
   -2.5170    2.2060    0.0000 C   0  0  0  0  0  0  0  0  0  0  0  0
    0.8220    0.3080    0.0000 O   0  0  0  0  0  0  0  0  0  0  0  0
   -5.7300   -0.1080    0.0000 C   0  0  0  0  0  0  0  0  0  0  0  0
  1  2  1  0  0  0  0
  1  3  1  0  0  0  0
  3  4  1  0  0  0  0
  3 28  2  0  0  0  0
  4  5  2  0  0  0  0
  5  6  1  0  0  0  0
  5 26  1  0  0  0  0
  6 55  1  0  0  0  0
  7  6  1  1  0  0  0
  7  8  1  0  0  0  0
  7 19  1  0  0  0  0
  8  9  1  0  0  0  0
  8 25  1  6  0  0  0
  8 26  1  0  0  0  0
  9 10  1  6  0  0  0
  9 14  1  0  0  0  0
 10 11  1  0  0  0  0
 10 24  1  0  0  0  0
 11 12  1  0  0  0  0
 12 13  2  0  0  0  0
 13 14  1  0  0  0  0
 14 15  1  1  0  0  0
 14 17  1  0  0  0  0
 15 16  1  0  0  0  0
 17 18  1  6  0  0  0
 17 19  1  0  0  0  0
 19 20  1  6  0  0  0
 19 21  1  1  0  0  0
 21 22  2  0  0  0  0
 21 23  1  0  0  0  0
 24 25  1  0  0  0  0
 26 27  2  0  0  0  0
 27 28  1  0  0  0  0
 29 28  1  6  0  0  0
 29 30  1  0  0  0  0
 29 41  1  0  0  0  0
 29 51  1  1  0  0  0
 30 31  1  0  0  0  0
 31 32  1  0  0  0  0
 31 37  1  0  0  0  0
 32 33  1  0  0  0  0
 33 34  1  1  0  0  0
 33 35  1  0  0  0  0
 33 49  1  6  0  0  0
 35 36  1  0  0  0  0
 36 37  1  0  0  0  0
 36 38  1  0  0  0  0
 38 39  1  0  0  0  0
 39 40  1  0  0  0  0
 40 41  2  0  0  0  0
 40 44  1  0  0  0  0
 41 42  1  0  0  0  0
 42 43  1  0  0  0  0
 43 44  2  0  0  0  0
 43 48  1  0  0  0  0
 44 45  1  0  0  0  0
 45 46  2  0  0  0  0
 46 47  1  0  0  0  0
 47 48  2  0  0  0  0
 49 50  1  0  0  0  0
 51 52  1  0  0  0  0
 51 54  2  0  0  0  0
 52 53  1  0  0  0  0
M  END
>  <Index>
1146

>  <ID>
HT2183

>  <class>
0

>  <apol>
123.46761

>  <ast_fraglike>
0

>  <ast_fraglike_ext>
0

>  <ast_violation>
3

>  <ast_violation_ext>
5

>  <a_acc>
8

>  <a_acid>
0

>  <a_aro>
15

>  <a_base>
0

>  <a_count>
110

>  <a_don>
5

>  <a_donacc>
13

>  <a_heavy>
55

>  <a_hyd>
41

>  <a_IC>
163.38428

>  <a_ICM>
1.4853116

>  <a_nB>
0

>  <a_nBr>
0

>  <a_nC>
43

>  <a_nCl>
0

>  <a_nF>
0

>  <a_nH>
55

>  <a_nI>
0

>  <a_nN>
5

>  <a_nO>
7

>  <a_nP>
0

>  <a_nS>
0

>  <balabanJ>
1.2143962

>  <BCUT_PEOE_0>
-2.8503358

>  <BCUT_PEOE_1>
-0.57900131

>  <BCUT_PEOE_2>
0.57151961

>  <BCUT_PEOE_3>
2.9739282

>  <BCUT_SLOGP_0>
-3.0000474

>  <BCUT_SLOGP_1>
-0.49743858

>  <BCUT_SLOGP_2>
0.59840232

>  <BCUT_SLOGP_3>
2.8884504

>  <BCUT_SMR_0>
-2.6134365

>  <BCUT_SMR_1>
-0.40129027

>  <BCUT_SMR_2>
0.725124

>  <BCUT_SMR_3>
3.2181289

>  <bpol>
71.814384

>  <b_1rotN>
6

>  <b_1rotR>
0.095238097

>  <b_ar>
16

>  <b_count>
118

>  <b_double>
3

>  <b_heavy>
63

>  <b_max1len>
5

>  <b_rotN>
7

>  <b_rotR>
0.11111111

>  <b_single>
99

>  <b_triple>
0

>  <chi0>
38.871304

>  <chi0v>
32.600002

>  <chi0v_C>
27.206377

>  <chi0_C>
29.017933

>  <chi1>
26.288862

>  <chi1v>
20.003628

>  <chi1v_C>
14.108191

>  <chi1_C>
16.313663

>  <chiral>
9

>  <chiral_u>
1

>  <density>
0.73484486

>  <diameter>
14

>  <FCharge>
0

>  <GCUT_PEOE_0>
-0.85614431

>  <GCUT_PEOE_1>
-0.41099617

>  <GCUT_PEOE_2>
0.039999578

>  <GCUT_PEOE_3>
3.7034247

>  <GCUT_SLOGP_0>
-1.3708395

>  <GCUT_SLOGP_1>
-0.33301857

>  <GCUT_SLOGP_2>
0.066856354

>  <GCUT_SLOGP_3>
3.7109458

>  <GCUT_SMR_0>
-0.52964073

>  <GCUT_SMR_1>
-0.19853754

>  <GCUT_SMR_2>
0.15625942

>  <GCUT_SMR_3>
3.9522612

>  <Kier1>
40.408165

>  <Kier2>
14.29786

>  <Kier3>
5.4289112

>  <KierA1>
33.700077

>  <KierA2>
11.8825

>  <KierA3>
4.50069

>  <KierFlex>
7.2807484

>  <lip_acc>
12

>  <lip_don>
6

>  <lip_druglike>
0

>  <lip_violation>
3

>  <logP(o/w)>
3.5829999

>  <logS>
-6.1345601

>  <mr>
20.553038

>  <mutagenic>
0

>  <nmol>
1

>  <opr_brigid>
45

>  <opr_leadlike>
0

>  <opr_nring>
8

>  <opr_nrot>
12

>  <opr_violation>
5

>  <PC+>
0

>  <PC->
0

>  <PEOE_PC+>
4.7052631

>  <PEOE_PC->
-4.7052631

>  <PEOE_RPC+>
0.059178472

>  <PEOE_RPC->
0.082346618

>  <PEOE_VSA+0>
284.37637

>  <PEOE_VSA+1>
79.850655

>  <PEOE_VSA+2>
4.9049287

>  <PEOE_VSA+3>
25.857038

>  <PEOE_VSA+4>
30.972517

>  <PEOE_VSA+5>
27.65803

>  <PEOE_VSA+6>
0

>  <PEOE_VSA-0>
116.62836

>  <PEOE_VSA-1>
98.769875

>  <PEOE_VSA-2>
0

>  <PEOE_VSA-3>
0

>  <PEOE_VSA-4>
0

>  <PEOE_VSA-5>
27.133842

>  <PEOE_VSA-6>
35.098145

>  <PEOE_VSA_FHYD>
0.83471787

>  <PEOE_VSA_FNEG>
0.37966537

>  <PEOE_VSA_FPNEG>
0.085103594

>  <PEOE_VSA_FPOL>
0.16528215

>  <PEOE_VSA_FPOS>
0.62033463

>  <PEOE_VSA_FPPOS>
0.080178551

>  <PEOE_VSA_HYD>
610.38721

>  <PEOE_VSA_NEG>
277.63022

>  <PEOE_VSA_PNEG>
62.231987

>  <PEOE_VSA_POL>
120.86253

>  <PEOE_VSA_POS>
453.61954

>  <PEOE_VSA_PPOS>
58.630547

>  <petitjean>
0.5

>  <petitjeanSC>
1

>  <Q_PC+>
0

>  <Q_PC->
0

>  <Q_RPC+>
0

>  <Q_RPC->
0

>  <Q_VSA_FHYD>
1

>  <Q_VSA_FNEG>
0

>  <Q_VSA_FPNEG>
0

>  <Q_VSA_FPOL>
0

>  <Q_VSA_FPOS>
1

>  <Q_VSA_FPPOS>
0

>  <Q_VSA_HYD>
731.24976

>  <Q_VSA_NEG>
0

>  <Q_VSA_PNEG>
0

>  <Q_VSA_POL>
0

>  <Q_VSA_POS>
731.24976

>  <Q_VSA_PPOS>
0

>  <radius>
7

>  <reactive>
0

>  <rings>
9

>  <RPC+>
0

>  <RPC->
0

>  <rsynth>
0.27272728

>  <SlogP>
2.7323699

>  <SlogP_VSA0>
123.17707

>  <SlogP_VSA1>
19.252876

>  <SlogP_VSA2>
89.942436

>  <SlogP_VSA3>
92.197891

>  <SlogP_VSA4>
16.724268

>  <SlogP_VSA5>
122.53333

>  <SlogP_VSA6>
0

>  <SlogP_VSA7>
145.86258

>  <SlogP_VSA8>
94.342026

>  <SlogP_VSA9>
74.652206

>  <SMR>
20.80595

>  <SMR_VSA0>
58.724319

>  <SMR_VSA1>
93.404198

>  <SMR_VSA2>
24.320639

>  <SMR_VSA3>
31.989487

>  <SMR_VSA4>
40.371037

>  <SMR_VSA5>
254.35591

>  <SMR_VSA6>
105.20214

>  <SMR_VSA7>
170.31696

>  <TPSA>
164.82001

>  <VAdjEq>
0.24981998

>  <VAdjMa>
6.9772801

>  <VDistEq>
3.6172116

>  <VDistMa>
11.352941

>  <vdw_area>
731.24976

>  <vdw_vol>
1025.9866

>  <vsa_acc>
29.637598

>  <vsa_acid>
0

>  <vsa_base>
0

>  <vsa_don>
23.425066

>  <vsa_hyd>
548.30719

>  <vsa_other>
30.161787

>  <vsa_pol>
93.763428

>  <Weight>
753.94098

>  <weinerPath>
9633

>  <weinerPol>
134

>  <zagreb>
332

$$$$