O1C(C)C(O)C(O)CC1OC1CC(O)(Cc2c1c(O)c1c(C(=O)c3c(C1=O)c(OC)ccc3)c2O)C(=O)CO
  MOE2013           2D

 39 43  0  0  1  0  0  0  0  0999 V2000
    0.0000    0.0000    0.0000 O   0  0  0  0  0  0  0  0  0  0  0  0
    1.5000    0.0100    0.0000 C   0  0  3  0  0  0  0  0  0  0  0  0
    2.2590   -1.2840    0.0000 C   0  0  0  0  0  0  0  0  0  0  0  0
    2.2410    1.3140    0.0000 C   0  0  3  0  0  0  0  0  0  0  0  0
    3.7410    1.3240    0.0000 O   0  0  0  0  0  0  0  0  0  0  0  0
    1.4820    2.6080    0.0000 C   0  0  3  0  0  0  0  0  0  0  0  0
    2.2230    3.9120    0.0000 O   0  0  0  0  0  0  0  0  0  0  0  0
   -0.0180    2.5980    0.0000 C   0  0  0  0  0  0  0  0  0  0  0  0
   -0.7590    1.2940    0.0000 C   0  0  3  0  0  0  0  0  0  0  0  0
   -2.2590    1.2840    0.0000 O   0  0  0  0  0  0  0  0  0  0  0  0
   -3.0180    2.5780    0.0000 C   0  0  3  0  0  0  0  0  0  0  0  0
   -2.2760    3.8820    0.0000 C   0  0  0  0  0  0  0  0  0  0  0  0
   -3.0350    5.1760    0.0000 C   0  0  3  0  0  0  0  0  0  0  0  0
   -1.7410    5.9340    0.0000 O   0  0  0  0  0  0  0  0  0  0  0  0
   -4.5350    5.1650    0.0000 C   0  0  0  0  0  0  0  0  0  0  0  0
   -5.2760    3.8610    0.0000 C   0  0  0  0  0  0  0  0  0  0  0  0
   -4.5180    2.5670    0.0000 C   0  0  0  0  0  0  0  0  0  0  0  0
   -5.2590    1.2630    0.0000 C   0  0  0  0  0  0  0  0  0  0  0  0
   -4.5000   -0.0310    0.0000 O   0  0  0  0  0  0  0  0  0  0  0  0
   -6.7590    1.2530    0.0000 C   0  0  0  0  0  0  0  0  0  0  0  0
   -7.5170    2.5470    0.0000 C   0  0  0  0  0  0  0  0  0  0  0  0
   -9.0170    2.5370    0.0000 C   0  0  0  0  0  0  0  0  0  0  0  0
   -9.7760    3.8310    0.0000 O   0  0  0  0  0  0  0  0  0  0  0  0
   -9.7590    1.2330    0.0000 C   0  0  0  0  0  0  0  0  0  0  0  0
   -9.0000   -0.0610    0.0000 C   0  0  0  0  0  0  0  0  0  0  0  0
   -7.5000   -0.0510    0.0000 C   0  0  0  0  0  0  0  0  0  0  0  0
   -6.7410   -1.3450    0.0000 O   0  0  0  0  0  0  0  0  0  0  0  0
   -9.7410   -1.3650    0.0000 C   0  0  0  0  0  0  0  0  0  0  0  0
   -8.9820   -2.6590    0.0000 O   0  0  0  0  0  0  0  0  0  0  0  0
   -9.7230   -3.9630    0.0000 C   0  0  0  0  0  0  0  0  0  0  0  0
  -11.2410   -1.3750    0.0000 C   0  0  0  0  0  0  0  0  0  0  0  0
  -12.0000   -0.0820    0.0000 C   0  0  0  0  0  0  0  0  0  0  0  0
  -11.2590    1.2230    0.0000 C   0  0  0  0  0  0  0  0  0  0  0  0
   -6.7760    3.8510    0.0000 C   0  0  0  0  0  0  0  0  0  0  0  0
   -7.5350    5.1450    0.0000 O   0  0  0  0  0  0  0  0  0  0  0  0
   -3.0450    6.6760    0.0000 C   0  0  0  0  0  0  0  0  0  0  0  0
   -4.3500    7.4170    0.0000 O   0  0  0  0  0  0  0  0  0  0  0  0
   -1.7520    7.4340    0.0000 C   0  0  0  0  0  0  0  0  0  0  0  0
   -1.7620    8.9340    0.0000 O   0  0  0  0  0  0  0  0  0  0  0  0
  1  2  1  0  0  0  0
  1  9  1  0  0  0  0
  2  3  1  0  0  0  0
  2  4  1  0  0  0  0
  4  5  1  0  0  0  0
  4  6  1  0  0  0  0
  6  7  1  0  0  0  0
  6  8  1  0  0  0  0
  8  9  1  0  0  0  0
  9 10  1  0  0  0  0
 10 11  1  0  0  0  0
 11 12  1  0  0  0  0
 11 17  1  0  0  0  0
 12 13  1  0  0  0  0
 13 14  1  0  0  0  0
 13 15  1  0  0  0  0
 13 36  1  0  0  0  0
 15 16  1  0  0  0  0
 16 17  1  0  0  0  0
 16 34  2  0  0  0  0
 17 18  2  0  0  0  0
 18 19  1  0  0  0  0
 18 20  1  0  0  0  0
 20 21  2  0  0  0  0
 20 26  1  0  0  0  0
 21 22  1  0  0  0  0
 21 34  1  0  0  0  0
 22 23  2  0  0  0  0
 22 24  1  0  0  0  0
 24 25  1  0  0  0  0
 24 33  2  0  0  0  0
 25 26  1  0  0  0  0
 25 28  2  0  0  0  0
 26 27  2  0  0  0  0
 28 29  1  0  0  0  0
 28 31  1  0  0  0  0
 29 30  1  0  0  0  0
 31 32  2  0  0  0  0
 32 33  1  0  0  0  0
 34 35  1  0  0  0  0
 36 37  2  0  0  0  0
 36 38  1  0  0  0  0
 38 39  1  0  0  0  0
M  END
>  <Index>
1398

>  <ID>
HT3923

>  <class>
0

>  <apol>
75.814201

>  <ast_fraglike>
0

>  <ast_fraglike_ext>
0

>  <ast_violation>
3

>  <ast_violation_ext>
5

>  <a_acc>
12

>  <a_acid>
0

>  <a_aro>
12

>  <a_base>
0

>  <a_count>
67

>  <a_don>
6

>  <a_donacc>
18

>  <a_heavy>
39

>  <a_hyd>
23

>  <a_IC>
100.42052

>  <a_ICM>
1.4988139

>  <a_nB>
0

>  <a_nBr>
0

>  <a_nC>
27

>  <a_nCl>
0

>  <a_nF>
0

>  <a_nH>
28

>  <a_nI>
0

>  <a_nN>
0

>  <a_nO>
12

>  <a_nP>
0

>  <a_nS>
0

>  <balabanJ>
1.4874921

>  <BCUT_PEOE_0>
-2.7353961

>  <BCUT_PEOE_1>
-0.6050446

>  <BCUT_PEOE_2>
0.66056019

>  <BCUT_PEOE_3>
2.7720587

>  <BCUT_SLOGP_0>
-2.8354287

>  <BCUT_SLOGP_1>
-0.5948168

>  <BCUT_SLOGP_2>
0.5766657

>  <BCUT_SLOGP_3>
2.7505026

>  <BCUT_SMR_0>
-2.5193965

>  <BCUT_SMR_1>
-0.45078903

>  <BCUT_SMR_2>
0.78014976

>  <BCUT_SMR_3>
2.9829113

>  <bpol>
39.231796

>  <b_1rotN>
5

>  <b_1rotR>
0.11627907

>  <b_ar>
12

>  <b_count>
71

>  <b_double>
3

>  <b_heavy>
43

>  <b_max1len>
6

>  <b_rotN>
5

>  <b_rotR>
0.11627907

>  <b_single>
56

>  <b_triple>
0

>  <chi0>
28.386023

>  <chi0v>
21.08

>  <chi0v_C>
15.947229

>  <chi0_C>
17.264702

>  <chi1>
18.427776

>  <chi1v>
12.336667

>  <chi1v_C>
8.6656675

>  <chi1_C>
10.43087

>  <chiral>
6

>  <chiral_u>
6

>  <density>
0.83099782

>  <diameter>
14

>  <FCharge>
0

>  <GCUT_PEOE_0>
-0.79498768

>  <GCUT_PEOE_1>
-0.44137377

>  <GCUT_PEOE_2>
0.093408853

>  <GCUT_PEOE_3>
3.0540159

>  <GCUT_SLOGP_0>
-0.94628066

>  <GCUT_SLOGP_1>
-0.39459354

>  <GCUT_SLOGP_2>
0.01006744

>  <GCUT_SLOGP_3>
3.0859485

>  <GCUT_SMR_0>
-0.52454668

>  <GCUT_SMR_1>
-0.23993687

>  <GCUT_SMR_2>
0.1955059

>  <GCUT_SMR_3>
3.2940836

>  <Kier1>
30.457544

>  <Kier2>
11.588773

>  <Kier3>
5.1278634

>  <KierA1>
24.961258

>  <KierA2>
9.4452286

>  <KierA3>
4.1628561

>  <KierFlex>
6.0452514

>  <lip_acc>
12

>  <lip_don>
6

>  <lip_druglike>
0

>  <lip_violation>
3

>  <logP(o/w)>
0.72899997

>  <logS>
-3.9356999

>  <mr>
13.077154

>  <mutagenic>
0

>  <nmol>
1

>  <opr_brigid>
27

>  <opr_leadlike>
0

>  <opr_nring>
5

>  <opr_nrot>
8

>  <opr_violation>
4

>  <PC+>
0

>  <PC->
0

>  <PEOE_PC+>
4.3434529

>  <PEOE_PC->
-4.3434529

>  <PEOE_RPC+>
0.050041482

>  <PEOE_RPC->
0.08955539

>  <PEOE_VSA+0>
93.90715

>  <PEOE_VSA+1>
102.16599

>  <PEOE_VSA+2>
19.856222

>  <PEOE_VSA+3>
36.530468

>  <PEOE_VSA+4>
61.945034

>  <PEOE_VSA+5>
0

>  <PEOE_VSA+6>
0

>  <PEOE_VSA-0>
33.211121

>  <PEOE_VSA-1>
24.509808

>  <PEOE_VSA-2>
0

>  <PEOE_VSA-3>
0

>  <PEOE_VSA-4>
0

>  <PEOE_VSA-5>
40.700764

>  <PEOE_VSA-6>
54.116508

>  <PEOE_VSA_FHYD>
0.66427958

>  <PEOE_VSA_FNEG>
0.3266741

>  <PEOE_VSA_FPNEG>
0.2030596

>  <PEOE_VSA_FPOL>
0.33572039

>  <PEOE_VSA_FPOS>
0.6733259

>  <PEOE_VSA_FPPOS>
0.13266079

>  <PEOE_VSA_HYD>
310.18076

>  <PEOE_VSA_NEG>
152.53821

>  <PEOE_VSA_PNEG>
94.817276

>  <PEOE_VSA_POL>
156.76231

>  <PEOE_VSA_POS>
314.40485

>  <PEOE_VSA_PPOS>
61.945034

>  <petitjean>
0.5

>  <petitjeanSC>
1

>  <Q_PC+>
0

>  <Q_PC->
0

>  <Q_RPC+>
0

>  <Q_RPC->
0

>  <Q_VSA_FHYD>
1

>  <Q_VSA_FNEG>
0

>  <Q_VSA_FPNEG>
0

>  <Q_VSA_FPOL>
0

>  <Q_VSA_FPOS>
1

>  <Q_VSA_FPPOS>
0

>  <Q_VSA_HYD>
466.94305

>  <Q_VSA_NEG>
0

>  <Q_VSA_PNEG>
0

>  <Q_VSA_POL>
0

>  <Q_VSA_POS>
466.94305

>  <Q_VSA_PPOS>
0

>  <radius>
7

>  <reactive>
1

>  <rings>
5

>  <RPC+>
0

>  <RPC->
0

>  <rsynth>
0.58974361

>  <SlogP>
0.13037001

>  <SlogP_VSA0>
163.31125

>  <SlogP_VSA1>
17.062834

>  <SlogP_VSA2>
73.794441

>  <SlogP_VSA3>
20.926258

>  <SlogP_VSA4>
66.837883

>  <SlogP_VSA5>
54.252274

>  <SlogP_VSA6>
0

>  <SlogP_VSA7>
52.929554

>  <SlogP_VSA8>
44.20546

>  <SlogP_VSA9>
49.056297

>  <SMR>
12.98968

>  <SMR_VSA0>
93.586426

>  <SMR_VSA1>
163.31125

>  <SMR_VSA2>
0

>  <SMR_VSA3>
69.244835

>  <SMR_VSA4>
0

>  <SMR_VSA5>
109.53477

>  <SMR_VSA6>
37.98909

>  <SMR_VSA7>
68.709885

>  <TPSA>
200.28

>  <VAdjEq>
0.31356117

>  <VAdjMa>
6.4262648

>  <VDistEq>
3.5642774

>  <VDistMa>
10.328881

>  <vdw_area>
466.94305

>  <vdw_vol>
655.24719

>  <vsa_acc>
48.212032

>  <vsa_acid>
0

>  <vsa_base>
0

>  <vsa_don>
0

>  <vsa_hyd>
254.43719

>  <vsa_other>
40.084057

>  <vsa_pol>
129.61356

>  <Weight>
544.50897

>  <weinerPath>
4392

>  <weinerPol>
83

>  <zagreb>
220

$$$$