O1C(C)C(OC2OC(C)C(OC(=O)CC(C)C)C(O)(C2)C)C(N(C)C)C(OC(=O)CC)C1OC1C(OC)C(OC(=O)C)CC(OC(C/C=CC=CC(O)C(CC1CC=O)C)C)=O
  MOE2013           2D

 62 64  0  0  1  0  0  0  0  0999 V2000
    0.0000    0.0000    0.0000 O   0  0  0  0  0  0  0  0  0  0  0  0
    1.5000    0.0110    0.0000 C   0  0  3  0  0  0  0  0  0  0  0  0
    2.4560    1.1670    0.0000 C   0  0  0  0  0  0  0  0  0  0  0  0
    2.2590   -1.2830    0.0000 C   0  0  3  0  0  0  0  0  0  0  0  0
    3.7590   -1.2720    0.0000 O   0  0  0  0  0  0  0  0  0  0  0  0
    4.5000    0.0330    0.0000 C   0  0  3  0  0  0  0  0  0  0  0  0
    6.0000    0.0440    0.0000 O   0  0  0  0  0  0  0  0  0  0  0  0
    6.7400    1.3480    0.0000 C   0  0  3  0  0  0  0  0  0  0  0  0
    8.2400    1.3590    0.0000 C   0  0  0  0  0  0  0  0  0  0  0  0
    5.9810    2.6420    0.0000 C   0  0  3  0  0  0  0  0  0  0  0  0
    6.7210    3.9460    0.0000 O   0  0  0  0  0  0  0  0  0  0  0  0
    8.2210    3.9570    0.0000 C   0  0  0  0  0  0  0  0  0  0  0  0
    8.9810    2.6640    0.0000 O   0  0  0  0  0  0  0  0  0  0  0  0
    8.9620    5.2620    0.0000 C   0  0  0  0  0  0  0  0  0  0  0  0
   10.4620    5.2720    0.0000 C   0  0  0  0  0  0  0  0  0  0  0  0
   11.2210    3.9790    0.0000 C   0  0  0  0  0  0  0  0  0  0  0  0
   11.2020    6.5770    0.0000 C   0  0  0  0  0  0  0  0  0  0  0  0
    4.4810    2.6310    0.0000 C   0  0  3  0  0  0  0  0  0  0  0  0
    3.1770    3.3710    0.0000 O   0  0  0  0  0  0  0  0  0  0  0  0
    3.7400    1.3260    0.0000 C   0  0  0  0  0  0  0  0  0  0  0  0
    4.4700    4.1310    0.0000 C   0  0  0  0  0  0  0  0  0  0  0  0
    1.5190   -2.5870    0.0000 C   0  0  3  0  0  0  0  0  0  0  0  0
    2.2780   -3.8810    0.0000 N   0  0  0  0  0  0  0  0  0  0  0  0
    3.7780   -3.8700    0.0000 C   0  0  0  0  0  0  0  0  0  0  0  0
    1.5380   -5.1850    0.0000 C   0  0  0  0  0  0  0  0  0  0  0  0
    0.0190   -2.5980    0.0000 C   0  0  3  0  0  0  0  0  0  0  0  0
   -0.7220   -3.9020    0.0000 O   0  0  0  0  0  0  0  0  0  0  0  0
   -2.2220   -3.9130    0.0000 C   0  0  0  0  0  0  0  0  0  0  0  0
   -2.9810   -2.6200    0.0000 O   0  0  0  0  0  0  0  0  0  0  0  0
   -2.9620   -5.2180    0.0000 C   0  0  0  0  0  0  0  0  0  0  0  0
   -2.2030   -6.5110    0.0000 C   0  0  0  0  0  0  0  0  0  0  0  0
   -0.7410   -1.3040    0.0000 C   0  0  3  0  0  0  0  0  0  0  0  0
   -2.2400   -1.3150    0.0000 O   0  0  0  0  0  0  0  0  0  0  0  0
   -3.3090   -0.2620    0.0000 C   0  0  3  0  0  0  0  0  0  0  0  0
   -2.8470    1.0000    0.0000 C   0  0  3  0  0  0  0  0  0  0  0  0
   -1.3480    1.0530    0.0000 O   0  0  0  0  0  0  0  0  0  0  0  0
   -0.6440    2.3770    0.0000 C   0  0  0  0  0  0  0  0  0  0  0  0
   -3.4530    2.3520    0.0000 C   0  0  3  0  0  0  0  0  0  0  0  0
   -2.0050    1.9600    0.0000 O   0  0  0  0  0  0  0  0  0  0  0  0
   -0.9420    3.0190    0.0000 C   0  0  0  0  0  0  0  0  0  0  0  0
    0.5060    2.6270    0.0000 O   0  0  0  0  0  0  0  0  0  0  0  0
   -1.3260    4.4680    0.0000 C   0  0  0  0  0  0  0  0  0  0  0  0
   -2.6160    3.5750    0.0000 C   0  0  0  0  0  0  0  0  0  0  0  0
   -2.8480    4.8990    0.0000 C   0  0  0  0  0  0  0  0  0  0  0  0
   -3.7130    5.9600    0.0000 O   0  0  0  0  0  0  0  0  0  0  0  0
   -5.1550    6.1240    0.0000 C   0  0  3  0  0  0  0  0  0  0  0  0
   -6.1380    5.0160    0.0000 C   0  0  0  0  0  0  0  0  0  0  0  0
   -7.6260    5.3110    0.0000 C   0  0  0  0  0  0  0  0  0  0  0  0
   -8.5670    4.1050    0.0000 C   0  0  0  0  0  0  0  0  0  0  0  0
   -7.9460    2.7420    0.0000 C   0  0  0  0  0  0  0  0  0  0  0  0
   -8.7980    1.5100    0.0000 C   0  0  0  0  0  0  0  0  0  0  0  0
   -8.0820    0.1570    0.0000 C   0  0  3  0  0  0  0  0  0  0  0  0
   -8.8400   -1.1370    0.0000 O   0  0  0  0  0  0  0  0  0  0  0  0
   -6.5670    0.1920    0.0000 C   0  0  3  0  0  0  0  0  0  0  0  0
   -5.7920   -1.0710    0.0000 C   0  0  0  0  0  0  0  0  0  0  0  0
   -4.3430   -1.1590    0.0000 C   0  0  3  0  0  0  0  0  0  0  0  0
   -3.8620   -2.5800    0.0000 C   0  0  0  0  0  0  0  0  0  0  0  0
   -4.8520   -3.7070    0.0000 C   0  0  0  0  0  0  0  0  0  0  0  0
   -6.3230   -3.4130    0.0000 O   0  0  0  0  0  0  0  0  0  0  0  0
   -5.8490    1.5090    0.0000 C   0  0  0  0  0  0  0  0  0  0  0  0
   -5.6910    7.5250    0.0000 C   0  0  0  0  0  0  0  0  0  0  0  0
   -1.4830    5.5230    0.0000 O   0  0  0  0  0  0  0  0  0  0  0  0
  1  2  1  0  0  0  0
  1 32  1  0  0  0  0
  2  3  1  0  0  0  0
  2  4  1  0  0  0  0
  4  5  1  0  0  0  0
  4 22  1  0  0  0  0
  5  6  1  0  0  0  0
  6  7  1  0  0  0  0
  6 20  1  0  0  0  0
  7  8  1  0  0  0  0
  8  9  1  0  0  0  0
  8 10  1  0  0  0  0
 10 11  1  0  0  0  0
 10 18  1  0  0  0  0
 11 12  1  0  0  0  0
 12 13  2  0  0  0  0
 12 14  1  0  0  0  0
 14 15  1  0  0  0  0
 15 16  1  0  0  0  0
 15 17  1  0  0  0  0
 18 19  1  0  0  0  0
 18 20  1  0  0  0  0
 18 21  1  0  0  0  0
 22 23  1  0  0  0  0
 22 26  1  0  0  0  0
 23 24  1  0  0  0  0
 23 25  1  0  0  0  0
 26 27  1  0  0  0  0
 26 32  1  0  0  0  0
 27 28  1  0  0  0  0
 28 29  2  0  0  0  0
 28 30  1  0  0  0  0
 30 31  1  0  0  0  0
 32 33  1  0  0  0  0
 33 34  1  0  0  0  0
 34 35  1  0  0  0  0
 34 56  1  0  0  0  0
 35 36  1  0  0  0  0
 35 38  1  0  0  0  0
 36 37  1  0  0  0  0
 38 39  1  0  0  0  0
 38 43  1  0  0  0  0
 39 40  1  0  0  0  0
 40 41  2  0  0  0  0
 40 42  1  0  0  0  0
 43 44  1  0  0  0  0
 44 45  1  0  0  0  0
 44 62  2  0  0  0  0
 45 46  1  0  0  0  0
 46 47  1  0  0  0  0
 46 61  1  0  0  0  0
 47 48  1  0  0  0  0
 48 49  2  3  0  0  0
 49 50  1  0  0  0  0
 50 51  2  3  0  0  0
 51 52  1  0  0  0  0
 52 53  1  0  0  0  0
 52 54  1  0  0  0  0
 54 55  1  0  0  0  0
 54 60  1  0  0  0  0
 55 56  1  0  0  0  0
 56 57  1  0  0  0  0
 57 58  1  0  0  0  0
 58 59  2  0  0  0  0
M  END
>  <Index>
1191

>  <ID>
HT2374

>  <class>
0

>  <apol>
141.80789

>  <ast_fraglike>
0

>  <ast_fraglike_ext>
0

>  <ast_violation>
3

>  <ast_violation_ext>
5

>  <a_acc>
13

>  <a_acid>
0

>  <a_aro>
0

>  <a_base>
0

>  <a_count>
135

>  <a_don>
2

>  <a_donacc>
15

>  <a_heavy>
62

>  <a_hyd>
38

>  <a_IC>
192.37952

>  <a_ICM>
1.4250335

>  <a_nB>
0

>  <a_nBr>
0

>  <a_nC>
45

>  <a_nCl>
0

>  <a_nF>
0

>  <a_nH>
73

>  <a_nI>
0

>  <a_nN>
1

>  <a_nO>
16

>  <a_nP>
0

>  <a_nS>
0

>  <balabanJ>
2.0710099

>  <BCUT_PEOE_0>
-2.8113358

>  <BCUT_PEOE_1>
-0.4169848

>  <BCUT_PEOE_2>
0.50806534

>  <BCUT_PEOE_3>
2.841614

>  <BCUT_SLOGP_0>
-2.9504874

>  <BCUT_SLOGP_1>
-0.37278798

>  <BCUT_SLOGP_2>
0.48970151

>  <BCUT_SLOGP_3>
2.768805

>  <BCUT_SMR_0>
-2.590657

>  <BCUT_SMR_1>
-0.32395384

>  <BCUT_SMR_2>
0.59797007

>  <BCUT_SMR_3>
3.047893

>  <bpol>
103.81811

>  <b_1rotN>
14

>  <b_1rotR>
0.21875

>  <b_ar>
0

>  <b_count>
137

>  <b_double>
7

>  <b_heavy>
64

>  <b_max1len>
4

>  <b_rotN>
17

>  <b_rotR>
0.265625

>  <b_single>
130

>  <b_triple>
0

>  <chi0>
46.473598

>  <chi0v>
38.631222

>  <chi0v_C>
31.574102

>  <chi0_C>
32.532288

>  <chi1>
29.110739

>  <chi1v>
21.85717

>  <chi1v_C>
14.881665

>  <chi1_C>
15.881518

>  <chiral>
16

>  <chiral_u>
16

>  <density>
0.73887306

>  <diameter>
23

>  <FCharge>
0

>  <GCUT_PEOE_0>
-0.85198379

>  <GCUT_PEOE_1>
-0.36226246

>  <GCUT_PEOE_2>
0.041048676

>  <GCUT_PEOE_3>
3.4699037

>  <GCUT_SLOGP_0>
-0.9683302

>  <GCUT_SLOGP_1>
-0.29409724

>  <GCUT_SLOGP_2>
0.021478036

>  <GCUT_SLOGP_3>
3.4333804

>  <GCUT_SMR_0>
-0.53327018

>  <GCUT_SMR_1>
-0.16981649

>  <GCUT_SMR_2>
0.11888414

>  <GCUT_SMR_3>
3.6724112

>  <Kier1>
56.32373

>  <Kier2>
27.111111

>  <Kier3>
17.553719

>  <KierA1>
50.939659

>  <KierA2>
24.478014

>  <KierA3>
15.830459

>  <KierFlex>
20.111319

>  <lip_acc>
17

>  <lip_don>
2

>  <lip_druglike>
0

>  <lip_violation>
2

>  <logP(o/w)>
4.3282199

>  <logS>
-5.9754701

>  <mr>
22.868547

>  <mutagenic>
0

>  <nmol>
1

>  <opr_brigid>
28

>  <opr_leadlike>
0

>  <opr_nring>
2

>  <opr_nrot>
31

>  <opr_violation>
3

>  <PC+>
0

>  <PC->
0

>  <PEOE_PC+>
6.1993141

>  <PEOE_PC->
-6.1993141

>  <PEOE_RPC+>
0.04274771

>  <PEOE_RPC->
0.062505923

>  <PEOE_VSA+0>
291.81989

>  <PEOE_VSA+1>
121.67963

>  <PEOE_VSA+2>
47.294914

>  <PEOE_VSA+3>
22.309816

>  <PEOE_VSA+4>
20.648346

>  <PEOE_VSA+5>
58.833996

>  <PEOE_VSA+6>
0

>  <PEOE_VSA-0>
138.87071

>  <PEOE_VSA-1>
124.01032

>  <PEOE_VSA-2>
0

>  <PEOE_VSA-3>
0

>  <PEOE_VSA-4>
0

>  <PEOE_VSA-5>
54.267685

>  <PEOE_VSA-6>
51.635807

>  <PEOE_VSA_FHYD>
0.80095387

>  <PEOE_VSA_FNEG>
0.39595872

>  <PEOE_VSA_FPNEG>
0.11370708

>  <PEOE_VSA_FPOL>
0.19904615

>  <PEOE_VSA_FPOS>
0.60404128

>  <PEOE_VSA_FPPOS>
0.085339069

>  <PEOE_VSA_HYD>
745.98529

>  <PEOE_VSA_NEG>
368.78455

>  <PEOE_VSA_PNEG>
105.90349

>  <PEOE_VSA_POL>
185.38583

>  <PEOE_VSA_POS>
562.58661

>  <PEOE_VSA_PPOS>
79.482346

>  <petitjean>
0.47826087

>  <petitjeanSC>
0.91666669

>  <Q_PC+>
0

>  <Q_PC->
0

>  <Q_RPC+>
0

>  <Q_RPC->
0

>  <Q_VSA_FHYD>
1

>  <Q_VSA_FNEG>
0

>  <Q_VSA_FPNEG>
0

>  <Q_VSA_FPOL>
0

>  <Q_VSA_FPOS>
1

>  <Q_VSA_FPPOS>
0

>  <Q_VSA_HYD>
931.37115

>  <Q_VSA_NEG>
0

>  <Q_VSA_PNEG>
0

>  <Q_VSA_POL>
0

>  <Q_VSA_POS>
931.37115

>  <Q_VSA_PPOS>
0

>  <radius>
12

>  <reactive>
1

>  <rings>
3

>  <RPC+>
0

>  <RPC->
0

>  <rsynth>
0.66129035

>  <SlogP>
3.9742999

>  <SlogP_VSA0>
50.770454

>  <SlogP_VSA1>
34.106171

>  <SlogP_VSA2>
324.17676

>  <SlogP_VSA3>
0

>  <SlogP_VSA4>
13.232388

>  <SlogP_VSA5>
101.17825

>  <SlogP_VSA6>
0

>  <SlogP_VSA7>
70.572739

>  <SlogP_VSA8>
132.07884

>  <SlogP_VSA9>
299.93414

>  <SMR>
22.40156

>  <SMR_VSA0>
218.31007

>  <SMR_VSA1>
53.894768

>  <SMR_VSA2>
13.232388

>  <SMR_VSA3>
85.721466

>  <SMR_VSA4>
0

>  <SMR_VSA5>
202.65158

>  <SMR_VSA6>
30.981857

>  <SMR_VSA7>
421.2576

>  <TPSA>
212.12

>  <VAdjEq>
0.21067376

>  <VAdjMa>
7

>  <VDistEq>
4.190361

>  <VDistMa>
11.666289

>  <vdw_area>
931.37115

>  <vdw_vol>
1196.5114

>  <vsa_acc>
80.353386

>  <vsa_acid>
0

>  <vsa_base>
0

>  <vsa_don>
0

>  <vsa_hyd>
639.93719

>  <vsa_other>
120.32449

>  <vsa_pol>
107.48723

>  <Weight>
884.07001

>  <weinerPath>
16556

>  <weinerPol>
104

>  <zagreb>
308

$$$$