S1N(C)C(=O)C=C1
  MOE2013           2D

  7  7  0  0  0  0  0  0  0  0999 V2000
    0.0000    0.0000    0.0000 S   0  0  0  0  0  0  0  0  0  0  0  0
   -1.4270   -0.4640    0.0000 N   0  0  0  0  0  0  0  0  0  0  0  0
   -2.6400    0.4180    0.0000 C   0  0  0  0  0  0  0  0  0  0  0  0
   -1.4270   -1.9640    0.0000 C   0  0  0  0  0  0  0  0  0  0  0  0
   -2.6400   -2.8450    0.0000 O   0  0  0  0  0  0  0  0  0  0  0  0
    0.0000   -2.4270    0.0000 C   0  0  0  0  0  0  0  0  0  0  0  0
    0.8820   -1.2140    0.0000 C   0  0  0  0  0  0  0  0  0  0  0  0
  1  2  1  0  0  0  0
  1  7  1  0  0  0  0
  2  3  1  0  0  0  0
  2  4  1  0  0  0  0
  4  5  2  0  0  0  0
  4  6  1  0  0  0  0
  6  7  2  0  0  0  0
M  END
>  <Index>
1207

>  <ID>
HT2470

>  <class>
0

>  <apol>
15.175965

>  <ast_fraglike>
1

>  <ast_fraglike_ext>
1

>  <ast_violation>
0

>  <ast_violation_ext>
0

>  <a_acc>
1

>  <a_acid>
0

>  <a_aro>
0

>  <a_base>
0

>  <a_count>
12

>  <a_don>
0

>  <a_donacc>
1

>  <a_heavy>
7

>  <a_hyd>
3

>  <a_IC>
23.40991

>  <a_ICM>
1.9508258

>  <a_nB>
0

>  <a_nBr>
0

>  <a_nC>
4

>  <a_nCl>
0

>  <a_nF>
0

>  <a_nH>
5

>  <a_nI>
0

>  <a_nN>
1

>  <a_nO>
1

>  <a_nP>
0

>  <a_nS>
1

>  <balabanJ>
2.3906417

>  <BCUT_PEOE_0>
-2.2958159

>  <BCUT_PEOE_1>
-0.49994349

>  <BCUT_PEOE_2>
0.4509522

>  <BCUT_PEOE_3>
2.3336055

>  <BCUT_SLOGP_0>
-2.3822086

>  <BCUT_SLOGP_1>
-0.40841684

>  <BCUT_SLOGP_2>
0.54018706

>  <BCUT_SLOGP_3>
2.3690846

>  <BCUT_SMR_0>
-1.9884427

>  <BCUT_SMR_1>
-0.24400926

>  <BCUT_SMR_2>
0.71152633

>  <BCUT_SMR_3>
2.6925094

>  <bpol>
10.684035

>  <b_1rotN>
0

>  <b_1rotR>
0

>  <b_ar>
0

>  <b_count>
12

>  <b_double>
2

>  <b_heavy>
7

>  <b_max1len>
2

>  <b_rotN>
0

>  <b_rotR>
0

>  <b_single>
10

>  <b_triple>
0

>  <chi0>
5.276021

>  <chi0v>
4.7349072

>  <chi0v_C>
2.6547005

>  <chi0_C>
2.9915638

>  <chi1>
3.3045304

>  <chi1v>
2.7517824

>  <chi1v_C>
0.62200844

>  <chi1_C>
0.90824831

>  <chiral>
0

>  <chiral_u>
0

>  <density>
0.86687022

>  <diameter>
3

>  <FCharge>
0

>  <GCUT_PEOE_0>
-0.81555539

>  <GCUT_PEOE_1>
-0.40648454

>  <GCUT_PEOE_2>
-0.0086240796

>  <GCUT_PEOE_3>
1.827877

>  <GCUT_SLOGP_0>
-0.93273681

>  <GCUT_SLOGP_1>
-0.32275444

>  <GCUT_SLOGP_2>
0.110833

>  <GCUT_SLOGP_3>
1.8870951

>  <GCUT_SMR_0>
-0.47837383

>  <GCUT_SMR_1>
-0.17918965

>  <GCUT_SMR_2>
0.25283757

>  <GCUT_SMR_3>
2.1620469

>  <Kier1>
5.1428571

>  <Kier2>
1.8518518

>  <Kier3>
0.95999998

>  <KierA1>
4.5998559

>  <KierA2>
1.620793

>  <KierA3>
0.82008433

>  <KierFlex>
1.0650591

>  <lip_acc>
2

>  <lip_don>
0

>  <lip_druglike>
1

>  <lip_violation>
0

>  <logP(o/w)>
0.43799999

>  <logS>
-1.18233

>  <mr>
2.9865658

>  <mutagenic>
0

>  <nmol>
1

>  <opr_brigid>
5

>  <opr_leadlike>
1

>  <opr_nring>
1

>  <opr_nrot>
0

>  <opr_violation>
0

>  <PC+>
0

>  <PC->
0

>  <PEOE_PC+>
0.56846237

>  <PEOE_PC->
-0.56846237

>  <PEOE_RPC+>
0.45317355

>  <PEOE_RPC->
0.49608341

>  <PEOE_VSA+0>
48.289749

>  <PEOE_VSA+1>
8.5307722

>  <PEOE_VSA+2>
0

>  <PEOE_VSA+3>
0

>  <PEOE_VSA+4>
0

>  <PEOE_VSA+5>
12.949531

>  <PEOE_VSA+6>
0

>  <PEOE_VSA-0>
37.584393

>  <PEOE_VSA-1>
0

>  <PEOE_VSA-2>
0

>  <PEOE_VSA-3>
0

>  <PEOE_VSA-4>
0

>  <PEOE_VSA-5>
13.566921

>  <PEOE_VSA-6>
0

>  <PEOE_VSA_FHYD>
0.78071326

>  <PEOE_VSA_FNEG>
0.42301303

>  <PEOE_VSA_FPNEG>
0.11219622

>  <PEOE_VSA_FPOL>
0.21928674

>  <PEOE_VSA_FPOS>
0.57698697

>  <PEOE_VSA_FPPOS>
0.10709051

>  <PEOE_VSA_HYD>
94.404915

>  <PEOE_VSA_NEG>
51.151314

>  <PEOE_VSA_PNEG>
13.566921

>  <PEOE_VSA_POL>
26.516451

>  <PEOE_VSA_POS>
69.770058

>  <PEOE_VSA_PPOS>
12.949531

>  <petitjean>
0.33333334

>  <petitjeanSC>
0.5

>  <Q_PC+>
0

>  <Q_PC->
0

>  <Q_RPC+>
0

>  <Q_RPC->
0

>  <Q_VSA_FHYD>
1

>  <Q_VSA_FNEG>
0

>  <Q_VSA_FPNEG>
0

>  <Q_VSA_FPOL>
0

>  <Q_VSA_FPOS>
1

>  <Q_VSA_FPPOS>
0

>  <Q_VSA_HYD>
120.92137

>  <Q_VSA_NEG>
0

>  <Q_VSA_PNEG>
0

>  <Q_VSA_POL>
0

>  <Q_VSA_POS>
120.92137

>  <Q_VSA_PPOS>
0

>  <radius>
2

>  <reactive>
0

>  <rings>
1

>  <RPC+>
0

>  <RPC->
0

>  <rsynth>
1

>  <SlogP>
0.62029999

>  <SlogP_VSA0>
0

>  <SlogP_VSA1>
6.7773442

>  <SlogP_VSA2>
23.862217

>  <SlogP_VSA3>
0

>  <SlogP_VSA4>
0

>  <SlogP_VSA5>
32.897186

>  <SlogP_VSA6>
0

>  <SlogP_VSA7>
33.651527

>  <SlogP_VSA8>
0

>  <SlogP_VSA9>
31.981016

>  <SMR>
2.9502001

>  <SMR_VSA0>
23.862217

>  <SMR_VSA1>
1.5185606

>  <SMR_VSA2>
0

>  <SMR_VSA3>
0

>  <SMR_VSA4>
0

>  <SMR_VSA5>
33.651527

>  <SMR_VSA6>
5.2587838

>  <SMR_VSA7>
64.878204

>  <TPSA>
20.309999

>  <VAdjEq>
0.86312056

>  <VAdjMa>
3.8073549

>  <VDistEq>
1.5451531

>  <VDistMa>
5.2775674

>  <vdw_area>
120.92137

>  <vdw_vol>
132.84111

>  <vsa_acc>
13.566921

>  <vsa_acid>
0

>  <vsa_base>
0

>  <vsa_don>
0

>  <vsa_hyd>
67.492516

>  <vsa_other>
36.302959

>  <vsa_pol>
13.566921

>  <Weight>
115.156

>  <weinerPath>
40

>  <weinerPol>
5

>  <zagreb>
32

$$$$