OC(C(N(CC=Cc1ccccc1)C)C)c1ccccc1
  MOE2013           2D

 21 22  0  0  1  0  0  0  0  0999 V2000
    0.0000    0.0000    0.0000 O   0  0  0  0  0  0  0  0  0  0  0  0
    0.0100   -1.5000    0.0000 C   0  0  3  0  0  0  0  0  0  0  0  0
    1.3140   -2.2410    0.0000 C   0  0  3  0  0  0  0  0  0  0  0  0
    2.6080   -1.4820    0.0000 N   0  0  3  0  0  0  0  0  0  0  0  0
    3.9120   -2.2240    0.0000 C   0  0  0  0  0  0  0  0  0  0  0  0
    5.2060   -1.4650    0.0000 C   0  0  0  0  0  0  0  0  0  0  0  0
    6.5100   -2.2060    0.0000 C   0  0  0  0  0  0  0  0  0  0  0  0
    7.8040   -1.4470    0.0000 C   0  0  0  0  0  0  0  0  0  0  0  0
    7.7940    0.0530    0.0000 C   0  0  0  0  0  0  0  0  0  0  0  0
    9.0880    0.8120    0.0000 C   0  0  0  0  0  0  0  0  0  0  0  0
   10.3920    0.0710    0.0000 C   0  0  0  0  0  0  0  0  0  0  0  0
   10.4020   -1.4290    0.0000 C   0  0  0  0  0  0  0  0  0  0  0  0
    9.1080   -2.1880    0.0000 C   0  0  0  0  0  0  0  0  0  0  0  0
    2.5980    0.0180    0.0000 C   0  0  0  0  0  0  0  0  0  0  0  0
    1.3240   -3.7410    0.0000 C   0  0  0  0  0  0  0  0  0  0  0  0
   -1.2840   -2.2590    0.0000 C   0  0  0  0  0  0  0  0  0  0  0  0
   -2.5880   -1.5180    0.0000 C   0  0  0  0  0  0  0  0  0  0  0  0
   -3.8820   -2.2760    0.0000 C   0  0  0  0  0  0  0  0  0  0  0  0
   -3.8720   -3.7760    0.0000 C   0  0  0  0  0  0  0  0  0  0  0  0
   -2.5670   -4.5180    0.0000 C   0  0  0  0  0  0  0  0  0  0  0  0
   -1.2740   -3.7590    0.0000 C   0  0  0  0  0  0  0  0  0  0  0  0
  1  2  1  0  0  0  0
  2  3  1  0  0  0  0
  2 16  1  0  0  0  0
  3  4  1  0  0  0  0
  3 15  1  0  0  0  0
  4  5  1  0  0  0  0
  4 14  1  0  0  0  0
  5  6  1  0  0  0  0
  6  7  2  3  0  0  0
  7  8  1  0  0  0  0
  8  9  1  0  0  0  0
  8 13  2  0  0  0  0
  9 10  2  0  0  0  0
 10 11  1  0  0  0  0
 11 12  2  0  0  0  0
 12 13  1  0  0  0  0
 16 17  1  0  0  0  0
 16 21  2  0  0  0  0
 17 18  2  0  0  0  0
 18 19  1  0  0  0  0
 19 20  2  0  0  0  0
 20 21  1  0  0  0  0
M  END
>  <Index>
1304

>  <ID>
HT3245

>  <class>
0

>  <apol>
50.678238

>  <ast_fraglike>
0

>  <ast_fraglike_ext>
0

>  <ast_violation>
1

>  <ast_violation_ext>
2

>  <a_acc>
2

>  <a_acid>
0

>  <a_aro>
12

>  <a_base>
0

>  <a_count>
44

>  <a_don>
1

>  <a_donacc>
3

>  <a_heavy>
21

>  <a_hyd>
19

>  <a_IC>
55.462444

>  <a_ICM>
1.2605101

>  <a_nB>
0

>  <a_nBr>
0

>  <a_nC>
19

>  <a_nCl>
0

>  <a_nF>
0

>  <a_nH>
23

>  <a_nI>
0

>  <a_nN>
1

>  <a_nO>
1

>  <a_nP>
0

>  <a_nS>
0

>  <balabanJ>
1.6493498

>  <BCUT_PEOE_0>
-2.6746588

>  <BCUT_PEOE_1>
-0.63249558

>  <BCUT_PEOE_2>
0.68976182

>  <BCUT_PEOE_3>
2.6093564

>  <BCUT_SLOGP_0>
-2.7215562

>  <BCUT_SLOGP_1>
-0.53807992

>  <BCUT_SLOGP_2>
0.76582122

>  <BCUT_SLOGP_3>
2.6138949

>  <BCUT_SMR_0>
-2.4036198

>  <BCUT_SMR_1>
-0.49042207

>  <BCUT_SMR_2>
0.83424515

>  <BCUT_SMR_3>
2.8702745

>  <bpol>
27.12376

>  <b_1rotN>
6

>  <b_1rotR>
0.27272728

>  <b_ar>
12

>  <b_count>
45

>  <b_double>
1

>  <b_heavy>
22

>  <b_max1len>
7

>  <b_rotN>
6

>  <b_rotR>
0.27272728

>  <b_single>
32

>  <b_triple>
0

>  <chi0>
15.07914

>  <chi0v>
12.684438

>  <chi0v_C>
11.79001

>  <chi0_C>
13.501789

>  <chi1>
10.18154

>  <chi1v>
7.330822

>  <chi1v_C>
6.0509825

>  <chi1_C>
8.2852583

>  <chiral>
2

>  <chiral_u>
2

>  <density>
0.64634228

>  <diameter>
13

>  <FCharge>
0

>  <GCUT_PEOE_0>
-0.849388

>  <GCUT_PEOE_1>
-0.3880839

>  <GCUT_PEOE_2>
0.079614662

>  <GCUT_PEOE_3>
2.5969408

>  <GCUT_SLOGP_0>
-0.95287961

>  <GCUT_SLOGP_1>
-0.26386139

>  <GCUT_SLOGP_2>
0.15575852

>  <GCUT_SLOGP_3>
2.6704903

>  <GCUT_SMR_0>
-0.52190793

>  <GCUT_SMR_1>
-0.21177956

>  <GCUT_SMR_2>
0.18961634

>  <GCUT_SMR_3>
2.8613427

>  <Kier1>
17.355371

>  <Kier2>
9.2091837

>  <Kier3>
5.6055365

>  <KierA1>
13.097578

>  <KierA2>
6.8442225

>  <KierA3>
4.117116

>  <KierFlex>
4.268702

>  <lip_acc>
2

>  <lip_don>
1

>  <lip_druglike>
1

>  <lip_violation>
0

>  <logP(o/w)>
4.276

>  <logS>
-3.6547201

>  <mr>
8.89855

>  <mutagenic>
0

>  <nmol>
1

>  <opr_brigid>
13

>  <opr_leadlike>
1

>  <opr_nring>
2

>  <opr_nrot>
6

>  <opr_violation>
0

>  <PC+>
0

>  <PC->
0

>  <PEOE_PC+>
1.5006052

>  <PEOE_PC->
-1.5006052

>  <PEOE_RPC+>
0.14014304

>  <PEOE_RPC->
0.25698501

>  <PEOE_VSA+0>
54.726761

>  <PEOE_VSA+1>
60.354946

>  <PEOE_VSA+2>
0

>  <PEOE_VSA+3>
0

>  <PEOE_VSA+4>
10.324173

>  <PEOE_VSA+5>
0

>  <PEOE_VSA+6>
0

>  <PEOE_VSA-0>
46.403446

>  <PEOE_VSA-1>
147.05885

>  <PEOE_VSA-2>
0

>  <PEOE_VSA-3>
0

>  <PEOE_VSA-4>
0

>  <PEOE_VSA-5>
0

>  <PEOE_VSA-6>
7.7675405

>  <PEOE_VSA_FHYD>
0.94461197

>  <PEOE_VSA_FNEG>
0.61606807

>  <PEOE_VSA_FPNEG>
0.023780437

>  <PEOE_VSA_FPOL>
0.055388045

>  <PEOE_VSA_FPOS>
0.38393193

>  <PEOE_VSA_FPPOS>
0.031607606

>  <PEOE_VSA_HYD>
308.54401

>  <PEOE_VSA_NEG>
201.22983

>  <PEOE_VSA_PNEG>
7.7675405

>  <PEOE_VSA_POL>
18.091713

>  <PEOE_VSA_POS>
125.40588

>  <PEOE_VSA_PPOS>
10.324173

>  <petitjean>
0.46153846

>  <petitjeanSC>
0.85714287

>  <Q_PC+>
0

>  <Q_PC->
0

>  <Q_RPC+>
0

>  <Q_RPC->
0

>  <Q_VSA_FHYD>
1

>  <Q_VSA_FNEG>
0

>  <Q_VSA_FPNEG>
0

>  <Q_VSA_FPOL>
0

>  <Q_VSA_FPOS>
1

>  <Q_VSA_FPPOS>
0

>  <Q_VSA_HYD>
326.63571

>  <Q_VSA_NEG>
0

>  <Q_VSA_PNEG>
0

>  <Q_VSA_POL>
0

>  <Q_VSA_POS>
326.63571

>  <Q_VSA_PPOS>
0

>  <radius>
7

>  <reactive>
0

>  <rings>
2

>  <RPC+>
0

>  <RPC->
0

>  <rsynth>
1

>  <SlogP>
3.8492

>  <SlogP_VSA0>
25.385227

>  <SlogP_VSA1>
3.1243138

>  <SlogP_VSA2>
3.9819686

>  <SlogP_VSA3>
18.439579

>  <SlogP_VSA4>
6.37115

>  <SlogP_VSA5>
32.897186

>  <SlogP_VSA6>
0

>  <SlogP_VSA7>
194.07503

>  <SlogP_VSA8>
24.111834

>  <SlogP_VSA9>
33.326015

>  <SMR>
8.9080801

>  <SMR_VSA0>
0

>  <SMR_VSA1>
28.509541

>  <SMR_VSA2>
0

>  <SMR_VSA3>
16.821768

>  <SMR_VSA4>
0

>  <SMR_VSA5>
194.07503

>  <SMR_VSA6>
36.082764

>  <SMR_VSA7>
66.223206

>  <TPSA>
23.469999

>  <VAdjEq>
0.46827638

>  <VAdjMa>
5.4594316

>  <VDistEq>
3.4734824

>  <VDistMa>
8.452713

>  <vdw_area>
326.63571

>  <vdw_vol>
435.37146

>  <vsa_acc>
0

>  <vsa_acid>
0

>  <vsa_base>
0

>  <vsa_don>
0

>  <vsa_hyd>
292.88449

>  <vsa_other>
0

>  <vsa_pol>
13.566921

>  <Weight>
281.39899

>  <weinerPath>
1088

>  <weinerPol>
28

>  <zagreb>
100

$$$$