O1C(COC(=O)C)C(OC(=O)C)C(OC(=O)C)C1N1N=CC(=O)NC1=O
  MOE2013           2D

 26 27  0  0  1  0  0  0  0  0999 V2000
    0.0000    0.0000    0.0000 O   0  0  0  0  0  0  0  0  0  0  0  0
   -1.2890   -0.7680    0.0000 C   0  0  3  0  0  0  0  0  0  0  0  0
   -2.6670   -0.1770    0.0000 C   0  0  0  0  0  0  0  0  0  0  0  0
   -2.8450    1.3130    0.0000 O   0  0  0  0  0  0  0  0  0  0  0  0
   -4.2230    1.9040    0.0000 C   0  0  0  0  0  0  0  0  0  0  0  0
   -4.4010    3.3930    0.0000 O   0  0  0  0  0  0  0  0  0  0  0  0
   -5.4240    1.0050    0.0000 C   0  0  0  0  0  0  0  0  0  0  0  0
   -0.9560   -2.2310    0.0000 C   0  0  3  0  0  0  0  0  0  0  0  0
   -1.9450   -3.3590    0.0000 O   0  0  0  0  0  0  0  0  0  0  0  0
   -3.4160   -3.0680    0.0000 C   0  0  0  0  0  0  0  0  0  0  0  0
   -3.8990   -1.6480    0.0000 O   0  0  0  0  0  0  0  0  0  0  0  0
   -4.4040   -4.1960    0.0000 C   0  0  0  0  0  0  0  0  0  0  0  0
    0.5370   -2.3670    0.0000 C   0  0  3  0  0  0  0  0  0  0  0  0
    1.3050   -3.6550    0.0000 O   0  0  0  0  0  0  0  0  0  0  0  0
    0.5730   -4.9650    0.0000 C   0  0  0  0  0  0  0  0  0  0  0  0
    1.3410   -6.2530    0.0000 O   0  0  0  0  0  0  0  0  0  0  0  0
   -0.9270   -4.9850    0.0000 C   0  0  0  0  0  0  0  0  0  0  0  0
    1.1280   -0.9880    0.0000 C   0  0  3  0  0  0  0  0  0  0  0  0
    2.5910   -0.6560    0.0000 N   0  0  0  0  0  0  0  0  0  0  0  0
    3.6100   -1.7570    0.0000 N   0  0  0  0  0  0  0  0  0  0  0  0
    5.0730   -1.4250    0.0000 C   0  0  0  0  0  0  0  0  0  0  0  0
    5.5170    0.0080    0.0000 C   0  0  0  0  0  0  0  0  0  0  0  0
    6.9800    0.3400    0.0000 O   0  0  0  0  0  0  0  0  0  0  0  0
    4.4980    1.1090    0.0000 N   0  0  0  0  0  0  0  0  0  0  0  0
    3.0350    0.7770    0.0000 C   0  0  0  0  0  0  0  0  0  0  0  0
    2.0160    1.8780    0.0000 O   0  0  0  0  0  0  0  0  0  0  0  0
  1  2  1  0  0  0  0
  1 18  1  0  0  0  0
  2  3  1  0  0  0  0
  2  8  1  0  0  0  0
  3  4  1  0  0  0  0
  4  5  1  0  0  0  0
  5  6  2  0  0  0  0
  5  7  1  0  0  0  0
  8  9  1  0  0  0  0
  8 13  1  0  0  0  0
  9 10  1  0  0  0  0
 10 11  2  0  0  0  0
 10 12  1  0  0  0  0
 13 14  1  0  0  0  0
 13 18  1  0  0  0  0
 14 15  1  0  0  0  0
 15 16  2  0  0  0  0
 15 17  1  0  0  0  0
 18 19  1  0  0  0  0
 19 20  1  0  0  0  0
 19 25  1  0  0  0  0
 20 21  2  0  0  0  0
 21 22  1  0  0  0  0
 22 23  2  0  0  0  0
 22 24  1  0  0  0  0
 24 25  1  0  0  0  0
 25 26  2  0  0  0  0
M  END
>  <Index>
1364

>  <ID>
HT3684

>  <class>
0

>  <apol>
46.493481

>  <ast_fraglike>
0

>  <ast_fraglike_ext>
0

>  <ast_violation>
2

>  <ast_violation_ext>
4

>  <a_acc>
7

>  <a_acid>
0

>  <a_aro>
0

>  <a_base>
0

>  <a_count>
43

>  <a_don>
1

>  <a_donacc>
8

>  <a_heavy>
26

>  <a_hyd>
7

>  <a_IC>
77.255333

>  <a_ICM>
1.7966357

>  <a_nB>
0

>  <a_nBr>
0

>  <a_nC>
14

>  <a_nCl>
0

>  <a_nF>
0

>  <a_nH>
17

>  <a_nI>
0

>  <a_nN>
3

>  <a_nO>
9

>  <a_nP>
0

>  <a_nS>
0

>  <balabanJ>
2.201807

>  <BCUT_PEOE_0>
-2.5240276

>  <BCUT_PEOE_1>
-0.46556953

>  <BCUT_PEOE_2>
0.396009

>  <BCUT_PEOE_3>
2.8050303

>  <BCUT_SLOGP_0>
-2.7407892

>  <BCUT_SLOGP_1>
-0.45841348

>  <BCUT_SLOGP_2>
0.50620562

>  <BCUT_SLOGP_3>
2.6002314

>  <BCUT_SMR_0>
-2.3376124

>  <BCUT_SMR_1>
-0.2691766

>  <BCUT_SMR_2>
0.5126791

>  <BCUT_SMR_3>
2.9862976

>  <bpol>
33.67852

>  <b_1rotN>
5

>  <b_1rotR>
0.18518518

>  <b_ar>
0

>  <b_count>
44

>  <b_double>
6

>  <b_heavy>
27

>  <b_max1len>
3

>  <b_rotN>
8

>  <b_rotR>
0.2962963

>  <b_single>
38

>  <b_triple>
0

>  <chi0>
19.430357

>  <chi0v>
14.16252

>  <chi0v_C>
9.0938578

>  <chi0_C>
9.6103659

>  <chi1>
12.184448

>  <chi1v>
7.5014052

>  <chi1v_C>
3.1969235

>  <chi1_C>
3.5485475

>  <chiral>
4

>  <chiral_u>
4

>  <density>
0.88514417

>  <diameter>
11

>  <FCharge>
0

>  <GCUT_PEOE_0>
-0.77856505

>  <GCUT_PEOE_1>
-0.46421444

>  <GCUT_PEOE_2>
0.071940899

>  <GCUT_PEOE_3>
2.7071519

>  <GCUT_SLOGP_0>
-1.1705097

>  <GCUT_SLOGP_1>
-0.47550568

>  <GCUT_SLOGP_2>
0.066890016

>  <GCUT_SLOGP_3>
2.5769334

>  <GCUT_SMR_0>
-0.52092606

>  <GCUT_SMR_1>
-0.20966072

>  <GCUT_SMR_2>
0.14226447

>  <GCUT_SMR_3>
2.910367

>  <Kier1>
22.29081

>  <Kier2>
9.9722996

>  <Kier3>
6.2608695

>  <KierA1>
17.103909

>  <KierA2>
7.5650072

>  <KierA3>
4.7108464

>  <KierFlex>
4.9765844

>  <lip_acc>
12

>  <lip_don>
1

>  <lip_druglike>
1

>  <lip_violation>
1

>  <logP(o/w)>
-0.85325998

>  <logS>
-1.69253

>  <mr>
8.2817135

>  <mutagenic>
0

>  <nmol>
1

>  <opr_brigid>
11

>  <opr_leadlike>
1

>  <opr_nring>
2

>  <opr_nrot>
6

>  <opr_violation>
1

>  <PC+>
0

>  <PC->
0

>  <PEOE_PC+>
3.197768

>  <PEOE_PC->
-3.197768

>  <PEOE_RPC+>
0.10879407

>  <PEOE_RPC->
0.10759377

>  <PEOE_VSA+0>
94.631508

>  <PEOE_VSA+1>
44.808994

>  <PEOE_VSA+2>
31.460701

>  <PEOE_VSA+3>
18.014954

>  <PEOE_VSA+4>
0

>  <PEOE_VSA+5>
57.075027

>  <PEOE_VSA+6>
17.440542

>  <PEOE_VSA-0>
0

>  <PEOE_VSA-1>
0

>  <PEOE_VSA-2>
0

>  <PEOE_VSA-3>
9.4210396

>  <PEOE_VSA-4>
13.566921

>  <PEOE_VSA-5>
54.404575

>  <PEOE_VSA-6>
10.015024

>  <PEOE_VSA_FHYD>
0.5653221

>  <PEOE_VSA_FNEG>
0.24913846

>  <PEOE_VSA_FPNEG>
0.2222856

>  <PEOE_VSA_FPOL>
0.43467793

>  <PEOE_VSA_FPOS>
0.75086153

>  <PEOE_VSA_FPPOS>
0.21239233

>  <PEOE_VSA_HYD>
198.3372

>  <PEOE_VSA_NEG>
87.407562

>  <PEOE_VSA_PNEG>
77.986519

>  <PEOE_VSA_POL>
152.50209

>  <PEOE_VSA_POS>
263.43173

>  <PEOE_VSA_PPOS>
74.515572

>  <petitjean>
0.45454547

>  <petitjeanSC>
0.83333331

>  <Q_PC+>
0

>  <Q_PC->
0

>  <Q_RPC+>
0

>  <Q_RPC->
0

>  <Q_VSA_FHYD>
1

>  <Q_VSA_FNEG>
0

>  <Q_VSA_FPNEG>
0

>  <Q_VSA_FPOL>
0

>  <Q_VSA_FPOS>
1

>  <Q_VSA_FPPOS>
0

>  <Q_VSA_HYD>
350.83929

>  <Q_VSA_NEG>
0

>  <Q_VSA_PNEG>
0

>  <Q_VSA_POL>
0

>  <Q_VSA_POS>
350.83929

>  <Q_VSA_PPOS>
0

>  <radius>
6

>  <reactive>
0

>  <rings>
2

>  <RPC+>
0

>  <RPC->
0

>  <rsynth>
1

>  <SlogP>
-1.3246

>  <SlogP_VSA0>
18.01075

>  <SlogP_VSA1>
36.326923

>  <SlogP_VSA2>
182.10854

>  <SlogP_VSA3>
20.926258

>  <SlogP_VSA4>
0

>  <SlogP_VSA5>
16.663008

>  <SlogP_VSA6>
0

>  <SlogP_VSA7>
0

>  <SlogP_VSA8>
0

>  <SlogP_VSA9>
123.84026

>  <SMR>
8.0271702

>  <SMR_VSA0>
163.31064

>  <SMR_VSA1>
19.664799

>  <SMR_VSA2>
18.01075

>  <SMR_VSA3>
25.44577

>  <SMR_VSA4>
0

>  <SMR_VSA5>
0

>  <SMR_VSA6>
54.251392

>  <SMR_VSA7>
117.1924

>  <TPSA>
149.89999

>  <VAdjEq>
0.40176207

>  <VAdjMa>
5.7548876

>  <VDistEq>
3.2209792

>  <VDistMa>
9.1570311

>  <vdw_area>
350.83929

>  <vdw_vol>
419.48193

>  <vsa_acc>
79.759399

>  <vsa_acid>
0

>  <vsa_base>
0

>  <vsa_don>
5.6825762

>  <vsa_hyd>
135.65938

>  <vsa_other>
115.27588

>  <vsa_pol>
85.441978

>  <Weight>
371.302

>  <weinerPath>
1594

>  <weinerPol>
38

>  <zagreb>
130

$$$$