Brc1cc(F)c(cc1)CN1C(=O)c2c(N(CC(O)=O)C1=O)cc(Cl)cc2
  MOE2013           2D

 26 28  0  0  0  0  0  0  0  0999 V2000
    0.0000    0.0000    0.0000 Br  0  0  0  0  0  0  0  0  0  0  0  0
   -1.3030   -0.7440    0.0000 C   0  0  0  0  0  0  0  0  0  0  0  0
   -1.3100   -2.2440    0.0000 C   0  0  0  0  0  0  0  0  0  0  0  0
   -2.6130   -2.9870    0.0000 C   0  0  0  0  0  0  0  0  0  0  0  0
   -2.6200   -4.4870    0.0000 F   0  0  0  0  0  0  0  0  0  0  0  0
   -3.9080   -2.2310    0.0000 C   0  0  0  0  0  0  0  0  0  0  0  0
   -3.9010   -0.7310    0.0000 C   0  0  0  0  0  0  0  0  0  0  0  0
   -2.5980    0.0130    0.0000 C   0  0  0  0  0  0  0  0  0  0  0  0
   -5.2110   -2.9740    0.0000 C   0  0  0  0  0  0  0  0  0  0  0  0
   -6.5060   -2.2180    0.0000 N   0  0  0  0  0  0  0  0  0  0  0  0
   -6.4990   -0.7180    0.0000 C   0  0  0  0  0  0  0  0  0  0  0  0
   -5.1960    0.0260    0.0000 O   0  0  0  0  0  0  0  0  0  0  0  0
   -7.7940    0.0390    0.0000 C   0  0  0  0  0  0  0  0  0  0  0  0
   -9.0970   -0.7050    0.0000 C   0  0  0  0  0  0  0  0  0  0  0  0
   -9.1040   -2.2050    0.0000 N   0  0  0  0  0  0  0  0  0  0  0  0
  -10.4070   -2.9480    0.0000 C   0  0  0  0  0  0  0  0  0  0  0  0
  -10.4150   -4.4480    0.0000 C   0  0  0  0  0  0  0  0  0  0  0  0
   -9.1190   -5.2050    0.0000 O   0  0  0  0  0  0  0  0  0  0  0  0
  -11.7170   -5.1920    0.0000 O   0  0  0  0  0  0  0  0  0  0  0  0
   -7.8090   -2.9610    0.0000 C   0  0  0  0  0  0  0  0  0  0  0  0
   -7.8170   -4.4610    0.0000 O   0  0  0  0  0  0  0  0  0  0  0  0
  -10.3920    0.0520    0.0000 C   0  0  0  0  0  0  0  0  0  0  0  0
  -10.3850    1.5520    0.0000 C   0  0  0  0  0  0  0  0  0  0  0  0
  -11.6800    2.3080    0.0000 Cl  0  0  0  0  0  0  0  0  0  0  0  0
   -9.0820    2.2950    0.0000 C   0  0  0  0  0  0  0  0  0  0  0  0
   -7.7870    1.5390    0.0000 C   0  0  0  0  0  0  0  0  0  0  0  0
  1  2  1  0  0  0  0
  2  3  1  0  0  0  0
  2  8  2  0  0  0  0
  3  4  2  0  0  0  0
  4  5  1  0  0  0  0
  4  6  1  0  0  0  0
  6  7  2  0  0  0  0
  6  9  1  0  0  0  0
  7  8  1  0  0  0  0
  9 10  1  0  0  0  0
 10 11  1  0  0  0  0
 10 20  1  0  0  0  0
 11 12  2  0  0  0  0
 11 13  1  0  0  0  0
 13 14  1  0  0  0  0
 13 26  2  0  0  0  0
 14 15  1  0  0  0  0
 14 22  2  0  0  0  0
 15 16  1  0  0  0  0
 15 20  1  0  0  0  0
 16 17  1  0  0  0  0
 17 18  1  0  0  0  0
 17 19  2  0  0  0  0
 20 21  2  0  0  0  0
 22 23  1  0  0  0  0
 23 24  1  0  0  0  0
 23 25  2  0  0  0  0
 25 26  1  0  0  0  0
M  END
>  <Index>
1162

>  <ID>
HT2210

>  <class>
0

>  <apol>
48.449722

>  <ast_fraglike>
0

>  <ast_fraglike_ext>
0

>  <ast_violation>
3

>  <ast_violation_ext>
4

>  <a_acc>
4

>  <a_acid>
0

>  <a_aro>
12

>  <a_base>
0

>  <a_count>
37

>  <a_don>
2

>  <a_donacc>
6

>  <a_heavy>
26

>  <a_hyd>
17

>  <a_IC>
75.20916

>  <a_ICM>
2.03268

>  <a_nB>
0

>  <a_nBr>
1

>  <a_nC>
17

>  <a_nCl>
1

>  <a_nF>
1

>  <a_nH>
11

>  <a_nI>
0

>  <a_nN>
2

>  <a_nO>
4

>  <a_nP>
0

>  <a_nS>
0

>  <balabanJ>
1.7680141

>  <BCUT_PEOE_0>
-2.4916615

>  <BCUT_PEOE_1>
-0.57809836

>  <BCUT_PEOE_2>
0.59942853

>  <BCUT_PEOE_3>
2.5156012

>  <BCUT_SLOGP_0>
-2.6360946

>  <BCUT_SLOGP_1>
-0.50777578

>  <BCUT_SLOGP_2>
0.84883642

>  <BCUT_SLOGP_3>
2.4918597

>  <BCUT_SMR_0>
-2.1905317

>  <BCUT_SMR_1>
-0.36886474

>  <BCUT_SMR_2>
0.85697818

>  <BCUT_SMR_3>
2.8102417

>  <bpol>
21.772278

>  <b_1rotN>
4

>  <b_1rotR>
0.14285715

>  <b_ar>
12

>  <b_count>
39

>  <b_double>
3

>  <b_heavy>
28

>  <b_max1len>
2

>  <b_rotN>
4

>  <b_rotR>
0.14285715

>  <b_single>
24

>  <b_triple>
0

>  <chi0>
19.007708

>  <chi0v>
15.42052

>  <chi0v_C>
9.378315

>  <chi0_C>
10.853006

>  <chi1>
12.273765

>  <chi1v>
8.533946

>  <chi1v_C>
4.4331746

>  <chi1_C>
6.0824828

>  <chiral>
0

>  <chiral_u>
0

>  <density>
0.9857071

>  <diameter>
12

>  <FCharge>
0

>  <GCUT_PEOE_0>
-0.78821391

>  <GCUT_PEOE_1>
-0.44109693

>  <GCUT_PEOE_2>
0.057018764

>  <GCUT_PEOE_3>
2.5694733

>  <GCUT_SLOGP_0>
-1.0038656

>  <GCUT_SLOGP_1>
-0.33231768

>  <GCUT_SLOGP_2>
0.26524934

>  <GCUT_SLOGP_3>
2.6219313

>  <GCUT_SMR_0>
-0.4770335

>  <GCUT_SMR_1>
-0.21586154

>  <GCUT_SMR_2>
0.338404

>  <GCUT_SMR_3>
2.8573344

>  <Kier1>
20.727041

>  <Kier2>
8.56633

>  <Kier3>
4.54321

>  <KierA1>
16.990753

>  <KierA2>
6.9629679

>  <KierA3>
3.6705544

>  <KierFlex>
4.5502338

>  <lip_acc>
6

>  <lip_don>
1

>  <lip_druglike>
1

>  <lip_violation>
0

>  <logP(o/w)>
3.812

>  <logS>
-5.6093202

>  <mr>
9.7218227

>  <mutagenic>
0

>  <nmol>
1

>  <opr_brigid>
17

>  <opr_leadlike>
1

>  <opr_nring>
3

>  <opr_nrot>
4

>  <opr_violation>
0

>  <PC+>
0

>  <PC->
0

>  <PEOE_PC+>
2.2043629

>  <PEOE_PC->
-2.2043629

>  <PEOE_RPC+>
0.15113108

>  <PEOE_RPC->
0.14966823

>  <PEOE_VSA+0>
8.9804935

>  <PEOE_VSA+1>
64.754272

>  <PEOE_VSA+2>
22.213171

>  <PEOE_VSA+3>
0

>  <PEOE_VSA+4>
10.324173

>  <PEOE_VSA+5>
27.65803

>  <PEOE_VSA+6>
17.440542

>  <PEOE_VSA-0>
61.274521

>  <PEOE_VSA-1>
85.4617

>  <PEOE_VSA-2>
0

>  <PEOE_VSA-3>
0

>  <PEOE_VSA-4>
25.475557

>  <PEOE_VSA-5>
27.133842

>  <PEOE_VSA-6>
7.7675405

>  <PEOE_VSA_FHYD>
0.67697376

>  <PEOE_VSA_FNEG>
0.57774752

>  <PEOE_VSA_FPNEG>
0.16842304

>  <PEOE_VSA_FPOL>
0.32302624

>  <PEOE_VSA_FPOS>
0.42225248

>  <PEOE_VSA_FPPOS>
0.15460318

>  <PEOE_VSA_HYD>
242.68416

>  <PEOE_VSA_NEG>
207.11316

>  <PEOE_VSA_PNEG>
60.376938

>  <PEOE_VSA_POL>
115.79968

>  <PEOE_VSA_POS>
151.37068

>  <PEOE_VSA_PPOS>
55.422745

>  <petitjean>
0.5

>  <petitjeanSC>
1

>  <Q_PC+>
0

>  <Q_PC->
0

>  <Q_RPC+>
0

>  <Q_RPC->
0

>  <Q_VSA_FHYD>
1

>  <Q_VSA_FNEG>
0

>  <Q_VSA_FPNEG>
0

>  <Q_VSA_FPOL>
0

>  <Q_VSA_FPOS>
1

>  <Q_VSA_FPPOS>
0

>  <Q_VSA_HYD>
358.48386

>  <Q_VSA_NEG>
0

>  <Q_VSA_PNEG>
0

>  <Q_VSA_POL>
0

>  <Q_VSA_POS>
358.48386

>  <Q_VSA_PPOS>
0

>  <radius>
6

>  <reactive>
0

>  <rings>
3

>  <RPC+>
0

>  <RPC->
0

>  <rsynth>
1

>  <SlogP>
4.1750002

>  <SlogP_VSA0>
3.1243138

>  <SlogP_VSA1>
20.958517

>  <SlogP_VSA2>
32.983234

>  <SlogP_VSA3>
43.824806

>  <SlogP_VSA4>
30.233366

>  <SlogP_VSA5>
3.0551045

>  <SlogP_VSA6>
3.5006065

>  <SlogP_VSA7>
105.85911

>  <SlogP_VSA8>
0

>  <SlogP_VSA9>
145.1214

>  <SMR>
9.6008301

>  <SMR_VSA0>
71.586647

>  <SMR_VSA1>
18.084427

>  <SMR_VSA2>
40.685661

>  <SMR_VSA3>
9.8717566

>  <SMR_VSA4>
2.7567475

>  <SMR_VSA5>
124.29868

>  <SMR_VSA6>
36.273781

>  <SMR_VSA7>
85.102737

>  <TPSA>
77.919998

>  <VAdjEq>
0.41210872

>  <VAdjMa>
5.8073549

>  <VDistEq>
3.2840712

>  <VDistMa>
9.1374836

>  <vdw_area>
358.48386

>  <vdw_vol>
448.04382

>  <vsa_acc>
27.133842

>  <vsa_acid>
0

>  <vsa_base>
0

>  <vsa_don>
0

>  <vsa_hyd>
247.47484

>  <vsa_other>
45.098572

>  <vsa_pol>
54.267685

>  <Weight>
441.63998

>  <weinerPath>
1572

>  <weinerPol>
45

>  <zagreb>
138

$$$$