Brc1ccc(cc1)C(OCCN(C)C)c1ccccc1
  MOE2013           2D

 20 21  0  0  1  0  0  0  0  0999 V2000
    0.0000    0.0000    0.0000 Br  0  0  0  0  0  0  0  0  0  0  0  0
   -1.5000   -0.0070    0.0000 C   0  0  0  0  0  0  0  0  0  0  0  0
   -2.2560    1.2890    0.0000 C   0  0  0  0  0  0  0  0  0  0  0  0
   -3.7560    1.2820    0.0000 C   0  0  0  0  0  0  0  0  0  0  0  0
   -4.5000   -0.0210    0.0000 C   0  0  0  0  0  0  0  0  0  0  0  0
   -3.7440   -1.3160    0.0000 C   0  0  0  0  0  0  0  0  0  0  0  0
   -2.2440   -1.3090    0.0000 C   0  0  0  0  0  0  0  0  0  0  0  0
   -6.0000   -0.0270    0.0000 C   0  0  3  0  0  0  0  0  0  0  0  0
   -6.7440   -1.3300    0.0000 O   0  0  0  0  0  0  0  0  0  0  0  0
   -8.2440   -1.3370    0.0000 C   0  0  0  0  0  0  0  0  0  0  0  0
   -8.9880   -2.6390    0.0000 C   0  0  0  0  0  0  0  0  0  0  0  0
  -10.4880   -2.6460    0.0000 N   0  0  0  0  0  0  0  0  0  0  0  0
  -11.2320   -3.9490    0.0000 C   0  0  0  0  0  0  0  0  0  0  0  0
  -11.2440   -1.3510    0.0000 C   0  0  0  0  0  0  0  0  0  0  0  0
   -6.7560    1.2680    0.0000 C   0  0  0  0  0  0  0  0  0  0  0  0
   -6.0120    2.5710    0.0000 C   0  0  0  0  0  0  0  0  0  0  0  0
   -6.7680    3.8660    0.0000 C   0  0  0  0  0  0  0  0  0  0  0  0
   -8.2680    3.8590    0.0000 C   0  0  0  0  0  0  0  0  0  0  0  0
   -9.0120    2.5570    0.0000 C   0  0  0  0  0  0  0  0  0  0  0  0
   -8.2560    1.2610    0.0000 C   0  0  0  0  0  0  0  0  0  0  0  0
  1  2  1  0  0  0  0
  2  3  1  0  0  0  0
  2  7  2  0  0  0  0
  3  4  2  0  0  0  0
  4  5  1  0  0  0  0
  5  6  2  0  0  0  0
  5  8  1  0  0  0  0
  6  7  1  0  0  0  0
  8  9  1  0  0  0  0
  8 15  1  0  0  0  0
  9 10  1  0  0  0  0
 10 11  1  0  0  0  0
 11 12  1  0  0  0  0
 12 13  1  0  0  0  0
 12 14  1  0  0  0  0
 15 16  1  0  0  0  0
 15 20  2  0  0  0  0
 16 17  2  0  0  0  0
 17 18  1  0  0  0  0
 18 19  2  0  0  0  0
 19 20  1  0  0  0  0
M  END
>  <Index>
159

>  <ID>
HT0312

>  <class>
0

>  <apol>
48.207859

>  <ast_fraglike>
0

>  <ast_fraglike_ext>
0

>  <ast_violation>
2

>  <ast_violation_ext>
3

>  <a_acc>
2

>  <a_acid>
0

>  <a_aro>
12

>  <a_base>
0

>  <a_count>
40

>  <a_don>
0

>  <a_donacc>
2

>  <a_heavy>
20

>  <a_hyd>
18

>  <a_IC>
56.951694

>  <a_ICM>
1.4237924

>  <a_nB>
0

>  <a_nBr>
1

>  <a_nC>
17

>  <a_nCl>
0

>  <a_nF>
0

>  <a_nH>
20

>  <a_nI>
0

>  <a_nN>
1

>  <a_nO>
1

>  <a_nP>
0

>  <a_nS>
0

>  <balabanJ>
1.8845631

>  <BCUT_PEOE_0>
-2.60992

>  <BCUT_PEOE_1>
-0.54595739

>  <BCUT_PEOE_2>
0.58216065

>  <BCUT_PEOE_3>
2.5207331

>  <BCUT_SLOGP_0>
-2.6995282

>  <BCUT_SLOGP_1>
-0.4168613

>  <BCUT_SLOGP_2>
0.80591482

>  <BCUT_SLOGP_3>
2.5464942

>  <BCUT_SMR_0>
-2.3353717

>  <BCUT_SMR_1>
-0.3899492

>  <BCUT_SMR_2>
0.85431087

>  <BCUT_SMR_3>
2.7829418

>  <bpol>
27.05014

>  <b_1rotN>
6

>  <b_1rotR>
0.2857143

>  <b_ar>
12

>  <b_count>
41

>  <b_double>
0

>  <b_heavy>
21

>  <b_max1len>
7

>  <b_rotN>
6

>  <b_rotR>
0.2857143

>  <b_single>
29

>  <b_triple>
0

>  <chi0>
14.372033

>  <chi0v>
13.507139

>  <chi0v_C>
10.687716

>  <chi0_C>
12.087576

>  <chi1>
9.6647034

>  <chi1v>
7.5264139

>  <chi1v_C>
4.809401

>  <chi1_C>
6.6161566

>  <chiral>
1

>  <chiral_u>
1

>  <density>
0.7891953

>  <diameter>
10

>  <FCharge>
0

>  <GCUT_PEOE_0>
-0.85888541

>  <GCUT_PEOE_1>
-0.37640744

>  <GCUT_PEOE_2>
0.0587603

>  <GCUT_PEOE_3>
2.5287097

>  <GCUT_SLOGP_0>
-0.95887941

>  <GCUT_SLOGP_1>
-0.26386139

>  <GCUT_SLOGP_2>
0.16445385

>  <GCUT_SLOGP_3>
2.6410544

>  <GCUT_SMR_0>
-0.51777399

>  <GCUT_SMR_1>
-0.17990111

>  <GCUT_SMR_2>
0.19305076

>  <GCUT_SMR_3>
2.8063829

>  <Kier1>
16.371881

>  <Kier2>
8.4444447

>  <Kier3>
5.3789062

>  <KierA1>
14.466724

>  <KierA2>
7.4104304

>  <KierA3>
4.6964722

>  <KierFlex>
5.3602328

>  <lip_acc>
2

>  <lip_don>
0

>  <lip_druglike>
1

>  <lip_violation>
0

>  <logP(o/w)>
4.5799999

>  <logS>
-4.2572598

>  <mr>
8.8158703

>  <mutagenic>
0

>  <nmol>
1

>  <opr_brigid>
12

>  <opr_leadlike>
1

>  <opr_nring>
2

>  <opr_nrot>
6

>  <opr_violation>
0

>  <PC+>
0

>  <PC->
0

>  <PEOE_PC+>
1.2778835

>  <PEOE_PC->
-1.2778835

>  <PEOE_RPC+>
0.085055135

>  <PEOE_RPC->
0.28646836

>  <PEOE_VSA+0>
49.567619

>  <PEOE_VSA+1>
66.135925

>  <PEOE_VSA+2>
4.9049287

>  <PEOE_VSA+3>
0

>  <PEOE_VSA+4>
0

>  <PEOE_VSA+5>
0

>  <PEOE_VSA+6>
0

>  <PEOE_VSA-0>
75.404266

>  <PEOE_VSA-1>
129.40918

>  <PEOE_VSA-2>
0

>  <PEOE_VSA-3>
0

>  <PEOE_VSA-4>
0

>  <PEOE_VSA-5>
0

>  <PEOE_VSA-6>
2.503756

>  <PEOE_VSA_FHYD>
0.99236488

>  <PEOE_VSA_FNEG>
0.63220787

>  <PEOE_VSA_FPNEG>
0.0076351329

>  <PEOE_VSA_FPOL>
0.0076351329

>  <PEOE_VSA_FPOS>
0.3677921

>  <PEOE_VSA_FPPOS>
0

>  <PEOE_VSA_HYD>
325.42191

>  <PEOE_VSA_NEG>
207.3172

>  <PEOE_VSA_PNEG>
2.503756

>  <PEOE_VSA_POL>
2.503756

>  <PEOE_VSA_POS>
120.60847

>  <PEOE_VSA_PPOS>
0

>  <petitjean>
0.5

>  <petitjeanSC>
1

>  <Q_PC+>
0

>  <Q_PC->
0

>  <Q_RPC+>
0

>  <Q_RPC->
0

>  <Q_VSA_FHYD>
1

>  <Q_VSA_FNEG>
0

>  <Q_VSA_FPNEG>
0

>  <Q_VSA_FPOL>
0

>  <Q_VSA_FPOS>
1

>  <Q_VSA_FPPOS>
0

>  <Q_VSA_HYD>
327.92566

>  <Q_VSA_NEG>
0

>  <Q_VSA_PNEG>
0

>  <Q_VSA_POL>
0

>  <Q_VSA_POS>
327.92566

>  <Q_VSA_PPOS>
0

>  <radius>
5

>  <reactive>
0

>  <rings>
2

>  <RPC+>
0

>  <RPC->
0

>  <rsynth>
1

>  <SlogP>
4.2122002

>  <SlogP_VSA0>
0

>  <SlogP_VSA1>
3.1243138

>  <SlogP_VSA2>
10.999887

>  <SlogP_VSA3>
39.365837

>  <SlogP_VSA4>
6.37115

>  <SlogP_VSA5>
68.84948

>  <SlogP_VSA6>
0

>  <SlogP_VSA7>
158.78867

>  <SlogP_VSA8>
6.4686494

>  <SlogP_VSA9>
45.954094

>  <SMR>
8.7044001

>  <SMR_VSA0>
10.999887

>  <SMR_VSA1>
3.1243138

>  <SMR_VSA2>
3.0551045

>  <SMR_VSA3>
12.839799

>  <SMR_VSA4>
0

>  <SMR_VSA5>
158.78867

>  <SMR_VSA6>
39.365837

>  <SMR_VSA7>
111.74847

>  <TPSA>
12.47

>  <VAdjEq>
0.48464775

>  <VAdjMa>
5.3923173

>  <VDistEq>
3.1379709

>  <VDistMa>
8.3612194

>  <vdw_area>
327.92566

>  <vdw_vol>
423.54156

>  <vsa_acc>
2.503756

>  <vsa_acid>
0

>  <vsa_base>
0

>  <vsa_don>
0

>  <vsa_hyd>
311.186

>  <vsa_other>
0

>  <vsa_pol>
2.503756

>  <Weight>
334.25699

>  <weinerPath>
851

>  <weinerPol>
26

>  <zagreb>
96

$$$$