S1C(Cc2ccc(OCC3(Oc4c(CC3)c(C)c(O)c(C)c4C)C)cc2)C(=O)NC1=O
  MOE2013           2D

 31 34  0  0  1  0  0  0  0  0999 V2000
    0.0000    0.0000    0.0000 S   0  0  0  0  0  0  0  0  0  0  0  0
   -0.1510   -1.4920    0.0000 C   0  0  3  0  0  0  0  0  0  0  0  0
   -1.4470   -2.2470    0.0000 C   0  0  0  0  0  0  0  0  0  0  0  0
   -2.7490   -1.5020    0.0000 C   0  0  0  0  0  0  0  0  0  0  0  0
   -2.7550   -0.0020    0.0000 C   0  0  0  0  0  0  0  0  0  0  0  0
   -4.0570    0.7430    0.0000 C   0  0  0  0  0  0  0  0  0  0  0  0
   -5.3530   -0.0120    0.0000 C   0  0  0  0  0  0  0  0  0  0  0  0
   -6.6550    0.7320    0.0000 O   0  0  0  0  0  0  0  0  0  0  0  0
   -7.9510   -0.0230    0.0000 C   0  0  0  0  0  0  0  0  0  0  0  0
   -9.2530    0.7220    0.0000 C   0  0  3  0  0  0  0  0  0  0  0  0
  -10.7530    0.7170    0.0000 O   0  0  0  0  0  0  0  0  0  0  0  0
  -11.5080    2.0130    0.0000 C   0  0  0  0  0  0  0  0  0  0  0  0
  -10.7630    3.3150    0.0000 C   0  0  0  0  0  0  0  0  0  0  0  0
   -9.2630    3.3200    0.0000 C   0  0  0  0  0  0  0  0  0  0  0  0
   -8.5080    2.0240    0.0000 C   0  0  0  0  0  0  0  0  0  0  0  0
  -11.5180    4.6110    0.0000 C   0  0  0  0  0  0  0  0  0  0  0  0
  -10.7730    5.9130    0.0000 C   0  0  0  0  0  0  0  0  0  0  0  0
  -13.0180    4.6050    0.0000 C   0  0  0  0  0  0  0  0  0  0  0  0
  -13.7730    5.9010    0.0000 O   0  0  0  0  0  0  0  0  0  0  0  0
  -13.7630    3.3030    0.0000 C   0  0  0  0  0  0  0  0  0  0  0  0
  -15.2630    3.2970    0.0000 C   0  0  0  0  0  0  0  0  0  0  0  0
  -13.0080    2.0070    0.0000 C   0  0  0  0  0  0  0  0  0  0  0  0
  -13.7530    0.7050    0.0000 C   0  0  0  0  0  0  0  0  0  0  0  0
   -9.2470   -0.7780    0.0000 C   0  0  0  0  0  0  0  0  0  0  0  0
   -5.3470   -1.5120    0.0000 C   0  0  0  0  0  0  0  0  0  0  0  0
   -4.0450   -2.2570    0.0000 C   0  0  0  0  0  0  0  0  0  0  0  0
    1.2220   -2.0970    0.0000 C   0  0  0  0  0  0  0  0  0  0  0  0
    1.5390   -3.5630    0.0000 O   0  0  0  0  0  0  0  0  0  0  0  0
    2.2210   -0.9790    0.0000 N   0  0  0  0  0  0  0  0  0  0  0  0
    1.4660    0.3180    0.0000 C   0  0  0  0  0  0  0  0  0  0  0  0
    2.0710    1.6900    0.0000 O   0  0  0  0  0  0  0  0  0  0  0  0
  1  2  1  0  0  0  0
  1 30  1  0  0  0  0
  2  3  1  0  0  0  0
  2 27  1  0  0  0  0
  3  4  1  0  0  0  0
  4  5  1  0  0  0  0
  4 26  2  0  0  0  0
  5  6  2  0  0  0  0
  6  7  1  0  0  0  0
  7  8  1  0  0  0  0
  7 25  2  0  0  0  0
  8  9  1  0  0  0  0
  9 10  1  0  0  0  0
 10 11  1  0  0  0  0
 10 15  1  0  0  0  0
 10 24  1  0  0  0  0
 11 12  1  0  0  0  0
 12 13  1  0  0  0  0
 12 22  2  0  0  0  0
 13 14  1  0  0  0  0
 13 16  2  0  0  0  0
 14 15  1  0  0  0  0
 16 17  1  0  0  0  0
 16 18  1  0  0  0  0
 18 19  1  0  0  0  0
 18 20  2  0  0  0  0
 20 21  1  0  0  0  0
 20 22  1  0  0  0  0
 22 23  1  0  0  0  0
 25 26  1  0  0  0  0
 27 28  2  0  0  0  0
 27 29  1  0  0  0  0
 29 30  1  0  0  0  0
 30 31  2  0  0  0  0
M  END
>  <Index>
1116

>  <ID>
HT2136

>  <class>
0

>  <apol>
68.25341

>  <ast_fraglike>
0

>  <ast_fraglike_ext>
0

>  <ast_violation>
3

>  <ast_violation_ext>
4

>  <a_acc>
5

>  <a_acid>
0

>  <a_aro>
12

>  <a_base>
0

>  <a_count>
58

>  <a_don>
2

>  <a_donacc>
7

>  <a_heavy>
31

>  <a_hyd>
23

>  <a_IC>
89.732193

>  <a_ICM>
1.5471069

>  <a_nB>
0

>  <a_nBr>
0

>  <a_nC>
24

>  <a_nCl>
0

>  <a_nF>
0

>  <a_nH>
27

>  <a_nI>
0

>  <a_nN>
1

>  <a_nO>
5

>  <a_nP>
0

>  <a_nS>
1

>  <balabanJ>
1.2297525

>  <BCUT_PEOE_0>
-2.6887202

>  <BCUT_PEOE_1>
-0.53278911

>  <BCUT_PEOE_2>
0.454505

>  <BCUT_PEOE_3>
2.6916497

>  <BCUT_SLOGP_0>
-2.7355003

>  <BCUT_SLOGP_1>
-0.48313418

>  <BCUT_SLOGP_2>
0.56665021

>  <BCUT_SLOGP_3>
2.705518

>  <BCUT_SMR_0>
-2.4496074

>  <BCUT_SMR_1>
-0.2980234

>  <BCUT_SMR_2>
0.66529304

>  <BCUT_SMR_3>
2.9286263

>  <bpol>
38.20459

>  <b_1rotN>
5

>  <b_1rotR>
0.14705883

>  <b_ar>
12

>  <b_count>
61

>  <b_double>
2

>  <b_heavy>
34

>  <b_max1len>
4

>  <b_rotN>
5

>  <b_rotR>
0.14705883

>  <b_single>
47

>  <b_triple>
0

>  <chi0>
22.336134

>  <chi0v>
19.02013

>  <chi0v_C>
15.215178

>  <chi0_C>
16.507708

>  <chi1>
14.665323

>  <chi1v>
11.284886

>  <chi1v_C>
7.9325042

>  <chi1_C>
9.630229

>  <chiral>
2

>  <chiral_u>
2

>  <density>
0.76119196

>  <diameter>
17

>  <FCharge>
0

>  <GCUT_PEOE_0>
-0.78332829

>  <GCUT_PEOE_1>
-0.43233308

>  <GCUT_PEOE_2>
-0.018597109

>  <GCUT_PEOE_3>
2.8331776

>  <GCUT_SLOGP_0>
-1.1742927

>  <GCUT_SLOGP_1>
-0.35436288

>  <GCUT_SLOGP_2>
0.10644215

>  <GCUT_SLOGP_3>
2.931843

>  <GCUT_SMR_0>
-0.52233136

>  <GCUT_SMR_1>
-0.2031118

>  <GCUT_SMR_2>
0.12757953

>  <GCUT_SMR_3>
3.091584

>  <Kier1>
24.134949

>  <Kier2>
9.7001152

>  <Kier3>
5.2394743

>  <KierA1>
20.024067

>  <KierA2>
7.9951344

>  <KierA3>
4.2977848

>  <KierFlex>
5.1643581

>  <lip_acc>
6

>  <lip_don>
2

>  <lip_druglike>
1

>  <lip_violation>
0

>  <logP(o/w)>
4.941

>  <logS>
-5.9038801

>  <mr>
12.075562

>  <mutagenic>
0

>  <nmol>
1

>  <opr_brigid>
22

>  <opr_leadlike>
1

>  <opr_nring>
4

>  <opr_nrot>
6

>  <opr_violation>
0

>  <PC+>
0

>  <PC->
0

>  <PEOE_PC+>
2.3741152

>  <PEOE_PC->
-2.3741152

>  <PEOE_RPC+>
0.12088681

>  <PEOE_RPC->
0.1513359

>  <PEOE_VSA+0>
76.776947

>  <PEOE_VSA+1>
70.815567

>  <PEOE_VSA+2>
0

>  <PEOE_VSA+3>
8.6190128

>  <PEOE_VSA+4>
23.273705

>  <PEOE_VSA+5>
14.925592

>  <PEOE_VSA+6>
0

>  <PEOE_VSA-0>
136.64716

>  <PEOE_VSA-1>
44.270424

>  <PEOE_VSA-2>
0

>  <PEOE_VSA-3>
0

>  <PEOE_VSA-4>
0

>  <PEOE_VSA-5>
27.270733

>  <PEOE_VSA-6>
12.775052

>  <PEOE_VSA_FHYD>
0.81162751

>  <PEOE_VSA_FNEG>
0.53196222

>  <PEOE_VSA_FPNEG>
0.096408941

>  <PEOE_VSA_FPOL>
0.18837252

>  <PEOE_VSA_FPOS>
0.46803781

>  <PEOE_VSA_FPPOS>
0.091963574

>  <PEOE_VSA_HYD>
337.12912

>  <PEOE_VSA_NEG>
220.96336

>  <PEOE_VSA_PNEG>
40.045784

>  <PEOE_VSA_POL>
78.245079

>  <PEOE_VSA_POS>
194.41083

>  <PEOE_VSA_PPOS>
38.199295

>  <petitjean>
0.47058824

>  <petitjeanSC>
0.8888889

>  <Q_PC+>
0

>  <Q_PC->
0

>  <Q_RPC+>
0

>  <Q_RPC->
0

>  <Q_VSA_FHYD>
1

>  <Q_VSA_FNEG>
0

>  <Q_VSA_FPNEG>
0

>  <Q_VSA_FPOL>
0

>  <Q_VSA_FPOS>
1

>  <Q_VSA_FPPOS>
0

>  <Q_VSA_HYD>
415.37418

>  <Q_VSA_NEG>
0

>  <Q_VSA_PNEG>
0

>  <Q_VSA_POL>
0

>  <Q_VSA_POS>
415.37418

>  <Q_VSA_PPOS>
0

>  <radius>
9

>  <reactive>
0

>  <rings>
4

>  <RPC+>
0

>  <RPC->
0

>  <rsynth>
0.48387095

>  <SlogP>
4.3741999

>  <SlogP_VSA0>
65.395752

>  <SlogP_VSA1>
8.8827257

>  <SlogP_VSA2>
26.638172

>  <SlogP_VSA3>
20.926258

>  <SlogP_VSA4>
15.927875

>  <SlogP_VSA5>
37.736813

>  <SlogP_VSA6>
0

>  <SlogP_VSA7>
70.572739

>  <SlogP_VSA8>
18.868406

>  <SlogP_VSA9>
205.1161

>  <SMR>
12.02315

>  <SMR_VSA0>
47.724434

>  <SMR_VSA1>
47.385002

>  <SMR_VSA2>
18.01075

>  <SMR_VSA3>
34.434113

>  <SMR_VSA4>
0

>  <SMR_VSA5>
127.17796

>  <SMR_VSA6>
29.808985

>  <SMR_VSA7>
165.52361

>  <TPSA>
84.860001

>  <VAdjEq>
0.36875206

>  <VAdjMa>
6.0874629

>  <VDistEq>
3.8667383

>  <VDistMa>
9.5686636

>  <vdw_area>
415.37418

>  <vdw_vol>
580.07446

>  <vsa_acc>
32.141354

>  <vsa_acid>
0

>  <vsa_base>
0

>  <vsa_don>
5.6825762

>  <vsa_hyd>
310.71521

>  <vsa_other>
27.875124

>  <vsa_pol>
51.39085

>  <Weight>
441.548

>  <weinerPath>
3093

>  <weinerPol>
53

>  <zagreb>
170

$$$$