Clc1ccc(cc1)C(N1CCN(CC1)Cc1ccc(cc1)C(C)(C)C)c1ccccc1
  MOE2013           2D

 31 34  0  0  1  0  0  0  0  0999 V2000
    0.0000    0.0000    0.0000 Cl  0  0  0  0  0  0  0  0  0  0  0  0
   -1.2970    0.7530    0.0000 C   0  0  0  0  0  0  0  0  0  0  0  0
   -1.2940    2.2530    0.0000 C   0  0  0  0  0  0  0  0  0  0  0  0
   -2.5910    3.0060    0.0000 C   0  0  0  0  0  0  0  0  0  0  0  0
   -3.8920    2.2590    0.0000 C   0  0  0  0  0  0  0  0  0  0  0  0
   -3.8950    0.7590    0.0000 C   0  0  0  0  0  0  0  0  0  0  0  0
   -2.5980    0.0060    0.0000 C   0  0  0  0  0  0  0  0  0  0  0  0
   -5.1890    3.0120    0.0000 C   0  0  3  0  0  0  0  0  0  0  0  0
   -6.4900    2.2650    0.0000 N   0  0  0  0  0  0  0  0  0  0  0  0
   -6.4930    0.7650    0.0000 C   0  0  0  0  0  0  0  0  0  0  0  0
   -7.7940    0.0190    0.0000 C   0  0  0  0  0  0  0  0  0  0  0  0
   -9.0910    0.7720    0.0000 N   0  0  0  0  0  0  0  0  0  0  0  0
   -9.0880    2.2720    0.0000 C   0  0  0  0  0  0  0  0  0  0  0  0
   -7.7870    3.0190    0.0000 C   0  0  0  0  0  0  0  0  0  0  0  0
  -10.3920    0.0250    0.0000 C   0  0  0  0  0  0  0  0  0  0  0  0
  -11.6900    0.7780    0.0000 C   0  0  0  0  0  0  0  0  0  0  0  0
  -11.6860    2.2780    0.0000 C   0  0  0  0  0  0  0  0  0  0  0  0
  -12.9830    3.0310    0.0000 C   0  0  0  0  0  0  0  0  0  0  0  0
  -14.2840    2.2840    0.0000 C   0  0  0  0  0  0  0  0  0  0  0  0
  -14.2880    0.7840    0.0000 C   0  0  0  0  0  0  0  0  0  0  0  0
  -12.9900    0.0310    0.0000 C   0  0  0  0  0  0  0  0  0  0  0  0
  -15.5810    3.0370    0.0000 C   0  0  0  0  0  0  0  0  0  0  0  0
  -16.3340    1.7400    0.0000 C   0  0  0  0  0  0  0  0  0  0  0  0
  -14.8280    4.3340    0.0000 C   0  0  0  0  0  0  0  0  0  0  0  0
  -16.8790    3.7900    0.0000 C   0  0  0  0  0  0  0  0  0  0  0  0
   -5.1850    4.5120    0.0000 C   0  0  0  0  0  0  0  0  0  0  0  0
   -3.8850    5.2590    0.0000 C   0  0  0  0  0  0  0  0  0  0  0  0
   -3.8810    6.7590    0.0000 C   0  0  0  0  0  0  0  0  0  0  0  0
   -5.1780    7.5120    0.0000 C   0  0  0  0  0  0  0  0  0  0  0  0
   -6.4790    6.7650    0.0000 C   0  0  0  0  0  0  0  0  0  0  0  0
   -6.4830    5.2650    0.0000 C   0  0  0  0  0  0  0  0  0  0  0  0
  1  2  1  0  0  0  0
  2  3  1  0  0  0  0
  2  7  2  0  0  0  0
  3  4  2  0  0  0  0
  4  5  1  0  0  0  0
  5  6  2  0  0  0  0
  5  8  1  0  0  0  0
  6  7  1  0  0  0  0
  8  9  1  0  0  0  0
  8 26  1  0  0  0  0
  9 10  1  0  0  0  0
  9 14  1  0  0  0  0
 10 11  1  0  0  0  0
 11 12  1  0  0  0  0
 12 13  1  0  0  0  0
 12 15  1  0  0  0  0
 13 14  1  0  0  0  0
 15 16  1  0  0  0  0
 16 17  1  0  0  0  0
 16 21  2  0  0  0  0
 17 18  2  0  0  0  0
 18 19  1  0  0  0  0
 19 20  2  0  0  0  0
 19 22  1  0  0  0  0
 20 21  1  0  0  0  0
 22 23  1  0  0  0  0
 22 24  1  0  0  0  0
 22 25  1  0  0  0  0
 26 27  1  0  0  0  0
 26 31  2  0  0  0  0
 27 28  2  0  0  0  0
 28 29  1  0  0  0  0
 29 30  2  0  0  0  0
 30 31  1  0  0  0  0
M  END
>  <Index>
162

>  <ID>
HT0321

>  <class>
0

>  <apol>
75.664169

>  <ast_fraglike>
0

>  <ast_fraglike_ext>
0

>  <ast_violation>
2

>  <ast_violation_ext>
3

>  <a_acc>
2

>  <a_acid>
0

>  <a_aro>
18

>  <a_base>
0

>  <a_count>
64

>  <a_don>
0

>  <a_donacc>
2

>  <a_heavy>
31

>  <a_hyd>
29

>  <a_IC>
80.929054

>  <a_ICM>
1.2645165

>  <a_nB>
0

>  <a_nBr>
0

>  <a_nC>
28

>  <a_nCl>
1

>  <a_nF>
0

>  <a_nH>
33

>  <a_nI>
0

>  <a_nN>
2

>  <a_nO>
0

>  <a_nP>
0

>  <a_nS>
0

>  <balabanJ>
1.2750258

>  <BCUT_PEOE_0>
-2.778466

>  <BCUT_PEOE_1>
-0.55381238

>  <BCUT_PEOE_2>
0.58136535

>  <BCUT_PEOE_3>
2.6771882

>  <BCUT_SLOGP_0>
-2.8596413

>  <BCUT_SLOGP_1>
-0.41675064

>  <BCUT_SLOGP_2>
0.80591482

>  <BCUT_SLOGP_3>
2.6831796

>  <BCUT_SMR_0>
-2.4909866

>  <BCUT_SMR_1>
-0.38946486

>  <BCUT_SMR_2>
0.85431087

>  <BCUT_SMR_3>
2.9579027

>  <bpol>
40.45583

>  <b_1rotN>
5

>  <b_1rotR>
0.14705883

>  <b_ar>
18

>  <b_count>
67

>  <b_double>
0

>  <b_heavy>
34

>  <b_max1len>
4

>  <b_rotN>
6

>  <b_rotR>
0.17647059

>  <b_single>
49

>  <b_triple>
0

>  <chi0>
21.846724

>  <chi0v>
19.646759

>  <chi0v_C>
17.618437

>  <chi0_C>
19.692024

>  <chi1>
14.897998

>  <chi1v>
11.640606

>  <chi1v_C>
9.2343216

>  <chi1_C>
11.946073

>  <chiral>
1

>  <chiral_u>
1

>  <density>
0.67559409

>  <diameter>
16

>  <FCharge>
0

>  <GCUT_PEOE_0>
-0.85037911

>  <GCUT_PEOE_1>
-0.37709451

>  <GCUT_PEOE_2>
0.058650553

>  <GCUT_PEOE_3>
2.9015925

>  <GCUT_SLOGP_0>
-0.94844717

>  <GCUT_SLOGP_1>
-0.26386139

>  <GCUT_SLOGP_2>
0.16445385

>  <GCUT_SLOGP_3>
2.98124

>  <GCUT_SMR_0>
-0.52213603

>  <GCUT_SMR_1>
-0.17956571

>  <GCUT_SMR_2>
0.19305076

>  <GCUT_SMR_3>
3.1715646

>  <Kier1>
24.134949

>  <Kier2>
10.950521

>  <Kier3>
6.5333333

>  <KierA1>
19.910196

>  <KierA2>
8.9725676

>  <KierA3>
5.3267045

>  <KierFlex>
5.7627606

>  <lip_acc>
2

>  <lip_don>
0

>  <lip_druglike>
1

>  <lip_violation>
1

>  <logP(o/w)>
7.2680001

>  <logS>
-7.59273

>  <mr>
13.180949

>  <mutagenic>
0

>  <nmol>
1

>  <opr_brigid>
24

>  <opr_leadlike>
1

>  <opr_nring>
4

>  <opr_nrot>
8

>  <opr_violation>
1

>  <PC+>
0

>  <PC->
0

>  <PEOE_PC+>
1.7008848

>  <PEOE_PC->
-1.7008848

>  <PEOE_RPC+>
0.037166379

>  <PEOE_RPC->
0.17387527

>  <PEOE_VSA+0>
151.52371

>  <PEOE_VSA+1>
62.861366

>  <PEOE_VSA+2>
0

>  <PEOE_VSA+3>
0

>  <PEOE_VSA+4>
0

>  <PEOE_VSA+5>
0

>  <PEOE_VSA+6>
0

>  <PEOE_VSA-0>
33.343967

>  <PEOE_VSA-1>
220.62892

>  <PEOE_VSA-2>
0

>  <PEOE_VSA-3>
0

>  <PEOE_VSA-4>
0

>  <PEOE_VSA-5>
0

>  <PEOE_VSA-6>
0

>  <PEOE_VSA_FHYD>
1

>  <PEOE_VSA_FNEG>
0.54226238

>  <PEOE_VSA_FPNEG>
0

>  <PEOE_VSA_FPOL>
0

>  <PEOE_VSA_FPOS>
0.45773765

>  <PEOE_VSA_FPPOS>
0

>  <PEOE_VSA_HYD>
468.35797

>  <PEOE_VSA_NEG>
253.97289

>  <PEOE_VSA_PNEG>
0

>  <PEOE_VSA_POL>
0

>  <PEOE_VSA_POS>
214.38507

>  <PEOE_VSA_PPOS>
0

>  <petitjean>
0.5

>  <petitjeanSC>
1

>  <Q_PC+>
0

>  <Q_PC->
0

>  <Q_RPC+>
0

>  <Q_RPC->
0

>  <Q_VSA_FHYD>
1

>  <Q_VSA_FNEG>
0

>  <Q_VSA_FPNEG>
0

>  <Q_VSA_FPOL>
0

>  <Q_VSA_FPOS>
1

>  <Q_VSA_FPPOS>
0

>  <Q_VSA_HYD>
468.35797

>  <Q_VSA_NEG>
0

>  <Q_VSA_PNEG>
0

>  <Q_VSA_POL>
0

>  <Q_VSA_POS>
468.35797

>  <Q_VSA_PPOS>
0

>  <radius>
8

>  <reactive>
0

>  <rings>
4

>  <RPC+>
0

>  <RPC->
0

>  <rsynth>
1

>  <SlogP>
6.9066

>  <SlogP_VSA0>
0

>  <SlogP_VSA1>
6.2486277

>  <SlogP_VSA2>
0

>  <SlogP_VSA3>
73.758316

>  <SlogP_VSA4>
12.7423

>  <SlogP_VSA5>
0

>  <SlogP_VSA6>
3.5006065

>  <SlogP_VSA7>
229.36139

>  <SlogP_VSA8>
3.9819686

>  <SlogP_VSA9>
157.56627

>  <SMR>
13.2045

>  <SMR_VSA0>
0

>  <SMR_VSA1>
6.2486277

>  <SMR_VSA2>
0

>  <SMR_VSA3>
20.224874

>  <SMR_VSA4>
0

>  <SMR_VSA5>
247.80098

>  <SMR_VSA6>
73.758316

>  <SMR_VSA7>
139.12669

>  <TPSA>
6.48

>  <VAdjEq>
0.36875206

>  <VAdjMa>
6.0874629

>  <VDistEq>
3.8108172

>  <VDistMa>
9.5913448

>  <vdw_area>
468.35797

>  <vdw_vol>
640.9751

>  <vsa_acc>
0

>  <vsa_acid>
0

>  <vsa_base>
0

>  <vsa_don>
0

>  <vsa_hyd>
444.86871

>  <vsa_other>
0

>  <vsa_pol>
0

>  <Weight>
433.039

>  <weinerPath>
3008

>  <weinerPol>
48

>  <zagreb>
164

$$$$