BrC(CC)(CC)C(=O)NC(=O)N
  MOE2013           2D

 12 11  0  0  0  0  0  0  0  0999 V2000
    0.0000    0.0000    0.0000 Br  0  0  0  0  0  0  0  0  0  0  0  0
   -0.7590   -1.2940    0.0000 C   0  0  0  0  0  0  0  0  0  0  0  0
   -1.5190   -2.5870    0.0000 C   0  0  0  0  0  0  0  0  0  0  0  0
   -3.0180   -2.5770    0.0000 C   0  0  0  0  0  0  0  0  0  0  0  0
   -2.0530   -0.5340    0.0000 C   0  0  0  0  0  0  0  0  0  0  0  0
   -2.0420    0.9660    0.0000 C   0  0  0  0  0  0  0  0  0  0  0  0
    0.5340   -2.0530    0.0000 C   0  0  0  0  0  0  0  0  0  0  0  0
    0.5240   -3.5530    0.0000 O   0  0  0  0  0  0  0  0  0  0  0  0
    1.8390   -1.3120    0.0000 N   0  0  0  0  0  0  0  0  0  0  0  0
    3.1320   -2.0710    0.0000 C   0  0  0  0  0  0  0  0  0  0  0  0
    3.1220   -3.5710    0.0000 O   0  0  0  0  0  0  0  0  0  0  0  0
    4.4370   -1.3310    0.0000 N   0  0  0  0  0  0  0  0  0  0  0  0
  1  2  1  0  0  0  0
  2  3  1  0  0  0  0
  2  5  1  0  0  0  0
  2  7  1  0  0  0  0
  3  4  1  0  0  0  0
  5  6  1  0  0  0  0
  7  8  2  0  0  0  0
  7  9  1  0  0  0  0
  9 10  1  0  0  0  0
 10 11  2  0  0  0  0
 10 12  1  0  0  0  0
M  END
>  <Index>
1281

>  <ID>
HT3036

>  <class>
0

>  <apol>
27.84231

>  <ast_fraglike>
1

>  <ast_fraglike_ext>
1

>  <ast_violation>
0

>  <ast_violation_ext>
0

>  <a_acc>
2

>  <a_acid>
0

>  <a_aro>
0

>  <a_base>
0

>  <a_count>
25

>  <a_don>
2

>  <a_donacc>
4

>  <a_heavy>
12

>  <a_hyd>
6

>  <a_IC>
44.339203

>  <a_ICM>
1.7735682

>  <a_nB>
0

>  <a_nBr>
1

>  <a_nC>
7

>  <a_nCl>
0

>  <a_nF>
0

>  <a_nH>
13

>  <a_nI>
0

>  <a_nN>
2

>  <a_nO>
2

>  <a_nP>
0

>  <a_nS>
0

>  <balabanJ>
4.1384554

>  <BCUT_PEOE_0>
-2.6081831

>  <BCUT_PEOE_1>
-0.45111141

>  <BCUT_PEOE_2>
0.33035538

>  <BCUT_PEOE_3>
2.6405022

>  <BCUT_SLOGP_0>
-2.7010601

>  <BCUT_SLOGP_1>
-0.26304355

>  <BCUT_SLOGP_2>
0.46270555

>  <BCUT_SLOGP_3>
2.6871624

>  <BCUT_SMR_0>
-2.3618724

>  <BCUT_SMR_1>
-0.12784009

>  <BCUT_SMR_2>
0.51933616

>  <BCUT_SMR_3>
2.9038641

>  <bpol>
17.41769

>  <b_1rotN>
3

>  <b_1rotR>
0.27272728

>  <b_ar>
0

>  <b_count>
24

>  <b_double>
2

>  <b_heavy>
11

>  <b_max1len>
6

>  <b_rotN>
5

>  <b_rotR>
0.45454547

>  <b_single>
22

>  <b_triple>
0

>  <chi0>
9.776021

>  <chi0v>
8.7720213

>  <chi0v_C>
4.9142137

>  <chi0_C>
5.0689139

>  <chi1>
5.4585428

>  <chi1v>
4.5502243

>  <chi1v_C>
2.3713202

>  <chi1_C>
2.4099956

>  <chiral>
0

>  <chiral_u>
0

>  <density>
0.95911479

>  <diameter>
6

>  <FCharge>
0

>  <GCUT_PEOE_0>
-0.80106843

>  <GCUT_PEOE_1>
-0.40176329

>  <GCUT_PEOE_2>
0.00033663129

>  <GCUT_PEOE_3>
2.3212473

>  <GCUT_SLOGP_0>
-1.3709278

>  <GCUT_SLOGP_1>
-0.28209889

>  <GCUT_SLOGP_2>
0.083325431

>  <GCUT_SLOGP_3>
2.36216

>  <GCUT_SMR_0>
-0.51798117

>  <GCUT_SMR_1>
-0.11609788

>  <GCUT_SMR_2>
0.15446912

>  <GCUT_SMR_3>
2.5795484

>  <Kier1>
12

>  <Kier2>
4.8888888

>  <Kier3>
3.515625

>  <KierA1>
11.49625

>  <KierA2>
4.6640315

>  <KierA3>
3.3428869

>  <KierFlex>
4.4682393

>  <lip_acc>
4

>  <lip_don>
3

>  <lip_druglike>
1

>  <lip_violation>
0

>  <logP(o/w)>
1.539

>  <logS>
-2.24912

>  <mr>
5.0093937

>  <mutagenic>
1

>  <nmol>
1

>  <opr_brigid>
0

>  <opr_leadlike>
1

>  <opr_nring>
0

>  <opr_nrot>
3

>  <opr_violation>
0

>  <PC+>
0

>  <PC->
0

>  <PEOE_PC+>
1.4134282

>  <PEOE_PC->
-1.4134282

>  <PEOE_RPC+>
0.22642684

>  <PEOE_RPC->
0.2488237

>  <PEOE_VSA+0>
42.653858

>  <PEOE_VSA+1>
0

>  <PEOE_VSA+2>
0

>  <PEOE_VSA+3>
25.857038

>  <PEOE_VSA+4>
12.949531

>  <PEOE_VSA+5>
0

>  <PEOE_VSA+6>
17.440542

>  <PEOE_VSA-0>
17.402626

>  <PEOE_VSA-1>
81.120201

>  <PEOE_VSA-2>
0

>  <PEOE_VSA-3>
0

>  <PEOE_VSA-4>
13.566921

>  <PEOE_VSA-5>
13.703812

>  <PEOE_VSA-6>
6.6511192

>  <PEOE_VSA_FHYD>
0.72200936

>  <PEOE_VSA_FNEG>
0.57249695

>  <PEOE_VSA_FPNEG>
0.14662844

>  <PEOE_VSA_FPOL>
0.27799064

>  <PEOE_VSA_FPOS>
0.42750305

>  <PEOE_VSA_FPPOS>
0.1313622

>  <PEOE_VSA_HYD>
167.03374

>  <PEOE_VSA_NEG>
132.44469

>  <PEOE_VSA_PNEG>
33.921852

>  <PEOE_VSA_POL>
64.311928

>  <PEOE_VSA_POS>
98.90097

>  <PEOE_VSA_PPOS>
30.390074

>  <petitjean>
0.5

>  <petitjeanSC>
1

>  <Q_PC+>
0

>  <Q_PC->
0

>  <Q_RPC+>
0

>  <Q_RPC->
0

>  <Q_VSA_FHYD>
1

>  <Q_VSA_FNEG>
0

>  <Q_VSA_FPNEG>
0

>  <Q_VSA_FPOL>
0

>  <Q_VSA_FPOS>
1

>  <Q_VSA_FPPOS>
0

>  <Q_VSA_HYD>
231.34566

>  <Q_VSA_NEG>
0

>  <Q_VSA_PNEG>
0

>  <Q_VSA_POL>
0

>  <Q_VSA_POS>
231.34566

>  <Q_VSA_PPOS>
0

>  <radius>
3

>  <reactive>
1

>  <rings>
0

>  <RPC+>
0

>  <RPC->
0

>  <rsynth>
1

>  <SlogP>
1.135

>  <SlogP_VSA0>
50.90794

>  <SlogP_VSA1>
10.088739

>  <SlogP_VSA2>
23.862217

>  <SlogP_VSA3>
0

>  <SlogP_VSA4>
0

>  <SlogP_VSA5>
0

>  <SlogP_VSA6>
0

>  <SlogP_VSA7>
0

>  <SlogP_VSA8>
37.736813

>  <SlogP_VSA9>
136.46834

>  <SMR>
4.9966102

>  <SMR_VSA0>
47.724434

>  <SMR_VSA1>
0

>  <SMR_VSA2>
18.01075

>  <SMR_VSA3>
0

>  <SMR_VSA4>
32.897186

>  <SMR_VSA5>
37.736813

>  <SMR_VSA6>
10.088739

>  <SMR_VSA7>
112.60612

>  <TPSA>
72.190002

>  <VAdjEq>
0.61674827

>  <VAdjMa>
4.4594316

>  <VDistEq>
2.4735358

>  <VDistMa>
6.8749599

>  <vdw_area>
231.34566

>  <vdw_vol>
247.20399

>  <vsa_acc>
27.133842

>  <vsa_acid>
0

>  <vsa_base>
0

>  <vsa_don>
23.425066

>  <vsa_hyd>
134.05873

>  <vsa_other>
30.390074

>  <vsa_pol>
50.558907

>  <Weight>
237.097

>  <weinerPath>
201

>  <weinerPol>
16

>  <zagreb>
52

$$$$