S(=O)(=O)(N1CCN(CC1)CC)c1cc(C=2NC(=O)c3n(N=2)c(nc3C)CCC)c(OCC)cc1
  MOE2013           2D

 34 37  0  0  0  0  0  0  0  0999 V2000
    0.0000    0.0000    0.0000 S   0  0  0  0  0  0  0  0  0  0  0  0
    0.7490    1.3000    0.0000 O   0  0  0  0  0  0  0  0  0  0  0  0
   -0.7490   -1.3000    0.0000 O   0  0  0  0  0  0  0  0  0  0  0  0
    1.3000   -0.7490    0.0000 N   0  0  0  0  0  0  0  0  0  0  0  0
    2.5980    0.0030    0.0000 C   0  0  0  0  0  0  0  0  0  0  0  0
    3.8980   -0.7460    0.0000 C   0  0  0  0  0  0  0  0  0  0  0  0
    3.9000   -2.2460    0.0000 N   0  0  0  0  0  0  0  0  0  0  0  0
    2.6020   -2.9970    0.0000 C   0  0  0  0  0  0  0  0  0  0  0  0
    1.3020   -2.2490    0.0000 C   0  0  0  0  0  0  0  0  0  0  0  0
    5.2000   -2.9940    0.0000 C   0  0  0  0  0  0  0  0  0  0  0  0
    6.4980   -2.2430    0.0000 C   0  0  0  0  0  0  0  0  0  0  0  0
   -1.3000    0.7490    0.0000 C   0  0  0  0  0  0  0  0  0  0  0  0
   -2.5980   -0.0030    0.0000 C   0  0  0  0  0  0  0  0  0  0  0  0
   -3.8980    0.7460    0.0000 C   0  0  0  0  0  0  0  0  0  0  0  0
   -5.1960   -0.0060    0.0000 C   0  0  0  0  0  0  0  0  0  0  0  0
   -6.4960    0.7430    0.0000 N   0  0  0  0  0  0  0  0  0  0  0  0
   -7.7940   -0.0090    0.0000 C   0  0  0  0  0  0  0  0  0  0  0  0
   -9.0940    0.7400    0.0000 O   0  0  0  0  0  0  0  0  0  0  0  0
   -7.7930   -1.5090    0.0000 C   0  0  0  0  0  0  0  0  0  0  0  0
   -6.4930   -2.2570    0.0000 N   0  0  0  0  0  0  0  0  0  0  0  0
   -5.1940   -1.5060    0.0000 N   0  0  0  0  0  0  0  0  0  0  0  0
   -6.8030   -3.7250    0.0000 C   0  0  0  0  0  0  0  0  0  0  0  0
   -8.2940   -3.8840    0.0000 N   0  0  0  0  0  0  0  0  0  0  0  0
   -8.9060   -2.5140    0.0000 C   0  0  0  0  0  0  0  0  0  0  0  0
  -10.3740   -2.2040    0.0000 C   0  0  0  0  0  0  0  0  0  0  0  0
   -5.7980   -4.8390    0.0000 C   0  0  0  0  0  0  0  0  0  0  0  0
   -6.2600   -6.2660    0.0000 C   0  0  0  0  0  0  0  0  0  0  0  0
   -5.2550   -7.3790    0.0000 C   0  0  0  0  0  0  0  0  0  0  0  0
   -3.9000    2.2460    0.0000 C   0  0  0  0  0  0  0  0  0  0  0  0
   -5.2000    2.9940    0.0000 O   0  0  0  0  0  0  0  0  0  0  0  0
   -5.2010    4.4940    0.0000 C   0  0  0  0  0  0  0  0  0  0  0  0
   -6.5010    5.2430    0.0000 C   0  0  0  0  0  0  0  0  0  0  0  0
   -2.6020    2.9970    0.0000 C   0  0  0  0  0  0  0  0  0  0  0  0
   -1.3020    2.2490    0.0000 C   0  0  0  0  0  0  0  0  0  0  0  0
  1  2  2  0  0  0  0
  1  3  2  0  0  0  0
  1  4  1  0  0  0  0
  1 12  1  0  0  0  0
  4  5  1  0  0  0  0
  4  9  1  0  0  0  0
  5  6  1  0  0  0  0
  6  7  1  0  0  0  0
  7  8  1  0  0  0  0
  7 10  1  0  0  0  0
  8  9  1  0  0  0  0
 10 11  1  0  0  0  0
 12 13  1  0  0  0  0
 12 34  2  0  0  0  0
 13 14  2  0  0  0  0
 14 15  1  0  0  0  0
 14 29  1  0  0  0  0
 15 16  1  0  0  0  0
 15 21  2  0  0  0  0
 16 17  1  0  0  0  0
 17 18  2  0  0  0  0
 17 19  1  0  0  0  0
 19 20  1  0  0  0  0
 19 24  2  0  0  0  0
 20 21  1  0  0  0  0
 20 22  1  0  0  0  0
 22 23  2  0  0  0  0
 22 26  1  0  0  0  0
 23 24  1  0  0  0  0
 24 25  1  0  0  0  0
 26 27  1  0  0  0  0
 27 28  1  0  0  0  0
 29 30  1  0  0  0  0
 29 33  2  0  0  0  0
 30 31  1  0  0  0  0
 31 32  1  0  0  0  0
 33 34  1  0  0  0  0
M  END
>  <Index>
1138

>  <ID>
HT2168

>  <class>
0

>  <apol>
74.525375

>  <ast_fraglike>
0

>  <ast_fraglike_ext>
0

>  <ast_violation>
2

>  <ast_violation_ext>
4

>  <a_acc>
7

>  <a_acid>
0

>  <a_aro>
11

>  <a_base>
0

>  <a_count>
66

>  <a_don>
1

>  <a_donacc>
8

>  <a_heavy>
34

>  <a_hyd>
20

>  <a_IC>
111.37831

>  <a_ICM>
1.6875502

>  <a_nB>
0

>  <a_nBr>
0

>  <a_nC>
23

>  <a_nCl>
0

>  <a_nF>
0

>  <a_nH>
32

>  <a_nI>
0

>  <a_nN>
6

>  <a_nO>
4

>  <a_nP>
0

>  <a_nS>
1

>  <balabanJ>
1.4856713

>  <BCUT_PEOE_0>
-2.7758262

>  <BCUT_PEOE_1>
-0.29436833

>  <BCUT_PEOE_2>
0.28822985

>  <BCUT_PEOE_3>
2.6810355

>  <BCUT_SLOGP_0>
-2.891047

>  <BCUT_SLOGP_1>
-0.34878075

>  <BCUT_SLOGP_2>
0.3462835

>  <BCUT_SLOGP_3>
2.5830572

>  <BCUT_SMR_0>
-2.4822583

>  <BCUT_SMR_1>
-0.012848373

>  <BCUT_SMR_2>
0.48628271

>  <BCUT_SMR_3>
2.9854512

>  <bpol>
52.252625

>  <b_1rotN>
8

>  <b_1rotR>
0.21621622

>  <b_ar>
11

>  <b_count>
69

>  <b_double>
2

>  <b_heavy>
37

>  <b_max1len>
4

>  <b_rotN>
8

>  <b_rotR>
0.21621622

>  <b_single>
56

>  <b_triple>
0

>  <chi0>
24.457455

>  <chi0v>
20.982712

>  <chi0v_C>
15.388906

>  <chi0_C>
16.396976

>  <chi1>
16.293592

>  <chi1v>
13.219099

>  <chi1v_C>
6.9629078

>  <chi1_C>
8.073245

>  <chiral>
0

>  <chiral_u>
0

>  <density>
0.76928079

>  <diameter>
16

>  <FCharge>
0

>  <GCUT_PEOE_0>
-0.85950637

>  <GCUT_PEOE_1>
-0.39001265

>  <GCUT_PEOE_2>
-0.093250774

>  <GCUT_PEOE_3>
2.8468716

>  <GCUT_SLOGP_0>
-1.169883

>  <GCUT_SLOGP_1>
-0.37879536

>  <GCUT_SLOGP_2>
-0.030553918

>  <GCUT_SLOGP_3>
2.838161

>  <GCUT_SMR_0>
-0.52438855

>  <GCUT_SMR_1>
-0.11751658

>  <GCUT_SMR_2>
0.099801302

>  <GCUT_SMR_3>
3.1143899

>  <Kier1>
27.046019

>  <Kier2>
11.588477

>  <Kier3>
5.6433778

>  <KierA1>
22.939709

>  <KierA2>
9.7776461

>  <KierA3>
4.7440209

>  <KierFlex>
6.596951

>  <lip_acc>
10

>  <lip_don>
1

>  <lip_druglike>
1

>  <lip_violation>
0

>  <logP(o/w)>
1.133

>  <logS>
-4.3806601

>  <mr>
13.021997

>  <mutagenic>
0

>  <nmol>
1

>  <opr_brigid>
22

>  <opr_leadlike>
0

>  <opr_nring>
4

>  <opr_nrot>
9

>  <opr_violation>
2

>  <PC+>
0

>  <PC->
0

>  <PEOE_PC+>
2.7069049

>  <PEOE_PC->
-2.7069049

>  <PEOE_RPC+>
0.10458577

>  <PEOE_RPC->
0.1271746

>  <PEOE_VSA+0>
168.34651

>  <PEOE_VSA+1>
65.899734

>  <PEOE_VSA+2>
11.190562

>  <PEOE_VSA+3>
26.509127

>  <PEOE_VSA+4>
0

>  <PEOE_VSA+5>
17.134132

>  <PEOE_VSA+6>
0

>  <PEOE_VSA-0>
98.028549

>  <PEOE_VSA-1>
37.495354

>  <PEOE_VSA-2>
9.4210396

>  <PEOE_VSA-3>
0

>  <PEOE_VSA-4>
37.6991

>  <PEOE_VSA-5>
13.566921

>  <PEOE_VSA-6>
2.6406472

>  <PEOE_VSA_FHYD>
0.85440421

>  <PEOE_VSA_FNEG>
0.40753987

>  <PEOE_VSA_FPNEG>
0.11047995

>  <PEOE_VSA_FPOL>
0.14559579

>  <PEOE_VSA_FPOS>
0.59246016

>  <PEOE_VSA_FPPOS>
0.035115842

>  <PEOE_VSA_HYD>
416.89087

>  <PEOE_VSA_NEG>
198.85161

>  <PEOE_VSA_PNEG>
53.906666

>  <PEOE_VSA_POL>
71.040802

>  <PEOE_VSA_POS>
289.08008

>  <PEOE_VSA_PPOS>
17.134132

>  <petitjean>
0.5

>  <petitjeanSC>
1

>  <Q_PC+>
0

>  <Q_PC->
0

>  <Q_RPC+>
0

>  <Q_RPC->
0

>  <Q_VSA_FHYD>
1

>  <Q_VSA_FNEG>
0

>  <Q_VSA_FPNEG>
0

>  <Q_VSA_FPOL>
0

>  <Q_VSA_FPOS>
1

>  <Q_VSA_FPPOS>
0

>  <Q_VSA_HYD>
487.93167

>  <Q_VSA_NEG>
0

>  <Q_VSA_PNEG>
0

>  <Q_VSA_POL>
0

>  <Q_VSA_POS>
487.93167

>  <Q_VSA_PPOS>
0

>  <radius>
8

>  <reactive>
0

>  <rings>
4

>  <RPC+>
0

>  <RPC->
0

>  <rsynth>
1

>  <SlogP>
1.82219

>  <SlogP_VSA0>
29.010639

>  <SlogP_VSA1>
78.963364

>  <SlogP_VSA2>
6.6407428

>  <SlogP_VSA3>
113.12415

>  <SlogP_VSA4>
34.889206

>  <SlogP_VSA5>
37.082146

>  <SlogP_VSA6>
0

>  <SlogP_VSA7>
52.929554

>  <SlogP_VSA8>
18.868406

>  <SlogP_VSA9>
138.54749

>  <SMR>
12.8844

>  <SMR_VSA0>
72.033905

>  <SMR_VSA1>
50.86787

>  <SMR_VSA2>
19.561485

>  <SMR_VSA3>
16.270418

>  <SMR_VSA4>
0

>  <SMR_VSA5>
90.666367

>  <SMR_VSA6>
120.71085

>  <SMR_VSA7>
139.94481

>  <TPSA>
109.13

>  <VAdjEq>
0.34317648

>  <VAdjMa>
6.2094536

>  <VDistEq>
3.6653731

>  <VDistMa>
9.904088

>  <vdw_area>
487.93167

>  <vdw_vol>
635.15558

>  <vsa_acc>
63.190815

>  <vsa_acid>
0

>  <vsa_base>
0

>  <vsa_don>
5.6825762

>  <vsa_hyd>
348.48303

>  <vsa_other>
45.436264

>  <vsa_pol>
68.87339

>  <Weight>
488.61301

>  <weinerPath>
3398

>  <weinerPol>
61

>  <zagreb>
182

$$$$