S1C2N(C(C(O)=O)C1(C)C)C(=O)C2NC(=O)C(NN=N)c1ccccc1
  MOE2013           2D

 26 28  0  0  1  0  0  0  0  0999 V2000
    0.0000    0.0000    0.0000 S   0  0  0  0  0  0  0  0  0  0  0  0
    1.1340   -0.9820    0.0000 C   0  0  3  0  0  0  0  0  0  0  0  0
    0.5510   -2.3640    0.0000 N   0  0  0  0  0  0  0  0  0  0  0  0
   -0.9440   -2.2360    0.0000 C   0  0  3  0  0  0  0  0  0  0  0  0
   -1.9250   -3.3700    0.0000 C   0  0  0  0  0  0  0  0  0  0  0  0
   -3.3980   -3.0870    0.0000 O   0  0  0  0  0  0  0  0  0  0  0  0
   -1.4340   -4.7880    0.0000 O   0  0  0  0  0  0  0  0  0  0  0  0
   -1.2840   -0.7750    0.0000 C   0  0  0  0  0  0  0  0  0  0  0  0
   -2.7670   -1.0000    0.0000 C   0  0  0  0  0  0  0  0  0  0  0  0
   -2.1580    0.4440    0.0000 C   0  0  0  0  0  0  0  0  0  0  0  0
    1.9330   -2.9470    0.0000 C   0  0  0  0  0  0  0  0  0  0  0  0
    2.4980   -4.3360    0.0000 O   0  0  0  0  0  0  0  0  0  0  0  0
    2.5160   -1.5650    0.0000 C   0  0  3  0  0  0  0  0  0  0  0  0
    3.9060   -1.0000    0.0000 N   0  0  0  0  0  0  0  0  0  0  0  0
    5.0900   -1.9210    0.0000 C   0  0  0  0  0  0  0  0  0  0  0  0
    4.8840   -3.4070    0.0000 O   0  0  0  0  0  0  0  0  0  0  0  0
    6.4790   -1.3560    0.0000 C   0  0  3  0  0  0  0  0  0  0  0  0
    6.6850    0.1300    0.0000 N   0  0  0  0  0  0  0  0  0  0  0  0
    8.0740    0.6950    0.0000 N   0  0  0  0  0  0  0  0  0  0  0  0
    8.2800    2.1810    0.0000 N   0  0  0  0  0  0  0  0  0  0  0  0
    7.6630   -2.2770    0.0000 C   0  0  0  0  0  0  0  0  0  0  0  0
    7.4580   -3.7630    0.0000 C   0  0  0  0  0  0  0  0  0  0  0  0
    8.6420   -4.6840    0.0000 C   0  0  0  0  0  0  0  0  0  0  0  0
   10.0310   -4.1190    0.0000 C   0  0  0  0  0  0  0  0  0  0  0  0
   10.2370   -2.6330    0.0000 C   0  0  0  0  0  0  0  0  0  0  0  0
    9.0530   -1.7120    0.0000 C   0  0  0  0  0  0  0  0  0  0  0  0
  1  2  1  0  0  0  0
  1  8  1  0  0  0  0
  2  3  1  0  0  0  0
  2 13  1  0  0  0  0
  3  4  1  0  0  0  0
  3 11  1  0  0  0  0
  4  5  1  0  0  0  0
  4  8  1  0  0  0  0
  5  6  1  0  0  0  0
  5  7  2  0  0  0  0
  8  9  1  0  0  0  0
  8 10  1  0  0  0  0
 11 12  2  0  0  0  0
 11 13  1  0  0  0  0
 13 14  1  0  0  0  0
 14 15  1  0  0  0  0
 15 16  2  0  0  0  0
 15 17  1  0  0  0  0
 17 18  1  0  0  0  0
 17 21  1  0  0  0  0
 18 19  1  0  0  0  0
 19 20  2  0  0  0  0
 21 22  1  0  0  0  0
 21 26  2  0  0  0  0
 22 23  2  0  0  0  0
 23 24  1  0  0  0  0
 24 25  2  0  0  0  0
 25 26  1  0  0  0  0
M  END
>  <Index>
103

>  <ID>
HT0216

>  <class>
0

>  <apol>
52.437065

>  <ast_fraglike>
0

>  <ast_fraglike_ext>
0

>  <ast_violation>
3

>  <ast_violation_ext>
5

>  <a_acc>
6

>  <a_acid>
0

>  <a_aro>
6

>  <a_base>
0

>  <a_count>
45

>  <a_don>
5

>  <a_donacc>
11

>  <a_heavy>
26

>  <a_hyd>
14

>  <a_IC>
82.813126

>  <a_ICM>
1.8402917

>  <a_nB>
0

>  <a_nBr>
0

>  <a_nC>
16

>  <a_nCl>
0

>  <a_nF>
0

>  <a_nH>
19

>  <a_nI>
0

>  <a_nN>
5

>  <a_nO>
4

>  <a_nP>
0

>  <a_nS>
1

>  <balabanJ>
1.6499949

>  <BCUT_PEOE_0>
-2.6463294

>  <BCUT_PEOE_1>
-0.57329607

>  <BCUT_PEOE_2>
0.59513116

>  <BCUT_PEOE_3>
2.8505085

>  <BCUT_SLOGP_0>
-2.9009287

>  <BCUT_SLOGP_1>
-0.52647448

>  <BCUT_SLOGP_2>
0.63347721

>  <BCUT_SLOGP_3>
2.754627

>  <BCUT_SMR_0>
-2.3917718

>  <BCUT_SMR_1>
-0.40676355

>  <BCUT_SMR_2>
0.7837593

>  <BCUT_SMR_3>
3.1312692

>  <bpol>
27.904934

>  <b_1rotN>
6

>  <b_1rotR>
0.21428572

>  <b_ar>
6

>  <b_count>
47

>  <b_double>
4

>  <b_heavy>
28

>  <b_max1len>
4

>  <b_rotN>
7

>  <b_rotR>
0.25

>  <b_single>
37

>  <b_triple>
0

>  <chi0>
19.060114

>  <chi0v>
14.987283

>  <chi0v_C>
9.6961527

>  <chi0_C>
10.654336

>  <chi1>
12.274893

>  <chi1v>
8.85742

>  <chi1v_C>
4.6873927

>  <chi1_C>
5.7718382

>  <chiral>
4

>  <chiral_u>
4

>  <density>
0.83528101

>  <diameter>
12

>  <FCharge>
0

>  <GCUT_PEOE_0>
-0.83781356

>  <GCUT_PEOE_1>
-0.40459204

>  <GCUT_PEOE_2>
0.071455635

>  <GCUT_PEOE_3>
2.7279308

>  <GCUT_SLOGP_0>
-1.1648331

>  <GCUT_SLOGP_1>
-0.36397699

>  <GCUT_SLOGP_2>
0.14064969

>  <GCUT_SLOGP_3>
2.6830161

>  <GCUT_SMR_0>
-0.53671342

>  <GCUT_SMR_1>
-0.22489724

>  <GCUT_SMR_2>
0.19947077

>  <GCUT_SMR_3>
2.9919434

>  <Kier1>
20.727041

>  <Kier2>
8.1632652

>  <Kier3>
3.9381688

>  <KierA1>
16.487238

>  <KierA2>
6.4301338

>  <KierA3>
3.0803795

>  <KierFlex>
4.0775056

>  <lip_acc>
9

>  <lip_don>
4

>  <lip_druglike>
1

>  <lip_violation>
0

>  <logP(o/w)>
0.153

>  <logS>
-3.2608399

>  <mr>
9.5443249

>  <mutagenic>
1

>  <nmol>
1

>  <opr_brigid>
15

>  <opr_leadlike>
1

>  <opr_nring>
3

>  <opr_nrot>
6

>  <opr_violation>
1

>  <PC+>
0

>  <PC->
0

>  <PEOE_PC+>
2.8591125

>  <PEOE_PC->
-2.8591125

>  <PEOE_RPC+>
0.099253364

>  <PEOE_RPC->
0.11897102

>  <PEOE_VSA+0>
25.592316

>  <PEOE_VSA+1>
38.388474

>  <PEOE_VSA+2>
14.559904

>  <PEOE_VSA+3>
17.238026

>  <PEOE_VSA+4>
18.943186

>  <PEOE_VSA+5>
40.607563

>  <PEOE_VSA+6>
0

>  <PEOE_VSA-0>
39.703896

>  <PEOE_VSA-1>
74.434021

>  <PEOE_VSA-2>
19.760618

>  <PEOE_VSA-3>
15.935268

>  <PEOE_VSA-4>
0

>  <PEOE_VSA-5>
44.576118

>  <PEOE_VSA-6>
7.9044313

>  <PEOE_VSA_FHYD>
0.68675178

>  <PEOE_VSA_FNEG>
0.5656867

>  <PEOE_VSA_FPNEG>
0.14673971

>  <PEOE_VSA_FPOL>
0.31324825

>  <PEOE_VSA_FPOS>
0.4343133

>  <PEOE_VSA_FPPOS>
0.16650853

>  <PEOE_VSA_HYD>
245.61252

>  <PEOE_VSA_NEG>
202.31435

>  <PEOE_VSA_PNEG>
52.480549

>  <PEOE_VSA_POL>
112.0313

>  <PEOE_VSA_POS>
155.32947

>  <PEOE_VSA_PPOS>
59.550747

>  <petitjean>
0.5

>  <petitjeanSC>
1

>  <Q_PC+>
0

>  <Q_PC->
0

>  <Q_RPC+>
0

>  <Q_RPC->
0

>  <Q_VSA_FHYD>
1

>  <Q_VSA_FNEG>
0

>  <Q_VSA_FPNEG>
0

>  <Q_VSA_FPOL>
0

>  <Q_VSA_FPOS>
1

>  <Q_VSA_FPPOS>
0

>  <Q_VSA_HYD>
357.64383

>  <Q_VSA_NEG>
0

>  <Q_VSA_PNEG>
0

>  <Q_VSA_POL>
0

>  <Q_VSA_POS>
357.64383

>  <Q_VSA_PPOS>
0

>  <radius>
6

>  <reactive>
0

>  <rings>
3

>  <RPC+>
0

>  <RPC->
0

>  <rsynth>
1

>  <SlogP>
0.99046999

>  <SlogP_VSA0>
35.898979

>  <SlogP_VSA1>
21.387344

>  <SlogP_VSA2>
81.897713

>  <SlogP_VSA3>
25.385227

>  <SlogP_VSA4>
3.185575

>  <SlogP_VSA5>
16.540485

>  <SlogP_VSA6>
0

>  <SlogP_VSA7>
119.76537

>  <SlogP_VSA8>
3.9819686

>  <SlogP_VSA9>
98.871574

>  <SMR>
9.3236904

>  <SMR_VSA0>
71.586647

>  <SMR_VSA1>
19.664799

>  <SMR_VSA2>
92.833649

>  <SMR_VSA3>
17.478609

>  <SMR_VSA4>
0

>  <SMR_VSA5>
88.215919

>  <SMR_VSA6>
18.263031

>  <SMR_VSA7>
98.871574

>  <TPSA>
134.95

>  <VAdjEq>
0.41210872

>  <VAdjMa>
5.8073549

>  <VDistEq>
3.3948767

>  <VDistMa>
9.1175518

>  <vdw_area>
357.64383

>  <vdw_vol>
451.85391

>  <vsa_acc>
40.293346

>  <vsa_acid>
0

>  <vsa_base>
0

>  <vsa_don>
15.103616

>  <vsa_hyd>
188.6028

>  <vsa_other>
40.607563

>  <vsa_pol>
104.01176

>  <Weight>
377.42499

>  <weinerPath>
1674

>  <weinerPol>
42

>  <zagreb>
140

$$$$