P(CCOCC)(CCOCC)CCP(CCOCC)CCOCC
  MOE2013           2D

 24 23  0  0  0  0  0  0  0  0999 V2000
    0.0000    0.0000    0.0000 P   0  0  0  0  0  0  0  0  0  0  0  0
    0.7520   -1.2980    0.0000 C   0  0  0  0  0  0  0  0  0  0  0  0
    2.2520   -1.2950    0.0000 C   0  0  0  0  0  0  0  0  0  0  0  0
    3.0050   -2.5920    0.0000 O   0  0  0  0  0  0  0  0  0  0  0  0
    4.5050   -2.5900    0.0000 C   0  0  0  0  0  0  0  0  0  0  0  0
    5.2570   -3.8870    0.0000 C   0  0  0  0  0  0  0  0  0  0  0  0
    0.7480    1.3000    0.0000 C   0  0  0  0  0  0  0  0  0  0  0  0
   -0.0050    2.5980    0.0000 C   0  0  0  0  0  0  0  0  0  0  0  0
    0.7430    3.8990    0.0000 O   0  0  0  0  0  0  0  0  0  0  0  0
   -0.0100    5.1960    0.0000 C   0  0  0  0  0  0  0  0  0  0  0  0
    0.7380    6.4970    0.0000 C   0  0  0  0  0  0  0  0  0  0  0  0
   -1.5000   -0.0030    0.0000 C   0  0  0  0  0  0  0  0  0  0  0  0
   -2.2480   -1.3030    0.0000 C   0  0  0  0  0  0  0  0  0  0  0  0
   -3.7480   -1.3060    0.0000 P   0  0  0  0  0  0  0  0  0  0  0  0
   -4.4950   -2.6070    0.0000 C   0  0  0  0  0  0  0  0  0  0  0  0
   -3.7430   -3.9040    0.0000 C   0  0  0  0  0  0  0  0  0  0  0  0
   -4.4900   -5.2050    0.0000 O   0  0  0  0  0  0  0  0  0  0  0  0
   -3.7380   -6.5020    0.0000 C   0  0  0  0  0  0  0  0  0  0  0  0
   -4.4850   -7.8030    0.0000 C   0  0  0  0  0  0  0  0  0  0  0  0
   -4.5000   -0.0080    0.0000 C   0  0  0  0  0  0  0  0  0  0  0  0
   -6.0000   -0.0110    0.0000 C   0  0  0  0  0  0  0  0  0  0  0  0
   -6.7520    1.2860    0.0000 O   0  0  0  0  0  0  0  0  0  0  0  0
   -8.2520    1.2830    0.0000 C   0  0  0  0  0  0  0  0  0  0  0  0
   -9.0050    2.5810    0.0000 C   0  0  0  0  0  0  0  0  0  0  0  0
  1  2  1  0  0  0  0
  1  7  1  0  0  0  0
  1 12  1  0  0  0  0
  2  3  1  0  0  0  0
  3  4  1  0  0  0  0
  4  5  1  0  0  0  0
  5  6  1  0  0  0  0
  7  8  1  0  0  0  0
  8  9  1  0  0  0  0
  9 10  1  0  0  0  0
 10 11  1  0  0  0  0
 12 13  1  0  0  0  0
 13 14  1  0  0  0  0
 14 15  1  0  0  0  0
 14 20  1  0  0  0  0
 15 16  1  0  0  0  0
 16 17  1  0  0  0  0
 17 18  1  0  0  0  0
 18 19  1  0  0  0  0
 20 21  1  0  0  0  0
 21 22  1  0  0  0  0
 22 23  1  0  0  0  0
 23 24  1  0  0  0  0
M  END
>  <Index>
1063

>  <ID>
HT2031

>  <class>
0

>  <apol>
68.819717

>  <ast_fraglike>
0

>  <ast_fraglike_ext>
0

>  <ast_violation>
3

>  <ast_violation_ext>
4

>  <a_acc>
4

>  <a_acid>
0

>  <a_aro>
0

>  <a_base>
0

>  <a_count>
64

>  <a_don>
0

>  <a_donacc>
4

>  <a_heavy>
24

>  <a_hyd>
18

>  <a_IC>
86.064224

>  <a_ICM>
1.3447535

>  <a_nB>
0

>  <a_nBr>
0

>  <a_nC>
18

>  <a_nCl>
0

>  <a_nF>
0

>  <a_nH>
40

>  <a_nI>
0

>  <a_nN>
0

>  <a_nO>
4

>  <a_nP>
2

>  <a_nS>
0

>  <balabanJ>
4.2140741

>  <BCUT_PEOE_0>
-2.6969478

>  <BCUT_PEOE_1>
-0.15913625

>  <BCUT_PEOE_2>
0.055688195

>  <BCUT_PEOE_3>
2.6788099

>  <BCUT_SLOGP_0>
-2.6717889

>  <BCUT_SLOGP_1>
0.026863819

>  <BCUT_SLOGP_2>
0.123

>  <BCUT_SLOGP_3>
2.8102109

>  <BCUT_SMR_0>
-2.383482

>  <BCUT_SMR_1>
0.1057

>  <BCUT_SMR_2>
0.10710008

>  <BCUT_SMR_3>
3.0219893

>  <bpol>
62.612282

>  <b_1rotN>
19

>  <b_1rotR>
0.82608694

>  <b_ar>
0

>  <b_count>
63

>  <b_double>
0

>  <b_heavy>
23

>  <b_max1len>
15

>  <b_rotN>
19

>  <b_rotR>
0.82608694

>  <b_single>
63

>  <b_triple>
0

>  <chi0>
17.882622

>  <chi0v>
18.215769

>  <chi0v_C>
13.899495

>  <chi0_C>
13.899495

>  <chi1>
11.777917

>  <chi1v>
13.329928

>  <chi1v_C>
5.3284273

>  <chi1_C>
5.3284273

>  <chiral>
0

>  <chiral_u>
0

>  <density>
0.69041014

>  <diameter>
13

>  <FCharge>
0

>  <GCUT_PEOE_0>
-0.82384008

>  <GCUT_PEOE_1>
-0.32813185

>  <GCUT_PEOE_2>
-0.1043118

>  <GCUT_PEOE_3>
2.7908869

>  <GCUT_SLOGP_0>
-0.88023061

>  <GCUT_SLOGP_1>
-0.19271269

>  <GCUT_SLOGP_2>
-0.037

>  <GCUT_SLOGP_3>
2.8853607

>  <GCUT_SMR_0>
-0.52063161

>  <GCUT_SMR_1>
-0.097367786

>  <GCUT_SMR_2>
-0.054299999

>  <GCUT_SMR_3>
3.0624435

>  <Kier1>
24

>  <Kier2>
19.326389

>  <Kier3>
16.2624

>  <KierA1>
27.518478

>  <KierA2>
22.292767

>  <KierA3>
18.839201

>  <KierFlex>
25.560959

>  <lip_acc>
4

>  <lip_don>
0

>  <lip_druglike>
1

>  <lip_violation>
0

>  <logP(o/w)>
-0.168

>  <logS>
-0.79233998

>  <mr>
11.134774

>  <mutagenic>
0

>  <nmol>
1

>  <opr_brigid>
0

>  <opr_leadlike>
1

>  <opr_nring>
0

>  <opr_nrot>
19

>  <opr_violation>
1

>  <PC+>
0

>  <PC->
0

>  <PEOE_PC+>
2.0200393

>  <PEOE_PC->
-2.0200393

>  <PEOE_RPC+>
0.05329543

>  <PEOE_RPC->
0.18836623

>  <PEOE_VSA+0>
221.97961

>  <PEOE_VSA+1>
68.246178

>  <PEOE_VSA+2>
20.475479

>  <PEOE_VSA+3>
0

>  <PEOE_VSA+4>
0

>  <PEOE_VSA+5>
0

>  <PEOE_VSA+6>
0

>  <PEOE_VSA-0>
115.87801

>  <PEOE_VSA-1>
20.443653

>  <PEOE_VSA-2>
0

>  <PEOE_VSA-3>
0

>  <PEOE_VSA-4>
0

>  <PEOE_VSA-5>
0

>  <PEOE_VSA-6>
10.015024

>  <PEOE_VSA_FHYD>
0.97808713

>  <PEOE_VSA_FNEG>
0.32018498

>  <PEOE_VSA_FPNEG>
0.021912895

>  <PEOE_VSA_FPOL>
0.021912895

>  <PEOE_VSA_FPOS>
0.67981499

>  <PEOE_VSA_FPPOS>
0

>  <PEOE_VSA_HYD>
447.02292

>  <PEOE_VSA_NEG>
146.33669

>  <PEOE_VSA_PNEG>
10.015024

>  <PEOE_VSA_POL>
10.015024

>  <PEOE_VSA_POS>
310.70126

>  <PEOE_VSA_PPOS>
0

>  <petitjean>
0.46153846

>  <petitjeanSC>
0.85714287

>  <Q_PC+>
0

>  <Q_PC->
0

>  <Q_RPC+>
0

>  <Q_RPC->
0

>  <Q_VSA_FHYD>
1

>  <Q_VSA_FNEG>
0

>  <Q_VSA_FPNEG>
0

>  <Q_VSA_FPOL>
0

>  <Q_VSA_FPOS>
1

>  <Q_VSA_FPPOS>
0

>  <Q_VSA_HYD>
457.03796

>  <Q_VSA_NEG>
0

>  <Q_VSA_PNEG>
0

>  <Q_VSA_POL>
0

>  <Q_VSA_POS>
457.03796

>  <Q_VSA_PPOS>
0

>  <radius>
7

>  <reactive>
1

>  <rings>
0

>  <RPC+>
0

>  <RPC->
0

>  <rsynth>
1

>  <SlogP>
4.0962

>  <SlogP_VSA0>
0

>  <SlogP_VSA1>
0

>  <SlogP_VSA2>
43.99955

>  <SlogP_VSA3>
263.64551

>  <SlogP_VSA4>
0

>  <SlogP_VSA5>
0

>  <SlogP_VSA6>
0

>  <SlogP_VSA7>
0

>  <SlogP_VSA8>
0

>  <SlogP_VSA9>
180.60121

>  <SMR>
10.9014

>  <SMR_VSA0>
43.99955

>  <SMR_VSA1>
0

>  <SMR_VSA2>
0

>  <SMR_VSA3>
0

>  <SMR_VSA4>
0

>  <SMR_VSA5>
0

>  <SMR_VSA6>
263.64551

>  <SMR_VSA7>
180.60121

>  <TPSA>
64.099998

>  <VAdjEq>
0.40168962

>  <VAdjMa>
5.523562

>  <VDistEq>
3.5754223

>  <VDistMa>
8.8910675

>  <vdw_area>
457.03796

>  <vdw_vol>
553.96344

>  <vsa_acc>
10.015024

>  <vsa_acid>
0

>  <vsa_base>
0

>  <vsa_don>
0

>  <vsa_hyd>
398.07565

>  <vsa_other>
20.475479

>  <vsa_pol>
10.015024

>  <Weight>
382.46201

>  <weinerPath>
1650

>  <weinerPol>
25

>  <zagreb>
94

$$$$