O(C(=O)C(CC1(CCCC1)C(=O)NC1CCC(CC1)C(O)=O)COCCOC)c1cc2CCCc2cc1
  MOE2013           2D

 37 40  0  0  1  0  0  0  0  0999 V2000
    0.0000    0.0000    0.0000 O   0  0  0  0  0  0  0  0  0  0  0  0
    1.5000    0.0040    0.0000 C   0  0  0  0  0  0  0  0  0  0  0  0
    2.2460    1.3050    0.0000 O   0  0  0  0  0  0  0  0  0  0  0  0
    2.2540   -1.2930    0.0000 C   0  0  3  0  0  0  0  0  0  0  0  0
    3.7540   -1.2890    0.0000 C   0  0  0  0  0  0  0  0  0  0  0  0
    4.5070   -2.5860    0.0000 C   0  0  0  0  0  0  0  0  0  0  0  0
    3.3120   -3.4920    0.0000 C   0  0  0  0  0  0  0  0  0  0  0  0
    3.8040   -4.9090    0.0000 C   0  0  0  0  0  0  0  0  0  0  0  0
    5.3040   -4.8780    0.0000 C   0  0  0  0  0  0  0  0  0  0  0  0
    5.7380   -3.4430    0.0000 C   0  0  0  0  0  0  0  0  0  0  0  0
    5.2990   -1.3110    0.0000 C   0  0  0  0  0  0  0  0  0  0  0  0
    4.5910    0.0110    0.0000 O   0  0  0  0  0  0  0  0  0  0  0  0
    6.7980   -1.3600    0.0000 N   0  0  0  0  0  0  0  0  0  0  0  0
    7.5890   -0.0850    0.0000 C   0  0  0  0  0  0  0  0  0  0  0  0
    9.0880   -0.1340    0.0000 C   0  0  0  0  0  0  0  0  0  0  0  0
    9.8800    1.1410    0.0000 C   0  0  0  0  0  0  0  0  0  0  0  0
    9.1720    2.4630    0.0000 C   0  0  0  0  0  0  0  0  0  0  0  0
    7.6730    2.5110    0.0000 C   0  0  0  0  0  0  0  0  0  0  0  0
    6.8810    1.2370    0.0000 C   0  0  0  0  0  0  0  0  0  0  0  0
    9.9630    3.7370    0.0000 C   0  0  0  0  0  0  0  0  0  0  0  0
   11.4620    3.6890    0.0000 O   0  0  0  0  0  0  0  0  0  0  0  0
    9.2550    5.0600    0.0000 O   0  0  0  0  0  0  0  0  0  0  0  0
    1.5070   -2.5940    0.0000 C   0  0  0  0  0  0  0  0  0  0  0  0
    0.0070   -2.5980    0.0000 O   0  0  0  0  0  0  0  0  0  0  0  0
   -0.7390   -3.8990    0.0000 C   0  0  0  0  0  0  0  0  0  0  0  0
   -2.2390   -3.9030    0.0000 C   0  0  0  0  0  0  0  0  0  0  0  0
   -2.9860   -5.2040    0.0000 O   0  0  0  0  0  0  0  0  0  0  0  0
   -4.4860   -5.2090    0.0000 C   0  0  0  0  0  0  0  0  0  0  0  0
   -0.7540    1.2970    0.0000 C   0  0  0  0  0  0  0  0  0  0  0  0
   -2.2540    1.2930    0.0000 C   0  0  0  0  0  0  0  0  0  0  0  0
   -3.0070    2.5900    0.0000 C   0  0  0  0  0  0  0  0  0  0  0  0
   -4.4750    2.8980    0.0000 C   0  0  0  0  0  0  0  0  0  0  0  0
   -4.6360    4.3890    0.0000 C   0  0  0  0  0  0  0  0  0  0  0  0
   -3.2670    5.0030    0.0000 C   0  0  0  0  0  0  0  0  0  0  0  0
   -2.2610    3.8910    0.0000 C   0  0  0  0  0  0  0  0  0  0  0  0
   -0.7610    3.8950    0.0000 C   0  0  0  0  0  0  0  0  0  0  0  0
   -0.0070    2.5980    0.0000 C   0  0  0  0  0  0  0  0  0  0  0  0
  1  2  1  0  0  0  0
  1 29  1  0  0  0  0
  2  3  2  0  0  0  0
  2  4  1  0  0  0  0
  4  5  1  0  0  0  0
  4 23  1  0  0  0  0
  5  6  1  0  0  0  0
  6  7  1  0  0  0  0
  6 10  1  0  0  0  0
  6 11  1  0  0  0  0
  7  8  1  0  0  0  0
  8  9  1  0  0  0  0
  9 10  1  0  0  0  0
 11 12  2  0  0  0  0
 11 13  1  0  0  0  0
 13 14  1  0  0  0  0
 14 15  1  0  0  0  0
 14 19  1  0  0  0  0
 15 16  1  0  0  0  0
 16 17  1  0  0  0  0
 17 18  1  0  0  0  0
 17 20  1  0  0  0  0
 18 19  1  0  0  0  0
 20 21  1  0  0  0  0
 20 22  2  0  0  0  0
 23 24  1  0  0  0  0
 24 25  1  0  0  0  0
 25 26  1  0  0  0  0
 26 27  1  0  0  0  0
 27 28  1  0  0  0  0
 29 30  1  0  0  0  0
 29 37  2  0  0  0  0
 30 31  2  0  0  0  0
 31 32  1  0  0  0  0
 31 35  1  0  0  0  0
 32 33  1  0  0  0  0
 33 34  1  0  0  0  0
 34 35  1  0  0  0  0
 35 36  2  0  0  0  0
 36 37  1  0  0  0  0
M  END
>  <Index>
184

>  <ID>
HT0362

>  <class>
0

>  <apol>
85.092514

>  <ast_fraglike>
0

>  <ast_fraglike_ext>
0

>  <ast_violation>
3

>  <ast_violation_ext>
5

>  <a_acc>
6

>  <a_acid>
0

>  <a_aro>
6

>  <a_base>
0

>  <a_count>
78

>  <a_don>
3

>  <a_donacc>
9

>  <a_heavy>
37

>  <a_hyd>
26

>  <a_IC>
110.06881

>  <a_ICM>
1.4111385

>  <a_nB>
0

>  <a_nBr>
0

>  <a_nC>
29

>  <a_nCl>
0

>  <a_nF>
0

>  <a_nH>
41

>  <a_nI>
0

>  <a_nN>
1

>  <a_nO>
7

>  <a_nP>
0

>  <a_nS>
0

>  <balabanJ>
1.3637539

>  <BCUT_PEOE_0>
-2.7872217

>  <BCUT_PEOE_1>
-0.45589113

>  <BCUT_PEOE_2>
0.42933384

>  <BCUT_PEOE_3>
2.8358507

>  <BCUT_SLOGP_0>
-2.815284

>  <BCUT_SLOGP_1>
-0.41176069

>  <BCUT_SLOGP_2>
0.4904041

>  <BCUT_SLOGP_3>
2.9089818

>  <BCUT_SMR_0>
-2.54163

>  <BCUT_SMR_1>
-0.29222402

>  <BCUT_SMR_2>
0.57147884

>  <BCUT_SMR_3>
3.0763173

>  <bpol>
54.103485

>  <b_1rotN>
12

>  <b_1rotR>
0.30000001

>  <b_ar>
6

>  <b_count>
81

>  <b_double>
3

>  <b_heavy>
40

>  <b_max1len>
10

>  <b_rotN>
14

>  <b_rotR>
0.34999999

>  <b_single>
72

>  <b_triple>
0

>  <chi0>
26.252502

>  <chi0v>
21.967407

>  <chi0v_C>
18.570704

>  <chi0_C>
19.424074

>  <chi1>
17.897816

>  <chi1v>
13.839817

>  <chi1v_C>
10.78264

>  <chi1_C>
11.748315

>  <chiral>
1

>  <chiral_u>
1

>  <density>
0.72689527

>  <diameter>
17

>  <FCharge>
0

>  <GCUT_PEOE_0>
-0.84080797

>  <GCUT_PEOE_1>
-0.40682098

>  <GCUT_PEOE_2>
0.040397808

>  <GCUT_PEOE_3>
3.0871518

>  <GCUT_SLOGP_0>
-1.1624686

>  <GCUT_SLOGP_1>
-0.34132758

>  <GCUT_SLOGP_2>
0.057484232

>  <GCUT_SLOGP_3>
3.1190324

>  <GCUT_SMR_0>
-0.53325146

>  <GCUT_SMR_1>
-0.20670107

>  <GCUT_SMR_2>
0.13076442

>  <GCUT_SMR_3>
3.3099141

>  <Kier1>
29.969999

>  <Kier2>
14.578512

>  <Kier3>
8.2555046

>  <KierA1>
25.620451

>  <KierA2>
12.406017

>  <KierA3>
7.0022235

>  <KierFlex>
8.5904799

>  <lip_acc>
8

>  <lip_don>
2

>  <lip_druglike>
1

>  <lip_violation>
1

>  <logP(o/w)>
3.6507399

>  <logS>
-5.4302602

>  <mr>
14.085867

>  <mutagenic>
0

>  <nmol>
1

>  <opr_brigid>
21

>  <opr_leadlike>
0

>  <opr_nring>
4

>  <opr_nrot>
15

>  <opr_violation>
2

>  <PC+>
0

>  <PC->
0

>  <PEOE_PC+>
3.1688023

>  <PEOE_PC->
-3.1688023

>  <PEOE_RPC+>
0.085984312

>  <PEOE_RPC->
0.12014373

>  <PEOE_VSA+0>
139.04366

>  <PEOE_VSA+1>
108.76241

>  <PEOE_VSA+2>
0

>  <PEOE_VSA+3>
8.6190128

>  <PEOE_VSA+4>
23.273705

>  <PEOE_VSA+5>
29.416998

>  <PEOE_VSA+6>
0

>  <PEOE_VSA-0>
115.94002

>  <PEOE_VSA-1>
29.65753

>  <PEOE_VSA-2>
0

>  <PEOE_VSA-3>
0

>  <PEOE_VSA-4>
0

>  <PEOE_VSA-5>
43.204517

>  <PEOE_VSA-6>
12.911943

>  <PEOE_VSA_FHYD>
0.78699917

>  <PEOE_VSA_FNEG>
0.3948752

>  <PEOE_VSA_FPNEG>
0.10985354

>  <PEOE_VSA_FPOL>
0.21300082

>  <PEOE_VSA_FPOS>
0.60512483

>  <PEOE_VSA_FPPOS>
0.10314728

>  <PEOE_VSA_HYD>
402.02264

>  <PEOE_VSA_NEG>
201.71402

>  <PEOE_VSA_PNEG>
56.116463

>  <PEOE_VSA_POL>
108.80717

>  <PEOE_VSA_POS>
309.11578

>  <PEOE_VSA_PPOS>
52.690701

>  <petitjean>
0.47058824

>  <petitjeanSC>
0.8888889

>  <Q_PC+>
0

>  <Q_PC->
0

>  <Q_RPC+>
0

>  <Q_RPC->
0

>  <Q_VSA_FHYD>
1

>  <Q_VSA_FNEG>
0

>  <Q_VSA_FPNEG>
0

>  <Q_VSA_FPOL>
0

>  <Q_VSA_FPOS>
1

>  <Q_VSA_FPPOS>
0

>  <Q_VSA_HYD>
510.8298

>  <Q_VSA_NEG>
0

>  <Q_VSA_PNEG>
0

>  <Q_VSA_POL>
0

>  <Q_VSA_POS>
510.8298

>  <Q_VSA_PPOS>
0

>  <radius>
9

>  <reactive>
0

>  <rings>
4

>  <RPC+>
0

>  <RPC->
0

>  <rsynth>
1

>  <SlogP>
4.0699401

>  <SlogP_VSA0>
29.010639

>  <SlogP_VSA1>
20.749712

>  <SlogP_VSA2>
97.56839

>  <SlogP_VSA3>
88.164001

>  <SlogP_VSA4>
15.192742

>  <SlogP_VSA5>
73.120682

>  <SlogP_VSA6>
0

>  <SlogP_VSA7>
52.929554

>  <SlogP_VSA8>
188.68405

>  <SlogP_VSA9>
5.2434282

>  <SMR>
13.73295

>  <SMR_VSA0>
93.586426

>  <SMR_VSA1>
10.999887

>  <SMR_VSA2>
52.217567

>  <SMR_VSA3>
15.596547

>  <SMR_VSA4>
0

>  <SMR_VSA5>
279.35043

>  <SMR_VSA6>
83.528488

>  <SMR_VSA7>
35.383869

>  <TPSA>
111.16

>  <VAdjEq>
0.32120815

>  <VAdjMa>
6.321928

>  <VDistEq>
3.8695233

>  <VDistMa>
10.147754

>  <vdw_area>
510.8298

>  <vdw_vol>
709.38275

>  <vsa_acc>
32.141354

>  <vsa_acid>
0

>  <vsa_base>
0

>  <vsa_don>
5.6825762

>  <vsa_hyd>
362.95349

>  <vsa_other>
44.870285

>  <vsa_pol>
64.957771

>  <Weight>
515.64697

>  <weinerPath>
4662

>  <weinerPol>
55

>  <zagreb>
190

$$$$