OCC1CC(NCC(=O)N2CCC[C@H]2C#N)C2C(C1)CC2
  MOE2013           2D

 21 23  0  0  1  0  0  0  0  0999 V2000
    0.0000    0.0000    0.0000 O   0  0  0  0  0  0  0  0  0  0  0  0
    1.5000   -0.0120    0.0000 C   0  0  0  0  0  0  0  0  0  0  0  0
    2.2600    1.2810    0.0000 C   0  0  3  0  0  0  0  0  0  0  0  0
    3.7600    1.2680    0.0000 C   0  0  0  0  0  0  0  0  0  0  0  0
    4.5210    2.5610    0.0000 C   0  0  3  0  0  0  0  0  0  0  0  0
    6.0210    2.5490    0.0000 N   0  0  0  0  0  0  0  0  0  0  0  0
    6.7600    1.2440    0.0000 C   0  0  0  0  0  0  0  0  0  0  0  0
    8.2600    1.2320    0.0000 C   0  0  0  0  0  0  0  0  0  0  0  0
    9.0210    2.5250    0.0000 O   0  0  0  0  0  0  0  0  0  0  0  0
    9.0000   -0.0730    0.0000 N   0  0  0  0  0  0  0  0  0  0  0  0
    8.3780   -1.4390    0.0000 C   0  0  0  0  0  0  0  0  0  0  0  0
    9.4850   -2.4510    0.0000 C   0  0  0  0  0  0  0  0  0  0  0  0
   10.7900   -1.7120    0.0000 C   0  0  0  0  0  0  0  0  0  0  0  0
   10.4900   -0.2420    0.0000 C   0  0  1  0  0  0  0  0  0  0  0  0
   11.5030    0.8640    0.0000 C   0  0  0  0  0  0  0  0  0  0  0  0
   12.5160    1.9710    0.0000 N   0  0  0  0  0  0  0  0  0  0  0  0
    3.7820    3.8660    0.0000 C   0  0  3  0  0  0  0  0  0  0  0  0
    2.2820    3.8790    0.0000 C   0  0  3  0  0  0  0  0  0  0  0  0
    1.5210    2.5860    0.0000 C   0  0  0  0  0  0  0  0  0  0  0  0
    2.2940    5.3790    0.0000 C   0  0  0  0  0  0  0  0  0  0  0  0
    3.7940    5.3660    0.0000 C   0  0  0  0  0  0  0  0  0  0  0  0
  1  2  1  0  0  0  0
  2  3  1  0  0  0  0
  3  4  1  0  0  0  0
  3 19  1  0  0  0  0
  4  5  1  0  0  0  0
  5  6  1  0  0  0  0
  5 17  1  0  0  0  0
  6  7  1  0  0  0  0
  7  8  1  0  0  0  0
  8  9  2  0  0  0  0
  8 10  1  0  0  0  0
 10 11  1  0  0  0  0
 10 14  1  0  0  0  0
 11 12  1  0  0  0  0
 12 13  1  0  0  0  0
 13 14  1  0  0  0  0
 14 15  1  6  0  0  0
 15 16  3  0  0  0  0
 17 18  1  0  0  0  0
 17 21  1  0  0  0  0
 18 19  1  0  0  0  0
 18 20  1  0  0  0  0
 20 21  1  0  0  0  0
M  END
>  <Index>
1144

>  <ID>
HT2179

>  <class>
0

>  <apol>
49.733826

>  <ast_fraglike>
0

>  <ast_fraglike_ext>
0

>  <ast_violation>
1

>  <ast_violation_ext>
2

>  <a_acc>
4

>  <a_acid>
0

>  <a_aro>
0

>  <a_base>
0

>  <a_count>
46

>  <a_don>
2

>  <a_donacc>
6

>  <a_heavy>
21

>  <a_hyd>
14

>  <a_IC>
67.232559

>  <a_ICM>
1.4615773

>  <a_nB>
0

>  <a_nBr>
0

>  <a_nC>
16

>  <a_nCl>
0

>  <a_nF>
0

>  <a_nH>
25

>  <a_nI>
0

>  <a_nN>
3

>  <a_nO>
2

>  <a_nP>
0

>  <a_nS>
0

>  <balabanJ>
1.4932992

>  <BCUT_PEOE_0>
-2.9519112

>  <BCUT_PEOE_1>
-0.55047262

>  <BCUT_PEOE_2>
0.59274858

>  <BCUT_PEOE_3>
2.9005306

>  <BCUT_SLOGP_0>
-2.93784

>  <BCUT_SLOGP_1>
-0.50406951

>  <BCUT_SLOGP_2>
0.56843603

>  <BCUT_SLOGP_3>
2.9656484

>  <BCUT_SMR_0>
-2.6969836

>  <BCUT_SMR_1>
-0.43223214

>  <BCUT_SMR_2>
0.70555043

>  <BCUT_SMR_3>
3.1551402

>  <bpol>
31.588175

>  <b_1rotN>
5

>  <b_1rotR>
0.2173913

>  <b_ar>
0

>  <b_count>
48

>  <b_double>
1

>  <b_heavy>
23

>  <b_max1len>
4

>  <b_rotN>
6

>  <b_rotR>
0.26086956

>  <b_single>
46

>  <b_triple>
1

>  <chi0>
14.819627

>  <chi0v>
12.500602

>  <chi0v_C>
10.250712

>  <chi0_C>
10.53517

>  <chi1>
10.223877

>  <chi1v>
8.2591019

>  <chi1v_C>
6.0748816

>  <chi1_C>
6.2491498

>  <chiral>
5

>  <chiral_u>
4

>  <density>
0.71426183

>  <diameter>
11

>  <FCharge>
0

>  <GCUT_PEOE_0>
-0.85614473

>  <GCUT_PEOE_1>
-0.39484245

>  <GCUT_PEOE_2>
0.062860936

>  <GCUT_PEOE_3>
2.883106

>  <GCUT_SLOGP_0>
-1.1542804

>  <GCUT_SLOGP_1>
-0.35608122

>  <GCUT_SLOGP_2>
0.08984898

>  <GCUT_SLOGP_3>
2.8937452

>  <GCUT_SMR_0>
-0.58776671

>  <GCUT_SMR_1>
-0.23626637

>  <GCUT_SMR_2>
0.15892214

>  <GCUT_SMR_3>
3.107218

>  <Kier1>
15.879017

>  <Kier2>
7.0507812

>  <Kier3>
3.3471074

>  <KierA1>
13.754622

>  <KierA2>
6.0610719

>  <KierA3>
2.8604765

>  <KierFlex>
3.969893

>  <lip_acc>
5

>  <lip_don>
2

>  <lip_druglike>
1

>  <lip_violation>
0

>  <logP(o/w)>
0.71600002

>  <logS>
-1.79847

>  <mr>
8.0789995

>  <mutagenic>
0

>  <nmol>
1

>  <opr_brigid>
14

>  <opr_leadlike>
1

>  <opr_nring>
3

>  <opr_nrot>
7

>  <opr_violation>
0

>  <PC+>
0

>  <PC->
0

>  <PEOE_PC+>
1.7915782

>  <PEOE_PC->
-1.7915782

>  <PEOE_RPC+>
0.13305092

>  <PEOE_RPC->
0.22032724

>  <PEOE_VSA+0>
108.06653

>  <PEOE_VSA+1>
54.81876

>  <PEOE_VSA+2>
11.764974

>  <PEOE_VSA+3>
0

>  <PEOE_VSA+4>
23.273705

>  <PEOE_VSA+5>
0

>  <PEOE_VSA+6>
0

>  <PEOE_VSA-0>
52.207878

>  <PEOE_VSA-1>
0

>  <PEOE_VSA-2>
0

>  <PEOE_VSA-3>
17.742489

>  <PEOE_VSA-4>
0

>  <PEOE_VSA-5>
13.566921

>  <PEOE_VSA-6>
7.9044313

>  <PEOE_VSA_FHYD>
0.84535778

>  <PEOE_VSA_FNEG>
0.3159602

>  <PEOE_VSA_FPNEG>
0.074206576

>  <PEOE_VSA_FPOL>
0.15464221

>  <PEOE_VSA_FPOS>
0.68403977

>  <PEOE_VSA_FPPOS>
0.080435634

>  <PEOE_VSA_HYD>
244.60063

>  <PEOE_VSA_NEG>
91.421722

>  <PEOE_VSA_PNEG>
21.471352

>  <PEOE_VSA_POL>
44.745056

>  <PEOE_VSA_POS>
197.92397

>  <PEOE_VSA_PPOS>
23.273705

>  <petitjean>
0.45454547

>  <petitjeanSC>
0.83333331

>  <Q_PC+>
0

>  <Q_PC->
0

>  <Q_RPC+>
0

>  <Q_RPC->
0

>  <Q_VSA_FHYD>
1

>  <Q_VSA_FNEG>
0

>  <Q_VSA_FPNEG>
0

>  <Q_VSA_FPOL>
0

>  <Q_VSA_FPOS>
1

>  <Q_VSA_FPPOS>
0

>  <Q_VSA_HYD>
289.34567

>  <Q_VSA_NEG>
0

>  <Q_VSA_PNEG>
0

>  <Q_VSA_POL>
0

>  <Q_VSA_POS>
289.34567

>  <Q_VSA_PPOS>
0

>  <radius>
6

>  <reactive>
0

>  <rings>
3

>  <RPC+>
0

>  <RPC->
0

>  <rsynth>
0.47619048

>  <SlogP>
0.88768399

>  <SlogP_VSA0>
43.395977

>  <SlogP_VSA1>
8.3830976

>  <SlogP_VSA2>
31.826153

>  <SlogP_VSA3>
105.46651

>  <SlogP_VSA4>
13.232388

>  <SlogP_VSA5>
0

>  <SlogP_VSA6>
0

>  <SlogP_VSA7>
0

>  <SlogP_VSA8>
113.21043

>  <SlogP_VSA9>
0

>  <SMR>
7.8162498

>  <SMR_VSA0>
23.862217

>  <SMR_VSA1>
59.568897

>  <SMR_VSA2>
31.243139

>  <SMR_VSA3>
24.565683

>  <SMR_VSA4>
0

>  <SMR_VSA5>
113.21043

>  <SMR_VSA6>
63.064198

>  <SMR_VSA7>
0

>  <TPSA>
76.360001

>  <VAdjEq>
0.48250595

>  <VAdjMa>
5.523562

>  <VDistEq>
3.2583001

>  <VDistMa>
8.4797106

>  <vdw_area>
289.34567

>  <vdw_vol>
407.96664

>  <vsa_acc>
31.30941

>  <vsa_acid>
0

>  <vsa_base>
0

>  <vsa_don>
0

>  <vsa_hyd>
177.53317

>  <vsa_other>
33.249039

>  <vsa_pol>
50.558907

>  <Weight>
291.39499

>  <weinerPath>
989

>  <weinerPol>
30

>  <zagreb>
110

$$$$