O(N)c1ccccc1C(O)=O
  MOE2013           2D

 11 11  0  0  0  0  0  0  0  0999 V2000
    0.0000    0.0000    0.0000 O   0  0  0  0  0  0  0  0  0  0  0  0
    0.7390    1.3050    0.0000 N   0  0  0  0  0  0  0  0  0  0  0  0
    0.7610   -1.2930    0.0000 C   0  0  0  0  0  0  0  0  0  0  0  0
    2.2610   -1.2800    0.0000 C   0  0  0  0  0  0  0  0  0  0  0  0
    3.0210   -2.5730    0.0000 C   0  0  0  0  0  0  0  0  0  0  0  0
    2.2820   -3.8780    0.0000 C   0  0  0  0  0  0  0  0  0  0  0  0
    0.7820   -3.8910    0.0000 C   0  0  0  0  0  0  0  0  0  0  0  0
    0.0210   -2.5980    0.0000 C   0  0  0  0  0  0  0  0  0  0  0  0
   -1.4780   -2.6100    0.0000 C   0  0  0  0  0  0  0  0  0  0  0  0
   -2.2180   -3.9160    0.0000 O   0  0  0  0  0  0  0  0  0  0  0  0
   -2.2390   -1.3180    0.0000 O   0  0  0  0  0  0  0  0  0  0  0  0
  1  2  1  0  0  0  0
  1  3  1  0  0  0  0
  3  4  1  0  0  0  0
  3  8  2  0  0  0  0
  4  5  2  0  0  0  0
  5  6  1  0  0  0  0
  6  7  2  0  0  0  0
  7  8  1  0  0  0  0
  8  9  1  0  0  0  0
  9 10  1  0  0  0  0
  9 11  2  0  0  0  0
M  END
>  <Index>
180

>  <ID>
HT0353

>  <class>
0

>  <apol>
20.493551

>  <ast_fraglike>
0

>  <ast_fraglike_ext>
0

>  <ast_violation>
1

>  <ast_violation_ext>
1

>  <a_acc>
4

>  <a_acid>
0

>  <a_aro>
6

>  <a_base>
0

>  <a_count>
18

>  <a_don>
3

>  <a_donacc>
7

>  <a_heavy>
11

>  <a_hyd>
6

>  <a_IC>
31.000793

>  <a_ICM>
1.7222663

>  <a_nB>
0

>  <a_nBr>
0

>  <a_nC>
7

>  <a_nCl>
0

>  <a_nF>
0

>  <a_nH>
7

>  <a_nI>
0

>  <a_nN>
1

>  <a_nO>
3

>  <a_nP>
0

>  <a_nS>
0

>  <balabanJ>
2.4881821

>  <BCUT_PEOE_0>
-2.2043386

>  <BCUT_PEOE_1>
-0.61443311

>  <BCUT_PEOE_2>
0.65356934

>  <BCUT_PEOE_3>
2.2098138

>  <BCUT_SLOGP_0>
-2.4268794

>  <BCUT_SLOGP_1>
-0.55460829

>  <BCUT_SLOGP_2>
0.74289697

>  <BCUT_SLOGP_3>
2.3283954

>  <BCUT_SMR_0>
-1.898249

>  <BCUT_SMR_1>
-0.44408256

>  <BCUT_SMR_2>
0.80696386

>  <BCUT_SMR_3>
2.505543

>  <bpol>
8.5464487

>  <b_1rotN>
2

>  <b_1rotR>
0.18181819

>  <b_ar>
6

>  <b_count>
18

>  <b_double>
1

>  <b_heavy>
11

>  <b_max1len>
2

>  <b_rotN>
2

>  <b_rotR>
0.18181819

>  <b_single>
11

>  <b_triple>
0

>  <chi0>
8.2675848

>  <chi0v>
5.6504617

>  <chi0v_C>
3.809401

>  <chi0_C>
4.5604777

>  <chi1>
5.2532187

>  <chi1v>
2.9449077

>  <chi1v_C>
2.0773504

>  <chi1_C>
2.9831634

>  <chiral>
0

>  <chiral_u>
0

>  <density>
0.81802726

>  <diameter>
5

>  <FCharge>
0

>  <GCUT_PEOE_0>
-0.81314093

>  <GCUT_PEOE_1>
-0.44662705

>  <GCUT_PEOE_2>
0.095348537

>  <GCUT_PEOE_3>
2.033319

>  <GCUT_SLOGP_0>
-1.3857856

>  <GCUT_SLOGP_1>
-0.37714535

>  <GCUT_SLOGP_2>
0.17675686

>  <GCUT_SLOGP_3>
2.1418109

>  <GCUT_SMR_0>
-0.46985346

>  <GCUT_SMR_1>
-0.22207904

>  <GCUT_SMR_2>
0.20168656

>  <GCUT_SMR_3>
2.3150756

>  <Kier1>
9.090909

>  <Kier2>
4.1326532

>  <Kier3>
2.2145329

>  <KierA1>
6.5231295

>  <KierA2>
2.8546913

>  <KierA3>
1.4780163

>  <KierFlex>
1.6928656

>  <lip_acc>
4

>  <lip_don>
3

>  <lip_druglike>
1

>  <lip_violation>
0

>  <logP(o/w)>
0.59299999

>  <logS>
-1.49058

>  <mr>
3.9217808

>  <mutagenic>
1

>  <nmol>
1

>  <opr_brigid>
6

>  <opr_leadlike>
1

>  <opr_nring>
1

>  <opr_nrot>
2

>  <opr_violation>
0

>  <PC+>
0

>  <PC->
0

>  <PEOE_PC+>
1.2557701

>  <PEOE_PC->
-1.2557701

>  <PEOE_RPC+>
0.23396544

>  <PEOE_RPC->
0.26073745

>  <PEOE_VSA+0>
0

>  <PEOE_VSA+1>
19.270084

>  <PEOE_VSA+2>
8.458519

>  <PEOE_VSA+3>
17.238026

>  <PEOE_VSA+4>
10.324173

>  <PEOE_VSA+5>
14.708499

>  <PEOE_VSA+6>
0

>  <PEOE_VSA-0>
24.509808

>  <PEOE_VSA-1>
24.509808

>  <PEOE_VSA-2>
0

>  <PEOE_VSA-3>
0

>  <PEOE_VSA-4>
11.853806

>  <PEOE_VSA-5>
19.46928

>  <PEOE_VSA-6>
7.7675405

>  <PEOE_VSA_FHYD>
0.59443754

>  <PEOE_VSA_FNEG>
0.55727339

>  <PEOE_VSA_FPNEG>
0.24723761

>  <PEOE_VSA_FPOL>
0.40556249

>  <PEOE_VSA_FPOS>
0.44272661

>  <PEOE_VSA_FPPOS>
0.15832487

>  <PEOE_VSA_HYD>
93.986244

>  <PEOE_VSA_NEG>
88.110245

>  <PEOE_VSA_PNEG>
39.090626

>  <PEOE_VSA_POL>
64.123299

>  <PEOE_VSA_POS>
69.999298

>  <PEOE_VSA_PPOS>
25.032671

>  <petitjean>
0.40000001

>  <petitjeanSC>
0.66666669

>  <Q_PC+>
0

>  <Q_PC->
0

>  <Q_RPC+>
0

>  <Q_RPC->
0

>  <Q_VSA_FHYD>
1

>  <Q_VSA_FNEG>
0

>  <Q_VSA_FPNEG>
0

>  <Q_VSA_FPOL>
0

>  <Q_VSA_FPOS>
1

>  <Q_VSA_FPPOS>
0

>  <Q_VSA_HYD>
158.10954

>  <Q_VSA_NEG>
0

>  <Q_VSA_PNEG>
0

>  <Q_VSA_POL>
0

>  <Q_VSA_POS>
158.10954

>  <Q_VSA_PPOS>
0

>  <radius>
3

>  <reactive>
1

>  <rings>
1

>  <RPC+>
0

>  <RPC->
0

>  <rsynth>
1

>  <SlogP>
0.63730001

>  <SlogP_VSA0>
46.730282

>  <SlogP_VSA1>
7.7454643

>  <SlogP_VSA2>
0

>  <SlogP_VSA3>
25.385227

>  <SlogP_VSA4>
27.047791

>  <SlogP_VSA5>
0

>  <SlogP_VSA6>
0

>  <SlogP_VSA7>
70.572739

>  <SlogP_VSA8>
0

>  <SlogP_VSA9>
5.2434282

>  <SMR>
3.8216701

>  <SMR_VSA0>
23.862217

>  <SMR_VSA1>
11.218763

>  <SMR_VSA2>
25.385227

>  <SMR_VSA3>
8.4290028

>  <SMR_VSA4>
35.51152

>  <SMR_VSA5>
70.572739

>  <SMR_VSA6>
7.7454643

>  <SMR_VSA7>
0

>  <TPSA>
72.550003

>  <VAdjEq>
0.68403846

>  <VAdjMa>
4.4594316

>  <VDistEq>
2.2482128

>  <VDistMa>
6.6247077

>  <vdw_area>
158.10954

>  <vdw_vol>
187.2028

>  <vsa_acc>
5.9023595

>  <vsa_acid>
0

>  <vsa_base>
0

>  <vsa_don>
0

>  <vsa_hyd>
73.901039

>  <vsa_other>
14.708499

>  <vsa_pol>
55.981377

>  <Weight>
153.13699

>  <weinerPath>
150

>  <weinerPol>
14

>  <zagreb>
50

$$$$