N(=C(/NCc1ccccc1)NC)/C
  MOE2013           2D

 13 13  0  0  0  0  0  0  0  0999 V2000
    0.0000    0.0000    0.0000 N   0  0  0  0  0  0  0  0  0  0  0  0
   -1.2980   -0.7520    0.0000 C   0  0  0  0  0  0  0  0  0  0  0  0
   -2.5980   -0.0050    0.0000 N   0  0  0  0  0  0  0  0  0  0  0  0
   -3.8960   -0.7570    0.0000 C   0  0  0  0  0  0  0  0  0  0  0  0
   -5.1960   -0.0090    0.0000 C   0  0  0  0  0  0  0  0  0  0  0  0
   -6.4940   -0.7620    0.0000 C   0  0  0  0  0  0  0  0  0  0  0  0
   -7.7940   -0.0140    0.0000 C   0  0  0  0  0  0  0  0  0  0  0  0
   -7.7970    1.4860    0.0000 C   0  0  0  0  0  0  0  0  0  0  0  0
   -6.4990    2.2380    0.0000 C   0  0  0  0  0  0  0  0  0  0  0  0
   -5.1990    1.4910    0.0000 C   0  0  0  0  0  0  0  0  0  0  0  0
   -1.2950   -2.2520    0.0000 N   0  0  0  0  0  0  0  0  0  0  0  0
    0.0050   -3.0000    0.0000 C   0  0  0  0  0  0  0  0  0  0  0  0
   -0.0030    1.5000    0.0000 C   0  0  0  0  0  0  0  0  0  0  0  0
  1  2  2  0  0  0  0
  1 13  1  0  0  0  0
  2  3  1  0  0  0  0
  2 11  1  0  0  0  0
  3  4  1  0  0  0  0
  4  5  1  0  0  0  0
  5  6  1  0  0  0  0
  5 10  2  0  0  0  0
  6  7  2  0  0  0  0
  7  8  1  0  0  0  0
  8  9  2  0  0  0  0
  9 10  1  0  0  0  0
 11 12  1  0  0  0  0
M  END
>  <Index>
140

>  <ID>
HT0278

>  <class>
0

>  <apol>
30.901896

>  <ast_fraglike>
1

>  <ast_fraglike_ext>
0

>  <ast_violation>
0

>  <ast_violation_ext>
1

>  <a_acc>
1

>  <a_acid>
0

>  <a_aro>
6

>  <a_base>
0

>  <a_count>
28

>  <a_don>
2

>  <a_donacc>
3

>  <a_heavy>
13

>  <a_hyd>
9

>  <a_IC>
38.028412

>  <a_ICM>
1.3581575

>  <a_nB>
0

>  <a_nBr>
0

>  <a_nC>
10

>  <a_nCl>
0

>  <a_nF>
0

>  <a_nH>
15

>  <a_nI>
0

>  <a_nN>
3

>  <a_nO>
0

>  <a_nP>
0

>  <a_nS>
0

>  <balabanJ>
2.104146

>  <BCUT_PEOE_0>
-2.4651208

>  <BCUT_PEOE_1>
-0.51529074

>  <BCUT_PEOE_2>
0.5806042

>  <BCUT_PEOE_3>
2.3519189

>  <BCUT_SLOGP_0>
-2.6566639

>  <BCUT_SLOGP_1>
-0.41615051

>  <BCUT_SLOGP_2>
0.67693818

>  <BCUT_SLOGP_3>
2.413543

>  <BCUT_SMR_0>
-2.1363802

>  <BCUT_SMR_1>
-0.38968754

>  <BCUT_SMR_2>
0.71253902

>  <BCUT_SMR_3>
2.6698871

>  <bpol>
19.038105

>  <b_1rotN>
2

>  <b_1rotR>
0.15384616

>  <b_ar>
6

>  <b_count>
28

>  <b_double>
1

>  <b_heavy>
13

>  <b_max1len>
3

>  <b_rotN>
4

>  <b_rotR>
0.30769232

>  <b_single>
21

>  <b_triple>
0

>  <chi0>
9.5186615

>  <chi0v>
8.0410719

>  <chi0v_C>
6.5938582

>  <chi0_C>
7.3973413

>  <chi1>
6.3637033

>  <chi1v>
4.2886109

>  <chi1v_C>
2.2642369

>  <chi1_C>
3.2247448

>  <chiral>
0

>  <chiral_u>
0

>  <density>
0.65987545

>  <diameter>
8

>  <FCharge>
0

>  <GCUT_PEOE_0>
-0.85155272

>  <GCUT_PEOE_1>
-0.38961467

>  <GCUT_PEOE_2>
0.058872797

>  <GCUT_PEOE_3>
2.2274508

>  <GCUT_SLOGP_0>
-1.1789212

>  <GCUT_SLOGP_1>
-0.26386139

>  <GCUT_SLOGP_2>
0.13832259

>  <GCUT_SLOGP_3>
2.2960649

>  <GCUT_SMR_0>
-0.48776144

>  <GCUT_SMR_1>
-0.1801399

>  <GCUT_SMR_2>
0.15836635

>  <GCUT_SMR_3>
2.5190163

>  <Kier1>
11.076923

>  <Kier2>
6.4533334

>  <Kier3>
4.1522493

>  <KierA1>
7.6699615

>  <KierA2>
4.3155303

>  <KierA3>
2.6950226

>  <KierFlex>
2.5461502

>  <lip_acc>
3

>  <lip_don>
2

>  <lip_druglike>
1

>  <lip_violation>
0

>  <logP(o/w)>
1.692

>  <logS>
-1.467

>  <mr>
5.4576149

>  <mutagenic>
0

>  <nmol>
1

>  <opr_brigid>
7

>  <opr_leadlike>
1

>  <opr_nring>
1

>  <opr_nrot>
4

>  <opr_violation>
0

>  <PC+>
0

>  <PC->
0

>  <PEOE_PC+>
1.2935654

>  <PEOE_PC->
-1.2935654

>  <PEOE_RPC+>
0.14907874

>  <PEOE_RPC->
0.27763397

>  <PEOE_VSA+0>
85.262016

>  <PEOE_VSA+1>
29.857702

>  <PEOE_VSA+2>
0

>  <PEOE_VSA+3>
32.919601

>  <PEOE_VSA+4>
0

>  <PEOE_VSA+5>
0

>  <PEOE_VSA+6>
0

>  <PEOE_VSA-0>
2.2085397

>  <PEOE_VSA-1>
61.274521

>  <PEOE_VSA-2>
0

>  <PEOE_VSA-3>
0

>  <PEOE_VSA-4>
0

>  <PEOE_VSA-5>
5.6825762

>  <PEOE_VSA-6>
0.27378201

>  <PEOE_VSA_FHYD>
0.97261178

>  <PEOE_VSA_FNEG>
0.3192929

>  <PEOE_VSA_FPNEG>
0.027388232

>  <PEOE_VSA_FPOL>
0.027388232

>  <PEOE_VSA_FPOS>
0.6807071

>  <PEOE_VSA_FPPOS>
0

>  <PEOE_VSA_HYD>
211.52238

>  <PEOE_VSA_NEG>
69.439415

>  <PEOE_VSA_PNEG>
5.956358

>  <PEOE_VSA_POL>
5.956358

>  <PEOE_VSA_POS>
148.03932

>  <PEOE_VSA_PPOS>
0

>  <petitjean>
0.5

>  <petitjeanSC>
1

>  <Q_PC+>
0

>  <Q_PC->
0

>  <Q_RPC+>
0

>  <Q_RPC->
0

>  <Q_VSA_FHYD>
1

>  <Q_VSA_FNEG>
0

>  <Q_VSA_FPNEG>
0

>  <Q_VSA_FPOL>
0

>  <Q_VSA_FPOS>
1

>  <Q_VSA_FPPOS>
0

>  <Q_VSA_HYD>
217.47874

>  <Q_VSA_NEG>
0

>  <Q_VSA_PNEG>
0

>  <Q_VSA_POL>
0

>  <Q_VSA_POS>
217.47874

>  <Q_VSA_PPOS>
0

>  <radius>
4

>  <reactive>
0

>  <rings>
1

>  <RPC+>
0

>  <RPC->
0

>  <rsynth>
1

>  <SlogP>
1.2478

>  <SlogP_VSA0>
36.0215

>  <SlogP_VSA1>
1.8990928

>  <SlogP_VSA2>
0

>  <SlogP_VSA3>
0

>  <SlogP_VSA4>
3.185575

>  <SlogP_VSA5>
82.579903

>  <SlogP_VSA6>
0

>  <SlogP_VSA7>
88.215919

>  <SlogP_VSA8>
0

>  <SlogP_VSA9>
18.439579

>  <SMR>
5.5905399

>  <SMR_VSA0>
0

>  <SMR_VSA1>
16.78553

>  <SMR_VSA2>
36.0215

>  <SMR_VSA3>
3.185575

>  <SMR_VSA4>
0

>  <SMR_VSA5>
106.6555

>  <SMR_VSA6>
1.8990928

>  <SMR_VSA7>
65.794373

>  <TPSA>
36.419998

>  <VAdjEq>
0.6193822

>  <VAdjMa>
4.7004399

>  <VDistEq>
2.852072

>  <VDistMa>
7.0595794

>  <vdw_area>
217.47874

>  <vdw_vol>
268.61282

>  <vsa_acc>
5.6825762

>  <vsa_acid>
0

>  <vsa_base>
0

>  <vsa_don>
11.365152

>  <vsa_hyd>
169.34944

>  <vsa_other>
15.681574

>  <vsa_pol>
17.047728

>  <Weight>
177.25099

>  <weinerPath>
282

>  <weinerPol>
14

>  <zagreb>
56

$$$$