O1[C@H](O[C@H]([C@H](O)CO)[C@H](O)[C@@H](O)C=O)[C@H](O)[C@@H](O)[C@H](O[C@H]2O[C@H](C)[C@@H](N[C@H]3C=C(CO)[C@@H](O)[C@H](O)[C@H]3O)[C@H](O)[C@H]2O)C1CO
  MOE2013           2D

 44 46  0  0  1  0  0  0  0  0999 V2000
    0.0000    0.0000    0.0000 O   0  0  0  0  0  0  0  0  0  0  0  0
   -0.0030    1.5000    0.0000 C   0  0  2  0  0  0  0  0  0  0  0  0
   -1.3040    2.2470    0.0000 O   0  0  0  0  0  0  0  0  0  0  0  0
   -2.6010    1.4940    0.0000 C   0  0  2  0  0  0  0  0  0  0  0  0
   -2.5980   -0.0060    0.0000 C   0  0  2  0  0  0  0  0  0  0  0  0
   -3.8950   -0.7590    0.0000 O   0  0  0  0  0  0  0  0  0  0  0  0
   -1.2970   -0.7530    0.0000 C   0  0  0  0  0  0  0  0  0  0  0  0
   -1.2940   -2.2530    0.0000 O   0  0  0  0  0  0  0  0  0  0  0  0
   -3.9020    2.2410    0.0000 C   0  0  2  0  0  0  0  0  0  0  0  0
   -5.1990    1.4890    0.0000 O   0  0  0  0  0  0  0  0  0  0  0  0
   -3.9050    3.7410    0.0000 C   0  0  1  0  0  0  0  0  0  0  0  0
   -2.6080    4.4940    0.0000 O   0  0  0  0  0  0  0  0  0  0  0  0
   -5.2060    4.4890    0.0000 C   0  0  0  0  0  0  0  0  0  0  0  0
   -5.2090    5.9890    0.0000 O   0  0  0  0  0  0  0  0  0  0  0  0
    1.2940    2.2530    0.0000 C   0  0  2  0  0  0  0  0  0  0  0  0
    1.2910    3.7530    0.0000 O   0  0  0  0  0  0  0  0  0  0  0  0
    2.5950    1.5060    0.0000 C   0  0  1  0  0  0  0  0  0  0  0  0
    3.8920    2.2590    0.0000 O   0  0  0  0  0  0  0  0  0  0  0  0
    2.5980    0.0060    0.0000 C   0  0  2  0  0  0  0  0  0  0  0  0
    3.8990   -0.7410    0.0000 O   0  0  0  0  0  0  0  0  0  0  0  0
    5.1960    0.0110    0.0000 C   0  0  1  0  0  0  0  0  0  0  0  0
    5.1930    1.5110    0.0000 O   0  0  0  0  0  0  0  0  0  0  0  0
    6.4900    2.2640    0.0000 C   0  0  2  0  0  0  0  0  0  0  0  0
    6.4870    3.7640    0.0000 C   0  0  0  0  0  0  0  0  0  0  0  0
    7.7910    1.5170    0.0000 C   0  0  1  0  0  0  0  0  0  0  0  0
    9.0880    2.2700    0.0000 N   0  0  0  0  0  0  0  0  0  0  0  0
   10.3890    1.5230    0.0000 C   0  0  1  0  0  0  0  0  0  0  0  0
   10.3920    0.0230    0.0000 C   0  0  0  0  0  0  0  0  0  0  0  0
   11.6930   -0.7240    0.0000 C   0  0  0  0  0  0  0  0  0  0  0  0
   11.6960   -2.2240    0.0000 C   0  0  0  0  0  0  0  0  0  0  0  0
   12.9970   -2.9720    0.0000 O   0  0  0  0  0  0  0  0  0  0  0  0
   12.9900    0.0280    0.0000 C   0  0  1  0  0  0  0  0  0  0  0  0
   14.2910   -0.7190    0.0000 O   0  0  0  0  0  0  0  0  0  0  0  0
   12.9870    1.5280    0.0000 C   0  0  2  0  0  0  0  0  0  0  0  0
   14.2840    2.2810    0.0000 O   0  0  0  0  0  0  0  0  0  0  0  0
   11.6860    2.2760    0.0000 C   0  0  1  0  0  0  0  0  0  0  0  0
   11.6830    3.7760    0.0000 O   0  0  0  0  0  0  0  0  0  0  0  0
    7.7940    0.0170    0.0000 C   0  0  2  0  0  0  0  0  0  0  0  0
    9.0950   -0.7300    0.0000 O   0  0  0  0  0  0  0  0  0  0  0  0
    6.4970   -0.7360    0.0000 C   0  0  1  0  0  0  0  0  0  0  0  0
    6.5000   -2.2360    0.0000 O   0  0  0  0  0  0  0  0  0  0  0  0
    1.3010   -0.7470    0.0000 C   0  0  3  0  0  0  0  0  0  0  0  0
    1.3040   -2.2470    0.0000 C   0  0  0  0  0  0  0  0  0  0  0  0
    2.6050   -2.9940    0.0000 O   0  0  0  0  0  0  0  0  0  0  0  0
  1  2  1  0  0  0  0
  1 42  1  0  0  0  0
  2  3  1  6  0  0  0
  2 15  1  0  0  0  0
  4  3  1  6  0  0  0
  4  5  1  0  0  0  0
  4  9  1  0  0  0  0
  5  6  1  1  0  0  0
  5  7  1  0  0  0  0
  7  8  1  0  0  0  0
  9 10  1  6  0  0  0
  9 11  1  0  0  0  0
 11 12  1  6  0  0  0
 11 13  1  0  0  0  0
 13 14  2  0  0  0  0
 15 16  1  6  0  0  0
 15 17  1  0  0  0  0
 17 18  1  1  0  0  0
 17 19  1  0  0  0  0
 19 20  1  6  0  0  0
 19 42  1  0  0  0  0
 21 20  1  1  0  0  0
 21 22  1  0  0  0  0
 21 40  1  0  0  0  0
 22 23  1  0  0  0  0
 23 24  1  6  0  0  0
 23 25  1  0  0  0  0
 25 26  1  1  0  0  0
 25 38  1  0  0  0  0
 27 26  1  6  0  0  0
 27 28  1  0  0  0  0
 27 36  1  0  0  0  0
 28 29  2  0  0  0  0
 29 30  1  0  0  0  0
 29 32  1  0  0  0  0
 30 31  1  0  0  0  0
 32 33  1  6  0  0  0
 32 34  1  0  0  0  0
 34 35  1  1  0  0  0
 34 36  1  0  0  0  0
 36 37  1  6  0  0  0
 38 39  1  6  0  0  0
 38 40  1  0  0  0  0
 40 41  1  1  0  0  0
 42 43  1  0  0  0  0
 43 44  1  0  0  0  0
M  END
>  <Index>
15

>  <ID>
HT0046

>  <class>
0

>  <apol>
88.208099

>  <ast_fraglike>
0

>  <ast_fraglike_ext>
0

>  <ast_violation>
3

>  <ast_violation_ext>
5

>  <a_acc>
19

>  <a_acid>
0

>  <a_aro>
0

>  <a_base>
0

>  <a_count>
87

>  <a_don>
14

>  <a_donacc>
33

>  <a_heavy>
44

>  <a_hyd>
22

>  <a_IC>
136.05165

>  <a_ICM>
1.563812

>  <a_nB>
0

>  <a_nBr>
0

>  <a_nC>
25

>  <a_nCl>
0

>  <a_nF>
0

>  <a_nH>
43

>  <a_nI>
0

>  <a_nN>
1

>  <a_nO>
18

>  <a_nP>
0

>  <a_nS>
0

>  <balabanJ>
1.6878875

>  <BCUT_PEOE_0>
-2.7900233

>  <BCUT_PEOE_1>
-0.67924464

>  <BCUT_PEOE_2>
0.74641305

>  <BCUT_PEOE_3>
2.8320222

>  <BCUT_SLOGP_0>
-2.9867558

>  <BCUT_SLOGP_1>
-0.83414286

>  <BCUT_SLOGP_2>
0.54636717

>  <BCUT_SLOGP_3>
2.6441457

>  <BCUT_SMR_0>
-2.5721731

>  <BCUT_SMR_1>
-0.55476624

>  <BCUT_SMR_2>
0.83019716

>  <BCUT_SMR_3>
3.0308595

>  <bpol>
56.289902

>  <b_1rotN>
13

>  <b_1rotR>
0.28260869

>  <b_ar>
0

>  <b_count>
89

>  <b_double>
2

>  <b_heavy>
46

>  <b_max1len>
8

>  <b_rotN>
13

>  <b_rotR>
0.28260869

>  <b_single>
87

>  <b_triple>
0

>  <chi0>
33.040722

>  <chi0v>
23.523344

>  <chi0v_C>
15.168325

>  <chi0_C>
15.505189

>  <chi1>
20.711252

>  <chi1v>
13.887426

>  <chi1v_C>
7.6580839

>  <chi1_C>
8.0268402

>  <chiral>
18

>  <chiral_u>
1

>  <density>
0.8631863

>  <diameter>
20

>  <FCharge>
0

>  <GCUT_PEOE_0>
-0.82319707

>  <GCUT_PEOE_1>
-0.44365883

>  <GCUT_PEOE_2>
0.19069289

>  <GCUT_PEOE_3>
3.1528554

>  <GCUT_SLOGP_0>
-1.1558733

>  <GCUT_SLOGP_1>
-0.54412818

>  <GCUT_SLOGP_2>
-0.0053280001

>  <GCUT_SLOGP_3>
3.0237606

>  <GCUT_SMR_0>
-0.52809072

>  <GCUT_SMR_1>
-0.27805385

>  <GCUT_SMR_2>
0.2324253

>  <GCUT_SMR_3>
3.3470175

>  <Kier1>
38.448013

>  <Kier2>
16.897305

>  <Kier3>
8.5448961

>  <KierA1>
36.976425

>  <KierA2>
16.235485

>  <KierA3>
8.2049322

>  <KierFlex>
13.643867

>  <lip_acc>
19

>  <lip_don>
14

>  <lip_druglike>
0

>  <lip_violation>
3

>  <logP(o/w)>
-7.5170002

>  <logS>
1.62183

>  <mr>
13.971447

>  <mutagenic>
0

>  <nmol>
1

>  <opr_brigid>
18

>  <opr_leadlike>
0

>  <opr_nring>
3

>  <opr_nrot>
18

>  <opr_violation>
5

>  <PC+>
0

>  <PC->
0

>  <PEOE_PC+>
7.107914

>  <PEOE_PC->
-7.107914

>  <PEOE_RPC+>
0.02960846

>  <PEOE_RPC->
0.055202693

>  <PEOE_VSA+0>
12.796158

>  <PEOE_VSA+1>
162.68538

>  <PEOE_VSA+2>
76.648476

>  <PEOE_VSA+3>
40.814701

>  <PEOE_VSA+4>
134.21425

>  <PEOE_VSA+5>
0

>  <PEOE_VSA+6>
0

>  <PEOE_VSA-0>
20.956217

>  <PEOE_VSA-1>
12.254904

>  <PEOE_VSA-2>
0

>  <PEOE_VSA-3>
0

>  <PEOE_VSA-4>
0

>  <PEOE_VSA-5>
13.566921

>  <PEOE_VSA-6>
111.12994

>  <PEOE_VSA_FHYD>
0.55746758

>  <PEOE_VSA_FNEG>
0.26989728

>  <PEOE_VSA_FPNEG>
0.21313263

>  <PEOE_VSA_FPOL>
0.44253245

>  <PEOE_VSA_FPOS>
0.73010272

>  <PEOE_VSA_FPPOS>
0.22939982

>  <PEOE_VSA_HYD>
326.15582

>  <PEOE_VSA_NEG>
157.90797

>  <PEOE_VSA_PNEG>
124.69686

>  <PEOE_VSA_POL>
258.9111

>  <PEOE_VSA_POS>
427.15897

>  <PEOE_VSA_PPOS>
134.21425

>  <petitjean>
0.5

>  <petitjeanSC>
1

>  <Q_PC+>
0

>  <Q_PC->
0

>  <Q_RPC+>
0

>  <Q_RPC->
0

>  <Q_VSA_FHYD>
1

>  <Q_VSA_FNEG>
0

>  <Q_VSA_FPNEG>
0

>  <Q_VSA_FPOL>
0

>  <Q_VSA_FPOS>
1

>  <Q_VSA_FPPOS>
0

>  <Q_VSA_HYD>
585.06696

>  <Q_VSA_NEG>
0

>  <Q_VSA_PNEG>
0

>  <Q_VSA_POL>
0

>  <Q_VSA_POS>
585.06696

>  <Q_VSA_PPOS>
0

>  <radius>
10

>  <reactive>
1

>  <rings>
3

>  <RPC+>
0

>  <RPC->
0

>  <rsynth>
0.72727275

>  <SlogP>
-8.7219

>  <SlogP_VSA0>
348.01871

>  <SlogP_VSA1>
0

>  <SlogP_VSA2>
203.58502

>  <SlogP_VSA3>
62.778774

>  <SlogP_VSA4>
0

>  <SlogP_VSA5>
3.185575

>  <SlogP_VSA6>
0

>  <SlogP_VSA7>
17.643185

>  <SlogP_VSA8>
0

>  <SlogP_VSA9>
33.326015

>  <SMR>
13.89261

>  <SMR_VSA0>
67.861771

>  <SMR_VSA1>
330.00793

>  <SMR_VSA2>
18.01075

>  <SMR_VSA3>
118.7636

>  <SMR_VSA4>
0

>  <SMR_VSA5>
17.643185

>  <SMR_VSA6>
62.778774

>  <SMR_VSA7>
53.471233

>  <TPSA>
329.01001

>  <VAdjEq>
0.27577007

>  <VAdjMa>
6.523562

>  <VDistEq>
4.0907717

>  <VDistMa>
10.620123

>  <vdw_area>
585.06696

>  <vdw_vol>
747.93585

>  <vsa_acc>
23.581945

>  <vsa_acid>
0

>  <vsa_base>
0

>  <vsa_don>
0

>  <vsa_hyd>
245.41928

>  <vsa_other>
51.475471

>  <vsa_pol>
205.63449

>  <Weight>
645.60797

>  <weinerPath>
7437

>  <weinerPol>
83

>  <zagreb>
226

$$$$