Clc1ccc(OC(C(OC(COC(=O)c2cccnc2)COC(=O)c2cccnc2)=O)(C)C)cc1
  MOE2013           2D

 35 37  0  0  0  0  0  0  0  0999 V2000
    0.0000    0.0000    0.0000 Cl  0  0  0  0  0  0  0  0  0  0  0  0
   -0.7600   -1.2930    0.0000 C   0  0  0  0  0  0  0  0  0  0  0  0
   -0.0210   -2.5980    0.0000 C   0  0  0  0  0  0  0  0  0  0  0  0
   -0.7810   -3.8910    0.0000 C   0  0  0  0  0  0  0  0  0  0  0  0
   -2.2810   -3.8790    0.0000 C   0  0  0  0  0  0  0  0  0  0  0  0
   -3.0410   -5.1720    0.0000 O   0  0  0  0  0  0  0  0  0  0  0  0
   -4.5410   -5.1600    0.0000 C   0  0  0  0  0  0  0  0  0  0  0  0
   -6.0410   -5.1480    0.0000 C   0  0  0  0  0  0  0  0  0  0  0  0
   -6.8010   -6.4410    0.0000 O   0  0  0  0  0  0  0  0  0  0  0  0
   -8.3010   -6.4290    0.0000 C   0  0  0  0  0  0  0  0  0  0  0  0
   -9.0410   -5.1250    0.0000 C   0  0  0  0  0  0  0  0  0  0  0  0
  -10.5410   -5.1130    0.0000 O   0  0  0  0  0  0  0  0  0  0  0  0
  -11.2810   -3.8080    0.0000 C   0  0  0  0  0  0  0  0  0  0  0  0
  -10.5200   -2.5150    0.0000 O   0  0  0  0  0  0  0  0  0  0  0  0
  -12.7810   -3.7960    0.0000 C   0  0  0  0  0  0  0  0  0  0  0  0
  -13.5410   -5.0890    0.0000 C   0  0  0  0  0  0  0  0  0  0  0  0
  -15.0410   -5.0770    0.0000 C   0  0  0  0  0  0  0  0  0  0  0  0
  -15.7800   -3.7720    0.0000 C   0  0  0  0  0  0  0  0  0  0  0  0
  -15.0200   -2.4790    0.0000 N   0  0  0  0  0  0  0  0  0  0  0  0
  -13.5200   -2.4910    0.0000 C   0  0  0  0  0  0  0  0  0  0  0  0
   -9.0620   -7.7230    0.0000 C   0  0  0  0  0  0  0  0  0  0  0  0
   -8.3220   -9.0270    0.0000 O   0  0  0  0  0  0  0  0  0  0  0  0
   -9.0820  -10.3210    0.0000 C   0  0  0  0  0  0  0  0  0  0  0  0
  -10.5820  -10.3090    0.0000 O   0  0  0  0  0  0  0  0  0  0  0  0
   -8.3430  -11.6250    0.0000 C   0  0  0  0  0  0  0  0  0  0  0  0
   -6.8430  -11.6370    0.0000 C   0  0  0  0  0  0  0  0  0  0  0  0
   -6.1030  -12.9420    0.0000 C   0  0  0  0  0  0  0  0  0  0  0  0
   -6.8630  -14.2350    0.0000 C   0  0  0  0  0  0  0  0  0  0  0  0
   -8.3630  -14.2230    0.0000 N   0  0  0  0  0  0  0  0  0  0  0  0
   -9.1030  -12.9190    0.0000 C   0  0  0  0  0  0  0  0  0  0  0  0
   -6.7810   -3.8430    0.0000 O   0  0  0  0  0  0  0  0  0  0  0  0
   -4.5530   -6.6600    0.0000 C   0  0  0  0  0  0  0  0  0  0  0  0
   -4.5290   -3.6600    0.0000 C   0  0  0  0  0  0  0  0  0  0  0  0
   -3.0210   -2.5740    0.0000 C   0  0  0  0  0  0  0  0  0  0  0  0
   -2.2600   -1.2810    0.0000 C   0  0  0  0  0  0  0  0  0  0  0  0
  1  2  1  0  0  0  0
  2  3  1  0  0  0  0
  2 35  2  0  0  0  0
  3  4  2  0  0  0  0
  4  5  1  0  0  0  0
  5  6  1  0  0  0  0
  5 34  2  0  0  0  0
  6  7  1  0  0  0  0
  7  8  1  0  0  0  0
  7 32  1  0  0  0  0
  7 33  1  0  0  0  0
  8  9  1  0  0  0  0
  8 31  2  0  0  0  0
  9 10  1  0  0  0  0
 10 11  1  0  0  0  0
 10 21  1  0  0  0  0
 11 12  1  0  0  0  0
 12 13  1  0  0  0  0
 13 14  2  0  0  0  0
 13 15  1  0  0  0  0
 15 16  1  0  0  0  0
 15 20  2  0  0  0  0
 16 17  2  0  0  0  0
 17 18  1  0  0  0  0
 18 19  2  0  0  0  0
 19 20  1  0  0  0  0
 21 22  1  0  0  0  0
 22 23  1  0  0  0  0
 23 24  2  0  0  0  0
 23 25  1  0  0  0  0
 25 26  1  0  0  0  0
 25 30  2  0  0  0  0
 26 27  2  0  0  0  0
 27 28  1  0  0  0  0
 28 29  2  0  0  0  0
 29 30  1  0  0  0  0
 34 35  1  0  0  0  0
M  END
>  <Index>
146

>  <ID>
HT0287

>  <class>
0

>  <apol>
69.330238

>  <ast_fraglike>
0

>  <ast_fraglike_ext>
0

>  <ast_violation>
3

>  <ast_violation_ext>
4

>  <a_acc>
6

>  <a_acid>
0

>  <a_aro>
18

>  <a_base>
0

>  <a_count>
58

>  <a_don>
0

>  <a_donacc>
6

>  <a_heavy>
35

>  <a_hyd>
23

>  <a_IC>
97.973083

>  <a_ICM>
1.6891911

>  <a_nB>
0

>  <a_nBr>
0

>  <a_nC>
25

>  <a_nCl>
1

>  <a_nF>
0

>  <a_nH>
23

>  <a_nI>
0

>  <a_nN>
2

>  <a_nO>
7

>  <a_nP>
0

>  <a_nS>
0

>  <balabanJ>
1.5334761

>  <BCUT_PEOE_0>
-2.5526726

>  <BCUT_PEOE_1>
-0.57738858

>  <BCUT_PEOE_2>
0.652946

>  <BCUT_PEOE_3>
2.6255379

>  <BCUT_SLOGP_0>
-2.6975977

>  <BCUT_SLOGP_1>
-0.48912027

>  <BCUT_SLOGP_2>
0.73920166

>  <BCUT_SLOGP_3>
2.5373838

>  <BCUT_SMR_0>
-2.3413947

>  <BCUT_SMR_1>
-0.44865909

>  <BCUT_SMR_2>
0.78894699

>  <BCUT_SMR_3>
2.8294961

>  <bpol>
38.74176

>  <b_1rotN>
10

>  <b_1rotR>
0.27027026

>  <b_ar>
18

>  <b_count>
60

>  <b_double>
3

>  <b_heavy>
37

>  <b_max1len>
4

>  <b_rotN>
13

>  <b_rotR>
0.35135135

>  <b_single>
39

>  <b_triple>
0

>  <chi0>
25.260939

>  <chi0v>
19.805826

>  <chi0v_C>
14.919767

>  <chi0_C>
17.018297

>  <chi1>
16.742022

>  <chi1v>
10.921685

>  <chi1v_C>
6.8758979

>  <chi1_C>
9.0378246

>  <chiral>
0

>  <chiral_u>
0

>  <density>
0.80126119

>  <diameter>
16

>  <FCharge>
0

>  <GCUT_PEOE_0>
-0.76432139

>  <GCUT_PEOE_1>
-0.38691235

>  <GCUT_PEOE_2>
0.07867986

>  <GCUT_PEOE_3>
2.6333992

>  <GCUT_SLOGP_0>
-0.9333778

>  <GCUT_SLOGP_1>
-0.25932878

>  <GCUT_SLOGP_2>
0.15111984

>  <GCUT_SLOGP_3>
2.630794

>  <GCUT_SMR_0>
-0.51987523

>  <GCUT_SMR_1>
-0.20062165

>  <GCUT_SMR_2>
0.19305076

>  <GCUT_SMR_3>
2.865108

>  <Kier1>
29.554419

>  <Kier2>
14.8104

>  <Kier3>
10.001723

>  <KierA1>
22.756693

>  <KierA2>
11.310687

>  <KierA3>
7.5930018

>  <KierFlex>
7.3541093

>  <lip_acc>
9

>  <lip_don>
0

>  <lip_druglike>
1

>  <lip_violation>
0

>  <logP(o/w)>
3.11622

>  <logS>
-5.0679998

>  <mr>
13.093108

>  <mutagenic>
0

>  <nmol>
1

>  <opr_brigid>
18

>  <opr_leadlike>
0

>  <opr_nring>
3

>  <opr_nrot>
10

>  <opr_violation>
2

>  <PC+>
0

>  <PC->
0

>  <PEOE_PC+>
3.0123348

>  <PEOE_PC->
-3.0123348

>  <PEOE_RPC+>
0.09804967

>  <PEOE_RPC->
0.10915101

>  <PEOE_VSA+0>
97.095726

>  <PEOE_VSA+1>
115.28975

>  <PEOE_VSA+2>
4.9049287

>  <PEOE_VSA+3>
0

>  <PEOE_VSA+4>
0

>  <PEOE_VSA+5>
44.125496

>  <PEOE_VSA+6>
0

>  <PEOE_VSA-0>
135.53459

>  <PEOE_VSA-1>
29.581947

>  <PEOE_VSA-2>
0

>  <PEOE_VSA-3>
0

>  <PEOE_VSA-4>
0

>  <PEOE_VSA-5>
52.065914

>  <PEOE_VSA-6>
10.015024

>  <PEOE_VSA_FHYD>
0.78263706

>  <PEOE_VSA_FNEG>
0.46498415

>  <PEOE_VSA_FPNEG>
0.12705535

>  <PEOE_VSA_FPOL>
0.21736294

>  <PEOE_VSA_FPOS>
0.53501582

>  <PEOE_VSA_FPPOS>
0.090307593

>  <PEOE_VSA_HYD>
382.40692

>  <PEOE_VSA_NEG>
227.19748

>  <PEOE_VSA_PNEG>
62.08094

>  <PEOE_VSA_POL>
106.20644

>  <PEOE_VSA_POS>
261.41589

>  <PEOE_VSA_PPOS>
44.125496

>  <petitjean>
0.5

>  <petitjeanSC>
1

>  <Q_PC+>
0

>  <Q_PC->
0

>  <Q_RPC+>
0

>  <Q_RPC->
0

>  <Q_VSA_FHYD>
1

>  <Q_VSA_FNEG>
0

>  <Q_VSA_FPNEG>
0

>  <Q_VSA_FPOL>
0

>  <Q_VSA_FPOS>
1

>  <Q_VSA_FPPOS>
0

>  <Q_VSA_HYD>
488.61337

>  <Q_VSA_NEG>
0

>  <Q_VSA_PNEG>
0

>  <Q_VSA_POL>
0

>  <Q_VSA_POS>
488.61337

>  <Q_VSA_PPOS>
0

>  <radius>
8

>  <reactive>
0

>  <rings>
3

>  <RPC+>
0

>  <RPC->
0

>  <rsynth>
1

>  <SlogP>
3.9131999

>  <SlogP_VSA0>
10.999887

>  <SlogP_VSA1>
56.807453

>  <SlogP_VSA2>
63.330528

>  <SlogP_VSA3>
41.852516

>  <SlogP_VSA4>
54.095581

>  <SlogP_VSA5>
0

>  <SlogP_VSA6>
3.5006065

>  <SlogP_VSA7>
210.0029

>  <SlogP_VSA8>
0

>  <SlogP_VSA9>
111.04411

>  <SMR>
12.5078

>  <SMR_VSA0>
104.58631

>  <SMR_VSA1>
44.570946

>  <SMR_VSA2>
0

>  <SMR_VSA3>
21.583834

>  <SMR_VSA4>
0

>  <SMR_VSA5>
210.0029

>  <SMR_VSA6>
65.088913

>  <SMR_VSA7>
105.80067

>  <TPSA>
113.91

>  <VAdjEq>
0.32906306

>  <VAdjMa>
6.2094536

>  <VDistEq>
3.8085637

>  <VDistMa>
9.9925394

>  <vdw_area>
488.61337

>  <vdw_vol>
622.66711

>  <vsa_acc>
54.569672

>  <vsa_acid>
0

>  <vsa_base>
0

>  <vsa_don>
0

>  <vsa_hyd>
366.03564

>  <vsa_other>
51.636765

>  <vsa_pol>
54.569672

>  <Weight>
498.91898

>  <weinerPath>
4156

>  <weinerPol>
50

>  <zagreb>
174

$$$$