O(C)c1cc2N([C@@H]3[C@@]4([C@H]5N(CC=C[C@@]5(CC)[C@@H](OC(=O)C)[C@]3(O)C(OC)=O)CC4)c2cc1[C@]1(CC2C=C(CN(C2)Cc2c1[nH]c1c2cccc1)CC)C(OC)=O)C
  MOE2013           2D

 57 65  0  0  1  0  0  0  0  0999 V2000
    0.0000    0.0000    0.0000 O   0  0  0  0  0  0  0  0  0  0  0  0
    0.6070   -1.3720    0.0000 C   0  0  0  0  0  0  0  0  0  0  0  0
    0.8850    1.2110    0.0000 C   0  0  0  0  0  0  0  0  0  0  0  0
    2.2310    0.5510    0.0000 C   0  0  0  0  0  0  0  0  0  0  0  0
    3.4760    1.3890    0.0000 C   0  0  0  0  0  0  0  0  0  0  0  0
    4.9290    1.0230    0.0000 N   0  0  3  0  0  0  0  0  0  0  0  0
    5.7300    2.2880    0.0000 C   0  0  2  0  0  0  0  0  0  0  0  0
    4.7600    3.4500    0.0000 C   0  0  2  0  0  0  0  0  0  0  0  0
    5.2990    4.8240    0.0000 C   0  0  1  0  0  0  0  0  0  0  0  0
    4.2700    5.8810    0.0000 N   0  0  3  0  0  0  0  0  0  0  0  0
    4.7160    7.3290    0.0000 C   0  0  0  0  0  0  0  0  0  0  0  0
    6.1810    7.6680    0.0000 C   0  0  0  0  0  0  0  0  0  0  0  0
    7.2000    6.5650    0.0000 C   0  0  0  0  0  0  0  0  0  0  0  0
    6.7590    5.1180    0.0000 C   0  0  2  0  0  0  0  0  0  0  0  0
    8.2250    5.4370    0.0000 C   0  0  0  0  0  0  0  0  0  0  0  0
    8.6820    6.8650    0.0000 C   0  0  0  0  0  0  0  0  0  0  0  0
    7.7250    3.9530    0.0000 C   0  0  1  0  0  0  0  0  0  0  0  0
    9.2030    4.2090    0.0000 O   0  0  0  0  0  0  0  0  0  0  0  0
   10.1640    3.0570    0.0000 C   0  0  0  0  0  0  0  0  0  0  0  0
   11.6420    3.3120    0.0000 O   0  0  0  0  0  0  0  0  0  0  0  0
    9.6460    1.6490    0.0000 C   0  0  0  0  0  0  0  0  0  0  0  0
    7.2110    2.5430    0.0000 C   0  0  1  0  0  0  0  0  0  0  0  0
    8.6350    2.0710    0.0000 O   0  0  0  0  0  0  0  0  0  0  0  0
    7.5440    1.0800    0.0000 C   0  0  0  0  0  0  0  0  0  0  0  0
    8.9770    0.6370    0.0000 O   0  0  0  0  0  0  0  0  0  0  0  0
    9.3100   -0.8250    0.0000 C   0  0  0  0  0  0  0  0  0  0  0  0
    6.4440    0.0600    0.0000 O   0  0  0  0  0  0  0  0  0  0  0  0
    2.9500    5.1170    0.0000 C   0  0  0  0  0  0  0  0  0  0  0  0
    3.2480    3.6450    0.0000 C   0  0  0  0  0  0  0  0  0  0  0  0
    3.3760    2.8830    0.0000 C   0  0  0  0  0  0  0  0  0  0  0  0
    2.0290    3.5440    0.0000 C   0  0  0  0  0  0  0  0  0  0  0  0
    0.7840    2.7080    0.0000 C   0  0  0  0  0  0  0  0  0  0  0  0
   -0.6570    3.1250    0.0000 C   0  0  1  0  0  0  0  0  0  0  0  0
   -0.4240    1.5670    0.0000 C   0  0  0  0  0  0  0  0  0  0  0  0
   -1.9150    0.9060    0.0000 C   0  0  3  0  0  0  0  0  0  0  0  0
   -2.5940   -0.3870    0.0000 C   0  0  0  0  0  0  0  0  0  0  0  0
   -4.0450   -0.4730    0.0000 C   0  0  0  0  0  0  0  0  0  0  0  0
   -4.8400    0.7440    0.0000 C   0  0  0  0  0  0  0  0  0  0  0  0
   -4.2080    2.0580    0.0000 N   0  0  3  0  0  0  0  0  0  0  0  0
   -2.7420    2.1180    0.0000 C   0  0  0  0  0  0  0  0  0  0  0  0
   -4.5700    3.6490    0.0000 C   0  0  0  0  0  0  0  0  0  0  0  0
   -3.1820    4.3910    0.0000 C   0  0  0  0  0  0  0  0  0  0  0  0
   -1.8780    3.8380    0.0000 C   0  0  0  0  0  0  0  0  0  0  0  0
   -0.8600    4.9200    0.0000 N   0  0  0  0  0  0  0  0  0  0  0  0
   -1.5960    6.2260    0.0000 C   0  0  0  0  0  0  0  0  0  0  0  0
   -3.0660    5.9290    0.0000 C   0  0  0  0  0  0  0  0  0  0  0  0
   -4.0590    7.0540    0.0000 C   0  0  0  0  0  0  0  0  0  0  0  0
   -3.5810    8.4760    0.0000 C   0  0  0  0  0  0  0  0  0  0  0  0
   -2.1100    8.7730    0.0000 C   0  0  0  0  0  0  0  0  0  0  0  0
   -1.1180    7.6480    0.0000 C   0  0  0  0  0  0  0  0  0  0  0  0
   -4.7180   -1.8130    0.0000 C   0  0  0  0  0  0  0  0  0  0  0  0
   -6.2160   -1.9000    0.0000 C   0  0  0  0  0  0  0  0  0  0  0  0
    0.0750    4.4340    0.0000 C   0  0  0  0  0  0  0  0  0  0  0  0
    1.5750    4.4540    0.0000 O   0  0  0  0  0  0  0  0  0  0  0  0
    2.3080    5.7630    0.0000 C   0  0  0  0  0  0  0  0  0  0  0  0
   -0.6920    5.7230    0.0000 O   0  0  0  0  0  0  0  0  0  0  0  0
    5.4860   -0.3700    0.0000 C   0  0  0  0  0  0  0  0  0  0  0  0
  1  2  1  0  0  0  0
  1  3  1  0  0  0  0
  3  4  1  0  0  0  0
  3 32  2  0  0  0  0
  4  5  2  0  0  0  0
  5  6  1  0  0  0  0
  5 30  1  0  0  0  0
  6 57  1  0  0  0  0
  7  6  1  6  0  0  0
  7  8  1  0  0  0  0
  7 22  1  0  0  0  0
  8  9  1  0  0  0  0
  8 29  1  1  0  0  0
  8 30  1  0  0  0  0
  9 10  1  1  0  0  0
  9 14  1  0  0  0  0
 10 11  1  0  0  0  0
 10 28  1  0  0  0  0
 11 12  1  0  0  0  0
 12 13  2  0  0  0  0
 13 14  1  0  0  0  0
 14 15  1  6  0  0  0
 14 17  1  0  0  0  0
 15 16  1  0  0  0  0
 17 18  1  1  0  0  0
 17 22  1  0  0  0  0
 18 19  1  0  0  0  0
 19 20  2  0  0  0  0
 19 21  1  0  0  0  0
 22 23  1  1  0  0  0
 22 24  1  6  0  0  0
 24 25  1  0  0  0  0
 24 27  2  0  0  0  0
 25 26  1  0  0  0  0
 28 29  1  0  0  0  0
 30 31  2  0  0  0  0
 31 32  1  0  0  0  0
 33 32  1  1  0  0  0
 33 34  1  0  0  0  0
 33 43  1  0  0  0  0
 33 53  1  6  0  0  0
 34 35  1  0  0  0  0
 35 36  1  0  0  0  0
 35 40  1  0  0  0  0
 36 37  2  0  0  0  0
 37 38  1  0  0  0  0
 37 51  1  0  0  0  0
 38 39  1  0  0  0  0
 39 40  1  0  0  0  0
 39 41  1  0  0  0  0
 41 42  1  0  0  0  0
 42 43  2  0  0  0  0
 42 46  1  0  0  0  0
 43 44  1  0  0  0  0
 44 45  1  0  0  0  0
 45 46  2  0  0  0  0
 45 50  1  0  0  0  0
 46 47  1  0  0  0  0
 47 48  2  0  0  0  0
 48 49  1  0  0  0  0
 49 50  2  0  0  0  0
 51 52  1  0  0  0  0
 53 54  1  0  0  0  0
 53 56  2  0  0  0  0
 54 55  1  0  0  0  0
M  END
>  <Index>
1148

>  <ID>
HT2185

>  <class>
0

>  <apol>
126.02282

>  <ast_fraglike>
0

>  <ast_fraglike_ext>
0

>  <ast_violation>
3

>  <ast_violation_ext>
5

>  <a_acc>
7

>  <a_acid>
0

>  <a_aro>
15

>  <a_base>
0

>  <a_count>
111

>  <a_don>
2

>  <a_donacc>
9

>  <a_heavy>
57

>  <a_hyd>
42

>  <a_IC>
164.28285

>  <a_ICM>
1.4800256

>  <a_nB>
0

>  <a_nBr>
0

>  <a_nC>
45

>  <a_nCl>
0

>  <a_nF>
0

>  <a_nH>
54

>  <a_nI>
0

>  <a_nN>
4

>  <a_nO>
8

>  <a_nP>
0

>  <a_nS>
0

>  <balabanJ>
1.2133138

>  <BCUT_PEOE_0>
-2.8469932

>  <BCUT_PEOE_1>
-0.48161995

>  <BCUT_PEOE_2>
0.51880628

>  <BCUT_PEOE_3>
2.9783063

>  <BCUT_SLOGP_0>
-2.9862912

>  <BCUT_SLOGP_1>
-0.39926913

>  <BCUT_SLOGP_2>
0.62675768

>  <BCUT_SLOGP_3>
2.8910007

>  <BCUT_SMR_0>
-2.6138527

>  <BCUT_SMR_1>
-0.29995435

>  <BCUT_SMR_2>
0.69594556

>  <BCUT_SMR_3>
3.219065

>  <bpol>
76.171181

>  <b_1rotN>
7

>  <b_1rotR>
0.10769231

>  <b_ar>
16

>  <b_count>
119

>  <b_double>
5

>  <b_heavy>
65

>  <b_max1len>
3

>  <b_rotN>
10

>  <b_rotR>
0.15384616

>  <b_single>
98

>  <b_triple>
0

>  <chi0>
40.233112

>  <chi0v>
34.016106

>  <chi0v_C>
28.869514

>  <chi0_C>
30.965527

>  <chi1>
27.3848

>  <chi1v>
20.349678

>  <chi1v_C>
13.968397

>  <chi1_C>
16.555098

>  <chiral>
8

>  <chiral_u>
1

>  <density>
0.73504353

>  <diameter>
16

>  <FCharge>
0

>  <GCUT_PEOE_0>
-0.85570031

>  <GCUT_PEOE_1>
-0.41647753

>  <GCUT_PEOE_2>
-0.024516204

>  <GCUT_PEOE_3>
3.6875174

>  <GCUT_SLOGP_0>
-0.99730247

>  <GCUT_SLOGP_1>
-0.29960436

>  <GCUT_SLOGP_2>
0.075302094

>  <GCUT_SLOGP_3>
3.7007754

>  <GCUT_SMR_0>
-0.5258767

>  <GCUT_SMR_1>
-0.17806505

>  <GCUT_SMR_2>
0.14270812

>  <GCUT_SMR_3>
3.9380307

>  <Kier1>
42.308167

>  <Kier2>
15.661983

>  <Kier3>
5.9259691

>  <KierA1>
34.743313

>  <KierA2>
12.814288

>  <KierA3>
4.8360023

>  <KierFlex>
7.8107157

>  <lip_acc>
12

>  <lip_don>
2

>  <lip_druglike>
0

>  <lip_violation>
3

>  <logP(o/w)>
5.013

>  <logS>
-7.0107002

>  <mr>
21.339996

>  <mutagenic>
0

>  <nmol>
1

>  <opr_brigid>
44

>  <opr_leadlike>
0

>  <opr_nring>
9

>  <opr_nrot>
7

>  <opr_violation>
4

>  <PC+>
0

>  <PC->
0

>  <PEOE_PC+>
4.5199051

>  <PEOE_PC->
-4.5199051

>  <PEOE_RPC+>
0.065962844

>  <PEOE_RPC->
0.082979046

>  <PEOE_VSA+0>
323.85632

>  <PEOE_VSA+1>
96.912201

>  <PEOE_VSA+2>
4.9049287

>  <PEOE_VSA+3>
8.6190128

>  <PEOE_VSA+4>
10.324173

>  <PEOE_VSA+5>
44.125496

>  <PEOE_VSA+6>
0

>  <PEOE_VSA-0>
99.225731

>  <PEOE_VSA-1>
113.23331

>  <PEOE_VSA-2>
0

>  <PEOE_VSA-3>
0

>  <PEOE_VSA-4>
0

>  <PEOE_VSA-5>
40.700764

>  <PEOE_VSA-6>
17.919456

>  <PEOE_VSA_FHYD>
0.85118884

>  <PEOE_VSA_FNEG>
0.35676709

>  <PEOE_VSA_FPNEG>
0.077149995

>  <PEOE_VSA_FPOL>
0.14881115

>  <PEOE_VSA_FPOS>
0.64323288

>  <PEOE_VSA_FPPOS>
0.071661144

>  <PEOE_VSA_HYD>
646.75153

>  <PEOE_VSA_NEG>
271.07928

>  <PEOE_VSA_PNEG>
58.62022

>  <PEOE_VSA_POL>
113.06989

>  <PEOE_VSA_POS>
488.74213

>  <PEOE_VSA_PPOS>
54.449669

>  <petitjean>
0.5

>  <petitjeanSC>
1

>  <Q_PC+>
0

>  <Q_PC->
0

>  <Q_RPC+>
0

>  <Q_RPC->
0

>  <Q_VSA_FHYD>
1

>  <Q_VSA_FNEG>
0

>  <Q_VSA_FPNEG>
0

>  <Q_VSA_FPOL>
0

>  <Q_VSA_FPOS>
1

>  <Q_VSA_FPPOS>
0

>  <Q_VSA_HYD>
759.82141

>  <Q_VSA_NEG>
0

>  <Q_VSA_PNEG>
0

>  <Q_VSA_POL>
0

>  <Q_VSA_POS>
759.82141

>  <Q_VSA_PPOS>
0

>  <radius>
8

>  <reactive>
0

>  <rings>
9

>  <RPC+>
0

>  <RPC->
0

>  <rsynth>
0.3859649

>  <SlogP>
5.02

>  <SlogP_VSA0>
39.50943

>  <SlogP_VSA1>
29.48502

>  <SlogP_VSA2>
135.80443

>  <SlogP_VSA3>
73.758316

>  <SlogP_VSA4>
16.724268

>  <SlogP_VSA5>
142.23436

>  <SlogP_VSA6>
0

>  <SlogP_VSA7>
163.50577

>  <SlogP_VSA8>
75.473625

>  <SlogP_VSA9>
126.4178

>  <SMR>
21.428249

>  <SMR_VSA0>
104.58631

>  <SMR_VSA1>
42.633743

>  <SMR_VSA2>
24.320639

>  <SMR_VSA3>
35.17506

>  <SMR_VSA4>
7.4738488

>  <SMR_VSA5>
252.70186

>  <SMR_VSA6>
96.994705

>  <SMR_VSA7>
239.02684

>  <TPSA>
133.87

>  <VAdjEq>
0.24234864

>  <VAdjMa>
7.022368

>  <VDistEq>
3.7061298

>  <VDistMa>
11.450624

>  <vdw_area>
759.82141

>  <vdw_vol>
1059.729

>  <vsa_acc>
43.204517

>  <vsa_acid>
0

>  <vsa_base>
0

>  <vsa_don>
5.6825762

>  <vsa_hyd>
599.77411

>  <vsa_other>
51.636765

>  <vsa_pol>
62.454014

>  <Weight>
778.94696

>  <weinerPath>
10686

>  <weinerPol>
136

>  <zagreb>
338

$$$$