FC(F)(F)C1=CN([C@@H]2O[C@H](CO)[C@@H](O)C2)C(=O)NC1=O
  MOE2013           2D

 20 21  0  0  1  0  0  0  0  0999 V2000
    0.0000    0.0000    0.0000 F   0  0  0  0  0  0  0  0  0  0  0  0
    0.7480    1.3000    0.0000 C   0  0  0  0  0  0  0  0  0  0  0  0
   -0.5520    2.0480    0.0000 F   0  0  0  0  0  0  0  0  0  0  0  0
    2.0480    0.5520    0.0000 F   0  0  0  0  0  0  0  0  0  0  0  0
    1.4960    2.6000    0.0000 C   0  0  0  0  0  0  0  0  0  0  0  0
    2.9960    2.6020    0.0000 C   0  0  0  0  0  0  0  0  0  0  0  0
    3.7450    3.9020    0.0000 N   0  0  0  0  0  0  0  0  0  0  0  0
    5.2450    3.9040    0.0000 C   0  0  2  0  0  0  0  0  0  0  0  0
    6.1250    5.1190    0.0000 O   0  0  0  0  0  0  0  0  0  0  0  0
    7.5520    4.6580    0.0000 C   0  0  2  0  0  0  0  0  0  0  0  0
    8.7640    5.5410    0.0000 C   0  0  0  0  0  0  0  0  0  0  0  0
    8.6050    7.0330    0.0000 O   0  0  0  0  0  0  0  0  0  0  0  0
    7.5540    3.1580    0.0000 C   0  0  1  0  0  0  0  0  0  0  0  0
    8.7690    2.2780    0.0000 O   0  0  0  0  0  0  0  0  0  0  0  0
    6.1280    2.6920    0.0000 C   0  0  0  0  0  0  0  0  0  0  0  0
    2.9930    5.2000    0.0000 C   0  0  0  0  0  0  0  0  0  0  0  0
    3.7410    6.5000    0.0000 O   0  0  0  0  0  0  0  0  0  0  0  0
    1.4930    5.1980    0.0000 N   0  0  0  0  0  0  0  0  0  0  0  0
    0.7450    3.8980    0.0000 C   0  0  0  0  0  0  0  0  0  0  0  0
   -0.7550    3.8960    0.0000 O   0  0  0  0  0  0  0  0  0  0  0  0
  1  2  1  0  0  0  0
  2  3  1  0  0  0  0
  2  4  1  0  0  0  0
  2  5  1  0  0  0  0
  5  6  2  0  0  0  0
  5 19  1  0  0  0  0
  6  7  1  0  0  0  0
  7 16  1  0  0  0  0
  8  7  1  6  0  0  0
  8  9  1  0  0  0  0
  8 15  1  0  0  0  0
  9 10  1  0  0  0  0
 10 11  1  6  0  0  0
 10 13  1  0  0  0  0
 11 12  1  0  0  0  0
 13 14  1  1  0  0  0
 13 15  1  0  0  0  0
 16 17  2  0  0  0  0
 16 18  1  0  0  0  0
 18 19  1  0  0  0  0
 19 20  2  0  0  0  0
M  END
>  <Index>
1108

>  <ID>
HT2120

>  <class>
0

>  <apol>
32.815723

>  <ast_fraglike>
0

>  <ast_fraglike_ext>
0

>  <ast_violation>
1

>  <ast_violation_ext>
2

>  <a_acc>
5

>  <a_acid>
0

>  <a_aro>
0

>  <a_base>
0

>  <a_count>
31

>  <a_don>
3

>  <a_donacc>
8

>  <a_heavy>
20

>  <a_hyd>
10

>  <a_IC>
63.942528

>  <a_ICM>
2.0626621

>  <a_nB>
0

>  <a_nBr>
0

>  <a_nC>
10

>  <a_nCl>
0

>  <a_nF>
3

>  <a_nH>
11

>  <a_nI>
0

>  <a_nN>
2

>  <a_nO>
5

>  <a_nP>
0

>  <a_nS>
0

>  <balabanJ>
2.0806248

>  <BCUT_PEOE_0>
-2.5216177

>  <BCUT_PEOE_1>
-0.51396161

>  <BCUT_PEOE_2>
0.56614792

>  <BCUT_PEOE_3>
2.7570229

>  <BCUT_SLOGP_0>
-2.6769238

>  <BCUT_SLOGP_1>
-0.54950148

>  <BCUT_SLOGP_2>
0.58038962

>  <BCUT_SLOGP_3>
2.6411207

>  <BCUT_SMR_0>
-2.3166115

>  <BCUT_SMR_1>
-0.38593164

>  <BCUT_SMR_2>
0.64473408

>  <BCUT_SMR_3>
2.9648836

>  <bpol>
22.106277

>  <b_1rotN>
2

>  <b_1rotR>
0.095238097

>  <b_ar>
0

>  <b_count>
32

>  <b_double>
3

>  <b_heavy>
21

>  <b_max1len>
4

>  <b_rotN>
3

>  <b_rotR>
0.14285715

>  <b_single>
29

>  <b_triple>
0

>  <chi0>
15.076985

>  <chi0v>
9.9238939

>  <chi0v_C>
5.7236147

>  <chi0_C>
6.085422

>  <chi1>
9.2354002

>  <chi1v>
5.6077843

>  <chi1v_C>
2.3467534

>  <chi1_C>
2.588335

>  <chiral>
3

>  <chiral_u>
0

>  <density>
0.99338233

>  <diameter>
9

>  <FCharge>
0

>  <GCUT_PEOE_0>
-0.80097163

>  <GCUT_PEOE_1>
-0.43515429

>  <GCUT_PEOE_2>
0.10775463

>  <GCUT_PEOE_3>
2.5663168

>  <GCUT_SLOGP_0>
-1.1699582

>  <GCUT_SLOGP_1>
-0.43474784

>  <GCUT_SLOGP_2>
0.1650205

>  <GCUT_SLOGP_3>
2.4792695

>  <GCUT_SMR_0>
-0.52690536

>  <GCUT_SMR_1>
-0.229252

>  <GCUT_SMR_2>
0.15960203

>  <GCUT_SMR_3>
2.7736318

>  <Kier1>
16.371881

>  <Kier2>
6.0117188

>  <Kier3>
3.4425001

>  <KierA1>
13.116235

>  <KierA2>
4.7559733

>  <KierA3>
2.6983957

>  <KierFlex>
3.1190228

>  <lip_acc>
7

>  <lip_don>
3

>  <lip_druglike>
1

>  <lip_violation>
0

>  <logP(o/w)>
-1.15224

>  <logS>
-1.36854

>  <mr>
5.7925282

>  <mutagenic>
0

>  <nmol>
1

>  <opr_brigid>
11

>  <opr_leadlike>
1

>  <opr_nring>
2

>  <opr_nrot>
3

>  <opr_violation>
0

>  <PC+>
0

>  <PC->
0

>  <PEOE_PC+>
2.6879656

>  <PEOE_PC->
-2.6879656

>  <PEOE_RPC+>
0.15764578

>  <PEOE_RPC->
0.14597197

>  <PEOE_VSA+0>
33.978001

>  <PEOE_VSA+1>
45.44854

>  <PEOE_VSA+2>
16.509409

>  <PEOE_VSA+3>
8.6190128

>  <PEOE_VSA+4>
20.648346

>  <PEOE_VSA+5>
12.949531

>  <PEOE_VSA+6>
26.486044

>  <PEOE_VSA-0>
0

>  <PEOE_VSA-1>
0

>  <PEOE_VSA-2>
0

>  <PEOE_VSA-3>
35.725906

>  <PEOE_VSA-4>
13.566921

>  <PEOE_VSA-5>
13.703812

>  <PEOE_VSA-6>
18.038837

>  <PEOE_VSA_FHYD>
0.57100332

>  <PEOE_VSA_FNEG>
0.32984915

>  <PEOE_VSA_FPNEG>
0.18442938

>  <PEOE_VSA_FPOL>
0.42899671

>  <PEOE_VSA_FPOS>
0.67015088

>  <PEOE_VSA_FPPOS>
0.24456732

>  <PEOE_VSA_HYD>
140.28087

>  <PEOE_VSA_NEG>
81.035477

>  <PEOE_VSA_PNEG>
45.30957

>  <PEOE_VSA_POL>
105.39349

>  <PEOE_VSA_POS>
164.63889

>  <PEOE_VSA_PPOS>
60.08392

>  <petitjean>
0.44444445

>  <petitjeanSC>
0.80000001

>  <Q_PC+>
0

>  <Q_PC->
0

>  <Q_RPC+>
0

>  <Q_RPC->
0

>  <Q_VSA_FHYD>
1

>  <Q_VSA_FNEG>
0

>  <Q_VSA_FPNEG>
0

>  <Q_VSA_FPOL>
0

>  <Q_VSA_FPOS>
1

>  <Q_VSA_FPPOS>
0

>  <Q_VSA_HYD>
245.67436

>  <Q_VSA_NEG>
0

>  <Q_VSA_PNEG>
0

>  <Q_VSA_POL>
0

>  <Q_VSA_POS>
245.67436

>  <Q_VSA_PPOS>
0

>  <radius>
5

>  <reactive>
0

>  <rings>
2

>  <RPC+>
0

>  <RPC->
0

>  <rsynth>
1

>  <SlogP>
-0.5474

>  <SlogP_VSA0>
68.781204

>  <SlogP_VSA1>
20.97257

>  <SlogP_VSA2>
53.839226

>  <SlogP_VSA3>
20.926258

>  <SlogP_VSA4>
0

>  <SlogP_VSA5>
3.185575

>  <SlogP_VSA6>
0

>  <SlogP_VSA7>
17.214357

>  <SlogP_VSA8>
18.868406

>  <SlogP_VSA9>
68.742554

>  <SMR>
5.5886302

>  <SMR_VSA0>
58.724319

>  <SMR_VSA1>
98.775108

>  <SMR_VSA2>
25.770267

>  <SMR_VSA3>
22.162695

>  <SMR_VSA4>
0

>  <SMR_VSA5>
36.082764

>  <SMR_VSA6>
31.014997

>  <SMR_VSA7>
0

>  <TPSA>
99.099998

>  <VAdjEq>
0.48464775

>  <VAdjMa>
5.3923173

>  <VDistEq>
3.0048459

>  <VDistMa>
8.3673525

>  <vdw_area>
245.67436

>  <vdw_vol>
298.17419

>  <vsa_acc>
29.637598

>  <vsa_acid>
0

>  <vsa_base>
0

>  <vsa_don>
5.6825762

>  <vsa_hyd>
122.06346

>  <vsa_other>
43.339603

>  <vsa_pol>
62.454014

>  <Weight>
296.20099

>  <weinerPath>
775

>  <weinerPol>
32

>  <zagreb>
106

$$$$