S(O)(=O)(=O)NC1CCCCC1
  MOE2013           2D

 11 11  0  0  0  0  0  0  0  0999 V2000
    0.0000    0.0000    0.0000 S   0  0  0  0  0  0  0  0  0  0  0  0
    1.3000    0.7480    0.0000 O   0  0  0  0  0  0  0  0  0  0  0  0
   -0.7480    1.3000    0.0000 O   0  0  0  0  0  0  0  0  0  0  0  0
    0.7480   -1.3000    0.0000 O   0  0  0  0  0  0  0  0  0  0  0  0
   -1.3000   -0.7480    0.0000 N   0  0  0  0  0  0  0  0  0  0  0  0
   -2.5980    0.0050    0.0000 C   0  0  0  0  0  0  0  0  0  0  0  0
   -3.8990   -0.7430    0.0000 C   0  0  0  0  0  0  0  0  0  0  0  0
   -5.1960    0.0100    0.0000 C   0  0  0  0  0  0  0  0  0  0  0  0
   -5.1930    1.5100    0.0000 C   0  0  0  0  0  0  0  0  0  0  0  0
   -3.8930    2.2570    0.0000 C   0  0  0  0  0  0  0  0  0  0  0  0
   -2.5950    1.5050    0.0000 C   0  0  0  0  0  0  0  0  0  0  0  0
  1  2  1  0  0  0  0
  1  3  2  0  0  0  0
  1  4  2  0  0  0  0
  1  5  1  0  0  0  0
  5  6  1  0  0  0  0
  6  7  1  0  0  0  0
  6 11  1  0  0  0  0
  7  8  1  0  0  0  0
  8  9  1  0  0  0  0
  9 10  1  0  0  0  0
 10 11  1  0  0  0  0
M  END
>  <Index>
1243

>  <ID>
HT2768

>  <class>
0

>  <apol>
25.63431

>  <ast_fraglike>
0

>  <ast_fraglike_ext>
0

>  <ast_violation>
1

>  <ast_violation_ext>
1

>  <a_acc>
3

>  <a_acid>
0

>  <a_aro>
0

>  <a_base>
0

>  <a_count>
24

>  <a_don>
4

>  <a_donacc>
7

>  <a_heavy>
11

>  <a_hyd>
6

>  <a_IC>
41.66872

>  <a_ICM>
1.7361968

>  <a_nB>
0

>  <a_nBr>
0

>  <a_nC>
6

>  <a_nCl>
0

>  <a_nF>
0

>  <a_nH>
13

>  <a_nI>
0

>  <a_nN>
1

>  <a_nO>
3

>  <a_nP>
0

>  <a_nS>
1

>  <balabanJ>
2.2438407

>  <BCUT_PEOE_0>
-2.7849603

>  <BCUT_PEOE_1>
-0.5541122

>  <BCUT_PEOE_2>
0.5988695

>  <BCUT_PEOE_3>
2.7390928

>  <BCUT_SLOGP_0>
-2.7904449

>  <BCUT_SLOGP_1>
-0.54524046

>  <BCUT_SLOGP_2>
0.61785918

>  <BCUT_SLOGP_3>
2.8339605

>  <BCUT_SMR_0>
-2.5311759

>  <BCUT_SMR_1>
-0.43208933

>  <BCUT_SMR_2>
0.71432859

>  <BCUT_SMR_3>
3.0001276

>  <bpol>
21.347691

>  <b_1rotN>
2

>  <b_1rotR>
0.18181819

>  <b_ar>
0

>  <b_count>
24

>  <b_double>
0

>  <b_heavy>
11

>  <b_max1len>
5

>  <b_rotN>
2

>  <b_rotR>
0.18181819

>  <b_single>
24

>  <b_triple>
0

>  <chi0>
8.3199911

>  <chi0v>
7.1013393

>  <chi0v_C>
4.112884

>  <chi0_C>
4.112884

>  <chi1>
5.0782981

>  <chi1v>
5.2652669

>  <chi1v_C>
2.8164966

>  <chi1_C>
2.8164966

>  <chiral>
0

>  <chiral_u>
0

>  <density>
0.85604429

>  <diameter>
6

>  <FCharge>
0

>  <GCUT_PEOE_0>
-0.79226601

>  <GCUT_PEOE_1>
-0.36448628

>  <GCUT_PEOE_2>
0.083502717

>  <GCUT_PEOE_3>
2.4611564

>  <GCUT_SLOGP_0>
-1.133709

>  <GCUT_SLOGP_1>
-0.38278335

>  <GCUT_SLOGP_2>
0.13212167

>  <GCUT_SLOGP_3>
2.5203531

>  <GCUT_SMR_0>
-0.52668291

>  <GCUT_SMR_1>
-0.18513042

>  <GCUT_SMR_2>
0.18154514

>  <GCUT_SMR_3>
2.6949184

>  <Kier1>
9.090909

>  <Kier2>
3.5999999

>  <Kier3>
3.7869823

>  <KierA1>
10.478306

>  <KierA2>
4.2116666

>  <KierA3>
4.4889054

>  <KierFlex>
4.0119209

>  <lip_acc>
4

>  <lip_don>
2

>  <lip_druglike>
1

>  <lip_violation>
0

>  <logP(o/w)>
1.025

>  <logS>
-0.77951998

>  <mr>
4.2326236

>  <mutagenic>
0

>  <nmol>
1

>  <opr_brigid>
6

>  <opr_leadlike>
1

>  <opr_nring>
1

>  <opr_nrot>
3

>  <opr_violation>
0

>  <PC+>
0

>  <PC->
0

>  <PEOE_PC+>
0.76497483

>  <PEOE_PC->
-0.76497483

>  <PEOE_RPC+>
0.26344725

>  <PEOE_RPC->
0.28682989

>  <PEOE_VSA+0>
50.065208

>  <PEOE_VSA+1>
8.6190128

>  <PEOE_VSA+2>
10.324173

>  <PEOE_VSA+3>
0

>  <PEOE_VSA+4>
15.105593

>  <PEOE_VSA+5>
0

>  <PEOE_VSA+6>
0

>  <PEOE_VSA-0>
17.402626

>  <PEOE_VSA-1>
58.120464

>  <PEOE_VSA-2>
2.5295215

>  <PEOE_VSA-3>
0

>  <PEOE_VSA-4>
10.208881

>  <PEOE_VSA-5>
0

>  <PEOE_VSA-6>
0

>  <PEOE_VSA_FHYD>
0.85314339

>  <PEOE_VSA_FNEG>
0.51203042

>  <PEOE_VSA_FPNEG>
0.059224673

>  <PEOE_VSA_FPOL>
0.14685658

>  <PEOE_VSA_FPOS>
0.48796955

>  <PEOE_VSA_FPPOS>
0.087631911

>  <PEOE_VSA_HYD>
147.061

>  <PEOE_VSA_NEG>
88.26149

>  <PEOE_VSA_PNEG>
10.208881

>  <PEOE_VSA_POL>
25.314474

>  <PEOE_VSA_POS>
84.113983

>  <PEOE_VSA_PPOS>
15.105593

>  <petitjean>
0.5

>  <petitjeanSC>
1

>  <Q_PC+>
0

>  <Q_PC->
0

>  <Q_RPC+>
0

>  <Q_RPC->
0

>  <Q_VSA_FHYD>
1

>  <Q_VSA_FNEG>
0

>  <Q_VSA_FPNEG>
0

>  <Q_VSA_FPOL>
0

>  <Q_VSA_FPOS>
1

>  <Q_VSA_FPPOS>
0

>  <Q_VSA_HYD>
172.37547

>  <Q_VSA_NEG>
0

>  <Q_VSA_PNEG>
0

>  <Q_VSA_POL>
0

>  <Q_VSA_POS>
172.37547

>  <Q_VSA_PPOS>
0

>  <radius>
3

>  <reactive>
0

>  <rings>
1

>  <RPC+>
0

>  <RPC->
0

>  <rsynth>
1

>  <SlogP>
0.14579999

>  <SlogP_VSA0>
39.335751

>  <SlogP_VSA1>
48.171688

>  <SlogP_VSA2>
12.326592

>  <SlogP_VSA3>
0

>  <SlogP_VSA4>
0

>  <SlogP_VSA5>
0

>  <SlogP_VSA6>
0

>  <SlogP_VSA7>
0

>  <SlogP_VSA8>
94.342026

>  <SlogP_VSA9>
0

>  <SMR>
4.1147299

>  <SMR_VSA0>
48.171688

>  <SMR_VSA1>
22.930752

>  <SMR_VSA2>
16.404997

>  <SMR_VSA3>
3.9819686

>  <SMR_VSA4>
0

>  <SMR_VSA5>
94.342026

>  <SMR_VSA6>
0

>  <SMR_VSA7>
8.3446236

>  <TPSA>
66.400002

>  <VAdjEq>
0.68403846

>  <VAdjMa>
4.4594316

>  <VDistEq>
2.4575036

>  <VDistMa>
6.5885177

>  <vdw_area>
172.37547

>  <vdw_vol>
209.38168

>  <vsa_acc>
0

>  <vsa_acid>
0

>  <vsa_base>
0

>  <vsa_don>
8.0752068

>  <vsa_hyd>
85.742027

>  <vsa_other>
15.105593

>  <vsa_pol>
56.099991

>  <Weight>
179.24001

>  <weinerPath>
160

>  <weinerPol>
10

>  <zagreb>
52

$$$$