O1C(OC(=O)c2cc(O)c(O)c(O)c2)C(O)C(OC(=O)c2cc(O)c(O)c(O)c2)C(O)C1OC(=O)c1cc(O)c(O)c(O)c1
  MOE2013           2D

 44 47  0  0  1  0  0  0  0  0999 V2000
    0.0000    0.0000    0.0000 O   0  0  0  0  0  0  0  0  0  0  0  0
    0.7570   -1.2950    0.0000 C   0  0  3  0  0  0  0  0  0  0  0  0
    0.0140   -2.5980    0.0000 O   0  0  0  0  0  0  0  0  0  0  0  0
   -1.4860   -2.6060    0.0000 C   0  0  0  0  0  0  0  0  0  0  0  0
   -2.2430   -1.3120    0.0000 O   0  0  0  0  0  0  0  0  0  0  0  0
   -2.2280   -3.9100    0.0000 C   0  0  0  0  0  0  0  0  0  0  0  0
   -3.7280   -3.9180    0.0000 C   0  0  0  0  0  0  0  0  0  0  0  0
   -4.4710   -5.2210    0.0000 C   0  0  0  0  0  0  0  0  0  0  0  0
   -5.9710   -5.2290    0.0000 O   0  0  0  0  0  0  0  0  0  0  0  0
   -3.7140   -6.5160    0.0000 C   0  0  0  0  0  0  0  0  0  0  0  0
   -4.4570   -7.8190    0.0000 O   0  0  0  0  0  0  0  0  0  0  0  0
   -2.2140   -6.5080    0.0000 C   0  0  0  0  0  0  0  0  0  0  0  0
   -1.4570   -7.8020    0.0000 O   0  0  0  0  0  0  0  0  0  0  0  0
   -1.4710   -5.2040    0.0000 C   0  0  0  0  0  0  0  0  0  0  0  0
    2.2570   -1.2860    0.0000 C   0  0  3  0  0  0  0  0  0  0  0  0
    3.0140   -2.5810    0.0000 O   0  0  0  0  0  0  0  0  0  0  0  0
    3.0000    0.0170    0.0000 C   0  0  0  0  0  0  0  0  0  0  0  0
    4.5000    0.0250    0.0000 O   0  0  0  0  0  0  0  0  0  0  0  0
    5.2430    1.3280    0.0000 C   0  0  0  0  0  0  0  0  0  0  0  0
    4.4850    2.6230    0.0000 O   0  0  0  0  0  0  0  0  0  0  0  0
    6.7430    1.3370    0.0000 C   0  0  0  0  0  0  0  0  0  0  0  0
    7.5000    0.0420    0.0000 C   0  0  0  0  0  0  0  0  0  0  0  0
    9.0000    0.0500    0.0000 C   0  0  0  0  0  0  0  0  0  0  0  0
    9.7570   -1.2450    0.0000 O   0  0  0  0  0  0  0  0  0  0  0  0
    9.7430    1.3530    0.0000 C   0  0  0  0  0  0  0  0  0  0  0  0
   11.2430    1.3620    0.0000 O   0  0  0  0  0  0  0  0  0  0  0  0
    8.9850    2.6480    0.0000 C   0  0  0  0  0  0  0  0  0  0  0  0
    9.7280    3.9510    0.0000 O   0  0  0  0  0  0  0  0  0  0  0  0
    7.4850    2.6400    0.0000 C   0  0  0  0  0  0  0  0  0  0  0  0
    2.2430    1.3120    0.0000 C   0  0  3  0  0  0  0  0  0  0  0  0
    2.9850    2.6150    0.0000 O   0  0  0  0  0  0  0  0  0  0  0  0
    0.7430    1.3030    0.0000 C   0  0  3  0  0  0  0  0  0  0  0  0
   -0.0140    2.5980    0.0000 O   0  0  0  0  0  0  0  0  0  0  0  0
   -1.5140    2.5900    0.0000 C   0  0  0  0  0  0  0  0  0  0  0  0
   -2.2570    1.2860    0.0000 O   0  0  0  0  0  0  0  0  0  0  0  0
   -2.2720    3.8850    0.0000 C   0  0  0  0  0  0  0  0  0  0  0  0
   -1.5290    5.1880    0.0000 C   0  0  0  0  0  0  0  0  0  0  0  0
   -2.2860    6.4830    0.0000 C   0  0  0  0  0  0  0  0  0  0  0  0
   -1.5430    7.7860    0.0000 O   0  0  0  0  0  0  0  0  0  0  0  0
   -3.7860    6.4740    0.0000 C   0  0  0  0  0  0  0  0  0  0  0  0
   -4.5430    7.7690    0.0000 O   0  0  0  0  0  0  0  0  0  0  0  0
   -4.5290    5.1710    0.0000 C   0  0  0  0  0  0  0  0  0  0  0  0
   -6.0290    5.1630    0.0000 O   0  0  0  0  0  0  0  0  0  0  0  0
   -3.7720    3.8760    0.0000 C   0  0  0  0  0  0  0  0  0  0  0  0
  1  2  1  0  0  0  0
  1 32  1  0  0  0  0
  2  3  1  0  0  0  0
  2 15  1  0  0  0  0
  3  4  1  0  0  0  0
  4  5  2  0  0  0  0
  4  6  1  0  0  0  0
  6  7  1  0  0  0  0
  6 14  2  0  0  0  0
  7  8  2  0  0  0  0
  8  9  1  0  0  0  0
  8 10  1  0  0  0  0
 10 11  1  0  0  0  0
 10 12  2  0  0  0  0
 12 13  1  0  0  0  0
 12 14  1  0  0  0  0
 15 16  1  0  0  0  0
 15 17  1  0  0  0  0
 17 18  1  0  0  0  0
 17 30  1  0  0  0  0
 18 19  1  0  0  0  0
 19 20  2  0  0  0  0
 19 21  1  0  0  0  0
 21 22  1  0  0  0  0
 21 29  2  0  0  0  0
 22 23  2  0  0  0  0
 23 24  1  0  0  0  0
 23 25  1  0  0  0  0
 25 26  1  0  0  0  0
 25 27  2  0  0  0  0
 27 28  1  0  0  0  0
 27 29  1  0  0  0  0
 30 31  1  0  0  0  0
 30 32  1  0  0  0  0
 32 33  1  0  0  0  0
 33 34  1  0  0  0  0
 34 35  2  0  0  0  0
 34 36  1  0  0  0  0
 36 37  1  0  0  0  0
 36 44  2  0  0  0  0
 37 38  2  0  0  0  0
 38 39  1  0  0  0  0
 38 40  1  0  0  0  0
 40 41  1  0  0  0  0
 40 42  2  0  0  0  0
 42 43  1  0  0  0  0
 42 44  1  0  0  0  0
M  END
>  <Index>
1403

>  <ID>
HT3955

>  <class>
0

>  <apol>
74.865448

>  <ast_fraglike>
0

>  <ast_fraglike_ext>
0

>  <ast_violation>
3

>  <ast_violation_ext>
5

>  <a_acc>
15

>  <a_acid>
0

>  <a_aro>
18

>  <a_base>
0

>  <a_count>
66

>  <a_don>
11

>  <a_donacc>
26

>  <a_heavy>
44

>  <a_hyd>
21

>  <a_IC>
103.55244

>  <a_ICM>
1.5689763

>  <a_nB>
0

>  <a_nBr>
0

>  <a_nC>
26

>  <a_nCl>
0

>  <a_nF>
0

>  <a_nH>
22

>  <a_nI>
0

>  <a_nN>
0

>  <a_nO>
18

>  <a_nP>
0

>  <a_nS>
0

>  <balabanJ>
1.4969965

>  <BCUT_PEOE_0>
-2.6682281

>  <BCUT_PEOE_1>
-0.91733515

>  <BCUT_PEOE_2>
0.97006691

>  <BCUT_PEOE_3>
2.7807641

>  <BCUT_SLOGP_0>
-2.8773775

>  <BCUT_SLOGP_1>
-0.97846073

>  <BCUT_SLOGP_2>
0.82681811

>  <BCUT_SLOGP_3>
2.5625739

>  <BCUT_SMR_0>
-2.4879851

>  <BCUT_SMR_1>
-0.73496395

>  <BCUT_SMR_2>
1.1279199

>  <BCUT_SMR_3>
2.9443045

>  <bpol>
34.588554

>  <b_1rotN>
6

>  <b_1rotR>
0.12765957

>  <b_ar>
18

>  <b_count>
69

>  <b_double>
3

>  <b_heavy>
47

>  <b_max1len>
3

>  <b_rotN>
9

>  <b_rotR>
0.19148937

>  <b_single>
48

>  <b_triple>
0

>  <chi0>
32.618073

>  <chi0v>
21.627941

>  <chi0v_C>
13.850853

>  <chi0_C>
15.789646

>  <chi1>
20.581203

>  <chi1v>
11.97955

>  <chi1v_C>
7.0474348

>  <chi1_C>
9.2323132

>  <chiral>
4

>  <chiral_u>
4

>  <density>
0.91498011

>  <diameter>
16

>  <FCharge>
0

>  <GCUT_PEOE_0>
-0.77029872

>  <GCUT_PEOE_1>
-0.52225441

>  <GCUT_PEOE_2>
0.29056177

>  <GCUT_PEOE_3>
2.7966008

>  <GCUT_SLOGP_0>
-0.9432742

>  <GCUT_SLOGP_1>
-0.41525209

>  <GCUT_SLOGP_2>
0.16421077

>  <GCUT_SLOGP_3>
2.7732959

>  <GCUT_SMR_0>
-0.52105147

>  <GCUT_SMR_1>
-0.30076557

>  <GCUT_SMR_2>
0.38561425

>  <GCUT_SMR_3>
3.0117607

>  <Kier1>
36.829334

>  <Kier2>
15.48

>  <Kier3>
8.5448961

>  <KierA1>
29.169649

>  <KierA2>
12.190396

>  <KierA3>
6.7023001

>  <KierFlex>
8.0815821

>  <lip_acc>
18

>  <lip_don>
11

>  <lip_druglike>
0

>  <lip_violation>
3

>  <logP(o/w)>
1.336

>  <logS>
-2.5090599

>  <mr>
13.456387

>  <mutagenic>
0

>  <nmol>
1

>  <opr_brigid>
24

>  <opr_leadlike>
0

>  <opr_nring>
4

>  <opr_nrot>
8

>  <opr_violation>
3

>  <PC+>
0

>  <PC->
0

>  <PEOE_PC+>
6.0285759

>  <PEOE_PC->
-6.0285759

>  <PEOE_RPC+>
0.049147904

>  <PEOE_RPC->
0.06370651

>  <PEOE_VSA+0>
0

>  <PEOE_VSA+1>
53.544865

>  <PEOE_VSA+2>
90.841461

>  <PEOE_VSA+3>
22.309816

>  <PEOE_VSA+4>
113.5659

>  <PEOE_VSA+5>
44.125496

>  <PEOE_VSA+6>
0

>  <PEOE_VSA-0>
73.529427

>  <PEOE_VSA-1>
0

>  <PEOE_VSA-2>
0

>  <PEOE_VSA-3>
0

>  <PEOE_VSA-4>
0

>  <PEOE_VSA-5>
45.708275

>  <PEOE_VSA-6>
90.450455

>  <PEOE_VSA_FHYD>
0.44979686

>  <PEOE_VSA_FNEG>
0.39261881

>  <PEOE_VSA_FPNEG>
0.25494274

>  <PEOE_VSA_FPOL>
0.55020314

>  <PEOE_VSA_FPOS>
0.60738122

>  <PEOE_VSA_FPPOS>
0.2952604

>  <PEOE_VSA_HYD>
240.22557

>  <PEOE_VSA_NEG>
209.68816

>  <PEOE_VSA_PNEG>
136.15874

>  <PEOE_VSA_POL>
293.85013

>  <PEOE_VSA_POS>
324.38754

>  <PEOE_VSA_PPOS>
157.69139

>  <petitjean>
0.4375

>  <petitjeanSC>
0.77777779

>  <Q_PC+>
0

>  <Q_PC->
0

>  <Q_RPC+>
0

>  <Q_RPC->
0

>  <Q_VSA_FHYD>
1

>  <Q_VSA_FNEG>
0

>  <Q_VSA_FPNEG>
0

>  <Q_VSA_FPOL>
0

>  <Q_VSA_FPOS>
1

>  <Q_VSA_FPPOS>
0

>  <Q_VSA_HYD>
534.07568

>  <Q_VSA_NEG>
0

>  <Q_VSA_PNEG>
0

>  <Q_VSA_POL>
0

>  <Q_VSA_POS>
534.07568

>  <Q_VSA_PPOS>
0

>  <radius>
9

>  <reactive>
0

>  <rings>
4

>  <RPC+>
0

>  <RPC->
0

>  <rsynth>
1

>  <SlogP>
-0.31940001

>  <SlogP_VSA0>
279.23749

>  <SlogP_VSA1>
23.236393

>  <SlogP_VSA2>
80.458504

>  <SlogP_VSA3>
0

>  <SlogP_VSA4>
81.143372

>  <SlogP_VSA5>
0

>  <SlogP_VSA6>
0

>  <SlogP_VSA7>
105.85911

>  <SlogP_VSA8>
0

>  <SlogP_VSA9>
47.190853

>  <SMR>
13.50183

>  <SMR_VSA0>
115.5862

>  <SMR_VSA1>
279.23749

>  <SMR_VSA2>
0

>  <SMR_VSA3>
93.206528

>  <SMR_VSA4>
0

>  <SMR_VSA5>
105.85911

>  <SMR_VSA6>
23.236393

>  <SMR_VSA7>
0

>  <TPSA>
310.66

>  <VAdjEq>
0.28022119

>  <VAdjMa>
6.5545888

>  <VDistEq>
3.8625317

>  <VDistMa>
10.669323

>  <vdw_area>
534.07568

>  <vdw_vol>
680.28143

>  <vsa_acc>
43.204517

>  <vsa_acid>
0

>  <vsa_base>
0

>  <vsa_don>
0

>  <vsa_hyd>
202.97882

>  <vsa_other>
81.053764

>  <vsa_pol>
192.44064

>  <Weight>
622.44397

>  <weinerPath>
6997

>  <weinerPol>
80

>  <zagreb>
234

$$$$