S(=O)(=O)(NC(=O)C)c1ccc(N)cc1
  MOE2013           2D

 14 14  0  0  0  0  0  0  0  0999 V2000
    0.0000    0.0000    0.0000 S   0  0  0  0  0  0  0  0  0  0  0  0
    0.0020   -1.5000    0.0000 O   0  0  0  0  0  0  0  0  0  0  0  0
   -0.0020    1.5000    0.0000 O   0  0  0  0  0  0  0  0  0  0  0  0
    1.5000    0.0020    0.0000 N   0  0  0  0  0  0  0  0  0  0  0  0
    2.2520   -1.2960    0.0000 C   0  0  0  0  0  0  0  0  0  0  0  0
    3.7520   -1.2950    0.0000 O   0  0  0  0  0  0  0  0  0  0  0  0
    1.5030   -2.5960    0.0000 C   0  0  0  0  0  0  0  0  0  0  0  0
   -1.5000   -0.0020    0.0000 C   0  0  0  0  0  0  0  0  0  0  0  0
   -2.2480   -1.3020    0.0000 C   0  0  0  0  0  0  0  0  0  0  0  0
   -3.7480   -1.3030    0.0000 C   0  0  0  0  0  0  0  0  0  0  0  0
   -4.5000   -0.0050    0.0000 C   0  0  0  0  0  0  0  0  0  0  0  0
   -6.0000   -0.0070    0.0000 N   0  0  0  0  0  0  0  0  0  0  0  0
   -3.7520    1.2950    0.0000 C   0  0  0  0  0  0  0  0  0  0  0  0
   -2.2520    1.2960    0.0000 C   0  0  0  0  0  0  0  0  0  0  0  0
  1  2  2  0  0  0  0
  1  3  2  0  0  0  0
  1  4  1  0  0  0  0
  1  8  1  0  0  0  0
  4  5  1  0  0  0  0
  5  6  2  0  0  0  0
  5  7  1  0  0  0  0
  8  9  1  0  0  0  0
  8 14  2  0  0  0  0
  9 10  2  0  0  0  0
 10 11  1  0  0  0  0
 11 12  1  0  0  0  0
 11 13  2  0  0  0  0
 13 14  1  0  0  0  0
M  END
>  <Index>
1010

>  <ID>
HT1934

>  <class>
0

>  <apol>
28.253929

>  <ast_fraglike>
1

>  <ast_fraglike_ext>
0

>  <ast_violation>
0

>  <ast_violation_ext>
1

>  <a_acc>
3

>  <a_acid>
0

>  <a_aro>
6

>  <a_base>
0

>  <a_count>
24

>  <a_don>
2

>  <a_donacc>
5

>  <a_heavy>
14

>  <a_hyd>
7

>  <a_IC>
46.06493

>  <a_ICM>
1.9193722

>  <a_nB>
0

>  <a_nBr>
0

>  <a_nC>
8

>  <a_nCl>
0

>  <a_nF>
0

>  <a_nH>
10

>  <a_nI>
0

>  <a_nN>
2

>  <a_nO>
3

>  <a_nP>
0

>  <a_nS>
1

>  <balabanJ>
2.4810069

>  <BCUT_PEOE_0>
-2.3622928

>  <BCUT_PEOE_1>
-0.64516366

>  <BCUT_PEOE_2>
0.45018175

>  <BCUT_PEOE_3>
2.440964

>  <BCUT_SLOGP_0>
-2.5774732

>  <BCUT_SLOGP_1>
-0.54121071

>  <BCUT_SLOGP_2>
0.5192861

>  <BCUT_SLOGP_3>
2.3783934

>  <BCUT_SMR_0>
-2.0405633

>  <BCUT_SMR_1>
-0.37857372

>  <BCUT_SMR_2>
0.6655432

>  <BCUT_SMR_3>
2.7725434

>  <bpol>
18.36607

>  <b_1rotN>
2

>  <b_1rotR>
0.14285715

>  <b_ar>
6

>  <b_count>
24

>  <b_double>
1

>  <b_heavy>
14

>  <b_max1len>
3

>  <b_rotN>
3

>  <b_rotR>
0.21428572

>  <b_single>
17

>  <b_triple>
0

>  <chi0>
10.767585

>  <chi0v>
8.3362408

>  <chi0v_C>
4.809401

>  <chi0_C>
5.5604777

>  <chi1>
6.4155207

>  <chi1v>
5.2889113

>  <chi1v_C>
2.3213673

>  <chi1_C>
3.2103434

>  <chiral>
0

>  <chiral_u>
0

>  <density>
0.86209255

>  <diameter>
8

>  <FCharge>
0

>  <GCUT_PEOE_0>
-0.82193196

>  <GCUT_PEOE_1>
-0.39592612

>  <GCUT_PEOE_2>
0.0087922718

>  <GCUT_PEOE_3>
2.245127

>  <GCUT_SLOGP_0>
-1.3342931

>  <GCUT_SLOGP_1>
-0.41781345

>  <GCUT_SLOGP_2>
0.090951286

>  <GCUT_SLOGP_3>
2.2612603

>  <GCUT_SMR_0>
-0.46840614

>  <GCUT_SMR_1>
-0.20195214

>  <GCUT_SMR_2>
0.17828164

>  <GCUT_SMR_3>
2.5226502

>  <Kier1>
12.071428

>  <Kier2>
4.6799998

>  <Kier3>
3.5918367

>  <KierA1>
9.7383537

>  <KierA2>
3.7075453

>  <KierA3>
2.8060892

>  <KierFlex>
2.5789561

>  <lip_acc>
5

>  <lip_don>
3

>  <lip_druglike>
1

>  <lip_violation>
0

>  <logP(o/w)>
0.082999997

>  <logS>
-1.5383

>  <mr>
5.3011909

>  <mutagenic>
1

>  <nmol>
1

>  <opr_brigid>
6

>  <opr_leadlike>
1

>  <opr_nring>
1

>  <opr_nrot>
1

>  <opr_violation>
0

>  <PC+>
0

>  <PC->
0

>  <PEOE_PC+>
1.3729701

>  <PEOE_PC->
-1.3729701

>  <PEOE_RPC+>
0.22269017

>  <PEOE_RPC->
0.40462488

>  <PEOE_VSA+0>
44.005516

>  <PEOE_VSA+1>
30.011074

>  <PEOE_VSA+2>
25.857038

>  <PEOE_VSA+3>
10.105608

>  <PEOE_VSA+4>
0

>  <PEOE_VSA+5>
0

>  <PEOE_VSA+6>
4.1846013

>  <PEOE_VSA-0>
43.257484

>  <PEOE_VSA-1>
0

>  <PEOE_VSA-2>
32.016521

>  <PEOE_VSA-3>
2.5295215

>  <PEOE_VSA-4>
0

>  <PEOE_VSA-5>
0

>  <PEOE_VSA-6>
20.21804

>  <PEOE_VSA_FHYD>
0.88499379

>  <PEOE_VSA_FNEG>
0.46196187

>  <PEOE_VSA_FPNEG>
0.095284782

>  <PEOE_VSA_FPOL>
0.11500622

>  <PEOE_VSA_FPOS>
0.53803813

>  <PEOE_VSA_FPPOS>
0.019721437

>  <PEOE_VSA_HYD>
187.78278

>  <PEOE_VSA_NEG>
98.021568

>  <PEOE_VSA_PNEG>
20.21804

>  <PEOE_VSA_POL>
24.402641

>  <PEOE_VSA_POS>
114.16384

>  <PEOE_VSA_PPOS>
4.1846013

>  <petitjean>
0.5

>  <petitjeanSC>
1

>  <Q_PC+>
0

>  <Q_PC->
0

>  <Q_RPC+>
0

>  <Q_RPC->
0

>  <Q_VSA_FHYD>
1

>  <Q_VSA_FNEG>
0

>  <Q_VSA_FPNEG>
0

>  <Q_VSA_FPOL>
0

>  <Q_VSA_FPOS>
1

>  <Q_VSA_FPPOS>
0

>  <Q_VSA_HYD>
212.18541

>  <Q_VSA_NEG>
0

>  <Q_VSA_PNEG>
0

>  <Q_VSA_POL>
0

>  <Q_VSA_POS>
212.18541

>  <Q_VSA_PPOS>
0

>  <radius>
4

>  <reactive>
0

>  <rings>
1

>  <RPC+>
0

>  <RPC->
0

>  <rsynth>
1

>  <SlogP>
0.093599997

>  <SlogP_VSA0>
49.302185

>  <SlogP_VSA1>
53.430473

>  <SlogP_VSA2>
30.502958

>  <SlogP_VSA3>
0

>  <SlogP_VSA4>
0

>  <SlogP_VSA5>
1.5507339

>  <SlogP_VSA6>
0

>  <SlogP_VSA7>
70.572739

>  <SlogP_VSA8>
0

>  <SlogP_VSA9>
36.082764

>  <SMR>
5.1856899

>  <SMR_VSA0>
72.033905

>  <SMR_VSA1>
0

>  <SMR_VSA2>
17.955732

>  <SMR_VSA3>
0

>  <SMR_VSA4>
2.7567475

>  <SMR_VSA5>
103.46992

>  <SMR_VSA6>
5.2587838

>  <SMR_VSA7>
39.966759

>  <TPSA>
89.260002

>  <VAdjEq>
0.59167278

>  <VAdjMa>
4.8073549

>  <VDistEq>
2.7410436

>  <VDistMa>
7.3053617

>  <vdw_area>
212.18541

>  <vdw_vol>
248.51741

>  <vsa_acc>
45.583443

>  <vsa_acid>
0

>  <vsa_base>
0

>  <vsa_don>
25.817696

>  <vsa_hyd>
103.52658

>  <vsa_other>
23.05514

>  <vsa_pol>
71.401138

>  <Weight>
214.245

>  <weinerPath>
307

>  <weinerPol>
18

>  <zagreb>
68

$$$$