OC1CC(C)(C)C(C=CC(=CC=CC(=CC=CC=C(C=CC=C(C=CC2C(CC(O)C=C2C)(C)C)/C)/C)C)C)=C(C1)C
  MOE2013           2D

 42 43  0  0  1  0  0  0  0  0999 V2000
    0.0000    0.0000    0.0000 O   0  0  0  0  0  0  0  0  0  0  0  0
   -0.7440   -1.3020    0.0000 C   0  0  3  0  0  0  0  0  0  0  0  0
    0.0110   -2.5980    0.0000 C   0  0  0  0  0  0  0  0  0  0  0  0
   -0.7330   -3.9000    0.0000 C   0  0  0  0  0  0  0  0  0  0  0  0
    0.5690   -4.6450    0.0000 C   0  0  0  0  0  0  0  0  0  0  0  0
   -0.7260   -5.4000    0.0000 C   0  0  0  0  0  0  0  0  0  0  0  0
   -2.2330   -3.9070    0.0000 C   0  0  0  0  0  0  0  0  0  0  0  0
   -2.9770   -5.2090    0.0000 C   0  0  0  0  0  0  0  0  0  0  0  0
   -4.4770   -5.2160    0.0000 C   0  0  0  0  0  0  0  0  0  0  0  0
   -5.2210   -6.5180    0.0000 C   0  0  0  0  0  0  0  0  0  0  0  0
   -6.7210   -6.5250    0.0000 C   0  0  0  0  0  0  0  0  0  0  0  0
   -7.4660   -7.8270    0.0000 C   0  0  0  0  0  0  0  0  0  0  0  0
   -8.9660   -7.8340    0.0000 C   0  0  0  0  0  0  0  0  0  0  0  0
   -9.7100   -9.1360    0.0000 C   0  0  0  0  0  0  0  0  0  0  0  0
  -11.2100   -9.1420    0.0000 C   0  0  0  0  0  0  0  0  0  0  0  0
  -11.9660   -7.8470    0.0000 C   0  0  0  0  0  0  0  0  0  0  0  0
  -13.4660   -7.8530    0.0000 C   0  0  0  0  0  0  0  0  0  0  0  0
  -14.2210   -6.5580    0.0000 C   0  0  0  0  0  0  0  0  0  0  0  0
  -15.7210   -6.5640    0.0000 C   0  0  0  0  0  0  0  0  0  0  0  0
  -16.4770   -5.2680    0.0000 C   0  0  0  0  0  0  0  0  0  0  0  0
  -17.9770   -5.2750    0.0000 C   0  0  0  0  0  0  0  0  0  0  0  0
  -18.7330   -3.9790    0.0000 C   0  0  0  0  0  0  0  0  0  0  0  0
  -20.2330   -3.9860    0.0000 C   0  0  0  0  0  0  0  0  0  0  0  0
  -20.9880   -2.6900    0.0000 C   0  0  0  0  0  0  0  0  0  0  0  0
  -22.4880   -2.6970    0.0000 C   0  0  0  0  0  0  0  0  0  0  0  0
  -23.2440   -1.4010    0.0000 C   0  0  3  0  0  0  0  0  0  0  0  0
  -24.7440   -1.4070    0.0000 C   0  0  0  0  0  0  0  0  0  0  0  0
  -25.5000   -0.1120    0.0000 C   0  0  0  0  0  0  0  0  0  0  0  0
  -24.7550    1.1910    0.0000 C   0  0  3  0  0  0  0  0  0  0  0  0
  -25.5110    2.4860    0.0000 O   0  0  0  0  0  0  0  0  0  0  0  0
  -23.2550    1.1970    0.0000 C   0  0  0  0  0  0  0  0  0  0  0  0
  -22.5000   -0.0990    0.0000 C   0  0  0  0  0  0  0  0  0  0  0  0
  -21.0000   -0.0920    0.0000 C   0  0  0  0  0  0  0  0  0  0  0  0
  -26.0400   -2.1630    0.0000 C   0  0  0  0  0  0  0  0  0  0  0  0
  -24.7370   -2.9070    0.0000 C   0  0  0  0  0  0  0  0  0  0  0  0
  -20.9770   -5.2880    0.0000 C   0  0  0  0  0  0  0  0  0  0  0  0
  -16.4660   -7.8660    0.0000 C   0  0  0  0  0  0  0  0  0  0  0  0
   -8.9540  -10.4320    0.0000 C   0  0  0  0  0  0  0  0  0  0  0  0
   -4.4660   -7.8140    0.0000 C   0  0  0  0  0  0  0  0  0  0  0  0
   -2.9890   -2.6110    0.0000 C   0  0  0  0  0  0  0  0  0  0  0  0
   -2.2440   -1.3090    0.0000 C   0  0  0  0  0  0  0  0  0  0  0  0
   -4.4890   -2.6180    0.0000 C   0  0  0  0  0  0  0  0  0  0  0  0
  1  2  1  0  0  0  0
  2  3  1  0  0  0  0
  2 41  1  0  0  0  0
  3  4  1  0  0  0  0
  4  5  1  0  0  0  0
  4  6  1  0  0  0  0
  4  7  1  0  0  0  0
  7  8  1  0  0  0  0
  7 40  2  0  0  0  0
  8  9  2  3  0  0  0
  9 10  1  0  0  0  0
 10 11  2  3  0  0  0
 10 39  1  0  0  0  0
 11 12  1  0  0  0  0
 12 13  2  3  0  0  0
 13 14  1  0  0  0  0
 14 15  2  3  0  0  0
 14 38  1  0  0  0  0
 15 16  1  0  0  0  0
 16 17  2  3  0  0  0
 17 18  1  0  0  0  0
 18 19  2  3  0  0  0
 19 20  1  0  0  0  0
 19 37  1  0  0  0  0
 20 21  2  3  0  0  0
 21 22  1  0  0  0  0
 22 23  2  3  0  0  0
 23 24  1  0  0  0  0
 23 36  1  0  0  0  0
 24 25  2  3  0  0  0
 25 26  1  0  0  0  0
 26 27  1  0  0  0  0
 26 32  1  0  0  0  0
 27 28  1  0  0  0  0
 27 34  1  0  0  0  0
 27 35  1  0  0  0  0
 28 29  1  0  0  0  0
 29 30  1  0  0  0  0
 29 31  1  0  0  0  0
 31 32  2  0  0  0  0
 32 33  1  0  0  0  0
 40 41  1  0  0  0  0
 40 42  1  0  0  0  0
M  END
>  <Index>
1155

>  <ID>
HT2199

>  <class>
0

>  <apol>
109.34441

>  <ast_fraglike>
0

>  <ast_fraglike_ext>
0

>  <ast_violation>
2

>  <ast_violation_ext>
3

>  <a_acc>
2

>  <a_acid>
0

>  <a_aro>
0

>  <a_base>
0

>  <a_count>
98

>  <a_don>
2

>  <a_donacc>
4

>  <a_heavy>
42

>  <a_hyd>
40

>  <a_IC>
108.15257

>  <a_ICM>
1.1035976

>  <a_nB>
0

>  <a_nBr>
0

>  <a_nC>
40

>  <a_nCl>
0

>  <a_nF>
0

>  <a_nH>
56

>  <a_nI>
0

>  <a_nN>
0

>  <a_nO>
2

>  <a_nP>
0

>  <a_nS>
0

>  <balabanJ>
1.4804286

>  <BCUT_PEOE_0>
-2.7771559

>  <BCUT_PEOE_1>
-0.44096994

>  <BCUT_PEOE_2>
0.5433358

>  <BCUT_PEOE_3>
2.7391045

>  <BCUT_SLOGP_0>
-2.7066085

>  <BCUT_SLOGP_1>
-0.39240497

>  <BCUT_SLOGP_2>
0.4742811

>  <BCUT_SLOGP_3>
2.8229308

>  <BCUT_SMR_0>
-2.5202034

>  <BCUT_SMR_1>
-0.34066164

>  <BCUT_SMR_2>
0.63532692

>  <BCUT_SMR_3>
2.9982798

>  <bpol>
61.219593

>  <b_1rotN>
10

>  <b_1rotR>
0.23255815

>  <b_ar>
0

>  <b_count>
99

>  <b_double>
11

>  <b_heavy>
43

>  <b_max1len>
4

>  <b_rotN>
10

>  <b_rotR>
0.23255815

>  <b_single>
88

>  <b_triple>
0

>  <chi0>
31.501425

>  <chi0v>
27.908052

>  <chi0v_C>
27.013626

>  <chi0_C>
29.501425

>  <chi1>
19.601898

>  <chi1v>
15.432571

>  <chi1v_C>
14.916173

>  <chi1_C>
18.447199

>  <chiral>
3

>  <chiral_u>
3

>  <density>
0.62146389

>  <diameter>
27

>  <FCharge>
0

>  <GCUT_PEOE_0>
-0.79855561

>  <GCUT_PEOE_1>
-0.32656142

>  <GCUT_PEOE_2>
0.042526994

>  <GCUT_PEOE_3>
2.8609657

>  <GCUT_SLOGP_0>
-0.87533617

>  <GCUT_SLOGP_1>
-0.23841159

>  <GCUT_SLOGP_2>
-0.0081461053

>  <GCUT_SLOGP_3>
2.9825273

>  <GCUT_SMR_0>
-0.53105515

>  <GCUT_SMR_1>
-0.18423416

>  <GCUT_SMR_2>
0.14495084

>  <GCUT_SMR_3>
3.1198487

>  <Kier1>
38.183884

>  <Kier2>
18.222221

>  <Kier3>
13.900646

>  <KierA1>
30.792524

>  <KierA2>
14.613761

>  <KierA3>
11.105097

>  <KierFlex>
10.714156

>  <lip_acc>
2

>  <lip_don>
2

>  <lip_druglike>
0

>  <lip_violation>
2

>  <logP(o/w)>
8.7659998

>  <logS>
-15.18121

>  <mr>
17.928328

>  <mutagenic>
0

>  <nmol>
1

>  <opr_brigid>
21

>  <opr_leadlike>
0

>  <opr_nring>
2

>  <opr_nrot>
12

>  <opr_violation>
3

>  <PC+>
0

>  <PC->
0

>  <PEOE_PC+>
2.610857

>  <PEOE_PC->
-2.610857

>  <PEOE_RPC+>
0.080512546

>  <PEOE_RPC->
0.14993005

>  <PEOE_VSA+0>
157.81927

>  <PEOE_VSA+1>
82.321419

>  <PEOE_VSA+2>
0

>  <PEOE_VSA+3>
0

>  <PEOE_VSA+4>
20.648346

>  <PEOE_VSA+5>
0

>  <PEOE_VSA+6>
0

>  <PEOE_VSA-0>
140.79854

>  <PEOE_VSA-1>
272.06552

>  <PEOE_VSA-2>
0

>  <PEOE_VSA-3>
0

>  <PEOE_VSA-4>
0

>  <PEOE_VSA-5>
0

>  <PEOE_VSA-6>
15.535081

>  <PEOE_VSA_FHYD>
0.9474985

>  <PEOE_VSA_FNEG>
0.62159967

>  <PEOE_VSA_FPNEG>
0.02254113

>  <PEOE_VSA_FPOL>
0.052501518

>  <PEOE_VSA_FPOS>
0.37840036

>  <PEOE_VSA_FPPOS>
0.029960388

>  <PEOE_VSA_HYD>
653.00476

>  <PEOE_VSA_NEG>
428.39914

>  <PEOE_VSA_PNEG>
15.535081

>  <PEOE_VSA_POL>
36.183426

>  <PEOE_VSA_POS>
260.78906

>  <PEOE_VSA_PPOS>
20.648346

>  <petitjean>
0.48148149

>  <petitjeanSC>
0.9285714

>  <Q_PC+>
0

>  <Q_PC->
0

>  <Q_RPC+>
0

>  <Q_RPC->
0

>  <Q_VSA_FHYD>
1

>  <Q_VSA_FNEG>
0

>  <Q_VSA_FPNEG>
0

>  <Q_VSA_FPOL>
0

>  <Q_VSA_FPOS>
1

>  <Q_VSA_FPPOS>
0

>  <Q_VSA_HYD>
689.18817

>  <Q_VSA_NEG>
0

>  <Q_VSA_PNEG>
0

>  <Q_VSA_POL>
0

>  <Q_VSA_POS>
689.18817

>  <Q_VSA_PPOS>
0

>  <radius>
14

>  <reactive>
0

>  <rings>
2

>  <RPC+>
0

>  <RPC->
0

>  <rsynth>
0

>  <SlogP>
10.4033

>  <SlogP_VSA0>
50.770454

>  <SlogP_VSA1>
0

>  <SlogP_VSA2>
12.937299

>  <SlogP_VSA3>
0

>  <SlogP_VSA4>
4.4107962

>  <SlogP_VSA5>
22.299025

>  <SlogP_VSA6>
0

>  <SlogP_VSA7>
264.64777

>  <SlogP_VSA8>
56.605217

>  <SlogP_VSA9>
333.26016

>  <SMR>
18.41016

>  <SMR_VSA0>
0

>  <SMR_VSA1>
50.770454

>  <SMR_VSA2>
4.4107962

>  <SMR_VSA3>
35.236324

>  <SMR_VSA4>
0

>  <SMR_VSA5>
321.25299

>  <SMR_VSA6>
0

>  <SMR_VSA7>
333.26016

>  <TPSA>
40.459999

>  <VAdjEq>
0.28107527

>  <VAdjMa>
6.4262648

>  <VDistEq>
4.5592303

>  <VDistMa>
10.421968

>  <vdw_area>
689.18817

>  <vdw_vol>
915.39673

>  <vsa_acc>
0

>  <vsa_acid>
0

>  <vsa_base>
0

>  <vsa_don>
0

>  <vsa_hyd>
613.22278

>  <vsa_other>
0

>  <vsa_pol>
27.133842

>  <Weight>
568.88599

>  <weinerPath>
9111

>  <weinerPol>
61

>  <zagreb>
206

$$$$