OC(=O)CN(CC(=O)Nc1ccc(cc1)C(C)C)CC(O)=O
  MOE2013           2D

 22 22  0  0  0  0  0  0  0  0999 V2000
    0.0000    0.0000    0.0000 O   0  0  0  0  0  0  0  0  0  0  0  0
    1.3030    0.7440    0.0000 C   0  0  0  0  0  0  0  0  0  0  0  0
    1.3100    2.2440    0.0000 O   0  0  0  0  0  0  0  0  0  0  0  0
    2.5980   -0.0130    0.0000 C   0  0  0  0  0  0  0  0  0  0  0  0
    2.5910   -1.5130    0.0000 N   0  0  0  0  0  0  0  0  0  0  0  0
    3.8860   -2.2690    0.0000 C   0  0  0  0  0  0  0  0  0  0  0  0
    5.1890   -1.5260    0.0000 C   0  0  0  0  0  0  0  0  0  0  0  0
    5.1960   -0.0260    0.0000 O   0  0  0  0  0  0  0  0  0  0  0  0
    6.4840   -2.2820    0.0000 N   0  0  0  0  0  0  0  0  0  0  0  0
    7.7870   -1.5390    0.0000 C   0  0  0  0  0  0  0  0  0  0  0  0
    9.0820   -2.2950    0.0000 C   0  0  0  0  0  0  0  0  0  0  0  0
   10.3850   -1.5520    0.0000 C   0  0  0  0  0  0  0  0  0  0  0  0
   10.3920   -0.0520    0.0000 C   0  0  0  0  0  0  0  0  0  0  0  0
    9.0970    0.7050    0.0000 C   0  0  0  0  0  0  0  0  0  0  0  0
    7.7940   -0.0390    0.0000 C   0  0  0  0  0  0  0  0  0  0  0  0
   11.6950    0.6920    0.0000 C   0  0  0  0  0  0  0  0  0  0  0  0
   11.7020    2.1920    0.0000 C   0  0  0  0  0  0  0  0  0  0  0  0
   12.9900   -0.0650    0.0000 C   0  0  0  0  0  0  0  0  0  0  0  0
    1.2880   -2.2560    0.0000 C   0  0  0  0  0  0  0  0  0  0  0  0
    1.2800   -3.7560    0.0000 C   0  0  0  0  0  0  0  0  0  0  0  0
   -0.0220   -4.5000    0.0000 O   0  0  0  0  0  0  0  0  0  0  0  0
    2.5760   -4.5130    0.0000 O   0  0  0  0  0  0  0  0  0  0  0  0
  1  2  1  0  0  0  0
  2  3  2  0  0  0  0
  2  4  1  0  0  0  0
  4  5  1  0  0  0  0
  5  6  1  0  0  0  0
  5 19  1  0  0  0  0
  6  7  1  0  0  0  0
  7  8  2  0  0  0  0
  7  9  1  0  0  0  0
  9 10  1  0  0  0  0
 10 11  1  0  0  0  0
 10 15  2  0  0  0  0
 11 12  2  0  0  0  0
 12 13  1  0  0  0  0
 13 14  2  0  0  0  0
 13 16  1  0  0  0  0
 14 15  1  0  0  0  0
 16 17  1  0  0  0  0
 16 18  1  0  0  0  0
 19 20  1  0  0  0  0
 20 21  1  0  0  0  0
 20 22  2  0  0  0  0
M  END
>  <Index>
1325

>  <ID>
HT3399

>  <class>
0

>  <apol>
45.945862

>  <ast_fraglike>
0

>  <ast_fraglike_ext>
0

>  <ast_violation>
3

>  <ast_violation_ext>
5

>  <a_acc>
6

>  <a_acid>
0

>  <a_aro>
6

>  <a_base>
0

>  <a_count>
42

>  <a_don>
5

>  <a_donacc>
11

>  <a_heavy>
22

>  <a_hyd>
12

>  <a_IC>
67.825768

>  <a_ICM>
1.6148993

>  <a_nB>
0

>  <a_nBr>
0

>  <a_nC>
15

>  <a_nCl>
0

>  <a_nF>
0

>  <a_nH>
20

>  <a_nI>
0

>  <a_nN>
2

>  <a_nO>
5

>  <a_nP>
0

>  <a_nS>
0

>  <balabanJ>
2.3581946

>  <BCUT_PEOE_0>
-2.544322

>  <BCUT_PEOE_1>
-0.5407728

>  <BCUT_PEOE_2>
0.4656499

>  <BCUT_PEOE_3>
2.5497663

>  <BCUT_SLOGP_0>
-2.7316411

>  <BCUT_SLOGP_1>
-0.51702708

>  <BCUT_SLOGP_2>
0.39627945

>  <BCUT_SLOGP_3>
2.6436296

>  <BCUT_SMR_0>
-2.281801

>  <BCUT_SMR_1>
-0.32209581

>  <BCUT_SMR_2>
0.61542869

>  <BCUT_SMR_3>
2.7980103

>  <bpol>
27.378139

>  <b_1rotN>
8

>  <b_1rotR>
0.36363637

>  <b_ar>
6

>  <b_count>
42

>  <b_double>
3

>  <b_heavy>
22

>  <b_max1len>
4

>  <b_rotN>
9

>  <b_rotR>
0.40909091

>  <b_single>
33

>  <b_triple>
0

>  <chi0>
16.698307

>  <chi0v>
12.574457

>  <chi0v_C>
9.5080719

>  <chi0_C>
10.413849

>  <chi1>
10.273765

>  <chi1v>
6.8336725

>  <chi1v_C>
4.3254032

>  <chi1_C>
5.3457718

>  <chiral>
0

>  <chiral_u>
0

>  <density>
0.76414216

>  <diameter>
12

>  <FCharge>
0

>  <GCUT_PEOE_0>
-0.81387323

>  <GCUT_PEOE_1>
-0.46090016

>  <GCUT_PEOE_2>
0.088723861

>  <GCUT_PEOE_3>
2.4967856

>  <GCUT_SLOGP_0>
-1.0095614

>  <GCUT_SLOGP_1>
-0.34813347

>  <GCUT_SLOGP_2>
0.039972242

>  <GCUT_SLOGP_3>
2.5508139

>  <GCUT_SMR_0>
-0.51803148

>  <GCUT_SMR_1>
-0.24016456

>  <GCUT_SMR_2>
0.20443828

>  <GCUT_SMR_3>
2.7615979

>  <Kier1>
20.045454

>  <Kier2>
9.9881096

>  <Kier3>
8.4444447

>  <KierA1>
15.267476

>  <KierA2>
7.5011187

>  <KierA3>
6.277329

>  <KierFlex>
5.2055979

>  <lip_acc>
7

>  <lip_don>
3

>  <lip_druglike>
1

>  <lip_violation>
0

>  <logP(o/w)>
1.101

>  <logS>
-2.9809

>  <mr>
8.1122189

>  <mutagenic>
0

>  <nmol>
1

>  <opr_brigid>
6

>  <opr_leadlike>
1

>  <opr_nring>
1

>  <opr_nrot>
8

>  <opr_violation>
0

>  <PC+>
0

>  <PC->
0

>  <PEOE_PC+>
2.4324059

>  <PEOE_PC->
-2.4324059

>  <PEOE_RPC+>
0.11256316

>  <PEOE_RPC->
0.13579237

>  <PEOE_VSA+0>
36.557255

>  <PEOE_VSA+1>
82.230835

>  <PEOE_VSA+2>
0

>  <PEOE_VSA+3>
8.6190128

>  <PEOE_VSA+4>
33.597878

>  <PEOE_VSA+5>
29.416998

>  <PEOE_VSA+6>
0

>  <PEOE_VSA-0>
26.718348

>  <PEOE_VSA-1>
62.005161

>  <PEOE_VSA-2>
0

>  <PEOE_VSA-3>
0

>  <PEOE_VSA-4>
0

>  <PEOE_VSA-5>
40.700764

>  <PEOE_VSA-6>
15.671971

>  <PEOE_VSA_FHYD>
0.64416951

>  <PEOE_VSA_FNEG>
0.43245414

>  <PEOE_VSA_FPNEG>
0.16801691

>  <PEOE_VSA_FPOL>
0.35583049

>  <PEOE_VSA_FPOS>
0.56754583

>  <PEOE_VSA_FPPOS>
0.18781357

>  <PEOE_VSA_HYD>
216.13062

>  <PEOE_VSA_NEG>
145.09624

>  <PEOE_VSA_PNEG>
56.372734

>  <PEOE_VSA_POL>
119.38761

>  <PEOE_VSA_POS>
190.42198

>  <PEOE_VSA_PPOS>
63.014874

>  <petitjean>
0.5

>  <petitjeanSC>
1

>  <Q_PC+>
0

>  <Q_PC->
0

>  <Q_RPC+>
0

>  <Q_RPC->
0

>  <Q_VSA_FHYD>
1

>  <Q_VSA_FNEG>
0

>  <Q_VSA_FPNEG>
0

>  <Q_VSA_FPOL>
0

>  <Q_VSA_FPOS>
1

>  <Q_VSA_FPPOS>
0

>  <Q_VSA_HYD>
335.51822

>  <Q_VSA_NEG>
0

>  <Q_VSA_PNEG>
0

>  <Q_VSA_POL>
0

>  <Q_VSA_POS>
335.51822

>  <Q_VSA_PPOS>
0

>  <radius>
6

>  <reactive>
0

>  <rings>
1

>  <RPC+>
0

>  <RPC->
0

>  <rsynth>
1

>  <SlogP>
1.2197

>  <SlogP_VSA0>
0

>  <SlogP_VSA1>
41.884777

>  <SlogP_VSA2>
71.586647

>  <SlogP_VSA3>
106.08919

>  <SlogP_VSA4>
3.185575

>  <SlogP_VSA5>
0

>  <SlogP_VSA6>
4.4107962

>  <SlogP_VSA7>
70.572739

>  <SlogP_VSA8>
0

>  <SlogP_VSA9>
69.408775

>  <SMR>
8.0872297

>  <SMR_VSA0>
71.586647

>  <SMR_VSA1>
3.1243138

>  <SMR_VSA2>
50.770454

>  <SMR_VSA3>
7.5963712

>  <SMR_VSA4>
20.767498

>  <SMR_VSA5>
70.572739

>  <SMR_VSA6>
76.068443

>  <SMR_VSA7>
66.652031

>  <TPSA>
106.94

>  <VAdjEq>
0.43949699

>  <VAdjMa>
5.4594316

>  <VDistEq>
3.4671946

>  <VDistMa>
8.6045914

>  <vdw_area>
335.51822

>  <vdw_vol>
403.50345

>  <vsa_acc>
13.566921

>  <vsa_acid>
0

>  <vsa_base>
0

>  <vsa_don>
5.6825762

>  <vsa_hyd>
194.06602

>  <vsa_other>
42.366531

>  <vsa_pol>
73.517181

>  <Weight>
308.33398

>  <weinerPath>
1224

>  <weinerPol>
27

>  <zagreb>
102

$$$$