FC(F)(F)c1ccc(cc1NC(=O)C1CCC2C1(CCC1C2(CCC2NC(=O)C=CC12C)C)C)C(F)(F)F
  MOE2013           2D

 38 42  0  0  1  0  0  0  0  0999 V2000
    0.0000    0.0000    0.0000 F   0  0  0  0  0  0  0  0  0  0  0  0
   -0.7440   -1.3020    0.0000 C   0  0  0  0  0  0  0  0  0  0  0  0
    0.5580   -2.0470    0.0000 F   0  0  0  0  0  0  0  0  0  0  0  0
   -2.0470   -0.5580    0.0000 F   0  0  0  0  0  0  0  0  0  0  0  0
   -1.4890   -2.6040    0.0000 C   0  0  0  0  0  0  0  0  0  0  0  0
   -2.9890   -2.6110    0.0000 C   0  0  0  0  0  0  0  0  0  0  0  0
   -3.7330   -3.9130    0.0000 C   0  0  0  0  0  0  0  0  0  0  0  0
   -2.9780   -5.2090    0.0000 C   0  0  0  0  0  0  0  0  0  0  0  0
   -1.4780   -5.2030    0.0000 C   0  0  0  0  0  0  0  0  0  0  0  0
   -0.7330   -3.9000    0.0000 C   0  0  0  0  0  0  0  0  0  0  0  0
    0.7670   -3.8940    0.0000 N   0  0  0  0  0  0  0  0  0  0  0  0
    1.5220   -5.1900    0.0000 C   0  0  0  0  0  0  0  0  0  0  0  0
    0.7780   -6.4920    0.0000 O   0  0  0  0  0  0  0  0  0  0  0  0
    3.0220   -5.1830    0.0000 C   0  0  3  0  0  0  0  0  0  0  0  0
    3.8990   -3.9660    0.0000 C   0  0  0  0  0  0  0  0  0  0  0  0
    5.3270   -4.4230    0.0000 C   0  0  0  0  0  0  0  0  0  0  0  0
    5.3340   -5.9230    0.0000 C   0  0  3  0  0  0  0  0  0  0  0  0
    3.9090   -6.3930    0.0000 C   0  0  3  0  0  0  0  0  0  0  0  0
    3.6030   -7.8620    0.0000 C   0  0  0  0  0  0  0  0  0  0  0  0
    4.7220   -8.8610    0.0000 C   0  0  0  0  0  0  0  0  0  0  0  0
    6.1470   -8.3910    0.0000 C   0  0  3  0  0  0  0  0  0  0  0  0
    6.4530   -6.9220    0.0000 C   0  0  3  0  0  0  0  0  0  0  0  0
    7.8770   -6.4530    0.0000 C   0  0  0  0  0  0  0  0  0  0  0  0
    8.9960   -7.4520    0.0000 C   0  0  0  0  0  0  0  0  0  0  0  0
    8.6910   -8.9200    0.0000 C   0  0  3  0  0  0  0  0  0  0  0  0
    9.8100   -9.9190    0.0000 N   0  0  0  0  0  0  0  0  0  0  0  0
    9.5040  -11.3880    0.0000 C   0  0  0  0  0  0  0  0  0  0  0  0
   10.6230  -12.3870    0.0000 O   0  0  0  0  0  0  0  0  0  0  0  0
    8.0790  -11.8570    0.0000 C   0  0  0  0  0  0  0  0  0  0  0  0
    6.9600  -10.8580    0.0000 C   0  0  0  0  0  0  0  0  0  0  0  0
    7.2660   -9.3900    0.0000 C   0  0  3  0  0  0  0  0  0  0  0  0
    5.8410   -9.8590    0.0000 C   0  0  0  0  0  0  0  0  0  0  0  0
    7.5720   -7.9210    0.0000 C   0  0  0  0  0  0  0  0  0  0  0  0
    2.4490   -6.7370    0.0000 C   0  0  0  0  0  0  0  0  0  0  0  0
   -3.7220   -6.5110    0.0000 C   0  0  0  0  0  0  0  0  0  0  0  0
   -4.4670   -7.8130    0.0000 F   0  0  0  0  0  0  0  0  0  0  0  0
   -2.4200   -7.2560    0.0000 F   0  0  0  0  0  0  0  0  0  0  0  0
   -5.0240   -5.7670    0.0000 F   0  0  0  0  0  0  0  0  0  0  0  0
  1  2  1  0  0  0  0
  2  3  1  0  0  0  0
  2  4  1  0  0  0  0
  2  5  1  0  0  0  0
  5  6  1  0  0  0  0
  5 10  2  0  0  0  0
  6  7  2  0  0  0  0
  7  8  1  0  0  0  0
  8  9  2  0  0  0  0
  8 35  1  0  0  0  0
  9 10  1  0  0  0  0
 10 11  1  0  0  0  0
 11 12  1  0  0  0  0
 12 13  2  0  0  0  0
 12 14  1  0  0  0  0
 14 15  1  0  0  0  0
 14 18  1  0  0  0  0
 15 16  1  0  0  0  0
 16 17  1  0  0  0  0
 17 18  1  0  0  0  0
 17 22  1  0  0  0  0
 18 19  1  0  0  0  0
 18 34  1  0  0  0  0
 19 20  1  0  0  0  0
 20 21  1  0  0  0  0
 21 22  1  0  0  0  0
 21 31  1  0  0  0  0
 22 23  1  0  0  0  0
 22 33  1  0  0  0  0
 23 24  1  0  0  0  0
 24 25  1  0  0  0  0
 25 26  1  0  0  0  0
 25 31  1  0  0  0  0
 26 27  1  0  0  0  0
 27 28  2  0  0  0  0
 27 29  1  0  0  0  0
 29 30  2  0  0  0  0
 30 31  1  0  0  0  0
 31 32  1  0  0  0  0
 35 36  1  0  0  0  0
 35 37  1  0  0  0  0
 35 38  1  0  0  0  0
M  END
>  <Index>
1397

>  <ID>
HT3920

>  <class>
0

>  <apol>
77.763374

>  <ast_fraglike>
0

>  <ast_fraglike_ext>
0

>  <ast_violation>
2

>  <ast_violation_ext>
2

>  <a_acc>
2

>  <a_acid>
0

>  <a_aro>
6

>  <a_base>
0

>  <a_count>
70

>  <a_don>
2

>  <a_donacc>
4

>  <a_heavy>
38

>  <a_hyd>
32

>  <a_IC>
114.9341

>  <a_ICM>
1.6419157

>  <a_nB>
0

>  <a_nBr>
0

>  <a_nC>
28

>  <a_nCl>
0

>  <a_nF>
6

>  <a_nH>
32

>  <a_nI>
0

>  <a_nN>
2

>  <a_nO>
2

>  <a_nP>
0

>  <a_nS>
0

>  <balabanJ>
1.3450046

>  <BCUT_PEOE_0>
-2.9758101

>  <BCUT_PEOE_1>
-0.46871364

>  <BCUT_PEOE_2>
0.37920743

>  <BCUT_PEOE_3>
2.9827492

>  <BCUT_SLOGP_0>
-2.9364512

>  <BCUT_SLOGP_1>
-0.43038541

>  <BCUT_SLOGP_2>
0.42019999

>  <BCUT_SLOGP_3>
3.0550163

>  <BCUT_SMR_0>
-2.7199364

>  <BCUT_SMR_1>
-0.2740559

>  <BCUT_SMR_2>
0.50820571

>  <BCUT_SMR_3>
3.2369747

>  <bpol>
45.436623

>  <b_1rotN>
2

>  <b_1rotR>
0.047619049

>  <b_ar>
6

>  <b_count>
74

>  <b_double>
3

>  <b_heavy>
42

>  <b_max1len>
2

>  <b_rotN>
5

>  <b_rotR>
0.11904762

>  <b_single>
65

>  <b_triple>
0

>  <chi0>
27.88854

>  <chi0v>
21.523077

>  <chi0v_C>
17.438793

>  <chi0_C>
18.474327

>  <chi1>
17.498655

>  <chi1v>
13.090361

>  <chi1v_C>
10.509543

>  <chi1_C>
11.710962

>  <chiral>
7

>  <chiral_u>
7

>  <density>
0.82380015

>  <diameter>
16

>  <FCharge>
0

>  <GCUT_PEOE_0>
-0.83482468

>  <GCUT_PEOE_1>
-0.37482798

>  <GCUT_PEOE_2>
0.029359732

>  <GCUT_PEOE_3>
3.4332726

>  <GCUT_SLOGP_0>
-1.1625197

>  <GCUT_SLOGP_1>
-0.29789588

>  <GCUT_SLOGP_2>
0.21588084

>  <GCUT_SLOGP_3>
3.5053251

>  <GCUT_SMR_0>
-0.53844434

>  <GCUT_SMR_1>
-0.2117102

>  <GCUT_SMR_2>
0.13283738

>  <GCUT_SMR_3>
3.6625054

>  <Kier1>
29.490931

>  <Kier2>
9.7861223

>  <Kier3>
4.921875

>  <KierA1>
24.299801

>  <KierA2>
8.0192041

>  <KierA3>
4.017704

>  <KierFlex>
5.1280279

>  <lip_acc>
4

>  <lip_don>
2

>  <lip_druglike>
0

>  <lip_violation>
2

>  <logP(o/w)>
6.3035202

>  <logS>
-8.8021803

>  <mr>
13.013058

>  <mutagenic>
0

>  <nmol>
1

>  <opr_brigid>
26

>  <opr_leadlike>
0

>  <opr_nring>
5

>  <opr_nrot>
2

>  <opr_violation>
3

>  <PC+>
0

>  <PC->
0

>  <PEOE_PC+>
2.9335063

>  <PEOE_PC->
-2.9335063

>  <PEOE_RPC+>
0.14293613

>  <PEOE_RPC->
0.11894958

>  <PEOE_VSA+0>
105.51523

>  <PEOE_VSA+1>
36.708946

>  <PEOE_VSA+2>
0

>  <PEOE_VSA+3>
17.238026

>  <PEOE_VSA+4>
25.899061

>  <PEOE_VSA+5>
0

>  <PEOE_VSA+6>
18.091003

>  <PEOE_VSA-0>
101.22749

>  <PEOE_VSA-1>
68.49794

>  <PEOE_VSA-2>
0

>  <PEOE_VSA-3>
71.451813

>  <PEOE_VSA-4>
0

>  <PEOE_VSA-5>
27.133842

>  <PEOE_VSA-6>
0.27378201

>  <PEOE_VSA_FHYD>
0.84874558

>  <PEOE_VSA_FNEG>
0.56899101

>  <PEOE_VSA_FPNEG>
0.05806243

>  <PEOE_VSA_FPOL>
0.15125439

>  <PEOE_VSA_FPOS>
0.43100902

>  <PEOE_VSA_FPPOS>
0.093191959

>  <PEOE_VSA_HYD>
400.63943

>  <PEOE_VSA_NEG>
268.58487

>  <PEOE_VSA_PNEG>
27.407623

>  <PEOE_VSA_POL>
71.39769

>  <PEOE_VSA_POS>
203.45227

>  <PEOE_VSA_PPOS>
43.990067

>  <petitjean>
0.5

>  <petitjeanSC>
1

>  <Q_PC+>
0

>  <Q_PC->
0

>  <Q_RPC+>
0

>  <Q_RPC->
0

>  <Q_VSA_FHYD>
1

>  <Q_VSA_FNEG>
0

>  <Q_VSA_FPNEG>
0

>  <Q_VSA_FPOL>
0

>  <Q_VSA_FPOS>
1

>  <Q_VSA_FPPOS>
0

>  <Q_VSA_HYD>
472.03714

>  <Q_VSA_NEG>
0

>  <Q_VSA_PNEG>
0

>  <Q_VSA_POL>
0

>  <Q_VSA_POS>
472.03714

>  <Q_VSA_PPOS>
0

>  <radius>
8

>  <reactive>
0

>  <rings>
5

>  <RPC+>
0

>  <RPC->
0

>  <rsynth>
0.47368422

>  <SlogP>
7.5892

>  <SlogP_VSA0>
18.01075

>  <SlogP_VSA1>
28.528318

>  <SlogP_VSA2>
51.706402

>  <SlogP_VSA3>
0

>  <SlogP_VSA4>
19.603539

>  <SlogP_VSA5>
0

>  <SlogP_VSA6>
15.519032

>  <SlogP_VSA7>
88.215919

>  <SlogP_VSA8>
113.21043

>  <SlogP_VSA9>
192.49547

>  <SMR>
12.88734

>  <SMR_VSA0>
47.724434

>  <SMR_VSA1>
89.760681

>  <SMR_VSA2>
46.762173

>  <SMR_VSA3>
10.353119

>  <SMR_VSA4>
20.767498

>  <SMR_VSA5>
201.42636

>  <SMR_VSA6>
10.517568

>  <SMR_VSA7>
99.978043

>  <TPSA>
58.200001

>  <VAdjEq>
0.32014427

>  <VAdjMa>
6.3923173

>  <VDistEq>
3.7608063

>  <VDistMa>
10.210912

>  <vdw_area>
472.03714

>  <vdw_vol>
658.61121

>  <vsa_acc>
27.133842

>  <vsa_acid>
0

>  <vsa_base>
0

>  <vsa_don>
11.365152

>  <vsa_hyd>
376.10339

>  <vsa_other>
25.899061

>  <vsa_pol>
38.498993

>  <Weight>
542.56396

>  <weinerPath>
4471

>  <weinerPol>
79

>  <zagreb>
224

$$$$