S1(=O)(=O)[C@H]2N([C@@H](C(O)=O)C1(C)C)C(=O)C2
  MOE2013           2D

 15 16  0  0  1  0  0  0  0  0999 V2000
    0.0000    0.0000    0.0000 S   0  0  0  0  0  0  0  0  0  0  0  0
   -0.1700   -1.4900    0.0000 O   0  0  0  0  0  0  0  0  0  0  0  0
   -1.3960   -0.5490    0.0000 O   0  0  0  0  0  0  0  0  0  0  0  0
    1.5000    0.0130    0.0000 C   0  0  1  0  0  0  0  0  0  0  0  0
    1.9520    1.4430    0.0000 N   0  0  0  0  0  0  0  0  0  0  0  0
    0.7310    2.3140    0.0000 C   0  0  1  0  0  0  0  0  0  0  0  0
    0.7180    3.8140    0.0000 C   0  0  0  0  0  0  0  0  0  0  0  0
   -0.5870    4.5540    0.0000 O   0  0  0  0  0  0  0  0  0  0  0  0
    2.0110    4.5750    0.0000 O   0  0  0  0  0  0  0  0  0  0  0  0
   -0.4750    1.4230    0.0000 C   0  0  0  0  0  0  0  0  0  0  0  0
   -1.4590    2.5550    0.0000 C   0  0  0  0  0  0  0  0  0  0  0  0
   -1.9310    1.0600    0.0000 C   0  0  0  0  0  0  0  0  0  0  0  0
    3.3820    0.9910    0.0000 C   0  0  0  0  0  0  0  0  0  0  0  0
    4.7130    1.6840    0.0000 O   0  0  0  0  0  0  0  0  0  0  0  0
    2.9300   -0.4390    0.0000 C   0  0  0  0  0  0  0  0  0  0  0  0
  1  2  2  0  0  0  0
  1  3  2  0  0  0  0
  1  4  1  0  0  0  0
  1 10  1  0  0  0  0
  4  5  1  0  0  0  0
  4 15  1  1  0  0  0
  5  6  1  0  0  0  0
  5 13  1  0  0  0  0
  6  7  1  6  0  0  0
  6 10  1  0  0  0  0
  7  8  1  0  0  0  0
  7  9  2  0  0  0  0
 10 11  1  0  0  0  0
 10 12  1  0  0  0  0
 13 14  2  0  0  0  0
 13 15  1  0  0  0  0
M  END
>  <Index>
1007

>  <ID>
HT1930

>  <class>
0

>  <apol>
29.424723

>  <ast_fraglike>
0

>  <ast_fraglike_ext>
0

>  <ast_violation>
1

>  <ast_violation_ext>
2

>  <a_acc>
5

>  <a_acid>
0

>  <a_aro>
0

>  <a_base>
0

>  <a_count>
26

>  <a_don>
2

>  <a_donacc>
7

>  <a_heavy>
15

>  <a_hyd>
6

>  <a_IC>
48.548046

>  <a_ICM>
1.8672324

>  <a_nB>
0

>  <a_nBr>
0

>  <a_nC>
8

>  <a_nCl>
0

>  <a_nF>
0

>  <a_nH>
11

>  <a_nI>
0

>  <a_nN>
1

>  <a_nO>
5

>  <a_nP>
0

>  <a_nS>
1

>  <balabanJ>
2.3897388

>  <BCUT_PEOE_0>
-2.6225379

>  <BCUT_PEOE_1>
-0.49234253

>  <BCUT_PEOE_2>
0.31317458

>  <BCUT_PEOE_3>
2.9635091

>  <BCUT_SLOGP_0>
-2.7797384

>  <BCUT_SLOGP_1>
-0.43525064

>  <BCUT_SLOGP_2>
0.28910503

>  <BCUT_SLOGP_3>
2.7774632

>  <BCUT_SMR_0>
-2.3700178

>  <BCUT_SMR_1>
-0.16998728

>  <BCUT_SMR_2>
0.43648052

>  <BCUT_SMR_3>
3.201479

>  <bpol>
22.397278

>  <b_1rotN>
1

>  <b_1rotR>
0.0625

>  <b_ar>
0

>  <b_count>
27

>  <b_double>
2

>  <b_heavy>
16

>  <b_max1len>
4

>  <b_rotN>
1

>  <b_rotR>
0.0625

>  <b_single>
25

>  <b_triple>
0

>  <chi0>
11.593858

>  <chi0v>
9.1139727

>  <chi0v_C>
5.3618073

>  <chi0_C>
5.5165076

>  <chi1>
6.7092309

>  <chi1v>
6.0304909

>  <chi1v_C>
2.3391519

>  <chi1_C>
2.4385049

>  <chiral>
2

>  <chiral_u>
0

>  <density>
0.9351815

>  <diameter>
5

>  <FCharge>
0

>  <GCUT_PEOE_0>
-0.89284605

>  <GCUT_PEOE_1>
-0.45995405

>  <GCUT_PEOE_2>
0.014582029

>  <GCUT_PEOE_3>
2.6849082

>  <GCUT_SLOGP_0>
-1.0119973

>  <GCUT_SLOGP_1>
-0.47049451

>  <GCUT_SLOGP_2>
0.0035403685

>  <GCUT_SLOGP_3>
2.5549269

>  <GCUT_SMR_0>
-0.54178953

>  <GCUT_SMR_1>
-0.17439048

>  <GCUT_SMR_2>
0.10702188

>  <GCUT_SMR_3>
2.9069092

>  <Kier1>
11.484375

>  <Kier2>
3.0178571

>  <Kier3>
1.1992861

>  <KierA1>
11.245425

>  <KierA2>
2.9503813

>  <KierA3>
1.1709572

>  <KierFlex>
2.2118862

>  <lip_acc>
6

>  <lip_don>
1

>  <lip_druglike>
1

>  <lip_violation>
0

>  <logP(o/w)>
-0.80500001

>  <logS>
-0.47887999

>  <mr>
5.0548344

>  <mutagenic>
0

>  <nmol>
1

>  <opr_brigid>
8

>  <opr_leadlike>
1

>  <opr_nring>
2

>  <opr_nrot>
1

>  <opr_violation>
0

>  <PC+>
0

>  <PC->
0

>  <PEOE_PC+>
2.184907

>  <PEOE_PC->
-2.184907

>  <PEOE_RPC+>
0.1341576

>  <PEOE_RPC->
0.2181513

>  <PEOE_VSA+0>
71.618446

>  <PEOE_VSA+1>
4.2653861

>  <PEOE_VSA+2>
8.701313

>  <PEOE_VSA+3>
4.2653861

>  <PEOE_VSA+4>
26.419664

>  <PEOE_VSA+5>
19.830521

>  <PEOE_VSA+6>
0

>  <PEOE_VSA-0>
0

>  <PEOE_VSA-1>
0

>  <PEOE_VSA-2>
6.5127993

>  <PEOE_VSA-3>
0

>  <PEOE_VSA-4>
0

>  <PEOE_VSA-5>
27.133842

>  <PEOE_VSA-6>
39.784065

>  <PEOE_VSA_FHYD>
0.45730916

>  <PEOE_VSA_FNEG>
0.35213256

>  <PEOE_VSA_FPNEG>
0.32090083

>  <PEOE_VSA_FPOL>
0.54269081

>  <PEOE_VSA_FPOS>
0.64786744

>  <PEOE_VSA_FPPOS>
0.22179002

>  <PEOE_VSA_HYD>
95.363327

>  <PEOE_VSA_NEG>
73.430702

>  <PEOE_VSA_PNEG>
66.917908

>  <PEOE_VSA_POL>
113.16809

>  <PEOE_VSA_POS>
135.10071

>  <PEOE_VSA_PPOS>
46.250187

>  <petitjean>
0.40000001

>  <petitjeanSC>
0.66666669

>  <Q_PC+>
0

>  <Q_PC->
0

>  <Q_RPC+>
0

>  <Q_RPC->
0

>  <Q_VSA_FHYD>
1

>  <Q_VSA_FNEG>
0

>  <Q_VSA_FPNEG>
0

>  <Q_VSA_FPOL>
0

>  <Q_VSA_FPOS>
1

>  <Q_VSA_FPPOS>
0

>  <Q_VSA_HYD>
208.53142

>  <Q_VSA_NEG>
0

>  <Q_VSA_PNEG>
0

>  <Q_VSA_POL>
0

>  <Q_VSA_POS>
208.53142

>  <Q_VSA_PPOS>
0

>  <radius>
3

>  <reactive>
0

>  <rings>
2

>  <RPC+>
0

>  <RPC->
0

>  <rsynth>
1

>  <SlogP>
-0.79500002

>  <SlogP_VSA0>
0

>  <SlogP_VSA1>
64.300247

>  <SlogP_VSA2>
60.932796

>  <SlogP_VSA3>
25.385227

>  <SlogP_VSA4>
0

>  <SlogP_VSA5>
0

>  <SlogP_VSA6>
0

>  <SlogP_VSA7>
0

>  <SlogP_VSA8>
18.868406

>  <SlogP_VSA9>
66.652031

>  <SMR>
4.96736

>  <SMR_VSA0>
95.896118

>  <SMR_VSA1>
3.1243138

>  <SMR_VSA2>
25.385227

>  <SMR_VSA3>
6.3290963

>  <SMR_VSA4>
0

>  <SMR_VSA5>
18.868406

>  <SMR_VSA6>
13.004248

>  <SMR_VSA7>
73.531296

>  <TPSA>
91.75

>  <VAdjEq>
0.59002918

>  <VAdjMa>
5

>  <VDistEq>
2.2550082

>  <VDistMa>
7.5758228

>  <vdw_area>
208.53142

>  <vdw_vol>
249.41042

>  <vsa_acc>
45.583443

>  <vsa_acid>
0

>  <vsa_base>
0

>  <vsa_don>
0

>  <vsa_hyd>
90.000557

>  <vsa_other>
34.17083

>  <vsa_pol>
72.717285

>  <Weight>
233.244

>  <weinerPath>
303

>  <weinerPol>
29

>  <zagreb>
88

$$$$