Oc1cc(ccc1)C(O)CNCC
  MOE2013           2D

 13 13  0  0  1  0  0  0  0  0999 V2000
    0.0000    0.0000    0.0000 O   0  0  0  0  0  0  0  0  0  0  0  0
    1.3030    0.7420    0.0000 C   0  0  0  0  0  0  0  0  0  0  0  0
    2.5980   -0.0150    0.0000 C   0  0  0  0  0  0  0  0  0  0  0  0
    3.9010    0.7270    0.0000 C   0  0  0  0  0  0  0  0  0  0  0  0
    3.9100    2.2270    0.0000 C   0  0  0  0  0  0  0  0  0  0  0  0
    2.6160    2.9850    0.0000 C   0  0  0  0  0  0  0  0  0  0  0  0
    1.3120    2.2420    0.0000 C   0  0  0  0  0  0  0  0  0  0  0  0
    5.1960   -0.0300    0.0000 C   0  0  3  0  0  0  0  0  0  0  0  0
    5.1870   -1.5300    0.0000 O   0  0  0  0  0  0  0  0  0  0  0  0
    6.4990    0.7120    0.0000 C   0  0  0  0  0  0  0  0  0  0  0  0
    7.7940   -0.0460    0.0000 N   0  0  0  0  0  0  0  0  0  0  0  0
    9.0980    0.6970    0.0000 C   0  0  0  0  0  0  0  0  0  0  0  0
   10.3920   -0.0610    0.0000 C   0  0  0  0  0  0  0  0  0  0  0  0
  1  2  1  0  0  0  0
  2  3  1  0  0  0  0
  2  7  2  0  0  0  0
  3  4  2  0  0  0  0
  4  5  1  0  0  0  0
  4  8  1  0  0  0  0
  5  6  2  0  0  0  0
  6  7  1  0  0  0  0
  8  9  1  0  0  0  0
  8 10  1  0  0  0  0
 10 11  1  0  0  0  0
 11 12  1  0  0  0  0
 12 13  1  0  0  0  0
M  END
>  <Index>
1249

>  <ID>
HT2779

>  <class>
0

>  <apol>
30.305895

>  <ast_fraglike>
1

>  <ast_fraglike_ext>
0

>  <ast_violation>
0

>  <ast_violation_ext>
1

>  <a_acc>
3

>  <a_acid>
0

>  <a_aro>
6

>  <a_base>
0

>  <a_count>
28

>  <a_don>
3

>  <a_donacc>
6

>  <a_heavy>
13

>  <a_hyd>
10

>  <a_IC>
40.783298

>  <a_ICM>
1.4565463

>  <a_nB>
0

>  <a_nBr>
0

>  <a_nC>
10

>  <a_nCl>
0

>  <a_nF>
0

>  <a_nH>
15

>  <a_nI>
0

>  <a_nN>
1

>  <a_nO>
2

>  <a_nP>
0

>  <a_nS>
0

>  <balabanJ>
2.2557964

>  <BCUT_PEOE_0>
-2.5839739

>  <BCUT_PEOE_1>
-0.60071123

>  <BCUT_PEOE_2>
0.65654373

>  <BCUT_PEOE_3>
2.5163093

>  <BCUT_SLOGP_0>
-2.7068288

>  <BCUT_SLOGP_1>
-0.58793861

>  <BCUT_SLOGP_2>
0.68015414

>  <BCUT_SLOGP_3>
2.5209038

>  <BCUT_SMR_0>
-2.3133242

>  <BCUT_SMR_1>
-0.47374663

>  <BCUT_SMR_2>
0.78858876

>  <BCUT_SMR_3>
2.7765985

>  <bpol>
17.058105

>  <b_1rotN>
4

>  <b_1rotR>
0.30769232

>  <b_ar>
6

>  <b_count>
28

>  <b_double>
0

>  <b_heavy>
13

>  <b_max1len>
7

>  <b_rotN>
4

>  <b_rotR>
0.30769232

>  <b_single>
22

>  <b_triple>
0

>  <chi0>
9.681798

>  <chi0v>
7.6953921

>  <chi0v_C>
6.3009648

>  <chi0_C>
6.9746914

>  <chi1>
6.236382

>  <chi1v>
4.41431

>  <chi1v_C>
3.2253973

>  <chi1_C>
4.0816817

>  <chiral>
1

>  <chiral_u>
1

>  <density>
0.69727701

>  <diameter>
8

>  <FCharge>
0

>  <GCUT_PEOE_0>
-0.84603423

>  <GCUT_PEOE_1>
-0.37830058

>  <GCUT_PEOE_2>
0.11738808

>  <GCUT_PEOE_3>
2.3268549

>  <GCUT_SLOGP_0>
-1.1524477

>  <GCUT_SLOGP_1>
-0.34487456

>  <GCUT_SLOGP_2>
0.14662796

>  <GCUT_SLOGP_3>
2.4075477

>  <GCUT_SMR_0>
-0.515185

>  <GCUT_SMR_1>
-0.23022299

>  <GCUT_SMR_2>
0.18356259

>  <GCUT_SMR_3>
2.5833809

>  <Kier1>
11.076923

>  <Kier2>
5.671875

>  <Kier3>
3.7037036

>  <KierA1>
9.1026993

>  <KierA2>
4.5777774

>  <KierA3>
2.9438095

>  <KierFlex>
3.205395

>  <lip_acc>
3

>  <lip_don>
3

>  <lip_druglike>
1

>  <lip_violation>
0

>  <logP(o/w)>
1.184

>  <logS>
-0.88810003

>  <mr>
5.22685

>  <mutagenic>
0

>  <nmol>
1

>  <opr_brigid>
6

>  <opr_leadlike>
1

>  <opr_nring>
1

>  <opr_nrot>
4

>  <opr_violation>
0

>  <PC+>
0

>  <PC->
0

>  <PEOE_PC+>
1.3072581

>  <PEOE_PC->
-1.3072581

>  <PEOE_RPC+>
0.16623604

>  <PEOE_RPC->
0.2952092

>  <PEOE_VSA+0>
43.050026

>  <PEOE_VSA+1>
34.69038

>  <PEOE_VSA+2>
8.6190128

>  <PEOE_VSA+3>
0

>  <PEOE_VSA+4>
20.648346

>  <PEOE_VSA+5>
0

>  <PEOE_VSA+6>
0

>  <PEOE_VSA-0>
39.910671

>  <PEOE_VSA-1>
43.257484

>  <PEOE_VSA-2>
0

>  <PEOE_VSA-3>
0

>  <PEOE_VSA-4>
0

>  <PEOE_VSA-5>
0

>  <PEOE_VSA-6>
15.671971

>  <PEOE_VSA_FHYD>
0.8235575

>  <PEOE_VSA_FNEG>
0.48016101

>  <PEOE_VSA_FPNEG>
0.07613375

>  <PEOE_VSA_FPOL>
0.1764425

>  <PEOE_VSA_FPOS>
0.51983899

>  <PEOE_VSA_FPPOS>
0.10030875

>  <PEOE_VSA_HYD>
169.52757

>  <PEOE_VSA_NEG>
98.840126

>  <PEOE_VSA_PNEG>
15.671971

>  <PEOE_VSA_POL>
36.320316

>  <PEOE_VSA_POS>
107.00777

>  <PEOE_VSA_PPOS>
20.648346

>  <petitjean>
0.5

>  <petitjeanSC>
1

>  <Q_PC+>
0

>  <Q_PC->
0

>  <Q_RPC+>
0

>  <Q_RPC->
0

>  <Q_VSA_FHYD>
1

>  <Q_VSA_FNEG>
0

>  <Q_VSA_FPNEG>
0

>  <Q_VSA_FPOL>
0

>  <Q_VSA_FPOS>
1

>  <Q_VSA_FPPOS>
0

>  <Q_VSA_HYD>
205.84789

>  <Q_VSA_NEG>
0

>  <Q_VSA_PNEG>
0

>  <Q_VSA_POL>
0

>  <Q_VSA_POS>
205.84789

>  <Q_VSA_PPOS>
0

>  <radius>
4

>  <reactive>
0

>  <rings>
1

>  <RPC+>
0

>  <RPC->
0

>  <rsynth>
1

>  <SlogP>
1.1306

>  <SlogP_VSA0>
68.781204

>  <SlogP_VSA1>
0

>  <SlogP_VSA2>
0

>  <SlogP_VSA3>
36.879158

>  <SlogP_VSA4>
3.185575

>  <SlogP_VSA5>
0

>  <SlogP_VSA6>
0

>  <SlogP_VSA7>
70.572739

>  <SlogP_VSA8>
6.4686494

>  <SlogP_VSA9>
38.569443

>  <SMR>
5.1721301

>  <SMR_VSA0>
0

>  <SMR_VSA1>
50.770454

>  <SMR_VSA2>
18.01075

>  <SMR_VSA3>
14.897653

>  <SMR_VSA4>
0

>  <SMR_VSA5>
70.572739

>  <SMR_VSA6>
36.879158

>  <SMR_VSA7>
33.326015

>  <TPSA>
52.490002

>  <VAdjEq>
0.6193822

>  <VAdjMa>
4.7004399

>  <VDistEq>
2.7923551

>  <VDistMa>
7.0695062

>  <vdw_area>
205.84789

>  <vdw_vol>
259.91821

>  <vsa_acc>
0

>  <vsa_acid>
0

>  <vsa_base>
0

>  <vsa_don>
0

>  <vsa_hyd>
152.36702

>  <vsa_other>
0

>  <vsa_pol>
32.816418

>  <Weight>
181.235

>  <weinerPath>
268

>  <weinerPol>
15

>  <zagreb>
58

$$$$