N1(CCCCC1)C1(CCCCC1)c1ccccc1
  MOE2013           2D

 18 20  0  0  0  0  0  0  0  0999 V2000
    0.0000    0.0000    0.0000 N   0  0  0  0  0  0  0  0  0  0  0  0
   -0.7570   -1.2950    0.0000 C   0  0  0  0  0  0  0  0  0  0  0  0
   -0.0140   -2.5980    0.0000 C   0  0  0  0  0  0  0  0  0  0  0  0
    1.4860   -2.6060    0.0000 C   0  0  0  0  0  0  0  0  0  0  0  0
    2.2430   -1.3110    0.0000 C   0  0  0  0  0  0  0  0  0  0  0  0
    1.5000   -0.0080    0.0000 C   0  0  0  0  0  0  0  0  0  0  0  0
   -0.2520    1.4790    0.0000 C   0  0  0  0  0  0  0  0  0  0  0  0
    1.2480    1.4700    0.0000 C   0  0  0  0  0  0  0  0  0  0  0  0
    2.0050    2.7650    0.0000 C   0  0  0  0  0  0  0  0  0  0  0  0
    1.2620    4.0680    0.0000 C   0  0  0  0  0  0  0  0  0  0  0  0
   -0.2380    4.0770    0.0000 C   0  0  0  0  0  0  0  0  0  0  0  0
   -0.9950    2.7820    0.0000 C   0  0  0  0  0  0  0  0  0  0  0  0
   -1.7310    1.2260    0.0000 C   0  0  0  0  0  0  0  0  0  0  0  0
   -2.6890    2.3810    0.0000 C   0  0  0  0  0  0  0  0  0  0  0  0
   -4.1680    2.1280    0.0000 C   0  0  0  0  0  0  0  0  0  0  0  0
   -4.6880    0.7210    0.0000 C   0  0  0  0  0  0  0  0  0  0  0  0
   -3.7300   -0.4330    0.0000 C   0  0  0  0  0  0  0  0  0  0  0  0
   -2.2520   -0.1810    0.0000 C   0  0  0  0  0  0  0  0  0  0  0  0
  1  2  1  0  0  0  0
  1  6  1  0  0  0  0
  1  7  1  0  0  0  0
  2  3  1  0  0  0  0
  3  4  1  0  0  0  0
  4  5  1  0  0  0  0
  5  6  1  0  0  0  0
  7  8  1  0  0  0  0
  7 12  1  0  0  0  0
  7 13  1  0  0  0  0
  8  9  1  0  0  0  0
  9 10  1  0  0  0  0
 10 11  1  0  0  0  0
 11 12  1  0  0  0  0
 13 14  1  0  0  0  0
 13 18  2  0  0  0  0
 14 15  2  0  0  0  0
 15 16  1  0  0  0  0
 16 17  2  0  0  0  0
 17 18  1  0  0  0  0
M  END
>  <Index>
1285

>  <ID>
HT3064

>  <class>
0

>  <apol>
47.689823

>  <ast_fraglike>
0

>  <ast_fraglike_ext>
0

>  <ast_violation>
1

>  <ast_violation_ext>
2

>  <a_acc>
1

>  <a_acid>
0

>  <a_aro>
6

>  <a_base>
0

>  <a_count>
43

>  <a_don>
0

>  <a_donacc>
1

>  <a_heavy>
18

>  <a_hyd>
17

>  <a_IC>
47.746113

>  <a_ICM>
1.1103747

>  <a_nB>
0

>  <a_nBr>
0

>  <a_nC>
17

>  <a_nCl>
0

>  <a_nF>
0

>  <a_nH>
25

>  <a_nI>
0

>  <a_nN>
1

>  <a_nO>
0

>  <a_nP>
0

>  <a_nS>
0

>  <balabanJ>
1.7710023

>  <BCUT_PEOE_0>
-2.8667703

>  <BCUT_PEOE_1>
-0.60548657

>  <BCUT_PEOE_2>
0.63526136

>  <BCUT_PEOE_3>
2.7938001

>  <BCUT_SLOGP_0>
-2.7974038

>  <BCUT_SLOGP_1>
-0.50653309

>  <BCUT_SLOGP_2>
0.74181587

>  <BCUT_SLOGP_3>
2.9261079

>  <BCUT_SMR_0>
-2.5965903

>  <BCUT_SMR_1>
-0.44799075

>  <BCUT_SMR_2>
0.79268539

>  <BCUT_SMR_3>
3.0612624

>  <bpol>
29.310175

>  <b_1rotN>
2

>  <b_1rotR>
0.1

>  <b_ar>
6

>  <b_count>
45

>  <b_double>
0

>  <b_heavy>
20

>  <b_max1len>
2

>  <b_rotN>
2

>  <b_rotR>
0.1

>  <b_single>
39

>  <b_triple>
0

>  <chi0>
12.261302

>  <chi0v>
11.405033

>  <chi0v_C>
10.957819

>  <chi0_C>
11.683952

>  <chi1>
8.91745

>  <chi1v>
7.7238526

>  <chi1v_C>
6.8677902

>  <chi1_C>
7.8122783

>  <chiral>
0

>  <chiral_u>
0

>  <density>
0.62778687

>  <diameter>
8

>  <FCharge>
0

>  <GCUT_PEOE_0>
-0.84808582

>  <GCUT_PEOE_1>
-0.38959408

>  <GCUT_PEOE_2>
0.060826227

>  <GCUT_PEOE_3>
2.9320207

>  <GCUT_SLOGP_0>
-0.9224726

>  <GCUT_SLOGP_1>
-0.26386139

>  <GCUT_SLOGP_2>
0.14267579

>  <GCUT_SLOGP_3>
3.0477149

>  <GCUT_SMR_0>
-0.53118408

>  <GCUT_SMR_1>
-0.21605732

>  <GCUT_SMR_2>
0.17380413

>  <GCUT_SMR_3>
3.1776421

>  <Kier1>
13.005

>  <Kier2>
5.9698215

>  <Kier3>
2.6592798

>  <KierA1>
11.325955

>  <KierA2>
5.1540976

>  <KierA3>
2.2811913

>  <KierFlex>
3.2430599

>  <lip_acc>
1

>  <lip_don>
0

>  <lip_druglike>
1

>  <lip_violation>
0

>  <logP(o/w)>
4.974

>  <logS>
-3.4816201

>  <mr>
7.7037444

>  <mutagenic>
0

>  <nmol>
1

>  <opr_brigid>
18

>  <opr_leadlike>
1

>  <opr_nring>
3

>  <opr_nrot>
6

>  <opr_violation>
1

>  <PC+>
0

>  <PC->
0

>  <PEOE_PC+>
0.9653933

>  <PEOE_PC->
-0.9653933

>  <PEOE_RPC+>
0.064313583

>  <PEOE_RPC->
0.30320877

>  <PEOE_VSA+0>
85.307716

>  <PEOE_VSA+1>
21.326929

>  <PEOE_VSA+2>
0

>  <PEOE_VSA+3>
0

>  <PEOE_VSA+4>
0

>  <PEOE_VSA+5>
0

>  <PEOE_VSA+6>
0

>  <PEOE_VSA-0>
63.398441

>  <PEOE_VSA-1>
96.079773

>  <PEOE_VSA-2>
0

>  <PEOE_VSA-3>
0

>  <PEOE_VSA-4>
0

>  <PEOE_VSA-5>
0

>  <PEOE_VSA-6>
0

>  <PEOE_VSA_FHYD>
1

>  <PEOE_VSA_FNEG>
0.59928787

>  <PEOE_VSA_FPNEG>
0

>  <PEOE_VSA_FPOL>
0

>  <PEOE_VSA_FPOS>
0.40071213

>  <PEOE_VSA_FPPOS>
0

>  <PEOE_VSA_HYD>
266.11285

>  <PEOE_VSA_NEG>
159.47821

>  <PEOE_VSA_PNEG>
0

>  <PEOE_VSA_POL>
0

>  <PEOE_VSA_POS>
106.63465

>  <PEOE_VSA_PPOS>
0

>  <petitjean>
0.5

>  <petitjeanSC>
1

>  <Q_PC+>
0

>  <Q_PC->
0

>  <Q_RPC+>
0

>  <Q_RPC->
0

>  <Q_VSA_FHYD>
1

>  <Q_VSA_FNEG>
0

>  <Q_VSA_FPNEG>
0

>  <Q_VSA_FPOL>
0

>  <Q_VSA_FPOS>
1

>  <Q_VSA_FPPOS>
0

>  <Q_VSA_HYD>
266.11285

>  <Q_VSA_NEG>
0

>  <Q_VSA_PNEG>
0

>  <Q_VSA_POL>
0

>  <Q_VSA_POS>
266.11285

>  <Q_VSA_PPOS>
0

>  <radius>
4

>  <reactive>
0

>  <rings>
3

>  <RPC+>
0

>  <RPC->
0

>  <rsynth>
1

>  <SlogP>
4.6434002

>  <SlogP_VSA0>
0

>  <SlogP_VSA1>
3.1243138

>  <SlogP_VSA2>
0

>  <SlogP_VSA3>
36.879158

>  <SlogP_VSA4>
3.185575

>  <SlogP_VSA5>
0

>  <SlogP_VSA6>
0

>  <SlogP_VSA7>
88.215919

>  <SlogP_VSA8>
150.94725

>  <SlogP_VSA9>
0

>  <SMR>
7.6746001

>  <SMR_VSA0>
0

>  <SMR_VSA1>
3.1243138

>  <SMR_VSA2>
0

>  <SMR_VSA3>
3.185575

>  <SMR_VSA4>
0

>  <SMR_VSA5>
239.16316

>  <SMR_VSA6>
36.879158

>  <SMR_VSA7>
0

>  <TPSA>
3.24

>  <VAdjEq>
0.53921634

>  <VAdjMa>
5.321928

>  <VDistEq>
2.7343216

>  <VDistMa>
8.082798

>  <vdw_area>
266.11285

>  <vdw_vol>
387.70163

>  <vsa_acc>
0

>  <vsa_acid>
0

>  <vsa_base>
0

>  <vsa_don>
0

>  <vsa_hyd>
248.31798

>  <vsa_other>
0

>  <vsa_pol>
0

>  <Weight>
243.394

>  <weinerPath>
549

>  <weinerPol>
29

>  <zagreb>
94

$$$$