P(OCOC(OC(C)C)=O)(OCOC(OC(C)C)=O)(=O)COC(Cn1c2ncnc(N)c2nc1)C
  MOE2013           2D

 35 36  0  0  1  0  0  0  0  0999 V2000
    0.0000    0.0000    0.0000 P   0  0  0  0  0  0  0  0  0  0  0  0
    0.0060   -1.5000    0.0000 O   0  0  0  0  0  0  0  0  0  0  0  0
   -1.2900   -2.2550    0.0000 C   0  0  0  0  0  0  0  0  0  0  0  0
   -1.2830   -3.7550    0.0000 O   0  0  0  0  0  0  0  0  0  0  0  0
   -2.5790   -4.5110    0.0000 C   0  0  0  0  0  0  0  0  0  0  0  0
   -3.8810   -3.7660    0.0000 O   0  0  0  0  0  0  0  0  0  0  0  0
   -5.1770   -4.5220    0.0000 C   0  0  0  0  0  0  0  0  0  0  0  0
   -5.1710   -6.0220    0.0000 C   0  0  0  0  0  0  0  0  0  0  0  0
   -6.4790   -3.7770    0.0000 C   0  0  0  0  0  0  0  0  0  0  0  0
   -2.5730   -6.0110    0.0000 O   0  0  0  0  0  0  0  0  0  0  0  0
   -0.0060    1.5000    0.0000 O   0  0  0  0  0  0  0  0  0  0  0  0
   -1.3080    2.2450    0.0000 C   0  0  0  0  0  0  0  0  0  0  0  0
   -1.3150    3.7450    0.0000 O   0  0  0  0  0  0  0  0  0  0  0  0
   -2.6170    4.4890    0.0000 C   0  0  0  0  0  0  0  0  0  0  0  0
   -3.9130    3.7340    0.0000 O   0  0  0  0  0  0  0  0  0  0  0  0
   -5.2150    4.4780    0.0000 C   0  0  0  0  0  0  0  0  0  0  0  0
   -6.5110    3.7230    0.0000 C   0  0  0  0  0  0  0  0  0  0  0  0
   -5.2210    5.9780    0.0000 C   0  0  0  0  0  0  0  0  0  0  0  0
   -2.6230    5.9890    0.0000 O   0  0  0  0  0  0  0  0  0  0  0  0
   -1.5000   -0.0060    0.0000 O   0  0  0  0  0  0  0  0  0  0  0  0
    1.5000    0.0060    0.0000 C   0  0  0  0  0  0  0  0  0  0  0  0
    2.2450    1.3080    0.0000 O   0  0  0  0  0  0  0  0  0  0  0  0
    3.7450    1.3150    0.0000 C   0  0  3  0  0  0  0  0  0  0  0  0
    4.4890    2.6170    0.0000 C   0  0  0  0  0  0  0  0  0  0  0  0
    5.9890    2.6230    0.0000 N   0  0  0  0  0  0  0  0  0  0  0  0
    6.8660    3.8400    0.0000 C   0  0  0  0  0  0  0  0  0  0  0  0
    6.5480    5.3060    0.0000 N   0  0  0  0  0  0  0  0  0  0  0  0
    7.6580    6.3150    0.0000 C   0  0  0  0  0  0  0  0  0  0  0  0
    9.0870    5.8570    0.0000 N   0  0  0  0  0  0  0  0  0  0  0  0
    9.4050    4.3910    0.0000 C   0  0  0  0  0  0  0  0  0  0  0  0
   10.8330    3.9340    0.0000 N   0  0  0  0  0  0  0  0  0  0  0  0
    8.2940    3.3830    0.0000 C   0  0  0  0  0  0  0  0  0  0  0  0
    8.3000    1.8830    0.0000 N   0  0  0  0  0  0  0  0  0  0  0  0
    6.8760    1.4130    0.0000 C   0  0  0  0  0  0  0  0  0  0  0  0
    4.5000    0.0190    0.0000 C   0  0  0  0  0  0  0  0  0  0  0  0
  1  2  1  0  0  0  0
  1 11  1  0  0  0  0
  1 20  2  0  0  0  0
  1 21  1  0  0  0  0
  2  3  1  0  0  0  0
  3  4  1  0  0  0  0
  4  5  1  0  0  0  0
  5  6  1  0  0  0  0
  5 10  2  0  0  0  0
  6  7  1  0  0  0  0
  7  8  1  0  0  0  0
  7  9  1  0  0  0  0
 11 12  1  0  0  0  0
 12 13  1  0  0  0  0
 13 14  1  0  0  0  0
 14 15  1  0  0  0  0
 14 19  2  0  0  0  0
 15 16  1  0  0  0  0
 16 17  1  0  0  0  0
 16 18  1  0  0  0  0
 21 22  1  0  0  0  0
 22 23  1  0  0  0  0
 23 24  1  0  0  0  0
 23 35  1  0  0  0  0
 24 25  1  0  0  0  0
 25 26  1  0  0  0  0
 25 34  1  0  0  0  0
 26 27  1  0  0  0  0
 26 32  2  0  0  0  0
 27 28  2  0  0  0  0
 28 29  1  0  0  0  0
 29 30  2  0  0  0  0
 30 31  1  0  0  0  0
 30 32  1  0  0  0  0
 32 33  1  0  0  0  0
 33 34  2  0  0  0  0
M  END
>  <Index>
1047

>  <ID>
HT2005

>  <class>
0

>  <apol>
70.593788

>  <ast_fraglike>
0

>  <ast_fraglike_ext>
0

>  <ast_violation>
2

>  <ast_violation_ext>
4

>  <a_acc>
9

>  <a_acid>
0

>  <a_aro>
9

>  <a_base>
0

>  <a_count>
65

>  <a_don>
1

>  <a_donacc>
10

>  <a_heavy>
35

>  <a_hyd>
11

>  <a_IC>
118.70765

>  <a_ICM>
1.8262714

>  <a_nB>
0

>  <a_nBr>
0

>  <a_nC>
19

>  <a_nCl>
0

>  <a_nF>
0

>  <a_nH>
30

>  <a_nI>
0

>  <a_nN>
5

>  <a_nO>
10

>  <a_nP>
1

>  <a_nS>
0

>  <balabanJ>
1.8435419

>  <BCUT_PEOE_0>
-2.5549762

>  <BCUT_PEOE_1>
-0.26024443

>  <BCUT_PEOE_2>
0.12410863

>  <BCUT_PEOE_3>
2.6602898

>  <BCUT_SLOGP_0>
-2.5779774

>  <BCUT_SLOGP_1>
-0.20301741

>  <BCUT_SLOGP_2>
0.30828664

>  <BCUT_SLOGP_3>
2.691237

>  <BCUT_SMR_0>
-2.3331041

>  <BCUT_SMR_1>
0.048694763

>  <BCUT_SMR_2>
0.14621702

>  <BCUT_SMR_3>
2.8600895

>  <bpol>
61.842209

>  <b_1rotN>
13

>  <b_1rotR>
0.3611111

>  <b_ar>
10

>  <b_count>
66

>  <b_double>
2

>  <b_heavy>
36

>  <b_max1len>
8

>  <b_rotN>
17

>  <b_rotR>
0.47222221

>  <b_single>
54

>  <b_triple>
0

>  <chi0>
26.009861

>  <chi0v>
21.005507

>  <chi0v_C>
13.215178

>  <chi0_C>
13.861443

>  <chi1>
16.486691

>  <chi1v>
12.294204

>  <chi1v_C>
3.7949996

>  <chi1_C>
3.9616663

>  <chiral>
1

>  <chiral_u>
1

>  <density>
0.84016275

>  <diameter>
16

>  <FCharge>
0

>  <GCUT_PEOE_0>
-0.82630622

>  <GCUT_PEOE_1>
-0.34645534

>  <GCUT_PEOE_2>
-0.052639734

>  <GCUT_PEOE_3>
2.6406748

>  <GCUT_SLOGP_0>
-1.3347349

>  <GCUT_SLOGP_1>
-0.27482152

>  <GCUT_SLOGP_2>
-0.0077618663

>  <GCUT_SLOGP_3>
2.6662734

>  <GCUT_SMR_0>
-0.52238858

>  <GCUT_SMR_1>
-0.13391344

>  <GCUT_SMR_2>
-0.054299999

>  <GCUT_SMR_3>
2.8620191

>  <Kier1>
31.219135

>  <Kier2>
15.421075

>  <Kier3>
11.509421

>  <KierA1>
27.163559

>  <KierA2>
13.360497

>  <KierA3>
9.9407091

>  <KierFlex>
10.369104

>  <lip_acc>
15

>  <lip_don>
2

>  <lip_druglike>
0

>  <lip_violation>
2

>  <logP(o/w)>
0.98053998

>  <logS>
-3.2841001

>  <mr>
12.502677

>  <mutagenic>
1

>  <nmol>
1

>  <opr_brigid>
10

>  <opr_leadlike>
0

>  <opr_nring>
2

>  <opr_nrot>
13

>  <opr_violation>
3

>  <PC+>
0

>  <PC->
0

>  <PEOE_PC+>
4.1654811

>  <PEOE_PC->
-4.1654811

>  <PEOE_RPC+>
0.10258296

>  <PEOE_RPC->
0.07978335

>  <PEOE_VSA+0>
73.790649

>  <PEOE_VSA+1>
77.722656

>  <PEOE_VSA+2>
73.426613

>  <PEOE_VSA+3>
53.593109

>  <PEOE_VSA+4>
16.471806

>  <PEOE_VSA+5>
0

>  <PEOE_VSA+6>
55.583958

>  <PEOE_VSA-0>
93.738388

>  <PEOE_VSA-1>
15.729136

>  <PEOE_VSA-2>
0

>  <PEOE_VSA-3>
0

>  <PEOE_VSA-4>
26.379671

>  <PEOE_VSA-5>
6.6511192

>  <PEOE_VSA-6>
39.652622

>  <PEOE_VSA_FHYD>
0.72831166

>  <PEOE_VSA_FNEG>
0.34191355

>  <PEOE_VSA_FPNEG>
0.13643326

>  <PEOE_VSA_FPOL>
0.27168834

>  <PEOE_VSA_FPOS>
0.65808642

>  <PEOE_VSA_FPPOS>
0.1352551

>  <PEOE_VSA_HYD>
388.00055

>  <PEOE_VSA_NEG>
182.15094

>  <PEOE_VSA_PNEG>
72.683411

>  <PEOE_VSA_POL>
144.73918

>  <PEOE_VSA_POS>
350.58878

>  <PEOE_VSA_PPOS>
72.055763

>  <petitjean>
0.5

>  <petitjeanSC>
1

>  <Q_PC+>
0

>  <Q_PC->
0

>  <Q_RPC+>
0

>  <Q_RPC->
0

>  <Q_VSA_FHYD>
1

>  <Q_VSA_FNEG>
0

>  <Q_VSA_FPNEG>
0

>  <Q_VSA_FPOL>
0

>  <Q_VSA_FPOS>
1

>  <Q_VSA_FPPOS>
0

>  <Q_VSA_HYD>
532.73975

>  <Q_VSA_NEG>
0

>  <Q_VSA_PNEG>
0

>  <Q_VSA_POL>
0

>  <Q_VSA_POS>
532.73975

>  <Q_VSA_PPOS>
0

>  <radius>
8

>  <reactive>
1

>  <rings>
2

>  <RPC+>
0

>  <RPC->
0

>  <rsynth>
1

>  <SlogP>
2.2318001

>  <SlogP_VSA0>
55.330952

>  <SlogP_VSA1>
71.862312

>  <SlogP_VSA2>
88.24865

>  <SlogP_VSA3>
64.065315

>  <SlogP_VSA4>
0

>  <SlogP_VSA5>
0

>  <SlogP_VSA6>
0

>  <SlogP_VSA7>
37.430504

>  <SlogP_VSA8>
0

>  <SlogP_VSA9>
249.92148

>  <SMR>
11.95824

>  <SMR_VSA0>
139.0009

>  <SMR_VSA1>
52.25568

>  <SMR_VSA2>
0

>  <SMR_VSA3>
19.405949

>  <SMR_VSA4>
6.187367

>  <SMR_VSA5>
84.907822

>  <SMR_VSA6>
83.671951

>  <SMR_VSA7>
181.42955

>  <TPSA>
185.44

>  <VAdjEq>
0.32256484

>  <VAdjMa>
6.1699252

>  <VDistEq>
3.9076409

>  <VDistMa>
9.9787178

>  <vdw_area>
532.73975

>  <vdw_vol>
618.27069

>  <vsa_acc>
71.746407

>  <vsa_acid>
0

>  <vsa_base>
0

>  <vsa_don>
17.742489

>  <vsa_hyd>
222.99585

>  <vsa_other>
194.17805

>  <vsa_pol>
89.488899

>  <Weight>
519.448

>  <weinerPath>
4401

>  <weinerPol>
47

>  <zagreb>
170

$$$$