OC[C@H]1C[C@@H](n2c3nc(nc(NC4CC4)c3nc2)N)C=C1
  MOE2013           2D

 21 24  0  0  1  0  0  0  0  0999 V2000
    0.0000    0.0000    0.0000 O   0  0  0  0  0  0  0  0  0  0  0  0
   -1.2150    0.8800    0.0000 C   0  0  0  0  0  0  0  0  0  0  0  0
   -2.5840    0.2680    0.0000 C   0  0  1  0  0  0  0  0  0  0  0  0
   -3.8840    1.0160    0.0000 C   0  0  0  0  0  0  0  0  0  0  0  0
   -4.9980    0.0110    0.0000 C   0  0  1  0  0  0  0  0  0  0  0  0
   -6.4650    0.3210    0.0000 N   0  0  0  0  0  0  0  0  0  0  0  0
   -7.5790   -0.6850    0.0000 C   0  0  0  0  0  0  0  0  0  0  0  0
   -7.5760   -2.1850    0.0000 N   0  0  0  0  0  0  0  0  0  0  0  0
   -8.8740   -2.9370    0.0000 C   0  0  0  0  0  0  0  0  0  0  0  0
  -10.1750   -2.1880    0.0000 N   0  0  0  0  0  0  0  0  0  0  0  0
  -10.1770   -0.6880    0.0000 C   0  0  0  0  0  0  0  0  0  0  0  0
  -11.4770    0.0600    0.0000 N   0  0  0  0  0  0  0  0  0  0  0  0
  -12.7750   -0.6920    0.0000 C   0  0  0  0  0  0  0  0  0  0  0  0
  -13.5230   -1.9920    0.0000 C   0  0  0  0  0  0  0  0  0  0  0  0
  -14.2750   -0.6940    0.0000 C   0  0  0  0  0  0  0  0  0  0  0  0
   -8.8790    0.0630    0.0000 C   0  0  0  0  0  0  0  0  0  0  0  0
   -8.5690    1.5310    0.0000 N   0  0  0  0  0  0  0  0  0  0  0  0
   -7.0770    1.6900    0.0000 C   0  0  0  0  0  0  0  0  0  0  0  0
   -8.8720   -4.4370    0.0000 N   0  0  0  0  0  0  0  0  0  0  0  0
   -4.3860   -1.3590    0.0000 C   0  0  0  0  0  0  0  0  0  0  0  0
   -2.8940   -1.2000    0.0000 C   0  0  0  0  0  0  0  0  0  0  0  0
  1  2  1  0  0  0  0
  3  2  1  6  0  0  0
  3  4  1  0  0  0  0
  3 21  1  0  0  0  0
  4  5  1  0  0  0  0
  5  6  1  6  0  0  0
  5 20  1  0  0  0  0
  6  7  1  0  0  0  0
  6 18  1  0  0  0  0
  7  8  2  0  0  0  0
  7 16  1  0  0  0  0
  8  9  1  0  0  0  0
  9 10  2  0  0  0  0
  9 19  1  0  0  0  0
 10 11  1  0  0  0  0
 11 12  1  0  0  0  0
 11 16  2  0  0  0  0
 12 13  1  0  0  0  0
 13 14  1  0  0  0  0
 13 15  1  0  0  0  0
 14 15  1  0  0  0  0
 16 17  1  0  0  0  0
 17 18  2  0  0  0  0
 20 21  2  0  0  0  0
M  END
>  <Index>
12

>  <ID>
HT0042

>  <class>
0

>  <apol>
44.044273

>  <ast_fraglike>
0

>  <ast_fraglike_ext>
0

>  <ast_violation>
1

>  <ast_violation_ext>
2

>  <a_acc>
4

>  <a_acid>
0

>  <a_aro>
9

>  <a_base>
0

>  <a_count>
39

>  <a_don>
3

>  <a_donacc>
7

>  <a_heavy>
21

>  <a_hyd>
10

>  <a_IC>
62.259293

>  <a_ICM>
1.5963922

>  <a_nB>
0

>  <a_nBr>
0

>  <a_nC>
14

>  <a_nCl>
0

>  <a_nF>
0

>  <a_nH>
18

>  <a_nI>
0

>  <a_nN>
6

>  <a_nO>
1

>  <a_nP>
0

>  <a_nS>
0

>  <balabanJ>
1.4380018

>  <BCUT_PEOE_0>
-2.5572333

>  <BCUT_PEOE_1>
-0.65175307

>  <BCUT_PEOE_2>
0.69816345

>  <BCUT_PEOE_3>
2.7511678

>  <BCUT_SLOGP_0>
-2.5346649

>  <BCUT_SLOGP_1>
-0.61096126

>  <BCUT_SLOGP_2>
0.68627834

>  <BCUT_SLOGP_3>
2.7988126

>  <BCUT_SMR_0>
-2.3193786

>  <BCUT_SMR_1>
-0.47713333

>  <BCUT_SMR_2>
0.84311146

>  <BCUT_SMR_3>
3.0135536

>  <bpol>
25.617725

>  <b_1rotN>
4

>  <b_1rotR>
0.16666667

>  <b_ar>
10

>  <b_count>
42

>  <b_double>
1

>  <b_heavy>
24

>  <b_max1len>
4

>  <b_rotN>
4

>  <b_rotR>
0.16666667

>  <b_single>
31

>  <b_triple>
0

>  <chi0>
14.396976

>  <chi0v>
11.605947

>  <chi0v_C>
8.2925291

>  <chi0_C>
8.9911995

>  <chi1>
10.241515

>  <chi1v>
7.3010569

>  <chi1v_C>
4.0412416

>  <chi1_C>
4.5244045

>  <chiral>
2

>  <chiral_u>
0

>  <density>
0.76508832

>  <diameter>
11

>  <FCharge>
0

>  <GCUT_PEOE_0>
-0.82664275

>  <GCUT_PEOE_1>
-0.42169598

>  <GCUT_PEOE_2>
0.1123732

>  <GCUT_PEOE_3>
2.6160929

>  <GCUT_SLOGP_0>
-1.3352119

>  <GCUT_SLOGP_1>
-0.334335

>  <GCUT_SLOGP_2>
0.14603694

>  <GCUT_SLOGP_3>
2.6895773

>  <GCUT_SMR_0>
-0.5263527

>  <GCUT_SMR_1>
-0.23968126

>  <GCUT_SMR_2>
0.2229235

>  <GCUT_SMR_3>
2.887711

>  <Kier1>
14.583333

>  <Kier2>
5.8938775

>  <Kier3>
2.6988754

>  <KierA1>
10.810469

>  <KierA2>
4.2982244

>  <KierA3>
1.9435591

>  <KierFlex>
2.2126582

>  <lip_acc>
7

>  <lip_don>
4

>  <lip_druglike>
1

>  <lip_violation>
0

>  <logP(o/w)>
0.40906

>  <logS>
-2.7590401

>  <mr>
7.7036643

>  <mutagenic>
1

>  <nmol>
1

>  <opr_brigid>
18

>  <opr_leadlike>
1

>  <opr_nring>
4

>  <opr_nrot>
4

>  <opr_violation>
0

>  <PC+>
0

>  <PC->
0

>  <PEOE_PC+>
2.1102996

>  <PEOE_PC->
-2.1102996

>  <PEOE_RPC+>
0.099237069

>  <PEOE_RPC->
0.18690684

>  <PEOE_VSA+0>
37.269047

>  <PEOE_VSA+1>
60.66111

>  <PEOE_VSA+2>
48.012539

>  <PEOE_VSA+3>
11.190562

>  <PEOE_VSA+4>
26.005747

>  <PEOE_VSA+5>
0

>  <PEOE_VSA+6>
0

>  <PEOE_VSA-0>
26.103939

>  <PEOE_VSA-1>
24.509808

>  <PEOE_VSA-2>
0

>  <PEOE_VSA-3>
5.6825762

>  <PEOE_VSA-4>
11.365152

>  <PEOE_VSA-5>
6.7880106

>  <PEOE_VSA-6>
7.7675405

>  <PEOE_VSA_FHYD>
0.80431402

>  <PEOE_VSA_FNEG>
0.30983666

>  <PEOE_VSA_FPNEG>
0.097682737

>  <PEOE_VSA_FPOL>
0.19568595

>  <PEOE_VSA_FPOS>
0.69016331

>  <PEOE_VSA_FPPOS>
0.098003224

>  <PEOE_VSA_HYD>
213.42958

>  <PEOE_VSA_NEG>
82.217026

>  <PEOE_VSA_PNEG>
25.920702

>  <PEOE_VSA_POL>
51.926449

>  <PEOE_VSA_POS>
183.13901

>  <PEOE_VSA_PPOS>
26.005747

>  <petitjean>
0.45454547

>  <petitjeanSC>
0.83333331

>  <Q_PC+>
0

>  <Q_PC->
0

>  <Q_RPC+>
0

>  <Q_RPC->
0

>  <Q_VSA_FHYD>
1

>  <Q_VSA_FNEG>
0

>  <Q_VSA_FPNEG>
0

>  <Q_VSA_FPOL>
0

>  <Q_VSA_FPOS>
1

>  <Q_VSA_FPPOS>
0

>  <Q_VSA_HYD>
265.35605

>  <Q_VSA_NEG>
0

>  <Q_VSA_PNEG>
0

>  <Q_VSA_POL>
0

>  <Q_VSA_POS>
265.35605

>  <Q_VSA_PPOS>
0

>  <radius>
6

>  <reactive>
0

>  <rings>
4

>  <RPC+>
0

>  <RPC->
0

>  <rsynth>
0.66666669

>  <SlogP>
1.1878

>  <SlogP_VSA0>
58.282413

>  <SlogP_VSA1>
70.266434

>  <SlogP_VSA2>
3.9819686

>  <SlogP_VSA3>
20.926258

>  <SlogP_VSA4>
4.4107962

>  <SlogP_VSA5>
0

>  <SlogP_VSA6>
0

>  <SlogP_VSA7>
55.931343

>  <SlogP_VSA8>
60.587185

>  <SlogP_VSA9>
4.2270131

>  <SMR>
7.9860902

>  <SMR_VSA0>
0

>  <SMR_VSA1>
77.640907

>  <SMR_VSA2>
4.4107962

>  <SMR_VSA3>
7.9639373

>  <SMR_VSA4>
26.09721

>  <SMR_VSA5>
141.5743

>  <SMR_VSA6>
20.926258

>  <SMR_VSA7>
0

>  <TPSA>
101.88

>  <VAdjEq>
0.49641782

>  <VAdjMa>
5.5849624

>  <VDistEq>
3.1634064

>  <VDistMa>
8.4918346

>  <vdw_area>
265.35605

>  <vdw_vol>
374.25613

>  <vsa_acc>
17.047728

>  <vsa_acid>
0

>  <vsa_base>
0

>  <vsa_don>
23.425066

>  <vsa_hyd>
123.40814

>  <vsa_other>
62.853218

>  <vsa_pol>
54.039715

>  <Weight>
286.33899

>  <weinerPath>
910

>  <weinerPol>
31

>  <zagreb>
118

$$$$