O[C@@H]1CC2=CC[C@H]3[C@@H]4CC[C@H]([C@@H](CC[C@H](C(C)C)CC)C)[C@]4(CC[C@@H]3[C@]2(CC1)C)C
  MOE2013           2D

 30 33  0  0  1  0  0  0  0  0999 V2000
    0.0000    0.0000    0.0000 O   0  0  0  0  0  0  0  0  0  0  0  0
   -1.5000    0.0050    0.0000 C   0  0  2  0  0  0  0  0  0  0  0  0
   -2.2460    1.3060    0.0000 C   0  0  0  0  0  0  0  0  0  0  0  0
   -3.7460    1.3110    0.0000 C   0  0  0  0  0  0  0  0  0  0  0  0
   -4.4910    2.6130    0.0000 C   0  0  0  0  0  0  0  0  0  0  0  0
   -5.9910    2.6180    0.0000 C   0  0  0  0  0  0  0  0  0  0  0  0
   -6.7460    1.3210    0.0000 C   0  0  1  0  0  0  0  0  0  0  0  0
   -8.2460    1.3260    0.0000 C   0  0  2  0  0  0  0  0  0  0  0  0
   -9.2460    2.4440    0.0000 C   0  0  0  0  0  0  0  0  0  0  0  0
  -10.6180    1.8380    0.0000 C   0  0  0  0  0  0  0  0  0  0  0  0
  -10.4660    0.3460    0.0000 C   0  0  2  0  0  0  0  0  0  0  0  0
  -11.5840   -0.6540    0.0000 C   0  0  1  0  0  0  0  0  0  0  0  0
  -13.0090   -0.1860    0.0000 C   0  0  0  0  0  0  0  0  0  0  0  0
  -14.1270   -1.1860    0.0000 C   0  0  0  0  0  0  0  0  0  0  0  0
  -15.5520   -0.7170    0.0000 C   0  0  2  0  0  0  0  0  0  0  0  0
  -16.6700   -1.7180    0.0000 C   0  0  0  0  0  0  0  0  0  0  0  0
  -16.3630   -3.1860    0.0000 C   0  0  0  0  0  0  0  0  0  0  0  0
  -18.0950   -1.2490    0.0000 C   0  0  0  0  0  0  0  0  0  0  0  0
  -15.8590    0.7510    0.0000 C   0  0  0  0  0  0  0  0  0  0  0  0
  -17.2840    1.2190    0.0000 C   0  0  0  0  0  0  0  0  0  0  0  0
  -11.2770   -2.1220    0.0000 C   0  0  0  0  0  0  0  0  0  0  0  0
   -9.0000    0.0300    0.0000 C   0  0  1  0  0  0  0  0  0  0  0  0
   -8.2540   -1.2720    0.0000 C   0  0  0  0  0  0  0  0  0  0  0  0
   -6.7540   -1.2770    0.0000 C   0  0  0  0  0  0  0  0  0  0  0  0
   -6.0000    0.0200    0.0000 C   0  0  2  0  0  0  0  0  0  0  0  0
   -4.5000    0.0150    0.0000 C   0  0  1  0  0  0  0  0  0  0  0  0
   -3.7540   -1.2870    0.0000 C   0  0  0  0  0  0  0  0  0  0  0  0
   -2.2540   -1.2920    0.0000 C   0  0  0  0  0  0  0  0  0  0  0  0
   -5.2770   -1.2680    0.0000 C   0  0  0  0  0  0  0  0  0  0  0  0
   -9.8860   -1.1810    0.0000 C   0  0  0  0  0  0  0  0  0  0  0  0
  2  1  1  1  0  0  0
  2  3  1  0  0  0  0
  2 28  1  0  0  0  0
  3  4  1  0  0  0  0
  4  5  2  0  0  0  0
  4 26  1  0  0  0  0
  5  6  1  0  0  0  0
  7  6  1  6  0  0  0
  7  8  1  0  0  0  0
  7 25  1  0  0  0  0
  8  9  1  1  0  0  0
  8 22  1  0  0  0  0
  9 10  1  0  0  0  0
 11 10  1  1  0  0  0
 11 12  1  0  0  0  0
 11 22  1  0  0  0  0
 12 13  1  0  0  0  0
 12 21  1  6  0  0  0
 13 14  1  0  0  0  0
 15 14  1  6  0  0  0
 15 16  1  0  0  0  0
 15 19  1  0  0  0  0
 16 17  1  0  0  0  0
 16 18  1  0  0  0  0
 19 20  1  0  0  0  0
 22 23  1  0  0  0  0
 22 30  1  1  0  0  0
 23 24  1  0  0  0  0
 25 24  1  1  0  0  0
 25 26  1  0  0  0  0
 26 27  1  0  0  0  0
 26 29  1  1  0  0  0
 27 28  1  0  0  0  0
M  END
>  <Index>
137

>  <ID>
HT0274

>  <class>
0

>  <apol>
85.181648

>  <ast_fraglike>
0

>  <ast_fraglike_ext>
0

>  <ast_violation>
2

>  <ast_violation_ext>
3

>  <a_acc>
1

>  <a_acid>
0

>  <a_aro>
0

>  <a_base>
0

>  <a_count>
80

>  <a_don>
1

>  <a_donacc>
2

>  <a_heavy>
30

>  <a_hyd>
29

>  <a_IC>
82.679993

>  <a_ICM>
1.0334998

>  <a_nB>
0

>  <a_nBr>
0

>  <a_nC>
29

>  <a_nCl>
0

>  <a_nF>
0

>  <a_nH>
50

>  <a_nI>
0

>  <a_nN>
0

>  <a_nO>
1

>  <a_nP>
0

>  <a_nS>
0

>  <balabanJ>
1.4477584

>  <BCUT_PEOE_0>
-2.9499335

>  <BCUT_PEOE_1>
-0.43835512

>  <BCUT_PEOE_2>
0.46628514

>  <BCUT_PEOE_3>
2.9598393

>  <BCUT_SLOGP_0>
-2.8634906

>  <BCUT_SLOGP_1>
-0.34702364

>  <BCUT_SLOGP_2>
0.4841921

>  <BCUT_SLOGP_3>
3.0549245

>  <BCUT_SMR_0>
-2.6907547

>  <BCUT_SMR_1>
-0.30959234

>  <BCUT_SMR_2>
0.59620136

>  <BCUT_SMR_3>
3.2203445

>  <bpol>
54.660351

>  <b_1rotN>
6

>  <b_1rotR>
0.18181819

>  <b_ar>
0

>  <b_count>
83

>  <b_double>
1

>  <b_heavy>
33

>  <b_max1len>
8

>  <b_rotN>
6

>  <b_rotR>
0.18181819

>  <b_single>
82

>  <b_triple>
0

>  <chi0>
21.681435

>  <chi0v>
20.921541

>  <chi0v_C>
20.474327

>  <chi0_C>
20.681435

>  <chi1>
14.20238

>  <chi1v>
13.578533

>  <chi1v_C>
13.320334

>  <chi1_C>
13.62503

>  <chiral>
9

>  <chiral_u>
0

>  <density>
0.61955684

>  <diameter>
15

>  <FCharge>
0

>  <GCUT_PEOE_0>
-0.81111789

>  <GCUT_PEOE_1>
-0.33550331

>  <GCUT_PEOE_2>
-0.01435484

>  <GCUT_PEOE_3>
3.4909999

>  <GCUT_SLOGP_0>
-0.87574536

>  <GCUT_SLOGP_1>
-0.24288177

>  <GCUT_SLOGP_2>
0.0035833369

>  <GCUT_SLOGP_3>
3.596499

>  <GCUT_SMR_0>
-0.5438897

>  <GCUT_SMR_1>
-0.18453336

>  <GCUT_SMR_2>
0.10528643

>  <GCUT_SMR_3>
3.7161467

>  <Kier1>
23.168043

>  <Kier2>
8.7412529

>  <Kier3>
3.9722273

>  <KierA1>
22.557274

>  <KierA2>
8.5027485

>  <KierA3>
3.8612559

>  <KierFlex>
6.3932939

>  <lip_acc>
1

>  <lip_don>
1

>  <lip_druglike>
1

>  <lip_violation>
1

>  <logP(o/w)>
8.073

>  <logS>
-11.36739

>  <mr>
12.708096

>  <mutagenic>
0

>  <nmol>
1

>  <opr_brigid>
20

>  <opr_leadlike>
1

>  <opr_nring>
4

>  <opr_nrot>
6

>  <opr_violation>
1

>  <PC+>
0

>  <PC->
0

>  <PEOE_PC+>
1.6373817

>  <PEOE_PC->
-1.6373817

>  <PEOE_RPC+>
0.12812471

>  <PEOE_RPC->
0.23908529

>  <PEOE_VSA+0>
200.47314

>  <PEOE_VSA+1>
13.4357

>  <PEOE_VSA+2>
0

>  <PEOE_VSA+3>
0

>  <PEOE_VSA+4>
10.324173

>  <PEOE_VSA+5>
0

>  <PEOE_VSA+6>
0

>  <PEOE_VSA-0>
87.01313

>  <PEOE_VSA-1>
135.65082

>  <PEOE_VSA-2>
0

>  <PEOE_VSA-3>
0

>  <PEOE_VSA-4>
0

>  <PEOE_VSA-5>
0

>  <PEOE_VSA-6>
7.7675405

>  <PEOE_VSA_FHYD>
0.96020865

>  <PEOE_VSA_FNEG>
0.50681657

>  <PEOE_VSA_FPNEG>
0.017084114

>  <PEOE_VSA_FPOL>
0.039791346

>  <PEOE_VSA_FPOS>
0.49318346

>  <PEOE_VSA_FPPOS>
0.022707231

>  <PEOE_VSA_HYD>
436.57278

>  <PEOE_VSA_NEG>
230.43149

>  <PEOE_VSA_PNEG>
7.7675405

>  <PEOE_VSA_POL>
18.091713

>  <PEOE_VSA_POS>
224.23302

>  <PEOE_VSA_PPOS>
10.324173

>  <petitjean>
0.46666667

>  <petitjeanSC>
0.875

>  <Q_PC+>
0

>  <Q_PC->
0

>  <Q_RPC+>
0

>  <Q_RPC->
0

>  <Q_VSA_FHYD>
1

>  <Q_VSA_FNEG>
0

>  <Q_VSA_FPNEG>
0

>  <Q_VSA_FPOL>
0

>  <Q_VSA_FPOS>
1

>  <Q_VSA_FPPOS>
0

>  <Q_VSA_HYD>
454.66452

>  <Q_VSA_NEG>
0

>  <Q_VSA_PNEG>
0

>  <Q_VSA_POL>
0

>  <Q_VSA_POS>
454.66452

>  <Q_VSA_PPOS>
0

>  <radius>
8

>  <reactive>
0

>  <rings>
4

>  <RPC+>
0

>  <RPC->
0

>  <rsynth>
0

>  <SlogP>
8.0248003

>  <SlogP_VSA0>
25.385227

>  <SlogP_VSA1>
0

>  <SlogP_VSA2>
6.4686494

>  <SlogP_VSA3>
0

>  <SlogP_VSA4>
30.875572

>  <SlogP_VSA5>
3.185575

>  <SlogP_VSA6>
0

>  <SlogP_VSA7>
17.643185

>  <SlogP_VSA8>
207.55246

>  <SlogP_VSA9>
199.95609

>  <SMR>
12.82168

>  <SMR_VSA0>
0

>  <SMR_VSA1>
25.385227

>  <SMR_VSA2>
30.875572

>  <SMR_VSA3>
9.6542244

>  <SMR_VSA4>
0

>  <SMR_VSA5>
225.19565

>  <SMR_VSA6>
0

>  <SMR_VSA7>
199.95609

>  <TPSA>
20.23

>  <VAdjEq>
0.37824166

>  <VAdjMa>
6.044394

>  <VDistEq>
3.6221199

>  <VDistMa>
9.5051651

>  <vdw_area>
454.66452

>  <vdw_vol>
669.37842

>  <vsa_acc>
0

>  <vsa_acid>
0

>  <vsa_base>
0

>  <vsa_don>
0

>  <vsa_hyd>
392.27948

>  <vsa_other>
0

>  <vsa_pol>
13.566921

>  <Weight>
414.71799

>  <weinerPath>
2463

>  <weinerPol>
59

>  <zagreb>
168

$$$$