O(N=O)CCCC
  MOE2013           2D

  7  6  0  0  0  0  0  0  0  0999 V2000
    0.0000    0.0000    0.0000 O   0  0  0  0  0  0  0  0  0  0  0  0
    1.2990    0.7500    0.0000 N   0  0  0  0  0  0  0  0  0  0  0  0
    2.5980    0.0000    0.0000 O   0  0  0  0  0  0  0  0  0  0  0  0
   -1.2990    0.7500    0.0000 C   0  0  0  0  0  0  0  0  0  0  0  0
   -2.5980    0.0000    0.0000 C   0  0  0  0  0  0  0  0  0  0  0  0
   -3.8970    0.7500    0.0000 C   0  0  0  0  0  0  0  0  0  0  0  0
   -5.1960    0.0000    0.0000 C   0  0  0  0  0  0  0  0  0  0  0  0
  1  2  1  0  0  0  0
  1  4  1  0  0  0  0
  2  3  2  0  0  0  0
  4  5  1  0  0  0  0
  5  6  1  0  0  0  0
  6  7  1  0  0  0  0
M  END
>  <Index>
1200

>  <ID>
HT2423

>  <class>
0

>  <apol>
15.745137

>  <ast_fraglike>
1

>  <ast_fraglike_ext>
0

>  <ast_violation>
0

>  <ast_violation_ext>
1

>  <a_acc>
2

>  <a_acid>
0

>  <a_aro>
0

>  <a_base>
0

>  <a_count>
16

>  <a_don>
0

>  <a_donacc>
2

>  <a_heavy>
7

>  <a_hyd>
4

>  <a_IC>
25.470675

>  <a_ICM>
1.5919172

>  <a_nB>
0

>  <a_nBr>
0

>  <a_nC>
4

>  <a_nCl>
0

>  <a_nF>
0

>  <a_nH>
9

>  <a_nI>
0

>  <a_nN>
1

>  <a_nO>
2

>  <a_nP>
0

>  <a_nS>
0

>  <balabanJ>
2.4633985

>  <BCUT_PEOE_0>
-2.5581377

>  <BCUT_PEOE_1>
-0.1197102

>  <BCUT_PEOE_2>
0.058736697

>  <BCUT_PEOE_3>
2.5316834

>  <BCUT_SLOGP_0>
-2.4764817

>  <BCUT_SLOGP_1>
0.017090227

>  <BCUT_SLOGP_2>
0.123

>  <BCUT_SLOGP_3>
2.6379347

>  <BCUT_SMR_0>
-2.329834

>  <BCUT_SMR_1>
0.1057

>  <BCUT_SMR_2>
0.23850963

>  <BCUT_SMR_3>
2.7586465

>  <bpol>
11.392863

>  <b_1rotN>
4

>  <b_1rotR>
0.66666669

>  <b_ar>
0

>  <b_count>
15

>  <b_double>
1

>  <b_heavy>
6

>  <b_max1len>
5

>  <b_rotN>
4

>  <b_rotR>
0.66666669

>  <b_single>
14

>  <b_triple>
0

>  <chi0>
5.5355339

>  <chi0v>
4.3850307

>  <chi0v_C>
3.1213202

>  <chi0_C>
3.1213202

>  <chi1>
3.4142137

>  <chi1v>
2.3609302

>  <chi1v_C>
1.7071068

>  <chi1_C>
1.7071068

>  <chiral>
0

>  <chiral_u>
0

>  <density>
0.75520843

>  <diameter>
6

>  <FCharge>
0

>  <GCUT_PEOE_0>
-0.78305531

>  <GCUT_PEOE_1>
-0.30623859

>  <GCUT_PEOE_2>
-0.10126331

>  <GCUT_PEOE_3>
2.002177

>  <GCUT_SLOGP_0>
-0.80371815

>  <GCUT_SLOGP_1>
-0.18979043

>  <GCUT_SLOGP_2>
-0.037

>  <GCUT_SLOGP_3>
2.0967021

>  <GCUT_SMR_0>
-0.52843314

>  <GCUT_SMR_1>
-0.054299999

>  <GCUT_SMR_2>
0.005164268

>  <GCUT_SMR_3>
2.2008584

>  <Kier1>
7

>  <Kier2>
6

>  <Kier3>
6

>  <KierA1>
5.9265862

>  <KierA2>
4.9164119

>  <KierA3>
4.7386937

>  <KierFlex>
4.1625051

>  <lip_acc>
3

>  <lip_don>
0

>  <lip_druglike>
1

>  <lip_violation>
0

>  <logP(o/w)>
1.8099999

>  <logS>
-1.19494

>  <mr>
2.7207048

>  <mutagenic>
1

>  <nmol>
1

>  <opr_brigid>
0

>  <opr_leadlike>
1

>  <opr_nring>
0

>  <opr_nrot>
4

>  <opr_violation>
0

>  <PC+>
0

>  <PC->
0

>  <PEOE_PC+>
0.47974515

>  <PEOE_PC->
-0.47974515

>  <PEOE_RPC+>
0.21288185

>  <PEOE_RPC->
0.45192629

>  <PEOE_VSA+0>
29.857702

>  <PEOE_VSA+1>
23.482065

>  <PEOE_VSA+2>
16.087948

>  <PEOE_VSA+3>
0

>  <PEOE_VSA+4>
0

>  <PEOE_VSA+5>
0

>  <PEOE_VSA+6>
0

>  <PEOE_VSA-0>
8.701313

>  <PEOE_VSA-1>
27.44899

>  <PEOE_VSA-2>
16.965525

>  <PEOE_VSA-3>
0

>  <PEOE_VSA-4>
5.9023595

>  <PEOE_VSA-5>
0

>  <PEOE_VSA-6>
0

>  <PEOE_VSA_FHYD>
0.95404792

>  <PEOE_VSA_FNEG>
0.45947894

>  <PEOE_VSA_FPNEG>
0.045952104

>  <PEOE_VSA_FPOL>
0.045952104

>  <PEOE_VSA_FPOS>
0.54052109

>  <PEOE_VSA_FPPOS>
0

>  <PEOE_VSA_HYD>
122.54354

>  <PEOE_VSA_NEG>
59.018188

>  <PEOE_VSA_PNEG>
5.9023595

>  <PEOE_VSA_POL>
5.9023595

>  <PEOE_VSA_POS>
69.427711

>  <PEOE_VSA_PPOS>
0

>  <petitjean>
0.5

>  <petitjeanSC>
1

>  <Q_PC+>
0

>  <Q_PC->
0

>  <Q_RPC+>
0

>  <Q_RPC->
0

>  <Q_VSA_FHYD>
1

>  <Q_VSA_FNEG>
0

>  <Q_VSA_FPNEG>
0

>  <Q_VSA_FPOL>
0

>  <Q_VSA_FPOS>
1

>  <Q_VSA_FPPOS>
0

>  <Q_VSA_HYD>
128.44591

>  <Q_VSA_NEG>
0

>  <Q_VSA_PNEG>
0

>  <Q_VSA_POL>
0

>  <Q_VSA_POS>
128.44591

>  <Q_VSA_PPOS>
0

>  <radius>
3

>  <reactive>
1

>  <rings>
0

>  <RPC+>
0

>  <RPC->
0

>  <rsynth>
1

>  <SlogP>
1.4845001

>  <SlogP_VSA0>
0

>  <SlogP_VSA1>
0

>  <SlogP_VSA2>
11.218763

>  <SlogP_VSA3>
45.025127

>  <SlogP_VSA4>
0

>  <SlogP_VSA5>
22.438892

>  <SlogP_VSA6>
0

>  <SlogP_VSA7>
0

>  <SlogP_VSA8>
37.736813

>  <SlogP_VSA9>
33.326015

>  <SMR>
2.6654999

>  <SMR_VSA0>
11.218763

>  <SMR_VSA1>
22.438892

>  <SMR_VSA2>
24.098869

>  <SMR_VSA3>
0

>  <SMR_VSA4>
0

>  <SMR_VSA5>
37.736813

>  <SMR_VSA6>
20.926258

>  <SMR_VSA7>
33.326015

>  <TPSA>
38.66

>  <VAdjEq>
0.80309099

>  <VAdjMa>
3.5849626

>  <VDistEq>
2.398303

>  <VDistMa>
5.1689868

>  <vdw_area>
128.44591

>  <vdw_vol>
136.5464

>  <vsa_acc>
33.053471

>  <vsa_acid>
0

>  <vsa_base>
0

>  <vsa_don>
0

>  <vsa_hyd>
83.083916

>  <vsa_other>
5.9023595

>  <vsa_pol>
33.053471

>  <Weight>
103.12099

>  <weinerPath>
56

>  <weinerPol>
4

>  <zagreb>
22

$$$$