O=C1NC(CC1)C(=O)NC(Cc1nc[nH]c1)C(=O)N1CCCC1C(=O)N
  MOE2013           2D

 26 28  0  0  1  0  0  0  0  0999 V2000
    0.0000    0.0000    0.0000 O   0  0  0  0  0  0  0  0  0  0  0  0
    1.2590    0.8160    0.0000 C   0  0  0  0  0  0  0  0  0  0  0  0
    2.6590    0.2770    0.0000 N   0  0  0  0  0  0  0  0  0  0  0  0
    3.6030    1.4430    0.0000 C   0  0  3  0  0  0  0  0  0  0  0  0
    2.7870    2.7010    0.0000 C   0  0  0  0  0  0  0  0  0  0  0  0
    1.3380    2.3140    0.0000 C   0  0  0  0  0  0  0  0  0  0  0  0
    5.1010    1.3630    0.0000 C   0  0  0  0  0  0  0  0  0  0  0  0
    5.7810    0.0260    0.0000 O   0  0  0  0  0  0  0  0  0  0  0  0
    5.9190    2.6200    0.0000 N   0  0  0  0  0  0  0  0  0  0  0  0
    7.4170    2.5410    0.0000 C   0  0  3  0  0  0  0  0  0  0  0  0
    8.2350    3.7980    0.0000 C   0  0  0  0  0  0  0  0  0  0  0  0
    7.5550    5.1350    0.0000 C   0  0  0  0  0  0  0  0  0  0  0  0
    8.2370    6.4710    0.0000 N   0  0  0  0  0  0  0  0  0  0  0  0
    7.1770    7.5330    0.0000 C   0  0  0  0  0  0  0  0  0  0  0  0
    5.8400    6.8530    0.0000 N   0  0  0  0  0  0  0  0  0  0  0  0
    6.0740    5.3710    0.0000 C   0  0  0  0  0  0  0  0  0  0  0  0
    8.0970    1.2040    0.0000 C   0  0  0  0  0  0  0  0  0  0  0  0
    7.2790   -0.0540    0.0000 O   0  0  0  0  0  0  0  0  0  0  0  0
    9.5950    1.1240    0.0000 N   0  0  0  0  0  0  0  0  0  0  0  0
   10.5400    2.2890    0.0000 C   0  0  0  0  0  0  0  0  0  0  0  0
   11.9400    1.7510    0.0000 C   0  0  0  0  0  0  0  0  0  0  0  0
   11.8600    0.2530    0.0000 C   0  0  0  0  0  0  0  0  0  0  0  0
   10.4110   -0.1340    0.0000 C   0  0  3  0  0  0  0  0  0  0  0  0
    9.8720   -1.5340    0.0000 C   0  0  0  0  0  0  0  0  0  0  0  0
   10.8160   -2.7010    0.0000 O   0  0  0  0  0  0  0  0  0  0  0  0
    8.3910   -1.7680    0.0000 N   0  0  0  0  0  0  0  0  0  0  0  0
  1  2  2  0  0  0  0
  2  3  1  0  0  0  0
  2  6  1  0  0  0  0
  3  4  1  0  0  0  0
  4  5  1  0  0  0  0
  4  7  1  0  0  0  0
  5  6  1  0  0  0  0
  7  8  2  0  0  0  0
  7  9  1  0  0  0  0
  9 10  1  0  0  0  0
 10 11  1  0  0  0  0
 10 17  1  0  0  0  0
 11 12  1  0  0  0  0
 12 13  1  0  0  0  0
 12 16  2  0  0  0  0
 13 14  2  0  0  0  0
 14 15  1  0  0  0  0
 15 16  1  0  0  0  0
 17 18  2  0  0  0  0
 17 19  1  0  0  0  0
 19 20  1  0  0  0  0
 19 23  1  0  0  0  0
 20 21  1  0  0  0  0
 21 22  1  0  0  0  0
 22 23  1  0  0  0  0
 23 24  1  0  0  0  0
 24 25  2  0  0  0  0
 24 26  1  0  0  0  0
M  END
>  <Index>
1070

>  <ID>
HT2050

>  <class>
0

>  <apol>
52.637447

>  <ast_fraglike>
0

>  <ast_fraglike_ext>
0

>  <ast_violation>
3

>  <ast_violation_ext>
5

>  <a_acc>
6

>  <a_acid>
0

>  <a_aro>
5

>  <a_base>
0

>  <a_count>
48

>  <a_don>
5

>  <a_donacc>
11

>  <a_heavy>
26

>  <a_hyd>
11

>  <a_IC>
82.46093

>  <a_ICM>
1.717936

>  <a_nB>
0

>  <a_nBr>
0

>  <a_nC>
16

>  <a_nCl>
0

>  <a_nF>
0

>  <a_nH>
22

>  <a_nI>
0

>  <a_nN>
6

>  <a_nO>
4

>  <a_nP>
0

>  <a_nS>
0

>  <balabanJ>
1.6538109

>  <BCUT_PEOE_0>
-2.5670457

>  <BCUT_PEOE_1>
-0.55975962

>  <BCUT_PEOE_2>
0.47185567

>  <BCUT_PEOE_3>
2.7361259

>  <BCUT_SLOGP_0>
-2.8084064

>  <BCUT_SLOGP_1>
-0.54959106

>  <BCUT_SLOGP_2>
0.45068529

>  <BCUT_SLOGP_3>
2.6875045

>  <BCUT_SMR_0>
-2.3067946

>  <BCUT_SMR_1>
-0.35064292

>  <BCUT_SMR_2>
0.6208092

>  <BCUT_SMR_3>
2.9876819

>  <bpol>
32.502556

>  <b_1rotN>
7

>  <b_1rotR>
0.25

>  <b_ar>
5

>  <b_count>
50

>  <b_double>
4

>  <b_heavy>
28

>  <b_max1len>
4

>  <b_rotN>
8

>  <b_rotR>
0.2857143

>  <b_single>
41

>  <b_triple>
0

>  <chi0>
18.681435

>  <chi0v>
14.234162

>  <chi0v_C>
9.6293917

>  <chi0_C>
10.275657

>  <chi1>
12.452397

>  <chi1v>
8.6262636

>  <chi1v_C>
4.5865521

>  <chi1_C>
4.9494896

>  <chiral>
3

>  <chiral_u>
3

>  <density>
0.80037409

>  <diameter>
11

>  <FCharge>
0

>  <GCUT_PEOE_0>
-0.84795332

>  <GCUT_PEOE_1>
-0.42442989

>  <GCUT_PEOE_2>
0.061516527

>  <GCUT_PEOE_3>
2.7702956

>  <GCUT_SLOGP_0>
-1.3706205

>  <GCUT_SLOGP_1>
-0.41045395

>  <GCUT_SLOGP_2>
0.052131563

>  <GCUT_SLOGP_3>
2.6734016

>  <GCUT_SMR_0>
-0.52477676

>  <GCUT_SMR_1>
-0.2289632

>  <GCUT_SMR_2>
0.17926201

>  <GCUT_SMR_3>
3.0052876

>  <Kier1>
20.727041

>  <Kier2>
9.4674559

>  <Kier3>
5.2992001

>  <KierA1>
14.956237

>  <KierA2>
6.7351375

>  <KierA3>
3.7316318

>  <KierFlex>
3.8743196

>  <lip_acc>
10

>  <lip_don>
5

>  <lip_druglike>
1

>  <lip_violation>
0

>  <logP(o/w)>
-2.7160001

>  <logS>
-1.65224

>  <mr>
9.1995411

>  <mutagenic>
0

>  <nmol>
1

>  <opr_brigid>
15

>  <opr_leadlike>
1

>  <opr_nring>
3

>  <opr_nrot>
7

>  <opr_violation>
1

>  <PC+>
0

>  <PC->
0

>  <PEOE_PC+>
3.1320245

>  <PEOE_PC->
-3.1320245

>  <PEOE_RPC+>
0.078835256

>  <PEOE_RPC->
0.11753985

>  <PEOE_VSA+0>
98.525497

>  <PEOE_VSA+1>
44.998024

>  <PEOE_VSA+2>
13.703267

>  <PEOE_VSA+3>
43.095066

>  <PEOE_VSA+4>
51.798122

>  <PEOE_VSA+5>
0

>  <PEOE_VSA+6>
0

>  <PEOE_VSA-0>
26.103939

>  <PEOE_VSA-1>
0

>  <PEOE_VSA-2>
0

>  <PEOE_VSA-3>
0

>  <PEOE_VSA-4>
5.6825762

>  <PEOE_VSA-5>
54.267685

>  <PEOE_VSA-6>
7.0617924

>  <PEOE_VSA_FHYD>
0.65585804

>  <PEOE_VSA_FNEG>
0.26971695

>  <PEOE_VSA_FPNEG>
0.19410507

>  <PEOE_VSA_FPOL>
0.34414193

>  <PEOE_VSA_FPOS>
0.73028308

>  <PEOE_VSA_FPPOS>
0.15003687

>  <PEOE_VSA_HYD>
226.4258

>  <PEOE_VSA_NEG>
93.11599

>  <PEOE_VSA_PNEG>
67.012054

>  <PEOE_VSA_POL>
118.81017

>  <PEOE_VSA_POS>
252.11998

>  <PEOE_VSA_PPOS>
51.798122

>  <petitjean>
0.45454547

>  <petitjeanSC>
0.83333331

>  <Q_PC+>
0

>  <Q_PC->
0

>  <Q_RPC+>
0

>  <Q_RPC->
0

>  <Q_VSA_FHYD>
1

>  <Q_VSA_FNEG>
0

>  <Q_VSA_FPNEG>
0

>  <Q_VSA_FPOL>
0

>  <Q_VSA_FPOS>
1

>  <Q_VSA_FPPOS>
0

>  <Q_VSA_HYD>
345.23596

>  <Q_VSA_NEG>
0

>  <Q_VSA_PNEG>
0

>  <Q_VSA_POL>
0

>  <Q_VSA_POS>
345.23596

>  <Q_VSA_PPOS>
0

>  <radius>
6

>  <reactive>
0

>  <rings>
3

>  <RPC+>
0

>  <RPC->
0

>  <rsynth>
1

>  <SlogP>
-1.80813

>  <SlogP_VSA0>
68.918686

>  <SlogP_VSA1>
40.944977

>  <SlogP_VSA2>
124.1803

>  <SlogP_VSA3>
18.439579

>  <SlogP_VSA4>
2.7567475

>  <SlogP_VSA5>
18.868406

>  <SlogP_VSA6>
0

>  <SlogP_VSA7>
33.999886

>  <SlogP_VSA8>
75.473625

>  <SlogP_VSA9>
0

>  <SMR>
8.9316502

>  <SMR_VSA0>
95.448868

>  <SMR_VSA1>
19.909843

>  <SMR_VSA2>
52.80703

>  <SMR_VSA3>
14.702654

>  <SMR_VSA4>
32.897186

>  <SMR_VSA5>
128.34192

>  <SMR_VSA6>
39.474712

>  <SMR_VSA7>
0

>  <TPSA>
150.28

>  <VAdjEq>
0.41210872

>  <VAdjMa>
5.8073549

>  <VDistEq>
3.2788389

>  <VDistMa>
9.1456223

>  <vdw_area>
345.23596

>  <vdw_vol>
452.77576

>  <vsa_acc>
54.267685

>  <vsa_acid>
0

>  <vsa_base>
0

>  <vsa_don>
29.107641

>  <vsa_hyd>
146.4397

>  <vsa_other>
76.588638

>  <vsa_pol>
94.740479

>  <Weight>
362.38998

>  <weinerPath>
1657

>  <weinerPol>
35

>  <zagreb>
134

$$$$