O(C(=O)C1C2(C(C3=NC2=CC2=NC(=Cc4[nH]c(C=c5[nH]c(=C3)c(C)c5C=C)c(C)c4CCC(O)=O)C(CCC(O)=O)=C2C)=CC=C1C(OC)=O)C)C
  MOE2013           2D

 52 57  0  0  1  0  0  0  0  0999 V2000
    0.0000    0.0000    0.0000 O   0  0  0  0  0  0  0  0  0  0  0  0
   -0.9550   -1.1560    0.0000 C   0  0  0  0  0  0  0  0  0  0  0  0
   -2.4340   -0.9070    0.0000 O   0  0  0  0  0  0  0  0  0  0  0  0
   -0.4310   -2.5620    0.0000 C   0  0  3  0  0  0  0  0  0  0  0  0
   -1.3840   -3.7090    0.0000 C   0  0  3  0  0  0  0  0  0  0  0  0
   -0.8490   -5.1320    0.0000 C   0  0  0  0  0  0  0  0  0  0  0  0
   -2.0350   -6.0250    0.0000 C   0  0  0  0  0  0  0  0  0  0  0  0
   -3.2670   -5.2280    0.0000 N   0  0  0  0  0  0  0  0  0  0  0  0
   -2.8650   -3.8170    0.0000 C   0  0  0  0  0  0  0  0  0  0  0  0
   -3.4330   -2.6050    0.0000 C   0  0  0  0  0  0  0  0  0  0  0  0
   -4.7260   -2.9750    0.0000 C   0  0  0  0  0  0  0  0  0  0  0  0
   -5.5100   -4.2150    0.0000 N   0  0  0  0  0  0  0  0  0  0  0  0
   -6.9240   -3.8250    0.0000 C   0  0  0  0  0  0  0  0  0  0  0  0
   -8.1290   -4.4230    0.0000 C   0  0  0  0  0  0  0  0  0  0  0  0
   -7.7720   -5.7200    0.0000 C   0  0  0  0  0  0  0  0  0  0  0  0
   -6.5390   -6.5120    0.0000 N   0  0  0  0  0  0  0  0  0  0  0  0
   -6.9440   -7.9220    0.0000 C   0  0  0  0  0  0  0  0  0  0  0  0
   -6.3580   -9.1330    0.0000 C   0  0  0  0  0  0  0  0  0  0  0  0
   -5.0650   -8.7620    0.0000 C   0  0  0  0  0  0  0  0  0  0  0  0
   -4.2840   -7.5230    0.0000 N   0  0  0  0  0  0  0  0  0  0  0  0
   -2.8690   -7.9100    0.0000 C   0  0  0  0  0  0  0  0  0  0  0  0
   -1.6640   -7.3120    0.0000 C   0  0  0  0  0  0  0  0  0  0  0  0
   -2.7300   -9.3800    0.0000 C   0  0  0  0  0  0  0  0  0  0  0  0
   -1.4540  -10.1690    0.0000 C   0  0  0  0  0  0  0  0  0  0  0  0
   -4.1750   -9.9400    0.0000 C   0  0  0  0  0  0  0  0  0  0  0  0
   -4.5840  -11.3830    0.0000 C   0  0  0  0  0  0  0  0  0  0  0  0
   -3.5400  -12.4600    0.0000 C   0  0  0  0  0  0  0  0  0  0  0  0
   -8.4150   -8.0490    0.0000 C   0  0  0  0  0  0  0  0  0  0  0  0
   -9.2170   -9.3160    0.0000 C   0  0  0  0  0  0  0  0  0  0  0  0
   -8.9600   -6.5980    0.0000 C   0  0  0  0  0  0  0  0  0  0  0  0
  -10.3980   -6.1740    0.0000 C   0  0  0  0  0  0  0  0  0  0  0  0
  -11.4850   -7.2070    0.0000 C   0  0  0  0  0  0  0  0  0  0  0  0
  -12.9240   -6.7820    0.0000 C   0  0  0  0  0  0  0  0  0  0  0  0
  -13.2750   -5.3240    0.0000 O   0  0  0  0  0  0  0  0  0  0  0  0
  -14.0110   -7.8150    0.0000 O   0  0  0  0  0  0  0  0  0  0  0  0
   -7.0610   -2.3550    0.0000 C   0  0  0  0  0  0  0  0  0  0  0  0
   -8.3360   -1.5660    0.0000 C   0  0  0  0  0  0  0  0  0  0  0  0
   -8.2900   -0.0660    0.0000 C   0  0  0  0  0  0  0  0  0  0  0  0
   -9.5660    0.7230    0.0000 C   0  0  0  0  0  0  0  0  0  0  0  0
  -10.8870    0.0130    0.0000 O   0  0  0  0  0  0  0  0  0  0  0  0
   -9.5200    2.2230    0.0000 O   0  0  0  0  0  0  0  0  0  0  0  0
   -5.6150   -1.7960    0.0000 C   0  0  0  0  0  0  0  0  0  0  0  0
   -5.2030   -0.3530    0.0000 C   0  0  0  0  0  0  0  0  0  0  0  0
    0.6220   -5.3680    0.0000 C   0  0  0  0  0  0  0  0  0  0  0  0
    1.5770   -4.2100    0.0000 C   0  0  0  0  0  0  0  0  0  0  0  0
    1.0500   -2.8070    0.0000 C   0  0  0  0  0  0  0  0  0  0  0  0
    2.0020   -1.6480    0.0000 C   0  0  0  0  0  0  0  0  0  0  0  0
    3.4820   -1.8940    0.0000 O   0  0  0  0  0  0  0  0  0  0  0  0
    4.4340   -0.7350    0.0000 C   0  0  0  0  0  0  0  0  0  0  0  0
    1.4750   -0.2440    0.0000 O   0  0  0  0  0  0  0  0  0  0  0  0
   -2.1200   -2.4020    0.0000 C   0  0  0  0  0  0  0  0  0  0  0  0
   -0.5240    1.4060    0.0000 C   0  0  0  0  0  0  0  0  0  0  0  0
  1  2  1  0  0  0  0
  1 52  1  0  0  0  0
  2  3  2  0  0  0  0
  2  4  1  0  0  0  0
  4  5  1  0  0  0  0
  4 46  1  0  0  0  0
  5  6  1  0  0  0  0
  5  9  1  0  0  0  0
  5 51  1  0  0  0  0
  6  7  1  0  0  0  0
  6 44  2  0  0  0  0
  7  8  2  0  0  0  0
  7 22  1  0  0  0  0
  8  9  1  0  0  0  0
  9 10  2  3  0  0  0
 10 11  1  0  0  0  0
 11 12  2  0  0  0  0
 11 42  1  0  0  0  0
 12 13  1  0  0  0  0
 13 14  2  3  0  0  0
 13 36  1  0  0  0  0
 14 15  1  0  0  0  0
 15 16  1  0  0  0  0
 15 30  2  0  0  0  0
 16 17  1  0  0  0  0
 17 18  1  0  0  0  0
 17 28  2  0  0  0  0
 18 19  2  3  0  0  0
 19 20  1  0  0  0  0
 19 25  1  0  0  0  0
 20 21  1  0  0  0  0
 21 22  2  3  0  0  0
 21 23  1  0  0  0  0
 23 24  1  0  0  0  0
 23 25  2  0  0  0  0
 25 26  1  0  0  0  0
 26 27  2  0  0  0  0
 28 29  1  0  0  0  0
 28 30  1  0  0  0  0
 30 31  1  0  0  0  0
 31 32  1  0  0  0  0
 32 33  1  0  0  0  0
 33 34  1  0  0  0  0
 33 35  2  0  0  0  0
 36 37  1  0  0  0  0
 36 42  2  0  0  0  0
 37 38  1  0  0  0  0
 38 39  1  0  0  0  0
 39 40  1  0  0  0  0
 39 41  2  0  0  0  0
 42 43  1  0  0  0  0
 44 45  1  0  0  0  0
 45 46  2  0  0  0  0
 46 47  1  0  0  0  0
 47 48  1  0  0  0  0
 47 50  2  0  0  0  0
 48 49  1  0  0  0  0
M  END
>  <Index>
1411

>  <ID>
HT3991

>  <class>
0

>  <apol>
107.88772

>  <ast_fraglike>
0

>  <ast_fraglike_ext>
0

>  <ast_violation>
4

>  <ast_violation_ext>
6

>  <a_acc>
8

>  <a_acid>
0

>  <a_aro>
10

>  <a_base>
0

>  <a_count>
92

>  <a_don>
6

>  <a_donacc>
14

>  <a_heavy>
52

>  <a_hyd>
34

>  <a_IC>
142.41345

>  <a_ICM>
1.5479723

>  <a_nB>
0

>  <a_nBr>
0

>  <a_nC>
40

>  <a_nCl>
0

>  <a_nF>
0

>  <a_nH>
40

>  <a_nI>
0

>  <a_nN>
4

>  <a_nO>
8

>  <a_nP>
0

>  <a_nS>
0

>  <balabanJ>
1.39473

>  <BCUT_PEOE_0>
-2.5780718

>  <BCUT_PEOE_1>
-0.51776773

>  <BCUT_PEOE_2>
0.44854185

>  <BCUT_PEOE_3>
2.696713

>  <BCUT_SLOGP_0>
-2.6111434

>  <BCUT_SLOGP_1>
-0.47514689

>  <BCUT_SLOGP_2>
0.45967078

>  <BCUT_SLOGP_3>
2.6974885

>  <BCUT_SMR_0>
-2.3381193

>  <BCUT_SMR_1>
-0.34621993

>  <BCUT_SMR_2>
0.61883849

>  <BCUT_SMR_3>
2.953959

>  <bpol>
55.35228

>  <b_1rotN>
9

>  <b_1rotR>
0.15789473

>  <b_ar>
10

>  <b_count>
97

>  <b_double>
14

>  <b_heavy>
57

>  <b_max1len>
3

>  <b_rotN>
11

>  <b_rotR>
0.19298245

>  <b_single>
73

>  <b_triple>
0

>  <chi0>
37.645172

>  <chi0v>
29.892681

>  <chi0v_C>
24.654337

>  <chi0_C>
27.402531

>  <chi1>
24.72304

>  <chi1v>
16.83013

>  <chi1v_C>
12.447248

>  <chi1_C>
15.76224

>  <chiral>
2

>  <chiral_u>
2

>  <density>
0.75190288

>  <diameter>
17

>  <FCharge>
0

>  <GCUT_PEOE_0>
-0.85793102

>  <GCUT_PEOE_1>
-0.44787368

>  <GCUT_PEOE_2>
0.016966665

>  <GCUT_PEOE_3>
3.1668253

>  <GCUT_SLOGP_0>
-1.2647066

>  <GCUT_SLOGP_1>
-0.31636325

>  <GCUT_SLOGP_2>
0.037754528

>  <GCUT_SLOGP_3>
3.2139871

>  <GCUT_SMR_0>
-0.50796241

>  <GCUT_SMR_1>
-0.21044222

>  <GCUT_SMR_2>
0.2066628

>  <GCUT_SMR_3>
3.4560006

>  <Kier1>
41.628807

>  <Kier2>
17.239048

>  <Kier3>
8.0970325

>  <KierA1>
30.610033

>  <KierA2>
12.594646

>  <KierA3>
5.8893514

>  <KierFlex>
7.4138947

>  <lip_acc>
12

>  <lip_don>
4

>  <lip_druglike>
0

>  <lip_violation>
2

>  <logP(o/w)>
5.888

>  <logS>
-6.53864

>  <mr>
19.341398

>  <mutagenic>
0

>  <nmol>
1

>  <opr_brigid>
34

>  <opr_leadlike>
0

>  <opr_nring>
5

>  <opr_nrot>
13

>  <opr_violation>
4

>  <PC+>
0

>  <PC->
0

>  <PEOE_PC+>
4.1715293

>  <PEOE_PC->
-4.1715293

>  <PEOE_RPC+>
0.069599703

>  <PEOE_RPC->
0.084988832

>  <PEOE_VSA+0>
188.18633

>  <PEOE_VSA+1>
90.778992

>  <PEOE_VSA+2>
0

>  <PEOE_VSA+3>
17.238026

>  <PEOE_VSA+4>
20.648346

>  <PEOE_VSA+5>
58.833996

>  <PEOE_VSA+6>
0

>  <PEOE_VSA-0>
154.66418

>  <PEOE_VSA-1>
59.065979

>  <PEOE_VSA-2>
0

>  <PEOE_VSA-3>
0

>  <PEOE_VSA-4>
5.6825762

>  <PEOE_VSA-5>
59.95026

>  <PEOE_VSA-6>
20.816374

>  <PEOE_VSA_FHYD>
0.75449014

>  <PEOE_VSA_FNEG>
0.444141

>  <PEOE_VSA_FPNEG>
0.12790897

>  <PEOE_VSA_FPOL>
0.24550988

>  <PEOE_VSA_FPOS>
0.55585903

>  <PEOE_VSA_FPPOS>
0.1176009

>  <PEOE_VSA_HYD>
509.93353

>  <PEOE_VSA_NEG>
300.17938

>  <PEOE_VSA_PNEG>
86.449211

>  <PEOE_VSA_POL>
165.93155

>  <PEOE_VSA_POS>
375.6857

>  <PEOE_VSA_PPOS>
79.482346

>  <petitjean>
0.41176471

>  <petitjeanSC>
0.69999999

>  <Q_PC+>
0

>  <Q_PC->
0

>  <Q_RPC+>
0

>  <Q_RPC->
0

>  <Q_VSA_FHYD>
1

>  <Q_VSA_FNEG>
0

>  <Q_VSA_FPNEG>
0

>  <Q_VSA_FPOL>
0

>  <Q_VSA_FPOS>
1

>  <Q_VSA_FPPOS>
0

>  <Q_VSA_HYD>
675.86505

>  <Q_VSA_NEG>
0

>  <Q_VSA_PNEG>
0

>  <Q_VSA_POL>
0

>  <Q_VSA_POS>
675.86505

>  <Q_VSA_PPOS>
0

>  <radius>
10

>  <reactive>
0

>  <rings>
6

>  <RPC+>
0

>  <RPC->
0

>  <rsynth>
0.15384616

>  <SlogP>
4.39291

>  <SlogP_VSA0>
3.0630529

>  <SlogP_VSA1>
36.49535

>  <SlogP_VSA2>
151.0197

>  <SlogP_VSA3>
50.770454

>  <SlogP_VSA4>
22.666592

>  <SlogP_VSA5>
141.463

>  <SlogP_VSA6>
0

>  <SlogP_VSA7>
52.929554

>  <SlogP_VSA8>
127.17796

>  <SlogP_VSA9>
165.40485

>  <SMR>
19.6684

>  <SMR_VSA0>
117.44864

>  <SMR_VSA1>
33.57106

>  <SMR_VSA2>
91.815361

>  <SMR_VSA3>
36.511589

>  <SMR_VSA4>
0

>  <SMR_VSA5>
128.40317

>  <SMR_VSA6>
107.06809

>  <SMR_VSA7>
236.17259

>  <TPSA>
183.5

>  <VAdjEq>
0.25210848

>  <VAdjMa>
6.83289

>  <VDistEq>
3.7728553

>  <VDistMa>
11.183529

>  <vdw_area>
675.86505

>  <vdw_vol>
937.32849

>  <vsa_acc>
38.498993

>  <vsa_acid>
0

>  <vsa_base>
0

>  <vsa_don>
11.365152

>  <vsa_hyd>
452.32672

>  <vsa_other>
77.240608

>  <vsa_pol>
104.13183

>  <Weight>
704.77997

>  <weinerPath>
9300

>  <weinerPol>
100

>  <zagreb>
286

$$$$