S=C1N(O)C=CC=C1
  MOE2013           2D

  8  8  0  0  0  0  0  0  0  0999 V2000
    0.0000    0.0000    0.0000 S   0  0  0  0  0  0  0  0  0  0  0  0
    1.2990   -0.7500    0.0000 C   0  0  0  0  0  0  0  0  0  0  0  0
    1.2990   -2.2500    0.0000 N   0  0  0  0  0  0  0  0  0  0  0  0
    0.0000   -3.0000    0.0000 O   0  0  0  0  0  0  0  0  0  0  0  0
    2.5980   -3.0000    0.0000 C   0  0  0  0  0  0  0  0  0  0  0  0
    3.8970   -2.2500    0.0000 C   0  0  0  0  0  0  0  0  0  0  0  0
    3.8970   -0.7500    0.0000 C   0  0  0  0  0  0  0  0  0  0  0  0
    2.5980    0.0000    0.0000 C   0  0  0  0  0  0  0  0  0  0  0  0
  1  2  2  0  0  0  0
  2  3  1  0  0  0  0
  2  8  1  0  0  0  0
  3  4  1  0  0  0  0
  3  5  1  0  0  0  0
  5  6  2  0  0  0  0
  6  7  1  0  0  0  0
  7  8  2  0  0  0  0
M  END
>  <Index>
1212

>  <ID>
HT2528

>  <class>
0

>  <apol>
16.935965

>  <ast_fraglike>
1

>  <ast_fraglike_ext>
1

>  <ast_violation>
0

>  <ast_violation_ext>
0

>  <a_acc>
2

>  <a_acid>
0

>  <a_aro>
0

>  <a_base>
0

>  <a_count>
13

>  <a_don>
1

>  <a_donacc>
3

>  <a_heavy>
8

>  <a_hyd>
4

>  <a_IC>
24.886435

>  <a_ICM>
1.9143412

>  <a_nB>
0

>  <a_nBr>
0

>  <a_nC>
5

>  <a_nCl>
0

>  <a_nF>
0

>  <a_nH>
5

>  <a_nI>
0

>  <a_nN>
1

>  <a_nO>
1

>  <a_nP>
0

>  <a_nS>
1

>  <balabanJ>
2.3410351

>  <BCUT_PEOE_0>
-2.3102057

>  <BCUT_PEOE_1>
-0.53565603

>  <BCUT_PEOE_2>
0.62491053

>  <BCUT_PEOE_3>
2.1971064

>  <BCUT_SLOGP_0>
-2.3314462

>  <BCUT_SLOGP_1>
-0.44877738

>  <BCUT_SLOGP_2>
0.8432458

>  <BCUT_SLOGP_3>
2.2630031

>  <BCUT_SMR_0>
-1.958125

>  <BCUT_SMR_1>
-0.39175442

>  <BCUT_SMR_2>
0.95288885

>  <BCUT_SMR_3>
2.5649574

>  <bpol>
7.2660351

>  <b_1rotN>
0

>  <b_1rotR>
0

>  <b_ar>
0

>  <b_count>
13

>  <b_double>
3

>  <b_heavy>
8

>  <b_max1len>
2

>  <b_rotN>
0

>  <b_rotR>
0

>  <b_single>
10

>  <b_triple>
0

>  <chi0>
5.9831276

>  <chi0v>
4.9285731

>  <chi0v_C>
2.809401

>  <chi0_C>
3.4057775

>  <chi1>
3.8045304

>  <chi1v>
2.5828533

>  <chi1v_C>
1.2886752

>  <chi1_C>
1.9082483

>  <chiral>
0

>  <chiral_u>
0

>  <density>
0.8467021

>  <diameter>
4

>  <FCharge>
0

>  <GCUT_PEOE_0>
-0.8149814

>  <GCUT_PEOE_1>
-0.36425394

>  <GCUT_PEOE_2>
0.098001152

>  <GCUT_PEOE_3>
1.8351735

>  <GCUT_SLOGP_0>
-0.92665058

>  <GCUT_SLOGP_1>
-0.26817629

>  <GCUT_SLOGP_2>
0.25983077

>  <GCUT_SLOGP_3>
1.9288627

>  <GCUT_SMR_0>
-0.48524582

>  <GCUT_SMR_1>
-0.17972894

>  <GCUT_SMR_2>
0.3296206

>  <GCUT_SMR_3>
2.185477

>  <Kier1>
6.125

>  <Kier2>
2.52

>  <Kier3>
1.4876033

>  <KierA1>
5.0169683

>  <KierA2>
1.9969327

>  <KierA3>
1.1448882

>  <KierFlex>
1.2523185

>  <lip_acc>
2

>  <lip_don>
1

>  <lip_druglike>
1

>  <lip_violation>
0

>  <logP(o/w)>
0.235

>  <logS>
-1.72869

>  <mr>
3.4147117

>  <mutagenic>
1

>  <nmol>
1

>  <opr_brigid>
6

>  <opr_leadlike>
1

>  <opr_nring>
1

>  <opr_nrot>
0

>  <opr_violation>
0

>  <PC+>
0

>  <PC->
0

>  <PEOE_PC+>
0.62443548

>  <PEOE_PC->
-0.62443548

>  <PEOE_RPC+>
0.38017699

>  <PEOE_RPC->
0.48719388

>  <PEOE_VSA+0>
16.745916

>  <PEOE_VSA+1>
17.061544

>  <PEOE_VSA+2>
31.384512

>  <PEOE_VSA+3>
0

>  <PEOE_VSA+4>
10.324173

>  <PEOE_VSA+5>
0

>  <PEOE_VSA+6>
0

>  <PEOE_VSA-0>
20.930517

>  <PEOE_VSA-1>
24.509808

>  <PEOE_VSA-2>
0

>  <PEOE_VSA-3>
0

>  <PEOE_VSA-4>
0

>  <PEOE_VSA-5>
0

>  <PEOE_VSA-6>
11.166143

>  <PEOE_VSA_FHYD>
0.83734566

>  <PEOE_VSA_FNEG>
0.4284389

>  <PEOE_VSA_FPNEG>
0.084513493

>  <PEOE_VSA_FPOL>
0.16265434

>  <PEOE_VSA_FPOS>
0.5715611

>  <PEOE_VSA_FPPOS>
0.078140847

>  <PEOE_VSA_HYD>
110.63229

>  <PEOE_VSA_NEG>
56.606468

>  <PEOE_VSA_PNEG>
11.166143

>  <PEOE_VSA_POL>
21.490316

>  <PEOE_VSA_POS>
75.516144

>  <PEOE_VSA_PPOS>
10.324173

>  <petitjean>
0.25

>  <petitjeanSC>
0.33333334

>  <Q_PC+>
0

>  <Q_PC->
0

>  <Q_RPC+>
0

>  <Q_RPC->
0

>  <Q_VSA_FHYD>
1

>  <Q_VSA_FNEG>
0

>  <Q_VSA_FPNEG>
0

>  <Q_VSA_FPOL>
0

>  <Q_VSA_FPOS>
1

>  <Q_VSA_FPPOS>
0

>  <Q_VSA_HYD>
132.1226

>  <Q_VSA_NEG>
0

>  <Q_VSA_PNEG>
0

>  <Q_VSA_POL>
0

>  <Q_VSA_POS>
132.1226

>  <Q_VSA_PPOS>
0

>  <radius>
3

>  <reactive>
0

>  <rings>
1

>  <RPC+>
0

>  <RPC->
0

>  <rsynth>
1

>  <SlogP>
1.0885

>  <SlogP_VSA0>
0

>  <SlogP_VSA1>
6.4519949

>  <SlogP_VSA2>
25.604103

>  <SlogP_VSA3>
0

>  <SlogP_VSA4>
0

>  <SlogP_VSA5>
0

>  <SlogP_VSA6>
0

>  <SlogP_VSA7>
70.143913

>  <SlogP_VSA8>
0

>  <SlogP_VSA9>
45.192028

>  <SMR>
3.5346799

>  <SMR_VSA0>
0

>  <SMR_VSA1>
5.7386465

>  <SMR_VSA2>
25.604103

>  <SMR_VSA3>
0

>  <SMR_VSA4>
0

>  <SMR_VSA5>
70.143913

>  <SMR_VSA6>
0.71334887

>  <SMR_VSA7>
45.192028

>  <TPSA>
55.560001

>  <VAdjEq>
0.8112781

>  <VAdjMa>
4

>  <VDistEq>
1.8352377

>  <VDistMa>
5.6729054

>  <vdw_area>
132.1226

>  <vdw_vol>
150.19096

>  <vsa_acc>
31.384512

>  <vsa_acid>
0

>  <vsa_base>
0

>  <vsa_don>
0

>  <vsa_hyd>
67.724991

>  <vsa_other>
8.6756124

>  <vsa_pol>
48.350037

>  <Weight>
127.167

>  <weinerPath>
60

>  <weinerPol>
8

>  <zagreb>
36

$$$$