Clc1ccc(cc1)C(CC(O)=O)CN
  MOE2013           2D

 14 14  0  0  1  0  0  0  0  0999 V2000
    0.0000    0.0000    0.0000 Cl  0  0  0  0  0  0  0  0  0  0  0  0
   -1.5000   -0.0070    0.0000 C   0  0  0  0  0  0  0  0  0  0  0  0
   -2.2560    1.2890    0.0000 C   0  0  0  0  0  0  0  0  0  0  0  0
   -3.7560    1.2820    0.0000 C   0  0  0  0  0  0  0  0  0  0  0  0
   -4.5000   -0.0200    0.0000 C   0  0  0  0  0  0  0  0  0  0  0  0
   -3.7440   -1.3160    0.0000 C   0  0  0  0  0  0  0  0  0  0  0  0
   -2.2440   -1.3090    0.0000 C   0  0  0  0  0  0  0  0  0  0  0  0
   -6.0000   -0.0270    0.0000 C   0  0  3  0  0  0  0  0  0  0  0  0
   -6.7560    1.2690    0.0000 C   0  0  0  0  0  0  0  0  0  0  0  0
   -8.2560    1.2620    0.0000 C   0  0  0  0  0  0  0  0  0  0  0  0
   -9.0000   -0.0400    0.0000 O   0  0  0  0  0  0  0  0  0  0  0  0
   -9.0110    2.5580    0.0000 O   0  0  0  0  0  0  0  0  0  0  0  0
   -6.7440   -1.3290    0.0000 C   0  0  0  0  0  0  0  0  0  0  0  0
   -5.9880   -2.6250    0.0000 N   0  0  0  0  0  0  0  0  0  0  0  0
  1  2  1  0  0  0  0
  2  3  1  0  0  0  0
  2  7  2  0  0  0  0
  3  4  2  0  0  0  0
  4  5  1  0  0  0  0
  5  6  2  0  0  0  0
  5  8  1  0  0  0  0
  6  7  1  0  0  0  0
  8  9  1  0  0  0  0
  8 13  1  0  0  0  0
  9 10  1  0  0  0  0
 10 11  1  0  0  0  0
 10 12  2  0  0  0  0
 13 14  1  0  0  0  0
M  END
>  <Index>
107

>  <ID>
HT0223

>  <class>
0

>  <apol>
30.485516

>  <ast_fraglike>
1

>  <ast_fraglike_ext>
0

>  <ast_violation>
0

>  <ast_violation_ext>
1

>  <a_acc>
3

>  <a_acid>
0

>  <a_aro>
6

>  <a_base>
0

>  <a_count>
26

>  <a_don>
3

>  <a_donacc>
6

>  <a_heavy>
14

>  <a_hyd>
10

>  <a_IC>
43.972603

>  <a_ICM>
1.6912539

>  <a_nB>
0

>  <a_nBr>
0

>  <a_nC>
10

>  <a_nCl>
1

>  <a_nF>
0

>  <a_nH>
12

>  <a_nI>
0

>  <a_nN>
1

>  <a_nO>
2

>  <a_nP>
0

>  <a_nS>
0

>  <balabanJ>
2.3826396

>  <BCUT_PEOE_0>
-2.5687227

>  <BCUT_PEOE_1>
-0.6105957

>  <BCUT_PEOE_2>
0.6479767

>  <BCUT_PEOE_3>
2.568614

>  <BCUT_SLOGP_0>
-2.6849241

>  <BCUT_SLOGP_1>
-0.51507884

>  <BCUT_SLOGP_2>
0.79459286

>  <BCUT_SLOGP_3>
2.5965281

>  <BCUT_SMR_0>
-2.313715

>  <BCUT_SMR_1>
-0.43417627

>  <BCUT_SMR_2>
0.83785635

>  <BCUT_SMR_3>
2.8184576

>  <bpol>
13.836484

>  <b_1rotN>
4

>  <b_1rotR>
0.2857143

>  <b_ar>
6

>  <b_count>
26

>  <b_double>
1

>  <b_heavy>
14

>  <b_max1len>
5

>  <b_rotN>
4

>  <b_rotR>
0.2857143

>  <b_single>
19

>  <b_triple>
0

>  <chi0>
10.552042

>  <chi0v>
8.3676701

>  <chi0v_C>
5.8009648

>  <chi0_C>
6.5520415

>  <chi1>
6.630229

>  <chi1v>
4.6830182

>  <chi1v_C>
3.2800922

>  <chi1_C>
4.1910715

>  <chiral>
1

>  <chiral_u>
1

>  <density>
0.80049461

>  <diameter>
8

>  <FCharge>
0

>  <GCUT_PEOE_0>
-0.837726

>  <GCUT_PEOE_1>
-0.40868968

>  <GCUT_PEOE_2>
0.079792142

>  <GCUT_PEOE_3>
2.3631639

>  <GCUT_SLOGP_0>
-1.363379

>  <GCUT_SLOGP_1>
-0.29863217

>  <GCUT_SLOGP_2>
0.18349767

>  <GCUT_SLOGP_3>
2.4446084

>  <GCUT_SMR_0>
-0.50931287

>  <GCUT_SMR_1>
-0.22584298

>  <GCUT_SMR_2>
0.2234975

>  <GCUT_SMR_3>
2.6273737

>  <Kier1>
12.071428

>  <Kier2>
5.7777777

>  <Kier3>
3.96

>  <KierA1>
10.452465

>  <KierA2>
4.9431224

>  <KierA3>
3.3568754

>  <KierFlex>
3.690558

>  <lip_acc>
3

>  <lip_don>
3

>  <lip_druglike>
1

>  <lip_violation>
0

>  <logP(o/w)>
1.2920001

>  <logS>
-1.59788

>  <mr>
5.6624436

>  <mutagenic>
0

>  <nmol>
1

>  <opr_brigid>
6

>  <opr_leadlike>
1

>  <opr_nring>
1

>  <opr_nrot>
4

>  <opr_violation>
0

>  <PC+>
0

>  <PC->
0

>  <PEOE_PC+>
1.2518537

>  <PEOE_PC->
-1.2518537

>  <PEOE_RPC+>
0.20786019

>  <PEOE_RPC->
0.26460966

>  <PEOE_VSA+0>
47.740314

>  <PEOE_VSA+1>
17.061544

>  <PEOE_VSA+2>
17.238026

>  <PEOE_VSA+3>
0

>  <PEOE_VSA+4>
10.324173

>  <PEOE_VSA+5>
14.708499

>  <PEOE_VSA+6>
0

>  <PEOE_VSA-0>
26.718348

>  <PEOE_VSA-1>
54.091755

>  <PEOE_VSA-2>
0

>  <PEOE_VSA-3>
0

>  <PEOE_VSA-4>
0

>  <PEOE_VSA-5>
13.566921

>  <PEOE_VSA-6>
14.418659

>  <PEOE_VSA_FHYD>
0.75439531

>  <PEOE_VSA_FNEG>
0.50399113

>  <PEOE_VSA_FPNEG>
0.12964195

>  <PEOE_VSA_FPOL>
0.24560469

>  <PEOE_VSA_FPOS>
0.49600884

>  <PEOE_VSA_FPPOS>
0.11596274

>  <PEOE_VSA_HYD>
162.84999

>  <PEOE_VSA_NEG>
108.79568

>  <PEOE_VSA_PNEG>
27.98558

>  <PEOE_VSA_POL>
53.018253

>  <PEOE_VSA_POS>
107.07256

>  <PEOE_VSA_PPOS>
25.032671

>  <petitjean>
0.5

>  <petitjeanSC>
1

>  <Q_PC+>
0

>  <Q_PC->
0

>  <Q_RPC+>
0

>  <Q_RPC->
0

>  <Q_VSA_FHYD>
1

>  <Q_VSA_FNEG>
0

>  <Q_VSA_FPNEG>
0

>  <Q_VSA_FPOL>
0

>  <Q_VSA_FPOS>
1

>  <Q_VSA_FPPOS>
0

>  <Q_VSA_HYD>
215.86824

>  <Q_VSA_NEG>
0

>  <Q_VSA_PNEG>
0

>  <Q_VSA_POL>
0

>  <Q_VSA_POS>
215.86824

>  <Q_VSA_PPOS>
0

>  <radius>
4

>  <reactive>
0

>  <rings>
1

>  <RPC+>
0

>  <RPC->
0

>  <rsynth>
1

>  <SlogP>
1.857

>  <SlogP_VSA0>
32.897186

>  <SlogP_VSA1>
7.7454643

>  <SlogP_VSA2>
23.862217

>  <SlogP_VSA3>
43.824806

>  <SlogP_VSA4>
3.185575

>  <SlogP_VSA5>
0

>  <SlogP_VSA6>
7.9114027

>  <SlogP_VSA7>
70.572739

>  <SlogP_VSA8>
18.868406

>  <SlogP_VSA9>
39.148643

>  <SMR>
5.5500202

>  <SMR_VSA0>
23.862217

>  <SMR_VSA1>
0

>  <SMR_VSA2>
25.385227

>  <SMR_VSA3>
11.096977

>  <SMR_VSA4>
32.897186

>  <SMR_VSA5>
89.441139

>  <SMR_VSA6>
26.185041

>  <SMR_VSA7>
39.148643

>  <TPSA>
63.32

>  <VAdjEq>
0.59167278

>  <VAdjMa>
4.8073549

>  <VDistEq>
2.7873819

>  <VDistMa>
7.305202

>  <vdw_area>
215.86824

>  <vdw_vol>
266.91498

>  <vsa_acc>
0

>  <vsa_acid>
0

>  <vsa_base>
0

>  <vsa_don>
0

>  <vsa_hyd>
137.86075

>  <vsa_other>
14.708499

>  <vsa_pol>
44.876331

>  <Weight>
213.664

>  <weinerPath>
318

>  <weinerPol>
17

>  <zagreb>
64

$$$$