S1c2c(N(c3c1cccc3)CCCN1CCC(CC1)CCO)cc(cc2)C(=O)C
  MOE2013           2D

 29 32  0  0  1  0  0  0  0  0999 V2000
    0.0000    0.0000    0.0000 S   0  0  0  0  0  0  0  0  0  0  0  0
   -0.7420   -1.3040    0.0000 C   0  0  0  0  0  0  0  0  0  0  0  0
    0.0160   -2.5980    0.0000 C   0  0  0  0  0  0  0  0  0  0  0  0
    1.5160   -2.5890    0.0000 N   0  0  3  0  0  0  0  0  0  0  0  0
    2.2580   -1.2850    0.0000 C   0  0  0  0  0  0  0  0  0  0  0  0
    1.5000    0.0090    0.0000 C   0  0  0  0  0  0  0  0  0  0  0  0
    2.2420    1.3130    0.0000 C   0  0  0  0  0  0  0  0  0  0  0  0
    3.7420    1.3220    0.0000 C   0  0  0  0  0  0  0  0  0  0  0  0
    4.5000    0.0280    0.0000 C   0  0  0  0  0  0  0  0  0  0  0  0
    3.7580   -1.2760    0.0000 C   0  0  0  0  0  0  0  0  0  0  0  0
    2.2740   -3.8830    0.0000 C   0  0  0  0  0  0  0  0  0  0  0  0
    3.7740   -3.8740    0.0000 C   0  0  0  0  0  0  0  0  0  0  0  0
    4.5320   -5.1680    0.0000 C   0  0  0  0  0  0  0  0  0  0  0  0
    6.0320   -5.1590    0.0000 N   0  0  0  0  0  0  0  0  0  0  0  0
    6.7740   -3.8550    0.0000 C   0  0  0  0  0  0  0  0  0  0  0  0
    8.2740   -3.8460    0.0000 C   0  0  0  0  0  0  0  0  0  0  0  0
    9.0320   -5.1400    0.0000 C   0  0  0  0  0  0  0  0  0  0  0  0
    8.2900   -6.4440    0.0000 C   0  0  0  0  0  0  0  0  0  0  0  0
    6.7900   -6.4530    0.0000 C   0  0  0  0  0  0  0  0  0  0  0  0
   10.5320   -5.1310    0.0000 C   0  0  0  0  0  0  0  0  0  0  0  0
   11.2900   -6.4250    0.0000 C   0  0  0  0  0  0  0  0  0  0  0  0
   12.7900   -6.4160    0.0000 O   0  0  0  0  0  0  0  0  0  0  0  0
   -0.7260   -3.9020    0.0000 C   0  0  0  0  0  0  0  0  0  0  0  0
   -2.2260   -3.9110    0.0000 C   0  0  0  0  0  0  0  0  0  0  0  0
   -2.9840   -2.6170    0.0000 C   0  0  0  0  0  0  0  0  0  0  0  0
   -2.2420   -1.3130    0.0000 C   0  0  0  0  0  0  0  0  0  0  0  0
   -2.9680   -5.2150    0.0000 C   0  0  0  0  0  0  0  0  0  0  0  0
   -4.4680   -5.2240    0.0000 O   0  0  0  0  0  0  0  0  0  0  0  0
   -2.2100   -6.5090    0.0000 C   0  0  0  0  0  0  0  0  0  0  0  0
  1  2  1  0  0  0  0
  1  6  1  0  0  0  0
  2  3  1  0  0  0  0
  2 26  2  0  0  0  0
  3  4  1  0  0  0  0
  3 23  2  0  0  0  0
  4  5  1  0  0  0  0
  4 11  1  0  0  0  0
  5  6  1  0  0  0  0
  5 10  2  0  0  0  0
  6  7  2  0  0  0  0
  7  8  1  0  0  0  0
  8  9  2  0  0  0  0
  9 10  1  0  0  0  0
 11 12  1  0  0  0  0
 12 13  1  0  0  0  0
 13 14  1  0  0  0  0
 14 15  1  0  0  0  0
 14 19  1  0  0  0  0
 15 16  1  0  0  0  0
 16 17  1  0  0  0  0
 17 18  1  0  0  0  0
 17 20  1  0  0  0  0
 18 19  1  0  0  0  0
 20 21  1  0  0  0  0
 21 22  1  0  0  0  0
 23 24  1  0  0  0  0
 24 25  2  0  0  0  0
 24 27  1  0  0  0  0
 25 26  1  0  0  0  0
 27 28  2  0  0  0  0
 27 29  1  0  0  0  0
M  END
>  <Index>
1377

>  <ID>
HT3785

>  <class>
0

>  <apol>
68.947792

>  <ast_fraglike>
0

>  <ast_fraglike_ext>
0

>  <ast_violation>
2

>  <ast_violation_ext>
3

>  <a_acc>
3

>  <a_acid>
0

>  <a_aro>
12

>  <a_base>
0

>  <a_count>
59

>  <a_don>
1

>  <a_donacc>
4

>  <a_heavy>
29

>  <a_hyd>
24

>  <a_IC>
85.830124

>  <a_ICM>
1.4547478

>  <a_nB>
0

>  <a_nBr>
0

>  <a_nC>
24

>  <a_nCl>
0

>  <a_nF>
0

>  <a_nH>
30

>  <a_nI>
0

>  <a_nN>
2

>  <a_nO>
2

>  <a_nP>
0

>  <a_nS>
1

>  <balabanJ>
1.3273447

>  <BCUT_PEOE_0>
-2.8269076

>  <BCUT_PEOE_1>
-0.62679642

>  <BCUT_PEOE_2>
0.6384567

>  <BCUT_PEOE_3>
2.7495902

>  <BCUT_SLOGP_0>
-2.8323798

>  <BCUT_SLOGP_1>
-0.49479252

>  <BCUT_SLOGP_2>
0.68240368

>  <BCUT_SLOGP_3>
2.7890742

>  <BCUT_SMR_0>
-2.5605395

>  <BCUT_SMR_1>
-0.44322929

>  <BCUT_SMR_2>
0.8173573

>  <BCUT_SMR_3>
3.0110879

>  <bpol>
39.994209

>  <b_1rotN>
7

>  <b_1rotR>
0.21875

>  <b_ar>
12

>  <b_count>
62

>  <b_double>
1

>  <b_heavy>
32

>  <b_max1len>
5

>  <b_rotN>
7

>  <b_rotR>
0.21875

>  <b_single>
49

>  <b_triple>
0

>  <chi0>
20.216969

>  <chi0v>
17.957397

>  <chi0v_C>
14.982763

>  <chi0_C>
16.35516

>  <chi1>
14.152199

>  <chi1v>
11.497351

>  <chi1v_C>
8.0401287

>  <chi1_C>
9.751585

>  <chiral>
0

>  <chiral_u>
0

>  <density>
0.71146774

>  <diameter>
15

>  <FCharge>
0

>  <GCUT_PEOE_0>
-0.85819793

>  <GCUT_PEOE_1>
-0.39913273

>  <GCUT_PEOE_2>
0.060886633

>  <GCUT_PEOE_3>
2.8707156

>  <GCUT_SLOGP_0>
-0.95375991

>  <GCUT_SLOGP_1>
-0.29156309

>  <GCUT_SLOGP_2>
0.14382258

>  <GCUT_SLOGP_3>
2.9604254

>  <GCUT_SMR_0>
-0.532134

>  <GCUT_SMR_1>
-0.20287961

>  <GCUT_SMR_2>
0.18781535

>  <GCUT_SMR_3>
3.1401312

>  <Kier1>
22.203125

>  <Kier2>
10.543388

>  <Kier3>
5.4375181

>  <KierA1>
18.796049

>  <KierA2>
8.8696499

>  <KierA3>
4.5532117

>  <KierFlex>
5.7487717

>  <lip_acc>
4

>  <lip_don>
1

>  <lip_druglike>
1

>  <lip_violation>
0

>  <logP(o/w)>
4.4520001

>  <logS>
-4.7800698

>  <mr>
12.037643

>  <mutagenic>
0

>  <nmol>
1

>  <opr_brigid>
22

>  <opr_leadlike>
1

>  <opr_nring>
4

>  <opr_nrot>
9

>  <opr_violation>
1

>  <PC+>
0

>  <PC->
0

>  <PEOE_PC+>
1.8232512

>  <PEOE_PC->
-1.8232512

>  <PEOE_RPC+>
0.11484724

>  <PEOE_RPC->
0.21664453

>  <PEOE_VSA+0>
150.62051

>  <PEOE_VSA+1>
38.388474

>  <PEOE_VSA+2>
0

>  <PEOE_VSA+3>
8.458519

>  <PEOE_VSA+4>
10.324173

>  <PEOE_VSA+5>
0

>  <PEOE_VSA+6>
0

>  <PEOE_VSA-0>
128.9572

>  <PEOE_VSA-1>
56.52533

>  <PEOE_VSA-2>
0

>  <PEOE_VSA-3>
0

>  <PEOE_VSA-4>
0

>  <PEOE_VSA-5>
13.566921

>  <PEOE_VSA-6>
7.7675405

>  <PEOE_VSA_FHYD>
0.92364216

>  <PEOE_VSA_FNEG>
0.49882457

>  <PEOE_VSA_FPNEG>
0.051456865

>  <PEOE_VSA_FPOL>
0.076357871

>  <PEOE_VSA_FPOS>
0.5011754

>  <PEOE_VSA_FPPOS>
0.024901006

>  <PEOE_VSA_HYD>
382.95001

>  <PEOE_VSA_NEG>
206.81699

>  <PEOE_VSA_PNEG>
21.334461

>  <PEOE_VSA_POL>
31.658634

>  <PEOE_VSA_POS>
207.79167

>  <PEOE_VSA_PPOS>
10.324173

>  <petitjean>
0.46666667

>  <petitjeanSC>
0.875

>  <Q_PC+>
0

>  <Q_PC->
0

>  <Q_RPC+>
0

>  <Q_RPC->
0

>  <Q_VSA_FHYD>
1

>  <Q_VSA_FNEG>
0

>  <Q_VSA_FPNEG>
0

>  <Q_VSA_FPOL>
0

>  <Q_VSA_FPOS>
1

>  <Q_VSA_FPPOS>
0

>  <Q_VSA_HYD>
414.60867

>  <Q_VSA_NEG>
0

>  <Q_VSA_PNEG>
0

>  <Q_VSA_POL>
0

>  <Q_VSA_POS>
414.60867

>  <Q_VSA_PPOS>
0

>  <radius>
8

>  <reactive>
1

>  <rings>
4

>  <RPC+>
0

>  <RPC->
0

>  <rsynth>
0.58620691

>  <SlogP>
4.9763999

>  <SlogP_VSA0>
28.509541

>  <SlogP_VSA1>
8.8119249

>  <SlogP_VSA2>
0

>  <SlogP_VSA3>
94.68457

>  <SlogP_VSA4>
31.458588

>  <SlogP_VSA5>
3.1014678

>  <SlogP_VSA6>
0

>  <SlogP_VSA7>
123.50229

>  <SlogP_VSA8>
75.473625

>  <SlogP_VSA9>
71.059052

>  <SMR>
11.95023

>  <SMR_VSA0>
23.862217

>  <SMR_VSA1>
28.509541

>  <SMR_VSA2>
10.636578

>  <SMR_VSA3>
3.185575

>  <SMR_VSA4>
5.513495

>  <SMR_VSA5>
198.97591

>  <SMR_VSA6>
100.37218

>  <SMR_VSA7>
65.545555

>  <TPSA>
43.779999

>  <VAdjEq>
0.38828552

>  <VAdjMa>
6

>  <VDistEq>
3.6718662

>  <VDistMa>
9.413065

>  <vdw_area>
414.60867

>  <vdw_vol>
577.09149

>  <vsa_acc>
13.566921

>  <vsa_acid>
0

>  <vsa_base>
0

>  <vsa_don>
0

>  <vsa_hyd>
352.50439

>  <vsa_other>
8.458519

>  <vsa_pol>
27.133842

>  <Weight>
410.582

>  <weinerPath>
2410

>  <weinerPol>
47

>  <zagreb>
152

$$$$