FC12C(C3CC(C)C(CC(=O)CO)C3(CC1O)C)CCC1=CC(=O)C=CC12C
  MOE2013           2D

 28 31  0  0  1  0  0  0  0  0999 V2000
    0.0000    0.0000    0.0000 F   0  0  0  0  0  0  0  0  0  0  0  0
   -1.5000   -0.0100    0.0000 C   0  0  3  0  0  0  0  0  0  0  0  0
   -0.7410   -1.3040    0.0000 C   0  0  3  0  0  0  0  0  0  0  0  0
    0.7590   -1.2940    0.0000 C   0  0  3  0  0  0  0  0  0  0  0  0
    1.7700   -2.4010    0.0000 C   0  0  0  0  0  0  0  0  0  0  0  0
    3.1360   -1.7820    0.0000 C   0  0  3  0  0  0  0  0  0  0  0  0
    4.4410   -2.5230    0.0000 C   0  0  0  0  0  0  0  0  0  0  0  0
    2.9690   -0.2910    0.0000 C   0  0  3  0  0  0  0  0  0  0  0  0
    4.0770    0.7200    0.0000 C   0  0  0  0  0  0  0  0  0  0  0  0
    5.5070    0.2670    0.0000 C   0  0  0  0  0  0  0  0  0  0  0  0
    5.8290   -1.1980    0.0000 O   0  0  0  0  0  0  0  0  0  0  0  0
    6.6150    1.2780    0.0000 C   0  0  0  0  0  0  0  0  0  0  0  0
    8.0440    0.8240    0.0000 O   0  0  0  0  0  0  0  0  0  0  0  0
    1.5000    0.0100    0.0000 C   0  0  3  0  0  0  0  0  0  0  0  0
    0.7410    1.3040    0.0000 C   0  0  0  0  0  0  0  0  0  0  0  0
   -0.7590    1.2940    0.0000 C   0  0  3  0  0  0  0  0  0  0  0  0
   -1.5180    2.5880    0.0000 O   0  0  0  0  0  0  0  0  0  0  0  0
    2.3520    1.2450    0.0000 C   0  0  0  0  0  0  0  0  0  0  0  0
   -1.4820   -2.6080    0.0000 C   0  0  0  0  0  0  0  0  0  0  0  0
   -2.9820   -2.6190    0.0000 C   0  0  0  0  0  0  0  0  0  0  0  0
   -3.7410   -1.3250    0.0000 C   0  0  0  0  0  0  0  0  0  0  0  0
   -5.2410   -1.3360    0.0000 C   0  0  0  0  0  0  0  0  0  0  0  0
   -6.0000   -0.0420    0.0000 C   0  0  0  0  0  0  0  0  0  0  0  0
   -7.5000   -0.0520    0.0000 O   0  0  0  0  0  0  0  0  0  0  0  0
   -5.2590    1.2620    0.0000 C   0  0  0  0  0  0  0  0  0  0  0  0
   -3.7590    1.2730    0.0000 C   0  0  0  0  0  0  0  0  0  0  0  0
   -3.0000   -0.0210    0.0000 C   0  0  3  0  0  0  0  0  0  0  0  0
   -2.2590    1.2830    0.0000 C   0  0  0  0  0  0  0  0  0  0  0  0
  1  2  1  0  0  0  0
  2  3  1  0  0  0  0
  2 16  1  0  0  0  0
  2 27  1  0  0  0  0
  3  4  1  0  0  0  0
  3 19  1  0  0  0  0
  4  5  1  0  0  0  0
  4 14  1  0  0  0  0
  5  6  1  0  0  0  0
  6  7  1  0  0  0  0
  6  8  1  0  0  0  0
  8  9  1  0  0  0  0
  8 14  1  0  0  0  0
  9 10  1  0  0  0  0
 10 11  2  0  0  0  0
 10 12  1  0  0  0  0
 12 13  1  0  0  0  0
 14 15  1  0  0  0  0
 14 18  1  0  0  0  0
 15 16  1  0  0  0  0
 16 17  1  0  0  0  0
 19 20  1  0  0  0  0
 20 21  1  0  0  0  0
 21 22  2  0  0  0  0
 21 27  1  0  0  0  0
 22 23  1  0  0  0  0
 23 24  2  0  0  0  0
 23 25  1  0  0  0  0
 25 26  2  0  0  0  0
 26 27  1  0  0  0  0
 27 28  1  0  0  0  0
M  END
>  <Index>
1368

>  <ID>
HT3737

>  <class>
0

>  <apol>
64.915581

>  <ast_fraglike>
0

>  <ast_fraglike_ext>
0

>  <ast_violation>
3

>  <ast_violation_ext>
3

>  <a_acc>
4

>  <a_acid>
0

>  <a_aro>
0

>  <a_base>
0

>  <a_count>
59

>  <a_don>
2

>  <a_donacc>
6

>  <a_heavy>
28

>  <a_hyd>
22

>  <a_IC>
81.453926

>  <a_ICM>
1.3805751

>  <a_nB>
0

>  <a_nBr>
0

>  <a_nC>
23

>  <a_nCl>
0

>  <a_nF>
1

>  <a_nH>
31

>  <a_nI>
0

>  <a_nN>
0

>  <a_nO>
4

>  <a_nP>
0

>  <a_nS>
0

>  <balabanJ>
1.6860809

>  <BCUT_PEOE_0>
-2.9065125

>  <BCUT_PEOE_1>
-0.51948875

>  <BCUT_PEOE_2>
0.47807786

>  <BCUT_PEOE_3>
2.9878693

>  <BCUT_SLOGP_0>
-2.912792

>  <BCUT_SLOGP_1>
-0.4570035

>  <BCUT_SLOGP_2>
0.508766

>  <BCUT_SLOGP_3>
3.0237482

>  <BCUT_SMR_0>
-2.6745648

>  <BCUT_SMR_1>
-0.35057086

>  <BCUT_SMR_2>
0.63095909

>  <BCUT_SMR_3>
3.2255168

>  <bpol>
37.008415

>  <b_1rotN>
3

>  <b_1rotR>
0.096774191

>  <b_ar>
0

>  <b_count>
62

>  <b_double>
4

>  <b_heavy>
31

>  <b_max1len>
6

>  <b_rotN>
3

>  <b_rotR>
0.096774191

>  <b_single>
58

>  <b_triple>
0

>  <chi0>
20.482763

>  <chi0v>
16.950331

>  <chi0v_C>
14.861443

>  <chi0_C>
15.482763

>  <chi1>
13.074389

>  <chi1v>
10.513864

>  <chi1v_C>
9.342206

>  <chi1_C>
10.135231

>  <chiral>
8

>  <chiral_u>
8

>  <density>
0.73550105

>  <diameter>
13

>  <FCharge>
0

>  <GCUT_PEOE_0>
-0.80056512

>  <GCUT_PEOE_1>
-0.39781073

>  <GCUT_PEOE_2>
0.019870652

>  <GCUT_PEOE_3>
3.3803427

>  <GCUT_SLOGP_0>
-0.91708934

>  <GCUT_SLOGP_1>
-0.31636259

>  <GCUT_SLOGP_2>
0.001322325

>  <GCUT_SLOGP_3>
3.432528

>  <GCUT_SMR_0>
-0.53983945

>  <GCUT_SMR_1>
-0.22482373

>  <GCUT_SMR_2>
0.15123354

>  <GCUT_SMR_3>
3.6003866

>  <Kier1>
21.240376

>  <Kier2>
7.0173011

>  <Kier3>
2.8503964

>  <KierA1>
18.608292

>  <KierA2>
6.1161819

>  <KierA3>
2.4752922

>  <KierFlex>
4.0647035

>  <lip_acc>
4

>  <lip_don>
2

>  <lip_druglike>
1

>  <lip_violation>
0

>  <logP(o/w)>
3.033

>  <logS>
-4.59372

>  <mr>
10.43645

>  <mutagenic>
0

>  <nmol>
1

>  <opr_brigid>
20

>  <opr_leadlike>
1

>  <opr_nring>
4

>  <opr_nrot>
3

>  <opr_violation>
0

>  <PC+>
0

>  <PC->
0

>  <PEOE_PC+>
2.1760316

>  <PEOE_PC->
-2.1760316

>  <PEOE_RPC+>
0.096491084

>  <PEOE_RPC->
0.17857364

>  <PEOE_VSA+0>
106.80519

>  <PEOE_VSA+1>
30.497244

>  <PEOE_VSA+2>
14.951293

>  <PEOE_VSA+3>
16.917038

>  <PEOE_VSA+4>
20.648346

>  <PEOE_VSA+5>
0

>  <PEOE_VSA+6>
0

>  <PEOE_VSA-0>
78.062737

>  <PEOE_VSA-1>
51.958797

>  <PEOE_VSA-2>
0

>  <PEOE_VSA-3>
0

>  <PEOE_VSA-4>
11.908636

>  <PEOE_VSA-5>
27.133842

>  <PEOE_VSA-6>
15.535081

>  <PEOE_VSA_FHYD>
0.79908586

>  <PEOE_VSA_FNEG>
0.49302915

>  <PEOE_VSA_FPNEG>
0.1457663

>  <PEOE_VSA_FPOL>
0.20091411

>  <PEOE_VSA_FPOS>
0.50697082

>  <PEOE_VSA_FPPOS>
0.055147812

>  <PEOE_VSA_HYD>
299.19229

>  <PEOE_VSA_NEG>
184.59909

>  <PEOE_VSA_PNEG>
54.577557

>  <PEOE_VSA_POL>
75.225906

>  <PEOE_VSA_POS>
189.81911

>  <PEOE_VSA_PPOS>
20.648346

>  <petitjean>
0.46153846

>  <petitjeanSC>
0.85714287

>  <Q_PC+>
0

>  <Q_PC->
0

>  <Q_RPC+>
0

>  <Q_RPC->
0

>  <Q_VSA_FHYD>
1

>  <Q_VSA_FNEG>
0

>  <Q_VSA_FPNEG>
0

>  <Q_VSA_FPOL>
0

>  <Q_VSA_FPOS>
1

>  <Q_VSA_FPPOS>
0

>  <Q_VSA_HYD>
374.41821

>  <Q_VSA_NEG>
0

>  <Q_VSA_PNEG>
0

>  <Q_VSA_POL>
0

>  <Q_VSA_POS>
374.41821

>  <Q_VSA_PPOS>
0

>  <radius>
7

>  <reactive>
1

>  <rings>
4

>  <RPC+>
0

>  <RPC->
0

>  <rsynth>
0.32142857

>  <SlogP>
3.1709001

>  <SlogP_VSA0>
50.770454

>  <SlogP_VSA1>
11.375222

>  <SlogP_VSA2>
54.193081

>  <SlogP_VSA3>
20.926258

>  <SlogP_VSA4>
17.643185

>  <SlogP_VSA5>
3.185575

>  <SlogP_VSA6>
0

>  <SlogP_VSA7>
52.929554

>  <SlogP_VSA8>
94.342026

>  <SlogP_VSA9>
114.93816

>  <SMR>
10.31016

>  <SMR_VSA0>
47.724434

>  <SMR_VSA1>
65.730568

>  <SMR_VSA2>
17.643185

>  <SMR_VSA3>
9.6542244

>  <SMR_VSA4>
0

>  <SMR_VSA5>
147.27158

>  <SMR_VSA6>
32.301479

>  <SMR_VSA7>
99.978043

>  <TPSA>
74.599998

>  <VAdjEq>
0.39893496

>  <VAdjMa>
5.9541965

>  <VDistEq>
3.2638538

>  <VDistMa>
9.3468599

>  <vdw_area>
374.41821

>  <vdw_vol>
530.92377

>  <vsa_acc>
27.133842

>  <vsa_acid>
0

>  <vsa_base>
0

>  <vsa_don>
0

>  <vsa_hyd>
268.16162

>  <vsa_other>
16.917038

>  <vsa_pol>
54.267685

>  <Weight>
390.495

>  <weinerPath>
1758

>  <weinerPol>
63

>  <zagreb>
164

$$$$