O(C)c1cc2c(cc1OC)CCNC2CC1CC2N(CC1CC)CCc1cc(OC)c(OC)cc12
  MOE2013           2D

 35 39  0  0  1  0  0  0  0  0999 V2000
    0.0000    0.0000    0.0000 O   0  0  0  0  0  0  0  0  0  0  0  0
   -0.7410    1.3040    0.0000 C   0  0  0  0  0  0  0  0  0  0  0  0
   -0.7590   -1.2940    0.0000 C   0  0  0  0  0  0  0  0  0  0  0  0
   -2.2590   -1.2830    0.0000 C   0  0  0  0  0  0  0  0  0  0  0  0
   -3.0180   -2.5770    0.0000 C   0  0  0  0  0  0  0  0  0  0  0  0
   -2.2770   -3.8810    0.0000 C   0  0  0  0  0  0  0  0  0  0  0  0
   -0.7770   -3.8920    0.0000 C   0  0  0  0  0  0  0  0  0  0  0  0
   -0.0180   -2.5980    0.0000 C   0  0  0  0  0  0  0  0  0  0  0  0
    1.4820   -2.6080    0.0000 O   0  0  0  0  0  0  0  0  0  0  0  0
    2.2230   -3.9130    0.0000 C   0  0  0  0  0  0  0  0  0  0  0  0
   -3.0360   -5.1750    0.0000 C   0  0  0  0  0  0  0  0  0  0  0  0
   -4.5360   -5.1650    0.0000 C   0  0  0  0  0  0  0  0  0  0  0  0
   -5.2770   -3.8600    0.0000 N   0  0  0  0  0  0  0  0  0  0  0  0
   -4.5180   -2.5670    0.0000 C   0  0  3  0  0  0  0  0  0  0  0  0
   -5.2590   -1.2620    0.0000 C   0  0  0  0  0  0  0  0  0  0  0  0
   -6.7590   -1.2520    0.0000 C   0  0  3  0  0  0  0  0  0  0  0  0
   -7.5180   -2.5460    0.0000 C   0  0  0  0  0  0  0  0  0  0  0  0
   -9.0180   -2.5350    0.0000 C   0  0  3  0  0  0  0  0  0  0  0  0
   -9.7590   -1.2310    0.0000 N   0  0  3  0  0  0  0  0  0  0  0  0
   -9.0000    0.0630    0.0000 C   0  0  0  0  0  0  0  0  0  0  0  0
   -7.5000    0.0520    0.0000 C   0  0  3  0  0  0  0  0  0  0  0  0
   -6.7410    1.3460    0.0000 C   0  0  0  0  0  0  0  0  0  0  0  0
   -7.4820    2.6500    0.0000 C   0  0  0  0  0  0  0  0  0  0  0  0
  -11.2590   -1.2200    0.0000 C   0  0  0  0  0  0  0  0  0  0  0  0
  -12.0180   -2.5140    0.0000 C   0  0  0  0  0  0  0  0  0  0  0  0
  -11.2770   -3.8180    0.0000 C   0  0  0  0  0  0  0  0  0  0  0  0
  -12.0360   -5.1120    0.0000 C   0  0  0  0  0  0  0  0  0  0  0  0
  -11.2950   -6.4160    0.0000 C   0  0  0  0  0  0  0  0  0  0  0  0
  -12.0540   -7.7100    0.0000 O   0  0  0  0  0  0  0  0  0  0  0  0
  -13.5540   -7.7000    0.0000 C   0  0  0  0  0  0  0  0  0  0  0  0
   -9.7950   -6.4270    0.0000 C   0  0  0  0  0  0  0  0  0  0  0  0
   -9.0540   -7.7310    0.0000 O   0  0  0  0  0  0  0  0  0  0  0  0
   -9.8130   -9.0250    0.0000 C   0  0  0  0  0  0  0  0  0  0  0  0
   -9.0360   -5.1330    0.0000 C   0  0  0  0  0  0  0  0  0  0  0  0
   -9.7770   -3.8290    0.0000 C   0  0  0  0  0  0  0  0  0  0  0  0
  1  2  1  0  0  0  0
  1  3  1  0  0  0  0
  3  4  1  0  0  0  0
  3  8  2  0  0  0  0
  4  5  2  0  0  0  0
  5  6  1  0  0  0  0
  5 14  1  0  0  0  0
  6  7  2  0  0  0  0
  6 11  1  0  0  0  0
  7  8  1  0  0  0  0
  8  9  1  0  0  0  0
  9 10  1  0  0  0  0
 11 12  1  0  0  0  0
 12 13  1  0  0  0  0
 13 14  1  0  0  0  0
 14 15  1  0  0  0  0
 15 16  1  0  0  0  0
 16 17  1  0  0  0  0
 16 21  1  0  0  0  0
 17 18  1  0  0  0  0
 18 19  1  0  0  0  0
 18 35  1  0  0  0  0
 19 20  1  0  0  0  0
 19 24  1  0  0  0  0
 20 21  1  0  0  0  0
 21 22  1  0  0  0  0
 22 23  1  0  0  0  0
 24 25  1  0  0  0  0
 25 26  1  0  0  0  0
 26 27  1  0  0  0  0
 26 35  2  0  0  0  0
 27 28  2  0  0  0  0
 28 29  1  0  0  0  0
 28 31  1  0  0  0  0
 29 30  1  0  0  0  0
 31 32  1  0  0  0  0
 31 34  2  0  0  0  0
 32 33  1  0  0  0  0
 34 35  1  0  0  0  0
M  END
>  <Index>
1179

>  <ID>
HT2284

>  <class>
0

>  <apol>
83.11972

>  <ast_fraglike>
0

>  <ast_fraglike_ext>
0

>  <ast_violation>
3

>  <ast_violation_ext>
4

>  <a_acc>
6

>  <a_acid>
0

>  <a_aro>
12

>  <a_base>
0

>  <a_count>
75

>  <a_don>
1

>  <a_donacc>
7

>  <a_heavy>
35

>  <a_hyd>
29

>  <a_IC>
103.40283

>  <a_ICM>
1.3787044

>  <a_nB>
0

>  <a_nBr>
0

>  <a_nC>
29

>  <a_nCl>
0

>  <a_nF>
0

>  <a_nH>
40

>  <a_nI>
0

>  <a_nN>
2

>  <a_nO>
4

>  <a_nP>
0

>  <a_nS>
0

>  <balabanJ>
1.2901431

>  <BCUT_PEOE_0>
-2.8808663

>  <BCUT_PEOE_1>
-0.50339675

>  <BCUT_PEOE_2>
0.35236239

>  <BCUT_PEOE_3>
2.8157725

>  <BCUT_SLOGP_0>
-2.8487835

>  <BCUT_SLOGP_1>
-0.43630627

>  <BCUT_SLOGP_2>
0.47788215

>  <BCUT_SLOGP_3>
2.8904862

>  <BCUT_SMR_0>
-2.6138005

>  <BCUT_SMR_1>
-0.29444054

>  <BCUT_SMR_2>
0.62832624

>  <BCUT_SMR_3>
3.0808229

>  <bpol>
54.03228

>  <b_1rotN>
7

>  <b_1rotR>
0.17948718

>  <b_ar>
12

>  <b_count>
79

>  <b_double>
0

>  <b_heavy>
39

>  <b_max1len>
4

>  <b_rotN>
7

>  <b_rotR>
0.17948718

>  <b_single>
67

>  <b_triple>
0

>  <chi0>
24.526369

>  <chi0v>
21.855864

>  <chi0v_C>
19.275656

>  <chi0_C>
20.413485

>  <chi1>
17.091911

>  <chi1v>
13.06616

>  <chi1v_C>
9.0837879

>  <chi1_C>
10.572412

>  <chiral>
4

>  <chiral_u>
4

>  <density>
0.69229132

>  <diameter>
16

>  <FCharge>
0

>  <GCUT_PEOE_0>
-0.84859216

>  <GCUT_PEOE_1>
-0.38270727

>  <GCUT_PEOE_2>
-0.072127573

>  <GCUT_PEOE_3>
3.1970754

>  <GCUT_SLOGP_0>
-1.1218871

>  <GCUT_SLOGP_1>
-0.30111957

>  <GCUT_SLOGP_2>
0.059226662

>  <GCUT_SLOGP_3>
3.2877121

>  <GCUT_SMR_0>
-0.53384113

>  <GCUT_SMR_1>
-0.20071301

>  <GCUT_SMR_2>
0.079766206

>  <GCUT_SMR_3>
3.4451809

>  <Kier1>
26.60092

>  <Kier2>
11.80676

>  <Kier3>
5.3065081

>  <KierA1>
23.136559

>  <KierA2>
10.225154

>  <KierA3>
4.5814199

>  <KierFlex>
6.7592821

>  <lip_acc>
6

>  <lip_don>
1

>  <lip_druglike>
1

>  <lip_violation>
1

>  <logP(o/w)>
4.9384799

>  <logS>
-4.9078999

>  <mr>
13.843019

>  <mutagenic>
0

>  <nmol>
1

>  <opr_brigid>
27

>  <opr_leadlike>
0

>  <opr_nring>
5

>  <opr_nrot>
8

>  <opr_violation>
3

>  <PC+>
0

>  <PC->
0

>  <PEOE_PC+>
2.4768558

>  <PEOE_PC->
-2.4768558

>  <PEOE_RPC+>
0.049464945

>  <PEOE_RPC->
0.13942379

>  <PEOE_VSA+0>
235.43263

>  <PEOE_VSA+1>
76.776947

>  <PEOE_VSA+2>
42.453091

>  <PEOE_VSA+3>
0

>  <PEOE_VSA+4>
0

>  <PEOE_VSA+5>
0

>  <PEOE_VSA+6>
0

>  <PEOE_VSA-0>
92.659027

>  <PEOE_VSA-1>
27.44899

>  <PEOE_VSA-2>
0

>  <PEOE_VSA-3>
0

>  <PEOE_VSA-4>
0

>  <PEOE_VSA-5>
0

>  <PEOE_VSA-6>
10.151916

>  <PEOE_VSA_FHYD>
0.97906488

>  <PEOE_VSA_FNEG>
0.26862004

>  <PEOE_VSA_FPNEG>
0.020935126

>  <PEOE_VSA_FPOL>
0.020935126

>  <PEOE_VSA_FPOS>
0.73137993

>  <PEOE_VSA_FPPOS>
0

>  <PEOE_VSA_HYD>
474.77069

>  <PEOE_VSA_NEG>
130.25993

>  <PEOE_VSA_PNEG>
10.151916

>  <PEOE_VSA_POL>
10.151916

>  <PEOE_VSA_POS>
354.66266

>  <PEOE_VSA_PPOS>
0

>  <petitjean>
0.5

>  <petitjeanSC>
1

>  <Q_PC+>
0

>  <Q_PC->
0

>  <Q_RPC+>
0

>  <Q_RPC->
0

>  <Q_VSA_FHYD>
1

>  <Q_VSA_FNEG>
0

>  <Q_VSA_FPNEG>
0

>  <Q_VSA_FPOL>
0

>  <Q_VSA_FPOS>
1

>  <Q_VSA_FPPOS>
0

>  <Q_VSA_HYD>
484.92261

>  <Q_VSA_NEG>
0

>  <Q_VSA_PNEG>
0

>  <Q_VSA_POL>
0

>  <Q_VSA_POS>
484.92261

>  <Q_VSA_PPOS>
0

>  <radius>
8

>  <reactive>
0

>  <rings>
5

>  <RPC+>
0

>  <RPC->
0

>  <rsynth>
1

>  <SlogP>
5.1343398

>  <SlogP_VSA0>
62.010303

>  <SlogP_VSA1>
3.1243138

>  <SlogP_VSA2>
0

>  <SlogP_VSA3>
55.318733

>  <SlogP_VSA4>
21.563892

>  <SlogP_VSA5>
179.27228

>  <SlogP_VSA6>
0

>  <SlogP_VSA7>
70.572739

>  <SlogP_VSA8>
64.569153

>  <SlogP_VSA9>
54.299728

>  <SMR>
13.82847

>  <SMR_VSA0>
0

>  <SMR_VSA1>
47.123867

>  <SMR_VSA2>
26.832342

>  <SMR_VSA3>
41.679951

>  <SMR_VSA4>
0

>  <SMR_VSA5>
164.91476

>  <SMR_VSA6>
55.318733

>  <SMR_VSA7>
174.86148

>  <TPSA>
52.189999

>  <VAdjEq>
0.34185782

>  <VAdjMa>
6.2854023

>  <VDistEq>
3.7078664

>  <VDistMa>
9.9815388

>  <vdw_area>
484.92261

>  <vdw_vol>
694.28717

>  <vsa_acc>
10.015024

>  <vsa_acid>
0

>  <vsa_base>
0

>  <vsa_don>
0

>  <vsa_hyd>
435.70157

>  <vsa_other>
0

>  <vsa_pol>
15.6976

>  <Weight>
480.64899

>  <weinerPath>
3690

>  <weinerPol>
66

>  <zagreb>
190

$$$$