OC(=O)CCCCCCCCCCCCCCCCC
  MOE2013           2D

 20 19  0  0  0  0  0  0  0  0999 V2000
    0.0000    0.0000    0.0000 O   0  0  0  0  0  0  0  0  0  0  0  0
    0.7500   -1.2990    0.0000 C   0  0  0  0  0  0  0  0  0  0  0  0
    0.0010   -2.5980    0.0000 O   0  0  0  0  0  0  0  0  0  0  0  0
    2.2500   -1.2990    0.0000 C   0  0  0  0  0  0  0  0  0  0  0  0
    3.0000    0.0010    0.0000 C   0  0  0  0  0  0  0  0  0  0  0  0
    4.5000    0.0010    0.0000 C   0  0  0  0  0  0  0  0  0  0  0  0
    5.2500    1.3000    0.0000 C   0  0  0  0  0  0  0  0  0  0  0  0
    6.7500    1.3000    0.0000 C   0  0  0  0  0  0  0  0  0  0  0  0
    7.4990    2.6000    0.0000 C   0  0  0  0  0  0  0  0  0  0  0  0
    8.9990    2.6000    0.0000 C   0  0  0  0  0  0  0  0  0  0  0  0
    9.7490    3.8990    0.0000 C   0  0  0  0  0  0  0  0  0  0  0  0
   11.2490    3.9000    0.0000 C   0  0  0  0  0  0  0  0  0  0  0  0
   11.9990    5.1990    0.0000 C   0  0  0  0  0  0  0  0  0  0  0  0
   13.4990    5.1990    0.0000 C   0  0  0  0  0  0  0  0  0  0  0  0
   14.2490    6.4980    0.0000 C   0  0  0  0  0  0  0  0  0  0  0  0
   15.7490    6.4990    0.0000 C   0  0  0  0  0  0  0  0  0  0  0  0
   16.4980    7.7980    0.0000 C   0  0  0  0  0  0  0  0  0  0  0  0
   17.9980    7.7980    0.0000 C   0  0  0  0  0  0  0  0  0  0  0  0
   18.7480    9.0970    0.0000 C   0  0  0  0  0  0  0  0  0  0  0  0
   20.2480    9.0980    0.0000 C   0  0  0  0  0  0  0  0  0  0  0  0
  1  2  1  0  0  0  0
  2  3  2  0  0  0  0
  2  4  1  0  0  0  0
  4  5  1  0  0  0  0
  5  6  1  0  0  0  0
  6  7  1  0  0  0  0
  7  8  1  0  0  0  0
  8  9  1  0  0  0  0
  9 10  1  0  0  0  0
 10 11  1  0  0  0  0
 11 12  1  0  0  0  0
 12 13  1  0  0  0  0
 13 14  1  0  0  0  0
 14 15  1  0  0  0  0
 15 16  1  0  0  0  0
 16 17  1  0  0  0  0
 17 18  1  0  0  0  0
 18 19  1  0  0  0  0
 19 20  1  0  0  0  0
M  END
>  <Index>
1308

>  <ID>
HT3264

>  <class>
0

>  <apol>
57.288548

>  <ast_fraglike>
0

>  <ast_fraglike_ext>
0

>  <ast_violation>
1

>  <ast_violation_ext>
2

>  <a_acc>
2

>  <a_acid>
0

>  <a_aro>
0

>  <a_base>
0

>  <a_count>
56

>  <a_don>
2

>  <a_donacc>
4

>  <a_heavy>
20

>  <a_hyd>
17

>  <a_IC>
62.035927

>  <a_ICM>
1.1077844

>  <a_nB>
0

>  <a_nBr>
0

>  <a_nC>
18

>  <a_nCl>
0

>  <a_nF>
0

>  <a_nH>
36

>  <a_nI>
0

>  <a_nN>
0

>  <a_nO>
2

>  <a_nP>
0

>  <a_nS>
0

>  <balabanJ>
2.9242687

>  <BCUT_PEOE_0>
-2.7470498

>  <BCUT_PEOE_1>
-0.33624494

>  <BCUT_PEOE_2>
0.31047317

>  <BCUT_PEOE_3>
2.6774094

>  <BCUT_SLOGP_0>
-2.5735605

>  <BCUT_SLOGP_1>
-0.27668908

>  <BCUT_SLOGP_2>
0.30315164

>  <BCUT_SLOGP_3>
2.8505938

>  <BCUT_SMR_0>
-2.4930077

>  <BCUT_SMR_1>
-0.16735956

>  <BCUT_SMR_2>
0.42282993

>  <BCUT_SMR_3>
2.9323869

>  <bpol>
40.313454

>  <b_1rotN>
16

>  <b_1rotR>
0.84210527

>  <b_ar>
0

>  <b_count>
55

>  <b_double>
1

>  <b_heavy>
19

>  <b_max1len>
18

>  <b_rotN>
16

>  <b_rotR>
0.84210527

>  <b_single>
54

>  <b_triple>
0

>  <chi0>
14.891059

>  <chi0v>
13.66917

>  <chi0v_C>
12.813708

>  <chi0_C>
12.891059

>  <chi1>
9.7700558

>  <chi1v>
8.9883909

>  <chi1v_C>
8.5606604

>  <chi1_C>
8.6153555

>  <chiral>
0

>  <chiral_u>
0

>  <density>
0.61400884

>  <diameter>
18

>  <FCharge>
0

>  <GCUT_PEOE_0>
-0.80473441

>  <GCUT_PEOE_1>
-0.31598452

>  <GCUT_PEOE_2>
0.017135287

>  <GCUT_PEOE_3>
2.7016146

>  <GCUT_SLOGP_0>
-0.87253571

>  <GCUT_SLOGP_1>
-0.19201468

>  <GCUT_SLOGP_2>
0.012818312

>  <GCUT_SLOGP_3>
2.850893

>  <GCUT_SMR_0>
-0.53557622

>  <GCUT_SMR_1>
-0.17072789

>  <GCUT_SMR_2>
0.11750082

>  <GCUT_SMR_3>
2.9152842

>  <Kier1>
20

>  <Kier2>
17.052631

>  <Kier3>
19.058823

>  <KierA1>
19.082806

>  <KierA2>
16.228596

>  <KierA3>
18.103609

>  <KierFlex>
15.484357

>  <lip_acc>
2

>  <lip_don>
1

>  <lip_druglike>
1

>  <lip_violation>
1

>  <logP(o/w)>
7.026

>  <logS>
-7.5238099

>  <mr>
8.8375483

>  <mutagenic>
0

>  <nmol>
1

>  <opr_brigid>
0

>  <opr_leadlike>
0

>  <opr_nring>
0

>  <opr_nrot>
16

>  <opr_violation>
2

>  <PC+>
0

>  <PC->
0

>  <PEOE_PC+>
1.4512173

>  <PEOE_PC->
-1.4512173

>  <PEOE_RPC+>
0.17887577

>  <PEOE_RPC->
0.22826865

>  <PEOE_VSA+0>
157.98982

>  <PEOE_VSA+1>
0

>  <PEOE_VSA+2>
0

>  <PEOE_VSA+3>
0

>  <PEOE_VSA+4>
10.324173

>  <PEOE_VSA+5>
14.708499

>  <PEOE_VSA+6>
0

>  <PEOE_VSA-0>
8.701313

>  <PEOE_VSA-1>
140.56607

>  <PEOE_VSA-2>
0

>  <PEOE_VSA-3>
0

>  <PEOE_VSA-4>
0

>  <PEOE_VSA-5>
13.566921

>  <PEOE_VSA-6>
7.7675405

>  <PEOE_VSA_FHYD>
0.86888027

>  <PEOE_VSA_FNEG>
0.48243806

>  <PEOE_VSA_FPNEG>
0.060330864

>  <PEOE_VSA_FPOL>
0.13111974

>  <PEOE_VSA_FPOS>
0.51756191

>  <PEOE_VSA_FPPOS>
0.070788883

>  <PEOE_VSA_HYD>
307.2572

>  <PEOE_VSA_NEG>
170.60184

>  <PEOE_VSA_PNEG>
21.334461

>  <PEOE_VSA_POL>
46.367134

>  <PEOE_VSA_POS>
183.02249

>  <PEOE_VSA_PPOS>
25.032671

>  <petitjean>
0.5

>  <petitjeanSC>
1

>  <Q_PC+>
0

>  <Q_PC->
0

>  <Q_RPC+>
0

>  <Q_RPC->
0

>  <Q_VSA_FHYD>
1

>  <Q_VSA_FNEG>
0

>  <Q_VSA_FPNEG>
0

>  <Q_VSA_FPOL>
0

>  <Q_VSA_FPOS>
1

>  <Q_VSA_FPPOS>
0

>  <Q_VSA_HYD>
353.62433

>  <Q_VSA_NEG>
0

>  <Q_VSA_PNEG>
0

>  <Q_VSA_POL>
0

>  <Q_VSA_POS>
353.62433

>  <Q_VSA_PPOS>
0

>  <radius>
9

>  <reactive>
0

>  <rings>
0

>  <RPC+>
0

>  <RPC->
0

>  <rsynth>
1

>  <SlogP>
6.3325

>  <SlogP_VSA0>
0

>  <SlogP_VSA1>
7.7454643

>  <SlogP_VSA2>
23.862217

>  <SlogP_VSA3>
25.385227

>  <SlogP_VSA4>
0

>  <SlogP_VSA5>
0

>  <SlogP_VSA6>
0

>  <SlogP_VSA7>
0

>  <SlogP_VSA8>
301.8945

>  <SlogP_VSA9>
33.326015

>  <SMR>
8.7181797

>  <SMR_VSA0>
23.862217

>  <SMR_VSA1>
0

>  <SMR_VSA2>
25.385227

>  <SMR_VSA3>
0

>  <SMR_VSA4>
0

>  <SMR_VSA5>
301.8945

>  <SMR_VSA6>
7.7454643

>  <SMR_VSA7>
33.326015

>  <TPSA>
37.299999

>  <VAdjEq>
0.45294255

>  <VAdjMa>
5.2479277

>  <VDistEq>
3.9737091

>  <VDistMa>
8.2524881

>  <vdw_area>
353.62433

>  <vdw_vol>
463.3223

>  <vsa_acc>
0

>  <vsa_acid>
0

>  <vsa_base>
0

>  <vsa_don>
0

>  <vsa_hyd>
282.34436

>  <vsa_other>
14.708499

>  <vsa_pol>
27.133842

>  <Weight>
284.48398

>  <weinerPath>
1313

>  <weinerPol>
17

>  <zagreb>
76

$$$$