n1c/2c(CCc3c(cccc3)C2=C2/CCN(CC/2)C)ccc1
  MOE2013           2D

 22 25  0  0  0  0  0  0  0  0999 V2000
    0.0000    0.0000    0.0000 N   0  0  0  0  0  0  0  0  0  0  0  0
   -0.7470    1.3010    0.0000 C   0  0  0  0  0  0  0  0  0  0  0  0
   -2.2470    1.3040    0.0000 C   0  0  0  0  0  0  0  0  0  0  0  0
   -3.1810    2.4780    0.0000 C   0  0  0  0  0  0  0  0  0  0  0  0
   -2.8450    3.9400    0.0000 C   0  0  0  0  0  0  0  0  0  0  0  0
   -1.4920    4.5880    0.0000 C   0  0  0  0  0  0  0  0  0  0  0  0
   -0.1410    3.9340    0.0000 C   0  0  0  0  0  0  0  0  0  0  0  0
    1.1000    4.7760    0.0000 C   0  0  0  0  0  0  0  0  0  0  0  0
    0.9910    6.2720    0.0000 C   0  0  0  0  0  0  0  0  0  0  0  0
   -0.3610    6.9260    0.0000 C   0  0  0  0  0  0  0  0  0  0  0  0
   -1.6020    6.0840    0.0000 C   0  0  0  0  0  0  0  0  0  0  0  0
    0.1910    2.4710    0.0000 C   0  0  0  0  0  0  0  0  0  0  0  0
    1.6530    2.1340    0.0000 C   0  0  0  0  0  0  0  0  0  0  0  0
    2.6750    3.2320    0.0000 C   0  0  0  0  0  0  0  0  0  0  0  0
    4.1370    2.8950    0.0000 C   0  0  0  0  0  0  0  0  0  0  0  0
    4.5760    1.4610    0.0000 N   0  0  0  0  0  0  0  0  0  0  0  0
    3.5540    0.3630    0.0000 C   0  0  0  0  0  0  0  0  0  0  0  0
    2.0920    0.7000    0.0000 C   0  0  0  0  0  0  0  0  0  0  0  0
    6.0380    1.1240    0.0000 C   0  0  0  0  0  0  0  0  0  0  0  0
   -3.0000    0.0060    0.0000 C   0  0  0  0  0  0  0  0  0  0  0  0
   -2.2530   -1.2940    0.0000 C   0  0  0  0  0  0  0  0  0  0  0  0
   -0.7530   -1.2970    0.0000 C   0  0  0  0  0  0  0  0  0  0  0  0
  1  2  2  0  0  0  0
  1 22  1  0  0  0  0
  2  3  1  0  0  0  0
  2 12  1  0  0  0  0
  3  4  1  0  0  0  0
  3 20  2  0  0  0  0
  4  5  1  0  0  0  0
  5  6  1  0  0  0  0
  6  7  2  0  0  0  0
  6 11  1  0  0  0  0
  7  8  1  0  0  0  0
  7 12  1  0  0  0  0
  8  9  2  0  0  0  0
  9 10  1  0  0  0  0
 10 11  2  0  0  0  0
 12 13  2  0  0  0  0
 13 14  1  0  0  0  0
 13 18  1  0  0  0  0
 14 15  1  0  0  0  0
 15 16  1  0  0  0  0
 16 17  1  0  0  0  0
 16 19  1  0  0  0  0
 17 18  1  0  0  0  0
 20 21  1  0  0  0  0
 21 22  2  0  0  0  0
M  END
>  <Index>
102

>  <ID>
HT0212

>  <class>
0

>  <apol>
52.069447

>  <ast_fraglike>
0

>  <ast_fraglike_ext>
0

>  <ast_violation>
1

>  <ast_violation_ext>
1

>  <a_acc>
2

>  <a_acid>
0

>  <a_aro>
12

>  <a_base>
0

>  <a_count>
44

>  <a_don>
0

>  <a_donacc>
2

>  <a_heavy>
22

>  <a_hyd>
20

>  <a_IC>
53.668934

>  <a_ICM>
1.2197485

>  <a_nB>
0

>  <a_nBr>
0

>  <a_nC>
20

>  <a_nCl>
0

>  <a_nF>
0

>  <a_nH>
22

>  <a_nI>
0

>  <a_nN>
2

>  <a_nO>
0

>  <a_nP>
0

>  <a_nS>
0

>  <balabanJ>
1.5928988

>  <BCUT_PEOE_0>
-2.7186339

>  <BCUT_PEOE_1>
-0.50113505

>  <BCUT_PEOE_2>
0.56242734

>  <BCUT_PEOE_3>
2.6315815

>  <BCUT_SLOGP_0>
-2.7419264

>  <BCUT_SLOGP_1>
-0.40738639

>  <BCUT_SLOGP_2>
0.6562748

>  <BCUT_SLOGP_3>
2.6684527

>  <BCUT_SMR_0>
-2.4355206

>  <BCUT_SMR_1>
-0.36146626

>  <BCUT_SMR_2>
0.70728487

>  <BCUT_SMR_3>
2.9112563

>  <bpol>
27.350554

>  <b_1rotN>
0

>  <b_1rotR>
0

>  <b_ar>
12

>  <b_count>
47

>  <b_double>
1

>  <b_heavy>
25

>  <b_max1len>
2

>  <b_rotN>
0

>  <b_rotR>
0

>  <b_single>
34

>  <b_triple>
0

>  <chi0>
14.940947

>  <chi0v>
13.17852

>  <chi0v_C>
12.284093

>  <chi0_C>
13.656489

>  <chi1>
10.8265

>  <chi1v>
8.2583809

>  <chi1v_C>
6.6969056

>  <chi1_C>
8.5244045

>  <chiral>
0

>  <chiral_u>
0

>  <density>
0.66176754

>  <diameter>
9

>  <FCharge>
0

>  <GCUT_PEOE_0>
-0.85849071

>  <GCUT_PEOE_1>
-0.33639047

>  <GCUT_PEOE_2>
0.037297599

>  <GCUT_PEOE_3>
2.8082719

>  <GCUT_SLOGP_0>
-0.9521271

>  <GCUT_SLOGP_1>
-0.27683684

>  <GCUT_SLOGP_2>
0.11800856

>  <GCUT_SLOGP_3>
2.8972826

>  <GCUT_SMR_0>
-0.51364571

>  <GCUT_SMR_1>
-0.17820205

>  <GCUT_SMR_2>
0.15259337

>  <GCUT_SMR_3>
3.0869191

>  <Kier1>
15.5232

>  <Kier2>
6.8571429

>  <Kier3>
3.1653478

>  <KierA1>
11.804927

>  <KierA2>
5.1413884

>  <KierA3>
2.3490553

>  <KierFlex>
2.7588053

>  <lip_acc>
2

>  <lip_don>
0

>  <lip_druglike>
1

>  <lip_violation>
0

>  <logP(o/w)>
3.0699999

>  <logS>
-2.88904

>  <mr>
9.0632219

>  <mutagenic>
0

>  <nmol>
1

>  <opr_brigid>
24

>  <opr_leadlike>
1

>  <opr_nring>
4

>  <opr_nrot>
2

>  <opr_violation>
0

>  <PC+>
0

>  <PC->
0

>  <PEOE_PC+>
1.1159489

>  <PEOE_PC->
-1.1159489

>  <PEOE_RPC+>
0.07433667

>  <PEOE_RPC->
0.27306929

>  <PEOE_VSA+0>
109.31989

>  <PEOE_VSA+1>
36.557255

>  <PEOE_VSA+2>
0

>  <PEOE_VSA+3>
0

>  <PEOE_VSA+4>
0

>  <PEOE_VSA+5>
0

>  <PEOE_VSA+6>
0

>  <PEOE_VSA-0>
76.924461

>  <PEOE_VSA-1>
63.483059

>  <PEOE_VSA-2>
0

>  <PEOE_VSA-3>
0

>  <PEOE_VSA-4>
0

>  <PEOE_VSA-5>
5.6825762

>  <PEOE_VSA-6>
0

>  <PEOE_VSA_FHYD>
0.98053694

>  <PEOE_VSA_FNEG>
0.50036466

>  <PEOE_VSA_FPNEG>
0.01946306

>  <PEOE_VSA_FPOL>
0.01946306

>  <PEOE_VSA_FPOS>
0.49963531

>  <PEOE_VSA_FPPOS>
0

>  <PEOE_VSA_HYD>
286.28467

>  <PEOE_VSA_NEG>
146.0901

>  <PEOE_VSA_PNEG>
5.6825762

>  <PEOE_VSA_POL>
5.6825762

>  <PEOE_VSA_POS>
145.87715

>  <PEOE_VSA_PPOS>
0

>  <petitjean>
0.44444445

>  <petitjeanSC>
0.80000001

>  <Q_PC+>
0

>  <Q_PC->
0

>  <Q_RPC+>
0

>  <Q_RPC->
0

>  <Q_VSA_FHYD>
1

>  <Q_VSA_FNEG>
0

>  <Q_VSA_FPNEG>
0

>  <Q_VSA_FPOL>
0

>  <Q_VSA_FPOS>
1

>  <Q_VSA_FPPOS>
0

>  <Q_VSA_HYD>
291.96725

>  <Q_VSA_NEG>
0

>  <Q_VSA_PNEG>
0

>  <Q_VSA_POL>
0

>  <Q_VSA_POS>
291.96725

>  <Q_VSA_PPOS>
0

>  <radius>
5

>  <reactive>
0

>  <rings>
4

>  <RPC+>
0

>  <RPC->
0

>  <rsynth>
1

>  <SlogP>
3.52493

>  <SlogP_VSA0>
0

>  <SlogP_VSA1>
19.909843

>  <SlogP_VSA2>
0

>  <SlogP_VSA3>
40.064732

>  <SlogP_VSA4>
12.313473

>  <SlogP_VSA5>
73.819572

>  <SlogP_VSA6>
0

>  <SlogP_VSA7>
123.07346

>  <SlogP_VSA8>
37.736813

>  <SlogP_VSA9>
0

>  <SMR>
8.9778004

>  <SMR_VSA0>
0

>  <SMR_VSA1>
19.909843

>  <SMR_VSA2>
3.185575

>  <SMR_VSA3>
15.499047

>  <SMR_VSA4>
0

>  <SMR_VSA5>
198.54709

>  <SMR_VSA6>
36.879158

>  <SMR_VSA7>
32.897186

>  <TPSA>
16.129999

>  <VAdjEq>
0.47938794

>  <VAdjMa>
5.643856

>  <VDistEq>
2.9295075

>  <VDistMa>
8.6701803

>  <vdw_area>
291.96725

>  <vdw_vol>
438.83987

>  <vsa_acc>
5.6825762

>  <vsa_acid>
0

>  <vsa_base>
0

>  <vsa_don>
0

>  <vsa_hyd>
270.62518

>  <vsa_other>
0

>  <vsa_pol>
5.6825762

>  <Weight>
290.41

>  <weinerPath>
928

>  <weinerPol>
40

>  <zagreb>
120

$$$$