S(=O)(=O)(Nc1oc(C)c(n1)C)c1ccc(N)cc1
  MOE2013           2D

 18 19  0  0  0  0  0  0  0  0999 V2000
    0.0000    0.0000    0.0000 S   0  0  0  0  0  0  0  0  0  0  0  0
   -0.7500   -1.2990    0.0000 O   0  0  0  0  0  0  0  0  0  0  0  0
    0.7500    1.2990    0.0000 O   0  0  0  0  0  0  0  0  0  0  0  0
    1.2990   -0.7500    0.0000 N   0  0  0  0  0  0  0  0  0  0  0  0
    2.5980    0.0010    0.0000 C   0  0  0  0  0  0  0  0  0  0  0  0
    2.7540    1.4930    0.0000 O   0  0  0  0  0  0  0  0  0  0  0  0
    4.2220    1.8050    0.0000 C   0  0  0  0  0  0  0  0  0  0  0  0
    4.8310    3.1750    0.0000 C   0  0  0  0  0  0  0  0  0  0  0  0
    4.9720    0.5060    0.0000 C   0  0  0  0  0  0  0  0  0  0  0  0
    3.9690   -0.6090    0.0000 N   0  0  0  0  0  0  0  0  0  0  0  0
    6.4640    0.3500    0.0000 C   0  0  0  0  0  0  0  0  0  0  0  0
   -1.2990    0.7500    0.0000 C   0  0  0  0  0  0  0  0  0  0  0  0
   -2.5980   -0.0010    0.0000 C   0  0  0  0  0  0  0  0  0  0  0  0
   -3.8970    0.7490    0.0000 C   0  0  0  0  0  0  0  0  0  0  0  0
   -3.8980    2.2490    0.0000 C   0  0  0  0  0  0  0  0  0  0  0  0
   -5.1970    2.9980    0.0000 N   0  0  0  0  0  0  0  0  0  0  0  0
   -2.5990    2.9990    0.0000 C   0  0  0  0  0  0  0  0  0  0  0  0
   -1.3000    2.2500    0.0000 C   0  0  0  0  0  0  0  0  0  0  0  0
  1  2  2  0  0  0  0
  1  3  2  0  0  0  0
  1  4  1  0  0  0  0
  1 12  1  0  0  0  0
  4  5  1  0  0  0  0
  5  6  1  0  0  0  0
  5 10  2  0  0  0  0
  6  7  1  0  0  0  0
  7  8  1  0  0  0  0
  7  9  2  0  0  0  0
  9 10  1  0  0  0  0
  9 11  1  0  0  0  0
 12 13  1  0  0  0  0
 12 18  2  0  0  0  0
 13 14  2  0  0  0  0
 14 15  1  0  0  0  0
 15 16  1  0  0  0  0
 15 17  2  0  0  0  0
 17 18  1  0  0  0  0
M  END
>  <Index>
1022

>  <ID>
HT1948

>  <class>
0

>  <apol>
36.634308

>  <ast_fraglike>
1

>  <ast_fraglike_ext>
0

>  <ast_violation>
0

>  <ast_violation_ext>
1

>  <a_acc>
3

>  <a_acid>
0

>  <a_aro>
11

>  <a_base>
0

>  <a_count>
31

>  <a_don>
2

>  <a_donacc>
5

>  <a_heavy>
18

>  <a_hyd>
9

>  <a_IC>
57.910847

>  <a_ICM>
1.8680918

>  <a_nB>
0

>  <a_nBr>
0

>  <a_nC>
11

>  <a_nCl>
0

>  <a_nF>
0

>  <a_nH>
13

>  <a_nI>
0

>  <a_nN>
3

>  <a_nO>
3

>  <a_nP>
0

>  <a_nS>
1

>  <balabanJ>
1.878042

>  <BCUT_PEOE_0>
-2.2787347

>  <BCUT_PEOE_1>
-0.62320948

>  <BCUT_PEOE_2>
0.34826776

>  <BCUT_PEOE_3>
2.4608748

>  <BCUT_SLOGP_0>
-2.4297881

>  <BCUT_SLOGP_1>
-0.53807992

>  <BCUT_SLOGP_2>
0.51753604

>  <BCUT_SLOGP_3>
2.4253173

>  <BCUT_SMR_0>
-1.9976625

>  <BCUT_SMR_1>
-0.49986199

>  <BCUT_SMR_2>
0.66586208

>  <BCUT_SMR_3>
2.7664943

>  <bpol>
23.923691

>  <b_1rotN>
3

>  <b_1rotR>
0.15789473

>  <b_ar>
11

>  <b_count>
32

>  <b_double>
0

>  <b_heavy>
19

>  <b_max1len>
3

>  <b_rotN>
3

>  <b_rotR>
0.15789473

>  <b_single>
21

>  <b_triple>
0

>  <chi0>
13.336499

>  <chi0v>
10.783455

>  <chi0v_C>
6.809401

>  <chi0_C>
7.7151785

>  <chi1>
8.3818474

>  <chi1v>
6.690249

>  <chi1v_C>
3.0713673

>  <chi1_C>
4.121027

>  <chiral>
0

>  <chiral_u>
0

>  <density>
0.8328898

>  <diameter>
10

>  <FCharge>
0

>  <GCUT_PEOE_0>
-0.92863369

>  <GCUT_PEOE_1>
-0.35561705

>  <GCUT_PEOE_2>
-0.036079213

>  <GCUT_PEOE_3>
2.3458078

>  <GCUT_SLOGP_0>
-1.3342901

>  <GCUT_SLOGP_1>
-0.39144656

>  <GCUT_SLOGP_2>
0.10801517

>  <GCUT_SLOGP_3>
2.4059963

>  <GCUT_SMR_0>
-0.48252356

>  <GCUT_SMR_1>
-0.1970751

>  <GCUT_SMR_2>
0.1745699

>  <GCUT_SMR_3>
2.6290603

>  <Kier1>
14.409972

>  <Kier2>
5.5510206

>  <Kier3>
3.5261707

>  <KierA1>
11.660892

>  <KierA2>
4.4318681

>  <KierA3>
2.7872541

>  <KierFlex>
2.8710852

>  <lip_acc>
6

>  <lip_don>
3

>  <lip_druglike>
1

>  <lip_violation>
0

>  <logP(o/w)>
0.583

>  <logS>
-2.8106501

>  <mr>
6.8314152

>  <mutagenic>
1

>  <nmol>
1

>  <opr_brigid>
11

>  <opr_leadlike>
1

>  <opr_nring>
2

>  <opr_nrot>
2

>  <opr_violation>
0

>  <PC+>
0

>  <PC->
0

>  <PEOE_PC+>
1.5632359

>  <PEOE_PC->
-1.5632359

>  <PEOE_RPC+>
0.19850206

>  <PEOE_RPC->
0.35937741

>  <PEOE_VSA+0>
65.260193

>  <PEOE_VSA+1>
17.061544

>  <PEOE_VSA+2>
43.297581

>  <PEOE_VSA+3>
0

>  <PEOE_VSA+4>
10.105608

>  <PEOE_VSA+5>
0

>  <PEOE_VSA+6>
4.1846013

>  <PEOE_VSA-0>
100.72124

>  <PEOE_VSA-1>
2.5295215

>  <PEOE_VSA-2>
0

>  <PEOE_VSA-3>
0

>  <PEOE_VSA-4>
0

>  <PEOE_VSA-5>
0

>  <PEOE_VSA-6>
14.837452

>  <PEOE_VSA_FHYD>
0.88710111

>  <PEOE_VSA_FNEG>
0.45771024

>  <PEOE_VSA_FPNEG>
0.057510007

>  <PEOE_VSA_FPOL>
0.1128989

>  <PEOE_VSA_FPOS>
0.54228973

>  <PEOE_VSA_FPPOS>
0.055388894

>  <PEOE_VSA_HYD>
228.87007

>  <PEOE_VSA_NEG>
118.08821

>  <PEOE_VSA_PNEG>
14.837452

>  <PEOE_VSA_POL>
29.127661

>  <PEOE_VSA_POS>
139.90953

>  <PEOE_VSA_PPOS>
14.29021

>  <petitjean>
0.5

>  <petitjeanSC>
1

>  <Q_PC+>
0

>  <Q_PC->
0

>  <Q_RPC+>
0

>  <Q_RPC->
0

>  <Q_VSA_FHYD>
1

>  <Q_VSA_FNEG>
0

>  <Q_VSA_FPNEG>
0

>  <Q_VSA_FPOL>
0

>  <Q_VSA_FPOS>
1

>  <Q_VSA_FPPOS>
0

>  <Q_VSA_HYD>
257.99774

>  <Q_VSA_NEG>
0

>  <Q_VSA_PNEG>
0

>  <Q_VSA_POL>
0

>  <Q_VSA_POS>
257.99774

>  <Q_VSA_PPOS>
0

>  <radius>
5

>  <reactive>
0

>  <rings>
2

>  <RPC+>
0

>  <RPC->
0

>  <rsynth>
1

>  <SlogP>
1.67444

>  <SlogP_VSA0>
32.897186

>  <SlogP_VSA1>
81.362213

>  <SlogP_VSA2>
6.6407428

>  <SlogP_VSA3>
0

>  <SlogP_VSA4>
8.2055683

>  <SlogP_VSA5>
11.058081

>  <SlogP_VSA6>
0

>  <SlogP_VSA7>
70.572739

>  <SlogP_VSA8>
0

>  <SlogP_VSA9>
73.999947

>  <SMR>
6.7639899

>  <SMR_VSA0>
57.679035

>  <SMR_VSA1>
16.78553

>  <SMR_VSA2>
1.5507339

>  <SMR_VSA3>
8.2055683

>  <SMR_VSA4>
23.752911

>  <SMR_VSA5>
103.46992

>  <SMR_VSA6>
0

>  <SMR_VSA7>
73.29277

>  <TPSA>
98.220001

>  <VAdjEq>
0.52150291

>  <VAdjMa>
5.2479277

>  <VDistEq>
3.0742338

>  <VDistMa>
8.0289221

>  <vdw_area>
257.99774

>  <vdw_vol>
320.94162

>  <vsa_acc>
37.6991

>  <vsa_acid>
0

>  <vsa_base>
0

>  <vsa_don>
25.817696

>  <vsa_hyd>
139.63458

>  <vsa_other>
38.508427

>  <vsa_pol>
63.516796

>  <Weight>
267.30899

>  <weinerPath>
625

>  <weinerPol>
25

>  <zagreb>
94

$$$$