O(C)c1c(OC)cc(cc1OC)C(=O)NCCCCCC(O)=O
  MOE2013           2D

 23 23  0  0  0  0  0  0  0  0999 V2000
    0.0000    0.0000    0.0000 O   0  0  0  0  0  0  0  0  0  0  0  0
   -0.7560    1.2960    0.0000 C   0  0  0  0  0  0  0  0  0  0  0  0
    1.5000    0.0070    0.0000 C   0  0  0  0  0  0  0  0  0  0  0  0
    2.2440    1.3090    0.0000 C   0  0  0  0  0  0  0  0  0  0  0  0
    1.4890    2.6050    0.0000 O   0  0  0  0  0  0  0  0  0  0  0  0
    2.2330    3.9070    0.0000 C   0  0  0  0  0  0  0  0  0  0  0  0
    3.7440    1.3160    0.0000 C   0  0  0  0  0  0  0  0  0  0  0  0
    4.5000    0.0200    0.0000 C   0  0  0  0  0  0  0  0  0  0  0  0
    3.7560   -1.2820    0.0000 C   0  0  0  0  0  0  0  0  0  0  0  0
    2.2560   -1.2890    0.0000 C   0  0  0  0  0  0  0  0  0  0  0  0
    1.5110   -2.5910    0.0000 O   0  0  0  0  0  0  0  0  0  0  0  0
    2.2670   -3.8870    0.0000 C   0  0  0  0  0  0  0  0  0  0  0  0
    6.0000    0.0270    0.0000 C   0  0  0  0  0  0  0  0  0  0  0  0
    6.7440    1.3290    0.0000 O   0  0  0  0  0  0  0  0  0  0  0  0
    6.7560   -1.2690    0.0000 N   0  0  0  0  0  0  0  0  0  0  0  0
    8.2560   -1.2630    0.0000 C   0  0  0  0  0  0  0  0  0  0  0  0
    9.0110   -2.5580    0.0000 C   0  0  0  0  0  0  0  0  0  0  0  0
   10.5110   -2.5520    0.0000 C   0  0  0  0  0  0  0  0  0  0  0  0
   11.2670   -3.8470    0.0000 C   0  0  0  0  0  0  0  0  0  0  0  0
   12.7670   -3.8410    0.0000 C   0  0  0  0  0  0  0  0  0  0  0  0
   13.5230   -5.1360    0.0000 C   0  0  0  0  0  0  0  0  0  0  0  0
   12.7790   -6.4390    0.0000 O   0  0  0  0  0  0  0  0  0  0  0  0
   15.0230   -5.1300    0.0000 O   0  0  0  0  0  0  0  0  0  0  0  0
  1  2  1  0  0  0  0
  1  3  1  0  0  0  0
  3  4  1  0  0  0  0
  3 10  2  0  0  0  0
  4  5  1  0  0  0  0
  4  7  2  0  0  0  0
  5  6  1  0  0  0  0
  7  8  1  0  0  0  0
  8  9  2  0  0  0  0
  8 13  1  0  0  0  0
  9 10  1  0  0  0  0
 10 11  1  0  0  0  0
 11 12  1  0  0  0  0
 13 14  2  0  0  0  0
 13 15  1  0  0  0  0
 15 16  1  0  0  0  0
 16 17  1  0  0  0  0
 17 18  1  0  0  0  0
 18 19  1  0  0  0  0
 19 20  1  0  0  0  0
 20 21  1  0  0  0  0
 21 22  1  0  0  0  0
 21 23  2  0  0  0  0
M  END
>  <Index>
1336

>  <ID>
HT3480

>  <class>
0

>  <apol>
49.408237

>  <ast_fraglike>
0

>  <ast_fraglike_ext>
0

>  <ast_violation>
2

>  <ast_violation_ext>
3

>  <a_acc>
6

>  <a_acid>
0

>  <a_aro>
6

>  <a_base>
0

>  <a_count>
46

>  <a_don>
3

>  <a_donacc>
9

>  <a_heavy>
23

>  <a_hyd>
14

>  <a_IC>
70.53215

>  <a_ICM>
1.5333076

>  <a_nB>
0

>  <a_nBr>
0

>  <a_nC>
16

>  <a_nCl>
0

>  <a_nF>
0

>  <a_nH>
23

>  <a_nI>
0

>  <a_nN>
1

>  <a_nO>
6

>  <a_nP>
0

>  <a_nS>
0

>  <balabanJ>
2.3370676

>  <BCUT_PEOE_0>
-2.6355519

>  <BCUT_PEOE_1>
-0.54504842

>  <BCUT_PEOE_2>
0.44740984

>  <BCUT_PEOE_3>
2.6019363

>  <BCUT_SLOGP_0>
-2.6527383

>  <BCUT_SLOGP_1>
-0.50896877

>  <BCUT_SLOGP_2>
0.39948982

>  <BCUT_SLOGP_3>
2.7012799

>  <BCUT_SMR_0>
-2.3891156

>  <BCUT_SMR_1>
-0.30388927

>  <BCUT_SMR_2>
0.59152353

>  <BCUT_SMR_3>
2.8460469

>  <bpol>
33.467762

>  <b_1rotN>
10

>  <b_1rotR>
0.43478259

>  <b_ar>
6

>  <b_count>
46

>  <b_double>
2

>  <b_heavy>
23

>  <b_max1len>
7

>  <b_rotN>
11

>  <b_rotR>
0.47826087

>  <b_single>
38

>  <b_triple>
0

>  <chi0>
17.242277

>  <chi0v>
13.67869

>  <chi0v_C>
10.690234

>  <chi0_C>
11.413849

>  <chi1>
11.027606

>  <chi1v>
7.3307796

>  <chi1v_C>
4.2582541

>  <chi1_C>
5.0412416

>  <chiral>
0

>  <chiral_u>
0

>  <density>
0.75260538

>  <diameter>
14

>  <FCharge>
0

>  <GCUT_PEOE_0>
-0.83850867

>  <GCUT_PEOE_1>
-0.45966074

>  <GCUT_PEOE_2>
-0.049750935

>  <GCUT_PEOE_3>
2.5155458

>  <GCUT_SLOGP_0>
-1.1608421

>  <GCUT_SLOGP_1>
-0.38705954

>  <GCUT_SLOGP_2>
0.037727188

>  <GCUT_SLOGP_3>
2.5999448

>  <GCUT_SMR_0>
-0.52821016

>  <GCUT_SMR_1>
-0.21964887

>  <GCUT_SMR_2>
0.14167304

>  <GCUT_SMR_3>
2.7646646

>  <Kier1>
21.043478

>  <Kier2>
11.536266

>  <Kier3>
7.1836734

>  <KierA1>
16.957361

>  <KierA2>
9.1989136

>  <KierA3>
5.6826377

>  <KierFlex>
6.7821431

>  <lip_acc>
7

>  <lip_don>
2

>  <lip_druglike>
1

>  <lip_violation>
0

>  <logP(o/w)>
1.56548

>  <logS>
-2.16522

>  <mr>
8.5924816

>  <mutagenic>
0

>  <nmol>
1

>  <opr_brigid>
6

>  <opr_leadlike>
1

>  <opr_nring>
1

>  <opr_nrot>
10

>  <opr_violation>
0

>  <PC+>
0

>  <PC->
0

>  <PEOE_PC+>
2.4132814

>  <PEOE_PC->
-2.4132814

>  <PEOE_RPC+>
0.10756624

>  <PEOE_RPC->
0.14585184

>  <PEOE_VSA+0>
141.74901

>  <PEOE_VSA+1>
46.919247

>  <PEOE_VSA+2>
25.375559

>  <PEOE_VSA+3>
8.6190128

>  <PEOE_VSA+4>
10.324173

>  <PEOE_VSA+5>
27.65803

>  <PEOE_VSA+6>
0

>  <PEOE_VSA-0>
41.912434

>  <PEOE_VSA-1>
8.701313

>  <PEOE_VSA-2>
0

>  <PEOE_VSA-3>
0

>  <PEOE_VSA-4>
0

>  <PEOE_VSA-5>
27.133842

>  <PEOE_VSA-6>
15.4157

>  <PEOE_VSA_FHYD>
0.77238595

>  <PEOE_VSA_FNEG>
0.26331571

>  <PEOE_VSA_FPNEG>
0.12026156

>  <PEOE_VSA_FPOL>
0.22761405

>  <PEOE_VSA_FPOS>
0.73668426

>  <PEOE_VSA_FPPOS>
0.10735249

>  <PEOE_VSA_HYD>
273.27658

>  <PEOE_VSA_NEG>
93.163292

>  <PEOE_VSA_PNEG>
42.549541

>  <PEOE_VSA_POL>
80.531746

>  <PEOE_VSA_POS>
260.64502

>  <PEOE_VSA_PPOS>
37.982204

>  <petitjean>
0.5

>  <petitjeanSC>
1

>  <Q_PC+>
0

>  <Q_PC->
0

>  <Q_RPC+>
0

>  <Q_RPC->
0

>  <Q_VSA_FHYD>
1

>  <Q_VSA_FNEG>
0

>  <Q_VSA_FPNEG>
0

>  <Q_VSA_FPOL>
0

>  <Q_VSA_FPOS>
1

>  <Q_VSA_FPPOS>
0

>  <Q_VSA_HYD>
353.80832

>  <Q_VSA_NEG>
0

>  <Q_VSA_PNEG>
0

>  <Q_VSA_POL>
0

>  <Q_VSA_POS>
353.80832

>  <Q_VSA_PPOS>
0

>  <radius>
7

>  <reactive>
0

>  <rings>
1

>  <RPC+>
0

>  <RPC->
0

>  <rsynth>
1

>  <SlogP>
2.0871999

>  <SlogP_VSA0>
51.010414

>  <SlogP_VSA1>
13.004248

>  <SlogP_VSA2>
23.862217

>  <SlogP_VSA3>
43.824806

>  <SlogP_VSA4>
27.047791

>  <SlogP_VSA5>
106.1516

>  <SlogP_VSA6>
0

>  <SlogP_VSA7>
35.286369

>  <SlogP_VSA8>
75.473625

>  <SlogP_VSA9>
15.730285

>  <SMR>
8.4534998

>  <SMR_VSA0>
47.724434

>  <SMR_VSA1>
32.999664

>  <SMR_VSA2>
43.395977

>  <SMR_VSA3>
18.915859

>  <SMR_VSA4>
0

>  <SMR_VSA5>
110.75999

>  <SMR_VSA6>
31.443827

>  <SMR_VSA7>
106.1516

>  <TPSA>
94.089996

>  <VAdjEq>
0.42622864

>  <VAdjMa>
5.523562

>  <VDistEq>
3.6081007

>  <VDistMa>
8.7124567

>  <vdw_area>
353.80832

>  <vdw_vol>
432.31287

>  <vsa_acc>
21.07819

>  <vsa_acid>
0

>  <vsa_base>
0

>  <vsa_don>
5.6825762

>  <vsa_hyd>
249.70985

>  <vsa_other>
27.65803

>  <vsa_pol>
53.894608

>  <Weight>
325.36099

>  <weinerPath>
1426

>  <weinerPol>
32

>  <zagreb>
104

$$$$