Oc1ccc(cc1)C(OC)=O
  MOE2013           2D

 11 11  0  0  0  0  0  0  0  0999 V2000
    0.0000    0.0000    0.0000 O   0  0  0  0  0  0  0  0  0  0  0  0
    1.5000   -0.0110    0.0000 C   0  0  0  0  0  0  0  0  0  0  0  0
    2.2400   -1.3160    0.0000 C   0  0  0  0  0  0  0  0  0  0  0  0
    3.7400   -1.3270    0.0000 C   0  0  0  0  0  0  0  0  0  0  0  0
    4.5000   -0.0340    0.0000 C   0  0  0  0  0  0  0  0  0  0  0  0
    3.7600    1.2710    0.0000 C   0  0  0  0  0  0  0  0  0  0  0  0
    2.2600    1.2820    0.0000 C   0  0  0  0  0  0  0  0  0  0  0  0
    6.0000   -0.0450    0.0000 C   0  0  0  0  0  0  0  0  0  0  0  0
    6.7400   -1.3500    0.0000 O   0  0  0  0  0  0  0  0  0  0  0  0
    8.2400   -1.3610    0.0000 C   0  0  0  0  0  0  0  0  0  0  0  0
    6.7600    1.2480    0.0000 O   0  0  0  0  0  0  0  0  0  0  0  0
  1  2  1  0  0  0  0
  2  3  1  0  0  0  0
  2  7  2  0  0  0  0
  3  4  2  0  0  0  0
  4  5  1  0  0  0  0
  5  6  2  0  0  0  0
  5  8  1  0  0  0  0
  6  7  1  0  0  0  0
  8  9  1  0  0  0  0
  8 11  2  0  0  0  0
  9 10  1  0  0  0  0
M  END
>  <Index>
1229

>  <ID>
HT2639

>  <class>
0

>  <apol>
21.820345

>  <ast_fraglike>
1

>  <ast_fraglike_ext>
1

>  <ast_violation>
0

>  <ast_violation_ext>
0

>  <a_acc>
2

>  <a_acid>
0

>  <a_aro>
6

>  <a_base>
0

>  <a_count>
19

>  <a_don>
1

>  <a_donacc>
3

>  <a_heavy>
11

>  <a_hyd>
7

>  <a_IC>
27.955736

>  <a_ICM>
1.4713545

>  <a_nB>
0

>  <a_nBr>
0

>  <a_nC>
8

>  <a_nCl>
0

>  <a_nF>
0

>  <a_nH>
8

>  <a_nI>
0

>  <a_nN>
0

>  <a_nO>
3

>  <a_nP>
0

>  <a_nS>
0

>  <balabanJ>
2.3070953

>  <BCUT_PEOE_0>
-2.2176795

>  <BCUT_PEOE_1>
-0.64125735

>  <BCUT_PEOE_2>
0.70453554

>  <BCUT_PEOE_3>
2.230947

>  <BCUT_SLOGP_0>
-2.2526352

>  <BCUT_SLOGP_1>
-0.53807992

>  <BCUT_SLOGP_2>
0.80591482

>  <BCUT_SLOGP_3>
2.3358626

>  <BCUT_SMR_0>
-1.9514842

>  <BCUT_SMR_1>
-0.49986199

>  <BCUT_SMR_2>
0.85431087

>  <BCUT_SMR_3>
2.5151107

>  <bpol>
11.619656

>  <b_1rotN>
1

>  <b_1rotR>
0.090909094

>  <b_ar>
6

>  <b_count>
19

>  <b_double>
1

>  <b_heavy>
11

>  <b_max1len>
2

>  <b_rotN>
2

>  <b_rotR>
0.18181819

>  <b_single>
12

>  <b_triple>
0

>  <chi0>
8.2675848

>  <chi0v>
6.0731111

>  <chi0v_C>
4.809401

>  <chi0_C>
5.5604777

>  <chi1>
5.236382

>  <chi1v>
3.1114707

>  <chi1v_C>
2.0713673

>  <chi1_C>
2.9663265

>  <chiral>
0

>  <chiral_u>
0

>  <density>
0.76807731

>  <diameter>
7

>  <FCharge>
0

>  <GCUT_PEOE_0>
-0.76571923

>  <GCUT_PEOE_1>
-0.41835931

>  <GCUT_PEOE_2>
0.083391421

>  <GCUT_PEOE_3>
2.0417736

>  <GCUT_SLOGP_0>
-0.83107531

>  <GCUT_SLOGP_1>
-0.26386139

>  <GCUT_SLOGP_2>
0.16445385

>  <GCUT_SLOGP_3>
2.1569533

>  <GCUT_SMR_0>
-0.48252708

>  <GCUT_SMR_1>
-0.21605732

>  <GCUT_SMR_2>
0.19305076

>  <GCUT_SMR_3>
2.3218639

>  <Kier1>
9.090909

>  <Kier2>
4.1326532

>  <Kier3>
2.5

>  <KierA1>
6.5231295

>  <KierA2>
2.8546913

>  <KierA3>
1.6685418

>  <KierFlex>
1.6928656

>  <lip_acc>
3

>  <lip_don>
1

>  <lip_druglike>
1

>  <lip_violation>
0

>  <logP(o/w)>
1.539

>  <logS>
-1.40466

>  <mr>
4.0819883

>  <mutagenic>
0

>  <nmol>
1

>  <opr_brigid>
6

>  <opr_leadlike>
1

>  <opr_nring>
1

>  <opr_nrot>
1

>  <opr_violation>
0

>  <PC+>
0

>  <PC->
0

>  <PEOE_PC+>
1.089119

>  <PEOE_PC->
-1.089119

>  <PEOE_RPC+>
0.26953629

>  <PEOE_RPC->
0.33038825

>  <PEOE_VSA+0>
27.206198

>  <PEOE_VSA+1>
38.316223

>  <PEOE_VSA+2>
0

>  <PEOE_VSA+3>
0

>  <PEOE_VSA+4>
10.324173

>  <PEOE_VSA+5>
14.708499

>  <PEOE_VSA+6>
0

>  <PEOE_VSA-0>
49.019615

>  <PEOE_VSA-1>
0

>  <PEOE_VSA-2>
0

>  <PEOE_VSA-3>
0

>  <PEOE_VSA-4>
0

>  <PEOE_VSA-5>
13.566921

>  <PEOE_VSA-6>
10.271297

>  <PEOE_VSA_FHYD>
0.7009362

>  <PEOE_VSA_FNEG>
0.44585112

>  <PEOE_VSA_FPNEG>
0.14587718

>  <PEOE_VSA_FPOL>
0.2990638

>  <PEOE_VSA_FPOS>
0.55414891

>  <PEOE_VSA_FPPOS>
0.1531866

>  <PEOE_VSA_HYD>
114.54204

>  <PEOE_VSA_NEG>
72.857834

>  <PEOE_VSA_PNEG>
23.838217

>  <PEOE_VSA_POL>
48.870888

>  <PEOE_VSA_POS>
90.555092

>  <PEOE_VSA_PPOS>
25.032671

>  <petitjean>
0.42857143

>  <petitjeanSC>
0.75

>  <Q_PC+>
0

>  <Q_PC->
0

>  <Q_RPC+>
0

>  <Q_RPC->
0

>  <Q_VSA_FHYD>
1

>  <Q_VSA_FNEG>
0

>  <Q_VSA_FPNEG>
0

>  <Q_VSA_FPOL>
0

>  <Q_VSA_FPOS>
1

>  <Q_VSA_FPPOS>
0

>  <Q_VSA_HYD>
163.41292

>  <Q_VSA_NEG>
0

>  <Q_VSA_PNEG>
0

>  <Q_VSA_POL>
0

>  <Q_VSA_POS>
163.41292

>  <Q_VSA_PPOS>
0

>  <radius>
4

>  <reactive>
0

>  <rings>
1

>  <RPC+>
0

>  <RPC->
0

>  <rsynth>
1

>  <SlogP>
1.1788

>  <SlogP_VSA0>
25.385227

>  <SlogP_VSA1>
7.7454643

>  <SlogP_VSA2>
10.999887

>  <SlogP_VSA3>
0

>  <SlogP_VSA4>
27.047791

>  <SlogP_VSA5>
35.383869

>  <SlogP_VSA6>
0

>  <SlogP_VSA7>
70.572739

>  <SlogP_VSA8>
0

>  <SlogP_VSA9>
5.2434282

>  <SMR>
3.9446299

>  <SMR_VSA0>
34.862103

>  <SMR_VSA1>
25.385227

>  <SMR_VSA2>
0

>  <SMR_VSA3>
8.4290028

>  <SMR_VSA4>
0

>  <SMR_VSA5>
70.572739

>  <SMR_VSA6>
7.7454643

>  <SMR_VSA7>
35.383869

>  <TPSA>
46.529999

>  <VAdjEq>
0.68403846

>  <VAdjMa>
4.4594316

>  <VDistEq>
2.5117786

>  <VDistMa>
6.5841622

>  <vdw_area>
163.41292

>  <vdw_vol>
198.09073

>  <vsa_acc>
13.566921

>  <vsa_acid>
0

>  <vsa_base>
0

>  <vsa_don>
0

>  <vsa_hyd>
109.55946

>  <vsa_other>
17.212255

>  <vsa_pol>
27.133842

>  <Weight>
152.149

>  <weinerPath>
160

>  <weinerPol>
13

>  <zagreb>
50

$$$$