O1[C@@H](C)[C@@H](O)[C@@H](N2C[C@H](OCC2)OC)C[C@@H]1O[C@@H]1c2c(C[C@@](O)(C1)C(=O)CO)c(O)c1c(C(=O)c3c(cccc3OC)C1=O)c2O
  MOE2013           2D

 46 51  0  0  1  0  0  0  0  0999 V2000
    0.0000    0.0000    0.0000 O   0  0  0  0  0  0  0  0  0  0  0  0
    1.5000   -0.0130    0.0000 C   0  0  1  0  0  0  0  0  0  0  0  0
    2.2610    1.2800    0.0000 C   0  0  0  0  0  0  0  0  0  0  0  0
    2.2390   -1.3180    0.0000 C   0  0  1  0  0  0  0  0  0  0  0  0
    3.7390   -1.3310    0.0000 O   0  0  0  0  0  0  0  0  0  0  0  0
    1.4780   -2.6110    0.0000 C   0  0  1  0  0  0  0  0  0  0  0  0
    2.2170   -3.9160    0.0000 N   0  0  3  0  0  0  0  0  0  0  0  0
    3.7170   -3.9290    0.0000 C   0  0  0  0  0  0  0  0  0  0  0  0
    4.4560   -5.2340    0.0000 C   0  0  2  0  0  0  0  0  0  0  0  0
    3.6950   -6.5270    0.0000 O   0  0  0  0  0  0  0  0  0  0  0  0
    2.1950   -6.5140    0.0000 C   0  0  0  0  0  0  0  0  0  0  0  0
    1.4560   -5.2090    0.0000 C   0  0  0  0  0  0  0  0  0  0  0  0
    5.9560   -5.2470    0.0000 O   0  0  0  0  0  0  0  0  0  0  0  0
    6.6940   -6.5520    0.0000 C   0  0  0  0  0  0  0  0  0  0  0  0
   -0.0220   -2.5980    0.0000 C   0  0  0  0  0  0  0  0  0  0  0  0
   -0.7610   -1.2930    0.0000 C   0  0  2  0  0  0  0  0  0  0  0  0
   -2.2610   -1.2800    0.0000 O   0  0  0  0  0  0  0  0  0  0  0  0
   -3.0000    0.0260    0.0000 C   0  0  2  0  0  0  0  0  0  0  0  0
   -4.5000    0.0380    0.0000 C   0  0  0  0  0  0  0  0  0  0  0  0
   -5.2390    1.3440    0.0000 C   0  0  0  0  0  0  0  0  0  0  0  0
   -4.4780    2.6360    0.0000 C   0  0  0  0  0  0  0  0  0  0  0  0
   -2.9780    2.6240    0.0000 C   0  0  1  0  0  0  0  0  0  0  0  0
   -1.6720    3.3620    0.0000 O   0  0  0  0  0  0  0  0  0  0  0  0
   -2.2390    1.3180    0.0000 C   0  0  0  0  0  0  0  0  0  0  0  0
   -2.9650    4.1230    0.0000 C   0  0  0  0  0  0  0  0  0  0  0  0
   -1.6600    4.8620    0.0000 O   0  0  0  0  0  0  0  0  0  0  0  0
   -4.2580    4.8840    0.0000 C   0  0  0  0  0  0  0  0  0  0  0  0
   -4.2450    6.3840    0.0000 O   0  0  0  0  0  0  0  0  0  0  0  0
   -6.7390    1.3560    0.0000 C   0  0  0  0  0  0  0  0  0  0  0  0
   -7.4780    2.6620    0.0000 O   0  0  0  0  0  0  0  0  0  0  0  0
   -7.5000    0.0640    0.0000 C   0  0  0  0  0  0  0  0  0  0  0  0
   -6.7610   -1.2420    0.0000 C   0  0  0  0  0  0  0  0  0  0  0  0
   -7.5220   -2.5340    0.0000 C   0  0  0  0  0  0  0  0  0  0  0  0
   -6.7830   -3.8400    0.0000 O   0  0  0  0  0  0  0  0  0  0  0  0
   -9.0220   -2.5210    0.0000 C   0  0  0  0  0  0  0  0  0  0  0  0
   -9.7610   -1.2160    0.0000 C   0  0  0  0  0  0  0  0  0  0  0  0
  -11.2610   -1.2030    0.0000 C   0  0  0  0  0  0  0  0  0  0  0  0
  -12.0220   -2.4960    0.0000 C   0  0  0  0  0  0  0  0  0  0  0  0
  -11.2830   -3.8010    0.0000 C   0  0  0  0  0  0  0  0  0  0  0  0
   -9.7830   -3.8140    0.0000 C   0  0  0  0  0  0  0  0  0  0  0  0
   -9.0440   -5.1190    0.0000 O   0  0  0  0  0  0  0  0  0  0  0  0
   -9.8050   -6.4120    0.0000 C   0  0  0  0  0  0  0  0  0  0  0  0
   -9.0000    0.0770    0.0000 C   0  0  0  0  0  0  0  0  0  0  0  0
   -9.7390    1.3820    0.0000 O   0  0  0  0  0  0  0  0  0  0  0  0
   -5.2610   -1.2540    0.0000 C   0  0  0  0  0  0  0  0  0  0  0  0
   -4.5220   -2.5600    0.0000 O   0  0  0  0  0  0  0  0  0  0  0  0
  1  2  1  0  0  0  0
  1 16  1  0  0  0  0
  2  3  1  1  0  0  0
  2  4  1  0  0  0  0
  4  5  1  1  0  0  0
  4  6  1  0  0  0  0
  6  7  1  1  0  0  0
  6 15  1  0  0  0  0
  7  8  1  0  0  0  0
  7 12  1  0  0  0  0
  8  9  1  0  0  0  0
  9 10  1  0  0  0  0
  9 13  1  1  0  0  0
 10 11  1  0  0  0  0
 11 12  1  0  0  0  0
 13 14  1  0  0  0  0
 15 16  1  0  0  0  0
 16 17  1  6  0  0  0
 18 17  1  6  0  0  0
 18 19  1  0  0  0  0
 18 24  1  0  0  0  0
 19 20  1  0  0  0  0
 19 45  2  0  0  0  0
 20 21  1  0  0  0  0
 20 29  2  0  0  0  0
 21 22  1  0  0  0  0
 22 23  1  1  0  0  0
 22 24  1  0  0  0  0
 22 25  1  6  0  0  0
 25 26  2  0  0  0  0
 25 27  1  0  0  0  0
 27 28  1  0  0  0  0
 29 30  1  0  0  0  0
 29 31  1  0  0  0  0
 31 32  2  0  0  0  0
 31 43  1  0  0  0  0
 32 33  1  0  0  0  0
 32 45  1  0  0  0  0
 33 34  2  0  0  0  0
 33 35  1  0  0  0  0
 35 36  1  0  0  0  0
 35 40  2  0  0  0  0
 36 37  2  0  0  0  0
 36 43  1  0  0  0  0
 37 38  1  0  0  0  0
 38 39  2  0  0  0  0
 39 40  1  0  0  0  0
 40 41  1  0  0  0  0
 41 42  1  0  0  0  0
 43 44  2  0  0  0  0
 45 46  1  0  0  0  0
M  END
>  <Index>
1405

>  <ID>
HT3974

>  <class>
0

>  <apol>
92.517342

>  <ast_fraglike>
0

>  <ast_fraglike_ext>
0

>  <ast_violation>
3

>  <ast_violation_ext>
5

>  <a_acc>
14

>  <a_acid>
0

>  <a_aro>
12

>  <a_base>
0

>  <a_count>
83

>  <a_don>
5

>  <a_donacc>
19

>  <a_heavy>
46

>  <a_hyd>
27

>  <a_IC>
128.27278

>  <a_ICM>
1.5454552

>  <a_nB>
0

>  <a_nBr>
0

>  <a_nC>
32

>  <a_nCl>
0

>  <a_nF>
0

>  <a_nH>
37

>  <a_nI>
0

>  <a_nN>
1

>  <a_nO>
13

>  <a_nP>
0

>  <a_nS>
0

>  <balabanJ>
1.2959065

>  <BCUT_PEOE_0>
-2.8106339

>  <BCUT_PEOE_1>
-0.52934909

>  <BCUT_PEOE_2>
0.57663423

>  <BCUT_PEOE_3>
2.8032126

>  <BCUT_SLOGP_0>
-2.9313486

>  <BCUT_SLOGP_1>
-0.50412303

>  <BCUT_SLOGP_2>
0.54777187

>  <BCUT_SLOGP_3>
2.7551603

>  <BCUT_SMR_0>
-2.5725267

>  <BCUT_SMR_1>
-0.37541214

>  <BCUT_SMR_2>
0.72484636

>  <BCUT_SMR_3>
3.0277491

>  <bpol>
54.88266

>  <b_1rotN>
7

>  <b_1rotR>
0.13725491

>  <b_ar>
12

>  <b_count>
88

>  <b_double>
3

>  <b_heavy>
51

>  <b_max1len>
6

>  <b_rotN>
7

>  <b_rotR>
0.13725491

>  <b_single>
73

>  <b_triple>
0

>  <chi0>
33.076256

>  <chi0v>
25.595167

>  <chi0v_C>
19.645901

>  <chi0_C>
20.963373

>  <chi1>
21.932108

>  <chi1v>
15.045699

>  <chi1v_C>
9.5739155

>  <chi1_C>
11.339119

>  <chiral>
7

>  <chiral_u>
0

>  <density>
0.81042767

>  <diameter>
17

>  <FCharge>
0

>  <GCUT_PEOE_0>
-0.83619785

>  <GCUT_PEOE_1>
-0.43244839

>  <GCUT_PEOE_2>
0.064583026

>  <GCUT_PEOE_3>
3.1850114

>  <GCUT_SLOGP_0>
-0.96588624

>  <GCUT_SLOGP_1>
-0.37888351

>  <GCUT_SLOGP_2>
0.005320542

>  <GCUT_SLOGP_3>
3.1941934

>  <GCUT_SMR_0>
-0.52519441

>  <GCUT_SMR_1>
-0.21171311

>  <GCUT_SMR_2>
0.17343575

>  <GCUT_SMR_3>
3.4166305

>  <Kier1>
35.813148

>  <Kier2>
14.319527

>  <Kier3>
6.4056635

>  <KierA1>
30.293053

>  <KierA2>
12.065387

>  <KierA3>
5.3827848

>  <KierFlex>
7.9455957

>  <lip_acc>
14

>  <lip_don>
5

>  <lip_druglike>
0

>  <lip_violation>
2

>  <logP(o/w)>
0.98199999

>  <logS>
-4.3509798

>  <mr>
15.77935

>  <mutagenic>
0

>  <nmol>
1

>  <opr_brigid>
33

>  <opr_leadlike>
0

>  <opr_nring>
6

>  <opr_nrot>
12

>  <opr_violation>
4

>  <PC+>
0

>  <PC->
0

>  <PEOE_PC+>
4.9473519

>  <PEOE_PC->
-4.9473519

>  <PEOE_RPC+>
0.043933168

>  <PEOE_RPC->
0.07836137

>  <PEOE_VSA+0>
156.57002

>  <PEOE_VSA+1>
151.63654

>  <PEOE_VSA+2>
14.951293

>  <PEOE_VSA+3>
47.685375

>  <PEOE_VSA+4>
51.620865

>  <PEOE_VSA+5>
0

>  <PEOE_VSA+6>
0

>  <PEOE_VSA-0>
33.211121

>  <PEOE_VSA-1>
24.509808

>  <PEOE_VSA-2>
0

>  <PEOE_VSA-3>
0

>  <PEOE_VSA-4>
0

>  <PEOE_VSA-5>
40.700764

>  <PEOE_VSA-6>
51.356483

>  <PEOE_VSA_FHYD>
0.74892086

>  <PEOE_VSA_FNEG>
0.2617391

>  <PEOE_VSA_FPNEG>
0.1608711

>  <PEOE_VSA_FPOL>
0.25107917

>  <PEOE_VSA_FPOS>
0.73826092

>  <PEOE_VSA_FPPOS>
0.090208061

>  <PEOE_VSA_HYD>
428.56415

>  <PEOE_VSA_NEG>
149.77817

>  <PEOE_VSA_PNEG>
92.057243

>  <PEOE_VSA_POL>
143.6781

>  <PEOE_VSA_POS>
422.46408

>  <PEOE_VSA_PPOS>
51.620865

>  <petitjean>
0.47058824

>  <petitjeanSC>
0.8888889

>  <Q_PC+>
0

>  <Q_PC->
0

>  <Q_RPC+>
0

>  <Q_RPC->
0

>  <Q_VSA_FHYD>
1

>  <Q_VSA_FNEG>
0

>  <Q_VSA_FPNEG>
0

>  <Q_VSA_FPOL>
0

>  <Q_VSA_FPOS>
1

>  <Q_VSA_FPPOS>
0

>  <Q_VSA_HYD>
572.24225

>  <Q_VSA_NEG>
0

>  <Q_VSA_PNEG>
0

>  <Q_VSA_POL>
0

>  <Q_VSA_POS>
572.24225

>  <Q_VSA_PPOS>
0

>  <radius>
9

>  <reactive>
1

>  <rings>
6

>  <RPC+>
0

>  <RPC->
0

>  <rsynth>
0.65217394

>  <SlogP>
0.44277

>  <SlogP_VSA0>
137.92603

>  <SlogP_VSA1>
20.187147

>  <SlogP_VSA2>
101.83404

>  <SlogP_VSA3>
78.731674

>  <SlogP_VSA4>
66.837883

>  <SlogP_VSA5>
89.636139

>  <SlogP_VSA6>
0

>  <SlogP_VSA7>
52.929554

>  <SlogP_VSA8>
44.20546

>  <SlogP_VSA9>
49.056297

>  <SMR>
15.6

>  <SMR_VSA0>
115.5862

>  <SMR_VSA1>
141.05034

>  <SMR_VSA2>
0

>  <SMR_VSA3>
75.284653

>  <SMR_VSA4>
0

>  <SMR_VSA5>
109.53477

>  <SMR_VSA6>
95.79451

>  <SMR_VSA7>
104.09375

>  <TPSA>
201.75

>  <VAdjEq>
0.2787188

>  <VAdjMa>
6.6724253

>  <VDistEq>
3.8161542

>  <VDistMa>
10.797759

>  <vdw_area>
572.24225

>  <vdw_vol>
794.20044

>  <vsa_acc>
53.219543

>  <vsa_acid>
0

>  <vsa_base>
0

>  <vsa_don>
0

>  <vsa_hyd>
350.99414

>  <vsa_other>
54.792557

>  <vsa_pol>
121.05415

>  <Weight>
643.64197

>  <weinerPath>
7108

>  <weinerPol>
96

>  <zagreb>
258

$$$$