O=C1N(C)C(=O)N(C)C(=O)C1(C(CC)C)CC=C
  MOE2013           2D

 18 18  0  0  1  0  0  0  0  0999 V2000
    0.0000    0.0000    0.0000 O   0  0  0  0  0  0  0  0  0  0  0  0
    0.7480    1.3000    0.0000 C   0  0  0  0  0  0  0  0  0  0  0  0
    2.2480    1.3020    0.0000 N   0  0  0  0  0  0  0  0  0  0  0  0
    3.0000    0.0040    0.0000 C   0  0  0  0  0  0  0  0  0  0  0  0
    2.9970    2.6020    0.0000 C   0  0  0  0  0  0  0  0  0  0  0  0
    4.4970    2.6040    0.0000 O   0  0  0  0  0  0  0  0  0  0  0  0
    2.2450    3.9000    0.0000 N   0  0  0  0  0  0  0  0  0  0  0  0
    2.9930    5.2000    0.0000 C   0  0  0  0  0  0  0  0  0  0  0  0
    0.7450    3.8980    0.0000 C   0  0  0  0  0  0  0  0  0  0  0  0
   -0.0070    5.1960    0.0000 O   0  0  0  0  0  0  0  0  0  0  0  0
   -0.0030    2.5980    0.0000 C   0  0  0  0  0  0  0  0  0  0  0  0
   -1.3010    1.8460    0.0000 C   0  0  3  0  0  0  0  0  0  0  0  0
   -2.6010    2.5950    0.0000 C   0  0  0  0  0  0  0  0  0  0  0  0
   -3.8990    1.8430    0.0000 C   0  0  0  0  0  0  0  0  0  0  0  0
   -1.2990    0.3460    0.0000 C   0  0  0  0  0  0  0  0  0  0  0  0
   -1.3030    3.3460    0.0000 C   0  0  0  0  0  0  0  0  0  0  0  0
   -1.3050    4.8460    0.0000 C   0  0  0  0  0  0  0  0  0  0  0  0
   -2.6050    5.5950    0.0000 C   0  0  0  0  0  0  0  0  0  0  0  0
  1  2  2  0  0  0  0
  2  3  1  0  0  0  0
  2 11  1  0  0  0  0
  3  4  1  0  0  0  0
  3  5  1  0  0  0  0
  5  6  2  0  0  0  0
  5  7  1  0  0  0  0
  7  8  1  0  0  0  0
  7  9  1  0  0  0  0
  9 10  2  0  0  0  0
  9 11  1  0  0  0  0
 11 12  1  0  0  0  0
 11 16  1  0  0  0  0
 12 13  1  0  0  0  0
 12 15  1  0  0  0  0
 13 14  1  0  0  0  0
 16 17  1  0  0  0  0
 17 18  2  0  0  0  0
M  END
>  <Index>
1031

>  <ID>
HT1974

>  <class>
0

>  <apol>
40.821861

>  <ast_fraglike>
1

>  <ast_fraglike_ext>
0

>  <ast_violation>
0

>  <ast_violation_ext>
1

>  <a_acc>
3

>  <a_acid>
0

>  <a_aro>
0

>  <a_base>
0

>  <a_count>
38

>  <a_don>
0

>  <a_donacc>
3

>  <a_heavy>
18

>  <a_hyd>
10

>  <a_IC>
58.122078

>  <a_ICM>
1.5295284

>  <a_nB>
0

>  <a_nBr>
0

>  <a_nC>
13

>  <a_nCl>
0

>  <a_nF>
0

>  <a_nH>
20

>  <a_nI>
0

>  <a_nN>
2

>  <a_nO>
3

>  <a_nP>
0

>  <a_nS>
0

>  <balabanJ>
3.2049222

>  <BCUT_PEOE_0>
-2.7132468

>  <BCUT_PEOE_1>
-0.24105999

>  <BCUT_PEOE_2>
0.050718334

>  <BCUT_PEOE_3>
2.7681103

>  <BCUT_SLOGP_0>
-2.7962492

>  <BCUT_SLOGP_1>
-0.14041363

>  <BCUT_SLOGP_2>
0.20064336

>  <BCUT_SLOGP_3>
2.7617748

>  <BCUT_SMR_0>
-2.4789331

>  <BCUT_SMR_1>
0.049543072

>  <BCUT_SMR_2>
0.1057

>  <BCUT_SMR_3>
2.9999571

>  <bpol>
28.698139

>  <b_1rotN>
4

>  <b_1rotR>
0.22222222

>  <b_ar>
0

>  <b_count>
38

>  <b_double>
4

>  <b_heavy>
18

>  <b_max1len>
7

>  <b_rotN>
4

>  <b_rotR>
0.22222222

>  <b_single>
34

>  <b_triple>
0

>  <chi0>
14.085422

>  <chi0v>
11.395193

>  <chi0v_C>
9.276021

>  <chi0_C>
9.9307213

>  <chi1>
8.3394756

>  <chi1v>
6.0526571

>  <chi1v_C>
3.6514304

>  <chi1_C>
4.119391

>  <chiral>
1

>  <chiral_u>
1

>  <density>
0.71880263

>  <diameter>
7

>  <FCharge>
0

>  <GCUT_PEOE_0>
-0.79024595

>  <GCUT_PEOE_1>
-0.41250673

>  <GCUT_PEOE_2>
-0.10928167

>  <GCUT_PEOE_3>
2.764003

>  <GCUT_SLOGP_0>
-0.98045409

>  <GCUT_SLOGP_1>
-0.2638188

>  <GCUT_SLOGP_2>
-0.037

>  <GCUT_SLOGP_3>
2.7456527

>  <GCUT_SMR_0>
-0.53252894

>  <GCUT_SMR_1>
-0.13755655

>  <GCUT_SMR_2>
-0.054299999

>  <GCUT_SMR_3>
2.9903803

>  <Kier1>
16.055555

>  <Kier2>
5.9698215

>  <Kier3>
2.4000001

>  <KierA1>
12.234954

>  <KierA2>
4.470336

>  <KierA3>
1.7739844

>  <KierFlex>
3.0385752

>  <lip_acc>
5

>  <lip_don>
0

>  <lip_druglike>
1

>  <lip_violation>
0

>  <logP(o/w)>
1.874

>  <logS>
-2.82477

>  <mr>
6.8962984

>  <mutagenic>
0

>  <nmol>
1

>  <opr_brigid>
7

>  <opr_leadlike>
1

>  <opr_nring>
1

>  <opr_nrot>
4

>  <opr_violation>
0

>  <PC+>
0

>  <PC->
0

>  <PEOE_PC+>
1.7252038

>  <PEOE_PC->
-1.7252038

>  <PEOE_RPC+>
0.19344185

>  <PEOE_RPC->
0.15731546

>  <PEOE_VSA+0>
118.98894

>  <PEOE_VSA+1>
12.796158

>  <PEOE_VSA+2>
0

>  <PEOE_VSA+3>
0

>  <PEOE_VSA+4>
25.899061

>  <PEOE_VSA+5>
0

>  <PEOE_VSA+6>
17.440542

>  <PEOE_VSA-0>
8.701313

>  <PEOE_VSA-1>
58.451572

>  <PEOE_VSA-2>
22.301268

>  <PEOE_VSA-3>
0

>  <PEOE_VSA-4>
13.566921

>  <PEOE_VSA-5>
27.133842

>  <PEOE_VSA-6>
0

>  <PEOE_VSA_FHYD>
0.72471017

>  <PEOE_VSA_FNEG>
0.42634657

>  <PEOE_VSA_FPNEG>
0.13332289

>  <PEOE_VSA_FPOL>
0.2752898

>  <PEOE_VSA_FPOS>
0.57365346

>  <PEOE_VSA_FPPOS>
0.14196691

>  <PEOE_VSA_HYD>
221.23926

>  <PEOE_VSA_NEG>
130.15492

>  <PEOE_VSA_PNEG>
40.700764

>  <PEOE_VSA_POL>
84.040367

>  <PEOE_VSA_POS>
175.12471

>  <PEOE_VSA_PPOS>
43.339603

>  <petitjean>
0.42857143

>  <petitjeanSC>
0.75

>  <Q_PC+>
0

>  <Q_PC->
0

>  <Q_RPC+>
0

>  <Q_RPC->
0

>  <Q_VSA_FHYD>
1

>  <Q_VSA_FNEG>
0

>  <Q_VSA_FPNEG>
0

>  <Q_VSA_FPOL>
0

>  <Q_VSA_FPOS>
1

>  <Q_VSA_FPPOS>
0

>  <Q_VSA_HYD>
305.27963

>  <Q_VSA_NEG>
0

>  <Q_VSA_PNEG>
0

>  <Q_VSA_POL>
0

>  <Q_VSA_POS>
305.27963

>  <Q_VSA_PPOS>
0

>  <radius>
4

>  <reactive>
0

>  <rings>
1

>  <RPC+>
0

>  <RPC->
0

>  <rsynth>
1

>  <SlogP>
1.6454

>  <SlogP_VSA0>
0

>  <SlogP_VSA1>
21.596151

>  <SlogP_VSA2>
47.724434

>  <SlogP_VSA3>
0

>  <SlogP_VSA4>
4.4107962

>  <SlogP_VSA5>
65.794373

>  <SlogP_VSA6>
0

>  <SlogP_VSA7>
17.643185

>  <SlogP_VSA8>
37.736813

>  <SlogP_VSA9>
122.61504

>  <SMR>
6.7638001

>  <SMR_VSA0>
71.586647

>  <SMR_VSA1>
6.2486277

>  <SMR_VSA2>
4.4107962

>  <SMR_VSA3>
0

>  <SMR_VSA4>
0

>  <SMR_VSA5>
55.379993

>  <SMR_VSA6>
15.347524

>  <SMR_VSA7>
164.5472

>  <TPSA>
57.689999

>  <VAdjEq>
0.50325835

>  <VAdjMa>
5.1699252

>  <VDistEq>
2.5451417

>  <VDistMa>
8.1127386

>  <vdw_area>
305.27963

>  <vdw_vol>
351.01987

>  <vsa_acc>
40.700764

>  <vsa_acid>
0

>  <vsa_base>
0

>  <vsa_don>
0

>  <vsa_hyd>
205.65829

>  <vsa_other>
43.339603

>  <vsa_pol>
40.700764

>  <Weight>
252.314

>  <weinerPath>
517

>  <weinerPol>
37

>  <zagreb>
90

$$$$