o1c2c(cc1C(=O)N)cc(N1CCN(CC1)CCCCc1c3cc(ccc3[nH]c1)C#N)cc2
  MOE2013           2D

 33 37  0  0  0  0  0  0  0  0999 V2000
    0.0000    0.0000    0.0000 O   0  0  0  0  0  0  0  0  0  0  0  0
   -1.5000   -0.0060    0.0000 C   0  0  0  0  0  0  0  0  0  0  0  0
   -1.9580   -1.4350    0.0000 C   0  0  0  0  0  0  0  0  0  0  0  0
   -0.7400   -2.3110    0.0000 C   0  0  0  0  0  0  0  0  0  0  0  0
    0.4690   -1.4250    0.0000 C   0  0  0  0  0  0  0  0  0  0  0  0
    1.8980   -1.8820    0.0000 C   0  0  0  0  0  0  0  0  0  0  0  0
    3.0090   -0.8740    0.0000 O   0  0  0  0  0  0  0  0  0  0  0  0
    2.2160   -3.3480    0.0000 N   0  0  0  0  0  0  0  0  0  0  0  0
   -3.4230   -1.7530    0.0000 C   0  0  0  0  0  0  0  0  0  0  0  0
   -4.4320   -0.6420    0.0000 C   0  0  0  0  0  0  0  0  0  0  0  0
   -5.8980   -0.9600    0.0000 N   0  0  0  0  0  0  0  0  0  0  0  0
   -6.9060    0.1500    0.0000 C   0  0  0  0  0  0  0  0  0  0  0  0
   -8.3720   -0.1680    0.0000 C   0  0  0  0  0  0  0  0  0  0  0  0
   -8.8300   -1.5960    0.0000 N   0  0  0  0  0  0  0  0  0  0  0  0
   -7.8210   -2.7070    0.0000 C   0  0  0  0  0  0  0  0  0  0  0  0
   -6.3550   -2.3890    0.0000 C   0  0  0  0  0  0  0  0  0  0  0  0
  -10.2950   -1.9140    0.0000 C   0  0  0  0  0  0  0  0  0  0  0  0
  -11.3040   -0.8040    0.0000 C   0  0  0  0  0  0  0  0  0  0  0  0
  -12.7700   -1.1220    0.0000 C   0  0  0  0  0  0  0  0  0  0  0  0
  -13.7780   -0.0110    0.0000 C   0  0  0  0  0  0  0  0  0  0  0  0
  -15.2440   -0.3290    0.0000 C   0  0  0  0  0  0  0  0  0  0  0  0
  -16.3630    0.6700    0.0000 C   0  0  0  0  0  0  0  0  0  0  0  0
  -16.3690    2.1700    0.0000 C   0  0  0  0  0  0  0  0  0  0  0  0
  -17.6710    2.9140    0.0000 C   0  0  0  0  0  0  0  0  0  0  0  0
  -18.9670    2.1590    0.0000 C   0  0  0  0  0  0  0  0  0  0  0  0
  -18.9610    0.6590    0.0000 C   0  0  0  0  0  0  0  0  0  0  0  0
  -17.6590   -0.0860    0.0000 C   0  0  0  0  0  0  0  0  0  0  0  0
  -17.3410   -1.5520    0.0000 N   0  0  0  0  0  0  0  0  0  0  0  0
  -15.8480   -1.7020    0.0000 C   0  0  0  0  0  0  0  0  0  0  0  0
  -17.6780    4.4140    0.0000 C   0  0  0  0  0  0  0  0  0  0  0  0
  -17.6840    5.9140    0.0000 N   0  0  0  0  0  0  0  0  0  0  0  0
   -3.9740    0.7860    0.0000 C   0  0  0  0  0  0  0  0  0  0  0  0
   -2.5080    1.1040    0.0000 C   0  0  0  0  0  0  0  0  0  0  0  0
  1  2  1  0  0  0  0
  1  5  1  0  0  0  0
  2  3  1  0  0  0  0
  2 33  2  0  0  0  0
  3  4  1  0  0  0  0
  3  9  2  0  0  0  0
  4  5  2  0  0  0  0
  5  6  1  0  0  0  0
  6  7  2  0  0  0  0
  6  8  1  0  0  0  0
  9 10  1  0  0  0  0
 10 11  1  0  0  0  0
 10 32  2  0  0  0  0
 11 12  1  0  0  0  0
 11 16  1  0  0  0  0
 12 13  1  0  0  0  0
 13 14  1  0  0  0  0
 14 15  1  0  0  0  0
 14 17  1  0  0  0  0
 15 16  1  0  0  0  0
 17 18  1  0  0  0  0
 18 19  1  0  0  0  0
 19 20  1  0  0  0  0
 20 21  1  0  0  0  0
 21 22  1  0  0  0  0
 21 29  2  0  0  0  0
 22 23  1  0  0  0  0
 22 27  2  0  0  0  0
 23 24  2  0  0  0  0
 24 25  1  0  0  0  0
 24 30  1  0  0  0  0
 25 26  2  0  0  0  0
 26 27  1  0  0  0  0
 27 28  1  0  0  0  0
 28 29  1  0  0  0  0
 30 31  3  0  0  0  0
 32 33  1  0  0  0  0
M  END
>  <Index>
1143

>  <ID>
HT2178

>  <class>
0

>  <apol>
70.867409

>  <ast_fraglike>
0

>  <ast_fraglike_ext>
0

>  <ast_violation>
2

>  <ast_violation_ext>
3

>  <a_acc>
3

>  <a_acid>
0

>  <a_aro>
18

>  <a_base>
0

>  <a_count>
60

>  <a_don>
2

>  <a_donacc>
5

>  <a_heavy>
33

>  <a_hyd>
22

>  <a_IC>
90.210403

>  <a_ICM>
1.5035067

>  <a_nB>
0

>  <a_nBr>
0

>  <a_nC>
26

>  <a_nCl>
0

>  <a_nF>
0

>  <a_nH>
27

>  <a_nI>
0

>  <a_nN>
5

>  <a_nO>
2

>  <a_nP>
0

>  <a_nS>
0

>  <balabanJ>
0.97433573

>  <BCUT_PEOE_0>
-2.7765558

>  <BCUT_PEOE_1>
-0.65497166

>  <BCUT_PEOE_2>
0.61098087

>  <BCUT_PEOE_3>
2.6765831

>  <BCUT_SLOGP_0>
-2.8830578

>  <BCUT_SLOGP_1>
-0.51398987

>  <BCUT_SLOGP_2>
0.71671629

>  <BCUT_SLOGP_3>
2.6666298

>  <BCUT_SMR_0>
-2.4868319

>  <BCUT_SMR_1>
-0.42191765

>  <BCUT_SMR_2>
0.81165123

>  <BCUT_SMR_3>
2.9612079

>  <bpol>
37.01059

>  <b_1rotN>
7

>  <b_1rotR>
0.1891892

>  <b_ar>
20

>  <b_count>
64

>  <b_double>
1

>  <b_heavy>
37

>  <b_max1len>
5

>  <b_rotN>
8

>  <b_rotR>
0.21621622

>  <b_single>
42

>  <b_triple>
1

>  <chi0>
22.785881

>  <chi0v>
18.511145

>  <chi0v_C>
15.275657

>  <chi0_C>
17.216969

>  <chi1>
16.101688

>  <chi1v>
11.413722

>  <chi1v_C>
7.9456468

>  <chi1_C>
10.140561

>  <chiral>
0

>  <chiral_u>
0

>  <density>
0.72150242

>  <diameter>
20

>  <FCharge>
0

>  <GCUT_PEOE_0>
-0.86280978

>  <GCUT_PEOE_1>
-0.44339132

>  <GCUT_PEOE_2>
0.072964564

>  <GCUT_PEOE_3>
2.8108985

>  <GCUT_SLOGP_0>
-1.3702884

>  <GCUT_SLOGP_1>
-0.33086336

>  <GCUT_SLOGP_2>
0.18544985

>  <GCUT_SLOGP_3>
2.8691049

>  <GCUT_SMR_0>
-0.52638161

>  <GCUT_SMR_1>
-0.21798433

>  <GCUT_SMR_2>
0.22474632

>  <GCUT_SMR_3>
3.0818245

>  <Kier1>
24.68371

>  <Kier2>
11.372781

>  <Kier3>
5.8775511

>  <KierA1>
17.740705

>  <KierA2>
8.0830717

>  <KierA3>
4.1435022

>  <KierFlex>
4.3454361

>  <lip_acc>
7

>  <lip_don>
3

>  <lip_druglike>
1

>  <lip_violation>
0

>  <logP(o/w)>
3.335

>  <logS>
-6.0831299

>  <mr>
12.800852

>  <mutagenic>
0

>  <nmol>
1

>  <opr_brigid>
26

>  <opr_leadlike>
1

>  <opr_nring>
5

>  <opr_nrot>
10

>  <opr_violation>
1

>  <PC+>
0

>  <PC->
0

>  <PEOE_PC+>
2.5447464

>  <PEOE_PC->
-2.5447464

>  <PEOE_RPC+>
0.1119302

>  <PEOE_RPC->
0.17683159

>  <PEOE_VSA+0>
155.57758

>  <PEOE_VSA+1>
56.631134

>  <PEOE_VSA+2>
8.458519

>  <PEOE_VSA+3>
34.315559

>  <PEOE_VSA+4>
0

>  <PEOE_VSA+5>
12.949531

>  <PEOE_VSA+6>
0

>  <PEOE_VSA-0>
127.28913

>  <PEOE_VSA-1>
0

>  <PEOE_VSA-2>
0

>  <PEOE_VSA-3>
17.742489

>  <PEOE_VSA-4>
0

>  <PEOE_VSA-5>
13.566921

>  <PEOE_VSA-6>
9.2917662

>  <PEOE_VSA_FHYD>
0.91783762

>  <PEOE_VSA_FNEG>
0.38522625

>  <PEOE_VSA_FPNEG>
0.052449521

>  <PEOE_VSA_FPOL>
0.082162365

>  <PEOE_VSA_FPOS>
0.61477375

>  <PEOE_VSA_FPPOS>
0.029712847

>  <PEOE_VSA_HYD>
400.0144

>  <PEOE_VSA_NEG>
167.8903

>  <PEOE_VSA_PNEG>
22.858686

>  <PEOE_VSA_POL>
35.80822

>  <PEOE_VSA_POS>
267.93231

>  <PEOE_VSA_PPOS>
12.949531

>  <petitjean>
0.5

>  <petitjeanSC>
1

>  <Q_PC+>
0

>  <Q_PC->
0

>  <Q_RPC+>
0

>  <Q_RPC->
0

>  <Q_VSA_FHYD>
1

>  <Q_VSA_FNEG>
0

>  <Q_VSA_FPNEG>
0

>  <Q_VSA_FPOL>
0

>  <Q_VSA_FPOS>
1

>  <Q_VSA_FPPOS>
0

>  <Q_VSA_HYD>
435.82263

>  <Q_VSA_NEG>
0

>  <Q_VSA_PNEG>
0

>  <Q_VSA_POL>
0

>  <Q_VSA_POS>
435.82263

>  <Q_VSA_PPOS>
0

>  <radius>
10

>  <reactive>
0

>  <rings>
5

>  <RPC+>
0

>  <RPC->
0

>  <rsynth>
1

>  <SlogP>
4.0295539

>  <SlogP_VSA0>
36.0215

>  <SlogP_VSA1>
8.3830976

>  <SlogP_VSA2>
16.78553

>  <SlogP_VSA3>
139.85899

>  <SlogP_VSA4>
35.682186

>  <SlogP_VSA5>
28.375751

>  <SlogP_VSA6>
0

>  <SlogP_VSA7>
152.84293

>  <SlogP_VSA8>
37.736813

>  <SlogP_VSA9>
2.7567475

>  <SMR>
12.93366

>  <SMR_VSA0>
33.369564

>  <SMR_VSA1>
34.18367

>  <SMR_VSA2>
19.909843

>  <SMR_VSA3>
28.421717

>  <SMR_VSA4>
47.780212

>  <SMR_VSA5>
197.32187

>  <SMR_VSA6>
97.456673

>  <SMR_VSA7>
0

>  <TPSA>
102.29

>  <VAdjEq>
0.35823497

>  <VAdjMa>
6.2094536

>  <VDistEq>
4.1094689

>  <VDistMa>
9.7314034

>  <vdw_area>
435.82263

>  <vdw_vol>
611.96606

>  <vsa_acc>
31.30941

>  <vsa_acid>
0

>  <vsa_base>
0

>  <vsa_don>
23.425066

>  <vsa_hyd>
302.11523

>  <vsa_other>
52.66983

>  <vsa_pol>
54.734474

>  <Weight>
441.535

>  <weinerPath>
4058

>  <weinerPol>
51

>  <zagreb>
178

$$$$