s1c2c(nc1CN1N=C(c3c(cccc3)C1=O)CC(O)=O)cc(cc2)C(F)(F)F
  MOE2013           2D

 29 32  0  0  0  0  0  0  0  0999 V2000
    0.0000    0.0000    0.0000 S   0  0  0  0  0  0  0  0  0  0  0  0
    1.4680    0.3090    0.0000 C   0  0  0  0  0  0  0  0  0  0  0  0
    2.2150   -0.9910    0.0000 C   0  0  0  0  0  0  0  0  0  0  0  0
    1.2100   -2.1040    0.0000 N   0  0  0  0  0  0  0  0  0  0  0  0
   -0.1600   -1.4910    0.0000 C   0  0  0  0  0  0  0  0  0  0  0  0
   -1.4600   -2.2390    0.0000 C   0  0  0  0  0  0  0  0  0  0  0  0
   -2.7580   -1.4870    0.0000 N   0  0  0  0  0  0  0  0  0  0  0  0
   -2.7550    0.0130    0.0000 N   0  0  0  0  0  0  0  0  0  0  0  0
   -4.0520    0.7660    0.0000 C   0  0  0  0  0  0  0  0  0  0  0  0
   -5.3530    0.0180    0.0000 C   0  0  0  0  0  0  0  0  0  0  0  0
   -5.3560   -1.4820    0.0000 C   0  0  0  0  0  0  0  0  0  0  0  0
   -6.6560   -2.2290    0.0000 C   0  0  0  0  0  0  0  0  0  0  0  0
   -7.9540   -1.4770    0.0000 C   0  0  0  0  0  0  0  0  0  0  0  0
   -7.9510    0.0230    0.0000 C   0  0  0  0  0  0  0  0  0  0  0  0
   -6.6510    0.7710    0.0000 C   0  0  0  0  0  0  0  0  0  0  0  0
   -4.0580   -2.2340    0.0000 C   0  0  0  0  0  0  0  0  0  0  0  0
   -4.0610   -3.7340    0.0000 O   0  0  0  0  0  0  0  0  0  0  0  0
   -4.0500    2.2660    0.0000 C   0  0  0  0  0  0  0  0  0  0  0  0
   -2.7490    3.0130    0.0000 C   0  0  0  0  0  0  0  0  0  0  0  0
   -1.4520    2.2610    0.0000 O   0  0  0  0  0  0  0  0  0  0  0  0
   -2.7460    4.5130    0.0000 O   0  0  0  0  0  0  0  0  0  0  0  0
    3.7150   -0.9940    0.0000 C   0  0  0  0  0  0  0  0  0  0  0  0
    4.4680    0.3040    0.0000 C   0  0  0  0  0  0  0  0  0  0  0  0
    3.7200    1.6040    0.0000 C   0  0  0  0  0  0  0  0  0  0  0  0
    2.2200    1.6070    0.0000 C   0  0  0  0  0  0  0  0  0  0  0  0
    5.9680    0.3010    0.0000 C   0  0  0  0  0  0  0  0  0  0  0  0
    7.4680    0.2980    0.0000 F   0  0  0  0  0  0  0  0  0  0  0  0
    5.9710    1.8010    0.0000 F   0  0  0  0  0  0  0  0  0  0  0  0
    5.9650   -1.1990    0.0000 F   0  0  0  0  0  0  0  0  0  0  0  0
  1  2  1  0  0  0  0
  1  5  1  0  0  0  0
  2  3  1  0  0  0  0
  2 25  2  0  0  0  0
  3  4  1  0  0  0  0
  3 22  2  0  0  0  0
  4  5  2  0  0  0  0
  5  6  1  0  0  0  0
  6  7  1  0  0  0  0
  7  8  1  0  0  0  0
  7 16  1  0  0  0  0
  8  9  2  0  0  0  0
  9 10  1  0  0  0  0
  9 18  1  0  0  0  0
 10 11  1  0  0  0  0
 10 15  2  0  0  0  0
 11 12  2  0  0  0  0
 11 16  1  0  0  0  0
 12 13  1  0  0  0  0
 13 14  2  0  0  0  0
 14 15  1  0  0  0  0
 16 17  2  0  0  0  0
 18 19  1  0  0  0  0
 19 20  1  0  0  0  0
 19 21  2  0  0  0  0
 22 23  1  0  0  0  0
 23 24  2  0  0  0  0
 23 26  1  0  0  0  0
 24 25  1  0  0  0  0
 26 27  1  0  0  0  0
 26 28  1  0  0  0  0
 26 29  1  0  0  0  0
M  END
>  <Index>
1169

>  <ID>
HT2223

>  <class>
0

>  <apol>
51.718517

>  <ast_fraglike>
0

>  <ast_fraglike_ext>
0

>  <ast_violation>
3

>  <ast_violation_ext>
4

>  <a_acc>
5

>  <a_acid>
0

>  <a_aro>
15

>  <a_base>
0

>  <a_count>
41

>  <a_don>
2

>  <a_donacc>
7

>  <a_heavy>
29

>  <a_hyd>
20

>  <a_IC>
81.664795

>  <a_ICM>
1.9918243

>  <a_nB>
0

>  <a_nBr>
0

>  <a_nC>
19

>  <a_nCl>
0

>  <a_nF>
3

>  <a_nH>
12

>  <a_nI>
0

>  <a_nN>
3

>  <a_nO>
3

>  <a_nP>
0

>  <a_nS>
1

>  <balabanJ>
1.3869077

>  <BCUT_PEOE_0>
-2.4080086

>  <BCUT_PEOE_1>
-0.58257276

>  <BCUT_PEOE_2>
0.56474513

>  <BCUT_PEOE_3>
2.4447014

>  <BCUT_SLOGP_0>
-2.4443281

>  <BCUT_SLOGP_1>
-0.48309034

>  <BCUT_SLOGP_2>
0.66288155

>  <BCUT_SLOGP_3>
2.493789

>  <BCUT_SMR_0>
-2.1178432

>  <BCUT_SMR_1>
-0.39296997

>  <BCUT_SMR_2>
0.81066757

>  <BCUT_SMR_3>
2.7350688

>  <bpol>
24.223484

>  <b_1rotN>
4

>  <b_1rotR>
0.125

>  <b_ar>
16

>  <b_count>
44

>  <b_double>
3

>  <b_heavy>
32

>  <b_max1len>
2

>  <b_rotN>
5

>  <b_rotR>
0.15625

>  <b_single>
25

>  <b_triple>
0

>  <chi0>
20.758783

>  <chi0v>
15.419655

>  <chi0v_C>
10.455666

>  <chi0_C>
12.060114

>  <chi1>
13.719365

>  <chi1v>
9.2102461

>  <chi1v_C>
5.3760443

>  <chi1_C>
7.2962432

>  <chiral>
0

>  <chiral_u>
0

>  <density>
0.90046585

>  <diameter>
13

>  <FCharge>
0

>  <GCUT_PEOE_0>
-0.79880375

>  <GCUT_PEOE_1>
-0.45432693

>  <GCUT_PEOE_2>
0.073584571

>  <GCUT_PEOE_3>
2.5481133

>  <GCUT_SLOGP_0>
-0.89569974

>  <GCUT_SLOGP_1>
-0.33618799

>  <GCUT_SLOGP_2>
0.25259542

>  <GCUT_SLOGP_3>
2.6409943

>  <GCUT_SMR_0>
-0.48288906

>  <GCUT_SMR_1>
-0.21756375

>  <GCUT_SMR_2>
0.25930238

>  <GCUT_SMR_3>
2.8498743

>  <Kier1>
22.203125

>  <Kier2>
8.859375

>  <Kier3>
4.9240375

>  <KierA1>
16.620483

>  <KierA2>
6.5582786

>  <KierA3>
3.6151905

>  <KierFlex>
3.7586813

>  <lip_acc>
6

>  <lip_don>
1

>  <lip_druglike>
1

>  <lip_violation>
0

>  <logP(o/w)>
4.3667598

>  <logS>
-5.3045998

>  <mr>
10.163981

>  <mutagenic>
0

>  <nmol>
1

>  <opr_brigid>
21

>  <opr_leadlike>
1

>  <opr_nring>
4

>  <opr_nrot>
4

>  <opr_violation>
1

>  <PC+>
0

>  <PC->
0

>  <PEOE_PC+>
2.4255345

>  <PEOE_PC->
-2.4255345

>  <PEOE_RPC+>
0.17212087

>  <PEOE_RPC->
0.13645795

>  <PEOE_VSA+0>
21.623465

>  <PEOE_VSA+1>
75.889755

>  <PEOE_VSA+2>
0

>  <PEOE_VSA+3>
19.760618

>  <PEOE_VSA+4>
10.324173

>  <PEOE_VSA+5>
27.65803

>  <PEOE_VSA+6>
9.0455017

>  <PEOE_VSA-0>
28.694408

>  <PEOE_VSA-1>
61.274521

>  <PEOE_VSA-2>
0

>  <PEOE_VSA-3>
45.146946

>  <PEOE_VSA-4>
0

>  <PEOE_VSA-5>
32.816418

>  <PEOE_VSA-6>
7.7675405

>  <PEOE_VSA_FHYD>
0.7423197

>  <PEOE_VSA_FNEG>
0.51676214

>  <PEOE_VSA_FPNEG>
0.1193641

>  <PEOE_VSA_FPOL>
0.25768033

>  <PEOE_VSA_FPOS>
0.48323786

>  <PEOE_VSA_FPPOS>
0.13831621

>  <PEOE_VSA_HYD>
252.38971

>  <PEOE_VSA_NEG>
175.69983

>  <PEOE_VSA_PNEG>
40.583958

>  <PEOE_VSA_POL>
87.611664

>  <PEOE_VSA_POS>
164.30154

>  <PEOE_VSA_PPOS>
47.027706

>  <petitjean>
0.46153846

>  <petitjeanSC>
0.85714287

>  <Q_PC+>
0

>  <Q_PC->
0

>  <Q_RPC+>
0

>  <Q_RPC->
0

>  <Q_VSA_FHYD>
1

>  <Q_VSA_FNEG>
0

>  <Q_VSA_FPNEG>
0

>  <Q_VSA_FPOL>
0

>  <Q_VSA_FPOS>
1

>  <Q_VSA_FPPOS>
0

>  <Q_VSA_HYD>
340.00137

>  <Q_VSA_NEG>
0

>  <Q_VSA_PNEG>
0

>  <Q_VSA_POL>
0

>  <Q_VSA_POS>
340.00137

>  <Q_VSA_PPOS>
0

>  <radius>
7

>  <reactive>
0

>  <rings>
4

>  <RPC+>
0

>  <RPC->
0

>  <rsynth>
1

>  <SlogP>
4.7277999

>  <SlogP_VSA0>
0

>  <SlogP_VSA1>
35.548317

>  <SlogP_VSA2>
23.862217

>  <SlogP_VSA3>
25.385227

>  <SlogP_VSA4>
34.348515

>  <SlogP_VSA5>
16.663008

>  <SlogP_VSA6>
7.7595162

>  <SlogP_VSA7>
126.39222

>  <SlogP_VSA8>
18.868406

>  <SlogP_VSA9>
94.597603

>  <SMR>
10.00493

>  <SMR_VSA0>
47.724434

>  <SMR_VSA1>
81.330666

>  <SMR_VSA2>
33.144741

>  <SMR_VSA3>
10.486299

>  <SMR_VSA4>
2.8899276

>  <SMR_VSA5>
160.81027

>  <SMR_VSA6>
15.760995

>  <SMR_VSA7>
31.277687

>  <TPSA>
82.860001

>  <VAdjEq>
0.38828552

>  <VAdjMa>
6

>  <VDistEq>
3.5710678

>  <VDistMa>
9.4201412

>  <vdw_area>
340.00137

>  <vdw_vol>
465.74005

>  <vsa_acc>
28.670536

>  <vsa_acid>
0

>  <vsa_base>
0

>  <vsa_don>
0

>  <vsa_hyd>
237.48488

>  <vsa_other>
34.357582

>  <vsa_pol>
55.804379

>  <Weight>
419.383

>  <weinerPath>
2301

>  <weinerPol>
48

>  <zagreb>
160

$$$$