O1c2c(CCC1(CCCC(CCCC(CCCC(C)C)C)C)C)c(C)c(OC(=O)CCC(O)=O)c(C)c2C
  MOE2013           2D

 38 39  0  0  1  0  0  0  0  0999 V2000
    0.0000    0.0000    0.0000 O   0  0  0  0  0  0  0  0  0  0  0  0
   -0.7600    1.2930    0.0000 C   0  0  0  0  0  0  0  0  0  0  0  0
   -0.0200    2.5980    0.0000 C   0  0  0  0  0  0  0  0  0  0  0  0
    1.4800    2.6100    0.0000 C   0  0  0  0  0  0  0  0  0  0  0  0
    2.2400    1.3160    0.0000 C   0  0  0  0  0  0  0  0  0  0  0  0
    1.5000    0.0120    0.0000 C   0  0  3  0  0  0  0  0  0  0  0  0
    2.8050   -0.7280    0.0000 C   0  0  0  0  0  0  0  0  0  0  0  0
    4.0980    0.0320    0.0000 C   0  0  0  0  0  0  0  0  0  0  0  0
    5.4030   -0.7080    0.0000 C   0  0  0  0  0  0  0  0  0  0  0  0
    6.6960    0.0520    0.0000 C   0  0  3  0  0  0  0  0  0  0  0  0
    8.0010   -0.6880    0.0000 C   0  0  0  0  0  0  0  0  0  0  0  0
    9.2940    0.0720    0.0000 C   0  0  0  0  0  0  0  0  0  0  0  0
   10.5990   -0.6680    0.0000 C   0  0  0  0  0  0  0  0  0  0  0  0
   11.8920    0.0920    0.0000 C   0  0  3  0  0  0  0  0  0  0  0  0
   13.1970   -0.6470    0.0000 C   0  0  0  0  0  0  0  0  0  0  0  0
   13.2080   -2.1470    0.0000 C   0  0  0  0  0  0  0  0  0  0  0  0
   14.5130   -2.8870    0.0000 C   0  0  0  0  0  0  0  0  0  0  0  0
   14.5250   -4.3870    0.0000 C   0  0  0  0  0  0  0  0  0  0  0  0
   13.2320   -5.1470    0.0000 C   0  0  0  0  0  0  0  0  0  0  0  0
   15.8300   -5.1270    0.0000 C   0  0  0  0  0  0  0  0  0  0  0  0
   11.8800    1.5920    0.0000 C   0  0  0  0  0  0  0  0  0  0  0  0
    6.6840    1.5520    0.0000 C   0  0  0  0  0  0  0  0  0  0  0  0
    1.5120   -1.4880    0.0000 C   0  0  0  0  0  0  0  0  0  0  0  0
   -0.7800    3.8910    0.0000 C   0  0  0  0  0  0  0  0  0  0  0  0
   -0.0400    5.1960    0.0000 C   0  0  0  0  0  0  0  0  0  0  0  0
   -2.2800    3.8790    0.0000 C   0  0  0  0  0  0  0  0  0  0  0  0
   -3.0400    5.1730    0.0000 O   0  0  0  0  0  0  0  0  0  0  0  0
   -4.5400    5.1610    0.0000 C   0  0  0  0  0  0  0  0  0  0  0  0
   -5.2800    3.8560    0.0000 O   0  0  0  0  0  0  0  0  0  0  0  0
   -5.3000    6.4540    0.0000 C   0  0  0  0  0  0  0  0  0  0  0  0
   -6.8000    6.4420    0.0000 C   0  0  0  0  0  0  0  0  0  0  0  0
   -7.5600    7.7360    0.0000 C   0  0  0  0  0  0  0  0  0  0  0  0
   -6.8210    9.0400    0.0000 O   0  0  0  0  0  0  0  0  0  0  0  0
   -9.0600    7.7240    0.0000 O   0  0  0  0  0  0  0  0  0  0  0  0
   -3.0200    2.5750    0.0000 C   0  0  0  0  0  0  0  0  0  0  0  0
   -4.5200    2.5630    0.0000 C   0  0  0  0  0  0  0  0  0  0  0  0
   -2.2600    1.2810    0.0000 C   0  0  0  0  0  0  0  0  0  0  0  0
   -3.0000   -0.0230    0.0000 C   0  0  0  0  0  0  0  0  0  0  0  0
  1  2  1  0  0  0  0
  1  6  1  0  0  0  0
  2  3  1  0  0  0  0
  2 37  2  0  0  0  0
  3  4  1  0  0  0  0
  3 24  2  0  0  0  0
  4  5  1  0  0  0  0
  5  6  1  0  0  0  0
  6  7  1  0  0  0  0
  6 23  1  0  0  0  0
  7  8  1  0  0  0  0
  8  9  1  0  0  0  0
  9 10  1  0  0  0  0
 10 11  1  0  0  0  0
 10 22  1  0  0  0  0
 11 12  1  0  0  0  0
 12 13  1  0  0  0  0
 13 14  1  0  0  0  0
 14 15  1  0  0  0  0
 14 21  1  0  0  0  0
 15 16  1  0  0  0  0
 16 17  1  0  0  0  0
 17 18  1  0  0  0  0
 18 19  1  0  0  0  0
 18 20  1  0  0  0  0
 24 25  1  0  0  0  0
 24 26  1  0  0  0  0
 26 27  1  0  0  0  0
 26 35  2  0  0  0  0
 27 28  1  0  0  0  0
 28 29  2  0  0  0  0
 28 30  1  0  0  0  0
 30 31  1  0  0  0  0
 31 32  1  0  0  0  0
 32 33  1  0  0  0  0
 32 34  2  0  0  0  0
 35 36  1  0  0  0  0
 35 37  1  0  0  0  0
 37 38  1  0  0  0  0
M  END
>  <Index>
1395

>  <ID>
HT3909

>  <class>
0

>  <apol>
98.096825

>  <ast_fraglike>
0

>  <ast_fraglike_ext>
0

>  <ast_violation>
3

>  <ast_violation_ext>
4

>  <a_acc>
4

>  <a_acid>
0

>  <a_aro>
6

>  <a_base>
0

>  <a_count>
92

>  <a_don>
2

>  <a_donacc>
6

>  <a_heavy>
38

>  <a_hyd>
31

>  <a_IC>
111.32913

>  <a_ICM>
1.2100992

>  <a_nB>
0

>  <a_nBr>
0

>  <a_nC>
33

>  <a_nCl>
0

>  <a_nF>
0

>  <a_nH>
54

>  <a_nI>
0

>  <a_nN>
0

>  <a_nO>
5

>  <a_nP>
0

>  <a_nS>
0

>  <balabanJ>
1.7507544

>  <BCUT_PEOE_0>
-2.7968221

>  <BCUT_PEOE_1>
-0.35656554

>  <BCUT_PEOE_2>
0.26522952

>  <BCUT_PEOE_3>
2.743808

>  <BCUT_SLOGP_0>
-2.7162194

>  <BCUT_SLOGP_1>
-0.27863809

>  <BCUT_SLOGP_2>
0.30158007

>  <BCUT_SLOGP_3>
2.8666205

>  <BCUT_SMR_0>
-2.5441594

>  <BCUT_SMR_1>
-0.11343691

>  <BCUT_SMR_2>
0.43441486

>  <BCUT_SMR_3>
2.9947579

>  <bpol>
64.781181

>  <b_1rotN>
16

>  <b_1rotR>
0.41025642

>  <b_ar>
6

>  <b_count>
93

>  <b_double>
2

>  <b_heavy>
39

>  <b_max1len>
16

>  <b_rotN>
17

>  <b_rotR>
0.43589744

>  <b_single>
85

>  <b_triple>
0

>  <chi0>
28.457455

>  <chi0v>
25.504646

>  <chi0v_C>
23.424438

>  <chi0_C>
24.043242

>  <chi1>
17.824894

>  <chi1v>
15.066761

>  <chi1v_C>
13.618409

>  <chi1_C>
14.514545

>  <chiral>
3

>  <chiral_u>
3

>  <density>
0.65792447

>  <diameter>
24

>  <FCharge>
0

>  <GCUT_PEOE_0>
-0.807307

>  <GCUT_PEOE_1>
-0.36777148

>  <GCUT_PEOE_2>
-0.11960304

>  <GCUT_PEOE_3>
3.0867653

>  <GCUT_SLOGP_0>
-0.91203243

>  <GCUT_SLOGP_1>
-0.23462299

>  <GCUT_SLOGP_2>
-0.037

>  <GCUT_SLOGP_3>
3.2039425

>  <GCUT_SMR_0>
-0.53888142

>  <GCUT_SMR_1>
-0.15498281

>  <GCUT_SMR_2>
0.04375628

>  <GCUT_SMR_3>
3.3184495

>  <Kier1>
34.202499

>  <Kier2>
16.444445

>  <Kier3>
11.428572

>  <KierA1>
30.54759

>  <KierA2>
14.640656

>  <KierA3>
10.152447

>  <KierFlex>
11.769388

>  <lip_acc>
5

>  <lip_don>
1

>  <lip_druglike>
0

>  <lip_violation>
2

>  <logP(o/w)>
10.001

>  <logS>
-10.47742

>  <mr>
15.578421

>  <mutagenic>
0

>  <nmol>
1

>  <opr_brigid>
11

>  <opr_leadlike>
0

>  <opr_nring>
2

>  <opr_nrot>
17

>  <opr_violation>
3

>  <PC+>
0

>  <PC->
0

>  <PEOE_PC+>
2.5345047

>  <PEOE_PC->
-2.5345047

>  <PEOE_RPC+>
0.10558911

>  <PEOE_RPC->
0.1333549

>  <PEOE_VSA+0>
243.46808

>  <PEOE_VSA+1>
16.917038

>  <PEOE_VSA+2>
0

>  <PEOE_VSA+3>
0

>  <PEOE_VSA+4>
10.324173

>  <PEOE_VSA+5>
29.416998

>  <PEOE_VSA+6>
0

>  <PEOE_VSA-0>
109.92881

>  <PEOE_VSA-1>
144.60121

>  <PEOE_VSA-2>
0

>  <PEOE_VSA-3>
0

>  <PEOE_VSA-4>
0

>  <PEOE_VSA-5>
29.637598

>  <PEOE_VSA-6>
10.271297

>  <PEOE_VSA_FHYD>
0.86603647

>  <PEOE_VSA_FNEG>
0.4952172

>  <PEOE_VSA_FPNEG>
0.067122817

>  <PEOE_VSA_FPOL>
0.13396354

>  <PEOE_VSA_FPOS>
0.5047828

>  <PEOE_VSA_FPPOS>
0.066840731

>  <PEOE_VSA_HYD>
514.91516

>  <PEOE_VSA_NEG>
294.4389

>  <PEOE_VSA_PNEG>
39.908894

>  <PEOE_VSA_POL>
79.650063

>  <PEOE_VSA_POS>
300.12628

>  <PEOE_VSA_PPOS>
39.741173

>  <petitjean>
0.5

>  <petitjeanSC>
1

>  <Q_PC+>
0

>  <Q_PC->
0

>  <Q_RPC+>
0

>  <Q_RPC->
0

>  <Q_VSA_FHYD>
1

>  <Q_VSA_FNEG>
0

>  <Q_VSA_FPNEG>
0

>  <Q_VSA_FPOL>
0

>  <Q_VSA_FPOS>
1

>  <Q_VSA_FPPOS>
0

>  <Q_VSA_HYD>
594.56519

>  <Q_VSA_NEG>
0

>  <Q_VSA_PNEG>
0

>  <Q_VSA_POL>
0

>  <Q_VSA_POS>
594.56519

>  <Q_VSA_PPOS>
0

>  <radius>
12

>  <reactive>
0

>  <rings>
2

>  <RPC+>
0

>  <RPC->
0

>  <rsynth>
0.21052632

>  <SlogP>
8.90483

>  <SlogP_VSA0>
21.999775

>  <SlogP_VSA1>
15.490929

>  <SlogP_VSA2>
47.724434

>  <SlogP_VSA3>
25.385227

>  <SlogP_VSA4>
25.974688

>  <SlogP_VSA5>
18.868406

>  <SlogP_VSA6>
0

>  <SlogP_VSA7>
0

>  <SlogP_VSA8>
226.42087

>  <SlogP_VSA9>
277.09497

>  <SMR>
15.52308

>  <SMR_VSA0>
47.724434

>  <SMR_VSA1>
21.999775

>  <SMR_VSA2>
38.617615

>  <SMR_VSA3>
23.229156

>  <SMR_VSA4>
0

>  <SMR_VSA5>
245.28928

>  <SMR_VSA6>
15.490929

>  <SMR_VSA7>
266.60812

>  <TPSA>
72.830002

>  <VAdjEq>
0.30322024

>  <VAdjMa>
6.2854023

>  <VDistEq>
4.3012328

>  <VDistMa>
10.149163

>  <vdw_area>
594.56519

>  <vdw_vol>
806.76428

>  <vsa_acc>
16.070677

>  <vsa_acid>
0

>  <vsa_base>
0

>  <vsa_don>
0

>  <vsa_hyd>
473.15485

>  <vsa_other>
31.920755

>  <vsa_pol>
43.204517

>  <Weight>
530.78998

>  <weinerPath>
6010

>  <weinerPol>
57

>  <zagreb>
186

$$$$