O=C(N(CC)c1cc(ccc1)C=1n2ncc(c2N=CC=1)C#N)C
  MOE2013           2D

 23 25  0  0  0  0  0  0  0  0999 V2000
    0.0000    0.0000    0.0000 O   0  0  0  0  0  0  0  0  0  0  0  0
   -0.7510   -1.2990    0.0000 C   0  0  0  0  0  0  0  0  0  0  0  0
   -0.0020   -2.5980    0.0000 N   0  0  0  0  0  0  0  0  0  0  0  0
   -0.7530   -3.8970    0.0000 C   0  0  0  0  0  0  0  0  0  0  0  0
   -2.2530   -3.8960    0.0000 C   0  0  0  0  0  0  0  0  0  0  0  0
    1.4980   -2.5990    0.0000 C   0  0  0  0  0  0  0  0  0  0  0  0
    2.2470   -3.8990    0.0000 C   0  0  0  0  0  0  0  0  0  0  0  0
    3.7470   -3.9000    0.0000 C   0  0  0  0  0  0  0  0  0  0  0  0
    4.4980   -2.6010    0.0000 C   0  0  0  0  0  0  0  0  0  0  0  0
    3.7490   -1.3020    0.0000 C   0  0  0  0  0  0  0  0  0  0  0  0
    2.2490   -1.3010    0.0000 C   0  0  0  0  0  0  0  0  0  0  0  0
    4.4960   -5.1990    0.0000 C   0  0  0  0  0  0  0  0  0  0  0  0
    5.9960   -5.2000    0.0000 N   0  0  0  0  0  0  0  0  0  0  0  0
    7.0010   -4.0860    0.0000 N   0  0  0  0  0  0  0  0  0  0  0  0
    8.3710   -4.6970    0.0000 C   0  0  0  0  0  0  0  0  0  0  0  0
    8.2130   -6.1890    0.0000 C   0  0  0  0  0  0  0  0  0  0  0  0
    6.7450   -6.5000    0.0000 C   0  0  0  0  0  0  0  0  0  0  0  0
    5.9950   -7.7980    0.0000 N   0  0  0  0  0  0  0  0  0  0  0  0
    4.4950   -7.7970    0.0000 C   0  0  0  0  0  0  0  0  0  0  0  0
    3.7450   -6.4980    0.0000 C   0  0  0  0  0  0  0  0  0  0  0  0
    9.3270   -7.1940    0.0000 C   0  0  0  0  0  0  0  0  0  0  0  0
   10.4410   -8.1980    0.0000 N   0  0  0  0  0  0  0  0  0  0  0  0
   -2.2510   -1.2970    0.0000 C   0  0  0  0  0  0  0  0  0  0  0  0
  1  2  2  0  0  0  0
  2  3  1  0  0  0  0
  2 23  1  0  0  0  0
  3  4  1  0  0  0  0
  3  6  1  0  0  0  0
  4  5  1  0  0  0  0
  6  7  1  0  0  0  0
  6 11  2  0  0  0  0
  7  8  2  0  0  0  0
  8  9  1  0  0  0  0
  8 12  1  0  0  0  0
  9 10  2  0  0  0  0
 10 11  1  0  0  0  0
 12 13  1  0  0  0  0
 12 20  2  0  0  0  0
 13 14  1  0  0  0  0
 13 17  1  0  0  0  0
 14 15  2  0  0  0  0
 15 16  1  0  0  0  0
 16 17  2  0  0  0  0
 16 21  1  0  0  0  0
 17 18  1  0  0  0  0
 18 19  2  0  0  0  0
 19 20  1  0  0  0  0
 21 22  3  0  0  0  0
M  END
>  <Index>
1160

>  <ID>
HT2208

>  <class>
0

>  <apol>
46.223896

>  <ast_fraglike>
0

>  <ast_fraglike_ext>
0

>  <ast_violation>
2

>  <ast_violation_ext>
3

>  <a_acc>
4

>  <a_acid>
0

>  <a_aro>
11

>  <a_base>
0

>  <a_count>
38

>  <a_don>
0

>  <a_donacc>
4

>  <a_heavy>
23

>  <a_hyd>
13

>  <a_IC>
59.721378

>  <a_ICM>
1.5716152

>  <a_nB>
0

>  <a_nBr>
0

>  <a_nC>
17

>  <a_nCl>
0

>  <a_nF>
0

>  <a_nH>
15

>  <a_nI>
0

>  <a_nN>
5

>  <a_nO>
1

>  <a_nP>
0

>  <a_nS>
0

>  <balabanJ>
1.6678697

>  <BCUT_PEOE_0>
-2.5061281

>  <BCUT_PEOE_1>
-0.54917341

>  <BCUT_PEOE_2>
0.61207408

>  <BCUT_PEOE_3>
2.4455645

>  <BCUT_SLOGP_0>
-2.5667355

>  <BCUT_SLOGP_1>
-0.45646524

>  <BCUT_SLOGP_2>
0.68400329

>  <BCUT_SLOGP_3>
2.4631376

>  <BCUT_SMR_0>
-2.2083223

>  <BCUT_SMR_1>
-0.39557028

>  <BCUT_SMR_2>
0.77079934

>  <BCUT_SMR_3>
2.7480202

>  <bpol>
23.296104

>  <b_1rotN>
4

>  <b_1rotR>
0.16

>  <b_ar>
11

>  <b_count>
40

>  <b_double>
3

>  <b_heavy>
25

>  <b_max1len>
3

>  <b_rotN>
5

>  <b_rotR>
0.2

>  <b_single>
25

>  <b_triple>
1

>  <chi0>
16.396976

>  <chi0v>
12.892875

>  <chi0v_C>
10.248559

>  <chi0_C>
11.828063

>  <chi1>
11.151397

>  <chi1v>
7.2675481

>  <chi1v_C>
4.6891575

>  <chi1_C>
6.3088617

>  <chiral>
0

>  <chiral_u>
0

>  <density>
0.73740929

>  <diameter>
11

>  <FCharge>
0

>  <GCUT_PEOE_0>
-0.83064938

>  <GCUT_PEOE_1>
-0.41249105

>  <GCUT_PEOE_2>
0.049241465

>  <GCUT_PEOE_3>
2.5086913

>  <GCUT_SLOGP_0>
-0.99264514

>  <GCUT_SLOGP_1>
-0.34885946

>  <GCUT_SLOGP_2>
0.11268876

>  <GCUT_SLOGP_3>
2.5954492

>  <GCUT_SMR_0>
-0.50751477

>  <GCUT_SMR_1>
-0.18753131

>  <GCUT_SMR_2>
0.1842992

>  <GCUT_SMR_3>
2.8103144

>  <Kier1>
17.811199

>  <Kier2>
7.9200001

>  <Kier3>
3.6651394

>  <KierA1>
11.516165

>  <KierA2>
5.0088668

>  <KierA3>
2.2791841

>  <KierFlex>
2.5079539

>  <lip_acc>
6

>  <lip_don>
0

>  <lip_druglike>
1

>  <lip_violation>
0

>  <logP(o/w)>
1.852

>  <logS>
-3.45274

>  <mr>
8.733839

>  <mutagenic>
0

>  <nmol>
1

>  <opr_brigid>
16

>  <opr_leadlike>
1

>  <opr_nring>
3

>  <opr_nrot>
4

>  <opr_violation>
0

>  <PC+>
0

>  <PC->
0

>  <PEOE_PC+>
1.6385357

>  <PEOE_PC->
-1.6385357

>  <PEOE_RPC+>
0.13713229

>  <PEOE_RPC->
0.19079705

>  <PEOE_VSA+0>
91.717094

>  <PEOE_VSA+1>
53.303169

>  <PEOE_VSA+2>
22.508045

>  <PEOE_VSA+3>
11.190562

>  <PEOE_VSA+4>
12.949531

>  <PEOE_VSA+5>
0

>  <PEOE_VSA+6>
0

>  <PEOE_VSA-0>
55.51239

>  <PEOE_VSA-1>
24.509808

>  <PEOE_VSA-2>
0

>  <PEOE_VSA-3>
27.163528

>  <PEOE_VSA-4>
5.6825762

>  <PEOE_VSA-5>
13.566921

>  <PEOE_VSA-6>
0

>  <PEOE_VSA_FHYD>
0.8987782

>  <PEOE_VSA_FNEG>
0.39746553

>  <PEOE_VSA_FPNEG>
0.060513288

>  <PEOE_VSA_FPOL>
0.10122182

>  <PEOE_VSA_FPOS>
0.60253447

>  <PEOE_VSA_FPPOS>
0.040708531

>  <PEOE_VSA_HYD>
285.9046

>  <PEOE_VSA_NEG>
126.43523

>  <PEOE_VSA_PNEG>
19.249496

>  <PEOE_VSA_POL>
32.199028

>  <PEOE_VSA_POS>
191.66841

>  <PEOE_VSA_PPOS>
12.949531

>  <petitjean>
0.45454547

>  <petitjeanSC>
0.83333331

>  <Q_PC+>
0

>  <Q_PC->
0

>  <Q_RPC+>
0

>  <Q_RPC->
0

>  <Q_VSA_FHYD>
1

>  <Q_VSA_FNEG>
0

>  <Q_VSA_FPNEG>
0

>  <Q_VSA_FPOL>
0

>  <Q_VSA_FPOS>
1

>  <Q_VSA_FPPOS>
0

>  <Q_VSA_HYD>
318.10364

>  <Q_VSA_NEG>
0

>  <Q_VSA_PNEG>
0

>  <Q_VSA_POL>
0

>  <Q_VSA_POS>
318.10364

>  <Q_VSA_PPOS>
0

>  <radius>
6

>  <reactive>
0

>  <rings>
3

>  <RPC+>
0

>  <RPC->
0

>  <rsynth>
1

>  <SlogP>
2.549974

>  <SlogP_VSA0>
3.1243138

>  <SlogP_VSA1>
23.698362

>  <SlogP_VSA2>
41.076572

>  <SlogP_VSA3>
68.85743

>  <SlogP_VSA4>
6.37115

>  <SlogP_VSA5>
16.78553

>  <SlogP_VSA6>
0

>  <SlogP_VSA7>
105.43027

>  <SlogP_VSA8>
0

>  <SlogP_VSA9>
71.736694

>  <SMR>
8.7550001

>  <SMR_VSA0>
23.862217

>  <SMR_VSA1>
66.284462

>  <SMR_VSA2>
5.8810616

>  <SMR_VSA3>
22.972897

>  <SMR_VSA4>
5.0846677

>  <SMR_VSA5>
105.43027

>  <SMR_VSA6>
23.698362

>  <SMR_VSA7>
83.866386

>  <TPSA>
74.279999

>  <VAdjEq>
0.45137304

>  <VAdjMa>
5.643856

>  <VDistEq>
3.2379389

>  <VDistMa>
8.7635994

>  <vdw_area>
318.10364

>  <vdw_vol>
414.07263

>  <vsa_acc>
46.413025

>  <vsa_acid>
0

>  <vsa_base>
0

>  <vsa_don>
0

>  <vsa_hyd>
196.27457

>  <vsa_other>
64.739105

>  <vsa_pol>
46.413025

>  <Weight>
305.341

>  <weinerPath>
1169

>  <weinerPol>
38

>  <zagreb>
120

$$$$