O=C1NC(=O)NC(=O)C1(CC)CC
  MOE2013           2D

 13 13  0  0  0  0  0  0  0  0999 V2000
    0.0000    0.0000    0.0000 O   0  0  0  0  0  0  0  0  0  0  0  0
   -0.0020   -1.5000    0.0000 C   0  0  0  0  0  0  0  0  0  0  0  0
    1.2950   -2.2520    0.0000 N   0  0  0  0  0  0  0  0  0  0  0  0
    1.2930   -3.7520    0.0000 C   0  0  0  0  0  0  0  0  0  0  0  0
    2.5910   -4.5040    0.0000 O   0  0  0  0  0  0  0  0  0  0  0  0
   -0.0070   -4.5000    0.0000 N   0  0  0  0  0  0  0  0  0  0  0  0
   -1.3050   -3.7480    0.0000 C   0  0  0  0  0  0  0  0  0  0  0  0
   -2.6060   -4.4960    0.0000 O   0  0  0  0  0  0  0  0  0  0  0  0
   -1.3030   -2.2480    0.0000 C   0  0  0  0  0  0  0  0  0  0  0  0
   -2.8030   -2.2450    0.0000 C   0  0  0  0  0  0  0  0  0  0  0  0
   -3.5550   -3.5430    0.0000 C   0  0  0  0  0  0  0  0  0  0  0  0
   -2.0510   -0.9480    0.0000 C   0  0  0  0  0  0  0  0  0  0  0  0
   -3.5510   -0.9450    0.0000 C   0  0  0  0  0  0  0  0  0  0  0  0
  1  2  2  0  0  0  0
  2  3  1  0  0  0  0
  2  9  1  0  0  0  0
  3  4  1  0  0  0  0
  4  5  2  0  0  0  0
  4  6  1  0  0  0  0
  6  7  1  0  0  0  0
  7  8  2  0  0  0  0
  7  9  1  0  0  0  0
  9 10  1  0  0  0  0
  9 12  1  0  0  0  0
 10 11  1  0  0  0  0
 12 13  1  0  0  0  0
M  END
>  <Index>
109

>  <ID>
HT0226

>  <class>
0

>  <apol>
26.687515

>  <ast_fraglike>
1

>  <ast_fraglike_ext>
1

>  <ast_violation>
0

>  <ast_violation_ext>
0

>  <a_acc>
3

>  <a_acid>
0

>  <a_aro>
0

>  <a_base>
0

>  <a_count>
25

>  <a_don>
2

>  <a_donacc>
5

>  <a_heavy>
13

>  <a_hyd>
5

>  <a_IC>
42.321968

>  <a_ICM>
1.6928787

>  <a_nB>
0

>  <a_nBr>
0

>  <a_nC>
8

>  <a_nCl>
0

>  <a_nF>
0

>  <a_nH>
12

>  <a_nI>
0

>  <a_nN>
2

>  <a_nO>
3

>  <a_nP>
0

>  <a_nS>
0

>  <balabanJ>
2.8266799

>  <BCUT_PEOE_0>
-2.6405396

>  <BCUT_PEOE_1>
-0.44884294

>  <BCUT_PEOE_2>
0.42041576

>  <BCUT_PEOE_3>
2.716064

>  <BCUT_SLOGP_0>
-2.7938714

>  <BCUT_SLOGP_1>
-0.22710162

>  <BCUT_SLOGP_2>
0.398238

>  <BCUT_SLOGP_3>
2.7059846

>  <BCUT_SMR_0>
-2.4143384

>  <BCUT_SMR_1>
-0.25368252

>  <BCUT_SMR_2>
0.50707233

>  <BCUT_SMR_3>
2.9433014

>  <bpol>
17.312485

>  <b_1rotN>
2

>  <b_1rotR>
0.15384616

>  <b_ar>
0

>  <b_count>
25

>  <b_double>
3

>  <b_heavy>
13

>  <b_max1len>
6

>  <b_rotN>
2

>  <b_rotR>
0.15384616

>  <b_single>
22

>  <b_triple>
0

>  <chi0>
10.060478

>  <chi0v>
7.6389585

>  <chi0v_C>
5.4142137

>  <chi0_C>
5.6462646

>  <chi1>
6.0637145

>  <chi1v>
4.2336926

>  <chi1v_C>
2.6213202

>  <chi1_C>
2.6986706

>  <chiral>
0

>  <chiral_u>
0

>  <density>
0.79550707

>  <diameter>
6

>  <FCharge>
0

>  <GCUT_PEOE_0>
-0.76434338

>  <GCUT_PEOE_1>
-0.45906335

>  <GCUT_PEOE_2>
0.089600213

>  <GCUT_PEOE_3>
2.4746509

>  <GCUT_SLOGP_0>
-1.1838775

>  <GCUT_SLOGP_1>
-0.37304077

>  <GCUT_SLOGP_2>
0.018506758

>  <GCUT_SLOGP_3>
2.4323683

>  <GCUT_SMR_0>
-0.52368134

>  <GCUT_SMR_1>
-0.20708388

>  <GCUT_SMR_2>
0.14033157

>  <GCUT_SMR_3>
2.6945643

>  <Kier1>
11.076923

>  <Kier2>
4.0221605

>  <Kier3>
1.7751479

>  <KierA1>
8.0564766

>  <KierA2>
2.839257

>  <KierA3>
1.2214446

>  <KierFlex>
1.7595699

>  <lip_acc>
5

>  <lip_don>
2

>  <lip_druglike>
1

>  <lip_violation>
0

>  <logP(o/w)>
0.88499999

>  <logS>
-1.84369

>  <mr>
4.6374755

>  <mutagenic>
0

>  <nmol>
1

>  <opr_brigid>
6

>  <opr_leadlike>
1

>  <opr_nring>
1

>  <opr_nrot>
2

>  <opr_violation>
0

>  <PC+>
0

>  <PC->
0

>  <PEOE_PC+>
1.5391388

>  <PEOE_PC->
-1.5391388

>  <PEOE_RPC+>
0.21375933

>  <PEOE_RPC->
0.18045308

>  <PEOE_VSA+0>
42.653858

>  <PEOE_VSA+1>
0

>  <PEOE_VSA+2>
0

>  <PEOE_VSA+3>
17.238026

>  <PEOE_VSA+4>
25.899061

>  <PEOE_VSA+5>
0

>  <PEOE_VSA+6>
17.440542

>  <PEOE_VSA-0>
17.402626

>  <PEOE_VSA-1>
37.495354

>  <PEOE_VSA-2>
0

>  <PEOE_VSA-3>
0

>  <PEOE_VSA-4>
13.566921

>  <PEOE_VSA-5>
27.407623

>  <PEOE_VSA-6>
0

>  <PEOE_VSA_FHYD>
0.57653213

>  <PEOE_VSA_FNEG>
0.48151979

>  <PEOE_VSA_FPNEG>
0.20579466

>  <PEOE_VSA_FPOL>
0.42346784

>  <PEOE_VSA_FPOS>
0.51848018

>  <PEOE_VSA_FPPOS>
0.21767318

>  <PEOE_VSA_HYD>
114.78987

>  <PEOE_VSA_NEG>
95.872528

>  <PEOE_VSA_PNEG>
40.974545

>  <PEOE_VSA_POL>
84.314148

>  <PEOE_VSA_POS>
103.23149

>  <PEOE_VSA_PPOS>
43.339603

>  <petitjean>
0.5

>  <petitjeanSC>
1

>  <Q_PC+>
0

>  <Q_PC->
0

>  <Q_RPC+>
0

>  <Q_RPC->
0

>  <Q_VSA_FHYD>
1

>  <Q_VSA_FNEG>
0

>  <Q_VSA_FPNEG>
0

>  <Q_VSA_FPOL>
0

>  <Q_VSA_FPOS>
1

>  <Q_VSA_FPPOS>
0

>  <Q_VSA_HYD>
199.10402

>  <Q_VSA_NEG>
0

>  <Q_VSA_PNEG>
0

>  <Q_VSA_POL>
0

>  <Q_VSA_POS>
199.10402

>  <Q_VSA_PPOS>
0

>  <radius>
3

>  <reactive>
0

>  <rings>
1

>  <RPC+>
0

>  <RPC->
0

>  <rsynth>
1

>  <SlogP>
0.15880001

>  <SlogP_VSA0>
36.0215

>  <SlogP_VSA1>
15.347524

>  <SlogP_VSA2>
47.724434

>  <SlogP_VSA3>
0

>  <SlogP_VSA4>
0

>  <SlogP_VSA5>
0

>  <SlogP_VSA6>
0

>  <SlogP_VSA7>
0

>  <SlogP_VSA8>
37.736813

>  <SlogP_VSA9>
90.514244

>  <SMR>
4.4696398

>  <SMR_VSA0>
71.586647

>  <SMR_VSA1>
0

>  <SMR_VSA2>
36.0215

>  <SMR_VSA3>
0

>  <SMR_VSA4>
0

>  <SMR_VSA5>
37.736813

>  <SMR_VSA6>
15.347524

>  <SMR_VSA7>
66.652031

>  <TPSA>
75.269997

>  <VAdjEq>
0.6193822

>  <VAdjMa>
4.7004399

>  <VDistEq>
2.2809775

>  <VDistMa>
7.1412663

>  <vdw_area>
199.10402

>  <vdw_vol>
231.54413

>  <vsa_acc>
40.700764

>  <vsa_acid>
0

>  <vsa_base>
0

>  <vsa_don>
11.365152

>  <vsa_hyd>
90.433891

>  <vsa_other>
43.339603

>  <vsa_pol>
52.065914

>  <Weight>
184.19499

>  <weinerPath>
220

>  <weinerPol>
23

>  <zagreb>
64

$$$$