O1C[C@@]1(C(=O)[C@@H](NC(=O)[C@@H](NC(=O)[C@@H](NC(=O)[C@@H](NC(=O)CN1CCOCC1)CCc1ccccc1)CC(C)C)Cc1ccccc1)CC(C)C)C
  MOE2013           2D

 52 55  0  0  1  0  0  0  0  0999 V2000
    0.0000    0.0000    0.0000 O   0  0  0  0  0  0  0  0  0  0  0  0
   -0.5420   -1.3990    0.0000 C   0  0  0  0  0  0  0  0  0  0  0  0
   -1.4820   -0.2300    0.0000 C   0  0  2  0  0  0  0  0  0  0  0  0
   -2.2620    1.0520    0.0000 C   0  0  0  0  0  0  0  0  0  0  0  0
   -3.7610    1.0180    0.0000 O   0  0  0  0  0  0  0  0  0  0  0  0
   -1.5410    2.3680    0.0000 C   0  0  1  0  0  0  0  0  0  0  0  0
   -0.0420    2.4020    0.0000 N   0  0  0  0  0  0  0  0  0  0  0  0
    0.6780    3.7180    0.0000 C   0  0  0  0  0  0  0  0  0  0  0  0
   -0.1010    4.9990    0.0000 O   0  0  0  0  0  0  0  0  0  0  0  0
    2.1780    3.7520    0.0000 C   0  0  1  0  0  0  0  0  0  0  0  0
    2.9570    2.4700    0.0000 N   0  0  0  0  0  0  0  0  0  0  0  0
    4.4570    2.5040    0.0000 C   0  0  0  0  0  0  0  0  0  0  0  0
    5.1770    3.8200    0.0000 O   0  0  0  0  0  0  0  0  0  0  0  0
    5.2360    1.2230    0.0000 C   0  0  1  0  0  0  0  0  0  0  0  0
    6.7360    1.2570    0.0000 N   0  0  0  0  0  0  0  0  0  0  0  0
    7.4560    2.5730    0.0000 C   0  0  0  0  0  0  0  0  0  0  0  0
    6.6770    3.8540    0.0000 O   0  0  0  0  0  0  0  0  0  0  0  0
    8.9560    2.6070    0.0000 C   0  0  1  0  0  0  0  0  0  0  0  0
    9.7350    1.3250    0.0000 N   0  0  0  0  0  0  0  0  0  0  0  0
   11.2350    1.3590    0.0000 C   0  0  0  0  0  0  0  0  0  0  0  0
   11.9550    2.6750    0.0000 O   0  0  0  0  0  0  0  0  0  0  0  0
   12.0140    0.0780    0.0000 C   0  0  0  0  0  0  0  0  0  0  0  0
   13.5140    0.1120    0.0000 N   0  0  0  0  0  0  0  0  0  0  0  0
   14.2930   -1.1700    0.0000 C   0  0  0  0  0  0  0  0  0  0  0  0
   15.7930   -1.1360    0.0000 C   0  0  0  0  0  0  0  0  0  0  0  0
   16.5130    0.1800    0.0000 O   0  0  0  0  0  0  0  0  0  0  0  0
   15.7340    1.4620    0.0000 C   0  0  0  0  0  0  0  0  0  0  0  0
   14.2340    1.4280    0.0000 C   0  0  0  0  0  0  0  0  0  0  0  0
    9.6760    3.9230    0.0000 C   0  0  0  0  0  0  0  0  0  0  0  0
    8.8970    5.2040    0.0000 C   0  0  0  0  0  0  0  0  0  0  0  0
    9.6170    6.5200    0.0000 C   0  0  0  0  0  0  0  0  0  0  0  0
    8.8380    7.8020    0.0000 C   0  0  0  0  0  0  0  0  0  0  0  0
    9.5580    9.1170    0.0000 C   0  0  0  0  0  0  0  0  0  0  0  0
   11.0570    9.1510    0.0000 C   0  0  0  0  0  0  0  0  0  0  0  0
   11.8370    7.8700    0.0000 C   0  0  0  0  0  0  0  0  0  0  0  0
   11.1170    6.5540    0.0000 C   0  0  0  0  0  0  0  0  0  0  0  0
    4.5160   -0.0930    0.0000 C   0  0  0  0  0  0  0  0  0  0  0  0
    5.2950   -1.3750    0.0000 C   0  0  0  0  0  0  0  0  0  0  0  0
    6.7950   -1.3410    0.0000 C   0  0  0  0  0  0  0  0  0  0  0  0
    4.5750   -2.6900    0.0000 C   0  0  0  0  0  0  0  0  0  0  0  0
    2.8980    5.0680    0.0000 C   0  0  0  0  0  0  0  0  0  0  0  0
    2.1190    6.3490    0.0000 C   0  0  0  0  0  0  0  0  0  0  0  0
    0.6190    6.3150    0.0000 C   0  0  0  0  0  0  0  0  0  0  0  0
   -0.1600    7.5970    0.0000 C   0  0  0  0  0  0  0  0  0  0  0  0
    0.5600    8.9130    0.0000 C   0  0  0  0  0  0  0  0  0  0  0  0
    2.0600    8.9470    0.0000 C   0  0  0  0  0  0  0  0  0  0  0  0
    2.8390    7.6650    0.0000 C   0  0  0  0  0  0  0  0  0  0  0  0
   -2.3210    3.6490    0.0000 C   0  0  0  0  0  0  0  0  0  0  0  0
   -3.8200    3.6150    0.0000 C   0  0  0  0  0  0  0  0  0  0  0  0
   -4.5410    2.3000    0.0000 C   0  0  0  0  0  0  0  0  0  0  0  0
   -4.6000    4.8970    0.0000 C   0  0  0  0  0  0  0  0  0  0  0  0
   -2.9220   -0.6510    0.0000 C   0  0  0  0  0  0  0  0  0  0  0  0
  1  2  1  0  0  0  0
  1  3  1  0  0  0  0
  2  3  1  0  0  0  0
  3  4  1  6  0  0  0
  3 52  1  1  0  0  0
  4  5  2  0  0  0  0
  4  6  1  0  0  0  0
  6  7  1  6  0  0  0
  6 48  1  0  0  0  0
  7  8  1  0  0  0  0
  8  9  2  0  0  0  0
 10  8  1  6  0  0  0
 10 11  1  0  0  0  0
 10 41  1  0  0  0  0
 11 12  1  0  0  0  0
 12 13  2  0  0  0  0
 14 12  1  1  0  0  0
 14 15  1  0  0  0  0
 14 37  1  0  0  0  0
 15 16  1  0  0  0  0
 16 17  2  0  0  0  0
 18 16  1  6  0  0  0
 18 19  1  0  0  0  0
 18 29  1  0  0  0  0
 19 20  1  0  0  0  0
 20 21  2  0  0  0  0
 20 22  1  0  0  0  0
 22 23  1  0  0  0  0
 23 24  1  0  0  0  0
 23 28  1  0  0  0  0
 24 25  1  0  0  0  0
 25 26  1  0  0  0  0
 26 27  1  0  0  0  0
 27 28  1  0  0  0  0
 29 30  1  0  0  0  0
 30 31  1  0  0  0  0
 31 32  1  0  0  0  0
 31 36  2  0  0  0  0
 32 33  2  0  0  0  0
 33 34  1  0  0  0  0
 34 35  2  0  0  0  0
 35 36  1  0  0  0  0
 37 38  1  0  0  0  0
 38 39  1  0  0  0  0
 38 40  1  0  0  0  0
 41 42  1  0  0  0  0
 42 43  1  0  0  0  0
 42 47  2  0  0  0  0
 43 44  2  0  0  0  0
 44 45  1  0  0  0  0
 45 46  2  0  0  0  0
 46 47  1  0  0  0  0
 48 49  1  0  0  0  0
 49 50  1  0  0  0  0
 49 51  1  0  0  0  0
M  END
>  <Index>
193

>  <ID>
HT0383

>  <class>
0

>  <apol>
119.5212

>  <ast_fraglike>
0

>  <ast_fraglike_ext>
0

>  <ast_violation>
3

>  <ast_violation_ext>
5

>  <a_acc>
8

>  <a_acid>
0

>  <a_aro>
12

>  <a_base>
0

>  <a_count>
109

>  <a_don>
4

>  <a_donacc>
12

>  <a_heavy>
52

>  <a_hyd>
35

>  <a_IC>
161.11911

>  <a_ICM>
1.478157

>  <a_nB>
0

>  <a_nBr>
0

>  <a_nC>
40

>  <a_nCl>
0

>  <a_nF>
0

>  <a_nH>
57

>  <a_nI>
0

>  <a_nN>
5

>  <a_nO>
7

>  <a_nP>
0

>  <a_nS>
0

>  <balabanJ>
1.4605485

>  <BCUT_PEOE_0>
-2.7029846

>  <BCUT_PEOE_1>
-0.51852936

>  <BCUT_PEOE_2>
0.57336706

>  <BCUT_PEOE_3>
2.7783599

>  <BCUT_SLOGP_0>
-2.873426

>  <BCUT_SLOGP_1>
-0.45760325

>  <BCUT_SLOGP_2>
0.57150513

>  <BCUT_SLOGP_3>
2.7074201

>  <BCUT_SMR_0>
-2.4414976

>  <BCUT_SMR_1>
-0.38976544

>  <BCUT_SMR_2>
0.67957914

>  <BCUT_SMR_3>
3.0036302

>  <bpol>
75.554802

>  <b_1rotN>
20

>  <b_1rotR>
0.36363637

>  <b_ar>
12

>  <b_count>
112

>  <b_double>
5

>  <b_heavy>
55

>  <b_max1len>
8

>  <b_rotN>
24

>  <b_rotR>
0.43636364

>  <b_single>
95

>  <b_triple>
0

>  <chi0>
37.674786

>  <chi0v>
31.32073

>  <chi0v_C>
26.015779

>  <chi0_C>
27.854795

>  <chi1>
24.823227

>  <chi1v>
18.593327

>  <chi1v_C>
13.399172

>  <chi1_C>
15.592191

>  <chiral>
5

>  <chiral_u>
0

>  <density>
0.71255833

>  <diameter>
19

>  <FCharge>
0

>  <GCUT_PEOE_0>
-0.83278447

>  <GCUT_PEOE_1>
-0.36566108

>  <GCUT_PEOE_2>
0.05881783

>  <GCUT_PEOE_3>
3.1040332

>  <GCUT_SLOGP_0>
-1.1660291

>  <GCUT_SLOGP_1>
-0.30113044

>  <GCUT_SLOGP_2>
0.069776028

>  <GCUT_SLOGP_3>
3.0495718

>  <GCUT_SMR_0>
-0.53340268

>  <GCUT_SMR_1>
-0.21605732

>  <GCUT_SMR_2>
0.15748425

>  <GCUT_SMR_3>
3.3384514

>  <Kier1>
44.711407

>  <Kier2>
22.666666

>  <Kier3>
15.123457

>  <KierA1>
35.632751

>  <KierA2>
17.9797

>  <KierA3>
11.957511

>  <KierFlex>
12.320504

>  <lip_acc>
12

>  <lip_don>
4

>  <lip_druglike>
0

>  <lip_violation>
2

>  <logP(o/w)>
4.0780001

>  <logS>
-8.39958

>  <mr>
20.182619

>  <mutagenic>
1

>  <nmol>
1

>  <opr_brigid>
21

>  <opr_leadlike>
0

>  <opr_nring>
4

>  <opr_nrot>
22

>  <opr_violation>
3

>  <PC+>
0

>  <PC->
0

>  <PEOE_PC+>
4.9291835

>  <PEOE_PC->
-4.9291835

>  <PEOE_RPC+>
0.049550094

>  <PEOE_RPC->
0.076532394

>  <PEOE_VSA+0>
167.31293

>  <PEOE_VSA+1>
155.03065

>  <PEOE_VSA+2>
9.4378815

>  <PEOE_VSA+3>
42.93457

>  <PEOE_VSA+4>
51.798122

>  <PEOE_VSA+5>
0

>  <PEOE_VSA+6>
0

>  <PEOE_VSA-0>
57.970009

>  <PEOE_VSA-1>
197.53975

>  <PEOE_VSA-2>
0

>  <PEOE_VSA-3>
0

>  <PEOE_VSA-4>
0

>  <PEOE_VSA-5>
67.834602

>  <PEOE_VSA-6>
5.5550761

>  <PEOE_VSA_FHYD>
0.83427912

>  <PEOE_VSA_FNEG>
0.43538988

>  <PEOE_VSA_FPNEG>
0.097151652

>  <PEOE_VSA_FPOL>
0.16572088

>  <PEOE_VSA_FPOS>
0.56461012

>  <PEOE_VSA_FPPOS>
0.068569221

>  <PEOE_VSA_HYD>
630.22577

>  <PEOE_VSA_NEG>
328.89944

>  <PEOE_VSA_PNEG>
73.389679

>  <PEOE_VSA_POL>
125.18781

>  <PEOE_VSA_POS>
426.51416

>  <PEOE_VSA_PPOS>
51.798122

>  <petitjean>
0.47368422

>  <petitjeanSC>
0.89999998

>  <Q_PC+>
0

>  <Q_PC->
0

>  <Q_RPC+>
0

>  <Q_RPC->
0

>  <Q_VSA_FHYD>
1

>  <Q_VSA_FNEG>
0

>  <Q_VSA_FPNEG>
0

>  <Q_VSA_FPOL>
0

>  <Q_VSA_FPOS>
1

>  <Q_VSA_FPPOS>
0

>  <Q_VSA_HYD>
755.41357

>  <Q_VSA_NEG>
0

>  <Q_VSA_PNEG>
0

>  <Q_VSA_POL>
0

>  <Q_VSA_POS>
755.41357

>  <Q_VSA_PPOS>
0

>  <radius>
10

>  <reactive>
1

>  <rings>
4

>  <RPC+>
0

>  <RPC->
0

>  <rsynth>
0.76923078

>  <SlogP>
2.5834401

>  <SlogP_VSA0>
72.042999

>  <SlogP_VSA1>
29.847059

>  <SlogP_VSA2>
157.23874

>  <SlogP_VSA3>
118.09751

>  <SlogP_VSA4>
15.192742

>  <SlogP_VSA5>
37.736813

>  <SlogP_VSA6>
0

>  <SlogP_VSA7>
176.43184

>  <SlogP_VSA8>
56.605217

>  <SlogP_VSA9>
166.63008

>  <SMR>
19.816481

>  <SMR_VSA0>
141.31085

>  <SMR_VSA1>
3.1243138

>  <SMR_VSA2>
80.864594

>  <SMR_VSA3>
22.299025

>  <SMR_VSA4>
0

>  <SMR_VSA5>
270.77386

>  <SMR_VSA6>
144.82025

>  <SMR_VSA7>
166.63008

>  <TPSA>
158.47

>  <VAdjEq>
0.24540348

>  <VAdjMa>
6.7813597

>  <VDistEq>
4.0992346

>  <VDistMa>
11.162017

>  <vdw_area>
755.41357

>  <vdw_vol>
1010.3369

>  <vsa_acc>
72.842117

>  <vsa_acid>
0

>  <vsa_base>
0

>  <vsa_don>
22.730305

>  <vsa_hyd>
546.87598

>  <vsa_other>
60.256645

>  <vsa_pol>
95.572418

>  <Weight>
719.92401

>  <weinerPath>
11415

>  <weinerPol>
74

>  <zagreb>
260

$$$$