S(=O)(=O)(NC)Cc1cc2c([nH]cc2CCN(C)C)cc1
  MOE2013           2D

 20 21  0  0  0  0  0  0  0  0999 V2000
    0.0000    0.0000    0.0000 S   0  0  0  0  0  0  0  0  0  0  0  0
   -0.7590   -1.2940    0.0000 O   0  0  0  0  0  0  0  0  0  0  0  0
    0.7590    1.2940    0.0000 O   0  0  0  0  0  0  0  0  0  0  0  0
   -1.2940    0.7590    0.0000 N   0  0  0  0  0  0  0  0  0  0  0  0
   -2.5980    0.0180    0.0000 C   0  0  0  0  0  0  0  0  0  0  0  0
    1.2940   -0.7590    0.0000 C   0  0  0  0  0  0  0  0  0  0  0  0
    2.5980   -0.0180    0.0000 C   0  0  0  0  0  0  0  0  0  0  0  0
    3.8920   -0.7770    0.0000 C   0  0  0  0  0  0  0  0  0  0  0  0
    5.1960   -0.0360    0.0000 C   0  0  0  0  0  0  0  0  0  0  0  0
    5.2060    1.4640    0.0000 C   0  0  0  0  0  0  0  0  0  0  0  0
    6.6360    1.9180    0.0000 N   0  0  0  0  0  0  0  0  0  0  0  0
    7.5090    0.6990    0.0000 C   0  0  0  0  0  0  0  0  0  0  0  0
    6.6190   -0.5090    0.0000 C   0  0  0  0  0  0  0  0  0  0  0  0
    7.0730   -1.9390    0.0000 C   0  0  0  0  0  0  0  0  0  0  0  0
    8.5380   -2.2600    0.0000 C   0  0  0  0  0  0  0  0  0  0  0  0
    8.9920   -3.6900    0.0000 N   0  0  0  0  0  0  0  0  0  0  0  0
    7.9810   -4.7980    0.0000 C   0  0  0  0  0  0  0  0  0  0  0  0
   10.4570   -4.0120    0.0000 C   0  0  0  0  0  0  0  0  0  0  0  0
    3.9120    2.2230    0.0000 C   0  0  0  0  0  0  0  0  0  0  0  0
    2.6080    1.4820    0.0000 C   0  0  0  0  0  0  0  0  0  0  0  0
  1  2  2  0  0  0  0
  1  3  2  0  0  0  0
  1  4  1  0  0  0  0
  1  6  1  0  0  0  0
  4  5  1  0  0  0  0
  6  7  1  0  0  0  0
  7  8  1  0  0  0  0
  7 20  2  0  0  0  0
  8  9  2  0  0  0  0
  9 10  1  0  0  0  0
  9 13  1  0  0  0  0
 10 11  1  0  0  0  0
 10 19  2  0  0  0  0
 11 12  1  0  0  0  0
 12 13  2  0  0  0  0
 13 14  1  0  0  0  0
 14 15  1  0  0  0  0
 15 16  1  0  0  0  0
 16 17  1  0  0  0  0
 16 18  1  0  0  0  0
 19 20  1  0  0  0  0
M  END
>  <Index>
1027

>  <ID>
HT1965

>  <class>
0

>  <apol>
46.446651

>  <ast_fraglike>
1

>  <ast_fraglike_ext>
0

>  <ast_violation>
0

>  <ast_violation_ext>
1

>  <a_acc>
3

>  <a_acid>
0

>  <a_aro>
9

>  <a_base>
0

>  <a_count>
41

>  <a_don>
2

>  <a_donacc>
5

>  <a_heavy>
20

>  <a_hyd>
14

>  <a_IC>
67.363113

>  <a_ICM>
1.6430026

>  <a_nB>
0

>  <a_nBr>
0

>  <a_nC>
14

>  <a_nCl>
0

>  <a_nF>
0

>  <a_nH>
21

>  <a_nI>
0

>  <a_nN>
3

>  <a_nO>
2

>  <a_nP>
0

>  <a_nS>
1

>  <balabanJ>
1.881192

>  <BCUT_PEOE_0>
-2.6034517

>  <BCUT_PEOE_1>
-0.36618772

>  <BCUT_PEOE_2>
0.42200866

>  <BCUT_PEOE_3>
2.5279012

>  <BCUT_SLOGP_0>
-2.6763113

>  <BCUT_SLOGP_1>
-0.32534707

>  <BCUT_SLOGP_2>
0.48189652

>  <BCUT_SLOGP_3>
2.5350087

>  <BCUT_SMR_0>
-2.3194487

>  <BCUT_SMR_1>
-0.14545134

>  <BCUT_SMR_2>
0.57680821

>  <BCUT_SMR_3>
2.8602283

>  <bpol>
32.733349

>  <b_1rotN>
6

>  <b_1rotR>
0.2857143

>  <b_ar>
10

>  <b_count>
42

>  <b_double>
0

>  <b_heavy>
21

>  <b_max1len>
5

>  <b_rotN>
6

>  <b_rotR>
0.2857143

>  <b_single>
32

>  <b_triple>
0

>  <chi0>
14.750712

>  <chi0v>
12.919176

>  <chi0v_C>
9.4307213

>  <chi0_C>
10.259149

>  <chi1>
9.4098158

>  <chi1v>
8.211544

>  <chi1v_C>
3.4838157

>  <chi1_C>
4.5244045

>  <chiral>
0

>  <chiral_u>
0

>  <density>
0.75046009

>  <diameter>
11

>  <FCharge>
0

>  <GCUT_PEOE_0>
-0.86471188

>  <GCUT_PEOE_1>
-0.38206208

>  <GCUT_PEOE_2>
0.008143574

>  <GCUT_PEOE_3>
2.5890431

>  <GCUT_SLOGP_0>
-1.1331832

>  <GCUT_SLOGP_1>
-0.32554194

>  <GCUT_SLOGP_2>
0.060805034

>  <GCUT_SLOGP_3>
2.6648347

>  <GCUT_SMR_0>
-0.51718211

>  <GCUT_SMR_1>
-0.12631792

>  <GCUT_SMR_2>
0.11104855

>  <GCUT_SMR_3>
2.8790517

>  <Kier1>
16.371881

>  <Kier2>
6.8400002

>  <Kier3>
4.4963264

>  <KierA1>
14.632585

>  <KierA2>
6.0752082

>  <KierA3>
3.9753463

>  <KierFlex>
4.4447999

>  <lip_acc>
5

>  <lip_don>
2

>  <lip_druglike>
1

>  <lip_violation>
0

>  <logP(o/w)>
1.675

>  <logS>
-1.38972

>  <mr>
8.1596537

>  <mutagenic>
0

>  <nmol>
1

>  <opr_brigid>
10

>  <opr_leadlike>
1

>  <opr_nring>
2

>  <opr_nrot>
5

>  <opr_violation>
0

>  <PC+>
0

>  <PC->
0

>  <PEOE_PC+>
1.5539721

>  <PEOE_PC->
-1.5539721

>  <PEOE_RPC+>
0.14113341

>  <PEOE_RPC->
0.23190024

>  <PEOE_VSA+0>
115.22951

>  <PEOE_VSA+1>
17.061544

>  <PEOE_VSA+2>
8.5307722

>  <PEOE_VSA+3>
8.6190128

>  <PEOE_VSA+4>
10.677375

>  <PEOE_VSA+5>
0

>  <PEOE_VSA+6>
0

>  <PEOE_VSA-0>
117.39063

>  <PEOE_VSA-1>
0

>  <PEOE_VSA-2>
0

>  <PEOE_VSA-3>
2.5295215

>  <PEOE_VSA-4>
32.016521

>  <PEOE_VSA-5>
0

>  <PEOE_VSA-6>
0.13689101

>  <PEOE_VSA_FHYD>
0.86280614

>  <PEOE_VSA_FNEG>
0.48711586

>  <PEOE_VSA_FPNEG>
0.1029925

>  <PEOE_VSA_FPOL>
0.13719384

>  <PEOE_VSA_FPOS>
0.51288414

>  <PEOE_VSA_FPPOS>
0.034201331

>  <PEOE_VSA_HYD>
269.36099

>  <PEOE_VSA_NEG>
152.07356

>  <PEOE_VSA_PNEG>
32.153416

>  <PEOE_VSA_POL>
42.830788

>  <PEOE_VSA_POS>
160.11821

>  <PEOE_VSA_PPOS>
10.677375

>  <petitjean>
0.45454547

>  <petitjeanSC>
0.83333331

>  <Q_PC+>
0

>  <Q_PC->
0

>  <Q_RPC+>
0

>  <Q_RPC->
0

>  <Q_VSA_FHYD>
1

>  <Q_VSA_FNEG>
0

>  <Q_VSA_FPNEG>
0

>  <Q_VSA_FPOL>
0

>  <Q_VSA_FPOS>
1

>  <Q_VSA_FPPOS>
0

>  <Q_VSA_HYD>
312.19177

>  <Q_VSA_NEG>
0

>  <Q_VSA_PNEG>
0

>  <Q_VSA_POL>
0

>  <Q_VSA_POS>
312.19177

>  <Q_VSA_PPOS>
0

>  <radius>
6

>  <reactive>
0

>  <rings>
2

>  <RPC+>
0

>  <RPC->
0

>  <rsynth>
1

>  <SlogP>
1.58757

>  <SlogP_VSA0>
16.404997

>  <SlogP_VSA1>
51.296001

>  <SlogP_VSA2>
23.426271

>  <SlogP_VSA3>
18.439579

>  <SlogP_VSA4>
6.37115

>  <SlogP_VSA5>
117.55997

>  <SlogP_VSA6>
0

>  <SlogP_VSA7>
74.861008

>  <SlogP_VSA8>
0

>  <SlogP_VSA9>
17.233564

>  <SMR>
8.2445202

>  <SMR_VSA0>
48.171688

>  <SMR_VSA1>
3.1243138

>  <SMR_VSA2>
33.190529

>  <SMR_VSA3>
6.37115

>  <SMR_VSA4>
4.7171016

>  <SMR_VSA5>
106.24588

>  <SMR_VSA6>
18.439579

>  <SMR_VSA7>
105.33231

>  <TPSA>
65.199997

>  <VAdjEq>
0.48464775

>  <VAdjMa>
5.3923173

>  <VDistEq>
3.2307994

>  <VDistMa>
8.3359737

>  <vdw_area>
312.19177

>  <vdw_vol>
393.63452

>  <vsa_acc>
32.016521

>  <vsa_acid>
0

>  <vsa_base>
0

>  <vsa_don>
13.757783

>  <vsa_hyd>
236.6411

>  <vsa_other>
10.105608

>  <vsa_pol>
45.774307

>  <Weight>
295.40698

>  <weinerPath>
859

>  <weinerPol>
27

>  <zagreb>
102

$$$$