s1ccc(C)c1C(=CCCN1C[C@@H](CCC1)C(O)=O)c1sccc1C
  MOE2013           2D

 25 27  0  0  1  0  0  0  0  0999 V2000
    0.0000    0.0000    0.0000 S   0  0  0  0  0  0  0  0  0  0  0  0
   -0.4740   -1.4230    0.0000 C   0  0  0  0  0  0  0  0  0  0  0  0
   -1.9740   -1.4120    0.0000 C   0  0  0  0  0  0  0  0  0  0  0  0
   -2.4270    0.0180    0.0000 C   0  0  0  0  0  0  0  0  0  0  0  0
   -3.8500    0.4920    0.0000 C   0  0  0  0  0  0  0  0  0  0  0  0
   -1.2070    0.8910    0.0000 C   0  0  0  0  0  0  0  0  0  0  0  0
   -1.1960    2.3910    0.0000 C   0  0  0  0  0  0  0  0  0  0  0  0
    0.1090    3.1310    0.0000 C   0  0  0  0  0  0  0  0  0  0  0  0
    1.4020    2.3710    0.0000 C   0  0  0  0  0  0  0  0  0  0  0  0
    2.7070    3.1110    0.0000 C   0  0  0  0  0  0  0  0  0  0  0  0
    4.0000    2.3520    0.0000 N   0  0  3  0  0  0  0  0  0  0  0  0
    5.3050    3.0920    0.0000 C   0  0  0  0  0  0  0  0  0  0  0  0
    6.5980    2.3320    0.0000 C   0  0  1  0  0  0  0  0  0  0  0  0
    6.5870    0.8320    0.0000 C   0  0  0  0  0  0  0  0  0  0  0  0
    5.2830    0.0920    0.0000 C   0  0  0  0  0  0  0  0  0  0  0  0
    3.9890    0.8520    0.0000 C   0  0  0  0  0  0  0  0  0  0  0  0
    7.9030    3.0730    0.0000 C   0  0  0  0  0  0  0  0  0  0  0  0
    9.1960    2.3130    0.0000 O   0  0  0  0  0  0  0  0  0  0  0  0
    7.9140    4.5720    0.0000 O   0  0  0  0  0  0  0  0  0  0  0  0
   -2.4890    3.1500    0.0000 C   0  0  0  0  0  0  0  0  0  0  0  0
   -3.8640    2.5510    0.0000 S   0  0  0  0  0  0  0  0  0  0  0  0
   -4.8590    3.6730    0.0000 C   0  0  0  0  0  0  0  0  0  0  0  0
   -4.0990    4.9660    0.0000 C   0  0  0  0  0  0  0  0  0  0  0  0
   -2.6350    4.6430    0.0000 C   0  0  0  0  0  0  0  0  0  0  0  0
   -1.5120    5.6390    0.0000 C   0  0  0  0  0  0  0  0  0  0  0  0
  1  2  1  0  0  0  0
  1  6  1  0  0  0  0
  2  3  2  0  0  0  0
  3  4  1  0  0  0  0
  4  5  1  0  0  0  0
  4  6  2  0  0  0  0
  6  7  1  0  0  0  0
  7  8  2  3  0  0  0
  7 20  1  0  0  0  0
  8  9  1  0  0  0  0
  9 10  1  0  0  0  0
 10 11  1  0  0  0  0
 11 12  1  0  0  0  0
 11 16  1  0  0  0  0
 12 13  1  0  0  0  0
 13 14  1  0  0  0  0
 13 17  1  6  0  0  0
 14 15  1  0  0  0  0
 15 16  1  0  0  0  0
 17 18  1  0  0  0  0
 17 19  2  0  0  0  0
 20 21  1  0  0  0  0
 20 24  2  0  0  0  0
 21 22  1  0  0  0  0
 22 23  2  0  0  0  0
 23 24  1  0  0  0  0
 24 25  1  0  0  0  0
M  END
>  <Index>
1072

>  <ID>
HT2052

>  <class>
0

>  <apol>
60.373825

>  <ast_fraglike>
0

>  <ast_fraglike_ext>
0

>  <ast_violation>
2

>  <ast_violation_ext>
3

>  <a_acc>
3

>  <a_acid>
0

>  <a_aro>
10

>  <a_base>
0

>  <a_count>
50

>  <a_don>
2

>  <a_donacc>
5

>  <a_heavy>
25

>  <a_hyd>
21

>  <a_IC>
75.657845

>  <a_ICM>
1.5131569

>  <a_nB>
0

>  <a_nBr>
0

>  <a_nC>
20

>  <a_nCl>
0

>  <a_nF>
0

>  <a_nH>
25

>  <a_nI>
0

>  <a_nN>
1

>  <a_nO>
2

>  <a_nP>
0

>  <a_nS>
2

>  <balabanJ>
1.520952

>  <BCUT_PEOE_0>
-2.777746

>  <BCUT_PEOE_1>
-0.52818817

>  <BCUT_PEOE_2>
0.63160145

>  <BCUT_PEOE_3>
2.7292833

>  <BCUT_SLOGP_0>
-2.8191278

>  <BCUT_SLOGP_1>
-0.41678834

>  <BCUT_SLOGP_2>
0.67645597

>  <BCUT_SLOGP_3>
2.7266889

>  <BCUT_SMR_0>
-2.5164647

>  <BCUT_SMR_1>
-0.32284984

>  <BCUT_SMR_2>
0.77176619

>  <BCUT_SMR_3>
2.9805458

>  <bpol>
34.828175

>  <b_1rotN>
6

>  <b_1rotR>
0.22222222

>  <b_ar>
10

>  <b_count>
52

>  <b_double>
2

>  <b_heavy>
27

>  <b_max1len>
4

>  <b_rotN>
6

>  <b_rotR>
0.22222222

>  <b_single>
40

>  <b_triple>
0

>  <chi0>
17.81119

>  <chi0v>
16.458908

>  <chi0v_C>
12.706742

>  <chi0_C>
13.819627

>  <chi1>
12.058551

>  <chi1v>
10.561484

>  <chi1v_C>
6.5461121

>  <chi1_C>
7.8626084

>  <chiral>
1

>  <chiral_u>
0

>  <density>
0.7456668

>  <diameter>
11

>  <FCharge>
0

>  <GCUT_PEOE_0>
-0.85514736

>  <GCUT_PEOE_1>
-0.40303975

>  <GCUT_PEOE_2>
0.080837898

>  <GCUT_PEOE_3>
2.7308853

>  <GCUT_SLOGP_0>
-0.95300192

>  <GCUT_SLOGP_1>
-0.273195

>  <GCUT_SLOGP_2>
0.17057015

>  <GCUT_SLOGP_3>
2.8155591

>  <GCUT_SMR_0>
-0.52122784

>  <GCUT_SMR_1>
-0.19442381

>  <GCUT_SMR_2>
0.23116031

>  <GCUT_SMR_3>
3.0029042

>  <Kier1>
19.753086

>  <Kier2>
9.2739229

>  <Kier3>
5.0416665

>  <KierA1>
18.32711

>  <KierA2>
8.5764675

>  <KierA3>
4.6511564

>  <KierFlex>
6.2872748

>  <lip_acc>
3

>  <lip_don>
1

>  <lip_druglike>
1

>  <lip_violation>
0

>  <logP(o/w)>
4.027

>  <logS>
-3.6605401

>  <mr>
10.838979

>  <mutagenic>
0

>  <nmol>
1

>  <opr_brigid>
17

>  <opr_leadlike>
1

>  <opr_nring>
3

>  <opr_nrot>
8

>  <opr_violation>
1

>  <PC+>
0

>  <PC->
0

>  <PEOE_PC+>
1.7944598

>  <PEOE_PC->
-1.7944598

>  <PEOE_RPC+>
0.14708181

>  <PEOE_RPC->
0.18447174

>  <PEOE_VSA+0>
115.95776

>  <PEOE_VSA+1>
12.796158

>  <PEOE_VSA+2>
0

>  <PEOE_VSA+3>
39.521236

>  <PEOE_VSA+4>
10.324173

>  <PEOE_VSA+5>
14.708499

>  <PEOE_VSA+6>
0

>  <PEOE_VSA-0>
79.00016

>  <PEOE_VSA-1>
49.550995

>  <PEOE_VSA-2>
28.461931

>  <PEOE_VSA-3>
0

>  <PEOE_VSA-4>
0

>  <PEOE_VSA-5>
13.566921

>  <PEOE_VSA-6>
7.7675405

>  <PEOE_VSA_FHYD>
0.87524158

>  <PEOE_VSA_FNEG>
0.47987345

>  <PEOE_VSA_FPNEG>
0.057403881

>  <PEOE_VSA_FPOL>
0.12475841

>  <PEOE_VSA_FPOS>
0.52012652

>  <PEOE_VSA_FPPOS>
0.06735453

>  <PEOE_VSA_HYD>
325.28824

>  <PEOE_VSA_NEG>
178.34755

>  <PEOE_VSA_PNEG>
21.334461

>  <PEOE_VSA_POL>
46.367134

>  <PEOE_VSA_POS>
193.30782

>  <PEOE_VSA_PPOS>
25.032671

>  <petitjean>
0.45454547

>  <petitjeanSC>
0.83333331

>  <Q_PC+>
0

>  <Q_PC->
0

>  <Q_RPC+>
0

>  <Q_RPC->
0

>  <Q_VSA_FHYD>
1

>  <Q_VSA_FNEG>
0

>  <Q_VSA_FPNEG>
0

>  <Q_VSA_FPOL>
0

>  <Q_VSA_FPOS>
1

>  <Q_VSA_FPPOS>
0

>  <Q_VSA_HYD>
371.65536

>  <Q_VSA_NEG>
0

>  <Q_VSA_PNEG>
0

>  <Q_VSA_POL>
0

>  <Q_VSA_POS>
371.65536

>  <Q_VSA_PPOS>
0

>  <radius>
6

>  <reactive>
0

>  <rings>
3

>  <RPC+>
0

>  <RPC->
0

>  <rsynth>
0.56

>  <SlogP>
4.8621302

>  <SlogP_VSA0>
0

>  <SlogP_VSA1>
10.869778

>  <SlogP_VSA2>
23.862217

>  <SlogP_VSA3>
83.889534

>  <SlogP_VSA4>
13.498749

>  <SlogP_VSA5>
0

>  <SlogP_VSA6>
0

>  <SlogP_VSA7>
84.561577

>  <SlogP_VSA8>
56.605217

>  <SlogP_VSA9>
129.20741

>  <SMR>
10.55458

>  <SMR_VSA0>
23.862217

>  <SMR_VSA1>
3.1243138

>  <SMR_VSA2>
32.981598

>  <SMR_VSA3>
9.0879526

>  <SMR_VSA4>
0

>  <SMR_VSA5>
141.16679

>  <SMR_VSA6>
63.064198

>  <SMR_VSA7>
129.20741

>  <TPSA>
40.540001

>  <VAdjEq>
0.42433795

>  <VAdjMa>
5.7548876

>  <VDistEq>
3.4044797

>  <VDistMa>
8.9967613

>  <vdw_area>
371.65536

>  <vdw_vol>
503.65259

>  <vsa_acc>
0

>  <vsa_acid>
0

>  <vsa_base>
0

>  <vsa_don>
0

>  <vsa_hyd>
306.86011

>  <vsa_other>
14.708499

>  <vsa_pol>
27.133842

>  <Weight>
375.55701

>  <weinerPath>
1596

>  <weinerPol>
35

>  <zagreb>
128

$$$$