O=C1N2N(c3cc(ccc3N=C2N(C)C)C)C(=O)C1CCC
  MOE2013           2D

 22 24  0  0  1  0  0  0  0  0999 V2000
    0.0000    0.0000    0.0000 O   0  0  0  0  0  0  0  0  0  0  0  0
   -0.9830   -1.1330    0.0000 C   0  0  0  0  0  0  0  0  0  0  0  0
   -2.4780   -1.0030    0.0000 N   0  0  0  0  0  0  0  0  0  0  0  0
   -3.0630   -2.3840    0.0000 N   0  0  0  0  0  0  0  0  0  0  0  0
   -4.5520   -2.5680    0.0000 C   0  0  0  0  0  0  0  0  0  0  0  0
   -5.1370   -3.9490    0.0000 C   0  0  0  0  0  0  0  0  0  0  0  0
   -6.6260   -4.1330    0.0000 C   0  0  0  0  0  0  0  0  0  0  0  0
   -7.5290   -2.9350    0.0000 C   0  0  0  0  0  0  0  0  0  0  0  0
   -6.9440   -1.5540    0.0000 C   0  0  0  0  0  0  0  0  0  0  0  0
   -5.4550   -1.3700    0.0000 C   0  0  0  0  0  0  0  0  0  0  0  0
   -4.8700    0.0110    0.0000 N   0  0  0  0  0  0  0  0  0  0  0  0
   -3.3810    0.1940    0.0000 C   0  0  0  0  0  0  0  0  0  0  0  0
   -2.7960    1.5760    0.0000 N   0  0  0  0  0  0  0  0  0  0  0  0
   -3.6990    2.7730    0.0000 C   0  0  0  0  0  0  0  0  0  0  0  0
   -1.3070    1.7590    0.0000 C   0  0  0  0  0  0  0  0  0  0  0  0
   -7.2110   -5.5140    0.0000 C   0  0  0  0  0  0  0  0  0  0  0  0
   -1.9300   -3.3670    0.0000 C   0  0  0  0  0  0  0  0  0  0  0  0
   -2.0600   -4.8620    0.0000 O   0  0  0  0  0  0  0  0  0  0  0  0
   -0.6450   -2.5940    0.0000 C   0  0  3  0  0  0  0  0  0  0  0  0
    0.7360   -3.1790    0.0000 C   0  0  0  0  0  0  0  0  0  0  0  0
    0.9200   -4.6680    0.0000 C   0  0  0  0  0  0  0  0  0  0  0  0
    2.3010   -5.2530    0.0000 C   0  0  0  0  0  0  0  0  0  0  0  0
  1  2  2  0  0  0  0
  2  3  1  0  0  0  0
  2 19  1  0  0  0  0
  3  4  1  0  0  0  0
  3 12  1  0  0  0  0
  4  5  1  0  0  0  0
  4 17  1  0  0  0  0
  5  6  1  0  0  0  0
  5 10  2  0  0  0  0
  6  7  2  0  0  0  0
  7  8  1  0  0  0  0
  7 16  1  0  0  0  0
  8  9  2  0  0  0  0
  9 10  1  0  0  0  0
 10 11  1  0  0  0  0
 11 12  2  0  0  0  0
 12 13  1  0  0  0  0
 13 14  1  0  0  0  0
 13 15  1  0  0  0  0
 17 18  2  0  0  0  0
 17 19  1  0  0  0  0
 19 20  1  0  0  0  0
 20 21  1  0  0  0  0
 21 22  1  0  0  0  0
M  END
>  <Index>
101

>  <ID>
HT0210

>  <class>
0

>  <apol>
47.499859

>  <ast_fraglike>
0

>  <ast_fraglike_ext>
0

>  <ast_violation>
1

>  <ast_violation_ext>
1

>  <a_acc>
3

>  <a_acid>
0

>  <a_aro>
6

>  <a_base>
0

>  <a_count>
42

>  <a_don>
0

>  <a_donacc>
3

>  <a_heavy>
22

>  <a_hyd>
13

>  <a_IC>
66.038773

>  <a_ICM>
1.5723517

>  <a_nB>
0

>  <a_nBr>
0

>  <a_nC>
16

>  <a_nCl>
0

>  <a_nF>
0

>  <a_nH>
20

>  <a_nI>
0

>  <a_nN>
4

>  <a_nO>
2

>  <a_nP>
0

>  <a_nS>
0

>  <balabanJ>
1.9166899

>  <BCUT_PEOE_0>
-2.5550258

>  <BCUT_PEOE_1>
-0.50210136

>  <BCUT_PEOE_2>
0.35509908

>  <BCUT_PEOE_3>
2.6809111

>  <BCUT_SLOGP_0>
-2.640759

>  <BCUT_SLOGP_1>
-0.42504206

>  <BCUT_SLOGP_2>
0.37725085

>  <BCUT_SLOGP_3>
2.6770089

>  <BCUT_SMR_0>
-2.3299968

>  <BCUT_SMR_1>
-0.26685157

>  <BCUT_SMR_2>
0.55861723

>  <BCUT_SMR_3>
2.9339144

>  <bpol>
29.72014

>  <b_1rotN>
3

>  <b_1rotR>
0.125

>  <b_ar>
6

>  <b_count>
44

>  <b_double>
3

>  <b_heavy>
24

>  <b_max1len>
5

>  <b_rotN>
3

>  <b_rotR>
0.125

>  <b_single>
35

>  <b_triple>
0

>  <chi0>
16.016144

>  <chi0v>
13.328965

>  <chi0v_C>
10.723615

>  <chi0_C>
11.576985

>  <chi1>
10.451596

>  <chi1v>
7.4986625

>  <chi1v_C>
4.4307394

>  <chi1_C>
5.3256984

>  <chiral>
1

>  <chiral_u>
1

>  <density>
0.7324549

>  <diameter>
9

>  <FCharge>
0

>  <GCUT_PEOE_0>
-0.85687071

>  <GCUT_PEOE_1>
-0.40206781

>  <GCUT_PEOE_2>
-0.06984596

>  <GCUT_PEOE_3>
2.7032456

>  <GCUT_SLOGP_0>
-1.0399936

>  <GCUT_SLOGP_1>
-0.32219014

>  <GCUT_SLOGP_2>
-0.0033866013

>  <GCUT_SLOGP_3>
2.7212298

>  <GCUT_SMR_0>
-0.52738041

>  <GCUT_SMR_1>
-0.19016749

>  <GCUT_SMR_2>
0.11264636

>  <GCUT_SMR_3>
2.9770575

>  <Kier1>
16.84375

>  <Kier2>
6.4814816

>  <Kier3>
2.8106508

>  <KierA1>
12.168571

>  <KierA2>
4.6037488

>  <KierA3>
1.9719181

>  <KierFlex>
2.5464113

>  <lip_acc>
6

>  <lip_don>
0

>  <lip_druglike>
1

>  <lip_violation>
0

>  <logP(o/w)>
2.2720001

>  <logS>
-3.7920401

>  <mr>
8.3008194

>  <mutagenic>
0

>  <nmol>
1

>  <opr_brigid>
15

>  <opr_leadlike>
1

>  <opr_nring>
3

>  <opr_nrot>
3

>  <opr_violation>
0

>  <PC+>
0

>  <PC->
0

>  <PEOE_PC+>
1.8473104

>  <PEOE_PC->
-1.8473104

>  <PEOE_RPC+>
0.14153336

>  <PEOE_RPC->
0.18747541

>  <PEOE_VSA+0>
118.98894

>  <PEOE_VSA+1>
26.195261

>  <PEOE_VSA+2>
0

>  <PEOE_VSA+3>
0

>  <PEOE_VSA+4>
15.681574

>  <PEOE_VSA+5>
25.899061

>  <PEOE_VSA+6>
0

>  <PEOE_VSA-0>
54.167339

>  <PEOE_VSA-1>
39.703896

>  <PEOE_VSA-2>
0

>  <PEOE_VSA-3>
0

>  <PEOE_VSA-4>
5.6825762

>  <PEOE_VSA-5>
27.133842

>  <PEOE_VSA-6>
0

>  <PEOE_VSA_FHYD>
0.76265287

>  <PEOE_VSA_FNEG>
0.40416861

>  <PEOE_VSA_FPNEG>
0.10469344

>  <PEOE_VSA_FPOL>
0.23734714

>  <PEOE_VSA_FPOS>
0.59583139

>  <PEOE_VSA_FPPOS>
0.13265371

>  <PEOE_VSA_HYD>
239.05544

>  <PEOE_VSA_NEG>
126.68765

>  <PEOE_VSA_PNEG>
32.816418

>  <PEOE_VSA_POL>
74.397057

>  <PEOE_VSA_POS>
186.76483

>  <PEOE_VSA_PPOS>
41.580635

>  <petitjean>
0.44444445

>  <petitjeanSC>
0.80000001

>  <Q_PC+>
0

>  <Q_PC->
0

>  <Q_RPC+>
0

>  <Q_RPC->
0

>  <Q_VSA_FHYD>
1

>  <Q_VSA_FNEG>
0

>  <Q_VSA_FPNEG>
0

>  <Q_VSA_FPOL>
0

>  <Q_VSA_FPOS>
1

>  <Q_VSA_FPPOS>
0

>  <Q_VSA_HYD>
313.45248

>  <Q_VSA_NEG>
0

>  <Q_VSA_PNEG>
0

>  <Q_VSA_POL>
0

>  <Q_VSA_POS>
313.45248

>  <Q_VSA_PPOS>
0

>  <radius>
5

>  <reactive>
0

>  <rings>
3

>  <RPC+>
0

>  <RPC->
0

>  <rsynth>
1

>  <SlogP>
2.06422

>  <SlogP_VSA0>
3.0017917

>  <SlogP_VSA1>
18.542765

>  <SlogP_VSA2>
47.724434

>  <SlogP_VSA3>
0

>  <SlogP_VSA4>
7.5963712

>  <SlogP_VSA5>
82.579903

>  <SlogP_VSA6>
0

>  <SlogP_VSA7>
52.929554

>  <SlogP_VSA8>
37.736813

>  <SlogP_VSA9>
72.165527

>  <SMR>
8.4691

>  <SMR_VSA0>
47.724434

>  <SMR_VSA1>
22.911634

>  <SMR_VSA2>
7.4125876

>  <SMR_VSA3>
3.185575

>  <SMR_VSA4>
5.513495

>  <SMR_VSA5>
90.666367

>  <SMR_VSA6>
12.41666

>  <SMR_VSA7>
132.44641

>  <TPSA>
56.220001

>  <VAdjEq>
0.46637034

>  <VAdjMa>
5.5849624

>  <VDistEq>
2.9092741

>  <VDistMa>
8.6741362

>  <vdw_area>
313.45248

>  <vdw_vol>
410.07574

>  <vsa_acc>
32.816418

>  <vsa_acid>
0

>  <vsa_base>
0

>  <vsa_don>
0

>  <vsa_hyd>
223.47447

>  <vsa_other>
41.580635

>  <vsa_pol>
32.816418

>  <Weight>
300.362

>  <weinerPath>
916

>  <weinerPol>
41

>  <zagreb>
120

$$$$