OC1N=C(NC(C1)C1NC(=O)/C(/NC(=O)C(NC(=O)C(NC(=O)C(NC(=O)CC(N)CCCN)CNC1=O)CO)CO)=CNC(=O)N)N
  MOE2013           2D

 48 49  0  0  1  0  0  0  0  0999 V2000
    0.0000    0.0000    0.0000 O   0  0  0  0  0  0  0  0  0  0  0  0
    1.2950    0.7560    0.0000 C   0  0  3  0  0  0  0  0  0  0  0  0
    1.2880    2.2560    0.0000 N   0  0  0  0  0  0  0  0  0  0  0  0
    2.5830    3.0130    0.0000 C   0  0  0  0  0  0  0  0  0  0  0  0
    3.8860    2.2690    0.0000 N   0  0  0  0  0  0  0  0  0  0  0  0
    3.8930    0.7690    0.0000 C   0  0  3  0  0  0  0  0  0  0  0  0
    2.5980    0.0130    0.0000 C   0  0  0  0  0  0  0  0  0  0  0  0
    5.1960    0.0260    0.0000 C   0  0  3  0  0  0  0  0  0  0  0  0
    5.1130   -1.4540    0.0000 N   0  0  0  0  0  0  0  0  0  0  0  0
    3.7620   -2.1360    0.0000 C   0  0  0  0  0  0  0  0  0  0  0  0
    2.4990   -1.3270    0.0000 O   0  0  0  0  0  0  0  0  0  0  0  0
    3.7090   -3.6420    0.0000 C   0  0  0  0  0  0  0  0  0  0  0  0
    4.9600   -4.4360    0.0000 N   0  0  0  0  0  0  0  0  0  0  0  0
    4.9200   -5.9480    0.0000 C   0  0  0  0  0  0  0  0  0  0  0  0
    3.6380   -6.7250    0.0000 O   0  0  0  0  0  0  0  0  0  0  0  0
    6.3230   -6.6320    0.0000 C   0  0  3  0  0  0  0  0  0  0  0  0
    7.4900   -5.7010    0.0000 N   0  0  0  0  0  0  0  0  0  0  0  0
    8.9000   -6.2010    0.0000 C   0  0  0  0  0  0  0  0  0  0  0  0
    9.2370   -7.6630    0.0000 O   0  0  0  0  0  0  0  0  0  0  0  0
    9.9990   -5.0920    0.0000 C   0  0  3  0  0  0  0  0  0  0  0  0
    9.4650   -3.6770    0.0000 N   0  0  0  0  0  0  0  0  0  0  0  0
   10.3840   -2.5140    0.0000 C   0  0  0  0  0  0  0  0  0  0  0  0
   11.8680   -2.7360    0.0000 O   0  0  0  0  0  0  0  0  0  0  0  0
    9.8370   -1.1100    0.0000 C   0  0  3  0  0  0  0  0  0  0  0  0
   10.7640    0.0690    0.0000 N   0  0  0  0  0  0  0  0  0  0  0  0
   12.2490   -0.1440    0.0000 C   0  0  0  0  0  0  0  0  0  0  0  0
   12.8070   -1.5360    0.0000 O   0  0  0  0  0  0  0  0  0  0  0  0
   13.1760    1.0350    0.0000 C   0  0  0  0  0  0  0  0  0  0  0  0
   14.6610    0.8220    0.0000 C   0  0  3  0  0  0  0  0  0  0  0  0
   15.2190   -0.5700    0.0000 N   0  0  0  0  0  0  0  0  0  0  0  0
   15.5880    2.0020    0.0000 C   0  0  0  0  0  0  0  0  0  0  0  0
   17.0720    1.7880    0.0000 C   0  0  0  0  0  0  0  0  0  0  0  0
   17.9990    2.9680    0.0000 C   0  0  0  0  0  0  0  0  0  0  0  0
   19.4840    2.7550    0.0000 N   0  0  0  0  0  0  0  0  0  0  0  0
    8.3370   -0.9100    0.0000 C   0  0  0  0  0  0  0  0  0  0  0  0
    7.7730    0.4610    0.0000 N   0  0  0  0  0  0  0  0  0  0  0  0
    6.3870    0.8220    0.0000 C   0  0  0  0  0  0  0  0  0  0  0  0
    6.1370    2.3010    0.0000 O   0  0  0  0  0  0  0  0  0  0  0  0
   11.4660   -5.4040    0.0000 C   0  0  0  0  0  0  0  0  0  0  0  0
   11.9290   -6.8310    0.0000 O   0  0  0  0  0  0  0  0  0  0  0  0
    6.4870   -8.1230    0.0000 C   0  0  0  0  0  0  0  0  0  0  0  0
    5.2780   -9.0110    0.0000 O   0  0  0  0  0  0  0  0  0  0  0  0
    2.3820   -4.3410    0.0000 C   0  0  0  0  0  0  0  0  0  0  0  0
    1.1130   -3.5410    0.0000 N   0  0  0  0  0  0  0  0  0  0  0  0
   -0.2140   -4.2400    0.0000 C   0  0  0  0  0  0  0  0  0  0  0  0
   -1.4830   -3.4400    0.0000 O   0  0  0  0  0  0  0  0  0  0  0  0
   -0.2720   -5.7390    0.0000 N   0  0  0  0  0  0  0  0  0  0  0  0
    2.5760    4.5130    0.0000 N   0  0  0  0  0  0  0  0  0  0  0  0
  1  2  1  0  0  0  0
  2  3  1  0  0  0  0
  2  7  1  0  0  0  0
  3  4  2  0  0  0  0
  4  5  1  0  0  0  0
  4 48  1  0  0  0  0
  5  6  1  0  0  0  0
  6  7  1  0  0  0  0
  6  8  1  0  0  0  0
  8  9  1  0  0  0  0
  8 37  1  0  0  0  0
  9 10  1  0  0  0  0
 10 11  2  0  0  0  0
 10 12  1  0  0  0  0
 12 13  1  0  0  0  0
 12 43  2  3  0  0  0
 13 14  1  0  0  0  0
 14 15  2  0  0  0  0
 14 16  1  0  0  0  0
 16 17  1  0  0  0  0
 16 41  1  0  0  0  0
 17 18  1  0  0  0  0
 18 19  2  0  0  0  0
 18 20  1  0  0  0  0
 20 21  1  0  0  0  0
 20 39  1  0  0  0  0
 21 22  1  0  0  0  0
 22 23  2  0  0  0  0
 22 24  1  0  0  0  0
 24 25  1  0  0  0  0
 24 35  1  0  0  0  0
 25 26  1  0  0  0  0
 26 27  2  0  0  0  0
 26 28  1  0  0  0  0
 28 29  1  0  0  0  0
 29 30  1  0  0  0  0
 29 31  1  0  0  0  0
 31 32  1  0  0  0  0
 32 33  1  0  0  0  0
 33 34  1  0  0  0  0
 35 36  1  0  0  0  0
 36 37  1  0  0  0  0
 37 38  2  0  0  0  0
 39 40  1  0  0  0  0
 41 42  1  0  0  0  0
 43 44  1  0  0  0  0
 44 45  1  0  0  0  0
 45 46  2  0  0  0  0
 45 47  1  0  0  0  0
M  END
>  <Index>
1409

>  <ID>
HT3987

>  <class>
0

>  <apol>
94.992096

>  <ast_fraglike>
0

>  <ast_fraglike_ext>
0

>  <ast_violation>
3

>  <ast_violation_ext>
5

>  <a_acc>
13

>  <a_acid>
0

>  <a_aro>
0

>  <a_base>
0

>  <a_count>
91

>  <a_don>
15

>  <a_donacc>
28

>  <a_heavy>
48

>  <a_hyd>
16

>  <a_IC>
161.45853

>  <a_ICM>
1.7742695

>  <a_nB>
0

>  <a_nBr>
0

>  <a_nC>
25

>  <a_nCl>
0

>  <a_nF>
0

>  <a_nH>
43

>  <a_nI>
0

>  <a_nN>
13

>  <a_nO>
10

>  <a_nP>
0

>  <a_nS>
0

>  <balabanJ>
2.4596334

>  <BCUT_PEOE_0>
-2.6806333

>  <BCUT_PEOE_1>
-0.57500613

>  <BCUT_PEOE_2>
0.62745595

>  <BCUT_PEOE_3>
2.7019224

>  <BCUT_SLOGP_0>
-2.9342883

>  <BCUT_SLOGP_1>
-0.60079443

>  <BCUT_SLOGP_2>
0.58020663

>  <BCUT_SLOGP_3>
2.6317048

>  <BCUT_SMR_0>
-2.4273529

>  <BCUT_SMR_1>
-0.42941704

>  <BCUT_SMR_2>
0.72442484

>  <BCUT_SMR_3>
2.9414594

>  <bpol>
57.673901

>  <b_1rotN>
10

>  <b_1rotR>
0.20408164

>  <b_ar>
0

>  <b_count>
92

>  <b_double>
9

>  <b_heavy>
49

>  <b_max1len>
7

>  <b_rotN>
12

>  <b_rotR>
0.24489796

>  <b_single>
83

>  <b_triple>
0

>  <chi0>
35.965527

>  <chi0v>
25.731649

>  <chi0v_C>
14.775657

>  <chi0_C>
15.601565

>  <chi1>
22.678381

>  <chi1v>
14.693866

>  <chi1v_C>
6.2380004

>  <chi1_C>
6.6742344

>  <chiral>
7

>  <chiral_u>
7

>  <density>
0.83298475

>  <diameter>
19

>  <FCharge>
0

>  <GCUT_PEOE_0>
-0.84263146

>  <GCUT_PEOE_1>
-0.45857248

>  <GCUT_PEOE_2>
0.10302936

>  <GCUT_PEOE_3>
3.0354369

>  <GCUT_SLOGP_0>
-1.3712342

>  <GCUT_SLOGP_1>
-0.4766297

>  <GCUT_SLOGP_2>
0.079283908

>  <GCUT_SLOGP_3>
2.8656037

>  <GCUT_SMR_0>
-0.52476639

>  <GCUT_SMR_1>
-0.25212511

>  <GCUT_SMR_2>
0.18955958

>  <GCUT_SMR_3>
3.2686787

>  <Kier1>
44.161598

>  <Kier2>
22.831038

>  <Kier3>
15.650887

>  <KierA1>
33.046616

>  <KierA2>
16.972692

>  <KierA3>
11.582064

>  <KierFlex>
11.685209

>  <lip_acc>
23

>  <lip_don>
19

>  <lip_druglike>
0

>  <lip_violation>
3

>  <logP(o/w)>
-9.0509996

>  <logS>
-0.73914999

>  <mr>
16.208685

>  <mutagenic>
0

>  <nmol>
1

>  <opr_brigid>
23

>  <opr_leadlike>
0

>  <opr_nring>
1

>  <opr_nrot>
22

>  <opr_violation>
5

>  <PC+>
0

>  <PC->
0

>  <PEOE_PC+>
7.404068

>  <PEOE_PC->
-7.404068

>  <PEOE_RPC+>
0.042892553

>  <PEOE_RPC->
0.053009037

>  <PEOE_VSA+0>
97.406075

>  <PEOE_VSA+1>
88.498566

>  <PEOE_VSA+2>
53.759445

>  <PEOE_VSA+3>
128.50568

>  <PEOE_VSA+4>
82.770645

>  <PEOE_VSA+5>
25.899061

>  <PEOE_VSA+6>
17.440542

>  <PEOE_VSA-0>
30.594952

>  <PEOE_VSA-1>
0

>  <PEOE_VSA-2>
0

>  <PEOE_VSA-3>
0

>  <PEOE_VSA-4>
19.249496

>  <PEOE_VSA-5>
81.401527

>  <PEOE_VSA-6>
51.002228

>  <PEOE_VSA_FHYD>
0.58942807

>  <PEOE_VSA_FNEG>
0.26938745

>  <PEOE_VSA_FPNEG>
0.22416398

>  <PEOE_VSA_FPOL>
0.41057193

>  <PEOE_VSA_FPOS>
0.73061258

>  <PEOE_VSA_FPPOS>
0.18640797

>  <PEOE_VSA_HYD>
398.76471

>  <PEOE_VSA_NEG>
182.2482

>  <PEOE_VSA_PNEG>
151.65324

>  <PEOE_VSA_POL>
277.76349

>  <PEOE_VSA_POS>
494.28

>  <PEOE_VSA_PPOS>
126.11024

>  <petitjean>
0.47368422

>  <petitjeanSC>
0.89999998

>  <Q_PC+>
0

>  <Q_PC->
0

>  <Q_RPC+>
0

>  <Q_RPC->
0

>  <Q_VSA_FHYD>
1

>  <Q_VSA_FNEG>
0

>  <Q_VSA_FPNEG>
0

>  <Q_VSA_FPOL>
0

>  <Q_VSA_FPOS>
1

>  <Q_VSA_FPPOS>
0

>  <Q_VSA_HYD>
676.5282

>  <Q_VSA_NEG>
0

>  <Q_VSA_PNEG>
0

>  <Q_VSA_POL>
0

>  <Q_VSA_POS>
676.5282

>  <Q_VSA_PPOS>
0

>  <radius>
10

>  <reactive>
0

>  <rings>
2

>  <RPC+>
0

>  <RPC->
0

>  <rsynth>
1

>  <SlogP>
-8.8828001

>  <SlogP_VSA0>
351.83044

>  <SlogP_VSA1>
38.28175

>  <SlogP_VSA2>
173.10493

>  <SlogP_VSA3>
78.731674

>  <SlogP_VSA4>
0

>  <SlogP_VSA5>
19.542276

>  <SlogP_VSA6>
0

>  <SlogP_VSA7>
17.214357

>  <SlogP_VSA8>
75.473625

>  <SlogP_VSA9>
23.862217

>  <SMR>
16.389959

>  <SMR_VSA0>
167.03551

>  <SMR_VSA1>
92.941208

>  <SMR_VSA2>
144.086

>  <SMR_VSA3>
32.688381

>  <SMR_VSA4>
131.58875

>  <SMR_VSA5>
92.687981

>  <SMR_VSA6>
117.01342

>  <SMR_VSA7>
0

>  <TPSA>
392.85999

>  <VAdjEq>
0.25379547

>  <VAdjMa>
6.6147099

>  <VDistEq>
3.8702769

>  <VDistMa>
10.946157

>  <vdw_area>
676.5282

>  <vdw_vol>
823.18433

>  <vsa_acc>
100.65102

>  <vsa_acid>
0

>  <vsa_base>
0

>  <vsa_don>
80.945587

>  <vsa_hyd>
215.1463

>  <vsa_other>
123.76884

>  <vsa_pol>
257.78235

>  <Weight>
685.70001

>  <weinerPath>
8372

>  <weinerPol>
75

>  <zagreb>
230

$$$$