S1C2N(C(C(O)=O)C1(C)C)C(=O)C2(OC)NC(=O)C(C(O)=O)c1ccsc1
  MOE2013           2D

 27 29  0  0  1  0  0  0  0  0999 V2000
    0.0000    0.0000    0.0000 S   0  0  0  0  0  0  0  0  0  0  0  0
    0.8960    1.2030    0.0000 C   0  0  3  0  0  0  0  0  0  0  0  0
    0.0290    2.4270    0.0000 N   0  0  0  0  0  0  0  0  0  0  0  0
   -1.4030    1.9800    0.0000 C   0  0  3  0  0  0  0  0  0  0  0  0
   -2.6060    2.8760    0.0000 C   0  0  0  0  0  0  0  0  0  0  0  0
   -2.4320    4.3660    0.0000 O   0  0  0  0  0  0  0  0  0  0  0  0
   -3.9840    2.2820    0.0000 O   0  0  0  0  0  0  0  0  0  0  0  0
   -1.4210    0.4800    0.0000 C   0  0  0  0  0  0  0  0  0  0  0  0
   -2.9180    0.3800    0.0000 C   0  0  0  0  0  0  0  0  0  0  0  0
   -2.0110   -0.8990    0.0000 C   0  0  0  0  0  0  0  0  0  0  0  0
    1.2520    3.2940    0.0000 C   0  0  0  0  0  0  0  0  0  0  0  0
    1.5040    4.7730    0.0000 O   0  0  0  0  0  0  0  0  0  0  0  0
    2.1200    2.0700    0.0000 C   0  0  3  0  0  0  0  0  0  0  0  0
    3.2090    1.0390    0.0000 O   0  0  0  0  0  0  0  0  0  0  0  0
    2.8610   -0.4200    0.0000 C   0  0  0  0  0  0  0  0  0  0  0  0
    3.4890    2.6820    0.0000 N   0  0  0  0  0  0  0  0  0  0  0  0
    4.7040    1.8020    0.0000 C   0  0  0  0  0  0  0  0  0  0  0  0
    4.5490    0.3100    0.0000 O   0  0  0  0  0  0  0  0  0  0  0  0
    6.0730    2.4140    0.0000 C   0  0  3  0  0  0  0  0  0  0  0  0
    6.2280    3.9060    0.0000 C   0  0  0  0  0  0  0  0  0  0  0  0
    7.5980    4.5180    0.0000 O   0  0  0  0  0  0  0  0  0  0  0  0
    5.0140    4.7860    0.0000 O   0  0  0  0  0  0  0  0  0  0  0  0
    7.2880    1.5340    0.0000 C   0  0  0  0  0  0  0  0  0  0  0  0
    8.7140    1.9990    0.0000 C   0  0  0  0  0  0  0  0  0  0  0  0
    9.5970    0.7870    0.0000 C   0  0  0  0  0  0  0  0  0  0  0  0
    8.7170   -0.4280    0.0000 S   0  0  0  0  0  0  0  0  0  0  0  0
    7.2900    0.0340    0.0000 C   0  0  0  0  0  0  0  0  0  0  0  0
  1  2  1  0  0  0  0
  1  8  1  0  0  0  0
  2  3  1  0  0  0  0
  2 13  1  0  0  0  0
  3  4  1  0  0  0  0
  3 11  1  0  0  0  0
  4  5  1  0  0  0  0
  4  8  1  0  0  0  0
  5  6  1  0  0  0  0
  5  7  2  0  0  0  0
  8  9  1  0  0  0  0
  8 10  1  0  0  0  0
 11 12  2  0  0  0  0
 11 13  1  0  0  0  0
 13 14  1  0  0  0  0
 13 16  1  0  0  0  0
 14 15  1  0  0  0  0
 16 17  1  0  0  0  0
 17 18  2  0  0  0  0
 17 19  1  0  0  0  0
 19 20  1  0  0  0  0
 19 23  1  0  0  0  0
 20 21  1  0  0  0  0
 20 22  2  0  0  0  0
 23 24  1  0  0  0  0
 23 27  2  0  0  0  0
 24 25  2  0  0  0  0
 25 26  1  0  0  0  0
 26 27  1  0  0  0  0
M  END
>  <Index>
1041

>  <ID>
HT1998

>  <class>
0

>  <apol>
53.776276

>  <ast_fraglike>
0

>  <ast_fraglike_ext>
0

>  <ast_violation>
3

>  <ast_violation_ext>
5

>  <a_acc>
7

>  <a_acid>
0

>  <a_aro>
5

>  <a_base>
0

>  <a_count>
45

>  <a_don>
5

>  <a_donacc>
12

>  <a_heavy>
27

>  <a_hyd>
13

>  <a_IC>
84.423256

>  <a_ICM>
1.8760723

>  <a_nB>
0

>  <a_nBr>
0

>  <a_nC>
16

>  <a_nCl>
0

>  <a_nF>
0

>  <a_nH>
18

>  <a_nI>
0

>  <a_nN>
2

>  <a_nO>
7

>  <a_nP>
0

>  <a_nS>
2

>  <balabanJ>
1.8042548

>  <BCUT_PEOE_0>
-2.6546085

>  <BCUT_PEOE_1>
-0.53364229

>  <BCUT_PEOE_2>
0.46989572

>  <BCUT_PEOE_3>
2.8763461

>  <BCUT_SLOGP_0>
-2.9245372

>  <BCUT_SLOGP_1>
-0.50972736

>  <BCUT_SLOGP_2>
0.42503887

>  <BCUT_SLOGP_3>
2.7579157

>  <BCUT_SMR_0>
-2.4157484

>  <BCUT_SMR_1>
-0.31096029

>  <BCUT_SMR_2>
0.65031081

>  <BCUT_SMR_3>
3.1388211

>  <bpol>
32.625725

>  <b_1rotN>
6

>  <b_1rotR>
0.20689656

>  <b_ar>
5

>  <b_count>
47

>  <b_double>
4

>  <b_heavy>
29

>  <b_max1len>
5

>  <b_rotN>
7

>  <b_rotR>
0.24137931

>  <b_single>
38

>  <b_triple>
0

>  <chi0>
20.145901

>  <chi0v>
16.296474

>  <chi0v_C>
9.9641018

>  <chi0_C>
10.740123

>  <chi1>
12.56422

>  <chi1v>
9.7425146

>  <chi1v_C>
3.8927345

>  <chi1_C>
4.5158553

>  <chiral>
4

>  <chiral_u>
4

>  <density>
0.89584053

>  <diameter>
11

>  <FCharge>
0

>  <GCUT_PEOE_0>
-0.81931603

>  <GCUT_PEOE_1>
-0.47302976

>  <GCUT_PEOE_2>
0.048524726

>  <GCUT_PEOE_3>
2.7826412

>  <GCUT_SLOGP_0>
-1.1652402

>  <GCUT_SLOGP_1>
-0.40654221

>  <GCUT_SLOGP_2>
0.060508821

>  <GCUT_SLOGP_3>
2.7127101

>  <GCUT_SMR_0>
-0.53863299

>  <GCUT_SMR_1>
-0.23103583

>  <GCUT_SMR_2>
0.21722279

>  <GCUT_SMR_3>
3.0378551

>  <Kier1>
21.702734

>  <Kier2>
7.679584

>  <Kier3>
3.4380164

>  <KierA1>
19.575113

>  <KierA2>
6.898036

>  <KierA3>
3.0786388

>  <KierFlex>
5.0011053

>  <lip_acc>
9

>  <lip_don>
3

>  <lip_druglike>
1

>  <lip_violation>
0

>  <logP(o/w)>
1.235

>  <logS>
-3.2023599

>  <mr>
9.8544865

>  <mutagenic>
0

>  <nmol>
1

>  <opr_brigid>
13

>  <opr_leadlike>
1

>  <opr_nring>
3

>  <opr_nrot>
6

>  <opr_violation>
1

>  <PC+>
0

>  <PC->
0

>  <PEOE_PC+>
3.2455904

>  <PEOE_PC->
-3.2455904

>  <PEOE_RPC+>
0.087435327

>  <PEOE_RPC->
0.10701349

>  <PEOE_VSA+0>
59.120747

>  <PEOE_VSA+1>
29.857702

>  <PEOE_VSA+2>
8.2679825

>  <PEOE_VSA+3>
28.379631

>  <PEOE_VSA+4>
33.597878

>  <PEOE_VSA+5>
42.366531

>  <PEOE_VSA+6>
0

>  <PEOE_VSA-0>
39.703896

>  <PEOE_VSA-1>
12.254904

>  <PEOE_VSA-2>
48.222549

>  <PEOE_VSA-3>
0

>  <PEOE_VSA-4>
0

>  <PEOE_VSA-5>
54.267685

>  <PEOE_VSA-6>
18.175728

>  <PEOE_VSA_FHYD>
0.60341591

>  <PEOE_VSA_FNEG>
0.46129805

>  <PEOE_VSA_FPNEG>
0.19358756

>  <PEOE_VSA_FPOL>
0.39658412

>  <PEOE_VSA_FPOS>
0.53870195

>  <PEOE_VSA_FPPOS>
0.20299657

>  <PEOE_VSA_HYD>
225.8074

>  <PEOE_VSA_NEG>
172.62476

>  <PEOE_VSA_PNEG>
72.443413

>  <PEOE_VSA_POL>
148.40782

>  <PEOE_VSA_POS>
201.59047

>  <PEOE_VSA_PPOS>
75.964409

>  <petitjean>
0.45454547

>  <petitjeanSC>
0.83333331

>  <Q_PC+>
0

>  <Q_PC->
0

>  <Q_RPC+>
0

>  <Q_RPC->
0

>  <Q_VSA_FHYD>
1

>  <Q_VSA_FNEG>
0

>  <Q_VSA_FPNEG>
0

>  <Q_VSA_FPOL>
0

>  <Q_VSA_FPOS>
1

>  <Q_VSA_FPPOS>
0

>  <Q_VSA_HYD>
374.21524

>  <Q_VSA_NEG>
0

>  <Q_VSA_PNEG>
0

>  <Q_VSA_POL>
0

>  <Q_VSA_POS>
374.21524

>  <Q_VSA_PPOS>
0

>  <radius>
6

>  <reactive>
0

>  <rings>
3

>  <RPC+>
0

>  <RPC->
0

>  <rsynth>
0.66666669

>  <SlogP>
0.52209997

>  <SlogP_VSA0>
18.01075

>  <SlogP_VSA1>
29.132809

>  <SlogP_VSA2>
112.77785

>  <SlogP_VSA3>
50.770454

>  <SlogP_VSA4>
3.185575

>  <SlogP_VSA5>
35.383869

>  <SlogP_VSA6>
4.4107962

>  <SlogP_VSA7>
49.275204

>  <SlogP_VSA8>
0

>  <SlogP_VSA9>
130.14926

>  <SMR>
9.6307297

>  <SMR_VSA0>
106.44875

>  <SMR_VSA1>
3.1243138

>  <SMR_VSA2>
68.781204

>  <SMR_VSA3>
13.925467

>  <SMR_VSA4>
0

>  <SMR_VSA5>
49.275204

>  <SMR_VSA6>
26.008495

>  <SMR_VSA7>
165.53313

>  <TPSA>
133.24001

>  <VAdjEq>
0.40063059

>  <VAdjMa>
5.8579812

>  <VDistEq>
3.286077

>  <VDistMa>
9.2477503

>  <vdw_area>
374.21524

>  <vdw_vol>
462.64816

>  <vsa_acc>
29.637598

>  <vsa_acid>
0

>  <vsa_base>
0

>  <vsa_don>
5.6825762

>  <vsa_hyd>
205.16641

>  <vsa_other>
55.316059

>  <vsa_pol>
89.58786

>  <Weight>
414.45898

>  <weinerPath>
1720

>  <weinerPol>
47

>  <zagreb>
150

$$$$