O1c2c(cc3c(oc(c3)C)c2C)C(=CC1=O)C
  MOE2013           2D

 17 19  0  0  0  0  0  0  0  0999 V2000
    0.0000    0.0000    0.0000 O   0  0  0  0  0  0  0  0  0  0  0  0
    1.2950    0.7580    0.0000 C   0  0  0  0  0  0  0  0  0  0  0  0
    1.2860    2.2580    0.0000 C   0  0  0  0  0  0  0  0  0  0  0  0
    2.5810    3.0150    0.0000 C   0  0  0  0  0  0  0  0  0  0  0  0
    3.8840    2.2730    0.0000 C   0  0  0  0  0  0  0  0  0  0  0  0
    3.8930    0.7730    0.0000 C   0  0  0  0  0  0  0  0  0  0  0  0
    5.3220    0.3170    0.0000 O   0  0  0  0  0  0  0  0  0  0  0  0
    6.1970    1.5360    0.0000 C   0  0  0  0  0  0  0  0  0  0  0  0
    5.3080    2.7440    0.0000 C   0  0  0  0  0  0  0  0  0  0  0  0
    7.6970    1.5450    0.0000 C   0  0  0  0  0  0  0  0  0  0  0  0
    2.5980    0.0150    0.0000 C   0  0  0  0  0  0  0  0  0  0  0  0
    2.6070   -1.4850    0.0000 C   0  0  0  0  0  0  0  0  0  0  0  0
   -0.0170    3.0000    0.0000 C   0  0  0  0  0  0  0  0  0  0  0  0
   -1.3120    2.2420    0.0000 C   0  0  0  0  0  0  0  0  0  0  0  0
   -1.3030    0.7420    0.0000 C   0  0  0  0  0  0  0  0  0  0  0  0
   -2.5980   -0.0150    0.0000 O   0  0  0  0  0  0  0  0  0  0  0  0
   -0.0260    4.5000    0.0000 C   0  0  0  0  0  0  0  0  0  0  0  0
  1  2  1  0  0  0  0
  1 15  1  0  0  0  0
  2  3  1  0  0  0  0
  2 11  2  0  0  0  0
  3  4  2  0  0  0  0
  3 13  1  0  0  0  0
  4  5  1  0  0  0  0
  5  6  2  0  0  0  0
  5  9  1  0  0  0  0
  6  7  1  0  0  0  0
  6 11  1  0  0  0  0
  7  8  1  0  0  0  0
  8  9  2  0  0  0  0
  8 10  1  0  0  0  0
 11 12  1  0  0  0  0
 13 14  2  0  0  0  0
 13 17  1  0  0  0  0
 14 15  1  0  0  0  0
 15 16  2  0  0  0  0
M  END
>  <Index>
1112

>  <ID>
HT2131

>  <class>
0

>  <apol>
35.047516

>  <ast_fraglike>
0

>  <ast_fraglike_ext>
0

>  <ast_violation>
1

>  <ast_violation_ext>
1

>  <a_acc>
1

>  <a_acid>
0

>  <a_aro>
9

>  <a_base>
0

>  <a_count>
29

>  <a_don>
0

>  <a_donacc>
1

>  <a_heavy>
17

>  <a_hyd>
11

>  <a_IC>
39.804043

>  <a_ICM>
1.3725532

>  <a_nB>
0

>  <a_nBr>
0

>  <a_nC>
14

>  <a_nCl>
0

>  <a_nF>
0

>  <a_nH>
12

>  <a_nI>
0

>  <a_nN>
0

>  <a_nO>
3

>  <a_nP>
0

>  <a_nS>
0

>  <balabanJ>
1.8229878

>  <BCUT_PEOE_0>
-2.3443296

>  <BCUT_PEOE_1>
-0.40832809

>  <BCUT_PEOE_2>
0.39375892

>  <BCUT_PEOE_3>
2.3737831

>  <BCUT_SLOGP_0>
-2.2442613

>  <BCUT_SLOGP_1>
-0.27027327

>  <BCUT_SLOGP_2>
0.5522505

>  <BCUT_SLOGP_3>
2.5381711

>  <BCUT_SMR_0>
-2.0449378

>  <BCUT_SMR_1>
-0.15543859

>  <BCUT_SMR_2>
0.65628922

>  <BCUT_SMR_3>
2.6852901

>  <bpol>
17.908484

>  <b_1rotN>
0

>  <b_1rotR>
0

>  <b_ar>
10

>  <b_count>
31

>  <b_double>
2

>  <b_heavy>
19

>  <b_max1len>
2

>  <b_rotN>
0

>  <b_rotR>
0

>  <b_single>
19

>  <b_triple>
0

>  <chi0>
12.154336

>  <chi0v>
9.9567957

>  <chi0v_C>
8.7320509

>  <chi0_C>
9.7401228

>  <chi1>
8.0585508

>  <chi1v>
5.5026717

>  <chi1v_C>
4.4820509

>  <chi1_C>
5.848207

>  <chiral>
0

>  <chiral_u>
0

>  <density>
0.7429688

>  <diameter>
8

>  <FCharge>
0

>  <GCUT_PEOE_0>
-0.83702427

>  <GCUT_PEOE_1>
-0.42060748

>  <GCUT_PEOE_2>
-0.07787843

>  <GCUT_PEOE_3>
2.4651742

>  <GCUT_SLOGP_0>
-0.91136837

>  <GCUT_SLOGP_1>
-0.27868548

>  <GCUT_SLOGP_2>
0.073667318

>  <GCUT_SLOGP_3>
2.6258402

>  <GCUT_SMR_0>
-0.48334864

>  <GCUT_SMR_1>
-0.14214909

>  <GCUT_SMR_2>
0.15878515

>  <GCUT_SMR_3>
2.7639525

>  <Kier1>
12.055402

>  <Kier2>
4.2806182

>  <Kier3>
1.96

>  <KierA1>
8.8458281

>  <KierA2>
3.0745113

>  <KierA3>
1.38384

>  <KierFlex>
1.5998

>  <lip_acc>
3

>  <lip_don>
0

>  <lip_druglike>
1

>  <lip_violation>
0

>  <logP(o/w)>
3.0339999

>  <logS>
-5.0205898

>  <mr>
6.4047704

>  <mutagenic>
0

>  <nmol>
1

>  <opr_brigid>
15

>  <opr_leadlike>
1

>  <opr_nring>
3

>  <opr_nrot>
0

>  <opr_violation>
0

>  <PC+>
0

>  <PC->
0

>  <PEOE_PC+>
1.1607623

>  <PEOE_PC->
-1.1607623

>  <PEOE_RPC+>
0.25142097

>  <PEOE_RPC->
0.39596051

>  <PEOE_VSA+0>
57.268997

>  <PEOE_VSA+1>
12.796158

>  <PEOE_VSA+2>
25.375559

>  <PEOE_VSA+3>
0

>  <PEOE_VSA+4>
0

>  <PEOE_VSA+5>
14.708499

>  <PEOE_VSA+6>
0

>  <PEOE_VSA-0>
82.96138

>  <PEOE_VSA-1>
0

>  <PEOE_VSA-2>
0

>  <PEOE_VSA-3>
0

>  <PEOE_VSA-4>
0

>  <PEOE_VSA-5>
16.070677

>  <PEOE_VSA-6>
2.503756

>  <PEOE_VSA_FHYD>
0.84277141

>  <PEOE_VSA_FNEG>
0.47965515

>  <PEOE_VSA_FPNEG>
0.087745614

>  <PEOE_VSA_FPOL>
0.15722856

>  <PEOE_VSA_FPOS>
0.52034485

>  <PEOE_VSA_FPPOS>
0.069482945

>  <PEOE_VSA_HYD>
178.4021

>  <PEOE_VSA_NEG>
101.53581

>  <PEOE_VSA_PNEG>
18.574432

>  <PEOE_VSA_POL>
33.282932

>  <PEOE_VSA_POS>
110.14922

>  <PEOE_VSA_PPOS>
14.708499

>  <petitjean>
0.5

>  <petitjeanSC>
1

>  <Q_PC+>
0

>  <Q_PC->
0

>  <Q_RPC+>
0

>  <Q_RPC->
0

>  <Q_VSA_FHYD>
1

>  <Q_VSA_FNEG>
0

>  <Q_VSA_FPNEG>
0

>  <Q_VSA_FPOL>
0

>  <Q_VSA_FPOS>
1

>  <Q_VSA_FPPOS>
0

>  <Q_VSA_HYD>
211.68503

>  <Q_VSA_NEG>
0

>  <Q_VSA_PNEG>
0

>  <Q_VSA_POL>
0

>  <Q_VSA_POS>
211.68503

>  <Q_VSA_PPOS>
0

>  <radius>
4

>  <reactive>
0

>  <rings>
3

>  <RPC+>
0

>  <RPC->
0

>  <rsynth>
1

>  <SlogP>
3.3719399

>  <SlogP_VSA0>
10.999887

>  <SlogP_VSA1>
7.7454643

>  <SlogP_VSA2>
23.862217

>  <SlogP_VSA3>
0

>  <SlogP_VSA4>
11.819971

>  <SlogP_VSA5>
9.5073462

>  <SlogP_VSA6>
0

>  <SlogP_VSA7>
63.524303

>  <SlogP_VSA8>
0

>  <SlogP_VSA9>
105.22147

>  <SMR>
6.4973998

>  <SMR_VSA0>
33.369564

>  <SMR_VSA1>
10.999887

>  <SMR_VSA2>
0

>  <SMR_VSA3>
17.063398

>  <SMR_VSA4>
10.594749

>  <SMR_VSA5>
52.929554

>  <SMR_VSA6>
7.7454643

>  <SMR_VSA7>
99.978043

>  <TPSA>
39.439999

>  <VAdjEq>
0.56150466

>  <VAdjMa>
5.2479277

>  <VDistEq>
2.6870401

>  <VDistMa>
7.9055901

>  <vdw_area>
211.68503

>  <vdw_vol>
307.20941

>  <vsa_acc>
13.566921

>  <vsa_acid>
0

>  <vsa_base>
0

>  <vsa_don>
0

>  <vsa_hyd>
152.94351

>  <vsa_other>
36.633049

>  <vsa_pol>
13.566921

>  <Weight>
228.24699

>  <weinerPath>
457

>  <weinerPol>
29

>  <zagreb>
96

$$$$