S(=O)(=O)(Nc1ncnc(OC)c1OC)c1ccc(N)cc1
  MOE2013           2D

 21 22  0  0  0  0  0  0  0  0999 V2000
    0.0000    0.0000    0.0000 S   0  0  0  0  0  0  0  0  0  0  0  0
   -0.0040    1.5000    0.0000 O   0  0  0  0  0  0  0  0  0  0  0  0
    0.0040   -1.5000    0.0000 O   0  0  0  0  0  0  0  0  0  0  0  0
   -1.5000   -0.0040    0.0000 N   0  0  0  0  0  0  0  0  0  0  0  0
   -2.2460   -1.3060    0.0000 C   0  0  0  0  0  0  0  0  0  0  0  0
   -1.4920   -2.6030    0.0000 N   0  0  0  0  0  0  0  0  0  0  0  0
   -2.2380   -3.9040    0.0000 C   0  0  0  0  0  0  0  0  0  0  0  0
   -3.7380   -3.9080    0.0000 N   0  0  0  0  0  0  0  0  0  0  0  0
   -4.4920   -2.6110    0.0000 C   0  0  0  0  0  0  0  0  0  0  0  0
   -5.9920   -2.6160    0.0000 O   0  0  0  0  0  0  0  0  0  0  0  0
   -6.7380   -3.9170    0.0000 C   0  0  0  0  0  0  0  0  0  0  0  0
   -3.7460   -1.3100    0.0000 C   0  0  0  0  0  0  0  0  0  0  0  0
   -4.5000   -0.0130    0.0000 O   0  0  0  0  0  0  0  0  0  0  0  0
   -6.0000   -0.0180    0.0000 C   0  0  0  0  0  0  0  0  0  0  0  0
    1.5000    0.0040    0.0000 C   0  0  0  0  0  0  0  0  0  0  0  0
    2.2460    1.3060    0.0000 C   0  0  0  0  0  0  0  0  0  0  0  0
    3.7460    1.3100    0.0000 C   0  0  0  0  0  0  0  0  0  0  0  0
    4.5000    0.0130    0.0000 C   0  0  0  0  0  0  0  0  0  0  0  0
    6.0000    0.0180    0.0000 N   0  0  0  0  0  0  0  0  0  0  0  0
    3.7540   -1.2880    0.0000 C   0  0  0  0  0  0  0  0  0  0  0  0
    2.2540   -1.2920    0.0000 C   0  0  0  0  0  0  0  0  0  0  0  0
  1  2  2  0  0  0  0
  1  3  2  0  0  0  0
  1  4  1  0  0  0  0
  1 15  1  0  0  0  0
  4  5  1  0  0  0  0
  5  6  1  0  0  0  0
  5 12  2  0  0  0  0
  6  7  2  0  0  0  0
  7  8  1  0  0  0  0
  8  9  2  0  0  0  0
  9 10  1  0  0  0  0
  9 12  1  0  0  0  0
 10 11  1  0  0  0  0
 12 13  1  0  0  0  0
 13 14  1  0  0  0  0
 15 16  1  0  0  0  0
 15 21  2  0  0  0  0
 16 17  2  0  0  0  0
 17 18  1  0  0  0  0
 18 19  1  0  0  0  0
 18 20  2  0  0  0  0
 20 21  1  0  0  0  0
M  END
>  <Index>
1013

>  <ID>
HT1939

>  <class>
0

>  <apol>
40.9631

>  <ast_fraglike>
0

>  <ast_fraglike_ext>
0

>  <ast_violation>
2

>  <ast_violation_ext>
4

>  <a_acc>
5

>  <a_acid>
0

>  <a_aro>
12

>  <a_base>
0

>  <a_count>
35

>  <a_don>
2

>  <a_donacc>
7

>  <a_heavy>
21

>  <a_hyd>
9

>  <a_IC>
67.202385

>  <a_ICM>
1.9200681

>  <a_nB>
0

>  <a_nBr>
0

>  <a_nC>
12

>  <a_nCl>
0

>  <a_nF>
0

>  <a_nH>
14

>  <a_nI>
0

>  <a_nN>
4

>  <a_nO>
4

>  <a_nP>
0

>  <a_nS>
1

>  <balabanJ>
1.9782395

>  <BCUT_PEOE_0>
-2.3386078

>  <BCUT_PEOE_1>
-0.57572281

>  <BCUT_PEOE_2>
0.52371037

>  <BCUT_PEOE_3>
2.4875164

>  <BCUT_SLOGP_0>
-2.4388649

>  <BCUT_SLOGP_1>
-0.50906599

>  <BCUT_SLOGP_2>
0.60078251

>  <BCUT_SLOGP_3>
2.4302597

>  <BCUT_SMR_0>
-2.0265484

>  <BCUT_SMR_1>
-0.38435176

>  <BCUT_SMR_2>
0.74323404

>  <BCUT_SMR_3>
2.7713861

>  <bpol>
28.252897

>  <b_1rotN>
5

>  <b_1rotR>
0.22727273

>  <b_ar>
12

>  <b_count>
36

>  <b_double>
0

>  <b_heavy>
22

>  <b_max1len>
3

>  <b_rotN>
5

>  <b_rotR>
0.22727273

>  <b_single>
24

>  <b_triple>
0

>  <chi0>
15.457819

>  <chi0v>
12.216267

>  <chi0v_C>
7.3867512

>  <chi0_C>
8.4222851

>  <chi1>
9.9746933

>  <chi1v>
7.2731433

>  <chi1v_C>
2.3213673

>  <chi1_C>
3.2996597

>  <chiral>
0

>  <chiral_u>
0

>  <density>
0.84910399

>  <diameter>
11

>  <FCharge>
0

>  <GCUT_PEOE_0>
-0.864667

>  <GCUT_PEOE_1>
-0.39923593

>  <GCUT_PEOE_2>
0.035273284

>  <GCUT_PEOE_3>
2.4001031

>  <GCUT_SLOGP_0>
-1.3342928

>  <GCUT_SLOGP_1>
-0.45975313

>  <GCUT_SLOGP_2>
0.12742102

>  <GCUT_SLOGP_3>
2.456809

>  <GCUT_SMR_0>
-0.48442256

>  <GCUT_SMR_1>
-0.18818331

>  <GCUT_SMR_2>
0.14601402

>  <GCUT_SMR_3>
2.6759238

>  <Kier1>
17.355371

>  <Kier2>
7.5130072

>  <Kier3>
4.260355

>  <KierA1>
13.833001

>  <KierA2>
5.9154229

>  <KierA3>
3.3230116

>  <KierFlex>
3.8965738

>  <lip_acc>
8

>  <lip_don>
3

>  <lip_druglike>
1

>  <lip_violation>
0

>  <logP(o/w)>
0.076739997

>  <logS>
-2.3937399

>  <mr>
7.7415466

>  <mutagenic>
1

>  <nmol>
1

>  <opr_brigid>
12

>  <opr_leadlike>
1

>  <opr_nring>
2

>  <opr_nrot>
4

>  <opr_violation>
0

>  <PC+>
0

>  <PC->
0

>  <PEOE_PC+>
1.9736832

>  <PEOE_PC->
-1.9736832

>  <PEOE_RPC+>
0.16095205

>  <PEOE_RPC->
0.22305836

>  <PEOE_VSA+0>
69.003174

>  <PEOE_VSA+1>
58.263184

>  <PEOE_VSA+2>
34.315559

>  <PEOE_VSA+3>
0

>  <PEOE_VSA+4>
0

>  <PEOE_VSA+5>
10.105608

>  <PEOE_VSA+6>
4.1846013

>  <PEOE_VSA-0>
105.29044

>  <PEOE_VSA-1>
0

>  <PEOE_VSA-2>
0

>  <PEOE_VSA-3>
0

>  <PEOE_VSA-4>
0

>  <PEOE_VSA-5>
0

>  <PEOE_VSA-6>
23.023785

>  <PEOE_VSA_FHYD>
0.87733179

>  <PEOE_VSA_FNEG>
0.42182767

>  <PEOE_VSA_FPNEG>
0.075689733

>  <PEOE_VSA_FPOL>
0.12266821

>  <PEOE_VSA_FPOS>
0.57817233

>  <PEOE_VSA_FPPOS>
0.046978474

>  <PEOE_VSA_HYD>
266.87234

>  <PEOE_VSA_NEG>
128.31422

>  <PEOE_VSA_PNEG>
23.023785

>  <PEOE_VSA_POL>
37.313995

>  <PEOE_VSA_POS>
175.87213

>  <PEOE_VSA_PPOS>
14.29021

>  <petitjean>
0.45454547

>  <petitjeanSC>
0.83333331

>  <Q_PC+>
0

>  <Q_PC->
0

>  <Q_RPC+>
0

>  <Q_RPC->
0

>  <Q_VSA_FHYD>
1

>  <Q_VSA_FNEG>
0

>  <Q_VSA_FPNEG>
0

>  <Q_VSA_FPOL>
0

>  <Q_VSA_FPOS>
1

>  <Q_VSA_FPPOS>
0

>  <Q_VSA_HYD>
304.18634

>  <Q_VSA_NEG>
0

>  <Q_VSA_PNEG>
0

>  <Q_VSA_POL>
0

>  <Q_VSA_POS>
304.18634

>  <Q_VSA_PPOS>
0

>  <radius>
6

>  <reactive>
0

>  <rings>
2

>  <RPC+>
0

>  <RPC->
0

>  <rsynth>
1

>  <SlogP>
0.8768

>  <SlogP_VSA0>
54.896965

>  <SlogP_VSA1>
98.147743

>  <SlogP_VSA2>
6.6407428

>  <SlogP_VSA3>
0

>  <SlogP_VSA4>
0

>  <SlogP_VSA5>
72.318466

>  <SlogP_VSA6>
0

>  <SlogP_VSA7>
87.358269

>  <SlogP_VSA8>
0

>  <SlogP_VSA9>
15.142696

>  <SMR>
7.6798902

>  <SMR_VSA0>
48.171688

>  <SMR_VSA1>
55.570835

>  <SMR_VSA2>
1.5507339

>  <SMR_VSA3>
10.058029

>  <SMR_VSA4>
21.489666

>  <SMR_VSA5>
120.25546

>  <SMR_VSA6>
0

>  <SMR_VSA7>
77.408478

>  <TPSA>
116.43

>  <VAdjEq>
0.46827638

>  <VAdjMa>
5.4594316

>  <VDistEq>
3.1772256

>  <VDistMa>
8.4977655

>  <vdw_area>
304.18634

>  <vdw_vol>
365.4841

>  <vsa_acc>
45.885433

>  <vsa_acid>
0

>  <vsa_base>
0

>  <vsa_don>
25.817696

>  <vsa_hyd>
153.89351

>  <vsa_other>
61.539974

>  <vsa_pol>
71.703125

>  <Weight>
310.33398

>  <weinerPath>
930

>  <weinerPol>
33

>  <zagreb>
106

$$$$