Oc1cc(cc(O)c1)C(O)CNC(C)(C)C
  MOE2013           2D

 16 16  0  0  1  0  0  0  0  0999 V2000
    0.0000    0.0000    0.0000 O   0  0  0  0  0  0  0  0  0  0  0  0
    0.0080   -1.5000    0.0000 C   0  0  0  0  0  0  0  0  0  0  0  0
    1.3110   -2.2430    0.0000 C   0  0  0  0  0  0  0  0  0  0  0  0
    1.3180   -3.7430    0.0000 C   0  0  0  0  0  0  0  0  0  0  0  0
    0.0230   -4.5000    0.0000 C   0  0  0  0  0  0  0  0  0  0  0  0
   -1.2800   -3.7570    0.0000 C   0  0  0  0  0  0  0  0  0  0  0  0
   -2.5750   -4.5130    0.0000 O   0  0  0  0  0  0  0  0  0  0  0  0
   -1.2870   -2.2570    0.0000 C   0  0  0  0  0  0  0  0  0  0  0  0
    2.6210   -4.4860    0.0000 C   0  0  3  0  0  0  0  0  0  0  0  0
    2.6290   -5.9860    0.0000 O   0  0  0  0  0  0  0  0  0  0  0  0
    3.9170   -3.7300    0.0000 C   0  0  0  0  0  0  0  0  0  0  0  0
    5.2190   -4.4730    0.0000 N   0  0  0  0  0  0  0  0  0  0  0  0
    6.5150   -3.7160    0.0000 C   0  0  0  0  0  0  0  0  0  0  0  0
    5.7580   -2.4210    0.0000 C   0  0  0  0  0  0  0  0  0  0  0  0
    7.8100   -2.9600    0.0000 C   0  0  0  0  0  0  0  0  0  0  0  0
    7.2710   -5.0110    0.0000 C   0  0  0  0  0  0  0  0  0  0  0  0
  1  2  1  0  0  0  0
  2  3  1  0  0  0  0
  2  8  2  0  0  0  0
  3  4  2  0  0  0  0
  4  5  1  0  0  0  0
  4  9  1  0  0  0  0
  5  6  2  0  0  0  0
  6  7  1  0  0  0  0
  6  8  1  0  0  0  0
  9 10  1  0  0  0  0
  9 11  1  0  0  0  0
 11 12  1  0  0  0  0
 12 13  1  0  0  0  0
 13 14  1  0  0  0  0
 13 15  1  0  0  0  0
 13 16  1  0  0  0  0
M  END
>  <Index>
1050

>  <ID>
HT2009

>  <class>
0

>  <apol>
37.295067

>  <ast_fraglike>
0

>  <ast_fraglike_ext>
0

>  <ast_violation>
2

>  <ast_violation_ext>
3

>  <a_acc>
4

>  <a_acid>
0

>  <a_aro>
6

>  <a_base>
0

>  <a_count>
35

>  <a_don>
4

>  <a_donacc>
8

>  <a_heavy>
16

>  <a_hyd>
12

>  <a_IC>
51.039845

>  <a_ICM>
1.4582813

>  <a_nB>
0

>  <a_nBr>
0

>  <a_nC>
12

>  <a_nCl>
0

>  <a_nF>
0

>  <a_nH>
19

>  <a_nI>
0

>  <a_nN>
1

>  <a_nO>
3

>  <a_nP>
0

>  <a_nS>
0

>  <balabanJ>
2.3900514

>  <BCUT_PEOE_0>
-2.7031112

>  <BCUT_PEOE_1>
-0.38309714

>  <BCUT_PEOE_2>
0.49956125

>  <BCUT_PEOE_3>
2.6268821

>  <BCUT_SLOGP_0>
-2.7885222

>  <BCUT_SLOGP_1>
-0.39561912

>  <BCUT_SLOGP_2>
0.4110263

>  <BCUT_SLOGP_3>
2.6309016

>  <BCUT_SMR_0>
-2.4328299

>  <BCUT_SMR_1>
-0.28571078

>  <BCUT_SMR_2>
0.5919376

>  <BCUT_SMR_3>
2.8915262

>  <bpol>
21.430933

>  <b_1rotN>
3

>  <b_1rotR>
0.1875

>  <b_ar>
6

>  <b_count>
35

>  <b_double>
0

>  <b_heavy>
16

>  <b_max1len>
7

>  <b_rotN>
4

>  <b_rotR>
0.25

>  <b_single>
29

>  <b_triple>
0

>  <chi0>
12.344935

>  <chi0v>
9.8581486

>  <chi0v_C>
8.0165081

>  <chi0_C>
8.6378279

>  <chi1>
7.2766757

>  <chi1v>
5.2379403

>  <chi1v_C>
3.9289742

>  <chi1_C>
4.6910715

>  <chiral>
1

>  <chiral_u>
1

>  <density>
0.71001846

>  <diameter>
8

>  <FCharge>
0

>  <GCUT_PEOE_0>
-0.84427679

>  <GCUT_PEOE_1>
-0.32030249

>  <GCUT_PEOE_2>
0.055762906

>  <GCUT_PEOE_3>
2.5126419

>  <GCUT_SLOGP_0>
-1.1526089

>  <GCUT_SLOGP_1>
-0.30851668

>  <GCUT_SLOGP_2>
-0.015094932

>  <GCUT_SLOGP_3>
2.5839877

>  <GCUT_SMR_0>
-0.52299827

>  <GCUT_SMR_1>
-0.18208496

>  <GCUT_SMR_2>
0.12905408

>  <GCUT_SMR_3>
2.7564309

>  <Kier1>
14.0625

>  <Kier2>
5.5576558

>  <Kier3>
5.2644629

>  <KierA1>
12.021921

>  <KierA2>
4.6979332

>  <KierA3>
4.4125409

>  <KierFlex>
3.5298865

>  <lip_acc>
4

>  <lip_don>
4

>  <lip_druglike>
1

>  <lip_violation>
0

>  <logP(o/w)>
1.819

>  <logS>
-1.18057

>  <mr>
6.2104983

>  <mutagenic>
0

>  <nmol>
1

>  <opr_brigid>
6

>  <opr_leadlike>
1

>  <opr_nring>
1

>  <opr_nrot>
4

>  <opr_violation>
0

>  <PC+>
0

>  <PC->
0

>  <PEOE_PC+>
1.6232847

>  <PEOE_PC->
-1.6232847

>  <PEOE_RPC+>
0.13387348

>  <PEOE_RPC->
0.23773608

>  <PEOE_VSA+0>
60.111572

>  <PEOE_VSA+1>
38.883511

>  <PEOE_VSA+2>
8.6190128

>  <PEOE_VSA+3>
0

>  <PEOE_VSA+4>
30.972517

>  <PEOE_VSA+5>
0

>  <PEOE_VSA+6>
0

>  <PEOE_VSA-0>
95.216286

>  <PEOE_VSA-1>
0

>  <PEOE_VSA-2>
0

>  <PEOE_VSA-3>
0

>  <PEOE_VSA-4>
0

>  <PEOE_VSA-5>
0

>  <PEOE_VSA-6>
23.439512

>  <PEOE_VSA_FHYD>
0.78847957

>  <PEOE_VSA_FNEG>
0.46126062

>  <PEOE_VSA_FPNEG>
0.09111838

>  <PEOE_VSA_FPOL>
0.21152045

>  <PEOE_VSA_FPOS>
0.53873938

>  <PEOE_VSA_FPPOS>
0.12040207

>  <PEOE_VSA_HYD>
202.83038

>  <PEOE_VSA_NEG>
118.65579

>  <PEOE_VSA_PNEG>
23.439512

>  <PEOE_VSA_POL>
54.412029

>  <PEOE_VSA_POS>
138.58661

>  <PEOE_VSA_PPOS>
30.972517

>  <petitjean>
0.5

>  <petitjeanSC>
1

>  <Q_PC+>
0

>  <Q_PC->
0

>  <Q_RPC+>
0

>  <Q_RPC->
0

>  <Q_VSA_FHYD>
1

>  <Q_VSA_FNEG>
0

>  <Q_VSA_FPNEG>
0

>  <Q_VSA_FPOL>
0

>  <Q_VSA_FPOS>
1

>  <Q_VSA_FPPOS>
0

>  <Q_VSA_HYD>
257.2424

>  <Q_VSA_NEG>
0

>  <Q_VSA_PNEG>
0

>  <Q_VSA_POL>
0

>  <Q_VSA_POS>
257.2424

>  <Q_VSA_PPOS>
0

>  <radius>
4

>  <reactive>
0

>  <rings>
1

>  <RPC+>
0

>  <RPC->
0

>  <rsynth>
1

>  <SlogP>
1.6148

>  <SlogP_VSA0>
94.166428

>  <SlogP_VSA1>
0

>  <SlogP_VSA2>
0

>  <SlogP_VSA3>
18.439579

>  <SlogP_VSA4>
3.185575

>  <SlogP_VSA5>
0

>  <SlogP_VSA6>
0

>  <SlogP_VSA7>
52.929554

>  <SlogP_VSA8>
6.4686494

>  <SlogP_VSA9>
110.4649

>  <SMR>
6.25981

>  <SMR_VSA0>
0

>  <SMR_VSA1>
76.155678

>  <SMR_VSA2>
18.01075

>  <SMR_VSA3>
20.141081

>  <SMR_VSA4>
0

>  <SMR_VSA5>
52.929554

>  <SMR_VSA6>
18.439579

>  <SMR_VSA7>
99.978043

>  <TPSA>
72.720001

>  <VAdjEq>
0.54356444

>  <VAdjMa>
5

>  <VDistEq>
2.9289589

>  <VDistMa>
7.6875272

>  <vdw_area>
257.2424

>  <vdw_vol>
317.29877

>  <vsa_acc>
0

>  <vsa_acid>
0

>  <vsa_base>
0

>  <vsa_don>
0

>  <vsa_hyd>
183.53444

>  <vsa_other>
0

>  <vsa_pol>
46.383339

>  <Weight>
225.28799

>  <weinerPath>
468

>  <weinerPol>
19

>  <zagreb>
78

$$$$