S1CC(NC(=O)C(NC(=O)C(NC(=O)C(NC(=O)C(NC(=O)CCC1)Cc1ccc(OC)cc1)C(CC)C)CCC(=O)N)CC(=O)N)C(=O)N1CCCC1C(=O)NC(CC(C)C)C(=O)NCC(=O)N
  MOE2013           2D

 69 71  0  0  1  0  0  0  0  0999 V2000
    0.0000    0.0000    0.0000 S   0  0  0  0  0  0  0  0  0  0  0  0
    1.4530   -0.3600    0.0000 C   0  0  0  0  0  0  0  0  0  0  0  0
    2.5460    0.5740    0.0000 C   0  0  3  0  0  0  0  0  0  0  0  0
    2.4240    2.0610    0.0000 N   0  0  0  0  0  0  0  0  0  0  0  0
    3.6740    2.9050    0.0000 C   0  0  0  0  0  0  0  0  0  0  0  0
    5.0120    2.2270    0.0000 O   0  0  0  0  0  0  0  0  0  0  0  0
    3.6150    4.3770    0.0000 C   0  0  3  0  0  0  0  0  0  0  0  0
    2.3190    5.1250    0.0000 N   0  0  0  0  0  0  0  0  0  0  0  0
    2.3270    6.6290    0.0000 C   0  0  0  0  0  0  0  0  0  0  0  0
    3.6350    7.3630    0.0000 O   0  0  0  0  0  0  0  0  0  0  0  0
    1.0540    7.3960    0.0000 C   0  0  3  0  0  0  0  0  0  0  0  0
   -0.2730    6.6880    0.0000 N   0  0  0  0  0  0  0  0  0  0  0  0
   -1.5380    7.4780    0.0000 C   0  0  0  0  0  0  0  0  0  0  0  0
   -1.4400    8.9750    0.0000 O   0  0  0  0  0  0  0  0  0  0  0  0
   -2.8710    6.8740    0.0000 C   0  0  3  0  0  0  0  0  0  0  0  0
   -3.0910    5.3850    0.0000 N   0  0  0  0  0  0  0  0  0  0  0  0
   -4.4710    4.8380    0.0000 C   0  0  0  0  0  0  0  0  0  0  0  0
   -5.5410    5.8900    0.0000 O   0  0  0  0  0  0  0  0  0  0  0  0
   -4.9540    3.5530    0.0000 C   0  0  3  0  0  0  0  0  0  0  0  0
   -4.6760    2.2220    0.0000 N   0  0  0  0  0  0  0  0  0  0  0  0
   -3.4220    1.4320    0.0000 C   0  0  0  0  0  0  0  0  0  0  0  0
   -2.1000    2.1420    0.0000 O   0  0  0  0  0  0  0  0  0  0  0  0
   -3.4550   -0.0580    0.0000 C   0  0  0  0  0  0  0  0  0  0  0  0
   -2.4220   -0.9830    0.0000 C   0  0  0  0  0  0  0  0  0  0  0  0
   -1.0370   -1.0620    0.0000 C   0  0  0  0  0  0  0  0  0  0  0  0
   -6.4500    3.6680    0.0000 C   0  0  0  0  0  0  0  0  0  0  0  0
   -7.2970    2.4310    0.0000 C   0  0  0  0  0  0  0  0  0  0  0  0
   -6.6490    1.0780    0.0000 C   0  0  0  0  0  0  0  0  0  0  0  0
   -7.4970   -0.1600    0.0000 C   0  0  0  0  0  0  0  0  0  0  0  0
   -8.9920   -0.0450    0.0000 C   0  0  0  0  0  0  0  0  0  0  0  0
   -9.8400   -1.2830    0.0000 O   0  0  0  0  0  0  0  0  0  0  0  0
  -11.3350   -1.1680    0.0000 C   0  0  0  0  0  0  0  0  0  0  0  0
   -9.6400    1.3080    0.0000 C   0  0  0  0  0  0  0  0  0  0  0  0
   -8.7930    2.5460    0.0000 C   0  0  0  0  0  0  0  0  0  0  0  0
   -4.0690    7.7760    0.0000 C   0  0  3  0  0  0  0  0  0  0  0  0
   -5.4500    7.1900    0.0000 C   0  0  0  0  0  0  0  0  0  0  0  0
   -6.6480    8.0930    0.0000 C   0  0  0  0  0  0  0  0  0  0  0  0
   -3.8860    9.2650    0.0000 C   0  0  0  0  0  0  0  0  0  0  0  0
    1.0930    8.8960    0.0000 C   0  0  0  0  0  0  0  0  0  0  0  0
    2.4110    9.6120    0.0000 C   0  0  0  0  0  0  0  0  0  0  0  0
    2.4510   11.1110    0.0000 C   0  0  0  0  0  0  0  0  0  0  0  0
    1.1720   11.8950    0.0000 O   0  0  0  0  0  0  0  0  0  0  0  0
    3.7690   11.8270    0.0000 N   0  0  0  0  0  0  0  0  0  0  0  0
    4.8980    5.1530    0.0000 C   0  0  0  0  0  0  0  0  0  0  0  0
    6.2120    4.4290    0.0000 C   0  0  0  0  0  0  0  0  0  0  0  0
    7.4960    5.2050    0.0000 O   0  0  0  0  0  0  0  0  0  0  0  0
    6.2420    2.9300    0.0000 N   0  0  0  0  0  0  0  0  0  0  0  0
    3.9330    0.0030    0.0000 C   0  0  0  0  0  0  0  0  0  0  0  0
    5.1220    0.9180    0.0000 O   0  0  0  0  0  0  0  0  0  0  0  0
    4.1320   -1.4840    0.0000 N   0  0  0  0  0  0  0  0  0  0  0  0
    3.0450   -2.5190    0.0000 C   0  0  0  0  0  0  0  0  0  0  0  0
    3.6930   -3.8710    0.0000 C   0  0  0  0  0  0  0  0  0  0  0  0
    5.1800   -3.6730    0.0000 C   0  0  0  0  0  0  0  0  0  0  0  0
    5.4510   -2.1980    0.0000 C   0  0  3  0  0  0  0  0  0  0  0  0
    6.8040   -1.5490    0.0000 C   0  0  0  0  0  0  0  0  0  0  0  0
    8.0410   -2.3970    0.0000 O   0  0  0  0  0  0  0  0  0  0  0  0
    6.9190   -0.0540    0.0000 N   0  0  0  0  0  0  0  0  0  0  0  0
    8.2720    0.5940    0.0000 C   0  0  3  0  0  0  0  0  0  0  0  0
    8.3870    2.0900    0.0000 C   0  0  0  0  0  0  0  0  0  0  0  0
    9.7390    2.7380    0.0000 C   0  0  0  0  0  0  0  0  0  0  0  0
    9.8540    4.2340    0.0000 C   0  0  0  0  0  0  0  0  0  0  0  0
   10.9770    1.8910    0.0000 C   0  0  0  0  0  0  0  0  0  0  0  0
    9.5090   -0.2530    0.0000 C   0  0  0  0  0  0  0  0  0  0  0  0
    9.3940   -1.7490    0.0000 O   0  0  0  0  0  0  0  0  0  0  0  0
   10.8620    0.3950    0.0000 N   0  0  0  0  0  0  0  0  0  0  0  0
   12.1000   -0.4520    0.0000 C   0  0  0  0  0  0  0  0  0  0  0  0
   13.4520    0.1960    0.0000 C   0  0  0  0  0  0  0  0  0  0  0  0
   14.6900   -0.6520    0.0000 O   0  0  0  0  0  0  0  0  0  0  0  0
   13.5670    1.6910    0.0000 N   0  0  0  0  0  0  0  0  0  0  0  0
  1  2  1  0  0  0  0
  1 25  1  0  0  0  0
  2  3  1  0  0  0  0
  3  4  1  0  0  0  0
  3 48  1  0  0  0  0
  4  5  1  0  0  0  0
  5  6  2  0  0  0  0
  5  7  1  0  0  0  0
  7  8  1  0  0  0  0
  7 44  1  0  0  0  0
  8  9  1  0  0  0  0
  9 10  2  0  0  0  0
  9 11  1  0  0  0  0
 11 12  1  0  0  0  0
 11 39  1  0  0  0  0
 12 13  1  0  0  0  0
 13 14  2  0  0  0  0
 13 15  1  0  0  0  0
 15 16  1  0  0  0  0
 15 35  1  0  0  0  0
 16 17  1  0  0  0  0
 17 18  2  0  0  0  0
 17 19  1  0  0  0  0
 19 20  1  0  0  0  0
 19 26  1  0  0  0  0
 20 21  1  0  0  0  0
 21 22  2  0  0  0  0
 21 23  1  0  0  0  0
 23 24  1  0  0  0  0
 24 25  1  0  0  0  0
 26 27  1  0  0  0  0
 27 28  1  0  0  0  0
 27 34  2  0  0  0  0
 28 29  2  0  0  0  0
 29 30  1  0  0  0  0
 30 31  1  0  0  0  0
 30 33  2  0  0  0  0
 31 32  1  0  0  0  0
 33 34  1  0  0  0  0
 35 36  1  0  0  0  0
 35 38  1  0  0  0  0
 36 37  1  0  0  0  0
 39 40  1  0  0  0  0
 40 41  1  0  0  0  0
 41 42  2  0  0  0  0
 41 43  1  0  0  0  0
 44 45  1  0  0  0  0
 45 46  2  0  0  0  0
 45 47  1  0  0  0  0
 48 49  2  0  0  0  0
 48 50  1  0  0  0  0
 50 51  1  0  0  0  0
 50 54  1  0  0  0  0
 51 52  1  0  0  0  0
 52 53  1  0  0  0  0
 53 54  1  0  0  0  0
 54 55  1  0  0  0  0
 55 56  2  0  0  0  0
 55 57  1  0  0  0  0
 57 58  1  0  0  0  0
 58 59  1  0  0  0  0
 58 63  1  0  0  0  0
 59 60  1  0  0  0  0
 60 61  1  0  0  0  0
 60 62  1  0  0  0  0
 63 64  2  0  0  0  0
 63 65  1  0  0  0  0
 65 66  1  0  0  0  0
 66 67  1  0  0  0  0
 67 68  2  0  0  0  0
 67 69  1  0  0  0  0
M  END
>  <Index>
190

>  <ID>
HT0376

>  <class>
0

>  <apol>
149.83272

>  <ast_fraglike>
0

>  <ast_fraglike_ext>
0

>  <ast_violation>
3

>  <ast_violation_ext>
5

>  <a_acc>
12

>  <a_acid>
0

>  <a_aro>
6

>  <a_base>
0

>  <a_count>
138

>  <a_don>
10

>  <a_donacc>
22

>  <a_heavy>
69

>  <a_hyd>
35

>  <a_IC>
231.28149

>  <a_ICM>
1.6759529

>  <a_nB>
0

>  <a_nBr>
0

>  <a_nC>
45

>  <a_nCl>
0

>  <a_nF>
0

>  <a_nH>
69

>  <a_nI>
0

>  <a_nN>
11

>  <a_nO>
12

>  <a_nP>
0

>  <a_nS>
1

>  <balabanJ>
1.9747744

>  <BCUT_PEOE_0>
-2.6887033

>  <BCUT_PEOE_1>
-0.55360615

>  <BCUT_PEOE_2>
0.45607245

>  <BCUT_PEOE_3>
2.7445726

>  <BCUT_SLOGP_0>
-2.8807867

>  <BCUT_SLOGP_1>
-0.53136486

>  <BCUT_SLOGP_2>
0.39211389

>  <BCUT_SLOGP_3>
2.7016199

>  <BCUT_SMR_0>
-2.4394557

>  <BCUT_SMR_1>
-0.33587816

>  <BCUT_SMR_2>
0.63378662

>  <BCUT_SMR_3>
3.0007422

>  <bpol>
94.785286

>  <b_1rotN>
19

>  <b_1rotR>
0.26760563

>  <b_ar>
6

>  <b_count>
140

>  <b_double>
11

>  <b_heavy>
71

>  <b_max1len>
6

>  <b_rotN>
21

>  <b_rotR>
0.29577464

>  <b_single>
123

>  <b_triple>
0

>  <chi0>
51.370941

>  <chi0v>
40.708038

>  <chi0v_C>
28.905048

>  <chi0_C>
30.429628

>  <chi1>
32.626446

>  <chi1v>
24.237789

>  <chi1v_C>
14.148337

>  <chi1_C>
15.546045

>  <chiral>
8

>  <chiral_u>
8

>  <density>
0.77458358

>  <diameter>
26

>  <FCharge>
0

>  <GCUT_PEOE_0>
-0.83885467

>  <GCUT_PEOE_1>
-0.43465561

>  <GCUT_PEOE_2>
0.063468903

>  <GCUT_PEOE_3>
3.2480271

>  <GCUT_SLOGP_0>
-1.3708806

>  <GCUT_SLOGP_1>
-0.4030897

>  <GCUT_SLOGP_2>
0.054200001

>  <GCUT_SLOGP_3>
3.1691279

>  <GCUT_SMR_0>
-0.53316456

>  <GCUT_SMR_1>
-0.23005308

>  <GCUT_SMR_2>
0.18266821

>  <GCUT_SMR_3>
3.4859052

>  <Kier1>
63.292206

>  <Kier2>
33.121964

>  <Kier3>
22.792244

>  <KierA1>
49.323456

>  <KierA2>
25.712301

>  <KierA3>
17.645985

>  <KierFlex>
18.379993

>  <lip_acc>
23

>  <lip_don>
13

>  <lip_druglike>
0

>  <lip_violation>
3

>  <logP(o/w)>
-2.1129999

>  <logS>
-8.1283302

>  <mr>
25.697857

>  <mutagenic>
0

>  <nmol>
1

>  <opr_brigid>
31

>  <opr_leadlike>
0

>  <opr_nring>
2

>  <opr_nrot>
34

>  <opr_violation>
4

>  <PC+>
0

>  <PC->
0

>  <PEOE_PC+>
8.0475025

>  <PEOE_PC->
-8.0475025

>  <PEOE_RPC+>
0.03073618

>  <PEOE_RPC->
0.045956243

>  <PEOE_VSA+0>
245.58673

>  <PEOE_VSA+1>
98.598335

>  <PEOE_VSA+2>
22.021723

>  <PEOE_VSA+3>
112.04717

>  <PEOE_VSA+4>
142.44484

>  <PEOE_VSA+5>
0

>  <PEOE_VSA+6>
0

>  <PEOE_VSA-0>
80.90229

>  <PEOE_VSA-1>
108.20183

>  <PEOE_VSA-2>
0

>  <PEOE_VSA-3>
19.760618

>  <PEOE_VSA-4>
0

>  <PEOE_VSA-5>
149.23613

>  <PEOE_VSA-6>
23.415352

>  <PEOE_VSA_FHYD>
0.6856001

>  <PEOE_VSA_FNEG>
0.38067302

>  <PEOE_VSA_FPNEG>
0.1722699

>  <PEOE_VSA_FPOL>
0.31439993

>  <PEOE_VSA_FPOS>
0.61932701

>  <PEOE_VSA_FPPOS>
0.14213002

>  <PEOE_VSA_HYD>
687.11871

>  <PEOE_VSA_NEG>
381.5162

>  <PEOE_VSA_PNEG>
172.65147

>  <PEOE_VSA_POL>
315.09631

>  <PEOE_VSA_POS>
620.69879

>  <PEOE_VSA_PPOS>
142.44484

>  <petitjean>
0.5

>  <petitjeanSC>
1

>  <Q_PC+>
0

>  <Q_PC->
0

>  <Q_RPC+>
0

>  <Q_RPC->
0

>  <Q_VSA_FHYD>
1

>  <Q_VSA_FNEG>
0

>  <Q_VSA_FPNEG>
0

>  <Q_VSA_FPOL>
0

>  <Q_VSA_FPOS>
1

>  <Q_VSA_FPPOS>
0

>  <Q_VSA_HYD>
1002.215

>  <Q_VSA_NEG>
0

>  <Q_VSA_PNEG>
0

>  <Q_VSA_POL>
0

>  <Q_VSA_POS>
1002.215

>  <Q_VSA_PPOS>
0

>  <radius>
13

>  <reactive>
0

>  <rings>
3

>  <RPC+>
0

>  <RPC->
0

>  <rsynth>
1

>  <SlogP>
-2.5009301

>  <SlogP_VSA0>
235.76671

>  <SlogP_VSA1>
60.970932

>  <SlogP_VSA2>
290.35815

>  <SlogP_VSA3>
71.346283

>  <SlogP_VSA4>
12.007167

>  <SlogP_VSA5>
54.252274

>  <SlogP_VSA6>
0

>  <SlogP_VSA7>
70.572739

>  <SlogP_VSA8>
169.81564

>  <SlogP_VSA9>
170.76703

>  <SMR>
25.29311

>  <SMR_VSA0>
262.48438

>  <SMR_VSA1>
14.124202

>  <SMR_VSA2>
134.89685

>  <SMR_VSA3>
36.302784

>  <SMR_VSA4>
98.691559

>  <SMR_VSA5>
259.25681

>  <SMR_VSA6>
129.1929

>  <SMR_VSA7>
200.90747

>  <TPSA>
362.51001

>  <VAdjEq>
0.19351684

>  <VAdjMa>
7.1497469

>  <VDistEq>
4.3685126

>  <VDistMa>
11.979476

>  <vdw_area>
1002.215

>  <vdw_vol>
1275.7538

>  <vsa_acc>
151.73988

>  <vsa_acid>
0

>  <vsa_base>
0

>  <vsa_don>
93.005501

>  <vsa_hyd>
532.52087

>  <vsa_other>
142.44484

>  <vsa_pol>
244.74539

>  <Weight>
988.17798

>  <weinerPath>
23410

>  <weinerPol>
106

>  <zagreb>
334

$$$$