Clc1ccc(OC(Oc2ccc(Cl)cc2)C(=O)NC(=O)N)cc1
  MOE2013           2D

 23 24  0  0  0  0  0  0  0  0999 V2000
    0.0000    0.0000    0.0000 Cl  0  0  0  0  0  0  0  0  0  0  0  0
    1.5000    0.0070    0.0000 C   0  0  0  0  0  0  0  0  0  0  0  0
    2.2440    1.3090    0.0000 C   0  0  0  0  0  0  0  0  0  0  0  0
    3.7440    1.3160    0.0000 C   0  0  0  0  0  0  0  0  0  0  0  0
    4.5000    0.0200    0.0000 C   0  0  0  0  0  0  0  0  0  0  0  0
    6.0000    0.0270    0.0000 O   0  0  0  0  0  0  0  0  0  0  0  0
    6.7440    1.3300    0.0000 C   0  0  0  0  0  0  0  0  0  0  0  0
    8.2440    1.3360    0.0000 O   0  0  0  0  0  0  0  0  0  0  0  0
    9.0000    0.0410    0.0000 C   0  0  0  0  0  0  0  0  0  0  0  0
    8.2560   -1.2620    0.0000 C   0  0  0  0  0  0  0  0  0  0  0  0
    9.0120   -2.5570    0.0000 C   0  0  0  0  0  0  0  0  0  0  0  0
   10.5120   -2.5500    0.0000 C   0  0  0  0  0  0  0  0  0  0  0  0
   11.2680   -3.8460    0.0000 Cl  0  0  0  0  0  0  0  0  0  0  0  0
   11.2560   -1.2480    0.0000 C   0  0  0  0  0  0  0  0  0  0  0  0
   10.5000    0.0480    0.0000 C   0  0  0  0  0  0  0  0  0  0  0  0
    5.9880    2.6250    0.0000 C   0  0  0  0  0  0  0  0  0  0  0  0
    4.4880    2.6180    0.0000 O   0  0  0  0  0  0  0  0  0  0  0  0
    6.7320    3.9280    0.0000 N   0  0  0  0  0  0  0  0  0  0  0  0
    5.9760    5.2230    0.0000 C   0  0  0  0  0  0  0  0  0  0  0  0
    6.7200    6.5260    0.0000 O   0  0  0  0  0  0  0  0  0  0  0  0
    4.4760    5.2170    0.0000 N   0  0  0  0  0  0  0  0  0  0  0  0
    3.7560   -1.2820    0.0000 C   0  0  0  0  0  0  0  0  0  0  0  0
    2.2560   -1.2890    0.0000 C   0  0  0  0  0  0  0  0  0  0  0  0
  1  2  1  0  0  0  0
  2  3  1  0  0  0  0
  2 23  2  0  0  0  0
  3  4  2  0  0  0  0
  4  5  1  0  0  0  0
  5  6  1  0  0  0  0
  5 22  2  0  0  0  0
  6  7  1  0  0  0  0
  7  8  1  0  0  0  0
  7 16  1  0  0  0  0
  8  9  1  0  0  0  0
  9 10  1  0  0  0  0
  9 15  2  0  0  0  0
 10 11  2  0  0  0  0
 11 12  1  0  0  0  0
 12 13  1  0  0  0  0
 12 14  2  0  0  0  0
 14 15  1  0  0  0  0
 16 17  2  0  0  0  0
 16 18  1  0  0  0  0
 18 19  1  0  0  0  0
 19 20  2  0  0  0  0
 19 21  1  0  0  0  0
 22 23  1  0  0  0  0
M  END
>  <Index>
1129

>  <ID>
HT2155

>  <class>
0

>  <apol>
44.169518

>  <ast_fraglike>
0

>  <ast_fraglike_ext>
0

>  <ast_violation>
2

>  <ast_violation_ext>
3

>  <a_acc>
4

>  <a_acid>
0

>  <a_aro>
12

>  <a_base>
0

>  <a_count>
35

>  <a_don>
2

>  <a_donacc>
6

>  <a_heavy>
23

>  <a_hyd>
14

>  <a_IC>
65.902

>  <a_ICM>
1.8829142

>  <a_nB>
0

>  <a_nBr>
0

>  <a_nC>
15

>  <a_nCl>
2

>  <a_nF>
0

>  <a_nH>
12

>  <a_nI>
0

>  <a_nN>
2

>  <a_nO>
4

>  <a_nP>
0

>  <a_nS>
0

>  <balabanJ>
1.885751

>  <BCUT_PEOE_0>
-2.3455868

>  <BCUT_PEOE_1>
-0.63994783

>  <BCUT_PEOE_2>
0.64348096

>  <BCUT_PEOE_3>
2.4235575

>  <BCUT_SLOGP_0>
-2.679456

>  <BCUT_SLOGP_1>
-0.53807992

>  <BCUT_SLOGP_2>
0.80591482

>  <BCUT_SLOGP_3>
2.3932722

>  <BCUT_SMR_0>
-2.0936394

>  <BCUT_SMR_1>
-0.4333199

>  <BCUT_SMR_2>
0.85431087

>  <BCUT_SMR_3>
2.6492405

>  <bpol>
19.706484

>  <b_1rotN>
5

>  <b_1rotR>
0.20833333

>  <b_ar>
12

>  <b_count>
36

>  <b_double>
2

>  <b_heavy>
24

>  <b_max1len>
2

>  <b_rotN>
7

>  <b_rotR>
0.29166666

>  <b_single>
22

>  <b_triple>
0

>  <chi0>
16.819626

>  <chi0v>
13.174283

>  <chi0v_C>
8.1961527

>  <chi0_C>
9.6983061

>  <chi1>
10.935561

>  <chi1v>
7.1418791

>  <chi1v_C>
3.9314096

>  <chi1_C>
5.5993195

>  <chiral>
0

>  <chiral_u>
0

>  <density>
0.87984329

>  <diameter>
12

>  <FCharge>
0

>  <GCUT_PEOE_0>
-0.80078536

>  <GCUT_PEOE_1>
-0.43620706

>  <GCUT_PEOE_2>
0.083248451

>  <GCUT_PEOE_3>
2.3415532

>  <GCUT_SLOGP_0>
-1.3709153

>  <GCUT_SLOGP_1>
-0.34788334

>  <GCUT_SLOGP_2>
0.2535871

>  <GCUT_SLOGP_3>
2.4260118

>  <GCUT_SMR_0>
-0.47904834

>  <GCUT_SMR_1>
-0.21573162

>  <GCUT_SMR_2>
0.27047727

>  <GCUT_SMR_3>
2.6149681

>  <Kier1>
19.326389

>  <Kier2>
9.4746094

>  <Kier3>
6.7901235

>  <KierA1>
15.487848

>  <KierA2>
7.5112228

>  <KierA3>
5.3390794

>  <KierFlex>
5.0579424

>  <lip_acc>
6

>  <lip_don>
3

>  <lip_druglike>
1

>  <lip_violation>
0

>  <logP(o/w)>
3.2079999

>  <logS>
-5.1363802

>  <mr>
8.7504787

>  <mutagenic>
0

>  <nmol>
1

>  <opr_brigid>
12

>  <opr_leadlike>
1

>  <opr_nring>
2

>  <opr_nrot>
5

>  <opr_violation>
0

>  <PC+>
0

>  <PC->
0

>  <PEOE_PC+>
2.2045684

>  <PEOE_PC->
-2.2045684

>  <PEOE_RPC+>
0.14521298

>  <PEOE_RPC->
0.15952934

>  <PEOE_VSA+0>
9.0394926

>  <PEOE_VSA+1>
51.040127

>  <PEOE_VSA+2>
4.2653861

>  <PEOE_VSA+3>
25.857038

>  <PEOE_VSA+4>
11.154908

>  <PEOE_VSA+5>
12.949531

>  <PEOE_VSA+6>
17.440542

>  <PEOE_VSA-0>
98.03923

>  <PEOE_VSA-1>
59.163895

>  <PEOE_VSA-2>
0

>  <PEOE_VSA-3>
0

>  <PEOE_VSA-4>
13.566921

>  <PEOE_VSA-5>
13.703812

>  <PEOE_VSA-6>
11.658631

>  <PEOE_VSA_FHYD>
0.75456125

>  <PEOE_VSA_FNEG>
0.59818465

>  <PEOE_VSA_FPNEG>
0.1187307

>  <PEOE_VSA_FPOL>
0.24543877

>  <PEOE_VSA_FPOS>
0.40181535

>  <PEOE_VSA_FPPOS>
0.12670808

>  <PEOE_VSA_HYD>
247.40517

>  <PEOE_VSA_NEG>
196.13249

>  <PEOE_VSA_PNEG>
38.929363

>  <PEOE_VSA_POL>
80.47435

>  <PEOE_VSA_POS>
131.74702

>  <PEOE_VSA_PPOS>
41.544983

>  <petitjean>
0.5

>  <petitjeanSC>
1

>  <Q_PC+>
0

>  <Q_PC->
0

>  <Q_RPC+>
0

>  <Q_RPC->
0

>  <Q_VSA_FHYD>
1

>  <Q_VSA_FNEG>
0

>  <Q_VSA_FPNEG>
0

>  <Q_VSA_FPOL>
0

>  <Q_VSA_FPOS>
1

>  <Q_VSA_FPPOS>
0

>  <Q_VSA_HYD>
327.87952

>  <Q_VSA_NEG>
0

>  <Q_VSA_PNEG>
0

>  <Q_VSA_POL>
0

>  <Q_VSA_POS>
327.87952

>  <Q_VSA_PPOS>
0

>  <radius>
6

>  <reactive>
0

>  <rings>
2

>  <RPC+>
0

>  <RPC->
0

>  <rsynth>
1

>  <SlogP>
2.9721999

>  <SlogP_VSA0>
72.907715

>  <SlogP_VSA1>
10.088739

>  <SlogP_VSA2>
32.388718

>  <SlogP_VSA3>
0

>  <SlogP_VSA4>
0

>  <SlogP_VSA5>
0

>  <SlogP_VSA6>
7.0012131

>  <SlogP_VSA7>
141.14548

>  <SlogP_VSA8>
0

>  <SlogP_VSA9>
112.64636

>  <SMR>
8.5674105

>  <SMR_VSA0>
47.724434

>  <SMR_VSA1>
21.999775

>  <SMR_VSA2>
18.01075

>  <SMR_VSA3>
26.014572

>  <SMR_VSA4>
32.897186

>  <SMR_VSA5>
141.14548

>  <SMR_VSA6>
10.088739

>  <SMR_VSA7>
78.297287

>  <TPSA>
90.650002

>  <VAdjEq>
0.43892586

>  <VAdjMa>
5.5849624

>  <VDistEq>
3.3145378

>  <VDistMa>
8.7694712

>  <vdw_area>
327.87952

>  <vdw_vol>
403.68213

>  <vsa_acc>
32.141354

>  <vsa_acid>
0

>  <vsa_base>
0

>  <vsa_don>
23.425066

>  <vsa_hyd>
211.58838

>  <vsa_other>
45.098572

>  <vsa_pol>
55.566422

>  <Weight>
355.177

>  <weinerPath>
1268

>  <weinerPol>
30

>  <zagreb>
112

$$$$