O(CCNCC(O)COc1c2c3c([nH]c2ccc1)cccc3)c1ccccc1OC
  MOE2013           2D

 30 33  0  0  1  0  0  0  0  0999 V2000
    0.0000    0.0000    0.0000 O   0  0  0  0  0  0  0  0  0  0  0  0
   -1.5000   -0.0090    0.0000 C   0  0  0  0  0  0  0  0  0  0  0  0
   -2.2420   -1.3130    0.0000 C   0  0  0  0  0  0  0  0  0  0  0  0
   -3.7420   -1.3230    0.0000 N   0  0  0  0  0  0  0  0  0  0  0  0
   -4.4840   -2.6260    0.0000 C   0  0  0  0  0  0  0  0  0  0  0  0
   -5.9830   -2.6360    0.0000 C   0  0  3  0  0  0  0  0  0  0  0  0
   -6.7250   -3.9400    0.0000 O   0  0  0  0  0  0  0  0  0  0  0  0
   -6.7420   -1.3420    0.0000 C   0  0  0  0  0  0  0  0  0  0  0  0
   -8.2420   -1.3510    0.0000 O   0  0  0  0  0  0  0  0  0  0  0  0
   -9.0000   -0.0570    0.0000 C   0  0  0  0  0  0  0  0  0  0  0  0
  -10.5000   -0.0660    0.0000 C   0  0  0  0  0  0  0  0  0  0  0  0
  -11.4960   -1.1870    0.0000 C   0  0  0  0  0  0  0  0  0  0  0  0
  -12.8710   -0.5860    0.0000 C   0  0  0  0  0  0  0  0  0  0  0  0
  -12.7230    0.9070    0.0000 N   0  0  0  0  0  0  0  0  0  0  0  0
  -11.2580    1.2280    0.0000 C   0  0  0  0  0  0  0  0  0  0  0  0
  -10.5160    2.5320    0.0000 C   0  0  0  0  0  0  0  0  0  0  0  0
   -9.0160    2.5410    0.0000 C   0  0  0  0  0  0  0  0  0  0  0  0
   -8.2580    1.2470    0.0000 C   0  0  0  0  0  0  0  0  0  0  0  0
  -14.0790   -1.4750    0.0000 C   0  0  0  0  0  0  0  0  0  0  0  0
  -13.9120   -2.9660    0.0000 C   0  0  0  0  0  0  0  0  0  0  0  0
  -12.5380   -3.5670    0.0000 C   0  0  0  0  0  0  0  0  0  0  0  0
  -11.3300   -2.6780    0.0000 C   0  0  0  0  0  0  0  0  0  0  0  0
    0.7420    1.3040    0.0000 C   0  0  0  0  0  0  0  0  0  0  0  0
   -0.0160    2.5980    0.0000 C   0  0  0  0  0  0  0  0  0  0  0  0
    0.7250    3.9020    0.0000 C   0  0  0  0  0  0  0  0  0  0  0  0
    2.2250    3.9110    0.0000 C   0  0  0  0  0  0  0  0  0  0  0  0
    2.9840    2.6170    0.0000 C   0  0  0  0  0  0  0  0  0  0  0  0
    2.2420    1.3130    0.0000 C   0  0  0  0  0  0  0  0  0  0  0  0
    3.0000    0.0190    0.0000 O   0  0  0  0  0  0  0  0  0  0  0  0
    4.5000    0.0280    0.0000 C   0  0  0  0  0  0  0  0  0  0  0  0
  1  2  1  0  0  0  0
  1 23  1  0  0  0  0
  2  3  1  0  0  0  0
  3  4  1  0  0  0  0
  4  5  1  0  0  0  0
  5  6  1  0  0  0  0
  6  7  1  0  0  0  0
  6  8  1  0  0  0  0
  8  9  1  0  0  0  0
  9 10  1  0  0  0  0
 10 11  1  0  0  0  0
 10 18  2  0  0  0  0
 11 12  1  0  0  0  0
 11 15  2  0  0  0  0
 12 13  1  0  0  0  0
 12 22  2  0  0  0  0
 13 14  1  0  0  0  0
 13 19  2  0  0  0  0
 14 15  1  0  0  0  0
 15 16  1  0  0  0  0
 16 17  2  0  0  0  0
 17 18  1  0  0  0  0
 19 20  1  0  0  0  0
 20 21  2  0  0  0  0
 21 22  1  0  0  0  0
 23 24  1  0  0  0  0
 23 28  2  0  0  0  0
 24 25  2  0  0  0  0
 25 26  1  0  0  0  0
 26 27  2  0  0  0  0
 27 28  1  0  0  0  0
 28 29  1  0  0  0  0
 29 30  1  0  0  0  0
M  END
>  <Index>
198

>  <ID>
HT0390

>  <class>
0

>  <apol>
64.984619

>  <ast_fraglike>
0

>  <ast_fraglike_ext>
0

>  <ast_violation>
3

>  <ast_violation_ext>
4

>  <a_acc>
5

>  <a_acid>
0

>  <a_aro>
19

>  <a_base>
0

>  <a_count>
56

>  <a_don>
3

>  <a_donacc>
8

>  <a_heavy>
30

>  <a_hyd>
24

>  <a_IC>
82.961342

>  <a_ICM>
1.4814526

>  <a_nB>
0

>  <a_nBr>
0

>  <a_nC>
24

>  <a_nCl>
0

>  <a_nF>
0

>  <a_nH>
26

>  <a_nI>
0

>  <a_nN>
2

>  <a_nO>
4

>  <a_nP>
0

>  <a_nS>
0

>  <balabanJ>
1.1163772

>  <BCUT_PEOE_0>
-2.6110396

>  <BCUT_PEOE_1>
-0.58856338

>  <BCUT_PEOE_2>
0.62622833

>  <BCUT_PEOE_3>
2.579864

>  <BCUT_SLOGP_0>
-2.8163834

>  <BCUT_SLOGP_1>
-0.55290097

>  <BCUT_SLOGP_2>
0.7215299

>  <BCUT_SLOGP_3>
2.4664865

>  <BCUT_SMR_0>
-2.3608263

>  <BCUT_SMR_1>
-0.42727703

>  <BCUT_SMR_2>
0.78831851

>  <BCUT_SMR_3>
2.8146868

>  <bpol>
35.491383

>  <b_1rotN>
10

>  <b_1rotR>
0.30303031

>  <b_ar>
21

>  <b_count>
59

>  <b_double>
0

>  <b_heavy>
33

>  <b_max1len>
7

>  <b_rotN>
10

>  <b_rotR>
0.30303031

>  <b_single>
38

>  <b_triple>
0

>  <chi0>
20.760939

>  <chi0v>
16.928589

>  <chi0v_C>
14.25663

>  <chi0_C>
16.225405

>  <chi1>
14.758351

>  <chi1v>
10.028491

>  <chi1v_C>
6.9652143

>  <chi1_C>
9.4326534

>  <chiral>
1

>  <chiral_u>
1

>  <density>
0.71997577

>  <diameter>
17

>  <FCharge>
0

>  <GCUT_PEOE_0>
-0.85280329

>  <GCUT_PEOE_1>
-0.41477191

>  <GCUT_PEOE_2>
0.0635285

>  <GCUT_PEOE_3>
2.6202829

>  <GCUT_SLOGP_0>
-1.1539972

>  <GCUT_SLOGP_1>
-0.36283547

>  <GCUT_SLOGP_2>
0.14995638

>  <GCUT_SLOGP_3>
2.7239087

>  <GCUT_SMR_0>
-0.51948726

>  <GCUT_SMR_1>
-0.21115829

>  <GCUT_SMR_2>
0.17295092

>  <GCUT_SMR_3>
2.9083216

>  <Kier1>
23.168043

>  <Kier2>
11.743802

>  <Kier3>
6.0810113

>  <KierA1>
17.71376

>  <KierA2>
8.8902969

>  <KierA3>
4.5711389

>  <KierFlex>
5.2493534

>  <lip_acc>
6

>  <lip_don>
3

>  <lip_druglike>
1

>  <lip_violation>
0

>  <logP(o/w)>
3.97474

>  <logS>
-5.0313401

>  <mr>
11.752199

>  <mutagenic>
1

>  <nmol>
1

>  <opr_brigid>
21

>  <opr_leadlike>
1

>  <opr_nring>
4

>  <opr_nrot>
10

>  <opr_violation>
0

>  <PC+>
0

>  <PC->
0

>  <PEOE_PC+>
2.5942392

>  <PEOE_PC->
-2.5942392

>  <PEOE_RPC+>
0.080922194

>  <PEOE_RPC->
0.14965378

>  <PEOE_VSA+0>
86.260033

>  <PEOE_VSA+1>
124.30836

>  <PEOE_VSA+2>
25.536053

>  <PEOE_VSA+3>
8.6190128

>  <PEOE_VSA+4>
10.324173

>  <PEOE_VSA+5>
0

>  <PEOE_VSA+6>
0

>  <PEOE_VSA-0>
61.274521

>  <PEOE_VSA-1>
73.529427

>  <PEOE_VSA-2>
0

>  <PEOE_VSA-3>
0

>  <PEOE_VSA-4>
0

>  <PEOE_VSA-5>
0

>  <PEOE_VSA-6>
15.55259

>  <PEOE_VSA_FHYD>
0.93617046

>  <PEOE_VSA_FNEG>
0.37088057

>  <PEOE_VSA_FPNEG>
0.038363174

>  <PEOE_VSA_FPOL>
0.063829541

>  <PEOE_VSA_FPOS>
0.6291194

>  <PEOE_VSA_FPPOS>
0.025466369

>  <PEOE_VSA_HYD>
379.5274

>  <PEOE_VSA_NEG>
150.35654

>  <PEOE_VSA_PNEG>
15.55259

>  <PEOE_VSA_POL>
25.876762

>  <PEOE_VSA_POS>
255.04764

>  <PEOE_VSA_PPOS>
10.324173

>  <petitjean>
0.47058824

>  <petitjeanSC>
0.8888889

>  <Q_PC+>
0

>  <Q_PC->
0

>  <Q_RPC+>
0

>  <Q_RPC->
0

>  <Q_VSA_FHYD>
1

>  <Q_VSA_FNEG>
0

>  <Q_VSA_FPNEG>
0

>  <Q_VSA_FPOL>
0

>  <Q_VSA_FPOS>
1

>  <Q_VSA_FPPOS>
0

>  <Q_VSA_HYD>
405.40417

>  <Q_VSA_NEG>
0

>  <Q_VSA_PNEG>
0

>  <Q_VSA_POL>
0

>  <Q_VSA_POS>
405.40417

>  <Q_VSA_PPOS>
0

>  <radius>
9

>  <reactive>
0

>  <rings>
4

>  <RPC+>
0

>  <RPC->
0

>  <rsynth>
1

>  <SlogP>
3.7379999

>  <SlogP_VSA0>
76.395638

>  <SlogP_VSA1>
0

>  <SlogP_VSA2>
23.254179

>  <SlogP_VSA3>
78.731674

>  <SlogP_VSA4>
0

>  <SlogP_VSA5>
35.383869

>  <SlogP_VSA6>
0

>  <SlogP_VSA7>
203.50923

>  <SlogP_VSA8>
0

>  <SlogP_VSA9>
15.730285

>  <SMR>
11.86652

>  <SMR_VSA0>
0

>  <SMR_VSA1>
58.384892

>  <SMR_VSA2>
34.79628

>  <SMR_VSA3>
22.198933

>  <SMR_VSA4>
9.4342031

>  <SMR_VSA5>
194.07503

>  <SMR_VSA6>
78.731674

>  <SMR_VSA7>
35.383869

>  <TPSA>
75.739998

>  <VAdjEq>
0.37824166

>  <VAdjMa>
6.044394

>  <VDistEq>
3.9227822

>  <VDistMa>
9.4690714

>  <vdw_area>
405.40417

>  <vdw_vol>
564.57733

>  <vsa_acc>
7.5112681

>  <vsa_acid>
0

>  <vsa_base>
0

>  <vsa_don>
5.6825762

>  <vsa_hyd>
345.91809

>  <vsa_other>
0

>  <vsa_pol>
32.44334

>  <Weight>
406.48199

>  <weinerPath>
3062

>  <weinerPol>
45

>  <zagreb>
154

$$$$