O1c2c(C=CC1=O)cc1c(occ1)c2
  MOE2013           2D

 14 16  0  0  0  0  0  0  0  0999 V2000
    0.0000    0.0000    0.0000 O   0  0  0  0  0  0  0  0  0  0  0  0
   -1.2950    0.7570    0.0000 C   0  0  0  0  0  0  0  0  0  0  0  0
   -1.2880    2.2570    0.0000 C   0  0  0  0  0  0  0  0  0  0  0  0
    0.0150    3.0000    0.0000 C   0  0  0  0  0  0  0  0  0  0  0  0
    1.3100    2.2430    0.0000 C   0  0  0  0  0  0  0  0  0  0  0  0
    1.3030    0.7430    0.0000 C   0  0  0  0  0  0  0  0  0  0  0  0
    2.5980   -0.0130    0.0000 O   0  0  0  0  0  0  0  0  0  0  0  0
   -2.5830    3.0130    0.0000 C   0  0  0  0  0  0  0  0  0  0  0  0
   -3.8860    2.2700    0.0000 C   0  0  0  0  0  0  0  0  0  0  0  0
   -3.8930    0.7700    0.0000 C   0  0  0  0  0  0  0  0  0  0  0  0
   -5.3220    0.3130    0.0000 O   0  0  0  0  0  0  0  0  0  0  0  0
   -6.1980    1.5310    0.0000 C   0  0  0  0  0  0  0  0  0  0  0  0
   -5.3100    2.7400    0.0000 C   0  0  0  0  0  0  0  0  0  0  0  0
   -2.5980    0.0130    0.0000 C   0  0  0  0  0  0  0  0  0  0  0  0
  1  2  1  0  0  0  0
  1  6  1  0  0  0  0
  2  3  1  0  0  0  0
  2 14  2  0  0  0  0
  3  4  1  0  0  0  0
  3  8  2  0  0  0  0
  4  5  2  0  0  0  0
  5  6  1  0  0  0  0
  6  7  2  0  0  0  0
  8  9  1  0  0  0  0
  9 10  2  0  0  0  0
  9 13  1  0  0  0  0
 10 11  1  0  0  0  0
 10 14  1  0  0  0  0
 11 12  1  0  0  0  0
 12 13  2  0  0  0  0
M  END
>  <Index>
1254

>  <ID>
HT2802

>  <class>
0

>  <apol>
25.766758

>  <ast_fraglike>
1

>  <ast_fraglike_ext>
1

>  <ast_violation>
0

>  <ast_violation_ext>
0

>  <a_acc>
1

>  <a_acid>
0

>  <a_aro>
9

>  <a_base>
0

>  <a_count>
20

>  <a_don>
0

>  <a_donacc>
1

>  <a_heavy>
14

>  <a_hyd>
8

>  <a_IC>
28.120152

>  <a_ICM>
1.4060075

>  <a_nB>
0

>  <a_nBr>
0

>  <a_nC>
11

>  <a_nCl>
0

>  <a_nF>
0

>  <a_nH>
6

>  <a_nI>
0

>  <a_nN>
0

>  <a_nO>
3

>  <a_nP>
0

>  <a_nS>
0

>  <balabanJ>
1.7164763

>  <BCUT_PEOE_0>
-2.2215359

>  <BCUT_PEOE_1>
-0.68948913

>  <BCUT_PEOE_2>
0.78029698

>  <BCUT_PEOE_3>
2.2695422

>  <BCUT_SLOGP_0>
-2.1759217

>  <BCUT_SLOGP_1>
-0.58274084

>  <BCUT_SLOGP_2>
0.9060421

>  <BCUT_SLOGP_3>
2.4378619

>  <BCUT_SMR_0>
-1.8971062

>  <BCUT_SMR_1>
-0.50468689

>  <BCUT_SMR_2>
0.98261762

>  <BCUT_SMR_3>
2.5937357

>  <bpol>
11.349242

>  <b_1rotN>
0

>  <b_1rotR>
0

>  <b_ar>
10

>  <b_count>
22

>  <b_double>
2

>  <b_heavy>
16

>  <b_max1len>
1

>  <b_rotN>
0

>  <b_rotR>
0

>  <b_single>
10

>  <b_triple>
0

>  <chi0>
9.5436058

>  <chi0v>
7.1888466

>  <chi0v_C>
5.9641018

>  <chi0_C>
7.1293921

>  <chi1>
6.8264999

>  <chi1v>
4.2395916

>  <chi1v_C>
3.1873927

>  <chi1_C>
4.5244045

>  <chiral>
0

>  <chiral_u>
0

>  <density>
0.79584688

>  <diameter>
7

>  <FCharge>
0

>  <GCUT_PEOE_0>
-0.83977592

>  <GCUT_PEOE_1>
-0.46716762

>  <GCUT_PEOE_2>
0.13522294

>  <GCUT_PEOE_3>
2.2346256

>  <GCUT_SLOGP_0>
-0.91116726

>  <GCUT_SLOGP_1>
-0.34320894

>  <GCUT_SLOGP_2>
0.23983204

>  <GCUT_SLOGP_3>
2.4052343

>  <GCUT_SMR_0>
-0.42256102

>  <GCUT_SMR_1>
-0.22357982

>  <GCUT_SMR_2>
0.2990559

>  <GCUT_SMR_3>
2.5466685

>  <Kier1>
9.2421875

>  <Kier2>
3.5387523

>  <Kier3>
1.648283

>  <KierA1>
6.2949376

>  <KierA2>
2.3308582

>  <KierA3>
1.0579646

>  <KierFlex>
1.0480434

>  <lip_acc>
3

>  <lip_don>
0

>  <lip_druglike>
1

>  <lip_violation>
0

>  <logP(o/w)>
2.5190001

>  <logS>
-4.2163301

>  <mr>
5.0351863

>  <mutagenic>
0

>  <nmol>
1

>  <opr_brigid>
15

>  <opr_leadlike>
1

>  <opr_nring>
3

>  <opr_nrot>
0

>  <opr_violation>
0

>  <PC+>
0

>  <PC->
0

>  <PEOE_PC+>
1.099865

>  <PEOE_PC->
-1.099865

>  <PEOE_RPC+>
0.26510498

>  <PEOE_RPC->
0.4208124

>  <PEOE_VSA+0>
28.926888

>  <PEOE_VSA+1>
48.290333

>  <PEOE_VSA+2>
12.723906

>  <PEOE_VSA+3>
0

>  <PEOE_VSA+4>
0

>  <PEOE_VSA+5>
14.708499

>  <PEOE_VSA+6>
0

>  <PEOE_VSA-0>
36.764713

>  <PEOE_VSA-1>
0

>  <PEOE_VSA-2>
0

>  <PEOE_VSA-3>
0

>  <PEOE_VSA-4>
0

>  <PEOE_VSA-5>
16.070677

>  <PEOE_VSA-6>
2.503756

>  <PEOE_VSA_FHYD>
0.79196709

>  <PEOE_VSA_FNEG>
0.34589392

>  <PEOE_VSA_FPNEG>
0.11609836

>  <PEOE_VSA_FPOL>
0.20803294

>  <PEOE_VSA_FPOS>
0.65410608

>  <PEOE_VSA_FPPOS>
0.091934577

>  <PEOE_VSA_HYD>
126.70584

>  <PEOE_VSA_NEG>
55.339146

>  <PEOE_VSA_PNEG>
18.574432

>  <PEOE_VSA_POL>
33.282932

>  <PEOE_VSA_POS>
104.64963

>  <PEOE_VSA_PPOS>
14.708499

>  <petitjean>
0.42857143

>  <petitjeanSC>
0.75

>  <Q_PC+>
0

>  <Q_PC->
0

>  <Q_RPC+>
0

>  <Q_RPC->
0

>  <Q_VSA_FHYD>
1

>  <Q_VSA_FNEG>
0

>  <Q_VSA_FPNEG>
0

>  <Q_VSA_FPOL>
0

>  <Q_VSA_FPOS>
1

>  <Q_VSA_FPPOS>
0

>  <Q_VSA_HYD>
159.98877

>  <Q_VSA_NEG>
0

>  <Q_VSA_PNEG>
0

>  <Q_VSA_POL>
0

>  <Q_VSA_POS>
159.98877

>  <Q_VSA_PPOS>
0

>  <radius>
4

>  <reactive>
0

>  <rings>
3

>  <RPC+>
0

>  <RPC->
0

>  <rsynth>
1

>  <SlogP>
2.365

>  <SlogP_VSA0>
10.999887

>  <SlogP_VSA1>
7.7454643

>  <SlogP_VSA2>
23.862217

>  <SlogP_VSA3>
0

>  <SlogP_VSA4>
3.185575

>  <SlogP_VSA5>
9.5073462

>  <SlogP_VSA6>
0

>  <SlogP_VSA7>
97.888344

>  <SlogP_VSA8>
17.643185

>  <SlogP_VSA9>
5.2434282

>  <SMR>
5.0883002

>  <SMR_VSA0>
33.369564

>  <SMR_VSA1>
10.999887

>  <SMR_VSA2>
0

>  <SMR_VSA3>
8.4290028

>  <SMR_VSA4>
7.4091749

>  <SMR_VSA5>
90.479164

>  <SMR_VSA6>
25.388649

>  <SMR_VSA7>
0

>  <TPSA>
39.439999

>  <VAdjEq>
0.64206427

>  <VAdjMa>
5

>  <VDistEq>
2.5680966

>  <VDistMa>
7.3147836

>  <vdw_area>
159.98877

>  <vdw_vol>
233.92188

>  <vsa_acc>
13.566921

>  <vsa_acid>
0

>  <vsa_base>
0

>  <vsa_don>
0

>  <vsa_hyd>
91.918068

>  <vsa_other>
50.233006

>  <vsa_pol>
13.566921

>  <Weight>
186.166

>  <weinerPath>
278

>  <weinerPol>
20

>  <zagreb>
78

$$$$