N(Cc1ccccc1)(C(Cc1ccccc1)C)C
  MOE2013           2D

 18 19  0  0  1  0  0  0  0  0999 V2000
    0.0000    0.0000    0.0000 N   0  0  3  0  0  0  0  0  0  0  0  0
    0.7480    1.3000    0.0000 C   0  0  0  0  0  0  0  0  0  0  0  0
    2.2480    1.3030    0.0000 C   0  0  0  0  0  0  0  0  0  0  0  0
    2.9960    2.6030    0.0000 C   0  0  0  0  0  0  0  0  0  0  0  0
    4.4960    2.6050    0.0000 C   0  0  0  0  0  0  0  0  0  0  0  0
    5.2480    1.3070    0.0000 C   0  0  0  0  0  0  0  0  0  0  0  0
    4.5000    0.0070    0.0000 C   0  0  0  0  0  0  0  0  0  0  0  0
    3.0000    0.0050    0.0000 C   0  0  0  0  0  0  0  0  0  0  0  0
   -1.5000   -0.0020    0.0000 C   0  0  3  0  0  0  0  0  0  0  0  0
   -2.2480   -1.3030    0.0000 C   0  0  0  0  0  0  0  0  0  0  0  0
   -3.7480   -1.3050    0.0000 C   0  0  0  0  0  0  0  0  0  0  0  0
   -4.5000   -0.0070    0.0000 C   0  0  0  0  0  0  0  0  0  0  0  0
   -6.0000   -0.0100    0.0000 C   0  0  0  0  0  0  0  0  0  0  0  0
   -6.7480   -1.3100    0.0000 C   0  0  0  0  0  0  0  0  0  0  0  0
   -5.9960   -2.6080    0.0000 C   0  0  0  0  0  0  0  0  0  0  0  0
   -4.4960   -2.6050    0.0000 C   0  0  0  0  0  0  0  0  0  0  0  0
   -2.2520    1.2950    0.0000 C   0  0  0  0  0  0  0  0  0  0  0  0
    0.7520   -1.2980    0.0000 C   0  0  0  0  0  0  0  0  0  0  0  0
  1  2  1  0  0  0  0
  1  9  1  0  0  0  0
  1 18  1  0  0  0  0
  2  3  1  0  0  0  0
  3  4  1  0  0  0  0
  3  8  2  0  0  0  0
  4  5  2  0  0  0  0
  5  6  1  0  0  0  0
  6  7  2  0  0  0  0
  7  8  1  0  0  0  0
  9 10  1  0  0  0  0
  9 17  1  0  0  0  0
 10 11  1  0  0  0  0
 11 12  1  0  0  0  0
 11 16  2  0  0  0  0
 12 13  2  0  0  0  0
 13 14  1  0  0  0  0
 14 15  2  0  0  0  0
 15 16  1  0  0  0  0
M  END
>  <Index>
126

>  <ID>
HT0253

>  <class>
0

>  <apol>
45.022652

>  <ast_fraglike>
0

>  <ast_fraglike_ext>
0

>  <ast_violation>
1

>  <ast_violation_ext>
2

>  <a_acc>
1

>  <a_acid>
0

>  <a_aro>
12

>  <a_base>
0

>  <a_count>
39

>  <a_don>
0

>  <a_donacc>
1

>  <a_heavy>
18

>  <a_hyd>
17

>  <a_IC>
44.405151

>  <a_ICM>
1.1385937

>  <a_nB>
0

>  <a_nBr>
0

>  <a_nC>
17

>  <a_nCl>
0

>  <a_nF>
0

>  <a_nH>
21

>  <a_nI>
0

>  <a_nN>
1

>  <a_nO>
0

>  <a_nP>
0

>  <a_nS>
0

>  <balabanJ>
1.6826938

>  <BCUT_PEOE_0>
-2.678133

>  <BCUT_PEOE_1>
-0.56192154

>  <BCUT_PEOE_2>
0.6202966

>  <BCUT_PEOE_3>
2.5865612

>  <BCUT_SLOGP_0>
-2.6973615

>  <BCUT_SLOGP_1>
-0.45810935

>  <BCUT_SLOGP_2>
0.72175741

>  <BCUT_SLOGP_3>
2.604033

>  <BCUT_SMR_0>
-2.3973789

>  <BCUT_SMR_1>
-0.42727593

>  <BCUT_SMR_2>
0.76191342

>  <BCUT_SMR_3>
2.8619797

>  <bpol>
24.937347

>  <b_1rotN>
5

>  <b_1rotR>
0.2631579

>  <b_ar>
12

>  <b_count>
40

>  <b_double>
0

>  <b_heavy>
19

>  <b_max1len>
5

>  <b_rotN>
5

>  <b_rotR>
0.2631579

>  <b_single>
28

>  <b_triple>
0

>  <chi0>
12.794683

>  <chi0v>
11.21228

>  <chi0v_C>
10.765066

>  <chi0_C>
12.217332

>  <chi1>
8.7540197

>  <chi1v>
6.5357127

>  <chi1v_C>
5.5140724

>  <chi1_C>
7.4350882

>  <chiral>
1

>  <chiral_u>
1

>  <density>
0.62351292

>  <diameter>
11

>  <FCharge>
0

>  <GCUT_PEOE_0>
-0.85370088

>  <GCUT_PEOE_1>
-0.35713449

>  <GCUT_PEOE_2>
0.065669179

>  <GCUT_PEOE_3>
2.5736928

>  <GCUT_SLOGP_0>
-0.92807317

>  <GCUT_SLOGP_1>
-0.2619074

>  <GCUT_SLOGP_2>
0.14707977

>  <GCUT_SLOGP_3>
2.6630492

>  <GCUT_SMR_0>
-0.52272737

>  <GCUT_SMR_1>
-0.19293799

>  <GCUT_SMR_2>
0.16948593

>  <GCUT_SMR_3>
2.8408496

>  <Kier1>
14.409972

>  <Kier2>
7.5555553

>  <Kier3>
4.8979592

>  <KierA1>
10.856484

>  <KierA2>
5.589323

>  <KierA3>
3.5745189

>  <KierFlex>
3.3711331

>  <lip_acc>
1

>  <lip_don>
0

>  <lip_druglike>
1

>  <lip_violation>
0

>  <logP(o/w)>
4.2930002

>  <logS>
-3.41291

>  <mr>
7.8257174

>  <mutagenic>
0

>  <nmol>
1

>  <opr_brigid>
12

>  <opr_leadlike>
1

>  <opr_nring>
2

>  <opr_nrot>
5

>  <opr_violation>
0

>  <PC+>
0

>  <PC->
0

>  <PEOE_PC+>
1.0521632

>  <PEOE_PC->
-1.0521632

>  <PEOE_RPC+>
0.058992721

>  <PEOE_RPC->
0.28340486

>  <PEOE_VSA+0>
63.25753

>  <PEOE_VSA+1>
42.653858

>  <PEOE_VSA+2>
0

>  <PEOE_VSA+3>
0

>  <PEOE_VSA+4>
0

>  <PEOE_VSA+5>
0

>  <PEOE_VSA+6>
0

>  <PEOE_VSA-0>
55.104759

>  <PEOE_VSA-1>
122.54904

>  <PEOE_VSA-2>
0

>  <PEOE_VSA-3>
0

>  <PEOE_VSA-4>
0

>  <PEOE_VSA-5>
0

>  <PEOE_VSA-6>
0

>  <PEOE_VSA_FHYD>
1

>  <PEOE_VSA_FNEG>
0.62650073

>  <PEOE_VSA_FPNEG>
0

>  <PEOE_VSA_FPOL>
0

>  <PEOE_VSA_FPOS>
0.37349927

>  <PEOE_VSA_FPPOS>
0

>  <PEOE_VSA_HYD>
283.56519

>  <PEOE_VSA_NEG>
177.65379

>  <PEOE_VSA_PNEG>
0

>  <PEOE_VSA_POL>
0

>  <PEOE_VSA_POS>
105.91139

>  <PEOE_VSA_PPOS>
0

>  <petitjean>
0.45454547

>  <petitjeanSC>
0.83333331

>  <Q_PC+>
0

>  <Q_PC->
0

>  <Q_RPC+>
0

>  <Q_RPC->
0

>  <Q_VSA_FHYD>
1

>  <Q_VSA_FNEG>
0

>  <Q_VSA_FPNEG>
0

>  <Q_VSA_FPOL>
0

>  <Q_VSA_FPOS>
1

>  <Q_VSA_FPPOS>
0

>  <Q_VSA_HYD>
283.56519

>  <Q_VSA_NEG>
0

>  <Q_VSA_PNEG>
0

>  <Q_VSA_POL>
0

>  <Q_VSA_POS>
283.56519

>  <Q_VSA_PPOS>
0

>  <radius>
6

>  <reactive>
0

>  <rings>
2

>  <RPC+>
0

>  <RPC->
0

>  <rsynth>
1

>  <SlogP>
4.0159702

>  <SlogP_VSA0>
0

>  <SlogP_VSA1>
3.1243138

>  <SlogP_VSA2>
3.9819686

>  <SlogP_VSA3>
0

>  <SlogP_VSA4>
6.37115

>  <SlogP_VSA5>
51.765594

>  <SlogP_VSA6>
0

>  <SlogP_VSA7>
176.43184

>  <SlogP_VSA8>
0

>  <SlogP_VSA9>
51.765594

>  <SMR>
7.7722001

>  <SMR_VSA0>
0

>  <SMR_VSA1>
3.1243138

>  <SMR_VSA2>
0

>  <SMR_VSA3>
10.353119

>  <SMR_VSA4>
0

>  <SMR_VSA5>
213.73982

>  <SMR_VSA6>
0

>  <SMR_VSA7>
66.223206

>  <TPSA>
3.24

>  <VAdjEq>
0.52150291

>  <VAdjMa>
5.2479277

>  <VDistEq>
3.2255883

>  <VDistMa>
8.0140867

>  <vdw_area>
283.56519

>  <vdw_vol>
383.89261

>  <vsa_acc>
0

>  <vsa_acid>
0

>  <vsa_base>
0

>  <vsa_don>
0

>  <vsa_hyd>
268.61749

>  <vsa_other>
0

>  <vsa_pol>
0

>  <Weight>
239.362

>  <weinerPath>
683

>  <weinerPol>
22

>  <zagreb>
86

$$$$