Oc1ccc(cc1)[C@H](O)[C@@H](O)[C@@H]1NC(=O)[C@H]2N(C[C@H](O)C2)C(=O)[C@@H](NC(=O)[C@@H](NC(=O)CCCCCCCCC(CC(CC)C)C)C[C@@H](O)[C@H](NC(=O)[C@H]2N(CC[C@@H]2O)C(=O)[C@@H](NC1=O)[C@H](O)CCN)NCCN)[C@H](O)C
  MOE2013           2D

 77 80  0  0  1  0  0  0  0  0999 V2000
    0.0000    0.0000    0.0000 O   0  0  0  0  0  0  0  0  0  0  0  0
    1.5000   -0.0010    0.0000 C   0  0  0  0  0  0  0  0  0  0  0  0
    2.2500   -1.3000    0.0000 C   0  0  0  0  0  0  0  0  0  0  0  0
    3.7500   -1.3000    0.0000 C   0  0  0  0  0  0  0  0  0  0  0  0
    4.5000   -0.0020    0.0000 C   0  0  0  0  0  0  0  0  0  0  0  0
    3.7500    1.2980    0.0000 C   0  0  0  0  0  0  0  0  0  0  0  0
    2.2500    1.2980    0.0000 C   0  0  0  0  0  0  0  0  0  0  0  0
    6.0000   -0.0020    0.0000 C   0  0  2  0  0  0  0  0  0  0  0  0
    6.7500    1.2970    0.0000 O   0  0  0  0  0  0  0  0  0  0  0  0
    6.7500   -1.3010    0.0000 C   0  0  1  0  0  0  0  0  0  0  0  0
    5.9990   -2.6000    0.0000 O   0  0  0  0  0  0  0  0  0  0  0  0
    8.2500   -1.3020    0.0000 C   0  0  2  0  0  0  0  0  0  0  0  0
    9.0570    0.0040    0.0000 N   0  0  0  0  0  0  0  0  0  0  0  0
   10.5050   -0.0320    0.0000 C   0  0  0  0  0  0  0  0  0  0  0  0
   10.9680   -1.4580    0.0000 O   0  0  0  0  0  0  0  0  0  0  0  0
   11.5640    0.7780    0.0000 C   0  0  1  0  0  0  0  0  0  0  0  0
   13.0030    0.7020    0.0000 N   0  0  0  0  0  0  0  0  0  0  0  0
   13.6020    2.0270    0.0000 C   0  0  0  0  0  0  0  0  0  0  0  0
   12.4360    3.0350    0.0000 C   0  0  2  0  0  0  0  0  0  0  0  0
   12.5410    4.5310    0.0000 O   0  0  0  0  0  0  0  0  0  0  0  0
   11.1540    2.2090    0.0000 C   0  0  0  0  0  0  0  0  0  0  0  0
   13.9530   -0.2890    0.0000 C   0  0  0  0  0  0  0  0  0  0  0  0
   15.4430   -0.1140    0.0000 O   0  0  0  0  0  0  0  0  0  0  0  0
   13.6760   -1.7960    0.0000 C   0  0  1  0  0  0  0  0  0  0  0  0
   14.8160   -2.7400    0.0000 N   0  0  0  0  0  0  0  0  0  0  0  0
   14.5750   -4.2370    0.0000 C   0  0  0  0  0  0  0  0  0  0  0  0
   13.1780   -4.7840    0.0000 O   0  0  0  0  0  0  0  0  0  0  0  0
   15.7480   -5.1570    0.0000 C   0  0  1  0  0  0  0  0  0  0  0  0
   17.0890   -4.4850    0.0000 N   0  0  0  0  0  0  0  0  0  0  0  0
   18.3410   -5.3100    0.0000 C   0  0  0  0  0  0  0  0  0  0  0  0
   18.2530   -6.8080    0.0000 O   0  0  0  0  0  0  0  0  0  0  0  0
   19.6820   -4.6380    0.0000 C   0  0  0  0  0  0  0  0  0  0  0  0
   20.9350   -5.4630    0.0000 C   0  0  0  0  0  0  0  0  0  0  0  0
   22.2760   -4.7910    0.0000 C   0  0  0  0  0  0  0  0  0  0  0  0
   23.5280   -5.6160    0.0000 C   0  0  0  0  0  0  0  0  0  0  0  0
   24.8690   -4.9430    0.0000 C   0  0  0  0  0  0  0  0  0  0  0  0
   26.1220   -5.7680    0.0000 C   0  0  0  0  0  0  0  0  0  0  0  0
   27.4630   -5.0960    0.0000 C   0  0  0  0  0  0  0  0  0  0  0  0
   28.7160   -5.9210    0.0000 C   0  0  0  0  0  0  0  0  0  0  0  0
   30.0560   -5.2490    0.0000 C   0  0  3  0  0  0  0  0  0  0  0  0
   31.3090   -6.0740    0.0000 C   0  0  0  0  0  0  0  0  0  0  0  0
   32.6500   -5.4010    0.0000 C   0  0  3  0  0  0  0  0  0  0  0  0
   33.9030   -6.2270    0.0000 C   0  0  0  0  0  0  0  0  0  0  0  0
   35.2440   -5.5540    0.0000 C   0  0  0  0  0  0  0  0  0  0  0  0
   32.7380   -3.9040    0.0000 C   0  0  0  0  0  0  0  0  0  0  0  0
   30.1450   -3.7510    0.0000 C   0  0  0  0  0  0  0  0  0  0  0  0
   15.7810   -6.5560    0.0000 C   0  0  0  0  0  0  0  0  0  0  0  0
   15.0290   -7.6750    0.0000 C   0  0  1  0  0  0  0  0  0  0  0  0
   16.0330   -8.7900    0.0000 O   0  0  0  0  0  0  0  0  0  0  0  0
   13.8300   -8.3100    0.0000 C   0  0  2  0  0  0  0  0  0  0  0  0
   12.4170   -7.8170    0.0000 N   0  0  0  0  0  0  0  0  0  0  0  0
   11.2840   -8.7510    0.0000 C   0  0  0  0  0  0  0  0  0  0  0  0
   11.7460  -10.1780    0.0000 O   0  0  0  0  0  0  0  0  0  0  0  0
    9.9340   -8.6650    0.0000 C   0  0  1  0  0  0  0  0  0  0  0  0
    8.8410   -7.7980    0.0000 N   0  0  0  0  0  0  0  0  0  0  0  0
    7.5360   -8.6000    0.0000 C   0  0  0  0  0  0  0  0  0  0  0  0
    7.9370  -10.0480    0.0000 C   0  0  0  0  0  0  0  0  0  0  0  0
    9.4390  -10.1220    0.0000 C   0  0  2  0  0  0  0  0  0  0  0  0
   10.2830  -11.3620    0.0000 O   0  0  0  0  0  0  0  0  0  0  0  0
    8.4570   -6.4930    0.0000 C   0  0  0  0  0  0  0  0  0  0  0  0
    6.9650   -6.3460    0.0000 O   0  0  0  0  0  0  0  0  0  0  0  0
    9.1360   -5.1960    0.0000 C   0  0  1  0  0  0  0  0  0  0  0  0
    8.3440   -3.9020    0.0000 N   0  0  0  0  0  0  0  0  0  0  0  0
    9.0450   -2.5910    0.0000 C   0  0  0  0  0  0  0  0  0  0  0  0
   10.5440   -2.5440    0.0000 O   0  0  0  0  0  0  0  0  0  0  0  0
    6.6900   -5.7120    0.0000 C   0  0  2  0  0  0  0  0  0  0  0  0
    5.6880   -4.5960    0.0000 O   0  0  0  0  0  0  0  0  0  0  0  0
    6.2250   -7.1380    0.0000 C   0  0  0  0  0  0  0  0  0  0  0  0
    4.7580   -7.4490    0.0000 C   0  0  0  0  0  0  0  0  0  0  0  0
    4.2920   -8.8750    0.0000 N   0  0  0  0  0  0  0  0  0  0  0  0
   13.9430   -9.8050    0.0000 N   0  0  0  0  0  0  0  0  0  0  0  0
   15.2950  -10.4550    0.0000 C   0  0  0  0  0  0  0  0  0  0  0  0
   15.4090  -11.9510    0.0000 C   0  0  0  0  0  0  0  0  0  0  0  0
   16.7610  -12.6010    0.0000 N   0  0  0  0  0  0  0  0  0  0  0  0
   15.8410   -0.5470    0.0000 C   0  0  2  0  0  0  0  0  0  0  0  0
   17.1400   -1.2970    0.0000 O   0  0  0  0  0  0  0  0  0  0  0  0
   15.8420    0.9530    0.0000 C   0  0  0  0  0  0  0  0  0  0  0  0
  1  2  1  0  0  0  0
  2  3  1  0  0  0  0
  2  7  2  0  0  0  0
  3  4  2  0  0  0  0
  4  5  1  0  0  0  0
  5  6  2  0  0  0  0
  5  8  1  0  0  0  0
  6  7  1  0  0  0  0
  8  9  1  6  0  0  0
  8 10  1  0  0  0  0
 10 11  1  6  0  0  0
 10 12  1  0  0  0  0
 12 13  1  0  0  0  0
 12 64  1  6  0  0  0
 13 14  1  0  0  0  0
 14 15  2  0  0  0  0
 16 14  1  6  0  0  0
 16 17  1  0  0  0  0
 16 21  1  0  0  0  0
 17 18  1  0  0  0  0
 17 22  1  0  0  0  0
 18 19  1  0  0  0  0
 19 20  1  1  0  0  0
 19 21  1  0  0  0  0
 22 23  2  0  0  0  0
 24 22  1  6  0  0  0
 24 25  1  0  0  0  0
 24 75  1  0  0  0  0
 25 26  1  0  0  0  0
 26 27  2  0  0  0  0
 26 28  1  0  0  0  0
 28 29  1  1  0  0  0
 28 47  1  0  0  0  0
 29 30  1  0  0  0  0
 30 31  2  0  0  0  0
 30 32  1  0  0  0  0
 32 33  1  0  0  0  0
 33 34  1  0  0  0  0
 34 35  1  0  0  0  0
 35 36  1  0  0  0  0
 36 37  1  0  0  0  0
 37 38  1  0  0  0  0
 38 39  1  0  0  0  0
 39 40  1  0  0  0  0
 40 41  1  0  0  0  0
 40 46  1  0  0  0  0
 41 42  1  0  0  0  0
 42 43  1  0  0  0  0
 42 45  1  0  0  0  0
 43 44  1  0  0  0  0
 47 48  1  0  0  0  0
 48 49  1  1  0  0  0
 48 50  1  0  0  0  0
 50 51  1  0  0  0  0
 50 71  1  1  0  0  0
 51 52  1  0  0  0  0
 52 53  2  0  0  0  0
 54 52  1  6  0  0  0
 54 55  1  0  0  0  0
 54 58  1  0  0  0  0
 55 56  1  0  0  0  0
 55 60  1  0  0  0  0
 56 57  1  0  0  0  0
 57 58  1  0  0  0  0
 58 59  1  1  0  0  0
 60 61  2  0  0  0  0
 62 60  1  6  0  0  0
 62 63  1  0  0  0  0
 62 66  1  0  0  0  0
 63 64  1  0  0  0  0
 64 65  2  0  0  0  0
 66 67  1  1  0  0  0
 66 68  1  0  0  0  0
 68 69  1  0  0  0  0
 69 70  1  0  0  0  0
 71 72  1  0  0  0  0
 72 73  1  0  0  0  0
 73 74  1  0  0  0  0
 75 76  1  1  0  0  0
 75 77  1  0  0  0  0
M  END
>  <Index>
199

>  <ID>
HT0392

>  <class>
0

>  <apol>
173.22778

>  <ast_fraglike>
0

>  <ast_fraglike_ext>
0

>  <ast_violation>
3

>  <ast_violation_ext>
5

>  <a_acc>
18

>  <a_acid>
0

>  <a_aro>
6

>  <a_base>
0

>  <a_count>
165

>  <a_don>
16

>  <a_donacc>
34

>  <a_heavy>
77

>  <a_hyd>
44

>  <a_IC>
258.76767

>  <a_ICM>
1.5682889

>  <a_nB>
0

>  <a_nBr>
0

>  <a_nC>
52

>  <a_nCl>
0

>  <a_nF>
0

>  <a_nH>
88

>  <a_nI>
0

>  <a_nN>
10

>  <a_nO>
15

>  <a_nP>
0

>  <a_nS>
0

>  <balabanJ>
1.7016989

>  <BCUT_PEOE_0>
-2.7817221

>  <BCUT_PEOE_1>
-0.54414415

>  <BCUT_PEOE_2>
0.60273987

>  <BCUT_PEOE_3>
2.7806051

>  <BCUT_SLOGP_0>
-2.9399538

>  <BCUT_SLOGP_1>
-0.5631274

>  <BCUT_SLOGP_2>
0.50357318

>  <BCUT_SLOGP_3>
2.855854

>  <BCUT_SMR_0>
-2.5268672

>  <BCUT_SMR_1>
-0.41330793

>  <BCUT_SMR_2>
0.68662095

>  <BCUT_SMR_3>
3.0172009

>  <bpol>
109.50822

>  <b_1rotN>
23

>  <b_1rotR>
0.28749999

>  <b_ar>
6

>  <b_count>
168

>  <b_double>
7

>  <b_heavy>
80

>  <b_max1len>
14

>  <b_rotN>
24

>  <b_rotR>
0.30000001

>  <b_single>
155

>  <b_triple>
0

>  <chi0>
57.094555

>  <chi0v>
44.96661

>  <chi0v_C>
33.482033

>  <chi0_C>
34.697212

>  <chi1>
36.519493

>  <chi1v>
27.33357

>  <chi1v_C>
18.125536

>  <chi1_C>
19.304464

>  <chiral>
16

>  <chiral_u>
2

>  <density>
0.75390464

>  <diameter>
31

>  <FCharge>
0

>  <GCUT_PEOE_0>
-0.8402369

>  <GCUT_PEOE_1>
-0.4106299

>  <GCUT_PEOE_2>
0.089227073

>  <GCUT_PEOE_3>
3.4146936

>  <GCUT_SLOGP_0>
-1.36353

>  <GCUT_SLOGP_1>
-0.39552894

>  <GCUT_SLOGP_2>
0.051100809

>  <GCUT_SLOGP_3>
3.3111885

>  <GCUT_SMR_0>
-0.53741223

>  <GCUT_SMR_1>
-0.24389911

>  <GCUT_SMR_2>
0.17973141

>  <GCUT_SMR_3>
3.6352067

>  <Kier1>
69.4925

>  <Kier2>
35.330578

>  <Kier3>
21.540087

>  <KierA1>
58.958492

>  <KierA2>
29.90781

>  <KierA3>
18.205706

>  <KierFlex>
22.900251

>  <lip_acc>
25

>  <lip_don>
18

>  <lip_druglike>
0

>  <lip_violation>
3

>  <logP(o/w)>
-2.0250001

>  <logS>
-8.0929098

>  <mr>
28.307632

>  <mutagenic>
0

>  <nmol>
1

>  <opr_brigid>
35

>  <opr_leadlike>
0

>  <opr_nring>
3

>  <opr_nrot>
36

>  <opr_violation>
4

>  <PC+>
0

>  <PC->
0

>  <PEOE_PC+>
9.2679157

>  <PEOE_PC->
-9.2679157

>  <PEOE_RPC+>
0.026885763

>  <PEOE_RPC->
0.042076085

>  <PEOE_VSA+0>
292.14255

>  <PEOE_VSA+1>
118.29089

>  <PEOE_VSA+2>
79.417656

>  <PEOE_VSA+3>
43.095066

>  <PEOE_VSA+4>
173.2401

>  <PEOE_VSA+5>
0

>  <PEOE_VSA+6>
0

>  <PEOE_VSA-0>
93.4636

>  <PEOE_VSA-1>
141.66203

>  <PEOE_VSA-2>
0

>  <PEOE_VSA-3>
0

>  <PEOE_VSA-4>
0

>  <PEOE_VSA-5>
95.105339

>  <PEOE_VSA-6>
76.127014

>  <PEOE_VSA_FHYD>
0.69037414

>  <PEOE_VSA_FNEG>
0.36525109

>  <PEOE_VSA_FPNEG>
0.15391061

>  <PEOE_VSA_FPOL>
0.30962583

>  <PEOE_VSA_FPOS>
0.63474894

>  <PEOE_VSA_FPPOS>
0.15571524

>  <PEOE_VSA_HYD>
768.07178

>  <PEOE_VSA_NEG>
406.358

>  <PEOE_VSA_PNEG>
171.23235

>  <PEOE_VSA_POL>
344.47244

>  <PEOE_VSA_POS>
706.18622

>  <PEOE_VSA_PPOS>
173.2401

>  <petitjean>
0.48387095

>  <petitjeanSC>
0.9375

>  <Q_PC+>
0

>  <Q_PC->
0

>  <Q_RPC+>
0

>  <Q_RPC->
0

>  <Q_VSA_FHYD>
1

>  <Q_VSA_FNEG>
0

>  <Q_VSA_FPNEG>
0

>  <Q_VSA_FPOL>
0

>  <Q_VSA_FPOS>
1

>  <Q_VSA_FPPOS>
0

>  <Q_VSA_HYD>
1112.5442

>  <Q_VSA_NEG>
0

>  <Q_VSA_PNEG>
0

>  <Q_VSA_POL>
0

>  <Q_VSA_POS>
1112.5442

>  <Q_VSA_PPOS>
0

>  <radius>
16

>  <reactive>
0

>  <rings>
4

>  <RPC+>
0

>  <RPC->
0

>  <rsynth>
1

>  <SlogP>
-3.2163999

>  <SlogP_VSA0>
376.9407

>  <SlogP_VSA1>
43.060112

>  <SlogP_VSA2>
233.29236

>  <SlogP_VSA3>
92.197891

>  <SlogP_VSA4>
12.007167

>  <SlogP_VSA5>
0

>  <SlogP_VSA6>
0

>  <SlogP_VSA7>
70.572739

>  <SlogP_VSA8>
270.62631

>  <SlogP_VSA9>
138.54749

>  <SMR>
28.02994

>  <SMR_VSA0>
167.03551

>  <SMR_VSA1>
209.33044

>  <SMR_VSA2>
116.88609

>  <SMR_VSA3>
81.154503

>  <SMR_VSA4>
65.794373

>  <SMR_VSA5>
334.73041

>  <SMR_VSA6>
129.00937

>  <SMR_VSA7>
133.30406

>  <TPSA>
412.03

>  <VAdjEq>
0.17904392

>  <VAdjMa>
7.321928

>  <VDistEq>
4.5185628

>  <VDistMa>
12.277687

>  <vdw_area>
1112.5442

>  <vdw_vol>
1450.2245

>  <vsa_acc>
94.968445

>  <vsa_acid>
0

>  <vsa_base>
0

>  <vsa_don>
28.41288

>  <vsa_hyd>
618.17529

>  <vsa_other>
101.83728

>  <vsa_pol>
273.08426

>  <Weight>
1093.3309

>  <weinerPath>
31213

>  <weinerPol>
126

>  <zagreb>
380

$$$$