S1C[C@@H]2NC(=O)N[C@@H]2[C@@H]1CCCCC(O)=O
  MOE2013           2D

 16 17  0  0  1  0  0  0  0  0999 V2000
    0.0000    0.0000    0.0000 S   0  0  0  0  0  0  0  0  0  0  0  0
   -1.4900   -0.1690    0.0000 C   0  0  0  0  0  0  0  0  0  0  0  0
   -1.7910   -1.6380    0.0000 C   0  0  2  0  0  0  0  0  0  0  0  0
   -2.8970   -2.6510    0.0000 N   0  0  0  0  0  0  0  0  0  0  0  0
   -2.2760   -4.0160    0.0000 C   0  0  0  0  0  0  0  0  0  0  0  0
   -3.0160   -5.3210    0.0000 O   0  0  0  0  0  0  0  0  0  0  0  0
   -0.7860   -3.8480    0.0000 N   0  0  0  0  0  0  0  0  0  0  0  0
   -0.4860   -2.3780    0.0000 C   0  0  2  0  0  0  0  0  0  0  0  0
    0.6210   -1.3650    0.0000 C   0  0  2  0  0  0  0  0  0  0  0  0
    2.0910   -1.6660    0.0000 C   0  0  0  0  0  0  0  0  0  0  0  0
    3.0850   -0.5430    0.0000 C   0  0  0  0  0  0  0  0  0  0  0  0
    4.5550   -0.8430    0.0000 C   0  0  0  0  0  0  0  0  0  0  0  0
    5.5500    0.2800    0.0000 C   0  0  0  0  0  0  0  0  0  0  0  0
    7.0200   -0.0200    0.0000 C   0  0  0  0  0  0  0  0  0  0  0  0
    8.0140    1.1020    0.0000 O   0  0  0  0  0  0  0  0  0  0  0  0
    7.4940   -1.4430    0.0000 O   0  0  0  0  0  0  0  0  0  0  0  0
  1  2  1  0  0  0  0
  1  9  1  0  0  0  0
  3  2  1  1  0  0  0
  3  4  1  0  0  0  0
  3  8  1  0  0  0  0
  4  5  1  0  0  0  0
  5  6  2  0  0  0  0
  5  7  1  0  0  0  0
  8  7  1  1  0  0  0
  8  9  1  0  0  0  0
  9 10  1  1  0  0  0
 10 11  1  0  0  0  0
 11 12  1  0  0  0  0
 12 13  1  0  0  0  0
 13 14  1  0  0  0  0
 14 15  1  0  0  0  0
 14 16  2  0  0  0  0
M  END
>  <Index>
147

>  <ID>
HT0288

>  <class>
0

>  <apol>
35.774689

>  <ast_fraglike>
0

>  <ast_fraglike_ext>
0

>  <ast_violation>
1

>  <ast_violation_ext>
2

>  <a_acc>
3

>  <a_acid>
0

>  <a_aro>
0

>  <a_base>
0

>  <a_count>
32

>  <a_don>
4

>  <a_donacc>
7

>  <a_heavy>
16

>  <a_hyd>
9

>  <a_IC>
56.025833

>  <a_ICM>
1.7508073

>  <a_nB>
0

>  <a_nBr>
0

>  <a_nC>
10

>  <a_nCl>
0

>  <a_nF>
0

>  <a_nH>
16

>  <a_nI>
0

>  <a_nN>
2

>  <a_nO>
3

>  <a_nP>
0

>  <a_nS>
1

>  <balabanJ>
1.6681775

>  <BCUT_PEOE_0>
-2.6552372

>  <BCUT_PEOE_1>
-0.56723887

>  <BCUT_PEOE_2>
0.47724497

>  <BCUT_PEOE_3>
2.7993562

>  <BCUT_SLOGP_0>
-2.7453942

>  <BCUT_SLOGP_1>
-0.50611699

>  <BCUT_SLOGP_2>
0.58416593

>  <BCUT_SLOGP_3>
2.7743397

>  <BCUT_SMR_0>
-2.4077229

>  <BCUT_SMR_1>
-0.37608021

>  <BCUT_SMR_2>
0.57578272

>  <BCUT_SMR_3>
3.0907273

>  <bpol>
23.007313

>  <b_1rotN>
5

>  <b_1rotR>
0.29411766

>  <b_ar>
0

>  <b_count>
33

>  <b_double>
2

>  <b_heavy>
17

>  <b_max1len>
6

>  <b_rotN>
5

>  <b_rotR>
0.29411766

>  <b_single>
31

>  <b_triple>
0

>  <chi0>
11.543606

>  <chi0v>
9.7560396

>  <chi0v_C>
6.2675848

>  <chi0_C>
6.4222851

>  <chi1>
7.6647038

>  <chi1v>
6.6190543

>  <chi1v_C>
3.3367167

>  <chi1_C>
3.3914115

>  <chiral>
3

>  <chiral_u>
0

>  <density>
0.82474017

>  <diameter>
10

>  <FCharge>
0

>  <GCUT_PEOE_0>
-0.81797802

>  <GCUT_PEOE_1>
-0.42959669

>  <GCUT_PEOE_2>
0.085881397

>  <GCUT_PEOE_3>
2.6226852

>  <GCUT_SLOGP_0>
-1.1968493

>  <GCUT_SLOGP_1>
-0.35970429

>  <GCUT_SLOGP_2>
0.18659322

>  <GCUT_SLOGP_3>
2.6259639

>  <GCUT_SMR_0>
-0.52727962

>  <GCUT_SMR_1>
-0.23450725

>  <GCUT_SMR_2>
0.18808737

>  <GCUT_SMR_3>
2.8814197

>  <Kier1>
12.456747

>  <Kier2>
5.5576558

>  <Kier3>
3.25

>  <KierA1>
11.413912

>  <KierA2>
5.0608687

>  <KierA3>
2.9457302

>  <KierFlex>
3.6102693

>  <lip_acc>
5

>  <lip_don>
3

>  <lip_druglike>
1

>  <lip_violation>
0

>  <logP(o/w)>
0.31900001

>  <logS>
-1.37696

>  <mr>
6.1724005

>  <mutagenic>
0

>  <nmol>
1

>  <opr_brigid>
9

>  <opr_leadlike>
1

>  <opr_nring>
2

>  <opr_nrot>
5

>  <opr_violation>
0

>  <PC+>
0

>  <PC->
0

>  <PEOE_PC+>
1.7969966

>  <PEOE_PC->
-1.7969966

>  <PEOE_RPC+>
0.17628632

>  <PEOE_RPC->
0.18514922

>  <PEOE_VSA+0>
66.928947

>  <PEOE_VSA+1>
14.822693

>  <PEOE_VSA+2>
0

>  <PEOE_VSA+3>
17.238026

>  <PEOE_VSA+4>
10.324173

>  <PEOE_VSA+5>
14.708499

>  <PEOE_VSA+6>
17.440542

>  <PEOE_VSA-0>
17.402626

>  <PEOE_VSA-1>
8.701313

>  <PEOE_VSA-2>
0

>  <PEOE_VSA-3>
19.760618

>  <PEOE_VSA-4>
13.566921

>  <PEOE_VSA-5>
13.566921

>  <PEOE_VSA-6>
8.0413227

>  <PEOE_VSA_FHYD>
0.65102261

>  <PEOE_VSA_FNEG>
0.36421922

>  <PEOE_VSA_FPNEG>
0.15808877

>  <PEOE_VSA_FPOL>
0.34897739

>  <PEOE_VSA_FPOS>
0.63578081

>  <PEOE_VSA_FPPOS>
0.19088861

>  <PEOE_VSA_HYD>
144.85422

>  <PEOE_VSA_NEG>
81.039719

>  <PEOE_VSA_PNEG>
35.175163

>  <PEOE_VSA_POL>
77.648376

>  <PEOE_VSA_POS>
141.46288

>  <PEOE_VSA_PPOS>
42.473213

>  <petitjean>
0.5

>  <petitjeanSC>
1

>  <Q_PC+>
0

>  <Q_PC->
0

>  <Q_RPC+>
0

>  <Q_RPC->
0

>  <Q_VSA_FHYD>
1

>  <Q_VSA_FNEG>
0

>  <Q_VSA_FPNEG>
0

>  <Q_VSA_FPOL>
0

>  <Q_VSA_FPOS>
1

>  <Q_VSA_FPPOS>
0

>  <Q_VSA_HYD>
222.50259

>  <Q_VSA_NEG>
0

>  <Q_VSA_PNEG>
0

>  <Q_VSA_POL>
0

>  <Q_VSA_POS>
222.50259

>  <Q_VSA_PPOS>
0

>  <radius>
5

>  <reactive>
0

>  <rings>
2

>  <RPC+>
0

>  <RPC->
0

>  <rsynth>
1

>  <SlogP>
0.79680002

>  <SlogP_VSA0>
36.0215

>  <SlogP_VSA1>
12.57542

>  <SlogP_VSA2>
34.602108

>  <SlogP_VSA3>
42.61879

>  <SlogP_VSA4>
0

>  <SlogP_VSA5>
0

>  <SlogP_VSA6>
0

>  <SlogP_VSA7>
0

>  <SlogP_VSA8>
75.473625

>  <SlogP_VSA9>
56.081757

>  <SMR>
6.15942

>  <SMR_VSA0>
47.724434

>  <SMR_VSA1>
0

>  <SMR_VSA2>
61.406727

>  <SMR_VSA3>
10.739892

>  <SMR_VSA4>
0

>  <SMR_VSA5>
75.473625

>  <SMR_VSA6>
29.808985

>  <SMR_VSA7>
32.21954

>  <TPSA>
78.43

>  <VAdjEq>
0.56510133

>  <VAdjMa>
5.0874629

>  <VDistEq>
3.1278281

>  <VDistMa>
7.6465812

>  <vdw_area>
222.50259

>  <vdw_vol>
296.2327

>  <vsa_acc>
13.566921

>  <vsa_acid>
0

>  <vsa_base>
0

>  <vsa_don>
11.365152

>  <vsa_hyd>
118.36285

>  <vsa_other>
32.14904

>  <vsa_pol>
52.065914

>  <Weight>
244.315

>  <weinerPath>
500

>  <weinerPol>
18

>  <zagreb>
80

$$$$