O=C(N[C@H](C(=O)N[C@@H](C(C)(C)C)C(=O)N1C[C@H]2[C@H](CCC2)[C@H]1C(=O)N[C@H](C(=O)C(=O)NC1CC1)CCC)C1CCCCC1)c1nccnc1
  MOE2013           2D

 49 53  0  0  1  0  0  0  0  0999 V2000
    0.0000    0.0000    0.0000 O   0  0  0  0  0  0  0  0  0  0  0  0
    1.5000    0.0000    0.0000 C   0  0  0  0  0  0  0  0  0  0  0  0
    2.2500   -1.2990    0.0000 N   0  0  0  0  0  0  0  0  0  0  0  0
    1.5010   -2.5980    0.0000 C   0  0  2  0  0  0  0  0  0  0  0  0
    2.2510   -3.8970    0.0000 C   0  0  0  0  0  0  0  0  0  0  0  0
    1.5010   -5.1960    0.0000 O   0  0  0  0  0  0  0  0  0  0  0  0
    3.7510   -3.8960    0.0000 N   0  0  0  0  0  0  0  0  0  0  0  0
    4.5010   -5.1950    0.0000 C   0  0  1  0  0  0  0  0  0  0  0  0
    3.7510   -6.4940    0.0000 C   0  0  0  0  0  0  0  0  0  0  0  0
    2.4520   -5.7450    0.0000 C   0  0  0  0  0  0  0  0  0  0  0  0
    5.0510   -7.2440    0.0000 C   0  0  0  0  0  0  0  0  0  0  0  0
    3.0020   -7.7940    0.0000 C   0  0  0  0  0  0  0  0  0  0  0  0
    6.0010   -5.1950    0.0000 C   0  0  0  0  0  0  0  0  0  0  0  0
    6.7510   -3.8960    0.0000 O   0  0  0  0  0  0  0  0  0  0  0  0
    6.7510   -6.4940    0.0000 N   0  0  0  0  0  0  0  0  0  0  0  0
    6.1420   -7.8640    0.0000 C   0  0  0  0  0  0  0  0  0  0  0  0
    7.2570   -8.8680    0.0000 C   0  0  1  0  0  0  0  0  0  0  0  0
    8.5560   -8.1170    0.0000 C   0  0  2  0  0  0  0  0  0  0  0  0
    9.6700   -9.1210    0.0000 C   0  0  0  0  0  0  0  0  0  0  0  0
    9.0610  -10.4910    0.0000 C   0  0  0  0  0  0  0  0  0  0  0  0
    7.5690  -10.3350    0.0000 C   0  0  0  0  0  0  0  0  0  0  0  0
    8.2430   -6.6500    0.0000 C   0  0  1  0  0  0  0  0  0  0  0  0
    9.2470   -5.5350    0.0000 C   0  0  0  0  0  0  0  0  0  0  0  0
    8.7830   -4.1090    0.0000 O   0  0  0  0  0  0  0  0  0  0  0  0
   10.7140   -5.8470    0.0000 N   0  0  0  0  0  0  0  0  0  0  0  0
   11.7170   -4.7320    0.0000 C   0  0  2  0  0  0  0  0  0  0  0  0
   13.1850   -5.0430    0.0000 C   0  0  0  0  0  0  0  0  0  0  0  0
   14.1880   -3.9280    0.0000 O   0  0  0  0  0  0  0  0  0  0  0  0
   13.6490   -6.4700    0.0000 C   0  0  0  0  0  0  0  0  0  0  0  0
   12.6450   -7.5850    0.0000 O   0  0  0  0  0  0  0  0  0  0  0  0
   15.1160   -6.7810    0.0000 N   0  0  0  0  0  0  0  0  0  0  0  0
   15.5800   -8.2080    0.0000 C   0  0  0  0  0  0  0  0  0  0  0  0
   15.2680   -9.6750    0.0000 C   0  0  0  0  0  0  0  0  0  0  0  0
   16.6950   -9.2110    0.0000 C   0  0  0  0  0  0  0  0  0  0  0  0
   11.2540   -3.3050    0.0000 C   0  0  0  0  0  0  0  0  0  0  0  0
   12.2570   -2.1900    0.0000 C   0  0  0  0  0  0  0  0  0  0  0  0
   11.7930   -0.7640    0.0000 C   0  0  0  0  0  0  0  0  0  0  0  0
    0.0010   -2.5980    0.0000 C   0  0  0  0  0  0  0  0  0  0  0  0
   -0.7490   -3.8970    0.0000 C   0  0  0  0  0  0  0  0  0  0  0  0
   -2.2490   -3.8980    0.0000 C   0  0  0  0  0  0  0  0  0  0  0  0
   -2.9990   -2.5990    0.0000 C   0  0  0  0  0  0  0  0  0  0  0  0
   -2.2500   -1.3000    0.0000 C   0  0  0  0  0  0  0  0  0  0  0  0
   -0.7500   -1.2990    0.0000 C   0  0  0  0  0  0  0  0  0  0  0  0
    2.2500    1.3000    0.0000 C   0  0  0  0  0  0  0  0  0  0  0  0
    3.7500    1.3000    0.0000 N   0  0  0  0  0  0  0  0  0  0  0  0
    4.4990    2.5990    0.0000 C   0  0  0  0  0  0  0  0  0  0  0  0
    3.7490    3.8980    0.0000 C   0  0  0  0  0  0  0  0  0  0  0  0
    2.2490    3.8980    0.0000 N   0  0  0  0  0  0  0  0  0  0  0  0
    1.4990    2.5980    0.0000 C   0  0  0  0  0  0  0  0  0  0  0  0
  1  2  2  0  0  0  0
  2  3  1  0  0  0  0
  2 44  1  0  0  0  0
  4  3  1  6  0  0  0
  4  5  1  0  0  0  0
  4 38  1  0  0  0  0
  5  6  2  0  0  0  0
  5  7  1  0  0  0  0
  8  7  1  6  0  0  0
  8  9  1  0  0  0  0
  8 13  1  0  0  0  0
  9 10  1  0  0  0  0
  9 11  1  0  0  0  0
  9 12  1  0  0  0  0
 13 14  2  0  0  0  0
 13 15  1  0  0  0  0
 15 16  1  0  0  0  0
 15 22  1  0  0  0  0
 17 16  1  1  0  0  0
 17 18  1  0  0  0  0
 17 21  1  0  0  0  0
 18 19  1  1  0  0  0
 18 22  1  0  0  0  0
 19 20  1  0  0  0  0
 20 21  1  0  0  0  0
 22 23  1  6  0  0  0
 23 24  2  0  0  0  0
 23 25  1  0  0  0  0
 26 25  1  1  0  0  0
 26 27  1  0  0  0  0
 26 35  1  0  0  0  0
 27 28  2  0  0  0  0
 27 29  1  0  0  0  0
 29 30  2  0  0  0  0
 29 31  1  0  0  0  0
 31 32  1  0  0  0  0
 32 33  1  0  0  0  0
 32 34  1  0  0  0  0
 33 34  1  0  0  0  0
 35 36  1  0  0  0  0
 36 37  1  0  0  0  0
 38 39  1  0  0  0  0
 38 43  1  0  0  0  0
 39 40  1  0  0  0  0
 40 41  1  0  0  0  0
 41 42  1  0  0  0  0
 42 43  1  0  0  0  0
 44 45  2  0  0  0  0
 44 49  1  0  0  0  0
 45 46  1  0  0  0  0
 46 47  2  0  0  0  0
 47 48  1  0  0  0  0
 48 49  2  0  0  0  0
M  END
>  <Index>
1036

>  <ID>
HT1990

>  <class>
0

>  <apol>
111.21203

>  <ast_fraglike>
0

>  <ast_fraglike_ext>
0

>  <ast_violation>
3

>  <ast_violation_ext>
5

>  <a_acc>
8

>  <a_acid>
0

>  <a_aro>
6

>  <a_base>
0

>  <a_count>
102

>  <a_don>
4

>  <a_donacc>
12

>  <a_heavy>
49

>  <a_hyd>
30

>  <a_IC>
155.72903

>  <a_ICM>
1.5267553

>  <a_nB>
0

>  <a_nBr>
0

>  <a_nC>
36

>  <a_nCl>
0

>  <a_nF>
0

>  <a_nH>
53

>  <a_nI>
0

>  <a_nN>
7

>  <a_nO>
6

>  <a_nP>
0

>  <a_nS>
0

>  <balabanJ>
1.3214484

>  <BCUT_PEOE_0>
-2.8082855

>  <BCUT_PEOE_1>
-0.48389396

>  <BCUT_PEOE_2>
0.5284918

>  <BCUT_PEOE_3>
2.8827822

>  <BCUT_SLOGP_0>
-2.8737085

>  <BCUT_SLOGP_1>
-0.45119867

>  <BCUT_SLOGP_2>
0.53958476

>  <BCUT_SLOGP_3>
2.9037693

>  <BCUT_SMR_0>
-2.5588915

>  <BCUT_SMR_1>
-0.35276929

>  <BCUT_SMR_2>
0.62643331

>  <BCUT_SMR_3>
3.1320515

>  <bpol>
70.947968

>  <b_1rotN>
14

>  <b_1rotR>
0.26415095

>  <b_ar>
6

>  <b_count>
106

>  <b_double>
6

>  <b_heavy>
53

>  <b_max1len>
6

>  <b_rotN>
19

>  <b_rotR>
0.35849056

>  <b_single>
94

>  <b_triple>
0

>  <chi0>
35.293953

>  <chi0v>
29.334372

>  <chi0v_C>
23.543242

>  <chi0_C>
24.473963

>  <chi1>
23.383268

>  <chi1v>
18.214159

>  <chi1v_C>
13.038477

>  <chi1_C>
13.670016

>  <chiral>
6

>  <chiral_u>
0

>  <density>
0.7334072

>  <diameter>
20

>  <FCharge>
0

>  <GCUT_PEOE_0>
-0.83794141

>  <GCUT_PEOE_1>
-0.40471783

>  <GCUT_PEOE_2>
0.062384263

>  <GCUT_PEOE_3>
3.2798359

>  <GCUT_SLOGP_0>
-1.1682996

>  <GCUT_SLOGP_1>
-0.33689484

>  <GCUT_SLOGP_2>
0.072317123

>  <GCUT_SLOGP_3>
3.2443218

>  <GCUT_SMR_0>
-0.5379746

>  <GCUT_SMR_1>
-0.22503474

>  <GCUT_SMR_2>
0.13890216

>  <GCUT_SMR_3>
3.5067363

>  <Kier1>
40.190815

>  <Kier2>
18.35734

>  <Kier3>
10.1568

>  <KierA1>
32.054501

>  <KierA2>
14.568473

>  <KierA3>
8.0322247

>  <KierFlex>
9.5303087

>  <lip_acc>
13

>  <lip_don>
4

>  <lip_druglike>
0

>  <lip_violation>
2

>  <logP(o/w)>
2.74353

>  <logS>
-6.1558599

>  <mr>
18.515982

>  <mutagenic>
0

>  <nmol>
1

>  <opr_brigid>
24

>  <opr_leadlike>
0

>  <opr_nring>
5

>  <opr_nrot>
16

>  <opr_violation>
4

>  <PC+>
0

>  <PC->
0

>  <PEOE_PC+>
4.6625371

>  <PEOE_PC->
-4.6625371

>  <PEOE_RPC+>
0.062158797

>  <PEOE_RPC->
0.074391104

>  <PEOE_VSA+0>
224.71094

>  <PEOE_VSA+1>
54.014965

>  <PEOE_VSA+2>
16.137432

>  <PEOE_VSA+3>
34.476051

>  <PEOE_VSA+4>
47.307114

>  <PEOE_VSA+5>
25.899061

>  <PEOE_VSA+6>
0

>  <PEOE_VSA-0>
60.909191

>  <PEOE_VSA-1>
118.49728

>  <PEOE_VSA-2>
0

>  <PEOE_VSA-3>
0

>  <PEOE_VSA-4>
5.6825762

>  <PEOE_VSA-5>
87.084099

>  <PEOE_VSA-6>
0.54756403

>  <PEOE_VSA_FHYD>
0.75340039

>  <PEOE_VSA_FNEG>
0.40387136

>  <PEOE_VSA_FPNEG>
0.13818881

>  <PEOE_VSA_FPOL>
0.24659963

>  <PEOE_VSA_FPOS>
0.59612864

>  <PEOE_VSA_FPPOS>
0.10841083

>  <PEOE_VSA_HYD>
508.74585

>  <PEOE_VSA_NEG>
272.7207

>  <PEOE_VSA_PNEG>
93.31424

>  <PEOE_VSA_POL>
166.52042

>  <PEOE_VSA_POS>
402.54556

>  <PEOE_VSA_PPOS>
73.206177

>  <petitjean>
0.5

>  <petitjeanSC>
1

>  <Q_PC+>
0

>  <Q_PC->
0

>  <Q_RPC+>
0

>  <Q_RPC->
0

>  <Q_VSA_FHYD>
1

>  <Q_VSA_FNEG>
0

>  <Q_VSA_FPNEG>
0

>  <Q_VSA_FPOL>
0

>  <Q_VSA_FPOS>
1

>  <Q_VSA_FPPOS>
0

>  <Q_VSA_HYD>
675.2663

>  <Q_VSA_NEG>
0

>  <Q_VSA_PNEG>
0

>  <Q_VSA_POL>
0

>  <Q_VSA_POS>
675.2663

>  <Q_VSA_PPOS>
0

>  <radius>
10

>  <reactive>
0

>  <rings>
5

>  <RPC+>
0

>  <RPC->
0

>  <rsynth>
1

>  <SlogP>
2.4459

>  <SlogP_VSA0>
72.042999

>  <SlogP_VSA1>
68.676903

>  <SlogP_VSA2>
139.22093

>  <SlogP_VSA3>
18.439579

>  <SlogP_VSA4>
39.851353

>  <SlogP_VSA5>
0

>  <SlogP_VSA6>
0

>  <SlogP_VSA7>
51.64307

>  <SlogP_VSA8>
226.42087

>  <SlogP_VSA9>
133.30406

>  <SMR>
18.058929

>  <SMR_VSA0>
143.17329

>  <SMR_VSA1>
36.695374

>  <SMR_VSA2>
85.275391

>  <SMR_VSA3>
22.666592

>  <SMR_VSA4>
0

>  <SMR_VSA5>
278.06393

>  <SMR_VSA6>
50.421108

>  <SMR_VSA7>
133.30406

>  <TPSA>
179.56

>  <VAdjEq>
0.26099879

>  <VAdjMa>
6.7279205

>  <VDistEq>
4.0412493

>  <VDistMa>
10.975474

>  <vdw_area>
675.2663

>  <vdw_vol>
926.99249

>  <vsa_acc>
92.766678

>  <vsa_acid>
0

>  <vsa_base>
0

>  <vsa_don>
22.730305

>  <vsa_hyd>
435.35669

>  <vsa_other>
73.206177

>  <vsa_pol>
115.49698

>  <Weight>
679.86298

>  <weinerPath>
9270

>  <weinerPol>
79

>  <zagreb>
258

$$$$