O([N+](=O)[O-])CC(CO[N+](=O)[O-])(CO[N+](=O)[O-])CO[N+](=O)[O-]
  MOE2013           2D

 21 20  0  0  0  0  0  0  0  0999 V2000
    0.0000    0.0000    0.0000 O   0  0  0  0  0  0  0  0  0  0  0  0
    1.3040    0.7410    0.0000 N   0  3  0  0  0  0  0  0  0  0  0  0
    1.3150    2.2410    0.0000 O   0  0  0  0  0  0  0  0  0  0  0  0
    2.5980   -0.0180    0.0000 O   0  5  0  0  0  0  0  0  0  0  0  0
   -0.0100   -1.5000    0.0000 C   0  0  0  0  0  0  0  0  0  0  0  0
   -1.3150   -2.2410    0.0000 C   0  0  0  0  0  0  0  0  0  0  0  0
   -2.6190   -2.9820    0.0000 C   0  0  0  0  0  0  0  0  0  0  0  0
   -2.6290   -4.4820    0.0000 O   0  0  0  0  0  0  0  0  0  0  0  0
   -3.9340   -5.2230    0.0000 N   0  3  0  0  0  0  0  0  0  0  0  0
   -3.9440   -6.7230    0.0000 O   0  0  0  0  0  0  0  0  0  0  0  0
   -5.2270   -4.4640    0.0000 O   0  5  0  0  0  0  0  0  0  0  0  0
   -2.0560   -0.9370    0.0000 C   0  0  0  0  0  0  0  0  0  0  0  0
   -3.5560   -0.9260    0.0000 O   0  0  0  0  0  0  0  0  0  0  0  0
   -4.2960    0.3780    0.0000 N   0  3  0  0  0  0  0  0  0  0  0  0
   -5.7960    0.3890    0.0000 O   0  0  0  0  0  0  0  0  0  0  0  0
   -3.5370    1.6720    0.0000 O   0  5  0  0  0  0  0  0  0  0  0  0
   -0.5740   -3.5450    0.0000 C   0  0  0  0  0  0  0  0  0  0  0  0
    0.9260   -3.5560    0.0000 O   0  0  0  0  0  0  0  0  0  0  0  0
    1.6670   -4.8600    0.0000 N   0  3  0  0  0  0  0  0  0  0  0  0
    0.9080   -6.1540    0.0000 O   0  0  0  0  0  0  0  0  0  0  0  0
    3.1670   -4.8700    0.0000 O   0  5  0  0  0  0  0  0  0  0  0  0
  1  2  1  0  0  0  0
  1  5  1  0  0  0  0
  2  3  2  0  0  0  0
  2  4  1  0  0  0  0
  5  6  1  0  0  0  0
  6  7  1  0  0  0  0
  6 12  1  0  0  0  0
  6 17  1  0  0  0  0
  7  8  1  0  0  0  0
  8  9  1  0  0  0  0
  9 10  2  0  0  0  0
  9 11  1  0  0  0  0
 12 13  1  0  0  0  0
 13 14  1  0  0  0  0
 14 15  2  0  0  0  0
 14 16  1  0  0  0  0
 17 18  1  0  0  0  0
 18 19  1  0  0  0  0
 19 20  2  0  0  0  0
 19 21  1  0  0  0  0
M  CHG  1   2   1
M  CHG  1   4  -1
M  CHG  1   9   1
M  CHG  1  11  -1
M  CHG  1  14   1
M  CHG  1  16  -1
M  CHG  1  19   1
M  CHG  1  21  -1
M  END
>  <Index>
1333

>  <ID>
HT3443

>  <class>
0

>  <apol>
28.158344

>  <ast_fraglike>
0

>  <ast_fraglike_ext>
0

>  <ast_violation>
1

>  <ast_violation_ext>
2

>  <a_acc>
0

>  <a_acid>
0

>  <a_aro>
0

>  <a_base>
0

>  <a_count>
29

>  <a_don>
0

>  <a_donacc>
0

>  <a_heavy>
21

>  <a_hyd>
9

>  <a_IC>
54.252258

>  <a_ICM>
1.8707675

>  <a_nB>
0

>  <a_nBr>
0

>  <a_nC>
5

>  <a_nCl>
0

>  <a_nF>
0

>  <a_nH>
8

>  <a_nI>
0

>  <a_nN>
4

>  <a_nO>
12

>  <a_nP>
0

>  <a_nS>
0

>  <balabanJ>
4.8620753

>  <BCUT_PEOE_0>
-2.6543908

>  <BCUT_PEOE_1>
-0.11930891

>  <BCUT_PEOE_2>
0.043292899

>  <BCUT_PEOE_3>
2.7196412

>  <BCUT_SLOGP_0>
-2.7841763

>  <BCUT_SLOGP_1>
0.006748653

>  <BCUT_SLOGP_2>
0.123

>  <BCUT_SLOGP_3>
2.5944815

>  <BCUT_SMR_0>
-2.4647994

>  <BCUT_SMR_1>
0.1057

>  <BCUT_SMR_2>
0.33669999

>  <BCUT_SMR_3>
2.9104726

>  <bpol>
16.153656

>  <b_1rotN>
12

>  <b_1rotR>
0.60000002

>  <b_ar>
0

>  <b_count>
28

>  <b_double>
4

>  <b_heavy>
20

>  <b_max1len>
4

>  <b_rotN>
12

>  <b_rotR>
0.60000002

>  <b_single>
24

>  <b_triple>
0

>  <chi0>
16.466255

>  <chi0v>
10.016261

>  <chi0v_C>
3.3284271

>  <chi0_C>
3.3284271

>  <chi1>
9.6660089

>  <chi1v>
4.7598042

>  <chi1v_C>
1.4142135

>  <chi1_C>
1.4142135

>  <chiral>
0

>  <chiral_u>
0

>  <density>
1.1718458

>  <diameter>
8

>  <FCharge>
0

>  <GCUT_PEOE_0>
-0.73041779

>  <GCUT_PEOE_1>
-0.30681986

>  <GCUT_PEOE_2>
-0.1167071

>  <GCUT_PEOE_3>
2.4644818

>  <GCUT_SLOGP_0>
-0.8751114

>  <GCUT_SLOGP_1>
-0.21854919

>  <GCUT_SLOGP_2>
-0.037

>  <GCUT_SLOGP_3>
2.3676515

>  <GCUT_SMR_0>
-0.54907036

>  <GCUT_SMR_1>
-0.054299999

>  <GCUT_SMR_2>
0.1767

>  <GCUT_SMR_3>
2.6327231

>  <Kier1>
21

>  <Kier2>
10.680473

>  <Kier3>
11.25

>  <KierA1>
17.059776

>  <KierA2>
8.5801792

>  <KierA3>
8.9604549

>  <KierFlex>
6.9702826

>  <lip_acc>
16

>  <lip_don>
0

>  <lip_druglike>
1

>  <lip_violation>
1

>  <logP(o/w)>
0.61900002

>  <logS>
-3.1153901

>  <mr>
5.1169848

>  <mutagenic>
0

>  <nmol>
1

>  <opr_brigid>
0

>  <opr_leadlike>
0

>  <opr_nring>
0

>  <opr_nrot>
12

>  <opr_violation>
2

>  <PC+>
0

>  <PC->
0

>  <PEOE_PC+>
1.6085715

>  <PEOE_PC->
-1.6085715

>  <PEOE_RPC+>
0.15147977

>  <PEOE_RPC->
0.10165856

>  <PEOE_VSA+0>
34.123089

>  <PEOE_VSA+1>
59.805172

>  <PEOE_VSA+2>
0

>  <PEOE_VSA+3>
0

>  <PEOE_VSA+4>
36.922878

>  <PEOE_VSA+5>
0

>  <PEOE_VSA+6>
0

>  <PEOE_VSA-0>
0

>  <PEOE_VSA-1>
0

>  <PEOE_VSA-2>
135.7242

>  <PEOE_VSA-3>
23.609438

>  <PEOE_VSA-4>
0

>  <PEOE_VSA-5>
0

>  <PEOE_VSA-6>
0

>  <PEOE_VSA_FHYD>
0.87276077

>  <PEOE_VSA_FNEG>
0.5490765

>  <PEOE_VSA_FPNEG>
0

>  <PEOE_VSA_FPOL>
0.1272392

>  <PEOE_VSA_FPOS>
0.45092353

>  <PEOE_VSA_FPPOS>
0.1272392

>  <PEOE_VSA_HYD>
253.26189

>  <PEOE_VSA_NEG>
159.33363

>  <PEOE_VSA_PNEG>
0

>  <PEOE_VSA_POL>
36.922878

>  <PEOE_VSA_POS>
130.85114

>  <PEOE_VSA_PPOS>
36.922878

>  <petitjean>
0.5

>  <petitjeanSC>
1

>  <Q_PC+>
0

>  <Q_PC->
0

>  <Q_RPC+>
0

>  <Q_RPC->
0

>  <Q_VSA_FHYD>
1

>  <Q_VSA_FNEG>
0

>  <Q_VSA_FPNEG>
0

>  <Q_VSA_FPOL>
0

>  <Q_VSA_FPOS>
1

>  <Q_VSA_FPPOS>
0

>  <Q_VSA_HYD>
290.18478

>  <Q_VSA_NEG>
0

>  <Q_VSA_PNEG>
0

>  <Q_VSA_POL>
0

>  <Q_VSA_POS>
290.18478

>  <Q_VSA_PPOS>
0

>  <radius>
4

>  <reactive>
1

>  <rings>
0

>  <RPC+>
0

>  <RPC->
0

>  <rsynth>
1

>  <SlogP>
-1.194

>  <SlogP_VSA0>
0

>  <SlogP_VSA1>
38.799793

>  <SlogP_VSA2>
44.875053

>  <SlogP_VSA3>
287.44507

>  <SlogP_VSA4>
0

>  <SlogP_VSA5>
0

>  <SlogP_VSA6>
0

>  <SlogP_VSA7>
0

>  <SlogP_VSA8>
0

>  <SlogP_VSA9>
0

>  <SMR>
5.4218602

>  <SMR_VSA0>
83.67485

>  <SMR_VSA1>
0

>  <SMR_VSA2>
203.74004

>  <SMR_VSA3>
0

>  <SMR_VSA4>
0

>  <SMR_VSA5>
0

>  <SMR_VSA6>
83.705032

>  <SMR_VSA7>
0

>  <TPSA>
220.2

>  <VAdjEq>
0.43881181

>  <VAdjMa>
5.321928

>  <VDistEq>
2.9794705

>  <VDistMa>
8.537672

>  <vdw_area>
290.18478

>  <vdw_vol>
269.77524

>  <vsa_acc>
0

>  <vsa_acid>
0

>  <vsa_base>
0

>  <vsa_don>
0

>  <vsa_hyd>
125.15678

>  <vsa_other>
159.33363

>  <vsa_pol>
0

>  <Weight>
316.13498

>  <weinerPath>
968

>  <weinerPol>
24

>  <zagreb>
92

$$$$