OC=1[C@]2(O)[C@@H](C[C@H]3C(=C2O)C(=O)c2c(cccc2O)[C@]3(O)C)[C@H](N(C)C)C(=O)C=1C(=O)N
  MOE2013           2D

 32 35  0  0  1  0  0  0  0  0999 V2000
    0.0000    0.0000    0.0000 O   0  0  0  0  0  0  0  0  0  0  0  0
   -0.7480    1.3000    0.0000 C   0  0  0  0  0  0  0  0  0  0  0  0
    0.0050    2.5980    0.0000 C   0  0  2  0  0  0  0  0  0  0  0  0
    0.7520    1.2980    0.0000 O   0  0  0  0  0  0  0  0  0  0  0  0
   -0.7430    3.8980    0.0000 C   0  0  1  0  0  0  0  0  0  0  0  0
    0.0090    5.1960    0.0000 C   0  0  0  0  0  0  0  0  0  0  0  0
    1.5090    5.1940    0.0000 C   0  0  1  0  0  0  0  0  0  0  0  0
    2.2570    3.8930    0.0000 C   0  0  0  0  0  0  0  0  0  0  0  0
    1.5050    2.5950    0.0000 C   0  0  0  0  0  0  0  0  0  0  0  0
    2.2520    1.2950    0.0000 O   0  0  0  0  0  0  0  0  0  0  0  0
    3.7570    3.8910    0.0000 C   0  0  0  0  0  0  0  0  0  0  0  0
    4.5050    2.5900    0.0000 O   0  0  0  0  0  0  0  0  0  0  0  0
    4.5090    5.1880    0.0000 C   0  0  0  0  0  0  0  0  0  0  0  0
    3.7610    6.4890    0.0000 C   0  0  0  0  0  0  0  0  0  0  0  0
    4.5140    7.7860    0.0000 C   0  0  0  0  0  0  0  0  0  0  0  0
    6.0140    7.7840    0.0000 C   0  0  0  0  0  0  0  0  0  0  0  0
    6.7610    6.4830    0.0000 C   0  0  0  0  0  0  0  0  0  0  0  0
    6.0090    5.1860    0.0000 C   0  0  0  0  0  0  0  0  0  0  0  0
    6.7570    3.8850    0.0000 O   0  0  0  0  0  0  0  0  0  0  0  0
    2.2610    6.4910    0.0000 C   0  0  1  0  0  0  0  0  0  0  0  0
    0.9640    7.2440    0.0000 O   0  0  0  0  0  0  0  0  0  0  0  0
    2.2640    7.9910    0.0000 C   0  0  0  0  0  0  0  0  0  0  0  0
   -2.2430    3.9010    0.0000 C   0  0  2  0  0  0  0  0  0  0  0  0
   -2.9910    5.2010    0.0000 N   0  0  0  0  0  0  0  0  0  0  0  0
   -2.2390    6.4990    0.0000 C   0  0  0  0  0  0  0  0  0  0  0  0
   -4.4910    5.2040    0.0000 C   0  0  0  0  0  0  0  0  0  0  0  0
   -2.9950    2.6030    0.0000 C   0  0  0  0  0  0  0  0  0  0  0  0
   -4.4950    2.6060    0.0000 O   0  0  0  0  0  0  0  0  0  0  0  0
   -2.2480    1.3030    0.0000 C   0  0  0  0  0  0  0  0  0  0  0  0
   -3.0000    0.0050    0.0000 C   0  0  0  0  0  0  0  0  0  0  0  0
   -4.5000    0.0080    0.0000 O   0  0  0  0  0  0  0  0  0  0  0  0
   -2.2520   -1.2950    0.0000 N   0  0  0  0  0  0  0  0  0  0  0  0
  1  2  1  0  0  0  0
  2  3  1  0  0  0  0
  2 29  2  0  0  0  0
  3  4  1  1  0  0  0
  3  5  1  0  0  0  0
  3  9  1  0  0  0  0
  5  6  1  6  0  0  0
  5 23  1  0  0  0  0
  6  7  1  0  0  0  0
  7  8  1  6  0  0  0
  7 20  1  0  0  0  0
  8  9  2  0  0  0  0
  8 11  1  0  0  0  0
  9 10  1  0  0  0  0
 11 12  2  0  0  0  0
 11 13  1  0  0  0  0
 13 14  1  0  0  0  0
 13 18  2  0  0  0  0
 14 15  2  0  0  0  0
 14 20  1  0  0  0  0
 15 16  1  0  0  0  0
 16 17  2  0  0  0  0
 17 18  1  0  0  0  0
 18 19  1  0  0  0  0
 20 21  1  6  0  0  0
 20 22  1  1  0  0  0
 23 24  1  1  0  0  0
 23 27  1  0  0  0  0
 24 25  1  0  0  0  0
 24 26  1  0  0  0  0
 27 28  2  0  0  0  0
 27 29  1  0  0  0  0
 29 30  1  0  0  0  0
 30 31  2  0  0  0  0
 30 32  1  0  0  0  0
M  END
>  <Index>
1061

>  <ID>
HT2027

>  <class>
0

>  <apol>
63.339031

>  <ast_fraglike>
0

>  <ast_fraglike_ext>
0

>  <ast_violation>
3

>  <ast_violation_ext>
4

>  <a_acc>
9

>  <a_acid>
0

>  <a_aro>
6

>  <a_base>
0

>  <a_count>
56

>  <a_don>
8

>  <a_donacc>
17

>  <a_heavy>
32

>  <a_hyd>
19

>  <a_IC>
91.065277

>  <a_ICM>
1.6261657

>  <a_nB>
0

>  <a_nBr>
0

>  <a_nC>
22

>  <a_nCl>
0

>  <a_nF>
0

>  <a_nH>
24

>  <a_nI>
0

>  <a_nN>
2

>  <a_nO>
8

>  <a_nP>
0

>  <a_nS>
0

>  <balabanJ>
1.8233509

>  <BCUT_PEOE_0>
-2.7830248

>  <BCUT_PEOE_1>
-0.58637971

>  <BCUT_PEOE_2>
0.5830186

>  <BCUT_PEOE_3>
2.8344123

>  <BCUT_SLOGP_0>
-2.8542724

>  <BCUT_SLOGP_1>
-0.60290188

>  <BCUT_SLOGP_2>
0.5729267

>  <BCUT_SLOGP_3>
2.8311818

>  <BCUT_SMR_0>
-2.5498707

>  <BCUT_SMR_1>
-0.38528174

>  <BCUT_SMR_2>
0.73561561

>  <BCUT_SMR_3>
3.0638814

>  <bpol>
30.430967

>  <b_1rotN>
2

>  <b_1rotR>
0.057142857

>  <b_ar>
6

>  <b_count>
59

>  <b_double>
5

>  <b_heavy>
35

>  <b_max1len>
4

>  <b_rotN>
2

>  <b_rotR>
0.057142857

>  <b_single>
48

>  <b_triple>
0

>  <chi0>
23.911331

>  <chi0v>
17.656586

>  <chi0v_C>
13.171208

>  <chi0_C>
14.333981

>  <chi1>
14.772521

>  <chi1v>
9.9702549

>  <chi1v_C>
6.7985473

>  <chi1_C>
8.2430353

>  <chiral>
5

>  <chiral_u>
0

>  <density>
0.81553572

>  <diameter>
11

>  <FCharge>
0

>  <GCUT_PEOE_0>
-0.8492077

>  <GCUT_PEOE_1>
-0.46015641

>  <GCUT_PEOE_2>
0.088939838

>  <GCUT_PEOE_3>
3.1325285

>  <GCUT_SLOGP_0>
-1.3705206

>  <GCUT_SLOGP_1>
-0.37479183

>  <GCUT_SLOGP_2>
0.057439446

>  <GCUT_SLOGP_3>
3.1328948

>  <GCUT_SMR_0>
-0.52437848

>  <GCUT_SMR_1>
-0.23908791

>  <GCUT_SMR_2>
0.21854064

>  <GCUT_SMR_3>
3.3697429

>  <Kier1>
25.103674

>  <Kier2>
8.2936983

>  <Kier3>
3.3703513

>  <KierA1>
19.826143

>  <KierA2>
6.4972134

>  <KierA3>
2.6252315

>  <KierFlex>
4.0254588

>  <lip_acc>
10

>  <lip_don>
7

>  <lip_druglike>
1

>  <lip_violation>
1

>  <logP(o/w)>
-0.442

>  <logS>
-2.5914099

>  <mr>
10.929849

>  <mutagenic>
0

>  <nmol>
1

>  <opr_brigid>
21

>  <opr_leadlike>
0

>  <opr_nring>
4

>  <opr_nrot>
2

>  <opr_violation>
2

>  <PC+>
0

>  <PC->
0

>  <PEOE_PC+>
3.5853045

>  <PEOE_PC->
-3.5853045

>  <PEOE_RPC+>
0.071186513

>  <PEOE_RPC->
0.10699315

>  <PEOE_VSA+0>
57.658558

>  <PEOE_VSA+1>
39.333084

>  <PEOE_VSA+2>
10.667059

>  <PEOE_VSA+3>
34.155064

>  <PEOE_VSA+4>
51.620865

>  <PEOE_VSA+5>
12.949531

>  <PEOE_VSA+6>
0

>  <PEOE_VSA-0>
88.389816

>  <PEOE_VSA-1>
24.509808

>  <PEOE_VSA-2>
0

>  <PEOE_VSA-3>
0

>  <PEOE_VSA-4>
0

>  <PEOE_VSA-5>
40.700764

>  <PEOE_VSA-6>
45.488819

>  <PEOE_VSA_FHYD>
0.62818772

>  <PEOE_VSA_FNEG>
0.49100441

>  <PEOE_VSA_FPNEG>
0.21256535

>  <PEOE_VSA_FPOL>
0.37181228

>  <PEOE_VSA_FPOS>
0.50899559

>  <PEOE_VSA_FPPOS>
0.15924695

>  <PEOE_VSA_HYD>
254.71338

>  <PEOE_VSA_NEG>
199.0892

>  <PEOE_VSA_PNEG>
86.189583

>  <PEOE_VSA_POL>
150.75998

>  <PEOE_VSA_POS>
206.38416

>  <PEOE_VSA_PPOS>
64.570396

>  <petitjean>
0.45454547

>  <petitjeanSC>
0.83333331

>  <Q_PC+>
0

>  <Q_PC->
0

>  <Q_RPC+>
0

>  <Q_RPC->
0

>  <Q_VSA_FHYD>
1

>  <Q_VSA_FNEG>
0

>  <Q_VSA_FPNEG>
0

>  <Q_VSA_FPOL>
0

>  <Q_VSA_FPOS>
1

>  <Q_VSA_FPPOS>
0

>  <Q_VSA_HYD>
405.47336

>  <Q_VSA_NEG>
0

>  <Q_VSA_PNEG>
0

>  <Q_VSA_POL>
0

>  <Q_VSA_POS>
405.47336

>  <Q_VSA_PPOS>
0

>  <radius>
6

>  <reactive>
0

>  <rings>
4

>  <RPC+>
0

>  <RPC->
0

>  <rsynth>
1

>  <SlogP>
0.097099997

>  <SlogP_VSA0>
109.05286

>  <SlogP_VSA1>
19.75832

>  <SlogP_VSA2>
51.706402

>  <SlogP_VSA3>
50.770454

>  <SlogP_VSA4>
39.054958

>  <SlogP_VSA5>
82.652382

>  <SlogP_VSA6>
0

>  <SlogP_VSA7>
52.929554

>  <SlogP_VSA8>
18.868406

>  <SlogP_VSA9>
38.569443

>  <SMR>
10.96579

>  <SMR_VSA0>
71.586647

>  <SMR_VSA1>
79.279991

>  <SMR_VSA2>
59.592045

>  <SMR_VSA3>
32.454552

>  <SMR_VSA4>
32.897186

>  <SMR_VSA5>
71.797958

>  <SMR_VSA6>
16.634007

>  <SMR_VSA7>
99.120392

>  <TPSA>
181.62

>  <VAdjEq>
0.3597711

>  <VAdjMa>
6.129283

>  <VDistEq>
3.1898572

>  <VDistMa>
9.7707081

>  <vdw_area>
405.47336

>  <vdw_vol>
544.96692

>  <vsa_acc>
13.566921

>  <vsa_acid>
0

>  <vsa_base>
0

>  <vsa_don>
17.742489

>  <vsa_hyd>
205.7677

>  <vsa_other>
29.86657

>  <vsa_pol>
126.27785

>  <Weight>
444.44

>  <weinerPath>
2350

>  <weinerPol>
76

>  <zagreb>
186

$$$$