S1[C@H]2N([C@@H](C(O)=O)C1(C)C)C(=O)[C@H]2NC(=O)C(C(Oc1cc2CCCc2cc1)=O)c1ccccc1
  MOE2013           2D

 35 39  0  0  1  0  0  0  0  0999 V2000
    0.0000    0.0000    0.0000 S   0  0  0  0  0  0  0  0  0  0  0  0
    1.2920    0.7620    0.0000 C   0  0  1  0  0  0  0  0  0  0  0  0
    0.9670    2.2260    0.0000 N   0  0  0  0  0  0  0  0  0  0  0  0
   -0.5260    2.3690    0.0000 C   0  0  1  0  0  0  0  0  0  0  0  0
   -1.2880    3.6610    0.0000 C   0  0  0  0  0  0  0  0  0  0  0  0
   -2.7880    3.6480    0.0000 O   0  0  0  0  0  0  0  0  0  0  0  0
   -0.5500    4.9670    0.0000 O   0  0  0  0  0  0  0  0  0  0  0  0
   -1.1240    0.9930    0.0000 C   0  0  0  0  0  0  0  0  0  0  0  0
   -2.2020   -0.0490    0.0000 C   0  0  0  0  0  0  0  0  0  0  0  0
   -2.5420    1.4810    0.0000 C   0  0  0  0  0  0  0  0  0  0  0  0
    2.4310    2.5520    0.0000 C   0  0  0  0  0  0  0  0  0  0  0  0
    3.2360    3.8170    0.0000 O   0  0  0  0  0  0  0  0  0  0  0  0
    2.7560    1.0870    0.0000 C   0  0  1  0  0  0  0  0  0  0  0  0
    4.0220    0.2820    0.0000 N   0  0  0  0  0  0  0  0  0  0  0  0
    5.3520    0.9750    0.0000 C   0  0  0  0  0  0  0  0  0  0  0  0
    5.4170    2.4740    0.0000 O   0  0  0  0  0  0  0  0  0  0  0  0
    6.6170    0.1700    0.0000 C   0  0  3  0  0  0  0  0  0  0  0  0
    7.9480    0.8630    0.0000 C   0  0  0  0  0  0  0  0  0  0  0  0
    9.2130    0.0580    0.0000 O   0  0  0  0  0  0  0  0  0  0  0  0
   10.5430    0.7510    0.0000 C   0  0  0  0  0  0  0  0  0  0  0  0
   11.8090   -0.0540    0.0000 C   0  0  0  0  0  0  0  0  0  0  0  0
   13.1390    0.6390    0.0000 C   0  0  0  0  0  0  0  0  0  0  0  0
   14.5440    0.1140    0.0000 C   0  0  0  0  0  0  0  0  0  0  0  0
   15.4770    1.2890    0.0000 C   0  0  0  0  0  0  0  0  0  0  0  0
   14.6490    2.5390    0.0000 C   0  0  0  0  0  0  0  0  0  0  0  0
   13.2040    2.1380    0.0000 C   0  0  0  0  0  0  0  0  0  0  0  0
   11.9380    2.9430    0.0000 C   0  0  0  0  0  0  0  0  0  0  0  0
   10.6080    2.2500    0.0000 C   0  0  0  0  0  0  0  0  0  0  0  0
    8.0120    2.3620    0.0000 O   0  0  0  0  0  0  0  0  0  0  0  0
    6.5530   -1.3290    0.0000 C   0  0  0  0  0  0  0  0  0  0  0  0
    5.2230   -2.0220    0.0000 C   0  0  0  0  0  0  0  0  0  0  0  0
    5.1580   -3.5210    0.0000 C   0  0  0  0  0  0  0  0  0  0  0  0
    6.4230   -4.3260    0.0000 C   0  0  0  0  0  0  0  0  0  0  0  0
    7.7540   -3.6330    0.0000 C   0  0  0  0  0  0  0  0  0  0  0  0
    7.8180   -2.1340    0.0000 C   0  0  0  0  0  0  0  0  0  0  0  0
  1  8  1  0  0  0  0
  2  1  1  1  0  0  0
  2  3  1  0  0  0  0
  2 13  1  0  0  0  0
  3  4  1  0  0  0  0
  3 11  1  0  0  0  0
  4  5  1  6  0  0  0
  4  8  1  0  0  0  0
  5  6  1  0  0  0  0
  5  7  2  0  0  0  0
  8  9  1  0  0  0  0
  8 10  1  0  0  0  0
 11 12  2  0  0  0  0
 11 13  1  0  0  0  0
 13 14  1  1  0  0  0
 14 15  1  0  0  0  0
 15 16  2  0  0  0  0
 15 17  1  0  0  0  0
 17 18  1  0  0  0  0
 17 30  1  0  0  0  0
 18 19  1  0  0  0  0
 18 29  2  0  0  0  0
 19 20  1  0  0  0  0
 20 21  1  0  0  0  0
 20 28  2  0  0  0  0
 21 22  2  0  0  0  0
 22 23  1  0  0  0  0
 22 26  1  0  0  0  0
 23 24  1  0  0  0  0
 24 25  1  0  0  0  0
 25 26  1  0  0  0  0
 26 27  2  0  0  0  0
 27 28  1  0  0  0  0
 30 31  1  0  0  0  0
 30 35  2  0  0  0  0
 31 32  2  0  0  0  0
 32 33  1  0  0  0  0
 33 34  2  0  0  0  0
 34 35  1  0  0  0  0
M  END
>  <Index>
188

>  <ID>
HT0374

>  <class>
0

>  <apol>
73.008621

>  <ast_fraglike>
0

>  <ast_fraglike_ext>
0

>  <ast_violation>
2

>  <ast_violation_ext>
4

>  <a_acc>
5

>  <a_acid>
0

>  <a_aro>
12

>  <a_base>
0

>  <a_count>
61

>  <a_don>
3

>  <a_donacc>
8

>  <a_heavy>
35

>  <a_hyd>
23

>  <a_IC>
99.842339

>  <a_ICM>
1.6367596

>  <a_nB>
0

>  <a_nBr>
0

>  <a_nC>
26

>  <a_nCl>
0

>  <a_nF>
0

>  <a_nH>
26

>  <a_nI>
0

>  <a_nN>
2

>  <a_nO>
6

>  <a_nP>
0

>  <a_nS>
1

>  <balabanJ>
1.2503523

>  <BCUT_PEOE_0>
-2.6446548

>  <BCUT_PEOE_1>
-0.54790705

>  <BCUT_PEOE_2>
0.57570314

>  <BCUT_PEOE_3>
2.8506398

>  <BCUT_SLOGP_0>
-2.9003444

>  <BCUT_SLOGP_1>
-0.52089381

>  <BCUT_SLOGP_2>
0.61315542

>  <BCUT_SLOGP_3>
2.7545526

>  <BCUT_SMR_0>
-2.390903

>  <BCUT_SMR_1>
-0.38699153

>  <BCUT_SMR_2>
0.78230745

>  <BCUT_SMR_3>
3.1313212

>  <bpol>
39.091381

>  <b_1rotN>
6

>  <b_1rotR>
0.15384616

>  <b_ar>
12

>  <b_count>
65

>  <b_double>
4

>  <b_heavy>
39

>  <b_max1len>
4

>  <b_rotN>
8

>  <b_rotR>
0.20512821

>  <b_single>
49

>  <b_triple>
0

>  <chi0>
24.905048

>  <chi0v>
20.209936

>  <chi0v_C>
15.549523

>  <chi0_C>
17.206377

>  <chi1>
16.66954

>  <chi1v>
12.467719

>  <chi1v_C>
8.4212084

>  <chi1_C>
10.387995

>  <chiral>
4

>  <chiral_u>
1

>  <density>
0.7917701

>  <diameter>
15

>  <FCharge>
0

>  <GCUT_PEOE_0>
-0.83762002

>  <GCUT_PEOE_1>
-0.44356769

>  <GCUT_PEOE_2>
0.06533622

>  <GCUT_PEOE_3>
2.8282619

>  <GCUT_SLOGP_0>
-1.1647995

>  <GCUT_SLOGP_1>
-0.37626809

>  <GCUT_SLOGP_2>
0.13755806

>  <GCUT_SLOGP_3>
2.8180592

>  <GCUT_SMR_0>
-0.53657228

>  <GCUT_SMR_1>
-0.21605732

>  <GCUT_SMR_2>
0.19305076

>  <GCUT_SMR_3>
3.0931871

>  <Kier1>
26.60092

>  <Kier2>
10.636599

>  <Kier3>
5.1778703

>  <KierA1>
21.342127

>  <KierA2>
8.4754238

>  <KierA3>
4.1053438

>  <KierFlex>
5.1681023

>  <lip_acc>
8

>  <lip_don>
2

>  <lip_druglike>
1

>  <lip_violation>
0

>  <logP(o/w)>
3.55

>  <logS>
-6.85569

>  <mr>
13.138799

>  <mutagenic>
0

>  <nmol>
1

>  <opr_brigid>
24

>  <opr_leadlike>
0

>  <opr_nring>
5

>  <opr_nrot>
6

>  <opr_violation>
2

>  <PC+>
0

>  <PC->
0

>  <PEOE_PC+>
3.1748474

>  <PEOE_PC->
-3.1748474

>  <PEOE_RPC+>
0.08938273

>  <PEOE_RPC->
0.10748815

>  <PEOE_VSA+0>
51.184631

>  <PEOE_VSA+1>
59.64315

>  <PEOE_VSA+2>
11.413943

>  <PEOE_VSA+3>
8.6190128

>  <PEOE_VSA+4>
23.273705

>  <PEOE_VSA+5>
42.366531

>  <PEOE_VSA+6>
0

>  <PEOE_VSA-0>
94.734718

>  <PEOE_VSA-1>
73.529427

>  <PEOE_VSA-2>
19.760618

>  <PEOE_VSA-3>
0

>  <PEOE_VSA-4>
0

>  <PEOE_VSA-5>
56.771439

>  <PEOE_VSA-6>
7.9044313

>  <PEOE_VSA_FHYD>
0.70989394

>  <PEOE_VSA_FNEG>
0.56255507

>  <PEOE_VSA_FPNEG>
0.14397961

>  <PEOE_VSA_FPOL>
0.29010606

>  <PEOE_VSA_FPOS>
0.43744496

>  <PEOE_VSA_FPPOS>
0.14612645

>  <PEOE_VSA_HYD>
318.8855

>  <PEOE_VSA_NEG>
252.70064

>  <PEOE_VSA_PNEG>
64.675873

>  <PEOE_VSA_POL>
130.3161

>  <PEOE_VSA_POS>
196.50098

>  <PEOE_VSA_PPOS>
65.640236

>  <petitjean>
0.46666667

>  <petitjeanSC>
0.875

>  <Q_PC+>
0

>  <Q_PC->
0

>  <Q_RPC+>
0

>  <Q_RPC->
0

>  <Q_VSA_FHYD>
1

>  <Q_VSA_FNEG>
0

>  <Q_VSA_FPNEG>
0

>  <Q_VSA_FPOL>
0

>  <Q_VSA_FPOS>
1

>  <Q_VSA_FPPOS>
0

>  <Q_VSA_HYD>
449.2016

>  <Q_VSA_NEG>
0

>  <Q_VSA_PNEG>
0

>  <Q_VSA_POL>
0

>  <Q_VSA_POS>
449.2016

>  <Q_VSA_PPOS>
0

>  <radius>
8

>  <reactive>
0

>  <rings>
5

>  <RPC+>
0

>  <RPC->
0

>  <rsynth>
1

>  <SlogP>
2.49614

>  <SlogP_VSA0>
29.010639

>  <SlogP_VSA1>
29.132809

>  <SlogP_VSA2>
105.75993

>  <SlogP_VSA3>
25.385227

>  <SlogP_VSA4>
9.5567245

>  <SlogP_VSA5>
37.736813

>  <SlogP_VSA6>
4.4107962

>  <SlogP_VSA7>
141.14548

>  <SlogP_VSA8>
18.868406

>  <SlogP_VSA9>
104.115

>  <SMR>
12.89445

>  <SMR_VSA0>
95.448868

>  <SMR_VSA1>
14.124202

>  <SMR_VSA2>
43.395977

>  <SMR_VSA3>
29.522015

>  <SMR_VSA4>
0

>  <SMR_VSA5>
197.75069

>  <SMR_VSA6>
26.008495

>  <SMR_VSA7>
98.871574

>  <TPSA>
113.01

>  <VAdjEq>
0.34185782

>  <VAdjMa>
6.2854023

>  <VDistEq>
3.7146027

>  <VDistMa>
9.9861412

>  <vdw_area>
449.2016

>  <vdw_vol>
624.63586

>  <vsa_acc>
40.700764

>  <vsa_acid>
0

>  <vsa_base>
0

>  <vsa_don>
5.6825762

>  <vsa_hyd>
291.83835

>  <vsa_other>
57.819817

>  <vsa_pol>
73.517181

>  <Weight>
494.56799

>  <weinerPath>
3780

>  <weinerPol>
58

>  <zagreb>
196

$$$$