O(CC(OC(=O)c1ccccc1)CNC(C)(C)C)c1c2cc([nH]c2ccc1)C
  MOE2013           2D

 28 30  0  0  1  0  0  0  0  0999 V2000
    0.0000    0.0000    0.0000 O   0  0  0  0  0  0  0  0  0  0  0  0
    1.5000    0.0010    0.0000 C   0  0  0  0  0  0  0  0  0  0  0  0
    2.2490    1.3010    0.0000 C   0  0  3  0  0  0  0  0  0  0  0  0
    3.7490    1.3020    0.0000 O   0  0  0  0  0  0  0  0  0  0  0  0
    4.5000    0.0030    0.0000 C   0  0  0  0  0  0  0  0  0  0  0  0
    3.7510   -1.2960    0.0000 O   0  0  0  0  0  0  0  0  0  0  0  0
    6.0000    0.0040    0.0000 C   0  0  0  0  0  0  0  0  0  0  0  0
    6.7510   -1.2940    0.0000 C   0  0  0  0  0  0  0  0  0  0  0  0
    8.2510   -1.2930    0.0000 C   0  0  0  0  0  0  0  0  0  0  0  0
    9.0000    0.0060    0.0000 C   0  0  0  0  0  0  0  0  0  0  0  0
    8.2490    1.3050    0.0000 C   0  0  0  0  0  0  0  0  0  0  0  0
    6.7490    1.3040    0.0000 C   0  0  0  0  0  0  0  0  0  0  0  0
    1.4980    2.5990    0.0000 C   0  0  0  0  0  0  0  0  0  0  0  0
    2.2470    3.8990    0.0000 N   0  0  0  0  0  0  0  0  0  0  0  0
    1.4960    5.1970    0.0000 C   0  0  0  0  0  0  0  0  0  0  0  0
    2.7950    5.9480    0.0000 C   0  0  0  0  0  0  0  0  0  0  0  0
    0.1980    4.4460    0.0000 C   0  0  0  0  0  0  0  0  0  0  0  0
    0.7460    6.4960    0.0000 C   0  0  0  0  0  0  0  0  0  0  0  0
   -0.7490   -1.3000    0.0000 C   0  0  0  0  0  0  0  0  0  0  0  0
   -2.2490   -1.3010    0.0000 C   0  0  0  0  0  0  0  0  0  0  0  0
   -3.2540   -0.1870    0.0000 C   0  0  0  0  0  0  0  0  0  0  0  0
   -4.6230   -0.7980    0.0000 C   0  0  0  0  0  0  0  0  0  0  0  0
   -4.4660   -2.2890    0.0000 N   0  0  0  0  0  0  0  0  0  0  0  0
   -2.9980   -2.6000    0.0000 C   0  0  0  0  0  0  0  0  0  0  0  0
   -2.2470   -3.8990    0.0000 C   0  0  0  0  0  0  0  0  0  0  0  0
   -0.7470   -3.8980    0.0000 C   0  0  0  0  0  0  0  0  0  0  0  0
    0.0020   -2.5980    0.0000 C   0  0  0  0  0  0  0  0  0  0  0  0
   -5.9230   -0.0480    0.0000 C   0  0  0  0  0  0  0  0  0  0  0  0
  1  2  1  0  0  0  0
  1 19  1  0  0  0  0
  2  3  1  0  0  0  0
  3  4  1  0  0  0  0
  3 13  1  0  0  0  0
  4  5  1  0  0  0  0
  5  6  2  0  0  0  0
  5  7  1  0  0  0  0
  7  8  1  0  0  0  0
  7 12  2  0  0  0  0
  8  9  2  0  0  0  0
  9 10  1  0  0  0  0
 10 11  2  0  0  0  0
 11 12  1  0  0  0  0
 13 14  1  0  0  0  0
 14 15  1  0  0  0  0
 15 16  1  0  0  0  0
 15 17  1  0  0  0  0
 15 18  1  0  0  0  0
 19 20  1  0  0  0  0
 19 27  2  0  0  0  0
 20 21  1  0  0  0  0
 20 24  2  0  0  0  0
 21 22  2  0  0  0  0
 22 23  1  0  0  0  0
 22 28  1  0  0  0  0
 23 24  1  0  0  0  0
 24 25  1  0  0  0  0
 25 26  2  0  0  0  0
 26 27  1  0  0  0  0
M  END
>  <Index>
152

>  <ID>
HT0298

>  <class>
0

>  <apol>
63.756203

>  <ast_fraglike>
0

>  <ast_fraglike_ext>
0

>  <ast_violation>
2

>  <ast_violation_ext>
3

>  <a_acc>
3

>  <a_acid>
0

>  <a_aro>
15

>  <a_base>
0

>  <a_count>
56

>  <a_don>
2

>  <a_donacc>
5

>  <a_heavy>
28

>  <a_hyd>
22

>  <a_IC>
79.809128

>  <a_ICM>
1.4251629

>  <a_nB>
0

>  <a_nBr>
0

>  <a_nC>
23

>  <a_nCl>
0

>  <a_nF>
0

>  <a_nH>
28

>  <a_nI>
0

>  <a_nN>
2

>  <a_nO>
3

>  <a_nP>
0

>  <a_nS>
0

>  <balabanJ>
1.5347192

>  <BCUT_PEOE_0>
-2.7101381

>  <BCUT_PEOE_1>
-0.51735443

>  <BCUT_PEOE_2>
0.57216698

>  <BCUT_PEOE_3>
2.6496625

>  <BCUT_SLOGP_0>
-2.838614

>  <BCUT_SLOGP_1>
-0.42998636

>  <BCUT_SLOGP_2>
0.66763037

>  <BCUT_SLOGP_3>
2.6197305

>  <BCUT_SMR_0>
-2.4451942

>  <BCUT_SMR_1>
-0.38018256

>  <BCUT_SMR_2>
0.70861024

>  <BCUT_SMR_3>
2.9040241

>  <bpol>
36.719795

>  <b_1rotN>
7

>  <b_1rotR>
0.23333333

>  <b_ar>
16

>  <b_count>
58

>  <b_double>
1

>  <b_heavy>
30

>  <b_max1len>
7

>  <b_rotN>
9

>  <b_rotR>
0.30000001

>  <b_single>
41

>  <b_triple>
0

>  <chi0>
20.148054

>  <chi0v>
16.91246

>  <chi0v_C>
14.687716

>  <chi0_C>
16.319626

>  <chi1>
13.315482

>  <chi1v>
9.5388508

>  <chi1v_C>
7.2985473

>  <chi1_C>
9.3433371

>  <chiral>
1

>  <chiral_u>
1

>  <density>
0.69452035

>  <diameter>
13

>  <FCharge>
0

>  <GCUT_PEOE_0>
-0.86099476

>  <GCUT_PEOE_1>
-0.37211367

>  <GCUT_PEOE_2>
0.054073479

>  <GCUT_PEOE_3>
2.7034247

>  <GCUT_SLOGP_0>
-1.1534563

>  <GCUT_SLOGP_1>
-0.24825771

>  <GCUT_SLOGP_2>
0.1369393

>  <GCUT_SLOGP_3>
2.74928

>  <GCUT_SMR_0>
-0.5234111

>  <GCUT_SMR_1>
-0.18386915

>  <GCUT_SMR_2>
0.15632322

>  <GCUT_SMR_3>
2.9598956

>  <Kier1>
22.68

>  <Kier2>
10.346939

>  <Kier3>
7.038734

>  <KierA1>
17.442352

>  <KierA2>
7.8747592

>  <KierA3>
5.3172622

>  <KierFlex>
4.9055114

>  <lip_acc>
5

>  <lip_don>
2

>  <lip_druglike>
1

>  <lip_violation>
0

>  <logP(o/w)>
4.7737398

>  <logS>
-4.9631901

>  <mr>
11.191988

>  <mutagenic>
0

>  <nmol>
1

>  <opr_brigid>
16

>  <opr_leadlike>
1

>  <opr_nring>
3

>  <opr_nrot>
8

>  <opr_violation>
0

>  <PC+>
0

>  <PC->
0

>  <PEOE_PC+>
2.1769845

>  <PEOE_PC->
-2.1769845

>  <PEOE_RPC+>
0.13512881

>  <PEOE_RPC->
0.16448167

>  <PEOE_VSA+0>
90.723907

>  <PEOE_VSA+1>
74.594444

>  <PEOE_VSA+2>
13.523942

>  <PEOE_VSA+3>
8.6190128

>  <PEOE_VSA+4>
0

>  <PEOE_VSA+5>
14.708499

>  <PEOE_VSA+6>
0

>  <PEOE_VSA-0>
136.26523

>  <PEOE_VSA-1>
49.019615

>  <PEOE_VSA-2>
0

>  <PEOE_VSA-3>
0

>  <PEOE_VSA-4>
0

>  <PEOE_VSA-5>
13.566921

>  <PEOE_VSA-6>
5.2812943

>  <PEOE_VSA_FHYD>
0.9174096

>  <PEOE_VSA_FNEG>
0.50241601

>  <PEOE_VSA_FPNEG>
0.046389569

>  <PEOE_VSA_FPOL>
0.082590394

>  <PEOE_VSA_FPOS>
0.49758402

>  <PEOE_VSA_FPPOS>
0.036200825

>  <PEOE_VSA_HYD>
372.74615

>  <PEOE_VSA_NEG>
204.13306

>  <PEOE_VSA_PNEG>
18.848215

>  <PEOE_VSA_POL>
33.556713

>  <PEOE_VSA_POS>
202.16982

>  <PEOE_VSA_PPOS>
14.708499

>  <petitjean>
0.46153846

>  <petitjeanSC>
0.85714287

>  <Q_PC+>
0

>  <Q_PC->
0

>  <Q_RPC+>
0

>  <Q_RPC->
0

>  <Q_VSA_FHYD>
1

>  <Q_VSA_FNEG>
0

>  <Q_VSA_FPNEG>
0

>  <Q_VSA_FPOL>
0

>  <Q_VSA_FPOS>
1

>  <Q_VSA_FPPOS>
0

>  <Q_VSA_HYD>
406.30286

>  <Q_VSA_NEG>
0

>  <Q_VSA_PNEG>
0

>  <Q_VSA_POL>
0

>  <Q_VSA_POS>
406.30286

>  <Q_VSA_PPOS>
0

>  <radius>
7

>  <reactive>
0

>  <rings>
3

>  <RPC+>
0

>  <RPC->
0

>  <rsynth>
1

>  <SlogP>
4.4688201

>  <SlogP_VSA0>
29.010639

>  <SlogP_VSA1>
7.7454643

>  <SlogP_VSA2>
34.254066

>  <SlogP_VSA3>
39.365837

>  <SlogP_VSA4>
29.804539

>  <SlogP_VSA5>
0

>  <SlogP_VSA6>
0

>  <SlogP_VSA7>
163.50577

>  <SlogP_VSA8>
0

>  <SlogP_VSA9>
138.54749

>  <SMR>
11.19319

>  <SMR_VSA0>
34.862103

>  <SMR_VSA1>
10.999887

>  <SMR_VSA2>
34.79628

>  <SMR_VSA3>
17.6544

>  <SMR_VSA4>
4.7171016

>  <SMR_VSA5>
158.78867

>  <SMR_VSA6>
47.111301

>  <SMR_VSA7>
133.30406

>  <TPSA>
63.349998

>  <VAdjEq>
0.38983503

>  <VAdjMa>
5.9068904

>  <VDistEq>
3.4937344

>  <VDistMa>
9.3434248

>  <vdw_area>
406.30286

>  <vdw_vol>
547.84283

>  <vsa_acc>
16.070677

>  <vsa_acid>
0

>  <vsa_base>
0

>  <vsa_don>
5.6825762

>  <vsa_hyd>
337.00146

>  <vsa_other>
17.212255

>  <vsa_pol>
27.435829

>  <Weight>
380.48801

>  <weinerPath>
2184

>  <weinerPol>
38

>  <zagreb>
144

$$$$