Ic1c2Oc3c(cc(I)c(O)c3I)C3(OC(=O)c4c3cccc4)c2cc(I)c1O
  MOE2013           2D

 29 33  0  0  0  0  0  0  0  0999 V2000
    0.0000    0.0000    0.0000 I   0  0  0  0  0  0  0  0  0  0  0  0
   -0.7610    1.2930    0.0000 C   0  0  0  0  0  0  0  0  0  0  0  0
   -0.0220    2.5980    0.0000 C   0  0  0  0  0  0  0  0  0  0  0  0
    1.4780    2.6110    0.0000 O   0  0  0  0  0  0  0  0  0  0  0  0
    2.2160    3.9160    0.0000 C   0  0  0  0  0  0  0  0  0  0  0  0
    1.4550    5.2090    0.0000 C   0  0  0  0  0  0  0  0  0  0  0  0
    2.1940    6.5140    0.0000 C   0  0  0  0  0  0  0  0  0  0  0  0
    3.6940    6.5270    0.0000 C   0  0  0  0  0  0  0  0  0  0  0  0
    4.4330    7.8330    0.0000 I   0  0  0  0  0  0  0  0  0  0  0  0
    4.4550    5.2350    0.0000 C   0  0  0  0  0  0  0  0  0  0  0  0
    5.9550    5.2480    0.0000 O   0  0  0  0  0  0  0  0  0  0  0  0
    3.7160    3.9290    0.0000 C   0  0  0  0  0  0  0  0  0  0  0  0
    4.4770    2.6370    0.0000 I   0  0  0  0  0  0  0  0  0  0  0  0
   -0.0450    5.1960    0.0000 C   0  0  0  0  0  0  0  0  0  0  0  0
    0.9690    6.3020    0.0000 O   0  0  0  0  0  0  0  0  0  0  0  0
    0.2300    7.6070    0.0000 C   0  0  0  0  0  0  0  0  0  0  0  0
    0.8530    8.9720    0.0000 O   0  0  0  0  0  0  0  0  0  0  0  0
   -1.2400    7.3090    0.0000 C   0  0  0  0  0  0  0  0  0  0  0  0
   -1.4100    5.8180    0.0000 C   0  0  0  0  0  0  0  0  0  0  0  0
   -2.7850    5.2200    0.0000 C   0  0  0  0  0  0  0  0  0  0  0  0
   -3.9910    6.1130    0.0000 C   0  0  0  0  0  0  0  0  0  0  0  0
   -3.8210    7.6030    0.0000 C   0  0  0  0  0  0  0  0  0  0  0  0
   -2.4450    8.2010    0.0000 C   0  0  0  0  0  0  0  0  0  0  0  0
   -0.7830    3.8910    0.0000 C   0  0  0  0  0  0  0  0  0  0  0  0
   -2.2830    3.8780    0.0000 C   0  0  0  0  0  0  0  0  0  0  0  0
   -3.0220    2.5720    0.0000 C   0  0  0  0  0  0  0  0  0  0  0  0
   -4.5220    2.5590    0.0000 I   0  0  0  0  0  0  0  0  0  0  0  0
   -2.2610    1.2800    0.0000 C   0  0  0  0  0  0  0  0  0  0  0  0
   -3.0000   -0.0260    0.0000 O   0  0  0  0  0  0  0  0  0  0  0  0
  1  2  1  0  0  0  0
  2  3  1  0  0  0  0
  2 28  2  0  0  0  0
  3  4  1  0  0  0  0
  3 24  2  0  0  0  0
  4  5  1  0  0  0  0
  5  6  1  0  0  0  0
  5 12  2  0  0  0  0
  6  7  2  0  0  0  0
  6 14  1  0  0  0  0
  7  8  1  0  0  0  0
  8  9  1  0  0  0  0
  8 10  2  0  0  0  0
 10 11  1  0  0  0  0
 10 12  1  0  0  0  0
 12 13  1  0  0  0  0
 14 15  1  0  0  0  0
 14 19  1  0  0  0  0
 14 24  1  0  0  0  0
 15 16  1  0  0  0  0
 16 17  2  0  0  0  0
 16 18  1  0  0  0  0
 18 19  1  0  0  0  0
 18 23  2  0  0  0  0
 19 20  2  0  0  0  0
 20 21  1  0  0  0  0
 21 22  2  0  0  0  0
 22 23  1  0  0  0  0
 24 25  1  0  0  0  0
 25 26  2  0  0  0  0
 26 27  1  0  0  0  0
 26 28  1  0  0  0  0
 28 29  1  0  0  0  0
M  END
>  <Index>
1415

>  <ID>
HT4013

>  <class>
0

>  <apol>
65.944344

>  <ast_fraglike>
0

>  <ast_fraglike_ext>
0

>  <ast_violation>
2

>  <ast_violation_ext>
2

>  <a_acc>
3

>  <a_acid>
0

>  <a_aro>
18

>  <a_base>
0

>  <a_count>
37

>  <a_don>
2

>  <a_donacc>
5

>  <a_heavy>
29

>  <a_hyd>
23

>  <a_IC>
62.701572

>  <a_ICM>
1.6946371

>  <a_nB>
0

>  <a_nBr>
0

>  <a_nC>
20

>  <a_nCl>
0

>  <a_nF>
0

>  <a_nH>
8

>  <a_nI>
4

>  <a_nN>
0

>  <a_nO>
5

>  <a_nP>
0

>  <a_nS>
0

>  <balabanJ>
1.6286299

>  <BCUT_PEOE_0>
-2.4140227

>  <BCUT_PEOE_1>
-0.82748252

>  <BCUT_PEOE_2>
0.83881217

>  <BCUT_PEOE_3>
2.5524726

>  <BCUT_SLOGP_0>
-2.2798796

>  <BCUT_SLOGP_1>
-0.69220358

>  <BCUT_SLOGP_2>
1.0669587

>  <BCUT_SLOGP_3>
2.6745031

>  <BCUT_SMR_0>
-2.1315389

>  <BCUT_SMR_1>
-0.47393569

>  <BCUT_SMR_2>
1.2457708

>  <BCUT_SMR_3>
2.8370965

>  <bpol>
27.895657

>  <b_1rotN>
0

>  <b_1rotR>
0

>  <b_ar>
18

>  <b_count>
41

>  <b_double>
1

>  <b_heavy>
33

>  <b_max1len>
1

>  <b_rotN>
0

>  <b_rotR>
0

>  <b_single>
22

>  <b_triple>
0

>  <chi0>
20.662407

>  <chi0v>
22.725124

>  <chi0v_C>
10.464102

>  <chi0_C>
12.248194

>  <chi1>
13.768599

>  <chi1v>
12.520811

>  <chi1v_C>
5.9820509

>  <chi1_C>
8.1488485

>  <chiral>
0

>  <chiral_u>
0

>  <density>
1.5206606

>  <diameter>
9

>  <FCharge>
0

>  <GCUT_PEOE_0>
-0.75229162

>  <GCUT_PEOE_1>
-0.51719666

>  <GCUT_PEOE_2>
0.12119399

>  <GCUT_PEOE_3>
2.7172017

>  <GCUT_SLOGP_0>
-0.80719066

>  <GCUT_SLOGP_1>
-0.37175316

>  <GCUT_SLOGP_2>
0.39472887

>  <GCUT_SLOGP_3>
2.8888109

>  <GCUT_SMR_0>
-0.46156502

>  <GCUT_SMR_1>
-0.2119938

>  <GCUT_SMR_2>
0.4980118

>  <GCUT_SMR_3>
3.0708466

>  <Kier1>
20.877869

>  <Kier2>
7.266643

>  <Kier3>
2.814991

>  <KierA1>
24.607759

>  <KierA2>
8.6150942

>  <KierA3>
3.3516989

>  <KierFlex>
7.3102818

>  <lip_acc>
5

>  <lip_don>
2

>  <lip_druglike>
0

>  <lip_violation>
2

>  <logP(o/w)>
8.8739996

>  <logS>
-9.2159405

>  <mr>
14.079649

>  <mutagenic>
0

>  <nmol>
1

>  <opr_brigid>
26

>  <opr_leadlike>
0

>  <opr_nring>
5

>  <opr_nrot>
0

>  <opr_violation>
3

>  <PC+>
0

>  <PC->
0

>  <PEOE_PC+>
2.0293195

>  <PEOE_PC->
-2.0293195

>  <PEOE_RPC+>
0.14568189

>  <PEOE_RPC->
0.17625584

>  <PEOE_VSA+0>
12.705807

>  <PEOE_VSA+1>
33.881042

>  <PEOE_VSA+2>
33.834076

>  <PEOE_VSA+3>
0

>  <PEOE_VSA+4>
20.648346

>  <PEOE_VSA+5>
14.708499

>  <PEOE_VSA+6>
0

>  <PEOE_VSA-0>
224.72476

>  <PEOE_VSA-1>
36.764713

>  <PEOE_VSA-2>
0

>  <PEOE_VSA-3>
0

>  <PEOE_VSA-4>
0

>  <PEOE_VSA-5>
16.070677

>  <PEOE_VSA-6>
18.038837

>  <PEOE_VSA_FHYD>
0.83113688

>  <PEOE_VSA_FNEG>
0.71856028

>  <PEOE_VSA_FPNEG>
0.082915507

>  <PEOE_VSA_FPOL>
0.1688631

>  <PEOE_VSA_FPOS>
0.28143975

>  <PEOE_VSA_FPPOS>
0.085947596

>  <PEOE_VSA_HYD>
341.9104

>  <PEOE_VSA_NEG>
295.599

>  <PEOE_VSA_PNEG>
34.109512

>  <PEOE_VSA_POL>
69.466354

>  <PEOE_VSA_POS>
115.77777

>  <PEOE_VSA_PPOS>
35.356846

>  <petitjean>
0.44444445

>  <petitjeanSC>
0.80000001

>  <Q_PC+>
0

>  <Q_PC->
0

>  <Q_RPC+>
0

>  <Q_RPC->
0

>  <Q_VSA_FHYD>
1

>  <Q_VSA_FNEG>
0

>  <Q_VSA_FPNEG>
0

>  <Q_VSA_FPOL>
0

>  <Q_VSA_FPOS>
1

>  <Q_VSA_FPPOS>
0

>  <Q_VSA_HYD>
411.37677

>  <Q_VSA_NEG>
0

>  <Q_VSA_PNEG>
0

>  <Q_VSA_POL>
0

>  <Q_VSA_POS>
411.37677

>  <Q_VSA_PPOS>
0

>  <radius>
5

>  <reactive>
1

>  <rings>
5

>  <RPC+>
0

>  <RPC->
0

>  <rsynth>
0.034482758

>  <SlogP>
6.3957

>  <SlogP_VSA0>
61.77034

>  <SlogP_VSA1>
7.7454643

>  <SlogP_VSA2>
17.63846

>  <SlogP_VSA3>
0

>  <SlogP_VSA4>
36.604515

>  <SlogP_VSA5>
0

>  <SlogP_VSA6>
0

>  <SlogP_VSA7>
105.85911

>  <SlogP_VSA8>
0

>  <SlogP_VSA9>
248.10175

>  <SMR>
13.90121

>  <SMR_VSA0>
34.862103

>  <SMR_VSA1>
61.77034

>  <SMR_VSA2>
6.6385717

>  <SMR_VSA3>
33.716011

>  <SMR_VSA4>
0

>  <SMR_VSA5>
105.85911

>  <SMR_VSA6>
7.7454643

>  <SMR_VSA7>
227.12804

>  <TPSA>
75.989998

>  <VAdjEq>
0.39679351

>  <VAdjMa>
6.044394

>  <VDistEq>
2.9715426

>  <VDistMa>
9.5008373

>  <vdw_area>
411.37677

>  <vdw_vol>
549.69202

>  <vsa_acc>
13.566921

>  <vsa_acid>
0

>  <vsa_base>
0

>  <vsa_don>
0

>  <vsa_hyd>
337.63965

>  <vsa_other>
19.716011

>  <vsa_pol>
40.700764

>  <Weight>
835.89496

>  <weinerPath>
1767

>  <weinerPol>
65

>  <zagreb>
172

$$$$