O(C(=O)C(O)(c1ccccc1)c1ccccc1)CCN(CC)CC
  MOE2013           2D

 24 25  0  0  0  0  0  0  0  0999 V2000
    0.0000    0.0000    0.0000 O   0  0  0  0  0  0  0  0  0  0  0  0
   -0.7600    1.2930    0.0000 C   0  0  0  0  0  0  0  0  0  0  0  0
   -0.0200    2.5980    0.0000 O   0  0  0  0  0  0  0  0  0  0  0  0
   -2.2600    1.2820    0.0000 C   0  0  0  0  0  0  0  0  0  0  0  0
   -2.2480   -0.2180    0.0000 O   0  0  0  0  0  0  0  0  0  0  0  0
   -2.2710    2.7820    0.0000 C   0  0  0  0  0  0  0  0  0  0  0  0
   -3.5760    3.5220    0.0000 C   0  0  0  0  0  0  0  0  0  0  0  0
   -3.5870    5.0220    0.0000 C   0  0  0  0  0  0  0  0  0  0  0  0
   -2.2940    5.7820    0.0000 C   0  0  0  0  0  0  0  0  0  0  0  0
   -0.9890    5.0420    0.0000 C   0  0  0  0  0  0  0  0  0  0  0  0
   -0.9780    3.5420    0.0000 C   0  0  0  0  0  0  0  0  0  0  0  0
   -3.7600    1.2710    0.0000 C   0  0  0  0  0  0  0  0  0  0  0  0
   -4.5000   -0.0340    0.0000 C   0  0  0  0  0  0  0  0  0  0  0  0
   -6.0000   -0.0460    0.0000 C   0  0  0  0  0  0  0  0  0  0  0  0
   -6.7600    1.2480    0.0000 C   0  0  0  0  0  0  0  0  0  0  0  0
   -6.0200    2.5520    0.0000 C   0  0  0  0  0  0  0  0  0  0  0  0
   -4.5200    2.5640    0.0000 C   0  0  0  0  0  0  0  0  0  0  0  0
    1.5000    0.0110    0.0000 C   0  0  0  0  0  0  0  0  0  0  0  0
    2.2600   -1.2820    0.0000 C   0  0  0  0  0  0  0  0  0  0  0  0
    3.7600   -1.2710    0.0000 N   0  0  0  0  0  0  0  0  0  0  0  0
    4.5200   -2.5640    0.0000 C   0  0  0  0  0  0  0  0  0  0  0  0
    3.7790   -3.8690    0.0000 C   0  0  0  0  0  0  0  0  0  0  0  0
    4.5000    0.0340    0.0000 C   0  0  0  0  0  0  0  0  0  0  0  0
    6.0000    0.0460    0.0000 C   0  0  0  0  0  0  0  0  0  0  0  0
  1  2  1  0  0  0  0
  1 18  1  0  0  0  0
  2  3  2  0  0  0  0
  2  4  1  0  0  0  0
  4  5  1  0  0  0  0
  4  6  1  0  0  0  0
  4 12  1  0  0  0  0
  6  7  1  0  0  0  0
  6 11  2  0  0  0  0
  7  8  2  0  0  0  0
  8  9  1  0  0  0  0
  9 10  2  0  0  0  0
 10 11  1  0  0  0  0
 12 13  1  0  0  0  0
 12 17  2  0  0  0  0
 13 14  2  0  0  0  0
 14 15  1  0  0  0  0
 15 16  2  0  0  0  0
 16 17  1  0  0  0  0
 18 19  1  0  0  0  0
 19 20  1  0  0  0  0
 20 21  1  0  0  0  0
 20 23  1  0  0  0  0
 21 22  1  0  0  0  0
 23 24  1  0  0  0  0
M  END
>  <Index>
1338

>  <ID>
HT3496

>  <class>
0

>  <apol>
55.375824

>  <ast_fraglike>
0

>  <ast_fraglike_ext>
0

>  <ast_violation>
2

>  <ast_violation_ext>
3

>  <a_acc>
3

>  <a_acid>
0

>  <a_aro>
12

>  <a_base>
0

>  <a_count>
49

>  <a_don>
1

>  <a_donacc>
4

>  <a_heavy>
24

>  <a_hyd>
19

>  <a_IC>
67.830925

>  <a_ICM>
1.3843046

>  <a_nB>
0

>  <a_nBr>
0

>  <a_nC>
20

>  <a_nCl>
0

>  <a_nF>
0

>  <a_nH>
25

>  <a_nI>
0

>  <a_nN>
1

>  <a_nO>
3

>  <a_nP>
0

>  <a_nS>
0

>  <balabanJ>
2.0050409

>  <BCUT_PEOE_0>
-2.6693108

>  <BCUT_PEOE_1>
-0.5776844

>  <BCUT_PEOE_2>
0.63113207

>  <BCUT_PEOE_3>
2.5801477

>  <BCUT_SLOGP_0>
-2.7475188

>  <BCUT_SLOGP_1>
-0.52346253

>  <BCUT_SLOGP_2>
0.68911511

>  <BCUT_SLOGP_3>
2.5352647

>  <BCUT_SMR_0>
-2.3946052

>  <BCUT_SMR_1>
-0.42585492

>  <BCUT_SMR_2>
0.78201526

>  <BCUT_SMR_3>
2.8409879

>  <bpol>
32.184174

>  <b_1rotN>
8

>  <b_1rotR>
0.31999999

>  <b_ar>
12

>  <b_count>
50

>  <b_double>
1

>  <b_heavy>
25

>  <b_max1len>
6

>  <b_rotN>
9

>  <b_rotR>
0.36000001

>  <b_single>
37

>  <b_triple>
0

>  <chi0>
17.416002

>  <chi0v>
14.312854

>  <chi0v_C>
12.60193

>  <chi0_C>
14.131546

>  <chi1>
11.623575

>  <chi1v>
8.3547945

>  <chi1v_C>
6.4855809

>  <chi1_C>
8.4132318

>  <chiral>
0

>  <chiral_u>
0

>  <density>
0.68564355

>  <diameter>
11

>  <FCharge>
0

>  <GCUT_PEOE_0>
-0.85593218

>  <GCUT_PEOE_1>
-0.38915667

>  <GCUT_PEOE_2>
0.064142615

>  <GCUT_PEOE_3>
2.643482

>  <GCUT_SLOGP_0>
-0.95870429

>  <GCUT_SLOGP_1>
-0.26386139

>  <GCUT_SLOGP_2>
0.13851997

>  <GCUT_SLOGP_3>
2.6905832

>  <GCUT_SMR_0>
-0.52199244

>  <GCUT_SMR_1>
-0.20952277

>  <GCUT_SMR_2>
0.17338501

>  <GCUT_SMR_3>
2.8983471

>  <Kier1>
20.313601

>  <Kier2>
10.222222

>  <Kier3>
5.25

>  <KierA1>
15.830972

>  <KierA2>
7.8740115

>  <KierA3>
4.0101027

>  <KierFlex>
5.1938853

>  <lip_acc>
4

>  <lip_don>
1

>  <lip_druglike>
1

>  <lip_violation>
0

>  <logP(o/w)>
3.687

>  <logS>
-3.88428

>  <mr>
9.7077608

>  <mutagenic>
0

>  <nmol>
1

>  <opr_brigid>
12

>  <opr_leadlike>
1

>  <opr_nring>
2

>  <opr_nrot>
8

>  <opr_violation>
0

>  <PC+>
0

>  <PC->
0

>  <PEOE_PC+>
1.9488214

>  <PEOE_PC->
-1.9488214

>  <PEOE_RPC+>
0.15571329

>  <PEOE_RPC->
0.19015865

>  <PEOE_VSA+0>
64.376953

>  <PEOE_VSA+1>
66.135925

>  <PEOE_VSA+2>
0

>  <PEOE_VSA+3>
0

>  <PEOE_VSA+4>
10.324173

>  <PEOE_VSA+5>
0

>  <PEOE_VSA+6>
14.708499

>  <PEOE_VSA-0>
30.801729

>  <PEOE_VSA-1>
160.04439

>  <PEOE_VSA-2>
0

>  <PEOE_VSA-3>
0

>  <PEOE_VSA-4>
0

>  <PEOE_VSA-5>
13.566921

>  <PEOE_VSA-6>
10.271297

>  <PEOE_VSA_FHYD>
0.86799854

>  <PEOE_VSA_FNEG>
0.57986766

>  <PEOE_VSA_FPNEG>
0.064387605

>  <PEOE_VSA_FPOL>
0.13200146

>  <PEOE_VSA_FPOS>
0.42013234

>  <PEOE_VSA_FPPOS>
0.067613862

>  <PEOE_VSA_HYD>
321.35901

>  <PEOE_VSA_NEG>
214.68434

>  <PEOE_VSA_PNEG>
23.838217

>  <PEOE_VSA_POL>
48.870888

>  <PEOE_VSA_POS>
155.54555

>  <PEOE_VSA_PPOS>
25.032671

>  <petitjean>
0.45454547

>  <petitjeanSC>
0.83333331

>  <Q_PC+>
0

>  <Q_PC->
0

>  <Q_RPC+>
0

>  <Q_RPC->
0

>  <Q_VSA_FHYD>
1

>  <Q_VSA_FNEG>
0

>  <Q_VSA_FPNEG>
0

>  <Q_VSA_FPOL>
0

>  <Q_VSA_FPOS>
1

>  <Q_VSA_FPPOS>
0

>  <Q_VSA_HYD>
370.22989

>  <Q_VSA_NEG>
0

>  <Q_VSA_PNEG>
0

>  <Q_VSA_POL>
0

>  <Q_VSA_POS>
370.22989

>  <Q_VSA_PPOS>
0

>  <radius>
6

>  <reactive>
0

>  <rings>
2

>  <RPC+>
0

>  <RPC->
0

>  <rsynth>
1

>  <SlogP>
3.119

>  <SlogP_VSA0>
25.385227

>  <SlogP_VSA1>
10.869778

>  <SlogP_VSA2>
34.862103

>  <SlogP_VSA3>
76.244995

>  <SlogP_VSA4>
6.37115

>  <SlogP_VSA5>
0

>  <SlogP_VSA6>
0

>  <SlogP_VSA7>
176.43184

>  <SlogP_VSA8>
0

>  <SlogP_VSA9>
66.652031

>  <SMR>
9.4746799

>  <SMR_VSA0>
34.862103

>  <SMR_VSA1>
28.509541

>  <SMR_VSA2>
0

>  <SMR_VSA3>
6.37115

>  <SMR_VSA4>
0

>  <SMR_VSA5>
176.43184

>  <SMR_VSA6>
83.990456

>  <SMR_VSA7>
66.652031

>  <TPSA>
49.77

>  <VAdjEq>
0.42571631

>  <VAdjMa>
5.643856

>  <VDistEq>
3.3132536

>  <VDistMa>
8.8925018

>  <vdw_area>
370.22989

>  <vdw_vol>
477.54257

>  <vsa_acc>
13.566921

>  <vsa_acid>
0

>  <vsa_base>
0

>  <vsa_don>
0

>  <vsa_hyd>
304.27591

>  <vsa_other>
17.212255

>  <vsa_pol>
27.133842

>  <Weight>
327.42398

>  <weinerPath>
1364

>  <weinerPol>
38

>  <zagreb>
116

$$$$