N(CC12CCC(c3c1cccc3)c1c2cccc1)C
  MOE2013           2D

 19 22  0  0  0  0  0  0  0  0999 V2000
    0.0000    0.0000    0.0000 N   0  0  0  0  0  0  0  0  0  0  0  0
   -0.1640    1.4910    0.0000 C   0  0  0  0  0  0  0  0  0  0  0  0
    1.0460    2.3780    0.0000 C   0  0  0  0  0  0  0  0  0  0  0  0
    1.0580    0.8460    0.0000 C   0  0  0  0  0  0  0  0  0  0  0  0
    1.6290    1.6370    0.0000 C   0  0  0  0  0  0  0  0  0  0  0  0
    1.6130    4.0630    0.0000 C   0  0  0  0  0  0  0  0  0  0  0  0
    3.0550    4.5230    0.0000 C   0  0  0  0  0  0  0  0  0  0  0  0
    3.0570    3.1330    0.0000 C   0  0  0  0  0  0  0  0  0  0  0  0
    4.2630    2.4350    0.0000 C   0  0  0  0  0  0  0  0  0  0  0  0
    5.4610    3.1370    0.0000 C   0  0  0  0  0  0  0  0  0  0  0  0
    5.4560    4.5270    0.0000 C   0  0  0  0  0  0  0  0  0  0  0  0
    4.2590    5.2170    0.0000 C   0  0  0  0  0  0  0  0  0  0  0  0
   -0.1670    4.4920    0.0000 C   0  0  0  0  0  0  0  0  0  0  0  0
   -0.1650    3.1010    0.0000 C   0  0  0  0  0  0  0  0  0  0  0  0
   -1.3610    2.4010    0.0000 C   0  0  0  0  0  0  0  0  0  0  0  0
   -2.5700    3.0970    0.0000 C   0  0  0  0  0  0  0  0  0  0  0  0
   -2.5680    4.4880    0.0000 C   0  0  0  0  0  0  0  0  0  0  0  0
   -1.3650    5.1810    0.0000 C   0  0  0  0  0  0  0  0  0  0  0  0
   -1.2090   -0.8870    0.0000 C   0  0  0  0  0  0  0  0  0  0  0  0
  1  2  1  0  0  0  0
  1 19  1  0  0  0  0
  2  3  1  0  0  0  0
  3  4  1  0  0  0  0
  3  8  1  0  0  0  0
  3 14  1  0  0  0  0
  4  5  1  0  0  0  0
  5  6  1  0  0  0  0
  6  7  1  0  0  0  0
  6 13  1  0  0  0  0
  7  8  1  0  0  0  0
  7 12  2  0  0  0  0
  8  9  2  0  0  0  0
  9 10  1  0  0  0  0
 10 11  2  0  0  0  0
 11 12  1  0  0  0  0
 13 14  1  0  0  0  0
 13 18  2  0  0  0  0
 14 15  2  0  0  0  0
 15 16  1  0  0  0  0
 16 17  2  0  0  0  0
 17 18  1  0  0  0  0
M  END
>  <Index>
1287

>  <ID>
HT3094

>  <class>
0

>  <apol>
45.449066

>  <ast_fraglike>
0

>  <ast_fraglike_ext>
0

>  <ast_violation>
1

>  <ast_violation_ext>
1

>  <a_acc>
1

>  <a_acid>
0

>  <a_aro>
12

>  <a_base>
0

>  <a_count>
38

>  <a_don>
1

>  <a_donacc>
2

>  <a_heavy>
19

>  <a_hyd>
18

>  <a_IC>
43.651974

>  <a_ICM>
1.1487361

>  <a_nB>
0

>  <a_nBr>
0

>  <a_nC>
18

>  <a_nCl>
0

>  <a_nF>
0

>  <a_nH>
19

>  <a_nI>
0

>  <a_nN>
1

>  <a_nO>
0

>  <a_nP>
0

>  <a_nS>
0

>  <balabanJ>
1.7334358

>  <BCUT_PEOE_0>
-2.7744193

>  <BCUT_PEOE_1>
-0.58017629

>  <BCUT_PEOE_2>
0.6286965

>  <BCUT_PEOE_3>
2.7425835

>  <BCUT_SLOGP_0>
-2.7775228

>  <BCUT_SLOGP_1>
-0.4943341

>  <BCUT_SLOGP_2>
0.69760489

>  <BCUT_SLOGP_3>
2.8303254

>  <BCUT_SMR_0>
-2.4981694

>  <BCUT_SMR_1>
-0.43587479

>  <BCUT_SMR_2>
0.77100915

>  <BCUT_SMR_3>
3.0226412

>  <bpol>
21.430933

>  <b_1rotN>
2

>  <b_1rotR>
0.090909094

>  <b_ar>
12

>  <b_count>
41

>  <b_double>
0

>  <b_heavy>
22

>  <b_max1len>
4

>  <b_rotN>
2

>  <b_rotR>
0.090909094

>  <b_single>
29

>  <b_triple>
0

>  <chi0>
12.872033

>  <chi0v>
11.317472

>  <chi0v_C>
10.817472

>  <chi0_C>
12.164926

>  <chi1>
9.3661385

>  <chi1v>
7.2009592

>  <chi1v_C>
6.3474059

>  <chi1_C>
8.1590319

>  <chiral>
0

>  <chiral_u>
0

>  <density>
0.65808362

>  <diameter>
7

>  <FCharge>
0

>  <GCUT_PEOE_0>
-0.85132003

>  <GCUT_PEOE_1>
-0.38025051

>  <GCUT_PEOE_2>
0.062287871

>  <GCUT_PEOE_3>
2.874496

>  <GCUT_SLOGP_0>
-1.153062

>  <GCUT_SLOGP_1>
-0.27879038

>  <GCUT_SLOGP_2>
0.14232562

>  <GCUT_SLOGP_3>
2.9760621

>  <GCUT_SMR_0>
-0.51408625

>  <GCUT_SMR_1>
-0.20284766

>  <GCUT_SMR_2>
0.17025495

>  <GCUT_SMR_3>
3.1553349

>  <Kier1>
12.719008

>  <Kier2>
4.7768593

>  <Kier3>
1.704142

>  <KierA1>
9.7387838

>  <KierA2>
3.5988896

>  <KierA3>
1.267738

>  <KierFlex>
1.8446742

>  <lip_acc>
1

>  <lip_don>
1

>  <lip_druglike>
1

>  <lip_violation>
0

>  <logP(o/w)>
4.3779998

>  <logS>
-3.9151399

>  <mr>
7.8582568

>  <mutagenic>
0

>  <nmol>
1

>  <opr_brigid>
19

>  <opr_leadlike>
1

>  <opr_nring>
4

>  <opr_nrot>
2

>  <opr_violation>
0

>  <PC+>
0

>  <PC->
0

>  <PEOE_PC+>
1.0235468

>  <PEOE_PC->
-1.0235468

>  <PEOE_RPC+>
0.11887518

>  <PEOE_RPC->
0.31050971

>  <PEOE_VSA+0>
55.846184

>  <PEOE_VSA+1>
34.123089

>  <PEOE_VSA+2>
8.6190128

>  <PEOE_VSA+3>
0

>  <PEOE_VSA+4>
0

>  <PEOE_VSA+5>
0

>  <PEOE_VSA+6>
0

>  <PEOE_VSA-0>
49.475475

>  <PEOE_VSA-1>
98.03923

>  <PEOE_VSA-2>
0

>  <PEOE_VSA-3>
0

>  <PEOE_VSA-4>
0

>  <PEOE_VSA-5>
0

>  <PEOE_VSA-6>
0.13689101

>  <PEOE_VSA_FHYD>
0.99944407

>  <PEOE_VSA_FNEG>
0.59962505

>  <PEOE_VSA_FPNEG>
0.00055592536

>  <PEOE_VSA_FPOL>
0.00055592536

>  <PEOE_VSA_FPOS>
0.40037498

>  <PEOE_VSA_FPPOS>
0

>  <PEOE_VSA_HYD>
246.103

>  <PEOE_VSA_NEG>
147.6516

>  <PEOE_VSA_PNEG>
0.13689101

>  <PEOE_VSA_POL>
0.13689101

>  <PEOE_VSA_POS>
98.588287

>  <PEOE_VSA_PPOS>
0

>  <petitjean>
0.42857143

>  <petitjeanSC>
0.75

>  <Q_PC+>
0

>  <Q_PC->
0

>  <Q_RPC+>
0

>  <Q_RPC->
0

>  <Q_VSA_FHYD>
1

>  <Q_VSA_FNEG>
0

>  <Q_VSA_FPNEG>
0

>  <Q_VSA_FPOL>
0

>  <Q_VSA_FPOS>
1

>  <Q_VSA_FPPOS>
0

>  <Q_VSA_HYD>
246.23988

>  <Q_VSA_NEG>
0

>  <Q_VSA_PNEG>
0

>  <Q_VSA_POL>
0

>  <Q_VSA_POS>
246.23988

>  <Q_VSA_PPOS>
0

>  <radius>
4

>  <reactive>
0

>  <rings>
4

>  <RPC+>
0

>  <RPC->
0

>  <rsynth>
0

>  <SlogP>
3.4312

>  <SlogP_VSA0>
18.01075

>  <SlogP_VSA1>
0

>  <SlogP_VSA2>
0

>  <SlogP_VSA3>
18.439579

>  <SlogP_VSA4>
12.7423

>  <SlogP_VSA5>
32.897186

>  <SlogP_VSA6>
4.4107962

>  <SlogP_VSA7>
141.14548

>  <SlogP_VSA8>
37.736813

>  <SlogP_VSA9>
0

>  <SMR>
7.8667698

>  <SMR_VSA0>
0

>  <SMR_VSA1>
0

>  <SMR_VSA2>
18.01075

>  <SMR_VSA3>
17.153095

>  <SMR_VSA4>
0

>  <SMR_VSA5>
178.88228

>  <SMR_VSA6>
18.439579

>  <SMR_VSA7>
32.897186

>  <TPSA>
12.03

>  <VAdjEq>
0.53475124

>  <VAdjMa>
5.4594316

>  <VDistEq>
2.6117952

>  <VDistMa>
8.2566395

>  <vdw_area>
246.23988

>  <vdw_vol>
378.91385

>  <vsa_acc>
0

>  <vsa_acid>
0

>  <vsa_base>
0

>  <vsa_don>
0

>  <vsa_hyd>
223.32661

>  <vsa_other>
0

>  <vsa_pol>
5.6825762

>  <Weight>
249.35699

>  <weinerPath>
578

>  <weinerPol>
38

>  <zagreb>
110

$$$$