Oc1ccc(cc1)C(OCCC)=O
  MOE2013           2D

 13 13  0  0  0  0  0  0  0  0999 V2000
    0.0000    0.0000    0.0000 O   0  0  0  0  0  0  0  0  0  0  0  0
    1.5000    0.0070    0.0000 C   0  0  0  0  0  0  0  0  0  0  0  0
    2.2560   -1.2890    0.0000 C   0  0  0  0  0  0  0  0  0  0  0  0
    3.7560   -1.2820    0.0000 C   0  0  0  0  0  0  0  0  0  0  0  0
    4.5000    0.0210    0.0000 C   0  0  0  0  0  0  0  0  0  0  0  0
    3.7440    1.3160    0.0000 C   0  0  0  0  0  0  0  0  0  0  0  0
    2.2440    1.3090    0.0000 C   0  0  0  0  0  0  0  0  0  0  0  0
    6.0000    0.0270    0.0000 C   0  0  0  0  0  0  0  0  0  0  0  0
    6.7560   -1.2680    0.0000 O   0  0  0  0  0  0  0  0  0  0  0  0
    8.2560   -1.2610    0.0000 C   0  0  0  0  0  0  0  0  0  0  0  0
    9.0120   -2.5570    0.0000 C   0  0  0  0  0  0  0  0  0  0  0  0
   10.5120   -2.5500    0.0000 C   0  0  0  0  0  0  0  0  0  0  0  0
    6.7440    1.3300    0.0000 O   0  0  0  0  0  0  0  0  0  0  0  0
  1  2  1  0  0  0  0
  2  3  1  0  0  0  0
  2  7  2  0  0  0  0
  3  4  2  0  0  0  0
  4  5  1  0  0  0  0
  5  6  2  0  0  0  0
  5  8  1  0  0  0  0
  6  7  1  0  0  0  0
  8  9  1  0  0  0  0
  8 13  2  0  0  0  0
  9 10  1  0  0  0  0
 10 11  1  0  0  0  0
 11 12  1  0  0  0  0
M  END
>  <Index>
1247

>  <ID>
HT2774

>  <class>
0

>  <apol>
28.007517

>  <ast_fraglike>
1

>  <ast_fraglike_ext>
1

>  <ast_violation>
0

>  <ast_violation_ext>
0

>  <a_acc>
2

>  <a_acid>
0

>  <a_aro>
6

>  <a_base>
0

>  <a_count>
25

>  <a_don>
1

>  <a_donacc>
3

>  <a_heavy>
13

>  <a_hyd>
9

>  <a_IC>
35.102688

>  <a_ICM>
1.4041075

>  <a_nB>
0

>  <a_nBr>
0

>  <a_nC>
10

>  <a_nCl>
0

>  <a_nF>
0

>  <a_nH>
12

>  <a_nI>
0

>  <a_nN>
0

>  <a_nO>
3

>  <a_nP>
0

>  <a_nS>
0

>  <balabanJ>
2.2117229

>  <BCUT_PEOE_0>
-2.4918132

>  <BCUT_PEOE_1>
-0.64125735

>  <BCUT_PEOE_2>
0.70453554

>  <BCUT_PEOE_3>
2.4684696

>  <BCUT_SLOGP_0>
-2.4555948

>  <BCUT_SLOGP_1>
-0.53807992

>  <BCUT_SLOGP_2>
0.80529219

>  <BCUT_SLOGP_3>
2.5380719

>  <BCUT_SMR_0>
-2.261693

>  <BCUT_SMR_1>
-0.49986199

>  <BCUT_SMR_2>
0.85431087

>  <BCUT_SMR_3>
2.6993117

>  <bpol>
15.992484

>  <b_1rotN>
3

>  <b_1rotR>
0.23076923

>  <b_ar>
6

>  <b_count>
25

>  <b_double>
1

>  <b_heavy>
13

>  <b_max1len>
4

>  <b_rotN>
4

>  <b_rotR>
0.30769232

>  <b_single>
18

>  <b_triple>
0

>  <chi0>
9.681798

>  <chi0v>
7.4873247

>  <chi0v_C>
6.2236147

>  <chi0_C>
6.9746914

>  <chi1>
6.236382

>  <chi1v>
4.1990042

>  <chi1v_C>
3.2784741

>  <chi1_C>
4.1734333

>  <chiral>
0

>  <chiral_u>
0

>  <density>
0.7297172

>  <diameter>
9

>  <FCharge>
0

>  <GCUT_PEOE_0>
-0.77336669

>  <GCUT_PEOE_1>
-0.37958723

>  <GCUT_PEOE_2>
0.083391428

>  <GCUT_PEOE_3>
2.1759851

>  <GCUT_SLOGP_0>
-0.83159995

>  <GCUT_SLOGP_1>
-0.26386139

>  <GCUT_SLOGP_2>
0.16445385

>  <GCUT_SLOGP_3>
2.2694297

>  <GCUT_SMR_0>
-0.52350843

>  <GCUT_SMR_1>
-0.21605732

>  <GCUT_SMR_2>
0.19305076

>  <GCUT_SMR_3>
2.4347064

>  <Kier1>
11.076923

>  <Kier2>
5.671875

>  <Kier3>
3.7037036

>  <KierA1>
8.4107523

>  <KierA2>
4.197648

>  <KierA3>
2.6816823

>  <KierFlex>
2.7157981

>  <lip_acc>
3

>  <lip_don>
1

>  <lip_druglike>
1

>  <lip_violation>
0

>  <logP(o/w)>
2.494

>  <logS>
-1.93364

>  <mr>
5.0207329

>  <mutagenic>
0

>  <nmol>
1

>  <opr_brigid>
6

>  <opr_leadlike>
1

>  <opr_nring>
1

>  <opr_nrot>
3

>  <opr_violation>
0

>  <PC+>
0

>  <PC->
0

>  <PEOE_PC+>
1.1806802

>  <PEOE_PC->
-1.1806802

>  <PEOE_RPC+>
0.24884912

>  <PEOE_RPC->
0.30476677

>  <PEOE_VSA+0>
23.535469

>  <PEOE_VSA+1>
49.002129

>  <PEOE_VSA+2>
0

>  <PEOE_VSA+3>
0

>  <PEOE_VSA+4>
10.324173

>  <PEOE_VSA+5>
14.708499

>  <PEOE_VSA+6>
0

>  <PEOE_VSA-0>
57.720928

>  <PEOE_VSA-1>
18.747677

>  <PEOE_VSA-2>
0

>  <PEOE_VSA-3>
0

>  <PEOE_VSA-4>
0

>  <PEOE_VSA-5>
13.566921

>  <PEOE_VSA-6>
10.271297

>  <PEOE_VSA_FHYD>
0.75302404

>  <PEOE_VSA_FNEG>
0.50691479

>  <PEOE_VSA_FPNEG>
0.12046982

>  <PEOE_VSA_FPOL>
0.24697597

>  <PEOE_VSA_FPOS>
0.49308521

>  <PEOE_VSA_FPPOS>
0.12650616

>  <PEOE_VSA_HYD>
149.00621

>  <PEOE_VSA_NEG>
100.30682

>  <PEOE_VSA_PNEG>
23.838217

>  <PEOE_VSA_POL>
48.870888

>  <PEOE_VSA_POS>
97.570267

>  <PEOE_VSA_PPOS>
25.032671

>  <petitjean>
0.44444445

>  <petitjeanSC>
0.80000001

>  <Q_PC+>
0

>  <Q_PC->
0

>  <Q_RPC+>
0

>  <Q_RPC->
0

>  <Q_VSA_FHYD>
1

>  <Q_VSA_FNEG>
0

>  <Q_VSA_FPNEG>
0

>  <Q_VSA_FPOL>
0

>  <Q_VSA_FPOS>
1

>  <Q_VSA_FPPOS>
0

>  <Q_VSA_HYD>
197.87709

>  <Q_VSA_NEG>
0

>  <Q_VSA_PNEG>
0

>  <Q_VSA_POL>
0

>  <Q_VSA_POS>
197.87709

>  <Q_VSA_PPOS>
0

>  <radius>
5

>  <reactive>
0

>  <rings>
1

>  <RPC+>
0

>  <RPC->
0

>  <rsynth>
1

>  <SlogP>
1.959

>  <SlogP_VSA0>
25.385227

>  <SlogP_VSA1>
7.7454643

>  <SlogP_VSA2>
10.999887

>  <SlogP_VSA3>
20.926258

>  <SlogP_VSA4>
27.047791

>  <SlogP_VSA5>
0

>  <SlogP_VSA6>
0

>  <SlogP_VSA7>
70.572739

>  <SlogP_VSA8>
18.868406

>  <SlogP_VSA9>
38.569443

>  <SMR>
4.8680301

>  <SMR_VSA0>
34.862103

>  <SMR_VSA1>
25.385227

>  <SMR_VSA2>
0

>  <SMR_VSA3>
8.4290028

>  <SMR_VSA4>
0

>  <SMR_VSA5>
89.441139

>  <SMR_VSA6>
28.671722

>  <SMR_VSA7>
33.326015

>  <TPSA>
46.529999

>  <VAdjEq>
0.6193822

>  <VAdjMa>
4.7004399

>  <VDistEq>
2.8630478

>  <VDistMa>
7.0560112

>  <vdw_area>
197.87709

>  <vdw_vol>
246.94908

>  <vsa_acc>
13.566921

>  <vsa_acid>
0

>  <vsa_base>
0

>  <vsa_don>
0

>  <vsa_hyd>
141.17645

>  <vsa_other>
17.212255

>  <vsa_pol>
27.133842

>  <Weight>
180.203

>  <weinerPath>
274

>  <weinerPol>
15

>  <zagreb>
58

$$$$