O(C(=O)c1ccccc1)c1c2ncccc2ccc1
  MOE2013           2D

 19 21  0  0  0  0  0  0  0  0999 V2000
    0.0000    0.0000    0.0000 O   0  0  0  0  0  0  0  0  0  0  0  0
    0.7490   -1.3000    0.0000 C   0  0  0  0  0  0  0  0  0  0  0  0
   -0.0030   -2.5980    0.0000 O   0  0  0  0  0  0  0  0  0  0  0  0
    2.2490   -1.3010    0.0000 C   0  0  0  0  0  0  0  0  0  0  0  0
    3.0000   -0.0030    0.0000 C   0  0  0  0  0  0  0  0  0  0  0  0
    4.5000   -0.0050    0.0000 C   0  0  0  0  0  0  0  0  0  0  0  0
    5.2490   -1.3050    0.0000 C   0  0  0  0  0  0  0  0  0  0  0  0
    4.4970   -2.6030    0.0000 C   0  0  0  0  0  0  0  0  0  0  0  0
    2.9970   -2.6010    0.0000 C   0  0  0  0  0  0  0  0  0  0  0  0
   -1.5000    0.0020    0.0000 C   0  0  0  0  0  0  0  0  0  0  0  0
   -2.2490    1.3010    0.0000 C   0  0  0  0  0  0  0  0  0  0  0  0
   -1.4970    2.6000    0.0000 N   0  0  0  0  0  0  0  0  0  0  0  0
   -2.2460    3.9000    0.0000 C   0  0  0  0  0  0  0  0  0  0  0  0
   -3.7460    3.9010    0.0000 C   0  0  0  0  0  0  0  0  0  0  0  0
   -4.4970    2.6030    0.0000 C   0  0  0  0  0  0  0  0  0  0  0  0
   -3.7490    1.3030    0.0000 C   0  0  0  0  0  0  0  0  0  0  0  0
   -4.5000    0.0050    0.0000 C   0  0  0  0  0  0  0  0  0  0  0  0
   -3.7510   -1.2950    0.0000 C   0  0  0  0  0  0  0  0  0  0  0  0
   -2.2510   -1.2970    0.0000 C   0  0  0  0  0  0  0  0  0  0  0  0
  1  2  1  0  0  0  0
  1 10  1  0  0  0  0
  2  3  2  0  0  0  0
  2  4  1  0  0  0  0
  4  5  1  0  0  0  0
  4  9  2  0  0  0  0
  5  6  2  0  0  0  0
  6  7  1  0  0  0  0
  7  8  2  0  0  0  0
  8  9  1  0  0  0  0
 10 11  1  0  0  0  0
 10 19  2  0  0  0  0
 11 12  1  0  0  0  0
 11 16  2  0  0  0  0
 12 13  2  0  0  0  0
 13 14  1  0  0  0  0
 14 15  2  0  0  0  0
 15 16  1  0  0  0  0
 16 17  1  0  0  0  0
 17 18  2  0  0  0  0
 18 19  1  0  0  0  0
M  END
>  <Index>
1286

>  <ID>
HT3090

>  <class>
0

>  <apol>
38.198723

>  <ast_fraglike>
0

>  <ast_fraglike_ext>
0

>  <ast_violation>
1

>  <ast_violation_ext>
1

>  <a_acc>
2

>  <a_acid>
0

>  <a_aro>
16

>  <a_base>
0

>  <a_count>
30

>  <a_don>
0

>  <a_donacc>
2

>  <a_heavy>
19

>  <a_hyd>
15

>  <a_IC>
43.152969

>  <a_ICM>
1.4384323

>  <a_nB>
0

>  <a_nBr>
0

>  <a_nC>
16

>  <a_nCl>
0

>  <a_nF>
0

>  <a_nH>
11

>  <a_nI>
0

>  <a_nN>
1

>  <a_nO>
2

>  <a_nP>
0

>  <a_nS>
0

>  <balabanJ>
1.5565218

>  <BCUT_PEOE_0>
-2.2062058

>  <BCUT_PEOE_1>
-0.63292855

>  <BCUT_PEOE_2>
0.6754362

>  <BCUT_PEOE_3>
2.2167804

>  <BCUT_SLOGP_0>
-2.1567743

>  <BCUT_SLOGP_1>
-0.53021663

>  <BCUT_SLOGP_2>
0.77805835

>  <BCUT_SLOGP_3>
2.3751109

>  <BCUT_SMR_0>
-1.8837681

>  <BCUT_SMR_1>
-0.47379872

>  <BCUT_SMR_2>
0.83702499

>  <BCUT_SMR_3>
2.5361135

>  <bpol>
16.219276

>  <b_1rotN>
2

>  <b_1rotR>
0.095238097

>  <b_ar>
17

>  <b_count>
32

>  <b_double>
1

>  <b_heavy>
21

>  <b_max1len>
1

>  <b_rotN>
3

>  <b_rotR>
0.14285715

>  <b_single>
14

>  <b_triple>
0

>  <chi0>
13.07914

>  <chi0v>
10.114563

>  <chi0v_C>
8.850853

>  <chi0_C>
10.664926

>  <chi1>
9.3433371

>  <chi1v>
5.9542203

>  <chi1v_C>
4.8600426

>  <chi1_C>
7.0412416

>  <chiral>
0

>  <chiral_u>
0

>  <density>
0.72661555

>  <diameter>
10

>  <FCharge>
0

>  <GCUT_PEOE_0>
-0.74707657

>  <GCUT_PEOE_1>
-0.41802114

>  <GCUT_PEOE_2>
0.078667328

>  <GCUT_PEOE_3>
2.3046308

>  <GCUT_SLOGP_0>
-0.89852732

>  <GCUT_SLOGP_1>
-0.2983706

>  <GCUT_SLOGP_2>
0.16351606

>  <GCUT_SLOGP_3>
2.4519792

>  <GCUT_SMR_0>
-0.4033348

>  <GCUT_SMR_1>
-0.21372248

>  <GCUT_SMR_2>
0.19206819

>  <GCUT_SMR_3>
2.6156318

>  <Kier1>
13.959184

>  <Kier2>
6.6352043

>  <Kier3>
3.3659606

>  <KierA1>
9.126008

>  <KierA2>
4.2244139

>  <KierA3>
2.0987637

>  <KierFlex>
2.0290544

>  <lip_acc>
3

>  <lip_don>
0

>  <lip_druglike>
1

>  <lip_violation>
0

>  <logP(o/w)>
3.701

>  <logS>
-4.0874801

>  <mr>
7.455451

>  <mutagenic>
0

>  <nmol>
1

>  <opr_brigid>
17

>  <opr_leadlike>
1

>  <opr_nring>
3

>  <opr_nrot>
2

>  <opr_violation>
0

>  <PC+>
0

>  <PC->
0

>  <PEOE_PC+>
1.2984576

>  <PEOE_PC->
-1.2984576

>  <PEOE_RPC+>
0.23014237

>  <PEOE_RPC->
0.20931329

>  <PEOE_VSA+0>
21.162994

>  <PEOE_VSA+1>
46.919247

>  <PEOE_VSA+2>
15.158071

>  <PEOE_VSA+3>
0

>  <PEOE_VSA+4>
0

>  <PEOE_VSA+5>
14.708499

>  <PEOE_VSA+6>
0

>  <PEOE_VSA-0>
49.019615

>  <PEOE_VSA-1>
73.529427

>  <PEOE_VSA-2>
0

>  <PEOE_VSA-3>
0

>  <PEOE_VSA-4>
0

>  <PEOE_VSA-5>
21.753254

>  <PEOE_VSA-6>
0

>  <PEOE_VSA_FHYD>
0.84948778

>  <PEOE_VSA_FNEG>
0.59567237

>  <PEOE_VSA_FPNEG>
0.089796305

>  <PEOE_VSA_FPOL>
0.15051222

>  <PEOE_VSA_FPOS>
0.4043276

>  <PEOE_VSA_FPPOS>
0.060715921

>  <PEOE_VSA_HYD>
205.78935

>  <PEOE_VSA_NEG>
144.30229

>  <PEOE_VSA_PNEG>
21.753254

>  <PEOE_VSA_POL>
36.461754

>  <PEOE_VSA_POS>
97.948814

>  <PEOE_VSA_PPOS>
14.708499

>  <petitjean>
0.5

>  <petitjeanSC>
1

>  <Q_PC+>
0

>  <Q_PC->
0

>  <Q_RPC+>
0

>  <Q_RPC->
0

>  <Q_VSA_FHYD>
1

>  <Q_VSA_FNEG>
0

>  <Q_VSA_FPNEG>
0

>  <Q_VSA_FPOL>
0

>  <Q_VSA_FPOS>
1

>  <Q_VSA_FPPOS>
0

>  <Q_VSA_HYD>
242.2511

>  <Q_VSA_NEG>
0

>  <Q_VSA_PNEG>
0

>  <Q_VSA_POL>
0

>  <Q_VSA_POS>
242.2511

>  <Q_VSA_PPOS>
0

>  <radius>
5

>  <reactive>
0

>  <rings>
3

>  <RPC+>
0

>  <RPC->
0

>  <rsynth>
1

>  <SlogP>
3.454

>  <SlogP_VSA0>
10.999887

>  <SlogP_VSA1>
24.530994

>  <SlogP_VSA2>
0

>  <SlogP_VSA3>
0

>  <SlogP_VSA4>
27.047791

>  <SlogP_VSA5>
0

>  <SlogP_VSA6>
0

>  <SlogP_VSA7>
198.3633

>  <SlogP_VSA8>
0

>  <SlogP_VSA9>
5.2434282

>  <SMR>
7.3143501

>  <SMR_VSA0>
23.862217

>  <SMR_VSA1>
27.785418

>  <SMR_VSA2>
0

>  <SMR_VSA3>
8.4290028

>  <SMR_VSA4>
4.7171016

>  <SMR_VSA5>
193.64619

>  <SMR_VSA6>
7.7454643

>  <SMR_VSA7>
0

>  <TPSA>
39.189999

>  <VAdjEq>
0.51875818

>  <VAdjMa>
5.3923173

>  <VDistEq>
3.0865481

>  <VDistMa>
8.1949959

>  <vdw_area>
242.2511

>  <vdw_vol>
343.05487

>  <vsa_acc>
19.249496

>  <vsa_acid>
0

>  <vsa_base>
0

>  <vsa_don>
0

>  <vsa_hyd>
197.95959

>  <vsa_other>
17.212255

>  <vsa_pol>
19.249496

>  <Weight>
249.269

>  <weinerPath>
716

>  <weinerPol>
28

>  <zagreb>
98

$$$$