O(C(=O)C)c1ccccc1C(Oc1ccc(NC(=O)C)cc1)=O
  MOE2013           2D

 23 24  0  0  0  0  0  0  0  0999 V2000
    0.0000    0.0000    0.0000 O   0  0  0  0  0  0  0  0  0  0  0  0
   -1.2980   -0.7520    0.0000 C   0  0  0  0  0  0  0  0  0  0  0  0
   -1.2960   -2.2520    0.0000 O   0  0  0  0  0  0  0  0  0  0  0  0
   -2.5980   -0.0040    0.0000 C   0  0  0  0  0  0  0  0  0  0  0  0
   -0.0020    1.5000    0.0000 C   0  0  0  0  0  0  0  0  0  0  0  0
   -1.3020    2.2480    0.0000 C   0  0  0  0  0  0  0  0  0  0  0  0
   -1.3040    3.7480    0.0000 C   0  0  0  0  0  0  0  0  0  0  0  0
   -0.0060    4.5000    0.0000 C   0  0  0  0  0  0  0  0  0  0  0  0
    1.2940    3.7520    0.0000 C   0  0  0  0  0  0  0  0  0  0  0  0
    1.2960    2.2520    0.0000 C   0  0  0  0  0  0  0  0  0  0  0  0
    2.5960    1.5040    0.0000 C   0  0  0  0  0  0  0  0  0  0  0  0
    3.8940    2.2560    0.0000 O   0  0  0  0  0  0  0  0  0  0  0  0
    5.1940    1.5070    0.0000 C   0  0  0  0  0  0  0  0  0  0  0  0
    6.4920    2.2590    0.0000 C   0  0  0  0  0  0  0  0  0  0  0  0
    7.7920    1.5110    0.0000 C   0  0  0  0  0  0  0  0  0  0  0  0
    7.7940    0.0110    0.0000 C   0  0  0  0  0  0  0  0  0  0  0  0
    9.0940   -0.7370    0.0000 N   0  0  0  0  0  0  0  0  0  0  0  0
   10.3920    0.0150    0.0000 C   0  0  0  0  0  0  0  0  0  0  0  0
   10.3900    1.5150    0.0000 O   0  0  0  0  0  0  0  0  0  0  0  0
   11.6920   -0.7330    0.0000 C   0  0  0  0  0  0  0  0  0  0  0  0
    6.4960   -0.7410    0.0000 C   0  0  0  0  0  0  0  0  0  0  0  0
    5.1960    0.0070    0.0000 C   0  0  0  0  0  0  0  0  0  0  0  0
    2.5980    0.0040    0.0000 O   0  0  0  0  0  0  0  0  0  0  0  0
  1  2  1  0  0  0  0
  1  5  1  0  0  0  0
  2  3  2  0  0  0  0
  2  4  1  0  0  0  0
  5  6  1  0  0  0  0
  5 10  2  0  0  0  0
  6  7  2  0  0  0  0
  7  8  1  0  0  0  0
  8  9  2  0  0  0  0
  9 10  1  0  0  0  0
 10 11  1  0  0  0  0
 11 12  1  0  0  0  0
 11 23  2  0  0  0  0
 12 13  1  0  0  0  0
 13 14  1  0  0  0  0
 13 22  2  0  0  0  0
 14 15  2  0  0  0  0
 15 16  1  0  0  0  0
 16 17  1  0  0  0  0
 16 21  2  0  0  0  0
 17 18  1  0  0  0  0
 18 19  2  0  0  0  0
 18 20  1  0  0  0  0
 21 22  1  0  0  0  0
M  END
>  <Index>
117

>  <ID>
HT0238

>  <class>
0

>  <apol>
45.031895

>  <ast_fraglike>
0

>  <ast_fraglike_ext>
0

>  <ast_violation>
1

>  <ast_violation_ext>
2

>  <a_acc>
3

>  <a_acid>
0

>  <a_aro>
12

>  <a_base>
0

>  <a_count>
38

>  <a_don>
1

>  <a_donacc>
4

>  <a_heavy>
23

>  <a_hyd>
14

>  <a_IC>
59.721378

>  <a_ICM>
1.5716152

>  <a_nB>
0

>  <a_nBr>
0

>  <a_nC>
17

>  <a_nCl>
0

>  <a_nF>
0

>  <a_nH>
15

>  <a_nI>
0

>  <a_nN>
1

>  <a_nO>
5

>  <a_nP>
0

>  <a_nS>
0

>  <balabanJ>
1.7842094

>  <BCUT_PEOE_0>
-2.3022141

>  <BCUT_PEOE_1>
-0.56903994

>  <BCUT_PEOE_2>
0.57076293

>  <BCUT_PEOE_3>
2.2921391

>  <BCUT_SLOGP_0>
-2.349777

>  <BCUT_SLOGP_1>
-0.5122354

>  <BCUT_SLOGP_2>
0.6511718

>  <BCUT_SLOGP_3>
2.3965816

>  <BCUT_SMR_0>
-1.985239

>  <BCUT_SMR_1>
-0.38511881

>  <BCUT_SMR_2>
0.72757357

>  <BCUT_SMR_3>
2.5999904

>  <bpol>
23.764105

>  <b_1rotN>
4

>  <b_1rotR>
0.16666667

>  <b_ar>
12

>  <b_count>
39

>  <b_double>
3

>  <b_heavy>
24

>  <b_max1len>
2

>  <b_rotN>
7

>  <b_rotR>
0.29166666

>  <b_single>
24

>  <b_triple>
0

>  <chi0>
16.819626

>  <chi0v>
12.660044

>  <chi0v_C>
10.118802

>  <chi0_C>
11.698306

>  <chi1>
10.952397

>  <chi1v>
6.8275867

>  <chi1v_C>
4.8987174

>  <chi1_C>
6.7708569

>  <chiral>
0

>  <chiral_u>
0

>  <density>
0.76954365

>  <diameter>
13

>  <FCharge>
0

>  <GCUT_PEOE_0>
-0.81392801

>  <GCUT_PEOE_1>
-0.46614513

>  <GCUT_PEOE_2>
0.073146023

>  <GCUT_PEOE_3>
2.3442562

>  <GCUT_SLOGP_0>
-0.9973653

>  <GCUT_SLOGP_1>
-0.33895051

>  <GCUT_SLOGP_2>
0.12861961

>  <GCUT_SLOGP_3>
2.4604318

>  <GCUT_SMR_0>
-0.4690294

>  <GCUT_SMR_1>
-0.21480584

>  <GCUT_SMR_2>
0.1834999

>  <GCUT_SMR_3>
2.6329832

>  <Kier1>
19.326389

>  <Kier2>
9.4746094

>  <Kier3>
6.4280496

>  <KierA1>
13.268682

>  <KierA2>
6.3833399

>  <KierA3>
4.2689967

>  <KierFlex>
3.6825438

>  <lip_acc>
6

>  <lip_don>
1

>  <lip_druglike>
1

>  <lip_violation>
0

>  <logP(o/w)>
2.723

>  <logS>
-4.0619102

>  <mr>
8.4906149

>  <mutagenic>
0

>  <nmol>
1

>  <opr_brigid>
12

>  <opr_leadlike>
1

>  <opr_nring>
2

>  <opr_nrot>
4

>  <opr_violation>
0

>  <PC+>
0

>  <PC->
0

>  <PEOE_PC+>
2.0009005

>  <PEOE_PC->
-2.0009005

>  <PEOE_RPC+>
0.15057731

>  <PEOE_RPC->
0.16310826

>  <PEOE_VSA+0>
69.787224

>  <PEOE_VSA+1>
53.248665

>  <PEOE_VSA+2>
0

>  <PEOE_VSA+3>
8.6190128

>  <PEOE_VSA+4>
12.949531

>  <PEOE_VSA+5>
14.708499

>  <PEOE_VSA+6>
14.708499

>  <PEOE_VSA-0>
73.529427

>  <PEOE_VSA-1>
24.509808

>  <PEOE_VSA-2>
0

>  <PEOE_VSA-3>
0

>  <PEOE_VSA-4>
0

>  <PEOE_VSA-5>
45.708275

>  <PEOE_VSA-6>
0.13689101

>  <PEOE_VSA_FHYD>
0.72252256

>  <PEOE_VSA_FNEG>
0.45260069

>  <PEOE_VSA_FPNEG>
0.14420989

>  <PEOE_VSA_FPOL>
0.27747744

>  <PEOE_VSA_FPOS>
0.54739928

>  <PEOE_VSA_FPPOS>
0.13326755

>  <PEOE_VSA_HYD>
229.69414

>  <PEOE_VSA_NEG>
143.8844

>  <PEOE_VSA_PNEG>
45.845165

>  <PEOE_VSA_POL>
88.211693

>  <PEOE_VSA_POS>
174.02144

>  <PEOE_VSA_PPOS>
42.366531

>  <petitjean>
0.46153846

>  <petitjeanSC>
0.85714287

>  <Q_PC+>
0

>  <Q_PC->
0

>  <Q_RPC+>
0

>  <Q_RPC->
0

>  <Q_VSA_FHYD>
1

>  <Q_VSA_FNEG>
0

>  <Q_VSA_FPNEG>
0

>  <Q_VSA_FPOL>
0

>  <Q_VSA_FPOS>
1

>  <Q_VSA_FPPOS>
0

>  <Q_VSA_HYD>
317.90582

>  <Q_VSA_NEG>
0

>  <Q_VSA_PNEG>
0

>  <Q_VSA_POL>
0

>  <Q_VSA_POS>
317.90582

>  <Q_VSA_PPOS>
0

>  <radius>
7

>  <reactive>
0

>  <rings>
2

>  <RPC+>
0

>  <RPC->
0

>  <rsynth>
1

>  <SlogP>
2.7895

>  <SlogP_VSA0>
21.999775

>  <SlogP_VSA1>
38.760464

>  <SlogP_VSA2>
47.724434

>  <SlogP_VSA3>
0

>  <SlogP_VSA4>
27.047791

>  <SlogP_VSA5>
0

>  <SlogP_VSA6>
0

>  <SlogP_VSA7>
141.14548

>  <SlogP_VSA8>
0

>  <SlogP_VSA9>
79.89563

>  <SMR>
8.34552

>  <SMR_VSA0>
71.586647

>  <SMR_VSA1>
21.999775

>  <SMR_VSA2>
0

>  <SMR_VSA3>
13.672431

>  <SMR_VSA4>
20.767498

>  <SMR_VSA5>
141.14548

>  <SMR_VSA6>
20.749712

>  <SMR_VSA7>
66.652031

>  <TPSA>
81.699997

>  <VAdjEq>
0.43892586

>  <VAdjMa>
5.5849624

>  <VDistEq>
3.5098574

>  <VDistMa>
8.7268877

>  <vdw_area>
317.90582

>  <vdw_vol>
407.13608

>  <vsa_acc>
40.700764

>  <vsa_acid>
0

>  <vsa_base>
0

>  <vsa_don>
5.6825762

>  <vsa_hyd>
211.10999

>  <vsa_other>
47.374043

>  <vsa_pol>
46.383339

>  <Weight>
313.30899

>  <weinerPath>
1342

>  <weinerPol>
31

>  <zagreb>
112

$$$$