O1[C@H](CO)[C@@H](O)[C@H](N)[C@@H](O)[C@H]1O[C@@H]1[C@@H](O)[C@H](O[C@H]2O[C@H](CN)[C@@H](O)C[C@H]2N)[C@@H](N)C[C@H]1N
  MOE2013           2D

 32 34  0  0  1  0  0  0  0  0999 V2000
    0.0000    0.0000    0.0000 O   0  0  0  0  0  0  0  0  0  0  0  0
   -1.2970   -0.7540    0.0000 C   0  0  2  0  0  0  0  0  0  0  0  0
   -1.2920   -2.2540    0.0000 C   0  0  0  0  0  0  0  0  0  0  0  0
   -2.5880   -3.0080    0.0000 O   0  0  0  0  0  0  0  0  0  0  0  0
   -2.5980   -0.0080    0.0000 C   0  0  1  0  0  0  0  0  0  0  0  0
   -3.8950   -0.7630    0.0000 O   0  0  0  0  0  0  0  0  0  0  0  0
   -2.6030    1.4920    0.0000 C   0  0  2  0  0  0  0  0  0  0  0  0
   -3.9040    2.2370    0.0000 N   0  0  0  0  0  0  0  0  0  0  0  0
   -1.3060    2.2460    0.0000 C   0  0  1  0  0  0  0  0  0  0  0  0
   -1.3110    3.7460    0.0000 O   0  0  0  0  0  0  0  0  0  0  0  0
   -0.0050    1.5000    0.0000 C   0  0  1  0  0  0  0  0  0  0  0  0
    1.2920    2.2540    0.0000 O   0  0  0  0  0  0  0  0  0  0  0  0
    2.5930    1.5080    0.0000 C   0  0  2  0  0  0  0  0  0  0  0  0
    3.8900    2.2630    0.0000 C   0  0  1  0  0  0  0  0  0  0  0  0
    3.8850    3.7630    0.0000 O   0  0  0  0  0  0  0  0  0  0  0  0
    5.1910    1.5170    0.0000 C   0  0  2  0  0  0  0  0  0  0  0  0
    6.4880    2.2710    0.0000 O   0  0  0  0  0  0  0  0  0  0  0  0
    7.7890    1.5250    0.0000 C   0  0  1  0  0  0  0  0  0  0  0  0
    7.7940    0.0250    0.0000 O   0  0  0  0  0  0  0  0  0  0  0  0
    9.0960   -0.7210    0.0000 C   0  0  2  0  0  0  0  0  0  0  0  0
    9.1000   -2.2210    0.0000 C   0  0  0  0  0  0  0  0  0  0  0  0
   10.4020   -2.9670    0.0000 N   0  0  0  0  0  0  0  0  0  0  0  0
   10.3920    0.0330    0.0000 C   0  0  1  0  0  0  0  0  0  0  0  0
   11.6940   -0.7120    0.0000 O   0  0  0  0  0  0  0  0  0  0  0  0
   10.3870    1.5330    0.0000 C   0  0  0  0  0  0  0  0  0  0  0  0
    9.0860    2.2790    0.0000 C   0  0  1  0  0  0  0  0  0  0  0  0
    9.0810    3.7790    0.0000 N   0  0  0  0  0  0  0  0  0  0  0  0
    5.1960    0.0170    0.0000 C   0  0  1  0  0  0  0  0  0  0  0  0
    6.4980   -0.7290    0.0000 N   0  0  0  0  0  0  0  0  0  0  0  0
    3.9000   -0.7370    0.0000 C   0  0  0  0  0  0  0  0  0  0  0  0
    2.5980    0.0080    0.0000 C   0  0  1  0  0  0  0  0  0  0  0  0
    1.3010   -0.7460    0.0000 N   0  0  0  0  0  0  0  0  0  0  0  0
  1  2  1  0  0  0  0
  1 11  1  0  0  0  0
  2  3  1  6  0  0  0
  2  5  1  0  0  0  0
  3  4  1  0  0  0  0
  5  6  1  1  0  0  0
  5  7  1  0  0  0  0
  7  8  1  6  0  0  0
  7  9  1  0  0  0  0
  9 10  1  1  0  0  0
  9 11  1  0  0  0  0
 11 12  1  1  0  0  0
 13 12  1  6  0  0  0
 13 14  1  0  0  0  0
 13 31  1  0  0  0  0
 14 15  1  1  0  0  0
 14 16  1  0  0  0  0
 16 17  1  6  0  0  0
 16 28  1  0  0  0  0
 18 17  1  6  0  0  0
 18 19  1  0  0  0  0
 18 26  1  0  0  0  0
 19 20  1  0  0  0  0
 20 21  1  1  0  0  0
 20 23  1  0  0  0  0
 21 22  1  0  0  0  0
 23 24  1  6  0  0  0
 23 25  1  0  0  0  0
 25 26  1  0  0  0  0
 26 27  1  6  0  0  0
 28 29  1  1  0  0  0
 28 30  1  0  0  0  0
 30 31  1  0  0  0  0
 31 32  1  1  0  0  0
M  END
>  <Index>
1081

>  <ID>
HT2073

>  <class>
0

>  <apol>
69.069344

>  <ast_fraglike>
0

>  <ast_fraglike_ext>
0

>  <ast_violation>
3

>  <ast_violation_ext>
5

>  <a_acc>
14

>  <a_acid>
0

>  <a_aro>
0

>  <a_base>
0

>  <a_count>
69

>  <a_don>
10

>  <a_donacc>
24

>  <a_heavy>
32

>  <a_hyd>
16

>  <a_IC>
113.54079

>  <a_ICM>
1.6455188

>  <a_nB>
0

>  <a_nBr>
0

>  <a_nC>
18

>  <a_nCl>
0

>  <a_nF>
0

>  <a_nH>
37

>  <a_nI>
0

>  <a_nN>
5

>  <a_nO>
9

>  <a_nP>
0

>  <a_nS>
0

>  <balabanJ>
1.6991706

>  <BCUT_PEOE_0>
-2.820209

>  <BCUT_PEOE_1>
-0.55846739

>  <BCUT_PEOE_2>
0.64639002

>  <BCUT_PEOE_3>
2.8439999

>  <BCUT_SLOGP_0>
-3.0209367

>  <BCUT_SLOGP_1>
-0.59815866

>  <BCUT_SLOGP_2>
0.58976078

>  <BCUT_SLOGP_3>
2.6831062

>  <BCUT_SMR_0>
-2.594214

>  <BCUT_SMR_1>
-0.45437485

>  <BCUT_SMR_2>
0.73399627

>  <BCUT_SMR_3>
3.0567052

>  <bpol>
44.81266

>  <b_1rotN>
6

>  <b_1rotR>
0.17647059

>  <b_ar>
0

>  <b_count>
71

>  <b_double>
0

>  <b_heavy>
34

>  <b_max1len>
4

>  <b_rotN>
6

>  <b_rotR>
0.17647059

>  <b_single>
71

>  <b_triple>
0

>  <chi0>
23.739758

>  <chi0v>
17.667143

>  <chi0v_C>
10.911331

>  <chi0_C>
10.911331

>  <chi1>
15.081825

>  <chi1v>
10.759047

>  <chi1v_C>
5.7828231

>  <chi1_C>
5.7828231

>  <chiral>
14

>  <chiral_u>
0

>  <density>
0.81942505

>  <diameter>
14

>  <FCharge>
0

>  <GCUT_PEOE_0>
-0.83203965

>  <GCUT_PEOE_1>
-0.38522077

>  <GCUT_PEOE_2>
0.091629259

>  <GCUT_PEOE_3>
3.0943611

>  <GCUT_SLOGP_0>
-1.3699745

>  <GCUT_SLOGP_1>
-0.46418536

>  <GCUT_SLOGP_2>
0.072255127

>  <GCUT_SLOGP_3>
2.9703887

>  <GCUT_SMR_0>
-0.52500671

>  <GCUT_SMR_1>
-0.24140157

>  <GCUT_SMR_2>
0.16223806

>  <GCUT_SMR_3>
3.2938571

>  <Kier1>
26.602076

>  <Kier2>
11.16

>  <Kier3>
5.6444635

>  <KierA1>
26.602076

>  <KierA2>
11.16

>  <KierA3>
5.6444635

>  <KierFlex>
9.2774744

>  <lip_acc>
14

>  <lip_don>
15

>  <lip_druglike>
0

>  <lip_violation>
2

>  <logP(o/w)>
-6.4120002

>  <logS>
1.78328

>  <mr>
10.730595

>  <mutagenic>
0

>  <nmol>
1

>  <opr_brigid>
18

>  <opr_leadlike>
0

>  <opr_nring>
3

>  <opr_nrot>
12

>  <opr_violation>
5

>  <PC+>
0

>  <PC->
0

>  <PEOE_PC+>
4.9531808

>  <PEOE_PC->
-4.9531808

>  <PEOE_RPC+>
0.042410288

>  <PEOE_RPC->
0.079215087

>  <PEOE_VSA+0>
53.607334

>  <PEOE_VSA+1>
90.768478

>  <PEOE_VSA+2>
115.61971

>  <PEOE_VSA+3>
22.309816

>  <PEOE_VSA+4>
51.620865

>  <PEOE_VSA+5>
0

>  <PEOE_VSA+6>
0

>  <PEOE_VSA-0>
17.402626

>  <PEOE_VSA-1>
0

>  <PEOE_VSA-2>
0

>  <PEOE_VSA-3>
0

>  <PEOE_VSA-4>
0

>  <PEOE_VSA-5>
0

>  <PEOE_VSA-6>
82.108322

>  <PEOE_VSA_FHYD>
0.69146812

>  <PEOE_VSA_FNEG>
0.22958565

>  <PEOE_VSA_FPNEG>
0.18943536

>  <PEOE_VSA_FPOL>
0.30853191

>  <PEOE_VSA_FPOS>
0.77041435

>  <PEOE_VSA_FPPOS>
0.11909654

>  <PEOE_VSA_HYD>
299.70795

>  <PEOE_VSA_NEG>
99.510948

>  <PEOE_VSA_PNEG>
82.108322

>  <PEOE_VSA_POL>
133.72919

>  <PEOE_VSA_POS>
333.92618

>  <PEOE_VSA_PPOS>
51.620865

>  <petitjean>
0.5

>  <petitjeanSC>
1

>  <Q_PC+>
0

>  <Q_PC->
0

>  <Q_RPC+>
0

>  <Q_RPC->
0

>  <Q_VSA_FHYD>
1

>  <Q_VSA_FNEG>
0

>  <Q_VSA_FPNEG>
0

>  <Q_VSA_FPOL>
0

>  <Q_VSA_FPOS>
1

>  <Q_VSA_FPPOS>
0

>  <Q_VSA_HYD>
433.43713

>  <Q_VSA_NEG>
0

>  <Q_VSA_PNEG>
0

>  <Q_VSA_POL>
0

>  <Q_VSA_POS>
433.43713

>  <Q_VSA_PPOS>
0

>  <radius>
7

>  <reactive>
1

>  <rings>
3

>  <RPC+>
0

>  <RPC->
0

>  <rsynth>
0.34375

>  <SlogP>
-6.2958002

>  <SlogP_VSA0>
291.41208

>  <SlogP_VSA1>
0

>  <SlogP_VSA2>
128.72963

>  <SlogP_VSA3>
39.365837

>  <SlogP_VSA4>
0

>  <SlogP_VSA5>
0

>  <SlogP_VSA6>
0

>  <SlogP_VSA7>
0

>  <SlogP_VSA8>
37.736813

>  <SlogP_VSA9>
0

>  <SMR>
10.8371

>  <SMR_VSA0>
43.99955

>  <SMR_VSA1>
126.92613

>  <SMR_VSA2>
0

>  <SMR_VSA3>
84.730072

>  <SMR_VSA4>
164.48593

>  <SMR_VSA5>
37.736813

>  <SMR_VSA6>
39.365837

>  <SMR_VSA7>
0

>  <TPSA>
268.17001

>  <VAdjEq>
0.35236704

>  <VAdjMa>
6.0874629

>  <VDistEq>
3.6185081

>  <VDistMa>
9.723424

>  <vdw_area>
433.43713

>  <vdw_vol>
570.54639

>  <vsa_acc>
10.015024

>  <vsa_acid>
0

>  <vsa_base>
0

>  <vsa_don>
0

>  <vsa_hyd>
168.44133

>  <vsa_other>
29.416998

>  <vsa_pol>
166.56207

>  <Weight>
467.51999

>  <weinerPath>
2932

>  <weinerPol>
59

>  <zagreb>
168

$$$$