O1CCNCC1COc1ccccc1OCC
  MOE2013           2D

 17 18  0  0  1  0  0  0  0  0999 V2000
    0.0000    0.0000    0.0000 O   0  0  0  0  0  0  0  0  0  0  0  0
    1.5000   -0.0130    0.0000 C   0  0  0  0  0  0  0  0  0  0  0  0
    2.2610    1.2800    0.0000 C   0  0  0  0  0  0  0  0  0  0  0  0
    1.5220    2.5850    0.0000 N   0  0  0  0  0  0  0  0  0  0  0  0
    0.0220    2.5980    0.0000 C   0  0  0  0  0  0  0  0  0  0  0  0
   -0.7390    1.3050    0.0000 C   0  0  3  0  0  0  0  0  0  0  0  0
   -2.2390    1.3180    0.0000 C   0  0  0  0  0  0  0  0  0  0  0  0
   -3.0000    0.0260    0.0000 O   0  0  0  0  0  0  0  0  0  0  0  0
   -4.5000    0.0380    0.0000 C   0  0  0  0  0  0  0  0  0  0  0  0
   -5.2390    1.3440    0.0000 C   0  0  0  0  0  0  0  0  0  0  0  0
   -6.7390    1.3570    0.0000 C   0  0  0  0  0  0  0  0  0  0  0  0
   -7.5000    0.0640    0.0000 C   0  0  0  0  0  0  0  0  0  0  0  0
   -6.7610   -1.2410    0.0000 C   0  0  0  0  0  0  0  0  0  0  0  0
   -5.2610   -1.2540    0.0000 C   0  0  0  0  0  0  0  0  0  0  0  0
   -4.5220   -2.5600    0.0000 O   0  0  0  0  0  0  0  0  0  0  0  0
   -5.2830   -3.8520    0.0000 C   0  0  0  0  0  0  0  0  0  0  0  0
   -4.5440   -5.1580    0.0000 C   0  0  0  0  0  0  0  0  0  0  0  0
  1  2  1  0  0  0  0
  1  6  1  0  0  0  0
  2  3  1  0  0  0  0
  3  4  1  0  0  0  0
  4  5  1  0  0  0  0
  5  6  1  0  0  0  0
  6  7  1  0  0  0  0
  7  8  1  0  0  0  0
  8  9  1  0  0  0  0
  9 10  1  0  0  0  0
  9 14  2  0  0  0  0
 10 11  2  0  0  0  0
 11 12  1  0  0  0  0
 12 13  2  0  0  0  0
 13 14  1  0  0  0  0
 14 15  1  0  0  0  0
 15 16  1  0  0  0  0
 16 17  1  0  0  0  0
M  END
>  <Index>
1145

>  <ID>
HT2180

>  <class>
0

>  <apol>
39.055065

>  <ast_fraglike>
0

>  <ast_fraglike_ext>
0

>  <ast_violation>
1

>  <ast_violation_ext>
2

>  <a_acc>
4

>  <a_acid>
0

>  <a_aro>
6

>  <a_base>
0

>  <a_count>
36

>  <a_don>
1

>  <a_donacc>
5

>  <a_heavy>
17

>  <a_hyd>
13

>  <a_IC>
52.546074

>  <a_ICM>
1.4596132

>  <a_nB>
0

>  <a_nBr>
0

>  <a_nC>
13

>  <a_nCl>
0

>  <a_nF>
0

>  <a_nH>
19

>  <a_nI>
0

>  <a_nN>
1

>  <a_nO>
3

>  <a_nP>
0

>  <a_nS>
0

>  <balabanJ>
1.7150974

>  <BCUT_PEOE_0>
-2.6879938

>  <BCUT_PEOE_1>
-0.60281968

>  <BCUT_PEOE_2>
0.62871808

>  <BCUT_PEOE_3>
2.6461029

>  <BCUT_SLOGP_0>
-2.8693798

>  <BCUT_SLOGP_1>
-0.53042334

>  <BCUT_SLOGP_2>
0.6917665

>  <BCUT_SLOGP_3>
2.5062983

>  <BCUT_SMR_0>
-2.4339888

>  <BCUT_SMR_1>
-0.43580088

>  <BCUT_SMR_2>
0.77598399

>  <BCUT_SMR_3>
2.884732

>  <bpol>
27.178932

>  <b_1rotN>
5

>  <b_1rotR>
0.27777779

>  <b_ar>
6

>  <b_count>
37

>  <b_double>
0

>  <b_heavy>
18

>  <b_max1len>
3

>  <b_rotN>
5

>  <b_rotR>
0.27777779

>  <b_single>
31

>  <b_triple>
0

>  <chi0>
11.924439

>  <chi0v>
10.14703

>  <chi0v_C>
8.4222851

>  <chi0_C>
9.0960121

>  <chi1>
8.3981781

>  <chi1v>
6.0680366

>  <chi1v_C>
3.8509536

>  <chi1_C>
4.6734333

>  <chiral>
1

>  <chiral_u>
1

>  <density>
0.70994592

>  <diameter>
10

>  <FCharge>
0

>  <GCUT_PEOE_0>
-0.83791518

>  <GCUT_PEOE_1>
-0.40592813

>  <GCUT_PEOE_2>
0.05012688

>  <GCUT_PEOE_3>
2.458627

>  <GCUT_SLOGP_0>
-1.1538197

>  <GCUT_SLOGP_1>
-0.35252559

>  <GCUT_SLOGP_2>
0.15293497

>  <GCUT_SLOGP_3>
2.496347

>  <GCUT_SMR_0>
-0.51590568

>  <GCUT_SMR_1>
-0.20793293

>  <GCUT_SMR_2>
0.16865629

>  <GCUT_SMR_3>
2.6985028

>  <Kier1>
13.432098

>  <Kier2>
7.4380164

>  <Kier3>
4.3017831

>  <KierA1>
11.59672

>  <KierA2>
6.3587022

>  <KierA3>
3.6487999

>  <KierFlex>
4.3376522

>  <lip_acc>
4

>  <lip_don>
1

>  <lip_druglike>
1

>  <lip_violation>
0

>  <logP(o/w)>
1.20474

>  <logS>
-1.8712699

>  <mr>
6.6746459

>  <mutagenic>
0

>  <nmol>
1

>  <opr_brigid>
12

>  <opr_leadlike>
1

>  <opr_nring>
2

>  <opr_nrot>
7

>  <opr_violation>
0

>  <PC+>
0

>  <PC->
0

>  <PEOE_PC+>
1.5826237

>  <PEOE_PC->
-1.5826237

>  <PEOE_RPC+>
0.077155359

>  <PEOE_RPC->
0.23490112

>  <PEOE_VSA+0>
56.242352

>  <PEOE_VSA+1>
96.678055

>  <PEOE_VSA+2>
25.536053

>  <PEOE_VSA+3>
0

>  <PEOE_VSA+4>
0

>  <PEOE_VSA+5>
0

>  <PEOE_VSA+6>
0

>  <PEOE_VSA-0>
43.257484

>  <PEOE_VSA-1>
24.509808

>  <PEOE_VSA-2>
0

>  <PEOE_VSA-3>
0

>  <PEOE_VSA-4>
0

>  <PEOE_VSA-5>
0

>  <PEOE_VSA-6>
7.6481595

>  <PEOE_VSA_FHYD>
0.96987396

>  <PEOE_VSA_FNEG>
0.29706103

>  <PEOE_VSA_FPNEG>
0.030126056

>  <PEOE_VSA_FPOL>
0.030126056

>  <PEOE_VSA_FPOS>
0.70293897

>  <PEOE_VSA_FPPOS>
0

>  <PEOE_VSA_HYD>
246.22375

>  <PEOE_VSA_NEG>
75.415451

>  <PEOE_VSA_PNEG>
7.6481595

>  <PEOE_VSA_POL>
7.6481595

>  <PEOE_VSA_POS>
178.45645

>  <PEOE_VSA_PPOS>
0

>  <petitjean>
0.5

>  <petitjeanSC>
1

>  <Q_PC+>
0

>  <Q_PC->
0

>  <Q_RPC+>
0

>  <Q_RPC->
0

>  <Q_VSA_FHYD>
1

>  <Q_VSA_FNEG>
0

>  <Q_VSA_FPNEG>
0

>  <Q_VSA_FPOL>
0

>  <Q_VSA_FPOS>
1

>  <Q_VSA_FPPOS>
0

>  <Q_VSA_HYD>
253.87192

>  <Q_VSA_NEG>
0

>  <Q_VSA_PNEG>
0

>  <Q_VSA_POL>
0

>  <Q_VSA_POS>
253.87192

>  <Q_VSA_PPOS>
0

>  <radius>
5

>  <reactive>
0

>  <rings>
2

>  <RPC+>
0

>  <RPC->
0

>  <rsynth>
1

>  <SlogP>
1.4525

>  <SlogP_VSA0>
40.010525

>  <SlogP_VSA1>
0

>  <SlogP_VSA2>
17.468536

>  <SlogP_VSA3>
99.657928

>  <SlogP_VSA4>
0

>  <SlogP_VSA5>
0

>  <SlogP_VSA6>
0

>  <SlogP_VSA7>
70.572739

>  <SlogP_VSA8>
0

>  <SlogP_VSA9>
43.81287

>  <SMR>
6.5715699

>  <SMR_VSA0>
10.999887

>  <SMR_VSA1>
21.999775

>  <SMR_VSA2>
18.01075

>  <SMR_VSA3>
16.955505

>  <SMR_VSA4>
0

>  <SMR_VSA5>
70.572739

>  <SMR_VSA6>
99.657928

>  <SMR_VSA7>
33.326015

>  <TPSA>
39.720001

>  <VAdjEq>
0.54234898

>  <VAdjMa>
5.1699252

>  <VDistEq>
3.1012123

>  <VDistMa>
7.8573198

>  <vdw_area>
253.87192

>  <vdw_vol>
334.24939

>  <vsa_acc>
7.5112681

>  <vsa_acid>
0

>  <vsa_base>
0

>  <vsa_don>
0

>  <vsa_hyd>
224.79242

>  <vsa_other>
0

>  <vsa_pol>
13.193845

>  <Weight>
237.299

>  <weinerPath>
572

>  <weinerPol>
21

>  <zagreb>
80

$$$$