Brc1ccc(cc1)C(=O)c1cccc(CC(O)=O)c1N
  MOE2013           2D

 20 21  0  0  0  0  0  0  0  0999 V2000
    0.0000    0.0000    0.0000 Br  0  0  0  0  0  0  0  0  0  0  0  0
   -1.5000    0.0030    0.0000 C   0  0  0  0  0  0  0  0  0  0  0  0
   -2.2520   -1.2950    0.0000 C   0  0  0  0  0  0  0  0  0  0  0  0
   -3.7520   -1.2920    0.0000 C   0  0  0  0  0  0  0  0  0  0  0  0
   -4.5000    0.0090    0.0000 C   0  0  0  0  0  0  0  0  0  0  0  0
   -3.7470    1.3060    0.0000 C   0  0  0  0  0  0  0  0  0  0  0  0
   -2.2470    1.3030    0.0000 C   0  0  0  0  0  0  0  0  0  0  0  0
   -6.0000    0.0120    0.0000 C   0  0  0  0  0  0  0  0  0  0  0  0
   -6.7470    1.3120    0.0000 O   0  0  0  0  0  0  0  0  0  0  0  0
   -6.7520   -1.2860    0.0000 C   0  0  0  0  0  0  0  0  0  0  0  0
   -6.0050   -2.5870    0.0000 C   0  0  0  0  0  0  0  0  0  0  0  0
   -6.7570   -3.8840    0.0000 C   0  0  0  0  0  0  0  0  0  0  0  0
   -8.2570   -3.8810    0.0000 C   0  0  0  0  0  0  0  0  0  0  0  0
   -9.0050   -2.5810    0.0000 C   0  0  0  0  0  0  0  0  0  0  0  0
  -10.5050   -2.5780    0.0000 C   0  0  0  0  0  0  0  0  0  0  0  0
  -11.2570   -3.8750    0.0000 C   0  0  0  0  0  0  0  0  0  0  0  0
  -10.5100   -5.1760    0.0000 O   0  0  0  0  0  0  0  0  0  0  0  0
  -12.7570   -3.8730    0.0000 O   0  0  0  0  0  0  0  0  0  0  0  0
   -8.2520   -1.2830    0.0000 C   0  0  0  0  0  0  0  0  0  0  0  0
   -9.0000    0.0170    0.0000 N   0  0  0  0  0  0  0  0  0  0  0  0
  1  2  1  0  0  0  0
  2  3  1  0  0  0  0
  2  7  2  0  0  0  0
  3  4  2  0  0  0  0
  4  5  1  0  0  0  0
  5  6  2  0  0  0  0
  5  8  1  0  0  0  0
  6  7  1  0  0  0  0
  8  9  2  0  0  0  0
  8 10  1  0  0  0  0
 10 11  1  0  0  0  0
 10 19  2  0  0  0  0
 11 12  2  0  0  0  0
 12 13  1  0  0  0  0
 13 14  2  0  0  0  0
 14 15  1  0  0  0  0
 14 19  1  0  0  0  0
 15 16  1  0  0  0  0
 16 17  1  0  0  0  0
 16 18  2  0  0  0  0
 19 20  1  0  0  0  0
M  END
>  <Index>
157

>  <ID>
HT0307

>  <class>
0

>  <apol>
40.957516

>  <ast_fraglike>
0

>  <ast_fraglike_ext>
0

>  <ast_violation>
1

>  <ast_violation_ext>
2

>  <a_acc>
3

>  <a_acid>
0

>  <a_aro>
12

>  <a_base>
0

>  <a_count>
32

>  <a_don>
3

>  <a_donacc>
6

>  <a_heavy>
20

>  <a_hyd>
14

>  <a_IC>
53.622204

>  <a_ICM>
1.6756939

>  <a_nB>
0

>  <a_nBr>
1

>  <a_nC>
15

>  <a_nCl>
0

>  <a_nF>
0

>  <a_nH>
12

>  <a_nI>
0

>  <a_nN>
1

>  <a_nO>
3

>  <a_nP>
0

>  <a_nS>
0

>  <balabanJ>
1.9347738

>  <BCUT_PEOE_0>
-2.3303933

>  <BCUT_PEOE_1>
-0.60932356

>  <BCUT_PEOE_2>
0.6525377

>  <BCUT_PEOE_3>
2.3666527

>  <BCUT_SLOGP_0>
-2.4045737

>  <BCUT_SLOGP_1>
-0.52083725

>  <BCUT_SLOGP_2>
0.79207075

>  <BCUT_SLOGP_3>
2.4089563

>  <BCUT_SMR_0>
-2.0406103

>  <BCUT_SMR_1>
-0.43676153

>  <BCUT_SMR_2>
0.86785287

>  <BCUT_SMR_3>
2.6563723

>  <bpol>
15.664484

>  <b_1rotN>
4

>  <b_1rotR>
0.19047619

>  <b_ar>
12

>  <b_count>
33

>  <b_double>
2

>  <b_heavy>
21

>  <b_max1len>
2

>  <b_rotN>
4

>  <b_rotR>
0.19047619

>  <b_single>
19

>  <b_triple>
0

>  <chi0>
14.698306

>  <chi0v>
12.05358

>  <chi0v_C>
8.248559

>  <chi0_C>
9.6983061

>  <chi1>
9.4860706

>  <chi1v>
6.6750016

>  <chi1v_C>
4.772491

>  <chi1_C>
6.5993195

>  <chiral>
0

>  <chiral_u>
0

>  <density>
0.89910108

>  <diameter>
11

>  <FCharge>
0

>  <GCUT_PEOE_0>
-0.80760872

>  <GCUT_PEOE_1>
-0.44612879

>  <GCUT_PEOE_2>
0.088284522

>  <GCUT_PEOE_3>
2.3977027

>  <GCUT_SLOGP_0>
-1.3346348

>  <GCUT_SLOGP_1>
-0.30605701

>  <GCUT_SLOGP_2>
0.20710537

>  <GCUT_SLOGP_3>
2.4953854

>  <GCUT_SMR_0>
-0.45891336

>  <GCUT_SMR_1>
-0.22681564

>  <GCUT_SMR_2>
0.27931175

>  <GCUT_SMR_3>
2.7040453

>  <Kier1>
16.371881

>  <Kier2>
7.3198571

>  <Kier3>
4.25

>  <KierA1>
12.738126

>  <KierA2>
5.6141696

>  <KierA3>
3.225579

>  <KierFlex>
3.5757

>  <lip_acc>
4

>  <lip_don>
3

>  <lip_druglike>
1

>  <lip_violation>
0

>  <logP(o/w)>
3.3080001

>  <logS>
-4.29983

>  <mr>
8.0143089

>  <mutagenic>
1

>  <nmol>
1

>  <opr_brigid>
12

>  <opr_leadlike>
1

>  <opr_nring>
2

>  <opr_nrot>
4

>  <opr_violation>
0

>  <PC+>
0

>  <PC->
0

>  <PEOE_PC+>
1.6144052

>  <PEOE_PC->
-1.6144052

>  <PEOE_RPC+>
0.1635243

>  <PEOE_RPC->
0.20504236

>  <PEOE_VSA+0>
21.899611

>  <PEOE_VSA+1>
38.559017

>  <PEOE_VSA+2>
17.238026

>  <PEOE_VSA+3>
8.458519

>  <PEOE_VSA+4>
10.324173

>  <PEOE_VSA+5>
14.708499

>  <PEOE_VSA+6>
0

>  <PEOE_VSA-0>
63.483059

>  <PEOE_VSA-1>
68.134659

>  <PEOE_VSA-2>
0

>  <PEOE_VSA-3>
0

>  <PEOE_VSA-4>
0

>  <PEOE_VSA-5>
27.133842

>  <PEOE_VSA-6>
14.418659

>  <PEOE_VSA_FHYD>
0.76584041

>  <PEOE_VSA_FNEG>
0.6089865

>  <PEOE_VSA_FPNEG>
0.14612739

>  <PEOE_VSA_FPOL>
0.23415962

>  <PEOE_VSA_FPOS>
0.3910135

>  <PEOE_VSA_FPPOS>
0.088032223

>  <PEOE_VSA_HYD>
217.77289

>  <PEOE_VSA_NEG>
173.17021

>  <PEOE_VSA_PNEG>
41.552502

>  <PEOE_VSA_POL>
66.585175

>  <PEOE_VSA_POS>
111.18784

>  <PEOE_VSA_PPOS>
25.032671

>  <petitjean>
0.45454547

>  <petitjeanSC>
0.83333331

>  <Q_PC+>
0

>  <Q_PC->
0

>  <Q_RPC+>
0

>  <Q_RPC->
0

>  <Q_VSA_FHYD>
1

>  <Q_VSA_FNEG>
0

>  <Q_VSA_FPNEG>
0

>  <Q_VSA_FPOL>
0

>  <Q_VSA_FPOS>
1

>  <Q_VSA_FPPOS>
0

>  <Q_VSA_HYD>
284.35806

>  <Q_VSA_NEG>
0

>  <Q_VSA_PNEG>
0

>  <Q_VSA_POL>
0

>  <Q_VSA_POS>
284.35806

>  <Q_VSA_PPOS>
0

>  <radius>
6

>  <reactive>
1

>  <rings>
2

>  <RPC+>
0

>  <RPC->
0

>  <rsynth>
1

>  <SlogP>
2.88937

>  <SlogP_VSA0>
32.897186

>  <SlogP_VSA1>
13.433075

>  <SlogP_VSA2>
23.862217

>  <SlogP_VSA3>
25.385227

>  <SlogP_VSA4>
33.418941

>  <SlogP_VSA5>
21.92351

>  <SlogP_VSA6>
0

>  <SlogP_VSA7>
123.50229

>  <SlogP_VSA8>
0

>  <SlogP_VSA9>
48.710842

>  <SMR>
7.9768701

>  <SMR_VSA0>
47.724434

>  <SMR_VSA1>
0

>  <SMR_VSA2>
28.440331

>  <SMR_VSA3>
9.5567245

>  <SMR_VSA4>
2.7567475

>  <SMR_VSA5>
175.26788

>  <SMR_VSA6>
13.433075

>  <SMR_VSA7>
45.954094

>  <TPSA>
80.389999

>  <VAdjEq>
0.48464775

>  <VAdjMa>
5.3923173

>  <VDistEq>
3.1787648

>  <VDistMa>
8.3459721

>  <vdw_area>
284.35806

>  <vdw_vol>
371.6701

>  <vsa_acc>
13.566921

>  <vsa_acid>
0

>  <vsa_base>
0

>  <vsa_don>
17.742489

>  <vsa_hyd>
185.67018

>  <vsa_other>
23.167019

>  <vsa_pol>
58.443253

>  <Weight>
334.16901

>  <weinerPath>
830

>  <weinerPol>
30

>  <zagreb>
100

$$$$