OC(=O)CCCCCCC
  MOE2013           2D

 10  9  0  0  0  0  0  0  0  0999 V2000
    0.0000    0.0000    0.0000 O   0  0  0  0  0  0  0  0  0  0  0  0
    1.2930    0.7610    0.0000 C   0  0  0  0  0  0  0  0  0  0  0  0
    1.2800    2.2610    0.0000 O   0  0  0  0  0  0  0  0  0  0  0  0
    2.5980    0.0210    0.0000 C   0  0  0  0  0  0  0  0  0  0  0  0
    3.8910    0.7820    0.0000 C   0  0  0  0  0  0  0  0  0  0  0  0
    5.1960    0.0430    0.0000 C   0  0  0  0  0  0  0  0  0  0  0  0
    6.4890    0.8040    0.0000 C   0  0  0  0  0  0  0  0  0  0  0  0
    7.7940    0.0640    0.0000 C   0  0  0  0  0  0  0  0  0  0  0  0
    9.0870    0.8250    0.0000 C   0  0  0  0  0  0  0  0  0  0  0  0
   10.3920    0.0860    0.0000 C   0  0  0  0  0  0  0  0  0  0  0  0
  1  2  1  0  0  0  0
  2  3  2  0  0  0  0
  2  4  1  0  0  0  0
  4  5  1  0  0  0  0
  5  6  1  0  0  0  0
  6  7  1  0  0  0  0
  7  8  1  0  0  0  0
  8  9  1  0  0  0  0
  9 10  1  0  0  0  0
M  END
>  <Index>
186

>  <ID>
HT0366

>  <class>
0

>  <apol>
26.352688

>  <ast_fraglike>
1

>  <ast_fraglike_ext>
0

>  <ast_violation>
0

>  <ast_violation_ext>
1

>  <a_acc>
2

>  <a_acid>
0

>  <a_aro>
0

>  <a_base>
0

>  <a_count>
26

>  <a_don>
2

>  <a_donacc>
4

>  <a_heavy>
10

>  <a_hyd>
7

>  <a_IC>
32.211433

>  <a_ICM>
1.2389013

>  <a_nB>
0

>  <a_nBr>
0

>  <a_nC>
8

>  <a_nCl>
0

>  <a_nF>
0

>  <a_nH>
16

>  <a_nI>
0

>  <a_nN>
0

>  <a_nO>
2

>  <a_nP>
0

>  <a_nS>
0

>  <balabanJ>
2.7821934

>  <BCUT_PEOE_0>
-2.6748424

>  <BCUT_PEOE_1>
-0.33624497

>  <BCUT_PEOE_2>
0.31047317

>  <BCUT_PEOE_3>
2.6223962

>  <BCUT_SLOGP_0>
-2.5192654

>  <BCUT_SLOGP_1>
-0.27668977

>  <BCUT_SLOGP_2>
0.30315164

>  <BCUT_SLOGP_3>
2.7806473

>  <BCUT_SMR_0>
-2.4272974

>  <BCUT_SMR_1>
-0.16735956

>  <BCUT_SMR_2>
0.42282993

>  <BCUT_SMR_3>
2.8692265

>  <bpol>
18.449312

>  <b_1rotN>
6

>  <b_1rotR>
0.66666669

>  <b_ar>
0

>  <b_count>
25

>  <b_double>
1

>  <b_heavy>
9

>  <b_max1len>
8

>  <b_rotN>
6

>  <b_rotR>
0.66666669

>  <b_single>
24

>  <b_triple>
0

>  <chi0>
7.8199911

>  <chi0v>
6.5981026

>  <chi0v_C>
5.7426405

>  <chi0_C>
5.8199911

>  <chi1>
4.7700558

>  <chi1v>
3.9883912

>  <chi1v_C>
3.5606601

>  <chi1_C>
3.615355

>  <chiral>
0

>  <chiral_u>
0

>  <density>
0.65841961

>  <diameter>
8

>  <FCharge>
0

>  <GCUT_PEOE_0>
-0.80122006

>  <GCUT_PEOE_1>
-0.3277933

>  <GCUT_PEOE_2>
0.017137067

>  <GCUT_PEOE_3>
2.3294387

>  <GCUT_SLOGP_0>
-0.87253428

>  <GCUT_SLOGP_1>
-0.20670028

>  <GCUT_SLOGP_2>
0.012818459

>  <GCUT_SLOGP_3>
2.45678

>  <GCUT_SMR_0>
-0.53177094

>  <GCUT_SMR_1>
-0.17272645

>  <GCUT_SMR_2>
0.11750613

>  <GCUT_SMR_3>
2.5407503

>  <Kier1>
10

>  <Kier2>
7.1111112

>  <Kier3>
9.1428576

>  <KierA1>
9.0641108

>  <KierA2>
6.368185

>  <KierA3>
8.1070004

>  <KierFlex>
5.7721939

>  <lip_acc>
2

>  <lip_don>
1

>  <lip_druglike>
1

>  <lip_violation>
0

>  <logP(o/w)>
2.6059999

>  <logS>
-2.3716099

>  <mr>
4.2099466

>  <mutagenic>
0

>  <nmol>
1

>  <opr_brigid>
0

>  <opr_leadlike>
1

>  <opr_nring>
0

>  <opr_nrot>
6

>  <opr_violation>
0

>  <PC+>
0

>  <PC->
0

>  <PEOE_PC+>
0.92064822

>  <PEOE_PC->
-0.92064822

>  <PEOE_RPC+>
0.2819618

>  <PEOE_RPC->
0.35981977

>  <PEOE_VSA+0>
72.682106

>  <PEOE_VSA+1>
0

>  <PEOE_VSA+2>
0

>  <PEOE_VSA+3>
0

>  <PEOE_VSA+4>
10.324173

>  <PEOE_VSA+5>
14.708499

>  <PEOE_VSA+6>
0

>  <PEOE_VSA-0>
8.701313

>  <PEOE_VSA-1>
53.552929

>  <PEOE_VSA-2>
0

>  <PEOE_VSA-3>
0

>  <PEOE_VSA-4>
0

>  <PEOE_VSA-5>
13.566921

>  <PEOE_VSA-6>
7.7675405

>  <PEOE_VSA_FHYD>
0.74425679

>  <PEOE_VSA_FNEG>
0.46104303

>  <PEOE_VSA_FPNEG>
0.11767265

>  <PEOE_VSA_FPOL>
0.25574321

>  <PEOE_VSA_FPOS>
0.538957

>  <PEOE_VSA_FPPOS>
0.13807055

>  <PEOE_VSA_HYD>
134.93634

>  <PEOE_VSA_NEG>
83.588707

>  <PEOE_VSA_PNEG>
21.334461

>  <PEOE_VSA_POL>
46.367134

>  <PEOE_VSA_POS>
97.714775

>  <PEOE_VSA_PPOS>
25.032671

>  <petitjean>
0.5

>  <petitjeanSC>
1

>  <Q_PC+>
0

>  <Q_PC->
0

>  <Q_RPC+>
0

>  <Q_RPC->
0

>  <Q_VSA_FHYD>
1

>  <Q_VSA_FNEG>
0

>  <Q_VSA_FPNEG>
0

>  <Q_VSA_FPOL>
0

>  <Q_VSA_FPOS>
1

>  <Q_VSA_FPPOS>
0

>  <Q_VSA_HYD>
181.30348

>  <Q_VSA_NEG>
0

>  <Q_VSA_PNEG>
0

>  <Q_VSA_POL>
0

>  <Q_VSA_POS>
181.30348

>  <Q_VSA_PPOS>
0

>  <radius>
4

>  <reactive>
0

>  <rings>
0

>  <RPC+>
0

>  <RPC->
0

>  <rsynth>
1

>  <SlogP>
2.4315

>  <SlogP_VSA0>
0

>  <SlogP_VSA1>
7.7454643

>  <SlogP_VSA2>
23.862217

>  <SlogP_VSA3>
25.385227

>  <SlogP_VSA4>
0

>  <SlogP_VSA5>
0

>  <SlogP_VSA6>
0

>  <SlogP_VSA7>
0

>  <SlogP_VSA8>
113.21043

>  <SlogP_VSA9>
33.326015

>  <SMR>
4.1011801

>  <SMR_VSA0>
23.862217

>  <SMR_VSA1>
0

>  <SMR_VSA2>
25.385227

>  <SMR_VSA3>
0

>  <SMR_VSA4>
0

>  <SMR_VSA5>
113.21043

>  <SMR_VSA6>
7.7454643

>  <SMR_VSA7>
33.326015

>  <TPSA>
37.299999

>  <VAdjEq>
0.68007702

>  <VAdjMa>
4.1699252

>  <VDistEq>
2.8566434

>  <VDistMa>
6.2384267

>  <vdw_area>
181.30348

>  <vdw_vol>
219.03053

>  <vsa_acc>
0

>  <vsa_acid>
0

>  <vsa_base>
0

>  <vsa_don>
0

>  <vsa_hyd>
124.25941

>  <vsa_other>
14.708499

>  <vsa_pol>
27.133842

>  <Weight>
144.21399

>  <weinerPath>
158

>  <weinerPol>
7

>  <zagreb>
36

$$$$