P(Oc1ccc(cc1)/C(=C(CC)/c1ccc(OP(O)(O)=O)cc1)/CC)(O)(O)=O
  MOE2013           2D

 28 29  0  0  0  0  0  0  0  0999 V2000
    0.0000    0.0000    0.0000 P   0  0  0  0  0  0  0  0  0  0  0  0
    1.3000   -0.7480    0.0000 O   0  0  0  0  0  0  0  0  0  0  0  0
    2.5980    0.0040    0.0000 C   0  0  0  0  0  0  0  0  0  0  0  0
    3.8980   -0.7430    0.0000 C   0  0  0  0  0  0  0  0  0  0  0  0
    5.1960    0.0090    0.0000 C   0  0  0  0  0  0  0  0  0  0  0  0
    5.1940    1.5090    0.0000 C   0  0  0  0  0  0  0  0  0  0  0  0
    3.8930    2.2570    0.0000 C   0  0  0  0  0  0  0  0  0  0  0  0
    2.5960    1.5040    0.0000 C   0  0  0  0  0  0  0  0  0  0  0  0
    6.4910    2.2610    0.0000 C   0  0  0  0  0  0  0  0  0  0  0  0
    7.7920    1.5130    0.0000 C   0  0  0  0  0  0  0  0  0  0  0  0
    7.7940    0.0130    0.0000 C   0  0  0  0  0  0  0  0  0  0  0  0
    9.0950   -0.7350    0.0000 C   0  0  0  0  0  0  0  0  0  0  0  0
    9.0890    2.2650    0.0000 C   0  0  0  0  0  0  0  0  0  0  0  0
   10.3900    1.5180    0.0000 C   0  0  0  0  0  0  0  0  0  0  0  0
   11.6880    2.2700    0.0000 C   0  0  0  0  0  0  0  0  0  0  0  0
   11.6850    3.7700    0.0000 C   0  0  0  0  0  0  0  0  0  0  0  0
   12.9830    4.5220    0.0000 O   0  0  0  0  0  0  0  0  0  0  0  0
   14.2830    3.7740    0.0000 P   0  0  0  0  0  0  0  0  0  0  0  0
   15.5830    3.0260    0.0000 O   0  0  0  0  0  0  0  0  0  0  0  0
   15.0310    5.0750    0.0000 O   0  0  0  0  0  0  0  0  0  0  0  0
   13.5350    2.4740    0.0000 O   0  0  0  0  0  0  0  0  0  0  0  0
   10.3850    4.5180    0.0000 C   0  0  0  0  0  0  0  0  0  0  0  0
    9.0870    3.7650    0.0000 C   0  0  0  0  0  0  0  0  0  0  0  0
    6.4890    3.7610    0.0000 C   0  0  0  0  0  0  0  0  0  0  0  0
    5.1890    4.5090    0.0000 C   0  0  0  0  0  0  0  0  0  0  0  0
    0.7480    1.3000    0.0000 O   0  0  0  0  0  0  0  0  0  0  0  0
   -0.7480   -1.3000    0.0000 O   0  0  0  0  0  0  0  0  0  0  0  0
   -1.3000    0.7480    0.0000 O   0  0  0  0  0  0  0  0  0  0  0  0
  1  2  1  0  0  0  0
  1 26  1  0  0  0  0
  1 27  1  0  0  0  0
  1 28  2  0  0  0  0
  2  3  1  0  0  0  0
  3  4  1  0  0  0  0
  3  8  2  0  0  0  0
  4  5  2  0  0  0  0
  5  6  1  0  0  0  0
  6  7  2  0  0  0  0
  6  9  1  0  0  0  0
  7  8  1  0  0  0  0
  9 10  2  0  0  0  0
  9 24  1  0  0  0  0
 10 11  1  0  0  0  0
 10 13  1  0  0  0  0
 11 12  1  0  0  0  0
 13 14  1  0  0  0  0
 13 23  2  0  0  0  0
 14 15  2  0  0  0  0
 15 16  1  0  0  0  0
 16 17  1  0  0  0  0
 16 22  2  0  0  0  0
 17 18  1  0  0  0  0
 18 19  1  0  0  0  0
 18 20  1  0  0  0  0
 18 21  2  0  0  0  0
 22 23  1  0  0  0  0
 24 25  1  0  0  0  0
M  END
>  <Index>
1383

>  <ID>
HT3811

>  <class>
0

>  <apol>
60.025448

>  <ast_fraglike>
0

>  <ast_fraglike_ext>
0

>  <ast_violation>
3

>  <ast_violation_ext>
5

>  <a_acc>
8

>  <a_acid>
0

>  <a_aro>
12

>  <a_base>
0

>  <a_count>
50

>  <a_don>
6

>  <a_donacc>
14

>  <a_heavy>
28

>  <a_hyd>
18

>  <a_IC>
83.026665

>  <a_ICM>
1.6605333

>  <a_nB>
0

>  <a_nBr>
0

>  <a_nC>
18

>  <a_nCl>
0

>  <a_nF>
0

>  <a_nH>
22

>  <a_nI>
0

>  <a_nN>
0

>  <a_nO>
8

>  <a_nP>
2

>  <a_nS>
0

>  <balabanJ>
1.8864594

>  <BCUT_PEOE_0>
-2.4985185

>  <BCUT_PEOE_1>
-0.64410919

>  <BCUT_PEOE_2>
0.70197761

>  <BCUT_PEOE_3>
2.4481583

>  <BCUT_SLOGP_0>
-2.3095653

>  <BCUT_SLOGP_1>
-0.73360044

>  <BCUT_SLOGP_2>
0.69918281

>  <BCUT_SLOGP_3>
2.6431565

>  <BCUT_SMR_0>
-2.2087324

>  <BCUT_SMR_1>
-0.49986199

>  <BCUT_SMR_2>
0.85431087

>  <BCUT_SMR_3>
2.7601876

>  <bpol>
44.758553

>  <b_1rotN>
8

>  <b_1rotR>
0.27586207

>  <b_ar>
12

>  <b_count>
51

>  <b_double>
1

>  <b_heavy>
29

>  <b_max1len>
4

>  <b_rotN>
8

>  <b_rotR>
0.27586207

>  <b_single>
38

>  <b_triple>
0

>  <chi0>
20.949383

>  <chi0v>
17.138145

>  <chi0v_C>
11.033015

>  <chi0_C>
12.53517

>  <chi1>
13.0203

>  <chi1v>
11.513193

>  <chi1v_C>
6.5140548

>  <chi1_C>
8.4966965

>  <chiral>
0

>  <chiral_u>
0

>  <density>
0.83848202

>  <diameter>
15

>  <FCharge>
0

>  <GCUT_PEOE_0>
-0.77432323

>  <GCUT_PEOE_1>
-0.42234132

>  <GCUT_PEOE_2>
0.08190456

>  <GCUT_PEOE_3>
2.6404927

>  <GCUT_SLOGP_0>
-1.2957646

>  <GCUT_SLOGP_1>
-0.38748109

>  <GCUT_SLOGP_2>
0.073719077

>  <GCUT_SLOGP_3>
2.8233283

>  <GCUT_SMR_0>
-0.51547837

>  <GCUT_SMR_1>
-0.21605732

>  <GCUT_SMR_2>
0.22881304

>  <GCUT_SMR_3>
2.9418323

>  <Kier1>
24.271107

>  <Kier2>
10.346939

>  <Kier3>
7.9867673

>  <KierA1>
22.372929

>  <KierA2>
9.5078459

>  <KierA3>
7.3227186

>  <KierFlex>
7.597084

>  <lip_acc>
8

>  <lip_don>
4

>  <lip_druglike>
1

>  <lip_violation>
0

>  <logP(o/w)>
2.592

>  <logS>
-4.9358602

>  <mr>
10.89824

>  <mutagenic>
0

>  <nmol>
1

>  <opr_brigid>
13

>  <opr_leadlike>
1

>  <opr_nring>
2

>  <opr_nrot>
8

>  <opr_violation>
0

>  <PC+>
0

>  <PC->
0

>  <PEOE_PC+>
2.4891021

>  <PEOE_PC->
-2.4891021

>  <PEOE_RPC+>
0.16713476

>  <PEOE_RPC->
0.11176035

>  <PEOE_VSA+0>
42.653858

>  <PEOE_VSA+1>
51.040127

>  <PEOE_VSA+2>
0

>  <PEOE_VSA+3>
41.296692

>  <PEOE_VSA+4>
0

>  <PEOE_VSA+5>
0

>  <PEOE_VSA+6>
37.426136

>  <PEOE_VSA-0>
75.256401

>  <PEOE_VSA-1>
86.514969

>  <PEOE_VSA-2>
31.458273

>  <PEOE_VSA-3>
0

>  <PEOE_VSA-4>
9.3319435

>  <PEOE_VSA-5>
39.719025

>  <PEOE_VSA-6>
0

>  <PEOE_VSA_FHYD>
0.7914694

>  <PEOE_VSA_FNEG>
0.58423465

>  <PEOE_VSA_FPNEG>
0.11828134

>  <PEOE_VSA_FPOL>
0.2085306

>  <PEOE_VSA_FPOS>
0.41576535

>  <PEOE_VSA_FPPOS>
0.090249263

>  <PEOE_VSA_HYD>
328.22034

>  <PEOE_VSA_NEG>
242.28061

>  <PEOE_VSA_PNEG>
49.050968

>  <PEOE_VSA_POL>
86.477104

>  <PEOE_VSA_POS>
172.41681

>  <PEOE_VSA_PPOS>
37.426136

>  <petitjean>
0.46666667

>  <petitjeanSC>
0.875

>  <Q_PC+>
0

>  <Q_PC->
0

>  <Q_RPC+>
0

>  <Q_RPC->
0

>  <Q_VSA_FHYD>
1

>  <Q_VSA_FNEG>
0

>  <Q_VSA_FPNEG>
0

>  <Q_VSA_FPOL>
0

>  <Q_VSA_FPOS>
1

>  <Q_VSA_FPPOS>
0

>  <Q_VSA_HYD>
414.69742

>  <Q_VSA_NEG>
0

>  <Q_VSA_PNEG>
0

>  <Q_VSA_POL>
0

>  <Q_VSA_POS>
414.69742

>  <Q_VSA_PPOS>
0

>  <radius>
8

>  <reactive>
1

>  <rings>
2

>  <RPC+>
0

>  <RPC->
0

>  <rsynth>
0.35714287

>  <SlogP>
2.22

>  <SlogP_VSA0>
143.93866

>  <SlogP_VSA1>
0

>  <SlogP_VSA2>
0

>  <SlogP_VSA3>
0

>  <SlogP_VSA4>
6.37115

>  <SlogP_VSA5>
0

>  <SlogP_VSA6>
0

>  <SlogP_VSA7>
147.51663

>  <SlogP_VSA8>
37.736813

>  <SlogP_VSA9>
110.52856

>  <SMR>
10.42512

>  <SMR_VSA0>
44.867531

>  <SMR_VSA1>
99.071136

>  <SMR_VSA2>
0

>  <SMR_VSA3>
16.858006

>  <SMR_VSA4>
6.37115

>  <SMR_VSA5>
178.88228

>  <SMR_VSA6>
0

>  <SMR_VSA7>
100.04171

>  <TPSA>
133.52

>  <VAdjEq>
0.38060221

>  <VAdjMa>
5.8579812

>  <VDistEq>
3.6909485

>  <VDistMa>
9.3002815

>  <vdw_area>
414.69742

>  <vdw_vol>
510.82074

>  <vsa_acc>
9.3319435

>  <vsa_acid>
0

>  <vsa_base>
0

>  <vsa_don>
0

>  <vsa_hyd>
242.65305

>  <vsa_other>
37.426136

>  <vsa_pol>
103.70676

>  <Weight>
428.314

>  <weinerPath>
2272

>  <weinerPol>
40

>  <zagreb>
142

$$$$