O1[C@@H](CC[C@@H]1N1C=CC(=NC1=O)N)CO
  MOE2013           2D

 15 16  0  0  1  0  0  0  0  0999 V2000
    0.0000    0.0000    0.0000 O   0  0  0  0  0  0  0  0  0  0  0  0
    1.4420    0.4120    0.0000 C   0  0  1  0  0  0  0  0  0  0  0  0
    1.4960    1.9110    0.0000 C   0  0  0  0  0  0  0  0  0  0  0  0
    0.0870    2.4250    0.0000 C   0  0  0  0  0  0  0  0  0  0  0  0
   -0.8380    1.2440    0.0000 C   0  0  2  0  0  0  0  0  0  0  0  0
   -2.3370    1.2980    0.0000 N   0  0  0  0  0  0  0  0  0  0  0  0
   -3.1330    0.0270    0.0000 C   0  0  0  0  0  0  0  0  0  0  0  0
   -4.6320    0.0800    0.0000 C   0  0  0  0  0  0  0  0  0  0  0  0
   -5.3350    1.4050    0.0000 C   0  0  0  0  0  0  0  0  0  0  0  0
   -4.5390    2.6770    0.0000 N   0  0  0  0  0  0  0  0  0  0  0  0
   -3.0400    2.6230    0.0000 C   0  0  0  0  0  0  0  0  0  0  0  0
   -2.2440    3.8940    0.0000 O   0  0  0  0  0  0  0  0  0  0  0  0
   -6.8340    1.4590    0.0000 N   0  0  0  0  0  0  0  0  0  0  0  0
    2.6230   -0.5120    0.0000 C   0  0  0  0  0  0  0  0  0  0  0  0
    4.0150    0.0480    0.0000 O   0  0  0  0  0  0  0  0  0  0  0  0
  1  2  1  0  0  0  0
  1  5  1  0  0  0  0
  2  3  1  0  0  0  0
  2 14  1  1  0  0  0
  3  4  1  0  0  0  0
  4  5  1  0  0  0  0
  5  6  1  1  0  0  0
  6  7  1  0  0  0  0
  6 11  1  0  0  0  0
  7  8  2  0  0  0  0
  8  9  1  0  0  0  0
  9 10  2  0  0  0  0
  9 13  1  0  0  0  0
 10 11  1  0  0  0  0
 11 12  2  0  0  0  0
 14 15  1  0  0  0  0
M  END
>  <Index>
1159

>  <ID>
HT2207

>  <class>
0

>  <apol>
30.21431

>  <ast_fraglike>
0

>  <ast_fraglike_ext>
0

>  <ast_violation>
1

>  <ast_violation_ext>
1

>  <a_acc>
4

>  <a_acid>
0

>  <a_aro>
0

>  <a_base>
0

>  <a_count>
28

>  <a_don>
2

>  <a_donacc>
6

>  <a_heavy>
15

>  <a_hyd>
6

>  <a_IC>
48.461121

>  <a_ICM>
1.7307544

>  <a_nB>
0

>  <a_nBr>
0

>  <a_nC>
9

>  <a_nCl>
0

>  <a_nF>
0

>  <a_nH>
13

>  <a_nI>
0

>  <a_nN>
3

>  <a_nO>
3

>  <a_nP>
0

>  <a_nS>
0

>  <balabanJ>
1.8893464

>  <BCUT_PEOE_0>
-2.5115225

>  <BCUT_PEOE_1>
-0.63598937

>  <BCUT_PEOE_2>
0.689547

>  <BCUT_PEOE_3>
2.7260225

>  <BCUT_SLOGP_0>
-2.596143

>  <BCUT_SLOGP_1>
-0.68657625

>  <BCUT_SLOGP_2>
0.57567549

>  <BCUT_SLOGP_3>
2.705195

>  <BCUT_SMR_0>
-2.2992551

>  <BCUT_SMR_1>
-0.53497547

>  <BCUT_SMR_2>
0.7792592

>  <BCUT_SMR_3>
2.949332

>  <bpol>
19.725691

>  <b_1rotN>
2

>  <b_1rotR>
0.125

>  <b_ar>
0

>  <b_count>
29

>  <b_double>
3

>  <b_heavy>
16

>  <b_max1len>
4

>  <b_rotN>
2

>  <b_rotR>
0.125

>  <b_single>
26

>  <b_triple>
0

>  <chi0>
10.836499

>  <chi0v>
8.1662092

>  <chi0v_C>
5.4307213

>  <chi0_C>
5.8449349

>  <chi1>
7.2027087

>  <chi1v>
4.8144031

>  <chi1v_C>
2.3467534

>  <chi1_C>
2.6329932

>  <chiral>
2

>  <chiral_u>
0

>  <density>
0.80479431

>  <diameter>
9

>  <FCharge>
0

>  <GCUT_PEOE_0>
-0.84346098

>  <GCUT_PEOE_1>
-0.44497722

>  <GCUT_PEOE_2>
0.10919525

>  <GCUT_PEOE_3>
2.4641497

>  <GCUT_SLOGP_0>
-1.3703731

>  <GCUT_SLOGP_1>
-0.36583456

>  <GCUT_SLOGP_2>
0.14424291

>  <GCUT_SLOGP_3>
2.4435968

>  <GCUT_SMR_0>
-0.52760088

>  <GCUT_SMR_1>
-0.25149632

>  <GCUT_SMR_2>
0.18720531

>  <GCUT_SMR_3>
2.6938834

>  <Kier1>
11.484375

>  <Kier2>
4.8884296

>  <Kier3>
2.5714285

>  <KierA1>
8.8319998

>  <KierA2>
3.6823802

>  <KierA3>
1.9043266

>  <KierFlex>
2.1681855

>  <lip_acc>
6

>  <lip_don>
3

>  <lip_druglike>
1

>  <lip_violation>
0

>  <logP(o/w)>
-0.49900001

>  <logS>
-0.88103002

>  <mr>
5.2343493

>  <mutagenic>
0

>  <nmol>
1

>  <opr_brigid>
11

>  <opr_leadlike>
1

>  <opr_nring>
2

>  <opr_nrot>
3

>  <opr_violation>
0

>  <PC+>
0

>  <PC->
0

>  <PEOE_PC+>
1.8483894

>  <PEOE_PC->
-1.8483894

>  <PEOE_RPC+>
0.19057047

>  <PEOE_RPC->
0.2123244

>  <PEOE_VSA+0>
33.807461

>  <PEOE_VSA+1>
45.44854

>  <PEOE_VSA+2>
20.586502

>  <PEOE_VSA+3>
17.238026

>  <PEOE_VSA+4>
10.324173

>  <PEOE_VSA+5>
0

>  <PEOE_VSA+6>
17.440542

>  <PEOE_VSA-0>
29.65753

>  <PEOE_VSA-1>
0

>  <PEOE_VSA-2>
0

>  <PEOE_VSA-3>
5.6825762

>  <PEOE_VSA-4>
13.566921

>  <PEOE_VSA-5>
0

>  <PEOE_VSA-6>
16.922417

>  <PEOE_VSA_FHYD>
0.72348815

>  <PEOE_VSA_FNEG>
0.31246963

>  <PEOE_VSA_FPNEG>
0.14472236

>  <PEOE_VSA_FPOL>
0.27651188

>  <PEOE_VSA_FPOS>
0.68753034

>  <PEOE_VSA_FPPOS>
0.13178952

>  <PEOE_VSA_HYD>
152.42064

>  <PEOE_VSA_NEG>
65.829445

>  <PEOE_VSA_PNEG>
30.489336

>  <PEOE_VSA_POL>
58.254051

>  <PEOE_VSA_POS>
144.84525

>  <PEOE_VSA_PPOS>
27.764715

>  <petitjean>
0.44444445

>  <petitjeanSC>
0.80000001

>  <Q_PC+>
0

>  <Q_PC->
0

>  <Q_RPC+>
0

>  <Q_RPC->
0

>  <Q_VSA_FHYD>
1

>  <Q_VSA_FNEG>
0

>  <Q_VSA_FPNEG>
0

>  <Q_VSA_FPOL>
0

>  <Q_VSA_FPOS>
1

>  <Q_VSA_FPPOS>
0

>  <Q_VSA_HYD>
210.67468

>  <Q_VSA_NEG>
0

>  <Q_VSA_PNEG>
0

>  <Q_VSA_POL>
0

>  <Q_VSA_POS>
210.67468

>  <Q_VSA_PPOS>
0

>  <radius>
5

>  <reactive>
0

>  <rings>
2

>  <RPC+>
0

>  <RPC->
0

>  <rsynth>
1

>  <SlogP>
-0.2097

>  <SlogP_VSA0>
58.282413

>  <SlogP_VSA1>
10.28219

>  <SlogP_VSA2>
23.508358

>  <SlogP_VSA3>
20.926258

>  <SlogP_VSA4>
0

>  <SlogP_VSA5>
16.78553

>  <SlogP_VSA6>
0

>  <SlogP_VSA7>
34.85754

>  <SlogP_VSA8>
37.736813

>  <SlogP_VSA9>
23.862217

>  <SMR>
5.2978201

>  <SMR_VSA0>
34.862103

>  <SMR_VSA1>
45.295071

>  <SMR_VSA2>
0

>  <SMR_VSA3>
12.508471

>  <SMR_VSA4>
32.897186

>  <SMR_VSA5>
72.594353

>  <SMR_VSA6>
28.084135

>  <SMR_VSA7>
0

>  <TPSA>
88.150002

>  <VAdjEq>
0.59002918

>  <VAdjMa>
5

>  <VDistEq>
2.837183

>  <VDistMa>
7.4991851

>  <vdw_area>
210.67468

>  <vdw_vol>
262.4534

>  <vsa_acc>
21.753254

>  <vsa_acid>
0

>  <vsa_base>
0

>  <vsa_don>
17.742489

>  <vsa_hyd>
98.241982

>  <vsa_other>
41.580635

>  <vsa_pol>
53.062664

>  <Weight>
211.22099

>  <weinerPath>
369

>  <weinerPol>
20

>  <zagreb>
76

$$$$