OC(CC1N(C)C(CCC1)CC(=O)c1ccccc1)c1ccccc1
  MOE2013           2D

 25 27  0  0  1  0  0  0  0  0999 V2000
    0.0000    0.0000    0.0000 O   0  0  0  0  0  0  0  0  0  0  0  0
    0.0000   -1.5000    0.0000 C   0  0  3  0  0  0  0  0  0  0  0  0
    1.2990   -2.2500    0.0000 C   0  0  0  0  0  0  0  0  0  0  0  0
    2.5980   -1.5000    0.0000 C   0  0  3  0  0  0  0  0  0  0  0  0
    3.8970   -2.2500    0.0000 N   0  0  3  0  0  0  0  0  0  0  0  0
    3.8970   -3.7500    0.0000 C   0  0  0  0  0  0  0  0  0  0  0  0
    5.1960   -1.5000    0.0000 C   0  0  3  0  0  0  0  0  0  0  0  0
    5.1960    0.0000    0.0000 C   0  0  0  0  0  0  0  0  0  0  0  0
    3.8970    0.7500    0.0000 C   0  0  0  0  0  0  0  0  0  0  0  0
    2.5980    0.0000    0.0000 C   0  0  0  0  0  0  0  0  0  0  0  0
    6.4950   -2.2500    0.0000 C   0  0  0  0  0  0  0  0  0  0  0  0
    7.7940   -1.5000    0.0000 C   0  0  0  0  0  0  0  0  0  0  0  0
    7.7940    0.0000    0.0000 O   0  0  0  0  0  0  0  0  0  0  0  0
    9.0930   -2.2500    0.0000 C   0  0  0  0  0  0  0  0  0  0  0  0
   10.3920   -1.5000    0.0000 C   0  0  0  0  0  0  0  0  0  0  0  0
   11.6910   -2.2500    0.0000 C   0  0  0  0  0  0  0  0  0  0  0  0
   11.6910   -3.7500    0.0000 C   0  0  0  0  0  0  0  0  0  0  0  0
   10.3920   -4.5000    0.0000 C   0  0  0  0  0  0  0  0  0  0  0  0
    9.0930   -3.7500    0.0000 C   0  0  0  0  0  0  0  0  0  0  0  0
   -1.2990   -2.2500    0.0000 C   0  0  0  0  0  0  0  0  0  0  0  0
   -2.5980   -1.5000    0.0000 C   0  0  0  0  0  0  0  0  0  0  0  0
   -3.8970   -2.2500    0.0000 C   0  0  0  0  0  0  0  0  0  0  0  0
   -3.8970   -3.7500    0.0000 C   0  0  0  0  0  0  0  0  0  0  0  0
   -2.5980   -4.5000    0.0000 C   0  0  0  0  0  0  0  0  0  0  0  0
   -1.2990   -3.7500    0.0000 C   0  0  0  0  0  0  0  0  0  0  0  0
  1  2  1  0  0  0  0
  2  3  1  0  0  0  0
  2 20  1  0  0  0  0
  3  4  1  0  0  0  0
  4  5  1  0  0  0  0
  4 10  1  0  0  0  0
  5  6  1  0  0  0  0
  5  7  1  0  0  0  0
  7  8  1  0  0  0  0
  7 11  1  0  0  0  0
  8  9  1  0  0  0  0
  9 10  1  0  0  0  0
 11 12  1  0  0  0  0
 12 13  2  0  0  0  0
 12 14  1  0  0  0  0
 14 15  1  0  0  0  0
 14 19  2  0  0  0  0
 15 16  2  0  0  0  0
 16 17  1  0  0  0  0
 17 18  2  0  0  0  0
 18 19  1  0  0  0  0
 20 21  1  0  0  0  0
 20 25  2  0  0  0  0
 21 22  2  0  0  0  0
 22 23  1  0  0  0  0
 23 24  2  0  0  0  0
 24 25  1  0  0  0  0
M  END
>  <Index>
1345

>  <ID>
HT3543

>  <class>
0

>  <apol>
59.42741

>  <ast_fraglike>
0

>  <ast_fraglike_ext>
0

>  <ast_violation>
2

>  <ast_violation_ext>
3

>  <a_acc>
3

>  <a_acid>
0

>  <a_aro>
12

>  <a_base>
0

>  <a_count>
52

>  <a_don>
1

>  <a_donacc>
4

>  <a_heavy>
25

>  <a_hyd>
21

>  <a_IC>
67.933411

>  <a_ICM>
1.3064116

>  <a_nB>
0

>  <a_nBr>
0

>  <a_nC>
22

>  <a_nCl>
0

>  <a_nF>
0

>  <a_nH>
27

>  <a_nI>
0

>  <a_nN>
1

>  <a_nO>
2

>  <a_nP>
0

>  <a_nS>
0

>  <balabanJ>
1.4850127

>  <BCUT_PEOE_0>
-2.8361499

>  <BCUT_PEOE_1>
-0.64796358

>  <BCUT_PEOE_2>
0.69768345

>  <BCUT_PEOE_3>
2.7720881

>  <BCUT_SLOGP_0>
-2.841737

>  <BCUT_SLOGP_1>
-0.53807992

>  <BCUT_SLOGP_2>
0.71389234

>  <BCUT_SLOGP_3>
2.8142376

>  <BCUT_SMR_0>
-2.5702419

>  <BCUT_SMR_1>
-0.49986199

>  <BCUT_SMR_2>
0.83242822

>  <BCUT_SMR_3>
3.0326803

>  <bpol>
32.45459

>  <b_1rotN>
6

>  <b_1rotR>
0.22222222

>  <b_ar>
12

>  <b_count>
54

>  <b_double>
1

>  <b_heavy>
27

>  <b_max1len>
5

>  <b_rotN>
6

>  <b_rotR>
0.22222222

>  <b_single>
41

>  <b_triple>
0

>  <chi0>
17.648054

>  <chi0v>
14.843763

>  <chi0v_C>
13.541087

>  <chi0_C>
15.070704

>  <chi1>
12.147867

>  <chi1v>
9.1807718

>  <chi1v_C>
7.754837

>  <chi1_C>
9.7491493

>  <chiral>
3

>  <chiral_u>
3

>  <density>
0.67244673

>  <diameter>
14

>  <FCharge>
0

>  <GCUT_PEOE_0>
-0.85370016

>  <GCUT_PEOE_1>
-0.38814002

>  <GCUT_PEOE_2>
0.079469517

>  <GCUT_PEOE_3>
2.8763688

>  <GCUT_SLOGP_0>
-0.95278126

>  <GCUT_SLOGP_1>
-0.26386139

>  <GCUT_SLOGP_2>
0.13860177

>  <GCUT_SLOGP_3>
2.9362521

>  <GCUT_SMR_0>
-0.5238142

>  <GCUT_SMR_1>
-0.21605732

>  <GCUT_SMR_2>
0.19305076

>  <GCUT_SMR_3>
3.1182745

>  <Kier1>
19.753086

>  <Kier2>
9.7962961

>  <Kier3>
5.489603

>  <KierA1>
15.559336

>  <KierA2>
7.6345348

>  <KierA3>
4.2440538

>  <KierFlex>
4.7515316

>  <lip_acc>
3

>  <lip_don>
1

>  <lip_druglike>
1

>  <lip_violation>
0

>  <logP(o/w)>
4.4710002

>  <logS>
-3.99088

>  <mr>
10.237991

>  <mutagenic>
0

>  <nmol>
1

>  <opr_brigid>
18

>  <opr_leadlike>
1

>  <opr_nring>
3

>  <opr_nrot>
8

>  <opr_violation>
0

>  <PC+>
0

>  <PC->
0

>  <PEOE_PC+>
1.7239755

>  <PEOE_PC->
-1.7239755

>  <PEOE_RPC+>
0.12194581

>  <PEOE_RPC->
0.22455615

>  <PEOE_VSA+0>
81.182564

>  <PEOE_VSA+1>
51.824173

>  <PEOE_VSA+2>
0

>  <PEOE_VSA+3>
8.458519

>  <PEOE_VSA+4>
10.324173

>  <PEOE_VSA+5>
0

>  <PEOE_VSA+6>
0

>  <PEOE_VSA-0>
51.55117

>  <PEOE_VSA-1>
131.25035

>  <PEOE_VSA-2>
0

>  <PEOE_VSA-3>
0

>  <PEOE_VSA-4>
0

>  <PEOE_VSA-5>
13.566921

>  <PEOE_VSA-6>
7.7675405

>  <PEOE_VSA_FHYD>
0.91105264

>  <PEOE_VSA_FNEG>
0.57353586

>  <PEOE_VSA_FPNEG>
0.059940819

>  <PEOE_VSA_FPOL>
0.088947386

>  <PEOE_VSA_FPOS>
0.42646417

>  <PEOE_VSA_FPPOS>
0.029006563

>  <PEOE_VSA_HYD>
324.26678

>  <PEOE_VSA_NEG>
204.13599

>  <PEOE_VSA_PNEG>
21.334461

>  <PEOE_VSA_POL>
31.658634

>  <PEOE_VSA_POS>
151.78943

>  <PEOE_VSA_PPOS>
10.324173

>  <petitjean>
0.5

>  <petitjeanSC>
1

>  <Q_PC+>
0

>  <Q_PC->
0

>  <Q_RPC+>
0

>  <Q_RPC->
0

>  <Q_VSA_FHYD>
1

>  <Q_VSA_FNEG>
0

>  <Q_VSA_FPNEG>
0

>  <Q_VSA_FPOL>
0

>  <Q_VSA_FPOS>
1

>  <Q_VSA_FPPOS>
0

>  <Q_VSA_HYD>
355.92542

>  <Q_VSA_NEG>
0

>  <Q_VSA_PNEG>
0

>  <Q_VSA_POL>
0

>  <Q_VSA_POS>
355.92542

>  <Q_VSA_PPOS>
0

>  <radius>
7

>  <reactive>
1

>  <rings>
3

>  <RPC+>
0

>  <RPC->
0

>  <rsynth>
0.40000001

>  <SlogP>
4.3315001

>  <SlogP_VSA0>
25.385227

>  <SlogP_VSA1>
8.8119249

>  <SlogP_VSA2>
7.9639373

>  <SlogP_VSA3>
0

>  <SlogP_VSA4>
30.233366

>  <SlogP_VSA5>
32.897186

>  <SlogP_VSA6>
0

>  <SlogP_VSA7>
176.43184

>  <SlogP_VSA8>
100.81068

>  <SlogP_VSA9>
0

>  <SMR>
10.07093

>  <SMR_VSA0>
23.862217

>  <SMR_VSA1>
28.509541

>  <SMR_VSA2>
0

>  <SMR_VSA3>
20.803736

>  <SMR_VSA4>
0

>  <SMR_VSA5>
270.77386

>  <SMR_VSA6>
5.6876111

>  <SMR_VSA7>
32.897186

>  <TPSA>
40.540001

>  <VAdjEq>
0.42433795

>  <VAdjMa>
5.7548876

>  <VDistEq>
3.5426018

>  <VDistMa>
8.9798527

>  <vdw_area>
355.92542

>  <vdw_vol>
501.84344

>  <vsa_acc>
13.566921

>  <vsa_acid>
0

>  <vsa_base>
0

>  <vsa_don>
0

>  <vsa_hyd>
297.30157

>  <vsa_other>
8.458519

>  <vsa_pol>
27.133842

>  <Weight>
337.46298

>  <weinerPath>
1634

>  <weinerPol>
37

>  <zagreb>
126

$$$$