Clc1cccc(Cl)c1SC(CCc1ccc(Cl)cc1)Cn1ccnc1
  MOE2013           2D

 25 27  0  0  1  0  0  0  0  0999 V2000
    0.0000    0.0000    0.0000 Cl  0  0  0  0  0  0  0  0  0  0  0  0
   -0.7410    1.3040    0.0000 C   0  0  0  0  0  0  0  0  0  0  0  0
   -2.2410    1.3140    0.0000 C   0  0  0  0  0  0  0  0  0  0  0  0
   -2.9830    2.6180    0.0000 C   0  0  0  0  0  0  0  0  0  0  0  0
   -2.2240    3.9120    0.0000 C   0  0  0  0  0  0  0  0  0  0  0  0
   -0.7240    3.9020    0.0000 C   0  0  0  0  0  0  0  0  0  0  0  0
    0.0350    5.1960    0.0000 Cl  0  0  0  0  0  0  0  0  0  0  0  0
    0.0170    2.5980    0.0000 C   0  0  0  0  0  0  0  0  0  0  0  0
    1.5170    2.5880    0.0000 S   0  0  0  0  0  0  0  0  0  0  0  0
    2.2760    3.8820    0.0000 C   0  0  3  0  0  0  0  0  0  0  0  0
    3.7760    3.8720    0.0000 C   0  0  0  0  0  0  0  0  0  0  0  0
    4.5170    2.5680    0.0000 C   0  0  0  0  0  0  0  0  0  0  0  0
    6.0170    2.5580    0.0000 C   0  0  0  0  0  0  0  0  0  0  0  0
    6.7760    3.8520    0.0000 C   0  0  0  0  0  0  0  0  0  0  0  0
    8.2760    3.8420    0.0000 C   0  0  0  0  0  0  0  0  0  0  0  0
    9.0170    2.5380    0.0000 C   0  0  0  0  0  0  0  0  0  0  0  0
   10.5170    2.5280    0.0000 Cl  0  0  0  0  0  0  0  0  0  0  0  0
    8.2580    1.2440    0.0000 C   0  0  0  0  0  0  0  0  0  0  0  0
    6.7580    1.2540    0.0000 C   0  0  0  0  0  0  0  0  0  0  0  0
    1.5350    5.1860    0.0000 C   0  0  0  0  0  0  0  0  0  0  0  0
    2.2930    6.4800    0.0000 N   0  0  0  0  0  0  0  0  0  0  0  0
    1.6920    7.8540    0.0000 C   0  0  0  0  0  0  0  0  0  0  0  0
    2.8140    8.8510    0.0000 C   0  0  0  0  0  0  0  0  0  0  0  0
    4.1080    8.0920    0.0000 N   0  0  0  0  0  0  0  0  0  0  0  0
    3.7860    6.6270    0.0000 C   0  0  0  0  0  0  0  0  0  0  0  0
  1  2  1  0  0  0  0
  2  3  1  0  0  0  0
  2  8  2  0  0  0  0
  3  4  2  0  0  0  0
  4  5  1  0  0  0  0
  5  6  2  0  0  0  0
  6  7  1  0  0  0  0
  6  8  1  0  0  0  0
  8  9  1  0  0  0  0
  9 10  1  0  0  0  0
 10 11  1  0  0  0  0
 10 20  1  0  0  0  0
 11 12  1  0  0  0  0
 12 13  1  0  0  0  0
 13 14  1  0  0  0  0
 13 19  2  0  0  0  0
 14 15  2  0  0  0  0
 15 16  1  0  0  0  0
 16 17  1  0  0  0  0
 16 18  2  0  0  0  0
 18 19  1  0  0  0  0
 20 21  1  0  0  0  0
 21 22  1  0  0  0  0
 21 25  1  0  0  0  0
 22 23  2  0  0  0  0
 23 24  1  0  0  0  0
 24 25  2  0  0  0  0
M  END
>  <Index>
171

>  <ID>
HT0340

>  <class>
0

>  <apol>
56.415482

>  <ast_fraglike>
0

>  <ast_fraglike_ext>
0

>  <ast_violation>
2

>  <ast_violation_ext>
3

>  <a_acc>
1

>  <a_acid>
0

>  <a_aro>
17

>  <a_base>
0

>  <a_count>
42

>  <a_don>
0

>  <a_donacc>
1

>  <a_heavy>
25

>  <a_hyd>
22

>  <a_IC>
69.524956

>  <a_ICM>
1.655356

>  <a_nB>
0

>  <a_nBr>
0

>  <a_nC>
19

>  <a_nCl>
3

>  <a_nF>
0

>  <a_nH>
17

>  <a_nI>
0

>  <a_nN>
2

>  <a_nO>
0

>  <a_nP>
0

>  <a_nS>
1

>  <balabanJ>
1.5243745

>  <BCUT_PEOE_0>
-2.6088455

>  <BCUT_PEOE_1>
-0.65562636

>  <BCUT_PEOE_2>
0.68052483

>  <BCUT_PEOE_3>
2.5874877

>  <BCUT_SLOGP_0>
-2.5469007

>  <BCUT_SLOGP_1>
-0.47022107

>  <BCUT_SLOGP_2>
0.89309883

>  <BCUT_SLOGP_3>
2.6800852

>  <BCUT_SMR_0>
-2.3378615

>  <BCUT_SMR_1>
-0.43576032

>  <BCUT_SMR_2>
0.91903168

>  <BCUT_SMR_3>
2.8758652

>  <bpol>
25.424519

>  <b_1rotN>
7

>  <b_1rotR>
0.25925925

>  <b_ar>
17

>  <b_count>
44

>  <b_double>
0

>  <b_heavy>
27

>  <b_max1len>
5

>  <b_rotN>
7

>  <b_rotR>
0.25925925

>  <b_single>
27

>  <b_triple>
0

>  <chi0>
17.648054

>  <chi0v>
16.493025

>  <chi0v_C>
10.972174

>  <chi0_C>
12.656489

>  <chi1>
12.114194

>  <chi1v>
9.9381104

>  <chi1v_C>
5.5687675

>  <chi1_C>
7.3409014

>  <chiral>
1

>  <chiral_u>
1

>  <density>
0.83584523

>  <diameter>
12

>  <FCharge>
0

>  <GCUT_PEOE_0>
-0.85573643

>  <GCUT_PEOE_1>
-0.37763667

>  <GCUT_PEOE_2>
0.066570148

>  <GCUT_PEOE_3>
2.5829191

>  <GCUT_SLOGP_0>
-0.80918354

>  <GCUT_SLOGP_1>
-0.26489022

>  <GCUT_SLOGP_2>
0.27604952

>  <GCUT_SLOGP_3>
2.7372143

>  <GCUT_SMR_0>
-0.51470035

>  <GCUT_SMR_1>
-0.19457658

>  <GCUT_SMR_2>
0.34237543

>  <GCUT_SMR_3>
2.8834491

>  <Kier1>
19.753086

>  <Kier2>
9.7962961

>  <Kier3>
6

>  <KierA1>
18.741903

>  <KierA2>
9.273695

>  <KierA3>
5.6702638

>  <KierFlex>
6.9522681

>  <lip_acc>
2

>  <lip_don>
0

>  <lip_druglike>
1

>  <lip_violation>
1

>  <logP(o/w)>
6.4510002

>  <logS>
-6.9328599

>  <mr>
11.048102

>  <mutagenic>
0

>  <nmol>
1

>  <opr_brigid>
17

>  <opr_leadlike>
1

>  <opr_nring>
3

>  <opr_nrot>
7

>  <opr_violation>
1

>  <PC+>
0

>  <PC->
0

>  <PEOE_PC+>
1.3983276

>  <PEOE_PC->
-1.3983276

>  <PEOE_RPC+>
0.073554337

>  <PEOE_RPC->
0.24012303

>  <PEOE_VSA+0>
77.346443

>  <PEOE_VSA+1>
77.195663

>  <PEOE_VSA+2>
4.2653861

>  <PEOE_VSA+3>
0

>  <PEOE_VSA+4>
0

>  <PEOE_VSA+5>
0

>  <PEOE_VSA+6>
0

>  <PEOE_VSA-0>
68.630783

>  <PEOE_VSA-1>
125.51055

>  <PEOE_VSA-2>
19.760618

>  <PEOE_VSA-3>
0

>  <PEOE_VSA-4>
5.6825762

>  <PEOE_VSA-5>
0

>  <PEOE_VSA-6>
0

>  <PEOE_VSA_FHYD>
0.98498231

>  <PEOE_VSA_FNEG>
0.58030963

>  <PEOE_VSA_FPNEG>
0.015017695

>  <PEOE_VSA_FPOL>
0.015017695

>  <PEOE_VSA_FPOS>
0.4196904

>  <PEOE_VSA_FPPOS>
0

>  <PEOE_VSA_HYD>
372.70944

>  <PEOE_VSA_NEG>
219.58453

>  <PEOE_VSA_PNEG>
5.6825762

>  <PEOE_VSA_POL>
5.6825762

>  <PEOE_VSA_POS>
158.8075

>  <PEOE_VSA_PPOS>
0

>  <petitjean>
0.5

>  <petitjeanSC>
1

>  <Q_PC+>
0

>  <Q_PC->
0

>  <Q_RPC+>
0

>  <Q_RPC->
0

>  <Q_VSA_FHYD>
1

>  <Q_VSA_FNEG>
0

>  <Q_VSA_FPNEG>
0

>  <Q_VSA_FPOL>
0

>  <Q_VSA_FPOS>
1

>  <Q_VSA_FPPOS>
0

>  <Q_VSA_HYD>
378.39203

>  <Q_VSA_NEG>
0

>  <Q_VSA_PNEG>
0

>  <Q_VSA_POL>
0

>  <Q_VSA_POS>
378.39203

>  <Q_VSA_PPOS>
0

>  <radius>
6

>  <reactive>
0

>  <rings>
3

>  <RPC+>
0

>  <RPC->
0

>  <rsynth>
1

>  <SlogP>
6.9033699

>  <SlogP_VSA0>
0

>  <SlogP_VSA1>
18.684622

>  <SlogP_VSA2>
2.7759552

>  <SlogP_VSA3>
0

>  <SlogP_VSA4>
3.185575

>  <SlogP_VSA5>
20.41914

>  <SlogP_VSA6>
10.50182

>  <SlogP_VSA7>
174.71654

>  <SlogP_VSA8>
18.868406

>  <SlogP_VSA9>
168.10506

>  <SMR>
10.8313

>  <SMR_VSA0>
0

>  <SMR_VSA1>
18.684622

>  <SMR_VSA2>
1.5507339

>  <SMR_VSA3>
16.46335

>  <SMR_VSA4>
0

>  <SMR_VSA5>
230.89293

>  <SMR_VSA6>
0

>  <SMR_VSA7>
149.66547

>  <TPSA>
17.82

>  <VAdjEq>
0.42433795

>  <VAdjMa>
5.7548876

>  <VDistEq>
3.3779716

>  <VDistMa>
9.013176

>  <vdw_area>
378.39203

>  <vdw_vol>
492.65579

>  <vsa_acc>
5.6825762

>  <vsa_acid>
0

>  <vsa_base>
0

>  <vsa_don>
0

>  <vsa_hyd>
335.81842

>  <vsa_other>
24.790518

>  <vsa_pol>
5.6825762

>  <Weight>
411.784

>  <weinerPath>
1593

>  <weinerPol>
33

>  <zagreb>
126

$$$$