O=C1N(C)C(=O)N(c2ncn(c12)CC(O)C)C
  MOE2013           2D

 17 18  0  0  1  0  0  0  0  0999 V2000
    0.0000    0.0000    0.0000 O   0  0  0  0  0  0  0  0  0  0  0  0
   -0.7450    1.3020    0.0000 C   0  0  0  0  0  0  0  0  0  0  0  0
   -2.2450    1.3080    0.0000 N   0  0  0  0  0  0  0  0  0  0  0  0
   -3.0000    0.0110    0.0000 C   0  0  0  0  0  0  0  0  0  0  0  0
   -2.9900    2.6090    0.0000 C   0  0  0  0  0  0  0  0  0  0  0  0
   -4.4900    2.6150    0.0000 O   0  0  0  0  0  0  0  0  0  0  0  0
   -2.2350    3.9060    0.0000 N   0  0  0  0  0  0  0  0  0  0  0  0
   -0.7350    3.9000    0.0000 C   0  0  0  0  0  0  0  0  0  0  0  0
    0.2730    5.0110    0.0000 N   0  0  0  0  0  0  0  0  0  0  0  0
    1.6410    4.3960    0.0000 C   0  0  0  0  0  0  0  0  0  0  0  0
    1.4780    2.9040    0.0000 N   0  0  0  0  0  0  0  0  0  0  0  0
    0.0100    2.5980    0.0000 C   0  0  0  0  0  0  0  0  0  0  0  0
    2.5890    1.8960    0.0000 C   0  0  0  0  0  0  0  0  0  0  0  0
    4.0170    2.3550    0.0000 C   0  0  3  0  0  0  0  0  0  0  0  0
    4.3350    3.8210    0.0000 O   0  0  0  0  0  0  0  0  0  0  0  0
    5.1280    1.3470    0.0000 C   0  0  0  0  0  0  0  0  0  0  0  0
   -2.9800    5.2070    0.0000 C   0  0  0  0  0  0  0  0  0  0  0  0
  1  2  2  0  0  0  0
  2  3  1  0  0  0  0
  2 12  1  0  0  0  0
  3  4  1  0  0  0  0
  3  5  1  0  0  0  0
  5  6  2  0  0  0  0
  5  7  1  0  0  0  0
  7  8  1  0  0  0  0
  7 17  1  0  0  0  0
  8  9  1  0  0  0  0
  8 12  2  0  0  0  0
  9 10  2  0  0  0  0
 10 11  1  0  0  0  0
 11 12  1  0  0  0  0
 11 13  1  0  0  0  0
 13 14  1  0  0  0  0
 14 15  1  0  0  0  0
 14 16  1  0  0  0  0
M  END
>  <Index>
1282

>  <ID>
HT3040

>  <class>
0

>  <apol>
33.7411

>  <ast_fraglike>
0

>  <ast_fraglike_ext>
0

>  <ast_violation>
1

>  <ast_violation_ext>
1

>  <a_acc>
4

>  <a_acid>
0

>  <a_aro>
5

>  <a_base>
0

>  <a_count>
31

>  <a_don>
1

>  <a_donacc>
5

>  <a_heavy>
17

>  <a_hyd>
6

>  <a_IC>
54.302948

>  <a_ICM>
1.751708

>  <a_nB>
0

>  <a_nBr>
0

>  <a_nC>
10

>  <a_nCl>
0

>  <a_nF>
0

>  <a_nH>
14

>  <a_nI>
0

>  <a_nN>
4

>  <a_nO>
3

>  <a_nP>
0

>  <a_nS>
0

>  <balabanJ>
2.1589923

>  <BCUT_PEOE_0>
-2.530441

>  <BCUT_PEOE_1>
-0.34591234

>  <BCUT_PEOE_2>
0.22050174

>  <BCUT_PEOE_3>
2.5381434

>  <BCUT_SLOGP_0>
-2.63166

>  <BCUT_SLOGP_1>
-0.21148829

>  <BCUT_SLOGP_2>
0.37552622

>  <BCUT_SLOGP_3>
2.5358348

>  <BCUT_SMR_0>
-2.2897813

>  <BCUT_SMR_1>
-0.089467332

>  <BCUT_SMR_2>
0.53188044

>  <BCUT_SMR_3>
2.8025174

>  <bpol>
24.480898

>  <b_1rotN>
2

>  <b_1rotR>
0.11111111

>  <b_ar>
5

>  <b_count>
32

>  <b_double>
2

>  <b_heavy>
18

>  <b_max1len>
4

>  <b_rotN>
2

>  <b_rotR>
0.11111111

>  <b_single>
25

>  <b_triple>
0

>  <chi0>
12.740123

>  <chi0v>
9.9143715

>  <chi0v_C>
6.8618073

>  <chi0_C>
7.3009648

>  <chi1>
7.930428

>  <chi1v>
5.2207394

>  <chi1v_C>
1.4855986

>  <chi1_C>
1.6522652

>  <chiral>
1

>  <chiral_u>
1

>  <density>
0.79805529

>  <diameter>
8

>  <FCharge>
0

>  <GCUT_PEOE_0>
-0.83213246

>  <GCUT_PEOE_1>
-0.4148182

>  <GCUT_PEOE_2>
-0.10824602

>  <GCUT_PEOE_3>
2.4847364

>  <GCUT_SLOGP_0>
-1.0014631

>  <GCUT_SLOGP_1>
-0.33958957

>  <GCUT_SLOGP_2>
-0.037

>  <GCUT_SLOGP_3>
2.4597371

>  <GCUT_SMR_0>
-0.52325267

>  <GCUT_SMR_1>
-0.15126662

>  <GCUT_SMR_2>
0.11645257

>  <GCUT_SMR_3>
2.7425303

>  <Kier1>
13.432098

>  <Kier2>
4.9382715

>  <Kier3>
2.2907231

>  <KierA1>
9.7160454

>  <KierA2>
3.4928422

>  <KierA3>
1.5913616

>  <KierFlex>
1.9962713

>  <lip_acc>
7

>  <lip_don>
1

>  <lip_druglike>
1

>  <lip_violation>
0

>  <logP(o/w)>
-0.83600003

>  <logS>
-0.81300002

>  <mr>
5.953898

>  <mutagenic>
0

>  <nmol>
1

>  <opr_brigid>
10

>  <opr_leadlike>
1

>  <opr_nring>
2

>  <opr_nrot>
2

>  <opr_violation>
0

>  <PC+>
0

>  <PC->
0

>  <PEOE_PC+>
2.0205643

>  <PEOE_PC->
-2.0205643

>  <PEOE_RPC+>
0.16483915

>  <PEOE_RPC->
0.19316398

>  <PEOE_VSA+0>
84.865852

>  <PEOE_VSA+1>
52.130337

>  <PEOE_VSA+2>
4.2653861

>  <PEOE_VSA+3>
17.890114

>  <PEOE_VSA+4>
10.324173

>  <PEOE_VSA+5>
12.949531

>  <PEOE_VSA+6>
17.440542

>  <PEOE_VSA-0>
18.747677

>  <PEOE_VSA-1>
0

>  <PEOE_VSA-2>
0

>  <PEOE_VSA-3>
0

>  <PEOE_VSA-4>
19.249496

>  <PEOE_VSA-5>
13.566921

>  <PEOE_VSA-6>
7.7675405

>  <PEOE_VSA_FHYD>
0.68634659

>  <PEOE_VSA_FNEG>
0.22890505

>  <PEOE_VSA_FPNEG>
0.15657538

>  <PEOE_VSA_FPOL>
0.31365341

>  <PEOE_VSA_FPOS>
0.77109492

>  <PEOE_VSA_FPPOS>
0.15707804

>  <PEOE_VSA_HYD>
177.89937

>  <PEOE_VSA_NEG>
59.331635

>  <PEOE_VSA_PNEG>
40.583958

>  <PEOE_VSA_POL>
81.298203

>  <PEOE_VSA_POS>
199.86594

>  <PEOE_VSA_PPOS>
40.714245

>  <petitjean>
0.5

>  <petitjeanSC>
1

>  <Q_PC+>
0

>  <Q_PC->
0

>  <Q_RPC+>
0

>  <Q_RPC->
0

>  <Q_VSA_FHYD>
1

>  <Q_VSA_FNEG>
0

>  <Q_VSA_FPNEG>
0

>  <Q_VSA_FPOL>
0

>  <Q_VSA_FPOS>
1

>  <Q_VSA_FPPOS>
0

>  <Q_VSA_HYD>
259.19757

>  <Q_VSA_NEG>
0

>  <Q_VSA_PNEG>
0

>  <Q_VSA_POL>
0

>  <Q_VSA_POS>
259.19757

>  <Q_VSA_PPOS>
0

>  <radius>
4

>  <reactive>
0

>  <rings>
2

>  <RPC+>
0

>  <RPC->
0

>  <rsynth>
1

>  <SlogP>
0.17209999

>  <SlogP_VSA0>
28.509541

>  <SlogP_VSA1>
31.897676

>  <SlogP_VSA2>
6.4686494

>  <SlogP_VSA3>
0

>  <SlogP_VSA4>
26.618963

>  <SlogP_VSA5>
65.794373

>  <SlogP_VSA6>
0

>  <SlogP_VSA7>
16.78553

>  <SlogP_VSA8>
0

>  <SlogP_VSA9>
77.955727

>  <SMR>
6.0005298

>  <SMR_VSA0>
47.724434

>  <SMR_VSA1>
47.194164

>  <SMR_VSA2>
3.1243138

>  <SMR_VSA3>
9.2253971

>  <SMR_VSA4>
2.3279202

>  <SMR_VSA5>
35.225109

>  <SMR_VSA6>
10.088739

>  <SMR_VSA7>
99.120392

>  <TPSA>
78.669998

>  <VAdjEq>
0.54234898

>  <VAdjMa>
5.1699252

>  <VDistEq>
2.7426751

>  <VDistMa>
7.902792

>  <vdw_area>
259.19757

>  <vdw_vol>
298.53442

>  <vsa_acc>
32.816418

>  <vsa_acid>
0

>  <vsa_base>
0

>  <vsa_don>
0

>  <vsa_hyd>
132.66495

>  <vsa_other>
66.371155

>  <vsa_pol>
46.383339

>  <Weight>
238.24699

>  <weinerPath>
473

>  <weinerPol>
29

>  <zagreb>
90

$$$$