OC(C(O)C(O)C(O)=O)C(O)C(O)CO
  MOE2013           2D

 15 14  0  0  1  0  0  0  0  0999 V2000
    0.0000    0.0000    0.0000 O   0  0  0  0  0  0  0  0  0  0  0  0
   -0.7460   -1.3010    0.0000 C   0  0  3  0  0  0  0  0  0  0  0  0
   -2.2460   -1.3050    0.0000 C   0  0  3  0  0  0  0  0  0  0  0  0
   -2.9930   -2.6070    0.0000 O   0  0  0  0  0  0  0  0  0  0  0  0
   -3.0000   -0.0090    0.0000 C   0  0  3  0  0  0  0  0  0  0  0  0
   -2.2540    1.2930    0.0000 O   0  0  0  0  0  0  0  0  0  0  0  0
   -4.5000   -0.0130    0.0000 C   0  0  0  0  0  0  0  0  0  0  0  0
   -5.2460   -1.3140    0.0000 O   0  0  0  0  0  0  0  0  0  0  0  0
   -5.2540    1.2840    0.0000 O   0  0  0  0  0  0  0  0  0  0  0  0
    0.0070   -2.5980    0.0000 C   0  0  3  0  0  0  0  0  0  0  0  0
   -0.7390   -3.8990    0.0000 O   0  0  0  0  0  0  0  0  0  0  0  0
    1.5070   -2.5940    0.0000 C   0  0  3  0  0  0  0  0  0  0  0  0
    2.2540   -1.2930    0.0000 O   0  0  0  0  0  0  0  0  0  0  0  0
    2.2610   -3.8910    0.0000 C   0  0  0  0  0  0  0  0  0  0  0  0
    3.7610   -3.8860    0.0000 O   0  0  0  0  0  0  0  0  0  0  0  0
  1  2  1  0  0  0  0
  2  3  1  0  0  0  0
  2 10  1  0  0  0  0
  3  4  1  0  0  0  0
  3  5  1  0  0  0  0
  5  6  1  0  0  0  0
  5  7  1  0  0  0  0
  7  8  1  0  0  0  0
  7  9  2  0  0  0  0
 10 11  1  0  0  0  0
 10 12  1  0  0  0  0
 12 13  1  0  0  0  0
 12 14  1  0  0  0  0
 14 15  1  0  0  0  0
M  END
>  <Index>
181

>  <ID>
HT0354

>  <class>
0

>  <apol>
28.071102

>  <ast_fraglike>
0

>  <ast_fraglike_ext>
0

>  <ast_violation>
2

>  <ast_violation_ext>
4

>  <a_acc>
8

>  <a_acid>
0

>  <a_aro>
0

>  <a_base>
0

>  <a_count>
29

>  <a_don>
8

>  <a_donacc>
16

>  <a_heavy>
15

>  <a_hyd>
6

>  <a_IC>
43.926994

>  <a_ICM>
1.514724

>  <a_nB>
0

>  <a_nBr>
0

>  <a_nC>
7

>  <a_nCl>
0

>  <a_nF>
0

>  <a_nH>
14

>  <a_nI>
0

>  <a_nN>
0

>  <a_nO>
8

>  <a_nP>
0

>  <a_nS>
0

>  <balabanJ>
4.3630161

>  <BCUT_PEOE_0>
-2.6395931

>  <BCUT_PEOE_1>
-0.68538189

>  <BCUT_PEOE_2>
0.75615376

>  <BCUT_PEOE_3>
2.726335

>  <BCUT_SLOGP_0>
-2.8594751

>  <BCUT_SLOGP_1>
-0.8474285

>  <BCUT_SLOGP_2>
0.54888815

>  <BCUT_SLOGP_3>
2.4932296

>  <BCUT_SMR_0>
-2.4445794

>  <BCUT_SMR_1>
-0.56297457

>  <BCUT_SMR_2>
0.83811146

>  <BCUT_SMR_3>
2.904001

>  <bpol>
16.262897

>  <b_1rotN>
6

>  <b_1rotR>
0.42857143

>  <b_ar>
0

>  <b_count>
28

>  <b_double>
1

>  <b_heavy>
14

>  <b_max1len>
9

>  <b_rotN>
6

>  <b_rotR>
0.42857143

>  <b_single>
27

>  <b_triple>
0

>  <chi0>
12.171208

>  <chi0v>
7.6326017

>  <chi0v_C>
4.0938582

>  <chi0_C>
4.1712084

>  <chi1>
6.8234735

>  <chi1v>
4.0652099

>  <chi1v_C>
2.0302567

>  <chi1_C>
2.0749149

>  <chiral>
5

>  <chiral_u>
5

>  <density>
0.9204278

>  <diameter>
8

>  <FCharge>
0

>  <GCUT_PEOE_0>
-0.79331905

>  <GCUT_PEOE_1>
-0.46588862

>  <GCUT_PEOE_2>
0.2166595

>  <GCUT_PEOE_3>
2.4644029

>  <GCUT_SLOGP_0>
-0.96380532

>  <GCUT_SLOGP_1>
-0.6082505

>  <GCUT_SLOGP_2>
-0.0056856335

>  <GCUT_SLOGP_3>
2.2769115

>  <GCUT_SMR_0>
-0.52613258

>  <GCUT_SMR_1>
-0.28208557

>  <GCUT_SMR_2>
0.25379893

>  <GCUT_SMR_3>
2.6400392

>  <Kier1>
15

>  <Kier2>
6.5540166

>  <Kier3>
4.1652894

>  <KierA1>
14.07675

>  <KierA2>
6.1209779

>  <KierA3>
3.874779

>  <KierFlex>
5.7442317

>  <lip_acc>
8

>  <lip_don>
7

>  <lip_druglike>
1

>  <lip_violation>
1

>  <logP(o/w)>
-3.7639999

>  <logS>
1.62886

>  <mr>
4.4742222

>  <mutagenic>
0

>  <nmol>
1

>  <opr_brigid>
0

>  <opr_leadlike>
0

>  <opr_nring>
0

>  <opr_nrot>
6

>  <opr_violation>
2

>  <PC+>
0

>  <PC->
0

>  <PEOE_PC+>
2.9088874

>  <PEOE_PC->
-2.9088874

>  <PEOE_RPC+>
0.10006759

>  <PEOE_RPC->
0.13488872

>  <PEOE_VSA+0>
0

>  <PEOE_VSA+1>
44.808994

>  <PEOE_VSA+2>
19.619715

>  <PEOE_VSA+3>
4.9049287

>  <PEOE_VSA+4>
72.269211

>  <PEOE_VSA+5>
14.708499

>  <PEOE_VSA+6>
0

>  <PEOE_VSA-0>
0

>  <PEOE_VSA-1>
0

>  <PEOE_VSA-2>
0

>  <PEOE_VSA-3>
0

>  <PEOE_VSA-4>
0

>  <PEOE_VSA-5>
13.566921

>  <PEOE_VSA-6>
54.372784

>  <PEOE_VSA_FHYD>
0.30917865

>  <PEOE_VSA_FNEG>
0.30296269

>  <PEOE_VSA_FPNEG>
0.30296269

>  <PEOE_VSA_FPOL>
0.69082135

>  <PEOE_VSA_FPOS>
0.69703728

>  <PEOE_VSA_FPPOS>
0.38785863

>  <PEOE_VSA_HYD>
69.333641

>  <PEOE_VSA_NEG>
67.939705

>  <PEOE_VSA_PNEG>
67.939705

>  <PEOE_VSA_POL>
154.9174

>  <PEOE_VSA_POS>
156.31134

>  <PEOE_VSA_PPOS>
86.977707

>  <petitjean>
0.5

>  <petitjeanSC>
1

>  <Q_PC+>
0

>  <Q_PC->
0

>  <Q_RPC+>
0

>  <Q_RPC->
0

>  <Q_VSA_FHYD>
1

>  <Q_VSA_FNEG>
0

>  <Q_VSA_FPNEG>
0

>  <Q_VSA_FPOL>
0

>  <Q_VSA_FPOS>
1

>  <Q_VSA_FPPOS>
0

>  <Q_VSA_HYD>
224.25105

>  <Q_VSA_NEG>
0

>  <Q_VSA_PNEG>
0

>  <Q_VSA_POL>
0

>  <Q_VSA_POS>
224.25105

>  <Q_VSA_PPOS>
0

>  <radius>
4

>  <reactive>
0

>  <rings>
0

>  <RPC+>
0

>  <RPC->
0

>  <rsynth>
1

>  <SlogP>
-4.1321998

>  <SlogP_VSA0>
152.31136

>  <SlogP_VSA1>
7.7454643

>  <SlogP_VSA2>
56.205463

>  <SlogP_VSA3>
46.311485

>  <SlogP_VSA4>
0

>  <SlogP_VSA5>
0

>  <SlogP_VSA6>
0

>  <SlogP_VSA7>
0

>  <SlogP_VSA8>
0

>  <SlogP_VSA9>
0

>  <SMR>
4.4755602

>  <SMR_VSA0>
23.862217

>  <SMR_VSA1>
152.31136

>  <SMR_VSA2>
25.385227

>  <SMR_VSA3>
32.343246

>  <SMR_VSA4>
0

>  <SMR_VSA5>
0

>  <SMR_VSA6>
28.671722

>  <SMR_VSA7>
0

>  <TPSA>
158.67999

>  <VAdjEq>
0.54200274

>  <VAdjMa>
4.8073549

>  <VDistEq>
2.7979431

>  <VDistMa>
7.5248108

>  <vdw_area>
224.25105

>  <vdw_vol>
245.73465

>  <vsa_acc>
0

>  <vsa_acid>
0

>  <vsa_base>
0

>  <vsa_don>
0

>  <vsa_hyd>
64.351074

>  <vsa_other>
14.708499

>  <vsa_pol>
108.53537

>  <Weight>
226.181

>  <weinerPath>
378

>  <weinerPol>
22

>  <zagreb>
66

$$$$