s1c(nnc1NS(=O)(=O)c1ccc(N)cc1)C
  MOE2013           2D

 17 18  0  0  0  0  0  0  0  0999 V2000
    0.0000    0.0000    0.0000 S   0  0  0  0  0  0  0  0  0  0  0  0
    0.8020    1.2680    0.0000 C   0  0  0  0  0  0  0  0  0  0  0  0
   -0.1560    2.4220    0.0000 N   0  0  0  0  0  0  0  0  0  0  0  0
   -1.5500    1.8670    0.0000 N   0  0  0  0  0  0  0  0  0  0  0  0
   -1.4530    0.3710    0.0000 C   0  0  0  0  0  0  0  0  0  0  0  0
   -2.6080   -0.5870    0.0000 N   0  0  0  0  0  0  0  0  0  0  0  0
   -4.0140   -0.0670    0.0000 S   0  0  0  0  0  0  0  0  0  0  0  0
   -4.5350   -1.4740    0.0000 O   0  0  0  0  0  0  0  0  0  0  0  0
   -3.4940    1.3400    0.0000 O   0  0  0  0  0  0  0  0  0  0  0  0
   -5.4210    0.4540    0.0000 C   0  0  0  0  0  0  0  0  0  0  0  0
   -5.6740    1.9320    0.0000 C   0  0  0  0  0  0  0  0  0  0  0  0
   -7.0810    2.4530    0.0000 C   0  0  0  0  0  0  0  0  0  0  0  0
   -8.2350    1.4950    0.0000 C   0  0  0  0  0  0  0  0  0  0  0  0
   -9.6420    2.0150    0.0000 N   0  0  0  0  0  0  0  0  0  0  0  0
   -7.9820    0.0160    0.0000 C   0  0  0  0  0  0  0  0  0  0  0  0
   -6.5750   -0.5050    0.0000 C   0  0  0  0  0  0  0  0  0  0  0  0
    2.2980    1.3650    0.0000 C   0  0  0  0  0  0  0  0  0  0  0  0
  1  2  1  0  0  0  0
  1  5  1  0  0  0  0
  2  3  2  0  0  0  0
  2 17  1  0  0  0  0
  3  4  1  0  0  0  0
  4  5  2  0  0  0  0
  5  6  1  0  0  0  0
  6  7  1  0  0  0  0
  7  8  2  0  0  0  0
  7  9  2  0  0  0  0
  7 10  1  0  0  0  0
 10 11  1  0  0  0  0
 10 16  2  0  0  0  0
 11 12  2  0  0  0  0
 12 13  1  0  0  0  0
 13 14  1  0  0  0  0
 13 15  2  0  0  0  0
 15 16  1  0  0  0  0
M  END
>  <Index>
1018

>  <ID>
HT1944

>  <class>
0

>  <apol>
34.311932

>  <ast_fraglike>
0

>  <ast_fraglike_ext>
0

>  <ast_violation>
1

>  <ast_violation_ext>
2

>  <a_acc>
4

>  <a_acid>
0

>  <a_aro>
11

>  <a_base>
0

>  <a_count>
27

>  <a_don>
2

>  <a_donacc>
6

>  <a_heavy>
17

>  <a_hyd>
9

>  <a_IC>
54.633358

>  <a_ICM>
2.0234578

>  <a_nB>
0

>  <a_nBr>
0

>  <a_nC>
9

>  <a_nCl>
0

>  <a_nF>
0

>  <a_nH>
10

>  <a_nI>
0

>  <a_nN>
4

>  <a_nO>
2

>  <a_nP>
0

>  <a_nS>
2

>  <balabanJ>
1.8579098

>  <BCUT_PEOE_0>
-2.304069

>  <BCUT_PEOE_1>
-0.65366089

>  <BCUT_PEOE_2>
0.4958086

>  <BCUT_PEOE_3>
2.4221878

>  <BCUT_SLOGP_0>
-2.4272764

>  <BCUT_SLOGP_1>
-0.57914454

>  <BCUT_SLOGP_2>
0.6254316

>  <BCUT_SLOGP_3>
2.4062445

>  <BCUT_SMR_0>
-1.9743122

>  <BCUT_SMR_1>
-0.47483507

>  <BCUT_SMR_2>
0.86788458

>  <BCUT_SMR_3>
2.7690976

>  <bpol>
21.00807

>  <b_1rotN>
3

>  <b_1rotR>
0.16666667

>  <b_ar>
11

>  <b_count>
28

>  <b_double>
0

>  <b_heavy>
18

>  <b_max1len>
3

>  <b_rotN>
3

>  <b_rotR>
0.16666667

>  <b_single>
17

>  <b_triple>
0

>  <chi0>
12.466255

>  <chi0v>
10.547165

>  <chi0v_C>
5.309401

>  <chi0_C>
6.1378284

>  <chi1>
7.9711637

>  <chi1v>
6.9567456

>  <chi1v_C>
2.3213673

>  <chi1_C>
3.2103434

>  <chiral>
0

>  <chiral_u>
0

>  <density>
0.90611809

>  <diameter>
10

>  <FCharge>
0

>  <GCUT_PEOE_0>
-0.88824588

>  <GCUT_PEOE_1>
-0.39293954

>  <GCUT_PEOE_2>
0.0069599091

>  <GCUT_PEOE_3>
2.2744219

>  <GCUT_SLOGP_0>
-1.3342886

>  <GCUT_SLOGP_1>
-0.39129892

>  <GCUT_SLOGP_2>
0.14343464

>  <GCUT_SLOGP_3>
2.3411927

>  <GCUT_SMR_0>
-0.47871226

>  <GCUT_SMR_1>
-0.18477003

>  <GCUT_SMR_2>
0.26050901

>  <GCUT_SMR_3>
2.5794189

>  <Kier1>
13.432098

>  <Kier2>
5.3254437

>  <Kier3>
3.4844444

>  <KierA1>
11.731568

>  <KierA2>
4.6092796

>  <KierA3>
2.9941738

>  <KierFlex>
3.1808283

>  <lip_acc>
6

>  <lip_don>
3

>  <lip_druglike>
1

>  <lip_violation>
0

>  <logP(o/w)>
1.393

>  <logS>
-2.6981001

>  <mr>
6.7179432

>  <mutagenic>
1

>  <nmol>
1

>  <opr_brigid>
11

>  <opr_leadlike>
1

>  <opr_nring>
2

>  <opr_nrot>
2

>  <opr_violation>
0

>  <PC+>
0

>  <PC->
0

>  <PEOE_PC+>
1.4320832

>  <PEOE_PC->
-1.4320832

>  <PEOE_RPC+>
0.20913541

>  <PEOE_RPC->
0.25341862

>  <PEOE_VSA+0>
44.005516

>  <PEOE_VSA+1>
25.680557

>  <PEOE_VSA+2>
17.238026

>  <PEOE_VSA+3>
29.866226

>  <PEOE_VSA+4>
0

>  <PEOE_VSA+5>
4.1846013

>  <PEOE_VSA+6>
0

>  <PEOE_VSA-0>
65.099724

>  <PEOE_VSA-1>
0

>  <PEOE_VSA-2>
34.546043

>  <PEOE_VSA-3>
0

>  <PEOE_VSA-4>
0

>  <PEOE_VSA-5>
9.4210396

>  <PEOE_VSA-6>
16.072159

>  <PEOE_VSA_FHYD>
0.87941438

>  <PEOE_VSA_FNEG>
0.50845957

>  <PEOE_VSA_FPNEG>
0.10358293

>  <PEOE_VSA_FPOL>
0.12058564

>  <PEOE_VSA_FPOS>
0.49154043

>  <PEOE_VSA_FPPOS>
0.017002702

>  <PEOE_VSA_HYD>
216.4361

>  <PEOE_VSA_NEG>
125.13897

>  <PEOE_VSA_PNEG>
25.493198

>  <PEOE_VSA_POL>
29.677799

>  <PEOE_VSA_POS>
120.97493

>  <PEOE_VSA_PPOS>
4.1846013

>  <petitjean>
0.5

>  <petitjeanSC>
1

>  <Q_PC+>
0

>  <Q_PC->
0

>  <Q_RPC+>
0

>  <Q_RPC->
0

>  <Q_VSA_FHYD>
1

>  <Q_VSA_FNEG>
0

>  <Q_VSA_FPNEG>
0

>  <Q_VSA_FPOL>
0

>  <Q_VSA_FPOS>
1

>  <Q_VSA_FPPOS>
0

>  <Q_VSA_HYD>
246.11389

>  <Q_VSA_NEG>
0

>  <Q_VSA_PNEG>
0

>  <Q_VSA_POL>
0

>  <Q_VSA_POS>
246.11389

>  <Q_VSA_PPOS>
0

>  <radius>
5

>  <reactive>
0

>  <rings>
2

>  <RPC+>
0

>  <RPC->
0

>  <rsynth>
1

>  <SlogP>
1.22952

>  <SlogP_VSA0>
32.897186

>  <SlogP_VSA1>
97.902702

>  <SlogP_VSA2>
6.6407428

>  <SlogP_VSA3>
0

>  <SlogP_VSA4>
0.92957383

>  <SlogP_VSA5>
1.5507339

>  <SlogP_VSA6>
0

>  <SlogP_VSA7>
70.572739

>  <SlogP_VSA8>
0

>  <SlogP_VSA9>
67.861198

>  <SMR>
6.6308899

>  <SMR_VSA0>
48.171688

>  <SMR_VSA1>
33.326015

>  <SMR_VSA2>
1.5507339

>  <SMR_VSA3>
0.92957383

>  <SMR_VSA4>
19.662491

>  <SMR_VSA5>
103.46992

>  <SMR_VSA6>
0

>  <SMR_VSA7>
71.244446

>  <TPSA>
97.970001

>  <VAdjEq>
0.54234898

>  <VAdjMa>
5.1699252

>  <VDistEq>
3.0214891

>  <VDistMa>
7.8609862

>  <vdw_area>
246.11389

>  <vdw_vol>
298.34634

>  <vsa_acc>
50.858601

>  <vsa_acid>
0

>  <vsa_base>
0

>  <vsa_don>
25.817696

>  <vsa_hyd>
131.96281

>  <vsa_other>
23.272232

>  <vsa_pol>
76.6763

>  <Weight>
270.33701

>  <weinerPath>
535

>  <weinerPol>
22

>  <zagreb>
88

$$$$