O1c2cc(ccc2OC1)[C@H]1N2[C@H](Cc3c1[nH]c1c3cccc1)C(=O)N(CC2=O)C
  MOE2013           2D

 29 34  0  0  1  0  0  0  0  0999 V2000
    0.0000    0.0000    0.0000 O   0  0  0  0  0  0  0  0  0  0  0  0
   -0.9380   -1.1700    0.0000 C   0  0  0  0  0  0  0  0  0  0  0  0
   -2.4360   -1.2570    0.0000 C   0  0  0  0  0  0  0  0  0  0  0  0
   -3.1100   -2.5960    0.0000 C   0  0  0  0  0  0  0  0  0  0  0  0
   -2.2870   -3.8500    0.0000 C   0  0  0  0  0  0  0  0  0  0  0  0
   -0.7890   -3.7640    0.0000 C   0  0  0  0  0  0  0  0  0  0  0  0
   -0.1150   -2.4240    0.0000 C   0  0  0  0  0  0  0  0  0  0  0  0
    1.3320   -2.0290    0.0000 O   0  0  0  0  0  0  0  0  0  0  0  0
    1.4030   -0.5300    0.0000 C   0  0  0  0  0  0  0  0  0  0  0  0
   -4.6070   -2.6830    0.0000 C   0  0  1  0  0  0  0  0  0  0  0  0
   -5.2820   -4.0220    0.0000 N   0  0  0  0  0  0  0  0  0  0  0  0
   -6.7790   -4.1090    0.0000 C   0  0  2  0  0  0  0  0  0  0  0  0
   -7.6020   -2.8550    0.0000 C   0  0  0  0  0  0  0  0  0  0  0  0
   -6.9280   -1.5150    0.0000 C   0  0  0  0  0  0  0  0  0  0  0  0
   -5.4310   -1.4290    0.0000 C   0  0  0  0  0  0  0  0  0  0  0  0
   -5.0500    0.0220    0.0000 N   0  0  0  0  0  0  0  0  0  0  0  0
   -6.3120    0.8330    0.0000 C   0  0  0  0  0  0  0  0  0  0  0  0
   -7.4730   -0.1170    0.0000 C   0  0  0  0  0  0  0  0  0  0  0  0
   -8.8760    0.4130    0.0000 C   0  0  0  0  0  0  0  0  0  0  0  0
   -9.1180    1.8940    0.0000 C   0  0  0  0  0  0  0  0  0  0  0  0
   -7.9570    2.8440    0.0000 C   0  0  0  0  0  0  0  0  0  0  0  0
   -6.5540    2.3130    0.0000 C   0  0  0  0  0  0  0  0  0  0  0  0
   -7.4530   -5.4480    0.0000 C   0  0  0  0  0  0  0  0  0  0  0  0
   -8.9510   -5.5350    0.0000 O   0  0  0  0  0  0  0  0  0  0  0  0
   -6.6300   -6.7020    0.0000 N   0  0  0  0  0  0  0  0  0  0  0  0
   -5.1330   -6.6160    0.0000 C   0  0  0  0  0  0  0  0  0  0  0  0
   -4.4580   -5.2760    0.0000 C   0  0  0  0  0  0  0  0  0  0  0  0
   -2.9610   -5.1900    0.0000 O   0  0  0  0  0  0  0  0  0  0  0  0
   -7.3040   -8.0420    0.0000 C   0  0  0  0  0  0  0  0  0  0  0  0
  1  2  1  0  0  0  0
  1  9  1  0  0  0  0
  2  3  2  0  0  0  0
  2  7  1  0  0  0  0
  3  4  1  0  0  0  0
  4  5  2  0  0  0  0
  5  6  1  0  0  0  0
  6  7  2  0  0  0  0
  7  8  1  0  0  0  0
  8  9  1  0  0  0  0
 10  4  1  1  0  0  0
 10 11  1  0  0  0  0
 10 15  1  0  0  0  0
 11 12  1  0  0  0  0
 11 27  1  0  0  0  0
 12 13  1  1  0  0  0
 12 23  1  0  0  0  0
 13 14  1  0  0  0  0
 14 15  2  0  0  0  0
 14 18  1  0  0  0  0
 15 16  1  0  0  0  0
 16 17  1  0  0  0  0
 17 18  2  0  0  0  0
 17 22  1  0  0  0  0
 18 19  1  0  0  0  0
 19 20  2  0  0  0  0
 20 21  1  0  0  0  0
 21 22  2  0  0  0  0
 23 24  2  0  0  0  0
 23 25  1  0  0  0  0
 25 26  1  0  0  0  0
 25 29  1  0  0  0  0
 26 27  1  0  0  0  0
 27 28  2  0  0  0  0
M  END
>  <Index>
1030

>  <ID>
HT1972

>  <class>
0

>  <apol>
57.897068

>  <ast_fraglike>
0

>  <ast_fraglike_ext>
0

>  <ast_violation>
2

>  <ast_violation_ext>
2

>  <a_acc>
4

>  <a_acid>
0

>  <a_aro>
15

>  <a_base>
0

>  <a_count>
48

>  <a_don>
1

>  <a_donacc>
5

>  <a_heavy>
29

>  <a_hyd>
19

>  <a_IC>
76.505196

>  <a_ICM>
1.5938582

>  <a_nB>
0

>  <a_nBr>
0

>  <a_nC>
22

>  <a_nCl>
0

>  <a_nF>
0

>  <a_nH>
19

>  <a_nI>
0

>  <a_nN>
3

>  <a_nO>
4

>  <a_nP>
0

>  <a_nS>
0

>  <balabanJ>
1.3426623

>  <BCUT_PEOE_0>
-2.6847551

>  <BCUT_PEOE_1>
-0.57692909

>  <BCUT_PEOE_2>
0.59678656

>  <BCUT_PEOE_3>
2.7039003

>  <BCUT_SLOGP_0>
-2.828701

>  <BCUT_SLOGP_1>
-0.50653273

>  <BCUT_SLOGP_2>
0.68794739

>  <BCUT_SLOGP_3>
2.6540279

>  <BCUT_SMR_0>
-2.4114811

>  <BCUT_SMR_1>
-0.40836185

>  <BCUT_SMR_2>
0.75157887

>  <BCUT_SMR_3>
2.969625

>  <bpol>
31.138933

>  <b_1rotN>
1

>  <b_1rotR>
0.029411765

>  <b_ar>
16

>  <b_count>
53

>  <b_double>
2

>  <b_heavy>
34

>  <b_max1len>
2

>  <b_rotN>
1

>  <b_rotR>
0.029411765

>  <b_single>
35

>  <b_triple>
0

>  <chi0>
19.697941

>  <chi0v>
15.844893

>  <chi0v_C>
12.817472

>  <chi0_C>
14.421921

>  <chi1>
14.114194

>  <chi1v>
9.6676645

>  <chi1v_C>
6.0467649

>  <chi1_C>
8.0075684

>  <chiral>
2

>  <chiral_u>
0

>  <density>
0.77506614

>  <diameter>
10

>  <FCharge>
0

>  <GCUT_PEOE_0>
-0.85416186

>  <GCUT_PEOE_1>
-0.41304475

>  <GCUT_PEOE_2>
0.050273072

>  <GCUT_PEOE_3>
2.9185674

>  <GCUT_SLOGP_0>
-0.97571611

>  <GCUT_SLOGP_1>
-0.36974597

>  <GCUT_SLOGP_2>
0.12921722

>  <GCUT_SLOGP_3>
2.9640284

>  <GCUT_SMR_0>
-0.50575125

>  <GCUT_SMR_1>
-0.20791446

>  <GCUT_SMR_2>
0.169315

>  <GCUT_SMR_3>
3.1962967

>  <Kier1>
19.66782

>  <Kier2>
7.5488167

>  <Kier3>
3.1111112

>  <KierA1>
14.173982

>  <KierA2>
5.3715525

>  <KierA3>
2.1931095

>  <KierFlex>
2.6253891

>  <lip_acc>
7

>  <lip_don>
1

>  <lip_druglike>
1

>  <lip_violation>
0

>  <logP(o/w)>
2.3429999

>  <logS>
-3.9901299

>  <mr>
10.532157

>  <mutagenic>
0

>  <nmol>
1

>  <opr_brigid>
30

>  <opr_leadlike>
1

>  <opr_nring>
6

>  <opr_nrot>
1

>  <opr_violation>
1

>  <PC+>
0

>  <PC->
0

>  <PEOE_PC+>
2.5265141

>  <PEOE_PC->
-2.5265141

>  <PEOE_RPC+>
0.097629279

>  <PEOE_RPC->
0.14082336

>  <PEOE_VSA+0>
68.874573

>  <PEOE_VSA+1>
71.788307

>  <PEOE_VSA+2>
20.063

>  <PEOE_VSA+3>
29.820286

>  <PEOE_VSA+4>
25.899061

>  <PEOE_VSA+5>
0

>  <PEOE_VSA+6>
0

>  <PEOE_VSA-0>
41.181789

>  <PEOE_VSA-1>
49.019615

>  <PEOE_VSA-2>
0

>  <PEOE_VSA-3>
0

>  <PEOE_VSA-4>
0

>  <PEOE_VSA-5>
27.133842

>  <PEOE_VSA-6>
5.1444035

>  <PEOE_VSA_FHYD>
0.8283475

>  <PEOE_VSA_FNEG>
0.361377

>  <PEOE_VSA_FPNEG>
0.095237166

>  <PEOE_VSA_FPOL>
0.17165251

>  <PEOE_VSA_FPOS>
0.638623

>  <PEOE_VSA_FPPOS>
0.076415345

>  <PEOE_VSA_HYD>
280.74756

>  <PEOE_VSA_NEG>
122.47965

>  <PEOE_VSA_PNEG>
32.278244

>  <PEOE_VSA_POL>
58.177307

>  <PEOE_VSA_POS>
216.44522

>  <PEOE_VSA_PPOS>
25.899061

>  <petitjean>
0.5

>  <petitjeanSC>
1

>  <Q_PC+>
0

>  <Q_PC->
0

>  <Q_RPC+>
0

>  <Q_RPC->
0

>  <Q_VSA_FHYD>
1

>  <Q_VSA_FNEG>
0

>  <Q_VSA_FPNEG>
0

>  <Q_VSA_FPOL>
0

>  <Q_VSA_FPOS>
1

>  <Q_VSA_FPPOS>
0

>  <Q_VSA_HYD>
338.92487

>  <Q_VSA_NEG>
0

>  <Q_VSA_PNEG>
0

>  <Q_VSA_POL>
0

>  <Q_VSA_POS>
338.92487

>  <Q_VSA_PPOS>
0

>  <radius>
5

>  <reactive>
0

>  <rings>
6

>  <RPC+>
0

>  <RPC->
0

>  <rsynth>
1

>  <SlogP>
2.3067701

>  <SlogP_VSA0>
21.999775

>  <SlogP_VSA1>
16.766195

>  <SlogP_VSA2>
68.491928

>  <SlogP_VSA3>
41.423691

>  <SlogP_VSA4>
9.1278973

>  <SlogP_VSA5>
51.765594

>  <SlogP_VSA6>
0

>  <SlogP_VSA7>
128.21939

>  <SlogP_VSA8>
3.9819686

>  <SlogP_VSA9>
10.486856

>  <SMR>
10.47927

>  <SMR_VSA0>
47.724434

>  <SMR_VSA1>
28.248404

>  <SMR_VSA2>
16.78553

>  <SMR_VSA3>
27.578691

>  <SMR_VSA4>
4.7171016

>  <SMR_VSA5>
142.3707

>  <SMR_VSA6>
51.941257

>  <SMR_VSA7>
32.897186

>  <TPSA>
74.870003

>  <VAdjEq>
0.40518862

>  <VAdjMa>
6.0874629

>  <VDistEq>
3.1607025

>  <VDistMa>
9.4772758

>  <vdw_area>
338.92487

>  <vdw_vol>
502.42291

>  <vsa_acc>
32.141354

>  <vsa_acid>
0

>  <vsa_base>
0

>  <vsa_don>
5.6825762

>  <vsa_hyd>
231.00778

>  <vsa_other>
54.207516

>  <vsa_pol>
37.823929

>  <Weight>
389.41098

>  <weinerPath>
1914

>  <weinerPol>
56

>  <zagreb>
172

$$$$