Clc1ccc(cc1)C(=O)NCC(=O)NO
  MOE2013           2D

 15 15  0  0  0  0  0  0  0  0999 V2000
    0.0000    0.0000    0.0000 Cl  0  0  0  0  0  0  0  0  0  0  0  0
    1.5000    0.0110    0.0000 C   0  0  0  0  0  0  0  0  0  0  0  0
    2.2400    1.3160    0.0000 C   0  0  0  0  0  0  0  0  0  0  0  0
    3.7400    1.3270    0.0000 C   0  0  0  0  0  0  0  0  0  0  0  0
    4.5000    0.0340    0.0000 C   0  0  0  0  0  0  0  0  0  0  0  0
    3.7600   -1.2710    0.0000 C   0  0  0  0  0  0  0  0  0  0  0  0
    2.2600   -1.2820    0.0000 C   0  0  0  0  0  0  0  0  0  0  0  0
    6.0000    0.0450    0.0000 C   0  0  0  0  0  0  0  0  0  0  0  0
    6.7600   -1.2480    0.0000 O   0  0  0  0  0  0  0  0  0  0  0  0
    6.7400    1.3500    0.0000 N   0  0  0  0  0  0  0  0  0  0  0  0
    8.2400    1.3610    0.0000 C   0  0  0  0  0  0  0  0  0  0  0  0
    8.9800    2.6660    0.0000 C   0  0  0  0  0  0  0  0  0  0  0  0
    8.2200    3.9590    0.0000 O   0  0  0  0  0  0  0  0  0  0  0  0
   10.4800    2.6770    0.0000 N   0  0  0  0  0  0  0  0  0  0  0  0
   11.2200    3.9820    0.0000 O   0  0  0  0  0  0  0  0  0  0  0  0
  1  2  1  0  0  0  0
  2  3  1  0  0  0  0
  2  7  2  0  0  0  0
  3  4  2  0  0  0  0
  4  5  1  0  0  0  0
  5  6  2  0  0  0  0
  5  8  1  0  0  0  0
  6  7  1  0  0  0  0
  8  9  2  0  0  0  0
  8 10  1  0  0  0  0
 10 11  1  0  0  0  0
 11 12  1  0  0  0  0
 12 13  2  0  0  0  0
 12 14  1  0  0  0  0
 14 15  1  0  0  0  0
M  END
>  <Index>
120

>  <ID>
HT0243

>  <class>
0

>  <apol>
28.627136

>  <ast_fraglike>
1

>  <ast_fraglike_ext>
0

>  <ast_violation>
0

>  <ast_violation_ext>
1

>  <a_acc>
3

>  <a_acid>
0

>  <a_aro>
6

>  <a_base>
0

>  <a_count>
24

>  <a_don>
3

>  <a_donacc>
6

>  <a_heavy>
15

>  <a_hyd>
8

>  <a_IC>
46.225563

>  <a_ICM>
1.9260651

>  <a_nB>
0

>  <a_nBr>
0

>  <a_nC>
9

>  <a_nCl>
1

>  <a_nF>
0

>  <a_nH>
9

>  <a_nI>
0

>  <a_nN>
2

>  <a_nO>
3

>  <a_nP>
0

>  <a_nS>
0

>  <balabanJ>
2.2048173

>  <BCUT_PEOE_0>
-2.3626075

>  <BCUT_PEOE_1>
-0.6182344

>  <BCUT_PEOE_2>
0.65162641

>  <BCUT_PEOE_3>
2.3820608

>  <BCUT_SLOGP_0>
-2.6640663

>  <BCUT_SLOGP_1>
-0.54497701

>  <BCUT_SLOGP_2>
0.77972579

>  <BCUT_SLOGP_3>
2.310143

>  <BCUT_SMR_0>
-2.0837603

>  <BCUT_SMR_1>
-0.4342373

>  <BCUT_SMR_2>
0.86097819

>  <BCUT_SMR_3>
2.6480854

>  <bpol>
12.174863

>  <b_1rotN>
3

>  <b_1rotR>
0.2

>  <b_ar>
6

>  <b_count>
24

>  <b_double>
2

>  <b_heavy>
15

>  <b_max1len>
3

>  <b_rotN>
5

>  <b_rotR>
0.33333334

>  <b_single>
16

>  <b_triple>
0

>  <chi0>
11.259149

>  <chi0v>
8.4141111

>  <chi0v_C>
5.0165076

>  <chi0_C>
5.8449349

>  <chi1>
7.130229

>  <chi1v>
4.4772758

>  <chi1v_C>
2.4249206

>  <chi1_C>
3.3745749

>  <chiral>
0

>  <chiral_u>
0

>  <density>
0.87788844

>  <diameter>
10

>  <FCharge>
0

>  <GCUT_PEOE_0>
-0.82471478

>  <GCUT_PEOE_1>
-0.41846007

>  <GCUT_PEOE_2>
0.099951833

>  <GCUT_PEOE_3>
2.1569097

>  <GCUT_SLOGP_0>
-1.1693596

>  <GCUT_SLOGP_1>
-0.42388061

>  <GCUT_SLOGP_2>
0.18791644

>  <GCUT_SLOGP_3>
2.1884298

>  <GCUT_SMR_0>
-0.48373896

>  <GCUT_SMR_1>
-0.22746174

>  <GCUT_SMR_2>
0.23794016

>  <GCUT_SMR_3>
2.4406114

>  <Kier1>
13.066667

>  <Kier2>
6.5540166

>  <Kier3>
4.5714288

>  <KierA1>
9.9022093

>  <KierA2>
4.8590717

>  <KierA3>
3.3286331

>  <KierFlex>
3.2077034

>  <lip_acc>
5

>  <lip_don>
3

>  <lip_druglike>
1

>  <lip_violation>
0

>  <logP(o/w)>
0.62300003

>  <logS>
-2.34725

>  <mr>
5.6110096

>  <mutagenic>
1

>  <nmol>
1

>  <opr_brigid>
6

>  <opr_leadlike>
1

>  <opr_nring>
1

>  <opr_nrot>
3

>  <opr_violation>
0

>  <PC+>
0

>  <PC->
0

>  <PEOE_PC+>
1.6676161

>  <PEOE_PC->
-1.6676161

>  <PEOE_RPC+>
0.15785399

>  <PEOE_RPC->
0.20582987

>  <PEOE_VSA+0>
6.7282863

>  <PEOE_VSA+1>
38.784641

>  <PEOE_VSA+2>
0

>  <PEOE_VSA+3>
17.238026

>  <PEOE_VSA+4>
10.324173

>  <PEOE_VSA+5>
25.899061

>  <PEOE_VSA+6>
0

>  <PEOE_VSA-0>
49.019615

>  <PEOE_VSA-1>
29.581947

>  <PEOE_VSA-2>
0

>  <PEOE_VSA-3>
0

>  <PEOE_VSA-4>
5.3395767

>  <PEOE_VSA-5>
38.299984

>  <PEOE_VSA-6>
0.13689101

>  <PEOE_VSA_FHYD>
0.63858646

>  <PEOE_VSA_FNEG>
0.55286556

>  <PEOE_VSA_FPNEG>
0.19776832

>  <PEOE_VSA_FPOL>
0.36141357

>  <PEOE_VSA_FPOS>
0.44713441

>  <PEOE_VSA_FPPOS>
0.16364524

>  <PEOE_VSA_HYD>
141.35251

>  <PEOE_VSA_NEG>
122.37801

>  <PEOE_VSA_PNEG>
43.776451

>  <PEOE_VSA_POL>
79.999687

>  <PEOE_VSA_POS>
98.97419

>  <PEOE_VSA_PPOS>
36.223236

>  <petitjean>
0.5

>  <petitjeanSC>
1

>  <Q_PC+>
0

>  <Q_PC->
0

>  <Q_RPC+>
0

>  <Q_RPC->
0

>  <Q_VSA_FHYD>
1

>  <Q_VSA_FNEG>
0

>  <Q_VSA_FPNEG>
0

>  <Q_VSA_FPOL>
0

>  <Q_VSA_FPOS>
1

>  <Q_VSA_FPPOS>
0

>  <Q_VSA_HYD>
221.3522

>  <Q_VSA_NEG>
0

>  <Q_VSA_PNEG>
0

>  <Q_VSA_POL>
0

>  <Q_VSA_POS>
221.3522

>  <Q_VSA_PPOS>
0

>  <radius>
5

>  <reactive>
0

>  <rings>
1

>  <RPC+>
0

>  <RPC->
0

>  <rsynth>
1

>  <SlogP>
0.57520002

>  <SlogP_VSA0>
38.635834

>  <SlogP_VSA1>
10.517568

>  <SlogP_VSA2>
49.46632

>  <SlogP_VSA3>
18.439579

>  <SlogP_VSA4>
27.047791

>  <SlogP_VSA5>
0

>  <SlogP_VSA6>
3.5006065

>  <SlogP_VSA7>
70.572739

>  <SlogP_VSA8>
0

>  <SlogP_VSA9>
39.148643

>  <SMR>
5.4556699

>  <SMR_VSA0>
47.724434

>  <SMR_VSA1>
0

>  <SMR_VSA2>
64.239937

>  <SMR_VSA3>
6.6861815

>  <SMR_VSA4>
0

>  <SMR_VSA5>
70.572739

>  <SMR_VSA6>
28.957146

>  <SMR_VSA7>
39.148643

>  <TPSA>
78.43

>  <VAdjEq>
0.56650949

>  <VAdjMa>
4.9068904

>  <VDistEq>
3.0579009

>  <VDistMa>
7.4740329

>  <vdw_area>
221.3522

>  <vdw_vol>
260.43741

>  <vsa_acc>
27.133842

>  <vsa_acid>
0

>  <vsa_base>
0

>  <vsa_don>
16.567839

>  <vsa_hyd>
119.84372

>  <vsa_other>
25.899061

>  <vsa_pol>
60.667202

>  <Weight>
228.63499

>  <weinerPath>
418

>  <weinerPol>
18

>  <zagreb>
68

$$$$