OC(=O)CN(CC(=O)Nc1c(cccc1C)C)CC(O)=O
  MOE2013           2D

 21 21  0  0  0  0  0  0  0  0999 V2000
    0.0000    0.0000    0.0000 O   0  0  0  0  0  0  0  0  0  0  0  0
   -1.2990    0.7500    0.0000 C   0  0  0  0  0  0  0  0  0  0  0  0
   -1.2990    2.2500    0.0000 O   0  0  0  0  0  0  0  0  0  0  0  0
   -2.5980    0.0000    0.0000 C   0  0  0  0  0  0  0  0  0  0  0  0
   -2.5980   -1.5000    0.0000 N   0  0  0  0  0  0  0  0  0  0  0  0
   -3.8970   -2.2500    0.0000 C   0  0  0  0  0  0  0  0  0  0  0  0
   -5.1960   -1.5010    0.0000 C   0  0  0  0  0  0  0  0  0  0  0  0
   -5.1960   -0.0010    0.0000 O   0  0  0  0  0  0  0  0  0  0  0  0
   -6.4950   -2.2510    0.0000 N   0  0  0  0  0  0  0  0  0  0  0  0
   -7.7940   -1.5010    0.0000 C   0  0  0  0  0  0  0  0  0  0  0  0
   -9.0930   -2.2510    0.0000 C   0  0  0  0  0  0  0  0  0  0  0  0
  -10.3920   -1.5010    0.0000 C   0  0  0  0  0  0  0  0  0  0  0  0
  -10.3920   -0.0010    0.0000 C   0  0  0  0  0  0  0  0  0  0  0  0
   -9.0930    0.7490    0.0000 C   0  0  0  0  0  0  0  0  0  0  0  0
   -7.7940   -0.0010    0.0000 C   0  0  0  0  0  0  0  0  0  0  0  0
   -6.4950    0.7490    0.0000 C   0  0  0  0  0  0  0  0  0  0  0  0
   -9.0930   -3.7510    0.0000 C   0  0  0  0  0  0  0  0  0  0  0  0
   -1.2990   -2.2500    0.0000 C   0  0  0  0  0  0  0  0  0  0  0  0
   -1.2990   -3.7500    0.0000 C   0  0  0  0  0  0  0  0  0  0  0  0
   -2.5980   -4.5000    0.0000 O   0  0  0  0  0  0  0  0  0  0  0  0
    0.0000   -4.5000    0.0000 O   0  0  0  0  0  0  0  0  0  0  0  0
  1  2  1  0  0  0  0
  2  3  2  0  0  0  0
  2  4  1  0  0  0  0
  4  5  1  0  0  0  0
  5  6  1  0  0  0  0
  5 18  1  0  0  0  0
  6  7  1  0  0  0  0
  7  8  2  0  0  0  0
  7  9  1  0  0  0  0
  9 10  1  0  0  0  0
 10 11  1  0  0  0  0
 10 15  2  0  0  0  0
 11 12  2  0  0  0  0
 11 17  1  0  0  0  0
 12 13  1  0  0  0  0
 13 14  2  0  0  0  0
 14 15  1  0  0  0  0
 15 16  1  0  0  0  0
 18 19  1  0  0  0  0
 19 20  1  0  0  0  0
 19 21  2  0  0  0  0
M  END
>  <Index>
1313

>  <ID>
HT3323

>  <class>
0

>  <apol>
42.852276

>  <ast_fraglike>
0

>  <ast_fraglike_ext>
0

>  <ast_violation>
2

>  <ast_violation_ext>
4

>  <a_acc>
6

>  <a_acid>
0

>  <a_aro>
6

>  <a_base>
0

>  <a_count>
39

>  <a_don>
5

>  <a_donacc>
11

>  <a_heavy>
21

>  <a_hyd>
11

>  <a_IC>
64.159424

>  <a_ICM>
1.6451135

>  <a_nB>
0

>  <a_nBr>
0

>  <a_nC>
14

>  <a_nCl>
0

>  <a_nF>
0

>  <a_nH>
18

>  <a_nI>
0

>  <a_nN>
2

>  <a_nO>
5

>  <a_nP>
0

>  <a_nS>
0

>  <balabanJ>
2.5008674

>  <BCUT_PEOE_0>
-2.5365319

>  <BCUT_PEOE_1>
-0.52045298

>  <BCUT_PEOE_2>
0.46333984

>  <BCUT_PEOE_3>
2.5504844

>  <BCUT_SLOGP_0>
-2.7319441

>  <BCUT_SLOGP_1>
-0.49530768

>  <BCUT_SLOGP_2>
0.39558631

>  <BCUT_SLOGP_3>
2.4775534

>  <BCUT_SMR_0>
-2.2793429

>  <BCUT_SMR_1>
-0.30865869

>  <BCUT_SMR_2>
0.59430963

>  <BCUT_SMR_3>
2.7993221

>  <bpol>
25.191727

>  <b_1rotN>
7

>  <b_1rotR>
0.33333334

>  <b_ar>
6

>  <b_count>
39

>  <b_double>
3

>  <b_heavy>
21

>  <b_max1len>
4

>  <b_rotN>
8

>  <b_rotR>
0.38095239

>  <b_single>
30

>  <b_triple>
0

>  <chi0>
15.991199

>  <chi0v>
11.919757

>  <chi0v_C>
8.8533716

>  <chi0_C>
9.7067423

>  <chi1>
9.7906017

>  <chi1v>
6.3129463

>  <chi1v_C>
3.804677

>  <chi1_C>
4.8626084

>  <chiral>
0

>  <chiral_u>
0

>  <density>
0.77638346

>  <diameter>
10

>  <FCharge>
0

>  <GCUT_PEOE_0>
-0.81197369

>  <GCUT_PEOE_1>
-0.48230281

>  <GCUT_PEOE_2>
0.084361143

>  <GCUT_PEOE_3>
2.4900398

>  <GCUT_SLOGP_0>
-1.0097597

>  <GCUT_SLOGP_1>
-0.37317652

>  <GCUT_SLOGP_2>
0.037110236

>  <GCUT_SLOGP_3>
2.512924

>  <GCUT_SMR_0>
-0.50172126

>  <GCUT_SMR_1>
-0.22987267

>  <GCUT_SMR_2>
0.20078874

>  <GCUT_SMR_3>
2.7573254

>  <Kier1>
19.047619

>  <Kier2>
9.2091837

>  <Kier3>
7.1999998

>  <KierA1>
14.304854

>  <KierA2>
6.8090858

>  <KierA3>
5.2599206

>  <KierFlex>
4.6382375

>  <lip_acc>
7

>  <lip_don>
3

>  <lip_druglike>
1

>  <lip_violation>
0

>  <logP(o/w)>
0.55000001

>  <logS>
-1.79748

>  <mr>
7.6479793

>  <mutagenic>
0

>  <nmol>
1

>  <opr_brigid>
6

>  <opr_leadlike>
1

>  <opr_nring>
1

>  <opr_nrot>
7

>  <opr_violation>
0

>  <PC+>
0

>  <PC->
0

>  <PEOE_PC+>
2.3636692

>  <PEOE_PC->
-2.3636692

>  <PEOE_RPC+>
0.11583656

>  <PEOE_RPC->
0.13974129

>  <PEOE_VSA+0>
32.291866

>  <PEOE_VSA+1>
77.965446

>  <PEOE_VSA+2>
0

>  <PEOE_VSA+3>
8.6190128

>  <PEOE_VSA+4>
33.597878

>  <PEOE_VSA+5>
29.416998

>  <PEOE_VSA+6>
0

>  <PEOE_VSA-0>
41.912434

>  <PEOE_VSA-1>
36.764713

>  <PEOE_VSA-2>
0

>  <PEOE_VSA-3>
0

>  <PEOE_VSA-4>
0

>  <PEOE_VSA-5>
40.700764

>  <PEOE_VSA-6>
15.671971

>  <PEOE_VSA_FHYD>
0.62331295

>  <PEOE_VSA_FNEG>
0.42610404

>  <PEOE_VSA_FPNEG>
0.17786503

>  <PEOE_VSA_FPOL>
0.37668708

>  <PEOE_VSA_FPOS>
0.57389593

>  <PEOE_VSA_FPPOS>
0.19882205

>  <PEOE_VSA_HYD>
197.55348

>  <PEOE_VSA_NEG>
135.04988

>  <PEOE_VSA_PNEG>
56.372734

>  <PEOE_VSA_POL>
119.38761

>  <PEOE_VSA_POS>
181.8912

>  <PEOE_VSA_PPOS>
63.014874

>  <petitjean>
0.5

>  <petitjeanSC>
1

>  <Q_PC+>
0

>  <Q_PC->
0

>  <Q_RPC+>
0

>  <Q_RPC->
0

>  <Q_VSA_FHYD>
1

>  <Q_VSA_FNEG>
0

>  <Q_VSA_FPNEG>
0

>  <Q_VSA_FPOL>
0

>  <Q_VSA_FPOS>
1

>  <Q_VSA_FPPOS>
0

>  <Q_VSA_HYD>
316.94107

>  <Q_VSA_NEG>
0

>  <Q_VSA_PNEG>
0

>  <Q_VSA_POL>
0

>  <Q_VSA_POS>
316.94107

>  <Q_VSA_PPOS>
0

>  <radius>
5

>  <reactive>
0

>  <rings>
1

>  <RPC+>
0

>  <RPC->
0

>  <rsynth>
1

>  <SlogP>
0.71314001

>  <SlogP_VSA0>
0

>  <SlogP_VSA1>
41.884777

>  <SlogP_VSA2>
71.586647

>  <SlogP_VSA3>
106.08919

>  <SlogP_VSA4>
6.37115

>  <SlogP_VSA5>
0

>  <SlogP_VSA6>
0

>  <SlogP_VSA7>
52.929554

>  <SlogP_VSA8>
0

>  <SlogP_VSA9>
69.408775

>  <SMR>
7.62573

>  <SMR_VSA0>
71.586647

>  <SMR_VSA1>
3.1243138

>  <SMR_VSA2>
50.770454

>  <SMR_VSA3>
6.37115

>  <SMR_VSA4>
20.767498

>  <SMR_VSA5>
52.929554

>  <SMR_VSA6>
76.068443

>  <SMR_VSA7>
66.652031

>  <TPSA>
106.94

>  <VAdjEq>
0.45371634

>  <VAdjMa>
5.3923173

>  <VDistEq>
3.2210448

>  <VDistMa>
8.4980993

>  <vdw_area>
316.94107

>  <vdw_vol>
379.07428

>  <vsa_acc>
13.566921

>  <vsa_acid>
0

>  <vsa_base>
0

>  <vsa_don>
5.6825762

>  <vsa_hyd>
178.25754

>  <vsa_other>
42.366531

>  <vsa_pol>
73.517181

>  <Weight>
294.30701

>  <weinerPath>
1004

>  <weinerPol>
27

>  <zagreb>
98

$$$$