s1ccnc1NS(=O)(=O)c1ccc(NC(=O)CCC(O)=O)cc1
  MOE2013           2D

 23 24  0  0  0  0  0  0  0  0999 V2000
    0.0000    0.0000    0.0000 S   0  0  0  0  0  0  0  0  0  0  0  0
   -1.4480    0.3930    0.0000 C   0  0  0  0  0  0  0  0  0  0  0  0
   -2.2680   -0.8630    0.0000 C   0  0  0  0  0  0  0  0  0  0  0  0
   -1.3280   -2.0320    0.0000 N   0  0  0  0  0  0  0  0  0  0  0  0
    0.0740   -1.4980    0.0000 C   0  0  0  0  0  0  0  0  0  0  0  0
    1.3300   -2.3190    0.0000 N   0  0  0  0  0  0  0  0  0  0  0  0
    2.6680   -1.6420    0.0000 S   0  0  0  0  0  0  0  0  0  0  0  0
    1.9910   -0.3030    0.0000 O   0  0  0  0  0  0  0  0  0  0  0  0
    3.3450   -2.9800    0.0000 O   0  0  0  0  0  0  0  0  0  0  0  0
    4.0070   -0.9650    0.0000 C   0  0  0  0  0  0  0  0  0  0  0  0
    4.0900    0.5330    0.0000 C   0  0  0  0  0  0  0  0  0  0  0  0
    5.4280    1.2100    0.0000 C   0  0  0  0  0  0  0  0  0  0  0  0
    6.6840    0.3890    0.0000 C   0  0  0  0  0  0  0  0  0  0  0  0
    8.0220    1.0660    0.0000 N   0  0  0  0  0  0  0  0  0  0  0  0
    9.2780    0.2460    0.0000 C   0  0  0  0  0  0  0  0  0  0  0  0
    9.1950   -1.2520    0.0000 O   0  0  0  0  0  0  0  0  0  0  0  0
   10.6160    0.9230    0.0000 C   0  0  0  0  0  0  0  0  0  0  0  0
   11.8720    0.1020    0.0000 C   0  0  0  0  0  0  0  0  0  0  0  0
   13.2100    0.7790    0.0000 C   0  0  0  0  0  0  0  0  0  0  0  0
   13.2930    2.2770    0.0000 O   0  0  0  0  0  0  0  0  0  0  0  0
   14.4660   -0.0420    0.0000 O   0  0  0  0  0  0  0  0  0  0  0  0
    6.6010   -1.1090    0.0000 C   0  0  0  0  0  0  0  0  0  0  0  0
    5.2620   -1.7860    0.0000 C   0  0  0  0  0  0  0  0  0  0  0  0
  1  2  1  0  0  0  0
  1  5  1  0  0  0  0
  2  3  2  0  0  0  0
  3  4  1  0  0  0  0
  4  5  2  0  0  0  0
  5  6  1  0  0  0  0
  6  7  1  0  0  0  0
  7  8  2  0  0  0  0
  7  9  2  0  0  0  0
  7 10  1  0  0  0  0
 10 11  1  0  0  0  0
 10 23  2  0  0  0  0
 11 12  2  0  0  0  0
 12 13  1  0  0  0  0
 13 14  1  0  0  0  0
 13 22  2  0  0  0  0
 14 15  1  0  0  0  0
 15 16  2  0  0  0  0
 15 17  1  0  0  0  0
 17 18  1  0  0  0  0
 18 19  1  0  0  0  0
 19 20  1  0  0  0  0
 19 21  2  0  0  0  0
 22 23  1  0  0  0  0
M  END
>  <Index>
1354

>  <ID>
HT3619

>  <class>
0

>  <apol>
44.65831

>  <ast_fraglike>
0

>  <ast_fraglike_ext>
0

>  <ast_violation>
3

>  <ast_violation_ext>
5

>  <a_acc>
6

>  <a_acid>
0

>  <a_aro>
11

>  <a_base>
0

>  <a_count>
36

>  <a_don>
4

>  <a_donacc>
10

>  <a_heavy>
23

>  <a_hyd>
11

>  <a_IC>
71.541336

>  <a_ICM>
1.9872594

>  <a_nB>
0

>  <a_nBr>
0

>  <a_nC>
13

>  <a_nCl>
0

>  <a_nF>
0

>  <a_nH>
13

>  <a_nI>
0

>  <a_nN>
3

>  <a_nO>
5

>  <a_nP>
0

>  <a_nS>
2

>  <balabanJ>
1.7012862

>  <BCUT_PEOE_0>
-2.4057953

>  <BCUT_PEOE_1>
-0.5774585

>  <BCUT_PEOE_2>
0.60620493

>  <BCUT_PEOE_3>
2.4926198

>  <BCUT_SLOGP_0>
-2.4637222

>  <BCUT_SLOGP_1>
-0.53660059

>  <BCUT_SLOGP_2>
0.70756054

>  <BCUT_SLOGP_3>
2.485944

>  <BCUT_SMR_0>
-2.1746371

>  <BCUT_SMR_1>
-0.38705289

>  <BCUT_SMR_2>
0.80998099

>  <BCUT_SMR_3>
2.7742105

>  <bpol>
27.523691

>  <b_1rotN>
7

>  <b_1rotR>
0.29166666

>  <b_ar>
11

>  <b_count>
37

>  <b_double>
2

>  <b_heavy>
24

>  <b_max1len>
3

>  <b_rotN>
8

>  <b_rotR>
0.33333334

>  <b_single>
24

>  <b_triple>
0

>  <chi0>
16.872032

>  <chi0v>
13.355226

>  <chi0v_C>
7.378315

>  <chi0_C>
8.5436058

>  <chi1>
10.86501

>  <chi1v>
8.7696924

>  <chi1v_C>
3.3618073

>  <chi1_C>
4.4494896

>  <chiral>
0

>  <chiral_u>
0

>  <density>
0.90197855

>  <diameter>
14

>  <FCharge>
0

>  <GCUT_PEOE_0>
-0.90091962

>  <GCUT_PEOE_1>
-0.45665997

>  <GCUT_PEOE_2>
0.094460584

>  <GCUT_PEOE_3>
2.4009223

>  <GCUT_SLOGP_0>
-0.9977383

>  <GCUT_SLOGP_1>
-0.40338016

>  <GCUT_SLOGP_2>
0.16246538

>  <GCUT_SLOGP_3>
2.454097

>  <GCUT_SMR_0>
-0.49677846

>  <GCUT_SMR_1>
-0.22028552

>  <GCUT_SMR_2>
0.22656055

>  <GCUT_SMR_3>
2.6872268

>  <Kier1>
19.326389

>  <Kier2>
8.909091

>  <Kier3>
6.4280496

>  <KierA1>
16.188881

>  <KierA2>
7.3990455

>  <KierA3>
5.3039327

>  <KierFlex>
5.2079244

>  <lip_acc>
8

>  <lip_don>
3

>  <lip_druglike>
1

>  <lip_violation>
0

>  <logP(o/w)>
0.48199999

>  <logS>
-2.4798601

>  <mr>
8.6859999

>  <mutagenic>
0

>  <nmol>
1

>  <opr_brigid>
11

>  <opr_leadlike>
1

>  <opr_nring>
2

>  <opr_nrot>
6

>  <opr_violation>
0

>  <PC+>
0

>  <PC->
0

>  <PEOE_PC+>
2.3123734

>  <PEOE_PC->
-2.3123734

>  <PEOE_RPC+>
0.12953353

>  <PEOE_RPC->
0.19512036

>  <PEOE_VSA+0>
69.938919

>  <PEOE_VSA+1>
29.945944

>  <PEOE_VSA+2>
0

>  <PEOE_VSA+3>
38.485241

>  <PEOE_VSA+4>
23.273705

>  <PEOE_VSA+5>
18.893101

>  <PEOE_VSA+6>
0

>  <PEOE_VSA-0>
37.676434

>  <PEOE_VSA-1>
16.745916

>  <PEOE_VSA-2>
48.777012

>  <PEOE_VSA-3>
0

>  <PEOE_VSA-4>
0

>  <PEOE_VSA-5>
27.133842

>  <PEOE_VSA-6>
13.587008

>  <PEOE_VSA_FHYD>
0.74453431

>  <PEOE_VSA_FNEG>
0.44357237

>  <PEOE_VSA_FPNEG>
0.12550457

>  <PEOE_VSA_FPOL>
0.25546569

>  <PEOE_VSA_FPOS>
0.55642766

>  <PEOE_VSA_FPPOS>
0.1299611

>  <PEOE_VSA_HYD>
241.56946

>  <PEOE_VSA_NEG>
143.92021

>  <PEOE_VSA_PNEG>
40.720848

>  <PEOE_VSA_POL>
82.88765

>  <PEOE_VSA_POS>
180.5369

>  <PEOE_VSA_PPOS>
42.166805

>  <petitjean>
0.5

>  <petitjeanSC>
1

>  <Q_PC+>
0

>  <Q_PC->
0

>  <Q_RPC+>
0

>  <Q_RPC->
0

>  <Q_VSA_FHYD>
1

>  <Q_VSA_FNEG>
0

>  <Q_VSA_FPNEG>
0

>  <Q_VSA_FPOL>
0

>  <Q_VSA_FPOS>
1

>  <Q_VSA_FPPOS>
0

>  <Q_VSA_HYD>
324.45712

>  <Q_VSA_NEG>
0

>  <Q_VSA_PNEG>
0

>  <Q_VSA_POL>
0

>  <Q_VSA_POS>
324.45712

>  <Q_VSA_PPOS>
0

>  <radius>
7

>  <reactive>
0

>  <rings>
2

>  <RPC+>
0

>  <RPC->
0

>  <rsynth>
1

>  <SlogP>
1.7472

>  <SlogP_VSA0>
0

>  <SlogP_VSA1>
112.37721

>  <SlogP_VSA2>
54.365173

>  <SlogP_VSA3>
25.385227

>  <SlogP_VSA4>
0

>  <SlogP_VSA5>
1.5507339

>  <SlogP_VSA6>
0

>  <SlogP_VSA7>
103.6031

>  <SlogP_VSA8>
37.736813

>  <SlogP_VSA9>
34.535183

>  <SMR>
8.4863997

>  <SMR_VSA0>
95.896118

>  <SMR_VSA1>
16.78553

>  <SMR_VSA2>
26.935961

>  <SMR_VSA3>
0

>  <SMR_VSA4>
37.673241

>  <SMR_VSA5>
141.33992

>  <SMR_VSA6>
13.004248

>  <SMR_VSA7>
37.91843

>  <TPSA>
125.46

>  <VAdjEq>
0.43892586

>  <VAdjMa>
5.5849624

>  <VDistEq>
3.6016755

>  <VDistMa>
8.7063971

>  <vdw_area>
324.45712

>  <vdw_vol>
394.01712

>  <vsa_acc>
51.266022

>  <vsa_acid>
0

>  <vsa_base>
0

>  <vsa_don>
13.757783

>  <vsa_hyd>
163.5798

>  <vsa_other>
50.930264

>  <vsa_pol>
92.157646

>  <Weight>
355.39499

>  <weinerPath>
1405

>  <weinerPol>
29

>  <zagreb>
114

$$$$