Clc1cc2c(Sc3c(cccc3)/C/2=CCCCN2CCN(CC2)CCOC(=O)C)cc1
  MOE2013           2D

 31 34  0  0  0  0  0  0  0  0999 V2000
    0.0000    0.0000    0.0000 Cl  0  0  0  0  0  0  0  0  0  0  0  0
   -0.7530    1.2970    0.0000 C   0  0  0  0  0  0  0  0  0  0  0  0
   -0.0070    2.5980    0.0000 C   0  0  0  0  0  0  0  0  0  0  0  0
   -0.7600    3.8950    0.0000 C   0  0  0  0  0  0  0  0  0  0  0  0
   -2.2600    3.8910    0.0000 C   0  0  0  0  0  0  0  0  0  0  0  0
   -3.0140    5.1880    0.0000 S   0  0  0  0  0  0  0  0  0  0  0  0
   -2.2670    6.4890    0.0000 C   0  0  0  0  0  0  0  0  0  0  0  0
   -0.7670    6.4930    0.0000 C   0  0  0  0  0  0  0  0  0  0  0  0
   -0.0200    7.7940    0.0000 C   0  0  0  0  0  0  0  0  0  0  0  0
   -0.7740    9.0910    0.0000 C   0  0  0  0  0  0  0  0  0  0  0  0
   -2.2740    9.0870    0.0000 C   0  0  0  0  0  0  0  0  0  0  0  0
   -3.0200    7.7860    0.0000 C   0  0  0  0  0  0  0  0  0  0  0  0
   -0.0140    5.1960    0.0000 C   0  0  0  0  0  0  0  0  0  0  0  0
    1.4860    5.2000    0.0000 C   0  0  0  0  0  0  0  0  0  0  0  0
    2.2330    6.5010    0.0000 C   0  0  0  0  0  0  0  0  0  0  0  0
    3.7330    6.5050    0.0000 C   0  0  0  0  0  0  0  0  0  0  0  0
    4.4800    7.8060    0.0000 C   0  0  0  0  0  0  0  0  0  0  0  0
    5.9800    7.8100    0.0000 N   0  0  0  0  0  0  0  0  0  0  0  0
    6.7260    9.1110    0.0000 C   0  0  0  0  0  0  0  0  0  0  0  0
    8.2260    9.1150    0.0000 C   0  0  0  0  0  0  0  0  0  0  0  0
    8.9800    7.8180    0.0000 N   0  0  0  0  0  0  0  0  0  0  0  0
    8.2330    6.5170    0.0000 C   0  0  0  0  0  0  0  0  0  0  0  0
    6.7330    6.5130    0.0000 C   0  0  0  0  0  0  0  0  0  0  0  0
   10.4800    7.8220    0.0000 C   0  0  0  0  0  0  0  0  0  0  0  0
   11.2260    9.1230    0.0000 C   0  0  0  0  0  0  0  0  0  0  0  0
   12.7260    9.1270    0.0000 O   0  0  0  0  0  0  0  0  0  0  0  0
   13.4730   10.4280    0.0000 C   0  0  0  0  0  0  0  0  0  0  0  0
   12.7190   11.7250    0.0000 O   0  0  0  0  0  0  0  0  0  0  0  0
   14.9730   10.4320    0.0000 C   0  0  0  0  0  0  0  0  0  0  0  0
   -3.0070    2.5900    0.0000 C   0  0  0  0  0  0  0  0  0  0  0  0
   -2.2530    1.2930    0.0000 C   0  0  0  0  0  0  0  0  0  0  0  0
  1  2  1  0  0  0  0
  2  3  1  0  0  0  0
  2 31  2  0  0  0  0
  3  4  2  0  0  0  0
  4  5  1  0  0  0  0
  4 13  1  0  0  0  0
  5  6  1  0  0  0  0
  5 30  2  0  0  0  0
  6  7  1  0  0  0  0
  7  8  1  0  0  0  0
  7 12  2  0  0  0  0
  8  9  2  0  0  0  0
  8 13  1  0  0  0  0
  9 10  1  0  0  0  0
 10 11  2  0  0  0  0
 11 12  1  0  0  0  0
 13 14  2  3  0  0  0
 14 15  1  0  0  0  0
 15 16  1  0  0  0  0
 16 17  1  0  0  0  0
 17 18  1  0  0  0  0
 18 19  1  0  0  0  0
 18 23  1  0  0  0  0
 19 20  1  0  0  0  0
 20 21  1  0  0  0  0
 21 22  1  0  0  0  0
 21 24  1  0  0  0  0
 22 23  1  0  0  0  0
 24 25  1  0  0  0  0
 25 26  1  0  0  0  0
 26 27  1  0  0  0  0
 27 28  2  0  0  0  0
 27 29  1  0  0  0  0
 30 31  1  0  0  0  0
M  END
>  <Index>
1176

>  <ID>
HT2272

>  <class>
0

>  <apol>
72.221001

>  <ast_fraglike>
0

>  <ast_fraglike_ext>
0

>  <ast_violation>
2

>  <ast_violation_ext>
3

>  <a_acc>
3

>  <a_acid>
0

>  <a_aro>
12

>  <a_base>
0

>  <a_count>
60

>  <a_don>
0

>  <a_donacc>
3

>  <a_heavy>
31

>  <a_hyd>
26

>  <a_IC>
93.435585

>  <a_ICM>
1.5572597

>  <a_nB>
0

>  <a_nBr>
0

>  <a_nC>
25

>  <a_nCl>
1

>  <a_nF>
0

>  <a_nH>
29

>  <a_nI>
0

>  <a_nN>
2

>  <a_nO>
2

>  <a_nP>
0

>  <a_nS>
1

>  <balabanJ>
1.1795933

>  <BCUT_PEOE_0>
-2.7975914

>  <BCUT_PEOE_1>
-0.57265574

>  <BCUT_PEOE_2>
0.60799652

>  <BCUT_PEOE_3>
2.6932616

>  <BCUT_SLOGP_0>
-2.9095297

>  <BCUT_SLOGP_1>
-0.42100871

>  <BCUT_SLOGP_2>
0.75785315

>  <BCUT_SLOGP_3>
2.6403878

>  <BCUT_SMR_0>
-2.5141947

>  <BCUT_SMR_1>
-0.37289238

>  <BCUT_SMR_2>
0.82562333

>  <BCUT_SMR_3>
2.9674211

>  <bpol>
41.237003

>  <b_1rotN>
7

>  <b_1rotR>
0.20588236

>  <b_ar>
12

>  <b_count>
63

>  <b_double>
2

>  <b_heavy>
34

>  <b_max1len>
5

>  <b_rotN>
8

>  <b_rotR>
0.23529412

>  <b_single>
49

>  <b_triple>
0

>  <chi0>
21.631182

>  <chi0v>
19.552324

>  <chi0v_C>
15.482763

>  <chi0_C>
17.062267

>  <chi1>
15.097357

>  <chi1v>
12.148289

>  <chi1v_C>
7.7623076

>  <chi1_C>
9.7684212

>  <chiral>
0

>  <chiral_u>
0

>  <density>
0.7447083

>  <diameter>
17

>  <FCharge>
0

>  <GCUT_PEOE_0>
-0.85828626

>  <GCUT_PEOE_1>
-0.3832348

>  <GCUT_PEOE_2>
0.036353353

>  <GCUT_PEOE_3>
2.7950675

>  <GCUT_SLOGP_0>
-0.96508992

>  <GCUT_SLOGP_1>
-0.26830661

>  <GCUT_SLOGP_2>
0.14285369

>  <GCUT_SLOGP_3>
2.8657961

>  <GCUT_SMR_0>
-0.52329063

>  <GCUT_SMR_1>
-0.17529511

>  <GCUT_SMR_2>
0.20944829

>  <GCUT_SMR_3>
3.0629518

>  <Kier1>
24.134949

>  <Kier2>
11.92344

>  <Kier3>
6.7566791

>  <KierA1>
21.46088

>  <KierA2>
10.559116

>  <KierA3>
5.965694

>  <KierFlex>
7.3099332

>  <lip_acc>
4

>  <lip_don>
0

>  <lip_druglike>
1

>  <lip_violation>
1

>  <logP(o/w)>
4.9390001

>  <logS>
-5.73738

>  <mr>
13.013055

>  <mutagenic>
0

>  <nmol>
1

>  <opr_brigid>
23

>  <opr_leadlike>
0

>  <opr_nring>
4

>  <opr_nrot>
9

>  <opr_violation>
2

>  <PC+>
0

>  <PC->
0

>  <PEOE_PC+>
1.8584708

>  <PEOE_PC->
-1.8584708

>  <PEOE_RPC+>
0.13940461

>  <PEOE_RPC->
0.16902369

>  <PEOE_VSA+0>
178.64058

>  <PEOE_VSA+1>
57.605152

>  <PEOE_VSA+2>
0

>  <PEOE_VSA+3>
0

>  <PEOE_VSA+4>
0

>  <PEOE_VSA+5>
14.708499

>  <PEOE_VSA+6>
0

>  <PEOE_VSA-0>
86.240189

>  <PEOE_VSA-1>
98.362183

>  <PEOE_VSA-2>
0

>  <PEOE_VSA-3>
0

>  <PEOE_VSA-4>
0

>  <PEOE_VSA-5>
13.566921

>  <PEOE_VSA-6>
2.503756

>  <PEOE_VSA_FHYD>
0.93184829

>  <PEOE_VSA_FNEG>
0.44433331

>  <PEOE_VSA_FPNEG>
0.035583939

>  <PEOE_VSA_FPOL>
0.06815172

>  <PEOE_VSA_FPOS>
0.55566669

>  <PEOE_VSA_FPPOS>
0.032567784

>  <PEOE_VSA_HYD>
420.84811

>  <PEOE_VSA_NEG>
200.67305

>  <PEOE_VSA_PNEG>
16.070677

>  <PEOE_VSA_POL>
30.779177

>  <PEOE_VSA_POS>
250.95424

>  <PEOE_VSA_PPOS>
14.708499

>  <petitjean>
0.47058824

>  <petitjeanSC>
0.8888889

>  <Q_PC+>
0

>  <Q_PC->
0

>  <Q_RPC+>
0

>  <Q_RPC->
0

>  <Q_VSA_FHYD>
1

>  <Q_VSA_FNEG>
0

>  <Q_VSA_FPNEG>
0

>  <Q_VSA_FPOL>
0

>  <Q_VSA_FPOS>
1

>  <Q_VSA_FPPOS>
0

>  <Q_VSA_HYD>
451.62729

>  <Q_VSA_NEG>
0

>  <Q_VSA_PNEG>
0

>  <Q_VSA_POL>
0

>  <Q_VSA_POS>
451.62729

>  <Q_VSA_PPOS>
0

>  <radius>
9

>  <reactive>
0

>  <rings>
4

>  <RPC+>
0

>  <RPC->
0

>  <rsynth>
0.38709676

>  <SlogP>
5.0144901

>  <SlogP_VSA0>
0

>  <SlogP_VSA1>
13.994092

>  <SlogP_VSA2>
34.862103

>  <SlogP_VSA3>
134.7493

>  <SlogP_VSA4>
6.37115

>  <SlogP_VSA5>
3.1014678

>  <SlogP_VSA6>
3.5006065

>  <SlogP_VSA7>
141.14548

>  <SlogP_VSA8>
37.736813

>  <SlogP_VSA9>
104.6942

>  <SMR>
12.6782

>  <SMR_VSA0>
34.862103

>  <SMR_VSA1>
6.2486277

>  <SMR_VSA2>
6.2870431

>  <SMR_VSA3>
9.8717566

>  <SMR_VSA4>
0

>  <SMR_VSA5>
178.88228

>  <SMR_VSA6>
139.30919

>  <SMR_VSA7>
104.6942

>  <TPSA>
32.779999

>  <VAdjEq>
0.36875206

>  <VAdjMa>
6.0874629

>  <VDistEq>
3.9398279

>  <VDistMa>
9.5694141

>  <vdw_area>
451.62729

>  <vdw_vol>
613.71411

>  <vsa_acc>
13.566921

>  <vsa_acid>
0

>  <vsa_base>
0

>  <vsa_don>
0

>  <vsa_hyd>
400.20605

>  <vsa_other>
17.212255

>  <vsa_pol>
13.566921

>  <Weight>
457.03799

>  <weinerPath>
3240

>  <weinerPol>
47

>  <zagreb>
160

$$$$