ClC12C(C3CC(C)C(C(=O)COC(=O)C(C)(C)C)C3(CC1O)C)CC(F)C1=CC(C=CC12C)=C
  MOE2013           2D

 34 37  0  0  1  0  0  0  0  0999 V2000
    0.0000    0.0000    0.0000 Cl  0  0  0  0  0  0  0  0  0  0  0  0
   -1.5000   -0.0080    0.0000 C   0  0  3  0  0  0  0  0  0  0  0  0
   -0.7570    1.2950    0.0000 C   0  0  3  0  0  0  0  0  0  0  0  0
    0.7430    1.3030    0.0000 C   0  0  3  0  0  0  0  0  0  0  0  0
    1.7400    2.4230    0.0000 C   0  0  0  0  0  0  0  0  0  0  0  0
    3.1140    1.8210    0.0000 C   0  0  3  0  0  0  0  0  0  0  0  0
    4.4090    2.5780    0.0000 C   0  0  0  0  0  0  0  0  0  0  0  0
    2.9650    0.3280    0.0000 C   0  0  3  0  0  0  0  0  0  0  0  0
    4.0860   -0.6690    0.0000 C   0  0  0  0  0  0  0  0  0  0  0  0
    3.7820   -2.1380    0.0000 O   0  0  0  0  0  0  0  0  0  0  0  0
    5.5100   -0.1980    0.0000 C   0  0  0  0  0  0  0  0  0  0  0  0
    6.6300   -1.1960    0.0000 O   0  0  0  0  0  0  0  0  0  0  0  0
    8.0540   -0.7240    0.0000 C   0  0  0  0  0  0  0  0  0  0  0  0
    8.3580    0.7450    0.0000 O   0  0  0  0  0  0  0  0  0  0  0  0
    9.1740   -1.7220    0.0000 C   0  0  0  0  0  0  0  0  0  0  0  0
   10.2940   -2.7190    0.0000 C   0  0  0  0  0  0  0  0  0  0  0  0
    8.1770   -2.8420    0.0000 C   0  0  0  0  0  0  0  0  0  0  0  0
   10.1720   -0.6020    0.0000 C   0  0  0  0  0  0  0  0  0  0  0  0
    1.5000    0.0080    0.0000 C   0  0  3  0  0  0  0  0  0  0  0  0
    0.7570   -1.2950    0.0000 C   0  0  0  0  0  0  0  0  0  0  0  0
   -0.7430   -1.3030    0.0000 C   0  0  3  0  0  0  0  0  0  0  0  0
   -1.4860   -2.6060    0.0000 O   0  0  0  0  0  0  0  0  0  0  0  0
    2.3670   -1.2160    0.0000 C   0  0  0  0  0  0  0  0  0  0  0  0
   -1.5140    2.5900    0.0000 C   0  0  0  0  0  0  0  0  0  0  0  0
   -3.0140    2.5820    0.0000 C   0  0  3  0  0  0  0  0  0  0  0  0
   -3.7710    3.8760    0.0000 F   0  0  0  0  0  0  0  0  0  0  0  0
   -3.7570    1.2780    0.0000 C   0  0  0  0  0  0  0  0  0  0  0  0
   -5.2570    1.2700    0.0000 C   0  0  0  0  0  0  0  0  0  0  0  0
   -6.0000   -0.0330    0.0000 C   0  0  0  0  0  0  0  0  0  0  0  0
   -5.2430   -1.3280    0.0000 C   0  0  0  0  0  0  0  0  0  0  0  0
   -3.7430   -1.3200    0.0000 C   0  0  0  0  0  0  0  0  0  0  0  0
   -3.0000   -0.0160    0.0000 C   0  0  3  0  0  0  0  0  0  0  0  0
   -2.2430   -1.3110    0.0000 C   0  0  0  0  0  0  0  0  0  0  0  0
   -7.5000   -0.0410    0.0000 C   0  0  0  0  0  0  0  0  0  0  0  0
  1  2  1  0  0  0  0
  2  3  1  0  0  0  0
  2 21  1  0  0  0  0
  2 32  1  0  0  0  0
  3  4  1  0  0  0  0
  3 24  1  0  0  0  0
  4  5  1  0  0  0  0
  4 19  1  0  0  0  0
  5  6  1  0  0  0  0
  6  7  1  0  0  0  0
  6  8  1  0  0  0  0
  8  9  1  0  0  0  0
  8 19  1  0  0  0  0
  9 10  2  0  0  0  0
  9 11  1  0  0  0  0
 11 12  1  0  0  0  0
 12 13  1  0  0  0  0
 13 14  2  0  0  0  0
 13 15  1  0  0  0  0
 15 16  1  0  0  0  0
 15 17  1  0  0  0  0
 15 18  1  0  0  0  0
 19 20  1  0  0  0  0
 19 23  1  0  0  0  0
 20 21  1  0  0  0  0
 21 22  1  0  0  0  0
 24 25  1  0  0  0  0
 25 26  1  0  0  0  0
 25 27  1  0  0  0  0
 27 28  2  0  0  0  0
 27 32  1  0  0  0  0
 28 29  1  0  0  0  0
 29 30  1  0  0  0  0
 29 34  2  0  0  0  0
 30 31  2  0  0  0  0
 31 32  1  0  0  0  0
 32 33  1  0  0  0  0
M  END
>  <Index>
1392

>  <ID>
HT3881

>  <class>
0

>  <apol>
80.563133

>  <ast_fraglike>
0

>  <ast_fraglike_ext>
0

>  <ast_violation>
2

>  <ast_violation_ext>
3

>  <a_acc>
3

>  <a_acid>
0

>  <a_aro>
0

>  <a_base>
0

>  <a_count>
72

>  <a_don>
1

>  <a_donacc>
4

>  <a_heavy>
34

>  <a_hyd>
28

>  <a_IC>
102.20742

>  <a_ICM>
1.4195474

>  <a_nB>
0

>  <a_nBr>
0

>  <a_nC>
28

>  <a_nCl>
1

>  <a_nF>
1

>  <a_nH>
38

>  <a_nI>
0

>  <a_nN>
0

>  <a_nO>
4

>  <a_nP>
0

>  <a_nS>
0

>  <balabanJ>
1.6207014

>  <BCUT_PEOE_0>
-2.904474

>  <BCUT_PEOE_1>
-0.39871049

>  <BCUT_PEOE_2>
0.3503556

>  <BCUT_PEOE_3>
2.9838591

>  <BCUT_SLOGP_0>
-2.9174614

>  <BCUT_SLOGP_1>
-0.21313131

>  <BCUT_SLOGP_2>
0.40761355

>  <BCUT_SLOGP_3>
3.0075107

>  <BCUT_SMR_0>
-2.664645

>  <BCUT_SMR_1>
-0.14408815

>  <BCUT_SMR_2>
0.5747776

>  <BCUT_SMR_3>
3.2266049

>  <bpol>
46.996864

>  <b_1rotN>
3

>  <b_1rotR>
0.081081077

>  <b_ar>
0

>  <b_count>
75

>  <b_double>
5

>  <b_heavy>
37

>  <b_max1len>
4

>  <b_rotN>
5

>  <b_rotR>
0.13513513

>  <b_single>
70

>  <b_triple>
0

>  <chi0>
25.430357

>  <chi0v>
21.915503

>  <chi0v_C>
18.731686

>  <chi0_C>
19.723249

>  <chi1>
15.569076

>  <chi1v>
12.760414

>  <chi1v_C>
10.816003

>  <chi1_C>
11.851426

>  <chiral>
9

>  <chiral_u>
9

>  <density>
0.74114895

>  <diameter>
15

>  <FCharge>
0

>  <GCUT_PEOE_0>
-0.79797894

>  <GCUT_PEOE_1>
-0.3602021

>  <GCUT_PEOE_2>
-0.065188415

>  <GCUT_PEOE_3>
3.4069188

>  <GCUT_SLOGP_0>
-0.91034347

>  <GCUT_SLOGP_1>
-0.27377647

>  <GCUT_SLOGP_2>
0.0044489522

>  <GCUT_SLOGP_3>
3.4546862

>  <GCUT_SMR_0>
-0.53786248

>  <GCUT_SMR_1>
-0.14998601

>  <GCUT_SMR_2>
0.10686924

>  <GCUT_SMR_3>
3.6363213

>  <Kier1>
27.046019

>  <Kier2>
8.790843

>  <Kier3>
4.007575

>  <KierA1>
24.722809

>  <KierA2>
8.0130768

>  <KierA3>
3.6457708

>  <KierFlex>
5.8266397

>  <lip_acc>
4

>  <lip_don>
1

>  <lip_druglike>
1

>  <lip_violation>
1

>  <logP(o/w)>
6.0050001

>  <logS>
-6.3597102

>  <mr>
13.152864

>  <mutagenic>
1

>  <nmol>
1

>  <opr_brigid>
21

>  <opr_leadlike>
0

>  <opr_nring>
4

>  <opr_nrot>
4

>  <opr_violation>
2

>  <PC+>
0

>  <PC->
0

>  <PEOE_PC+>
2.4353361

>  <PEOE_PC->
-2.4353361

>  <PEOE_RPC+>
0.11003385

>  <PEOE_RPC->
0.16013992

>  <PEOE_VSA+0>
119.43081

>  <PEOE_VSA+1>
43.293404

>  <PEOE_VSA+2>
20.418549

>  <PEOE_VSA+3>
8.458519

>  <PEOE_VSA+4>
10.324173

>  <PEOE_VSA+5>
14.708499

>  <PEOE_VSA+6>
0

>  <PEOE_VSA-0>
30.521019

>  <PEOE_VSA-1>
171.55205

>  <PEOE_VSA-2>
29.581947

>  <PEOE_VSA-3>
0

>  <PEOE_VSA-4>
11.908636

>  <PEOE_VSA-5>
27.133842

>  <PEOE_VSA-6>
10.271297

>  <PEOE_VSA_FHYD>
0.85059077

>  <PEOE_VSA_FNEG>
0.56464475

>  <PEOE_VSA_FPNEG>
0.099102698

>  <PEOE_VSA_FPOL>
0.14940923

>  <PEOE_VSA_FPOS>
0.43535522

>  <PEOE_VSA_FPPOS>
0.05030654

>  <PEOE_VSA_HYD>
423.25629

>  <PEOE_VSA_NEG>
280.96878

>  <PEOE_VSA_PNEG>
49.313774

>  <PEOE_VSA_POL>
74.346443

>  <PEOE_VSA_POS>
216.63396

>  <PEOE_VSA_PPOS>
25.032671

>  <petitjean>
0.46666667

>  <petitjeanSC>
0.875

>  <Q_PC+>
0

>  <Q_PC->
0

>  <Q_RPC+>
0

>  <Q_RPC->
0

>  <Q_VSA_FHYD>
1

>  <Q_VSA_FNEG>
0

>  <Q_VSA_FPNEG>
0

>  <Q_VSA_FPOL>
0

>  <Q_VSA_FPOS>
1

>  <Q_VSA_FPPOS>
0

>  <Q_VSA_HYD>
497.60272

>  <Q_VSA_NEG>
0

>  <Q_VSA_PNEG>
0

>  <Q_VSA_POL>
0

>  <Q_VSA_POS>
497.60272

>  <Q_VSA_PPOS>
0

>  <radius>
8

>  <reactive>
1

>  <rings>
4

>  <RPC+>
0

>  <RPC->
0

>  <rsynth>
0.20588236

>  <SlogP>
5.5822001

>  <SlogP_VSA0>
25.385227

>  <SlogP_VSA1>
13.433075

>  <SlogP_VSA2>
75.539207

>  <SlogP_VSA3>
20.926258

>  <SlogP_VSA4>
17.643185

>  <SlogP_VSA5>
6.37115

>  <SlogP_VSA6>
0

>  <SlogP_VSA7>
52.929554

>  <SlogP_VSA8>
56.605217

>  <SlogP_VSA9>
286.16565

>  <SMR>
13.09698

>  <SMR_VSA0>
58.724319

>  <SMR_VSA1>
40.345341

>  <SMR_VSA2>
17.643185

>  <SMR_VSA3>
23.186039

>  <SMR_VSA4>
0

>  <SMR_VSA5>
109.53477

>  <SMR_VSA6>
34.359333

>  <SMR_VSA7>
271.20554

>  <TPSA>
63.599998

>  <VAdjEq>
0.34317648

>  <VAdjMa>
6.2094536

>  <VDistEq>
3.5878708

>  <VDistMa>
9.8910036

>  <vdw_area>
497.60272

>  <vdw_vol>
665.26306

>  <vsa_acc>
27.133842

>  <vsa_acid>
0

>  <vsa_base>
0

>  <vsa_don>
0

>  <vsa_hyd>
394.98978

>  <vsa_other>
25.670774

>  <vsa_pol>
40.700764

>  <Weight>
493.05899

>  <weinerPath>
3162

>  <weinerPol>
75

>  <zagreb>
198

$$$$