O(C(=O)C=1[C@@H](C(=C(OC)/O)C(=NC=1C)C)c1cc([N+](=O)[O-])ccc1)[C@@H]1CCN(C1)Cc1ccccc1
  MOE2013           2D

 36 39  0  0  1  0  0  0  0  0999 V2000
    0.0000    0.0000    0.0000 O   0  0  0  0  0  0  0  0  0  0  0  0
   -0.7500   -1.2990    0.0000 C   0  0  0  0  0  0  0  0  0  0  0  0
    0.0010   -2.5980    0.0000 O   0  0  0  0  0  0  0  0  0  0  0  0
   -2.2500   -1.3000    0.0000 C   0  0  0  0  0  0  0  0  0  0  0  0
   -2.9990   -2.5990    0.0000 C   0  0  1  0  0  0  0  0  0  0  0  0
   -4.4990   -2.5990    0.0000 C   0  0  0  0  0  0  0  0  0  0  0  0
   -5.2490   -3.8990    0.0000 C   0  0  0  0  0  0  0  0  0  0  0  0
   -6.7490   -3.8990    0.0000 O   0  0  0  0  0  0  0  0  0  0  0  0
   -7.4990   -5.1980    0.0000 C   0  0  0  0  0  0  0  0  0  0  0  0
   -4.4990   -5.1970    0.0000 O   0  0  0  0  0  0  0  0  0  0  0  0
   -5.2500   -1.3000    0.0000 C   0  0  0  0  0  0  0  0  0  0  0  0
   -4.5000   -0.0010    0.0000 N   0  0  0  0  0  0  0  0  0  0  0  0
   -3.0000   -0.0010    0.0000 C   0  0  0  0  0  0  0  0  0  0  0  0
   -2.2500    1.2980    0.0000 C   0  0  0  0  0  0  0  0  0  0  0  0
   -6.7500   -1.3010    0.0000 C   0  0  0  0  0  0  0  0  0  0  0  0
   -2.2490   -3.8980    0.0000 C   0  0  0  0  0  0  0  0  0  0  0  0
   -2.9990   -5.1970    0.0000 C   0  0  0  0  0  0  0  0  0  0  0  0
   -2.2480   -6.4960    0.0000 C   0  0  0  0  0  0  0  0  0  0  0  0
   -2.9980   -7.7950    0.0000 N   0  3  0  0  0  0  0  0  0  0  0  0
   -2.2480   -9.0940    0.0000 O   0  0  0  0  0  0  0  0  0  0  0  0
   -4.4980   -7.7950    0.0000 O   0  5  0  0  0  0  0  0  0  0  0  0
   -0.7480   -6.4950    0.0000 C   0  0  0  0  0  0  0  0  0  0  0  0
    0.0010   -5.1960    0.0000 C   0  0  0  0  0  0  0  0  0  0  0  0
   -0.7490   -3.8970    0.0000 C   0  0  0  0  0  0  0  0  0  0  0  0
    1.5000    0.0000    0.0000 C   0  0  2  0  0  0  0  0  0  0  0  0
    2.3820   -1.2130    0.0000 C   0  0  0  0  0  0  0  0  0  0  0  0
    3.8080   -0.7490    0.0000 C   0  0  0  0  0  0  0  0  0  0  0  0
    3.8080    0.7510    0.0000 N   0  0  3  0  0  0  0  0  0  0  0  0
    2.3810    1.2140    0.0000 C   0  0  0  0  0  0  0  0  0  0  0  0
    5.0210    1.6330    0.0000 C   0  0  0  0  0  0  0  0  0  0  0  0
    6.3920    1.0230    0.0000 C   0  0  0  0  0  0  0  0  0  0  0  0
    7.6050    1.9050    0.0000 C   0  0  0  0  0  0  0  0  0  0  0  0
    8.9760    1.2960    0.0000 C   0  0  0  0  0  0  0  0  0  0  0  0
    9.1330   -0.1960    0.0000 C   0  0  0  0  0  0  0  0  0  0  0  0
    7.9200   -1.0780    0.0000 C   0  0  0  0  0  0  0  0  0  0  0  0
    6.5490   -0.4680    0.0000 C   0  0  0  0  0  0  0  0  0  0  0  0
  1  2  1  0  0  0  0
  2  3  2  0  0  0  0
  2  4  1  0  0  0  0
  4  5  1  0  0  0  0
  4 13  2  0  0  0  0
  5  6  1  0  0  0  0
  5 16  1  6  0  0  0
  6  7  2  3  0  0  0
  6 11  1  0  0  0  0
  7  8  1  0  0  0  0
  7 10  1  0  0  0  0
  8  9  1  0  0  0  0
 11 12  2  0  0  0  0
 11 15  1  0  0  0  0
 12 13  1  0  0  0  0
 13 14  1  0  0  0  0
 16 17  2  0  0  0  0
 16 24  1  0  0  0  0
 17 18  1  0  0  0  0
 18 19  1  0  0  0  0
 18 22  2  0  0  0  0
 19 20  2  0  0  0  0
 19 21  1  0  0  0  0
 22 23  1  0  0  0  0
 23 24  2  0  0  0  0
 25  1  1  1  0  0  0
 25 26  1  0  0  0  0
 25 29  1  0  0  0  0
 26 27  1  0  0  0  0
 27 28  1  0  0  0  0
 28 29  1  0  0  0  0
 28 30  1  0  0  0  0
 30 31  1  0  0  0  0
 31 32  1  0  0  0  0
 31 36  2  0  0  0  0
 32 33  2  0  0  0  0
 33 34  1  0  0  0  0
 34 35  2  0  0  0  0
 35 36  1  0  0  0  0
M  CHG  1  19   1
M  CHG  1  21  -1
M  END
>  <Index>
110

>  <ID>
HT0228

>  <class>
0

>  <apol>
74.968994

>  <ast_fraglike>
0

>  <ast_fraglike_ext>
0

>  <ast_violation>
3

>  <ast_violation_ext>
4

>  <a_acc>
5

>  <a_acid>
0

>  <a_aro>
12

>  <a_base>
0

>  <a_count>
65

>  <a_don>
1

>  <a_donacc>
6

>  <a_heavy>
36

>  <a_hyd>
25

>  <a_IC>
101.92583

>  <a_ICM>
1.5680897

>  <a_nB>
0

>  <a_nBr>
0

>  <a_nC>
27

>  <a_nCl>
0

>  <a_nF>
0

>  <a_nH>
29

>  <a_nI>
0

>  <a_nN>
3

>  <a_nO>
6

>  <a_nP>
0

>  <a_nS>
0

>  <balabanJ>
1.4571152

>  <BCUT_PEOE_0>
-2.542661

>  <BCUT_PEOE_1>
-0.55667818

>  <BCUT_PEOE_2>
0.62350899

>  <BCUT_PEOE_3>
2.7174494

>  <BCUT_SLOGP_0>
-2.5950472

>  <BCUT_SLOGP_1>
-0.46247792

>  <BCUT_SLOGP_2>
0.70003849

>  <BCUT_SLOGP_3>
2.6744726

>  <BCUT_SMR_0>
-2.2624145

>  <BCUT_SMR_1>
-0.42496124

>  <BCUT_SMR_2>
0.76219243

>  <BCUT_SMR_3>
2.9679675

>  <bpol>
41.049004

>  <b_1rotN>
7

>  <b_1rotR>
0.17948718

>  <b_ar>
12

>  <b_count>
68

>  <b_double>
5

>  <b_heavy>
39

>  <b_max1len>
2

>  <b_rotN>
8

>  <b_rotR>
0.20512821

>  <b_single>
51

>  <b_triple>
0

>  <chi0>
25.819262

>  <chi0v>
20.509377

>  <chi0v_C>
16.679279

>  <chi0_C>
18.543242

>  <chi1>
17.278095

>  <chi1v>
11.732708

>  <chi1v_C>
8.2681265

>  <chi1_C>
10.662269

>  <chiral>
2

>  <chiral_u>
0

>  <density>
0.75278586

>  <diameter>
16

>  <FCharge>
0

>  <GCUT_PEOE_0>
-0.85242414

>  <GCUT_PEOE_1>
-0.40879503

>  <GCUT_PEOE_2>
0.068739556

>  <GCUT_PEOE_3>
2.8749356

>  <GCUT_SLOGP_0>
-0.94550389

>  <GCUT_SLOGP_1>
-0.27768195

>  <GCUT_SLOGP_2>
0.13890429

>  <GCUT_SLOGP_3>
2.9268999

>  <GCUT_SMR_0>
-0.52249271

>  <GCUT_SMR_1>
-0.19246881

>  <GCUT_SMR_2>
0.17714278

>  <GCUT_SMR_3>
3.1312366

>  <Kier1>
28.994083

>  <Kier2>
13.375207

>  <Kier3>
7.1585665

>  <KierA1>
22.175753

>  <KierA2>
10.146492

>  <KierA3>
5.3994403

>  <KierFlex>
6.2501688

>  <lip_acc>
9

>  <lip_don>
1

>  <lip_druglike>
1

>  <lip_violation>
0

>  <logP(o/w)>
4.4050002

>  <logS>
-5.9462199

>  <mr>
13.417005

>  <mutagenic>
1

>  <nmol>
1

>  <opr_brigid>
24

>  <opr_leadlike>
0

>  <opr_nring>
4

>  <opr_nrot>
8

>  <opr_violation>
3

>  <PC+>
0

>  <PC->
0

>  <PEOE_PC+>
2.8320799

>  <PEOE_PC->
-2.8320799

>  <PEOE_RPC+>
0.10335918

>  <PEOE_RPC->
0.12011666

>  <PEOE_VSA+0>
168.67287

>  <PEOE_VSA+1>
66.591522

>  <PEOE_VSA+2>
0

>  <PEOE_VSA+3>
14.708499

>  <PEOE_VSA+4>
10.324173

>  <PEOE_VSA+5>
21.408051

>  <PEOE_VSA+6>
0

>  <PEOE_VSA-0>
50.613747

>  <PEOE_VSA-1>
85.784325

>  <PEOE_VSA-2>
0

>  <PEOE_VSA-3>
0

>  <PEOE_VSA-4>
0

>  <PEOE_VSA-5>
53.180546

>  <PEOE_VSA-6>
12.775052

>  <PEOE_VSA_FHYD>
0.79819018

>  <PEOE_VSA_FNEG>
0.41803533

>  <PEOE_VSA_FPNEG>
0.13625534

>  <PEOE_VSA_FPOL>
0.20180982

>  <PEOE_VSA_FPOS>
0.58196467

>  <PEOE_VSA_FPPOS>
0.065554485

>  <PEOE_VSA_HYD>
386.37097

>  <PEOE_VSA_NEG>
202.35367

>  <PEOE_VSA_PNEG>
65.955597

>  <PEOE_VSA_POL>
97.68782

>  <PEOE_VSA_POS>
281.70511

>  <PEOE_VSA_PPOS>
31.732224

>  <petitjean>
0.5

>  <petitjeanSC>
1

>  <Q_PC+>
0

>  <Q_PC->
0

>  <Q_RPC+>
0

>  <Q_RPC->
0

>  <Q_VSA_FHYD>
1

>  <Q_VSA_FNEG>
0

>  <Q_VSA_FPNEG>
0

>  <Q_VSA_FPOL>
0

>  <Q_VSA_FPOS>
1

>  <Q_VSA_FPPOS>
0

>  <Q_VSA_HYD>
484.05878

>  <Q_VSA_NEG>
0

>  <Q_VSA_PNEG>
0

>  <Q_VSA_POL>
0

>  <Q_VSA_POS>
484.05878

>  <Q_VSA_PPOS>
0

>  <radius>
8

>  <reactive>
1

>  <rings>
4

>  <RPC+>
0

>  <RPC->
0

>  <rsynth>
1

>  <SlogP>
4.927

>  <SlogP_VSA0>
0

>  <SlogP_VSA1>
20.712141

>  <SlogP_VSA2>
52.330643

>  <SlogP_VSA3>
113.19939

>  <SlogP_VSA4>
6.37115

>  <SlogP_VSA5>
68.598579

>  <SlogP_VSA6>
4.4107962

>  <SlogP_VSA7>
158.78867

>  <SlogP_VSA8>
18.868406

>  <SlogP_VSA9>
87.848358

>  <SMR>
13.47312

>  <SMR_VSA0>
52.947609

>  <SMR_VSA1>
19.909843

>  <SMR_VSA2>
76.320236

>  <SMR_VSA3>
33.679775

>  <SMR_VSA4>
2.7567475

>  <SMR_VSA5>
196.09665

>  <SMR_VSA6>
47.381367

>  <SMR_VSA7>
102.0359

>  <TPSA>
117.18

>  <VAdjEq>
0.3281796

>  <VAdjMa>
6.2854023

>  <VDistEq>
3.7624068

>  <VDistMa>
10.064539

>  <vdw_area>
484.05878

>  <vdw_vol>
652.96655

>  <vsa_acc>
21.753254

>  <vsa_acid>
0

>  <vsa_base>
0

>  <vsa_don>
0

>  <vsa_hyd>
350.38715

>  <vsa_other>
72.551353

>  <vsa_pol>
35.320175

>  <Weight>
491.54398

>  <weinerPath>
4063

>  <weinerPol>
59

>  <zagreb>
188

$$$$