O(CC(O)CNC(C)C)c1ccc(cc1)COCCOC(C)C
  MOE2013           2D

 23 23  0  0  1  0  0  0  0  0999 V2000
    0.0000    0.0000    0.0000 O   0  0  0  0  0  0  0  0  0  0  0  0
   -1.2960    0.7540    0.0000 C   0  0  0  0  0  0  0  0  0  0  0  0
   -2.5980    0.0090    0.0000 C   0  0  3  0  0  0  0  0  0  0  0  0
   -2.6030   -1.4910    0.0000 O   0  0  0  0  0  0  0  0  0  0  0  0
   -3.8950    0.7630    0.0000 C   0  0  0  0  0  0  0  0  0  0  0  0
   -5.1960    0.0180    0.0000 N   0  0  0  0  0  0  0  0  0  0  0  0
   -6.4930    0.7720    0.0000 C   0  0  0  0  0  0  0  0  0  0  0  0
   -7.7940    0.0270    0.0000 C   0  0  0  0  0  0  0  0  0  0  0  0
   -6.4870    2.2720    0.0000 C   0  0  0  0  0  0  0  0  0  0  0  0
    1.3020    0.7460    0.0000 C   0  0  0  0  0  0  0  0  0  0  0  0
    2.5980   -0.0090    0.0000 C   0  0  0  0  0  0  0  0  0  0  0  0
    3.9000    0.7370    0.0000 C   0  0  0  0  0  0  0  0  0  0  0  0
    3.9050    2.2370    0.0000 C   0  0  0  0  0  0  0  0  0  0  0  0
    2.6080    2.9910    0.0000 C   0  0  0  0  0  0  0  0  0  0  0  0
    1.3070    2.2460    0.0000 C   0  0  0  0  0  0  0  0  0  0  0  0
    5.2060    2.9820    0.0000 C   0  0  0  0  0  0  0  0  0  0  0  0
    6.5030    2.2280    0.0000 O   0  0  0  0  0  0  0  0  0  0  0  0
    7.8040    2.9730    0.0000 C   0  0  0  0  0  0  0  0  0  0  0  0
    9.1010    2.2190    0.0000 C   0  0  0  0  0  0  0  0  0  0  0  0
   10.4020    2.9640    0.0000 O   0  0  0  0  0  0  0  0  0  0  0  0
   11.6990    2.2100    0.0000 C   0  0  0  0  0  0  0  0  0  0  0  0
   11.6940    0.7100    0.0000 C   0  0  0  0  0  0  0  0  0  0  0  0
   13.0010    2.9560    0.0000 C   0  0  0  0  0  0  0  0  0  0  0  0
  1  2  1  0  0  0  0
  1 10  1  0  0  0  0
  2  3  1  0  0  0  0
  3  4  1  0  0  0  0
  3  5  1  0  0  0  0
  5  6  1  0  0  0  0
  6  7  1  0  0  0  0
  7  8  1  0  0  0  0
  7  9  1  0  0  0  0
 10 11  1  0  0  0  0
 10 15  2  0  0  0  0
 11 12  2  0  0  0  0
 12 13  1  0  0  0  0
 13 14  2  0  0  0  0
 13 16  1  0  0  0  0
 14 15  1  0  0  0  0
 16 17  1  0  0  0  0
 17 18  1  0  0  0  0
 18 19  1  0  0  0  0
 19 20  1  0  0  0  0
 20 21  1  0  0  0  0
 21 22  1  0  0  0  0
 21 23  1  0  0  0  0
M  END
>  <Index>
149

>  <ID>
HT0292

>  <class>
0

>  <apol>
56.658585

>  <ast_fraglike>
0

>  <ast_fraglike_ext>
0

>  <ast_violation>
2

>  <ast_violation_ext>
3

>  <a_acc>
5

>  <a_acid>
0

>  <a_aro>
6

>  <a_base>
0

>  <a_count>
54

>  <a_don>
2

>  <a_donacc>
7

>  <a_heavy>
23

>  <a_hyd>
18

>  <a_IC>
74.125191

>  <a_ICM>
1.3726887

>  <a_nB>
0

>  <a_nBr>
0

>  <a_nC>
18

>  <a_nCl>
0

>  <a_nF>
0

>  <a_nH>
31

>  <a_nI>
0

>  <a_nN>
1

>  <a_nO>
4

>  <a_nP>
0

>  <a_nS>
0

>  <balabanJ>
2.0021701

>  <BCUT_PEOE_0>
-2.6557391

>  <BCUT_PEOE_1>
-0.45442384

>  <BCUT_PEOE_2>
0.47507867

>  <BCUT_PEOE_3>
2.5983138

>  <BCUT_SLOGP_0>
-2.8163326

>  <BCUT_SLOGP_1>
-0.45327082

>  <BCUT_SLOGP_2>
0.5050444

>  <BCUT_SLOGP_3>
2.5402968

>  <BCUT_SMR_0>
-2.3944054

>  <BCUT_SMR_1>
-0.3220841

>  <BCUT_SMR_2>
0.62186652

>  <BCUT_SMR_3>
2.8449152

>  <bpol>
40.297417

>  <b_1rotN>
12

>  <b_1rotR>
0.52173913

>  <b_ar>
6

>  <b_count>
54

>  <b_double>
0

>  <b_heavy>
23

>  <b_max1len>
8

>  <b_rotN>
12

>  <b_rotR>
0.52173913

>  <b_single>
48

>  <b_triple>
0

>  <chi0>
17.07914

>  <chi0v>
14.748944

>  <chi0v_C>
12.576985

>  <chi0_C>
13.250712

>  <chi1>
10.969234

>  <chi1v>
8.2957726

>  <chi1v_C>
5.8008184

>  <chi1_C>
6.6671391

>  <chiral>
1

>  <chiral_u>
1

>  <density>
0.67969877

>  <diameter>
17

>  <FCharge>
0

>  <GCUT_PEOE_0>
-0.84582698

>  <GCUT_PEOE_1>
-0.34754562

>  <GCUT_PEOE_2>
-0.014274658

>  <GCUT_PEOE_3>
2.5310004

>  <GCUT_SLOGP_0>
-1.1534549

>  <GCUT_SLOGP_1>
-0.29397032

>  <GCUT_SLOGP_2>
0.029606799

>  <GCUT_SLOGP_3>
2.5775158

>  <GCUT_SMR_0>
-0.52443171

>  <GCUT_SMR_1>
-0.18978612

>  <GCUT_SMR_2>
0.11597345

>  <GCUT_SMR_3>
2.7690315

>  <Kier1>
21.043478

>  <Kier2>
12.375

>  <Kier3>
11.22449

>  <KierA1>
18.913815

>  <KierA2>
11.066024

>  <KierA3>
9.9985285

>  <KierFlex>
9.1000319

>  <lip_acc>
5

>  <lip_don>
2

>  <lip_druglike>
1

>  <lip_violation>
0

>  <logP(o/w)>
2.2637401

>  <logS>
-2.5673399

>  <mr>
9.2861938

>  <mutagenic>
0

>  <nmol>
1

>  <opr_brigid>
6

>  <opr_leadlike>
1

>  <opr_nring>
1

>  <opr_nrot>
12

>  <opr_violation>
1

>  <PC+>
0

>  <PC->
0

>  <PEOE_PC+>
2.1595168

>  <PEOE_PC->
-2.1595168

>  <PEOE_RPC+>
0.09721227

>  <PEOE_RPC->
0.17977984

>  <PEOE_VSA+0>
80.319077

>  <PEOE_VSA+1>
137.78896

>  <PEOE_VSA+2>
8.6190128

>  <PEOE_VSA+3>
0

>  <PEOE_VSA+4>
10.324173

>  <PEOE_VSA+5>
0

>  <PEOE_VSA+6>
0

>  <PEOE_VSA-0>
101.70906

>  <PEOE_VSA-1>
24.509808

>  <PEOE_VSA-2>
0

>  <PEOE_VSA-3>
0

>  <PEOE_VSA-4>
0

>  <PEOE_VSA-5>
0

>  <PEOE_VSA-6>
15.4157

>  <PEOE_VSA_FHYD>
0.93202841

>  <PEOE_VSA_FNEG>
0.37401608

>  <PEOE_VSA_FPNEG>
0.040708419

>  <PEOE_VSA_FPOL>
0.067971587

>  <PEOE_VSA_FPOS>
0.62598395

>  <PEOE_VSA_FPPOS>
0.027263165

>  <PEOE_VSA_HYD>
352.94589

>  <PEOE_VSA_NEG>
141.63457

>  <PEOE_VSA_PNEG>
15.4157

>  <PEOE_VSA_POL>
25.739872

>  <PEOE_VSA_POS>
237.05121

>  <PEOE_VSA_PPOS>
10.324173

>  <petitjean>
0.47058824

>  <petitjeanSC>
0.8888889

>  <Q_PC+>
0

>  <Q_PC->
0

>  <Q_RPC+>
0

>  <Q_RPC->
0

>  <Q_VSA_FHYD>
1

>  <Q_VSA_FNEG>
0

>  <Q_VSA_FPNEG>
0

>  <Q_VSA_FPOL>
0

>  <Q_VSA_FPOS>
1

>  <Q_VSA_FPPOS>
0

>  <Q_VSA_HYD>
378.68579

>  <Q_VSA_NEG>
0

>  <Q_VSA_PNEG>
0

>  <Q_VSA_POL>
0

>  <Q_VSA_POS>
378.68579

>  <Q_VSA_PPOS>
0

>  <radius>
9

>  <reactive>
0

>  <rings>
1

>  <RPC+>
0

>  <RPC->
0

>  <rsynth>
1

>  <SlogP>
2.6322999

>  <SlogP_VSA0>
54.395866

>  <SlogP_VSA1>
0

>  <SlogP_VSA2>
38.919044

>  <SlogP_VSA3>
81.218353

>  <SlogP_VSA4>
3.185575

>  <SlogP_VSA5>
0

>  <SlogP_VSA6>
0

>  <SlogP_VSA7>
70.572739

>  <SlogP_VSA8>
0

>  <SlogP_VSA9>
159.47374

>  <SMR>
9.2031498

>  <SMR_VSA0>
21.999775

>  <SMR_VSA1>
36.385113

>  <SMR_VSA2>
18.01075

>  <SMR_VSA3>
25.34827

>  <SMR_VSA4>
0

>  <SMR_VSA5>
91.498993

>  <SMR_VSA6>
81.218353

>  <SMR_VSA7>
133.30406

>  <TPSA>
59.950001

>  <VAdjEq>
0.42622864

>  <VAdjMa>
5.523562

>  <VDistEq>
3.878197

>  <VDistMa>
8.6787691

>  <vdw_area>
378.68579

>  <vdw_vol>
478.8136

>  <vsa_acc>
7.5112681

>  <vsa_acid>
0

>  <vsa_base>
0

>  <vsa_don>
0

>  <vsa_hyd>
323.68481

>  <vsa_other>
0

>  <vsa_pol>
26.760765

>  <Weight>
325.44901

>  <weinerPath>
1650

>  <weinerPol>
25

>  <zagreb>
102

$$$$