s1cccc1[C@@H]1OC[C@H]2O[C@@H](O[C@H]3[C@@H]4[C@@H]([C@@H](c5c3cc3OCOc3c5)c3cc(OC)c(O)c(OC)c3)C(OC4)=O)[C@H](O)[C@@H](O)[C@@H]2O1
  MOE2013           2D

 46 53  0  0  1  0  0  0  0  0999 V2000
    0.0000    0.0000    0.0000 S   0  0  0  0  0  0  0  0  0  0  0  0
    1.4320    0.4470    0.0000 C   0  0  0  0  0  0  0  0  0  0  0  0
    1.4490    1.9470    0.0000 C   0  0  0  0  0  0  0  0  0  0  0  0
    0.0280    2.4270    0.0000 C   0  0  0  0  0  0  0  0  0  0  0  0
   -0.8680    1.2230    0.0000 C   0  0  0  0  0  0  0  0  0  0  0  0
   -2.3680    1.2410    0.0000 C   0  0  2  0  0  0  0  0  0  0  0  0
   -3.1320   -0.0500    0.0000 O   0  0  0  0  0  0  0  0  0  0  0  0
   -4.6320   -0.0330    0.0000 C   0  0  0  0  0  0  0  0  0  0  0  0
   -5.3680    1.2750    0.0000 C   0  0  1  0  0  0  0  0  0  0  0  0
   -6.8670    1.2920    0.0000 O   0  0  0  0  0  0  0  0  0  0  0  0
   -7.6030    2.5990    0.0000 C   0  0  1  0  0  0  0  0  0  0  0  0
   -9.1030    2.6160    0.0000 O   0  0  0  0  0  0  0  0  0  0  0  0
   -9.8670    1.3260    0.0000 C   0  0  1  0  0  0  0  0  0  0  0  0
   -9.1320    0.0180    0.0000 C   0  0  2  0  0  0  0  0  0  0  0  0
   -9.8970   -1.2720    0.0000 C   0  0  1  0  0  0  0  0  0  0  0  0
  -11.3970   -1.2550    0.0000 C   0  0  1  0  0  0  0  0  0  0  0  0
  -12.1320    0.0520    0.0000 C   0  0  0  0  0  0  0  0  0  0  0  0
  -11.3670    1.3430    0.0000 C   0  0  0  0  0  0  0  0  0  0  0  0
  -12.1020    2.6500    0.0000 C   0  0  0  0  0  0  0  0  0  0  0  0
  -13.6020    2.6670    0.0000 C   0  0  0  0  0  0  0  0  0  0  0  0
  -14.5930    3.7930    0.0000 O   0  0  0  0  0  0  0  0  0  0  0  0
  -15.9700    3.1990    0.0000 C   0  0  0  0  0  0  0  0  0  0  0  0
  -15.8310    1.7060    0.0000 O   0  0  0  0  0  0  0  0  0  0  0  0
  -14.3670    1.3770    0.0000 C   0  0  0  0  0  0  0  0  0  0  0  0
  -13.6320    0.0700    0.0000 C   0  0  0  0  0  0  0  0  0  0  0  0
  -12.1610   -2.5450    0.0000 C   0  0  0  0  0  0  0  0  0  0  0  0
  -11.4260   -3.8530    0.0000 C   0  0  0  0  0  0  0  0  0  0  0  0
  -12.1910   -5.1430    0.0000 C   0  0  0  0  0  0  0  0  0  0  0  0
  -11.4560   -6.4510    0.0000 O   0  0  0  0  0  0  0  0  0  0  0  0
  -12.2200   -7.7410    0.0000 C   0  0  0  0  0  0  0  0  0  0  0  0
  -13.6910   -5.1260    0.0000 C   0  0  0  0  0  0  0  0  0  0  0  0
  -14.4560   -6.4170    0.0000 O   0  0  0  0  0  0  0  0  0  0  0  0
  -14.4260   -3.8190    0.0000 C   0  0  0  0  0  0  0  0  0  0  0  0
  -15.9260   -3.8020    0.0000 O   0  0  0  0  0  0  0  0  0  0  0  0
  -16.6910   -5.0920    0.0000 C   0  0  0  0  0  0  0  0  0  0  0  0
  -13.6610   -2.5280    0.0000 C   0  0  0  0  0  0  0  0  0  0  0  0
   -8.9060   -2.3980    0.0000 C   0  0  0  0  0  0  0  0  0  0  0  0
   -7.5290   -1.8040    0.0000 O   0  0  0  0  0  0  0  0  0  0  0  0
   -7.6680   -0.3100    0.0000 C   0  0  0  0  0  0  0  0  0  0  0  0
   -9.2340   -3.8620    0.0000 O   0  0  0  0  0  0  0  0  0  0  0  0
   -6.8380    3.8900    0.0000 C   0  0  2  0  0  0  0  0  0  0  0  0
   -7.5730    5.1970    0.0000 O   0  0  0  0  0  0  0  0  0  0  0  0
   -5.3380    3.8730    0.0000 C   0  0  1  0  0  0  0  0  0  0  0  0
   -4.5730    5.1630    0.0000 O   0  0  0  0  0  0  0  0  0  0  0  0
   -4.6030    2.5650    0.0000 C   0  0  2  0  0  0  0  0  0  0  0  0
   -3.1030    2.5480    0.0000 O   0  0  0  0  0  0  0  0  0  0  0  0
  1  2  1  0  0  0  0
  1  5  1  0  0  0  0
  2  3  2  0  0  0  0
  3  4  1  0  0  0  0
  4  5  2  0  0  0  0
  6  5  1  6  0  0  0
  6  7  1  0  0  0  0
  6 46  1  0  0  0  0
  7  8  1  0  0  0  0
  9  8  1  1  0  0  0
  9 10  1  0  0  0  0
  9 45  1  0  0  0  0
 10 11  1  0  0  0  0
 11 12  1  1  0  0  0
 11 41  1  0  0  0  0
 13 12  1  1  0  0  0
 13 14  1  0  0  0  0
 13 18  1  0  0  0  0
 14 15  1  0  0  0  0
 14 39  1  1  0  0  0
 15 16  1  0  0  0  0
 15 37  1  6  0  0  0
 16 17  1  0  0  0  0
 16 26  1  6  0  0  0
 17 18  2  0  0  0  0
 17 25  1  0  0  0  0
 18 19  1  0  0  0  0
 19 20  2  0  0  0  0
 20 21  1  0  0  0  0
 20 24  1  0  0  0  0
 21 22  1  0  0  0  0
 22 23  1  0  0  0  0
 23 24  1  0  0  0  0
 24 25  2  0  0  0  0
 26 27  2  0  0  0  0
 26 36  1  0  0  0  0
 27 28  1  0  0  0  0
 28 29  1  0  0  0  0
 28 31  2  0  0  0  0
 29 30  1  0  0  0  0
 31 32  1  0  0  0  0
 31 33  1  0  0  0  0
 33 34  1  0  0  0  0
 33 36  2  0  0  0  0
 34 35  1  0  0  0  0
 37 38  1  0  0  0  0
 37 40  2  0  0  0  0
 38 39  1  0  0  0  0
 41 42  1  6  0  0  0
 41 43  1  0  0  0  0
 43 44  1  1  0  0  0
 43 45  1  0  0  0  0
 45 46  1  6  0  0  0
M  END
>  <Index>
1044

>  <ID>
HT2002

>  <class>
0

>  <apol>
90.983376

>  <ast_fraglike>
0

>  <ast_fraglike_ext>
0

>  <ast_violation>
2

>  <ast_violation_ext>
4

>  <a_acc>
12

>  <a_acid>
0

>  <a_aro>
17

>  <a_base>
0

>  <a_count>
78

>  <a_don>
3

>  <a_donacc>
15

>  <a_heavy>
46

>  <a_hyd>
29

>  <a_IC>
122.15565

>  <a_ICM>
1.5660982

>  <a_nB>
0

>  <a_nBr>
0

>  <a_nC>
32

>  <a_nCl>
0

>  <a_nF>
0

>  <a_nH>
32

>  <a_nI>
0

>  <a_nN>
0

>  <a_nO>
13

>  <a_nP>
0

>  <a_nS>
1

>  <balabanJ>
1.056125

>  <BCUT_PEOE_0>
-2.7585914

>  <BCUT_PEOE_1>
-0.5993067

>  <BCUT_PEOE_2>
0.59925187

>  <BCUT_PEOE_3>
2.8330281

>  <BCUT_SLOGP_0>
-2.9165382

>  <BCUT_SLOGP_1>
-0.5269478

>  <BCUT_SLOGP_2>
0.61317593

>  <BCUT_SLOGP_3>
2.8157296

>  <BCUT_SMR_0>
-2.5528316

>  <BCUT_SMR_1>
-0.42696738

>  <BCUT_SMR_2>
0.7723434

>  <BCUT_SMR_3>
3.0413511

>  <bpol>
55.464622

>  <b_1rotN>
6

>  <b_1rotR>
0.11320755

>  <b_ar>
17

>  <b_count>
85

>  <b_double>
1

>  <b_heavy>
53

>  <b_max1len>
4

>  <b_rotN>
6

>  <b_rotR>
0.11320755

>  <b_single>
67

>  <b_triple>
0

>  <chi0>
31.68914

>  <chi0v>
25.585144

>  <chi0v_C>
18.936275

>  <chi0_C>
20.618073

>  <chi1>
22.354906

>  <chi1v>
15.76329

>  <chi1v_C>
8.8579483

>  <chi1_C>
10.824064

>  <chiral>
10

>  <chiral_u>
0

>  <density>
0.83936751

>  <diameter>
18

>  <FCharge>
0

>  <GCUT_PEOE_0>
-0.78698456

>  <GCUT_PEOE_1>
-0.42301509

>  <GCUT_PEOE_2>
0.075192459

>  <GCUT_PEOE_3>
3.1783166

>  <GCUT_SLOGP_0>
-0.9484672

>  <GCUT_SLOGP_1>
-0.39224002

>  <GCUT_SLOGP_2>
0.12051298

>  <GCUT_SLOGP_3>
3.2228835

>  <GCUT_SMR_0>
-0.52777433

>  <GCUT_SMR_1>
-0.21545604

>  <GCUT_SMR_2>
0.14740458

>  <GCUT_SMR_3>
3.4118354

>  <Kier1>
33.161266

>  <Kier2>
13.6125

>  <Kier3>
5.8786807

>  <KierA1>
29.203928

>  <KierA2>
11.952961

>  <KierA3>
5.151526

>  <KierFlex>
7.5885525

>  <lip_acc>
13

>  <lip_don>
3

>  <lip_druglike>
0

>  <lip_violation>
2

>  <logP(o/w)>
2.5929999

>  <logS>
-5.0676899

>  <mr>
15.964456

>  <mutagenic>
0

>  <nmol>
1

>  <opr_brigid>
41

>  <opr_leadlike>
0

>  <opr_nring>
8

>  <opr_nrot>
8

>  <opr_violation>
3

>  <PC+>
0

>  <PC->
0

>  <PEOE_PC+>
4.8606539

>  <PEOE_PC->
-4.8606539

>  <PEOE_RPC+>
0.054853275

>  <PEOE_RPC->
0.079493552

>  <PEOE_VSA+0>
67.056862

>  <PEOE_VSA+1>
141.44217

>  <PEOE_VSA+2>
61.912312

>  <PEOE_VSA+3>
63.271709

>  <PEOE_VSA+4>
30.972517

>  <PEOE_VSA+5>
14.708499

>  <PEOE_VSA+6>
0

>  <PEOE_VSA-0>
59.829838

>  <PEOE_VSA-1>
24.509808

>  <PEOE_VSA-2>
14.230966

>  <PEOE_VSA-3>
0

>  <PEOE_VSA-4>
0

>  <PEOE_VSA-5>
13.566921

>  <PEOE_VSA-6>
45.836426

>  <PEOE_VSA_FHYD>
0.80443525

>  <PEOE_VSA_FNEG>
0.29399362

>  <PEOE_VSA_FPNEG>
0.11055117

>  <PEOE_VSA_FPOL>
0.19556473

>  <PEOE_VSA_FPOS>
0.70600635

>  <PEOE_VSA_FPPOS>
0.085013561

>  <PEOE_VSA_HYD>
432.25366

>  <PEOE_VSA_NEG>
157.97395

>  <PEOE_VSA_PNEG>
59.403347

>  <PEOE_VSA_POL>
105.08437

>  <PEOE_VSA_POS>
379.36407

>  <PEOE_VSA_PPOS>
45.681019

>  <petitjean>
0.5

>  <petitjeanSC>
1

>  <Q_PC+>
0

>  <Q_PC->
0

>  <Q_RPC+>
0

>  <Q_RPC->
0

>  <Q_VSA_FHYD>
1

>  <Q_VSA_FNEG>
0

>  <Q_VSA_FPNEG>
0

>  <Q_VSA_FPOL>
0

>  <Q_VSA_FPOS>
1

>  <Q_VSA_FPPOS>
0

>  <Q_VSA_HYD>
537.33801

>  <Q_VSA_NEG>
0

>  <Q_VSA_PNEG>
0

>  <Q_VSA_POL>
0

>  <Q_VSA_POS>
537.33801

>  <Q_VSA_PPOS>
0

>  <radius>
9

>  <reactive>
1

>  <rings>
8

>  <RPC+>
0

>  <RPC->
0

>  <rsynth>
0.45652175

>  <SlogP>
2.9439001

>  <SlogP_VSA0>
120.15523

>  <SlogP_VSA1>
7.7454643

>  <SlogP_VSA2>
113.26276

>  <SlogP_VSA3>
64.836632

>  <SlogP_VSA4>
19.736719

>  <SlogP_VSA5>
70.767738

>  <SlogP_VSA6>
4.4107962

>  <SlogP_VSA7>
121.67512

>  <SlogP_VSA8>
14.995152

>  <SlogP_VSA9>
57.494827

>  <SMR>
15.61654

>  <SMR_VSA0>
78.861656

>  <SMR_VSA1>
120.15523

>  <SMR_VSA2>
8.8215923

>  <SMR_VSA3>
90.939316

>  <SMR_VSA4>
0

>  <SMR_VSA5>
121.67512

>  <SMR_VSA6>
72.582092

>  <SMR_VSA7>
102.04543

>  <TPSA>
160.83

>  <VAdjEq>
0.28679833

>  <VAdjMa>
6.7279205

>  <VDistEq>
3.9069531

>  <VDistMa>
10.780064

>  <vdw_area>
537.33801

>  <vdw_vol>
782.32837

>  <vsa_acc>
33.59697

>  <vsa_acid>
0

>  <vsa_base>
0

>  <vsa_don>
0

>  <vsa_hyd>
349.85098

>  <vsa_other>
74.937706

>  <vsa_pol>
74.297729

>  <Weight>
656.66101

>  <weinerPath>
7305

>  <weinerPol>
89

>  <zagreb>
266

$$$$