OC1(CCC2C3C(C4=C(CC3C)CC(=O)CC4)CCC12C)C#C
  MOE2013           2D

 23 26  0  0  1  0  0  0  0  0999 V2000
    0.0000    0.0000    0.0000 O   0  0  0  0  0  0  0  0  0  0  0  0
   -1.1290    0.9870    0.0000 C   0  0  3  0  0  0  0  0  0  0  0  0
   -1.7360    2.3590    0.0000 C   0  0  0  0  0  0  0  0  0  0  0  0
   -3.2280    2.2070    0.0000 C   0  0  0  0  0  0  0  0  0  0  0  0
   -3.5440    0.7400    0.0000 C   0  0  3  0  0  0  0  0  0  0  0  0
   -4.8450   -0.0060    0.0000 C   0  0  3  0  0  0  0  0  0  0  0  0
   -4.8490   -1.5060    0.0000 C   0  0  3  0  0  0  0  0  0  0  0  0
   -6.1500   -2.2520    0.0000 C   0  0  0  0  0  0  0  0  0  0  0  0
   -7.4470   -1.4990    0.0000 C   0  0  0  0  0  0  0  0  0  0  0  0
   -7.4430    0.0010    0.0000 C   0  0  0  0  0  0  0  0  0  0  0  0
   -6.1420    0.7480    0.0000 C   0  0  3  0  0  0  0  0  0  0  0  0
   -6.1380    2.2480    0.0000 C   0  0  0  0  0  0  0  0  0  0  0  0
   -8.7480   -2.2450    0.0000 C   0  0  0  0  0  0  0  0  0  0  0  0
   -8.7530   -3.7450    0.0000 C   0  0  0  0  0  0  0  0  0  0  0  0
  -10.0540   -4.4910    0.0000 O   0  0  0  0  0  0  0  0  0  0  0  0
   -7.4560   -4.4990    0.0000 C   0  0  0  0  0  0  0  0  0  0  0  0
   -6.1550   -3.7520    0.0000 C   0  0  0  0  0  0  0  0  0  0  0  0
   -3.5520   -2.2600    0.0000 C   0  0  0  0  0  0  0  0  0  0  0  0
   -2.2510   -1.5130    0.0000 C   0  0  0  0  0  0  0  0  0  0  0  0
   -2.2470   -0.0130    0.0000 C   0  0  3  0  0  0  0  0  0  0  0  0
   -0.8890   -0.6510    0.0000 C   0  0  0  0  0  0  0  0  0  0  0  0
    0.2730    1.5210    0.0000 C   0  0  0  0  0  0  0  0  0  0  0  0
    1.6740    2.0540    0.0000 C   0  0  0  0  0  0  0  0  0  0  0  0
  1  2  1  0  0  0  0
  2  3  1  0  0  0  0
  2 20  1  0  0  0  0
  2 22  1  0  0  0  0
  3  4  1  0  0  0  0
  4  5  1  0  0  0  0
  5  6  1  0  0  0  0
  5 20  1  0  0  0  0
  6  7  1  0  0  0  0
  6 11  1  0  0  0  0
  7  8  1  0  0  0  0
  7 18  1  0  0  0  0
  8  9  2  0  0  0  0
  8 17  1  0  0  0  0
  9 10  1  0  0  0  0
  9 13  1  0  0  0  0
 10 11  1  0  0  0  0
 11 12  1  0  0  0  0
 13 14  1  0  0  0  0
 14 15  2  0  0  0  0
 14 16  1  0  0  0  0
 16 17  1  0  0  0  0
 18 19  1  0  0  0  0
 19 20  1  0  0  0  0
 20 21  1  0  0  0  0
 22 23  3  0  0  0  0
M  END
>  <Index>
1073

>  <ID>
HT2055

>  <class>
0

>  <apol>
57.234203

>  <ast_fraglike>
0

>  <ast_fraglike_ext>
0

>  <ast_violation>
2

>  <ast_violation_ext>
2

>  <a_acc>
2

>  <a_acid>
0

>  <a_aro>
0

>  <a_base>
0

>  <a_count>
51

>  <a_don>
1

>  <a_donacc>
3

>  <a_heavy>
23

>  <a_hyd>
20

>  <a_IC>
60.449089

>  <a_ICM>
1.1852763

>  <a_nB>
0

>  <a_nBr>
0

>  <a_nC>
21

>  <a_nCl>
0

>  <a_nF>
0

>  <a_nH>
28

>  <a_nI>
0

>  <a_nN>
0

>  <a_nO>
2

>  <a_nP>
0

>  <a_nS>
0

>  <balabanJ>
1.6291245

>  <BCUT_PEOE_0>
-2.9103861

>  <BCUT_PEOE_1>
-0.47938561

>  <BCUT_PEOE_2>
0.45029622

>  <BCUT_PEOE_3>
2.947612

>  <BCUT_SLOGP_0>
-2.8395758

>  <BCUT_SLOGP_1>
-0.43428719

>  <BCUT_SLOGP_2>
0.44829977

>  <BCUT_SLOGP_3>
3.0116467

>  <BCUT_SMR_0>
-2.6556234

>  <BCUT_SMR_1>
-0.33104506

>  <BCUT_SMR_2>
0.62800169

>  <BCUT_SMR_3>
3.1959236

>  <bpol>
31.567797

>  <b_1rotN>
0

>  <b_1rotR>
0

>  <b_ar>
0

>  <b_count>
54

>  <b_double>
2

>  <b_heavy>
26

>  <b_max1len>
3

>  <b_rotN>
1

>  <b_rotR>
0.03846154

>  <b_single>
51

>  <b_triple>
1

>  <chi0>
16.405413

>  <chi0v>
14.399068

>  <chi0v_C>
13.543606

>  <chi0_C>
14.405413

>  <chi1>
10.893796

>  <chi1v>
9.3207254

>  <chi1v_C>
8.8929939

>  <chi1_C>
9.8164454

>  <chiral>
6

>  <chiral_u>
6

>  <density>
0.6743778

>  <diameter>
11

>  <FCharge>
0

>  <GCUT_PEOE_0>
-0.79310793

>  <GCUT_PEOE_1>
-0.37441191

>  <GCUT_PEOE_2>
0.013098451

>  <GCUT_PEOE_3>
3.2561116

>  <GCUT_SLOGP_0>
-0.88826102

>  <GCUT_SLOGP_1>
-0.29222116

>  <GCUT_SLOGP_2>
0.012569266

>  <GCUT_SLOGP_3>
3.3377113

>  <GCUT_SMR_0>
-0.53631938

>  <GCUT_SMR_1>
-0.19714376

>  <GCUT_SMR_2>
0.13786088

>  <GCUT_SMR_3>
3.4870589

>  <Kier1>
16.467455

>  <Kier2>
5.5

>  <Kier3>
2.2171831

>  <KierA1>
14.352071

>  <KierA2>
4.7619047

>  <KierA3>
1.9100529

>  <KierFlex>
2.9714432

>  <lip_acc>
2

>  <lip_don>
1

>  <lip_druglike>
1

>  <lip_violation>
0

>  <logP(o/w)>
2.971

>  <logS>
-4.5646

>  <mr>
9.0858717

>  <mutagenic>
0

>  <nmol>
1

>  <opr_brigid>
21

>  <opr_leadlike>
1

>  <opr_nring>
4

>  <opr_nrot>
1

>  <opr_violation>
0

>  <PC+>
0

>  <PC->
0

>  <PEOE_PC+>
1.4147505

>  <PEOE_PC->
-1.4147505

>  <PEOE_RPC+>
0.14943047

>  <PEOE_RPC->
0.26576257

>  <PEOE_VSA+0>
128.30266

>  <PEOE_VSA+1>
0

>  <PEOE_VSA+2>
12.723906

>  <PEOE_VSA+3>
0

>  <PEOE_VSA+4>
10.324173

>  <PEOE_VSA+5>
0

>  <PEOE_VSA+6>
0

>  <PEOE_VSA-0>
52.207878

>  <PEOE_VSA-1>
57.720928

>  <PEOE_VSA-2>
25.854858

>  <PEOE_VSA-3>
0

>  <PEOE_VSA-4>
0

>  <PEOE_VSA-5>
13.566921

>  <PEOE_VSA-6>
7.7675405

>  <PEOE_VSA_FHYD>
0.89736849

>  <PEOE_VSA_FNEG>
0.50934839

>  <PEOE_VSA_FPNEG>
0.069162443

>  <PEOE_VSA_FPOL>
0.10263154

>  <PEOE_VSA_FPOS>
0.49065158

>  <PEOE_VSA_FPPOS>
0.033469092

>  <PEOE_VSA_HYD>
276.81024

>  <PEOE_VSA_NEG>
157.11813

>  <PEOE_VSA_PNEG>
21.334461

>  <PEOE_VSA_POL>
31.658634

>  <PEOE_VSA_POS>
151.35074

>  <PEOE_VSA_PPOS>
10.324173

>  <petitjean>
0.45454547

>  <petitjeanSC>
0.83333331

>  <Q_PC+>
0

>  <Q_PC->
0

>  <Q_RPC+>
0

>  <Q_RPC->
0

>  <Q_VSA_FHYD>
1

>  <Q_VSA_FNEG>
0

>  <Q_VSA_FPNEG>
0

>  <Q_VSA_FPOL>
0

>  <Q_VSA_FPOS>
1

>  <Q_VSA_FPPOS>
0

>  <Q_VSA_HYD>
308.46887

>  <Q_VSA_NEG>
0

>  <Q_VSA_PNEG>
0

>  <Q_VSA_POL>
0

>  <Q_VSA_POS>
308.46887

>  <Q_VSA_PPOS>
0

>  <radius>
6

>  <reactive>
1

>  <rings>
4

>  <RPC+>
0

>  <RPC->
0

>  <rsynth>
0

>  <SlogP>
3.8826079

>  <SlogP_VSA0>
25.385227

>  <SlogP_VSA1>
5.6876111

>  <SlogP_VSA2>
23.862217

>  <SlogP_VSA3>
17.030573

>  <SlogP_VSA4>
49.131367

>  <SlogP_VSA5>
6.37115

>  <SlogP_VSA6>
0

>  <SlogP_VSA7>
0

>  <SlogP_VSA8>
150.94725

>  <SlogP_VSA9>
66.652031

>  <SMR>
9.0492802

>  <SMR_VSA0>
23.862217

>  <SMR_VSA1>
25.385227

>  <SMR_VSA2>
17.643185

>  <SMR_VSA3>
23.401724

>  <SMR_VSA4>
0

>  <SMR_VSA5>
150.94725

>  <SMR_VSA6>
37.175793

>  <SMR_VSA7>
66.652031

>  <TPSA>
37.299999

>  <VAdjEq>
0.46357921

>  <VAdjMa>
5.7004399

>  <VDistEq>
3.0602455

>  <VDistMa>
8.7733479

>  <vdw_area>
308.46887

>  <vdw_vol>
463.3204

>  <vsa_acc>
13.566921

>  <vsa_acid>
0

>  <vsa_base>
0

>  <vsa_don>
0

>  <vsa_hyd>
243.75304

>  <vsa_other>
8.458519

>  <vsa_pol>
27.133842

>  <Weight>
312.453

>  <weinerPath>
1036

>  <weinerPol>
49

>  <zagreb>
136

$$$$