O(C(=O)CN[C@@H](C(=O)N1CC[C@H]1C(=O)NCc1ccc(cc1)C(NO)=N)C1CCCCC1)CC
  MOE2013           2D

 34 36  0  0  1  0  0  0  0  0999 V2000
    0.0000    0.0000    0.0000 O   0  0  0  0  0  0  0  0  0  0  0  0
   -0.7470   -1.3010    0.0000 C   0  0  0  0  0  0  0  0  0  0  0  0
   -2.2470   -1.3040    0.0000 O   0  0  0  0  0  0  0  0  0  0  0  0
    0.0050   -2.5980    0.0000 C   0  0  0  0  0  0  0  0  0  0  0  0
    1.5050   -2.5950    0.0000 N   0  0  0  0  0  0  0  0  0  0  0  0
    2.2580   -3.8920    0.0000 C   0  0  1  0  0  0  0  0  0  0  0  0
    3.7580   -3.8890    0.0000 C   0  0  0  0  0  0  0  0  0  0  0  0
    4.5110   -5.1870    0.0000 O   0  0  0  0  0  0  0  0  0  0  0  0
    4.5050   -2.5890    0.0000 N   0  0  0  0  0  0  0  0  0  0  0  0
    4.1140   -1.1400    0.0000 C   0  0  0  0  0  0  0  0  0  0  0  0
    5.5620   -0.7490    0.0000 C   0  0  0  0  0  0  0  0  0  0  0  0
    5.9540   -2.1970    0.0000 C   0  0  1  0  0  0  0  0  0  0  0  0
    7.2540   -2.9450    0.0000 C   0  0  0  0  0  0  0  0  0  0  0  0
    7.2570   -4.4450    0.0000 O   0  0  0  0  0  0  0  0  0  0  0  0
    8.5520   -2.1920    0.0000 N   0  0  0  0  0  0  0  0  0  0  0  0
    9.8520   -2.9390    0.0000 C   0  0  0  0  0  0  0  0  0  0  0  0
   11.1500   -2.1860    0.0000 C   0  0  0  0  0  0  0  0  0  0  0  0
   12.4500   -2.9340    0.0000 C   0  0  0  0  0  0  0  0  0  0  0  0
   13.7480   -2.1810    0.0000 C   0  0  0  0  0  0  0  0  0  0  0  0
   13.7450   -0.6810    0.0000 C   0  0  0  0  0  0  0  0  0  0  0  0
   12.4440    0.0660    0.0000 C   0  0  0  0  0  0  0  0  0  0  0  0
   11.1470   -0.6860    0.0000 C   0  0  0  0  0  0  0  0  0  0  0  0
   15.0420    0.0720    0.0000 C   0  0  0  0  0  0  0  0  0  0  0  0
   16.3430   -0.6750    0.0000 N   0  0  0  0  0  0  0  0  0  0  0  0
   17.6400    0.0770    0.0000 O   0  0  0  0  0  0  0  0  0  0  0  0
   15.0390    1.5720    0.0000 N   0  0  0  0  0  0  0  0  0  0  0  0
    1.5110   -5.1930    0.0000 C   0  0  0  0  0  0  0  0  0  0  0  0
    0.0110   -5.1960    0.0000 C   0  0  0  0  0  0  0  0  0  0  0  0
   -0.7360   -6.4970    0.0000 C   0  0  0  0  0  0  0  0  0  0  0  0
    0.0160   -7.7940    0.0000 C   0  0  0  0  0  0  0  0  0  0  0  0
    1.5160   -7.7910    0.0000 C   0  0  0  0  0  0  0  0  0  0  0  0
    2.2640   -6.4900    0.0000 C   0  0  0  0  0  0  0  0  0  0  0  0
   -0.7530    1.2970    0.0000 C   0  0  0  0  0  0  0  0  0  0  0  0
   -0.0050    2.5980    0.0000 C   0  0  0  0  0  0  0  0  0  0  0  0
  1  2  1  0  0  0  0
  1 33  1  0  0  0  0
  2  3  2  0  0  0  0
  2  4  1  0  0  0  0
  4  5  1  0  0  0  0
  6  5  1  1  0  0  0
  6  7  1  0  0  0  0
  6 27  1  0  0  0  0
  7  8  2  0  0  0  0
  7  9  1  0  0  0  0
  9 10  1  0  0  0  0
  9 12  1  0  0  0  0
 10 11  1  0  0  0  0
 11 12  1  0  0  0  0
 12 13  1  1  0  0  0
 13 14  2  0  0  0  0
 13 15  1  0  0  0  0
 15 16  1  0  0  0  0
 16 17  1  0  0  0  0
 17 18  1  0  0  0  0
 17 22  2  0  0  0  0
 18 19  2  0  0  0  0
 19 20  1  0  0  0  0
 20 21  2  0  0  0  0
 20 23  1  0  0  0  0
 21 22  1  0  0  0  0
 23 24  1  0  0  0  0
 23 26  2  0  0  0  0
 24 25  1  0  0  0  0
 27 28  1  0  0  0  0
 27 32  1  0  0  0  0
 28 29  1  0  0  0  0
 29 30  1  0  0  0  0
 30 31  1  0  0  0  0
 31 32  1  0  0  0  0
 33 34  1  0  0  0  0
M  END
>  <Index>
1156

>  <ID>
HT2201

>  <class>
0

>  <apol>
75.087753

>  <ast_fraglike>
0

>  <ast_fraglike_ext>
0

>  <ast_violation>
3

>  <ast_violation_ext>
5

>  <a_acc>
6

>  <a_acid>
0

>  <a_aro>
6

>  <a_base>
0

>  <a_count>
69

>  <a_don>
5

>  <a_donacc>
11

>  <a_heavy>
34

>  <a_hyd>
20

>  <a_IC>
108.7049

>  <a_ICM>
1.5754334

>  <a_nB>
0

>  <a_nBr>
0

>  <a_nC>
24

>  <a_nCl>
0

>  <a_nF>
0

>  <a_nH>
35

>  <a_nI>
0

>  <a_nN>
5

>  <a_nO>
5

>  <a_nP>
0

>  <a_nS>
0

>  <balabanJ>
1.4822462

>  <BCUT_PEOE_0>
-2.8232954

>  <BCUT_PEOE_1>
-0.6430226

>  <BCUT_PEOE_2>
0.67533278

>  <BCUT_PEOE_3>
2.79457

>  <BCUT_SLOGP_0>
-2.9140286

>  <BCUT_SLOGP_1>
-0.55847633

>  <BCUT_SLOGP_2>
0.67978942

>  <BCUT_SLOGP_3>
2.8732097

>  <BCUT_SMR_0>
-2.5701139

>  <BCUT_SMR_1>
-0.50207329

>  <BCUT_SMR_2>
0.81047571

>  <BCUT_SMR_3>
3.0466232

>  <bpol>
45.692245

>  <b_1rotN>
11

>  <b_1rotR>
0.30555555

>  <b_ar>
6

>  <b_count>
71

>  <b_double>
4

>  <b_heavy>
36

>  <b_max1len>
5

>  <b_rotN>
14

>  <b_rotR>
0.3888889

>  <b_single>
61

>  <b_triple>
0

>  <chi0>
24.501425

>  <chi0v>
19.63994

>  <chi0v_C>
15.112519

>  <chi0_C>
16.095648

>  <chi1>
16.439091

>  <chi1v>
11.993603

>  <chi1v_C>
8.1210089

>  <chi1_C>
9.2146749

>  <chiral>
2

>  <chiral_u>
0

>  <density>
0.74345201

>  <diameter>
19

>  <FCharge>
0

>  <GCUT_PEOE_0>
-0.87829238

>  <GCUT_PEOE_1>
-0.42733118

>  <GCUT_PEOE_2>
0.089381501

>  <GCUT_PEOE_3>
2.9138756

>  <GCUT_SLOGP_0>
-1.1677572

>  <GCUT_SLOGP_1>
-0.35728908

>  <GCUT_SLOGP_2>
0.13042817

>  <GCUT_SLOGP_3>
2.9048758

>  <GCUT_SMR_0>
-0.57259166

>  <GCUT_SMR_1>
-0.23941411

>  <GCUT_SMR_2>
0.19601175

>  <GCUT_SMR_3>
3.1454105

>  <Kier1>
28.569445

>  <Kier2>
14.666667

>  <Kier3>
8.2580643

>  <KierA1>
23.008636

>  <KierA2>
11.730072

>  <KierA3>
6.5723934

>  <KierFlex>
7.9380283

>  <lip_acc>
10

>  <lip_don>
5

>  <lip_druglike>
1

>  <lip_violation>
0

>  <logP(o/w)>
2.02

>  <logS>
-4.8811598

>  <mr>
12.806635

>  <mutagenic>
1

>  <nmol>
1

>  <opr_brigid>
17

>  <opr_leadlike>
0

>  <opr_nring>
3

>  <opr_nrot>
13

>  <opr_violation>
3

>  <PC+>
0

>  <PC->
0

>  <PEOE_PC+>
3.4782815

>  <PEOE_PC->
-3.4782815

>  <PEOE_RPC+>
0.079392046

>  <PEOE_RPC->
0.10070305

>  <PEOE_VSA+0>
105.37014

>  <PEOE_VSA+1>
82.474213

>  <PEOE_VSA+2>
11.764974

>  <PEOE_VSA+3>
37.0476

>  <PEOE_VSA+4>
36.223236

>  <PEOE_VSA+5>
14.708499

>  <PEOE_VSA+6>
0

>  <PEOE_VSA-0>
47.060158

>  <PEOE_VSA-1>
75.123558

>  <PEOE_VSA-2>
0

>  <PEOE_VSA-3>
0

>  <PEOE_VSA-4>
0

>  <PEOE_VSA-5>
69.540176

>  <PEOE_VSA-6>
2.6406472

>  <PEOE_VSA_FHYD>
0.74455494

>  <PEOE_VSA_FNEG>
0.40328509

>  <PEOE_VSA_FPNEG>
0.14976729

>  <PEOE_VSA_FPOL>
0.25544506

>  <PEOE_VSA_FPOS>
0.59671491

>  <PEOE_VSA_FPPOS>
0.10567776

>  <PEOE_VSA_HYD>
358.84064

>  <PEOE_VSA_NEG>
194.36453

>  <PEOE_VSA_PNEG>
72.180824

>  <PEOE_VSA_POL>
123.11256

>  <PEOE_VSA_POS>
287.58865

>  <PEOE_VSA_PPOS>
50.931732

>  <petitjean>
0.47368422

>  <petitjeanSC>
0.89999998

>  <Q_PC+>
0

>  <Q_PC->
0

>  <Q_RPC+>
0

>  <Q_RPC->
0

>  <Q_VSA_FHYD>
1

>  <Q_VSA_FNEG>
0

>  <Q_VSA_FPNEG>
0

>  <Q_VSA_FPOL>
0

>  <Q_VSA_FPOS>
1

>  <Q_VSA_FPPOS>
0

>  <Q_VSA_HYD>
481.95319

>  <Q_VSA_NEG>
0

>  <Q_VSA_PNEG>
0

>  <Q_VSA_POL>
0

>  <Q_VSA_POS>
481.95319

>  <Q_VSA_PPOS>
0

>  <radius>
10

>  <reactive>
0

>  <rings>
3

>  <RPC+>
0

>  <RPC->
0

>  <rsynth>
1

>  <SlogP>
1.57587

>  <SlogP_VSA0>
56.646584

>  <SlogP_VSA1>
23.715265

>  <SlogP_VSA2>
116.15458

>  <SlogP_VSA3>
57.805416

>  <SlogP_VSA4>
10.781946

>  <SlogP_VSA5>
0

>  <SlogP_VSA6>
0

>  <SlogP_VSA7>
102.24471

>  <SlogP_VSA8>
113.21043

>  <SlogP_VSA9>
51.765594

>  <SMR>
12.62036

>  <SMR_VSA0>
82.58654

>  <SMR_VSA1>
3.1243138

>  <SMR_VSA2>
118.33345

>  <SMR_VSA3>
14.335087

>  <SMR_VSA4>
0

>  <SMR_VSA5>
202.22275

>  <SMR_VSA6>
78.39637

>  <SMR_VSA7>
33.326015

>  <TPSA>
143.85001

>  <VAdjEq>
0.33644459

>  <VAdjMa>
6.1699252

>  <VDistEq>
3.9699445

>  <VDistMa>
9.870409

>  <vdw_area>
481.95319

>  <vdw_vol>
636.99335

>  <vsa_acc>
40.700764

>  <vsa_acid>
0

>  <vsa_base>
0

>  <vsa_don>
16.567839

>  <vsa_hyd>
290.4751

>  <vsa_other>
54.30188

>  <vsa_pol>
97.659187

>  <Weight>
473.57401

>  <weinerPath>
4012

>  <weinerPol>
50

>  <zagreb>
168

$$$$