ClCCN(N=O)C(=O)NCCCl
  MOE2013           2D

 12 11  0  0  0  0  0  0  0  0999 V2000
    0.0000    0.0000    0.0000 Cl  0  0  0  0  0  0  0  0  0  0  0  0
    1.2970   -0.7540    0.0000 C   0  0  0  0  0  0  0  0  0  0  0  0
    2.5980   -0.0070    0.0000 C   0  0  0  0  0  0  0  0  0  0  0  0
    3.8950   -0.7610    0.0000 N   0  0  0  0  0  0  0  0  0  0  0  0
    3.8910   -2.2610    0.0000 N   0  0  0  0  0  0  0  0  0  0  0  0
    2.5900   -3.0070    0.0000 O   0  0  0  0  0  0  0  0  0  0  0  0
    5.1960   -0.0140    0.0000 C   0  0  0  0  0  0  0  0  0  0  0  0
    5.2000    1.4860    0.0000 O   0  0  0  0  0  0  0  0  0  0  0  0
    6.4930   -0.7680    0.0000 N   0  0  0  0  0  0  0  0  0  0  0  0
    7.7940   -0.0220    0.0000 C   0  0  0  0  0  0  0  0  0  0  0  0
    9.0910   -0.7750    0.0000 C   0  0  0  0  0  0  0  0  0  0  0  0
   10.3920   -0.0290    0.0000 Cl  0  0  0  0  0  0  0  0  0  0  0  0
  1  2  1  0  0  0  0
  2  3  1  0  0  0  0
  3  4  1  0  0  0  0
  4  5  1  0  0  0  0
  4  7  1  0  0  0  0
  5  6  2  0  0  0  0
  7  8  2  0  0  0  0
  7  9  1  0  0  0  0
  9 10  1  0  0  0  0
 10 11  1  0  0  0  0
 11 12  1  0  0  0  0
M  END
>  <Index>
194

>  <ID>
HT0386

>  <class>
0

>  <apol>
24.065138

>  <ast_fraglike>
1

>  <ast_fraglike_ext>
0

>  <ast_violation>
0

>  <ast_violation_ext>
1

>  <a_acc>
3

>  <a_acid>
0

>  <a_aro>
0

>  <a_base>
0

>  <a_count>
21

>  <a_don>
1

>  <a_donacc>
4

>  <a_heavy>
12

>  <a_hyd>
6

>  <a_IC>
43.344814

>  <a_ICM>
2.0640388

>  <a_nB>
0

>  <a_nBr>
0

>  <a_nC>
5

>  <a_nCl>
2

>  <a_nF>
0

>  <a_nH>
9

>  <a_nI>
0

>  <a_nN>
3

>  <a_nO>
2

>  <a_nP>
0

>  <a_nS>
0

>  <balabanJ>
3.6229434

>  <BCUT_PEOE_0>
-2.4764428

>  <BCUT_PEOE_1>
-0.28536436

>  <BCUT_PEOE_2>
0.21403179

>  <BCUT_PEOE_3>
2.4787526

>  <BCUT_SLOGP_0>
-2.6947844

>  <BCUT_SLOGP_1>
-0.072087832

>  <BCUT_SLOGP_2>
0.54099834

>  <BCUT_SLOGP_3>
2.3427665

>  <BCUT_SMR_0>
-2.2175279

>  <BCUT_SMR_1>
-0.040545087

>  <BCUT_SMR_2>
0.50904655

>  <BCUT_SMR_3>
2.7297535

>  <bpol>
13.914863

>  <b_1rotN>
6

>  <b_1rotR>
0.54545456

>  <b_ar>
0

>  <b_count>
20

>  <b_double>
2

>  <b_heavy>
11

>  <b_max1len>
4

>  <b_rotN>
7

>  <b_rotR>
0.63636363

>  <b_single>
18

>  <b_triple>
0

>  <chi0>
9.3973408

>  <chi0v>
7.807138

>  <chi0v_C>
3.3284271

>  <chi0_C>
3.4057775

>  <chi1>
5.7567487

>  <chi1v>
4.3336539

>  <chi1v_C>
1

>  <chi1_C>
1

>  <chiral>
0

>  <chiral_u>
0

>  <density>
0.98228216

>  <diameter>
8

>  <FCharge>
0

>  <GCUT_PEOE_0>
-0.81798124

>  <GCUT_PEOE_1>
-0.37273508

>  <GCUT_PEOE_2>
-0.028454484

>  <GCUT_PEOE_3>
2.0914612

>  <GCUT_SLOGP_0>
-1.1624085

>  <GCUT_SLOGP_1>
-0.25835532

>  <GCUT_SLOGP_2>
0.24268852

>  <GCUT_SLOGP_3>
2.028626

>  <GCUT_SMR_0>
-0.50046003

>  <GCUT_SMR_1>
-0.10790011

>  <GCUT_SMR_2>
0.23759143

>  <GCUT_SMR_3>
2.3331223

>  <Kier1>
12

>  <Kier2>
7.6388888

>  <Kier3>
5.3254437

>  <KierA1>
11.784193

>  <KierA2>
7.488255

>  <KierA3>
5.2131882

>  <KierFlex>
7.3535872

>  <lip_acc>
5

>  <lip_don>
1

>  <lip_druglike>
1

>  <lip_violation>
0

>  <logP(o/w)>
0.87099999

>  <logS>
-1.56824

>  <mr>
4.6658564

>  <mutagenic>
1

>  <nmol>
1

>  <opr_brigid>
0

>  <opr_leadlike>
1

>  <opr_nring>
0

>  <opr_nrot>
5

>  <opr_violation>
0

>  <PC+>
0

>  <PC->
0

>  <PEOE_PC+>
1.1293453

>  <PEOE_PC->
-1.1293453

>  <PEOE_RPC+>
0.30223072

>  <PEOE_RPC->
0.29703701

>  <PEOE_VSA+0>
60.809681

>  <PEOE_VSA+1>
36.346821

>  <PEOE_VSA+2>
0

>  <PEOE_VSA+3>
8.6190128

>  <PEOE_VSA+4>
0

>  <PEOE_VSA+5>
0

>  <PEOE_VSA+6>
17.440542

>  <PEOE_VSA-0>
0

>  <PEOE_VSA-1>
0

>  <PEOE_VSA-2>
76.129417

>  <PEOE_VSA-3>
0

>  <PEOE_VSA-4>
13.566921

>  <PEOE_VSA-5>
0

>  <PEOE_VSA-6>
0.13689101

>  <PEOE_VSA_FHYD>
0.85381621

>  <PEOE_VSA_FNEG>
0.42165467

>  <PEOE_VSA_FPNEG>
0.064322263

>  <PEOE_VSA_FPOL>
0.1461838

>  <PEOE_VSA_FPOS>
0.5783453

>  <PEOE_VSA_FPPOS>
0.081861541

>  <PEOE_VSA_HYD>
181.90494

>  <PEOE_VSA_NEG>
89.833229

>  <PEOE_VSA_PNEG>
13.703812

>  <PEOE_VSA_POL>
31.144354

>  <PEOE_VSA_POS>
123.21606

>  <PEOE_VSA_PPOS>
17.440542

>  <petitjean>
0.5

>  <petitjeanSC>
1

>  <Q_PC+>
0

>  <Q_PC->
0

>  <Q_RPC+>
0

>  <Q_RPC->
0

>  <Q_VSA_FHYD>
1

>  <Q_VSA_FNEG>
0

>  <Q_VSA_FPNEG>
0

>  <Q_VSA_FPOL>
0

>  <Q_VSA_FPOS>
1

>  <Q_VSA_FPPOS>
0

>  <Q_VSA_HYD>
213.04929

>  <Q_VSA_NEG>
0

>  <Q_VSA_PNEG>
0

>  <Q_VSA_POL>
0

>  <Q_VSA_POS>
213.04929

>  <Q_VSA_PPOS>
0

>  <radius>
4

>  <reactive>
1

>  <rings>
0

>  <RPC+>
0

>  <RPC->
0

>  <rsynth>
1

>  <SlogP>
1.1569999

>  <SlogP_VSA0>
18.01075

>  <SlogP_VSA1>
7.831748

>  <SlogP_VSA2>
0

>  <SlogP_VSA3>
99.344902

>  <SlogP_VSA4>
0

>  <SlogP_VSA5>
19.702038

>  <SlogP_VSA6>
0

>  <SlogP_VSA7>
0

>  <SlogP_VSA8>
0

>  <SlogP_VSA9>
102.15951

>  <SMR>
4.7339702

>  <SMR_VSA0>
23.862217

>  <SMR_VSA1>
22.703829

>  <SMR_VSA2>
42.109619

>  <SMR_VSA3>
0

>  <SMR_VSA4>
0

>  <SMR_VSA5>
0

>  <SMR_VSA6>
80.075989

>  <SMR_VSA7>
78.297287

>  <TPSA>
61.77

>  <VAdjEq>
0.61674827

>  <VAdjMa>
4.4594316

>  <VDistEq>
2.755115

>  <VDistMa>
6.8431716

>  <vdw_area>
213.04929

>  <vdw_vol>
217.91295

>  <vsa_acc>
45.15617

>  <vsa_acid>
0

>  <vsa_base>
0

>  <vsa_don>
5.6825762

>  <vsa_hyd>
136.0023

>  <vsa_other>
17.440542

>  <vsa_pol>
50.838745

>  <Weight>
214.052

>  <weinerPath>
226

>  <weinerPol>
13

>  <zagreb>
46

$$$$