OC1(CCC2C3C(CCC12C)C1(C(=CC(=O)CC1)C=C3)C)CCC(O)=O
  MOE2013           2D

 26 29  0  0  1  0  0  0  0  0999 V2000
    0.0000    0.0000    0.0000 O   0  0  0  0  0  0  0  0  0  0  0  0
   -0.4140    1.4420    0.0000 C   0  0  3  0  0  0  0  0  0  0  0  0
   -0.1800    2.9230    0.0000 C   0  0  0  0  0  0  0  0  0  0  0  0
   -1.5160    3.6040    0.0000 C   0  0  0  0  0  0  0  0  0  0  0  0
   -2.5770    2.5430    0.0000 C   0  0  3  0  0  0  0  0  0  0  0  0
   -4.0750    2.6210    0.0000 C   0  0  3  0  0  0  0  0  0  0  0  0
   -4.8910    1.3630    0.0000 C   0  0  3  0  0  0  0  0  0  0  0  0
   -4.2100    0.0270    0.0000 C   0  0  0  0  0  0  0  0  0  0  0  0
   -2.7120   -0.0510    0.0000 C   0  0  0  0  0  0  0  0  0  0  0  0
   -1.8950    1.2070    0.0000 C   0  0  3  0  0  0  0  0  0  0  0  0
   -1.1000   -0.0650    0.0000 C   0  0  0  0  0  0  0  0  0  0  0  0
   -6.3890    1.4410    0.0000 C   0  0  3  0  0  0  0  0  0  0  0  0
   -7.0700    2.7780    0.0000 C   0  0  0  0  0  0  0  0  0  0  0  0
   -8.5680    2.8560    0.0000 C   0  0  0  0  0  0  0  0  0  0  0  0
   -9.3850    1.5970    0.0000 C   0  0  0  0  0  0  0  0  0  0  0  0
  -10.8830    1.6760    0.0000 O   0  0  0  0  0  0  0  0  0  0  0  0
   -8.7040    0.2610    0.0000 C   0  0  0  0  0  0  0  0  0  0  0  0
   -7.2060    0.1830    0.0000 C   0  0  0  0  0  0  0  0  0  0  0  0
   -6.2540    4.0360    0.0000 C   0  0  0  0  0  0  0  0  0  0  0  0
   -4.7560    3.9580    0.0000 C   0  0  0  0  0  0  0  0  0  0  0  0
   -5.7080    0.1050    0.0000 C   0  0  0  0  0  0  0  0  0  0  0  0
    1.0530    1.1300    0.0000 C   0  0  0  0  0  0  0  0  0  0  0  0
    2.0570    2.2450    0.0000 C   0  0  0  0  0  0  0  0  0  0  0  0
    3.5240    1.9340    0.0000 C   0  0  0  0  0  0  0  0  0  0  0  0
    3.9880    0.5070    0.0000 O   0  0  0  0  0  0  0  0  0  0  0  0
    4.5280    3.0490    0.0000 O   0  0  0  0  0  0  0  0  0  0  0  0
  1  2  1  0  0  0  0
  2  3  1  0  0  0  0
  2 10  1  0  0  0  0
  2 22  1  0  0  0  0
  3  4  1  0  0  0  0
  4  5  1  0  0  0  0
  5  6  1  0  0  0  0
  5 10  1  0  0  0  0
  6  7  1  0  0  0  0
  6 20  1  0  0  0  0
  7  8  1  0  0  0  0
  7 12  1  0  0  0  0
  8  9  1  0  0  0  0
  9 10  1  0  0  0  0
 10 11  1  0  0  0  0
 12 13  1  0  0  0  0
 12 18  1  0  0  0  0
 12 21  1  0  0  0  0
 13 14  2  0  0  0  0
 13 19  1  0  0  0  0
 14 15  1  0  0  0  0
 15 16  2  0  0  0  0
 15 17  1  0  0  0  0
 17 18  1  0  0  0  0
 19 20  2  0  0  0  0
 22 23  1  0  0  0  0
 23 24  1  0  0  0  0
 24 25  1  0  0  0  0
 24 26  2  0  0  0  0
M  END
>  <Index>
1356

>  <ID>
HT3632

>  <class>
0

>  <apol>
61.931789

>  <ast_fraglike>
0

>  <ast_fraglike_ext>
0

>  <ast_violation>
3

>  <ast_violation_ext>
3

>  <a_acc>
4

>  <a_acid>
0

>  <a_aro>
0

>  <a_base>
0

>  <a_count>
56

>  <a_don>
3

>  <a_donacc>
7

>  <a_heavy>
26

>  <a_hyd>
20

>  <a_IC>
71.897659

>  <a_ICM>
1.2838868

>  <a_nB>
0

>  <a_nBr>
0

>  <a_nC>
22

>  <a_nCl>
0

>  <a_nF>
0

>  <a_nH>
30

>  <a_nI>
0

>  <a_nN>
0

>  <a_nO>
4

>  <a_nP>
0

>  <a_nS>
0

>  <balabanJ>
1.5620033

>  <BCUT_PEOE_0>
-2.9109523

>  <BCUT_PEOE_1>
-0.50115442

>  <BCUT_PEOE_2>
0.4372125

>  <BCUT_PEOE_3>
2.9558995

>  <BCUT_SLOGP_0>
-2.8458488

>  <BCUT_SLOGP_1>
-0.45835423

>  <BCUT_SLOGP_2>
0.44037965

>  <BCUT_SLOGP_3>
3.0198305

>  <BCUT_SMR_0>
-2.6569123

>  <BCUT_SMR_1>
-0.31675434

>  <BCUT_SMR_2>
0.60498619

>  <BCUT_SMR_3>
3.2057512

>  <bpol>
34.712212

>  <b_1rotN>
3

>  <b_1rotR>
0.10344828

>  <b_ar>
0

>  <b_count>
59

>  <b_double>
4

>  <b_heavy>
29

>  <b_max1len>
5

>  <b_rotN>
3

>  <b_rotR>
0.10344828

>  <b_single>
55

>  <b_triple>
0

>  <chi0>
18.742277

>  <chi0v>
15.83188

>  <chi0v_C>
14.120955

>  <chi0_C>
14.742276

>  <chi1>
12.194942

>  <chi1v>
10.069988

>  <chi1v_C>
9.2145262

>  <chi1_C>
9.9628916

>  <chiral>
6

>  <chiral_u>
6

>  <density>
0.71218103

>  <diameter>
13

>  <FCharge>
0

>  <GCUT_PEOE_0>
-0.80233186

>  <GCUT_PEOE_1>
-0.42548439

>  <GCUT_PEOE_2>
0.020196745

>  <GCUT_PEOE_3>
3.3063452

>  <GCUT_SLOGP_0>
-0.88633239

>  <GCUT_SLOGP_1>
-0.33247849

>  <GCUT_SLOGP_2>
0.030457275

>  <GCUT_SLOGP_3>
3.3844001

>  <GCUT_SMR_0>
-0.53895837

>  <GCUT_SMR_1>
-0.22085737

>  <GCUT_SMR_2>
0.17425449

>  <GCUT_SMR_3>
3.5359066

>  <Kier1>
19.322235

>  <Kier2>
6.5187869

>  <Kier3>
2.865052

>  <KierA1>
16.870308

>  <KierA2>
5.6591425

>  <KierA3>
2.4770885

>  <KierFlex>
3.6719801

>  <lip_acc>
4

>  <lip_don>
2

>  <lip_druglike>
1

>  <lip_violation>
0

>  <logP(o/w)>
2.9749999

>  <logS>
-4.01898

>  <mr>
9.8927898

>  <mutagenic>
0

>  <nmol>
1

>  <opr_brigid>
20

>  <opr_leadlike>
1

>  <opr_nring>
4

>  <opr_nrot>
3

>  <opr_violation>
0

>  <PC+>
0

>  <PC->
0

>  <PEOE_PC+>
1.8678085

>  <PEOE_PC->
-1.8678085

>  <PEOE_RPC+>
0.13902988

>  <PEOE_RPC->
0.20773673

>  <PEOE_VSA+0>
124.03728

>  <PEOE_VSA+1>
12.796158

>  <PEOE_VSA+2>
0

>  <PEOE_VSA+3>
8.458519

>  <PEOE_VSA+4>
20.648346

>  <PEOE_VSA+5>
14.708499

>  <PEOE_VSA+6>
0

>  <PEOE_VSA-0>
66.671326

>  <PEOE_VSA-1>
62.005161

>  <PEOE_VSA-2>
0

>  <PEOE_VSA-3>
0

>  <PEOE_VSA-4>
0

>  <PEOE_VSA-5>
27.133842

>  <PEOE_VSA-6>
15.535081

>  <PEOE_VSA_FHYD>
0.77833223

>  <PEOE_VSA_FNEG>
0.48678473

>  <PEOE_VSA_FPNEG>
0.12122052

>  <PEOE_VSA_FPOL>
0.22166775

>  <PEOE_VSA_FPOS>
0.51321524

>  <PEOE_VSA_FPPOS>
0.10044724

>  <PEOE_VSA_HYD>
273.96844

>  <PEOE_VSA_NEG>
171.34541

>  <PEOE_VSA_PNEG>
42.668922

>  <PEOE_VSA_POL>
78.025764

>  <PEOE_VSA_POS>
180.6488

>  <PEOE_VSA_PPOS>
35.356846

>  <petitjean>
0.46153846

>  <petitjeanSC>
0.85714287

>  <Q_PC+>
0

>  <Q_PC->
0

>  <Q_RPC+>
0

>  <Q_RPC->
0

>  <Q_VSA_FHYD>
1

>  <Q_VSA_FNEG>
0

>  <Q_VSA_FPNEG>
0

>  <Q_VSA_FPOL>
0

>  <Q_VSA_FPOS>
1

>  <Q_VSA_FPPOS>
0

>  <Q_VSA_HYD>
351.9942

>  <Q_VSA_NEG>
0

>  <Q_VSA_PNEG>
0

>  <Q_VSA_POL>
0

>  <Q_VSA_POS>
351.9942

>  <Q_VSA_PPOS>
0

>  <radius>
7

>  <reactive>
1

>  <rings>
4

>  <RPC+>
0

>  <RPC->
0

>  <rsynth>
0

>  <SlogP>
3.8901999

>  <SlogP_VSA0>
25.385227

>  <SlogP_VSA1>
13.433075

>  <SlogP_VSA2>
47.724434

>  <SlogP_VSA3>
25.385227

>  <SlogP_VSA4>
13.232388

>  <SlogP_VSA5>
3.185575

>  <SlogP_VSA6>
0

>  <SlogP_VSA7>
52.929554

>  <SlogP_VSA8>
150.94725

>  <SlogP_VSA9>
66.652031

>  <SMR>
9.8435602

>  <SMR_VSA0>
47.724434

>  <SMR_VSA1>
25.385227

>  <SMR_VSA2>
38.617615

>  <SMR_VSA3>
3.185575

>  <SMR_VSA4>
0

>  <SMR_VSA5>
203.8768

>  <SMR_VSA6>
13.433075

>  <SMR_VSA7>
66.652031

>  <TPSA>
74.599998

>  <VAdjEq>
0.42228913

>  <VAdjMa>
5.8579812

>  <VDistEq>
3.3253443

>  <VDistMa>
9.107585

>  <vdw_area>
351.9942

>  <vdw_vol>
503.35233

>  <vsa_acc>
13.566921

>  <vsa_acid>
0

>  <vsa_base>
0

>  <vsa_don>
0

>  <vsa_hyd>
241.54449

>  <vsa_other>
23.167019

>  <vsa_pol>
54.267685

>  <Weight>
358.478

>  <weinerPath>
1534

>  <weinerPol>
54

>  <zagreb>
152

$$$$