Fc1cc2c(NC(=O)/C/2=Cc2[nH]c(C)c(C(=O)NCCN(CC)CC)c2C)cc1
  MOE2013           2D

 29 31  0  0  0  0  0  0  0  0999 V2000
    0.0000    0.0000    0.0000 F   0  0  0  0  0  0  0  0  0  0  0  0
    0.7450   -1.3020    0.0000 C   0  0  0  0  0  0  0  0  0  0  0  0
    2.2450   -1.3070    0.0000 C   0  0  0  0  0  0  0  0  0  0  0  0
    2.9910   -2.6090    0.0000 C   0  0  0  0  0  0  0  0  0  0  0  0
    2.2360   -3.9050    0.0000 C   0  0  0  0  0  0  0  0  0  0  0  0
    3.2360   -5.0230    0.0000 N   0  0  0  0  0  0  0  0  0  0  0  0
    4.6090   -4.4180    0.0000 C   0  0  0  0  0  0  0  0  0  0  0  0
    5.9050   -5.1720    0.0000 O   0  0  0  0  0  0  0  0  0  0  0  0
    4.4570   -2.9260    0.0000 C   0  0  0  0  0  0  0  0  0  0  0  0
    5.5750   -1.9260    0.0000 C   0  0  0  0  0  0  0  0  0  0  0  0
    7.0000   -2.3940    0.0000 C   0  0  0  0  0  0  0  0  0  0  0  0
    7.4590   -3.8220    0.0000 N   0  0  0  0  0  0  0  0  0  0  0  0
    8.9590   -3.8280    0.0000 C   0  0  0  0  0  0  0  0  0  0  0  0
    9.8360   -5.0440    0.0000 C   0  0  0  0  0  0  0  0  0  0  0  0
    9.4270   -2.4030    0.0000 C   0  0  0  0  0  0  0  0  0  0  0  0
   10.8550   -1.9440    0.0000 C   0  0  0  0  0  0  0  0  0  0  0  0
   11.9670   -2.9520    0.0000 O   0  0  0  0  0  0  0  0  0  0  0  0
   11.1720   -0.4780    0.0000 N   0  0  0  0  0  0  0  0  0  0  0  0
   12.6010   -0.0190    0.0000 C   0  0  0  0  0  0  0  0  0  0  0  0
   12.9180    1.4470    0.0000 C   0  0  0  0  0  0  0  0  0  0  0  0
   14.3460    1.9050    0.0000 N   0  0  0  0  0  0  0  0  0  0  0  0
   15.4570    0.8980    0.0000 C   0  0  0  0  0  0  0  0  0  0  0  0
   16.8850    1.3560    0.0000 C   0  0  0  0  0  0  0  0  0  0  0  0
   14.6630    3.3710    0.0000 C   0  0  0  0  0  0  0  0  0  0  0  0
   13.5520    4.3790    0.0000 C   0  0  0  0  0  0  0  0  0  0  0  0
    8.2170   -1.5170    0.0000 C   0  0  0  0  0  0  0  0  0  0  0  0
    8.2220   -0.0170    0.0000 C   0  0  0  0  0  0  0  0  0  0  0  0
    0.7360   -3.9000    0.0000 C   0  0  0  0  0  0  0  0  0  0  0  0
   -0.0090   -2.5980    0.0000 C   0  0  0  0  0  0  0  0  0  0  0  0
  1  2  1  0  0  0  0
  2  3  1  0  0  0  0
  2 29  2  0  0  0  0
  3  4  2  0  0  0  0
  4  5  1  0  0  0  0
  4  9  1  0  0  0  0
  5  6  1  0  0  0  0
  5 28  2  0  0  0  0
  6  7  1  0  0  0  0
  7  8  2  0  0  0  0
  7  9  1  0  0  0  0
  9 10  2  3  0  0  0
 10 11  1  0  0  0  0
 11 12  1  0  0  0  0
 11 26  2  0  0  0  0
 12 13  1  0  0  0  0
 13 14  1  0  0  0  0
 13 15  2  0  0  0  0
 15 16  1  0  0  0  0
 15 26  1  0  0  0  0
 16 17  2  0  0  0  0
 16 18  1  0  0  0  0
 18 19  1  0  0  0  0
 19 20  1  0  0  0  0
 20 21  1  0  0  0  0
 21 22  1  0  0  0  0
 21 24  1  0  0  0  0
 22 23  1  0  0  0  0
 24 25  1  0  0  0  0
 26 27  1  0  0  0  0
 28 29  1  0  0  0  0
M  END
>  <Index>
1028

>  <ID>
HT1966

>  <class>
0

>  <apol>
63.284412

>  <ast_fraglike>
0

>  <ast_fraglike_ext>
0

>  <ast_violation>
2

>  <ast_violation_ext>
3

>  <a_acc>
3

>  <a_acid>
0

>  <a_aro>
11

>  <a_base>
0

>  <a_count>
56

>  <a_don>
3

>  <a_donacc>
6

>  <a_heavy>
29

>  <a_hyd>
21

>  <a_IC>
88.72242

>  <a_ICM>
1.5843289

>  <a_nB>
0

>  <a_nBr>
0

>  <a_nC>
22

>  <a_nCl>
0

>  <a_nF>
1

>  <a_nH>
27

>  <a_nI>
0

>  <a_nN>
4

>  <a_nO>
2

>  <a_nP>
0

>  <a_nS>
0

>  <balabanJ>
1.5433013

>  <BCUT_PEOE_0>
-2.681778

>  <BCUT_PEOE_1>
-0.48516566

>  <BCUT_PEOE_2>
0.49014807

>  <BCUT_PEOE_3>
2.5754809

>  <BCUT_SLOGP_0>
-2.7913547

>  <BCUT_SLOGP_1>
-0.35873443

>  <BCUT_SLOGP_2>
0.56929249

>  <BCUT_SLOGP_3>
2.5205898

>  <BCUT_SMR_0>
-2.3993621

>  <BCUT_SMR_1>
-0.26473621

>  <BCUT_SMR_2>
0.68735892

>  <BCUT_SMR_3>
2.8499737

>  <bpol>
36.595589

>  <b_1rotN>
7

>  <b_1rotR>
0.22580644

>  <b_ar>
11

>  <b_count>
58

>  <b_double>
3

>  <b_heavy>
31

>  <b_max1len>
7

>  <b_rotN>
8

>  <b_rotR>
0.25806451

>  <b_single>
44

>  <b_triple>
0

>  <chi0>
21.129028

>  <chi0v>
17.279503

>  <chi0v_C>
14.137828

>  <chi0_C>
15.430357

>  <chi1>
13.849774

>  <chi1v>
9.8790646

>  <chi1v_C>
6.7295976

>  <chi1_C>
8.351737

>  <chiral>
0

>  <chiral_u>
0

>  <density>
0.72914791

>  <diameter>
15

>  <FCharge>
0

>  <GCUT_PEOE_0>
-0.85954738

>  <GCUT_PEOE_1>
-0.39910302

>  <GCUT_PEOE_2>
0.010490202

>  <GCUT_PEOE_3>
2.6894245

>  <GCUT_SLOGP_0>
-1.1614857

>  <GCUT_SLOGP_1>
-0.27644539

>  <GCUT_SLOGP_2>
0.12266264

>  <GCUT_SLOGP_3>
2.7318184

>  <GCUT_SMR_0>
-0.52169383

>  <GCUT_SMR_1>
-0.1759772

>  <GCUT_SMR_2>
0.15979221

>  <GCUT_SMR_3>
2.9712179

>  <Kier1>
23.658689

>  <Kier2>
10.543388

>  <Kier3>
5.4375181

>  <KierA1>
17.458506

>  <KierA2>
7.6895647

>  <KierA3>
3.9314985

>  <KierFlex>
4.629252

>  <lip_acc>
6

>  <lip_don>
3

>  <lip_druglike>
1

>  <lip_violation>
0

>  <logP(o/w)>
2.734

>  <logS>
-4.0560999

>  <mr>
11.173675

>  <mutagenic>
0

>  <nmol>
1

>  <opr_brigid>
16

>  <opr_leadlike>
1

>  <opr_nring>
3

>  <opr_nrot>
7

>  <opr_violation>
0

>  <PC+>
0

>  <PC->
0

>  <PEOE_PC+>
2.3590207

>  <PEOE_PC->
-2.3590207

>  <PEOE_RPC+>
0.10895856

>  <PEOE_RPC->
0.15165101

>  <PEOE_VSA+0>
127.30001

>  <PEOE_VSA+1>
28.178175

>  <PEOE_VSA+2>
9.0208454

>  <PEOE_VSA+3>
25.857038

>  <PEOE_VSA+4>
0

>  <PEOE_VSA+5>
25.899061

>  <PEOE_VSA+6>
0

>  <PEOE_VSA-0>
115.10816

>  <PEOE_VSA-1>
37.495354

>  <PEOE_VSA-2>
0

>  <PEOE_VSA-3>
0

>  <PEOE_VSA-4>
11.908636

>  <PEOE_VSA-5>
27.133842

>  <PEOE_VSA-6>
0.41067299

>  <PEOE_VSA_FHYD>
0.83994532

>  <PEOE_VSA_FNEG>
0.47036767

>  <PEOE_VSA_FPNEG>
0.096625052

>  <PEOE_VSA_FPOL>
0.16005467

>  <PEOE_VSA_FPOS>
0.52963233

>  <PEOE_VSA_FPPOS>
0.063429616

>  <PEOE_VSA_HYD>
342.95959

>  <PEOE_VSA_NEG>
192.05667

>  <PEOE_VSA_PNEG>
39.453152

>  <PEOE_VSA_POL>
65.352211

>  <PEOE_VSA_POS>
216.25513

>  <PEOE_VSA_PPOS>
25.899061

>  <petitjean>
0.46666667

>  <petitjeanSC>
0.875

>  <Q_PC+>
0

>  <Q_PC->
0

>  <Q_RPC+>
0

>  <Q_RPC->
0

>  <Q_VSA_FHYD>
1

>  <Q_VSA_FNEG>
0

>  <Q_VSA_FPNEG>
0

>  <Q_VSA_FPOL>
0

>  <Q_VSA_FPOS>
1

>  <Q_VSA_FPPOS>
0

>  <Q_VSA_HYD>
408.3118

>  <Q_VSA_NEG>
0

>  <Q_VSA_PNEG>
0

>  <Q_VSA_POL>
0

>  <Q_VSA_POS>
408.3118

>  <Q_VSA_PPOS>
0

>  <radius>
8

>  <reactive>
0

>  <rings>
3

>  <RPC+>
0

>  <RPC->
0

>  <rsynth>
1

>  <SlogP>
3.33494

>  <SlogP_VSA0>
18.01075

>  <SlogP_VSA1>
31.652632

>  <SlogP_VSA2>
49.768764

>  <SlogP_VSA3>
73.758316

>  <SlogP_VSA4>
38.932438

>  <SlogP_VSA5>
0

>  <SlogP_VSA6>
0

>  <SlogP_VSA7>
56.115128

>  <SlogP_VSA8>
17.643185

>  <SlogP_VSA9>
151.02092

>  <SMR>
11.32886

>  <SMR_VSA0>
47.724434

>  <SMR_VSA1>
18.084427

>  <SMR_VSA2>
43.917297

>  <SMR_VSA3>
15.07022

>  <SMR_VSA4>
23.953074

>  <SMR_VSA5>
52.929554

>  <SMR_VSA6>
101.91907

>  <SMR_VSA7>
133.30406

>  <TPSA>
77.230003

>  <VAdjEq>
0.3796615

>  <VAdjMa>
5.9541965

>  <VDistEq>
3.702301

>  <VDistMa>
9.4062195

>  <vdw_area>
408.3118

>  <vdw_vol>
546.50366

>  <vsa_acc>
27.133842

>  <vsa_acid>
0

>  <vsa_base>
0

>  <vsa_don>
17.047728

>  <vsa_hyd>
311.9281

>  <vsa_other>
25.899061

>  <vsa_pol>
44.181568

>  <Weight>
398.48199

>  <weinerPath>
2452

>  <weinerPol>
46

>  <zagreb>
150

$$$$