O1[C@H](C)[C@H](C)[C@H](O)[C@@H](C)C(=O)[C@]2(OC2)C[C@H](C)[C@H](O[C@@H]2O[C@@H](C[C@H](N(C)C)[C@H]2O)C)[C@@H](C)[C@H](O[C@@H]2O[C@@H](C)[C@H](O)[C@@H](OC)C2)[C@H](C)C1=O
  MOE2013           2D

 48 51  0  0  1  0  0  0  0  0999 V2000
    0.0000    0.0000    0.0000 O   0  0  0  0  0  0  0  0  0  0  0  0
   -0.9940   -0.9400    0.0000 C   0  0  2  0  0  0  0  0  0  0  0  0
   -2.2570   -0.1320    0.0000 C   0  0  0  0  0  0  0  0  0  0  0  0
   -1.4190   -2.2040    0.0000 C   0  0  2  0  0  0  0  0  0  0  0  0
   -2.9140   -2.0800    0.0000 C   0  0  0  0  0  0  0  0  0  0  0  0
   -1.2030   -3.5530    0.0000 C   0  0  2  0  0  0  0  0  0  0  0  0
   -2.5160   -4.2790    0.0000 O   0  0  0  0  0  0  0  0  0  0  0  0
   -0.1400   -4.4840    0.0000 C   0  0  1  0  0  0  0  0  0  0  0  0
   -0.5290   -5.9330    0.0000 C   0  0  0  0  0  0  0  0  0  0  0  0
    1.3270   -4.1960    0.0000 C   0  0  0  0  0  0  0  0  0  0  0  0
    0.8410   -5.6150    0.0000 O   0  0  0  0  0  0  0  0  0  0  0  0
    2.3090   -5.3220    0.0000 C   0  0  1  0  0  0  0  0  0  0  0  0
    1.2910   -6.4250    0.0000 O   0  0  0  0  0  0  0  0  0  0  0  0
    2.7550   -6.7540    0.0000 C   0  0  0  0  0  0  0  0  0  0  0  0
    3.7200   -5.2380    0.0000 C   0  0  0  0  0  0  0  0  0  0  0  0
    4.7140   -4.2990    0.0000 C   0  0  2  0  0  0  0  0  0  0  0  0
    5.9780   -5.1070    0.0000 C   0  0  0  0  0  0  0  0  0  0  0  0
    5.1400   -3.0340    0.0000 C   0  0  2  0  0  0  0  0  0  0  0  0
    6.6340   -3.1580    0.0000 O   0  0  0  0  0  0  0  0  0  0  0  0
    7.2740   -4.5150    0.0000 C   0  0  2  0  0  0  0  0  0  0  0  0
    6.4190   -5.7480    0.0000 O   0  0  0  0  0  0  0  0  0  0  0  0
    7.0590   -7.1040    0.0000 C   0  0  1  0  0  0  0  0  0  0  0  0
    8.5540   -7.2280    0.0000 C   0  0  0  0  0  0  0  0  0  0  0  0
    9.4090   -5.9960    0.0000 C   0  0  2  0  0  0  0  0  0  0  0  0
   10.9040   -6.1200    0.0000 N   0  0  0  0  0  0  0  0  0  0  0  0
   11.7590   -4.8880    0.0000 C   0  0  0  0  0  0  0  0  0  0  0  0
   11.5440   -7.4770    0.0000 C   0  0  0  0  0  0  0  0  0  0  0  0
    8.7690   -4.6390    0.0000 C   0  0  1  0  0  0  0  0  0  0  0  0
    9.6240   -3.4070    0.0000 O   0  0  0  0  0  0  0  0  0  0  0  0
    6.2040   -8.3370    0.0000 C   0  0  0  0  0  0  0  0  0  0  0  0
    4.9230   -1.6850    0.0000 C   0  0  1  0  0  0  0  0  0  0  0  0
    6.2360   -0.9590    0.0000 C   0  0  0  0  0  0  0  0  0  0  0  0
    3.8600   -0.7540    0.0000 C   0  0  2  0  0  0  0  0  0  0  0  0
    4.2490    0.6940    0.0000 O   0  0  0  0  0  0  0  0  0  0  0  0
    5.6990    1.0810    0.0000 C   0  0  2  0  0  0  0  0  0  0  0  0
    6.7580    0.0200    0.0000 O   0  0  0  0  0  0  0  0  0  0  0  0
    8.2080    0.4070    0.0000 C   0  0  1  0  0  0  0  0  0  0  0  0
    9.2670   -0.6550    0.0000 C   0  0  0  0  0  0  0  0  0  0  0  0
    8.5970    1.8550    0.0000 C   0  0  2  0  0  0  0  0  0  0  0  0
   10.0460    2.2420    0.0000 O   0  0  0  0  0  0  0  0  0  0  0  0
    7.5370    2.9170    0.0000 C   0  0  1  0  0  0  0  0  0  0  0  0
    7.9270    4.3650    0.0000 O   0  0  0  0  0  0  0  0  0  0  0  0
    6.8670    5.4270    0.0000 C   0  0  0  0  0  0  0  0  0  0  0  0
    6.0880    2.5300    0.0000 C   0  0  0  0  0  0  0  0  0  0  0  0
    2.3940   -1.0420    0.0000 C   0  0  2  0  0  0  0  0  0  0  0  0
    2.8800    0.3770    0.0000 C   0  0  0  0  0  0  0  0  0  0  0  0
    1.4120    0.0840    0.0000 C   0  0  0  0  0  0  0  0  0  0  0  0
    1.9920    1.4670    0.0000 O   0  0  0  0  0  0  0  0  0  0  0  0
  1  2  1  0  0  0  0
  1 47  1  0  0  0  0
  2  3  1  1  0  0  0
  2  4  1  0  0  0  0
  4  5  1  1  0  0  0
  4  6  1  0  0  0  0
  6  7  1  1  0  0  0
  6  8  1  0  0  0  0
  8  9  1  6  0  0  0
  8 10  1  0  0  0  0
 10 11  2  0  0  0  0
 10 12  1  0  0  0  0
 12 13  1  1  0  0  0
 12 14  1  6  0  0  0
 12 15  1  0  0  0  0
 13 14  1  0  0  0  0
 15 16  1  0  0  0  0
 16 17  1  1  0  0  0
 16 18  1  0  0  0  0
 18 19  1  1  0  0  0
 18 31  1  0  0  0  0
 20 19  1  1  0  0  0
 20 21  1  0  0  0  0
 20 28  1  0  0  0  0
 21 22  1  0  0  0  0
 22 23  1  0  0  0  0
 22 30  1  1  0  0  0
 23 24  1  0  0  0  0
 24 25  1  1  0  0  0
 24 28  1  0  0  0  0
 25 26  1  0  0  0  0
 25 27  1  0  0  0  0
 28 29  1  6  0  0  0
 31 32  1  6  0  0  0
 31 33  1  0  0  0  0
 33 34  1  1  0  0  0
 33 45  1  0  0  0  0
 35 34  1  1  0  0  0
 35 36  1  0  0  0  0
 35 44  1  0  0  0  0
 36 37  1  0  0  0  0
 37 38  1  6  0  0  0
 37 39  1  0  0  0  0
 39 40  1  1  0  0  0
 39 41  1  0  0  0  0
 41 42  1  6  0  0  0
 41 44  1  0  0  0  0
 42 43  1  0  0  0  0
 45 46  1  1  0  0  0
 45 47  1  0  0  0  0
 47 48  2  0  0  0  0
M  END
>  <Index>
1410

>  <ID>
HT3989

>  <class>
0

>  <apol>
112.99837

>  <ast_fraglike>
0

>  <ast_fraglike_ext>
0

>  <ast_violation>
2

>  <ast_violation_ext>
4

>  <a_acc>
12

>  <a_acid>
0

>  <a_aro>
0

>  <a_base>
0

>  <a_count>
109

>  <a_don>
3

>  <a_donacc>
15

>  <a_heavy>
48

>  <a_hyd>
31

>  <a_IC>
153.41266

>  <a_ICM>
1.4074556

>  <a_nB>
0

>  <a_nBr>
0

>  <a_nC>
35

>  <a_nCl>
0

>  <a_nF>
0

>  <a_nH>
61

>  <a_nI>
0

>  <a_nN>
1

>  <a_nO>
12

>  <a_nP>
0

>  <a_nS>
0

>  <balabanJ>
1.7378597

>  <BCUT_PEOE_0>
-2.8090861

>  <BCUT_PEOE_1>
-0.43434402

>  <BCUT_PEOE_2>
0.47034407

>  <BCUT_PEOE_3>
2.8611119

>  <BCUT_SLOGP_0>
-2.8998899

>  <BCUT_SLOGP_1>
-0.41200879

>  <BCUT_SLOGP_2>
0.44789913

>  <BCUT_SLOGP_3>
2.7991242

>  <BCUT_SMR_0>
-2.5809906

>  <BCUT_SMR_1>
-0.31942976

>  <BCUT_SMR_2>
0.55716079

>  <BCUT_SMR_3>
3.0796533

>  <bpol>
83.993629

>  <b_1rotN>
6

>  <b_1rotR>
0.11764706

>  <b_ar>
0

>  <b_count>
112

>  <b_double>
2

>  <b_heavy>
51

>  <b_max1len>
4

>  <b_rotN>
6

>  <b_rotR>
0.11764706

>  <b_single>
110

>  <b_triple>
0

>  <chi0>
35.82518

>  <chi0v>
30.60647

>  <chi0v_C>
25.143381

>  <chi0_C>
25.298082

>  <chi1>
22.415335

>  <chi1v>
17.658833

>  <chi1v_C>
11.861167

>  <chi1_C>
11.989159

>  <chiral>
18

>  <chiral_u>
0

>  <density>
0.73664111

>  <diameter>
14

>  <FCharge>
0

>  <GCUT_PEOE_0>
-0.85635847

>  <GCUT_PEOE_1>
-0.33175203

>  <GCUT_PEOE_2>
0.026357504

>  <GCUT_PEOE_3>
3.4599526

>  <GCUT_SLOGP_0>
-0.96306539

>  <GCUT_SLOGP_1>
-0.31554523

>  <GCUT_SLOGP_2>
-0.008893026

>  <GCUT_SLOGP_3>
3.4346845

>  <GCUT_SMR_0>
-0.53708392

>  <GCUT_SMR_1>
-0.20439239

>  <GCUT_SMR_2>
0.1035829

>  <GCUT_SMR_3>
3.6606231

>  <Kier1>
40.765858

>  <Kier2>
16.773823

>  <Kier3>
8.8036242

>  <KierA1>
39.235027

>  <KierA2>
16.130514

>  <KierA3>
8.4611225

>  <KierFlex>
13.185025

>  <lip_acc>
13

>  <lip_don>
3

>  <lip_druglike>
0

>  <lip_violation>
2

>  <logP(o/w)>
2.967

>  <logS>
-3.79793

>  <mr>
17.593082

>  <mutagenic>
1

>  <nmol>
1

>  <opr_brigid>
29

>  <opr_leadlike>
0

>  <opr_nring>
3

>  <opr_nrot>
23

>  <opr_violation>
3

>  <PC+>
0

>  <PC->
0

>  <PEOE_PC+>
4.9049578

>  <PEOE_PC->
-4.9049578

>  <PEOE_RPC+>
0.054590389

>  <PEOE_RPC->
0.079664513

>  <PEOE_VSA+0>
215.99115

>  <PEOE_VSA+1>
117.53197

>  <PEOE_VSA+2>
9.8098574

>  <PEOE_VSA+3>
30.768337

>  <PEOE_VSA+4>
30.972517

>  <PEOE_VSA+5>
14.708499

>  <PEOE_VSA+6>
0

>  <PEOE_VSA-0>
120.12304

>  <PEOE_VSA-1>
93.738388

>  <PEOE_VSA-2>
0

>  <PEOE_VSA-3>
0

>  <PEOE_VSA-4>
0

>  <PEOE_VSA-5>
27.133842

>  <PEOE_VSA-6>
40.828915

>  <PEOE_VSA_FHYD>
0.83802348

>  <PEOE_VSA_FNEG>
0.40168411

>  <PEOE_VSA_FPNEG>
0.096867338

>  <PEOE_VSA_FPOL>
0.16197652

>  <PEOE_VSA_FPOS>
0.59831589

>  <PEOE_VSA_FPPOS>
0.065109171

>  <PEOE_VSA_HYD>
587.96271

>  <PEOE_VSA_NEG>
281.82419

>  <PEOE_VSA_PNEG>
67.962753

>  <PEOE_VSA_POL>
113.64378

>  <PEOE_VSA_POS>
419.78232

>  <PEOE_VSA_PPOS>
45.681019

>  <petitjean>
0.42857143

>  <petitjeanSC>
0.75

>  <Q_PC+>
0

>  <Q_PC->
0

>  <Q_RPC+>
0

>  <Q_RPC->
0

>  <Q_VSA_FHYD>
1

>  <Q_VSA_FNEG>
0

>  <Q_VSA_FPNEG>
0

>  <Q_VSA_FPOL>
0

>  <Q_VSA_FPOS>
1

>  <Q_VSA_FPPOS>
0

>  <Q_VSA_HYD>
701.60651

>  <Q_VSA_NEG>
0

>  <Q_VSA_PNEG>
0

>  <Q_VSA_POL>
0

>  <Q_VSA_POS>
701.60651

>  <Q_VSA_PPOS>
0

>  <radius>
8

>  <reactive>
1

>  <rings>
4

>  <RPC+>
0

>  <RPC->
0

>  <rsynth>
0.77083331

>  <SlogP>
1.9085

>  <SlogP_VSA0>
76.155678

>  <SlogP_VSA1>
16.557388

>  <SlogP_VSA2>
203.97647

>  <SlogP_VSA3>
20.926258

>  <SlogP_VSA4>
22.05398

>  <SlogP_VSA5>
101.17825

>  <SlogP_VSA6>
0

>  <SlogP_VSA7>
0

>  <SlogP_VSA8>
56.605217

>  <SlogP_VSA9>
266.60812

>  <SMR>
17.362341

>  <SMR_VSA0>
124.72365

>  <SMR_VSA1>
79.279991

>  <SMR_VSA2>
22.05398

>  <SMR_VSA3>
79.252815

>  <SMR_VSA4>
0

>  <SMR_VSA5>
56.605217

>  <SMR_VSA6>
34.359333

>  <SMR_VSA7>
367.78638

>  <TPSA>
165.98

>  <VAdjEq>
0.26154226

>  <VAdjMa>
6.6724253

>  <VDistEq>
3.6633456

>  <VDistMa>
10.958058

>  <vdw_area>
701.60651

>  <vdw_vol>
933.78986

>  <vsa_acc>
42.15638

>  <vsa_acid>
0

>  <vsa_base>
0

>  <vsa_don>
0

>  <vsa_hyd>
502.07782

>  <vsa_other>
55.087772

>  <vsa_pol>
82.85714

>  <Weight>
687.86798

>  <weinerPath>
7690

>  <weinerPol>
91

>  <zagreb>
256

$$$$