Fc1ccccc1-c1ccc(cc1)-c1nc2c(cc(F)cc2)c(C(O)=O)c1C
  MOE2013           2D

 28 31  0  0  0  0  0  0  0  0999 V2000
    0.0000    0.0000    0.0000 F   0  0  0  0  0  0  0  0  0  0  0  0
    0.7470    1.3010    0.0000 C   0  0  0  0  0  0  0  0  0  0  0  0
    2.2470    1.3030    0.0000 C   0  0  0  0  0  0  0  0  0  0  0  0
    2.9950    2.6040    0.0000 C   0  0  0  0  0  0  0  0  0  0  0  0
    2.2420    3.9020    0.0000 C   0  0  0  0  0  0  0  0  0  0  0  0
    0.7420    3.8990    0.0000 C   0  0  0  0  0  0  0  0  0  0  0  0
   -0.0050    2.5980    0.0000 C   0  0  0  0  0  0  0  0  0  0  0  0
   -1.5050    2.5950    0.0000 C   0  0  0  0  0  0  0  0  0  0  0  0
   -2.2580    3.8930    0.0000 C   0  0  0  0  0  0  0  0  0  0  0  0
   -3.7580    3.8900    0.0000 C   0  0  0  0  0  0  0  0  0  0  0  0
   -4.5050    2.5890    0.0000 C   0  0  0  0  0  0  0  0  0  0  0  0
   -3.7530    1.2920    0.0000 C   0  0  0  0  0  0  0  0  0  0  0  0
   -2.2530    1.2950    0.0000 C   0  0  0  0  0  0  0  0  0  0  0  0
   -6.0050    2.5860    0.0000 C   0  0  0  0  0  0  0  0  0  0  0  0
   -6.7530    1.2860    0.0000 N   0  0  0  0  0  0  0  0  0  0  0  0
   -8.2530    1.2830    0.0000 C   0  0  0  0  0  0  0  0  0  0  0  0
   -9.0050    2.5800    0.0000 C   0  0  0  0  0  0  0  0  0  0  0  0
  -10.5050    2.5780    0.0000 C   0  0  0  0  0  0  0  0  0  0  0  0
  -11.2530    1.2770    0.0000 C   0  0  0  0  0  0  0  0  0  0  0  0
  -12.7530    1.2740    0.0000 F   0  0  0  0  0  0  0  0  0  0  0  0
  -10.5000   -0.0210    0.0000 C   0  0  0  0  0  0  0  0  0  0  0  0
   -9.0000   -0.0180    0.0000 C   0  0  0  0  0  0  0  0  0  0  0  0
   -8.2580    3.8810    0.0000 C   0  0  0  0  0  0  0  0  0  0  0  0
   -9.0100    5.1790    0.0000 C   0  0  0  0  0  0  0  0  0  0  0  0
   -8.2630    6.4790    0.0000 O   0  0  0  0  0  0  0  0  0  0  0  0
  -10.5100    5.1760    0.0000 O   0  0  0  0  0  0  0  0  0  0  0  0
   -6.7580    3.8840    0.0000 C   0  0  0  0  0  0  0  0  0  0  0  0
   -6.0100    5.1840    0.0000 C   0  0  0  0  0  0  0  0  0  0  0  0
  1  2  1  0  0  0  0
  2  3  1  0  0  0  0
  2  7  2  0  0  0  0
  3  4  2  0  0  0  0
  4  5  1  0  0  0  0
  5  6  2  0  0  0  0
  6  7  1  0  0  0  0
  7  8  1  0  0  0  0
  8  9  1  0  0  0  0
  8 13  2  0  0  0  0
  9 10  2  0  0  0  0
 10 11  1  0  0  0  0
 11 12  2  0  0  0  0
 11 14  1  0  0  0  0
 12 13  1  0  0  0  0
 14 15  2  0  0  0  0
 14 27  1  0  0  0  0
 15 16  1  0  0  0  0
 16 17  1  0  0  0  0
 16 22  2  0  0  0  0
 17 18  2  0  0  0  0
 17 23  1  0  0  0  0
 18 19  1  0  0  0  0
 19 20  1  0  0  0  0
 19 21  2  0  0  0  0
 21 22  1  0  0  0  0
 23 24  1  0  0  0  0
 23 27  2  0  0  0  0
 24 25  1  0  0  0  0
 24 26  2  0  0  0  0
 27 28  1  0  0  0  0
M  END
>  <Index>
155

>  <ID>
HT0302

>  <class>
0

>  <apol>
54.299896

>  <ast_fraglike>
0

>  <ast_fraglike_ext>
0

>  <ast_violation>
2

>  <ast_violation_ext>
2

>  <a_acc>
3

>  <a_acid>
0

>  <a_aro>
22

>  <a_base>
0

>  <a_count>
43

>  <a_don>
2

>  <a_donacc>
5

>  <a_heavy>
28

>  <a_hyd>
24

>  <a_IC>
66.684097

>  <a_ICM>
1.5507931

>  <a_nB>
0

>  <a_nBr>
0

>  <a_nC>
23

>  <a_nCl>
0

>  <a_nF>
2

>  <a_nH>
15

>  <a_nI>
0

>  <a_nN>
1

>  <a_nO>
2

>  <a_nP>
0

>  <a_nS>
0

>  <balabanJ>
1.4054551

>  <BCUT_PEOE_0>
-2.3014436

>  <BCUT_PEOE_1>
-0.6465947

>  <BCUT_PEOE_2>
0.67779434

>  <BCUT_PEOE_3>
2.3145537

>  <BCUT_SLOGP_0>
-2.1954665

>  <BCUT_SLOGP_1>
-0.51025844

>  <BCUT_SLOGP_2>
0.80591482

>  <BCUT_SLOGP_3>
2.4587479

>  <BCUT_SMR_0>
-1.999123

>  <BCUT_SMR_1>
-0.49955952

>  <BCUT_SMR_2>
0.85429859

>  <BCUT_SMR_3>
2.6313682

>  <bpol>
21.082106

>  <b_1rotN>
3

>  <b_1rotR>
0.096774191

>  <b_ar>
23

>  <b_count>
46

>  <b_double>
1

>  <b_heavy>
31

>  <b_max1len>
2

>  <b_rotN>
3

>  <b_rotR>
0.096774191

>  <b_single>
22

>  <b_triple>
0

>  <chi0>
19.836134

>  <chi0v>
14.909457

>  <chi0v_C>
12.850853

>  <chi0_C>
15.129027

>  <chi1>
13.452397

>  <chi1v>
8.6396599

>  <chi1v_C>
7.3867512

>  <chi1_C>
10.3265

>  <chiral>
0

>  <chiral_u>
0

>  <density>
0.77141696

>  <diameter>
14

>  <FCharge>
0

>  <GCUT_PEOE_0>
-0.74231118

>  <GCUT_PEOE_1>
-0.44050863

>  <GCUT_PEOE_2>
0.064120144

>  <GCUT_PEOE_3>
2.5818536

>  <GCUT_SLOGP_0>
-0.85439467

>  <GCUT_SLOGP_1>
-0.26386139

>  <GCUT_SLOGP_2>
0.24697851

>  <GCUT_SLOGP_3>
2.7312474

>  <GCUT_SMR_0>
-0.47891083

>  <GCUT_SMR_1>
-0.21586178

>  <GCUT_SMR_2>
0.1932755

>  <GCUT_SMR_3>
2.8943815

>  <Kier1>
21.240376

>  <Kier2>
9.0133333

>  <Kier3>
4.396462

>  <KierA1>
14.404986

>  <KierA2>
6.0169449

>  <KierA3>
2.9020121

>  <KierFlex>
3.0955005

>  <lip_acc>
3

>  <lip_don>
1

>  <lip_druglike>
1

>  <lip_violation>
1

>  <logP(o/w)>
6.2989998

>  <logS>
-7.5148101

>  <mr>
10.457808

>  <mutagenic>
0

>  <nmol>
1

>  <opr_brigid>
23

>  <opr_leadlike>
1

>  <opr_nring>
4

>  <opr_nrot>
3

>  <opr_violation>
1

>  <PC+>
0

>  <PC->
0

>  <PEOE_PC+>
1.7882888

>  <PEOE_PC->
-1.7882888

>  <PEOE_RPC+>
0.16339485

>  <PEOE_RPC->
0.1831179

>  <PEOE_VSA+0>
19.421778

>  <PEOE_VSA+1>
62.52689

>  <PEOE_VSA+2>
18.041691

>  <PEOE_VSA+3>
0

>  <PEOE_VSA+4>
10.324173

>  <PEOE_VSA+5>
14.708499

>  <PEOE_VSA+6>
0

>  <PEOE_VSA-0>
72.184372

>  <PEOE_VSA-1>
85.784325

>  <PEOE_VSA-2>
0

>  <PEOE_VSA-3>
0

>  <PEOE_VSA-4>
29.499847

>  <PEOE_VSA-5>
13.566921

>  <PEOE_VSA-6>
7.7675405

>  <PEOE_VSA_FHYD>
0.772735

>  <PEOE_VSA_FNEG>
0.62548447

>  <PEOE_VSA_FPNEG>
0.15227784

>  <PEOE_VSA_FPOL>
0.22726502

>  <PEOE_VSA_FPOS>
0.3745155

>  <PEOE_VSA_FPPOS>
0.074987173

>  <PEOE_VSA_HYD>
257.95905

>  <PEOE_VSA_NEG>
208.80301

>  <PEOE_VSA_PNEG>
50.834309

>  <PEOE_VSA_POL>
75.866982

>  <PEOE_VSA_POS>
125.02303

>  <PEOE_VSA_PPOS>
25.032671

>  <petitjean>
0.5

>  <petitjeanSC>
1

>  <Q_PC+>
0

>  <Q_PC->
0

>  <Q_RPC+>
0

>  <Q_RPC->
0

>  <Q_VSA_FHYD>
1

>  <Q_VSA_FNEG>
0

>  <Q_VSA_FPNEG>
0

>  <Q_VSA_FPOL>
0

>  <Q_VSA_FPOS>
1

>  <Q_VSA_FPPOS>
0

>  <Q_VSA_HYD>
333.82605

>  <Q_VSA_NEG>
0

>  <Q_VSA_PNEG>
0

>  <Q_VSA_POL>
0

>  <Q_VSA_POS>
333.82605

>  <Q_VSA_PPOS>
0

>  <radius>
7

>  <reactive>
0

>  <rings>
4

>  <RPC+>
0

>  <RPC->
0

>  <rsynth>
1

>  <SlogP>
5.8536201

>  <SlogP_VSA0>
0

>  <SlogP_VSA1>
24.530994

>  <SlogP_VSA2>
18.242037

>  <SlogP_VSA3>
25.385227

>  <SlogP_VSA4>
30.233366

>  <SlogP_VSA5>
0

>  <SlogP_VSA6>
0

>  <SlogP_VSA7>
211.10561

>  <SlogP_VSA8>
0

>  <SlogP_VSA9>
63.246243

>  <SMR>
10.42273

>  <SMR_VSA0>
23.862217

>  <SMR_VSA1>
46.705757

>  <SMR_VSA2>
43.627262

>  <SMR_VSA3>
6.37115

>  <SMR_VSA4>
17.030573

>  <SMR_VSA5>
194.07503

>  <SMR_VSA6>
7.7454643

>  <SMR_VSA7>
33.326015

>  <TPSA>
50.189999

>  <VAdjEq>
0.39893496

>  <VAdjMa>
5.9541965

>  <VDistEq>
3.5274336

>  <VDistMa>
9.3135815

>  <vdw_area>
333.82605

>  <vdw_vol>
486.60324

>  <vsa_acc>
5.6825762

>  <vsa_acid>
0

>  <vsa_base>
0

>  <vsa_don>
0

>  <vsa_hyd>
271.81119

>  <vsa_other>
14.708499

>  <vsa_pol>
32.816418

>  <Weight>
375.37399

>  <weinerPath>
2057

>  <weinerPol>
50

>  <zagreb>
152

$$$$