S(OC[C@]12OC(O[C@H]1[C@@H]1OC(O[C@@H]1CO2)(C)C)(C)C)(=O)(=O)N
  MOE2013           2D

 22 24  0  0  1  0  0  0  0  0999 V2000
    0.0000    0.0000    0.0000 S   0  0  0  0  0  0  0  0  0  0  0  0
    1.3040    0.7410    0.0000 O   0  0  0  0  0  0  0  0  0  0  0  0
    1.3150    2.2410    0.0000 C   0  0  0  0  0  0  0  0  0  0  0  0
    2.6200    2.9810    0.0000 C   0  0  2  0  0  0  0  0  0  0  0  0
    1.4440    3.9130    0.0000 O   0  0  0  0  0  0  0  0  0  0  0  0
    1.9680    5.3190    0.0000 C   0  0  0  0  0  0  0  0  0  0  0  0
    3.4660    5.2560    0.0000 O   0  0  0  0  0  0  0  0  0  0  0  0
    3.8690    3.8110    0.0000 C   0  0  1  0  0  0  0  0  0  0  0  0
    5.2130    3.1440    0.0000 C   0  0  2  0  0  0  0  0  0  0  0  0
    6.6080    3.6950    0.0000 O   0  0  0  0  0  0  0  0  0  0  0  0
    7.5630    2.5390    0.0000 C   0  0  0  0  0  0  0  0  0  0  0  0
    6.7590    1.2730    0.0000 O   0  0  0  0  0  0  0  0  0  0  0  0
    5.3070    1.6460    0.0000 C   0  0  2  0  0  0  0  0  0  0  0  0
    4.0570    0.8170    0.0000 C   0  0  0  0  0  0  0  0  0  0  0  0
    2.7140    1.4840    0.0000 O   0  0  0  0  0  0  0  0  0  0  0  0
    8.9040    1.8660    0.0000 C   0  0  0  0  0  0  0  0  0  0  0  0
    8.7790    3.4180    0.0000 C   0  0  0  0  0  0  0  0  0  0  0  0
    0.5990    5.9330    0.0000 C   0  0  0  0  0  0  0  0  0  0  0  0
    1.8800    6.8160    0.0000 C   0  0  0  0  0  0  0  0  0  0  0  0
   -0.7410    1.3040    0.0000 O   0  0  0  0  0  0  0  0  0  0  0  0
    0.7410   -1.3040    0.0000 O   0  0  0  0  0  0  0  0  0  0  0  0
   -1.3040   -0.7410    0.0000 N   0  0  0  0  0  0  0  0  0  0  0  0
  1  2  1  0  0  0  0
  1 20  2  0  0  0  0
  1 21  2  0  0  0  0
  1 22  1  0  0  0  0
  2  3  1  0  0  0  0
  4  3  1  6  0  0  0
  4  5  1  0  0  0  0
  4  8  1  0  0  0  0
  4 15  1  0  0  0  0
  5  6  1  0  0  0  0
  6  7  1  0  0  0  0
  6 18  1  0  0  0  0
  6 19  1  0  0  0  0
  8  7  1  1  0  0  0
  8  9  1  0  0  0  0
  9 10  1  6  0  0  0
  9 13  1  0  0  0  0
 10 11  1  0  0  0  0
 11 12  1  0  0  0  0
 11 16  1  0  0  0  0
 11 17  1  0  0  0  0
 12 13  1  0  0  0  0
 13 14  1  6  0  0  0
 14 15  1  0  0  0  0
M  END
>  <Index>
1093

>  <ID>
HT2090

>  <class>
0

>  <apol>
45.538654

>  <ast_fraglike>
0

>  <ast_fraglike_ext>
0

>  <ast_violation>
2

>  <ast_violation_ext>
3

>  <a_acc>
8

>  <a_acid>
0

>  <a_aro>
0

>  <a_base>
0

>  <a_count>
43

>  <a_don>
1

>  <a_donacc>
9

>  <a_heavy>
22

>  <a_hyd>
9

>  <a_IC>
74.071167

>  <a_ICM>
1.7225853

>  <a_nB>
0

>  <a_nBr>
0

>  <a_nC>
12

>  <a_nCl>
0

>  <a_nF>
0

>  <a_nH>
21

>  <a_nI>
0

>  <a_nN>
1

>  <a_nO>
8

>  <a_nP>
0

>  <a_nS>
1

>  <balabanJ>
1.8424618

>  <BCUT_PEOE_0>
-2.6616616

>  <BCUT_PEOE_1>
-0.18403573

>  <BCUT_PEOE_2>
0.09222462

>  <BCUT_PEOE_3>
2.8872013

>  <BCUT_SLOGP_0>
-2.8602803

>  <BCUT_SLOGP_1>
-0.3339

>  <BCUT_SLOGP_2>
0.2142

>  <BCUT_SLOGP_3>
2.734916

>  <BCUT_SMR_0>
-2.4747906

>  <BCUT_SMR_1>
0.077739999

>  <BCUT_SMR_2>
0.10756686

>  <BCUT_SMR_3>
3.0748906

>  <bpol>
40.269348

>  <b_1rotN>
3

>  <b_1rotR>
0.125

>  <b_ar>
0

>  <b_count>
45

>  <b_double>
0

>  <b_heavy>
24

>  <b_max1len>
5

>  <b_rotN>
3

>  <b_rotR>
0.125

>  <b_single>
45

>  <b_triple>
0

>  <chi0>
16.388905

>  <chi0v>
13.714346

>  <chi0v_C>
8.6462641

>  <chi0_C>
8.6462641

>  <chi1>
9.9167624

>  <chi1v>
8.4334526

>  <chi1v_C>
3.7171435

>  <chi1_C>
3.7171435

>  <chiral>
4

>  <chiral_u>
0

>  <density>
0.88840181

>  <diameter>
9

>  <FCharge>
0

>  <GCUT_PEOE_0>
-0.78968227

>  <GCUT_PEOE_1>
-0.31608006

>  <GCUT_PEOE_2>
-0.067775376

>  <GCUT_PEOE_3>
2.8941009

>  <GCUT_SLOGP_0>
-1.3482965

>  <GCUT_SLOGP_1>
-0.38210589

>  <GCUT_SLOGP_2>
-0.037

>  <GCUT_SLOGP_3>
2.815196

>  <GCUT_SMR_0>
-0.53128737

>  <GCUT_SMR_1>
-0.11297636

>  <GCUT_SMR_2>
-0.054299999

>  <GCUT_SMR_3>
3.0873015

>  <Kier1>
16.84375

>  <Kier2>
4.9970255

>  <Kier3>
3.2986112

>  <KierA1>
18.056641

>  <KierA2>
5.375

>  <KierA3>
3.5568035

>  <KierFlex>
4.4115658

>  <lip_acc>
9

>  <lip_don>
2

>  <lip_druglike>
1

>  <lip_violation>
0

>  <logP(o/w)>
1.4859999

>  <logS>
-2.6786301

>  <mr>
7.2926731

>  <mutagenic>
0

>  <nmol>
1

>  <opr_brigid>
14

>  <opr_leadlike>
1

>  <opr_nring>
3

>  <opr_nrot>
3

>  <opr_violation>
1

>  <PC+>
0

>  <PC->
0

>  <PEOE_PC+>
2.2268438

>  <PEOE_PC->
-2.2268438

>  <PEOE_RPC+>
0.094607539

>  <PEOE_RPC->
0.15414315

>  <PEOE_VSA+0>
59.715405

>  <PEOE_VSA+1>
53.516251

>  <PEOE_VSA+2>
29.666079

>  <PEOE_VSA+3>
2.2170887

>  <PEOE_VSA+4>
16.214136

>  <PEOE_VSA+5>
0

>  <PEOE_VSA+6>
0

>  <PEOE_VSA-0>
74.990707

>  <PEOE_VSA-1>
32.016521

>  <PEOE_VSA-2>
9.0437498

>  <PEOE_VSA-3>
0

>  <PEOE_VSA-4>
4.945097

>  <PEOE_VSA-5>
0

>  <PEOE_VSA-6>
12.518781

>  <PEOE_VSA_FHYD>
0.88577676

>  <PEOE_VSA_FNEG>
0.45283249

>  <PEOE_VSA_FPNEG>
0.059230942

>  <PEOE_VSA_FPOL>
0.11422323

>  <PEOE_VSA_FPOS>
0.54716748

>  <PEOE_VSA_FPPOS>
0.054992288

>  <PEOE_VSA_HYD>
261.1658

>  <PEOE_VSA_NEG>
133.51486

>  <PEOE_VSA_PNEG>
17.463877

>  <PEOE_VSA_POL>
33.678013

>  <PEOE_VSA_POS>
161.32896

>  <PEOE_VSA_PPOS>
16.214136

>  <petitjean>
0.44444445

>  <petitjeanSC>
0.80000001

>  <Q_PC+>
0

>  <Q_PC->
0

>  <Q_RPC+>
0

>  <Q_RPC->
0

>  <Q_VSA_FHYD>
1

>  <Q_VSA_FNEG>
0

>  <Q_VSA_FPNEG>
0

>  <Q_VSA_FPOL>
0

>  <Q_VSA_FPOS>
1

>  <Q_VSA_FPPOS>
0

>  <Q_VSA_HYD>
294.84381

>  <Q_VSA_NEG>
0

>  <Q_VSA_PNEG>
0

>  <Q_VSA_POL>
0

>  <Q_VSA_POS>
294.84381

>  <Q_VSA_PPOS>
0

>  <radius>
5

>  <reactive>
1

>  <rings>
3

>  <RPC+>
0

>  <RPC->
0

>  <rsynth>
1

>  <SlogP>
-0.39539999

>  <SlogP_VSA0>
31.291433

>  <SlogP_VSA1>
48.171688

>  <SlogP_VSA2>
91.295425

>  <SlogP_VSA3>
41.852516

>  <SlogP_VSA4>
0

>  <SlogP_VSA5>
0

>  <SlogP_VSA6>
0

>  <SlogP_VSA7>
0

>  <SlogP_VSA8>
0

>  <SlogP_VSA9>
133.30406

>  <SMR>
7.1604199

>  <SMR_VSA0>
111.71654

>  <SMR_VSA1>
0

>  <SMR_VSA2>
0

>  <SMR_VSA3>
19.405949

>  <SMR_VSA4>
31.291433

>  <SMR_VSA5>
0

>  <SMR_VSA6>
41.852516

>  <SMR_VSA7>
141.64868

>  <TPSA>
115.54

>  <VAdjEq>
0.46637034

>  <VAdjMa>
5.5849624

>  <VDistEq>
2.9934089

>  <VDistMa>
8.6553698

>  <vdw_area>
294.84381

>  <vdw_vol>
381.99493

>  <vsa_acc>
49.4804

>  <vsa_acid>
0

>  <vsa_base>
0

>  <vsa_don>
20.13512

>  <vsa_hyd>
187.12631

>  <vsa_other>
18.431225

>  <vsa_pol>
69.615524

>  <Weight>
339.36499

>  <weinerPath>
948

>  <weinerPol>
35

>  <zagreb>
130

$$$$