FC(F)(F)c1cc([N+](=O)[O-])c(N(CCC)CCC)c([N+](=O)[O-])c1
  MOE2013           2D

 23 23  0  0  0  0  0  0  0  0999 V2000
    0.0000    0.0000    0.0000 F   0  0  0  0  0  0  0  0  0  0  0  0
    0.0000   -1.5000    0.0000 C   0  0  0  0  0  0  0  0  0  0  0  0
    1.5000   -1.5000    0.0000 F   0  0  0  0  0  0  0  0  0  0  0  0
    0.0000   -3.0000    0.0000 F   0  0  0  0  0  0  0  0  0  0  0  0
   -1.5000   -1.5000    0.0000 C   0  0  0  0  0  0  0  0  0  0  0  0
   -2.2500   -2.7990    0.0000 C   0  0  0  0  0  0  0  0  0  0  0  0
   -3.7500   -2.7990    0.0000 C   0  0  0  0  0  0  0  0  0  0  0  0
   -4.5000   -4.0980    0.0000 N   0  3  0  0  0  0  0  0  0  0  0  0
   -3.7500   -5.3970    0.0000 O   0  0  0  0  0  0  0  0  0  0  0  0
   -6.0000   -4.0980    0.0000 O   0  5  0  0  0  0  0  0  0  0  0  0
   -4.5000   -1.5000    0.0000 C   0  0  0  0  0  0  0  0  0  0  0  0
   -6.0000   -1.5000    0.0000 N   0  0  0  0  0  0  0  0  0  0  0  0
   -6.7500   -2.7990    0.0000 C   0  0  0  0  0  0  0  0  0  0  0  0
   -8.2500   -2.7990    0.0000 C   0  0  0  0  0  0  0  0  0  0  0  0
   -9.0000   -4.0980    0.0000 C   0  0  0  0  0  0  0  0  0  0  0  0
   -6.7500   -0.2010    0.0000 C   0  0  0  0  0  0  0  0  0  0  0  0
   -8.2500   -0.2010    0.0000 C   0  0  0  0  0  0  0  0  0  0  0  0
   -9.0000    1.0980    0.0000 C   0  0  0  0  0  0  0  0  0  0  0  0
   -3.7500   -0.2010    0.0000 C   0  0  0  0  0  0  0  0  0  0  0  0
   -4.5000    1.0980    0.0000 N   0  3  0  0  0  0  0  0  0  0  0  0
   -3.7500    2.3970    0.0000 O   0  0  0  0  0  0  0  0  0  0  0  0
   -6.0000    1.0980    0.0000 O   0  5  0  0  0  0  0  0  0  0  0  0
   -2.2500   -0.2010    0.0000 C   0  0  0  0  0  0  0  0  0  0  0  0
  1  2  1  0  0  0  0
  2  3  1  0  0  0  0
  2  4  1  0  0  0  0
  2  5  1  0  0  0  0
  5  6  1  0  0  0  0
  5 23  2  0  0  0  0
  6  7  2  0  0  0  0
  7  8  1  0  0  0  0
  7 11  1  0  0  0  0
  8  9  2  0  0  0  0
  8 10  1  0  0  0  0
 11 12  1  0  0  0  0
 11 19  2  0  0  0  0
 12 13  1  0  0  0  0
 12 16  1  0  0  0  0
 13 14  1  0  0  0  0
 14 15  1  0  0  0  0
 16 17  1  0  0  0  0
 17 18  1  0  0  0  0
 19 20  1  0  0  0  0
 19 23  1  0  0  0  0
 20 21  2  0  0  0  0
 20 22  1  0  0  0  0
M  CHG  1   8   1
M  CHG  1  10  -1
M  CHG  1  20   1
M  CHG  1  22  -1
M  END
>  <Index>
1344

>  <ID>
HT3535

>  <class>
0

>  <apol>
41.727688

>  <ast_fraglike>
0

>  <ast_fraglike_ext>
0

>  <ast_violation>
2

>  <ast_violation_ext>
3

>  <a_acc>
0

>  <a_acid>
0

>  <a_aro>
6

>  <a_base>
0

>  <a_count>
39

>  <a_don>
0

>  <a_donacc>
0

>  <a_heavy>
23

>  <a_hyd>
18

>  <a_IC>
76.515198

>  <a_ICM>
1.9619281

>  <a_nB>
0

>  <a_nBr>
0

>  <a_nC>
13

>  <a_nCl>
0

>  <a_nF>
3

>  <a_nH>
16

>  <a_nI>
0

>  <a_nN>
3

>  <a_nO>
4

>  <a_nP>
0

>  <a_nS>
0

>  <balabanJ>
3.1602342

>  <BCUT_PEOE_0>
-2.6428306

>  <BCUT_PEOE_1>
-0.25828469

>  <BCUT_PEOE_2>
0.052920267

>  <BCUT_PEOE_3>
2.5862868

>  <BCUT_SLOGP_0>
-2.669842

>  <BCUT_SLOGP_1>
0.033500001

>  <BCUT_SLOGP_2>
0.42019999

>  <BCUT_SLOGP_3>
2.6298733

>  <BCUT_SMR_0>
-2.3683698

>  <BCUT_SMR_1>
0.1057

>  <BCUT_SMR_2>
0.33669999

>  <BCUT_SMR_3>
2.8552213

>  <bpol>
25.592312

>  <b_1rotN>
7

>  <b_1rotR>
0.30434781

>  <b_ar>
6

>  <b_count>
39

>  <b_double>
2

>  <b_heavy>
23

>  <b_max1len>
8

>  <b_rotN>
8

>  <b_rotR>
0.34782609

>  <b_single>
31

>  <b_triple>
0

>  <chi0>
17.784092

>  <chi0v>
12.591655

>  <chi0v_C>
8.4831276

>  <chi0_C>
9.052042

>  <chi1>
10.628447

>  <chi1v>
6.9194336

>  <chi1v_C>
4.3189139

>  <chi1_C>
5.0025487

>  <chiral>
0

>  <chiral_u>
0

>  <density>
0.89406651

>  <diameter>
9

>  <FCharge>
0

>  <GCUT_PEOE_0>
-0.82328099

>  <GCUT_PEOE_1>
-0.41828468

>  <GCUT_PEOE_2>
-0.11697014

>  <GCUT_PEOE_3>
2.64939

>  <GCUT_SLOGP_0>
-0.98111343

>  <GCUT_SLOGP_1>
-0.1265

>  <GCUT_SLOGP_2>
0.26019999

>  <GCUT_SLOGP_3>
2.7255287

>  <GCUT_SMR_0>
-0.52522135

>  <GCUT_SMR_1>
-0.054299999

>  <GCUT_SMR_2>
0.1767

>  <GCUT_SMR_3>
2.8673484

>  <Kier1>
21.043478

>  <Kier2>
8.909091

>  <Kier3>
5.5

>  <KierA1>
16.33699

>  <KierA2>
6.8311534

>  <KierA3>
4.1775932

>  <KierFlex>
4.8521953

>  <lip_acc>
7

>  <lip_don>
0

>  <lip_druglike>
1

>  <lip_violation>
0

>  <logP(o/w)>
4.6057601

>  <logS>
-5.0072598

>  <mr>
7.5288539

>  <mutagenic>
0

>  <nmol>
1

>  <opr_brigid>
6

>  <opr_leadlike>
1

>  <opr_nring>
1

>  <opr_nrot>
7

>  <opr_violation>
0

>  <PC+>
0

>  <PC->
0

>  <PEOE_PC+>
2.0075598

>  <PEOE_PC->
-2.0075598

>  <PEOE_RPC+>
0.20813434

>  <PEOE_RPC->
0.13108283

>  <PEOE_VSA+0>
110.60986

>  <PEOE_VSA+1>
18.79538

>  <PEOE_VSA+2>
0

>  <PEOE_VSA+3>
6.6995511

>  <PEOE_VSA+4>
0

>  <PEOE_VSA+5>
13.399102

>  <PEOE_VSA+6>
9.0455017

>  <PEOE_VSA-0>
17.402626

>  <PEOE_VSA-1>
37.495354

>  <PEOE_VSA-2>
0

>  <PEOE_VSA-3>
35.725906

>  <PEOE_VSA-4>
0

>  <PEOE_VSA-5>
67.862099

>  <PEOE_VSA-6>
0

>  <PEOE_VSA_FHYD>
0.71515262

>  <PEOE_VSA_FNEG>
0.49989998

>  <PEOE_VSA_FPNEG>
0.21405213

>  <PEOE_VSA_FPOL>
0.28484738

>  <PEOE_VSA_FPOS>
0.50010002

>  <PEOE_VSA_FPPOS>
0.070795268

>  <PEOE_VSA_HYD>
226.72868

>  <PEOE_VSA_NEG>
158.48598

>  <PEOE_VSA_PNEG>
67.862099

>  <PEOE_VSA_POL>
90.306702

>  <PEOE_VSA_POS>
158.54939

>  <PEOE_VSA_PPOS>
22.444605

>  <petitjean>
0.44444445

>  <petitjeanSC>
0.80000001

>  <Q_PC+>
0

>  <Q_PC->
0

>  <Q_RPC+>
0

>  <Q_RPC->
0

>  <Q_VSA_FHYD>
1

>  <Q_VSA_FNEG>
0

>  <Q_VSA_FPNEG>
0

>  <Q_VSA_FPOL>
0

>  <Q_VSA_FPOS>
1

>  <Q_VSA_FPPOS>
0

>  <Q_VSA_HYD>
317.03537

>  <Q_VSA_NEG>
0

>  <Q_VSA_PNEG>
0

>  <Q_VSA_POL>
0

>  <Q_VSA_POS>
317.03537

>  <Q_VSA_PPOS>
0

>  <radius>
5

>  <reactive>
1

>  <rings>
1

>  <RPC+>
0

>  <RPC->
0

>  <rsynth>
1

>  <SlogP>
4.4597001

>  <SlogP_VSA0>
3.1243138

>  <SlogP_VSA1>
14.171232

>  <SlogP_VSA2>
0

>  <SlogP_VSA3>
138.74918

>  <SlogP_VSA4>
3.185575

>  <SlogP_VSA5>
0

>  <SlogP_VSA6>
7.7595162

>  <SlogP_VSA7>
35.286369

>  <SlogP_VSA8>
37.736813

>  <SlogP_VSA9>
119.80261

>  <SMR>
7.76648

>  <SMR_VSA0>
14.171232

>  <SMR_VSA1>
44.880341

>  <SMR_VSA2>
112.75385

>  <SMR_VSA3>
3.185575

>  <SMR_VSA4>
8.2702427

>  <SMR_VSA5>
73.023178

>  <SMR_VSA6>
36.879158

>  <SMR_VSA7>
66.652031

>  <TPSA>
94.879997

>  <VAdjEq>
0.42622864

>  <VAdjMa>
5.523562

>  <VDistEq>
2.9582369

>  <VDistMa>
8.815836

>  <vdw_area>
317.03537

>  <vdw_vol>
375.0079

>  <vsa_acc>
0

>  <vsa_acid>
0

>  <vsa_base>
0

>  <vsa_don>
0

>  <vsa_hyd>
237.78456

>  <vsa_other>
67.862099

>  <vsa_pol>
0

>  <Weight>
335.28198

>  <weinerPath>
1082

>  <weinerPol>
37

>  <zagreb>
112

$$$$