O(C)c1cc2C3N(CC(CC(C)C)C(=O)C3)CCc2cc1OC
  MOE2013           2D

 23 25  0  0  1  0  0  0  0  0999 V2000
    0.0000    0.0000    0.0000 O   0  0  0  0  0  0  0  0  0  0  0  0
    0.7600   -1.2930    0.0000 C   0  0  0  0  0  0  0  0  0  0  0  0
    0.7400    1.3050    0.0000 C   0  0  0  0  0  0  0  0  0  0  0  0
    2.2400    1.3170    0.0000 C   0  0  0  0  0  0  0  0  0  0  0  0
    2.9790    2.6220    0.0000 C   0  0  0  0  0  0  0  0  0  0  0  0
    4.4790    2.6340    0.0000 C   0  0  3  0  0  0  0  0  0  0  0  0
    5.2190    3.9390    0.0000 N   0  0  3  0  0  0  0  0  0  0  0  0
    6.7190    3.9510    0.0000 C   0  0  0  0  0  0  0  0  0  0  0  0
    7.4790    2.6580    0.0000 C   0  0  3  0  0  0  0  0  0  0  0  0
    8.9790    2.6700    0.0000 C   0  0  0  0  0  0  0  0  0  0  0  0
    9.7190    3.9750    0.0000 C   0  0  0  0  0  0  0  0  0  0  0  0
   11.2180    3.9870    0.0000 C   0  0  0  0  0  0  0  0  0  0  0  0
    8.9580    5.2680    0.0000 C   0  0  0  0  0  0  0  0  0  0  0  0
    6.7390    1.3530    0.0000 C   0  0  0  0  0  0  0  0  0  0  0  0
    7.5000    0.0600    0.0000 O   0  0  0  0  0  0  0  0  0  0  0  0
    5.2390    1.3410    0.0000 C   0  0  0  0  0  0  0  0  0  0  0  0
    4.4580    5.2320    0.0000 C   0  0  0  0  0  0  0  0  0  0  0  0
    2.9580    5.2200    0.0000 C   0  0  0  0  0  0  0  0  0  0  0  0
    2.2190    3.9150    0.0000 C   0  0  0  0  0  0  0  0  0  0  0  0
    0.7190    3.9030    0.0000 C   0  0  0  0  0  0  0  0  0  0  0  0
   -0.0210    2.5980    0.0000 C   0  0  0  0  0  0  0  0  0  0  0  0
   -1.5210    2.5860    0.0000 O   0  0  0  0  0  0  0  0  0  0  0  0
   -2.2810    3.8790    0.0000 C   0  0  0  0  0  0  0  0  0  0  0  0
  1  2  1  0  0  0  0
  1  3  1  0  0  0  0
  3  4  1  0  0  0  0
  3 21  2  0  0  0  0
  4  5  2  0  0  0  0
  5  6  1  0  0  0  0
  5 19  1  0  0  0  0
  6  7  1  0  0  0  0
  6 16  1  0  0  0  0
  7  8  1  0  0  0  0
  7 17  1  0  0  0  0
  8  9  1  0  0  0  0
  9 10  1  0  0  0  0
  9 14  1  0  0  0  0
 10 11  1  0  0  0  0
 11 12  1  0  0  0  0
 11 13  1  0  0  0  0
 14 15  2  0  0  0  0
 14 16  1  0  0  0  0
 17 18  1  0  0  0  0
 18 19  1  0  0  0  0
 19 20  2  0  0  0  0
 20 21  1  0  0  0  0
 21 22  1  0  0  0  0
 22 23  1  0  0  0  0
M  END
>  <Index>
1059

>  <ID>
HT2023

>  <class>
0

>  <apol>
54.949409

>  <ast_fraglike>
0

>  <ast_fraglike_ext>
0

>  <ast_violation>
3

>  <ast_violation_ext>
4

>  <a_acc>
4

>  <a_acid>
0

>  <a_aro>
6

>  <a_base>
0

>  <a_count>
50

>  <a_don>
0

>  <a_donacc>
4

>  <a_heavy>
23

>  <a_hyd>
18

>  <a_IC>
68.345337

>  <a_ICM>
1.3669068

>  <a_nB>
0

>  <a_nBr>
0

>  <a_nC>
19

>  <a_nCl>
0

>  <a_nF>
0

>  <a_nH>
27

>  <a_nI>
0

>  <a_nN>
1

>  <a_nO>
3

>  <a_nP>
0

>  <a_nS>
0

>  <balabanJ>
1.6918623

>  <BCUT_PEOE_0>
-2.797894

>  <BCUT_PEOE_1>
-0.44197991

>  <BCUT_PEOE_2>
0.3479006

>  <BCUT_PEOE_3>
2.7648661

>  <BCUT_SLOGP_0>
-2.8127739

>  <BCUT_SLOGP_1>
-0.35804892

>  <BCUT_SLOGP_2>
0.41303453

>  <BCUT_SLOGP_3>
2.7929714

>  <BCUT_SMR_0>
-2.5326121

>  <BCUT_SMR_1>
-0.23889588

>  <BCUT_SMR_2>
0.53729278

>  <BCUT_SMR_3>
3.0270605

>  <bpol>
36.286591

>  <b_1rotN>
4

>  <b_1rotR>
0.16

>  <b_ar>
6

>  <b_count>
52

>  <b_double>
1

>  <b_heavy>
25

>  <b_max1len>
5

>  <b_rotN>
4

>  <b_rotR>
0.16

>  <b_single>
45

>  <b_triple>
0

>  <chi0>
16.560114

>  <chi0v>
14.594244

>  <chi0v_C>
12.922285

>  <chi0_C>
13.568549

>  <chi1>
11.028407

>  <chi1v>
8.5463743

>  <chi1v_C>
6.2268515

>  <chi1_C>
7.0705166

>  <chiral>
2

>  <chiral_u>
2

>  <density>
0.69147366

>  <diameter>
12

>  <FCharge>
0

>  <GCUT_PEOE_0>
-0.84489226

>  <GCUT_PEOE_1>
-0.37586123

>  <GCUT_PEOE_2>
-0.083096541

>  <GCUT_PEOE_3>
2.9142346

>  <GCUT_SLOGP_0>
-0.9302792

>  <GCUT_SLOGP_1>
-0.28400725

>  <GCUT_SLOGP_2>
0.015404698

>  <GCUT_SLOGP_3>
2.9795203

>  <GCUT_SMR_0>
-0.53466135

>  <GCUT_SMR_1>
-0.1822684

>  <GCUT_SMR_2>
0.081185572

>  <GCUT_SMR_3>
3.1614947

>  <Kier1>
17.811199

>  <Kier2>
7.4861112

>  <Kier3>
3.6651394

>  <KierA1>
15.349134

>  <KierA2>
6.4052391

>  <KierA3>
3.1189742

>  <KierFlex>
4.27456

>  <lip_acc>
4

>  <lip_don>
0

>  <lip_druglike>
1

>  <lip_violation>
0

>  <logP(o/w)>
2.70874

>  <logS>
-3.5324199

>  <mr>
9.1052141

>  <mutagenic>
0

>  <nmol>
1

>  <opr_brigid>
16

>  <opr_leadlike>
1

>  <opr_nring>
3

>  <opr_nrot>
4

>  <opr_violation>
0

>  <PC+>
0

>  <PC->
0

>  <PEOE_PC+>
1.6202366

>  <PEOE_PC->
-1.6202366

>  <PEOE_RPC+>
0.08605808

>  <PEOE_RPC->
0.21313715

>  <PEOE_VSA+0>
165.00418

>  <PEOE_VSA+1>
38.388474

>  <PEOE_VSA+2>
25.375559

>  <PEOE_VSA+3>
0

>  <PEOE_VSA+4>
0

>  <PEOE_VSA+5>
0

>  <PEOE_VSA+6>
0

>  <PEOE_VSA-0>
46.329514

>  <PEOE_VSA-1>
37.495354

>  <PEOE_VSA-2>
0

>  <PEOE_VSA-3>
0

>  <PEOE_VSA-4>
0

>  <PEOE_VSA-5>
13.566921

>  <PEOE_VSA-6>
5.0075121

>  <PEOE_VSA_FHYD>
0.94391227

>  <PEOE_VSA_FNEG>
0.30920696

>  <PEOE_VSA_FPNEG>
0.056087725

>  <PEOE_VSA_FPOL>
0.056087725

>  <PEOE_VSA_FPOS>
0.69079304

>  <PEOE_VSA_FPPOS>
0

>  <PEOE_VSA_HYD>
312.59308

>  <PEOE_VSA_NEG>
102.3993

>  <PEOE_VSA_PNEG>
18.574432

>  <PEOE_VSA_POL>
18.574432

>  <PEOE_VSA_POS>
228.76822

>  <PEOE_VSA_PPOS>
0

>  <petitjean>
0.5

>  <petitjeanSC>
1

>  <Q_PC+>
0

>  <Q_PC->
0

>  <Q_RPC+>
0

>  <Q_RPC->
0

>  <Q_VSA_FHYD>
1

>  <Q_VSA_FNEG>
0

>  <Q_VSA_FPNEG>
0

>  <Q_VSA_FPOL>
0

>  <Q_VSA_FPOS>
1

>  <Q_VSA_FPPOS>
0

>  <Q_VSA_HYD>
331.16751

>  <Q_VSA_NEG>
0

>  <Q_VSA_PNEG>
0

>  <Q_VSA_POL>
0

>  <Q_VSA_POS>
331.16751

>  <Q_VSA_PPOS>
0

>  <radius>
6

>  <reactive>
1

>  <rings>
3

>  <RPC+>
0

>  <RPC->
0

>  <rsynth>
1

>  <SlogP>
3.33357

>  <SlogP_VSA0>
21.999775

>  <SlogP_VSA1>
8.8119249

>  <SlogP_VSA2>
23.862217

>  <SlogP_VSA3>
36.879158

>  <SlogP_VSA4>
15.192742

>  <SlogP_VSA5>
89.636139

>  <SlogP_VSA6>
0

>  <SlogP_VSA7>
35.286369

>  <SlogP_VSA8>
41.718781

>  <SlogP_VSA9>
77.138885

>  <SMR>
9.0243998

>  <SMR_VSA0>
23.862217

>  <SMR_VSA1>
25.12409

>  <SMR_VSA2>
8.8215923

>  <SMR_VSA3>
20.839975

>  <SMR_VSA4>
0

>  <SMR_VSA5>
91.891586

>  <SMR_VSA6>
42.566769

>  <SMR_VSA7>
137.41977

>  <TPSA>
38.77

>  <VAdjEq>
0.45137304

>  <VAdjMa>
5.643856

>  <VDistEq>
3.2758946

>  <VDistMa>
8.7513943

>  <vdw_area>
331.16751

>  <vdw_vol>
459.06158

>  <vsa_acc>
18.574432

>  <vsa_acid>
0

>  <vsa_base>
0

>  <vsa_don>
0

>  <vsa_hyd>
282.22598

>  <vsa_other>
8.458519

>  <vsa_pol>
18.574432

>  <Weight>
317.42899

>  <weinerPath>
1164

>  <weinerPol>
40

>  <zagreb>
122

$$$$