s1c2cc(OC)ccc2nc1NC(=O)Nc1ccccc1
  MOE2013           2D

 21 23  0  0  0  0  0  0  0  0999 V2000
    0.0000    0.0000    0.0000 S   0  0  0  0  0  0  0  0  0  0  0  0
    1.0310    1.0890    0.0000 C   0  0  0  0  0  0  0  0  0  0  0  0
    2.5310    1.0520    0.0000 C   0  0  0  0  0  0  0  0  0  0  0  0
    3.3130    2.3320    0.0000 C   0  0  0  0  0  0  0  0  0  0  0  0
    4.8130    2.2940    0.0000 O   0  0  0  0  0  0  0  0  0  0  0  0
    5.5950    3.5740    0.0000 C   0  0  0  0  0  0  0  0  0  0  0  0
    2.5960    3.6490    0.0000 C   0  0  0  0  0  0  0  0  0  0  0  0
    1.0960    3.6870    0.0000 C   0  0  0  0  0  0  0  0  0  0  0  0
    0.3140    2.4070    0.0000 C   0  0  0  0  0  0  0  0  0  0  0  0
   -1.1610    2.1320    0.0000 N   0  0  0  0  0  0  0  0  0  0  0  0
   -1.3550    0.6440    0.0000 C   0  0  0  0  0  0  0  0  0  0  0  0
   -2.6720   -0.0730    0.0000 N   0  0  0  0  0  0  0  0  0  0  0  0
   -3.9520    0.7090    0.0000 C   0  0  0  0  0  0  0  0  0  0  0  0
   -3.9140    2.2090    0.0000 O   0  0  0  0  0  0  0  0  0  0  0  0
   -5.2690   -0.0080    0.0000 N   0  0  0  0  0  0  0  0  0  0  0  0
   -6.5490    0.7740    0.0000 C   0  0  0  0  0  0  0  0  0  0  0  0
   -6.5120    2.2740    0.0000 C   0  0  0  0  0  0  0  0  0  0  0  0
   -7.7920    3.0560    0.0000 C   0  0  0  0  0  0  0  0  0  0  0  0
   -9.1090    2.3380    0.0000 C   0  0  0  0  0  0  0  0  0  0  0  0
   -9.1460    0.8390    0.0000 C   0  0  0  0  0  0  0  0  0  0  0  0
   -7.8670    0.0570    0.0000 C   0  0  0  0  0  0  0  0  0  0  0  0
  1  2  1  0  0  0  0
  1 11  1  0  0  0  0
  2  3  1  0  0  0  0
  2  9  2  0  0  0  0
  3  4  2  0  0  0  0
  4  5  1  0  0  0  0
  4  7  1  0  0  0  0
  5  6  1  0  0  0  0
  7  8  2  0  0  0  0
  8  9  1  0  0  0  0
  9 10  1  0  0  0  0
 10 11  2  0  0  0  0
 11 12  1  0  0  0  0
 12 13  1  0  0  0  0
 13 14  2  0  0  0  0
 13 15  1  0  0  0  0
 15 16  1  0  0  0  0
 16 17  1  0  0  0  0
 16 21  2  0  0  0  0
 17 18  2  0  0  0  0
 18 19  1  0  0  0  0
 19 20  2  0  0  0  0
 20 21  1  0  0  0  0
M  END
>  <Index>
1315

>  <ID>
HT3350

>  <class>
0

>  <apol>
42.872311

>  <ast_fraglike>
0

>  <ast_fraglike_ext>
0

>  <ast_violation>
1

>  <ast_violation_ext>
1

>  <a_acc>
3

>  <a_acid>
0

>  <a_aro>
15

>  <a_base>
0

>  <a_count>
34

>  <a_don>
2

>  <a_donacc>
5

>  <a_heavy>
21

>  <a_hyd>
14

>  <a_IC>
59.509773

>  <a_ICM>
1.7502874

>  <a_nB>
0

>  <a_nBr>
0

>  <a_nC>
15

>  <a_nCl>
0

>  <a_nF>
0

>  <a_nH>
13

>  <a_nI>
0

>  <a_nN>
3

>  <a_nO>
2

>  <a_nP>
0

>  <a_nS>
1

>  <balabanJ>
1.4182919

>  <BCUT_PEOE_0>
-2.28423

>  <BCUT_PEOE_1>
-0.61568969

>  <BCUT_PEOE_2>
0.58681828

>  <BCUT_PEOE_3>
2.2391925

>  <BCUT_SLOGP_0>
-2.3941305

>  <BCUT_SLOGP_1>
-0.50694084

>  <BCUT_SLOGP_2>
0.7428512

>  <BCUT_SLOGP_3>
2.403743

>  <BCUT_SMR_0>
-1.9512439

>  <BCUT_SMR_1>
-0.40415987

>  <BCUT_SMR_2>
0.85431087

>  <BCUT_SMR_3>
2.6066511

>  <bpol>
22.005692

>  <b_1rotN>
3

>  <b_1rotR>
0.13043478

>  <b_ar>
16

>  <b_count>
36

>  <b_double>
1

>  <b_heavy>
23

>  <b_max1len>
2

>  <b_rotN>
5

>  <b_rotR>
0.2173913

>  <b_single>
19

>  <b_triple>
0

>  <chi0>
14.656489

>  <chi0v>
12.107257

>  <chi0v_C>
8.6188021

>  <chi0_C>
10.120955

>  <chi1>
10.241515

>  <chi1v>
7.1371727

>  <chi1v_C>
3.6487174

>  <chi1_C>
5.2828231

>  <chiral>
0

>  <chiral_u>
0

>  <density>
0.78884375

>  <diameter>
13

>  <FCharge>
0

>  <GCUT_PEOE_0>
-0.79643202

>  <GCUT_PEOE_1>
-0.44622999

>  <GCUT_PEOE_2>
0.081470236

>  <GCUT_PEOE_3>
2.2948802

>  <GCUT_SLOGP_0>
-1.0359178

>  <GCUT_SLOGP_1>
-0.3132036

>  <GCUT_SLOGP_2>
0.16445385

>  <GCUT_SLOGP_3>
2.4642434

>  <GCUT_SMR_0>
-0.48324513

>  <GCUT_SMR_1>
-0.20792791

>  <GCUT_SMR_2>
0.19305076

>  <GCUT_SMR_3>
2.6348925

>  <Kier1>
15.879017

>  <Kier2>
7.5130072

>  <Kier3>
4.260355

>  <KierA1>
11.637051

>  <KierA2>
5.4131112

>  <KierA3>
3.0295858

>  <KierFlex>
2.99965

>  <lip_acc>
5

>  <lip_don>
2

>  <lip_druglike>
1

>  <lip_violation>
0

>  <logP(o/w)>
3.115

>  <logS>
-4.5892801

>  <mr>
8.3985071

>  <mutagenic>
0

>  <nmol>
1

>  <opr_brigid>
16

>  <opr_leadlike>
1

>  <opr_nring>
3

>  <opr_nrot>
3

>  <opr_violation>
0

>  <PC+>
0

>  <PC->
0

>  <PEOE_PC+>
1.8446025

>  <PEOE_PC->
-1.8446025

>  <PEOE_RPC+>
0.17635033

>  <PEOE_RPC->
0.18861592

>  <PEOE_VSA+0>
31.697208

>  <PEOE_VSA+1>
75.243942

>  <PEOE_VSA+2>
0

>  <PEOE_VSA+3>
17.238026

>  <PEOE_VSA+4>
19.760618

>  <PEOE_VSA+5>
0

>  <PEOE_VSA+6>
17.440542

>  <PEOE_VSA-0>
65.459122

>  <PEOE_VSA-1>
36.764713

>  <PEOE_VSA-2>
0

>  <PEOE_VSA-3>
0

>  <PEOE_VSA-4>
19.249496

>  <PEOE_VSA-5>
0

>  <PEOE_VSA-6>
2.7775381

>  <PEOE_VSA_FHYD>
0.79264104

>  <PEOE_VSA_FNEG>
0.43500453

>  <PEOE_VSA_FPNEG>
0.077117048

>  <PEOE_VSA_FPOL>
0.20735899

>  <PEOE_VSA_FPOS>
0.56499547

>  <PEOE_VSA_FPPOS>
0.13024193

>  <PEOE_VSA_HYD>
226.40302

>  <PEOE_VSA_NEG>
124.25087

>  <PEOE_VSA_PNEG>
22.027035

>  <PEOE_VSA_POL>
59.228195

>  <PEOE_VSA_POS>
161.38034

>  <PEOE_VSA_PPOS>
37.20116

>  <petitjean>
0.46153846

>  <petitjeanSC>
0.85714287

>  <Q_PC+>
0

>  <Q_PC->
0

>  <Q_RPC+>
0

>  <Q_RPC->
0

>  <Q_VSA_FHYD>
1

>  <Q_VSA_FNEG>
0

>  <Q_VSA_FPNEG>
0

>  <Q_VSA_FPOL>
0

>  <Q_VSA_FPOS>
1

>  <Q_VSA_FPPOS>
0

>  <Q_VSA_HYD>
285.6312

>  <Q_VSA_NEG>
0

>  <Q_VSA_PNEG>
0

>  <Q_VSA_POL>
0

>  <Q_VSA_POS>
285.6312

>  <Q_VSA_PPOS>
0

>  <radius>
7

>  <reactive>
0

>  <rings>
3

>  <RPC+>
0

>  <RPC->
0

>  <rsynth>
1

>  <SlogP>
3.9489

>  <SlogP_VSA0>
10.999887

>  <SlogP_VSA1>
57.636986

>  <SlogP_VSA2>
0

>  <SlogP_VSA3>
0

>  <SlogP_VSA4>
0

>  <SlogP_VSA5>
35.383869

>  <SlogP_VSA6>
0

>  <SlogP_VSA7>
144.0354

>  <SlogP_VSA8>
0

>  <SlogP_VSA9>
63.640827

>  <SMR>
8.5255404

>  <SMR_VSA0>
23.862217

>  <SMR_VSA1>
27.785418

>  <SMR_VSA2>
0

>  <SMR_VSA3>
5.2434282

>  <SMR_VSA4>
42.168922

>  <SMR_VSA5>
141.14548

>  <SMR_VSA6>
4.8299561

>  <SMR_VSA7>
66.661552

>  <TPSA>
63.25

>  <VAdjEq>
0.48250595

>  <VAdjMa>
5.523562

>  <VDistEq>
3.4275489

>  <VDistMa>
8.4503002

>  <vdw_area>
285.6312

>  <vdw_vol>
379.48453

>  <vsa_acc>
21.753254

>  <vsa_acid>
0

>  <vsa_base>
0

>  <vsa_don>
11.365152

>  <vsa_hyd>
207.92923

>  <vsa_other>
30.607166

>  <vsa_pol>
33.118404

>  <Weight>
299.354

>  <weinerPath>
1045

>  <weinerPol>
28

>  <zagreb>
108

$$$$