O([N+](=O)[O-])CCN(CCO[N+](=O)[O-])CCO[N+](=O)[O-]
  MOE2013           2D

 19 18  0  0  0  0  0  0  0  0999 V2000
    0.0000    0.0000    0.0000 O   0  0  0  0  0  0  0  0  0  0  0  0
   -1.5000    0.0000    0.0000 N   0  3  0  0  0  0  0  0  0  0  0  0
   -2.2500    1.2990    0.0000 O   0  0  0  0  0  0  0  0  0  0  0  0
   -2.2500   -1.2990    0.0000 O   0  5  0  0  0  0  0  0  0  0  0  0
    0.7500    1.2990    0.0000 C   0  0  0  0  0  0  0  0  0  0  0  0
    2.2500    1.2990    0.0000 C   0  0  0  0  0  0  0  0  0  0  0  0
    3.0000    2.5980    0.0000 N   0  0  0  0  0  0  0  0  0  0  0  0
    2.2500    3.8970    0.0000 C   0  0  0  0  0  0  0  0  0  0  0  0
    3.0000    5.1960    0.0000 C   0  0  0  0  0  0  0  0  0  0  0  0
    2.2500    6.4950    0.0000 O   0  0  0  0  0  0  0  0  0  0  0  0
    3.0000    7.7940    0.0000 N   0  3  0  0  0  0  0  0  0  0  0  0
    2.2500    9.0930    0.0000 O   0  0  0  0  0  0  0  0  0  0  0  0
    4.5000    7.7940    0.0000 O   0  5  0  0  0  0  0  0  0  0  0  0
    4.5000    2.5980    0.0000 C   0  0  0  0  0  0  0  0  0  0  0  0
    5.2500    1.2990    0.0000 C   0  0  0  0  0  0  0  0  0  0  0  0
    6.7500    1.2990    0.0000 O   0  0  0  0  0  0  0  0  0  0  0  0
    7.5000    0.0000    0.0000 N   0  3  0  0  0  0  0  0  0  0  0  0
    6.7500   -1.2990    0.0000 O   0  0  0  0  0  0  0  0  0  0  0  0
    9.0000    0.0000    0.0000 O   0  5  0  0  0  0  0  0  0  0  0  0
  1  2  1  0  0  0  0
  1  5  1  0  0  0  0
  2  3  2  0  0  0  0
  2  4  1  0  0  0  0
  5  6  1  0  0  0  0
  6  7  1  0  0  0  0
  7  8  1  0  0  0  0
  7 14  1  0  0  0  0
  8  9  1  0  0  0  0
  9 10  1  0  0  0  0
 10 11  1  0  0  0  0
 11 12  2  0  0  0  0
 11 13  1  0  0  0  0
 14 15  1  0  0  0  0
 15 16  1  0  0  0  0
 16 17  1  0  0  0  0
 17 18  2  0  0  0  0
 17 19  1  0  0  0  0
M  CHG  1   2   1
M  CHG  1   4  -1
M  CHG  1  11   1
M  CHG  1  13  -1
M  CHG  1  17   1
M  CHG  1  19  -1
M  END
>  <Index>
1306

>  <ID>
HT3258

>  <class>
0

>  <apol>
30.179516

>  <ast_fraglike>
1

>  <ast_fraglike_ext>
0

>  <ast_violation>
0

>  <ast_violation_ext>
1

>  <a_acc>
1

>  <a_acid>
0

>  <a_aro>
0

>  <a_base>
0

>  <a_count>
31

>  <a_don>
0

>  <a_donacc>
1

>  <a_heavy>
19

>  <a_hyd>
9

>  <a_IC>
58.521435

>  <a_ICM>
1.8877883

>  <a_nB>
0

>  <a_nBr>
0

>  <a_nC>
6

>  <a_nCl>
0

>  <a_nF>
0

>  <a_nH>
12

>  <a_nI>
0

>  <a_nN>
4

>  <a_nO>
9

>  <a_nP>
0

>  <a_nS>
0

>  <balabanJ>
3.8549564

>  <BCUT_PEOE_0>
-2.6607904

>  <BCUT_PEOE_1>
-0.11930868

>  <BCUT_PEOE_2>
0.043934055

>  <BCUT_PEOE_3>
2.6007686

>  <BCUT_SLOGP_0>
-2.7923799

>  <BCUT_SLOGP_1>
0.0068368111

>  <BCUT_SLOGP_2>
0.123

>  <BCUT_SLOGP_3>
2.4700127

>  <BCUT_SMR_0>
-2.4050248

>  <BCUT_SMR_1>
0.1057

>  <BCUT_SMR_2>
0.33669999

>  <BCUT_SMR_3>
2.8453822

>  <bpol>
20.654484

>  <b_1rotN>
12

>  <b_1rotR>
0.66666669

>  <b_ar>
0

>  <b_count>
30

>  <b_double>
3

>  <b_heavy>
18

>  <b_max1len>
6

>  <b_rotN>
12

>  <b_rotR>
0.66666669

>  <b_single>
27

>  <b_triple>
0

>  <chi0>
14.673362

>  <chi0v>
9.7057295

>  <chi0v_C>
4.2426405

>  <chi0_C>
4.2426405

>  <chi1>
8.9135914

>  <chi1v>
4.9578762

>  <chi1v_C>
1.5

>  <chi1_C>
1.5

>  <chiral>
0

>  <chiral_u>
0

>  <density>
1.0197614

>  <diameter>
10

>  <FCharge>
0

>  <GCUT_PEOE_0>
-0.84905285

>  <GCUT_PEOE_1>
-0.30087602

>  <GCUT_PEOE_2>
-0.11606595

>  <GCUT_PEOE_3>
2.3910766

>  <GCUT_SLOGP_0>
-0.96678561

>  <GCUT_SLOGP_1>
-0.21619588

>  <GCUT_SLOGP_2>
-0.037

>  <GCUT_SLOGP_3>
2.2980866

>  <GCUT_SMR_0>
-0.54895431

>  <GCUT_SMR_1>
-0.054299999

>  <GCUT_SMR_2>
0.1767

>  <GCUT_SMR_3>
2.5921042

>  <Kier1>
19

>  <Kier2>
11.795918

>  <Kier3>
14.222222

>  <KierA1>
16.000002

>  <KierA2>
9.8322439

>  <KierA3>
11.760243

>  <KierFlex>
8.2797861

>  <lip_acc>
13

>  <lip_don>
0

>  <lip_druglike>
1

>  <lip_violation>
1

>  <logP(o/w)>
0.28400001

>  <logS>
-2.1689

>  <mr>
5.3565588

>  <mutagenic>
0

>  <nmol>
1

>  <opr_brigid>
0

>  <opr_leadlike>
0

>  <opr_nring>
0

>  <opr_nrot>
12

>  <opr_violation>
2

>  <PC+>
0

>  <PC->
0

>  <PEOE_PC+>
1.5041064

>  <PEOE_PC->
-1.5041064

>  <PEOE_RPC+>
0.16201507

>  <PEOE_RPC->
0.19917622

>  <PEOE_VSA+0>
90.761604

>  <PEOE_VSA+1>
44.853878

>  <PEOE_VSA+2>
0

>  <PEOE_VSA+3>
0

>  <PEOE_VSA+4>
27.69216

>  <PEOE_VSA+5>
0

>  <PEOE_VSA+6>
0

>  <PEOE_VSA-0>
0

>  <PEOE_VSA-1>
0

>  <PEOE_VSA-2>
101.79314

>  <PEOE_VSA-3>
17.707079

>  <PEOE_VSA-4>
0

>  <PEOE_VSA-5>
0

>  <PEOE_VSA-6>
0

>  <PEOE_VSA_FHYD>
0.90208137

>  <PEOE_VSA_FNEG>
0.42254916

>  <PEOE_VSA_FPNEG>
0

>  <PEOE_VSA_FPOL>
0.09791863

>  <PEOE_VSA_FPOS>
0.57745087

>  <PEOE_VSA_FPPOS>
0.09791863

>  <PEOE_VSA_HYD>
255.11571

>  <PEOE_VSA_NEG>
119.50022

>  <PEOE_VSA_PNEG>
0

>  <PEOE_VSA_POL>
27.69216

>  <PEOE_VSA_POS>
163.30765

>  <PEOE_VSA_PPOS>
27.69216

>  <petitjean>
0.5

>  <petitjeanSC>
1

>  <Q_PC+>
0

>  <Q_PC->
0

>  <Q_RPC+>
0

>  <Q_RPC->
0

>  <Q_VSA_FHYD>
1

>  <Q_VSA_FNEG>
0

>  <Q_VSA_FPNEG>
0

>  <Q_VSA_FPOL>
0

>  <Q_VSA_FPOS>
1

>  <Q_VSA_FPPOS>
0

>  <Q_VSA_HYD>
282.80786

>  <Q_VSA_NEG>
0

>  <Q_VSA_PNEG>
0

>  <Q_VSA_POL>
0

>  <Q_VSA_POS>
282.80786

>  <Q_VSA_PPOS>
0

>  <radius>
5

>  <reactive>
1

>  <rings>
0

>  <RPC+>
0

>  <RPC->
0

>  <rsynth>
1

>  <SlogP>
-1.0867

>  <SlogP_VSA0>
0

>  <SlogP_VSA1>
32.224159

>  <SlogP_VSA2>
33.656292

>  <SlogP_VSA3>
270.90253

>  <SlogP_VSA4>
0

>  <SlogP_VSA5>
0

>  <SlogP_VSA6>
0

>  <SlogP_VSA7>
0

>  <SlogP_VSA8>
0

>  <SlogP_VSA9>
0

>  <SMR>
5.5279198

>  <SMR_VSA0>
62.756138

>  <SMR_VSA1>
3.1243138

>  <SMR_VSA2>
152.80502

>  <SMR_VSA3>
0

>  <SMR_VSA4>
0

>  <SMR_VSA5>
0

>  <SMR_VSA6>
118.09751

>  <SMR_VSA7>
0

>  <TPSA>
168.39

>  <VAdjEq>
0.46811688

>  <VAdjMa>
5.1699252

>  <VDistEq>
3.2984779

>  <VDistMa>
8.1937637

>  <vdw_area>
282.80786

>  <vdw_vol>
278.67401

>  <vsa_acc>
0

>  <vsa_acid>
0

>  <vsa_base>
0

>  <vsa_don>
0

>  <vsa_hyd>
154.7661

>  <vsa_other>
119.50022

>  <vsa_pol>
0

>  <Weight>
284.181

>  <weinerPath>
876

>  <weinerPol>
18

>  <zagreb>
78

$$$$