O(C(CN1CCCCC1)COC(=O)Nc1ccccc1)C(=O)Nc1ccccc1
  MOE2013           2D

 29 31  0  0  1  0  0  0  0  0999 V2000
    0.0000    0.0000    0.0000 O   0  0  0  0  0  0  0  0  0  0  0  0
    0.7420    1.3040    0.0000 C   0  0  3  0  0  0  0  0  0  0  0  0
   -0.0160    2.5980    0.0000 C   0  0  0  0  0  0  0  0  0  0  0  0
    0.7250    3.9020    0.0000 N   0  0  0  0  0  0  0  0  0  0  0  0
   -0.0330    5.1960    0.0000 C   0  0  0  0  0  0  0  0  0  0  0  0
    0.7090    6.5000    0.0000 C   0  0  0  0  0  0  0  0  0  0  0  0
    2.2090    6.5090    0.0000 C   0  0  0  0  0  0  0  0  0  0  0  0
    2.9670    5.2150    0.0000 C   0  0  0  0  0  0  0  0  0  0  0  0
    2.2250    3.9110    0.0000 C   0  0  0  0  0  0  0  0  0  0  0  0
    2.2420    1.3130    0.0000 C   0  0  0  0  0  0  0  0  0  0  0  0
    3.0000    0.0190    0.0000 O   0  0  0  0  0  0  0  0  0  0  0  0
    4.5000    0.0290    0.0000 C   0  0  0  0  0  0  0  0  0  0  0  0
    5.2420    1.3320    0.0000 O   0  0  0  0  0  0  0  0  0  0  0  0
    5.2580   -1.2660    0.0000 N   0  0  0  0  0  0  0  0  0  0  0  0
    6.7580   -1.2560    0.0000 C   0  0  0  0  0  0  0  0  0  0  0  0
    7.5000    0.0480    0.0000 C   0  0  0  0  0  0  0  0  0  0  0  0
    9.0000    0.0570    0.0000 C   0  0  0  0  0  0  0  0  0  0  0  0
    9.7580   -1.2370    0.0000 C   0  0  0  0  0  0  0  0  0  0  0  0
    9.0160   -2.5410    0.0000 C   0  0  0  0  0  0  0  0  0  0  0  0
    7.5160   -2.5500    0.0000 C   0  0  0  0  0  0  0  0  0  0  0  0
   -1.5000   -0.0100    0.0000 C   0  0  0  0  0  0  0  0  0  0  0  0
   -2.2580    1.2850    0.0000 O   0  0  0  0  0  0  0  0  0  0  0  0
   -2.2420   -1.3130    0.0000 N   0  0  0  0  0  0  0  0  0  0  0  0
   -3.7420   -1.3230    0.0000 C   0  0  0  0  0  0  0  0  0  0  0  0
   -4.5000   -0.0290    0.0000 C   0  0  0  0  0  0  0  0  0  0  0  0
   -6.0000   -0.0380    0.0000 C   0  0  0  0  0  0  0  0  0  0  0  0
   -6.7420   -1.3420    0.0000 C   0  0  0  0  0  0  0  0  0  0  0  0
   -5.9830   -2.6360    0.0000 C   0  0  0  0  0  0  0  0  0  0  0  0
   -4.4830   -2.6270    0.0000 C   0  0  0  0  0  0  0  0  0  0  0  0
  1  2  1  0  0  0  0
  1 21  1  0  0  0  0
  2  3  1  0  0  0  0
  2 10  1  0  0  0  0
  3  4  1  0  0  0  0
  4  5  1  0  0  0  0
  4  9  1  0  0  0  0
  5  6  1  0  0  0  0
  6  7  1  0  0  0  0
  7  8  1  0  0  0  0
  8  9  1  0  0  0  0
 10 11  1  0  0  0  0
 11 12  1  0  0  0  0
 12 13  2  0  0  0  0
 12 14  1  0  0  0  0
 14 15  1  0  0  0  0
 15 16  1  0  0  0  0
 15 20  2  0  0  0  0
 16 17  2  0  0  0  0
 17 18  1  0  0  0  0
 18 19  2  0  0  0  0
 19 20  1  0  0  0  0
 21 22  2  0  0  0  0
 21 23  1  0  0  0  0
 23 24  1  0  0  0  0
 24 25  1  0  0  0  0
 24 29  2  0  0  0  0
 25 26  2  0  0  0  0
 26 27  1  0  0  0  0
 27 28  2  0  0  0  0
 28 29  1  0  0  0  0
M  END
>  <Index>
1370

>  <ID>
HT3750

>  <class>
0

>  <apol>
63.231411

>  <ast_fraglike>
0

>  <ast_fraglike_ext>
0

>  <ast_violation>
2

>  <ast_violation_ext>
3

>  <a_acc>
3

>  <a_acid>
0

>  <a_aro>
12

>  <a_base>
0

>  <a_count>
56

>  <a_don>
2

>  <a_donacc>
5

>  <a_heavy>
29

>  <a_hyd>
20

>  <a_IC>
85.967529

>  <a_ICM>
1.5351344

>  <a_nB>
0

>  <a_nBr>
0

>  <a_nC>
22

>  <a_nCl>
0

>  <a_nF>
0

>  <a_nH>
27

>  <a_nI>
0

>  <a_nN>
3

>  <a_nO>
4

>  <a_nP>
0

>  <a_nS>
0

>  <balabanJ>
1.434335

>  <BCUT_PEOE_0>
-2.7854974

>  <BCUT_PEOE_1>
-0.62817127

>  <BCUT_PEOE_2>
0.6886754

>  <BCUT_PEOE_3>
2.7104816

>  <BCUT_SLOGP_0>
-2.8315687

>  <BCUT_SLOGP_1>
-0.53807992

>  <BCUT_SLOGP_2>
0.79008609

>  <BCUT_SLOGP_3>
2.7403514

>  <BCUT_SMR_0>
-2.5187814

>  <BCUT_SMR_1>
-0.47861153

>  <BCUT_SMR_2>
0.83543766

>  <BCUT_SMR_3>
2.9685607

>  <bpol>
38.56459

>  <b_1rotN>
7

>  <b_1rotR>
0.22580644

>  <b_ar>
12

>  <b_count>
58

>  <b_double>
2

>  <b_heavy>
31

>  <b_max1len>
4

>  <b_rotN>
11

>  <b_rotR>
0.3548387

>  <b_single>
44

>  <b_triple>
0

>  <chi0>
20.313345

>  <chi0v>
16.380808

>  <chi0v_C>
13.3006

>  <chi0_C>
14.907567

>  <chi1>
14.186673

>  <chi1v>
9.9274206

>  <chi1v_C>
6.6378636

>  <chi1_C>
8.4494896

>  <chiral>
1

>  <chiral_u>
1

>  <density>
0.72479415

>  <diameter>
15

>  <FCharge>
0

>  <GCUT_PEOE_0>
-0.85161483

>  <GCUT_PEOE_1>
-0.38920116

>  <GCUT_PEOE_2>
0.081471361

>  <GCUT_PEOE_3>
2.6999238

>  <GCUT_SLOGP_0>
-0.9944694

>  <GCUT_SLOGP_1>
-0.26896843

>  <GCUT_SLOGP_2>
0.16445385

>  <GCUT_SLOGP_3>
2.7099285

>  <GCUT_SMR_0>
-0.5253703

>  <GCUT_SMR_1>
-0.21605732

>  <GCUT_SMR_2>
0.19305076

>  <GCUT_SMR_3>
2.9378655

>  <Kier1>
23.658689

>  <Kier2>
13.420118

>  <Kier3>
9.3471603

>  <KierA1>
17.930931

>  <KierA2>
10.063363

>  <KierA3>
6.9542594

>  <KierFlex>
6.2222576

>  <lip_acc>
7

>  <lip_don>
2

>  <lip_druglike>
1

>  <lip_violation>
0

>  <logP(o/w)>
3.39974

>  <logS>
-4.38908

>  <mr>
11.213341

>  <mutagenic>
0

>  <nmol>
1

>  <opr_brigid>
18

>  <opr_leadlike>
1

>  <opr_nring>
3

>  <opr_nrot>
9

>  <opr_violation>
0

>  <PC+>
0

>  <PC->
0

>  <PEOE_PC+>
2.6150267

>  <PEOE_PC->
-2.6150267

>  <PEOE_RPC+>
0.13973565

>  <PEOE_RPC->
0.11550152

>  <PEOE_VSA+0>
77.776062

>  <PEOE_VSA+1>
70.401314

>  <PEOE_VSA+2>
4.9049287

>  <PEOE_VSA+3>
17.238026

>  <PEOE_VSA+4>
0

>  <PEOE_VSA+5>
0

>  <PEOE_VSA+6>
38.399021

>  <PEOE_VSA-0>
92.806892

>  <PEOE_VSA-1>
82.230736

>  <PEOE_VSA-2>
0

>  <PEOE_VSA-3>
0

>  <PEOE_VSA-4>
27.133842

>  <PEOE_VSA-5>
5.0075121

>  <PEOE_VSA-6>
0.27378201

>  <PEOE_VSA_FHYD>
0.82984406

>  <PEOE_VSA_FNEG>
0.49847829

>  <PEOE_VSA_FPNEG>
0.077888772

>  <PEOE_VSA_FPOL>
0.17015594

>  <PEOE_VSA_FPOS>
0.50152171

>  <PEOE_VSA_FPPOS>
0.092267163

>  <PEOE_VSA_HYD>
345.35794

>  <PEOE_VSA_NEG>
207.45276

>  <PEOE_VSA_PNEG>
32.415134

>  <PEOE_VSA_POL>
70.814156

>  <PEOE_VSA_POS>
208.71935

>  <PEOE_VSA_PPOS>
38.399021

>  <petitjean>
0.46666667

>  <petitjeanSC>
0.875

>  <Q_PC+>
0

>  <Q_PC->
0

>  <Q_RPC+>
0

>  <Q_RPC->
0

>  <Q_VSA_FHYD>
1

>  <Q_VSA_FNEG>
0

>  <Q_VSA_FPNEG>
0

>  <Q_VSA_FPOL>
0

>  <Q_VSA_FPOS>
1

>  <Q_VSA_FPPOS>
0

>  <Q_VSA_HYD>
416.17212

>  <Q_VSA_NEG>
0

>  <Q_VSA_PNEG>
0

>  <Q_VSA_POL>
0

>  <Q_VSA_POS>
416.17212

>  <Q_VSA_PPOS>
0

>  <radius>
8

>  <reactive>
0

>  <rings>
3

>  <RPC+>
0

>  <RPC->
0

>  <rsynth>
1

>  <SlogP>
4.3383002

>  <SlogP_VSA0>
0

>  <SlogP_VSA1>
53.779087

>  <SlogP_VSA2>
28.468426

>  <SlogP_VSA3>
76.244995

>  <SlogP_VSA4>
0

>  <SlogP_VSA5>
0

>  <SlogP_VSA6>
0

>  <SlogP_VSA7>
176.43184

>  <SlogP_VSA8>
56.605217

>  <SlogP_VSA9>
53.237926

>  <SMR>
11.20374

>  <SMR_VSA0>
69.724205

>  <SMR_VSA1>
3.1243138

>  <SMR_VSA2>
0

>  <SMR_VSA3>
6.4686494

>  <SMR_VSA4>
41.534996

>  <SMR_VSA5>
233.03706

>  <SMR_VSA6>
90.878265

>  <SMR_VSA7>
0

>  <TPSA>
79.900002

>  <VAdjEq>
0.3796615

>  <VAdjMa>
5.9541965

>  <VDistEq>
3.6870291

>  <VDistMa>
9.4352055

>  <vdw_area>
416.17212

>  <vdw_vol>
548.39709

>  <vsa_acc>
27.133842

>  <vsa_acid>
0

>  <vsa_base>
0

>  <vsa_don>
11.365152

>  <vsa_hyd>
310.32504

>  <vsa_other>
43.406532

>  <vsa_pol>
38.498993

>  <Weight>
397.47501

>  <weinerPath>
2572

>  <weinerPol>
36

>  <zagreb>
140

$$$$