O1C(CO)C(O)C(O)C(O)C1OC1C(OC(OC2C(OC(OC3C(OC(OC4CC5CCC6C(CC(O)C7(C)C(CCC67O)c6cc(oc6)O)C5(CC4)C)CC3O)C)CC2O)C)CC1OC(=O)C)C
  MOE2013           2D

 69 77  0  0  1  0  0  0  0  0999 V2000
    0.0000    0.0000    0.0000 O   0  0  0  0  0  0  0  0  0  0  0  0
    0.7540   -1.2970    0.0000 C   0  0  3  0  0  0  0  0  0  0  0  0
    2.2540   -1.2920    0.0000 C   0  0  0  0  0  0  0  0  0  0  0  0
    3.0080   -2.5880    0.0000 O   0  0  0  0  0  0  0  0  0  0  0  0
    0.0080   -2.5980    0.0000 C   0  0  3  0  0  0  0  0  0  0  0  0
    0.7630   -3.8950    0.0000 O   0  0  0  0  0  0  0  0  0  0  0  0
   -1.4920   -2.6030    0.0000 C   0  0  3  0  0  0  0  0  0  0  0  0
   -2.2370   -3.9040    0.0000 O   0  0  0  0  0  0  0  0  0  0  0  0
   -2.2460   -1.3060    0.0000 C   0  0  3  0  0  0  0  0  0  0  0  0
   -3.7460   -1.3110    0.0000 O   0  0  0  0  0  0  0  0  0  0  0  0
   -1.5000   -0.0050    0.0000 C   0  0  3  0  0  0  0  0  0  0  0  0
   -2.2540    1.2920    0.0000 O   0  0  0  0  0  0  0  0  0  0  0  0
   -1.5080    2.5930    0.0000 C   0  0  3  0  0  0  0  0  0  0  0  0
   -0.0080    2.5980    0.0000 C   0  0  3  0  0  0  0  0  0  0  0  0
    0.7370    3.9000    0.0000 O   0  0  0  0  0  0  0  0  0  0  0  0
   -0.0170    5.1960    0.0000 C   0  0  3  0  0  0  0  0  0  0  0  0
    0.7290    6.4980    0.0000 O   0  0  0  0  0  0  0  0  0  0  0  0
    2.2290    6.5020    0.0000 C   0  0  3  0  0  0  0  0  0  0  0  0
    2.9750    7.8040    0.0000 C   0  0  3  0  0  0  0  0  0  0  0  0
    4.4750    7.8090    0.0000 O   0  0  0  0  0  0  0  0  0  0  0  0
    5.2290    6.5120    0.0000 C   0  0  3  0  0  0  0  0  0  0  0  0
    6.7290    6.5170    0.0000 O   0  0  0  0  0  0  0  0  0  0  0  0
    7.4750    7.8180    0.0000 C   0  0  3  0  0  0  0  0  0  0  0  0
    6.7210    9.1150    0.0000 C   0  0  3  0  0  0  0  0  0  0  0  0
    7.4660   10.4160    0.0000 O   0  0  0  0  0  0  0  0  0  0  0  0
    8.9660   10.4210    0.0000 C   0  0  3  0  0  0  0  0  0  0  0  0
    9.7120   11.7230    0.0000 O   0  0  0  0  0  0  0  0  0  0  0  0
   11.2120   11.7280    0.0000 C   0  0  3  0  0  0  0  0  0  0  0  0
   11.9580   13.0290    0.0000 C   0  0  0  0  0  0  0  0  0  0  0  0
   13.4580   13.0340    0.0000 C   0  0  3  0  0  0  0  0  0  0  0  0
   14.2040   14.3350    0.0000 C   0  0  0  0  0  0  0  0  0  0  0  0
   15.7040   14.3400    0.0000 C   0  0  0  0  0  0  0  0  0  0  0  0
   16.4580   13.0440    0.0000 C   0  0  3  0  0  0  0  0  0  0  0  0
   15.7120   11.7420    0.0000 C   0  0  3  0  0  0  0  0  0  0  0  0
   16.4660   10.4450    0.0000 C   0  0  0  0  0  0  0  0  0  0  0  0
   17.9660   10.4500    0.0000 C   0  0  3  0  0  0  0  0  0  0  0  0
   18.7210    9.1540    0.0000 O   0  0  0  0  0  0  0  0  0  0  0  0
   18.7120   11.7520    0.0000 C   0  0  3  0  0  0  0  0  0  0  0  0
   19.5550   10.5110    0.0000 C   0  0  0  0  0  0  0  0  0  0  0  0
   20.1780   12.0680    0.0000 C   0  0  3  0  0  0  0  0  0  0  0  0
   20.3300   13.5610    0.0000 C   0  0  0  0  0  0  0  0  0  0  0  0
   18.9580   14.1660    0.0000 C   0  0  0  0  0  0  0  0  0  0  0  0
   17.9580   13.0480    0.0000 C   0  0  3  0  0  0  0  0  0  0  0  0
   17.3430   14.4170    0.0000 O   0  0  0  0  0  0  0  0  0  0  0  0
   21.2960   11.0680    0.0000 C   0  0  0  0  0  0  0  0  0  0  0  0
   22.7630   11.3850    0.0000 C   0  0  0  0  0  0  0  0  0  0  0  0
   23.5170   10.0880    0.0000 C   0  0  0  0  0  0  0  0  0  0  0  0
   22.5170    8.9700    0.0000 O   0  0  0  0  0  0  0  0  0  0  0  0
   21.1440    9.5760    0.0000 C   0  0  0  0  0  0  0  0  0  0  0  0
   25.0090    9.9360    0.0000 O   0  0  0  0  0  0  0  0  0  0  0  0
   14.2120   11.7370    0.0000 C   0  0  3  0  0  0  0  0  0  0  0  0
   13.4660   10.4360    0.0000 C   0  0  0  0  0  0  0  0  0  0  0  0
   11.9660   10.4310    0.0000 C   0  0  0  0  0  0  0  0  0  0  0  0
   14.9440   10.4280    0.0000 C   0  0  0  0  0  0  0  0  0  0  0  0
    9.7210    9.1250    0.0000 C   0  0  0  0  0  0  0  0  0  0  0  0
    8.9750    7.8230    0.0000 C   0  0  3  0  0  0  0  0  0  0  0  0
    9.7290    6.5270    0.0000 O   0  0  0  0  0  0  0  0  0  0  0  0
    5.2210    9.1100    0.0000 C   0  0  0  0  0  0  0  0  0  0  0  0
    4.4830    5.2110    0.0000 C   0  0  0  0  0  0  0  0  0  0  0  0
    2.9830    5.2060    0.0000 C   0  0  3  0  0  0  0  0  0  0  0  0
    2.2370    3.9040    0.0000 O   0  0  0  0  0  0  0  0  0  0  0  0
    2.2210    9.1000    0.0000 C   0  0  0  0  0  0  0  0  0  0  0  0
   -1.5170    5.1910    0.0000 C   0  0  0  0  0  0  0  0  0  0  0  0
   -2.2630    3.8900    0.0000 C   0  0  3  0  0  0  0  0  0  0  0  0
   -3.7630    3.8850    0.0000 O   0  0  0  0  0  0  0  0  0  0  0  0
   -4.5170    5.1820    0.0000 C   0  0  0  0  0  0  0  0  0  0  0  0
   -3.7710    6.4830    0.0000 O   0  0  0  0  0  0  0  0  0  0  0  0
   -6.0170    5.1770    0.0000 C   0  0  0  0  0  0  0  0  0  0  0  0
    0.7460    1.3010    0.0000 C   0  0  0  0  0  0  0  0  0  0  0  0
  1  2  1  0  0  0  0
  1 11  1  0  0  0  0
  2  3  1  0  0  0  0
  2  5  1  0  0  0  0
  3  4  1  0  0  0  0
  5  6  1  0  0  0  0
  5  7  1  0  0  0  0
  7  8  1  0  0  0  0
  7  9  1  0  0  0  0
  9 10  1  0  0  0  0
  9 11  1  0  0  0  0
 11 12  1  0  0  0  0
 12 13  1  0  0  0  0
 13 14  1  0  0  0  0
 13 64  1  0  0  0  0
 14 15  1  0  0  0  0
 14 69  1  0  0  0  0
 15 16  1  0  0  0  0
 16 17  1  0  0  0  0
 16 63  1  0  0  0  0
 17 18  1  0  0  0  0
 18 19  1  0  0  0  0
 18 60  1  0  0  0  0
 19 20  1  0  0  0  0
 19 62  1  0  0  0  0
 20 21  1  0  0  0  0
 21 22  1  0  0  0  0
 21 59  1  0  0  0  0
 22 23  1  0  0  0  0
 23 24  1  0  0  0  0
 23 56  1  0  0  0  0
 24 25  1  0  0  0  0
 24 58  1  0  0  0  0
 25 26  1  0  0  0  0
 26 27  1  0  0  0  0
 26 55  1  0  0  0  0
 27 28  1  0  0  0  0
 28 29  1  0  0  0  0
 28 53  1  0  0  0  0
 29 30  1  0  0  0  0
 30 31  1  0  0  0  0
 30 51  1  0  0  0  0
 31 32  1  0  0  0  0
 32 33  1  0  0  0  0
 33 34  1  0  0  0  0
 33 43  1  0  0  0  0
 34 35  1  0  0  0  0
 34 51  1  0  0  0  0
 35 36  1  0  0  0  0
 36 37  1  0  0  0  0
 36 38  1  0  0  0  0
 38 39  1  0  0  0  0
 38 40  1  0  0  0  0
 38 43  1  0  0  0  0
 40 41  1  0  0  0  0
 40 45  1  0  0  0  0
 41 42  1  0  0  0  0
 42 43  1  0  0  0  0
 43 44  1  0  0  0  0
 45 46  1  0  0  0  0
 45 49  2  0  0  0  0
 46 47  2  0  0  0  0
 47 48  1  0  0  0  0
 47 50  1  0  0  0  0
 48 49  1  0  0  0  0
 51 52  1  0  0  0  0
 51 54  1  0  0  0  0
 52 53  1  0  0  0  0
 55 56  1  0  0  0  0
 56 57  1  0  0  0  0
 59 60  1  0  0  0  0
 60 61  1  0  0  0  0
 63 64  1  0  0  0  0
 64 65  1  0  0  0  0
 65 66  1  0  0  0  0
 66 67  2  0  0  0  0
 66 68  1  0  0  0  0
M  END
>  <Index>
1419

>  <ID>
HT4028

>  <class>
0

>  <apol>
152.95627

>  <ast_fraglike>
0

>  <ast_fraglike_ext>
0

>  <ast_violation>
3

>  <ast_violation_ext>
5

>  <a_acc>
18

>  <a_acid>
0

>  <a_aro>
5

>  <a_base>
0

>  <a_count>
145

>  <a_don>
9

>  <a_donacc>
27

>  <a_heavy>
69

>  <a_hyd>
42

>  <a_IC>
204.68498

>  <a_ICM>
1.4116206

>  <a_nB>
0

>  <a_nBr>
0

>  <a_nC>
49

>  <a_nCl>
0

>  <a_nF>
0

>  <a_nH>
76

>  <a_nI>
0

>  <a_nN>
0

>  <a_nO>
20

>  <a_nP>
0

>  <a_nS>
0

>  <balabanJ>
0.74852246

>  <BCUT_PEOE_0>
-2.991538

>  <BCUT_PEOE_1>
-0.54682338

>  <BCUT_PEOE_2>
0.60895216

>  <BCUT_PEOE_3>
3.0033145

>  <BCUT_SLOGP_0>
-2.9588227

>  <BCUT_SLOGP_1>
-0.53286886

>  <BCUT_SLOGP_2>
0.54675454

>  <BCUT_SLOGP_3>
3.0454385

>  <BCUT_SMR_0>
-2.7457535

>  <BCUT_SMR_1>
-0.43654481

>  <BCUT_SMR_2>
0.71714425

>  <BCUT_SMR_3>
3.2447016

>  <bpol>
103.20173

>  <b_1rotN>
11

>  <b_1rotR>
0.14285715

>  <b_ar>
5

>  <b_count>
153

>  <b_double>
1

>  <b_heavy>
77

>  <b_max1len>
4

>  <b_rotN>
12

>  <b_rotR>
0.15584415

>  <b_single>
147

>  <b_triple>
0

>  <chi0>
49.48167

>  <chi0v>
40.434692

>  <chi0v_C>
31.919039

>  <chi0_C>
32.410603

>  <chi1>
32.64098

>  <chi1v>
25.245274

>  <chi1v_C>
18.077625

>  <chi1_C>
18.558353

>  <chiral>
26

>  <chiral_u>
26

>  <density>
0.78274739

>  <diameter>
33

>  <FCharge>
0

>  <GCUT_PEOE_0>
-0.81431669

>  <GCUT_PEOE_1>
-0.39240837

>  <GCUT_PEOE_2>
0.083478779

>  <GCUT_PEOE_3>
3.603842

>  <GCUT_SLOGP_0>
-0.95305228

>  <GCUT_SLOGP_1>
-0.37804118

>  <GCUT_SLOGP_2>
-0.0059257075

>  <GCUT_SLOGP_3>
3.647388

>  <GCUT_SMR_0>
-0.54051751

>  <GCUT_SMR_1>
-0.24114513

>  <GCUT_SMR_2>
0.15151654

>  <GCUT_SMR_3>
3.8149667

>  <Kier1>
53.812786

>  <Kier2>
21.198055

>  <Kier3>
10.129886

>  <KierA1>
51.89859

>  <KierA2>
20.432949

>  <KierA3>
9.7605991

>  <KierFlex>
15.368712

>  <lip_acc>
20

>  <lip_don>
9

>  <lip_druglike>
0

>  <lip_violation>
3

>  <logP(o/w)>
2.33374

>  <logS>
-6.4190402

>  <mr>
23.865

>  <mutagenic>
0

>  <nmol>
1

>  <opr_brigid>
49

>  <opr_leadlike>
0

>  <opr_nring>
9

>  <opr_nrot>
19

>  <opr_violation>
5

>  <PC+>
0

>  <PC->
0

>  <PEOE_PC+>
7.8039241

>  <PEOE_PC->
-7.8039241

>  <PEOE_RPC+>
0.033236742

>  <PEOE_RPC->
0.056592651

>  <PEOE_VSA+0>
244.78351

>  <PEOE_VSA+1>
161.62917

>  <PEOE_VSA+2>
43.504818

>  <PEOE_VSA+3>
44.619633

>  <PEOE_VSA+4>
107.62605

>  <PEOE_VSA+5>
14.708499

>  <PEOE_VSA+6>
0

>  <PEOE_VSA-0>
128.06207

>  <PEOE_VSA-1>
37.495354

>  <PEOE_VSA-2>
0

>  <PEOE_VSA-3>
0

>  <PEOE_VSA-4>
0

>  <PEOE_VSA-5>
13.566921

>  <PEOE_VSA-6>
94.945427

>  <PEOE_VSA_FHYD>
0.74089557

>  <PEOE_VSA_FNEG>
0.30761817

>  <PEOE_VSA_FPNEG>
0.12179515

>  <PEOE_VSA_FPOL>
0.25910446

>  <PEOE_VSA_FPOS>
0.69238186

>  <PEOE_VSA_FPPOS>
0.1373093

>  <PEOE_VSA_HYD>
660.09454

>  <PEOE_VSA_NEG>
274.06976

>  <PEOE_VSA_PNEG>
108.51234

>  <PEOE_VSA_POL>
230.84689

>  <PEOE_VSA_POS>
616.8717

>  <PEOE_VSA_PPOS>
122.33455

>  <petitjean>
0.4848485

>  <petitjeanSC>
0.94117647

>  <Q_PC+>
0

>  <Q_PC->
0

>  <Q_RPC+>
0

>  <Q_RPC->
0

>  <Q_VSA_FHYD>
1

>  <Q_VSA_FNEG>
0

>  <Q_VSA_FPNEG>
0

>  <Q_VSA_FPOL>
0

>  <Q_VSA_FPOS>
1

>  <Q_VSA_FPPOS>
0

>  <Q_VSA_HYD>
890.94147

>  <Q_VSA_NEG>
0

>  <Q_VSA_PNEG>
0

>  <Q_VSA_POL>
0

>  <Q_VSA_POS>
890.94147

>  <Q_VSA_PPOS>
0

>  <radius>
17

>  <reactive>
1

>  <rings>
9

>  <RPC+>
0

>  <RPC->
0

>  <rsynth>
0.60869563

>  <SlogP>
1.5961

>  <SlogP_VSA0>
228.46704

>  <SlogP_VSA1>
7.7454643

>  <SlogP_VSA2>
253.99695

>  <SlogP_VSA3>
20.926258

>  <SlogP_VSA4>
16.417963

>  <SlogP_VSA5>
9.5073462

>  <SlogP_VSA6>
4.4107962

>  <SlogP_VSA7>
37.549614

>  <SlogP_VSA8>
207.55246

>  <SlogP_VSA9>
207.46277

>  <SMR>
23.537319

>  <SMR_VSA0>
132.36856

>  <SMR_VSA1>
228.46704

>  <SMR_VSA2>
13.232388

>  <SMR_VSA3>
146.2388

>  <SMR_VSA4>
0

>  <SMR_VSA5>
245.10208

>  <SMR_VSA6>
28.671722

>  <SMR_VSA7>
199.95609

>  <TPSA>
295.35001

>  <VAdjEq>
0.20602453

>  <VAdjMa>
7.2667866

>  <VDistEq>
4.8131828

>  <VDistMa>
11.875514

>  <vdw_area>
890.94147

>  <vdw_vol>
1258.5503

>  <vsa_acc>
33.59697

>  <vsa_acid>
0

>  <vsa_base>
0

>  <vsa_don>
0

>  <vsa_hyd>
526.13159

>  <vsa_other>
115.31698

>  <vsa_pol>
155.69926

>  <Weight>
985.12695

>  <weinerPath>
28756

>  <weinerPol>
140

>  <zagreb>
394

$$$$