O(OC(=O)c1ccccc1)C(=O)c1ccccc1
  MOE2013           2D

 18 19  0  0  0  0  0  0  0  0999 V2000
    0.0000    0.0000    0.0000 O   0  0  0  0  0  0  0  0  0  0  0  0
    1.5000   -0.0030    0.0000 O   0  0  0  0  0  0  0  0  0  0  0  0
    2.2530    1.2940    0.0000 C   0  0  0  0  0  0  0  0  0  0  0  0
    1.5060    2.5950    0.0000 O   0  0  0  0  0  0  0  0  0  0  0  0
    3.7530    1.2910    0.0000 C   0  0  0  0  0  0  0  0  0  0  0  0
    4.5000   -0.0100    0.0000 C   0  0  0  0  0  0  0  0  0  0  0  0
    6.0000   -0.0130    0.0000 C   0  0  0  0  0  0  0  0  0  0  0  0
    6.7530    1.2850    0.0000 C   0  0  0  0  0  0  0  0  0  0  0  0
    6.0060    2.5850    0.0000 C   0  0  0  0  0  0  0  0  0  0  0  0
    4.5060    2.5880    0.0000 C   0  0  0  0  0  0  0  0  0  0  0  0
   -0.7530   -1.2970    0.0000 C   0  0  0  0  0  0  0  0  0  0  0  0
   -0.0060   -2.5980    0.0000 O   0  0  0  0  0  0  0  0  0  0  0  0
   -2.2530   -1.2940    0.0000 C   0  0  0  0  0  0  0  0  0  0  0  0
   -3.0000    0.0060    0.0000 C   0  0  0  0  0  0  0  0  0  0  0  0
   -4.5000    0.0100    0.0000 C   0  0  0  0  0  0  0  0  0  0  0  0
   -5.2530   -1.2880    0.0000 C   0  0  0  0  0  0  0  0  0  0  0  0
   -4.5060   -2.5880    0.0000 C   0  0  0  0  0  0  0  0  0  0  0  0
   -3.0060   -2.5920    0.0000 C   0  0  0  0  0  0  0  0  0  0  0  0
  1  2  1  0  0  0  0
  1 11  1  0  0  0  0
  2  3  1  0  0  0  0
  3  4  2  0  0  0  0
  3  5  1  0  0  0  0
  5  6  1  0  0  0  0
  5 10  2  0  0  0  0
  6  7  2  0  0  0  0
  7  8  1  0  0  0  0
  8  9  2  0  0  0  0
  9 10  1  0  0  0  0
 11 12  2  0  0  0  0
 11 13  1  0  0  0  0
 13 14  1  0  0  0  0
 13 18  2  0  0  0  0
 14 15  2  0  0  0  0
 15 16  1  0  0  0  0
 16 17  2  0  0  0  0
 17 18  1  0  0  0  0
M  END
>  <Index>
125

>  <ID>
HT0252

>  <class>
0

>  <apol>
34.51593

>  <ast_fraglike>
1

>  <ast_fraglike_ext>
1

>  <ast_violation>
0

>  <ast_violation_ext>
0

>  <a_acc>
2

>  <a_acid>
0

>  <a_aro>
12

>  <a_base>
0

>  <a_count>
28

>  <a_don>
0

>  <a_donacc>
2

>  <a_heavy>
18

>  <a_hyd>
12

>  <a_IC>
40.083687

>  <a_ICM>
1.4315603

>  <a_nB>
0

>  <a_nBr>
0

>  <a_nC>
14

>  <a_nCl>
0

>  <a_nF>
0

>  <a_nH>
10

>  <a_nI>
0

>  <a_nN>
0

>  <a_nO>
4

>  <a_nP>
0

>  <a_nS>
0

>  <balabanJ>
1.6656952

>  <BCUT_PEOE_0>
-2.179553

>  <BCUT_PEOE_1>
-0.64750725

>  <BCUT_PEOE_2>
0.69894296

>  <BCUT_PEOE_3>
2.2175646

>  <BCUT_SLOGP_0>
-2.1706071

>  <BCUT_SLOGP_1>
-0.53807992

>  <BCUT_SLOGP_2>
0.80591482

>  <BCUT_SLOGP_3>
2.2808094

>  <BCUT_SMR_0>
-1.8818003

>  <BCUT_SMR_1>
-0.49986199

>  <BCUT_SMR_2>
0.85431087

>  <BCUT_SMR_3>
2.5047369

>  <bpol>
14.76407

>  <b_1rotN>
3

>  <b_1rotR>
0.15789473

>  <b_ar>
12

>  <b_count>
29

>  <b_double>
2

>  <b_heavy>
19

>  <b_max1len>
1

>  <b_rotN>
5

>  <b_rotR>
0.2631579

>  <b_single>
15

>  <b_triple>
0

>  <chi0>
12.794683

>  <chi0v>
9.406496

>  <chi0v_C>
7.7735028

>  <chi0_C>
9.3804693

>  <chi1>
8.7708569

>  <chi1v>
5.3045306

>  <chi1v_C>
4.3213673

>  <chi1_C>
6.2996597

>  <chiral>
0

>  <chiral_u>
0

>  <density>
0.76944852

>  <diameter>
11

>  <FCharge>
0

>  <GCUT_PEOE_0>
-0.7470457

>  <GCUT_PEOE_1>
-0.38752839

>  <GCUT_PEOE_2>
0.08014828

>  <GCUT_PEOE_3>
2.1570807

>  <GCUT_SLOGP_0>
-0.81581825

>  <GCUT_SLOGP_1>
-0.26386139

>  <GCUT_SLOGP_2>
0.16445385

>  <GCUT_SLOGP_3>
2.2354896

>  <GCUT_SMR_0>
-0.43943968

>  <GCUT_SMR_1>
-0.21605732

>  <GCUT_SMR_2>
0.19305076

>  <GCUT_SMR_3>
2.4380603

>  <Kier1>
14.409972

>  <Kier2>
7.5555553

>  <Kier3>
4.5659928

>  <KierA1>
9.663084

>  <KierA2>
4.9349594

>  <KierA3>
2.9244299

>  <KierFlex>
2.6492739

>  <lip_acc>
4

>  <lip_don>
0

>  <lip_druglike>
1

>  <lip_violation>
0

>  <logP(o/w)>
3.454

>  <logS>
-4.0545998

>  <mr>
6.6972742

>  <mutagenic>
0

>  <nmol>
1

>  <opr_brigid>
12

>  <opr_leadlike>
1

>  <opr_nring>
2

>  <opr_nrot>
3

>  <opr_violation>
0

>  <PC+>
0

>  <PC->
0

>  <PEOE_PC+>
1.3646642

>  <PEOE_PC->
-1.3646642

>  <PEOE_RPC+>
0.23671652

>  <PEOE_RPC->
0.1880708

>  <PEOE_VSA+0>
4.4170794

>  <PEOE_VSA+1>
42.653858

>  <PEOE_VSA+2>
0

>  <PEOE_VSA+3>
0

>  <PEOE_VSA+4>
0

>  <PEOE_VSA+5>
0

>  <PEOE_VSA+6>
29.416998

>  <PEOE_VSA-0>
49.019615

>  <PEOE_VSA-1>
73.529427

>  <PEOE_VSA-2>
14.466941

>  <PEOE_VSA-3>
0

>  <PEOE_VSA-4>
0

>  <PEOE_VSA-5>
27.133842

>  <PEOE_VSA-6>
0

>  <PEOE_VSA_FHYD>
0.76499599

>  <PEOE_VSA_FNEG>
0.68214488

>  <PEOE_VSA_FPNEG>
0.11275804

>  <PEOE_VSA_FPOL>
0.23500402

>  <PEOE_VSA_FPOS>
0.31785509

>  <PEOE_VSA_FPPOS>
0.12224598

>  <PEOE_VSA_HYD>
184.08691

>  <PEOE_VSA_NEG>
164.14983

>  <PEOE_VSA_PNEG>
27.133842

>  <PEOE_VSA_POL>
56.550838

>  <PEOE_VSA_POS>
76.487938

>  <PEOE_VSA_PPOS>
29.416998

>  <petitjean>
0.45454547

>  <petitjeanSC>
0.83333331

>  <Q_PC+>
0

>  <Q_PC->
0

>  <Q_RPC+>
0

>  <Q_RPC->
0

>  <Q_VSA_FHYD>
1

>  <Q_VSA_FNEG>
0

>  <Q_VSA_FPNEG>
0

>  <Q_VSA_FPOL>
0

>  <Q_VSA_FPOS>
1

>  <Q_VSA_FPPOS>
0

>  <Q_VSA_HYD>
240.63776

>  <Q_VSA_NEG>
0

>  <Q_VSA_PNEG>
0

>  <Q_VSA_POL>
0

>  <Q_VSA_POS>
240.63776

>  <Q_VSA_PPOS>
0

>  <radius>
6

>  <reactive>
1

>  <rings>
2

>  <RPC+>
0

>  <RPC->
0

>  <rsynth>
1

>  <SlogP>
2.6154001

>  <SlogP_VSA0>
0

>  <SlogP_VSA1>
15.490929

>  <SlogP_VSA2>
27.431234

>  <SlogP_VSA3>
0

>  <SlogP_VSA4>
54.095581

>  <SlogP_VSA5>
0

>  <SlogP_VSA6>
0

>  <SlogP_VSA7>
176.43184

>  <SlogP_VSA8>
0

>  <SlogP_VSA9>
0

>  <SMR>
6.3715

>  <SMR_VSA0>
75.15567

>  <SMR_VSA1>
0

>  <SMR_VSA2>
0

>  <SMR_VSA3>
6.37115

>  <SMR_VSA4>
0

>  <SMR_VSA5>
176.43184

>  <SMR_VSA6>
15.490929

>  <SMR_VSA7>
0

>  <TPSA>
52.599998

>  <VAdjEq>
0.52150291

>  <VAdjMa>
5.2479277

>  <VDistEq>
3.2346704

>  <VDistMa>
8.0095797

>  <vdw_area>
240.63776

>  <vdw_vol>
314.80988

>  <vsa_acc>
27.133842

>  <vsa_acid>
0

>  <vsa_base>
0

>  <vsa_don>
0

>  <vsa_hyd>
162.50203

>  <vsa_other>
43.883938

>  <vsa_pol>
27.133842

>  <Weight>
242.23

>  <weinerPath>
689

>  <weinerPol>
23

>  <zagreb>
86

$$$$