Clc1cc2c(Sc3c(N=C2N2CCN(CC2)C)cccc3)cc1
  MOE2013           2D

 23 26  0  0  0  0  0  0  0  0999 V2000
    0.0000    0.0000    0.0000 Cl  0  0  0  0  0  0  0  0  0  0  0  0
   -1.3000   -0.7480    0.0000 C   0  0  0  0  0  0  0  0  0  0  0  0
   -1.3020   -2.2480    0.0000 C   0  0  0  0  0  0  0  0  0  0  0  0
   -2.6020   -2.9970    0.0000 C   0  0  0  0  0  0  0  0  0  0  0  0
   -3.9000   -2.2450    0.0000 C   0  0  0  0  0  0  0  0  0  0  0  0
   -5.2970   -2.7910    0.0000 S   0  0  0  0  0  0  0  0  0  0  0  0
   -5.7400   -4.2240    0.0000 C   0  0  0  0  0  0  0  0  0  0  0  0
   -4.8960   -5.4640    0.0000 C   0  0  0  0  0  0  0  0  0  0  0  0
   -3.4000   -5.5800    0.0000 N   0  0  0  0  0  0  0  0  0  0  0  0
   -2.3790   -4.4800    0.0000 C   0  0  0  0  0  0  0  0  0  0  0  0
   -0.9460   -4.9230    0.0000 N   0  0  0  0  0  0  0  0  0  0  0  0
    0.1540   -3.9030    0.0000 C   0  0  0  0  0  0  0  0  0  0  0  0
    1.5870   -4.3460    0.0000 C   0  0  0  0  0  0  0  0  0  0  0  0
    1.9200   -5.8090    0.0000 N   0  0  0  0  0  0  0  0  0  0  0  0
    0.8200   -6.8280    0.0000 C   0  0  0  0  0  0  0  0  0  0  0  0
   -0.6130   -6.3860    0.0000 C   0  0  0  0  0  0  0  0  0  0  0  0
    3.3530   -6.2510    0.0000 C   0  0  0  0  0  0  0  0  0  0  0  0
   -5.5480   -6.8150    0.0000 C   0  0  0  0  0  0  0  0  0  0  0  0
   -7.0440   -6.9260    0.0000 C   0  0  0  0  0  0  0  0  0  0  0  0
   -7.8880   -5.6860    0.0000 C   0  0  0  0  0  0  0  0  0  0  0  0
   -7.2360   -4.3350    0.0000 C   0  0  0  0  0  0  0  0  0  0  0  0
   -3.8980   -0.7450    0.0000 C   0  0  0  0  0  0  0  0  0  0  0  0
   -2.5980    0.0030    0.0000 C   0  0  0  0  0  0  0  0  0  0  0  0
  1  2  1  0  0  0  0
  2  3  1  0  0  0  0
  2 23  2  0  0  0  0
  3  4  2  0  0  0  0
  4  5  1  0  0  0  0
  4 10  1  0  0  0  0
  5  6  1  0  0  0  0
  5 22  2  0  0  0  0
  6  7  1  0  0  0  0
  7  8  1  0  0  0  0
  7 21  2  0  0  0  0
  8  9  1  0  0  0  0
  8 18  2  0  0  0  0
  9 10  2  0  0  0  0
 10 11  1  0  0  0  0
 11 12  1  0  0  0  0
 11 16  1  0  0  0  0
 12 13  1  0  0  0  0
 13 14  1  0  0  0  0
 14 15  1  0  0  0  0
 14 17  1  0  0  0  0
 15 16  1  0  0  0  0
 18 19  1  0  0  0  0
 19 20  2  0  0  0  0
 20 21  1  0  0  0  0
 22 23  1  0  0  0  0
M  END
>  <Index>
1347

>  <ID>
HT3574

>  <class>
0

>  <apol>
52.062275

>  <ast_fraglike>
0

>  <ast_fraglike_ext>
0

>  <ast_violation>
2

>  <ast_violation_ext>
2

>  <a_acc>
2

>  <a_acid>
0

>  <a_aro>
12

>  <a_base>
0

>  <a_count>
41

>  <a_don>
0

>  <a_donacc>
2

>  <a_heavy>
23

>  <a_hyd>
19

>  <a_IC>
64.787445

>  <a_ICM>
1.5801816

>  <a_nB>
0

>  <a_nBr>
0

>  <a_nC>
18

>  <a_nCl>
1

>  <a_nF>
0

>  <a_nH>
18

>  <a_nI>
0

>  <a_nN>
3

>  <a_nO>
0

>  <a_nP>
0

>  <a_nS>
1

>  <balabanJ>
1.5550704

>  <BCUT_PEOE_0>
-2.7493143

>  <BCUT_PEOE_1>
-0.58428842

>  <BCUT_PEOE_2>
0.611754

>  <BCUT_PEOE_3>
2.644865

>  <BCUT_SLOGP_0>
-2.8711319

>  <BCUT_SLOGP_1>
-0.41745567

>  <BCUT_SLOGP_2>
0.79542172

>  <BCUT_SLOGP_3>
2.541903

>  <BCUT_SMR_0>
-2.4586399

>  <BCUT_SMR_1>
-0.36679316

>  <BCUT_SMR_2>
0.83928043

>  <BCUT_SMR_3>
2.9276671

>  <bpol>
27.657726

>  <b_1rotN>
1

>  <b_1rotR>
0.03846154

>  <b_ar>
12

>  <b_count>
44

>  <b_double>
1

>  <b_heavy>
26

>  <b_max1len>
2

>  <b_rotN>
1

>  <b_rotR>
0.03846154

>  <b_single>
31

>  <b_triple>
0

>  <chi0>
15.811191

>  <chi0v>
14.570158

>  <chi0v_C>
10.869879

>  <chi0_C>
12.242276

>  <chi1>
11.20351

>  <chi1v>
8.9900208

>  <chi1v_C>
4.8153839

>  <chi1_C>
6.4494896

>  <chiral>
0

>  <chiral_u>
0

>  <density>
0.77065009

>  <diameter>
10

>  <FCharge>
0

>  <GCUT_PEOE_0>
-0.86637259

>  <GCUT_PEOE_1>
-0.39737719

>  <GCUT_PEOE_2>
0.048050985

>  <GCUT_PEOE_3>
2.6765428

>  <GCUT_SLOGP_0>
-0.96652997

>  <GCUT_SLOGP_1>
-0.2651431

>  <GCUT_SLOGP_2>
0.18701702

>  <GCUT_SLOGP_3>
2.7600291

>  <GCUT_SMR_0>
-0.51366204

>  <GCUT_SMR_1>
-0.17408641

>  <GCUT_SMR_2>
0.2439225

>  <GCUT_SMR_3>
2.980252

>  <Kier1>
16.467455

>  <Kier2>
7.0869246

>  <Kier3>
3.52

>  <KierA1>
14.202929

>  <KierA2>
6.0689764

>  <KierA3>
2.9981685

>  <KierFlex>
3.7477064

>  <lip_acc>
3

>  <lip_don>
0

>  <lip_druglike>
1

>  <lip_violation>
0

>  <logP(o/w)>
3.9389999

>  <logS>
-5.32443

>  <mr>
9.6883879

>  <mutagenic>
0

>  <nmol>
1

>  <opr_brigid>
23

>  <opr_leadlike>
1

>  <opr_nring>
4

>  <opr_nrot>
3

>  <opr_violation>
0

>  <PC+>
0

>  <PC->
0

>  <PEOE_PC+>
1.3877392

>  <PEOE_PC->
-1.3877392

>  <PEOE_RPC+>
0.099894188

>  <PEOE_RPC->
0.25432509

>  <PEOE_VSA+0>
97.724487

>  <PEOE_VSA+1>
53.618797

>  <PEOE_VSA+2>
11.190562

>  <PEOE_VSA+3>
0

>  <PEOE_VSA+4>
0

>  <PEOE_VSA+5>
0

>  <PEOE_VSA+6>
0

>  <PEOE_VSA-0>
84.513206

>  <PEOE_VSA-1>
73.852371

>  <PEOE_VSA-2>
0

>  <PEOE_VSA-3>
0

>  <PEOE_VSA-4>
5.6825762

>  <PEOE_VSA-5>
0

>  <PEOE_VSA-6>
0

>  <PEOE_VSA_FHYD>
0.98259985

>  <PEOE_VSA_FNEG>
0.50231844

>  <PEOE_VSA_FPNEG>
0.017400151

>  <PEOE_VSA_FPOL>
0.017400151

>  <PEOE_VSA_FPOS>
0.49768159

>  <PEOE_VSA_FPPOS>
0

>  <PEOE_VSA_HYD>
320.89944

>  <PEOE_VSA_NEG>
164.04816

>  <PEOE_VSA_PNEG>
5.6825762

>  <PEOE_VSA_POL>
5.6825762

>  <PEOE_VSA_POS>
162.53384

>  <PEOE_VSA_PPOS>
0

>  <petitjean>
0.5

>  <petitjeanSC>
1

>  <Q_PC+>
0

>  <Q_PC->
0

>  <Q_RPC+>
0

>  <Q_RPC->
0

>  <Q_VSA_FHYD>
1

>  <Q_VSA_FNEG>
0

>  <Q_VSA_FPNEG>
0

>  <Q_VSA_FPOL>
0

>  <Q_VSA_FPOS>
1

>  <Q_VSA_FPPOS>
0

>  <Q_VSA_HYD>
326.582

>  <Q_VSA_NEG>
0

>  <Q_VSA_PNEG>
0

>  <Q_VSA_POL>
0

>  <Q_VSA_POS>
326.582

>  <Q_VSA_PPOS>
0

>  <radius>
5

>  <reactive>
0

>  <rings>
4

>  <RPC+>
0

>  <RPC->
0

>  <rsynth>
1

>  <SlogP>
4.1303

>  <SlogP_VSA0>
0

>  <SlogP_VSA1>
8.5765476

>  <SlogP_VSA2>
0

>  <SlogP_VSA3>
73.758316

>  <SlogP_VSA4>
3.185575

>  <SlogP_VSA5>
52.784184

>  <SlogP_VSA6>
3.5006065

>  <SlogP_VSA7>
123.50229

>  <SlogP_VSA8>
0

>  <SlogP_VSA9>
74.124931

>  <SMR>
9.7285004

>  <SMR_VSA0>
0

>  <SMR_VSA1>
23.034157

>  <SMR_VSA2>
3.1014678

>  <SMR_VSA3>
6.6861815

>  <SMR_VSA4>
2.7567475

>  <SMR_VSA5>
123.50229

>  <SMR_VSA6>
76.086235

>  <SMR_VSA7>
104.26537

>  <TPSA>
18.84

>  <VAdjEq>
0.46357921

>  <VAdjMa>
5.7004399

>  <VDistEq>
3.0407736

>  <VDistMa>
8.7912474

>  <vdw_area>
326.582

>  <vdw_vol>
446.22324

>  <vsa_acc>
5.6825762

>  <vsa_acid>
0

>  <vsa_base>
0

>  <vsa_don>
0

>  <vsa_hyd>
296.89655

>  <vsa_other>
11.190562

>  <vsa_pol>
5.6825762

>  <Weight>
343.88199

>  <weinerPath>
1075

>  <weinerPol>
41

>  <zagreb>
126

$$$$