n1ccccc1N(Cc1ccccc1)CCN(C)C
  MOE2013           2D

 19 20  0  0  1  0  0  0  0  0999 V2000
    0.0000    0.0000    0.0000 N   0  0  0  0  0  0  0  0  0  0  0  0
   -1.2950   -0.7570    0.0000 C   0  0  0  0  0  0  0  0  0  0  0  0
   -1.2880   -2.2570    0.0000 C   0  0  0  0  0  0  0  0  0  0  0  0
    0.0150   -3.0000    0.0000 C   0  0  0  0  0  0  0  0  0  0  0  0
    1.3100   -2.2430    0.0000 C   0  0  0  0  0  0  0  0  0  0  0  0
    1.3030   -0.7430    0.0000 C   0  0  0  0  0  0  0  0  0  0  0  0
    2.5980    0.0130    0.0000 N   0  0  3  0  0  0  0  0  0  0  0  0
    3.9010   -0.7300    0.0000 C   0  0  0  0  0  0  0  0  0  0  0  0
    5.1960    0.0260    0.0000 C   0  0  0  0  0  0  0  0  0  0  0  0
    6.4990   -0.7170    0.0000 C   0  0  0  0  0  0  0  0  0  0  0  0
    7.7940    0.0400    0.0000 C   0  0  0  0  0  0  0  0  0  0  0  0
    7.7870    1.5400    0.0000 C   0  0  0  0  0  0  0  0  0  0  0  0
    6.4840    2.2830    0.0000 C   0  0  0  0  0  0  0  0  0  0  0  0
    5.1880    1.5260    0.0000 C   0  0  0  0  0  0  0  0  0  0  0  0
    2.5900    1.5130    0.0000 C   0  0  0  0  0  0  0  0  0  0  0  0
    1.2880    2.2570    0.0000 C   0  0  0  0  0  0  0  0  0  0  0  0
    1.2800    3.7570    0.0000 N   0  0  0  0  0  0  0  0  0  0  0  0
    2.5750    4.5130    0.0000 C   0  0  0  0  0  0  0  0  0  0  0  0
   -0.0230    4.5000    0.0000 C   0  0  0  0  0  0  0  0  0  0  0  0
  1  2  1  0  0  0  0
  1  6  2  0  0  0  0
  2  3  2  0  0  0  0
  3  4  1  0  0  0  0
  4  5  2  0  0  0  0
  5  6  1  0  0  0  0
  6  7  1  0  0  0  0
  7  8  1  0  0  0  0
  7 15  1  0  0  0  0
  8  9  1  0  0  0  0
  9 10  1  0  0  0  0
  9 14  2  0  0  0  0
 10 11  2  0  0  0  0
 11 12  1  0  0  0  0
 12 13  2  0  0  0  0
 13 14  1  0  0  0  0
 15 16  1  0  0  0  0
 16 17  1  0  0  0  0
 17 18  1  0  0  0  0
 17 19  1  0  0  0  0
M  END
>  <Index>
1113

>  <ID>
HT2132

>  <class>
0

>  <apol>
45.462654

>  <ast_fraglike>
1

>  <ast_fraglike_ext>
0

>  <ast_violation>
0

>  <ast_violation_ext>
1

>  <a_acc>
2

>  <a_acid>
0

>  <a_aro>
12

>  <a_base>
0

>  <a_count>
40

>  <a_don>
0

>  <a_donacc>
2

>  <a_heavy>
19

>  <a_hyd>
15

>  <a_IC>
51.883572

>  <a_ICM>
1.2970892

>  <a_nB>
0

>  <a_nBr>
0

>  <a_nC>
16

>  <a_nCl>
0

>  <a_nF>
0

>  <a_nH>
21

>  <a_nI>
0

>  <a_nN>
3

>  <a_nO>
0

>  <a_nP>
0

>  <a_nS>
0

>  <balabanJ>
1.8439122

>  <BCUT_PEOE_0>
-2.6443603

>  <BCUT_PEOE_1>
-0.52622479

>  <BCUT_PEOE_2>
0.58338648

>  <BCUT_PEOE_3>
2.5429609

>  <BCUT_SLOGP_0>
-2.73967

>  <BCUT_SLOGP_1>
-0.43923113

>  <BCUT_SLOGP_2>
0.68003941

>  <BCUT_SLOGP_3>
2.5231373

>  <BCUT_SMR_0>
-2.3514674

>  <BCUT_SMR_1>
-0.39237547

>  <BCUT_SMR_2>
0.72003245

>  <BCUT_SMR_3>
2.8320627

>  <bpol>
28.237347

>  <b_1rotN>
6

>  <b_1rotR>
0.30000001

>  <b_ar>
12

>  <b_count>
41

>  <b_double>
0

>  <b_heavy>
20

>  <b_max1len>
7

>  <b_rotN>
6

>  <b_rotR>
0.30000001

>  <b_single>
29

>  <b_triple>
0

>  <chi0>
13.501789

>  <chi0v>
11.659114

>  <chi0v_C>
10.317472

>  <chi0_C>
11.639982

>  <chi1>
9.2540197

>  <chi1v>
6.6014352

>  <chi1v_C>
4.0529122

>  <chi1_C>
5.6329932

>  <chiral>
0

>  <chiral_u>
0

>  <density>
0.6502471

>  <diameter>
9

>  <FCharge>
0

>  <GCUT_PEOE_0>
-0.86105347

>  <GCUT_PEOE_1>
-0.345613

>  <GCUT_PEOE_2>
0.058861338

>  <GCUT_PEOE_3>
2.5405886

>  <GCUT_SLOGP_0>
-0.96784627

>  <GCUT_SLOGP_1>
-0.26386139

>  <GCUT_SLOGP_2>
0.1384009

>  <GCUT_SLOGP_3>
2.6109848

>  <GCUT_SMR_0>
-0.51516986

>  <GCUT_SMR_1>
-0.18308251

>  <GCUT_SMR_2>
0.15789051

>  <GCUT_SMR_3>
2.8191683

>  <Kier1>
15.39

>  <Kier2>
8.3232002

>  <Kier3>
5.4791913

>  <KierA1>
11.346511

>  <KierA2>
6.0233531

>  <KierA3>
3.9078

>  <KierFlex>
3.5970547

>  <lip_acc>
3

>  <lip_don>
0

>  <lip_druglike>
1

>  <lip_violation>
0

>  <logP(o/w)>
2.6589999

>  <logS>
-2.0311999

>  <mr>
7.9841185

>  <mutagenic>
0

>  <nmol>
1

>  <opr_brigid>
12

>  <opr_leadlike>
1

>  <opr_nring>
2

>  <opr_nrot>
6

>  <opr_violation>
0

>  <PC+>
0

>  <PC->
0

>  <PEOE_PC+>
1.2879049

>  <PEOE_PC->
-1.2879049

>  <PEOE_RPC+>
0.085068323

>  <PEOE_RPC->
0.23846792

>  <PEOE_VSA+0>
107.50752

>  <PEOE_VSA+1>
38.388474

>  <PEOE_VSA+2>
11.190562

>  <PEOE_VSA+3>
0

>  <PEOE_VSA+4>
0

>  <PEOE_VSA+5>
0

>  <PEOE_VSA+6>
0

>  <PEOE_VSA-0>
73.195724

>  <PEOE_VSA-1>
73.529427

>  <PEOE_VSA-2>
0

>  <PEOE_VSA-3>
0

>  <PEOE_VSA-4>
5.6825762

>  <PEOE_VSA-5>
0

>  <PEOE_VSA-6>
0

>  <PEOE_VSA_FHYD>
0.98163915

>  <PEOE_VSA_FNEG>
0.49244118

>  <PEOE_VSA_FPNEG>
0.018360844

>  <PEOE_VSA_FPOL>
0.018360844

>  <PEOE_VSA_FPOS>
0.50755882

>  <PEOE_VSA_FPPOS>
0

>  <PEOE_VSA_HYD>
303.81171

>  <PEOE_VSA_NEG>
152.40773

>  <PEOE_VSA_PNEG>
5.6825762

>  <PEOE_VSA_POL>
5.6825762

>  <PEOE_VSA_POS>
157.08656

>  <PEOE_VSA_PPOS>
0

>  <petitjean>
0.44444445

>  <petitjeanSC>
0.80000001

>  <Q_PC+>
0

>  <Q_PC->
0

>  <Q_RPC+>
0

>  <Q_RPC->
0

>  <Q_VSA_FHYD>
1

>  <Q_VSA_FNEG>
0

>  <Q_VSA_FPNEG>
0

>  <Q_VSA_FPOL>
0

>  <Q_VSA_FPOS>
1

>  <Q_VSA_FPPOS>
0

>  <Q_VSA_HYD>
309.49429

>  <Q_VSA_NEG>
0

>  <Q_VSA_PNEG>
0

>  <Q_VSA_POL>
0

>  <Q_VSA_POS>
309.49429

>  <Q_VSA_PPOS>
0

>  <radius>
5

>  <reactive>
0

>  <rings>
2

>  <RPC+>
0

>  <RPC->
0

>  <rsynth>
1

>  <SlogP>
2.9161999

>  <SlogP_VSA0>
3.1243138

>  <SlogP_VSA1>
19.909843

>  <SlogP_VSA2>
0

>  <SlogP_VSA3>
36.879158

>  <SlogP_VSA4>
3.185575

>  <SlogP_VSA5>
65.794373

>  <SlogP_VSA6>
0

>  <SlogP_VSA7>
158.35983

>  <SlogP_VSA8>
0

>  <SlogP_VSA9>
20.767498

>  <SMR>
8.0488005

>  <SMR_VSA0>
0

>  <SMR_VSA1>
19.909843

>  <SMR_VSA2>
3.1243138

>  <SMR_VSA3>
3.185575

>  <SMR_VSA4>
2.3279202

>  <SMR_VSA5>
176.79941

>  <SMR_VSA6>
36.879158

>  <SMR_VSA7>
65.794373

>  <TPSA>
19.370001

>  <VAdjEq>
0.5023343

>  <VAdjMa>
5.321928

>  <VDistEq>
3.0427592

>  <VDistMa>
8.2160759

>  <vdw_area>
309.49429

>  <vdw_vol>
392.71994

>  <vsa_acc>
5.6825762

>  <vsa_acid>
0

>  <vsa_base>
0

>  <vsa_don>
0

>  <vsa_hyd>
277.67343

>  <vsa_other>
11.190562

>  <vsa_pol>
5.6825762

>  <Weight>
255.36499

>  <weinerPath>
742

>  <weinerPol>
23

>  <zagreb>
90

$$$$