P(O)(O)(=O)C(P(O)(O)=O)(O)Cn1ccnc1
  MOE2013           2D

 16 16  0  0  0  0  0  0  0  0999 V2000
    0.0000    0.0000    0.0000 P   0  0  0  0  0  0  0  0  0  0  0  0
   -1.2930    0.7600    0.0000 O   0  0  0  0  0  0  0  0  0  0  0  0
    1.2930   -0.7600    0.0000 O   0  0  0  0  0  0  0  0  0  0  0  0
   -0.7600   -1.2930    0.0000 O   0  0  0  0  0  0  0  0  0  0  0  0
    0.7600    1.2930    0.0000 C   0  0  0  0  0  0  0  0  0  0  0  0
    1.5200    2.5860    0.0000 P   0  0  0  0  0  0  0  0  0  0  0  0
    0.2270    3.3460    0.0000 O   0  0  0  0  0  0  0  0  0  0  0  0
    2.8140    1.8260    0.0000 O   0  0  0  0  0  0  0  0  0  0  0  0
    2.2810    3.8790    0.0000 O   0  0  0  0  0  0  0  0  0  0  0  0
   -0.5330    2.0530    0.0000 O   0  0  0  0  0  0  0  0  0  0  0  0
    2.0530    0.5330    0.0000 C   0  0  0  0  0  0  0  0  0  0  0  0
    3.3580    1.2730    0.0000 N   0  0  0  0  0  0  0  0  0  0  0  0
    3.5270    2.7630    0.0000 C   0  0  0  0  0  0  0  0  0  0  0  0
    4.9960    3.0630    0.0000 C   0  0  0  0  0  0  0  0  0  0  0  0
    5.7360    1.7580    0.0000 N   0  0  0  0  0  0  0  0  0  0  0  0
    4.7240    0.6520    0.0000 C   0  0  0  0  0  0  0  0  0  0  0  0
  1  2  1  0  0  0  0
  1  3  1  0  0  0  0
  1  4  2  0  0  0  0
  1  5  1  0  0  0  0
  5  6  1  0  0  0  0
  5 10  1  0  0  0  0
  5 11  1  0  0  0  0
  6  7  1  0  0  0  0
  6  8  1  0  0  0  0
  6  9  2  0  0  0  0
 11 12  1  0  0  0  0
 12 13  1  0  0  0  0
 12 16  1  0  0  0  0
 13 14  2  0  0  0  0
 14 15  1  0  0  0  0
 15 16  2  0  0  0  0
M  END
>  <Index>
1165

>  <ID>
HT2218

>  <class>
0

>  <apol>
30.541929

>  <ast_fraglike>
0

>  <ast_fraglike_ext>
0

>  <ast_violation>
2

>  <ast_violation_ext>
4

>  <a_acc>
8

>  <a_acid>
0

>  <a_aro>
5

>  <a_base>
0

>  <a_count>
26

>  <a_don>
7

>  <a_donacc>
15

>  <a_heavy>
16

>  <a_hyd>
4

>  <a_IC>
53.731026

>  <a_ICM>
2.0665779

>  <a_nB>
0

>  <a_nBr>
0

>  <a_nC>
5

>  <a_nCl>
0

>  <a_nF>
0

>  <a_nH>
10

>  <a_nI>
0

>  <a_nN>
2

>  <a_nO>
7

>  <a_nP>
2

>  <a_nS>
0

>  <balabanJ>
2.8737929

>  <BCUT_PEOE_0>
-2.5088515

>  <BCUT_PEOE_1>
-0.66443527

>  <BCUT_PEOE_2>
0.82618034

>  <BCUT_PEOE_3>
2.8133645

>  <BCUT_SLOGP_0>
-2.5989101

>  <BCUT_SLOGP_1>
-1.2262387

>  <BCUT_SLOGP_2>
0.60563725

>  <BCUT_SLOGP_3>
2.8283784

>  <BCUT_SMR_0>
-2.3161077

>  <BCUT_SMR_1>
-0.53403753

>  <BCUT_SMR_2>
0.97939968

>  <BCUT_SMR_3>
2.9936798

>  <bpol>
31.10807

>  <b_1rotN>
4

>  <b_1rotR>
0.25

>  <b_ar>
5

>  <b_count>
26

>  <b_double>
0

>  <b_heavy>
16

>  <b_max1len>
6

>  <b_rotN>
4

>  <b_rotR>
0.25

>  <b_single>
21

>  <b_triple>
0

>  <chi0>
12.612885

>  <chi0v>
9.5694313

>  <chi0v_C>
2.9391575

>  <chi0_C>
3.3284271

>  <chi1>
7.0782981

>  <chi1v>
7.0966029

>  <chi1v_C>
0.68688673

>  <chi1_C>
0.85355341

>  <chiral>
0

>  <chiral_u>
0

>  <density>
1.0537809

>  <diameter>
6

>  <FCharge>
0

>  <GCUT_PEOE_0>
-0.83468127

>  <GCUT_PEOE_1>
-0.44153842

>  <GCUT_PEOE_2>
0.20512673

>  <GCUT_PEOE_3>
2.4685295

>  <GCUT_SLOGP_0>
-1.3054259

>  <GCUT_SLOGP_1>
-0.67721123

>  <GCUT_SLOGP_2>
0.0030994625

>  <GCUT_SLOGP_3>
2.4827616

>  <GCUT_SMR_0>
-0.49512914

>  <GCUT_SMR_1>
-0.23120943

>  <GCUT_SMR_2>
0.32460684

>  <GCUT_SMR_3>
2.6792669

>  <Kier1>
14.0625

>  <Kier2>
4.3491125

>  <Kier3>
2.8311112

>  <KierA1>
15.072286

>  <KierA2>
4.6837826

>  <KierA3>
3.0599103

>  <KierFlex>
4.4122066

>  <lip_acc>
9

>  <lip_don>
5

>  <lip_druglike>
1

>  <lip_violation>
0

>  <logP(o/w)>
-3.651

>  <logS>
1.54655

>  <mr>
5.5666718

>  <mutagenic>
0

>  <nmol>
1

>  <opr_brigid>
5

>  <opr_leadlike>
1

>  <opr_nring>
1

>  <opr_nrot>
4

>  <opr_violation>
1

>  <PC+>
0

>  <PC->
0

>  <PEOE_PC+>
2.6210322

>  <PEOE_PC->
-2.6210322

>  <PEOE_RPC+>
0.13968223

>  <PEOE_RPC->
0.12731178

>  <PEOE_VSA+0>
33.491833

>  <PEOE_VSA+1>
38.29847

>  <PEOE_VSA+2>
45.562077

>  <PEOE_VSA+3>
13.192325

>  <PEOE_VSA+4>
10.324173

>  <PEOE_VSA+5>
0

>  <PEOE_VSA+6>
27.333998

>  <PEOE_VSA-0>
0

>  <PEOE_VSA-1>
0

>  <PEOE_VSA-2>
0

>  <PEOE_VSA-3>
0

>  <PEOE_VSA-4>
37.14085

>  <PEOE_VSA-5>
0

>  <PEOE_VSA-6>
47.486565

>  <PEOE_VSA_FHYD>
0.51633334

>  <PEOE_VSA_FNEG>
0.33472022

>  <PEOE_VSA_FPNEG>
0.33472022

>  <PEOE_VSA_FPOL>
0.48366666

>  <PEOE_VSA_FPOS>
0.66527975

>  <PEOE_VSA_FPPOS>
0.14894643

>  <PEOE_VSA_HYD>
130.54471

>  <PEOE_VSA_NEG>
84.627411

>  <PEOE_VSA_PNEG>
84.627411

>  <PEOE_VSA_POL>
122.28558

>  <PEOE_VSA_POS>
168.20287

>  <PEOE_VSA_PPOS>
37.658169

>  <petitjean>
0.5

>  <petitjeanSC>
1

>  <Q_PC+>
0

>  <Q_PC->
0

>  <Q_RPC+>
0

>  <Q_RPC->
0

>  <Q_VSA_FHYD>
1

>  <Q_VSA_FNEG>
0

>  <Q_VSA_FPNEG>
0

>  <Q_VSA_FPOL>
0

>  <Q_VSA_FPOS>
1

>  <Q_VSA_FPPOS>
0

>  <Q_VSA_HYD>
252.83029

>  <Q_VSA_NEG>
0

>  <Q_VSA_PNEG>
0

>  <Q_VSA_POL>
0

>  <Q_VSA_POS>
252.83029

>  <Q_VSA_PPOS>
0

>  <radius>
3

>  <reactive>
1

>  <rings>
1

>  <RPC+>
0

>  <RPC->
0

>  <rsynth>
1

>  <SlogP>
-2.9893999

>  <SlogP_VSA0>
155.48064

>  <SlogP_VSA1>
18.684622

>  <SlogP_VSA2>
0

>  <SlogP_VSA3>
0

>  <SlogP_VSA4>
0

>  <SlogP_VSA5>
0

>  <SlogP_VSA6>
0

>  <SlogP_VSA7>
51.214245

>  <SlogP_VSA8>
0

>  <SlogP_VSA9>
48.038521

>  <SMR>
5.0096998

>  <SMR_VSA0>
44.867531

>  <SMR_VSA1>
129.29773

>  <SMR_VSA2>
0

>  <SMR_VSA3>
0

>  <SMR_VSA4>
0

>  <SMR_VSA5>
69.653824

>  <SMR_VSA6>
0

>  <SMR_VSA7>
29.598944

>  <TPSA>
153.11

>  <VAdjEq>
0.54356444

>  <VAdjMa>
5

>  <VDistEq>
2.5366576

>  <VDistMa>
7.7439194

>  <vdw_area>
252.83029

>  <vdw_vol>
258.20355

>  <vsa_acc>
5.6825762

>  <vsa_acid>
0

>  <vsa_base>
0

>  <vsa_don>
0

>  <vsa_hyd>
60.898518

>  <vsa_other>
52.124516

>  <vsa_pol>
113.62431

>  <Weight>
272.09

>  <weinerPath>
397

>  <weinerPol>
25

>  <zagreb>
84

$$$$