O(C)c1cc(ccc1OC)C=CC(=O)Nc1ccccc1C(O)=O
  MOE2013           2D

 24 25  0  0  0  0  0  0  0  0999 V2000
    0.0000    0.0000    0.0000 O   0  0  0  0  0  0  0  0  0  0  0  0
    0.0050   -1.5000    0.0000 C   0  0  0  0  0  0  0  0  0  0  0  0
   -1.3010    0.7460    0.0000 C   0  0  0  0  0  0  0  0  0  0  0  0
   -2.5980   -0.0080    0.0000 C   0  0  0  0  0  0  0  0  0  0  0  0
   -3.8990    0.7380    0.0000 C   0  0  0  0  0  0  0  0  0  0  0  0
   -3.9040    2.2380    0.0000 C   0  0  0  0  0  0  0  0  0  0  0  0
   -2.6070    2.9920    0.0000 C   0  0  0  0  0  0  0  0  0  0  0  0
   -1.3060    2.2460    0.0000 C   0  0  0  0  0  0  0  0  0  0  0  0
   -0.0090    3.0000    0.0000 O   0  0  0  0  0  0  0  0  0  0  0  0
   -0.0140    4.5000    0.0000 C   0  0  0  0  0  0  0  0  0  0  0  0
   -5.1960   -0.0160    0.0000 C   0  0  0  0  0  0  0  0  0  0  0  0
   -6.4970    0.7300    0.0000 C   0  0  0  0  0  0  0  0  0  0  0  0
   -7.7940   -0.0240    0.0000 C   0  0  0  0  0  0  0  0  0  0  0  0
   -7.7900   -1.5240    0.0000 O   0  0  0  0  0  0  0  0  0  0  0  0
   -9.0960    0.7220    0.0000 N   0  0  0  0  0  0  0  0  0  0  0  0
  -10.3920   -0.0320    0.0000 C   0  0  0  0  0  0  0  0  0  0  0  0
  -10.3880   -1.5320    0.0000 C   0  0  0  0  0  0  0  0  0  0  0  0
  -11.6840   -2.2860    0.0000 C   0  0  0  0  0  0  0  0  0  0  0  0
  -12.9860   -1.5400    0.0000 C   0  0  0  0  0  0  0  0  0  0  0  0
  -12.9900   -0.0400    0.0000 C   0  0  0  0  0  0  0  0  0  0  0  0
  -11.6940    0.7140    0.0000 C   0  0  0  0  0  0  0  0  0  0  0  0
  -11.6980    2.2140    0.0000 C   0  0  0  0  0  0  0  0  0  0  0  0
  -10.4020    2.9680    0.0000 O   0  0  0  0  0  0  0  0  0  0  0  0
  -13.0000    2.9600    0.0000 O   0  0  0  0  0  0  0  0  0  0  0  0
  1  2  1  0  0  0  0
  1  3  1  0  0  0  0
  3  4  1  0  0  0  0
  3  8  2  0  0  0  0
  4  5  2  0  0  0  0
  5  6  1  0  0  0  0
  5 11  1  0  0  0  0
  6  7  2  0  0  0  0
  7  8  1  0  0  0  0
  8  9  1  0  0  0  0
  9 10  1  0  0  0  0
 11 12  2  3  0  0  0
 12 13  1  0  0  0  0
 13 14  2  0  0  0  0
 13 15  1  0  0  0  0
 15 16  1  0  0  0  0
 16 17  1  0  0  0  0
 16 21  2  0  0  0  0
 17 18  2  0  0  0  0
 18 19  1  0  0  0  0
 19 20  2  0  0  0  0
 20 21  1  0  0  0  0
 21 22  1  0  0  0  0
 22 23  1  0  0  0  0
 22 24  2  0  0  0  0
M  END
>  <Index>
1098

>  <ID>
HT2098

>  <class>
0

>  <apol>
48.125481

>  <ast_fraglike>
0

>  <ast_fraglike_ext>
0

>  <ast_violation>
3

>  <ast_violation_ext>
4

>  <a_acc>
5

>  <a_acid>
0

>  <a_aro>
12

>  <a_base>
0

>  <a_count>
41

>  <a_don>
3

>  <a_donacc>
8

>  <a_heavy>
24

>  <a_hyd>
16

>  <a_IC>
63.504475

>  <a_ICM>
1.5488896

>  <a_nB>
0

>  <a_nBr>
0

>  <a_nC>
18

>  <a_nCl>
0

>  <a_nF>
0

>  <a_nH>
17

>  <a_nI>
0

>  <a_nN>
1

>  <a_nO>
5

>  <a_nP>
0

>  <a_nS>
0

>  <balabanJ>
1.7388819

>  <BCUT_PEOE_0>
-2.3055022

>  <BCUT_PEOE_1>
-0.60903335

>  <BCUT_PEOE_2>
0.63200241

>  <BCUT_PEOE_3>
2.2710414

>  <BCUT_SLOGP_0>
-2.3076208

>  <BCUT_SLOGP_1>
-0.53913206

>  <BCUT_SLOGP_2>
0.72216344

>  <BCUT_SLOGP_3>
2.4402308

>  <BCUT_SMR_0>
-2.0116413

>  <BCUT_SMR_1>
-0.43112758

>  <BCUT_SMR_2>
0.78957087

>  <BCUT_SMR_3>
2.6031055

>  <bpol>
24.992519

>  <b_1rotN>
6

>  <b_1rotR>
0.23999999

>  <b_ar>
12

>  <b_count>
42

>  <b_double>
3

>  <b_heavy>
25

>  <b_max1len>
2

>  <b_rotN>
7

>  <b_rotR>
0.28

>  <b_single>
27

>  <b_triple>
0

>  <chi0>
17.526733

>  <chi0v>
13.27636

>  <chi0v_C>
10.696153

>  <chi0_C>
12.405413

>  <chi1>
11.545244

>  <chi1v>
7.0826678

>  <chi1v_C>
4.7260675

>  <chi1_C>
6.7659864

>  <chiral>
0

>  <chiral_u>
0

>  <density>
0.75596017

>  <diameter>
13

>  <FCharge>
0

>  <GCUT_PEOE_0>
-0.80582237

>  <GCUT_PEOE_1>
-0.46459004

>  <GCUT_PEOE_2>
0.05702617

>  <GCUT_PEOE_3>
2.3789823

>  <GCUT_SLOGP_0>
-0.99759531

>  <GCUT_SLOGP_1>
-0.33914733

>  <GCUT_SLOGP_2>
0.15293089

>  <GCUT_SLOGP_3>
2.5068996

>  <GCUT_SMR_0>
-0.48459303

>  <GCUT_SMR_1>
-0.213286

>  <GCUT_SMR_2>
0.17382376

>  <GCUT_SMR_3>
2.680553

>  <Kier1>
20.313601

>  <Kier2>
10.222222

>  <Kier3>
6.046401

>  <KierA1>
14.269957

>  <KierA2>
7.0609999

>  <KierA3>
4.1260753

>  <KierFlex>
4.1983399

>  <lip_acc>
6

>  <lip_don>
2

>  <lip_druglike>
1

>  <lip_violation>
0

>  <logP(o/w)>
2.87674

>  <logS>
-3.93085

>  <mr>
8.9963541

>  <mutagenic>
0

>  <nmol>
1

>  <opr_brigid>
13

>  <opr_leadlike>
1

>  <opr_nring>
2

>  <opr_nrot>
6

>  <opr_violation>
0

>  <PC+>
0

>  <PC->
0

>  <PEOE_PC+>
2.2465925

>  <PEOE_PC->
-2.2465925

>  <PEOE_RPC+>
0.1305213

>  <PEOE_RPC->
0.15371774

>  <PEOE_VSA+0>
62.250217

>  <PEOE_VSA+1>
72.888878

>  <PEOE_VSA+2>
16.917038

>  <PEOE_VSA+3>
8.6190128

>  <PEOE_VSA+4>
23.273705

>  <PEOE_VSA+5>
14.708499

>  <PEOE_VSA+6>
0

>  <PEOE_VSA-0>
63.483059

>  <PEOE_VSA-1>
36.764713

>  <PEOE_VSA-2>
0

>  <PEOE_VSA-3>
0

>  <PEOE_VSA-4>
0

>  <PEOE_VSA-5>
27.133842

>  <PEOE_VSA-6>
12.911943

>  <PEOE_VSA_FHYD>
0.7697956

>  <PEOE_VSA_FNEG>
0.41390523

>  <PEOE_VSA_FPNEG>
0.11814627

>  <PEOE_VSA_FPOL>
0.23020439

>  <PEOE_VSA_FPOS>
0.58609474

>  <PEOE_VSA_FPPOS>
0.11205813

>  <PEOE_VSA_HYD>
260.92291

>  <PEOE_VSA_NEG>
140.29356

>  <PEOE_VSA_PNEG>
40.045784

>  <PEOE_VSA_POL>
78.027985

>  <PEOE_VSA_POS>
198.65735

>  <PEOE_VSA_PPOS>
37.982204

>  <petitjean>
0.46153846

>  <petitjeanSC>
0.85714287

>  <Q_PC+>
0

>  <Q_PC->
0

>  <Q_RPC+>
0

>  <Q_RPC->
0

>  <Q_VSA_FHYD>
1

>  <Q_VSA_FNEG>
0

>  <Q_VSA_FPNEG>
0

>  <Q_VSA_FPOL>
0

>  <Q_VSA_FPOS>
1

>  <Q_VSA_FPPOS>
0

>  <Q_VSA_HYD>
338.9509

>  <Q_VSA_NEG>
0

>  <Q_VSA_PNEG>
0

>  <Q_VSA_POL>
0

>  <Q_VSA_POS>
338.9509

>  <Q_VSA_PPOS>
0

>  <radius>
7

>  <reactive>
0

>  <rings>
2

>  <RPC+>
0

>  <RPC->
0

>  <rsynth>
1

>  <SlogP>
3.0539

>  <SlogP_VSA0>
21.999775

>  <SlogP_VSA1>
31.014997

>  <SlogP_VSA2>
23.862217

>  <SlogP_VSA3>
25.385227

>  <SlogP_VSA4>
30.233366

>  <SlogP_VSA5>
70.767738

>  <SlogP_VSA6>
0

>  <SlogP_VSA7>
141.14548

>  <SlogP_VSA8>
17.643185

>  <SlogP_VSA9>
13.243604

>  <SMR>
9.0611

>  <SMR_VSA0>
47.724434

>  <SMR_VSA1>
21.999775

>  <SMR_VSA2>
25.385227

>  <SMR_VSA3>
16.858006

>  <SMR_VSA4>
20.767498

>  <SMR_VSA5>
141.14548

>  <SMR_VSA6>
30.647432

>  <SMR_VSA7>
70.767738

>  <TPSA>
84.860001

>  <VAdjEq>
0.42571631

>  <VAdjMa>
5.643856

>  <VDistEq>
3.5496926

>  <VDistMa>
8.8504496

>  <vdw_area>
338.9509

>  <vdw_vol>
433.00696

>  <vsa_acc>
18.574432

>  <vsa_acid>
0

>  <vsa_base>
0

>  <vsa_don>
5.6825762

>  <vsa_hyd>
241.62698

>  <vsa_other>
27.65803

>  <vsa_pol>
51.39085

>  <Weight>
327.336

>  <weinerPath>
1535

>  <weinerPol>
35

>  <zagreb>
116

$$$$