O1CC(O)C(O)C(O)C1(O)CO
  MOE2013           2D

 12 12  0  0  1  0  0  0  0  0999 V2000
    0.0000    0.0000    0.0000 O   0  0  0  0  0  0  0  0  0  0  0  0
    1.5000   -0.0040    0.0000 C   0  0  0  0  0  0  0  0  0  0  0  0
    2.2540    1.2930    0.0000 C   0  0  3  0  0  0  0  0  0  0  0  0
    3.7540    1.2890    0.0000 O   0  0  0  0  0  0  0  0  0  0  0  0
    1.5070    2.5940    0.0000 C   0  0  3  0  0  0  0  0  0  0  0  0
    2.2610    3.8910    0.0000 O   0  0  0  0  0  0  0  0  0  0  0  0
    0.0070    2.5980    0.0000 C   0  0  3  0  0  0  0  0  0  0  0  0
   -0.7390    3.8990    0.0000 O   0  0  0  0  0  0  0  0  0  0  0  0
   -0.7460    1.3010    0.0000 C   0  0  3  0  0  0  0  0  0  0  0  0
   -2.0430    2.0550    0.0000 O   0  0  0  0  0  0  0  0  0  0  0  0
   -2.0470    0.5550    0.0000 C   0  0  0  0  0  0  0  0  0  0  0  0
   -2.0520   -0.9450    0.0000 O   0  0  0  0  0  0  0  0  0  0  0  0
  1  2  1  0  0  0  0
  1  9  1  0  0  0  0
  2  3  1  0  0  0  0
  3  4  1  0  0  0  0
  3  5  1  0  0  0  0
  5  6  1  0  0  0  0
  5  7  1  0  0  0  0
  7  8  1  0  0  0  0
  7  9  1  0  0  0  0
  9 10  1  0  0  0  0
  9 11  1  0  0  0  0
 11 12  1  0  0  0  0
M  END
>  <Index>
1246

>  <ID>
HT2773

>  <class>
0

>  <apol>
23.373516

>  <ast_fraglike>
0

>  <ast_fraglike_ext>
0

>  <ast_violation>
2

>  <ast_violation_ext>
3

>  <a_acc>
6

>  <a_acid>
0

>  <a_aro>
0

>  <a_base>
0

>  <a_count>
24

>  <a_don>
5

>  <a_donacc>
11

>  <a_heavy>
12

>  <a_hyd>
5

>  <a_IC>
36

>  <a_ICM>
1.5

>  <a_nB>
0

>  <a_nBr>
0

>  <a_nC>
6

>  <a_nCl>
0

>  <a_nF>
0

>  <a_nH>
12

>  <a_nI>
0

>  <a_nN>
0

>  <a_nO>
6

>  <a_nP>
0

>  <a_nS>
0

>  <balabanJ>
2.7058375

>  <BCUT_PEOE_0>
-2.7049148

>  <BCUT_PEOE_1>
-0.69991457

>  <BCUT_PEOE_2>
0.75014597

>  <BCUT_PEOE_3>
2.7862988

>  <BCUT_SLOGP_0>
-2.913547

>  <BCUT_SLOGP_1>
-0.87170041

>  <BCUT_SLOGP_2>
0.53266305

>  <BCUT_SLOGP_3>
2.5637293

>  <BCUT_SMR_0>
-2.512068

>  <BCUT_SMR_1>
-0.5673219

>  <BCUT_SMR_2>
0.83382428

>  <BCUT_SMR_3>
2.9596844

>  <bpol>
15.034484

>  <b_1rotN>
1

>  <b_1rotR>
0.083333336

>  <b_ar>
0

>  <b_count>
24

>  <b_double>
0

>  <b_heavy>
12

>  <b_max1len>
5

>  <b_rotN>
1

>  <b_rotR>
0.083333336

>  <b_single>
24

>  <b_triple>
0

>  <chi0>
9.3533716

>  <chi0v>
6.2905807

>  <chi0v_C>
3.6462643

>  <chi0_C>
3.6462643

>  <chi1>
5.5098543

>  <chi1v>
3.524374

>  <chi1v_C>
1.7171435

>  <chi1_C>
1.7171435

>  <chiral>
4

>  <chiral_u>
4

>  <density>
0.9014672

>  <diameter>
6

>  <FCharge>
0

>  <GCUT_PEOE_0>
-0.78648663

>  <GCUT_PEOE_1>
-0.4521127

>  <GCUT_PEOE_2>
0.20246537

>  <GCUT_PEOE_3>
2.470438

>  <GCUT_SLOGP_0>
-0.95668256

>  <GCUT_SLOGP_1>
-0.62182176

>  <GCUT_SLOGP_2>
-0.0084904721

>  <GCUT_SLOGP_3>
2.2997258

>  <GCUT_SMR_0>
-0.52526808

>  <GCUT_SMR_1>
-0.28712612

>  <GCUT_SMR_2>
0.23319519

>  <GCUT_SMR_3>
2.6436007

>  <Kier1>
10.083333

>  <Kier2>
3.3950617

>  <Kier3>
1.7013233

>  <KierA1>
10.083333

>  <KierA2>
3.3950617

>  <KierA3>
1.7013233

>  <KierFlex>
2.8527949

>  <lip_acc>
6

>  <lip_don>
5

>  <lip_druglike>
1

>  <lip_violation>
0

>  <logP(o/w)>
-2.45

>  <logS>
1.07472

>  <mr>
3.6181557

>  <mutagenic>
0

>  <nmol>
1

>  <opr_brigid>
6

>  <opr_leadlike>
1

>  <opr_nring>
1

>  <opr_nrot>
3

>  <opr_violation>
0

>  <PC+>
0

>  <PC->
0

>  <PEOE_PC+>
2.2495093

>  <PEOE_PC->
-2.2495093

>  <PEOE_RPC+>
0.097864993

>  <PEOE_RPC->
0.17320196

>  <PEOE_VSA+0>
0

>  <PEOE_VSA+1>
44.808994

>  <PEOE_VSA+2>
29.666079

>  <PEOE_VSA+3>
0

>  <PEOE_VSA+4>
52.729408

>  <PEOE_VSA+5>
0

>  <PEOE_VSA+6>
0

>  <PEOE_VSA-0>
0

>  <PEOE_VSA-1>
0

>  <PEOE_VSA-2>
0

>  <PEOE_VSA-3>
0

>  <PEOE_VSA-4>
0

>  <PEOE_VSA-5>
0

>  <PEOE_VSA-6>
41.341457

>  <PEOE_VSA_FHYD>
0.4418681

>  <PEOE_VSA_FNEG>
0.24528302

>  <PEOE_VSA_FPNEG>
0.24528302

>  <PEOE_VSA_FPOL>
0.55813187

>  <PEOE_VSA_FPOS>
0.75471699

>  <PEOE_VSA_FPPOS>
0.31284887

>  <PEOE_VSA_HYD>
74.475075

>  <PEOE_VSA_NEG>
41.341457

>  <PEOE_VSA_PNEG>
41.341457

>  <PEOE_VSA_POL>
94.070862

>  <PEOE_VSA_POS>
127.20448

>  <PEOE_VSA_PPOS>
52.729408

>  <petitjean>
0.5

>  <petitjeanSC>
1

>  <Q_PC+>
0

>  <Q_PC->
0

>  <Q_RPC+>
0

>  <Q_RPC->
0

>  <Q_VSA_FHYD>
1

>  <Q_VSA_FNEG>
0

>  <Q_VSA_FPNEG>
0

>  <Q_VSA_FPOL>
0

>  <Q_VSA_FPOS>
1

>  <Q_VSA_FPPOS>
0

>  <Q_VSA_HYD>
168.54594

>  <Q_VSA_NEG>
0

>  <Q_VSA_PNEG>
0

>  <Q_VSA_POL>
0

>  <Q_VSA_POS>
168.54594

>  <Q_VSA_PPOS>
0

>  <radius>
3

>  <reactive>
1

>  <rings>
1

>  <RPC+>
0

>  <RPC->
0

>  <rsynth>
1

>  <SlogP>
-3.2198

>  <SlogP_VSA0>
126.92613

>  <SlogP_VSA1>
0

>  <SlogP_VSA2>
30.405836

>  <SlogP_VSA3>
41.852516

>  <SlogP_VSA4>
0

>  <SlogP_VSA5>
0

>  <SlogP_VSA6>
0

>  <SlogP_VSA7>
0

>  <SlogP_VSA8>
0

>  <SlogP_VSA9>
0

>  <SMR>
3.6008

>  <SMR_VSA0>
10.999887

>  <SMR_VSA1>
126.92613

>  <SMR_VSA2>
0

>  <SMR_VSA3>
19.405949

>  <SMR_VSA4>
0

>  <SMR_VSA5>
0

>  <SMR_VSA6>
41.852516

>  <SMR_VSA7>
0

>  <TPSA>
110.38

>  <VAdjEq>
0.65002245

>  <VAdjMa>
4.5849624

>  <VDistEq>
2.2478712

>  <VDistMa>
6.8968229

>  <vdw_area>
168.54594

>  <vdw_vol>
199.84752

>  <vsa_acc>
2.503756

>  <vsa_acid>
0

>  <vsa_base>
0

>  <vsa_don>
0

>  <vsa_hyd>
69.492508

>  <vsa_other>
1.1085443

>  <vsa_pol>
70.338364

>  <Weight>
180.15599

>  <weinerPath>
178

>  <weinerPol>
20

>  <zagreb>
60

$$$$