Clc1ccc(cc1)C(=O)NCCc1ccc(OC(C(O)=O)(C)C)cc1
  MOE2013           2D

 25 26  0  0  0  0  0  0  0  0999 V2000
    0.0000    0.0000    0.0000 Cl  0  0  0  0  0  0  0  0  0  0  0  0
   -1.4200    0.4830    0.0000 C   0  0  0  0  0  0  0  0  0  0  0  0
   -2.5480   -0.5060    0.0000 C   0  0  0  0  0  0  0  0  0  0  0  0
   -3.9690   -0.0230    0.0000 C   0  0  0  0  0  0  0  0  0  0  0  0
   -4.2610    1.4480    0.0000 C   0  0  0  0  0  0  0  0  0  0  0  0
   -3.1330    2.4370    0.0000 C   0  0  0  0  0  0  0  0  0  0  0  0
   -1.7120    1.9540    0.0000 C   0  0  0  0  0  0  0  0  0  0  0  0
   -5.6810    1.9310    0.0000 C   0  0  0  0  0  0  0  0  0  0  0  0
   -5.9730    3.4020    0.0000 O   0  0  0  0  0  0  0  0  0  0  0  0
   -6.8090    0.9420    0.0000 N   0  0  0  0  0  0  0  0  0  0  0  0
   -8.2290    1.4250    0.0000 C   0  0  0  0  0  0  0  0  0  0  0  0
   -9.3570    0.4360    0.0000 C   0  0  0  0  0  0  0  0  0  0  0  0
  -10.7780    0.9190    0.0000 C   0  0  0  0  0  0  0  0  0  0  0  0
  -11.0700    2.3900    0.0000 C   0  0  0  0  0  0  0  0  0  0  0  0
  -12.4900    2.8730    0.0000 C   0  0  0  0  0  0  0  0  0  0  0  0
  -13.6180    1.8840    0.0000 C   0  0  0  0  0  0  0  0  0  0  0  0
  -15.0380    2.3670    0.0000 O   0  0  0  0  0  0  0  0  0  0  0  0
  -16.1660    1.3780    0.0000 C   0  0  0  0  0  0  0  0  0  0  0  0
  -17.2940    0.3890    0.0000 C   0  0  0  0  0  0  0  0  0  0  0  0
  -17.0020   -1.0820    0.0000 O   0  0  0  0  0  0  0  0  0  0  0  0
  -18.7150    0.8720    0.0000 O   0  0  0  0  0  0  0  0  0  0  0  0
  -17.1550    2.5060    0.0000 C   0  0  0  0  0  0  0  0  0  0  0  0
  -15.1780    0.2500    0.0000 C   0  0  0  0  0  0  0  0  0  0  0  0
  -13.3260    0.4130    0.0000 C   0  0  0  0  0  0  0  0  0  0  0  0
  -11.9060   -0.0700    0.0000 C   0  0  0  0  0  0  0  0  0  0  0  0
  1  2  1  0  0  0  0
  2  3  1  0  0  0  0
  2  7  2  0  0  0  0
  3  4  2  0  0  0  0
  4  5  1  0  0  0  0
  5  6  2  0  0  0  0
  5  8  1  0  0  0  0
  6  7  1  0  0  0  0
  8  9  2  0  0  0  0
  8 10  1  0  0  0  0
 10 11  1  0  0  0  0
 11 12  1  0  0  0  0
 12 13  1  0  0  0  0
 13 14  1  0  0  0  0
 13 25  2  0  0  0  0
 14 15  2  0  0  0  0
 15 16  1  0  0  0  0
 16 17  1  0  0  0  0
 16 24  2  0  0  0  0
 17 18  1  0  0  0  0
 18 19  1  0  0  0  0
 18 22  1  0  0  0  0
 18 23  1  0  0  0  0
 19 20  1  0  0  0  0
 19 21  2  0  0  0  0
 24 25  1  0  0  0  0
M  END
>  <Index>
142

>  <ID>
HT0281

>  <class>
0

>  <apol>
53.263859

>  <ast_fraglike>
0

>  <ast_fraglike_ext>
0

>  <ast_violation>
3

>  <ast_violation_ext>
4

>  <a_acc>
4

>  <a_acid>
0

>  <a_aro>
12

>  <a_base>
0

>  <a_count>
45

>  <a_don>
3

>  <a_donacc>
7

>  <a_heavy>
25

>  <a_hyd>
18

>  <a_IC>
71.984207

>  <a_ICM>
1.599649

>  <a_nB>
0

>  <a_nBr>
0

>  <a_nC>
19

>  <a_nCl>
1

>  <a_nF>
0

>  <a_nH>
20

>  <a_nI>
0

>  <a_nN>
1

>  <a_nO>
4

>  <a_nP>
0

>  <a_nS>
0

>  <balabanJ>
1.5950783

>  <BCUT_PEOE_0>
-2.5158398

>  <BCUT_PEOE_1>
-0.61904812

>  <BCUT_PEOE_2>
0.6441133

>  <BCUT_PEOE_3>
2.5753145

>  <BCUT_SLOGP_0>
-2.6424475

>  <BCUT_SLOGP_1>
-0.53813887

>  <BCUT_SLOGP_2>
0.80591482

>  <BCUT_SLOGP_3>
2.528908

>  <BCUT_SMR_0>
-2.2919676

>  <BCUT_SMR_1>
-0.42943749

>  <BCUT_SMR_2>
0.85431087

>  <BCUT_SMR_3>
2.7854795

>  <bpol>
26.77614

>  <b_1rotN>
7

>  <b_1rotR>
0.26923078

>  <b_ar>
12

>  <b_count>
46

>  <b_double>
2

>  <b_heavy>
26

>  <b_max1len>
4

>  <b_rotN>
8

>  <b_rotR>
0.30769232

>  <b_single>
32

>  <b_triple>
0

>  <chi0>
18.449383

>  <chi0v>
14.838867

>  <chi0v_C>
11.533015

>  <chi0_C>
13.03517

>  <chi1>
11.775694

>  <chi1v>
8.2068911

>  <chi1v_C>
5.9962878

>  <chi1_C>
7.7962432

>  <chiral>
0

>  <chiral_u>
0

>  <density>
0.77208704

>  <diameter>
16

>  <FCharge>
0

>  <GCUT_PEOE_0>
-0.83669657

>  <GCUT_PEOE_1>
-0.40124851

>  <GCUT_PEOE_2>
0.082192078

>  <GCUT_PEOE_3>
2.5049984

>  <GCUT_SLOGP_0>
-1.1610498

>  <GCUT_SLOGP_1>
-0.29734123

>  <GCUT_SLOGP_2>
0.16450265

>  <GCUT_SLOGP_3>
2.5709016

>  <GCUT_SMR_0>
-0.51305354

>  <GCUT_SMR_1>
-0.22116514

>  <GCUT_SMR_2>
0.19305076

>  <GCUT_SMR_3>
2.7702029

>  <Kier1>
21.301775

>  <Kier2>
9.7962961

>  <Kier3>
6.9101725

>  <KierA1>
16.747608

>  <KierA2>
7.6194797

>  <KierA3>
5.331418

>  <KierFlex>
5.1043224

>  <lip_acc>
5

>  <lip_don>
2

>  <lip_druglike>
1

>  <lip_violation>
0

>  <logP(o/w)>
4.0029998

>  <logS>
-4.79531

>  <mr>
9.8018951

>  <mutagenic>
0

>  <nmol>
1

>  <opr_brigid>
12

>  <opr_leadlike>
1

>  <opr_nring>
2

>  <opr_nrot>
7

>  <opr_violation>
0

>  <PC+>
0

>  <PC->
0

>  <PEOE_PC+>
2.0871372

>  <PEOE_PC->
-2.0871372

>  <PEOE_RPC+>
0.13980199

>  <PEOE_RPC->
0.16849481

>  <PEOE_VSA+0>
62.574471

>  <PEOE_VSA+1>
42.581608

>  <PEOE_VSA+2>
0

>  <PEOE_VSA+3>
8.6190128

>  <PEOE_VSA+4>
10.324173

>  <PEOE_VSA+5>
27.65803

>  <PEOE_VSA+6>
0

>  <PEOE_VSA-0>
121.93463

>  <PEOE_VSA-1>
54.091755

>  <PEOE_VSA-2>
0

>  <PEOE_VSA-3>
0

>  <PEOE_VSA-4>
0

>  <PEOE_VSA-5>
27.133842

>  <PEOE_VSA-6>
10.408187

>  <PEOE_VSA_FHYD>
0.7932688

>  <PEOE_VSA_FNEG>
0.58459729

>  <PEOE_VSA_FPNEG>
0.10276318

>  <PEOE_VSA_FPOL>
0.20673123

>  <PEOE_VSA_FPOS>
0.41540271

>  <PEOE_VSA_FPPOS>
0.10396805

>  <PEOE_VSA_HYD>
289.80148

>  <PEOE_VSA_NEG>
213.56842

>  <PEOE_VSA_PNEG>
37.54203

>  <PEOE_VSA_POL>
75.524231

>  <PEOE_VSA_POS>
151.75729

>  <PEOE_VSA_PPOS>
37.982204

>  <petitjean>
0.5

>  <petitjeanSC>
1

>  <Q_PC+>
0

>  <Q_PC->
0

>  <Q_RPC+>
0

>  <Q_RPC->
0

>  <Q_VSA_FHYD>
1

>  <Q_VSA_FNEG>
0

>  <Q_VSA_FPNEG>
0

>  <Q_VSA_FPOL>
0

>  <Q_VSA_FPOS>
1

>  <Q_VSA_FPPOS>
0

>  <Q_VSA_HYD>
365.32571

>  <Q_VSA_NEG>
0

>  <Q_VSA_PNEG>
0

>  <Q_VSA_POL>
0

>  <Q_VSA_POS>
365.32571

>  <Q_VSA_PPOS>
0

>  <radius>
8

>  <reactive>
0

>  <rings>
2

>  <RPC+>
0

>  <RPC->
0

>  <rsynth>
1

>  <SlogP>
3.5544701

>  <SlogP_VSA0>
29.010639

>  <SlogP_VSA1>
13.004248

>  <SlogP_VSA2>
23.862217

>  <SlogP_VSA3>
43.824806

>  <SlogP_VSA4>
30.233366

>  <SlogP_VSA5>
18.868406

>  <SlogP_VSA6>
3.5006065

>  <SlogP_VSA7>
141.14548

>  <SlogP_VSA8>
0

>  <SlogP_VSA9>
111.04411

>  <SMR>
9.6274004

>  <SMR_VSA0>
47.724434

>  <SMR_VSA1>
10.999887

>  <SMR_VSA2>
43.395977

>  <SMR_VSA3>
15.115185

>  <SMR_VSA4>
0

>  <SMR_VSA5>
160.01389

>  <SMR_VSA6>
31.443827

>  <SMR_VSA7>
105.80067

>  <TPSA>
75.629997

>  <VAdjEq>
0.41335541

>  <VAdjMa>
5.7004399

>  <VDistEq>
3.7946057

>  <VDistMa>
8.932725

>  <vdw_area>
365.32571

>  <vdw_vol>
468.63239

>  <vsa_acc>
16.070677

>  <vsa_acid>
0

>  <vsa_base>
0

>  <vsa_don>
5.6825762

>  <vsa_hyd>
268.37015

>  <vsa_other>
27.65803

>  <vsa_pol>
48.887096

>  <Weight>
361.82498

>  <weinerPath>
1882

>  <weinerPol>
35

>  <zagreb>
124

$$$$