O1C(=O)C2(C3OC(CC3)C2(C)C1=O)C
  MOE2013           2D

 14 16  0  0  1  0  0  0  0  0999 V2000
    0.0000    0.0000    0.0000 O   0  0  0  0  0  0  0  0  0  0  0  0
   -0.2800   -1.4740    0.0000 C   0  0  0  0  0  0  0  0  0  0  0  0
    0.6570   -2.6450    0.0000 O   0  0  0  0  0  0  0  0  0  0  0  0
   -1.9500   -1.4190    0.0000 C   0  0  3  0  0  0  0  0  0  0  0  0
   -3.3560   -2.0310    0.0000 C   0  0  3  0  0  0  0  0  0  0  0  0
   -3.7760   -3.3480    0.0000 O   0  0  0  0  0  0  0  0  0  0  0  0
   -3.5990   -0.7980    0.0000 C   0  0  3  0  0  0  0  0  0  0  0  0
   -4.7990    0.0030    0.0000 C   0  0  0  0  0  0  0  0  0  0  0  0
   -4.3280   -1.1610    0.0000 C   0  0  0  0  0  0  0  0  0  0  0  0
   -2.3160   -0.3220    0.0000 C   0  0  3  0  0  0  0  0  0  0  0  0
   -3.1920    0.8950    0.0000 C   0  0  0  0  0  0  0  0  0  0  0  0
   -1.3150    0.7220    0.0000 C   0  0  0  0  0  0  0  0  0  0  0  0
   -1.5430    2.2050    0.0000 O   0  0  0  0  0  0  0  0  0  0  0  0
   -1.6710   -2.8930    0.0000 C   0  0  0  0  0  0  0  0  0  0  0  0
  1  2  1  0  0  0  0
  1 12  1  0  0  0  0
  2  3  2  0  0  0  0
  2  4  1  0  0  0  0
  4  5  1  0  0  0  0
  4 10  1  0  0  0  0
  4 14  1  0  0  0  0
  5  6  1  0  0  0  0
  5  9  1  0  0  0  0
  6  7  1  0  0  0  0
  7  8  1  0  0  0  0
  7 10  1  0  0  0  0
  8  9  1  0  0  0  0
 10 11  1  0  0  0  0
 10 12  1  0  0  0  0
 12 13  2  0  0  0  0
M  END
>  <Index>
1263

>  <ID>
HT2837

>  <class>
0

>  <apol>
28.809517

>  <ast_fraglike>
1

>  <ast_fraglike_ext>
1

>  <ast_violation>
0

>  <ast_violation_ext>
0

>  <a_acc>
3

>  <a_acid>
0

>  <a_aro>
0

>  <a_base>
0

>  <a_count>
26

>  <a_don>
0

>  <a_donacc>
3

>  <a_heavy>
14

>  <a_hyd>
8

>  <a_IC>
37.972603

>  <a_ICM>
1.4604846

>  <a_nB>
0

>  <a_nBr>
0

>  <a_nC>
10

>  <a_nCl>
0

>  <a_nF>
0

>  <a_nH>
12

>  <a_nI>
0

>  <a_nN>
0

>  <a_nO>
4

>  <a_nP>
0

>  <a_nS>
0

>  <balabanJ>
2.125

>  <BCUT_PEOE_0>
-2.6836016

>  <BCUT_PEOE_1>
-0.28311768

>  <BCUT_PEOE_2>
0.30314931

>  <BCUT_PEOE_3>
2.9662948

>  <BCUT_SLOGP_0>
-2.7365339

>  <BCUT_SLOGP_1>
-0.21488023

>  <BCUT_SLOGP_2>
0.34665424

>  <BCUT_SLOGP_3>
2.9075806

>  <BCUT_SMR_0>
-2.4896104

>  <BCUT_SMR_1>
-0.07558205

>  <BCUT_SMR_2>
0.45838514

>  <BCUT_SMR_3>
3.1739655

>  <bpol>
18.866484

>  <b_1rotN>
0

>  <b_1rotR>
0

>  <b_ar>
0

>  <b_count>
28

>  <b_double>
2

>  <b_heavy>
16

>  <b_max1len>
2

>  <b_rotN>
0

>  <b_rotR>
0

>  <b_single>
26

>  <b_triple>
0

>  <chi0>
10.137828

>  <chi0v>
8.2019072

>  <chi0v_C>
6.5689139

>  <chi0_C>
6.7236147

>  <chi1>
6.5088906

>  <chi1v>
4.9317479

>  <chi1v_C>
3.6438468

>  <chi1_C>
3.7211971

>  <chiral>
4

>  <chiral_u>
4

>  <density>
0.81689548

>  <diameter>
5

>  <FCharge>
0

>  <GCUT_PEOE_0>
-0.81649172

>  <GCUT_PEOE_1>
-0.40537867

>  <GCUT_PEOE_2>
-0.083385557

>  <GCUT_PEOE_3>
2.7790258

>  <GCUT_SLOGP_0>
-0.88469172

>  <GCUT_SLOGP_1>
-0.3301771

>  <GCUT_SLOGP_2>
-0.037

>  <GCUT_SLOGP_3>
2.7452781

>  <GCUT_SMR_0>
-0.52489614

>  <GCUT_SMR_1>
-0.18057984

>  <GCUT_SMR_2>
0.033925969

>  <GCUT_SMR_3>
2.9798551

>  <Kier1>
9.2421875

>  <Kier2>
2.3877552

>  <Kier3>
0.74858224

>  <KierA1>
8.0483751

>  <KierA2>
2.0554898

>  <KierA3>
0.63874483

>  <KierFlex>
1.181668

>  <lip_acc>
4

>  <lip_don>
0

>  <lip_druglike>
1

>  <lip_violation>
0

>  <logP(o/w)>
0.5

>  <logS>
-1.61543

>  <mr>
4.707006

>  <mutagenic>
0

>  <nmol>
1

>  <opr_brigid>
12

>  <opr_leadlike>
1

>  <opr_nring>
3

>  <opr_nrot>
0

>  <opr_violation>
0

>  <PC+>
0

>  <PC->
0

>  <PEOE_PC+>
1.2822886

>  <PEOE_PC->
-1.2822886

>  <PEOE_RPC+>
0.21748272

>  <PEOE_RPC->
0.28947851

>  <PEOE_VSA+0>
42.653858

>  <PEOE_VSA+1>
18.34063

>  <PEOE_VSA+2>
0

>  <PEOE_VSA+3>
0

>  <PEOE_VSA+4>
0

>  <PEOE_VSA+5>
29.416998

>  <PEOE_VSA+6>
0

>  <PEOE_VSA-0>
54.89798

>  <PEOE_VSA-1>
0

>  <PEOE_VSA-2>
0

>  <PEOE_VSA-3>
0

>  <PEOE_VSA-4>
2.503756

>  <PEOE_VSA-5>
27.133842

>  <PEOE_VSA-6>
2.503756

>  <PEOE_VSA_FHYD>
0.65309626

>  <PEOE_VSA_FNEG>
0.49049833

>  <PEOE_VSA_FPNEG>
0.18112823

>  <PEOE_VSA_FPOL>
0.34690374

>  <PEOE_VSA_FPOS>
0.50950164

>  <PEOE_VSA_FPPOS>
0.16577549

>  <PEOE_VSA_HYD>
115.89247

>  <PEOE_VSA_NEG>
87.039337

>  <PEOE_VSA_PNEG>
32.141354

>  <PEOE_VSA_POL>
61.558353

>  <PEOE_VSA_POS>
90.411491

>  <PEOE_VSA_PPOS>
29.416998

>  <petitjean>
0.40000001

>  <petitjeanSC>
0.66666669

>  <Q_PC+>
0

>  <Q_PC->
0

>  <Q_RPC+>
0

>  <Q_RPC->
0

>  <Q_VSA_FHYD>
1

>  <Q_VSA_FNEG>
0

>  <Q_VSA_FPNEG>
0

>  <Q_VSA_FPOL>
0

>  <Q_VSA_FPOS>
1

>  <Q_VSA_FPPOS>
0

>  <Q_VSA_HYD>
177.45082

>  <Q_VSA_NEG>
0

>  <Q_VSA_PNEG>
0

>  <Q_VSA_POL>
0

>  <Q_VSA_POS>
177.45082

>  <Q_VSA_PPOS>
0

>  <radius>
3

>  <reactive>
0

>  <rings>
3

>  <RPC+>
0

>  <RPC->
0

>  <rsynth>
0.071428575

>  <SlogP>
0.64359999

>  <SlogP_VSA0>
0

>  <SlogP_VSA1>
15.490929

>  <SlogP_VSA2>
82.661507

>  <SlogP_VSA3>
0

>  <SlogP_VSA4>
0

>  <SlogP_VSA5>
0

>  <SlogP_VSA6>
0

>  <SlogP_VSA7>
0

>  <SlogP_VSA8>
37.736813

>  <SlogP_VSA9>
66.652031

>  <SMR>
4.5208001

>  <SMR_VSA0>
69.724205

>  <SMR_VSA1>
0

>  <SMR_VSA2>
0

>  <SMR_VSA3>
12.937299

>  <SMR_VSA4>
0

>  <SMR_VSA5>
37.736813

>  <SMR_VSA6>
15.490929

>  <SMR_VSA7>
66.652031

>  <TPSA>
52.599998

>  <VAdjEq>
0.64206427

>  <VAdjMa>
5

>  <VDistEq>
2.0518892

>  <VDistMa>
7.3830228

>  <vdw_area>
177.45082

>  <vdw_vol>
240.18004

>  <vsa_acc>
29.637598

>  <vsa_acid>
0

>  <vsa_base>
0

>  <vsa_don>
0

>  <vsa_hyd>
107.35093

>  <vsa_other>
31.920755

>  <vsa_pol>
29.637598

>  <Weight>
196.202

>  <weinerPath>
233

>  <weinerPol>
29

>  <zagreb>
88

$$$$