O=C1CCC2C3C(C4CC[C@](O)(C)C4(CC3)C)CCC2=C1
  MOE2013           2D

 21 24  0  0  1  0  0  0  0  0999 V2000
    0.0000    0.0000    0.0000 O   0  0  0  0  0  0  0  0  0  0  0  0
   -1.5000    0.0030    0.0000 C   0  0  0  0  0  0  0  0  0  0  0  0
   -2.2520   -1.2950    0.0000 C   0  0  0  0  0  0  0  0  0  0  0  0
   -3.7520   -1.2920    0.0000 C   0  0  0  0  0  0  0  0  0  0  0  0
   -4.5000    0.0080    0.0000 C   0  0  3  0  0  0  0  0  0  0  0  0
   -6.0000    0.0110    0.0000 C   0  0  3  0  0  0  0  0  0  0  0  0
   -6.7480    1.3110    0.0000 C   0  0  3  0  0  0  0  0  0  0  0  0
   -8.2480    1.3140    0.0000 C   0  0  3  0  0  0  0  0  0  0  0  0
   -9.2490    2.4310    0.0000 C   0  0  0  0  0  0  0  0  0  0  0  0
  -10.6210    1.8230    0.0000 C   0  0  0  0  0  0  0  0  0  0  0  0
  -10.4670    0.3310    0.0000 C   0  0  2  0  0  0  0  0  0  0  0  0
  -11.9290   -0.0040    0.0000 O   0  0  0  0  0  0  0  0  0  0  0  0
  -10.8580   -1.1170    0.0000 C   0  0  0  0  0  0  0  0  0  0  0  0
   -9.0000    0.0160    0.0000 C   0  0  3  0  0  0  0  0  0  0  0  0
   -8.2520   -1.2840    0.0000 C   0  0  0  0  0  0  0  0  0  0  0  0
   -6.7520   -1.2870    0.0000 C   0  0  0  0  0  0  0  0  0  0  0  0
   -9.8840   -1.1950    0.0000 C   0  0  0  0  0  0  0  0  0  0  0  0
   -5.9950    2.6090    0.0000 C   0  0  0  0  0  0  0  0  0  0  0  0
   -4.4950    2.6060    0.0000 C   0  0  0  0  0  0  0  0  0  0  0  0
   -3.7480    1.3060    0.0000 C   0  0  0  0  0  0  0  0  0  0  0  0
   -2.2480    1.3030    0.0000 C   0  0  0  0  0  0  0  0  0  0  0  0
  1  2  2  0  0  0  0
  2  3  1  0  0  0  0
  2 21  1  0  0  0  0
  3  4  1  0  0  0  0
  4  5  1  0  0  0  0
  5  6  1  0  0  0  0
  5 20  1  0  0  0  0
  6  7  1  0  0  0  0
  6 16  1  0  0  0  0
  7  8  1  0  0  0  0
  7 18  1  0  0  0  0
  8  9  1  0  0  0  0
  8 14  1  0  0  0  0
  9 10  1  0  0  0  0
 10 11  1  0  0  0  0
 11 12  1  6  0  0  0
 11 13  1  1  0  0  0
 11 14  1  0  0  0  0
 14 15  1  0  0  0  0
 14 17  1  0  0  0  0
 15 16  1  0  0  0  0
 18 19  1  0  0  0  0
 19 20  1  0  0  0  0
 20 21  2  0  0  0  0
M  END
>  <Index>
1310

>  <ID>
HT3291

>  <class>
0

>  <apol>
53.714203

>  <ast_fraglike>
0

>  <ast_fraglike_ext>
0

>  <ast_violation>
1

>  <ast_violation_ext>
1

>  <a_acc>
2

>  <a_acid>
0

>  <a_aro>
0

>  <a_base>
0

>  <a_count>
49

>  <a_don>
1

>  <a_donacc>
3

>  <a_heavy>
21

>  <a_hyd>
18

>  <a_IC>
57.804222

>  <a_ICM>
1.179678

>  <a_nB>
0

>  <a_nBr>
0

>  <a_nC>
19

>  <a_nCl>
0

>  <a_nF>
0

>  <a_nH>
28

>  <a_nI>
0

>  <a_nN>
0

>  <a_nO>
2

>  <a_nP>
0

>  <a_nS>
0

>  <balabanJ>
1.5833663

>  <BCUT_PEOE_0>
-2.9330707

>  <BCUT_PEOE_1>
-0.46611094

>  <BCUT_PEOE_2>
0.38576254

>  <BCUT_PEOE_3>
2.9597633

>  <BCUT_SLOGP_0>
-2.8578632

>  <BCUT_SLOGP_1>
-0.41769001

>  <BCUT_SLOGP_2>
0.36188003

>  <BCUT_SLOGP_3>
3.0323708

>  <BCUT_SMR_0>
-2.6782782

>  <BCUT_SMR_1>
-0.31590673

>  <BCUT_SMR_2>
0.58907902

>  <BCUT_SMR_3>
3.2116847

>  <bpol>
31.567797

>  <b_1rotN>
0

>  <b_1rotR>
0

>  <b_ar>
0

>  <b_count>
52

>  <b_double>
2

>  <b_heavy>
24

>  <b_max1len>
4

>  <b_rotN>
0

>  <b_rotR>
0

>  <b_single>
50

>  <b_triple>
0

>  <chi0>
14.828063

>  <chi0v>
13.399068

>  <chi0v_C>
12.543606

>  <chi0_C>
12.828063

>  <chi1>
9.922452

>  <chi1v>
8.8796387

>  <chi1v_C>
8.4519072

>  <chi1_C>
8.8451014

>  <chiral>
6

>  <chiral_u>
5

>  <density>
0.67664641

>  <diameter>
10

>  <FCharge>
0

>  <GCUT_PEOE_0>
-0.80477262

>  <GCUT_PEOE_1>
-0.36964065

>  <GCUT_PEOE_2>
0.0025856122

>  <GCUT_PEOE_3>
3.2476072

>  <GCUT_SLOGP_0>
-0.88372678

>  <GCUT_SLOGP_1>
-0.31803337

>  <GCUT_SLOGP_2>
-0.0092177652

>  <GCUT_SLOGP_3>
3.3316422

>  <GCUT_SMR_0>
-0.53805614

>  <GCUT_SMR_1>
-0.21090688

>  <GCUT_SMR_2>
0.11203911

>  <GCUT_SMR_3>
3.4729459

>  <Kier1>
14.583333

>  <Kier2>
4.7468772

>  <Kier3>
1.9944599

>  <KierA1>
13.410684

>  <KierA2>
4.3459916

>  <KierA3>
1.8198664

>  <KierFlex>
2.7753675

>  <lip_acc>
2

>  <lip_don>
1

>  <lip_druglike>
1

>  <lip_violation>
0

>  <logP(o/w)>
3.1530001

>  <logS>
-4.2760601

>  <mr>
8.3063316

>  <mutagenic>
0

>  <nmol>
1

>  <opr_brigid>
20

>  <opr_leadlike>
1

>  <opr_nring>
4

>  <opr_nrot>
0

>  <opr_violation>
0

>  <PC+>
0

>  <PC->
0

>  <PEOE_PC+>
1.2469527

>  <PEOE_PC->
-1.2469527

>  <PEOE_RPC+>
0.16854744

>  <PEOE_RPC->
0.31139746

>  <PEOE_VSA+0>
119.60135

>  <PEOE_VSA+1>
4.2653861

>  <PEOE_VSA+2>
0

>  <PEOE_VSA+3>
8.458519

>  <PEOE_VSA+4>
10.324173

>  <PEOE_VSA+5>
0

>  <PEOE_VSA+6>
0

>  <PEOE_VSA-0>
91.911774

>  <PEOE_VSA-1>
20.956217

>  <PEOE_VSA-2>
0

>  <PEOE_VSA-3>
0

>  <PEOE_VSA-4>
0

>  <PEOE_VSA-5>
13.566921

>  <PEOE_VSA-6>
7.7675405

>  <PEOE_VSA_FHYD>
0.88564777

>  <PEOE_VSA_FNEG>
0.48474461

>  <PEOE_VSA_FPNEG>
0.077060923

>  <PEOE_VSA_FPOL>
0.11435224

>  <PEOE_VSA_FPOS>
0.51525539

>  <PEOE_VSA_FPPOS>
0.037291322

>  <PEOE_VSA_HYD>
245.19325

>  <PEOE_VSA_NEG>
134.20245

>  <PEOE_VSA_PNEG>
21.334461

>  <PEOE_VSA_POL>
31.658634

>  <PEOE_VSA_POS>
142.64943

>  <PEOE_VSA_PPOS>
10.324173

>  <petitjean>
0.5

>  <petitjeanSC>
1

>  <Q_PC+>
0

>  <Q_PC->
0

>  <Q_RPC+>
0

>  <Q_RPC->
0

>  <Q_VSA_FHYD>
1

>  <Q_VSA_FNEG>
0

>  <Q_VSA_FPNEG>
0

>  <Q_VSA_FPOL>
0

>  <Q_VSA_FPOS>
1

>  <Q_VSA_FPPOS>
0

>  <Q_VSA_HYD>
276.85187

>  <Q_VSA_NEG>
0

>  <Q_VSA_PNEG>
0

>  <Q_VSA_POL>
0

>  <Q_VSA_POS>
276.85187

>  <Q_VSA_PPOS>
0

>  <radius>
5

>  <reactive>
1

>  <rings>
4

>  <RPC+>
0

>  <RPC->
0

>  <rsynth>
0

>  <SlogP>
3.8792

>  <SlogP_VSA0>
25.385227

>  <SlogP_VSA1>
5.6876111

>  <SlogP_VSA2>
23.862217

>  <SlogP_VSA3>
0

>  <SlogP_VSA4>
17.643185

>  <SlogP_VSA5>
3.185575

>  <SlogP_VSA6>
0

>  <SlogP_VSA7>
17.643185

>  <SlogP_VSA8>
150.94725

>  <SlogP_VSA9>
66.652031

>  <SMR>
8.2716799

>  <SMR_VSA0>
23.862217

>  <SMR_VSA1>
25.385227

>  <SMR_VSA2>
17.643185

>  <SMR_VSA3>
3.185575

>  <SMR_VSA4>
0

>  <SMR_VSA5>
168.59042

>  <SMR_VSA6>
5.6876111

>  <SMR_VSA7>
66.652031

>  <TPSA>
37.299999

>  <VAdjEq>
0.49641782

>  <VAdjMa>
5.5849624

>  <VDistEq>
2.9997747

>  <VDistMa>
8.4975042

>  <vdw_area>
276.85187

>  <vdw_vol>
426.26547

>  <vsa_acc>
13.566921

>  <vsa_acid>
0

>  <vsa_base>
0

>  <vsa_don>
0

>  <vsa_hyd>
212.13605

>  <vsa_other>
8.458519

>  <vsa_pol>
27.133842

>  <Weight>
288.431

>  <weinerPath>
822

>  <weinerPol>
43

>  <zagreb>
126

$$$$