[nH]1cc(c2c1cccc2)CC(N)CC
  MOE2013           2D

 14 15  0  0  1  0  0  0  0  0999 V2000
    0.0000    0.0000    0.0000 N   0  0  0  0  0  0  0  0  0  0  0  0
    1.5000    0.0040    0.0000 C   0  0  0  0  0  0  0  0  0  0  0  0
    1.9590    1.4320    0.0000 C   0  0  0  0  0  0  0  0  0  0  0  0
    0.7430    2.3110    0.0000 C   0  0  0  0  0  0  0  0  0  0  0  0
   -0.4680    1.4250    0.0000 C   0  0  0  0  0  0  0  0  0  0  0  0
   -1.8400    2.0310    0.0000 C   0  0  0  0  0  0  0  0  0  0  0  0
   -2.0010    3.5220    0.0000 C   0  0  0  0  0  0  0  0  0  0  0  0
   -0.7900    4.4080    0.0000 C   0  0  0  0  0  0  0  0  0  0  0  0
    0.5820    3.8020    0.0000 C   0  0  0  0  0  0  0  0  0  0  0  0
    3.3840    1.9000    0.0000 C   0  0  0  0  0  0  0  0  0  0  0  0
    4.5020    0.9000    0.0000 C   0  0  3  0  0  0  0  0  0  0  0  0
    4.1950   -0.5680    0.0000 N   0  0  0  0  0  0  0  0  0  0  0  0
    5.9270    1.3680    0.0000 C   0  0  0  0  0  0  0  0  0  0  0  0
    7.0450    0.3670    0.0000 C   0  0  0  0  0  0  0  0  0  0  0  0
  1  2  1  0  0  0  0
  1  5  1  0  0  0  0
  2  3  2  0  0  0  0
  3  4  1  0  0  0  0
  3 10  1  0  0  0  0
  4  5  1  0  0  0  0
  4  9  2  0  0  0  0
  5  6  2  0  0  0  0
  6  7  1  0  0  0  0
  7  8  2  0  0  0  0
  8  9  1  0  0  0  0
 10 11  1  0  0  0  0
 11 12  1  0  0  0  0
 11 13  1  0  0  0  0
 13 14  1  0  0  0  0
M  END
>  <Index>
1257

>  <ID>
HT2811

>  <class>
0

>  <apol>
33.988689

>  <ast_fraglike>
1

>  <ast_fraglike_ext>
1

>  <ast_violation>
0

>  <ast_violation_ext>
0

>  <a_acc>
1

>  <a_acid>
0

>  <a_aro>
9

>  <a_base>
0

>  <a_count>
30

>  <a_don>
2

>  <a_donacc>
3

>  <a_heavy>
14

>  <a_hyd>
12

>  <a_IC>
38.187168

>  <a_ICM>
1.2729056

>  <a_nB>
0

>  <a_nBr>
0

>  <a_nC>
12

>  <a_nCl>
0

>  <a_nF>
0

>  <a_nH>
16

>  <a_nI>
0

>  <a_nN>
2

>  <a_nO>
0

>  <a_nP>
0

>  <a_nS>
0

>  <balabanJ>
1.8880301

>  <BCUT_PEOE_0>
-2.6260409

>  <BCUT_PEOE_1>
-0.54807931

>  <BCUT_PEOE_2>
0.6138857

>  <BCUT_PEOE_3>
2.5698891

>  <BCUT_SLOGP_0>
-2.7465923

>  <BCUT_SLOGP_1>
-0.47179872

>  <BCUT_SLOGP_2>
0.69140649

>  <BCUT_SLOGP_3>
2.5966952

>  <BCUT_SMR_0>
-2.3645117

>  <BCUT_SMR_1>
-0.42465553

>  <BCUT_SMR_2>
0.7468859

>  <BCUT_SMR_3>
2.8335161

>  <bpol>
17.491312

>  <b_1rotN>
3

>  <b_1rotR>
0.2

>  <b_ar>
10

>  <b_count>
31

>  <b_double>
0

>  <b_heavy>
15

>  <b_max1len>
5

>  <b_rotN>
3

>  <b_rotR>
0.2

>  <b_single>
21

>  <b_triple>
0

>  <chi0>
9.9662552

>  <chi0v>
8.4556656

>  <chi0v_C>
7.378315

>  <chi0_C>
8.2591486

>  <chi1>
6.8088617

>  <chi1v>
5.1151905

>  <chi1v_C>
4.2431822

>  <chi1_C>
5.3232632

>  <chiral>
1

>  <chiral_u>
1

>  <density>
0.65690947

>  <diameter>
8

>  <FCharge>
0

>  <GCUT_PEOE_0>
-0.86289859

>  <GCUT_PEOE_1>
-0.35482785

>  <GCUT_PEOE_2>
0.069308013

>  <GCUT_PEOE_3>
2.4578114

>  <GCUT_SLOGP_0>
-1.363524

>  <GCUT_SLOGP_1>
-0.26004016

>  <GCUT_SLOGP_2>
0.14210412

>  <GCUT_SLOGP_3>
2.5579419

>  <GCUT_SMR_0>
-0.52405107

>  <GCUT_SMR_1>
-0.1978419

>  <GCUT_SMR_2>
0.16945995

>  <GCUT_SMR_3>
2.7446439

>  <Kier1>
10.515555

>  <Kier2>
4.6799998

>  <Kier3>
2.3431952

>  <KierA1>
7.9016109

>  <KierA2>
3.4316003

>  <KierA3>
1.6860827

>  <KierFlex>
1.9367979

>  <lip_acc>
2

>  <lip_don>
3

>  <lip_druglike>
1

>  <lip_violation>
0

>  <logP(o/w)>
2.6919999

>  <logS>
-1.93015

>  <mr>
5.9112711

>  <mutagenic>
0

>  <nmol>
1

>  <opr_brigid>
10

>  <opr_leadlike>
1

>  <opr_nring>
2

>  <opr_nrot>
3

>  <opr_violation>
0

>  <PC+>
0

>  <PC->
0

>  <PEOE_PC+>
1.0337869

>  <PEOE_PC->
-1.0337869

>  <PEOE_RPC+>
0.15993901

>  <PEOE_RPC->
0.34858888

>  <PEOE_VSA+0>
62.923054

>  <PEOE_VSA+1>
21.326929

>  <PEOE_VSA+2>
17.238026

>  <PEOE_VSA+3>
8.6190128

>  <PEOE_VSA+4>
0

>  <PEOE_VSA+5>
0

>  <PEOE_VSA+6>
0

>  <PEOE_VSA-0>
31.86607

>  <PEOE_VSA-1>
55.51239

>  <PEOE_VSA-2>
0

>  <PEOE_VSA-3>
0

>  <PEOE_VSA-4>
0

>  <PEOE_VSA-5>
0

>  <PEOE_VSA-6>
6.7880106

>  <PEOE_VSA_FHYD>
0.96676999

>  <PEOE_VSA_FNEG>
0.46098232

>  <PEOE_VSA_FPNEG>
0.03323001

>  <PEOE_VSA_FPOL>
0.03323001

>  <PEOE_VSA_FPOS>
0.53901768

>  <PEOE_VSA_FPPOS>
0

>  <PEOE_VSA_HYD>
197.48549

>  <PEOE_VSA_NEG>
94.166473

>  <PEOE_VSA_PNEG>
6.7880106

>  <PEOE_VSA_POL>
6.7880106

>  <PEOE_VSA_POS>
110.10703

>  <PEOE_VSA_PPOS>
0

>  <petitjean>
0.5

>  <petitjeanSC>
1

>  <Q_PC+>
0

>  <Q_PC->
0

>  <Q_RPC+>
0

>  <Q_RPC->
0

>  <Q_VSA_FHYD>
1

>  <Q_VSA_FNEG>
0

>  <Q_VSA_FPNEG>
0

>  <Q_VSA_FPOL>
0

>  <Q_VSA_FPOS>
1

>  <Q_VSA_FPPOS>
0

>  <Q_VSA_HYD>
204.2735

>  <Q_VSA_NEG>
0

>  <Q_VSA_PNEG>
0

>  <Q_VSA_POL>
0

>  <Q_VSA_POS>
204.2735

>  <Q_VSA_PPOS>
0

>  <radius>
4

>  <reactive>
0

>  <rings>
2

>  <RPC+>
0

>  <RPC->
0

>  <rsynth>
1

>  <SlogP>
2.44767

>  <SlogP_VSA0>
32.897186

>  <SlogP_VSA1>
0

>  <SlogP_VSA2>
20.767498

>  <SlogP_VSA3>
0

>  <SlogP_VSA4>
3.185575

>  <SlogP_VSA5>
18.868406

>  <SlogP_VSA6>
0

>  <SlogP_VSA7>
92.504196

>  <SlogP_VSA8>
18.868406

>  <SlogP_VSA9>
33.326015

>  <SMR>
6.0269098

>  <SMR_VSA0>
0

>  <SMR_VSA1>
0

>  <SMR_VSA2>
16.78553

>  <SMR_VSA3>
7.1675434

>  <SMR_VSA4>
37.614288

>  <SMR_VSA5>
125.5239

>  <SMR_VSA6>
0

>  <SMR_VSA7>
33.326015

>  <TPSA>
41.810001

>  <VAdjEq>
0.61744827

>  <VAdjMa>
4.9068904

>  <VDistEq>
2.7335386

>  <VDistMa>
7.300631

>  <vdw_area>
204.2735

>  <vdw_vol>
286.60571

>  <vsa_acc>
0

>  <vsa_acid>
0

>  <vsa_base>
0

>  <vsa_don>
5.6825762

>  <vsa_hyd>
162.37511

>  <vsa_other>
0

>  <vsa_pol>
23.425066

>  <Weight>
188.274

>  <weinerPath>
304

>  <weinerPol>
18

>  <zagreb>
70

$$$$