Ic1ccccc1C(=O)NCC(O)=O
  MOE2013           2D

 14 14  0  0  0  0  0  0  0  0999 V2000
    0.0000    0.0000    0.0000 I   0  0  0  0  0  0  0  0  0  0  0  0
   -0.7390    1.3050    0.0000 C   0  0  0  0  0  0  0  0  0  0  0  0
   -2.2390    1.3170    0.0000 C   0  0  0  0  0  0  0  0  0  0  0  0
   -2.9790    2.6230    0.0000 C   0  0  0  0  0  0  0  0  0  0  0  0
   -2.2180    3.9150    0.0000 C   0  0  0  0  0  0  0  0  0  0  0  0
   -0.7180    3.9030    0.0000 C   0  0  0  0  0  0  0  0  0  0  0  0
    0.0210    2.5980    0.0000 C   0  0  0  0  0  0  0  0  0  0  0  0
    1.5210    2.5860    0.0000 C   0  0  0  0  0  0  0  0  0  0  0  0
    2.2610    1.2810    0.0000 O   0  0  0  0  0  0  0  0  0  0  0  0
    2.2820    3.8780    0.0000 N   0  0  0  0  0  0  0  0  0  0  0  0
    3.7820    3.8660    0.0000 C   0  0  0  0  0  0  0  0  0  0  0  0
    4.5430    5.1590    0.0000 C   0  0  0  0  0  0  0  0  0  0  0  0
    6.0420    5.1470    0.0000 O   0  0  0  0  0  0  0  0  0  0  0  0
    3.8030    6.4640    0.0000 O   0  0  0  0  0  0  0  0  0  0  0  0
  1  2  1  0  0  0  0
  2  3  1  0  0  0  0
  2  7  2  0  0  0  0
  3  4  2  0  0  0  0
  4  5  1  0  0  0  0
  5  6  2  0  0  0  0
  6  7  1  0  0  0  0
  7  8  1  0  0  0  0
  8  9  2  0  0  0  0
  8 10  1  0  0  0  0
 10 11  1  0  0  0  0
 11 12  1  0  0  0  0
 12 13  1  0  0  0  0
 12 14  2  0  0  0  0
M  END
>  <Index>
1323

>  <ID>
HT3383

>  <class>
0

>  <apol>
30.030344

>  <ast_fraglike>
0

>  <ast_fraglike_ext>
0

>  <ast_violation>
1

>  <ast_violation_ext>
1

>  <a_acc>
3

>  <a_acid>
0

>  <a_aro>
6

>  <a_base>
0

>  <a_count>
22

>  <a_don>
3

>  <a_donacc>
6

>  <a_heavy>
14

>  <a_hyd>
8

>  <a_IC>
40.823284

>  <a_ICM>
1.8556038

>  <a_nB>
0

>  <a_nBr>
0

>  <a_nC>
9

>  <a_nCl>
0

>  <a_nF>
0

>  <a_nH>
8

>  <a_nI>
1

>  <a_nN>
1

>  <a_nO>
3

>  <a_nP>
0

>  <a_nS>
0

>  <balabanJ>
2.3231206

>  <BCUT_PEOE_0>
-2.3334568

>  <BCUT_PEOE_1>
-0.61789495

>  <BCUT_PEOE_2>
0.64440536

>  <BCUT_PEOE_3>
2.3652058

>  <BCUT_SLOGP_0>
-2.6094928

>  <BCUT_SLOGP_1>
-0.47627592

>  <BCUT_SLOGP_2>
0.6989677

>  <BCUT_SLOGP_3>
2.2885375

>  <BCUT_SMR_0>
-2.0580795

>  <BCUT_SMR_1>
-0.41023597

>  <BCUT_SMR_2>
0.78727818

>  <BCUT_SMR_3>
2.6441224

>  <bpol>
14.911656

>  <b_1rotN>
3

>  <b_1rotR>
0.21428572

>  <b_ar>
6

>  <b_count>
22

>  <b_double>
2

>  <b_heavy>
14

>  <b_max1len>
3

>  <b_rotN>
4

>  <b_rotR>
0.2857143

>  <b_single>
14

>  <b_triple>
0

>  <chi0>
10.552042

>  <chi0v>
9.3156805

>  <chi0v_C>
5.0165076

>  <chi0_C>
5.8449349

>  <chi1>
6.6090608

>  <chi1v>
4.9340434

>  <chi1v_C>
2.4309037

>  <chi1_C>
3.3914115

>  <chiral>
0

>  <chiral_u>
0

>  <density>
1.1648823

>  <diameter>
8

>  <FCharge>
0

>  <GCUT_PEOE_0>
-0.81252408

>  <GCUT_PEOE_1>
-0.43422663

>  <GCUT_PEOE_2>
0.097430073

>  <GCUT_PEOE_3>
2.1275058

>  <GCUT_SLOGP_0>
-1.1615484

>  <GCUT_SLOGP_1>
-0.43810681

>  <GCUT_SLOGP_2>
0.17118999

>  <GCUT_SLOGP_3>
2.1713972

>  <GCUT_SMR_0>
-0.4709754

>  <GCUT_SMR_1>
-0.22396874

>  <GCUT_SMR_2>
0.2364004

>  <GCUT_SMR_3>
2.4678962

>  <Kier1>
12.071428

>  <Kier2>
5.7777777

>  <Kier3>
3.96

>  <KierA1>
10.78436

>  <KierA2>
5.113677

>  <KierA3>
3.4798133

>  <KierFlex>
3.9391241

>  <lip_acc>
4

>  <lip_don>
2

>  <lip_druglike>
1

>  <lip_violation>
0

>  <logP(o/w)>
1.898

>  <logS>
-2.5183699

>  <mr>
6.1347356

>  <mutagenic>
0

>  <nmol>
1

>  <opr_brigid>
6

>  <opr_leadlike>
1

>  <opr_nring>
1

>  <opr_nrot>
3

>  <opr_violation>
0

>  <PC+>
0

>  <PC->
0

>  <PEOE_PC+>
1.4644864

>  <PEOE_PC->
-1.4644864

>  <PEOE_RPC+>
0.19051193

>  <PEOE_RPC->
0.23402487

>  <PEOE_VSA+0>
3.0400939

>  <PEOE_VSA+1>
27.800856

>  <PEOE_VSA+2>
13.192325

>  <PEOE_VSA+3>
8.6190128

>  <PEOE_VSA+4>
10.324173

>  <PEOE_VSA+5>
27.65803

>  <PEOE_VSA+6>
0

>  <PEOE_VSA-0>
71.499825

>  <PEOE_VSA-1>
24.509808

>  <PEOE_VSA-2>
0

>  <PEOE_VSA-3>
0

>  <PEOE_VSA-4>
0

>  <PEOE_VSA-5>
27.133842

>  <PEOE_VSA-6>
7.9044313

>  <PEOE_VSA_FHYD>
0.67060769

>  <PEOE_VSA_FNEG>
0.5911516

>  <PEOE_VSA_FPNEG>
0.15805618

>  <PEOE_VSA_FPOL>
0.32939231

>  <PEOE_VSA_FPOS>
0.4088484

>  <PEOE_VSA_FPPOS>
0.17133613

>  <PEOE_VSA_HYD>
148.66191

>  <PEOE_VSA_NEG>
131.0479

>  <PEOE_VSA_PNEG>
35.038273

>  <PEOE_VSA_POL>
73.020477

>  <PEOE_VSA_POS>
90.634491

>  <PEOE_VSA_PPOS>
37.982204

>  <petitjean>
0.5

>  <petitjeanSC>
1

>  <Q_PC+>
0

>  <Q_PC->
0

>  <Q_RPC+>
0

>  <Q_RPC->
0

>  <Q_VSA_FHYD>
1

>  <Q_VSA_FNEG>
0

>  <Q_VSA_FPNEG>
0

>  <Q_VSA_FPOL>
0

>  <Q_VSA_FPOS>
1

>  <Q_VSA_FPPOS>
0

>  <Q_VSA_HYD>
221.68239

>  <Q_VSA_NEG>
0

>  <Q_VSA_PNEG>
0

>  <Q_VSA_POL>
0

>  <Q_VSA_POS>
221.68239

>  <Q_VSA_PPOS>
0

>  <radius>
4

>  <reactive>
0

>  <rings>
1

>  <RPC+>
0

>  <RPC->
0

>  <rsynth>
1

>  <SlogP>
1.1056

>  <SlogP_VSA0>
18.01075

>  <SlogP_VSA1>
13.004248

>  <SlogP_VSA2>
25.52186

>  <SlogP_VSA3>
43.824806

>  <SlogP_VSA4>
27.047791

>  <SlogP_VSA5>
0

>  <SlogP_VSA6>
0

>  <SlogP_VSA7>
70.572739

>  <SlogP_VSA8>
0

>  <SlogP_VSA9>
56.782009

>  <SMR>
5.9127998

>  <SMR_VSA0>
47.724434

>  <SMR_VSA1>
0

>  <SMR_VSA2>
45.055618

>  <SMR_VSA3>
3.185575

>  <SMR_VSA4>
0

>  <SMR_VSA5>
70.572739

>  <SMR_VSA6>
31.443827

>  <SMR_VSA7>
56.782009

>  <TPSA>
66.400002

>  <VAdjEq>
0.59167278

>  <VAdjMa>
4.8073549

>  <VDistEq>
2.8280509

>  <VDistMa>
7.2945185

>  <vdw_area>
221.68239

>  <vdw_vol>
261.88998

>  <vsa_acc>
13.566921

>  <vsa_acid>
0

>  <vsa_base>
0

>  <vsa_don>
5.6825762

>  <vsa_hyd>
135.77213

>  <vsa_other>
27.65803

>  <vsa_pol>
46.383339

>  <Weight>
305.07098

>  <weinerPath>
325

>  <weinerPol>
17

>  <zagreb>
64

$$$$