Clc1ccc(OC(C(Oc2c(C)c(c3O[C@@](CCc3c2C)(CCC[C@@H](CCC[C@@H](CCCC(C)C)C)C)C)C)=O)(C)C)cc1
  MOE2013           2D

 44 46  0  0  1  0  0  0  0  0999 V2000
    0.0000    0.0000    0.0000 Cl  0  0  0  0  0  0  0  0  0  0  0  0
    1.2940    0.7590    0.0000 C   0  0  0  0  0  0  0  0  0  0  0  0
    1.2830    2.2590    0.0000 C   0  0  0  0  0  0  0  0  0  0  0  0
    2.5770    3.0180    0.0000 C   0  0  0  0  0  0  0  0  0  0  0  0
    3.8810    2.2770    0.0000 C   0  0  0  0  0  0  0  0  0  0  0  0
    5.1750    3.0360    0.0000 O   0  0  0  0  0  0  0  0  0  0  0  0
    6.4790    2.2950    0.0000 C   0  0  0  0  0  0  0  0  0  0  0  0
    7.7840    1.5540    0.0000 C   0  0  0  0  0  0  0  0  0  0  0  0
    9.0770    2.3130    0.0000 O   0  0  0  0  0  0  0  0  0  0  0  0
   10.3820    1.5720    0.0000 C   0  0  0  0  0  0  0  0  0  0  0  0
   10.3920    0.0720    0.0000 C   0  0  0  0  0  0  0  0  0  0  0  0
    9.0980   -0.6870    0.0000 C   0  0  0  0  0  0  0  0  0  0  0  0
   11.6960   -0.6690    0.0000 C   0  0  0  0  0  0  0  0  0  0  0  0
   12.9900    0.0900    0.0000 C   0  0  0  0  0  0  0  0  0  0  0  0
   14.2940   -0.6510    0.0000 O   0  0  0  0  0  0  0  0  0  0  0  0
   15.5880    0.1080    0.0000 C   0  0  1  0  0  0  0  0  0  0  0  0
   15.5780    1.6080    0.0000 C   0  0  0  0  0  0  0  0  0  0  0  0
   14.2730    2.3490    0.0000 C   0  0  0  0  0  0  0  0  0  0  0  0
   12.9800    1.5900    0.0000 C   0  0  0  0  0  0  0  0  0  0  0  0
   11.6750    2.3310    0.0000 C   0  0  0  0  0  0  0  0  0  0  0  0
   11.6650    3.8310    0.0000 C   0  0  0  0  0  0  0  0  0  0  0  0
   17.0880    0.1190    0.0000 C   0  0  0  0  0  0  0  0  0  0  0  0
   17.8470   -1.1750    0.0000 C   0  0  0  0  0  0  0  0  0  0  0  0
   19.3470   -1.1650    0.0000 C   0  0  0  0  0  0  0  0  0  0  0  0
   20.1060   -2.4590    0.0000 C   0  0  1  0  0  0  0  0  0  0  0  0
   21.6060   -2.4480    0.0000 C   0  0  0  0  0  0  0  0  0  0  0  0
   22.3650   -3.7420    0.0000 C   0  0  0  0  0  0  0  0  0  0  0  0
   23.8650   -3.7320    0.0000 C   0  0  0  0  0  0  0  0  0  0  0  0
   24.6240   -5.0250    0.0000 C   0  0  1  0  0  0  0  0  0  0  0  0
   26.1240   -5.0150    0.0000 C   0  0  0  0  0  0  0  0  0  0  0  0
   26.8650   -3.7110    0.0000 C   0  0  0  0  0  0  0  0  0  0  0  0
   28.3650   -3.7000    0.0000 C   0  0  0  0  0  0  0  0  0  0  0  0
   29.1060   -2.3960    0.0000 C   0  0  0  0  0  0  0  0  0  0  0  0
   28.3470   -1.1020    0.0000 C   0  0  0  0  0  0  0  0  0  0  0  0
   30.6060   -2.3860    0.0000 C   0  0  0  0  0  0  0  0  0  0  0  0
   23.8830   -6.3300    0.0000 C   0  0  0  0  0  0  0  0  0  0  0  0
   19.3650   -3.7630    0.0000 C   0  0  0  0  0  0  0  0  0  0  0  0
   16.3470   -1.1860    0.0000 C   0  0  0  0  0  0  0  0  0  0  0  0
   11.7070   -2.1690    0.0000 C   0  0  0  0  0  0  0  0  0  0  0  0
    7.7940    0.0540    0.0000 O   0  0  0  0  0  0  0  0  0  0  0  0
    5.7380    0.9910    0.0000 C   0  0  0  0  0  0  0  0  0  0  0  0
    7.2200    3.5990    0.0000 C   0  0  0  0  0  0  0  0  0  0  0  0
    3.8920    0.7770    0.0000 C   0  0  0  0  0  0  0  0  0  0  0  0
    2.5980    0.0180    0.0000 C   0  0  0  0  0  0  0  0  0  0  0  0
  1  2  1  0  0  0  0
  2  3  1  0  0  0  0
  2 44  2  0  0  0  0
  3  4  2  0  0  0  0
  4  5  1  0  0  0  0
  5  6  1  0  0  0  0
  5 43  2  0  0  0  0
  6  7  1  0  0  0  0
  7  8  1  0  0  0  0
  7 41  1  0  0  0  0
  7 42  1  0  0  0  0
  8  9  1  0  0  0  0
  8 40  2  0  0  0  0
  9 10  1  0  0  0  0
 10 11  1  0  0  0  0
 10 20  2  0  0  0  0
 11 12  1  0  0  0  0
 11 13  2  0  0  0  0
 13 14  1  0  0  0  0
 13 39  1  0  0  0  0
 14 15  1  0  0  0  0
 14 19  2  0  0  0  0
 15 16  1  0  0  0  0
 16 17  1  0  0  0  0
 16 22  1  1  0  0  0
 16 38  1  6  0  0  0
 17 18  1  0  0  0  0
 18 19  1  0  0  0  0
 19 20  1  0  0  0  0
 20 21  1  0  0  0  0
 22 23  1  0  0  0  0
 23 24  1  0  0  0  0
 24 25  1  0  0  0  0
 25 26  1  0  0  0  0
 25 37  1  1  0  0  0
 26 27  1  0  0  0  0
 27 28  1  0  0  0  0
 28 29  1  0  0  0  0
 29 30  1  0  0  0  0
 29 36  1  1  0  0  0
 30 31  1  0  0  0  0
 31 32  1  0  0  0  0
 32 33  1  0  0  0  0
 33 34  1  0  0  0  0
 33 35  1  0  0  0  0
 43 44  1  0  0  0  0
M  END
>  <Index>
1083

>  <ID>
HT2075

>  <class>
0

>  <apol>
113.36879

>  <ast_fraglike>
0

>  <ast_fraglike_ext>
0

>  <ast_violation>
2

>  <ast_violation_ext>
3

>  <a_acc>
3

>  <a_acid>
0

>  <a_aro>
12

>  <a_base>
0

>  <a_count>
103

>  <a_don>
0

>  <a_donacc>
3

>  <a_heavy>
44

>  <a_hyd>
39

>  <a_IC>
127.50293

>  <a_ICM>
1.2378925

>  <a_nB>
0

>  <a_nBr>
0

>  <a_nC>
39

>  <a_nCl>
1

>  <a_nF>
0

>  <a_nH>
59

>  <a_nI>
0

>  <a_nN>
0

>  <a_nO>
4

>  <a_nP>
0

>  <a_nS>
0

>  <balabanJ>
1.4322194

>  <BCUT_PEOE_0>
-2.7968233

>  <BCUT_PEOE_1>
-0.4805454

>  <BCUT_PEOE_2>
0.39272171

>  <BCUT_PEOE_3>
2.7438326

>  <BCUT_SLOGP_0>
-2.7163134

>  <BCUT_SLOGP_1>
-0.23469914

>  <BCUT_SLOGP_2>
0.41676962

>  <BCUT_SLOGP_3>
2.8666203

>  <BCUT_SMR_0>
-2.5441611

>  <BCUT_SMR_1>
-0.22769515

>  <BCUT_SMR_2>
0.61751544

>  <BCUT_SMR_3>
2.9947803

>  <bpol>
71.625214

>  <b_1rotN>
16

>  <b_1rotR>
0.34782609

>  <b_ar>
12

>  <b_count>
105

>  <b_double>
1

>  <b_heavy>
46

>  <b_max1len>
16

>  <b_rotN>
17

>  <b_rotR>
0.36956522

>  <b_single>
92

>  <b_triple>
0

>  <chi0>
32.656124

>  <chi0v>
30.086514

>  <chi0v_C>
27.319626

>  <chi0_C>
28.534805

>  <chi1>
20.614517

>  <chi1v>
17.478485

>  <chi1v_C>
15.48267

>  <chi1_C>
17.119717

>  <chiral>
3

>  <chiral_u>
0

>  <density>
0.66835028

>  <diameter>
27

>  <FCharge>
0

>  <GCUT_PEOE_0>
-0.80730706

>  <GCUT_PEOE_1>
-0.36304161

>  <GCUT_PEOE_2>
-0.11661398

>  <GCUT_PEOE_3>
3.1223249

>  <GCUT_SLOGP_0>
-0.95790714

>  <GCUT_SLOGP_1>
-0.23809741

>  <GCUT_SLOGP_2>
-0.037

>  <GCUT_SLOGP_3>
3.236696

>  <GCUT_SMR_0>
-0.53888154

>  <GCUT_SMR_1>
-0.087263927

>  <GCUT_SMR_2>
0.09419217

>  <GCUT_SMR_3>
3.3567519

>  <Kier1>
38.448013

>  <Kier2>
17.413223

>  <Kier3>
11.588528

>  <KierA1>
34.829933

>  <KierA2>
15.737163

>  <KierA3>
10.455861

>  <KierFlex>
12.457371

>  <lip_acc>
4

>  <lip_don>
0

>  <lip_druglike>
0

>  <lip_violation>
2

>  <logP(o/w)>
13.10474

>  <logS>
-13.95117

>  <mr>
18.465307

>  <mutagenic>
0

>  <nmol>
1

>  <opr_brigid>
17

>  <opr_leadlike>
0

>  <opr_nring>
3

>  <opr_nrot>
17

>  <opr_violation>
3

>  <PC+>
0

>  <PC->
0

>  <PEOE_PC+>
2.5398028

>  <PEOE_PC->
-2.5398028

>  <PEOE_RPC+>
0.11785045

>  <PEOE_RPC->
0.13307671

>  <PEOE_VSA+0>
239.11598

>  <PEOE_VSA+1>
42.437103

>  <PEOE_VSA+2>
0

>  <PEOE_VSA+3>
0

>  <PEOE_VSA+4>
0

>  <PEOE_VSA+5>
14.708499

>  <PEOE_VSA+6>
0

>  <PEOE_VSA-0>
196.44379

>  <PEOE_VSA-1>
174.18317

>  <PEOE_VSA-2>
0

>  <PEOE_VSA-3>
0

>  <PEOE_VSA-4>
0

>  <PEOE_VSA-5>
16.070677

>  <PEOE_VSA-6>
5.0075121

>  <PEOE_VSA_FHYD>
0.94798195

>  <PEOE_VSA_FNEG>
0.5693664

>  <PEOE_VSA_FPNEG>
0.030638386

>  <PEOE_VSA_FPOL>
0.052018054

>  <PEOE_VSA_FPOS>
0.4306336

>  <PEOE_VSA_FPPOS>
0.021379666

>  <PEOE_VSA_HYD>
652.17999

>  <PEOE_VSA_NEG>
391.70514

>  <PEOE_VSA_PNEG>
21.07819

>  <PEOE_VSA_POL>
35.78669

>  <PEOE_VSA_POS>
296.26157

>  <PEOE_VSA_PPOS>
14.708499

>  <petitjean>
0.48148149

>  <petitjeanSC>
0.9285714

>  <Q_PC+>
0

>  <Q_PC->
0

>  <Q_RPC+>
0

>  <Q_RPC->
0

>  <Q_VSA_FHYD>
1

>  <Q_VSA_FNEG>
0

>  <Q_VSA_FPNEG>
0

>  <Q_VSA_FPOL>
0

>  <Q_VSA_FPOS>
1

>  <Q_VSA_FPPOS>
0

>  <Q_VSA_HYD>
687.96674

>  <Q_VSA_NEG>
0

>  <Q_VSA_PNEG>
0

>  <Q_VSA_POL>
0

>  <Q_VSA_POS>
687.96674

>  <Q_VSA_PPOS>
0

>  <radius>
14

>  <reactive>
0

>  <rings>
3

>  <RPC+>
0

>  <RPC->
0

>  <rsynth>
0.31818181

>  <SlogP>
11.55103

>  <SlogP_VSA0>
32.999664

>  <SlogP_VSA1>
7.7454643

>  <SlogP_VSA2>
23.862217

>  <SlogP_VSA3>
0

>  <SlogP_VSA4>
25.974688

>  <SlogP_VSA5>
18.868406

>  <SlogP_VSA6>
3.5006065

>  <SlogP_VSA7>
70.572739

>  <SlogP_VSA8>
188.68405

>  <SlogP_VSA9>
388.13907

>  <SMR>
18.452

>  <SMR_VSA0>
23.862217

>  <SMR_VSA1>
32.999664

>  <SMR_VSA2>
13.232388

>  <SMR_VSA3>
31.97319

>  <SMR_VSA4>
0

>  <SMR_VSA5>
278.12518

>  <SMR_VSA6>
7.7454643

>  <SMR_VSA7>
372.40878

>  <TPSA>
44.759998

>  <VAdjEq>
0.27577007

>  <VAdjMa>
6.523562

>  <VDistEq>
4.4392519

>  <VDistMa>
10.574417

>  <vdw_area>
687.96674

>  <vdw_vol>
938.65448

>  <vsa_acc>
18.574432

>  <vsa_acid>
0

>  <vsa_base>
0

>  <vsa_don>
0

>  <vsa_hyd>
606.14893

>  <vsa_other>
17.212255

>  <vsa_pol>
18.574432

>  <Weight>
627.34998

>  <weinerPath>
8837

>  <weinerPol>
70

>  <zagreb>
224

$$$$