O1[C@H](CO)[C@@H](O)[C@H](O)[C@@H](NC(=O)N(N=O)C)[C@@H]1O
  MOE2013           2D

 18 18  0  0  1  0  0  0  0  0999 V2000
    0.0000    0.0000    0.0000 O   0  0  0  0  0  0  0  0  0  0  0  0
   -0.7610   -1.2920    0.0000 C   0  0  2  0  0  0  0  0  0  0  0  0
   -2.2610   -1.2790    0.0000 C   0  0  0  0  0  0  0  0  0  0  0  0
   -3.0000    0.0260    0.0000 O   0  0  0  0  0  0  0  0  0  0  0  0
   -0.0230   -2.5980    0.0000 C   0  0  1  0  0  0  0  0  0  0  0  0
   -0.7840   -3.8900    0.0000 O   0  0  0  0  0  0  0  0  0  0  0  0
    1.4770   -2.6110    0.0000 C   0  0  2  0  0  0  0  0  0  0  0  0
    2.2160   -3.9170    0.0000 O   0  0  0  0  0  0  0  0  0  0  0  0
    2.2390   -1.3190    0.0000 C   0  0  1  0  0  0  0  0  0  0  0  0
    3.7390   -1.3320    0.0000 N   0  0  0  0  0  0  0  0  0  0  0  0
    4.5000   -0.0390    0.0000 C   0  0  0  0  0  0  0  0  0  0  0  0
    3.7610    1.2660    0.0000 O   0  0  0  0  0  0  0  0  0  0  0  0
    6.0000   -0.0520    0.0000 N   0  0  0  0  0  0  0  0  0  0  0  0
    6.7610    1.2400    0.0000 N   0  0  0  0  0  0  0  0  0  0  0  0
    8.2610    1.2270    0.0000 O   0  0  0  0  0  0  0  0  0  0  0  0
    6.7380   -1.3580    0.0000 C   0  0  0  0  0  0  0  0  0  0  0  0
    1.5000   -0.0130    0.0000 C   0  0  2  0  0  0  0  0  0  0  0  0
    2.2610    1.2790    0.0000 O   0  0  0  0  0  0  0  0  0  0  0  0
  1  2  1  0  0  0  0
  1 17  1  0  0  0  0
  2  3  1  1  0  0  0
  2  5  1  0  0  0  0
  3  4  1  0  0  0  0
  5  6  1  6  0  0  0
  5  7  1  0  0  0  0
  7  8  1  1  0  0  0
  7  9  1  0  0  0  0
  9 10  1  6  0  0  0
  9 17  1  0  0  0  0
 10 11  1  0  0  0  0
 11 12  2  0  0  0  0
 11 13  1  0  0  0  0
 13 14  1  0  0  0  0
 13 16  1  0  0  0  0
 14 15  2  0  0  0  0
 17 18  1  1  0  0  0
M  END
>  <Index>
1001

>  <ID>
HT1919

>  <class>
0

>  <apol>
32.995895

>  <ast_fraglike>
0

>  <ast_fraglike_ext>
0

>  <ast_violation>
2

>  <ast_violation_ext>
4

>  <a_acc>
8

>  <a_acid>
0

>  <a_aro>
0

>  <a_base>
0

>  <a_count>
33

>  <a_don>
5

>  <a_donacc>
13

>  <a_heavy>
18

>  <a_hyd>
6

>  <a_IC>
59.455276

>  <a_ICM>
1.801675

>  <a_nB>
0

>  <a_nBr>
0

>  <a_nC>
8

>  <a_nCl>
0

>  <a_nF>
0

>  <a_nH>
15

>  <a_nI>
0

>  <a_nN>
3

>  <a_nO>
7

>  <a_nP>
0

>  <a_nS>
0

>  <balabanJ>
2.6514535

>  <BCUT_PEOE_0>
-2.7257607

>  <BCUT_PEOE_1>
-0.62973833

>  <BCUT_PEOE_2>
0.68060702

>  <BCUT_PEOE_3>
2.7881351

>  <BCUT_SLOGP_0>
-2.9505427

>  <BCUT_SLOGP_1>
-0.6635825

>  <BCUT_SLOGP_2>
0.56516075

>  <BCUT_SLOGP_3>
2.5669334

>  <BCUT_SMR_0>
-2.5190871

>  <BCUT_SMR_1>
-0.46691099

>  <BCUT_SMR_2>
0.79211664

>  <BCUT_SMR_3>
2.9787192

>  <bpol>
21.550104

>  <b_1rotN>
4

>  <b_1rotR>
0.22222222

>  <b_ar>
0

>  <b_count>
33

>  <b_double>
2

>  <b_heavy>
18

>  <b_max1len>
4

>  <b_rotN>
5

>  <b_rotR>
0.27777779

>  <b_single>
31

>  <b_triple>
0

>  <chi0>
13.869879

>  <chi0v>
9.5018845

>  <chi0v_C>
5.0938582

>  <chi0_C>
5.1712084

>  <chi1>
8.4171209

>  <chi1v>
5.1000047

>  <chi1v_C>
1.7415817

>  <chi1_C>
1.7415817

>  <chiral>
5

>  <chiral_u>
0

>  <density>
0.91410857

>  <diameter>
10

>  <FCharge>
0

>  <GCUT_PEOE_0>
-0.79819393

>  <GCUT_PEOE_1>
-0.4451569

>  <GCUT_PEOE_2>
0.17257638

>  <GCUT_PEOE_3>
2.5961277

>  <GCUT_SLOGP_0>
-1.1636935

>  <GCUT_SLOGP_1>
-0.49791318

>  <GCUT_SLOGP_2>
-0.0038697966

>  <GCUT_SLOGP_3>
2.4304814

>  <GCUT_SMR_0>
-0.52079886

>  <GCUT_SMR_1>
-0.25087604

>  <GCUT_SMR_2>
0.23025355

>  <GCUT_SMR_3>
2.7879374

>  <Kier1>
16.055555

>  <Kier2>
6.9632001

>  <Kier3>
3.75

>  <KierA1>
13.481542

>  <KierA2>
5.7825894

>  <KierA3>
3.0887868

>  <KierFlex>
4.3310122

>  <lip_acc>
10

>  <lip_don>
5

>  <lip_druglike>
1

>  <lip_violation>
0

>  <logP(o/w)>
-2.7650001

>  <logS>
0.60026997

>  <mr>
5.5448084

>  <mutagenic>
1

>  <nmol>
1

>  <opr_brigid>
6

>  <opr_leadlike>
1

>  <opr_nring>
1

>  <opr_nrot>
5

>  <opr_violation>
1

>  <PC+>
0

>  <PC->
0

>  <PEOE_PC+>
2.7496922

>  <PEOE_PC->
-2.7496922

>  <PEOE_RPC+>
0.12417166

>  <PEOE_RPC->
0.14269459

>  <PEOE_VSA+0>
36.034847

>  <PEOE_VSA+1>
59.43272

>  <PEOE_VSA+2>
17.860746

>  <PEOE_VSA+3>
19.773922

>  <PEOE_VSA+4>
41.296692

>  <PEOE_VSA+5>
0

>  <PEOE_VSA+6>
17.440542

>  <PEOE_VSA-0>
0

>  <PEOE_VSA-1>
0

>  <PEOE_VSA-2>
16.965525

>  <PEOE_VSA-3>
0

>  <PEOE_VSA-4>
13.566921

>  <PEOE_VSA-5>
0

>  <PEOE_VSA-6>
33.710808

>  <PEOE_VSA_FHYD>
0.58601284

>  <PEOE_VSA_FNEG>
0.25086915

>  <PEOE_VSA_FPNEG>
0.18461898

>  <PEOE_VSA_FPOL>
0.41398716

>  <PEOE_VSA_FPOS>
0.74913085

>  <PEOE_VSA_FPPOS>
0.22936819

>  <PEOE_VSA_HYD>
150.06776

>  <PEOE_VSA_NEG>
64.243256

>  <PEOE_VSA_PNEG>
47.277729

>  <PEOE_VSA_POL>
106.01496

>  <PEOE_VSA_POS>
191.83946

>  <PEOE_VSA_PPOS>
58.737232

>  <petitjean>
0.5

>  <petitjeanSC>
1

>  <Q_PC+>
0

>  <Q_PC->
0

>  <Q_RPC+>
0

>  <Q_RPC->
0

>  <Q_VSA_FHYD>
1

>  <Q_VSA_FNEG>
0

>  <Q_VSA_FPNEG>
0

>  <Q_VSA_FPOL>
0

>  <Q_VSA_FPOS>
1

>  <Q_VSA_FPPOS>
0

>  <Q_VSA_HYD>
256.08273

>  <Q_VSA_NEG>
0

>  <Q_VSA_PNEG>
0

>  <Q_VSA_POL>
0

>  <Q_VSA_POS>
256.08273

>  <Q_VSA_PPOS>
0

>  <radius>
5

>  <reactive>
1

>  <rings>
1

>  <RPC+>
0

>  <RPC->
0

>  <rsynth>
1

>  <SlogP>
-2.8908999

>  <SlogP_VSA0>
119.55166

>  <SlogP_VSA1>
7.831748

>  <SlogP_VSA2>
42.914307

>  <SlogP_VSA3>
45.025127

>  <SlogP_VSA4>
0

>  <SlogP_VSA5>
52.599224

>  <SlogP_VSA6>
0

>  <SlogP_VSA7>
0

>  <SlogP_VSA8>
0

>  <SlogP_VSA9>
23.862217

>  <SMR>
5.58569

>  <SMR_VSA0>
34.862103

>  <SMR_VSA1>
124.24474

>  <SMR_VSA2>
42.109619

>  <SMR_VSA3>
31.914419

>  <SMR_VSA4>
0

>  <SMR_VSA5>
0

>  <SMR_VSA6>
25.756214

>  <SMR_VSA7>
32.897186

>  <TPSA>
151.92

>  <VAdjEq>
0.50325835

>  <VAdjMa>
5.1699252

>  <VDistEq>
3.0035801

>  <VDistMa>
8.05126

>  <vdw_area>
256.08273

>  <vdw_vol>
290.14279

>  <vsa_acc>
47.659927

>  <vsa_acid>
0

>  <vsa_base>
0

>  <vsa_don>
5.6825762

>  <vsa_hyd>
88.033043

>  <vsa_other>
32.14904

>  <vsa_pol>
107.61018

>  <Weight>
265.22198

>  <weinerPath>
609

>  <weinerPol>
29

>  <zagreb>
86

$$$$