Clc1ccc(cc1)C(=O)c1n(C)c(cc1C)CC(O)=O
  MOE2013           2D

 20 21  0  0  0  0  0  0  0  0999 V2000
    0.0000    0.0000    0.0000 Cl  0  0  0  0  0  0  0  0  0  0  0  0
    0.7480    1.3000    0.0000 C   0  0  0  0  0  0  0  0  0  0  0  0
   -0.0040    2.5980    0.0000 C   0  0  0  0  0  0  0  0  0  0  0  0
    0.7440    3.8980    0.0000 C   0  0  0  0  0  0  0  0  0  0  0  0
    2.2440    3.9010    0.0000 C   0  0  0  0  0  0  0  0  0  0  0  0
    2.9960    2.6030    0.0000 C   0  0  0  0  0  0  0  0  0  0  0  0
    2.2480    1.3030    0.0000 C   0  0  0  0  0  0  0  0  0  0  0  0
    2.9910    5.2010    0.0000 C   0  0  0  0  0  0  0  0  0  0  0  0
    2.2390    6.4990    0.0000 O   0  0  0  0  0  0  0  0  0  0  0  0
    4.4910    5.2040    0.0000 C   0  0  0  0  0  0  0  0  0  0  0  0
    5.3710    6.4190    0.0000 N   0  0  0  0  0  0  0  0  0  0  0  0
    4.9050    7.8440    0.0000 C   0  0  0  0  0  0  0  0  0  0  0  0
    6.7980    5.9570    0.0000 C   0  0  0  0  0  0  0  0  0  0  0  0
    6.8010    4.4570    0.0000 C   0  0  0  0  0  0  0  0  0  0  0  0
    5.3750    3.9920    0.0000 C   0  0  0  0  0  0  0  0  0  0  0  0
    4.9140    2.5640    0.0000 C   0  0  0  0  0  0  0  0  0  0  0  0
    8.0100    6.8410    0.0000 C   0  0  0  0  0  0  0  0  0  0  0  0
    9.3820    6.2330    0.0000 C   0  0  0  0  0  0  0  0  0  0  0  0
    9.5410    4.7420    0.0000 O   0  0  0  0  0  0  0  0  0  0  0  0
   10.5940    7.1170    0.0000 O   0  0  0  0  0  0  0  0  0  0  0  0
  1  2  1  0  0  0  0
  2  3  1  0  0  0  0
  2  7  2  0  0  0  0
  3  4  2  0  0  0  0
  4  5  1  0  0  0  0
  5  6  2  0  0  0  0
  5  8  1  0  0  0  0
  6  7  1  0  0  0  0
  8  9  2  0  0  0  0
  8 10  1  0  0  0  0
 10 11  1  0  0  0  0
 10 15  2  0  0  0  0
 11 12  1  0  0  0  0
 11 13  1  0  0  0  0
 13 14  2  0  0  0  0
 13 17  1  0  0  0  0
 14 15  1  0  0  0  0
 15 16  1  0  0  0  0
 17 18  1  0  0  0  0
 18 19  1  0  0  0  0
 18 20  2  0  0  0  0
M  END
>  <Index>
1168

>  <ID>
HT2221

>  <class>
0

>  <apol>
41.421101

>  <ast_fraglike>
0

>  <ast_fraglike_ext>
0

>  <ast_violation>
1

>  <ast_violation_ext>
2

>  <a_acc>
3

>  <a_acid>
0

>  <a_aro>
11

>  <a_base>
0

>  <a_count>
34

>  <a_don>
2

>  <a_donacc>
5

>  <a_heavy>
20

>  <a_hyd>
14

>  <a_IC>
56.312523

>  <a_ICM>
1.6562506

>  <a_nB>
0

>  <a_nBr>
0

>  <a_nC>
15

>  <a_nCl>
1

>  <a_nF>
0

>  <a_nH>
14

>  <a_nI>
0

>  <a_nN>
1

>  <a_nO>
3

>  <a_nP>
0

>  <a_nS>
0

>  <balabanJ>
1.9737755

>  <BCUT_PEOE_0>
-2.3313458

>  <BCUT_PEOE_1>
-0.54460633

>  <BCUT_PEOE_2>
0.51814979

>  <BCUT_PEOE_3>
2.4173462

>  <BCUT_SLOGP_0>
-2.3535705

>  <BCUT_SLOGP_1>
-0.48987916

>  <BCUT_SLOGP_2>
0.59136873

>  <BCUT_SLOGP_3>
2.4572854

>  <BCUT_SMR_0>
-2.0542476

>  <BCUT_SMR_1>
-0.30637717

>  <BCUT_SMR_2>
0.77660578

>  <BCUT_SMR_3>
2.7009208

>  <bpol>
19.620897

>  <b_1rotN>
4

>  <b_1rotR>
0.19047619

>  <b_ar>
11

>  <b_count>
35

>  <b_double>
2

>  <b_heavy>
21

>  <b_max1len>
2

>  <b_rotN>
4

>  <b_rotR>
0.19047619

>  <b_single>
22

>  <b_triple>
0

>  <chi0>
14.861443

>  <chi0v>
11.938675

>  <chi0v_C>
9.0938578

>  <chi0_C>
10.284093

>  <chi1>
9.3967543

>  <chi1v>
6.4490533

>  <chi1v_C>
4.3558245

>  <chi1_C>
5.8433366

>  <chiral>
0

>  <chiral_u>
0

>  <density>
0.7932474

>  <diameter>
11

>  <FCharge>
0

>  <GCUT_PEOE_0>
-0.86294627

>  <GCUT_PEOE_1>
-0.38322341

>  <GCUT_PEOE_2>
0.017699018

>  <GCUT_PEOE_3>
2.4789069

>  <GCUT_SLOGP_0>
-0.88951224

>  <GCUT_SLOGP_1>
-0.26386139

>  <GCUT_SLOGP_2>
0.10363759

>  <GCUT_SLOGP_3>
2.5490336

>  <GCUT_SMR_0>
-0.48574591

>  <GCUT_SMR_1>
-0.21605732

>  <GCUT_SMR_2>
0.22290725

>  <GCUT_SMR_3>
2.7644217

>  <Kier1>
16.371881

>  <Kier2>
6.8400002

>  <Kier3>
3.8144045

>  <KierA1>
12.601996

>  <KierA2>
5.1867328

>  <KierA3>
2.8608487

>  <KierFlex>
3.2681596

>  <lip_acc>
4

>  <lip_don>
1

>  <lip_druglike>
1

>  <lip_violation>
0

>  <logP(o/w)>
3.358

>  <logS>
-3.0263901

>  <mr>
7.8339019

>  <mutagenic>
0

>  <nmol>
1

>  <opr_brigid>
11

>  <opr_leadlike>
1

>  <opr_nring>
2

>  <opr_nrot>
4

>  <opr_violation>
0

>  <PC+>
0

>  <PC->
0

>  <PEOE_PC+>
1.5884196

>  <PEOE_PC->
-1.5884196

>  <PEOE_RPC+>
0.16707249

>  <PEOE_RPC->
0.21634635

>  <PEOE_VSA+0>
70.789612

>  <PEOE_VSA+1>
36.727795

>  <PEOE_VSA+2>
0

>  <PEOE_VSA+3>
0

>  <PEOE_VSA+4>
18.782692

>  <PEOE_VSA+5>
14.708499

>  <PEOE_VSA+6>
0

>  <PEOE_VSA-0>
82.230736

>  <PEOE_VSA-1>
29.581947

>  <PEOE_VSA-2>
0

>  <PEOE_VSA-3>
0

>  <PEOE_VSA-4>
0

>  <PEOE_VSA-5>
27.133842

>  <PEOE_VSA-6>
7.7675405

>  <PEOE_VSA_FHYD>
0.76229692

>  <PEOE_VSA_FNEG>
0.50991488

>  <PEOE_VSA_FPNEG>
0.12130217

>  <PEOE_VSA_FPOL>
0.23770311

>  <PEOE_VSA_FPOS>
0.49008512

>  <PEOE_VSA_FPPOS>
0.11640095

>  <PEOE_VSA_HYD>
219.33009

>  <PEOE_VSA_NEG>
146.71407

>  <PEOE_VSA_PNEG>
34.901382

>  <PEOE_VSA_POL>
68.39257

>  <PEOE_VSA_POS>
141.00861

>  <PEOE_VSA_PPOS>
33.491192

>  <petitjean>
0.45454547

>  <petitjeanSC>
0.83333331

>  <Q_PC+>
0

>  <Q_PC->
0

>  <Q_RPC+>
0

>  <Q_RPC->
0

>  <Q_VSA_FHYD>
1

>  <Q_VSA_FNEG>
0

>  <Q_VSA_FPNEG>
0

>  <Q_VSA_FPOL>
0

>  <Q_VSA_FPOS>
1

>  <Q_VSA_FPPOS>
0

>  <Q_VSA_HYD>
287.72266

>  <Q_VSA_NEG>
0

>  <Q_VSA_PNEG>
0

>  <Q_VSA_POL>
0

>  <Q_VSA_POS>
287.72266

>  <Q_VSA_PPOS>
0

>  <radius>
6

>  <reactive>
1

>  <rings>
2

>  <RPC+>
0

>  <RPC->
0

>  <rsynth>
1

>  <SlogP>
3.20419

>  <SlogP_VSA0>
0

>  <SlogP_VSA1>
15.332168

>  <SlogP_VSA2>
23.862217

>  <SlogP_VSA3>
25.385227

>  <SlogP_VSA4>
35.746861

>  <SlogP_VSA5>
18.868406

>  <SlogP_VSA6>
3.5006065

>  <SlogP_VSA7>
88.215919

>  <SlogP_VSA8>
0

>  <SlogP_VSA9>
105.37185

>  <SMR>
7.6655302

>  <SMR_VSA0>
47.724434

>  <SMR_VSA1>
1.8990928

>  <SMR_VSA2>
25.385227

>  <SMR_VSA3>
15.385252

>  <SMR_VSA4>
0

>  <SMR_VSA5>
107.08433

>  <SMR_VSA6>
13.433075

>  <SMR_VSA7>
105.37185

>  <TPSA>
59.299999

>  <VAdjEq>
0.48464775

>  <VAdjMa>
5.3923173

>  <VDistEq>
3.1624115

>  <VDistMa>
8.3463764

>  <vdw_area>
287.72266

>  <vdw_vol>
367.77176

>  <vsa_acc>
13.566921

>  <vsa_acid>
0

>  <vsa_base>
0

>  <vsa_don>
0

>  <vsa_hyd>
210.07675

>  <vsa_other>
23.167019

>  <vsa_pol>
40.700764

>  <Weight>
291.73398

>  <weinerPath>
820

>  <weinerPol>
30

>  <zagreb>
102

$$$$