Fc1cc(F)ccc1N1C=C(C(O)=O)C(=O)c2cc(F)c(N3CC(NCC3)C)cc12
  MOE2013           2D

 30 33  0  0  1  0  0  0  0  0999 V2000
    0.0000    0.0000    0.0000 F   0  0  0  0  0  0  0  0  0  0  0  0
    1.5000   -0.0060    0.0000 C   0  0  0  0  0  0  0  0  0  0  0  0
    2.2550    1.2900    0.0000 C   0  0  0  0  0  0  0  0  0  0  0  0
    3.7550    1.2840    0.0000 C   0  0  0  0  0  0  0  0  0  0  0  0
    4.5100    2.5800    0.0000 F   0  0  0  0  0  0  0  0  0  0  0  0
    4.5000   -0.0180    0.0000 C   0  0  0  0  0  0  0  0  0  0  0  0
    3.7450   -1.3140    0.0000 C   0  0  0  0  0  0  0  0  0  0  0  0
    2.2450   -1.3080    0.0000 C   0  0  0  0  0  0  0  0  0  0  0  0
    1.4900   -2.6040    0.0000 N   0  0  3  0  0  0  0  0  0  0  0  0
   -0.0100   -2.5980    0.0000 C   0  0  0  0  0  0  0  0  0  0  0  0
   -0.7650   -3.8940    0.0000 C   0  0  0  0  0  0  0  0  0  0  0  0
   -2.2650   -3.8880    0.0000 C   0  0  0  0  0  0  0  0  0  0  0  0
   -3.0100   -2.5860    0.0000 O   0  0  0  0  0  0  0  0  0  0  0  0
   -3.0200   -5.1840    0.0000 O   0  0  0  0  0  0  0  0  0  0  0  0
   -0.0200   -5.1960    0.0000 C   0  0  0  0  0  0  0  0  0  0  0  0
   -0.7760   -6.4920    0.0000 O   0  0  0  0  0  0  0  0  0  0  0  0
    1.4800   -5.2020    0.0000 C   0  0  0  0  0  0  0  0  0  0  0  0
    2.2240   -6.5040    0.0000 C   0  0  0  0  0  0  0  0  0  0  0  0
    3.7240   -6.5100    0.0000 C   0  0  0  0  0  0  0  0  0  0  0  0
    4.4690   -7.8120    0.0000 F   0  0  0  0  0  0  0  0  0  0  0  0
    4.4800   -5.2140    0.0000 C   0  0  0  0  0  0  0  0  0  0  0  0
    5.9800   -5.2200    0.0000 N   0  0  3  0  0  0  0  0  0  0  0  0
    6.7240   -6.5220    0.0000 C   0  0  0  0  0  0  0  0  0  0  0  0
    8.2240   -6.5280    0.0000 C   0  0  3  0  0  0  0  0  0  0  0  0
    8.9790   -5.2320    0.0000 N   0  0  0  0  0  0  0  0  0  0  0  0
    8.2350   -3.9300    0.0000 C   0  0  0  0  0  0  0  0  0  0  0  0
    6.7350   -3.9240    0.0000 C   0  0  0  0  0  0  0  0  0  0  0  0
    8.9690   -7.8300    0.0000 C   0  0  0  0  0  0  0  0  0  0  0  0
    3.7350   -3.9120    0.0000 C   0  0  0  0  0  0  0  0  0  0  0  0
    2.2350   -3.9060    0.0000 C   0  0  0  0  0  0  0  0  0  0  0  0
  1  2  1  0  0  0  0
  2  3  1  0  0  0  0
  2  8  2  0  0  0  0
  3  4  2  0  0  0  0
  4  5  1  0  0  0  0
  4  6  1  0  0  0  0
  6  7  2  0  0  0  0
  7  8  1  0  0  0  0
  8  9  1  0  0  0  0
  9 10  1  0  0  0  0
  9 30  1  0  0  0  0
 10 11  2  0  0  0  0
 11 12  1  0  0  0  0
 11 15  1  0  0  0  0
 12 13  1  0  0  0  0
 12 14  2  0  0  0  0
 15 16  2  0  0  0  0
 15 17  1  0  0  0  0
 17 18  1  0  0  0  0
 17 30  2  0  0  0  0
 18 19  2  0  0  0  0
 19 20  1  0  0  0  0
 19 21  1  0  0  0  0
 21 22  1  0  0  0  0
 21 29  2  0  0  0  0
 22 23  1  0  0  0  0
 22 27  1  0  0  0  0
 23 24  1  0  0  0  0
 24 25  1  0  0  0  0
 24 28  1  0  0  0  0
 25 26  1  0  0  0  0
 26 27  1  0  0  0  0
 29 30  1  0  0  0  0
M  END
>  <Index>
1040

>  <ID>
HT1996

>  <class>
0

>  <apol>
56.339275

>  <ast_fraglike>
0

>  <ast_fraglike_ext>
0

>  <ast_violation>
3

>  <ast_violation_ext>
4

>  <a_acc>
4

>  <a_acid>
0

>  <a_aro>
12

>  <a_base>
0

>  <a_count>
48

>  <a_don>
3

>  <a_donacc>
7

>  <a_heavy>
30

>  <a_hyd>
22

>  <a_IC>
86.51622

>  <a_ICM>
1.8024213

>  <a_nB>
0

>  <a_nBr>
0

>  <a_nC>
21

>  <a_nCl>
0

>  <a_nF>
3

>  <a_nH>
18

>  <a_nI>
0

>  <a_nN>
3

>  <a_nO>
3

>  <a_nP>
0

>  <a_nS>
0

>  <balabanJ>
1.5829098

>  <BCUT_PEOE_0>
-2.7480233

>  <BCUT_PEOE_1>
-0.62325531

>  <BCUT_PEOE_2>
0.6184411

>  <BCUT_PEOE_3>
2.659128

>  <BCUT_SLOGP_0>
-2.9126906

>  <BCUT_SLOGP_1>
-0.5190292

>  <BCUT_SLOGP_2>
0.79634058

>  <BCUT_SLOGP_3>
2.5659387

>  <BCUT_SMR_0>
-2.4563498

>  <BCUT_SMR_1>
-0.42713669

>  <BCUT_SMR_2>
0.78836727

>  <BCUT_SMR_3>
2.9457166

>  <bpol>
29.822725

>  <b_1rotN>
3

>  <b_1rotR>
0.090909094

>  <b_ar>
12

>  <b_count>
51

>  <b_double>
3

>  <b_heavy>
33

>  <b_max1len>
3

>  <b_rotN>
3

>  <b_rotR>
0.090909094

>  <b_single>
36

>  <b_triple>
0

>  <chi0>
21.576622

>  <chi0v>
15.954803

>  <chi0v_C>
12.162772

>  <chi0_C>
13.714814

>  <chi1>
14.256927

>  <chi1v>
9.3195133

>  <chi1v_C>
5.9170079

>  <chi1_C>
7.659833

>  <chiral>
1

>  <chiral_u>
1

>  <density>
0.83076626

>  <diameter>
12

>  <FCharge>
0

>  <GCUT_PEOE_0>
-0.84301853

>  <GCUT_PEOE_1>
-0.44590971

>  <GCUT_PEOE_2>
0.068600394

>  <GCUT_PEOE_3>
2.7579017

>  <GCUT_SLOGP_0>
-1.1546113

>  <GCUT_SLOGP_1>
-0.36411464

>  <GCUT_SLOGP_2>
0.22779027

>  <GCUT_SLOGP_3>
2.8125248

>  <GCUT_SMR_0>
-0.51317698

>  <GCUT_SMR_1>
-0.21583609

>  <GCUT_SMR_2>
0.19389452

>  <GCUT_SMR_3>
3.0407603

>  <Kier1>
23.168043

>  <Kier2>
9.469388

>  <Kier3>
4.7155271

>  <KierA1>
16.881966

>  <KierA2>
6.8190756

>  <KierA3>
3.3673959

>  <KierFlex>
3.8373134

>  <lip_acc>
6

>  <lip_don>
2

>  <lip_druglike>
1

>  <lip_violation>
0

>  <logP(o/w)>
2.8410001

>  <logS>
-4.9232402

>  <mr>
10.375937

>  <mutagenic>
0

>  <nmol>
1

>  <opr_brigid>
23

>  <opr_leadlike>
1

>  <opr_nring>
4

>  <opr_nrot>
5

>  <opr_violation>
0

>  <PC+>
0

>  <PC->
0

>  <PEOE_PC+>
2.4272616

>  <PEOE_PC->
-2.4272616

>  <PEOE_RPC+>
0.12192391

>  <PEOE_RPC->
0.13487384

>  <PEOE_VSA+0>
123.28571

>  <PEOE_VSA+1>
38.991417

>  <PEOE_VSA+2>
37.890087

>  <PEOE_VSA+3>
0

>  <PEOE_VSA+4>
18.782692

>  <PEOE_VSA+5>
14.708499

>  <PEOE_VSA+6>
0

>  <PEOE_VSA-0>
67.767296

>  <PEOE_VSA-1>
0

>  <PEOE_VSA-2>
0

>  <PEOE_VSA-3>
0

>  <PEOE_VSA-4>
35.725906

>  <PEOE_VSA-5>
27.133842

>  <PEOE_VSA-6>
7.9044313

>  <PEOE_VSA_FHYD>
0.7198866

>  <PEOE_VSA_FNEG>
0.37220645

>  <PEOE_VSA_FPNEG>
0.19012925

>  <PEOE_VSA_FPOL>
0.2801134

>  <PEOE_VSA_FPOS>
0.62779355

>  <PEOE_VSA_FPPOS>
0.089984156

>  <PEOE_VSA_HYD>
267.93451

>  <PEOE_VSA_NEG>
138.53148

>  <PEOE_VSA_PNEG>
70.764183

>  <PEOE_VSA_POL>
104.25537

>  <PEOE_VSA_POS>
233.6584

>  <PEOE_VSA_PPOS>
33.491192

>  <petitjean>
0.5

>  <petitjeanSC>
1

>  <Q_PC+>
0

>  <Q_PC->
0

>  <Q_RPC+>
0

>  <Q_RPC->
0

>  <Q_VSA_FHYD>
1

>  <Q_VSA_FNEG>
0

>  <Q_VSA_FPNEG>
0

>  <Q_VSA_FPOL>
0

>  <Q_VSA_FPOS>
1

>  <Q_VSA_FPPOS>
0

>  <Q_VSA_HYD>
372.18988

>  <Q_VSA_NEG>
0

>  <Q_VSA_PNEG>
0

>  <Q_VSA_POL>
0

>  <Q_VSA_POS>
372.18988

>  <Q_VSA_PPOS>
0

>  <radius>
6

>  <reactive>
0

>  <rings>
4

>  <RPC+>
0

>  <RPC->
0

>  <rsynth>
1

>  <SlogP>
3.2049

>  <SlogP_VSA0>
24.259378

>  <SlogP_VSA1>
13.433075

>  <SlogP_VSA2>
55.207241

>  <SlogP_VSA3>
80.703964

>  <SlogP_VSA4>
27.047791

>  <SlogP_VSA5>
3.185575

>  <SlogP_VSA6>
0

>  <SlogP_VSA7>
105.43027

>  <SlogP_VSA8>
0

>  <SlogP_VSA9>
86.476601

>  <SMR>
10.4624

>  <SMR_VSA0>
47.724434

>  <SMR_VSA1>
44.880341

>  <SMR_VSA2>
77.00766

>  <SMR_VSA3>
10.353119

>  <SMR_VSA4>
8.2702427

>  <SMR_VSA5>
105.43027

>  <SMR_VSA6>
68.751808

>  <SMR_VSA7>
33.326015

>  <TPSA>
72.879997

>  <VAdjEq>
0.37824166

>  <VAdjMa>
6.044394

>  <VDistEq>
3.3516304

>  <VDistMa>
9.5639143

>  <vdw_area>
372.18988

>  <vdw_vol>
502.41205

>  <vsa_acc>
13.566921

>  <vsa_acid>
0

>  <vsa_base>
0

>  <vsa_don>
0

>  <vsa_hyd>
283.65268

>  <vsa_other>
23.167019

>  <vsa_pol>
46.383339

>  <Weight>
417.38699

>  <weinerPath>
2246

>  <weinerPol>
55

>  <zagreb>
164

$$$$