Clc1ccc(Cl)c(OC)c1C(O)=O
  MOE2013           2D

 13 13  0  0  0  0  0  0  0  0999 V2000
    0.0000    0.0000    0.0000 Cl  0  0  0  0  0  0  0  0  0  0  0  0
    1.5000    0.0010    0.0000 C   0  0  0  0  0  0  0  0  0  0  0  0
    2.2510   -1.2970    0.0000 C   0  0  0  0  0  0  0  0  0  0  0  0
    3.7510   -1.2960    0.0000 C   0  0  0  0  0  0  0  0  0  0  0  0
    4.5000    0.0040    0.0000 C   0  0  0  0  0  0  0  0  0  0  0  0
    6.0000    0.0050    0.0000 Cl  0  0  0  0  0  0  0  0  0  0  0  0
    3.7490    1.3020    0.0000 C   0  0  0  0  0  0  0  0  0  0  0  0
    4.4980    2.6020    0.0000 O   0  0  0  0  0  0  0  0  0  0  0  0
    5.9980    2.6030    0.0000 C   0  0  0  0  0  0  0  0  0  0  0  0
    2.2490    1.3010    0.0000 C   0  0  0  0  0  0  0  0  0  0  0  0
    1.4980    2.5990    0.0000 C   0  0  0  0  0  0  0  0  0  0  0  0
    2.2470    3.8990    0.0000 O   0  0  0  0  0  0  0  0  0  0  0  0
   -0.0020    2.5980    0.0000 O   0  0  0  0  0  0  0  0  0  0  0  0
  1  2  1  0  0  0  0
  2  3  1  0  0  0  0
  2 10  2  0  0  0  0
  3  4  2  0  0  0  0
  4  5  1  0  0  0  0
  5  6  1  0  0  0  0
  5  7  2  0  0  0  0
  7  8  1  0  0  0  0
  7 10  1  0  0  0  0
  8  9  1  0  0  0  0
 10 11  1  0  0  0  0
 11 12  1  0  0  0  0
 11 13  2  0  0  0  0
M  END
>  <Index>
1270

>  <ID>
HT2953

>  <class>
0

>  <apol>
24.846758

>  <ast_fraglike>
1

>  <ast_fraglike_ext>
1

>  <ast_violation>
0

>  <ast_violation_ext>
0

>  <a_acc>
3

>  <a_acid>
0

>  <a_aro>
6

>  <a_base>
0

>  <a_count>
19

>  <a_don>
2

>  <a_donacc>
5

>  <a_heavy>
13

>  <a_hyd>
9

>  <a_IC>
34.445961

>  <a_ICM>
1.8129452

>  <a_nB>
0

>  <a_nBr>
0

>  <a_nC>
8

>  <a_nCl>
2

>  <a_nF>
0

>  <a_nH>
6

>  <a_nI>
0

>  <a_nN>
0

>  <a_nO>
3

>  <a_nP>
0

>  <a_nS>
0

>  <balabanJ>
2.7470434

>  <BCUT_PEOE_0>
-2.2358477

>  <BCUT_PEOE_1>
-0.63171285

>  <BCUT_PEOE_2>
0.61728013

>  <BCUT_PEOE_3>
2.2565911

>  <BCUT_SLOGP_0>
-2.2539794

>  <BCUT_SLOGP_1>
-0.38523564

>  <BCUT_SLOGP_2>
0.78678787

>  <BCUT_SLOGP_3>
2.4052613

>  <BCUT_SMR_0>
-1.961444

>  <BCUT_SMR_1>
-0.32005107

>  <BCUT_SMR_2>
0.82099056

>  <BCUT_SMR_3>
2.5498962

>  <bpol>
10.273242

>  <b_1rotN>
2

>  <b_1rotR>
0.15384616

>  <b_ar>
6

>  <b_count>
19

>  <b_double>
1

>  <b_heavy>
13

>  <b_max1len>
2

>  <b_rotN>
2

>  <b_rotR>
0.15384616

>  <b_single>
12

>  <b_triple>
0

>  <chi0>
10.008072

>  <chi0v>
8.1861973

>  <chi0v_C>
4.6547008

>  <chi0_C>
5.3009648

>  <chi1>
6.0745859

>  <chi1v>
4.0846806

>  <chi1v_C>
1.9106836

>  <chi1_C>
2.6498299

>  <chiral>
0

>  <chiral_u>
0

>  <density>
0.96102822

>  <diameter>
5

>  <FCharge>
0

>  <GCUT_PEOE_0>
-0.78099573

>  <GCUT_PEOE_1>
-0.45891815

>  <GCUT_PEOE_2>
0.045993395

>  <GCUT_PEOE_3>
2.0837526

>  <GCUT_SLOGP_0>
-0.8877182

>  <GCUT_SLOGP_1>
-0.27726656

>  <GCUT_SLOGP_2>
0.29361963

>  <GCUT_SLOGP_3>
2.249656

>  <GCUT_SMR_0>
-0.48348272

>  <GCUT_SMR_1>
-0.16334926

>  <GCUT_SMR_2>
0.3008059

>  <GCUT_SMR_3>
2.3828712

>  <Kier1>
11.076923

>  <Kier2>
4.4814816

>  <Kier3>
2.2684309

>  <KierA1>
10.629155

>  <KierA2>
4.2845278

>  <KierA3>
2.1620057

>  <KierFlex>
3.5031466

>  <lip_acc>
3

>  <lip_don>
1

>  <lip_druglike>
1

>  <lip_violation>
0

>  <logP(o/w)>
2.717

>  <logS>
-2.87324

>  <mr>
5.0241718

>  <mutagenic>
0

>  <nmol>
1

>  <opr_brigid>
6

>  <opr_leadlike>
1

>  <opr_nring>
1

>  <opr_nrot>
2

>  <opr_violation>
0

>  <PC+>
0

>  <PC->
0

>  <PEOE_PC+>
1.1763533

>  <PEOE_PC->
-1.1763533

>  <PEOE_RPC+>
0.25095642

>  <PEOE_RPC->
0.2938154

>  <PEOE_VSA+0>
24.997658

>  <PEOE_VSA+1>
32.574963

>  <PEOE_VSA+2>
8.458519

>  <PEOE_VSA+3>
0

>  <PEOE_VSA+4>
10.324173

>  <PEOE_VSA+5>
14.708499

>  <PEOE_VSA+6>
0

>  <PEOE_VSA-0>
24.509808

>  <PEOE_VSA-1>
59.163895

>  <PEOE_VSA-2>
0

>  <PEOE_VSA-3>
0

>  <PEOE_VSA-4>
0

>  <PEOE_VSA-5>
13.566921

>  <PEOE_VSA-6>
10.271297

>  <PEOE_VSA_FHYD>
0.75389296

>  <PEOE_VSA_FNEG>
0.54141521

>  <PEOE_VSA_FPNEG>
0.12004597

>  <PEOE_VSA_FPOL>
0.24610706

>  <PEOE_VSA_FPOS>
0.45858479

>  <PEOE_VSA_FPPOS>
0.12606108

>  <PEOE_VSA_HYD>
149.70483

>  <PEOE_VSA_NEG>
107.51192

>  <PEOE_VSA_PNEG>
23.838217

>  <PEOE_VSA_POL>
48.870888

>  <PEOE_VSA_POS>
91.063812

>  <PEOE_VSA_PPOS>
25.032671

>  <petitjean>
0.40000001

>  <petitjeanSC>
0.66666669

>  <Q_PC+>
0

>  <Q_PC->
0

>  <Q_RPC+>
0

>  <Q_RPC->
0

>  <Q_VSA_FHYD>
1

>  <Q_VSA_FNEG>
0

>  <Q_VSA_FPNEG>
0

>  <Q_VSA_FPOL>
0

>  <Q_VSA_FPOS>
1

>  <Q_VSA_FPPOS>
0

>  <Q_VSA_HYD>
198.57573

>  <Q_VSA_NEG>
0

>  <Q_VSA_PNEG>
0

>  <Q_VSA_POL>
0

>  <Q_VSA_POS>
198.57573

>  <Q_VSA_PPOS>
0

>  <radius>
3

>  <reactive>
0

>  <rings>
1

>  <RPC+>
0

>  <RPC->
0

>  <rsynth>
1

>  <SlogP>
2.7002001

>  <SlogP_VSA0>
10.999887

>  <SlogP_VSA1>
7.7454643

>  <SlogP_VSA2>
0

>  <SlogP_VSA3>
25.385227

>  <SlogP_VSA4>
27.047791

>  <SlogP_VSA5>
35.383869

>  <SlogP_VSA6>
7.0012131

>  <SlogP_VSA7>
35.286369

>  <SlogP_VSA8>
0

>  <SlogP_VSA9>
83.540718

>  <SMR>
4.9973302

>  <SMR_VSA0>
23.862217

>  <SMR_VSA1>
10.999887

>  <SMR_VSA2>
25.385227

>  <SMR_VSA3>
15.430216

>  <SMR_VSA4>
0

>  <SMR_VSA5>
35.286369

>  <SMR_VSA6>
7.7454643

>  <SMR_VSA7>
113.68115

>  <TPSA>
46.529999

>  <VAdjEq>
0.6193822

>  <VAdjMa>
4.7004399

>  <VDistEq>
2.2701342

>  <VDistMa>
7.1406016

>  <vdw_area>
198.57573

>  <vdw_vol>
230.00261

>  <vsa_acc>
2.503756

>  <vsa_acid>
0

>  <vsa_base>
0

>  <vsa_don>
0

>  <vsa_hyd>
146.14586

>  <vsa_other>
14.708499

>  <vsa_pol>
29.637598

>  <Weight>
221.039

>  <weinerPath>
226

>  <weinerPol>
20

>  <zagreb>
62

$$$$