F[C@@]12[C@H]([C@@H]3C[C@@H](O)[C@](O)(C(=O)CO)[C@]3(C[C@@H]1O)C)CCC1=CC(=O)C=C[C@@]12C
  MOE2013           2D

 28 31  0  0  1  0  0  0  0  0999 V2000
    0.0000    0.0000    0.0000 F   0  0  0  0  0  0  0  0  0  0  0  0
    1.5000    0.0060    0.0000 C   0  0  1  0  0  0  0  0  0  0  0  0
    0.7440    1.3020    0.0000 C   0  0  2  0  0  0  0  0  0  0  0  0
   -0.7560    1.2960    0.0000 C   0  0  2  0  0  0  0  0  0  0  0  0
   -1.7640    2.4060    0.0000 C   0  0  0  0  0  0  0  0  0  0  0  0
   -3.1320    1.7900    0.0000 C   0  0  1  0  0  0  0  0  0  0  0  0
   -4.4340    2.5340    0.0000 O   0  0  0  0  0  0  0  0  0  0  0  0
   -2.9690    0.2990    0.0000 C   0  0  2  0  0  0  0  0  0  0  0  0
   -3.4510   -1.1210    0.0000 O   0  0  0  0  0  0  0  0  0  0  0  0
   -4.4490    0.0580    0.0000 C   0  0  0  0  0  0  0  0  0  0  0  0
   -5.3980    1.2200    0.0000 O   0  0  0  0  0  0  0  0  0  0  0  0
   -4.9810   -1.3450    0.0000 C   0  0  0  0  0  0  0  0  0  0  0  0
   -6.4610   -1.5860    0.0000 O   0  0  0  0  0  0  0  0  0  0  0  0
   -1.5000   -0.0060    0.0000 C   0  0  1  0  0  0  0  0  0  0  0  0
   -0.7440   -1.3020    0.0000 C   0  0  0  0  0  0  0  0  0  0  0  0
    0.7560   -1.2960    0.0000 C   0  0  2  0  0  0  0  0  0  0  0  0
    1.5110   -2.5920    0.0000 O   0  0  0  0  0  0  0  0  0  0  0  0
   -2.3550   -1.2390    0.0000 C   0  0  0  0  0  0  0  0  0  0  0  0
    1.4890    2.6050    0.0000 C   0  0  0  0  0  0  0  0  0  0  0  0
    2.9890    2.6110    0.0000 C   0  0  0  0  0  0  0  0  0  0  0  0
    3.7440    1.3150    0.0000 C   0  0  0  0  0  0  0  0  0  0  0  0
    5.2440    1.3220    0.0000 C   0  0  0  0  0  0  0  0  0  0  0  0
    6.0000    0.0260    0.0000 C   0  0  0  0  0  0  0  0  0  0  0  0
    7.5000    0.0320    0.0000 O   0  0  0  0  0  0  0  0  0  0  0  0
    5.2560   -1.2760    0.0000 C   0  0  0  0  0  0  0  0  0  0  0  0
    3.7560   -1.2830    0.0000 C   0  0  0  0  0  0  0  0  0  0  0  0
    3.0000    0.0130    0.0000 C   0  0  2  0  0  0  0  0  0  0  0  0
    2.2560   -1.2890    0.0000 C   0  0  0  0  0  0  0  0  0  0  0  0
  2  1  1  6  0  0  0
  2  3  1  0  0  0  0
  2 16  1  0  0  0  0
  2 27  1  0  0  0  0
  3  4  1  0  0  0  0
  3 19  1  6  0  0  0
  4  5  1  1  0  0  0
  4 14  1  0  0  0  0
  5  6  1  0  0  0  0
  6  7  1  6  0  0  0
  6  8  1  0  0  0  0
  8  9  1  6  0  0  0
  8 10  1  1  0  0  0
  8 14  1  0  0  0  0
 10 11  2  0  0  0  0
 10 12  1  0  0  0  0
 12 13  1  0  0  0  0
 14 15  1  0  0  0  0
 14 18  1  1  0  0  0
 15 16  1  0  0  0  0
 16 17  1  1  0  0  0
 19 20  1  0  0  0  0
 20 21  1  0  0  0  0
 21 22  2  0  0  0  0
 21 27  1  0  0  0  0
 22 23  1  0  0  0  0
 23 24  2  0  0  0  0
 23 25  1  0  0  0  0
 25 26  2  0  0  0  0
 26 27  1  0  0  0  0
 27 28  1  1  0  0  0
M  END
>  <Index>
1102

>  <ID>
HT2105

>  <class>
0

>  <apol>
60.332413

>  <ast_fraglike>
0

>  <ast_fraglike_ext>
0

>  <ast_violation>
3

>  <ast_violation_ext>
4

>  <a_acc>
6

>  <a_acid>
0

>  <a_aro>
0

>  <a_base>
0

>  <a_count>
55

>  <a_don>
4

>  <a_donacc>
10

>  <a_heavy>
28

>  <a_hyd>
20

>  <a_IC>
81.844383

>  <a_ICM>
1.4880797

>  <a_nB>
0

>  <a_nBr>
0

>  <a_nC>
21

>  <a_nCl>
0

>  <a_nF>
1

>  <a_nH>
27

>  <a_nI>
0

>  <a_nN>
0

>  <a_nO>
6

>  <a_nP>
0

>  <a_nS>
0

>  <balabanJ>
1.7703513

>  <BCUT_PEOE_0>
-2.8971343

>  <BCUT_PEOE_1>
-0.51357943

>  <BCUT_PEOE_2>
0.58887064

>  <BCUT_PEOE_3>
3.0007873

>  <BCUT_SLOGP_0>
-2.9237974

>  <BCUT_SLOGP_1>
-0.52713567

>  <BCUT_SLOGP_2>
0.52030301

>  <BCUT_SLOGP_3>
2.97926

>  <BCUT_SMR_0>
-2.6717615

>  <BCUT_SMR_1>
-0.40770406

>  <BCUT_SMR_2>
0.69036824

>  <BCUT_SMR_3>
3.2200987

>  <bpol>
32.63559

>  <b_1rotN>
2

>  <b_1rotR>
0.064516127

>  <b_ar>
0

>  <b_count>
58

>  <b_double>
4

>  <b_heavy>
31

>  <b_max1len>
6

>  <b_rotN>
2

>  <b_rotR>
0.064516127

>  <b_single>
54

>  <b_triple>
0

>  <chi0>
20.698307

>  <chi0v>
16.060301

>  <chi0v_C>
13.076985

>  <chi0_C>
13.698306

>  <chi1>
12.963233

>  <chi1v>
9.823184

>  <chi1v_C>
8.1697206

>  <chi1_C>
8.9467258

>  <chiral>
8

>  <chiral_u>
0

>  <density>
0.79028499

>  <diameter>
12

>  <FCharge>
0

>  <GCUT_PEOE_0>
-0.79009575

>  <GCUT_PEOE_1>
-0.43544659

>  <GCUT_PEOE_2>
0.067227744

>  <GCUT_PEOE_3>
3.3411512

>  <GCUT_SLOGP_0>
-0.96055526

>  <GCUT_SLOGP_1>
-0.37695822

>  <GCUT_SLOGP_2>
-0.0040811254

>  <GCUT_SLOGP_3>
3.3470275

>  <GCUT_SMR_0>
-0.53686142

>  <GCUT_SMR_1>
-0.23227856

>  <GCUT_SMR_2>
0.16038783

>  <GCUT_SMR_3>
3.5546179

>  <Kier1>
21.240376

>  <Kier2>
6.4976859

>  <Kier3>
2.3951247

>  <KierA1>
18.608292

>  <KierA2>
5.6632929

>  <KierA3>
2.0799332

>  <KierFlex>
3.7637215

>  <lip_acc>
6

>  <lip_don>
4

>  <lip_druglike>
1

>  <lip_violation>
0

>  <logP(o/w)>
0.778

>  <logS>
-2.57305

>  <mr>
9.7807083

>  <mutagenic>
0

>  <nmol>
1

>  <opr_brigid>
20

>  <opr_leadlike>
1

>  <opr_nring>
4

>  <opr_nrot>
2

>  <opr_violation>
0

>  <PC+>
0

>  <PC->
0

>  <PEOE_PC+>
2.7507966

>  <PEOE_PC->
-2.7507966

>  <PEOE_RPC+>
0.076660581

>  <PEOE_RPC->
0.14126112

>  <PEOE_VSA+0>
68.246178

>  <PEOE_VSA+1>
39.667561

>  <PEOE_VSA+2>
14.951293

>  <PEOE_VSA+3>
16.917038

>  <PEOE_VSA+4>
41.296692

>  <PEOE_VSA+5>
0

>  <PEOE_VSA+6>
0

>  <PEOE_VSA-0>
78.062737

>  <PEOE_VSA-1>
33.211121

>  <PEOE_VSA-2>
0

>  <PEOE_VSA-3>
0

>  <PEOE_VSA-4>
11.908636

>  <PEOE_VSA-5>
27.133842

>  <PEOE_VSA-6>
31.070162

>  <PEOE_VSA_FHYD>
0.69263446

>  <PEOE_VSA_FNEG>
0.5004245

>  <PEOE_VSA_FPNEG>
0.19343272

>  <PEOE_VSA_FPOL>
0.30736554

>  <PEOE_VSA_FPOS>
0.4995755

>  <PEOE_VSA_FPPOS>
0.11393283

>  <PEOE_VSA_HYD>
251.05592

>  <PEOE_VSA_NEG>
181.38651

>  <PEOE_VSA_PNEG>
70.11264

>  <PEOE_VSA_POL>
111.40933

>  <PEOE_VSA_POS>
181.07877

>  <PEOE_VSA_PPOS>
41.296692

>  <petitjean>
0.5

>  <petitjeanSC>
1

>  <Q_PC+>
0

>  <Q_PC->
0

>  <Q_RPC+>
0

>  <Q_RPC->
0

>  <Q_VSA_FHYD>
1

>  <Q_VSA_FNEG>
0

>  <Q_VSA_FPNEG>
0

>  <Q_VSA_FPOL>
0

>  <Q_VSA_FPOS>
1

>  <Q_VSA_FPPOS>
0

>  <Q_VSA_HYD>
362.46527

>  <Q_VSA_NEG>
0

>  <Q_VSA_PNEG>
0

>  <Q_VSA_POL>
0

>  <Q_VSA_POS>
362.46527

>  <Q_VSA_PPOS>
0

>  <radius>
6

>  <reactive>
1

>  <rings>
4

>  <RPC+>
0

>  <RPC->
0

>  <rsynth>
0.32142857

>  <SlogP>
0.62050003

>  <SlogP_VSA0>
101.54091

>  <SlogP_VSA1>
11.375222

>  <SlogP_VSA2>
60.661732

>  <SlogP_VSA3>
20.926258

>  <SlogP_VSA4>
8.8215923

>  <SlogP_VSA5>
3.185575

>  <SlogP_VSA6>
0

>  <SlogP_VSA7>
52.929554

>  <SlogP_VSA8>
75.473625

>  <SlogP_VSA9>
81.612144

>  <SMR>
9.6787205

>  <SMR_VSA0>
47.724434

>  <SMR_VSA1>
116.50102

>  <SMR_VSA2>
8.8215923

>  <SMR_VSA3>
16.122873

>  <SMR_VSA4>
0

>  <SMR_VSA5>
128.40317

>  <SMR_VSA6>
32.301479

>  <SMR_VSA7>
66.652031

>  <TPSA>
115.06

>  <VAdjEq>
0.39893496

>  <VAdjMa>
5.9541965

>  <VDistEq>
3.152231

>  <VDistMa>
9.3609161

>  <vdw_area>
362.46527

>  <vdw_vol>
499.10983

>  <vsa_acc>
27.133842

>  <vsa_acid>
0

>  <vsa_base>
0

>  <vsa_don>
0

>  <vsa_hyd>
226.98613

>  <vsa_other>
16.917038

>  <vsa_pol>
81.401527

>  <Weight>
394.439

>  <weinerPath>
1670

>  <weinerPol>
70

>  <zagreb>
168

$$$$