S1SCC(NC(=O)C(NC(=O)C(NC(=O)C(NC(=O)C(NC(=O)C(N)C1)Cc1ccc(O)cc1)C(CC)C)C(O)C)CC(=O)N)C(=O)N1CCCC1C(=O)NC(CC(C)C)C(=O)NCC(=O)N
  MOE2013           2D

 67 69  0  0  1  0  0  0  0  0999 V2000
    0.0000    0.0000    0.0000 S   0  0  0  0  0  0  0  0  0  0  0  0
    0.2750   -1.4590    0.0000 S   0  0  0  0  0  0  0  0  0  0  0  0
    1.6840   -1.9630    0.0000 C   0  0  0  0  0  0  0  0  0  0  0  0
    2.0780   -3.3470    0.0000 C   0  0  3  0  0  0  0  0  0  0  0  0
    1.1540   -4.5170    0.0000 N   0  0  0  0  0  0  0  0  0  0  0  0
    1.7250   -5.9120    0.0000 C   0  0  0  0  0  0  0  0  0  0  0  0
    3.2150   -6.0900    0.0000 O   0  0  0  0  0  0  0  0  0  0  0  0
    0.8610   -7.1050    0.0000 C   0  0  3  0  0  0  0  0  0  0  0  0
   -0.6320   -7.0110    0.0000 N   0  0  0  0  0  0  0  0  0  0  0  0
   -1.4600   -8.2660    0.0000 C   0  0  0  0  0  0  0  0  0  0  0  0
   -0.7780   -9.6020    0.0000 O   0  0  0  0  0  0  0  0  0  0  0  0
   -2.9450   -8.2010    0.0000 C   0  0  3  0  0  0  0  0  0  0  0  0
   -3.6600   -6.8780    0.0000 N   0  0  0  0  0  0  0  0  0  0  0  0
   -5.1510   -6.8360    0.0000 C   0  0  0  0  0  0  0  0  0  0  0  0
   -5.8960   -8.1380    0.0000 O   0  0  0  0  0  0  0  0  0  0  0  0
   -5.9260   -5.5950    0.0000 C   0  0  3  0  0  0  0  0  0  0  0  0
   -5.2830   -4.2340    0.0000 N   0  0  0  0  0  0  0  0  0  0  0  0
   -6.1280   -3.0150    0.0000 C   0  0  0  0  0  0  0  0  0  0  0  0
   -7.6010   -3.2970    0.0000 O   0  0  0  0  0  0  0  0  0  0  0  0
   -5.8190   -1.6770    0.0000 C   0  0  3  0  0  0  0  0  0  0  0  0
   -4.8500   -0.7230    0.0000 N   0  0  0  0  0  0  0  0  0  0  0  0
   -3.3680   -0.7620    0.0000 C   0  0  0  0  0  0  0  0  0  0  0  0
   -2.6610   -2.0850    0.0000 O   0  0  0  0  0  0  0  0  0  0  0  0
   -2.5710    0.4990    0.0000 C   0  0  3  0  0  0  0  0  0  0  0  0
   -3.3880    1.7570    0.0000 N   0  0  0  0  0  0  0  0  0  0  0  0
   -1.2000    0.6980    0.0000 C   0  0  0  0  0  0  0  0  0  0  0  0
   -7.1280   -0.9450    0.0000 C   0  0  0  0  0  0  0  0  0  0  0  0
   -7.1490    0.5550    0.0000 C   0  0  0  0  0  0  0  0  0  0  0  0
   -5.8600    1.3230    0.0000 C   0  0  0  0  0  0  0  0  0  0  0  0
   -5.8810    2.8220    0.0000 C   0  0  0  0  0  0  0  0  0  0  0  0
   -7.1900    3.5540    0.0000 C   0  0  0  0  0  0  0  0  0  0  0  0
   -7.2110    5.0540    0.0000 O   0  0  0  0  0  0  0  0  0  0  0  0
   -8.4790    2.7860    0.0000 C   0  0  0  0  0  0  0  0  0  0  0  0
   -8.4580    1.2870    0.0000 C   0  0  0  0  0  0  0  0  0  0  0  0
   -7.4240   -5.6820    0.0000 C   0  0  3  0  0  0  0  0  0  0  0  0
   -8.2480   -4.4290    0.0000 C   0  0  0  0  0  0  0  0  0  0  0  0
   -9.7460   -4.5170    0.0000 C   0  0  0  0  0  0  0  0  0  0  0  0
   -8.0970   -7.0230    0.0000 C   0  0  0  0  0  0  0  0  0  0  0  0
   -3.7410   -9.4720    0.0000 C   0  0  3  0  0  0  0  0  0  0  0  0
   -3.0380  -10.7970    0.0000 O   0  0  0  0  0  0  0  0  0  0  0  0
   -5.2400   -9.4190    0.0000 C   0  0  0  0  0  0  0  0  0  0  0  0
    1.5010   -8.4620    0.0000 C   0  0  0  0  0  0  0  0  0  0  0  0
    2.9960   -8.5860    0.0000 C   0  0  0  0  0  0  0  0  0  0  0  0
    3.8510   -7.3540    0.0000 O   0  0  0  0  0  0  0  0  0  0  0  0
    3.6350   -9.9430    0.0000 N   0  0  0  0  0  0  0  0  0  0  0  0
    3.5500   -3.6380    0.0000 C   0  0  0  0  0  0  0  0  0  0  0  0
    4.0330   -5.0580    0.0000 O   0  0  0  0  0  0  0  0  0  0  0  0
    4.5380   -2.5100    0.0000 N   0  0  0  0  0  0  0  0  0  0  0  0
    4.2060   -1.0470    0.0000 C   0  0  0  0  0  0  0  0  0  0  0  0
    5.4940   -0.2790    0.0000 C   0  0  0  0  0  0  0  0  0  0  0  0
    6.6230   -1.2670    0.0000 C   0  0  0  0  0  0  0  0  0  0  0  0
    6.0320   -2.6460    0.0000 C   0  0  3  0  0  0  0  0  0  0  0  0
    6.8000   -3.9340    0.0000 C   0  0  0  0  0  0  0  0  0  0  0  0
    6.0680   -5.2440    0.0000 O   0  0  0  0  0  0  0  0  0  0  0  0
    8.2990   -3.9140    0.0000 N   0  0  0  0  0  0  0  0  0  0  0  0
    9.0310   -2.6040    0.0000 C   0  0  3  0  0  0  0  0  0  0  0  0
    8.2630   -1.3160    0.0000 C   0  0  0  0  0  0  0  0  0  0  0  0
    8.9950   -0.0070    0.0000 C   0  0  0  0  0  0  0  0  0  0  0  0
   10.4950    0.0140    0.0000 C   0  0  0  0  0  0  0  0  0  0  0  0
    8.2270    1.2820    0.0000 C   0  0  0  0  0  0  0  0  0  0  0  0
   10.5310   -2.5840    0.0000 C   0  0  0  0  0  0  0  0  0  0  0  0
   11.2990   -3.8720    0.0000 O   0  0  0  0  0  0  0  0  0  0  0  0
   11.2630   -1.2740    0.0000 N   0  0  0  0  0  0  0  0  0  0  0  0
   12.7630   -1.2540    0.0000 C   0  0  0  0  0  0  0  0  0  0  0  0
   13.4950    0.0560    0.0000 C   0  0  0  0  0  0  0  0  0  0  0  0
   14.9950    0.0770    0.0000 O   0  0  0  0  0  0  0  0  0  0  0  0
   12.7270    1.3440    0.0000 N   0  0  0  0  0  0  0  0  0  0  0  0
  1  2  1  0  0  0  0
  1 26  1  0  0  0  0
  2  3  1  0  0  0  0
  3  4  1  0  0  0  0
  4  5  1  0  0  0  0
  4 46  1  0  0  0  0
  5  6  1  0  0  0  0
  6  7  2  0  0  0  0
  6  8  1  0  0  0  0
  8  9  1  0  0  0  0
  8 42  1  0  0  0  0
  9 10  1  0  0  0  0
 10 11  2  0  0  0  0
 10 12  1  0  0  0  0
 12 13  1  0  0  0  0
 12 39  1  0  0  0  0
 13 14  1  0  0  0  0
 14 15  2  0  0  0  0
 14 16  1  0  0  0  0
 16 17  1  0  0  0  0
 16 35  1  0  0  0  0
 17 18  1  0  0  0  0
 18 19  2  0  0  0  0
 18 20  1  0  0  0  0
 20 21  1  0  0  0  0
 20 27  1  0  0  0  0
 21 22  1  0  0  0  0
 22 23  2  0  0  0  0
 22 24  1  0  0  0  0
 24 25  1  0  0  0  0
 24 26  1  0  0  0  0
 27 28  1  0  0  0  0
 28 29  1  0  0  0  0
 28 34  2  0  0  0  0
 29 30  2  0  0  0  0
 30 31  1  0  0  0  0
 31 32  1  0  0  0  0
 31 33  2  0  0  0  0
 33 34  1  0  0  0  0
 35 36  1  0  0  0  0
 35 38  1  0  0  0  0
 36 37  1  0  0  0  0
 39 40  1  0  0  0  0
 39 41  1  0  0  0  0
 42 43  1  0  0  0  0
 43 44  2  0  0  0  0
 43 45  1  0  0  0  0
 46 47  2  0  0  0  0
 46 48  1  0  0  0  0
 48 49  1  0  0  0  0
 48 52  1  0  0  0  0
 49 50  1  0  0  0  0
 50 51  1  0  0  0  0
 51 52  1  0  0  0  0
 52 53  1  0  0  0  0
 53 54  2  0  0  0  0
 53 55  1  0  0  0  0
 55 56  1  0  0  0  0
 56 57  1  0  0  0  0
 56 61  1  0  0  0  0
 57 58  1  0  0  0  0
 58 59  1  0  0  0  0
 58 60  1  0  0  0  0
 61 62  2  0  0  0  0
 61 63  1  0  0  0  0
 63 64  1  0  0  0  0
 64 65  1  0  0  0  0
 65 66  2  0  0  0  0
 65 67  1  0  0  0  0
M  END
>  <Index>
1131

>  <ID>
HT2157

>  <class>
0

>  <apol>
144.78554

>  <ast_fraglike>
0

>  <ast_fraglike_ext>
0

>  <ast_violation>
3

>  <ast_violation_ext>
5

>  <a_acc>
13

>  <a_acid>
0

>  <a_aro>
6

>  <a_base>
0

>  <a_count>
132

>  <a_don>
12

>  <a_donacc>
25

>  <a_heavy>
67

>  <a_hyd>
34

>  <a_IC>
228.85548

>  <a_ICM>
1.7337537

>  <a_nB>
0

>  <a_nBr>
0

>  <a_nC>
42

>  <a_nCl>
0

>  <a_nF>
0

>  <a_nH>
65

>  <a_nI>
0

>  <a_nN>
11

>  <a_nO>
12

>  <a_nP>
0

>  <a_nS>
2

>  <balabanJ>
1.9769456

>  <BCUT_PEOE_0>
-2.6880581

>  <BCUT_PEOE_1>
-0.56389529

>  <BCUT_PEOE_2>
0.49536869

>  <BCUT_PEOE_3>
2.7440608

>  <BCUT_SLOGP_0>
-2.8984056

>  <BCUT_SLOGP_1>
-0.53216386

>  <BCUT_SLOGP_2>
0.42251503

>  <BCUT_SLOGP_3>
2.7013927

>  <BCUT_SMR_0>
-2.4397261

>  <BCUT_SMR_1>
-0.35176545

>  <BCUT_SMR_2>
0.65192372

>  <BCUT_SMR_3>
2.9999309

>  <bpol>
87.538452

>  <b_1rotN>
16

>  <b_1rotR>
0.23188406

>  <b_ar>
6

>  <b_count>
134

>  <b_double>
10

>  <b_heavy>
69

>  <b_max1len>
6

>  <b_rotN>
18

>  <b_rotR>
0.26086956

>  <b_single>
118

>  <b_triple>
0

>  <chi0>
50.119862

>  <chi0v>
39.836987

>  <chi0v_C>
26.731321

>  <chi0_C>
28.178551

>  <chi1>
31.515963

>  <chi1v>
24.440008

>  <chi1v_C>
13.14059

>  <chi1_C>
14.473565

>  <chiral>
10

>  <chiral_u>
10

>  <density>
0.79698622

>  <diameter>
25

>  <FCharge>
0

>  <GCUT_PEOE_0>
-0.83875054

>  <GCUT_PEOE_1>
-0.43466702

>  <GCUT_PEOE_2>
0.073987722

>  <GCUT_PEOE_3>
3.2194526

>  <GCUT_SLOGP_0>
-1.3705945

>  <GCUT_SLOGP_1>
-0.41367751

>  <GCUT_SLOGP_2>
0.054200001

>  <GCUT_SLOGP_3>
3.1269367

>  <GCUT_SMR_0>
-0.53316426

>  <GCUT_SMR_1>
-0.2335612

>  <GCUT_SMR_2>
0.18851252

>  <GCUT_SMR_3>
3.4618387

>  <Kier1>
61.300568

>  <Kier2>
30.897507

>  <Kier3>
20.801477

>  <KierA1>
49.699661

>  <KierA2>
24.967033

>  <KierA3>
16.769978

>  <KierFlex>
18.520197

>  <lip_acc>
23

>  <lip_don>
15

>  <lip_druglike>
0

>  <lip_violation>
3

>  <logP(o/w)>
-2.283

>  <logS>
-8.1898899

>  <mr>
24.984896

>  <mutagenic>
0

>  <nmol>
1

>  <opr_brigid>
31

>  <opr_leadlike>
0

>  <opr_nring>
2

>  <opr_nrot>
31

>  <opr_violation>
4

>  <PC+>
0

>  <PC->
0

>  <PEOE_PC+>
8.1230392

>  <PEOE_PC->
-8.1230392

>  <PEOE_RPC+>
0.03045371

>  <PEOE_RPC->
0.047953587

>  <PEOE_VSA+0>
192.5369

>  <PEOE_VSA+1>
102.38383

>  <PEOE_VSA+2>
39.25975

>  <PEOE_VSA+3>
94.809143

>  <PEOE_VSA+4>
150.14366

>  <PEOE_VSA+5>
0

>  <PEOE_VSA+6>
0

>  <PEOE_VSA-0>
71.569962

>  <PEOE_VSA-1>
151.67519

>  <PEOE_VSA-2>
0

>  <PEOE_VSA-3>
0

>  <PEOE_VSA-4>
0

>  <PEOE_VSA-5>
135.6692

>  <PEOE_VSA-6>
36.446674

>  <PEOE_VSA_FHYD>
0.66930586

>  <PEOE_VSA_FNEG>
0.40570891

>  <PEOE_VSA_FPNEG>
0.17662072

>  <PEOE_VSA_FPOL>
0.33069411

>  <PEOE_VSA_FPOS>
0.59429109

>  <PEOE_VSA_FPPOS>
0.1540734

>  <PEOE_VSA_HYD>
652.2348

>  <PEOE_VSA_NEG>
395.36105

>  <PEOE_VSA_PNEG>
172.11589

>  <PEOE_VSA_POL>
322.25955

>  <PEOE_VSA_POS>
579.1333

>  <PEOE_VSA_PPOS>
150.14366

>  <petitjean>
0.47999999

>  <petitjeanSC>
0.92307693

>  <Q_PC+>
0

>  <Q_PC->
0

>  <Q_RPC+>
0

>  <Q_RPC->
0

>  <Q_VSA_FHYD>
1

>  <Q_VSA_FNEG>
0

>  <Q_VSA_FPNEG>
0

>  <Q_VSA_FPOL>
0

>  <Q_VSA_FPOS>
1

>  <Q_VSA_FPPOS>
0

>  <Q_VSA_HYD>
974.49432

>  <Q_VSA_NEG>
0

>  <Q_VSA_PNEG>
0

>  <Q_VSA_POL>
0

>  <Q_VSA_POS>
974.49432

>  <Q_VSA_PPOS>
0

>  <radius>
13

>  <reactive>
1

>  <rings>
3

>  <RPC+>
0

>  <RPC->
0

>  <rsynth>
1

>  <SlogP>
-3.49333

>  <SlogP_VSA0>
275.53726

>  <SlogP_VSA1>
55.712151

>  <SlogP_VSA2>
276.94656

>  <SlogP_VSA3>
71.346283

>  <SlogP_VSA4>
12.007167

>  <SlogP_VSA5>
18.868406

>  <SlogP_VSA6>
0

>  <SlogP_VSA7>
70.572739

>  <SlogP_VSA8>
94.342026

>  <SlogP_VSA9>
232.237

>  <SMR>
24.76297

>  <SMR_VSA0>
238.62216

>  <SMR_VSA1>
53.894768

>  <SMR_VSA2>
134.89685

>  <SMR_VSA3>
46.753403

>  <SMR_VSA4>
98.691559

>  <SMR_VSA5>
183.78317

>  <SMR_VSA6>
123.93412

>  <SMR_VSA7>
226.99358

>  <TPSA>
376.67001

>  <VAdjEq>
0.19809848

>  <VAdjMa>
7.1085243

>  <VDistEq>
4.3297896

>  <VDistMa>
11.892242

>  <vdw_area>
974.49432

>  <vdw_vol>
1229.8568

>  <vsa_acc>
135.6692

>  <vsa_acid>
0

>  <vsa_base>
0

>  <vsa_don>
75.263008

>  <vsa_hyd>
501.90775

>  <vsa_other>
129.49532

>  <vsa_pol>
255.80855

>  <Weight>
980.17896

>  <weinerPath>
21414

>  <weinerPol>
106

>  <zagreb>
328

$$$$