O=C(Nc1c(cccc1C)C)[C@H]1N(CCCC1)CCCC
  MOE2013           2D

 21 22  0  0  1  0  0  0  0  0999 V2000
    0.0000    0.0000    0.0000 O   0  0  0  0  0  0  0  0  0  0  0  0
   -0.7550    1.2960    0.0000 C   0  0  0  0  0  0  0  0  0  0  0  0
   -2.2550    1.2910    0.0000 N   0  0  0  0  0  0  0  0  0  0  0  0
   -3.0000   -0.0100    0.0000 C   0  0  0  0  0  0  0  0  0  0  0  0
   -4.5000   -0.0160    0.0000 C   0  0  0  0  0  0  0  0  0  0  0  0
   -5.2450   -1.3170    0.0000 C   0  0  0  0  0  0  0  0  0  0  0  0
   -4.4910   -2.6140    0.0000 C   0  0  0  0  0  0  0  0  0  0  0  0
   -2.9910   -2.6090    0.0000 C   0  0  0  0  0  0  0  0  0  0  0  0
   -2.2450   -1.3070    0.0000 C   0  0  0  0  0  0  0  0  0  0  0  0
   -0.7450   -1.3020    0.0000 C   0  0  0  0  0  0  0  0  0  0  0  0
   -5.2540    1.2810    0.0000 C   0  0  0  0  0  0  0  0  0  0  0  0
   -0.0090    2.5980    0.0000 C   0  0  1  0  0  0  0  0  0  0  0  0
    1.4910    2.6030    0.0000 N   0  0  3  0  0  0  0  0  0  0  0  0
    2.2360    3.9050    0.0000 C   0  0  0  0  0  0  0  0  0  0  0  0
    1.4820    5.2010    0.0000 C   0  0  0  0  0  0  0  0  0  0  0  0
   -0.0180    5.1960    0.0000 C   0  0  0  0  0  0  0  0  0  0  0  0
   -0.7640    3.8940    0.0000 C   0  0  0  0  0  0  0  0  0  0  0  0
    2.2450    1.3070    0.0000 C   0  0  0  0  0  0  0  0  0  0  0  0
    3.7450    1.3120    0.0000 C   0  0  0  0  0  0  0  0  0  0  0  0
    4.5000    0.0160    0.0000 C   0  0  0  0  0  0  0  0  0  0  0  0
    6.0000    0.0210    0.0000 C   0  0  0  0  0  0  0  0  0  0  0  0
  1  2  2  0  0  0  0
  2  3  1  0  0  0  0
  3  4  1  0  0  0  0
  4  5  1  0  0  0  0
  4  9  2  0  0  0  0
  5  6  2  0  0  0  0
  5 11  1  0  0  0  0
  6  7  1  0  0  0  0
  7  8  2  0  0  0  0
  8  9  1  0  0  0  0
  9 10  1  0  0  0  0
 12  2  1  6  0  0  0
 12 13  1  0  0  0  0
 12 17  1  0  0  0  0
 13 14  1  0  0  0  0
 13 18  1  0  0  0  0
 14 15  1  0  0  0  0
 15 16  1  0  0  0  0
 16 17  1  0  0  0  0
 18 19  1  0  0  0  0
 19 20  1  0  0  0  0
 20 21  1  0  0  0  0
M  END
>  <Index>
163

>  <ID>
HT0327

>  <class>
0

>  <apol>
53.352203

>  <ast_fraglike>
0

>  <ast_fraglike_ext>
0

>  <ast_violation>
1

>  <ast_violation_ext>
2

>  <a_acc>
2

>  <a_acid>
0

>  <a_aro>
6

>  <a_base>
0

>  <a_count>
49

>  <a_don>
1

>  <a_donacc>
3

>  <a_heavy>
21

>  <a_hyd>
17

>  <a_IC>
63.456196

>  <a_ICM>
1.2950244

>  <a_nB>
0

>  <a_nBr>
0

>  <a_nC>
18

>  <a_nCl>
0

>  <a_nF>
0

>  <a_nH>
28

>  <a_nI>
0

>  <a_nN>
2

>  <a_nO>
1

>  <a_nP>
0

>  <a_nS>
0

>  <balabanJ>
1.9147912

>  <BCUT_PEOE_0>
-2.7909243

>  <BCUT_PEOE_1>
-0.39834568

>  <BCUT_PEOE_2>
0.3868295

>  <BCUT_PEOE_3>
2.7339971

>  <BCUT_SLOGP_0>
-2.8305569

>  <BCUT_SLOGP_1>
-0.28491592

>  <BCUT_SLOGP_2>
0.34945861

>  <BCUT_SLOGP_3>
2.7566736

>  <BCUT_SMR_0>
-2.5259564

>  <BCUT_SMR_1>
-0.23218216

>  <BCUT_SMR_2>
0.51875734

>  <BCUT_SMR_3>
2.9942467

>  <bpol>
34.207794

>  <b_1rotN>
5

>  <b_1rotR>
0.22727273

>  <b_ar>
6

>  <b_count>
50

>  <b_double>
1

>  <b_heavy>
22

>  <b_max1len>
5

>  <b_rotN>
6

>  <b_rotR>
0.27272728

>  <b_single>
43

>  <b_triple>
0

>  <chi0>
15.242276

>  <chi0v>
13.614611

>  <chi0v_C>
12.259149

>  <chi0_C>
12.957819

>  <chi1>
10.130229

>  <chi1v>
8.2428255

>  <chi1v_C>
6.648047

>  <chi1_C>
7.5865521

>  <chiral>
1

>  <chiral_u>
0

>  <density>
0.65037125

>  <diameter>
11

>  <FCharge>
0

>  <GCUT_PEOE_0>
-0.8428393

>  <GCUT_PEOE_1>
-0.3245939

>  <GCUT_PEOE_2>
0.033442874

>  <GCUT_PEOE_3>
2.7802012

>  <GCUT_SLOGP_0>
-1.0100191

>  <GCUT_SLOGP_1>
-0.24823765

>  <GCUT_SLOGP_2>
0.0085322624

>  <GCUT_SLOGP_3>
2.8244569

>  <GCUT_SMR_0>
-0.53081053

>  <GCUT_SMR_1>
-0.15696941

>  <GCUT_SMR_2>
0.12913954

>  <GCUT_SMR_3>
3.0290759

>  <Kier1>
17.355371

>  <Kier2>
8.5850182

>  <Kier3>
4.7333822

>  <KierA1>
14.345784

>  <KierA2>
7.0242829

>  <KierA3>
3.8426201

>  <KierFlex>
4.7985163

>  <lip_acc>
3

>  <lip_don>
1

>  <lip_druglike>
1

>  <lip_violation>
0

>  <logP(o/w)>
4.0320001

>  <logS>
-3.6041501

>  <mr>
8.8044167

>  <mutagenic>
0

>  <nmol>
1

>  <opr_brigid>
12

>  <opr_leadlike>
1

>  <opr_nring>
2

>  <opr_nrot>
7

>  <opr_violation>
0

>  <PC+>
0

>  <PC->
0

>  <PEOE_PC+>
1.4708331

>  <PEOE_PC->
-1.4708331

>  <PEOE_RPC+>
0.16485998

>  <PEOE_RPC->
0.22054537

>  <PEOE_VSA+0>
104.80343

>  <PEOE_VSA+1>
20.207504

>  <PEOE_VSA+2>
0

>  <PEOE_VSA+3>
8.6190128

>  <PEOE_VSA+4>
12.949531

>  <PEOE_VSA+5>
0

>  <PEOE_VSA+6>
0

>  <PEOE_VSA-0>
94.401024

>  <PEOE_VSA-1>
72.915016

>  <PEOE_VSA-2>
0

>  <PEOE_VSA-3>
0

>  <PEOE_VSA-4>
0

>  <PEOE_VSA-5>
13.566921

>  <PEOE_VSA-6>
0.13689101

>  <PEOE_VSA_FHYD>
0.91864043

>  <PEOE_VSA_FNEG>
0.5525648

>  <PEOE_VSA_FPNEG>
0.041831013

>  <PEOE_VSA_FPOL>
0.08135958

>  <PEOE_VSA_FPOS>
0.44743523

>  <PEOE_VSA_FPPOS>
0.039528564

>  <PEOE_VSA_HYD>
300.94598

>  <PEOE_VSA_NEG>
181.01985

>  <PEOE_VSA_PNEG>
13.703812

>  <PEOE_VSA_POL>
26.653343

>  <PEOE_VSA_POS>
146.57948

>  <PEOE_VSA_PPOS>
12.949531

>  <petitjean>
0.45454547

>  <petitjeanSC>
0.83333331

>  <Q_PC+>
0

>  <Q_PC->
0

>  <Q_RPC+>
0

>  <Q_RPC->
0

>  <Q_VSA_FHYD>
1

>  <Q_VSA_FNEG>
0

>  <Q_VSA_FPNEG>
0

>  <Q_VSA_FPOL>
0

>  <Q_VSA_FPOS>
1

>  <Q_VSA_FPPOS>
0

>  <Q_VSA_HYD>
327.59933

>  <Q_VSA_NEG>
0

>  <Q_VSA_PNEG>
0

>  <Q_VSA_POL>
0

>  <Q_VSA_POS>
327.59933

>  <Q_VSA_PPOS>
0

>  <radius>
6

>  <reactive>
0

>  <rings>
2

>  <RPC+>
0

>  <RPC->
0

>  <rsynth>
0.42857143

>  <SlogP>
3.8965399

>  <SlogP_VSA0>
0

>  <SlogP_VSA1>
26.393848

>  <SlogP_VSA2>
27.844185

>  <SlogP_VSA3>
36.879158

>  <SlogP_VSA4>
6.37115

>  <SlogP_VSA5>
0

>  <SlogP_VSA6>
0

>  <SlogP_VSA7>
52.929554

>  <SlogP_VSA8>
94.342026

>  <SlogP_VSA9>
102.73479

>  <SMR>
8.8665705

>  <SMR_VSA0>
23.862217

>  <SMR_VSA1>
3.1243138

>  <SMR_VSA2>
0

>  <SMR_VSA3>
10.353119

>  <SMR_VSA4>
20.767498

>  <SMR_VSA5>
147.27158

>  <SMR_VSA6>
42.137939

>  <SMR_VSA7>
99.978043

>  <TPSA>
32.34

>  <VAdjEq>
0.46827638

>  <VAdjMa>
5.4594316

>  <VDistEq>
3.2073617

>  <VDistMa>
8.4986582

>  <vdw_area>
327.59933

>  <vdw_vol>
443.49283

>  <vsa_acc>
13.566921

>  <vsa_acid>
0

>  <vsa_base>
0

>  <vsa_don>
5.6825762

>  <vsa_hyd>
273.10849

>  <vsa_other>
12.949531

>  <vsa_pol>
19.249496

>  <Weight>
288.435

>  <weinerPath>
958

>  <weinerPol>
31

>  <zagreb>
102

$$$$