S1c2c(CCC1)cccc2OCC(O)CNC(C)(C)C
  MOE2013           2D

 20 21  0  0  1  0  0  0  0  0999 V2000
    0.0000    0.0000    0.0000 S   0  0  0  0  0  0  0  0  0  0  0  0
    0.7520   -1.2980    0.0000 C   0  0  0  0  0  0  0  0  0  0  0  0
    0.0030   -2.5980    0.0000 C   0  0  0  0  0  0  0  0  0  0  0  0
   -1.4970   -2.6000    0.0000 C   0  0  0  0  0  0  0  0  0  0  0  0
   -2.2480   -1.3020    0.0000 C   0  0  0  0  0  0  0  0  0  0  0  0
   -1.5000   -0.0020    0.0000 C   0  0  0  0  0  0  0  0  0  0  0  0
    0.7550   -3.8960    0.0000 C   0  0  0  0  0  0  0  0  0  0  0  0
    2.2550   -3.8940    0.0000 C   0  0  0  0  0  0  0  0  0  0  0  0
    3.0030   -2.5940    0.0000 C   0  0  0  0  0  0  0  0  0  0  0  0
    2.2520   -1.2960    0.0000 C   0  0  0  0  0  0  0  0  0  0  0  0
    3.0000    0.0040    0.0000 O   0  0  0  0  0  0  0  0  0  0  0  0
    4.5000    0.0060    0.0000 C   0  0  0  0  0  0  0  0  0  0  0  0
    5.2480    1.3060    0.0000 C   0  0  3  0  0  0  0  0  0  0  0  0
    4.4970    2.6040    0.0000 O   0  0  0  0  0  0  0  0  0  0  0  0
    6.7480    1.3070    0.0000 C   0  0  0  0  0  0  0  0  0  0  0  0
    7.4970    2.6070    0.0000 N   0  0  0  0  0  0  0  0  0  0  0  0
    8.9970    2.6090    0.0000 C   0  0  0  0  0  0  0  0  0  0  0  0
    8.9990    1.1090    0.0000 C   0  0  0  0  0  0  0  0  0  0  0  0
    8.9950    4.1090    0.0000 C   0  0  0  0  0  0  0  0  0  0  0  0
   10.4970    2.6110    0.0000 C   0  0  0  0  0  0  0  0  0  0  0  0
  1  2  1  0  0  0  0
  1  6  1  0  0  0  0
  2  3  1  0  0  0  0
  2 10  2  0  0  0  0
  3  4  1  0  0  0  0
  3  7  2  0  0  0  0
  4  5  1  0  0  0  0
  5  6  1  0  0  0  0
  7  8  1  0  0  0  0
  8  9  2  0  0  0  0
  9 10  1  0  0  0  0
 10 11  1  0  0  0  0
 11 12  1  0  0  0  0
 12 13  1  0  0  0  0
 13 14  1  0  0  0  0
 13 15  1  0  0  0  0
 15 16  1  0  0  0  0
 16 17  1  0  0  0  0
 17 18  1  0  0  0  0
 17 19  1  0  0  0  0
 17 20  1  0  0  0  0
M  END
>  <Index>
1054

>  <ID>
HT2015

>  <class>
0

>  <apol>
50.433826

>  <ast_fraglike>
1

>  <ast_fraglike_ext>
0

>  <ast_violation>
0

>  <ast_violation_ext>
1

>  <a_acc>
3

>  <a_acid>
0

>  <a_aro>
6

>  <a_base>
0

>  <a_count>
45

>  <a_don>
2

>  <a_donacc>
5

>  <a_heavy>
20

>  <a_hyd>
17

>  <a_IC>
65.036987

>  <a_ICM>
1.4452664

>  <a_nB>
0

>  <a_nBr>
0

>  <a_nC>
16

>  <a_nCl>
0

>  <a_nF>
0

>  <a_nH>
25

>  <a_nI>
0

>  <a_nN>
1

>  <a_nO>
2

>  <a_nP>
0

>  <a_nS>
1

>  <balabanJ>
1.7223179

>  <BCUT_PEOE_0>
-2.7110965

>  <BCUT_PEOE_1>
-0.47113615

>  <BCUT_PEOE_2>
0.48251474

>  <BCUT_PEOE_3>
2.6437047

>  <BCUT_SLOGP_0>
-2.8412271

>  <BCUT_SLOGP_1>
-0.42662984

>  <BCUT_SLOGP_2>
0.51786852

>  <BCUT_SLOGP_3>
2.6609683

>  <BCUT_SMR_0>
-2.4449575

>  <BCUT_SMR_1>
-0.30418199

>  <BCUT_SMR_2>
0.65470874

>  <BCUT_SMR_3>
2.90114

>  <bpol>
32.186176

>  <b_1rotN>
5

>  <b_1rotR>
0.23809524

>  <b_ar>
6

>  <b_count>
46

>  <b_double>
0

>  <b_heavy>
21

>  <b_max1len>
7

>  <b_rotN>
6

>  <b_rotR>
0.2857143

>  <b_single>
40

>  <b_triple>
0

>  <chi0>
14.587576

>  <chi0v>
13.425141

>  <chi0v_C>
10.844935

>  <chi0_C>
11.466255

>  <chi1>
9.455308

>  <chi1v>
8.247016

>  <chi1v_C>
5.4140668

>  <chi1_C>
6.2079082

>  <chiral>
1

>  <chiral_u>
1

>  <density>
0.70830339

>  <diameter>
11

>  <FCharge>
0

>  <GCUT_PEOE_0>
-0.84481704

>  <GCUT_PEOE_1>
-0.32908043

>  <GCUT_PEOE_2>
-0.047523838

>  <GCUT_PEOE_3>
2.6157475

>  <GCUT_SLOGP_0>
-1.1534348

>  <GCUT_SLOGP_1>
-0.26536188

>  <GCUT_SLOGP_2>
0.037777197

>  <GCUT_SLOGP_3>
2.6835527

>  <GCUT_SMR_0>
-0.52415383

>  <GCUT_SMR_1>
-0.17428805

>  <GCUT_SMR_2>
0.14797783

>  <GCUT_SMR_3>
2.8733764

>  <Kier1>
16.371881

>  <Kier2>
7.3198571

>  <Kier3>
5.3789062

>  <KierA1>
15.670397

>  <KierA2>
6.9893579

>  <KierA3>
5.1270051

>  <KierFlex>
5.4763007

>  <lip_acc>
3

>  <lip_don>
2

>  <lip_druglike>
1

>  <lip_violation>
0

>  <logP(o/w)>
3.046

>  <logS>
-3.38833

>  <mr>
8.5055161

>  <mutagenic>
0

>  <nmol>
1

>  <opr_brigid>
11

>  <opr_leadlike>
1

>  <opr_nring>
2

>  <opr_nrot>
7

>  <opr_violation>
0

>  <PC+>
0

>  <PC->
0

>  <PEOE_PC+>
1.5474665

>  <PEOE_PC->
-1.5474665

>  <PEOE_RPC+>
0.13566144

>  <PEOE_RPC->
0.25088587

>  <PEOE_VSA+0>
89.888489

>  <PEOE_VSA+1>
53.907059

>  <PEOE_VSA+2>
8.6190128

>  <PEOE_VSA+3>
0

>  <PEOE_VSA+4>
10.324173

>  <PEOE_VSA+5>
0

>  <PEOE_VSA+6>
0

>  <PEOE_VSA-0>
98.786476

>  <PEOE_VSA-1>
24.509808

>  <PEOE_VSA-2>
19.760618

>  <PEOE_VSA-3>
0

>  <PEOE_VSA-4>
0

>  <PEOE_VSA-5>
0

>  <PEOE_VSA-6>
10.408187

>  <PEOE_VSA_FHYD>
0.93443358

>  <PEOE_VSA_FNEG>
0.48533598

>  <PEOE_VSA_FPNEG>
0.032916069

>  <PEOE_VSA_FPOL>
0.065566443

>  <PEOE_VSA_FPOS>
0.51466399

>  <PEOE_VSA_FPPOS>
0.032650374

>  <PEOE_VSA_HYD>
295.47147

>  <PEOE_VSA_NEG>
153.46509

>  <PEOE_VSA_PNEG>
10.408187

>  <PEOE_VSA_POL>
20.732361

>  <PEOE_VSA_POS>
162.73872

>  <PEOE_VSA_PPOS>
10.324173

>  <petitjean>
0.45454547

>  <petitjeanSC>
0.83333331

>  <Q_PC+>
0

>  <Q_PC->
0

>  <Q_RPC+>
0

>  <Q_RPC->
0

>  <Q_VSA_FHYD>
1

>  <Q_VSA_FNEG>
0

>  <Q_VSA_FPNEG>
0

>  <Q_VSA_FPOL>
0

>  <Q_VSA_FPOS>
1

>  <Q_VSA_FPPOS>
0

>  <Q_VSA_HYD>
316.20383

>  <Q_VSA_NEG>
0

>  <Q_VSA_PNEG>
0

>  <Q_VSA_POL>
0

>  <Q_VSA_POS>
316.20383

>  <Q_VSA_PPOS>
0

>  <radius>
6

>  <reactive>
0

>  <rings>
2

>  <RPC+>
0

>  <RPC->
0

>  <rsynth>
0.44999999

>  <SlogP>
2.85267

>  <SlogP_VSA0>
54.395866

>  <SlogP_VSA1>
0

>  <SlogP_VSA2>
6.4686494

>  <SlogP_VSA3>
56.5994

>  <SlogP_VSA4>
3.185575

>  <SlogP_VSA5>
20.41914

>  <SlogP_VSA6>
0

>  <SlogP_VSA7>
52.929554

>  <SlogP_VSA8>
18.868406

>  <SlogP_VSA9>
137.44101

>  <SMR>
8.4745502

>  <SMR_VSA0>
0

>  <SMR_VSA1>
36.385113

>  <SMR_VSA2>
19.561485

>  <SMR_VSA3>
14.897653

>  <SMR_VSA4>
0

>  <SMR_VSA5>
90.666367

>  <SMR_VSA6>
56.5994

>  <SMR_VSA7>
132.19759

>  <TPSA>
41.490002

>  <VAdjEq>
0.48464775

>  <VAdjMa>
5.3923173

>  <VDistEq>
3.3189929

>  <VDistMa>
8.3179398

>  <vdw_area>
316.20383

>  <vdw_vol>
417.11926

>  <vsa_acc>
2.503756

>  <vsa_acid>
0

>  <vsa_base>
0

>  <vsa_don>
0

>  <vsa_hyd>
270.48117

>  <vsa_other>
0

>  <vsa_pol>
21.753254

>  <Weight>
295.44699

>  <weinerPath>
913

>  <weinerPol>
26

>  <zagreb>
100

$$$$