S(=O)(CCCC(F)(F)C(F)(F)F)CCCCCCCCC[C@H]1[C@H]2[C@@H]3CC[C@H](O)[C@@]3(CC[C@@H]2c2c(cc(O)cc2)C1)C
  MOE2013           2D

 41 44  0  0  1  0  0  0  0  0999 V2000
    0.0000    0.0000    0.0000 S   0  0  3  0  0  0  0  0  0  0  0  0
   -0.0010   -1.5000    0.0000 O   0  0  0  0  0  0  0  0  0  0  0  0
    1.3000    0.7490    0.0000 C   0  0  0  0  0  0  0  0  0  0  0  0
    1.3010    2.2490    0.0000 C   0  0  0  0  0  0  0  0  0  0  0  0
    2.6010    2.9980    0.0000 C   0  0  0  0  0  0  0  0  0  0  0  0
    2.6020    4.4980    0.0000 C   0  0  0  0  0  0  0  0  0  0  0  0
    2.6030    5.9980    0.0000 F   0  0  0  0  0  0  0  0  0  0  0  0
    1.1020    4.4990    0.0000 F   0  0  0  0  0  0  0  0  0  0  0  0
    4.1020    4.4970    0.0000 C   0  0  0  0  0  0  0  0  0  0  0  0
    5.6020    4.4950    0.0000 F   0  0  0  0  0  0  0  0  0  0  0  0
    4.1030    5.9970    0.0000 F   0  0  0  0  0  0  0  0  0  0  0  0
    4.1010    2.9970    0.0000 F   0  0  0  0  0  0  0  0  0  0  0  0
   -1.2980    0.7510    0.0000 C   0  0  0  0  0  0  0  0  0  0  0  0
   -2.5980    0.0020    0.0000 C   0  0  0  0  0  0  0  0  0  0  0  0
   -3.8970    0.7530    0.0000 C   0  0  0  0  0  0  0  0  0  0  0  0
   -5.1960    0.0040    0.0000 C   0  0  0  0  0  0  0  0  0  0  0  0
   -6.4950    0.7550    0.0000 C   0  0  0  0  0  0  0  0  0  0  0  0
   -7.7940    0.0060    0.0000 C   0  0  0  0  0  0  0  0  0  0  0  0
   -9.0930    0.7570    0.0000 C   0  0  0  0  0  0  0  0  0  0  0  0
  -10.3920    0.0080    0.0000 C   0  0  0  0  0  0  0  0  0  0  0  0
  -11.6910    0.7600    0.0000 C   0  0  0  0  0  0  0  0  0  0  0  0
  -12.9900    0.0110    0.0000 C   0  0  1  0  0  0  0  0  0  0  0  0
  -14.2890    0.7620    0.0000 C   0  0  1  0  0  0  0  0  0  0  0  0
  -14.2880    2.2620    0.0000 C   0  0  2  0  0  0  0  0  0  0  0  0
  -13.1720    3.2640    0.0000 C   0  0  0  0  0  0  0  0  0  0  0  0
  -13.7810    4.6350    0.0000 C   0  0  0  0  0  0  0  0  0  0  0  0
  -15.2730    4.4800    0.0000 C   0  0  2  0  0  0  0  0  0  0  0  0
  -16.2760    5.5950    0.0000 O   0  0  0  0  0  0  0  0  0  0  0  0
  -15.5860    3.0130    0.0000 C   0  0  2  0  0  0  0  0  0  0  0  0
  -16.8860    2.2640    0.0000 C   0  0  0  0  0  0  0  0  0  0  0  0
  -16.8870    0.7640    0.0000 C   0  0  0  0  0  0  0  0  0  0  0  0
  -15.5880    0.0130    0.0000 C   0  0  2  0  0  0  0  0  0  0  0  0
  -15.5900   -1.4870    0.0000 C   0  0  0  0  0  0  0  0  0  0  0  0
  -14.2910   -2.2380    0.0000 C   0  0  0  0  0  0  0  0  0  0  0  0
  -14.2920   -3.7380    0.0000 C   0  0  0  0  0  0  0  0  0  0  0  0
  -15.5920   -4.4870    0.0000 C   0  0  0  0  0  0  0  0  0  0  0  0
  -15.5930   -5.9870    0.0000 O   0  0  0  0  0  0  0  0  0  0  0  0
  -16.8910   -3.7360    0.0000 C   0  0  0  0  0  0  0  0  0  0  0  0
  -16.8890   -2.2360    0.0000 C   0  0  0  0  0  0  0  0  0  0  0  0
  -12.9920   -1.4890    0.0000 C   0  0  0  0  0  0  0  0  0  0  0  0
  -16.8140    3.8740    0.0000 C   0  0  0  0  0  0  0  0  0  0  0  0
  1  2  2  0  0  0  0
  1  3  1  0  0  0  0
  1 13  1  0  0  0  0
  3  4  1  0  0  0  0
  4  5  1  0  0  0  0
  5  6  1  0  0  0  0
  6  7  1  0  0  0  0
  6  8  1  0  0  0  0
  6  9  1  0  0  0  0
  9 10  1  0  0  0  0
  9 11  1  0  0  0  0
  9 12  1  0  0  0  0
 13 14  1  0  0  0  0
 14 15  1  0  0  0  0
 15 16  1  0  0  0  0
 16 17  1  0  0  0  0
 17 18  1  0  0  0  0
 18 19  1  0  0  0  0
 19 20  1  0  0  0  0
 20 21  1  0  0  0  0
 22 21  1  6  0  0  0
 22 40  1  0  0  0  0
 23 22  1  6  0  0  0
 23 24  1  0  0  0  0
 23 32  1  0  0  0  0
 24 25  1  1  0  0  0
 24 29  1  0  0  0  0
 25 26  1  0  0  0  0
 26 27  1  0  0  0  0
 27 28  1  1  0  0  0
 27 29  1  0  0  0  0
 29 30  1  0  0  0  0
 29 41  1  6  0  0  0
 30 31  1  0  0  0  0
 32 31  1  1  0  0  0
 32 33  1  0  0  0  0
 33 34  1  0  0  0  0
 33 39  2  0  0  0  0
 34 35  2  0  0  0  0
 34 40  1  0  0  0  0
 35 36  1  0  0  0  0
 36 37  1  0  0  0  0
 36 38  2  0  0  0  0
 38 39  1  0  0  0  0
M  END
>  <Index>
1402

>  <ID>
HT3952

>  <class>
0

>  <apol>
95.750275

>  <ast_fraglike>
0

>  <ast_fraglike_ext>
0

>  <ast_violation>
2

>  <ast_violation_ext>
3

>  <a_acc>
3

>  <a_acid>
0

>  <a_aro>
6

>  <a_base>
0

>  <a_count>
88

>  <a_don>
2

>  <a_donacc>
5

>  <a_heavy>
41

>  <a_hyd>
37

>  <a_IC>
130.99977

>  <a_ICM>
1.4886339

>  <a_nB>
0

>  <a_nBr>
0

>  <a_nC>
32

>  <a_nCl>
0

>  <a_nF>
5

>  <a_nH>
47

>  <a_nI>
0

>  <a_nN>
0

>  <a_nO>
3

>  <a_nP>
0

>  <a_nS>
1

>  <balabanJ>
1.1262935

>  <BCUT_PEOE_0>
-2.9084182

>  <BCUT_PEOE_1>
-0.59934288

>  <BCUT_PEOE_2>
0.48037031

>  <BCUT_PEOE_3>
2.9377122

>  <BCUT_SLOGP_0>
-2.8310215

>  <BCUT_SLOGP_1>
-0.57284045

>  <BCUT_SLOGP_2>
0.55858892

>  <BCUT_SLOGP_3>
3.0133271

>  <BCUT_SMR_0>
-2.6527836

>  <BCUT_SMR_1>
-0.43663651

>  <BCUT_SMR_2>
0.73985445

>  <BCUT_SMR_3>
3.1903005

>  <bpol>
61.773727

>  <b_1rotN>
14

>  <b_1rotR>
0.31818181

>  <b_ar>
6

>  <b_count>
91

>  <b_double>
0

>  <b_heavy>
44

>  <b_max1len>
17

>  <b_rotN>
15

>  <b_rotR>
0.34090909

>  <b_single>
85

>  <b_triple>
0

>  <chi0>
29.838287

>  <chi0v>
25.05686

>  <chi0v_C>
20.639618

>  <chi0_C>
21.260939

>  <chi1>
19.332153

>  <chi1v>
17.114729

>  <chi1v_C>
13.455961

>  <chi1_C>
14.283607

>  <chiral>
6

>  <chiral_u>
0

>  <density>
0.77215046

>  <diameter>
21

>  <FCharge>
0

>  <GCUT_PEOE_0>
-0.87940526

>  <GCUT_PEOE_1>
-0.4034934

>  <GCUT_PEOE_2>
0.01257175

>  <GCUT_PEOE_3>
3.3324857

>  <GCUT_SLOGP_0>
-0.88362724

>  <GCUT_SLOGP_1>
-0.28646782

>  <GCUT_SLOGP_2>
0.1799057

>  <GCUT_SLOGP_3>
3.4325786

>  <GCUT_SMR_0>
-0.53898823

>  <GCUT_SMR_1>
-0.19504966

>  <GCUT_SMR_2>
0.17359781

>  <GCUT_SMR_3>
3.5634441

>  <Kier1>
33.884296

>  <Kier2>
14.4

>  <Kier3>
8.1859407

>  <KierA1>
32.457645

>  <KierA2>
13.778515

>  <KierA3>
7.8264885

>  <KierFlex>
10.907759

>  <lip_acc>
3

>  <lip_don>
2

>  <lip_druglike>
0

>  <lip_violation>
2

>  <logP(o/w)>
8.4636803

>  <logS>
-10.03833

>  <mr>
15.508786

>  <mutagenic>
0

>  <nmol>
1

>  <opr_brigid>
20

>  <opr_leadlike>
0

>  <opr_nring>
4

>  <opr_nrot>
14

>  <opr_violation>
3

>  <PC+>
0

>  <PC->
0

>  <PEOE_PC+>
3.227242

>  <PEOE_PC->
-3.227242

>  <PEOE_RPC+>
0.14062573

>  <PEOE_RPC->
0.1914726

>  <PEOE_VSA+0>
166.5206

>  <PEOE_VSA+1>
47.486538

>  <PEOE_VSA+2>
21.35475

>  <PEOE_VSA+3>
0

>  <PEOE_VSA+4>
20.648346

>  <PEOE_VSA+5>
0

>  <PEOE_VSA+6>
11.278698

>  <PEOE_VSA-0>
107.23871

>  <PEOE_VSA-1>
87.645859

>  <PEOE_VSA-2>
0

>  <PEOE_VSA-3>
59.543179

>  <PEOE_VSA-4>
0

>  <PEOE_VSA-5>
0

>  <PEOE_VSA-6>
31.543343

>  <PEOE_VSA_FHYD>
0.8852793

>  <PEOE_VSA_FNEG>
0.51688373

>  <PEOE_VSA_FPNEG>
0.057013594

>  <PEOE_VSA_FPOL>
0.11472072

>  <PEOE_VSA_FPOS>
0.4831163

>  <PEOE_VSA_FPPOS>
0.057707123

>  <PEOE_VSA_HYD>
489.78961

>  <PEOE_VSA_NEG>
285.97107

>  <PEOE_VSA_PNEG>
31.543343

>  <PEOE_VSA_POL>
63.470387

>  <PEOE_VSA_POS>
267.28894

>  <PEOE_VSA_PPOS>
31.927044

>  <petitjean>
0.47619048

>  <petitjeanSC>
0.90909094

>  <Q_PC+>
0

>  <Q_PC->
0

>  <Q_RPC+>
0

>  <Q_RPC->
0

>  <Q_VSA_FHYD>
1

>  <Q_VSA_FNEG>
0

>  <Q_VSA_FPNEG>
0

>  <Q_VSA_FPOL>
0

>  <Q_VSA_FPOS>
1

>  <Q_VSA_FPPOS>
0

>  <Q_VSA_HYD>
553.26001

>  <Q_VSA_NEG>
0

>  <Q_VSA_PNEG>
0

>  <Q_VSA_POL>
0

>  <Q_VSA_POS>
553.26001

>  <Q_VSA_PPOS>
0

>  <radius>
11

>  <reactive>
0

>  <rings>
4

>  <RPC+>
0

>  <RPC->
0

>  <rsynth>
0.2682927

>  <SlogP>
8.6825705

>  <SlogP_VSA0>
50.770454

>  <SlogP_VSA1>
33.669434

>  <SlogP_VSA2>
26.018053

>  <SlogP_VSA3>
34.467129

>  <SlogP_VSA4>
19.603539

>  <SlogP_VSA5>
18.868406

>  <SlogP_VSA6>
4.4107962

>  <SlogP_VSA7>
52.929554

>  <SlogP_VSA8>
264.15768

>  <SlogP_VSA9>
113.37001

>  <SMR>
15.2652

>  <SMR_VSA0>
24.085844

>  <SMR_VSA1>
125.57102

>  <SMR_VSA2>
22.815977

>  <SMR_VSA3>
22.494022

>  <SMR_VSA4>
0

>  <SMR_VSA5>
335.95563

>  <SMR_VSA6>
34.467129

>  <SMR_VSA7>
52.87542

>  <TPSA>
76.739998

>  <VAdjEq>
0.29629606

>  <VAdjMa>
6.4594316

>  <VDistEq>
4.29177

>  <VDistMa>
10.3625

>  <vdw_area>
553.26001

>  <vdw_vol>
785.83258

>  <vsa_acc>
16.008261

>  <vsa_acid>
0

>  <vsa_base>
0

>  <vsa_don>
0

>  <vsa_hyd>
450.52063

>  <vsa_other>
13.136708

>  <vsa_pol>
43.142105

>  <Weight>
606.78101

>  <weinerPath>
7474

>  <weinerPol>
70

>  <zagreb>
218

$$$$