Clc1cc2c(Sc3c(cccc3)/C/2=CCCN2CCN(CC2)CCO)cc1
  MOE2013           2D

 27 30  0  0  0  0  0  0  0  0999 V2000
    0.0000    0.0000    0.0000 Cl  0  0  0  0  0  0  0  0  0  0  0  0
    0.7460   -1.3010    0.0000 C   0  0  0  0  0  0  0  0  0  0  0  0
    2.2460   -1.3060    0.0000 C   0  0  0  0  0  0  0  0  0  0  0  0
    2.9920   -2.6070    0.0000 C   0  0  0  0  0  0  0  0  0  0  0  0
    2.2390   -3.9040    0.0000 C   0  0  0  0  0  0  0  0  0  0  0  0
    2.9850   -5.2050    0.0000 S   0  0  0  0  0  0  0  0  0  0  0  0
    4.4850   -5.2090    0.0000 C   0  0  0  0  0  0  0  0  0  0  0  0
    5.2390   -3.9120    0.0000 C   0  0  0  0  0  0  0  0  0  0  0  0
    6.7390   -3.9170    0.0000 C   0  0  0  0  0  0  0  0  0  0  0  0
    7.4850   -5.2180    0.0000 C   0  0  0  0  0  0  0  0  0  0  0  0
    6.7310   -6.5150    0.0000 C   0  0  0  0  0  0  0  0  0  0  0  0
    5.2310   -6.5110    0.0000 C   0  0  0  0  0  0  0  0  0  0  0  0
    4.4920   -2.6110    0.0000 C   0  0  0  0  0  0  0  0  0  0  0  0
    5.2460   -1.3140    0.0000 C   0  0  0  0  0  0  0  0  0  0  0  0
    6.7460   -1.3190    0.0000 C   0  0  0  0  0  0  0  0  0  0  0  0
    7.5000   -0.0220    0.0000 C   0  0  0  0  0  0  0  0  0  0  0  0
    9.0000   -0.0260    0.0000 N   0  0  0  0  0  0  0  0  0  0  0  0
    9.7540    1.2700    0.0000 C   0  0  0  0  0  0  0  0  0  0  0  0
   11.2540    1.2660    0.0000 C   0  0  0  0  0  0  0  0  0  0  0  0
   12.0000   -0.0350    0.0000 N   0  0  0  0  0  0  0  0  0  0  0  0
   11.2460   -1.3320    0.0000 C   0  0  0  0  0  0  0  0  0  0  0  0
    9.7460   -1.3280    0.0000 C   0  0  0  0  0  0  0  0  0  0  0  0
   13.5000   -0.0400    0.0000 C   0  0  0  0  0  0  0  0  0  0  0  0
   14.2540    1.2570    0.0000 C   0  0  0  0  0  0  0  0  0  0  0  0
   15.7540    1.2530    0.0000 O   0  0  0  0  0  0  0  0  0  0  0  0
    0.7390   -3.8990    0.0000 C   0  0  0  0  0  0  0  0  0  0  0  0
   -0.0080   -2.5980    0.0000 C   0  0  0  0  0  0  0  0  0  0  0  0
  1  2  1  0  0  0  0
  2  3  1  0  0  0  0
  2 27  2  0  0  0  0
  3  4  2  0  0  0  0
  4  5  1  0  0  0  0
  4 13  1  0  0  0  0
  5  6  1  0  0  0  0
  5 26  2  0  0  0  0
  6  7  1  0  0  0  0
  7  8  1  0  0  0  0
  7 12  2  0  0  0  0
  8  9  2  0  0  0  0
  8 13  1  0  0  0  0
  9 10  1  0  0  0  0
 10 11  2  0  0  0  0
 11 12  1  0  0  0  0
 13 14  2  3  0  0  0
 14 15  1  0  0  0  0
 15 16  1  0  0  0  0
 16 17  1  0  0  0  0
 17 18  1  0  0  0  0
 17 22  1  0  0  0  0
 18 19  1  0  0  0  0
 19 20  1  0  0  0  0
 20 21  1  0  0  0  0
 20 23  1  0  0  0  0
 21 22  1  0  0  0  0
 23 24  1  0  0  0  0
 24 25  1  0  0  0  0
 26 27  1  0  0  0  0
M  END
>  <Index>
1170

>  <ID>
HT2224

>  <class>
0

>  <apol>
63.471825

>  <ast_fraglike>
0

>  <ast_fraglike_ext>
0

>  <ast_violation>
2

>  <ast_violation_ext>
3

>  <a_acc>
3

>  <a_acid>
0

>  <a_aro>
12

>  <a_base>
0

>  <a_count>
52

>  <a_don>
1

>  <a_donacc>
4

>  <a_heavy>
27

>  <a_hyd>
24

>  <a_IC>
80.218964

>  <a_ICM>
1.5426724

>  <a_nB>
0

>  <a_nBr>
0

>  <a_nC>
22

>  <a_nCl>
1

>  <a_nF>
0

>  <a_nH>
25

>  <a_nI>
0

>  <a_nN>
2

>  <a_nO>
1

>  <a_nP>
0

>  <a_nS>
1

>  <balabanJ>
1.3009851

>  <BCUT_PEOE_0>
-2.7925234

>  <BCUT_PEOE_1>
-0.61727273

>  <BCUT_PEOE_2>
0.6587981

>  <BCUT_PEOE_3>
2.6860919

>  <BCUT_SLOGP_0>
-2.9085727

>  <BCUT_SLOGP_1>
-0.49891996

>  <BCUT_SLOGP_2>
0.76225913

>  <BCUT_SLOGP_3>
2.5961137

>  <BCUT_SMR_0>
-2.5080166

>  <BCUT_SMR_1>
-0.44284886

>  <BCUT_SMR_2>
0.84686321

>  <BCUT_SMR_3>
2.961422

>  <bpol>
33.990173

>  <b_1rotN>
5

>  <b_1rotR>
0.16666667

>  <b_ar>
12

>  <b_count>
55

>  <b_double>
1

>  <b_heavy>
30

>  <b_max1len>
4

>  <b_rotN>
5

>  <b_rotR>
0.16666667

>  <b_single>
42

>  <b_triple>
0

>  <chi0>
18.639618

>  <chi0v>
16.975935

>  <chi0v_C>
13.275657

>  <chi0_C>
14.77781

>  <chi1>
13.241515

>  <chi1v>
10.767593

>  <chi1v_C>
6.7623076

>  <chi1_C>
8.6910715

>  <chiral>
0

>  <chiral_u>
0

>  <density>
0.7465418

>  <diameter>
14

>  <FCharge>
0

>  <GCUT_PEOE_0>
-0.85782117

>  <GCUT_PEOE_1>
-0.38501295

>  <GCUT_PEOE_2>
0.062098924

>  <GCUT_PEOE_3>
2.7559953

>  <GCUT_SLOGP_0>
-0.96531373

>  <GCUT_SLOGP_1>
-0.27628392

>  <GCUT_SLOGP_2>
0.14255236

>  <GCUT_SLOGP_3>
2.8291223

>  <GCUT_SMR_0>
-0.52058423

>  <GCUT_SMR_1>
-0.18533541

>  <GCUT_SMR_2>
0.25525182

>  <GCUT_SMR_3>
3.0327201

>  <Kier1>
20.280001

>  <Kier2>
9.6668653

>  <Kier3>
4.9507437

>  <KierA1>
18.347755

>  <KierA2>
8.7106943

>  <KierA3>
4.4477553

>  <KierFlex>
5.9193215

>  <lip_acc>
3

>  <lip_don>
1

>  <lip_druglike>
1

>  <lip_violation>
0

>  <logP(o/w)>
3.908

>  <logS>
-4.6040902

>  <mr>
11.483587

>  <mutagenic>
0

>  <nmol>
1

>  <opr_brigid>
23

>  <opr_leadlike>
1

>  <opr_nring>
4

>  <opr_nrot>
7

>  <opr_violation>
0

>  <PC+>
0

>  <PC->
0

>  <PEOE_PC+>
1.6222018

>  <PEOE_PC->
-1.6222018

>  <PEOE_RPC+>
0.12911506

>  <PEOE_RPC->
0.24272391

>  <PEOE_VSA+0>
151.7583

>  <PEOE_VSA+1>
57.605152

>  <PEOE_VSA+2>
0

>  <PEOE_VSA+3>
0

>  <PEOE_VSA+4>
10.324173

>  <PEOE_VSA+5>
0

>  <PEOE_VSA+6>
0

>  <PEOE_VSA-0>
64.34655

>  <PEOE_VSA-1>
98.362183

>  <PEOE_VSA-2>
0

>  <PEOE_VSA-3>
0

>  <PEOE_VSA-4>
0

>  <PEOE_VSA-5>
0

>  <PEOE_VSA-6>
7.7675405

>  <PEOE_VSA_FHYD>
0.95363051

>  <PEOE_VSA_FNEG>
0.43693501

>  <PEOE_VSA_FPNEG>
0.019908404

>  <PEOE_VSA_FPOL>
0.046369519

>  <PEOE_VSA_FPOS>
0.56306499

>  <PEOE_VSA_FPPOS>
0.026461117

>  <PEOE_VSA_HYD>
372.07217

>  <PEOE_VSA_NEG>
170.47627

>  <PEOE_VSA_PNEG>
7.7675405

>  <PEOE_VSA_POL>
18.091713

>  <PEOE_VSA_POS>
219.68762

>  <PEOE_VSA_PPOS>
10.324173

>  <petitjean>
0.5

>  <petitjeanSC>
1

>  <Q_PC+>
0

>  <Q_PC->
0

>  <Q_RPC+>
0

>  <Q_RPC->
0

>  <Q_VSA_FHYD>
1

>  <Q_VSA_FNEG>
0

>  <Q_VSA_FPNEG>
0

>  <Q_VSA_FPOL>
0

>  <Q_VSA_FPOS>
1

>  <Q_VSA_FPPOS>
0

>  <Q_VSA_HYD>
390.16391

>  <Q_VSA_NEG>
0

>  <Q_VSA_PNEG>
0

>  <Q_VSA_POL>
0

>  <Q_VSA_POS>
390.16391

>  <Q_VSA_PPOS>
0

>  <radius>
7

>  <reactive>
0

>  <rings>
4

>  <RPC+>
0

>  <RPC->
0

>  <rsynth>
0.33333334

>  <SlogP>
4.0535898

>  <SlogP_VSA0>
25.385227

>  <SlogP_VSA1>
6.2486277

>  <SlogP_VSA2>
0

>  <SlogP_VSA3>
134.7493

>  <SlogP_VSA4>
6.37115

>  <SlogP_VSA5>
3.1014678

>  <SlogP_VSA6>
3.5006065

>  <SlogP_VSA7>
141.14548

>  <SlogP_VSA8>
18.868406

>  <SlogP_VSA9>
71.368187

>  <SMR>
11.26178

>  <SMR_VSA0>
0

>  <SMR_VSA1>
31.633854

>  <SMR_VSA2>
6.2870431

>  <SMR_VSA3>
9.8717566

>  <SMR_VSA4>
0

>  <SMR_VSA5>
160.01389

>  <SMR_VSA6>
131.56372

>  <SMR_VSA7>
71.368187

>  <TPSA>
26.709999

>  <VAdjEq>
0.41024774

>  <VAdjMa>
5.9068904

>  <VDistEq>
3.6134136

>  <VDistMa>
9.197422

>  <vdw_area>
390.16391

>  <vdw_vol>
537.10858

>  <vsa_acc>
0

>  <vsa_acid>
0

>  <vsa_base>
0

>  <vsa_don>
0

>  <vsa_hyd>
354.98911

>  <vsa_other>
0

>  <vsa_pol>
13.566921

>  <Weight>
400.974

>  <weinerPath>
2000

>  <weinerPol>
43

>  <zagreb>
142

$$$$