ClC(Cl)(Cl)SN1C(=O)C(NC1=O)C(CCCC)CC
  MOE2013           2D

 19 19  0  0  1  0  0  0  0  0999 V2000
    0.0000    0.0000    0.0000 Cl  0  0  0  0  0  0  0  0  0  0  0  0
   -0.8990    1.2010    0.0000 C   0  0  0  0  0  0  0  0  0  0  0  0
   -2.1000    0.3010    0.0000 Cl  0  0  0  0  0  0  0  0  0  0  0  0
   -1.7990    2.4010    0.0000 Cl  0  0  0  0  0  0  0  0  0  0  0  0
    0.3010    2.1000    0.0000 S   0  0  0  0  0  0  0  0  0  0  0  0
    1.6800    1.5100    0.0000 N   0  0  0  0  0  0  0  0  0  0  0  0
    2.9680    2.2790    0.0000 C   0  0  0  0  0  0  0  0  0  0  0  0
    3.1030    3.7730    0.0000 O   0  0  0  0  0  0  0  0  0  0  0  0
    4.0970    1.2910    0.0000 C   0  0  3  0  0  0  0  0  0  0  0  0
    3.5070   -0.0880    0.0000 N   0  0  0  0  0  0  0  0  0  0  0  0
    2.0140    0.0470    0.0000 C   0  0  0  0  0  0  0  0  0  0  0  0
    1.0260   -1.0820    0.0000 O   0  0  0  0  0  0  0  0  0  0  0  0
    5.5600    1.6250    0.0000 C   0  0  3  0  0  0  0  0  0  0  0  0
    6.5800    0.5250    0.0000 C   0  0  0  0  0  0  0  0  0  0  0  0
    8.0420    0.8580    0.0000 C   0  0  0  0  0  0  0  0  0  0  0  0
    9.0620   -0.2420    0.0000 C   0  0  0  0  0  0  0  0  0  0  0  0
   10.5250    0.0910    0.0000 C   0  0  0  0  0  0  0  0  0  0  0  0
    6.0030    3.0580    0.0000 C   0  0  0  0  0  0  0  0  0  0  0  0
    7.4650    3.3910    0.0000 C   0  0  0  0  0  0  0  0  0  0  0  0
  1  2  1  0  0  0  0
  2  3  1  0  0  0  0
  2  4  1  0  0  0  0
  2  5  1  0  0  0  0
  5  6  1  0  0  0  0
  6  7  1  0  0  0  0
  6 11  1  0  0  0  0
  7  8  2  0  0  0  0
  7  9  1  0  0  0  0
  9 10  1  0  0  0  0
  9 13  1  0  0  0  0
 10 11  1  0  0  0  0
 11 12  2  0  0  0  0
 13 14  1  0  0  0  0
 13 18  1  0  0  0  0
 14 15  1  0  0  0  0
 15 16  1  0  0  0  0
 16 17  1  0  0  0  0
 18 19  1  0  0  0  0
M  END
>  <Index>
1350

>  <ID>
HT3591

>  <class>
0

>  <apol>
43.93948

>  <ast_fraglike>
0

>  <ast_fraglike_ext>
0

>  <ast_violation>
2

>  <ast_violation_ext>
3

>  <a_acc>
2

>  <a_acid>
0

>  <a_aro>
0

>  <a_base>
0

>  <a_count>
36

>  <a_don>
1

>  <a_donacc>
3

>  <a_heavy>
19

>  <a_hyd>
11

>  <a_IC>
69.8218

>  <a_ICM>
1.9394944

>  <a_nB>
0

>  <a_nBr>
0

>  <a_nC>
11

>  <a_nCl>
3

>  <a_nF>
0

>  <a_nH>
17

>  <a_nI>
0

>  <a_nN>
2

>  <a_nO>
2

>  <a_nP>
0

>  <a_nS>
1

>  <balabanJ>
2.6742437

>  <BCUT_PEOE_0>
-2.7213941

>  <BCUT_PEOE_1>
-0.42127556

>  <BCUT_PEOE_2>
0.3119956

>  <BCUT_PEOE_3>
2.7333755

>  <BCUT_SLOGP_0>
-2.7254424

>  <BCUT_SLOGP_1>
-0.20161405

>  <BCUT_SLOGP_2>
0.68949997

>  <BCUT_SLOGP_3>
2.786442

>  <BCUT_SMR_0>
-2.4782119

>  <BCUT_SMR_1>
-0.1780922

>  <BCUT_SMR_2>
0.62126946

>  <BCUT_SMR_3>
2.9837413

>  <bpol>
26.680519

>  <b_1rotN>
6

>  <b_1rotR>
0.31578946

>  <b_ar>
0

>  <b_count>
36

>  <b_double>
2

>  <b_heavy>
19

>  <b_max1len>
8

>  <b_rotN>
7

>  <b_rotR>
0.36842105

>  <b_single>
34

>  <b_triple>
0

>  <chi0>
14.629392

>  <chi0v>
13.873263

>  <chi0v_C>
7.4831276

>  <chi0_C>
7.6378284

>  <chi1>
8.7970419

>  <chi1v>
8.1077909

>  <chi1v_C>
3.8527186

>  <chi1_C>
3.8973768

>  <chiral>
2

>  <chiral_u>
2

>  <density>
0.92698425

>  <diameter>
10

>  <FCharge>
0

>  <GCUT_PEOE_0>
-0.80051404

>  <GCUT_PEOE_1>
-0.35503998

>  <GCUT_PEOE_2>
-0.067475416

>  <GCUT_PEOE_3>
2.6386976

>  <GCUT_SLOGP_0>
-1.1684952

>  <GCUT_SLOGP_1>
-0.27370369

>  <GCUT_SLOGP_2>
0.26006052

>  <GCUT_SLOGP_3>
2.6793051

>  <GCUT_SMR_0>
-0.53182924

>  <GCUT_SMR_1>
-0.16765162

>  <GCUT_SMR_2>
0.32287461

>  <GCUT_SMR_3>
2.8776431

>  <Kier1>
17.052631

>  <Kier2>
7.1358023

>  <Kier3>
4.7950053

>  <KierA1>
19.776165

>  <KierA2>
8.3447952

>  <KierA3>
5.6437325

>  <KierFlex>
8.6856871

>  <lip_acc>
4

>  <lip_don>
1

>  <lip_druglike>
1

>  <lip_violation>
0

>  <logP(o/w)>
5.22508

>  <logS>
-6.39364

>  <mr>
8.1326828

>  <mutagenic>
1

>  <nmol>
1

>  <opr_brigid>
5

>  <opr_leadlike>
1

>  <opr_nring>
1

>  <opr_nrot>
6

>  <opr_violation>
0

>  <PC+>
0

>  <PC->
0

>  <PEOE_PC+>
1.6002417

>  <PEOE_PC->
-1.6002417

>  <PEOE_RPC+>
0.21004003

>  <PEOE_RPC->
0.20330028

>  <PEOE_VSA+0>
87.334221

>  <PEOE_VSA+1>
4.2653861

>  <PEOE_VSA+2>
3.1459606

>  <PEOE_VSA+3>
8.6190128

>  <PEOE_VSA+4>
0

>  <PEOE_VSA+5>
12.949531

>  <PEOE_VSA+6>
17.440542

>  <PEOE_VSA-0>
8.701313

>  <PEOE_VSA-1>
152.34514

>  <PEOE_VSA-2>
0

>  <PEOE_VSA-3>
0

>  <PEOE_VSA-4>
13.566921

>  <PEOE_VSA-5>
13.566921

>  <PEOE_VSA-6>
0.13689101

>  <PEOE_VSA_FHYD>
0.8209691

>  <PEOE_VSA_FNEG>
0.58470553

>  <PEOE_VSA_FPNEG>
0.084672831

>  <PEOE_VSA_FPOL>
0.1790309

>  <PEOE_VSA_FPOS>
0.41529447

>  <PEOE_VSA_FPPOS>
0.094358064

>  <PEOE_VSA_HYD>
264.41101

>  <PEOE_VSA_NEG>
188.31718

>  <PEOE_VSA_PNEG>
27.270733

>  <PEOE_VSA_POL>
57.660805

>  <PEOE_VSA_POS>
133.75465

>  <PEOE_VSA_PPOS>
30.390074

>  <petitjean>
0.5

>  <petitjeanSC>
1

>  <Q_PC+>
0

>  <Q_PC->
0

>  <Q_RPC+>
0

>  <Q_RPC->
0

>  <Q_VSA_FHYD>
1

>  <Q_VSA_FNEG>
0

>  <Q_VSA_FPNEG>
0

>  <Q_VSA_FPOL>
0

>  <Q_VSA_FPOS>
1

>  <Q_VSA_FPPOS>
0

>  <Q_VSA_HYD>
322.07184

>  <Q_VSA_NEG>
0

>  <Q_VSA_PNEG>
0

>  <Q_VSA_POL>
0

>  <Q_VSA_POS>
322.07184

>  <Q_VSA_PPOS>
0

>  <radius>
5

>  <reactive>
1

>  <rings>
1

>  <RPC+>
0

>  <RPC->
0

>  <rsynth>
0.42105263

>  <SlogP>
4.0991001

>  <SlogP_VSA0>
18.01075

>  <SlogP_VSA1>
11.607301

>  <SlogP_VSA2>
27.844185

>  <SlogP_VSA3>
0

>  <SlogP_VSA4>
4.4107962

>  <SlogP_VSA5>
0

>  <SlogP_VSA6>
0

>  <SlogP_VSA7>
0

>  <SlogP_VSA8>
75.473625

>  <SlogP_VSA9>
239.94119

>  <SMR>
8.0353699

>  <SMR_VSA0>
47.724434

>  <SMR_VSA1>
1.5185606

>  <SMR_VSA2>
22.421547

>  <SMR_VSA3>
3.9819686

>  <SMR_VSA4>
0

>  <SMR_VSA5>
75.473625

>  <SMR_VSA6>
10.088739

>  <SMR_VSA7>
216.07898

>  <TPSA>
49.41

>  <VAdjEq>
0.48546076

>  <VAdjMa>
5.2479277

>  <VDistEq>
3.0770032

>  <VDistMa>
8.2084694

>  <vdw_area>
322.07184

>  <vdw_vol>
375.08078

>  <vsa_acc>
27.133842

>  <vsa_acid>
0

>  <vsa_base>
0

>  <vsa_don>
5.6825762

>  <vsa_hyd>
219.7048

>  <vsa_other>
53.7435

>  <vsa_pol>
32.816418

>  <Weight>
347.694

>  <weinerPath>
718

>  <weinerPol>
26

>  <zagreb>
92

$$$$