N(=C(NC#N)/N)/C(CC)(C)C
  MOE2013           2D

 11 10  0  0  0  0  0  0  0  0999 V2000
    0.0000    0.0000    0.0000 N   0  0  0  0  0  0  0  0  0  0  0  0
    1.5000    0.0080    0.0000 C   0  0  0  0  0  0  0  0  0  0  0  0
    2.2570   -1.2870    0.0000 N   0  0  0  0  0  0  0  0  0  0  0  0
    3.7570   -1.2790    0.0000 C   0  0  0  0  0  0  0  0  0  0  0  0
    5.2570   -1.2710    0.0000 N   0  0  0  0  0  0  0  0  0  0  0  0
    2.2430    1.3110    0.0000 N   0  0  0  0  0  0  0  0  0  0  0  0
   -0.7570    1.2950    0.0000 C   0  0  0  0  0  0  0  0  0  0  0  0
   -1.5140    2.5900    0.0000 C   0  0  0  0  0  0  0  0  0  0  0  0
   -3.0140    2.5820    0.0000 C   0  0  0  0  0  0  0  0  0  0  0  0
    0.5380    2.0520    0.0000 C   0  0  0  0  0  0  0  0  0  0  0  0
   -2.0520    0.5380    0.0000 C   0  0  0  0  0  0  0  0  0  0  0  0
  1  2  2  0  0  0  0
  1  7  1  0  0  0  0
  2  3  1  0  0  0  0
  2  6  1  0  0  0  0
  3  4  1  0  0  0  0
  4  5  3  0  0  0  0
  7  8  1  0  0  0  0
  7 10  1  0  0  0  0
  7 11  1  0  0  0  0
  8  9  1  0  0  0  0
M  END
>  <Index>
1231

>  <ID>
HT2651

>  <class>
0

>  <apol>
26.055101

>  <ast_fraglike>
1

>  <ast_fraglike_ext>
0

>  <ast_violation>
0

>  <ast_violation_ext>
1

>  <a_acc>
2

>  <a_acid>
0

>  <a_aro>
0

>  <a_base>
0

>  <a_count>
25

>  <a_don>
2

>  <a_donacc>
4

>  <a_heavy>
11

>  <a_hyd>
5

>  <a_IC>
35.141953

>  <a_ICM>
1.405678

>  <a_nB>
0

>  <a_nBr>
0

>  <a_nC>
7

>  <a_nCl>
0

>  <a_nF>
0

>  <a_nH>
14

>  <a_nI>
0

>  <a_nN>
4

>  <a_nO>
0

>  <a_nP>
0

>  <a_nS>
0

>  <balabanJ>
3.6674821

>  <BCUT_PEOE_0>
-2.638025

>  <BCUT_PEOE_1>
0.023050355

>  <BCUT_PEOE_2>
0.15873346

>  <BCUT_PEOE_3>
2.6153154

>  <BCUT_SLOGP_0>
-2.6439824

>  <BCUT_SLOGP_1>
-0.0070729582

>  <BCUT_SLOGP_2>
0.2142

>  <BCUT_SLOGP_3>
2.6806927

>  <BCUT_SMR_0>
-2.3963926

>  <BCUT_SMR_1>
0.096270002

>  <BCUT_SMR_2>
0.23426333

>  <BCUT_SMR_3>
2.8579564

>  <bpol>
17.284899

>  <b_1rotN>
2

>  <b_1rotR>
0.2

>  <b_ar>
0

>  <b_count>
24

>  <b_double>
1

>  <b_heavy>
10

>  <b_max1len>
5

>  <b_rotN>
4

>  <b_rotR>
0.40000001

>  <b_single>
22

>  <b_triple>
1

>  <chi0>
8.905777

>  <chi0v>
7.178884

>  <chi0v_C>
5.2071066

>  <chi0_C>
5.4915638

>  <chi1>
5.0151672

>  <chi1v>
3.5201557

>  <chi1v_C>
2.0606601

>  <chi1_C>
2.0606601

>  <chiral>
0

>  <chiral_u>
0

>  <density>
0.68143654

>  <diameter>
7

>  <FCharge>
0

>  <GCUT_PEOE_0>
-0.82635176

>  <GCUT_PEOE_1>
-0.16936433

>  <GCUT_PEOE_2>
-0.0012665396

>  <GCUT_PEOE_3>
2.3043094

>  <GCUT_SLOGP_0>
-1.3710417

>  <GCUT_SLOGP_1>
-0.27490565

>  <GCUT_SLOGP_2>
0.054200001

>  <GCUT_SLOGP_3>
2.3513865

>  <GCUT_SMR_0>
-0.52437836

>  <GCUT_SMR_1>
-0.063730001

>  <GCUT_SMR_2>
-0.0058290605

>  <GCUT_SMR_3>
2.5397186

>  <Kier1>
11

>  <Kier2>
4.7928996

>  <Kier3>
5.2892561

>  <KierA1>
7.7908149

>  <KierA2>
3.2627118

>  <KierA3>
3.4737973

>  <KierFlex>
2.3108346

>  <lip_acc>
4

>  <lip_don>
3

>  <lip_druglike>
1

>  <lip_violation>
0

>  <logP(o/w)>
1.096

>  <logS>
-1.42182

>  <mr>
4.3652225

>  <mutagenic>
0

>  <nmol>
1

>  <opr_brigid>
1

>  <opr_leadlike>
1

>  <opr_nring>
0

>  <opr_nrot>
4

>  <opr_violation>
0

>  <PC+>
0

>  <PC->
0

>  <PEOE_PC+>
1.223533

>  <PEOE_PC->
-1.223533

>  <PEOE_RPC+>
0.16676258

>  <PEOE_RPC->
0.30172971

>  <PEOE_VSA+0>
46.919247

>  <PEOE_VSA+1>
0

>  <PEOE_VSA+2>
0

>  <PEOE_VSA+3>
50.647556

>  <PEOE_VSA+4>
15.681574

>  <PEOE_VSA+5>
0

>  <PEOE_VSA+6>
0

>  <PEOE_VSA-0>
46.196667

>  <PEOE_VSA-1>
18.747677

>  <PEOE_VSA-2>
0

>  <PEOE_VSA-3>
17.742489

>  <PEOE_VSA-4>
5.6825762

>  <PEOE_VSA-5>
0.13689101

>  <PEOE_VSA-6>
6.6511192

>  <PEOE_VSA_FHYD>
0.86491662

>  <PEOE_VSA_FNEG>
0.45659679

>  <PEOE_VSA_FPNEG>
0.059838001

>  <PEOE_VSA_FPOL>
0.13508339

>  <PEOE_VSA_FPOS>
0.54340321

>  <PEOE_VSA_FPPOS>
0.07524538

>  <PEOE_VSA_HYD>
180.25363

>  <PEOE_VSA_NEG>
95.157425

>  <PEOE_VSA_PNEG>
12.470587

>  <PEOE_VSA_POL>
28.152161

>  <PEOE_VSA_POS>
113.24837

>  <PEOE_VSA_PPOS>
15.681574

>  <petitjean>
0.42857143

>  <petitjeanSC>
0.75

>  <Q_PC+>
0

>  <Q_PC->
0

>  <Q_RPC+>
0

>  <Q_RPC->
0

>  <Q_VSA_FHYD>
1

>  <Q_VSA_FNEG>
0

>  <Q_VSA_FPNEG>
0

>  <Q_VSA_FPOL>
0

>  <Q_VSA_FPOS>
1

>  <Q_VSA_FPPOS>
0

>  <Q_VSA_HYD>
208.40579

>  <Q_VSA_NEG>
0

>  <Q_VSA_PNEG>
0

>  <Q_VSA_POL>
0

>  <Q_VSA_POS>
208.40579

>  <Q_VSA_PPOS>
0

>  <radius>
4

>  <reactive>
0

>  <rings>
0

>  <RPC+>
0

>  <RPC->
0

>  <rsynth>
1

>  <SlogP>
0.56038398

>  <SlogP_VSA0>
50.90794

>  <SlogP_VSA1>
1.8990928

>  <SlogP_VSA2>
0

>  <SlogP_VSA3>
47.232273

>  <SlogP_VSA4>
0

>  <SlogP_VSA5>
16.78553

>  <SlogP_VSA6>
0

>  <SlogP_VSA7>
0

>  <SlogP_VSA8>
18.868406

>  <SlogP_VSA9>
99.978043

>  <SMR>
4.4741101

>  <SMR_VSA0>
0

>  <SMR_VSA1>
47.844887

>  <SMR_VSA2>
18.01075

>  <SMR_VSA3>
16.172918

>  <SMR_VSA4>
32.897186

>  <SMR_VSA5>
18.868406

>  <SMR_VSA6>
1.8990928

>  <SMR_VSA7>
99.978043

>  <TPSA>
74.199997

>  <VAdjEq>
0.64681429

>  <VAdjMa>
4.321928

>  <VDistEq>
2.5793996

>  <VDistMa>
6.5879073

>  <vdw_area>
208.40579

>  <vdw_vol>
226.31161

>  <vsa_acc>
23.425066

>  <vsa_acid>
0

>  <vsa_base>
0

>  <vsa_don>
23.425066

>  <vsa_hyd>
104.03384

>  <vsa_other>
40.472092

>  <vsa_pol>
46.850132

>  <Weight>
154.217

>  <weinerPath>
170

>  <weinerPol>
11

>  <zagreb>
46

$$$$