P(O)(O)(=O)C(P(O)(O)=O)O
  MOE2013           2D

 10  9  0  0  0  0  0  0  0  0999 V2000
    0.0000    0.0000    0.0000 P   0  0  0  0  0  0  0  0  0  0  0  0
   -1.2990   -0.7500    0.0000 O   0  0  0  0  0  0  0  0  0  0  0  0
   -0.7500    1.2990    0.0000 O   0  0  0  0  0  0  0  0  0  0  0  0
    0.7500   -1.2990    0.0000 O   0  0  0  0  0  0  0  0  0  0  0  0
    1.2990    0.7500    0.0000 C   0  0  0  0  0  0  0  0  0  0  0  0
    2.5980    0.0000    0.0000 P   0  0  0  0  0  0  0  0  0  0  0  0
    1.8480   -1.2990    0.0000 O   0  0  0  0  0  0  0  0  0  0  0  0
    3.3480    1.2990    0.0000 O   0  0  0  0  0  0  0  0  0  0  0  0
    3.8970   -0.7500    0.0000 O   0  0  0  0  0  0  0  0  0  0  0  0
    1.2990    2.2500    0.0000 O   0  0  0  0  0  0  0  0  0  0  0  0
  1  2  1  0  0  0  0
  1  3  1  0  0  0  0
  1  4  2  0  0  0  0
  1  5  1  0  0  0  0
  5  6  1  0  0  0  0
  5 10  1  0  0  0  0
  6  7  1  0  0  0  0
  6  8  1  0  0  0  0
  6  9  2  0  0  0  0
M  END
>  <Index>
1258

>  <ID>
HT2822

>  <class>
0

>  <apol>
18.634758

>  <ast_fraglike>
0

>  <ast_fraglike_ext>
0

>  <ast_violation>
2

>  <ast_violation_ext>
3

>  <a_acc>
7

>  <a_acid>
0

>  <a_aro>
0

>  <a_base>
0

>  <a_count>
16

>  <a_don>
7

>  <a_donacc>
14

>  <a_heavy>
10

>  <a_hyd>
1

>  <a_IC>
26.838741

>  <a_ICM>
1.6774213

>  <a_nB>
0

>  <a_nBr>
0

>  <a_nC>
1

>  <a_nCl>
0

>  <a_nF>
0

>  <a_nH>
6

>  <a_nI>
0

>  <a_nN>
0

>  <a_nO>
7

>  <a_nP>
2

>  <a_nS>
0

>  <balabanJ>
4.231132

>  <BCUT_PEOE_0>
-2.4090233

>  <BCUT_PEOE_1>
-0.69906938

>  <BCUT_PEOE_2>
0.8017

>  <BCUT_PEOE_3>
2.7090821

>  <BCUT_SLOGP_0>
-2.5053816

>  <BCUT_SLOGP_1>
-1.2321405

>  <BCUT_SLOGP_2>
0.52842987

>  <BCUT_SLOGP_3>
2.7555933

>  <BCUT_SMR_0>
-2.1920033

>  <BCUT_SMR_1>
-0.58708638

>  <BCUT_SMR_2>
0.85866898

>  <BCUT_SMR_3>
2.9114199

>  <bpol>
23.435242

>  <b_1rotN>
2

>  <b_1rotR>
0.22222222

>  <b_ar>
0

>  <b_count>
15

>  <b_double>
0

>  <b_heavy>
9

>  <b_max1len>
6

>  <b_rotN>
2

>  <b_rotR>
0.22222222

>  <b_single>
15

>  <b_triple>
0

>  <chi0>
8.5773506

>  <chi0v>
6.3131962

>  <chi0v_C>
0.57735026

>  <chi0_C>
0.57735026

>  <chi1>
4.1547008

>  <chi1v>
5.3028374

>  <chi1v_C>
0

>  <chi1_C>
0

>  <chiral>
0

>  <chiral_u>
0

>  <density>
1.2554777

>  <diameter>
4

>  <FCharge>
0

>  <GCUT_PEOE_0>
-0.72673303

>  <GCUT_PEOE_1>
-0.44313276

>  <GCUT_PEOE_2>
0.27156046

>  <GCUT_PEOE_3>
2.1065631

>  <GCUT_SLOGP_0>
-1.3054259

>  <GCUT_SLOGP_1>
-0.74829686

>  <GCUT_SLOGP_2>
0.0067596338

>  <GCUT_SLOGP_3>
2.1387994

>  <GCUT_SMR_0>
-0.46630797

>  <GCUT_SMR_1>
-0.2769036

>  <GCUT_SMR_2>
0.28929505

>  <GCUT_SMR_3>
2.3148601

>  <Kier1>
10

>  <Kier2>
2.5599999

>  <Kier3>
3.1111112

>  <KierA1>
13.931818

>  <KierA2>
3.7033246

>  <KierA3>
4.6392779

>  <KierFlex>
5.1594048

>  <lip_acc>
7

>  <lip_don>
5

>  <lip_druglike>
1

>  <lip_violation>
0

>  <logP(o/w)>
-3.4530001

>  <logS>
2.51455

>  <mr>
3.1979933

>  <mutagenic>
0

>  <nmol>
1

>  <opr_brigid>
0

>  <opr_leadlike>
1

>  <opr_nring>
0

>  <opr_nrot>
2

>  <opr_violation>
1

>  <PC+>
0

>  <PC->
0

>  <PEOE_PC+>
2.0596795

>  <PEOE_PC->
-2.0596795

>  <PEOE_RPC+>
0.17217126

>  <PEOE_RPC->
0.16219224

>  <PEOE_VSA+0>
0

>  <PEOE_VSA+1>
0

>  <PEOE_VSA+2>
41.296692

>  <PEOE_VSA+3>
4.2653861

>  <PEOE_VSA+4>
10.324173

>  <PEOE_VSA+5>
0

>  <PEOE_VSA+6>
35.279953

>  <PEOE_VSA-0>
0

>  <PEOE_VSA-1>
0

>  <PEOE_VSA-2>
0

>  <PEOE_VSA-3>
0

>  <PEOE_VSA-4>
31.458273

>  <PEOE_VSA-5>
0

>  <PEOE_VSA-6>
47.486565

>  <PEOE_VSA_FHYD>
0.26783729

>  <PEOE_VSA_FNEG>
0.46407828

>  <PEOE_VSA_FPNEG>
0.46407828

>  <PEOE_VSA_FPOL>
0.73216271

>  <PEOE_VSA_FPOS>
0.53592175

>  <PEOE_VSA_FPPOS>
0.26808444

>  <PEOE_VSA_HYD>
45.562077

>  <PEOE_VSA_NEG>
78.944839

>  <PEOE_VSA_PNEG>
78.944839

>  <PEOE_VSA_POL>
124.54896

>  <PEOE_VSA_POS>
91.166199

>  <PEOE_VSA_PPOS>
45.604126

>  <petitjean>
0.5

>  <petitjeanSC>
1

>  <Q_PC+>
0

>  <Q_PC->
0

>  <Q_RPC+>
0

>  <Q_RPC->
0

>  <Q_VSA_FHYD>
1

>  <Q_VSA_FNEG>
0

>  <Q_VSA_FPNEG>
0

>  <Q_VSA_FPOL>
0

>  <Q_VSA_FPOS>
1

>  <Q_VSA_FPPOS>
0

>  <Q_VSA_HYD>
170.11104

>  <Q_VSA_NEG>
0

>  <Q_VSA_PNEG>
0

>  <Q_VSA_POL>
0

>  <Q_VSA_POS>
170.11104

>  <Q_VSA_PPOS>
0

>  <radius>
2

>  <reactive>
1

>  <rings>
0

>  <RPC+>
0

>  <RPC->
0

>  <rsynth>
1

>  <SlogP>
-3.5227001

>  <SlogP_VSA0>
155.48064

>  <SlogP_VSA1>
0

>  <SlogP_VSA2>
0.81031972

>  <SlogP_VSA3>
0

>  <SlogP_VSA4>
0

>  <SlogP_VSA5>
0

>  <SlogP_VSA6>
0

>  <SlogP_VSA7>
0

>  <SlogP_VSA8>
0

>  <SlogP_VSA9>
29.598944

>  <SMR>
2.8722

>  <SMR_VSA0>
44.867531

>  <SMR_VSA1>
110.6131

>  <SMR_VSA2>
0

>  <SMR_VSA3>
0.81031972

>  <SMR_VSA4>
0

>  <SMR_VSA5>
0

>  <SMR_VSA6>
0

>  <SMR_VSA7>
29.598944

>  <TPSA>
135.28999

>  <VAdjEq>
0.68007702

>  <VAdjMa>
4.1699252

>  <VDistEq>
1.9655962

>  <VDistMa>
6.361455

>  <vdw_area>
170.11104

>  <vdw_vol>
152.92984

>  <vsa_acc>
0

>  <vsa_acid>
0

>  <vsa_base>
0

>  <vsa_don>
0

>  <vsa_hyd>
11.499545

>  <vsa_other>
27.333998

>  <vsa_pol>
107.94174

>  <Weight>
192

>  <weinerPath>
111

>  <weinerPol>
12

>  <zagreb>
48

$$$$