O(C(COC(=O)C)COC(=O)C)C(=O)C
  MOE2013           2D

 15 14  0  0  0  0  0  0  0  0999 V2000
    0.0000    0.0000    0.0000 O   0  0  0  0  0  0  0  0  0  0  0  0
   -0.0050   -1.5000    0.0000 C   0  0  0  0  0  0  0  0  0  0  0  0
    1.2920   -2.2540    0.0000 C   0  0  0  0  0  0  0  0  0  0  0  0
    2.5930   -1.5080    0.0000 O   0  0  0  0  0  0  0  0  0  0  0  0
    3.8900   -2.2620    0.0000 C   0  0  0  0  0  0  0  0  0  0  0  0
    3.8850   -3.7620    0.0000 O   0  0  0  0  0  0  0  0  0  0  0  0
    5.1910   -1.5160    0.0000 C   0  0  0  0  0  0  0  0  0  0  0  0
   -1.3060   -2.2460    0.0000 C   0  0  0  0  0  0  0  0  0  0  0  0
   -1.3110   -3.7460    0.0000 O   0  0  0  0  0  0  0  0  0  0  0  0
   -2.6120   -4.4920    0.0000 C   0  0  0  0  0  0  0  0  0  0  0  0
   -2.6170   -5.9920    0.0000 O   0  0  0  0  0  0  0  0  0  0  0  0
   -3.9090   -3.7380    0.0000 C   0  0  0  0  0  0  0  0  0  0  0  0
   -1.2970    0.7540    0.0000 C   0  0  0  0  0  0  0  0  0  0  0  0
   -2.5980    0.0080    0.0000 O   0  0  0  0  0  0  0  0  0  0  0  0
   -1.2920    2.2540    0.0000 C   0  0  0  0  0  0  0  0  0  0  0  0
  1  2  1  0  0  0  0
  1 13  1  0  0  0  0
  2  3  1  0  0  0  0
  2  8  1  0  0  0  0
  3  4  1  0  0  0  0
  4  5  1  0  0  0  0
  5  6  2  0  0  0  0
  5  7  1  0  0  0  0
  8  9  1  0  0  0  0
  9 10  1  0  0  0  0
 10 11  2  0  0  0  0
 10 12  1  0  0  0  0
 13 14  2  0  0  0  0
 13 15  1  0  0  0  0
M  END
>  <Index>
1269

>  <ID>
HT2941

>  <class>
0

>  <apol>
29.987103

>  <ast_fraglike>
1

>  <ast_fraglike_ext>
0

>  <ast_violation>
0

>  <ast_violation_ext>
1

>  <a_acc>
3

>  <a_acid>
0

>  <a_aro>
0

>  <a_base>
0

>  <a_count>
29

>  <a_don>
0

>  <a_donacc>
3

>  <a_heavy>
15

>  <a_hyd>
6

>  <a_IC>
43.539379

>  <a_ICM>
1.5013579

>  <a_nB>
0

>  <a_nBr>
0

>  <a_nC>
9

>  <a_nCl>
0

>  <a_nF>
0

>  <a_nH>
14

>  <a_nI>
0

>  <a_nN>
0

>  <a_nO>
6

>  <a_nP>
0

>  <a_nS>
0

>  <balabanJ>
3.8478408

>  <BCUT_PEOE_0>
-2.5154035

>  <BCUT_PEOE_1>
-0.23169124

>  <BCUT_PEOE_2>
0.059266716

>  <BCUT_PEOE_3>
2.5797958

>  <BCUT_SLOGP_0>
-2.6705403

>  <BCUT_SLOGP_1>
-0.090852737

>  <BCUT_SLOGP_2>
0.123

>  <BCUT_SLOGP_3>
2.4262562

>  <BCUT_SMR_0>
-2.3097341

>  <BCUT_SMR_1>
0.047294103

>  <BCUT_SMR_2>
0.1057

>  <BCUT_SMR_3>
2.7766104

>  <bpol>
23.926897

>  <b_1rotN>
5

>  <b_1rotR>
0.35714287

>  <b_ar>
0

>  <b_count>
28

>  <b_double>
3

>  <b_heavy>
14

>  <b_max1len>
4

>  <b_rotN>
8

>  <b_rotR>
0.5714286

>  <b_single>
25

>  <b_triple>
0

>  <chi0>
11.844935

>  <chi0v>
8.9410534

>  <chi0v_C>
6.4915638

>  <chi0_C>
6.7236147

>  <chi1>
6.9135914

>  <chi1v>
4.3542938

>  <chi1v_C>
2.3164966

>  <chi1_C>
2.5485475

>  <chiral>
0

>  <chiral_u>
0

>  <density>
0.81032962

>  <diameter>
8

>  <FCharge>
0

>  <GCUT_PEOE_0>
-0.74646509

>  <GCUT_PEOE_1>
-0.40816948

>  <GCUT_PEOE_2>
-0.10073329

>  <GCUT_PEOE_3>
2.2724054

>  <GCUT_SLOGP_0>
-0.91437173

>  <GCUT_SLOGP_1>
-0.27908739

>  <GCUT_SLOGP_2>
-0.037

>  <GCUT_SLOGP_3>
2.1874278

>  <GCUT_SMR_0>
-0.51518989

>  <GCUT_SMR_1>
-0.13355391

>  <GCUT_SMR_2>
-0.054299999

>  <GCUT_SMR_3>
2.471065

>  <Kier1>
15

>  <Kier2>
8.1868515

>  <Kier3>
10.285714

>  <KierA1>
12.345413

>  <KierA2>
6.6365781

>  <KierA3>
8.2349539

>  <KierFlex>
5.4620862

>  <lip_acc>
6

>  <lip_don>
0

>  <lip_druglike>
1

>  <lip_violation>
0

>  <logP(o/w)>
-0.40052

>  <logS>
-0.83713001

>  <mr>
5.1664166

>  <mutagenic>
0

>  <nmol>
1

>  <opr_brigid>
0

>  <opr_leadlike>
1

>  <opr_nring>
0

>  <opr_nrot>
5

>  <opr_violation>
0

>  <PC+>
0

>  <PC->
0

>  <PEOE_PC+>
1.728706

>  <PEOE_PC->
-1.728706

>  <PEOE_RPC+>
0.15007487

>  <PEOE_RPC->
0.1808981

>  <PEOE_VSA+0>
94.631508

>  <PEOE_VSA+1>
51.229515

>  <PEOE_VSA+2>
4.9049287

>  <PEOE_VSA+3>
0

>  <PEOE_VSA+4>
0

>  <PEOE_VSA+5>
44.125496

>  <PEOE_VSA+6>
0

>  <PEOE_VSA-0>
0

>  <PEOE_VSA-1>
0

>  <PEOE_VSA-2>
0

>  <PEOE_VSA-3>
0

>  <PEOE_VSA-4>
0

>  <PEOE_VSA-5>
40.700764

>  <PEOE_VSA-6>
7.5112681

>  <PEOE_VSA_FHYD>
0.6201719

>  <PEOE_VSA_FNEG>
0.19831897

>  <PEOE_VSA_FPNEG>
0.19831897

>  <PEOE_VSA_FPOL>
0.3798281

>  <PEOE_VSA_FPOS>
0.80168104

>  <PEOE_VSA_FPPOS>
0.18150912

>  <PEOE_VSA_HYD>
150.76595

>  <PEOE_VSA_NEG>
48.212032

>  <PEOE_VSA_PNEG>
48.212032

>  <PEOE_VSA_POL>
92.337532

>  <PEOE_VSA_POS>
194.89145

>  <PEOE_VSA_PPOS>
44.125496

>  <petitjean>
0.5

>  <petitjeanSC>
1

>  <Q_PC+>
0

>  <Q_PC->
0

>  <Q_RPC+>
0

>  <Q_RPC->
0

>  <Q_VSA_FHYD>
1

>  <Q_VSA_FNEG>
0

>  <Q_VSA_FPNEG>
0

>  <Q_VSA_FPOL>
0

>  <Q_VSA_FPOS>
1

>  <Q_VSA_FPPOS>
0

>  <Q_VSA_HYD>
243.10349

>  <Q_VSA_NEG>
0

>  <Q_VSA_PNEG>
0

>  <Q_VSA_POL>
0

>  <Q_VSA_POS>
243.10349

>  <Q_VSA_PPOS>
0

>  <radius>
4

>  <reactive>
0

>  <rings>
0

>  <RPC+>
0

>  <RPC->
0

>  <rsynth>
1

>  <SlogP>
0.044300001

>  <SlogP_VSA0>
0

>  <SlogP_VSA1>
23.236393

>  <SlogP_VSA2>
111.05496

>  <SlogP_VSA3>
41.852516

>  <SlogP_VSA4>
0

>  <SlogP_VSA5>
0

>  <SlogP_VSA6>
0

>  <SlogP_VSA7>
0

>  <SlogP_VSA8>
0

>  <SlogP_VSA9>
99.978043

>  <SMR>
4.882

>  <SMR_VSA0>
104.58631

>  <SMR_VSA1>
0

>  <SMR_VSA2>
0

>  <SMR_VSA3>
6.4686494

>  <SMR_VSA4>
0

>  <SMR_VSA5>
0

>  <SMR_VSA6>
65.088913

>  <SMR_VSA7>
99.978043

>  <TPSA>
78.900002

>  <VAdjEq>
0.54200274

>  <VAdjMa>
4.8073549

>  <VDistEq>
2.9254699

>  <VDistMa>
7.5114875

>  <vdw_area>
243.10349

>  <vdw_vol>
269.27933

>  <vsa_acc>
40.700764

>  <vsa_acid>
0

>  <vsa_base>
0

>  <vsa_don>
0

>  <vsa_hyd>
140.80081

>  <vsa_other>
51.636765

>  <vsa_pol>
40.700764

>  <Weight>
218.205

>  <weinerPath>
424

>  <weinerPol>
14

>  <zagreb>
62

$$$$