O1[C@H](CO)[C@@H](NN=N)C[C@@H]1N1C=C(C)C(=O)NC1=O
  MOE2013           2D

 19 20  0  0  1  0  0  0  0  0999 V2000
    0.0000    0.0000    0.0000 O   0  0  0  0  0  0  0  0  0  0  0  0
   -1.2850   -0.7740    0.0000 C   0  0  2  0  0  0  0  0  0  0  0  0
   -2.6660   -0.1900    0.0000 C   0  0  0  0  0  0  0  0  0  0  0  0
   -2.8510    1.2990    0.0000 O   0  0  0  0  0  0  0  0  0  0  0  0
   -0.9460   -2.2350    0.0000 C   0  0  1  0  0  0  0  0  0  0  0  0
   -1.9280   -3.3680    0.0000 N   0  0  0  0  0  0  0  0  0  0  0  0
   -1.4380   -4.7860    0.0000 N   0  0  0  0  0  0  0  0  0  0  0  0
   -2.4210   -5.9190    0.0000 N   0  0  0  0  0  0  0  0  0  0  0  0
    0.5490   -2.3640    0.0000 C   0  0  0  0  0  0  0  0  0  0  0  0
    1.1330   -0.9830    0.0000 C   0  0  2  0  0  0  0  0  0  0  0  0
    2.5940   -0.6440    0.0000 N   0  0  0  0  0  0  0  0  0  0  0  0
    3.6190   -1.7390    0.0000 C   0  0  0  0  0  0  0  0  0  0  0  0
    5.0800   -1.4000    0.0000 C   0  0  0  0  0  0  0  0  0  0  0  0
    6.1040   -2.4960    0.0000 C   0  0  0  0  0  0  0  0  0  0  0  0
    5.5170    0.0350    0.0000 C   0  0  0  0  0  0  0  0  0  0  0  0
    6.9780    0.3740    0.0000 O   0  0  0  0  0  0  0  0  0  0  0  0
    4.4920    1.1310    0.0000 N   0  0  0  0  0  0  0  0  0  0  0  0
    3.0310    0.7910    0.0000 C   0  0  0  0  0  0  0  0  0  0  0  0
    2.0070    1.8870    0.0000 O   0  0  0  0  0  0  0  0  0  0  0  0
  1  2  1  0  0  0  0
  1 10  1  0  0  0  0
  2  3  1  1  0  0  0
  2  5  1  0  0  0  0
  3  4  1  0  0  0  0
  5  6  1  6  0  0  0
  5  9  1  0  0  0  0
  6  7  1  0  0  0  0
  7  8  2  0  0  0  0
  9 10  1  0  0  0  0
 10 11  1  1  0  0  0
 11 12  1  0  0  0  0
 11 18  1  0  0  0  0
 12 13  2  0  0  0  0
 13 14  1  0  0  0  0
 13 15  1  0  0  0  0
 15 16  2  0  0  0  0
 15 17  1  0  0  0  0
 17 18  1  0  0  0  0
 18 19  2  0  0  0  0
M  END
>  <Index>
1163

>  <ID>
HT2212

>  <class>
0

>  <apol>
36.309895

>  <ast_fraglike>
0

>  <ast_fraglike_ext>
0

>  <ast_violation>
2

>  <ast_violation_ext>
4

>  <a_acc>
6

>  <a_acid>
0

>  <a_aro>
0

>  <a_base>
0

>  <a_count>
34

>  <a_don>
4

>  <a_donacc>
10

>  <a_heavy>
19

>  <a_hyd>
7

>  <a_IC>
61.541458

>  <a_ICM>
1.8100429

>  <a_nB>
0

>  <a_nBr>
0

>  <a_nC>
10

>  <a_nCl>
0

>  <a_nF>
0

>  <a_nH>
15

>  <a_nI>
0

>  <a_nN>
5

>  <a_nO>
4

>  <a_nP>
0

>  <a_nS>
0

>  <balabanJ>
1.9860629

>  <BCUT_PEOE_0>
-2.5554717

>  <BCUT_PEOE_1>
-0.53256506

>  <BCUT_PEOE_2>
0.57967073

>  <BCUT_PEOE_3>
2.765877

>  <BCUT_SLOGP_0>
-2.7379327

>  <BCUT_SLOGP_1>
-0.52554548

>  <BCUT_SLOGP_2>
0.59238398

>  <BCUT_SLOGP_3>
2.643924

>  <BCUT_SMR_0>
-2.3367603

>  <BCUT_SMR_1>
-0.41957337

>  <BCUT_SMR_2>
0.66669917

>  <BCUT_SMR_3>
2.9817412

>  <bpol>
22.210106

>  <b_1rotN>
4

>  <b_1rotR>
0.2

>  <b_ar>
0

>  <b_count>
35

>  <b_double>
4

>  <b_heavy>
20

>  <b_max1len>
4

>  <b_rotN>
4

>  <b_rotR>
0.2

>  <b_single>
31

>  <b_triple>
0

>  <chi0>
13.991199

>  <chi0v>
10.29

>  <chi0v_C>
6.2236147

>  <chi0_C>
6.585422

>  <chi1>
9.0620804

>  <chi1v>
5.768527

>  <chi1v_C>
2.5967534

>  <chi1_C>
2.8770101

>  <chiral>
3

>  <chiral_u>
0

>  <density>
0.84652501

>  <diameter>
10

>  <FCharge>
0

>  <GCUT_PEOE_0>
-0.82310057

>  <GCUT_PEOE_1>
-0.44422829

>  <GCUT_PEOE_2>
0.10638117

>  <GCUT_PEOE_3>
2.6040483

>  <GCUT_SLOGP_0>
-1.1700083

>  <GCUT_SLOGP_1>
-0.41700929

>  <GCUT_SLOGP_2>
0.10835933

>  <GCUT_SLOGP_3>
2.5295691

>  <GCUT_SMR_0>
-0.52295804

>  <GCUT_SMR_1>
-0.23156521

>  <GCUT_SMR_2>
0.15954232

>  <GCUT_SMR_3>
2.8273816

>  <Kier1>
15.39

>  <Kier2>
6.6352043

>  <Kier3>
3.3659606

>  <KierA1>
11.470364

>  <KierA2>
4.8575802

>  <KierA3>
2.4298646

>  <KierFlex>
2.9325373

>  <lip_acc>
9

>  <lip_don>
4

>  <lip_druglike>
1

>  <lip_violation>
0

>  <logP(o/w)>
-2.5999999

>  <logS>
-0.33814999

>  <mr>
6.3541088

>  <mutagenic>
1

>  <nmol>
1

>  <opr_brigid>
12

>  <opr_leadlike>
1

>  <opr_nring>
2

>  <opr_nrot>
5

>  <opr_violation>
1

>  <PC+>
0

>  <PC->
0

>  <PEOE_PC+>
2.3881547

>  <PEOE_PC->
-2.3881547

>  <PEOE_RPC+>
0.13874055

>  <PEOE_RPC->
0.16430463

>  <PEOE_VSA+0>
48.982697

>  <PEOE_VSA+1>
43.689571

>  <PEOE_VSA+2>
14.300869

>  <PEOE_VSA+3>
17.238026

>  <PEOE_VSA+4>
18.943186

>  <PEOE_VSA+5>
12.949531

>  <PEOE_VSA+6>
17.440542

>  <PEOE_VSA-0>
18.747677

>  <PEOE_VSA-1>
13.159503

>  <PEOE_VSA-2>
0

>  <PEOE_VSA-3>
15.935268

>  <PEOE_VSA-4>
13.566921

>  <PEOE_VSA-5>
17.579166

>  <PEOE_VSA-6>
10.271297

>  <PEOE_VSA_FHYD>
0.65468353

>  <PEOE_VSA_FNEG>
0.33964378

>  <PEOE_VSA_FPNEG>
0.15759784

>  <PEOE_VSA_FPOL>
0.3453165

>  <PEOE_VSA_FPOS>
0.66035622

>  <PEOE_VSA_FPPOS>
0.18771864

>  <PEOE_VSA_HYD>
172.05362

>  <PEOE_VSA_NEG>
89.259834

>  <PEOE_VSA_PNEG>
41.417385

>  <PEOE_VSA_POL>
90.750641

>  <PEOE_VSA_POS>
173.54442

>  <PEOE_VSA_PPOS>
49.33326

>  <petitjean>
0.5

>  <petitjeanSC>
1

>  <Q_PC+>
0

>  <Q_PC->
0

>  <Q_RPC+>
0

>  <Q_RPC->
0

>  <Q_VSA_FHYD>
1

>  <Q_VSA_FNEG>
0

>  <Q_VSA_FPNEG>
0

>  <Q_VSA_FPOL>
0

>  <Q_VSA_FPOS>
1

>  <Q_VSA_FPPOS>
0

>  <Q_VSA_HYD>
262.80426

>  <Q_VSA_NEG>
0

>  <Q_VSA_PNEG>
0

>  <Q_VSA_POL>
0

>  <Q_VSA_POS>
262.80426

>  <Q_VSA_PPOS>
0

>  <radius>
5

>  <reactive>
0

>  <rings>
2

>  <RPC+>
0

>  <RPC->
0

>  <rsynth>
1

>  <SlogP>
-0.54653001

>  <SlogP_VSA0>
61.284206

>  <SlogP_VSA1>
13.213054

>  <SlogP_VSA2>
51.352543

>  <SlogP_VSA3>
20.926258

>  <SlogP_VSA4>
0

>  <SlogP_VSA5>
19.726061

>  <SlogP_VSA6>
0

>  <SlogP_VSA7>
48.763802

>  <SlogP_VSA8>
18.868406

>  <SlogP_VSA9>
57.188232

>  <SMR>
6.1569901

>  <SMR_VSA0>
58.724319

>  <SMR_VSA1>
45.050026

>  <SMR_VSA2>
67.448425

>  <SMR_VSA3>
19.676014

>  <SMR_VSA4>
0

>  <SMR_VSA5>
36.082764

>  <SMR_VSA6>
31.014997

>  <SMR_VSA7>
33.326015

>  <TPSA>
127.11

>  <VAdjEq>
0.5023343

>  <VAdjMa>
5.321928

>  <VDistEq>
3.0486372

>  <VDistMa>
8.2065697

>  <vdw_area>
262.80426

>  <vdw_vol>
318.078

>  <vsa_acc>
42.7971

>  <vsa_acid>
0

>  <vsa_base>
0

>  <vsa_don>
15.103616

>  <vsa_hyd>
104.94154

>  <vsa_other>
43.339603

>  <vsa_pol>
92.948593

>  <Weight>
269.26099

>  <weinerPath>
701

>  <weinerPol>
29

>  <zagreb>
96

$$$$