Clc1cc(Cl)ccc1C(OCc1ccsc1Cl)Cn1ccnc1
  MOE2013           2D

 23 25  0  0  1  0  0  0  0  0999 V2000
    0.0000    0.0000    0.0000 Cl  0  0  0  0  0  0  0  0  0  0  0  0
    0.0030    1.5000    0.0000 C   0  0  0  0  0  0  0  0  0  0  0  0
    1.3030    2.2470    0.0000 C   0  0  0  0  0  0  0  0  0  0  0  0
    1.3060    3.7470    0.0000 C   0  0  0  0  0  0  0  0  0  0  0  0
    2.6070    4.4950    0.0000 Cl  0  0  0  0  0  0  0  0  0  0  0  0
    0.0090    4.5000    0.0000 C   0  0  0  0  0  0  0  0  0  0  0  0
   -1.2920    3.7530    0.0000 C   0  0  0  0  0  0  0  0  0  0  0  0
   -1.2950    2.2530    0.0000 C   0  0  0  0  0  0  0  0  0  0  0  0
   -2.5950    1.5050    0.0000 C   0  0  3  0  0  0  0  0  0  0  0  0
   -3.8930    2.2580    0.0000 O   0  0  0  0  0  0  0  0  0  0  0  0
   -3.8900    3.7580    0.0000 C   0  0  0  0  0  0  0  0  0  0  0  0
   -5.1870    4.5100    0.0000 C   0  0  0  0  0  0  0  0  0  0  0  0
   -6.5590    3.9030    0.0000 C   0  0  0  0  0  0  0  0  0  0  0  0
   -7.5600    5.0190    0.0000 C   0  0  0  0  0  0  0  0  0  0  0  0
   -6.8080    6.3170    0.0000 S   0  0  0  0  0  0  0  0  0  0  0  0
   -5.3410    6.0020    0.0000 C   0  0  0  0  0  0  0  0  0  0  0  0
   -4.2250    7.0040    0.0000 Cl  0  0  0  0  0  0  0  0  0  0  0  0
   -2.5980    0.0050    0.0000 C   0  0  0  0  0  0  0  0  0  0  0  0
   -3.8990   -0.7420    0.0000 N   0  0  0  0  0  0  0  0  0  0  0  0
   -5.2680   -0.1300    0.0000 C   0  0  0  0  0  0  0  0  0  0  0  0
   -6.2740   -1.2420    0.0000 C   0  0  0  0  0  0  0  0  0  0  0  0
   -5.5260   -2.5430    0.0000 N   0  0  0  0  0  0  0  0  0  0  0  0
   -4.0580   -2.2340    0.0000 C   0  0  0  0  0  0  0  0  0  0  0  0
  1  2  1  0  0  0  0
  2  3  1  0  0  0  0
  2  8  2  0  0  0  0
  3  4  2  0  0  0  0
  4  5  1  0  0  0  0
  4  6  1  0  0  0  0
  6  7  2  0  0  0  0
  7  8  1  0  0  0  0
  8  9  1  0  0  0  0
  9 10  1  0  0  0  0
  9 18  1  0  0  0  0
 10 11  1  0  0  0  0
 11 12  1  0  0  0  0
 12 13  1  0  0  0  0
 12 16  2  0  0  0  0
 13 14  2  0  0  0  0
 14 15  1  0  0  0  0
 15 16  1  0  0  0  0
 16 17  1  0  0  0  0
 18 19  1  0  0  0  0
 19 20  1  0  0  0  0
 19 23  1  0  0  0  0
 20 21  2  0  0  0  0
 21 22  1  0  0  0  0
 22 23  2  0  0  0  0
M  END
>  <Index>
1078

>  <ID>
HT2066

>  <class>
0

>  <apol>
49.270309

>  <ast_fraglike>
0

>  <ast_fraglike_ext>
0

>  <ast_violation>
2

>  <ast_violation_ext>
3

>  <a_acc>
2

>  <a_acid>
0

>  <a_aro>
16

>  <a_base>
0

>  <a_count>
36

>  <a_don>
0

>  <a_donacc>
2

>  <a_heavy>
23

>  <a_hyd>
19

>  <a_IC>
67.256699

>  <a_ICM>
1.8682415

>  <a_nB>
0

>  <a_nBr>
0

>  <a_nC>
16

>  <a_nCl>
3

>  <a_nF>
0

>  <a_nH>
13

>  <a_nI>
0

>  <a_nN>
2

>  <a_nO>
1

>  <a_nP>
0

>  <a_nS>
1

>  <balabanJ>
1.5821719

>  <BCUT_PEOE_0>
-2.510916

>  <BCUT_PEOE_1>
-0.66623372

>  <BCUT_PEOE_2>
0.74772561

>  <BCUT_PEOE_3>
2.5054314

>  <BCUT_SLOGP_0>
-2.3741608

>  <BCUT_SLOGP_1>
-0.47563681

>  <BCUT_SLOGP_2>
0.95310003

>  <BCUT_SLOGP_3>
2.6482008

>  <BCUT_SMR_0>
-2.2539632

>  <BCUT_SMR_1>
-0.44745141

>  <BCUT_SMR_2>
0.98987436

>  <BCUT_SMR_3>
2.758913

>  <bpol>
22.967691

>  <b_1rotN>
6

>  <b_1rotR>
0.23999999

>  <b_ar>
16

>  <b_count>
38

>  <b_double>
0

>  <b_heavy>
25

>  <b_max1len>
5

>  <b_rotN>
6

>  <b_rotR>
0.23999999

>  <b_single>
22

>  <b_triple>
0

>  <chi0>
16.233841

>  <chi0v>
15.039467

>  <chi0v_C>
9.1103659

>  <chi0_C>
10.53517

>  <chi1>
11.13103

>  <chi1v>
8.8875723

>  <chi1v_C>
3.9938524

>  <chi1_C>
5.357738

>  <chiral>
1

>  <chiral_u>
1

>  <density>
0.8894015

>  <diameter>
10

>  <FCharge>
0

>  <GCUT_PEOE_0>
-0.85164905

>  <GCUT_PEOE_1>
-0.38699213

>  <GCUT_PEOE_2>
0.09983737

>  <GCUT_PEOE_3>
2.4949548

>  <GCUT_SLOGP_0>
-0.80749929

>  <GCUT_SLOGP_1>
-0.25179797

>  <GCUT_SLOGP_2>
0.30876854

>  <GCUT_SLOGP_3>
2.664681

>  <GCUT_SMR_0>
-0.50830966

>  <GCUT_SMR_1>
-0.16971199

>  <GCUT_SMR_2>
0.36800459

>  <GCUT_SMR_3>
2.7819307

>  <Kier1>
17.811199

>  <Kier2>
8.3927336

>  <Kier3>
4.7593293

>  <KierA1>
17.425411

>  <KierA2>
8.2024832

>  <KierA3>
4.6478195

>  <KierFlex>
6.2144194

>  <lip_acc>
3

>  <lip_don>
0

>  <lip_druglike>
1

>  <lip_violation>
1

>  <logP(o/w)>
5.3189998

>  <logS>
-5.7294302

>  <mr>
9.9190178

>  <mutagenic>
0

>  <nmol>
1

>  <opr_brigid>
16

>  <opr_leadlike>
1

>  <opr_nring>
3

>  <opr_nrot>
6

>  <opr_violation>
1

>  <PC+>
0

>  <PC->
0

>  <PEOE_PC+>
1.5225469

>  <PEOE_PC->
-1.5225469

>  <PEOE_RPC+>
0.11205074

>  <PEOE_RPC->
0.2400974

>  <PEOE_VSA+0>
49.005249

>  <PEOE_VSA+1>
96.299789

>  <PEOE_VSA+2>
9.1703148

>  <PEOE_VSA+3>
19.760618

>  <PEOE_VSA+4>
0

>  <PEOE_VSA+5>
0

>  <PEOE_VSA+6>
0

>  <PEOE_VSA-0>
33.214157

>  <PEOE_VSA-1>
113.25565

>  <PEOE_VSA-2>
14.230966

>  <PEOE_VSA-3>
0

>  <PEOE_VSA-4>
5.6825762

>  <PEOE_VSA-5>
0

>  <PEOE_VSA-6>
2.503756

>  <PEOE_VSA_FHYD>
0.97614169

>  <PEOE_VSA_FNEG>
0.49220562

>  <PEOE_VSA_FPNEG>
0.023858298

>  <PEOE_VSA_FPOL>
0.023858298

>  <PEOE_VSA_FPOS>
0.50779438

>  <PEOE_VSA_FPPOS>
0

>  <PEOE_VSA_HYD>
334.93674

>  <PEOE_VSA_NEG>
168.8871

>  <PEOE_VSA_PNEG>
8.1863317

>  <PEOE_VSA_POL>
8.1863317

>  <PEOE_VSA_POS>
174.23598

>  <PEOE_VSA_PPOS>
0

>  <petitjean>
0.5

>  <petitjeanSC>
1

>  <Q_PC+>
0

>  <Q_PC->
0

>  <Q_RPC+>
0

>  <Q_RPC->
0

>  <Q_VSA_FHYD>
1

>  <Q_VSA_FNEG>
0

>  <Q_VSA_FPNEG>
0

>  <Q_VSA_FPOL>
0

>  <Q_VSA_FPOS>
1

>  <Q_VSA_FPPOS>
0

>  <Q_VSA_HYD>
343.12308

>  <Q_VSA_NEG>
0

>  <Q_VSA_PNEG>
0

>  <Q_VSA_POL>
0

>  <Q_VSA_POS>
343.12308

>  <Q_VSA_PPOS>
0

>  <radius>
5

>  <reactive>
0

>  <rings>
3

>  <RPC+>
0

>  <RPC->
0

>  <rsynth>
1

>  <SlogP>
6.4912

>  <SlogP_VSA0>
0

>  <SlogP_VSA1>
18.684622

>  <SlogP_VSA2>
10.999887

>  <SlogP_VSA3>
0

>  <SlogP_VSA4>
6.37115

>  <SlogP_VSA5>
0

>  <SlogP_VSA6>
8.6746454

>  <SlogP_VSA7>
137.603

>  <SlogP_VSA8>
6.4686494

>  <SlogP_VSA9>
188.08946

>  <SMR>
9.6069002

>  <SMR_VSA0>
10.999887

>  <SMR_VSA1>
18.684622

>  <SMR_VSA2>
0

>  <SMR_VSA3>
21.514444

>  <SMR_VSA4>
0

>  <SMR_VSA5>
176.96883

>  <SMR_VSA6>
0

>  <SMR_VSA7>
148.72362

>  <TPSA>
27.049999

>  <VAdjEq>
0.45137304

>  <VAdjMa>
5.643856

>  <VDistEq>
3.1873362

>  <VDistMa>
8.7786655

>  <vdw_area>
343.12308

>  <vdw_vol>
435.93134

>  <vsa_acc>
8.1863317

>  <vsa_acid>
0

>  <vsa_base>
0

>  <vsa_don>
0

>  <vsa_hyd>
300.89288

>  <vsa_other>
24.790518

>  <vsa_pol>
8.1863317

>  <Weight>
387.71799

>  <weinerPath>
1217

>  <weinerPol>
30

>  <zagreb>
118

$$$$