OC(=O)CCC(NC(=O)c1ccccc1)C(=O)N(CCC)CCC
  MOE2013           2D

 24 24  0  0  1  0  0  0  0  0999 V2000
    0.0000    0.0000    0.0000 O   0  0  0  0  0  0  0  0  0  0  0  0
    1.5000   -0.0010    0.0000 C   0  0  0  0  0  0  0  0  0  0  0  0
    2.2510    1.2980    0.0000 O   0  0  0  0  0  0  0  0  0  0  0  0
    2.2490   -1.3000    0.0000 C   0  0  0  0  0  0  0  0  0  0  0  0
    3.7490   -1.3010    0.0000 C   0  0  0  0  0  0  0  0  0  0  0  0
    4.4990   -2.6000    0.0000 C   0  0  3  0  0  0  0  0  0  0  0  0
    5.9990   -2.6010    0.0000 N   0  0  0  0  0  0  0  0  0  0  0  0
    6.7490   -1.3020    0.0000 C   0  0  0  0  0  0  0  0  0  0  0  0
    6.0000   -0.0030    0.0000 O   0  0  0  0  0  0  0  0  0  0  0  0
    8.2490   -1.3030    0.0000 C   0  0  0  0  0  0  0  0  0  0  0  0
    9.0000   -0.0040    0.0000 C   0  0  0  0  0  0  0  0  0  0  0  0
   10.5000   -0.0050    0.0000 C   0  0  0  0  0  0  0  0  0  0  0  0
   11.2490   -1.3040    0.0000 C   0  0  0  0  0  0  0  0  0  0  0  0
   10.4990   -2.6030    0.0000 C   0  0  0  0  0  0  0  0  0  0  0  0
    8.9990   -2.6020    0.0000 C   0  0  0  0  0  0  0  0  0  0  0  0
    3.7480   -3.8990    0.0000 C   0  0  0  0  0  0  0  0  0  0  0  0
    2.2480   -3.8980    0.0000 O   0  0  0  0  0  0  0  0  0  0  0  0
    4.4980   -5.1980    0.0000 N   0  0  0  0  0  0  0  0  0  0  0  0
    5.9980   -5.1990    0.0000 C   0  0  0  0  0  0  0  0  0  0  0  0
    6.7470   -6.4980    0.0000 C   0  0  0  0  0  0  0  0  0  0  0  0
    8.2470   -6.4990    0.0000 C   0  0  0  0  0  0  0  0  0  0  0  0
    3.7470   -6.4970    0.0000 C   0  0  0  0  0  0  0  0  0  0  0  0
    4.4960   -7.7960    0.0000 C   0  0  0  0  0  0  0  0  0  0  0  0
    3.7460   -9.0950    0.0000 C   0  0  0  0  0  0  0  0  0  0  0  0
  1  2  1  0  0  0  0
  2  3  2  0  0  0  0
  2  4  1  0  0  0  0
  4  5  1  0  0  0  0
  5  6  1  0  0  0  0
  6  7  1  0  0  0  0
  6 16  1  0  0  0  0
  7  8  1  0  0  0  0
  8  9  2  0  0  0  0
  8 10  1  0  0  0  0
 10 11  1  0  0  0  0
 10 15  2  0  0  0  0
 11 12  2  0  0  0  0
 12 13  1  0  0  0  0
 13 14  2  0  0  0  0
 14 15  1  0  0  0  0
 16 17  2  0  0  0  0
 16 18  1  0  0  0  0
 18 19  1  0  0  0  0
 18 22  1  0  0  0  0
 19 20  1  0  0  0  0
 20 21  1  0  0  0  0
 22 23  1  0  0  0  0
 23 24  1  0  0  0  0
M  END
>  <Index>
1342

>  <ID>
HT3527

>  <class>
0

>  <apol>
54.424618

>  <ast_fraglike>
0

>  <ast_fraglike_ext>
0

>  <ast_violation>
2

>  <ast_violation_ext>
3

>  <a_acc>
4

>  <a_acid>
0

>  <a_aro>
6

>  <a_base>
0

>  <a_count>
50

>  <a_don>
3

>  <a_donacc>
7

>  <a_heavy>
24

>  <a_hyd>
15

>  <a_IC>
74.922729

>  <a_ICM>
1.4984546

>  <a_nB>
0

>  <a_nBr>
0

>  <a_nC>
18

>  <a_nCl>
0

>  <a_nF>
0

>  <a_nH>
26

>  <a_nI>
0

>  <a_nN>
2

>  <a_nO>
4

>  <a_nP>
0

>  <a_nS>
0

>  <balabanJ>
2.6908305

>  <BCUT_PEOE_0>
-2.6749125

>  <BCUT_PEOE_1>
-0.5160414

>  <BCUT_PEOE_2>
0.54174554

>  <BCUT_PEOE_3>
2.6438072

>  <BCUT_SLOGP_0>
-2.7829194

>  <BCUT_SLOGP_1>
-0.47100857

>  <BCUT_SLOGP_2>
0.57100761

>  <BCUT_SLOGP_3>
2.6149147

>  <BCUT_SMR_0>
-2.4061232

>  <BCUT_SMR_1>
-0.36078471

>  <BCUT_SMR_2>
0.66226447

>  <BCUT_SMR_3>
2.8971319

>  <bpol>
33.937382

>  <b_1rotN>
11

>  <b_1rotR>
0.45833334

>  <b_ar>
6

>  <b_count>
50

>  <b_double>
3

>  <b_heavy>
24

>  <b_max1len>
8

>  <b_rotN>
12

>  <b_rotR>
0.5

>  <b_single>
41

>  <b_triple>
0

>  <chi0>
17.949383

>  <chi0v>
14.325914

>  <chi0v_C>
11.706742

>  <chi0_C>
12.664926

>  <chi1>
11.489601

>  <chi1v>
8.3560905

>  <chi1v_C>
6.1253738

>  <chi1_C>
7.2138734

>  <chiral>
1

>  <chiral_u>
1

>  <density>
0.71415395

>  <diameter>
11

>  <FCharge>
0

>  <GCUT_PEOE_0>
-0.85236669

>  <GCUT_PEOE_1>
-0.37707946

>  <GCUT_PEOE_2>
0.073750578

>  <GCUT_PEOE_3>
2.6937673

>  <GCUT_SLOGP_0>
-1.1620368

>  <GCUT_SLOGP_1>
-0.32491913

>  <GCUT_SLOGP_2>
0.10820389

>  <GCUT_SLOGP_3>
2.6723084

>  <GCUT_SMR_0>
-0.52522135

>  <GCUT_SMR_1>
-0.21280146

>  <GCUT_SMR_2>
0.18098782

>  <GCUT_SMR_3>
2.9317253

>  <Kier1>
22.041666

>  <Kier2>
12.368889

>  <Kier3>
8.297143

>  <KierA1>
16.796398

>  <KierA2>
9.3058052

>  <KierA3>
6.1851621

>  <KierFlex>
6.5126672

>  <lip_acc>
6

>  <lip_don>
2

>  <lip_druglike>
1

>  <lip_violation>
0

>  <logP(o/w)>
2.595

>  <logS>
-2.73508

>  <mr>
9.4133596

>  <mutagenic>
0

>  <nmol>
1

>  <opr_brigid>
6

>  <opr_leadlike>
1

>  <opr_nring>
1

>  <opr_nrot>
10

>  <opr_violation>
0

>  <PC+>
0

>  <PC->
0

>  <PEOE_PC+>
2.3170357

>  <PEOE_PC->
-2.3170357

>  <PEOE_RPC+>
0.11206874

>  <PEOE_RPC->
0.14699519

>  <PEOE_VSA+0>
114.07145

>  <PEOE_VSA+1>
25.592316

>  <PEOE_VSA+2>
3.1459606

>  <PEOE_VSA+3>
8.6190128

>  <PEOE_VSA+4>
23.273705

>  <PEOE_VSA+5>
27.65803

>  <PEOE_VSA+6>
0

>  <PEOE_VSA-0>
50.613747

>  <PEOE_VSA-1>
74.260063

>  <PEOE_VSA-2>
0

>  <PEOE_VSA-3>
0

>  <PEOE_VSA-4>
0

>  <PEOE_VSA-5>
40.700764

>  <PEOE_VSA-6>
7.9044313

>  <PEOE_VSA_FHYD>
0.73516107

>  <PEOE_VSA_FNEG>
0.46157739

>  <PEOE_VSA_FPNEG>
0.12932435

>  <PEOE_VSA_FPOL>
0.26483893

>  <PEOE_VSA_FPOS>
0.53842258

>  <PEOE_VSA_FPPOS>
0.13551459

>  <PEOE_VSA_HYD>
276.30255

>  <PEOE_VSA_NEG>
173.479

>  <PEOE_VSA_PNEG>
48.605194

>  <PEOE_VSA_POL>
99.536926

>  <PEOE_VSA_POS>
202.36047

>  <PEOE_VSA_PPOS>
50.931732

>  <petitjean>
0.45454547

>  <petitjeanSC>
0.83333331

>  <Q_PC+>
0

>  <Q_PC->
0

>  <Q_RPC+>
0

>  <Q_RPC->
0

>  <Q_VSA_FHYD>
1

>  <Q_VSA_FNEG>
0

>  <Q_VSA_FPNEG>
0

>  <Q_VSA_FPOL>
0

>  <Q_VSA_FPOS>
1

>  <Q_VSA_FPPOS>
0

>  <Q_VSA_HYD>
375.83948

>  <Q_VSA_NEG>
0

>  <Q_VSA_PNEG>
0

>  <Q_VSA_POL>
0

>  <Q_VSA_POS>
375.83948

>  <Q_VSA_PPOS>
0

>  <radius>
6

>  <reactive>
0

>  <rings>
1

>  <RPC+>
0

>  <RPC->
0

>  <rsynth>
1

>  <SlogP>
2.2983999

>  <SlogP_VSA0>
18.01075

>  <SlogP_VSA1>
21.387344

>  <SlogP_VSA2>
51.706402

>  <SlogP_VSA3>
62.264381

>  <SlogP_VSA4>
27.047791

>  <SlogP_VSA5>
0

>  <SlogP_VSA6>
0

>  <SlogP_VSA7>
88.215919

>  <SlogP_VSA8>
75.473625

>  <SlogP_VSA9>
66.652031

>  <SMR>
9.1728001

>  <SMR_VSA0>
71.586647

>  <SMR_VSA1>
3.1243138

>  <SMR_VSA2>
43.395977

>  <SMR_VSA3>
7.1675434

>  <SMR_VSA4>
0

>  <SMR_VSA5>
163.68954

>  <SMR_VSA6>
55.142189

>  <SMR_VSA7>
66.652031

>  <TPSA>
86.709999

>  <VAdjEq>
0.41381684

>  <VAdjMa>
5.5849624

>  <VDistEq>
3.2849662

>  <VDistMa>
8.9121704

>  <vdw_area>
375.83948

>  <vdw_vol>
468.26877

>  <vsa_acc>
27.133842

>  <vsa_acid>
0

>  <vsa_base>
0

>  <vsa_don>
5.6825762

>  <vsa_hyd>
250.60045

>  <vsa_other>
40.607563

>  <vsa_pol>
59.95026

>  <Weight>
334.41599

>  <weinerPath>
1404

>  <weinerPol>
32

>  <zagreb>
108

$$$$