S=C(N1CCOCC1)c1cc(OC)c(OC)c(OC)c1
  MOE2013           2D

 20 21  0  0  0  0  0  0  0  0999 V2000
    0.0000    0.0000    0.0000 S   0  0  0  0  0  0  0  0  0  0  0  0
   -0.7470    1.3010    0.0000 C   0  0  0  0  0  0  0  0  0  0  0  0
    0.0070    2.5980    0.0000 N   0  0  0  0  0  0  0  0  0  0  0  0
   -0.7400    3.8990    0.0000 C   0  0  0  0  0  0  0  0  0  0  0  0
    0.0130    5.1960    0.0000 C   0  0  0  0  0  0  0  0  0  0  0  0
    1.5130    5.1920    0.0000 O   0  0  0  0  0  0  0  0  0  0  0  0
    2.2600    3.8910    0.0000 C   0  0  0  0  0  0  0  0  0  0  0  0
    1.5070    2.5940    0.0000 C   0  0  0  0  0  0  0  0  0  0  0  0
   -2.2470    1.3050    0.0000 C   0  0  0  0  0  0  0  0  0  0  0  0
   -3.0000    0.0080    0.0000 C   0  0  0  0  0  0  0  0  0  0  0  0
   -4.5000    0.0110    0.0000 C   0  0  0  0  0  0  0  0  0  0  0  0
   -5.2530   -1.2860    0.0000 O   0  0  0  0  0  0  0  0  0  0  0  0
   -4.5070   -2.5870    0.0000 C   0  0  0  0  0  0  0  0  0  0  0  0
   -5.2470    1.3120    0.0000 C   0  0  0  0  0  0  0  0  0  0  0  0
   -6.7470    1.3160    0.0000 O   0  0  0  0  0  0  0  0  0  0  0  0
   -7.5000    0.0190    0.0000 C   0  0  0  0  0  0  0  0  0  0  0  0
   -4.4930    2.6090    0.0000 C   0  0  0  0  0  0  0  0  0  0  0  0
   -5.2400    3.9100    0.0000 O   0  0  0  0  0  0  0  0  0  0  0  0
   -4.4870    5.2080    0.0000 C   0  0  0  0  0  0  0  0  0  0  0  0
   -2.9930    2.6060    0.0000 C   0  0  0  0  0  0  0  0  0  0  0  0
  1  2  2  0  0  0  0
  2  3  1  0  0  0  0
  2  9  1  0  0  0  0
  3  4  1  0  0  0  0
  3  8  1  0  0  0  0
  4  5  1  0  0  0  0
  5  6  1  0  0  0  0
  6  7  1  0  0  0  0
  7  8  1  0  0  0  0
  9 10  1  0  0  0  0
  9 20  2  0  0  0  0
 10 11  2  0  0  0  0
 11 12  1  0  0  0  0
 11 14  1  0  0  0  0
 12 13  1  0  0  0  0
 14 15  1  0  0  0  0
 14 17  2  0  0  0  0
 15 16  1  0  0  0  0
 17 18  1  0  0  0  0
 17 20  1  0  0  0  0
 18 19  1  0  0  0  0
M  END
>  <Index>
1115

>  <ID>
HT2135

>  <class>
0

>  <apol>
44.517067

>  <ast_fraglike>
0

>  <ast_fraglike_ext>
0

>  <ast_violation>
1

>  <ast_violation_ext>
2

>  <a_acc>
5

>  <a_acid>
0

>  <a_aro>
6

>  <a_base>
0

>  <a_count>
39

>  <a_don>
0

>  <a_donacc>
5

>  <a_heavy>
20

>  <a_hyd>
13

>  <a_IC>
64.117096

>  <a_ICM>
1.6440281

>  <a_nB>
0

>  <a_nBr>
0

>  <a_nC>
14

>  <a_nCl>
0

>  <a_nF>
0

>  <a_nH>
19

>  <a_nI>
0

>  <a_nN>
1

>  <a_nO>
4

>  <a_nP>
0

>  <a_nS>
1

>  <balabanJ>
2.0099597

>  <BCUT_PEOE_0>
-2.668704

>  <BCUT_PEOE_1>
-0.29980144

>  <BCUT_PEOE_2>
0.14615054

>  <BCUT_PEOE_3>
2.5952375

>  <BCUT_SLOGP_0>
-2.7837594

>  <BCUT_SLOGP_1>
-0.18353607

>  <BCUT_SLOGP_2>
0.38579687

>  <BCUT_SLOGP_3>
2.5069382

>  <BCUT_SMR_0>
-2.3948884

>  <BCUT_SMR_1>
-0.01844875

>  <BCUT_SMR_2>
0.56321657

>  <BCUT_SMR_3>
2.8639295

>  <bpol>
31.554934

>  <b_1rotN>
5

>  <b_1rotR>
0.23809524

>  <b_ar>
6

>  <b_count>
40

>  <b_double>
1

>  <b_heavy>
21

>  <b_max1len>
2

>  <b_rotN>
5

>  <b_rotR>
0.23809524

>  <b_single>
33

>  <b_triple>
0

>  <chi0>
14.53517

>  <chi0v>
12.788079

>  <chi0v_C>
9.4831276

>  <chi0_C>
10.129392

>  <chi1>
9.7062387

>  <chi1v>
6.7876029

>  <chi1v_C>
2.9047005

>  <chi1_C>
3.6329932

>  <chiral>
0

>  <chiral_u>
0

>  <density>
0.77138233

>  <diameter>
10

>  <FCharge>
0

>  <GCUT_PEOE_0>
-0.83850479

>  <GCUT_PEOE_1>
-0.37818033

>  <GCUT_PEOE_2>
-0.10274491

>  <GCUT_PEOE_3>
2.5076833

>  <GCUT_SLOGP_0>
-0.96202958

>  <GCUT_SLOGP_1>
-0.30154252

>  <GCUT_SLOGP_2>
0.0052601811

>  <GCUT_SLOGP_3>
2.5900934

>  <GCUT_SMR_0>
-0.51167643

>  <GCUT_SMR_1>
-0.13236254

>  <GCUT_SMR_2>
0.086750507

>  <GCUT_SMR_3>
2.7957571

>  <Kier1>
16.371881

>  <Kier2>
7.8520408

>  <Kier3>
3.8144045

>  <KierA1>
14.585463

>  <KierA2>
6.9503579

>  <KierA3>
3.3605087

>  <KierFlex>
5.0687094

>  <lip_acc>
5

>  <lip_don>
0

>  <lip_druglike>
1

>  <lip_violation>
0

>  <logP(o/w)>
0.66948003

>  <logS>
-3.33954

>  <mr>
8.0003996

>  <mutagenic>
0

>  <nmol>
1

>  <opr_brigid>
12

>  <opr_leadlike>
1

>  <opr_nring>
2

>  <opr_nrot>
6

>  <opr_violation>
0

>  <PC+>
0

>  <PC->
0

>  <PEOE_PC+>
1.7819797

>  <PEOE_PC->
-1.7819797

>  <PEOE_RPC+>
0.076135427

>  <PEOE_RPC->
0.21168487

>  <PEOE_VSA+0>
118.43916

>  <PEOE_VSA+1>
93.883377

>  <PEOE_VSA+2>
56.760071

>  <PEOE_VSA+3>
0

>  <PEOE_VSA+4>
0

>  <PEOE_VSA+5>
0

>  <PEOE_VSA+6>
0

>  <PEOE_VSA-0>
35.393959

>  <PEOE_VSA-1>
0

>  <PEOE_VSA-2>
0

>  <PEOE_VSA-3>
0

>  <PEOE_VSA-4>
0

>  <PEOE_VSA-5>
0

>  <PEOE_VSA-6>
10.015024

>  <PEOE_VSA_FHYD>
0.96815485

>  <PEOE_VSA_FNEG>
0.14438854

>  <PEOE_VSA_FPNEG>
0.031845126

>  <PEOE_VSA_FPOL>
0.031845126

>  <PEOE_VSA_FPOS>
0.85561144

>  <PEOE_VSA_FPPOS>
0

>  <PEOE_VSA_HYD>
304.47656

>  <PEOE_VSA_NEG>
45.408985

>  <PEOE_VSA_PNEG>
10.015024

>  <PEOE_VSA_POL>
10.015024

>  <PEOE_VSA_POS>
269.08261

>  <PEOE_VSA_PPOS>
0

>  <petitjean>
0.5

>  <petitjeanSC>
1

>  <Q_PC+>
0

>  <Q_PC->
0

>  <Q_RPC+>
0

>  <Q_RPC->
0

>  <Q_VSA_FHYD>
1

>  <Q_VSA_FNEG>
0

>  <Q_VSA_FPNEG>
0

>  <Q_VSA_FPOL>
0

>  <Q_VSA_FPOS>
1

>  <Q_VSA_FPPOS>
0

>  <Q_VSA_HYD>
314.49161

>  <Q_VSA_NEG>
0

>  <Q_VSA_PNEG>
0

>  <Q_VSA_POL>
0

>  <Q_VSA_POS>
314.49161

>  <Q_VSA_PPOS>
0

>  <radius>
5

>  <reactive>
0

>  <rings>
2

>  <RPC+>
0

>  <RPC->
0

>  <rsynth>
1

>  <SlogP>
1.7201

>  <SlogP_VSA0>
32.999664

>  <SlogP_VSA1>
3.8376627

>  <SlogP_VSA2>
10.999887

>  <SlogP_VSA3>
78.731674

>  <SlogP_VSA4>
3.185575

>  <SlogP_VSA5>
106.1516

>  <SlogP_VSA6>
0

>  <SlogP_VSA7>
35.286369

>  <SlogP_VSA8>
0

>  <SlogP_VSA9>
60.922314

>  <SMR>
8.0191002

>  <SMR_VSA0>
10.999887

>  <SMR_VSA1>
36.123978

>  <SMR_VSA2>
0

>  <SMR_VSA3>
18.915859

>  <SMR_VSA4>
0

>  <SMR_VSA5>
35.286369

>  <SMR_VSA6>
79.445023

>  <SMR_VSA7>
151.34363

>  <TPSA>
72.25

>  <VAdjEq>
0.48464775

>  <VAdjMa>
5.3923173

>  <VDistEq>
3.0626729

>  <VDistMa>
8.3664455

>  <vdw_area>
314.49161

>  <vdw_vol>
385.50922

>  <vsa_acc>
41.399536

>  <vsa_acid>
0

>  <vsa_base>
0

>  <vsa_don>
0

>  <vsa_hyd>
250.89233

>  <vsa_other>
8.6756124

>  <vsa_pol>
41.399536

>  <Weight>
297.375

>  <weinerPath>
798

>  <weinerPol>
32

>  <zagreb>
98

$$$$