s1cc2c(N(c3c(NC2=O)cccc3)C(=O)CN2CCN(CC2)C)c1C
  MOE2013           2D

 26 29  0  0  0  0  0  0  0  0999 V2000
    0.0000    0.0000    0.0000 S   0  0  0  0  0  0  0  0  0  0  0  0
   -1.3960    0.5480    0.0000 C   0  0  0  0  0  0  0  0  0  0  0  0
   -1.3060    2.0460    0.0000 C   0  0  0  0  0  0  0  0  0  0  0  0
    0.1460    2.4230    0.0000 C   0  0  0  0  0  0  0  0  0  0  0  0
    0.7570    3.7930    0.0000 N   0  0  0  0  0  0  0  0  0  0  0  0
    0.0650    5.1240    0.0000 C   0  0  0  0  0  0  0  0  0  0  0  0
   -1.4070    5.4130    0.0000 C   0  0  0  0  0  0  0  0  0  0  0  0
   -2.5530    4.4440    0.0000 N   0  0  0  0  0  0  0  0  0  0  0  0
   -2.5070    2.9450    0.0000 C   0  0  0  0  0  0  0  0  0  0  0  0
   -3.8380    2.2530    0.0000 O   0  0  0  0  0  0  0  0  0  0  0  0
   -1.8920    6.8330    0.0000 C   0  0  0  0  0  0  0  0  0  0  0  0
   -0.9050    7.9620    0.0000 C   0  0  0  0  0  0  0  0  0  0  0  0
    0.5670    7.6730    0.0000 C   0  0  0  0  0  0  0  0  0  0  0  0
    1.0520    6.2530    0.0000 C   0  0  0  0  0  0  0  0  0  0  0  0
    2.2560    3.8370    0.0000 C   0  0  0  0  0  0  0  0  0  0  0  0
    3.0440    2.5610    0.0000 O   0  0  0  0  0  0  0  0  0  0  0  0
    2.9670    5.1580    0.0000 C   0  0  0  0  0  0  0  0  0  0  0  0
    4.4660    5.2030    0.0000 N   0  0  0  0  0  0  0  0  0  0  0  0
    5.1770    6.5240    0.0000 C   0  0  0  0  0  0  0  0  0  0  0  0
    6.6760    6.5690    0.0000 C   0  0  0  0  0  0  0  0  0  0  0  0
    7.4650    5.2920    0.0000 N   0  0  0  0  0  0  0  0  0  0  0  0
    6.7540    3.9720    0.0000 C   0  0  0  0  0  0  0  0  0  0  0  0
    5.2550    3.9270    0.0000 C   0  0  0  0  0  0  0  0  0  0  0  0
    8.9640    5.3370    0.0000 C   0  0  0  0  0  0  0  0  0  0  0  0
    0.9530    1.1580    0.0000 C   0  0  0  0  0  0  0  0  0  0  0  0
    2.4500    1.0680    0.0000 C   0  0  0  0  0  0  0  0  0  0  0  0
  1  2  1  0  0  0  0
  1 25  1  0  0  0  0
  2  3  2  0  0  0  0
  3  4  1  0  0  0  0
  3  9  1  0  0  0  0
  4  5  1  0  0  0  0
  4 25  2  0  0  0  0
  5  6  1  0  0  0  0
  5 15  1  0  0  0  0
  6  7  1  0  0  0  0
  6 14  2  0  0  0  0
  7  8  1  0  0  0  0
  7 11  2  0  0  0  0
  8  9  1  0  0  0  0
  9 10  2  0  0  0  0
 11 12  1  0  0  0  0
 12 13  2  0  0  0  0
 13 14  1  0  0  0  0
 15 16  2  0  0  0  0
 15 17  1  0  0  0  0
 17 18  1  0  0  0  0
 18 19  1  0  0  0  0
 18 23  1  0  0  0  0
 19 20  1  0  0  0  0
 20 21  1  0  0  0  0
 21 22  1  0  0  0  0
 21 24  1  0  0  0  0
 22 23  1  0  0  0  0
 25 26  1  0  0  0  0
M  END
>  <Index>
1038

>  <ID>
HT1993

>  <class>
0

>  <apol>
57.013447

>  <ast_fraglike>
0

>  <ast_fraglike_ext>
0

>  <ast_violation>
2

>  <ast_violation_ext>
3

>  <a_acc>
4

>  <a_acid>
0

>  <a_aro>
11

>  <a_base>
0

>  <a_count>
48

>  <a_don>
1

>  <a_donacc>
5

>  <a_heavy>
26

>  <a_hyd>
18

>  <a_IC>
79.260078

>  <a_ICM>
1.6512517

>  <a_nB>
0

>  <a_nBr>
0

>  <a_nC>
19

>  <a_nCl>
0

>  <a_nF>
0

>  <a_nH>
22

>  <a_nI>
0

>  <a_nN>
4

>  <a_nO>
2

>  <a_nP>
0

>  <a_nS>
1

>  <balabanJ>
1.5468749

>  <BCUT_PEOE_0>
-2.76669

>  <BCUT_PEOE_1>
-0.5076291

>  <BCUT_PEOE_2>
0.52265066

>  <BCUT_PEOE_3>
2.6690109

>  <BCUT_SLOGP_0>
-2.8947031

>  <BCUT_SLOGP_1>
-0.40654075

>  <BCUT_SLOGP_2>
0.57559246

>  <BCUT_SLOGP_3>
2.5536523

>  <BCUT_SMR_0>
-2.4827974

>  <BCUT_SMR_1>
-0.30681941

>  <BCUT_SMR_2>
0.71941048

>  <BCUT_SMR_3>
2.9446611

>  <bpol>
34.846554

>  <b_1rotN>
3

>  <b_1rotR>
0.10344828

>  <b_ar>
11

>  <b_count>
51

>  <b_double>
2

>  <b_heavy>
29

>  <b_max1len>
2

>  <b_rotN>
3

>  <b_rotR>
0.10344828

>  <b_single>
38

>  <b_triple>
0

>  <chi0>
18.258783

>  <chi0v>
15.805167

>  <chi0v_C>
11.922285

>  <chi0_C>
13.112519

>  <chi1>
12.541714

>  <chi1v>
9.6464787

>  <chi1v_C>
4.7195787

>  <chi1_C>
6.0436769

>  <chiral>
0

>  <chiral_u>
0

>  <density>
0.75965059

>  <diameter>
11

>  <FCharge>
0

>  <GCUT_PEOE_0>
-0.8571195

>  <GCUT_PEOE_1>
-0.3782931

>  <GCUT_PEOE_2>
0.024790566

>  <GCUT_PEOE_3>
2.76385

>  <GCUT_SLOGP_0>
-0.99310744

>  <GCUT_SLOGP_1>
-0.31452501

>  <GCUT_SLOGP_2>
0.13594377

>  <GCUT_SLOGP_3>
2.8097324

>  <GCUT_SMR_0>
-0.51445895

>  <GCUT_SMR_1>
-0.17409913

>  <GCUT_SMR_2>
0.18353295

>  <GCUT_SMR_3>
3.0578001

>  <Kier1>
19.322235

>  <Kier2>
8.1632652

>  <Kier3>
3.9381688

>  <KierA1>
15.606812

>  <KierA2>
6.5337338

>  <KierA3>
3.1315372

>  <KierFlex>
3.9219525

>  <lip_acc>
6

>  <lip_don>
1

>  <lip_druglike>
1

>  <lip_violation>
0

>  <logP(o/w)>
1.13

>  <logS>
-3.54109

>  <mr>
10.291513

>  <mutagenic>
0

>  <nmol>
1

>  <opr_brigid>
22

>  <opr_leadlike>
1

>  <opr_nring>
4

>  <opr_nrot>
4

>  <opr_violation>
0

>  <PC+>
0

>  <PC->
0

>  <PEOE_PC+>
2.1574447

>  <PEOE_PC->
-2.1574447

>  <PEOE_RPC+>
0.11933973

>  <PEOE_RPC->
0.14849842

>  <PEOE_VSA+0>
116.75009

>  <PEOE_VSA+1>
61.091835

>  <PEOE_VSA+2>
0

>  <PEOE_VSA+3>
28.379631

>  <PEOE_VSA+4>
12.949531

>  <PEOE_VSA+5>
12.949531

>  <PEOE_VSA+6>
0

>  <PEOE_VSA-0>
66.496178

>  <PEOE_VSA-1>
42.925373

>  <PEOE_VSA-2>
0

>  <PEOE_VSA-3>
0

>  <PEOE_VSA-4>
0

>  <PEOE_VSA-5>
27.133842

>  <PEOE_VSA-6>
0.13689101

>  <PEOE_VSA_FHYD>
0.85583532

>  <PEOE_VSA_FNEG>
0.3706277

>  <PEOE_VSA_FPNEG>
0.073941916

>  <PEOE_VSA_FPOL>
0.14416468

>  <PEOE_VSA_FPOS>
0.6293723

>  <PEOE_VSA_FPPOS>
0.070222765

>  <PEOE_VSA_HYD>
315.6431

>  <PEOE_VSA_NEG>
136.69228

>  <PEOE_VSA_PNEG>
27.270733

>  <PEOE_VSA_POL>
53.169796

>  <PEOE_VSA_POS>
232.12062

>  <PEOE_VSA_PPOS>
25.899061

>  <petitjean>
0.45454547

>  <petitjeanSC>
0.83333331

>  <Q_PC+>
0

>  <Q_PC->
0

>  <Q_RPC+>
0

>  <Q_RPC->
0

>  <Q_VSA_FHYD>
1

>  <Q_VSA_FNEG>
0

>  <Q_VSA_FPNEG>
0

>  <Q_VSA_FPOL>
0

>  <Q_VSA_FPOS>
1

>  <Q_VSA_FPPOS>
0

>  <Q_VSA_HYD>
368.8129

>  <Q_VSA_NEG>
0

>  <Q_VSA_PNEG>
0

>  <Q_VSA_POL>
0

>  <Q_VSA_POS>
368.8129

>  <Q_VSA_PPOS>
0

>  <radius>
6

>  <reactive>
0

>  <rings>
4

>  <RPC+>
0

>  <RPC->
0

>  <rsynth>
1

>  <SlogP>
2.5343201

>  <SlogP_VSA0>
3.1243138

>  <SlogP_VSA1>
34.776947

>  <SlogP_VSA2>
23.862217

>  <SlogP_VSA3>
92.197891

>  <SlogP_VSA4>
28.406193

>  <SlogP_VSA5>
32.897186

>  <SlogP_VSA6>
0

>  <SlogP_VSA7>
86.388748

>  <SlogP_VSA8>
0

>  <SlogP_VSA9>
72.873947

>  <SMR>
10.45342

>  <SMR_VSA0>
47.724434

>  <SMR_VSA1>
6.2486277

>  <SMR_VSA2>
3.1243138

>  <SMR_VSA3>
4.5439763

>  <SMR_VSA4>
26.280993

>  <SMR_VSA5>
86.388748

>  <SMR_VSA6>
102.71545

>  <SMR_VSA7>
97.500893

>  <TPSA>
55.889999

>  <VAdjEq>
0.42228913

>  <VAdjMa>
5.8579812

>  <VDistEq>
3.2275999

>  <VDistMa>
9.1395636

>  <vdw_area>
368.8129

>  <vdw_vol>
487.69394

>  <vsa_acc>
27.133842

>  <vsa_acid>
0

>  <vsa_base>
0

>  <vsa_don>
5.6825762

>  <vsa_hyd>
292.07639

>  <vsa_other>
25.899061

>  <vsa_pol>
32.816418

>  <Weight>
370.47699

>  <weinerPath>
1525

>  <weinerPol>
47

>  <zagreb>
142

$$$$