Clc1cc(Cl)c2c(nc(cc2)C)c1O
  MOE2013           2D

 14 15  0  0  0  0  0  0  0  0999 V2000
    0.0000    0.0000    0.0000 Cl  0  0  0  0  0  0  0  0  0  0  0  0
    1.2990    0.7490    0.0000 C   0  0  0  0  0  0  0  0  0  0  0  0
    1.3000    2.2490    0.0000 C   0  0  0  0  0  0  0  0  0  0  0  0
    2.6000    2.9990    0.0000 C   0  0  0  0  0  0  0  0  0  0  0  0
    2.6000    4.4990    0.0000 Cl  0  0  0  0  0  0  0  0  0  0  0  0
    3.8980    2.2480    0.0000 C   0  0  0  0  0  0  0  0  0  0  0  0
    3.8970    0.7480    0.0000 C   0  0  0  0  0  0  0  0  0  0  0  0
    5.1960   -0.0020    0.0000 N   0  0  0  0  0  0  0  0  0  0  0  0
    6.4960    0.7470    0.0000 C   0  0  0  0  0  0  0  0  0  0  0  0
    6.4960    2.2470    0.0000 C   0  0  0  0  0  0  0  0  0  0  0  0
    5.1980    2.9980    0.0000 C   0  0  0  0  0  0  0  0  0  0  0  0
    7.7940   -0.0040    0.0000 C   0  0  0  0  0  0  0  0  0  0  0  0
    2.5980   -0.0010    0.0000 C   0  0  0  0  0  0  0  0  0  0  0  0
    2.5970   -1.5010    0.0000 O   0  0  0  0  0  0  0  0  0  0  0  0
  1  2  1  0  0  0  0
  2  3  1  0  0  0  0
  2 13  2  0  0  0  0
  3  4  2  0  0  0  0
  4  5  1  0  0  0  0
  4  6  1  0  0  0  0
  6  7  1  0  0  0  0
  6 11  2  0  0  0  0
  7  8  2  0  0  0  0
  7 13  1  0  0  0  0
  8  9  1  0  0  0  0
  9 10  2  0  0  0  0
  9 12  1  0  0  0  0
 10 11  1  0  0  0  0
 13 14  1  0  0  0  0
M  END
>  <Index>
1274

>  <ID>
HT2989

>  <class>
0

>  <apol>
28.529551

>  <ast_fraglike>
0

>  <ast_fraglike_ext>
0

>  <ast_violation>
1

>  <ast_violation_ext>
1

>  <a_acc>
2

>  <a_acid>
0

>  <a_aro>
10

>  <a_base>
0

>  <a_count>
21

>  <a_don>
1

>  <a_donacc>
3

>  <a_heavy>
14

>  <a_hyd>
12

>  <a_IC>
37.367901

>  <a_ICM>
1.7794238

>  <a_nB>
0

>  <a_nBr>
0

>  <a_nC>
10

>  <a_nCl>
2

>  <a_nF>
0

>  <a_nH>
7

>  <a_nI>
0

>  <a_nN>
1

>  <a_nO>
1

>  <a_nP>
0

>  <a_nS>
0

>  <balabanJ>
2.1356821

>  <BCUT_PEOE_0>
-2.2384853

>  <BCUT_PEOE_1>
-0.70202082

>  <BCUT_PEOE_2>
0.70423502

>  <BCUT_PEOE_3>
2.2350378

>  <BCUT_SLOGP_0>
-2.1130469

>  <BCUT_SLOGP_1>
-0.49636465

>  <BCUT_SLOGP_2>
0.95438939

>  <BCUT_SLOGP_3>
2.4359298

>  <BCUT_SMR_0>
-1.9591045

>  <BCUT_SMR_1>
-0.42018574

>  <BCUT_SMR_2>
1.020949

>  <BCUT_SMR_3>
2.5514627

>  <bpol>
9.8124495

>  <b_1rotN>
0

>  <b_1rotR>
0

>  <b_ar>
11

>  <b_count>
22

>  <b_double>
0

>  <b_heavy>
15

>  <b_max1len>
2

>  <b_rotN>
0

>  <b_rotR>
0

>  <b_single>
11

>  <b_triple>
0

>  <chi0>
10.292529

>  <chi0v>
8.8942652

>  <chi0v_C>
5.7320509

>  <chi0_C>
6.585422

>  <chi1>
6.5922241

>  <chi1v>
4.7927475

>  <chi1v_C>
2.9880338

>  <chi1_C>
4.0436769

>  <chiral>
0

>  <chiral_u>
0

>  <density>
0.88858718

>  <diameter>
6

>  <FCharge>
0

>  <GCUT_PEOE_0>
-0.74637729

>  <GCUT_PEOE_1>
-0.42974958

>  <GCUT_PEOE_2>
0.080962069

>  <GCUT_PEOE_3>
2.2058287

>  <GCUT_SLOGP_0>
-0.76205397

>  <GCUT_SLOGP_1>
-0.22946948

>  <GCUT_SLOGP_2>
0.30644363

>  <GCUT_SLOGP_3>
2.4152501

>  <GCUT_SMR_0>
-0.47990197

>  <GCUT_SMR_1>
-0.16570835

>  <GCUT_SMR_2>
0.42888251

>  <GCUT_SMR_3>
2.5324826

>  <Kier1>
10.515555

>  <Kier2>
3.8677685

>  <Kier3>
1.8834721

>  <KierA1>
9.5333662

>  <KierA2>
3.4781642

>  <KierA3>
1.6832579

>  <KierFlex>
2.3684723

>  <lip_acc>
2

>  <lip_don>
1

>  <lip_druglike>
1

>  <lip_violation>
0

>  <logP(o/w)>
3.2739999

>  <logS>
-3.39344

>  <mr>
5.7632337

>  <mutagenic>
0

>  <nmol>
1

>  <opr_brigid>
11

>  <opr_leadlike>
1

>  <opr_nring>
2

>  <opr_nrot>
0

>  <opr_violation>
0

>  <PC+>
0

>  <PC->
0

>  <PEOE_PC+>
0.90284938

>  <PEOE_PC->
-0.90284938

>  <PEOE_RPC+>
0.24085233

>  <PEOE_RPC->
0.39484897

>  <PEOE_VSA+0>
21.704248

>  <PEOE_VSA+1>
21.835651

>  <PEOE_VSA+2>
15.158071

>  <PEOE_VSA+3>
0

>  <PEOE_VSA+4>
10.324173

>  <PEOE_VSA+5>
0

>  <PEOE_VSA+6>
0

>  <PEOE_VSA-0>
55.51239

>  <PEOE_VSA-1>
59.163895

>  <PEOE_VSA-2>
0

>  <PEOE_VSA-3>
0

>  <PEOE_VSA-4>
5.6825762

>  <PEOE_VSA-5>
0

>  <PEOE_VSA-6>
7.7675405

>  <PEOE_VSA_FHYD>
0.87940925

>  <PEOE_VSA_FNEG>
0.64989775

>  <PEOE_VSA_FPNEG>
0.06822326

>  <PEOE_VSA_FPOL>
0.12059074

>  <PEOE_VSA_FPOS>
0.35010222

>  <PEOE_VSA_FPPOS>
0.052367482

>  <PEOE_VSA_HYD>
173.37425

>  <PEOE_VSA_NEG>
128.1264

>  <PEOE_VSA_PNEG>
13.450116

>  <PEOE_VSA_POL>
23.774288

>  <PEOE_VSA_POS>
69.022141

>  <PEOE_VSA_PPOS>
10.324173

>  <petitjean>
0.5

>  <petitjeanSC>
1

>  <Q_PC+>
0

>  <Q_PC->
0

>  <Q_RPC+>
0

>  <Q_RPC->
0

>  <Q_VSA_FHYD>
1

>  <Q_VSA_FNEG>
0

>  <Q_VSA_FPNEG>
0

>  <Q_VSA_FPOL>
0

>  <Q_VSA_FPOS>
1

>  <Q_VSA_FPPOS>
0

>  <Q_VSA_HYD>
197.14854

>  <Q_VSA_NEG>
0

>  <Q_VSA_PNEG>
0

>  <Q_VSA_POL>
0

>  <Q_VSA_POS>
197.14854

>  <Q_VSA_PPOS>
0

>  <radius>
3

>  <reactive>
0

>  <rings>
2

>  <RPC+>
0

>  <RPC->
0

>  <rsynth>
1

>  <SlogP>
3.55562

>  <SlogP_VSA0>
25.385227

>  <SlogP_VSA1>
16.78553

>  <SlogP_VSA2>
0

>  <SlogP_VSA3>
0

>  <SlogP_VSA4>
2.7567475

>  <SlogP_VSA5>
0

>  <SlogP_VSA6>
7.0012131

>  <SlogP_VSA7>
57.646656

>  <SlogP_VSA8>
0

>  <SlogP_VSA9>
116.86673

>  <SMR>
5.8164802

>  <SMR_VSA0>
0

>  <SMR_VSA1>
42.170757

>  <SMR_VSA2>
0

>  <SMR_VSA3>
15.001389

>  <SMR_VSA4>
4.7171016

>  <SMR_VSA5>
52.929554

>  <SMR_VSA6>
0

>  <SMR_VSA7>
111.62331

>  <TPSA>
33.119999

>  <VAdjEq>
0.61744827

>  <VAdjMa>
4.9068904

>  <VDistEq>
2.4258285

>  <VDistMa>
7.3453417

>  <vdw_area>
197.14854

>  <vdw_vol>
256.67487

>  <vsa_acc>
5.6825762

>  <vsa_acid>
0

>  <vsa_base>
0

>  <vsa_don>
0

>  <vsa_hyd>
169.10349

>  <vsa_other>
0

>  <vsa_pol>
19.249496

>  <Weight>
228.07799

>  <weinerPath>
270

>  <weinerPol>
23

>  <zagreb>
74

$$$$