O1[C@@H]([C@H](O)[C@H](O)CO)[C@H](NC(=O)C)[C@@H](NC(N)=N)C=C1C(O)=O
  MOE2013           2D

 23 23  0  0  1  0  0  0  0  0999 V2000
    0.0000    0.0000    0.0000 O   0  0  0  0  0  0  0  0  0  0  0  0
    0.7480   -1.3000    0.0000 C   0  0  1  0  0  0  0  0  0  0  0  0
   -0.0040   -2.5980    0.0000 C   0  0  2  0  0  0  0  0  0  0  0  0
    0.7440   -3.8980    0.0000 O   0  0  0  0  0  0  0  0  0  0  0  0
   -1.5040   -2.5960    0.0000 C   0  0  2  0  0  0  0  0  0  0  0  0
   -2.2560   -3.8940    0.0000 O   0  0  0  0  0  0  0  0  0  0  0  0
   -2.2520   -1.2950    0.0000 C   0  0  0  0  0  0  0  0  0  0  0  0
   -3.7520   -1.2930    0.0000 O   0  0  0  0  0  0  0  0  0  0  0  0
    2.2480   -1.3030    0.0000 C   0  0  2  0  0  0  0  0  0  0  0  0
    2.9960   -2.6030    0.0000 N   0  0  0  0  0  0  0  0  0  0  0  0
    4.4960   -2.6050    0.0000 C   0  0  0  0  0  0  0  0  0  0  0  0
    5.2480   -1.3070    0.0000 O   0  0  0  0  0  0  0  0  0  0  0  0
    5.2440   -3.9050    0.0000 C   0  0  0  0  0  0  0  0  0  0  0  0
    3.0000   -0.0050    0.0000 C   0  0  1  0  0  0  0  0  0  0  0  0
    4.5000   -0.0070    0.0000 N   0  0  0  0  0  0  0  0  0  0  0  0
    5.2520    1.2910    0.0000 C   0  0  0  0  0  0  0  0  0  0  0  0
    4.5040    2.5910    0.0000 N   0  0  0  0  0  0  0  0  0  0  0  0
    6.7520    1.2880    0.0000 N   0  0  0  0  0  0  0  0  0  0  0  0
    2.2520    1.2950    0.0000 C   0  0  0  0  0  0  0  0  0  0  0  0
    0.7520    1.2980    0.0000 C   0  0  0  0  0  0  0  0  0  0  0  0
    0.0040    2.5980    0.0000 C   0  0  0  0  0  0  0  0  0  0  0  0
   -1.4960    2.6000    0.0000 O   0  0  0  0  0  0  0  0  0  0  0  0
    0.7560    3.8960    0.0000 O   0  0  0  0  0  0  0  0  0  0  0  0
  1 20  1  0  0  0  0
  2  1  1  6  0  0  0
  2  3  1  0  0  0  0
  2  9  1  0  0  0  0
  3  4  1  6  0  0  0
  3  5  1  0  0  0  0
  5  6  1  6  0  0  0
  5  7  1  0  0  0  0
  7  8  1  0  0  0  0
  9 10  1  1  0  0  0
  9 14  1  0  0  0  0
 10 11  1  0  0  0  0
 11 12  2  0  0  0  0
 11 13  1  0  0  0  0
 14 15  1  6  0  0  0
 14 19  1  0  0  0  0
 15 16  1  0  0  0  0
 16 17  1  0  0  0  0
 16 18  2  0  0  0  0
 19 20  2  0  0  0  0
 20 21  1  0  0  0  0
 21 22  1  0  0  0  0
 21 23  2  0  0  0  0
M  END
>  <Index>
1161

>  <ID>
HT2209

>  <class>
0

>  <apol>
44.46986

>  <ast_fraglike>
0

>  <ast_fraglike_ext>
0

>  <ast_violation>
3

>  <ast_violation_ext>
5

>  <a_acc>
8

>  <a_acid>
0

>  <a_aro>
0

>  <a_base>
0

>  <a_count>
43

>  <a_don>
9

>  <a_donacc>
17

>  <a_heavy>
23

>  <a_hyd>
9

>  <a_IC>
76.219788

>  <a_ICM>
1.7725532

>  <a_nB>
0

>  <a_nBr>
0

>  <a_nC>
12

>  <a_nCl>
0

>  <a_nF>
0

>  <a_nH>
20

>  <a_nI>
0

>  <a_nN>
4

>  <a_nO>
7

>  <a_nP>
0

>  <a_nS>
0

>  <balabanJ>
3.0550597

>  <BCUT_PEOE_0>
-2.7108989

>  <BCUT_PEOE_1>
-0.59509242

>  <BCUT_PEOE_2>
0.67563444

>  <BCUT_PEOE_3>
2.7537801

>  <BCUT_SLOGP_0>
-2.9380741

>  <BCUT_SLOGP_1>
-0.63709772

>  <BCUT_SLOGP_2>
0.54227942

>  <BCUT_SLOGP_3>
2.555275

>  <BCUT_SMR_0>
-2.4805715

>  <BCUT_SMR_1>
-0.44552219

>  <BCUT_SMR_2>
0.76663977

>  <BCUT_SMR_3>
2.9700723

>  <bpol>
26.35614

>  <b_1rotN>
6

>  <b_1rotR>
0.26086956

>  <b_ar>
0

>  <b_count>
43

>  <b_double>
4

>  <b_heavy>
23

>  <b_max1len>
6

>  <b_rotN>
8

>  <b_rotR>
0.34782609

>  <b_single>
39

>  <b_triple>
0

>  <chi0>
17.731686

>  <chi0v>
12.262158

>  <chi0v_C>
7.1712084

>  <chi0_C>
7.6103659

>  <chi1>
10.66681

>  <chi1v>
6.6339226

>  <chi1v_C>
3.11359

>  <chi1_C>
3.4687619

>  <chiral>
5

>  <chiral_u>
0

>  <density>
0.85331416

>  <diameter>
9

>  <FCharge>
0

>  <GCUT_PEOE_0>
-0.84138614

>  <GCUT_PEOE_1>
-0.48395219

>  <GCUT_PEOE_2>
0.14681068

>  <GCUT_PEOE_3>
2.7473984

>  <GCUT_SLOGP_0>
-1.3710608

>  <GCUT_SLOGP_1>
-0.48704737

>  <GCUT_SLOGP_2>
0.054200001

>  <GCUT_SLOGP_3>
2.607806

>  <GCUT_SMR_0>
-0.52577853

>  <GCUT_SMR_1>
-0.2550067

>  <GCUT_SMR_2>
0.21877231

>  <GCUT_SMR_3>
2.9684248

>  <Kier1>
21.043478

>  <Kier2>
9.4746094

>  <Kier3>
6.094183

>  <KierA1>
16.665178

>  <KierA2>
7.4182444

>  <KierA3>
4.73037

>  <KierFlex>
5.3750591

>  <lip_acc>
11

>  <lip_don>
9

>  <lip_druglike>
0

>  <lip_violation>
2

>  <logP(o/w)>
-2.7839999

>  <logS>
-0.2203

>  <mr>
7.571517

>  <mutagenic>
0

>  <nmol>
1

>  <opr_brigid>
7

>  <opr_leadlike>
0

>  <opr_nring>
1

>  <opr_nrot>
8

>  <opr_violation>
3

>  <PC+>
0

>  <PC->
0

>  <PEOE_PC+>
3.713222

>  <PEOE_PC->
-3.713222

>  <PEOE_RPC+>
0.084593043

>  <PEOE_RPC->
0.10566998

>  <PEOE_VSA+0>
31.543835

>  <PEOE_VSA+1>
55.366302

>  <PEOE_VSA+2>
23.173306

>  <PEOE_VSA+3>
58.776638

>  <PEOE_VSA+4>
54.246223

>  <PEOE_VSA+5>
0

>  <PEOE_VSA+6>
14.708499

>  <PEOE_VSA-0>
12.254904

>  <PEOE_VSA-1>
0

>  <PEOE_VSA-2>
0

>  <PEOE_VSA-3>
0

>  <PEOE_VSA-4>
0

>  <PEOE_VSA-5>
39.330647

>  <PEOE_VSA-6>
40.498817

>  <PEOE_VSA_FHYD>
0.54900104

>  <PEOE_VSA_FNEG>
0.27912882

>  <PEOE_VSA_FPNEG>
0.2419814

>  <PEOE_VSA_FPOL>
0.45099896

>  <PEOE_VSA_FPOS>
0.72087115

>  <PEOE_VSA_FPPOS>
0.20901756

>  <PEOE_VSA_HYD>
181.11499

>  <PEOE_VSA_NEG>
92.084366

>  <PEOE_VSA_PNEG>
79.829468

>  <PEOE_VSA_POL>
148.78418

>  <PEOE_VSA_POS>
237.8148

>  <PEOE_VSA_PPOS>
68.95472

>  <petitjean>
0.44444445

>  <petitjeanSC>
0.80000001

>  <Q_PC+>
0

>  <Q_PC->
0

>  <Q_RPC+>
0

>  <Q_RPC->
0

>  <Q_VSA_FHYD>
1

>  <Q_VSA_FNEG>
0

>  <Q_VSA_FPNEG>
0

>  <Q_VSA_FPOL>
0

>  <Q_VSA_FPOS>
1

>  <Q_VSA_FPPOS>
0

>  <Q_VSA_HYD>
329.89917

>  <Q_VSA_NEG>
0

>  <Q_VSA_PNEG>
0

>  <Q_VSA_POL>
0

>  <Q_VSA_POS>
329.89917

>  <Q_VSA_PPOS>
0

>  <radius>
5

>  <reactive>
0

>  <rings>
1

>  <RPC+>
0

>  <RPC->
0

>  <rsynth>
1

>  <SlogP>
-3.57583

>  <SlogP_VSA0>
145.07437

>  <SlogP_VSA1>
14.90334

>  <SlogP_VSA2>
86.094208

>  <SlogP_VSA3>
46.311485

>  <SlogP_VSA4>
0

>  <SlogP_VSA5>
5.2434282

>  <SlogP_VSA6>
0

>  <SlogP_VSA7>
49.315151

>  <SlogP_VSA8>
0

>  <SlogP_VSA9>
33.326015

>  <SMR>
7.6133699

>  <SMR_VSA0>
58.724319

>  <SMR_VSA1>
76.155678

>  <SMR_VSA2>
93.078697

>  <SMR_VSA3>
32.613312

>  <SMR_VSA4>
32.897186

>  <SMR_VSA5>
17.643185

>  <SMR_VSA6>
35.829597

>  <SMR_VSA7>
33.326015

>  <TPSA>
198.22

>  <VAdjEq>
0.42622864

>  <VAdjMa>
5.523562

>  <VDistEq>
2.9782541

>  <VDistMa>
8.8145313

>  <vdw_area>
329.89917

>  <vdw_vol>
389.43805

>  <vsa_acc>
16.070677

>  <vsa_acid>
0

>  <vsa_base>
0

>  <vsa_don>
29.107641

>  <vsa_hyd>
114.5086

>  <vsa_other>
43.339603

>  <vsa_pol>
130.75542

>  <Weight>
332.31299

>  <weinerPath>
1114

>  <weinerPol>
35

>  <zagreb>
110

$$$$