Clc1nc(SCC(O)=O)nc(Nc2cccc(C)c2C)c1
  MOE2013           2D

 21 22  0  0  0  0  0  0  0  0999 V2000
    0.0000    0.0000    0.0000 Cl  0  0  0  0  0  0  0  0  0  0  0  0
    0.7460   -1.3020    0.0000 C   0  0  0  0  0  0  0  0  0  0  0  0
    2.2460   -1.3060    0.0000 N   0  0  0  0  0  0  0  0  0  0  0  0
    2.9910   -2.6080    0.0000 C   0  0  0  0  0  0  0  0  0  0  0  0
    4.4910   -2.6130    0.0000 S   0  0  0  0  0  0  0  0  0  0  0  0
    5.2460   -1.3160    0.0000 C   0  0  0  0  0  0  0  0  0  0  0  0
    6.7460   -1.3210    0.0000 C   0  0  0  0  0  0  0  0  0  0  0  0
    7.5000   -0.0250    0.0000 O   0  0  0  0  0  0  0  0  0  0  0  0
    7.4910   -2.6230    0.0000 O   0  0  0  0  0  0  0  0  0  0  0  0
    2.2370   -3.9050    0.0000 N   0  0  0  0  0  0  0  0  0  0  0  0
    0.7370   -3.9000    0.0000 C   0  0  0  0  0  0  0  0  0  0  0  0
   -0.0170   -5.1960    0.0000 N   0  0  0  0  0  0  0  0  0  0  0  0
   -1.5170   -5.1910    0.0000 C   0  0  0  0  0  0  0  0  0  0  0  0
   -2.2630   -3.8900    0.0000 C   0  0  0  0  0  0  0  0  0  0  0  0
   -3.7630   -3.8850    0.0000 C   0  0  0  0  0  0  0  0  0  0  0  0
   -4.5170   -5.1810    0.0000 C   0  0  0  0  0  0  0  0  0  0  0  0
   -3.7710   -6.4830    0.0000 C   0  0  0  0  0  0  0  0  0  0  0  0
   -4.5260   -7.7790    0.0000 C   0  0  0  0  0  0  0  0  0  0  0  0
   -2.2710   -6.4880    0.0000 C   0  0  0  0  0  0  0  0  0  0  0  0
   -1.5260   -7.7890    0.0000 C   0  0  0  0  0  0  0  0  0  0  0  0
   -0.0090   -2.5980    0.0000 C   0  0  0  0  0  0  0  0  0  0  0  0
  1  2  1  0  0  0  0
  2  3  1  0  0  0  0
  2 21  2  0  0  0  0
  3  4  2  0  0  0  0
  4  5  1  0  0  0  0
  4 10  1  0  0  0  0
  5  6  1  0  0  0  0
  6  7  1  0  0  0  0
  7  8  1  0  0  0  0
  7  9  2  0  0  0  0
 10 11  2  0  0  0  0
 11 12  1  0  0  0  0
 11 21  1  0  0  0  0
 12 13  1  0  0  0  0
 13 14  1  0  0  0  0
 13 19  2  0  0  0  0
 14 15  2  0  0  0  0
 15 16  1  0  0  0  0
 16 17  2  0  0  0  0
 17 18  1  0  0  0  0
 17 19  1  0  0  0  0
 19 20  1  0  0  0  0
M  END
>  <Index>
1154

>  <ID>
HT2197

>  <class>
0

>  <apol>
43.959103

>  <ast_fraglike>
0

>  <ast_fraglike_ext>
0

>  <ast_violation>
3

>  <ast_violation_ext>
4

>  <a_acc>
4

>  <a_acid>
0

>  <a_aro>
12

>  <a_base>
0

>  <a_count>
35

>  <a_don>
3

>  <a_donacc>
7

>  <a_heavy>
21

>  <a_hyd>
12

>  <a_IC>
66.164078

>  <a_ICM>
1.8904023

>  <a_nB>
0

>  <a_nBr>
0

>  <a_nC>
14

>  <a_nCl>
1

>  <a_nF>
0

>  <a_nH>
14

>  <a_nI>
0

>  <a_nN>
3

>  <a_nO>
2

>  <a_nP>
0

>  <a_nS>
1

>  <balabanJ>
1.8450378

>  <BCUT_PEOE_0>
-2.3807998

>  <BCUT_PEOE_1>
-0.51345336

>  <BCUT_PEOE_2>
0.51225531

>  <BCUT_PEOE_3>
2.3277943

>  <BCUT_SLOGP_0>
-2.3063626

>  <BCUT_SLOGP_1>
-0.45561382

>  <BCUT_SLOGP_2>
0.60898149

>  <BCUT_SLOGP_3>
2.487128

>  <BCUT_SMR_0>
-2.0717158

>  <BCUT_SMR_1>
-0.31223124

>  <BCUT_SMR_2>
0.69308066

>  <BCUT_SMR_3>
2.6510489

>  <bpol>
22.262897

>  <b_1rotN>
5

>  <b_1rotR>
0.22727273

>  <b_ar>
12

>  <b_count>
36

>  <b_double>
1

>  <b_heavy>
22

>  <b_max1len>
3

>  <b_rotN>
5

>  <b_rotR>
0.22727273

>  <b_single>
23

>  <b_triple>
0

>  <chi0>
15.405413

>  <chi0v>
13.125035

>  <chi0v_C>
8.5165081

>  <chi0_C>
9.5769854

>  <chi1>
9.9523973

>  <chi1v>
7.5424232

>  <chi1v_C>
3.6749206

>  <chi1_C>
4.8626084

>  <chiral>
0

>  <chiral_u>
0

>  <density>
0.83511376

>  <diameter>
11

>  <FCharge>
0

>  <GCUT_PEOE_0>
-0.78331184

>  <GCUT_PEOE_1>
-0.44607306

>  <GCUT_PEOE_2>
0.079675488

>  <GCUT_PEOE_3>
2.3735421

>  <GCUT_SLOGP_0>
-0.91362965

>  <GCUT_SLOGP_1>
-0.31426835

>  <GCUT_SLOGP_2>
0.14746459

>  <GCUT_SLOGP_3>
2.5268631

>  <GCUT_SMR_0>
-0.47901618

>  <GCUT_SMR_1>
-0.21188509

>  <GCUT_SMR_2>
0.25935087

>  <GCUT_SMR_3>
2.6850839

>  <Kier1>
17.355371

>  <Kier2>
8.0222225

>  <Kier3>
5.2897959

>  <KierA1>
14.56324

>  <KierA2>
6.6688356

>  <KierA3>
4.3658409

>  <KierFlex>
4.6247549

>  <lip_acc>
5

>  <lip_don>
2

>  <lip_druglike>
1

>  <lip_violation>
0

>  <logP(o/w)>
3.4070001

>  <logS>
-5.51824

>  <mr>
8.5560265

>  <mutagenic>
0

>  <nmol>
1

>  <opr_brigid>
12

>  <opr_leadlike>
1

>  <opr_nring>
2

>  <opr_nrot>
5

>  <opr_violation>
0

>  <PC+>
0

>  <PC->
0

>  <PEOE_PC+>
1.7098796

>  <PEOE_PC->
-1.7098796

>  <PEOE_RPC+>
0.1578764

>  <PEOE_RPC->
0.19337179

>  <PEOE_VSA+0>
53.077541

>  <PEOE_VSA+1>
27.738918

>  <PEOE_VSA+2>
28.820333

>  <PEOE_VSA+3>
13.166624

>  <PEOE_VSA+4>
10.324173

>  <PEOE_VSA+5>
14.708499

>  <PEOE_VSA+6>
0

>  <PEOE_VSA-0>
54.167339

>  <PEOE_VSA-1>
73.852371

>  <PEOE_VSA-2>
0

>  <PEOE_VSA-3>
0

>  <PEOE_VSA-4>
11.502043

>  <PEOE_VSA-5>
13.566921

>  <PEOE_VSA-6>
7.7675405

>  <PEOE_VSA_FHYD>
0.81253445

>  <PEOE_VSA_FNEG>
0.52108914

>  <PEOE_VSA_FPNEG>
0.10637293

>  <PEOE_VSA_FPOL>
0.18746556

>  <PEOE_VSA_FPOS>
0.47891083

>  <PEOE_VSA_FPPOS>
0.081092633

>  <PEOE_VSA_HYD>
250.82314

>  <PEOE_VSA_NEG>
160.85622

>  <PEOE_VSA_PNEG>
32.836506

>  <PEOE_VSA_POL>
57.869175

>  <PEOE_VSA_POS>
147.83609

>  <PEOE_VSA_PPOS>
25.032671

>  <petitjean>
0.45454547

>  <petitjeanSC>
0.83333331

>  <Q_PC+>
0

>  <Q_PC->
0

>  <Q_RPC+>
0

>  <Q_RPC->
0

>  <Q_VSA_FHYD>
1

>  <Q_VSA_FNEG>
0

>  <Q_VSA_FPNEG>
0

>  <Q_VSA_FPOL>
0

>  <Q_VSA_FPOS>
1

>  <Q_VSA_FPPOS>
0

>  <Q_VSA_HYD>
308.69232

>  <Q_VSA_NEG>
0

>  <Q_VSA_PNEG>
0

>  <Q_VSA_POL>
0

>  <Q_VSA_POS>
308.69232

>  <Q_VSA_PPOS>
0

>  <radius>
6

>  <reactive>
0

>  <rings>
2

>  <RPC+>
0

>  <RPC->
0

>  <rsynth>
1

>  <SlogP>
3.66714

>  <SlogP_VSA0>
0

>  <SlogP_VSA1>
59.327274

>  <SlogP_VSA2>
23.862217

>  <SlogP_VSA3>
42.61879

>  <SlogP_VSA4>
6.37115

>  <SlogP_VSA5>
0.69307917

>  <SlogP_VSA6>
3.0717793

>  <SlogP_VSA7>
70.572739

>  <SlogP_VSA8>
0

>  <SlogP_VSA9>
143.10489

>  <SMR>
8.4601498

>  <SMR_VSA0>
23.862217

>  <SMR_VSA1>
33.57106

>  <SMR_VSA2>
26.078306

>  <SMR_VSA3>
9.4429293

>  <SMR_VSA4>
23.095419

>  <SMR_VSA5>
70.572739

>  <SMR_VSA6>
24.979029

>  <SMR_VSA7>
138.02022

>  <TPSA>
75.110001

>  <VAdjEq>
0.46827638

>  <VAdjMa>
5.4594316

>  <VDistEq>
3.2898989

>  <VDistMa>
8.4822674

>  <vdw_area>
308.69232

>  <vdw_vol>
387.73639

>  <vsa_acc>
11.365152

>  <vsa_acid>
0

>  <vsa_base>
0

>  <vsa_don>
5.6825762

>  <vsa_hyd>
200.29463

>  <vsa_other>
48.076443

>  <vsa_pol>
44.181568

>  <Weight>
323.80399

>  <weinerPath>
996

>  <weinerPol>
29

>  <zagreb>
104

$$$$