O(C(=O)C1(CCCC1)c1ccccc1)CCN(CC)CC
  MOE2013           2D

 21 22  0  0  0  0  0  0  0  0999 V2000
    0.0000    0.0000    0.0000 O   0  0  0  0  0  0  0  0  0  0  0  0
   -1.5000   -0.0100    0.0000 C   0  0  0  0  0  0  0  0  0  0  0  0
   -2.2410   -1.3140    0.0000 O   0  0  0  0  0  0  0  0  0  0  0  0
   -2.2590    1.2840    0.0000 C   0  0  0  0  0  0  0  0  0  0  0  0
   -1.0670    2.1950    0.0000 C   0  0  0  0  0  0  0  0  0  0  0  0
   -1.5640    3.6100    0.0000 C   0  0  0  0  0  0  0  0  0  0  0  0
   -3.0640    3.5740    0.0000 C   0  0  0  0  0  0  0  0  0  0  0  0
   -3.4930    2.1360    0.0000 C   0  0  0  0  0  0  0  0  0  0  0  0
   -3.4340    0.3530    0.0000 C   0  0  0  0  0  0  0  0  0  0  0  0
   -3.2160   -1.1310    0.0000 C   0  0  0  0  0  0  0  0  0  0  0  0
   -4.3920   -2.0620    0.0000 C   0  0  0  0  0  0  0  0  0  0  0  0
   -5.7860   -1.5100    0.0000 C   0  0  0  0  0  0  0  0  0  0  0  0
   -6.0050   -0.0260    0.0000 C   0  0  0  0  0  0  0  0  0  0  0  0
   -4.8290    0.9060    0.0000 C   0  0  0  0  0  0  0  0  0  0  0  0
    0.7410    1.3040    0.0000 C   0  0  0  0  0  0  0  0  0  0  0  0
    2.2410    1.3140    0.0000 C   0  0  0  0  0  0  0  0  0  0  0  0
    2.9830    2.6180    0.0000 N   0  0  0  0  0  0  0  0  0  0  0  0
    4.4830    2.6280    0.0000 C   0  0  0  0  0  0  0  0  0  0  0  0
    5.2410    1.3340    0.0000 C   0  0  0  0  0  0  0  0  0  0  0  0
    2.2240    3.9120    0.0000 C   0  0  0  0  0  0  0  0  0  0  0  0
    2.9660    5.2160    0.0000 C   0  0  0  0  0  0  0  0  0  0  0  0
  1  2  1  0  0  0  0
  1 15  1  0  0  0  0
  2  3  2  0  0  0  0
  2  4  1  0  0  0  0
  4  5  1  0  0  0  0
  4  8  1  0  0  0  0
  4  9  1  0  0  0  0
  5  6  1  0  0  0  0
  6  7  1  0  0  0  0
  7  8  1  0  0  0  0
  9 10  1  0  0  0  0
  9 14  2  0  0  0  0
 10 11  2  0  0  0  0
 11 12  1  0  0  0  0
 12 13  2  0  0  0  0
 13 14  1  0  0  0  0
 15 16  1  0  0  0  0
 16 17  1  0  0  0  0
 17 18  1  0  0  0  0
 17 20  1  0  0  0  0
 18 19  1  0  0  0  0
 20 21  1  0  0  0  0
M  END
>  <Index>
1311

>  <ID>
HT3298

>  <class>
0

>  <apol>
52.387409

>  <ast_fraglike>
0

>  <ast_fraglike_ext>
0

>  <ast_violation>
1

>  <ast_violation_ext>
2

>  <a_acc>
2

>  <a_acid>
0

>  <a_aro>
6

>  <a_base>
0

>  <a_count>
48

>  <a_don>
0

>  <a_donacc>
2

>  <a_heavy>
21

>  <a_hyd>
17

>  <a_IC>
62.637589

>  <a_ICM>
1.3049498

>  <a_nB>
0

>  <a_nBr>
0

>  <a_nC>
18

>  <a_nCl>
0

>  <a_nF>
0

>  <a_nH>
27

>  <a_nI>
0

>  <a_nN>
1

>  <a_nO>
2

>  <a_nP>
0

>  <a_nS>
0

>  <balabanJ>
1.8811178

>  <BCUT_PEOE_0>
-2.6713243

>  <BCUT_PEOE_1>
-0.41133898

>  <BCUT_PEOE_2>
0.43635511

>  <BCUT_PEOE_3>
2.7746172

>  <BCUT_SLOGP_0>
-2.7499216

>  <BCUT_SLOGP_1>
-0.33454558

>  <BCUT_SLOGP_2>
0.50564426

>  <BCUT_SLOGP_3>
2.8580756

>  <BCUT_SMR_0>
-2.3974409

>  <BCUT_SMR_1>
-0.25548694

>  <BCUT_SMR_2>
0.59629822

>  <BCUT_SMR_3>
3.0184815

>  <bpol>
34.37059

>  <b_1rotN>
7

>  <b_1rotR>
0.31818181

>  <b_ar>
6

>  <b_count>
49

>  <b_double>
1

>  <b_heavy>
22

>  <b_max1len>
6

>  <b_rotN>
8

>  <b_rotR>
0.36363637

>  <b_single>
42

>  <b_triple>
0

>  <chi0>
15.131546

>  <chi0v>
13.307316

>  <chi0v_C>
12.043606

>  <chi0_C>
12.847089

>  <chi1>
10.225511

>  <chi1v>
8.1776104

>  <chi1v_C>
6.5320039

>  <chi1_C>
7.5151672

>  <chiral>
0

>  <chiral_u>
0

>  <density>
0.6609745

>  <diameter>
11

>  <FCharge>
0

>  <GCUT_PEOE_0>
-0.85593915

>  <GCUT_PEOE_1>
-0.37487605

>  <GCUT_PEOE_2>
-0.037942678

>  <GCUT_PEOE_3>
2.7624476

>  <GCUT_SLOGP_0>
-0.95873815

>  <GCUT_SLOGP_1>
-0.26493838

>  <GCUT_SLOGP_2>
0.029058846

>  <GCUT_SLOGP_3>
2.8153307

>  <GCUT_SMR_0>
-0.53139472

>  <GCUT_SMR_1>
-0.16843496

>  <GCUT_SMR_2>
0.1013146

>  <GCUT_SMR_3>
3.0016649

>  <Kier1>
17.355371

>  <Kier2>
8.5850182

>  <Kier3>
4.260355

>  <KierA1>
14.732832

>  <KierA2>
7.2243896

>  <KierA3>
3.5611694

>  <KierFlex>
5.0683675

>  <lip_acc>
3

>  <lip_don>
0

>  <lip_druglike>
1

>  <lip_violation>
0

>  <logP(o/w)>
4.2600002

>  <logS>
-3.7123301

>  <mr>
8.7073507

>  <mutagenic>
0

>  <nmol>
1

>  <opr_brigid>
11

>  <opr_leadlike>
1

>  <opr_nring>
2

>  <opr_nrot>
8

>  <opr_violation>
0

>  <PC+>
0

>  <PC->
0

>  <PEOE_PC+>
1.4938359

>  <PEOE_PC->
-1.4938359

>  <PEOE_RPC+>
0.18260773

>  <PEOE_RPC->
0.2096979

>  <PEOE_VSA+0>
98.500046

>  <PEOE_VSA+1>
44.808994

>  <PEOE_VSA+2>
0

>  <PEOE_VSA+3>
0

>  <PEOE_VSA+4>
0

>  <PEOE_VSA+5>
14.708499

>  <PEOE_VSA+6>
0

>  <PEOE_VSA-0>
45.995815

>  <PEOE_VSA-1>
116.1725

>  <PEOE_VSA-2>
0

>  <PEOE_VSA-3>
0

>  <PEOE_VSA-4>
0

>  <PEOE_VSA-5>
13.566921

>  <PEOE_VSA-6>
2.503756

>  <PEOE_VSA_FHYD>
0.90846521

>  <PEOE_VSA_FNEG>
0.53006852

>  <PEOE_VSA_FPNEG>
0.047792908

>  <PEOE_VSA_FPOL>
0.091534808

>  <PEOE_VSA_FPOS>
0.46993151

>  <PEOE_VSA_FPPOS>
0.0437419

>  <PEOE_VSA_HYD>
305.47736

>  <PEOE_VSA_NEG>
178.239

>  <PEOE_VSA_PNEG>
16.070677

>  <PEOE_VSA_POL>
30.779177

>  <PEOE_VSA_POS>
158.01753

>  <PEOE_VSA_PPOS>
14.708499

>  <petitjean>
0.45454547

>  <petitjeanSC>
0.83333331

>  <Q_PC+>
0

>  <Q_PC->
0

>  <Q_RPC+>
0

>  <Q_RPC->
0

>  <Q_VSA_FHYD>
1

>  <Q_VSA_FNEG>
0

>  <Q_VSA_FPNEG>
0

>  <Q_VSA_FPOL>
0

>  <Q_VSA_FPOS>
1

>  <Q_VSA_FPPOS>
0

>  <Q_VSA_HYD>
336.25653

>  <Q_VSA_NEG>
0

>  <Q_VSA_PNEG>
0

>  <Q_VSA_POL>
0

>  <Q_VSA_POS>
336.25653

>  <Q_VSA_PPOS>
0

>  <radius>
6

>  <reactive>
0

>  <rings>
2

>  <RPC+>
0

>  <RPC->
0

>  <rsynth>
1

>  <SlogP>
3.3834

>  <SlogP_VSA0>
0

>  <SlogP_VSA1>
10.869778

>  <SlogP_VSA2>
34.862103

>  <SlogP_VSA3>
76.244995

>  <SlogP_VSA4>
3.185575

>  <SlogP_VSA5>
0

>  <SlogP_VSA6>
0

>  <SlogP_VSA7>
88.215919

>  <SlogP_VSA8>
75.473625

>  <SlogP_VSA9>
66.652031

>  <SMR>
8.5334997

>  <SMR_VSA0>
34.862103

>  <SMR_VSA1>
3.1243138

>  <SMR_VSA2>
0

>  <SMR_VSA3>
3.185575

>  <SMR_VSA4>
0

>  <SMR_VSA5>
163.68954

>  <SMR_VSA6>
83.990456

>  <SMR_VSA7>
66.652031

>  <TPSA>
29.540001

>  <VAdjEq>
0.46827638

>  <VAdjMa>
5.4594316

>  <VDistEq>
3.2613184

>  <VDistMa>
8.4843903

>  <vdw_area>
336.25653

>  <vdw_vol>
437.8671

>  <vsa_acc>
13.566921

>  <vsa_acid>
0

>  <vsa_base>
0

>  <vsa_don>
0

>  <vsa_hyd>
286.25888

>  <vsa_other>
17.212255

>  <vsa_pol>
13.566921

>  <Weight>
289.41901

>  <weinerPath>
981

>  <weinerPol>
31

>  <zagreb>
102

$$$$