OC(C(O)C(O)=O)C(O)=O
  MOE2013           2D

 10  9  0  0  1  0  0  0  0  0999 V2000
    0.0000    0.0000    0.0000 O   0  0  0  0  0  0  0  0  0  0  0  0
    0.7550   -1.2960    0.0000 C   0  0  3  0  0  0  0  0  0  0  0  0
    0.0110   -2.5980    0.0000 C   0  0  3  0  0  0  0  0  0  0  0  0
    0.7660   -3.8940    0.0000 O   0  0  0  0  0  0  0  0  0  0  0  0
   -1.4890   -2.6040    0.0000 C   0  0  0  0  0  0  0  0  0  0  0  0
   -2.2340   -3.9060    0.0000 O   0  0  0  0  0  0  0  0  0  0  0  0
   -2.2450   -1.3080    0.0000 O   0  0  0  0  0  0  0  0  0  0  0  0
    2.2550   -1.2900    0.0000 C   0  0  0  0  0  0  0  0  0  0  0  0
    3.0110   -2.5860    0.0000 O   0  0  0  0  0  0  0  0  0  0  0  0
    3.0000    0.0120    0.0000 O   0  0  0  0  0  0  0  0  0  0  0  0
  1  2  1  0  0  0  0
  2  3  1  0  0  0  0
  2  8  1  0  0  0  0
  3  4  1  0  0  0  0
  3  5  1  0  0  0  0
  5  6  1  0  0  0  0
  5  7  2  0  0  0  0
  8  9  1  0  0  0  0
  8 10  2  0  0  0  0
M  END
>  <Index>
1225

>  <ID>
HT2625

>  <class>
0

>  <apol>
15.852758

>  <ast_fraglike>
0

>  <ast_fraglike_ext>
0

>  <ast_violation>
2

>  <ast_violation_ext>
3

>  <a_acc>
6

>  <a_acid>
0

>  <a_aro>
0

>  <a_base>
0

>  <a_count>
16

>  <a_don>
6

>  <a_donacc>
12

>  <a_heavy>
10

>  <a_hyd>
2

>  <a_IC>
24.98045

>  <a_ICM>
1.5612781

>  <a_nB>
0

>  <a_nBr>
0

>  <a_nC>
4

>  <a_nCl>
0

>  <a_nF>
0

>  <a_nH>
6

>  <a_nI>
0

>  <a_nN>
0

>  <a_nO>
6

>  <a_nP>
0

>  <a_nS>
0

>  <balabanJ>
3.849673

>  <BCUT_PEOE_0>
-2.3882136

>  <BCUT_PEOE_1>
-0.62867641

>  <BCUT_PEOE_2>
0.71280718

>  <BCUT_PEOE_3>
2.5646102

>  <BCUT_SLOGP_0>
-2.6642711

>  <BCUT_SLOGP_1>
-0.7028293

>  <BCUT_SLOGP_2>
0.55639559

>  <BCUT_SLOGP_3>
2.2655575

>  <BCUT_SMR_0>
-2.2084343

>  <BCUT_SMR_1>
-0.48097771

>  <BCUT_SMR_2>
0.79590261

>  <BCUT_SMR_3>
2.7248006

>  <bpol>
8.4752417

>  <b_1rotN>
3

>  <b_1rotR>
0.33333334

>  <b_ar>
0

>  <b_count>
15

>  <b_double>
2

>  <b_heavy>
9

>  <b_max1len>
5

>  <b_rotN>
3

>  <b_rotR>
0.33333334

>  <b_single>
13

>  <b_triple>
0

>  <chi0>
8.3094015

>  <chi0v>
4.7600517

>  <chi0v_C>
2.1547005

>  <chi0_C>
2.309401

>  <chi1>
4.4641018

>  <chi1v>
2.2825432

>  <chi1v_C>
0.91068363

>  <chi1_C>
1

>  <chiral>
2

>  <chiral_u>
2

>  <density>
1.0136884

>  <diameter>
5

>  <FCharge>
0

>  <GCUT_PEOE_0>
-0.75575268

>  <GCUT_PEOE_1>
-0.50040305

>  <GCUT_PEOE_2>
0.21444692

>  <GCUT_PEOE_3>
2.0300696

>  <GCUT_SLOGP_0>
-0.96468127

>  <GCUT_SLOGP_1>
-0.53788984

>  <GCUT_SLOGP_2>
0.039082013

>  <GCUT_SLOGP_3>
1.7902535

>  <GCUT_SMR_0>
-0.5048039

>  <GCUT_SMR_1>
-0.26693383

>  <GCUT_SMR_2>
0.27287409

>  <GCUT_SMR_3>
2.2033846

>  <Kier1>
10

>  <Kier2>
4

>  <Kier3>
3.1111112

>  <KierA1>
8.1884441

>  <KierA2>
3.1943333

>  <KierA3>
2.4337778

>  <KierFlex>
2.6156621

>  <lip_acc>
6

>  <lip_don>
4

>  <lip_druglike>
1

>  <lip_violation>
0

>  <logP(o/w)>
-1.846

>  <logS>
0.82286

>  <mr>
2.7481227

>  <mutagenic>
0

>  <nmol>
1

>  <opr_brigid>
0

>  <opr_leadlike>
1

>  <opr_nring>
0

>  <opr_nrot>
3

>  <opr_violation>
0

>  <PC+>
0

>  <PC->
0

>  <PEOE_PC+>
1.9404812

>  <PEOE_PC->
-1.9404812

>  <PEOE_RPC+>
0.15023747

>  <PEOE_RPC->
0.19521812

>  <PEOE_VSA+0>
0

>  <PEOE_VSA+1>
8.5307722

>  <PEOE_VSA+2>
0

>  <PEOE_VSA+3>
9.8098574

>  <PEOE_VSA+4>
41.296692

>  <PEOE_VSA+5>
29.416998

>  <PEOE_VSA+6>
0

>  <PEOE_VSA-0>
0

>  <PEOE_VSA-1>
0

>  <PEOE_VSA-2>
0

>  <PEOE_VSA-3>
0

>  <PEOE_VSA-4>
0

>  <PEOE_VSA-5>
27.133842

>  <PEOE_VSA-6>
31.070162

>  <PEOE_VSA_FHYD>
0.12454733

>  <PEOE_VSA_FNEG>
0.39525104

>  <PEOE_VSA_FPNEG>
0.39525104

>  <PEOE_VSA_FPOL>
0.8754527

>  <PEOE_VSA_FPOS>
0.60474896

>  <PEOE_VSA_FPPOS>
0.48020166

>  <PEOE_VSA_HYD>
18.34063

>  <PEOE_VSA_NEG>
58.204002

>  <PEOE_VSA_PNEG>
58.204002

>  <PEOE_VSA_POL>
128.91769

>  <PEOE_VSA_POS>
89.054321

>  <PEOE_VSA_PPOS>
70.713692

>  <petitjean>
0.40000001

>  <petitjeanSC>
0.66666669

>  <Q_PC+>
0

>  <Q_PC->
0

>  <Q_RPC+>
0

>  <Q_RPC->
0

>  <Q_VSA_FHYD>
1

>  <Q_VSA_FNEG>
0

>  <Q_VSA_FPNEG>
0

>  <Q_VSA_FPOL>
0

>  <Q_VSA_FPOS>
1

>  <Q_VSA_FPPOS>
0

>  <Q_VSA_HYD>
147.25832

>  <Q_VSA_NEG>
0

>  <Q_VSA_PNEG>
0

>  <Q_VSA_POL>
0

>  <Q_VSA_POS>
147.25832

>  <Q_VSA_PPOS>
0

>  <radius>
3

>  <reactive>
0

>  <rings>
0

>  <RPC+>
0

>  <RPC->
0

>  <rsynth>
1

>  <SlogP>
-2.1226001

>  <SlogP_VSA0>
50.770454

>  <SlogP_VSA1>
15.490929

>  <SlogP_VSA2>
60.661732

>  <SlogP_VSA3>
50.770454

>  <SlogP_VSA4>
0

>  <SlogP_VSA5>
0

>  <SlogP_VSA6>
0

>  <SlogP_VSA7>
0

>  <SlogP_VSA8>
0

>  <SlogP_VSA9>
0

>  <SMR>
2.7285199

>  <SMR_VSA0>
47.724434

>  <SMR_VSA1>
50.770454

>  <SMR_VSA2>
50.770454

>  <SMR_VSA3>
12.937299

>  <SMR_VSA4>
0

>  <SMR_VSA5>
0

>  <SMR_VSA6>
15.490929

>  <SMR_VSA7>
0

>  <TPSA>
115.06

>  <VAdjEq>
0.68007702

>  <VAdjMa>
4.1699252

>  <VDistEq>
2.234777

>  <VDistMa>
6.3362417

>  <vdw_area>
147.25832

>  <vdw_vol>
148.0593

>  <vsa_acc>
0

>  <vsa_acid>
0

>  <vsa_base>
0

>  <vsa_don>
0

>  <vsa_hyd>
16.917038

>  <vsa_other>
29.416998

>  <vsa_pol>
81.401527

>  <Weight>
150.086

>  <weinerPath>
121

>  <weinerPol>
12

>  <zagreb>
42

$$$$