S(O)(=O)(=O)c1cc2c(c(O)c1N=Nc1ccc(cc1C)-c1cc(C)c(N=Nc3c(O)c4c(cc3S(O)(=O)=O)cc(S(O)(=O)=O)cc4N)cc1)c(N)cc(S(O)(=O)=O)c2
  MOE2013           2D

 58 63  0  0  0  0  0  0  0  0999 V2000
    0.0000    0.0000    0.0000 S   0  0  0  0  0  0  0  0  0  0  0  0
    0.7500    1.2990    0.0000 O   0  0  0  0  0  0  0  0  0  0  0  0
   -1.2990    0.7500    0.0000 O   0  0  0  0  0  0  0  0  0  0  0  0
    1.2990   -0.7500    0.0000 O   0  0  0  0  0  0  0  0  0  0  0  0
   -0.7500   -1.2990    0.0000 C   0  0  0  0  0  0  0  0  0  0  0  0
   -2.2500   -1.2990    0.0000 C   0  0  0  0  0  0  0  0  0  0  0  0
   -3.0000   -2.5980    0.0000 C   0  0  0  0  0  0  0  0  0  0  0  0
   -2.2500   -3.8970    0.0000 C   0  0  0  0  0  0  0  0  0  0  0  0
   -0.7500   -3.8970    0.0000 C   0  0  0  0  0  0  0  0  0  0  0  0
    0.0000   -5.1960    0.0000 O   0  0  0  0  0  0  0  0  0  0  0  0
    0.0000   -2.5980    0.0000 C   0  0  0  0  0  0  0  0  0  0  0  0
    1.5000   -2.5980    0.0000 N   0  0  0  0  0  0  0  0  0  0  0  0
    2.2500   -3.8970    0.0000 N   0  0  0  0  0  0  0  0  0  0  0  0
    3.7500   -3.8970    0.0000 C   0  0  0  0  0  0  0  0  0  0  0  0
    4.5000   -2.5980    0.0000 C   0  0  0  0  0  0  0  0  0  0  0  0
    6.0000   -2.5980    0.0000 C   0  0  0  0  0  0  0  0  0  0  0  0
    6.7500   -3.8970    0.0000 C   0  0  0  0  0  0  0  0  0  0  0  0
    6.0000   -5.1960    0.0000 C   0  0  0  0  0  0  0  0  0  0  0  0
    4.5000   -5.1960    0.0000 C   0  0  0  0  0  0  0  0  0  0  0  0
    3.7500   -6.4950    0.0000 C   0  0  0  0  0  0  0  0  0  0  0  0
    8.2500   -3.8970    0.0000 C   0  0  0  0  0  0  0  0  0  0  0  0
    9.0000   -5.1960    0.0000 C   0  0  0  0  0  0  0  0  0  0  0  0
   10.5000   -5.1960    0.0000 C   0  0  0  0  0  0  0  0  0  0  0  0
   11.2500   -6.4950    0.0000 C   0  0  0  0  0  0  0  0  0  0  0  0
   11.2500   -3.8970    0.0000 C   0  0  0  0  0  0  0  0  0  0  0  0
   12.7500   -3.8970    0.0000 N   0  0  0  0  0  0  0  0  0  0  0  0
   13.5000   -2.5980    0.0000 N   0  0  0  0  0  0  0  0  0  0  0  0
   15.0000   -2.5980    0.0000 C   0  0  0  0  0  0  0  0  0  0  0  0
   15.7500   -3.8970    0.0000 C   0  0  0  0  0  0  0  0  0  0  0  0
   15.0000   -5.1960    0.0000 O   0  0  0  0  0  0  0  0  0  0  0  0
   17.2500   -3.8970    0.0000 C   0  0  0  0  0  0  0  0  0  0  0  0
   18.0000   -2.5980    0.0000 C   0  0  0  0  0  0  0  0  0  0  0  0
   17.2500   -1.2990    0.0000 C   0  0  0  0  0  0  0  0  0  0  0  0
   15.7500   -1.2990    0.0000 C   0  0  0  0  0  0  0  0  0  0  0  0
   15.0000    0.0000    0.0000 S   0  0  0  0  0  0  0  0  0  0  0  0
   14.2500    1.2990    0.0000 O   0  0  0  0  0  0  0  0  0  0  0  0
   13.7010   -0.7500    0.0000 O   0  0  0  0  0  0  0  0  0  0  0  0
   16.2990    0.7500    0.0000 O   0  0  0  0  0  0  0  0  0  0  0  0
   19.5000   -2.5980    0.0000 C   0  0  0  0  0  0  0  0  0  0  0  0
   20.2500   -3.8970    0.0000 C   0  0  0  0  0  0  0  0  0  0  0  0
   21.7500   -3.8970    0.0000 S   0  0  0  0  0  0  0  0  0  0  0  0
   23.2500   -3.8970    0.0000 O   0  0  0  0  0  0  0  0  0  0  0  0
   21.7500   -2.3970    0.0000 O   0  0  0  0  0  0  0  0  0  0  0  0
   21.7500   -5.3970    0.0000 O   0  0  0  0  0  0  0  0  0  0  0  0
   19.5000   -5.1960    0.0000 C   0  0  0  0  0  0  0  0  0  0  0  0
   18.0000   -5.1960    0.0000 C   0  0  0  0  0  0  0  0  0  0  0  0
   17.2500   -6.4950    0.0000 N   0  0  0  0  0  0  0  0  0  0  0  0
   10.5000   -2.5980    0.0000 C   0  0  0  0  0  0  0  0  0  0  0  0
    9.0000   -2.5980    0.0000 C   0  0  0  0  0  0  0  0  0  0  0  0
   -3.0000   -5.1960    0.0000 C   0  0  0  0  0  0  0  0  0  0  0  0
   -2.2500   -6.4950    0.0000 N   0  0  0  0  0  0  0  0  0  0  0  0
   -4.5000   -5.1960    0.0000 C   0  0  0  0  0  0  0  0  0  0  0  0
   -5.2500   -3.8970    0.0000 C   0  0  0  0  0  0  0  0  0  0  0  0
   -6.7500   -3.8970    0.0000 S   0  0  0  0  0  0  0  0  0  0  0  0
   -8.2500   -3.8970    0.0000 O   0  0  0  0  0  0  0  0  0  0  0  0
   -6.7500   -5.3970    0.0000 O   0  0  0  0  0  0  0  0  0  0  0  0
   -6.7500   -2.3970    0.0000 O   0  0  0  0  0  0  0  0  0  0  0  0
   -4.5000   -2.5980    0.0000 C   0  0  0  0  0  0  0  0  0  0  0  0
  1  2  1  0  0  0  0
  1  3  2  0  0  0  0
  1  4  2  0  0  0  0
  1  5  1  0  0  0  0
  5  6  1  0  0  0  0
  5 11  2  0  0  0  0
  6  7  2  0  0  0  0
  7  8  1  0  0  0  0
  7 58  1  0  0  0  0
  8  9  2  0  0  0  0
  8 50  1  0  0  0  0
  9 10  1  0  0  0  0
  9 11  1  0  0  0  0
 11 12  1  0  0  0  0
 12 13  2  3  0  0  0
 13 14  1  0  0  0  0
 14 15  1  0  0  0  0
 14 19  2  0  0  0  0
 15 16  2  0  0  0  0
 16 17  1  0  0  0  0
 17 18  2  0  0  0  0
 17 21  1  0  0  0  0
 18 19  1  0  0  0  0
 19 20  1  0  0  0  0
 21 22  1  0  0  0  0
 21 49  2  0  0  0  0
 22 23  2  0  0  0  0
 23 24  1  0  0  0  0
 23 25  1  0  0  0  0
 25 26  1  0  0  0  0
 25 48  2  0  0  0  0
 26 27  2  3  0  0  0
 27 28  1  0  0  0  0
 28 29  1  0  0  0  0
 28 34  2  0  0  0  0
 29 30  1  0  0  0  0
 29 31  2  0  0  0  0
 31 32  1  0  0  0  0
 31 46  1  0  0  0  0
 32 33  2  0  0  0  0
 32 39  1  0  0  0  0
 33 34  1  0  0  0  0
 34 35  1  0  0  0  0
 35 36  1  0  0  0  0
 35 37  2  0  0  0  0
 35 38  2  0  0  0  0
 39 40  2  0  0  0  0
 40 41  1  0  0  0  0
 40 45  1  0  0  0  0
 41 42  1  0  0  0  0
 41 43  2  0  0  0  0
 41 44  2  0  0  0  0
 45 46  2  0  0  0  0
 46 47  1  0  0  0  0
 48 49  1  0  0  0  0
 50 51  1  0  0  0  0
 50 52  2  0  0  0  0
 52 53  1  0  0  0  0
 53 54  1  0  0  0  0
 53 58  2  0  0  0  0
 54 55  1  0  0  0  0
 54 56  2  0  0  0  0
 54 57  2  0  0  0  0
M  END
>  <Index>
1121

>  <ID>
HT2144

>  <class>
0

>  <apol>
107.9382

>  <ast_fraglike>
0

>  <ast_fraglike_ext>
0

>  <ast_violation>
4

>  <ast_violation_ext>
6

>  <a_acc>
18

>  <a_acid>
0

>  <a_aro>
32

>  <a_base>
0

>  <a_count>
86

>  <a_don>
16

>  <a_donacc>
34

>  <a_heavy>
58

>  <a_hyd>
34

>  <a_IC>
168.26636

>  <a_ICM>
1.9565855

>  <a_nB>
0

>  <a_nBr>
0

>  <a_nC>
34

>  <a_nCl>
0

>  <a_nF>
0

>  <a_nH>
28

>  <a_nI>
0

>  <a_nN>
6

>  <a_nO>
14

>  <a_nP>
0

>  <a_nS>
4

>  <balabanJ>
1.003527

>  <BCUT_PEOE_0>
-2.3218009

>  <BCUT_PEOE_1>
-0.79101574

>  <BCUT_PEOE_2>
0.72678858

>  <BCUT_PEOE_3>
2.4094944

>  <BCUT_SLOGP_0>
-2.3482084

>  <BCUT_SLOGP_1>
-0.69739145

>  <BCUT_SLOGP_2>
0.79940033

>  <BCUT_SLOGP_3>
2.5233402

>  <BCUT_SMR_0>
-2.0138407

>  <BCUT_SMR_1>
-0.53902555

>  <BCUT_SMR_2>
0.9491024

>  <BCUT_SMR_3>
2.7202733

>  <bpol>
57.833797

>  <b_1rotN>
9

>  <b_1rotR>
0.14285715

>  <b_ar>
34

>  <b_count>
91

>  <b_double>
2

>  <b_heavy>
63

>  <b_max1len>
3

>  <b_rotN>
9

>  <b_rotR>
0.14285715

>  <b_single>
55

>  <b_triple>
0

>  <chi0>
42.860714

>  <chi0v>
32.720005

>  <chi0v_C>
18.928204

>  <chi0_C>
22.032288

>  <chi1>
26.750095

>  <chi1v>
21.64954

>  <chi1v_C>
10.690169

>  <chi1_C>
14.653

>  <chiral>
0

>  <chiral_u>
0

>  <density>
0.91990596

>  <diameter>
27

>  <FCharge>
0

>  <GCUT_PEOE_0>
-0.8055526

>  <GCUT_PEOE_1>
-0.48727712

>  <GCUT_PEOE_2>
0.12365358

>  <GCUT_PEOE_3>
2.7986236

>  <GCUT_SLOGP_0>
-1.334426

>  <GCUT_SLOGP_1>
-0.39534938

>  <GCUT_SLOGP_2>
0.18806857

>  <GCUT_SLOGP_3>
2.9567945

>  <GCUT_SMR_0>
-0.4788816

>  <GCUT_SMR_1>
-0.19848895

>  <GCUT_SMR_2>
0.34144446

>  <GCUT_SMR_3>
3.0898383

>  <Kier1>
47.478458

>  <Kier2>
17.8752

>  <Kier3>
10.527344

>  <KierA1>
40.007858

>  <KierA2>
15.015524

>  <KierA3>
8.8241777

>  <KierFlex>
10.357568

>  <lip_acc>
20

>  <lip_don>
10

>  <lip_druglike>
0

>  <lip_violation>
4

>  <logP(o/w)>
4.822

>  <logS>
-10.5917

>  <mr>
20.57267

>  <mutagenic>
1

>  <nmol>
1

>  <opr_brigid>
36

>  <opr_leadlike>
0

>  <opr_nring>
6

>  <opr_nrot>
9

>  <opr_violation>
5

>  <PC+>
0

>  <PC->
0

>  <PEOE_PC+>
5.2486567

>  <PEOE_PC->
-5.2486567

>  <PEOE_RPC+>
0.062357549

>  <PEOE_RPC->
0.067984261

>  <PEOE_VSA+0>
47.825577

>  <PEOE_VSA+1>
179.40985

>  <PEOE_VSA+2>
97.444221

>  <PEOE_VSA+3>
0

>  <PEOE_VSA+4>
34.047447

>  <PEOE_VSA+5>
8.3692026

>  <PEOE_VSA+6>
8.3692026

>  <PEOE_VSA-0>
95.349129

>  <PEOE_VSA-1>
24.509808

>  <PEOE_VSA-2>
37.684158

>  <PEOE_VSA-3>
0

>  <PEOE_VSA-4>
128.06609

>  <PEOE_VSA-5>
40.835526

>  <PEOE_VSA-6>
28.837318

>  <PEOE_VSA_FHYD>
0.65990335

>  <PEOE_VSA_FNEG>
0.48618984

>  <PEOE_VSA_FPNEG>
0.27059814

>  <PEOE_VSA_FPOL>
0.34009665

>  <PEOE_VSA_FPOS>
0.51381016

>  <PEOE_VSA_FPPOS>
0.069498494

>  <PEOE_VSA_HYD>
482.22275

>  <PEOE_VSA_NEG>
355.28204

>  <PEOE_VSA_PNEG>
197.73894

>  <PEOE_VSA_POL>
248.5248

>  <PEOE_VSA_POS>
375.46552

>  <PEOE_VSA_PPOS>
50.785854

>  <petitjean>
0.48148149

>  <petitjeanSC>
0.9285714

>  <Q_PC+>
0

>  <Q_PC->
0

>  <Q_RPC+>
0

>  <Q_RPC->
0

>  <Q_VSA_FHYD>
1

>  <Q_VSA_FNEG>
0

>  <Q_VSA_FPNEG>
0

>  <Q_VSA_FPOL>
0

>  <Q_VSA_FPOS>
1

>  <Q_VSA_FPPOS>
0

>  <Q_VSA_HYD>
730.74756

>  <Q_VSA_NEG>
0

>  <Q_VSA_PNEG>
0

>  <Q_VSA_POL>
0

>  <Q_VSA_POS>
730.74756

>  <Q_VSA_PPOS>
0

>  <radius>
14

>  <reactive>
1

>  <rings>
6

>  <RPC+>
0

>  <RPC->
0

>  <rsynth>
0.37931034

>  <SlogP>
4.4072399

>  <SlogP_VSA0>
208.28784

>  <SlogP_VSA1>
192.68675

>  <SlogP_VSA2>
34.332596

>  <SlogP_VSA3>
0

>  <SlogP_VSA4>
6.37115

>  <SlogP_VSA5>
72.854965

>  <SlogP_VSA6>
0

>  <SlogP_VSA7>
228.38123

>  <SlogP_VSA8>
0

>  <SlogP_VSA9>
93.679375

>  <SMR>
20.73728

>  <SMR_VSA0>
192.68675

>  <SMR_VSA1>
209.14549

>  <SMR_VSA2>
6.2029357

>  <SMR_VSA3>
16.858006

>  <SMR_VSA4>
33.203491

>  <SMR_VSA5>
277.51257

>  <SMR_VSA6>
0

>  <SMR_VSA7>
100.98463

>  <TPSA>
359.42001

>  <VAdjEq>
0.23050116

>  <VAdjMa>
6.9772801

>  <VDistEq>
4.5428801

>  <VDistMa>
11.386167

>  <vdw_area>
730.74756

>  <vdw_vol>
948.89044

>  <vsa_acc>
37.684158

>  <vsa_acid>
0

>  <vsa_base>
0

>  <vsa_don>
35.484978

>  <vsa_hyd>
340.03992

>  <vsa_other>
46.051132

>  <vsa_pol>
292.40213

>  <Weight>
872.89001

>  <weinerPath>
17325

>  <weinerPol>
110

>  <zagreb>
326

$$$$