O1c2c(CC[C@@]1(CCC[C@@H](CCC[C@@H](CCCC(C)C)C)C)C)c(C)c(OC(=O)C)c(C)c2C
  MOE2013           2D

 34 35  0  0  1  0  0  0  0  0999 V2000
    0.0000    0.0000    0.0000 O   0  0  0  0  0  0  0  0  0  0  0  0
   -1.5000    0.0030    0.0000 C   0  0  0  0  0  0  0  0  0  0  0  0
   -2.2530   -1.2950    0.0000 C   0  0  0  0  0  0  0  0  0  0  0  0
   -1.5050   -2.5950    0.0000 C   0  0  0  0  0  0  0  0  0  0  0  0
   -0.0050   -2.5980    0.0000 C   0  0  0  0  0  0  0  0  0  0  0  0
    0.7470   -1.3000    0.0000 C   0  0  2  0  0  0  0  0  0  0  0  0
    2.0480   -0.5530    0.0000 C   0  0  0  0  0  0  0  0  0  0  0  0
    3.3460   -1.3060    0.0000 C   0  0  0  0  0  0  0  0  0  0  0  0
    4.6460   -0.5580    0.0000 C   0  0  0  0  0  0  0  0  0  0  0  0
    5.9440   -1.3110    0.0000 C   0  0  1  0  0  0  0  0  0  0  0  0
    7.2440   -0.5630    0.0000 C   0  0  0  0  0  0  0  0  0  0  0  0
    8.5420   -1.3160    0.0000 C   0  0  0  0  0  0  0  0  0  0  0  0
    9.8420   -0.5680    0.0000 C   0  0  0  0  0  0  0  0  0  0  0  0
   11.1400   -1.3210    0.0000 C   0  0  1  0  0  0  0  0  0  0  0  0
   11.1370   -2.8210    0.0000 C   0  0  0  0  0  0  0  0  0  0  0  0
   12.4340   -3.5730    0.0000 C   0  0  0  0  0  0  0  0  0  0  0  0
   12.4320   -5.0730    0.0000 C   0  0  0  0  0  0  0  0  0  0  0  0
   13.7290   -5.8260    0.0000 C   0  0  0  0  0  0  0  0  0  0  0  0
   15.0300   -5.0780    0.0000 C   0  0  0  0  0  0  0  0  0  0  0  0
   13.7260   -7.3260    0.0000 C   0  0  0  0  0  0  0  0  0  0  0  0
   12.4400   -0.5730    0.0000 C   0  0  0  0  0  0  0  0  0  0  0  0
    5.9410   -2.8110    0.0000 C   0  0  0  0  0  0  0  0  0  0  0  0
    2.0450   -2.0530    0.0000 C   0  0  0  0  0  0  0  0  0  0  0  0
   -3.7530   -1.2920    0.0000 C   0  0  0  0  0  0  0  0  0  0  0  0
   -4.5050   -2.5890    0.0000 C   0  0  0  0  0  0  0  0  0  0  0  0
   -4.5000    0.0090    0.0000 C   0  0  0  0  0  0  0  0  0  0  0  0
   -6.0000    0.0120    0.0000 O   0  0  0  0  0  0  0  0  0  0  0  0
   -6.7470    1.3120    0.0000 C   0  0  0  0  0  0  0  0  0  0  0  0
   -5.9950    2.6100    0.0000 O   0  0  0  0  0  0  0  0  0  0  0  0
   -8.2470    1.3150    0.0000 C   0  0  0  0  0  0  0  0  0  0  0  0
   -3.7470    1.3060    0.0000 C   0  0  0  0  0  0  0  0  0  0  0  0
   -4.4950    2.6070    0.0000 C   0  0  0  0  0  0  0  0  0  0  0  0
   -2.2470    1.3030    0.0000 C   0  0  0  0  0  0  0  0  0  0  0  0
   -1.4950    2.6010    0.0000 C   0  0  0  0  0  0  0  0  0  0  0  0
  1  2  1  0  0  0  0
  1  6  1  0  0  0  0
  2  3  1  0  0  0  0
  2 33  2  0  0  0  0
  3  4  1  0  0  0  0
  3 24  2  0  0  0  0
  4  5  1  0  0  0  0
  5  6  1  0  0  0  0
  6  7  1  1  0  0  0
  6 23  1  6  0  0  0
  7  8  1  0  0  0  0
  8  9  1  0  0  0  0
  9 10  1  0  0  0  0
 10 11  1  0  0  0  0
 10 22  1  1  0  0  0
 11 12  1  0  0  0  0
 12 13  1  0  0  0  0
 13 14  1  0  0  0  0
 14 15  1  0  0  0  0
 14 21  1  6  0  0  0
 15 16  1  0  0  0  0
 16 17  1  0  0  0  0
 17 18  1  0  0  0  0
 18 19  1  0  0  0  0
 18 20  1  0  0  0  0
 24 25  1  0  0  0  0
 24 26  1  0  0  0  0
 26 27  1  0  0  0  0
 26 31  2  0  0  0  0
 27 28  1  0  0  0  0
 28 29  2  0  0  0  0
 28 30  1  0  0  0  0
 31 32  1  0  0  0  0
 31 33  1  0  0  0  0
 33 34  1  0  0  0  0
M  END
>  <Index>
1084

>  <ID>
HT2076

>  <class>
0

>  <apol>
91.639236

>  <ast_fraglike>
0

>  <ast_fraglike_ext>
0

>  <ast_violation>
2

>  <ast_violation_ext>
3

>  <a_acc>
2

>  <a_acid>
0

>  <a_aro>
6

>  <a_base>
0

>  <a_count>
86

>  <a_don>
0

>  <a_donacc>
2

>  <a_heavy>
34

>  <a_hyd>
30

>  <a_IC>
97.900932

>  <a_ICM>
1.1383829

>  <a_nB>
0

>  <a_nBr>
0

>  <a_nC>
31

>  <a_nCl>
0

>  <a_nF>
0

>  <a_nH>
52

>  <a_nI>
0

>  <a_nN>
0

>  <a_nO>
3

>  <a_nP>
0

>  <a_nS>
0

>  <balabanJ>
1.7200551

>  <BCUT_PEOE_0>
-2.7968211

>  <BCUT_PEOE_1>
-0.076819584

>  <BCUT_PEOE_2>
0.033034816

>  <BCUT_PEOE_3>
2.7437966

>  <BCUT_SLOGP_0>
-2.7162097

>  <BCUT_SLOGP_1>
0.013603894

>  <BCUT_SLOGP_2>
0.123

>  <BCUT_SLOGP_3>
2.8666198

>  <BCUT_SMR_0>
-2.5441585

>  <BCUT_SMR_1>
0.1057

>  <BCUT_SMR_2>
0.13150364

>  <BCUT_SMR_3>
2.9947453

>  <bpol>
61.636765

>  <b_1rotN>
13

>  <b_1rotR>
0.37142858

>  <b_ar>
6

>  <b_count>
87

>  <b_double>
1

>  <b_heavy>
35

>  <b_max1len>
16

>  <b_rotN>
14

>  <b_rotR>
0.40000001

>  <b_single>
80

>  <b_triple>
0

>  <chi0>
25.465891

>  <chi0v>
23.73497

>  <chi0v_C>
22.510225

>  <chi0_C>
23.051678

>  <chi1>
15.931047

>  <chi1v>
13.931924

>  <chi1v_C>
12.911303

>  <chi1_C>
13.775398

>  <chiral>
3

>  <chiral_u>
0

>  <density>
0.63185096

>  <diameter>
21

>  <FCharge>
0

>  <GCUT_PEOE_0>
-0.80730695

>  <GCUT_PEOE_1>
-0.28556749

>  <GCUT_PEOE_2>
-0.12696518

>  <GCUT_PEOE_3>
3.0694458

>  <GCUT_SLOGP_0>
-0.91120845

>  <GCUT_SLOGP_1>
-0.16737132

>  <GCUT_SLOGP_2>
-0.037

>  <GCUT_SLOGP_3>
3.1894388

>  <GCUT_SMR_0>
-0.53888142

>  <GCUT_SMR_1>
-0.073181503

>  <GCUT_SMR_2>
-0.054299999

>  <GCUT_SMR_3>
3.3008335

>  <Kier1>
30.225306

>  <Kier2>
14.074136

>  <Kier3>
9.4363852

>  <KierA1>
27.381012

>  <KierA2>
12.710121

>  <KierA3>
8.5032425

>  <KierFlex>
10.235765

>  <lip_acc>
3

>  <lip_don>
0

>  <lip_druglike>
1

>  <lip_violation>
1

>  <logP(o/w)>
10.446

>  <logS>
-10.7251

>  <mr>
14.373613

>  <mutagenic>
0

>  <nmol>
1

>  <opr_brigid>
11

>  <opr_leadlike>
0

>  <opr_nring>
2

>  <opr_nrot>
14

>  <opr_violation>
3

>  <PC+>
0

>  <PC->
0

>  <PEOE_PC+>
1.938621

>  <PEOE_PC->
-1.938621

>  <PEOE_RPC+>
0.13618529

>  <PEOE_RPC->
0.17434485

>  <PEOE_VSA+0>
240.54774

>  <PEOE_VSA+1>
16.917038

>  <PEOE_VSA+2>
0

>  <PEOE_VSA+3>
0

>  <PEOE_VSA+4>
0

>  <PEOE_VSA+5>
14.708499

>  <PEOE_VSA+6>
0

>  <PEOE_VSA-0>
109.92881

>  <PEOE_VSA-1>
144.60121

>  <PEOE_VSA-2>
0

>  <PEOE_VSA-3>
0

>  <PEOE_VSA-4>
0

>  <PEOE_VSA-5>
16.070677

>  <PEOE_VSA-6>
2.503756

>  <PEOE_VSA_FHYD>
0.93896151

>  <PEOE_VSA_FNEG>
0.50085384

>  <PEOE_VSA_FPNEG>
0.03406417

>  <PEOE_VSA_FPOL>
0.061038494

>  <PEOE_VSA_FPOS>
0.49914616

>  <PEOE_VSA_FPPOS>
0.026974326

>  <PEOE_VSA_HYD>
511.99481

>  <PEOE_VSA_NEG>
273.10446

>  <PEOE_VSA_PNEG>
18.574432

>  <PEOE_VSA_POL>
33.282932

>  <PEOE_VSA_POS>
272.17328

>  <PEOE_VSA_PPOS>
14.708499

>  <petitjean>
0.47619048

>  <petitjeanSC>
0.90909094

>  <Q_PC+>
0

>  <Q_PC->
0

>  <Q_RPC+>
0

>  <Q_RPC->
0

>  <Q_VSA_FHYD>
1

>  <Q_VSA_FNEG>
0

>  <Q_VSA_FPNEG>
0

>  <Q_VSA_FPOL>
0

>  <Q_VSA_FPOS>
1

>  <Q_VSA_FPPOS>
0

>  <Q_VSA_HYD>
545.27777

>  <Q_VSA_NEG>
0

>  <Q_VSA_PNEG>
0

>  <Q_VSA_POL>
0

>  <Q_VSA_POS>
545.27777

>  <Q_VSA_PPOS>
0

>  <radius>
11

>  <reactive>
0

>  <rings>
2

>  <RPC+>
0

>  <RPC->
0

>  <rsynth>
0.11764706

>  <SlogP>
9.0599298

>  <SlogP_VSA0>
21.999775

>  <SlogP_VSA1>
7.7454643

>  <SlogP_VSA2>
23.862217

>  <SlogP_VSA3>
0

>  <SlogP_VSA4>
25.974688

>  <SlogP_VSA5>
18.868406

>  <SlogP_VSA6>
0

>  <SlogP_VSA7>
0

>  <SlogP_VSA8>
188.68405

>  <SlogP_VSA9>
310.42099

>  <SMR>
14.4035

>  <SMR_VSA0>
23.862217

>  <SMR_VSA1>
21.999775

>  <SMR_VSA2>
13.232388

>  <SMR_VSA3>
23.229156

>  <SMR_VSA4>
0

>  <SMR_VSA5>
207.55246

>  <SMR_VSA6>
7.7454643

>  <SMR_VSA7>
299.93414

>  <TPSA>
35.529999

>  <VAdjEq>
0.32963872

>  <VAdjMa>
6.129283

>  <VDistEq>
4.1432014

>  <VDistMa>
9.8254366

>  <vdw_area>
545.27777

>  <vdw_vol>
748.2049

>  <vsa_acc>
16.070677

>  <vsa_acid>
0

>  <vsa_base>
0

>  <vsa_don>
0

>  <vsa_hyd>
470.94629

>  <vsa_other>
17.212255

>  <vsa_pol>
16.070677

>  <Weight>
472.754

>  <weinerPath>
4371

>  <weinerPol>
52

>  <zagreb>
168

$$$$