S[C@@H]([C@@H](S)C(O)=O)C(O)=O
  MOE2013           2D

 10  9  0  0  1  0  0  0  0  0999 V2000
    0.0000    0.0000    0.0000 S   0  0  0  0  0  0  0  0  0  0  0  0
    0.7550   -1.2960    0.0000 C   0  0  1  0  0  0  0  0  0  0  0  0
    0.0110   -2.5980    0.0000 C   0  0  1  0  0  0  0  0  0  0  0  0
    0.7660   -3.8940    0.0000 S   0  0  0  0  0  0  0  0  0  0  0  0
   -1.4890   -2.6040    0.0000 C   0  0  0  0  0  0  0  0  0  0  0  0
   -2.2340   -3.9060    0.0000 O   0  0  0  0  0  0  0  0  0  0  0  0
   -2.2450   -1.3080    0.0000 O   0  0  0  0  0  0  0  0  0  0  0  0
    2.2550   -1.2900    0.0000 C   0  0  0  0  0  0  0  0  0  0  0  0
    3.0110   -2.5860    0.0000 O   0  0  0  0  0  0  0  0  0  0  0  0
    3.0000    0.0120    0.0000 O   0  0  0  0  0  0  0  0  0  0  0  0
  2  1  1  6  0  0  0
  2  3  1  0  0  0  0
  2  8  1  0  0  0  0
  3  4  1  1  0  0  0
  3  5  1  0  0  0  0
  5  6  1  0  0  0  0
  5  7  2  0  0  0  0
  8  9  1  0  0  0  0
  8 10  2  0  0  0  0
M  END
>  <Index>
1003

>  <ID>
HT1923

>  <class>
0

>  <apol>
20.048758

>  <ast_fraglike>
0

>  <ast_fraglike_ext>
0

>  <ast_violation>
2

>  <ast_violation_ext>
2

>  <a_acc>
4

>  <a_acid>
0

>  <a_aro>
0

>  <a_base>
0

>  <a_count>
16

>  <a_don>
4

>  <a_donacc>
8

>  <a_heavy>
10

>  <a_hyd>
2

>  <a_IC>
30.490225

>  <a_ICM>
1.9056391

>  <a_nB>
0

>  <a_nBr>
0

>  <a_nC>
4

>  <a_nCl>
0

>  <a_nF>
0

>  <a_nH>
6

>  <a_nI>
0

>  <a_nN>
0

>  <a_nO>
4

>  <a_nP>
0

>  <a_nS>
2

>  <balabanJ>
3.849673

>  <BCUT_PEOE_0>
-2.3924637

>  <BCUT_PEOE_1>
-0.63375032

>  <BCUT_PEOE_2>
0.69373822

>  <BCUT_PEOE_3>
2.5412357

>  <BCUT_SLOGP_0>
-2.5719945

>  <BCUT_SLOGP_1>
-0.66896987

>  <BCUT_SLOGP_2>
0.67733526

>  <BCUT_SLOGP_3>
2.4251904

>  <BCUT_SMR_0>
-2.1288252

>  <BCUT_SMR_1>
-0.42764285

>  <BCUT_SMR_2>
0.83945334

>  <BCUT_SMR_3>
2.8180103

>  <bpol>
13.035242

>  <b_1rotN>
3

>  <b_1rotR>
0.33333334

>  <b_ar>
0

>  <b_count>
15

>  <b_double>
2

>  <b_heavy>
9

>  <b_max1len>
5

>  <b_rotN>
3

>  <b_rotR>
0.33333334

>  <b_single>
13

>  <b_triple>
0

>  <chi0>
8.3094015

>  <chi0v>
6.5489058

>  <chi0v_C>
2.1547005

>  <chi0_C>
2.309401

>  <chi1>
4.4641018

>  <chi1v>
3.3153389

>  <chi1v_C>
0.91068363

>  <chi1_C>
1

>  <chiral>
2

>  <chiral_u>
0

>  <density>
1.0493093

>  <diameter>
5

>  <FCharge>
0

>  <GCUT_PEOE_0>
-0.7035405

>  <GCUT_PEOE_1>
-0.50262201

>  <GCUT_PEOE_2>
0.19119225

>  <GCUT_PEOE_3>
2.0165358

>  <GCUT_SLOGP_0>
-0.93797052

>  <GCUT_SLOGP_1>
-0.45806512

>  <GCUT_SLOGP_2>
0.17306802

>  <GCUT_SLOGP_3>
1.9624059

>  <GCUT_SMR_0>
-0.44509584

>  <GCUT_SMR_1>
-0.21673498

>  <GCUT_SMR_2>
0.29098743

>  <GCUT_SMR_3>
2.3090267

>  <Kier1>
10

>  <Kier2>
4

>  <Kier3>
3.1111112

>  <KierA1>
11.344987

>  <KierA2>
4.6059999

>  <KierA3>
3.6259999

>  <KierFlex>
5.2255011

>  <lip_acc>
4

>  <lip_don>
2

>  <lip_druglike>
1

>  <lip_violation>
0

>  <logP(o/w)>
0.44400001

>  <logS>
-1.55914

>  <mr>
3.933181

>  <mutagenic>
0

>  <nmol>
1

>  <opr_brigid>
0

>  <opr_leadlike>
1

>  <opr_nring>
0

>  <opr_nrot>
3

>  <opr_violation>
0

>  <PC+>
0

>  <PC->
0

>  <PEOE_PC+>
1.5150839

>  <PEOE_PC->
-1.5150839

>  <PEOE_RPC+>
0.18082576

>  <PEOE_RPC->
0.21807946

>  <PEOE_VSA+0>
0

>  <PEOE_VSA+1>
8.5307722

>  <PEOE_VSA+2>
16.824215

>  <PEOE_VSA+3>
0

>  <PEOE_VSA+4>
20.648346

>  <PEOE_VSA+5>
29.416998

>  <PEOE_VSA+6>
0

>  <PEOE_VSA-0>
0

>  <PEOE_VSA-1>
0

>  <PEOE_VSA-2>
0

>  <PEOE_VSA-3>
52.725979

>  <PEOE_VSA-4>
0

>  <PEOE_VSA-5>
27.133842

>  <PEOE_VSA-6>
15.535081

>  <PEOE_VSA_FHYD>
0.45710775

>  <PEOE_VSA_FNEG>
0.55846834

>  <PEOE_VSA_FPNEG>
0.24979576

>  <PEOE_VSA_FPOL>
0.54289228

>  <PEOE_VSA_FPOS>
0.44153166

>  <PEOE_VSA_FPPOS>
0.29309648

>  <PEOE_VSA_HYD>
78.080963

>  <PEOE_VSA_NEG>
95.394897

>  <PEOE_VSA_PNEG>
42.668922

>  <PEOE_VSA_POL>
92.734268

>  <PEOE_VSA_POS>
75.420334

>  <PEOE_VSA_PPOS>
50.065342

>  <petitjean>
0.40000001

>  <petitjeanSC>
0.66666669

>  <Q_PC+>
0

>  <Q_PC->
0

>  <Q_RPC+>
0

>  <Q_RPC->
0

>  <Q_VSA_FHYD>
1

>  <Q_VSA_FNEG>
0

>  <Q_VSA_FPNEG>
0

>  <Q_VSA_FPOL>
0

>  <Q_VSA_FPOS>
1

>  <Q_VSA_FPPOS>
0

>  <Q_VSA_HYD>
170.81523

>  <Q_VSA_NEG>
0

>  <Q_VSA_PNEG>
0

>  <Q_VSA_POL>
0

>  <Q_VSA_POS>
170.81523

>  <Q_VSA_PPOS>
0

>  <radius>
3

>  <reactive>
1

>  <rings>
0

>  <RPC+>
0

>  <RPC->
0

>  <rsynth>
1

>  <SlogP>
-0.2476

>  <SlogP_VSA0>
0

>  <SlogP_VSA1>
15.490929

>  <SlogP_VSA2>
53.276344

>  <SlogP_VSA3>
50.770454

>  <SlogP_VSA4>
0

>  <SlogP_VSA5>
0

>  <SlogP_VSA6>
0

>  <SlogP_VSA7>
0

>  <SlogP_VSA8>
92.214218

>  <SlogP_VSA9>
0

>  <SMR>
4.08216

>  <SMR_VSA0>
47.724434

>  <SMR_VSA1>
0

>  <SMR_VSA2>
50.770454

>  <SMR_VSA3>
5.5519104

>  <SMR_VSA4>
0

>  <SMR_VSA5>
0

>  <SMR_VSA6>
15.490929

>  <SMR_VSA7>
92.214218

>  <TPSA>
152.2

>  <VAdjEq>
0.68007702

>  <VAdjMa>
4.1699252

>  <VDistEq>
2.234777

>  <VDistMa>
6.3362417

>  <vdw_area>
170.81523

>  <vdw_vol>
173.6571

>  <vsa_acc>
0

>  <vsa_acid>
0

>  <vsa_base>
0

>  <vsa_don>
0

>  <vsa_hyd>
8.3692026

>  <vsa_other>
92.18602

>  <vsa_pol>
54.267685

>  <Weight>
182.22

>  <weinerPath>
121

>  <weinerPol>
12

>  <zagreb>
42

$$$$