N1CCN=C1Cc1cc2c(cc1)cccc2
  MOE2013           2D

 16 18  0  0  0  0  0  0  0  0999 V2000
    0.0000    0.0000    0.0000 N   0  0  0  0  0  0  0  0  0  0  0  0
    1.0270    1.0930    0.0000 C   0  0  0  0  0  0  0  0  0  0  0  0
    0.3050    2.4080    0.0000 C   0  0  0  0  0  0  0  0  0  0  0  0
   -1.1690    2.1270    0.0000 N   0  0  0  0  0  0  0  0  0  0  0  0
   -1.3570    0.6390    0.0000 C   0  0  0  0  0  0  0  0  0  0  0  0
   -2.6720   -0.0830    0.0000 C   0  0  0  0  0  0  0  0  0  0  0  0
   -3.9550    0.6940    0.0000 C   0  0  0  0  0  0  0  0  0  0  0  0
   -5.2690   -0.0280    0.0000 C   0  0  0  0  0  0  0  0  0  0  0  0
   -6.5520    0.7500    0.0000 C   0  0  0  0  0  0  0  0  0  0  0  0
   -6.5200    2.2490    0.0000 C   0  0  0  0  0  0  0  0  0  0  0  0
   -5.2050    2.9710    0.0000 C   0  0  0  0  0  0  0  0  0  0  0  0
   -3.9230    2.1940    0.0000 C   0  0  0  0  0  0  0  0  0  0  0  0
   -7.8030    3.0270    0.0000 C   0  0  0  0  0  0  0  0  0  0  0  0
   -9.1180    2.3050    0.0000 C   0  0  0  0  0  0  0  0  0  0  0  0
   -9.1500    0.8050    0.0000 C   0  0  0  0  0  0  0  0  0  0  0  0
   -7.8670    0.0270    0.0000 C   0  0  0  0  0  0  0  0  0  0  0  0
  1  2  1  0  0  0  0
  1  5  1  0  0  0  0
  2  3  1  0  0  0  0
  3  4  1  0  0  0  0
  4  5  2  0  0  0  0
  5  6  1  0  0  0  0
  6  7  1  0  0  0  0
  7  8  1  0  0  0  0
  7 12  2  0  0  0  0
  8  9  2  0  0  0  0
  9 10  1  0  0  0  0
  9 16  1  0  0  0  0
 10 11  2  0  0  0  0
 10 13  1  0  0  0  0
 11 12  1  0  0  0  0
 13 14  2  0  0  0  0
 14 15  1  0  0  0  0
 15 16  2  0  0  0  0
M  END
>  <Index>
1266

>  <ID>
HT2903

>  <class>
0

>  <apol>
36.175102

>  <ast_fraglike>
1

>  <ast_fraglike_ext>
1

>  <ast_violation>
0

>  <ast_violation_ext>
0

>  <a_acc>
1

>  <a_acid>
0

>  <a_aro>
10

>  <a_base>
0

>  <a_count>
30

>  <a_don>
1

>  <a_donacc>
2

>  <a_heavy>
16

>  <a_hyd>
13

>  <a_IC>
38.60078

>  <a_ICM>
1.2866926

>  <a_nB>
0

>  <a_nBr>
0

>  <a_nC>
14

>  <a_nCl>
0

>  <a_nF>
0

>  <a_nH>
14

>  <a_nI>
0

>  <a_nN>
2

>  <a_nO>
0

>  <a_nP>
0

>  <a_nS>
0

>  <balabanJ>
1.5077223

>  <BCUT_PEOE_0>
-2.4167628

>  <BCUT_PEOE_1>
-0.5950051

>  <BCUT_PEOE_2>
0.65090394

>  <BCUT_PEOE_3>
2.5001101

>  <BCUT_SLOGP_0>
-2.615205

>  <BCUT_SLOGP_1>
-0.48850152

>  <BCUT_SLOGP_2>
0.75354397

>  <BCUT_SLOGP_3>
2.4359446

>  <BCUT_SMR_0>
-2.1389253

>  <BCUT_SMR_1>
-0.45448601

>  <BCUT_SMR_2>
0.79904372

>  <BCUT_SMR_3>
2.7905045

>  <bpol>
17.284899

>  <b_1rotN>
2

>  <b_1rotR>
0.11111111

>  <b_ar>
11

>  <b_count>
32

>  <b_double>
1

>  <b_heavy>
18

>  <b_max1len>
2

>  <b_rotN>
2

>  <b_rotR>
0.11111111

>  <b_single>
20

>  <b_triple>
0

>  <chi0>
10.794683

>  <chi0v>
9.1099854

>  <chi0v_C>
8.1627722

>  <chi0_C>
9.3804693

>  <chi1>
7.9158163

>  <chi1v>
5.6658788

>  <chi1v_C>
4.522491

>  <chi1_C>
6.0993195

>  <chiral>
0

>  <chiral_u>
0

>  <density>
0.67734623

>  <diameter>
9

>  <FCharge>
0

>  <GCUT_PEOE_0>
-0.86311978

>  <GCUT_PEOE_1>
-0.42042258

>  <GCUT_PEOE_2>
0.076561406

>  <GCUT_PEOE_3>
2.4102874

>  <GCUT_SLOGP_0>
-1.166368

>  <GCUT_SLOGP_1>
-0.32727638

>  <GCUT_SLOGP_2>
0.16015838

>  <GCUT_SLOGP_3>
2.5228148

>  <GCUT_SMR_0>
-0.50483996

>  <GCUT_SMR_1>
-0.19909164

>  <GCUT_SMR_2>
0.18651776

>  <GCUT_SMR_3>
2.7240217

>  <Kier1>
11.111111

>  <Kier2>
5.1041665

>  <Kier3>
2.6514049

>  <KierA1>
7.6874018

>  <KierA2>
3.4355025

>  <KierA3>
1.7478706

>  <KierFlex>
1.6506305

>  <lip_acc>
2

>  <lip_don>
1

>  <lip_druglike>
1

>  <lip_violation>
0

>  <logP(o/w)>
2.5840001

>  <logS>
-3.7139699

>  <mr>
6.566411

>  <mutagenic>
0

>  <nmol>
1

>  <opr_brigid>
16

>  <opr_leadlike>
1

>  <opr_nring>
3

>  <opr_nrot>
2

>  <opr_violation>
0

>  <PC+>
0

>  <PC->
0

>  <PEOE_PC+>
1.1078149

>  <PEOE_PC->
-1.1078149

>  <PEOE_RPC+>
0.14515314

>  <PEOE_RPC->
0.33516854

>  <PEOE_VSA+0>
30.42441

>  <PEOE_VSA+1>
60.111572

>  <PEOE_VSA+2>
11.190562

>  <PEOE_VSA+3>
8.6190128

>  <PEOE_VSA+4>
0

>  <PEOE_VSA+5>
0

>  <PEOE_VSA+6>
0

>  <PEOE_VSA-0>
6.6256189

>  <PEOE_VSA-1>
85.784325

>  <PEOE_VSA-2>
0

>  <PEOE_VSA-3>
0

>  <PEOE_VSA-4>
0

>  <PEOE_VSA-5>
5.6825762

>  <PEOE_VSA-6>
0.13689101

>  <PEOE_VSA_FHYD>
0.97209895

>  <PEOE_VSA_FNEG>
0.47095495

>  <PEOE_VSA_FPNEG>
0.027901081

>  <PEOE_VSA_FPOL>
0.027901081

>  <PEOE_VSA_FPOS>
0.52904505

>  <PEOE_VSA_FPPOS>
0

>  <PEOE_VSA_HYD>
202.75551

>  <PEOE_VSA_NEG>
98.229416

>  <PEOE_VSA_PNEG>
5.8194671

>  <PEOE_VSA_POL>
5.8194671

>  <PEOE_VSA_POS>
110.34556

>  <PEOE_VSA_PPOS>
0

>  <petitjean>
0.44444445

>  <petitjeanSC>
0.80000001

>  <Q_PC+>
0

>  <Q_PC->
0

>  <Q_RPC+>
0

>  <Q_RPC->
0

>  <Q_VSA_FHYD>
1

>  <Q_VSA_FNEG>
0

>  <Q_VSA_FPNEG>
0

>  <Q_VSA_FPOL>
0

>  <Q_VSA_FPOS>
1

>  <Q_VSA_FPPOS>
0

>  <Q_VSA_HYD>
208.57497

>  <Q_VSA_NEG>
0

>  <Q_VSA_PNEG>
0

>  <Q_VSA_POL>
0

>  <Q_VSA_POS>
208.57497

>  <Q_VSA_PPOS>
0

>  <radius>
5

>  <reactive>
0

>  <rings>
3

>  <RPC+>
0

>  <RPC->
0

>  <rsynth>
1

>  <SlogP>
2.38397

>  <SlogP_VSA0>
18.01075

>  <SlogP_VSA1>
2.3279202

>  <SlogP_VSA2>
0

>  <SlogP_VSA3>
36.879158

>  <SlogP_VSA4>
3.185575

>  <SlogP_VSA5>
35.653934

>  <SlogP_VSA6>
0

>  <SlogP_VSA7>
128.64822

>  <SlogP_VSA8>
0

>  <SlogP_VSA9>
0

>  <SMR>
6.79567

>  <SMR_VSA0>
0

>  <SMR_VSA1>
16.78553

>  <SMR_VSA2>
18.01075

>  <SMR_VSA3>
3.185575

>  <SMR_VSA4>
5.1459289

>  <SMR_VSA5>
142.3707

>  <SMR_VSA6>
39.207077

>  <SMR_VSA7>
0

>  <TPSA>
24.389999

>  <VAdjEq>
0.58587331

>  <VAdjMa>
5.1699252

>  <VDistEq>
2.9657896

>  <VDistMa>
7.6711245

>  <vdw_area>
208.57497

>  <vdw_vol>
310.44684

>  <vsa_acc>
5.6825762

>  <vsa_acid>
0

>  <vsa_base>
0

>  <vsa_don>
5.6825762

>  <vsa_hyd>
173.69258

>  <vsa_other>
11.190562

>  <vsa_pol>
11.365152

>  <Weight>
210.28

>  <weinerPath>
455

>  <weinerPol>
20

>  <zagreb>
84

$$$$