S(=O)(=O)(NC(=O)NC(C)C)c1cnccc1Nc1cc(ccc1)C
  MOE2013           2D

 24 25  0  0  0  0  0  0  0  0999 V2000
    0.0000    0.0000    0.0000 S   0  0  0  0  0  0  0  0  0  0  0  0
    1.3050    0.7390    0.0000 O   0  0  0  0  0  0  0  0  0  0  0  0
   -1.3050   -0.7390    0.0000 O   0  0  0  0  0  0  0  0  0  0  0  0
    0.7390   -1.3050    0.0000 N   0  0  0  0  0  0  0  0  0  0  0  0
    2.2390   -1.3180    0.0000 C   0  0  0  0  0  0  0  0  0  0  0  0
    3.0000   -0.0250    0.0000 O   0  0  0  0  0  0  0  0  0  0  0  0
    2.9780   -2.6230    0.0000 N   0  0  0  0  0  0  0  0  0  0  0  0
    4.4780   -2.6360    0.0000 C   0  0  0  0  0  0  0  0  0  0  0  0
    5.2390   -1.3430    0.0000 C   0  0  0  0  0  0  0  0  0  0  0  0
    5.2170   -3.9410    0.0000 C   0  0  0  0  0  0  0  0  0  0  0  0
   -0.7390    1.3050    0.0000 C   0  0  0  0  0  0  0  0  0  0  0  0
    0.0220    2.5980    0.0000 C   0  0  0  0  0  0  0  0  0  0  0  0
   -0.7170    3.9030    0.0000 N   0  0  0  0  0  0  0  0  0  0  0  0
   -2.2170    3.9160    0.0000 C   0  0  0  0  0  0  0  0  0  0  0  0
   -2.9780    2.6230    0.0000 C   0  0  0  0  0  0  0  0  0  0  0  0
   -2.2390    1.3180    0.0000 C   0  0  0  0  0  0  0  0  0  0  0  0
   -3.0000    0.0250    0.0000 N   0  0  0  0  0  0  0  0  0  0  0  0
   -4.5000    0.0380    0.0000 C   0  0  0  0  0  0  0  0  0  0  0  0
   -5.2610   -1.2550    0.0000 C   0  0  0  0  0  0  0  0  0  0  0  0
   -6.7610   -1.2420    0.0000 C   0  0  0  0  0  0  0  0  0  0  0  0
   -7.5000    0.0630    0.0000 C   0  0  0  0  0  0  0  0  0  0  0  0
   -6.7390    1.3560    0.0000 C   0  0  0  0  0  0  0  0  0  0  0  0
   -5.2390    1.3430    0.0000 C   0  0  0  0  0  0  0  0  0  0  0  0
   -7.5220   -2.5350    0.0000 C   0  0  0  0  0  0  0  0  0  0  0  0
  1  2  2  0  0  0  0
  1  3  2  0  0  0  0
  1  4  1  0  0  0  0
  1 11  1  0  0  0  0
  4  5  1  0  0  0  0
  5  6  2  0  0  0  0
  5  7  1  0  0  0  0
  7  8  1  0  0  0  0
  8  9  1  0  0  0  0
  8 10  1  0  0  0  0
 11 12  1  0  0  0  0
 11 16  2  0  0  0  0
 12 13  2  0  0  0  0
 13 14  1  0  0  0  0
 14 15  2  0  0  0  0
 15 16  1  0  0  0  0
 16 17  1  0  0  0  0
 17 18  1  0  0  0  0
 18 19  1  0  0  0  0
 18 23  2  0  0  0  0
 19 20  2  0  0  0  0
 20 21  1  0  0  0  0
 20 24  1  0  0  0  0
 21 22  2  0  0  0  0
 22 23  1  0  0  0  0
M  END
>  <Index>
1095

>  <ID>
HT2092

>  <class>
0

>  <apol>
51.201859

>  <ast_fraglike>
0

>  <ast_fraglike_ext>
0

>  <ast_violation>
2

>  <ast_violation_ext>
4

>  <a_acc>
4

>  <a_acid>
0

>  <a_aro>
12

>  <a_base>
0

>  <a_count>
44

>  <a_don>
3

>  <a_donacc>
7

>  <a_heavy>
24

>  <a_hyd>
15

>  <a_IC>
77.021545

>  <a_ICM>
1.7504896

>  <a_nB>
0

>  <a_nBr>
0

>  <a_nC>
16

>  <a_nCl>
0

>  <a_nF>
0

>  <a_nH>
20

>  <a_nI>
0

>  <a_nN>
4

>  <a_nO>
3

>  <a_nP>
0

>  <a_nS>
1

>  <balabanJ>
1.9639999

>  <BCUT_PEOE_0>
-2.6149387

>  <BCUT_PEOE_1>
-0.57522959

>  <BCUT_PEOE_2>
0.57065117

>  <BCUT_PEOE_3>
2.5095415

>  <BCUT_SLOGP_0>
-2.7348433

>  <BCUT_SLOGP_1>
-0.43070722

>  <BCUT_SLOGP_2>
0.65070307

>  <BCUT_SLOGP_3>
2.4969254

>  <BCUT_SMR_0>
-2.3029706

>  <BCUT_SMR_1>
-0.38182297

>  <BCUT_SMR_2>
0.6949206

>  <BCUT_SMR_3>
2.815768

>  <bpol>
32.598141

>  <b_1rotN>
5

>  <b_1rotR>
0.2

>  <b_ar>
12

>  <b_count>
45

>  <b_double>
1

>  <b_heavy>
25

>  <b_max1len>
4

>  <b_rotN>
7

>  <b_rotR>
0.28

>  <b_single>
32

>  <b_triple>
0

>  <chi0>
17.742277

>  <chi0v>
14.515506

>  <chi0v_C>
10.118802

>  <chi0_C>
11.413849

>  <chi1>
11.275694

>  <chi1v>
8.8706932

>  <chi1v_C>
4.6367512

>  <chi1_C>
6.014874

>  <chiral>
0

>  <chiral_u>
0

>  <density>
0.78191698

>  <diameter>
12

>  <FCharge>
0

>  <GCUT_PEOE_0>
-0.91989404

>  <GCUT_PEOE_1>
-0.39366823

>  <GCUT_PEOE_2>
0.058556087

>  <GCUT_PEOE_3>
2.5261295

>  <GCUT_SLOGP_0>
-1.1807934

>  <GCUT_SLOGP_1>
-0.37394613

>  <GCUT_SLOGP_2>
0.14941758

>  <GCUT_SLOGP_3>
2.5763576

>  <GCUT_SMR_0>
-0.51902169

>  <GCUT_SMR_1>
-0.19500674

>  <GCUT_SMR_2>
0.15910754

>  <GCUT_SMR_3>
2.8024683

>  <Kier1>
20.313601

>  <Kier2>
9.087347

>  <Kier3>
6.3525

>  <KierA1>
15.720591

>  <KierA2>
6.9486489

>  <KierA3>
4.8155489

>  <KierFlex>
4.5515361

>  <lip_acc>
7

>  <lip_don>
3

>  <lip_druglike>
1

>  <lip_violation>
0

>  <logP(o/w)>
1.684

>  <logS>
-3.1417999

>  <mr>
9.3622704

>  <mutagenic>
0

>  <nmol>
1

>  <opr_brigid>
12

>  <opr_leadlike>
1

>  <opr_nring>
2

>  <opr_nrot>
4

>  <opr_violation>
0

>  <PC+>
0

>  <PC->
0

>  <PEOE_PC+>
2.1305878

>  <PEOE_PC->
-2.1305878

>  <PEOE_RPC+>
0.16536236

>  <PEOE_RPC->
0.2318643

>  <PEOE_VSA+0>
66.099327

>  <PEOE_VSA+1>
38.476715

>  <PEOE_VSA+2>
49.505024

>  <PEOE_VSA+3>
8.6190128

>  <PEOE_VSA+4>
10.105608

>  <PEOE_VSA+5>
0

>  <PEOE_VSA+6>
4.1846013

>  <PEOE_VSA-0>
92.883415

>  <PEOE_VSA-1>
62.005161

>  <PEOE_VSA-2>
0

>  <PEOE_VSA-3>
2.5295215

>  <PEOE_VSA-4>
0

>  <PEOE_VSA-5>
5.8194671

>  <PEOE_VSA-6>
13.703812

>  <PEOE_VSA_FHYD>
0.90446323

>  <PEOE_VSA_FNEG>
0.49993092

>  <PEOE_VSA_FPNEG>
0.055161156

>  <PEOE_VSA_FPOL>
0.095536776

>  <PEOE_VSA_FPOS>
0.50006908

>  <PEOE_VSA_FPPOS>
0.04037562

>  <PEOE_VSA_HYD>
320.11816

>  <PEOE_VSA_NEG>
176.94138

>  <PEOE_VSA_PNEG>
19.523279

>  <PEOE_VSA_POL>
33.813488

>  <PEOE_VSA_POS>
176.99028

>  <PEOE_VSA_PPOS>
14.29021

>  <petitjean>
0.5

>  <petitjeanSC>
1

>  <Q_PC+>
0

>  <Q_PC->
0

>  <Q_RPC+>
0

>  <Q_RPC->
0

>  <Q_VSA_FHYD>
1

>  <Q_VSA_FNEG>
0

>  <Q_VSA_FPNEG>
0

>  <Q_VSA_FPOL>
0

>  <Q_VSA_FPOS>
1

>  <Q_VSA_FPPOS>
0

>  <Q_VSA_HYD>
353.93167

>  <Q_VSA_NEG>
0

>  <Q_VSA_PNEG>
0

>  <Q_VSA_POL>
0

>  <Q_VSA_POS>
353.93167

>  <Q_VSA_PPOS>
0

>  <radius>
6

>  <reactive>
0

>  <rings>
2

>  <RPC+>
0

>  <RPC->
0

>  <rsynth>
1

>  <SlogP>
2.5299201

>  <SlogP_VSA0>
34.415749

>  <SlogP_VSA1>
87.797928

>  <SlogP_VSA2>
10.622711

>  <SlogP_VSA3>
0

>  <SlogP_VSA4>
3.185575

>  <SlogP_VSA5>
1.5507339

>  <SlogP_VSA6>
0

>  <SlogP_VSA7>
122.64464

>  <SlogP_VSA8>
0

>  <SlogP_VSA9>
129.35376

>  <SMR>
9.2687902

>  <SMR_VSA0>
72.033905

>  <SMR_VSA1>
16.78553

>  <SMR_VSA2>
35.96648

>  <SMR_VSA3>
7.1675434

>  <SMR_VSA4>
23.524246

>  <SMR_VSA5>
122.64464

>  <SMR_VSA6>
4.8299561

>  <SMR_VSA7>
106.61879

>  <TPSA>
100.19

>  <VAdjEq>
0.42571631

>  <VAdjMa>
5.643856

>  <VDistEq>
3.3711903

>  <VDistMa>
8.885169

>  <vdw_area>
353.93167

>  <vdw_vol>
445.60614

>  <vsa_acc>
51.266022

>  <vsa_acid>
0

>  <vsa_base>
0

>  <vsa_don>
19.440359

>  <vsa_hyd>
234.35863

>  <vsa_other>
27.54615

>  <vsa_pol>
70.706375

>  <Weight>
348.427

>  <weinerPath>
1387

>  <weinerPol>
34

>  <zagreb>
120

$$$$