O=C1N(C)C(=O)N(c2ncn(c12)CCNC(C(O)c1ccccc1)C)C
  MOE2013           2D

 26 28  0  0  1  0  0  0  0  0999 V2000
    0.0000    0.0000    0.0000 O   0  0  0  0  0  0  0  0  0  0  0  0
   -0.7610   -1.2930    0.0000 C   0  0  0  0  0  0  0  0  0  0  0  0
   -2.2610   -1.2810    0.0000 N   0  0  0  0  0  0  0  0  0  0  0  0
   -3.0000    0.0240    0.0000 C   0  0  0  0  0  0  0  0  0  0  0  0
   -3.0210   -2.5740    0.0000 C   0  0  0  0  0  0  0  0  0  0  0  0
   -4.5210   -2.5610    0.0000 O   0  0  0  0  0  0  0  0  0  0  0  0
   -2.2820   -3.8790    0.0000 N   0  0  0  0  0  0  0  0  0  0  0  0
   -0.7820   -3.8910    0.0000 C   0  0  0  0  0  0  0  0  0  0  0  0
    0.2130   -5.0140    0.0000 N   0  0  0  0  0  0  0  0  0  0  0  0
    1.5880   -4.4150    0.0000 C   0  0  0  0  0  0  0  0  0  0  0  0
    1.4430   -2.9220    0.0000 N   0  0  0  0  0  0  0  0  0  0  0  0
   -0.0210   -2.5980    0.0000 C   0  0  0  0  0  0  0  0  0  0  0  0
    2.5660   -1.9270    0.0000 C   0  0  0  0  0  0  0  0  0  0  0  0
    3.9890   -2.4020    0.0000 C   0  0  0  0  0  0  0  0  0  0  0  0
    5.1120   -1.4080    0.0000 N   0  0  0  0  0  0  0  0  0  0  0  0
    6.5350   -1.8830    0.0000 C   0  0  3  0  0  0  0  0  0  0  0  0
    7.6580   -0.8880    0.0000 C   0  0  3  0  0  0  0  0  0  0  0  0
    7.3580    0.5810    0.0000 O   0  0  0  0  0  0  0  0  0  0  0  0
    9.0800   -1.3630    0.0000 C   0  0  0  0  0  0  0  0  0  0  0  0
    9.3800   -2.8330    0.0000 C   0  0  0  0  0  0  0  0  0  0  0  0
   10.8030   -3.3080    0.0000 C   0  0  0  0  0  0  0  0  0  0  0  0
   11.9260   -2.3140    0.0000 C   0  0  0  0  0  0  0  0  0  0  0  0
   11.6260   -0.8440    0.0000 C   0  0  0  0  0  0  0  0  0  0  0  0
   10.2030   -0.3690    0.0000 C   0  0  0  0  0  0  0  0  0  0  0  0
    6.8350   -3.3530    0.0000 C   0  0  0  0  0  0  0  0  0  0  0  0
   -3.0420   -5.1720    0.0000 C   0  0  0  0  0  0  0  0  0  0  0  0
  1  2  2  0  0  0  0
  2  3  1  0  0  0  0
  2 12  1  0  0  0  0
  3  4  1  0  0  0  0
  3  5  1  0  0  0  0
  5  6  2  0  0  0  0
  5  7  1  0  0  0  0
  7  8  1  0  0  0  0
  7 26  1  0  0  0  0
  8  9  1  0  0  0  0
  8 12  2  0  0  0  0
  9 10  2  0  0  0  0
 10 11  1  0  0  0  0
 11 12  1  0  0  0  0
 11 13  1  0  0  0  0
 13 14  1  0  0  0  0
 14 15  1  0  0  0  0
 15 16  1  0  0  0  0
 16 17  1  0  0  0  0
 16 25  1  0  0  0  0
 17 18  1  0  0  0  0
 17 19  1  0  0  0  0
 19 20  1  0  0  0  0
 19 24  2  0  0  0  0
 20 21  2  0  0  0  0
 21 22  1  0  0  0  0
 22 23  2  0  0  0  0
 23 24  1  0  0  0  0
M  END
>  <Index>
1355

>  <ID>
HT3627

>  <class>
0

>  <apol>
54.922237

>  <ast_fraglike>
0

>  <ast_fraglike_ext>
0

>  <ast_violation>
2

>  <ast_violation_ext>
3

>  <a_acc>
5

>  <a_acid>
0

>  <a_aro>
11

>  <a_base>
0

>  <a_count>
49

>  <a_don>
2

>  <a_donacc>
7

>  <a_heavy>
26

>  <a_hyd>
14

>  <a_IC>
79.655678

>  <a_ICM>
1.6256261

>  <a_nB>
0

>  <a_nBr>
0

>  <a_nC>
18

>  <a_nCl>
0

>  <a_nF>
0

>  <a_nH>
23

>  <a_nI>
0

>  <a_nN>
5

>  <a_nO>
3

>  <a_nP>
0

>  <a_nS>
0

>  <balabanJ>
1.4751457

>  <BCUT_PEOE_0>
-2.6490645

>  <BCUT_PEOE_1>
-0.52308953

>  <BCUT_PEOE_2>
0.58694899

>  <BCUT_PEOE_3>
2.6000578

>  <BCUT_SLOGP_0>
-2.7564349

>  <BCUT_SLOGP_1>
-0.46375272

>  <BCUT_SLOGP_2>
0.62506872

>  <BCUT_SLOGP_3>
2.5905788

>  <BCUT_SMR_0>
-2.3835099

>  <BCUT_SMR_1>
-0.39897627

>  <BCUT_SMR_2>
0.71442974

>  <BCUT_SMR_3>
2.8591626

>  <bpol>
34.979759

>  <b_1rotN>
6

>  <b_1rotR>
0.21428572

>  <b_ar>
11

>  <b_count>
51

>  <b_double>
2

>  <b_heavy>
28

>  <b_max1len>
7

>  <b_rotN>
6

>  <b_rotR>
0.21428572

>  <b_single>
38

>  <b_triple>
0

>  <chi0>
18.84457

>  <chi0v>
15.08558

>  <chi0v_C>
11.533015

>  <chi0_C>
12.698306

>  <chi1>
12.413591

>  <chi1v>
8.4874115

>  <chi1v_C>
4.1100426

>  <chi1_C>
5.22718

>  <chiral>
2

>  <chiral_u>
2

>  <density>
0.74670672

>  <diameter>
14

>  <FCharge>
0

>  <GCUT_PEOE_0>
-0.83961678

>  <GCUT_PEOE_1>
-0.41288403

>  <GCUT_PEOE_2>
0.068176083

>  <GCUT_PEOE_3>
2.6795607

>  <GCUT_SLOGP_0>
-1.1527185

>  <GCUT_SLOGP_1>
-0.31408441

>  <GCUT_SLOGP_2>
0.13543983

>  <GCUT_SLOGP_3>
2.6882885

>  <GCUT_SMR_0>
-0.51851255

>  <GCUT_SMR_1>
-0.20129253

>  <GCUT_SMR_2>
0.15774164

>  <GCUT_SMR_3>
2.9360075

>  <Kier1>
20.727041

>  <Kier2>
9

>  <Kier3>
4.3795042

>  <KierA1>
15.274533

>  <KierA2>
6.5451727

>  <KierA3>
3.1548665

>  <KierFlex>
3.8451715

>  <lip_acc>
8

>  <lip_don>
2

>  <lip_druglike>
1

>  <lip_violation>
0

>  <logP(o/w)>
0.68199998

>  <logS>
-2.3478401

>  <mr>
9.7179756

>  <mutagenic>
0

>  <nmol>
1

>  <opr_brigid>
16

>  <opr_leadlike>
1

>  <opr_nring>
3

>  <opr_nrot>
6

>  <opr_violation>
0

>  <PC+>
0

>  <PC->
0

>  <PEOE_PC+>
2.6503534

>  <PEOE_PC->
-2.6503534

>  <PEOE_RPC+>
0.12566932

>  <PEOE_RPC->
0.14550515

>  <PEOE_VSA+0>
127.19262

>  <PEOE_VSA+1>
60.264942

>  <PEOE_VSA+2>
12.884399

>  <PEOE_VSA+3>
17.890114

>  <PEOE_VSA+4>
10.324173

>  <PEOE_VSA+5>
12.949531

>  <PEOE_VSA+6>
17.440542

>  <PEOE_VSA-0>
20.956217

>  <PEOE_VSA-1>
61.274521

>  <PEOE_VSA-2>
0

>  <PEOE_VSA-3>
0

>  <PEOE_VSA-4>
19.249496

>  <PEOE_VSA-5>
13.566921

>  <PEOE_VSA-6>
7.9044313

>  <PEOE_VSA_FHYD>
0.78676212

>  <PEOE_VSA_FNEG>
0.32194883

>  <PEOE_VSA_FPNEG>
0.10662758

>  <PEOE_VSA_FPOL>
0.21323787

>  <PEOE_VSA_FPOS>
0.67805117

>  <PEOE_VSA_FPPOS>
0.10661029

>  <PEOE_VSA_HYD>
300.4628

>  <PEOE_VSA_NEG>
122.95158

>  <PEOE_VSA_PNEG>
40.720848

>  <PEOE_VSA_POL>
81.435097

>  <PEOE_VSA_POS>
258.94632

>  <PEOE_VSA_PPOS>
40.714245

>  <petitjean>
0.5

>  <petitjeanSC>
1

>  <Q_PC+>
0

>  <Q_PC->
0

>  <Q_RPC+>
0

>  <Q_RPC->
0

>  <Q_VSA_FHYD>
1

>  <Q_VSA_FNEG>
0

>  <Q_VSA_FPNEG>
0

>  <Q_VSA_FPOL>
0

>  <Q_VSA_FPOS>
1

>  <Q_VSA_FPPOS>
0

>  <Q_VSA_HYD>
381.89792

>  <Q_VSA_NEG>
0

>  <Q_VSA_PNEG>
0

>  <Q_VSA_POL>
0

>  <Q_VSA_POS>
381.89792

>  <Q_VSA_PPOS>
0

>  <radius>
7

>  <reactive>
0

>  <rings>
3

>  <RPC+>
0

>  <RPC->
0

>  <rsynth>
1

>  <SlogP>
1.5985

>  <SlogP_VSA0>
46.52029

>  <SlogP_VSA1>
31.897676

>  <SlogP_VSA2>
3.9819686

>  <SlogP_VSA3>
18.439579

>  <SlogP_VSA4>
29.804539

>  <SlogP_VSA5>
65.794373

>  <SlogP_VSA6>
0

>  <SlogP_VSA7>
105.00145

>  <SlogP_VSA8>
6.4686494

>  <SlogP_VSA9>
77.955727

>  <SMR>
9.7301998

>  <SMR_VSA0>
47.724434

>  <SMR_VSA1>
47.194164

>  <SMR_VSA2>
21.135065

>  <SMR_VSA3>
16.392941

>  <SMR_VSA4>
2.3279202

>  <SMR_VSA5>
123.44103

>  <SMR_VSA6>
28.528318

>  <SMR_VSA7>
99.120392

>  <TPSA>
90.699997

>  <VAdjEq>
0.41210872

>  <VAdjMa>
5.8073549

>  <VDistEq>
3.5772836

>  <VDistMa>
9.0791035

>  <vdw_area>
381.89792

>  <vdw_vol>
478.65378

>  <vsa_acc>
32.816418

>  <vsa_acid>
0

>  <vsa_base>
0

>  <vsa_don>
0

>  <vsa_hyd>
240.91502

>  <vsa_other>
66.371155

>  <vsa_pol>
52.065914

>  <Weight>
357.414

>  <weinerPath>
1836

>  <weinerPol>
44

>  <zagreb>
136

$$$$