O1C(O)(COC(=O)c2cccnc2)C(OC(=O)c2cccnc2)C(OC(=O)c2cccnc2)C1COC(=O)c1cccnc1
  MOE2013           2D

 44 48  0  0  1  0  0  0  0  0999 V2000
    0.0000    0.0000    0.0000 O   0  0  0  0  0  0  0  0  0  0  0  0
    1.4370    0.4300    0.0000 C   0  0  3  0  0  0  0  0  0  0  0  0
    2.0090   -0.9570    0.0000 O   0  0  0  0  0  0  0  0  0  0  0  0
    2.9310    0.2970    0.0000 C   0  0  0  0  0  0  0  0  0  0  0  0
    3.5630   -1.0630    0.0000 O   0  0  0  0  0  0  0  0  0  0  0  0
    5.0570   -1.1960    0.0000 C   0  0  0  0  0  0  0  0  0  0  0  0
    5.9190    0.0310    0.0000 O   0  0  0  0  0  0  0  0  0  0  0  0
    5.6890   -2.5570    0.0000 C   0  0  0  0  0  0  0  0  0  0  0  0
    4.8270   -3.7840    0.0000 C   0  0  0  0  0  0  0  0  0  0  0  0
    5.4590   -5.1450    0.0000 C   0  0  0  0  0  0  0  0  0  0  0  0
    6.9530   -5.2780    0.0000 C   0  0  0  0  0  0  0  0  0  0  0  0
    7.8150   -4.0500    0.0000 N   0  0  0  0  0  0  0  0  0  0  0  0
    7.1830   -2.6900    0.0000 C   0  0  0  0  0  0  0  0  0  0  0  0
    1.4720    1.9300    0.0000 C   0  0  3  0  0  0  0  0  0  0  0  0
    2.7060    2.7830    0.0000 O   0  0  0  0  0  0  0  0  0  0  0  0
    2.5840    4.2780    0.0000 C   0  0  0  0  0  0  0  0  0  0  0  0
    1.2280    4.9200    0.0000 O   0  0  0  0  0  0  0  0  0  0  0  0
    3.8180    5.1310    0.0000 C   0  0  0  0  0  0  0  0  0  0  0  0
    3.6960    6.6260    0.0000 C   0  0  0  0  0  0  0  0  0  0  0  0
    4.9290    7.4790    0.0000 C   0  0  0  0  0  0  0  0  0  0  0  0
    6.2850    6.8370    0.0000 C   0  0  0  0  0  0  0  0  0  0  0  0
    6.4070    5.3420    0.0000 N   0  0  0  0  0  0  0  0  0  0  0  0
    5.1730    4.4890    0.0000 C   0  0  0  0  0  0  0  0  0  0  0  0
    0.0570    2.4260    0.0000 C   0  0  3  0  0  0  0  0  0  0  0  0
   -0.3730    3.8630    0.0000 O   0  0  0  0  0  0  0  0  0  0  0  0
   -1.8330    4.2090    0.0000 C   0  0  0  0  0  0  0  0  0  0  0  0
   -2.8620    3.1180    0.0000 O   0  0  0  0  0  0  0  0  0  0  0  0
   -2.2630    5.6460    0.0000 C   0  0  0  0  0  0  0  0  0  0  0  0
   -3.7230    5.9920    0.0000 C   0  0  0  0  0  0  0  0  0  0  0  0
   -4.1530    7.4290    0.0000 C   0  0  0  0  0  0  0  0  0  0  0  0
   -3.1230    8.5200    0.0000 C   0  0  0  0  0  0  0  0  0  0  0  0
   -1.6640    8.1740    0.0000 N   0  0  0  0  0  0  0  0  0  0  0  0
   -1.2340    6.7370    0.0000 C   0  0  0  0  0  0  0  0  0  0  0  0
   -0.8530    1.2340    0.0000 C   0  0  3  0  0  0  0  0  0  0  0  0
   -2.3530    1.2690    0.0000 C   0  0  0  0  0  0  0  0  0  0  0  0
   -3.1330   -0.0120    0.0000 O   0  0  0  0  0  0  0  0  0  0  0  0
   -4.6320    0.0230    0.0000 C   0  0  0  0  0  0  0  0  0  0  0  0
   -5.3520    1.3390    0.0000 O   0  0  0  0  0  0  0  0  0  0  0  0
   -5.4130   -1.2590    0.0000 C   0  0  0  0  0  0  0  0  0  0  0  0
   -4.6930   -2.5750    0.0000 C   0  0  0  0  0  0  0  0  0  0  0  0
   -5.4730   -3.8560    0.0000 C   0  0  0  0  0  0  0  0  0  0  0  0
   -6.9730   -3.8210    0.0000 C   0  0  0  0  0  0  0  0  0  0  0  0
   -7.6920   -2.5050    0.0000 N   0  0  0  0  0  0  0  0  0  0  0  0
   -6.9120   -1.2240    0.0000 C   0  0  0  0  0  0  0  0  0  0  0  0
  1  2  1  0  0  0  0
  1 34  1  0  0  0  0
  2  3  1  0  0  0  0
  2  4  1  0  0  0  0
  2 14  1  0  0  0  0
  4  5  1  0  0  0  0
  5  6  1  0  0  0  0
  6  7  2  0  0  0  0
  6  8  1  0  0  0  0
  8  9  1  0  0  0  0
  8 13  2  0  0  0  0
  9 10  2  0  0  0  0
 10 11  1  0  0  0  0
 11 12  2  0  0  0  0
 12 13  1  0  0  0  0
 14 15  1  0  0  0  0
 14 24  1  0  0  0  0
 15 16  1  0  0  0  0
 16 17  2  0  0  0  0
 16 18  1  0  0  0  0
 18 19  1  0  0  0  0
 18 23  2  0  0  0  0
 19 20  2  0  0  0  0
 20 21  1  0  0  0  0
 21 22  2  0  0  0  0
 22 23  1  0  0  0  0
 24 25  1  0  0  0  0
 24 34  1  0  0  0  0
 25 26  1  0  0  0  0
 26 27  2  0  0  0  0
 26 28  1  0  0  0  0
 28 29  1  0  0  0  0
 28 33  2  0  0  0  0
 29 30  2  0  0  0  0
 30 31  1  0  0  0  0
 31 32  2  0  0  0  0
 32 33  1  0  0  0  0
 34 35  1  0  0  0  0
 35 36  1  0  0  0  0
 36 37  1  0  0  0  0
 37 38  2  0  0  0  0
 37 39  1  0  0  0  0
 39 40  1  0  0  0  0
 39 44  2  0  0  0  0
 40 41  2  0  0  0  0
 41 42  1  0  0  0  0
 42 43  2  0  0  0  0
 43 44  1  0  0  0  0
M  END
>  <Index>
1400

>  <ID>
HT3948

>  <class>
0

>  <apol>
81.22303

>  <ast_fraglike>
0

>  <ast_fraglike_ext>
0

>  <ast_violation>
2

>  <ast_violation_ext>
4

>  <a_acc>
10

>  <a_acid>
0

>  <a_aro>
24

>  <a_base>
0

>  <a_count>
68

>  <a_don>
1

>  <a_donacc>
11

>  <a_heavy>
44

>  <a_hyd>
25

>  <a_IC>
115.48238

>  <a_ICM>
1.6982702

>  <a_nB>
0

>  <a_nBr>
0

>  <a_nC>
30

>  <a_nCl>
0

>  <a_nF>
0

>  <a_nH>
24

>  <a_nI>
0

>  <a_nN>
4

>  <a_nO>
10

>  <a_nP>
0

>  <a_nS>
0

>  <balabanJ>
1.3369696

>  <BCUT_PEOE_0>
-2.5224352

>  <BCUT_PEOE_1>
-0.57764137

>  <BCUT_PEOE_2>
0.65330017

>  <BCUT_PEOE_3>
2.832083

>  <BCUT_SLOGP_0>
-2.7459102

>  <BCUT_SLOGP_1>
-0.49002984

>  <BCUT_SLOGP_2>
0.73907965

>  <BCUT_SLOGP_3>
2.6141057

>  <BCUT_SMR_0>
-2.3499863

>  <BCUT_SMR_1>
-0.44893172

>  <BCUT_SMR_2>
0.7892074

>  <BCUT_SMR_3>
3.0006673

>  <bpol>
44.928967

>  <b_1rotN>
10

>  <b_1rotR>
0.20833333

>  <b_ar>
24

>  <b_count>
72

>  <b_double>
4

>  <b_heavy>
48

>  <b_max1len>
4

>  <b_rotN>
14

>  <b_rotR>
0.29166666

>  <b_single>
44

>  <b_triple>
0

>  <chi0>
30.942736

>  <chi0v>
22.79417

>  <chi0v_C>
16.883869

>  <chi0_C>
19.578775

>  <chi1>
21.337156

>  <chi1v>
13.103984

>  <chi1v_C>
7.6932111

>  <chi1_C>
10.316463

>  <chiral>
4

>  <chiral_u>
4

>  <density>
0.81769598

>  <diameter>
16

>  <FCharge>
0

>  <GCUT_PEOE_0>
-0.76832008

>  <GCUT_PEOE_1>
-0.4212465

>  <GCUT_PEOE_2>
0.078768164

>  <GCUT_PEOE_3>
2.8640435

>  <GCUT_SLOGP_0>
-0.95316452

>  <GCUT_SLOGP_1>
-0.3800652

>  <GCUT_SLOGP_2>
0.15113342

>  <GCUT_SLOGP_3>
2.7796443

>  <GCUT_SMR_0>
-0.52796119

>  <GCUT_SMR_1>
-0.20154148

>  <GCUT_SMR_2>
0.17629635

>  <GCUT_SMR_3>
3.0763471

>  <Kier1>
35.310764

>  <Kier2>
17.413223

>  <Kier3>
9.7787991

>  <KierA1>
25.451126

>  <KierA2>
12.448702

>  <KierA3>
6.9511957

>  <KierFlex>
7.2007613

>  <lip_acc>
14

>  <lip_don>
1

>  <lip_druglike>
0

>  <lip_violation>
2

>  <logP(o/w)>
1.37374

>  <logS>
-3.40716

>  <mr>
15.40837

>  <mutagenic>
0

>  <nmol>
1

>  <opr_brigid>
29

>  <opr_leadlike>
0

>  <opr_nring>
5

>  <opr_nrot>
11

>  <opr_violation>
4

>  <PC+>
0

>  <PC->
0

>  <PEOE_PC+>
4.3561602

>  <PEOE_PC->
-4.3561602

>  <PEOE_RPC+>
0.06789916

>  <PEOE_RPC->
0.082827561

>  <PEOE_VSA+0>
133.96733

>  <PEOE_VSA+1>
121.88933

>  <PEOE_VSA+2>
24.76115

>  <PEOE_VSA+3>
4.9049287

>  <PEOE_VSA+4>
11.432717

>  <PEOE_VSA+5>
58.833996

>  <PEOE_VSA+6>
0

>  <PEOE_VSA-0>
98.03923

>  <PEOE_VSA-1>
0

>  <PEOE_VSA-2>
0

>  <PEOE_VSA-3>
0

>  <PEOE_VSA-4>
0

>  <PEOE_VSA-5>
79.501747

>  <PEOE_VSA-6>
17.782564

>  <PEOE_VSA_FHYD>
0.69597697

>  <PEOE_VSA_FNEG>
0.35441652

>  <PEOE_VSA_FPNEG>
0.17652334

>  <PEOE_VSA_FPOL>
0.304023

>  <PEOE_VSA_FPOS>
0.64558351

>  <PEOE_VSA_FPPOS>
0.12749965

>  <PEOE_VSA_HYD>
383.56195

>  <PEOE_VSA_NEG>
195.32355

>  <PEOE_VSA_PNEG>
97.284309

>  <PEOE_VSA_POL>
167.55103

>  <PEOE_VSA_POS>
355.78946

>  <PEOE_VSA_PPOS>
70.266716

>  <petitjean>
0.5

>  <petitjeanSC>
1

>  <Q_PC+>
0

>  <Q_PC->
0

>  <Q_RPC+>
0

>  <Q_RPC->
0

>  <Q_VSA_FHYD>
1

>  <Q_VSA_FNEG>
0

>  <Q_VSA_FPNEG>
0

>  <Q_VSA_FPOL>
0

>  <Q_VSA_FPOS>
1

>  <Q_VSA_FPPOS>
0

>  <Q_VSA_HYD>
551.11298

>  <Q_VSA_NEG>
0

>  <Q_VSA_PNEG>
0

>  <Q_VSA_POL>
0

>  <Q_VSA_POS>
551.11298

>  <Q_VSA_PPOS>
0

>  <radius>
8

>  <reactive>
1

>  <rings>
5

>  <RPC+>
0

>  <RPC->
0

>  <rsynth>
1

>  <SlogP>
1.819

>  <SlogP_VSA0>
25.385227

>  <SlogP_VSA1>
98.123978

>  <SlogP_VSA2>
74.405388

>  <SlogP_VSA3>
41.852516

>  <SlogP_VSA4>
108.19116

>  <SlogP_VSA5>
0

>  <SlogP_VSA6>
0

>  <SlogP_VSA7>
278.86032

>  <SlogP_VSA8>
0

>  <SlogP_VSA9>
0

>  <SMR>
14.57428

>  <SMR_VSA0>
150.4483

>  <SMR_VSA1>
92.527344

>  <SMR_VSA2>
0

>  <SMR_VSA3>
32.148247

>  <SMR_VSA4>
0

>  <SMR_VSA5>
278.86032

>  <SMR_VSA6>
72.834373

>  <SMR_VSA7>
0

>  <TPSA>
186.22

>  <VAdjEq>
0.284639

>  <VAdjMa>
6.5849624

>  <VDistEq>
3.7691183

>  <VDistMa>
10.691238

>  <vdw_area>
551.11298

>  <vdw_vol>
734.42944

>  <vsa_acc>
79.501747

>  <vsa_acid>
0

>  <vsa_base>
0

>  <vsa_don>
0

>  <vsa_hyd>
367.19067

>  <vsa_other>
69.957565

>  <vsa_pol>
93.068665

>  <Weight>
600.53998

>  <weinerPath>
6812

>  <weinerPol>
69

>  <zagreb>
228

$$$$