O(C(=O)CC)C1(CCN(CC1C)C)c1ccccc1
  MOE2013           2D

 19 20  0  0  1  0  0  0  0  0999 V2000
    0.0000    0.0000    0.0000 O   0  0  0  0  0  0  0  0  0  0  0  0
    0.7400    1.3050    0.0000 C   0  0  0  0  0  0  0  0  0  0  0  0
    2.2400    1.3160    0.0000 O   0  0  0  0  0  0  0  0  0  0  0  0
   -0.0200    2.5980    0.0000 C   0  0  0  0  0  0  0  0  0  0  0  0
    0.7200    3.9030    0.0000 C   0  0  0  0  0  0  0  0  0  0  0  0
    0.7600   -1.2930    0.0000 C   0  0  3  0  0  0  0  0  0  0  0  0
    2.0530   -0.5330    0.0000 C   0  0  0  0  0  0  0  0  0  0  0  0
    3.3580   -1.2740    0.0000 C   0  0  0  0  0  0  0  0  0  0  0  0
    3.3690   -2.7730    0.0000 N   0  0  3  0  0  0  0  0  0  0  0  0
    2.0760   -3.5330    0.0000 C   0  0  0  0  0  0  0  0  0  0  0  0
    0.7710   -2.7930    0.0000 C   0  0  3  0  0  0  0  0  0  0  0  0
   -0.5220   -3.5530    0.0000 C   0  0  0  0  0  0  0  0  0  0  0  0
    4.6740   -3.5140    0.0000 C   0  0  0  0  0  0  0  0  0  0  0  0
   -0.7400   -1.3050    0.0000 C   0  0  0  0  0  0  0  0  0  0  0  0
   -1.4800   -2.6090    0.0000 C   0  0  0  0  0  0  0  0  0  0  0  0
   -2.9800   -2.6210    0.0000 C   0  0  0  0  0  0  0  0  0  0  0  0
   -3.7400   -1.3280    0.0000 C   0  0  0  0  0  0  0  0  0  0  0  0
   -3.0000   -0.0230    0.0000 C   0  0  0  0  0  0  0  0  0  0  0  0
   -1.5000   -0.0110    0.0000 C   0  0  0  0  0  0  0  0  0  0  0  0
  1  2  1  0  0  0  0
  1  6  1  0  0  0  0
  2  3  2  0  0  0  0
  2  4  1  0  0  0  0
  4  5  1  0  0  0  0
  6  7  1  0  0  0  0
  6 11  1  0  0  0  0
  6 14  1  0  0  0  0
  7  8  1  0  0  0  0
  8  9  1  0  0  0  0
  9 10  1  0  0  0  0
  9 13  1  0  0  0  0
 10 11  1  0  0  0  0
 11 12  1  0  0  0  0
 14 15  1  0  0  0  0
 14 19  2  0  0  0  0
 15 16  2  0  0  0  0
 16 17  1  0  0  0  0
 17 18  2  0  0  0  0
 18 19  1  0  0  0  0
M  END
>  <Index>
1294

>  <ID>
HT3153

>  <class>
0

>  <apol>
46.200237

>  <ast_fraglike>
0

>  <ast_fraglike_ext>
0

>  <ast_violation>
1

>  <ast_violation_ext>
2

>  <a_acc>
2

>  <a_acid>
0

>  <a_aro>
6

>  <a_base>
0

>  <a_count>
42

>  <a_don>
0

>  <a_donacc>
2

>  <a_heavy>
19

>  <a_hyd>
15

>  <a_IC>
56.435406

>  <a_ICM>
1.3437002

>  <a_nB>
0

>  <a_nBr>
0

>  <a_nC>
16

>  <a_nCl>
0

>  <a_nF>
0

>  <a_nH>
23

>  <a_nI>
0

>  <a_nN>
1

>  <a_nO>
2

>  <a_nP>
0

>  <a_nS>
0

>  <balabanJ>
2.1615009

>  <BCUT_PEOE_0>
-2.8025475

>  <BCUT_PEOE_1>
-0.4866794

>  <BCUT_PEOE_2>
0.48749191

>  <BCUT_PEOE_3>
2.7710721

>  <BCUT_SLOGP_0>
-2.813004

>  <BCUT_SLOGP_1>
-0.39449316

>  <BCUT_SLOGP_2>
0.54569113

>  <BCUT_SLOGP_3>
2.8124983

>  <BCUT_SMR_0>
-2.5479217

>  <BCUT_SMR_1>
-0.3179988

>  <BCUT_SMR_2>
0.63113201

>  <BCUT_SMR_3>
3.0178621

>  <bpol>
29.997761

>  <b_1rotN>
3

>  <b_1rotR>
0.15000001

>  <b_ar>
6

>  <b_count>
43

>  <b_double>
1

>  <b_heavy>
20

>  <b_max1len>
3

>  <b_rotN>
4

>  <b_rotR>
0.2

>  <b_single>
36

>  <b_triple>
0

>  <chi0>
13.880469

>  <chi0v>
12.056239

>  <chi0v_C>
10.792529

>  <chi0_C>
11.596012

>  <chi1>
9.0813522

>  <chi1v>
7.0412126

>  <chi1v_C>
5.3491707

>  <chi1_C>
6.3483539

>  <chiral>
2

>  <chiral_u>
2

>  <density>
0.67187434

>  <diameter>
8

>  <FCharge>
0

>  <GCUT_PEOE_0>
-0.85892862

>  <GCUT_PEOE_1>
-0.3661893

>  <GCUT_PEOE_2>
-0.0021386149

>  <GCUT_PEOE_3>
2.812916

>  <GCUT_SLOGP_0>
-0.95314497

>  <GCUT_SLOGP_1>
-0.2737208

>  <GCUT_SLOGP_2>
0.064894438

>  <GCUT_SLOGP_3>
2.8757546

>  <GCUT_SMR_0>
-0.52448618

>  <GCUT_SMR_1>
-0.19170433

>  <GCUT_SMR_2>
0.12240559

>  <GCUT_SMR_3>
3.0517657

>  <Kier1>
15.39

>  <Kier2>
6.6352043

>  <Kier3>
3.3659606

>  <KierA1>
12.825631

>  <KierA2>
5.4697871

>  <KierA3>
2.7512784

>  <KierFlex>
3.6922879

>  <lip_acc>
3

>  <lip_don>
0

>  <lip_druglike>
1

>  <lip_violation>
0

>  <logP(o/w)>
3.402

>  <logS>
-2.62778

>  <mr>
7.7438908

>  <mutagenic>
0

>  <nmol>
1

>  <opr_brigid>
12

>  <opr_leadlike>
1

>  <opr_nring>
2

>  <opr_nrot>
5

>  <opr_violation>
0

>  <PC+>
0

>  <PC->
0

>  <PEOE_PC+>
1.3175853

>  <PEOE_PC->
-1.3175853

>  <PEOE_RPC+>
0.19939789

>  <PEOE_RPC->
0.23138478

>  <PEOE_VSA+0>
111.86291

>  <PEOE_VSA+1>
21.326929

>  <PEOE_VSA+2>
0

>  <PEOE_VSA+3>
0

>  <PEOE_VSA+4>
0

>  <PEOE_VSA+5>
14.708499

>  <PEOE_VSA+6>
0

>  <PEOE_VSA-0>
34.14854

>  <PEOE_VSA-1>
98.769875

>  <PEOE_VSA-2>
0

>  <PEOE_VSA-3>
0

>  <PEOE_VSA-4>
0

>  <PEOE_VSA-5>
13.566921

>  <PEOE_VSA-6>
2.503756

>  <PEOE_VSA_FHYD>
0.89632714

>  <PEOE_VSA_FNEG>
0.50183696

>  <PEOE_VSA_FPNEG>
0.054130539

>  <PEOE_VSA_FPOL>
0.10367288

>  <PEOE_VSA_FPOS>
0.49816301

>  <PEOE_VSA_FPPOS>
0.049542345

>  <PEOE_VSA_HYD>
266.10825

>  <PEOE_VSA_NEG>
148.98909

>  <PEOE_VSA_PNEG>
16.070677

>  <PEOE_VSA_POL>
30.779177

>  <PEOE_VSA_POS>
147.89835

>  <PEOE_VSA_PPOS>
14.708499

>  <petitjean>
0.5

>  <petitjeanSC>
1

>  <Q_PC+>
0

>  <Q_PC->
0

>  <Q_RPC+>
0

>  <Q_RPC->
0

>  <Q_VSA_FHYD>
1

>  <Q_VSA_FNEG>
0

>  <Q_VSA_FPNEG>
0

>  <Q_VSA_FPOL>
0

>  <Q_VSA_FPOS>
1

>  <Q_VSA_FPPOS>
0

>  <Q_VSA_HYD>
296.88742

>  <Q_VSA_NEG>
0

>  <Q_VSA_PNEG>
0

>  <Q_VSA_POL>
0

>  <Q_VSA_POS>
296.88742

>  <Q_VSA_PPOS>
0

>  <radius>
4

>  <reactive>
0

>  <rings>
2

>  <RPC+>
0

>  <RPC->
0

>  <rsynth>
0.2631579

>  <SlogP>
3.1182001

>  <SlogP_VSA0>
0

>  <SlogP_VSA1>
10.869778

>  <SlogP_VSA2>
34.862103

>  <SlogP_VSA3>
36.879158

>  <SlogP_VSA4>
7.5963712

>  <SlogP_VSA5>
32.897186

>  <SlogP_VSA6>
0

>  <SlogP_VSA7>
88.215919

>  <SlogP_VSA8>
37.736813

>  <SlogP_VSA9>
66.652031

>  <SMR>
7.5897999

>  <SMR_VSA0>
34.862103

>  <SMR_VSA1>
3.1243138

>  <SMR_VSA2>
4.4107962

>  <SMR_VSA3>
3.185575

>  <SMR_VSA4>
0

>  <SMR_VSA5>
125.95274

>  <SMR_VSA6>
44.624619

>  <SMR_VSA7>
99.549217

>  <TPSA>
29.540001

>  <VAdjEq>
0.5023343

>  <VAdjMa>
5.321928

>  <VDistEq>
2.8147795

>  <VDistMa>
8.2429495

>  <vdw_area>
296.88742

>  <vdw_vol>
389.00876

>  <vsa_acc>
13.566921

>  <vsa_acid>
0

>  <vsa_base>
0

>  <vsa_don>
0

>  <vsa_hyd>
248.39191

>  <vsa_other>
17.212255

>  <vsa_pol>
13.566921

>  <Weight>
261.36499

>  <weinerPath>
648

>  <weinerPol>
31

>  <zagreb>
96

$$$$