O(C)c1cc2c3c([nH]c2cc1C1CC2C(CN(C(Cc4c1[nH]c1c4cccc1)C2C(OC)=O)C)=CC)C1(C2N(CC(C1)CC2CC)CC3)C(OC)=O
  MOE2013           2D

 52 60  0  0  1  0  0  0  0  0999 V2000
   -0.0320   -0.4830    0.0000 O   0  0  0  0  0  0  0  0  0  0  0  0
   -0.3740    0.9860    0.0000 C   0  0  0  0  0  0  0  0  0  0  0  0
    1.3920   -0.9270    0.0000 C   0  0  0  0  0  0  0  0  0  0  0  0
    2.5050    0.0550    0.0000 C   0  0  0  0  0  0  0  0  0  0  0  0
    3.9340   -0.3840    0.0000 C   0  0  0  0  0  0  0  0  0  0  0  0
    5.3970    0.2820    0.0000 C   0  0  0  0  0  0  0  0  0  0  0  0
    6.2970   -0.6340    0.0000 C   0  0  0  0  0  0  0  0  0  0  0  0
    5.7440   -1.9940    0.0000 N   0  0  0  0  0  0  0  0  0  0  0  0
    4.2550   -1.8530    0.0000 C   0  0  0  0  0  0  0  0  0  0  0  0
    3.1260   -2.8520    0.0000 C   0  0  0  0  0  0  0  0  0  0  0  0
    1.7090   -2.4340    0.0000 C   0  0  0  0  0  0  0  0  0  0  0  0
    0.5420   -3.3780    0.0000 C   0  0  3  0  0  0  0  0  0  0  0  0
   -0.8650   -2.5960    0.0000 C   0  0  0  0  0  0  0  0  0  0  0  0
   -2.0720   -3.5270    0.0000 C   0  0  3  0  0  0  0  0  0  0  0  0
   -3.6260   -3.4610    0.0000 C   0  0  0  0  0  0  0  0  0  0  0  0
   -4.2770   -4.8660    0.0000 C   0  0  0  0  0  0  0  0  0  0  0  0
   -3.5550   -6.2130    0.0000 N   0  0  3  0  0  0  0  0  0  0  0  0
   -2.0920   -6.1110    0.0000 C   0  0  3  0  0  0  0  0  0  0  0  0
   -0.7860   -7.0190    0.0000 C   0  0  0  0  0  0  0  0  0  0  0  0
    0.5080   -6.1930    0.0000 C   0  0  0  0  0  0  0  0  0  0  0  0
    0.7100   -4.7590    0.0000 C   0  0  0  0  0  0  0  0  0  0  0  0
    2.1010   -4.4270    0.0000 N   0  0  0  0  0  0  0  0  0  0  0  0
    2.8960   -5.7220    0.0000 C   0  0  0  0  0  0  0  0  0  0  0  0
    1.9200   -6.8460    0.0000 C   0  0  0  0  0  0  0  0  0  0  0  0
    2.3970   -8.2700    0.0000 C   0  0  0  0  0  0  0  0  0  0  0  0
    3.8750   -8.5530    0.0000 C   0  0  0  0  0  0  0  0  0  0  0  0
    4.8560   -7.4240    0.0000 C   0  0  0  0  0  0  0  0  0  0  0  0
    4.3640   -5.9970    0.0000 C   0  0  0  0  0  0  0  0  0  0  0  0
   -1.7910   -4.8400    0.0000 C   0  0  3  0  0  0  0  0  0  0  0  0
   -3.1920   -5.0760    0.0000 C   0  0  0  0  0  0  0  0  0  0  0  0
   -4.3510   -3.8120    0.0000 O   0  0  0  0  0  0  0  0  0  0  0  0
   -5.7800   -4.4350    0.0000 C   0  0  0  0  0  0  0  0  0  0  0  0
   -4.2890   -6.1810    0.0000 O   0  0  0  0  0  0  0  0  0  0  0  0
   -4.2800   -7.4720    0.0000 C   0  0  0  0  0  0  0  0  0  0  0  0
   -4.3030   -2.2580    0.0000 C   0  0  0  0  0  0  0  0  0  0  0  0
   -5.7320   -1.8810    0.0000 C   0  0  0  0  0  0  0  0  0  0  0  0
    8.0720   -0.6560    0.0000 C   0  0  3  0  0  0  0  0  0  0  0  0
    9.1300    0.3110    0.0000 C   0  0  3  0  0  0  0  0  0  0  0  0
    8.3870    1.9800    0.0000 N   0  0  3  0  0  0  0  0  0  0  0  0
    8.7820    3.0310    0.0000 C   0  0  0  0  0  0  0  0  0  0  0  0
    9.3470    1.7490    0.0000 C   0  0  3  0  0  0  0  0  0  0  0  0
    7.9730    0.7280    0.0000 C   0  0  0  0  0  0  0  0  0  0  0  0
   10.8930    1.8330    0.0000 C   0  0  0  0  0  0  0  0  0  0  0  0
   10.9620    0.5310    0.0000 C   0  0  3  0  0  0  0  0  0  0  0  0
   12.1230   -0.4160    0.0000 C   0  0  0  0  0  0  0  0  0  0  0  0
   13.5310    0.1090    0.0000 C   0  0  0  0  0  0  0  0  0  0  0  0
    6.7990    2.3860    0.0000 C   0  0  0  0  0  0  0  0  0  0  0  0
    5.6060    1.5560    0.0000 C   0  0  0  0  0  0  0  0  0  0  0  0
    8.5710   -2.0690    0.0000 C   0  0  0  0  0  0  0  0  0  0  0  0
   10.0550   -2.3490    0.0000 O   0  0  0  0  0  0  0  0  0  0  0  0
   10.5410   -3.7720    0.0000 C   0  0  0  0  0  0  0  0  0  0  0  0
    7.6140   -3.2240    0.0000 O   0  0  0  0  0  0  0  0  0  0  0  0
  1  2  1  0  0  0  0
  1  3  1  0  0  0  0
  3  4  1  0  0  0  0
  3 11  2  0  0  0  0
  4  5  2  0  0  0  0
  5  6  1  0  0  0  0
  5  9  1  0  0  0  0
  6  7  2  0  0  0  0
  6 48  1  0  0  0  0
  7  8  1  0  0  0  0
  7 37  1  0  0  0  0
  8  9  1  0  0  0  0
  9 10  2  0  0  0  0
 10 11  1  0  0  0  0
 11 12  1  0  0  0  0
 12 13  1  0  0  0  0
 12 21  1  0  0  0  0
 13 14  1  0  0  0  0
 14 15  1  0  0  0  0
 14 29  1  0  0  0  0
 15 16  1  0  0  0  0
 15 35  2  3  0  0  0
 16 17  1  0  0  0  0
 17 18  1  0  0  0  0
 17 34  1  0  0  0  0
 18 19  1  0  0  0  0
 18 29  1  0  0  0  0
 19 20  1  0  0  0  0
 20 21  2  0  0  0  0
 20 24  1  0  0  0  0
 21 22  1  0  0  0  0
 22 23  1  0  0  0  0
 23 24  1  0  0  0  0
 23 28  2  0  0  0  0
 24 25  2  0  0  0  0
 25 26  1  0  0  0  0
 26 27  2  0  0  0  0
 27 28  1  0  0  0  0
 29 30  1  0  0  0  0
 30 31  1  0  0  0  0
 30 33  2  0  0  0  0
 31 32  1  0  0  0  0
 35 36  1  0  0  0  0
 37 38  1  0  0  0  0
 37 42  1  0  0  0  0
 37 49  1  0  0  0  0
 38 39  1  0  0  0  0
 38 44  1  0  0  0  0
 39 40  1  0  0  0  0
 39 47  1  0  0  0  0
 40 41  1  0  0  0  0
 41 42  1  0  0  0  0
 41 43  1  0  0  0  0
 43 44  1  0  0  0  0
 44 45  1  0  0  0  0
 45 46  1  0  0  0  0
 47 48  1  0  0  0  0
 49 50  1  0  0  0  0
 49 52  2  0  0  0  0
 50 51  1  0  0  0  0
M  END
>  <Index>
1152

>  <ID>
HT2192

>  <class>
0

>  <apol>
118.76324

>  <ast_fraglike>
0

>  <ast_fraglike_ext>
0

>  <ast_violation>
3

>  <ast_violation_ext>
4

>  <a_acc>
5

>  <a_acid>
0

>  <a_aro>
18

>  <a_base>
0

>  <a_count>
104

>  <a_don>
2

>  <a_donacc>
7

>  <a_heavy>
52

>  <a_hyd>
41

>  <a_IC>
147.48384

>  <a_ICM>
1.4181138

>  <a_nB>
0

>  <a_nBr>
0

>  <a_nC>
43

>  <a_nCl>
0

>  <a_nF>
0

>  <a_nH>
52

>  <a_nI>
0

>  <a_nN>
4

>  <a_nO>
5

>  <a_nP>
0

>  <a_nS>
0

>  <balabanJ>
1.0749854

>  <BCUT_PEOE_0>
-2.9264667

>  <BCUT_PEOE_1>
-0.51164091

>  <BCUT_PEOE_2>
0.54303205

>  <BCUT_PEOE_3>
2.916326

>  <BCUT_SLOGP_0>
-2.9647927

>  <BCUT_SLOGP_1>
-0.43024164

>  <BCUT_SLOGP_2>
0.62568027

>  <BCUT_SLOGP_3>
2.9079828

>  <BCUT_SMR_0>
-2.6721022

>  <BCUT_SMR_1>
-0.3728098

>  <BCUT_SMR_2>
0.68971556

>  <BCUT_SMR_3>
3.1666274

>  <bpol>
69.790764

>  <b_1rotN>
5

>  <b_1rotR>
0.083333336

>  <b_ar>
20

>  <b_count>
112

>  <b_double>
3

>  <b_heavy>
60

>  <b_max1len>
4

>  <b_rotN>
7

>  <b_rotR>
0.11666667

>  <b_single>
89

>  <b_triple>
0

>  <chi0>
36.050949

>  <chi0v>
31.382534

>  <chi0v_C>
27.446865

>  <chi0_C>
29.360714

>  <chi1>
25.25145

>  <chi1v>
19.336418

>  <chi1v_C>
14.178759

>  <chi1_C>
16.648928

>  <chiral>
8

>  <chiral_u>
8

>  <density>
0.71282977

>  <diameter>
16

>  <FCharge>
0

>  <GCUT_PEOE_0>
-0.85998678

>  <GCUT_PEOE_1>
-0.3994247

>  <GCUT_PEOE_2>
0.030897526

>  <GCUT_PEOE_3>
3.5083542

>  <GCUT_SLOGP_0>
-0.95635945

>  <GCUT_SLOGP_1>
-0.30609536

>  <GCUT_SLOGP_2>
0.10338622

>  <GCUT_SLOGP_3>
3.564708

>  <GCUT_SMR_0>
-0.53138232

>  <GCUT_SMR_1>
-0.19559996

>  <GCUT_SMR_2>
0.14016725

>  <GCUT_SMR_3>
3.7675905

>  <Kier1>
37.57

>  <Kier2>
14.741589

>  <Kier3>
5.8263969

>  <KierA1>
30.818085

>  <KierA2>
12.043153

>  <KierA3>
4.7465262

>  <KierFlex>
7.1374407

>  <lip_acc>
9

>  <lip_don>
2

>  <lip_druglike>
0

>  <lip_violation>
2

>  <logP(o/w)>
6.8280001

>  <logS>
-7.1585002

>  <mr>
20.108599

>  <mutagenic>
0

>  <nmol>
1

>  <opr_brigid>
45

>  <opr_leadlike>
0

>  <opr_nring>
9

>  <opr_nrot>
5

>  <opr_violation>
4

>  <PC+>
0

>  <PC->
0

>  <PEOE_PC+>
3.6250873

>  <PEOE_PC->
-3.6250873

>  <PEOE_RPC+>
0.075995661

>  <PEOE_RPC->
0.098535962

>  <PEOE_VSA+0>
297.10028

>  <PEOE_VSA+1>
76.704697

>  <PEOE_VSA+2>
0

>  <PEOE_VSA+3>
17.238026

>  <PEOE_VSA+4>
0

>  <PEOE_VSA+5>
29.416998

>  <PEOE_VSA+6>
0

>  <PEOE_VSA-0>
128.88327

>  <PEOE_VSA-1>
78.677147

>  <PEOE_VSA-2>
0

>  <PEOE_VSA-3>
0

>  <PEOE_VSA-4>
0

>  <PEOE_VSA-5>
27.133842

>  <PEOE_VSA-6>
7.7850504

>  <PEOE_VSA_FHYD>
0.90295357

>  <PEOE_VSA_FNEG>
0.36576396

>  <PEOE_VSA_FPNEG>
0.052672833

>  <PEOE_VSA_FPOL>
0.097046427

>  <PEOE_VSA_FPOS>
0.63423604

>  <PEOE_VSA_FPPOS>
0.044373594

>  <PEOE_VSA_HYD>
598.60339

>  <PEOE_VSA_NEG>
242.47931

>  <PEOE_VSA_PNEG>
34.918892

>  <PEOE_VSA_POL>
64.335892

>  <PEOE_VSA_POS>
420.45999

>  <PEOE_VSA_PPOS>
29.416998

>  <petitjean>
0.5

>  <petitjeanSC>
1

>  <Q_PC+>
0

>  <Q_PC->
0

>  <Q_RPC+>
0

>  <Q_RPC->
0

>  <Q_VSA_FHYD>
1

>  <Q_VSA_FNEG>
0

>  <Q_VSA_FPNEG>
0

>  <Q_VSA_FPOL>
0

>  <Q_VSA_FPOS>
1

>  <Q_VSA_FPPOS>
0

>  <Q_VSA_HYD>
662.93927

>  <Q_VSA_NEG>
0

>  <Q_VSA_PNEG>
0

>  <Q_VSA_POL>
0

>  <Q_VSA_POS>
662.93927

>  <Q_VSA_PPOS>
0

>  <radius>
8

>  <reactive>
0

>  <rings>
9

>  <RPC+>
0

>  <RPC->
0

>  <rsynth>
0.32692307

>  <SlogP>
6.4888401

>  <SlogP_VSA0>
10.999887

>  <SlogP_VSA1>
21.739555

>  <SlogP_VSA2>
111.2592

>  <SlogP_VSA3>
55.318733

>  <SlogP_VSA4>
32.713406

>  <SlogP_VSA5>
179.97118

>  <SlogP_VSA6>
4.4107962

>  <SlogP_VSA7>
132.93649

>  <SlogP_VSA8>
75.473625

>  <SlogP_VSA9>
71.895454

>  <SMR>
20.174841

>  <SMR_VSA0>
69.724205

>  <SMR_VSA1>
17.248516

>  <SMR_VSA2>
51.214245

>  <SMR_VSA3>
35.873955

>  <SMR_VSA4>
9.4342031

>  <SMR_VSA5>
236.71272

>  <SMR_VSA6>
70.809662

>  <SMR_VSA7>
205.70082

>  <TPSA>
99.889999

>  <VAdjEq>
0.26202014

>  <VAdjMa>
6.9068904

>  <VDistEq>
3.801105

>  <VDistMa>
11.159446

>  <vdw_area>
662.93927

>  <vdw_vol>
988.89252

>  <vsa_acc>
29.637598

>  <vsa_acid>
0

>  <vsa_base>
0

>  <vsa_don>
11.365152

>  <vsa_hyd>
539.05035

>  <vsa_other>
34.424511

>  <vsa_pol>
41.00275

>  <Weight>
704.91199

>  <weinerPath>
9273

>  <weinerPol>
118

>  <zagreb>
306

$$$$