Clc1cc(Nc2ncnc3c2cc(NC(=O)C=CCN(C)C)c(O[C@H]2CCOC2)c3)ccc1F
  MOE2013           2D

 34 37  0  0  1  0  0  0  0  0999 V2000
    0.0000    0.0000    0.0000 Cl  0  0  0  0  0  0  0  0  0  0  0  0
   -1.3010   -0.7470    0.0000 C   0  0  0  0  0  0  0  0  0  0  0  0
   -2.5980    0.0070    0.0000 C   0  0  0  0  0  0  0  0  0  0  0  0
   -3.8990   -0.7400    0.0000 C   0  0  0  0  0  0  0  0  0  0  0  0
   -5.1960    0.0130    0.0000 N   0  0  0  0  0  0  0  0  0  0  0  0
   -6.4970   -0.7330    0.0000 C   0  0  0  0  0  0  0  0  0  0  0  0
   -6.5010   -2.2330    0.0000 N   0  0  0  0  0  0  0  0  0  0  0  0
   -7.8020   -2.9800    0.0000 C   0  0  0  0  0  0  0  0  0  0  0  0
   -9.0990   -2.2270    0.0000 N   0  0  0  0  0  0  0  0  0  0  0  0
   -9.0950   -0.7270    0.0000 C   0  0  0  0  0  0  0  0  0  0  0  0
   -7.7940    0.0200    0.0000 C   0  0  0  0  0  0  0  0  0  0  0  0
   -7.7900    1.5200    0.0000 C   0  0  0  0  0  0  0  0  0  0  0  0
   -9.0870    2.2730    0.0000 C   0  0  0  0  0  0  0  0  0  0  0  0
   -9.0840    3.7730    0.0000 N   0  0  0  0  0  0  0  0  0  0  0  0
   -7.7830    4.5200    0.0000 C   0  0  0  0  0  0  0  0  0  0  0  0
   -6.4850    3.7670    0.0000 O   0  0  0  0  0  0  0  0  0  0  0  0
   -7.7790    6.0200    0.0000 C   0  0  0  0  0  0  0  0  0  0  0  0
   -6.4780    6.7670    0.0000 C   0  0  0  0  0  0  0  0  0  0  0  0
   -6.4740    8.2670    0.0000 C   0  0  0  0  0  0  0  0  0  0  0  0
   -5.1730    9.0130    0.0000 N   0  0  0  0  0  0  0  0  0  0  0  0
   -5.1690   10.5130    0.0000 C   0  0  0  0  0  0  0  0  0  0  0  0
   -3.8760    8.2600    0.0000 C   0  0  0  0  0  0  0  0  0  0  0  0
  -10.3880    1.5270    0.0000 C   0  0  0  0  0  0  0  0  0  0  0  0
  -11.6850    2.2800    0.0000 O   0  0  0  0  0  0  0  0  0  0  0  0
  -12.9860    1.5340    0.0000 C   0  0  1  0  0  0  0  0  0  0  0  0
  -14.3550    2.1470    0.0000 C   0  0  0  0  0  0  0  0  0  0  0  0
  -15.3620    1.0350    0.0000 C   0  0  0  0  0  0  0  0  0  0  0  0
  -14.6150   -0.2660    0.0000 O   0  0  0  0  0  0  0  0  0  0  0  0
  -13.1470    0.0420    0.0000 C   0  0  0  0  0  0  0  0  0  0  0  0
  -10.3920    0.0270    0.0000 C   0  0  0  0  0  0  0  0  0  0  0  0
   -3.9030   -2.2400    0.0000 C   0  0  0  0  0  0  0  0  0  0  0  0
   -2.6060   -2.9930    0.0000 C   0  0  0  0  0  0  0  0  0  0  0  0
   -1.3050   -2.2470    0.0000 C   0  0  0  0  0  0  0  0  0  0  0  0
   -0.0080   -3.0000    0.0000 F   0  0  0  0  0  0  0  0  0  0  0  0
  1  2  1  0  0  0  0
  2  3  2  0  0  0  0
  2 33  1  0  0  0  0
  3  4  1  0  0  0  0
  4  5  1  0  0  0  0
  4 31  2  0  0  0  0
  5  6  1  0  0  0  0
  6  7  2  0  0  0  0
  6 11  1  0  0  0  0
  7  8  1  0  0  0  0
  8  9  2  0  0  0  0
  9 10  1  0  0  0  0
 10 11  1  0  0  0  0
 10 30  2  0  0  0  0
 11 12  2  0  0  0  0
 12 13  1  0  0  0  0
 13 14  1  0  0  0  0
 13 23  2  0  0  0  0
 14 15  1  0  0  0  0
 15 16  2  0  0  0  0
 15 17  1  0  0  0  0
 17 18  2  3  0  0  0
 18 19  1  0  0  0  0
 19 20  1  0  0  0  0
 20 21  1  0  0  0  0
 20 22  1  0  0  0  0
 23 24  1  0  0  0  0
 23 30  1  0  0  0  0
 25 24  1  6  0  0  0
 25 26  1  0  0  0  0
 25 29  1  0  0  0  0
 26 27  1  0  0  0  0
 27 28  1  0  0  0  0
 28 29  1  0  0  0  0
 31 32  1  0  0  0  0
 32 33  2  0  0  0  0
 33 34  1  0  0  0  0
M  END
>  <Index>
1180

>  <ID>
HT2287

>  <class>
0

>  <apol>
69.552826

>  <ast_fraglike>
0

>  <ast_fraglike_ext>
0

>  <ast_violation>
3

>  <ast_violation_ext>
4

>  <a_acc>
6

>  <a_acid>
0

>  <a_aro>
16

>  <a_base>
0

>  <a_count>
59

>  <a_don>
2

>  <a_donacc>
8

>  <a_heavy>
34

>  <a_hyd>
23

>  <a_IC>
104.5759

>  <a_ICM>
1.772473

>  <a_nB>
0

>  <a_nBr>
0

>  <a_nC>
24

>  <a_nCl>
1

>  <a_nF>
1

>  <a_nH>
25

>  <a_nI>
0

>  <a_nN>
5

>  <a_nO>
3

>  <a_nP>
0

>  <a_nS>
0

>  <balabanJ>
1.3832895

>  <BCUT_PEOE_0>
-2.5535116

>  <BCUT_PEOE_1>
-0.62484109

>  <BCUT_PEOE_2>
0.57350975

>  <BCUT_PEOE_3>
2.6676815

>  <BCUT_SLOGP_0>
-2.6293309

>  <BCUT_SLOGP_1>
-0.46328926

>  <BCUT_SLOGP_2>
0.75373459

>  <BCUT_SLOGP_3>
2.610389

>  <BCUT_SMR_0>
-2.2593145

>  <BCUT_SMR_1>
-0.34658447

>  <BCUT_SMR_2>
0.82256168

>  <BCUT_SMR_3>
2.8867693

>  <bpol>
39.683174

>  <b_1rotN>
8

>  <b_1rotR>
0.21621622

>  <b_ar>
17

>  <b_count>
62

>  <b_double>
2

>  <b_heavy>
37

>  <b_max1len>
5

>  <b_rotN>
9

>  <b_rotR>
0.24324325

>  <b_single>
43

>  <b_triple>
0

>  <chi0>
24.078775

>  <chi0v>
19.602823

>  <chi0v_C>
14.52458

>  <chi0_C>
16.258783

>  <chi1>
16.38505

>  <chi1v>
11.140984

>  <chi1v_C>
5.9894876

>  <chi1_C>
7.8240647

>  <chiral>
1

>  <chiral_u>
0

>  <density>
0.7910828

>  <diameter>
16

>  <FCharge>
0

>  <GCUT_PEOE_0>
-0.85940796

>  <GCUT_PEOE_1>
-0.40932828

>  <GCUT_PEOE_2>
0.048577026

>  <GCUT_PEOE_3>
2.6681542

>  <GCUT_SLOGP_0>
-0.99789029

>  <GCUT_SLOGP_1>
-0.31823134

>  <GCUT_SLOGP_2>
0.18052244

>  <GCUT_SLOGP_3>
2.7730191

>  <GCUT_SMR_0>
-0.52198803

>  <GCUT_SMR_1>
-0.19699024

>  <GCUT_SMR_2>
0.21735117

>  <GCUT_SMR_3>
2.9581447

>  <Kier1>
27.046019

>  <Kier2>
12.991926

>  <Kier3>
7.75

>  <KierA1>
21.066954

>  <KierA2>
10.038441

>  <KierA3>
5.9542623

>  <KierFlex>
6.2199812

>  <lip_acc>
8

>  <lip_don>
2

>  <lip_druglike>
1

>  <lip_violation>
0

>  <logP(o/w)>
3.372

>  <logS>
-6.2447

>  <mr>
12.912218

>  <mutagenic>
0

>  <nmol>
1

>  <opr_brigid>
23

>  <opr_leadlike>
1

>  <opr_nring>
4

>  <opr_nrot>
9

>  <opr_violation>
1

>  <PC+>
0

>  <PC->
0

>  <PEOE_PC+>
2.7971079

>  <PEOE_PC->
-2.7971079

>  <PEOE_RPC+>
0.088999987

>  <PEOE_RPC->
0.13482113

>  <PEOE_VSA+0>
77.009178

>  <PEOE_VSA+1>
103.911

>  <PEOE_VSA+2>
62.791252

>  <PEOE_VSA+3>
8.6190128

>  <PEOE_VSA+4>
12.949531

>  <PEOE_VSA+5>
0

>  <PEOE_VSA+6>
0

>  <PEOE_VSA-0>
116.45321

>  <PEOE_VSA-1>
41.836849

>  <PEOE_VSA-2>
0

>  <PEOE_VSA-3>
0

>  <PEOE_VSA-4>
23.410679

>  <PEOE_VSA-5>
13.566921

>  <PEOE_VSA-6>
5.1444035

>  <PEOE_VSA_FHYD>
0.8817426

>  <PEOE_VSA_FNEG>
0.43035322

>  <PEOE_VSA_FPNEG>
0.090450339

>  <PEOE_VSA_FPOL>
0.11825741

>  <PEOE_VSA_FPOS>
0.56964678

>  <PEOE_VSA_FPPOS>
0.02780707

>  <PEOE_VSA_HYD>
410.62051

>  <PEOE_VSA_NEG>
200.41206

>  <PEOE_VSA_PNEG>
42.122002

>  <PEOE_VSA_POL>
55.071533

>  <PEOE_VSA_POS>
265.27997

>  <PEOE_VSA_PPOS>
12.949531

>  <petitjean>
0.5

>  <petitjeanSC>
1

>  <Q_PC+>
0

>  <Q_PC->
0

>  <Q_RPC+>
0

>  <Q_RPC->
0

>  <Q_VSA_FHYD>
1

>  <Q_VSA_FNEG>
0

>  <Q_VSA_FPNEG>
0

>  <Q_VSA_FPOL>
0

>  <Q_VSA_FPOS>
1

>  <Q_VSA_FPPOS>
0

>  <Q_VSA_HYD>
465.69205

>  <Q_VSA_NEG>
0

>  <Q_VSA_PNEG>
0

>  <Q_VSA_POL>
0

>  <Q_VSA_POS>
465.69205

>  <Q_VSA_PPOS>
0

>  <radius>
8

>  <reactive>
0

>  <rings>
4

>  <RPC+>
0

>  <RPC->
0

>  <rsynth>
1

>  <SlogP>
4.3899002

>  <SlogP_VSA0>
10.999887

>  <SlogP_VSA1>
77.975655

>  <SlogP_VSA2>
50.451771

>  <SlogP_VSA3>
60.292095

>  <SlogP_VSA4>
0

>  <SlogP_VSA5>
65.794373

>  <SlogP_VSA6>
3.5006065

>  <SlogP_VSA7>
145.00493

>  <SlogP_VSA8>
18.868406

>  <SlogP_VSA9>
67.193604

>  <SMR>
13.04064

>  <SMR_VSA0>
34.862103

>  <SMR_VSA1>
62.655373

>  <SMR_VSA2>
9.1210184

>  <SMR_VSA3>
15.212684

>  <SMR_VSA4>
48.580017

>  <SMR_VSA5>
159.15622

>  <SMR_VSA6>
65.55088

>  <SMR_VSA7>
104.94302

>  <TPSA>
88.610001

>  <VAdjEq>
0.34317648

>  <VAdjMa>
6.2094536

>  <VDistEq>
3.7585776

>  <VDistMa>
9.9021301

>  <vdw_area>
465.69205

>  <vdw_vol>
614.28082

>  <vsa_acc>
29.939585

>  <vsa_acid>
0

>  <vsa_base>
0

>  <vsa_don>
11.365152

>  <vsa_hyd>
352.93875

>  <vsa_other>
48.930611

>  <vsa_pol>
41.304737

>  <Weight>
485.94699

>  <weinerPath>
3655

>  <weinerPol>
50

>  <zagreb>
176

$$$$