Clc1cc(Cl)ccc1[C@@]1(O[C@H](CO1)COc1ccc(N2CCN(CC2)C(C)C)cc1)Cn1ncnc1
  MOE2013           2D

 36 40  0  0  1  0  0  0  0  0999 V2000
    0.0000    0.0000    0.0000 Cl  0  0  0  0  0  0  0  0  0  0  0  0
   -1.5000    0.0040    0.0000 C   0  0  0  0  0  0  0  0  0  0  0  0
   -2.2470    1.3040    0.0000 C   0  0  0  0  0  0  0  0  0  0  0  0
   -3.7470    1.3080    0.0000 C   0  0  0  0  0  0  0  0  0  0  0  0
   -4.4940    2.6090    0.0000 Cl  0  0  0  0  0  0  0  0  0  0  0  0
   -4.5000    0.0110    0.0000 C   0  0  0  0  0  0  0  0  0  0  0  0
   -3.7530   -1.2900    0.0000 C   0  0  0  0  0  0  0  0  0  0  0  0
   -2.2530   -1.2940    0.0000 C   0  0  0  0  0  0  0  0  0  0  0  0
   -1.5060   -2.5950    0.0000 C   0  0  2  0  0  0  0  0  0  0  0  0
   -0.1240   -2.0120    0.0000 O   0  0  0  0  0  0  0  0  0  0  0  0
    0.8570   -3.1460    0.0000 C   0  0  2  0  0  0  0  0  0  0  0  0
    0.0820   -4.4300    0.0000 C   0  0  0  0  0  0  0  0  0  0  0  0
   -1.3790   -4.0890    0.0000 O   0  0  0  0  0  0  0  0  0  0  0  0
    2.3520   -3.0190    0.0000 C   0  0  0  0  0  0  0  0  0  0  0  0
    3.2100   -4.2500    0.0000 O   0  0  0  0  0  0  0  0  0  0  0  0
    4.7040   -4.1220    0.0000 C   0  0  0  0  0  0  0  0  0  0  0  0
    5.3410   -2.7640    0.0000 C   0  0  0  0  0  0  0  0  0  0  0  0
    6.8360   -2.6370    0.0000 C   0  0  0  0  0  0  0  0  0  0  0  0
    7.6930   -3.8680    0.0000 C   0  0  0  0  0  0  0  0  0  0  0  0
    9.1880   -3.7410    0.0000 N   0  0  0  0  0  0  0  0  0  0  0  0
   10.0450   -4.9710    0.0000 C   0  0  0  0  0  0  0  0  0  0  0  0
   11.5400   -4.8440    0.0000 C   0  0  0  0  0  0  0  0  0  0  0  0
   12.1770   -3.4860    0.0000 N   0  0  0  0  0  0  0  0  0  0  0  0
   11.3200   -2.2560    0.0000 C   0  0  0  0  0  0  0  0  0  0  0  0
    9.8250   -2.3830    0.0000 C   0  0  0  0  0  0  0  0  0  0  0  0
   13.6720   -3.3590    0.0000 C   0  0  0  0  0  0  0  0  0  0  0  0
   14.5290   -4.5900    0.0000 C   0  0  0  0  0  0  0  0  0  0  0  0
   14.3090   -2.0010    0.0000 C   0  0  0  0  0  0  0  0  0  0  0  0
    7.0560   -5.2260    0.0000 C   0  0  0  0  0  0  0  0  0  0  0  0
    5.5620   -5.3530    0.0000 C   0  0  0  0  0  0  0  0  0  0  0  0
   -3.0050   -2.6430    0.0000 C   0  0  0  0  0  0  0  0  0  0  0  0
   -3.7130   -3.9660    0.0000 N   0  0  0  0  0  0  0  0  0  0  0  0
   -3.0580   -5.3160    0.0000 N   0  0  0  0  0  0  0  0  0  0  0  0
   -4.1400   -6.3550    0.0000 C   0  0  0  0  0  0  0  0  0  0  0  0
   -5.4620   -5.6480    0.0000 N   0  0  0  0  0  0  0  0  0  0  0  0
   -5.1990   -4.1710    0.0000 C   0  0  0  0  0  0  0  0  0  0  0  0
  1  2  1  0  0  0  0
  2  3  2  0  0  0  0
  2  8  1  0  0  0  0
  3  4  1  0  0  0  0
  4  5  1  0  0  0  0
  4  6  2  0  0  0  0
  6  7  1  0  0  0  0
  7  8  2  0  0  0  0
  9  8  1  6  0  0  0
  9 10  1  0  0  0  0
  9 13  1  0  0  0  0
  9 31  1  1  0  0  0
 10 11  1  0  0  0  0
 11 12  1  0  0  0  0
 11 14  1  1  0  0  0
 12 13  1  0  0  0  0
 14 15  1  0  0  0  0
 15 16  1  0  0  0  0
 16 17  1  0  0  0  0
 16 30  2  0  0  0  0
 17 18  2  0  0  0  0
 18 19  1  0  0  0  0
 19 20  1  0  0  0  0
 19 29  2  0  0  0  0
 20 21  1  0  0  0  0
 20 25  1  0  0  0  0
 21 22  1  0  0  0  0
 22 23  1  0  0  0  0
 23 24  1  0  0  0  0
 23 26  1  0  0  0  0
 24 25  1  0  0  0  0
 26 27  1  0  0  0  0
 26 28  1  0  0  0  0
 29 30  1  0  0  0  0
 31 32  1  0  0  0  0
 32 33  1  0  0  0  0
 32 36  1  0  0  0  0
 33 34  2  0  0  0  0
 34 35  1  0  0  0  0
 35 36  2  0  0  0  0
M  END
>  <Index>
1051

>  <ID>
HT2010

>  <class>
0

>  <apol>
78.696587

>  <ast_fraglike>
0

>  <ast_fraglike_ext>
0

>  <ast_violation>
3

>  <ast_violation_ext>
4

>  <a_acc>
6

>  <a_acid>
0

>  <a_aro>
17

>  <a_base>
0

>  <a_count>
67

>  <a_don>
0

>  <a_donacc>
6

>  <a_heavy>
36

>  <a_hyd>
25

>  <a_IC>
112.27193

>  <a_ICM>
1.6757004

>  <a_nB>
0

>  <a_nBr>
0

>  <a_nC>
26

>  <a_nCl>
2

>  <a_nF>
0

>  <a_nH>
31

>  <a_nI>
0

>  <a_nN>
5

>  <a_nO>
3

>  <a_nP>
0

>  <a_nS>
0

>  <balabanJ>
1.0889887

>  <BCUT_PEOE_0>
-2.7839587

>  <BCUT_PEOE_1>
-0.55648583

>  <BCUT_PEOE_2>
0.54296869

>  <BCUT_PEOE_3>
2.7003202

>  <BCUT_SLOGP_0>
-2.8905864

>  <BCUT_SLOGP_1>
-0.44261152

>  <BCUT_SLOGP_2>
0.80591482

>  <BCUT_SLOGP_3>
2.6955988

>  <BCUT_SMR_0>
-2.4923944

>  <BCUT_SMR_1>
-0.31447753

>  <BCUT_SMR_2>
0.85431087

>  <BCUT_SMR_3>
2.9665027

>  <bpol>
47.737415

>  <b_1rotN>
8

>  <b_1rotR>
0.2

>  <b_ar>
17

>  <b_count>
71

>  <b_double>
0

>  <b_heavy>
40

>  <b_max1len>
4

>  <b_rotN>
8

>  <b_rotR>
0.2

>  <b_single>
54

>  <b_triple>
0

>  <chi0>
25.122746

>  <chi0v>
22.0292

>  <chi0v_C>
16.3006

>  <chi0_C>
17.85516

>  <chi1>
17.415453

>  <chi1v>
12.98921

>  <chi1v_C>
7.1341515

>  <chi1_C>
8.7127457

>  <chiral>
2

>  <chiral_u>
0

>  <density>
0.78320765

>  <diameter>
19

>  <FCharge>
0

>  <GCUT_PEOE_0>
-0.85452431

>  <GCUT_PEOE_1>
-0.37802649

>  <GCUT_PEOE_2>
0.015019861

>  <GCUT_PEOE_3>
2.8284297

>  <GCUT_SLOGP_0>
-0.9867425

>  <GCUT_SLOGP_1>
-0.30168119

>  <GCUT_SLOGP_2>
0.16445385

>  <GCUT_SLOGP_3>
2.8812861

>  <GCUT_SMR_0>
-0.52345729

>  <GCUT_SMR_1>
-0.1788225

>  <GCUT_SMR_2>
0.19305076

>  <GCUT_SMR_3>
3.0821292

>  <Kier1>
27.5625

>  <Kier2>
12.453062

>  <Kier3>
6.7818666

>  <KierA1>
24.009647

>  <KierA2>
10.803266

>  <KierA3>
5.866447

>  <KierFlex>
7.2050724

>  <lip_acc>
8

>  <lip_don>
0

>  <lip_druglike>
0

>  <lip_violation>
2

>  <logP(o/w)>
4

>  <logS>
-6.07723

>  <mr>
14.15449

>  <mutagenic>
0

>  <nmol>
1

>  <opr_brigid>
28

>  <opr_leadlike>
0

>  <opr_nring>
5

>  <opr_nrot>
11

>  <opr_violation>
4

>  <PC+>
0

>  <PC->
0

>  <PEOE_PC+>
2.74176

>  <PEOE_PC->
-2.74176

>  <PEOE_RPC+>
0.079714097

>  <PEOE_RPC->
0.12475929

>  <PEOE_VSA+0>
133.32388

>  <PEOE_VSA+1>
102.59625

>  <PEOE_VSA+2>
69.101883

>  <PEOE_VSA+3>
0

>  <PEOE_VSA+4>
1.1085443

>  <PEOE_VSA+5>
0

>  <PEOE_VSA+6>
0

>  <PEOE_VSA-0>
111.02478

>  <PEOE_VSA-1>
71.4188

>  <PEOE_VSA-2>
0

>  <PEOE_VSA-3>
9.4210396

>  <PEOE_VSA-4>
5.6825762

>  <PEOE_VSA-5>
0

>  <PEOE_VSA-6>
7.5112681

>  <PEOE_VSA_FHYD>
0.97202134

>  <PEOE_VSA_FNEG>
0.40114018

>  <PEOE_VSA_FPNEG>
0.025810109

>  <PEOE_VSA_FPOL>
0.02797867

>  <PEOE_VSA_FPOS>
0.59885979

>  <PEOE_VSA_FPPOS>
0.0021685604

>  <PEOE_VSA_HYD>
496.88663

>  <PEOE_VSA_NEG>
205.05846

>  <PEOE_VSA_PNEG>
13.193845

>  <PEOE_VSA_POL>
14.302389

>  <PEOE_VSA_POS>
306.13055

>  <PEOE_VSA_PPOS>
1.1085443

>  <petitjean>
0.47368422

>  <petitjeanSC>
0.89999998

>  <Q_PC+>
0

>  <Q_PC->
0

>  <Q_RPC+>
0

>  <Q_RPC->
0

>  <Q_VSA_FHYD>
1

>  <Q_VSA_FNEG>
0

>  <Q_VSA_FPNEG>
0

>  <Q_VSA_FPOL>
0

>  <Q_VSA_FPOS>
1

>  <Q_VSA_FPPOS>
0

>  <Q_VSA_HYD>
511.18903

>  <Q_VSA_NEG>
0

>  <Q_VSA_PNEG>
0

>  <Q_VSA_POL>
0

>  <Q_VSA_POS>
511.18903

>  <Q_VSA_PPOS>
0

>  <radius>
10

>  <reactive>
1

>  <rings>
5

>  <RPC+>
0

>  <RPC->
0

>  <rsynth>
1

>  <SlogP>
5.0405998

>  <SlogP_VSA0>
14.124202

>  <SlogP_VSA1>
38.349422

>  <SlogP_VSA2>
32.450394

>  <SlogP_VSA3>
115.61083

>  <SlogP_VSA4>
3.185575

>  <SlogP_VSA5>
0

>  <SlogP_VSA6>
7.0012131

>  <SlogP_VSA7>
157.07335

>  <SlogP_VSA8>
0

>  <SlogP_VSA9>
171.38907

>  <SMR>
14.0168

>  <SMR_VSA0>
21.999775

>  <SMR_VSA1>
49.349308

>  <SMR_VSA2>
3.1243138

>  <SMR_VSA3>
25.880835

>  <SMR_VSA4>
2.7567475

>  <SMR_VSA5>
175.51292

>  <SMR_VSA6>
115.61083

>  <SMR_VSA7>
144.94931

>  <TPSA>
64.879997

>  <VAdjEq>
0.33426812

>  <VAdjMa>
6.321928

>  <VDistEq>
4.0425887

>  <VDistMa>
10.01379

>  <vdw_area>
511.18903

>  <vdw_vol>
679.86053

>  <vsa_acc>
22.614883

>  <vsa_acid>
0

>  <vsa_base>
0

>  <vsa_don>
0

>  <vsa_hyd>
415.81891

>  <vsa_other>
50.689579

>  <vsa_pol>
22.614883

>  <Weight>
532.47198

>  <weinerPath>
4692

>  <weinerPol>
56

>  <zagreb>
194

$$$$