ClC(Cl)(Cl)CO
  MOE2013           2D

  6  5  0  0  0  0  0  0  0  0999 V2000
    0.0000    0.0000    0.0000 Cl  0  0  0  0  0  0  0  0  0  0  0  0
    0.7500   -1.2990    0.0000 C   0  0  0  0  0  0  0  0  0  0  0  0
   -0.5490   -2.0490    0.0000 Cl  0  0  0  0  0  0  0  0  0  0  0  0
    1.5000   -2.5980    0.0000 Cl  0  0  0  0  0  0  0  0  0  0  0  0
    2.0490   -0.5490    0.0000 C   0  0  0  0  0  0  0  0  0  0  0  0
    3.3480   -1.2990    0.0000 O   0  0  0  0  0  0  0  0  0  0  0  0
  1  2  1  0  0  0  0
  2  3  1  0  0  0  0
  2  4  1  0  0  0  0
  2  5  1  0  0  0  0
  5  6  1  0  0  0  0
M  END
>  <Index>
1223

>  <ID>
HT2623

>  <class>
0

>  <apol>
12.862379

>  <ast_fraglike>
1

>  <ast_fraglike_ext>
1

>  <ast_violation>
0

>  <ast_violation_ext>
0

>  <a_acc>
1

>  <a_acid>
0

>  <a_aro>
0

>  <a_base>
0

>  <a_count>
9

>  <a_don>
1

>  <a_donacc>
2

>  <a_heavy>
6

>  <a_hyd>
4

>  <a_IC>
17.01955

>  <a_ICM>
1.8910611

>  <a_nB>
0

>  <a_nBr>
0

>  <a_nC>
2

>  <a_nCl>
3

>  <a_nF>
0

>  <a_nH>
3

>  <a_nI>
0

>  <a_nN>
0

>  <a_nO>
1

>  <a_nP>
0

>  <a_nS>
0

>  <balabanJ>
3.1684899

>  <BCUT_PEOE_0>
-2.2933836

>  <BCUT_PEOE_1>
-0.29951248

>  <BCUT_PEOE_2>
0.3004804

>  <BCUT_PEOE_3>
2.3990204

>  <BCUT_SLOGP_0>
-2.4085138

>  <BCUT_SLOGP_1>
-0.19107443

>  <BCUT_SLOGP_2>
0.68949997

>  <BCUT_SLOGP_3>
2.3743234

>  <BCUT_SMR_0>
-2.0651932

>  <BCUT_SMR_1>
-0.12580949

>  <BCUT_SMR_2>
0.68506473

>  <BCUT_SMR_3>
2.637445

>  <bpol>
4.5396209

>  <b_1rotN>
0

>  <b_1rotR>
0

>  <b_ar>
0

>  <b_count>
8

>  <b_double>
0

>  <b_heavy>
5

>  <b_max1len>
4

>  <b_rotN>
1

>  <b_rotR>
0.2

>  <b_single>
8

>  <b_triple>
0

>  <chi0>
5.2071066

>  <chi0v>
5.0560007

>  <chi0v_C>
1.2071068

>  <chi0_C>
1.2071068

>  <chi1>
2.5606601

>  <chi1v>
2.3706212

>  <chi1v_C>
0.35355338

>  <chi1_C>
0.35355338

>  <chiral>
0

>  <chiral_u>
0

>  <density>
1.2539736

>  <diameter>
3

>  <FCharge>
0

>  <GCUT_PEOE_0>
-0.77820474

>  <GCUT_PEOE_1>
-0.30126312

>  <GCUT_PEOE_2>
0.0078272624

>  <GCUT_PEOE_3>
1.6337683

>  <GCUT_SLOGP_0>
-0.8960886

>  <GCUT_SLOGP_1>
-0.18789272

>  <GCUT_SLOGP_2>
0.52950001

>  <GCUT_SLOGP_3>
1.7458603

>  <GCUT_SMR_0>
-0.49757326

>  <GCUT_SMR_1>
-0.1106434

>  <GCUT_SMR_2>
0.4253

>  <GCUT_SMR_3>
1.9115719

>  <Kier1>
6

>  <Kier2>
1.6326531

>  <Kier3>
5.3333335

>  <KierA1>
11.949418

>  <KierA2>
3.7441289

>  <KierA3>
13.982117

>  <KierFlex>
7.4566941

>  <lip_acc>
1

>  <lip_don>
1

>  <lip_druglike>
1

>  <lip_violation>
0

>  <logP(o/w)>
1.10408

>  <logS>
-1.79576

>  <mr>
2.6592185

>  <mutagenic>
1

>  <nmol>
1

>  <opr_brigid>
0

>  <opr_leadlike>
1

>  <opr_nring>
0

>  <opr_nrot>
0

>  <opr_violation>
0

>  <PC+>
0

>  <PC->
0

>  <PEOE_PC+>
0.63350558

>  <PEOE_PC->
-0.63350558

>  <PEOE_RPC+>
0.33657712

>  <PEOE_RPC->
0.61693704

>  <PEOE_VSA+0>
0

>  <PEOE_VSA+1>
23.482065

>  <PEOE_VSA+2>
0

>  <PEOE_VSA+3>
0

>  <PEOE_VSA+4>
10.324173

>  <PEOE_VSA+5>
0

>  <PEOE_VSA+6>
0

>  <PEOE_VSA-0>
0

>  <PEOE_VSA-1>
88.745842

>  <PEOE_VSA-2>
0

>  <PEOE_VSA-3>
0

>  <PEOE_VSA-4>
0

>  <PEOE_VSA-5>
0

>  <PEOE_VSA-6>
7.7675405

>  <PEOE_VSA_FHYD>
0.86117429

>  <PEOE_VSA_FNEG>
0.7405898

>  <PEOE_VSA_FPNEG>
0.059603769

>  <PEOE_VSA_FPOL>
0.1388257

>  <PEOE_VSA_FPOS>
0.2594102

>  <PEOE_VSA_FPPOS>
0.079221934

>  <PEOE_VSA_HYD>
112.22791

>  <PEOE_VSA_NEG>
96.513382

>  <PEOE_VSA_PNEG>
7.7675405

>  <PEOE_VSA_POL>
18.091713

>  <PEOE_VSA_POS>
33.806236

>  <PEOE_VSA_PPOS>
10.324173

>  <petitjean>
0.33333334

>  <petitjeanSC>
0.5

>  <Q_PC+>
0

>  <Q_PC->
0

>  <Q_RPC+>
0

>  <Q_RPC->
0

>  <Q_VSA_FHYD>
1

>  <Q_VSA_FNEG>
0

>  <Q_VSA_FPNEG>
0

>  <Q_VSA_FPOL>
0

>  <Q_VSA_FPOS>
1

>  <Q_VSA_FPPOS>
0

>  <Q_VSA_HYD>
130.31963

>  <Q_VSA_NEG>
0

>  <Q_VSA_PNEG>
0

>  <Q_VSA_POL>
0

>  <Q_VSA_POS>
130.31963

>  <Q_VSA_PPOS>
0

>  <radius>
2

>  <reactive>
1

>  <rings>
0

>  <RPC+>
0

>  <RPC->
0

>  <rsynth>
1

>  <SlogP>
1.3489

>  <SlogP_VSA0>
25.385227

>  <SlogP_VSA1>
0

>  <SlogP_VSA2>
0

>  <SlogP_VSA3>
20.926258

>  <SlogP_VSA4>
0

>  <SlogP_VSA5>
0

>  <SlogP_VSA6>
0

>  <SlogP_VSA7>
0

>  <SlogP_VSA8>
0

>  <SlogP_VSA9>
117.44593

>  <SMR>
2.7375801

>  <SMR_VSA0>
0

>  <SMR_VSA1>
25.385227

>  <SMR_VSA2>
0

>  <SMR_VSA3>
0

>  <SMR_VSA4>
0

>  <SMR_VSA5>
0

>  <SMR_VSA6>
20.926258

>  <SMR_VSA7>
117.44593

>  <TPSA>
20.23

>  <VAdjEq>
0.85240519

>  <VAdjMa>
3.321928

>  <VDistEq>
1.5058231

>  <VDistMa>
4.7979026

>  <vdw_area>
130.31963

>  <vdw_vol>
119.14445

>  <vsa_acc>
0

>  <vsa_acid>
0

>  <vsa_base>
0

>  <vsa_don>
0

>  <vsa_hyd>
110.80431

>  <vsa_other>
0

>  <vsa_pol>
13.566921

>  <Weight>
149.40399

>  <weinerPath>
28

>  <weinerPol>
3

>  <zagreb>
24

$$$$