O(CC(CCC)(COC(=O)N)C)C(=O)NCCCC
  MOE2013           2D

 19 18  0  0  1  0  0  0  0  0999 V2000
    0.0000    0.0000    0.0000 O   0  0  0  0  0  0  0  0  0  0  0  0
   -1.2950   -0.7570    0.0000 C   0  0  0  0  0  0  0  0  0  0  0  0
   -2.5980   -0.0150    0.0000 C   0  0  3  0  0  0  0  0  0  0  0  0
   -3.9010    0.7280    0.0000 C   0  0  0  0  0  0  0  0  0  0  0  0
   -3.9100    2.2280    0.0000 C   0  0  0  0  0  0  0  0  0  0  0  0
   -5.2130    2.9700    0.0000 C   0  0  0  0  0  0  0  0  0  0  0  0
   -3.3410   -1.3180    0.0000 C   0  0  0  0  0  0  0  0  0  0  0  0
   -4.8410   -1.3270    0.0000 O   0  0  0  0  0  0  0  0  0  0  0  0
   -5.5830   -2.6300    0.0000 C   0  0  0  0  0  0  0  0  0  0  0  0
   -7.0830   -2.6380    0.0000 O   0  0  0  0  0  0  0  0  0  0  0  0
   -4.8260   -3.9250    0.0000 N   0  0  0  0  0  0  0  0  0  0  0  0
   -1.8550    1.2890    0.0000 C   0  0  0  0  0  0  0  0  0  0  0  0
    1.3030   -0.7430    0.0000 C   0  0  0  0  0  0  0  0  0  0  0  0
    1.3120   -2.2430    0.0000 O   0  0  0  0  0  0  0  0  0  0  0  0
    2.5980    0.0150    0.0000 N   0  0  0  0  0  0  0  0  0  0  0  0
    3.9010   -0.7280    0.0000 C   0  0  0  0  0  0  0  0  0  0  0  0
    5.1960    0.0290    0.0000 C   0  0  0  0  0  0  0  0  0  0  0  0
    6.4990   -0.7130    0.0000 C   0  0  0  0  0  0  0  0  0  0  0  0
    7.7940    0.0440    0.0000 C   0  0  0  0  0  0  0  0  0  0  0  0
  1  2  1  0  0  0  0
  1 13  1  0  0  0  0
  2  3  1  0  0  0  0
  3  4  1  0  0  0  0
  3  7  1  0  0  0  0
  3 12  1  0  0  0  0
  4  5  1  0  0  0  0
  5  6  1  0  0  0  0
  7  8  1  0  0  0  0
  8  9  1  0  0  0  0
  9 10  2  0  0  0  0
  9 11  1  0  0  0  0
 13 14  2  0  0  0  0
 13 15  1  0  0  0  0
 15 16  1  0  0  0  0
 16 17  1  0  0  0  0
 17 18  1  0  0  0  0
 18 19  1  0  0  0  0
M  END
>  <Index>
1303

>  <ID>
HT3222

>  <class>
0

>  <apol>
45.624619

>  <ast_fraglike>
1

>  <ast_fraglike_ext>
0

>  <ast_violation>
0

>  <ast_violation_ext>
1

>  <a_acc>
2

>  <a_acid>
0

>  <a_aro>
0

>  <a_base>
0

>  <a_count>
45

>  <a_don>
2

>  <a_donacc>
4

>  <a_heavy>
19

>  <a_hyd>
11

>  <a_IC>
66.816238

>  <a_ICM>
1.4848053

>  <a_nB>
0

>  <a_nBr>
0

>  <a_nC>
13

>  <a_nCl>
0

>  <a_nF>
0

>  <a_nH>
26

>  <a_nI>
0

>  <a_nN>
2

>  <a_nO>
4

>  <a_nP>
0

>  <a_nS>
0

>  <balabanJ>
4.0365276

>  <BCUT_PEOE_0>
-2.7279048

>  <BCUT_PEOE_1>
-0.21672161

>  <BCUT_PEOE_2>
0.091793887

>  <BCUT_PEOE_3>
2.7186086

>  <BCUT_SLOGP_0>
-2.7352254

>  <BCUT_SLOGP_1>
0.10829492

>  <BCUT_SLOGP_2>
0.24757579

>  <BCUT_SLOGP_3>
2.764338

>  <BCUT_SMR_0>
-2.4954655

>  <BCUT_SMR_1>
0.068511821

>  <BCUT_SMR_2>
0.12241975

>  <BCUT_SMR_3>
2.9485021

>  <bpol>
34.171383

>  <b_1rotN>
9

>  <b_1rotR>
0.5

>  <b_ar>
0

>  <b_count>
44

>  <b_double>
2

>  <b_heavy>
18

>  <b_max1len>
6

>  <b_rotN>
12

>  <b_rotR>
0.66666669

>  <b_single>
42

>  <b_triple>
0

>  <chi0>
14.725768

>  <chi0v>
12.16009

>  <chi0v_C>
9.4497471

>  <chi0_C>
9.6044483

>  <chi1>
8.9316692

>  <chi1v>
6.7609491

>  <chi1v_C>
4.4748735

>  <chi1_C>
4.4748735

>  <chiral>
1

>  <chiral_u>
1

>  <density>
0.71056938

>  <diameter>
12

>  <FCharge>
0

>  <GCUT_PEOE_0>
-0.82136786

>  <GCUT_PEOE_1>
-0.39281031

>  <GCUT_PEOE_2>
-0.068206109

>  <GCUT_PEOE_3>
2.6276214

>  <GCUT_SLOGP_0>
-1.3703439

>  <GCUT_SLOGP_1>
-0.12134746

>  <GCUT_SLOGP_2>
-0.0066

>  <GCUT_SLOGP_3>
2.6567273

>  <GCUT_SMR_0>
-0.5324735

>  <GCUT_SMR_1>
-0.12318984

>  <GCUT_SMR_2>
-0.054299999

>  <GCUT_SMR_3>
2.8374987

>  <Kier1>
19

>  <Kier2>
10.747934

>  <Kier3>
10.448979

>  <KierA1>
16.222986

>  <KierA2>
9.0912743

>  <KierA3>
8.7738533

>  <KierFlex>
7.7625055

>  <lip_acc>
6

>  <lip_don>
3

>  <lip_druglike>
1

>  <lip_violation>
0

>  <logP(o/w)>
2.4920001

>  <logS>
-2.8752601

>  <mr>
7.4140401

>  <mutagenic>
0

>  <nmol>
1

>  <opr_brigid>
0

>  <opr_leadlike>
1

>  <opr_nring>
0

>  <opr_nrot>
9

>  <opr_violation>
0

>  <PC+>
0

>  <PC->
0

>  <PEOE_PC+>
2.1250775

>  <PEOE_PC->
-2.1250775

>  <PEOE_RPC+>
0.16973691

>  <PEOE_RPC->
0.16272187

>  <PEOE_VSA+0>
94.234657

>  <PEOE_VSA+1>
46.96413

>  <PEOE_VSA+2>
0

>  <PEOE_VSA+3>
25.857038

>  <PEOE_VSA+4>
0

>  <PEOE_VSA+5>
0

>  <PEOE_VSA+6>
38.399021

>  <PEOE_VSA-0>
17.402626

>  <PEOE_VSA-1>
73.64566

>  <PEOE_VSA-2>
0

>  <PEOE_VSA-3>
0

>  <PEOE_VSA-4>
27.133842

>  <PEOE_VSA-5>
5.0075121

>  <PEOE_VSA-6>
6.7880106

>  <PEOE_VSA_FHYD>
0.76946664

>  <PEOE_VSA_FNEG>
0.38749272

>  <PEOE_VSA_FPNEG>
0.11605722

>  <PEOE_VSA_FPOL>
0.23053338

>  <PEOE_VSA_FPOS>
0.61250728

>  <PEOE_VSA_FPPOS>
0.11447615

>  <PEOE_VSA_HYD>
258.10413

>  <PEOE_VSA_NEG>
129.97765

>  <PEOE_VSA_PNEG>
38.929363

>  <PEOE_VSA_POL>
77.328384

>  <PEOE_VSA_POS>
205.45485

>  <PEOE_VSA_PPOS>
38.399021

>  <petitjean>
0.5

>  <petitjeanSC>
1

>  <Q_PC+>
0

>  <Q_PC->
0

>  <Q_RPC+>
0

>  <Q_RPC->
0

>  <Q_VSA_FHYD>
1

>  <Q_VSA_FNEG>
0

>  <Q_VSA_FPNEG>
0

>  <Q_VSA_FPOL>
0

>  <Q_VSA_FPOS>
1

>  <Q_VSA_FPPOS>
0

>  <Q_VSA_HYD>
335.4325

>  <Q_VSA_NEG>
0

>  <Q_VSA_PNEG>
0

>  <Q_VSA_POL>
0

>  <Q_VSA_POS>
335.4325

>  <Q_VSA_PPOS>
0

>  <radius>
6

>  <reactive>
0

>  <rings>
0

>  <RPC+>
0

>  <RPC->
0

>  <rsynth>
1

>  <SlogP>
2.4144001

>  <SlogP_VSA0>
50.90794

>  <SlogP_VSA1>
14.633273

>  <SlogP_VSA2>
21.999775

>  <SlogP_VSA3>
60.292095

>  <SlogP_VSA4>
0

>  <SlogP_VSA5>
0

>  <SlogP_VSA6>
0

>  <SlogP_VSA7>
0

>  <SlogP_VSA8>
75.473625

>  <SlogP_VSA9>
147.70248

>  <SMR>
7.28091

>  <SMR_VSA0>
69.724205

>  <SMR_VSA1>
0

>  <SMR_VSA2>
18.01075

>  <SMR_VSA3>
0

>  <SMR_VSA4>
32.897186

>  <SMR_VSA5>
75.473625

>  <SMR_VSA6>
74.925369

>  <SMR_VSA7>
99.978043

>  <TPSA>
90.650002

>  <VAdjEq>
0.46811688

>  <VAdjMa>
5.1699252

>  <VDistEq>
3.3686943

>  <VDistMa>
8.1818609

>  <vdw_area>
335.4325

>  <vdw_vol>
386.11429

>  <vsa_acc>
27.133842

>  <vsa_acid>
0

>  <vsa_base>
0

>  <vsa_don>
23.425066

>  <vsa_hyd>
215.87578

>  <vsa_other>
43.406532

>  <vsa_pol>
50.558907

>  <Weight>
274.36099

>  <weinerPath>
842

>  <weinerPol>
21

>  <zagreb>
80

$$$$