Oc1ccc(cc1)CC(N)C
  MOE2013           2D

 11 11  0  0  1  0  0  0  0  0999 V2000
    0.0000    0.0000    0.0000 O   0  0  0  0  0  0  0  0  0  0  0  0
    1.5000    0.0000    0.0000 C   0  0  0  0  0  0  0  0  0  0  0  0
    2.2500   -1.2990    0.0000 C   0  0  0  0  0  0  0  0  0  0  0  0
    3.7500   -1.2990    0.0000 C   0  0  0  0  0  0  0  0  0  0  0  0
    4.5000    0.0000    0.0000 C   0  0  0  0  0  0  0  0  0  0  0  0
    3.7500    1.2990    0.0000 C   0  0  0  0  0  0  0  0  0  0  0  0
    2.2500    1.2990    0.0000 C   0  0  0  0  0  0  0  0  0  0  0  0
    6.0000    0.0000    0.0000 C   0  0  0  0  0  0  0  0  0  0  0  0
    6.7500   -1.2990    0.0000 C   0  0  3  0  0  0  0  0  0  0  0  0
    6.0000   -2.5980    0.0000 N   0  0  0  0  0  0  0  0  0  0  0  0
    8.2500   -1.2990    0.0000 C   0  0  0  0  0  0  0  0  0  0  0  0
  1  2  1  0  0  0  0
  2  3  1  0  0  0  0
  2  7  2  0  0  0  0
  3  4  2  0  0  0  0
  4  5  1  0  0  0  0
  5  6  2  0  0  0  0
  5  8  1  0  0  0  0
  6  7  1  0  0  0  0
  8  9  1  0  0  0  0
  9 10  1  0  0  0  0
  9 11  1  0  0  0  0
M  END
>  <Index>
1228

>  <ID>
HT2636

>  <class>
0

>  <apol>
26.410309

>  <ast_fraglike>
1

>  <ast_fraglike_ext>
1

>  <ast_violation>
0

>  <ast_violation_ext>
0

>  <a_acc>
2

>  <a_acid>
0

>  <a_aro>
6

>  <a_base>
0

>  <a_count>
24

>  <a_don>
2

>  <a_donacc>
4

>  <a_heavy>
11

>  <a_hyd>
9

>  <a_IC>
33.40406

>  <a_ICM>
1.3918358

>  <a_nB>
0

>  <a_nBr>
0

>  <a_nC>
9

>  <a_nCl>
0

>  <a_nF>
0

>  <a_nH>
13

>  <a_nI>
0

>  <a_nN>
1

>  <a_nO>
1

>  <a_nP>
0

>  <a_nS>
0

>  <balabanJ>
2.1999989

>  <BCUT_PEOE_0>
-2.5781786

>  <BCUT_PEOE_1>
-0.61044592

>  <BCUT_PEOE_2>
0.67494267

>  <BCUT_PEOE_3>
2.5124819

>  <BCUT_SLOGP_0>
-2.7284324

>  <BCUT_SLOGP_1>
-0.55368179

>  <BCUT_SLOGP_2>
0.72349751

>  <BCUT_SLOGP_3>
2.5089111

>  <BCUT_SMR_0>
-2.3101909

>  <BCUT_SMR_1>
-0.48948437

>  <BCUT_SMR_2>
0.79870933

>  <BCUT_SMR_3>
2.7789326

>  <bpol>
13.551691

>  <b_1rotN>
2

>  <b_1rotR>
0.18181819

>  <b_ar>
6

>  <b_count>
24

>  <b_double>
0

>  <b_heavy>
11

>  <b_max1len>
4

>  <b_rotN>
2

>  <b_rotR>
0.18181819

>  <b_single>
18

>  <b_triple>
0

>  <chi0>
8.2675848

>  <chi0v>
6.618422

>  <chi0v_C>
5.5938582

>  <chi0_C>
6.2675848

>  <chi1>
5.1815405

>  <chi1v>
3.7174592

>  <chi1v_C>
3.1605191

>  <chi1_C>
4.0268402

>  <chiral>
1

>  <chiral_u>
1

>  <density>
0.67099309

>  <diameter>
7

>  <FCharge>
0

>  <GCUT_PEOE_0>
-0.8390066

>  <GCUT_PEOE_1>
-0.38308457

>  <GCUT_PEOE_2>
0.086069241

>  <GCUT_PEOE_3>
2.2658868

>  <GCUT_SLOGP_0>
-1.363369

>  <GCUT_SLOGP_1>
-0.2958563

>  <GCUT_SLOGP_2>
0.15240264

>  <GCUT_SLOGP_3>
2.359215

>  <GCUT_SMR_0>
-0.51778704

>  <GCUT_SMR_1>
-0.22344856

>  <GCUT_SMR_2>
0.18710244

>  <GCUT_SMR_3>
2.5327904

>  <Kier1>
9.090909

>  <Kier2>
4.1326532

>  <Kier3>
3.2653062

>  <KierA1>
7.1800485

>  <KierA2>
3.1784728

>  <KierA3>
2.4521625

>  <KierFlex>
2.0746899

>  <lip_acc>
2

>  <lip_don>
3

>  <lip_druglike>
1

>  <lip_violation>
0

>  <logP(o/w)>
1.404

>  <logS>
-1.07653

>  <mr>
4.5651412

>  <mutagenic>
0

>  <nmol>
1

>  <opr_brigid>
6

>  <opr_leadlike>
1

>  <opr_nring>
1

>  <opr_nrot>
2

>  <opr_violation>
0

>  <PC+>
0

>  <PC->
0

>  <PEOE_PC+>
0.97059292

>  <PEOE_PC->
-0.97059292

>  <PEOE_RPC+>
0.22389746

>  <PEOE_RPC->
0.37073457

>  <PEOE_VSA+0>
28.738277

>  <PEOE_VSA+1>
25.520063

>  <PEOE_VSA+2>
17.238026

>  <PEOE_VSA+3>
0

>  <PEOE_VSA+4>
10.324173

>  <PEOE_VSA+5>
0

>  <PEOE_VSA+6>
0

>  <PEOE_VSA-0>
54.167339

>  <PEOE_VSA-1>
24.509808

>  <PEOE_VSA-2>
0

>  <PEOE_VSA-3>
0

>  <PEOE_VSA-4>
0

>  <PEOE_VSA-5>
0

>  <PEOE_VSA-6>
14.418659

>  <PEOE_VSA_FHYD>
0.85854477

>  <PEOE_VSA_FNEG>
0.53223044

>  <PEOE_VSA_FPNEG>
0.082431749

>  <PEOE_VSA_FPOL>
0.14145523

>  <PEOE_VSA_FPOS>
0.46776953

>  <PEOE_VSA_FPPOS>
0.059023488

>  <PEOE_VSA_HYD>
150.17351

>  <PEOE_VSA_NEG>
93.095802

>  <PEOE_VSA_PNEG>
14.418659

>  <PEOE_VSA_POL>
24.742832

>  <PEOE_VSA_POS>
81.820541

>  <PEOE_VSA_PPOS>
10.324173

>  <petitjean>
0.42857143

>  <petitjeanSC>
0.75

>  <Q_PC+>
0

>  <Q_PC->
0

>  <Q_RPC+>
0

>  <Q_RPC->
0

>  <Q_VSA_FHYD>
1

>  <Q_VSA_FNEG>
0

>  <Q_VSA_FPNEG>
0

>  <Q_VSA_FPOL>
0

>  <Q_VSA_FPOS>
1

>  <Q_VSA_FPPOS>
0

>  <Q_VSA_HYD>
174.91635

>  <Q_VSA_NEG>
0

>  <Q_VSA_PNEG>
0

>  <Q_VSA_POL>
0

>  <Q_VSA_POS>
174.91635

>  <Q_VSA_PPOS>
0

>  <radius>
4

>  <reactive>
0

>  <rings>
1

>  <RPC+>
0

>  <RPC->
0

>  <rsynth>
1

>  <SlogP>
1.28187

>  <SlogP_VSA0>
58.282413

>  <SlogP_VSA1>
0

>  <SlogP_VSA2>
3.9819686

>  <SlogP_VSA3>
0

>  <SlogP_VSA4>
3.185575

>  <SlogP_VSA5>
18.868406

>  <SlogP_VSA6>
0

>  <SlogP_VSA7>
70.572739

>  <SlogP_VSA8>
0

>  <SlogP_VSA9>
38.569443

>  <SMR>
4.54602

>  <SMR_VSA0>
0

>  <SMR_VSA1>
25.385227

>  <SMR_VSA2>
0

>  <SMR_VSA3>
12.410972

>  <SMR_VSA4>
32.897186

>  <SMR_VSA5>
89.441139

>  <SMR_VSA6>
0

>  <SMR_VSA7>
33.326015

>  <TPSA>
46.25

>  <VAdjEq>
0.68403846

>  <VAdjMa>
4.4594316

>  <VDistEq>
2.5872664

>  <VDistMa>
6.5690522

>  <vdw_area>
174.91635

>  <vdw_vol>
225.35104

>  <vsa_acc>
0

>  <vsa_acid>
0

>  <vsa_base>
0

>  <vsa_don>
0

>  <vsa_hyd>
125.81754

>  <vsa_other>
0

>  <vsa_pol>
31.30941

>  <Weight>
151.209

>  <weinerPath>
166

>  <weinerPol>
11

>  <zagreb>
50

$$$$