Clc1ccc(OC(C(=O)N2CSCC2C(O)=O)(C)C)cc1
  MOE2013           2D

 21 22  0  0  1  0  0  0  0  0999 V2000
    0.0000    0.0000    0.0000 Cl  0  0  0  0  0  0  0  0  0  0  0  0
   -1.3040    0.7410    0.0000 C   0  0  0  0  0  0  0  0  0  0  0  0
   -1.3140    2.2410    0.0000 C   0  0  0  0  0  0  0  0  0  0  0  0
   -2.6180    2.9820    0.0000 C   0  0  0  0  0  0  0  0  0  0  0  0
   -3.9120    2.2240    0.0000 C   0  0  0  0  0  0  0  0  0  0  0  0
   -5.2160    2.9650    0.0000 O   0  0  0  0  0  0  0  0  0  0  0  0
   -6.5100    2.2060    0.0000 C   0  0  0  0  0  0  0  0  0  0  0  0
   -7.8040    1.4480    0.0000 C   0  0  0  0  0  0  0  0  0  0  0  0
   -7.7940   -0.0520    0.0000 O   0  0  0  0  0  0  0  0  0  0  0  0
   -9.1080    2.1890    0.0000 N   0  0  0  0  0  0  0  0  0  0  0  0
   -9.2750    3.6800    0.0000 C   0  0  0  0  0  0  0  0  0  0  0  0
  -10.7440    3.9820    0.0000 S   0  0  0  0  0  0  0  0  0  0  0  0
  -11.4860    2.6780    0.0000 C   0  0  0  0  0  0  0  0  0  0  0  0
  -10.4740    1.5700    0.0000 C   0  0  3  0  0  0  0  0  0  0  0  0
  -10.7760    0.1000    0.0000 C   0  0  0  0  0  0  0  0  0  0  0  0
  -12.2000   -0.3730    0.0000 O   0  0  0  0  0  0  0  0  0  0  0  0
   -9.6550   -0.8960    0.0000 O   0  0  0  0  0  0  0  0  0  0  0  0
   -5.7510    0.9120    0.0000 C   0  0  0  0  0  0  0  0  0  0  0  0
   -7.2690    3.5000    0.0000 C   0  0  0  0  0  0  0  0  0  0  0  0
   -3.9020    0.7240    0.0000 C   0  0  0  0  0  0  0  0  0  0  0  0
   -2.5980   -0.0170    0.0000 C   0  0  0  0  0  0  0  0  0  0  0  0
  1  2  1  0  0  0  0
  2  3  1  0  0  0  0
  2 21  2  0  0  0  0
  3  4  2  0  0  0  0
  4  5  1  0  0  0  0
  5  6  1  0  0  0  0
  5 20  2  0  0  0  0
  6  7  1  0  0  0  0
  7  8  1  0  0  0  0
  7 18  1  0  0  0  0
  7 19  1  0  0  0  0
  8  9  2  0  0  0  0
  8 10  1  0  0  0  0
 10 11  1  0  0  0  0
 10 14  1  0  0  0  0
 11 12  1  0  0  0  0
 12 13  1  0  0  0  0
 13 14  1  0  0  0  0
 14 15  1  0  0  0  0
 15 16  1  0  0  0  0
 15 17  2  0  0  0  0
 20 21  1  0  0  0  0
M  END
>  <Index>
1076

>  <ID>
HT2063

>  <class>
0

>  <apol>
44.69669

>  <ast_fraglike>
0

>  <ast_fraglike_ext>
0

>  <ast_violation>
2

>  <ast_violation_ext>
3

>  <a_acc>
4

>  <a_acid>
0

>  <a_aro>
6

>  <a_base>
0

>  <a_count>
37

>  <a_don>
2

>  <a_donacc>
6

>  <a_heavy>
21

>  <a_hyd>
14

>  <a_IC>
67.446808

>  <a_ICM>
1.8228866

>  <a_nB>
0

>  <a_nBr>
0

>  <a_nC>
14

>  <a_nCl>
1

>  <a_nF>
0

>  <a_nH>
16

>  <a_nI>
0

>  <a_nN>
1

>  <a_nO>
4

>  <a_nP>
0

>  <a_nS>
1

>  <balabanJ>
1.9465048

>  <BCUT_PEOE_0>
-2.5608885

>  <BCUT_PEOE_1>
-0.53174013

>  <BCUT_PEOE_2>
0.52129155

>  <BCUT_PEOE_3>
2.6866057

>  <BCUT_SLOGP_0>
-2.7194333

>  <BCUT_SLOGP_1>
-0.47020152

>  <BCUT_SLOGP_2>
0.62219656

>  <BCUT_SLOGP_3>
2.5932231

>  <BCUT_SMR_0>
-2.3259017

>  <BCUT_SMR_1>
-0.28528422

>  <BCUT_SMR_2>
0.77521807

>  <BCUT_SMR_3>
2.9649544

>  <bpol>
26.003311

>  <b_1rotN>
5

>  <b_1rotR>
0.22727273

>  <b_ar>
6

>  <b_count>
38

>  <b_double>
2

>  <b_heavy>
22

>  <b_max1len>
4

>  <b_rotN>
5

>  <b_rotR>
0.22727273

>  <b_single>
30

>  <b_triple>
0

>  <chi0>
15.620955

>  <chi0v>
13.278775

>  <chi0v_C>
8.8009653

>  <chi0_C>
9.6293917

>  <chi1>
9.8093672

>  <chi1v>
7.9054251

>  <chi1v_C>
3.7682905

>  <chi1_C>
4.66325

>  <chiral>
1

>  <chiral_u>
1

>  <density>
0.8495937

>  <diameter>
11

>  <FCharge>
0

>  <GCUT_PEOE_0>
-0.81920439

>  <GCUT_PEOE_1>
-0.37800699

>  <GCUT_PEOE_2>
0.018375846

>  <GCUT_PEOE_3>
2.5817752

>  <GCUT_SLOGP_0>
-0.98862129

>  <GCUT_SLOGP_1>
-0.31621993

>  <GCUT_SLOGP_2>
0.16229956

>  <GCUT_SLOGP_3>
2.5841582

>  <GCUT_SMR_0>
-0.51620865

>  <GCUT_SMR_1>
-0.21605732

>  <GCUT_SMR_2>
0.19731645

>  <GCUT_SMR_3>
2.8405643

>  <Kier1>
17.355371

>  <Kier2>
7.0507812

>  <Kier3>
4.260355

>  <KierA1>
15.877306

>  <KierA2>
6.4201727

>  <KierA3>
3.8654163

>  <KierFlex>
4.8540497

>  <lip_acc>
5

>  <lip_don>
1

>  <lip_druglike>
1

>  <lip_violation>
0

>  <logP(o/w)>
2.585

>  <logS>
-3.73261

>  <mr>
8.2779789

>  <mutagenic>
0

>  <nmol>
1

>  <opr_brigid>
11

>  <opr_leadlike>
1

>  <opr_nring>
2

>  <opr_nrot>
5

>  <opr_violation>
0

>  <PC+>
0

>  <PC->
0

>  <PEOE_PC+>
1.9258063

>  <PEOE_PC->
-1.9258063

>  <PEOE_RPC+>
0.14706916

>  <PEOE_RPC->
0.17119859

>  <PEOE_VSA+0>
49.32021

>  <PEOE_VSA+1>
53.484608

>  <PEOE_VSA+2>
3.1459606

>  <PEOE_VSA+3>
0

>  <PEOE_VSA+4>
10.324173

>  <PEOE_VSA+5>
27.65803

>  <PEOE_VSA+6>
0

>  <PEOE_VSA-0>
86.514969

>  <PEOE_VSA-1>
29.581947

>  <PEOE_VSA-2>
19.760618

>  <PEOE_VSA-3>
0

>  <PEOE_VSA-4>
0

>  <PEOE_VSA-5>
27.133842

>  <PEOE_VSA-6>
10.271297

>  <PEOE_VSA_FHYD>
0.76233172

>  <PEOE_VSA_FNEG>
0.54623282

>  <PEOE_VSA_FPNEG>
0.1179245

>  <PEOE_VSA_FPOL>
0.23766826

>  <PEOE_VSA_FPOS>
0.45376718

>  <PEOE_VSA_FPPOS>
0.11974376

>  <PEOE_VSA_HYD>
241.80832

>  <PEOE_VSA_NEG>
173.26268

>  <PEOE_VSA_PNEG>
37.40514

>  <PEOE_VSA_POL>
75.387344

>  <PEOE_VSA_POS>
143.93298

>  <PEOE_VSA_PPOS>
37.982204

>  <petitjean>
0.45454547

>  <petitjeanSC>
0.83333331

>  <Q_PC+>
0

>  <Q_PC->
0

>  <Q_RPC+>
0

>  <Q_RPC->
0

>  <Q_VSA_FHYD>
1

>  <Q_VSA_FNEG>
0

>  <Q_VSA_FPNEG>
0

>  <Q_VSA_FPOL>
0

>  <Q_VSA_FPOS>
1

>  <Q_VSA_FPPOS>
0

>  <Q_VSA_HYD>
317.19565

>  <Q_VSA_NEG>
0

>  <Q_VSA_PNEG>
0

>  <Q_VSA_POL>
0

>  <Q_VSA_POS>
317.19565

>  <Q_VSA_PPOS>
0

>  <radius>
6

>  <reactive>
0

>  <rings>
2

>  <RPC+>
0

>  <RPC->
0

>  <rsynth>
1

>  <SlogP>
2.4835

>  <SlogP_VSA0>
10.999887

>  <SlogP_VSA1>
16.128561

>  <SlogP_VSA2>
51.706402

>  <SlogP_VSA3>
59.423527

>  <SlogP_VSA4>
0

>  <SlogP_VSA5>
0

>  <SlogP_VSA6>
3.5006065

>  <SlogP_VSA7>
70.572739

>  <SlogP_VSA8>
0

>  <SlogP_VSA9>
143.26364

>  <SMR>
8.1754799

>  <SMR_VSA0>
47.724434

>  <SMR_VSA1>
14.124202

>  <SMR_VSA2>
25.385227

>  <SMR_VSA3>
12.726004

>  <SMR_VSA4>
0

>  <SMR_VSA5>
70.572739

>  <SMR_VSA6>
47.042549

>  <SMR_VSA7>
138.02022

>  <TPSA>
66.839996

>  <VAdjEq>
0.46827638

>  <VAdjMa>
5.4594316

>  <VDistEq>
3.2168944

>  <VDistMa>
8.4889879

>  <vdw_area>
317.19565

>  <vdw_vol>
388.19025

>  <vsa_acc>
16.070677

>  <vsa_acid>
0

>  <vsa_base>
0

>  <vsa_don>
0

>  <vsa_hyd>
231.13138

>  <vsa_other>
27.65803

>  <vsa_pol>
43.204517

>  <Weight>
329.80399

>  <weinerPath>
944

>  <weinerPol>
31

>  <zagreb>
108

$$$$