FC(F)(F)c1ccc(NC(=O)C(=C(/O)C)C#N)cc1
  MOE2013           2D

 19 19  0  0  0  0  0  0  0  0999 V2000
    0.0000    0.0000    0.0000 F   0  0  0  0  0  0  0  0  0  0  0  0
    0.7520   -1.2980    0.0000 C   0  0  0  0  0  0  0  0  0  0  0  0
    1.5030   -2.5960    0.0000 F   0  0  0  0  0  0  0  0  0  0  0  0
    2.0500   -0.5470    0.0000 F   0  0  0  0  0  0  0  0  0  0  0  0
   -0.5470   -2.0500    0.0000 C   0  0  0  0  0  0  0  0  0  0  0  0
   -0.5450   -3.5500    0.0000 C   0  0  0  0  0  0  0  0  0  0  0  0
   -1.8430   -4.3010    0.0000 C   0  0  0  0  0  0  0  0  0  0  0  0
   -3.1430   -3.5530    0.0000 C   0  0  0  0  0  0  0  0  0  0  0  0
   -4.4410   -4.3040    0.0000 N   0  0  0  0  0  0  0  0  0  0  0  0
   -5.7410   -3.5560    0.0000 C   0  0  0  0  0  0  0  0  0  0  0  0
   -5.7430   -2.0560    0.0000 O   0  0  0  0  0  0  0  0  0  0  0  0
   -7.0390   -4.3070    0.0000 C   0  0  0  0  0  0  0  0  0  0  0  0
   -8.3390   -3.5590    0.0000 C   0  0  0  0  0  0  0  0  0  0  0  0
   -8.3410   -2.0590    0.0000 O   0  0  0  0  0  0  0  0  0  0  0  0
   -9.6370   -4.3100    0.0000 C   0  0  0  0  0  0  0  0  0  0  0  0
   -7.0370   -5.8070    0.0000 C   0  0  0  0  0  0  0  0  0  0  0  0
   -7.0360   -7.3070    0.0000 N   0  0  0  0  0  0  0  0  0  0  0  0
   -3.1450   -2.0530    0.0000 C   0  0  0  0  0  0  0  0  0  0  0  0
   -1.8470   -1.3010    0.0000 C   0  0  0  0  0  0  0  0  0  0  0  0
  1  2  1  0  0  0  0
  2  3  1  0  0  0  0
  2  4  1  0  0  0  0
  2  5  1  0  0  0  0
  5  6  1  0  0  0  0
  5 19  2  0  0  0  0
  6  7  2  0  0  0  0
  7  8  1  0  0  0  0
  8  9  1  0  0  0  0
  8 18  2  0  0  0  0
  9 10  1  0  0  0  0
 10 11  2  0  0  0  0
 10 12  1  0  0  0  0
 12 13  2  3  0  0  0
 12 16  1  0  0  0  0
 13 14  1  0  0  0  0
 13 15  1  0  0  0  0
 16 17  3  0  0  0  0
 18 19  1  0  0  0  0
M  END
>  <Index>
1052

>  <ID>
HT2012

>  <class>
0

>  <apol>
32.596138

>  <ast_fraglike>
0

>  <ast_fraglike_ext>
0

>  <ast_violation>
1

>  <ast_violation_ext>
1

>  <a_acc>
3

>  <a_acid>
0

>  <a_aro>
6

>  <a_base>
0

>  <a_count>
28

>  <a_don>
2

>  <a_donacc>
5

>  <a_heavy>
19

>  <a_hyd>
13

>  <a_IC>
54.302174

>  <a_ICM>
1.9393634

>  <a_nB>
0

>  <a_nBr>
0

>  <a_nC>
12

>  <a_nCl>
0

>  <a_nF>
3

>  <a_nH>
9

>  <a_nI>
0

>  <a_nN>
2

>  <a_nO>
2

>  <a_nP>
0

>  <a_nS>
0

>  <balabanJ>
2.4160731

>  <BCUT_PEOE_0>
-2.2832391

>  <BCUT_PEOE_1>
-0.60211974

>  <BCUT_PEOE_2>
0.53442556

>  <BCUT_PEOE_3>
2.3591673

>  <BCUT_SLOGP_0>
-2.3113925

>  <BCUT_SLOGP_1>
-0.53807992

>  <BCUT_SLOGP_2>
0.49113044

>  <BCUT_SLOGP_3>
2.4737391

>  <BCUT_SMR_0>
-2.0014353

>  <BCUT_SMR_1>
-0.35084292

>  <BCUT_SMR_2>
0.75352502

>  <BCUT_SMR_3>
2.6038201

>  <bpol>
15.725863

>  <b_1rotN>
2

>  <b_1rotR>
0.10526316

>  <b_ar>
6

>  <b_count>
28

>  <b_double>
2

>  <b_heavy>
19

>  <b_max1len>
2

>  <b_rotN>
5

>  <b_rotR>
0.2631579

>  <b_single>
19

>  <b_triple>
1

>  <chi0>
14.629392

>  <chi0v>
9.7459698

>  <chi0v_C>
6.809401

>  <chi0_C>
7.9222851

>  <chi1>
8.7522373

>  <chi1v>
5.0396519

>  <chi1v_C>
3.3213673

>  <chi1_C>
4.5739336

>  <chiral>
0

>  <chiral_u>
0

>  <density>
0.88315719

>  <diameter>
10

>  <FCharge>
0

>  <GCUT_PEOE_0>
-0.80827451

>  <GCUT_PEOE_1>
-0.38168001

>  <GCUT_PEOE_2>
0.082515702

>  <GCUT_PEOE_3>
2.2482119

>  <GCUT_SLOGP_0>
-0.99742794

>  <GCUT_SLOGP_1>
-0.28036964

>  <GCUT_SLOGP_2>
0.26019999

>  <GCUT_SLOGP_3>
2.3576524

>  <GCUT_SMR_0>
-0.48170361

>  <GCUT_SMR_1>
-0.21605732

>  <GCUT_SMR_2>
0.19305076

>  <GCUT_SMR_3>
2.5203032

>  <Kier1>
17.052631

>  <Kier2>
7.1358023

>  <Kier3>
5.1199999

>  <KierA1>
11.69024

>  <KierA2>
4.7790236

>  <KierA3>
3.3666751

>  <KierFlex>
2.9404178

>  <lip_acc>
4

>  <lip_don>
2

>  <lip_druglike>
1

>  <lip_violation>
0

>  <logP(o/w)>
2.01776

>  <logS>
-3.2177401

>  <mr>
6.2824931

>  <mutagenic>
0

>  <nmol>
1

>  <opr_brigid>
7

>  <opr_leadlike>
1

>  <opr_nring>
1

>  <opr_nrot>
3

>  <opr_violation>
0

>  <PC+>
0

>  <PC->
0

>  <PEOE_PC+>
1.8279059

>  <PEOE_PC->
-1.8279059

>  <PEOE_RPC+>
0.22836107

>  <PEOE_RPC->
0.19855268

>  <PEOE_VSA+0>
19.495708

>  <PEOE_VSA+1>
27.728603

>  <PEOE_VSA+2>
22.508045

>  <PEOE_VSA+3>
8.6190128

>  <PEOE_VSA+4>
10.324173

>  <PEOE_VSA+5>
12.949531

>  <PEOE_VSA+6>
9.0455017

>  <PEOE_VSA-0>
67.767296

>  <PEOE_VSA-1>
0

>  <PEOE_VSA-2>
0

>  <PEOE_VSA-3>
53.468395

>  <PEOE_VSA-4>
0

>  <PEOE_VSA-5>
13.566921

>  <PEOE_VSA-6>
7.9044313

>  <PEOE_VSA_FHYD>
0.78770596

>  <PEOE_VSA_FNEG>
0.56321883

>  <PEOE_VSA_FPNEG>
0.084740527

>  <PEOE_VSA_FPOL>
0.21229404

>  <PEOE_VSA_FPOS>
0.4367812

>  <PEOE_VSA_FPPOS>
0.12755351

>  <PEOE_VSA_HYD>
199.58707

>  <PEOE_VSA_NEG>
142.70705

>  <PEOE_VSA_PNEG>
21.471352

>  <PEOE_VSA_POL>
53.790558

>  <PEOE_VSA_POS>
110.67058

>  <PEOE_VSA_PPOS>
32.319206

>  <petitjean>
0.5

>  <petitjeanSC>
1

>  <Q_PC+>
0

>  <Q_PC->
0

>  <Q_RPC+>
0

>  <Q_RPC->
0

>  <Q_VSA_FHYD>
1

>  <Q_VSA_FNEG>
0

>  <Q_VSA_FPNEG>
0

>  <Q_VSA_FPOL>
0

>  <Q_VSA_FPOS>
1

>  <Q_VSA_FPPOS>
0

>  <Q_VSA_HYD>
253.37762

>  <Q_VSA_NEG>
0

>  <Q_VSA_PNEG>
0

>  <Q_VSA_POL>
0

>  <Q_VSA_POS>
253.37762

>  <Q_VSA_PPOS>
0

>  <radius>
5

>  <reactive>
1

>  <rings>
1

>  <RPC+>
0

>  <RPC->
0

>  <rsynth>
1

>  <SlogP>
3.3109839

>  <SlogP_VSA0>
0

>  <SlogP_VSA1>
23.269535

>  <SlogP_VSA2>
23.862217

>  <SlogP_VSA3>
73.046326

>  <SlogP_VSA4>
3.185575

>  <SlogP_VSA5>
8.4290028

>  <SlogP_VSA6>
7.7595162

>  <SlogP_VSA7>
70.572739

>  <SlogP_VSA8>
0

>  <SlogP_VSA9>
80.963104

>  <SMR>
6.1132498

>  <SMR_VSA0>
23.862217

>  <SMR_VSA1>
75.939697

>  <SMR_VSA2>
33.144741

>  <SMR_VSA3>
28.216324

>  <SMR_VSA4>
20.767498

>  <SMR_VSA5>
70.572739

>  <SMR_VSA6>
5.2587838

>  <SMR_VSA7>
33.326015

>  <TPSA>
73.120003

>  <VAdjEq>
0.48546076

>  <VAdjMa>
5.2479277

>  <VDistEq>
3.2147429

>  <VDistMa>
8.1727228

>  <vdw_area>
253.37762

>  <vdw_vol>
305.95914

>  <vsa_acc>
31.30941

>  <vsa_acid>
0

>  <vsa_base>
0

>  <vsa_don>
5.6825762

>  <vsa_hyd>
156.98898

>  <vsa_other>
33.249039

>  <vsa_pol>
50.558907

>  <Weight>
270.20999

>  <weinerPath>
776

>  <weinerPol>
27

>  <zagreb>
92

$$$$