O=C1N(c2c(CC[C@@H]1N[C@@H](CCc1ccccc1)C(OCC)=O)cccc2)CC(O)=O
  MOE2013           2D

 31 33  0  0  1  0  0  0  0  0999 V2000
    0.0000    0.0000    0.0000 O   0  0  0  0  0  0  0  0  0  0  0  0
    0.0570   -1.4990    0.0000 C   0  0  0  0  0  0  0  0  0  0  0  0
    1.4320   -2.0980    0.0000 N   0  0  0  0  0  0  0  0  0  0  0  0
    1.8190   -3.5470    0.0000 C   0  0  0  0  0  0  0  0  0  0  0  0
    0.9280   -4.7540    0.0000 C   0  0  0  0  0  0  0  0  0  0  0  0
   -0.5710   -4.8100    0.0000 C   0  0  0  0  0  0  0  0  0  0  0  0
   -1.5490   -3.6740    0.0000 C   0  0  0  0  0  0  0  0  0  0  0  0
   -1.2690   -2.2000    0.0000 C   0  0  2  0  0  0  0  0  0  0  0  0
   -2.4760   -1.3090    0.0000 N   0  0  0  0  0  0  0  0  0  0  0  0
   -3.8510   -1.9090    0.0000 C   0  0  1  0  0  0  0  0  0  0  0  0
   -4.0190   -3.3990    0.0000 C   0  0  0  0  0  0  0  0  0  0  0  0
   -5.3940   -3.9990    0.0000 C   0  0  0  0  0  0  0  0  0  0  0  0
   -5.5620   -5.4900    0.0000 C   0  0  0  0  0  0  0  0  0  0  0  0
   -6.9370   -6.0890    0.0000 C   0  0  0  0  0  0  0  0  0  0  0  0
   -7.1050   -7.5800    0.0000 C   0  0  0  0  0  0  0  0  0  0  0  0
   -5.8980   -8.4710    0.0000 C   0  0  0  0  0  0  0  0  0  0  0  0
   -4.5240   -7.8710    0.0000 C   0  0  0  0  0  0  0  0  0  0  0  0
   -4.3550   -6.3810    0.0000 C   0  0  0  0  0  0  0  0  0  0  0  0
   -5.0580   -1.0180    0.0000 C   0  0  0  0  0  0  0  0  0  0  0  0
   -4.8900    0.4730    0.0000 O   0  0  0  0  0  0  0  0  0  0  0  0
   -6.0970    1.3630    0.0000 C   0  0  0  0  0  0  0  0  0  0  0  0
   -5.9290    2.8540    0.0000 C   0  0  0  0  0  0  0  0  0  0  0  0
   -6.4330   -1.6180    0.0000 O   0  0  0  0  0  0  0  0  0  0  0  0
    1.5280   -6.1290    0.0000 C   0  0  0  0  0  0  0  0  0  0  0  0
    3.0190   -6.2970    0.0000 C   0  0  0  0  0  0  0  0  0  0  0  0
    3.9100   -5.0900    0.0000 C   0  0  0  0  0  0  0  0  0  0  0  0
    3.3100   -3.7150    0.0000 C   0  0  0  0  0  0  0  0  0  0  0  0
    2.5690   -1.1190    0.0000 C   0  0  0  0  0  0  0  0  0  0  0  0
    2.2900    0.3540    0.0000 C   0  0  0  0  0  0  0  0  0  0  0  0
    0.8740    0.8500    0.0000 O   0  0  0  0  0  0  0  0  0  0  0  0
    3.4270    1.3330    0.0000 O   0  0  0  0  0  0  0  0  0  0  0  0
  1  2  2  0  0  0  0
  2  3  1  0  0  0  0
  2  8  1  0  0  0  0
  3  4  1  0  0  0  0
  3 28  1  0  0  0  0
  4  5  2  0  0  0  0
  4 27  1  0  0  0  0
  5  6  1  0  0  0  0
  5 24  1  0  0  0  0
  6  7  1  0  0  0  0
  7  8  1  0  0  0  0
  8  9  1  6  0  0  0
  9 10  1  0  0  0  0
 10 11  1  0  0  0  0
 10 19  1  1  0  0  0
 11 12  1  0  0  0  0
 12 13  1  0  0  0  0
 13 14  1  0  0  0  0
 13 18  2  0  0  0  0
 14 15  2  0  0  0  0
 15 16  1  0  0  0  0
 16 17  2  0  0  0  0
 17 18  1  0  0  0  0
 19 20  1  0  0  0  0
 19 23  2  0  0  0  0
 20 21  1  0  0  0  0
 21 22  1  0  0  0  0
 24 25  2  0  0  0  0
 25 26  1  0  0  0  0
 26 27  2  0  0  0  0
 28 29  1  0  0  0  0
 29 30  1  0  0  0  0
 29 31  2  0  0  0  0
M  END
>  <Index>
114

>  <ID>
HT0233

>  <class>
0

>  <apol>
67.120201

>  <ast_fraglike>
0

>  <ast_fraglike_ext>
0

>  <ast_violation>
2

>  <ast_violation_ext>
3

>  <a_acc>
5

>  <a_acid>
0

>  <a_aro>
12

>  <a_base>
0

>  <a_count>
59

>  <a_don>
3

>  <a_donacc>
8

>  <a_heavy>
31

>  <a_hyd>
21

>  <a_IC>
88.821259

>  <a_ICM>
1.5054451

>  <a_nB>
0

>  <a_nBr>
0

>  <a_nC>
24

>  <a_nCl>
0

>  <a_nF>
0

>  <a_nH>
28

>  <a_nI>
0

>  <a_nN>
2

>  <a_nO>
5

>  <a_nP>
0

>  <a_nS>
0

>  <balabanJ>
1.6795763

>  <BCUT_PEOE_0>
-2.6429596

>  <BCUT_PEOE_1>
-0.53088397

>  <BCUT_PEOE_2>
0.58551818

>  <BCUT_PEOE_3>
2.6746142

>  <BCUT_SLOGP_0>
-2.822439

>  <BCUT_SLOGP_1>
-0.48645207

>  <BCUT_SLOGP_2>
0.67251629

>  <BCUT_SLOGP_3>
2.6168683

>  <BCUT_SMR_0>
-2.393271

>  <BCUT_SMR_1>
-0.39757472

>  <BCUT_SMR_2>
0.71779013

>  <BCUT_SMR_3>
2.9326274

>  <bpol>
38.039795

>  <b_1rotN>
9

>  <b_1rotR>
0.27272728

>  <b_ar>
12

>  <b_count>
61

>  <b_double>
3

>  <b_heavy>
33

>  <b_max1len>
6

>  <b_rotN>
10

>  <b_rotR>
0.30303031

>  <b_single>
46

>  <b_triple>
0

>  <chi0>
22.216969

>  <chi0v>
17.620914

>  <chi0v_C>
14.593493

>  <chi0_C>
16.225405

>  <chi1>
14.990402

>  <chi1v>
10.569218

>  <chi1v_C>
7.8996477

>  <chi1_C>
9.881341

>  <chiral>
2

>  <chiral_u>
0

>  <density>
0.73188132

>  <diameter>
13

>  <FCharge>
0

>  <GCUT_PEOE_0>
-0.81006587

>  <GCUT_PEOE_1>
-0.39932007

>  <GCUT_PEOE_2>
0.069613941

>  <GCUT_PEOE_3>
2.8756087

>  <GCUT_SLOGP_0>
-1.1551129

>  <GCUT_SLOGP_1>
-0.34507081

>  <GCUT_SLOGP_2>
0.13522425

>  <GCUT_SLOGP_3>
2.8726795

>  <GCUT_SMR_0>
-0.51965111

>  <GCUT_SMR_1>
-0.21087533

>  <GCUT_SMR_2>
0.17770864

>  <GCUT_SMR_3>
3.130069

>  <Kier1>
25.619835

>  <Kier2>
13.032024

>  <Kier3>
7.5

>  <KierA1>
19.515562

>  <KierA2>
9.8308191

>  <KierA3>
5.617456

>  <KierFlex>
6.1888371

>  <lip_acc>
7

>  <lip_don>
2

>  <lip_druglike>
1

>  <lip_violation>
0

>  <logP(o/w)>
3.4000001

>  <logS>
-4.3959198

>  <mr>
11.878148

>  <mutagenic>
0

>  <nmol>
1

>  <opr_brigid>
18

>  <opr_leadlike>
1

>  <opr_nring>
3

>  <opr_nrot>
10

>  <opr_violation>
0

>  <PC+>
0

>  <PC->
0

>  <PEOE_PC+>
2.7649796

>  <PEOE_PC->
-2.7649796

>  <PEOE_RPC+>
0.10112821

>  <PEOE_RPC->
0.11932228

>  <PEOE_VSA+0>
53.618797

>  <PEOE_VSA+1>
85.224007

>  <PEOE_VSA+2>
21.811338

>  <PEOE_VSA+3>
0

>  <PEOE_VSA+4>
23.273705

>  <PEOE_VSA+5>
29.416998

>  <PEOE_VSA+6>
0

>  <PEOE_VSA-0>
70.224915

>  <PEOE_VSA-1>
98.03923

>  <PEOE_VSA-2>
0

>  <PEOE_VSA-3>
0

>  <PEOE_VSA-4>
0

>  <PEOE_VSA-5>
40.837654

>  <PEOE_VSA-6>
10.271297

>  <PEOE_VSA_FHYD>
0.7601217

>  <PEOE_VSA_FNEG>
0.50696558

>  <PEOE_VSA_FPNEG>
0.11811147

>  <PEOE_VSA_FPOL>
0.23987833

>  <PEOE_VSA_FPOS>
0.49303442

>  <PEOE_VSA_FPPOS>
0.12176686

>  <PEOE_VSA_HYD>
328.91827

>  <PEOE_VSA_NEG>
219.37309

>  <PEOE_VSA_PNEG>
51.108952

>  <PEOE_VSA_POL>
103.79965

>  <PEOE_VSA_POS>
213.34485

>  <PEOE_VSA_PPOS>
52.690701

>  <petitjean>
0.46153846

>  <petitjeanSC>
0.85714287

>  <Q_PC+>
0

>  <Q_PC->
0

>  <Q_RPC+>
0

>  <Q_RPC->
0

>  <Q_VSA_FHYD>
1

>  <Q_VSA_FNEG>
0

>  <Q_VSA_FPNEG>
0

>  <Q_VSA_FPOL>
0

>  <Q_VSA_FPOS>
1

>  <Q_VSA_FPPOS>
0

>  <Q_VSA_HYD>
432.71793

>  <Q_VSA_NEG>
0

>  <Q_VSA_PNEG>
0

>  <Q_VSA_POL>
0

>  <Q_VSA_POS>
432.71793

>  <Q_VSA_PPOS>
0

>  <radius>
7

>  <reactive>
0

>  <rings>
3

>  <RPC+>
0

>  <RPC->
0

>  <rsynth>
0.64516127

>  <SlogP>
2.57304

>  <SlogP_VSA0>
21.135065

>  <SlogP_VSA1>
20.749712

>  <SlogP_VSA2>
90.550476

>  <SlogP_VSA3>
64.75106

>  <SlogP_VSA4>
6.37115

>  <SlogP_VSA5>
37.736813

>  <SlogP_VSA6>
0

>  <SlogP_VSA7>
158.78867

>  <SlogP_VSA8>
37.736813

>  <SlogP_VSA9>
36.082764

>  <SMR>
11.68595

>  <SMR_VSA0>
82.58654

>  <SMR_VSA1>
0

>  <SMR_VSA2>
46.52029

>  <SMR_VSA3>
14.335087

>  <SMR_VSA4>
2.7567475

>  <SMR_VSA5>
234.26228

>  <SMR_VSA6>
60.115547

>  <SMR_VSA7>
33.326015

>  <TPSA>
95.940002

>  <VAdjEq>
0.36097246

>  <VAdjMa>
6.044394

>  <VDistEq>
3.5382481

>  <VDistMa>
9.6492624

>  <vdw_area>
432.71793

>  <vdw_vol>
580.00793

>  <vsa_acc>
27.133842

>  <vsa_acid>
0

>  <vsa_base>
0

>  <vsa_don>
0

>  <vsa_hyd>
301.7926

>  <vsa_other>
44.870285

>  <vsa_pol>
59.95026

>  <Weight>
424.49698

>  <weinerPath>
2701

>  <weinerPol>
50

>  <zagreb>
154

$$$$