Clc1ccc(cc1)CC(=CCN1CCCC1)c1ccccc1
  MOE2013           2D

 22 24  0  0  0  0  0  0  0  0999 V2000
    0.0000    0.0000    0.0000 Cl  0  0  0  0  0  0  0  0  0  0  0  0
   -1.5000   -0.0130    0.0000 C   0  0  0  0  0  0  0  0  0  0  0  0
   -2.2610    1.2800    0.0000 C   0  0  0  0  0  0  0  0  0  0  0  0
   -3.7610    1.2680    0.0000 C   0  0  0  0  0  0  0  0  0  0  0  0
   -4.5000   -0.0380    0.0000 C   0  0  0  0  0  0  0  0  0  0  0  0
   -3.7390   -1.3300    0.0000 C   0  0  0  0  0  0  0  0  0  0  0  0
   -2.2390   -1.3180    0.0000 C   0  0  0  0  0  0  0  0  0  0  0  0
   -6.0000   -0.0500    0.0000 C   0  0  0  0  0  0  0  0  0  0  0  0
   -6.7390   -1.3550    0.0000 C   0  0  0  0  0  0  0  0  0  0  0  0
   -5.9780   -2.6480    0.0000 C   0  0  0  0  0  0  0  0  0  0  0  0
   -6.7170   -3.9530    0.0000 C   0  0  0  0  0  0  0  0  0  0  0  0
   -5.9560   -5.2460    0.0000 N   0  0  0  0  0  0  0  0  0  0  0  0
   -6.5550   -6.6220    0.0000 C   0  0  0  0  0  0  0  0  0  0  0  0
   -5.4320   -7.6160    0.0000 C   0  0  0  0  0  0  0  0  0  0  0  0
   -4.1390   -6.8550    0.0000 C   0  0  0  0  0  0  0  0  0  0  0  0
   -4.4630   -5.3900    0.0000 C   0  0  0  0  0  0  0  0  0  0  0  0
   -8.2390   -1.3680    0.0000 C   0  0  0  0  0  0  0  0  0  0  0  0
   -9.0000   -0.0750    0.0000 C   0  0  0  0  0  0  0  0  0  0  0  0
  -10.5000   -0.0880    0.0000 C   0  0  0  0  0  0  0  0  0  0  0  0
  -11.2390   -1.3930    0.0000 C   0  0  0  0  0  0  0  0  0  0  0  0
  -10.4780   -2.6860    0.0000 C   0  0  0  0  0  0  0  0  0  0  0  0
   -8.9780   -2.6730    0.0000 C   0  0  0  0  0  0  0  0  0  0  0  0
  1  2  1  0  0  0  0
  2  3  1  0  0  0  0
  2  7  2  0  0  0  0
  3  4  2  0  0  0  0
  4  5  1  0  0  0  0
  5  6  2  0  0  0  0
  5  8  1  0  0  0  0
  6  7  1  0  0  0  0
  8  9  1  0  0  0  0
  9 10  2  3  0  0  0
  9 17  1  0  0  0  0
 10 11  1  0  0  0  0
 11 12  1  0  0  0  0
 12 13  1  0  0  0  0
 12 16  1  0  0  0  0
 13 14  1  0  0  0  0
 14 15  1  0  0  0  0
 15 16  1  0  0  0  0
 17 18  1  0  0  0  0
 17 22  2  0  0  0  0
 18 19  2  0  0  0  0
 19 20  1  0  0  0  0
 20 21  2  0  0  0  0
 21 22  1  0  0  0  0
M  END
>  <Index>
1329

>  <ID>
HT3418

>  <class>
0

>  <apol>
53.149445

>  <ast_fraglike>
0

>  <ast_fraglike_ext>
0

>  <ast_violation>
2

>  <ast_violation_ext>
3

>  <a_acc>
1

>  <a_acid>
0

>  <a_aro>
12

>  <a_base>
0

>  <a_count>
44

>  <a_don>
0

>  <a_donacc>
1

>  <a_heavy>
22

>  <a_hyd>
21

>  <a_IC>
55.668934

>  <a_ICM>
1.265203

>  <a_nB>
0

>  <a_nBr>
0

>  <a_nC>
20

>  <a_nCl>
1

>  <a_nF>
0

>  <a_nH>
22

>  <a_nI>
0

>  <a_nN>
1

>  <a_nO>
0

>  <a_nP>
0

>  <a_nS>
0

>  <balabanJ>
1.5045359

>  <BCUT_PEOE_0>
-2.5515523

>  <BCUT_PEOE_1>
-0.61978775

>  <BCUT_PEOE_2>
0.66917765

>  <BCUT_PEOE_3>
2.6784561

>  <BCUT_SLOGP_0>
-2.6187086

>  <BCUT_SLOGP_1>
-0.50871336

>  <BCUT_SLOGP_2>
0.80591482

>  <BCUT_SLOGP_3>
2.6994426

>  <BCUT_SMR_0>
-2.2512233

>  <BCUT_SMR_1>
-0.47023776

>  <BCUT_SMR_2>
0.85431087

>  <BCUT_SMR_3>
2.9495325

>  <bpol>
26.450554

>  <b_1rotN>
5

>  <b_1rotR>
0.20833333

>  <b_ar>
12

>  <b_count>
46

>  <b_double>
1

>  <b_heavy>
24

>  <b_max1len>
3

>  <b_rotN>
5

>  <b_rotR>
0.20833333

>  <b_single>
33

>  <b_triple>
0

>  <chi0>
15.200459

>  <chi0v>
13.59725

>  <chi0v_C>
12.016144

>  <chi0_C>
13.62311

>  <chi1>
10.809663

>  <chi1v>
8.4017115

>  <chi1v_C>
6.8860812

>  <chi1_C>
9.0075684

>  <chiral>
0

>  <chiral_u>
0

>  <density>
0.68791014

>  <diameter>
11

>  <FCharge>
0

>  <GCUT_PEOE_0>
-0.86031008

>  <GCUT_PEOE_1>
-0.38313639

>  <GCUT_PEOE_2>
0.073133662

>  <GCUT_PEOE_3>
2.6314657

>  <GCUT_SLOGP_0>
-0.95881009

>  <GCUT_SLOGP_1>
-0.26386139

>  <GCUT_SLOGP_2>
0.16445385

>  <GCUT_SLOGP_3>
2.7359259

>  <GCUT_SMR_0>
-0.52623183

>  <GCUT_SMR_1>
-0.20504592

>  <GCUT_SMR_2>
0.19305076

>  <GCUT_SMR_3>
2.9159446

>  <Kier1>
16.84375

>  <Kier2>
8.7408953

>  <Kier3>
5.2631578

>  <KierA1>
13.813426

>  <KierA2>
7.0962181

>  <KierA3>
4.2416019

>  <KierFlex>
4.4555945

>  <lip_acc>
1

>  <lip_don>
0

>  <lip_druglike>
1

>  <lip_violation>
1

>  <logP(o/w)>
5.5170002

>  <logS>
-5.20123

>  <mr>
9.4989986

>  <mutagenic>
0

>  <nmol>
1

>  <opr_brigid>
18

>  <opr_leadlike>
1

>  <opr_nring>
3

>  <opr_nrot>
6

>  <opr_violation>
1

>  <PC+>
0

>  <PC->
0

>  <PEOE_PC+>
1.1261399

>  <PEOE_PC->
-1.1261399

>  <PEOE_RPC+>
0.056134325

>  <PEOE_RPC->
0.2652401

>  <PEOE_VSA+0>
68.896706

>  <PEOE_VSA+1>
42.653858

>  <PEOE_VSA+2>
0

>  <PEOE_VSA+3>
0

>  <PEOE_VSA+4>
0

>  <PEOE_VSA+5>
0

>  <PEOE_VSA+6>
0

>  <PEOE_VSA-0>
83.624016

>  <PEOE_VSA-1>
127.62118

>  <PEOE_VSA-2>
0

>  <PEOE_VSA-3>
0

>  <PEOE_VSA-4>
0

>  <PEOE_VSA-5>
0

>  <PEOE_VSA-6>
0

>  <PEOE_VSA_FHYD>
1

>  <PEOE_VSA_FNEG>
0.65442371

>  <PEOE_VSA_FPNEG>
0

>  <PEOE_VSA_FPOL>
0

>  <PEOE_VSA_FPOS>
0.34557629

>  <PEOE_VSA_FPPOS>
0

>  <PEOE_VSA_HYD>
322.79575

>  <PEOE_VSA_NEG>
211.24519

>  <PEOE_VSA_PNEG>
0

>  <PEOE_VSA_POL>
0

>  <PEOE_VSA_POS>
111.55056

>  <PEOE_VSA_PPOS>
0

>  <petitjean>
0.45454547

>  <petitjeanSC>
0.83333331

>  <Q_PC+>
0

>  <Q_PC->
0

>  <Q_RPC+>
0

>  <Q_RPC->
0

>  <Q_VSA_FHYD>
1

>  <Q_VSA_FNEG>
0

>  <Q_VSA_FPNEG>
0

>  <Q_VSA_FPOL>
0

>  <Q_VSA_FPOS>
1

>  <Q_VSA_FPPOS>
0

>  <Q_VSA_HYD>
322.79575

>  <Q_VSA_NEG>
0

>  <Q_VSA_PNEG>
0

>  <Q_VSA_POL>
0

>  <Q_VSA_POS>
322.79575

>  <Q_VSA_PPOS>
0

>  <radius>
6

>  <reactive>
0

>  <rings>
3

>  <RPC+>
0

>  <RPC->
0

>  <rsynth>
0.31818181

>  <SlogP>
5.0618701

>  <SlogP_VSA0>
0

>  <SlogP_VSA1>
3.1243138

>  <SlogP_VSA2>
0

>  <SlogP_VSA3>
55.318733

>  <SlogP_VSA4>
6.37115

>  <SlogP_VSA5>
18.868406

>  <SlogP_VSA6>
3.5006065

>  <SlogP_VSA7>
179.61742

>  <SlogP_VSA8>
37.736813

>  <SlogP_VSA9>
39.148643

>  <SMR>
9.5249004

>  <SMR_VSA0>
0

>  <SMR_VSA1>
3.1243138

>  <SMR_VSA2>
0

>  <SMR_VSA3>
9.8717566

>  <SMR_VSA4>
3.185575

>  <SMR_VSA5>
233.03706

>  <SMR_VSA6>
55.318733

>  <SMR_VSA7>
39.148643

>  <TPSA>
3.24

>  <VAdjEq>
0.46637034

>  <VAdjMa>
5.5849624

>  <VDistEq>
3.2602067

>  <VDistMa>
8.635829

>  <vdw_area>
322.79575

>  <vdw_vol>
453.33829

>  <vsa_acc>
0

>  <vsa_acid>
0

>  <vsa_base>
0

>  <vsa_don>
0

>  <vsa_hyd>
307.13626

>  <vsa_other>
0

>  <vsa_pol>
0

>  <Weight>
311.85599

>  <weinerPath>
1124

>  <weinerPol>
27

>  <zagreb>
110

$$$$