O(CC(O)CNC(C)(C)C)c1c2CCC(=O)Nc2ccc1
  MOE2013           2D

 21 22  0  0  1  0  0  0  0  0999 V2000
    0.0000    0.0000    0.0000 O   0  0  0  0  0  0  0  0  0  0  0  0
    1.5000    0.0110    0.0000 C   0  0  0  0  0  0  0  0  0  0  0  0
    2.2400    1.3160    0.0000 C   0  0  3  0  0  0  0  0  0  0  0  0
    1.4810    2.6090    0.0000 O   0  0  0  0  0  0  0  0  0  0  0  0
    3.7400    1.3270    0.0000 C   0  0  0  0  0  0  0  0  0  0  0  0
    4.4810    2.6310    0.0000 N   0  0  0  0  0  0  0  0  0  0  0  0
    5.9810    2.6420    0.0000 C   0  0  0  0  0  0  0  0  0  0  0  0
    5.9920    1.1420    0.0000 C   0  0  0  0  0  0  0  0  0  0  0  0
    5.9700    4.1420    0.0000 C   0  0  0  0  0  0  0  0  0  0  0  0
    7.4810    2.6530    0.0000 C   0  0  0  0  0  0  0  0  0  0  0  0
   -0.7400   -1.3050    0.0000 C   0  0  0  0  0  0  0  0  0  0  0  0
   -2.2400   -1.3160    0.0000 C   0  0  0  0  0  0  0  0  0  0  0  0
   -3.0000   -0.0220    0.0000 C   0  0  0  0  0  0  0  0  0  0  0  0
   -4.5000   -0.0330    0.0000 C   0  0  0  0  0  0  0  0  0  0  0  0
   -5.2400   -1.3380    0.0000 C   0  0  0  0  0  0  0  0  0  0  0  0
   -6.7400   -1.3490    0.0000 O   0  0  0  0  0  0  0  0  0  0  0  0
   -4.4810   -2.6310    0.0000 N   0  0  0  0  0  0  0  0  0  0  0  0
   -2.9810   -2.6200    0.0000 C   0  0  0  0  0  0  0  0  0  0  0  0
   -2.2210   -3.9140    0.0000 C   0  0  0  0  0  0  0  0  0  0  0  0
   -0.7210   -3.9030    0.0000 C   0  0  0  0  0  0  0  0  0  0  0  0
    0.0190   -2.5980    0.0000 C   0  0  0  0  0  0  0  0  0  0  0  0
  1  2  1  0  0  0  0
  1 11  1  0  0  0  0
  2  3  1  0  0  0  0
  3  4  1  0  0  0  0
  3  5  1  0  0  0  0
  5  6  1  0  0  0  0
  6  7  1  0  0  0  0
  7  8  1  0  0  0  0
  7  9  1  0  0  0  0
  7 10  1  0  0  0  0
 11 12  1  0  0  0  0
 11 21  2  0  0  0  0
 12 13  1  0  0  0  0
 12 18  2  0  0  0  0
 13 14  1  0  0  0  0
 14 15  1  0  0  0  0
 15 16  2  0  0  0  0
 15 17  1  0  0  0  0
 17 18  1  0  0  0  0
 18 19  1  0  0  0  0
 19 20  2  0  0  0  0
 20 21  1  0  0  0  0
M  END
>  <Index>
197

>  <ID>
HT0389

>  <class>
0

>  <apol>
48.769032

>  <ast_fraglike>
0

>  <ast_fraglike_ext>
0

>  <ast_violation>
1

>  <ast_violation_ext>
2

>  <a_acc>
4

>  <a_acid>
0

>  <a_aro>
6

>  <a_base>
0

>  <a_count>
45

>  <a_don>
3

>  <a_donacc>
7

>  <a_heavy>
21

>  <a_hyd>
15

>  <a_IC>
66.339401

>  <a_ICM>
1.474209

>  <a_nB>
0

>  <a_nBr>
0

>  <a_nC>
16

>  <a_nCl>
0

>  <a_nF>
0

>  <a_nH>
24

>  <a_nI>
0

>  <a_nN>
2

>  <a_nO>
3

>  <a_nP>
0

>  <a_nS>
0

>  <balabanJ>
1.7457244

>  <BCUT_PEOE_0>
-2.7111499

>  <BCUT_PEOE_1>
-0.4830654

>  <BCUT_PEOE_2>
0.48867556

>  <BCUT_PEOE_3>
2.6438966

>  <BCUT_SLOGP_0>
-2.8413069

>  <BCUT_SLOGP_1>
-0.46186623

>  <BCUT_SLOGP_2>
0.47634685

>  <BCUT_SLOGP_3>
2.6193528

>  <BCUT_SMR_0>
-2.4450235

>  <BCUT_SMR_1>
-0.34402546

>  <BCUT_SMR_2>
0.64792836

>  <BCUT_SMR_3>
2.9009144

>  <bpol>
30.430967

>  <b_1rotN>
5

>  <b_1rotR>
0.22727273

>  <b_ar>
6

>  <b_count>
46

>  <b_double>
1

>  <b_heavy>
22

>  <b_max1len>
7

>  <b_rotN>
6

>  <b_rotR>
0.27272728

>  <b_single>
39

>  <b_triple>
0

>  <chi0>
15.457819

>  <chi0v>
12.901539

>  <chi0v_C>
10.637828

>  <chi0_C>
11.336499

>  <chi1>
9.8491554

>  <chi1v>
7.3262959

>  <chi1v_C>
5.2676201

>  <chi1_C>
6.1161566

>  <chiral>
1

>  <chiral_u>
1

>  <density>
0.70930946

>  <diameter>
12

>  <FCharge>
0

>  <GCUT_PEOE_0>
-0.84483176

>  <GCUT_PEOE_1>
-0.35400441

>  <GCUT_PEOE_2>
0.049528331

>  <GCUT_PEOE_3>
2.6290214

>  <GCUT_SLOGP_0>
-1.1534374

>  <GCUT_SLOGP_1>
-0.32090941

>  <GCUT_SLOGP_2>
0.037958927

>  <GCUT_SLOGP_3>
2.6671596

>  <GCUT_SMR_0>
-0.52417016

>  <GCUT_SMR_1>
-0.19577622

>  <GCUT_SMR_2>
0.15291439

>  <GCUT_SMR_3>
2.877871

>  <Kier1>
17.355371

>  <Kier2>
7.5130072

>  <Kier3>
5.6055365

>  <KierA1>
14.345784

>  <KierA2>
6.147161

>  <KierA3>
4.5506463

>  <KierFlex>
4.199326

>  <lip_acc>
5

>  <lip_don>
3

>  <lip_druglike>
1

>  <lip_violation>
0

>  <logP(o/w)>
1.265

>  <logS>
-2.2491701

>  <mr>
8.1727266

>  <mutagenic>
0

>  <nmol>
1

>  <opr_brigid>
11

>  <opr_leadlike>
1

>  <opr_nring>
2

>  <opr_nrot>
6

>  <opr_violation>
0

>  <PC+>
0

>  <PC->
0

>  <PEOE_PC+>
1.9207309

>  <PEOE_PC->
-1.9207309

>  <PEOE_RPC+>
0.11743091

>  <PEOE_RPC->
0.20213008

>  <PEOE_VSA+0>
94.782516

>  <PEOE_VSA+1>
53.907059

>  <PEOE_VSA+2>
8.6190128

>  <PEOE_VSA+3>
8.6190128

>  <PEOE_VSA+4>
23.273705

>  <PEOE_VSA+5>
0

>  <PEOE_VSA+6>
0

>  <PEOE_VSA-0>
89.454155

>  <PEOE_VSA-1>
12.254904

>  <PEOE_VSA-2>
0

>  <PEOE_VSA-3>
0

>  <PEOE_VSA-4>
0

>  <PEOE_VSA-5>
13.566921

>  <PEOE_VSA-6>
10.545078

>  <PEOE_VSA_FHYD>
0.84957987

>  <PEOE_VSA_FNEG>
0.39940357

>  <PEOE_VSA_FPNEG>
0.076540597

>  <PEOE_VSA_FPOL>
0.15042013

>  <PEOE_VSA_FPOS>
0.60059643

>  <PEOE_VSA_FPPOS>
0.073879525

>  <PEOE_VSA_HYD>
267.63666

>  <PEOE_VSA_NEG>
125.82106

>  <PEOE_VSA_PNEG>
24.112

>  <PEOE_VSA_POL>
47.385704

>  <PEOE_VSA_POS>
189.20131

>  <PEOE_VSA_PPOS>
23.273705

>  <petitjean>
0.5

>  <petitjeanSC>
1

>  <Q_PC+>
0

>  <Q_PC->
0

>  <Q_RPC+>
0

>  <Q_RPC->
0

>  <Q_VSA_FHYD>
1

>  <Q_VSA_FNEG>
0

>  <Q_VSA_FPNEG>
0

>  <Q_VSA_FPOL>
0

>  <Q_VSA_FPOS>
1

>  <Q_VSA_FPPOS>
0

>  <Q_VSA_HYD>
315.02237

>  <Q_VSA_NEG>
0

>  <Q_VSA_PNEG>
0

>  <Q_VSA_POL>
0

>  <Q_VSA_POS>
315.02237

>  <Q_VSA_PPOS>
0

>  <radius>
6

>  <reactive>
0

>  <rings>
2

>  <RPC+>
0

>  <RPC->
0

>  <rsynth>
1

>  <SlogP>
1.69907

>  <SlogP_VSA0>
54.395866

>  <SlogP_VSA1>
23.269535

>  <SlogP_VSA2>
30.330866

>  <SlogP_VSA3>
39.365837

>  <SlogP_VSA4>
3.185575

>  <SlogP_VSA5>
18.868406

>  <SlogP_VSA6>
0

>  <SlogP_VSA7>
52.929554

>  <SlogP_VSA8>
18.868406

>  <SlogP_VSA9>
107.97822

>  <SMR>
8.2650204

>  <SMR_VSA0>
23.862217

>  <SMR_VSA1>
36.385113

>  <SMR_VSA2>
18.01075

>  <SMR_VSA3>
14.897653

>  <SMR_VSA4>
20.767498

>  <SMR_VSA5>
90.666367

>  <SMR_VSA6>
44.624619

>  <SMR_VSA7>
99.978043

>  <TPSA>
70.589996

>  <VAdjEq>
0.46827638

>  <VAdjMa>
5.4594316

>  <VDistEq>
3.3930619

>  <VDistMa>
8.4585724

>  <vdw_area>
315.02237

>  <vdw_vol>
412.2023

>  <vsa_acc>
16.070677

>  <vsa_acid>
0

>  <vsa_base>
0

>  <vsa_don>
5.6825762

>  <vsa_hyd>
235.45093

>  <vsa_other>
12.949531

>  <vsa_pol>
41.00275

>  <Weight>
292.379

>  <weinerPath>
1044

>  <weinerPol>
28

>  <zagreb>
106

$$$$