s1cc(cc1)CN(CCN(C)C)c1ncccc1
  MOE2013           2D

 18 19  0  0  1  0  0  0  0  0999 V2000
    0.0000    0.0000    0.0000 S   0  0  0  0  0  0  0  0  0  0  0  0
   -1.4430   -0.4100    0.0000 C   0  0  0  0  0  0  0  0  0  0  0  0
   -2.2790    0.8360    0.0000 C   0  0  0  0  0  0  0  0  0  0  0  0
   -1.3520    2.0150    0.0000 C   0  0  0  0  0  0  0  0  0  0  0  0
    0.0560    1.4990    0.0000 C   0  0  0  0  0  0  0  0  0  0  0  0
   -3.7780    0.8920    0.0000 C   0  0  0  0  0  0  0  0  0  0  0  0
   -4.4780    2.2180    0.0000 N   0  0  3  0  0  0  0  0  0  0  0  0
   -3.6800    3.4880    0.0000 C   0  0  0  0  0  0  0  0  0  0  0  0
   -4.3810    4.8140    0.0000 C   0  0  0  0  0  0  0  0  0  0  0  0
   -3.5830    6.0840    0.0000 N   0  0  0  0  0  0  0  0  0  0  0  0
   -2.0840    6.0280    0.0000 C   0  0  0  0  0  0  0  0  0  0  0  0
   -4.2840    7.4110    0.0000 C   0  0  0  0  0  0  0  0  0  0  0  0
   -5.9770    2.2740    0.0000 C   0  0  0  0  0  0  0  0  0  0  0  0
   -6.6780    3.6000    0.0000 N   0  0  0  0  0  0  0  0  0  0  0  0
   -8.1770    3.6560    0.0000 C   0  0  0  0  0  0  0  0  0  0  0  0
   -8.9750    2.3860    0.0000 C   0  0  0  0  0  0  0  0  0  0  0  0
   -8.2740    1.0600    0.0000 C   0  0  0  0  0  0  0  0  0  0  0  0
   -6.7750    1.0040    0.0000 C   0  0  0  0  0  0  0  0  0  0  0  0
  1  2  1  0  0  0  0
  1  5  1  0  0  0  0
  2  3  2  0  0  0  0
  3  4  1  0  0  0  0
  3  6  1  0  0  0  0
  4  5  2  0  0  0  0
  6  7  1  0  0  0  0
  7  8  1  0  0  0  0
  7 13  1  0  0  0  0
  8  9  1  0  0  0  0
  9 10  1  0  0  0  0
 10 11  1  0  0  0  0
 10 12  1  0  0  0  0
 13 14  1  0  0  0  0
 13 18  2  0  0  0  0
 14 15  2  0  0  0  0
 15 16  1  0  0  0  0
 16 17  2  0  0  0  0
 17 18  1  0  0  0  0
M  END
>  <Index>
1296

>  <ID>
HT3155

>  <class>
0

>  <apol>
43.509068

>  <ast_fraglike>
1

>  <ast_fraglike_ext>
0

>  <ast_violation>
0

>  <ast_violation_ext>
1

>  <a_acc>
2

>  <a_acid>
0

>  <a_aro>
11

>  <a_base>
0

>  <a_count>
37

>  <a_don>
0

>  <a_donacc>
2

>  <a_heavy>
18

>  <a_hyd>
14

>  <a_IC>
53.981297

>  <a_ICM>
1.458954

>  <a_nB>
0

>  <a_nBr>
0

>  <a_nC>
14

>  <a_nCl>
0

>  <a_nF>
0

>  <a_nH>
19

>  <a_nI>
0

>  <a_nN>
3

>  <a_nO>
0

>  <a_nP>
0

>  <a_nS>
1

>  <balabanJ>
1.8382177

>  <BCUT_PEOE_0>
-2.6436317

>  <BCUT_PEOE_1>
-0.52419758

>  <BCUT_PEOE_2>
0.56552017

>  <BCUT_PEOE_3>
2.5425894

>  <BCUT_SLOGP_0>
-2.7394741

>  <BCUT_SLOGP_1>
-0.43911654

>  <BCUT_SLOGP_2>
0.65568149

>  <BCUT_SLOGP_3>
2.5280249

>  <BCUT_SMR_0>
-2.3507314

>  <BCUT_SMR_1>
-0.36611277

>  <BCUT_SMR_2>
0.71554708

>  <BCUT_SMR_3>
2.8329029

>  <bpol>
28.330933

>  <b_1rotN>
6

>  <b_1rotR>
0.31578946

>  <b_ar>
11

>  <b_count>
38

>  <b_double>
0

>  <b_heavy>
19

>  <b_max1len>
7

>  <b_rotN>
6

>  <b_rotR>
0.31578946

>  <b_single>
27

>  <b_triple>
0

>  <chi0>
12.794683

>  <chi0v>
11.729157

>  <chi0v_C>
9.1627722

>  <chi0_C>
10.225768

>  <chi1>
8.7540197

>  <chi1v>
7.0156488

>  <chi1v_C>
3.0529122

>  <chi1_C>
4.1329932

>  <chiral>
0

>  <chiral_u>
0

>  <density>
0.70239335

>  <diameter>
8

>  <FCharge>
0

>  <GCUT_PEOE_0>
-0.86106575

>  <GCUT_PEOE_1>
-0.34559408

>  <GCUT_PEOE_2>
0.014280773

>  <GCUT_PEOE_3>
2.4993813

>  <GCUT_SLOGP_0>
-0.96783745

>  <GCUT_SLOGP_1>
-0.2849431

>  <GCUT_SLOGP_2>
0.12193526

>  <GCUT_SLOGP_3>
2.5733535

>  <GCUT_SMR_0>
-0.51515812

>  <GCUT_SMR_1>
-0.18125822

>  <GCUT_SMR_2>
0.15206137

>  <GCUT_SMR_3>
2.784374

>  <Kier1>
14.409972

>  <Kier2>
7.5555553

>  <Kier3>
4.8979592

>  <KierA1>
12.033255

>  <KierA2>
6.2377682

>  <KierA3>
4.0096354

>  <KierFlex>
4.1700363

>  <lip_acc>
3

>  <lip_don>
0

>  <lip_druglike>
1

>  <lip_violation>
0

>  <logP(o/w)>
2.309

>  <logS>
-1.68495

>  <mr>
7.8523774

>  <mutagenic>
0

>  <nmol>
1

>  <opr_brigid>
11

>  <opr_leadlike>
1

>  <opr_nring>
2

>  <opr_nrot>
6

>  <opr_violation>
0

>  <PC+>
0

>  <PC->
0

>  <PEOE_PC+>
1.2909181

>  <PEOE_PC->
-1.2909181

>  <PEOE_RPC+>
0.1189546

>  <PEOE_RPC->
0.23791128

>  <PEOE_VSA+0>
116.03829

>  <PEOE_VSA+1>
21.326929

>  <PEOE_VSA+2>
11.190562

>  <PEOE_VSA+3>
19.760618

>  <PEOE_VSA+4>
0

>  <PEOE_VSA+5>
0

>  <PEOE_VSA+6>
0

>  <PEOE_VSA-0>
73.195724

>  <PEOE_VSA-1>
24.509808

>  <PEOE_VSA-2>
28.461931

>  <PEOE_VSA-3>
0

>  <PEOE_VSA-4>
5.6825762

>  <PEOE_VSA-5>
0

>  <PEOE_VSA-6>
0

>  <PEOE_VSA_FHYD>
0.98106861

>  <PEOE_VSA_FNEG>
0.43925643

>  <PEOE_VSA_FPNEG>
0.018931417

>  <PEOE_VSA_FPOL>
0.018931417

>  <PEOE_VSA_FPOS>
0.56074357

>  <PEOE_VSA_FPPOS>
0

>  <PEOE_VSA_HYD>
294.48386

>  <PEOE_VSA_NEG>
131.85004

>  <PEOE_VSA_PNEG>
5.6825762

>  <PEOE_VSA_POL>
5.6825762

>  <PEOE_VSA_POS>
168.31641

>  <PEOE_VSA_PPOS>
0

>  <petitjean>
0.5

>  <petitjeanSC>
1

>  <Q_PC+>
0

>  <Q_PC->
0

>  <Q_RPC+>
0

>  <Q_RPC->
0

>  <Q_VSA_FHYD>
1

>  <Q_VSA_FNEG>
0

>  <Q_VSA_FPNEG>
0

>  <Q_VSA_FPOL>
0

>  <Q_VSA_FPOS>
1

>  <Q_VSA_FPPOS>
0

>  <Q_VSA_HYD>
300.16644

>  <Q_VSA_NEG>
0

>  <Q_VSA_PNEG>
0

>  <Q_VSA_POL>
0

>  <Q_VSA_POS>
300.16644

>  <Q_VSA_PPOS>
0

>  <radius>
4

>  <reactive>
0

>  <rings>
2

>  <RPC+>
0

>  <RPC->
0

>  <rsynth>
1

>  <SlogP>
2.9777

>  <SlogP_VSA0>
3.1243138

>  <SlogP_VSA1>
19.909843

>  <SlogP_VSA2>
0

>  <SlogP_VSA3>
36.879158

>  <SlogP_VSA4>
3.185575

>  <SlogP_VSA5>
65.794373

>  <SlogP_VSA6>
0

>  <SlogP_VSA7>
119.41911

>  <SlogP_VSA8>
0

>  <SlogP_VSA9>
52.045185

>  <SMR>
7.8365002

>  <SMR_VSA0>
0

>  <SMR_VSA1>
19.909843

>  <SMR_VSA2>
3.1243138

>  <SMR_VSA3>
3.185575

>  <SMR_VSA4>
2.3279202

>  <SMR_VSA5>
137.85869

>  <SMR_VSA6>
36.879158

>  <SMR_VSA7>
97.07206

>  <TPSA>
19.370001

>  <VAdjEq>
0.52150291

>  <VAdjMa>
5.2479277

>  <VDistEq>
2.9484785

>  <VDistMa>
8.0586195

>  <vdw_area>
300.16644

>  <vdw_vol>
372.14618

>  <vsa_acc>
5.6825762

>  <vsa_acid>
0

>  <vsa_base>
0

>  <vsa_don>
0

>  <vsa_hyd>
269.7692

>  <vsa_other>
11.190562

>  <vsa_pol>
5.6825762

>  <Weight>
261.39301

>  <weinerPath>
637

>  <weinerPol>
20

>  <zagreb>
86

$$$$