ClC(Cl)(Cl)C1OC2C(OC(C(O)CO)C2O)O1
  MOE2013           2D

 17 18  0  0  1  0  0  0  0  0999 V2000
    0.0000    0.0000    0.0000 Cl  0  0  0  0  0  0  0  0  0  0  0  0
   -0.2830    1.4730    0.0000 C   0  0  0  0  0  0  0  0  0  0  0  0
   -0.5660    2.9460    0.0000 Cl  0  0  0  0  0  0  0  0  0  0  0  0
    1.1900    1.7560    0.0000 Cl  0  0  0  0  0  0  0  0  0  0  0  0
   -1.7560    1.1900    0.0000 C   0  0  3  0  0  0  0  0  0  0  0  0
   -2.8510    2.2160    0.0000 O   0  0  0  0  0  0  0  0  0  0  0  0
   -4.1640    1.4920    0.0000 C   0  0  3  0  0  0  0  0  0  0  0  0
   -3.8810    0.0180    0.0000 C   0  0  3  0  0  0  0  0  0  0  0  0
   -5.1950   -0.7060    0.0000 O   0  0  0  0  0  0  0  0  0  0  0  0
   -6.2900    0.3200    0.0000 C   0  0  3  0  0  0  0  0  0  0  0  0
   -7.7630    0.0370    0.0000 C   0  0  3  0  0  0  0  0  0  0  0  0
   -8.7440    1.1710    0.0000 O   0  0  0  0  0  0  0  0  0  0  0  0
   -8.2540   -1.3800    0.0000 C   0  0  0  0  0  0  0  0  0  0  0  0
   -9.7270   -1.6630    0.0000 O   0  0  0  0  0  0  0  0  0  0  0  0
   -5.6530    1.6780    0.0000 C   0  0  3  0  0  0  0  0  0  0  0  0
   -6.3770    2.9910    0.0000 O   0  0  0  0  0  0  0  0  0  0  0  0
   -2.3930   -0.1680    0.0000 O   0  0  0  0  0  0  0  0  0  0  0  0
  1  2  1  0  0  0  0
  2  3  1  0  0  0  0
  2  4  1  0  0  0  0
  2  5  1  0  0  0  0
  5  6  1  0  0  0  0
  5 17  1  0  0  0  0
  6  7  1  0  0  0  0
  7  8  1  0  0  0  0
  7 15  1  0  0  0  0
  8  9  1  0  0  0  0
  8 17  1  0  0  0  0
  9 10  1  0  0  0  0
 10 11  1  0  0  0  0
 10 15  1  0  0  0  0
 11 12  1  0  0  0  0
 11 13  1  0  0  0  0
 13 14  1  0  0  0  0
 15 16  1  0  0  0  0
M  END
>  <Index>
1327

>  <ID>
HT3404

>  <class>
0

>  <apol>
32.766724

>  <ast_fraglike>
0

>  <ast_fraglike_ext>
0

>  <ast_violation>
2

>  <ast_violation_ext>
2

>  <a_acc>
6

>  <a_acid>
0

>  <a_aro>
0

>  <a_base>
0

>  <a_count>
28

>  <a_don>
3

>  <a_donacc>
9

>  <a_heavy>
17

>  <a_hyd>
8

>  <a_IC>
52.287529

>  <a_ICM>
1.8674117

>  <a_nB>
0

>  <a_nBr>
0

>  <a_nC>
8

>  <a_nCl>
3

>  <a_nF>
0

>  <a_nH>
11

>  <a_nI>
0

>  <a_nN>
0

>  <a_nO>
6

>  <a_nP>
0

>  <a_nS>
0

>  <balabanJ>
2.0121307

>  <BCUT_PEOE_0>
-2.5720572

>  <BCUT_PEOE_1>
-0.50415212

>  <BCUT_PEOE_2>
0.63263017

>  <BCUT_PEOE_3>
2.8412414

>  <BCUT_SLOGP_0>
-2.7712424

>  <BCUT_SLOGP_1>
-0.57740295

>  <BCUT_SLOGP_2>
0.68949997

>  <BCUT_SLOGP_3>
2.6511784

>  <BCUT_SMR_0>
-2.3756659

>  <BCUT_SMR_1>
-0.40497649

>  <BCUT_SMR_2>
0.69290221

>  <BCUT_SMR_3>
3.0200746

>  <bpol>
19.033278

>  <b_1rotN>
2

>  <b_1rotR>
0.11111111

>  <b_ar>
0

>  <b_count>
29

>  <b_double>
0

>  <b_heavy>
18

>  <b_max1len>
5

>  <b_rotN>
3

>  <b_rotR>
0.16666667

>  <b_single>
29

>  <b_triple>
0

>  <chi0>
12.792529

>  <chi0v>
10.639275

>  <chi0v_C>
4.6712084

>  <chi0_C>
4.6712084

>  <chi1>
7.8415537

>  <chi1v>
5.9779358

>  <chi1v_C>
2.0302567

>  <chi1_C>
2.0302567

>  <chiral>
6

>  <chiral_u>
6

>  <density>
1.0786638

>  <diameter>
9

>  <FCharge>
0

>  <GCUT_PEOE_0>
-0.79320627

>  <GCUT_PEOE_1>
-0.38582695

>  <GCUT_PEOE_2>
0.12175242

>  <GCUT_PEOE_3>
2.5765126

>  <GCUT_SLOGP_0>
-0.95686728

>  <GCUT_SLOGP_1>
-0.46422052

>  <GCUT_SLOGP_2>
0.14450501

>  <GCUT_SLOGP_3>
2.4633644

>  <GCUT_SMR_0>
-0.52625132

>  <GCUT_SMR_1>
-0.22410212

>  <GCUT_SMR_2>
0.37058637

>  <GCUT_SMR_3>
2.766119

>  <Kier1>
13.432098

>  <Kier2>
4.5918369

>  <Kier3>
2.4197531

>  <KierA1>
17.099779

>  <KierA2>
5.9346814

>  <KierA3>
3.1648326

>  <KierFlex>
5.9695144

>  <lip_acc>
6

>  <lip_don>
3

>  <lip_druglike>
1

>  <lip_violation>
0

>  <logP(o/w)>
-0.35392001

>  <logS>
-1.87774

>  <mr>
5.8268261

>  <mutagenic>
1

>  <nmol>
1

>  <opr_brigid>
9

>  <opr_leadlike>
1

>  <opr_nring>
2

>  <opr_nrot>
2

>  <opr_violation>
0

>  <PC+>
0

>  <PC->
0

>  <PEOE_PC+>
2.3917677

>  <PEOE_PC->
-2.3917677

>  <PEOE_RPC+>
0.10071361

>  <PEOE_RPC->
0.16405271

>  <PEOE_VSA+0>
0

>  <PEOE_VSA+1>
49.074383

>  <PEOE_VSA+2>
19.619715

>  <PEOE_VSA+3>
11.154908

>  <PEOE_VSA+4>
42.127426

>  <PEOE_VSA+5>
0

>  <PEOE_VSA+6>
0

>  <PEOE_VSA-0>
0

>  <PEOE_VSA-1>
88.745842

>  <PEOE_VSA-2>
0

>  <PEOE_VSA-3>
0

>  <PEOE_VSA-4>
0

>  <PEOE_VSA-5>
0

>  <PEOE_VSA-6>
30.813889

>  <PEOE_VSA_FHYD>
0.6980108

>  <PEOE_VSA_FNEG>
0.49499723

>  <PEOE_VSA_FPNEG>
0.12757464

>  <PEOE_VSA_FPOL>
0.30198923

>  <PEOE_VSA_FPOS>
0.5050028

>  <PEOE_VSA_FPPOS>
0.17441458

>  <PEOE_VSA_HYD>
168.59485

>  <PEOE_VSA_NEG>
119.55973

>  <PEOE_VSA_PNEG>
30.813889

>  <PEOE_VSA_POL>
72.941315

>  <PEOE_VSA_POS>
121.97643

>  <PEOE_VSA_PPOS>
42.127426

>  <petitjean>
0.44444445

>  <petitjeanSC>
0.80000001

>  <Q_PC+>
0

>  <Q_PC->
0

>  <Q_RPC+>
0

>  <Q_RPC->
0

>  <Q_VSA_FHYD>
1

>  <Q_VSA_FNEG>
0

>  <Q_VSA_FPNEG>
0

>  <Q_VSA_FPOL>
0

>  <Q_VSA_FPOS>
1

>  <Q_VSA_FPPOS>
0

>  <Q_VSA_HYD>
241.53616

>  <Q_VSA_NEG>
0

>  <Q_VSA_PNEG>
0

>  <Q_VSA_POL>
0

>  <Q_VSA_POS>
241.53616

>  <Q_VSA_PPOS>
0

>  <radius>
5

>  <reactive>
1

>  <rings>
2

>  <RPC+>
0

>  <RPC->
0

>  <rsynth>
1

>  <SlogP>
-0.46290001

>  <SlogP_VSA0>
76.155678

>  <SlogP_VSA1>
0

>  <SlogP_VSA2>
75.927269

>  <SlogP_VSA3>
20.926258

>  <SlogP_VSA4>
0

>  <SlogP_VSA5>
0

>  <SlogP_VSA6>
0

>  <SlogP_VSA7>
0

>  <SlogP_VSA8>
0

>  <SlogP_VSA9>
117.44593

>  <SMR>
5.7796402

>  <SMR_VSA0>
32.999664

>  <SMR_VSA1>
76.155678

>  <SMR_VSA2>
0

>  <SMR_VSA3>
42.927601

>  <SMR_VSA4>
0

>  <SMR_VSA5>
0

>  <SMR_VSA6>
20.926258

>  <SMR_VSA7>
117.44593

>  <TPSA>
88.379997

>  <VAdjEq>
0.54234898

>  <VAdjMa>
5.1699252

>  <VDistEq>
2.9250762

>  <VDistMa>
7.8645682

>  <vdw_area>
241.53616

>  <vdw_vol>
286.95596

>  <vsa_acc>
7.5112681

>  <vsa_acid>
0

>  <vsa_base>
0

>  <vsa_don>
0

>  <vsa_hyd>
144.6384

>  <vsa_other>
29.416998

>  <vsa_pol>
48.212032

>  <Weight>
309.52899

>  <weinerPath>
507

>  <weinerPol>
26

>  <zagreb>
92

$$$$