Sc1nc(nc2nc[nH]c12)N
  MOE2013           2D

 11 12  0  0  0  0  0  0  0  0999 V2000
    0.0000    0.0000    0.0000 S   0  0  0  0  0  0  0  0  0  0  0  0
    0.0040   -1.5000    0.0000 C   0  0  0  0  0  0  0  0  0  0  0  0
   -1.2930   -2.2530    0.0000 N   0  0  0  0  0  0  0  0  0  0  0  0
   -1.2900   -3.7530    0.0000 C   0  0  0  0  0  0  0  0  0  0  0  0
    0.0110   -4.5000    0.0000 N   0  0  0  0  0  0  0  0  0  0  0  0
    1.3080   -3.7470    0.0000 C   0  0  0  0  0  0  0  0  0  0  0  0
    2.7360   -4.2070    0.0000 N   0  0  0  0  0  0  0  0  0  0  0  0
    3.6150   -2.9910    0.0000 C   0  0  0  0  0  0  0  0  0  0  0  0
    2.7300   -1.7800    0.0000 N   0  0  0  0  0  0  0  0  0  0  0  0
    1.3050   -2.2470    0.0000 C   0  0  0  0  0  0  0  0  0  0  0  0
   -2.5870   -4.5060    0.0000 N   0  0  0  0  0  0  0  0  0  0  0  0
  1  2  1  0  0  0  0
  2  3  1  0  0  0  0
  2 10  2  0  0  0  0
  3  4  2  0  0  0  0
  4  5  1  0  0  0  0
  4 11  1  0  0  0  0
  5  6  2  0  0  0  0
  6  7  1  0  0  0  0
  6 10  1  0  0  0  0
  7  8  2  0  0  0  0
  8  9  1  0  0  0  0
  9 10  1  0  0  0  0
M  END
>  <Index>
1067

>  <ID>
HT2042

>  <class>
0

>  <apol>
20.533964

>  <ast_fraglike>
0

>  <ast_fraglike_ext>
0

>  <ast_violation>
1

>  <ast_violation_ext>
1

>  <a_acc>
4

>  <a_acid>
0

>  <a_aro>
9

>  <a_base>
0

>  <a_count>
16

>  <a_don>
3

>  <a_donacc>
7

>  <a_heavy>
11

>  <a_hyd>
2

>  <a_IC>
29.171078

>  <a_ICM>
1.8231924

>  <a_nB>
0

>  <a_nBr>
0

>  <a_nC>
5

>  <a_nCl>
0

>  <a_nF>
0

>  <a_nH>
5

>  <a_nI>
0

>  <a_nN>
5

>  <a_nO>
0

>  <a_nP>
0

>  <a_nS>
1

>  <balabanJ>
2.079844

>  <BCUT_PEOE_0>
-2.083411

>  <BCUT_PEOE_1>
-0.67405111

>  <BCUT_PEOE_2>
0.7696169

>  <BCUT_PEOE_3>
2.1328676

>  <BCUT_SLOGP_0>
-2.3272665

>  <BCUT_SLOGP_1>
-0.72159773

>  <BCUT_SLOGP_2>
0.79875767

>  <BCUT_SLOGP_3>
2.2390292

>  <BCUT_SMR_0>
-1.7517424

>  <BCUT_SMR_1>
-0.41802257

>  <BCUT_SMR_2>
1.0247796

>  <BCUT_SMR_3>
2.464092

>  <bpol>
11.706035

>  <b_1rotN>
0

>  <b_1rotR>
0

>  <b_ar>
10

>  <b_count>
17

>  <b_double>
0

>  <b_heavy>
12

>  <b_max1len>
2

>  <b_rotN>
0

>  <b_rotR>
0

>  <b_single>
7

>  <b_triple>
0

>  <chi0>
7.8449349

>  <chi0v>
6.3379822

>  <chi0v_C>
2.5773504

>  <chi0_C>
3.0165079

>  <chi1>
5.2708569

>  <chi1v>
3.3744035

>  <chi1v_C>
0.5

>  <chi1_C>
0.66666669

>  <chiral>
0

>  <chiral_u>
0

>  <density>
0.91372222

>  <diameter>
5

>  <FCharge>
0

>  <GCUT_PEOE_0>
-0.82923007

>  <GCUT_PEOE_1>
-0.51973063

>  <GCUT_PEOE_2>
0.16720338

>  <GCUT_PEOE_3>
2.0076768

>  <GCUT_SLOGP_0>
-1.3351181

>  <GCUT_SLOGP_1>
-0.44910598

>  <GCUT_SLOGP_2>
0.26901782

>  <GCUT_SLOGP_3>
2.0910451

>  <GCUT_SMR_0>
-0.43726751

>  <GCUT_SMR_1>
-0.17564169

>  <GCUT_SMR_2>
0.37987909

>  <GCUT_SMR_3>
2.3269062

>  <Kier1>
7.6388888

>  <Kier2>
2.8027682

>  <Kier3>
1.322314

>  <KierA1>
5.625

>  <KierA2>
1.9930795

>  <KierA3>
0.91115701

>  <KierFlex>
1.0191884

>  <lip_acc>
5

>  <lip_don>
3

>  <lip_druglike>
1

>  <lip_violation>
0

>  <logP(o/w)>
0.10206

>  <logS>
-3.1238

>  <mr>
4.1774936

>  <mutagenic>
1

>  <nmol>
1

>  <opr_brigid>
10

>  <opr_leadlike>
1

>  <opr_nring>
2

>  <opr_nrot>
0

>  <opr_violation>
0

>  <PC+>
0

>  <PC->
0

>  <PEOE_PC+>
1.3546667

>  <PEOE_PC->
-1.3546667

>  <PEOE_RPC+>
0.14897875

>  <PEOE_RPC->
0.25175115

>  <PEOE_VSA+0>
0

>  <PEOE_VSA+1>
21.236927

>  <PEOE_VSA+2>
44.659672

>  <PEOE_VSA+3>
19.809576

>  <PEOE_VSA+4>
15.681574

>  <PEOE_VSA+5>
0

>  <PEOE_VSA+6>
0

>  <PEOE_VSA-0>
0

>  <PEOE_VSA-1>
0

>  <PEOE_VSA-2>
26.362989

>  <PEOE_VSA-3>
5.6825762

>  <PEOE_VSA-4>
11.365152

>  <PEOE_VSA-5>
6.6511192

>  <PEOE_VSA-6>
0.13689101

>  <PEOE_VSA_FHYD>
0.7767958

>  <PEOE_VSA_FNEG>
0.33115572

>  <PEOE_VSA_FPNEG>
0.1197545

>  <PEOE_VSA_FPOL>
0.2232042

>  <PEOE_VSA_FPOS>
0.66884428

>  <PEOE_VSA_FPPOS>
0.10344969

>  <PEOE_VSA_HYD>
117.75174

>  <PEOE_VSA_NEG>
50.198727

>  <PEOE_VSA_PNEG>
18.153162

>  <PEOE_VSA_POL>
33.834736

>  <PEOE_VSA_POS>
101.38775

>  <PEOE_VSA_PPOS>
15.681574

>  <petitjean>
0.40000001

>  <petitjeanSC>
0.66666669

>  <Q_PC+>
0

>  <Q_PC->
0

>  <Q_RPC+>
0

>  <Q_RPC->
0

>  <Q_VSA_FHYD>
1

>  <Q_VSA_FNEG>
0

>  <Q_VSA_FPNEG>
0

>  <Q_VSA_FPOL>
0

>  <Q_VSA_FPOS>
1

>  <Q_VSA_FPPOS>
0

>  <Q_VSA_HYD>
151.58647

>  <Q_VSA_NEG>
0

>  <Q_VSA_PNEG>
0

>  <Q_VSA_POL>
0

>  <Q_VSA_POS>
151.58647

>  <Q_VSA_PPOS>
0

>  <radius>
3

>  <reactive>
1

>  <rings>
2

>  <RPC+>
0

>  <RPC->
0

>  <rsynth>
1

>  <SlogP>
0.2238

>  <SlogP_VSA0>
32.897186

>  <SlogP_VSA1>
50.35659

>  <SlogP_VSA2>
16.78553

>  <SlogP_VSA3>
0

>  <SlogP_VSA4>
0

>  <SlogP_VSA5>
1.1219065

>  <SlogP_VSA6>
0

>  <SlogP_VSA7>
20.644976

>  <SlogP_VSA8>
46.107109

>  <SlogP_VSA9>
1.8990928

>  <SMR>
4.3349099

>  <SMR_VSA0>
0

>  <SMR_VSA1>
50.35659

>  <SMR_VSA2>
17.907436

>  <SMR_VSA3>
0

>  <SMR_VSA4>
5.7585392

>  <SMR_VSA5>
49.682716

>  <SMR_VSA6>
0

>  <SMR_VSA7>
46.107109

>  <TPSA>
119.28

>  <VAdjEq>
0.71860999

>  <VAdjMa>
4.5849624

>  <VDistEq>
2.1262929

>  <VDistMa>
6.6318021

>  <vdw_area>
151.58647

>  <vdw_vol>
182.98341

>  <vsa_acc>
11.365152

>  <vsa_acid>
0

>  <vsa_base>
0

>  <vsa_don>
17.742489

>  <vsa_hyd>
15.375164

>  <vsa_other>
83.047165

>  <vsa_pol>
40.472794

>  <Weight>
167.196

>  <weinerPath>
138

>  <weinerPol>
14

>  <zagreb>
58

$$$$