S(=O)(=O)(N)c1ccc(cc1)-c1c(noc1C)-c1ccccc1
  MOE2013           2D

 22 24  0  0  0  0  0  0  0  0999 V2000
    0.0000    0.0000    0.0000 S   0  0  0  0  0  0  0  0  0  0  0  0
   -0.7550   -1.2960    0.0000 O   0  0  0  0  0  0  0  0  0  0  0  0
    0.7550    1.2960    0.0000 O   0  0  0  0  0  0  0  0  0  0  0  0
    1.2960   -0.7550    0.0000 N   0  0  0  0  0  0  0  0  0  0  0  0
   -1.2960    0.7550    0.0000 C   0  0  0  0  0  0  0  0  0  0  0  0
   -2.5980    0.0090    0.0000 C   0  0  0  0  0  0  0  0  0  0  0  0
   -3.8940    0.7640    0.0000 C   0  0  0  0  0  0  0  0  0  0  0  0
   -3.8890    2.2640    0.0000 C   0  0  0  0  0  0  0  0  0  0  0  0
   -2.5880    3.0090    0.0000 C   0  0  0  0  0  0  0  0  0  0  0  0
   -1.2910    2.2550    0.0000 C   0  0  0  0  0  0  0  0  0  0  0  0
   -5.1860    3.0180    0.0000 C   0  0  0  0  0  0  0  0  0  0  0  0
   -6.5580    2.4130    0.0000 C   0  0  0  0  0  0  0  0  0  0  0  0
   -7.5580    3.5310    0.0000 N   0  0  0  0  0  0  0  0  0  0  0  0
   -6.8030    4.8270    0.0000 O   0  0  0  0  0  0  0  0  0  0  0  0
   -5.3370    4.5100    0.0000 C   0  0  0  0  0  0  0  0  0  0  0  0
   -4.2190    5.5100    0.0000 C   0  0  0  0  0  0  0  0  0  0  0  0
   -6.8750    0.9470    0.0000 C   0  0  0  0  0  0  0  0  0  0  0  0
   -8.3030    0.4880    0.0000 C   0  0  0  0  0  0  0  0  0  0  0  0
   -8.6200   -0.9780    0.0000 C   0  0  0  0  0  0  0  0  0  0  0  0
   -7.5090   -1.9860    0.0000 C   0  0  0  0  0  0  0  0  0  0  0  0
   -6.0810   -1.5270    0.0000 C   0  0  0  0  0  0  0  0  0  0  0  0
   -5.7640   -0.0610    0.0000 C   0  0  0  0  0  0  0  0  0  0  0  0
  1  2  2  0  0  0  0
  1  3  2  0  0  0  0
  1  4  1  0  0  0  0
  1  5  1  0  0  0  0
  5  6  1  0  0  0  0
  5 10  2  0  0  0  0
  6  7  2  0  0  0  0
  7  8  1  0  0  0  0
  8  9  2  0  0  0  0
  8 11  1  0  0  0  0
  9 10  1  0  0  0  0
 11 12  1  0  0  0  0
 11 15  2  0  0  0  0
 12 13  2  0  0  0  0
 12 17  1  0  0  0  0
 13 14  1  0  0  0  0
 14 15  1  0  0  0  0
 15 16  1  0  0  0  0
 17 18  1  0  0  0  0
 17 22  2  0  0  0  0
 18 19  2  0  0  0  0
 19 20  1  0  0  0  0
 20 21  2  0  0  0  0
 21 22  1  0  0  0  0
M  END
>  <Index>
1133

>  <ID>
HT2161

>  <class>
0

>  <apol>
45.001102

>  <ast_fraglike>
0

>  <ast_fraglike_ext>
0

>  <ast_violation>
1

>  <ast_violation_ext>
2

>  <a_acc>
3

>  <a_acid>
0

>  <a_aro>
17

>  <a_base>
0

>  <a_count>
36

>  <a_don>
1

>  <a_donacc>
4

>  <a_heavy>
22

>  <a_hyd>
15

>  <a_IC>
62.059444

>  <a_ICM>
1.7238734

>  <a_nB>
0

>  <a_nBr>
0

>  <a_nC>
16

>  <a_nCl>
0

>  <a_nF>
0

>  <a_nH>
14

>  <a_nI>
0

>  <a_nN>
2

>  <a_nO>
3

>  <a_nP>
0

>  <a_nS>
1

>  <balabanJ>
1.6262522

>  <BCUT_PEOE_0>
-2.3248777

>  <BCUT_PEOE_1>
-0.63312429

>  <BCUT_PEOE_2>
0.69089603

>  <BCUT_PEOE_3>
2.3700113

>  <BCUT_SLOGP_0>
-2.5719004

>  <BCUT_SLOGP_1>
-0.53807992

>  <BCUT_SLOGP_2>
0.80591482

>  <BCUT_SLOGP_3>
2.4725296

>  <BCUT_SMR_0>
-1.9838425

>  <BCUT_SMR_1>
-0.49986199

>  <BCUT_SMR_2>
0.85906303

>  <BCUT_SMR_3>
2.7246134

>  <bpol>
23.036898

>  <b_1rotN>
3

>  <b_1rotR>
0.125

>  <b_ar>
17

>  <b_count>
38

>  <b_double>
0

>  <b_heavy>
24

>  <b_max1len>
3

>  <b_rotN>
3

>  <b_rotR>
0.125

>  <b_single>
21

>  <b_triple>
0

>  <chi0>
15.742276

>  <chi0v>
12.670206

>  <chi0v_C>
9.1961527

>  <chi0_C>
10.828063

>  <chi1>
10.465345

>  <chi1v>
8.1618347

>  <chi1v_C>
5.2320509

>  <chi1_C>
7.3601732

>  <chiral>
0

>  <chiral_u>
0

>  <density>
0.79774082

>  <diameter>
11

>  <FCharge>
0

>  <GCUT_PEOE_0>
-0.80107081

>  <GCUT_PEOE_1>
-0.39122307

>  <GCUT_PEOE_2>
0.068275489

>  <GCUT_PEOE_3>
2.485878

>  <GCUT_SLOGP_0>
-1.3482711

>  <GCUT_SLOGP_1>
-0.30995259

>  <GCUT_SLOGP_2>
0.16445385

>  <GCUT_SLOGP_3>
2.6154439

>  <GCUT_SMR_0>
-0.48382166

>  <GCUT_SMR_1>
-0.20816517

>  <GCUT_SMR_2>
0.21060649

>  <GCUT_SMR_3>
2.7791119

>  <Kier1>
16.84375

>  <Kier2>
6.8571429

>  <Kier3>
3.7530863

>  <KierA1>
13.288906

>  <KierA2>
5.3445201

>  <KierA3>
2.8994508

>  <KierFlex>
3.2283101

>  <lip_acc>
5

>  <lip_don>
2

>  <lip_druglike>
1

>  <lip_violation>
0

>  <logP(o/w)>
2.717

>  <logS>
-5.3927898

>  <mr>
8.5849533

>  <mutagenic>
0

>  <nmol>
1

>  <opr_brigid>
17

>  <opr_leadlike>
1

>  <opr_nring>
3

>  <opr_nrot>
3

>  <opr_violation>
0

>  <PC+>
0

>  <PC->
0

>  <PEOE_PC+>
1.4932313

>  <PEOE_PC->
-1.4932313

>  <PEOE_RPC+>
0.18876222

>  <PEOE_RPC->
0.24022478

>  <PEOE_VSA+0>
66.858139

>  <PEOE_VSA+1>
40.597015

>  <PEOE_VSA+2>
15.158071

>  <PEOE_VSA+3>
0

>  <PEOE_VSA+4>
0

>  <PEOE_VSA+5>
4.1846013

>  <PEOE_VSA+6>
0

>  <PEOE_VSA-0>
45.466026

>  <PEOE_VSA-1>
72.159782

>  <PEOE_VSA-2>
0

>  <PEOE_VSA-3>
9.0437498

>  <PEOE_VSA-4>
32.016521

>  <PEOE_VSA-5>
0

>  <PEOE_VSA-6>
5.9023595

>  <PEOE_VSA_FHYD>
0.8555063

>  <PEOE_VSA_FNEG>
0.56484628

>  <PEOE_VSA_FPNEG>
0.1301327

>  <PEOE_VSA_FPOL>
0.14449371

>  <PEOE_VSA_FPOS>
0.43515375

>  <PEOE_VSA_FPPOS>
0.014361011

>  <PEOE_VSA_HYD>
249.28278

>  <PEOE_VSA_NEG>
164.58844

>  <PEOE_VSA_PNEG>
37.918884

>  <PEOE_VSA_POL>
42.103485

>  <PEOE_VSA_POS>
126.79783

>  <PEOE_VSA_PPOS>
4.1846013

>  <petitjean>
0.45454547

>  <petitjeanSC>
0.83333331

>  <Q_PC+>
0

>  <Q_PC->
0

>  <Q_RPC+>
0

>  <Q_RPC->
0

>  <Q_VSA_FHYD>
1

>  <Q_VSA_FNEG>
0

>  <Q_VSA_FPNEG>
0

>  <Q_VSA_FPOL>
0

>  <Q_VSA_FPOS>
1

>  <Q_VSA_FPPOS>
0

>  <Q_VSA_HYD>
291.38626

>  <Q_VSA_NEG>
0

>  <Q_VSA_PNEG>
0

>  <Q_VSA_POL>
0

>  <Q_VSA_POS>
291.38626

>  <Q_VSA_PPOS>
0

>  <radius>
6

>  <reactive>
0

>  <rings>
3

>  <RPC+>
0

>  <RPC->
0

>  <rsynth>
1

>  <SlogP>
2.9644201

>  <SlogP_VSA0>
31.291433

>  <SlogP_VSA1>
67.768288

>  <SlogP_VSA2>
6.6407428

>  <SlogP_VSA3>
0

>  <SlogP_VSA4>
5.4488211

>  <SlogP_VSA5>
11.284855

>  <SlogP_VSA6>
0

>  <SlogP_VSA7>
171.10213

>  <SlogP_VSA8>
0

>  <SlogP_VSA9>
33.326015

>  <SMR>
8.3485203

>  <SMR_VSA0>
57.905807

>  <SMR_VSA1>
19.596598

>  <SMR_VSA2>
1.5507339

>  <SMR_VSA3>
5.4488211

>  <SMR_VSA4>
43.604908

>  <SMR_VSA5>
158.78867

>  <SMR_VSA6>
0

>  <SMR_VSA7>
39.966759

>  <TPSA>
86.190002

>  <VAdjEq>
0.46637034

>  <VAdjMa>
5.5849624

>  <VDistEq>
3.2458782

>  <VDistMa>
8.621172

>  <vdw_area>
291.38626

>  <vdw_vol>
394.06909

>  <vsa_acc>
42.901787

>  <vsa_acid>
0

>  <vsa_base>
0

>  <vsa_don>
20.13512

>  <vsa_hyd>
189.19467

>  <vsa_other>
24.466488

>  <vsa_pol>
63.036903

>  <Weight>
314.36499

>  <weinerPath>
1057

>  <weinerPol>
34

>  <zagreb>
118

$$$$