Fc1cc2nc3C=4N(Cc3c3c2c(CC[C@@H]3N)c1C)C(=O)C1=C(C=4)[C@](O)(CC)C(OC1)=O
  MOE2013           2D

 32 37  0  0  1  0  0  0  0  0999 V2000
    0.0000    0.0000    0.0000 F   0  0  0  0  0  0  0  0  0  0  0  0
    1.2940   -0.7590    0.0000 C   0  0  0  0  0  0  0  0  0  0  0  0
    2.6000   -0.0170    0.0000 C   0  0  0  0  0  0  0  0  0  0  0  0
    3.8960   -0.7740    0.0000 C   0  0  0  0  0  0  0  0  0  0  0  0
    5.1980   -0.0380    0.0000 N   0  0  0  0  0  0  0  0  0  0  0  0
    6.4910   -0.7970    0.0000 C   0  0  0  0  0  0  0  0  0  0  0  0
    7.9190   -0.3390    0.0000 C   0  0  0  0  0  0  0  0  0  0  0  0
    8.7960   -1.5560    0.0000 N   0  0  0  0  0  0  0  0  0  0  0  0
    7.9100   -2.7660    0.0000 C   0  0  0  0  0  0  0  0  0  0  0  0
    6.4830   -2.2950    0.0000 C   0  0  0  0  0  0  0  0  0  0  0  0
    5.1760   -3.0370    0.0000 C   0  0  0  0  0  0  0  0  0  0  0  0
    3.8840   -2.2780    0.0000 C   0  0  0  0  0  0  0  0  0  0  0  0
    2.5770   -3.0210    0.0000 C   0  0  0  0  0  0  0  0  0  0  0  0
    2.5690   -4.5160    0.0000 C   0  0  0  0  0  0  0  0  0  0  0  0
    3.8630   -5.2760    0.0000 C   0  0  0  0  0  0  0  0  0  0  0  0
    5.1650   -4.5390    0.0000 C   0  0  2  0  0  0  0  0  0  0  0  0
    6.4580   -5.2990    0.0000 N   0  0  0  0  0  0  0  0  0  0  0  0
    1.2830   -2.2620    0.0000 C   0  0  0  0  0  0  0  0  0  0  0  0
   -0.0210   -3.0030    0.0000 C   0  0  0  0  0  0  0  0  0  0  0  0
   10.2890   -1.4040    0.0000 C   0  0  0  0  0  0  0  0  0  0  0  0
   11.1660   -2.6210    0.0000 O   0  0  0  0  0  0  0  0  0  0  0  0
   10.9040   -0.0360    0.0000 C   0  0  0  0  0  0  0  0  0  0  0  0
   10.0260    1.1810    0.0000 C   0  0  0  0  0  0  0  0  0  0  0  0
    8.5340    1.0290    0.0000 C   0  0  0  0  0  0  0  0  0  0  0  0
   10.6410    2.5490    0.0000 C   0  0  2  0  0  0  0  0  0  0  0  0
   10.5170    4.0440    0.0000 O   0  0  0  0  0  0  0  0  0  0  0  0
    9.2920    3.2050    0.0000 C   0  0  0  0  0  0  0  0  0  0  0  0
    9.1860    4.7020    0.0000 C   0  0  0  0  0  0  0  0  0  0  0  0
   12.1330    2.7000    0.0000 C   0  0  0  0  0  0  0  0  0  0  0  0
   13.0110    1.4840    0.0000 O   0  0  0  0  0  0  0  0  0  0  0  0
   12.3960    0.1160    0.0000 C   0  0  0  0  0  0  0  0  0  0  0  0
   12.7480    4.0690    0.0000 O   0  0  0  0  0  0  0  0  0  0  0  0
  1  2  1  0  0  0  0
  2  3  1  0  0  0  0
  2 18  2  0  0  0  0
  3  4  2  0  0  0  0
  4  5  1  0  0  0  0
  4 12  1  0  0  0  0
  5  6  2  0  0  0  0
  6  7  1  0  0  0  0
  6 10  1  0  0  0  0
  7  8  1  0  0  0  0
  7 24  2  0  0  0  0
  8  9  1  0  0  0  0
  8 20  1  0  0  0  0
  9 10  1  0  0  0  0
 10 11  2  0  0  0  0
 11 12  1  0  0  0  0
 11 16  1  0  0  0  0
 12 13  2  0  0  0  0
 13 14  1  0  0  0  0
 13 18  1  0  0  0  0
 14 15  1  0  0  0  0
 15 16  1  0  0  0  0
 16 17  1  1  0  0  0
 18 19  1  0  0  0  0
 20 21  2  0  0  0  0
 20 22  1  0  0  0  0
 22 23  2  0  0  0  0
 22 31  1  0  0  0  0
 23 24  1  0  0  0  0
 23 25  1  0  0  0  0
 25 26  1  1  0  0  0
 25 27  1  6  0  0  0
 25 29  1  0  0  0  0
 27 28  1  0  0  0  0
 29 30  1  0  0  0  0
 29 32  2  0  0  0  0
 30 31  1  0  0  0  0
M  END
>  <Index>
1172

>  <ID>
HT2259

>  <class>
0

>  <apol>
63.974445

>  <ast_fraglike>
0

>  <ast_fraglike_ext>
0

>  <ast_violation>
2

>  <ast_violation_ext>
3

>  <a_acc>
5

>  <a_acid>
0

>  <a_aro>
10

>  <a_base>
0

>  <a_count>
54

>  <a_don>
2

>  <a_donacc>
7

>  <a_heavy>
32

>  <a_hyd>
23

>  <a_IC>
89.862442

>  <a_ICM>
1.6641192

>  <a_nB>
0

>  <a_nBr>
0

>  <a_nC>
24

>  <a_nCl>
0

>  <a_nF>
1

>  <a_nH>
22

>  <a_nI>
0

>  <a_nN>
3

>  <a_nO>
4

>  <a_nP>
0

>  <a_nS>
0

>  <balabanJ>
1.3414313

>  <BCUT_PEOE_0>
-2.6184816

>  <BCUT_PEOE_1>
-0.50751674

>  <BCUT_PEOE_2>
0.52892566

>  <BCUT_PEOE_3>
2.6562569

>  <BCUT_SLOGP_0>
-2.6507874

>  <BCUT_SLOGP_1>
-0.44197521

>  <BCUT_SLOGP_2>
0.6130693

>  <BCUT_SLOGP_3>
2.7090054

>  <BCUT_SMR_0>
-2.3465221

>  <BCUT_SMR_1>
-0.28490517

>  <BCUT_SMR_2>
0.74664736

>  <BCUT_SMR_3>
2.9168441

>  <bpol>
31.725554

>  <b_1rotN>
1

>  <b_1rotR>
0.027027028

>  <b_ar>
11

>  <b_count>
59

>  <b_double>
4

>  <b_heavy>
37

>  <b_max1len>
5

>  <b_rotN>
1

>  <b_rotR>
0.027027028

>  <b_single>
44

>  <b_triple>
0

>  <chi0>
22.524216

>  <chi0v>
17.789286

>  <chi0v_C>
14.267585

>  <chi0_C>
15.532651

>  <chi1>
15.257074

>  <chi1v>
10.830569

>  <chi1v_C>
7.9729443

>  <chi1_C>
9.6480141

>  <chiral>
2

>  <chiral_u>
0

>  <density>
0.79445297

>  <diameter>
12

>  <FCharge>
0

>  <GCUT_PEOE_0>
-0.82999712

>  <GCUT_PEOE_1>
-0.44721806

>  <GCUT_PEOE_2>
0.0029546195

>  <GCUT_PEOE_3>
2.9722672

>  <GCUT_SLOGP_0>
-1.3371825

>  <GCUT_SLOGP_1>
-0.33123153

>  <GCUT_SLOGP_2>
0.085201882

>  <GCUT_SLOGP_3>
3.0388629

>  <GCUT_SMR_0>
-0.52143753

>  <GCUT_SMR_1>
-0.20087515

>  <GCUT_SMR_2>
0.18664858

>  <GCUT_SMR_3>
3.2507863

>  <Kier1>
22.463112

>  <Kier2>
7.75

>  <Kier3>
3.0176899

>  <KierA1>
17.161119

>  <KierA2>
5.8659215

>  <KierA3>
2.2691081

>  <KierFlex>
3.1458056

>  <lip_acc>
7

>  <lip_don>
3

>  <lip_druglike>
1

>  <lip_violation>
0

>  <logP(o/w)>
2.4719999

>  <logS>
-4.9235501

>  <mr>
11.380735

>  <mutagenic>
0

>  <nmol>
1

>  <opr_brigid>
29

>  <opr_leadlike>
1

>  <opr_nring>
6

>  <opr_nrot>
1

>  <opr_violation>
1

>  <PC+>
0

>  <PC->
0

>  <PEOE_PC+>
2.5393929

>  <PEOE_PC->
-2.5393929

>  <PEOE_RPC+>
0.1177451

>  <PEOE_RPC->
0.14729252

>  <PEOE_VSA+0>
63.164753

>  <PEOE_VSA+1>
78.099976

>  <PEOE_VSA+2>
26.258871

>  <PEOE_VSA+3>
0

>  <PEOE_VSA+4>
10.324173

>  <PEOE_VSA+5>
27.65803

>  <PEOE_VSA+6>
0

>  <PEOE_VSA-0>
75.987045

>  <PEOE_VSA-1>
18.747677

>  <PEOE_VSA-2>
0

>  <PEOE_VSA-3>
0

>  <PEOE_VSA-4>
17.591211

>  <PEOE_VSA-5>
27.133842

>  <PEOE_VSA-6>
16.922417

>  <PEOE_VSA_FHYD>
0.72469473

>  <PEOE_VSA_FNEG>
0.4321287

>  <PEOE_VSA_FPNEG>
0.17034958

>  <PEOE_VSA_FPOL>
0.27530527

>  <PEOE_VSA_FPOS>
0.56787127

>  <PEOE_VSA_FPPOS>
0.10495569

>  <PEOE_VSA_HYD>
262.25833

>  <PEOE_VSA_NEG>
156.38219

>  <PEOE_VSA_PNEG>
61.647469

>  <PEOE_VSA_POL>
99.629669

>  <PEOE_VSA_POS>
205.5058

>  <PEOE_VSA_PPOS>
37.982204

>  <petitjean>
0.5

>  <petitjeanSC>
1

>  <Q_PC+>
0

>  <Q_PC->
0

>  <Q_RPC+>
0

>  <Q_RPC->
0

>  <Q_VSA_FHYD>
1

>  <Q_VSA_FNEG>
0

>  <Q_VSA_FPNEG>
0

>  <Q_VSA_FPOL>
0

>  <Q_VSA_FPOS>
1

>  <Q_VSA_FPPOS>
0

>  <Q_VSA_HYD>
361.888

>  <Q_VSA_NEG>
0

>  <Q_VSA_PNEG>
0

>  <Q_VSA_POL>
0

>  <Q_VSA_POS>
361.888

>  <Q_VSA_PPOS>
0

>  <radius>
6

>  <reactive>
1

>  <rings>
6

>  <RPC+>
0

>  <RPC->
0

>  <rsynth>
0.59375

>  <SlogP>
2.68139

>  <SlogP_VSA0>
58.282413

>  <SlogP_VSA1>
32.914093

>  <SlogP_VSA2>
67.845337

>  <SlogP_VSA3>
20.926258

>  <SlogP_VSA4>
15.499047

>  <SlogP_VSA5>
25.239555

>  <SlogP_VSA6>
0

>  <SlogP_VSA7>
42.760216

>  <SlogP_VSA8>
41.718781

>  <SlogP_VSA9>
100.05172

>  <SMR>
11.37562

>  <SMR_VSA0>
58.724319

>  <SMR_VSA1>
60.255184

>  <SMR_VSA2>
9.1210184

>  <SMR_VSA3>
25.852165

>  <SMR_VSA4>
40.371037

>  <SMR_VSA5>
110.33116

>  <SMR_VSA6>
33.930508

>  <SMR_VSA7>
66.652031

>  <TPSA>
105.75

>  <VAdjEq>
0.37432221

>  <VAdjMa>
6.2094536

>  <VDistEq>
3.3506784

>  <VDistMa>
9.741189

>  <vdw_area>
361.888

>  <vdw_vol>
548.11926

>  <vsa_acc>
32.816418

>  <vsa_acid>
0

>  <vsa_base>
0

>  <vsa_don>
0

>  <vsa_hyd>
243.40482

>  <vsa_other>
30.161787

>  <vsa_pol>
64.125832

>  <Weight>
435.45499

>  <weinerPath>
2510

>  <weinerPol>
73

>  <zagreb>
194

$$$$