O=C1NC(=O)C(=C1c1c2c(n(c1)C)cc([N+](=O)[O-])cc2)c1c2c(n(c1)C)cccc2
  MOE2013           2D

 30 34  0  0  0  0  0  0  0  0999 V2000
    0.0000    0.0000    0.0000 O   0  0  0  0  0  0  0  0  0  0  0  0
   -1.3990   -0.5410    0.0000 C   0  0  0  0  0  0  0  0  0  0  0  0
   -2.6590    0.2730    0.0000 N   0  0  0  0  0  0  0  0  0  0  0  0
   -3.8220   -0.6740    0.0000 C   0  0  0  0  0  0  0  0  0  0  0  0
   -5.2720   -0.2890    0.0000 O   0  0  0  0  0  0  0  0  0  0  0  0
   -3.2810   -2.0730    0.0000 C   0  0  0  0  0  0  0  0  0  0  0  0
   -1.7840   -1.9910    0.0000 C   0  0  0  0  0  0  0  0  0  0  0  0
   -0.8370   -3.1540    0.0000 C   0  0  0  0  0  0  0  0  0  0  0  0
    0.6610   -3.0720    0.0000 C   0  0  0  0  0  0  0  0  0  0  0  0
    1.2020   -4.4710    0.0000 C   0  0  0  0  0  0  0  0  0  0  0  0
    0.0390   -5.4180    0.0000 N   0  0  0  0  0  0  0  0  0  0  0  0
   -1.2210   -4.6040    0.0000 C   0  0  0  0  0  0  0  0  0  0  0  0
    0.1210   -6.9160    0.0000 C   0  0  0  0  0  0  0  0  0  0  0  0
    2.6840   -4.7020    0.0000 C   0  0  0  0  0  0  0  0  0  0  0  0
    3.6250   -3.5340    0.0000 C   0  0  0  0  0  0  0  0  0  0  0  0
    5.1070   -3.7650    0.0000 N   0  3  0  0  0  0  0  0  0  0  0  0
    6.0480   -2.5970    0.0000 O   0  0  0  0  0  0  0  0  0  0  0  0
    5.6480   -5.1640    0.0000 O   0  5  0  0  0  0  0  0  0  0  0  0
    3.0840   -2.1350    0.0000 C   0  0  0  0  0  0  0  0  0  0  0  0
    1.6020   -1.9040    0.0000 C   0  0  0  0  0  0  0  0  0  0  0  0
   -4.0950   -3.3330    0.0000 C   0  0  0  0  0  0  0  0  0  0  0  0
   -5.5930   -3.4150    0.0000 C   0  0  0  0  0  0  0  0  0  0  0  0
   -5.9780   -4.8650    0.0000 C   0  0  0  0  0  0  0  0  0  0  0  0
   -4.7180   -5.6790    0.0000 N   0  0  0  0  0  0  0  0  0  0  0  0
   -3.5540   -4.7320    0.0000 C   0  0  0  0  0  0  0  0  0  0  0  0
   -4.6350   -7.1770    0.0000 C   0  0  0  0  0  0  0  0  0  0  0  0
   -7.4260   -5.2570    0.0000 C   0  0  0  0  0  0  0  0  0  0  0  0
   -8.4890   -4.1990    0.0000 C   0  0  0  0  0  0  0  0  0  0  0  0
   -8.1040   -2.7490    0.0000 C   0  0  0  0  0  0  0  0  0  0  0  0
   -6.6560   -2.3570    0.0000 C   0  0  0  0  0  0  0  0  0  0  0  0
  1  2  2  0  0  0  0
  2  3  1  0  0  0  0
  2  7  1  0  0  0  0
  3  4  1  0  0  0  0
  4  5  2  0  0  0  0
  4  6  1  0  0  0  0
  6  7  2  0  0  0  0
  6 21  1  0  0  0  0
  7  8  1  0  0  0  0
  8  9  1  0  0  0  0
  8 12  2  0  0  0  0
  9 10  1  0  0  0  0
  9 20  2  0  0  0  0
 10 11  1  0  0  0  0
 10 14  2  0  0  0  0
 11 12  1  0  0  0  0
 11 13  1  0  0  0  0
 14 15  1  0  0  0  0
 15 16  1  0  0  0  0
 15 19  2  0  0  0  0
 16 17  2  0  0  0  0
 16 18  1  0  0  0  0
 19 20  1  0  0  0  0
 21 22  1  0  0  0  0
 21 25  2  0  0  0  0
 22 23  1  0  0  0  0
 22 30  2  0  0  0  0
 23 24  1  0  0  0  0
 23 27  2  0  0  0  0
 24 25  1  0  0  0  0
 24 26  1  0  0  0  0
 27 28  1  0  0  0  0
 28 29  2  0  0  0  0
 29 30  1  0  0  0  0
M  CHG  1  16   1
M  CHG  1  18  -1
M  END
>  <Index>
1372

>  <ID>
HT3756

>  <class>
0

>  <apol>
56.996689

>  <ast_fraglike>
0

>  <ast_fraglike_ext>
0

>  <ast_violation>
2

>  <ast_violation_ext>
2

>  <a_acc>
2

>  <a_acid>
0

>  <a_aro>
18

>  <a_base>
0

>  <a_count>
46

>  <a_don>
1

>  <a_donacc>
3

>  <a_heavy>
30

>  <a_hyd>
21

>  <a_IC>
75.976357

>  <a_ICM>
1.6516598

>  <a_nB>
0

>  <a_nBr>
0

>  <a_nC>
22

>  <a_nCl>
0

>  <a_nF>
0

>  <a_nH>
16

>  <a_nI>
0

>  <a_nN>
4

>  <a_nO>
4

>  <a_nP>
0

>  <a_nS>
0

>  <balabanJ>
1.3929111

>  <BCUT_PEOE_0>
-2.2605183

>  <BCUT_PEOE_1>
-0.54574203

>  <BCUT_PEOE_2>
0.58817881

>  <BCUT_PEOE_3>
2.4133363

>  <BCUT_SLOGP_0>
-2.3936534

>  <BCUT_SLOGP_1>
-0.50202769

>  <BCUT_SLOGP_2>
0.6880368

>  <BCUT_SLOGP_3>
2.4822266

>  <BCUT_SMR_0>
-1.9547399

>  <BCUT_SMR_1>
-0.4076609

>  <BCUT_SMR_2>
0.75726539

>  <BCUT_SMR_3>
2.7498279

>  <bpol>
25.283312

>  <b_1rotN>
3

>  <b_1rotR>
0.088235296

>  <b_ar>
20

>  <b_count>
50

>  <b_double>
4

>  <b_heavy>
34

>  <b_max1len>
2

>  <b_rotN>
3

>  <b_rotR>
0.088235296

>  <b_single>
26

>  <b_triple>
0

>  <chi0>
21.153971

>  <chi0v>
16.170786

>  <chi0v_C>
12.696153

>  <chi0_C>
14.714814

>  <chi1>
14.363081

>  <chi1v>
9.247776

>  <chi1v_C>
5.8927345

>  <chi1_C>
8.2659864

>  <chiral>
0

>  <chiral_u>
0

>  <density>
0.78958404

>  <diameter>
13

>  <FCharge>
0

>  <GCUT_PEOE_0>
-0.87243474

>  <GCUT_PEOE_1>
-0.4351846

>  <GCUT_PEOE_2>
0.042343926

>  <GCUT_PEOE_3>
2.7174451

>  <GCUT_SLOGP_0>
-1.1736366

>  <GCUT_SLOGP_1>
-0.30601338

>  <GCUT_SLOGP_2>
0.12496627

>  <GCUT_SLOGP_3>
2.8242157

>  <GCUT_SMR_0>
-0.49237615

>  <GCUT_SMR_1>
-0.20531568

>  <GCUT_SMR_2>
0.1767

>  <GCUT_SMR_3>
3.0346265

>  <Kier1>
21.82526

>  <Kier2>
8.4082842

>  <Kier3>
3.66482

>  <KierA1>
14.409698

>  <KierA2>
5.4645667

>  <KierA3>
2.3552527

>  <KierFlex>
2.6247585

>  <lip_acc>
8

>  <lip_don>
1

>  <lip_druglike>
1

>  <lip_violation>
0

>  <logP(o/w)>
4.586

>  <logS>
-5.5181098

>  <mr>
10.874573

>  <mutagenic>
1

>  <nmol>
1

>  <opr_brigid>
25

>  <opr_leadlike>
1

>  <opr_nring>
5

>  <opr_nrot>
3

>  <opr_violation>
1

>  <PC+>
0

>  <PC->
0

>  <PEOE_PC+>
2.2938325

>  <PEOE_PC->
-2.2938325

>  <PEOE_RPC+>
0.11906783

>  <PEOE_RPC->
0.15218093

>  <PEOE_VSA+0>
145.60504

>  <PEOE_VSA+1>
53.533138

>  <PEOE_VSA+2>
0

>  <PEOE_VSA+3>
8.6190128

>  <PEOE_VSA+4>
0

>  <PEOE_VSA+5>
32.598614

>  <PEOE_VSA+6>
0

>  <PEOE_VSA-0>
24.509808

>  <PEOE_VSA-1>
36.764713

>  <PEOE_VSA-2>
0

>  <PEOE_VSA-3>
0

>  <PEOE_VSA-4>
0

>  <PEOE_VSA-5>
61.201782

>  <PEOE_VSA-6>
0

>  <PEOE_VSA_FHYD>
0.74147713

>  <PEOE_VSA_FNEG>
0.33755639

>  <PEOE_VSA_FPNEG>
0.16867796

>  <PEOE_VSA_FPOL>
0.25852287

>  <PEOE_VSA_FPOS>
0.66244358

>  <PEOE_VSA_FPPOS>
0.089844897

>  <PEOE_VSA_HYD>
269.03171

>  <PEOE_VSA_NEG>
122.4763

>  <PEOE_VSA_PNEG>
61.201782

>  <PEOE_VSA_POL>
93.800392

>  <PEOE_VSA_POS>
240.3558

>  <PEOE_VSA_PPOS>
32.598614

>  <petitjean>
0.46153846

>  <petitjeanSC>
0.85714287

>  <Q_PC+>
0

>  <Q_PC->
0

>  <Q_RPC+>
0

>  <Q_RPC->
0

>  <Q_VSA_FHYD>
1

>  <Q_VSA_FNEG>
0

>  <Q_VSA_FPNEG>
0

>  <Q_VSA_FPOL>
0

>  <Q_VSA_FPOS>
1

>  <Q_VSA_FPPOS>
0

>  <Q_VSA_HYD>
362.83212

>  <Q_VSA_NEG>
0

>  <Q_VSA_PNEG>
0

>  <Q_VSA_POL>
0

>  <Q_VSA_POS>
362.83212

>  <Q_VSA_PPOS>
0

>  <radius>
7

>  <reactive>
1

>  <rings>
5

>  <RPC+>
0

>  <RPC->
0

>  <rsynth>
1

>  <SlogP>
3.8638

>  <SlogP_VSA0>
18.01075

>  <SlogP_VSA1>
21.401369

>  <SlogP_VSA2>
47.724434

>  <SlogP_VSA3>
50.935009

>  <SlogP_VSA4>
6.37115

>  <SlogP_VSA5>
0

>  <SlogP_VSA6>
0

>  <SlogP_VSA7>
173.73636

>  <SlogP_VSA8>
0

>  <SlogP_VSA9>
68.551125

>  <SMR>
11.30181

>  <SMR_VSA0>
54.810047

>  <SMR_VSA1>
3.7981856

>  <SMR_VSA2>
68.945755

>  <SMR_VSA3>
6.37115

>  <SMR_VSA4>
18.562099

>  <SMR_VSA5>
157.931

>  <SMR_VSA6>
10.517568

>  <SMR_VSA7>
65.794373

>  <TPSA>
101.85

>  <VAdjEq>
0.38632196

>  <VAdjMa>
6.0874629

>  <VDistEq>
3.4114993

>  <VDistMa>
9.5479574

>  <vdw_area>
362.83212

>  <vdw_vol>
507.09485

>  <vsa_acc>
27.133842

>  <vsa_acid>
0

>  <vsa_base>
0

>  <vsa_don>
5.6825762

>  <vsa_hyd>
256.43533

>  <vsa_other>
59.830109

>  <vsa_pol>
32.816418

>  <Weight>
400.39398

>  <weinerPath>
2249

>  <weinerPol>
55

>  <zagreb>
172

$$$$