O(CCN(C)C)c1ccccc1Cc1ccccc1
  MOE2013           2D

 19 20  0  0  0  0  0  0  0  0999 V2000
    0.0000    0.0000    0.0000 O   0  0  0  0  0  0  0  0  0  0  0  0
    1.5000   -0.0020    0.0000 C   0  0  0  0  0  0  0  0  0  0  0  0
    2.2520    1.2960    0.0000 C   0  0  0  0  0  0  0  0  0  0  0  0
    3.7520    1.2940    0.0000 N   0  0  0  0  0  0  0  0  0  0  0  0
    4.5040    2.5920    0.0000 C   0  0  0  0  0  0  0  0  0  0  0  0
    4.5000   -0.0060    0.0000 C   0  0  0  0  0  0  0  0  0  0  0  0
   -0.7520   -1.2980    0.0000 C   0  0  0  0  0  0  0  0  0  0  0  0
   -0.0040   -2.5980    0.0000 C   0  0  0  0  0  0  0  0  0  0  0  0
   -0.7560   -3.8960    0.0000 C   0  0  0  0  0  0  0  0  0  0  0  0
   -2.2560   -3.8940    0.0000 C   0  0  0  0  0  0  0  0  0  0  0  0
   -3.0040   -2.5940    0.0000 C   0  0  0  0  0  0  0  0  0  0  0  0
   -2.2520   -1.2960    0.0000 C   0  0  0  0  0  0  0  0  0  0  0  0
   -3.0000    0.0040    0.0000 C   0  0  0  0  0  0  0  0  0  0  0  0
   -4.5000    0.0060    0.0000 C   0  0  0  0  0  0  0  0  0  0  0  0
   -5.2520   -1.2920    0.0000 C   0  0  0  0  0  0  0  0  0  0  0  0
   -6.7520   -1.2890    0.0000 C   0  0  0  0  0  0  0  0  0  0  0  0
   -7.5000    0.0110    0.0000 C   0  0  0  0  0  0  0  0  0  0  0  0
   -6.7480    1.3090    0.0000 C   0  0  0  0  0  0  0  0  0  0  0  0
   -5.2480    1.3060    0.0000 C   0  0  0  0  0  0  0  0  0  0  0  0
  1  2  1  0  0  0  0
  1  7  1  0  0  0  0
  2  3  1  0  0  0  0
  3  4  1  0  0  0  0
  4  5  1  0  0  0  0
  4  6  1  0  0  0  0
  7  8  1  0  0  0  0
  7 12  2  0  0  0  0
  8  9  2  0  0  0  0
  9 10  1  0  0  0  0
 10 11  2  0  0  0  0
 11 12  1  0  0  0  0
 12 13  1  0  0  0  0
 13 14  1  0  0  0  0
 14 15  1  0  0  0  0
 14 19  2  0  0  0  0
 15 16  2  0  0  0  0
 16 17  1  0  0  0  0
 17 18  2  0  0  0  0
 18 19  1  0  0  0  0
M  END
>  <Index>
1288

>  <ID>
HT3120

>  <class>
0

>  <apol>
45.824654

>  <ast_fraglike>
0

>  <ast_fraglike_ext>
0

>  <ast_violation>
1

>  <ast_violation_ext>
2

>  <a_acc>
2

>  <a_acid>
0

>  <a_aro>
12

>  <a_base>
0

>  <a_count>
40

>  <a_don>
0

>  <a_donacc>
2

>  <a_heavy>
19

>  <a_hyd>
17

>  <a_IC>
51.151588

>  <a_ICM>
1.2787898

>  <a_nB>
0

>  <a_nBr>
0

>  <a_nC>
17

>  <a_nCl>
0

>  <a_nF>
0

>  <a_nH>
21

>  <a_nI>
0

>  <a_nN>
1

>  <a_nO>
1

>  <a_nP>
0

>  <a_nS>
0

>  <balabanJ>
1.7487907

>  <BCUT_PEOE_0>
-2.5961111

>  <BCUT_PEOE_1>
-0.52324945

>  <BCUT_PEOE_2>
0.58465022

>  <BCUT_PEOE_3>
2.4997466

>  <BCUT_SLOGP_0>
-2.7042806

>  <BCUT_SLOGP_1>
-0.42401356

>  <BCUT_SLOGP_2>
0.68400502

>  <BCUT_SLOGP_3>
2.4806545

>  <BCUT_SMR_0>
-2.3201289

>  <BCUT_SMR_1>
-0.39261836

>  <BCUT_SMR_2>
0.72364277

>  <BCUT_SMR_3>
2.7625203

>  <bpol>
26.853348

>  <b_1rotN>
6

>  <b_1rotR>
0.30000001

>  <b_ar>
12

>  <b_count>
41

>  <b_double>
0

>  <b_heavy>
20

>  <b_max1len>
5

>  <b_rotN>
6

>  <b_rotR>
0.30000001

>  <b_single>
29

>  <b_triple>
0

>  <chi0>
13.501789

>  <chi0v>
11.672935

>  <chi0v_C>
10.817472

>  <chi0_C>
12.217332

>  <chi1>
9.2540197

>  <chi1v>
6.6485949

>  <chi1v_C>
4.9451408

>  <chi1_C>
6.7828231

>  <chiral>
0

>  <chiral_u>
0

>  <density>
0.64721429

>  <diameter>
11

>  <FCharge>
0

>  <GCUT_PEOE_0>
-0.85877025

>  <GCUT_PEOE_1>
-0.34277907

>  <GCUT_PEOE_2>
0.058797304

>  <GCUT_PEOE_3>
2.4781113

>  <GCUT_SLOGP_0>
-0.96183532

>  <GCUT_SLOGP_1>
-0.26386139

>  <GCUT_SLOGP_2>
0.13837461

>  <GCUT_SLOGP_3>
2.5870464

>  <GCUT_SMR_0>
-0.5170514

>  <GCUT_SMR_1>
-0.1835604

>  <GCUT_SMR_2>
0.15783836

>  <GCUT_SMR_3>
2.7559099

>  <Kier1>
15.39

>  <Kier2>
8.3232002

>  <Kier3>
5.4791913

>  <KierA1>
11.783929

>  <KierA2>
6.2707052

>  <KierA3>
4.0760565

>  <KierFlex>
3.8891339

>  <lip_acc>
2

>  <lip_don>
0

>  <lip_druglike>
1

>  <lip_violation>
0

>  <logP(o/w)>
3.7850001

>  <logS>
-3.13608

>  <mr>
8.0596733

>  <mutagenic>
0

>  <nmol>
1

>  <opr_brigid>
12

>  <opr_leadlike>
1

>  <opr_nring>
2

>  <opr_nrot>
6

>  <opr_violation>
0

>  <PC+>
0

>  <PC->
0

>  <PEOE_PC+>
1.2404231

>  <PEOE_PC->
-1.2404231

>  <PEOE_RPC+>
0.064253792

>  <PEOE_RPC->
0.27664098

>  <PEOE_VSA+0>
64.547501

>  <PEOE_VSA+1>
70.329056

>  <PEOE_VSA+2>
0

>  <PEOE_VSA+3>
0

>  <PEOE_VSA+4>
0

>  <PEOE_VSA+5>
0

>  <PEOE_VSA+6>
0

>  <PEOE_VSA-0>
63.149361

>  <PEOE_VSA-1>
98.03923

>  <PEOE_VSA-2>
0

>  <PEOE_VSA-3>
0

>  <PEOE_VSA-4>
0

>  <PEOE_VSA-5>
0

>  <PEOE_VSA-6>
2.503756

>  <PEOE_VSA_FHYD>
0.99161416

>  <PEOE_VSA_FNEG>
0.54825652

>  <PEOE_VSA_FPNEG>
0.0083858566

>  <PEOE_VSA_FPOL>
0.0083858566

>  <PEOE_VSA_FPOS>
0.45174348

>  <PEOE_VSA_FPPOS>
0

>  <PEOE_VSA_HYD>
296.06516

>  <PEOE_VSA_NEG>
163.69235

>  <PEOE_VSA_PNEG>
2.503756

>  <PEOE_VSA_POL>
2.503756

>  <PEOE_VSA_POS>
134.87656

>  <PEOE_VSA_PPOS>
0

>  <petitjean>
0.45454547

>  <petitjeanSC>
0.83333331

>  <Q_PC+>
0

>  <Q_PC->
0

>  <Q_RPC+>
0

>  <Q_RPC->
0

>  <Q_VSA_FHYD>
1

>  <Q_VSA_FNEG>
0

>  <Q_VSA_FPNEG>
0

>  <Q_VSA_FPOL>
0

>  <Q_VSA_FPOS>
1

>  <Q_VSA_FPPOS>
0

>  <Q_VSA_HYD>
298.56891

>  <Q_VSA_NEG>
0

>  <Q_VSA_PNEG>
0

>  <Q_VSA_POL>
0

>  <Q_VSA_POS>
298.56891

>  <Q_VSA_PPOS>
0

>  <radius>
6

>  <reactive>
0

>  <rings>
2

>  <RPC+>
0

>  <RPC->
0

>  <rsynth>
1

>  <SlogP>
3.2177701

>  <SlogP_VSA0>
10.999887

>  <SlogP_VSA1>
3.1243138

>  <SlogP_VSA2>
0

>  <SlogP_VSA3>
39.365837

>  <SlogP_VSA4>
6.37115

>  <SlogP_VSA5>
84.662781

>  <SlogP_VSA6>
0

>  <SlogP_VSA7>
158.78867

>  <SlogP_VSA8>
0

>  <SlogP_VSA9>
5.2434282

>  <SMR>
7.9738998

>  <SMR_VSA0>
0

>  <SMR_VSA1>
14.124202

>  <SMR_VSA2>
0

>  <SMR_VSA3>
11.614578

>  <SMR_VSA4>
0

>  <SMR_VSA5>
177.65706

>  <SMR_VSA6>
39.365837

>  <SMR_VSA7>
65.794373

>  <TPSA>
12.47

>  <VAdjEq>
0.5023343

>  <VAdjMa>
5.321928

>  <VDistEq>
3.2455714

>  <VDistMa>
8.1850481

>  <vdw_area>
298.56891

>  <vdw_vol>
394.55399

>  <vsa_acc>
2.503756

>  <vsa_acid>
0

>  <vsa_base>
0

>  <vsa_don>
0

>  <vsa_hyd>
281.11746

>  <vsa_other>
0

>  <vsa_pol>
2.503756

>  <Weight>
255.36099

>  <weinerPath>
784

>  <weinerPol>
23

>  <zagreb>
90

$$$$