ClC(Cl)(Cl)C(P(OC)(OC)=O)O
  MOE2013           2D

 12 11  0  0  1  0  0  0  0  0999 V2000
    0.0000    0.0000    0.0000 Cl  0  0  0  0  0  0  0  0  0  0  0  0
   -0.7490   -1.3000    0.0000 C   0  0  0  0  0  0  0  0  0  0  0  0
   -1.4980   -2.5990    0.0000 Cl  0  0  0  0  0  0  0  0  0  0  0  0
    0.5510   -2.0490    0.0000 Cl  0  0  0  0  0  0  0  0  0  0  0  0
   -2.0490   -0.5510    0.0000 C   0  0  3  0  0  0  0  0  0  0  0  0
   -3.3470   -1.3020    0.0000 P   0  0  0  0  0  0  0  0  0  0  0  0
   -4.6450   -2.0530    0.0000 O   0  0  0  0  0  0  0  0  0  0  0  0
   -4.6440   -3.5530    0.0000 C   0  0  0  0  0  0  0  0  0  0  0  0
   -4.0980   -0.0030    0.0000 O   0  0  0  0  0  0  0  0  0  0  0  0
   -5.5980   -0.0050    0.0000 C   0  0  0  0  0  0  0  0  0  0  0  0
   -2.5960   -2.6000    0.0000 O   0  0  0  0  0  0  0  0  0  0  0  0
   -2.0500    0.9490    0.0000 O   0  0  0  0  0  0  0  0  0  0  0  0
  1  2  1  0  0  0  0
  2  3  1  0  0  0  0
  2  4  1  0  0  0  0
  2  5  1  0  0  0  0
  5  6  1  0  0  0  0
  5 12  1  0  0  0  0
  6  7  1  0  0  0  0
  6  9  1  0  0  0  0
  6 11  2  0  0  0  0
  7  8  1  0  0  0  0
  9 10  1  0  0  0  0
M  END
>  <Index>
1105

>  <ID>
HT2111

>  <class>
0

>  <apol>
25.752344

>  <ast_fraglike>
0

>  <ast_fraglike_ext>
0

>  <ast_violation>
1

>  <ast_violation_ext>
1

>  <a_acc>
4

>  <a_acid>
0

>  <a_aro>
0

>  <a_base>
0

>  <a_count>
20

>  <a_don>
1

>  <a_donacc>
5

>  <a_heavy>
12

>  <a_hyd>
6

>  <a_IC>
41.683674

>  <a_ICM>
2.0841837

>  <a_nB>
0

>  <a_nBr>
0

>  <a_nC>
4

>  <a_nCl>
3

>  <a_nF>
0

>  <a_nH>
8

>  <a_nI>
0

>  <a_nN>
0

>  <a_nO>
4

>  <a_nP>
1

>  <a_nS>
0

>  <balabanJ>
4.5273967

>  <BCUT_PEOE_0>
-2.4769366

>  <BCUT_PEOE_1>
-0.23090874

>  <BCUT_PEOE_2>
0.037637472

>  <BCUT_PEOE_3>
2.6658676

>  <BCUT_SLOGP_0>
-2.5389094

>  <BCUT_SLOGP_1>
-0.29405445

>  <BCUT_SLOGP_2>
0.62270898

>  <BCUT_SLOGP_3>
2.7104309

>  <BCUT_SMR_0>
-2.2331576

>  <BCUT_SMR_1>
0.064532988

>  <BCUT_SMR_2>
0.58530003

>  <BCUT_SMR_3>
2.8914809

>  <bpol>
22.275656

>  <b_1rotN>
3

>  <b_1rotR>
0.27272728

>  <b_ar>
0

>  <b_count>
19

>  <b_double>
0

>  <b_heavy>
11

>  <b_max1len>
6

>  <b_rotN>
4

>  <b_rotR>
0.36363637

>  <b_single>
19

>  <b_triple>
0

>  <chi0>
9.9915638

>  <chi0v>
9.49263

>  <chi0v_C>
3.0773504

>  <chi0_C>
3.0773504

>  <chi1>
5.276021

>  <chi1v>
5.4819751

>  <chi1v_C>
0.28867513

>  <chi1_C>
0.28867513

>  <chiral>
1

>  <chiral_u>
1

>  <density>
1.1425276

>  <diameter>
5

>  <FCharge>
0

>  <GCUT_PEOE_0>
-0.76373583

>  <GCUT_PEOE_1>
-0.35844168

>  <GCUT_PEOE_2>
-0.12236252

>  <GCUT_PEOE_3>
2.1689961

>  <GCUT_SLOGP_0>
-1.2935424

>  <GCUT_SLOGP_1>
-0.29246062

>  <GCUT_SLOGP_2>
0.25023156

>  <GCUT_SLOGP_3>
2.2567303

>  <GCUT_SMR_0>
-0.48716274

>  <GCUT_SMR_1>
-0.13735868

>  <GCUT_SMR_2>
0.34580424

>  <GCUT_SMR_3>
2.4182

>  <Kier1>
12

>  <Kier2>
3.8062284

>  <Kier3>
2.7777777

>  <KierA1>
19.167614

>  <KierA2>
6.3392806

>  <KierA3>
4.7786164

>  <KierFlex>
10.12574

>  <lip_acc>
4

>  <lip_don>
1

>  <lip_druglike>
1

>  <lip_violation>
0

>  <logP(o/w)>
0.46507999

>  <logS>
-1.69733

>  <mr>
4.9680991

>  <mutagenic>
1

>  <nmol>
1

>  <opr_brigid>
0

>  <opr_leadlike>
1

>  <opr_nring>
0

>  <opr_nrot>
3

>  <opr_violation>
0

>  <PC+>
0

>  <PC->
0

>  <PEOE_PC+>
1.4404117

>  <PEOE_PC->
-1.4404117

>  <PEOE_RPC+>
0.22311313

>  <PEOE_RPC->
0.23903809

>  <PEOE_VSA+0>
75.587631

>  <PEOE_VSA+1>
0

>  <PEOE_VSA+2>
4.2653861

>  <PEOE_VSA+3>
0

>  <PEOE_VSA+4>
16.749615

>  <PEOE_VSA+5>
0

>  <PEOE_VSA+6>
13.666999

>  <PEOE_VSA-0>
0

>  <PEOE_VSA-1>
88.745842

>  <PEOE_VSA-2>
0

>  <PEOE_VSA-3>
0

>  <PEOE_VSA-4>
15.729136

>  <PEOE_VSA-5>
0

>  <PEOE_VSA-6>
17.099483

>  <PEOE_VSA_FHYD>
0.7272079

>  <PEOE_VSA_FNEG>
0.52438027

>  <PEOE_VSA_FPNEG>
0.14159784

>  <PEOE_VSA_FPOL>
0.2727921

>  <PEOE_VSA_FPOS>
0.47561976

>  <PEOE_VSA_FPPOS>
0.13119425

>  <PEOE_VSA_HYD>
168.59886

>  <PEOE_VSA_NEG>
121.57446

>  <PEOE_VSA_PNEG>
32.828621

>  <PEOE_VSA_POL>
63.245232

>  <PEOE_VSA_POS>
110.26963

>  <PEOE_VSA_PPOS>
30.416613

>  <petitjean>
0.40000001

>  <petitjeanSC>
0.66666669

>  <Q_PC+>
0

>  <Q_PC->
0

>  <Q_RPC+>
0

>  <Q_RPC->
0

>  <Q_VSA_FHYD>
1

>  <Q_VSA_FNEG>
0

>  <Q_VSA_FPNEG>
0

>  <Q_VSA_FPOL>
0

>  <Q_VSA_FPOS>
1

>  <Q_VSA_FPPOS>
0

>  <Q_VSA_HYD>
231.84409

>  <Q_VSA_NEG>
0

>  <Q_VSA_PNEG>
0

>  <Q_VSA_POL>
0

>  <Q_VSA_POS>
231.84409

>  <Q_VSA_PPOS>
0

>  <radius>
3

>  <reactive>
1

>  <rings>
0

>  <RPC+>
0

>  <RPC->
0

>  <rsynth>
1

>  <SlogP>
1.0907

>  <SlogP_VSA0>
47.818993

>  <SlogP_VSA1>
0

>  <SlogP_VSA2>
17.482744

>  <SlogP_VSA3>
0

>  <SlogP_VSA4>
0

>  <SlogP_VSA5>
70.767738

>  <SlogP_VSA6>
0

>  <SlogP_VSA7>
0

>  <SlogP_VSA8>
0

>  <SlogP_VSA9>
132.24541

>  <SMR>
4.7234802

>  <SMR_VSA0>
36.277027

>  <SMR_VSA1>
25.385227

>  <SMR_VSA2>
0

>  <SMR_VSA3>
3.6394844

>  <SMR_VSA4>
0

>  <SMR_VSA5>
0

>  <SMR_VSA6>
0

>  <SMR_VSA7>
203.01314

>  <TPSA>
55.759998

>  <VAdjEq>
0.61674827

>  <VAdjMa>
4.4594316

>  <VDistEq>
2.2351213

>  <VDistMa>
6.9030256

>  <vdw_area>
231.84409

>  <vdw_vol>
225.32234

>  <vsa_acc>
25.061081

>  <vsa_acid>
0

>  <vsa_base>
0

>  <vsa_don>
0

>  <vsa_hyd>
170.04173

>  <vsa_other>
13.666999

>  <vsa_pol>
38.628002

>  <Weight>
257.43698

>  <weinerPath>
185

>  <weinerPol>
18

>  <zagreb>
56

$$$$