O1C(C(O)=O)C(O)C(O)C(O)C1OC(C#N)c1ccccc1
  MOE2013           2D

 22 23  0  0  1  0  0  0  0  0999 V2000
    0.0000    0.0000    0.0000 O   0  0  0  0  0  0  0  0  0  0  0  0
   -1.5000   -0.0020    0.0000 C   0  0  3  0  0  0  0  0  0  0  0  0
   -2.2480   -1.3020    0.0000 C   0  0  0  0  0  0  0  0  0  0  0  0
   -1.4970   -2.6000    0.0000 O   0  0  0  0  0  0  0  0  0  0  0  0
   -3.7480   -1.3040    0.0000 O   0  0  0  0  0  0  0  0  0  0  0  0
   -2.2520    1.2960    0.0000 C   0  0  3  0  0  0  0  0  0  0  0  0
   -3.7520    1.2940    0.0000 O   0  0  0  0  0  0  0  0  0  0  0  0
   -1.5030    2.5960    0.0000 C   0  0  3  0  0  0  0  0  0  0  0  0
   -2.2550    3.8940    0.0000 O   0  0  0  0  0  0  0  0  0  0  0  0
   -0.0030    2.5980    0.0000 C   0  0  3  0  0  0  0  0  0  0  0  0
    0.7450    3.8980    0.0000 O   0  0  0  0  0  0  0  0  0  0  0  0
    0.7480    1.3000    0.0000 C   0  0  3  0  0  0  0  0  0  0  0  0
    2.2480    1.3020    0.0000 O   0  0  0  0  0  0  0  0  0  0  0  0
    3.0000    0.0040    0.0000 C   0  0  3  0  0  0  0  0  0  0  0  0
    2.2520   -1.2960    0.0000 C   0  0  0  0  0  0  0  0  0  0  0  0
    1.5030   -2.5960    0.0000 N   0  0  0  0  0  0  0  0  0  0  0  0
    4.5000    0.0060    0.0000 C   0  0  0  0  0  0  0  0  0  0  0  0
    5.2480    1.3060    0.0000 C   0  0  0  0  0  0  0  0  0  0  0  0
    6.7480    1.3070    0.0000 C   0  0  0  0  0  0  0  0  0  0  0  0
    7.5000    0.0090    0.0000 C   0  0  0  0  0  0  0  0  0  0  0  0
    6.7520   -1.2910    0.0000 C   0  0  0  0  0  0  0  0  0  0  0  0
    5.2520   -1.2930    0.0000 C   0  0  0  0  0  0  0  0  0  0  0  0
  1  2  1  0  0  0  0
  1 12  1  0  0  0  0
  2  3  1  0  0  0  0
  2  6  1  0  0  0  0
  3  4  1  0  0  0  0
  3  5  2  0  0  0  0
  6  7  1  0  0  0  0
  6  8  1  0  0  0  0
  8  9  1  0  0  0  0
  8 10  1  0  0  0  0
 10 11  1  0  0  0  0
 10 12  1  0  0  0  0
 12 13  1  0  0  0  0
 13 14  1  0  0  0  0
 14 15  1  0  0  0  0
 14 17  1  0  0  0  0
 15 16  3  0  0  0  0
 17 18  1  0  0  0  0
 17 22  2  0  0  0  0
 18 19  2  0  0  0  0
 19 20  1  0  0  0  0
 20 21  2  0  0  0  0
 21 22  1  0  0  0  0
M  END
>  <Index>
1326

>  <ID>
HT3403

>  <class>
0

>  <apol>
41.355896

>  <ast_fraglike>
0

>  <ast_fraglike_ext>
0

>  <ast_violation>
3

>  <ast_violation_ext>
5

>  <a_acc>
8

>  <a_acid>
0

>  <a_aro>
6

>  <a_base>
0

>  <a_count>
37

>  <a_don>
5

>  <a_donacc>
13

>  <a_heavy>
22

>  <a_hyd>
11

>  <a_IC>
61.191963

>  <a_ICM>
1.6538368

>  <a_nB>
0

>  <a_nBr>
0

>  <a_nC>
14

>  <a_nCl>
0

>  <a_nF>
0

>  <a_nH>
15

>  <a_nI>
0

>  <a_nN>
1

>  <a_nO>
7

>  <a_nP>
0

>  <a_nS>
0

>  <balabanJ>
2.0200064

>  <BCUT_PEOE_0>
-2.6783414

>  <BCUT_PEOE_1>
-0.57427788

>  <BCUT_PEOE_2>
0.65007508

>  <BCUT_PEOE_3>
2.780663

>  <BCUT_SLOGP_0>
-2.8895283

>  <BCUT_SLOGP_1>
-0.53807992

>  <BCUT_SLOGP_2>
0.56299162

>  <BCUT_SLOGP_3>
2.5708525

>  <BCUT_SMR_0>
-2.4895649

>  <BCUT_SMR_1>
-0.42779627

>  <BCUT_SMR_2>
0.75008142

>  <BCUT_SMR_3>
2.9511859

>  <bpol>
21.848104

>  <b_1rotN>
4

>  <b_1rotR>
0.17391305

>  <b_ar>
6

>  <b_count>
38

>  <b_double>
1

>  <b_heavy>
23

>  <b_max1len>
4

>  <b_rotN>
5

>  <b_rotR>
0.2173913

>  <b_single>
30

>  <b_triple>
1

>  <chi0>
16.275656

>  <chi0v>
11.311666

>  <chi0v_C>
7.850853

>  <chi0_C>
8.8614426

>  <chi1>
10.451596

>  <chi1v>
6.478786

>  <chi1v_C>
4.1100426

>  <chi1_C>
5.2247448

>  <chiral>
6

>  <chiral_u>
6

>  <density>
0.8404215

>  <diameter>
10

>  <FCharge>
0

>  <GCUT_PEOE_0>
-0.7812162

>  <GCUT_PEOE_1>
-0.46371618

>  <GCUT_PEOE_2>
0.10700116

>  <GCUT_PEOE_3>
2.6132605

>  <GCUT_SLOGP_0>
-0.95384336

>  <GCUT_SLOGP_1>
-0.47101232

>  <GCUT_SLOGP_2>
0.13667108

>  <GCUT_SLOGP_3>
2.5407252

>  <GCUT_SMR_0>
-0.52238405

>  <GCUT_SMR_1>
-0.22738947

>  <GCUT_SMR_2>
0.21823867

>  <GCUT_SMR_3>
2.8132906

>  <Kier1>
18.340265

>  <Kier2>
8.203125

>  <Kier3>
4.3083901

>  <KierA1>
14.602181

>  <KierA2>
6.4553256

>  <KierA3>
3.3617835

>  <KierFlex>
4.2846289

>  <lip_acc>
8

>  <lip_don>
4

>  <lip_druglike>
1

>  <lip_violation>
0

>  <logP(o/w)>
-0.72399998

>  <logS>
-1.43888

>  <mr>
7.3817339

>  <mutagenic>
0

>  <nmol>
1

>  <opr_brigid>
12

>  <opr_leadlike>
1

>  <opr_nring>
2

>  <opr_nrot>
7

>  <opr_violation>
0

>  <PC+>
0

>  <PC->
0

>  <PEOE_PC+>
2.899904

>  <PEOE_PC->
-2.899904

>  <PEOE_RPC+>
0.10050908

>  <PEOE_RPC->
0.13324156

>  <PEOE_VSA+0>
0

>  <PEOE_VSA+1>
67.21875

>  <PEOE_VSA+2>
14.714787

>  <PEOE_VSA+3>
20.964766

>  <PEOE_VSA+4>
41.296692

>  <PEOE_VSA+5>
14.708499

>  <PEOE_VSA+6>
0

>  <PEOE_VSA-0>
2.2085397

>  <PEOE_VSA-1>
61.274521

>  <PEOE_VSA-2>
0

>  <PEOE_VSA-3>
17.742489

>  <PEOE_VSA-4>
0

>  <PEOE_VSA-5>
13.566921

>  <PEOE_VSA-6>
36.077675

>  <PEOE_VSA_FHYD>
0.63540584

>  <PEOE_VSA_FNEG>
0.45162886

>  <PEOE_VSA_FPNEG>
0.17132199

>  <PEOE_VSA_FPOL>
0.36459419

>  <PEOE_VSA_FPOS>
0.54837114

>  <PEOE_VSA_FPPOS>
0.1932722

>  <PEOE_VSA_HYD>
184.12386

>  <PEOE_VSA_NEG>
130.87015

>  <PEOE_VSA_PNEG>
49.644592

>  <PEOE_VSA_POL>
105.64978

>  <PEOE_VSA_POS>
158.90349

>  <PEOE_VSA_PPOS>
56.005188

>  <petitjean>
0.5

>  <petitjeanSC>
1

>  <Q_PC+>
0

>  <Q_PC->
0

>  <Q_RPC+>
0

>  <Q_RPC->
0

>  <Q_VSA_FHYD>
1

>  <Q_VSA_FNEG>
0

>  <Q_VSA_FPNEG>
0

>  <Q_VSA_FPOL>
0

>  <Q_VSA_FPOS>
1

>  <Q_VSA_FPPOS>
0

>  <Q_VSA_HYD>
289.77365

>  <Q_VSA_NEG>
0

>  <Q_VSA_PNEG>
0

>  <Q_VSA_POL>
0

>  <Q_VSA_POS>
289.77365

>  <Q_VSA_PPOS>
0

>  <radius>
5

>  <reactive>
1

>  <rings>
2

>  <RPC+>
0

>  <RPC->
0

>  <rsynth>
1

>  <SlogP>
-0.744416

>  <SlogP_VSA0>
76.155678

>  <SlogP_VSA1>
7.7454643

>  <SlogP_VSA2>
80.263092

>  <SlogP_VSA3>
73.046326

>  <SlogP_VSA4>
3.185575

>  <SlogP_VSA5>
0

>  <SlogP_VSA6>
0

>  <SlogP_VSA7>
88.215919

>  <SlogP_VSA8>
6.4686494

>  <SlogP_VSA9>
0

>  <SMR>
7.03092

>  <SMR_VSA0>
45.861992

>  <SMR_VSA1>
107.21503

>  <SMR_VSA2>
25.385227

>  <SMR_VSA3>
60.65707

>  <SMR_VSA4>
0

>  <SMR_VSA5>
88.215919

>  <SMR_VSA6>
7.7454643

>  <SMR_VSA7>
0

>  <TPSA>
140.24001

>  <VAdjEq>
0.4530769

>  <VAdjMa>
5.523562

>  <VDistEq>
3.1520221

>  <VDistMa>
8.6459103

>  <vdw_area>
289.77365

>  <vdw_vol>
367.99866

>  <vsa_acc>
22.750002

>  <vsa_acid>
0

>  <vsa_base>
0

>  <vsa_don>
0

>  <vsa_hyd>
123.54361

>  <vsa_other>
49.716503

>  <vsa_pol>
90.584602

>  <Weight>
309.27399

>  <weinerPath>
1040

>  <weinerPol>
36

>  <zagreb>
110

$$$$