OC1(CCC(CC1)C(O)(C)C)C
  MOE2013           2D

 12 12  0  0  0  0  0  0  0  0999 V2000
    0.0000    0.0000    0.0000 O   0  0  0  0  0  0  0  0  0  0  0  0
    1.0610    1.0610    0.0000 C   0  0  0  0  0  0  0  0  0  0  0  0
    2.1210    0.0000    0.0000 C   0  0  0  0  0  0  0  0  0  0  0  0
    3.5700    0.3880    0.0000 C   0  0  0  0  0  0  0  0  0  0  0  0
    3.9580    1.8370    0.0000 C   0  0  0  0  0  0  0  0  0  0  0  0
    2.8980    2.8980    0.0000 C   0  0  0  0  0  0  0  0  0  0  0  0
    1.4490    2.5100    0.0000 C   0  0  0  0  0  0  0  0  0  0  0  0
    5.4070    2.2250    0.0000 C   0  0  0  0  0  0  0  0  0  0  0  0
    5.7960    0.7760    0.0000 O   0  0  0  0  0  0  0  0  0  0  0  0
    5.0190    3.6740    0.0000 C   0  0  0  0  0  0  0  0  0  0  0  0
    6.8560    2.6140    0.0000 C   0  0  0  0  0  0  0  0  0  0  0  0
   -0.3880    1.4490    0.0000 C   0  0  0  0  0  0  0  0  0  0  0  0
  1  2  1  0  0  0  0
  2  3  1  0  0  0  0
  2  7  1  0  0  0  0
  2 12  1  0  0  0  0
  3  4  1  0  0  0  0
  4  5  1  0  0  0  0
  5  6  1  0  0  0  0
  5  8  1  0  0  0  0
  6  7  1  0  0  0  0
  8  9  1  0  0  0  0
  8 10  1  0  0  0  0
  8 11  1  0  0  0  0
M  END
>  <Index>
1238

>  <ID>
HT2735

>  <class>
0

>  <apol>
32.53986

>  <ast_fraglike>
1

>  <ast_fraglike_ext>
1

>  <ast_violation>
0

>  <ast_violation_ext>
0

>  <a_acc>
2

>  <a_acid>
0

>  <a_aro>
0

>  <a_base>
0

>  <a_count>
32

>  <a_don>
2

>  <a_donacc>
4

>  <a_heavy>
12

>  <a_hyd>
10

>  <a_IC>
38.342155

>  <a_ICM>
1.1981924

>  <a_nB>
0

>  <a_nBr>
0

>  <a_nC>
10

>  <a_nCl>
0

>  <a_nF>
0

>  <a_nH>
20

>  <a_nI>
0

>  <a_nN>
0

>  <a_nO>
2

>  <a_nP>
0

>  <a_nS>
0

>  <balabanJ>
2.468864

>  <BCUT_PEOE_0>
-2.8463523

>  <BCUT_PEOE_1>
0.025720779

>  <BCUT_PEOE_2>
0.089648299

>  <BCUT_PEOE_3>
2.8185356

>  <BCUT_SLOGP_0>
-2.805943

>  <BCUT_SLOGP_1>
-0.085128017

>  <BCUT_SLOGP_2>
0.123

>  <BCUT_SLOGP_3>
2.8798087

>  <BCUT_SMR_0>
-2.6053495

>  <BCUT_SMR_1>
0.1057

>  <BCUT_SMR_2>
0.16425551

>  <BCUT_SMR_3>
3.0581977

>  <bpol>
21.86414

>  <b_1rotN>
1

>  <b_1rotR>
0.083333336

>  <b_ar>
0

>  <b_count>
32

>  <b_double>
0

>  <b_heavy>
12

>  <b_max1len>
4

>  <b_rotN>
1

>  <b_rotR>
0.083333336

>  <b_single>
32

>  <b_triple>
0

>  <chi0>
9.405777

>  <chi0v>
8.3002043

>  <chi0v_C>
7.4057775

>  <chi0_C>
7.4057775

>  <chi1>
5.3122783

>  <chi1v>
4.7594919

>  <chi1v_C>
4.3122783

>  <chi1_C>
4.3122783

>  <chiral>
0

>  <chiral_u>
0

>  <density>
0.65918154

>  <diameter>
6

>  <FCharge>
0

>  <GCUT_PEOE_0>
-0.80918652

>  <GCUT_PEOE_1>
-0.16279565

>  <GCUT_PEOE_2>
-0.13071702

>  <GCUT_PEOE_3>
2.7255137

>  <GCUT_SLOGP_0>
-0.88556385

>  <GCUT_SLOGP_1>
-0.26444387

>  <GCUT_SLOGP_2>
-0.037

>  <GCUT_SLOGP_3>
2.7884588

>  <GCUT_SMR_0>
-0.53492814

>  <GCUT_SMR_1>
-0.05879413

>  <GCUT_SMR_2>
-0.042388562

>  <GCUT_SMR_3>
2.935199

>  <Kier1>
10.083333

>  <Kier2>
3.0470915

>  <Kier3>
2.7777777

>  <KierA1>
10.083333

>  <KierA2>
3.0470915

>  <KierA3>
2.7777777

>  <KierFlex>
2.5604031

>  <lip_acc>
2

>  <lip_don>
2

>  <lip_druglike>
1

>  <lip_violation>
0

>  <logP(o/w)>
2.0020001

>  <logS>
-1.19934

>  <mr>
4.8446016

>  <mutagenic>
0

>  <nmol>
1

>  <opr_brigid>
6

>  <opr_leadlike>
1

>  <opr_nring>
1

>  <opr_nrot>
3

>  <opr_violation>
0

>  <PC+>
0

>  <PC->
0

>  <PEOE_PC+>
1.036309

>  <PEOE_PC->
-1.036309

>  <PEOE_RPC+>
0.20278384

>  <PEOE_RPC->
0.37522227

>  <PEOE_VSA+0>
76.776947

>  <PEOE_VSA+1>
0

>  <PEOE_VSA+2>
0

>  <PEOE_VSA+3>
0

>  <PEOE_VSA+4>
20.648346

>  <PEOE_VSA+5>
0

>  <PEOE_VSA+6>
0

>  <PEOE_VSA-0>
91.048286

>  <PEOE_VSA-1>
0

>  <PEOE_VSA-2>
0

>  <PEOE_VSA-3>
0

>  <PEOE_VSA-4>
0

>  <PEOE_VSA-5>
0

>  <PEOE_VSA-6>
15.535081

>  <PEOE_VSA_FHYD>
0.8226378

>  <PEOE_VSA_FNEG>
0.52244532

>  <PEOE_VSA_FPNEG>
0.076149121

>  <PEOE_VSA_FPOL>
0.1773622

>  <PEOE_VSA_FPOS>
0.47755471

>  <PEOE_VSA_FPPOS>
0.10121308

>  <PEOE_VSA_HYD>
167.82524

>  <PEOE_VSA_NEG>
106.58337

>  <PEOE_VSA_PNEG>
15.535081

>  <PEOE_VSA_POL>
36.183426

>  <PEOE_VSA_POS>
97.425293

>  <PEOE_VSA_PPOS>
20.648346

>  <petitjean>
0.5

>  <petitjeanSC>
1

>  <Q_PC+>
0

>  <Q_PC->
0

>  <Q_RPC+>
0

>  <Q_RPC->
0

>  <Q_VSA_FHYD>
1

>  <Q_VSA_FNEG>
0

>  <Q_VSA_FPNEG>
0

>  <Q_VSA_FPOL>
0

>  <Q_VSA_FPOS>
1

>  <Q_VSA_FPPOS>
0

>  <Q_VSA_HYD>
204.00867

>  <Q_VSA_NEG>
0

>  <Q_VSA_PNEG>
0

>  <Q_VSA_POL>
0

>  <Q_VSA_POS>
204.00867

>  <Q_VSA_PPOS>
0

>  <radius>
3

>  <reactive>
0

>  <rings>
1

>  <RPC+>
0

>  <RPC->
0

>  <rsynth>
0

>  <SlogP>
1.6985

>  <SlogP_VSA0>
50.770454

>  <SlogP_VSA1>
0

>  <SlogP_VSA2>
0

>  <SlogP_VSA3>
0

>  <SlogP_VSA4>
4.4107962

>  <SlogP_VSA5>
0

>  <SlogP_VSA6>
0

>  <SlogP_VSA7>
0

>  <SlogP_VSA8>
75.473625

>  <SlogP_VSA9>
99.978043

>  <SMR>
4.88796

>  <SMR_VSA0>
0

>  <SMR_VSA1>
50.770454

>  <SMR_VSA2>
4.4107962

>  <SMR_VSA3>
0

>  <SMR_VSA4>
0

>  <SMR_VSA5>
75.473625

>  <SMR_VSA6>
0

>  <SMR_VSA7>
99.978043

>  <TPSA>
40.459999

>  <VAdjEq>
0.65002245

>  <VAdjMa>
4.5849624

>  <VDistEq>
2.4386022

>  <VDistMa>
6.8535552

>  <vdw_area>
204.00867

>  <vdw_vol>
261.33621

>  <vsa_acc>
0

>  <vsa_acid>
0

>  <vsa_base>
0

>  <vsa_don>
0

>  <vsa_hyd>
153.66786

>  <vsa_other>
0

>  <vsa_pol>
27.133842

>  <Weight>
172.26799

>  <weinerPath>
192

>  <weinerPol>
15

>  <zagreb>
62

$$$$