O=C1NC(=O)NC(=O)C1(CC=C)C1CCC=C1
  MOE2013           2D

 17 18  0  0  1  0  0  0  0  0999 V2000
    0.0000    0.0000    0.0000 O   0  0  0  0  0  0  0  0  0  0  0  0
    1.2970    0.7540    0.0000 C   0  0  0  0  0  0  0  0  0  0  0  0
    2.5980    0.0090    0.0000 N   0  0  0  0  0  0  0  0  0  0  0  0
    3.8950    0.7630    0.0000 C   0  0  0  0  0  0  0  0  0  0  0  0
    5.1960    0.0170    0.0000 O   0  0  0  0  0  0  0  0  0  0  0  0
    3.8900    2.2630    0.0000 N   0  0  0  0  0  0  0  0  0  0  0  0
    2.5880    3.0090    0.0000 C   0  0  0  0  0  0  0  0  0  0  0  0
    2.5830    4.5090    0.0000 O   0  0  0  0  0  0  0  0  0  0  0  0
    1.2910    2.2540    0.0000 C   0  0  0  0  0  0  0  0  0  0  0  0
    0.5370    3.5510    0.0000 C   0  0  0  0  0  0  0  0  0  0  0  0
    1.2830    4.8520    0.0000 C   0  0  0  0  0  0  0  0  0  0  0  0
    0.5280    6.1490    0.0000 C   0  0  0  0  0  0  0  0  0  0  0  0
   -0.2080    2.2490    0.0000 C   0  0  3  0  0  0  0  0  0  0  0  0
   -1.0860    1.0330    0.0000 C   0  0  0  0  0  0  0  0  0  0  0  0
   -2.5140    1.4920    0.0000 C   0  0  0  0  0  0  0  0  0  0  0  0
   -2.5190    2.9920    0.0000 C   0  0  0  0  0  0  0  0  0  0  0  0
   -1.0940    3.4600    0.0000 C   0  0  0  0  0  0  0  0  0  0  0  0
  1  2  2  0  0  0  0
  2  3  1  0  0  0  0
  2  9  1  0  0  0  0
  3  4  1  0  0  0  0
  4  5  2  0  0  0  0
  4  6  1  0  0  0  0
  6  7  1  0  0  0  0
  7  8  2  0  0  0  0
  7  9  1  0  0  0  0
  9 10  1  0  0  0  0
  9 13  1  0  0  0  0
 10 11  1  0  0  0  0
 11 12  2  0  0  0  0
 13 14  1  0  0  0  0
 13 17  1  0  0  0  0
 14 15  1  0  0  0  0
 15 16  1  0  0  0  0
 16 17  2  0  0  0  0
M  END
>  <Index>
1278

>  <ID>
HT3017

>  <class>
0

>  <apol>
35.061104

>  <ast_fraglike>
1

>  <ast_fraglike_ext>
1

>  <ast_violation>
0

>  <ast_violation_ext>
0

>  <a_acc>
3

>  <a_acid>
0

>  <a_aro>
0

>  <a_base>
0

>  <a_count>
31

>  <a_don>
2

>  <a_donacc>
5

>  <a_heavy>
17

>  <a_hyd>
9

>  <a_IC>
50.502678

>  <a_ICM>
1.6291187

>  <a_nB>
0

>  <a_nBr>
0

>  <a_nC>
12

>  <a_nCl>
0

>  <a_nF>
0

>  <a_nH>
14

>  <a_nI>
0

>  <a_nN>
2

>  <a_nO>
3

>  <a_nP>
0

>  <a_nS>
0

>  <balabanJ>
2.2443404

>  <BCUT_PEOE_0>
-2.6361711

>  <BCUT_PEOE_1>
-0.56047398

>  <BCUT_PEOE_2>
0.57293707

>  <BCUT_PEOE_3>
2.7599728

>  <BCUT_SLOGP_0>
-2.8021441

>  <BCUT_SLOGP_1>
-0.58778781

>  <BCUT_SLOGP_2>
0.68033791

>  <BCUT_SLOGP_3>
2.774961

>  <BCUT_SMR_0>
-2.4062917

>  <BCUT_SMR_1>
-0.38023928

>  <BCUT_SMR_2>
0.71017921

>  <BCUT_SMR_3>
2.9967215

>  <bpol>
19.498898

>  <b_1rotN>
3

>  <b_1rotR>
0.16666667

>  <b_ar>
0

>  <b_count>
32

>  <b_double>
5

>  <b_heavy>
18

>  <b_max1len>
5

>  <b_rotN>
3

>  <b_rotR>
0.16666667

>  <b_single>
27

>  <b_triple>
0

>  <chi0>
12.466255

>  <chi0v>
9.3625727

>  <chi0v_C>
7.1378284

>  <chi0_C>
8.052042

>  <chi1>
8.1082258

>  <chi1v>
5.5542607

>  <chi1v_C>
3.9418883

>  <chi1_C>
4.7431822

>  <chiral>
1

>  <chiral_u>
1

>  <density>
0.77168912

>  <diameter>
7

>  <FCharge>
0

>  <GCUT_PEOE_0>
-0.7808696

>  <GCUT_PEOE_1>
-0.45803505

>  <GCUT_PEOE_2>
0.092778288

>  <GCUT_PEOE_3>
2.6591606

>  <GCUT_SLOGP_0>
-1.1839178

>  <GCUT_SLOGP_1>
-0.37206316

>  <GCUT_SLOGP_2>
0.16467631

>  <GCUT_SLOGP_3>
2.6542354

>  <GCUT_SMR_0>
-0.52686715

>  <GCUT_SMR_1>
-0.22260906

>  <GCUT_SMR_2>
0.17238839

>  <GCUT_SMR_3>
2.8969407

>  <Kier1>
13.432098

>  <Kier2>
5.3254437

>  <Kier3>
2.2907231

>  <KierA1>
9.5380573

>  <KierA2>
3.6926596

>  <KierA3>
1.5583657

>  <KierFlex>
2.0718117

>  <lip_acc>
5

>  <lip_don>
2

>  <lip_druglike>
1

>  <lip_violation>
0

>  <logP(o/w)>
0.49200001

>  <logS>
-2.28561

>  <mr>
6.2138829

>  <mutagenic>
0

>  <nmol>
1

>  <opr_brigid>
12

>  <opr_leadlike>
1

>  <opr_nring>
2

>  <opr_nrot>
3

>  <opr_violation>
0

>  <PC+>
0

>  <PC->
0

>  <PEOE_PC+>
1.7960804

>  <PEOE_PC->
-1.7960804

>  <PEOE_RPC+>
0.18317993

>  <PEOE_RPC->
0.15462391

>  <PEOE_VSA+0>
29.857702

>  <PEOE_VSA+1>
21.326929

>  <PEOE_VSA+2>
0

>  <PEOE_VSA+3>
17.238026

>  <PEOE_VSA+4>
25.899061

>  <PEOE_VSA+5>
0

>  <PEOE_VSA+6>
17.440542

>  <PEOE_VSA-0>
26.103939

>  <PEOE_VSA-1>
36.764713

>  <PEOE_VSA-2>
22.301268

>  <PEOE_VSA-3>
0

>  <PEOE_VSA-4>
13.566921

>  <PEOE_VSA-5>
27.407623

>  <PEOE_VSA-6>
0

>  <PEOE_VSA_FHYD>
0.64559996

>  <PEOE_VSA_FNEG>
0.53022653

>  <PEOE_VSA_FPNEG>
0.17222945

>  <PEOE_VSA_FPOL>
0.35440001

>  <PEOE_VSA_FPOS>
0.46977344

>  <PEOE_VSA_FPPOS>
0.18217057

>  <PEOE_VSA_HYD>
153.59258

>  <PEOE_VSA_NEG>
126.14446

>  <PEOE_VSA_PNEG>
40.974545

>  <PEOE_VSA_POL>
84.314148

>  <PEOE_VSA_POS>
111.76226

>  <PEOE_VSA_PPOS>
43.339603

>  <petitjean>
0.42857143

>  <petitjeanSC>
0.75

>  <Q_PC+>
0

>  <Q_PC->
0

>  <Q_RPC+>
0

>  <Q_RPC->
0

>  <Q_VSA_FHYD>
1

>  <Q_VSA_FNEG>
0

>  <Q_VSA_FPNEG>
0

>  <Q_VSA_FPOL>
0

>  <Q_VSA_FPOS>
1

>  <Q_VSA_FPPOS>
0

>  <Q_VSA_HYD>
237.90672

>  <Q_VSA_NEG>
0

>  <Q_VSA_PNEG>
0

>  <Q_VSA_POL>
0

>  <Q_VSA_POS>
237.90672

>  <Q_VSA_PPOS>
0

>  <radius>
4

>  <reactive>
0

>  <rings>
2

>  <RPC+>
0

>  <RPC->
0

>  <rsynth>
1

>  <SlogP>
0.8811

>  <SlogP_VSA0>
36.0215

>  <SlogP_VSA1>
15.347524

>  <SlogP_VSA2>
47.724434

>  <SlogP_VSA3>
0

>  <SlogP_VSA4>
4.4107962

>  <SlogP_VSA5>
0

>  <SlogP_VSA6>
0

>  <SlogP_VSA7>
52.929554

>  <SlogP_VSA8>
56.605217

>  <SlogP_VSA9>
55.963009

>  <SMR>
6.0792398

>  <SMR_VSA0>
71.586647

>  <SMR_VSA1>
0

>  <SMR_VSA2>
40.432297

>  <SMR_VSA3>
0

>  <SMR_VSA4>
0

>  <SMR_VSA5>
109.53477

>  <SMR_VSA6>
15.347524

>  <SMR_VSA7>
32.100792

>  <TPSA>
75.269997

>  <VAdjEq>
0.54234898

>  <VAdjMa>
5.1699252

>  <VDistEq>
2.5821307

>  <VDistMa>
7.929224

>  <vdw_area>
237.90672

>  <vdw_vol>
303.56134

>  <vsa_acc>
40.700764

>  <vsa_acid>
0

>  <vsa_base>
0

>  <vsa_don>
11.365152

>  <vsa_hyd>
126.46796

>  <vsa_other>
43.339603

>  <vsa_pol>
52.065914

>  <Weight>
234.25499

>  <weinerPath>
455

>  <weinerPol>
29

>  <zagreb>
88

$$$$