NCCN
  MOE2013           2D

  4  3  0  0  0  0  0  0  0  0999 V2000
    0.0000    0.0000    0.0000 N   0  0  0  0  0  0  0  0  0  0  0  0
    1.3800   -0.5870    0.0000 C   0  0  0  0  0  0  0  0  0  0  0  0
    2.5790    0.3140    0.0000 C   0  0  0  0  0  0  0  0  0  0  0  0
    3.9590   -0.2730    0.0000 N   0  0  0  0  0  0  0  0  0  0  0  0
  1  2  1  0  0  0  0
  2  3  1  0  0  0  0
  3  4  1  0  0  0  0
M  END
>  <Index>
1182

>  <ID>
HT2306

>  <class>
0

>  <apol>
11.054344

>  <ast_fraglike>
1

>  <ast_fraglike_ext>
1

>  <ast_violation>
0

>  <ast_violation_ext>
0

>  <a_acc>
2

>  <a_acid>
0

>  <a_aro>
0

>  <a_base>
0

>  <a_count>
12

>  <a_don>
2

>  <a_donacc>
4

>  <a_heavy>
4

>  <a_hyd>
2

>  <a_IC>
15.01955

>  <a_ICM>
1.2516291

>  <a_nB>
0

>  <a_nBr>
0

>  <a_nC>
2

>  <a_nCl>
0

>  <a_nF>
0

>  <a_nH>
8

>  <a_nI>
0

>  <a_nN>
2

>  <a_nO>
0

>  <a_nP>
0

>  <a_nS>
0

>  <balabanJ>
1.9747449

>  <BCUT_PEOE_0>
-2.4956565

>  <BCUT_PEOE_1>
-0.23638114

>  <BCUT_PEOE_2>
0.36171383

>  <BCUT_PEOE_3>
2.3966014

>  <BCUT_SLOGP_0>
-2.7921665

>  <BCUT_SLOGP_1>
-0.19440025

>  <BCUT_SLOGP_2>
0.42271596

>  <BCUT_SLOGP_3>
2.2065239

>  <BCUT_SMR_0>
-2.2181609

>  <BCUT_SMR_1>
-0.16199611

>  <BCUT_SMR_2>
0.39201471

>  <BCUT_SMR_3>
2.6616845

>  <bpol>
7.4256558

>  <b_1rotN>
1

>  <b_1rotR>
0.33333334

>  <b_ar>
0

>  <b_count>
11

>  <b_double>
0

>  <b_heavy>
3

>  <b_max1len>
5

>  <b_rotN>
1

>  <b_rotR>
0.33333334

>  <b_single>
11

>  <b_triple>
0

>  <chi0>
3.4142137

>  <chi0v>
2.5689142

>  <chi0v_C>
1.4142135

>  <chi0_C>
1.4142135

>  <chi1>
1.9142135

>  <chi1v>
1.3164966

>  <chi1v_C>
0.5

>  <chi1_C>
0.5

>  <chiral>
0

>  <chiral_u>
0

>  <density>
0.65257192

>  <diameter>
3

>  <FCharge>
0

>  <GCUT_PEOE_0>
-0.84237975

>  <GCUT_PEOE_1>
-0.22351024

>  <GCUT_PEOE_2>
0.037276167

>  <GCUT_PEOE_3>
1.7676878

>  <GCUT_SLOGP_0>
-1.3658445

>  <GCUT_SLOGP_1>
-0.19558221

>  <GCUT_SLOGP_2>
0.11762886

>  <GCUT_SLOGP_3>
1.6380869

>  <GCUT_SMR_0>
-0.50897694

>  <GCUT_SMR_1>
-0.13577752

>  <GCUT_SMR_2>
0.058309585

>  <GCUT_SMR_3>
1.9945105

>  <Kier1>
4

>  <Kier2>
3

>  <Kier3>
4

>  <KierA1>
4

>  <KierA2>
3

>  <KierA3>
4

>  <KierFlex>
3

>  <lip_acc>
2

>  <lip_don>
4

>  <lip_druglike>
1

>  <lip_violation>
0

>  <logP(o/w)>
-1.5420001

>  <logS>
1.02674

>  <mr>
1.7117417

>  <mutagenic>
0

>  <nmol>
1

>  <opr_brigid>
0

>  <opr_leadlike>
1

>  <opr_nring>
0

>  <opr_nrot>
1

>  <opr_violation>
0

>  <PC+>
0

>  <PC->
0

>  <PEOE_PC+>
0.65756994

>  <PEOE_PC->
-0.65756994

>  <PEOE_RPC+>
0.17984118

>  <PEOE_RPC->
0.5

>  <PEOE_VSA+0>
43.446194

>  <PEOE_VSA+1>
0

>  <PEOE_VSA+2>
34.476051

>  <PEOE_VSA+3>
0

>  <PEOE_VSA+4>
0

>  <PEOE_VSA+5>
0

>  <PEOE_VSA+6>
0

>  <PEOE_VSA-0>
0

>  <PEOE_VSA-1>
0

>  <PEOE_VSA-2>
0

>  <PEOE_VSA-3>
0

>  <PEOE_VSA-4>
0

>  <PEOE_VSA-5>
0

>  <PEOE_VSA-6>
13.302238

>  <PEOE_VSA_FHYD>
0.85418129

>  <PEOE_VSA_FNEG>
0.14581874

>  <PEOE_VSA_FPNEG>
0.14581874

>  <PEOE_VSA_FPOL>
0.14581874

>  <PEOE_VSA_FPOS>
0.85418129

>  <PEOE_VSA_FPPOS>
0

>  <PEOE_VSA_HYD>
77.922249

>  <PEOE_VSA_NEG>
13.302238

>  <PEOE_VSA_PNEG>
13.302238

>  <PEOE_VSA_POL>
13.302238

>  <PEOE_VSA_POS>
77.922249

>  <PEOE_VSA_PPOS>
0

>  <petitjean>
0.33333334

>  <petitjeanSC>
0.5

>  <Q_PC+>
0

>  <Q_PC->
0

>  <Q_RPC+>
0

>  <Q_RPC->
0

>  <Q_VSA_FHYD>
1

>  <Q_VSA_FNEG>
0

>  <Q_VSA_FPNEG>
0

>  <Q_VSA_FPOL>
0

>  <Q_VSA_FPOS>
1

>  <Q_VSA_FPPOS>
0

>  <Q_VSA_HYD>
91.224487

>  <Q_VSA_NEG>
0

>  <Q_VSA_PNEG>
0

>  <Q_VSA_POL>
0

>  <Q_VSA_POS>
91.224487

>  <Q_VSA_PPOS>
0

>  <radius>
2

>  <reactive>
0

>  <rings>
0

>  <RPC+>
0

>  <RPC->
0

>  <rsynth>
1

>  <SlogP>
-1.0962

>  <SlogP_VSA0>
65.794373

>  <SlogP_VSA1>
0

>  <SlogP_VSA2>
0

>  <SlogP_VSA3>
36.879158

>  <SlogP_VSA4>
0

>  <SlogP_VSA5>
0

>  <SlogP_VSA6>
0

>  <SlogP_VSA7>
0

>  <SlogP_VSA8>
0

>  <SlogP_VSA9>
0

>  <SMR>
1.8108799

>  <SMR_VSA0>
0

>  <SMR_VSA1>
0

>  <SMR_VSA2>
0

>  <SMR_VSA3>
0

>  <SMR_VSA4>
65.794373

>  <SMR_VSA5>
0

>  <SMR_VSA6>
36.879158

>  <SMR_VSA7>
0

>  <TPSA>
52.040001

>  <VAdjEq>
0.95443398

>  <VAdjMa>
2.5849626

>  <VDistEq>
1.4591479

>  <VDistMa>
3.4464393

>  <vdw_area>
91.224487

>  <vdw_vol>
92.09713

>  <vsa_acc>
0

>  <vsa_acid>
0

>  <vsa_base>
0

>  <vsa_don>
0

>  <vsa_hyd>
40.59901

>  <vsa_other>
0

>  <vsa_pol>
35.484978

>  <Weight>
60.099998

>  <weinerPath>
10

>  <weinerPol>
1

>  <zagreb>
10

$$$$