S(O)(=O)(=O)c1ccc(N2NC(C(O)=O)=C(N=Nc3ccc(S(O)(=O)=O)cc3)C2=O)cc1
  MOE2013           2D

 31 33  0  0  0  0  0  0  0  0999 V2000
    0.0000    0.0000    0.0000 S   0  0  0  0  0  0  0  0  0  0  0  0
    1.3010   -0.7460    0.0000 O   0  0  0  0  0  0  0  0  0  0  0  0
   -0.7460   -1.3010    0.0000 O   0  0  0  0  0  0  0  0  0  0  0  0
    0.7460    1.3010    0.0000 O   0  0  0  0  0  0  0  0  0  0  0  0
   -1.3010    0.7460    0.0000 C   0  0  0  0  0  0  0  0  0  0  0  0
   -2.5980   -0.0080    0.0000 C   0  0  0  0  0  0  0  0  0  0  0  0
   -3.8990    0.7380    0.0000 C   0  0  0  0  0  0  0  0  0  0  0  0
   -3.9040    2.2380    0.0000 C   0  0  0  0  0  0  0  0  0  0  0  0
   -5.2060    2.9840    0.0000 N   0  0  0  0  0  0  0  0  0  0  0  0
   -5.3670    4.4750    0.0000 N   0  0  0  0  0  0  0  0  0  0  0  0
   -6.8350    4.7820    0.0000 C   0  0  0  0  0  0  0  0  0  0  0  0
   -7.4500    6.1500    0.0000 C   0  0  0  0  0  0  0  0  0  0  0  0
   -6.5720    7.3670    0.0000 O   0  0  0  0  0  0  0  0  0  0  0  0
   -8.9420    6.3020    0.0000 O   0  0  0  0  0  0  0  0  0  0  0  0
   -7.5810    3.4810    0.0000 C   0  0  0  0  0  0  0  0  0  0  0  0
   -9.0730    3.3190    0.0000 N   0  0  0  0  0  0  0  0  0  0  0  0
   -9.6780    1.9470    0.0000 N   0  0  0  0  0  0  0  0  0  0  0  0
  -11.1700    1.7850    0.0000 C   0  0  0  0  0  0  0  0  0  0  0  0
  -11.7750    0.4130    0.0000 C   0  0  0  0  0  0  0  0  0  0  0  0
  -13.2670    0.2520    0.0000 C   0  0  0  0  0  0  0  0  0  0  0  0
  -14.1520    1.4620    0.0000 C   0  0  0  0  0  0  0  0  0  0  0  0
  -15.6430    1.3010    0.0000 S   0  0  0  0  0  0  0  0  0  0  0  0
  -17.1350    1.1390    0.0000 O   0  0  0  0  0  0  0  0  0  0  0  0
  -15.4820   -0.1900    0.0000 O   0  0  0  0  0  0  0  0  0  0  0  0
  -15.8050    2.7920    0.0000 O   0  0  0  0  0  0  0  0  0  0  0  0
  -13.5460    2.8350    0.0000 C   0  0  0  0  0  0  0  0  0  0  0  0
  -12.0550    2.9960    0.0000 C   0  0  0  0  0  0  0  0  0  0  0  0
   -6.5740    2.3690    0.0000 C   0  0  0  0  0  0  0  0  0  0  0  0
   -6.8810    0.9010    0.0000 O   0  0  0  0  0  0  0  0  0  0  0  0
   -2.6080    2.9920    0.0000 C   0  0  0  0  0  0  0  0  0  0  0  0
   -1.3060    2.2460    0.0000 C   0  0  0  0  0  0  0  0  0  0  0  0
  1  2  1  0  0  0  0
  1  3  2  0  0  0  0
  1  4  2  0  0  0  0
  1  5  1  0  0  0  0
  5  6  1  0  0  0  0
  5 31  2  0  0  0  0
  6  7  2  0  0  0  0
  7  8  1  0  0  0  0
  8  9  1  0  0  0  0
  8 30  2  0  0  0  0
  9 10  1  0  0  0  0
  9 28  1  0  0  0  0
 10 11  1  0  0  0  0
 11 12  1  0  0  0  0
 11 15  2  0  0  0  0
 12 13  1  0  0  0  0
 12 14  2  0  0  0  0
 15 16  1  0  0  0  0
 15 28  1  0  0  0  0
 16 17  2  3  0  0  0
 17 18  1  0  0  0  0
 18 19  1  0  0  0  0
 18 27  2  0  0  0  0
 19 20  2  0  0  0  0
 20 21  1  0  0  0  0
 21 22  1  0  0  0  0
 21 26  2  0  0  0  0
 22 23  1  0  0  0  0
 22 24  2  0  0  0  0
 22 25  2  0  0  0  0
 26 27  1  0  0  0  0
 28 29  2  0  0  0  0
 30 31  1  0  0  0  0
M  END
>  <Index>
1178

>  <ID>
HT2280

>  <class>
0

>  <apol>
53.579517

>  <ast_fraglike>
0

>  <ast_fraglike_ext>
0

>  <ast_violation>
3

>  <ast_violation_ext>
5

>  <a_acc>
11

>  <a_acid>
0

>  <a_aro>
12

>  <a_base>
0

>  <a_count>
43

>  <a_don>
9

>  <a_donacc>
20

>  <a_heavy>
31

>  <a_hyd>
14

>  <a_IC>
87.78051

>  <a_ICM>
2.0414071

>  <a_nB>
0

>  <a_nBr>
0

>  <a_nC>
16

>  <a_nCl>
0

>  <a_nF>
0

>  <a_nH>
12

>  <a_nI>
0

>  <a_nN>
4

>  <a_nO>
9

>  <a_nP>
0

>  <a_nS>
2

>  <balabanJ>
1.5365587

>  <BCUT_PEOE_0>
-2.3110344

>  <BCUT_PEOE_1>
-0.62194395

>  <BCUT_PEOE_2>
0.72210127

>  <BCUT_PEOE_3>
2.4238739

>  <BCUT_SLOGP_0>
-2.4975893

>  <BCUT_SLOGP_1>
-0.64145517

>  <BCUT_SLOGP_2>
0.80591482

>  <BCUT_SLOGP_3>
2.4052093

>  <BCUT_SMR_0>
-1.9763689

>  <BCUT_SMR_1>
-0.49986199

>  <BCUT_SMR_2>
0.87008977

>  <BCUT_SMR_3>
2.7290671

>  <bpol>
30.626484

>  <b_1rotN>
6

>  <b_1rotR>
0.18181819

>  <b_ar>
12

>  <b_count>
45

>  <b_double>
4

>  <b_heavy>
33

>  <b_max1len>
3

>  <b_rotN>
6

>  <b_rotR>
0.18181819

>  <b_single>
29

>  <b_triple>
0

>  <chi0>
22.974327

>  <chi0v>
16.701063

>  <chi0v_C>
8.6188021

>  <chi0_C>
10.275657

>  <chi1>
14.375048

>  <chi1v>
10.912813

>  <chi1v_C>
4.3927345

>  <chi1_C>
6.2659864

>  <chiral>
0

>  <chiral_u>
0

>  <density>
0.96795601

>  <diameter>
16

>  <FCharge>
0

>  <GCUT_PEOE_0>
-0.82871473

>  <GCUT_PEOE_1>
-0.49578831

>  <GCUT_PEOE_2>
0.12181187

>  <GCUT_PEOE_3>
2.4803529

>  <GCUT_SLOGP_0>
-1.1790063

>  <GCUT_SLOGP_1>
-0.4939

>  <GCUT_SLOGP_2>
0.19156972

>  <GCUT_SLOGP_3>
2.5129044

>  <GCUT_SMR_0>
-0.4426392

>  <GCUT_SMR_1>
-0.21605732

>  <GCUT_SMR_2>
0.29630193

>  <GCUT_SMR_3>
2.7558661

>  <Kier1>
25.619835

>  <Kier2>
10.092

>  <Kier3>
6.3208814

>  <KierA1>
20.657528

>  <KierA2>
8.0754871

>  <KierA3>
5.0297227

>  <KierFlex>
5.381278

>  <lip_acc>
13

>  <lip_don>
4

>  <lip_druglike>
1

>  <lip_violation>
1

>  <logP(o/w)>
0.958

>  <logS>
-3.92329

>  <mr>
10.414224

>  <mutagenic>
0

>  <nmol>
1

>  <opr_brigid>
18

>  <opr_leadlike>
0

>  <opr_nring>
3

>  <opr_nrot>
6

>  <opr_violation>
2

>  <PC+>
0

>  <PC->
0

>  <PEOE_PC+>
3.1347363

>  <PEOE_PC->
-3.1347363

>  <PEOE_RPC+>
0.097624496

>  <PEOE_RPC->
0.10420836

>  <PEOE_VSA+0>
49.019615

>  <PEOE_VSA+1>
68.170532

>  <PEOE_VSA+2>
29.725117

>  <PEOE_VSA+3>
15.318564

>  <PEOE_VSA+4>
10.324173

>  <PEOE_VSA+5>
21.318733

>  <PEOE_VSA+6>
14.708499

>  <PEOE_VSA-0>
49.019615

>  <PEOE_VSA-1>
0

>  <PEOE_VSA-2>
18.842079

>  <PEOE_VSA-3>
3.8753545

>  <PEOE_VSA-4>
64.033043

>  <PEOE_VSA-5>
47.551605

>  <PEOE_VSA-6>
7.7675405

>  <PEOE_VSA_FHYD>
0.58540362

>  <PEOE_VSA_FNEG>
0.47811219

>  <PEOE_VSA_FPNEG>
0.2986235

>  <PEOE_VSA_FPOL>
0.41459638

>  <PEOE_VSA_FPOS>
0.52188784

>  <PEOE_VSA_FPPOS>
0.11597289

>  <PEOE_VSA_HYD>
233.97089

>  <PEOE_VSA_NEG>
191.08923

>  <PEOE_VSA_PNEG>
119.35219

>  <PEOE_VSA_POL>
165.7036

>  <PEOE_VSA_POS>
208.58524

>  <PEOE_VSA_PPOS>
46.351406

>  <petitjean>
0.5

>  <petitjeanSC>
1

>  <Q_PC+>
0

>  <Q_PC->
0

>  <Q_RPC+>
0

>  <Q_RPC->
0

>  <Q_VSA_FHYD>
1

>  <Q_VSA_FNEG>
0

>  <Q_VSA_FPNEG>
0

>  <Q_VSA_FPOL>
0

>  <Q_VSA_FPOS>
1

>  <Q_VSA_FPPOS>
0

>  <Q_VSA_HYD>
399.67447

>  <Q_VSA_NEG>
0

>  <Q_VSA_PNEG>
0

>  <Q_VSA_POL>
0

>  <Q_VSA_POS>
399.67447

>  <Q_VSA_PPOS>
0

>  <radius>
8

>  <reactive>
0

>  <rings>
3

>  <RPC+>
0

>  <RPC->
0

>  <rsynth>
0.32258064

>  <SlogP>
-0.020099999

>  <SlogP_VSA0>
66.751526

>  <SlogP_VSA1>
109.34763

>  <SlogP_VSA2>
64.890732

>  <SlogP_VSA3>
25.385227

>  <SlogP_VSA4>
0

>  <SlogP_VSA5>
41.940979

>  <SlogP_VSA6>
0

>  <SlogP_VSA7>
141.14548

>  <SlogP_VSA8>
0

>  <SlogP_VSA9>
5.513495

>  <SMR>
10.14927

>  <SMR_VSA0>
144.06781

>  <SMR_VSA1>
79.187523

>  <SMR_VSA2>
49.376713

>  <SMR_VSA3>
5.513495

>  <SMR_VSA4>
5.513495

>  <SMR_VSA5>
141.14548

>  <SMR_VSA6>
13.004248

>  <SMR_VSA7>
17.166298

>  <TPSA>
203.10001

>  <VAdjEq>
0.36097246

>  <VAdjMa>
6.044394

>  <VDistEq>
3.7956114

>  <VDistMa>
9.595602

>  <vdw_area>
399.67447

>  <vdw_vol>
483.93005

>  <vsa_acc>
32.409

>  <vsa_acid>
0

>  <vsa_base>
0

>  <vsa_don>
9.4210396

>  <vsa_hyd>
161.63536

>  <vsa_other>
50.683598

>  <vsa_pol>
165.01346

>  <Weight>
468.423

>  <weinerPath>
2981

>  <weinerPol>
50

>  <zagreb>
166

$$$$