O=C(Nc1c(cccc1C)C)C(N)C
  MOE2013           2D

 14 14  0  0  1  0  0  0  0  0999 V2000
    0.0000    0.0000    0.0000 O   0  0  0  0  0  0  0  0  0  0  0  0
    0.7420   -1.3040    0.0000 C   0  0  0  0  0  0  0  0  0  0  0  0
   -0.0170   -2.5980    0.0000 N   0  0  0  0  0  0  0  0  0  0  0  0
   -1.5170   -2.5880    0.0000 C   0  0  0  0  0  0  0  0  0  0  0  0
   -2.2750   -3.8830    0.0000 C   0  0  0  0  0  0  0  0  0  0  0  0
   -3.7750   -3.8730    0.0000 C   0  0  0  0  0  0  0  0  0  0  0  0
   -4.5170   -2.5690    0.0000 C   0  0  0  0  0  0  0  0  0  0  0  0
   -3.7580   -1.2750    0.0000 C   0  0  0  0  0  0  0  0  0  0  0  0
   -2.2580   -1.2850    0.0000 C   0  0  0  0  0  0  0  0  0  0  0  0
   -1.5000    0.0100    0.0000 C   0  0  0  0  0  0  0  0  0  0  0  0
   -1.5330   -5.1860    0.0000 C   0  0  0  0  0  0  0  0  0  0  0  0
    2.2420   -1.3130    0.0000 C   0  0  3  0  0  0  0  0  0  0  0  0
    2.9830   -2.6170    0.0000 N   0  0  0  0  0  0  0  0  0  0  0  0
    3.0000   -0.0190    0.0000 C   0  0  0  0  0  0  0  0  0  0  0  0
  1  2  2  0  0  0  0
  2  3  1  0  0  0  0
  2 12  1  0  0  0  0
  3  4  1  0  0  0  0
  4  5  1  0  0  0  0
  4  9  2  0  0  0  0
  5  6  2  0  0  0  0
  5 11  1  0  0  0  0
  6  7  1  0  0  0  0
  7  8  2  0  0  0  0
  8  9  1  0  0  0  0
  9 10  1  0  0  0  0
 12 13  1  0  0  0  0
 12 14  1  0  0  0  0
M  END
>  <Index>
1082

>  <ID>
HT2074

>  <class>
0

>  <apol>
33.030689

>  <ast_fraglike>
1

>  <ast_fraglike_ext>
1

>  <ast_violation>
0

>  <ast_violation_ext>
0

>  <a_acc>
2

>  <a_acid>
0

>  <a_aro>
6

>  <a_base>
0

>  <a_count>
30

>  <a_don>
2

>  <a_donacc>
4

>  <a_heavy>
14

>  <a_hyd>
10

>  <a_IC>
43.152969

>  <a_ICM>
1.4384323

>  <a_nB>
0

>  <a_nBr>
0

>  <a_nC>
11

>  <a_nCl>
0

>  <a_nF>
0

>  <a_nH>
16

>  <a_nI>
0

>  <a_nN>
2

>  <a_nO>
1

>  <a_nP>
0

>  <a_nS>
0

>  <balabanJ>
2.4948699

>  <BCUT_PEOE_0>
-2.4808333

>  <BCUT_PEOE_1>
-0.43026683

>  <BCUT_PEOE_2>
0.42367771

>  <BCUT_PEOE_3>
2.4754317

>  <BCUT_SLOGP_0>
-2.7231624

>  <BCUT_SLOGP_1>
-0.34232721

>  <BCUT_SLOGP_2>
0.43687871

>  <BCUT_SLOGP_3>
2.4799426

>  <BCUT_SMR_0>
-2.2112706

>  <BCUT_SMR_1>
-0.26158527

>  <BCUT_SMR_2>
0.55416381

>  <BCUT_SMR_3>
2.7468569

>  <bpol>
18.449312

>  <b_1rotN>
2

>  <b_1rotR>
0.14285715

>  <b_ar>
6

>  <b_count>
30

>  <b_double>
1

>  <b_heavy>
14

>  <b_max1len>
4

>  <b_rotN>
3

>  <b_rotR>
0.21428572

>  <b_single>
23

>  <b_triple>
0

>  <chi0>
10.715178

>  <chi0v>
8.7950001

>  <chi0v_C>
7.309401

>  <chi0_C>
8.0080719

>  <chi1>
6.5197444

>  <chi1v>
4.6475

>  <chi1v_C>
3.6100423

>  <chi1_C>
4.5485473

>  <chiral>
1

>  <chiral_u>
1

>  <density>
0.6790036

>  <diameter>
7

>  <FCharge>
0

>  <GCUT_PEOE_0>
-0.81679237

>  <GCUT_PEOE_1>
-0.34574899

>  <GCUT_PEOE_2>
0.033032596

>  <GCUT_PEOE_3>
2.3665771

>  <GCUT_SLOGP_0>
-1.3634114

>  <GCUT_SLOGP_1>
-0.23792392

>  <GCUT_SLOGP_2>
0.082184635

>  <GCUT_SLOGP_3>
2.4535985

>  <GCUT_SMR_0>
-0.50534475

>  <GCUT_SMR_1>
-0.17544915

>  <GCUT_SMR_2>
0.13296959

>  <GCUT_SMR_3>
2.6534274

>  <Kier1>
12.071428

>  <Kier2>
5.1855955

>  <Kier3>
3.2727273

>  <KierA1>
8.9811068

>  <KierA2>
3.7613833

>  <KierA3>
2.3279636

>  <KierFlex>
2.412956

>  <lip_acc>
3

>  <lip_don>
3

>  <lip_druglike>
1

>  <lip_violation>
0

>  <logP(o/w)>
1.209

>  <logS>
-1.9264801

>  <mr>
5.7221971

>  <mutagenic>
0

>  <nmol>
1

>  <opr_brigid>
6

>  <opr_leadlike>
1

>  <opr_nring>
1

>  <opr_nrot>
2

>  <opr_violation>
0

>  <PC+>
0

>  <PC->
0

>  <PEOE_PC+>
1.2607585

>  <PEOE_PC->
-1.2607585

>  <PEOE_RPC+>
0.1917861

>  <PEOE_RPC->
0.25730908

>  <PEOE_VSA+0>
45.088024

>  <PEOE_VSA+1>
20.207504

>  <PEOE_VSA+2>
17.238026

>  <PEOE_VSA+3>
8.6190128

>  <PEOE_VSA+4>
12.949531

>  <PEOE_VSA+5>
0

>  <PEOE_VSA+6>
0

>  <PEOE_VSA-0>
60.66011

>  <PEOE_VSA-1>
36.764713

>  <PEOE_VSA-2>
0

>  <PEOE_VSA-3>
0

>  <PEOE_VSA-4>
0

>  <PEOE_VSA-5>
13.566921

>  <PEOE_VSA-6>
6.7880106

>  <PEOE_VSA_FHYD>
0.84990001

>  <PEOE_VSA_FNEG>
0.53082192

>  <PEOE_VSA_FPNEG>
0.091737702

>  <PEOE_VSA_FPOL>
0.15009998

>  <PEOE_VSA_FPOS>
0.46917808

>  <PEOE_VSA_FPPOS>
0.058362279

>  <PEOE_VSA_HYD>
188.57739

>  <PEOE_VSA_NEG>
117.77975

>  <PEOE_VSA_PNEG>
20.354931

>  <PEOE_VSA_POL>
33.304462

>  <PEOE_VSA_POS>
104.1021

>  <PEOE_VSA_PPOS>
12.949531

>  <petitjean>
0.42857143

>  <petitjeanSC>
0.75

>  <Q_PC+>
0

>  <Q_PC->
0

>  <Q_RPC+>
0

>  <Q_RPC->
0

>  <Q_VSA_FHYD>
1

>  <Q_VSA_FNEG>
0

>  <Q_VSA_FPNEG>
0

>  <Q_VSA_FPOL>
0

>  <Q_VSA_FPOS>
1

>  <Q_VSA_FPPOS>
0

>  <Q_VSA_HYD>
221.88185

>  <Q_VSA_NEG>
0

>  <Q_VSA_PNEG>
0

>  <Q_VSA_POL>
0

>  <Q_VSA_POS>
221.88185

>  <Q_VSA_PPOS>
0

>  <radius>
4

>  <reactive>
0

>  <rings>
1

>  <RPC+>
0

>  <RPC->
0

>  <rsynth>
1

>  <SlogP>
1.5891401

>  <SlogP_VSA0>
32.897186

>  <SlogP_VSA1>
23.269535

>  <SlogP_VSA2>
27.844185

>  <SlogP_VSA3>
0

>  <SlogP_VSA4>
6.37115

>  <SlogP_VSA5>
0

>  <SlogP_VSA6>
0

>  <SlogP_VSA7>
52.929554

>  <SlogP_VSA8>
0

>  <SlogP_VSA9>
102.73479

>  <SMR>
5.81951

>  <SMR_VSA0>
23.862217

>  <SMR_VSA1>
0

>  <SMR_VSA2>
0

>  <SMR_VSA3>
10.353119

>  <SMR_VSA4>
53.664684

>  <SMR_VSA5>
52.929554

>  <SMR_VSA6>
5.2587838

>  <SMR_VSA7>
99.978043

>  <TPSA>
55.119999

>  <VAdjEq>
0.59167278

>  <VAdjMa>
4.8073549

>  <VDistEq>
2.6467817

>  <VDistMa>
7.3213849

>  <vdw_area>
221.88185

>  <vdw_vol>
283.15314

>  <vsa_acc>
13.566921

>  <vsa_acid>
0

>  <vsa_base>
0

>  <vsa_don>
5.6825762

>  <vsa_hyd>
153.46701

>  <vsa_other>
12.949531

>  <vsa_pol>
36.991985

>  <Weight>
192.26199

>  <weinerPath>
304

>  <weinerPol>
19

>  <zagreb>
66

$$$$