OC1(CCC2C3C(C4C(CC3)=CCCC4)CCC12C)C#C
  MOE2013           2D

 21 24  0  0  1  0  0  0  0  0999 V2000
    0.0000    0.0000    0.0000 O   0  0  0  0  0  0  0  0  0  0  0  0
   -1.1250    0.9920    0.0000 C   0  0  3  0  0  0  0  0  0  0  0  0
   -1.7260    2.3670    0.0000 C   0  0  0  0  0  0  0  0  0  0  0  0
   -3.2180    2.2200    0.0000 C   0  0  0  0  0  0  0  0  0  0  0  0
   -3.5410    0.7550    0.0000 C   0  0  3  0  0  0  0  0  0  0  0  0
   -4.8450    0.0150    0.0000 C   0  0  3  0  0  0  0  0  0  0  0  0
   -4.8550   -1.4850    0.0000 C   0  0  3  0  0  0  0  0  0  0  0  0
   -6.1600   -2.2260    0.0000 C   0  0  3  0  0  0  0  0  0  0  0  0
   -7.4530   -1.4670    0.0000 C   0  0  0  0  0  0  0  0  0  0  0  0
   -7.4430    0.0330    0.0000 C   0  0  0  0  0  0  0  0  0  0  0  0
   -6.1390    0.7740    0.0000 C   0  0  0  0  0  0  0  0  0  0  0  0
   -8.7580   -2.2080    0.0000 C   0  0  0  0  0  0  0  0  0  0  0  0
   -8.7680   -3.7080    0.0000 C   0  0  0  0  0  0  0  0  0  0  0  0
   -7.4750   -4.4670    0.0000 C   0  0  0  0  0  0  0  0  0  0  0  0
   -6.1700   -3.7260    0.0000 C   0  0  0  0  0  0  0  0  0  0  0  0
   -3.5620   -2.2450    0.0000 C   0  0  0  0  0  0  0  0  0  0  0  0
   -2.2570   -1.5040    0.0000 C   0  0  0  0  0  0  0  0  0  0  0  0
   -2.2470   -0.0040    0.0000 C   0  0  3  0  0  0  0  0  0  0  0  0
   -0.8920   -0.6470    0.0000 C   0  0  0  0  0  0  0  0  0  0  0  0
    0.2790    1.5200    0.0000 C   0  0  0  0  0  0  0  0  0  0  0  0
    1.6830    2.0470    0.0000 C   0  0  0  0  0  0  0  0  0  0  0  0
  1  2  1  0  0  0  0
  2  3  1  0  0  0  0
  2 18  1  0  0  0  0
  2 20  1  0  0  0  0
  3  4  1  0  0  0  0
  4  5  1  0  0  0  0
  5  6  1  0  0  0  0
  5 18  1  0  0  0  0
  6  7  1  0  0  0  0
  6 11  1  0  0  0  0
  7  8  1  0  0  0  0
  7 16  1  0  0  0  0
  8  9  1  0  0  0  0
  8 15  1  0  0  0  0
  9 10  1  0  0  0  0
  9 12  2  0  0  0  0
 10 11  1  0  0  0  0
 12 13  1  0  0  0  0
 13 14  1  0  0  0  0
 14 15  1  0  0  0  0
 16 17  1  0  0  0  0
 17 18  1  0  0  0  0
 18 19  1  0  0  0  0
 20 21  3  0  0  0  0
M  END
>  <Index>
1307

>  <ID>
HT3263

>  <class>
0

>  <apol>
54.672203

>  <ast_fraglike>
0

>  <ast_fraglike_ext>
0

>  <ast_violation>
1

>  <ast_violation_ext>
1

>  <a_acc>
1

>  <a_acid>
0

>  <a_aro>
0

>  <a_base>
0

>  <a_count>
49

>  <a_don>
1

>  <a_donacc>
2

>  <a_heavy>
21

>  <a_hyd>
20

>  <a_IC>
54.076283

>  <a_ICM>
1.1035976

>  <a_nB>
0

>  <a_nBr>
0

>  <a_nC>
20

>  <a_nCl>
0

>  <a_nF>
0

>  <a_nH>
28

>  <a_nI>
0

>  <a_nN>
0

>  <a_nO>
1

>  <a_nP>
0

>  <a_nS>
0

>  <balabanJ>
1.6045887

>  <BCUT_PEOE_0>
-2.9335132

>  <BCUT_PEOE_1>
-0.54672623

>  <BCUT_PEOE_2>
0.59378529

>  <BCUT_PEOE_3>
2.95455

>  <BCUT_SLOGP_0>
-2.8520811

>  <BCUT_SLOGP_1>
-0.54835927

>  <BCUT_SLOGP_2>
0.5817641

>  <BCUT_SLOGP_3>
3.0267923

>  <BCUT_SMR_0>
-2.6779397

>  <BCUT_SMR_1>
-0.39201897

>  <BCUT_SMR_2>
0.73482472

>  <BCUT_SMR_3>
3.2034781

>  <bpol>
30.609797

>  <b_1rotN>
0

>  <b_1rotR>
0

>  <b_ar>
0

>  <b_count>
52

>  <b_double>
1

>  <b_heavy>
24

>  <b_max1len>
3

>  <b_rotN>
1

>  <b_rotR>
0.041666668

>  <b_single>
50

>  <b_triple>
1

>  <chi0>
14.664926

>  <chi0v>
13.275276

>  <chi0v_C>
12.828063

>  <chi0_C>
13.664926

>  <chi1>
10.089265

>  <chi1v>
8.9802094

>  <chi1v_C>
8.7566023

>  <chi1_C>
9.5892649

>  <chiral>
6

>  <chiral_u>
6

>  <density>
0.64983994

>  <diameter>
10

>  <FCharge>
0

>  <GCUT_PEOE_0>
-0.7963382

>  <GCUT_PEOE_1>
-0.3830668

>  <GCUT_PEOE_2>
0.039069381

>  <GCUT_PEOE_3>
3.2304113

>  <GCUT_SLOGP_0>
-0.88826317

>  <GCUT_SLOGP_1>
-0.31306779

>  <GCUT_SLOGP_2>
0.10048898

>  <GCUT_SLOGP_3>
3.3213131

>  <GCUT_SMR_0>
-0.53812963

>  <GCUT_SMR_1>
-0.21853787

>  <GCUT_SMR_2>
0.15742216

>  <GCUT_SMR_3>
3.4589028

>  <Kier1>
14.583333

>  <Kier2>
5

>  <Kier3>
1.9262782

>  <KierA1>
13.127686

>  <KierA2>
4.4760227

>  <KierA3>
1.7170918

>  <KierFlex>
2.7980866

>  <lip_acc>
1

>  <lip_don>
1

>  <lip_druglike>
1

>  <lip_violation>
0

>  <logP(o/w)>
4.0050001

>  <logS>
-5.6782699

>  <mr>
8.5278673

>  <mutagenic>
0

>  <nmol>
1

>  <opr_brigid>
21

>  <opr_leadlike>
1

>  <opr_nring>
4

>  <opr_nrot>
1

>  <opr_violation>
0

>  <PC+>
0

>  <PC->
0

>  <PEOE_PC+>
1.2406909

>  <PEOE_PC->
-1.2406909

>  <PEOE_RPC+>
0.17039445

>  <PEOE_RPC->
0.30304706

>  <PEOE_VSA+0>
106.63465

>  <PEOE_VSA+1>
4.2653861

>  <PEOE_VSA+2>
4.2653861

>  <PEOE_VSA+3>
0

>  <PEOE_VSA+4>
10.324173

>  <PEOE_VSA+5>
0

>  <PEOE_VSA+6>
0

>  <PEOE_VSA-0>
78.311821

>  <PEOE_VSA-1>
49.019615

>  <PEOE_VSA-2>
25.854858

>  <PEOE_VSA-3>
0

>  <PEOE_VSA-4>
0

>  <PEOE_VSA-5>
0

>  <PEOE_VSA-6>
7.7675405

>  <PEOE_VSA_FHYD>
0.93684018

>  <PEOE_VSA_FNEG>
0.56190443

>  <PEOE_VSA_FPNEG>
0.027117187

>  <PEOE_VSA_FPOL>
0.063159809

>  <PEOE_VSA_FPOS>
0.43809557

>  <PEOE_VSA_FPPOS>
0.036042623

>  <PEOE_VSA_HYD>
268.35172

>  <PEOE_VSA_NEG>
160.95383

>  <PEOE_VSA_PNEG>
7.7675405

>  <PEOE_VSA_POL>
18.091713

>  <PEOE_VSA_POS>
125.48959

>  <PEOE_VSA_PPOS>
10.324173

>  <petitjean>
0.5

>  <petitjeanSC>
1

>  <Q_PC+>
0

>  <Q_PC->
0

>  <Q_RPC+>
0

>  <Q_RPC->
0

>  <Q_VSA_FHYD>
1

>  <Q_VSA_FNEG>
0

>  <Q_VSA_FPNEG>
0

>  <Q_VSA_FPOL>
0

>  <Q_VSA_FPOS>
1

>  <Q_VSA_FPPOS>
0

>  <Q_VSA_HYD>
286.44342

>  <Q_VSA_NEG>
0

>  <Q_VSA_PNEG>
0

>  <Q_VSA_POL>
0

>  <Q_VSA_POS>
286.44342

>  <Q_VSA_PPOS>
0

>  <radius>
5

>  <reactive>
0

>  <rings>
4

>  <RPC+>
0

>  <RPC->
0

>  <rsynth>
0

>  <SlogP>
4.313508

>  <SlogP_VSA0>
25.385227

>  <SlogP_VSA1>
0

>  <SlogP_VSA2>
0

>  <SlogP_VSA3>
17.030573

>  <SlogP_VSA4>
49.131367

>  <SlogP_VSA5>
3.185575

>  <SlogP_VSA6>
0

>  <SlogP_VSA7>
17.643185

>  <SlogP_VSA8>
169.81564

>  <SlogP_VSA9>
33.326015

>  <SMR>
8.5485802

>  <SMR_VSA0>
0

>  <SMR_VSA1>
25.385227

>  <SMR_VSA2>
17.643185

>  <SMR_VSA3>
20.216148

>  <SMR_VSA4>
0

>  <SMR_VSA5>
187.45883

>  <SMR_VSA6>
31.488184

>  <SMR_VSA7>
33.326015

>  <TPSA>
20.23

>  <VAdjEq>
0.49641782

>  <VAdjMa>
5.5849624

>  <VDistEq>
2.9638689

>  <VDistMa>
8.5058784

>  <vdw_area>
286.44342

>  <vdw_vol>
437.7124

>  <vsa_acc>
0

>  <vsa_acid>
0

>  <vsa_base>
0

>  <vsa_don>
0

>  <vsa_hyd>
243.75304

>  <vsa_other>
0

>  <vsa_pol>
13.566921

>  <Weight>
284.44299

>  <weinerPath>
812

>  <weinerPol>
44

>  <zagreb>
124

$$$$