S(O)(=O)(=O)C(CC(OCC(CCCCC)CC)=O)C(OCC(CCCC)CC)=O
  MOE2013           2D

 29 28  0  0  1  0  0  0  0  0999 V2000
    0.0000    0.0000    0.0000 S   0  0  0  0  0  0  0  0  0  0  0  0
   -1.3000   -0.7490    0.0000 O   0  0  0  0  0  0  0  0  0  0  0  0
    0.7490   -1.3000    0.0000 O   0  0  0  0  0  0  0  0  0  0  0  0
   -0.7490    1.3000    0.0000 O   0  0  0  0  0  0  0  0  0  0  0  0
    1.3000    0.7490    0.0000 C   0  0  3  0  0  0  0  0  0  0  0  0
    2.5980   -0.0020    0.0000 C   0  0  0  0  0  0  0  0  0  0  0  0
    3.8980    0.7470    0.0000 C   0  0  0  0  0  0  0  0  0  0  0  0
    5.1960   -0.0050    0.0000 O   0  0  0  0  0  0  0  0  0  0  0  0
    6.4960    0.7440    0.0000 C   0  0  0  0  0  0  0  0  0  0  0  0
    7.7940   -0.0070    0.0000 C   0  0  3  0  0  0  0  0  0  0  0  0
    9.0940    0.7420    0.0000 C   0  0  0  0  0  0  0  0  0  0  0  0
   10.3920   -0.0090    0.0000 C   0  0  0  0  0  0  0  0  0  0  0  0
   11.6920    0.7400    0.0000 C   0  0  0  0  0  0  0  0  0  0  0  0
   12.9900   -0.0120    0.0000 C   0  0  0  0  0  0  0  0  0  0  0  0
   14.2900    0.7370    0.0000 C   0  0  0  0  0  0  0  0  0  0  0  0
    7.7930   -1.5070    0.0000 C   0  0  0  0  0  0  0  0  0  0  0  0
    9.0910   -2.2580    0.0000 C   0  0  0  0  0  0  0  0  0  0  0  0
    3.8990    2.2470    0.0000 O   0  0  0  0  0  0  0  0  0  0  0  0
    1.3010    2.2490    0.0000 C   0  0  0  0  0  0  0  0  0  0  0  0
    0.0030    3.0000    0.0000 O   0  0  0  0  0  0  0  0  0  0  0  0
    0.0040    4.5000    0.0000 C   0  0  0  0  0  0  0  0  0  0  0  0
   -1.2940    5.2510    0.0000 C   0  0  3  0  0  0  0  0  0  0  0  0
   -1.2930    6.7510    0.0000 C   0  0  0  0  0  0  0  0  0  0  0  0
   -2.5910    7.5020    0.0000 C   0  0  0  0  0  0  0  0  0  0  0  0
   -2.5900    9.0020    0.0000 C   0  0  0  0  0  0  0  0  0  0  0  0
   -3.8880    9.7530    0.0000 C   0  0  0  0  0  0  0  0  0  0  0  0
   -2.5940    4.5020    0.0000 C   0  0  0  0  0  0  0  0  0  0  0  0
   -3.8920    5.2530    0.0000 C   0  0  0  0  0  0  0  0  0  0  0  0
    2.6010    2.9980    0.0000 O   0  0  0  0  0  0  0  0  0  0  0  0
  1  2  1  0  0  0  0
  1  3  2  0  0  0  0
  1  4  2  0  0  0  0
  1  5  1  0  0  0  0
  5  6  1  0  0  0  0
  5 19  1  0  0  0  0
  6  7  1  0  0  0  0
  7  8  1  0  0  0  0
  7 18  2  0  0  0  0
  8  9  1  0  0  0  0
  9 10  1  0  0  0  0
 10 11  1  0  0  0  0
 10 16  1  0  0  0  0
 11 12  1  0  0  0  0
 12 13  1  0  0  0  0
 13 14  1  0  0  0  0
 14 15  1  0  0  0  0
 16 17  1  0  0  0  0
 19 20  1  0  0  0  0
 19 29  2  0  0  0  0
 20 21  1  0  0  0  0
 21 22  1  0  0  0  0
 22 23  1  0  0  0  0
 22 27  1  0  0  0  0
 23 24  1  0  0  0  0
 24 25  1  0  0  0  0
 25 26  1  0  0  0  0
 27 28  1  0  0  0  0
M  END
>  <Index>
1173

>  <ID>
HT2261

>  <class>
0

>  <apol>
72.145721

>  <ast_fraglike>
0

>  <ast_fraglike_ext>
0

>  <ast_violation>
3

>  <ast_violation_ext>
5

>  <a_acc>
5

>  <a_acid>
0

>  <a_aro>
0

>  <a_base>
0

>  <a_count>
69

>  <a_don>
3

>  <a_donacc>
8

>  <a_heavy>
29

>  <a_hyd>
19

>  <a_IC>
96.720917

>  <a_ICM>
1.4017524

>  <a_nB>
0

>  <a_nBr>
0

>  <a_nC>
21

>  <a_nCl>
0

>  <a_nF>
0

>  <a_nH>
40

>  <a_nI>
0

>  <a_nN>
0

>  <a_nO>
7

>  <a_nP>
0

>  <a_nS>
1

>  <balabanJ>
4.6132884

>  <BCUT_PEOE_0>
-2.7293761

>  <BCUT_PEOE_1>
-0.30925068

>  <BCUT_PEOE_2>
0.22712038

>  <BCUT_PEOE_3>
2.7261624

>  <BCUT_SLOGP_0>
-2.6879811

>  <BCUT_SLOGP_1>
-0.38276449

>  <BCUT_SLOGP_2>
0.25485954

>  <BCUT_SLOGP_3>
2.8000021

>  <BCUT_SMR_0>
-2.4843705

>  <BCUT_SMR_1>
-0.094761766

>  <BCUT_SMR_2>
0.29063323

>  <BCUT_SMR_3>
2.9425437

>  <bpol>
55.952278

>  <b_1rotN>
17

>  <b_1rotR>
0.60714287

>  <b_ar>
0

>  <b_count>
68

>  <b_double>
2

>  <b_heavy>
28

>  <b_max1len>
9

>  <b_rotN>
19

>  <b_rotR>
0.6785714

>  <b_single>
66

>  <b_triple>
0

>  <chi0>
22.286245

>  <chi0v>
19.338779

>  <chi0v_C>
15.217332

>  <chi0_C>
15.372033

>  <chi1>
13.687619

>  <chi1v>
12.47707

>  <chi1v_C>
8.8283939

>  <chi1_C>
8.9277468

>  <chiral>
3

>  <chiral_u>
3

>  <density>
0.73067027

>  <diameter>
18

>  <FCharge>
0

>  <GCUT_PEOE_0>
-0.80023605

>  <GCUT_PEOE_1>
-0.35523453

>  <GCUT_PEOE_2>
-0.04774078

>  <GCUT_PEOE_3>
2.8118575

>  <GCUT_SLOGP_0>
-0.90510362

>  <GCUT_SLOGP_1>
-0.29405686

>  <GCUT_SLOGP_2>
-0.0057525993

>  <GCUT_SLOGP_3>
2.8418641

>  <GCUT_SMR_0>
-0.53400922

>  <GCUT_SMR_1>
-0.14429885

>  <GCUT_SMR_2>
0.015542662

>  <GCUT_SMR_3>
3.0166457

>  <Kier1>
29

>  <Kier2>
16.662857

>  <Kier3>
13.826151

>  <KierA1>
28.693939

>  <KierA2>
16.480587

>  <KierA3>
13.671

>  <KierFlex>
16.306654

>  <lip_acc>
7

>  <lip_don>
1

>  <lip_druglike>
1

>  <lip_violation>
0

>  <logP(o/w)>
5.5

>  <logS>
-6.4078302

>  <mr>
11.616727

>  <mutagenic>
0

>  <nmol>
1

>  <opr_brigid>
0

>  <opr_leadlike>
0

>  <opr_nring>
0

>  <opr_nrot>
17

>  <opr_violation>
2

>  <PC+>
0

>  <PC->
0

>  <PEOE_PC+>
2.6567647

>  <PEOE_PC->
-2.6567647

>  <PEOE_RPC+>
0.13727337

>  <PEOE_RPC->
0.11842976

>  <PEOE_VSA+0>
145.02312

>  <PEOE_VSA+1>
68.801086

>  <PEOE_VSA+2>
8.701313

>  <PEOE_VSA+3>
4.2653861

>  <PEOE_VSA+4>
0

>  <PEOE_VSA+5>
14.708499

>  <PEOE_VSA+6>
15.33951

>  <PEOE_VSA-0>
17.402626

>  <PEOE_VSA-1>
135.8999

>  <PEOE_VSA-2>
0

>  <PEOE_VSA-3>
0

>  <PEOE_VSA-4>
32.016521

>  <PEOE_VSA-5>
27.133842

>  <PEOE_VSA-6>
15.216393

>  <PEOE_VSA_FHYD>
0.78449327

>  <PEOE_VSA_FNEG>
0.46989769

>  <PEOE_VSA_FPNEG>
0.15348916

>  <PEOE_VSA_FPOL>
0.2155067

>  <PEOE_VSA_FPOS>
0.53010231

>  <PEOE_VSA_FPPOS>
0.062017545

>  <PEOE_VSA_HYD>
380.09344

>  <PEOE_VSA_NEG>
227.66928

>  <PEOE_VSA_PNEG>
74.36676

>  <PEOE_VSA_POL>
104.41476

>  <PEOE_VSA_POS>
256.83893

>  <PEOE_VSA_PPOS>
30.04801

>  <petitjean>
0.5

>  <petitjeanSC>
1

>  <Q_PC+>
0

>  <Q_PC->
0

>  <Q_RPC+>
0

>  <Q_RPC->
0

>  <Q_VSA_FHYD>
1

>  <Q_VSA_FNEG>
0

>  <Q_VSA_FPNEG>
0

>  <Q_VSA_FPOL>
0

>  <Q_VSA_FPOS>
1

>  <Q_VSA_FPPOS>
0

>  <Q_VSA_HYD>
484.50821

>  <Q_VSA_NEG>
0

>  <Q_VSA_PNEG>
0

>  <Q_VSA_POL>
0

>  <Q_VSA_POS>
484.50821

>  <Q_VSA_PPOS>
0

>  <radius>
9

>  <reactive>
0

>  <rings>
0

>  <RPC+>
0

>  <RPC->
0

>  <rsynth>
0.65517241

>  <SlogP>
3.9765

>  <SlogP_VSA0>
22.930752

>  <SlogP_VSA1>
63.662617

>  <SlogP_VSA2>
81.083313

>  <SlogP_VSA3>
41.852516

>  <SlogP_VSA4>
8.8215923

>  <SlogP_VSA5>
0

>  <SlogP_VSA6>
0

>  <SlogP_VSA7>
0

>  <SlogP_VSA8>
188.68405

>  <SlogP_VSA9>
133.30406

>  <SMR>
11.26906

>  <SMR_VSA0>
117.8959

>  <SMR_VSA1>
22.930752

>  <SMR_VSA2>
8.8215923

>  <SMR_VSA3>
2.7759552

>  <SMR_VSA4>
0

>  <SMR_VSA5>
188.68405

>  <SMR_VSA6>
57.343445

>  <SMR_VSA7>
141.88721

>  <TPSA>
106.97

>  <VAdjEq>
0.35305744

>  <VAdjMa>
5.8073549

>  <VDistEq>
3.8469846

>  <VDistMa>
9.41576

>  <vdw_area>
484.50821

>  <vdw_vol>
597.54724

>  <vsa_acc>
27.133842

>  <vsa_acid>
0

>  <vsa_base>
0

>  <vsa_don>
0

>  <vsa_hyd>
328.43738

>  <vsa_other>
45.937294

>  <vsa_pol>
75.158623

>  <Weight>
436.60999

>  <weinerPath>
2694

>  <weinerPol>
37

>  <zagreb>
126

$$$$