F[C@]12[C@H]([C@@H]3C[C@H](C)[C@@](OC(=O)CCCC)(C(=O)CO)[C@@]3(C[C@@H]1O)C)CCC1=CC(=O)C=C[C@]12C
  MOE2013           2D

 34 37  0  0  1  0  0  0  0  0999 V2000
    0.0000    0.0000    0.0000 F   0  0  0  0  0  0  0  0  0  0  0  0
    1.5000    0.0130    0.0000 C   0  0  2  0  0  0  0  0  0  0  0  0
    0.7610   -1.2930    0.0000 C   0  0  2  0  0  0  0  0  0  0  0  0
   -0.7390   -1.3050    0.0000 C   0  0  2  0  0  0  0  0  0  0  0  0
   -1.7330   -2.4290    0.0000 C   0  0  0  0  0  0  0  0  0  0  0  0
   -3.1080   -1.8300    0.0000 C   0  0  2  0  0  0  0  0  0  0  0  0
   -4.4010   -2.5910    0.0000 C   0  0  0  0  0  0  0  0  0  0  0  0
   -2.9640   -0.3370    0.0000 C   0  0  1  0  0  0  0  0  0  0  0  0
   -3.4650    1.0770    0.0000 O   0  0  0  0  0  0  0  0  0  0  0  0
   -2.4910    2.2170    0.0000 C   0  0  0  0  0  0  0  0  0  0  0  0
   -1.0160    1.9440    0.0000 O   0  0  0  0  0  0  0  0  0  0  0  0
   -2.9910    3.6310    0.0000 C   0  0  0  0  0  0  0  0  0  0  0  0
   -2.0170    4.7720    0.0000 C   0  0  0  0  0  0  0  0  0  0  0  0
   -2.5170    6.1860    0.0000 C   0  0  0  0  0  0  0  0  0  0  0  0
   -1.5430    7.3260    0.0000 C   0  0  0  0  0  0  0  0  0  0  0  0
   -4.4480   -0.1150    0.0000 C   0  0  0  0  0  0  0  0  0  0  0  0
   -4.9970    1.2810    0.0000 O   0  0  0  0  0  0  0  0  0  0  0  0
   -5.3820   -1.2890    0.0000 C   0  0  0  0  0  0  0  0  0  0  0  0
   -6.8650   -1.0670    0.0000 O   0  0  0  0  0  0  0  0  0  0  0  0
   -1.5000   -0.0130    0.0000 C   0  0  2  0  0  0  0  0  0  0  0  0
   -0.7610    1.2930    0.0000 C   0  0  0  0  0  0  0  0  0  0  0  0
    0.7390    1.3050    0.0000 C   0  0  2  0  0  0  0  0  0  0  0  0
    1.4780    2.6110    0.0000 O   0  0  0  0  0  0  0  0  0  0  0  0
   -2.3710    1.2090    0.0000 C   0  0  0  0  0  0  0  0  0  0  0  0
    1.5220   -2.5850    0.0000 C   0  0  0  0  0  0  0  0  0  0  0  0
    3.0220   -2.5720    0.0000 C   0  0  0  0  0  0  0  0  0  0  0  0
    3.7610   -1.2670    0.0000 C   0  0  0  0  0  0  0  0  0  0  0  0
    5.2610   -1.2540    0.0000 C   0  0  0  0  0  0  0  0  0  0  0  0
    6.0000    0.0510    0.0000 C   0  0  0  0  0  0  0  0  0  0  0  0
    7.5000    0.0640    0.0000 O   0  0  0  0  0  0  0  0  0  0  0  0
    5.2390    1.3440    0.0000 C   0  0  0  0  0  0  0  0  0  0  0  0
    3.7390    1.3310    0.0000 C   0  0  0  0  0  0  0  0  0  0  0  0
    3.0000    0.0260    0.0000 C   0  0  1  0  0  0  0  0  0  0  0  0
    2.2390    1.3180    0.0000 C   0  0  0  0  0  0  0  0  0  0  0  0
  2  1  1  6  0  0  0
  2  3  1  0  0  0  0
  2 22  1  0  0  0  0
  2 33  1  0  0  0  0
  3  4  1  0  0  0  0
  3 25  1  1  0  0  0
  4  5  1  6  0  0  0
  4 20  1  0  0  0  0
  5  6  1  0  0  0  0
  6  7  1  6  0  0  0
  6  8  1  0  0  0  0
  8  9  1  6  0  0  0
  8 16  1  1  0  0  0
  8 20  1  0  0  0  0
  9 10  1  0  0  0  0
 10 11  2  0  0  0  0
 10 12  1  0  0  0  0
 12 13  1  0  0  0  0
 13 14  1  0  0  0  0
 14 15  1  0  0  0  0
 16 17  2  0  0  0  0
 16 18  1  0  0  0  0
 18 19  1  0  0  0  0
 20 21  1  0  0  0  0
 20 24  1  1  0  0  0
 21 22  1  0  0  0  0
 22 23  1  6  0  0  0
 25 26  1  0  0  0  0
 26 27  1  0  0  0  0
 27 28  2  0  0  0  0
 27 33  1  0  0  0  0
 28 29  1  0  0  0  0
 29 30  2  0  0  0  0
 29 31  1  0  0  0  0
 31 32  2  0  0  0  0
 32 33  1  0  0  0  0
 33 34  1  1  0  0  0
M  END
>  <Index>
135

>  <ID>
HT0272

>  <class>
0

>  <apol>
77.560341

>  <ast_fraglike>
0

>  <ast_fraglike_ext>
0

>  <ast_violation>
3

>  <ast_violation_ext>
5

>  <a_acc>
5

>  <a_acid>
0

>  <a_aro>
0

>  <a_base>
0

>  <a_count>
71

>  <a_don>
2

>  <a_donacc>
7

>  <a_heavy>
34

>  <a_hyd>
25

>  <a_IC>
99.990532

>  <a_ICM>
1.4083173

>  <a_nB>
0

>  <a_nBr>
0

>  <a_nC>
27

>  <a_nCl>
0

>  <a_nF>
1

>  <a_nH>
37

>  <a_nI>
0

>  <a_nN>
0

>  <a_nO>
6

>  <a_nP>
0

>  <a_nS>
0

>  <balabanJ>
1.7440602

>  <BCUT_PEOE_0>
-2.898308

>  <BCUT_PEOE_1>
-0.50155449

>  <BCUT_PEOE_2>
0.47532749

>  <BCUT_PEOE_3>
3.0033193

>  <BCUT_SLOGP_0>
-2.9225011

>  <BCUT_SLOGP_1>
-0.43347871

>  <BCUT_SLOGP_2>
0.50877142

>  <BCUT_SLOGP_3>
2.9996772

>  <BCUT_SMR_0>
-2.6719229

>  <BCUT_SMR_1>
-0.33548722

>  <BCUT_SMR_2>
0.62765998

>  <BCUT_SMR_3>
3.2282803

>  <bpol>
46.441658

>  <b_1rotN>
6

>  <b_1rotR>
0.16216215

>  <b_ar>
0

>  <b_count>
74

>  <b_double>
5

>  <b_heavy>
37

>  <b_max1len>
5

>  <b_rotN>
7

>  <b_rotR>
0.1891892

>  <b_single>
69

>  <b_triple>
0

>  <chi0>
25.104084

>  <chi0v>
20.603691

>  <chi0v_C>
17.698307

>  <chi0_C>
18.396976

>  <chi1>
15.917741

>  <chi1v>
12.591762

>  <chi1v_C>
10.807732

>  <chi1_C>
11.639431

>  <chiral>
8

>  <chiral_u>
0

>  <density>
0.74410516

>  <diameter>
15

>  <FCharge>
0

>  <GCUT_PEOE_0>
-0.79037392

>  <GCUT_PEOE_1>
-0.42281699

>  <GCUT_PEOE_2>
0.01087757

>  <GCUT_PEOE_3>
3.4539342

>  <GCUT_SLOGP_0>
-0.94086474

>  <GCUT_SLOGP_1>
-0.31824178

>  <GCUT_SLOGP_2>
-0.0035301268

>  <GCUT_SLOGP_3>
3.476481

>  <GCUT_SMR_0>
-0.53789955

>  <GCUT_SMR_1>
-0.2239839

>  <GCUT_SMR_2>
0.14499748

>  <GCUT_SMR_3>
3.6692622

>  <Kier1>
27.046019

>  <Kier2>
9.3866663

>  <Kier3>
3.6702509

>  <KierA1>
23.603024

>  <KierA2>
8.1564741

>  <KierA3>
3.179584

>  <KierFlex>
5.6622777

>  <lip_acc>
6

>  <lip_don>
2

>  <lip_druglike>
1

>  <lip_violation>
0

>  <logP(o/w)>
4.099

>  <logS>
-5.0294099

>  <mr>
12.553579

>  <mutagenic>
0

>  <nmol>
1

>  <opr_brigid>
20

>  <opr_leadlike>
1

>  <opr_nring>
4

>  <opr_nrot>
6

>  <opr_violation>
1

>  <PC+>
0

>  <PC->
0

>  <PEOE_PC+>
2.80604

>  <PEOE_PC->
-2.80604

>  <PEOE_RPC+>
0.09375833

>  <PEOE_RPC->
0.13848005

>  <PEOE_VSA+0>
132.39751

>  <PEOE_VSA+1>
30.497244

>  <PEOE_VSA+2>
14.951293

>  <PEOE_VSA+3>
16.917038

>  <PEOE_VSA+4>
20.648346

>  <PEOE_VSA+5>
14.708499

>  <PEOE_VSA+6>
0

>  <PEOE_VSA-0>
86.764053

>  <PEOE_VSA-1>
79.407791

>  <PEOE_VSA-2>
0

>  <PEOE_VSA-3>
0

>  <PEOE_VSA-4>
11.908636

>  <PEOE_VSA-5>
43.204517

>  <PEOE_VSA-6>
15.535081

>  <PEOE_VSA_FHYD>
0.77297926

>  <PEOE_VSA_FNEG>
0.50717455

>  <PEOE_VSA_FPNEG>
0.15130046

>  <PEOE_VSA_FPOL>
0.22702077

>  <PEOE_VSA_FPOS>
0.49282548

>  <PEOE_VSA_FPPOS>
0.075720318

>  <PEOE_VSA_HYD>
360.93494

>  <PEOE_VSA_NEG>
236.82008

>  <PEOE_VSA_PNEG>
70.648232

>  <PEOE_VSA_POL>
106.00508

>  <PEOE_VSA_POS>
230.11993

>  <PEOE_VSA_PPOS>
35.356846

>  <petitjean>
0.46666667

>  <petitjeanSC>
0.875

>  <Q_PC+>
0

>  <Q_PC->
0

>  <Q_RPC+>
0

>  <Q_RPC->
0

>  <Q_VSA_FHYD>
1

>  <Q_VSA_FNEG>
0

>  <Q_VSA_FPNEG>
0

>  <Q_VSA_FPOL>
0

>  <Q_VSA_FPOS>
1

>  <Q_VSA_FPPOS>
0

>  <Q_VSA_HYD>
466.94

>  <Q_VSA_NEG>
0

>  <Q_VSA_PNEG>
0

>  <Q_VSA_POL>
0

>  <Q_VSA_POS>
466.94

>  <Q_VSA_PPOS>
0

>  <radius>
8

>  <reactive>
1

>  <rings>
4

>  <RPC+>
0

>  <RPC->
0

>  <rsynth>
0.44117647

>  <SlogP>
3.6368001

>  <SlogP_VSA0>
50.770454

>  <SlogP_VSA1>
19.120686

>  <SlogP_VSA2>
89.055183

>  <SlogP_VSA3>
20.926258

>  <SlogP_VSA4>
13.232388

>  <SlogP_VSA5>
3.185575

>  <SlogP_VSA6>
0

>  <SlogP_VSA7>
52.929554

>  <SlogP_VSA8>
132.07884

>  <SlogP_VSA9>
148.26418

>  <SMR>
12.33426

>  <SMR_VSA0>
82.58654

>  <SMR_VSA1>
65.730568

>  <SMR_VSA2>
13.232388

>  <SMR_VSA3>
9.6542244

>  <SMR_VSA4>
0

>  <SMR_VSA5>
185.00839

>  <SMR_VSA6>
40.046944

>  <SMR_VSA7>
133.30406

>  <TPSA>
100.9

>  <VAdjEq>
0.34317648

>  <VAdjMa>
6.2094536

>  <VDistEq>
3.445457

>  <VDistMa>
9.9176168

>  <vdw_area>
466.94

>  <vdw_vol>
640.48065

>  <vsa_acc>
40.700764

>  <vsa_acid>
0

>  <vsa_base>
0

>  <vsa_don>
0

>  <vsa_hyd>
326.97855

>  <vsa_other>
34.129295

>  <vsa_pol>
67.834602

>  <Weight>
476.58499

>  <weinerPath>
2955

>  <weinerPol>
79

>  <zagreb>
194

$$$$