O1C(COC(=O)c2c3n(Cc4ccc(cc4)C4=CCCC=C4C=4NC(ON=4)=O)c(OCC)nc3ccc2)=C(OC1=O)C
  MOE2013           2D

 42 47  0  0  0  0  0  0  0  0999 V2000
    0.0000    0.0000    0.0000 O   0  0  0  0  0  0  0  0  0  0  0  0
   -1.3700    0.6100    0.0000 C   0  0  0  0  0  0  0  0  0  0  0  0
   -2.6690   -0.1390    0.0000 C   0  0  0  0  0  0  0  0  0  0  0  0
   -2.6700   -1.6390    0.0000 O   0  0  0  0  0  0  0  0  0  0  0  0
   -3.9690   -2.3890    0.0000 C   0  0  0  0  0  0  0  0  0  0  0  0
   -5.2680   -1.6390    0.0000 O   0  0  0  0  0  0  0  0  0  0  0  0
   -3.9690   -3.8890    0.0000 C   0  0  0  0  0  0  0  0  0  0  0  0
   -5.2690   -4.6390    0.0000 C   0  0  0  0  0  0  0  0  0  0  0  0
   -6.6950   -4.1750    0.0000 N   0  0  0  0  0  0  0  0  0  0  0  0
   -7.1580   -2.7480    0.0000 C   0  0  0  0  0  0  0  0  0  0  0  0
   -8.6250   -2.4360    0.0000 C   0  0  0  0  0  0  0  0  0  0  0  0
   -9.0890   -1.0090    0.0000 C   0  0  0  0  0  0  0  0  0  0  0  0
  -10.5560   -0.6970    0.0000 C   0  0  0  0  0  0  0  0  0  0  0  0
  -11.5600   -1.8110    0.0000 C   0  0  0  0  0  0  0  0  0  0  0  0
  -11.0970   -3.2380    0.0000 C   0  0  0  0  0  0  0  0  0  0  0  0
   -9.6290   -3.5500    0.0000 C   0  0  0  0  0  0  0  0  0  0  0  0
  -13.0270   -1.4990    0.0000 C   0  0  0  0  0  0  0  0  0  0  0  0
  -14.0310   -2.6130    0.0000 C   0  0  0  0  0  0  0  0  0  0  0  0
  -15.4980   -2.3010    0.0000 C   0  0  0  0  0  0  0  0  0  0  0  0
  -15.9610   -0.8740    0.0000 C   0  0  0  0  0  0  0  0  0  0  0  0
  -14.9570    0.2400    0.0000 C   0  0  0  0  0  0  0  0  0  0  0  0
  -13.4900   -0.0720    0.0000 C   0  0  0  0  0  0  0  0  0  0  0  0
  -12.4860    1.0420    0.0000 C   0  0  0  0  0  0  0  0  0  0  0  0
  -12.7970    2.5100    0.0000 N   0  0  0  0  0  0  0  0  0  0  0  0
  -11.4980    3.2590    0.0000 C   0  0  0  0  0  0  0  0  0  0  0  0
  -10.3840    2.2550    0.0000 O   0  0  0  0  0  0  0  0  0  0  0  0
  -10.9940    0.8850    0.0000 N   0  0  0  0  0  0  0  0  0  0  0  0
  -11.3410    4.7510    0.0000 O   0  0  0  0  0  0  0  0  0  0  0  0
   -7.5770   -5.3880    0.0000 C   0  0  0  0  0  0  0  0  0  0  0  0
   -9.0770   -5.3880    0.0000 O   0  0  0  0  0  0  0  0  0  0  0  0
   -9.8270   -6.6860    0.0000 C   0  0  0  0  0  0  0  0  0  0  0  0
  -11.3270   -6.6860    0.0000 C   0  0  0  0  0  0  0  0  0  0  0  0
   -6.6960   -6.6020    0.0000 N   0  0  0  0  0  0  0  0  0  0  0  0
   -5.2690   -6.1390    0.0000 C   0  0  0  0  0  0  0  0  0  0  0  0
   -3.9700   -6.8890    0.0000 C   0  0  0  0  0  0  0  0  0  0  0  0
   -2.6710   -6.1390    0.0000 C   0  0  0  0  0  0  0  0  0  0  0  0
   -2.6710   -4.6390    0.0000 C   0  0  0  0  0  0  0  0  0  0  0  0
   -1.2130    2.1020    0.0000 C   0  0  0  0  0  0  0  0  0  0  0  0
    0.2540    2.4140    0.0000 O   0  0  0  0  0  0  0  0  0  0  0  0
    1.0040    1.1140    0.0000 C   0  0  0  0  0  0  0  0  0  0  0  0
    2.4960    0.9570    0.0000 O   0  0  0  0  0  0  0  0  0  0  0  0
   -2.3270    3.1060    0.0000 C   0  0  0  0  0  0  0  0  0  0  0  0
  1  2  1  0  0  0  0
  1 40  1  0  0  0  0
  2  3  1  0  0  0  0
  2 38  2  0  0  0  0
  3  4  1  0  0  0  0
  4  5  1  0  0  0  0
  5  6  2  0  0  0  0
  5  7  1  0  0  0  0
  7  8  1  0  0  0  0
  7 37  2  0  0  0  0
  8  9  1  0  0  0  0
  8 34  2  0  0  0  0
  9 10  1  0  0  0  0
  9 29  1  0  0  0  0
 10 11  1  0  0  0  0
 11 12  1  0  0  0  0
 11 16  2  0  0  0  0
 12 13  2  0  0  0  0
 13 14  1  0  0  0  0
 14 15  2  0  0  0  0
 14 17  1  0  0  0  0
 15 16  1  0  0  0  0
 17 18  2  0  0  0  0
 17 22  1  0  0  0  0
 18 19  1  0  0  0  0
 19 20  1  0  0  0  0
 20 21  1  0  0  0  0
 21 22  2  0  0  0  0
 22 23  1  0  0  0  0
 23 24  1  0  0  0  0
 23 27  2  0  0  0  0
 24 25  1  0  0  0  0
 25 26  1  0  0  0  0
 25 28  2  0  0  0  0
 26 27  1  0  0  0  0
 29 30  1  0  0  0  0
 29 33  2  0  0  0  0
 30 31  1  0  0  0  0
 31 32  1  0  0  0  0
 33 34  1  0  0  0  0
 34 35  1  0  0  0  0
 35 36  2  0  0  0  0
 36 37  1  0  0  0  0
 38 39  1  0  0  0  0
 38 42  1  0  0  0  0
 39 40  1  0  0  0  0
 40 41  2  0  0  0  0
M  END
>  <Index>
104

>  <ID>
HT0217

>  <class>
0

>  <apol>
80.952621

>  <ast_fraglike>
0

>  <ast_fraglike_ext>
0

>  <ast_violation>
3

>  <ast_violation_ext>
5

>  <a_acc>
5

>  <a_acid>
0

>  <a_aro>
15

>  <a_base>
0

>  <a_count>
68

>  <a_don>
1

>  <a_donacc>
6

>  <a_heavy>
42

>  <a_hyd>
25

>  <a_IC>
112.52932

>  <a_ICM>
1.654843

>  <a_nB>
0

>  <a_nBr>
0

>  <a_nC>
30

>  <a_nCl>
0

>  <a_nF>
0

>  <a_nH>
26

>  <a_nI>
0

>  <a_nN>
4

>  <a_nO>
8

>  <a_nP>
0

>  <a_nS>
0

>  <balabanJ>
1.0653349

>  <BCUT_PEOE_0>
-2.4972825

>  <BCUT_PEOE_1>
-0.59836274

>  <BCUT_PEOE_2>
0.64367831

>  <BCUT_PEOE_3>
2.4666388

>  <BCUT_SLOGP_0>
-2.4341307

>  <BCUT_SLOGP_1>
-0.50488722

>  <BCUT_SLOGP_2>
0.75851482

>  <BCUT_SLOGP_3>
2.619359

>  <BCUT_SMR_0>
-2.2144806

>  <BCUT_SMR_1>
-0.42596585

>  <BCUT_SMR_2>
0.83144552

>  <BCUT_SMR_3>
2.7717113

>  <bpol>
44.837383

>  <b_1rotN>
9

>  <b_1rotR>
0.19148937

>  <b_ar>
16

>  <b_count>
73

>  <b_double>
7

>  <b_heavy>
47

>  <b_max1len>
3

>  <b_rotN>
10

>  <b_rotR>
0.21276596

>  <b_single>
50

>  <b_triple>
0

>  <chi0>
29.216602

>  <chi0v>
22.839314

>  <chi0v_C>
17.731686

>  <chi0_C>
19.982399

>  <chi1>
20.406219

>  <chi1v>
13.358872

>  <chi1v_C>
8.6234446

>  <chi1_C>
11.200274

>  <chiral>
0

>  <chiral_u>
0

>  <density>
0.79344809

>  <diameter>
20

>  <FCharge>
0

>  <GCUT_PEOE_0>
-0.81277692

>  <GCUT_PEOE_1>
-0.4266738

>  <GCUT_PEOE_2>
0.070134275

>  <GCUT_PEOE_3>
2.7684019

>  <GCUT_SLOGP_0>
-1.173142

>  <GCUT_SLOGP_1>
-0.29772127

>  <GCUT_SLOGP_2>
0.15546174

>  <GCUT_SLOGP_3>
2.8742144

>  <GCUT_SMR_0>
-0.51368326

>  <GCUT_SMR_1>
-0.20354202

>  <GCUT_SMR_2>
0.18943204

>  <GCUT_SMR_3>
3.0603428

>  <Kier1>
31.961069

>  <Kier2>
14.6135

>  <Kier3>
7.3724008

>  <KierA1>
23.210974

>  <KierA2>
10.524109

>  <KierA3>
5.2784243

>  <KierFlex>
5.8160672

>  <lip_acc>
12

>  <lip_don>
1

>  <lip_druglike>
0

>  <lip_violation>
3

>  <logP(o/w)>
5.8309999

>  <logS>
-9.6024799

>  <mr>
14.995243

>  <mutagenic>
0

>  <nmol>
1

>  <opr_brigid>
32

>  <opr_leadlike>
0

>  <opr_nring>
6

>  <opr_nrot>
9

>  <opr_violation>
4

>  <PC+>
0

>  <PC->
0

>  <PEOE_PC+>
3.5795746

>  <PEOE_PC->
-3.5795746

>  <PEOE_RPC+>
0.11628205

>  <PEOE_RPC->
0.087896459

>  <PEOE_VSA+0>
44.8624

>  <PEOE_VSA+1>
116.19057

>  <PEOE_VSA+2>
23.409813

>  <PEOE_VSA+3>
19.809576

>  <PEOE_VSA+4>
17.440542

>  <PEOE_VSA+5>
14.708499

>  <PEOE_VSA+6>
40.15799

>  <PEOE_VSA-0>
86.033409

>  <PEOE_VSA-1>
85.784325

>  <PEOE_VSA-2>
10.885262

>  <PEOE_VSA-3>
5.9023595

>  <PEOE_VSA-4>
32.816418

>  <PEOE_VSA-5>
18.711325

>  <PEOE_VSA-6>
5.0075121

>  <PEOE_VSA_FHYD>
0.75304323

>  <PEOE_VSA_FNEG>
0.46987006

>  <PEOE_VSA_FPNEG>
0.10836321

>  <PEOE_VSA_FPOL>
0.24695677

>  <PEOE_VSA_FPOS>
0.53012991

>  <PEOE_VSA_FPPOS>
0.13859355

>  <PEOE_VSA_HYD>
392.87772

>  <PEOE_VSA_NEG>
245.14061

>  <PEOE_VSA_PNEG>
56.535255

>  <PEOE_VSA_POL>
128.84229

>  <PEOE_VSA_POS>
276.57938

>  <PEOE_VSA_PPOS>
72.30703

>  <petitjean>
0.5

>  <petitjeanSC>
1

>  <Q_PC+>
0

>  <Q_PC->
0

>  <Q_RPC+>
0

>  <Q_RPC->
0

>  <Q_VSA_FHYD>
1

>  <Q_VSA_FNEG>
0

>  <Q_VSA_FPNEG>
0

>  <Q_VSA_FPOL>
0

>  <Q_VSA_FPOS>
1

>  <Q_VSA_FPPOS>
0

>  <Q_VSA_HYD>
521.71997

>  <Q_VSA_NEG>
0

>  <Q_VSA_PNEG>
0

>  <Q_VSA_POL>
0

>  <Q_VSA_POS>
521.71997

>  <Q_VSA_PPOS>
0

>  <radius>
10

>  <reactive>
0

>  <rings>
6

>  <RPC+>
0

>  <RPC->
0

>  <rsynth>
0.66666669

>  <SlogP>
5.4617

>  <SlogP_VSA0>
29.010639

>  <SlogP_VSA1>
45.87796

>  <SlogP_VSA2>
44.218426

>  <SlogP_VSA3>
41.852516

>  <SlogP_VSA4>
33.418941

>  <SlogP_VSA5>
33.072292

>  <SlogP_VSA6>
0

>  <SlogP_VSA7>
166.26251

>  <SlogP_VSA8>
37.736813

>  <SlogP_VSA9>
137.20181

>  <SMR>
14.95452

>  <SMR_VSA0>
115.80508

>  <SMR_VSA1>
49.084373

>  <SMR_VSA2>
18.01075

>  <SMR_VSA3>
27.614929

>  <SMR_VSA4>
7.4738488

>  <SMR_VSA5>
214.96504

>  <SMR_VSA6>
69.045853

>  <SMR_VSA7>
66.652031

>  <TPSA>
139.57001

>  <VAdjEq>
0.3002032

>  <VAdjMa>
6.5545888

>  <VDistEq>
4.0636835

>  <VDistMa>
10.49245

>  <vdw_area>
521.71997

>  <vdw_vol>
719.08673

>  <vsa_acc>
57.2686

>  <vsa_acid>
0

>  <vsa_base>
0

>  <vsa_don>
5.6825762

>  <vsa_hyd>
338.48563

>  <vsa_other>
99.414978

>  <vsa_pol>
62.951176

>  <Weight>
570.55798

>  <weinerPath>
6643

>  <weinerPol>
68

>  <zagreb>
228

$$$$