O1C[C@@H](NC1=O)Cc1cc2c([nH]cc2CCN(C)C)cc1
  MOE2013           2D

 21 23  0  0  1  0  0  0  0  0999 V2000
    0.0000    0.0000    0.0000 O   0  0  0  0  0  0  0  0  0  0  0  0
    1.4980   -0.0790    0.0000 C   0  0  0  0  0  0  0  0  0  0  0  0
    2.0360    1.3210    0.0000 C   0  0  1  0  0  0  0  0  0  0  0  0
    0.8700    2.2660    0.0000 N   0  0  0  0  0  0  0  0  0  0  0  0
   -0.3880    1.4490    0.0000 C   0  0  0  0  0  0  0  0  0  0  0  0
   -1.7880    1.9870    0.0000 O   0  0  0  0  0  0  0  0  0  0  0  0
    3.4850    1.7090    0.0000 C   0  0  0  0  0  0  0  0  0  0  0  0
    4.5450    0.6490    0.0000 C   0  0  0  0  0  0  0  0  0  0  0  0
    5.9940    1.0370    0.0000 C   0  0  0  0  0  0  0  0  0  0  0  0
    7.0550   -0.0240    0.0000 C   0  0  0  0  0  0  0  0  0  0  0  0
    6.6660   -1.4730    0.0000 C   0  0  0  0  0  0  0  0  0  0  0  0
    7.9240   -2.2900    0.0000 N   0  0  0  0  0  0  0  0  0  0  0  0
    9.0900   -1.3470    0.0000 C   0  0  0  0  0  0  0  0  0  0  0  0
    8.5530    0.0540    0.0000 C   0  0  0  0  0  0  0  0  0  0  0  0
    9.3700    1.3120    0.0000 C   0  0  0  0  0  0  0  0  0  0  0  0
   10.8680    1.2330    0.0000 C   0  0  0  0  0  0  0  0  0  0  0  0
   11.6850    2.4910    0.0000 N   0  0  0  0  0  0  0  0  0  0  0  0
   13.1830    2.4120    0.0000 C   0  0  0  0  0  0  0  0  0  0  0  0
   11.0040    3.8280    0.0000 C   0  0  0  0  0  0  0  0  0  0  0  0
    5.2170   -1.8610    0.0000 C   0  0  0  0  0  0  0  0  0  0  0  0
    4.1570   -0.8000    0.0000 C   0  0  0  0  0  0  0  0  0  0  0  0
  1  2  1  0  0  0  0
  1  5  1  0  0  0  0
  2  3  1  0  0  0  0
  3  4  1  0  0  0  0
  3  7  1  1  0  0  0
  4  5  1  0  0  0  0
  5  6  2  0  0  0  0
  7  8  1  0  0  0  0
  8  9  1  0  0  0  0
  8 21  2  0  0  0  0
  9 10  2  0  0  0  0
 10 11  1  0  0  0  0
 10 14  1  0  0  0  0
 11 12  1  0  0  0  0
 11 20  2  0  0  0  0
 12 13  1  0  0  0  0
 13 14  2  0  0  0  0
 14 15  1  0  0  0  0
 15 16  1  0  0  0  0
 16 17  1  0  0  0  0
 17 18  1  0  0  0  0
 17 19  1  0  0  0  0
 20 21  1  0  0  0  0
M  END
>  <Index>
1166

>  <ID>
HT2219

>  <class>
0

>  <apol>
47.066654

>  <ast_fraglike>
1

>  <ast_fraglike_ext>
0

>  <ast_violation>
0

>  <ast_violation_ext>
1

>  <a_acc>
2

>  <a_acid>
0

>  <a_aro>
9

>  <a_base>
0

>  <a_count>
42

>  <a_don>
2

>  <a_donacc>
4

>  <a_heavy>
21

>  <a_hyd>
15

>  <a_IC>
63.48378

>  <a_ICM>
1.5115185

>  <a_nB>
0

>  <a_nBr>
0

>  <a_nC>
16

>  <a_nCl>
0

>  <a_nF>
0

>  <a_nH>
21

>  <a_nI>
0

>  <a_nN>
3

>  <a_nO>
2

>  <a_nP>
0

>  <a_nS>
0

>  <balabanJ>
1.4953872

>  <BCUT_PEOE_0>
-2.6036913

>  <BCUT_PEOE_1>
-0.45693067

>  <BCUT_PEOE_2>
0.53842294

>  <BCUT_PEOE_3>
2.6191194

>  <BCUT_SLOGP_0>
-2.6829512

>  <BCUT_SLOGP_1>
-0.37919971

>  <BCUT_SLOGP_2>
0.61971599

>  <BCUT_SLOGP_3>
2.5232153

>  <BCUT_SMR_0>
-2.3198469

>  <BCUT_SMR_1>
-0.30420193

>  <BCUT_SMR_2>
0.6521824

>  <BCUT_SMR_3>
2.8637474

>  <bpol>
29.131348

>  <b_1rotN>
5

>  <b_1rotR>
0.2173913

>  <b_ar>
10

>  <b_count>
44

>  <b_double>
1

>  <b_heavy>
23

>  <b_max1len>
5

>  <b_rotN>
5

>  <b_rotR>
0.2173913

>  <b_single>
33

>  <b_triple>
0

>  <chi0>
14.819627

>  <chi0v>
12.478889

>  <chi0v_C>
10.215178

>  <chi0_C>
11.120955

>  <chi1>
10.114194

>  <chi1v>
7.2852411

>  <chi1v_C>
4.3003125

>  <chi1_C>
5.3409014

>  <chiral>
1

>  <chiral_u>
0

>  <density>
0.71521544

>  <diameter>
12

>  <FCharge>
0

>  <GCUT_PEOE_0>
-0.86478561

>  <GCUT_PEOE_1>
-0.36503834

>  <GCUT_PEOE_2>
0.040008258

>  <GCUT_PEOE_3>
2.6293693

>  <GCUT_SLOGP_0>
-1.1666033

>  <GCUT_SLOGP_1>
-0.32255805

>  <GCUT_SLOGP_2>
0.13132751

>  <GCUT_SLOGP_3>
2.6925192

>  <GCUT_SMR_0>
-0.51863772

>  <GCUT_SMR_1>
-0.17158858

>  <GCUT_SMR_2>
0.13983841

>  <GCUT_SMR_3>
2.9093614

>  <Kier1>
15.879017

>  <Kier2>
7.0507812

>  <Kier3>
4.0500002

>  <KierA1>
12.257514

>  <KierA2>
5.3668728

>  <KierA3>
3.0496204

>  <KierFlex>
3.132596

>  <lip_acc>
5

>  <lip_don>
2

>  <lip_druglike>
1

>  <lip_violation>
0

>  <logP(o/w)>
2.0139999

>  <logS>
-2.0409601

>  <mr>
8.1961584

>  <mutagenic>
0

>  <nmol>
1

>  <opr_brigid>
15

>  <opr_leadlike>
1

>  <opr_nring>
3

>  <opr_nrot>
5

>  <opr_violation>
0

>  <PC+>
0

>  <PC->
0

>  <PEOE_PC+>
1.7827584

>  <PEOE_PC->
-1.7827584

>  <PEOE_RPC+>
0.20251206

>  <PEOE_RPC->
0.20213987

>  <PEOE_VSA+0>
90.03096

>  <PEOE_VSA+1>
47.954956

>  <PEOE_VSA+2>
0

>  <PEOE_VSA+3>
17.238026

>  <PEOE_VSA+4>
0

>  <PEOE_VSA+5>
0

>  <PEOE_VSA+6>
19.199511

>  <PEOE_VSA-0>
92.806892

>  <PEOE_VSA-1>
12.254904

>  <PEOE_VSA-2>
0

>  <PEOE_VSA-3>
0

>  <PEOE_VSA-4>
13.566921

>  <PEOE_VSA-5>
2.503756

>  <PEOE_VSA-6>
0.27378201

>  <PEOE_VSA_FHYD>
0.87984991

>  <PEOE_VSA_FNEG>
0.41039237

>  <PEOE_VSA_FPNEG>
0.055249553

>  <PEOE_VSA_FPOL>
0.1201501

>  <PEOE_VSA_FPOS>
0.58960766

>  <PEOE_VSA_FPPOS>
0.064900547

>  <PEOE_VSA_HYD>
260.28574

>  <PEOE_VSA_NEG>
121.40626

>  <PEOE_VSA_PNEG>
16.34446

>  <PEOE_VSA_POL>
35.543968

>  <PEOE_VSA_POS>
174.42346

>  <PEOE_VSA_PPOS>
19.199511

>  <petitjean>
0.5

>  <petitjeanSC>
1

>  <Q_PC+>
0

>  <Q_PC->
0

>  <Q_RPC+>
0

>  <Q_RPC->
0

>  <Q_VSA_FHYD>
1

>  <Q_VSA_FNEG>
0

>  <Q_VSA_FPNEG>
0

>  <Q_VSA_FPOL>
0

>  <Q_VSA_FPOS>
1

>  <Q_VSA_FPPOS>
0

>  <Q_VSA_HYD>
295.82971

>  <Q_VSA_NEG>
0

>  <Q_VSA_PNEG>
0

>  <Q_VSA_POL>
0

>  <Q_VSA_POS>
295.82971

>  <Q_VSA_PPOS>
0

>  <radius>
6

>  <reactive>
0

>  <rings>
3

>  <RPC+>
0

>  <RPC->
0

>  <rsynth>
1

>  <SlogP>
1.92284

>  <SlogP_VSA0>
18.01075

>  <SlogP_VSA1>
10.44095

>  <SlogP_VSA2>
31.767385

>  <SlogP_VSA3>
39.365837

>  <SlogP_VSA4>
6.37115

>  <SlogP_VSA5>
103.53119

>  <SlogP_VSA6>
0

>  <SlogP_VSA7>
74.861008

>  <SlogP_VSA8>
0

>  <SlogP_VSA9>
23.862217

>  <SMR>
8.2532396

>  <SMR_VSA0>
34.862103

>  <SMR_VSA1>
3.1243138

>  <SMR_VSA2>
34.79628

>  <SMR_VSA3>
10.353119

>  <SMR_VSA4>
4.7171016

>  <SMR_VSA5>
107.88072

>  <SMR_VSA6>
46.682472

>  <SMR_VSA7>
65.794373

>  <TPSA>
57.360001

>  <VAdjEq>
0.48250595

>  <VAdjMa>
5.523562

>  <VDistEq>
3.344491

>  <VDistMa>
8.4667873

>  <vdw_area>
295.82971

>  <vdw_vol>
401.78522

>  <vsa_acc>
13.566921

>  <vsa_acid>
0

>  <vsa_base>
0

>  <vsa_don>
11.365152

>  <vsa_hyd>
229.52361

>  <vsa_other>
21.703266

>  <vsa_pol>
24.932074

>  <Weight>
287.36301

>  <weinerPath>
1005

>  <weinerPol>
27

>  <zagreb>
110

$$$$