O1C(CN=C1N)c1ccccc1
  MOE2013           2D

 12 13  0  0  1  0  0  0  0  0999 V2000
    0.0000    0.0000    0.0000 O   0  0  0  0  0  0  0  0  0  0  0  0
   -1.0000   -1.1180    0.0000 C   0  0  3  0  0  0  0  0  0  0  0  0
   -0.2460   -2.4150    0.0000 C   0  0  0  0  0  0  0  0  0  0  0  0
    1.2210   -2.0980    0.0000 N   0  0  0  0  0  0  0  0  0  0  0  0
    1.3720   -0.6050    0.0000 C   0  0  0  0  0  0  0  0  0  0  0  0
    2.6690    0.1490    0.0000 N   0  0  0  0  0  0  0  0  0  0  0  0
   -2.4920   -0.9660    0.0000 C   0  0  0  0  0  0  0  0  0  0  0  0
   -3.1070    0.4020    0.0000 C   0  0  0  0  0  0  0  0  0  0  0  0
   -4.5990    0.5540    0.0000 C   0  0  0  0  0  0  0  0  0  0  0  0
   -5.4770   -0.6630    0.0000 C   0  0  0  0  0  0  0  0  0  0  0  0
   -4.8620   -2.0310    0.0000 C   0  0  0  0  0  0  0  0  0  0  0  0
   -3.3700   -2.1830    0.0000 C   0  0  0  0  0  0  0  0  0  0  0  0
  1  2  1  0  0  0  0
  1  5  1  0  0  0  0
  2  3  1  0  0  0  0
  2  7  1  0  0  0  0
  3  4  1  0  0  0  0
  4  5  2  0  0  0  0
  5  6  1  0  0  0  0
  7  8  1  0  0  0  0
  7 12  2  0  0  0  0
  8  9  2  0  0  0  0
  9 10  1  0  0  0  0
 10 11  2  0  0  0  0
 11 12  1  0  0  0  0
M  END
>  <Index>
1234

>  <ID>
HT2683

>  <class>
0

>  <apol>
25.50993

>  <ast_fraglike>
1

>  <ast_fraglike_ext>
1

>  <ast_violation>
0

>  <ast_violation_ext>
0

>  <a_acc>
1

>  <a_acid>
0

>  <a_aro>
6

>  <a_base>
0

>  <a_count>
22

>  <a_don>
1

>  <a_donacc>
2

>  <a_heavy>
12

>  <a_hyd>
8

>  <a_IC>
34.358891

>  <a_ICM>
1.5617677

>  <a_nB>
0

>  <a_nBr>
0

>  <a_nC>
9

>  <a_nCl>
0

>  <a_nF>
0

>  <a_nH>
10

>  <a_nI>
0

>  <a_nN>
2

>  <a_nO>
1

>  <a_nP>
0

>  <a_nS>
0

>  <balabanJ>
1.8450356

>  <BCUT_PEOE_0>
-2.3846912

>  <BCUT_PEOE_1>
-0.58873534

>  <BCUT_PEOE_2>
0.69769597

>  <BCUT_PEOE_3>
2.5085948

>  <BCUT_SLOGP_0>
-2.4612637

>  <BCUT_SLOGP_1>
-0.53807992

>  <BCUT_SLOGP_2>
0.73342299

>  <BCUT_SLOGP_3>
2.5418086

>  <BCUT_SMR_0>
-2.1475689

>  <BCUT_SMR_1>
-0.42695925

>  <BCUT_SMR_2>
0.85431087

>  <BCUT_SMR_3>
2.7545295

>  <bpol>
13.50807

>  <b_1rotN>
1

>  <b_1rotR>
0.07692308

>  <b_ar>
6

>  <b_count>
23

>  <b_double>
1

>  <b_heavy>
13

>  <b_max1len>
2

>  <b_rotN>
1

>  <b_rotR>
0.07692308

>  <b_single>
16

>  <b_triple>
0

>  <chi0>
8.3889055

>  <chi0v>
6.6040206

>  <chi0v_C>
5.1712084

>  <chi0_C>
5.9746914

>  <chi1>
5.8601732

>  <chi1v>
3.8759432

>  <chi1v_C>
2.6076071

>  <chi1_C>
3.5580783

>  <chiral>
1

>  <chiral_u>
1

>  <density>
0.7271682

>  <diameter>
7

>  <FCharge>
0

>  <GCUT_PEOE_0>
-0.81871408

>  <GCUT_PEOE_1>
-0.38714921

>  <GCUT_PEOE_2>
0.079475351

>  <GCUT_PEOE_3>
2.2444482

>  <GCUT_SLOGP_0>
-1.3703995

>  <GCUT_SLOGP_1>
-0.26386139

>  <GCUT_SLOGP_2>
0.16152057

>  <GCUT_SLOGP_3>
2.3297508

>  <GCUT_SMR_0>
-0.50181276

>  <GCUT_SMR_1>
-0.21073651

>  <GCUT_SMR_2>
0.19305076

>  <GCUT_SMR_3>
2.5176604

>  <Kier1>
8.5917158

>  <Kier2>
3.8062284

>  <Kier3>
2.0408163

>  <KierA1>
6.046875

>  <KierA2>
2.5829909

>  <KierA3>
1.3454862

>  <KierFlex>
1.3015853

>  <lip_acc>
3

>  <lip_don>
2

>  <lip_druglike>
1

>  <lip_violation>
0

>  <logP(o/w)>
1.451

>  <logS>
-1.95743

>  <mr>
4.6627221

>  <mutagenic>
0

>  <nmol>
1

>  <opr_brigid>
11

>  <opr_leadlike>
1

>  <opr_nring>
2

>  <opr_nrot>
1

>  <opr_violation>
0

>  <PC+>
0

>  <PC->
0

>  <PEOE_PC+>
1.2254137

>  <PEOE_PC->
-1.2254137

>  <PEOE_RPC+>
0.19197756

>  <PEOE_RPC->
0.2969909

>  <PEOE_VSA+0>
0

>  <PEOE_VSA+1>
47.315414

>  <PEOE_VSA+2>
4.9049287

>  <PEOE_VSA+3>
17.238026

>  <PEOE_VSA+4>
17.440542

>  <PEOE_VSA+5>
0

>  <PEOE_VSA+6>
0

>  <PEOE_VSA-0>
2.2085397

>  <PEOE_VSA-1>
61.274521

>  <PEOE_VSA-2>
0

>  <PEOE_VSA-3>
0

>  <PEOE_VSA-4>
5.6825762

>  <PEOE_VSA-5>
0

>  <PEOE_VSA-6>
9.1548758

>  <PEOE_VSA_FHYD>
0.80463558

>  <PEOE_VSA_FNEG>
0.47403938

>  <PEOE_VSA_FPNEG>
0.089804523

>  <PEOE_VSA_FPOL>
0.1953644

>  <PEOE_VSA_FPOS>
0.52596062

>  <PEOE_VSA_FPPOS>
0.10555988

>  <PEOE_VSA_HYD>
132.94142

>  <PEOE_VSA_NEG>
78.320511

>  <PEOE_VSA_PNEG>
14.837452

>  <PEOE_VSA_POL>
32.277992

>  <PEOE_VSA_POS>
86.898911

>  <PEOE_VSA_PPOS>
17.440542

>  <petitjean>
0.42857143

>  <petitjeanSC>
0.75

>  <Q_PC+>
0

>  <Q_PC->
0

>  <Q_RPC+>
0

>  <Q_RPC->
0

>  <Q_VSA_FHYD>
1

>  <Q_VSA_FNEG>
0

>  <Q_VSA_FPNEG>
0

>  <Q_VSA_FPOL>
0

>  <Q_VSA_FPOS>
1

>  <Q_VSA_FPPOS>
0

>  <Q_VSA_HYD>
165.21942

>  <Q_VSA_NEG>
0

>  <Q_VSA_PNEG>
0

>  <Q_VSA_POL>
0

>  <Q_VSA_POS>
165.21942

>  <Q_VSA_PPOS>
0

>  <radius>
4

>  <reactive>
0

>  <rings>
2

>  <RPC+>
0

>  <RPC->
0

>  <rsynth>
1

>  <SlogP>
1.1681

>  <SlogP_VSA0>
32.897186

>  <SlogP_VSA1>
4.3857732

>  <SlogP_VSA2>
10.999887

>  <SlogP_VSA3>
18.439579

>  <SlogP_VSA4>
3.185575

>  <SlogP_VSA5>
16.78553

>  <SlogP_VSA6>
0

>  <SlogP_VSA7>
88.215919

>  <SlogP_VSA8>
6.4686494

>  <SlogP_VSA9>
0

>  <SMR>
4.6868401

>  <SMR_VSA0>
10.999887

>  <SMR_VSA1>
16.78553

>  <SMR_VSA2>
0

>  <SMR_VSA3>
9.6542244

>  <SMR_VSA4>
32.897186

>  <SMR_VSA5>
88.215919

>  <SMR_VSA6>
22.825352

>  <SMR_VSA7>
0

>  <TPSA>
47.610001

>  <VAdjEq>
0.68129086

>  <VAdjMa>
4.7004399

>  <VDistEq>
2.5456429

>  <VDistMa>
6.8434668

>  <vdw_area>
165.21942

>  <vdw_vol>
223.04605

>  <vsa_acc>
5.6825762

>  <vsa_acid>
0

>  <vsa_base>
0

>  <vsa_don>
17.742489

>  <vsa_hyd>
110.00904

>  <vsa_other>
19.944298

>  <vsa_pol>
23.425066

>  <Weight>
162.192

>  <weinerPath>
197

>  <weinerPol>
13

>  <zagreb>
60

$$$$