OC1(CCC2C3C(CCC12C)C1(C(CC(O)CC1)=CC3)C)C
  MOE2013           2D

 22 25  0  0  1  0  0  0  0  0999 V2000
    0.0000    0.0000    0.0000 O   0  0  0  0  0  0  0  0  0  0  0  0
    0.4490   -1.4310    0.0000 C   0  0  3  0  0  0  0  0  0  0  0  0
    0.2500   -2.9180    0.0000 C   0  0  0  0  0  0  0  0  0  0  0  0
    1.6030   -3.5660    0.0000 C   0  0  0  0  0  0  0  0  0  0  0  0
    2.6370   -2.4800    0.0000 C   0  0  3  0  0  0  0  0  0  0  0  0
    4.1370   -2.5220    0.0000 C   0  0  3  0  0  0  0  0  0  0  0  0
    4.9230   -1.2440    0.0000 C   0  0  3  0  0  0  0  0  0  0  0  0
    4.2090    0.0750    0.0000 C   0  0  0  0  0  0  0  0  0  0  0  0
    2.7100    0.1170    0.0000 C   0  0  0  0  0  0  0  0  0  0  0  0
    1.9240   -1.1610    0.0000 C   0  0  3  0  0  0  0  0  0  0  0  0
    1.0980    0.0920    0.0000 C   0  0  0  0  0  0  0  0  0  0  0  0
    6.4220   -1.2860    0.0000 C   0  0  3  0  0  0  0  0  0  0  0  0
    7.1360   -2.6060    0.0000 C   0  0  0  0  0  0  0  0  0  0  0  0
    8.6350   -2.6480    0.0000 C   0  0  0  0  0  0  0  0  0  0  0  0
    9.4210   -1.3700    0.0000 C   0  0  3  0  0  0  0  0  0  0  0  0
   10.9200   -1.4120    0.0000 O   0  0  0  0  0  0  0  0  0  0  0  0
    8.7080   -0.0510    0.0000 C   0  0  0  0  0  0  0  0  0  0  0  0
    7.2080   -0.0090    0.0000 C   0  0  0  0  0  0  0  0  0  0  0  0
    6.3500   -3.8830    0.0000 C   0  0  0  0  0  0  0  0  0  0  0  0
    4.8500   -3.8410    0.0000 C   0  0  0  0  0  0  0  0  0  0  0  0
    5.7090    0.0330    0.0000 C   0  0  0  0  0  0  0  0  0  0  0  0
   -1.0260   -1.1550    0.0000 C   0  0  0  0  0  0  0  0  0  0  0  0
  1  2  1  0  0  0  0
  2  3  1  0  0  0  0
  2 10  1  0  0  0  0
  2 22  1  0  0  0  0
  3  4  1  0  0  0  0
  4  5  1  0  0  0  0
  5  6  1  0  0  0  0
  5 10  1  0  0  0  0
  6  7  1  0  0  0  0
  6 20  1  0  0  0  0
  7  8  1  0  0  0  0
  7 12  1  0  0  0  0
  8  9  1  0  0  0  0
  9 10  1  0  0  0  0
 10 11  1  0  0  0  0
 12 13  1  0  0  0  0
 12 18  1  0  0  0  0
 12 21  1  0  0  0  0
 13 14  1  0  0  0  0
 13 19  2  0  0  0  0
 14 15  1  0  0  0  0
 15 16  1  0  0  0  0
 15 17  1  0  0  0  0
 17 18  1  0  0  0  0
 19 20  1  0  0  0  0
M  END
>  <Index>
1322

>  <ID>
HT3381

>  <class>
0

>  <apol>
58.141376

>  <ast_fraglike>
0

>  <ast_fraglike_ext>
0

>  <ast_violation>
2

>  <ast_violation_ext>
2

>  <a_acc>
2

>  <a_acid>
0

>  <a_aro>
0

>  <a_base>
0

>  <a_count>
54

>  <a_don>
2

>  <a_donacc>
4

>  <a_heavy>
22

>  <a_hyd>
20

>  <a_IC>
62.325363

>  <a_ICM>
1.1541734

>  <a_nB>
0

>  <a_nBr>
0

>  <a_nC>
20

>  <a_nCl>
0

>  <a_nF>
0

>  <a_nH>
32

>  <a_nI>
0

>  <a_nN>
0

>  <a_nO>
2

>  <a_nP>
0

>  <a_nS>
0

>  <balabanJ>
1.6372305

>  <BCUT_PEOE_0>
-2.943228

>  <BCUT_PEOE_1>
-0.40072694

>  <BCUT_PEOE_2>
0.44902292

>  <BCUT_PEOE_3>
2.962383

>  <BCUT_SLOGP_0>
-2.8683026

>  <BCUT_SLOGP_1>
-0.37743896

>  <BCUT_SLOGP_2>
0.47423077

>  <BCUT_SLOGP_3>
3.0348923

>  <BCUT_SMR_0>
-2.6869154

>  <BCUT_SMR_1>
-0.26308236

>  <BCUT_SMR_2>
0.58601087

>  <BCUT_SMR_3>
3.2151315

>  <bpol>
34.982624

>  <b_1rotN>
0

>  <b_1rotR>
0

>  <b_ar>
0

>  <b_count>
57

>  <b_double>
1

>  <b_heavy>
25

>  <b_max1len>
4

>  <b_rotN>
0

>  <b_rotR>
0

>  <b_single>
56

>  <b_triple>
0

>  <chi0>
15.750712

>  <chi0v>
14.438033

>  <chi0v_C>
13.543606

>  <chi0_C>
13.750712

>  <chi1>
10.27844

>  <chi1v>
9.3782015

>  <chi1v_C>
8.8963957

>  <chi1_C>
9.2010899

>  <chiral>
7

>  <chiral_u>
7

>  <density>
0.6647352

>  <diameter>
10

>  <FCharge>
0

>  <GCUT_PEOE_0>
-0.8051405

>  <GCUT_PEOE_1>
-0.33607236

>  <GCUT_PEOE_2>
-0.02065362

>  <GCUT_PEOE_3>
3.3268332

>  <GCUT_SLOGP_0>
-0.8837294

>  <GCUT_SLOGP_1>
-0.29697171

>  <GCUT_SLOGP_2>
-0.0025890153

>  <GCUT_SLOGP_3>
3.4143934

>  <GCUT_SMR_0>
-0.5395298

>  <GCUT_SMR_1>
-0.19043507

>  <GCUT_SMR_2>
0.093122266

>  <GCUT_SMR_3>
3.5527737

>  <Kier1>
15.5232

>  <Kier2>
4.7619047

>  <Kier3>
1.9771072

>  <KierA1>
14.962255

>  <KierA2>
4.5814662

>  <KierA3>
1.8996803

>  <KierFlex>
3.1158662

>  <lip_acc>
2

>  <lip_don>
2

>  <lip_druglike>
1

>  <lip_violation>
0

>  <logP(o/w)>
3.381

>  <logS>
-3.9439399

>  <mr>
8.7702389

>  <mutagenic>
0

>  <nmol>
1

>  <opr_brigid>
20

>  <opr_leadlike>
1

>  <opr_nring>
4

>  <opr_nrot>
0

>  <opr_violation>
0

>  <PC+>
0

>  <PC->
0

>  <PEOE_PC+>
1.4397291

>  <PEOE_PC->
-1.4397291

>  <PEOE_RPC+>
0.14597932

>  <PEOE_RPC->
0.27190799

>  <PEOE_VSA+0>
119.43081

>  <PEOE_VSA+1>
13.4357

>  <PEOE_VSA+2>
0

>  <PEOE_VSA+3>
0

>  <PEOE_VSA+4>
20.648346

>  <PEOE_VSA+5>
0

>  <PEOE_VSA+6>
0

>  <PEOE_VSA-0>
88.358185

>  <PEOE_VSA-1>
51.958797

>  <PEOE_VSA-2>
0

>  <PEOE_VSA-3>
0

>  <PEOE_VSA-4>
0

>  <PEOE_VSA-5>
0

>  <PEOE_VSA-6>
15.535081

>  <PEOE_VSA_FHYD>
0.88304043

>  <PEOE_VSA_FNEG>
0.50377738

>  <PEOE_VSA_FPNEG>
0.050215714

>  <PEOE_VSA_FPOL>
0.11695959

>  <PEOE_VSA_FPOS>
0.49622259

>  <PEOE_VSA_FPPOS>
0.066743873

>  <PEOE_VSA_HYD>
273.1835

>  <PEOE_VSA_NEG>
155.85207

>  <PEOE_VSA_PNEG>
15.535081

>  <PEOE_VSA_POL>
36.183426

>  <PEOE_VSA_POS>
153.51485

>  <PEOE_VSA_PPOS>
20.648346

>  <petitjean>
0.5

>  <petitjeanSC>
1

>  <Q_PC+>
0

>  <Q_PC->
0

>  <Q_RPC+>
0

>  <Q_RPC->
0

>  <Q_VSA_FHYD>
1

>  <Q_VSA_FNEG>
0

>  <Q_VSA_FPNEG>
0

>  <Q_VSA_FPOL>
0

>  <Q_VSA_FPOS>
1

>  <Q_VSA_FPPOS>
0

>  <Q_VSA_HYD>
309.36691

>  <Q_VSA_NEG>
0

>  <Q_VSA_PNEG>
0

>  <Q_VSA_POL>
0

>  <Q_VSA_POS>
309.36691

>  <Q_VSA_PPOS>
0

>  <radius>
5

>  <reactive>
0

>  <rings>
4

>  <RPC+>
0

>  <RPC->
0

>  <rsynth>
0

>  <SlogP>
4.0611

>  <SlogP_VSA0>
50.770454

>  <SlogP_VSA1>
0

>  <SlogP_VSA2>
6.4686494

>  <SlogP_VSA3>
0

>  <SlogP_VSA4>
13.232388

>  <SlogP_VSA5>
3.185575

>  <SlogP_VSA6>
0

>  <SlogP_VSA7>
17.643185

>  <SlogP_VSA8>
150.94725

>  <SlogP_VSA9>
99.978043

>  <SMR>
8.8333597

>  <SMR_VSA0>
0

>  <SMR_VSA1>
50.770454

>  <SMR_VSA2>
13.232388

>  <SMR_VSA3>
9.6542244

>  <SMR_VSA4>
0

>  <SMR_VSA5>
168.59042

>  <SMR_VSA6>
0

>  <SMR_VSA7>
99.978043

>  <TPSA>
40.459999

>  <VAdjEq>
0.47938794

>  <VAdjMa>
5.643856

>  <VDistEq>
2.9879878

>  <VDistMa>
8.6431408

>  <vdw_area>
309.36691

>  <vdw_vol>
458.03802

>  <vsa_acc>
0

>  <vsa_acid>
0

>  <vsa_base>
0

>  <vsa_don>
0

>  <vsa_hyd>
247.79448

>  <vsa_other>
0

>  <vsa_pol>
27.133842

>  <Weight>
304.474

>  <weinerPath>
907

>  <weinerPol>
48

>  <zagreb>
134

$$$$