O(C(=O)C)CC=C(C=CC=C(C=CC=1C(CCCC=1C)(C)C)/C)/C
  MOE2013           2D

 24 24  0  0  0  0  0  0  0  0999 V2000
    0.0000    0.0000    0.0000 O   0  0  0  0  0  0  0  0  0  0  0  0
    1.2950    0.7570    0.0000 C   0  0  0  0  0  0  0  0  0  0  0  0
    2.5980    0.0130    0.0000 O   0  0  0  0  0  0  0  0  0  0  0  0
    1.2880    2.2570    0.0000 C   0  0  0  0  0  0  0  0  0  0  0  0
   -1.3030    0.7430    0.0000 C   0  0  0  0  0  0  0  0  0  0  0  0
   -2.5980   -0.0130    0.0000 C   0  0  0  0  0  0  0  0  0  0  0  0
   -3.9010    0.7300    0.0000 C   0  0  0  0  0  0  0  0  0  0  0  0
   -5.1960   -0.0260    0.0000 C   0  0  0  0  0  0  0  0  0  0  0  0
   -6.4990    0.7170    0.0000 C   0  0  0  0  0  0  0  0  0  0  0  0
   -7.7940   -0.0400    0.0000 C   0  0  0  0  0  0  0  0  0  0  0  0
   -9.0970    0.7040    0.0000 C   0  0  0  0  0  0  0  0  0  0  0  0
  -10.3920   -0.0530    0.0000 C   0  0  0  0  0  0  0  0  0  0  0  0
  -10.3850   -1.5530    0.0000 C   0  0  0  0  0  0  0  0  0  0  0  0
  -11.6800   -2.3090    0.0000 C   0  0  0  0  0  0  0  0  0  0  0  0
  -11.6720   -3.8090    0.0000 C   0  0  0  0  0  0  0  0  0  0  0  0
  -12.9670   -4.5660    0.0000 C   0  0  0  0  0  0  0  0  0  0  0  0
  -14.2700   -3.8230    0.0000 C   0  0  0  0  0  0  0  0  0  0  0  0
  -14.2780   -2.3230    0.0000 C   0  0  0  0  0  0  0  0  0  0  0  0
  -12.9830   -1.5660    0.0000 C   0  0  0  0  0  0  0  0  0  0  0  0
  -12.9900   -0.0660    0.0000 C   0  0  0  0  0  0  0  0  0  0  0  0
  -10.9160   -5.1050    0.0000 C   0  0  0  0  0  0  0  0  0  0  0  0
  -10.1720   -3.8020    0.0000 C   0  0  0  0  0  0  0  0  0  0  0  0
   -9.1050    2.2040    0.0000 C   0  0  0  0  0  0  0  0  0  0  0  0
   -3.9090    2.2300    0.0000 C   0  0  0  0  0  0  0  0  0  0  0  0
  1  2  1  0  0  0  0
  1  5  1  0  0  0  0
  2  3  2  0  0  0  0
  2  4  1  0  0  0  0
  5  6  1  0  0  0  0
  6  7  2  3  0  0  0
  7  8  1  0  0  0  0
  7 24  1  0  0  0  0
  8  9  2  3  0  0  0
  9 10  1  0  0  0  0
 10 11  2  3  0  0  0
 11 12  1  0  0  0  0
 11 23  1  0  0  0  0
 12 13  2  3  0  0  0
 13 14  1  0  0  0  0
 14 15  1  0  0  0  0
 14 19  2  0  0  0  0
 15 16  1  0  0  0  0
 15 21  1  0  0  0  0
 15 22  1  0  0  0  0
 16 17  1  0  0  0  0
 17 18  1  0  0  0  0
 18 19  1  0  0  0  0
 19 20  1  0  0  0  0
M  END
>  <Index>
1340

>  <ID>
HT3506

>  <class>
0

>  <apol>
61.661377

>  <ast_fraglike>
0

>  <ast_fraglike_ext>
0

>  <ast_violation>
2

>  <ast_violation_ext>
3

>  <a_acc>
1

>  <a_acid>
0

>  <a_aro>
0

>  <a_base>
0

>  <a_count>
56

>  <a_don>
0

>  <a_donacc>
1

>  <a_heavy>
24

>  <a_hyd>
21

>  <a_IC>
65.104378

>  <a_ICM>
1.1625782

>  <a_nB>
0

>  <a_nBr>
0

>  <a_nC>
22

>  <a_nCl>
0

>  <a_nF>
0

>  <a_nH>
32

>  <a_nI>
0

>  <a_nN>
0

>  <a_nO>
2

>  <a_nP>
0

>  <a_nS>
0

>  <balabanJ>
2.1654849

>  <BCUT_PEOE_0>
-2.7535243

>  <BCUT_PEOE_1>
-0.15553124

>  <BCUT_PEOE_2>
0.051691364

>  <BCUT_PEOE_3>
2.6964064

>  <BCUT_SLOGP_0>
-2.6118655

>  <BCUT_SLOGP_1>
-0.02198096

>  <BCUT_SLOGP_2>
0.13433051

>  <BCUT_SLOGP_3>
2.8409042

>  <BCUT_SMR_0>
-2.4876893

>  <BCUT_SMR_1>
0.066785485

>  <BCUT_SMR_2>
0.20673484

>  <BCUT_SMR_3>
2.9671443

>  <bpol>
37.856625

>  <b_1rotN>
6

>  <b_1rotR>
0.25

>  <b_ar>
0

>  <b_count>
56

>  <b_double>
6

>  <b_heavy>
24

>  <b_max1len>
4

>  <b_rotN>
7

>  <b_rotR>
0.29166666

>  <b_single>
50

>  <b_triple>
0

>  <chi0>
18.164927

>  <chi0v>
16.109026

>  <chi0v_C>
15.292529

>  <chi0_C>
16.457819

>  <chi1>
11.220051

>  <chi1v>
8.7556543

>  <chi1v_C>
8.0587311

>  <chi1_C>
9.7344522

>  <chiral>
0

>  <chiral_u>
0

>  <density>
0.63199824

>  <diameter>
15

>  <FCharge>
0

>  <GCUT_PEOE_0>
-0.7907657

>  <GCUT_PEOE_1>
-0.33112228

>  <GCUT_PEOE_2>
-0.10830864

>  <GCUT_PEOE_3>
2.7317135

>  <GCUT_SLOGP_0>
-0.84494221

>  <GCUT_SLOGP_1>
-0.21885172

>  <GCUT_SLOGP_2>
-0.037

>  <GCUT_SLOGP_3>
2.8780975

>  <GCUT_SMR_0>
-0.52744919

>  <GCUT_SMR_1>
-0.1075601

>  <GCUT_SMR_2>
-0.016086586

>  <GCUT_SMR_3>
2.9924395

>  <Kier1>
22.041666

>  <Kier2>
10.871094

>  <Kier3>
8.792388

>  <KierA1>
17.809555

>  <KierA2>
8.697094

>  <KierA3>
6.9840002

>  <KierFlex>
6.4538074

>  <lip_acc>
2

>  <lip_don>
0

>  <lip_druglike>
1

>  <lip_violation>
1

>  <logP(o/w)>
5.0190001

>  <logS>
-8.0171204

>  <mr>
10.192611

>  <mutagenic>
0

>  <nmol>
1

>  <opr_brigid>
10

>  <opr_leadlike>
1

>  <opr_nring>
1

>  <opr_nrot>
7

>  <opr_violation>
1

>  <PC+>
0

>  <PC->
0

>  <PEOE_PC+>
1.5094897

>  <PEOE_PC->
-1.5094897

>  <PEOE_RPC+>
0.17179845

>  <PEOE_RPC->
0.20620623

>  <PEOE_VSA+0>
121.11694

>  <PEOE_VSA+1>
49.074383

>  <PEOE_VSA+2>
0

>  <PEOE_VSA+3>
0

>  <PEOE_VSA+4>
0

>  <PEOE_VSA+5>
14.708499

>  <PEOE_VSA+6>
0

>  <PEOE_VSA-0>
84.555511

>  <PEOE_VSA-1>
117.6504

>  <PEOE_VSA-2>
0

>  <PEOE_VSA-3>
0

>  <PEOE_VSA-4>
0

>  <PEOE_VSA-5>
13.566921

>  <PEOE_VSA-6>
2.503756

>  <PEOE_VSA_FHYD>
0.92365831

>  <PEOE_VSA_FNEG>
0.54139227

>  <PEOE_VSA_FPNEG>
0.039860163

>  <PEOE_VSA_FPOL>
0.076341711

>  <PEOE_VSA_FPOS>
0.45860773

>  <PEOE_VSA_FPPOS>
0.036481548

>  <PEOE_VSA_HYD>
372.39725

>  <PEOE_VSA_NEG>
218.27658

>  <PEOE_VSA_PNEG>
16.070677

>  <PEOE_VSA_POL>
30.779177

>  <PEOE_VSA_POS>
184.89983

>  <PEOE_VSA_PPOS>
14.708499

>  <petitjean>
0.46666667

>  <petitjeanSC>
0.875

>  <Q_PC+>
0

>  <Q_PC->
0

>  <Q_RPC+>
0

>  <Q_RPC->
0

>  <Q_VSA_FHYD>
1

>  <Q_VSA_FNEG>
0

>  <Q_VSA_FPNEG>
0

>  <Q_VSA_FPOL>
0

>  <Q_VSA_FPOS>
1

>  <Q_VSA_FPPOS>
0

>  <Q_VSA_HYD>
403.17642

>  <Q_VSA_NEG>
0

>  <Q_VSA_PNEG>
0

>  <Q_VSA_POL>
0

>  <Q_VSA_POS>
403.17642

>  <Q_VSA_PPOS>
0

>  <radius>
8

>  <reactive>
0

>  <rings>
1

>  <RPC+>
0

>  <RPC->
0

>  <rsynth>
1

>  <SlogP>
6.0811

>  <SlogP_VSA0>
0

>  <SlogP_VSA1>
7.7454643

>  <SlogP_VSA2>
34.862103

>  <SlogP_VSA3>
20.926258

>  <SlogP_VSA4>
0

>  <SlogP_VSA5>
12.7423

>  <SlogP_VSA6>
0

>  <SlogP_VSA7>
105.85911

>  <SlogP_VSA8>
56.605217

>  <SlogP_VSA9>
199.95609

>  <SMR>
10.2759

>  <SMR_VSA0>
34.862103

>  <SMR_VSA1>
0

>  <SMR_VSA2>
0

>  <SMR_VSA3>
12.7423

>  <SMR_VSA4>
0

>  <SMR_VSA5>
162.46432

>  <SMR_VSA6>
28.671722

>  <SMR_VSA7>
199.95609

>  <TPSA>
26.299999

>  <VAdjEq>
0.41381684

>  <VAdjMa>
5.5849624

>  <VDistEq>
3.7404041

>  <VDistMa>
8.8232746

>  <vdw_area>
403.17642

>  <vdw_vol>
519.77362

>  <vsa_acc>
13.566921

>  <vsa_acid>
0

>  <vsa_base>
0

>  <vsa_don>
0

>  <vsa_hyd>
349.61978

>  <vsa_other>
17.212255

>  <vsa_pol>
13.566921

>  <Weight>
328.496

>  <weinerPath>
1709

>  <weinerPol>
31

>  <zagreb>
112

$$$$