OCC=1CCC(CC=1)C(C)=C
  MOE2013           2D

 11 11  0  0  1  0  0  0  0  0999 V2000
    0.0000    0.0000    0.0000 O   0  0  0  0  0  0  0  0  0  0  0  0
   -0.7400   -1.3050    0.0000 C   0  0  0  0  0  0  0  0  0  0  0  0
   -2.2400   -1.3160    0.0000 C   0  0  0  0  0  0  0  0  0  0  0  0
   -2.9800   -2.6210    0.0000 C   0  0  0  0  0  0  0  0  0  0  0  0
   -4.4800   -2.6320    0.0000 C   0  0  0  0  0  0  0  0  0  0  0  0
   -5.2400   -1.3390    0.0000 C   0  0  3  0  0  0  0  0  0  0  0  0
   -4.5000   -0.0340    0.0000 C   0  0  0  0  0  0  0  0  0  0  0  0
   -3.0000   -0.0230    0.0000 C   0  0  0  0  0  0  0  0  0  0  0  0
   -6.7400   -1.3500    0.0000 C   0  0  0  0  0  0  0  0  0  0  0  0
   -7.4800   -2.6550    0.0000 C   0  0  0  0  0  0  0  0  0  0  0  0
   -7.5000   -0.0570    0.0000 C   0  0  0  0  0  0  0  0  0  0  0  0
  1  2  1  0  0  0  0
  2  3  1  0  0  0  0
  3  4  1  0  0  0  0
  3  8  2  0  0  0  0
  4  5  1  0  0  0  0
  5  6  1  0  0  0  0
  6  7  1  0  0  0  0
  6  9  1  0  0  0  0
  7  8  1  0  0  0  0
  9 10  1  0  0  0  0
  9 11  2  0  0  0  0
M  END
>  <Index>
1230

>  <ID>
HT2640

>  <class>
0

>  <apol>
29.070688

>  <ast_fraglike>
1

>  <ast_fraglike_ext>
1

>  <ast_violation>
0

>  <ast_violation_ext>
0

>  <a_acc>
1

>  <a_acid>
0

>  <a_aro>
0

>  <a_base>
0

>  <a_count>
27

>  <a_don>
1

>  <a_donacc>
2

>  <a_heavy>
11

>  <a_hyd>
10

>  <a_IC>
31.162682

>  <a_ICM>
1.1541734

>  <a_nB>
0

>  <a_nBr>
0

>  <a_nC>
10

>  <a_nCl>
0

>  <a_nF>
0

>  <a_nH>
16

>  <a_nI>
0

>  <a_nN>
0

>  <a_nO>
1

>  <a_nP>
0

>  <a_nS>
0

>  <balabanJ>
2.2594683

>  <BCUT_PEOE_0>
-2.6949129

>  <BCUT_PEOE_1>
-0.23876438

>  <BCUT_PEOE_2>
0.2841565

>  <BCUT_PEOE_3>
2.6443737

>  <BCUT_SLOGP_0>
-2.5731282

>  <BCUT_SLOGP_1>
-0.12053455

>  <BCUT_SLOGP_2>
0.29384422

>  <BCUT_SLOGP_3>
2.7754261

>  <BCUT_SMR_0>
-2.4281251

>  <BCUT_SMR_1>
-0.11517576

>  <BCUT_SMR_2>
0.42579845

>  <BCUT_SMR_3>
2.9145176

>  <bpol>
17.491312

>  <b_1rotN>
2

>  <b_1rotR>
0.18181819

>  <b_ar>
0

>  <b_count>
27

>  <b_double>
2

>  <b_heavy>
11

>  <b_max1len>
4

>  <b_rotN>
2

>  <b_rotR>
0.18181819

>  <b_single>
25

>  <b_triple>
0

>  <chi0>
8.2675848

>  <chi0v>
7.1374478

>  <chi0v_C>
6.6902347

>  <chi0_C>
7.2675848

>  <chi1>
5.236382

>  <chi1v>
4.1789832

>  <chi1v_C>
3.8627553

>  <chi1_C>
4.5292754

>  <chiral>
1

>  <chiral_u>
1

>  <density>
0.63166106

>  <diameter>
7

>  <FCharge>
0

>  <GCUT_PEOE_0>
-0.7942369

>  <GCUT_PEOE_1>
-0.29693633

>  <GCUT_PEOE_2>
-0.030527523

>  <GCUT_PEOE_3>
2.4705353

>  <GCUT_SLOGP_0>
-0.87327176

>  <GCUT_SLOGP_1>
-0.17081849

>  <GCUT_SLOGP_2>
-0.024279311

>  <GCUT_SLOGP_3>
2.593389

>  <GCUT_SMR_0>
-0.51948828

>  <GCUT_SMR_1>
-0.12134805

>  <GCUT_SMR_2>
0.075256944

>  <GCUT_SMR_3>
2.7193162

>  <Kier1>
9.090909

>  <Kier2>
4.1326532

>  <Kier3>
2.5

>  <KierA1>
7.7838163

>  <KierA2>
3.4781153

>  <KierA3>
2.0719132

>  <KierFlex>
2.4611828

>  <lip_acc>
1

>  <lip_don>
1

>  <lip_druglike>
1

>  <lip_violation>
0

>  <logP(o/w)>
1.075

>  <logS>
-2.16822

>  <mr>
4.7079091

>  <mutagenic>
0

>  <nmol>
1

>  <opr_brigid>
7

>  <opr_leadlike>
1

>  <opr_nring>
1

>  <opr_nrot>
3

>  <opr_violation>
0

>  <PC+>
0

>  <PC->
0

>  <PEOE_PC+>
0.85682225

>  <PEOE_PC->
-0.85682225

>  <PEOE_RPC+>
0.24489796

>  <PEOE_RPC->
0.45602924

>  <PEOE_VSA+0>
42.653858

>  <PEOE_VSA+1>
36.278225

>  <PEOE_VSA+2>
0

>  <PEOE_VSA+3>
0

>  <PEOE_VSA+4>
10.324173

>  <PEOE_VSA+5>
0

>  <PEOE_VSA+6>
0

>  <PEOE_VSA-0>
47.060158

>  <PEOE_VSA-1>
36.764713

>  <PEOE_VSA-2>
0

>  <PEOE_VSA-3>
0

>  <PEOE_VSA-4>
0

>  <PEOE_VSA-5>
0

>  <PEOE_VSA-6>
7.7675405

>  <PEOE_VSA_FHYD>
0.89996213

>  <PEOE_VSA_FNEG>
0.50645888

>  <PEOE_VSA_FPNEG>
0.0429505

>  <PEOE_VSA_FPOL>
0.10003786

>  <PEOE_VSA_FPOS>
0.49354115

>  <PEOE_VSA_FPPOS>
0.057087358

>  <PEOE_VSA_HYD>
162.75696

>  <PEOE_VSA_NEG>
91.592407

>  <PEOE_VSA_PNEG>
7.7675405

>  <PEOE_VSA_POL>
18.091713

>  <PEOE_VSA_POS>
89.256256

>  <PEOE_VSA_PPOS>
10.324173

>  <petitjean>
0.42857143

>  <petitjeanSC>
0.75

>  <Q_PC+>
0

>  <Q_PC->
0

>  <Q_RPC+>
0

>  <Q_RPC->
0

>  <Q_VSA_FHYD>
1

>  <Q_VSA_FNEG>
0

>  <Q_VSA_FPNEG>
0

>  <Q_VSA_FPOL>
0

>  <Q_VSA_FPOS>
1

>  <Q_VSA_FPPOS>
0

>  <Q_VSA_HYD>
180.84866

>  <Q_VSA_NEG>
0

>  <Q_VSA_PNEG>
0

>  <Q_VSA_POL>
0

>  <Q_VSA_POS>
180.84866

>  <Q_VSA_PPOS>
0

>  <radius>
4

>  <reactive>
0

>  <rings>
1

>  <RPC+>
0

>  <RPC->
0

>  <rsynth>
0

>  <SlogP>
2.2813001

>  <SlogP_VSA0>
25.385227

>  <SlogP_VSA1>
0

>  <SlogP_VSA2>
0

>  <SlogP_VSA3>
20.926258

>  <SlogP_VSA4>
4.4107962

>  <SlogP_VSA5>
6.37115

>  <SlogP_VSA6>
0

>  <SlogP_VSA7>
17.643185

>  <SlogP_VSA8>
56.605217

>  <SlogP_VSA9>
65.426811

>  <SMR>
4.7323799

>  <SMR_VSA0>
0

>  <SMR_VSA1>
25.385227

>  <SMR_VSA2>
4.4107962

>  <SMR_VSA3>
6.37115

>  <SMR_VSA4>
0

>  <SMR_VSA5>
74.248398

>  <SMR_VSA6>
20.926258

>  <SMR_VSA7>
65.426811

>  <TPSA>
20.23

>  <VAdjEq>
0.68403846

>  <VAdjMa>
4.4594316

>  <VDistEq>
2.5410447

>  <VDistMa>
6.5738969

>  <vdw_area>
180.84866

>  <vdw_vol>
241.01057

>  <vsa_acc>
0

>  <vsa_acid>
0

>  <vsa_base>
0

>  <vsa_don>
0

>  <vsa_hyd>
150.73497

>  <vsa_other>
0

>  <vsa_pol>
13.566921

>  <Weight>
152.237

>  <weinerPath>
162

>  <weinerPol>
13

>  <zagreb>
50

$$$$