O(C(=O)c1ccc(cc1)C)c1cc(ccc1OC(=O)c1ccc(cc1)C)C(O)CNC(C)(C)C
  MOE2013           2D

 34 36  0  0  1  0  0  0  0  0999 V2000
    0.0000    0.0000    0.0000 O   0  0  0  0  0  0  0  0  0  0  0  0
    1.2940    0.7580    0.0000 C   0  0  0  0  0  0  0  0  0  0  0  0
    2.5980    0.0170    0.0000 O   0  0  0  0  0  0  0  0  0  0  0  0
    1.2850    2.2580    0.0000 C   0  0  0  0  0  0  0  0  0  0  0  0
   -0.0190    3.0000    0.0000 C   0  0  0  0  0  0  0  0  0  0  0  0
   -0.0290    4.5000    0.0000 C   0  0  0  0  0  0  0  0  0  0  0  0
    1.2650    5.2580    0.0000 C   0  0  0  0  0  0  0  0  0  0  0  0
    2.5690    4.5170    0.0000 C   0  0  0  0  0  0  0  0  0  0  0  0
    2.5790    3.0170    0.0000 C   0  0  0  0  0  0  0  0  0  0  0  0
    1.2560    6.7580    0.0000 C   0  0  0  0  0  0  0  0  0  0  0  0
    0.0100   -1.5000    0.0000 C   0  0  0  0  0  0  0  0  0  0  0  0
    1.3130   -2.2420    0.0000 C   0  0  0  0  0  0  0  0  0  0  0  0
    1.3230   -3.7420    0.0000 C   0  0  0  0  0  0  0  0  0  0  0  0
    0.0290   -4.5000    0.0000 C   0  0  0  0  0  0  0  0  0  0  0  0
   -1.2750   -3.7580    0.0000 C   0  0  0  0  0  0  0  0  0  0  0  0
   -1.2850   -2.2580    0.0000 C   0  0  0  0  0  0  0  0  0  0  0  0
   -2.5880   -1.5170    0.0000 O   0  0  0  0  0  0  0  0  0  0  0  0
   -3.8830   -2.2750    0.0000 C   0  0  0  0  0  0  0  0  0  0  0  0
   -3.8730   -3.7750    0.0000 O   0  0  0  0  0  0  0  0  0  0  0  0
   -5.1860   -1.5330    0.0000 C   0  0  0  0  0  0  0  0  0  0  0  0
   -6.4810   -2.2920    0.0000 C   0  0  0  0  0  0  0  0  0  0  0  0
   -7.7840   -1.5500    0.0000 C   0  0  0  0  0  0  0  0  0  0  0  0
   -7.7940   -0.0500    0.0000 C   0  0  0  0  0  0  0  0  0  0  0  0
   -6.5000    0.7080    0.0000 C   0  0  0  0  0  0  0  0  0  0  0  0
   -5.1960   -0.0330    0.0000 C   0  0  0  0  0  0  0  0  0  0  0  0
   -9.0980    0.6920    0.0000 C   0  0  0  0  0  0  0  0  0  0  0  0
    2.6270   -4.4830    0.0000 C   0  0  3  0  0  0  0  0  0  0  0  0
    2.6370   -5.9830    0.0000 O   0  0  0  0  0  0  0  0  0  0  0  0
    3.9210   -3.7250    0.0000 C   0  0  0  0  0  0  0  0  0  0  0  0
    5.2250   -4.4660    0.0000 N   0  0  0  0  0  0  0  0  0  0  0  0
    6.5190   -3.7080    0.0000 C   0  0  0  0  0  0  0  0  0  0  0  0
    7.2780   -5.0020    0.0000 C   0  0  0  0  0  0  0  0  0  0  0  0
    7.8130   -2.9500    0.0000 C   0  0  0  0  0  0  0  0  0  0  0  0
    5.7610   -2.4140    0.0000 C   0  0  0  0  0  0  0  0  0  0  0  0
  1  2  1  0  0  0  0
  1 11  1  0  0  0  0
  2  3  2  0  0  0  0
  2  4  1  0  0  0  0
  4  5  1  0  0  0  0
  4  9  2  0  0  0  0
  5  6  2  0  0  0  0
  6  7  1  0  0  0  0
  7  8  2  0  0  0  0
  7 10  1  0  0  0  0
  8  9  1  0  0  0  0
 11 12  1  0  0  0  0
 11 16  2  0  0  0  0
 12 13  2  0  0  0  0
 13 14  1  0  0  0  0
 13 27  1  0  0  0  0
 14 15  2  0  0  0  0
 15 16  1  0  0  0  0
 16 17  1  0  0  0  0
 17 18  1  0  0  0  0
 18 19  2  0  0  0  0
 18 20  1  0  0  0  0
 20 21  1  0  0  0  0
 20 25  2  0  0  0  0
 21 22  2  0  0  0  0
 22 23  1  0  0  0  0
 23 24  2  0  0  0  0
 23 26  1  0  0  0  0
 24 25  1  0  0  0  0
 27 28  1  0  0  0  0
 27 29  1  0  0  0  0
 29 30  1  0  0  0  0
 30 31  1  0  0  0  0
 31 32  1  0  0  0  0
 31 33  1  0  0  0  0
 31 34  1  0  0  0  0
M  END
>  <Index>
150

>  <ID>
HT0294

>  <class>
0

>  <apol>
75.060585

>  <ast_fraglike>
0

>  <ast_fraglike_ext>
0

>  <ast_violation>
3

>  <ast_violation_ext>
4

>  <a_acc>
4

>  <a_acid>
0

>  <a_aro>
18

>  <a_base>
0

>  <a_count>
65

>  <a_don>
2

>  <a_donacc>
6

>  <a_heavy>
34

>  <a_hyd>
26

>  <a_IC>
91.658241

>  <a_ICM>
1.4101268

>  <a_nB>
0

>  <a_nBr>
0

>  <a_nC>
28

>  <a_nCl>
0

>  <a_nF>
0

>  <a_nH>
31

>  <a_nI>
0

>  <a_nN>
1

>  <a_nO>
5

>  <a_nP>
0

>  <a_nS>
0

>  <balabanJ>
1.6096494

>  <BCUT_PEOE_0>
-2.7031574

>  <BCUT_PEOE_1>
-0.57777667

>  <BCUT_PEOE_2>
0.65574962

>  <BCUT_PEOE_3>
2.6268506

>  <BCUT_SLOGP_0>
-2.7885549

>  <BCUT_SLOGP_1>
-0.51241982

>  <BCUT_SLOGP_2>
0.66392052

>  <BCUT_SLOGP_3>
2.6307247

>  <BCUT_SMR_0>
-2.4328275

>  <BCUT_SMR_1>
-0.44161904

>  <BCUT_SMR_2>
0.77500707

>  <BCUT_SMR_3>
2.8915837

>  <bpol>
40.297417

>  <b_1rotN>
7

>  <b_1rotR>
0.19444445

>  <b_ar>
18

>  <b_count>
67

>  <b_double>
2

>  <b_heavy>
36

>  <b_max1len>
7

>  <b_rotN>
10

>  <b_rotR>
0.27777779

>  <b_single>
47

>  <b_triple>
0

>  <chi0>
24.880104

>  <chi0v>
20.215517

>  <chi0v_C>
17.635309

>  <chi0_C>
19.758783

>  <chi1>
16.013859

>  <chi1v>
11.164188

>  <chi1v_C>
9.077692

>  <chi1_C>
11.795261

>  <chiral>
1

>  <chiral_u>
1

>  <density>
0.70834643

>  <diameter>
15

>  <FCharge>
0

>  <GCUT_PEOE_0>
-0.84423721

>  <GCUT_PEOE_1>
-0.38677642

>  <GCUT_PEOE_2>
0.066773124

>  <GCUT_PEOE_3>
2.6949499

>  <GCUT_SLOGP_0>
-1.1526151

>  <GCUT_SLOGP_1>
-0.28361621

>  <GCUT_SLOGP_2>
0.11999828

>  <GCUT_SLOGP_3>
2.7803452

>  <GCUT_SMR_0>
-0.52300078

>  <GCUT_SMR_1>
-0.21384485

>  <GCUT_SMR_2>
0.18438043

>  <GCUT_SMR_3>
2.957397

>  <Kier1>
28.569445

>  <Kier2>
12.991926

>  <Kier3>
9.1192188

>  <KierA1>
21.655809

>  <KierA2>
9.7597761

>  <KierA3>
6.8072996

>  <KierFlex>
6.2163482

>  <lip_acc>
6

>  <lip_don>
2

>  <lip_druglike>
1

>  <lip_violation>
1

>  <logP(o/w)>
5.89674

>  <logS>
-7.08043

>  <mr>
13.294193

>  <mutagenic>
0

>  <nmol>
1

>  <opr_brigid>
18

>  <opr_leadlike>
0

>  <opr_nring>
3

>  <opr_nrot>
8

>  <opr_violation>
2

>  <PC+>
0

>  <PC->
0

>  <PEOE_PC+>
2.6234925

>  <PEOE_PC->
-2.6234925

>  <PEOE_RPC+>
0.11391097

>  <PEOE_RPC->
0.14709948

>  <PEOE_VSA+0>
90.120964

>  <PEOE_VSA+1>
56.089561

>  <PEOE_VSA+2>
25.536053

>  <PEOE_VSA+3>
0

>  <PEOE_VSA+4>
10.324173

>  <PEOE_VSA+5>
29.416998

>  <PEOE_VSA+6>
0

>  <PEOE_VSA-0>
169.47635

>  <PEOE_VSA-1>
65.691597

>  <PEOE_VSA-2>
0

>  <PEOE_VSA-3>
0

>  <PEOE_VSA-4>
0

>  <PEOE_VSA-5>
32.141354

>  <PEOE_VSA-6>
7.9044313

>  <PEOE_VSA_FHYD>
0.83606595

>  <PEOE_VSA_FNEG>
0.56546724

>  <PEOE_VSA_FPNEG>
0.082279973

>  <PEOE_VSA_FPOL>
0.16393407

>  <PEOE_VSA_FPOS>
0.43453279

>  <PEOE_VSA_FPPOS>
0.081654102

>  <PEOE_VSA_HYD>
406.91452

>  <PEOE_VSA_NEG>
275.21375

>  <PEOE_VSA_PNEG>
40.045784

>  <PEOE_VSA_POL>
79.786957

>  <PEOE_VSA_POS>
211.48775

>  <PEOE_VSA_PPOS>
39.741173

>  <petitjean>
0.46666667

>  <petitjeanSC>
0.875

>  <Q_PC+>
0

>  <Q_PC->
0

>  <Q_RPC+>
0

>  <Q_RPC->
0

>  <Q_VSA_FHYD>
1

>  <Q_VSA_FNEG>
0

>  <Q_VSA_FPNEG>
0

>  <Q_VSA_FPOL>
0

>  <Q_VSA_FPOS>
1

>  <Q_VSA_FPPOS>
0

>  <Q_VSA_HYD>
486.70148

>  <Q_VSA_NEG>
0

>  <Q_VSA_PNEG>
0

>  <Q_VSA_POL>
0

>  <Q_VSA_POS>
486.70148

>  <Q_VSA_PPOS>
0

>  <radius>
8

>  <reactive>
0

>  <rings>
3

>  <RPC+>
0

>  <RPC->
0

>  <rsynth>
1

>  <SlogP>
5.2588401

>  <SlogP_VSA0>
65.395752

>  <SlogP_VSA1>
15.490929

>  <SlogP_VSA2>
0

>  <SlogP_VSA3>
18.439579

>  <SlogP_VSA4>
63.652306

>  <SlogP_VSA5>
0

>  <SlogP_VSA6>
0

>  <SlogP_VSA7>
194.07503

>  <SlogP_VSA8>
6.4686494

>  <SlogP_VSA9>
177.11693

>  <SMR>
13.15435

>  <SMR_VSA0>
47.724434

>  <SMR_VSA1>
47.385002

>  <SMR_VSA2>
18.01075

>  <SMR_VSA3>
32.883381

>  <SMR_VSA4>
0

>  <SMR_VSA5>
194.07503

>  <SMR_VSA6>
33.930508

>  <SMR_VSA7>
166.63008

>  <TPSA>
84.860001

>  <VAdjEq>
0.33644459

>  <VAdjMa>
6.1699252

>  <VDistEq>
3.7473218

>  <VDistMa>
9.9064913

>  <vdw_area>
486.70148

>  <vdw_vol>
651.59924

>  <vsa_acc>
27.133842

>  <vsa_acid>
0

>  <vsa_base>
0

>  <vsa_don>
0

>  <vsa_hyd>
377.65344

>  <vsa_other>
34.424511

>  <vsa_pol>
46.383339

>  <Weight>
461.55798

>  <weinerPath>
3712

>  <weinerPol>
50

>  <zagreb>
174

$$$$