Ic1c(C(O)=O)c(I)c(NC(=O)C)c(I)c1N(C(=O)C)C
  MOE2013           2D

 21 21  0  0  0  0  0  0  0  0999 V2000
    0.0000    0.0000    0.0000 I   0  0  0  0  0  0  0  0  0  0  0  0
   -0.7590    1.2940    0.0000 C   0  0  0  0  0  0  0  0  0  0  0  0
   -2.2590    1.2830    0.0000 C   0  0  0  0  0  0  0  0  0  0  0  0
   -3.0000   -0.0210    0.0000 C   0  0  0  0  0  0  0  0  0  0  0  0
   -4.5000   -0.0320    0.0000 O   0  0  0  0  0  0  0  0  0  0  0  0
   -2.2410   -1.3150    0.0000 O   0  0  0  0  0  0  0  0  0  0  0  0
   -3.0180    2.5770    0.0000 C   0  0  0  0  0  0  0  0  0  0  0  0
   -4.5180    2.5660    0.0000 I   0  0  0  0  0  0  0  0  0  0  0  0
   -2.2770    3.8810    0.0000 C   0  0  0  0  0  0  0  0  0  0  0  0
   -3.0360    5.1750    0.0000 N   0  0  0  0  0  0  0  0  0  0  0  0
   -4.5360    5.1640    0.0000 C   0  0  0  0  0  0  0  0  0  0  0  0
   -5.2770    3.8600    0.0000 O   0  0  0  0  0  0  0  0  0  0  0  0
   -5.2960    6.4580    0.0000 C   0  0  0  0  0  0  0  0  0  0  0  0
   -0.7770    3.8920    0.0000 C   0  0  0  0  0  0  0  0  0  0  0  0
   -0.0370    5.1960    0.0000 I   0  0  0  0  0  0  0  0  0  0  0  0
   -0.0180    2.5980    0.0000 C   0  0  0  0  0  0  0  0  0  0  0  0
    1.4820    2.6090    0.0000 N   0  0  0  0  0  0  0  0  0  0  0  0
    2.2230    3.9130    0.0000 C   0  0  0  0  0  0  0  0  0  0  0  0
    3.7220    3.9230    0.0000 O   0  0  0  0  0  0  0  0  0  0  0  0
    1.4630    5.2070    0.0000 C   0  0  0  0  0  0  0  0  0  0  0  0
    2.2410    1.3150    0.0000 C   0  0  0  0  0  0  0  0  0  0  0  0
  1  2  1  0  0  0  0
  2  3  1  0  0  0  0
  2 16  2  0  0  0  0
  3  4  1  0  0  0  0
  3  7  2  0  0  0  0
  4  5  1  0  0  0  0
  4  6  2  0  0  0  0
  7  8  1  0  0  0  0
  7  9  1  0  0  0  0
  9 10  1  0  0  0  0
  9 14  2  0  0  0  0
 10 11  1  0  0  0  0
 11 12  2  0  0  0  0
 11 13  1  0  0  0  0
 14 15  1  0  0  0  0
 14 16  1  0  0  0  0
 16 17  1  0  0  0  0
 17 18  1  0  0  0  0
 17 21  1  0  0  0  0
 18 19  2  0  0  0  0
 18 20  1  0  0  0  0
M  END
>  <Index>
1404

>  <ID>
HT3962

>  <class>
0

>  <apol>
49.912724

>  <ast_fraglike>
0

>  <ast_fraglike_ext>
0

>  <ast_violation>
3

>  <ast_violation_ext>
3

>  <a_acc>
4

>  <a_acid>
0

>  <a_aro>
6

>  <a_base>
0

>  <a_count>
32

>  <a_don>
3

>  <a_donacc>
7

>  <a_heavy>
21

>  <a_hyd>
12

>  <a_IC>
64.171814

>  <a_ICM>
2.0053692

>  <a_nB>
0

>  <a_nBr>
0

>  <a_nC>
12

>  <a_nCl>
0

>  <a_nF>
0

>  <a_nH>
11

>  <a_nI>
3

>  <a_nN>
2

>  <a_nO>
4

>  <a_nP>
0

>  <a_nS>
0

>  <balabanJ>
3.1362417

>  <BCUT_PEOE_0>
-2.4153719

>  <BCUT_PEOE_1>
-0.54040045

>  <BCUT_PEOE_2>
0.39628813

>  <BCUT_PEOE_3>
2.3875163

>  <BCUT_SLOGP_0>
-2.5055411

>  <BCUT_SLOGP_1>
-0.42022687

>  <BCUT_SLOGP_2>
0.56649148

>  <BCUT_SLOGP_3>
2.4401476

>  <BCUT_SMR_0>
-2.0902619

>  <BCUT_SMR_1>
-0.2135755

>  <BCUT_SMR_2>
0.85291761

>  <BCUT_SMR_3>
2.759419

>  <bpol>
28.309277

>  <b_1rotN>
4

>  <b_1rotR>
0.19047619

>  <b_ar>
6

>  <b_count>
32

>  <b_double>
3

>  <b_heavy>
21

>  <b_max1len>
2

>  <b_rotN>
5

>  <b_rotR>
0.23809524

>  <b_single>
23

>  <b_triple>
0

>  <chi0>
16.48061

>  <chi0v>
17.725561

>  <chi0v_C>
7.5

>  <chi0_C>
8.1961527

>  <chi1>
9.5899992

>  <chi1v>
8.7836008

>  <chi1v_C>
2.75

>  <chi1_C>
3.4880338

>  <chiral>
0

>  <chiral_u>
0

>  <density>
1.4972736

>  <diameter>
8

>  <FCharge>
0

>  <GCUT_PEOE_0>
-0.82633656

>  <GCUT_PEOE_1>
-0.48548818

>  <GCUT_PEOE_2>
0.014151127

>  <GCUT_PEOE_3>
2.388757

>  <GCUT_SLOGP_0>
-0.99915516

>  <GCUT_SLOGP_1>
-0.41229814

>  <GCUT_SLOGP_2>
0.17539121

>  <GCUT_SLOGP_3>
2.4951961

>  <GCUT_SMR_0>
-0.46984208

>  <GCUT_SMR_1>
-0.15641588

>  <GCUT_SMR_2>
0.37324682

>  <GCUT_SMR_3>
2.8053501

>  <Kier1>
19.047619

>  <Kier2>
7.5130072

>  <Kier3>
4.0500002

>  <KierA1>
22.487875

>  <KierA2>
8.9443502

>  <KierA3>
4.8523736

>  <KierFlex>
9.5780678

>  <lip_acc>
6

>  <lip_don>
2

>  <lip_druglike>
1

>  <lip_violation>
1

>  <logP(o/w)>
3.9200001

>  <logS>
-4.6417499

>  <mr>
10.496267

>  <mutagenic>
0

>  <nmol>
1

>  <opr_brigid>
6

>  <opr_leadlike>
1

>  <opr_nring>
1

>  <opr_nrot>
3

>  <opr_violation>
1

>  <PC+>
0

>  <PC->
0

>  <PEOE_PC+>
1.8921981

>  <PEOE_PC->
-1.8921981

>  <PEOE_RPC+>
0.15504953

>  <PEOE_RPC->
0.17304723

>  <PEOE_VSA+0>
99.12252

>  <PEOE_VSA+1>
24.727924

>  <PEOE_VSA+2>
0

>  <PEOE_VSA+3>
8.6190128

>  <PEOE_VSA+4>
36.223236

>  <PEOE_VSA+5>
14.708499

>  <PEOE_VSA+6>
0

>  <PEOE_VSA-0>
140.97005

>  <PEOE_VSA-1>
0

>  <PEOE_VSA-2>
0

>  <PEOE_VSA-3>
0

>  <PEOE_VSA-4>
0

>  <PEOE_VSA-5>
40.700764

>  <PEOE_VSA-6>
7.9044313

>  <PEOE_VSA_FHYD>
0.73312807

>  <PEOE_VSA_FNEG>
0.5082767

>  <PEOE_VSA_FPNEG>
0.13031706

>  <PEOE_VSA_FPOL>
0.2668719

>  <PEOE_VSA_FPOS>
0.49172327

>  <PEOE_VSA_FPPOS>
0.13655484

>  <PEOE_VSA_HYD>
273.43948

>  <PEOE_VSA_NEG>
189.57524

>  <PEOE_VSA_PNEG>
48.605194

>  <PEOE_VSA_POL>
99.536926

>  <PEOE_VSA_POS>
183.40118

>  <PEOE_VSA_PPOS>
50.931732

>  <petitjean>
0.375

>  <petitjeanSC>
0.60000002

>  <Q_PC+>
0

>  <Q_PC->
0

>  <Q_RPC+>
0

>  <Q_RPC->
0

>  <Q_VSA_FHYD>
1

>  <Q_VSA_FNEG>
0

>  <Q_VSA_FPNEG>
0

>  <Q_VSA_FPOL>
0

>  <Q_VSA_FPOS>
1

>  <Q_VSA_FPPOS>
0

>  <Q_VSA_HYD>
372.97641

>  <Q_VSA_NEG>
0

>  <Q_VSA_PNEG>
0

>  <Q_VSA_POL>
0

>  <Q_VSA_POS>
372.97641

>  <Q_VSA_PPOS>
0

>  <radius>
5

>  <reactive>
0

>  <rings>
1

>  <RPC+>
0

>  <RPC->
0

>  <rsynth>
1

>  <SlogP>
3.1396999

>  <SlogP_VSA0>
3.1243138

>  <SlogP_VSA1>
36.273781

>  <SlogP_VSA2>
52.703362

>  <SlogP_VSA3>
25.385227

>  <SlogP_VSA4>
27.047791

>  <SlogP_VSA5>
32.897186

>  <SlogP_VSA6>
0

>  <SlogP_VSA7>
0

>  <SlogP_VSA8>
0

>  <SlogP_VSA9>
242.51155

>  <SMR>
10.494

>  <SMR_VSA0>
71.586647

>  <SMR_VSA1>
0

>  <SMR_VSA2>
33.488468

>  <SMR_VSA3>
3.185575

>  <SMR_VSA4>
23.524246

>  <SMR_VSA5>
0

>  <SMR_VSA6>
18.263031

>  <SMR_VSA7>
269.89523

>  <TPSA>
86.709999

>  <VAdjEq>
0.45371634

>  <VAdjMa>
5.3923173

>  <VDistEq>
2.8400815

>  <VDistMa>
8.5488415

>  <vdw_area>
372.97641

>  <vdw_vol>
419.39029

>  <vsa_acc>
27.133842

>  <vsa_acid>
0

>  <vsa_base>
0

>  <vsa_don>
5.6825762

>  <vsa_hyd>
258.41434

>  <vsa_other>
40.607563

>  <vsa_pol>
59.95026

>  <Weight>
627.94202

>  <weinerPath>
832

>  <weinerPol>
37

>  <zagreb>
104

$$$$