S1SCC(NC(=O)C(NC(=O)C(NC(=O)C(NC(=O)C(NC(=O)C(NC(=O)CNC(=O)CNC(=O)CN)C1)Cc1ccc(O)cc1)Cc1ccccc1)CCC(=O)N)CC(=O)N)C(=O)N1CCCC1C(=O)NC(CCCCN)C(=O)NCC(=O)N
  MOE2013           2D

 85 88  0  0  1  0  0  0  0  0999 V2000
    0.0000    0.0000    0.0000 S   0  0  0  0  0  0  0  0  0  0  0  0
    1.3100   -0.6990    0.0000 S   0  0  0  0  0  0  0  0  0  0  0  0
    2.5860    0.0830    0.0000 C   0  0  0  0  0  0  0  0  0  0  0  0
    3.9110   -0.4760    0.0000 C   0  0  3  0  0  0  0  0  0  0  0  0
    4.2440   -1.9300    0.0000 N   0  0  0  0  0  0  0  0  0  0  0  0
    5.6890   -2.3580    0.0000 C   0  0  0  0  0  0  0  0  0  0  0  0
    6.7610   -1.3080    0.0000 O   0  0  0  0  0  0  0  0  0  0  0  0
    6.0780   -3.7790    0.0000 C   0  0  3  0  0  0  0  0  0  0  0  0
    5.0700   -4.8840    0.0000 N   0  0  0  0  0  0  0  0  0  0  0  0
    5.5290   -6.3150    0.0000 C   0  0  0  0  0  0  0  0  0  0  0  0
    6.9980   -6.6210    0.0000 O   0  0  0  0  0  0  0  0  0  0  0  0
    4.5490   -7.4320    0.0000 C   0  0  3  0  0  0  0  0  0  0  0  0
    3.0700   -7.1610    0.0000 N   0  0  0  0  0  0  0  0  0  0  0  0
    2.1030   -8.2970    0.0000 C   0  0  0  0  0  0  0  0  0  0  0  0
    2.6510   -9.6940    0.0000 O   0  0  0  0  0  0  0  0  0  0  0  0
    0.6490   -8.1240    0.0000 C   0  0  3  0  0  0  0  0  0  0  0  0
   -0.0080   -6.7710    0.0000 N   0  0  0  0  0  0  0  0  0  0  0  0
   -1.4880   -6.6650    0.0000 C   0  0  0  0  0  0  0  0  0  0  0  0
   -2.1910   -7.9900    0.0000 O   0  0  0  0  0  0  0  0  0  0  0  0
   -2.3370   -5.5860    0.0000 C   0  0  3  0  0  0  0  0  0  0  0  0
   -2.4750   -4.2340    0.0000 N   0  0  0  0  0  0  0  0  0  0  0  0
   -1.5160   -3.1020    0.0000 C   0  0  0  0  0  0  0  0  0  0  0  0
   -0.0420   -3.3800    0.0000 O   0  0  0  0  0  0  0  0  0  0  0  0
   -1.9990   -1.6920    0.0000 C   0  0  3  0  0  0  0  0  0  0  0  0
   -3.4910   -1.5400    0.0000 N   0  0  0  0  0  0  0  0  0  0  0  0
   -4.1060   -0.1720    0.0000 C   0  0  0  0  0  0  0  0  0  0  0  0
   -3.2290    1.0440    0.0000 O   0  0  0  0  0  0  0  0  0  0  0  0
   -5.5990   -0.0210    0.0000 C   0  0  0  0  0  0  0  0  0  0  0  0
   -6.2140    1.3470    0.0000 N   0  0  0  0  0  0  0  0  0  0  0  0
   -7.7060    1.4980    0.0000 C   0  0  0  0  0  0  0  0  0  0  0  0
   -8.5830    0.2810    0.0000 O   0  0  0  0  0  0  0  0  0  0  0  0
   -8.3210    2.8660    0.0000 C   0  0  0  0  0  0  0  0  0  0  0  0
   -9.8140    3.0180    0.0000 N   0  0  0  0  0  0  0  0  0  0  0  0
  -10.4290    4.3860    0.0000 C   0  0  0  0  0  0  0  0  0  0  0  0
  -11.9210    4.5370    0.0000 O   0  0  0  0  0  0  0  0  0  0  0  0
   -9.5520    5.6020    0.0000 C   0  0  0  0  0  0  0  0  0  0  0  0
  -10.1670    6.9700    0.0000 N   0  0  0  0  0  0  0  0  0  0  0  0
   -1.2960   -0.4980    0.0000 C   0  0  0  0  0  0  0  0  0  0  0  0
   -3.7280   -6.1480    0.0000 C   0  0  0  0  0  0  0  0  0  0  0  0
   -4.9100   -5.2250    0.0000 C   0  0  0  0  0  0  0  0  0  0  0  0
   -4.7020   -3.7400    0.0000 C   0  0  0  0  0  0  0  0  0  0  0  0
   -5.8840   -2.8170    0.0000 C   0  0  0  0  0  0  0  0  0  0  0  0
   -7.2740   -3.3790    0.0000 C   0  0  0  0  0  0  0  0  0  0  0  0
   -8.4570   -2.4550    0.0000 O   0  0  0  0  0  0  0  0  0  0  0  0
   -7.4830   -4.8640    0.0000 C   0  0  0  0  0  0  0  0  0  0  0  0
   -6.3010   -5.7870    0.0000 C   0  0  0  0  0  0  0  0  0  0  0  0
   -0.2210   -9.3460    0.0000 C   0  0  0  0  0  0  0  0  0  0  0  0
    0.4030  -10.7110    0.0000 C   0  0  0  0  0  0  0  0  0  0  0  0
   -0.4670  -11.9330    0.0000 C   0  0  0  0  0  0  0  0  0  0  0  0
    0.1570  -13.2970    0.0000 C   0  0  0  0  0  0  0  0  0  0  0  0
    1.6500  -13.4390    0.0000 C   0  0  0  0  0  0  0  0  0  0  0  0
    2.5200  -12.2170    0.0000 C   0  0  0  0  0  0  0  0  0  0  0  0
    1.8960  -10.8530    0.0000 C   0  0  0  0  0  0  0  0  0  0  0  0
    5.0410   -8.8490    0.0000 C   0  0  0  0  0  0  0  0  0  0  0  0
    6.5140   -9.1310    0.0000 C   0  0  0  0  0  0  0  0  0  0  0  0
    7.0060  -10.5480    0.0000 C   0  0  0  0  0  0  0  0  0  0  0  0
    6.0260  -11.6830    0.0000 O   0  0  0  0  0  0  0  0  0  0  0  0
    8.4800  -10.8300    0.0000 N   0  0  0  0  0  0  0  0  0  0  0  0
    7.5370   -4.1300    0.0000 C   0  0  0  0  0  0  0  0  0  0  0  0
    8.5700   -3.0430    0.0000 C   0  0  0  0  0  0  0  0  0  0  0  0
   10.0280   -3.3940    0.0000 O   0  0  0  0  0  0  0  0  0  0  0  0
    8.1450   -1.6040    0.0000 N   0  0  0  0  0  0  0  0  0  0  0  0
    5.0590    0.4880    0.0000 C   0  0  0  0  0  0  0  0  0  0  0  0
    6.4690   -0.0250    0.0000 O   0  0  0  0  0  0  0  0  0  0  0  0
    4.7990    1.9650    0.0000 N   0  0  0  0  0  0  0  0  0  0  0  0
    3.4500    2.6230    0.0000 C   0  0  0  0  0  0  0  0  0  0  0  0
    3.6590    4.1080    0.0000 C   0  0  0  0  0  0  0  0  0  0  0  0
    5.1360    4.3690    0.0000 C   0  0  0  0  0  0  0  0  0  0  0  0
    5.8410    3.0450    0.0000 C   0  0  3  0  0  0  0  0  0  0  0  0
    7.3260    2.8360    0.0000 C   0  0  0  0  0  0  0  0  0  0  0  0
    7.8880    1.4450    0.0000 O   0  0  0  0  0  0  0  0  0  0  0  0
    8.2490    4.0180    0.0000 N   0  0  0  0  0  0  0  0  0  0  0  0
    9.7350    3.8100    0.0000 C   0  0  3  0  0  0  0  0  0  0  0  0
   10.2970    2.4190    0.0000 C   0  0  0  0  0  0  0  0  0  0  0  0
   11.7820    2.2110    0.0000 C   0  0  0  0  0  0  0  0  0  0  0  0
   12.3440    0.8200    0.0000 C   0  0  0  0  0  0  0  0  0  0  0  0
   13.8300    0.6120    0.0000 C   0  0  0  0  0  0  0  0  0  0  0  0
   14.3920   -0.7790    0.0000 N   0  0  0  0  0  0  0  0  0  0  0  0
   10.6580    4.9920    0.0000 C   0  0  0  0  0  0  0  0  0  0  0  0
   10.0960    6.3830    0.0000 O   0  0  0  0  0  0  0  0  0  0  0  0
   12.1430    4.7840    0.0000 N   0  0  0  0  0  0  0  0  0  0  0  0
   13.0670    5.9660    0.0000 C   0  0  0  0  0  0  0  0  0  0  0  0
   14.5520    5.7570    0.0000 C   0  0  0  0  0  0  0  0  0  0  0  0
   15.4750    6.9400    0.0000 O   0  0  0  0  0  0  0  0  0  0  0  0
   15.1140    4.3670    0.0000 N   0  0  0  0  0  0  0  0  0  0  0  0
  1  2  1  0  0  0  0
  1 38  1  0  0  0  0
  2  3  1  0  0  0  0
  3  4  1  0  0  0  0
  4  5  1  0  0  0  0
  4 63  1  0  0  0  0
  5  6  1  0  0  0  0
  6  7  2  0  0  0  0
  6  8  1  0  0  0  0
  8  9  1  0  0  0  0
  8 59  1  0  0  0  0
  9 10  1  0  0  0  0
 10 11  2  0  0  0  0
 10 12  1  0  0  0  0
 12 13  1  0  0  0  0
 12 54  1  0  0  0  0
 13 14  1  0  0  0  0
 14 15  2  0  0  0  0
 14 16  1  0  0  0  0
 16 17  1  0  0  0  0
 16 47  1  0  0  0  0
 17 18  1  0  0  0  0
 18 19  2  0  0  0  0
 18 20  1  0  0  0  0
 20 21  1  0  0  0  0
 20 39  1  0  0  0  0
 21 22  1  0  0  0  0
 22 23  2  0  0  0  0
 22 24  1  0  0  0  0
 24 25  1  0  0  0  0
 24 38  1  0  0  0  0
 25 26  1  0  0  0  0
 26 27  2  0  0  0  0
 26 28  1  0  0  0  0
 28 29  1  0  0  0  0
 29 30  1  0  0  0  0
 30 31  2  0  0  0  0
 30 32  1  0  0  0  0
 32 33  1  0  0  0  0
 33 34  1  0  0  0  0
 34 35  2  0  0  0  0
 34 36  1  0  0  0  0
 36 37  1  0  0  0  0
 39 40  1  0  0  0  0
 40 41  1  0  0  0  0
 40 46  2  0  0  0  0
 41 42  2  0  0  0  0
 42 43  1  0  0  0  0
 43 44  1  0  0  0  0
 43 45  2  0  0  0  0
 45 46  1  0  0  0  0
 47 48  1  0  0  0  0
 48 49  1  0  0  0  0
 48 53  2  0  0  0  0
 49 50  2  0  0  0  0
 50 51  1  0  0  0  0
 51 52  2  0  0  0  0
 52 53  1  0  0  0  0
 54 55  1  0  0  0  0
 55 56  1  0  0  0  0
 56 57  2  0  0  0  0
 56 58  1  0  0  0  0
 59 60  1  0  0  0  0
 60 61  2  0  0  0  0
 60 62  1  0  0  0  0
 63 64  2  0  0  0  0
 63 65  1  0  0  0  0
 65 66  1  0  0  0  0
 65 69  1  0  0  0  0
 66 67  1  0  0  0  0
 67 68  1  0  0  0  0
 68 69  1  0  0  0  0
 69 70  1  0  0  0  0
 70 71  2  0  0  0  0
 70 72  1  0  0  0  0
 72 73  1  0  0  0  0
 73 74  1  0  0  0  0
 73 79  1  0  0  0  0
 74 75  1  0  0  0  0
 75 76  1  0  0  0  0
 76 77  1  0  0  0  0
 77 78  1  0  0  0  0
 79 80  2  0  0  0  0
 79 81  1  0  0  0  0
 81 82  1  0  0  0  0
 82 83  1  0  0  0  0
 83 84  2  0  0  0  0
 83 85  1  0  0  0  0
M  END
>  <Index>
1053

>  <ID>
HT2014

>  <class>
0

>  <apol>
176.29268

>  <ast_fraglike>
0

>  <ast_fraglike_ext>
0

>  <ast_violation>
3

>  <ast_violation_ext>
5

>  <a_acc>
17

>  <a_acid>
0

>  <a_aro>
12

>  <a_base>
0

>  <a_count>
159

>  <a_don>
16

>  <a_donacc>
33

>  <a_heavy>
85

>  <a_hyd>
40

>  <a_IC>
282.22263

>  <a_ICM>
1.774985

>  <a_nB>
0

>  <a_nBr>
0

>  <a_nC>
52

>  <a_nCl>
0

>  <a_nF>
0

>  <a_nH>
74

>  <a_nI>
0

>  <a_nN>
16

>  <a_nO>
15

>  <a_nP>
0

>  <a_nS>
2

>  <balabanJ>
1.7671344

>  <BCUT_PEOE_0>
-2.6618786

>  <BCUT_PEOE_1>
-0.57238561

>  <BCUT_PEOE_2>
0.49598378

>  <BCUT_PEOE_3>
2.7430372

>  <BCUT_SLOGP_0>
-2.8803575

>  <BCUT_SLOGP_1>
-0.53807992

>  <BCUT_SLOGP_2>
0.4315325

>  <BCUT_SLOGP_3>
2.6948423

>  <BCUT_SMR_0>
-2.4101129

>  <BCUT_SMR_1>
-0.35601974

>  <BCUT_SMR_2>
0.66047668

>  <BCUT_SMR_3>
2.9991436

>  <bpol>
101.86932

>  <b_1rotN>
26

>  <b_1rotR>
0.29545453

>  <b_ar>
12

>  <b_count>
162

>  <b_double>
14

>  <b_heavy>
88

>  <b_max1len>
8

>  <b_rotN>
31

>  <b_rotR>
0.35227272

>  <b_single>
136

>  <b_triple>
0

>  <chi0>
62.588272

>  <chi0v>
47.989021

>  <chi0v_C>
31.042877

>  <chi0_C>
33.525639

>  <chi1>
40.469784

>  <chi1v>
29.511202

>  <chi1v_C>
15.135865

>  <chi1_C>
17.648129

>  <chiral>
8

>  <chiral_u>
8

>  <density>
0.80912185

>  <diameter>
26

>  <FCharge>
0

>  <GCUT_PEOE_0>
-0.84153831

>  <GCUT_PEOE_1>
-0.44470951

>  <GCUT_PEOE_2>
0.075620577

>  <GCUT_PEOE_3>
3.2664571

>  <GCUT_SLOGP_0>
-1.3708805

>  <GCUT_SLOGP_1>
-0.4390341

>  <GCUT_SLOGP_2>
0.067913339

>  <GCUT_SLOGP_3>
3.1709545

>  <GCUT_SMR_0>
-0.52849776

>  <GCUT_SMR_1>
-0.23827241

>  <GCUT_SMR_2>
0.19386961

>  <GCUT_SMR_3>
3.5152104

>  <Kier1>
77.448349

>  <Kier2>
42.273067

>  <Kier3>
29.658476

>  <KierA1>
59.394989

>  <KierA2>
32.311291

>  <KierA3>
22.617357

>  <KierFlex>
22.577988

>  <lip_acc>
31

>  <lip_don>
21

>  <lip_druglike>
0

>  <lip_violation>
3

>  <logP(o/w)>
-6.5929999

>  <logS>
-8.26583

>  <mr>
31.144018

>  <mutagenic>
0

>  <nmol>
1

>  <opr_brigid>
37

>  <opr_leadlike>
0

>  <opr_nring>
3

>  <opr_nrot>
41

>  <opr_violation>
5

>  <PC+>
0

>  <PC->
0

>  <PEOE_PC+>
10.623901

>  <PEOE_PC->
-10.623901

>  <PEOE_RPC+>
0.023284918

>  <PEOE_RPC->
0.034811407

>  <PEOE_VSA+0>
180.08182

>  <PEOE_VSA+1>
176.56378

>  <PEOE_VSA+2>
59.643738

>  <PEOE_VSA+3>
137.90421

>  <PEOE_VSA+4>
191.6176

>  <PEOE_VSA+5>
0

>  <PEOE_VSA+6>
0

>  <PEOE_VSA-0>
94.327095

>  <PEOE_VSA-1>
129.25769

>  <PEOE_VSA-2>
0

>  <PEOE_VSA-3>
0

>  <PEOE_VSA-4>
0

>  <PEOE_VSA-5>
189.93689

>  <PEOE_VSA-6>
42.392048

>  <PEOE_VSA_FHYD>
0.64721829

>  <PEOE_VSA_FNEG>
0.37938279

>  <PEOE_VSA_FPNEG>
0.19332956

>  <PEOE_VSA_FPOL>
0.35278171

>  <PEOE_VSA_FPOS>
0.62061721

>  <PEOE_VSA_FPPOS>
0.15945214

>  <PEOE_VSA_HYD>
777.77832

>  <PEOE_VSA_NEG>
455.91373

>  <PEOE_VSA_PNEG>
232.32893

>  <PEOE_VSA_POL>
423.94653

>  <PEOE_VSA_POS>
745.81116

>  <PEOE_VSA_PPOS>
191.6176

>  <petitjean>
0.46153846

>  <petitjeanSC>
0.85714287

>  <Q_PC+>
0

>  <Q_PC->
0

>  <Q_RPC+>
0

>  <Q_RPC->
0

>  <Q_VSA_FHYD>
1

>  <Q_VSA_FNEG>
0

>  <Q_VSA_FPNEG>
0

>  <Q_VSA_FPOL>
0

>  <Q_VSA_FPOS>
1

>  <Q_VSA_FPPOS>
0

>  <Q_VSA_HYD>
1201.7249

>  <Q_VSA_NEG>
0

>  <Q_VSA_PNEG>
0

>  <Q_VSA_POL>
0

>  <Q_VSA_POS>
1201.7249

>  <Q_VSA_PPOS>
0

>  <radius>
14

>  <reactive>
1

>  <rings>
4

>  <RPC+>
0

>  <RPC->
0

>  <rsynth>
1

>  <SlogP>
-6.9805598

>  <SlogP_VSA0>
369.97867

>  <SlogP_VSA1>
76.747284

>  <SlogP_VSA2>
365.92679

>  <SlogP_VSA3>
145.1046

>  <SlogP_VSA4>
6.37115

>  <SlogP_VSA5>
37.736813

>  <SlogP_VSA6>
0

>  <SlogP_VSA7>
158.78867

>  <SlogP_VSA8>
150.94725

>  <SlogP_VSA9>
65.606926

>  <SMR>
30.75478

>  <SMR_VSA0>
334.07101

>  <SMR_VSA1>
28.509541

>  <SMR_VSA2>
180.10751

>  <SMR_VSA3>
43.470329

>  <SMR_VSA4>
164.48593

>  <SMR_VSA5>
347.47272

>  <SMR_VSA6>
218.72757

>  <SMR_VSA7>
60.363499

>  <TPSA>
512.84998

>  <VAdjEq>
0.16526531

>  <VAdjMa>
7.4594316

>  <VDistEq>
4.4576445

>  <VDistMa>
12.604625

>  <vdw_area>
1201.7249

>  <vdw_vol>
1516.9446

>  <vsa_acc>
189.93689

>  <vsa_acid>
0

>  <vsa_base>
0

>  <vsa_don>
110.05323

>  <vsa_hyd>
567.67291

>  <vsa_other>
181.29343

>  <vsa_pol>
349.04202

>  <Weight>
1227.3929

>  <weinerPath>
39731

>  <weinerPol>
127

>  <zagreb>
410

$$$$