S1(=O)(=O)[C@H]2N([C@@H](C(O)=O)[C@@]1(Cn1nncc1)C)C(=O)C2
  MOE2013           2D

 20 22  0  0  1  0  0  0  0  0999 V2000
    0.0000    0.0000    0.0000 S   0  0  0  0  0  0  0  0  0  0  0  0
   -0.6550   -1.3490    0.0000 O   0  0  0  0  0  0  0  0  0  0  0  0
   -1.4990   -0.0550    0.0000 O   0  0  0  0  0  0  0  0  0  0  0  0
    1.4190   -0.4860    0.0000 C   0  0  1  0  0  0  0  0  0  0  0  0
    2.3200    0.7140    0.0000 N   0  0  0  0  0  0  0  0  0  0  0  0
    1.4570    1.9410    0.0000 C   0  0  1  0  0  0  0  0  0  0  0  0
    1.9430    3.3600    0.0000 C   0  0  0  0  0  0  0  0  0  0  0  0
    3.4140    3.6490    0.0000 O   0  0  0  0  0  0  0  0  0  0  0  0
    0.9560    4.4910    0.0000 O   0  0  0  0  0  0  0  0  0  0  0  0
    0.0230    1.5000    0.0000 C   0  0  2  0  0  0  0  0  0  0  0  0
   -0.5290    2.8940    0.0000 C   0  0  0  0  0  0  0  0  0  0  0  0
   -2.0130    3.1130    0.0000 N   0  0  0  0  0  0  0  0  0  0  0  0
   -3.0620    2.0410    0.0000 N   0  0  0  0  0  0  0  0  0  0  0  0
   -4.4060    2.7080    0.0000 N   0  0  0  0  0  0  0  0  0  0  0  0
   -4.1870    4.1920    0.0000 C   0  0  0  0  0  0  0  0  0  0  0  0
   -2.7080    4.4420    0.0000 C   0  0  0  0  0  0  0  0  0  0  0  0
   -1.4700    1.6410    0.0000 C   0  0  0  0  0  0  0  0  0  0  0  0
    3.5190   -0.1860    0.0000 C   0  0  0  0  0  0  0  0  0  0  0  0
    5.0040    0.0250    0.0000 O   0  0  0  0  0  0  0  0  0  0  0  0
    2.6190   -1.3860    0.0000 C   0  0  0  0  0  0  0  0  0  0  0  0
  1  2  2  0  0  0  0
  1  3  2  0  0  0  0
  1  4  1  0  0  0  0
  1 10  1  0  0  0  0
  4  5  1  0  0  0  0
  4 20  1  1  0  0  0
  5  6  1  0  0  0  0
  5 18  1  0  0  0  0
  6  7  1  6  0  0  0
  6 10  1  0  0  0  0
  7  8  1  0  0  0  0
  7  9  2  0  0  0  0
 10 11  1  1  0  0  0
 10 17  1  6  0  0  0
 11 12  1  0  0  0  0
 12 13  1  0  0  0  0
 12 16  1  0  0  0  0
 13 14  2  0  0  0  0
 14 15  1  0  0  0  0
 15 16  2  0  0  0  0
 18 19  2  0  0  0  0
 18 20  1  0  0  0  0
M  END
>  <Index>
1035

>  <ID>
HT1985

>  <class>
0

>  <apol>
36.911514

>  <ast_fraglike>
0

>  <ast_fraglike_ext>
0

>  <ast_violation>
2

>  <ast_violation_ext>
3

>  <a_acc>
7

>  <a_acid>
0

>  <a_aro>
5

>  <a_base>
0

>  <a_count>
32

>  <a_don>
2

>  <a_donacc>
9

>  <a_heavy>
20

>  <a_hyd>
8

>  <a_IC>
64.151527

>  <a_ICM>
2.0047352

>  <a_nB>
0

>  <a_nBr>
0

>  <a_nC>
10

>  <a_nCl>
0

>  <a_nF>
0

>  <a_nH>
12

>  <a_nI>
0

>  <a_nN>
4

>  <a_nO>
5

>  <a_nP>
0

>  <a_nS>
1

>  <balabanJ>
1.916449

>  <BCUT_PEOE_0>
-2.6233625

>  <BCUT_PEOE_1>
-0.51134545

>  <BCUT_PEOE_2>
0.65507966

>  <BCUT_PEOE_3>
2.9747076

>  <BCUT_SLOGP_0>
-2.7803507

>  <BCUT_SLOGP_1>
-0.50134772

>  <BCUT_SLOGP_2>
0.53773338

>  <BCUT_SLOGP_3>
2.7844732

>  <BCUT_SMR_0>
-2.3782146

>  <BCUT_SMR_1>
-0.35993627

>  <BCUT_SMR_2>
0.83796918

>  <BCUT_SMR_3>
3.2058959

>  <bpol>
25.470484

>  <b_1rotN>
3

>  <b_1rotR>
0.13636364

>  <b_ar>
5

>  <b_count>
34

>  <b_double>
2

>  <b_heavy>
22

>  <b_max1len>
4

>  <b_rotN>
3

>  <b_rotR>
0.13636364

>  <b_single>
27

>  <b_triple>
0

>  <chi0>
14.706742

>  <chi0v>
11.317421

>  <chi0v_C>
6.2236147

>  <chi0_C>
6.6378284

>  <chi1>
9.287529

>  <chi1v>
7.4500031

>  <chi1v_C>
2.5260386

>  <chi1_C>
2.7920585

>  <chiral>
3

>  <chiral_u>
0

>  <density>
0.93972784

>  <diameter>
8

>  <FCharge>
0

>  <GCUT_PEOE_0>
-0.89176428

>  <GCUT_PEOE_1>
-0.45822075

>  <GCUT_PEOE_2>
0.11072224

>  <GCUT_PEOE_3>
2.7923615

>  <GCUT_SLOGP_0>
-1.0120579

>  <GCUT_SLOGP_1>
-0.46547782

>  <GCUT_SLOGP_2>
0.031206559

>  <GCUT_SLOGP_3>
2.6688035

>  <GCUT_SMR_0>
-0.54157805

>  <GCUT_SMR_1>
-0.20166625

>  <GCUT_SMR_2>
0.25706208

>  <GCUT_SMR_3>
3.0145166

>  <Kier1>
14.917356

>  <Kier2>
4.75

>  <Kier3>
1.9608401

>  <KierA1>
12.991677

>  <KierA2>
4.1049466

>  <KierA3>
1.68499

>  <KierFlex>
2.666507

>  <lip_acc>
9

>  <lip_don>
1

>  <lip_druglike>
1

>  <lip_violation>
0

>  <logP(o/w)>
-2.381

>  <logS>
0.20367999

>  <mr>
6.6707697

>  <mutagenic>
0

>  <nmol>
1

>  <opr_brigid>
13

>  <opr_leadlike>
1

>  <opr_nring>
3

>  <opr_nrot>
3

>  <opr_violation>
1

>  <PC+>
0

>  <PC->
0

>  <PEOE_PC+>
2.6275978

>  <PEOE_PC->
-2.6275978

>  <PEOE_RPC+>
0.11158623

>  <PEOE_RPC->
0.18138018

>  <PEOE_VSA+0>
56.820522

>  <PEOE_VSA+1>
38.072845

>  <PEOE_VSA+2>
21.893639

>  <PEOE_VSA+3>
4.2653861

>  <PEOE_VSA+4>
26.419664

>  <PEOE_VSA+5>
19.830521

>  <PEOE_VSA+6>
0

>  <PEOE_VSA-0>
0

>  <PEOE_VSA-1>
13.159503

>  <PEOE_VSA-2>
15.933839

>  <PEOE_VSA-3>
0

>  <PEOE_VSA-4>
0

>  <PEOE_VSA-5>
27.133842

>  <PEOE_VSA-6>
39.784065

>  <PEOE_VSA_FHYD>
0.57021594

>  <PEOE_VSA_FNEG>
0.36462668

>  <PEOE_VSA_FPNEG>
0.25413746

>  <PEOE_VSA_FPOL>
0.42978409

>  <PEOE_VSA_FPOS>
0.63537329

>  <PEOE_VSA_FPPOS>
0.17564663

>  <PEOE_VSA_HYD>
150.14574

>  <PEOE_VSA_NEG>
96.011246

>  <PEOE_VSA_PNEG>
66.917908

>  <PEOE_VSA_POL>
113.16809

>  <PEOE_VSA_POS>
167.30258

>  <PEOE_VSA_PPOS>
46.250187

>  <petitjean>
0.5

>  <petitjeanSC>
1

>  <Q_PC+>
0

>  <Q_PC->
0

>  <Q_RPC+>
0

>  <Q_RPC->
0

>  <Q_VSA_FHYD>
1

>  <Q_VSA_FNEG>
0

>  <Q_VSA_FPNEG>
0

>  <Q_VSA_FPOL>
0

>  <Q_VSA_FPOS>
1

>  <Q_VSA_FPPOS>
0

>  <Q_VSA_HYD>
263.31381

>  <Q_VSA_NEG>
0

>  <Q_VSA_PNEG>
0

>  <Q_VSA_POL>
0

>  <Q_VSA_POS>
263.31381

>  <Q_VSA_PPOS>
0

>  <radius>
4

>  <reactive>
0

>  <rings>
3

>  <RPC+>
0

>  <RPC->
0

>  <rsynth>
1

>  <SlogP>
-1.2568001

>  <SlogP_VSA0>
0

>  <SlogP_VSA1>
99.280312

>  <SlogP_VSA2>
60.932796

>  <SlogP_VSA3>
25.385227

>  <SlogP_VSA4>
0

>  <SlogP_VSA5>
0

>  <SlogP_VSA6>
0

>  <SlogP_VSA7>
34.428715

>  <SlogP_VSA8>
18.868406

>  <SlogP_VSA9>
51.765594

>  <SMR>
6.4226599

>  <SMR_VSA0>
95.896118

>  <SMR_VSA1>
38.104378

>  <SMR_VSA2>
25.385227

>  <SMR_VSA3>
6.3290963

>  <SMR_VSA4>
0

>  <SMR_VSA5>
71.736694

>  <SMR_VSA6>
13.004248

>  <SMR_VSA7>
40.20528

>  <TPSA>
122.46

>  <VAdjEq>
0.49991596

>  <VAdjMa>
5.4594316

>  <VDistEq>
2.766417

>  <VDistMa>
8.3985376

>  <vdw_area>
263.31381

>  <vdw_vol>
319.5553

>  <vsa_acc>
68.163986

>  <vsa_acid>
0

>  <vsa_base>
0

>  <vsa_don>
0

>  <vsa_hyd>
121.49062

>  <vsa_other>
34.17083

>  <vsa_pol>
95.297829

>  <Weight>
300.29498

>  <weinerPath>
698

>  <weinerPol>
36

>  <zagreb>
116

$$$$