O1CCCC1C(=O)N1CCN(CC1)c1nc(N)c2cc(OC)c(OC)cc2n1
  MOE2013           2D

 28 31  0  0  1  0  0  0  0  0999 V2000
    0.0000    0.0000    0.0000 O   0  0  0  0  0  0  0  0  0  0  0  0
    0.3490   -1.4590    0.0000 C   0  0  0  0  0  0  0  0  0  0  0  0
   -0.9310   -2.2420    0.0000 C   0  0  0  0  0  0  0  0  0  0  0  0
   -2.0700   -1.2660    0.0000 C   0  0  0  0  0  0  0  0  0  0  0  0
   -1.4950    0.1190    0.0000 C   0  0  3  0  0  0  0  0  0  0  0  0
   -2.2780    1.3990    0.0000 C   0  0  0  0  0  0  0  0  0  0  0  0
   -1.5610    2.7160    0.0000 O   0  0  0  0  0  0  0  0  0  0  0  0
   -3.7770    1.3610    0.0000 N   0  0  0  0  0  0  0  0  0  0  0  0
   -4.4940    0.0430    0.0000 C   0  0  0  0  0  0  0  0  0  0  0  0
   -5.9940    0.0050    0.0000 C   0  0  0  0  0  0  0  0  0  0  0  0
   -6.7760    1.2850    0.0000 N   0  0  0  0  0  0  0  0  0  0  0  0
   -6.0600    2.6020    0.0000 C   0  0  0  0  0  0  0  0  0  0  0  0
   -4.5600    2.6400    0.0000 C   0  0  0  0  0  0  0  0  0  0  0  0
   -8.2760    1.2470    0.0000 C   0  0  0  0  0  0  0  0  0  0  0  0
   -8.9930   -0.0710    0.0000 N   0  0  0  0  0  0  0  0  0  0  0  0
  -10.4920   -0.1090    0.0000 C   0  0  0  0  0  0  0  0  0  0  0  0
  -11.2090   -1.4270    0.0000 N   0  0  0  0  0  0  0  0  0  0  0  0
  -11.2750    1.1710    0.0000 C   0  0  0  0  0  0  0  0  0  0  0  0
  -12.7750    1.1330    0.0000 C   0  0  0  0  0  0  0  0  0  0  0  0
  -13.5570    2.4120    0.0000 C   0  0  0  0  0  0  0  0  0  0  0  0
  -15.0570    2.3740    0.0000 O   0  0  0  0  0  0  0  0  0  0  0  0
  -15.7740    1.0570    0.0000 C   0  0  0  0  0  0  0  0  0  0  0  0
  -12.8400    3.7300    0.0000 C   0  0  0  0  0  0  0  0  0  0  0  0
  -13.6230    5.0100    0.0000 O   0  0  0  0  0  0  0  0  0  0  0  0
  -12.9060    6.3270    0.0000 C   0  0  0  0  0  0  0  0  0  0  0  0
  -11.3410    3.7680    0.0000 C   0  0  0  0  0  0  0  0  0  0  0  0
  -10.5580    2.4880    0.0000 C   0  0  0  0  0  0  0  0  0  0  0  0
   -9.0590    2.5260    0.0000 N   0  0  0  0  0  0  0  0  0  0  0  0
  1  2  1  0  0  0  0
  1  5  1  0  0  0  0
  2  3  1  0  0  0  0
  3  4  1  0  0  0  0
  4  5  1  0  0  0  0
  5  6  1  0  0  0  0
  6  7  2  0  0  0  0
  6  8  1  0  0  0  0
  8  9  1  0  0  0  0
  8 13  1  0  0  0  0
  9 10  1  0  0  0  0
 10 11  1  0  0  0  0
 11 12  1  0  0  0  0
 11 14  1  0  0  0  0
 12 13  1  0  0  0  0
 14 15  1  0  0  0  0
 14 28  2  0  0  0  0
 15 16  2  0  0  0  0
 16 17  1  0  0  0  0
 16 18  1  0  0  0  0
 18 19  1  0  0  0  0
 18 27  2  0  0  0  0
 19 20  2  0  0  0  0
 20 21  1  0  0  0  0
 20 23  1  0  0  0  0
 21 22  1  0  0  0  0
 23 24  1  0  0  0  0
 23 26  2  0  0  0  0
 24 25  1  0  0  0  0
 26 27  1  0  0  0  0
 27 28  1  0  0  0  0
M  END
>  <Index>
1049

>  <ID>
HT2007

>  <class>
0

>  <apol>
58.817825

>  <ast_fraglike>
0

>  <ast_fraglike_ext>
0

>  <ast_violation>
2

>  <ast_violation_ext>
3

>  <a_acc>
6

>  <a_acid>
0

>  <a_aro>
10

>  <a_base>
0

>  <a_count>
53

>  <a_don>
1

>  <a_donacc>
7

>  <a_heavy>
28

>  <a_hyd>
16

>  <a_IC>
87.163116

>  <a_ICM>
1.644587

>  <a_nB>
0

>  <a_nBr>
0

>  <a_nC>
19

>  <a_nCl>
0

>  <a_nF>
0

>  <a_nH>
25

>  <a_nI>
0

>  <a_nN>
5

>  <a_nO>
4

>  <a_nP>
0

>  <a_nS>
0

>  <balabanJ>
1.3131334

>  <BCUT_PEOE_0>
-2.7152939

>  <BCUT_PEOE_1>
-0.55299807

>  <BCUT_PEOE_2>
0.47548217

>  <BCUT_PEOE_3>
2.7123544

>  <BCUT_SLOGP_0>
-2.8679442

>  <BCUT_SLOGP_1>
-0.51246363

>  <BCUT_SLOGP_2>
0.54602152

>  <BCUT_SLOGP_3>
2.6785104

>  <BCUT_SMR_0>
-2.4327705

>  <BCUT_SMR_1>
-0.30157426

>  <BCUT_SMR_2>
0.71279305

>  <BCUT_SMR_3>
2.9637022

>  <bpol>
39.976173

>  <b_1rotN>
5

>  <b_1rotR>
0.16129032

>  <b_ar>
11

>  <b_count>
56

>  <b_double>
1

>  <b_heavy>
31

>  <b_max1len>
2

>  <b_rotN>
5

>  <b_rotR>
0.16129032

>  <b_single>
44

>  <b_triple>
0

>  <chi0>
19.672998

>  <chi0v>
16.180996

>  <chi0v_C>
12.181798

>  <chi0_C>
12.982763

>  <chi1>
13.600886

>  <chi1v>
9.4500971

>  <chi1v_C>
4.601624

>  <chi1_C>
5.3745747

>  <chiral>
1

>  <chiral_u>
1

>  <density>
0.76372206

>  <diameter>
15

>  <FCharge>
0

>  <GCUT_PEOE_0>
-0.84273463

>  <GCUT_PEOE_1>
-0.4489595

>  <GCUT_PEOE_2>
-0.014787029

>  <GCUT_PEOE_3>
2.7419031

>  <GCUT_SLOGP_0>
-1.3348324

>  <GCUT_SLOGP_1>
-0.39821011

>  <GCUT_SLOGP_2>
0.059574649

>  <GCUT_SLOGP_3>
2.7514739

>  <GCUT_SMR_0>
-0.5254491

>  <GCUT_SMR_1>
-0.18620402

>  <GCUT_SMR_2>
0.13289483

>  <GCUT_SMR_3>
3.0026193

>  <Kier1>
21.240376

>  <Kier2>
9.4276857

>  <Kier3>
4.54179

>  <KierA1>
16.531723

>  <KierA2>
7.2650766

>  <KierA3>
3.4752369

>  <KierFlex>
4.2894373

>  <lip_acc>
9

>  <lip_don>
2

>  <lip_druglike>
1

>  <lip_violation>
0

>  <logP(o/w)>
0.25573999

>  <logS>
-3.7069099

>  <mr>
10.272151

>  <mutagenic>
1

>  <nmol>
1

>  <opr_brigid>
22

>  <opr_leadlike>
1

>  <opr_nring>
4

>  <opr_nrot>
7

>  <opr_violation>
1

>  <PC+>
0

>  <PC->
0

>  <PEOE_PC+>
2.6756897

>  <PEOE_PC->
-2.6756897

>  <PEOE_RPC+>
0.094353415

>  <PEOE_RPC->
0.13721259

>  <PEOE_VSA+0>
154.04753

>  <PEOE_VSA+1>
70.680344

>  <PEOE_VSA+2>
50.250557

>  <PEOE_VSA+3>
0

>  <PEOE_VSA+4>
15.681574

>  <PEOE_VSA+5>
12.949531

>  <PEOE_VSA+6>
0

>  <PEOE_VSA-0>
41.912434

>  <PEOE_VSA-1>
0

>  <PEOE_VSA-2>
0

>  <PEOE_VSA-3>
0

>  <PEOE_VSA-4>
11.365152

>  <PEOE_VSA-5>
20.21804

>  <PEOE_VSA-6>
7.5112681

>  <PEOE_VSA_FHYD>
0.82391399

>  <PEOE_VSA_FNEG>
0.21061735

>  <PEOE_VSA_FPNEG>
0.10164532

>  <PEOE_VSA_FPOL>
0.17608599

>  <PEOE_VSA_FPOS>
0.78938264

>  <PEOE_VSA_FPPOS>
0.074440673

>  <PEOE_VSA_HYD>
316.89087

>  <PEOE_VSA_NEG>
81.006897

>  <PEOE_VSA_PNEG>
39.09446

>  <PEOE_VSA_POL>
67.725563

>  <PEOE_VSA_POS>
303.60953

>  <PEOE_VSA_PPOS>
28.631105

>  <petitjean>
0.46666667

>  <petitjeanSC>
0.875

>  <Q_PC+>
0

>  <Q_PC->
0

>  <Q_RPC+>
0

>  <Q_RPC->
0

>  <Q_VSA_FHYD>
1

>  <Q_VSA_FNEG>
0

>  <Q_VSA_FPNEG>
0

>  <Q_VSA_FPOL>
0

>  <Q_VSA_FPOS>
1

>  <Q_VSA_FPPOS>
0

>  <Q_VSA_HYD>
384.61642

>  <Q_VSA_NEG>
0

>  <Q_VSA_PNEG>
0

>  <Q_VSA_POL>
0

>  <Q_VSA_POS>
384.61642

>  <Q_VSA_PPOS>
0

>  <radius>
8

>  <reactive>
0

>  <rings>
4

>  <RPC+>
0

>  <RPC->
0

>  <rsynth>
1

>  <SlogP>
1.0568

>  <SlogP_VSA0>
58.021278

>  <SlogP_VSA1>
41.954155

>  <SlogP_VSA2>
41.330753

>  <SlogP_VSA3>
94.68457

>  <SlogP_VSA4>
0

>  <SlogP_VSA5>
70.767738

>  <SlogP_VSA6>
0

>  <SlogP_VSA7>
40.003471

>  <SlogP_VSA8>
37.736813

>  <SlogP_VSA9>
14.713869

>  <SMR>
10.48214

>  <SMR_VSA0>
34.862103

>  <SMR_VSA1>
58.695148

>  <SMR_VSA2>
3.1243138

>  <SMR_VSA3>
16.955505

>  <SMR_VSA4>
8.9441147

>  <SMR_VSA5>
105.92036

>  <SMR_VSA6>
99.943352

>  <SMR_VSA7>
70.767738

>  <TPSA>
103.04

>  <VAdjEq>
0.39893496

>  <VAdjMa>
5.9541965

>  <VDistEq>
3.6639705

>  <VDistMa>
9.2930641

>  <vdw_area>
384.61642

>  <vdw_vol>
507.30496

>  <vsa_acc>
32.44334

>  <vsa_acid>
0

>  <vsa_base>
0

>  <vsa_don>
17.742489

>  <vsa_hyd>
272.09097

>  <vsa_other>
39.821667

>  <vsa_pol>
50.185829

>  <Weight>
387.44

>  <weinerPath>
2195

>  <weinerPol>
47

>  <zagreb>
150

$$$$