S1[C@H]2N([C@@H](C(OC(OC(OCC)=O)C)=O)C1(C)C)C(=O)[C@H]2NC(=O)[C@H](N)c1ccccc1
  MOE2013           2D

 32 34  0  0  1  0  0  0  0  0999 V2000
    0.0000    0.0000    0.0000 S   0  0  0  0  0  0  0  0  0  0  0  0
   -0.4470    1.4320    0.0000 C   0  0  1  0  0  0  0  0  0  0  0  0
    0.7760    2.3000    0.0000 N   0  0  0  0  0  0  0  0  0  0  0  0
    1.9800    1.4040    0.0000 C   0  0  1  0  0  0  0  0  0  0  0  0
    3.4110    1.8520    0.0000 C   0  0  0  0  0  0  0  0  0  0  0  0
    4.5150    0.8350    0.0000 O   0  0  0  0  0  0  0  0  0  0  0  0
    5.9460    1.2830    0.0000 C   0  0  3  0  0  0  0  0  0  0  0  0
    7.0500    0.2670    0.0000 O   0  0  0  0  0  0  0  0  0  0  0  0
    8.4810    0.7140    0.0000 C   0  0  0  0  0  0  0  0  0  0  0  0
    9.5850   -0.3020    0.0000 O   0  0  0  0  0  0  0  0  0  0  0  0
   11.0160    0.1450    0.0000 C   0  0  0  0  0  0  0  0  0  0  0  0
   12.1200   -0.8710    0.0000 C   0  0  0  0  0  0  0  0  0  0  0  0
    8.8100    2.1780    0.0000 O   0  0  0  0  0  0  0  0  0  0  0  0
    6.2750    2.7460    0.0000 C   0  0  0  0  0  0  0  0  0  0  0  0
    3.7400    3.3150    0.0000 O   0  0  0  0  0  0  0  0  0  0  0  0
    1.5000   -0.0170    0.0000 C   0  0  0  0  0  0  0  0  0  0  0  0
    1.6010   -1.5140    0.0000 C   0  0  0  0  0  0  0  0  0  0  0  0
    2.8790   -0.6070    0.0000 C   0  0  0  0  0  0  0  0  0  0  0  0
   -0.0920    3.5230    0.0000 C   0  0  0  0  0  0  0  0  0  0  0  0
    0.1600    5.0020    0.0000 O   0  0  0  0  0  0  0  0  0  0  0  0
   -1.3150    2.6550    0.0000 C   0  0  1  0  0  0  0  0  0  0  0  0
   -2.7940    2.9070    0.0000 N   0  0  0  0  0  0  0  0  0  0  0  0
   -3.7510    1.7520    0.0000 C   0  0  0  0  0  0  0  0  0  0  0  0
   -3.2290    0.3450    0.0000 O   0  0  0  0  0  0  0  0  0  0  0  0
   -5.2300    2.0030    0.0000 C   0  0  2  0  0  0  0  0  0  0  0  0
   -5.7520    3.4090    0.0000 N   0  0  0  0  0  0  0  0  0  0  0  0
   -6.1870    0.8480    0.0000 C   0  0  0  0  0  0  0  0  0  0  0  0
   -5.6650   -0.5580    0.0000 C   0  0  0  0  0  0  0  0  0  0  0  0
   -6.6220   -1.7130    0.0000 C   0  0  0  0  0  0  0  0  0  0  0  0
   -8.1010   -1.4620    0.0000 C   0  0  0  0  0  0  0  0  0  0  0  0
   -8.6230   -0.0560    0.0000 C   0  0  0  0  0  0  0  0  0  0  0  0
   -7.6660    1.0990    0.0000 C   0  0  0  0  0  0  0  0  0  0  0  0
  1 16  1  0  0  0  0
  2  1  1  6  0  0  0
  2  3  1  0  0  0  0
  2 21  1  0  0  0  0
  3  4  1  0  0  0  0
  3 19  1  0  0  0  0
  4  5  1  1  0  0  0
  4 16  1  0  0  0  0
  5  6  1  0  0  0  0
  5 15  2  0  0  0  0
  6  7  1  0  0  0  0
  7  8  1  0  0  0  0
  7 14  1  0  0  0  0
  8  9  1  0  0  0  0
  9 10  1  0  0  0  0
  9 13  2  0  0  0  0
 10 11  1  0  0  0  0
 11 12  1  0  0  0  0
 16 17  1  0  0  0  0
 16 18  1  0  0  0  0
 19 20  2  0  0  0  0
 19 21  1  0  0  0  0
 21 22  1  6  0  0  0
 22 23  1  0  0  0  0
 23 24  2  0  0  0  0
 23 25  1  0  0  0  0
 25 26  1  1  0  0  0
 25 27  1  0  0  0  0
 27 28  1  0  0  0  0
 27 32  2  0  0  0  0
 28 29  2  0  0  0  0
 29 30  1  0  0  0  0
 30 31  2  0  0  0  0
 31 32  1  0  0  0  0
M  END
>  <Index>
106

>  <ID>
HT0221

>  <class>
0

>  <apol>
66.777412

>  <ast_fraglike>
0

>  <ast_fraglike_ext>
0

>  <ast_violation>
2

>  <ast_violation_ext>
4

>  <a_acc>
5

>  <a_acid>
0

>  <a_aro>
6

>  <a_base>
0

>  <a_count>
59

>  <a_don>
2

>  <a_donacc>
7

>  <a_heavy>
32

>  <a_hyd>
17

>  <a_IC>
102.04894

>  <a_ICM>
1.729643

>  <a_nB>
0

>  <a_nBr>
0

>  <a_nC>
21

>  <a_nCl>
0

>  <a_nF>
0

>  <a_nH>
27

>  <a_nI>
0

>  <a_nN>
3

>  <a_nO>
7

>  <a_nP>
0

>  <a_nS>
1

>  <balabanJ>
1.5710524

>  <BCUT_PEOE_0>
-2.6493125

>  <BCUT_PEOE_1>
-0.49519831

>  <BCUT_PEOE_2>
0.52872354

>  <BCUT_PEOE_3>
2.8523846

>  <BCUT_SLOGP_0>
-2.9034233

>  <BCUT_SLOGP_1>
-0.43719831

>  <BCUT_SLOGP_2>
0.56951159

>  <BCUT_SLOGP_3>
2.7560613

>  <BCUT_SMR_0>
-2.396014

>  <BCUT_SMR_1>
-0.34968799

>  <BCUT_SMR_2>
0.71120864

>  <BCUT_SMR_3>
3.1325514

>  <bpol>
43.35659

>  <b_1rotN>
7

>  <b_1rotR>
0.20588236

>  <b_ar>
6

>  <b_count>
61

>  <b_double>
4

>  <b_heavy>
34

>  <b_max1len>
4

>  <b_rotN>
11

>  <b_rotR>
0.32352942

>  <b_single>
51

>  <b_triple>
0

>  <chi0>
23.629028

>  <chi0v>
19.087656

>  <chi0v_C>
13.48061

>  <chi0_C>
14.516144

>  <chi1>
15.062587

>  <chi1v>
11.092291

>  <chi1v_C>
5.9718494

>  <chi1_C>
7.0562954

>  <chiral>
5

>  <chiral_u>
1

>  <density>
0.80896616

>  <diameter>
18

>  <FCharge>
0

>  <GCUT_PEOE_0>
-0.83793283

>  <GCUT_PEOE_1>
-0.39473417

>  <GCUT_PEOE_2>
0.054715287

>  <GCUT_PEOE_3>
2.805234

>  <GCUT_SLOGP_0>
-1.3374588

>  <GCUT_SLOGP_1>
-0.32218638

>  <GCUT_SLOGP_2>
0.091475144

>  <GCUT_SLOGP_3>
2.7542253

>  <GCUT_SMR_0>
-0.53775436

>  <GCUT_SMR_1>
-0.19886655

>  <GCUT_SMR_2>
0.18013024

>  <GCUT_SMR_3>
3.0615845

>  <Kier1>
26.602076

>  <Kier2>
11.16

>  <Kier3>
5.9917355

>  <KierA1>
22.616066

>  <KierA2>
9.4357023

>  <KierA3>
5.0463295

>  <KierFlex>
6.6687021

>  <lip_acc>
10

>  <lip_don>
3

>  <lip_druglike>
1

>  <lip_violation>
0

>  <logP(o/w)>
2.0669999

>  <logS>
-4.5419698

>  <mr>
11.790535

>  <mutagenic>
0

>  <nmol>
1

>  <opr_brigid>
14

>  <opr_leadlike>
0

>  <opr_nring>
3

>  <opr_nrot>
7

>  <opr_violation>
2

>  <PC+>
0

>  <PC->
0

>  <PEOE_PC+>
3.4341712

>  <PEOE_PC->
-3.4341712

>  <PEOE_RPC+>
0.11903329

>  <PEOE_RPC->
0.09918353

>  <PEOE_VSA+0>
51.184631

>  <PEOE_VSA+1>
66.135925

>  <PEOE_VSA+2>
31.79793

>  <PEOE_VSA+3>
19.773922

>  <PEOE_VSA+4>
12.949531

>  <PEOE_VSA+5>
27.65803

>  <PEOE_VSA+6>
20.958479

>  <PEOE_VSA-0>
77.199249

>  <PEOE_VSA-1>
61.274521

>  <PEOE_VSA-2>
19.760618

>  <PEOE_VSA-3>
0

>  <PEOE_VSA-4>
13.566921

>  <PEOE_VSA-5>
48.212032

>  <PEOE_VSA-6>
6.7880106

>  <PEOE_VSA_FHYD>
0.71540684

>  <PEOE_VSA_FNEG>
0.49600106

>  <PEOE_VSA_FPNEG>
0.14995188

>  <PEOE_VSA_FPOL>
0.28459314

>  <PEOE_VSA_FPOS>
0.50399894

>  <PEOE_VSA_FPPOS>
0.13464127

>  <PEOE_VSA_HYD>
327.1268

>  <PEOE_VSA_NEG>
226.80135

>  <PEOE_VSA_PNEG>
68.566963

>  <PEOE_VSA_POL>
130.133

>  <PEOE_VSA_POS>
230.45845

>  <PEOE_VSA_PPOS>
61.56604

>  <petitjean>
0.5

>  <petitjeanSC>
1

>  <Q_PC+>
0

>  <Q_PC->
0

>  <Q_RPC+>
0

>  <Q_RPC->
0

>  <Q_VSA_FHYD>
1

>  <Q_VSA_FNEG>
0

>  <Q_VSA_FPNEG>
0

>  <Q_VSA_FPOL>
0

>  <Q_VSA_FPOS>
1

>  <Q_VSA_FPPOS>
0

>  <Q_VSA_HYD>
457.2598

>  <Q_VSA_NEG>
0

>  <Q_VSA_PNEG>
0

>  <Q_VSA_POL>
0

>  <Q_VSA_POS>
457.2598

>  <Q_VSA_PPOS>
0

>  <radius>
9

>  <reactive>
0

>  <rings>
3

>  <RPC+>
0

>  <RPC->
0

>  <rsynth>
1

>  <SlogP>
1.3913

>  <SlogP_VSA0>
50.90794

>  <SlogP_VSA1>
31.190662

>  <SlogP_VSA2>
123.42388

>  <SlogP_VSA3>
20.926258

>  <SlogP_VSA4>
3.185575

>  <SlogP_VSA5>
0

>  <SlogP_VSA6>
0

>  <SlogP_VSA7>
88.215919

>  <SlogP_VSA8>
3.9819686

>  <SlogP_VSA9>
189.38582

>  <SMR>
11.51661

>  <SMR_VSA0>
128.44853

>  <SMR_VSA1>
3.1243138

>  <SMR_VSA2>
18.01075

>  <SMR_VSA3>
26.005112

>  <SMR_VSA4>
32.897186

>  <SMR_VSA5>
88.215919

>  <SMR_VSA6>
48.992607

>  <SMR_VSA7>
165.52361

>  <TPSA>
137.25999

>  <VAdjEq>
0.35236704

>  <VAdjMa>
6.0874629

>  <VDistEq>
3.8409326

>  <VDistMa>
9.6913204

>  <vdw_area>
457.2598

>  <vdw_vol>
575.45917

>  <vsa_acc>
54.267685

>  <vsa_acid>
0

>  <vsa_base>
0

>  <vsa_don>
5.6825762

>  <vsa_hyd>
269.47818

>  <vsa_other>
83.785805

>  <vsa_pol>
77.692749

>  <Weight>
465.52698

>  <weinerPath>
3224

>  <weinerPol>
50

>  <zagreb>
168

$$$$