O1C23C1C(O)=C(CC2(C1C(C2CC[C@H](O)[C@]2(CC1)C)CC3)C)C#N
  MOE2013           3D

 24 28  0  0  1  0  0  0  0  0999 V2000
    0.0000    0.0000    1.1990 O   0  0  0  0  0  0  0  0  0  0  0  0
   -1.0810    0.4570   -0.3540 C   0  0  3  0  0  0  0  0  0  0  0  0
    0.3280    0.6770   -0.5060 C   0  0  3  0  0  0  0  0  0  0  0  0
    1.0320    1.9560   -0.1620 C   0  0  0  0  0  0  0  0  0  0  0  0
    2.4720    2.3770    0.0000 O   0  0  0  0  0  0  0  0  0  0  0  0
   -0.2860    2.6760   -0.1800 C   0  0  0  0  0  0  0  0  0  0  0  0
   -1.7810    2.7870   -0.1310 C   0  0  0  0  0  0  0  0  0  0  0  0
   -1.8400    1.3980    0.4350 C   0  0  3  0  0  0  0  0  0  0  0  0
   -3.2760    0.9900    0.5740 C   0  0  3  0  0  0  0  0  0  0  0  0
   -3.9610    0.0220   -0.3440 C   0  0  3  0  0  0  0  0  0  0  0  0
   -5.4250   -0.0440    0.0000 C   0  0  3  0  0  0  0  0  0  0  0  0
   -6.4250   -1.1610    0.0000 C   0  0  0  0  0  0  0  0  0  0  0  0
   -7.7970   -0.5550    0.0000 C   0  0  0  0  0  0  0  0  0  0  0  0
   -7.6450    0.9370    0.0000 C   0  0  2  0  0  0  0  0  0  0  0  0
   -8.7630    1.9370    0.0000 O   0  0  0  0  0  0  0  0  0  0  0  0
   -6.1800    1.2520    0.0000 C   0  0  1  0  0  0  0  0  0  0  0  0
   -5.4340    2.5530    0.0000 C   0  0  0  0  0  0  0  0  0  0  0  0
   -3.9340    2.5570    0.0000 C   0  0  0  0  0  0  0  0  0  0  0  0
   -7.1050    2.4320    0.0000 C   0  0  0  0  0  0  0  0  0  0  0  0
   -3.0200   -1.1210   -0.1030 C   0  0  0  0  0  0  0  0  0  0  0  0
   -1.5720   -0.8970   -0.4280 C   0  0  0  0  0  0  0  0  0  0  0  0
   -2.4000    0.0070    0.0000 C   0  0  0  0  0  0  0  0  0  0  0  0
    0.1380    4.1150    0.0000 C   0  0  0  0  0  0  0  0  0  0  0  0
    0.5630    5.5540    0.0000 N   0  0  0  0  0  0  0  0  0  0  0  0
  1  2  1  0  0  0  0
  1  3  1  0  0  0  0
  2  3  1  0  0  0  0
  2  8  1  0  0  0  0
  2 21  1  0  0  0  0
  3  4  1  0  0  0  0
  4  5  1  0  0  0  0
  4  6  2  0  0  0  0
  6  7  1  0  0  0  0
  6 23  1  0  0  0  0
  7  8  1  0  0  0  0
  8  9  1  0  0  0  0
  8 22  1  0  0  0  0
  9 10  1  0  0  0  0
  9 18  1  0  0  0  0
 10 11  1  0  0  0  0
 10 20  1  0  0  0  0
 11 12  1  0  0  0  0
 11 16  1  0  0  0  0
 12 13  1  0  0  0  0
 13 14  1  0  0  0  0
 14 15  1  6  0  0  0
 14 16  1  0  0  0  0
 16 17  1  0  0  0  0
 16 19  1  6  0  0  0
 17 18  1  0  0  0  0
 20 21  1  0  0  0  0
 23 24  3  0  0  0  0
M  END
>  <Index>
1109

>  <ID>
HT2122

>  <class>
0

>  <apol>
56.709412

>  <ast_fraglike>
0

>  <ast_fraglike_ext>
0

>  <ast_violation>
3

>  <ast_violation_ext>
3

>  <a_acc>
4

>  <a_acid>
0

>  <a_aro>
0

>  <a_base>
0

>  <a_count>
51

>  <a_don>
2

>  <a_donacc>
6

>  <a_heavy>
24

>  <a_hyd>
19

>  <a_IC>
69.718277

>  <a_ICM>
1.3670251

>  <a_nB>
0

>  <a_nBr>
0

>  <a_nC>
20

>  <a_nCl>
0

>  <a_nF>
0

>  <a_nH>
27

>  <a_nI>
0

>  <a_nN>
1

>  <a_nO>
3

>  <a_nP>
0

>  <a_nS>
0

>  <balabanJ>
1.5010146

>  <BCUT_PEOE_0>
-2.9442108

>  <BCUT_PEOE_1>
-0.53273278

>  <BCUT_PEOE_2>
0.5030089

>  <BCUT_PEOE_3>
3.0149992

>  <BCUT_SLOGP_0>
-2.8914206

>  <BCUT_SLOGP_1>
-0.49329945

>  <BCUT_SLOGP_2>
0.51458544

>  <BCUT_SLOGP_3>
3.0520115

>  <BCUT_SMR_0>
-2.6994681

>  <BCUT_SMR_1>
-0.41639313

>  <BCUT_SMR_2>
0.62953347

>  <BCUT_SMR_3>
3.2544515

>  <bpol>
32.09259

>  <b_1rotN>
0

>  <b_1rotR>
0

>  <b_ar>
0

>  <b_count>
55

>  <b_double>
1

>  <b_heavy>
28

>  <b_max1len>
3

>  <b_rotN>
1

>  <b_rotR>
0.035714287

>  <b_single>
53

>  <b_triple>
1

>  <chi0>
16.905413

>  <chi0v>
14.586388

>  <chi0v_C>
12.836499

>  <chi0_C>
13.198306

>  <chi1>
11.371793

>  <chi1v>
9.5524883

>  <chi1v_C>
8.4072495

>  <chi1_C>
8.7481842

>  <chiral>
8

>  <chiral_u>
6

>  <density>
0.7227664

>  <diameter>
10

>  <FCharge>
0

>  <GCUT_PEOE_0>
-0.80351698

>  <GCUT_PEOE_1>
-0.40544724

>  <GCUT_PEOE_2>
0.0065852944

>  <GCUT_PEOE_3>
3.3196294

>  <GCUT_SLOGP_0>
-0.88371319

>  <GCUT_SLOGP_1>
-0.31941339

>  <GCUT_SLOGP_2>
0.019184507

>  <GCUT_SLOGP_3>
3.3814363

>  <GCUT_SMR_0>
-0.53946394

>  <GCUT_SMR_1>
-0.233473

>  <GCUT_SMR_2>
0.13859631

>  <GCUT_SMR_3>
3.5368369

>  <Kier1>
16.193878

>  <Kier2>
4.8315973

>  <Kier3>
1.6706114

>  <KierA1>
14.700901

>  <KierA2>
4.3668594

>  <KierA3>
1.5051395

>  <KierFlex>
2.6748655

>  <lip_acc>
4

>  <lip_don>
2

>  <lip_druglike>
1

>  <lip_violation>
0

>  <logP(o/w)>
3.0420001

>  <logS>
-3.3463299

>  <mr>
8.9639006

>  <mutagenic>
1

>  <nmol>
1

>  <opr_brigid>
22

>  <opr_leadlike>
1

>  <opr_nring>
5

>  <opr_nrot>
1

>  <opr_violation>
1

>  <PC+>
0

>  <PC->
0

>  <PEOE_PC+>
1.7506304

>  <PEOE_PC->
-1.7506304

>  <PEOE_RPC+>
0.12397278

>  <PEOE_RPC->
0.22348446

>  <PEOE_VSA+0>
98.103882

>  <PEOE_VSA+1>
44.402267

>  <PEOE_VSA+2>
4.9049287

>  <PEOE_VSA+3>
0

>  <PEOE_VSA+4>
20.648346

>  <PEOE_VSA+5>
0

>  <PEOE_VSA+6>
0

>  <PEOE_VSA-0>
60.909191

>  <PEOE_VSA-1>
37.495354

>  <PEOE_VSA-2>
0

>  <PEOE_VSA-3>
17.742489

>  <PEOE_VSA-4>
0

>  <PEOE_VSA-5>
0

>  <PEOE_VSA-6>
18.038837

>  <PEOE_VSA_FHYD>
0.87200069

>  <PEOE_VSA_FNEG>
0.4439635

>  <PEOE_VSA_FPNEG>
0.059682772

>  <PEOE_VSA_FPOL>
0.12799929

>  <PEOE_VSA_FPOS>
0.55603653

>  <PEOE_VSA_FPPOS>
0.068316519

>  <PEOE_VSA_HYD>
263.55811

>  <PEOE_VSA_NEG>
134.18587

>  <PEOE_VSA_PNEG>
18.038837

>  <PEOE_VSA_POL>
38.687183

>  <PEOE_VSA_POS>
168.05942

>  <PEOE_VSA_PPOS>
20.648346

>  <petitjean>
0.5

>  <petitjeanSC>
1

>  <Q_PC+>
0

>  <Q_PC->
0

>  <Q_RPC+>
0

>  <Q_RPC->
0

>  <Q_VSA_FHYD>
1

>  <Q_VSA_FNEG>
0

>  <Q_VSA_FPNEG>
0

>  <Q_VSA_FPOL>
0

>  <Q_VSA_FPOS>
1

>  <Q_VSA_FPPOS>
0

>  <Q_VSA_HYD>
302.2453

>  <Q_VSA_NEG>
0

>  <Q_VSA_PNEG>
0

>  <Q_VSA_POL>
0

>  <Q_VSA_POS>
302.2453

>  <Q_VSA_PPOS>
0

>  <radius>
5

>  <reactive>
1

>  <rings>
5

>  <RPC+>
0

>  <RPC->
0

>  <rsynth>
0.125

>  <SlogP>
3.4668839

>  <SlogP_VSA0>
25.385227

>  <SlogP_VSA1>
0

>  <SlogP_VSA2>
23.937187

>  <SlogP_VSA3>
73.046326

>  <SlogP_VSA4>
13.232388

>  <SlogP_VSA5>
8.4290028

>  <SlogP_VSA6>
0

>  <SlogP_VSA7>
0

>  <SlogP_VSA8>
132.07884

>  <SlogP_VSA9>
66.652031

>  <SMR>
8.7881603

>  <SMR_VSA0>
10.999887

>  <SMR_VSA1>
56.444584

>  <SMR_VSA2>
38.617615

>  <SMR_VSA3>
37.968048

>  <SMR_VSA4>
0

>  <SMR_VSA5>
132.07884

>  <SMR_VSA6>
0

>  <SMR_VSA7>
66.652031

>  <TPSA>
76.779999

>  <VAdjEq>
0.46012789

>  <VAdjMa>
5.8073549

>  <VDistEq>
3.0333667

>  <VDistMa>
8.9046164

>  <vdw_area>
302.2453

>  <vdw_vol>
455.80426

>  <vsa_acc>
20.246246

>  <vsa_acid>
0

>  <vsa_base>
0

>  <vsa_don>
0

>  <vsa_hyd>
203.68608

>  <vsa_other>
20.299505

>  <vsa_pol>
47.380089

>  <Weight>
329.44

>  <weinerPath>
1130

>  <weinerPol>
55

>  <zagreb>
152

$$$$