O1[C@H](COC(=O)c2cc(OC(=O)c3cc(O)c(O)c(O)c3)c(O)c(O)c2)[C@@H](OC(=O)c2cc(OC(=O)c3cc(O)c(O)c(O)c3)c(O)c(O)c2)[C@H](OC(=O)c2cc(OC(=O)c3cc(O)c(O)c(O)c3)c(O)c(O)c2)[C@@H](OC(=O)c2cc(OC(=O)c3cc(O)c(O)c(O)c3)c(O)c(O)c2)[C@@H]1OC(=O)c1cc(OC(=O)c2cc(O)c(O)c(O)c2)c(O)c(O)c1
  MOE2013           2D

122132  0  0  1  0  0  0  0  0999 V2000
    0.0940   -0.4800    0.0000 O   0  0  0  0  0  0  0  0  0  0  0  0
   -0.4020    0.9410    0.0000 C   0  0  2  0  0  0  0  0  0  0  0  0
    0.6020    2.0560    0.0000 C   0  0  0  0  0  0  0  0  0  0  0  0
    2.0810    1.8170    0.0000 O   0  0  0  0  0  0  0  0  0  0  0  0
    3.0660    2.9410    0.0000 C   0  0  0  0  0  0  0  0  0  0  0  0
    2.5620    4.3740    0.0000 O   0  0  0  0  0  0  0  0  0  0  0  0
    4.5520    2.7130    0.0000 C   0  0  0  0  0  0  0  0  0  0  0  0
    5.4930    3.8980    0.0000 C   0  0  0  0  0  0  0  0  0  0  0  0
    6.9700    3.7220    0.0000 C   0  0  0  0  0  0  0  0  0  0  0  0
    7.9340    4.8330    0.0000 O   0  0  0  0  0  0  0  0  0  0  0  0
    7.7320    6.2570    0.0000 C   0  0  0  0  0  0  0  0  0  0  0  0
    6.3310    6.8770    0.0000 O   0  0  0  0  0  0  0  0  0  0  0  0
    8.8970    7.2440    0.0000 C   0  0  0  0  0  0  0  0  0  0  0  0
   10.3010    6.7410    0.0000 C   0  0  0  0  0  0  0  0  0  0  0  0
   11.4510    7.7190    0.0000 C   0  0  0  0  0  0  0  0  0  0  0  0
   12.8610    7.2100    0.0000 O   0  0  0  0  0  0  0  0  0  0  0  0
   11.1740    9.1920    0.0000 C   0  0  0  0  0  0  0  0  0  0  0  0
   12.3200   10.1710    0.0000 O   0  0  0  0  0  0  0  0  0  0  0  0
    9.7620    9.6950    0.0000 C   0  0  0  0  0  0  0  0  0  0  0  0
    9.4820   11.1690    0.0000 O   0  0  0  0  0  0  0  0  0  0  0  0
    8.6170    8.7140    0.0000 C   0  0  0  0  0  0  0  0  0  0  0  0
    7.5320    2.2870    0.0000 C   0  0  0  0  0  0  0  0  0  0  0  0
    9.0220    2.1200    0.0000 O   0  0  0  0  0  0  0  0  0  0  0  0
    6.6150    1.1350    0.0000 C   0  0  0  0  0  0  0  0  0  0  0  0
    7.1560   -0.2830    0.0000 O   0  0  0  0  0  0  0  0  0  0  0  0
    5.1170    1.3290    0.0000 C   0  0  0  0  0  0  0  0  0  0  0  0
   -1.8880    1.2190    0.0000 C   0  0  1  0  0  0  0  0  0  0  0  0
   -2.1660    2.7050    0.0000 O   0  0  0  0  0  0  0  0  0  0  0  0
   -1.3240    3.8120    0.0000 C   0  0  0  0  0  0  0  0  0  0  0  0
    0.2630    3.5840    0.0000 O   0  0  0  0  0  0  0  0  0  0  0  0
   -1.6460    5.2960    0.0000 C   0  0  0  0  0  0  0  0  0  0  0  0
   -2.9590    5.9010    0.0000 C   0  0  0  0  0  0  0  0  0  0  0  0
   -3.1460    7.4270    0.0000 C   0  0  0  0  0  0  0  0  0  0  0  0
   -4.5250    8.0040    0.0000 O   0  0  0  0  0  0  0  0  0  0  0  0
   -4.8050    9.4500    0.0000 C   0  0  0  0  0  0  0  0  0  0  0  0
   -3.6380   10.4500    0.0000 O   0  0  0  0  0  0  0  0  0  0  0  0
   -6.1890   10.0380    0.0000 C   0  0  0  0  0  0  0  0  0  0  0  0
   -7.4130    9.2130    0.0000 C   0  0  0  0  0  0  0  0  0  0  0  0
   -8.7810    9.8540    0.0000 C   0  0  0  0  0  0  0  0  0  0  0  0
  -10.0070    8.9940    0.0000 O   0  0  0  0  0  0  0  0  0  0  0  0
   -8.9000   11.3470    0.0000 C   0  0  0  0  0  0  0  0  0  0  0  0
  -10.2530   12.0000    0.0000 O   0  0  0  0  0  0  0  0  0  0  0  0
   -7.6580   12.1940    0.0000 C   0  0  0  0  0  0  0  0  0  0  0  0
   -7.7900   13.7000    0.0000 O   0  0  0  0  0  0  0  0  0  0  0  0
   -6.3110   11.5620    0.0000 C   0  0  0  0  0  0  0  0  0  0  0  0
   -1.9360    8.2940    0.0000 C   0  0  0  0  0  0  0  0  0  0  0  0
   -2.0430    9.7920    0.0000 O   0  0  0  0  0  0  0  0  0  0  0  0
   -0.5580    7.6690    0.0000 C   0  0  0  0  0  0  0  0  0  0  0  0
    0.6440    8.5990    0.0000 O   0  0  0  0  0  0  0  0  0  0  0  0
   -0.3860    6.2130    0.0000 C   0  0  0  0  0  0  0  0  0  0  0  0
   -2.8590    0.0980    0.0000 C   0  0  2  0  0  0  0  0  0  0  0  0
   -4.2060   -0.5570    0.0000 O   0  0  0  0  0  0  0  0  0  0  0  0
   -4.5920   -2.1030    0.0000 C   0  0  0  0  0  0  0  0  0  0  0  0
   -6.3260   -1.6290    0.0000 O   0  0  0  0  0  0  0  0  0  0  0  0
   -4.6110   -3.5510    0.0000 C   0  0  0  0  0  0  0  0  0  0  0  0
   -5.9340   -4.3570    0.0000 C   0  0  0  0  0  0  0  0  0  0  0  0
   -5.9630   -5.8610    0.0000 C   0  0  0  0  0  0  0  0  0  0  0  0
   -7.2840   -6.5840    0.0000 O   0  0  0  0  0  0  0  0  0  0  0  0
   -7.4520   -8.0300    0.0000 C   0  0  0  0  0  0  0  0  0  0  0  0
   -6.2270   -8.9610    0.0000 O   0  0  0  0  0  0  0  0  0  0  0  0
   -8.8000   -8.7200    0.0000 C   0  0  0  0  0  0  0  0  0  0  0  0
   -8.8210  -10.2400    0.0000 C   0  0  0  0  0  0  0  0  0  0  0  0
  -10.1300  -10.9620    0.0000 C   0  0  0  0  0  0  0  0  0  0  0  0
  -10.1610  -12.4690    0.0000 O   0  0  0  0  0  0  0  0  0  0  0  0
  -11.4190  -10.1930    0.0000 C   0  0  0  0  0  0  0  0  0  0  0  0
  -12.7310  -10.9290    0.0000 O   0  0  0  0  0  0  0  0  0  0  0  0
  -11.3970   -8.6950    0.0000 C   0  0  0  0  0  0  0  0  0  0  0  0
  -12.6750   -7.9140    0.0000 O   0  0  0  0  0  0  0  0  0  0  0  0
  -10.0720   -7.9680    0.0000 C   0  0  0  0  0  0  0  0  0  0  0  0
   -4.6780   -6.6240    0.0000 C   0  0  0  0  0  0  0  0  0  0  0  0
   -4.6540   -8.1190    0.0000 O   0  0  0  0  0  0  0  0  0  0  0  0
   -3.3690   -5.8650    0.0000 C   0  0  0  0  0  0  0  0  0  0  0  0
   -2.0840   -6.6670    0.0000 O   0  0  0  0  0  0  0  0  0  0  0  0
   -3.3420   -4.3910    0.0000 C   0  0  0  0  0  0  0  0  0  0  0  0
   -2.3180   -1.3720    0.0000 C   0  0  1  0  0  0  0  0  0  0  0  0
   -3.5890   -2.0150    0.0000 O   0  0  0  0  0  0  0  0  0  0  0  0
   -5.0380   -1.3600    0.0000 C   0  0  0  0  0  0  0  0  0  0  0  0
   -6.0620   -2.7370    0.0000 O   0  0  0  0  0  0  0  0  0  0  0  0
   -5.8510   -0.1730    0.0000 C   0  0  0  0  0  0  0  0  0  0  0  0
   -7.4300   -0.3370    0.0000 C   0  0  0  0  0  0  0  0  0  0  0  0
   -8.3610    0.7880    0.0000 C   0  0  0  0  0  0  0  0  0  0  0  0
   -9.8300    0.7000    0.0000 O   0  0  0  0  0  0  0  0  0  0  0  0
  -10.7620   -0.3620    0.0000 C   0  0  0  0  0  0  0  0  0  0  0  0
  -10.3350   -1.8460    0.0000 O   0  0  0  0  0  0  0  0  0  0  0  0
  -12.2830   -0.1400    0.0000 C   0  0  0  0  0  0  0  0  0  0  0  0
  -12.8310    1.2430    0.0000 C   0  0  0  0  0  0  0  0  0  0  0  0
  -14.3290    1.4580    0.0000 C   0  0  0  0  0  0  0  0  0  0  0  0
  -14.8780    2.8510    0.0000 O   0  0  0  0  0  0  0  0  0  0  0  0
  -15.2460    0.2750    0.0000 C   0  0  0  0  0  0  0  0  0  0  0  0
  -16.7410    0.4840    0.0000 O   0  0  0  0  0  0  0  0  0  0  0  0
  -14.6900   -1.1160    0.0000 C   0  0  0  0  0  0  0  0  0  0  0  0
  -15.6070   -2.3020    0.0000 O   0  0  0  0  0  0  0  0  0  0  0  0
  -13.1950   -1.3240    0.0000 C   0  0  0  0  0  0  0  0  0  0  0  0
   -7.7730    2.2330    0.0000 C   0  0  0  0  0  0  0  0  0  0  0  0
   -8.7370    3.3660    0.0000 O   0  0  0  0  0  0  0  0  0  0  0  0
   -6.3160    2.4060    0.0000 C   0  0  0  0  0  0  0  0  0  0  0  0
   -5.7240    3.8190    0.0000 O   0  0  0  0  0  0  0  0  0  0  0  0
   -5.3760    1.2450    0.0000 C   0  0  0  0  0  0  0  0  0  0  0  0
   -0.9050   -1.6390    0.0000 C   0  0  2  0  0  0  0  0  0  0  0  0
   -0.3110   -3.0450    0.0000 O   0  0  0  0  0  0  0  0  0  0  0  0
    1.1370   -3.3090    0.0000 C   0  0  0  0  0  0  0  0  0  0  0  0
    2.1350   -2.1600    0.0000 O   0  0  0  0  0  0  0  0  0  0  0  0
    1.7070   -4.7180    0.0000 C   0  0  0  0  0  0  0  0  0  0  0  0
    3.1910   -4.9300    0.0000 C   0  0  0  0  0  0  0  0  0  0  0  0
    3.7630   -6.3430    0.0000 C   0  0  0  0  0  0  0  0  0  0  0  0
    5.2480   -6.5240    0.0000 O   0  0  0  0  0  0  0  0  0  0  0  0
    5.9500   -7.8020    0.0000 C   0  0  0  0  0  0  0  0  0  0  0  0
    5.1710   -9.1240    0.0000 O   0  0  0  0  0  0  0  0  0  0  0  0
    7.4590   -7.9210    0.0000 C   0  0  0  0  0  0  0  0  0  0  0  0
    8.3390   -6.7300    0.0000 C   0  0  0  0  0  0  0  0  0  0  0  0
    9.8420   -6.8860    0.0000 C   0  0  0  0  0  0  0  0  0  0  0  0
   10.7160   -5.6700    0.0000 O   0  0  0  0  0  0  0  0  0  0  0  0
   10.4440   -8.2580    0.0000 C   0  0  0  0  0  0  0  0  0  0  0  0
   11.9400   -8.4260    0.0000 O   0  0  0  0  0  0  0  0  0  0  0  0
    9.5560   -9.4670    0.0000 C   0  0  0  0  0  0  0  0  0  0  0  0
   10.1680  -10.8440    0.0000 O   0  0  0  0  0  0  0  0  0  0  0  0
    8.0680   -9.3110    0.0000 C   0  0  0  0  0  0  0  0  0  0  0  0
    2.8310   -7.5040    0.0000 C   0  0  0  0  0  0  0  0  0  0  0  0
    3.3540   -8.9180    0.0000 O   0  0  0  0  0  0  0  0  0  0  0  0
    1.3390   -7.2880    0.0000 C   0  0  0  0  0  0  0  0  0  0  0  0
    0.4200   -8.4750    0.0000 O   0  0  0  0  0  0  0  0  0  0  0  0
    0.7860   -5.8970    0.0000 C   0  0  0  0  0  0  0  0  0  0  0  0
  1  2  1  0  0  0  0
  1 99  1  0  0  0  0
  2  3  1  1  0  0  0
  2 27  1  0  0  0  0
  3  4  1  0  0  0  0
  4  5  1  0  0  0  0
  5  6  2  0  0  0  0
  5  7  1  0  0  0  0
  7  8  1  0  0  0  0
  7 26  2  0  0  0  0
  8  9  2  0  0  0  0
  9 10  1  0  0  0  0
  9 22  1  0  0  0  0
 10 11  1  0  0  0  0
 11 12  2  0  0  0  0
 11 13  1  0  0  0  0
 13 14  2  0  0  0  0
 13 21  1  0  0  0  0
 14 15  1  0  0  0  0
 15 16  1  0  0  0  0
 15 17  2  0  0  0  0
 17 18  1  0  0  0  0
 17 19  1  0  0  0  0
 19 20  1  0  0  0  0
 19 21  2  0  0  0  0
 22 23  1  0  0  0  0
 22 24  2  0  0  0  0
 24 25  1  0  0  0  0
 24 26  1  0  0  0  0
 27 28  1  6  0  0  0
 27 51  1  0  0  0  0
 28 29  1  0  0  0  0
 29 30  2  0  0  0  0
 29 31  1  0  0  0  0
 31 32  1  0  0  0  0
 31 50  2  0  0  0  0
 32 33  2  0  0  0  0
 33 34  1  0  0  0  0
 33 46  1  0  0  0  0
 34 35  1  0  0  0  0
 35 36  2  0  0  0  0
 35 37  1  0  0  0  0
 37 38  2  0  0  0  0
 37 45  1  0  0  0  0
 38 39  1  0  0  0  0
 39 40  1  0  0  0  0
 39 41  2  0  0  0  0
 41 42  1  0  0  0  0
 41 43  1  0  0  0  0
 43 44  1  0  0  0  0
 43 45  2  0  0  0  0
 46 47  1  0  0  0  0
 46 48  2  0  0  0  0
 48 49  1  0  0  0  0
 48 50  1  0  0  0  0
 51 52  1  1  0  0  0
 51 75  1  0  0  0  0
 52 53  1  0  0  0  0
 53 54  2  0  0  0  0
 53 55  1  0  0  0  0
 55 56  1  0  0  0  0
 55 74  2  0  0  0  0
 56 57  2  0  0  0  0
 57 58  1  0  0  0  0
 57 70  1  0  0  0  0
 58 59  1  0  0  0  0
 59 60  2  0  0  0  0
 59 61  1  0  0  0  0
 61 62  2  0  0  0  0
 61 69  1  0  0  0  0
 62 63  1  0  0  0  0
 63 64  1  0  0  0  0
 63 65  2  0  0  0  0
 65 66  1  0  0  0  0
 65 67  1  0  0  0  0
 67 68  1  0  0  0  0
 67 69  2  0  0  0  0
 70 71  1  0  0  0  0
 70 72  2  0  0  0  0
 72 73  1  0  0  0  0
 72 74  1  0  0  0  0
 75 76  1  6  0  0  0
 75 99  1  0  0  0  0
 76 77  1  0  0  0  0
 77 78  2  0  0  0  0
 77 79  1  0  0  0  0
 79 80  1  0  0  0  0
 79 98  2  0  0  0  0
 80 81  2  0  0  0  0
 81 82  1  0  0  0  0
 81 94  1  0  0  0  0
 82 83  1  0  0  0  0
 83 84  2  0  0  0  0
 83 85  1  0  0  0  0
 85 86  2  0  0  0  0
 85 93  1  0  0  0  0
 86 87  1  0  0  0  0
 87 88  1  0  0  0  0
 87 89  2  0  0  0  0
 89 90  1  0  0  0  0
 89 91  1  0  0  0  0
 91 92  1  0  0  0  0
 91 93  2  0  0  0  0
 94 95  1  0  0  0  0
 94 96  2  0  0  0  0
 96 97  1  0  0  0  0
 96 98  1  0  0  0  0
 99100  1  1  0  0  0
100101  1  0  0  0  0
101102  2  0  0  0  0
101103  1  0  0  0  0
103104  1  0  0  0  0
103122  2  0  0  0  0
104105  2  0  0  0  0
105106  1  0  0  0  0
105118  1  0  0  0  0
106107  1  0  0  0  0
107108  2  0  0  0  0
107109  1  0  0  0  0
109110  2  0  0  0  0
109117  1  0  0  0  0
110111  1  0  0  0  0
111112  1  0  0  0  0
111113  2  0  0  0  0
113114  1  0  0  0  0
113115  1  0  0  0  0
115116  1  0  0  0  0
115117  2  0  0  0  0
118119  1  0  0  0  0
118120  2  0  0  0  0
120121  1  0  0  0  0
120122  1  0  0  0  0
M  END
>  <Index>
2

>  <ID>
HT0012

>  <class>
0

>  <apol>
205.32524

>  <ast_fraglike>
0

>  <ast_fraglike_ext>
0

>  <ast_violation>
4

>  <ast_violation_ext>
6

>  <a_acc>
36

>  <a_acid>
0

>  <a_aro>
60

>  <a_base>
0

>  <a_count>
174

>  <a_don>
25

>  <a_donacc>
61

>  <a_heavy>
122

>  <a_hyd>
65

>  <a_IC>
269.72296

>  <a_ICM>
1.5501319

>  <a_nB>
0

>  <a_nBr>
0

>  <a_nC>
76

>  <a_nCl>
0

>  <a_nF>
0

>  <a_nH>
52

>  <a_nI>
0

>  <a_nN>
0

>  <a_nO>
46

>  <a_nP>
0

>  <a_nS>
0

>  <balabanJ>
0.9755156

>  <BCUT_PEOE_0>
-2.6984692

>  <BCUT_PEOE_1>
-0.96871257

>  <BCUT_PEOE_2>
0.99914157

>  <BCUT_PEOE_3>
2.8073545

>  <BCUT_SLOGP_0>
-2.8949091

>  <BCUT_SLOGP_1>
-0.97846073

>  <BCUT_SLOGP_2>
0.93178046

>  <BCUT_SLOGP_3>
2.6032007

>  <BCUT_SMR_0>
-2.511498

>  <BCUT_SMR_1>
-0.76854289

>  <BCUT_SMR_2>
1.1753353

>  <BCUT_SMR_3>
2.9809425

>  <bpol>
87.502762

>  <b_1rotN>
21

>  <b_1rotR>
0.15909091

>  <b_ar>
60

>  <b_count>
184

>  <b_double>
10

>  <b_heavy>
132

>  <b_max1len>
3

>  <b_rotN>
31

>  <b_rotR>
0.23484848

>  <b_single>
114

>  <b_triple>
0

>  <chi0>
89.381683

>  <chi0v>
59.894417

>  <chi0v_C>
40.140865

>  <chi0_C>
46.603508

>  <chi1>
57.351986

>  <chi1v>
33.18475

>  <chi1v_C>
20.788588

>  <chi1_C>
28.071514

>  <chiral>
5

>  <chiral_u>
0

>  <density>
0.90358734

>  <diameter>
28

>  <FCharge>
0

>  <GCUT_PEOE_0>
-0.76093626

>  <GCUT_PEOE_1>
-0.53162402

>  <GCUT_PEOE_2>
0.2905637

>  <GCUT_PEOE_3>
3.1921632

>  <GCUT_SLOGP_0>
-0.93088365

>  <GCUT_SLOGP_1>
-0.40593895

>  <GCUT_SLOGP_2>
0.20499542

>  <GCUT_SLOGP_3>
3.2064593

>  <GCUT_SMR_0>
-0.51679242

>  <GCUT_SMR_1>
-0.29914281

>  <GCUT_SMR_2>
0.39380601

>  <GCUT_SMR_3>
3.4255357

>  <Kier1>
102.51389

>  <Kier2>
44.896801

>  <Kier3>
25.155239

>  <KierA1>
77.503288

>  <KierA2>
33.86058

>  <KierA3>
18.940504

>  <KierFlex>
21.510708

>  <lip_acc>
46

>  <lip_don>
25

>  <lip_druglike>
0

>  <lip_violation>
3

>  <logP(o/w)>
8.5532198

>  <logS>
-12.16465

>  <mr>
37.923748

>  <mutagenic>
0

>  <nmol>
1

>  <opr_brigid>
66

>  <opr_leadlike>
0

>  <opr_nring>
11

>  <opr_nrot>
23

>  <opr_violation>
6

>  <PC+>
0

>  <PC->
0

>  <PEOE_PC+>
15.013572

>  <PEOE_PC->
-15.013572

>  <PEOE_RPC+>
0.019915922

>  <PEOE_RPC->
0.023791736

>  <PEOE_VSA+0>
0

>  <PEOE_VSA+1>
152.20212

>  <PEOE_VSA+2>
273.37531

>  <PEOE_VSA+3>
11.154908

>  <PEOE_VSA+4>
258.10431

>  <PEOE_VSA+5>
147.08499

>  <PEOE_VSA+6>
0

>  <PEOE_VSA-0>
245.09808

>  <PEOE_VSA-1>
0

>  <PEOE_VSA-2>
0

>  <PEOE_VSA-3>
0

>  <PEOE_VSA-4>
0

>  <PEOE_VSA-5>
150.69174

>  <PEOE_VSA-6>
206.70729

>  <PEOE_VSA_FHYD>
0.47204483

>  <PEOE_VSA_FNEG>
0.41712081

>  <PEOE_VSA_FPNEG>
0.2474345

>  <PEOE_VSA_FPOL>
0.52795517

>  <PEOE_VSA_FPOS>
0.58287919

>  <PEOE_VSA_FPPOS>
0.28052068

>  <PEOE_VSA_HYD>
681.83038

>  <PEOE_VSA_NEG>
602.49713

>  <PEOE_VSA_PNEG>
357.39902

>  <PEOE_VSA_POL>
762.58832

>  <PEOE_VSA_POS>
841.92163

>  <PEOE_VSA_PPOS>
405.1893

>  <petitjean>
0.4642857

>  <petitjeanSC>
0.86666667

>  <Q_PC+>
0

>  <Q_PC->
0

>  <Q_RPC+>
0

>  <Q_RPC->
0

>  <Q_VSA_FHYD>
1

>  <Q_VSA_FNEG>
0

>  <Q_VSA_FPNEG>
0

>  <Q_VSA_FPOL>
0

>  <Q_VSA_FPOS>
1

>  <Q_VSA_FPPOS>
0

>  <Q_VSA_HYD>
1444.4187

>  <Q_VSA_NEG>
0

>  <Q_VSA_PNEG>
0

>  <Q_VSA_POL>
0

>  <Q_VSA_POS>
1444.4187

>  <Q_VSA_PPOS>
0

>  <radius>
15

>  <reactive>
0

>  <rings>
11

>  <RPC+>
0

>  <RPC->
0

>  <rsynth>
1

>  <SlogP>
4.8381

>  <SlogP_VSA0>
689.63013

>  <SlogP_VSA1>
77.454643

>  <SlogP_VSA2>
100.40043

>  <SlogP_VSA3>
20.926258

>  <SlogP_VSA4>
270.47791

>  <SlogP_VSA5>
0

>  <SlogP_VSA6>
0

>  <SlogP_VSA7>
352.86368

>  <SlogP_VSA8>
0

>  <SlogP_VSA9>
157.30284

>  <SMR>
38.280201

>  <SMR_VSA0>
304.62149

>  <SMR_VSA1>
689.63013

>  <SMR_VSA2>
0

>  <SMR_VSA3>
223.55969

>  <SMR_VSA4>
0

>  <SMR_VSA5>
352.86368

>  <SMR_VSA6>
98.380898

>  <SMR_VSA7>
0

>  <TPSA>
777.97998

>  <VAdjEq>
0.12853956

>  <VAdjMa>
8.0443945

>  <VDistEq>
4.5689101

>  <VDistMa>
13.674956

>  <vdw_area>
1444.4187

>  <vdw_vol>
1882.7245

>  <vsa_acc>
138.17296

>  <vsa_acid>
0

>  <vsa_base>
0

>  <vsa_don>
0

>  <vsa_hyd>
647.90344

>  <vsa_other>
186.83105

>  <vsa_pol>
477.34598

>  <Weight>
1701.2059

>  <weinerPath>
97399

>  <weinerPol>
228

>  <zagreb>
658

$$$$