Clc1ccc(cc1)Cc1ccc(OC(CC)(C(OCC)=O)C)cc1
  MOE2013           2D

 24 25  0  0  1  0  0  0  0  0999 V2000
    0.0000    0.0000    0.0000 Cl  0  0  0  0  0  0  0  0  0  0  0  0
    1.3050    0.7390    0.0000 C   0  0  0  0  0  0  0  0  0  0  0  0
    1.3180    2.2390    0.0000 C   0  0  0  0  0  0  0  0  0  0  0  0
    2.6230    2.9780    0.0000 C   0  0  0  0  0  0  0  0  0  0  0  0
    3.9160    2.2180    0.0000 C   0  0  0  0  0  0  0  0  0  0  0  0
    3.9030    0.7180    0.0000 C   0  0  0  0  0  0  0  0  0  0  0  0
    2.5980   -0.0210    0.0000 C   0  0  0  0  0  0  0  0  0  0  0  0
    5.2210    2.9570    0.0000 C   0  0  0  0  0  0  0  0  0  0  0  0
    6.5140    2.1960    0.0000 C   0  0  0  0  0  0  0  0  0  0  0  0
    6.5010    0.6960    0.0000 C   0  0  0  0  0  0  0  0  0  0  0  0
    7.7940   -0.0640    0.0000 C   0  0  0  0  0  0  0  0  0  0  0  0
    9.0990    0.6750    0.0000 C   0  0  0  0  0  0  0  0  0  0  0  0
   10.3920   -0.0860    0.0000 O   0  0  0  0  0  0  0  0  0  0  0  0
   11.6970    0.6540    0.0000 C   0  0  3  0  0  0  0  0  0  0  0  0
   13.0020    1.3930    0.0000 C   0  0  0  0  0  0  0  0  0  0  0  0
   13.0150    2.8930    0.0000 C   0  0  0  0  0  0  0  0  0  0  0  0
   12.4360   -0.6520    0.0000 C   0  0  0  0  0  0  0  0  0  0  0  0
   13.9360   -0.6640    0.0000 O   0  0  0  0  0  0  0  0  0  0  0  0
   14.6760   -1.9690    0.0000 C   0  0  0  0  0  0  0  0  0  0  0  0
   16.1760   -1.9810    0.0000 C   0  0  0  0  0  0  0  0  0  0  0  0
   11.6760   -1.9440    0.0000 O   0  0  0  0  0  0  0  0  0  0  0  0
   10.9580    1.9590    0.0000 C   0  0  0  0  0  0  0  0  0  0  0  0
    9.1110    2.1750    0.0000 C   0  0  0  0  0  0  0  0  0  0  0  0
    7.8190    2.9360    0.0000 C   0  0  0  0  0  0  0  0  0  0  0  0
  1  2  1  0  0  0  0
  2  3  1  0  0  0  0
  2  7  2  0  0  0  0
  3  4  2  0  0  0  0
  4  5  1  0  0  0  0
  5  6  2  0  0  0  0
  5  8  1  0  0  0  0
  6  7  1  0  0  0  0
  8  9  1  0  0  0  0
  9 10  1  0  0  0  0
  9 24  2  0  0  0  0
 10 11  2  0  0  0  0
 11 12  1  0  0  0  0
 12 13  1  0  0  0  0
 12 23  2  0  0  0  0
 13 14  1  0  0  0  0
 14 15  1  0  0  0  0
 14 17  1  0  0  0  0
 14 22  1  0  0  0  0
 15 16  1  0  0  0  0
 17 18  1  0  0  0  0
 17 21  2  0  0  0  0
 18 19  1  0  0  0  0
 19 20  1  0  0  0  0
 23 24  1  0  0  0  0
M  END
>  <Index>
112

>  <ID>
HT0230

>  <class>
0

>  <apol>
55.122238

>  <ast_fraglike>
0

>  <ast_fraglike_ext>
0

>  <ast_violation>
2

>  <ast_violation_ext>
3

>  <a_acc>
2

>  <a_acid>
0

>  <a_aro>
12

>  <a_base>
0

>  <a_count>
47

>  <a_don>
0

>  <a_donacc>
2

>  <a_heavy>
24

>  <a_hyd>
20

>  <a_IC>
65.830299

>  <a_ICM>
1.4006447

>  <a_nB>
0

>  <a_nBr>
0

>  <a_nC>
20

>  <a_nCl>
1

>  <a_nF>
0

>  <a_nH>
23

>  <a_nI>
0

>  <a_nN>
0

>  <a_nO>
3

>  <a_nP>
0

>  <a_nS>
0

>  <balabanJ>
1.7377276

>  <BCUT_PEOE_0>
-2.5825737

>  <BCUT_PEOE_1>
-0.61314201

>  <BCUT_PEOE_2>
0.59966958

>  <BCUT_PEOE_3>
2.63431

>  <BCUT_SLOGP_0>
-2.6457264

>  <BCUT_SLOGP_1>
-0.43799996

>  <BCUT_SLOGP_2>
0.75831634

>  <BCUT_SLOGP_3>
2.6186111

>  <BCUT_SMR_0>
-2.3622463

>  <BCUT_SMR_1>
-0.41301587

>  <BCUT_SMR_2>
0.85218388

>  <BCUT_SMR_3>
2.8479469

>  <bpol>
30.353762

>  <b_1rotN>
7

>  <b_1rotR>
0.28

>  <b_ar>
12

>  <b_count>
48

>  <b_double>
1

>  <b_heavy>
25

>  <b_max1len>
5

>  <b_rotN>
8

>  <b_rotR>
0.31999999

>  <b_single>
35

>  <b_triple>
0

>  <chi0>
17.57914

>  <chi0v>
15.098761

>  <chi0v_C>
12.740123

>  <chi0_C>
14.164926

>  <chi1>
11.463675

>  <chi1v>
8.5397263

>  <chi1v_C>
6.8676081

>  <chi1_C>
8.6389246

>  <chiral>
1

>  <chiral_u>
1

>  <density>
0.72603881

>  <diameter>
15

>  <FCharge>
0

>  <GCUT_PEOE_0>
-0.76867908

>  <GCUT_PEOE_1>
-0.38159937

>  <GCUT_PEOE_2>
0.013456126

>  <GCUT_PEOE_3>
2.5869274

>  <GCUT_SLOGP_0>
-0.93342507

>  <GCUT_SLOGP_1>
-0.26386139

>  <GCUT_SLOGP_2>
0.14819899

>  <GCUT_SLOGP_3>
2.6779132

>  <GCUT_SMR_0>
-0.5242427

>  <GCUT_SMR_1>
-0.18777971

>  <GCUT_SMR_2>
0.19305076

>  <GCUT_SMR_3>
2.843245

>  <Kier1>
20.313601

>  <Kier2>
9.6297579

>  <Kier3>
6.046401

>  <KierA1>
16.861305

>  <KierA2>
7.9245377

>  <KierA3>
4.9449048

>  <KierFlex>
5.5674186

>  <lip_acc>
3

>  <lip_don>
0

>  <lip_druglike>
1

>  <lip_violation>
1

>  <logP(o/w)>
5.8467398

>  <logS>
-5.8775001

>  <mr>
9.8725014

>  <mutagenic>
0

>  <nmol>
1

>  <opr_brigid>
12

>  <opr_leadlike>
1

>  <opr_nring>
2

>  <opr_nrot>
7

>  <opr_violation>
1

>  <PC+>
0

>  <PC->
0

>  <PEOE_PC+>
1.5958388

>  <PEOE_PC->
-1.5958388

>  <PEOE_RPC+>
0.18461284

>  <PEOE_RPC->
0.20586695

>  <PEOE_VSA+0>
59.969765

>  <PEOE_VSA+1>
66.063675

>  <PEOE_VSA+2>
0

>  <PEOE_VSA+3>
0

>  <PEOE_VSA+4>
0

>  <PEOE_VSA+5>
14.708499

>  <PEOE_VSA+6>
0

>  <PEOE_VSA-0>
108.33468

>  <PEOE_VSA-1>
97.349243

>  <PEOE_VSA-2>
0

>  <PEOE_VSA-3>
0

>  <PEOE_VSA-4>
0

>  <PEOE_VSA-5>
13.566921

>  <PEOE_VSA-6>
5.0075121

>  <PEOE_VSA_FHYD>
0.90881395

>  <PEOE_VSA_FNEG>
0.61440593

>  <PEOE_VSA_FPNEG>
0.050888818

>  <PEOE_VSA_FPOL>
0.091186047

>  <PEOE_VSA_FPOS>
0.38559404

>  <PEOE_VSA_FPPOS>
0.040297225

>  <PEOE_VSA_HYD>
331.71735

>  <PEOE_VSA_NEG>
224.25835

>  <PEOE_VSA_PNEG>
18.574432

>  <PEOE_VSA_POL>
33.282932

>  <PEOE_VSA_POS>
140.74194

>  <PEOE_VSA_PPOS>
14.708499

>  <petitjean>
0.46666667

>  <petitjeanSC>
0.875

>  <Q_PC+>
0

>  <Q_PC->
0

>  <Q_RPC+>
0

>  <Q_RPC->
0

>  <Q_VSA_FHYD>
1

>  <Q_VSA_FNEG>
0

>  <Q_VSA_FPNEG>
0

>  <Q_VSA_FPOL>
0

>  <Q_VSA_FPOS>
1

>  <Q_VSA_FPPOS>
0

>  <Q_VSA_HYD>
365.00027

>  <Q_VSA_NEG>
0

>  <Q_VSA_PNEG>
0

>  <Q_VSA_POL>
0

>  <Q_VSA_POS>
365.00027

>  <Q_VSA_PPOS>
0

>  <radius>
8

>  <reactive>
0

>  <rings>
2

>  <RPC+>
0

>  <RPC->
0

>  <rsynth>
1

>  <SlogP>
5.0413699

>  <SlogP_VSA0>
10.999887

>  <SlogP_VSA1>
7.7454643

>  <SlogP_VSA2>
34.862103

>  <SlogP_VSA3>
20.926258

>  <SlogP_VSA4>
6.37115

>  <SlogP_VSA5>
18.868406

>  <SlogP_VSA6>
3.5006065

>  <SlogP_VSA7>
141.14548

>  <SlogP_VSA8>
18.868406

>  <SlogP_VSA9>
144.37012

>  <SMR>
9.6657

>  <SMR_VSA0>
34.862103

>  <SMR_VSA1>
10.999887

>  <SMR_VSA2>
0

>  <SMR_VSA3>
15.115185

>  <SMR_VSA4>
0

>  <SMR_VSA5>
178.88228

>  <SMR_VSA6>
28.671722

>  <SMR_VSA7>
139.12669

>  <TPSA>
35.529999

>  <VAdjEq>
0.42571631

>  <VAdjMa>
5.643856

>  <VDistEq>
3.6186826

>  <VDistMa>
8.8354092

>  <vdw_area>
365.00027

>  <vdw_vol>
477.73477

>  <vsa_acc>
16.070677

>  <vsa_acid>
0

>  <vsa_base>
0

>  <vsa_don>
0

>  <vsa_hyd>
315.34607

>  <vsa_other>
17.212255

>  <vsa_pol>
16.070677

>  <Weight>
346.854

>  <weinerPath>
1552

>  <weinerPol>
35

>  <zagreb>
118

$$$$