S(O)(=O)(=O)NC1C(O)C(OC2OC(C(O)=O)C(OC3CC(COS(O)(=O)=O)C(OC4OC(CC(O)C4OS(O)(=O)=O)C(O)=O)C(O)C3N)C(O)C2O)C(OC1O)CO
  MOE2013           2D

 58 61  0  0  1  0  0  0  0  0999 V2000
    0.0000    0.0000    0.0000 S   0  0  0  0  0  0  0  0  0  0  0  0
    1.3010    0.7470    0.0000 O   0  0  0  0  0  0  0  0  0  0  0  0
   -0.7470    1.3010    0.0000 O   0  0  0  0  0  0  0  0  0  0  0  0
    0.7470   -1.3010    0.0000 O   0  0  0  0  0  0  0  0  0  0  0  0
   -1.3010   -0.7470    0.0000 N   0  0  0  0  0  0  0  0  0  0  0  0
   -2.5980    0.0060    0.0000 C   0  0  3  0  0  0  0  0  0  0  0  0
   -3.8990   -0.7400    0.0000 C   0  0  3  0  0  0  0  0  0  0  0  0
   -3.9030   -2.2400    0.0000 O   0  0  0  0  0  0  0  0  0  0  0  0
   -5.1960    0.0130    0.0000 C   0  0  3  0  0  0  0  0  0  0  0  0
   -6.4970   -0.7340    0.0000 O   0  0  0  0  0  0  0  0  0  0  0  0
   -7.7940    0.0190    0.0000 C   0  0  3  0  0  0  0  0  0  0  0  0
   -7.7900    1.5190    0.0000 O   0  0  0  0  0  0  0  0  0  0  0  0
   -9.0880    2.2720    0.0000 C   0  0  3  0  0  0  0  0  0  0  0  0
   -9.0840    3.7720    0.0000 C   0  0  0  0  0  0  0  0  0  0  0  0
   -7.7830    4.5190    0.0000 O   0  0  0  0  0  0  0  0  0  0  0  0
  -10.3810    4.5260    0.0000 O   0  0  0  0  0  0  0  0  0  0  0  0
  -10.3890    1.5260    0.0000 C   0  0  3  0  0  0  0  0  0  0  0  0
  -11.6860    2.2790    0.0000 O   0  0  0  0  0  0  0  0  0  0  0  0
  -12.9870    1.5320    0.0000 C   0  0  3  0  0  0  0  0  0  0  0  0
  -12.9900    0.0320    0.0000 C   0  0  0  0  0  0  0  0  0  0  0  0
  -14.2910   -0.7150    0.0000 C   0  0  3  0  0  0  0  0  0  0  0  0
  -14.2950   -2.2150    0.0000 C   0  0  0  0  0  0  0  0  0  0  0  0
  -12.9980   -2.9680    0.0000 O   0  0  0  0  0  0  0  0  0  0  0  0
  -13.0010   -4.4680    0.0000 S   0  0  0  0  0  0  0  0  0  0  0  0
  -13.0050   -5.9680    0.0000 O   0  0  0  0  0  0  0  0  0  0  0  0
  -14.5010   -4.4640    0.0000 O   0  0  0  0  0  0  0  0  0  0  0  0
  -11.5010   -4.4720    0.0000 O   0  0  0  0  0  0  0  0  0  0  0  0
  -15.5880    0.0390    0.0000 C   0  0  3  0  0  0  0  0  0  0  0  0
  -16.8890   -0.7080    0.0000 O   0  0  0  0  0  0  0  0  0  0  0  0
  -18.1860    0.0450    0.0000 C   0  0  3  0  0  0  0  0  0  0  0  0
  -18.1830    1.5450    0.0000 O   0  0  0  0  0  0  0  0  0  0  0  0
  -19.4800    2.2980    0.0000 C   0  0  3  0  0  0  0  0  0  0  0  0
  -20.7810    1.5510    0.0000 C   0  0  0  0  0  0  0  0  0  0  0  0
  -20.7850    0.0510    0.0000 C   0  0  3  0  0  0  0  0  0  0  0  0
  -22.0850   -0.6950    0.0000 O   0  0  0  0  0  0  0  0  0  0  0  0
  -19.4870   -0.7020    0.0000 C   0  0  3  0  0  0  0  0  0  0  0  0
  -19.4910   -2.2020    0.0000 O   0  0  0  0  0  0  0  0  0  0  0  0
  -20.7920   -2.9490    0.0000 S   0  0  0  0  0  0  0  0  0  0  0  0
  -22.0930   -3.6950    0.0000 O   0  0  0  0  0  0  0  0  0  0  0  0
  -21.5390   -1.6480    0.0000 O   0  0  0  0  0  0  0  0  0  0  0  0
  -20.0450   -4.2490    0.0000 O   0  0  0  0  0  0  0  0  0  0  0  0
  -19.4760    3.7980    0.0000 C   0  0  0  0  0  0  0  0  0  0  0  0
  -18.1750    4.5450    0.0000 O   0  0  0  0  0  0  0  0  0  0  0  0
  -20.7730    4.5510    0.0000 O   0  0  0  0  0  0  0  0  0  0  0  0
  -15.5850    1.5390    0.0000 C   0  0  3  0  0  0  0  0  0  0  0  0
  -16.8820    2.2920    0.0000 O   0  0  0  0  0  0  0  0  0  0  0  0
  -14.2840    2.2850    0.0000 C   0  0  3  0  0  0  0  0  0  0  0  0
  -14.2800    3.7850    0.0000 N   0  0  0  0  0  0  0  0  0  0  0  0
  -10.3920    0.0260    0.0000 C   0  0  3  0  0  0  0  0  0  0  0  0
  -11.6930   -0.7210    0.0000 O   0  0  0  0  0  0  0  0  0  0  0  0
   -9.0950   -0.7280    0.0000 C   0  0  3  0  0  0  0  0  0  0  0  0
   -9.0990   -2.2280    0.0000 O   0  0  0  0  0  0  0  0  0  0  0  0
   -5.1920    1.5130    0.0000 C   0  0  3  0  0  0  0  0  0  0  0  0
   -3.8920    2.2600    0.0000 O   0  0  0  0  0  0  0  0  0  0  0  0
   -2.5940    1.5060    0.0000 C   0  0  3  0  0  0  0  0  0  0  0  0
   -1.2930    2.2530    0.0000 O   0  0  0  0  0  0  0  0  0  0  0  0
   -6.4900    2.2660    0.0000 C   0  0  0  0  0  0  0  0  0  0  0  0
   -6.4860    3.7660    0.0000 O   0  0  0  0  0  0  0  0  0  0  0  0
  1  2  1  0  0  0  0
  1  3  2  0  0  0  0
  1  4  2  0  0  0  0
  1  5  1  0  0  0  0
  5  6  1  0  0  0  0
  6  7  1  0  0  0  0
  6 55  1  0  0  0  0
  7  8  1  0  0  0  0
  7  9  1  0  0  0  0
  9 10  1  0  0  0  0
  9 53  1  0  0  0  0
 10 11  1  0  0  0  0
 11 12  1  0  0  0  0
 11 51  1  0  0  0  0
 12 13  1  0  0  0  0
 13 14  1  0  0  0  0
 13 17  1  0  0  0  0
 14 15  1  0  0  0  0
 14 16  2  0  0  0  0
 17 18  1  0  0  0  0
 17 49  1  0  0  0  0
 18 19  1  0  0  0  0
 19 20  1  0  0  0  0
 19 47  1  0  0  0  0
 20 21  1  0  0  0  0
 21 22  1  0  0  0  0
 21 28  1  0  0  0  0
 22 23  1  0  0  0  0
 23 24  1  0  0  0  0
 24 25  1  0  0  0  0
 24 26  2  0  0  0  0
 24 27  2  0  0  0  0
 28 29  1  0  0  0  0
 28 45  1  0  0  0  0
 29 30  1  0  0  0  0
 30 31  1  0  0  0  0
 30 36  1  0  0  0  0
 31 32  1  0  0  0  0
 32 33  1  0  0  0  0
 32 42  1  0  0  0  0
 33 34  1  0  0  0  0
 34 35  1  0  0  0  0
 34 36  1  0  0  0  0
 36 37  1  0  0  0  0
 37 38  1  0  0  0  0
 38 39  1  0  0  0  0
 38 40  2  0  0  0  0
 38 41  2  0  0  0  0
 42 43  1  0  0  0  0
 42 44  2  0  0  0  0
 45 46  1  0  0  0  0
 45 47  1  0  0  0  0
 47 48  1  0  0  0  0
 49 50  1  0  0  0  0
 49 51  1  0  0  0  0
 51 52  1  0  0  0  0
 53 54  1  0  0  0  0
 53 57  1  0  0  0  0
 54 55  1  0  0  0  0
 55 56  1  0  0  0  0
 57 58  1  0  0  0  0
M  END
>  <Index>
1418

>  <ID>
HT4021

>  <class>
0

>  <apol>
105.36131

>  <ast_fraglike>
0

>  <ast_fraglike_ext>
0

>  <ast_violation>
3

>  <ast_violation_ext>
5

>  <a_acc>
29

>  <a_acid>
0

>  <a_aro>
0

>  <a_base>
0

>  <a_count>
100

>  <a_don>
22

>  <a_donacc>
51

>  <a_heavy>
58

>  <a_hyd>
20

>  <a_IC>
180.45105

>  <a_ICM>
1.8045106

>  <a_nB>
0

>  <a_nBr>
0

>  <a_nC>
25

>  <a_nCl>
0

>  <a_nF>
0

>  <a_nH>
42

>  <a_nI>
0

>  <a_nN>
2

>  <a_nO>
28

>  <a_nP>
0

>  <a_nS>
3

>  <balabanJ>
1.5676641

>  <BCUT_PEOE_0>
-2.8256977

>  <BCUT_PEOE_1>
-0.59433991

>  <BCUT_PEOE_2>
0.69220716

>  <BCUT_PEOE_3>
2.8623247

>  <BCUT_SLOGP_0>
-2.9909396

>  <BCUT_SLOGP_1>
-0.67810142

>  <BCUT_SLOGP_2>
0.58232534

>  <BCUT_SLOGP_3>
2.7416813

>  <BCUT_SMR_0>
-2.6060102

>  <BCUT_SMR_1>
-0.489447

>  <BCUT_SMR_2>
0.77744514

>  <BCUT_SMR_3>
3.0704415

>  <bpol>
82.586693

>  <b_1rotN>
16

>  <b_1rotR>
0.26229507

>  <b_ar>
0

>  <b_count>
103

>  <b_double>
2

>  <b_heavy>
61

>  <b_max1len>
6

>  <b_rotN>
16

>  <b_rotR>
0.26229507

>  <b_single>
101

>  <b_triple>
0

>  <chi0>
43.816742

>  <chi0v>
31.448202

>  <chi0v_C>
14.798082

>  <chi0_C>
14.952783

>  <chi1>
26.616919

>  <chi1v>
20.644743

>  <chi1v_C>
7.6935067

>  <chi1_C>
7.7828231

>  <chiral>
19

>  <chiral_u>
19

>  <density>
1.0125296

>  <diameter>
21

>  <FCharge>
0

>  <GCUT_PEOE_0>
-0.82177228

>  <GCUT_PEOE_1>
-0.44642124

>  <GCUT_PEOE_2>
0.12371922

>  <GCUT_PEOE_3>
3.2693572

>  <GCUT_SLOGP_0>
-1.3638549

>  <GCUT_SLOGP_1>
-0.49696067

>  <GCUT_SLOGP_2>
0.054200001

>  <GCUT_SLOGP_3>
3.1520782

>  <GCUT_SMR_0>
-0.52880031

>  <GCUT_SMR_1>
-0.24315834

>  <GCUT_SMR_2>
0.20801166

>  <GCUT_SMR_3>
3.4659073

>  <Kier1>
50.642838

>  <Kier2>
20.229969

>  <Kier3>
13.271776

>  <KierA1>
53.065559

>  <KierA2>
21.215212

>  <KierA3>
13.926008

>  <KierFlex>
19.410295

>  <lip_acc>
30

>  <lip_don>
15

>  <lip_druglike>
0

>  <lip_violation>
3

>  <logP(o/w)>
-8.2842598

>  <logS>
0.30287999

>  <mr>
17.331646

>  <mutagenic>
0

>  <nmol>
1

>  <opr_brigid>
24

>  <opr_leadlike>
0

>  <opr_nring>
4

>  <opr_nrot>
23

>  <opr_violation>
5

>  <PC+>
0

>  <PC->
0

>  <PEOE_PC+>
7.861692

>  <PEOE_PC->
-7.861692

>  <PEOE_RPC+>
0.037075434

>  <PEOE_RPC->
0.049908604

>  <PEOE_VSA+0>
47.089787

>  <PEOE_VSA+1>
142.96915

>  <PEOE_VSA+2>
85.69101

>  <PEOE_VSA+3>
38.369656

>  <PEOE_VSA+4>
108.02315

>  <PEOE_VSA+5>
62.442532

>  <PEOE_VSA+6>
0

>  <PEOE_VSA-0>
8.701313

>  <PEOE_VSA-1>
98.579094

>  <PEOE_VSA-2>
0

>  <PEOE_VSA-3>
9.8901939

>  <PEOE_VSA-4>
30.626642

>  <PEOE_VSA-5>
27.133842

>  <PEOE_VSA-6>
91.58152

>  <PEOE_VSA_FHYD>
0.57421303

>  <PEOE_VSA_FNEG>
0.35483071

>  <PEOE_VSA_FPNEG>
0.19883162

>  <PEOE_VSA_FPOL>
0.42578697

>  <PEOE_VSA_FPOS>
0.64516926

>  <PEOE_VSA_FPPOS>
0.22695534

>  <PEOE_VSA_HYD>
431.29019

>  <PEOE_VSA_NEG>
266.5126

>  <PEOE_VSA_PNEG>
149.34201

>  <PEOE_VSA_POL>
319.80768

>  <PEOE_VSA_POS>
484.58527

>  <PEOE_VSA_PPOS>
170.46568

>  <petitjean>
0.47619048

>  <petitjeanSC>
0.90909094

>  <Q_PC+>
0

>  <Q_PC->
0

>  <Q_RPC+>
0

>  <Q_RPC->
0

>  <Q_VSA_FHYD>
1

>  <Q_VSA_FNEG>
0

>  <Q_VSA_FPNEG>
0

>  <Q_VSA_FPOL>
0

>  <Q_VSA_FPOS>
1

>  <Q_VSA_FPPOS>
0

>  <Q_VSA_HYD>
751.0979

>  <Q_VSA_NEG>
0

>  <Q_VSA_PNEG>
0

>  <Q_VSA_POL>
0

>  <Q_VSA_POS>
751.0979

>  <Q_VSA_PPOS>
0

>  <radius>
11

>  <reactive>
1

>  <rings>
4

>  <RPC+>
0

>  <RPC->
0

>  <rsynth>
0.79310346

>  <SlogP>
-10.5478

>  <SlogP_VSA0>
295.79102

>  <SlogP_VSA1>
160.006

>  <SlogP_VSA2>
277.36914

>  <SlogP_VSA3>
92.622971

>  <SlogP_VSA4>
4.4107962

>  <SlogP_VSA5>
0

>  <SlogP_VSA6>
0

>  <SlogP_VSA7>
0

>  <SlogP_VSA8>
37.736813

>  <SlogP_VSA9>
0

>  <SMR>
17.086411

>  <SMR_VSA0>
275.32965

>  <SMR_VSA1>
246.48885

>  <SMR_VSA2>
71.586243

>  <SMR_VSA3>
117.63589

>  <SMR_VSA4>
32.897186

>  <SMR_VSA5>
37.736813

>  <SMR_VSA6>
57.343445

>  <SMR_VSA7>
28.918684

>  <TPSA>
491.20999

>  <VAdjEq>
0.22490348

>  <VAdjMa>
6.9307375

>  <VDistEq>
4.2438889

>  <VDistMa>
11.448489

>  <vdw_area>
751.0979

>  <vdw_vol>
903.47485

>  <vsa_acc>
24.912731

>  <vsa_acid>
0

>  <vsa_base>
0

>  <vsa_don>
8.0752068

>  <vsa_hyd>
201.30234

>  <vsa_other>
121.67362

>  <vsa_pol>
344.04092

>  <Weight>
914.79498

>  <weinerPath>
14811

>  <weinerPol>
102

>  <zagreb>
310

$$$$