O(C(=O)C1=CC=C2C=3N=C(C=c4[nH]c(=CC5=NC(=Cc6[nH]c(C=3)c(C)c6C=C)C(C)=C5CCC(O)=O)c(CCC(OC)=O)c4C)[C@]2(C)[C@@H]1C(OC)=O)C
  MOE2013           2D

 53 58  0  0  1  0  0  0  0  0999 V2000
    0.0000    0.0000    0.0000 O   0  0  0  0  0  0  0  0  0  0  0  0
   -1.5000    0.0130    0.0000 C   0  0  0  0  0  0  0  0  0  0  0  0
   -2.2620   -1.2790    0.0000 O   0  0  0  0  0  0  0  0  0  0  0  0
   -2.2380    1.3190    0.0000 C   0  0  0  0  0  0  0  0  0  0  0  0
   -1.4780    2.6100    0.0000 C   0  0  0  0  0  0  0  0  0  0  0  0
   -2.2190    3.9160    0.0000 C   0  0  0  0  0  0  0  0  0  0  0  0
   -3.7090    3.9360    0.0000 C   0  0  0  0  0  0  0  0  0  0  0  0
   -4.7230    5.0200    0.0000 C   0  0  0  0  0  0  0  0  0  0  0  0
   -6.0740    4.4470    0.0000 N   0  0  0  0  0  0  0  0  0  0  0  0
   -5.9210    2.9880    0.0000 C   0  0  0  0  0  0  0  0  0  0  0  0
   -6.6890    1.8920    0.0000 C   0  0  0  0  0  0  0  0  0  0  0  0
   -7.8990    2.4790    0.0000 C   0  0  0  0  0  0  0  0  0  0  0  0
   -8.4580    3.8360    0.0000 N   0  0  0  0  0  0  0  0  0  0  0  0
   -9.9180    3.6980    0.0000 C   0  0  0  0  0  0  0  0  0  0  0  0
  -11.0020    4.4950    0.0000 C   0  0  0  0  0  0  0  0  0  0  0  0
  -10.4270    5.7110    0.0000 C   0  0  0  0  0  0  0  0  0  0  0  0
   -9.0740    6.2830    0.0000 N   0  0  0  0  0  0  0  0  0  0  0  0
   -9.2290    7.7420    0.0000 C   0  0  0  0  0  0  0  0  0  0  0  0
   -8.4440    8.8340    0.0000 C   0  0  0  0  0  0  0  0  0  0  0  0
   -7.2350    8.2440    0.0000 C   0  0  0  0  0  0  0  0  0  0  0  0
   -6.6790    6.8850    0.0000 N   0  0  0  0  0  0  0  0  0  0  0  0
   -5.2180    7.0220    0.0000 C   0  0  0  0  0  0  0  0  0  0  0  0
   -4.1360    6.2240    0.0000 C   0  0  0  0  0  0  0  0  0  0  0  0
   -4.8280    8.4470    0.0000 C   0  0  0  0  0  0  0  0  0  0  0  0
   -3.4350    9.0020    0.0000 C   0  0  0  0  0  0  0  0  0  0  0  0
   -6.1530    9.2500    0.0000 C   0  0  0  0  0  0  0  0  0  0  0  0
   -6.3060   10.7420    0.0000 C   0  0  0  0  0  0  0  0  0  0  0  0
   -5.0900   11.6200    0.0000 C   0  0  0  0  0  0  0  0  0  0  0  0
  -10.6590    8.1150    0.0000 C   0  0  0  0  0  0  0  0  0  0  0  0
  -11.2310    9.5020    0.0000 C   0  0  0  0  0  0  0  0  0  0  0  0
  -11.4450    6.7800    0.0000 C   0  0  0  0  0  0  0  0  0  0  0  0
  -12.9360    6.6100    0.0000 C   0  0  0  0  0  0  0  0  0  0  0  0
  -13.8290    7.8150    0.0000 C   0  0  0  0  0  0  0  0  0  0  0  0
  -15.3190    7.6440    0.0000 C   0  0  0  0  0  0  0  0  0  0  0  0
  -15.9160    6.2680    0.0000 O   0  0  0  0  0  0  0  0  0  0  0  0
  -16.2120    8.8490    0.0000 O   0  0  0  0  0  0  0  0  0  0  0  0
  -10.3060    2.2730    0.0000 C   0  0  0  0  0  0  0  0  0  0  0  0
  -11.6980    1.7150    0.0000 C   0  0  0  0  0  0  0  0  0  0  0  0
  -11.9110    0.2300    0.0000 C   0  0  0  0  0  0  0  0  0  0  0  0
  -13.3040   -0.3270    0.0000 C   0  0  0  0  0  0  0  0  0  0  0  0
  -14.4830    0.5990    0.0000 O   0  0  0  0  0  0  0  0  0  0  0  0
  -15.8750    0.0410    0.0000 C   0  0  0  0  0  0  0  0  0  0  0  0
  -13.5170   -1.8120    0.0000 O   0  0  0  0  0  0  0  0  0  0  0  0
   -8.9790    1.4720    0.0000 C   0  0  0  0  0  0  0  0  0  0  0  0
   -8.8240   -0.0200    0.0000 C   0  0  0  0  0  0  0  0  0  0  0  0
   -4.4800    2.6260    0.0000 C   0  0  1  0  0  0  0  0  0  0  0  0
   -5.4330    1.4670    0.0000 C   0  0  0  0  0  0  0  0  0  0  0  0
   -3.7400    1.3330    0.0000 C   0  0  2  0  0  0  0  0  0  0  0  0
   -4.4980    0.0380    0.0000 C   0  0  0  0  0  0  0  0  0  0  0  0
   -3.7560   -1.2650    0.0000 O   0  0  0  0  0  0  0  0  0  0  0  0
   -4.5140   -2.5600    0.0000 C   0  0  0  0  0  0  0  0  0  0  0  0
   -5.9980    0.0480    0.0000 O   0  0  0  0  0  0  0  0  0  0  0  0
    0.7380   -1.3060    0.0000 C   0  0  0  0  0  0  0  0  0  0  0  0
  1  2  1  0  0  0  0
  1 53  1  0  0  0  0
  2  3  2  0  0  0  0
  2  4  1  0  0  0  0
  4  5  2  0  0  0  0
  4 48  1  0  0  0  0
  5  6  1  0  0  0  0
  6  7  2  0  0  0  0
  7  8  1  0  0  0  0
  7 46  1  0  0  0  0
  8  9  1  0  0  0  0
  8 23  2  3  0  0  0
  9 10  2  0  0  0  0
 10 11  1  0  0  0  0
 10 46  1  0  0  0  0
 11 12  2  3  0  0  0
 12 13  1  0  0  0  0
 12 44  1  0  0  0  0
 13 14  1  0  0  0  0
 14 15  2  3  0  0  0
 14 37  1  0  0  0  0
 15 16  1  0  0  0  0
 16 17  2  0  0  0  0
 16 31  1  0  0  0  0
 17 18  1  0  0  0  0
 18 19  2  3  0  0  0
 18 29  1  0  0  0  0
 19 20  1  0  0  0  0
 20 21  1  0  0  0  0
 20 26  2  0  0  0  0
 21 22  1  0  0  0  0
 22 23  1  0  0  0  0
 22 24  2  0  0  0  0
 24 25  1  0  0  0  0
 24 26  1  0  0  0  0
 26 27  1  0  0  0  0
 27 28  2  0  0  0  0
 29 30  1  0  0  0  0
 29 31  2  0  0  0  0
 31 32  1  0  0  0  0
 32 33  1  0  0  0  0
 33 34  1  0  0  0  0
 34 35  1  0  0  0  0
 34 36  2  0  0  0  0
 37 38  1  0  0  0  0
 37 44  2  0  0  0  0
 38 39  1  0  0  0  0
 39 40  1  0  0  0  0
 40 41  1  0  0  0  0
 40 43  2  0  0  0  0
 41 42  1  0  0  0  0
 44 45  1  0  0  0  0
 46 47  1  6  0  0  0
 46 48  1  0  0  0  0
 48 49  1  1  0  0  0
 49 50  1  0  0  0  0
 49 52  2  0  0  0  0
 50 51  1  0  0  0  0
M  END
>  <Index>
1142

>  <ID>
HT2175

>  <class>
0

>  <apol>
110.98131

>  <ast_fraglike>
0

>  <ast_fraglike_ext>
0

>  <ast_violation>
4

>  <ast_violation_ext>
6

>  <a_acc>
7

>  <a_acid>
0

>  <a_aro>
10

>  <a_base>
0

>  <a_count>
95

>  <a_don>
4

>  <a_donacc>
11

>  <a_heavy>
53

>  <a_hyd>
35

>  <a_IC>
145.99931

>  <a_ICM>
1.536835

>  <a_nB>
0

>  <a_nBr>
0

>  <a_nC>
41

>  <a_nCl>
0

>  <a_nF>
0

>  <a_nH>
42

>  <a_nI>
0

>  <a_nN>
4

>  <a_nO>
8

>  <a_nP>
0

>  <a_nS>
0

>  <balabanJ>
1.3939852

>  <BCUT_PEOE_0>
-2.5774682

>  <BCUT_PEOE_1>
-0.52003032

>  <BCUT_PEOE_2>
0.44213137

>  <BCUT_PEOE_3>
2.6958132

>  <BCUT_SLOGP_0>
-2.6130333

>  <BCUT_SLOGP_1>
-0.46291453

>  <BCUT_SLOGP_2>
0.46004319

>  <BCUT_SLOGP_3>
2.6956265

>  <BCUT_SMR_0>
-2.3368771

>  <BCUT_SMR_1>
-0.34727636

>  <BCUT_SMR_2>
0.6360094

>  <BCUT_SMR_3>
2.954164

>  <bpol>
59.454693

>  <b_1rotN>
9

>  <b_1rotR>
0.15517241

>  <b_ar>
10

>  <b_count>
100

>  <b_double>
14

>  <b_heavy>
58

>  <b_max1len>
3

>  <b_rotN>
12

>  <b_rotR>
0.20689656

>  <b_single>
76

>  <b_triple>
0

>  <chi0>
38.352276

>  <chi0v>
30.853714

>  <chi0v_C>
25.654337

>  <chi0_C>
28.402531

>  <chi1>
25.261044

>  <chi1v>
17.218895

>  <chi1v_C>
12.447248

>  <chi1_C>
15.76224

>  <chiral>
2

>  <chiral_u>
0

>  <density>
0.74573016

>  <diameter>
17

>  <FCharge>
0

>  <GCUT_PEOE_0>
-0.85470057

>  <GCUT_PEOE_1>
-0.4302384

>  <GCUT_PEOE_2>
-0.079025388

>  <GCUT_PEOE_3>
3.1794741

>  <GCUT_SLOGP_0>
-1.2648059

>  <GCUT_SLOGP_1>
-0.29253158

>  <GCUT_SLOGP_2>
0.028950939

>  <GCUT_SLOGP_3>
3.2209911

>  <GCUT_SMR_0>
-0.50810993

>  <GCUT_SMR_1>
-0.19593197

>  <GCUT_SMR_2>
0.19886571

>  <GCUT_SMR_3>
3.469296

>  <Kier1>
42.601665

>  <Kier2>
17.869204

>  <Kier3>
8.3199997

>  <KierA1>
31.519619

>  <KierA2>
13.139384

>  <KierA3>
6.0911999

>  <KierFlex>
7.8141208

>  <lip_acc>
12

>  <lip_don>
3

>  <lip_druglike>
0

>  <lip_violation>
2

>  <logP(o/w)>
6.152

>  <logS>
-6.9509702

>  <mr>
19.848146

>  <mutagenic>
0

>  <nmol>
1

>  <opr_brigid>
34

>  <opr_leadlike>
0

>  <opr_nring>
5

>  <opr_nrot>
13

>  <opr_violation>
5

>  <PC+>
0

>  <PC->
0

>  <PEOE_PC+>
4.1585841

>  <PEOE_PC->
-4.1585841

>  <PEOE_RPC+>
0.069816366

>  <PEOE_RPC->
0.085255131

>  <PEOE_VSA+0>
213.18399

>  <PEOE_VSA+1>
103.57515

>  <PEOE_VSA+2>
0

>  <PEOE_VSA+3>
17.238026

>  <PEOE_VSA+4>
10.324173

>  <PEOE_VSA+5>
58.833996

>  <PEOE_VSA+6>
0

>  <PEOE_VSA-0>
154.66418

>  <PEOE_VSA-1>
59.065979

>  <PEOE_VSA-2>
0

>  <PEOE_VSA-3>
0

>  <PEOE_VSA-4>
5.6825762

>  <PEOE_VSA-5>
59.95026

>  <PEOE_VSA-6>
15.55259

>  <PEOE_VSA_FHYD>
0.78462994

>  <PEOE_VSA_FNEG>
0.42247224

>  <PEOE_VSA_FPNEG>
0.11629968

>  <PEOE_VSA_FPOL>
0.21537009

>  <PEOE_VSA_FPOS>
0.57752776

>  <PEOE_VSA_FPPOS>
0.099070407

>  <PEOE_VSA_HYD>
547.72736

>  <PEOE_VSA_NEG>
294.91559

>  <PEOE_VSA_PNEG>
81.185425

>  <PEOE_VSA_POL>
150.3436

>  <PEOE_VSA_POS>
403.15533

>  <PEOE_VSA_PPOS>
69.158173

>  <petitjean>
0.41176471

>  <petitjeanSC>
0.69999999

>  <Q_PC+>
0

>  <Q_PC->
0

>  <Q_RPC+>
0

>  <Q_RPC->
0

>  <Q_VSA_FHYD>
1

>  <Q_VSA_FNEG>
0

>  <Q_VSA_FPNEG>
0

>  <Q_VSA_FPOL>
0

>  <Q_VSA_FPOS>
1

>  <Q_VSA_FPPOS>
0

>  <Q_VSA_HYD>
698.07092

>  <Q_VSA_NEG>
0

>  <Q_VSA_PNEG>
0

>  <Q_VSA_POL>
0

>  <Q_VSA_POS>
698.07092

>  <Q_VSA_PPOS>
0

>  <radius>
10

>  <reactive>
0

>  <rings>
6

>  <RPC+>
0

>  <RPC->
0

>  <rsynth>
0.18867925

>  <SlogP>
4.59021

>  <SlogP_VSA0>
3.0630529

>  <SlogP_VSA1>
36.49535

>  <SlogP_VSA2>
162.01959

>  <SlogP_VSA3>
25.385227

>  <SlogP_VSA4>
22.666592

>  <SlogP_VSA5>
176.84686

>  <SlogP_VSA6>
0

>  <SlogP_VSA7>
35.286369

>  <SlogP_VSA8>
144.82114

>  <SlogP_VSA9>
165.40485

>  <SMR>
20.185619

>  <SMR_VSA0>
128.44853

>  <SMR_VSA1>
33.57106

>  <SMR_VSA2>
66.430138

>  <SMR_VSA3>
36.511589

>  <SMR_VSA4>
0

>  <SMR_VSA5>
110.75999

>  <SMR_VSA6>
124.71127

>  <SMR_VSA7>
271.55646

>  <TPSA>
172.5

>  <VAdjEq>
0.24820232

>  <VAdjMa>
6.8579812

>  <VDistEq>
3.7941773

>  <VDistMa>
11.238918

>  <vdw_area>
698.07092

>  <vdw_vol>
963.89685

>  <vsa_acc>
52.065914

>  <vsa_acid>
0

>  <vsa_base>
0

>  <vsa_don>
11.365152

>  <vsa_hyd>
487.98514

>  <vsa_other>
79.74437

>  <vsa_pol>
90.564911

>  <Weight>
718.80701

>  <weinerPath>
9832

>  <weinerPol>
102

>  <zagreb>
290

$$$$