O(C(=O)C(C)=C)C
  MOE2013           2D

  7  6  0  0  0  0  0  0  0  0999 V2000
    0.0000    0.0000    0.0000 O   0  0  0  0  0  0  0  0  0  0  0  0
   -0.7580   -1.2940    0.0000 C   0  0  0  0  0  0  0  0  0  0  0  0
   -0.0160   -2.5980    0.0000 O   0  0  0  0  0  0  0  0  0  0  0  0
   -2.2580   -1.2850    0.0000 C   0  0  0  0  0  0  0  0  0  0  0  0
   -3.0160   -2.5790    0.0000 C   0  0  0  0  0  0  0  0  0  0  0  0
   -3.0000    0.0190    0.0000 C   0  0  0  0  0  0  0  0  0  0  0  0
    1.5000   -0.0090    0.0000 C   0  0  0  0  0  0  0  0  0  0  0  0
  1  2  1  0  0  0  0
  1  7  1  0  0  0  0
  2  3  2  0  0  0  0
  2  4  1  0  0  0  0
  4  5  1  0  0  0  0
  4  6  2  0  0  0  0
M  END
>  <Index>
1198

>  <ID>
HT2407

>  <class>
0

>  <apol>
15.738344

>  <ast_fraglike>
1

>  <ast_fraglike_ext>
1

>  <ast_violation>
0

>  <ast_violation_ext>
0

>  <a_acc>
1

>  <a_acid>
0

>  <a_aro>
0

>  <a_base>
0

>  <a_count>
15

>  <a_don>
0

>  <a_donacc>
1

>  <a_heavy>
7

>  <a_hyd>
4

>  <a_IC>
20.993719

>  <a_ICM>
1.3995812

>  <a_nB>
0

>  <a_nBr>
0

>  <a_nC>
5

>  <a_nCl>
0

>  <a_nF>
0

>  <a_nH>
8

>  <a_nI>
0

>  <a_nN>
0

>  <a_nO>
2

>  <a_nP>
0

>  <a_nS>
0

>  <balabanJ>
3.2558243

>  <BCUT_PEOE_0>
-2.2604439

>  <BCUT_PEOE_1>
-0.12222415

>  <BCUT_PEOE_2>
0.053287901

>  <BCUT_PEOE_3>
2.2780149

>  <BCUT_SLOGP_0>
-2.2826619

>  <BCUT_SLOGP_1>
0.015212627

>  <BCUT_SLOGP_2>
0.123

>  <BCUT_SLOGP_3>
2.3293386

>  <BCUT_SMR_0>
-2.0091875

>  <BCUT_SMR_1>
0.083170615

>  <BCUT_SMR_2>
0.13783309

>  <BCUT_SMR_3>
2.5367458

>  <bpol>
11.619656

>  <b_1rotN>
1

>  <b_1rotR>
0.16666667

>  <b_ar>
0

>  <b_count>
14

>  <b_double>
2

>  <b_heavy>
6

>  <b_max1len>
2

>  <b_rotN>
2

>  <b_rotR>
0.33333334

>  <b_single>
12

>  <b_triple>
0

>  <chi0>
5.8618073

>  <chi0v>
4.5236034

>  <chi0v_C>
3.7071068

>  <chi0_C>
4.1547008

>  <chi1>
3.1807392

>  <chi1v>
1.92005

>  <chi1v_C>
1.1035534

>  <chi1_C>
1.4880339

>  <chiral>
0

>  <chiral_u>
0

>  <density>
0.70514625

>  <diameter>
4

>  <FCharge>
0

>  <GCUT_PEOE_0>
-0.74671638

>  <GCUT_PEOE_1>
-0.31783393

>  <GCUT_PEOE_2>
-0.1067121

>  <GCUT_PEOE_3>
1.8374984

>  <GCUT_SLOGP_0>
-0.84396106

>  <GCUT_SLOGP_1>
-0.19510093

>  <GCUT_SLOGP_2>
-0.037

>  <GCUT_SLOGP_3>
1.8714031

>  <GCUT_SMR_0>
-0.48580247

>  <GCUT_SMR_1>
-0.082031913

>  <GCUT_SMR_2>
-0.044477135

>  <GCUT_SMR_3>
2.0810475

>  <Kier1>
7

>  <Kier2>
3.0612245

>  <Kier3>
2.6666667

>  <KierA1>
5.2939663

>  <KierA2>
2.188612

>  <KierA3>
1.7881885

>  <KierFlex>
1.6552054

>  <lip_acc>
2

>  <lip_don>
0

>  <lip_druglike>
1

>  <lip_violation>
0

>  <logP(o/w)>
0.76499999

>  <logS>
-0.51188999

>  <mr>
2.7693527

>  <mutagenic>
0

>  <nmol>
1

>  <opr_brigid>
1

>  <opr_leadlike>
1

>  <opr_nring>
0

>  <opr_nrot>
1

>  <opr_violation>
0

>  <PC+>
0

>  <PC->
0

>  <PEOE_PC+>
0.69932127

>  <PEOE_PC->
-0.69932127

>  <PEOE_RPC+>
0.41283283

>  <PEOE_RPC->
0.45045778

>  <PEOE_VSA+0>
40.002354

>  <PEOE_VSA+1>
21.326929

>  <PEOE_VSA+2>
0

>  <PEOE_VSA+3>
0

>  <PEOE_VSA+4>
0

>  <PEOE_VSA+5>
14.708499

>  <PEOE_VSA+6>
0

>  <PEOE_VSA-0>
18.747677

>  <PEOE_VSA-1>
22.301268

>  <PEOE_VSA-2>
0

>  <PEOE_VSA-3>
0

>  <PEOE_VSA-4>
0

>  <PEOE_VSA-5>
13.566921

>  <PEOE_VSA-6>
2.503756

>  <PEOE_VSA_FHYD>
0.76885116

>  <PEOE_VSA_FNEG>
0.42896315

>  <PEOE_VSA_FPNEG>
0.12068932

>  <PEOE_VSA_FPOL>
0.23114881

>  <PEOE_VSA_FPOS>
0.57103682

>  <PEOE_VSA_FPPOS>
0.11045949

>  <PEOE_VSA_HYD>
102.37823

>  <PEOE_VSA_NEG>
57.119621

>  <PEOE_VSA_PNEG>
16.070677

>  <PEOE_VSA_POL>
30.779177

>  <PEOE_VSA_POS>
76.037781

>  <PEOE_VSA_PPOS>
14.708499

>  <petitjean>
0.5

>  <petitjeanSC>
1

>  <Q_PC+>
0

>  <Q_PC->
0

>  <Q_RPC+>
0

>  <Q_RPC->
0

>  <Q_VSA_FHYD>
1

>  <Q_VSA_FNEG>
0

>  <Q_VSA_FPNEG>
0

>  <Q_VSA_FPOL>
0

>  <Q_VSA_FPOS>
1

>  <Q_VSA_FPPOS>
0

>  <Q_VSA_HYD>
133.15741

>  <Q_VSA_NEG>
0

>  <Q_VSA_PNEG>
0

>  <Q_VSA_POL>
0

>  <Q_VSA_POS>
133.15741

>  <Q_VSA_PPOS>
0

>  <radius>
2

>  <reactive>
0

>  <rings>
0

>  <RPC+>
0

>  <RPC->
0

>  <rsynth>
1

>  <SlogP>
0.73549998

>  <SlogP_VSA0>
0

>  <SlogP_VSA1>
7.7454643

>  <SlogP_VSA2>
34.862103

>  <SlogP_VSA3>
0

>  <SlogP_VSA4>
0

>  <SlogP_VSA5>
38.569443

>  <SlogP_VSA6>
0

>  <SlogP_VSA7>
0

>  <SlogP_VSA8>
0

>  <SlogP_VSA9>
65.426811

>  <SMR>
2.6830001

>  <SMR_VSA0>
34.862103

>  <SMR_VSA1>
0

>  <SMR_VSA2>
0

>  <SMR_VSA3>
3.185575

>  <SMR_VSA4>
0

>  <SMR_VSA5>
0

>  <SMR_VSA6>
7.7454643

>  <SMR_VSA7>
100.81068

>  <TPSA>
26.299999

>  <VAdjEq>
0.80309099

>  <VAdjMa>
3.5849626

>  <VDistEq>
1.8841729

>  <VDistMa>
5.2511854

>  <vdw_area>
133.15741

>  <vdw_vol>
141.98047

>  <vsa_acc>
13.566921

>  <vsa_acid>
0

>  <vsa_base>
0

>  <vsa_don>
0

>  <vsa_hyd>
96.683868

>  <vsa_other>
17.212255

>  <vsa_pol>
13.566921

>  <Weight>
100.117

>  <weinerPath>
46

>  <weinerPol>
6

>  <zagreb>
26

$$$$