O=C(c1ccccc1)c1ccccc1
  MOE2013           2D

 14 15  0  0  0  0  0  0  0  0999 V2000
    0.0000    0.0000    0.0000 O   0  0  0  0  0  0  0  0  0  0  0  0
    0.0000   -1.5000    0.0000 C   0  0  0  0  0  0  0  0  0  0  0  0
   -1.2990   -2.2500    0.0000 C   0  0  0  0  0  0  0  0  0  0  0  0
   -1.2990   -3.7500    0.0000 C   0  0  0  0  0  0  0  0  0  0  0  0
   -2.5980   -4.5000    0.0000 C   0  0  0  0  0  0  0  0  0  0  0  0
   -3.8970   -3.7500    0.0000 C   0  0  0  0  0  0  0  0  0  0  0  0
   -3.8970   -2.2500    0.0000 C   0  0  0  0  0  0  0  0  0  0  0  0
   -2.5980   -1.5000    0.0000 C   0  0  0  0  0  0  0  0  0  0  0  0
    1.2990   -2.2500    0.0000 C   0  0  0  0  0  0  0  0  0  0  0  0
    1.2990   -3.7500    0.0000 C   0  0  0  0  0  0  0  0  0  0  0  0
    2.5980   -4.5000    0.0000 C   0  0  0  0  0  0  0  0  0  0  0  0
    3.8970   -3.7500    0.0000 C   0  0  0  0  0  0  0  0  0  0  0  0
    3.8970   -2.2500    0.0000 C   0  0  0  0  0  0  0  0  0  0  0  0
    2.5980   -1.5000    0.0000 C   0  0  0  0  0  0  0  0  0  0  0  0
  1  2  2  0  0  0  0
  2  3  1  0  0  0  0
  2  9  1  0  0  0  0
  3  4  1  0  0  0  0
  3  8  2  0  0  0  0
  4  5  2  0  0  0  0
  5  6  1  0  0  0  0
  6  7  2  0  0  0  0
  7  8  1  0  0  0  0
  9 10  1  0  0  0  0
  9 14  2  0  0  0  0
 10 11  2  0  0  0  0
 11 12  1  0  0  0  0
 12 13  2  0  0  0  0
 13 14  1  0  0  0  0
M  END
>  <Index>
124

>  <ID>
HT0251

>  <class>
0

>  <apol>
30.34993

>  <ast_fraglike>
1

>  <ast_fraglike_ext>
1

>  <ast_violation>
0

>  <ast_violation_ext>
0

>  <a_acc>
1

>  <a_acid>
0

>  <a_aro>
12

>  <a_base>
0

>  <a_count>
24

>  <a_don>
0

>  <a_donacc>
1

>  <a_heavy>
14

>  <a_hyd>
12

>  <a_IC>
28.714102

>  <a_ICM>
1.1964209

>  <a_nB>
0

>  <a_nBr>
0

>  <a_nC>
13

>  <a_nCl>
0

>  <a_nF>
0

>  <a_nH>
10

>  <a_nI>
0

>  <a_nN>
0

>  <a_nO>
1

>  <a_nP>
0

>  <a_nS>
0

>  <balabanJ>
1.8410892

>  <BCUT_PEOE_0>
-2.2169514

>  <BCUT_PEOE_1>
-0.64789987

>  <BCUT_PEOE_2>
0.69860518

>  <BCUT_PEOE_3>
2.2239871

>  <BCUT_SLOGP_0>
-2.1380906

>  <BCUT_SLOGP_1>
-0.53807992

>  <BCUT_SLOGP_2>
0.80591482

>  <BCUT_SLOGP_3>
2.3222389

>  <BCUT_SMR_0>
-1.8904934

>  <BCUT_SMR_1>
-0.49986199

>  <BCUT_SMR_2>
0.85431087

>  <BCUT_SMR_3>
2.5526593

>  <bpol>
11.89007

>  <b_1rotN>
2

>  <b_1rotR>
0.13333334

>  <b_ar>
12

>  <b_count>
25

>  <b_double>
1

>  <b_heavy>
15

>  <b_max1len>
1

>  <b_rotN>
2

>  <b_rotR>
0.13333334

>  <b_single>
12

>  <b_triple>
0

>  <chi0>
9.8031187

>  <chi0v>
7.6817508

>  <chi0v_C>
7.2735028

>  <chi0_C>
8.8031187

>  <chi1>
6.8770099

>  <chi1v>
4.5254912

>  <chi1v_C>
4.3213673

>  <chi1_C>
6.2996597

>  <chiral>
0

>  <chiral_u>
0

>  <density>
0.67626929

>  <diameter>
8

>  <FCharge>
0

>  <GCUT_PEOE_0>
-0.75229549

>  <GCUT_PEOE_1>
-0.38805467

>  <GCUT_PEOE_2>
0.079978652

>  <GCUT_PEOE_3>
2.2055237

>  <GCUT_SLOGP_0>
-0.77657133

>  <GCUT_SLOGP_1>
-0.26386139

>  <GCUT_SLOGP_2>
0.16445385

>  <GCUT_SLOGP_3>
2.3245893

>  <GCUT_SMR_0>
-0.40665177

>  <GCUT_SMR_1>
-0.21605732

>  <GCUT_SMR_2>
0.19305076

>  <GCUT_SMR_3>
2.5149007

>  <Kier1>
10.515555

>  <Kier2>
5.1855955

>  <Kier3>
2.75

>  <KierA1>
6.6958628

>  <KierA2>
3.1728818

>  <KierA3>
1.6315471

>  <KierFlex>
1.5175129

>  <lip_acc>
1

>  <lip_don>
0

>  <lip_druglike>
1

>  <lip_violation>
0

>  <logP(o/w)>
3.421

>  <logS>
-3.45769

>  <mr>
5.7991276

>  <mutagenic>
0

>  <nmol>
1

>  <opr_brigid>
12

>  <opr_leadlike>
1

>  <opr_nring>
2

>  <opr_nrot>
2

>  <opr_violation>
0

>  <PC+>
0

>  <PC->
0

>  <PEOE_PC+>
0.85811549

>  <PEOE_PC->
-0.85811549

>  <PEOE_RPC+>
0.22507195

>  <PEOE_RPC->
0.33405071

>  <PEOE_VSA+0>
4.4170794

>  <PEOE_VSA+1>
42.653858

>  <PEOE_VSA+2>
0

>  <PEOE_VSA+3>
8.458519

>  <PEOE_VSA+4>
0

>  <PEOE_VSA+5>
0

>  <PEOE_VSA+6>
0

>  <PEOE_VSA-0>
0

>  <PEOE_VSA-1>
122.54904

>  <PEOE_VSA-2>
0

>  <PEOE_VSA-3>
0

>  <PEOE_VSA-4>
0

>  <PEOE_VSA-5>
13.566921

>  <PEOE_VSA-6>
0

>  <PEOE_VSA_FHYD>
0.92920822

>  <PEOE_VSA_FNEG>
0.71024895

>  <PEOE_VSA_FPNEG>
0.070791781

>  <PEOE_VSA_FPOL>
0.070791781

>  <PEOE_VSA_FPOS>
0.28975102

>  <PEOE_VSA_FPPOS>
0

>  <PEOE_VSA_HYD>
178.07849

>  <PEOE_VSA_NEG>
136.11597

>  <PEOE_VSA_PNEG>
13.566921

>  <PEOE_VSA_POL>
13.566921

>  <PEOE_VSA_POS>
55.529457

>  <PEOE_VSA_PPOS>
0

>  <petitjean>
0.5

>  <petitjeanSC>
1

>  <Q_PC+>
0

>  <Q_PC->
0

>  <Q_RPC+>
0

>  <Q_RPC->
0

>  <Q_VSA_FHYD>
1

>  <Q_VSA_FNEG>
0

>  <Q_VSA_FPNEG>
0

>  <Q_VSA_FPOL>
0

>  <Q_VSA_FPOS>
1

>  <Q_VSA_FPPOS>
0

>  <Q_VSA_HYD>
191.64542

>  <Q_VSA_NEG>
0

>  <Q_VSA_PNEG>
0

>  <Q_VSA_POL>
0

>  <Q_VSA_POS>
191.64542

>  <Q_VSA_PPOS>
0

>  <radius>
4

>  <reactive>
1

>  <rings>
2

>  <RPC+>
0

>  <RPC->
0

>  <rsynth>
1

>  <SlogP>
2.9175999

>  <SlogP_VSA0>
0

>  <SlogP_VSA1>
5.6876111

>  <SlogP_VSA2>
0

>  <SlogP_VSA3>
0

>  <SlogP_VSA4>
30.233366

>  <SlogP_VSA5>
0

>  <SlogP_VSA6>
0

>  <SlogP_VSA7>
176.43184

>  <SlogP_VSA8>
0

>  <SlogP_VSA9>
0

>  <SMR>
5.63165

>  <SMR_VSA0>
23.862217

>  <SMR_VSA1>
0

>  <SMR_VSA2>
0

>  <SMR_VSA3>
6.37115

>  <SMR_VSA4>
0

>  <SMR_VSA5>
176.43184

>  <SMR_VSA6>
5.6876111

>  <SMR_VSA7>
0

>  <TPSA>
17.07

>  <VAdjEq>
0.61744827

>  <VAdjMa>
4.9068904

>  <VDistEq>
2.7419138

>  <VDistMa>
7.3025255

>  <vdw_area>
191.64542

>  <vdw_vol>
269.45181

>  <vsa_acc>
13.566921

>  <vsa_acid>
0

>  <vsa_base>
0

>  <vsa_don>
0

>  <vsa_hyd>
162.50203

>  <vsa_other>
8.458519

>  <vsa_pol>
13.566921

>  <Weight>
182.222

>  <weinerPath>
307

>  <weinerPol>
18

>  <zagreb>
68

$$$$