O=C1NCC(N)C(=O)NC(CO)C(=O)NC(CNC(=O)CC(N)CCCN)C(=O)NC(=C/NC(=O)N)C(=O)NC1C1NC(=NCC1)N
  MOE2013           2D

 47 48  0  0  1  0  0  0  0  0999 V2000
    0.0000    0.0000    0.0000 O   0  0  0  0  0  0  0  0  0  0  0  0
   -1.4160   -0.4950    0.0000 C   0  0  0  0  0  0  0  0  0  0  0  0
   -2.5440    0.4910    0.0000 N   0  0  0  0  0  0  0  0  0  0  0  0
   -2.1830    1.9780    0.0000 C   0  0  0  0  0  0  0  0  0  0  0  0
   -0.7060    2.3180    0.0000 C   0  0  3  0  0  0  0  0  0  0  0  0
    0.3140    1.2180    0.0000 N   0  0  0  0  0  0  0  0  0  0  0  0
   -0.2670    3.7330    0.0000 C   0  0  0  0  0  0  0  0  0  0  0  0
   -1.3320    4.7890    0.0000 O   0  0  0  0  0  0  0  0  0  0  0  0
    1.1160    4.1750    0.0000 N   0  0  0  0  0  0  0  0  0  0  0  0
    2.3390    3.5590    0.0000 C   0  0  3  0  0  0  0  0  0  0  0  0
    3.3290    4.6860    0.0000 C   0  0  0  0  0  0  0  0  0  0  0  0
    2.8480    6.1070    0.0000 O   0  0  0  0  0  0  0  0  0  0  0  0
    3.0930    2.4470    0.0000 C   0  0  0  0  0  0  0  0  0  0  0  0
    4.5600    2.7600    0.0000 O   0  0  0  0  0  0  0  0  0  0  0  0
    2.8380    0.9880    0.0000 N   0  0  0  0  0  0  0  0  0  0  0  0
    3.9460    0.0060    0.0000 C   0  0  3  0  0  0  0  0  0  0  0  0
    5.2900    0.6710    0.0000 C   0  0  0  0  0  0  0  0  0  0  0  0
    6.5390   -0.1600    0.0000 N   0  0  0  0  0  0  0  0  0  0  0  0
    7.8830    0.5060    0.0000 C   0  0  0  0  0  0  0  0  0  0  0  0
    7.9790    2.0030    0.0000 O   0  0  0  0  0  0  0  0  0  0  0  0
    9.1320   -0.3250    0.0000 C   0  0  0  0  0  0  0  0  0  0  0  0
   10.4760    0.3410    0.0000 C   0  0  3  0  0  0  0  0  0  0  0  0
   10.5710    1.8380    0.0000 N   0  0  0  0  0  0  0  0  0  0  0  0
   11.7250   -0.4910    0.0000 C   0  0  0  0  0  0  0  0  0  0  0  0
   13.0690    0.1750    0.0000 C   0  0  0  0  0  0  0  0  0  0  0  0
   14.3170   -0.6560    0.0000 C   0  0  0  0  0  0  0  0  0  0  0  0
   15.6620    0.0100    0.0000 N   0  0  0  0  0  0  0  0  0  0  0  0
    4.0460   -1.3340    0.0000 C   0  0  0  0  0  0  0  0  0  0  0  0
    5.5220   -1.6010    0.0000 O   0  0  0  0  0  0  0  0  0  0  0  0
    3.4720   -2.5780    0.0000 N   0  0  0  0  0  0  0  0  0  0  0  0
    2.1150   -3.0920    0.0000 C   0  0  0  0  0  0  0  0  0  0  0  0
    1.9370   -4.5820    0.0000 C   0  0  0  0  0  0  0  0  0  0  0  0
    3.1380   -5.4800    0.0000 N   0  0  0  0  0  0  0  0  0  0  0  0
    2.9610   -6.9700    0.0000 C   0  0  0  0  0  0  0  0  0  0  0  0
    1.5820   -7.5610    0.0000 O   0  0  0  0  0  0  0  0  0  0  0  0
    4.1620   -7.8680    0.0000 N   0  0  0  0  0  0  0  0  0  0  0  0
    0.8910   -2.2560    0.0000 C   0  0  0  0  0  0  0  0  0  0  0  0
    1.0080   -0.7610    0.0000 O   0  0  0  0  0  0  0  0  0  0  0  0
   -0.4770   -2.9070    0.0000 N   0  0  0  0  0  0  0  0  0  0  0  0
   -1.6850   -1.9680    0.0000 C   0  0  3  0  0  0  0  0  0  0  0  0
   -3.0870   -2.5030    0.0000 C   0  0  3  0  0  0  0  0  0  0  0  0
   -3.3240   -3.9840    0.0000 N   0  0  0  0  0  0  0  0  0  0  0  0
   -4.7250   -4.5200    0.0000 C   0  0  0  0  0  0  0  0  0  0  0  0
   -5.8890   -3.5730    0.0000 N   0  0  0  0  0  0  0  0  0  0  0  0
   -5.6520   -2.0920    0.0000 C   0  0  0  0  0  0  0  0  0  0  0  0
   -4.2510   -1.5570    0.0000 C   0  0  0  0  0  0  0  0  0  0  0  0
   -4.9620   -6.0010    0.0000 N   0  0  0  0  0  0  0  0  0  0  0  0
  1  2  2  0  0  0  0
  2  3  1  0  0  0  0
  2 40  1  0  0  0  0
  3  4  1  0  0  0  0
  4  5  1  0  0  0  0
  5  6  1  0  0  0  0
  5  7  1  0  0  0  0
  7  8  2  0  0  0  0
  7  9  1  0  0  0  0
  9 10  1  0  0  0  0
 10 11  1  0  0  0  0
 10 13  1  0  0  0  0
 11 12  1  0  0  0  0
 13 14  2  0  0  0  0
 13 15  1  0  0  0  0
 15 16  1  0  0  0  0
 16 17  1  0  0  0  0
 16 28  1  0  0  0  0
 17 18  1  0  0  0  0
 18 19  1  0  0  0  0
 19 20  2  0  0  0  0
 19 21  1  0  0  0  0
 21 22  1  0  0  0  0
 22 23  1  0  0  0  0
 22 24  1  0  0  0  0
 24 25  1  0  0  0  0
 25 26  1  0  0  0  0
 26 27  1  0  0  0  0
 28 29  2  0  0  0  0
 28 30  1  0  0  0  0
 30 31  1  0  0  0  0
 31 32  2  3  0  0  0
 31 37  1  0  0  0  0
 32 33  1  0  0  0  0
 33 34  1  0  0  0  0
 34 35  2  0  0  0  0
 34 36  1  0  0  0  0
 37 38  2  0  0  0  0
 37 39  1  0  0  0  0
 39 40  1  0  0  0  0
 40 41  1  0  0  0  0
 41 42  1  0  0  0  0
 41 46  1  0  0  0  0
 42 43  1  0  0  0  0
 43 44  2  0  0  0  0
 43 47  1  0  0  0  0
 44 45  1  0  0  0  0
 45 46  1  0  0  0  0
M  END
>  <Index>
185

>  <ID>
HT0364

>  <class>
0

>  <apol>
95.154892

>  <ast_fraglike>
0

>  <ast_fraglike_ext>
0

>  <ast_violation>
3

>  <ast_violation_ext>
5

>  <a_acc>
12

>  <a_acid>
0

>  <a_aro>
0

>  <a_base>
0

>  <a_count>
91

>  <a_don>
14

>  <a_donacc>
26

>  <a_heavy>
47

>  <a_hyd>
17

>  <a_IC>
158.59494

>  <a_ICM>
1.7428017

>  <a_nB>
0

>  <a_nBr>
0

>  <a_nC>
25

>  <a_nCl>
0

>  <a_nF>
0

>  <a_nH>
44

>  <a_nI>
0

>  <a_nN>
14

>  <a_nO>
8

>  <a_nP>
0

>  <a_nS>
0

>  <balabanJ>
2.3770514

>  <BCUT_PEOE_0>
-2.6786544

>  <BCUT_PEOE_1>
-0.55528879

>  <BCUT_PEOE_2>
0.5826447

>  <BCUT_PEOE_3>
2.687423

>  <BCUT_SLOGP_0>
-2.9365945

>  <BCUT_SLOGP_1>
-0.57569838

>  <BCUT_SLOGP_2>
0.575804

>  <BCUT_SLOGP_3>
2.63165

>  <BCUT_SMR_0>
-2.4184372

>  <BCUT_SMR_1>
-0.38932109

>  <BCUT_SMR_2>
0.68970609

>  <BCUT_SMR_3>
2.9360156

>  <bpol>
58.107109

>  <b_1rotN>
10

>  <b_1rotR>
0.20833333

>  <b_ar>
0

>  <b_count>
92

>  <b_double>
9

>  <b_heavy>
48

>  <b_max1len>
7

>  <b_rotN>
12

>  <b_rotR>
0.25

>  <b_single>
83

>  <b_triple>
0

>  <chi0>
35.095284

>  <chi0v>
25.544329

>  <chi0v_C>
14.905413

>  <chi0_C>
15.731322

>  <chi1>
22.246529

>  <chi1v>
14.667431

>  <chi1v_C>
6.329752

>  <chi1_C>
6.7659864

>  <chiral>
6

>  <chiral_u>
6

>  <density>
0.81470257

>  <diameter>
19

>  <FCharge>
0

>  <GCUT_PEOE_0>
-0.84297585

>  <GCUT_PEOE_1>
-0.44716302

>  <GCUT_PEOE_2>
0.10233145

>  <GCUT_PEOE_3>
3.0062425

>  <GCUT_SLOGP_0>
-1.3712081

>  <GCUT_SLOGP_1>
-0.43803248

>  <GCUT_SLOGP_2>
0.11049074

>  <GCUT_SLOGP_3>
2.8375323

>  <GCUT_SMR_0>
-0.52481997

>  <GCUT_SMR_1>
-0.2475712

>  <GCUT_SMR_2>
0.17896602

>  <GCUT_SMR_3>
3.2433357

>  <Kier1>
43.164932

>  <Kier2>
22.741699

>  <Kier3>
15.832178

>  <KierA1>
32.088997

>  <KierA2>
16.790289

>  <KierA3>
11.63203

>  <KierFlex>
11.46348

>  <lip_acc>
22

>  <lip_don>
19

>  <lip_druglike>
0

>  <lip_violation>
3

>  <logP(o/w)>
-8.7770004

>  <logS>
-0.95485997

>  <mr>
16.188013

>  <mutagenic>
0

>  <nmol>
1

>  <opr_brigid>
23

>  <opr_leadlike>
0

>  <opr_nring>
1

>  <opr_nrot>
22

>  <opr_violation>
5

>  <PC+>
0

>  <PC->
0

>  <PEOE_PC+>
7.0135021

>  <PEOE_PC->
-7.0135021

>  <PEOE_RPC+>
0.045281142

>  <PEOE_RPC->
0.05596099

>  <PEOE_VSA+0>
115.08941

>  <PEOE_VSA+1>
77.81266

>  <PEOE_VSA+2>
70.997475

>  <PEOE_VSA+3>
119.10973

>  <PEOE_VSA+4>
75.071831

>  <PEOE_VSA+5>
12.949531

>  <PEOE_VSA+6>
17.440542

>  <PEOE_VSA-0>
39.296265

>  <PEOE_VSA-1>
0

>  <PEOE_VSA-2>
0

>  <PEOE_VSA-3>
0

>  <PEOE_VSA-4>
13.566921

>  <PEOE_VSA-5>
87.084099

>  <PEOE_VSA-6>
42.118267

>  <PEOE_VSA_FHYD>
0.62980223

>  <PEOE_VSA_FNEG>
0.2715221

>  <PEOE_VSA_FPNEG>
0.21291792

>  <PEOE_VSA_FPOL>
0.37019774

>  <PEOE_VSA_FPOS>
0.7284779

>  <PEOE_VSA_FPPOS>
0.15727983

>  <PEOE_VSA_HYD>
422.30554

>  <PEOE_VSA_NEG>
182.06555

>  <PEOE_VSA_PNEG>
142.76929

>  <PEOE_VSA_POL>
248.23119

>  <PEOE_VSA_POS>
488.47116

>  <PEOE_VSA_PPOS>
105.4619

>  <petitjean>
0.47368422

>  <petitjeanSC>
0.89999998

>  <Q_PC+>
0

>  <Q_PC->
0

>  <Q_RPC+>
0

>  <Q_RPC->
0

>  <Q_VSA_FHYD>
1

>  <Q_VSA_FNEG>
0

>  <Q_VSA_FPNEG>
0

>  <Q_VSA_FPOL>
0

>  <Q_VSA_FPOS>
1

>  <Q_VSA_FPPOS>
0

>  <Q_VSA_HYD>
670.53674

>  <Q_VSA_NEG>
0

>  <Q_VSA_PNEG>
0

>  <Q_VSA_POL>
0

>  <Q_VSA_POS>
670.53674

>  <Q_VSA_PPOS>
0

>  <radius>
10

>  <reactive>
0

>  <rings>
2

>  <RPC+>
0

>  <RPC->
0

>  <rsynth>
1

>  <SlogP>
-8.2348003

>  <SlogP_VSA0>
333.95718

>  <SlogP_VSA1>
38.28175

>  <SlogP_VSA2>
167.06511

>  <SlogP_VSA3>
94.68457

>  <SlogP_VSA4>
0

>  <SlogP_VSA5>
19.542276

>  <SlogP_VSA6>
0

>  <SlogP_VSA7>
17.214357

>  <SlogP_VSA8>
75.473625

>  <SlogP_VSA9>
23.862217

>  <SMR>
16.472839

>  <SMR_VSA0>
167.03551

>  <SMR_VSA1>
42.170757

>  <SMR_VSA2>
144.086

>  <SMR_VSA3>
26.64856

>  <SMR_VSA4>
164.48593

>  <SMR_VSA5>
92.687981

>  <SMR_VSA6>
132.96632

>  <SMR_VSA7>
0

>  <TPSA>
378.42001

>  <VAdjEq>
0.2579309

>  <VAdjMa>
6.5849624

>  <VDistEq>
3.9171677

>  <VDistMa>
10.87676

>  <vdw_area>
670.53674

>  <vdw_vol>
820.81122

>  <vsa_acc>
100.65102

>  <vsa_acid>
0

>  <vsa_base>
0

>  <vsa_don>
80.945587

>  <vsa_hyd>
233.68684

>  <vsa_other>
110.81931

>  <vsa_pol>
248.39101

>  <Weight>
668.71698

>  <weinerPath>
8138

>  <weinerPol>
72

>  <zagreb>
224

$$$$