Nc1ccc(cc1)C(=C1/C=C(C)C(=N)C=C/1)c1ccc(N)cc1
  MOE2013           2D

 23 25  0  0  0  0  0  0  0  0999 V2000
    0.0000    0.0000    0.0000 N   0  0  0  0  0  0  0  0  0  0  0  0
    0.0000   -1.5000    0.0000 C   0  0  0  0  0  0  0  0  0  0  0  0
    1.2990   -2.2500    0.0000 C   0  0  0  0  0  0  0  0  0  0  0  0
    1.2990   -3.7500    0.0000 C   0  0  0  0  0  0  0  0  0  0  0  0
    0.0000   -4.5000    0.0000 C   0  0  0  0  0  0  0  0  0  0  0  0
   -1.2990   -3.7500    0.0000 C   0  0  0  0  0  0  0  0  0  0  0  0
   -1.2990   -2.2500    0.0000 C   0  0  0  0  0  0  0  0  0  0  0  0
    0.0000   -6.0000    0.0000 C   0  0  0  0  0  0  0  0  0  0  0  0
    1.2990   -6.7500    0.0000 C   0  0  0  0  0  0  0  0  0  0  0  0
    2.5980   -6.0000    0.0000 C   0  0  0  0  0  0  0  0  0  0  0  0
    3.8970   -6.7500    0.0000 C   0  0  0  0  0  0  0  0  0  0  0  0
    5.1960   -6.0000    0.0000 C   0  0  0  0  0  0  0  0  0  0  0  0
    3.8970   -8.2500    0.0000 C   0  0  0  0  0  0  0  0  0  0  0  0
    5.1960   -9.0000    0.0000 N   0  0  0  0  0  0  0  0  0  0  0  0
    2.5980   -9.0000    0.0000 C   0  0  0  0  0  0  0  0  0  0  0  0
    1.2990   -8.2500    0.0000 C   0  0  0  0  0  0  0  0  0  0  0  0
   -1.2990   -6.7500    0.0000 C   0  0  0  0  0  0  0  0  0  0  0  0
   -2.5980   -6.0000    0.0000 C   0  0  0  0  0  0  0  0  0  0  0  0
   -3.8970   -6.7500    0.0000 C   0  0  0  0  0  0  0  0  0  0  0  0
   -3.8970   -8.2500    0.0000 C   0  0  0  0  0  0  0  0  0  0  0  0
   -5.1960   -9.0000    0.0000 N   0  0  0  0  0  0  0  0  0  0  0  0
   -2.5980   -9.0000    0.0000 C   0  0  0  0  0  0  0  0  0  0  0  0
   -1.2990   -8.2500    0.0000 C   0  0  0  0  0  0  0  0  0  0  0  0
  1  2  1  0  0  0  0
  2  3  1  0  0  0  0
  2  7  2  0  0  0  0
  3  4  2  0  0  0  0
  4  5  1  0  0  0  0
  5  6  2  0  0  0  0
  5  8  1  0  0  0  0
  6  7  1  0  0  0  0
  8  9  2  3  0  0  0
  8 17  1  0  0  0  0
  9 10  1  0  0  0  0
  9 16  1  0  0  0  0
 10 11  2  0  0  0  0
 11 12  1  0  0  0  0
 11 13  1  0  0  0  0
 13 14  2  0  0  0  0
 13 15  1  0  0  0  0
 15 16  2  0  0  0  0
 17 18  1  0  0  0  0
 17 23  2  0  0  0  0
 18 19  2  0  0  0  0
 19 20  1  0  0  0  0
 20 21  1  0  0  0  0
 20 22  2  0  0  0  0
 22 23  1  0  0  0  0
M  END
>  <Index>
1319

>  <ID>
HT3362

>  <class>
0

>  <apol>
51.169067

>  <ast_fraglike>
0

>  <ast_fraglike_ext>
0

>  <ast_violation>
2

>  <ast_violation_ext>
2

>  <a_acc>
1

>  <a_acid>
0

>  <a_aro>
12

>  <a_base>
0

>  <a_count>
42

>  <a_don>
3

>  <a_donacc>
4

>  <a_heavy>
23

>  <a_hyd>
19

>  <a_IC>
54.573261

>  <a_ICM>
1.2993634

>  <a_nB>
0

>  <a_nBr>
0

>  <a_nC>
20

>  <a_nCl>
0

>  <a_nF>
0

>  <a_nH>
19

>  <a_nI>
0

>  <a_nN>
3

>  <a_nO>
0

>  <a_nP>
0

>  <a_nS>
0

>  <balabanJ>
1.7106893

>  <BCUT_PEOE_0>
-2.3627853

>  <BCUT_PEOE_1>
-0.64994645

>  <BCUT_PEOE_2>
0.70144981

>  <BCUT_PEOE_3>
2.324357

>  <BCUT_SLOGP_0>
-2.3341563

>  <BCUT_SLOGP_1>
-0.54174566

>  <BCUT_SLOGP_2>
0.80634034

>  <BCUT_SLOGP_3>
2.4599035

>  <BCUT_SMR_0>
-2.0333984

>  <BCUT_SMR_1>
-0.49986199

>  <BCUT_SMR_2>
0.8695398

>  <BCUT_SMR_3>
2.6676912

>  <bpol>
19.450933

>  <b_1rotN>
2

>  <b_1rotR>
0.079999998

>  <b_ar>
12

>  <b_count>
44

>  <b_double>
4

>  <b_heavy>
25

>  <b_max1len>
2

>  <b_rotN>
2

>  <b_rotR>
0.079999998

>  <b_single>
28

>  <b_triple>
0

>  <chi0>
16.396976

>  <chi0v>
13.005553

>  <chi0v_C>
11.350853

>  <chi0_C>
13.396976

>  <chi1>
11.041714

>  <chi1v>
7.4581184

>  <chi1v_C>
6.6307683

>  <chi1_C>
9.3096628

>  <chiral>
0

>  <chiral_u>
0

>  <density>
0.67750859

>  <diameter>
10

>  <FCharge>
0

>  <GCUT_PEOE_0>
-0.81338841

>  <GCUT_PEOE_1>
-0.40146261

>  <GCUT_PEOE_2>
0.081660971

>  <GCUT_PEOE_3>
2.5611012

>  <GCUT_SLOGP_0>
-1.3347861

>  <GCUT_SLOGP_1>
-0.27333507

>  <GCUT_SLOGP_2>
0.16445385

>  <GCUT_SLOGP_3>
2.7077324

>  <GCUT_SMR_0>
-0.47608745

>  <GCUT_SMR_1>
-0.21605732

>  <GCUT_SMR_2>
0.20889565

>  <GCUT_SMR_3>
2.8835654

>  <Kier1>
17.811199

>  <Kier2>
7.9200001

>  <Kier3>
4.3456788

>  <KierA1>
11.587909

>  <KierA2>
5.0417814

>  <KierA3>
2.72085

>  <KierFlex>
2.5401609

>  <lip_acc>
3

>  <lip_don>
5

>  <lip_druglike>
1

>  <lip_violation>
0

>  <logP(o/w)>
3.7409999

>  <logS>
-5.1160898

>  <mr>
9.3279705

>  <mutagenic>
1

>  <nmol>
1

>  <opr_brigid>
20

>  <opr_leadlike>
1

>  <opr_nring>
3

>  <opr_nrot>
2

>  <opr_violation>
0

>  <PC+>
0

>  <PC->
0

>  <PEOE_PC+>
1.5416311

>  <PEOE_PC->
-1.5416311

>  <PEOE_RPC+>
0.12111272

>  <PEOE_RPC->
0.19606158

>  <PEOE_VSA+0>
26.195261

>  <PEOE_VSA+1>
53.618797

>  <PEOE_VSA+2>
34.476051

>  <PEOE_VSA+3>
8.6190128

>  <PEOE_VSA+4>
0

>  <PEOE_VSA+5>
0

>  <PEOE_VSA+6>
0

>  <PEOE_VSA-0>
103.3198

>  <PEOE_VSA-1>
61.274521

>  <PEOE_VSA-2>
0

>  <PEOE_VSA-3>
0

>  <PEOE_VSA-4>
0

>  <PEOE_VSA-5>
12.196804

>  <PEOE_VSA-6>
13.302238

>  <PEOE_VSA_FHYD>
0.91853404

>  <PEOE_VSA_FNEG>
0.60732222

>  <PEOE_VSA_FPNEG>
0.081465945

>  <PEOE_VSA_FPOL>
0.081465945

>  <PEOE_VSA_FPOS>
0.39267778

>  <PEOE_VSA_FPPOS>
0

>  <PEOE_VSA_HYD>
287.50345

>  <PEOE_VSA_NEG>
190.09337

>  <PEOE_VSA_PNEG>
25.499043

>  <PEOE_VSA_POL>
25.499043

>  <PEOE_VSA_POS>
122.90913

>  <PEOE_VSA_PPOS>
0

>  <petitjean>
0.5

>  <petitjeanSC>
1

>  <Q_PC+>
0

>  <Q_PC->
0

>  <Q_RPC+>
0

>  <Q_RPC->
0

>  <Q_VSA_FHYD>
1

>  <Q_VSA_FNEG>
0

>  <Q_VSA_FPNEG>
0

>  <Q_VSA_FPOL>
0

>  <Q_VSA_FPOS>
1

>  <Q_VSA_FPPOS>
0

>  <Q_VSA_HYD>
313.00247

>  <Q_VSA_NEG>
0

>  <Q_VSA_PNEG>
0

>  <Q_VSA_POL>
0

>  <Q_VSA_POS>
313.00247

>  <Q_VSA_PPOS>
0

>  <radius>
5

>  <reactive>
1

>  <rings>
3

>  <RPC+>
0

>  <RPC->
0

>  <rsynth>
0.043478262

>  <SlogP>
4.0060601

>  <SlogP_VSA0>
65.794373

>  <SlogP_VSA1>
2.7567475

>  <SlogP_VSA2>
0

>  <SlogP_VSA3>
3.185575

>  <SlogP_VSA4>
6.37115

>  <SlogP_VSA5>
6.37115

>  <SlogP_VSA6>
0

>  <SlogP_VSA7>
225.74699

>  <SlogP_VSA8>
0

>  <SlogP_VSA9>
38.839512

>  <SMR>
9.72925

>  <SMR_VSA0>
0

>  <SMR_VSA1>
0

>  <SMR_VSA2>
34.85754

>  <SMR_VSA3>
12.7423

>  <SMR_VSA4>
5.513495

>  <SMR_VSA5>
259.86942

>  <SMR_VSA6>
2.7567475

>  <SMR_VSA7>
33.326015

>  <TPSA>
75.889999

>  <VAdjEq>
0.45137304

>  <VAdjMa>
5.643856

>  <VDistEq>
3.1328554

>  <VDistMa>
8.7848892

>  <vdw_area>
313.00247

>  <vdw_vol>
444.85489

>  <vsa_acc>
0

>  <vsa_acid>
0

>  <vsa_base>
0

>  <vsa_don>
35.484978

>  <vsa_hyd>
227.7437

>  <vsa_other>
6.6995511

>  <vsa_pol>
53.22747

>  <Weight>
301.39301

>  <weinerPath>
1144

>  <weinerPol>
36

>  <zagreb>
120

$$$$