FCC1=Nc2c(cc(N)cc2)C(=O)N1c1ccccc1C
  MOE2013           2D

 21 23  0  0  0  0  0  0  0  0999 V2000
    0.0000    0.0000    0.0000 F   0  0  0  0  0  0  0  0  0  0  0  0
    0.7590   -1.2940    0.0000 C   0  0  0  0  0  0  0  0  0  0  0  0
    0.0190   -2.5980    0.0000 C   0  0  0  0  0  0  0  0  0  0  0  0
   -1.4810   -2.6090    0.0000 N   0  0  0  0  0  0  0  0  0  0  0  0
   -2.2220   -3.9130    0.0000 C   0  0  0  0  0  0  0  0  0  0  0  0
   -1.4620   -5.2070    0.0000 C   0  0  0  0  0  0  0  0  0  0  0  0
   -2.2030   -6.5110    0.0000 C   0  0  0  0  0  0  0  0  0  0  0  0
   -3.7030   -6.5220    0.0000 C   0  0  0  0  0  0  0  0  0  0  0  0
   -4.4440   -7.8270    0.0000 N   0  0  0  0  0  0  0  0  0  0  0  0
   -4.4620   -5.2290    0.0000 C   0  0  0  0  0  0  0  0  0  0  0  0
   -3.7220   -3.9240    0.0000 C   0  0  0  0  0  0  0  0  0  0  0  0
    0.0380   -5.1960    0.0000 C   0  0  0  0  0  0  0  0  0  0  0  0
    0.7970   -6.4900    0.0000 O   0  0  0  0  0  0  0  0  0  0  0  0
    0.7780   -3.8920    0.0000 N   0  0  0  0  0  0  0  0  0  0  0  0
    2.2780   -3.8810    0.0000 C   0  0  0  0  0  0  0  0  0  0  0  0
    3.0190   -2.5760    0.0000 C   0  0  0  0  0  0  0  0  0  0  0  0
    4.5190   -2.5660    0.0000 C   0  0  0  0  0  0  0  0  0  0  0  0
    5.2780   -3.8590    0.0000 C   0  0  0  0  0  0  0  0  0  0  0  0
    4.5370   -5.1640    0.0000 C   0  0  0  0  0  0  0  0  0  0  0  0
    3.0370   -5.1740    0.0000 C   0  0  0  0  0  0  0  0  0  0  0  0
    2.2970   -6.4790    0.0000 C   0  0  0  0  0  0  0  0  0  0  0  0
  1  2  1  0  0  0  0
  2  3  1  0  0  0  0
  3  4  2  0  0  0  0
  3 14  1  0  0  0  0
  4  5  1  0  0  0  0
  5  6  1  0  0  0  0
  5 11  2  0  0  0  0
  6  7  2  0  0  0  0
  6 12  1  0  0  0  0
  7  8  1  0  0  0  0
  8  9  1  0  0  0  0
  8 10  2  0  0  0  0
 10 11  1  0  0  0  0
 12 13  2  0  0  0  0
 12 14  1  0  0  0  0
 14 15  1  0  0  0  0
 15 16  1  0  0  0  0
 15 20  2  0  0  0  0
 16 17  2  0  0  0  0
 17 18  1  0  0  0  0
 18 19  2  0  0  0  0
 19 20  1  0  0  0  0
 20 21  1  0  0  0  0
M  END
>  <Index>
1305

>  <ID>
HT3250

>  <class>
0

>  <apol>
42.154102

>  <ast_fraglike>
0

>  <ast_fraglike_ext>
0

>  <ast_violation>
1

>  <ast_violation_ext>
1

>  <a_acc>
2

>  <a_acid>
0

>  <a_aro>
12

>  <a_base>
0

>  <a_count>
35

>  <a_don>
1

>  <a_donacc>
3

>  <a_heavy>
21

>  <a_hyd>
15

>  <a_IC>
57.467049

>  <a_ICM>
1.6419157

>  <a_nB>
0

>  <a_nBr>
0

>  <a_nC>
16

>  <a_nCl>
0

>  <a_nF>
1

>  <a_nH>
14

>  <a_nI>
0

>  <a_nN>
3

>  <a_nO>
1

>  <a_nP>
0

>  <a_nS>
0

>  <balabanJ>
1.8031884

>  <BCUT_PEOE_0>
-2.3997116

>  <BCUT_PEOE_1>
-0.58309269

>  <BCUT_PEOE_2>
0.61960685

>  <BCUT_PEOE_3>
2.4121051

>  <BCUT_SLOGP_0>
-2.497539

>  <BCUT_SLOGP_1>
-0.46653381

>  <BCUT_SLOGP_2>
0.72376132

>  <BCUT_SLOGP_3>
2.4606283

>  <BCUT_SMR_0>
-2.0699723

>  <BCUT_SMR_1>
-0.41481391

>  <BCUT_SMR_2>
0.78719354

>  <BCUT_SMR_3>
2.7392471

>  <bpol>
20.105898

>  <b_1rotN>
2

>  <b_1rotR>
0.086956523

>  <b_ar>
12

>  <b_count>
37

>  <b_double>
2

>  <b_heavy>
23

>  <b_max1len>
2

>  <b_rotN>
2

>  <b_rotR>
0.086956523

>  <b_single>
23

>  <b_triple>
0

>  <chi0>
14.982763

>  <chi0v>
11.506549

>  <chi0v_C>
9.248559

>  <chi0_C>
10.698306

>  <chi1>
10.113392

>  <chi1v>
6.5470319

>  <chi1v_C>
4.6689377

>  <chi1_C>
6.4350882

>  <chiral>
0

>  <chiral_u>
0

>  <density>
0.75747901

>  <diameter>
9

>  <FCharge>
0

>  <GCUT_PEOE_0>
-0.81267202

>  <GCUT_PEOE_1>
-0.41950989

>  <GCUT_PEOE_2>
0.049165383

>  <GCUT_PEOE_3>
2.5103426

>  <GCUT_SLOGP_0>
-1.3343042

>  <GCUT_SLOGP_1>
-0.27450496

>  <GCUT_SLOGP_2>
0.14828753

>  <GCUT_SLOGP_3>
2.6094458

>  <GCUT_SMR_0>
-0.47884449

>  <GCUT_SMR_1>
-0.18990299

>  <GCUT_SMR_2>
0.17059948

>  <GCUT_SMR_3>
2.8232551

>  <Kier1>
15.879017

>  <Kier2>
6.6299357

>  <Kier3>
3.0623817

>  <KierA1>
10.604361

>  <KierA2>
4.3292599

>  <KierA3>
1.965264

>  <KierFlex>
2.1861446

>  <lip_acc>
4

>  <lip_don>
2

>  <lip_druglike>
1

>  <lip_violation>
0

>  <logP(o/w)>
2.418

>  <logS>
-4.1143599

>  <mr>
7.8991523

>  <mutagenic>
1

>  <nmol>
1

>  <opr_brigid>
17

>  <opr_leadlike>
1

>  <opr_nring>
3

>  <opr_nrot>
2

>  <opr_violation>
0

>  <PC+>
0

>  <PC->
0

>  <PEOE_PC+>
1.6876137

>  <PEOE_PC->
-1.6876137

>  <PEOE_RPC+>
0.15784907

>  <PEOE_RPC->
0.17909129

>  <PEOE_VSA+0>
19.495708

>  <PEOE_VSA+1>
53.996117

>  <PEOE_VSA+2>
43.942207

>  <PEOE_VSA+3>
0

>  <PEOE_VSA+4>
0

>  <PEOE_VSA+5>
12.949531

>  <PEOE_VSA+6>
0

>  <PEOE_VSA-0>
69.97583

>  <PEOE_VSA-1>
36.764713

>  <PEOE_VSA-2>
0

>  <PEOE_VSA-3>
0

>  <PEOE_VSA-4>
17.591211

>  <PEOE_VSA-5>
13.566921

>  <PEOE_VSA-6>
6.6511192

>  <PEOE_VSA_FHYD>
0.81537789

>  <PEOE_VSA_FNEG>
0.52576303

>  <PEOE_VSA_FPNEG>
0.13752152

>  <PEOE_VSA_FPOL>
0.18462212

>  <PEOE_VSA_FPOS>
0.47423697

>  <PEOE_VSA_FPPOS>
0.047100618

>  <PEOE_VSA_HYD>
224.17458

>  <PEOE_VSA_NEG>
144.54979

>  <PEOE_VSA_PNEG>
37.809254

>  <PEOE_VSA_POL>
50.758781

>  <PEOE_VSA_POS>
130.38356

>  <PEOE_VSA_PPOS>
12.949531

>  <petitjean>
0.44444445

>  <petitjeanSC>
0.80000001

>  <Q_PC+>
0

>  <Q_PC->
0

>  <Q_RPC+>
0

>  <Q_RPC->
0

>  <Q_VSA_FHYD>
1

>  <Q_VSA_FNEG>
0

>  <Q_VSA_FPNEG>
0

>  <Q_VSA_FPOL>
0

>  <Q_VSA_FPOS>
1

>  <Q_VSA_FPPOS>
0

>  <Q_VSA_HYD>
274.93335

>  <Q_VSA_NEG>
0

>  <Q_VSA_PNEG>
0

>  <Q_VSA_POL>
0

>  <Q_VSA_POS>
274.93335

>  <Q_VSA_PPOS>
0

>  <radius>
5

>  <reactive>
0

>  <rings>
3

>  <RPC+>
0

>  <RPC->
0

>  <rsynth>
1

>  <SlogP>
3.2371199

>  <SlogP_VSA0>
36.0215

>  <SlogP_VSA1>
7.5867038

>  <SlogP_VSA2>
0

>  <SlogP_VSA3>
24.803848

>  <SlogP_VSA4>
30.233366

>  <SlogP_VSA5>
16.78553

>  <SlogP_VSA6>
0

>  <SlogP_VSA7>
123.50229

>  <SlogP_VSA8>
0

>  <SlogP_VSA9>
56.55637

>  <SMR>
8.1912899

>  <SMR_VSA0>
23.862217

>  <SMR_VSA1>
31.745644

>  <SMR_VSA2>
3.1243138

>  <SMR_VSA3>
6.37115

>  <SMR_VSA4>
8.2702427

>  <SMR_VSA5>
156.39948

>  <SMR_VSA6>
32.390553

>  <SMR_VSA7>
33.326015

>  <TPSA>
58.689999

>  <VAdjEq>
0.48250595

>  <VAdjMa>
5.523562

>  <VDistEq>
2.9408112

>  <VDistMa>
8.5275068

>  <vdw_area>
274.93335

>  <vdw_vol>
374.01166

>  <vsa_acc>
19.249496

>  <vsa_acid>
0

>  <vsa_base>
0

>  <vsa_don>
17.742489

>  <vsa_hyd>
199.11308

>  <vsa_other>
24.140093

>  <vsa_pol>
36.991985

>  <Weight>
283.306

>  <weinerPath>
838

>  <weinerPol>
37

>  <zagreb>
112

$$$$