FC(F)(F)c1cc(OC[C@H](O)C=C[C@@H]2[C@@H](CC=CCCCC(OC(C)C)=O)[C@@H](O)C[C@H]2O)ccc1
  MOE2013           2D

 35 36  0  0  1  0  0  0  0  0999 V2000
    0.0000    0.0000    0.0000 F   0  0  0  0  0  0  0  0  0  0  0  0
   -1.2310   -0.8570    0.0000 C   0  0  0  0  0  0  0  0  0  0  0  0
   -2.4630   -1.7130    0.0000 F   0  0  0  0  0  0  0  0  0  0  0  0
   -2.0880    0.3750    0.0000 F   0  0  0  0  0  0  0  0  0  0  0  0
   -0.3750   -2.0880    0.0000 C   0  0  0  0  0  0  0  0  0  0  0  0
    1.1200   -1.9620    0.0000 C   0  0  0  0  0  0  0  0  0  0  0  0
    1.9770   -3.1930    0.0000 C   0  0  0  0  0  0  0  0  0  0  0  0
    3.4720   -3.0670    0.0000 O   0  0  0  0  0  0  0  0  0  0  0  0
    4.3280   -4.2980    0.0000 C   0  0  0  0  0  0  0  0  0  0  0  0
    5.8230   -4.1720    0.0000 C   0  0  2  0  0  0  0  0  0  0  0  0
    6.4610   -2.8140    0.0000 O   0  0  0  0  0  0  0  0  0  0  0  0
    6.6800   -5.4030    0.0000 C   0  0  0  0  0  0  0  0  0  0  0  0
    8.1740   -5.2770    0.0000 C   0  0  0  0  0  0  0  0  0  0  0  0
    9.0310   -6.5080    0.0000 C   0  0  2  0  0  0  0  0  0  0  0  0
   10.5310   -6.5390    0.0000 C   0  0  1  0  0  0  0  0  0  0  0  0
   11.4370   -5.3430    0.0000 C   0  0  0  0  0  0  0  0  0  0  0  0
   12.9250   -5.5300    0.0000 C   0  0  0  0  0  0  0  0  0  0  0  0
   13.8320   -4.3350    0.0000 C   0  0  0  0  0  0  0  0  0  0  0  0
   15.3200   -4.5220    0.0000 C   0  0  0  0  0  0  0  0  0  0  0  0
   16.2260   -3.3270    0.0000 C   0  0  0  0  0  0  0  0  0  0  0  0
   17.7140   -3.5140    0.0000 C   0  0  0  0  0  0  0  0  0  0  0  0
   18.6210   -2.3190    0.0000 C   0  0  0  0  0  0  0  0  0  0  0  0
   18.0390   -0.9370    0.0000 O   0  0  0  0  0  0  0  0  0  0  0  0
   18.9450    0.2590    0.0000 C   0  0  0  0  0  0  0  0  0  0  0  0
   20.4330    0.0710    0.0000 C   0  0  0  0  0  0  0  0  0  0  0  0
   18.3630    1.6410    0.0000 C   0  0  0  0  0  0  0  0  0  0  0  0
   20.1090   -2.5060    0.0000 O   0  0  0  0  0  0  0  0  0  0  0  0
   10.9650   -7.9740    0.0000 C   0  0  1  0  0  0  0  0  0  0  0  0
   12.3820   -8.4670    0.0000 O   0  0  0  0  0  0  0  0  0  0  0  0
    9.7340   -8.8310    0.0000 C   0  0  0  0  0  0  0  0  0  0  0  0
    8.5380   -7.9250    0.0000 C   0  0  1  0  0  0  0  0  0  0  0  0
    7.1030   -8.3590    0.0000 O   0  0  0  0  0  0  0  0  0  0  0  0
    1.3390   -4.5510    0.0000 C   0  0  0  0  0  0  0  0  0  0  0  0
   -0.1560   -4.6770    0.0000 C   0  0  0  0  0  0  0  0  0  0  0  0
   -1.0130   -3.4460    0.0000 C   0  0  0  0  0  0  0  0  0  0  0  0
  1  2  1  0  0  0  0
  2  3  1  0  0  0  0
  2  4  1  0  0  0  0
  2  5  1  0  0  0  0
  5  6  2  0  0  0  0
  5 35  1  0  0  0  0
  6  7  1  0  0  0  0
  7  8  1  0  0  0  0
  7 33  2  0  0  0  0
  8  9  1  0  0  0  0
  9 10  1  0  0  0  0
 10 11  1  6  0  0  0
 10 12  1  0  0  0  0
 12 13  2  3  0  0  0
 14 13  1  6  0  0  0
 14 15  1  0  0  0  0
 14 31  1  0  0  0  0
 15 16  1  1  0  0  0
 15 28  1  0  0  0  0
 16 17  1  0  0  0  0
 17 18  2  3  0  0  0
 18 19  1  0  0  0  0
 19 20  1  0  0  0  0
 20 21  1  0  0  0  0
 21 22  1  0  0  0  0
 22 23  1  0  0  0  0
 22 27  2  0  0  0  0
 23 24  1  0  0  0  0
 24 25  1  0  0  0  0
 24 26  1  0  0  0  0
 28 29  1  1  0  0  0
 28 30  1  0  0  0  0
 30 31  1  0  0  0  0
 31 32  1  1  0  0  0
 33 34  1  0  0  0  0
 34 35  2  0  0  0  0
M  END
>  <Index>
1100

>  <ID>
HT2101

>  <class>
0

>  <apol>
75.580757

>  <ast_fraglike>
0

>  <ast_fraglike_ext>
0

>  <ast_violation>
3

>  <ast_violation_ext>
4

>  <a_acc>
5

>  <a_acid>
0

>  <a_aro>
6

>  <a_base>
0

>  <a_count>
70

>  <a_don>
3

>  <a_donacc>
8

>  <a_heavy>
35

>  <a_hyd>
28

>  <a_IC>
107.04881

>  <a_ICM>
1.5292687

>  <a_nB>
0

>  <a_nBr>
0

>  <a_nC>
26

>  <a_nCl>
0

>  <a_nF>
3

>  <a_nH>
35

>  <a_nI>
0

>  <a_nN>
0

>  <a_nO>
6

>  <a_nP>
0

>  <a_nS>
0

>  <balabanJ>
1.6543956

>  <BCUT_PEOE_0>
-2.6249325

>  <BCUT_PEOE_1>
-0.56648213

>  <BCUT_PEOE_2>
0.61362481

>  <BCUT_PEOE_3>
2.8128915

>  <BCUT_SLOGP_0>
-2.6191542

>  <BCUT_SLOGP_1>
-0.52832991

>  <BCUT_SLOGP_2>
0.61391002

>  <BCUT_SLOGP_3>
2.8035605

>  <BCUT_SMR_0>
-2.3797634

>  <BCUT_SMR_1>
-0.43502784

>  <BCUT_SMR_2>
0.7501716

>  <BCUT_SMR_3>
3.044024

>  <bpol>
46.661243

>  <b_1rotN>
12

>  <b_1rotR>
0.33333334

>  <b_ar>
6

>  <b_count>
71

>  <b_double>
3

>  <b_heavy>
36

>  <b_max1len>
5

>  <b_rotN>
14

>  <b_rotR>
0.3888889

>  <b_single>
62

>  <b_triple>
0

>  <chi0>
26.009861

>  <chi0v>
20.025824

>  <chi0v_C>
16.325544

>  <chi0_C>
17.595648

>  <chi1>
16.468252

>  <chi1v>
11.840737

>  <chi1v_C>
9.3624439

>  <chi1_C>
10.934107

>  <chiral>
5

>  <chiral_u>
0

>  <density>
0.77097386

>  <diameter>
21

>  <FCharge>
0

>  <GCUT_PEOE_0>
-0.79982144

>  <GCUT_PEOE_1>
-0.35930941

>  <GCUT_PEOE_2>
0.072262719

>  <GCUT_PEOE_3>
2.8494537

>  <GCUT_SLOGP_0>
-0.93220502

>  <GCUT_SLOGP_1>
-0.33096531

>  <GCUT_SLOGP_2>
0.15124883

>  <GCUT_SLOGP_3>
2.8940527

>  <GCUT_SMR_0>
-0.5346151

>  <GCUT_SMR_1>
-0.21190877

>  <GCUT_SMR_2>
0.17604057

>  <GCUT_SMR_3>
3.0758936

>  <Kier1>
31.219135

>  <Kier2>
15.421075

>  <Kier3>
11.509421

>  <KierA1>
26.618708

>  <KierA2>
13.084132

>  <KierA3>
9.7305651

>  <KierFlex>
9.9509344

>  <lip_acc>
6

>  <lip_don>
3

>  <lip_druglike>
1

>  <lip_violation>
1

>  <logP(o/w)>
4.0027599

>  <logS>
-4.9297199

>  <mr>
12.742577

>  <mutagenic>
0

>  <nmol>
1

>  <opr_brigid>
13

>  <opr_leadlike>
0

>  <opr_nring>
2

>  <opr_nrot>
13

>  <opr_violation>
3

>  <PC+>
0

>  <PC->
0

>  <PEOE_PC+>
3.2411191

>  <PEOE_PC->
-3.2411191

>  <PEOE_RPC+>
0.12881358

>  <PEOE_RPC->
0.1207598

>  <PEOE_VSA+0>
94.179573

>  <PEOE_VSA+1>
104.95347

>  <PEOE_VSA+2>
0

>  <PEOE_VSA+3>
0

>  <PEOE_VSA+4>
30.972517

>  <PEOE_VSA+5>
14.708499

>  <PEOE_VSA+6>
9.0455017

>  <PEOE_VSA-0>
100.36401

>  <PEOE_VSA-1>
61.274521

>  <PEOE_VSA-2>
0

>  <PEOE_VSA-3>
35.725906

>  <PEOE_VSA-4>
0

>  <PEOE_VSA-5>
13.566921

>  <PEOE_VSA-6>
28.310133

>  <PEOE_VSA_FHYD>
0.80408973

>  <PEOE_VSA_FNEG>
0.4851774

>  <PEOE_VSA_FPNEG>
0.084925905

>  <PEOE_VSA_FPOL>
0.19591029

>  <PEOE_VSA_FPOS>
0.5148226

>  <PEOE_VSA_FPPOS>
0.11098439

>  <PEOE_VSA_HYD>
396.49747

>  <PEOE_VSA_NEG>
239.24149

>  <PEOE_VSA_PNEG>
41.877052

>  <PEOE_VSA_POL>
96.603577

>  <PEOE_VSA_POS>
253.85956

>  <PEOE_VSA_PPOS>
54.726521

>  <petitjean>
0.47619048

>  <petitjeanSC>
0.90909094

>  <Q_PC+>
0

>  <Q_PC->
0

>  <Q_RPC+>
0

>  <Q_RPC->
0

>  <Q_VSA_FHYD>
1

>  <Q_VSA_FNEG>
0

>  <Q_VSA_FPNEG>
0

>  <Q_VSA_FPOL>
0

>  <Q_VSA_FPOS>
1

>  <Q_VSA_FPPOS>
0

>  <Q_VSA_HYD>
493.10104

>  <Q_VSA_NEG>
0

>  <Q_VSA_PNEG>
0

>  <Q_VSA_POL>
0

>  <Q_VSA_POS>
493.10104

>  <Q_VSA_PPOS>
0

>  <radius>
11

>  <reactive>
0

>  <rings>
2

>  <RPC+>
0

>  <RPC->
0

>  <rsynth>
0.45714286

>  <SlogP>
4.7389002

>  <SlogP_VSA0>
87.155563

>  <SlogP_VSA1>
7.7454643

>  <SlogP_VSA2>
60.736702

>  <SlogP_VSA3>
20.926258

>  <SlogP_VSA4>
12.007167

>  <SlogP_VSA5>
0

>  <SlogP_VSA6>
7.7595162

>  <SlogP_VSA7>
141.14548

>  <SlogP_VSA8>
94.342026

>  <SlogP_VSA9>
116.77579

>  <SMR>
12.46494

>  <SMR_VSA0>
34.862103

>  <SMR_VSA1>
132.0359

>  <SMR_VSA2>
16.581108

>  <SMR_VSA3>
34.3036

>  <SMR_VSA4>
0

>  <SMR_VSA5>
235.4875

>  <SMR_VSA6>
28.671722

>  <SMR_VSA7>
66.652031

>  <TPSA>
96.220001

>  <VAdjEq>
0.32256484

>  <VAdjMa>
6.1699252

>  <VDistEq>
4.2004662

>  <VDistMa>
9.9263296

>  <vdw_area>
493.10104

>  <vdw_vol>
649.24902

>  <vsa_acc>
16.070677

>  <vsa_acid>
0

>  <vsa_base>
0

>  <vsa_don>
0

>  <vsa_hyd>
380.07544

>  <vsa_other>
17.212255

>  <vsa_pol>
56.771439

>  <Weight>
500.55399

>  <weinerPath>
4909

>  <weinerPol>
47

>  <zagreb>
170

$$$$