OCc1cc2c([nH]cc2C=NNC(=NCCCCC)N)cc1
  MOE2013           2D

 22 23  0  0  0  0  0  0  0  0999 V2000
    0.0000    0.0000    0.0000 O   0  0  0  0  0  0  0  0  0  0  0  0
    1.4580   -0.3520    0.0000 C   0  0  0  0  0  0  0  0  0  0  0  0
    1.8820   -1.7910    0.0000 C   0  0  0  0  0  0  0  0  0  0  0  0
    3.3400   -2.1430    0.0000 C   0  0  0  0  0  0  0  0  0  0  0  0
    3.7640   -3.5820    0.0000 C   0  0  0  0  0  0  0  0  0  0  0  0
    2.7300   -4.6690    0.0000 C   0  0  0  0  0  0  0  0  0  0  0  0
    3.4440   -5.9880    0.0000 N   0  0  0  0  0  0  0  0  0  0  0  0
    4.9190   -5.7160    0.0000 C   0  0  0  0  0  0  0  0  0  0  0  0
    5.1170   -4.2300    0.0000 C   0  0  0  0  0  0  0  0  0  0  0  0
    6.4360   -3.5160    0.0000 C   0  0  0  0  0  0  0  0  0  0  0  0
    7.7140   -4.3010    0.0000 N   0  0  0  0  0  0  0  0  0  0  0  0
    9.0340   -3.5870    0.0000 N   0  0  0  0  0  0  0  0  0  0  0  0
   10.3110   -4.3730    0.0000 C   0  0  0  0  0  0  0  0  0  0  0  0
   11.6310   -3.6590    0.0000 N   0  0  0  0  0  0  0  0  0  0  0  0
   11.6720   -2.1590    0.0000 C   0  0  0  0  0  0  0  0  0  0  0  0
   12.9910   -1.4450    0.0000 C   0  0  0  0  0  0  0  0  0  0  0  0
   13.0320    0.0540    0.0000 C   0  0  0  0  0  0  0  0  0  0  0  0
   14.3520    0.7680    0.0000 C   0  0  0  0  0  0  0  0  0  0  0  0
   14.3930    2.2670    0.0000 C   0  0  0  0  0  0  0  0  0  0  0  0
   10.2700   -5.8720    0.0000 N   0  0  0  0  0  0  0  0  0  0  0  0
    1.2720   -4.3160    0.0000 C   0  0  0  0  0  0  0  0  0  0  0  0
    0.8480   -2.8780    0.0000 C   0  0  0  0  0  0  0  0  0  0  0  0
  1  2  1  0  0  0  0
  2  3  1  0  0  0  0
  3  4  1  0  0  0  0
  3 22  2  0  0  0  0
  4  5  2  0  0  0  0
  5  6  1  0  0  0  0
  5  9  1  0  0  0  0
  6  7  1  0  0  0  0
  6 21  2  0  0  0  0
  7  8  1  0  0  0  0
  8  9  2  0  0  0  0
  9 10  1  0  0  0  0
 10 11  2  3  0  0  0
 11 12  1  0  0  0  0
 12 13  1  0  0  0  0
 13 14  2  3  0  0  0
 13 20  1  0  0  0  0
 14 15  1  0  0  0  0
 15 16  1  0  0  0  0
 16 17  1  0  0  0  0
 17 18  1  0  0  0  0
 18 19  1  0  0  0  0
 21 22  1  0  0  0  0
M  END
>  <Index>
1320

>  <ID>
HT3363

>  <class>
0

>  <apol>
49.798241

>  <ast_fraglike>
0

>  <ast_fraglike_ext>
0

>  <ast_violation>
2

>  <ast_violation_ext>
4

>  <a_acc>
3

>  <a_acid>
0

>  <a_aro>
9

>  <a_base>
0

>  <a_count>
45

>  <a_don>
4

>  <a_donacc>
7

>  <a_heavy>
22

>  <a_hyd>
14

>  <a_IC>
67.481827

>  <a_ICM>
1.4995961

>  <a_nB>
0

>  <a_nBr>
0

>  <a_nC>
16

>  <a_nCl>
0

>  <a_nF>
0

>  <a_nH>
23

>  <a_nI>
0

>  <a_nN>
5

>  <a_nO>
1

>  <a_nP>
0

>  <a_nS>
0

>  <balabanJ>
1.6061131

>  <BCUT_PEOE_0>
-2.6152744

>  <BCUT_PEOE_1>
-0.51946884

>  <BCUT_PEOE_2>
0.62511402

>  <BCUT_PEOE_3>
2.5643752

>  <BCUT_SLOGP_0>
-2.6054144

>  <BCUT_SLOGP_1>
-0.44956321

>  <BCUT_SLOGP_2>
0.63342381

>  <BCUT_SLOGP_3>
2.7008572

>  <BCUT_SMR_0>
-2.3704338

>  <BCUT_SMR_1>
-0.34647265

>  <BCUT_SMR_2>
0.79724306

>  <BCUT_SMR_3>
2.8100615

>  <bpol>
27.12376

>  <b_1rotN>
7

>  <b_1rotR>
0.30434781

>  <b_ar>
10

>  <b_count>
46

>  <b_double>
2

>  <b_heavy>
23

>  <b_max1len>
6

>  <b_rotN>
8

>  <b_rotR>
0.34782609

>  <b_single>
34

>  <b_triple>
0

>  <chi0>
15.786246

>  <chi0v>
12.841276

>  <chi0v_C>
9.9222851

>  <chi0_C>
10.957819

>  <chi1>
10.740713

>  <chi1v>
7.5412626

>  <chi1v_C>
5.1260443

>  <chi1_C>
6.2315116

>  <chiral>
0

>  <chiral_u>
0

>  <density>
0.70547146

>  <diameter>
15

>  <FCharge>
0

>  <GCUT_PEOE_0>
-0.86129028

>  <GCUT_PEOE_1>
-0.40731245

>  <GCUT_PEOE_2>
0.090127684

>  <GCUT_PEOE_3>
2.4390309

>  <GCUT_SLOGP_0>
-1.3710788

>  <GCUT_SLOGP_1>
-0.31771958

>  <GCUT_SLOGP_2>
0.09362153

>  <GCUT_SLOGP_3>
2.535814

>  <GCUT_SMR_0>
-0.53007668

>  <GCUT_SMR_1>
-0.17452455

>  <GCUT_SMR_2>
0.2206201

>  <GCUT_SMR_3>
2.7380726

>  <Kier1>
18.340265

>  <Kier2>
9.9881096

>  <Kier3>
5.8641977

>  <KierA1>
13.33299

>  <KierA2>
7.1415386

>  <KierA3>
4.1425843

>  <KierFlex>
4.328094

>  <lip_acc>
6

>  <lip_don>
5

>  <lip_druglike>
1

>  <lip_violation>
0

>  <logP(o/w)>
5.5549998

>  <logS>
-3.43257

>  <mr>
8.7718229

>  <mutagenic>
0

>  <nmol>
1

>  <opr_brigid>
12

>  <opr_leadlike>
1

>  <opr_nring>
2

>  <opr_nrot>
8

>  <opr_violation>
0

>  <PC+>
0

>  <PC->
0

>  <PEOE_PC+>
2.1620026

>  <PEOE_PC->
-2.1620026

>  <PEOE_RPC+>
0.097585127

>  <PEOE_RPC->
0.18058079

>  <PEOE_VSA+0>
79.443344

>  <PEOE_VSA+1>
70.085686

>  <PEOE_VSA+2>
0

>  <PEOE_VSA+3>
34.476051

>  <PEOE_VSA+4>
26.005747

>  <PEOE_VSA+5>
0

>  <PEOE_VSA+6>
0

>  <PEOE_VSA-0>
35.419662

>  <PEOE_VSA-1>
48.405209

>  <PEOE_VSA-2>
0

>  <PEOE_VSA-3>
9.4210396

>  <PEOE_VSA-4>
3.8753545

>  <PEOE_VSA-5>
5.6825762

>  <PEOE_VSA-6>
14.555551

>  <PEOE_VSA_FHYD>
0.8469035

>  <PEOE_VSA_FNEG>
0.35849136

>  <PEOE_VSA_FPNEG>
0.073658139

>  <PEOE_VSA_FPOL>
0.15309648

>  <PEOE_VSA_FPOS>
0.64150864

>  <PEOE_VSA_FPPOS>
0.079438344

>  <PEOE_VSA_HYD>
277.25098

>  <PEOE_VSA_NEG>
117.35939

>  <PEOE_VSA_PNEG>
24.113482

>  <PEOE_VSA_POL>
50.119228

>  <PEOE_VSA_POS>
210.01083

>  <PEOE_VSA_PPOS>
26.005747

>  <petitjean>
0.46666667

>  <petitjeanSC>
0.875

>  <Q_PC+>
0

>  <Q_PC->
0

>  <Q_RPC+>
0

>  <Q_RPC->
0

>  <Q_VSA_FHYD>
1

>  <Q_VSA_FNEG>
0

>  <Q_VSA_FPNEG>
0

>  <Q_VSA_FPOL>
0

>  <Q_VSA_FPOS>
1

>  <Q_VSA_FPPOS>
0

>  <Q_VSA_HYD>
327.37021

>  <Q_VSA_NEG>
0

>  <Q_VSA_PNEG>
0

>  <Q_VSA_POL>
0

>  <Q_VSA_POS>
327.37021

>  <Q_VSA_PPOS>
0

>  <radius>
8

>  <reactive>
0

>  <rings>
2

>  <RPC+>
0

>  <RPC->
0

>  <rsynth>
1

>  <SlogP>
2.355

>  <SlogP_VSA0>
76.170639

>  <SlogP_VSA1>
1.8990928

>  <SlogP_VSA2>
33.999886

>  <SlogP_VSA3>
18.439579

>  <SlogP_VSA4>
6.37115

>  <SlogP_VSA5>
33.448536

>  <SlogP_VSA6>
0

>  <SlogP_VSA7>
74.861008

>  <SlogP_VSA8>
56.605217

>  <SlogP_VSA9>
54.252274

>  <SMR>
9.1170597

>  <SMR_VSA0>
0

>  <SMR_VSA1>
58.833763

>  <SMR_VSA2>
34.673759

>  <SMR_VSA3>
6.37115

>  <SMR_VSA4>
37.614288

>  <SMR_VSA5>
147.67538

>  <SMR_VSA6>
20.338671

>  <SMR_VSA7>
50.540371

>  <TPSA>
98.790001

>  <VAdjEq>
0.4530769

>  <VAdjMa>
5.523562

>  <VDistEq>
3.644762

>  <VDistMa>
8.5694399

>  <vdw_area>
327.37021

>  <vdw_vol>
427.22351

>  <vsa_acc>
15.103616

>  <vsa_acid>
0

>  <vsa_base>
0

>  <vsa_don>
32.846104

>  <vsa_hyd>
200.24208

>  <vsa_other>
35.981079

>  <vsa_pol>
61.516644

>  <Weight>
301.39398

>  <weinerPath>
1306

>  <weinerPol>
28

>  <zagreb>
104

$$$$