Oc1ccc(cc1[C@H](CCN(C(C)C)C(C)C)c1ccccc1)C
  MOE2013           2D

 24 25  0  0  1  0  0  0  0  0999 V2000
    0.0000    0.0000    0.0000 O   0  0  0  0  0  0  0  0  0  0  0  0
    1.5000    0.0100    0.0000 C   0  0  0  0  0  0  0  0  0  0  0  0
    2.2590   -1.2840    0.0000 C   0  0  0  0  0  0  0  0  0  0  0  0
    3.7590   -1.2740    0.0000 C   0  0  0  0  0  0  0  0  0  0  0  0
    4.5000    0.0310    0.0000 C   0  0  0  0  0  0  0  0  0  0  0  0
    3.7410    1.3240    0.0000 C   0  0  0  0  0  0  0  0  0  0  0  0
    2.2410    1.3140    0.0000 C   0  0  0  0  0  0  0  0  0  0  0  0
    1.4820    2.6080    0.0000 C   0  0  2  0  0  0  0  0  0  0  0  0
   -0.0180    2.5980    0.0000 C   0  0  0  0  0  0  0  0  0  0  0  0
   -0.7760    3.8920    0.0000 C   0  0  0  0  0  0  0  0  0  0  0  0
   -2.2760    3.8820    0.0000 N   0  0  0  0  0  0  0  0  0  0  0  0
   -3.0350    5.1760    0.0000 C   0  0  0  0  0  0  0  0  0  0  0  0
   -4.5350    5.1660    0.0000 C   0  0  0  0  0  0  0  0  0  0  0  0
   -2.2940    6.4800    0.0000 C   0  0  0  0  0  0  0  0  0  0  0  0
   -3.0180    2.5780    0.0000 C   0  0  0  0  0  0  0  0  0  0  0  0
   -2.2590    1.2840    0.0000 C   0  0  0  0  0  0  0  0  0  0  0  0
   -4.5180    2.5670    0.0000 C   0  0  0  0  0  0  0  0  0  0  0  0
    2.2240    3.9120    0.0000 C   0  0  0  0  0  0  0  0  0  0  0  0
    1.4650    5.2060    0.0000 C   0  0  0  0  0  0  0  0  0  0  0  0
    2.2060    6.5100    0.0000 C   0  0  0  0  0  0  0  0  0  0  0  0
    3.7060    6.5200    0.0000 C   0  0  0  0  0  0  0  0  0  0  0  0
    4.4650    5.2270    0.0000 C   0  0  0  0  0  0  0  0  0  0  0  0
    3.7230    3.9220    0.0000 C   0  0  0  0  0  0  0  0  0  0  0  0
    6.0000    0.0410    0.0000 C   0  0  0  0  0  0  0  0  0  0  0  0
  1  2  1  0  0  0  0
  2  3  1  0  0  0  0
  2  7  2  0  0  0  0
  3  4  2  0  0  0  0
  4  5  1  0  0  0  0
  5  6  2  0  0  0  0
  5 24  1  0  0  0  0
  6  7  1  0  0  0  0
  8  7  1  6  0  0  0
  8  9  1  0  0  0  0
  8 18  1  0  0  0  0
  9 10  1  0  0  0  0
 10 11  1  0  0  0  0
 11 12  1  0  0  0  0
 11 15  1  0  0  0  0
 12 13  1  0  0  0  0
 12 14  1  0  0  0  0
 15 16  1  0  0  0  0
 15 17  1  0  0  0  0
 18 19  1  0  0  0  0
 18 23  2  0  0  0  0
 19 20  2  0  0  0  0
 20 21  1  0  0  0  0
 21 22  2  0  0  0  0
 22 23  1  0  0  0  0
M  END
>  <Index>
1091

>  <ID>
HT2088

>  <class>
0

>  <apol>
61.292583

>  <ast_fraglike>
0

>  <ast_fraglike_ext>
0

>  <ast_violation>
2

>  <ast_violation_ext>
3

>  <a_acc>
2

>  <a_acid>
0

>  <a_aro>
12

>  <a_base>
0

>  <a_count>
55

>  <a_don>
1

>  <a_donacc>
3

>  <a_heavy>
24

>  <a_hyd>
22

>  <a_IC>
66.287201

>  <a_ICM>
1.2052219

>  <a_nB>
0

>  <a_nBr>
0

>  <a_nC>
22

>  <a_nCl>
0

>  <a_nF>
0

>  <a_nH>
31

>  <a_nI>
0

>  <a_nN>
1

>  <a_nO>
1

>  <a_nP>
0

>  <a_nS>
0

>  <balabanJ>
2.0720696

>  <BCUT_PEOE_0>
-2.7604659

>  <BCUT_PEOE_1>
-0.51472658

>  <BCUT_PEOE_2>
0.57924479

>  <BCUT_PEOE_3>
2.6634357

>  <BCUT_SLOGP_0>
-2.7852111

>  <BCUT_SLOGP_1>
-0.41488263

>  <BCUT_SLOGP_2>
0.67580545

>  <BCUT_SLOGP_3>
2.6968822

>  <BCUT_SMR_0>
-2.48124

>  <BCUT_SMR_1>
-0.38823494

>  <BCUT_SMR_2>
0.71324492

>  <BCUT_SMR_3>
2.9372258

>  <bpol>
35.869415

>  <b_1rotN>
7

>  <b_1rotR>
0.28

>  <b_ar>
12

>  <b_count>
56

>  <b_double>
0

>  <b_heavy>
25

>  <b_max1len>
7

>  <b_rotN>
7

>  <b_rotR>
0.28

>  <b_single>
44

>  <b_triple>
0

>  <chi0>
17.689871

>  <chi0v>
15.659493

>  <chi0v_C>
14.765066

>  <chi0_C>
16.11252

>  <chi1>
11.396754

>  <chi1v>
8.9999495

>  <chi1v_C>
7.943717

>  <chi1_C>
9.7444897

>  <chiral>
1

>  <chiral_u>
0

>  <density>
0.63257062

>  <diameter>
9

>  <FCharge>
0

>  <GCUT_PEOE_0>
-0.85780323

>  <GCUT_PEOE_1>
-0.34001544

>  <GCUT_PEOE_2>
0.058330595

>  <GCUT_PEOE_3>
2.8558583

>  <GCUT_SLOGP_0>
-0.9532088

>  <GCUT_SLOGP_1>
-0.22806308

>  <GCUT_SLOGP_2>
0.13767377

>  <GCUT_SLOGP_3>
2.9567578

>  <GCUT_SMR_0>
-0.52516997

>  <GCUT_SMR_1>
-0.17990276

>  <GCUT_SMR_2>
0.15655322

>  <GCUT_SMR_3>
3.1138916

>  <Kier1>
20.313601

>  <Kier2>
9.6297579

>  <Kier3>
5.7619047

>  <KierA1>
16.504122

>  <KierA2>
7.7486978

>  <KierA3>
4.6042562

>  <KierFlex>
5.3285604

>  <lip_acc>
2

>  <lip_don>
1

>  <lip_druglike>
1

>  <lip_violation>
1

>  <logP(o/w)>
5.7610002

>  <logS>
-4.58284

>  <mr>
10.254863

>  <mutagenic>
0

>  <nmol>
1

>  <opr_brigid>
12

>  <opr_leadlike>
1

>  <opr_nring>
2

>  <opr_nrot>
7

>  <opr_violation>
1

>  <PC+>
0

>  <PC->
0

>  <PEOE_PC+>
1.465799

>  <PEOE_PC->
-1.465799

>  <PEOE_RPC+>
0.14826384

>  <PEOE_RPC->
0.24528714

>  <PEOE_VSA+0>
113.32274

>  <PEOE_VSA+1>
42.581608

>  <PEOE_VSA+2>
0

>  <PEOE_VSA+3>
0

>  <PEOE_VSA+4>
10.324173

>  <PEOE_VSA+5>
0

>  <PEOE_VSA+6>
0

>  <PEOE_VSA-0>
119.11169

>  <PEOE_VSA-1>
87.992867

>  <PEOE_VSA-2>
0

>  <PEOE_VSA-3>
0

>  <PEOE_VSA-4>
0

>  <PEOE_VSA-5>
0

>  <PEOE_VSA-6>
7.7675405

>  <PEOE_VSA_FHYD>
0.9525277

>  <PEOE_VSA_FNEG>
0.56381989

>  <PEOE_VSA_FPNEG>
0.020381862

>  <PEOE_VSA_FPOL>
0.047472276

>  <PEOE_VSA_FPOS>
0.43618014

>  <PEOE_VSA_FPPOS>
0.027090412

>  <PEOE_VSA_HYD>
363.00891

>  <PEOE_VSA_NEG>
214.87209

>  <PEOE_VSA_PNEG>
7.7675405

>  <PEOE_VSA_POL>
18.091713

>  <PEOE_VSA_POS>
166.22852

>  <PEOE_VSA_PPOS>
10.324173

>  <petitjean>
0.44444445

>  <petitjeanSC>
0.80000001

>  <Q_PC+>
0

>  <Q_PC->
0

>  <Q_RPC+>
0

>  <Q_RPC->
0

>  <Q_VSA_FHYD>
1

>  <Q_VSA_FNEG>
0

>  <Q_VSA_FPNEG>
0

>  <Q_VSA_FPOL>
0

>  <Q_VSA_FPOS>
1

>  <Q_VSA_FPPOS>
0

>  <Q_VSA_HYD>
381.10062

>  <Q_VSA_NEG>
0

>  <Q_VSA_PNEG>
0

>  <Q_VSA_POL>
0

>  <Q_VSA_POS>
381.10062

>  <Q_VSA_PPOS>
0

>  <radius>
5

>  <reactive>
0

>  <rings>
2

>  <RPC+>
0

>  <RPC->
0

>  <rsynth>
1

>  <SlogP>
5.3414202

>  <SlogP_VSA0>
25.385227

>  <SlogP_VSA1>
3.1243138

>  <SlogP_VSA2>
7.9639373

>  <SlogP_VSA3>
18.439579

>  <SlogP_VSA4>
9.5567245

>  <SlogP_VSA5>
0

>  <SlogP_VSA6>
4.4107962

>  <SlogP_VSA7>
141.14548

>  <SlogP_VSA8>
18.868406

>  <SlogP_VSA9>
171.8735

>  <SMR>
10.27238

>  <SMR_VSA0>
0

>  <SMR_VSA1>
28.509541

>  <SMR_VSA2>
0

>  <SMR_VSA3>
27.174887

>  <SMR_VSA4>
0

>  <SMR_VSA5>
160.01389

>  <SMR_VSA6>
18.439579

>  <SMR_VSA7>
166.63008

>  <TPSA>
23.469999

>  <VAdjEq>
0.42571631

>  <VAdjMa>
5.643856

>  <VDistEq>
3.1174152

>  <VDistMa>
8.9200974

>  <vdw_area>
381.10062

>  <vdw_vol>
514.56073

>  <vsa_acc>
0

>  <vsa_acid>
0

>  <vsa_base>
0

>  <vsa_don>
0

>  <vsa_hyd>
340.31

>  <vsa_other>
0

>  <vsa_pol>
13.566921

>  <Weight>
325.496

>  <weinerPath>
1311

>  <weinerPol>
36

>  <zagreb>
118

$$$$