S1c2c(N(c3c1cccc3)CCCN1CCN(CC1)CCO)cc(cc2)C(=O)CC
  MOE2013           2D

 30 33  0  0  1  0  0  0  0  0999 V2000
    0.0000    0.0000    0.0000 S   0  0  0  0  0  0  0  0  0  0  0  0
   -0.7610   -1.2930    0.0000 C   0  0  0  0  0  0  0  0  0  0  0  0
   -0.0220   -2.5980    0.0000 C   0  0  0  0  0  0  0  0  0  0  0  0
    1.4780   -2.6100    0.0000 N   0  0  3  0  0  0  0  0  0  0  0  0
    2.2390   -1.3180    0.0000 C   0  0  0  0  0  0  0  0  0  0  0  0
    1.5000   -0.0120    0.0000 C   0  0  0  0  0  0  0  0  0  0  0  0
    2.2610    1.2800    0.0000 C   0  0  0  0  0  0  0  0  0  0  0  0
    3.7610    1.2680    0.0000 C   0  0  0  0  0  0  0  0  0  0  0  0
    4.5000   -0.0370    0.0000 C   0  0  0  0  0  0  0  0  0  0  0  0
    3.7390   -1.3300    0.0000 C   0  0  0  0  0  0  0  0  0  0  0  0
    2.2180   -3.9160    0.0000 C   0  0  0  0  0  0  0  0  0  0  0  0
    3.7180   -3.9280    0.0000 C   0  0  0  0  0  0  0  0  0  0  0  0
    4.4570   -5.2330    0.0000 C   0  0  0  0  0  0  0  0  0  0  0  0
    5.9570   -5.2460    0.0000 N   0  0  0  0  0  0  0  0  0  0  0  0
    6.6960   -6.5510    0.0000 C   0  0  0  0  0  0  0  0  0  0  0  0
    8.1960   -6.5630    0.0000 C   0  0  0  0  0  0  0  0  0  0  0  0
    8.9570   -5.2700    0.0000 N   0  0  0  0  0  0  0  0  0  0  0  0
    8.2170   -3.9650    0.0000 C   0  0  0  0  0  0  0  0  0  0  0  0
    6.7180   -3.9530    0.0000 C   0  0  0  0  0  0  0  0  0  0  0  0
   10.4570   -5.2830    0.0000 C   0  0  0  0  0  0  0  0  0  0  0  0
   11.1960   -6.5880    0.0000 C   0  0  0  0  0  0  0  0  0  0  0  0
   12.6960   -6.6000    0.0000 O   0  0  0  0  0  0  0  0  0  0  0  0
   -0.7820   -3.8910    0.0000 C   0  0  0  0  0  0  0  0  0  0  0  0
   -2.2820   -3.8780    0.0000 C   0  0  0  0  0  0  0  0  0  0  0  0
   -3.0210   -2.5730    0.0000 C   0  0  0  0  0  0  0  0  0  0  0  0
   -2.2610   -1.2800    0.0000 C   0  0  0  0  0  0  0  0  0  0  0  0
   -3.0430   -5.1710    0.0000 C   0  0  0  0  0  0  0  0  0  0  0  0
   -2.3040   -6.4760    0.0000 O   0  0  0  0  0  0  0  0  0  0  0  0
   -4.5430   -5.1590    0.0000 C   0  0  0  0  0  0  0  0  0  0  0  0
   -5.3040   -6.4520    0.0000 C   0  0  0  0  0  0  0  0  0  0  0  0
  1  2  1  0  0  0  0
  1  6  1  0  0  0  0
  2  3  1  0  0  0  0
  2 26  2  0  0  0  0
  3  4  1  0  0  0  0
  3 23  2  0  0  0  0
  4  5  1  0  0  0  0
  4 11  1  0  0  0  0
  5  6  1  0  0  0  0
  5 10  2  0  0  0  0
  6  7  2  0  0  0  0
  7  8  1  0  0  0  0
  8  9  2  0  0  0  0
  9 10  1  0  0  0  0
 11 12  1  0  0  0  0
 12 13  1  0  0  0  0
 13 14  1  0  0  0  0
 14 15  1  0  0  0  0
 14 19  1  0  0  0  0
 15 16  1  0  0  0  0
 16 17  1  0  0  0  0
 17 18  1  0  0  0  0
 17 20  1  0  0  0  0
 18 19  1  0  0  0  0
 20 21  1  0  0  0  0
 21 22  1  0  0  0  0
 23 24  1  0  0  0  0
 24 25  2  0  0  0  0
 24 27  1  0  0  0  0
 25 26  1  0  0  0  0
 27 28  2  0  0  0  0
 27 29  1  0  0  0  0
 29 30  1  0  0  0  0
M  END
>  <Index>
1382

>  <ID>
HT3809

>  <class>
0

>  <apol>
70.714584

>  <ast_fraglike>
0

>  <ast_fraglike_ext>
0

>  <ast_violation>
3

>  <ast_violation_ext>
4

>  <a_acc>
4

>  <a_acid>
0

>  <a_aro>
12

>  <a_base>
0

>  <a_count>
61

>  <a_don>
1

>  <a_donacc>
5

>  <a_heavy>
30

>  <a_hyd>
24

>  <a_IC>
91.400902

>  <a_ICM>
1.4983755

>  <a_nB>
0

>  <a_nBr>
0

>  <a_nC>
24

>  <a_nCl>
0

>  <a_nF>
0

>  <a_nH>
31

>  <a_nI>
0

>  <a_nN>
3

>  <a_nO>
2

>  <a_nP>
0

>  <a_nS>
1

>  <balabanJ>
1.3341318

>  <BCUT_PEOE_0>
-2.7987831

>  <BCUT_PEOE_1>
-0.65479738

>  <BCUT_PEOE_2>
0.6395883

>  <BCUT_PEOE_3>
2.6941981

>  <BCUT_SLOGP_0>
-2.9128628

>  <BCUT_SLOGP_1>
-0.5014441

>  <BCUT_SLOGP_2>
0.65857816

>  <BCUT_SLOGP_3>
2.6265306

>  <BCUT_SMR_0>
-2.5147781

>  <BCUT_SMR_1>
-0.43761775

>  <BCUT_SMR_2>
0.84192598

>  <BCUT_SMR_3>
2.9698241

>  <bpol>
43.067417

>  <b_1rotN>
8

>  <b_1rotR>
0.24242425

>  <b_ar>
12

>  <b_count>
64

>  <b_double>
1

>  <b_heavy>
33

>  <b_max1len>
4

>  <b_rotN>
8

>  <b_rotR>
0.24242425

>  <b_single>
51

>  <b_triple>
0

>  <chi0>
20.924074

>  <chi0v>
18.534367

>  <chi0v_C>
15.112519

>  <chi0_C>
16.484917

>  <chi1>
14.690203

>  <chi1v>
11.781949

>  <chi1v_C>
7.3760443

>  <chi1_C>
9.0648451

>  <chiral>
0

>  <chiral_u>
0

>  <density>
0.71529579

>  <diameter>
16

>  <FCharge>
0

>  <GCUT_PEOE_0>
-0.85830879

>  <GCUT_PEOE_1>
-0.41141278

>  <GCUT_PEOE_2>
0.062782913

>  <GCUT_PEOE_3>
2.8503613

>  <GCUT_SLOGP_0>
-0.96576953

>  <GCUT_SLOGP_1>
-0.31458351

>  <GCUT_SLOGP_2>
0.13745809

>  <GCUT_SLOGP_3>
2.9236636

>  <GCUT_SMR_0>
-0.52269387

>  <GCUT_SMR_1>
-0.18561973

>  <GCUT_SMR_2>
0.20147233

>  <GCUT_SMR_3>
3.1284761

>  <Kier1>
23.168043

>  <Kier2>
11.227654

>  <Kier3>
5.6887932

>  <KierA1>
19.72772

>  <KierA2>
9.5047674

>  <KierA3>
4.7959776

>  <KierFlex>
6.2502465

>  <lip_acc>
5

>  <lip_don>
1

>  <lip_druglike>
1

>  <lip_violation>
0

>  <logP(o/w)>
3.191

>  <logS>
-4.1980901

>  <mr>
12.362673

>  <mutagenic>
0

>  <nmol>
1

>  <opr_brigid>
22

>  <opr_leadlike>
1

>  <opr_nring>
4

>  <opr_nrot>
10

>  <opr_violation>
0

>  <PC+>
0

>  <PC->
0

>  <PEOE_PC+>
2.034204

>  <PEOE_PC->
-2.034204

>  <PEOE_RPC+>
0.10296444

>  <PEOE_RPC->
0.19356327

>  <PEOE_VSA+0>
214.59753

>  <PEOE_VSA+1>
53.339767

>  <PEOE_VSA+2>
0

>  <PEOE_VSA+3>
8.458519

>  <PEOE_VSA+4>
10.324173

>  <PEOE_VSA+5>
0

>  <PEOE_VSA+6>
0

>  <PEOE_VSA-0>
57.720928

>  <PEOE_VSA-1>
75.27301

>  <PEOE_VSA-2>
0

>  <PEOE_VSA-3>
0

>  <PEOE_VSA-4>
0

>  <PEOE_VSA-5>
13.566921

>  <PEOE_VSA-6>
7.7675405

>  <PEOE_VSA_FHYD>
0.92821962

>  <PEOE_VSA_FNEG>
0.34991261

>  <PEOE_VSA_FPNEG>
0.048372153

>  <PEOE_VSA_FPOL>
0.071780406

>  <PEOE_VSA_FPOS>
0.65008736

>  <PEOE_VSA_FPPOS>
0.023408253

>  <PEOE_VSA_HYD>
409.38977

>  <PEOE_VSA_NEG>
154.3284

>  <PEOE_VSA_PNEG>
21.334461

>  <PEOE_VSA_POL>
31.658634

>  <PEOE_VSA_POS>
286.72

>  <PEOE_VSA_PPOS>
10.324173

>  <petitjean>
0.5

>  <petitjeanSC>
1

>  <Q_PC+>
0

>  <Q_PC->
0

>  <Q_RPC+>
0

>  <Q_RPC->
0

>  <Q_VSA_FHYD>
1

>  <Q_VSA_FNEG>
0

>  <Q_VSA_FPNEG>
0

>  <Q_VSA_FPOL>
0

>  <Q_VSA_FPOS>
1

>  <Q_VSA_FPPOS>
0

>  <Q_VSA_HYD>
441.0484

>  <Q_VSA_NEG>
0

>  <Q_VSA_PNEG>
0

>  <Q_VSA_POL>
0

>  <Q_VSA_POS>
441.0484

>  <Q_VSA_PPOS>
0

>  <radius>
8

>  <reactive>
1

>  <rings>
4

>  <RPC+>
0

>  <RPC->
0

>  <rsynth>
1

>  <SlogP>
3.882

>  <SlogP_VSA0>
28.509541

>  <SlogP_VSA1>
11.936239

>  <SlogP_VSA2>
0

>  <SlogP_VSA3>
150.00331

>  <SlogP_VSA4>
27.047791

>  <SlogP_VSA5>
3.1014678

>  <SlogP_VSA6>
0

>  <SlogP_VSA7>
123.50229

>  <SlogP_VSA8>
37.736813

>  <SlogP_VSA9>
71.059052

>  <SMR>
12.32183

>  <SMR_VSA0>
23.862217

>  <SMR_VSA1>
31.633854

>  <SMR_VSA2>
6.2257819

>  <SMR_VSA3>
3.185575

>  <SMR_VSA4>
5.513495

>  <SMR_VSA5>
161.23911

>  <SMR_VSA6>
155.69092

>  <SMR_VSA7>
65.545555

>  <TPSA>
47.02

>  <VAdjEq>
0.37824166

>  <VAdjMa>
6.044394

>  <VDistEq>
3.7091055

>  <VDistMa>
9.5141134

>  <vdw_area>
441.0484

>  <vdw_vol>
594.99438

>  <vsa_acc>
13.566921

>  <vsa_acid>
0

>  <vsa_base>
0

>  <vsa_don>
0

>  <vsa_hyd>
379.57739

>  <vsa_other>
8.458519

>  <vsa_pol>
27.133842

>  <Weight>
425.59698

>  <weinerPath>
2645

>  <weinerPol>
49

>  <zagreb>
156

$$$$