N1CCCC1
  MOE2013           2D

  5  5  0  0  0  0  0  0  0  0999 V2000
    0.0000    0.0000    0.0000 N   0  0  0  0  0  0  0  0  0  0  0  0
   -1.4270   -0.4640    0.0000 C   0  0  0  0  0  0  0  0  0  0  0  0
   -1.4270   -1.9640    0.0000 C   0  0  0  0  0  0  0  0  0  0  0  0
    0.0000   -2.4270    0.0000 C   0  0  0  0  0  0  0  0  0  0  0  0
    0.8820   -1.2140    0.0000 C   0  0  0  0  0  0  0  0  0  0  0  0
  1  2  1  0  0  0  0
  1  5  1  0  0  0  0
  2  3  1  0  0  0  0
  3  4  1  0  0  0  0
  4  5  1  0  0  0  0
M  END
>  <Index>
1184

>  <ID>
HT2322

>  <class>
0

>  <apol>
14.141137

>  <ast_fraglike>
1

>  <ast_fraglike_ext>
1

>  <ast_violation>
0

>  <ast_violation_ext>
0

>  <a_acc>
1

>  <a_acid>
0

>  <a_aro>
0

>  <a_base>
0

>  <a_count>
14

>  <a_don>
1

>  <a_donacc>
2

>  <a_heavy>
5

>  <a_hyd>
4

>  <a_IC>
16.773643

>  <a_ICM>
1.1981174

>  <a_nB>
0

>  <a_nBr>
0

>  <a_nC>
4

>  <a_nCl>
0

>  <a_nF>
0

>  <a_nH>
9

>  <a_nI>
0

>  <a_nN>
1

>  <a_nO>
0

>  <a_nP>
0

>  <a_nS>
0

>  <balabanJ>
2.0833333

>  <BCUT_PEOE_0>
-2.4527142

>  <BCUT_PEOE_1>
-0.39513239

>  <BCUT_PEOE_2>
0.45484367

>  <BCUT_PEOE_3>
2.6406205

>  <BCUT_SLOGP_0>
-2.5886936

>  <BCUT_SLOGP_1>
-0.35330725

>  <BCUT_SLOGP_2>
0.48984459

>  <BCUT_SLOGP_3>
2.6538255

>  <BCUT_SMR_0>
-2.2206104

>  <BCUT_SMR_1>
-0.29027531

>  <BCUT_SMR_2>
0.55266589

>  <BCUT_SMR_3>
2.9069717

>  <bpol>
10.498863

>  <b_1rotN>
0

>  <b_1rotR>
0

>  <b_ar>
0

>  <b_count>
14

>  <b_double>
0

>  <b_heavy>
5

>  <b_max1len>
2

>  <b_rotN>
0

>  <b_rotR>
0

>  <b_single>
14

>  <b_triple>
0

>  <chi0>
3.5355339

>  <chi0v>
3.3284271

>  <chi0v_C>
2.8284271

>  <chi0_C>
2.8284271

>  <chi1>
2.5

>  <chi1v>
2.2071068

>  <chi1v_C>
1.5

>  <chi1_C>
1.5

>  <chiral>
0

>  <chiral_u>
0

>  <density>
0.62386501

>  <diameter>
2

>  <FCharge>
0

>  <GCUT_PEOE_0>
-0.85814965

>  <GCUT_PEOE_1>
-0.30205646

>  <GCUT_PEOE_2>
0.040151257

>  <GCUT_PEOE_3>
2.0901675

>  <GCUT_SLOGP_0>
-1.1562279

>  <GCUT_SLOGP_1>
-0.23132615

>  <GCUT_SLOGP_2>
0.11162604

>  <GCUT_SLOGP_3>
2.1058528

>  <GCUT_SMR_0>
-0.52623183

>  <GCUT_SMR_1>
-0.17084475

>  <GCUT_SMR_2>
0.10575433

>  <GCUT_SMR_3>
2.3189228

>  <Kier1>
3.2

>  <Kier2>
1.4400001

>  <Kier3>
0.63999999

>  <KierA1>
3.2

>  <KierA2>
1.4400001

>  <KierA3>
0.63999999

>  <KierFlex>
0.92159998

>  <lip_acc>
1

>  <lip_don>
1

>  <lip_druglike>
1

>  <lip_violation>
0

>  <logP(o/w)>
0.43099999

>  <logS>
0.09014

>  <mr>
2.2069559

>  <mutagenic>
0

>  <nmol>
1

>  <opr_brigid>
5

>  <opr_leadlike>
1

>  <opr_nring>
1

>  <opr_nrot>
1

>  <opr_violation>
0

>  <PC+>
0

>  <PC->
0

>  <PEOE_PC+>
0.40267983

>  <PEOE_PC->
-0.40267983

>  <PEOE_RPC+>
0.30280939

>  <PEOE_RPC->
0.78466499

>  <PEOE_VSA+0>
34.123089

>  <PEOE_VSA+1>
0

>  <PEOE_VSA+2>
8.6190128

>  <PEOE_VSA+3>
0

>  <PEOE_VSA+4>
0

>  <PEOE_VSA+5>
0

>  <PEOE_VSA+6>
0

>  <PEOE_VSA-0>
43.787277

>  <PEOE_VSA-1>
0

>  <PEOE_VSA-2>
0

>  <PEOE_VSA-3>
0

>  <PEOE_VSA-4>
0

>  <PEOE_VSA-5>
0

>  <PEOE_VSA-6>
0.13689101

>  <PEOE_VSA_FHYD>
0.99842048

>  <PEOE_VSA_FNEG>
0.50681967

>  <PEOE_VSA_FPNEG>
0.0015795188

>  <PEOE_VSA_FPOL>
0.0015795188

>  <PEOE_VSA_FPOS>
0.49318036

>  <PEOE_VSA_FPPOS>
0

>  <PEOE_VSA_HYD>
86.529381

>  <PEOE_VSA_NEG>
43.924168

>  <PEOE_VSA_PNEG>
0.13689101

>  <PEOE_VSA_POL>
0.13689101

>  <PEOE_VSA_POS>
42.7421

>  <PEOE_VSA_PPOS>
0

>  <petitjean>
0

>  <petitjeanSC>
0

>  <Q_PC+>
0

>  <Q_PC->
0

>  <Q_RPC+>
0

>  <Q_RPC->
0

>  <Q_VSA_FHYD>
1

>  <Q_VSA_FNEG>
0

>  <Q_VSA_FPNEG>
0

>  <Q_VSA_FPOL>
0

>  <Q_VSA_FPOS>
1

>  <Q_VSA_FPPOS>
0

>  <Q_VSA_HYD>
86.666267

>  <Q_VSA_NEG>
0

>  <Q_VSA_PNEG>
0

>  <Q_VSA_POL>
0

>  <Q_VSA_POS>
86.666267

>  <Q_VSA_PPOS>
0

>  <radius>
2

>  <reactive>
0

>  <rings>
1

>  <RPC+>
0

>  <RPC->
0

>  <rsynth>
1

>  <SlogP>
0.3698

>  <SlogP_VSA0>
18.01075

>  <SlogP_VSA1>
0

>  <SlogP_VSA2>
0

>  <SlogP_VSA3>
36.879158

>  <SlogP_VSA4>
0

>  <SlogP_VSA5>
0

>  <SlogP_VSA6>
0

>  <SlogP_VSA7>
0

>  <SlogP_VSA8>
37.736813

>  <SlogP_VSA9>
0

>  <SMR>
2.2103701

>  <SMR_VSA0>
0

>  <SMR_VSA1>
0

>  <SMR_VSA2>
18.01075

>  <SMR_VSA3>
0

>  <SMR_VSA4>
0

>  <SMR_VSA5>
37.736813

>  <SMR_VSA6>
36.879158

>  <SMR_VSA7>
0

>  <TPSA>
12.03

>  <VAdjEq>
0.9709506

>  <VAdjMa>
3.321928

>  <VDistEq>
1

>  <VDistMa>
4.2402239

>  <vdw_area>
86.666267

>  <vdw_vol>
114.00383

>  <vsa_acc>
0

>  <vsa_acid>
0

>  <vsa_base>
0

>  <vsa_don>
0

>  <vsa_hyd>
72.216003

>  <vsa_other>
0

>  <vsa_pol>
5.6825762

>  <Weight>
71.123001

>  <weinerPath>
15

>  <weinerPol>
0

>  <zagreb>
20

$$$$