ClC(Cl)(Cl)C=O
  MOE2013           2D

  6  5  0  0  0  0  0  0  0  0999 V2000
    0.0000    0.0000    0.0000 Cl  0  0  0  0  0  0  0  0  0  0  0  0
    0.7500   -1.2990    0.0000 C   0  0  0  0  0  0  0  0  0  0  0  0
   -0.5490   -2.0490    0.0000 Cl  0  0  0  0  0  0  0  0  0  0  0  0
    1.5000   -2.5980    0.0000 Cl  0  0  0  0  0  0  0  0  0  0  0  0
    2.0490   -0.5490    0.0000 C   0  0  0  0  0  0  0  0  0  0  0  0
    3.3480   -1.2990    0.0000 O   0  0  0  0  0  0  0  0  0  0  0  0
  1  2  1  0  0  0  0
  2  3  1  0  0  0  0
  2  4  1  0  0  0  0
  2  5  1  0  0  0  0
  5  6  2  0  0  0  0
M  END
>  <Index>
1221

>  <ID>
HT2616

>  <class>
0

>  <apol>
11.528793

>  <ast_fraglike>
1

>  <ast_fraglike_ext>
1

>  <ast_violation>
0

>  <ast_violation_ext>
0

>  <a_acc>
1

>  <a_acid>
0

>  <a_aro>
0

>  <a_base>
0

>  <a_count>
7

>  <a_don>
0

>  <a_donacc>
1

>  <a_heavy>
6

>  <a_hyd>
3

>  <a_IC>
12.896597

>  <a_ICM>
1.842371

>  <a_nB>
0

>  <a_nBr>
0

>  <a_nC>
2

>  <a_nCl>
3

>  <a_nF>
0

>  <a_nH>
1

>  <a_nI>
0

>  <a_nN>
0

>  <a_nO>
1

>  <a_nP>
0

>  <a_nS>
0

>  <balabanJ>
3.2202296

>  <BCUT_PEOE_0>
-2.0105805

>  <BCUT_PEOE_1>
-0.15327707

>  <BCUT_PEOE_2>
-0.075576715

>  <BCUT_PEOE_3>
2.2461033

>  <BCUT_SLOGP_0>
-2.1320808

>  <BCUT_SLOGP_1>
-0.06046924

>  <BCUT_SLOGP_2>
0.68949997

>  <BCUT_SLOGP_3>
2.2530212

>  <BCUT_SMR_0>
-1.7336795

>  <BCUT_SMR_1>
0.036334973

>  <BCUT_SMR_2>
0.58530003

>  <BCUT_SMR_3>
2.5260224

>  <bpol>
3.3112071

>  <b_1rotN>
0

>  <b_1rotR>
0

>  <b_ar>
0

>  <b_count>
6

>  <b_double>
1

>  <b_heavy>
5

>  <b_max1len>
3

>  <b_rotN>
1

>  <b_rotR>
0.2

>  <b_single>
5

>  <b_triple>
0

>  <chi0>
5.2071066

>  <chi0v>
4.887279

>  <chi0v_C>
1.0773503

>  <chi0_C>
1.2071068

>  <chi1>
2.5606601

>  <chi1v>
2.2252176

>  <chi1v_C>
0.28867513

>  <chi1_C>
0.35355338

>  <chiral>
0

>  <chiral_u>
0

>  <density>
1.3183059

>  <diameter>
3

>  <FCharge>
0

>  <GCUT_PEOE_0>
-0.61379731

>  <GCUT_PEOE_1>
-0.23557672

>  <GCUT_PEOE_2>
-0.21618636

>  <GCUT_PEOE_3>
1.4709529

>  <GCUT_SLOGP_0>
-0.86469316

>  <GCUT_SLOGP_1>
-0.17629638

>  <GCUT_SLOGP_2>
0.52950001

>  <GCUT_SLOGP_3>
1.6169096

>  <GCUT_SMR_0>
-0.35556522

>  <GCUT_SMR_1>
-0.097621031

>  <GCUT_SMR_2>
0.4253

>  <GCUT_SMR_3>
1.7982259

>  <Kier1>
6

>  <Kier2>
1.6326531

>  <Kier3>
5.3333335

>  <KierA1>
10.408196

>  <KierA2>
3.1800721

>  <KierA3>
11.606826

>  <KierFlex>
5.516469

>  <lip_acc>
1

>  <lip_don>
0

>  <lip_druglike>
1

>  <lip_violation>
0

>  <logP(o/w)>
1.55308

>  <logS>
-2.0308499

>  <mr>
2.57797

>  <mutagenic>
1

>  <nmol>
1

>  <opr_brigid>
0

>  <opr_leadlike>
1

>  <opr_nring>
0

>  <opr_nrot>
0

>  <opr_violation>
0

>  <PC+>
0

>  <PC->
0

>  <PEOE_PC+>
0.52327788

>  <PEOE_PC->
-0.52327788

>  <PEOE_RPC+>
0.46863395

>  <PEOE_RPC->
0.56671172

>  <PEOE_VSA+0>
0

>  <PEOE_VSA+1>
0

>  <PEOE_VSA+2>
4.2653861

>  <PEOE_VSA+3>
18.504883

>  <PEOE_VSA+4>
0

>  <PEOE_VSA+5>
0

>  <PEOE_VSA+6>
0

>  <PEOE_VSA-0>
0

>  <PEOE_VSA-1>
88.745842

>  <PEOE_VSA-2>
0

>  <PEOE_VSA-3>
0

>  <PEOE_VSA-4>
0

>  <PEOE_VSA-5>
13.566921

>  <PEOE_VSA-6>
0

>  <PEOE_VSA_FHYD>
0.89153665

>  <PEOE_VSA_FNEG>
0.81795877

>  <PEOE_VSA_FPNEG>
0.10846332

>  <PEOE_VSA_FPOL>
0.10846332

>  <PEOE_VSA_FPOS>
0.18204124

>  <PEOE_VSA_FPPOS>
0

>  <PEOE_VSA_HYD>
111.51611

>  <PEOE_VSA_NEG>
102.31276

>  <PEOE_VSA_PNEG>
13.566921

>  <PEOE_VSA_POL>
13.566921

>  <PEOE_VSA_POS>
22.770269

>  <PEOE_VSA_PPOS>
0

>  <petitjean>
0.33333334

>  <petitjeanSC>
0.5

>  <Q_PC+>
0

>  <Q_PC->
0

>  <Q_RPC+>
0

>  <Q_RPC->
0

>  <Q_VSA_FHYD>
1

>  <Q_VSA_FNEG>
0

>  <Q_VSA_FPNEG>
0

>  <Q_VSA_FPOL>
0

>  <Q_VSA_FPOS>
1

>  <Q_VSA_FPPOS>
0

>  <Q_VSA_HYD>
125.08303

>  <Q_VSA_NEG>
0

>  <Q_VSA_PNEG>
0

>  <Q_VSA_POL>
0

>  <Q_VSA_POS>
125.08303

>  <Q_VSA_PPOS>
0

>  <radius>
2

>  <reactive>
1

>  <rings>
0

>  <RPC+>
0

>  <RPC->
0

>  <rsynth>
1

>  <SlogP>
1.5555

>  <SlogP_VSA0>
0

>  <SlogP_VSA1>
0

>  <SlogP_VSA2>
44.007435

>  <SlogP_VSA3>
0

>  <SlogP_VSA4>
0

>  <SlogP_VSA5>
0

>  <SlogP_VSA6>
0

>  <SlogP_VSA7>
0

>  <SlogP_VSA8>
0

>  <SlogP_VSA9>
117.44593

>  <SMR>
2.6354001

>  <SMR_VSA0>
23.862217

>  <SMR_VSA1>
0

>  <SMR_VSA2>
0

>  <SMR_VSA3>
0

>  <SMR_VSA4>
0

>  <SMR_VSA5>
0

>  <SMR_VSA6>
0

>  <SMR_VSA7>
137.59116

>  <TPSA>
17.07

>  <VAdjEq>
0.85240519

>  <VAdjMa>
3.321928

>  <VDistEq>
1.5058231

>  <VDistMa>
4.7979026

>  <vdw_area>
125.08303

>  <vdw_vol>
111.80106

>  <vsa_acc>
13.566921

>  <vsa_acid>
0

>  <vsa_base>
0

>  <vsa_don>
0

>  <vsa_hyd>
88.745842

>  <vsa_other>
22.058474

>  <vsa_pol>
13.566921

>  <Weight>
147.388

>  <weinerPath>
28

>  <weinerPol>
3

>  <zagreb>
24

$$$$