O(C(=O)C)c1cc(ccc1)C
  MOE2013           2D

 11 11  0  0  0  0  0  0  0  0999 V2000
    0.0000    0.0000    0.0000 O   0  0  0  0  0  0  0  0  0  0  0  0
   -1.3010    0.7470    0.0000 C   0  0  0  0  0  0  0  0  0  0  0  0
   -1.3040    2.2470    0.0000 O   0  0  0  0  0  0  0  0  0  0  0  0
   -2.5980   -0.0060    0.0000 C   0  0  0  0  0  0  0  0  0  0  0  0
    1.2970    0.7530    0.0000 C   0  0  0  0  0  0  0  0  0  0  0  0
    2.5980    0.0060    0.0000 C   0  0  0  0  0  0  0  0  0  0  0  0
    3.8950    0.7590    0.0000 C   0  0  0  0  0  0  0  0  0  0  0  0
    3.8920    2.2590    0.0000 C   0  0  0  0  0  0  0  0  0  0  0  0
    2.5910    3.0060    0.0000 C   0  0  0  0  0  0  0  0  0  0  0  0
    1.2940    2.2530    0.0000 C   0  0  0  0  0  0  0  0  0  0  0  0
    5.1960    0.0130    0.0000 C   0  0  0  0  0  0  0  0  0  0  0  0
  1  2  1  0  0  0  0
  1  5  1  0  0  0  0
  2  3  2  0  0  0  0
  2  4  1  0  0  0  0
  5  6  1  0  0  0  0
  5 10  2  0  0  0  0
  6  7  2  0  0  0  0
  7  8  1  0  0  0  0
  7 11  1  0  0  0  0
  8  9  2  0  0  0  0
  9 10  1  0  0  0  0
M  END
>  <Index>
1226

>  <ID>
HT2627

>  <class>
0

>  <apol>
24.111931

>  <ast_fraglike>
1

>  <ast_fraglike_ext>
1

>  <ast_violation>
0

>  <ast_violation_ext>
0

>  <a_acc>
1

>  <a_acid>
0

>  <a_aro>
6

>  <a_base>
0

>  <a_count>
21

>  <a_don>
0

>  <a_donacc>
1

>  <a_heavy>
11

>  <a_hyd>
8

>  <a_IC>
28.490061

>  <a_ICM>
1.3566695

>  <a_nB>
0

>  <a_nBr>
0

>  <a_nC>
9

>  <a_nCl>
0

>  <a_nF>
0

>  <a_nH>
10

>  <a_nI>
0

>  <a_nN>
0

>  <a_nO>
2

>  <a_nP>
0

>  <a_nS>
0

>  <balabanJ>
2.2611735

>  <BCUT_PEOE_0>
-2.2879498

>  <BCUT_PEOE_1>
-0.49683553

>  <BCUT_PEOE_2>
0.41692969

>  <BCUT_PEOE_3>
2.2712667

>  <BCUT_SLOGP_0>
-2.2335649

>  <BCUT_SLOGP_1>
-0.42288339

>  <BCUT_SLOGP_2>
0.50093871

>  <BCUT_SLOGP_3>
2.4134943

>  <BCUT_SMR_0>
-2.0021875

>  <BCUT_SMR_1>
-0.28741163

>  <BCUT_SMR_2>
0.60490108

>  <BCUT_SMR_3>
2.5556602

>  <bpol>
13.80607

>  <b_1rotN>
1

>  <b_1rotR>
0.090909094

>  <b_ar>
6

>  <b_count>
21

>  <b_double>
1

>  <b_heavy>
11

>  <b_max1len>
2

>  <b_rotN>
2

>  <b_rotR>
0.18181819

>  <b_single>
14

>  <b_triple>
0

>  <chi0>
8.2675848

>  <chi0v>
6.6258979

>  <chi0v_C>
5.809401

>  <chi0_C>
6.5604777

>  <chi1>
5.1815405

>  <chi1v>
3.4337397

>  <chi1v_C>
2.8213673

>  <chi1_C>
3.7876937

>  <chiral>
0

>  <chiral_u>
0

>  <density>
0.70176923

>  <diameter>
6

>  <FCharge>
0

>  <GCUT_PEOE_0>
-0.75599861

>  <GCUT_PEOE_1>
-0.39872107

>  <GCUT_PEOE_2>
-0.033303034

>  <GCUT_PEOE_3>
2.0997303

>  <GCUT_SLOGP_0>
-0.91091549

>  <GCUT_SLOGP_1>
-0.29411113

>  <GCUT_SLOGP_2>
0.083351128

>  <GCUT_SLOGP_3>
2.2472413

>  <GCUT_SMR_0>
-0.47946307

>  <GCUT_SMR_1>
-0.19797146

>  <GCUT_SMR_2>
0.11843137

>  <GCUT_SMR_3>
2.3821111

>  <Kier1>
9.090909

>  <Kier2>
4.1326532

>  <Kier3>
3.2653062

>  <KierA1>
6.5231295

>  <KierA2>
2.8546913

>  <KierA3>
2.1793199

>  <KierFlex>
1.6928656

>  <lip_acc>
2

>  <lip_don>
0

>  <lip_druglike>
1

>  <lip_violation>
0

>  <logP(o/w)>
2.174

>  <logS>
-2.2123201

>  <mr>
4.3909345

>  <mutagenic>
0

>  <nmol>
1

>  <opr_brigid>
6

>  <opr_leadlike>
1

>  <opr_nring>
1

>  <opr_nrot>
1

>  <opr_violation>
0

>  <PC+>
0

>  <PC->
0

>  <PEOE_PC+>
0.8073718

>  <PEOE_PC->
-0.8073718

>  <PEOE_RPC+>
0.32698175

>  <PEOE_RPC->
0.3442283

>  <PEOE_VSA+0>
44.339993

>  <PEOE_VSA+1>
25.520063

>  <PEOE_VSA+2>
0

>  <PEOE_VSA+3>
0

>  <PEOE_VSA+4>
0

>  <PEOE_VSA+5>
14.708499

>  <PEOE_VSA+6>
0

>  <PEOE_VSA-0>
45.466026

>  <PEOE_VSA-1>
24.509808

>  <PEOE_VSA-2>
0

>  <PEOE_VSA-3>
0

>  <PEOE_VSA-4>
0

>  <PEOE_VSA-5>
16.070677

>  <PEOE_VSA-6>
0

>  <PEOE_VSA_FHYD>
0.81959873

>  <PEOE_VSA_FNEG>
0.50433123

>  <PEOE_VSA_FPNEG>
0.094192602

>  <PEOE_VSA_FPOL>
0.18040128

>  <PEOE_VSA_FPOS>
0.49566874

>  <PEOE_VSA_FPPOS>
0.086208679

>  <PEOE_VSA_HYD>
139.83589

>  <PEOE_VSA_NEG>
86.046509

>  <PEOE_VSA_PNEG>
16.070677

>  <PEOE_VSA_POL>
30.779177

>  <PEOE_VSA_POS>
84.568558

>  <PEOE_VSA_PPOS>
14.708499

>  <petitjean>
0.5

>  <petitjeanSC>
1

>  <Q_PC+>
0

>  <Q_PC->
0

>  <Q_RPC+>
0

>  <Q_RPC->
0

>  <Q_VSA_FHYD>
1

>  <Q_VSA_FNEG>
0

>  <Q_VSA_FPNEG>
0

>  <Q_VSA_FPOL>
0

>  <Q_VSA_FPOS>
1

>  <Q_VSA_FPPOS>
0

>  <Q_VSA_HYD>
170.61507

>  <Q_VSA_NEG>
0

>  <Q_VSA_PNEG>
0

>  <Q_VSA_POL>
0

>  <Q_VSA_POS>
170.61507

>  <Q_VSA_PPOS>
0

>  <radius>
3

>  <reactive>
0

>  <rings>
1

>  <RPC+>
0

>  <RPC->
0

>  <rsynth>
1

>  <SlogP>
1.92032

>  <SlogP_VSA0>
10.999887

>  <SlogP_VSA1>
7.7454643

>  <SlogP_VSA2>
23.862217

>  <SlogP_VSA3>
0

>  <SlogP_VSA4>
3.185575

>  <SlogP_VSA5>
0

>  <SlogP_VSA6>
0

>  <SlogP_VSA7>
70.572739

>  <SlogP_VSA8>
0

>  <SlogP_VSA9>
71.895454

>  <SMR>
4.2487998

>  <SMR_VSA0>
23.862217

>  <SMR_VSA1>
10.999887

>  <SMR_VSA2>
0

>  <SMR_VSA3>
8.4290028

>  <SMR_VSA4>
0

>  <SMR_VSA5>
70.572739

>  <SMR_VSA6>
7.7454643

>  <SMR_VSA7>
66.652031

>  <TPSA>
26.299999

>  <VAdjEq>
0.68403846

>  <VAdjMa>
4.4594316

>  <VDistEq>
2.4822767

>  <VDistMa>
6.5867591

>  <vdw_area>
170.61507

>  <vdw_vol>
213.9977

>  <vsa_acc>
13.566921

>  <vsa_acid>
0

>  <vsa_base>
0

>  <vsa_don>
0

>  <vsa_hyd>
132.71794

>  <vsa_other>
17.212255

>  <vsa_pol>
13.566921

>  <Weight>
150.177

>  <weinerPath>
162

>  <weinerPol>
11

>  <zagreb>
50

$$$$