O(C(=O)CCCCCCCC=CCCCCCCCC)CCN
  MOE2013           2D

 23 22  0  0  0  0  0  0  0  0999 V2000
    0.0000    0.0000    0.0000 O   0  0  0  0  0  0  0  0  0  0  0  0
    1.3000   -0.7490    0.0000 C   0  0  0  0  0  0  0  0  0  0  0  0
    1.3010   -2.2490    0.0000 O   0  0  0  0  0  0  0  0  0  0  0  0
    2.5980    0.0020    0.0000 C   0  0  0  0  0  0  0  0  0  0  0  0
    3.8980   -0.7470    0.0000 C   0  0  0  0  0  0  0  0  0  0  0  0
    5.1960    0.0040    0.0000 C   0  0  0  0  0  0  0  0  0  0  0  0
    6.4960   -0.7450    0.0000 C   0  0  0  0  0  0  0  0  0  0  0  0
    7.7940    0.0060    0.0000 C   0  0  0  0  0  0  0  0  0  0  0  0
    9.0940   -0.7440    0.0000 C   0  0  0  0  0  0  0  0  0  0  0  0
   10.3920    0.0070    0.0000 C   0  0  0  0  0  0  0  0  0  0  0  0
   11.6920   -0.7420    0.0000 C   0  0  0  0  0  0  0  0  0  0  0  0
   12.9900    0.0090    0.0000 C   0  0  0  0  0  0  0  0  0  0  0  0
   14.2900   -0.7400    0.0000 C   0  0  0  0  0  0  0  0  0  0  0  0
   15.5880    0.0110    0.0000 C   0  0  0  0  0  0  0  0  0  0  0  0
   16.8880   -0.7380    0.0000 C   0  0  0  0  0  0  0  0  0  0  0  0
   18.1870    0.0130    0.0000 C   0  0  0  0  0  0  0  0  0  0  0  0
   19.4860   -0.7360    0.0000 C   0  0  0  0  0  0  0  0  0  0  0  0
   20.7850    0.0150    0.0000 C   0  0  0  0  0  0  0  0  0  0  0  0
   22.0840   -0.7340    0.0000 C   0  0  0  0  0  0  0  0  0  0  0  0
   23.3830    0.0170    0.0000 C   0  0  0  0  0  0  0  0  0  0  0  0
   -0.0010    1.5000    0.0000 C   0  0  0  0  0  0  0  0  0  0  0  0
   -1.3010    2.2490    0.0000 C   0  0  0  0  0  0  0  0  0  0  0  0
   -1.3020    3.7490    0.0000 N   0  0  0  0  0  0  0  0  0  0  0  0
  1  2  1  0  0  0  0
  1 21  1  0  0  0  0
  2  3  2  0  0  0  0
  2  4  1  0  0  0  0
  4  5  1  0  0  0  0
  5  6  1  0  0  0  0
  6  7  1  0  0  0  0
  7  8  1  0  0  0  0
  8  9  1  0  0  0  0
  9 10  1  0  0  0  0
 10 11  1  0  0  0  0
 11 12  2  3  0  0  0
 12 13  1  0  0  0  0
 13 14  1  0  0  0  0
 14 15  1  0  0  0  0
 15 16  1  0  0  0  0
 16 17  1  0  0  0  0
 17 18  1  0  0  0  0
 18 19  1  0  0  0  0
 19 20  1  0  0  0  0
 21 22  1  0  0  0  0
 22 23  1  0  0  0  0
M  END
>  <Index>
1337

>  <ID>
HT3482

>  <class>
0

>  <apol>
63.908928

>  <ast_fraglike>
0

>  <ast_fraglike_ext>
0

>  <ast_violation>
2

>  <ast_violation_ext>
3

>  <a_acc>
2

>  <a_acid>
0

>  <a_aro>
0

>  <a_base>
0

>  <a_count>
62

>  <a_don>
1

>  <a_donacc>
3

>  <a_heavy>
23

>  <a_hyd>
19

>  <a_IC>
74.590919

>  <a_ICM>
1.2030793

>  <a_nB>
0

>  <a_nBr>
0

>  <a_nC>
20

>  <a_nCl>
0

>  <a_nF>
0

>  <a_nH>
39

>  <a_nI>
0

>  <a_nN>
1

>  <a_nO>
2

>  <a_nP>
0

>  <a_nS>
0

>  <balabanJ>
3.0246556

>  <BCUT_PEOE_0>
-2.7010334

>  <BCUT_PEOE_1>
-0.45448855

>  <BCUT_PEOE_2>
0.44412461

>  <BCUT_PEOE_3>
2.6359732

>  <BCUT_SLOGP_0>
-2.6991084

>  <BCUT_SLOGP_1>
-0.33384413

>  <BCUT_SLOGP_2>
0.53982186

>  <BCUT_SLOGP_3>
2.8054054

>  <BCUT_SMR_0>
-2.4466653

>  <BCUT_SMR_1>
-0.27148262

>  <BCUT_SMR_2>
0.53234422

>  <BCUT_SMR_3>
2.8902256

>  <bpol>
44.849072

>  <b_1rotN>
17

>  <b_1rotR>
0.77272725

>  <b_ar>
0

>  <b_count>
61

>  <b_double>
2

>  <b_heavy>
22

>  <b_max1len>
10

>  <b_rotN>
18

>  <b_rotR>
0.81818181

>  <b_single>
59

>  <b_triple>
0

>  <chi0>
17.012379

>  <chi0v>
15.362256

>  <chi0v_C>
13.968409

>  <chi0_C>
14.305272

>  <chi1>
11.308061

>  <chi1v>
9.8156614

>  <chi1v_C>
8.7104902

>  <chi1_C>
9.1153555

>  <chiral>
0

>  <chiral_u>
0

>  <density>
0.6223352

>  <diameter>
21

>  <FCharge>
0

>  <GCUT_PEOE_0>
-0.83180773

>  <GCUT_PEOE_1>
-0.36203635

>  <GCUT_PEOE_2>
0.028911311

>  <GCUT_PEOE_3>
2.649523

>  <GCUT_SLOGP_0>
-1.3632281

>  <GCUT_SLOGP_1>
-0.25363839

>  <GCUT_SLOGP_2>
0.10290355

>  <GCUT_SLOGP_3>
2.788552

>  <GCUT_SMR_0>
-0.53389442

>  <GCUT_SMR_1>
-0.16562857

>  <GCUT_SMR_2>
0.098052815

>  <GCUT_SMR_3>
2.8721621

>  <Kier1>
23

>  <Kier2>
20.045454

>  <Kier3>
19.954649

>  <KierA1>
21.31214

>  <KierA2>
18.507221

>  <KierA3>
18.372942

>  <KierFlex>
17.149063

>  <lip_acc>
3

>  <lip_don>
2

>  <lip_druglike>
1

>  <lip_violation>
1

>  <logP(o/w)>
5.4260001

>  <logS>
-7.0900798

>  <mr>
10.096128

>  <mutagenic>
0

>  <nmol>
1

>  <opr_brigid>
1

>  <opr_leadlike>
0

>  <opr_nring>
0

>  <opr_nrot>
17

>  <opr_violation>
2

>  <PC+>
0

>  <PC->
0

>  <PEOE_PC+>
1.7872432

>  <PEOE_PC->
-1.7872432

>  <PEOE_RPC+>
0.14670527

>  <PEOE_RPC->
0.18344809

>  <PEOE_VSA+0>
162.65138

>  <PEOE_VSA+1>
32.012836

>  <PEOE_VSA+2>
17.238026

>  <PEOE_VSA+3>
0

>  <PEOE_VSA+4>
0

>  <PEOE_VSA+5>
14.708499

>  <PEOE_VSA+6>
0

>  <PEOE_VSA-0>
43.506565

>  <PEOE_VSA-1>
112.86799

>  <PEOE_VSA-2>
0

>  <PEOE_VSA-3>
0

>  <PEOE_VSA-4>
0

>  <PEOE_VSA-5>
13.566921

>  <PEOE_VSA-6>
9.1548758

>  <PEOE_VSA_FHYD>
0.90774059

>  <PEOE_VSA_FNEG>
0.44144249

>  <PEOE_VSA_FPNEG>
0.056005422

>  <PEOE_VSA_FPOL>
0.092259407

>  <PEOE_VSA_FPOS>
0.55855751

>  <PEOE_VSA_FPPOS>
0.036253985

>  <PEOE_VSA_HYD>
368.27679

>  <PEOE_VSA_NEG>
179.09636

>  <PEOE_VSA_PNEG>
22.721796

>  <PEOE_VSA_POL>
37.430294

>  <PEOE_VSA_POS>
226.61073

>  <PEOE_VSA_PPOS>
14.708499

>  <petitjean>
0.47619048

>  <petitjeanSC>
0.90909094

>  <Q_PC+>
0

>  <Q_PC->
0

>  <Q_RPC+>
0

>  <Q_RPC->
0

>  <Q_VSA_FHYD>
1

>  <Q_VSA_FNEG>
0

>  <Q_VSA_FPNEG>
0

>  <Q_VSA_FPOL>
0

>  <Q_VSA_FPOS>
1

>  <Q_VSA_FPPOS>
0

>  <Q_VSA_HYD>
405.70709

>  <Q_VSA_NEG>
0

>  <Q_VSA_PNEG>
0

>  <Q_VSA_POL>
0

>  <Q_VSA_POS>
405.70709

>  <Q_VSA_PPOS>
0

>  <radius>
11

>  <reactive>
0

>  <rings>
0

>  <RPC+>
0

>  <RPC->
0

>  <rsynth>
1

>  <SlogP>
5.5258002

>  <SlogP_VSA0>
32.897186

>  <SlogP_VSA1>
7.7454643

>  <SlogP_VSA2>
34.862103

>  <SlogP_VSA3>
39.365837

>  <SlogP_VSA4>
0

>  <SlogP_VSA5>
0

>  <SlogP_VSA6>
0

>  <SlogP_VSA7>
35.286369

>  <SlogP_VSA8>
264.15768

>  <SlogP_VSA9>
33.326015

>  <SMR>
9.9465399

>  <SMR_VSA0>
34.862103

>  <SMR_VSA1>
0

>  <SMR_VSA2>
0

>  <SMR_VSA3>
0

>  <SMR_VSA4>
32.897186

>  <SMR_VSA5>
299.44403

>  <SMR_VSA6>
47.111301

>  <SMR_VSA7>
33.326015

>  <TPSA>
52.32

>  <VAdjEq>
0.41327167

>  <VAdjMa>
5.4594316

>  <VDistEq>
4.1511774

>  <VDistMa>
8.6613388

>  <vdw_area>
405.70709

>  <vdw_vol>
523.08948

>  <vsa_acc>
13.566921

>  <vsa_acid>
0

>  <vsa_base>
0

>  <vsa_don>
0

>  <vsa_hyd>
324.70233

>  <vsa_other>
17.212255

>  <vsa_pol>
31.30941

>  <Weight>
325.53699

>  <weinerPath>
1956

>  <weinerPol>
21

>  <zagreb>
88

$$$$