S(=O)(=O)(NC(=O)c1ccccc1)c1ccc(N)cc1
  MOE2013           2D

 19 20  0  0  0  0  0  0  0  0999 V2000
    0.0000    0.0000    0.0000 S   0  0  0  0  0  0  0  0  0  0  0  0
   -0.0050    1.5000    0.0000 O   0  0  0  0  0  0  0  0  0  0  0  0
    0.0050   -1.5000    0.0000 O   0  0  0  0  0  0  0  0  0  0  0  0
   -1.5000   -0.0050    0.0000 N   0  0  0  0  0  0  0  0  0  0  0  0
   -2.2540    1.2920    0.0000 C   0  0  0  0  0  0  0  0  0  0  0  0
   -1.5080    2.5930    0.0000 O   0  0  0  0  0  0  0  0  0  0  0  0
   -3.7540    1.2870    0.0000 C   0  0  0  0  0  0  0  0  0  0  0  0
   -4.5000   -0.0140    0.0000 C   0  0  0  0  0  0  0  0  0  0  0  0
   -6.0000   -0.0180    0.0000 C   0  0  0  0  0  0  0  0  0  0  0  0
   -6.7540    1.2780    0.0000 C   0  0  0  0  0  0  0  0  0  0  0  0
   -6.0080    2.5800    0.0000 C   0  0  0  0  0  0  0  0  0  0  0  0
   -4.5080    2.5840    0.0000 C   0  0  0  0  0  0  0  0  0  0  0  0
    1.5000    0.0050    0.0000 C   0  0  0  0  0  0  0  0  0  0  0  0
    2.2460    1.3060    0.0000 C   0  0  0  0  0  0  0  0  0  0  0  0
    3.7460    1.3110    0.0000 C   0  0  0  0  0  0  0  0  0  0  0  0
    4.5000    0.0140    0.0000 C   0  0  0  0  0  0  0  0  0  0  0  0
    6.0000    0.0180    0.0000 N   0  0  0  0  0  0  0  0  0  0  0  0
    3.7540   -1.2870    0.0000 C   0  0  0  0  0  0  0  0  0  0  0  0
    2.2540   -1.2920    0.0000 C   0  0  0  0  0  0  0  0  0  0  0  0
  1  2  2  0  0  0  0
  1  3  2  0  0  0  0
  1  4  1  0  0  0  0
  1 13  1  0  0  0  0
  4  5  1  0  0  0  0
  5  6  2  0  0  0  0
  5  7  1  0  0  0  0
  7  8  1  0  0  0  0
  7 12  2  0  0  0  0
  8  9  2  0  0  0  0
  9 10  1  0  0  0  0
 10 11  2  0  0  0  0
 11 12  1  0  0  0  0
 13 14  1  0  0  0  0
 13 19  2  0  0  0  0
 14 15  2  0  0  0  0
 15 16  1  0  0  0  0
 16 17  1  0  0  0  0
 16 18  2  0  0  0  0
 18 19  1  0  0  0  0
M  END
>  <Index>
1009

>  <ID>
HT1932

>  <class>
0

>  <apol>
38.387516

>  <ast_fraglike>
1

>  <ast_fraglike_ext>
0

>  <ast_violation>
0

>  <ast_violation_ext>
1

>  <a_acc>
3

>  <a_acid>
0

>  <a_aro>
12

>  <a_base>
0

>  <a_count>
31

>  <a_don>
2

>  <a_donacc>
5

>  <a_heavy>
19

>  <a_hyd>
12

>  <a_IC>
55.699932

>  <a_ICM>
1.796772

>  <a_nB>
0

>  <a_nBr>
0

>  <a_nC>
13

>  <a_nCl>
0

>  <a_nF>
0

>  <a_nH>
12

>  <a_nI>
0

>  <a_nN>
2

>  <a_nO>
3

>  <a_nP>
0

>  <a_nS>
1

>  <balabanJ>
1.8540753

>  <BCUT_PEOE_0>
-2.3347082

>  <BCUT_PEOE_1>
-0.64839149

>  <BCUT_PEOE_2>
0.69818121

>  <BCUT_PEOE_3>
2.4324572

>  <BCUT_SLOGP_0>
-2.5558763

>  <BCUT_SLOGP_1>
-0.53807992

>  <BCUT_SLOGP_2>
0.80591482

>  <BCUT_SLOGP_3>
2.3759823

>  <BCUT_SMR_0>
-2.0014925

>  <BCUT_SMR_1>
-0.49986199

>  <BCUT_SMR_2>
0.85431087

>  <BCUT_SMR_3>
2.7660463

>  <bpol>
20.552485

>  <b_1rotN>
3

>  <b_1rotR>
0.15000001

>  <b_ar>
12

>  <b_count>
32

>  <b_double>
1

>  <b_heavy>
20

>  <b_max1len>
3

>  <b_rotN>
4

>  <b_rotR>
0.2

>  <b_single>
19

>  <b_triple>
0

>  <chi0>
13.880469

>  <chi0v>
10.722993

>  <chi0v_C>
7.1961522

>  <chi0_C>
8.6733618

>  <chi1>
8.9880009

>  <chi1v>
6.949595

>  <chi1v_C>
3.9820509

>  <chi1_C>
5.7828231

>  <chiral>
0

>  <chiral_u>
0

>  <density>
0.81494218

>  <diameter>
11

>  <FCharge>
0

>  <GCUT_PEOE_0>
-0.81256562

>  <GCUT_PEOE_1>
-0.38871056

>  <GCUT_PEOE_2>
0.079765007

>  <GCUT_PEOE_3>
2.3412347

>  <GCUT_SLOGP_0>
-1.3342953

>  <GCUT_SLOGP_1>
-0.39135477

>  <GCUT_SLOGP_2>
0.16445385

>  <GCUT_SLOGP_3>
2.377825

>  <GCUT_SMR_0>
-0.40717673

>  <GCUT_SMR_1>
-0.21605732

>  <GCUT_SMR_2>
0.19305076

>  <GCUT_SMR_3>
2.6377664

>  <Kier1>
15.39

>  <Kier2>
6.6352043

>  <Kier3>
4.2314048

>  <KierA1>
11.491093

>  <KierA2>
4.8669224

>  <KierA3>
3.0607777

>  <KierFlex>
2.9434869

>  <lip_acc>
5

>  <lip_don>
3

>  <lip_druglike>
1

>  <lip_violation>
0

>  <logP(o/w)>
1.745

>  <logS>
-3.29884

>  <mr>
7.3665414

>  <mutagenic>
1

>  <nmol>
1

>  <opr_brigid>
12

>  <opr_leadlike>
1

>  <opr_nring>
2

>  <opr_nrot>
2

>  <opr_violation>
0

>  <PC+>
0

>  <PC->
0

>  <PEOE_PC+>
1.6318983

>  <PEOE_PC->
-1.6318983

>  <PEOE_RPC+>
0.1873621

>  <PEOE_RPC->
0.337098

>  <PEOE_VSA+0>
31.209358

>  <PEOE_VSA+1>
51.338005

>  <PEOE_VSA+2>
25.857038

>  <PEOE_VSA+3>
10.105608

>  <PEOE_VSA+4>
0

>  <PEOE_VSA+5>
0

>  <PEOE_VSA+6>
4.1846013

>  <PEOE_VSA-0>
26.718348

>  <PEOE_VSA-1>
61.274521

>  <PEOE_VSA-2>
32.016521

>  <PEOE_VSA-3>
2.5295215

>  <PEOE_VSA-4>
0

>  <PEOE_VSA-5>
0

>  <PEOE_VSA-6>
20.21804

>  <PEOE_VSA_FHYD>
0.90807122

>  <PEOE_VSA_FNEG>
0.53778911

>  <PEOE_VSA_FPNEG>
0.076164708

>  <PEOE_VSA_FPOL>
0.091928795

>  <PEOE_VSA_FPOS>
0.46221092

>  <PEOE_VSA_FPPOS>
0.015764086

>  <PEOE_VSA_HYD>
241.04892

>  <PEOE_VSA_NEG>
142.75696

>  <PEOE_VSA_PNEG>
20.21804

>  <PEOE_VSA_POL>
24.402641

>  <PEOE_VSA_POS>
122.69461

>  <PEOE_VSA_PPOS>
4.1846013

>  <petitjean>
0.45454547

>  <petitjeanSC>
0.83333331

>  <Q_PC+>
0

>  <Q_PC->
0

>  <Q_RPC+>
0

>  <Q_RPC->
0

>  <Q_VSA_FHYD>
1

>  <Q_VSA_FNEG>
0

>  <Q_VSA_FPNEG>
0

>  <Q_VSA_FPOL>
0

>  <Q_VSA_FPOS>
1

>  <Q_VSA_FPPOS>
0

>  <Q_VSA_HYD>
265.45157

>  <Q_VSA_NEG>
0

>  <Q_VSA_PNEG>
0

>  <Q_VSA_POL>
0

>  <Q_VSA_POS>
265.45157

>  <Q_VSA_PPOS>
0

>  <radius>
6

>  <reactive>
0

>  <rings>
2

>  <RPC+>
0

>  <RPC->
0

>  <rsynth>
1

>  <SlogP>
1.3875

>  <SlogP_VSA0>
49.302185

>  <SlogP_VSA1>
53.430473

>  <SlogP_VSA2>
6.6407428

>  <SlogP_VSA3>
0

>  <SlogP_VSA4>
27.047791

>  <SlogP_VSA5>
1.5507339

>  <SlogP_VSA6>
0

>  <SlogP_VSA7>
158.78867

>  <SlogP_VSA8>
0

>  <SlogP_VSA9>
2.7567475

>  <SMR>
7.19484

>  <SMR_VSA0>
72.033905

>  <SMR_VSA1>
0

>  <SMR_VSA2>
17.955732

>  <SMR_VSA3>
3.185575

>  <SMR_VSA4>
2.7567475

>  <SMR_VSA5>
191.68585

>  <SMR_VSA6>
5.2587838

>  <SMR_VSA7>
6.6407428

>  <TPSA>
89.260002

>  <VAdjEq>
0.5023343

>  <VAdjMa>
5.321928

>  <VDistEq>
3.1640251

>  <VDistMa>
8.1875992

>  <vdw_area>
265.45157

>  <vdw_vol>
339.0621

>  <vsa_acc>
45.583443

>  <vsa_acid>
0

>  <vsa_base>
0

>  <vsa_don>
25.817696

>  <vsa_hyd>
155.36914

>  <vsa_other>
23.05514

>  <vsa_pol>
71.401138

>  <Weight>
276.31601

>  <weinerPath>
736

>  <weinerPol>
27

>  <zagreb>
96

$$$$