O1[C@H]([C@@H](OCc2ccccc2)COCc2ccccc2)[C@H](OCc2ccccc2)[C@@H](O)C1OCC
  MOE2013           2D

 35 38  0  0  1  0  0  0  0  0999 V2000
    0.0000    0.0000    0.0000 O   0  0  0  0  0  0  0  0  0  0  0  0
   -1.2140   -0.8820    0.0000 C   0  0  2  0  0  0  0  0  0  0  0  0
   -1.2140   -2.3820    0.0000 C   0  0  1  0  0  0  0  0  0  0  0  0
    0.0850   -3.1320    0.0000 O   0  0  0  0  0  0  0  0  0  0  0  0
    1.3840   -2.3820    0.0000 C   0  0  0  0  0  0  0  0  0  0  0  0
    2.6830   -3.1320    0.0000 C   0  0  0  0  0  0  0  0  0  0  0  0
    2.6830   -4.6320    0.0000 C   0  0  0  0  0  0  0  0  0  0  0  0
    3.9820   -5.3820    0.0000 C   0  0  0  0  0  0  0  0  0  0  0  0
    5.2810   -4.6320    0.0000 C   0  0  0  0  0  0  0  0  0  0  0  0
    5.2810   -3.1320    0.0000 C   0  0  0  0  0  0  0  0  0  0  0  0
    3.9820   -2.3820    0.0000 C   0  0  0  0  0  0  0  0  0  0  0  0
   -2.5130   -3.1310    0.0000 C   0  0  0  0  0  0  0  0  0  0  0  0
   -2.5130   -4.6310    0.0000 O   0  0  0  0  0  0  0  0  0  0  0  0
   -3.8120   -5.3810    0.0000 C   0  0  0  0  0  0  0  0  0  0  0  0
   -3.8130   -6.8810    0.0000 C   0  0  0  0  0  0  0  0  0  0  0  0
   -2.5140   -7.6310    0.0000 C   0  0  0  0  0  0  0  0  0  0  0  0
   -2.5140   -9.1310    0.0000 C   0  0  0  0  0  0  0  0  0  0  0  0
   -3.8130   -9.8810    0.0000 C   0  0  0  0  0  0  0  0  0  0  0  0
   -5.1120   -9.1310    0.0000 C   0  0  0  0  0  0  0  0  0  0  0  0
   -5.1120   -7.6310    0.0000 C   0  0  0  0  0  0  0  0  0  0  0  0
   -2.4270    0.0000    0.0000 C   0  0  2  0  0  0  0  0  0  0  0  0
   -3.8540   -0.4630    0.0000 O   0  0  0  0  0  0  0  0  0  0  0  0
   -4.9680    0.5410    0.0000 C   0  0  0  0  0  0  0  0  0  0  0  0
   -6.3950    0.0770    0.0000 C   0  0  0  0  0  0  0  0  0  0  0  0
   -6.7070   -1.3900    0.0000 C   0  0  0  0  0  0  0  0  0  0  0  0
   -8.1340   -1.8530    0.0000 C   0  0  0  0  0  0  0  0  0  0  0  0
   -9.2480   -0.8490    0.0000 C   0  0  0  0  0  0  0  0  0  0  0  0
   -8.9360    0.6180    0.0000 C   0  0  0  0  0  0  0  0  0  0  0  0
   -7.5100    1.0810    0.0000 C   0  0  0  0  0  0  0  0  0  0  0  0
   -1.9630    1.4270    0.0000 C   0  0  1  0  0  0  0  0  0  0  0  0
   -2.8450    2.6400    0.0000 O   0  0  0  0  0  0  0  0  0  0  0  0
   -0.4630    1.4270    0.0000 C   0  0  3  0  0  0  0  0  0  0  0  0
    0.4190    2.6400    0.0000 O   0  0  0  0  0  0  0  0  0  0  0  0
   -0.1910    4.0100    0.0000 C   0  0  0  0  0  0  0  0  0  0  0  0
    0.6900    5.2240    0.0000 C   0  0  0  0  0  0  0  0  0  0  0  0
  1 32  1  0  0  0  0
  2  1  1  6  0  0  0
  2  3  1  0  0  0  0
  2 21  1  0  0  0  0
  3  4  1  0  0  0  0
  3 12  1  1  0  0  0
  4  5  1  0  0  0  0
  5  6  1  0  0  0  0
  6  7  1  0  0  0  0
  6 11  2  0  0  0  0
  7  8  2  0  0  0  0
  8  9  1  0  0  0  0
  9 10  2  0  0  0  0
 10 11  1  0  0  0  0
 12 13  1  0  0  0  0
 13 14  1  0  0  0  0
 14 15  1  0  0  0  0
 15 16  1  0  0  0  0
 15 20  2  0  0  0  0
 16 17  2  0  0  0  0
 17 18  1  0  0  0  0
 18 19  2  0  0  0  0
 19 20  1  0  0  0  0
 21 22  1  6  0  0  0
 21 30  1  0  0  0  0
 22 23  1  0  0  0  0
 23 24  1  0  0  0  0
 24 25  1  0  0  0  0
 24 29  2  0  0  0  0
 25 26  2  0  0  0  0
 26 27  1  0  0  0  0
 27 28  2  0  0  0  0
 28 29  1  0  0  0  0
 30 31  1  1  0  0  0
 30 32  1  0  0  0  0
 32 33  1  0  0  0  0
 33 34  1  0  0  0  0
 34 35  1  0  0  0  0
M  END
>  <Index>
1391

>  <ID>
HT3869

>  <class>
0

>  <apol>
78.522964

>  <ast_fraglike>
0

>  <ast_fraglike_ext>
0

>  <ast_violation>
3

>  <ast_violation_ext>
4

>  <a_acc>
6

>  <a_acid>
0

>  <a_aro>
18

>  <a_base>
0

>  <a_count>
69

>  <a_don>
1

>  <a_donacc>
7

>  <a_heavy>
35

>  <a_hyd>
28

>  <a_IC>
92.12323

>  <a_ICM>
1.3351192

>  <a_nB>
0

>  <a_nBr>
0

>  <a_nC>
29

>  <a_nCl>
0

>  <a_nF>
0

>  <a_nH>
34

>  <a_nI>
0

>  <a_nN>
0

>  <a_nO>
6

>  <a_nP>
0

>  <a_nS>
0

>  <balabanJ>
1.3806947

>  <BCUT_PEOE_0>
-2.6180854

>  <BCUT_PEOE_1>
-0.56342947

>  <BCUT_PEOE_2>
0.62189215

>  <BCUT_PEOE_3>
2.8098185

>  <BCUT_SLOGP_0>
-2.7658198

>  <BCUT_SLOGP_1>
-0.53807992

>  <BCUT_SLOGP_2>
0.69777018

>  <BCUT_SLOGP_3>
2.6460919

>  <BCUT_SMR_0>
-2.4077537

>  <BCUT_SMR_1>
-0.43305227

>  <BCUT_SMR_2>
0.76273447

>  <BCUT_SMR_3>
2.9943419

>  <bpol>
46.749039

>  <b_1rotN>
13

>  <b_1rotR>
0.34210527

>  <b_ar>
18

>  <b_count>
72

>  <b_double>
0

>  <b_heavy>
38

>  <b_max1len>
7

>  <b_rotN>
13

>  <b_rotR>
0.34210527

>  <b_single>
54

>  <b_triple>
0

>  <chi0>
24.296473

>  <chi0v>
20.070993

>  <chi0v_C>
17.582539

>  <chi0_C>
19.760939

>  <chi1>
17.241514

>  <chi1v>
12.121486

>  <chi1v_C>
9.2413998

>  <chi1_C>
12.122923

>  <chiral>
5

>  <chiral_u>
1

>  <density>
0.70851964

>  <diameter>
15

>  <FCharge>
0

>  <GCUT_PEOE_0>
-0.80508643

>  <GCUT_PEOE_1>
-0.38893917

>  <GCUT_PEOE_2>
0.074318223

>  <GCUT_PEOE_3>
2.9026251

>  <GCUT_SLOGP_0>
-0.95084876

>  <GCUT_SLOGP_1>
-0.26386139

>  <GCUT_SLOGP_2>
0.1384564

>  <GCUT_SLOGP_3>
2.9051955

>  <GCUT_SMR_0>
-0.52587271

>  <GCUT_SMR_1>
-0.21605732

>  <GCUT_SMR_2>
0.16971752

>  <GCUT_SMR_3>
3.1206996

>  <Kier1>
28.01939

>  <Kier2>
15.421075

>  <Kier3>
8.7719831

>  <KierA1>
22.671007

>  <KierA2>
12.395472

>  <KierA3>
7.0173335

>  <KierFlex>
8.0290804

>  <lip_acc>
6

>  <lip_don>
1

>  <lip_druglike>
1

>  <lip_violation>
1

>  <logP(o/w)>
4.9727402

>  <logS>
-5.7616801

>  <mr>
13.672235

>  <mutagenic>
0

>  <nmol>
1

>  <opr_brigid>
23

>  <opr_leadlike>
0

>  <opr_nring>
4

>  <opr_nrot>
14

>  <opr_violation>
3

>  <PC+>
0

>  <PC->
0

>  <PEOE_PC+>
3.1787407

>  <PEOE_PC->
-3.1787407

>  <PEOE_RPC+>
0.06609869

>  <PEOE_RPC->
0.12083246

>  <PEOE_VSA+0>
27.747452

>  <PEOE_VSA+1>
187.76675

>  <PEOE_VSA+2>
19.619715

>  <PEOE_VSA+3>
11.154908

>  <PEOE_VSA+4>
10.324173

>  <PEOE_VSA+5>
0

>  <PEOE_VSA+6>
0

>  <PEOE_VSA-0>
25.373297

>  <PEOE_VSA-1>
183.82356

>  <PEOE_VSA-2>
0

>  <PEOE_VSA-3>
0

>  <PEOE_VSA-4>
0

>  <PEOE_VSA-5>
0

>  <PEOE_VSA-6>
20.286322

>  <PEOE_VSA_FHYD>
0.93702793

>  <PEOE_VSA_FNEG>
0.47209418

>  <PEOE_VSA_FPNEG>
0.041733142

>  <PEOE_VSA_FPOL>
0.062972091

>  <PEOE_VSA_FPOS>
0.52790582

>  <PEOE_VSA_FPPOS>
0.021238951

>  <PEOE_VSA_HYD>
455.48569

>  <PEOE_VSA_NEG>
229.48317

>  <PEOE_VSA_PNEG>
20.286322

>  <PEOE_VSA_POL>
30.610493

>  <PEOE_VSA_POS>
256.61301

>  <PEOE_VSA_PPOS>
10.324173

>  <petitjean>
0.46666667

>  <petitjeanSC>
0.875

>  <Q_PC+>
0

>  <Q_PC->
0

>  <Q_RPC+>
0

>  <Q_RPC->
0

>  <Q_VSA_FHYD>
1

>  <Q_VSA_FNEG>
0

>  <Q_VSA_FPNEG>
0

>  <Q_VSA_FPOL>
0

>  <Q_VSA_FPOS>
1

>  <Q_VSA_FPPOS>
0

>  <Q_VSA_HYD>
486.09619

>  <Q_VSA_NEG>
0

>  <Q_VSA_PNEG>
0

>  <Q_VSA_POL>
0

>  <Q_VSA_POS>
486.09619

>  <Q_VSA_PPOS>
0

>  <radius>
8

>  <reactive>
1

>  <rings>
4

>  <RPC+>
0

>  <RPC->
0

>  <rsynth>
1

>  <SlogP>
5.2954998

>  <SlogP_VSA0>
25.385227

>  <SlogP_VSA1>
0

>  <SlogP_VSA2>
89.400536

>  <SlogP_VSA3>
41.852516

>  <SlogP_VSA4>
9.5567245

>  <SlogP_VSA5>
0

>  <SlogP_VSA6>
0

>  <SlogP_VSA7>
264.64777

>  <SlogP_VSA8>
0

>  <SlogP_VSA9>
96.10479

>  <SMR>
13.30448

>  <SMR_VSA0>
54.999439

>  <SMR_VSA1>
25.385227

>  <SMR_VSA2>
0

>  <SMR_VSA3>
43.957825

>  <SMR_VSA4>
0

>  <SMR_VSA5>
327.42654

>  <SMR_VSA6>
41.852516

>  <SMR_VSA7>
33.326015

>  <TPSA>
66.379997

>  <VAdjEq>
0.33549348

>  <VAdjMa>
6.2479277

>  <VDistEq>
3.6818264

>  <VDistMa>
10.010679

>  <vdw_area>
486.09619

>  <vdw_vol>
675.47174

>  <vsa_acc>
12.518781

>  <vsa_acid>
0

>  <vsa_base>
0

>  <vsa_don>
0

>  <vsa_hyd>
417.28793

>  <vsa_other>
14.708499

>  <vsa_pol>
26.085701

>  <Weight>
478.58499

>  <weinerPath>
3934

>  <weinerPol>
49

>  <zagreb>
174

$$$$