F[C@@]12[C@H]([C@@H]3C[C@H](C)[C@](OC(=O)CC)(C(=O)COC(=O)CC)[C@]3(C[C@@H]1O)C)CCC1=CC(=O)C=C[C@@]12C
  MOE2013           2D

 36 39  0  0  1  0  0  0  0  0999 V2000
    0.0000    0.0000    0.0000 F   0  0  0  0  0  0  0  0  0  0  0  0
   -1.5000   -0.0010    0.0000 C   0  0  1  0  0  0  0  0  0  0  0  0
   -0.7500   -1.2990    0.0000 C   0  0  2  0  0  0  0  0  0  0  0  0
    0.7500   -1.2990    0.0000 C   0  0  2  0  0  0  0  0  0  0  0  0
    1.7550   -2.4130    0.0000 C   0  0  0  0  0  0  0  0  0  0  0  0
    3.1250   -1.8020    0.0000 C   0  0  2  0  0  0  0  0  0  0  0  0
    4.4240   -2.5520    0.0000 C   0  0  0  0  0  0  0  0  0  0  0  0
    2.9670   -0.3110    0.0000 C   0  0  2  0  0  0  0  0  0  0  0  0
    3.4550    1.1080    0.0000 O   0  0  0  0  0  0  0  0  0  0  0  0
    2.4710    2.2390    0.0000 C   0  0  0  0  0  0  0  0  0  0  0  0
    0.9980    1.9530    0.0000 O   0  0  0  0  0  0  0  0  0  0  0  0
    2.9580    3.6580    0.0000 C   0  0  0  0  0  0  0  0  0  0  0  0
    1.9740    4.7900    0.0000 C   0  0  0  0  0  0  0  0  0  0  0  0
    4.4490   -0.0760    0.0000 C   0  0  0  0  0  0  0  0  0  0  0  0
    4.9860    1.3250    0.0000 O   0  0  0  0  0  0  0  0  0  0  0  0
    5.3930   -1.2410    0.0000 C   0  0  0  0  0  0  0  0  0  0  0  0
    6.8750   -1.0060    0.0000 O   0  0  0  0  0  0  0  0  0  0  0  0
    7.8190   -2.1710    0.0000 C   0  0  0  0  0  0  0  0  0  0  0  0
    7.2820   -3.5720    0.0000 O   0  0  0  0  0  0  0  0  0  0  0  0
    9.3000   -1.9360    0.0000 C   0  0  0  0  0  0  0  0  0  0  0  0
   10.2450   -3.1010    0.0000 C   0  0  0  0  0  0  0  0  0  0  0  0
    1.5000    0.0010    0.0000 C   0  0  1  0  0  0  0  0  0  0  0  0
    0.7500    1.2990    0.0000 C   0  0  0  0  0  0  0  0  0  0  0  0
   -0.7500    1.2990    0.0000 C   0  0  2  0  0  0  0  0  0  0  0  0
   -1.5010    2.5980    0.0000 O   0  0  0  0  0  0  0  0  0  0  0  0
    2.3600    1.2300    0.0000 C   0  0  0  0  0  0  0  0  0  0  0  0
   -1.4990   -2.5990    0.0000 C   0  0  0  0  0  0  0  0  0  0  0  0
   -2.9990   -2.5990    0.0000 C   0  0  0  0  0  0  0  0  0  0  0  0
   -3.7500   -1.3000    0.0000 C   0  0  0  0  0  0  0  0  0  0  0  0
   -5.2500   -1.3010    0.0000 C   0  0  0  0  0  0  0  0  0  0  0  0
   -6.0000   -0.0020    0.0000 C   0  0  0  0  0  0  0  0  0  0  0  0
   -7.5000   -0.0030    0.0000 O   0  0  0  0  0  0  0  0  0  0  0  0
   -5.2500    1.2970    0.0000 C   0  0  0  0  0  0  0  0  0  0  0  0
   -3.7500    1.2980    0.0000 C   0  0  0  0  0  0  0  0  0  0  0  0
   -3.0000   -0.0010    0.0000 C   0  0  2  0  0  0  0  0  0  0  0  0
   -2.2500    1.2980    0.0000 C   0  0  0  0  0  0  0  0  0  0  0  0
  2  1  1  6  0  0  0
  2  3  1  0  0  0  0
  2 24  1  0  0  0  0
  2 35  1  0  0  0  0
  3  4  1  0  0  0  0
  3 27  1  6  0  0  0
  4  5  1  1  0  0  0
  4 22  1  0  0  0  0
  5  6  1  0  0  0  0
  6  7  1  1  0  0  0
  6  8  1  0  0  0  0
  8  9  1  6  0  0  0
  8 14  1  1  0  0  0
  8 22  1  0  0  0  0
  9 10  1  0  0  0  0
 10 11  2  0  0  0  0
 10 12  1  0  0  0  0
 12 13  1  0  0  0  0
 14 15  2  0  0  0  0
 14 16  1  0  0  0  0
 16 17  1  0  0  0  0
 17 18  1  0  0  0  0
 18 19  2  0  0  0  0
 18 20  1  0  0  0  0
 20 21  1  0  0  0  0
 22 23  1  0  0  0  0
 22 26  1  1  0  0  0
 23 24  1  0  0  0  0
 24 25  1  1  0  0  0
 27 28  1  0  0  0  0
 28 29  1  0  0  0  0
 29 30  2  0  0  0  0
 29 35  1  0  0  0  0
 30 31  1  0  0  0  0
 31 32  2  0  0  0  0
 31 33  1  0  0  0  0
 33 34  2  0  0  0  0
 34 35  1  0  0  0  0
 35 36  1  1  0  0  0
M  END
>  <Index>
133

>  <ID>
HT0270

>  <class>
0

>  <apol>
80.122337

>  <ast_fraglike>
0

>  <ast_fraglike_ext>
0

>  <ast_violation>
3

>  <ast_violation_ext>
5

>  <a_acc>
5

>  <a_acid>
0

>  <a_aro>
0

>  <a_base>
0

>  <a_count>
73

>  <a_don>
1

>  <a_donacc>
6

>  <a_heavy>
36

>  <a_hyd>
25

>  <a_IC>
104.85

>  <a_ICM>
1.4363014

>  <a_nB>
0

>  <a_nBr>
0

>  <a_nC>
28

>  <a_nCl>
0

>  <a_nF>
1

>  <a_nH>
37

>  <a_nI>
0

>  <a_nN>
0

>  <a_nO>
7

>  <a_nP>
0

>  <a_nS>
0

>  <balabanJ>
1.7454476

>  <BCUT_PEOE_0>
-2.8982723

>  <BCUT_PEOE_1>
-0.49672565

>  <BCUT_PEOE_2>
0.36652133

>  <BCUT_PEOE_3>
3.0034895

>  <BCUT_SLOGP_0>
-2.9223981

>  <BCUT_SLOGP_1>
-0.41938749

>  <BCUT_SLOGP_2>
0.48586607

>  <BCUT_SLOGP_3>
2.9996929

>  <BCUT_SMR_0>
-2.6719089

>  <BCUT_SMR_1>
-0.28294903

>  <BCUT_SMR_2>
0.56188393

>  <BCUT_SMR_3>
3.2283571

>  <bpol>
49.315659

>  <b_1rotN>
6

>  <b_1rotR>
0.15384616

>  <b_ar>
0

>  <b_count>
76

>  <b_double>
6

>  <b_heavy>
39

>  <b_max1len>
4

>  <b_rotN>
8

>  <b_rotR>
0.20512821

>  <b_single>
70

>  <b_triple>
0

>  <chi0>
26.681435

>  <chi0v>
21.765867

>  <chi0v_C>
18.491199

>  <chi0_C>
19.26722

>  <chi1>
16.811586

>  <chi1v>
13.033117

>  <chi1v_C>
10.868392

>  <chi1_C>
11.754786

>  <chiral>
8

>  <chiral_u>
0

>  <density>
0.75512415

>  <diameter>
15

>  <FCharge>
0

>  <GCUT_PEOE_0>
-0.79032886

>  <GCUT_PEOE_1>
-0.39691308

>  <GCUT_PEOE_2>
-0.00014201972

>  <GCUT_PEOE_3>
3.4606643

>  <GCUT_SLOGP_0>
-0.93367016

>  <GCUT_SLOGP_1>
-0.31397143

>  <GCUT_SLOGP_2>
-0.0084727388

>  <GCUT_SLOGP_3>
3.4808478

>  <GCUT_SMR_0>
-0.53789687

>  <GCUT_SMR_1>
-0.21529107

>  <GCUT_SMR_2>
0.13229556

>  <GCUT_SMR_3>
3.6760561

>  <Kier1>
28.994083

>  <Kier2>
10.194003

>  <Kier3>
4.1393228

>  <KierA1>
24.831087

>  <KierA2>
8.6899385

>  <KierA3>
3.5171394

>  <KierFlex>
5.993906

>  <lip_acc>
7

>  <lip_don>
1

>  <lip_druglike>
1

>  <lip_violation>
1

>  <logP(o/w)>
4.2789998

>  <logS>
-4.81881

>  <mr>
13.125835

>  <mutagenic>
0

>  <nmol>
1

>  <opr_brigid>
20

>  <opr_leadlike>
1

>  <opr_nring>
4

>  <opr_nrot>
6

>  <opr_violation>
1

>  <PC+>
0

>  <PC->
0

>  <PEOE_PC+>
2.9385233

>  <PEOE_PC->
-2.9385233

>  <PEOE_RPC+>
0.089441396

>  <PEOE_RPC->
0.13223669

>  <PEOE_VSA+0>
145.36421

>  <PEOE_VSA+1>
30.497244

>  <PEOE_VSA+2>
14.951293

>  <PEOE_VSA+3>
16.917038

>  <PEOE_VSA+4>
10.324173

>  <PEOE_VSA+5>
29.416998

>  <PEOE_VSA+6>
0

>  <PEOE_VSA-0>
78.062737

>  <PEOE_VSA-1>
89.454155

>  <PEOE_VSA-2>
0

>  <PEOE_VSA-3>
0

>  <PEOE_VSA-4>
11.908636

>  <PEOE_VSA-5>
56.771439

>  <PEOE_VSA-6>
10.271297

>  <PEOE_VSA_FHYD>
0.75970215

>  <PEOE_VSA_FNEG>
0.49898499

>  <PEOE_VSA_FPNEG>
0.15984026

>  <PEOE_VSA_FPOL>
0.24029787

>  <PEOE_VSA_FPOS>
0.50101501

>  <PEOE_VSA_FPPOS>
0.080457613

>  <PEOE_VSA_HYD>
375.24667

>  <PEOE_VSA_NEG>
246.46826

>  <PEOE_VSA_PNEG>
78.95137

>  <PEOE_VSA_POL>
118.69254

>  <PEOE_VSA_POS>
247.47095

>  <PEOE_VSA_PPOS>
39.741173

>  <petitjean>
0.46666667

>  <petitjeanSC>
0.875

>  <Q_PC+>
0

>  <Q_PC->
0

>  <Q_RPC+>
0

>  <Q_RPC->
0

>  <Q_VSA_FHYD>
1

>  <Q_VSA_FNEG>
0

>  <Q_VSA_FPNEG>
0

>  <Q_VSA_FPOL>
0

>  <Q_VSA_FPOS>
1

>  <Q_VSA_FPPOS>
0

>  <Q_VSA_HYD>
493.93921

>  <Q_VSA_NEG>
0

>  <Q_VSA_PNEG>
0

>  <Q_VSA_POL>
0

>  <Q_VSA_POS>
493.93921

>  <Q_VSA_PPOS>
0

>  <radius>
8

>  <reactive>
1

>  <rings>
4

>  <RPC+>
0

>  <RPC->
0

>  <rsynth>
0.47222221

>  <SlogP>
3.8175001

>  <SlogP_VSA0>
25.385227

>  <SlogP_VSA1>
26.86615

>  <SlogP_VSA2>
123.91729

>  <SlogP_VSA3>
20.926258

>  <SlogP_VSA4>
13.232388

>  <SlogP_VSA5>
3.185575

>  <SlogP_VSA6>
0

>  <SlogP_VSA7>
52.929554

>  <SlogP_VSA8>
113.21043

>  <SlogP_VSA9>
181.59019

>  <SMR>
12.82728

>  <SMR_VSA0>
117.44864

>  <SMR_VSA1>
40.345341

>  <SMR_VSA2>
13.232388

>  <SMR_VSA3>
9.6542244

>  <SMR_VSA4>
0

>  <SMR_VSA5>
166.13998

>  <SMR_VSA6>
47.792408

>  <SMR_VSA7>
166.63008

>  <TPSA>
106.97

>  <VAdjEq>
0.3281796

>  <VAdjMa>
6.2854023

>  <VDistEq>
3.5036938

>  <VDistMa>
10.087401

>  <vdw_area>
493.93921

>  <vdw_vol>
668.22784

>  <vsa_acc>
54.267685

>  <vsa_acid>
0

>  <vsa_base>
0

>  <vsa_don>
0

>  <vsa_hyd>
340.57849

>  <vsa_other>
51.341549

>  <vsa_pol>
67.834602

>  <Weight>
504.595

>  <weinerPath>
3474

>  <weinerPol>
82

>  <zagreb>
204

$$$$