O1C(CO)C(O)C(O)C1Nc1ncnc(N)c1N=C
  MOE2013           2D

 19 20  0  0  1  0  0  0  0  0999 V2000
    0.0000    0.0000    0.0000 O   0  0  0  0  0  0  0  0  0  0  0  0
   -1.4970   -0.0890    0.0000 C   0  0  3  0  0  0  0  0  0  0  0  0
   -2.4490    1.0700    0.0000 C   0  0  0  0  0  0  0  0  0  0  0  0
   -1.9220    2.4740    0.0000 O   0  0  0  0  0  0  0  0  0  0  0  0
   -1.8750   -1.5410    0.0000 C   0  0  3  0  0  0  0  0  0  0  0  0
   -3.2720   -2.0880    0.0000 O   0  0  0  0  0  0  0  0  0  0  0  0
   -0.6120   -2.3490    0.0000 C   0  0  3  0  0  0  0  0  0  0  0  0
   -0.5230   -3.8460    0.0000 O   0  0  0  0  0  0  0  0  0  0  0  0
    0.5470   -1.3970    0.0000 C   0  0  3  0  0  0  0  0  0  0  0  0
    1.9990   -1.7750    0.0000 N   0  0  0  0  0  0  0  0  0  0  0  0
    3.0520   -0.7070    0.0000 C   0  0  0  0  0  0  0  0  0  0  0  0
    2.6540    0.7400    0.0000 N   0  0  0  0  0  0  0  0  0  0  0  0
    3.7070    1.8080    0.0000 C   0  0  0  0  0  0  0  0  0  0  0  0
    5.1590    1.4300    0.0000 N   0  0  0  0  0  0  0  0  0  0  0  0
    5.5570   -0.0170    0.0000 C   0  0  0  0  0  0  0  0  0  0  0  0
    7.0080   -0.3950    0.0000 N   0  0  0  0  0  0  0  0  0  0  0  0
    4.5040   -1.0850    0.0000 C   0  0  0  0  0  0  0  0  0  0  0  0
    4.9020   -2.5310    0.0000 N   0  0  0  0  0  0  0  0  0  0  0  0
    6.3540   -2.9090    0.0000 C   0  0  0  0  0  0  0  0  0  0  0  0
  1  2  1  0  0  0  0
  1  9  1  0  0  0  0
  2  3  1  0  0  0  0
  2  5  1  0  0  0  0
  3  4  1  0  0  0  0
  5  6  1  0  0  0  0
  5  7  1  0  0  0  0
  7  8  1  0  0  0  0
  7  9  1  0  0  0  0
  9 10  1  0  0  0  0
 10 11  1  0  0  0  0
 11 12  1  0  0  0  0
 11 17  2  0  0  0  0
 12 13  2  0  0  0  0
 13 14  1  0  0  0  0
 14 15  2  0  0  0  0
 15 16  1  0  0  0  0
 15 17  1  0  0  0  0
 17 18  1  0  0  0  0
 18 19  2  0  0  0  0
M  END
>  <Index>
1300

>  <ID>
HT3186

>  <class>
0

>  <apol>
36.309895

>  <ast_fraglike>
0

>  <ast_fraglike_ext>
0

>  <ast_violation>
2

>  <ast_violation_ext>
4

>  <a_acc>
7

>  <a_acid>
0

>  <a_aro>
6

>  <a_base>
0

>  <a_count>
34

>  <a_don>
5

>  <a_donacc>
12

>  <a_heavy>
19

>  <a_hyd>
5

>  <a_IC>
61.541458

>  <a_ICM>
1.8100429

>  <a_nB>
0

>  <a_nBr>
0

>  <a_nC>
10

>  <a_nCl>
0

>  <a_nF>
0

>  <a_nH>
15

>  <a_nI>
0

>  <a_nN>
5

>  <a_nO>
4

>  <a_nP>
0

>  <a_nS>
0

>  <balabanJ>
1.9681761

>  <BCUT_PEOE_0>
-2.5156753

>  <BCUT_PEOE_1>
-0.66092718

>  <BCUT_PEOE_2>
0.74057806

>  <BCUT_PEOE_3>
2.7714369

>  <BCUT_SLOGP_0>
-2.7311437

>  <BCUT_SLOGP_1>
-0.71216279

>  <BCUT_SLOGP_2>
0.57849854

>  <BCUT_SLOGP_3>
2.5744767

>  <BCUT_SMR_0>
-2.3218064

>  <BCUT_SMR_1>
-0.44792289

>  <BCUT_SMR_2>
0.82946998

>  <BCUT_SMR_3>
2.9674881

>  <bpol>
22.274105

>  <b_1rotN>
4

>  <b_1rotR>
0.2

>  <b_ar>
6

>  <b_count>
35

>  <b_double>
1

>  <b_heavy>
20

>  <b_max1len>
4

>  <b_rotN>
4

>  <b_rotR>
0.2

>  <b_single>
28

>  <b_triple>
0

>  <chi0>
13.991199

>  <chi0v>
9.9698448

>  <chi0v_C>
5.8009648

>  <chi0_C>
6.4556656

>  <chi1>
9.0789175

>  <chi1v>
5.5430746

>  <chi1v_C>
1.9082483

>  <chi1_C>
2.0749149

>  <chiral>
4

>  <chiral_u>
4

>  <density>
0.84134543

>  <diameter>
9

>  <FCharge>
0

>  <GCUT_PEOE_0>
-0.7948581

>  <GCUT_PEOE_1>
-0.45916724

>  <GCUT_PEOE_2>
0.17896104

>  <GCUT_PEOE_3>
2.5358744

>  <GCUT_SLOGP_0>
-1.3347422

>  <GCUT_SLOGP_1>
-0.46168697

>  <GCUT_SLOGP_2>
0.054200001

>  <GCUT_SLOGP_3>
2.4743907

>  <GCUT_SMR_0>
-0.52598888

>  <GCUT_SMR_1>
-0.24075082

>  <GCUT_SMR_2>
0.23290342

>  <GCUT_SMR_3>
2.7618988

>  <Kier1>
15.39

>  <Kier2>
6.6352043

>  <Kier3>
3.1911356

>  <KierA1>
11.910937

>  <KierA2>
5.056282

>  <KierA3>
2.402441

>  <KierFlex>
3.16974

>  <lip_acc>
9

>  <lip_don>
6

>  <lip_druglike>
1

>  <lip_violation>
1

>  <logP(o/w)>
-3.0450001

>  <logS>
0.14977001

>  <mr>
6.398159

>  <mutagenic>
1

>  <nmol>
1

>  <opr_brigid>
12

>  <opr_leadlike>
0

>  <opr_nring>
2

>  <opr_nrot>
5

>  <opr_violation>
2

>  <PC+>
0

>  <PC->
0

>  <PEOE_PC+>
2.7512443

>  <PEOE_PC->
-2.7512443

>  <PEOE_RPC+>
0.076352075

>  <PEOE_RPC->
0.14261425

>  <PEOE_VSA+0>
0

>  <PEOE_VSA+1>
49.074383

>  <PEOE_VSA+2>
104.55076

>  <PEOE_VSA+3>
0

>  <PEOE_VSA+4>
30.972517

>  <PEOE_VSA+5>
0

>  <PEOE_VSA+6>
0

>  <PEOE_VSA-0>
26.79228

>  <PEOE_VSA-1>
0

>  <PEOE_VSA-2>
0

>  <PEOE_VSA-3>
0

>  <PEOE_VSA-4>
11.502043

>  <PEOE_VSA-5>
12.333695

>  <PEOE_VSA-6>
25.806377

>  <PEOE_VSA_FHYD>
0.69116962

>  <PEOE_VSA_FNEG>
0.29281613

>  <PEOE_VSA_FPNEG>
0.19017632

>  <PEOE_VSA_FPOL>
0.30883041

>  <PEOE_VSA_FPOS>
0.70718384

>  <PEOE_VSA_FPPOS>
0.11865408

>  <PEOE_VSA_HYD>
180.41742

>  <PEOE_VSA_NEG>
76.434395

>  <PEOE_VSA_PNEG>
49.642117

>  <PEOE_VSA_POL>
80.614632

>  <PEOE_VSA_POS>
184.59766

>  <PEOE_VSA_PPOS>
30.972517

>  <petitjean>
0.44444445

>  <petitjeanSC>
0.80000001

>  <Q_PC+>
0

>  <Q_PC->
0

>  <Q_RPC+>
0

>  <Q_RPC->
0

>  <Q_VSA_FHYD>
1

>  <Q_VSA_FNEG>
0

>  <Q_VSA_FPNEG>
0

>  <Q_VSA_FPOL>
0

>  <Q_VSA_FPOS>
1

>  <Q_VSA_FPPOS>
0

>  <Q_VSA_HYD>
261.03204

>  <Q_VSA_NEG>
0

>  <Q_VSA_PNEG>
0

>  <Q_VSA_POL>
0

>  <Q_VSA_POS>
261.03204

>  <Q_VSA_PPOS>
0

>  <radius>
5

>  <reactive>
0

>  <rings>
2

>  <RPC+>
0

>  <RPC->
0

>  <rsynth>
1

>  <SlogP>
-1.7582

>  <SlogP_VSA0>
109.05286

>  <SlogP_VSA1>
51.58181

>  <SlogP_VSA2>
68.117622

>  <SlogP_VSA3>
20.926258

>  <SlogP_VSA4>
0

>  <SlogP_VSA5>
16.78553

>  <SlogP_VSA6>
0

>  <SlogP_VSA7>
16.78553

>  <SlogP_VSA8>
0

>  <SlogP_VSA9>
7.4125876

>  <SMR>
6.70365

>  <SMR_VSA0>
10.999887

>  <SMR_VSA1>
126.51227

>  <SMR_VSA2>
0

>  <SMR_VSA3>
25.44577

>  <SMR_VSA4>
25.423338

>  <SMR_VSA5>
49.682716

>  <SMR_VSA6>
20.926258

>  <SMR_VSA7>
31.671967

>  <TPSA>
146.11

>  <VAdjEq>
0.5023343

>  <VAdjMa>
5.321928

>  <VDistEq>
3.0088553

>  <VDistMa>
8.2102137

>  <vdw_area>
261.03204

>  <vdw_vol>
320.03619

>  <vsa_acc>
19.551485

>  <vsa_acid>
0

>  <vsa_base>
0

>  <vsa_don>
23.425066

>  <vsa_hyd>
54.133583

>  <vsa_other>
94.020638

>  <vsa_pol>
83.677315

>  <Weight>
269.26099

>  <weinerPath>
700

>  <weinerPol>
30

>  <zagreb>
96

$$$$