O1C(OC2C(O)C(O)C(OC2OC)O)C(O)C(O)C(O)C1OC
  MOE2013           2D

 23 24  0  0  1  0  0  0  0  0999 V2000
    0.0000    0.0000    0.0000 O   0  0  0  0  0  0  0  0  0  0  0  0
    0.7550   -1.2960    0.0000 C   0  0  3  0  0  0  0  0  0  0  0  0
    2.2550   -1.2900    0.0000 O   0  0  0  0  0  0  0  0  0  0  0  0
    3.0000    0.0120    0.0000 C   0  0  3  0  0  0  0  0  0  0  0  0
    2.2450    1.3080    0.0000 C   0  0  3  0  0  0  0  0  0  0  0  0
    0.7450    1.3020    0.0000 O   0  0  0  0  0  0  0  0  0  0  0  0
    2.9900    2.6100    0.0000 C   0  0  3  0  0  0  0  0  0  0  0  0
    2.2350    3.9060    0.0000 O   0  0  0  0  0  0  0  0  0  0  0  0
    4.4900    2.6160    0.0000 C   0  0  3  0  0  0  0  0  0  0  0  0
    5.2450    1.3190    0.0000 O   0  0  0  0  0  0  0  0  0  0  0  0
    4.5000    0.0180    0.0000 C   0  0  3  0  0  0  0  0  0  0  0  0
    5.2550   -1.2790    0.0000 O   0  0  0  0  0  0  0  0  0  0  0  0
    6.7550   -1.2730    0.0000 C   0  0  0  0  0  0  0  0  0  0  0  0
    5.2350    3.9180    0.0000 O   0  0  0  0  0  0  0  0  0  0  0  0
    0.0100   -2.5980    0.0000 C   0  0  3  0  0  0  0  0  0  0  0  0
    0.7650   -3.8940    0.0000 O   0  0  0  0  0  0  0  0  0  0  0  0
   -1.4900   -2.6040    0.0000 C   0  0  3  0  0  0  0  0  0  0  0  0
   -2.2350   -3.9060    0.0000 O   0  0  0  0  0  0  0  0  0  0  0  0
   -2.2450   -1.3080    0.0000 C   0  0  3  0  0  0  0  0  0  0  0  0
   -3.7450   -1.3140    0.0000 O   0  0  0  0  0  0  0  0  0  0  0  0
   -1.5000   -0.0060    0.0000 C   0  0  3  0  0  0  0  0  0  0  0  0
   -2.2550    1.2900    0.0000 O   0  0  0  0  0  0  0  0  0  0  0  0
   -3.7550    1.2840    0.0000 C   0  0  0  0  0  0  0  0  0  0  0  0
  1  2  1  0  0  0  0
  1 21  1  0  0  0  0
  2  3  1  0  0  0  0
  2 15  1  0  0  0  0
  3  4  1  0  0  0  0
  4  5  1  0  0  0  0
  4 11  1  0  0  0  0
  5  6  1  0  0  0  0
  5  7  1  0  0  0  0
  7  8  1  0  0  0  0
  7  9  1  0  0  0  0
  9 10  1  0  0  0  0
  9 14  1  0  0  0  0
 10 11  1  0  0  0  0
 11 12  1  0  0  0  0
 12 13  1  0  0  0  0
 15 16  1  0  0  0  0
 15 17  1  0  0  0  0
 17 18  1  0  0  0  0
 17 19  1  0  0  0  0
 19 20  1  0  0  0  0
 19 21  1  0  0  0  0
 21 22  1  0  0  0  0
 22 23  1  0  0  0  0
M  END
>  <Index>
1346

>  <ID>
HT3563

>  <class>
0

>  <apol>
44.611446

>  <ast_fraglike>
0

>  <ast_fraglike_ext>
0

>  <ast_violation>
3

>  <ast_violation_ext>
5

>  <a_acc>
11

>  <a_acid>
0

>  <a_aro>
0

>  <a_base>
0

>  <a_count>
45

>  <a_don>
6

>  <a_donacc>
17

>  <a_heavy>
23

>  <a_hyd>
8

>  <a_IC>
67.952599

>  <a_ICM>
1.5100577

>  <a_nB>
0

>  <a_nBr>
0

>  <a_nC>
12

>  <a_nCl>
0

>  <a_nF>
0

>  <a_nH>
22

>  <a_nI>
0

>  <a_nN>
0

>  <a_nO>
11

>  <a_nP>
0

>  <a_nS>
0

>  <balabanJ>
2.114862

>  <BCUT_PEOE_0>
-2.7280624

>  <BCUT_PEOE_1>
-0.52971464

>  <BCUT_PEOE_2>
0.65063101

>  <BCUT_PEOE_3>
2.8106089

>  <BCUT_SLOGP_0>
-2.9241638

>  <BCUT_SLOGP_1>
-0.63762993

>  <BCUT_SLOGP_2>
0.49189085

>  <BCUT_SLOGP_3>
2.5992098

>  <BCUT_SMR_0>
-2.5378385

>  <BCUT_SMR_1>
-0.43447718

>  <BCUT_SMR_2>
0.70942706

>  <BCUT_SMR_3>
2.9802346

>  <bpol>
33.630554

>  <b_1rotN>
4

>  <b_1rotR>
0.16666667

>  <b_ar>
0

>  <b_count>
46

>  <b_double>
0

>  <b_heavy>
24

>  <b_max1len>
4

>  <b_rotN>
4

>  <b_rotR>
0.16666667

>  <b_single>
46

>  <b_triple>
0

>  <chi0>
17.309036

>  <chi0v>
12.498026

>  <chi0v_C>
7.7735028

>  <chi0_C>
7.7735028

>  <chi1>
10.810968

>  <chi1v>
6.9179745

>  <chi1v_C>
2.6666667

>  <chi1_C>
2.6666667

>  <chiral>
10

>  <chiral_u>
10

>  <density>
0.89210868

>  <diameter>
10

>  <FCharge>
0

>  <GCUT_PEOE_0>
-0.78738445

>  <GCUT_PEOE_1>
-0.43398404

>  <GCUT_PEOE_2>
0.11718965

>  <GCUT_PEOE_3>
2.7919741

>  <GCUT_SLOGP_0>
-0.95579761

>  <GCUT_SLOGP_1>
-0.51591659

>  <GCUT_SLOGP_2>
-0.010025876

>  <GCUT_SLOGP_3>
2.6458113

>  <GCUT_SMR_0>
-0.52758121

>  <GCUT_SMR_1>
-0.24545942

>  <GCUT_SMR_2>
0.15395029

>  <GCUT_SMR_3>
2.96578

>  <Kier1>
19.326389

>  <Kier2>
7.9200001

>  <Kier3>
3.8194444

>  <KierA1>
19.326389

>  <KierA2>
7.9200001

>  <KierA3>
3.8194444

>  <KierFlex>
6.6550002

>  <lip_acc>
11

>  <lip_don>
6

>  <lip_druglike>
0

>  <lip_violation>
2

>  <logP(o/w)>
-3.71826

>  <logS>
1.0908999

>  <mr>
6.9636269

>  <mutagenic>
0

>  <nmol>
1

>  <opr_brigid>
12

>  <opr_leadlike>
0

>  <opr_nring>
2

>  <opr_nrot>
8

>  <opr_violation>
3

>  <PC+>
0

>  <PC->
0

>  <PEOE_PC+>
3.9661493

>  <PEOE_PC->
-3.9661493

>  <PEOE_RPC+>
0.053594042

>  <PEOE_RPC->
0.097402737

>  <PEOE_VSA+0>
49.995316

>  <PEOE_VSA+1>
68.246178

>  <PEOE_VSA+2>
29.429573

>  <PEOE_VSA+3>
44.619633

>  <PEOE_VSA+4>
61.945034

>  <PEOE_VSA+5>
0

>  <PEOE_VSA+6>
0

>  <PEOE_VSA-0>
0

>  <PEOE_VSA-1>
0

>  <PEOE_VSA-2>
0

>  <PEOE_VSA-3>
0

>  <PEOE_VSA-4>
0

>  <PEOE_VSA-5>
0

>  <PEOE_VSA-6>
59.124023

>  <PEOE_VSA_FHYD>
0.61364198

>  <PEOE_VSA_FNEG>
0.18867777

>  <PEOE_VSA_FPNEG>
0.18867777

>  <PEOE_VSA_FPOL>
0.38635802

>  <PEOE_VSA_FPOS>
0.81132221

>  <PEOE_VSA_FPPOS>
0.19768025

>  <PEOE_VSA_HYD>
192.2907

>  <PEOE_VSA_NEG>
59.124023

>  <PEOE_VSA_PNEG>
59.124023

>  <PEOE_VSA_POL>
121.06906

>  <PEOE_VSA_POS>
254.23573

>  <PEOE_VSA_PPOS>
61.945034

>  <petitjean>
0.5

>  <petitjeanSC>
1

>  <Q_PC+>
0

>  <Q_PC->
0

>  <Q_RPC+>
0

>  <Q_RPC->
0

>  <Q_VSA_FHYD>
1

>  <Q_VSA_FNEG>
0

>  <Q_VSA_FPNEG>
0

>  <Q_VSA_FPOL>
0

>  <Q_VSA_FPOS>
1

>  <Q_VSA_FPPOS>
0

>  <Q_VSA_HYD>
313.35974

>  <Q_VSA_NEG>
0

>  <Q_VSA_PNEG>
0

>  <Q_VSA_POL>
0

>  <Q_VSA_POS>
313.35974

>  <Q_VSA_PPOS>
0

>  <radius>
5

>  <reactive>
1

>  <rings>
2

>  <RPC+>
0

>  <RPC->
0

>  <rsynth>
1

>  <SlogP>
-4.1739998

>  <SlogP_VSA0>
152.31136

>  <SlogP_VSA1>
0

>  <SlogP_VSA2>
127.91734

>  <SlogP_VSA3>
0

>  <SlogP_VSA4>
0

>  <SlogP_VSA5>
70.767738

>  <SlogP_VSA6>
0

>  <SlogP_VSA7>
0

>  <SlogP_VSA8>
0

>  <SlogP_VSA9>
0

>  <SMR>
6.84658

>  <SMR_VSA0>
54.999439

>  <SMR_VSA1>
152.31136

>  <SMR_VSA2>
0

>  <SMR_VSA3>
72.917908

>  <SMR_VSA4>
0

>  <SMR_VSA5>
0

>  <SMR_VSA6>
0

>  <SMR_VSA7>
70.767738

>  <TPSA>
167.53

>  <VAdjEq>
0.43892586

>  <VAdjMa>
5.5849624

>  <VDistEq>
3.1252692

>  <VDistMa>
8.7825041

>  <vdw_area>
313.35974

>  <vdw_vol>
383.69427

>  <vsa_acc>
12.518781

>  <vsa_acid>
0

>  <vsa_base>
0

>  <vsa_don>
0

>  <vsa_hyd>
122.06798

>  <vsa_other>
58.833996

>  <vsa_pol>
93.920303

>  <Weight>
342.297

>  <weinerPath>
1134

>  <weinerPol>
42

>  <zagreb>
118

$$$$