S1C2N(C(=O)C2NC(=O)C(N)c2ccc(O)cc2)C(C(O)=O)=C(C1)CSc1nn[nH]c1
  MOE2013           2D

 31 34  0  0  1  0  0  0  0  0999 V2000
    0.0000    0.0000    0.0000 S   0  0  0  0  0  0  0  0  0  0  0  0
    0.7480    1.3000    0.0000 C   0  0  3  0  0  0  0  0  0  0  0  0
   -0.0030    2.5980    0.0000 N   0  0  0  0  0  0  0  0  0  0  0  0
    1.2950    3.3500    0.0000 C   0  0  0  0  0  0  0  0  0  0  0  0
    1.6810    4.7990    0.0000 O   0  0  0  0  0  0  0  0  0  0  0  0
    2.0470    2.0520    0.0000 C   0  0  3  0  0  0  0  0  0  0  0  0
    3.4960    1.6650    0.0000 N   0  0  0  0  0  0  0  0  0  0  0  0
    4.5550    2.7270    0.0000 C   0  0  0  0  0  0  0  0  0  0  0  0
    4.1650    4.1750    0.0000 O   0  0  0  0  0  0  0  0  0  0  0  0
    6.0050    2.3410    0.0000 C   0  0  3  0  0  0  0  0  0  0  0  0
    6.3950    0.8920    0.0000 N   0  0  0  0  0  0  0  0  0  0  0  0
    7.0640    3.4020    0.0000 C   0  0  0  0  0  0  0  0  0  0  0  0
    8.5130    3.0160    0.0000 C   0  0  0  0  0  0  0  0  0  0  0  0
    9.5730    4.0780    0.0000 C   0  0  0  0  0  0  0  0  0  0  0  0
    9.1830    5.5260    0.0000 C   0  0  0  0  0  0  0  0  0  0  0  0
   10.2420    6.5880    0.0000 O   0  0  0  0  0  0  0  0  0  0  0  0
    7.7330    5.9130    0.0000 C   0  0  0  0  0  0  0  0  0  0  0  0
    6.6740    4.8510    0.0000 C   0  0  0  0  0  0  0  0  0  0  0  0
   -1.5030    2.5960    0.0000 C   0  0  0  0  0  0  0  0  0  0  0  0
   -2.2550    3.8940    0.0000 C   0  0  0  0  0  0  0  0  0  0  0  0
   -3.7550    3.8930    0.0000 O   0  0  0  0  0  0  0  0  0  0  0  0
   -1.5060    5.1940    0.0000 O   0  0  0  0  0  0  0  0  0  0  0  0
   -2.2520    1.2960    0.0000 C   0  0  0  0  0  0  0  0  0  0  0  0
   -1.5000   -0.0020    0.0000 C   0  0  0  0  0  0  0  0  0  0  0  0
   -3.7520    1.2940    0.0000 C   0  0  0  0  0  0  0  0  0  0  0  0
   -4.5000   -0.0050    0.0000 S   0  0  0  0  0  0  0  0  0  0  0  0
   -6.0000   -0.0070    0.0000 C   0  0  0  0  0  0  0  0  0  0  0  0
   -6.8830    1.2050    0.0000 N   0  0  0  0  0  0  0  0  0  0  0  0
   -8.3090    0.7400    0.0000 N   0  0  0  0  0  0  0  0  0  0  0  0
   -8.3070   -0.7600    0.0000 N   0  0  0  0  0  0  0  0  0  0  0  0
   -6.8800   -1.2220    0.0000 C   0  0  0  0  0  0  0  0  0  0  0  0
  1  2  1  0  0  0  0
  1 24  1  0  0  0  0
  2  3  1  0  0  0  0
  2  6  1  0  0  0  0
  3  4  1  0  0  0  0
  3 19  1  0  0  0  0
  4  5  2  0  0  0  0
  4  6  1  0  0  0  0
  6  7  1  0  0  0  0
  7  8  1  0  0  0  0
  8  9  2  0  0  0  0
  8 10  1  0  0  0  0
 10 11  1  0  0  0  0
 10 12  1  0  0  0  0
 12 13  1  0  0  0  0
 12 18  2  0  0  0  0
 13 14  2  0  0  0  0
 14 15  1  0  0  0  0
 15 16  1  0  0  0  0
 15 17  2  0  0  0  0
 17 18  1  0  0  0  0
 19 20  1  0  0  0  0
 19 23  2  0  0  0  0
 20 21  1  0  0  0  0
 20 22  2  0  0  0  0
 23 24  1  0  0  0  0
 23 25  1  0  0  0  0
 25 26  1  0  0  0  0
 26 27  1  0  0  0  0
 27 28  1  0  0  0  0
 27 31  2  0  0  0  0
 28 29  2  0  0  0  0
 29 30  1  0  0  0  0
 30 31  1  0  0  0  0
M  END
>  <Index>
1389

>  <ID>
HT3848

>  <class>
0

>  <apol>
60.092274

>  <ast_fraglike>
0

>  <ast_fraglike_ext>
0

>  <ast_violation>
3

>  <ast_violation_ext>
5

>  <a_acc>
9

>  <a_acid>
0

>  <a_aro>
11

>  <a_base>
0

>  <a_count>
49

>  <a_don>
7

>  <a_donacc>
16

>  <a_heavy>
31

>  <a_hyd>
17

>  <a_IC>
95.884064

>  <a_ICM>
1.9568177

>  <a_nB>
0

>  <a_nBr>
0

>  <a_nC>
18

>  <a_nCl>
0

>  <a_nF>
0

>  <a_nH>
18

>  <a_nI>
0

>  <a_nN>
6

>  <a_nO>
5

>  <a_nP>
0

>  <a_nS>
2

>  <balabanJ>
1.3152298

>  <BCUT_PEOE_0>
-2.6900761

>  <BCUT_PEOE_1>
-0.58864802

>  <BCUT_PEOE_2>
0.70317298

>  <BCUT_PEOE_3>
2.737113

>  <BCUT_SLOGP_0>
-2.8985648

>  <BCUT_SLOGP_1>
-0.54752403

>  <BCUT_SLOGP_2>
0.78811598

>  <BCUT_SLOGP_3>
2.6241622

>  <BCUT_SMR_0>
-2.4039025

>  <BCUT_SMR_1>
-0.42876786

>  <BCUT_SMR_2>
0.85431087

>  <BCUT_SMR_3>
3.0215495

>  <bpol>
29.751726

>  <b_1rotN>
7

>  <b_1rotR>
0.20588236

>  <b_ar>
11

>  <b_count>
52

>  <b_double>
4

>  <b_heavy>
34

>  <b_max1len>
3

>  <b_rotN>
8

>  <b_rotR>
0.23529412

>  <b_single>
37

>  <b_triple>
0

>  <chi0>
22.120592

>  <chi0v>
17.520668

>  <chi0v_C>
10.033015

>  <chi0_C>
11.3006

>  <chi1>
14.863081

>  <chi1v>
11.140934

>  <chi1v_C>
4.5165076

>  <chi1_C>
5.857738

>  <chiral>
3

>  <chiral_u>
3

>  <density>
0.88568854

>  <diameter>
17

>  <FCharge>
0

>  <GCUT_PEOE_0>
-0.82502878

>  <GCUT_PEOE_1>
-0.41901168

>  <GCUT_PEOE_2>
0.11312681

>  <GCUT_PEOE_3>
2.6566517

>  <GCUT_SLOGP_0>
-1.33746

>  <GCUT_SLOGP_1>
-0.39886239

>  <GCUT_SLOGP_2>
0.16445385

>  <GCUT_SLOGP_3>
2.6390946

>  <GCUT_SMR_0>
-0.52909333

>  <GCUT_SMR_1>
-0.22749048

>  <GCUT_SMR_2>
0.24947813

>  <GCUT_SMR_3>
2.9419837

>  <Kier1>
24.134949

>  <Kier2>
10.508121

>  <Kier3>
5.2394743

>  <KierA1>
19.918846

>  <KierA2>
8.6139536

>  <KierA3>
4.2737789

>  <KierFlex>
5.5348392

>  <lip_acc>
11

>  <lip_don>
6

>  <lip_druglike>
0

>  <lip_violation>
2

>  <logP(o/w)>
0.396

>  <logS>
-3.75739

>  <mr>
11.412955

>  <mutagenic>
0

>  <nmol>
1

>  <opr_brigid>
20

>  <opr_leadlike>
0

>  <opr_nring>
4

>  <opr_nrot>
7

>  <opr_violation>
3

>  <PC+>
0

>  <PC->
0

>  <PEOE_PC+>
3.3271136

>  <PEOE_PC->
-3.3271136

>  <PEOE_RPC+>
0.092554204

>  <PEOE_RPC->
0.10815151

>  <PEOE_VSA+0>
38.416294

>  <PEOE_VSA+1>
59.327522

>  <PEOE_VSA+2>
44.027134

>  <PEOE_VSA+3>
17.238026

>  <PEOE_VSA+4>
33.597878

>  <PEOE_VSA+5>
12.949531

>  <PEOE_VSA+6>
14.708499

>  <PEOE_VSA-0>
28.926888

>  <PEOE_VSA-1>
57.429928

>  <PEOE_VSA-2>
29.181658

>  <PEOE_VSA-3>
0

>  <PEOE_VSA-4>
0

>  <PEOE_VSA-5>
44.576118

>  <PEOE_VSA-6>
22.323092

>  <PEOE_VSA_FHYD>
0.68176234

>  <PEOE_VSA_FNEG>
0.45303333

>  <PEOE_VSA_FPNEG>
0.16612561

>  <PEOE_VSA_FPOL>
0.31823763

>  <PEOE_VSA_FPOS>
0.54696667

>  <PEOE_VSA_FPPOS>
0.15211204

>  <PEOE_VSA_HYD>
274.54745

>  <PEOE_VSA_NEG>
182.43768

>  <PEOE_VSA_PNEG>
66.899208

>  <PEOE_VSA_POL>
128.15512

>  <PEOE_VSA_POS>
220.26488

>  <PEOE_VSA_PPOS>
61.255905

>  <petitjean>
0.47058824

>  <petitjeanSC>
0.8888889

>  <Q_PC+>
0

>  <Q_PC->
0

>  <Q_RPC+>
0

>  <Q_RPC->
0

>  <Q_VSA_FHYD>
1

>  <Q_VSA_FNEG>
0

>  <Q_VSA_FPNEG>
0

>  <Q_VSA_FPOL>
0

>  <Q_VSA_FPOS>
1

>  <Q_VSA_FPPOS>
0

>  <Q_VSA_HYD>
402.70258

>  <Q_VSA_NEG>
0

>  <Q_VSA_PNEG>
0

>  <Q_VSA_POL>
0

>  <Q_VSA_POS>
402.70258

>  <Q_VSA_PPOS>
0

>  <radius>
9

>  <reactive>
0

>  <rings>
4

>  <RPC+>
0

>  <RPC->
0

>  <rsynth>
0.45161289

>  <SlogP>
0.1365

>  <SlogP_VSA0>
76.293167

>  <SlogP_VSA1>
54.590839

>  <SlogP_VSA2>
94.578751

>  <SlogP_VSA3>
59.852356

>  <SlogP_VSA4>
3.185575

>  <SlogP_VSA5>
7.064229

>  <SlogP_VSA6>
0

>  <SlogP_VSA7>
87.787094

>  <SlogP_VSA8>
3.9819686

>  <SlogP_VSA9>
69.68251

>  <SMR>
11.19394

>  <SMR_VSA0>
71.586647

>  <SMR_VSA1>
61.713032

>  <SMR_VSA2>
61.180893

>  <SMR_VSA3>
24.68239

>  <SMR_VSA4>
32.897186

>  <SMR_VSA5>
87.787094

>  <SMR_VSA6>
52.73016

>  <SMR_VSA7>
64.439079

>  <TPSA>
174.53

>  <VAdjEq>
0.36875206

>  <VAdjMa>
6.0874629

>  <VDistEq>
3.8005865

>  <VDistMa>
9.5979881

>  <vdw_area>
402.70258

>  <vdw_vol>
522.20502

>  <vsa_acc>
40.293346

>  <vsa_acid>
0

>  <vsa_base>
0

>  <vsa_don>
5.6825762

>  <vsa_hyd>
208.94931

>  <vsa_other>
40.607563

>  <vsa_pol>
123.26125

>  <Weight>
462.51099

>  <weinerPath>
2945

>  <weinerPol>
48

>  <zagreb>
166

$$$$