O(CC)c1ccc(cc1OC)Cc1nc(cc2c1cc(OC)c(OC)c2)C
  MOE2013           2D

 27 29  0  0  0  0  0  0  0  0999 V2000
    0.0000    0.0000    0.0000 O   0  0  0  0  0  0  0  0  0  0  0  0
    0.7430   -1.3030    0.0000 C   0  0  0  0  0  0  0  0  0  0  0  0
    2.2430   -1.3120    0.0000 C   0  0  0  0  0  0  0  0  0  0  0  0
   -1.5000    0.0080    0.0000 C   0  0  0  0  0  0  0  0  0  0  0  0
   -2.2570   -1.2860    0.0000 C   0  0  0  0  0  0  0  0  0  0  0  0
   -3.7570   -1.2780    0.0000 C   0  0  0  0  0  0  0  0  0  0  0  0
   -4.5000    0.0250    0.0000 C   0  0  0  0  0  0  0  0  0  0  0  0
   -3.7430    1.3200    0.0000 C   0  0  0  0  0  0  0  0  0  0  0  0
   -2.2430    1.3120    0.0000 C   0  0  0  0  0  0  0  0  0  0  0  0
   -1.4850    2.6060    0.0000 O   0  0  0  0  0  0  0  0  0  0  0  0
   -2.2280    3.9100    0.0000 C   0  0  0  0  0  0  0  0  0  0  0  0
   -6.0000    0.0340    0.0000 C   0  0  0  0  0  0  0  0  0  0  0  0
   -6.7570   -1.2610    0.0000 C   0  0  0  0  0  0  0  0  0  0  0  0
   -6.0140   -2.5640    0.0000 N   0  0  0  0  0  0  0  0  0  0  0  0
   -6.7720   -3.8590    0.0000 C   0  0  0  0  0  0  0  0  0  0  0  0
   -8.2720   -3.8510    0.0000 C   0  0  0  0  0  0  0  0  0  0  0  0
   -9.0140   -2.5480    0.0000 C   0  0  0  0  0  0  0  0  0  0  0  0
   -8.2570   -1.2530    0.0000 C   0  0  0  0  0  0  0  0  0  0  0  0
   -9.0000    0.0500    0.0000 C   0  0  0  0  0  0  0  0  0  0  0  0
  -10.5000    0.0590    0.0000 C   0  0  0  0  0  0  0  0  0  0  0  0
  -11.2430    1.3620    0.0000 O   0  0  0  0  0  0  0  0  0  0  0  0
  -10.4850    2.6570    0.0000 C   0  0  0  0  0  0  0  0  0  0  0  0
  -11.2570   -1.2360    0.0000 C   0  0  0  0  0  0  0  0  0  0  0  0
  -12.7570   -1.2280    0.0000 O   0  0  0  0  0  0  0  0  0  0  0  0
  -13.5140   -2.5220    0.0000 C   0  0  0  0  0  0  0  0  0  0  0  0
  -10.5140   -2.5390    0.0000 C   0  0  0  0  0  0  0  0  0  0  0  0
   -6.0290   -5.1620    0.0000 C   0  0  0  0  0  0  0  0  0  0  0  0
  1  2  1  0  0  0  0
  1  4  1  0  0  0  0
  2  3  1  0  0  0  0
  4  5  1  0  0  0  0
  4  9  2  0  0  0  0
  5  6  2  0  0  0  0
  6  7  1  0  0  0  0
  7  8  2  0  0  0  0
  7 12  1  0  0  0  0
  8  9  1  0  0  0  0
  9 10  1  0  0  0  0
 10 11  1  0  0  0  0
 12 13  1  0  0  0  0
 13 14  2  0  0  0  0
 13 18  1  0  0  0  0
 14 15  1  0  0  0  0
 15 16  2  0  0  0  0
 15 27  1  0  0  0  0
 16 17  1  0  0  0  0
 17 18  1  0  0  0  0
 17 26  2  0  0  0  0
 18 19  2  0  0  0  0
 19 20  1  0  0  0  0
 20 21  1  0  0  0  0
 20 23  2  0  0  0  0
 21 22  1  0  0  0  0
 23 24  1  0  0  0  0
 23 26  1  0  0  0  0
 24 25  1  0  0  0  0
M  END
>  <Index>
1361

>  <ID>
HT3667

>  <class>
0

>  <apol>
59.697826

>  <ast_fraglike>
0

>  <ast_fraglike_ext>
0

>  <ast_violation>
3

>  <ast_violation_ext>
4

>  <a_acc>
5

>  <a_acid>
0

>  <a_aro>
16

>  <a_base>
0

>  <a_count>
52

>  <a_don>
0

>  <a_donacc>
5

>  <a_heavy>
27

>  <a_hyd>
22

>  <a_IC>
74.218964

>  <a_ICM>
1.4272878

>  <a_nB>
0

>  <a_nBr>
0

>  <a_nC>
22

>  <a_nCl>
0

>  <a_nF>
0

>  <a_nH>
25

>  <a_nI>
0

>  <a_nN>
1

>  <a_nO>
4

>  <a_nP>
0

>  <a_nS>
0

>  <balabanJ>
1.6337878

>  <BCUT_PEOE_0>
-2.4074059

>  <BCUT_PEOE_1>
-0.52931595

>  <BCUT_PEOE_2>
0.35222518

>  <BCUT_PEOE_3>
2.3769598

>  <BCUT_SLOGP_0>
-2.400841

>  <BCUT_SLOGP_1>
-0.48236528

>  <BCUT_SLOGP_2>
0.4779157

>  <BCUT_SLOGP_3>
2.50846

>  <BCUT_SMR_0>
-2.154695

>  <BCUT_SMR_1>
-0.27178958

>  <BCUT_SMR_2>
0.63939631

>  <BCUT_SMR_3>
2.6636875

>  <bpol>
36.314175

>  <b_1rotN>
7

>  <b_1rotR>
0.24137931

>  <b_ar>
17

>  <b_count>
54

>  <b_double>
0

>  <b_heavy>
29

>  <b_max1len>
3

>  <b_rotN>
7

>  <b_rotR>
0.24137931

>  <b_single>
37

>  <b_triple>
0

>  <chi0>
19.38854

>  <chi0v>
16.458523

>  <chi0v_C>
14.378315

>  <chi0_C>
15.853006

>  <chi1>
13.08758

>  <chi1v>
8.9114285

>  <chi1v_C>
6.1342983

>  <chi1_C>
8.0167694

>  <chiral>
0

>  <chiral_u>
0

>  <density>
0.706034

>  <diameter>
14

>  <FCharge>
0

>  <GCUT_PEOE_0>
-0.78668189

>  <GCUT_PEOE_1>
-0.41377303

>  <GCUT_PEOE_2>
-0.10378819

>  <GCUT_PEOE_3>
2.6399052

>  <GCUT_SLOGP_0>
-0.89072925

>  <GCUT_SLOGP_1>
-0.30384696

>  <GCUT_SLOGP_2>
0.059141513

>  <GCUT_SLOGP_3>
2.7939415

>  <GCUT_SMR_0>
-0.51378077

>  <GCUT_SMR_1>
-0.19199139

>  <GCUT_SMR_2>
0.077929549

>  <GCUT_SMR_3>
2.933115

>  <Kier1>
21.702734

>  <Kier2>
10.15625

>  <Kier3>
5.1358023

>  <KierA1>
16.870308

>  <KierA2>
7.8131537

>  <KierA3>
3.9204998

>  <KierFlex>
4.8818636

>  <lip_acc>
5

>  <lip_don>
0

>  <lip_druglike>
1

>  <lip_violation>
0

>  <logP(o/w)>
3.9744799

>  <logS>
-4.8025899

>  <mr>
10.671503

>  <mutagenic>
0

>  <nmol>
1

>  <opr_brigid>
17

>  <opr_leadlike>
1

>  <opr_nring>
3

>  <opr_nrot>
7

>  <opr_violation>
1

>  <PC+>
0

>  <PC->
0

>  <PEOE_PC+>
1.932411

>  <PEOE_PC->
-1.932411

>  <PEOE_RPC+>
0.055008925

>  <PEOE_RPC->
0.17870554

>  <PEOE_VSA+0>
126.72546

>  <PEOE_VSA+1>
94.162407

>  <PEOE_VSA+2>
33.834076

>  <PEOE_VSA+3>
0

>  <PEOE_VSA+4>
0

>  <PEOE_VSA+5>
0

>  <PEOE_VSA+6>
0

>  <PEOE_VSA-0>
103.18695

>  <PEOE_VSA-1>
12.254904

>  <PEOE_VSA-2>
0

>  <PEOE_VSA-3>
0

>  <PEOE_VSA-4>
0

>  <PEOE_VSA-5>
5.6825762

>  <PEOE_VSA-6>
10.015024

>  <PEOE_VSA_FHYD>
0.95931804

>  <PEOE_VSA_FNEG>
0.33986157

>  <PEOE_VSA_FPNEG>
0.040681966

>  <PEOE_VSA_FPOL>
0.040681966

>  <PEOE_VSA_FPOS>
0.66013843

>  <PEOE_VSA_FPPOS>
0

>  <PEOE_VSA_HYD>
370.16382

>  <PEOE_VSA_NEG>
131.13947

>  <PEOE_VSA_PNEG>
15.6976

>  <PEOE_VSA_POL>
15.6976

>  <PEOE_VSA_POS>
254.72195

>  <PEOE_VSA_PPOS>
0

>  <petitjean>
0.5

>  <petitjeanSC>
1

>  <Q_PC+>
0

>  <Q_PC->
0

>  <Q_RPC+>
0

>  <Q_RPC->
0

>  <Q_VSA_FHYD>
1

>  <Q_VSA_FNEG>
0

>  <Q_VSA_FPNEG>
0

>  <Q_VSA_FPOL>
0

>  <Q_VSA_FPOS>
1

>  <Q_VSA_FPPOS>
0

>  <Q_VSA_HYD>
385.86142

>  <Q_VSA_NEG>
0

>  <Q_VSA_PNEG>
0

>  <Q_VSA_POL>
0

>  <Q_VSA_POS>
385.86142

>  <Q_VSA_PPOS>
0

>  <radius>
7

>  <reactive>
0

>  <rings>
3

>  <RPC+>
0

>  <RPC->
0

>  <rsynth>
1

>  <SlogP>
4.5584898

>  <SlogP_VSA0>
43.99955

>  <SlogP_VSA1>
16.78553

>  <SlogP_VSA2>
0

>  <SlogP_VSA3>
20.926258

>  <SlogP_VSA4>
8.69907

>  <SlogP_VSA5>
125.02001

>  <SlogP_VSA6>
0

>  <SlogP_VSA7>
111.00504

>  <SlogP_VSA8>
0

>  <SlogP_VSA9>
87.62574

>  <SMR>
10.6553

>  <SMR_VSA0>
0

>  <SMR_VSA1>
60.78508

>  <SMR_VSA2>
0

>  <SMR_VSA3>
29.672783

>  <SMR_VSA4>
5.1459289

>  <SMR_VSA5>
124.72751

>  <SMR_VSA6>
20.926258

>  <SMR_VSA7>
172.80363

>  <TPSA>
49.810001

>  <VAdjEq>
0.40063059

>  <VAdjMa>
5.8579812

>  <VDistEq>
3.5019028

>  <VDistMa>
9.22159

>  <vdw_area>
385.86142

>  <vdw_vol>
520.4353

>  <vsa_acc>
15.6976

>  <vsa_acid>
0

>  <vsa_base>
0

>  <vsa_don>
0

>  <vsa_hyd>
352.36893

>  <vsa_other>
0

>  <vsa_pol>
15.6976

>  <Weight>
367.44498

>  <weinerPath>
1888

>  <weinerPol>
45

>  <zagreb>
138

$$$$