O1c2c(OC1)cc1N(C=C(C(O)=O)C(=O)c1c2)CC
  MOE2013           2D

 19 21  0  0  1  0  0  0  0  0999 V2000
    0.0000    0.0000    0.0000 O   0  0  0  0  0  0  0  0  0  0  0  0
   -1.3750    0.5990    0.0000 C   0  0  0  0  0  0  0  0  0  0  0  0
   -1.2310    2.0920    0.0000 C   0  0  0  0  0  0  0  0  0  0  0  0
    0.2340    2.4160    0.0000 O   0  0  0  0  0  0  0  0  0  0  0  0
    0.9950    1.1230    0.0000 C   0  0  0  0  0  0  0  0  0  0  0  0
   -2.4510    2.9640    0.0000 C   0  0  0  0  0  0  0  0  0  0  0  0
   -3.8170    2.3420    0.0000 C   0  0  0  0  0  0  0  0  0  0  0  0
   -5.0370    3.2140    0.0000 N   0  0  3  0  0  0  0  0  0  0  0  0
   -6.4030    2.5930    0.0000 C   0  0  0  0  0  0  0  0  0  0  0  0
   -6.5470    1.1000    0.0000 C   0  0  0  0  0  0  0  0  0  0  0  0
   -7.9120    0.4790    0.0000 C   0  0  0  0  0  0  0  0  0  0  0  0
   -8.0570   -1.0140    0.0000 O   0  0  0  0  0  0  0  0  0  0  0  0
   -9.1330    1.3500    0.0000 O   0  0  0  0  0  0  0  0  0  0  0  0
   -5.3270    0.2280    0.0000 C   0  0  0  0  0  0  0  0  0  0  0  0
   -5.4710   -1.2650    0.0000 O   0  0  0  0  0  0  0  0  0  0  0  0
   -3.9610    0.8490    0.0000 C   0  0  0  0  0  0  0  0  0  0  0  0
   -2.7410   -0.0220    0.0000 C   0  0  0  0  0  0  0  0  0  0  0  0
   -4.8930    4.7070    0.0000 C   0  0  0  0  0  0  0  0  0  0  0  0
   -6.1130    5.5790    0.0000 C   0  0  0  0  0  0  0  0  0  0  0  0
  1  2  1  0  0  0  0
  1  5  1  0  0  0  0
  2  3  1  0  0  0  0
  2 17  2  0  0  0  0
  3  4  1  0  0  0  0
  3  6  2  0  0  0  0
  4  5  1  0  0  0  0
  6  7  1  0  0  0  0
  7  8  1  0  0  0  0
  7 16  2  0  0  0  0
  8  9  1  0  0  0  0
  8 18  1  0  0  0  0
  9 10  2  0  0  0  0
 10 11  1  0  0  0  0
 10 14  1  0  0  0  0
 11 12  1  0  0  0  0
 11 13  2  0  0  0  0
 14 15  2  0  0  0  0
 14 16  1  0  0  0  0
 16 17  1  0  0  0  0
 18 19  1  0  0  0  0
M  END
>  <Index>
1292

>  <ID>
HT3150

>  <class>
0

>  <apol>
35.324722

>  <ast_fraglike>
0

>  <ast_fraglike_ext>
0

>  <ast_violation>
1

>  <ast_violation_ext>
1

>  <a_acc>
5

>  <a_acid>
0

>  <a_aro>
6

>  <a_base>
0

>  <a_count>
30

>  <a_don>
2

>  <a_donacc>
7

>  <a_heavy>
19

>  <a_hyd>
10

>  <a_IC>
49.437614

>  <a_ICM>
1.6479205

>  <a_nB>
0

>  <a_nBr>
0

>  <a_nC>
13

>  <a_nCl>
0

>  <a_nF>
0

>  <a_nH>
11

>  <a_nI>
0

>  <a_nN>
1

>  <a_nO>
5

>  <a_nP>
0

>  <a_nS>
0

>  <balabanJ>
1.8135222

>  <BCUT_PEOE_0>
-2.505249

>  <BCUT_PEOE_1>
-0.55857283

>  <BCUT_PEOE_2>
0.54916537

>  <BCUT_PEOE_3>
2.4669187

>  <BCUT_SLOGP_0>
-2.5311003

>  <BCUT_SLOGP_1>
-0.50166774

>  <BCUT_SLOGP_2>
0.61154771

>  <BCUT_SLOGP_3>
2.5366578

>  <BCUT_SMR_0>
-2.2071381

>  <BCUT_SMR_1>
-0.34530795

>  <BCUT_SMR_2>
0.77059937

>  <BCUT_SMR_3>
2.7737236

>  <bpol>
19.753277

>  <b_1rotN>
2

>  <b_1rotR>
0.095238097

>  <b_ar>
6

>  <b_count>
32

>  <b_double>
3

>  <b_heavy>
21

>  <b_max1len>
3

>  <b_rotN>
2

>  <b_rotR>
0.095238097

>  <b_single>
23

>  <b_triple>
0

>  <chi0>
13.568549

>  <chi0v>
10.173685

>  <chi0v_C>
7.6462646

>  <chi0_C>
8.5769854

>  <chi1>
9.1133919

>  <chi1v>
5.8159695

>  <chi1v_C>
3.4004824

>  <chi1_C>
4.4150147

>  <chiral>
0

>  <chiral_u>
0

>  <density>
0.82593954

>  <diameter>
8

>  <FCharge>
0

>  <GCUT_PEOE_0>
-0.81905925

>  <GCUT_PEOE_1>
-0.45809567

>  <GCUT_PEOE_2>
0.036845941

>  <GCUT_PEOE_3>
2.4851685

>  <GCUT_SLOGP_0>
-0.94708073

>  <GCUT_SLOGP_1>
-0.40246764

>  <GCUT_SLOGP_2>
0.12154879

>  <GCUT_SLOGP_3>
2.5708659

>  <GCUT_SMR_0>
-0.50731063

>  <GCUT_SMR_1>
-0.20792

>  <GCUT_SMR_2>
0.18749018

>  <GCUT_SMR_3>
2.7715211

>  <Kier1>
13.959184

>  <Kier2>
5.4131112

>  <Kier3>
2.3801653

>  <KierA1>
10.217178

>  <KierA2>
3.887219

>  <KierA3>
1.6838611

>  <KierFlex>
2.0903375

>  <lip_acc>
6

>  <lip_don>
1

>  <lip_druglike>
1

>  <lip_violation>
0

>  <logP(o/w)>
1.0700001

>  <logS>
-2.32635

>  <mr>
6.5003552

>  <mutagenic>
0

>  <nmol>
1

>  <opr_brigid>
15

>  <opr_leadlike>
1

>  <opr_nring>
3

>  <opr_nrot>
2

>  <opr_violation>
0

>  <PC+>
0

>  <PC->
0

>  <PEOE_PC+>
1.8308595

>  <PEOE_PC->
-1.8308595

>  <PEOE_RPC+>
0.16163389

>  <PEOE_RPC->
0.17880903

>  <PEOE_VSA+0>
60.17326

>  <PEOE_VSA+1>
21.326929

>  <PEOE_VSA+2>
19.125578

>  <PEOE_VSA+3>
21.201273

>  <PEOE_VSA+4>
18.782692

>  <PEOE_VSA+5>
14.708499

>  <PEOE_VSA+6>
0

>  <PEOE_VSA-0>
24.509808

>  <PEOE_VSA-1>
18.747677

>  <PEOE_VSA-2>
0

>  <PEOE_VSA-3>
0

>  <PEOE_VSA-4>
0

>  <PEOE_VSA-5>
27.133842

>  <PEOE_VSA-6>
12.775052

>  <PEOE_VSA_FHYD>
0.69222295

>  <PEOE_VSA_FNEG>
0.34872848

>  <PEOE_VSA_FPNEG>
0.16734369

>  <PEOE_VSA_FPOL>
0.30777702

>  <PEOE_VSA_FPOS>
0.65127152

>  <PEOE_VSA_FPPOS>
0.14043334

>  <PEOE_VSA_HYD>
165.08453

>  <PEOE_VSA_NEG>
83.166382

>  <PEOE_VSA_PNEG>
39.908894

>  <PEOE_VSA_POL>
73.400085

>  <PEOE_VSA_POS>
155.31824

>  <PEOE_VSA_PPOS>
33.491192

>  <petitjean>
0.5

>  <petitjeanSC>
1

>  <Q_PC+>
0

>  <Q_PC->
0

>  <Q_RPC+>
0

>  <Q_RPC->
0

>  <Q_VSA_FHYD>
1

>  <Q_VSA_FNEG>
0

>  <Q_VSA_FPNEG>
0

>  <Q_VSA_FPOL>
0

>  <Q_VSA_FPOS>
1

>  <Q_VSA_FPPOS>
0

>  <Q_VSA_HYD>
238.48462

>  <Q_VSA_NEG>
0

>  <Q_VSA_PNEG>
0

>  <Q_VSA_POL>
0

>  <Q_VSA_POS>
238.48462

>  <Q_VSA_PPOS>
0

>  <radius>
4

>  <reactive>
0

>  <rings>
3

>  <RPC+>
0

>  <RPC->
0

>  <rsynth>
1

>  <SlogP>
1.4064

>  <SlogP_VSA0>
25.12409

>  <SlogP_VSA1>
13.433075

>  <SlogP_VSA2>
23.862217

>  <SlogP_VSA3>
66.808914

>  <SlogP_VSA4>
27.047791

>  <SlogP_VSA5>
3.185575

>  <SlogP_VSA6>
0

>  <SlogP_VSA7>
52.500725

>  <SlogP_VSA8>
0

>  <SlogP_VSA9>
46.569618

>  <SMR>
6.5634298

>  <SMR_VSA0>
47.724434

>  <SMR_VSA1>
21.999775

>  <SMR_VSA2>
28.509541

>  <SMR_VSA3>
16.858006

>  <SMR_VSA4>
2.7567475

>  <SMR_VSA5>
52.500725

>  <SMR_VSA6>
54.856766

>  <SMR_VSA7>
33.326015

>  <TPSA>
76.07

>  <VAdjEq>
0.51875818

>  <VAdjMa>
5.3923173

>  <VDistEq>
2.8079257

>  <VDistMa>
8.2348337

>  <vdw_area>
238.48462

>  <vdw_vol>
316.28586

>  <vsa_acc>
18.574432

>  <vsa_acid>
0

>  <vsa_base>
0

>  <vsa_don>
0

>  <vsa_hyd>
129.65813

>  <vsa_other>
51.475471

>  <vsa_pol>
45.708275

>  <Weight>
261.233

>  <weinerPath>
629

>  <weinerPol>
33

>  <zagreb>
104

$$$$