O(C(=O)C(CC)(C)C)C1C2C(=CC(C1)C)C=CC(C)C2CCC(O)CC(O)CC(O)=O
  MOE2013           2D

 31 32  0  0  1  0  0  0  0  0999 V2000
    0.0000    0.0000    0.0000 O   0  0  0  0  0  0  0  0  0  0  0  0
    0.0060    1.5000    0.0000 C   0  0  0  0  0  0  0  0  0  0  0  0
   -1.2910    2.2550    0.0000 O   0  0  0  0  0  0  0  0  0  0  0  0
    1.3070    2.2450    0.0000 C   0  0  0  0  0  0  0  0  0  0  0  0
    2.6090    2.9900    0.0000 C   0  0  0  0  0  0  0  0  0  0  0  0
    2.6150    4.4900    0.0000 C   0  0  0  0  0  0  0  0  0  0  0  0
    0.5620    3.5470    0.0000 C   0  0  0  0  0  0  0  0  0  0  0  0
    2.0530    0.9430    0.0000 C   0  0  0  0  0  0  0  0  0  0  0  0
   -1.3020   -0.7450    0.0000 C   0  0  3  0  0  0  0  0  0  0  0  0
   -1.3070   -2.2450    0.0000 C   0  0  3  0  0  0  0  0  0  0  0  0
   -2.6090   -2.9900    0.0000 C   0  0  0  0  0  0  0  0  0  0  0  0
   -3.9050   -2.2360    0.0000 C   0  0  0  0  0  0  0  0  0  0  0  0
   -3.9000   -0.7360    0.0000 C   0  0  3  0  0  0  0  0  0  0  0  0
   -2.5980    0.0100    0.0000 C   0  0  0  0  0  0  0  0  0  0  0  0
   -5.1960    0.0190    0.0000 C   0  0  0  0  0  0  0  0  0  0  0  0
   -2.6150   -4.4900    0.0000 C   0  0  0  0  0  0  0  0  0  0  0  0
   -1.3180   -5.2450    0.0000 C   0  0  0  0  0  0  0  0  0  0  0  0
   -0.0170   -4.5000    0.0000 C   0  0  3  0  0  0  0  0  0  0  0  0
    1.2800   -5.2550    0.0000 C   0  0  0  0  0  0  0  0  0  0  0  0
   -0.0110   -3.0000    0.0000 C   0  0  3  0  0  0  0  0  0  0  0  0
    1.2910   -2.2550    0.0000 C   0  0  0  0  0  0  0  0  0  0  0  0
    2.5870   -3.0100    0.0000 C   0  0  0  0  0  0  0  0  0  0  0  0
    3.8890   -2.2640    0.0000 C   0  0  3  0  0  0  0  0  0  0  0  0
    3.8940   -0.7640    0.0000 O   0  0  0  0  0  0  0  0  0  0  0  0
    5.1850   -3.0190    0.0000 C   0  0  0  0  0  0  0  0  0  0  0  0
    6.4870   -2.2740    0.0000 C   0  0  3  0  0  0  0  0  0  0  0  0
    6.4920   -0.7740    0.0000 O   0  0  0  0  0  0  0  0  0  0  0  0
    7.7830   -3.0290    0.0000 C   0  0  0  0  0  0  0  0  0  0  0  0
    9.0850   -2.2840    0.0000 C   0  0  0  0  0  0  0  0  0  0  0  0
   10.3810   -3.0390    0.0000 O   0  0  0  0  0  0  0  0  0  0  0  0
    9.0900   -0.7840    0.0000 O   0  0  0  0  0  0  0  0  0  0  0  0
  1  2  1  0  0  0  0
  1  9  1  0  0  0  0
  2  3  2  0  0  0  0
  2  4  1  0  0  0  0
  4  5  1  0  0  0  0
  4  7  1  0  0  0  0
  4  8  1  0  0  0  0
  5  6  1  0  0  0  0
  9 10  1  0  0  0  0
  9 14  1  0  0  0  0
 10 11  1  0  0  0  0
 10 20  1  0  0  0  0
 11 12  2  0  0  0  0
 11 16  1  0  0  0  0
 12 13  1  0  0  0  0
 13 14  1  0  0  0  0
 13 15  1  0  0  0  0
 16 17  2  0  0  0  0
 17 18  1  0  0  0  0
 18 19  1  0  0  0  0
 18 20  1  0  0  0  0
 20 21  1  0  0  0  0
 21 22  1  0  0  0  0
 22 23  1  0  0  0  0
 23 24  1  0  0  0  0
 23 25  1  0  0  0  0
 25 26  1  0  0  0  0
 26 27  1  0  0  0  0
 26 28  1  0  0  0  0
 28 29  1  0  0  0  0
 29 30  1  0  0  0  0
 29 31  2  0  0  0  0
M  END
>  <Index>
1045

>  <ID>
HT2003

>  <class>
0

>  <apol>
75.483719

>  <ast_fraglike>
0

>  <ast_fraglike_ext>
0

>  <ast_violation>
4

>  <ast_violation_ext>
6

>  <a_acc>
5

>  <a_acid>
0

>  <a_aro>
0

>  <a_base>
0

>  <a_count>
71

>  <a_don>
4

>  <a_donacc>
9

>  <a_heavy>
31

>  <a_hyd>
23

>  <a_IC>
92.148743

>  <a_ICM>
1.2978696

>  <a_nB>
0

>  <a_nBr>
0

>  <a_nC>
25

>  <a_nCl>
0

>  <a_nF>
0

>  <a_nH>
40

>  <a_nI>
0

>  <a_nN>
0

>  <a_nO>
6

>  <a_nP>
0

>  <a_nS>
0

>  <balabanJ>
2.0630884

>  <BCUT_PEOE_0>
-2.8221076

>  <BCUT_PEOE_1>
-0.47969881

>  <BCUT_PEOE_2>
0.54084069

>  <BCUT_PEOE_3>
2.8002987

>  <BCUT_SLOGP_0>
-2.783529

>  <BCUT_SLOGP_1>
-0.45133156

>  <BCUT_SLOGP_2>
0.48478323

>  <BCUT_SLOGP_3>
2.8549211

>  <BCUT_SMR_0>
-2.5722392

>  <BCUT_SMR_1>
-0.35618269

>  <BCUT_SMR_2>
0.62623268

>  <BCUT_SMR_3>
3.0511189

>  <bpol>
47.56028

>  <b_1rotN>
10

>  <b_1rotR>
0.3125

>  <b_ar>
0

>  <b_count>
72

>  <b_double>
4

>  <b_heavy>
32

>  <b_max1len>
8

>  <b_rotN>
11

>  <b_rotR>
0.34375

>  <b_single>
68

>  <b_triple>
0

>  <chi0>
23.34457

>  <chi0v>
19.582529

>  <chi0v_C>
17.016144

>  <chi0_C>
17.637465

>  <chi1>
14.439596

>  <chi1v>
11.630756

>  <chi1v_C>
10.042678

>  <chi1_C>
10.736349

>  <chiral>
7

>  <chiral_u>
7

>  <density>
0.70009309

>  <diameter>
15

>  <FCharge>
0

>  <GCUT_PEOE_0>
-0.80124325

>  <GCUT_PEOE_1>
-0.34936613

>  <GCUT_PEOE_2>
0.054601733

>  <GCUT_PEOE_3>
3.1309505

>  <GCUT_SLOGP_0>
-0.87858671

>  <GCUT_SLOGP_1>
-0.28906193

>  <GCUT_SLOGP_2>
0.022996856

>  <GCUT_SLOGP_3>
3.1932969

>  <GCUT_SMR_0>
-0.53520256

>  <GCUT_SMR_1>
-0.21056439

>  <GCUT_SMR_2>
0.1482552

>  <GCUT_SMR_3>
3.358042

>  <Kier1>
27.246094

>  <Kier2>
11.92344

>  <Kier3>
7.7752066

>  <KierA1>
24.337446

>  <KierA2>
10.60882

>  <KierA3>
6.8981137

>  <KierFlex>
8.3287611

>  <lip_acc>
6

>  <lip_don>
3

>  <lip_druglike>
1

>  <lip_violation>
0

>  <logP(o/w)>
3.8139999

>  <logS>
-3.6658101

>  <mr>
12.007987

>  <mutagenic>
0

>  <nmol>
1

>  <opr_brigid>
11

>  <opr_leadlike>
1

>  <opr_nring>
2

>  <opr_nrot>
10

>  <opr_violation>
0

>  <PC+>
0

>  <PC->
0

>  <PEOE_PC+>
2.7086594

>  <PEOE_PC->
-2.7086594

>  <PEOE_RPC+>
0.098982602

>  <PEOE_RPC->
0.14461036

>  <PEOE_VSA+0>
132.22696

>  <PEOE_VSA+1>
49.008415

>  <PEOE_VSA+2>
0

>  <PEOE_VSA+3>
0

>  <PEOE_VSA+4>
30.972517

>  <PEOE_VSA+5>
29.416998

>  <PEOE_VSA+6>
0

>  <PEOE_VSA-0>
45.715107

>  <PEOE_VSA-1>
130.5031

>  <PEOE_VSA-2>
0

>  <PEOE_VSA-3>
0

>  <PEOE_VSA-4>
0

>  <PEOE_VSA-5>
27.133842

>  <PEOE_VSA-6>
25.806377

>  <PEOE_VSA_FHYD>
0.75927413

>  <PEOE_VSA_FNEG>
0.48675987

>  <PEOE_VSA_FPNEG>
0.11245134

>  <PEOE_VSA_FPOL>
0.24072589

>  <PEOE_VSA_FPOS>
0.51324016

>  <PEOE_VSA_FPPOS>
0.12827455

>  <PEOE_VSA_HYD>
357.45358

>  <PEOE_VSA_NEG>
229.15842

>  <PEOE_VSA_PNEG>
52.94022

>  <PEOE_VSA_POL>
113.32973

>  <PEOE_VSA_POS>
241.62489

>  <PEOE_VSA_PPOS>
60.389515

>  <petitjean>
0.46666667

>  <petitjeanSC>
0.875

>  <Q_PC+>
0

>  <Q_PC->
0

>  <Q_RPC+>
0

>  <Q_RPC->
0

>  <Q_VSA_FHYD>
1

>  <Q_VSA_FNEG>
0

>  <Q_VSA_FPNEG>
0

>  <Q_VSA_FPOL>
0

>  <Q_VSA_FPOS>
1

>  <Q_VSA_FPPOS>
0

>  <Q_VSA_HYD>
470.78333

>  <Q_VSA_NEG>
0

>  <Q_VSA_PNEG>
0

>  <Q_VSA_POL>
0

>  <Q_VSA_POS>
470.78333

>  <Q_VSA_PPOS>
0

>  <radius>
8

>  <reactive>
0

>  <rings>
2

>  <RPC+>
0

>  <RPC->
0

>  <rsynth>
0.48387095

>  <SlogP>
4.1057

>  <SlogP_VSA0>
50.770454

>  <SlogP_VSA1>
15.490929

>  <SlogP_VSA2>
78.130272

>  <SlogP_VSA3>
25.385227

>  <SlogP_VSA4>
17.643185

>  <SlogP_VSA5>
3.185575

>  <SlogP_VSA6>
0

>  <SlogP_VSA7>
52.929554

>  <SlogP_VSA8>
113.21043

>  <SlogP_VSA9>
166.63008

>  <SMR>
11.92174

>  <SMR_VSA0>
58.724319

>  <SMR_VSA1>
50.770454

>  <SMR_VSA2>
43.028412

>  <SMR_VSA3>
22.591522

>  <SMR_VSA4>
0

>  <SMR_VSA5>
166.13998

>  <SMR_VSA6>
15.490929

>  <SMR_VSA7>
166.63008

>  <TPSA>
104.06

>  <VAdjEq>
0.35309514

>  <VAdjMa>
6

>  <VDistEq>
3.6676075

>  <VDistMa>
9.628396

>  <vdw_area>
470.78333

>  <vdw_vol>
623.6156

>  <vsa_acc>
13.566921

>  <vsa_acid>
0

>  <vsa_base>
0

>  <vsa_don>
0

>  <vsa_hyd>
325.73697

>  <vsa_other>
31.920755

>  <vsa_pol>
67.834602

>  <Weight>
436.58899

>  <weinerPath>
2812

>  <weinerPol>
49

>  <zagreb>
156

$$$$