O(C)c1ccc(cc1)C(=O)Nc1ccc(cc1)CCC1N(CCCC1)C
  MOE2013           2D

 26 28  0  0  1  0  0  0  0  0999 V2000
    0.0000    0.0000    0.0000 O   0  0  0  0  0  0  0  0  0  0  0  0
    0.7420    1.3040    0.0000 C   0  0  0  0  0  0  0  0  0  0  0  0
   -1.5000   -0.0100    0.0000 C   0  0  0  0  0  0  0  0  0  0  0  0
   -2.2580    1.2850    0.0000 C   0  0  0  0  0  0  0  0  0  0  0  0
   -3.7580    1.2750    0.0000 C   0  0  0  0  0  0  0  0  0  0  0  0
   -4.5000   -0.0290    0.0000 C   0  0  0  0  0  0  0  0  0  0  0  0
   -3.7420   -1.3230    0.0000 C   0  0  0  0  0  0  0  0  0  0  0  0
   -2.2420   -1.3130    0.0000 C   0  0  0  0  0  0  0  0  0  0  0  0
   -6.0000   -0.0380    0.0000 C   0  0  0  0  0  0  0  0  0  0  0  0
   -6.7580    1.2560    0.0000 O   0  0  0  0  0  0  0  0  0  0  0  0
   -6.7420   -1.3420    0.0000 N   0  0  0  0  0  0  0  0  0  0  0  0
   -8.2420   -1.3520    0.0000 C   0  0  0  0  0  0  0  0  0  0  0  0
   -8.9830   -2.6560    0.0000 C   0  0  0  0  0  0  0  0  0  0  0  0
  -10.4830   -2.6650    0.0000 C   0  0  0  0  0  0  0  0  0  0  0  0
  -11.2410   -1.3710    0.0000 C   0  0  0  0  0  0  0  0  0  0  0  0
  -10.5000   -0.0670    0.0000 C   0  0  0  0  0  0  0  0  0  0  0  0
   -9.0000   -0.0580    0.0000 C   0  0  0  0  0  0  0  0  0  0  0  0
  -12.7410   -1.3810    0.0000 C   0  0  0  0  0  0  0  0  0  0  0  0
  -13.4830   -2.6850    0.0000 C   0  0  0  0  0  0  0  0  0  0  0  0
  -14.9830   -2.6940    0.0000 C   0  0  3  0  0  0  0  0  0  0  0  0
  -15.7250   -3.9980    0.0000 N   0  0  3  0  0  0  0  0  0  0  0  0
  -17.2250   -4.0080    0.0000 C   0  0  0  0  0  0  0  0  0  0  0  0
  -17.9830   -2.7130    0.0000 C   0  0  0  0  0  0  0  0  0  0  0  0
  -17.2410   -1.4100    0.0000 C   0  0  0  0  0  0  0  0  0  0  0  0
  -15.7410   -1.4000    0.0000 C   0  0  0  0  0  0  0  0  0  0  0  0
  -14.9660   -5.2920    0.0000 C   0  0  0  0  0  0  0  0  0  0  0  0
  1  2  1  0  0  0  0
  1  3  1  0  0  0  0
  3  4  1  0  0  0  0
  3  8  2  0  0  0  0
  4  5  2  0  0  0  0
  5  6  1  0  0  0  0
  6  7  2  0  0  0  0
  6  9  1  0  0  0  0
  7  8  1  0  0  0  0
  9 10  2  0  0  0  0
  9 11  1  0  0  0  0
 11 12  1  0  0  0  0
 12 13  1  0  0  0  0
 12 17  2  0  0  0  0
 13 14  2  0  0  0  0
 14 15  1  0  0  0  0
 15 16  2  0  0  0  0
 15 18  1  0  0  0  0
 16 17  1  0  0  0  0
 18 19  1  0  0  0  0
 19 20  1  0  0  0  0
 20 21  1  0  0  0  0
 20 25  1  0  0  0  0
 21 22  1  0  0  0  0
 21 26  1  0  0  0  0
 22 23  1  0  0  0  0
 23 24  1  0  0  0  0
 24 25  1  0  0  0  0
M  END
>  <Index>
1353

>  <ID>
HT3609

>  <class>
0

>  <apol>
61.194202

>  <ast_fraglike>
0

>  <ast_fraglike_ext>
0

>  <ast_violation>
2

>  <ast_violation_ext>
3

>  <a_acc>
3

>  <a_acid>
0

>  <a_aro>
12

>  <a_base>
0

>  <a_count>
54

>  <a_don>
1

>  <a_donacc>
4

>  <a_heavy>
26

>  <a_hyd>
21

>  <a_IC>
74.050491

>  <a_ICM>
1.3713053

>  <a_nB>
0

>  <a_nBr>
0

>  <a_nC>
22

>  <a_nCl>
0

>  <a_nF>
0

>  <a_nH>
28

>  <a_nI>
0

>  <a_nN>
2

>  <a_nO>
2

>  <a_nP>
0

>  <a_nS>
0

>  <balabanJ>
1.3099566

>  <BCUT_PEOE_0>
-2.8157098

>  <BCUT_PEOE_1>
-0.64234966

>  <BCUT_PEOE_2>
0.67220032

>  <BCUT_PEOE_3>
2.7308097

>  <BCUT_SLOGP_0>
-2.8135478

>  <BCUT_SLOGP_1>
-0.53807992

>  <BCUT_SLOGP_2>
0.7261889

>  <BCUT_SLOGP_3>
2.7824829

>  <BCUT_SMR_0>
-2.5445156

>  <BCUT_SMR_1>
-0.46460977

>  <BCUT_SMR_2>
0.84712797

>  <BCUT_SMR_3>
2.9972763

>  <bpol>
36.123795

>  <b_1rotN>
6

>  <b_1rotR>
0.21428572

>  <b_ar>
12

>  <b_count>
56

>  <b_double>
1

>  <b_heavy>
28

>  <b_max1len>
4

>  <b_rotN>
7

>  <b_rotR>
0.25

>  <b_single>
43

>  <b_triple>
0

>  <chi0>
18.35516

>  <chi0v>
15.702503

>  <chi0v_C>
13.938793

>  <chi0_C>
15.363597

>  <chi1>
12.652199

>  <chi1v>
9.4009209

>  <chi1v_C>
7.0627842

>  <chi1_C>
8.8240643

>  <chiral>
1

>  <chiral_u>
1

>  <density>
0.67749083

>  <diameter>
17

>  <FCharge>
0

>  <GCUT_PEOE_0>
-0.85784119

>  <GCUT_PEOE_1>
-0.405561

>  <GCUT_PEOE_2>
0.082333103

>  <GCUT_PEOE_3>
2.7256701

>  <GCUT_SLOGP_0>
-0.99308228

>  <GCUT_SLOGP_1>
-0.29211694

>  <GCUT_SLOGP_2>
0.16308141

>  <GCUT_SLOGP_3>
2.8039811

>  <GCUT_SMR_0>
-0.52367049

>  <GCUT_SMR_1>
-0.21605732

>  <GCUT_SMR_2>
0.19305076

>  <GCUT_SMR_3>
2.9805219

>  <Kier1>
20.727041

>  <Kier2>
10.518627

>  <Kier3>
6.2608695

>  <KierA1>
16.13147

>  <KierA2>
8.0987434

>  <KierA3>
4.7834682

>  <KierFlex>
5.0247941

>  <lip_acc>
4

>  <lip_don>
1

>  <lip_druglike>
1

>  <lip_violation>
0

>  <logP(o/w)>
4.4889998

>  <logS>
-4.2940898

>  <mr>
10.587947

>  <mutagenic>
0

>  <nmol>
1

>  <opr_brigid>
18

>  <opr_leadlike>
1

>  <opr_nring>
3

>  <opr_nrot>
8

>  <opr_violation>
0

>  <PC+>
0

>  <PC->
0

>  <PEOE_PC+>
1.8332795

>  <PEOE_PC->
-1.8332795

>  <PEOE_RPC+>
0.13981616

>  <PEOE_RPC->
0.18977572

>  <PEOE_VSA+0>
105.29788

>  <PEOE_VSA+1>
55.377766

>  <PEOE_VSA+2>
0

>  <PEOE_VSA+3>
8.6190128

>  <PEOE_VSA+4>
0

>  <PEOE_VSA+5>
12.949531

>  <PEOE_VSA+6>
0

>  <PEOE_VSA-0>
146.97423

>  <PEOE_VSA-1>
33.211121

>  <PEOE_VSA-2>
0

>  <PEOE_VSA-3>
0

>  <PEOE_VSA-4>
0

>  <PEOE_VSA-5>
13.566921

>  <PEOE_VSA-6>
2.6406472

>  <PEOE_VSA_FHYD>
0.92299461

>  <PEOE_VSA_FNEG>
0.51868373

>  <PEOE_VSA_FPNEG>
0.042805016

>  <PEOE_VSA_FPOL>
0.077005394

>  <PEOE_VSA_FPOS>
0.48131624

>  <PEOE_VSA_FPPOS>
0.034200374

>  <PEOE_VSA_HYD>
349.48001

>  <PEOE_VSA_NEG>
196.39291

>  <PEOE_VSA_PNEG>
16.207567

>  <PEOE_VSA_POL>
29.157099

>  <PEOE_VSA_POS>
182.2442

>  <PEOE_VSA_PPOS>
12.949531

>  <petitjean>
0.47058824

>  <petitjeanSC>
0.8888889

>  <Q_PC+>
0

>  <Q_PC->
0

>  <Q_RPC+>
0

>  <Q_RPC->
0

>  <Q_VSA_FHYD>
1

>  <Q_VSA_FNEG>
0

>  <Q_VSA_FPNEG>
0

>  <Q_VSA_FPOL>
0

>  <Q_VSA_FPOS>
1

>  <Q_VSA_FPPOS>
0

>  <Q_VSA_HYD>
378.63712

>  <Q_VSA_NEG>
0

>  <Q_VSA_PNEG>
0

>  <Q_VSA_POL>
0

>  <Q_VSA_POS>
378.63712

>  <Q_VSA_PPOS>
0

>  <radius>
9

>  <reactive>
0

>  <rings>
3

>  <RPC+>
0

>  <RPC->
0

>  <rsynth>
1

>  <SlogP>
4.3643699

>  <SlogP_VSA0>
10.999887

>  <SlogP_VSA1>
26.393848

>  <SlogP_VSA2>
3.9819686

>  <SlogP_VSA3>
18.439579

>  <SlogP_VSA4>
30.233366

>  <SlogP_VSA5>
87.14946

>  <SlogP_VSA6>
0

>  <SlogP_VSA7>
141.14548

>  <SlogP_VSA8>
75.473625

>  <SlogP_VSA9>
8.0001755

>  <SMR>
10.59792

>  <SMR_VSA0>
23.862217

>  <SMR_VSA1>
14.124202

>  <SMR_VSA2>
0

>  <SMR_VSA3>
15.596547

>  <SMR_VSA4>
20.767498

>  <SMR_VSA5>
235.4875

>  <SMR_VSA6>
23.698362

>  <SMR_VSA7>
68.281059

>  <TPSA>
41.57

>  <VAdjEq>
0.41210872

>  <VAdjMa>
5.8073549

>  <VDistEq>
3.8292146

>  <VDistMa>
9.04844

>  <vdw_area>
378.63712

>  <vdw_vol>
520.26978

>  <vsa_acc>
16.070677

>  <vsa_acid>
0

>  <vsa_base>
0

>  <vsa_don>
5.6825762

>  <vsa_hyd>
321.64252

>  <vsa_other>
12.949531

>  <vsa_pol>
21.753254

>  <Weight>
352.478

>  <weinerPath>
2067

>  <weinerPol>
37

>  <zagreb>
130

$$$$