S(=O)(=O)(Nc1nc(nc(OCCO)c1Oc1ccccc1OC)-c1ncccn1)c1ccc(cc1)C(C)(C)C
  MOE2013           2D

 39 42  0  0  0  0  0  0  0  0999 V2000
    0.0000    0.0000    0.0000 S   0  0  0  0  0  0  0  0  0  0  0  0
    0.0090   -1.5000    0.0000 O   0  0  0  0  0  0  0  0  0  0  0  0
   -0.0090    1.5000    0.0000 O   0  0  0  0  0  0  0  0  0  0  0  0
   -1.5000   -0.0090    0.0000 N   0  0  0  0  0  0  0  0  0  0  0  0
   -2.2580    1.2850    0.0000 C   0  0  0  0  0  0  0  0  0  0  0  0
   -1.5160    2.5890    0.0000 N   0  0  0  0  0  0  0  0  0  0  0  0
   -2.2740    3.8830    0.0000 C   0  0  0  0  0  0  0  0  0  0  0  0
   -3.7740    3.8740    0.0000 N   0  0  0  0  0  0  0  0  0  0  0  0
   -4.5160    2.5700    0.0000 C   0  0  0  0  0  0  0  0  0  0  0  0
   -6.0160    2.5610    0.0000 O   0  0  0  0  0  0  0  0  0  0  0  0
   -6.7740    3.8550    0.0000 C   0  0  0  0  0  0  0  0  0  0  0  0
   -6.0320    5.1590    0.0000 C   0  0  0  0  0  0  0  0  0  0  0  0
   -6.7900    6.4530    0.0000 O   0  0  0  0  0  0  0  0  0  0  0  0
   -3.7580    1.2760    0.0000 C   0  0  0  0  0  0  0  0  0  0  0  0
   -4.5000   -0.0280    0.0000 O   0  0  0  0  0  0  0  0  0  0  0  0
   -6.0000   -0.0370    0.0000 C   0  0  0  0  0  0  0  0  0  0  0  0
   -6.7580    1.2570    0.0000 C   0  0  0  0  0  0  0  0  0  0  0  0
   -8.2580    1.2480    0.0000 C   0  0  0  0  0  0  0  0  0  0  0  0
   -9.0000   -0.0560    0.0000 C   0  0  0  0  0  0  0  0  0  0  0  0
   -8.2420   -1.3500    0.0000 C   0  0  0  0  0  0  0  0  0  0  0  0
   -6.7420   -1.3410    0.0000 C   0  0  0  0  0  0  0  0  0  0  0  0
   -5.9840   -2.6350    0.0000 O   0  0  0  0  0  0  0  0  0  0  0  0
   -6.7260   -3.9390    0.0000 C   0  0  0  0  0  0  0  0  0  0  0  0
   -1.5320    5.1870    0.0000 C   0  0  0  0  0  0  0  0  0  0  0  0
   -0.0320    5.1960    0.0000 N   0  0  0  0  0  0  0  0  0  0  0  0
    0.7100    6.5000    0.0000 C   0  0  0  0  0  0  0  0  0  0  0  0
   -0.0480    7.7940    0.0000 C   0  0  0  0  0  0  0  0  0  0  0  0
   -1.5480    7.7850    0.0000 C   0  0  0  0  0  0  0  0  0  0  0  0
   -2.2900    6.4810    0.0000 N   0  0  0  0  0  0  0  0  0  0  0  0
    1.5000    0.0090    0.0000 C   0  0  0  0  0  0  0  0  0  0  0  0
    2.2420    1.3130    0.0000 C   0  0  0  0  0  0  0  0  0  0  0  0
    3.7420    1.3220    0.0000 C   0  0  0  0  0  0  0  0  0  0  0  0
    4.5000    0.0280    0.0000 C   0  0  0  0  0  0  0  0  0  0  0  0
    3.7580   -1.2760    0.0000 C   0  0  0  0  0  0  0  0  0  0  0  0
    2.2580   -1.2850    0.0000 C   0  0  0  0  0  0  0  0  0  0  0  0
    6.0000    0.0370    0.0000 C   0  0  0  0  0  0  0  0  0  0  0  0
    6.0090   -1.4630    0.0000 C   0  0  0  0  0  0  0  0  0  0  0  0
    7.5000    0.0470    0.0000 C   0  0  0  0  0  0  0  0  0  0  0  0
    5.9910    1.5370    0.0000 C   0  0  0  0  0  0  0  0  0  0  0  0
  1  2  2  0  0  0  0
  1  3  2  0  0  0  0
  1  4  1  0  0  0  0
  1 30  1  0  0  0  0
  4  5  1  0  0  0  0
  5  6  1  0  0  0  0
  5 14  2  0  0  0  0
  6  7  2  0  0  0  0
  7  8  1  0  0  0  0
  7 24  1  0  0  0  0
  8  9  2  0  0  0  0
  9 10  1  0  0  0  0
  9 14  1  0  0  0  0
 10 11  1  0  0  0  0
 11 12  1  0  0  0  0
 12 13  1  0  0  0  0
 14 15  1  0  0  0  0
 15 16  1  0  0  0  0
 16 17  1  0  0  0  0
 16 21  2  0  0  0  0
 17 18  2  0  0  0  0
 18 19  1  0  0  0  0
 19 20  2  0  0  0  0
 20 21  1  0  0  0  0
 21 22  1  0  0  0  0
 22 23  1  0  0  0  0
 24 25  1  0  0  0  0
 24 29  2  0  0  0  0
 25 26  2  0  0  0  0
 26 27  1  0  0  0  0
 27 28  2  0  0  0  0
 28 29  1  0  0  0  0
 30 31  1  0  0  0  0
 30 35  2  0  0  0  0
 31 32  2  0  0  0  0
 32 33  1  0  0  0  0
 33 34  2  0  0  0  0
 33 36  1  0  0  0  0
 34 35  1  0  0  0  0
 36 37  1  0  0  0  0
 36 38  1  0  0  0  0
 36 39  1  0  0  0  0
M  END
>  <Index>
153

>  <ID>
HT0300

>  <class>
0

>  <apol>
80.069

>  <ast_fraglike>
0

>  <ast_fraglike_ext>
0

>  <ast_violation>
3

>  <ast_violation_ext>
5

>  <a_acc>
8

>  <a_acid>
0

>  <a_aro>
24

>  <a_base>
0

>  <a_count>
68

>  <a_don>
2

>  <a_donacc>
10

>  <a_heavy>
39

>  <a_hyd>
23

>  <a_IC>
117.56464

>  <a_ICM>
1.7288918

>  <a_nB>
0

>  <a_nBr>
0

>  <a_nC>
27

>  <a_nCl>
0

>  <a_nF>
0

>  <a_nH>
29

>  <a_nI>
0

>  <a_nN>
5

>  <a_nO>
6

>  <a_nP>
0

>  <a_nS>
1

>  <balabanJ>
1.5362937

>  <BCUT_PEOE_0>
-2.6297877

>  <BCUT_PEOE_1>
-0.59611928

>  <BCUT_PEOE_2>
0.62363648

>  <BCUT_PEOE_3>
2.5852935

>  <BCUT_SLOGP_0>
-2.5382423

>  <BCUT_SLOGP_1>
-0.51518881

>  <BCUT_SLOGP_2>
0.6475867

>  <BCUT_SLOGP_3>
2.679965

>  <BCUT_SMR_0>
-2.369379

>  <BCUT_SMR_1>
-0.43276986

>  <BCUT_SMR_2>
0.79831368

>  <BCUT_SMR_3>
2.8523841

>  <bpol>
49.867004

>  <b_1rotN>
10

>  <b_1rotR>
0.23809524

>  <b_ar>
24

>  <b_count>
71

>  <b_double>
0

>  <b_heavy>
42

>  <b_max1len>
4

>  <b_rotN>
11

>  <b_rotR>
0.26190478

>  <b_single>
47

>  <b_triple>
0

>  <chi0>
28.045395

>  <chi0v>
22.76712

>  <chi0v_C>
16.765066

>  <chi0_C>
18.88854

>  <chi1>
18.618671

>  <chi1v>
13.477816

>  <chi1v_C>
7.3153839

>  <chi1_C>
9.5714979

>  <chiral>
0

>  <chiral_u>
0

>  <density>
0.78362489

>  <diameter>
14

>  <FCharge>
0

>  <GCUT_PEOE_0>
-0.85470366

>  <GCUT_PEOE_1>
-0.38899484

>  <GCUT_PEOE_2>
0.057410844

>  <GCUT_PEOE_3>
2.7343948

>  <GCUT_SLOGP_0>
-0.9441765

>  <GCUT_SLOGP_1>
-0.40551162

>  <GCUT_SLOGP_2>
0.13380685

>  <GCUT_SLOGP_3>
2.8297021

>  <GCUT_SMR_0>
-0.5215764

>  <GCUT_SMR_1>
-0.19888486

>  <GCUT_SMR_2>
0.17228237

>  <GCUT_SMR_3>
3.0090179

>  <Kier1>
31.925171

>  <Kier2>
14.450556

>  <Kier3>
8.5263157

>  <KierA1>
25.1063

>  <KierA2>
11.288072

>  <KierA3>
6.6283245

>  <KierFlex>
7.2667108

>  <lip_acc>
11

>  <lip_don>
2

>  <lip_druglike>
0

>  <lip_violation>
2

>  <logP(o/w)>
3.3476

>  <logS>
-8.12041

>  <mr>
14.781764

>  <mutagenic>
0

>  <nmol>
1

>  <opr_brigid>
24

>  <opr_leadlike>
0

>  <opr_nring>
4

>  <opr_nrot>
10

>  <opr_violation>
2

>  <PC+>
0

>  <PC->
0

>  <PEOE_PC+>
3.2189279

>  <PEOE_PC->
-3.2189279

>  <PEOE_RPC+>
0.098662503

>  <PEOE_RPC->
0.13503656

>  <PEOE_VSA+0>
144.86984

>  <PEOE_VSA+1>
107.33756

>  <PEOE_VSA+2>
45.185135

>  <PEOE_VSA+3>
11.190562

>  <PEOE_VSA+4>
10.324173

>  <PEOE_VSA+5>
10.105608

>  <PEOE_VSA+6>
4.1846013

>  <PEOE_VSA-0>
98.029106

>  <PEOE_VSA-1>
80.752838

>  <PEOE_VSA-2>
0

>  <PEOE_VSA-3>
0

>  <PEOE_VSA-4>
11.365152

>  <PEOE_VSA-5>
0

>  <PEOE_VSA-6>
26.643961

>  <PEOE_VSA_FHYD>
0.88613671

>  <PEOE_VSA_FNEG>
0.39417377

>  <PEOE_VSA_FPNEG>
0.069108918

>  <PEOE_VSA_FPOL>
0.11386327

>  <PEOE_VSA_FPOS>
0.6058262

>  <PEOE_VSA_FPPOS>
0.044754356

>  <PEOE_VSA_HYD>
487.36505

>  <PEOE_VSA_NEG>
216.79106

>  <PEOE_VSA_PNEG>
38.009113

>  <PEOE_VSA_POL>
62.623497

>  <PEOE_VSA_POS>
333.19748

>  <PEOE_VSA_PPOS>
24.614382

>  <petitjean>
0.5

>  <petitjeanSC>
1

>  <Q_PC+>
0

>  <Q_PC->
0

>  <Q_RPC+>
0

>  <Q_RPC->
0

>  <Q_VSA_FHYD>
1

>  <Q_VSA_FNEG>
0

>  <Q_VSA_FPNEG>
0

>  <Q_VSA_FPOL>
0

>  <Q_VSA_FPOS>
1

>  <Q_VSA_FPPOS>
0

>  <Q_VSA_HYD>
549.98853

>  <Q_VSA_NEG>
0

>  <Q_VSA_PNEG>
0

>  <Q_VSA_POL>
0

>  <Q_VSA_POS>
549.98853

>  <Q_VSA_PPOS>
0

>  <radius>
7

>  <reactive>
0

>  <rings>
4

>  <RPC+>
0

>  <RPC->
0

>  <rsynth>
1

>  <SlogP>
4.2038999

>  <SlogP_VSA0>
58.384892

>  <SlogP_VSA1>
131.71881

>  <SlogP_VSA2>
6.6407428

>  <SlogP_VSA3>
41.852516

>  <SlogP_VSA4>
3.185575

>  <SlogP_VSA5>
36.934601

>  <SlogP_VSA6>
0

>  <SlogP_VSA7>
197.87321

>  <SlogP_VSA8>
0

>  <SlogP_VSA9>
122.85085

>  <SMR>
14.46573

>  <SMR_VSA0>
48.171688

>  <SMR_VSA1>
125.52701

>  <SMR_VSA2>
1.5507339

>  <SMR_VSA3>
23.730459

>  <SMR_VSA4>
23.388758

>  <SMR_VSA5>
193.21738

>  <SMR_VSA6>
41.852516

>  <SMR_VSA7>
142.00266

>  <TPSA>
145.64999

>  <VAdjEq>
0.30819827

>  <VAdjMa>
6.3923173

>  <VDistEq>
3.6813252

>  <VDistMa>
10.330138

>  <vdw_area>
549.98853

>  <vdw_vol>
703.93884

>  <vsa_acc>
57.250584

>  <vsa_acid>
0

>  <vsa_base>
0

>  <vsa_don>
8.0752068

>  <vsa_hyd>
382.6449

>  <vsa_other>
61.634338

>  <vsa_pol>
78.892708

>  <Weight>
551.62396

>  <weinerPath>
4854

>  <weinerPol>
64

>  <zagreb>
204

$$$$