O(CC)C(=O)[C@@H](N[C@H](C(=O)N1[C@@H]2[C@@H](C[C@H]1C(O)=O)CCCC2)C)CCc1ccccc1
  MOE2013           2D

 31 33  0  0  1  0  0  0  0  0999 V2000
    0.0000    0.0000    0.0000 O   0  0  0  0  0  0  0  0  0  0  0  0
   -1.2990   -0.7500    0.0000 C   0  0  0  0  0  0  0  0  0  0  0  0
   -2.5980    0.0010    0.0000 C   0  0  0  0  0  0  0  0  0  0  0  0
    1.2990   -0.7500    0.0000 C   0  0  0  0  0  0  0  0  0  0  0  0
    1.2990   -2.2500    0.0000 O   0  0  0  0  0  0  0  0  0  0  0  0
    2.5980   -0.0010    0.0000 C   0  0  1  0  0  0  0  0  0  0  0  0
    3.8970   -0.7510    0.0000 N   0  0  0  0  0  0  0  0  0  0  0  0
    5.1960   -0.0010    0.0000 C   0  0  2  0  0  0  0  0  0  0  0  0
    6.4950   -0.7510    0.0000 C   0  0  0  0  0  0  0  0  0  0  0  0
    6.4950   -2.2510    0.0000 O   0  0  0  0  0  0  0  0  0  0  0  0
    7.7940   -0.0020    0.0000 N   0  0  0  0  0  0  0  0  0  0  0  0
    7.9510    1.4900    0.0000 C   0  0  2  0  0  0  0  0  0  0  0  0
    9.4190    1.8020    0.0000 C   0  0  1  0  0  0  0  0  0  0  0  0
   10.1680    0.5030    0.0000 C   0  0  0  0  0  0  0  0  0  0  0  0
    9.1640   -0.6120    0.0000 C   0  0  1  0  0  0  0  0  0  0  0  0
    9.4760   -2.0790    0.0000 C   0  0  0  0  0  0  0  0  0  0  0  0
    8.3610   -3.0830    0.0000 O   0  0  0  0  0  0  0  0  0  0  0  0
   10.9020   -2.5430    0.0000 O   0  0  0  0  0  0  0  0  0  0  0  0
    9.8820    3.2280    0.0000 C   0  0  0  0  0  0  0  0  0  0  0  0
    8.8790    4.3430    0.0000 C   0  0  0  0  0  0  0  0  0  0  0  0
    7.4120    4.0320    0.0000 C   0  0  0  0  0  0  0  0  0  0  0  0
    6.9480    2.6050    0.0000 C   0  0  0  0  0  0  0  0  0  0  0  0
    5.1960    1.4990    0.0000 C   0  0  0  0  0  0  0  0  0  0  0  0
    2.5980    1.4990    0.0000 C   0  0  0  0  0  0  0  0  0  0  0  0
    1.2990    2.2500    0.0000 C   0  0  0  0  0  0  0  0  0  0  0  0
    1.3000    3.7500    0.0000 C   0  0  0  0  0  0  0  0  0  0  0  0
    2.5990    4.4990    0.0000 C   0  0  0  0  0  0  0  0  0  0  0  0
    2.5990    5.9990    0.0000 C   0  0  0  0  0  0  0  0  0  0  0  0
    1.3000    6.7500    0.0000 C   0  0  0  0  0  0  0  0  0  0  0  0
    0.0010    6.0000    0.0000 C   0  0  0  0  0  0  0  0  0  0  0  0
    0.0010    4.5000    0.0000 C   0  0  0  0  0  0  0  0  0  0  0  0
  1  2  1  0  0  0  0
  1  4  1  0  0  0  0
  2  3  1  0  0  0  0
  4  5  2  0  0  0  0
  6  4  1  6  0  0  0
  6  7  1  0  0  0  0
  6 24  1  0  0  0  0
  7  8  1  0  0  0  0
  8  9  1  0  0  0  0
  8 23  1  1  0  0  0
  9 10  2  0  0  0  0
  9 11  1  0  0  0  0
 11 12  1  0  0  0  0
 11 15  1  0  0  0  0
 12 13  1  0  0  0  0
 12 22  1  1  0  0  0
 13 14  1  0  0  0  0
 13 19  1  6  0  0  0
 14 15  1  0  0  0  0
 15 16  1  1  0  0  0
 16 17  1  0  0  0  0
 16 18  2  0  0  0  0
 19 20  1  0  0  0  0
 20 21  1  0  0  0  0
 21 22  1  0  0  0  0
 24 25  1  0  0  0  0
 25 26  1  0  0  0  0
 26 27  1  0  0  0  0
 26 31  2  0  0  0  0
 27 28  2  0  0  0  0
 28 29  1  0  0  0  0
 29 30  2  0  0  0  0
 30 31  1  0  0  0  0
M  END
>  <Index>
1097

>  <ID>
HT2096

>  <class>
0

>  <apol>
71.120964

>  <ast_fraglike>
0

>  <ast_fraglike_ext>
0

>  <ast_violation>
2

>  <ast_violation_ext>
3

>  <a_acc>
5

>  <a_acid>
0

>  <a_aro>
6

>  <a_base>
0

>  <a_count>
65

>  <a_don>
3

>  <a_donacc>
8

>  <a_heavy>
31

>  <a_hyd>
21

>  <a_IC>
94.831429

>  <a_ICM>
1.458945

>  <a_nB>
0

>  <a_nBr>
0

>  <a_nC>
24

>  <a_nCl>
0

>  <a_nF>
0

>  <a_nH>
34

>  <a_nI>
0

>  <a_nN>
2

>  <a_nO>
5

>  <a_nP>
0

>  <a_nS>
0

>  <balabanJ>
1.6302482

>  <BCUT_PEOE_0>
-2.7866132

>  <BCUT_PEOE_1>
-0.51750404

>  <BCUT_PEOE_2>
0.56582022

>  <BCUT_PEOE_3>
2.8589587

>  <BCUT_SLOGP_0>
-2.8314095

>  <BCUT_SLOGP_1>
-0.46450403

>  <BCUT_SLOGP_2>
0.60212022

>  <BCUT_SLOGP_3>
2.892163

>  <BCUT_SMR_0>
-2.5370257

>  <BCUT_SMR_1>
-0.3866173

>  <BCUT_SMR_2>
0.69278127

>  <BCUT_SMR_3>
3.1095362

>  <bpol>
44.599037

>  <b_1rotN>
10

>  <b_1rotR>
0.30303031

>  <b_ar>
6

>  <b_count>
67

>  <b_double>
3

>  <b_heavy>
33

>  <b_max1len>
7

>  <b_rotN>
11

>  <b_rotR>
0.33333334

>  <b_single>
58

>  <b_triple>
0

>  <chi0>
22.380104

>  <chi0v>
18.457777

>  <chi0v_C>
15.430357

>  <chi0_C>
16.38854

>  <chi1>
14.917923

>  <chi1v>
11.435428

>  <chi1v_C>
8.7892942

>  <chi1_C>
9.8837767

>  <chiral>
5

>  <chiral_u>
0

>  <density>
0.72032052

>  <diameter>
14

>  <FCharge>
0

>  <GCUT_PEOE_0>
-0.83482969

>  <GCUT_PEOE_1>
-0.38834742

>  <GCUT_PEOE_2>
0.061767101

>  <GCUT_PEOE_3>
3.0140362

>  <GCUT_SLOGP_0>
-1.1550145

>  <GCUT_SLOGP_1>
-0.3341293

>  <GCUT_SLOGP_2>
0.10638034

>  <GCUT_SLOGP_3>
3.0014458

>  <GCUT_SMR_0>
-0.53065032

>  <GCUT_SMR_1>
-0.22032878

>  <GCUT_SMR_2>
0.16666397

>  <GCUT_SMR_3>
3.2414842

>  <Kier1>
25.619835

>  <Kier2>
12.459259

>  <Kier3>
6.7566791

>  <KierA1>
21.211309

>  <KierA2>
10.246913

>  <KierA3>
5.5299063

>  <KierFlex>
7.0113044

>  <lip_acc>
7

>  <lip_don>
2

>  <lip_druglike>
1

>  <lip_violation>
0

>  <logP(o/w)>
3.7739999

>  <logS>
-4.20994

>  <mr>
11.934381

>  <mutagenic>
0

>  <nmol>
1

>  <opr_brigid>
16

>  <opr_leadlike>
1

>  <opr_nring>
3

>  <opr_nrot>
10

>  <opr_violation>
0

>  <PC+>
0

>  <PC->
0

>  <PEOE_PC+>
2.7632825

>  <PEOE_PC->
-2.7632825

>  <PEOE_RPC+>
0.10220037

>  <PEOE_RPC->
0.11932038

>  <PEOE_VSA+0>
92.71907

>  <PEOE_VSA+1>
68.16246

>  <PEOE_VSA+2>
11.764974

>  <PEOE_VSA+3>
0

>  <PEOE_VSA+4>
23.273705

>  <PEOE_VSA+5>
29.416998

>  <PEOE_VSA+6>
0

>  <PEOE_VSA-0>
83.210464

>  <PEOE_VSA-1>
78.677147

>  <PEOE_VSA-2>
0

>  <PEOE_VSA-3>
0

>  <PEOE_VSA-4>
0

>  <PEOE_VSA-5>
40.837654

>  <PEOE_VSA-6>
10.271297

>  <PEOE_VSA_FHYD>
0.76319492

>  <PEOE_VSA_FNEG>
0.48592323

>  <PEOE_VSA_FPNEG>
0.11659825

>  <PEOE_VSA_FPOL>
0.23680507

>  <PEOE_VSA_FPOS>
0.51407677

>  <PEOE_VSA_FPPOS>
0.12020681

>  <PEOE_VSA_HYD>
334.53412

>  <PEOE_VSA_NEG>
212.99655

>  <PEOE_VSA_PNEG>
51.108952

>  <PEOE_VSA_POL>
103.79965

>  <PEOE_VSA_POS>
225.3372

>  <PEOE_VSA_PPOS>
52.690701

>  <petitjean>
0.5

>  <petitjeanSC>
1

>  <Q_PC+>
0

>  <Q_PC->
0

>  <Q_RPC+>
0

>  <Q_RPC->
0

>  <Q_VSA_FHYD>
1

>  <Q_VSA_FNEG>
0

>  <Q_VSA_FPNEG>
0

>  <Q_VSA_FPOL>
0

>  <Q_VSA_FPOS>
1

>  <Q_VSA_FPPOS>
0

>  <Q_VSA_HYD>
438.33377

>  <Q_VSA_NEG>
0

>  <Q_VSA_PNEG>
0

>  <Q_VSA_POL>
0

>  <Q_VSA_POS>
438.33377

>  <Q_VSA_PPOS>
0

>  <radius>
7

>  <reactive>
0

>  <rings>
3

>  <RPC+>
0

>  <RPC->
0

>  <rsynth>
0.61290324

>  <SlogP>
2.7732699

>  <SlogP_VSA0>
18.01075

>  <SlogP_VSA1>
23.874025

>  <SlogP_VSA2>
98.514412

>  <SlogP_VSA3>
46.311485

>  <SlogP_VSA4>
7.5963712

>  <SlogP_VSA5>
18.868406

>  <SlogP_VSA6>
0

>  <SlogP_VSA7>
88.215919

>  <SlogP_VSA8>
113.21043

>  <SlogP_VSA9>
66.652031

>  <SMR>
11.64145

>  <SMR_VSA0>
82.58654

>  <SMR_VSA1>
3.1243138

>  <SMR_VSA2>
47.806774

>  <SMR_VSA3>
19.113449

>  <SMR_VSA4>
0

>  <SMR_VSA5>
220.29475

>  <SMR_VSA6>
41.675972

>  <SMR_VSA7>
66.652031

>  <TPSA>
95.940002

>  <VAdjEq>
0.36097246

>  <VAdjMa>
6.044394

>  <VDistEq>
3.5939791

>  <VDistMa>
9.6405535

>  <vdw_area>
438.33377

>  <vdw_vol>
597.71307

>  <vsa_acc>
27.133842

>  <vsa_acid>
0

>  <vsa_base>
0

>  <vsa_don>
0

>  <vsa_hyd>
301.7926

>  <vsa_other>
44.870285

>  <vsa_pol>
59.95026

>  <Weight>
430.54498

>  <weinerPath>
2772

>  <weinerPol>
48

>  <zagreb>
156

$$$$