Fc1cc(F)ccc1N1C=C(C(O)=O)C(=O)c2cc(F)c(nc12)N1CC(N)CC1
  MOE2013           2D

 29 32  0  0  1  0  0  0  0  0999 V2000
    0.0000    0.0000    0.0000 F   0  0  0  0  0  0  0  0  0  0  0  0
    1.5000    0.0020    0.0000 C   0  0  0  0  0  0  0  0  0  0  0  0
    2.2490    1.3020    0.0000 C   0  0  0  0  0  0  0  0  0  0  0  0
    3.7490    1.3030    0.0000 C   0  0  0  0  0  0  0  0  0  0  0  0
    4.4970    2.6030    0.0000 F   0  0  0  0  0  0  0  0  0  0  0  0
    4.5000    0.0050    0.0000 C   0  0  0  0  0  0  0  0  0  0  0  0
    3.7510   -1.2950    0.0000 C   0  0  0  0  0  0  0  0  0  0  0  0
    2.2510   -1.2970    0.0000 C   0  0  0  0  0  0  0  0  0  0  0  0
    1.5030   -2.5960    0.0000 N   0  0  3  0  0  0  0  0  0  0  0  0
    0.0030   -2.5980    0.0000 C   0  0  0  0  0  0  0  0  0  0  0  0
   -0.7460   -3.8980    0.0000 C   0  0  0  0  0  0  0  0  0  0  0  0
   -2.2460   -3.9000    0.0000 C   0  0  0  0  0  0  0  0  0  0  0  0
   -2.9940   -5.1990    0.0000 O   0  0  0  0  0  0  0  0  0  0  0  0
   -2.9970   -2.6010    0.0000 O   0  0  0  0  0  0  0  0  0  0  0  0
    0.0060   -5.1960    0.0000 C   0  0  0  0  0  0  0  0  0  0  0  0
   -0.7430   -6.4960    0.0000 O   0  0  0  0  0  0  0  0  0  0  0  0
    1.5060   -5.1940    0.0000 C   0  0  0  0  0  0  0  0  0  0  0  0
    2.2570   -6.4930    0.0000 C   0  0  0  0  0  0  0  0  0  0  0  0
    3.7570   -6.4910    0.0000 C   0  0  0  0  0  0  0  0  0  0  0  0
    4.5090   -7.7890    0.0000 F   0  0  0  0  0  0  0  0  0  0  0  0
    4.5060   -5.1910    0.0000 C   0  0  0  0  0  0  0  0  0  0  0  0
    3.7540   -3.8930    0.0000 N   0  0  0  0  0  0  0  0  0  0  0  0
    2.2540   -3.8950    0.0000 C   0  0  0  0  0  0  0  0  0  0  0  0
    6.0060   -5.1890    0.0000 N   0  0  3  0  0  0  0  0  0  0  0  0
    6.8890   -6.4020    0.0000 C   0  0  0  0  0  0  0  0  0  0  0  0
    8.3150   -5.9370    0.0000 C   0  0  3  0  0  0  0  0  0  0  0  0
    9.5290   -6.8170    0.0000 N   0  0  0  0  0  0  0  0  0  0  0  0
    8.3130   -4.4370    0.0000 C   0  0  0  0  0  0  0  0  0  0  0  0
    6.8860   -3.9750    0.0000 C   0  0  0  0  0  0  0  0  0  0  0  0
  1  2  1  0  0  0  0
  2  3  1  0  0  0  0
  2  8  2  0  0  0  0
  3  4  2  0  0  0  0
  4  5  1  0  0  0  0
  4  6  1  0  0  0  0
  6  7  2  0  0  0  0
  7  8  1  0  0  0  0
  8  9  1  0  0  0  0
  9 10  1  0  0  0  0
  9 23  1  0  0  0  0
 10 11  2  0  0  0  0
 11 12  1  0  0  0  0
 11 15  1  0  0  0  0
 12 13  1  0  0  0  0
 12 14  2  0  0  0  0
 15 16  2  0  0  0  0
 15 17  1  0  0  0  0
 17 18  1  0  0  0  0
 17 23  2  0  0  0  0
 18 19  2  0  0  0  0
 19 20  1  0  0  0  0
 19 21  1  0  0  0  0
 21 22  2  0  0  0  0
 21 24  1  0  0  0  0
 22 23  1  0  0  0  0
 24 25  1  0  0  0  0
 24 29  1  0  0  0  0
 25 26  1  0  0  0  0
 26 27  1  0  0  0  0
 26 28  1  0  0  0  0
 28 29  1  0  0  0  0
M  END
>  <Index>
1096

>  <ID>
HT2093

>  <class>
0

>  <apol>
51.918896

>  <ast_fraglike>
0

>  <ast_fraglike_ext>
0

>  <ast_violation>
2

>  <ast_violation_ext>
4

>  <a_acc>
5

>  <a_acid>
0

>  <a_aro>
12

>  <a_base>
0

>  <a_count>
44

>  <a_don>
3

>  <a_donacc>
8

>  <a_heavy>
29

>  <a_hyd>
18

>  <a_IC>
83.391235

>  <a_ICM>
1.8952553

>  <a_nB>
0

>  <a_nBr>
0

>  <a_nC>
19

>  <a_nCl>
0

>  <a_nF>
3

>  <a_nH>
15

>  <a_nI>
0

>  <a_nN>
4

>  <a_nO>
3

>  <a_nP>
0

>  <a_nS>
0

>  <balabanJ>
1.5865666

>  <BCUT_PEOE_0>
-2.5218041

>  <BCUT_PEOE_1>
-0.63708991

>  <BCUT_PEOE_2>
0.62274337

>  <BCUT_PEOE_3>
2.6945937

>  <BCUT_SLOGP_0>
-2.7390356

>  <BCUT_SLOGP_1>
-0.54488981

>  <BCUT_SLOGP_2>
0.79138499

>  <BCUT_SLOGP_3>
2.6166682

>  <BCUT_SMR_0>
-2.2675285

>  <BCUT_SMR_1>
-0.45560405

>  <BCUT_SMR_2>
0.7720722

>  <BCUT_SMR_3>
2.9682937

>  <bpol>
26.543104

>  <b_1rotN>
3

>  <b_1rotR>
0.09375

>  <b_ar>
12

>  <b_count>
47

>  <b_double>
3

>  <b_heavy>
32

>  <b_max1len>
3

>  <b_rotN>
3

>  <b_rotR>
0.09375

>  <b_single>
32

>  <b_triple>
0

>  <chi0>
20.869514

>  <chi0v>
14.902017

>  <chi0v_C>
10.585422

>  <chi0_C>
12.007708

>  <chi1>
13.756927

>  <chi1v>
8.7113791

>  <chi1v_C>
5.1705561

>  <chi1_C>
6.6742344

>  <chiral>
1

>  <chiral_u>
1

>  <density>
0.86530131

>  <diameter>
12

>  <FCharge>
0

>  <GCUT_PEOE_0>
-0.83565712

>  <GCUT_PEOE_1>
-0.45831412

>  <GCUT_PEOE_2>
0.074446991

>  <GCUT_PEOE_3>
2.684083

>  <GCUT_SLOGP_0>
-1.3634498

>  <GCUT_SLOGP_1>
-0.38307586

>  <GCUT_SLOGP_2>
0.26067165

>  <GCUT_SLOGP_3>
2.7212005

>  <GCUT_SMR_0>
-0.5206514

>  <GCUT_SMR_1>
-0.22747041

>  <GCUT_SMR_2>
0.18622683

>  <GCUT_SMR_3>
2.9607809

>  <Kier1>
22.203125

>  <Kier2>
8.859375

>  <Kier3>
4.3452711

>  <KierA1>
15.913414

>  <KierA2>
6.2681546

>  <KierA3>
3.0451205

>  <KierFlex>
3.4395773

>  <lip_acc>
7

>  <lip_don>
3

>  <lip_druglike>
1

>  <lip_violation>
0

>  <logP(o/w)>
1.9579999

>  <logS>
-4.0865998

>  <mr>
9.701334

>  <mutagenic>
0

>  <nmol>
1

>  <opr_brigid>
22

>  <opr_leadlike>
1

>  <opr_nring>
4

>  <opr_nrot>
4

>  <opr_violation>
0

>  <PC+>
0

>  <PC->
0

>  <PEOE_PC+>
2.5802746

>  <PEOE_PC->
-2.5802746

>  <PEOE_RPC+>
0.11469419

>  <PEOE_RPC->
0.12687568

>  <PEOE_VSA+0>
88.38913

>  <PEOE_VSA+1>
30.235022

>  <PEOE_VSA+2>
59.869381

>  <PEOE_VSA+3>
9.0208454

>  <PEOE_VSA+4>
18.782692

>  <PEOE_VSA+5>
14.708499

>  <PEOE_VSA+6>
0

>  <PEOE_VSA-0>
45.466026

>  <PEOE_VSA-1>
0

>  <PEOE_VSA-2>
0

>  <PEOE_VSA-3>
0

>  <PEOE_VSA-4>
41.408482

>  <PEOE_VSA-5>
27.133842

>  <PEOE_VSA-6>
14.418659

>  <PEOE_VSA_FHYD>
0.66673923

>  <PEOE_VSA_FNEG>
0.36753014

>  <PEOE_VSA_FPNEG>
0.23741628

>  <PEOE_VSA_FPOL>
0.33326077

>  <PEOE_VSA_FPOS>
0.63246983

>  <PEOE_VSA_FPPOS>
0.0958445

>  <PEOE_VSA_HYD>
232.98041

>  <PEOE_VSA_NEG>
128.427

>  <PEOE_VSA_PNEG>
82.960983

>  <PEOE_VSA_POL>
116.45218

>  <PEOE_VSA_POS>
221.00557

>  <PEOE_VSA_PPOS>
33.491192

>  <petitjean>
0.5

>  <petitjeanSC>
1

>  <Q_PC+>
0

>  <Q_PC->
0

>  <Q_RPC+>
0

>  <Q_RPC->
0

>  <Q_VSA_FHYD>
1

>  <Q_VSA_FNEG>
0

>  <Q_VSA_FPNEG>
0

>  <Q_VSA_FPOL>
0

>  <Q_VSA_FPOS>
1

>  <Q_VSA_FPPOS>
0

>  <Q_VSA_HYD>
349.43259

>  <Q_VSA_NEG>
0

>  <Q_VSA_PNEG>
0

>  <Q_VSA_POL>
0

>  <Q_VSA_POS>
349.43259

>  <Q_VSA_PPOS>
0

>  <radius>
6

>  <reactive>
0

>  <rings>
4

>  <RPC+>
0

>  <RPC->
0

>  <rsynth>
1

>  <SlogP>
2.3392

>  <SlogP_VSA0>
39.145817

>  <SlogP_VSA1>
30.218605

>  <SlogP_VSA2>
55.207241

>  <SlogP_VSA3>
62.264381

>  <SlogP_VSA4>
27.047791

>  <SlogP_VSA5>
3.185575

>  <SlogP_VSA6>
0

>  <SlogP_VSA7>
87.787094

>  <SlogP_VSA8>
18.868406

>  <SlogP_VSA9>
52.292927

>  <SMR>
9.7546701

>  <SMR_VSA0>
47.724434

>  <SMR_VSA1>
61.665871

>  <SMR_VSA2>
58.99691

>  <SMR_VSA3>
10.353119

>  <SMR_VSA4>
40.309776

>  <SMR_VSA5>
106.6555

>  <SMR_VSA6>
50.312233

>  <SMR_VSA7>
0

>  <TPSA>
99.760002

>  <VAdjEq>
0.38828552

>  <VAdjMa>
6

>  <VDistEq>
3.306313

>  <VDistMa>
9.4664297

>  <vdw_area>
349.43259

>  <vdw_vol>
467.29153

>  <vsa_acc>
19.249496

>  <vsa_acid>
0

>  <vsa_base>
0

>  <vsa_don>
0

>  <vsa_hyd>
220.54562

>  <vsa_other>
45.548145

>  <vsa_pol>
64.125832

>  <Weight>
404.34799

>  <weinerPath>
2039

>  <weinerPol>
52

>  <zagreb>
160

$$$$