S1c2c(N(c3c1cccc3)CCCN(C)C)cc(cc2)C(=O)C
  MOE2013           2D

 23 25  0  0  1  0  0  0  0  0999 V2000
    0.0000    0.0000    0.0000 S   0  0  0  0  0  0  0  0  0  0  0  0
    0.7440    1.3020    0.0000 C   0  0  0  0  0  0  0  0  0  0  0  0
   -0.0110    2.5980    0.0000 C   0  0  0  0  0  0  0  0  0  0  0  0
   -1.5110    2.5920    0.0000 N   0  0  3  0  0  0  0  0  0  0  0  0
   -2.2560    1.2890    0.0000 C   0  0  0  0  0  0  0  0  0  0  0  0
   -1.5000   -0.0060    0.0000 C   0  0  0  0  0  0  0  0  0  0  0  0
   -2.2440   -1.3090    0.0000 C   0  0  0  0  0  0  0  0  0  0  0  0
   -3.7440   -1.3150    0.0000 C   0  0  0  0  0  0  0  0  0  0  0  0
   -4.5000   -0.0190    0.0000 C   0  0  0  0  0  0  0  0  0  0  0  0
   -3.7560    1.2830    0.0000 C   0  0  0  0  0  0  0  0  0  0  0  0
   -2.2670    3.8870    0.0000 C   0  0  0  0  0  0  0  0  0  0  0  0
   -3.7670    3.8810    0.0000 C   0  0  0  0  0  0  0  0  0  0  0  0
   -4.5220    5.1770    0.0000 C   0  0  0  0  0  0  0  0  0  0  0  0
   -6.0220    5.1700    0.0000 N   0  0  0  0  0  0  0  0  0  0  0  0
   -6.7670    3.8680    0.0000 C   0  0  0  0  0  0  0  0  0  0  0  0
   -6.7780    6.4660    0.0000 C   0  0  0  0  0  0  0  0  0  0  0  0
    0.7330    3.9000    0.0000 C   0  0  0  0  0  0  0  0  0  0  0  0
    2.2330    3.9070    0.0000 C   0  0  0  0  0  0  0  0  0  0  0  0
    2.9890    2.6110    0.0000 C   0  0  0  0  0  0  0  0  0  0  0  0
    2.2440    1.3090    0.0000 C   0  0  0  0  0  0  0  0  0  0  0  0
    2.9780    5.2090    0.0000 C   0  0  0  0  0  0  0  0  0  0  0  0
    4.4780    5.2160    0.0000 O   0  0  0  0  0  0  0  0  0  0  0  0
    2.2220    6.5050    0.0000 C   0  0  0  0  0  0  0  0  0  0  0  0
  1  2  1  0  0  0  0
  1  6  1  0  0  0  0
  2  3  1  0  0  0  0
  2 20  2  0  0  0  0
  3  4  1  0  0  0  0
  3 17  2  0  0  0  0
  4  5  1  0  0  0  0
  4 11  1  0  0  0  0
  5  6  1  0  0  0  0
  5 10  2  0  0  0  0
  6  7  2  0  0  0  0
  7  8  1  0  0  0  0
  8  9  2  0  0  0  0
  9 10  1  0  0  0  0
 11 12  1  0  0  0  0
 12 13  1  0  0  0  0
 13 14  1  0  0  0  0
 14 15  1  0  0  0  0
 14 16  1  0  0  0  0
 17 18  1  0  0  0  0
 18 19  2  0  0  0  0
 18 21  1  0  0  0  0
 19 20  1  0  0  0  0
 21 22  2  0  0  0  0
 21 23  1  0  0  0  0
M  END
>  <Index>
18

>  <ID>
HT0051

>  <class>
0

>  <apol>
54.011448

>  <ast_fraglike>
0

>  <ast_fraglike_ext>
0

>  <ast_violation>
2

>  <ast_violation_ext>
3

>  <a_acc>
2

>  <a_acid>
0

>  <a_aro>
12

>  <a_base>
0

>  <a_count>
45

>  <a_don>
0

>  <a_donacc>
2

>  <a_heavy>
23

>  <a_hyd>
19

>  <a_IC>
66.315269

>  <a_ICM>
1.4736727

>  <a_nB>
0

>  <a_nBr>
0

>  <a_nC>
19

>  <a_nCl>
0

>  <a_nF>
0

>  <a_nH>
22

>  <a_nI>
0

>  <a_nN>
2

>  <a_nO>
1

>  <a_nP>
0

>  <a_nS>
1

>  <balabanJ>
1.7092785

>  <BCUT_PEOE_0>
-2.6571829

>  <BCUT_PEOE_1>
-0.55699861

>  <BCUT_PEOE_2>
0.58642465

>  <BCUT_PEOE_3>
2.566191

>  <BCUT_SLOGP_0>
-2.7073655

>  <BCUT_SLOGP_1>
-0.43204221

>  <BCUT_SLOGP_2>
0.6860804

>  <BCUT_SLOGP_3>
2.6074958

>  <BCUT_SMR_0>
-2.3740692

>  <BCUT_SMR_1>
-0.36443266

>  <BCUT_SMR_2>
0.76262659

>  <BCUT_SMR_3>
2.853822

>  <bpol>
31.248554

>  <b_1rotN>
5

>  <b_1rotR>
0.2

>  <b_ar>
12

>  <b_count>
47

>  <b_double>
1

>  <b_heavy>
25

>  <b_max1len>
6

>  <b_rotN>
5

>  <b_rotR>
0.2

>  <b_single>
34

>  <b_triple>
0

>  <chi0>
16.396976

>  <chi0v>
14.690192

>  <chi0v_C>
12.162772

>  <chi0_C>
13.53517

>  <chi1>
11.058551

>  <chi1v>
8.7183495

>  <chi1v_C>
5.3153839

>  <chi1_C>
7.0268402

>  <chiral>
0

>  <chiral_u>
0

>  <density>
0.70921177

>  <diameter>
10

>  <FCharge>
0

>  <GCUT_PEOE_0>
-0.86394203

>  <GCUT_PEOE_1>
-0.36144808

>  <GCUT_PEOE_2>
0.0019828628

>  <GCUT_PEOE_3>
2.6667295

>  <GCUT_SLOGP_0>
-0.95431918

>  <GCUT_SLOGP_1>
-0.25582948

>  <GCUT_SLOGP_2>
0.14432222

>  <GCUT_SLOGP_3>
2.8014719

>  <GCUT_SMR_0>
-0.51969665

>  <GCUT_SMR_1>
-0.17033511

>  <GCUT_SMR_2>
0.1726348

>  <GCUT_SMR_3>
2.9724245

>  <Kier1>
17.811199

>  <Kier2>
7.9200001

>  <Kier3>
4.1587901

>  <KierA1>
14.394206

>  <KierA2>
6.3345194

>  <KierA3>
3.3001673

>  <KierFlex>
3.9643641

>  <lip_acc>
3

>  <lip_don>
0

>  <lip_druglike>
1

>  <lip_violation>
0

>  <logP(o/w)>
3.885

>  <logS>
-4.1521301

>  <mr>
9.723897

>  <mutagenic>
0

>  <nmol>
1

>  <opr_brigid>
16

>  <opr_leadlike>
1

>  <opr_nring>
3

>  <opr_nrot>
5

>  <opr_violation>
0

>  <PC+>
0

>  <PC->
0

>  <PEOE_PC+>
1.3212528

>  <PEOE_PC->
-1.3212528

>  <PEOE_RPC+>
0.12122042

>  <PEOE_RPC->
0.23333959

>  <PEOE_VSA+0>
101.14996

>  <PEOE_VSA+1>
29.857702

>  <PEOE_VSA+2>
0

>  <PEOE_VSA+3>
8.458519

>  <PEOE_VSA+4>
0

>  <PEOE_VSA+5>
0

>  <PEOE_VSA+6>
0

>  <PEOE_VSA-0>
136.13831

>  <PEOE_VSA-1>
56.52533

>  <PEOE_VSA-2>
0

>  <PEOE_VSA-3>
0

>  <PEOE_VSA-4>
0

>  <PEOE_VSA-5>
13.566921

>  <PEOE_VSA-6>
0

>  <PEOE_VSA_FHYD>
0.96075487

>  <PEOE_VSA_FNEG>
0.59656495

>  <PEOE_VSA_FPNEG>
0.039245151

>  <PEOE_VSA_FPOL>
0.039245151

>  <PEOE_VSA_FPOS>
0.40343505

>  <PEOE_VSA_FPPOS>
0

>  <PEOE_VSA_HYD>
332.12982

>  <PEOE_VSA_NEG>
206.23056

>  <PEOE_VSA_PNEG>
13.566921

>  <PEOE_VSA_POL>
13.566921

>  <PEOE_VSA_POS>
139.46619

>  <PEOE_VSA_PPOS>
0

>  <petitjean>
0.5

>  <petitjeanSC>
1

>  <Q_PC+>
0

>  <Q_PC->
0

>  <Q_RPC+>
0

>  <Q_RPC->
0

>  <Q_VSA_FHYD>
1

>  <Q_VSA_FNEG>
0

>  <Q_VSA_FPNEG>
0

>  <Q_VSA_FPOL>
0

>  <Q_VSA_FPOS>
1

>  <Q_VSA_FPPOS>
0

>  <Q_VSA_HYD>
345.69675

>  <Q_VSA_NEG>
0

>  <Q_VSA_PNEG>
0

>  <Q_VSA_POL>
0

>  <Q_VSA_POS>
345.69675

>  <Q_VSA_PPOS>
0

>  <radius>
5

>  <reactive>
1

>  <rings>
3

>  <RPC+>
0

>  <RPC->
0

>  <rsynth>
1

>  <SlogP>
4.4436002

>  <SlogP_VSA0>
3.1243138

>  <SlogP_VSA1>
8.8119249

>  <SlogP_VSA2>
0

>  <SlogP_VSA3>
36.879158

>  <SlogP_VSA4>
27.047791

>  <SlogP_VSA5>
68.895844

>  <SlogP_VSA6>
0

>  <SlogP_VSA7>
123.50229

>  <SlogP_VSA8>
18.868406

>  <SlogP_VSA9>
71.059052

>  <SMR>
9.7189503

>  <SMR_VSA0>
23.862217

>  <SMR_VSA1>
3.1243138

>  <SMR_VSA2>
6.2257819

>  <SMR_VSA3>
3.185575

>  <SMR_VSA4>
5.513495

>  <SMR_VSA5>
142.3707

>  <SMR_VSA6>
42.566769

>  <SMR_VSA7>
131.33994

>  <TPSA>
23.549999

>  <VAdjEq>
0.45137304

>  <VAdjMa>
5.643856

>  <VDistEq>
3.1671011

>  <VDistMa>
8.7774172

>  <vdw_area>
345.69675

>  <vdw_vol>
460.31949

>  <vsa_acc>
13.566921

>  <vsa_acid>
0

>  <vsa_base>
0

>  <vsa_don>
0

>  <vsa_hyd>
308.01181

>  <vsa_other>
8.458519

>  <vsa_pol>
13.566921

>  <Weight>
326.46399

>  <weinerPath>
1154

>  <weinerPol>
37

>  <zagreb>
120

$$$$