O=C1NC(=Nc2n(cnc12)COCCOC(=O)[C@@H](N)C(C)C)N
  MOE2013           2D

 23 24  0  0  1  0  0  0  0  0999 V2000
    0.0000    0.0000    0.0000 O   0  0  0  0  0  0  0  0  0  0  0  0
    1.1320   -0.9840    0.0000 C   0  0  0  0  0  0  0  0  0  0  0  0
    0.8450   -2.4570    0.0000 N   0  0  0  0  0  0  0  0  0  0  0  0
    1.9770   -3.4410    0.0000 C   0  0  0  0  0  0  0  0  0  0  0  0
    3.3960   -2.9530    0.0000 N   0  0  0  0  0  0  0  0  0  0  0  0
    3.6820   -1.4810    0.0000 C   0  0  0  0  0  0  0  0  0  0  0  0
    4.9680   -0.7080    0.0000 N   0  0  0  0  0  0  0  0  0  0  0  0
    4.6310    0.7530    0.0000 C   0  0  0  0  0  0  0  0  0  0  0  0
    3.1370    0.8840    0.0000 N   0  0  0  0  0  0  0  0  0  0  0  0
    2.5500   -0.4960    0.0000 C   0  0  0  0  0  0  0  0  0  0  0  0
    6.3490   -1.2950    0.0000 C   0  0  0  0  0  0  0  0  0  0  0  0
    7.5470   -0.3920    0.0000 O   0  0  0  0  0  0  0  0  0  0  0  0
    8.9270   -0.9790    0.0000 C   0  0  0  0  0  0  0  0  0  0  0  0
   10.1260   -0.0760    0.0000 C   0  0  0  0  0  0  0  0  0  0  0  0
   11.5060   -0.6630    0.0000 O   0  0  0  0  0  0  0  0  0  0  0  0
   12.7040    0.2400    0.0000 C   0  0  0  0  0  0  0  0  0  0  0  0
   12.5220    1.7290    0.0000 O   0  0  0  0  0  0  0  0  0  0  0  0
   14.0850   -0.3470    0.0000 C   0  0  1  0  0  0  0  0  0  0  0  0
   14.2670   -1.8360    0.0000 N   0  0  0  0  0  0  0  0  0  0  0  0
   15.2830    0.5560    0.0000 C   0  0  0  0  0  0  0  0  0  0  0  0
   15.1010    2.0450    0.0000 C   0  0  0  0  0  0  0  0  0  0  0  0
   16.6640   -0.0310    0.0000 C   0  0  0  0  0  0  0  0  0  0  0  0
    1.6910   -4.9130    0.0000 N   0  0  0  0  0  0  0  0  0  0  0  0
  1  2  2  0  0  0  0
  2  3  1  0  0  0  0
  2 10  1  0  0  0  0
  3  4  1  0  0  0  0
  4  5  2  0  0  0  0
  4 23  1  0  0  0  0
  5  6  1  0  0  0  0
  6  7  1  0  0  0  0
  6 10  2  0  0  0  0
  7  8  1  0  0  0  0
  7 11  1  0  0  0  0
  8  9  2  0  0  0  0
  9 10  1  0  0  0  0
 11 12  1  0  0  0  0
 12 13  1  0  0  0  0
 13 14  1  0  0  0  0
 14 15  1  0  0  0  0
 15 16  1  0  0  0  0
 16 17  2  0  0  0  0
 16 18  1  0  0  0  0
 18 19  1  6  0  0  0
 18 20  1  0  0  0  0
 20 21  1  0  0  0  0
 20 22  1  0  0  0  0
M  END
>  <Index>
1132

>  <ID>
HT2160

>  <class>
0

>  <apol>
46.023861

>  <ast_fraglike>
0

>  <ast_fraglike_ext>
0

>  <ast_violation>
2

>  <ast_violation_ext>
4

>  <a_acc>
6

>  <a_acid>
0

>  <a_aro>
5

>  <a_base>
0

>  <a_count>
43

>  <a_don>
3

>  <a_donacc>
9

>  <a_heavy>
23

>  <a_hyd>
7

>  <a_IC>
75.27533

>  <a_ICM>
1.7505891

>  <a_nB>
0

>  <a_nBr>
0

>  <a_nC>
13

>  <a_nCl>
0

>  <a_nF>
0

>  <a_nH>
20

>  <a_nI>
0

>  <a_nN>
6

>  <a_nO>
4

>  <a_nP>
0

>  <a_nS>
0

>  <balabanJ>
1.635645

>  <BCUT_PEOE_0>
-2.6233108

>  <BCUT_PEOE_1>
-0.43601823

>  <BCUT_PEOE_2>
0.29383004

>  <BCUT_PEOE_3>
2.619385

>  <BCUT_SLOGP_0>
-2.7728493

>  <BCUT_SLOGP_1>
-0.32633692

>  <BCUT_SLOGP_2>
0.34755892

>  <BCUT_SLOGP_3>
2.6115654

>  <BCUT_SMR_0>
-2.3840415

>  <BCUT_SMR_1>
-0.16341957

>  <BCUT_SMR_2>
0.52131355

>  <BCUT_SMR_3>
2.8544343

>  <bpol>
31.57214

>  <b_1rotN>
7

>  <b_1rotR>
0.29166666

>  <b_ar>
5

>  <b_count>
44

>  <b_double>
3

>  <b_heavy>
24

>  <b_max1len>
5

>  <b_rotN>
8

>  <b_rotR>
0.33333334

>  <b_single>
36

>  <b_triple>
0

>  <chi0>
16.982763

>  <chi0v>
12.982706

>  <chi0v_C>
8.3533716

>  <chi0_C>
8.8698788

>  <chi1>
10.896754

>  <chi1v>
7.1041679

>  <chi1v_C>
2.7767091

>  <chi1_C>
2.9880338

>  <chiral>
1

>  <chiral_u>
0

>  <density>
0.80302608

>  <diameter>
13

>  <FCharge>
0

>  <GCUT_PEOE_0>
-0.82764429

>  <GCUT_PEOE_1>
-0.38380125

>  <GCUT_PEOE_2>
0.010511426

>  <GCUT_PEOE_3>
2.4749959

>  <GCUT_SLOGP_0>
-1.3710598

>  <GCUT_SLOGP_1>
-0.30819997

>  <GCUT_SLOGP_2>
0.054200001

>  <GCUT_SLOGP_3>
2.4484859

>  <GCUT_SMR_0>
-0.5289194

>  <GCUT_SMR_1>
-0.17575252

>  <GCUT_SMR_2>
0.12608258

>  <GCUT_SMR_3>
2.7088089

>  <Kier1>
19.326389

>  <Kier2>
8.909091

>  <Kier3>
5.2349792

>  <KierA1>
14.648012

>  <KierA2>
6.6608653

>  <KierA3>
3.8735101

>  <KierFlex>
4.242106

>  <lip_acc>
10

>  <lip_don>
5

>  <lip_druglike>
1

>  <lip_violation>
0

>  <logP(o/w)>
-0.86625999

>  <logS>
-1.77949

>  <mr>
8.0635157

>  <mutagenic>
0

>  <nmol>
1

>  <opr_brigid>
10

>  <opr_leadlike>
1

>  <opr_nring>
2

>  <opr_nrot>
7

>  <opr_violation>
1

>  <PC+>
0

>  <PC->
0

>  <PEOE_PC+>
3.0345888

>  <PEOE_PC->
-3.0345888

>  <PEOE_RPC+>
0.09242139

>  <PEOE_RPC->
0.12169846

>  <PEOE_VSA+0>
29.857702

>  <PEOE_VSA+1>
62.90625

>  <PEOE_VSA+2>
62.182644

>  <PEOE_VSA+3>
43.747154

>  <PEOE_VSA+4>
15.681574

>  <PEOE_VSA+5>
27.65803

>  <PEOE_VSA+6>
0

>  <PEOE_VSA-0>
0

>  <PEOE_VSA-1>
37.495354

>  <PEOE_VSA-2>
0

>  <PEOE_VSA-3>
5.6825762

>  <PEOE_VSA-4>
5.6825762

>  <PEOE_VSA-5>
27.270733

>  <PEOE_VSA-6>
18.309752

>  <PEOE_VSA_FHYD>
0.71884137

>  <PEOE_VSA_FNEG>
0.28067812

>  <PEOE_VSA_FPNEG>
0.15235355

>  <PEOE_VSA_FPOL>
0.28115863

>  <PEOE_VSA_FPOS>
0.71932185

>  <PEOE_VSA_FPPOS>
0.12880509

>  <PEOE_VSA_HYD>
241.87167

>  <PEOE_VSA_NEG>
94.440994

>  <PEOE_VSA_PNEG>
51.263062

>  <PEOE_VSA_POL>
94.602661

>  <PEOE_VSA_POS>
242.03336

>  <PEOE_VSA_PPOS>
43.339603

>  <petitjean>
0.46153846

>  <petitjeanSC>
0.85714287

>  <Q_PC+>
0

>  <Q_PC->
0

>  <Q_RPC+>
0

>  <Q_RPC->
0

>  <Q_VSA_FHYD>
1

>  <Q_VSA_FNEG>
0

>  <Q_VSA_FPNEG>
0

>  <Q_VSA_FPOL>
0

>  <Q_VSA_FPOS>
1

>  <Q_VSA_FPPOS>
0

>  <Q_VSA_HYD>
336.47433

>  <Q_VSA_NEG>
0

>  <Q_VSA_PNEG>
0

>  <Q_VSA_POL>
0

>  <Q_VSA_POS>
336.47433

>  <Q_VSA_PPOS>
0

>  <radius>
7

>  <reactive>
0

>  <rings>
2

>  <RPC+>
0

>  <RPC->
0

>  <rsynth>
1

>  <SlogP>
-0.66030002

>  <SlogP_VSA0>
83.805122

>  <SlogP_VSA1>
33.587963

>  <SlogP_VSA2>
49.84396

>  <SlogP_VSA3>
41.852516

>  <SlogP_VSA4>
31.02976

>  <SlogP_VSA5>
16.78553

>  <SlogP_VSA6>
0

>  <SlogP_VSA7>
16.78553

>  <SlogP_VSA8>
0

>  <SlogP_VSA9>
89.477379

>  <SMR>
8.0904999

>  <SMR_VSA0>
69.724205

>  <SMR_VSA1>
35.47015

>  <SMR_VSA2>
22.421547

>  <SMR_VSA3>
6.7387161

>  <SMR_VSA4>
68.122292

>  <SMR_VSA5>
37.282959

>  <SMR_VSA6>
56.755859

>  <SMR_VSA7>
66.652031

>  <TPSA>
146.85001

>  <VAdjEq>
0.43892586

>  <VAdjMa>
5.5849624

>  <VDistEq>
3.5829806

>  <VDistMa>
8.7011518

>  <vdw_area>
336.47433

>  <vdw_vol>
403.89847

>  <vsa_acc>
41.00275

>  <vsa_acid>
0

>  <vsa_base>
0

>  <vsa_don>
23.425066

>  <vsa_hyd>
118.54149

>  <vsa_other>
108.37392

>  <vsa_pol>
82.170303

>  <Weight>
324.341

>  <weinerPath>
1440

>  <weinerPol>
33

>  <zagreb>
114

$$$$