s1c2c(S(=O)(=O)N(C)C(C(=O)Nc3ncccc3)=C2O)cc1
  MOE2013           2D

 22 24  0  0  1  0  0  0  0  0999 V2000
    0.0000    0.0000    0.0000 S   0  0  0  0  0  0  0  0  0  0  0  0
    0.9480   -1.1630    0.0000 C   0  0  0  0  0  0  0  0  0  0  0  0
    0.1350   -2.4230    0.0000 C   0  0  0  0  0  0  0  0  0  0  0  0
    0.8210   -3.7570    0.0000 S   0  0  0  0  0  0  0  0  0  0  0  0
    0.7470   -5.2560    0.0000 O   0  0  0  0  0  0  0  0  0  0  0  0
   -0.5140   -4.4430    0.0000 O   0  0  0  0  0  0  0  0  0  0  0  0
    2.3190   -3.8310    0.0000 N   0  0  3  0  0  0  0  0  0  0  0  0
    3.0040   -5.1650    0.0000 C   0  0  0  0  0  0  0  0  0  0  0  0
    3.1320   -2.5700    0.0000 C   0  0  0  0  0  0  0  0  0  0  0  0
    4.6300   -2.6440    0.0000 C   0  0  0  0  0  0  0  0  0  0  0  0
    5.3150   -3.9780    0.0000 O   0  0  0  0  0  0  0  0  0  0  0  0
    5.4420   -1.3830    0.0000 N   0  0  0  0  0  0  0  0  0  0  0  0
    6.9410   -1.4560    0.0000 C   0  0  0  0  0  0  0  0  0  0  0  0
    7.6260   -2.7910    0.0000 N   0  0  0  0  0  0  0  0  0  0  0  0
    9.1240   -2.8640    0.0000 C   0  0  0  0  0  0  0  0  0  0  0  0
    9.9370   -1.6030    0.0000 C   0  0  0  0  0  0  0  0  0  0  0  0
    9.2520   -0.2690    0.0000 C   0  0  0  0  0  0  0  0  0  0  0  0
    7.7530   -0.1960    0.0000 C   0  0  0  0  0  0  0  0  0  0  0  0
    2.4460   -1.2360    0.0000 C   0  0  0  0  0  0  0  0  0  0  0  0
    3.2590    0.0250    0.0000 O   0  0  0  0  0  0  0  0  0  0  0  0
   -1.3150   -2.0400    0.0000 C   0  0  0  0  0  0  0  0  0  0  0  0
   -1.3990   -0.5420    0.0000 C   0  0  0  0  0  0  0  0  0  0  0  0
  1  2  1  0  0  0  0
  1 22  1  0  0  0  0
  2  3  2  0  0  0  0
  2 19  1  0  0  0  0
  3  4  1  0  0  0  0
  3 21  1  0  0  0  0
  4  5  2  0  0  0  0
  4  6  2  0  0  0  0
  4  7  1  0  0  0  0
  7  8  1  0  0  0  0
  7  9  1  0  0  0  0
  9 10  1  0  0  0  0
  9 19  2  0  0  0  0
 10 11  2  0  0  0  0
 10 12  1  0  0  0  0
 12 13  1  0  0  0  0
 13 14  1  0  0  0  0
 13 18  2  0  0  0  0
 14 15  2  0  0  0  0
 15 16  1  0  0  0  0
 16 17  2  0  0  0  0
 17 18  1  0  0  0  0
 19 20  1  0  0  0  0
 21 22  2  0  0  0  0
M  END
>  <Index>
1048

>  <ID>
HT2006

>  <class>
0

>  <apol>
42.522724

>  <ast_fraglike>
0

>  <ast_fraglike_ext>
0

>  <ast_violation>
2

>  <ast_violation_ext>
3

>  <a_acc>
5

>  <a_acid>
0

>  <a_aro>
11

>  <a_base>
0

>  <a_count>
33

>  <a_don>
2

>  <a_donacc>
7

>  <a_heavy>
22

>  <a_hyd>
12

>  <a_IC>
65.550652

>  <a_ICM>
1.9863834

>  <a_nB>
0

>  <a_nBr>
0

>  <a_nC>
13

>  <a_nCl>
0

>  <a_nF>
0

>  <a_nH>
11

>  <a_nI>
0

>  <a_nN>
3

>  <a_nO>
4

>  <a_nP>
0

>  <a_nS>
2

>  <balabanJ>
1.7327249

>  <BCUT_PEOE_0>
-2.4830732

>  <BCUT_PEOE_1>
-0.55936348

>  <BCUT_PEOE_2>
0.68722963

>  <BCUT_PEOE_3>
2.5149841

>  <BCUT_SLOGP_0>
-2.5766838

>  <BCUT_SLOGP_1>
-0.5066849

>  <BCUT_SLOGP_2>
0.76369947

>  <BCUT_SLOGP_3>
2.4970064

>  <BCUT_SMR_0>
-2.152884

>  <BCUT_SMR_1>
-0.41934592

>  <BCUT_SMR_2>
0.84152716

>  <BCUT_SMR_3>
2.8644354

>  <bpol>
25.699278

>  <b_1rotN>
2

>  <b_1rotR>
0.083333336

>  <b_ar>
11

>  <b_count>
35

>  <b_double>
2

>  <b_heavy>
24

>  <b_max1len>
2

>  <b_rotN>
3

>  <b_rotR>
0.125

>  <b_single>
22

>  <b_triple>
0

>  <chi0>
15.905413

>  <chi0v>
12.979977

>  <chi0v_C>
7.4641018

>  <chi0_C>
8.7067423

>  <chi1>
10.425557

>  <chi1v>
8.4706144

>  <chi1v_C>
2.9106836

>  <chi1_C>
4.1498299

>  <chiral>
0

>  <chiral_u>
0

>  <density>
0.90050536

>  <diameter>
10

>  <FCharge>
0

>  <GCUT_PEOE_0>
-0.7882129

>  <GCUT_PEOE_1>
-0.42869243

>  <GCUT_PEOE_2>
0.10816273

>  <GCUT_PEOE_3>
2.4720945

>  <GCUT_SLOGP_0>
-0.99779701

>  <GCUT_SLOGP_1>
-0.440649

>  <GCUT_SLOGP_2>
0.17365213

>  <GCUT_SLOGP_3>
2.5052176

>  <GCUT_SMR_0>
-0.48319015

>  <GCUT_SMR_1>
-0.20125262

>  <GCUT_SMR_2>
0.23860392

>  <GCUT_SMR_3>
2.7821946

>  <Kier1>
16.84375

>  <Kier2>
6.4814816

>  <Kier3>
3.04

>  <KierA1>
14.072742

>  <KierA2>
5.365962

>  <KierA3>
2.5001647

>  <KierFlex>
3.4324455

>  <lip_acc>
7

>  <lip_don>
2

>  <lip_druglike>
1

>  <lip_violation>
0

>  <logP(o/w)>
0.486

>  <logS>
-2.5225101

>  <mr>
8.3168707

>  <mutagenic>
0

>  <nmol>
1

>  <opr_brigid>
16

>  <opr_leadlike>
1

>  <opr_nring>
3

>  <opr_nrot>
2

>  <opr_violation>
0

>  <PC+>
0

>  <PC->
0

>  <PEOE_PC+>
2.0243611

>  <PEOE_PC->
-2.0243611

>  <PEOE_RPC+>
0.13860974

>  <PEOE_RPC->
0.17780624

>  <PEOE_VSA+0>
56.167973

>  <PEOE_VSA+1>
40.669601

>  <PEOE_VSA+2>
11.190562

>  <PEOE_VSA+3>
28.379631

>  <PEOE_VSA+4>
10.324173

>  <PEOE_VSA+5>
17.134132

>  <PEOE_VSA+6>
0

>  <PEOE_VSA-0>
47.748497

>  <PEOE_VSA-1>
12.254904

>  <PEOE_VSA-2>
14.230966

>  <PEOE_VSA-3>
0

>  <PEOE_VSA-4>
37.6991

>  <PEOE_VSA-5>
13.566921

>  <PEOE_VSA-6>
7.9044313

>  <PEOE_VSA_FHYD>
0.70858645

>  <PEOE_VSA_FNEG>
0.44876516

>  <PEOE_VSA_FPNEG>
0.19904557

>  <PEOE_VSA_FPOL>
0.29141352

>  <PEOE_VSA_FPOS>
0.55123484

>  <PEOE_VSA_FPPOS>
0.092367955

>  <PEOE_VSA_HYD>
210.64214

>  <PEOE_VSA_NEG>
133.40482

>  <PEOE_VSA_PNEG>
59.170452

>  <PEOE_VSA_POL>
86.628754

>  <PEOE_VSA_POS>
163.86607

>  <PEOE_VSA_PPOS>
27.458305

>  <petitjean>
0.5

>  <petitjeanSC>
1

>  <Q_PC+>
0

>  <Q_PC->
0

>  <Q_RPC+>
0

>  <Q_RPC->
0

>  <Q_VSA_FHYD>
1

>  <Q_VSA_FNEG>
0

>  <Q_VSA_FPNEG>
0

>  <Q_VSA_FPOL>
0

>  <Q_VSA_FPOS>
1

>  <Q_VSA_FPPOS>
0

>  <Q_VSA_HYD>
297.2709

>  <Q_VSA_NEG>
0

>  <Q_VSA_PNEG>
0

>  <Q_VSA_POL>
0

>  <Q_VSA_POS>
297.2709

>  <Q_VSA_PPOS>
0

>  <radius>
5

>  <reactive>
0

>  <rings>
3

>  <RPC+>
0

>  <RPC->
0

>  <rsynth>
1

>  <SlogP>
1.6425

>  <SlogP_VSA0>
0

>  <SlogP_VSA1>
89.745316

>  <SlogP_VSA2>
30.502958

>  <SlogP_VSA3>
25.385227

>  <SlogP_VSA4>
1.3584013

>  <SlogP_VSA5>
37.20467

>  <SlogP_VSA6>
0

>  <SlogP_VSA7>
108.84653

>  <SlogP_VSA8>
0

>  <SlogP_VSA9>
33.605606

>  <SMR>
8.1683302

>  <SMR_VSA0>
72.033905

>  <SMR_VSA1>
18.30409

>  <SMR_VSA2>
26.935961

>  <SMR_VSA3>
4.115149

>  <SMR_VSA4>
25.582098

>  <SMR_VSA5>
103.6031

>  <SMR_VSA6>
5.2587838

>  <SMR_VSA7>
70.81562

>  <TPSA>
99.599998

>  <VAdjEq>
0.46637034

>  <VAdjMa>
5.5849624

>  <VDistEq>
3.0986543

>  <VDistMa>
8.6408587

>  <vdw_area>
297.2709

>  <vdw_vol>
374.65628

>  <vsa_acc>
51.266022

>  <vsa_acid>
0

>  <vsa_base>
0

>  <vsa_don>
5.6825762

>  <vsa_hyd>
178.50539

>  <vsa_other>
34.245701

>  <vsa_pol>
70.515518

>  <Weight>
337.38

>  <weinerPath>
988

>  <weinerPol>
39

>  <zagreb>
120

$$$$