ClC(Cl)C(=O)N(Cc1ccc(Oc2ccc([N+](=O)[O-])cc2)cc1)CCO
  MOE2013           2D

 26 27  0  0  0  0  0  0  0  0999 V2000
    0.0000    0.0000    0.0000 Cl  0  0  0  0  0  0  0  0  0  0  0  0
    1.5000   -0.0110    0.0000 C   0  0  0  0  0  0  0  0  0  0  0  0
    2.2600    1.2820    0.0000 Cl  0  0  0  0  0  0  0  0  0  0  0  0
    2.2400   -1.3160    0.0000 C   0  0  0  0  0  0  0  0  0  0  0  0
    1.4800   -2.6090    0.0000 O   0  0  0  0  0  0  0  0  0  0  0  0
    3.7400   -1.3270    0.0000 N   0  0  0  0  0  0  0  0  0  0  0  0
    4.5000   -0.0340    0.0000 C   0  0  0  0  0  0  0  0  0  0  0  0
    6.0000   -0.0450    0.0000 C   0  0  0  0  0  0  0  0  0  0  0  0
    6.7400   -1.3500    0.0000 C   0  0  0  0  0  0  0  0  0  0  0  0
    8.2400   -1.3610    0.0000 C   0  0  0  0  0  0  0  0  0  0  0  0
    9.0000   -0.0680    0.0000 C   0  0  0  0  0  0  0  0  0  0  0  0
   10.5000   -0.0790    0.0000 O   0  0  0  0  0  0  0  0  0  0  0  0
   11.2590    1.2150    0.0000 C   0  0  0  0  0  0  0  0  0  0  0  0
   10.5190    2.5190    0.0000 C   0  0  0  0  0  0  0  0  0  0  0  0
   11.2790    3.8130    0.0000 C   0  0  0  0  0  0  0  0  0  0  0  0
   12.7790    3.8010    0.0000 C   0  0  0  0  0  0  0  0  0  0  0  0
   13.5390    5.0950    0.0000 N   0  3  0  0  0  0  0  0  0  0  0  0
   15.0390    5.0830    0.0000 O   0  0  0  0  0  0  0  0  0  0  0  0
   12.7980    6.3990    0.0000 O   0  5  0  0  0  0  0  0  0  0  0  0
   13.5190    2.4970    0.0000 C   0  0  0  0  0  0  0  0  0  0  0  0
   12.7590    1.2030    0.0000 C   0  0  0  0  0  0  0  0  0  0  0  0
    8.2600    1.2370    0.0000 C   0  0  0  0  0  0  0  0  0  0  0  0
    6.7600    1.2480    0.0000 C   0  0  0  0  0  0  0  0  0  0  0  0
    4.4800   -2.6320    0.0000 C   0  0  0  0  0  0  0  0  0  0  0  0
    3.7210   -3.9250    0.0000 C   0  0  0  0  0  0  0  0  0  0  0  0
    4.4610   -5.2300    0.0000 O   0  0  0  0  0  0  0  0  0  0  0  0
  1  2  1  0  0  0  0
  2  3  1  0  0  0  0
  2  4  1  0  0  0  0
  4  5  2  0  0  0  0
  4  6  1  0  0  0  0
  6  7  1  0  0  0  0
  6 24  1  0  0  0  0
  7  8  1  0  0  0  0
  8  9  1  0  0  0  0
  8 23  2  0  0  0  0
  9 10  2  0  0  0  0
 10 11  1  0  0  0  0
 11 12  1  0  0  0  0
 11 22  2  0  0  0  0
 12 13  1  0  0  0  0
 13 14  1  0  0  0  0
 13 21  2  0  0  0  0
 14 15  2  0  0  0  0
 15 16  1  0  0  0  0
 16 17  1  0  0  0  0
 16 20  2  0  0  0  0
 17 18  2  0  0  0  0
 17 19  1  0  0  0  0
 20 21  1  0  0  0  0
 22 23  1  0  0  0  0
 24 25  1  0  0  0  0
 25 26  1  0  0  0  0
M  CHG  1  17   1
M  CHG  1  19  -1
M  END
>  <Index>
1371

>  <ID>
HT3753

>  <class>
0

>  <apol>
51.158688

>  <ast_fraglike>
0

>  <ast_fraglike_ext>
0

>  <ast_violation>
2

>  <ast_violation_ext>
3

>  <a_acc>
2

>  <a_acid>
0

>  <a_aro>
12

>  <a_base>
0

>  <a_count>
42

>  <a_don>
1

>  <a_donacc>
3

>  <a_heavy>
26

>  <a_hyd>
18

>  <a_IC>
77.380821

>  <a_ICM>
1.8424006

>  <a_nB>
0

>  <a_nBr>
0

>  <a_nC>
17

>  <a_nCl>
2

>  <a_nF>
0

>  <a_nH>
16

>  <a_nI>
0

>  <a_nN>
2

>  <a_nO>
5

>  <a_nP>
0

>  <a_nS>
0

>  <balabanJ>
1.700876

>  <BCUT_PEOE_0>
-2.5617478

>  <BCUT_PEOE_1>
-0.65680248

>  <BCUT_PEOE_2>
0.70784813

>  <BCUT_PEOE_3>
2.5252724

>  <BCUT_SLOGP_0>
-2.6586931

>  <BCUT_SLOGP_1>
-0.56389385

>  <BCUT_SLOGP_2>
0.73275352

>  <BCUT_SLOGP_3>
2.5100207

>  <BCUT_SMR_0>
-2.2883296

>  <BCUT_SMR_1>
-0.49986199

>  <BCUT_SMR_2>
0.85431087

>  <BCUT_SMR_3>
2.791074

>  <bpol>
24.441313

>  <b_1rotN>
9

>  <b_1rotR>
0.33333334

>  <b_ar>
12

>  <b_count>
43

>  <b_double>
2

>  <b_heavy>
27

>  <b_max1len>
6

>  <b_rotN>
9

>  <b_rotR>
0.33333334

>  <b_single>
29

>  <b_triple>
0

>  <chi0>
19.104084

>  <chi0v>
15.059894

>  <chi0v_C>
9.8174725

>  <chi0_C>
11.242276

>  <chi1>
12.401086

>  <chi1v>
8.4676876

>  <chi1v_C>
4.7849631

>  <chi1_C>
6.5075679

>  <chiral>
0

>  <chiral_u>
0

>  <density>
0.86776125

>  <diameter>
15

>  <FCharge>
0

>  <GCUT_PEOE_0>
-0.83740836

>  <GCUT_PEOE_1>
-0.42650756

>  <GCUT_PEOE_2>
0.085424542

>  <GCUT_PEOE_3>
2.4818406

>  <GCUT_SLOGP_0>
-0.95626801

>  <GCUT_SLOGP_1>
-0.30919939

>  <GCUT_SLOGP_2>
0.16445385

>  <GCUT_SLOGP_3>
2.5925884

>  <GCUT_SMR_0>
-0.51520073

>  <GCUT_SMR_1>
-0.21686259

>  <GCUT_SMR_2>
0.21381557

>  <GCUT_SMR_3>
2.7539597

>  <Kier1>
22.29081

>  <Kier2>
11.111111

>  <Kier3>
7.1649542

>  <KierA1>
18.657621

>  <KierA2>
9.2301731

>  <KierA3>
5.9199796

>  <KierFlex>
6.62358

>  <lip_acc>
7

>  <lip_don>
1

>  <lip_druglike>
1

>  <lip_violation>
0

>  <logP(o/w)>
3.35536

>  <logS>
-5.2067099

>  <mr>
9.8511257

>  <mutagenic>
1

>  <nmol>
1

>  <opr_brigid>
12

>  <opr_leadlike>
1

>  <opr_nring>
2

>  <opr_nrot>
8

>  <opr_violation>
0

>  <PC+>
0

>  <PC->
0

>  <PEOE_PC+>
2.2594235

>  <PEOE_PC->
-2.2594235

>  <PEOE_RPC+>
0.12006805

>  <PEOE_RPC->
0.17405549

>  <PEOE_VSA+0>
50.894459

>  <PEOE_VSA+1>
99.877159

>  <PEOE_VSA+2>
0

>  <PEOE_VSA+3>
3.2773626

>  <PEOE_VSA+4>
10.324173

>  <PEOE_VSA+5>
19.649082

>  <PEOE_VSA+6>
0

>  <PEOE_VSA-0>
51.228157

>  <PEOE_VSA-1>
83.673698

>  <PEOE_VSA-2>
0

>  <PEOE_VSA-3>
0

>  <PEOE_VSA-4>
0

>  <PEOE_VSA-5>
47.497971

>  <PEOE_VSA-6>
10.271297

>  <PEOE_VSA_FHYD>
0.76707178

>  <PEOE_VSA_FNEG>
0.51148003

>  <PEOE_VSA_FPNEG>
0.15335886

>  <PEOE_VSA_FPOL>
0.23292825

>  <PEOE_VSA_FPOS>
0.48852

>  <PEOE_VSA_FPPOS>
0.079569377

>  <PEOE_VSA_HYD>
288.95084

>  <PEOE_VSA_NEG>
192.67113

>  <PEOE_VSA_PNEG>
57.769264

>  <PEOE_VSA_POL>
87.742523

>  <PEOE_VSA_POS>
184.02223

>  <PEOE_VSA_PPOS>
29.973255

>  <petitjean>
0.46666667

>  <petitjeanSC>
0.875

>  <Q_PC+>
0

>  <Q_PC->
0

>  <Q_RPC+>
0

>  <Q_RPC->
0

>  <Q_VSA_FHYD>
1

>  <Q_VSA_FNEG>
0

>  <Q_VSA_FPNEG>
0

>  <Q_VSA_FPOL>
0

>  <Q_VSA_FPOS>
1

>  <Q_VSA_FPPOS>
0

>  <Q_VSA_HYD>
376.69336

>  <Q_VSA_NEG>
0

>  <Q_VSA_PNEG>
0

>  <Q_VSA_POL>
0

>  <Q_VSA_POS>
376.69336

>  <Q_VSA_PPOS>
0

>  <radius>
8

>  <reactive>
1

>  <rings>
2

>  <RPC+>
0

>  <RPC->
0

>  <rsynth>
1

>  <SlogP>
3.7781

>  <SlogP_VSA0>
36.385113

>  <SlogP_VSA1>
15.468714

>  <SlogP_VSA2>
28.903076

>  <SlogP_VSA3>
90.300842

>  <SlogP_VSA4>
3.185575

>  <SlogP_VSA5>
0

>  <SlogP_VSA6>
0

>  <SlogP_VSA7>
141.14548

>  <SlogP_VSA8>
0

>  <SlogP_VSA9>
109.98047

>  <SMR>
9.7814198

>  <SMR_VSA0>
30.947832

>  <SMR_VSA1>
39.50943

>  <SMR_VSA2>
50.935009

>  <SMR_VSA3>
18.713291

>  <SMR_VSA4>
2.7567475

>  <SMR_VSA5>
159.58505

>  <SMR_VSA6>
44.624619

>  <SMR_VSA7>
78.297287

>  <TPSA>
95.589996

>  <VAdjEq>
0.40176207

>  <VAdjMa>
5.7548876

>  <VDistEq>
3.751034

>  <VDistMa>
9.0631123

>  <vdw_area>
376.69336

>  <vdw_vol>
460.06894

>  <vsa_acc>
13.566921

>  <vsa_acid>
0

>  <vsa_base>
0

>  <vsa_don>
0

>  <vsa_hyd>
278.14249

>  <vsa_other>
56.21529

>  <vsa_pol>
27.133842

>  <Weight>
399.22998

>  <weinerPath>
2003

>  <weinerPol>
37

>  <zagreb>
126

$$$$