S1(=O)(=O)NC(=O)c2c1cccc2
  MOE2013           2D

 12 13  0  0  0  0  0  0  0  0999 V2000
    0.0000    0.0000    0.0000 S   0  0  0  0  0  0  0  0  0  0  0  0
    1.2630   -0.8090    0.0000 O   0  0  0  0  0  0  0  0  0  0  0  0
   -0.1210   -1.4950    0.0000 O   0  0  0  0  0  0  0  0  0  0  0  0
    0.7420    1.3040    0.0000 N   0  0  0  0  0  0  0  0  0  0  0  0
   -0.2690    2.4120    0.0000 C   0  0  0  0  0  0  0  0  0  0  0  0
    0.0330    3.8810    0.0000 O   0  0  0  0  0  0  0  0  0  0  0  0
   -1.6360    1.7930    0.0000 C   0  0  0  0  0  0  0  0  0  0  0  0
   -1.4690    0.3020    0.0000 C   0  0  0  0  0  0  0  0  0  0  0  0
   -2.6770   -0.5870    0.0000 C   0  0  0  0  0  0  0  0  0  0  0  0
   -4.0510    0.0140    0.0000 C   0  0  0  0  0  0  0  0  0  0  0  0
   -4.2180    1.5050    0.0000 C   0  0  0  0  0  0  0  0  0  0  0  0
   -3.0100    2.3950    0.0000 C   0  0  0  0  0  0  0  0  0  0  0  0
  1  2  2  0  0  0  0
  1  3  2  0  0  0  0
  1  4  1  0  0  0  0
  1  8  1  0  0  0  0
  4  5  1  0  0  0  0
  5  6  2  0  0  0  0
  5  7  1  0  0  0  0
  7  8  1  0  0  0  0
  7 12  2  0  0  0  0
  8  9  2  0  0  0  0
  9 10  1  0  0  0  0
 10 11  2  0  0  0  0
 11 12  1  0  0  0  0
M  END
>  <Index>
1251

>  <ID>
HT2792

>  <class>
0

>  <apol>
22.059965

>  <ast_fraglike>
1

>  <ast_fraglike_ext>
1

>  <ast_violation>
0

>  <ast_violation_ext>
0

>  <a_acc>
3

>  <a_acid>
0

>  <a_aro>
6

>  <a_base>
0

>  <a_count>
17

>  <a_don>
1

>  <a_donacc>
4

>  <a_heavy>
12

>  <a_hyd>
6

>  <a_IC>
33.470856

>  <a_ICM>
1.9688739

>  <a_nB>
0

>  <a_nBr>
0

>  <a_nC>
7

>  <a_nCl>
0

>  <a_nF>
0

>  <a_nH>
5

>  <a_nI>
0

>  <a_nN>
1

>  <a_nO>
3

>  <a_nP>
0

>  <a_nS>
1

>  <balabanJ>
2.1931896

>  <BCUT_PEOE_0>
-2.2037411

>  <BCUT_PEOE_1>
-0.64672983

>  <BCUT_PEOE_2>
0.631549

>  <BCUT_PEOE_3>
2.5097985

>  <BCUT_SLOGP_0>
-2.4867961

>  <BCUT_SLOGP_1>
-0.54135638

>  <BCUT_SLOGP_2>
0.68497843

>  <BCUT_SLOGP_3>
2.3986032

>  <BCUT_SMR_0>
-1.8803976

>  <BCUT_SMR_1>
-0.41824055

>  <BCUT_SMR_2>
0.77064919

>  <BCUT_SMR_3>
2.832747

>  <bpol>
13.560035

>  <b_1rotN>
0

>  <b_1rotR>
0

>  <b_ar>
6

>  <b_count>
18

>  <b_double>
1

>  <b_heavy>
13

>  <b_max1len>
2

>  <b_rotN>
0

>  <b_rotR>
0

>  <b_single>
11

>  <b_triple>
0

>  <chi0>
8.7675848

>  <chi0v>
6.7588906

>  <chi0v_C>
3.809401

>  <chi0_C>
4.5604777

>  <chi1>
5.6109905

>  <chi1v>
4.7562194

>  <chi1v_C>
2.0773504

>  <chi1_C>
2.9831634

>  <chiral>
0

>  <chiral_u>
0

>  <density>
0.9369182

>  <diameter>
5

>  <FCharge>
0

>  <GCUT_PEOE_0>
-0.80176747

>  <GCUT_PEOE_1>
-0.42694333

>  <GCUT_PEOE_2>
0.073406324

>  <GCUT_PEOE_3>
2.2148411

>  <GCUT_SLOGP_0>
-1.1457882

>  <GCUT_SLOGP_1>
-0.46584621

>  <GCUT_SLOGP_2>
0.14883402

>  <GCUT_SLOGP_3>
2.1993122

>  <GCUT_SMR_0>
-0.40346876

>  <GCUT_SMR_1>
-0.19154724

>  <GCUT_SMR_2>
0.18659887

>  <GCUT_SMR_3>
2.4975188

>  <Kier1>
8.5917158

>  <Kier2>
2.75

>  <Kier3>
1.3313609

>  <KierA1>
6.9938054

>  <KierA2>
2.192539

>  <KierA3>
1.0442169

>  <KierFlex>
1.2778493

>  <lip_acc>
4

>  <lip_don>
1

>  <lip_druglike>
1

>  <lip_violation>
0

>  <logP(o/w)>
0.447

>  <logS>
-1.93246

>  <mr>
4.3301024

>  <mutagenic>
0

>  <nmol>
1

>  <opr_brigid>
10

>  <opr_leadlike>
1

>  <opr_nring>
2

>  <opr_nrot>
0

>  <opr_violation>
0

>  <PC+>
0

>  <PC->
0

>  <PEOE_PC+>
1.1181508

>  <PEOE_PC->
-1.1181508

>  <PEOE_RPC+>
0.28062302

>  <PEOE_RPC->
0.49176651

>  <PEOE_VSA+0>
12.254904

>  <PEOE_VSA+1>
32.219616

>  <PEOE_VSA+2>
8.6190128

>  <PEOE_VSA+3>
10.105608

>  <PEOE_VSA+4>
0

>  <PEOE_VSA+5>
0

>  <PEOE_VSA+6>
4.1846013

>  <PEOE_VSA-0>
12.254904

>  <PEOE_VSA-1>
24.509808

>  <PEOE_VSA-2>
32.016521

>  <PEOE_VSA-3>
2.5295215

>  <PEOE_VSA-4>
0

>  <PEOE_VSA-5>
0

>  <PEOE_VSA-6>
13.566921

>  <PEOE_VSA_FHYD>
0.88341421

>  <PEOE_VSA_FNEG>
0.55744702

>  <PEOE_VSA_FPNEG>
0.089102812

>  <PEOE_VSA_FPOL>
0.11658582

>  <PEOE_VSA_FPOS>
0.44255295

>  <PEOE_VSA_FPPOS>
0.027483005

>  <PEOE_VSA_HYD>
134.5099

>  <PEOE_VSA_NEG>
84.877678

>  <PEOE_VSA_PNEG>
13.566921

>  <PEOE_VSA_POL>
17.751522

>  <PEOE_VSA_POS>
67.383743

>  <PEOE_VSA_PPOS>
4.1846013

>  <petitjean>
0.40000001

>  <petitjeanSC>
0.66666669

>  <Q_PC+>
0

>  <Q_PC->
0

>  <Q_RPC+>
0

>  <Q_RPC->
0

>  <Q_VSA_FHYD>
1

>  <Q_VSA_FNEG>
0

>  <Q_VSA_FPNEG>
0

>  <Q_VSA_FPOL>
0

>  <Q_VSA_FPOS>
1

>  <Q_VSA_FPPOS>
0

>  <Q_VSA_HYD>
152.26141

>  <Q_VSA_NEG>
0

>  <Q_VSA_PNEG>
0

>  <Q_VSA_POL>
0

>  <Q_VSA_POS>
152.26141

>  <Q_VSA_PPOS>
0

>  <radius>
3

>  <reactive>
0

>  <rings>
2

>  <RPC+>
0

>  <RPC->
0

>  <rsynth>
1

>  <SlogP>
0.1187

>  <SlogP_VSA0>
16.404997

>  <SlogP_VSA1>
53.430473

>  <SlogP_VSA2>
6.6407428

>  <SlogP_VSA3>
0

>  <SlogP_VSA4>
27.047791

>  <SlogP_VSA5>
1.5507339

>  <SlogP_VSA6>
0

>  <SlogP_VSA7>
70.572739

>  <SlogP_VSA8>
0

>  <SlogP_VSA9>
0

>  <SMR>
4.1093998

>  <SMR_VSA0>
72.033905

>  <SMR_VSA1>
0

>  <SMR_VSA2>
17.955732

>  <SMR_VSA3>
3.185575

>  <SMR_VSA4>
0

>  <SMR_VSA5>
70.572739

>  <SMR_VSA6>
5.2587838

>  <SMR_VSA7>
6.6407428

>  <TPSA>
63.240002

>  <VAdjEq>
0.68129086

>  <VAdjMa>
4.7004399

>  <VDistEq>
2.144737

>  <VDistMa>
6.9010563

>  <vdw_area>
152.26141

>  <vdw_vol>
195.5208

>  <vsa_acc>
45.583443

>  <vsa_acid>
0

>  <vsa_base>
0

>  <vsa_don>
8.0752068

>  <vsa_hyd>
69.627121

>  <vsa_other>
23.05514

>  <vsa_pol>
53.658649

>  <Weight>
183.187

>  <weinerPath>
170

>  <weinerPol>
18

>  <zagreb>
66

$$$$