P(OCC(O)C(O)C(O)CN1C2=NC(=O)NC(=O)C2=Nc2cc(C)c(cc12)C)(O)(O)=O
  MOE2013           2D

 31 33  0  0  1  0  0  0  0  0999 V2000
    0.0000    0.0000    0.0000 P   0  0  0  0  0  0  0  0  0  0  0  0
   -1.2940    0.7590    0.0000 O   0  0  0  0  0  0  0  0  0  0  0  0
   -2.5980    0.0190    0.0000 C   0  0  0  0  0  0  0  0  0  0  0  0
   -3.8920    0.7780    0.0000 C   0  0  3  0  0  0  0  0  0  0  0  0
   -3.8810    2.2780    0.0000 O   0  0  0  0  0  0  0  0  0  0  0  0
   -5.1960    0.0380    0.0000 C   0  0  3  0  0  0  0  0  0  0  0  0
   -5.2070   -1.4620    0.0000 O   0  0  0  0  0  0  0  0  0  0  0  0
   -6.4900    0.7970    0.0000 C   0  0  3  0  0  0  0  0  0  0  0  0
   -6.4790    2.2970    0.0000 O   0  0  0  0  0  0  0  0  0  0  0  0
   -7.7940    0.0570    0.0000 C   0  0  0  0  0  0  0  0  0  0  0  0
   -9.0880    0.8160    0.0000 N   0  0  0  0  0  0  0  0  0  0  0  0
   -9.0770    2.3160    0.0000 C   0  0  0  0  0  0  0  0  0  0  0  0
   -7.7720    3.0570    0.0000 N   0  0  0  0  0  0  0  0  0  0  0  0
   -7.7610    4.5570    0.0000 C   0  0  0  0  0  0  0  0  0  0  0  0
   -6.4570    5.2970    0.0000 O   0  0  0  0  0  0  0  0  0  0  0  0
   -9.0550    5.3160    0.0000 N   0  0  0  0  0  0  0  0  0  0  0  0
  -10.3590    4.5760    0.0000 C   0  0  0  0  0  0  0  0  0  0  0  0
  -11.6530    5.3350    0.0000 O   0  0  0  0  0  0  0  0  0  0  0  0
  -10.3700    3.0760    0.0000 C   0  0  0  0  0  0  0  0  0  0  0  0
  -11.6750    2.3350    0.0000 N   0  0  0  0  0  0  0  0  0  0  0  0
  -11.6860    0.8350    0.0000 C   0  0  0  0  0  0  0  0  0  0  0  0
  -12.9900    0.0950    0.0000 C   0  0  0  0  0  0  0  0  0  0  0  0
  -13.0010   -1.4050    0.0000 C   0  0  0  0  0  0  0  0  0  0  0  0
  -14.3050   -2.1460    0.0000 C   0  0  0  0  0  0  0  0  0  0  0  0
  -11.7070   -2.1650    0.0000 C   0  0  0  0  0  0  0  0  0  0  0  0
  -10.4030   -1.4240    0.0000 C   0  0  0  0  0  0  0  0  0  0  0  0
  -10.3920    0.0760    0.0000 C   0  0  0  0  0  0  0  0  0  0  0  0
  -11.7180   -3.6650    0.0000 C   0  0  0  0  0  0  0  0  0  0  0  0
   -0.7590   -1.2940    0.0000 O   0  0  0  0  0  0  0  0  0  0  0  0
    0.7590    1.2940    0.0000 O   0  0  0  0  0  0  0  0  0  0  0  0
    1.2940   -0.7590    0.0000 O   0  0  0  0  0  0  0  0  0  0  0  0
  1  2  1  0  0  0  0
  1 29  1  0  0  0  0
  1 30  1  0  0  0  0
  1 31  2  0  0  0  0
  2  3  1  0  0  0  0
  3  4  1  0  0  0  0
  4  5  1  0  0  0  0
  4  6  1  0  0  0  0
  6  7  1  0  0  0  0
  6  8  1  0  0  0  0
  8  9  1  0  0  0  0
  8 10  1  0  0  0  0
 10 11  1  0  0  0  0
 11 12  1  0  0  0  0
 11 27  1  0  0  0  0
 12 13  2  0  0  0  0
 12 19  1  0  0  0  0
 13 14  1  0  0  0  0
 14 15  2  0  0  0  0
 14 16  1  0  0  0  0
 16 17  1  0  0  0  0
 17 18  2  0  0  0  0
 17 19  1  0  0  0  0
 19 20  2  0  0  0  0
 20 21  1  0  0  0  0
 21 22  1  0  0  0  0
 21 27  2  0  0  0  0
 22 23  2  0  0  0  0
 23 24  1  0  0  0  0
 23 25  1  0  0  0  0
 25 26  2  0  0  0  0
 25 28  1  0  0  0  0
 26 27  1  0  0  0  0
M  END
>  <Index>
1388

>  <ID>
HT3842

>  <class>
0

>  <apol>
59.170654

>  <ast_fraglike>
0

>  <ast_fraglike_ext>
0

>  <ast_violation>
3

>  <ast_violation_ext>
5

>  <a_acc>
11

>  <a_acid>
0

>  <a_aro>
6

>  <a_base>
0

>  <a_count>
52

>  <a_don>
7

>  <a_donacc>
18

>  <a_heavy>
31

>  <a_hyd>
13

>  <a_IC>
98.168007

>  <a_ICM>
1.8878462

>  <a_nB>
0

>  <a_nBr>
0

>  <a_nC>
17

>  <a_nCl>
0

>  <a_nF>
0

>  <a_nH>
21

>  <a_nI>
0

>  <a_nN>
4

>  <a_nO>
9

>  <a_nP>
1

>  <a_nS>
0

>  <balabanJ>
1.7458733

>  <BCUT_PEOE_0>
-2.6448948

>  <BCUT_PEOE_1>
-0.63024217

>  <BCUT_PEOE_2>
0.65233588

>  <BCUT_PEOE_3>
2.6900082

>  <BCUT_SLOGP_0>
-2.8344126

>  <BCUT_SLOGP_1>
-0.69636285

>  <BCUT_SLOGP_2>
0.49615908

>  <BCUT_SLOGP_3>
2.5617535

>  <BCUT_SMR_0>
-2.4219604

>  <BCUT_SMR_1>
-0.45253429

>  <BCUT_SMR_2>
0.77455866

>  <BCUT_SMR_3>
2.9083397

>  <bpol>
40.507347

>  <b_1rotN>
7

>  <b_1rotR>
0.21212122

>  <b_ar>
6

>  <b_count>
54

>  <b_double>
4

>  <b_heavy>
33

>  <b_max1len>
9

>  <b_rotN>
7

>  <b_rotR>
0.21212122

>  <b_single>
44

>  <b_triple>
0

>  <chi0>
23.085058

>  <chi0v>
17.353308

>  <chi0v_C>
10.300965

>  <chi0_C>
11.17928

>  <chi1>
14.368899

>  <chi1v>
10.562697

>  <chi1v_C>
4.6378636

>  <chi1_C>
5.6041903

>  <chiral>
3

>  <chiral_u>
3

>  <density>
0.88789076

>  <diameter>
13

>  <FCharge>
0

>  <GCUT_PEOE_0>
-0.8295365

>  <GCUT_PEOE_1>
-0.46271315

>  <GCUT_PEOE_2>
0.13285571

>  <GCUT_PEOE_3>
2.7709882

>  <GCUT_SLOGP_0>
-1.293997

>  <GCUT_SLOGP_1>
-0.47164473

>  <GCUT_SLOGP_2>
0.0067596338

>  <GCUT_SLOGP_3>
2.7649541

>  <GCUT_SMR_0>
-0.52548152

>  <GCUT_SMR_1>
-0.22875738

>  <GCUT_SMR_2>
0.24459079

>  <GCUT_SMR_3>
3.0421331

>  <Kier1>
25.619835

>  <Kier2>
10.092

>  <Kier3>
6.1186266

>  <KierA1>
21.377369

>  <KierA2>
8.3673506

>  <KierA3>
5.0493884

>  <KierFlex>
5.7700629

>  <lip_acc>
13

>  <lip_don>
6

>  <lip_druglike>
0

>  <lip_violation>
2

>  <logP(o/w)>
-2.099

>  <logS>
-2.8701701

>  <mr>
10.605723

>  <mutagenic>
0

>  <nmol>
1

>  <opr_brigid>
16

>  <opr_leadlike>
0

>  <opr_nring>
3

>  <opr_nrot>
7

>  <opr_violation>
3

>  <PC+>
0

>  <PC->
0

>  <PEOE_PC+>
3.8512862

>  <PEOE_PC->
-3.8512862

>  <PEOE_RPC+>
0.10673887

>  <PEOE_RPC->
0.10070656

>  <PEOE_VSA+0>
34.123089

>  <PEOE_VSA+1>
76.305351

>  <PEOE_VSA+2>
9.8098574

>  <PEOE_VSA+3>
47.157471

>  <PEOE_VSA+4>
30.972517

>  <PEOE_VSA+5>
12.949531

>  <PEOE_VSA+6>
36.15361

>  <PEOE_VSA-0>
66.422241

>  <PEOE_VSA-1>
0

>  <PEOE_VSA-2>
15.729136

>  <PEOE_VSA-3>
5.6825762

>  <PEOE_VSA-4>
19.249496

>  <PEOE_VSA-5>
38.229294

>  <PEOE_VSA-6>
23.30262

>  <PEOE_VSA_FHYD>
0.61340499

>  <PEOE_VSA_FNEG>
0.40524086

>  <PEOE_VSA_FPNEG>
0.19414558

>  <PEOE_VSA_FPOL>
0.38659498

>  <PEOE_VSA_FPOS>
0.59475917

>  <PEOE_VSA_FPPOS>
0.19244942

>  <PEOE_VSA_HYD>
255.22972

>  <PEOE_VSA_NEG>
168.61537

>  <PEOE_VSA_PNEG>
80.78141

>  <PEOE_VSA_POL>
160.85707

>  <PEOE_VSA_POS>
247.47144

>  <PEOE_VSA_PPOS>
80.075661

>  <petitjean>
0.46153846

>  <petitjeanSC>
0.85714287

>  <Q_PC+>
0

>  <Q_PC->
0

>  <Q_RPC+>
0

>  <Q_RPC->
0

>  <Q_VSA_FHYD>
1

>  <Q_VSA_FNEG>
0

>  <Q_VSA_FPNEG>
0

>  <Q_VSA_FPOL>
0

>  <Q_VSA_FPOS>
1

>  <Q_VSA_FPPOS>
0

>  <Q_VSA_HYD>
416.08679

>  <Q_VSA_NEG>
0

>  <Q_VSA_PNEG>
0

>  <Q_VSA_POL>
0

>  <Q_VSA_POS>
416.08679

>  <Q_VSA_PPOS>
0

>  <radius>
7

>  <reactive>
1

>  <rings>
3

>  <RPC+>
0

>  <RPC->
0

>  <rsynth>
1

>  <SlogP>
-2.0339601

>  <SlogP_VSA0>
162.33844

>  <SlogP_VSA1>
15.173408

>  <SlogP_VSA2>
50.189793

>  <SlogP_VSA3>
39.365837

>  <SlogP_VSA4>
6.37115

>  <SlogP_VSA5>
33.57106

>  <SlogP_VSA6>
0

>  <SlogP_VSA7>
35.286369

>  <SlogP_VSA8>
0

>  <SlogP_VSA9>
112.72258

>  <SMR>
10.66607

>  <SMR_VSA0>
77.079826

>  <SMR_VSA1>
152.34068

>  <SMR_VSA2>
21.135065

>  <SMR_VSA3>
25.777098

>  <SMR_VSA4>
5.513495

>  <SMR_VSA5>
35.286369

>  <SMR_VSA6>
54.539246

>  <SMR_VSA7>
83.34687

>  <TPSA>
201.58

>  <VAdjEq>
0.36097246

>  <VAdjMa>
6.044394

>  <VDistEq>
3.5277944

>  <VDistMa>
9.6396189

>  <vdw_area>
416.08679

>  <vdw_vol>
513.96863

>  <vsa_acc>
43.164967

>  <vsa_acid>
0

>  <vsa_base>
0

>  <vsa_don>
5.6825762

>  <vsa_hyd>
175.98361

>  <vsa_other>
66.993256

>  <vsa_pol>
136.73572

>  <Weight>
456.34799

>  <weinerPath>
2636

>  <weinerPol>
53

>  <zagreb>
166

$$$$