n1c2c(ncc1)cc1C3CC(c1c2)CNC3
  MOE2013           2D

 16 19  0  0  1  0  0  0  0  0999 V2000
    0.0000    0.0000    0.0000 N   0  0  0  0  0  0  0  0  0  0  0  0
   -1.5000   -0.0020    0.0000 C   0  0  0  0  0  0  0  0  0  0  0  0
   -2.2480   -1.3020    0.0000 C   0  0  0  0  0  0  0  0  0  0  0  0
   -1.4960   -2.6000    0.0000 N   0  0  0  0  0  0  0  0  0  0  0  0
    0.0040   -2.5980    0.0000 C   0  0  0  0  0  0  0  0  0  0  0  0
    0.7520   -1.2980    0.0000 C   0  0  0  0  0  0  0  0  0  0  0  0
   -3.7480   -1.3050    0.0000 C   0  0  0  0  0  0  0  0  0  0  0  0
   -4.4530    0.1380    0.0000 C   0  0  0  0  0  0  0  0  0  0  0  0
   -5.7780   -0.4240    0.0000 C   0  0  3  0  0  0  0  0  0  0  0  0
   -6.5630    0.6300    0.0000 C   0  0  0  0  0  0  0  0  0  0  0  0
   -5.0730    0.3420    0.0000 C   0  0  3  0  0  0  0  0  0  0  0  0
   -3.7320    1.2600    0.0000 C   0  0  0  0  0  0  0  0  0  0  0  0
   -2.2520    1.2960    0.0000 C   0  0  0  0  0  0  0  0  0  0  0  0
   -5.1210   -1.4510    0.0000 C   0  0  0  0  0  0  0  0  0  0  0  0
   -4.3520   -2.4270    0.0000 N   0  0  0  0  0  0  0  0  0  0  0  0
   -5.8500   -2.1300    0.0000 C   0  0  0  0  0  0  0  0  0  0  0  0
  1  2  1  0  0  0  0
  1  6  2  0  0  0  0
  2  3  1  0  0  0  0
  2 13  2  0  0  0  0
  3  4  1  0  0  0  0
  3  7  2  0  0  0  0
  4  5  2  0  0  0  0
  5  6  1  0  0  0  0
  7  8  1  0  0  0  0
  8  9  1  0  0  0  0
  8 12  2  0  0  0  0
  9 10  1  0  0  0  0
  9 16  1  0  0  0  0
 10 11  1  0  0  0  0
 11 12  1  0  0  0  0
 11 14  1  0  0  0  0
 12 13  1  0  0  0  0
 14 15  1  0  0  0  0
 15 16  1  0  0  0  0
M  END
>  <Index>
1139

>  <ID>
HT2169

>  <class>
0

>  <apol>
34.848309

>  <ast_fraglike>
1

>  <ast_fraglike_ext>
1

>  <ast_violation>
0

>  <ast_violation_ext>
0

>  <a_acc>
3

>  <a_acid>
0

>  <a_aro>
10

>  <a_base>
0

>  <a_count>
29

>  <a_don>
1

>  <a_donacc>
4

>  <a_heavy>
16

>  <a_hyd>
13

>  <a_IC>
39.915127

>  <a_ICM>
1.3763838

>  <a_nB>
0

>  <a_nBr>
0

>  <a_nC>
13

>  <a_nCl>
0

>  <a_nF>
0

>  <a_nH>
13

>  <a_nI>
0

>  <a_nN>
3

>  <a_nO>
0

>  <a_nP>
0

>  <a_nS>
0

>  <balabanJ>
1.5806438

>  <BCUT_PEOE_0>
-2.7084832

>  <BCUT_PEOE_1>
-0.64284843

>  <BCUT_PEOE_2>
0.69739151

>  <BCUT_PEOE_3>
2.7479925

>  <BCUT_SLOGP_0>
-2.7778583

>  <BCUT_SLOGP_1>
-0.56967092

>  <BCUT_SLOGP_2>
0.75303477

>  <BCUT_SLOGP_3>
2.8120108

>  <BCUT_SMR_0>
-2.4410014

>  <BCUT_SMR_1>
-0.4695631

>  <BCUT_SMR_2>
0.85584348

>  <BCUT_SMR_3>
3.0232115

>  <bpol>
17.51169

>  <b_1rotN>
0

>  <b_1rotR>
0

>  <b_ar>
11

>  <b_count>
32

>  <b_double>
0

>  <b_heavy>
19

>  <b_max1len>
2

>  <b_rotN>
0

>  <b_rotR>
0

>  <b_single>
21

>  <b_triple>
0

>  <chi0>
10.53517

>  <chi0v>
8.9798489

>  <chi0v_C>
7.585422

>  <chi0_C>
8.4138489

>  <chi1>
7.9158163

>  <chi1v>
5.8690953

>  <chi1v_C>
4.1983771

>  <chi1_C>
5.0993195

>  <chiral>
2

>  <chiral_u>
2

>  <density>
0.7201249

>  <diameter>
7

>  <FCharge>
0

>  <GCUT_PEOE_0>
-0.84573829

>  <GCUT_PEOE_1>
-0.41839272

>  <GCUT_PEOE_2>
0.10867497

>  <GCUT_PEOE_3>
2.6610999

>  <GCUT_SLOGP_0>
-1.1531283

>  <GCUT_SLOGP_1>
-0.33416495

>  <GCUT_SLOGP_2>
0.1839814

>  <GCUT_SLOGP_3>
2.7430403

>  <GCUT_SMR_0>
-0.51745921

>  <GCUT_SMR_1>
-0.21997109

>  <GCUT_SMR_2>
0.20550923

>  <GCUT_SMR_3>
2.9364326

>  <Kier1>
9.9722996

>  <Kier2>
3.75

>  <Kier3>
1.5157645

>  <KierA1>
7.5126715

>  <KierA2>
2.7668126

>  <KierA3>
1.1009234

>  <KierFlex>
1.2991346

>  <lip_acc>
3

>  <lip_don>
1

>  <lip_druglike>
1

>  <lip_violation>
0

>  <logP(o/w)>
0.93652999

>  <logS>
-0.76964998

>  <mr>
6.2087121

>  <mutagenic>
0

>  <nmol>
1

>  <opr_brigid>
19

>  <opr_leadlike>
1

>  <opr_nring>
4

>  <opr_nrot>
0

>  <opr_violation>
0

>  <PC+>
0

>  <PC->
0

>  <PEOE_PC+>
0.9963761

>  <PEOE_PC->
-0.9963761

>  <PEOE_RPC+>
0.12241975

>  <PEOE_RPC->
0.31597233

>  <PEOE_VSA+0>
93.999565

>  <PEOE_VSA+1>
30.460646

>  <PEOE_VSA+2>
8.6190128

>  <PEOE_VSA+3>
0

>  <PEOE_VSA+4>
0

>  <PEOE_VSA+5>
0

>  <PEOE_VSA+6>
0

>  <PEOE_VSA-0>
37.628201

>  <PEOE_VSA-1>
0

>  <PEOE_VSA-2>
0

>  <PEOE_VSA-3>
0

>  <PEOE_VSA-4>
0

>  <PEOE_VSA-5>
11.365152

>  <PEOE_VSA-6>
0.13689101

>  <PEOE_VSA_FHYD>
0.93687463

>  <PEOE_VSA_FNEG>
0.26963606

>  <PEOE_VSA_FPNEG>
0.063125387

>  <PEOE_VSA_FPOL>
0.063125387

>  <PEOE_VSA_FPOS>
0.73036397

>  <PEOE_VSA_FPPOS>
0

>  <PEOE_VSA_HYD>
170.70743

>  <PEOE_VSA_NEG>
49.130245

>  <PEOE_VSA_PNEG>
11.502043

>  <PEOE_VSA_POL>
11.502043

>  <PEOE_VSA_POS>
133.07922

>  <PEOE_VSA_PPOS>
0

>  <petitjean>
0.42857143

>  <petitjeanSC>
0.75

>  <Q_PC+>
0

>  <Q_PC->
0

>  <Q_RPC+>
0

>  <Q_RPC->
0

>  <Q_VSA_FHYD>
1

>  <Q_VSA_FNEG>
0

>  <Q_VSA_FPNEG>
0

>  <Q_VSA_FPOL>
0

>  <Q_VSA_FPOS>
1

>  <Q_VSA_FPPOS>
0

>  <Q_VSA_HYD>
182.20947

>  <Q_VSA_NEG>
0

>  <Q_VSA_PNEG>
0

>  <Q_VSA_POL>
0

>  <Q_VSA_POS>
182.20947

>  <Q_VSA_PPOS>
0

>  <radius>
4

>  <reactive>
0

>  <rings>
4

>  <RPC+>
0

>  <RPC->
0

>  <rsynth>
0.25

>  <SlogP>
1.8039

>  <SlogP_VSA0>
18.01075

>  <SlogP_VSA1>
33.57106

>  <SlogP_VSA2>
0

>  <SlogP_VSA3>
36.879158

>  <SlogP_VSA4>
6.37115

>  <SlogP_VSA5>
0

>  <SlogP_VSA6>
8.8215923

>  <SlogP_VSA7>
74.003357

>  <SlogP_VSA8>
18.868406

>  <SlogP_VSA9>
0

>  <SMR>
6.25067

>  <SMR_VSA0>
0

>  <SMR_VSA1>
33.57106

>  <SMR_VSA2>
18.01075

>  <SMR_VSA3>
15.192742

>  <SMR_VSA4>
4.2882738

>  <SMR_VSA5>
88.583488

>  <SMR_VSA6>
36.879158

>  <SMR_VSA7>
0

>  <TPSA>
37.810001

>  <VAdjEq>
0.60591632

>  <VAdjMa>
5.2479277

>  <VDistEq>
2.6295621

>  <VDistMa>
7.7152014

>  <vdw_area>
182.20947

>  <vdw_vol>
293.37689

>  <vsa_acc>
11.365152

>  <vsa_acid>
0

>  <vsa_base>
0

>  <vsa_don>
0

>  <vsa_hyd>
150.85677

>  <vsa_other>
0

>  <vsa_pol>
17.047728

>  <Weight>
211.26799

>  <weinerPath>
386

>  <weinerPol>
27

>  <zagreb>
94

$$$$