O(C[C@H](O)CNC(C)C)c1ccc(cc1)CCOCC1CC1
  MOE2013           2D

 22 23  0  0  1  0  0  0  0  0999 V2000
    0.0000    0.0000    0.0000 O   0  0  0  0  0  0  0  0  0  0  0  0
   -0.7450    1.3020    0.0000 C   0  0  0  0  0  0  0  0  0  0  0  0
   -2.2450    1.3080    0.0000 C   0  0  2  0  0  0  0  0  0  0  0  0
   -3.0000    0.0110    0.0000 O   0  0  0  0  0  0  0  0  0  0  0  0
   -2.9900    2.6090    0.0000 C   0  0  0  0  0  0  0  0  0  0  0  0
   -4.4900    2.6150    0.0000 N   0  0  0  0  0  0  0  0  0  0  0  0
   -5.2350    3.9170    0.0000 C   0  0  0  0  0  0  0  0  0  0  0  0
   -4.4800    5.2130    0.0000 C   0  0  0  0  0  0  0  0  0  0  0  0
   -6.7350    3.9230    0.0000 C   0  0  0  0  0  0  0  0  0  0  0  0
    1.5000   -0.0060    0.0000 C   0  0  0  0  0  0  0  0  0  0  0  0
    2.2550    1.2900    0.0000 C   0  0  0  0  0  0  0  0  0  0  0  0
    3.7550    1.2850    0.0000 C   0  0  0  0  0  0  0  0  0  0  0  0
    4.5000   -0.0170    0.0000 C   0  0  0  0  0  0  0  0  0  0  0  0
    3.7450   -1.3130    0.0000 C   0  0  0  0  0  0  0  0  0  0  0  0
    2.2450   -1.3080    0.0000 C   0  0  0  0  0  0  0  0  0  0  0  0
    6.0000   -0.0230    0.0000 C   0  0  0  0  0  0  0  0  0  0  0  0
    6.7550    1.2730    0.0000 C   0  0  0  0  0  0  0  0  0  0  0  0
    8.2550    1.2680    0.0000 O   0  0  0  0  0  0  0  0  0  0  0  0
    9.0100    2.5640    0.0000 C   0  0  0  0  0  0  0  0  0  0  0  0
   10.5100    2.5580    0.0000 C   0  0  0  0  0  0  0  0  0  0  0  0
   11.8120    3.3030    0.0000 C   0  0  0  0  0  0  0  0  0  0  0  0
   11.8060    1.8030    0.0000 C   0  0  0  0  0  0  0  0  0  0  0  0
  1  2  1  0  0  0  0
  1 10  1  0  0  0  0
  2  3  1  0  0  0  0
  3  4  1  6  0  0  0
  3  5  1  0  0  0  0
  5  6  1  0  0  0  0
  6  7  1  0  0  0  0
  7  8  1  0  0  0  0
  7  9  1  0  0  0  0
 10 11  1  0  0  0  0
 10 15  2  0  0  0  0
 11 12  2  0  0  0  0
 12 13  1  0  0  0  0
 13 14  2  0  0  0  0
 13 16  1  0  0  0  0
 14 15  1  0  0  0  0
 16 17  1  0  0  0  0
 17 18  1  0  0  0  0
 18 19  1  0  0  0  0
 19 20  1  0  0  0  0
 20 21  1  0  0  0  0
 20 22  1  0  0  0  0
 21 22  1  0  0  0  0
M  END
>  <Index>
138

>  <ID>
HT0275

>  <class>
0

>  <apol>
54.522999

>  <ast_fraglike>
0

>  <ast_fraglike_ext>
0

>  <ast_violation>
2

>  <ast_violation_ext>
3

>  <a_acc>
4

>  <a_acid>
0

>  <a_aro>
6

>  <a_base>
0

>  <a_count>
51

>  <a_don>
2

>  <a_donacc>
6

>  <a_heavy>
22

>  <a_hyd>
18

>  <a_IC>
68.598709

>  <a_ICM>
1.3450726

>  <a_nB>
0

>  <a_nBr>
0

>  <a_nC>
18

>  <a_nCl>
0

>  <a_nF>
0

>  <a_nH>
29

>  <a_nI>
0

>  <a_nN>
1

>  <a_nO>
3

>  <a_nP>
0

>  <a_nS>
0

>  <balabanJ>
1.4551371

>  <BCUT_PEOE_0>
-2.6557617

>  <BCUT_PEOE_1>
-0.51921695

>  <BCUT_PEOE_2>
0.58293062

>  <BCUT_PEOE_3>
2.7836044

>  <BCUT_SLOGP_0>
-2.8163366

>  <BCUT_SLOGP_1>
-0.46828422

>  <BCUT_SLOGP_2>
0.57665139

>  <BCUT_SLOGP_3>
2.8744833

>  <BCUT_SMR_0>
-2.3944197

>  <BCUT_SMR_1>
-0.3982299

>  <BCUT_SMR_2>
0.68056029

>  <BCUT_SMR_3>
3.0291786

>  <bpol>
36.195004

>  <b_1rotN>
11

>  <b_1rotR>
0.47826087

>  <b_ar>
6

>  <b_count>
52

>  <b_double>
0

>  <b_heavy>
23

>  <b_max1len>
7

>  <b_rotN>
11

>  <b_rotR>
0.47826087

>  <b_single>
46

>  <b_triple>
0

>  <chi0>
15.786246

>  <chi0v>
13.75491

>  <chi0v_C>
11.991199

>  <chi0_C>
12.664926

>  <chi1>
10.63103

>  <chi1v>
8.3414392

>  <chi1v_C>
6.3708625

>  <chi1_C>
7.2371836

>  <chiral>
1

>  <chiral_u>
0

>  <density>
0.67678559

>  <diameter>
16

>  <FCharge>
0

>  <GCUT_PEOE_0>
-0.84582698

>  <GCUT_PEOE_1>
-0.37323606

>  <GCUT_PEOE_2>
0.078476757

>  <GCUT_PEOE_3>
2.5481145

>  <GCUT_SLOGP_0>
-1.1534547

>  <GCUT_SLOGP_1>
-0.31688994

>  <GCUT_SLOGP_2>
0.11709244

>  <GCUT_SLOGP_3>
2.592756

>  <GCUT_SMR_0>
-0.52160937

>  <GCUT_SMR_1>
-0.20761541

>  <GCUT_SMR_2>
0.14914632

>  <GCUT_SMR_3>
2.7892566

>  <Kier1>
18.340265

>  <Kier2>
9.9881096

>  <Kier3>
7.421875

>  <KierA1>
16.400309

>  <KierA2>
8.8816147

>  <KierA3>
6.5728722

>  <KierFlex>
6.6209645

>  <lip_acc>
4

>  <lip_don>
2

>  <lip_druglike>
1

>  <lip_violation>
0

>  <logP(o/w)>
2.698

>  <logS>
-2.4604599

>  <mr>
8.9214544

>  <mutagenic>
0

>  <nmol>
1

>  <opr_brigid>
9

>  <opr_leadlike>
1

>  <opr_nring>
2

>  <opr_nrot>
11

>  <opr_violation>
1

>  <PC+>
0

>  <PC->
0

>  <PEOE_PC+>
1.8579402

>  <PEOE_PC->
-1.8579402

>  <PEOE_RPC+>
0.11299154

>  <PEOE_RPC->
0.20896131

>  <PEOE_VSA+0>
84.584465

>  <PEOE_VSA+1>
105.13657

>  <PEOE_VSA+2>
8.6190128

>  <PEOE_VSA+3>
0

>  <PEOE_VSA+4>
10.324173

>  <PEOE_VSA+5>
0

>  <PEOE_VSA+6>
0

>  <PEOE_VSA-0>
90.317642

>  <PEOE_VSA-1>
24.509808

>  <PEOE_VSA-2>
0

>  <PEOE_VSA-3>
0

>  <PEOE_VSA-4>
0

>  <PEOE_VSA-5>
0

>  <PEOE_VSA-6>
12.911943

>  <PEOE_VSA_FHYD>
0.93092787

>  <PEOE_VSA_FNEG>
0.37972063

>  <PEOE_VSA_FPNEG>
0.038382296

>  <PEOE_VSA_FPOL>
0.069072135

>  <PEOE_VSA_FPOS>
0.62027937

>  <PEOE_VSA_FPPOS>
0.030689839

>  <PEOE_VSA_HYD>
313.16751

>  <PEOE_VSA_NEG>
127.7394

>  <PEOE_VSA_PNEG>
12.911943

>  <PEOE_VSA_POL>
23.236116

>  <PEOE_VSA_POS>
208.66422

>  <PEOE_VSA_PPOS>
10.324173

>  <petitjean>
0.5

>  <petitjeanSC>
1

>  <Q_PC+>
0

>  <Q_PC->
0

>  <Q_RPC+>
0

>  <Q_RPC->
0

>  <Q_VSA_FHYD>
1

>  <Q_VSA_FNEG>
0

>  <Q_VSA_FPNEG>
0

>  <Q_VSA_FPOL>
0

>  <Q_VSA_FPOS>
1

>  <Q_VSA_FPPOS>
0

>  <Q_VSA_HYD>
336.40363

>  <Q_VSA_NEG>
0

>  <Q_VSA_PNEG>
0

>  <Q_VSA_POL>
0

>  <Q_VSA_POS>
336.40363

>  <Q_VSA_PPOS>
0

>  <radius>
8

>  <reactive>
0

>  <rings>
2

>  <RPC+>
0

>  <RPC->
0

>  <rsynth>
0.36363637

>  <SlogP>
2.3933699

>  <SlogP_VSA0>
54.395866

>  <SlogP_VSA1>
0

>  <SlogP_VSA2>
21.450506

>  <SlogP_VSA3>
81.218353

>  <SlogP_VSA4>
7.5963712

>  <SlogP_VSA5>
18.868406

>  <SlogP_VSA6>
0

>  <SlogP_VSA7>
70.572739

>  <SlogP_VSA8>
37.736813

>  <SlogP_VSA9>
71.895454

>  <SMR>
8.8329496

>  <SMR_VSA0>
10.999887

>  <SMR_VSA1>
36.385113

>  <SMR_VSA2>
22.421547

>  <SMR_VSA3>
18.879622

>  <SMR_VSA4>
0

>  <SMR_VSA5>
127.17796

>  <SMR_VSA6>
81.218353

>  <SMR_VSA7>
66.652031

>  <TPSA>
50.720001

>  <VAdjEq>
0.4530769

>  <VAdjMa>
5.523562

>  <VDistEq>
3.7939191

>  <VDistMa>
8.5513487

>  <vdw_area>
336.40363

>  <vdw_vol>
454.2561

>  <vsa_acc>
5.0075121

>  <vsa_acid>
0

>  <vsa_base>
0

>  <vsa_don>
0

>  <vsa_hyd>
283.98495

>  <vsa_other>
0

>  <vsa_pol>
24.25701

>  <Weight>
307.43399

>  <weinerPath>
1427

>  <weinerPol>
24

>  <zagreb>
104

$$$$