O=C1CCC2(C3C(C4CCC(C(=O)COC(=O)C)C4(CC3)C)CCC2=C1)C
  MOE2013           2D

 27 30  0  0  1  0  0  0  0  0999 V2000
    0.0000    0.0000    0.0000 O   0  0  0  0  0  0  0  0  0  0  0  0
    1.5000   -0.0100    0.0000 C   0  0  0  0  0  0  0  0  0  0  0  0
    2.2580    1.2850    0.0000 C   0  0  0  0  0  0  0  0  0  0  0  0
    3.7580    1.2750    0.0000 C   0  0  0  0  0  0  0  0  0  0  0  0
    4.5000   -0.0290    0.0000 C   0  0  3  0  0  0  0  0  0  0  0  0
    6.0000   -0.0390    0.0000 C   0  0  3  0  0  0  0  0  0  0  0  0
    6.7410   -1.3430    0.0000 C   0  0  3  0  0  0  0  0  0  0  0  0
    8.2410   -1.3520    0.0000 C   0  0  3  0  0  0  0  0  0  0  0  0
    9.2380   -2.4730    0.0000 C   0  0  0  0  0  0  0  0  0  0  0  0
   10.6120   -1.8720    0.0000 C   0  0  0  0  0  0  0  0  0  0  0  0
   10.4650   -0.3790    0.0000 C   0  0  3  0  0  0  0  0  0  0  0  0
   11.5860    0.6170    0.0000 C   0  0  0  0  0  0  0  0  0  0  0  0
   11.2840    2.0860    0.0000 O   0  0  0  0  0  0  0  0  0  0  0  0
   13.0100    0.1440    0.0000 C   0  0  0  0  0  0  0  0  0  0  0  0
   14.1310    1.1410    0.0000 O   0  0  0  0  0  0  0  0  0  0  0  0
   15.5540    0.6680    0.0000 C   0  0  0  0  0  0  0  0  0  0  0  0
   16.6760    1.6650    0.0000 O   0  0  0  0  0  0  0  0  0  0  0  0
   15.8570   -0.8010    0.0000 C   0  0  0  0  0  0  0  0  0  0  0  0
    9.0000   -0.0580    0.0000 C   0  0  3  0  0  0  0  0  0  0  0  0
    8.2580    1.2460    0.0000 C   0  0  0  0  0  0  0  0  0  0  0  0
    6.7580    1.2550    0.0000 C   0  0  0  0  0  0  0  0  0  0  0  0
    9.8890    1.1500    0.0000 C   0  0  0  0  0  0  0  0  0  0  0  0
    5.9830   -2.6370    0.0000 C   0  0  0  0  0  0  0  0  0  0  0  0
    4.4830   -2.6270    0.0000 C   0  0  0  0  0  0  0  0  0  0  0  0
    3.7420   -1.3230    0.0000 C   0  0  0  0  0  0  0  0  0  0  0  0
    2.2420   -1.3140    0.0000 C   0  0  0  0  0  0  0  0  0  0  0  0
    5.2810    1.2520    0.0000 C   0  0  0  0  0  0  0  0  0  0  0  0
  1  2  2  0  0  0  0
  2  3  1  0  0  0  0
  2 26  1  0  0  0  0
  3  4  1  0  0  0  0
  4  5  1  0  0  0  0
  5  6  1  0  0  0  0
  5 25  1  0  0  0  0
  5 27  1  0  0  0  0
  6  7  1  0  0  0  0
  6 21  1  0  0  0  0
  7  8  1  0  0  0  0
  7 23  1  0  0  0  0
  8  9  1  0  0  0  0
  8 19  1  0  0  0  0
  9 10  1  0  0  0  0
 10 11  1  0  0  0  0
 11 12  1  0  0  0  0
 11 19  1  0  0  0  0
 12 13  2  0  0  0  0
 12 14  1  0  0  0  0
 14 15  1  0  0  0  0
 15 16  1  0  0  0  0
 16 17  2  0  0  0  0
 16 18  1  0  0  0  0
 19 20  1  0  0  0  0
 19 22  1  0  0  0  0
 20 21  1  0  0  0  0
 23 24  1  0  0  0  0
 24 25  1  0  0  0  0
 25 26  2  0  0  0  0
M  END
>  <Index>
1366

>  <ID>
HT3694

>  <class>
0

>  <apol>
65.025375

>  <ast_fraglike>
0

>  <ast_fraglike_ext>
0

>  <ast_violation>
2

>  <ast_violation_ext>
2

>  <a_acc>
3

>  <a_acid>
0

>  <a_aro>
0

>  <a_base>
0

>  <a_count>
59

>  <a_don>
0

>  <a_donacc>
3

>  <a_heavy>
27

>  <a_hyd>
20

>  <a_IC>
75.034012

>  <a_ICM>
1.271763

>  <a_nB>
0

>  <a_nBr>
0

>  <a_nC>
23

>  <a_nCl>
0

>  <a_nF>
0

>  <a_nH>
32

>  <a_nI>
0

>  <a_nN>
0

>  <a_nO>
4

>  <a_nP>
0

>  <a_nS>
0

>  <balabanJ>
1.5033797

>  <BCUT_PEOE_0>
-2.9462776

>  <BCUT_PEOE_1>
-0.45604405

>  <BCUT_PEOE_2>
0.37335145

>  <BCUT_PEOE_3>
2.9586544

>  <BCUT_SLOGP_0>
-2.86076

>  <BCUT_SLOGP_1>
-0.36852235

>  <BCUT_SLOGP_2>
0.35696563

>  <BCUT_SLOGP_3>
3.0440176

>  <BCUT_SMR_0>
-2.6887317

>  <BCUT_SMR_1>
-0.27682263

>  <BCUT_SMR_2>
0.55524182

>  <BCUT_SMR_3>
3.2148829

>  <bpol>
39.772625

>  <b_1rotN>
3

>  <b_1rotR>
0.1

>  <b_ar>
0

>  <b_count>
62

>  <b_double>
4

>  <b_heavy>
30

>  <b_max1len>
4

>  <b_rotN>
4

>  <b_rotR>
0.13333334

>  <b_single>
58

>  <b_triple>
0

>  <chi0>
19.396976

>  <chi0v>
16.883705

>  <chi0v_C>
15.250712

>  <chi0_C>
15.68987

>  <chi1>
12.753692

>  <chi1v>
10.65465

>  <chi1v_C>
9.5494776

>  <chi1_C>
10.113392

>  <chiral>
6

>  <chiral_u>
6

>  <density>
0.70486242

>  <diameter>
14

>  <FCharge>
0

>  <GCUT_PEOE_0>
-0.80096346

>  <GCUT_PEOE_1>
-0.38622633

>  <GCUT_PEOE_2>
-0.028749138

>  <GCUT_PEOE_3>
3.33149

>  <GCUT_SLOGP_0>
-0.90106565

>  <GCUT_SLOGP_1>
-0.2888118

>  <GCUT_SLOGP_2>
-0.009259617

>  <GCUT_SLOGP_3>
3.4147093

>  <GCUT_SMR_0>
-0.53931898

>  <GCUT_SMR_1>
-0.20397197

>  <GCUT_SMR_2>
0.10730735

>  <GCUT_SMR_3>
3.55918

>  <Kier1>
20.280001

>  <Kier2>
7.3562698

>  <Kier3>
3.3361549

>  <KierA1>
17.71549

>  <KierA2>
6.3909936

>  <KierA3>
2.8866503

>  <KierFlex>
4.1933179

>  <lip_acc>
4

>  <lip_don>
0

>  <lip_druglike>
1

>  <lip_violation>
0

>  <logP(o/w)>
3.0699999

>  <logS>
-6.42377

>  <mr>
10.398788

>  <mutagenic>
0

>  <nmol>
1

>  <opr_brigid>
20

>  <opr_leadlike>
1

>  <opr_nring>
4

>  <opr_nrot>
3

>  <opr_violation>
0

>  <PC+>
0

>  <PC->
0

>  <PEOE_PC+>
1.7747314

>  <PEOE_PC->
-1.7747314

>  <PEOE_RPC+>
0.14617947

>  <PEOE_RPC->
0.17340787

>  <PEOE_VSA+0>
151.14519

>  <PEOE_VSA+1>
12.796158

>  <PEOE_VSA+2>
14.951293

>  <PEOE_VSA+3>
16.917038

>  <PEOE_VSA+4>
0

>  <PEOE_VSA+5>
14.708499

>  <PEOE_VSA+6>
0

>  <PEOE_VSA-0>
73.164093

>  <PEOE_VSA-1>
39.703896

>  <PEOE_VSA-2>
0

>  <PEOE_VSA-3>
0

>  <PEOE_VSA-4>
0

>  <PEOE_VSA-5>
40.700764

>  <PEOE_VSA-6>
2.503756

>  <PEOE_VSA_FHYD>
0.84202266

>  <PEOE_VSA_FNEG>
0.42574051

>  <PEOE_VSA_FPNEG>
0.11785493

>  <PEOE_VSA_FPOL>
0.15797733

>  <PEOE_VSA_FPOS>
0.57425946

>  <PEOE_VSA_FPPOS>
0.040122405

>  <PEOE_VSA_HYD>
308.67767

>  <PEOE_VSA_NEG>
156.07251

>  <PEOE_VSA_PNEG>
43.204517

>  <PEOE_VSA_POL>
57.913017

>  <PEOE_VSA_POS>
210.51817

>  <PEOE_VSA_PPOS>
14.708499

>  <petitjean>
0.5

>  <petitjeanSC>
1

>  <Q_PC+>
0

>  <Q_PC->
0

>  <Q_RPC+>
0

>  <Q_RPC->
0

>  <Q_VSA_FHYD>
1

>  <Q_VSA_FNEG>
0

>  <Q_VSA_FPNEG>
0

>  <Q_VSA_FPOL>
0

>  <Q_VSA_FPOS>
1

>  <Q_VSA_FPPOS>
0

>  <Q_VSA_HYD>
366.5907

>  <Q_VSA_NEG>
0

>  <Q_VSA_PNEG>
0

>  <Q_VSA_POL>
0

>  <Q_VSA_POS>
366.5907

>  <Q_VSA_PPOS>
0

>  <radius>
7

>  <reactive>
1

>  <rings>
4

>  <RPC+>
0

>  <RPC->
0

>  <rsynth>
1

>  <SlogP>
4.2666998

>  <SlogP_VSA0>
0

>  <SlogP_VSA1>
19.120686

>  <SlogP_VSA2>
82.58654

>  <SlogP_VSA3>
20.926258

>  <SlogP_VSA4>
17.643185

>  <SlogP_VSA5>
3.185575

>  <SlogP_VSA6>
0

>  <SlogP_VSA7>
17.643185

>  <SlogP_VSA8>
150.94725

>  <SlogP_VSA9>
99.978043

>  <SMR>
10.184

>  <SMR_VSA0>
82.58654

>  <SMR_VSA1>
0

>  <SMR_VSA2>
17.643185

>  <SMR_VSA3>
3.185575

>  <SMR_VSA4>
0

>  <SMR_VSA5>
168.59042

>  <SMR_VSA6>
40.046944

>  <SMR_VSA7>
99.978043

>  <TPSA>
60.439999

>  <VAdjEq>
0.41024774

>  <VAdjMa>
5.9068904

>  <VDistEq>
3.4454384

>  <VDistMa>
9.2066469

>  <vdw_area>
366.5907

>  <vdw_vol>
528.479

>  <vsa_acc>
40.700764

>  <vsa_acid>
0

>  <vsa_base>
0

>  <vsa_don>
0

>  <vsa_hyd>
263.60297

>  <vsa_other>
34.129295

>  <vsa_pol>
40.700764

>  <Weight>
372.505

>  <weinerPath>
1772

>  <weinerPol>
53

>  <zagreb>
154

$$$$