n1c(nc(nc1N1CC1)N1CC1)N1CC1
  MOE2013           2D

 15 18  0  0  0  0  0  0  0  0999 V2000
    0.0000    0.0000    0.0000 N   0  0  0  0  0  0  0  0  0  0  0  0
    0.0000   -1.5000    0.0000 C   0  0  0  0  0  0  0  0  0  0  0  0
   -1.2990   -2.2500    0.0000 N   0  0  0  0  0  0  0  0  0  0  0  0
   -2.5980   -1.5000    0.0000 C   0  0  0  0  0  0  0  0  0  0  0  0
   -2.5980    0.0000    0.0000 N   0  0  0  0  0  0  0  0  0  0  0  0
   -1.2990    0.7500    0.0000 C   0  0  0  0  0  0  0  0  0  0  0  0
   -1.2990    2.2500    0.0000 N   0  0  0  0  0  0  0  0  0  0  0  0
   -2.0490    3.5490    0.0000 C   0  0  0  0  0  0  0  0  0  0  0  0
   -0.5490    3.5490    0.0000 C   0  0  0  0  0  0  0  0  0  0  0  0
   -3.8970   -2.2500    0.0000 N   0  0  0  0  0  0  0  0  0  0  0  0
   -5.3970   -2.2500    0.0000 C   0  0  0  0  0  0  0  0  0  0  0  0
   -4.6470   -3.5490    0.0000 C   0  0  0  0  0  0  0  0  0  0  0  0
    1.2990   -2.2500    0.0000 N   0  0  0  0  0  0  0  0  0  0  0  0
    2.7990   -2.2500    0.0000 C   0  0  0  0  0  0  0  0  0  0  0  0
    2.0490   -3.5490    0.0000 C   0  0  0  0  0  0  0  0  0  0  0  0
  1  2  1  0  0  0  0
  1  6  2  0  0  0  0
  2  3  2  0  0  0  0
  2 13  1  0  0  0  0
  3  4  1  0  0  0  0
  4  5  2  0  0  0  0
  4 10  1  0  0  0  0
  5  6  1  0  0  0  0
  6  7  1  0  0  0  0
  7  8  1  0  0  0  0
  7  9  1  0  0  0  0
  8  9  1  0  0  0  0
 10 11  1  0  0  0  0
 10 12  1  0  0  0  0
 11 12  1  0  0  0  0
 13 14  1  0  0  0  0
 13 15  1  0  0  0  0
 14 15  1  0  0  0  0
M  END
>  <Index>
1264

>  <ID>
HT2874

>  <class>
0

>  <apol>
30.441517

>  <ast_fraglike>
0

>  <ast_fraglike_ext>
0

>  <ast_violation>
1

>  <ast_violation_ext>
1

>  <a_acc>
6

>  <a_acid>
0

>  <a_aro>
6

>  <a_base>
0

>  <a_count>
27

>  <a_don>
0

>  <a_donacc>
6

>  <a_heavy>
15

>  <a_hyd>
6

>  <a_IC>
41.323311

>  <a_ICM>
1.530493

>  <a_nB>
0

>  <a_nBr>
0

>  <a_nC>
9

>  <a_nCl>
0

>  <a_nF>
0

>  <a_nH>
12

>  <a_nI>
0

>  <a_nN>
6

>  <a_nO>
0

>  <a_nP>
0

>  <a_nS>
0

>  <balabanJ>
1.4704401

>  <BCUT_PEOE_0>
-2.1420934

>  <BCUT_PEOE_1>
-0.37921357

>  <BCUT_PEOE_2>
0.37499624

>  <BCUT_PEOE_3>
2.669111

>  <BCUT_SLOGP_0>
-2.1958041

>  <BCUT_SLOGP_1>
-0.43178469

>  <BCUT_SLOGP_2>
0.42258936

>  <BCUT_SLOGP_3>
2.553546

>  <BCUT_SMR_0>
-1.8086842

>  <BCUT_SMR_1>
-0.14406028

>  <BCUT_SMR_2>
0.52587664

>  <BCUT_SMR_3>
2.9569302

>  <bpol>
23.018484

>  <b_1rotN>
3

>  <b_1rotR>
0.16666667

>  <b_ar>
6

>  <b_count>
30

>  <b_double>
0

>  <b_heavy>
18

>  <b_max1len>
2

>  <b_rotN>
3

>  <b_rotR>
0.16666667

>  <b_single>
24

>  <b_triple>
0

>  <chi0>
9.828063

>  <chi0v>
8.4259224

>  <chi0v_C>
5.7426405

>  <chi0_C>
5.9746914

>  <chi1>
7.3989797

>  <chi1v>
5.4098277

>  <chi1v_C>
1.5

>  <chi1_C>
1.5

>  <chiral>
0

>  <chiral_u>
0

>  <density>
0.78480625

>  <diameter>
6

>  <FCharge>
0

>  <GCUT_PEOE_0>
-0.73655576

>  <GCUT_PEOE_1>
-0.42973989

>  <GCUT_PEOE_2>
0.021954335

>  <GCUT_PEOE_3>
2.2938099

>  <GCUT_SLOGP_0>
-0.90453351

>  <GCUT_SLOGP_1>
-0.49202764

>  <GCUT_SLOGP_2>
0.081625938

>  <GCUT_SLOGP_3>
2.2731051

>  <GCUT_SMR_0>
-0.44737878

>  <GCUT_SMR_1>
-0.1312626

>  <GCUT_SMR_2>
0.11965397

>  <GCUT_SMR_3>
2.5681663

>  <Kier1>
9.0740738

>  <Kier2>
3.2455418

>  <Kier3>
1.3254437

>  <KierA1>
6.6485343

>  <KierA2>
2.3198776

>  <KierA3>
0.9283002

>  <KierFlex>
1.0282524

>  <lip_acc>
6

>  <lip_don>
0

>  <lip_druglike>
1

>  <lip_violation>
0

>  <logP(o/w)>
-1.7359999

>  <logS>
-2.48417

>  <mr>
5.2098036

>  <mutagenic>
0

>  <nmol>
1

>  <opr_brigid>
15

>  <opr_leadlike>
1

>  <opr_nring>
4

>  <opr_nrot>
3

>  <opr_violation>
0

>  <PC+>
0

>  <PC->
0

>  <PEOE_PC+>
1.2800977

>  <PEOE_PC->
-1.2800977

>  <PEOE_RPC+>
0.16386901

>  <PEOE_RPC->
0.18751815

>  <PEOE_VSA+0>
130.33858

>  <PEOE_VSA+1>
0

>  <PEOE_VSA+2>
0

>  <PEOE_VSA+3>
0

>  <PEOE_VSA+4>
47.044724

>  <PEOE_VSA+5>
0

>  <PEOE_VSA+6>
0

>  <PEOE_VSA-0>
0

>  <PEOE_VSA-1>
0

>  <PEOE_VSA-2>
0

>  <PEOE_VSA-3>
17.047728

>  <PEOE_VSA-4>
0

>  <PEOE_VSA-5>
0

>  <PEOE_VSA-6>
0

>  <PEOE_VSA_FHYD>
0.758039

>  <PEOE_VSA_FNEG>
0.087680079

>  <PEOE_VSA_FPNEG>
0

>  <PEOE_VSA_FPOL>
0.24196097

>  <PEOE_VSA_FPOS>
0.9123199

>  <PEOE_VSA_FPPOS>
0.24196097

>  <PEOE_VSA_HYD>
147.38631

>  <PEOE_VSA_NEG>
17.047728

>  <PEOE_VSA_PNEG>
0

>  <PEOE_VSA_POL>
47.044724

>  <PEOE_VSA_POS>
177.3833

>  <PEOE_VSA_PPOS>
47.044724

>  <petitjean>
0.33333334

>  <petitjeanSC>
0.5

>  <Q_PC+>
0

>  <Q_PC->
0

>  <Q_RPC+>
0

>  <Q_RPC->
0

>  <Q_VSA_FHYD>
1

>  <Q_VSA_FNEG>
0

>  <Q_VSA_FPNEG>
0

>  <Q_VSA_FPOL>
0

>  <Q_VSA_FPOS>
1

>  <Q_VSA_FPPOS>
0

>  <Q_VSA_HYD>
194.43103

>  <Q_VSA_NEG>
0

>  <Q_VSA_PNEG>
0

>  <Q_VSA_POL>
0

>  <Q_VSA_POS>
194.43103

>  <Q_VSA_PPOS>
0

>  <radius>
4

>  <reactive>
1

>  <rings>
4

>  <RPC+>
0

>  <RPC->
0

>  <rsynth>
1

>  <SlogP>
-0.66839999

>  <SlogP_VSA0>
9.372942

>  <SlogP_VSA1>
50.35659

>  <SlogP_VSA2>
0

>  <SlogP_VSA3>
110.63747

>  <SlogP_VSA4>
0

>  <SlogP_VSA5>
0

>  <SlogP_VSA6>
0

>  <SlogP_VSA7>
0

>  <SlogP_VSA8>
0

>  <SlogP_VSA9>
5.6972785

>  <SMR>
5.6465998

>  <SMR_VSA0>
0

>  <SMR_VSA1>
50.35659

>  <SMR_VSA2>
9.372942

>  <SMR_VSA3>
0

>  <SMR_VSA4>
5.6972785

>  <SMR_VSA5>
0

>  <SMR_VSA6>
110.63747

>  <SMR_VSA7>
0

>  <TPSA>
47.700001

>  <VAdjEq>
0.63430953

>  <VAdjMa>
5.1699252

>  <VDistEq>
2.566695

>  <VDistMa>
7.5324116

>  <vdw_area>
194.43103

>  <vdw_vol>
260.23877

>  <vsa_acc>
17.047728

>  <vsa_acid>
0

>  <vsa_base>
0

>  <vsa_don>
0

>  <vsa_hyd>
121.79704

>  <vsa_other>
47.044724

>  <vsa_pol>
17.047728

>  <Weight>
204.237

>  <weinerPath>
351

>  <weinerPol>
21

>  <zagreb>
90

$$$$