S1c2c(N(c3c1cccc3)CCCN1CCN(CC1)C)cc(S(=O)(=O)N(C)C)cc2
  MOE2013           2D

 30 33  0  0  1  0  0  0  0  0999 V2000
    0.0000    0.0000    0.0000 S   0  0  0  0  0  0  0  0  0  0  0  0
   -0.7610   -1.2920    0.0000 C   0  0  0  0  0  0  0  0  0  0  0  0
   -0.0230   -2.5980    0.0000 C   0  0  0  0  0  0  0  0  0  0  0  0
    1.4770   -2.6110    0.0000 N   0  0  3  0  0  0  0  0  0  0  0  0
    2.2390   -1.3190    0.0000 C   0  0  0  0  0  0  0  0  0  0  0  0
    1.5000   -0.0130    0.0000 C   0  0  0  0  0  0  0  0  0  0  0  0
    2.2610    1.2790    0.0000 C   0  0  0  0  0  0  0  0  0  0  0  0
    3.7610    1.2660    0.0000 C   0  0  0  0  0  0  0  0  0  0  0  0
    4.5000   -0.0390    0.0000 C   0  0  0  0  0  0  0  0  0  0  0  0
    3.7390   -1.3320    0.0000 C   0  0  0  0  0  0  0  0  0  0  0  0
    2.2160   -3.9160    0.0000 C   0  0  0  0  0  0  0  0  0  0  0  0
    3.7160   -3.9290    0.0000 C   0  0  0  0  0  0  0  0  0  0  0  0
    4.4550   -5.2350    0.0000 C   0  0  0  0  0  0  0  0  0  0  0  0
    5.9550   -5.2480    0.0000 N   0  0  0  0  0  0  0  0  0  0  0  0
    6.6930   -6.5540    0.0000 C   0  0  0  0  0  0  0  0  0  0  0  0
    8.1930   -6.5670    0.0000 C   0  0  0  0  0  0  0  0  0  0  0  0
    8.9550   -5.2740    0.0000 N   0  0  0  0  0  0  0  0  0  0  0  0
    8.2160   -3.9690    0.0000 C   0  0  0  0  0  0  0  0  0  0  0  0
    6.7160   -3.9560    0.0000 C   0  0  0  0  0  0  0  0  0  0  0  0
   10.4550   -5.2870    0.0000 C   0  0  0  0  0  0  0  0  0  0  0  0
   -0.7840   -3.8900    0.0000 C   0  0  0  0  0  0  0  0  0  0  0  0
   -2.2840   -3.8770    0.0000 C   0  0  0  0  0  0  0  0  0  0  0  0
   -3.0450   -5.1700    0.0000 S   0  0  0  0  0  0  0  0  0  0  0  0
   -4.3370   -4.4090    0.0000 O   0  0  0  0  0  0  0  0  0  0  0  0
   -1.7520   -5.9310    0.0000 O   0  0  0  0  0  0  0  0  0  0  0  0
   -3.8060   -6.4620    0.0000 N   0  0  0  0  0  0  0  0  0  0  0  0
   -3.0680   -7.7680    0.0000 C   0  0  0  0  0  0  0  0  0  0  0  0
   -5.3060   -6.4490    0.0000 C   0  0  0  0  0  0  0  0  0  0  0  0
   -3.0220   -2.5720    0.0000 C   0  0  0  0  0  0  0  0  0  0  0  0
   -2.2610   -1.2790    0.0000 C   0  0  0  0  0  0  0  0  0  0  0  0
  1  2  1  0  0  0  0
  1  6  1  0  0  0  0
  2  3  1  0  0  0  0
  2 30  2  0  0  0  0
  3  4  1  0  0  0  0
  3 21  2  0  0  0  0
  4  5  1  0  0  0  0
  4 11  1  0  0  0  0
  5  6  1  0  0  0  0
  5 10  2  0  0  0  0
  6  7  2  0  0  0  0
  7  8  1  0  0  0  0
  8  9  2  0  0  0  0
  9 10  1  0  0  0  0
 11 12  1  0  0  0  0
 12 13  1  0  0  0  0
 13 14  1  0  0  0  0
 14 15  1  0  0  0  0
 14 19  1  0  0  0  0
 15 16  1  0  0  0  0
 16 17  1  0  0  0  0
 17 18  1  0  0  0  0
 17 20  1  0  0  0  0
 18 19  1  0  0  0  0
 21 22  1  0  0  0  0
 22 23  1  0  0  0  0
 22 29  2  0  0  0  0
 23 24  2  0  0  0  0
 23 25  2  0  0  0  0
 23 26  1  0  0  0  0
 26 27  1  0  0  0  0
 26 28  1  0  0  0  0
 29 30  1  0  0  0  0
M  END
>  <Index>
1068

>  <ID>
HT2045

>  <class>
0

>  <apol>
70.527786

>  <ast_fraglike>
0

>  <ast_fraglike_ext>
0

>  <ast_violation>
3

>  <ast_violation_ext>
4

>  <a_acc>
4

>  <a_acid>
0

>  <a_aro>
12

>  <a_base>
0

>  <a_count>
60

>  <a_don>
0

>  <a_donacc>
4

>  <a_heavy>
30

>  <a_hyd>
23

>  <a_IC>
97.09922

>  <a_ICM>
1.6183203

>  <a_nB>
0

>  <a_nBr>
0

>  <a_nC>
22

>  <a_nCl>
0

>  <a_nF>
0

>  <a_nH>
30

>  <a_nI>
0

>  <a_nN>
4

>  <a_nO>
2

>  <a_nP>
0

>  <a_nS>
2

>  <balabanJ>
1.4173572

>  <BCUT_PEOE_0>
-2.7902956

>  <BCUT_PEOE_1>
-0.42282641

>  <BCUT_PEOE_2>
0.50134885

>  <BCUT_PEOE_3>
2.680696

>  <BCUT_SLOGP_0>
-2.8981619

>  <BCUT_SLOGP_1>
-0.35505584

>  <BCUT_SLOGP_2>
0.64025271

>  <BCUT_SLOGP_3>
2.6262529

>  <BCUT_SMR_0>
-2.5038683

>  <BCUT_SMR_1>
-0.25151092

>  <BCUT_SMR_2>
0.66570765

>  <BCUT_SMR_3>
2.9590161

>  <bpol>
49.47221

>  <b_1rotN>
6

>  <b_1rotR>
0.18181819

>  <b_ar>
12

>  <b_count>
63

>  <b_double>
0

>  <b_heavy>
33

>  <b_max1len>
4

>  <b_rotN>
6

>  <b_rotR>
0.18181819

>  <b_single>
51

>  <b_triple>
0

>  <chi0>
21.302753

>  <chi0v>
19.54604

>  <chi0v_C>
14.491199

>  <chi0_C>
15.786246

>  <chi1>
14.358211

>  <chi1v>
12.636445

>  <chi1v_C>
5.5653839

>  <chi1_C>
7.1161566

>  <chiral>
0

>  <chiral_u>
0

>  <density>
0.75320023

>  <diameter>
14

>  <FCharge>
0

>  <GCUT_PEOE_0>
-0.86207819

>  <GCUT_PEOE_1>
-0.37200758

>  <GCUT_PEOE_2>
-0.030678419

>  <GCUT_PEOE_3>
2.8545263

>  <GCUT_SLOGP_0>
-0.96427751

>  <GCUT_SLOGP_1>
-0.34007731

>  <GCUT_SLOGP_2>
0.12137366

>  <GCUT_SLOGP_3>
2.9253554

>  <GCUT_SMR_0>
-0.51971859

>  <GCUT_SMR_1>
-0.13568221

>  <GCUT_SMR_2>
0.13051942

>  <GCUT_SMR_3>
3.135154

>  <Kier1>
23.168043

>  <Kier2>
9.8680553

>  <Kier3>
5.1679688

>  <KierA1>
21.480602

>  <KierA2>
9.1245956

>  <KierA3>
4.7694731

>  <KierFlex>
6.5333934

>  <lip_acc>
6

>  <lip_don>
0

>  <lip_druglike>
1

>  <lip_violation>
0

>  <logP(o/w)>
2.303

>  <logS>
-3.8001499

>  <mr>
12.394142

>  <mutagenic>
0

>  <nmol>
1

>  <opr_brigid>
22

>  <opr_leadlike>
1

>  <opr_nring>
4

>  <opr_nrot>
7

>  <opr_violation>
0

>  <PC+>
0

>  <PC->
0

>  <PEOE_PC+>
1.9106255

>  <PEOE_PC->
-1.9106255

>  <PEOE_RPC+>
0.14855281

>  <PEOE_RPC->
0.15854359

>  <PEOE_VSA+0>
221.38664

>  <PEOE_VSA+1>
42.112606

>  <PEOE_VSA+2>
0

>  <PEOE_VSA+3>
0

>  <PEOE_VSA+4>
0

>  <PEOE_VSA+5>
4.1846013

>  <PEOE_VSA+6>
0

>  <PEOE_VSA-0>
115.18209

>  <PEOE_VSA-1>
44.270424

>  <PEOE_VSA-2>
0

>  <PEOE_VSA-3>
0

>  <PEOE_VSA-4>
32.016521

>  <PEOE_VSA-5>
0

>  <PEOE_VSA-6>
0

>  <PEOE_VSA_FHYD>
0.9211567

>  <PEOE_VSA_FNEG>
0.41700497

>  <PEOE_VSA_FPNEG>
0.069729544

>  <PEOE_VSA_FPOL>
0.078843288

>  <PEOE_VSA_FPOS>
0.582995

>  <PEOE_VSA_FPPOS>
0.009113743

>  <PEOE_VSA_HYD>
422.95178

>  <PEOE_VSA_NEG>
191.46904

>  <PEOE_VSA_PNEG>
32.016521

>  <PEOE_VSA_POL>
36.201126

>  <PEOE_VSA_POS>
267.68384

>  <PEOE_VSA_PPOS>
4.1846013

>  <petitjean>
0.5

>  <petitjeanSC>
1

>  <Q_PC+>
0

>  <Q_PC->
0

>  <Q_RPC+>
0

>  <Q_RPC->
0

>  <Q_VSA_FHYD>
1

>  <Q_VSA_FNEG>
0

>  <Q_VSA_FPNEG>
0

>  <Q_VSA_FPOL>
0

>  <Q_VSA_FPOS>
1

>  <Q_VSA_FPPOS>
0

>  <Q_VSA_HYD>
459.15289

>  <Q_VSA_NEG>
0

>  <Q_VSA_PNEG>
0

>  <Q_VSA_POL>
0

>  <Q_VSA_POS>
459.15289

>  <Q_VSA_PPOS>
0

>  <radius>
7

>  <reactive>
0

>  <rings>
4

>  <RPC+>
0

>  <RPC->
0

>  <rsynth>
1

>  <SlogP>
3.1770999

>  <SlogP_VSA0>
3.1243138

>  <SlogP_VSA1>
55.938877

>  <SlogP_VSA2>
6.6407428

>  <SlogP_VSA3>
110.63747

>  <SlogP_VSA4>
0

>  <SlogP_VSA5>
103.34377

>  <SlogP_VSA6>
0

>  <SlogP_VSA7>
123.50229

>  <SlogP_VSA8>
18.868406

>  <SlogP_VSA9>
37.733036

>  <SMR>
12.34408

>  <SMR_VSA0>
48.171688

>  <SMR_VSA1>
7.7671885

>  <SMR_VSA2>
7.776516

>  <SMR_VSA3>
0

>  <SMR_VSA4>
5.513495

>  <SMR_VSA5>
142.3707

>  <SMR_VSA6>
110.63747

>  <SMR_VSA7>
137.55185

>  <TPSA>
47.099998

>  <VAdjEq>
0.37824166

>  <VAdjMa>
6.044394

>  <VDistEq>
3.5676014

>  <VDistMa>
9.5337143

>  <vdw_area>
459.15289

>  <vdw_vol>
592.98969

>  <vsa_acc>
32.016521

>  <vsa_acid>
0

>  <vsa_base>
0

>  <vsa_don>
0

>  <vsa_hyd>
395.67691

>  <vsa_other>
10.105608

>  <vsa_pol>
32.016521

>  <Weight>
446.63998

>  <weinerPath>
2491

>  <weinerPol>
52

>  <zagreb>
162

$$$$