O(CC(O)=O)c1c2c(C[C@H]3[C@H](C[C@@H](O)[C@@H]3CC[C@@H](O)CCCCC)C2)ccc1
  MOE2013           2D

 28 30  0  0  1  0  0  0  0  0999 V2000
    0.0000    0.0000    0.0000 O   0  0  0  0  0  0  0  0  0  0  0  0
   -1.5000    0.0080    0.0000 C   0  0  0  0  0  0  0  0  0  0  0  0
   -2.2570   -1.2870    0.0000 C   0  0  0  0  0  0  0  0  0  0  0  0
   -1.5140   -2.5900    0.0000 O   0  0  0  0  0  0  0  0  0  0  0  0
   -3.7570   -1.2790    0.0000 O   0  0  0  0  0  0  0  0  0  0  0  0
    0.7570    1.2950    0.0000 C   0  0  0  0  0  0  0  0  0  0  0  0
    2.2570    1.2870    0.0000 C   0  0  0  0  0  0  0  0  0  0  0  0
    3.0140    2.5820    0.0000 C   0  0  0  0  0  0  0  0  0  0  0  0
    4.5140    2.5740    0.0000 C   0  0  0  0  0  0  0  0  0  0  0  0
    5.2570    1.2700    0.0000 C   0  0  1  0  0  0  0  0  0  0  0  0
    4.5000   -0.0240    0.0000 C   0  0  2  0  0  0  0  0  0  0  0  0
    5.4980   -1.1450    0.0000 C   0  0  0  0  0  0  0  0  0  0  0  0
    6.8710   -0.5420    0.0000 C   0  0  1  0  0  0  0  0  0  0  0  0
    8.1660   -1.2990    0.0000 O   0  0  0  0  0  0  0  0  0  0  0  0
    6.7220    0.9510    0.0000 C   0  0  2  0  0  0  0  0  0  0  0  0
    7.8430    1.9480    0.0000 C   0  0  0  0  0  0  0  0  0  0  0  0
    9.2670    1.4770    0.0000 C   0  0  0  0  0  0  0  0  0  0  0  0
   10.3870    2.4750    0.0000 C   0  0  1  0  0  0  0  0  0  0  0  0
   10.0830    3.9440    0.0000 O   0  0  0  0  0  0  0  0  0  0  0  0
   11.8110    2.0030    0.0000 C   0  0  0  0  0  0  0  0  0  0  0  0
   12.9310    3.0010    0.0000 C   0  0  0  0  0  0  0  0  0  0  0  0
   14.3550    2.5300    0.0000 C   0  0  0  0  0  0  0  0  0  0  0  0
   15.4750    3.5270    0.0000 C   0  0  0  0  0  0  0  0  0  0  0  0
   16.8990    3.0560    0.0000 C   0  0  0  0  0  0  0  0  0  0  0  0
    3.0000   -0.0160    0.0000 C   0  0  0  0  0  0  0  0  0  0  0  0
    2.2710    3.8850    0.0000 C   0  0  0  0  0  0  0  0  0  0  0  0
    0.7710    3.8930    0.0000 C   0  0  0  0  0  0  0  0  0  0  0  0
    0.0140    2.5980    0.0000 C   0  0  0  0  0  0  0  0  0  0  0  0
  1  2  1  0  0  0  0
  1  6  1  0  0  0  0
  2  3  1  0  0  0  0
  3  4  1  0  0  0  0
  3  5  2  0  0  0  0
  6  7  2  0  0  0  0
  6 28  1  0  0  0  0
  7  8  1  0  0  0  0
  7 25  1  0  0  0  0
  8  9  1  0  0  0  0
  8 26  2  0  0  0  0
 10  9  1  6  0  0  0
 10 11  1  0  0  0  0
 10 15  1  0  0  0  0
 11 12  1  0  0  0  0
 11 25  1  6  0  0  0
 12 13  1  0  0  0  0
 13 14  1  6  0  0  0
 13 15  1  0  0  0  0
 15 16  1  1  0  0  0
 16 17  1  0  0  0  0
 17 18  1  0  0  0  0
 18 19  1  1  0  0  0
 18 20  1  0  0  0  0
 20 21  1  0  0  0  0
 21 22  1  0  0  0  0
 22 23  1  0  0  0  0
 23 24  1  0  0  0  0
 26 27  1  0  0  0  0
 27 28  2  0  0  0  0
M  END
>  <Index>
1101

>  <ID>
HT2103

>  <class>
0

>  <apol>
67.160965

>  <ast_fraglike>
0

>  <ast_fraglike_ext>
0

>  <ast_violation>
4

>  <ast_violation_ext>
5

>  <a_acc>
5

>  <a_acid>
0

>  <a_aro>
6

>  <a_base>
0

>  <a_count>
62

>  <a_don>
4

>  <a_donacc>
9

>  <a_heavy>
28

>  <a_hyd>
22

>  <a_IC>
80.534866

>  <a_ICM>
1.2989495

>  <a_nB>
0

>  <a_nBr>
0

>  <a_nC>
23

>  <a_nCl>
0

>  <a_nF>
0

>  <a_nH>
34

>  <a_nI>
0

>  <a_nN>
0

>  <a_nO>
5

>  <a_nP>
0

>  <a_nS>
0

>  <balabanJ>
1.5251213

>  <BCUT_PEOE_0>
-2.7581015

>  <BCUT_PEOE_1>
-0.52984005

>  <BCUT_PEOE_2>
0.56605494

>  <BCUT_PEOE_3>
2.8698504

>  <BCUT_SLOGP_0>
-2.7128744

>  <BCUT_SLOGP_1>
-0.51344597

>  <BCUT_SLOGP_2>
0.53882086

>  <BCUT_SLOGP_3>
2.9063845

>  <BCUT_SMR_0>
-2.5120654

>  <BCUT_SMR_1>
-0.38843796

>  <BCUT_SMR_2>
0.65133017

>  <BCUT_SMR_3>
3.1161647

>  <bpol>
40.043037

>  <b_1rotN>
10

>  <b_1rotR>
0.33333334

>  <b_ar>
6

>  <b_count>
64

>  <b_double>
1

>  <b_heavy>
30

>  <b_max1len>
10

>  <b_rotN>
10

>  <b_rotR>
0.33333334

>  <b_single>
57

>  <b_triple>
0

>  <chi0>
20.095648

>  <chi0v>
16.848007

>  <chi0v_C>
14.68987

>  <chi0_C>
15.38854

>  <chi1>
13.490402

>  <chi1v>
10.80645

>  <chi1v_C>
9.3695221

>  <chi1_C>
10.272753

>  <chiral>
5

>  <chiral_u>
0

>  <density>
0.70518893

>  <diameter>
17

>  <FCharge>
0

>  <GCUT_PEOE_0>
-0.80659068

>  <GCUT_PEOE_1>
-0.38599113

>  <GCUT_PEOE_2>
0.077812076

>  <GCUT_PEOE_3>
3.0601299

>  <GCUT_SLOGP_0>
-0.94311041

>  <GCUT_SLOGP_1>
-0.33030912

>  <GCUT_SLOGP_2>
0.077840574

>  <GCUT_SLOGP_3>
3.1281393

>  <GCUT_SMR_0>
-0.53918678

>  <GCUT_SMR_1>
-0.22925824

>  <GCUT_SMR_2>
0.15194418

>  <GCUT_SMR_3>
3.2903507

>  <Kier1>
22.68

>  <Kier2>
10.857822

>  <Kier3>
6.016376

>  <KierA1>
20.095673

>  <KierA2>
9.5755415

>  <KierA3>
5.2881713

>  <KierFlex>
6.8723912

>  <lip_acc>
5

>  <lip_don>
3

>  <lip_druglike>
1

>  <lip_violation>
0

>  <logP(o/w)>
4.5009999

>  <logS>
-4.6161499

>  <mr>
10.892916

>  <mutagenic>
0

>  <nmol>
1

>  <opr_brigid>
15

>  <opr_leadlike>
1

>  <opr_nring>
3

>  <opr_nrot>
10

>  <opr_violation>
0

>  <PC+>
0

>  <PC->
0

>  <PEOE_PC+>
2.3777609

>  <PEOE_PC->
-2.3777609

>  <PEOE_RPC+>
0.12031174

>  <PEOE_RPC->
0.16477104

>  <PEOE_VSA+0>
102.36926

>  <PEOE_VSA+1>
48.12608

>  <PEOE_VSA+2>
14.951293

>  <PEOE_VSA+3>
0

>  <PEOE_VSA+4>
30.972517

>  <PEOE_VSA+5>
14.708499

>  <PEOE_VSA+6>
0

>  <PEOE_VSA-0>
68.87986

>  <PEOE_VSA-1>
69.361427

>  <PEOE_VSA-2>
0

>  <PEOE_VSA-3>
0

>  <PEOE_VSA-4>
0

>  <PEOE_VSA-5>
13.566921

>  <PEOE_VSA-6>
25.806377

>  <PEOE_VSA_FHYD>
0.78120637

>  <PEOE_VSA_FNEG>
0.4568955

>  <PEOE_VSA_FPNEG>
0.10128382

>  <PEOE_VSA_FPOL>
0.2187936

>  <PEOE_VSA_FPOS>
0.54310447

>  <PEOE_VSA_FPPOS>
0.11750978

>  <PEOE_VSA_HYD>
303.68793

>  <PEOE_VSA_NEG>
177.61458

>  <PEOE_VSA_PNEG>
39.373299

>  <PEOE_VSA_POL>
85.054314

>  <PEOE_VSA_POS>
211.12766

>  <PEOE_VSA_PPOS>
45.681019

>  <petitjean>
0.47058824

>  <petitjeanSC>
0.8888889

>  <Q_PC+>
0

>  <Q_PC->
0

>  <Q_RPC+>
0

>  <Q_RPC->
0

>  <Q_VSA_FHYD>
1

>  <Q_VSA_FNEG>
0

>  <Q_VSA_FPNEG>
0

>  <Q_VSA_FPOL>
0

>  <Q_VSA_FPOS>
1

>  <Q_VSA_FPPOS>
0

>  <Q_VSA_HYD>
388.74225

>  <Q_VSA_NEG>
0

>  <Q_VSA_PNEG>
0

>  <Q_VSA_POL>
0

>  <Q_VSA_POS>
388.74225

>  <Q_VSA_PPOS>
0

>  <radius>
9

>  <reactive>
0

>  <rings>
3

>  <RPC+>
0

>  <RPC->
0

>  <rsynth>
0.14285715

>  <SlogP>
3.5831399

>  <SlogP_VSA0>
61.77034

>  <SlogP_VSA1>
7.7454643

>  <SlogP_VSA2>
36.799515

>  <SlogP_VSA3>
46.311485

>  <SlogP_VSA4>
19.603539

>  <SlogP_VSA5>
37.736813

>  <SlogP_VSA6>
0

>  <SlogP_VSA7>
52.929554

>  <SlogP_VSA8>
132.07884

>  <SlogP_VSA9>
38.569443

>  <SMR>
10.74574

>  <SMR_VSA0>
23.862217

>  <SMR_VSA1>
61.77034

>  <SMR_VSA2>
38.617615

>  <SMR_VSA3>
24.551876

>  <SMR_VSA4>
0

>  <SMR_VSA5>
222.74521

>  <SMR_VSA6>
28.671722

>  <SMR_VSA7>
33.326015

>  <TPSA>
86.989998

>  <VAdjEq>
0.38983503

>  <VAdjMa>
5.9068904

>  <VDistEq>
3.7433639

>  <VDistMa>
9.293458

>  <vdw_area>
388.74225

>  <vdw_vol>
553.78064

>  <vsa_acc>
2.503756

>  <vsa_acid>
0

>  <vsa_base>
0

>  <vsa_don>
0

>  <vsa_hyd>
277.58713

>  <vsa_other>
14.708499

>  <vsa_pol>
56.771439

>  <Weight>
390.51999

>  <weinerPath>
2278

>  <weinerPol>
42

>  <zagreb>
142

$$$$