O[C@H]1CC[C@@H]2[C@H](C[C@@H]3N(CCc4c5c([nH]c34)cccc5)C2)[C@H]1C(OC)=O
  MOE2013           2D

 26 30  0  0  1  0  0  0  0  0999 V2000
    0.0000    0.0000    0.0000 O   0  0  0  0  0  0  0  0  0  0  0  0
   -1.3040   -0.7420    0.0000 C   0  0  1  0  0  0  0  0  0  0  0  0
   -1.3130   -2.2420    0.0000 C   0  0  0  0  0  0  0  0  0  0  0  0
   -2.6170   -2.9830    0.0000 C   0  0  0  0  0  0  0  0  0  0  0  0
   -3.9110   -2.2250    0.0000 C   0  0  2  0  0  0  0  0  0  0  0  0
   -3.9020   -0.7250    0.0000 C   0  0  2  0  0  0  0  0  0  0  0  0
   -5.1960    0.0330    0.0000 C   0  0  0  0  0  0  0  0  0  0  0  0
   -6.5000   -0.7080    0.0000 C   0  0  2  0  0  0  0  0  0  0  0  0
   -6.5090   -2.2080    0.0000 N   0  0  3  0  0  0  0  0  0  0  0  0
   -7.8130   -2.9500    0.0000 C   0  0  0  0  0  0  0  0  0  0  0  0
   -9.1070   -2.1920    0.0000 C   0  0  0  0  0  0  0  0  0  0  0  0
   -9.0980   -0.6920    0.0000 C   0  0  0  0  0  0  0  0  0  0  0  0
  -10.2060    0.3190    0.0000 C   0  0  0  0  0  0  0  0  0  0  0  0
   -9.5870    1.6850    0.0000 C   0  0  0  0  0  0  0  0  0  0  0  0
   -8.0970    1.5190    0.0000 N   0  0  0  0  0  0  0  0  0  0  0  0
   -7.7940    0.0500    0.0000 C   0  0  0  0  0  0  0  0  0  0  0  0
  -10.4610    2.9050    0.0000 C   0  0  0  0  0  0  0  0  0  0  0  0
  -11.9540    2.7570    0.0000 C   0  0  0  0  0  0  0  0  0  0  0  0
  -12.5730    1.3910    0.0000 C   0  0  0  0  0  0  0  0  0  0  0  0
  -11.6990    0.1720    0.0000 C   0  0  0  0  0  0  0  0  0  0  0  0
   -5.2150   -2.9670    0.0000 C   0  0  0  0  0  0  0  0  0  0  0  0
   -2.5980    0.0170    0.0000 C   0  0  1  0  0  0  0  0  0  0  0  0
   -2.5880    1.5170    0.0000 C   0  0  0  0  0  0  0  0  0  0  0  0
   -1.2850    2.2580    0.0000 O   0  0  0  0  0  0  0  0  0  0  0  0
   -1.2750    3.7580    0.0000 C   0  0  0  0  0  0  0  0  0  0  0  0
   -3.8830    2.2750    0.0000 O   0  0  0  0  0  0  0  0  0  0  0  0
  2  1  1  1  0  0  0
  2  3  1  0  0  0  0
  2 22  1  0  0  0  0
  3  4  1  0  0  0  0
  5  4  1  1  0  0  0
  5  6  1  0  0  0  0
  5 21  1  0  0  0  0
  6  7  1  6  0  0  0
  6 22  1  0  0  0  0
  7  8  1  0  0  0  0
  8  9  1  0  0  0  0
  8 16  1  6  0  0  0
  9 10  1  0  0  0  0
  9 21  1  0  0  0  0
 10 11  1  0  0  0  0
 11 12  1  0  0  0  0
 12 13  1  0  0  0  0
 12 16  2  0  0  0  0
 13 14  2  0  0  0  0
 13 20  1  0  0  0  0
 14 15  1  0  0  0  0
 14 17  1  0  0  0  0
 15 16  1  0  0  0  0
 17 18  2  0  0  0  0
 18 19  1  0  0  0  0
 19 20  2  0  0  0  0
 22 23  1  1  0  0  0
 23 24  1  0  0  0  0
 23 26  2  0  0  0  0
 24 25  1  0  0  0  0
M  END
>  <Index>
1158

>  <ID>
HT2205

>  <class>
0

>  <apol>
58.902618

>  <ast_fraglike>
0

>  <ast_fraglike_ext>
0

>  <ast_violation>
1

>  <ast_violation_ext>
1

>  <a_acc>
3

>  <a_acid>
0

>  <a_aro>
9

>  <a_base>
0

>  <a_count>
52

>  <a_don>
2

>  <a_donacc>
5

>  <a_heavy>
26

>  <a_hyd>
20

>  <a_IC>
75.21788

>  <a_ICM>
1.4464977

>  <a_nB>
0

>  <a_nBr>
0

>  <a_nC>
21

>  <a_nCl>
0

>  <a_nF>
0

>  <a_nH>
26

>  <a_nI>
0

>  <a_nN>
2

>  <a_nO>
3

>  <a_nP>
0

>  <a_nS>
0

>  <balabanJ>
1.3763883

>  <BCUT_PEOE_0>
-2.900542

>  <BCUT_PEOE_1>
-0.52005476

>  <BCUT_PEOE_2>
0.58939964

>  <BCUT_PEOE_3>
2.8799157

>  <BCUT_SLOGP_0>
-2.8979187

>  <BCUT_SLOGP_1>
-0.4758352

>  <BCUT_SLOGP_2>
0.66262692

>  <BCUT_SLOGP_3>
2.9054041

>  <BCUT_SMR_0>
-2.6522026

>  <BCUT_SMR_1>
-0.41243073

>  <BCUT_SMR_2>
0.70354575

>  <BCUT_SMR_3>
3.1227617

>  <bpol>
33.937382

>  <b_1rotN>
1

>  <b_1rotR>
0.033333335

>  <b_ar>
10

>  <b_count>
56

>  <b_double>
1

>  <b_heavy>
30

>  <b_max1len>
3

>  <b_rotN>
2

>  <b_rotR>
0.06666667

>  <b_single>
45

>  <b_triple>
0

>  <chi0>
17.836134

>  <chi0v>
15.149717

>  <chi0v_C>
12.938793

>  <chi0_C>
13.84457

>  <chi1>
12.669035

>  <chi1v>
9.7648449

>  <chi1v_C>
7.2994952

>  <chi1_C>
8.4326534

>  <chiral>
5

>  <chiral_u>
0

>  <density>
0.72577566

>  <diameter>
11

>  <FCharge>
0

>  <GCUT_PEOE_0>
-0.85675645

>  <GCUT_PEOE_1>
-0.40498269

>  <GCUT_PEOE_2>
0.053724099

>  <GCUT_PEOE_3>
3.1116793

>  <GCUT_SLOGP_0>
-0.93084663

>  <GCUT_SLOGP_1>
-0.31433886

>  <GCUT_SLOGP_2>
0.12377951

>  <GCUT_SLOGP_3>
3.1575608

>  <GCUT_SMR_0>
-0.52872872

>  <GCUT_SMR_1>
-0.20468898

>  <GCUT_SMR_2>
0.15694253

>  <GCUT_SMR_3>
3.3538389

>  <Kier1>
18.055555

>  <Kier2>
7.1111112

>  <Kier3>
2.9512141

>  <KierA1>
15.014549

>  <KierA2>
5.867281

>  <KierA3>
2.4213955

>  <KierFlex>
3.3882532

>  <lip_acc>
5

>  <lip_don>
2

>  <lip_druglike>
1

>  <lip_violation>
0

>  <logP(o/w)>
2.6470001

>  <logS>
-2.90078

>  <mr>
9.9512625

>  <mutagenic>
0

>  <nmol>
1

>  <opr_brigid>
25

>  <opr_leadlike>
1

>  <opr_nring>
5

>  <opr_nrot>
2

>  <opr_violation>
1

>  <PC+>
0

>  <PC->
0

>  <PEOE_PC+>
2.009167

>  <PEOE_PC->
-2.009167

>  <PEOE_RPC+>
0.13327882

>  <PEOE_RPC->
0.19460852

>  <PEOE_VSA+0>
130.97073

>  <PEOE_VSA+1>
46.439362

>  <PEOE_VSA+2>
0

>  <PEOE_VSA+3>
8.6190128

>  <PEOE_VSA+4>
10.324173

>  <PEOE_VSA+5>
14.708499

>  <PEOE_VSA+6>
0

>  <PEOE_VSA-0>
49.268696

>  <PEOE_VSA-1>
36.764713

>  <PEOE_VSA-2>
0

>  <PEOE_VSA-3>
0

>  <PEOE_VSA-4>
0

>  <PEOE_VSA-5>
13.566921

>  <PEOE_VSA-6>
10.408187

>  <PEOE_VSA_FHYD>
0.84736121

>  <PEOE_VSA_FNEG>
0.34263062

>  <PEOE_VSA_FPNEG>
0.074672453

>  <PEOE_VSA_FPOL>
0.15263878

>  <PEOE_VSA_FPOS>
0.65736938

>  <PEOE_VSA_FPPOS>
0.077966325

>  <PEOE_VSA_HYD>
272.06253

>  <PEOE_VSA_NEG>
110.00851

>  <PEOE_VSA_PNEG>
23.975109

>  <PEOE_VSA_POL>
49.007782

>  <PEOE_VSA_POS>
211.06178

>  <PEOE_VSA_PPOS>
25.032671

>  <petitjean>
0.45454547

>  <petitjeanSC>
0.83333331

>  <Q_PC+>
0

>  <Q_PC->
0

>  <Q_RPC+>
0

>  <Q_RPC->
0

>  <Q_VSA_FHYD>
1

>  <Q_VSA_FNEG>
0

>  <Q_VSA_FPNEG>
0

>  <Q_VSA_FPOL>
0

>  <Q_VSA_FPOS>
1

>  <Q_VSA_FPPOS>
0

>  <Q_VSA_HYD>
321.07031

>  <Q_VSA_NEG>
0

>  <Q_VSA_PNEG>
0

>  <Q_VSA_POL>
0

>  <Q_VSA_POS>
321.07031

>  <Q_VSA_PPOS>
0

>  <radius>
6

>  <reactive>
0

>  <rings>
5

>  <RPC+>
0

>  <RPC->
0

>  <rsynth>
1

>  <SlogP>
2.7425699

>  <SlogP_VSA0>
25.385227

>  <SlogP_VSA1>
10.869778

>  <SlogP_VSA2>
58.116283

>  <SlogP_VSA3>
36.879158

>  <SlogP_VSA4>
19.174711

>  <SlogP_VSA5>
54.252274

>  <SlogP_VSA6>
0

>  <SlogP_VSA7>
75.289841

>  <SlogP_VSA8>
60.587185

>  <SlogP_VSA9>
0

>  <SMR>
9.8771496

>  <SMR_VSA0>
34.862103

>  <SMR_VSA1>
28.509541

>  <SMR_VSA2>
30.017918

>  <SMR_VSA3>
16.392941

>  <SMR_VSA4>
4.7171016

>  <SMR_VSA5>
146.04636

>  <SMR_VSA6>
44.624619

>  <SMR_VSA7>
35.383869

>  <TPSA>
65.559998

>  <VAdjEq>
0.43230852

>  <VAdjMa>
5.9068904

>  <VDistEq>
3.2401755

>  <VDistMa>
9.1282873

>  <vdw_area>
321.07031

>  <vdw_vol>
488.37402

>  <vsa_acc>
13.566921

>  <vsa_acid>
0

>  <vsa_base>
0

>  <vsa_don>
5.6825762

>  <vsa_hyd>
242.32527

>  <vsa_other>
17.212255

>  <vsa_pol>
32.816418

>  <Weight>
354.44998

>  <weinerPath>
1517

>  <weinerPol>
50

>  <zagreb>
150

$$$$