OCC(=O)CO
  MOE2013           2D

  6  5  0  0  0  0  0  0  0  0999 V2000
    0.0000    0.0000    0.0000 O   0  0  0  0  0  0  0  0  0  0  0  0
    1.2990   -0.7500    0.0000 C   0  0  0  0  0  0  0  0  0  0  0  0
    2.5980    0.0000    0.0000 C   0  0  0  0  0  0  0  0  0  0  0  0
    2.5980    1.5000    0.0000 O   0  0  0  0  0  0  0  0  0  0  0  0
    3.8970   -0.7500    0.0000 C   0  0  0  0  0  0  0  0  0  0  0  0
    5.1960    0.0000    0.0000 O   0  0  0  0  0  0  0  0  0  0  0  0
  1  2  1  0  0  0  0
  2  3  1  0  0  0  0
  3  4  2  0  0  0  0
  3  5  1  0  0  0  0
  5  6  1  0  0  0  0
M  END
>  <Index>
1193

>  <ID>
HT2378

>  <class>
0

>  <apol>
11.686758

>  <ast_fraglike>
1

>  <ast_fraglike_ext>
1

>  <ast_violation>
0

>  <ast_violation_ext>
0

>  <a_acc>
3

>  <a_acid>
0

>  <a_aro>
0

>  <a_base>
0

>  <a_count>
12

>  <a_don>
2

>  <a_donacc>
5

>  <a_heavy>
6

>  <a_hyd>
2

>  <a_IC>
18

>  <a_ICM>
1.5

>  <a_nB>
0

>  <a_nBr>
0

>  <a_nC>
3

>  <a_nCl>
0

>  <a_nF>
0

>  <a_nH>
6

>  <a_nI>
0

>  <a_nN>
0

>  <a_nO>
3

>  <a_nP>
0

>  <a_nS>
0

>  <balabanJ>
2.8371687

>  <BCUT_PEOE_0>
-2.2987442

>  <BCUT_PEOE_1>
-0.62440747

>  <BCUT_PEOE_2>
0.56086344

>  <BCUT_PEOE_3>
2.387929

>  <BCUT_SLOGP_0>
-2.5131118

>  <BCUT_SLOGP_1>
-0.69028711

>  <BCUT_SLOGP_2>
0.44291878

>  <BCUT_SLOGP_3>
2.16418

>  <BCUT_SMR_0>
-2.0793273

>  <BCUT_SMR_1>
-0.44113863

>  <BCUT_SMR_2>
0.71022695

>  <BCUT_SMR_3>
2.5997996

>  <bpol>
7.517242

>  <b_1rotN>
2

>  <b_1rotR>
0.40000001

>  <b_ar>
0

>  <b_count>
11

>  <b_double>
1

>  <b_heavy>
5

>  <b_max1len>
6

>  <b_rotN>
2

>  <b_rotR>
0.40000001

>  <b_single>
10

>  <b_triple>
0

>  <chi0>
4.9915638

>  <chi0v>
3.2168891

>  <chi0v_C>
1.9142135

>  <chi0_C>
1.9915638

>  <chi1>
2.8080604

>  <chi1v>
1.5436865

>  <chi1v_C>
0.70710677

>  <chi1_C>
0.81649661

>  <chiral>
0

>  <chiral_u>
0

>  <density>
0.85457432

>  <diameter>
4

>  <FCharge>
0

>  <GCUT_PEOE_0>
-0.77868927

>  <GCUT_PEOE_1>
-0.43609884

>  <GCUT_PEOE_2>
0.11154499

>  <GCUT_PEOE_3>
1.7788212

>  <GCUT_SLOGP_0>
-0.94241989

>  <GCUT_SLOGP_1>
-0.54891223

>  <GCUT_SLOGP_2>
-0.0053724539

>  <GCUT_SLOGP_3>
1.6033831

>  <GCUT_SMR_0>
-0.49074006

>  <GCUT_SMR_1>
-0.2566106

>  <GCUT_SMR_2>
0.22196314

>  <GCUT_SMR_3>
1.979794

>  <Kier1>
6

>  <Kier2>
3.2

>  <Kier3>
3

>  <KierA1>
5.03652

>  <KierA2>
2.57372

>  <KierA3>
2.3101876

>  <KierFlex>
2.1604321

>  <lip_acc>
3

>  <lip_don>
2

>  <lip_druglike>
1

>  <lip_violation>
0

>  <logP(o/w)>
-1.543

>  <logS>
0.48319

>  <mr>
2.025903

>  <mutagenic>
0

>  <nmol>
1

>  <opr_brigid>
0

>  <opr_leadlike>
1

>  <opr_nring>
0

>  <opr_nrot>
2

>  <opr_violation>
0

>  <PC+>
0

>  <PC->
0

>  <PEOE_PC+>
1.0674038

>  <PEOE_PC->
-1.0674038

>  <PEOE_RPC+>
0.19671005

>  <PEOE_RPC->
0.36297697

>  <PEOE_VSA+0>
0

>  <PEOE_VSA+1>
17.061544

>  <PEOE_VSA+2>
29.902586

>  <PEOE_VSA+3>
8.458519

>  <PEOE_VSA+4>
20.648346

>  <PEOE_VSA+5>
0

>  <PEOE_VSA+6>
0

>  <PEOE_VSA-0>
0

>  <PEOE_VSA-1>
0

>  <PEOE_VSA-2>
0

>  <PEOE_VSA-3>
0

>  <PEOE_VSA-4>
0

>  <PEOE_VSA-5>
13.566921

>  <PEOE_VSA-6>
15.535081

>  <PEOE_VSA_FHYD>
0.52696651

>  <PEOE_VSA_FNEG>
0.27670601

>  <PEOE_VSA_FPNEG>
0.27670601

>  <PEOE_VSA_FPOL>
0.47303346

>  <PEOE_VSA_FPOS>
0.72329396

>  <PEOE_VSA_FPPOS>
0.19632745

>  <PEOE_VSA_HYD>
55.422649

>  <PEOE_VSA_NEG>
29.102001

>  <PEOE_VSA_PNEG>
29.102001

>  <PEOE_VSA_POL>
49.750347

>  <PEOE_VSA_POS>
76.070992

>  <PEOE_VSA_PPOS>
20.648346

>  <petitjean>
0.5

>  <petitjeanSC>
1

>  <Q_PC+>
0

>  <Q_PC->
0

>  <Q_RPC+>
0

>  <Q_RPC->
0

>  <Q_VSA_FHYD>
1

>  <Q_VSA_FNEG>
0

>  <Q_VSA_FPNEG>
0

>  <Q_VSA_FPOL>
0

>  <Q_VSA_FPOS>
1

>  <Q_VSA_FPPOS>
0

>  <Q_VSA_HYD>
105.173

>  <Q_VSA_NEG>
0

>  <Q_VSA_PNEG>
0

>  <Q_VSA_POL>
0

>  <Q_VSA_POS>
105.173

>  <Q_VSA_PPOS>
0

>  <radius>
2

>  <reactive>
1

>  <rings>
0

>  <RPC+>
0

>  <RPC->
0

>  <rsynth>
1

>  <SlogP>
-1.4599

>  <SlogP_VSA0>
50.770454

>  <SlogP_VSA1>
5.6876111

>  <SlogP_VSA2>
23.862217

>  <SlogP_VSA3>
41.852516

>  <SlogP_VSA4>
0

>  <SlogP_VSA5>
0

>  <SlogP_VSA6>
0

>  <SlogP_VSA7>
0

>  <SlogP_VSA8>
0

>  <SlogP_VSA9>
0

>  <SMR>
1.91786

>  <SMR_VSA0>
23.862217

>  <SMR_VSA1>
50.770454

>  <SMR_VSA2>
0

>  <SMR_VSA3>
0

>  <SMR_VSA4>
0

>  <SMR_VSA5>
0

>  <SMR_VSA6>
47.540127

>  <SMR_VSA7>
0

>  <TPSA>
57.529999

>  <VAdjEq>
0.85240519

>  <VAdjMa>
3.321928

>  <VDistEq>
1.8256052

>  <VDistMa>
4.7600174

>  <vdw_area>
105.173

>  <vdw_vol>
105.40686

>  <vsa_acc>
13.566921

>  <vsa_acid>
0

>  <vsa_base>
0

>  <vsa_don>
0

>  <vsa_hyd>
44.116947

>  <vsa_other>
8.458519

>  <vsa_pol>
40.700764

>  <Weight>
90.077995

>  <weinerPath>
31

>  <weinerPol>
4

>  <zagreb>
20

$$$$