O(C(=O)c1ccc(N)cc1)CC
  MOE2013           2D

 12 12  0  0  0  0  0  0  0  0999 V2000
    0.0000    0.0000    0.0000 O   0  0  0  0  0  0  0  0  0  0  0  0
    0.7390    1.3050    0.0000 C   0  0  0  0  0  0  0  0  0  0  0  0
   -0.0220    2.5980    0.0000 O   0  0  0  0  0  0  0  0  0  0  0  0
    2.2390    1.3180    0.0000 C   0  0  0  0  0  0  0  0  0  0  0  0
    2.9780    2.6230    0.0000 C   0  0  0  0  0  0  0  0  0  0  0  0
    4.4780    2.6350    0.0000 C   0  0  0  0  0  0  0  0  0  0  0  0
    5.2390    1.3430    0.0000 C   0  0  0  0  0  0  0  0  0  0  0  0
    6.7390    1.3550    0.0000 N   0  0  0  0  0  0  0  0  0  0  0  0
    4.5000    0.0370    0.0000 C   0  0  0  0  0  0  0  0  0  0  0  0
    3.0000    0.0250    0.0000 C   0  0  0  0  0  0  0  0  0  0  0  0
   -1.5000   -0.0120    0.0000 C   0  0  0  0  0  0  0  0  0  0  0  0
   -2.2390   -1.3180    0.0000 C   0  0  0  0  0  0  0  0  0  0  0  0
  1  2  1  0  0  0  0
  1 11  1  0  0  0  0
  2  3  2  0  0  0  0
  2  4  1  0  0  0  0
  4  5  1  0  0  0  0
  4 10  2  0  0  0  0
  5  6  2  0  0  0  0
  6  7  1  0  0  0  0
  7  8  1  0  0  0  0
  7  9  2  0  0  0  0
  9 10  1  0  0  0  0
 11 12  1  0  0  0  0
M  END
>  <Index>
122

>  <ID>
HT0248

>  <class>
0

>  <apol>
25.878723

>  <ast_fraglike>
1

>  <ast_fraglike_ext>
1

>  <ast_violation>
0

>  <ast_violation_ext>
0

>  <a_acc>
1

>  <a_acid>
0

>  <a_aro>
6

>  <a_base>
0

>  <a_count>
23

>  <a_don>
1

>  <a_donacc>
2

>  <a_heavy>
12

>  <a_hyd>
8

>  <a_IC>
35.458851

>  <a_ICM>
1.5416893

>  <a_nB>
0

>  <a_nBr>
0

>  <a_nC>
9

>  <a_nCl>
0

>  <a_nF>
0

>  <a_nH>
11

>  <a_nI>
0

>  <a_nN>
1

>  <a_nO>
2

>  <a_nP>
0

>  <a_nS>
0

>  <balabanJ>
2.2673137

>  <BCUT_PEOE_0>
-2.3722854

>  <BCUT_PEOE_1>
-0.50519687

>  <BCUT_PEOE_2>
0.50948757

>  <BCUT_PEOE_3>
2.3639879

>  <BCUT_SLOGP_0>
-2.389951

>  <BCUT_SLOGP_1>
-0.34326074

>  <BCUT_SLOGP_2>
0.62299097

>  <BCUT_SLOGP_3>
2.3764408

>  <BCUT_SMR_0>
-2.1445439

>  <BCUT_SMR_1>
-0.314785

>  <BCUT_SMR_2>
0.63990867

>  <BCUT_SMR_3>
2.602216

>  <bpol>
14.239277

>  <b_1rotN>
2

>  <b_1rotR>
0.16666667

>  <b_ar>
6

>  <b_count>
23

>  <b_double>
1

>  <b_heavy>
12

>  <b_max1len>
3

>  <b_rotN>
3

>  <b_rotR>
0.25

>  <b_single>
16

>  <b_triple>
0

>  <chi0>
8.9746914

>  <chi0v>
6.9103546

>  <chi0v_C>
5.5165076

>  <chi0_C>
6.2675848

>  <chi1>
5.736382

>  <chi1v>
3.7640727

>  <chi1v_C>
2.7784741

>  <chi1_C>
3.6734333

>  <chiral>
0

>  <chiral_u>
0

>  <density>
0.72240645

>  <diameter>
8

>  <FCharge>
0

>  <GCUT_PEOE_0>
-0.81295204

>  <GCUT_PEOE_1>
-0.38202181

>  <GCUT_PEOE_2>
0.042693961

>  <GCUT_PEOE_3>
2.1298099

>  <GCUT_SLOGP_0>
-1.3342739

>  <GCUT_SLOGP_1>
-0.23838578

>  <GCUT_SLOGP_2>
0.12770256

>  <GCUT_SLOGP_3>
2.2183263

>  <GCUT_SMR_0>
-0.51356655

>  <GCUT_SMR_1>
-0.18519329

>  <GCUT_SMR_2>
0.12920143

>  <GCUT_SMR_3>
2.4126401

>  <Kier1>
10.083333

>  <Kier2>
4.8888888

>  <Kier3>
3.1141868

>  <KierA1>
7.0966797

>  <KierA2>
3.3177083

>  <KierA3>
2.0531466

>  <KierFlex>
1.9620595

>  <lip_acc>
3

>  <lip_don>
2

>  <lip_druglike>
1

>  <lip_violation>
0

>  <logP(o/w)>
1.516

>  <logS>
-1.8147

>  <mr>
4.7175989

>  <mutagenic>
1

>  <nmol>
1

>  <opr_brigid>
6

>  <opr_leadlike>
1

>  <opr_nring>
1

>  <opr_nrot>
2

>  <opr_violation>
0

>  <PC+>
0

>  <PC->
0

>  <PEOE_PC+>
1.0957258

>  <PEOE_PC->
-1.0957258

>  <PEOE_RPC+>
0.26813489

>  <PEOE_RPC->
0.28447548

>  <PEOE_VSA+0>
21.704248

>  <PEOE_VSA+1>
40.54361

>  <PEOE_VSA+2>
17.238026

>  <PEOE_VSA+3>
0

>  <PEOE_VSA+4>
0

>  <PEOE_VSA+5>
14.708499

>  <PEOE_VSA+6>
0

>  <PEOE_VSA-0>
67.767296

>  <PEOE_VSA-1>
0

>  <PEOE_VSA-2>
0

>  <PEOE_VSA-3>
0

>  <PEOE_VSA-4>
0

>  <PEOE_VSA-5>
13.566921

>  <PEOE_VSA-6>
9.1548758

>  <PEOE_VSA_FHYD>
0.79732734

>  <PEOE_VSA_FNEG>
0.48996854

>  <PEOE_VSA_FPNEG>
0.12303102

>  <PEOE_VSA_FPOL>
0.20267269

>  <PEOE_VSA_FPOS>
0.51003146

>  <PEOE_VSA_FPPOS>
0.079641663

>  <PEOE_VSA_HYD>
147.25317

>  <PEOE_VSA_NEG>
90.48909

>  <PEOE_VSA_PNEG>
22.721796

>  <PEOE_VSA_POL>
37.430294

>  <PEOE_VSA_POS>
94.194382

>  <PEOE_VSA_PPOS>
14.708499

>  <petitjean>
0.5

>  <petitjeanSC>
1

>  <Q_PC+>
0

>  <Q_PC->
0

>  <Q_RPC+>
0

>  <Q_RPC->
0

>  <Q_VSA_FHYD>
1

>  <Q_VSA_FNEG>
0

>  <Q_VSA_FPNEG>
0

>  <Q_VSA_FPOL>
0

>  <Q_VSA_FPOS>
1

>  <Q_VSA_FPPOS>
0

>  <Q_VSA_HYD>
184.68347

>  <Q_VSA_NEG>
0

>  <Q_VSA_PNEG>
0

>  <Q_VSA_POL>
0

>  <Q_VSA_POS>
184.68347

>  <Q_VSA_PPOS>
0

>  <radius>
4

>  <reactive>
0

>  <rings>
1

>  <RPC+>
0

>  <RPC->
0

>  <rsynth>
1

>  <SlogP>
1.4455

>  <SlogP_VSA0>
32.897186

>  <SlogP_VSA1>
7.7454643

>  <SlogP_VSA2>
10.999887

>  <SlogP_VSA3>
20.926258

>  <SlogP_VSA4>
27.047791

>  <SlogP_VSA5>
0

>  <SlogP_VSA6>
0

>  <SlogP_VSA7>
70.572739

>  <SlogP_VSA8>
0

>  <SlogP_VSA9>
36.082764

>  <SMR>
4.6810899

>  <SMR_VSA0>
34.862103

>  <SMR_VSA1>
0

>  <SMR_VSA2>
0

>  <SMR_VSA3>
3.185575

>  <SMR_VSA4>
2.7567475

>  <SMR_VSA5>
103.46992

>  <SMR_VSA6>
28.671722

>  <SMR_VSA7>
33.326015

>  <TPSA>
52.32

>  <VAdjEq>
0.65002245

>  <VAdjMa>
4.5849624

>  <VDistEq>
2.6897535

>  <VDistMa>
6.831584

>  <vdw_area>
184.68347

>  <vdw_vol>
228.66904

>  <vsa_acc>
13.566921

>  <vsa_acid>
0

>  <vsa_base>
0

>  <vsa_don>
17.742489

>  <vsa_hyd>
123.60899

>  <vsa_other>
17.212255

>  <vsa_pol>
31.30941

>  <Weight>
165.192

>  <weinerPath>
211

>  <weinerPol>
14

>  <zagreb>
54

$$$$