O=C1N(CCCCN2CCN(CC2)c2ncccn2)C(=O)CC2(C1)CCCC2
  MOE2013           2D

 28 31  0  0  0  0  0  0  0  0999 V2000
    0.0000    0.0000    0.0000 O   0  0  0  0  0  0  0  0  0  0  0  0
   -0.7590   -1.2940    0.0000 C   0  0  0  0  0  0  0  0  0  0  0  0
   -0.0170   -2.5980    0.0000 N   0  0  0  0  0  0  0  0  0  0  0  0
    1.4830   -2.6080    0.0000 C   0  0  0  0  0  0  0  0  0  0  0  0
    2.2410   -1.3140    0.0000 C   0  0  0  0  0  0  0  0  0  0  0  0
    3.7410   -1.3240    0.0000 C   0  0  0  0  0  0  0  0  0  0  0  0
    4.5000   -0.0300    0.0000 C   0  0  0  0  0  0  0  0  0  0  0  0
    6.0000   -0.0400    0.0000 N   0  0  0  0  0  0  0  0  0  0  0  0
    6.7580    1.2540    0.0000 C   0  0  0  0  0  0  0  0  0  0  0  0
    8.2580    1.2450    0.0000 C   0  0  0  0  0  0  0  0  0  0  0  0
    9.0000   -0.0590    0.0000 N   0  0  0  0  0  0  0  0  0  0  0  0
    8.2410   -1.3530    0.0000 C   0  0  0  0  0  0  0  0  0  0  0  0
    6.7410   -1.3440    0.0000 C   0  0  0  0  0  0  0  0  0  0  0  0
   10.5000   -0.0690    0.0000 C   0  0  0  0  0  0  0  0  0  0  0  0
   11.2580    1.2250    0.0000 N   0  0  0  0  0  0  0  0  0  0  0  0
   12.7580    1.2150    0.0000 C   0  0  0  0  0  0  0  0  0  0  0  0
   13.5000   -0.0890    0.0000 C   0  0  0  0  0  0  0  0  0  0  0  0
   12.7410   -1.3830    0.0000 C   0  0  0  0  0  0  0  0  0  0  0  0
   11.2410   -1.3730    0.0000 N   0  0  0  0  0  0  0  0  0  0  0  0
   -0.7760   -3.8920    0.0000 C   0  0  0  0  0  0  0  0  0  0  0  0
   -0.0340   -5.1960    0.0000 O   0  0  0  0  0  0  0  0  0  0  0  0
   -2.2760   -3.8820    0.0000 C   0  0  0  0  0  0  0  0  0  0  0  0
   -3.0170   -2.5780    0.0000 C   0  0  0  0  0  0  0  0  0  0  0  0
   -2.2590   -1.2840    0.0000 C   0  0  0  0  0  0  0  0  0  0  0  0
   -3.9070   -3.7860    0.0000 C   0  0  0  0  0  0  0  0  0  0  0  0
   -5.3300   -3.3130    0.0000 C   0  0  0  0  0  0  0  0  0  0  0  0
   -5.3200   -1.8130    0.0000 C   0  0  0  0  0  0  0  0  0  0  0  0
   -3.8910   -1.3590    0.0000 C   0  0  0  0  0  0  0  0  0  0  0  0
  1  2  2  0  0  0  0
  2  3  1  0  0  0  0
  2 24  1  0  0  0  0
  3  4  1  0  0  0  0
  3 20  1  0  0  0  0
  4  5  1  0  0  0  0
  5  6  1  0  0  0  0
  6  7  1  0  0  0  0
  7  8  1  0  0  0  0
  8  9  1  0  0  0  0
  8 13  1  0  0  0  0
  9 10  1  0  0  0  0
 10 11  1  0  0  0  0
 11 12  1  0  0  0  0
 11 14  1  0  0  0  0
 12 13  1  0  0  0  0
 14 15  1  0  0  0  0
 14 19  2  0  0  0  0
 15 16  2  0  0  0  0
 16 17  1  0  0  0  0
 17 18  2  0  0  0  0
 18 19  1  0  0  0  0
 20 21  2  0  0  0  0
 20 22  1  0  0  0  0
 22 23  1  0  0  0  0
 23 24  1  0  0  0  0
 23 25  1  0  0  0  0
 23 28  1  0  0  0  0
 25 26  1  0  0  0  0
 26 27  1  0  0  0  0
 27 28  1  0  0  0  0
M  END
>  <Index>
166

>  <ID>
HT0331

>  <class>
0

>  <apol>
64.734581

>  <ast_fraglike>
0

>  <ast_fraglike_ext>
0

>  <ast_violation>
2

>  <ast_violation_ext>
3

>  <a_acc>
5

>  <a_acid>
0

>  <a_aro>
6

>  <a_base>
0

>  <a_count>
59

>  <a_don>
0

>  <a_donacc>
5

>  <a_heavy>
28

>  <a_hyd>
18

>  <a_IC>
87.647545

>  <a_ICM>
1.4855517

>  <a_nB>
0

>  <a_nBr>
0

>  <a_nC>
21

>  <a_nCl>
0

>  <a_nF>
0

>  <a_nH>
31

>  <a_nI>
0

>  <a_nN>
5

>  <a_nO>
2

>  <a_nP>
0

>  <a_nS>
0

>  <balabanJ>
1.1176509

>  <BCUT_PEOE_0>
-2.7742126

>  <BCUT_PEOE_1>
-0.43833649

>  <BCUT_PEOE_2>
0.38103488

>  <BCUT_PEOE_3>
2.8410897

>  <BCUT_SLOGP_0>
-2.8852994

>  <BCUT_SLOGP_1>
-0.36780083

>  <BCUT_SLOGP_2>
0.32534736

>  <BCUT_SLOGP_3>
2.9375358

>  <BCUT_SMR_0>
-2.4986317

>  <BCUT_SMR_1>
-0.25825799

>  <BCUT_SMR_2>
0.57027799

>  <BCUT_SMR_3>
3.0888824

>  <bpol>
44.385418

>  <b_1rotN>
6

>  <b_1rotR>
0.19354838

>  <b_ar>
6

>  <b_count>
62

>  <b_double>
2

>  <b_heavy>
31

>  <b_max1len>
5

>  <b_rotN>
6

>  <b_rotR>
0.19354838

>  <b_single>
54

>  <b_triple>
0

>  <chi0>
19.39913

>  <chi0v>
16.684111

>  <chi0v_C>
13.631546

>  <chi0_C>
14.252866

>  <chi1>
13.651397

>  <chi1v>
10.728034

>  <chi1v_C>
6.7879872

>  <chi1_C>
7.23071

>  <chiral>
0

>  <chiral_u>
0

>  <density>
0.71339202

>  <diameter>
17

>  <FCharge>
0

>  <GCUT_PEOE_0>
-0.85328561

>  <GCUT_PEOE_1>
-0.38751704

>  <GCUT_PEOE_2>
0.0085875141

>  <GCUT_PEOE_3>
2.9109178

>  <GCUT_SLOGP_0>
-0.98715532

>  <GCUT_SLOGP_1>
-0.34157282

>  <GCUT_SLOGP_2>
-0.019235374

>  <GCUT_SLOGP_3>
2.9300461

>  <GCUT_SMR_0>
-0.53717124

>  <GCUT_SMR_1>
-0.16732121

>  <GCUT_SMR_2>
0.097608075

>  <GCUT_SMR_3>
3.1407695

>  <Kier1>
21.240376

>  <Kier2>
9.8712816

>  <Kier3>
5.3890305

>  <KierA1>
17.313265

>  <KierA2>
7.9816809

>  <KierA3>
4.332541

>  <KierFlex>
4.9353199

>  <lip_acc>
7

>  <lip_don>
0

>  <lip_druglike>
1

>  <lip_violation>
0

>  <logP(o/w)>
0.80900002

>  <logS>
-3.7943399

>  <mr>
10.819448

>  <mutagenic>
0

>  <nmol>
1

>  <opr_brigid>
23

>  <opr_leadlike>
1

>  <opr_nring>
4

>  <opr_nrot>
9

>  <opr_violation>
0

>  <PC+>
0

>  <PC->
0

>  <PEOE_PC+>
2.1283274

>  <PEOE_PC->
-2.1283274

>  <PEOE_RPC+>
0.10824302

>  <PEOE_RPC->
0.14089759

>  <PEOE_VSA+0>
236.2869

>  <PEOE_VSA+1>
12.796158

>  <PEOE_VSA+2>
0

>  <PEOE_VSA+3>
0

>  <PEOE_VSA+4>
41.580635

>  <PEOE_VSA+5>
0

>  <PEOE_VSA+6>
0

>  <PEOE_VSA-0>
60.252483

>  <PEOE_VSA-1>
17.402626

>  <PEOE_VSA-2>
0

>  <PEOE_VSA-3>
0

>  <PEOE_VSA-4>
11.365152

>  <PEOE_VSA-5>
27.133842

>  <PEOE_VSA-6>
0

>  <PEOE_VSA_FHYD>
0.80315602

>  <PEOE_VSA_FNEG>
0.28551874

>  <PEOE_VSA_FPNEG>
0.094634488

>  <PEOE_VSA_FPOL>
0.19684398

>  <PEOE_VSA_FPOS>
0.71448123

>  <PEOE_VSA_FPPOS>
0.10220949

>  <PEOE_VSA_HYD>
326.73816

>  <PEOE_VSA_NEG>
116.1541

>  <PEOE_VSA_PNEG>
38.498993

>  <PEOE_VSA_POL>
80.079628

>  <PEOE_VSA_POS>
290.6637

>  <PEOE_VSA_PPOS>
41.580635

>  <petitjean>
0.47058824

>  <petitjeanSC>
0.8888889

>  <Q_PC+>
0

>  <Q_PC->
0

>  <Q_RPC+>
0

>  <Q_RPC->
0

>  <Q_VSA_FHYD>
1

>  <Q_VSA_FNEG>
0

>  <Q_VSA_FPNEG>
0

>  <Q_VSA_FPOL>
0

>  <Q_VSA_FPOS>
1

>  <Q_VSA_FPPOS>
0

>  <Q_VSA_HYD>
406.81778

>  <Q_VSA_NEG>
0

>  <Q_VSA_PNEG>
0

>  <Q_VSA_POL>
0

>  <Q_VSA_POS>
406.81778

>  <Q_VSA_PPOS>
0

>  <radius>
9

>  <reactive>
0

>  <rings>
4

>  <RPC+>
0

>  <RPC->
0

>  <rsynth>
1

>  <SlogP>
2.0882001

>  <SlogP_VSA0>
3.1243138

>  <SlogP_VSA1>
50.337254

>  <SlogP_VSA2>
47.724434

>  <SlogP_VSA3>
110.63747

>  <SlogP_VSA4>
0

>  <SlogP_VSA5>
0

>  <SlogP_VSA6>
0

>  <SlogP_VSA7>
52.071899

>  <SlogP_VSA8>
150.94725

>  <SlogP_VSA9>
1.8990928

>  <SMR>
10.6774

>  <SMR_VSA0>
47.724434

>  <SMR_VSA1>
39.819687

>  <SMR_VSA2>
3.1243138

>  <SMR_VSA3>
0

>  <SMR_VSA4>
1.8990928

>  <SMR_VSA5>
203.01913

>  <SMR_VSA6>
121.15504

>  <SMR_VSA7>
0

>  <TPSA>
69.639999

>  <VAdjEq>
0.39893496

>  <VAdjMa>
5.9541965

>  <VDistEq>
3.878947

>  <VDistMa>
9.2587519

>  <vdw_area>
406.81778

>  <vdw_vol>
540.39294

>  <vsa_acc>
38.498993

>  <vsa_acid>
0

>  <vsa_base>
0

>  <vsa_don>
0

>  <vsa_hyd>
304.67249

>  <vsa_other>
41.580635

>  <vsa_pol>
38.498993

>  <Weight>
385.51199

>  <weinerPath>
2514

>  <weinerPol>
42

>  <zagreb>
148

$$$$