O(C(=O)C)c1ccc(cc1)C1(c2c(NC1=O)cccc2)c1ccc(OC(=O)C)cc1
  MOE2013           2D

 30 33  0  0  0  0  0  0  0  0999 V2000
    0.0000    0.0000    0.0000 O   0  0  0  0  0  0  0  0  0  0  0  0
    1.3020    0.7450    0.0000 C   0  0  0  0  0  0  0  0  0  0  0  0
    2.5980   -0.0100    0.0000 O   0  0  0  0  0  0  0  0  0  0  0  0
    1.3070    2.2450    0.0000 C   0  0  0  0  0  0  0  0  0  0  0  0
   -1.2960    0.7550    0.0000 C   0  0  0  0  0  0  0  0  0  0  0  0
   -1.2910    2.2550    0.0000 C   0  0  0  0  0  0  0  0  0  0  0  0
   -2.5870    3.0100    0.0000 C   0  0  0  0  0  0  0  0  0  0  0  0
   -3.8890    2.2640    0.0000 C   0  0  0  0  0  0  0  0  0  0  0  0
   -3.8940    0.7640    0.0000 C   0  0  0  0  0  0  0  0  0  0  0  0
   -2.5980    0.0100    0.0000 C   0  0  0  0  0  0  0  0  0  0  0  0
   -5.1850    3.0190    0.0000 C   0  0  0  0  0  0  0  0  0  0  0  0
   -6.6010    3.5130    0.0000 C   0  0  0  0  0  0  0  0  0  0  0  0
   -6.5700    5.0120    0.0000 C   0  0  0  0  0  0  0  0  0  0  0  0
   -5.1340    5.4460    0.0000 N   0  0  0  0  0  0  0  0  0  0  0  0
   -4.2780    4.2140    0.0000 C   0  0  0  0  0  0  0  0  0  0  0  0
   -2.7780    4.1820    0.0000 O   0  0  0  0  0  0  0  0  0  0  0  0
   -7.8530    5.7900    0.0000 C   0  0  0  0  0  0  0  0  0  0  0  0
   -9.1670    5.0670    0.0000 C   0  0  0  0  0  0  0  0  0  0  0  0
   -9.1990    3.5680    0.0000 C   0  0  0  0  0  0  0  0  0  0  0  0
   -7.9160    2.7900    0.0000 C   0  0  0  0  0  0  0  0  0  0  0  0
   -5.9850    1.7500    0.0000 C   0  0  0  0  0  0  0  0  0  0  0  0
   -7.4830    1.8080    0.0000 C   0  0  0  0  0  0  0  0  0  0  0  0
   -8.2830    0.5390    0.0000 C   0  0  0  0  0  0  0  0  0  0  0  0
   -7.5840   -0.7880    0.0000 C   0  0  0  0  0  0  0  0  0  0  0  0
   -8.3830   -2.0570    0.0000 O   0  0  0  0  0  0  0  0  0  0  0  0
   -9.8820   -1.9990    0.0000 C   0  0  0  0  0  0  0  0  0  0  0  0
  -10.5820   -0.6720    0.0000 O   0  0  0  0  0  0  0  0  0  0  0  0
  -10.6820   -3.2690    0.0000 C   0  0  0  0  0  0  0  0  0  0  0  0
   -6.0850   -0.8460    0.0000 C   0  0  0  0  0  0  0  0  0  0  0  0
   -5.2850    0.4230    0.0000 C   0  0  0  0  0  0  0  0  0  0  0  0
  1  2  1  0  0  0  0
  1  5  1  0  0  0  0
  2  3  2  0  0  0  0
  2  4  1  0  0  0  0
  5  6  1  0  0  0  0
  5 10  2  0  0  0  0
  6  7  2  0  0  0  0
  7  8  1  0  0  0  0
  8  9  2  0  0  0  0
  8 11  1  0  0  0  0
  9 10  1  0  0  0  0
 11 12  1  0  0  0  0
 11 15  1  0  0  0  0
 11 21  1  0  0  0  0
 12 13  1  0  0  0  0
 12 20  2  0  0  0  0
 13 14  1  0  0  0  0
 13 17  2  0  0  0  0
 14 15  1  0  0  0  0
 15 16  2  0  0  0  0
 17 18  1  0  0  0  0
 18 19  2  0  0  0  0
 19 20  1  0  0  0  0
 21 22  1  0  0  0  0
 21 30  2  0  0  0  0
 22 23  2  0  0  0  0
 23 24  1  0  0  0  0
 24 25  1  0  0  0  0
 24 29  2  0  0  0  0
 25 26  1  0  0  0  0
 26 27  2  0  0  0  0
 26 28  1  0  0  0  0
 29 30  1  0  0  0  0
M  END
>  <Index>
1373

>  <ID>
HT3760

>  <class>
0

>  <apol>
60.019066

>  <ast_fraglike>
0

>  <ast_fraglike_ext>
0

>  <ast_violation>
2

>  <ast_violation_ext>
3

>  <a_acc>
3

>  <a_acid>
0

>  <a_aro>
18

>  <a_base>
0

>  <a_count>
49

>  <a_don>
1

>  <a_donacc>
4

>  <a_heavy>
30

>  <a_hyd>
21

>  <a_IC>
72.761421

>  <a_ICM>
1.4849269

>  <a_nB>
0

>  <a_nBr>
0

>  <a_nC>
24

>  <a_nCl>
0

>  <a_nF>
0

>  <a_nH>
19

>  <a_nI>
0

>  <a_nN>
1

>  <a_nO>
5

>  <a_nP>
0

>  <a_nS>
0

>  <balabanJ>
1.5325657

>  <BCUT_PEOE_0>
-2.3904574

>  <BCUT_PEOE_1>
-0.64264232

>  <BCUT_PEOE_2>
0.70325613

>  <BCUT_PEOE_3>
2.5527005

>  <BCUT_SLOGP_0>
-2.4352641

>  <BCUT_SLOGP_1>
-0.53807992

>  <BCUT_SLOGP_2>
0.80591482

>  <BCUT_SLOGP_3>
2.5677536

>  <BCUT_SMR_0>
-2.1017292

>  <BCUT_SMR_1>
-0.49986199

>  <BCUT_SMR_2>
0.85431087

>  <BCUT_SMR_3>
2.8523989

>  <bpol>
28.136932

>  <b_1rotN>
4

>  <b_1rotR>
0.12121212

>  <b_ar>
18

>  <b_count>
52

>  <b_double>
3

>  <b_heavy>
33

>  <b_max1len>
2

>  <b_rotN>
6

>  <b_rotR>
0.18181819

>  <b_single>
31

>  <b_triple>
0

>  <chi0>
21.302753

>  <chi0v>
16.469444

>  <chi0v_C>
13.928204

>  <chi0_C>
16.181435

>  <chi1>
14.406758

>  <chi1v>
9.3989534

>  <chi1v_C>
7.4700847

>  <chi1_C>
10.225217

>  <chiral>
0

>  <chiral_u>
0

>  <density>
0.75363415

>  <diameter>
14

>  <FCharge>
0

>  <GCUT_PEOE_0>
-0.81459594

>  <GCUT_PEOE_1>
-0.47259027

>  <GCUT_PEOE_2>
0.082690865

>  <GCUT_PEOE_3>
2.7568948

>  <GCUT_SLOGP_0>
-1.007772

>  <GCUT_SLOGP_1>
-0.37755647

>  <GCUT_SLOGP_2>
0.16445385

>  <GCUT_SLOGP_3>
2.8547268

>  <GCUT_SMR_0>
-0.46925873

>  <GCUT_SMR_1>
-0.21605732

>  <GCUT_SMR_2>
0.19305076

>  <GCUT_SMR_3>
3.0549061

>  <Kier1>
23.168043

>  <Kier2>
9.8680553

>  <Kier3>
4.7155271

>  <KierA1>
15.989358

>  <KierA2>
6.71591

>  <KierA3>
3.177572

>  <KierFlex>
3.5794363

>  <lip_acc>
6

>  <lip_don>
1

>  <lip_druglike>
1

>  <lip_violation>
0

>  <logP(o/w)>
4.7690001

>  <logS>
-5.7628002

>  <mr>
11.214167

>  <mutagenic>
0

>  <nmol>
1

>  <opr_brigid>
22

>  <opr_leadlike>
1

>  <opr_nring>
4

>  <opr_nrot>
4

>  <opr_violation>
0

>  <PC+>
0

>  <PC->
0

>  <PEOE_PC+>
2.2834072

>  <PEOE_PC->
-2.2834072

>  <PEOE_RPC+>
0.11561482

>  <PEOE_RPC->
0.1421411

>  <PEOE_VSA+0>
69.787224

>  <PEOE_VSA+1>
68.101669

>  <PEOE_VSA+2>
0

>  <PEOE_VSA+3>
8.6190128

>  <PEOE_VSA+4>
12.949531

>  <PEOE_VSA+5>
29.416998

>  <PEOE_VSA+6>
0

>  <PEOE_VSA-0>
67.900139

>  <PEOE_VSA-1>
85.784325

>  <PEOE_VSA-2>
0

>  <PEOE_VSA-3>
0

>  <PEOE_VSA-4>
0

>  <PEOE_VSA-5>
45.708275

>  <PEOE_VSA-6>
0.13689101

>  <PEOE_VSA_FHYD>
0.77288681

>  <PEOE_VSA_FNEG>
0.51371664

>  <PEOE_VSA_FPNEG>
0.11803472

>  <PEOE_VSA_FPOL>
0.22711322

>  <PEOE_VSA_FPOS>
0.48628336

>  <PEOE_VSA_FPPOS>
0.10907849

>  <PEOE_VSA_HYD>
300.19238

>  <PEOE_VSA_NEG>
199.52963

>  <PEOE_VSA_PNEG>
45.845165

>  <PEOE_VSA_POL>
88.211693

>  <PEOE_VSA_POS>
188.87444

>  <PEOE_VSA_PPOS>
42.366531

>  <petitjean>
0.5

>  <petitjeanSC>
1

>  <Q_PC+>
0

>  <Q_PC->
0

>  <Q_RPC+>
0

>  <Q_RPC->
0

>  <Q_VSA_FHYD>
1

>  <Q_VSA_FNEG>
0

>  <Q_VSA_FPNEG>
0

>  <Q_VSA_FPOL>
0

>  <Q_VSA_FPOS>
1

>  <Q_VSA_FPPOS>
0

>  <Q_VSA_HYD>
388.40405

>  <Q_VSA_NEG>
0

>  <Q_VSA_PNEG>
0

>  <Q_VSA_POL>
0

>  <Q_VSA_POS>
388.40405

>  <Q_VSA_PPOS>
0

>  <radius>
7

>  <reactive>
0

>  <rings>
4

>  <RPC+>
0

>  <RPC->
0

>  <rsynth>
1

>  <SlogP>
3.8237

>  <SlogP_VSA0>
21.999775

>  <SlogP_VSA1>
38.760464

>  <SlogP_VSA2>
71.586647

>  <SlogP_VSA3>
0

>  <SlogP_VSA4>
9.5567245

>  <SlogP_VSA5>
0

>  <SlogP_VSA6>
0

>  <SlogP_VSA7>
211.71822

>  <SlogP_VSA8>
0

>  <SlogP_VSA9>
79.89563

>  <SMR>
11.04557

>  <SMR_VSA0>
71.586647

>  <SMR_VSA1>
21.999775

>  <SMR_VSA2>
0

>  <SMR_VSA3>
20.043581

>  <SMR_VSA4>
20.767498

>  <SMR_VSA5>
211.71822

>  <SMR_VSA6>
20.749712

>  <SMR_VSA7>
66.652031

>  <TPSA>
81.699997

>  <VAdjEq>
0.37824166

>  <VAdjMa>
6.044394

>  <VDistEq>
3.4931233

>  <VDistMa>
9.5378752

>  <vdw_area>
388.40405

>  <vdw_vol>
532.64307

>  <vsa_acc>
40.700764

>  <vsa_acid>
0

>  <vsa_base>
0

>  <vsa_don>
5.6825762

>  <vsa_hyd>
278.76105

>  <vsa_other>
47.374043

>  <vsa_pol>
46.383339

>  <Weight>
401.418

>  <weinerPath>
2360

>  <weinerPol>
53

>  <zagreb>
162

$$$$