O(C(=O)C)c1ccc(cc1)C(c1ccc(OC(=O)C)cc1)c1ncccc1
  MOE2013           2D

 27 29  0  0  0  0  0  0  0  0999 V2000
    0.0000    0.0000    0.0000 O   0  0  0  0  0  0  0  0  0  0  0  0
   -1.2990    0.7500    0.0000 C   0  0  0  0  0  0  0  0  0  0  0  0
   -2.5980    0.0000    0.0000 O   0  0  0  0  0  0  0  0  0  0  0  0
   -1.2990    2.2500    0.0000 C   0  0  0  0  0  0  0  0  0  0  0  0
    1.2990    0.7500    0.0000 C   0  0  0  0  0  0  0  0  0  0  0  0
    2.5980    0.0000    0.0000 C   0  0  0  0  0  0  0  0  0  0  0  0
    3.8970    0.7500    0.0000 C   0  0  0  0  0  0  0  0  0  0  0  0
    3.8970    2.2500    0.0000 C   0  0  0  0  0  0  0  0  0  0  0  0
    2.5980    3.0000    0.0000 C   0  0  0  0  0  0  0  0  0  0  0  0
    1.2990    2.2500    0.0000 C   0  0  0  0  0  0  0  0  0  0  0  0
    5.1960    3.0000    0.0000 C   0  0  0  0  0  0  0  0  0  0  0  0
    6.4950    2.2500    0.0000 C   0  0  0  0  0  0  0  0  0  0  0  0
    6.4950    0.7500    0.0000 C   0  0  0  0  0  0  0  0  0  0  0  0
    7.7940    0.0000    0.0000 C   0  0  0  0  0  0  0  0  0  0  0  0
    9.0930    0.7500    0.0000 C   0  0  0  0  0  0  0  0  0  0  0  0
   10.3920    0.0000    0.0000 O   0  0  0  0  0  0  0  0  0  0  0  0
   11.6910    0.7500    0.0000 C   0  0  0  0  0  0  0  0  0  0  0  0
   11.6910    2.2500    0.0000 O   0  0  0  0  0  0  0  0  0  0  0  0
   12.9900    0.0000    0.0000 C   0  0  0  0  0  0  0  0  0  0  0  0
    9.0930    2.2500    0.0000 C   0  0  0  0  0  0  0  0  0  0  0  0
    7.7940    3.0000    0.0000 C   0  0  0  0  0  0  0  0  0  0  0  0
    5.1960    4.5000    0.0000 C   0  0  0  0  0  0  0  0  0  0  0  0
    3.8970    5.2500    0.0000 N   0  0  0  0  0  0  0  0  0  0  0  0
    3.8970    6.7500    0.0000 C   0  0  0  0  0  0  0  0  0  0  0  0
    5.1960    7.5000    0.0000 C   0  0  0  0  0  0  0  0  0  0  0  0
    6.4950    6.7500    0.0000 C   0  0  0  0  0  0  0  0  0  0  0  0
    6.4950    5.2500    0.0000 C   0  0  0  0  0  0  0  0  0  0  0  0
  1  2  1  0  0  0  0
  1  5  1  0  0  0  0
  2  3  2  0  0  0  0
  2  4  1  0  0  0  0
  5  6  1  0  0  0  0
  5 10  2  0  0  0  0
  6  7  2  0  0  0  0
  7  8  1  0  0  0  0
  8  9  2  0  0  0  0
  8 11  1  0  0  0  0
  9 10  1  0  0  0  0
 11 12  1  0  0  0  0
 11 22  1  0  0  0  0
 12 13  1  0  0  0  0
 12 21  2  0  0  0  0
 13 14  2  0  0  0  0
 14 15  1  0  0  0  0
 15 16  1  0  0  0  0
 15 20  2  0  0  0  0
 16 17  1  0  0  0  0
 17 18  2  0  0  0  0
 17 19  1  0  0  0  0
 20 21  1  0  0  0  0
 22 23  1  0  0  0  0
 22 27  2  0  0  0  0
 23 24  2  0  0  0  0
 24 25  1  0  0  0  0
 25 26  2  0  0  0  0
 26 27  1  0  0  0  0
M  END
>  <Index>
148

>  <ID>
HT0290

>  <class>
0

>  <apol>
55.697067

>  <ast_fraglike>
0

>  <ast_fraglike_ext>
0

>  <ast_violation>
2

>  <ast_violation_ext>
3

>  <a_acc>
3

>  <a_acid>
0

>  <a_aro>
18

>  <a_base>
0

>  <a_count>
46

>  <a_don>
0

>  <a_donacc>
3

>  <a_heavy>
27

>  <a_hyd>
20

>  <a_IC>
67.265732

>  <a_ICM>
1.4622985

>  <a_nB>
0

>  <a_nBr>
0

>  <a_nC>
22

>  <a_nCl>
0

>  <a_nF>
0

>  <a_nH>
19

>  <a_nI>
0

>  <a_nN>
1

>  <a_nO>
4

>  <a_nP>
0

>  <a_nS>
0

>  <balabanJ>
1.5910758

>  <BCUT_PEOE_0>
-2.4018054

>  <BCUT_PEOE_1>
-0.6427654

>  <BCUT_PEOE_2>
0.70314372

>  <BCUT_PEOE_3>
2.4006555

>  <BCUT_SLOGP_0>
-2.2827353

>  <BCUT_SLOGP_1>
-0.53807992

>  <BCUT_SLOGP_2>
0.80591482

>  <BCUT_SLOGP_3>
2.5372863

>  <BCUT_SMR_0>
-2.1042688

>  <BCUT_SMR_1>
-0.49986199

>  <BCUT_SMR_2>
0.85431087

>  <BCUT_SMR_3>
2.6989443

>  <bpol>
27.838934

>  <b_1rotN>
5

>  <b_1rotR>
0.1724138

>  <b_ar>
18

>  <b_count>
48

>  <b_double>
2

>  <b_heavy>
29

>  <b_max1len>
2

>  <b_rotN>
7

>  <b_rotR>
0.24137931

>  <b_single>
28

>  <b_triple>
0

>  <chi0>
19.225405

>  <chi0v>
15.08576

>  <chi0v_C>
13.005553

>  <chi0_C>
15.104083

>  <chi1>
13.024878

>  <chi1v>
8.5039854

>  <chi1v_C>
6.7974348

>  <chi1_C>
9.3289356

>  <chiral>
0

>  <chiral_u>
0

>  <density>
0.72925746

>  <diameter>
14

>  <FCharge>
0

>  <GCUT_PEOE_0>
-0.74885947

>  <GCUT_PEOE_1>
-0.45120338

>  <GCUT_PEOE_2>
0.082634434

>  <GCUT_PEOE_3>
2.5899374

>  <GCUT_SLOGP_0>
-0.9111771

>  <GCUT_SLOGP_1>
-0.33462244

>  <GCUT_SLOGP_2>
0.16445385

>  <GCUT_SLOGP_3>
2.7301528

>  <GCUT_SMR_0>
-0.46925873

>  <GCUT_SMR_1>
-0.21605732

>  <GCUT_SMR_2>
0.19305076

>  <GCUT_SMR_3>
2.8822894

>  <Kier1>
21.702734

>  <Kier2>
10.683761

>  <Kier3>
6.5

>  <KierA1>
15.135182

>  <KierA2>
7.3385582

>  <KierA3>
4.4145684

>  <KierFlex>
4.113719

>  <lip_acc>
5

>  <lip_don>
0

>  <lip_druglike>
1

>  <lip_violation>
0

>  <logP(o/w)>
4.1939998

>  <logS>
-4.4320898

>  <mr>
10.436943

>  <mutagenic>
0

>  <nmol>
1

>  <opr_brigid>
18

>  <opr_leadlike>
1

>  <opr_nring>
3

>  <opr_nrot>
5

>  <opr_violation>
0

>  <PC+>
0

>  <PC->
0

>  <PEOE_PC+>
1.8980073

>  <PEOE_PC->
-1.8980073

>  <PEOE_RPC+>
0.139091

>  <PEOE_RPC->
0.1464318

>  <PEOE_VSA+0>
84.098976

>  <PEOE_VSA+1>
74.801224

>  <PEOE_VSA+2>
0

>  <PEOE_VSA+3>
0

>  <PEOE_VSA+4>
0

>  <PEOE_VSA+5>
29.416998

>  <PEOE_VSA+6>
0

>  <PEOE_VSA-0>
77.946503

>  <PEOE_VSA-1>
61.274521

>  <PEOE_VSA-2>
0

>  <PEOE_VSA-3>
0

>  <PEOE_VSA-4>
0

>  <PEOE_VSA-5>
37.823929

>  <PEOE_VSA-6>
0

>  <PEOE_VSA_FHYD>
0.81596088

>  <PEOE_VSA_FNEG>
0.48457387

>  <PEOE_VSA_FPNEG>
0.10352449

>  <PEOE_VSA_FPOL>
0.18403912

>  <PEOE_VSA_FPOS>
0.5154261

>  <PEOE_VSA_FPPOS>
0.080514632

>  <PEOE_VSA_HYD>
298.12122

>  <PEOE_VSA_NEG>
177.04495

>  <PEOE_VSA_PNEG>
37.823929

>  <PEOE_VSA_POL>
67.240929

>  <PEOE_VSA_POS>
188.3172

>  <PEOE_VSA_PPOS>
29.416998

>  <petitjean>
0.5

>  <petitjeanSC>
1

>  <Q_PC+>
0

>  <Q_PC->
0

>  <Q_RPC+>
0

>  <Q_RPC->
0

>  <Q_VSA_FHYD>
1

>  <Q_VSA_FNEG>
0

>  <Q_VSA_FPNEG>
0

>  <Q_VSA_FPOL>
0

>  <Q_VSA_FPOS>
1

>  <Q_VSA_FPPOS>
0

>  <Q_VSA_HYD>
365.36215

>  <Q_VSA_NEG>
0

>  <Q_VSA_PNEG>
0

>  <Q_VSA_POL>
0

>  <Q_VSA_POS>
365.36215

>  <Q_VSA_PPOS>
0

>  <radius>
7

>  <reactive>
0

>  <rings>
3

>  <RPC+>
0

>  <RPC->
0

>  <rsynth>
1

>  <SlogP>
4.1124001

>  <SlogP_VSA0>
21.999775

>  <SlogP_VSA1>
32.276459

>  <SlogP_VSA2>
47.724434

>  <SlogP_VSA3>
0

>  <SlogP_VSA4>
9.1278973

>  <SlogP_VSA5>
0

>  <SlogP_VSA6>
4.4107962

>  <SlogP_VSA7>
211.28938

>  <SlogP_VSA8>
0

>  <SlogP_VSA9>
77.138885

>  <SMR>
10.0684

>  <SMR_VSA0>
47.724434

>  <SMR_VSA1>
38.785305

>  <SMR_VSA2>
0

>  <SMR_VSA3>
24.025549

>  <SMR_VSA4>
0

>  <SMR_VSA5>
211.28938

>  <SMR_VSA6>
15.490929

>  <SMR_VSA7>
66.652031

>  <TPSA>
65.489998

>  <VAdjEq>
0.40063059

>  <VAdjMa>
5.8579812

>  <VDistEq>
3.5467377

>  <VDistMa>
9.2186451

>  <vdw_area>
365.36215

>  <vdw_vol>
495.56845

>  <vsa_acc>
32.816418

>  <vsa_acid>
0

>  <vsa_base>
0

>  <vsa_don>
0

>  <vsa_hyd>
283.25204

>  <vsa_other>
34.424511

>  <vsa_pol>
32.816418

>  <Weight>
361.397

>  <weinerPath>
1954

>  <weinerPol>
39

>  <zagreb>
136

$$$$