O=C1NC(=O)NC(=O)C1(C(CC)C)CC
  MOE2013           2D

 15 15  0  0  1  0  0  0  0  0999 V2000
    0.0000    0.0000    0.0000 O   0  0  0  0  0  0  0  0  0  0  0  0
    1.2940   -0.7580    0.0000 C   0  0  0  0  0  0  0  0  0  0  0  0
    2.5980   -0.0170    0.0000 N   0  0  0  0  0  0  0  0  0  0  0  0
    3.8920   -0.7750    0.0000 C   0  0  0  0  0  0  0  0  0  0  0  0
    5.1960   -0.0330    0.0000 O   0  0  0  0  0  0  0  0  0  0  0  0
    3.8830   -2.2750    0.0000 N   0  0  0  0  0  0  0  0  0  0  0  0
    2.5790   -3.0170    0.0000 C   0  0  0  0  0  0  0  0  0  0  0  0
    2.5690   -4.5170    0.0000 O   0  0  0  0  0  0  0  0  0  0  0  0
    1.2850   -2.2580    0.0000 C   0  0  0  0  0  0  0  0  0  0  0  0
   -0.2150   -2.2490    0.0000 C   0  0  3  0  0  0  0  0  0  0  0  0
   -0.9740   -3.5430    0.0000 C   0  0  0  0  0  0  0  0  0  0  0  0
   -2.4740   -3.5330    0.0000 C   0  0  0  0  0  0  0  0  0  0  0  0
   -0.9570   -0.9450    0.0000 C   0  0  0  0  0  0  0  0  0  0  0  0
    0.5260   -3.5520    0.0000 C   0  0  0  0  0  0  0  0  0  0  0  0
    1.2680   -4.8560    0.0000 C   0  0  0  0  0  0  0  0  0  0  0  0
  1  2  2  0  0  0  0
  2  3  1  0  0  0  0
  2  9  1  0  0  0  0
  3  4  1  0  0  0  0
  4  5  2  0  0  0  0
  4  6  1  0  0  0  0
  6  7  1  0  0  0  0
  7  8  2  0  0  0  0
  7  9  1  0  0  0  0
  9 10  1  0  0  0  0
  9 14  1  0  0  0  0
 10 11  1  0  0  0  0
 10 13  1  0  0  0  0
 11 12  1  0  0  0  0
 14 15  1  0  0  0  0
M  END
>  <Index>
167

>  <ID>
HT0333

>  <class>
0

>  <apol>
32.874687

>  <ast_fraglike>
1

>  <ast_fraglike_ext>
1

>  <ast_violation>
0

>  <ast_violation_ext>
0

>  <a_acc>
3

>  <a_acid>
0

>  <a_aro>
0

>  <a_base>
0

>  <a_count>
31

>  <a_don>
2

>  <a_donacc>
5

>  <a_heavy>
15

>  <a_hyd>
7

>  <a_IC>
49.605919

>  <a_ICM>
1.6001909

>  <a_nB>
0

>  <a_nBr>
0

>  <a_nC>
10

>  <a_nCl>
0

>  <a_nF>
0

>  <a_nH>
16

>  <a_nI>
0

>  <a_nN>
2

>  <a_nO>
3

>  <a_nP>
0

>  <a_nS>
0

>  <balabanJ>
2.9540889

>  <BCUT_PEOE_0>
-2.7145865

>  <BCUT_PEOE_1>
-0.44577876

>  <BCUT_PEOE_2>
0.41662633

>  <BCUT_PEOE_3>
2.7645109

>  <BCUT_SLOGP_0>
-2.8205047

>  <BCUT_SLOGP_1>
-0.2263958

>  <BCUT_SLOGP_2>
0.398238

>  <BCUT_SLOGP_3>
2.7702558

>  <BCUT_SMR_0>
-2.4844022

>  <BCUT_SMR_1>
-0.25146329

>  <BCUT_SMR_2>
0.50145274

>  <BCUT_SMR_3>
2.9932625

>  <bpol>
21.685312

>  <b_1rotN>
3

>  <b_1rotR>
0.2

>  <b_ar>
0

>  <b_count>
31

>  <b_double>
3

>  <b_heavy>
15

>  <b_max1len>
7

>  <b_rotN>
3

>  <b_rotR>
0.2

>  <b_single>
28

>  <b_triple>
0

>  <chi0>
11.637828

>  <chi0v>
9.2163086

>  <chi0v_C>
6.9915638

>  <chi0_C>
7.2236147

>  <chi1>
6.9844351

>  <chi1v>
5.1544132

>  <chi1v_C>
3.5420406

>  <chi1_C>
3.619391

>  <chiral>
1

>  <chiral_u>
1

>  <density>
0.75694406

>  <diameter>
7

>  <FCharge>
0

>  <GCUT_PEOE_0>
-0.78840333

>  <GCUT_PEOE_1>
-0.45529017

>  <GCUT_PEOE_2>
0.087343358

>  <GCUT_PEOE_3>
2.6495953

>  <GCUT_SLOGP_0>
-1.1839066

>  <GCUT_SLOGP_1>
-0.35475871

>  <GCUT_SLOGP_2>
0.018506758

>  <GCUT_SLOGP_3>
2.6333318

>  <GCUT_SMR_0>
-0.53184986

>  <GCUT_SMR_1>
-0.20602089

>  <GCUT_SMR_2>
0.13798249

>  <GCUT_SMR_3>
2.8674319

>  <Kier1>
13.066667

>  <Kier2>
4.8884296

>  <Kier3>
2.0978148

>  <KierA1>
9.957201

>  <KierA2>
3.6460276

>  <KierA3>
1.5372759

>  <KierFlex>
2.4202819

>  <lip_acc>
5

>  <lip_don>
2

>  <lip_druglike>
1

>  <lip_violation>
0

>  <logP(o/w)>
1.6849999

>  <logS>
-2.87413

>  <mr>
5.5617108

>  <mutagenic>
0

>  <nmol>
1

>  <opr_brigid>
6

>  <opr_leadlike>
1

>  <opr_nring>
1

>  <opr_nrot>
3

>  <opr_violation>
0

>  <PC+>
0

>  <PC->
0

>  <PEOE_PC+>
1.641151

>  <PEOE_PC->
-1.641151

>  <PEOE_RPC+>
0.20047238

>  <PEOE_RPC->
0.16923144

>  <PEOE_VSA+0>
59.715405

>  <PEOE_VSA+1>
0

>  <PEOE_VSA+2>
0

>  <PEOE_VSA+3>
17.238026

>  <PEOE_VSA+4>
25.899061

>  <PEOE_VSA+5>
0

>  <PEOE_VSA+6>
17.440542

>  <PEOE_VSA-0>
8.701313

>  <PEOE_VSA-1>
64.944344

>  <PEOE_VSA-2>
0

>  <PEOE_VSA-3>
0

>  <PEOE_VSA-4>
13.566921

>  <PEOE_VSA-5>
27.407623

>  <PEOE_VSA-6>
0

>  <PEOE_VSA_FHYD>
0.6410839

>  <PEOE_VSA_FNEG>
0.48792568

>  <PEOE_VSA_FPNEG>
0.17442416

>  <PEOE_VSA_FPOL>
0.35891613

>  <PEOE_VSA_FPOS>
0.51207429

>  <PEOE_VSA_FPPOS>
0.18449196

>  <PEOE_VSA_HYD>
150.59909

>  <PEOE_VSA_NEG>
114.6202

>  <PEOE_VSA_PNEG>
40.974545

>  <PEOE_VSA_POL>
84.314148

>  <PEOE_VSA_POS>
120.29304

>  <PEOE_VSA_PPOS>
43.339603

>  <petitjean>
0.42857143

>  <petitjeanSC>
0.75

>  <Q_PC+>
0

>  <Q_PC->
0

>  <Q_RPC+>
0

>  <Q_RPC->
0

>  <Q_VSA_FHYD>
1

>  <Q_VSA_FNEG>
0

>  <Q_VSA_FPNEG>
0

>  <Q_VSA_FPOL>
0

>  <Q_VSA_FPOS>
1

>  <Q_VSA_FPPOS>
0

>  <Q_VSA_HYD>
234.91324

>  <Q_VSA_NEG>
0

>  <Q_VSA_PNEG>
0

>  <Q_VSA_POL>
0

>  <Q_VSA_POS>
234.91324

>  <Q_VSA_PPOS>
0

>  <radius>
4

>  <reactive>
0

>  <rings>
1

>  <RPC+>
0

>  <RPC->
0

>  <rsynth>
1

>  <SlogP>
0.7949

>  <SlogP_VSA0>
36.0215

>  <SlogP_VSA1>
15.347524

>  <SlogP_VSA2>
47.724434

>  <SlogP_VSA3>
0

>  <SlogP_VSA4>
4.4107962

>  <SlogP_VSA5>
0

>  <SlogP_VSA6>
0

>  <SlogP_VSA7>
0

>  <SlogP_VSA8>
37.736813

>  <SlogP_VSA9>
123.84026

>  <SMR>
5.3860402

>  <SMR_VSA0>
71.586647

>  <SMR_VSA1>
0

>  <SMR_VSA2>
40.432297

>  <SMR_VSA3>
0

>  <SMR_VSA4>
0

>  <SMR_VSA5>
37.736813

>  <SMR_VSA6>
15.347524

>  <SMR_VSA7>
99.978043

>  <TPSA>
75.269997

>  <VAdjEq>
0.56650949

>  <VAdjMa>
4.9068904

>  <VDistEq>
2.4415553

>  <VDistMa>
7.5653939

>  <vdw_area>
234.91324

>  <vdw_vol>
280.4025

>  <vsa_acc>
40.700764

>  <vsa_acid>
0

>  <vsa_base>
0

>  <vsa_don>
11.365152

>  <vsa_hyd>
122.05088

>  <vsa_other>
43.339603

>  <vsa_pol>
52.065914

>  <Weight>
212.24899

>  <weinerPath>
324

>  <weinerPol>
28

>  <zagreb>
74

$$$$