C1CCc2c(C1)cccc2
  MOE2013           2D

 10 11  0  0  0  0  0  0  0  0999 V2000
    0.0000    0.0000    0.0000 C   0  0  0  0  0  0  0  0  0  0  0  0
    0.0000   -1.5000    0.0000 C   0  0  0  0  0  0  0  0  0  0  0  0
    1.2990   -2.2500    0.0000 C   0  0  0  0  0  0  0  0  0  0  0  0
    2.5980   -1.5000    0.0000 C   0  0  0  0  0  0  0  0  0  0  0  0
    2.5980    0.0000    0.0000 C   0  0  0  0  0  0  0  0  0  0  0  0
    1.2990    0.7500    0.0000 C   0  0  0  0  0  0  0  0  0  0  0  0
    3.8970    0.7500    0.0000 C   0  0  0  0  0  0  0  0  0  0  0  0
    5.1960    0.0000    0.0000 C   0  0  0  0  0  0  0  0  0  0  0  0
    5.1960   -1.5000    0.0000 C   0  0  0  0  0  0  0  0  0  0  0  0
    3.8970   -2.2500    0.0000 C   0  0  0  0  0  0  0  0  0  0  0  0
  1  2  1  0  0  0  0
  1  6  1  0  0  0  0
  2  3  1  0  0  0  0
  3  4  1  0  0  0  0
  4  5  1  0  0  0  0
  4 10  2  0  0  0  0
  5  6  1  0  0  0  0
  5  7  2  0  0  0  0
  7  8  1  0  0  0  0
  8  9  2  0  0  0  0
  9 10  1  0  0  0  0
M  END
>  <Index>
1216

>  <ID>
HT2557

>  <class>
0

>  <apol>
25.601517

>  <ast_fraglike>
1

>  <ast_fraglike_ext>
1

>  <ast_violation>
0

>  <ast_violation_ext>
0

>  <a_acc>
0

>  <a_acid>
0

>  <a_aro>
6

>  <a_base>
0

>  <a_count>
22

>  <a_don>
0

>  <a_donacc>
0

>  <a_heavy>
10

>  <a_hyd>
10

>  <a_IC>
21.868664

>  <a_ICM>
0.99403024

>  <a_nB>
0

>  <a_nBr>
0

>  <a_nC>
10

>  <a_nCl>
0

>  <a_nF>
0

>  <a_nH>
12

>  <a_nI>
0

>  <a_nN>
0

>  <a_nO>
0

>  <a_nP>
0

>  <a_nS>
0

>  <balabanJ>
1.9585141

>  <BCUT_PEOE_0>
-2.6511941

>  <BCUT_PEOE_1>
-0.52825868

>  <BCUT_PEOE_2>
0.59161377

>  <BCUT_PEOE_3>
2.5957172

>  <BCUT_SLOGP_0>
-2.539669

>  <BCUT_SLOGP_1>
-0.42774591

>  <BCUT_SLOGP_2>
0.68975365

>  <BCUT_SLOGP_3>
2.7121665

>  <BCUT_SMR_0>
-2.3877048

>  <BCUT_SMR_1>
-0.40107816

>  <BCUT_SMR_2>
0.72478813

>  <BCUT_SMR_3>
2.8655348

>  <bpol>
13.118484

>  <b_1rotN>
0

>  <b_1rotR>
0

>  <b_ar>
6

>  <b_count>
23

>  <b_double>
0

>  <b_heavy>
11

>  <b_max1len>
2

>  <b_rotN>
0

>  <b_rotR>
0

>  <b_single>
17

>  <b_triple>
0

>  <chi0>
6.8115549

>  <chi0v>
6.1378284

>  <chi0v_C>
6.1378284

>  <chi0_C>
6.8115549

>  <chi1>
4.9663267

>  <chi1v>
4.0344572

>  <chi1v_C>
4.0344572

>  <chi1_C>
4.9663267

>  <chiral>
0

>  <chiral_u>
0

>  <density>
0.62158841

>  <diameter>
5

>  <FCharge>
0

>  <GCUT_PEOE_0>
-0.78315109

>  <GCUT_PEOE_1>
-0.33907416

>  <GCUT_PEOE_2>
0.060894776

>  <GCUT_PEOE_3>
2.3769855

>  <GCUT_SLOGP_0>
-0.69566351

>  <GCUT_SLOGP_1>
-0.22329395

>  <GCUT_SLOGP_2>
0.14091223

>  <GCUT_SLOGP_3>
2.5060349

>  <GCUT_SMR_0>
-0.52280009

>  <GCUT_SMR_1>
-0.18326639

>  <GCUT_SMR_2>
0.16072579

>  <GCUT_SMR_3>
2.6468713

>  <Kier1>
6.6942148

>  <Kier2>
2.9387755

>  <Kier3>
1.3827161

>  <KierA1>
5.1486006

>  <KierA2>
2.1862013

>  <KierA3>
1.0007366

>  <KierFlex>
1.1255877

>  <lip_acc>
0

>  <lip_don>
0

>  <lip_druglike>
1

>  <lip_violation>
0

>  <logP(o/w)>
3.6396

>  <logS>
-3.2611201

>  <mr>
4.3681445

>  <mutagenic>
0

>  <nmol>
1

>  <opr_brigid>
11

>  <opr_leadlike>
1

>  <opr_nring>
2

>  <opr_nrot>
1

>  <opr_violation>
0

>  <PC+>
0

>  <PC->
0

>  <PEOE_PC+>
0.48030657

>  <PEOE_PC->
-0.48030657

>  <PEOE_RPC+>
0.12916152

>  <PEOE_RPC->
0.12801169

>  <PEOE_VSA+0>
34.123089

>  <PEOE_VSA+1>
17.061544

>  <PEOE_VSA+2>
0

>  <PEOE_VSA+3>
0

>  <PEOE_VSA+4>
0

>  <PEOE_VSA+5>
0

>  <PEOE_VSA+6>
0

>  <PEOE_VSA-0>
39.222332

>  <PEOE_VSA-1>
49.019615

>  <PEOE_VSA-2>
0

>  <PEOE_VSA-3>
0

>  <PEOE_VSA-4>
0

>  <PEOE_VSA-5>
0

>  <PEOE_VSA-6>
0

>  <PEOE_VSA_FHYD>
1

>  <PEOE_VSA_FNEG>
0.63289183

>  <PEOE_VSA_FPNEG>
0

>  <PEOE_VSA_FPOL>
0

>  <PEOE_VSA_FPOS>
0.36710814

>  <PEOE_VSA_FPPOS>
0

>  <PEOE_VSA_HYD>
139.42657

>  <PEOE_VSA_NEG>
88.241951

>  <PEOE_VSA_PNEG>
0

>  <PEOE_VSA_POL>
0

>  <PEOE_VSA_POS>
51.184631

>  <PEOE_VSA_PPOS>
0

>  <petitjean>
0.40000001

>  <petitjeanSC>
0.66666669

>  <Q_PC+>
0

>  <Q_PC->
0

>  <Q_RPC+>
0

>  <Q_RPC->
0

>  <Q_VSA_FHYD>
1

>  <Q_VSA_FNEG>
0

>  <Q_VSA_FPNEG>
0

>  <Q_VSA_FPOL>
0

>  <Q_VSA_FPOS>
1

>  <Q_VSA_FPPOS>
0

>  <Q_VSA_HYD>
139.42657

>  <Q_VSA_NEG>
0

>  <Q_VSA_PNEG>
0

>  <Q_VSA_POL>
0

>  <Q_VSA_POS>
139.42657

>  <Q_VSA_PPOS>
0

>  <radius>
3

>  <reactive>
0

>  <rings>
2

>  <RPC+>
0

>  <RPC->
0

>  <rsynth>
1

>  <SlogP>
2.56534

>  <SlogP_VSA0>
0

>  <SlogP_VSA1>
0

>  <SlogP_VSA2>
0

>  <SlogP_VSA3>
0

>  <SlogP_VSA4>
6.37115

>  <SlogP_VSA5>
37.736813

>  <SlogP_VSA6>
0

>  <SlogP_VSA7>
70.572739

>  <SlogP_VSA8>
37.736813

>  <SlogP_VSA9>
0

>  <SMR>
4.3084002

>  <SMR_VSA0>
0

>  <SMR_VSA1>
0

>  <SMR_VSA2>
0

>  <SMR_VSA3>
6.37115

>  <SMR_VSA4>
0

>  <SMR_VSA5>
146.04636

>  <SMR_VSA6>
0

>  <SMR_VSA7>
0

>  <TPSA>
0

>  <VAdjEq>
0.76016748

>  <VAdjMa>
4.4594316

>  <VDistEq>
2.1166077

>  <VDistMa>
6.3344417

>  <vdw_area>
139.42657

>  <vdw_vol>
212.69058

>  <vsa_acc>
0

>  <vsa_acid>
0

>  <vsa_base>
0

>  <vsa_don>
0

>  <vsa_hyd>
130.88504

>  <vsa_other>
0

>  <vsa_pol>
0

>  <Weight>
132.20599

>  <weinerPath>
109

>  <weinerPol>
12

>  <zagreb>
50

$$$$