Clc1ccc(OC(C(OCCSCCCCCCCCCCSCCOC(=O)C(Oc2ccc(Cl)cc2)(C)C)=O)(C)C)cc1
  MOE2013           2D

 44 45  0  0  0  0  0  0  0  0999 V2000
    0.0000    0.0000    0.0000 Cl  0  0  0  0  0  0  0  0  0  0  0  0
   -1.5000    0.0370    0.0000 C   0  0  0  0  0  0  0  0  0  0  0  0
   -2.2170    1.3540    0.0000 C   0  0  0  0  0  0  0  0  0  0  0  0
   -3.7170    1.3910    0.0000 C   0  0  0  0  0  0  0  0  0  0  0  0
   -4.4990    0.1110    0.0000 C   0  0  0  0  0  0  0  0  0  0  0  0
   -5.9980    0.1480    0.0000 O   0  0  0  0  0  0  0  0  0  0  0  0
   -6.7800   -1.1330    0.0000 C   0  0  0  0  0  0  0  0  0  0  0  0
   -8.0600   -0.3510    0.0000 C   0  0  0  0  0  0  0  0  0  0  0  0
   -9.3770   -1.0690    0.0000 O   0  0  0  0  0  0  0  0  0  0  0  0
  -10.6570   -0.2870    0.0000 C   0  0  0  0  0  0  0  0  0  0  0  0
  -11.9740   -1.0050    0.0000 C   0  0  0  0  0  0  0  0  0  0  0  0
  -13.2550   -0.2230    0.0000 S   0  0  0  0  0  0  0  0  0  0  0  0
  -14.5720   -0.9410    0.0000 C   0  0  0  0  0  0  0  0  0  0  0  0
  -15.8520   -0.1590    0.0000 C   0  0  0  0  0  0  0  0  0  0  0  0
  -17.1690   -0.8770    0.0000 C   0  0  0  0  0  0  0  0  0  0  0  0
  -18.4490   -0.0950    0.0000 C   0  0  0  0  0  0  0  0  0  0  0  0
  -19.7660   -0.8130    0.0000 C   0  0  0  0  0  0  0  0  0  0  0  0
  -21.0470   -0.0310    0.0000 C   0  0  0  0  0  0  0  0  0  0  0  0
  -22.3640   -0.7490    0.0000 C   0  0  0  0  0  0  0  0  0  0  0  0
  -23.6440    0.0330    0.0000 C   0  0  0  0  0  0  0  0  0  0  0  0
  -24.9610   -0.6850    0.0000 C   0  0  0  0  0  0  0  0  0  0  0  0
  -26.2410    0.0970    0.0000 C   0  0  0  0  0  0  0  0  0  0  0  0
  -27.5580   -0.6210    0.0000 S   0  0  0  0  0  0  0  0  0  0  0  0
  -28.8380    0.1600    0.0000 C   0  0  0  0  0  0  0  0  0  0  0  0
  -30.1560   -0.5570    0.0000 C   0  0  0  0  0  0  0  0  0  0  0  0
  -31.4360    0.2240    0.0000 O   0  0  0  0  0  0  0  0  0  0  0  0
  -32.7530   -0.4930    0.0000 C   0  0  0  0  0  0  0  0  0  0  0  0
  -32.7900   -1.9930    0.0000 O   0  0  0  0  0  0  0  0  0  0  0  0
  -34.0330    0.2880    0.0000 C   0  0  0  0  0  0  0  0  0  0  0  0
  -35.3130    1.0700    0.0000 O   0  0  0  0  0  0  0  0  0  0  0  0
  -36.6300    0.3520    0.0000 C   0  0  0  0  0  0  0  0  0  0  0  0
  -36.6670   -1.1470    0.0000 C   0  0  0  0  0  0  0  0  0  0  0  0
  -37.9840   -1.8650    0.0000 C   0  0  0  0  0  0  0  0  0  0  0  0
  -39.2640   -1.0830    0.0000 C   0  0  0  0  0  0  0  0  0  0  0  0
  -40.5820   -1.8010    0.0000 Cl  0  0  0  0  0  0  0  0  0  0  0  0
  -39.2280    0.4160    0.0000 C   0  0  0  0  0  0  0  0  0  0  0  0
  -37.9100    1.1340    0.0000 C   0  0  0  0  0  0  0  0  0  0  0  0
  -33.2510    1.5680    0.0000 C   0  0  0  0  0  0  0  0  0  0  0  0
  -34.8150   -0.9920    0.0000 C   0  0  0  0  0  0  0  0  0  0  0  0
   -8.0230    1.1490    0.0000 O   0  0  0  0  0  0  0  0  0  0  0  0
   -5.5000   -1.9140    0.0000 C   0  0  0  0  0  0  0  0  0  0  0  0
   -7.5620   -2.4130    0.0000 C   0  0  0  0  0  0  0  0  0  0  0  0
   -3.7810   -1.2060    0.0000 C   0  0  0  0  0  0  0  0  0  0  0  0
   -2.2810   -1.2430    0.0000 C   0  0  0  0  0  0  0  0  0  0  0  0
  1  2  1  0  0  0  0
  2  3  1  0  0  0  0
  2 44  2  0  0  0  0
  3  4  2  0  0  0  0
  4  5  1  0  0  0  0
  5  6  1  0  0  0  0
  5 43  2  0  0  0  0
  6  7  1  0  0  0  0
  7  8  1  0  0  0  0
  7 41  1  0  0  0  0
  7 42  1  0  0  0  0
  8  9  1  0  0  0  0
  8 40  2  0  0  0  0
  9 10  1  0  0  0  0
 10 11  1  0  0  0  0
 11 12  1  0  0  0  0
 12 13  1  0  0  0  0
 13 14  1  0  0  0  0
 14 15  1  0  0  0  0
 15 16  1  0  0  0  0
 16 17  1  0  0  0  0
 17 18  1  0  0  0  0
 18 19  1  0  0  0  0
 19 20  1  0  0  0  0
 20 21  1  0  0  0  0
 21 22  1  0  0  0  0
 22 23  1  0  0  0  0
 23 24  1  0  0  0  0
 24 25  1  0  0  0  0
 25 26  1  0  0  0  0
 26 27  1  0  0  0  0
 27 28  2  0  0  0  0
 27 29  1  0  0  0  0
 29 30  1  0  0  0  0
 29 38  1  0  0  0  0
 29 39  1  0  0  0  0
 30 31  1  0  0  0  0
 31 32  1  0  0  0  0
 31 37  2  0  0  0  0
 32 33  2  0  0  0  0
 33 34  1  0  0  0  0
 34 35  1  0  0  0  0
 34 36  2  0  0  0  0
 36 37  1  0  0  0  0
 43 44  1  0  0  0  0
M  END
>  <Index>
1071

>  <ID>
HT2051

>  <class>
0

>  <apol>
106.81806

>  <ast_fraglike>
0

>  <ast_fraglike_ext>
0

>  <ast_violation>
3

>  <ast_violation_ext>
4

>  <a_acc>
4

>  <a_acid>
0

>  <a_aro>
12

>  <a_base>
0

>  <a_count>
92

>  <a_don>
0

>  <a_donacc>
4

>  <a_heavy>
44

>  <a_hyd>
36

>  <a_IC>
139.60599

>  <a_ICM>
1.5174564

>  <a_nB>
0

>  <a_nBr>
0

>  <a_nC>
34

>  <a_nCl>
2

>  <a_nF>
0

>  <a_nH>
48

>  <a_nI>
0

>  <a_nN>
0

>  <a_nO>
6

>  <a_nP>
0

>  <a_nS>
2

>  <balabanJ>
1.3082384

>  <BCUT_PEOE_0>
-2.7204273

>  <BCUT_PEOE_1>
-0.53005052

>  <BCUT_PEOE_2>
0.52134675

>  <BCUT_PEOE_3>
2.6554396

>  <BCUT_SLOGP_0>
-2.630841

>  <BCUT_SLOGP_1>
-0.23483761

>  <BCUT_SLOGP_2>
0.64179456

>  <BCUT_SLOGP_3>
2.8158252

>  <BCUT_SMR_0>
-2.4625568

>  <BCUT_SMR_1>
-0.23575872

>  <BCUT_SMR_2>
0.78007549

>  <BCUT_SMR_3>
2.9235795

>  <bpol>
67.453934

>  <b_1rotN>
23

>  <b_1rotR>
0.51111114

>  <b_ar>
12

>  <b_count>
93

>  <b_double>
2

>  <b_heavy>
45

>  <b_max1len>
17

>  <b_rotN>
25

>  <b_rotR>
0.55555558

>  <b_single>
79

>  <b_triple>
0

>  <chi0>
32.263092

>  <chi0v>
29.685064

>  <chi0v_C>
22.518297

>  <chi0_C>
24.020451

>  <chi1>
20.992838

>  <chi1v>
18.451073

>  <chi1v_C>
11.642735

>  <chi1_C>
13.343337

>  <chiral>
0

>  <chiral_u>
0

>  <density>
0.76170039

>  <diameter>
33

>  <FCharge>
0

>  <GCUT_PEOE_0>
-0.80187458

>  <GCUT_PEOE_1>
-0.37800694

>  <GCUT_PEOE_2>
0.008362351

>  <GCUT_PEOE_3>
2.7421405

>  <GCUT_SLOGP_0>
-0.93327481

>  <GCUT_SLOGP_1>
-0.26386139

>  <GCUT_SLOGP_2>
0.16445385

>  <GCUT_SLOGP_3>
2.8455036

>  <GCUT_SMR_0>
-0.53189361

>  <GCUT_SMR_1>
-0.13132286

>  <GCUT_SMR_2>
0.1998371

>  <GCUT_SMR_3>
2.9860737

>  <Kier1>
40.175804

>  <Kier2>
22.548157

>  <Kier3>
18.222221

>  <KierA1>
39.489227

>  <KierA2>
22.153774

>  <KierA3>
17.898432

>  <KierFlex>
19.882624

>  <lip_acc>
6

>  <lip_don>
0

>  <lip_druglike>
0

>  <lip_violation>
2

>  <logP(o/w)>
10.04148

>  <logS>
-11.72546

>  <mr>
18.777626

>  <mutagenic>
0

>  <nmol>
1

>  <opr_brigid>
12

>  <opr_leadlike>
0

>  <opr_nring>
2

>  <opr_nrot>
23

>  <opr_violation>
3

>  <PC+>
0

>  <PC->
0

>  <PEOE_PC+>
3.0964282

>  <PEOE_PC->
-3.0964282

>  <PEOE_RPC+>
0.095070109

>  <PEOE_RPC->
0.10618671

>  <PEOE_VSA+0>
183.94814

>  <PEOE_VSA+1>
98.004257

>  <PEOE_VSA+2>
0

>  <PEOE_VSA+3>
0

>  <PEOE_VSA+4>
0

>  <PEOE_VSA+5>
29.416998

>  <PEOE_VSA+6>
0

>  <PEOE_VSA-0>
211.78732

>  <PEOE_VSA-1>
111.37177

>  <PEOE_VSA-2>
0

>  <PEOE_VSA-3>
39.521236

>  <PEOE_VSA-4>
0

>  <PEOE_VSA-5>
27.133842

>  <PEOE_VSA-6>
10.015024

>  <PEOE_VSA_FHYD>
0.90640324

>  <PEOE_VSA_FNEG>
0.56219065

>  <PEOE_VSA_FPNEG>
0.052234169

>  <PEOE_VSA_FPOL>
0.093596734

>  <PEOE_VSA_FPOS>
0.43780935

>  <PEOE_VSA_FPPOS>
0.041362565

>  <PEOE_VSA_HYD>
644.63275

>  <PEOE_VSA_NEG>
399.82919

>  <PEOE_VSA_PNEG>
37.148865

>  <PEOE_VSA_POL>
66.565865

>  <PEOE_VSA_POS>
311.36938

>  <PEOE_VSA_PPOS>
29.416998

>  <petitjean>
0.4848485

>  <petitjeanSC>
0.94117647

>  <Q_PC+>
0

>  <Q_PC->
0

>  <Q_RPC+>
0

>  <Q_RPC->
0

>  <Q_VSA_FHYD>
1

>  <Q_VSA_FNEG>
0

>  <Q_VSA_FPNEG>
0

>  <Q_VSA_FPOL>
0

>  <Q_VSA_FPOS>
1

>  <Q_VSA_FPPOS>
0

>  <Q_VSA_HYD>
711.19861

>  <Q_VSA_NEG>
0

>  <Q_VSA_PNEG>
0

>  <Q_VSA_POL>
0

>  <Q_VSA_POS>
711.19861

>  <Q_VSA_PPOS>
0

>  <radius>
17

>  <reactive>
0

>  <rings>
2

>  <RPC+>
0

>  <RPC->
0

>  <rsynth>
1

>  <SlogP>
9.6820002

>  <SlogP_VSA0>
21.999775

>  <SlogP_VSA1>
15.490929

>  <SlogP_VSA2>
69.724205

>  <SlogP_VSA3>
110.78677

>  <SlogP_VSA4>
0

>  <SlogP_VSA5>
0

>  <SlogP_VSA6>
7.0012131

>  <SlogP_VSA7>
141.14548

>  <SlogP_VSA8>
150.94725

>  <SlogP_VSA9>
286.52728

>  <SMR>
18.582399

>  <SMR_VSA0>
69.724205

>  <SMR_VSA1>
21.999775

>  <SMR_VSA2>
0

>  <SMR_VSA3>
17.48807

>  <SMR_VSA4>
0

>  <SMR_VSA5>
292.09271

>  <SMR_VSA6>
126.2777

>  <SMR_VSA7>
276.04044

>  <TPSA>
71.059998

>  <VAdjEq>
0.27128488

>  <VAdjMa>
6.4918532

>  <VDistEq>
4.8326259

>  <VDistMa>
10.537847

>  <vdw_area>
711.19861

>  <vdw_vol>
902.96661

>  <vsa_acc>
32.141354

>  <vsa_acid>
0

>  <vsa_base>
0

>  <vsa_don>
0

>  <vsa_hyd>
610.46655

>  <vsa_other>
34.424511

>  <vsa_pol>
32.141354

>  <Weight>
687.78998

>  <weinerPath>
11750

>  <weinerPol>
57

>  <zagreb>
206

$$$$