O(CCN1CCCCCC1)c1ccc(cc1)Cn1c2c(cc(O)cc2)c(C)c1-c1ccc(O)cc1
  MOE2013           2D

 35 39  0  0  0  0  0  0  0  0999 V2000
    0.0000    0.0000    0.0000 O   0  0  0  0  0  0  0  0  0  0  0  0
    0.7580    1.2950    0.0000 C   0  0  0  0  0  0  0  0  0  0  0  0
    2.2580    1.2860    0.0000 C   0  0  0  0  0  0  0  0  0  0  0  0
    3.0150    2.5800    0.0000 N   0  0  0  0  0  0  0  0  0  0  0  0
    2.1780    3.8240    0.0000 C   0  0  0  0  0  0  0  0  0  0  0  0
    2.6300    5.2550    0.0000 C   0  0  0  0  0  0  0  0  0  0  0  0
    4.0290    5.7940    0.0000 C   0  0  0  0  0  0  0  0  0  0  0  0
    5.3240    5.0360    0.0000 C   0  0  0  0  0  0  0  0  0  0  0  0
    5.5380    3.5520    0.0000 C   0  0  0  0  0  0  0  0  0  0  0  0
    4.5100    2.4590    0.0000 C   0  0  0  0  0  0  0  0  0  0  0  0
   -1.5000    0.0090    0.0000 C   0  0  0  0  0  0  0  0  0  0  0  0
   -2.2580   -1.2860    0.0000 C   0  0  0  0  0  0  0  0  0  0  0  0
   -3.7580   -1.2770    0.0000 C   0  0  0  0  0  0  0  0  0  0  0  0
   -4.5000    0.0270    0.0000 C   0  0  0  0  0  0  0  0  0  0  0  0
   -3.7420    1.3210    0.0000 C   0  0  0  0  0  0  0  0  0  0  0  0
   -2.2420    1.3120    0.0000 C   0  0  0  0  0  0  0  0  0  0  0  0
   -6.0000    0.0360    0.0000 C   0  0  0  0  0  0  0  0  0  0  0  0
   -6.7580   -1.2590    0.0000 N   0  0  0  0  0  0  0  0  0  0  0  0
   -6.1560   -2.6330    0.0000 C   0  0  0  0  0  0  0  0  0  0  0  0
   -7.2760   -3.6300    0.0000 C   0  0  0  0  0  0  0  0  0  0  0  0
   -6.9730   -5.0990    0.0000 C   0  0  0  0  0  0  0  0  0  0  0  0
   -5.5490   -5.5710    0.0000 C   0  0  0  0  0  0  0  0  0  0  0  0
   -5.2460   -7.0400    0.0000 O   0  0  0  0  0  0  0  0  0  0  0  0
   -4.4290   -4.5740    0.0000 C   0  0  0  0  0  0  0  0  0  0  0  0
   -4.7320   -3.1050    0.0000 C   0  0  0  0  0  0  0  0  0  0  0  0
   -8.5710   -2.8720    0.0000 C   0  0  0  0  0  0  0  0  0  0  0  0
   -9.9450   -3.4740    0.0000 C   0  0  0  0  0  0  0  0  0  0  0  0
   -8.2500   -1.4070    0.0000 C   0  0  0  0  0  0  0  0  0  0  0  0
   -9.2470   -0.2860    0.0000 C   0  0  0  0  0  0  0  0  0  0  0  0
  -10.7160   -0.5890    0.0000 C   0  0  0  0  0  0  0  0  0  0  0  0
  -11.7130    0.5310    0.0000 C   0  0  0  0  0  0  0  0  0  0  0  0
  -11.2410    1.9550    0.0000 C   0  0  0  0  0  0  0  0  0  0  0  0
  -12.2380    3.0760    0.0000 O   0  0  0  0  0  0  0  0  0  0  0  0
   -9.7720    2.2580    0.0000 C   0  0  0  0  0  0  0  0  0  0  0  0
   -8.7750    1.1380    0.0000 C   0  0  0  0  0  0  0  0  0  0  0  0
  1  2  1  0  0  0  0
  1 11  1  0  0  0  0
  2  3  1  0  0  0  0
  3  4  1  0  0  0  0
  4  5  1  0  0  0  0
  4 10  1  0  0  0  0
  5  6  1  0  0  0  0
  6  7  1  0  0  0  0
  7  8  1  0  0  0  0
  8  9  1  0  0  0  0
  9 10  1  0  0  0  0
 11 12  1  0  0  0  0
 11 16  2  0  0  0  0
 12 13  2  0  0  0  0
 13 14  1  0  0  0  0
 14 15  2  0  0  0  0
 14 17  1  0  0  0  0
 15 16  1  0  0  0  0
 17 18  1  0  0  0  0
 18 19  1  0  0  0  0
 18 28  1  0  0  0  0
 19 20  1  0  0  0  0
 19 25  2  0  0  0  0
 20 21  2  0  0  0  0
 20 26  1  0  0  0  0
 21 22  1  0  0  0  0
 22 23  1  0  0  0  0
 22 24  2  0  0  0  0
 24 25  1  0  0  0  0
 26 27  1  0  0  0  0
 26 28  2  0  0  0  0
 28 29  1  0  0  0  0
 29 30  1  0  0  0  0
 29 35  2  0  0  0  0
 30 31  2  0  0  0  0
 31 32  1  0  0  0  0
 32 33  1  0  0  0  0
 32 34  2  0  0  0  0
 34 35  1  0  0  0  0
M  END
>  <Index>
111

>  <ID>
HT0229

>  <class>
0

>  <apol>
80.076965

>  <ast_fraglike>
0

>  <ast_fraglike_ext>
0

>  <ast_violation>
3

>  <ast_violation_ext>
4

>  <a_acc>
4

>  <a_acid>
0

>  <a_aro>
21

>  <a_base>
0

>  <a_count>
69

>  <a_don>
2

>  <a_donacc>
6

>  <a_heavy>
35

>  <a_hyd>
30

>  <a_IC>
94.552849

>  <a_ICM>
1.370331

>  <a_nB>
0

>  <a_nBr>
0

>  <a_nC>
30

>  <a_nCl>
0

>  <a_nF>
0

>  <a_nH>
34

>  <a_nI>
0

>  <a_nN>
2

>  <a_nO>
3

>  <a_nP>
0

>  <a_nS>
0

>  <balabanJ>
1.1229216

>  <BCUT_PEOE_0>
-2.6649077

>  <BCUT_PEOE_1>
-0.64220047

>  <BCUT_PEOE_2>
0.70342356

>  <BCUT_PEOE_3>
2.6929202

>  <BCUT_SLOGP_0>
-2.7477562

>  <BCUT_SLOGP_1>
-0.53807992

>  <BCUT_SLOGP_2>
0.80591482

>  <BCUT_SLOGP_3>
2.7663159

>  <BCUT_SMR_0>
-2.3875616

>  <BCUT_SMR_1>
-0.49986199

>  <BCUT_SMR_2>
0.85431087

>  <BCUT_SMR_3>
2.9565709

>  <bpol>
43.045036

>  <b_1rotN>
7

>  <b_1rotR>
0.17948718

>  <b_ar>
22

>  <b_count>
73

>  <b_double>
0

>  <b_heavy>
39

>  <b_max1len>
3

>  <b_rotN>
7

>  <b_rotR>
0.17948718

>  <b_single>
51

>  <b_triple>
0

>  <chi0>
24.200096

>  <chi0v>
20.411917

>  <chi0v_C>
18.214813

>  <chi0_C>
20.338287

>  <chi1>
17.080521

>  <chi1v>
12.636459

>  <chi1v_C>
9.9843216

>  <chi1_C>
12.717912

>  <chiral>
0

>  <chiral_u>
0

>  <density>
0.69026542

>  <diameter>
18

>  <FCharge>
0

>  <GCUT_PEOE_0>
-0.85584831

>  <GCUT_PEOE_1>
-0.39921048

>  <GCUT_PEOE_2>
0.082793862

>  <GCUT_PEOE_3>
2.8300846

>  <GCUT_SLOGP_0>
-0.9615373

>  <GCUT_SLOGP_1>
-0.29639506

>  <GCUT_SLOGP_2>
0.16445385

>  <GCUT_SLOGP_3>
2.9686503

>  <GCUT_SMR_0>
-0.53036267

>  <GCUT_SMR_1>
-0.21605732

>  <GCUT_SMR_2>
0.19305076

>  <GCUT_SMR_3>
3.1192729

>  <Kier1>
26.60092

>  <Kier2>
12.697531

>  <Kier3>
6.7160492

>  <KierA1>
20.666887

>  <KierA2>
9.7872515

>  <KierA3>
5.1471238

>  <KierFlex>
5.7792006

>  <lip_acc>
5

>  <lip_don>
2

>  <lip_druglike>
1

>  <lip_violation>
1

>  <logP(o/w)>
7.3379998

>  <logS>
-6.0726299

>  <mr>
14.027713

>  <mutagenic>
0

>  <nmol>
1

>  <opr_brigid>
29

>  <opr_leadlike>
0

>  <opr_nring>
5

>  <opr_nrot>
10

>  <opr_violation>
3

>  <PC+>
0

>  <PC->
0

>  <PEOE_PC+>
2.3897438

>  <PEOE_PC->
-2.3897438

>  <PEOE_RPC+>
0.090935931

>  <PEOE_RPC->
0.15057351

>  <PEOE_VSA+0>
101.10475

>  <PEOE_VSA+1>
117.70674

>  <PEOE_VSA+2>
0

>  <PEOE_VSA+3>
0

>  <PEOE_VSA+4>
20.648346

>  <PEOE_VSA+5>
0

>  <PEOE_VSA+6>
0

>  <PEOE_VSA-0>
154.9449

>  <PEOE_VSA-1>
66.422241

>  <PEOE_VSA-2>
0

>  <PEOE_VSA-3>
0

>  <PEOE_VSA-4>
0

>  <PEOE_VSA-5>
0

>  <PEOE_VSA-6>
18.038837

>  <PEOE_VSA_FHYD>
0.91921079

>  <PEOE_VSA_FNEG>
0.49994376

>  <PEOE_VSA_FPNEG>
0.037669919

>  <PEOE_VSA_FPOL>
0.080789194

>  <PEOE_VSA_FPOS>
0.50005627

>  <PEOE_VSA_FPPOS>
0.04311927

>  <PEOE_VSA_HYD>
440.17865

>  <PEOE_VSA_NEG>
239.40598

>  <PEOE_VSA_PNEG>
18.038837

>  <PEOE_VSA_POL>
38.687183

>  <PEOE_VSA_POS>
239.45984

>  <PEOE_VSA_PPOS>
20.648346

>  <petitjean>
0.5

>  <petitjeanSC>
1

>  <Q_PC+>
0

>  <Q_PC->
0

>  <Q_RPC+>
0

>  <Q_RPC->
0

>  <Q_VSA_FHYD>
1

>  <Q_VSA_FNEG>
0

>  <Q_VSA_FPNEG>
0

>  <Q_VSA_FPOL>
0

>  <Q_VSA_FPOS>
1

>  <Q_VSA_FPPOS>
0

>  <Q_VSA_HYD>
478.86581

>  <Q_VSA_NEG>
0

>  <Q_VSA_PNEG>
0

>  <Q_VSA_POL>
0

>  <Q_VSA_POS>
478.86581

>  <Q_VSA_PPOS>
0

>  <radius>
9

>  <reactive>
0

>  <rings>
5

>  <RPC+>
0

>  <RPC->
0

>  <rsynth>
1

>  <SlogP>
6.5974202

>  <SlogP_VSA0>
61.77034

>  <SlogP_VSA1>
5.0234065

>  <SlogP_VSA2>
0

>  <SlogP_VSA3>
76.244995

>  <SlogP_VSA4>
6.37115

>  <SlogP_VSA5>
0

>  <SlogP_VSA6>
0

>  <SlogP_VSA7>
204.73445

>  <SlogP_VSA8>
75.473625

>  <SlogP_VSA9>
67.49588

>  <SMR>
14.15926

>  <SMR_VSA0>
0

>  <SMR_VSA1>
66.793747

>  <SMR_VSA2>
0

>  <SMR_VSA3>
22.101435

>  <SMR_VSA4>
10.659424

>  <SMR_VSA5>
287.98822

>  <SMR_VSA6>
76.244995

>  <SMR_VSA7>
33.326015

>  <TPSA>
57.860001

>  <VAdjEq>
0.34185782

>  <VAdjMa>
6.2854023

>  <VDistEq>
3.9534104

>  <VDistMa>
9.9389458

>  <vdw_area>
478.86581

>  <vdw_vol>
681.78558

>  <vsa_acc>
2.503756

>  <vsa_acid>
0

>  <vsa_base>
0

>  <vsa_don>
0

>  <vsa_hyd>
417.40118

>  <vsa_other>
0

>  <vsa_pol>
29.637598

>  <Weight>
470.61298

>  <weinerPath>
4234

>  <weinerPol>
58

>  <zagreb>
186

$$$$