Clc1ccc(cc1)C(Oc1ccc(cc1)C(F)(F)F)C(OCCNC(=O)C)=O
  MOE2013           2D

 28 29  0  0  1  0  0  0  0  0999 V2000
    0.0000    0.0000    0.0000 Cl  0  0  0  0  0  0  0  0  0  0  0  0
   -0.7420    1.3040    0.0000 C   0  0  0  0  0  0  0  0  0  0  0  0
    0.0160    2.5980    0.0000 C   0  0  0  0  0  0  0  0  0  0  0  0
   -0.7250    3.9020    0.0000 C   0  0  0  0  0  0  0  0  0  0  0  0
   -2.2250    3.9110    0.0000 C   0  0  0  0  0  0  0  0  0  0  0  0
   -2.9830    2.6170    0.0000 C   0  0  0  0  0  0  0  0  0  0  0  0
   -2.2420    1.3130    0.0000 C   0  0  0  0  0  0  0  0  0  0  0  0
   -2.9670    5.2150    0.0000 C   0  0  3  0  0  0  0  0  0  0  0  0
   -4.4670    5.2250    0.0000 O   0  0  0  0  0  0  0  0  0  0  0  0
   -5.2090    6.5280    0.0000 C   0  0  0  0  0  0  0  0  0  0  0  0
   -6.7090    6.5380    0.0000 C   0  0  0  0  0  0  0  0  0  0  0  0
   -7.4500    7.8420    0.0000 C   0  0  0  0  0  0  0  0  0  0  0  0
   -6.6920    9.1360    0.0000 C   0  0  0  0  0  0  0  0  0  0  0  0
   -5.1920    9.1260    0.0000 C   0  0  0  0  0  0  0  0  0  0  0  0
   -4.4510    7.8230    0.0000 C   0  0  0  0  0  0  0  0  0  0  0  0
   -7.4340   10.4400    0.0000 C   0  0  0  0  0  0  0  0  0  0  0  0
   -8.7380    9.6980    0.0000 F   0  0  0  0  0  0  0  0  0  0  0  0
   -6.1300   11.1810    0.0000 F   0  0  0  0  0  0  0  0  0  0  0  0
   -8.1760   11.7430    0.0000 F   0  0  0  0  0  0  0  0  0  0  0  0
   -2.2090    6.5090    0.0000 C   0  0  0  0  0  0  0  0  0  0  0  0
   -0.7090    6.5000    0.0000 O   0  0  0  0  0  0  0  0  0  0  0  0
    0.0490    7.7940    0.0000 C   0  0  0  0  0  0  0  0  0  0  0  0
    1.5490    7.7850    0.0000 C   0  0  0  0  0  0  0  0  0  0  0  0
    2.3080    9.0790    0.0000 N   0  0  0  0  0  0  0  0  0  0  0  0
    3.8080    9.0690    0.0000 C   0  0  0  0  0  0  0  0  0  0  0  0
    4.5660   10.3640    0.0000 O   0  0  0  0  0  0  0  0  0  0  0  0
    4.5490    7.7660    0.0000 C   0  0  0  0  0  0  0  0  0  0  0  0
   -2.9510    7.8130    0.0000 O   0  0  0  0  0  0  0  0  0  0  0  0
  1  2  1  0  0  0  0
  2  3  1  0  0  0  0
  2  7  2  0  0  0  0
  3  4  2  0  0  0  0
  4  5  1  0  0  0  0
  5  6  2  0  0  0  0
  5  8  1  0  0  0  0
  6  7  1  0  0  0  0
  8  9  1  0  0  0  0
  8 20  1  0  0  0  0
  9 10  1  0  0  0  0
 10 11  1  0  0  0  0
 10 15  2  0  0  0  0
 11 12  2  0  0  0  0
 12 13  1  0  0  0  0
 13 14  2  0  0  0  0
 13 16  1  0  0  0  0
 14 15  1  0  0  0  0
 16 17  1  0  0  0  0
 16 18  1  0  0  0  0
 16 19  1  0  0  0  0
 20 21  1  0  0  0  0
 20 28  2  0  0  0  0
 21 22  1  0  0  0  0
 22 23  1  0  0  0  0
 23 24  1  0  0  0  0
 24 25  1  0  0  0  0
 25 26  2  0  0  0  0
 25 27  1  0  0  0  0
M  END
>  <Index>
1379

>  <ID>
HT3797

>  <class>
0

>  <apol>
52.934483

>  <ast_fraglike>
0

>  <ast_fraglike_ext>
0

>  <ast_violation>
2

>  <ast_violation_ext>
3

>  <a_acc>
3

>  <a_acid>
0

>  <a_aro>
12

>  <a_base>
0

>  <a_count>
45

>  <a_don>
1

>  <a_donacc>
4

>  <a_heavy>
28

>  <a_hyd>
21

>  <a_IC>
84.181007

>  <a_ICM>
1.8706892

>  <a_nB>
0

>  <a_nBr>
0

>  <a_nC>
19

>  <a_nCl>
1

>  <a_nF>
3

>  <a_nH>
17

>  <a_nI>
0

>  <a_nN>
1

>  <a_nO>
4

>  <a_nP>
0

>  <a_nS>
0

>  <balabanJ>
1.8920398

>  <BCUT_PEOE_0>
-2.4865873

>  <BCUT_PEOE_1>
-0.59298867

>  <BCUT_PEOE_2>
0.60097218

>  <BCUT_PEOE_3>
2.4915421

>  <BCUT_SLOGP_0>
-2.6853116

>  <BCUT_SLOGP_1>
-0.52629513

>  <BCUT_SLOGP_2>
0.75302702

>  <BCUT_SLOGP_3>
2.5024431

>  <BCUT_SMR_0>
-2.2329235

>  <BCUT_SMR_1>
-0.37748426

>  <BCUT_SMR_2>
0.85431087

>  <BCUT_SMR_3>
2.7303967

>  <bpol>
29.021519

>  <b_1rotN>
7

>  <b_1rotR>
0.24137931

>  <b_ar>
12

>  <b_count>
46

>  <b_double>
2

>  <b_heavy>
29

>  <b_max1len>
4

>  <b_rotN>
10

>  <b_rotR>
0.34482759

>  <b_single>
32

>  <b_triple>
0

>  <chi0>
20.733841

>  <chi0v>
15.511146

>  <chi0v_C>
11.110366

>  <chi0_C>
12.612519

>  <chi1>
13.163722

>  <chi1v>
8.5484056

>  <chi1v_C>
5.4700847

>  <chi1_C>
7.2986784

>  <chiral>
1

>  <chiral_u>
1

>  <density>
0.86588186

>  <diameter>
14

>  <FCharge>
0

>  <GCUT_PEOE_0>
-0.8345831

>  <GCUT_PEOE_1>
-0.38980523

>  <GCUT_PEOE_2>
0.074820675

>  <GCUT_PEOE_3>
2.5069058

>  <GCUT_SLOGP_0>
-1.1619182

>  <GCUT_SLOGP_1>
-0.27498463

>  <GCUT_SLOGP_2>
0.19260943

>  <GCUT_SLOGP_3>
2.5980031

>  <GCUT_SMR_0>
-0.50698727

>  <GCUT_SMR_1>
-0.21605732

>  <GCUT_SMR_2>
0.19305076

>  <GCUT_SMR_3>
2.7644918

>  <Kier1>
24.271107

>  <Kier2>
11.4075

>  <Kier3>
8.3456793

>  <KierA1>
19.206673

>  <KierA2>
8.943964

>  <KierA3>
6.5003424

>  <KierFlex>
6.1351352

>  <lip_acc>
5

>  <lip_don>
1

>  <lip_druglike>
1

>  <lip_violation>
0

>  <logP(o/w)>
4.0714998

>  <logS>
-5.5820999

>  <mr>
10.012785

>  <mutagenic>
0

>  <nmol>
1

>  <opr_brigid>
12

>  <opr_leadlike>
1

>  <opr_nring>
2

>  <opr_nrot>
7

>  <opr_violation>
1

>  <PC+>
0

>  <PC->
0

>  <PEOE_PC+>
2.469208

>  <PEOE_PC->
-2.469208

>  <PEOE_RPC+>
0.16905135

>  <PEOE_RPC->
0.14335077

>  <PEOE_VSA+0>
49.255905

>  <PEOE_VSA+1>
81.068367

>  <PEOE_VSA+2>
0

>  <PEOE_VSA+3>
13.523942

>  <PEOE_VSA+4>
12.949531

>  <PEOE_VSA+5>
14.708499

>  <PEOE_VSA+6>
9.0455017

>  <PEOE_VSA-0>
75.737961

>  <PEOE_VSA-1>
54.091755

>  <PEOE_VSA-2>
0

>  <PEOE_VSA-3>
35.725906

>  <PEOE_VSA-4>
0

>  <PEOE_VSA-5>
27.133842

>  <PEOE_VSA-6>
5.1444035

>  <PEOE_VSA_FHYD>
0.81769449

>  <PEOE_VSA_FNEG>
0.52283663

>  <PEOE_VSA_FPNEG>
0.085305154

>  <PEOE_VSA_FPOL>
0.1823055

>  <PEOE_VSA_FPOS>
0.47716334

>  <PEOE_VSA_FPPOS>
0.097000338

>  <PEOE_VSA_HYD>
309.40384

>  <PEOE_VSA_NEG>
197.83386

>  <PEOE_VSA_PNEG>
32.278244

>  <PEOE_VSA_POL>
68.981773

>  <PEOE_VSA_POS>
180.55176

>  <PEOE_VSA_PPOS>
36.703533

>  <petitjean>
0.5

>  <petitjeanSC>
1

>  <Q_PC+>
0

>  <Q_PC->
0

>  <Q_RPC+>
0

>  <Q_RPC->
0

>  <Q_VSA_FHYD>
1

>  <Q_VSA_FNEG>
0

>  <Q_VSA_FPNEG>
0

>  <Q_VSA_FPOL>
0

>  <Q_VSA_FPOS>
1

>  <Q_VSA_FPPOS>
0

>  <Q_VSA_HYD>
378.38562

>  <Q_VSA_NEG>
0

>  <Q_VSA_PNEG>
0

>  <Q_VSA_POL>
0

>  <Q_VSA_POS>
378.38562

>  <Q_VSA_PPOS>
0

>  <radius>
7

>  <reactive>
0

>  <rings>
2

>  <RPC+>
0

>  <RPC->
0

>  <rsynth>
1

>  <SlogP>
4.5651999

>  <SlogP_VSA0>
29.010639

>  <SlogP_VSA1>
13.004248

>  <SlogP_VSA2>
58.724319

>  <SlogP_VSA3>
39.365837

>  <SlogP_VSA4>
6.37115

>  <SlogP_VSA5>
0

>  <SlogP_VSA6>
11.260122

>  <SlogP_VSA7>
141.14548

>  <SlogP_VSA8>
6.4686494

>  <SlogP_VSA9>
122.59843

>  <SMR>
9.6135702

>  <SMR_VSA0>
58.724319

>  <SMR_VSA1>
55.880226

>  <SMR_VSA2>
25.770267

>  <SMR_VSA3>
21.583834

>  <SMR_VSA4>
0

>  <SMR_VSA5>
141.14548

>  <SMR_VSA6>
52.370083

>  <SMR_VSA7>
72.474655

>  <TPSA>
64.629997

>  <VAdjEq>
0.38060221

>  <VAdjMa>
5.8579812

>  <VDistEq>
3.6338046

>  <VDistMa>
9.3265219

>  <vdw_area>
378.38562

>  <vdw_vol>
480.19827

>  <vsa_acc>
29.637598

>  <vsa_acid>
0

>  <vsa_base>
0

>  <vsa_don>
5.6825762

>  <vsa_hyd>
298.44162

>  <vsa_other>
30.161787

>  <vsa_pol>
35.320175

>  <Weight>
415.79498

>  <weinerPath>
2264

>  <weinerPol>
39

>  <zagreb>
138

$$$$