O=C(Nc1ccccc1)CCCCCCC(=O)NO
  MOE2013           2D

 19 19  0  0  0  0  0  0  0  0999 V2000
    0.0000    0.0000    0.0000 O   0  0  0  0  0  0  0  0  0  0  0  0
    0.7540    1.2970    0.0000 C   0  0  0  0  0  0  0  0  0  0  0  0
    0.0080    2.5980    0.0000 N   0  0  0  0  0  0  0  0  0  0  0  0
   -1.4920    2.6030    0.0000 C   0  0  0  0  0  0  0  0  0  0  0  0
   -2.2460    1.3060    0.0000 C   0  0  0  0  0  0  0  0  0  0  0  0
   -3.7460    1.3100    0.0000 C   0  0  0  0  0  0  0  0  0  0  0  0
   -4.4920    2.6110    0.0000 C   0  0  0  0  0  0  0  0  0  0  0  0
   -3.7380    3.9080    0.0000 C   0  0  0  0  0  0  0  0  0  0  0  0
   -2.2380    3.9040    0.0000 C   0  0  0  0  0  0  0  0  0  0  0  0
    2.2540    1.2920    0.0000 C   0  0  0  0  0  0  0  0  0  0  0  0
    3.0000   -0.0090    0.0000 C   0  0  0  0  0  0  0  0  0  0  0  0
    4.5000   -0.0130    0.0000 C   0  0  0  0  0  0  0  0  0  0  0  0
    5.2460   -1.3150    0.0000 C   0  0  0  0  0  0  0  0  0  0  0  0
    6.7460   -1.3190    0.0000 C   0  0  0  0  0  0  0  0  0  0  0  0
    7.4920   -2.6200    0.0000 C   0  0  0  0  0  0  0  0  0  0  0  0
    8.9920   -2.6250    0.0000 C   0  0  0  0  0  0  0  0  0  0  0  0
    9.7460   -1.3280    0.0000 O   0  0  0  0  0  0  0  0  0  0  0  0
    9.7380   -3.9260    0.0000 N   0  0  0  0  0  0  0  0  0  0  0  0
   11.2380   -3.9300    0.0000 O   0  0  0  0  0  0  0  0  0  0  0  0
  1  2  2  0  0  0  0
  2  3  1  0  0  0  0
  2 10  1  0  0  0  0
  3  4  1  0  0  0  0
  4  5  1  0  0  0  0
  4  9  2  0  0  0  0
  5  6  2  0  0  0  0
  6  7  1  0  0  0  0
  7  8  2  0  0  0  0
  8  9  1  0  0  0  0
 10 11  1  0  0  0  0
 11 12  1  0  0  0  0
 12 13  1  0  0  0  0
 13 14  1  0  0  0  0
 14 15  1  0  0  0  0
 15 16  1  0  0  0  0
 16 17  2  0  0  0  0
 16 18  1  0  0  0  0
 18 19  1  0  0  0  0
M  END
>  <Index>
1153

>  <ID>
HT2195

>  <class>
0

>  <apol>
42.58186

>  <ast_fraglike>
1

>  <ast_fraglike_ext>
0

>  <ast_violation>
0

>  <ast_violation_ext>
2

>  <a_acc>
3

>  <a_acid>
0

>  <a_aro>
6

>  <a_base>
0

>  <a_count>
39

>  <a_don>
3

>  <a_donacc>
6

>  <a_heavy>
19

>  <a_hyd>
12

>  <a_IC>
59.63427

>  <a_ICM>
1.5290838

>  <a_nB>
0

>  <a_nBr>
0

>  <a_nC>
14

>  <a_nCl>
0

>  <a_nF>
0

>  <a_nH>
20

>  <a_nI>
0

>  <a_nN>
2

>  <a_nO>
3

>  <a_nP>
0

>  <a_nS>
0

>  <balabanJ>
1.908321

>  <BCUT_PEOE_0>
-2.6537533

>  <BCUT_PEOE_1>
-0.59539145

>  <BCUT_PEOE_2>
0.62442166

>  <BCUT_PEOE_3>
2.6261375

>  <BCUT_SLOGP_0>
-2.5635562

>  <BCUT_SLOGP_1>
-0.5332303

>  <BCUT_SLOGP_2>
0.71094912

>  <BCUT_SLOGP_3>
2.7595019

>  <BCUT_SMR_0>
-2.4112763

>  <BCUT_SMR_1>
-0.42959425

>  <BCUT_SMR_2>
0.77003723

>  <BCUT_SMR_3>
2.8704805

>  <bpol>
23.78014

>  <b_1rotN>
8

>  <b_1rotR>
0.42105263

>  <b_ar>
6

>  <b_count>
39

>  <b_double>
2

>  <b_heavy>
19

>  <b_max1len>
7

>  <b_rotN>
10

>  <b_rotR>
0.52631581

>  <b_single>
31

>  <b_triple>
0

>  <chi0>
13.924439

>  <chi0v>
10.893103

>  <chi0v_C>
8.6293917

>  <chi0_C>
9.5102253

>  <chi1>
9.2195454

>  <chi1v>
6.4996457

>  <chi1v_C>
5.1177902

>  <chi1_C>
6.1329932

>  <chiral>
0

>  <chiral_u>
0

>  <density>
0.7209636

>  <diameter>
14

>  <FCharge>
0

>  <GCUT_PEOE_0>
-0.82497072

>  <GCUT_PEOE_1>
-0.41381896

>  <GCUT_PEOE_2>
0.077625677

>  <GCUT_PEOE_3>
2.4647985

>  <GCUT_SLOGP_0>
-1.1683487

>  <GCUT_SLOGP_1>
-0.31394991

>  <GCUT_SLOGP_2>
0.14930388

>  <GCUT_SLOGP_3>
2.5578806

>  <GCUT_SMR_0>
-0.53088528

>  <GCUT_SMR_1>
-0.22750375

>  <GCUT_SMR_2>
0.19565135

>  <GCUT_SMR_3>
2.7054625

>  <Kier1>
17.052631

>  <Kier2>
10.747934

>  <Kier3>
8.7107754

>  <KierA1>
12.686603

>  <KierA2>
7.8533645

>  <KierA3>
6.2755985

>  <KierFlex>
5.2438164

>  <lip_acc>
5

>  <lip_don>
3

>  <lip_druglike>
1

>  <lip_violation>
0

>  <logP(o/w)>
1.841

>  <logS>
-2.86674

>  <mr>
7.4823999

>  <mutagenic>
1

>  <nmol>
1

>  <opr_brigid>
6

>  <opr_leadlike>
1

>  <opr_nring>
1

>  <opr_nrot>
8

>  <opr_violation>
0

>  <PC+>
0

>  <PC->
0

>  <PEOE_PC+>
1.8464719

>  <PEOE_PC->
-1.8464719

>  <PEOE_RPC+>
0.13225764

>  <PEOE_RPC->
0.1766281

>  <PEOE_VSA+0>
75.286812

>  <PEOE_VSA+1>
21.326929

>  <PEOE_VSA+2>
0

>  <PEOE_VSA+3>
17.238026

>  <PEOE_VSA+4>
36.223236

>  <PEOE_VSA+5>
0

>  <PEOE_VSA+6>
0

>  <PEOE_VSA-0>
41.912434

>  <PEOE_VSA-1>
54.167339

>  <PEOE_VSA-2>
0

>  <PEOE_VSA-3>
0

>  <PEOE_VSA-4>
5.3395767

>  <PEOE_VSA-5>
38.299984

>  <PEOE_VSA-6>
0.13689101

>  <PEOE_VSA_FHYD>
0.72407359

>  <PEOE_VSA_FNEG>
0.48237723

>  <PEOE_VSA_FPNEG>
0.1509891

>  <PEOE_VSA_FPOL>
0.27592644

>  <PEOE_VSA_FPOS>
0.51762277

>  <PEOE_VSA_FPPOS>
0.12493733

>  <PEOE_VSA_HYD>
209.93153

>  <PEOE_VSA_NEG>
139.85623

>  <PEOE_VSA_PNEG>
43.776451

>  <PEOE_VSA_POL>
79.999687

>  <PEOE_VSA_POS>
150.075

>  <PEOE_VSA_PPOS>
36.223236

>  <petitjean>
0.5

>  <petitjeanSC>
1

>  <Q_PC+>
0

>  <Q_PC->
0

>  <Q_RPC+>
0

>  <Q_RPC->
0

>  <Q_VSA_FHYD>
1

>  <Q_VSA_FNEG>
0

>  <Q_VSA_FPNEG>
0

>  <Q_VSA_FPOL>
0

>  <Q_VSA_FPOS>
1

>  <Q_VSA_FPPOS>
0

>  <Q_VSA_HYD>
289.93121

>  <Q_VSA_NEG>
0

>  <Q_VSA_PNEG>
0

>  <Q_VSA_POL>
0

>  <Q_VSA_POS>
289.93121

>  <Q_VSA_PPOS>
0

>  <radius>
7

>  <reactive>
0

>  <rings>
1

>  <RPC+>
0

>  <RPC->
0

>  <rsynth>
1

>  <SlogP>
2.4711001

>  <SlogP_VSA0>
20.625084

>  <SlogP_VSA1>
28.528318

>  <SlogP_VSA2>
73.328537

>  <SlogP_VSA3>
0

>  <SlogP_VSA4>
0

>  <SlogP_VSA5>
0

>  <SlogP_VSA6>
0

>  <SlogP_VSA7>
88.215919

>  <SlogP_VSA8>
113.21043

>  <SlogP_VSA9>
2.7567475

>  <SMR>
7.3545198

>  <SMR_VSA0>
47.724434

>  <SMR_VSA1>
0

>  <SMR_VSA2>
46.229187

>  <SMR_VSA3>
0

>  <SMR_VSA4>
20.767498

>  <SMR_VSA5>
201.42636

>  <SMR_VSA6>
10.517568

>  <SMR_VSA7>
0

>  <TPSA>
78.43

>  <VAdjEq>
0.48546076

>  <VAdjMa>
5.2479277

>  <VDistEq>
3.6087625

>  <VDistMa>
8.1285629

>  <vdw_area>
289.93121

>  <vdw_vol>
366.62738

>  <vsa_acc>
27.133842

>  <vsa_acid>
0

>  <vsa_base>
0

>  <vsa_don>
16.567839

>  <vsa_hyd>
180.59299

>  <vsa_other>
25.899061

>  <vsa_pol>
60.667202

>  <Weight>
264.32498

>  <weinerPath>
954

>  <weinerPol>
20

>  <zagreb>
82

$$$$