S(=O)(CCC1C(=O)N(N(C1=O)c1ccccc1)c1ccccc1)c1ccccc1
  MOE2013           2D

 29 32  0  0  1  0  0  0  0  0999 V2000
    0.0000    0.0000    0.0000 S   0  0  3  0  0  0  0  0  0  0  0  0
    0.7510    1.2990    0.0000 O   0  0  0  0  0  0  0  0  0  0  0  0
   -1.5000    0.0010    0.0000 C   0  0  0  0  0  0  0  0  0  0  0  0
   -2.2490    1.3000    0.0000 C   0  0  0  0  0  0  0  0  0  0  0  0
   -3.7490    1.3010    0.0000 C   0  0  0  0  0  0  0  0  0  0  0  0
   -4.6310    2.5150    0.0000 C   0  0  0  0  0  0  0  0  0  0  0  0
   -4.1660    3.9410    0.0000 O   0  0  0  0  0  0  0  0  0  0  0  0
   -6.0570    2.0520    0.0000 N   0  0  0  0  0  0  0  0  0  0  0  0
   -6.0580    0.5520    0.0000 N   0  0  0  0  0  0  0  0  0  0  0  0
   -4.6320    0.0880    0.0000 C   0  0  0  0  0  0  0  0  0  0  0  0
   -4.1690   -1.3390    0.0000 O   0  0  0  0  0  0  0  0  0  0  0  0
   -7.2720   -0.3290    0.0000 C   0  0  0  0  0  0  0  0  0  0  0  0
   -8.6420    0.2810    0.0000 C   0  0  0  0  0  0  0  0  0  0  0  0
   -9.8560   -0.6000    0.0000 C   0  0  0  0  0  0  0  0  0  0  0  0
   -9.7000   -2.0920    0.0000 C   0  0  0  0  0  0  0  0  0  0  0  0
   -8.3300   -2.7020    0.0000 C   0  0  0  0  0  0  0  0  0  0  0  0
   -7.1160   -1.8210    0.0000 C   0  0  0  0  0  0  0  0  0  0  0  0
   -7.2700    2.9340    0.0000 C   0  0  0  0  0  0  0  0  0  0  0  0
   -8.6410    2.3250    0.0000 C   0  0  0  0  0  0  0  0  0  0  0  0
   -9.8540    3.2070    0.0000 C   0  0  0  0  0  0  0  0  0  0  0  0
   -9.6970    4.6980    0.0000 C   0  0  0  0  0  0  0  0  0  0  0  0
   -8.3260    5.3080    0.0000 C   0  0  0  0  0  0  0  0  0  0  0  0
   -7.1130    4.4260    0.0000 C   0  0  0  0  0  0  0  0  0  0  0  0
    0.7490   -1.2990    0.0000 C   0  0  0  0  0  0  0  0  0  0  0  0
    2.2490   -1.3000    0.0000 C   0  0  0  0  0  0  0  0  0  0  0  0
    2.9990   -2.5990    0.0000 C   0  0  0  0  0  0  0  0  0  0  0  0
    2.2480   -3.8980    0.0000 C   0  0  0  0  0  0  0  0  0  0  0  0
    0.7480   -3.8970    0.0000 C   0  0  0  0  0  0  0  0  0  0  0  0
   -0.0010   -2.5980    0.0000 C   0  0  0  0  0  0  0  0  0  0  0  0
  1  2  2  0  0  0  0
  1  3  1  0  0  0  0
  1 24  1  0  0  0  0
  3  4  1  0  0  0  0
  4  5  1  0  0  0  0
  5  6  1  0  0  0  0
  5 10  1  0  0  0  0
  6  7  2  0  0  0  0
  6  8  1  0  0  0  0
  8  9  1  0  0  0  0
  8 18  1  0  0  0  0
  9 10  1  0  0  0  0
  9 12  1  0  0  0  0
 10 11  2  0  0  0  0
 12 13  1  0  0  0  0
 12 17  2  0  0  0  0
 13 14  2  0  0  0  0
 14 15  1  0  0  0  0
 15 16  2  0  0  0  0
 16 17  1  0  0  0  0
 18 19  1  0  0  0  0
 18 23  2  0  0  0  0
 19 20  2  0  0  0  0
 20 21  1  0  0  0  0
 21 22  2  0  0  0  0
 22 23  1  0  0  0  0
 24 25  1  0  0  0  0
 24 29  2  0  0  0  0
 25 26  2  0  0  0  0
 26 27  1  0  0  0  0
 27 28  2  0  0  0  0
 28 29  1  0  0  0  0
M  END
>  <Index>
1024

>  <ID>
HT1954

>  <class>
0

>  <apol>
61.321861

>  <ast_fraglike>
0

>  <ast_fraglike_ext>
0

>  <ast_violation>
2

>  <ast_violation_ext>
3

>  <a_acc>
3

>  <a_acid>
0

>  <a_aro>
18

>  <a_base>
0

>  <a_count>
49

>  <a_don>
0

>  <a_donacc>
3

>  <a_heavy>
29

>  <a_hyd>
21

>  <a_IC>
77.885406

>  <a_ICM>
1.5894982

>  <a_nB>
0

>  <a_nBr>
0

>  <a_nC>
23

>  <a_nCl>
0

>  <a_nF>
0

>  <a_nH>
20

>  <a_nI>
0

>  <a_nN>
2

>  <a_nO>
3

>  <a_nP>
0

>  <a_nS>
1

>  <balabanJ>
1.435994

>  <BCUT_PEOE_0>
-2.4818373

>  <BCUT_PEOE_1>
-0.63825476

>  <BCUT_PEOE_2>
0.70141345

>  <BCUT_PEOE_3>
2.6875417

>  <BCUT_SLOGP_0>
-2.5665843

>  <BCUT_SLOGP_1>
-0.53807992

>  <BCUT_SLOGP_2>
0.80591482

>  <BCUT_SLOGP_3>
2.5884502

>  <BCUT_SMR_0>
-2.2669435

>  <BCUT_SMR_1>
-0.49986199

>  <BCUT_SMR_2>
0.85431087

>  <BCUT_SMR_3>
2.9369073

>  <bpol>
30.79814

>  <b_1rotN>
6

>  <b_1rotR>
0.1875

>  <b_ar>
18

>  <b_count>
52

>  <b_double>
2

>  <b_heavy>
32

>  <b_max1len>
5

>  <b_rotN>
6

>  <b_rotR>
0.1875

>  <b_single>
32

>  <b_triple>
0

>  <chi0>
20.216969

>  <chi0v>
16.495735

>  <chi0v_C>
13.151818

>  <chi0_C>
15.484917

>  <chi1>
14.164703

>  <chi1v>
10.698723

>  <chi1v_C>
7.2176495

>  <chi1_C>
10.024405

>  <chiral>
0

>  <chiral_u>
0

>  <density>
0.75583637

>  <diameter>
13

>  <FCharge>
0

>  <GCUT_PEOE_0>
-0.86405385

>  <GCUT_PEOE_1>
-0.38390318

>  <GCUT_PEOE_2>
0.081635259

>  <GCUT_PEOE_3>
2.7101431

>  <GCUT_SLOGP_0>
-1.067979

>  <GCUT_SLOGP_1>
-0.33441985

>  <GCUT_SLOGP_2>
0.16445385

>  <GCUT_SLOGP_3>
2.7357454

>  <GCUT_SMR_0>
-0.50684142

>  <GCUT_SMR_1>
-0.21605732

>  <GCUT_SMR_2>
0.19305076

>  <GCUT_SMR_3>
2.9941752

>  <Kier1>
22.203125

>  <Kier2>
10.543388

>  <Kier3>
5.0868044

>  <KierA1>
16.286318

>  <KierA2>
7.641665

>  <KierA3>
3.6543474

>  <KierFlex>
4.2915373

>  <lip_acc>
5

>  <lip_don>
0

>  <lip_druglike>
1

>  <lip_violation>
0

>  <logP(o/w)>
2.9000001

>  <logS>
-5.6749401

>  <mr>
11.561672

>  <mutagenic>
0

>  <nmol>
1

>  <opr_brigid>
23

>  <opr_leadlike>
1

>  <opr_nring>
4

>  <opr_nrot>
6

>  <opr_violation>
0

>  <PC+>
0

>  <PC->
0

>  <PEOE_PC+>
2.2878401

>  <PEOE_PC->
-2.2878401

>  <PEOE_RPC+>
0.11327588

>  <PEOE_RPC->
0.26801571

>  <PEOE_VSA+0>
21.497471

>  <PEOE_VSA+1>
85.910667

>  <PEOE_VSA+2>
10.677375

>  <PEOE_VSA+3>
4.1846013

>  <PEOE_VSA+4>
0

>  <PEOE_VSA+5>
25.899061

>  <PEOE_VSA+6>
0

>  <PEOE_VSA-0>
86.66613

>  <PEOE_VSA-1>
110.29414

>  <PEOE_VSA-2>
0

>  <PEOE_VSA-3>
0

>  <PEOE_VSA-4>
0

>  <PEOE_VSA-5>
27.133842

>  <PEOE_VSA-6>
16.008261

>  <PEOE_VSA_FHYD>
0.82218331

>  <PEOE_VSA_FNEG>
0.61838776

>  <PEOE_VSA_FPNEG>
0.11111323

>  <PEOE_VSA_FPOL>
0.1778167

>  <PEOE_VSA_FPOS>
0.38161224

>  <PEOE_VSA_FPPOS>
0.066703476

>  <PEOE_VSA_HYD>
319.23038

>  <PEOE_VSA_NEG>
240.10237

>  <PEOE_VSA_PNEG>
43.142105

>  <PEOE_VSA_POL>
69.041168

>  <PEOE_VSA_POS>
148.16917

>  <PEOE_VSA_PPOS>
25.899061

>  <petitjean>
0.46153846

>  <petitjeanSC>
0.85714287

>  <Q_PC+>
0

>  <Q_PC->
0

>  <Q_RPC+>
0

>  <Q_RPC->
0

>  <Q_VSA_FHYD>
1

>  <Q_VSA_FNEG>
0

>  <Q_VSA_FPNEG>
0

>  <Q_VSA_FPOL>
0

>  <Q_VSA_FPOS>
1

>  <Q_VSA_FPPOS>
0

>  <Q_VSA_HYD>
388.27155

>  <Q_VSA_NEG>
0

>  <Q_VSA_PNEG>
0

>  <Q_VSA_POL>
0

>  <Q_VSA_POS>
388.27155

>  <Q_VSA_PPOS>
0

>  <radius>
7

>  <reactive>
0

>  <rings>
4

>  <RPC+>
0

>  <RPC->
0

>  <rsynth>
1

>  <SlogP>
3.7955

>  <SlogP_VSA0>
6.0035834

>  <SlogP_VSA1>
34.603413

>  <SlogP_VSA2>
67.273834

>  <SlogP_VSA3>
17.233564

>  <SlogP_VSA4>
4.4107962

>  <SlogP_VSA5>
1.5507339

>  <SlogP_VSA6>
0

>  <SlogP_VSA7>
264.64777

>  <SlogP_VSA8>
18.868406

>  <SlogP_VSA9>
5.513495

>  <SMR>
11.36804

>  <SMR_VSA0>
71.81028

>  <SMR_VSA1>
0

>  <SMR_VSA2>
11.965114

>  <SMR_VSA3>
0

>  <SMR_VSA4>
5.513495

>  <SMR_VSA5>
283.51617

>  <SMR_VSA6>
27.751131

>  <SMR_VSA7>
19.549404

>  <TPSA>
76.900002

>  <VAdjEq>
0.38828552

>  <VAdjMa>
6

>  <VDistEq>
3.493377

>  <VDistMa>
9.4430037

>  <vdw_area>
388.27155

>  <vdw_vol>
535.15552

>  <vsa_acc>
43.142105

>  <vsa_acid>
0

>  <vsa_base>
0

>  <vsa_don>
0

>  <vsa_hyd>
290.51273

>  <vsa_other>
39.03577

>  <vsa_pol>
43.142105

>  <Weight>
404.48999

>  <weinerPath>
2231

>  <weinerPol>
47

>  <zagreb>
152

$$$$