F[C@@]12[C@H]([C@@H]3C[C@H]4OC(O[C@@]4(C(=O)COC(=O)CC(C)(C)C)[C@]3(C[C@@H]1O)C)(C)C)CCC1=CC(=O)C=C[C@@]12C
  MOE2013           2D

 38 42  0  0  1  0  0  0  0  0999 V2000
    0.0000    0.0000    0.0000 F   0  0  0  0  0  0  0  0  0  0  0  0
    1.5000   -0.0110    0.0000 C   0  0  1  0  0  0  0  0  0  0  0  0
    0.7600    1.2930    0.0000 C   0  0  2  0  0  0  0  0  0  0  0  0
   -0.7400    1.3050    0.0000 C   0  0  2  0  0  0  0  0  0  0  0  0
   -1.7350    2.4270    0.0000 C   0  0  0  0  0  0  0  0  0  0  0  0
   -3.1100    1.8270    0.0000 C   0  0  1  0  0  0  0  0  0  0  0  0
   -4.5750    2.1500    0.0000 O   0  0  0  0  0  0  0  0  0  0  0  0
   -5.3350    0.8570    0.0000 C   0  0  0  0  0  0  0  0  0  0  0  0
   -4.3400   -0.2660    0.0000 O   0  0  0  0  0  0  0  0  0  0  0  0
   -2.9650    0.3340    0.0000 C   0  0  2  0  0  0  0  0  0  0  0  0
   -3.1070   -1.1590    0.0000 C   0  0  0  0  0  0  0  0  0  0  0  0
   -1.8850   -2.0290    0.0000 O   0  0  0  0  0  0  0  0  0  0  0  0
   -4.4710   -1.7830    0.0000 C   0  0  0  0  0  0  0  0  0  0  0  0
   -4.6130   -3.2760    0.0000 O   0  0  0  0  0  0  0  0  0  0  0  0
   -5.9770   -3.9000    0.0000 C   0  0  0  0  0  0  0  0  0  0  0  0
   -7.1990   -3.0300    0.0000 O   0  0  0  0  0  0  0  0  0  0  0  0
   -6.1190   -5.3930    0.0000 C   0  0  0  0  0  0  0  0  0  0  0  0
   -7.4830   -6.0170    0.0000 C   0  0  0  0  0  0  0  0  0  0  0  0
   -8.8480   -6.6400    0.0000 C   0  0  0  0  0  0  0  0  0  0  0  0
   -8.1070   -4.6520    0.0000 C   0  0  0  0  0  0  0  0  0  0  0  0
   -6.8600   -7.3810    0.0000 C   0  0  0  0  0  0  0  0  0  0  0  0
   -1.5000    0.0110    0.0000 C   0  0  1  0  0  0  0  0  0  0  0  0
   -0.7600   -1.2930    0.0000 C   0  0  0  0  0  0  0  0  0  0  0  0
    0.7400   -1.3050    0.0000 C   0  0  2  0  0  0  0  0  0  0  0  0
    1.4800   -2.6090    0.0000 O   0  0  0  0  0  0  0  0  0  0  0  0
   -2.5690   -1.0410    0.0000 C   0  0  0  0  0  0  0  0  0  0  0  0
   -6.5510   -0.0210    0.0000 C   0  0  0  0  0  0  0  0  0  0  0  0
   -6.6750    1.5300    0.0000 C   0  0  0  0  0  0  0  0  0  0  0  0
    1.5200    2.5870    0.0000 C   0  0  0  0  0  0  0  0  0  0  0  0
    3.0200    2.5750    0.0000 C   0  0  0  0  0  0  0  0  0  0  0  0
    3.7600    1.2710    0.0000 C   0  0  0  0  0  0  0  0  0  0  0  0
    5.2600    1.2590    0.0000 C   0  0  0  0  0  0  0  0  0  0  0  0
    6.0000   -0.0450    0.0000 C   0  0  0  0  0  0  0  0  0  0  0  0
    7.5000   -0.0570    0.0000 O   0  0  0  0  0  0  0  0  0  0  0  0
    5.2400   -1.3390    0.0000 C   0  0  0  0  0  0  0  0  0  0  0  0
    3.7400   -1.3270    0.0000 C   0  0  0  0  0  0  0  0  0  0  0  0
    3.0000   -0.0230    0.0000 C   0  0  2  0  0  0  0  0  0  0  0  0
    2.2400   -1.3160    0.0000 C   0  0  0  0  0  0  0  0  0  0  0  0
  2  1  1  6  0  0  0
  2  3  1  0  0  0  0
  2 24  1  0  0  0  0
  2 37  1  0  0  0  0
  3  4  1  0  0  0  0
  3 29  1  6  0  0  0
  4  5  1  1  0  0  0
  4 22  1  0  0  0  0
  5  6  1  0  0  0  0
  6  7  1  6  0  0  0
  6 10  1  0  0  0  0
  7  8  1  0  0  0  0
  8  9  1  0  0  0  0
  8 27  1  0  0  0  0
  8 28  1  0  0  0  0
  9 10  1  0  0  0  0
 10 11  1  1  0  0  0
 10 22  1  0  0  0  0
 11 12  2  0  0  0  0
 11 13  1  0  0  0  0
 13 14  1  0  0  0  0
 14 15  1  0  0  0  0
 15 16  2  0  0  0  0
 15 17  1  0  0  0  0
 17 18  1  0  0  0  0
 18 19  1  0  0  0  0
 18 20  1  0  0  0  0
 18 21  1  0  0  0  0
 22 23  1  0  0  0  0
 22 26  1  1  0  0  0
 23 24  1  0  0  0  0
 24 25  1  1  0  0  0
 29 30  1  0  0  0  0
 30 31  1  0  0  0  0
 31 32  2  0  0  0  0
 31 37  1  0  0  0  0
 32 33  1  0  0  0  0
 33 34  2  0  0  0  0
 33 35  1  0  0  0  0
 35 36  2  0  0  0  0
 36 37  1  0  0  0  0
 37 38  1  1  0  0  0
M  END
>  <Index>
1104

>  <ID>
HT2108

>  <class>
0

>  <apol>
86.309509

>  <ast_fraglike>
0

>  <ast_fraglike_ext>
0

>  <ast_violation>
3

>  <ast_violation_ext>
4

>  <a_acc>
6

>  <a_acid>
0

>  <a_aro>
0

>  <a_base>
0

>  <a_count>
79

>  <a_don>
1

>  <a_donacc>
7

>  <a_heavy>
38

>  <a_hyd>
27

>  <a_IC>
111.48084

>  <a_ICM>
1.41115

>  <a_nB>
0

>  <a_nBr>
0

>  <a_nC>
30

>  <a_nCl>
0

>  <a_nF>
1

>  <a_nH>
41

>  <a_nI>
0

>  <a_nN>
0

>  <a_nO>
7

>  <a_nP>
0

>  <a_nS>
0

>  <balabanJ>
1.4743911

>  <BCUT_PEOE_0>
-2.8983908

>  <BCUT_PEOE_1>
-0.36532563

>  <BCUT_PEOE_2>
0.3102074

>  <BCUT_PEOE_3>
3.0184782

>  <BCUT_SLOGP_0>
-2.9222789

>  <BCUT_SLOGP_1>
-0.2914272

>  <BCUT_SLOGP_2>
0.3281531

>  <BCUT_SLOGP_3>
2.9911728

>  <BCUT_SMR_0>
-2.6730359

>  <BCUT_SMR_1>
-0.16629274

>  <BCUT_SMR_2>
0.5293504

>  <BCUT_SMR_3>
3.2365966

>  <bpol>
54.646488

>  <b_1rotN>
4

>  <b_1rotR>
0.095238097

>  <b_ar>
0

>  <b_count>
83

>  <b_double>
5

>  <b_heavy>
42

>  <b_max1len>
4

>  <b_rotN>
6

>  <b_rotR>
0.14285715

>  <b_single>
78

>  <b_triple>
0

>  <chi0>
28.104084

>  <chi0v>
23.55876

>  <chi0v_C>
20.284092

>  <chi0_C>
20.982763

>  <chi1>
17.395084

>  <chi1v>
13.777255

>  <chi1v_C>
11.376828

>  <chi1_C>
12.208528

>  <chiral>
8

>  <chiral_u>
0

>  <density>
0.74739635

>  <diameter>
16

>  <FCharge>
0

>  <GCUT_PEOE_0>
-0.79459667

>  <GCUT_PEOE_1>
-0.35670745

>  <GCUT_PEOE_2>
-0.09178552

>  <GCUT_PEOE_3>
3.4790194

>  <GCUT_SLOGP_0>
-0.94639444

>  <GCUT_SLOGP_1>
-0.27694452

>  <GCUT_SLOGP_2>
-0.014220564

>  <GCUT_SLOGP_3>
3.4875324

>  <GCUT_SMR_0>
-0.53672814

>  <GCUT_SMR_1>
-0.18266082

>  <GCUT_SMR_2>
0.087031439

>  <GCUT_SMR_3>
3.6909106

>  <Kier1>
29.490931

>  <Kier2>
9.25

>  <Kier3>
4.2756152

>  <KierA1>
26.122868

>  <KierA2>
8.1657019

>  <KierA3>
3.7654421

>  <KierFlex>
5.613462

>  <lip_acc>
7

>  <lip_don>
1

>  <lip_druglike>
1

>  <lip_violation>
1

>  <logP(o/w)>
5.3959999

>  <logS>
-6.4881301

>  <mr>
13.805945

>  <mutagenic>
0

>  <nmol>
1

>  <opr_brigid>
24

>  <opr_leadlike>
0

>  <opr_nring>
5

>  <opr_nrot>
5

>  <opr_violation>
2

>  <PC+>
0

>  <PC->
0

>  <PEOE_PC+>
3.0726829

>  <PEOE_PC->
-3.0726829

>  <PEOE_RPC+>
0.085610636

>  <PEOE_RPC->
0.12646297

>  <PEOE_VSA+0>
149.45905

>  <PEOE_VSA+1>
39.667561

>  <PEOE_VSA+2>
14.951293

>  <PEOE_VSA+3>
18.025583

>  <PEOE_VSA+4>
10.324173

>  <PEOE_VSA+5>
14.708499

>  <PEOE_VSA+6>
0

>  <PEOE_VSA-0>
115.55809

>  <PEOE_VSA-1>
89.454155

>  <PEOE_VSA-2>
0

>  <PEOE_VSA-3>
0

>  <PEOE_VSA-4>
11.908636

>  <PEOE_VSA-5>
40.700764

>  <PEOE_VSA-6>
15.278809

>  <PEOE_VSA_FHYD>
0.82131857

>  <PEOE_VSA_FNEG>
0.52477163

>  <PEOE_VSA_FPNEG>
0.13054505

>  <PEOE_VSA_FPOL>
0.17868142

>  <PEOE_VSA_FPOS>
0.47522837

>  <PEOE_VSA_FPPOS>
0.048136365

>  <PEOE_VSA_HYD>
427.11572

>  <PEOE_VSA_NEG>
272.90045

>  <PEOE_VSA_PNEG>
67.888206

>  <PEOE_VSA_POL>
92.920876

>  <PEOE_VSA_POS>
247.13615

>  <PEOE_VSA_PPOS>
25.032671

>  <petitjean>
0.5

>  <petitjeanSC>
1

>  <Q_PC+>
0

>  <Q_PC->
0

>  <Q_RPC+>
0

>  <Q_RPC->
0

>  <Q_VSA_FHYD>
1

>  <Q_VSA_FNEG>
0

>  <Q_VSA_FPNEG>
0

>  <Q_VSA_FPOL>
0

>  <Q_VSA_FPOS>
1

>  <Q_VSA_FPPOS>
0

>  <Q_VSA_HYD>
520.03662

>  <Q_VSA_NEG>
0

>  <Q_VSA_PNEG>
0

>  <Q_VSA_POL>
0

>  <Q_VSA_POS>
520.03662

>  <Q_VSA_PPOS>
0

>  <radius>
8

>  <reactive>
1

>  <rings>
5

>  <RPC+>
0

>  <RPC->
0

>  <rsynth>
0.5

>  <SlogP>
4.4059

>  <SlogP_VSA0>
25.385227

>  <SlogP_VSA1>
19.120686

>  <SlogP_VSA2>
117.52361

>  <SlogP_VSA3>
20.926258

>  <SlogP_VSA4>
8.8215923

>  <SlogP_VSA5>
3.185575

>  <SlogP_VSA6>
0

>  <SlogP_VSA7>
52.929554

>  <SlogP_VSA8>
94.342026

>  <SlogP_VSA9>
248.24222

>  <SMR>
13.65438

>  <SMR_VSA0>
104.58631

>  <SMR_VSA1>
40.345341

>  <SMR_VSA2>
8.8215923

>  <SMR_VSA3>
16.122873

>  <SMR_VSA4>
0

>  <SMR_VSA5>
147.27158

>  <SMR_VSA6>
40.046944

>  <SMR_VSA7>
233.2821

>  <TPSA>
99.129997

>  <VAdjEq>
0.32014427

>  <VAdjMa>
6.3923173

>  <VDistEq>
3.6583562

>  <VDistMa>
10.223004

>  <vdw_area>
520.03662

>  <vdw_vol>
712.67267

>  <vsa_acc>
45.708275

>  <vsa_acid>
0

>  <vsa_base>
0

>  <vsa_don>
0

>  <vsa_hyd>
389.83688

>  <vsa_other>
35.237839

>  <vsa_pol>
59.275196

>  <Weight>
532.64899

>  <weinerPath>
4181

>  <weinerPol>
84

>  <zagreb>
228

$$$$