O=C1CCC2=C3[C@H]([C@@H]4CC[C@](OC(=O)C)(C(=O)C)[C@]4(C[C@@H]3c3ccc(N(C)C)cc3)C)CCC2=C1
  MOE2013           2D

 35 39  0  0  1  0  0  0  0  0999 V2000
    0.0000    0.0000    0.0000 O   0  0  0  0  0  0  0  0  0  0  0  0
    1.5000   -0.0020    0.0000 C   0  0  0  0  0  0  0  0  0  0  0  0
    2.2480   -1.3020    0.0000 C   0  0  0  0  0  0  0  0  0  0  0  0
    3.7480   -1.3040    0.0000 C   0  0  0  0  0  0  0  0  0  0  0  0
    4.5000   -0.0060    0.0000 C   0  0  0  0  0  0  0  0  0  0  0  0
    6.0000   -0.0080    0.0000 C   0  0  0  0  0  0  0  0  0  0  0  0
    6.7520    1.2900    0.0000 C   0  0  2  0  0  0  0  0  0  0  0  0
    8.2520    1.2870    0.0000 C   0  0  2  0  0  0  0  0  0  0  0  0
    9.2570    2.4010    0.0000 C   0  0  0  0  0  0  0  0  0  0  0  0
   10.6270    1.7890    0.0000 C   0  0  0  0  0  0  0  0  0  0  0  0
   10.4680    0.2970    0.0000 C   0  0  2  0  0  0  0  0  0  0  0  0
   11.9290   -0.0420    0.0000 O   0  0  0  0  0  0  0  0  0  0  0  0
   12.9530    1.0530    0.0000 C   0  0  0  0  0  0  0  0  0  0  0  0
   12.5170    2.4880    0.0000 O   0  0  0  0  0  0  0  0  0  0  0  0
   14.4140    0.7140    0.0000 C   0  0  0  0  0  0  0  0  0  0  0  0
   10.8540   -1.1520    0.0000 C   0  0  0  0  0  0  0  0  0  0  0  0
   12.3020   -1.5430    0.0000 O   0  0  0  0  0  0  0  0  0  0  0  0
    9.7920   -2.2110    0.0000 C   0  0  0  0  0  0  0  0  0  0  0  0
    9.0000   -0.0130    0.0000 C   0  0  1  0  0  0  0  0  0  0  0  0
    8.2480   -1.3110    0.0000 C   0  0  0  0  0  0  0  0  0  0  0  0
    6.7480   -1.3090    0.0000 C   0  0  2  0  0  0  0  0  0  0  0  0
    5.9960   -2.6070    0.0000 C   0  0  0  0  0  0  0  0  0  0  0  0
    4.4960   -2.6040    0.0000 C   0  0  0  0  0  0  0  0  0  0  0  0
    3.7450   -3.9020    0.0000 C   0  0  0  0  0  0  0  0  0  0  0  0
    4.4930   -5.2020    0.0000 C   0  0  0  0  0  0  0  0  0  0  0  0
    3.7410   -6.5000    0.0000 N   0  0  0  0  0  0  0  0  0  0  0  0
    4.4890   -7.8010    0.0000 C   0  0  0  0  0  0  0  0  0  0  0  0
    2.2410   -6.4980    0.0000 C   0  0  0  0  0  0  0  0  0  0  0  0
    5.9930   -5.2050    0.0000 C   0  0  0  0  0  0  0  0  0  0  0  0
    6.7450   -3.9070    0.0000 C   0  0  0  0  0  0  0  0  0  0  0  0
    9.8800   -1.2270    0.0000 C   0  0  0  0  0  0  0  0  0  0  0  0
    6.0040    2.5900    0.0000 C   0  0  0  0  0  0  0  0  0  0  0  0
    4.5040    2.5920    0.0000 C   0  0  0  0  0  0  0  0  0  0  0  0
    3.7520    1.2940    0.0000 C   0  0  0  0  0  0  0  0  0  0  0  0
    2.2520    1.2960    0.0000 C   0  0  0  0  0  0  0  0  0  0  0  0
  1  2  2  0  0  0  0
  2  3  1  0  0  0  0
  2 35  1  0  0  0  0
  3  4  1  0  0  0  0
  4  5  1  0  0  0  0
  5  6  2  0  0  0  0
  5 34  1  0  0  0  0
  6  7  1  0  0  0  0
  6 21  1  0  0  0  0
  7  8  1  0  0  0  0
  7 32  1  1  0  0  0
  8  9  1  6  0  0  0
  8 19  1  0  0  0  0
  9 10  1  0  0  0  0
 10 11  1  0  0  0  0
 11 12  1  1  0  0  0
 11 16  1  6  0  0  0
 11 19  1  0  0  0  0
 12 13  1  0  0  0  0
 13 14  2  0  0  0  0
 13 15  1  0  0  0  0
 16 17  2  0  0  0  0
 16 18  1  0  0  0  0
 19 20  1  0  0  0  0
 19 31  1  6  0  0  0
 20 21  1  0  0  0  0
 21 22  1  6  0  0  0
 22 23  1  0  0  0  0
 22 30  2  0  0  0  0
 23 24  2  0  0  0  0
 24 25  1  0  0  0  0
 25 26  1  0  0  0  0
 25 29  2  0  0  0  0
 26 27  1  0  0  0  0
 26 28  1  0  0  0  0
 29 30  1  0  0  0  0
 32 33  1  0  0  0  0
 33 34  1  0  0  0  0
 34 35  2  0  0  0  0
M  END
>  <Index>
1126

>  <ID>
HT2150

>  <class>
0

>  <apol>
81.779343

>  <ast_fraglike>
0

>  <ast_fraglike_ext>
0

>  <ast_violation>
2

>  <ast_violation_ext>
3

>  <a_acc>
3

>  <a_acid>
0

>  <a_aro>
6

>  <a_base>
0

>  <a_count>
72

>  <a_don>
0

>  <a_donacc>
3

>  <a_heavy>
35

>  <a_hyd>
27

>  <a_IC>
96.278107

>  <a_ICM>
1.337196

>  <a_nB>
0

>  <a_nBr>
0

>  <a_nC>
30

>  <a_nCl>
0

>  <a_nF>
0

>  <a_nH>
37

>  <a_nI>
0

>  <a_nN>
1

>  <a_nO>
4

>  <a_nP>
0

>  <a_nS>
0

>  <balabanJ>
1.5025684

>  <BCUT_PEOE_0>
-2.8484902

>  <BCUT_PEOE_1>
-0.49717519

>  <BCUT_PEOE_2>
0.39052776

>  <BCUT_PEOE_3>
2.9380703

>  <BCUT_SLOGP_0>
-2.7916722

>  <BCUT_SLOGP_1>
-0.44812921

>  <BCUT_SLOGP_2>
0.41483676

>  <BCUT_SLOGP_3>
2.9911273

>  <BCUT_SMR_0>
-2.592556

>  <BCUT_SMR_1>
-0.26148543

>  <BCUT_SMR_2>
0.60675454

>  <BCUT_SMR_3>
3.1830173

>  <bpol>
47.218658

>  <b_1rotN>
4

>  <b_1rotR>
0.1025641

>  <b_ar>
6

>  <b_count>
76

>  <b_double>
5

>  <b_heavy>
39

>  <b_max1len>
4

>  <b_rotN>
5

>  <b_rotR>
0.12820514

>  <b_single>
65

>  <b_triple>
0

>  <chi0>
25.120592

>  <chi0v>
21.648756

>  <chi0v_C>
19.56855

>  <chi0_C>
20.836134

>  <chi1>
16.570023

>  <chi1v>
13.017918

>  <chi1v_C>
10.879263

>  <chi1_C>
12.588137

>  <chiral>
5

>  <chiral_u>
0

>  <density>
0.69957453

>  <diameter>
12

>  <FCharge>
0

>  <GCUT_PEOE_0>
-0.84314585

>  <GCUT_PEOE_1>
-0.40060112

>  <GCUT_PEOE_2>
-0.06131712

>  <GCUT_PEOE_3>
3.3712888

>  <GCUT_SLOGP_0>
-0.98072714

>  <GCUT_SLOGP_1>
-0.29162848

>  <GCUT_SLOGP_2>
0.02022705

>  <GCUT_SLOGP_3>
3.4545681

>  <GCUT_SMR_0>
-0.53602725

>  <GCUT_SMR_1>
-0.19757545

>  <GCUT_SMR_2>
0.13340044

>  <GCUT_SMR_3>
3.6158564

>  <Kier1>
26.60092

>  <Kier2>
9.950551

>  <Kier3>
4.3954048

>  <KierA1>
21.462793

>  <KierA2>
7.9750519

>  <KierA3>
3.5057623

>  <KierFlex>
4.8904824

>  <lip_acc>
5

>  <lip_don>
0

>  <lip_druglike>
1

>  <lip_violation>
1

>  <logP(o/w)>
3.97

>  <logS>
-5.7607899

>  <mr>
13.636357

>  <mutagenic>
0

>  <nmol>
1

>  <opr_brigid>
26

>  <opr_leadlike>
0

>  <opr_nring>
5

>  <opr_nrot>
4

>  <opr_violation>
3

>  <PC+>
0

>  <PC->
0

>  <PEOE_PC+>
2.1302121

>  <PEOE_PC->
-2.1302121

>  <PEOE_RPC+>
0.12203547

>  <PEOE_RPC->
0.14108862

>  <PEOE_VSA+0>
170.6409

>  <PEOE_VSA+1>
21.326929

>  <PEOE_VSA+2>
0

>  <PEOE_VSA+3>
16.917038

>  <PEOE_VSA+4>
0

>  <PEOE_VSA+5>
14.708499

>  <PEOE_VSA+6>
0

>  <PEOE_VSA-0>
160.82327

>  <PEOE_VSA-1>
45.466026

>  <PEOE_VSA-2>
0

>  <PEOE_VSA-3>
0

>  <PEOE_VSA-4>
0

>  <PEOE_VSA-5>
40.700764

>  <PEOE_VSA-6>
2.503756

>  <PEOE_VSA_FHYD>
0.87758487

>  <PEOE_VSA_FNEG>
0.52737385

>  <PEOE_VSA_FPNEG>
0.09132465

>  <PEOE_VSA_FPOL>
0.12241511

>  <PEOE_VSA_FPOS>
0.47262615

>  <PEOE_VSA_FPPOS>
0.031090463

>  <PEOE_VSA_HYD>
415.17416

>  <PEOE_VSA_NEG>
249.4938

>  <PEOE_VSA_PNEG>
43.204517

>  <PEOE_VSA_POL>
57.913017

>  <PEOE_VSA_POS>
223.59337

>  <PEOE_VSA_PPOS>
14.708499

>  <petitjean>
0.5

>  <petitjeanSC>
1

>  <Q_PC+>
0

>  <Q_PC->
0

>  <Q_RPC+>
0

>  <Q_RPC->
0

>  <Q_VSA_FHYD>
1

>  <Q_VSA_FNEG>
0

>  <Q_VSA_FPNEG>
0

>  <Q_VSA_FPOL>
0

>  <Q_VSA_FPOS>
1

>  <Q_VSA_FPPOS>
0

>  <Q_VSA_HYD>
473.08716

>  <Q_VSA_NEG>
0

>  <Q_VSA_PNEG>
0

>  <Q_VSA_POL>
0

>  <Q_VSA_POS>
473.08716

>  <Q_VSA_PPOS>
0

>  <radius>
6

>  <reactive>
1

>  <rings>
5

>  <RPC+>
0

>  <RPC->
0

>  <rsynth>
0.34285715

>  <SlogP>
5.5430002

>  <SlogP_VSA0>
3.1243138

>  <SlogP_VSA1>
19.120686

>  <SlogP_VSA2>
82.58654

>  <SlogP_VSA3>
0

>  <SlogP_VSA4>
12.007167

>  <SlogP_VSA5>
75.351097

>  <SlogP_VSA6>
4.4107962

>  <SlogP_VSA7>
88.215919

>  <SlogP_VSA8>
132.07884

>  <SlogP_VSA9>
102.73479

>  <SMR>
13.621

>  <SMR_VSA0>
82.58654

>  <SMR_VSA1>
0

>  <SMR_VSA2>
11.945906

>  <SMR_VSA3>
17.153095

>  <SMR_VSA4>
2.7567475

>  <SMR_VSA5>
220.29475

>  <SMR_VSA6>
19.120686

>  <SMR_VSA7>
165.77242

>  <TPSA>
63.68

>  <VAdjEq>
0.34185782

>  <VAdjMa>
6.2854023

>  <VDistEq>
3.4212282

>  <VDistMa>
10.017466

>  <vdw_area>
473.08716

>  <vdw_vol>
679.88324

>  <vsa_acc>
40.700764

>  <vsa_acid>
0

>  <vsa_base>
0

>  <vsa_don>
0

>  <vsa_hyd>
367.88553

>  <vsa_other>
34.129295

>  <vsa_pol>
40.700764

>  <Weight>
475.629

>  <weinerPath>
3241

>  <weinerPol>
72

>  <zagreb>
200

$$$$