s1c(nnc1NS(=O)(=O)c1ccc(N)cc1)CC
  MOE2013           2D

 18 19  0  0  0  0  0  0  0  0999 V2000
    0.0000    0.0000    0.0000 S   0  0  0  0  0  0  0  0  0  0  0  0
    0.3500    1.4590    0.0000 C   0  0  0  0  0  0  0  0  0  0  0  0
   -0.9280    2.2420    0.0000 N   0  0  0  0  0  0  0  0  0  0  0  0
   -2.0690    1.2680    0.0000 N   0  0  0  0  0  0  0  0  0  0  0  0
   -1.4950   -0.1170    0.0000 C   0  0  0  0  0  0  0  0  0  0  0  0
   -2.2790   -1.3960    0.0000 N   0  0  0  0  0  0  0  0  0  0  0  0
   -3.7790   -1.3570    0.0000 S   0  0  0  0  0  0  0  0  0  0  0  0
   -3.7390    0.1430    0.0000 O   0  0  0  0  0  0  0  0  0  0  0  0
   -3.8180   -2.8560    0.0000 O   0  0  0  0  0  0  0  0  0  0  0  0
   -5.2780   -1.3170    0.0000 C   0  0  0  0  0  0  0  0  0  0  0  0
   -6.0620   -2.5960    0.0000 C   0  0  0  0  0  0  0  0  0  0  0  0
   -7.5620   -2.5570    0.0000 C   0  0  0  0  0  0  0  0  0  0  0  0
   -8.2770   -1.2390    0.0000 C   0  0  0  0  0  0  0  0  0  0  0  0
   -9.7770   -1.1990    0.0000 N   0  0  0  0  0  0  0  0  0  0  0  0
   -7.4930    0.0400    0.0000 C   0  0  0  0  0  0  0  0  0  0  0  0
   -5.9940    0.0010    0.0000 C   0  0  0  0  0  0  0  0  0  0  0  0
    1.7360    2.0320    0.0000 C   0  0  0  0  0  0  0  0  0  0  0  0
    1.9320    3.5190    0.0000 C   0  0  0  0  0  0  0  0  0  0  0  0
  1  2  1  0  0  0  0
  1  5  1  0  0  0  0
  2  3  2  0  0  0  0
  2 17  1  0  0  0  0
  3  4  1  0  0  0  0
  4  5  2  0  0  0  0
  5  6  1  0  0  0  0
  6  7  1  0  0  0  0
  7  8  2  0  0  0  0
  7  9  2  0  0  0  0
  7 10  1  0  0  0  0
 10 11  1  0  0  0  0
 10 16  2  0  0  0  0
 11 12  2  0  0  0  0
 12 13  1  0  0  0  0
 13 14  1  0  0  0  0
 13 15  2  0  0  0  0
 15 16  1  0  0  0  0
 17 18  1  0  0  0  0
M  END
>  <Index>
1014

>  <ID>
HT1940

>  <class>
0

>  <apol>
37.405518

>  <ast_fraglike>
0

>  <ast_fraglike_ext>
0

>  <ast_violation>
1

>  <ast_violation_ext>
2

>  <a_acc>
4

>  <a_acid>
0

>  <a_aro>
11

>  <a_base>
0

>  <a_count>
30

>  <a_don>
2

>  <a_donacc>
6

>  <a_heavy>
18

>  <a_hyd>
10

>  <a_IC>
58.967888

>  <a_ICM>
1.9655962

>  <a_nB>
0

>  <a_nBr>
0

>  <a_nC>
10

>  <a_nCl>
0

>  <a_nF>
0

>  <a_nH>
12

>  <a_nI>
0

>  <a_nN>
4

>  <a_nO>
2

>  <a_nP>
0

>  <a_nS>
2

>  <balabanJ>
1.839452

>  <BCUT_PEOE_0>
-2.3765657

>  <BCUT_PEOE_1>
-0.6473065

>  <BCUT_PEOE_2>
0.49578032

>  <BCUT_PEOE_3>
2.4258966

>  <BCUT_SLOGP_0>
-2.4273751

>  <BCUT_SLOGP_1>
-0.56574219

>  <BCUT_SLOGP_2>
0.62535238

>  <BCUT_SLOGP_3>
2.464788

>  <BCUT_SMR_0>
-2.1310301

>  <BCUT_SMR_1>
-0.46630213

>  <BCUT_SMR_2>
0.86541015

>  <BCUT_SMR_3>
2.7717659

>  <bpol>
23.194485

>  <b_1rotN>
4

>  <b_1rotR>
0.21052632

>  <b_ar>
11

>  <b_count>
31

>  <b_double>
0

>  <b_heavy>
19

>  <b_max1len>
3

>  <b_rotN>
4

>  <b_rotR>
0.21052632

>  <b_single>
20

>  <b_triple>
0

>  <chi0>
13.173362

>  <chi0v>
11.254272

>  <chi0v_C>
6.0165076

>  <chi0_C>
6.8449349

>  <chi1>
8.5091686

>  <chi1v>
7.517406

>  <chi1v_C>
2.8820274

>  <chi1_C>
3.7483482

>  <chiral>
0

>  <chiral_u>
0

>  <density>
0.88099623

>  <diameter>
11

>  <FCharge>
0

>  <GCUT_PEOE_0>
-0.88796133

>  <GCUT_PEOE_1>
-0.39013565

>  <GCUT_PEOE_2>
0.0069599091

>  <GCUT_PEOE_3>
2.307574

>  <GCUT_SLOGP_0>
-1.3342896

>  <GCUT_SLOGP_1>
-0.38053492

>  <GCUT_SLOGP_2>
0.14340205

>  <GCUT_SLOGP_3>
2.3782678

>  <GCUT_SMR_0>
-0.51249135

>  <GCUT_SMR_1>
-0.18235826

>  <GCUT_SMR_2>
0.24856901

>  <GCUT_SMR_3>
2.6128821

>  <Kier1>
14.409972

>  <Kier2>
5.9698215

>  <Kier3>
3.75

>  <KierA1>
12.686603

>  <KierA2>
5.2140307

>  <KierA3>
3.2559292

>  <KierFlex>
3.6749074

>  <lip_acc>
6

>  <lip_don>
3

>  <lip_druglike>
1

>  <lip_violation>
0

>  <logP(o/w)>
1.868

>  <logS>
-2.8998699

>  <mr>
7.2074242

>  <mutagenic>
1

>  <nmol>
1

>  <opr_brigid>
11

>  <opr_leadlike>
1

>  <opr_nring>
2

>  <opr_nrot>
3

>  <opr_violation>
0

>  <PC+>
0

>  <PC->
0

>  <PEOE_PC+>
1.4805031

>  <PEOE_PC->
-1.4805031

>  <PEOE_RPC+>
0.20229565

>  <PEOE_RPC->
0.24512495

>  <PEOE_VSA+0>
52.536289

>  <PEOE_VSA+1>
25.680557

>  <PEOE_VSA+2>
17.238026

>  <PEOE_VSA+3>
29.866226

>  <PEOE_VSA+4>
0

>  <PEOE_VSA+5>
4.1846013

>  <PEOE_VSA+6>
0

>  <PEOE_VSA-0>
55.05336

>  <PEOE_VSA-1>
18.747677

>  <PEOE_VSA-2>
34.546043

>  <PEOE_VSA-3>
0

>  <PEOE_VSA-4>
0

>  <PEOE_VSA-5>
9.4210396

>  <PEOE_VSA-6>
16.072159

>  <PEOE_VSA_FHYD>
0.8873049

>  <PEOE_VSA_FNEG>
0.50822979

>  <PEOE_VSA_FPNEG>
0.096804969

>  <PEOE_VSA_FPOL>
0.1126951

>  <PEOE_VSA_FPOS>
0.49177018

>  <PEOE_VSA_FPPOS>
0.015890127

>  <PEOE_VSA_HYD>
233.66818

>  <PEOE_VSA_NEG>
133.84029

>  <PEOE_VSA_PNEG>
25.493198

>  <PEOE_VSA_POL>
29.677799

>  <PEOE_VSA_POS>
129.50571

>  <PEOE_VSA_PPOS>
4.1846013

>  <petitjean>
0.45454547

>  <petitjeanSC>
0.83333331

>  <Q_PC+>
0

>  <Q_PC->
0

>  <Q_RPC+>
0

>  <Q_RPC->
0

>  <Q_VSA_FHYD>
1

>  <Q_VSA_FNEG>
0

>  <Q_VSA_FPNEG>
0

>  <Q_VSA_FPOL>
0

>  <Q_VSA_FPOS>
1

>  <Q_VSA_FPPOS>
0

>  <Q_VSA_HYD>
263.34598

>  <Q_VSA_NEG>
0

>  <Q_VSA_PNEG>
0

>  <Q_VSA_POL>
0

>  <Q_VSA_POS>
263.34598

>  <Q_VSA_PPOS>
0

>  <radius>
6

>  <reactive>
0

>  <rings>
2

>  <RPC+>
0

>  <RPC->
0

>  <rsynth>
1

>  <SlogP>
1.48347

>  <SlogP_VSA0>
32.897186

>  <SlogP_VSA1>
97.902702

>  <SlogP_VSA2>
6.6407428

>  <SlogP_VSA3>
0

>  <SlogP_VSA4>
0.92957383

>  <SlogP_VSA5>
20.41914

>  <SlogP_VSA6>
0

>  <SlogP_VSA7>
70.572739

>  <SlogP_VSA8>
0

>  <SlogP_VSA9>
67.861198

>  <SMR>
7.0949898

>  <SMR_VSA0>
48.171688

>  <SMR_VSA1>
33.326015

>  <SMR_VSA2>
1.5507339

>  <SMR_VSA3>
0.92957383

>  <SMR_VSA4>
19.662491

>  <SMR_VSA5>
122.33833

>  <SMR_VSA6>
0

>  <SMR_VSA7>
71.244446

>  <TPSA>
97.970001

>  <VAdjEq>
0.52150291

>  <VAdjMa>
5.2479277

>  <VDistEq>
3.1328244

>  <VDistMa>
8.0220137

>  <vdw_area>
263.34598

>  <vdw_vol>
322.77551

>  <vsa_acc>
50.858601

>  <vsa_acid>
0

>  <vsa_base>
0

>  <vsa_don>
25.817696

>  <vsa_hyd>
147.7713

>  <vsa_other>
23.272232

>  <vsa_pol>
76.6763

>  <Weight>
284.36401

>  <weinerPath>
639

>  <weinerPol>
24

>  <zagreb>
92

$$$$