F[C@@]12[C@H]([C@@H]3C[C@@H](C)[C@](O)(C(=O)CO)[C@]3(C[C@@H]1O)C)CCC1=CC(=O)C=C[C@@]12C
  MOE2013           2D

 28 31  0  0  1  0  0  0  0  0999 V2000
    0.0000    0.0000    0.0000 F   0  0  0  0  0  0  0  0  0  0  0  0
    1.5000    0.0060    0.0000 C   0  0  1  0  0  0  0  0  0  0  0  0
    0.7440    1.3020    0.0000 C   0  0  2  0  0  0  0  0  0  0  0  0
   -0.7560    1.2960    0.0000 C   0  0  2  0  0  0  0  0  0  0  0  0
   -1.7640    2.4060    0.0000 C   0  0  0  0  0  0  0  0  0  0  0  0
   -3.1320    1.7900    0.0000 C   0  0  1  0  0  0  0  0  0  0  0  0
   -4.4340    2.5340    0.0000 C   0  0  0  0  0  0  0  0  0  0  0  0
   -2.9690    0.2990    0.0000 C   0  0  2  0  0  0  0  0  0  0  0  0
   -3.4510   -1.1210    0.0000 O   0  0  0  0  0  0  0  0  0  0  0  0
   -4.4490    0.0580    0.0000 C   0  0  0  0  0  0  0  0  0  0  0  0
   -5.3980    1.2200    0.0000 O   0  0  0  0  0  0  0  0  0  0  0  0
   -4.9810   -1.3450    0.0000 C   0  0  0  0  0  0  0  0  0  0  0  0
   -6.4610   -1.5860    0.0000 O   0  0  0  0  0  0  0  0  0  0  0  0
   -1.5000   -0.0060    0.0000 C   0  0  1  0  0  0  0  0  0  0  0  0
   -0.7440   -1.3020    0.0000 C   0  0  0  0  0  0  0  0  0  0  0  0
    0.7560   -1.2960    0.0000 C   0  0  2  0  0  0  0  0  0  0  0  0
    1.5110   -2.5920    0.0000 O   0  0  0  0  0  0  0  0  0  0  0  0
   -2.3550   -1.2390    0.0000 C   0  0  0  0  0  0  0  0  0  0  0  0
    1.4890    2.6050    0.0000 C   0  0  0  0  0  0  0  0  0  0  0  0
    2.9890    2.6110    0.0000 C   0  0  0  0  0  0  0  0  0  0  0  0
    3.7440    1.3150    0.0000 C   0  0  0  0  0  0  0  0  0  0  0  0
    5.2440    1.3220    0.0000 C   0  0  0  0  0  0  0  0  0  0  0  0
    6.0000    0.0260    0.0000 C   0  0  0  0  0  0  0  0  0  0  0  0
    7.5000    0.0320    0.0000 O   0  0  0  0  0  0  0  0  0  0  0  0
    5.2560   -1.2760    0.0000 C   0  0  0  0  0  0  0  0  0  0  0  0
    3.7560   -1.2830    0.0000 C   0  0  0  0  0  0  0  0  0  0  0  0
    3.0000    0.0130    0.0000 C   0  0  2  0  0  0  0  0  0  0  0  0
    2.2560   -1.2890    0.0000 C   0  0  0  0  0  0  0  0  0  0  0  0
  2  1  1  6  0  0  0
  2  3  1  0  0  0  0
  2 16  1  0  0  0  0
  2 27  1  0  0  0  0
  3  4  1  0  0  0  0
  3 19  1  6  0  0  0
  4  5  1  1  0  0  0
  4 14  1  0  0  0  0
  5  6  1  0  0  0  0
  6  7  1  6  0  0  0
  6  8  1  0  0  0  0
  8  9  1  6  0  0  0
  8 10  1  1  0  0  0
  8 14  1  0  0  0  0
 10 11  2  0  0  0  0
 10 12  1  0  0  0  0
 12 13  1  0  0  0  0
 14 15  1  0  0  0  0
 14 18  1  1  0  0  0
 15 16  1  0  0  0  0
 16 17  1  1  0  0  0
 19 20  1  0  0  0  0
 20 21  1  0  0  0  0
 21 22  2  0  0  0  0
 21 27  1  0  0  0  0
 22 23  1  0  0  0  0
 23 24  2  0  0  0  0
 23 25  1  0  0  0  0
 25 26  2  0  0  0  0
 26 27  1  0  0  0  0
 27 28  1  1  0  0  0
M  END
>  <Index>
136

>  <ID>
HT0273

>  <class>
0

>  <apol>
62.623997

>  <ast_fraglike>
0

>  <ast_fraglike_ext>
0

>  <ast_violation>
2

>  <ast_violation_ext>
3

>  <a_acc>
5

>  <a_acid>
0

>  <a_aro>
0

>  <a_base>
0

>  <a_count>
57

>  <a_don>
3

>  <a_donacc>
8

>  <a_heavy>
28

>  <a_hyd>
21

>  <a_IC>
81.876144

>  <a_ICM>
1.4364237

>  <a_nB>
0

>  <a_nBr>
0

>  <a_nC>
22

>  <a_nCl>
0

>  <a_nF>
1

>  <a_nH>
29

>  <a_nI>
0

>  <a_nN>
0

>  <a_nO>
5

>  <a_nP>
0

>  <a_nS>
0

>  <balabanJ>
1.7703513

>  <BCUT_PEOE_0>
-2.8985395

>  <BCUT_PEOE_1>
-0.51543838

>  <BCUT_PEOE_2>
0.55147099

>  <BCUT_PEOE_3>
3.0000653

>  <BCUT_SLOGP_0>
-2.9231687

>  <BCUT_SLOGP_1>
-0.46517548

>  <BCUT_SLOGP_2>
0.5065102

>  <BCUT_SLOGP_3>
2.9975088

>  <BCUT_SMR_0>
-2.671762

>  <BCUT_SMR_1>
-0.38282046

>  <BCUT_SMR_2>
0.67362058

>  <BCUT_SMR_3>
3.226186

>  <bpol>
34.822002

>  <b_1rotN>
2

>  <b_1rotR>
0.064516127

>  <b_ar>
0

>  <b_count>
60

>  <b_double>
4

>  <b_heavy>
31

>  <b_max1len>
6

>  <b_rotN>
2

>  <b_rotR>
0.064516127

>  <b_single>
56

>  <b_triple>
0

>  <chi0>
20.698307

>  <chi0v>
16.613087

>  <chi0v_C>
14.076985

>  <chi0_C>
14.698306

>  <chi1>
12.963233

>  <chi1v>
10.142335

>  <chi1v_C>
8.7470713

>  <chi1_C>
9.5240755

>  <chiral>
8

>  <chiral_u>
0

>  <density>
0.76204699

>  <diameter>
12

>  <FCharge>
0

>  <GCUT_PEOE_0>
-0.79044366

>  <GCUT_PEOE_1>
-0.41025048

>  <GCUT_PEOE_2>
0.032483771

>  <GCUT_PEOE_3>
3.3745499

>  <GCUT_SLOGP_0>
-0.9486618

>  <GCUT_SLOGP_1>
-0.34128129

>  <GCUT_SLOGP_2>
0.00077885773

>  <GCUT_SLOGP_3>
3.3969519

>  <GCUT_SMR_0>
-0.53789598

>  <GCUT_SMR_1>
-0.22400635

>  <GCUT_SMR_2>
0.15361278

>  <GCUT_SMR_3>
3.59056

>  <Kier1>
21.240376

>  <Kier2>
6.4976859

>  <Kier3>
2.3951247

>  <KierA1>
18.608292

>  <KierA2>
5.6632929

>  <KierA3>
2.0799332

>  <KierFlex>
3.7637215

>  <lip_acc>
5

>  <lip_don>
3

>  <lip_druglike>
1

>  <lip_violation>
0

>  <logP(o/w)>
2.151

>  <logS>
-3.1791301

>  <mr>
10.095338

>  <mutagenic>
0

>  <nmol>
1

>  <opr_brigid>
20

>  <opr_leadlike>
1

>  <opr_nring>
4

>  <opr_nrot>
2

>  <opr_violation>
0

>  <PC+>
0

>  <PC->
0

>  <PEOE_PC+>
2.4572856

>  <PEOE_PC->
-2.4572856

>  <PEOE_RPC+>
0.085775562

>  <PEOE_RPC->
0.15813407

>  <PEOE_VSA+0>
85.307716

>  <PEOE_VSA+1>
30.497244

>  <PEOE_VSA+2>
14.951293

>  <PEOE_VSA+3>
16.917038

>  <PEOE_VSA+4>
30.972517

>  <PEOE_VSA+5>
0

>  <PEOE_VSA+6>
0

>  <PEOE_VSA-0>
78.062737

>  <PEOE_VSA-1>
51.958797

>  <PEOE_VSA-2>
0

>  <PEOE_VSA-3>
0

>  <PEOE_VSA-4>
11.908636

>  <PEOE_VSA-5>
27.133842

>  <PEOE_VSA-6>
23.30262

>  <PEOE_VSA_FHYD>
0.74847847

>  <PEOE_VSA_FNEG>
0.51849103

>  <PEOE_VSA_FPNEG>
0.16804045

>  <PEOE_VSA_FPOL>
0.25152153

>  <PEOE_VSA_FPOS>
0.48150894

>  <PEOE_VSA_FPPOS>
0.083481073

>  <PEOE_VSA_HYD>
277.69482

>  <PEOE_VSA_NEG>
192.36664

>  <PEOE_VSA_PNEG>
62.345097

>  <PEOE_VSA_POL>
93.317619

>  <PEOE_VSA_POS>
178.64581

>  <PEOE_VSA_PPOS>
30.972517

>  <petitjean>
0.5

>  <petitjeanSC>
1

>  <Q_PC+>
0

>  <Q_PC->
0

>  <Q_RPC+>
0

>  <Q_RPC->
0

>  <Q_VSA_FHYD>
1

>  <Q_VSA_FNEG>
0

>  <Q_VSA_FPNEG>
0

>  <Q_VSA_FPOL>
0

>  <Q_VSA_FPOS>
1

>  <Q_VSA_FPPOS>
0

>  <Q_VSA_HYD>
371.01245

>  <Q_VSA_NEG>
0

>  <Q_VSA_PNEG>
0

>  <Q_VSA_POL>
0

>  <Q_VSA_POS>
371.01245

>  <Q_VSA_PPOS>
0

>  <radius>
6

>  <reactive>
1

>  <rings>
4

>  <RPC+>
0

>  <RPC->
0

>  <rsynth>
0.32142857

>  <SlogP>
1.8957

>  <SlogP_VSA0>
76.155678

>  <SlogP_VSA1>
11.375222

>  <SlogP_VSA2>
54.193081

>  <SlogP_VSA3>
20.926258

>  <SlogP_VSA4>
13.232388

>  <SlogP_VSA5>
3.185575

>  <SlogP_VSA6>
0

>  <SlogP_VSA7>
52.929554

>  <SlogP_VSA8>
75.473625

>  <SlogP_VSA9>
114.93816

>  <SMR>
9.9944401

>  <SMR_VSA0>
47.724434

>  <SMR_VSA1>
91.115791

>  <SMR_VSA2>
13.232388

>  <SMR_VSA3>
9.6542244

>  <SMR_VSA4>
0

>  <SMR_VSA5>
128.40317

>  <SMR_VSA6>
32.301479

>  <SMR_VSA7>
99.978043

>  <TPSA>
94.830002

>  <VAdjEq>
0.39893496

>  <VAdjMa>
5.9541965

>  <VDistEq>
3.152231

>  <VDistMa>
9.3609161

>  <vdw_area>
371.01245

>  <vdw_vol>
515.01678

>  <vsa_acc>
27.133842

>  <vsa_acid>
0

>  <vsa_base>
0

>  <vsa_don>
0

>  <vsa_hyd>
250.14459

>  <vsa_other>
16.917038

>  <vsa_pol>
67.834602

>  <Weight>
392.46698

>  <weinerPath>
1670

>  <weinerPol>
70

>  <zagreb>
168

$$$$