O1CC(O)C(O)C1C(O)COC(=O)CCCCCCCC=CCCCCCCC
  MOE2013           2D

 29 29  0  0  1  0  0  0  0  0999 V2000
    0.0000    0.0000    0.0000 O   0  0  0  0  0  0  0  0  0  0  0  0
   -1.4840    0.2150    0.0000 C   0  0  0  0  0  0  0  0  0  0  0  0
   -2.1480   -1.1300    0.0000 C   0  0  3  0  0  0  0  0  0  0  0  0
   -3.6260   -1.3840    0.0000 O   0  0  0  0  0  0  0  0  0  0  0  0
   -1.0740   -2.1770    0.0000 C   0  0  3  0  0  0  0  0  0  0  0  0
   -1.2890   -3.6610    0.0000 O   0  0  0  0  0  0  0  0  0  0  0  0
    0.2540   -1.4780    0.0000 C   0  0  3  0  0  0  0  0  0  0  0  0
    1.5990   -2.1420    0.0000 C   0  0  3  0  0  0  0  0  0  0  0  0
    1.6970   -3.6390    0.0000 O   0  0  0  0  0  0  0  0  0  0  0  0
    2.8460   -1.3090    0.0000 C   0  0  0  0  0  0  0  0  0  0  0  0
    4.1920   -1.9720    0.0000 O   0  0  0  0  0  0  0  0  0  0  0  0
    5.4390   -1.1390    0.0000 C   0  0  0  0  0  0  0  0  0  0  0  0
    5.3410    0.3580    0.0000 O   0  0  0  0  0  0  0  0  0  0  0  0
    6.7840   -1.8030    0.0000 C   0  0  0  0  0  0  0  0  0  0  0  0
    8.0310   -0.9690    0.0000 C   0  0  0  0  0  0  0  0  0  0  0  0
    9.3770   -1.6330    0.0000 C   0  0  0  0  0  0  0  0  0  0  0  0
   10.6240   -0.8000    0.0000 C   0  0  0  0  0  0  0  0  0  0  0  0
   11.9690   -1.4630    0.0000 C   0  0  0  0  0  0  0  0  0  0  0  0
   13.2170   -0.6300    0.0000 C   0  0  0  0  0  0  0  0  0  0  0  0
   14.5620   -1.2940    0.0000 C   0  0  0  0  0  0  0  0  0  0  0  0
   15.8090   -0.4600    0.0000 C   0  0  0  0  0  0  0  0  0  0  0  0
   17.1540   -1.1240    0.0000 C   0  0  0  0  0  0  0  0  0  0  0  0
   18.4020   -0.2910    0.0000 C   0  0  0  0  0  0  0  0  0  0  0  0
   19.7470   -0.9540    0.0000 C   0  0  0  0  0  0  0  0  0  0  0  0
   20.9940   -0.1210    0.0000 C   0  0  0  0  0  0  0  0  0  0  0  0
   22.3390   -0.7850    0.0000 C   0  0  0  0  0  0  0  0  0  0  0  0
   23.5870    0.0490    0.0000 C   0  0  0  0  0  0  0  0  0  0  0  0
   24.9320   -0.6150    0.0000 C   0  0  0  0  0  0  0  0  0  0  0  0
   26.1790    0.2180    0.0000 C   0  0  0  0  0  0  0  0  0  0  0  0
  1  2  1  0  0  0  0
  1  7  1  0  0  0  0
  2  3  1  0  0  0  0
  3  4  1  0  0  0  0
  3  5  1  0  0  0  0
  5  6  1  0  0  0  0
  5  7  1  0  0  0  0
  7  8  1  0  0  0  0
  8  9  1  0  0  0  0
  8 10  1  0  0  0  0
 10 11  1  0  0  0  0
 11 12  1  0  0  0  0
 12 13  2  0  0  0  0
 12 14  1  0  0  0  0
 14 15  1  0  0  0  0
 15 16  1  0  0  0  0
 16 17  1  0  0  0  0
 17 18  1  0  0  0  0
 18 19  1  0  0  0  0
 19 20  1  0  0  0  0
 20 21  1  0  0  0  0
 21 22  2  3  0  0  0
 22 23  1  0  0  0  0
 23 24  1  0  0  0  0
 24 25  1  0  0  0  0
 25 26  1  0  0  0  0
 26 27  1  0  0  0  0
 27 28  1  0  0  0  0
 28 29  1  0  0  0  0
M  END
>  <Index>
1378

>  <ID>
HT3793

>  <class>
0

>  <apol>
73.297302

>  <ast_fraglike>
0

>  <ast_fraglike_ext>
0

>  <ast_violation>
3

>  <ast_violation_ext>
4

>  <a_acc>
5

>  <a_acid>
0

>  <a_aro>
0

>  <a_base>
0

>  <a_count>
71

>  <a_don>
3

>  <a_donacc>
8

>  <a_heavy>
29

>  <a_hyd>
22

>  <a_IC>
90.603012

>  <a_ICM>
1.2760987

>  <a_nB>
0

>  <a_nBr>
0

>  <a_nC>
23

>  <a_nCl>
0

>  <a_nF>
0

>  <a_nH>
42

>  <a_nI>
0

>  <a_nN>
0

>  <a_nO>
6

>  <a_nP>
0

>  <a_nS>
0

>  <balabanJ>
1.8382537

>  <BCUT_PEOE_0>
-2.6910727

>  <BCUT_PEOE_1>
-0.53414035

>  <BCUT_PEOE_2>
0.61065251

>  <BCUT_PEOE_3>
2.7753563

>  <BCUT_SLOGP_0>
-2.7719915

>  <BCUT_SLOGP_1>
-0.5260393

>  <BCUT_SLOGP_2>
0.52009284

>  <BCUT_SLOGP_3>
2.7963543

>  <BCUT_SMR_0>
-2.438432

>  <BCUT_SMR_1>
-0.41523725

>  <BCUT_SMR_2>
0.72257602

>  <BCUT_SMR_3>
2.9671953

>  <bpol>
50.704693

>  <b_1rotN>
17

>  <b_1rotR>
0.58620691

>  <b_ar>
0

>  <b_count>
71

>  <b_double>
2

>  <b_heavy>
29

>  <b_max1len>
9

>  <b_rotN>
18

>  <b_rotR>
0.62068963

>  <b_single>
69

>  <b_triple>
0

>  <chi0>
21.321779

>  <chi0v>
18.137089

>  <chi0v_C>
15.570704

>  <chi0_C>
15.907567

>  <chi1>
14.05775

>  <chi1v>
11.522884

>  <chi1v_C>
9.5269871

>  <chi1_C>
9.9318514

>  <chiral>
4

>  <chiral_u>
4

>  <density>
0.68635291

>  <diameter>
23

>  <FCharge>
0

>  <GCUT_PEOE_0>
-0.80290532

>  <GCUT_PEOE_1>
-0.37931341

>  <GCUT_PEOE_2>
0.096253119

>  <GCUT_PEOE_3>
2.7258093

>  <GCUT_SLOGP_0>
-0.9597013

>  <GCUT_SLOGP_1>
-0.2947289

>  <GCUT_SLOGP_2>
-0.0067170407

>  <GCUT_SLOGP_3>
2.8065391

>  <GCUT_SMR_0>
-0.53407305

>  <GCUT_SMR_1>
-0.21511953

>  <GCUT_SMR_2>
0.1685324

>  <GCUT_SMR_3>
2.93592

>  <Kier1>
27.034483

>  <Kier2>
17.65744

>  <Kier3>
13.108033

>  <KierA1>
25.462545

>  <KierA2>
16.593927

>  <KierA3>
12.298471

>  <KierFlex>
14.569779

>  <lip_acc>
6

>  <lip_don>
3

>  <lip_druglike>
1

>  <lip_violation>
0

>  <logP(o/w)>
3.868

>  <logS>
-6.5673599

>  <mr>
11.554504

>  <mutagenic>
0

>  <nmol>
1

>  <opr_brigid>
6

>  <opr_leadlike>
1

>  <opr_nring>
1

>  <opr_nrot>
18

>  <opr_violation>
1

>  <PC+>
0

>  <PC->
0

>  <PEOE_PC+>
2.9337468

>  <PEOE_PC->
-2.9337468

>  <PEOE_RPC+>
0.089386791

>  <PEOE_RPC->
0.13186584

>  <PEOE_VSA+0>
132.39751

>  <PEOE_VSA+1>
72.55645

>  <PEOE_VSA+2>
19.619715

>  <PEOE_VSA+3>
0

>  <PEOE_VSA+4>
30.972517

>  <PEOE_VSA+5>
14.708499

>  <PEOE_VSA+6>
0

>  <PEOE_VSA-0>
43.506565

>  <PEOE_VSA-1>
104.16668

>  <PEOE_VSA-2>
0

>  <PEOE_VSA-3>
0

>  <PEOE_VSA-4>
0

>  <PEOE_VSA-5>
13.566921

>  <PEOE_VSA-6>
28.310133

>  <PEOE_VSA_FHYD>
0.80957562

>  <PEOE_VSA_FNEG>
0.41224062

>  <PEOE_VSA_FPNEG>
0.091075689

>  <PEOE_VSA_FPOL>
0.19042437

>  <PEOE_VSA_FPOS>
0.58775938

>  <PEOE_VSA_FPPOS>
0.099348679

>  <PEOE_VSA_HYD>
372.24692

>  <PEOE_VSA_NEG>
189.55029

>  <PEOE_VSA_PNEG>
41.877052

>  <PEOE_VSA_POL>
87.558067

>  <PEOE_VSA_POS>
270.2547

>  <PEOE_VSA_PPOS>
45.681019

>  <petitjean>
0.47826087

>  <petitjeanSC>
0.91666669

>  <Q_PC+>
0

>  <Q_PC->
0

>  <Q_RPC+>
0

>  <Q_RPC->
0

>  <Q_VSA_FHYD>
1

>  <Q_VSA_FNEG>
0

>  <Q_VSA_FPNEG>
0

>  <Q_VSA_FPOL>
0

>  <Q_VSA_FPOS>
1

>  <Q_VSA_FPPOS>
0

>  <Q_VSA_HYD>
459.80499

>  <Q_VSA_NEG>
0

>  <Q_VSA_PNEG>
0

>  <Q_VSA_POL>
0

>  <Q_VSA_POS>
459.80499

>  <Q_VSA_PPOS>
0

>  <radius>
12

>  <reactive>
0

>  <rings>
1

>  <RPC+>
0

>  <RPC->
0

>  <rsynth>
0

>  <SlogP>
3.6585

>  <SlogP_VSA0>
76.155678

>  <SlogP_VSA1>
7.7454643

>  <SlogP_VSA2>
71.736588

>  <SlogP_VSA3>
41.852516

>  <SlogP_VSA4>
0

>  <SlogP_VSA5>
0

>  <SlogP_VSA6>
0

>  <SlogP_VSA7>
35.286369

>  <SlogP_VSA8>
245.28928

>  <SlogP_VSA9>
33.326015

>  <SMR>
11.35544

>  <SMR_VSA0>
45.861992

>  <SMR_VSA1>
76.155678

>  <SMR_VSA2>
0

>  <SMR_VSA3>
25.874598

>  <SMR_VSA4>
0

>  <SMR_VSA5>
280.57565

>  <SMR_VSA6>
49.59798

>  <SMR_VSA7>
33.326015

>  <TPSA>
96.220001

>  <VAdjEq>
0.36205125

>  <VAdjMa>
5.8579812

>  <VDistEq>
4.3109798

>  <VDistMa>
9.3359041

>  <vdw_area>
459.80499

>  <vdw_vol>
604.0376

>  <vsa_acc>
16.070677

>  <vsa_acid>
0

>  <vsa_base>
0

>  <vsa_don>
0

>  <vsa_hyd>
344.48691

>  <vsa_other>
17.212255

>  <vsa_pol>
56.771439

>  <Weight>
414.58298

>  <weinerPath>
3508

>  <weinerPol>
33

>  <zagreb>
126

$$$$