O(C(=O)C)C1CC2=CCC3C4CC=C([C@]4(CCC3[C@]2(CC1)C)C)c1cccnc1
  MOE2013           2D

 29 33  0  0  1  0  0  0  0  0999 V2000
    0.0000    0.0000    0.0000 O   0  0  0  0  0  0  0  0  0  0  0  0
    0.7510    1.2980    0.0000 C   0  0  0  0  0  0  0  0  0  0  0  0
    2.2510    1.2970    0.0000 O   0  0  0  0  0  0  0  0  0  0  0  0
    0.0020    2.5980    0.0000 C   0  0  0  0  0  0  0  0  0  0  0  0
   -1.5000    0.0010    0.0000 C   0  0  3  0  0  0  0  0  0  0  0  0
   -2.2510   -1.2970    0.0000 C   0  0  0  0  0  0  0  0  0  0  0  0
   -3.7510   -1.2960    0.0000 C   0  0  0  0  0  0  0  0  0  0  0  0
   -4.5020   -2.5940    0.0000 C   0  0  0  0  0  0  0  0  0  0  0  0
   -6.0020   -2.5930    0.0000 C   0  0  0  0  0  0  0  0  0  0  0  0
   -6.7510   -1.2930    0.0000 C   0  0  3  0  0  0  0  0  0  0  0  0
   -8.2510   -1.2910    0.0000 C   0  0  3  0  0  0  0  0  0  0  0  0
   -9.2560   -2.4050    0.0000 C   0  0  0  0  0  0  0  0  0  0  0  0
  -10.6260   -1.7940    0.0000 C   0  0  0  0  0  0  0  0  0  0  0  0
  -10.4680   -0.3020    0.0000 C   0  0  0  0  0  0  0  0  0  0  0  0
   -9.0000    0.0080    0.0000 C   0  0  1  0  0  0  0  0  0  0  0  0
   -8.2490    1.3070    0.0000 C   0  0  0  0  0  0  0  0  0  0  0  0
   -6.7490    1.3050    0.0000 C   0  0  0  0  0  0  0  0  0  0  0  0
   -6.0000    0.0050    0.0000 C   0  0  3  0  0  0  0  0  0  0  0  0
   -4.5000    0.0040    0.0000 C   0  0  1  0  0  0  0  0  0  0  0  0
   -3.7490    1.3020    0.0000 C   0  0  0  0  0  0  0  0  0  0  0  0
   -2.2490    1.3010    0.0000 C   0  0  0  0  0  0  0  0  0  0  0  0
   -5.2710    1.2910    0.0000 C   0  0  0  0  0  0  0  0  0  0  0  0
   -9.8810    1.2230    0.0000 C   0  0  0  0  0  0  0  0  0  0  0  0
  -11.5810    0.7020    0.0000 C   0  0  0  0  0  0  0  0  0  0  0  0
  -11.2680    2.1690    0.0000 C   0  0  0  0  0  0  0  0  0  0  0  0
  -12.3820    3.1740    0.0000 C   0  0  0  0  0  0  0  0  0  0  0  0
  -13.8090    2.7120    0.0000 C   0  0  0  0  0  0  0  0  0  0  0  0
  -14.1220    1.2450    0.0000 N   0  0  0  0  0  0  0  0  0  0  0  0
  -13.0080    0.2400    0.0000 C   0  0  0  0  0  0  0  0  0  0  0  0
  1  2  1  0  0  0  0
  1  5  1  0  0  0  0
  2  3  2  0  0  0  0
  2  4  1  0  0  0  0
  5  6  1  0  0  0  0
  5 21  1  0  0  0  0
  6  7  1  0  0  0  0
  7  8  2  0  0  0  0
  7 19  1  0  0  0  0
  8  9  1  0  0  0  0
  9 10  1  0  0  0  0
 10 11  1  0  0  0  0
 10 18  1  0  0  0  0
 11 12  1  0  0  0  0
 11 15  1  0  0  0  0
 12 13  1  0  0  0  0
 13 14  2  0  0  0  0
 14 15  1  0  0  0  0
 14 24  1  0  0  0  0
 15 16  1  0  0  0  0
 15 23  1  6  0  0  0
 16 17  1  0  0  0  0
 17 18  1  0  0  0  0
 18 19  1  0  0  0  0
 19 20  1  0  0  0  0
 19 22  1  6  0  0  0
 20 21  1  0  0  0  0
 24 25  1  0  0  0  0
 24 29  2  0  0  0  0
 25 26  2  0  0  0  0
 26 27  1  0  0  0  0
 27 28  2  0  0  0  0
 28 29  1  0  0  0  0
M  END
>  <Index>
13

>  <ID>
HT0044

>  <class>
0

>  <apol>
70.46817

>  <ast_fraglike>
0

>  <ast_fraglike_ext>
0

>  <ast_violation>
2

>  <ast_violation_ext>
2

>  <a_acc>
2

>  <a_acid>
0

>  <a_aro>
6

>  <a_base>
0

>  <a_count>
62

>  <a_don>
0

>  <a_donacc>
2

>  <a_heavy>
29

>  <a_hyd>
25

>  <a_IC>
78.483734

>  <a_ICM>
1.2658666

>  <a_nB>
0

>  <a_nBr>
0

>  <a_nC>
26

>  <a_nCl>
0

>  <a_nF>
0

>  <a_nH>
33

>  <a_nI>
0

>  <a_nN>
1

>  <a_nO>
2

>  <a_nP>
0

>  <a_nS>
0

>  <balabanJ>
1.3175216

>  <BCUT_PEOE_0>
-2.9376414

>  <BCUT_PEOE_1>
-0.53870147

>  <BCUT_PEOE_2>
0.5713473

>  <BCUT_PEOE_3>
2.9130921

>  <BCUT_SLOGP_0>
-2.8508732

>  <BCUT_SLOGP_1>
-0.44136977

>  <BCUT_SLOGP_2>
0.61567628

>  <BCUT_SLOGP_3>
3.0097439

>  <BCUT_SMR_0>
-2.6795099

>  <BCUT_SMR_1>
-0.39123756

>  <BCUT_SMR_2>
0.71888137

>  <BCUT_SMR_3>
3.1773586

>  <bpol>
40.269833

>  <b_1rotN>
2

>  <b_1rotR>
0.060606062

>  <b_ar>
6

>  <b_count>
66

>  <b_double>
3

>  <b_heavy>
33

>  <b_max1len>
2

>  <b_rotN>
3

>  <b_rotR>
0.090909094

>  <b_single>
57

>  <b_triple>
0

>  <chi0>
20.225405

>  <chi0v>
17.986959

>  <chi0v_C>
16.723249

>  <chi0_C>
17.81119

>  <chi1>
13.915487

>  <chi1v>
11.394131

>  <chi1v_C>
10.233783

>  <chi1_C>
11.521641

>  <chiral>
6

>  <chiral_u>
4

>  <density>
0.67829967

>  <diameter>
15

>  <FCharge>
0

>  <GCUT_PEOE_0>
-0.79449987

>  <GCUT_PEOE_1>
-0.36243787

>  <GCUT_PEOE_2>
0.019513812

>  <GCUT_PEOE_3>
3.3085308

>  <GCUT_SLOGP_0>
-0.84635919

>  <GCUT_SLOGP_1>
-0.25695577

>  <GCUT_SLOGP_2>
0.097045049

>  <GCUT_SLOGP_3>
3.4162741

>  <GCUT_SMR_0>
-0.53606468

>  <GCUT_SMR_1>
-0.19220173

>  <GCUT_SMR_2>
0.14757019

>  <GCUT_SMR_3>
3.5512643

>  <Kier1>
20.877869

>  <Kier2>
7.8477507

>  <Kier3>
3.4565377

>  <KierA1>
17.457378

>  <KierA2>
6.517838

>  <KierA3>
2.8565152

>  <KierFlex>
3.9235988

>  <lip_acc>
3

>  <lip_don>
0

>  <lip_druglike>
1

>  <lip_violation>
1

>  <logP(o/w)>
4.072

>  <logS>
-6.1882901

>  <mr>
11.59465

>  <mutagenic>
0

>  <nmol>
1

>  <opr_brigid>
26

>  <opr_leadlike>
0

>  <opr_nring>
5

>  <opr_nrot>
2

>  <opr_violation>
2

>  <PC+>
0

>  <PC->
0

>  <PEOE_PC+>
1.6308769

>  <PEOE_PC->
-1.6308769

>  <PEOE_RPC+>
0.15899718

>  <PEOE_RPC->
0.19116582

>  <PEOE_VSA+0>
163.13954

>  <PEOE_VSA+1>
34.76263

>  <PEOE_VSA+2>
0

>  <PEOE_VSA+3>
0

>  <PEOE_VSA+4>
0

>  <PEOE_VSA+5>
14.708499

>  <PEOE_VSA+6>
0

>  <PEOE_VSA-0>
77.581177

>  <PEOE_VSA-1>
76.468605

>  <PEOE_VSA-2>
0

>  <PEOE_VSA-3>
0

>  <PEOE_VSA-4>
0

>  <PEOE_VSA-5>
19.249496

>  <PEOE_VSA-6>
2.503756

>  <PEOE_VSA_FHYD>
0.9061265

>  <PEOE_VSA_FNEG>
0.452618

>  <PEOE_VSA_FPNEG>
0.05600537

>  <PEOE_VSA_FPOL>
0.093873493

>  <PEOE_VSA_FPOS>
0.547382

>  <PEOE_VSA_FPPOS>
0.037868127

>  <PEOE_VSA_HYD>
351.95197

>  <PEOE_VSA_NEG>
175.80304

>  <PEOE_VSA_PNEG>
21.753254

>  <PEOE_VSA_POL>
36.461754

>  <PEOE_VSA_POS>
212.61067

>  <PEOE_VSA_PPOS>
14.708499

>  <petitjean>
0.46666667

>  <petitjeanSC>
0.875

>  <Q_PC+>
0

>  <Q_PC->
0

>  <Q_RPC+>
0

>  <Q_RPC->
0

>  <Q_VSA_FHYD>
1

>  <Q_VSA_FNEG>
0

>  <Q_VSA_FPNEG>
0

>  <Q_VSA_FPOL>
0

>  <Q_VSA_FPOS>
1

>  <Q_VSA_FPPOS>
0

>  <Q_VSA_HYD>
388.4137

>  <Q_VSA_NEG>
0

>  <Q_VSA_PNEG>
0

>  <Q_VSA_POL>
0

>  <Q_VSA_POS>
388.4137

>  <Q_VSA_PPOS>
0

>  <radius>
8

>  <reactive>
0

>  <rings>
5

>  <RPC+>
0

>  <RPC->
0

>  <rsynth>
0.20689656

>  <SlogP>
5.9693999

>  <SlogP_VSA0>
0

>  <SlogP_VSA1>
24.530994

>  <SlogP_VSA2>
41.330753

>  <SlogP_VSA3>
0

>  <SlogP_VSA4>
16.417963

>  <SlogP_VSA5>
3.185575

>  <SlogP_VSA6>
0

>  <SlogP_VSA7>
108.18703

>  <SlogP_VSA8>
132.07884

>  <SlogP_VSA9>
99.978043

>  <SMR>
11.4854

>  <SMR_VSA0>
34.862103

>  <SMR_VSA1>
16.78553

>  <SMR_VSA2>
13.232388

>  <SMR_VSA3>
12.839799

>  <SMR_VSA4>
3.185575

>  <SMR_VSA5>
237.08029

>  <SMR_VSA6>
7.7454643

>  <SMR_VSA7>
99.978043

>  <TPSA>
39.189999

>  <VAdjEq>
0.39679351

>  <VAdjMa>
6.044394

>  <VDistEq>
3.5504172

>  <VDistMa>
9.405961

>  <vdw_area>
388.4137

>  <vdw_vol>
577.25958

>  <vsa_acc>
19.249496

>  <vsa_acid>
0

>  <vsa_base>
0

>  <vsa_don>
0

>  <vsa_hyd>
324.42755

>  <vsa_other>
17.212255

>  <vsa_pol>
19.249496

>  <Weight>
391.55499

>  <weinerPath>
2174

>  <weinerPol>
57

>  <zagreb>
168

$$$$