Nc1ccc(cc1C)C(=C/1C=C(C)C(=N)C=C1)c1ccc(N)cc1
  MOE2013           2D

 24 26  0  0  0  0  0  0  0  0999 V2000
    0.0000    0.0000    0.0000 N   0  0  0  0  0  0  0  0  0  0  0  0
   -1.2990    0.7500    0.0000 C   0  0  0  0  0  0  0  0  0  0  0  0
   -2.5980    0.0000    0.0000 C   0  0  0  0  0  0  0  0  0  0  0  0
   -3.8970    0.7500    0.0000 C   0  0  0  0  0  0  0  0  0  0  0  0
   -3.8970    2.2500    0.0000 C   0  0  0  0  0  0  0  0  0  0  0  0
   -2.5980    3.0000    0.0000 C   0  0  0  0  0  0  0  0  0  0  0  0
   -1.2990    2.2500    0.0000 C   0  0  0  0  0  0  0  0  0  0  0  0
    0.0000    3.0000    0.0000 C   0  0  0  0  0  0  0  0  0  0  0  0
   -5.1960    3.0000    0.0000 C   0  0  0  0  0  0  0  0  0  0  0  0
   -6.4950    2.2500    0.0000 C   0  0  0  0  0  0  0  0  0  0  0  0
   -7.7940    3.0000    0.0000 C   0  0  0  0  0  0  0  0  0  0  0  0
   -9.0930    2.2500    0.0000 C   0  0  0  0  0  0  0  0  0  0  0  0
  -10.3920    3.0000    0.0000 C   0  0  0  0  0  0  0  0  0  0  0  0
   -9.0930    0.7500    0.0000 C   0  0  0  0  0  0  0  0  0  0  0  0
  -10.3920    0.0000    0.0000 N   0  0  0  0  0  0  0  0  0  0  0  0
   -7.7940    0.0000    0.0000 C   0  0  0  0  0  0  0  0  0  0  0  0
   -6.4950    0.7500    0.0000 C   0  0  0  0  0  0  0  0  0  0  0  0
   -5.1960    4.5000    0.0000 C   0  0  0  0  0  0  0  0  0  0  0  0
   -3.8970    5.2500    0.0000 C   0  0  0  0  0  0  0  0  0  0  0  0
   -3.8970    6.7500    0.0000 C   0  0  0  0  0  0  0  0  0  0  0  0
   -5.1960    7.5000    0.0000 C   0  0  0  0  0  0  0  0  0  0  0  0
   -5.1960    9.0000    0.0000 N   0  0  0  0  0  0  0  0  0  0  0  0
   -6.4950    6.7500    0.0000 C   0  0  0  0  0  0  0  0  0  0  0  0
   -6.4950    5.2500    0.0000 C   0  0  0  0  0  0  0  0  0  0  0  0
  1  2  1  0  0  0  0
  2  3  1  0  0  0  0
  2  7  2  0  0  0  0
  3  4  2  0  0  0  0
  4  5  1  0  0  0  0
  5  6  2  0  0  0  0
  5  9  1  0  0  0  0
  6  7  1  0  0  0  0
  7  8  1  0  0  0  0
  9 10  2  3  0  0  0
  9 18  1  0  0  0  0
 10 11  1  0  0  0  0
 10 17  1  0  0  0  0
 11 12  2  0  0  0  0
 12 13  1  0  0  0  0
 12 14  1  0  0  0  0
 14 15  2  0  0  0  0
 14 16  1  0  0  0  0
 16 17  2  0  0  0  0
 18 19  1  0  0  0  0
 18 24  2  0  0  0  0
 19 20  2  0  0  0  0
 20 21  1  0  0  0  0
 21 22  1  0  0  0  0
 21 23  2  0  0  0  0
 23 24  1  0  0  0  0
M  END
>  <Index>
1332

>  <ID>
HT3442

>  <class>
0

>  <apol>
54.262653

>  <ast_fraglike>
0

>  <ast_fraglike_ext>
0

>  <ast_violation>
2

>  <ast_violation_ext>
2

>  <a_acc>
1

>  <a_acid>
0

>  <a_aro>
12

>  <a_base>
0

>  <a_count>
45

>  <a_don>
3

>  <a_donacc>
4

>  <a_heavy>
24

>  <a_hyd>
20

>  <a_IC>
57.901169

>  <a_ICM>
1.2866926

>  <a_nB>
0

>  <a_nBr>
0

>  <a_nC>
21

>  <a_nCl>
0

>  <a_nF>
0

>  <a_nH>
21

>  <a_nI>
0

>  <a_nN>
3

>  <a_nO>
0

>  <a_nP>
0

>  <a_nS>
0

>  <balabanJ>
1.7400922

>  <BCUT_PEOE_0>
-2.3746116

>  <BCUT_PEOE_1>
-0.64948452

>  <BCUT_PEOE_2>
0.70148081

>  <BCUT_PEOE_3>
2.3316121

>  <BCUT_SLOGP_0>
-2.3523221

>  <BCUT_SLOGP_1>
-0.54137516

>  <BCUT_SLOGP_2>
0.8063125

>  <BCUT_SLOGP_3>
2.4736848

>  <BCUT_SMR_0>
-2.0454531

>  <BCUT_SMR_1>
-0.48218399

>  <BCUT_SMR_2>
0.86843115

>  <BCUT_SMR_3>
2.67395

>  <bpol>
21.637346

>  <b_1rotN>
2

>  <b_1rotR>
0.07692308

>  <b_ar>
12

>  <b_count>
47

>  <b_double>
4

>  <b_heavy>
26

>  <b_max1len>
2

>  <b_rotN>
2

>  <b_rotR>
0.07692308

>  <b_single>
31

>  <b_triple>
0

>  <chi0>
17.26722

>  <chi0v>
13.928204

>  <chi0v_C>
12.273502

>  <chi0_C>
14.26722

>  <chi1>
11.452397

>  <chi1v>
7.8747854

>  <chi1v_C>
7.0474348

>  <chi1_C>
9.7203465

>  <chiral>
0

>  <chiral_u>
0

>  <density>
0.67213023

>  <diameter>
10

>  <FCharge>
0

>  <GCUT_PEOE_0>
-0.81317431

>  <GCUT_PEOE_1>
-0.40106499

>  <GCUT_PEOE_2>
0.07466241

>  <GCUT_PEOE_3>
2.6106126

>  <GCUT_SLOGP_0>
-1.3348668

>  <GCUT_SLOGP_1>
-0.27256984

>  <GCUT_SLOGP_2>
0.16176176

>  <GCUT_SLOGP_3>
2.756249

>  <GCUT_SMR_0>
-0.47903401

>  <GCUT_SMR_1>
-0.2071255

>  <GCUT_SMR_2>
0.20860974

>  <GCUT_SMR_3>
2.9300103

>  <Kier1>
18.781065

>  <Kier2>
8.1314831

>  <Kier3>
4.4114585

>  <KierA1>
12.462758

>  <KierA2>
5.2903166

>  <KierA3>
2.8293934

>  <KierFlex>
2.747164

>  <lip_acc>
3

>  <lip_don>
5

>  <lip_druglike>
1

>  <lip_violation>
0

>  <logP(o/w)>
4.0739999

>  <logS>
-5.2765598

>  <mr>
9.775918

>  <mutagenic>
1

>  <nmol>
1

>  <opr_brigid>
20

>  <opr_leadlike>
1

>  <opr_nring>
3

>  <opr_nrot>
2

>  <opr_violation>
0

>  <PC+>
0

>  <PC->
0

>  <PEOE_PC+>
1.5649422

>  <PEOE_PC->
-1.5649422

>  <PEOE_RPC+>
0.11930865

>  <PEOE_RPC->
0.19314109

>  <PEOE_VSA+0>
38.991417

>  <PEOE_VSA+1>
49.353413

>  <PEOE_VSA+2>
34.476051

>  <PEOE_VSA+3>
8.6190128

>  <PEOE_VSA+4>
0

>  <PEOE_VSA+5>
0

>  <PEOE_VSA+6>
0

>  <PEOE_VSA-0>
124.27602

>  <PEOE_VSA-1>
49.019615

>  <PEOE_VSA-2>
0

>  <PEOE_VSA-3>
0

>  <PEOE_VSA-4>
0

>  <PEOE_VSA-5>
12.196804

>  <PEOE_VSA-6>
13.302238

>  <PEOE_VSA_FHYD>
0.92278504

>  <PEOE_VSA_FNEG>
0.60198021

>  <PEOE_VSA_FPNEG>
0.077214941

>  <PEOE_VSA_FPOL>
0.077214941

>  <PEOE_VSA_FPOS>
0.39801979

>  <PEOE_VSA_FPPOS>
0

>  <PEOE_VSA_HYD>
304.73553

>  <PEOE_VSA_NEG>
198.79468

>  <PEOE_VSA_PNEG>
25.499043

>  <PEOE_VSA_POL>
25.499043

>  <PEOE_VSA_POS>
131.4399

>  <PEOE_VSA_PPOS>
0

>  <petitjean>
0.5

>  <petitjeanSC>
1

>  <Q_PC+>
0

>  <Q_PC->
0

>  <Q_RPC+>
0

>  <Q_RPC->
0

>  <Q_VSA_FHYD>
1

>  <Q_VSA_FNEG>
0

>  <Q_VSA_FPNEG>
0

>  <Q_VSA_FPOL>
0

>  <Q_VSA_FPOS>
1

>  <Q_VSA_FPPOS>
0

>  <Q_VSA_HYD>
330.23456

>  <Q_VSA_NEG>
0

>  <Q_VSA_PNEG>
0

>  <Q_VSA_POL>
0

>  <Q_VSA_POS>
330.23456

>  <Q_VSA_PPOS>
0

>  <radius>
5

>  <reactive>
1

>  <rings>
3

>  <RPC+>
0

>  <RPC->
0

>  <rsynth>
0.041666668

>  <SlogP>
4.3144798

>  <SlogP_VSA0>
65.794373

>  <SlogP_VSA1>
2.7567475

>  <SlogP_VSA2>
0

>  <SlogP_VSA3>
3.185575

>  <SlogP_VSA4>
9.5567245

>  <SlogP_VSA5>
6.37115

>  <SlogP_VSA6>
0

>  <SlogP_VSA7>
208.10381

>  <SlogP_VSA8>
0

>  <SlogP_VSA9>
72.165527

>  <SMR>
10.20295

>  <SMR_VSA0>
0

>  <SMR_VSA1>
0

>  <SMR_VSA2>
34.85754

>  <SMR_VSA3>
15.927875

>  <SMR_VSA4>
5.513495

>  <SMR_VSA5>
242.22621

>  <SMR_VSA6>
2.7567475

>  <SMR_VSA7>
66.652031

>  <TPSA>
75.889999

>  <VAdjEq>
0.43739632

>  <VAdjMa>
5.7004399

>  <VDistEq>
3.1424036

>  <VDistMa>
8.9136305

>  <vdw_area>
330.23456

>  <vdw_vol>
469.28406

>  <vsa_acc>
0

>  <vsa_acid>
0

>  <vsa_base>
0

>  <vsa_don>
35.484978

>  <vsa_hyd>
243.55219

>  <vsa_other>
6.6995511

>  <vsa_pol>
53.22747

>  <Weight>
315.41998

>  <weinerPath>
1270

>  <weinerPol>
39

>  <zagreb>
126

$$$$