S(=O)(=O)(Nc1onc(C)c1C)c1ccc(N)cc1
  MOE2013           2D

 18 19  0  0  0  0  0  0  0  0999 V2000
    0.0000    0.0000    0.0000 S   0  0  0  0  0  0  0  0  0  0  0  0
    0.7600    1.2930    0.0000 O   0  0  0  0  0  0  0  0  0  0  0  0
   -0.7600   -1.2930    0.0000 O   0  0  0  0  0  0  0  0  0  0  0  0
   -1.2930    0.7600    0.0000 N   0  0  0  0  0  0  0  0  0  0  0  0
   -2.5980    0.0210    0.0000 C   0  0  0  0  0  0  0  0  0  0  0  0
   -2.7670   -1.4700    0.0000 O   0  0  0  0  0  0  0  0  0  0  0  0
   -4.2360   -1.7700    0.0000 N   0  0  0  0  0  0  0  0  0  0  0  0
   -4.9760   -0.4650    0.0000 C   0  0  0  0  0  0  0  0  0  0  0  0
   -6.4660   -0.2960    0.0000 C   0  0  0  0  0  0  0  0  0  0  0  0
   -3.9630    0.6420    0.0000 C   0  0  0  0  0  0  0  0  0  0  0  0
   -4.2640    2.1110    0.0000 C   0  0  0  0  0  0  0  0  0  0  0  0
    1.2930   -0.7600    0.0000 C   0  0  0  0  0  0  0  0  0  0  0  0
    2.5980   -0.0210    0.0000 C   0  0  0  0  0  0  0  0  0  0  0  0
    3.8910   -0.7810    0.0000 C   0  0  0  0  0  0  0  0  0  0  0  0
    3.8790   -2.2810    0.0000 C   0  0  0  0  0  0  0  0  0  0  0  0
    5.1720   -3.0410    0.0000 N   0  0  0  0  0  0  0  0  0  0  0  0
    2.5740   -3.0210    0.0000 C   0  0  0  0  0  0  0  0  0  0  0  0
    1.2810   -2.2600    0.0000 C   0  0  0  0  0  0  0  0  0  0  0  0
  1  2  2  0  0  0  0
  1  3  2  0  0  0  0
  1  4  1  0  0  0  0
  1 12  1  0  0  0  0
  4  5  1  0  0  0  0
  5  6  1  0  0  0  0
  5 10  2  0  0  0  0
  6  7  1  0  0  0  0
  7  8  2  0  0  0  0
  8  9  1  0  0  0  0
  8 10  1  0  0  0  0
 10 11  1  0  0  0  0
 12 13  1  0  0  0  0
 12 18  2  0  0  0  0
 13 14  2  0  0  0  0
 14 15  1  0  0  0  0
 15 16  1  0  0  0  0
 15 17  2  0  0  0  0
 17 18  1  0  0  0  0
M  END
>  <Index>
1025

>  <ID>
HT1957

>  <class>
0

>  <apol>
36.634308

>  <ast_fraglike>
1

>  <ast_fraglike_ext>
0

>  <ast_violation>
0

>  <ast_violation_ext>
1

>  <a_acc>
3

>  <a_acid>
0

>  <a_aro>
11

>  <a_base>
0

>  <a_count>
31

>  <a_don>
2

>  <a_donacc>
5

>  <a_heavy>
18

>  <a_hyd>
10

>  <a_IC>
57.910847

>  <a_ICM>
1.8680918

>  <a_nB>
0

>  <a_nBr>
0

>  <a_nC>
11

>  <a_nCl>
0

>  <a_nF>
0

>  <a_nH>
13

>  <a_nI>
0

>  <a_nN>
3

>  <a_nO>
3

>  <a_nP>
0

>  <a_nS>
1

>  <balabanJ>
1.9128264

>  <BCUT_PEOE_0>
-2.3315523

>  <BCUT_PEOE_1>
-0.62337816

>  <BCUT_PEOE_2>
0.33977383

>  <BCUT_PEOE_3>
2.4426053

>  <BCUT_SLOGP_0>
-2.4333379

>  <BCUT_SLOGP_1>
-0.53807992

>  <BCUT_SLOGP_2>
0.5470022

>  <BCUT_SLOGP_3>
2.457588

>  <BCUT_SMR_0>
-2.0341148

>  <BCUT_SMR_1>
-0.48311305

>  <BCUT_SMR_2>
0.65351117

>  <BCUT_SMR_3>
2.777827

>  <bpol>
22.603691

>  <b_1rotN>
3

>  <b_1rotR>
0.15789473

>  <b_ar>
11

>  <b_count>
32

>  <b_double>
0

>  <b_heavy>
19

>  <b_max1len>
3

>  <b_rotN>
3

>  <b_rotR>
0.15789473

>  <b_single>
21

>  <b_triple>
0

>  <chi0>
13.336499

>  <chi0v>
10.783455

>  <chi0v_C>
6.809401

>  <chi0_C>
7.7151785

>  <chi1>
8.3986845

>  <chi1v>
6.6950922

>  <chi1v_C>
3.3213673

>  <chi1_C>
4.4543605

>  <chiral>
0

>  <chiral_u>
0

>  <density>
0.83583289

>  <diameter>
10

>  <FCharge>
0

>  <GCUT_PEOE_0>
-0.93321794

>  <GCUT_PEOE_1>
-0.35586554

>  <GCUT_PEOE_2>
-0.036079213

>  <GCUT_PEOE_3>
2.3689799

>  <GCUT_SLOGP_0>
-1.3342907

>  <GCUT_SLOGP_1>
-0.3766948

>  <GCUT_SLOGP_2>
0.087375678

>  <GCUT_SLOGP_3>
2.437196

>  <GCUT_SMR_0>
-0.48062959

>  <GCUT_SMR_1>
-0.19714174

>  <GCUT_SMR_2>
0.1795931

>  <GCUT_SMR_3>
2.6566839

>  <Kier1>
14.409972

>  <Kier2>
5.5510206

>  <Kier3>
3.3217993

>  <KierA1>
11.660892

>  <KierA2>
4.4318681

>  <KierA3>
2.6257091

>  <KierFlex>
2.8710852

>  <lip_acc>
6

>  <lip_don>
3

>  <lip_druglike>
1

>  <lip_violation>
0

>  <logP(o/w)>
1.077

>  <logS>
-2.19907

>  <mr>
6.8352213

>  <mutagenic>
1

>  <nmol>
1

>  <opr_brigid>
11

>  <opr_leadlike>
1

>  <opr_nring>
2

>  <opr_nrot>
2

>  <opr_violation>
0

>  <PC+>
0

>  <PC->
0

>  <PEOE_PC+>
1.4823785

>  <PEOE_PC->
-1.4823785

>  <PEOE_RPC+>
0.20207436

>  <PEOE_RPC->
0.34620836

>  <PEOE_VSA+0>
56.801674

>  <PEOE_VSA+1>
45.329639

>  <PEOE_VSA+2>
17.238026

>  <PEOE_VSA+3>
10.105608

>  <PEOE_VSA+4>
0

>  <PEOE_VSA+5>
4.1846013

>  <PEOE_VSA+6>
0

>  <PEOE_VSA-0>
64.213699

>  <PEOE_VSA-1>
2.5295215

>  <PEOE_VSA-2>
32.016521

>  <PEOE_VSA-3>
10.885262

>  <PEOE_VSA-4>
0

>  <PEOE_VSA-5>
0

>  <PEOE_VSA-6>
12.553479

>  <PEOE_VSA_FHYD>
0.93458062

>  <PEOE_VSA_FNEG>
0.47760269

>  <PEOE_VSA_FPNEG>
0.049064234

>  <PEOE_VSA_FPOL>
0.065419406

>  <PEOE_VSA_FPOS>
0.52239728

>  <PEOE_VSA_FPPOS>
0.016355168

>  <PEOE_VSA_HYD>
239.11996

>  <PEOE_VSA_NEG>
122.19849

>  <PEOE_VSA_PNEG>
12.553479

>  <PEOE_VSA_POL>
16.738081

>  <PEOE_VSA_POS>
133.65955

>  <PEOE_VSA_PPOS>
4.1846013

>  <petitjean>
0.5

>  <petitjeanSC>
1

>  <Q_PC+>
0

>  <Q_PC->
0

>  <Q_RPC+>
0

>  <Q_RPC->
0

>  <Q_VSA_FHYD>
1

>  <Q_VSA_FNEG>
0

>  <Q_VSA_FPNEG>
0

>  <Q_VSA_FPOL>
0

>  <Q_VSA_FPOS>
1

>  <Q_VSA_FPPOS>
0

>  <Q_VSA_HYD>
255.85803

>  <Q_VSA_NEG>
0

>  <Q_VSA_PNEG>
0

>  <Q_VSA_POL>
0

>  <Q_VSA_POS>
255.85803

>  <Q_VSA_PPOS>
0

>  <radius>
5

>  <reactive>
0

>  <rings>
2

>  <RPC+>
0

>  <RPC->
0

>  <rsynth>
1

>  <SlogP>
1.67444

>  <SlogP_VSA0>
32.897186

>  <SlogP_VSA1>
84.173279

>  <SlogP_VSA2>
6.6407428

>  <SlogP_VSA3>
0

>  <SlogP_VSA4>
5.9423227

>  <SlogP_VSA5>
11.284855

>  <SlogP_VSA6>
0

>  <SlogP_VSA7>
70.572739

>  <SlogP_VSA8>
0

>  <SlogP_VSA9>
74.428772

>  <SMR>
6.7639899

>  <SMR_VSA0>
57.905807

>  <SMR_VSA1>
19.596598

>  <SMR_VSA2>
1.5507339

>  <SMR_VSA3>
5.9423227

>  <SMR_VSA4>
24.181738

>  <SMR_VSA5>
103.46992

>  <SMR_VSA6>
0

>  <SMR_VSA7>
73.29277

>  <TPSA>
98.220001

>  <VAdjEq>
0.52150291

>  <VAdjMa>
5.2479277

>  <VDistEq>
3.0377982

>  <VDistMa>
8.0357285

>  <vdw_area>
255.85803

>  <vdw_vol>
319.81152

>  <vsa_acc>
42.901787

>  <vsa_acid>
0

>  <vsa_base>
0

>  <vsa_don>
25.817696

>  <vsa_hyd>
141.84312

>  <vsa_other>
28.957499

>  <vsa_pol>
68.719482

>  <Weight>
267.30899

>  <weinerPath>
614

>  <weinerPol>
26

>  <zagreb>
94

$$$$