OC(=O)Cc1n(C)c(cc1)C(=O)c1ccc(cc1)C
  MOE2013           2D

 19 20  0  0  0  0  0  0  0  0999 V2000
    0.0000    0.0000    0.0000 O   0  0  0  0  0  0  0  0  0  0  0  0
   -1.4930   -0.1410    0.0000 C   0  0  0  0  0  0  0  0  0  0  0  0
   -2.1180   -1.5050    0.0000 O   0  0  0  0  0  0  0  0  0  0  0  0
   -2.3620    1.0820    0.0000 C   0  0  0  0  0  0  0  0  0  0  0  0
   -3.8550    0.9410    0.0000 C   0  0  0  0  0  0  0  0  0  0  0  0
   -4.8470    2.0660    0.0000 N   0  0  0  0  0  0  0  0  0  0  0  0
   -4.5200    3.5300    0.0000 C   0  0  0  0  0  0  0  0  0  0  0  0
   -6.2240    1.4710    0.0000 C   0  0  0  0  0  0  0  0  0  0  0  0
   -6.0830   -0.0220    0.0000 C   0  0  0  0  0  0  0  0  0  0  0  0
   -4.6190   -0.3500    0.0000 C   0  0  0  0  0  0  0  0  0  0  0  0
   -7.5150    2.2350    0.0000 C   0  0  0  0  0  0  0  0  0  0  0  0
   -7.4990    3.7350    0.0000 O   0  0  0  0  0  0  0  0  0  0  0  0
   -8.8220    1.4990    0.0000 C   0  0  0  0  0  0  0  0  0  0  0  0
   -8.8380   -0.0010    0.0000 C   0  0  0  0  0  0  0  0  0  0  0  0
  -10.1450   -0.7370    0.0000 C   0  0  0  0  0  0  0  0  0  0  0  0
  -11.4360    0.0260    0.0000 C   0  0  0  0  0  0  0  0  0  0  0  0
  -11.4200    1.5260    0.0000 C   0  0  0  0  0  0  0  0  0  0  0  0
  -10.1130    2.2620    0.0000 C   0  0  0  0  0  0  0  0  0  0  0  0
  -12.7430   -0.7100    0.0000 C   0  0  0  0  0  0  0  0  0  0  0  0
  1  2  1  0  0  0  0
  2  3  2  0  0  0  0
  2  4  1  0  0  0  0
  4  5  1  0  0  0  0
  5  6  1  0  0  0  0
  5 10  2  0  0  0  0
  6  7  1  0  0  0  0
  6  8  1  0  0  0  0
  8  9  2  0  0  0  0
  8 11  1  0  0  0  0
  9 10  1  0  0  0  0
 11 12  2  0  0  0  0
 11 13  1  0  0  0  0
 13 14  1  0  0  0  0
 13 18  2  0  0  0  0
 14 15  2  0  0  0  0
 15 16  1  0  0  0  0
 16 17  2  0  0  0  0
 16 19  1  0  0  0  0
 17 18  1  0  0  0  0
M  END
>  <Index>
1087

>  <ID>
HT2084

>  <class>
0

>  <apol>
39.907894

>  <ast_fraglike>
1

>  <ast_fraglike_ext>
0

>  <ast_violation>
0

>  <ast_violation_ext>
1

>  <a_acc>
3

>  <a_acid>
0

>  <a_aro>
11

>  <a_base>
0

>  <a_count>
34

>  <a_don>
2

>  <a_donacc>
5

>  <a_heavy>
19

>  <a_hyd>
13

>  <a_IC>
51.012131

>  <a_ICM>
1.5003568

>  <a_nB>
0

>  <a_nBr>
0

>  <a_nC>
15

>  <a_nCl>
0

>  <a_nF>
0

>  <a_nH>
15

>  <a_nI>
0

>  <a_nN>
1

>  <a_nO>
3

>  <a_nP>
0

>  <a_nS>
0

>  <balabanJ>
1.8860576

>  <BCUT_PEOE_0>
-2.3338168

>  <BCUT_PEOE_1>
-0.55123156

>  <BCUT_PEOE_2>
0.54305327

>  <BCUT_PEOE_3>
2.3940687

>  <BCUT_SLOGP_0>
-2.3536975

>  <BCUT_SLOGP_1>
-0.49624777

>  <BCUT_SLOGP_2>
0.58932579

>  <BCUT_SLOGP_3>
2.4196584

>  <BCUT_SMR_0>
-2.0552003

>  <BCUT_SMR_1>
-0.33646786

>  <BCUT_SMR_2>
0.80369556

>  <BCUT_SMR_3>
2.6727495

>  <bpol>
20.294106

>  <b_1rotN>
4

>  <b_1rotR>
0.2

>  <b_ar>
11

>  <b_count>
35

>  <b_double>
2

>  <b_heavy>
20

>  <b_max1len>
2

>  <b_rotN>
4

>  <b_rotR>
0.2

>  <b_single>
22

>  <b_triple>
0

>  <chi0>
13.991199

>  <chi0v>
10.882133

>  <chi0v_C>
9.1712084

>  <chi0_C>
10.413849

>  <chi1>
8.9860706

>  <chi1v>
5.9654398

>  <chi1v_C>
4.4391575

>  <chi1_C>
6.0100031

>  <chiral>
0

>  <chiral_u>
0

>  <density>
0.73131728

>  <diameter>
11

>  <FCharge>
0

>  <GCUT_PEOE_0>
-0.86341721

>  <GCUT_PEOE_1>
-0.39740255

>  <GCUT_PEOE_2>
0.08030463

>  <GCUT_PEOE_3>
2.4319623

>  <GCUT_SLOGP_0>
-0.88949925

>  <GCUT_SLOGP_1>
-0.28305656

>  <GCUT_SLOGP_2>
0.07358285

>  <GCUT_SLOGP_3>
2.5014575

>  <GCUT_SMR_0>
-0.48519003

>  <GCUT_SMR_1>
-0.21605732

>  <GCUT_SMR_2>
0.20211226

>  <GCUT_SMR_3>
2.7181621

>  <Kier1>
15.39

>  <Kier2>
6.6352043

>  <Kier3>
3.7616327

>  <KierA1>
10.7406

>  <KierA2>
4.5291772

>  <KierA3>
2.5233757

>  <KierFlex>
2.5603199

>  <lip_acc>
4

>  <lip_don>
1

>  <lip_druglike>
1

>  <lip_violation>
0

>  <logP(o/w)>
2.7309999

>  <logS>
-2.6055501

>  <mr>
7.3326173

>  <mutagenic>
0

>  <nmol>
1

>  <opr_brigid>
11

>  <opr_leadlike>
1

>  <opr_nring>
2

>  <opr_nrot>
4

>  <opr_violation>
0

>  <PC+>
0

>  <PC->
0

>  <PEOE_PC+>
1.6049283

>  <PEOE_PC->
-1.6049283

>  <PEOE_RPC+>
0.16535388

>  <PEOE_RPC->
0.21425331

>  <PEOE_VSA+0>
66.269867

>  <PEOE_VSA+1>
40.993179

>  <PEOE_VSA+2>
0

>  <PEOE_VSA+3>
0

>  <PEOE_VSA+4>
18.782692

>  <PEOE_VSA+5>
14.708499

>  <PEOE_VSA+6>
0

>  <PEOE_VSA-0>
43.257484

>  <PEOE_VSA-1>
51.228157

>  <PEOE_VSA-2>
0

>  <PEOE_VSA-3>
0

>  <PEOE_VSA-4>
0

>  <PEOE_VSA-5>
27.133842

>  <PEOE_VSA-6>
7.7675405

>  <PEOE_VSA_FHYD>
0.74682665

>  <PEOE_VSA_FNEG>
0.4789606

>  <PEOE_VSA_FPNEG>
0.12919678

>  <PEOE_VSA_FPOL>
0.25317338

>  <PEOE_VSA_FPOS>
0.52103937

>  <PEOE_VSA_FPPOS>
0.12397659

>  <PEOE_VSA_HYD>
201.74869

>  <PEOE_VSA_NEG>
129.38702

>  <PEOE_VSA_PNEG>
34.901382

>  <PEOE_VSA_POL>
68.39257

>  <PEOE_VSA_POS>
140.75424

>  <PEOE_VSA_PPOS>
33.491192

>  <petitjean>
0.45454547

>  <petitjeanSC>
0.83333331

>  <Q_PC+>
0

>  <Q_PC->
0

>  <Q_RPC+>
0

>  <Q_RPC->
0

>  <Q_VSA_FHYD>
1

>  <Q_VSA_FNEG>
0

>  <Q_VSA_FPNEG>
0

>  <Q_VSA_FPOL>
0

>  <Q_VSA_FPOS>
1

>  <Q_VSA_FPPOS>
0

>  <Q_VSA_HYD>
270.14127

>  <Q_VSA_NEG>
0

>  <Q_VSA_PNEG>
0

>  <Q_VSA_POL>
0

>  <Q_VSA_POS>
270.14127

>  <Q_VSA_PPOS>
0

>  <radius>
6

>  <reactive>
1

>  <rings>
2

>  <RPC+>
0

>  <RPC->
0

>  <rsynth>
1

>  <SlogP>
2.5507901

>  <SlogP_VSA0>
0

>  <SlogP_VSA1>
15.332168

>  <SlogP_VSA2>
23.862217

>  <SlogP_VSA3>
25.385227

>  <SlogP_VSA4>
35.746861

>  <SlogP_VSA5>
18.868406

>  <SlogP_VSA6>
0

>  <SlogP_VSA7>
105.85911

>  <SlogP_VSA8>
0

>  <SlogP_VSA9>
66.223206

>  <SMR>
7.1645298

>  <SMR_VSA0>
47.724434

>  <SMR_VSA1>
1.8990928

>  <SMR_VSA2>
25.385227

>  <SMR_VSA3>
11.884645

>  <SMR_VSA4>
0

>  <SMR_VSA5>
124.72751

>  <SMR_VSA6>
13.433075

>  <SMR_VSA7>
66.223206

>  <TPSA>
59.299999

>  <VAdjEq>
0.5023343

>  <VAdjMa>
5.321928

>  <VDistEq>
3.1771348

>  <VDistMa>
8.1833973

>  <vdw_area>
270.14127

>  <vdw_vol>
351.81583

>  <vsa_acc>
13.566921

>  <vsa_acid>
0

>  <vsa_base>
0

>  <vsa_don>
0

>  <vsa_hyd>
191.78355

>  <vsa_other>
23.167019

>  <vsa_pol>
40.700764

>  <Weight>
257.289

>  <weinerPath>
736

>  <weinerPol>
27

>  <zagreb>
96

$$$$