S(O)(=O)(=O)c1ccc(N=Nc2c3c(cc(S(O)(=O)=O)cc3)ccc2O)cc1
  MOE2013           2D

 27 29  0  0  0  0  0  0  0  0999 V2000
    0.0000    0.0000    0.0000 S   0  0  0  0  0  0  0  0  0  0  0  0
    1.2960   -0.7560    0.0000 O   0  0  0  0  0  0  0  0  0  0  0  0
   -0.7560   -1.2960    0.0000 O   0  0  0  0  0  0  0  0  0  0  0  0
    0.7560    1.2960    0.0000 O   0  0  0  0  0  0  0  0  0  0  0  0
   -1.2960    0.7560    0.0000 C   0  0  0  0  0  0  0  0  0  0  0  0
   -2.5980    0.0110    0.0000 C   0  0  0  0  0  0  0  0  0  0  0  0
   -3.8940    0.7670    0.0000 C   0  0  0  0  0  0  0  0  0  0  0  0
   -3.8870    2.2670    0.0000 C   0  0  0  0  0  0  0  0  0  0  0  0
   -5.1830    3.0220    0.0000 N   0  0  0  0  0  0  0  0  0  0  0  0
   -6.4850    2.2780    0.0000 N   0  0  0  0  0  0  0  0  0  0  0  0
   -7.7810    3.0330    0.0000 C   0  0  0  0  0  0  0  0  0  0  0  0
   -9.0840    2.2890    0.0000 C   0  0  0  0  0  0  0  0  0  0  0  0
  -10.3790    3.0440    0.0000 C   0  0  0  0  0  0  0  0  0  0  0  0
  -11.6820    2.3000    0.0000 C   0  0  0  0  0  0  0  0  0  0  0  0
  -11.6880    0.8000    0.0000 C   0  0  0  0  0  0  0  0  0  0  0  0
  -12.9900    0.0560    0.0000 S   0  0  0  0  0  0  0  0  0  0  0  0
  -14.2930   -0.6890    0.0000 O   0  0  0  0  0  0  0  0  0  0  0  0
  -13.7350    1.3580    0.0000 O   0  0  0  0  0  0  0  0  0  0  0  0
  -12.2460   -1.2470    0.0000 O   0  0  0  0  0  0  0  0  0  0  0  0
  -10.3920    0.0450    0.0000 C   0  0  0  0  0  0  0  0  0  0  0  0
   -9.0900    0.7890    0.0000 C   0  0  0  0  0  0  0  0  0  0  0  0
  -10.3730    4.5440    0.0000 C   0  0  0  0  0  0  0  0  0  0  0  0
   -9.0710    5.2890    0.0000 C   0  0  0  0  0  0  0  0  0  0  0  0
   -7.7750    4.5330    0.0000 C   0  0  0  0  0  0  0  0  0  0  0  0
   -6.4730    5.2780    0.0000 O   0  0  0  0  0  0  0  0  0  0  0  0
   -2.5850    3.0110    0.0000 C   0  0  0  0  0  0  0  0  0  0  0  0
   -1.2890    2.2560    0.0000 C   0  0  0  0  0  0  0  0  0  0  0  0
  1  2  1  0  0  0  0
  1  3  2  0  0  0  0
  1  4  2  0  0  0  0
  1  5  1  0  0  0  0
  5  6  1  0  0  0  0
  5 27  2  0  0  0  0
  6  7  2  0  0  0  0
  7  8  1  0  0  0  0
  8  9  1  0  0  0  0
  8 26  2  0  0  0  0
  9 10  2  3  0  0  0
 10 11  1  0  0  0  0
 11 12  1  0  0  0  0
 11 24  2  0  0  0  0
 12 13  1  0  0  0  0
 12 21  2  0  0  0  0
 13 14  2  0  0  0  0
 13 22  1  0  0  0  0
 14 15  1  0  0  0  0
 15 16  1  0  0  0  0
 15 20  2  0  0  0  0
 16 17  1  0  0  0  0
 16 18  2  0  0  0  0
 16 19  2  0  0  0  0
 20 21  1  0  0  0  0
 22 23  2  0  0  0  0
 23 24  1  0  0  0  0
 24 25  1  0  0  0  0
 26 27  1  0  0  0  0
M  END
>  <Index>
1375

>  <ID>
HT3781

>  <class>
0

>  <apol>
49.775517

>  <ast_fraglike>
0

>  <ast_fraglike_ext>
0

>  <ast_violation>
4

>  <ast_violation_ext>
6

>  <a_acc>
9

>  <a_acid>
0

>  <a_aro>
16

>  <a_base>
0

>  <a_count>
39

>  <a_don>
7

>  <a_donacc>
16

>  <a_heavy>
27

>  <a_hyd>
16

>  <a_IC>
75.459656

>  <a_ICM>
1.9348629

>  <a_nB>
0

>  <a_nBr>
0

>  <a_nC>
16

>  <a_nCl>
0

>  <a_nF>
0

>  <a_nH>
12

>  <a_nI>
0

>  <a_nN>
2

>  <a_nO>
7

>  <a_nP>
0

>  <a_nS>
2

>  <balabanJ>
1.5146211

>  <BCUT_PEOE_0>
-2.2594218

>  <BCUT_PEOE_1>
-0.77007335

>  <BCUT_PEOE_2>
0.72803438

>  <BCUT_PEOE_3>
2.3454702

>  <BCUT_SLOGP_0>
-2.2778194

>  <BCUT_SLOGP_1>
-0.68071049

>  <BCUT_SLOGP_2>
0.82136023

>  <BCUT_SLOGP_3>
2.4736009

>  <BCUT_SMR_0>
-1.9346657

>  <BCUT_SMR_1>
-0.57451934

>  <BCUT_SMR_2>
0.94114292

>  <BCUT_SMR_3>
2.6777666

>  <bpol>
27.390484

>  <b_1rotN>
4

>  <b_1rotR>
0.13793103

>  <b_ar>
17

>  <b_count>
41

>  <b_double>
1

>  <b_heavy>
29

>  <b_max1len>
3

>  <b_rotN>
4

>  <b_rotR>
0.13793103

>  <b_single>
23

>  <b_triple>
0

>  <chi0>
19.819626

>  <chi0v>
15.014704

>  <chi0v_C>
8.6961527

>  <chi0_C>
10.405413

>  <chi1>
12.55368

>  <chi1v>
10.161095

>  <chi1v_C>
4.9700847

>  <chi1_C>
7.0824828

>  <chiral>
0

>  <chiral_u>
0

>  <density>
0.92339522

>  <diameter>
14

>  <FCharge>
0

>  <GCUT_PEOE_0>
-0.7532106

>  <GCUT_PEOE_1>
-0.47309187

>  <GCUT_PEOE_2>
0.11949316

>  <GCUT_PEOE_3>
2.4686704

>  <GCUT_SLOGP_0>
-0.80431879

>  <GCUT_SLOGP_1>
-0.40217909

>  <GCUT_SLOGP_2>
0.18605615

>  <GCUT_SLOGP_3>
2.6370878

>  <GCUT_SMR_0>
-0.42777011

>  <GCUT_SMR_1>
-0.20514683

>  <GCUT_SMR_2>
0.301103

>  <GCUT_SMR_3>
2.7656298

>  <Kier1>
21.702734

>  <Kier2>
8.3935947

>  <Kier3>
5.3314347

>  <KierA1>
18.376732

>  <KierA2>
7.0593405

>  <KierA3>
4.4614701

>  <KierFlex>
4.8047261

>  <lip_acc>
9

>  <lip_don>
3

>  <lip_druglike>
1

>  <lip_violation>
0

>  <logP(o/w)>
2.6530001

>  <logS>
-4.8937502

>  <mr>
9.6920805

>  <mutagenic>
1

>  <nmol>
1

>  <opr_brigid>
18

>  <opr_leadlike>
1

>  <opr_nring>
3

>  <opr_nrot>
4

>  <opr_violation>
1

>  <PC+>
0

>  <PC->
0

>  <PEOE_PC+>
2.3002527

>  <PEOE_PC->
-2.3002527

>  <PEOE_RPC+>
0.12946114

>  <PEOE_RPC->
0.15547682

>  <PEOE_VSA+0>
38.973251

>  <PEOE_VSA+1>
77.991272

>  <PEOE_VSA+2>
38.183636

>  <PEOE_VSA+3>
0

>  <PEOE_VSA+4>
10.324173

>  <PEOE_VSA+5>
8.3692026

>  <PEOE_VSA+6>
0

>  <PEOE_VSA-0>
51.228157

>  <PEOE_VSA-1>
12.254904

>  <PEOE_VSA-2>
18.842079

>  <PEOE_VSA-3>
0

>  <PEOE_VSA-4>
64.033043

>  <PEOE_VSA-5>
20.417763

>  <PEOE_VSA-6>
7.7675405

>  <PEOE_VSA_FHYD>
0.68164039

>  <PEOE_VSA_FNEG>
0.50100744

>  <PEOE_VSA_FPNEG>
0.26470238

>  <PEOE_VSA_FPOL>
0.31835961

>  <PEOE_VSA_FPOS>
0.49899256

>  <PEOE_VSA_FPPOS>
0.05365723

>  <PEOE_VSA_HYD>
237.4733

>  <PEOE_VSA_NEG>
174.54349

>  <PEOE_VSA_PNEG>
92.218346

>  <PEOE_VSA_POL>
110.91172

>  <PEOE_VSA_POS>
173.84154

>  <PEOE_VSA_PPOS>
18.693375

>  <petitjean>
0.5

>  <petitjeanSC>
1

>  <Q_PC+>
0

>  <Q_PC->
0

>  <Q_RPC+>
0

>  <Q_RPC->
0

>  <Q_VSA_FHYD>
1

>  <Q_VSA_FNEG>
0

>  <Q_VSA_FPNEG>
0

>  <Q_VSA_FPOL>
0

>  <Q_VSA_FPOS>
1

>  <Q_VSA_FPPOS>
0

>  <Q_VSA_HYD>
348.38504

>  <Q_VSA_NEG>
0

>  <Q_VSA_PNEG>
0

>  <Q_VSA_POL>
0

>  <Q_VSA_POS>
348.38504

>  <Q_VSA_PPOS>
0

>  <radius>
7

>  <reactive>
1

>  <rings>
3

>  <RPC+>
0

>  <RPC->
0

>  <rsynth>
0

>  <SlogP>
2.3227999

>  <SlogP_VSA0>
71.246735

>  <SlogP_VSA1>
96.343376

>  <SlogP_VSA2>
17.166298

>  <SlogP_VSA3>
0

>  <SlogP_VSA4>
0

>  <SlogP_VSA5>
36.427483

>  <SlogP_VSA6>
0

>  <SlogP_VSA7>
163.93459

>  <SlogP_VSA8>
0

>  <SlogP_VSA9>
10.756924

>  <SMR>
9.5039997

>  <SMR_VSA0>
96.343376

>  <SMR_VSA1>
104.57275

>  <SMR_VSA2>
3.1014678

>  <SMR_VSA3>
5.2434282

>  <SMR_VSA4>
10.659424

>  <SMR_VSA5>
158.78867

>  <SMR_VSA6>
0

>  <SMR_VSA7>
17.166298

>  <TPSA>
153.69

>  <VAdjEq>
0.40063059

>  <VAdjMa>
5.8579812

>  <VDistEq>
3.6250603

>  <VDistMa>
9.1880159

>  <vdw_area>
348.38504

>  <vdw_vol>
442.29276

>  <vsa_acc>
18.842079

>  <vsa_acid>
0

>  <vsa_base>
0

>  <vsa_don>
0

>  <vsa_hyd>
176.92035

>  <vsa_other>
23.025566

>  <vsa_pol>
128.45857

>  <Weight>
408.41101

>  <weinerPath>
2022

>  <weinerPol>
44

>  <zagreb>
146

$$$$