S(=O)(=O)(NCCC1N(CCC1)C)c1cc(C=2NC(=O)c3n(nc(c3N=2)CCC)C)c(OCCC)cc1
  MOE2013           2D

 36 39  0  0  1  0  0  0  0  0999 V2000
    0.0000    0.0000    0.0000 S   0  0  0  0  0  0  0  0  0  0  0  0
    0.7550    1.2960    0.0000 O   0  0  0  0  0  0  0  0  0  0  0  0
   -0.7550   -1.2960    0.0000 O   0  0  0  0  0  0  0  0  0  0  0  0
    1.2960   -0.7550    0.0000 N   0  0  0  0  0  0  0  0  0  0  0  0
    2.5980   -0.0090    0.0000 C   0  0  0  0  0  0  0  0  0  0  0  0
    3.8940   -0.7640    0.0000 C   0  0  0  0  0  0  0  0  0  0  0  0
    5.1960   -0.0190    0.0000 C   0  0  3  0  0  0  0  0  0  0  0  0
    6.5640   -0.6340    0.0000 N   0  0  3  0  0  0  0  0  0  0  0  0
    7.5720    0.4770    0.0000 C   0  0  0  0  0  0  0  0  0  0  0  0
    6.8270    1.7790    0.0000 C   0  0  0  0  0  0  0  0  0  0  0  0
    5.3580    1.4720    0.0000 C   0  0  0  0  0  0  0  0  0  0  0  0
    6.8710   -2.1020    0.0000 C   0  0  0  0  0  0  0  0  0  0  0  0
   -1.2960    0.7550    0.0000 C   0  0  0  0  0  0  0  0  0  0  0  0
   -2.5980    0.0090    0.0000 C   0  0  0  0  0  0  0  0  0  0  0  0
   -3.8940    0.7640    0.0000 C   0  0  0  0  0  0  0  0  0  0  0  0
   -5.1960    0.0190    0.0000 C   0  0  0  0  0  0  0  0  0  0  0  0
   -5.2020   -1.4810    0.0000 N   0  0  0  0  0  0  0  0  0  0  0  0
   -6.5030   -2.2260    0.0000 C   0  0  0  0  0  0  0  0  0  0  0  0
   -6.5090   -3.7260    0.0000 O   0  0  0  0  0  0  0  0  0  0  0  0
   -7.8000   -1.4720    0.0000 C   0  0  0  0  0  0  0  0  0  0  0  0
   -9.2280   -1.9300    0.0000 N   0  0  0  0  0  0  0  0  0  0  0  0
  -10.1050   -0.7130    0.0000 N   0  0  0  0  0  0  0  0  0  0  0  0
   -9.2190    0.4970    0.0000 C   0  0  0  0  0  0  0  0  0  0  0  0
   -7.7940    0.0280    0.0000 C   0  0  0  0  0  0  0  0  0  0  0  0
   -6.4920    0.7730    0.0000 N   0  0  0  0  0  0  0  0  0  0  0  0
   -9.6770    1.9250    0.0000 C   0  0  0  0  0  0  0  0  0  0  0  0
  -11.1440    2.2420    0.0000 C   0  0  0  0  0  0  0  0  0  0  0  0
  -11.6020    3.6710    0.0000 C   0  0  0  0  0  0  0  0  0  0  0  0
   -9.6970   -3.3550    0.0000 C   0  0  0  0  0  0  0  0  0  0  0  0
   -3.8890    2.2640    0.0000 C   0  0  0  0  0  0  0  0  0  0  0  0
   -5.1850    3.0190    0.0000 O   0  0  0  0  0  0  0  0  0  0  0  0
   -5.1800    4.5190    0.0000 C   0  0  0  0  0  0  0  0  0  0  0  0
   -6.4760    5.2730    0.0000 C   0  0  0  0  0  0  0  0  0  0  0  0
   -6.4710    6.7730    0.0000 C   0  0  0  0  0  0  0  0  0  0  0  0
   -2.5870    3.0090    0.0000 C   0  0  0  0  0  0  0  0  0  0  0  0
   -1.2910    2.2550    0.0000 C   0  0  0  0  0  0  0  0  0  0  0  0
  1  2  2  0  0  0  0
  1  3  2  0  0  0  0
  1  4  1  0  0  0  0
  1 13  1  0  0  0  0
  4  5  1  0  0  0  0
  5  6  1  0  0  0  0
  6  7  1  0  0  0  0
  7  8  1  0  0  0  0
  7 11  1  0  0  0  0
  8  9  1  0  0  0  0
  8 12  1  0  0  0  0
  9 10  1  0  0  0  0
 10 11  1  0  0  0  0
 13 14  1  0  0  0  0
 13 36  2  0  0  0  0
 14 15  2  0  0  0  0
 15 16  1  0  0  0  0
 15 30  1  0  0  0  0
 16 17  1  0  0  0  0
 16 25  2  0  0  0  0
 17 18  1  0  0  0  0
 18 19  2  0  0  0  0
 18 20  1  0  0  0  0
 20 21  1  0  0  0  0
 20 24  2  0  0  0  0
 21 22  1  0  0  0  0
 21 29  1  0  0  0  0
 22 23  2  0  0  0  0
 23 24  1  0  0  0  0
 23 26  1  0  0  0  0
 24 25  1  0  0  0  0
 26 27  1  0  0  0  0
 27 28  1  0  0  0  0
 30 31  1  0  0  0  0
 30 35  2  0  0  0  0
 31 32  1  0  0  0  0
 32 33  1  0  0  0  0
 33 34  1  0  0  0  0
 35 36  1  0  0  0  0
M  END
>  <Index>
1125

>  <ID>
HT2149

>  <class>
0

>  <apol>
80.712547

>  <ast_fraglike>
0

>  <ast_fraglike_ext>
0

>  <ast_violation>
3

>  <ast_violation_ext>
5

>  <a_acc>
7

>  <a_acid>
0

>  <a_aro>
11

>  <a_base>
0

>  <a_count>
72

>  <a_don>
2

>  <a_donacc>
9

>  <a_heavy>
36

>  <a_hyd>
23

>  <a_IC>
118.51112

>  <a_ICM>
1.6459877

>  <a_nB>
0

>  <a_nBr>
0

>  <a_nC>
25

>  <a_nCl>
0

>  <a_nF>
0

>  <a_nH>
36

>  <a_nI>
0

>  <a_nN>
6

>  <a_nO>
4

>  <a_nP>
0

>  <a_nS>
1

>  <balabanJ>
1.4213644

>  <BCUT_PEOE_0>
-2.6697397

>  <BCUT_PEOE_1>
-0.46591985

>  <BCUT_PEOE_2>
0.46973506

>  <BCUT_PEOE_3>
2.7382958

>  <BCUT_SLOGP_0>
-2.7520566

>  <BCUT_SLOGP_1>
-0.4017244

>  <BCUT_SLOGP_2>
0.48876521

>  <BCUT_SLOGP_3>
2.7522533

>  <BCUT_SMR_0>
-2.393544

>  <BCUT_SMR_1>
-0.26176825

>  <BCUT_SMR_2>
0.66520447

>  <BCUT_SMR_3>
3.0104692

>  <bpol>
55.30545

>  <b_1rotN>
11

>  <b_1rotR>
0.2820513

>  <b_ar>
11

>  <b_count>
75

>  <b_double>
2

>  <b_heavy>
39

>  <b_max1len>
6

>  <b_rotN>
11

>  <b_rotR>
0.2820513

>  <b_single>
62

>  <b_triple>
0

>  <chi0>
25.871668

>  <chi0v>
22.319954

>  <chi0v_C>
16.673363

>  <chi0_C>
17.681435

>  <chi1>
17.24555

>  <chi1v>
14.1608

>  <chi1v_C>
7.8222976

>  <chi1_C>
8.9386187

>  <chiral>
1

>  <chiral_u>
1

>  <density>
0.7571342

>  <diameter>
16

>  <FCharge>
0

>  <GCUT_PEOE_0>
-0.86481285

>  <GCUT_PEOE_1>
-0.40952936

>  <GCUT_PEOE_2>
-0.047641322

>  <GCUT_PEOE_3>
2.8477404

>  <GCUT_SLOGP_0>
-1.1688803

>  <GCUT_SLOGP_1>
-0.36353323

>  <GCUT_SLOGP_2>
0.021365425

>  <GCUT_SLOGP_3>
2.8728223

>  <GCUT_SMR_0>
-0.52805269

>  <GCUT_SMR_1>
-0.18023722

>  <GCUT_SMR_2>
0.13122398

>  <GCUT_SMR_3>
3.1116142

>  <Kier1>
28.994083

>  <Kier2>
12.901786

>  <Kier3>
6.7818666

>  <KierA1>
24.828476

>  <KierA2>
10.99701

>  <KierA3>
5.7618432

>  <KierFlex>
7.5844169

>  <lip_acc>
10

>  <lip_don>
2

>  <lip_druglike>
1

>  <lip_violation>
1

>  <logP(o/w)>
2.704

>  <logS>
-4.5420799

>  <mr>
13.951859

>  <mutagenic>
0

>  <nmol>
1

>  <opr_brigid>
21

>  <opr_leadlike>
0

>  <opr_nring>
4

>  <opr_nrot>
11

>  <opr_violation>
3

>  <PC+>
0

>  <PC->
0

>  <PEOE_PC+>
2.9069791

>  <PEOE_PC->
-2.9069791

>  <PEOE_RPC+>
0.097313307

>  <PEOE_RPC->
0.11833183

>  <PEOE_VSA+0>
181.06036

>  <PEOE_VSA+1>
65.899734

>  <PEOE_VSA+2>
17.890114

>  <PEOE_VSA+3>
15.318564

>  <PEOE_VSA+4>
0

>  <PEOE_VSA+5>
17.134132

>  <PEOE_VSA+6>
0

>  <PEOE_VSA-0>
105.38481

>  <PEOE_VSA-1>
46.196667

>  <PEOE_VSA-2>
0

>  <PEOE_VSA-3>
11.950561

>  <PEOE_VSA-4>
37.6991

>  <PEOE_VSA-5>
13.566921

>  <PEOE_VSA-6>
2.6406472

>  <PEOE_VSA_FHYD>
0.86198747

>  <PEOE_VSA_FNEG>
0.42242301

>  <PEOE_VSA_FPNEG>
0.10472568

>  <PEOE_VSA_FPOL>
0.13801254

>  <PEOE_VSA_FPOS>
0.57757699

>  <PEOE_VSA_FPPOS>
0.033286858

>  <PEOE_VSA_HYD>
443.70084

>  <PEOE_VSA_NEG>
217.43871

>  <PEOE_VSA_PNEG>
53.906666

>  <PEOE_VSA_POL>
71.040802

>  <PEOE_VSA_POS>
297.30292

>  <PEOE_VSA_PPOS>
17.134132

>  <petitjean>
0.5

>  <petitjeanSC>
1

>  <Q_PC+>
0

>  <Q_PC->
0

>  <Q_RPC+>
0

>  <Q_RPC->
0

>  <Q_VSA_FHYD>
1

>  <Q_VSA_FNEG>
0

>  <Q_VSA_FPNEG>
0

>  <Q_VSA_FPOL>
0

>  <Q_VSA_FPOS>
1

>  <Q_VSA_FPPOS>
0

>  <Q_VSA_HYD>
514.74164

>  <Q_VSA_NEG>
0

>  <Q_VSA_PNEG>
0

>  <Q_VSA_POL>
0

>  <Q_VSA_POS>
514.74164

>  <Q_VSA_PPOS>
0

>  <radius>
8

>  <reactive>
0

>  <rings>
4

>  <RPC+>
0

>  <RPC->
0

>  <rsynth>
1

>  <SlogP>
3.1048701

>  <SlogP_VSA0>
45.415634

>  <SlogP_VSA1>
77.322281

>  <SlogP_VSA2>
10.622711

>  <SlogP_VSA3>
57.805416

>  <SlogP_VSA4>
32.561287

>  <SlogP_VSA5>
70.10186

>  <SlogP_VSA6>
0

>  <SlogP_VSA7>
52.929554

>  <SlogP_VSA8>
94.342026

>  <SlogP_VSA9>
107.54939

>  <SMR>
13.88327

>  <SMR_VSA0>
72.033905

>  <SMR_VSA1>
49.349308

>  <SMR_VSA2>
35.96648

>  <SMR_VSA3>
17.924467

>  <SMR_VSA4>
2.7567475

>  <SMR_VSA5>
166.13998

>  <SMR_VSA6>
65.39212

>  <SMR_VSA7>
139.08714

>  <TPSA>
117.92

>  <VAdjEq>
0.3281796

>  <VAdjMa>
6.2854023

>  <VDistEq>
3.796032

>  <VDistMa>
10.063966

>  <vdw_area>
514.74164

>  <vdw_vol>
682.39819

>  <vsa_acc>
63.190815

>  <vsa_acid>
0

>  <vsa_base>
0

>  <vsa_don>
13.757783

>  <vsa_hyd>
373.19962

>  <vsa_other>
34.245701

>  <vsa_pol>
76.948601

>  <Weight>
516.66699

>  <weinerPath>
4172

>  <weinerPol>
59

>  <zagreb>
190

$$$$