O(C)c1cc2C3N(CC(CC)C(C3)CC3NCCc4c3cc(OC)c(O)c4)CCc2cc1OC
  MOE2013           2D

 34 38  0  0  1  0  0  0  0  0999 V2000
    0.0000    0.0000    0.0000 O   0  0  0  0  0  0  0  0  0  0  0  0
    1.3020   -0.7460    0.0000 C   0  0  0  0  0  0  0  0  0  0  0  0
   -0.0050    1.5000    0.0000 C   0  0  0  0  0  0  0  0  0  0  0  0
   -1.3070    2.2460    0.0000 C   0  0  0  0  0  0  0  0  0  0  0  0
   -1.3120    3.7460    0.0000 C   0  0  0  0  0  0  0  0  0  0  0  0
   -2.6130    4.4910    0.0000 C   0  0  3  0  0  0  0  0  0  0  0  0
   -2.6190    5.9910    0.0000 N   0  0  3  0  0  0  0  0  0  0  0  0
   -3.9200    6.7370    0.0000 C   0  0  0  0  0  0  0  0  0  0  0  0
   -5.2170    5.9820    0.0000 C   0  0  3  0  0  0  0  0  0  0  0  0
   -6.5180    6.7280    0.0000 C   0  0  0  0  0  0  0  0  0  0  0  0
   -6.5230    8.2280    0.0000 C   0  0  0  0  0  0  0  0  0  0  0  0
   -5.2110    4.4820    0.0000 C   0  0  3  0  0  0  0  0  0  0  0  0
   -3.9100    3.7370    0.0000 C   0  0  0  0  0  0  0  0  0  0  0  0
   -6.5080    3.7280    0.0000 C   0  0  0  0  0  0  0  0  0  0  0  0
   -6.5030    2.2280    0.0000 C   0  0  3  0  0  0  0  0  0  0  0  0
   -5.2010    1.4820    0.0000 N   0  0  0  0  0  0  0  0  0  0  0  0
   -5.1960   -0.0180    0.0000 C   0  0  0  0  0  0  0  0  0  0  0  0
   -6.4930   -0.7720    0.0000 C   0  0  0  0  0  0  0  0  0  0  0  0
   -7.7940   -0.0270    0.0000 C   0  0  0  0  0  0  0  0  0  0  0  0
   -7.7990    1.4730    0.0000 C   0  0  0  0  0  0  0  0  0  0  0  0
   -9.1010    2.2190    0.0000 C   0  0  0  0  0  0  0  0  0  0  0  0
  -10.3970    1.4640    0.0000 C   0  0  0  0  0  0  0  0  0  0  0  0
  -11.6990    2.2100    0.0000 O   0  0  0  0  0  0  0  0  0  0  0  0
  -12.9950    1.4560    0.0000 C   0  0  0  0  0  0  0  0  0  0  0  0
  -10.3920   -0.0350    0.0000 C   0  0  0  0  0  0  0  0  0  0  0  0
  -11.6890   -0.7900    0.0000 O   0  0  0  0  0  0  0  0  0  0  0  0
   -9.0910   -0.7810    0.0000 C   0  0  0  0  0  0  0  0  0  0  0  0
   -1.3220    6.7460    0.0000 C   0  0  0  0  0  0  0  0  0  0  0  0
   -0.0200    6.0000    0.0000 C   0  0  0  0  0  0  0  0  0  0  0  0
   -0.0150    4.5000    0.0000 C   0  0  0  0  0  0  0  0  0  0  0  0
    1.2860    3.7540    0.0000 C   0  0  0  0  0  0  0  0  0  0  0  0
    1.2910    2.2540    0.0000 C   0  0  0  0  0  0  0  0  0  0  0  0
    2.5930    1.5090    0.0000 O   0  0  0  0  0  0  0  0  0  0  0  0
    3.8890    2.2630    0.0000 C   0  0  0  0  0  0  0  0  0  0  0  0
  1  2  1  0  0  0  0
  1  3  1  0  0  0  0
  3  4  1  0  0  0  0
  3 32  2  0  0  0  0
  4  5  2  0  0  0  0
  5  6  1  0  0  0  0
  5 30  1  0  0  0  0
  6  7  1  0  0  0  0
  6 13  1  0  0  0  0
  7  8  1  0  0  0  0
  7 28  1  0  0  0  0
  8  9  1  0  0  0  0
  9 10  1  0  0  0  0
  9 12  1  0  0  0  0
 10 11  1  0  0  0  0
 12 13  1  0  0  0  0
 12 14  1  0  0  0  0
 14 15  1  0  0  0  0
 15 16  1  0  0  0  0
 15 20  1  0  0  0  0
 16 17  1  0  0  0  0
 17 18  1  0  0  0  0
 18 19  1  0  0  0  0
 19 20  1  0  0  0  0
 19 27  2  0  0  0  0
 20 21  2  0  0  0  0
 21 22  1  0  0  0  0
 22 23  1  0  0  0  0
 22 25  2  0  0  0  0
 23 24  1  0  0  0  0
 25 26  1  0  0  0  0
 25 27  1  0  0  0  0
 28 29  1  0  0  0  0
 29 30  1  0  0  0  0
 30 31  2  0  0  0  0
 31 32  1  0  0  0  0
 32 33  1  0  0  0  0
 33 34  1  0  0  0  0
M  END
>  <Index>
1177

>  <ID>
HT2279

>  <class>
0

>  <apol>
80.026131

>  <ast_fraglike>
0

>  <ast_fraglike_ext>
0

>  <ast_violation>
3

>  <ast_violation_ext>
4

>  <a_acc>
6

>  <a_acid>
0

>  <a_aro>
12

>  <a_base>
0

>  <a_count>
72

>  <a_don>
2

>  <a_donacc>
8

>  <a_heavy>
34

>  <a_hyd>
28

>  <a_IC>
100.20742

>  <a_ICM>
1.3917696

>  <a_nB>
0

>  <a_nBr>
0

>  <a_nC>
28

>  <a_nCl>
0

>  <a_nF>
0

>  <a_nH>
38

>  <a_nI>
0

>  <a_nN>
2

>  <a_nO>
4

>  <a_nP>
0

>  <a_nS>
0

>  <balabanJ>
1.29364

>  <BCUT_PEOE_0>
-2.880862

>  <BCUT_PEOE_1>
-0.5066011

>  <BCUT_PEOE_2>
0.40477279

>  <BCUT_PEOE_3>
2.8157661

>  <BCUT_SLOGP_0>
-2.848778

>  <BCUT_SLOGP_1>
-0.4381986

>  <BCUT_SLOGP_2>
0.51631397

>  <BCUT_SLOGP_3>
2.8904831

>  <BCUT_SMR_0>
-2.6137979

>  <BCUT_SMR_1>
-0.31653675

>  <BCUT_SMR_2>
0.62936509

>  <BCUT_SMR_3>
3.0808127

>  <bpol>
49.929867

>  <b_1rotN>
6

>  <b_1rotR>
0.15789473

>  <b_ar>
12

>  <b_count>
76

>  <b_double>
0

>  <b_heavy>
38

>  <b_max1len>
4

>  <b_rotN>
6

>  <b_rotR>
0.15789473

>  <b_single>
64

>  <b_triple>
0

>  <chi0>
23.819262

>  <chi0v>
20.894829

>  <chi0v_C>
18.275656

>  <chi0_C>
19.413485

>  <chi1>
16.553907

>  <chi1v>
12.677395

>  <chi1v_C>
9.0837879

>  <chi1_C>
10.572412

>  <chiral>
4

>  <chiral_u>
4

>  <density>
0.69883007

>  <diameter>
15

>  <FCharge>
0

>  <GCUT_PEOE_0>
-0.84859151

>  <GCUT_PEOE_1>
-0.38449565

>  <GCUT_PEOE_2>
-0.037984677

>  <GCUT_PEOE_3>
3.1863999

>  <GCUT_SLOGP_0>
-1.1218846

>  <GCUT_SLOGP_1>
-0.30176786

>  <GCUT_SLOGP_2>
0.077197216

>  <GCUT_SLOGP_3>
3.277195

>  <GCUT_SMR_0>
-0.53384024

>  <GCUT_SMR_1>
-0.20079947

>  <GCUT_SMR_2>
0.09642753

>  <GCUT_SMR_3>
3.4343297

>  <Kier1>
25.641273

>  <Kier2>
11.170909

>  <Kier3>
5.0863643

>  <KierA1>
22.206429

>  <KierA2>
9.6304474

>  <KierA3>
4.3709207

>  <KierFlex>
6.2899365

>  <lip_acc>
6

>  <lip_don>
2

>  <lip_druglike>
1

>  <lip_violation>
0

>  <logP(o/w)>
4.92274

>  <logS>
-4.4955702

>  <mr>
13.342362

>  <mutagenic>
0

>  <nmol>
1

>  <opr_brigid>
27

>  <opr_leadlike>
0

>  <opr_nring>
5

>  <opr_nrot>
7

>  <opr_violation>
3

>  <PC+>
0

>  <PC->
0

>  <PEOE_PC+>
2.4890592

>  <PEOE_PC->
-2.4890592

>  <PEOE_RPC+>
0.087350972

>  <PEOE_RPC->
0.14353317

>  <PEOE_VSA+0>
210.43497

>  <PEOE_VSA+1>
63.980789

>  <PEOE_VSA+2>
42.453091

>  <PEOE_VSA+3>
0

>  <PEOE_VSA+4>
10.324173

>  <PEOE_VSA+5>
0

>  <PEOE_VSA+6>
0

>  <PEOE_VSA-0>
92.659027

>  <PEOE_VSA-1>
27.44899

>  <PEOE_VSA-2>
0

>  <PEOE_VSA-3>
0

>  <PEOE_VSA-4>
0

>  <PEOE_VSA-5>
0

>  <PEOE_VSA-6>
15.4157

>  <PEOE_VSA_FHYD>
0.9443723

>  <PEOE_VSA_FNEG>
0.292887

>  <PEOE_VSA_FPNEG>
0.033315629

>  <PEOE_VSA_FPOL>
0.055627707

>  <PEOE_VSA_FPOS>
0.70711303

>  <PEOE_VSA_FPPOS>
0.022312079

>  <PEOE_VSA_HYD>
436.97687

>  <PEOE_VSA_NEG>
135.52371

>  <PEOE_VSA_PNEG>
15.4157

>  <PEOE_VSA_POL>
25.739872

>  <PEOE_VSA_POS>
327.19302

>  <PEOE_VSA_PPOS>
10.324173

>  <petitjean>
0.46666667

>  <petitjeanSC>
0.875

>  <Q_PC+>
0

>  <Q_PC->
0

>  <Q_RPC+>
0

>  <Q_RPC->
0

>  <Q_VSA_FHYD>
1

>  <Q_VSA_FNEG>
0

>  <Q_VSA_FPNEG>
0

>  <Q_VSA_FPOL>
0

>  <Q_VSA_FPOS>
1

>  <Q_VSA_FPPOS>
0

>  <Q_VSA_HYD>
462.71674

>  <Q_VSA_NEG>
0

>  <Q_VSA_PNEG>
0

>  <Q_VSA_POL>
0

>  <Q_VSA_POS>
462.71674

>  <Q_VSA_PPOS>
0

>  <radius>
8

>  <reactive>
0

>  <rings>
5

>  <RPC+>
0

>  <RPC->
0

>  <rsynth>
1

>  <SlogP>
4.8313398

>  <SlogP_VSA0>
76.395638

>  <SlogP_VSA1>
3.1243138

>  <SlogP_VSA2>
0

>  <SlogP_VSA3>
55.318733

>  <SlogP_VSA4>
21.563892

>  <SlogP_VSA5>
143.88841

>  <SlogP_VSA6>
0

>  <SlogP_VSA7>
70.572739

>  <SlogP_VSA8>
64.569153

>  <SlogP_VSA9>
54.299728

>  <SMR>
13.33975

>  <SMR_VSA0>
0

>  <SMR_VSA1>
61.509205

>  <SMR_VSA2>
26.832342

>  <SMR_VSA3>
41.679951

>  <SMR_VSA4>
0

>  <SMR_VSA5>
164.91476

>  <SMR_VSA6>
55.318733

>  <SMR_VSA7>
139.47762

>  <TPSA>
63.189999

>  <VAdjEq>
0.34983629

>  <VAdjMa>
6.2479277

>  <VDistEq>
3.6596832

>  <VDistMa>
9.8994293

>  <vdw_area>
462.71674

>  <vdw_vol>
667.71881

>  <vsa_acc>
7.5112681

>  <vsa_acid>
0

>  <vsa_base>
0

>  <vsa_don>
0

>  <vsa_hyd>
400.04312

>  <vsa_other>
0

>  <vsa_pol>
26.760765

>  <Weight>
466.62198

>  <weinerPath>
3390

>  <weinerPol>
64

>  <zagreb>
186

$$$$