O(C(=O)N(C)C)c1cc(cc(OC(=O)N(C)C)c1)C(O)CNC(C)(C)C
  MOE2013           2D

 26 26  0  0  1  0  0  0  0  0999 V2000
    0.0000    0.0000    0.0000 O   0  0  0  0  0  0  0  0  0  0  0  0
   -1.3020   -0.7450    0.0000 C   0  0  0  0  0  0  0  0  0  0  0  0
   -2.5980    0.0100    0.0000 O   0  0  0  0  0  0  0  0  0  0  0  0
   -1.3070   -2.2450    0.0000 N   0  0  0  0  0  0  0  0  0  0  0  0
   -2.6090   -2.9900    0.0000 C   0  0  0  0  0  0  0  0  0  0  0  0
   -0.0110   -3.0000    0.0000 C   0  0  0  0  0  0  0  0  0  0  0  0
    0.0060    1.5000    0.0000 C   0  0  0  0  0  0  0  0  0  0  0  0
    1.3070    2.2450    0.0000 C   0  0  0  0  0  0  0  0  0  0  0  0
    1.3130    3.7450    0.0000 C   0  0  0  0  0  0  0  0  0  0  0  0
    0.0170    4.5000    0.0000 C   0  0  0  0  0  0  0  0  0  0  0  0
   -1.2850    3.7550    0.0000 C   0  0  0  0  0  0  0  0  0  0  0  0
   -2.5820    4.5100    0.0000 O   0  0  0  0  0  0  0  0  0  0  0  0
   -2.5760    6.0100    0.0000 C   0  0  0  0  0  0  0  0  0  0  0  0
   -1.2740    6.7550    0.0000 O   0  0  0  0  0  0  0  0  0  0  0  0
   -3.8720    6.7640    0.0000 N   0  0  0  0  0  0  0  0  0  0  0  0
   -5.1740    6.0190    0.0000 C   0  0  0  0  0  0  0  0  0  0  0  0
   -3.8670    8.2640    0.0000 C   0  0  0  0  0  0  0  0  0  0  0  0
   -1.2910    2.2550    0.0000 C   0  0  0  0  0  0  0  0  0  0  0  0
    2.6150    4.4900    0.0000 C   0  0  3  0  0  0  0  0  0  0  0  0
    2.6200    5.9900    0.0000 O   0  0  0  0  0  0  0  0  0  0  0  0
    3.9110    3.7360    0.0000 C   0  0  0  0  0  0  0  0  0  0  0  0
    5.2130    4.4810    0.0000 N   0  0  0  0  0  0  0  0  0  0  0  0
    6.5090    3.7260    0.0000 C   0  0  0  0  0  0  0  0  0  0  0  0
    7.8050    2.9710    0.0000 C   0  0  0  0  0  0  0  0  0  0  0  0
    7.2640    5.0220    0.0000 C   0  0  0  0  0  0  0  0  0  0  0  0
    5.7540    2.4300    0.0000 C   0  0  0  0  0  0  0  0  0  0  0  0
  1  2  1  0  0  0  0
  1  7  1  0  0  0  0
  2  3  2  0  0  0  0
  2  4  1  0  0  0  0
  4  5  1  0  0  0  0
  4  6  1  0  0  0  0
  7  8  1  0  0  0  0
  7 18  2  0  0  0  0
  8  9  2  0  0  0  0
  9 10  1  0  0  0  0
  9 19  1  0  0  0  0
 10 11  2  0  0  0  0
 11 12  1  0  0  0  0
 11 18  1  0  0  0  0
 12 13  1  0  0  0  0
 13 14  2  0  0  0  0
 13 15  1  0  0  0  0
 15 16  1  0  0  0  0
 15 17  1  0  0  0  0
 19 20  1  0  0  0  0
 19 21  1  0  0  0  0
 21 22  1  0  0  0  0
 22 23  1  0  0  0  0
 23 24  1  0  0  0  0
 23 25  1  0  0  0  0
 23 26  1  0  0  0  0
M  END
>  <Index>
108

>  <ID>
HT0225

>  <class>
0

>  <apol>
58.326996

>  <ast_fraglike>
0

>  <ast_fraglike_ext>
0

>  <ast_violation>
2

>  <ast_violation_ext>
3

>  <a_acc>
4

>  <a_acid>
0

>  <a_aro>
6

>  <a_base>
0

>  <a_count>
55

>  <a_don>
2

>  <a_donacc>
6

>  <a_heavy>
26

>  <a_hyd>
16

>  <a_IC>
85.670158

>  <a_ICM>
1.5576392

>  <a_nB>
0

>  <a_nBr>
0

>  <a_nC>
18

>  <a_nCl>
0

>  <a_nF>
0

>  <a_nH>
29

>  <a_nI>
0

>  <a_nN>
3

>  <a_nO>
5

>  <a_nP>
0

>  <a_nS>
0

>  <balabanJ>
2.7480261

>  <BCUT_PEOE_0>
-2.7031066

>  <BCUT_PEOE_1>
-0.20815818

>  <BCUT_PEOE_2>
0.052102391

>  <BCUT_PEOE_3>
2.6270456

>  <BCUT_SLOGP_0>
-2.7885499

>  <BCUT_SLOGP_1>
0.037603915

>  <BCUT_SLOGP_2>
0.18206696

>  <BCUT_SLOGP_3>
2.6309032

>  <BCUT_SMR_0>
-2.4328432

>  <BCUT_SMR_1>
0.092678539

>  <BCUT_SMR_2>
0.17947583

>  <BCUT_SMR_3>
2.8916862

>  <bpol>
42.071003

>  <b_1rotN>
7

>  <b_1rotR>
0.26923078

>  <b_ar>
6

>  <b_count>
55

>  <b_double>
2

>  <b_heavy>
26

>  <b_max1len>
7

>  <b_rotN>
10

>  <b_rotR>
0.38461539

>  <b_single>
47

>  <b_triple>
0

>  <chi0>
20.06855

>  <chi0v>
16.491142

>  <chi0v_C>
13.016508

>  <chi0_C>
13.792529

>  <chi1>
11.885736

>  <chi1v>
8.2515392

>  <chi1v_C>
3.9289742

>  <chi1_C>
4.6910715

>  <chiral>
1

>  <chiral_u>
1

>  <density>
0.72572517

>  <diameter>
11

>  <FCharge>
0

>  <GCUT_PEOE_0>
-0.84430861

>  <GCUT_PEOE_1>
-0.39328799

>  <GCUT_PEOE_2>
-0.11469682

>  <GCUT_PEOE_3>
2.649826

>  <GCUT_SLOGP_0>
-1.1526226

>  <GCUT_SLOGP_1>
-0.2278143

>  <GCUT_SLOGP_2>
-0.037

>  <GCUT_SLOGP_3>
2.7080889

>  <GCUT_SMR_0>
-0.522995

>  <GCUT_SMR_1>
-0.10786795

>  <GCUT_SMR_2>
-0.023543073

>  <GCUT_SMR_3>
2.8972692

>  <Kier1>
24.038462

>  <Kier2>
10.518627

>  <Kier3>
9.1745148

>  <KierA1>
19.465607

>  <KierA2>
8.4413109

>  <KierA3>
7.3153448

>  <KierFlex>
6.3198171

>  <lip_acc>
8

>  <lip_don>
2

>  <lip_druglike>
1

>  <lip_violation>
0

>  <logP(o/w)>
1.983

>  <logS>
-2.06725

>  <mr>
9.8343925

>  <mutagenic>
0

>  <nmol>
1

>  <opr_brigid>
6

>  <opr_leadlike>
1

>  <opr_nring>
1

>  <opr_nrot>
6

>  <opr_violation>
0

>  <PC+>
0

>  <PC->
0

>  <PEOE_PC+>
2.5450647

>  <PEOE_PC->
-2.5450647

>  <PEOE_RPC+>
0.14451464

>  <PEOE_RPC->
0.15163203

>  <PEOE_VSA+0>
204.25096

>  <PEOE_VSA+1>
38.883511

>  <PEOE_VSA+2>
8.6190128

>  <PEOE_VSA+3>
0

>  <PEOE_VSA+4>
10.324173

>  <PEOE_VSA+5>
0

>  <PEOE_VSA+6>
38.399021

>  <PEOE_VSA-0>
95.216286

>  <PEOE_VSA-1>
0

>  <PEOE_VSA-2>
0

>  <PEOE_VSA-3>
0

>  <PEOE_VSA-4>
27.133842

>  <PEOE_VSA-5>
5.0075121

>  <PEOE_VSA-6>
7.9044313

>  <PEOE_VSA_FHYD>
0.79627937

>  <PEOE_VSA_FNEG>
0.3104201

>  <PEOE_VSA_FPNEG>
0.091903202

>  <PEOE_VSA_FPOL>
0.20372064

>  <PEOE_VSA_FPOS>
0.6895799

>  <PEOE_VSA_FPPOS>
0.11181745

>  <PEOE_VSA_HYD>
346.96976

>  <PEOE_VSA_NEG>
135.26207

>  <PEOE_VSA_PNEG>
40.045784

>  <PEOE_VSA_POL>
88.768982

>  <PEOE_VSA_POS>
300.47668

>  <PEOE_VSA_PPOS>
48.723194

>  <petitjean>
0.45454547

>  <petitjeanSC>
0.83333331

>  <Q_PC+>
0

>  <Q_PC->
0

>  <Q_RPC+>
0

>  <Q_RPC->
0

>  <Q_VSA_FHYD>
1

>  <Q_VSA_FNEG>
0

>  <Q_VSA_FPNEG>
0

>  <Q_VSA_FPOL>
0

>  <Q_VSA_FPOS>
1

>  <Q_VSA_FPPOS>
0

>  <Q_VSA_HYD>
435.73874

>  <Q_VSA_NEG>
0

>  <Q_VSA_PNEG>
0

>  <Q_VSA_POL>
0

>  <Q_VSA_POS>
435.73874

>  <Q_VSA_PPOS>
0

>  <radius>
6

>  <reactive>
0

>  <rings>
1

>  <RPC+>
0

>  <RPC->
0

>  <rsynth>
0.69230771

>  <SlogP>
2.3243999

>  <SlogP_VSA0>
65.395752

>  <SlogP_VSA1>
20.881901

>  <SlogP_VSA2>
0

>  <SlogP_VSA3>
18.439579

>  <SlogP_VSA4>
3.185575

>  <SlogP_VSA5>
131.58875

>  <SlogP_VSA6>
0

>  <SlogP_VSA7>
52.929554

>  <SlogP_VSA8>
6.4686494

>  <SlogP_VSA9>
158.18933

>  <SMR>
9.86905

>  <SMR_VSA0>
47.724434

>  <SMR_VSA1>
53.633629

>  <SMR_VSA2>
18.01075

>  <SMR_VSA3>
20.141081

>  <SMR_VSA4>
0

>  <SMR_VSA5>
52.929554

>  <SMR_VSA6>
33.072853

>  <SMR_VSA7>
231.56679

>  <TPSA>
91.339996

>  <VAdjEq>
0.39124358

>  <VAdjMa>
5.7004399

>  <VDistEq>
3.3991873

>  <VDistMa>
9.1337118

>  <vdw_area>
435.73874

>  <vdw_vol>
506.31564

>  <vsa_acc>
27.133842

>  <vsa_acid>
0

>  <vsa_base>
0

>  <vsa_don>
0

>  <vsa_hyd>
319.13229

>  <vsa_other>
43.406532

>  <vsa_pol>
46.383339

>  <Weight>
367.44598

>  <weinerPath>
1766

>  <weinerPol>
35

>  <zagreb>
126

$$$$