S=C(NN=Cc1ccc(NC(=O)C)cc1)N
  MOE2013           2D

 16 16  0  0  0  0  0  0  0  0999 V2000
    0.0000    0.0000    0.0000 S   0  0  0  0  0  0  0  0  0  0  0  0
   -1.2950    0.7560    0.0000 C   0  0  0  0  0  0  0  0  0  0  0  0
   -2.5980    0.0120    0.0000 N   0  0  0  0  0  0  0  0  0  0  0  0
   -3.8930    0.7690    0.0000 N   0  0  0  0  0  0  0  0  0  0  0  0
   -5.1960    0.0250    0.0000 C   0  0  0  0  0  0  0  0  0  0  0  0
   -6.4920    0.7810    0.0000 C   0  0  0  0  0  0  0  0  0  0  0  0
   -6.4840    2.2810    0.0000 C   0  0  0  0  0  0  0  0  0  0  0  0
   -7.7800    3.0370    0.0000 C   0  0  0  0  0  0  0  0  0  0  0  0
   -9.0820    2.2930    0.0000 C   0  0  0  0  0  0  0  0  0  0  0  0
  -10.3780    3.0500    0.0000 N   0  0  0  0  0  0  0  0  0  0  0  0
  -11.6800    2.3060    0.0000 C   0  0  0  0  0  0  0  0  0  0  0  0
  -11.6880    0.8060    0.0000 O   0  0  0  0  0  0  0  0  0  0  0  0
  -12.9760    3.0620    0.0000 C   0  0  0  0  0  0  0  0  0  0  0  0
   -9.0900    0.7930    0.0000 C   0  0  0  0  0  0  0  0  0  0  0  0
   -7.7940    0.0370    0.0000 C   0  0  0  0  0  0  0  0  0  0  0  0
   -1.2880    2.2560    0.0000 N   0  0  0  0  0  0  0  0  0  0  0  0
  1  2  2  0  0  0  0
  2  3  1  0  0  0  0
  2 16  1  0  0  0  0
  3  4  1  0  0  0  0
  4  5  2  3  0  0  0
  5  6  1  0  0  0  0
  6  7  1  0  0  0  0
  6 15  2  0  0  0  0
  7  8  2  0  0  0  0
  8  9  1  0  0  0  0
  9 10  1  0  0  0  0
  9 14  2  0  0  0  0
 10 11  1  0  0  0  0
 11 12  2  0  0  0  0
 11 13  1  0  0  0  0
 14 15  1  0  0  0  0
M  END
>  <Index>
1064

>  <ID>
HT2035

>  <class>
0

>  <apol>
33.703514

>  <ast_fraglike>
1

>  <ast_fraglike_ext>
0

>  <ast_violation>
0

>  <ast_violation_ext>
1

>  <a_acc>
3

>  <a_acid>
0

>  <a_aro>
6

>  <a_base>
0

>  <a_count>
28

>  <a_don>
3

>  <a_donacc>
6

>  <a_heavy>
16

>  <a_hyd>
7

>  <a_IC>
50.367107

>  <a_ICM>
1.7988253

>  <a_nB>
0

>  <a_nBr>
0

>  <a_nC>
10

>  <a_nCl>
0

>  <a_nF>
0

>  <a_nH>
12

>  <a_nI>
0

>  <a_nN>
4

>  <a_nO>
1

>  <a_nP>
0

>  <a_nS>
1

>  <balabanJ>
2.0884061

>  <BCUT_PEOE_0>
-2.3064387

>  <BCUT_PEOE_1>
-0.57116687

>  <BCUT_PEOE_2>
0.55302495

>  <BCUT_PEOE_3>
2.2801812

>  <BCUT_SLOGP_0>
-2.5665798

>  <BCUT_SLOGP_1>
-0.53807992

>  <BCUT_SLOGP_2>
0.80591482

>  <BCUT_SLOGP_3>
2.3524964

>  <BCUT_SMR_0>
-1.9826618

>  <BCUT_SMR_1>
-0.34227642

>  <BCUT_SMR_2>
0.85431087

>  <BCUT_SMR_3>
2.6000834

>  <bpol>
15.876484

>  <b_1rotN>
3

>  <b_1rotR>
0.1875

>  <b_ar>
6

>  <b_count>
28

>  <b_double>
3

>  <b_heavy>
16

>  <b_max1len>
2

>  <b_rotN>
5

>  <b_rotR>
0.3125

>  <b_single>
19

>  <b_triple>
0

>  <chi0>
11.966255

>  <chi0v>
9.5443087

>  <chi0v_C>
5.8867512

>  <chi0_C>
6.8449349

>  <chi1>
7.5753875

>  <chi1v>
4.9470196

>  <chi1v_C>
2.6100423

>  <chi1_C>
3.6185918

>  <chiral>
0

>  <chiral_u>
0

>  <density>
0.79240614

>  <diameter>
11

>  <FCharge>
0

>  <GCUT_PEOE_0>
-0.82233542

>  <GCUT_PEOE_1>
-0.3822819

>  <GCUT_PEOE_2>
0.082362667

>  <GCUT_PEOE_3>
2.1746874

>  <GCUT_SLOGP_0>
-1.370809

>  <GCUT_SLOGP_1>
-0.37639835

>  <GCUT_SLOGP_2>
0.16445385

>  <GCUT_SLOGP_3>
2.2717369

>  <GCUT_SMR_0>
-0.46820652

>  <GCUT_SMR_1>
-0.21605732

>  <GCUT_SMR_2>
0.21408604

>  <GCUT_SMR_3>
2.4979539

>  <Kier1>
14.0625

>  <Kier2>
7.3499999

>  <Kier3>
6.3699999

>  <KierA1>
9.946414

>  <KierA2>
5.0663629

>  <KierA3>
4.3062186

>  <KierFlex>
3.149509

>  <lip_acc>
5

>  <lip_don>
4

>  <lip_druglike>
1

>  <lip_violation>
0

>  <logP(o/w)>
2.931

>  <logS>
-2.7804101

>  <mr>
6.507298

>  <mutagenic>
0

>  <nmol>
1

>  <opr_brigid>
7

>  <opr_leadlike>
1

>  <opr_nring>
1

>  <opr_nrot>
3

>  <opr_violation>
0

>  <PC+>
0

>  <PC->
0

>  <PEOE_PC+>
1.4709595

>  <PEOE_PC->
-1.4709595

>  <PEOE_RPC+>
0.15101343

>  <PEOE_RPC->
0.22187217

>  <PEOE_VSA+0>
68.15593

>  <PEOE_VSA+1>
21.326929

>  <PEOE_VSA+2>
48.622536

>  <PEOE_VSA+3>
17.238026

>  <PEOE_VSA+4>
12.949531

>  <PEOE_VSA+5>
0

>  <PEOE_VSA+6>
0

>  <PEOE_VSA-0>
26.718348

>  <PEOE_VSA-1>
24.509808

>  <PEOE_VSA-2>
0

>  <PEOE_VSA-3>
3.8753545

>  <PEOE_VSA-4>
9.4210396

>  <PEOE_VSA-5>
13.566921

>  <PEOE_VSA-6>
6.7880106

>  <PEOE_VSA_FHYD>
0.83123952

>  <PEOE_VSA_FNEG>
0.33526352

>  <PEOE_VSA_FPNEG>
0.11761142

>  <PEOE_VSA_FPOL>
0.16876048

>  <PEOE_VSA_FPOS>
0.66473645

>  <PEOE_VSA_FPPOS>
0.051149055

>  <PEOE_VSA_HYD>
210.44693

>  <PEOE_VSA_NEG>
84.879478

>  <PEOE_VSA_PNEG>
29.77597

>  <PEOE_VSA_POL>
42.725502

>  <PEOE_VSA_POS>
168.29295

>  <PEOE_VSA_PPOS>
12.949531

>  <petitjean>
0.45454547

>  <petitjeanSC>
0.83333331

>  <Q_PC+>
0

>  <Q_PC->
0

>  <Q_RPC+>
0

>  <Q_RPC->
0

>  <Q_VSA_FHYD>
1

>  <Q_VSA_FNEG>
0

>  <Q_VSA_FPNEG>
0

>  <Q_VSA_FPOL>
0

>  <Q_VSA_FPOS>
1

>  <Q_VSA_FPPOS>
0

>  <Q_VSA_HYD>
253.17242

>  <Q_VSA_NEG>
0

>  <Q_VSA_PNEG>
0

>  <Q_VSA_POL>
0

>  <Q_VSA_POS>
253.17242

>  <Q_VSA_PPOS>
0

>  <radius>
6

>  <reactive>
0

>  <rings>
1

>  <RPC+>
0

>  <RPC->
0

>  <rsynth>
1

>  <SlogP>
0.81209999

>  <SlogP_VSA0>
50.785416

>  <SlogP_VSA1>
23.554056

>  <SlogP_VSA2>
41.076572

>  <SlogP_VSA3>
0

>  <SlogP_VSA4>
3.185575

>  <SlogP_VSA5>
16.663008

>  <SlogP_VSA6>
0

>  <SlogP_VSA7>
70.572739

>  <SlogP_VSA8>
0

>  <SlogP_VSA9>
81.274788

>  <SMR>
6.82618

>  <SMR_VSA0>
23.862217

>  <SMR_VSA1>
16.663008

>  <SMR_VSA2>
17.888229

>  <SMR_VSA3>
3.185575

>  <SMR_VSA4>
53.664684

>  <SMR_VSA5>
70.572739

>  <SMR_VSA6>
5.5433049

>  <SMR_VSA7>
95.732399

>  <TPSA>
111.6

>  <VAdjEq>
0.54356444

>  <VAdjMa>
5

>  <VDistEq>
3.2707491

>  <VDistMa>
7.6347189

>  <vdw_area>
253.17242

>  <vdw_vol>
298.20441

>  <vsa_acc>
54.372471

>  <vsa_acid>
0

>  <vsa_base>
0

>  <vsa_don>
32.846104

>  <vsa_hyd>
101.55052

>  <vsa_other>
46.415661

>  <vsa_pol>
87.218575

>  <Weight>
236.299

>  <weinerPath>
538

>  <weinerPol>
17

>  <zagreb>
72

$$$$