O(C(=O)C)CC
  MOE2013           2D

  6  5  0  0  0  0  0  0  0  0999 V2000
    0.0000    0.0000    0.0000 O   0  0  0  0  0  0  0  0  0  0  0  0
   -1.3010    0.7470    0.0000 C   0  0  0  0  0  0  0  0  0  0  0  0
   -2.5980   -0.0070    0.0000 O   0  0  0  0  0  0  0  0  0  0  0  0
   -1.3050    2.2470    0.0000 C   0  0  0  0  0  0  0  0  0  0  0  0
    1.2970    0.7530    0.0000 C   0  0  0  0  0  0  0  0  0  0  0  0
    2.5980    0.0070    0.0000 C   0  0  0  0  0  0  0  0  0  0  0  0
  1  2  1  0  0  0  0
  1  5  1  0  0  0  0
  2  3  2  0  0  0  0
  2  4  1  0  0  0  0
  5  6  1  0  0  0  0
M  END
>  <Index>
1190

>  <ID>
HT2367

>  <class>
0

>  <apol>
13.978344

>  <ast_fraglike>
1

>  <ast_fraglike_ext>
1

>  <ast_violation>
0

>  <ast_violation_ext>
0

>  <a_acc>
1

>  <a_acid>
0

>  <a_aro>
0

>  <a_base>
0

>  <a_count>
14

>  <a_don>
0

>  <a_donacc>
1

>  <a_heavy>
6

>  <a_hyd>
3

>  <a_IC>
19.302969

>  <a_ICM>
1.3787835

>  <a_nB>
0

>  <a_nBr>
0

>  <a_nC>
4

>  <a_nCl>
0

>  <a_nF>
0

>  <a_nH>
8

>  <a_nI>
0

>  <a_nN>
0

>  <a_nO>
2

>  <a_nP>
0

>  <a_nS>
0

>  <balabanJ>
2.6925194

>  <BCUT_PEOE_0>
-2.3826804

>  <BCUT_PEOE_1>
-0.14538306

>  <BCUT_PEOE_2>
0.048543133

>  <BCUT_PEOE_3>
2.3784761

>  <BCUT_SLOGP_0>
-2.4044409

>  <BCUT_SLOGP_1>
-0.018891079

>  <BCUT_SLOGP_2>
0.123

>  <BCUT_SLOGP_3>
2.377557

>  <BCUT_SMR_0>
-2.1574292

>  <BCUT_SMR_1>
0.06677936

>  <BCUT_SMR_2>
0.1057

>  <BCUT_SMR_3>
2.6012135

>  <bpol>
11.619656

>  <b_1rotN>
1

>  <b_1rotR>
0.2

>  <b_ar>
0

>  <b_count>
13

>  <b_double>
1

>  <b_heavy>
5

>  <b_max1len>
3

>  <b_rotN>
2

>  <b_rotR>
0.40000001

>  <b_single>
12

>  <b_triple>
0

>  <chi0>
4.9915638

>  <chi0v>
4.0236034

>  <chi0v_C>
3.2071068

>  <chi0_C>
3.284457

>  <chi1>
2.7700555

>  <chi1v>
1.9040302

>  <chi1v_C>
1.2071068

>  <chi1_C>
1.2844571

>  <chiral>
0

>  <chiral_u>
0

>  <density>
0.71368051

>  <diameter>
4

>  <FCharge>
0

>  <GCUT_PEOE_0>
-0.76354647

>  <GCUT_PEOE_1>
-0.29993951

>  <GCUT_PEOE_2>
-0.11145686

>  <GCUT_PEOE_3>
1.8203931

>  <GCUT_SLOGP_0>
-0.84508926

>  <GCUT_SLOGP_1>
-0.19152284

>  <GCUT_SLOGP_2>
-0.037

>  <GCUT_SLOGP_3>
1.8203104

>  <GCUT_SMR_0>
-0.51359302

>  <GCUT_SMR_1>
-0.10551517

>  <GCUT_SMR_2>
-0.054299999

>  <GCUT_SMR_3>
2.0252953

>  <Kier1>
6

>  <Kier2>
3.2

>  <Kier3>
5.3333335

>  <KierA1>
5.03652

>  <KierA2>
2.57372

>  <KierA3>
4.1069999

>  <KierFlex>
2.1604321

>  <lip_acc>
2

>  <lip_don>
0

>  <lip_druglike>
1

>  <lip_violation>
0

>  <logP(o/w)>
0.52600002

>  <logS>
-0.33328

>  <mr>
2.3673675

>  <mutagenic>
0

>  <nmol>
1

>  <opr_brigid>
0

>  <opr_leadlike>
1

>  <opr_nring>
0

>  <opr_nrot>
1

>  <opr_violation>
0

>  <PC+>
0

>  <PC->
0

>  <PEOE_PC+>
0.62194109

>  <PEOE_PC->
-0.62194109

>  <PEOE_RPC+>
0.41649029

>  <PEOE_RPC->
0.50756878

>  <PEOE_VSA+0>
44.339993

>  <PEOE_VSA+1>
23.482065

>  <PEOE_VSA+2>
0

>  <PEOE_VSA+3>
0

>  <PEOE_VSA+4>
0

>  <PEOE_VSA+5>
14.708499

>  <PEOE_VSA+6>
0

>  <PEOE_VSA-0>
18.747677

>  <PEOE_VSA-1>
0

>  <PEOE_VSA-2>
0

>  <PEOE_VSA-3>
0

>  <PEOE_VSA-4>
0

>  <PEOE_VSA-5>
13.566921

>  <PEOE_VSA-6>
2.503756

>  <PEOE_VSA_FHYD>
0.73771232

>  <PEOE_VSA_FNEG>
0.29670796

>  <PEOE_VSA_FPNEG>
0.13694781

>  <PEOE_VSA_FPOL>
0.26228771

>  <PEOE_VSA_FPOS>
0.70329207

>  <PEOE_VSA_FPPOS>
0.12533988

>  <PEOE_VSA_HYD>
86.569733

>  <PEOE_VSA_NEG>
34.818356

>  <PEOE_VSA_PNEG>
16.070677

>  <PEOE_VSA_POL>
30.779177

>  <PEOE_VSA_POS>
82.530556

>  <PEOE_VSA_PPOS>
14.708499

>  <petitjean>
0.5

>  <petitjeanSC>
1

>  <Q_PC+>
0

>  <Q_PC->
0

>  <Q_RPC+>
0

>  <Q_RPC->
0

>  <Q_VSA_FHYD>
1

>  <Q_VSA_FNEG>
0

>  <Q_VSA_FPNEG>
0

>  <Q_VSA_FPOL>
0

>  <Q_VSA_FPOS>
1

>  <Q_VSA_FPPOS>
0

>  <Q_VSA_HYD>
117.34892

>  <Q_VSA_NEG>
0

>  <Q_VSA_PNEG>
0

>  <Q_VSA_POL>
0

>  <Q_VSA_POS>
117.34892

>  <Q_VSA_PPOS>
0

>  <radius>
2

>  <reactive>
0

>  <rings>
0

>  <RPC+>
0

>  <RPC->
0

>  <rsynth>
1

>  <SlogP>
0.56940001

>  <SlogP_VSA0>
0

>  <SlogP_VSA1>
7.7454643

>  <SlogP_VSA2>
34.862103

>  <SlogP_VSA3>
20.926258

>  <SlogP_VSA4>
0

>  <SlogP_VSA5>
0

>  <SlogP_VSA6>
0

>  <SlogP_VSA7>
0

>  <SlogP_VSA8>
0

>  <SlogP_VSA9>
66.652031

>  <SMR>
2.2307

>  <SMR_VSA0>
34.862103

>  <SMR_VSA1>
0

>  <SMR_VSA2>
0

>  <SMR_VSA3>
0

>  <SMR_VSA4>
0

>  <SMR_VSA5>
0

>  <SMR_VSA6>
28.671722

>  <SMR_VSA7>
66.652031

>  <TPSA>
26.299999

>  <VAdjEq>
0.85240519

>  <VAdjMa>
3.321928

>  <VDistEq>
1.9086127

>  <VDistMa>
4.7417293

>  <vdw_area>
117.34892

>  <vdw_vol>
123.453

>  <vsa_acc>
13.566921

>  <vsa_acid>
0

>  <vsa_base>
0

>  <vsa_don>
0

>  <vsa_hyd>
80.875374

>  <vsa_other>
17.212255

>  <vsa_pol>
13.566921

>  <Weight>
88.105995

>  <weinerPath>
32

>  <weinerPol>
3

>  <zagreb>
20

$$$$