S=C(N(CC(O)=O)C)c1c2c(ccc1)c(C(F)(F)F)c(OC)cc2
  MOE2013           2D

 24 25  0  0  0  0  0  0  0  0999 V2000
    0.0000    0.0000    0.0000 S   0  0  0  0  0  0  0  0  0  0  0  0
    0.0100    1.5000    0.0000 C   0  0  0  0  0  0  0  0  0  0  0  0
    1.3150    2.2410    0.0000 N   0  0  0  0  0  0  0  0  0  0  0  0
    2.6080    1.4820    0.0000 C   0  0  0  0  0  0  0  0  0  0  0  0
    3.9130    2.2230    0.0000 C   0  0  0  0  0  0  0  0  0  0  0  0
    3.9230    3.7230    0.0000 O   0  0  0  0  0  0  0  0  0  0  0  0
    5.2060    1.4640    0.0000 O   0  0  0  0  0  0  0  0  0  0  0  0
    1.3250    3.7410    0.0000 C   0  0  0  0  0  0  0  0  0  0  0  0
   -1.2830    2.2590    0.0000 C   0  0  0  0  0  0  0  0  0  0  0  0
   -2.5880    1.5180    0.0000 C   0  0  0  0  0  0  0  0  0  0  0  0
   -3.8810    2.2770    0.0000 C   0  0  0  0  0  0  0  0  0  0  0  0
   -3.8710    3.7770    0.0000 C   0  0  0  0  0  0  0  0  0  0  0  0
   -2.5670    4.5180    0.0000 C   0  0  0  0  0  0  0  0  0  0  0  0
   -1.2730    3.7590    0.0000 C   0  0  0  0  0  0  0  0  0  0  0  0
   -5.1860    1.5360    0.0000 C   0  0  0  0  0  0  0  0  0  0  0  0
   -6.4800    2.2950    0.0000 C   0  0  0  0  0  0  0  0  0  0  0  0
   -5.7210    3.5890    0.0000 F   0  0  0  0  0  0  0  0  0  0  0  0
   -7.2380    1.0010    0.0000 F   0  0  0  0  0  0  0  0  0  0  0  0
   -7.7730    3.0540    0.0000 F   0  0  0  0  0  0  0  0  0  0  0  0
   -5.1960    0.0360    0.0000 C   0  0  0  0  0  0  0  0  0  0  0  0
   -6.5000   -0.7050    0.0000 O   0  0  0  0  0  0  0  0  0  0  0  0
   -6.5110   -2.2050    0.0000 C   0  0  0  0  0  0  0  0  0  0  0  0
   -3.9020   -0.7230    0.0000 C   0  0  0  0  0  0  0  0  0  0  0  0
   -2.5980    0.0180    0.0000 C   0  0  0  0  0  0  0  0  0  0  0  0
  1  2  2  0  0  0  0
  2  3  1  0  0  0  0
  2  9  1  0  0  0  0
  3  4  1  0  0  0  0
  3  8  1  0  0  0  0
  4  5  1  0  0  0  0
  5  6  1  0  0  0  0
  5  7  2  0  0  0  0
  9 10  1  0  0  0  0
  9 14  2  0  0  0  0
 10 11  1  0  0  0  0
 10 24  2  0  0  0  0
 11 12  1  0  0  0  0
 11 15  2  0  0  0  0
 12 13  2  0  0  0  0
 13 14  1  0  0  0  0
 15 16  1  0  0  0  0
 15 20  1  0  0  0  0
 16 17  1  0  0  0  0
 16 18  1  0  0  0  0
 16 19  1  0  0  0  0
 20 21  1  0  0  0  0
 20 23  2  0  0  0  0
 21 22  1  0  0  0  0
 23 24  1  0  0  0  0
M  END
>  <Index>
1090

>  <ID>
HT2087

>  <class>
0

>  <apol>
45.572102

>  <ast_fraglike>
0

>  <ast_fraglike_ext>
0

>  <ast_violation>
2

>  <ast_violation_ext>
3

>  <a_acc>
3

>  <a_acid>
0

>  <a_aro>
10

>  <a_base>
0

>  <a_count>
38

>  <a_don>
2

>  <a_donacc>
5

>  <a_heavy>
24

>  <a_hyd>
17

>  <a_IC>
72.608505

>  <a_ICM>
1.91075

>  <a_nB>
0

>  <a_nBr>
0

>  <a_nC>
16

>  <a_nCl>
0

>  <a_nF>
3

>  <a_nH>
14

>  <a_nI>
0

>  <a_nN>
1

>  <a_nO>
3

>  <a_nP>
0

>  <a_nS>
1

>  <balabanJ>
2.1857901

>  <BCUT_PEOE_0>
-2.4746635

>  <BCUT_PEOE_1>
-0.50026417

>  <BCUT_PEOE_2>
0.47281125

>  <BCUT_PEOE_3>
2.4242778

>  <BCUT_SLOGP_0>
-2.6109049

>  <BCUT_SLOGP_1>
-0.44679824

>  <BCUT_SLOGP_2>
0.55728656

>  <BCUT_SLOGP_3>
2.526726

>  <BCUT_SMR_0>
-2.1745238

>  <BCUT_SMR_1>
-0.29543346

>  <BCUT_SMR_2>
0.64318472

>  <BCUT_SMR_3>
2.7218542

>  <bpol>
24.907898

>  <b_1rotN>
5

>  <b_1rotR>
0.2

>  <b_ar>
11

>  <b_count>
39

>  <b_double>
2

>  <b_heavy>
25

>  <b_max1len>
4

>  <b_rotN>
6

>  <b_rotR>
0.23999999

>  <b_single>
26

>  <b_triple>
0

>  <chi0>
18.06855

>  <chi0v>
13.66342

>  <chi0v_C>
9.5938578

>  <chi0_C>
10.784093

>  <chi1>
11.162921

>  <chi1v>
7.2147245

>  <chi1v_C>
4.0082541

>  <chi1_C>
5.4965835

>  <chiral>
0

>  <chiral_u>
0

>  <density>
0.87221187

>  <diameter>
11

>  <FCharge>
0

>  <GCUT_PEOE_0>
-0.83472341

>  <GCUT_PEOE_1>
-0.40178174

>  <GCUT_PEOE_2>
0.04065812

>  <GCUT_PEOE_3>
2.5338008

>  <GCUT_SLOGP_0>
-0.96764624

>  <GCUT_SLOGP_1>
-0.28251773

>  <GCUT_SLOGP_2>
0.22569062

>  <GCUT_SLOGP_3>
2.6713414

>  <GCUT_SMR_0>
-0.49408343

>  <GCUT_SMR_1>
-0.18107644

>  <GCUT_SMR_2>
0.19796114

>  <GCUT_SMR_3>
2.8445277

>  <Kier1>
20.313601

>  <Kier2>
8.1314831

>  <Kier3>
4.6011772

>  <KierA1>
16.128283

>  <KierA2>
6.3869691

>  <KierA3>
3.5861154

>  <KierFlex>
4.2921181

>  <lip_acc>
4

>  <lip_don>
1

>  <lip_druglike>
1

>  <lip_violation>
0

>  <logP(o/w)>
3.2737601

>  <logS>
-5.8775702

>  <mr>
8.7050791

>  <mutagenic>
0

>  <nmol>
1

>  <opr_brigid>
11

>  <opr_leadlike>
1

>  <opr_nring>
2

>  <opr_nrot>
4

>  <opr_violation>
0

>  <PC+>
0

>  <PC->
0

>  <PEOE_PC+>
2.0321536

>  <PEOE_PC->
-2.0321536

>  <PEOE_RPC+>
0.2068508

>  <PEOE_RPC->
0.17091903

>  <PEOE_VSA+0>
37.793816

>  <PEOE_VSA+1>
66.513245

>  <PEOE_VSA+2>
31.384512

>  <PEOE_VSA+3>
0

>  <PEOE_VSA+4>
10.324173

>  <PEOE_VSA+5>
14.708499

>  <PEOE_VSA+6>
9.0455017

>  <PEOE_VSA-0>
50.794827

>  <PEOE_VSA-1>
49.019615

>  <PEOE_VSA-2>
0

>  <PEOE_VSA-3>
35.725906

>  <PEOE_VSA-4>
0

>  <PEOE_VSA-5>
13.566921

>  <PEOE_VSA-6>
10.271297

>  <PEOE_VSA_FHYD>
0.82404166

>  <PEOE_VSA_FNEG>
0.48421505

>  <PEOE_VSA_FPNEG>
0.072423942

>  <PEOE_VSA_FPOL>
0.17595835

>  <PEOE_VSA_FPOS>
0.51578498

>  <PEOE_VSA_FPPOS>
0.1035344

>  <PEOE_VSA_HYD>
271.2319

>  <PEOE_VSA_NEG>
159.37857

>  <PEOE_VSA_PNEG>
23.838217

>  <PEOE_VSA_POL>
57.916389

>  <PEOE_VSA_POS>
169.76974

>  <PEOE_VSA_PPOS>
34.078175

>  <petitjean>
0.45454547

>  <petitjeanSC>
0.83333331

>  <Q_PC+>
0

>  <Q_PC->
0

>  <Q_RPC+>
0

>  <Q_RPC->
0

>  <Q_VSA_FHYD>
1

>  <Q_VSA_FNEG>
0

>  <Q_VSA_FPNEG>
0

>  <Q_VSA_FPOL>
0

>  <Q_VSA_FPOS>
1

>  <Q_VSA_FPPOS>
0

>  <Q_VSA_HYD>
329.14832

>  <Q_VSA_NEG>
0

>  <Q_VSA_PNEG>
0

>  <Q_VSA_POL>
0

>  <Q_VSA_POS>
329.14832

>  <Q_VSA_PPOS>
0

>  <radius>
6

>  <reactive>
0

>  <rings>
2

>  <RPC+>
0

>  <RPC->
0

>  <rsynth>
1

>  <SlogP>
3.8706

>  <SlogP_VSA0>
10.999887

>  <SlogP_VSA1>
11.583127

>  <SlogP_VSA2>
23.862217

>  <SlogP_VSA3>
43.824806

>  <SlogP_VSA4>
6.37115

>  <SlogP_VSA5>
68.281059

>  <SlogP_VSA6>
7.7595162

>  <SlogP_VSA7>
93.361847

>  <SlogP_VSA8>
0

>  <SlogP_VSA9>
95.315796

>  <SMR>
8.7585802

>  <SMR_VSA0>
23.862217

>  <SMR_VSA1>
59.004543

>  <SMR_VSA2>
33.144741

>  <SMR_VSA3>
11.614578

>  <SMR_VSA4>
5.1459289

>  <SMR_VSA5>
88.215919

>  <SMR_VSA6>
26.898392

>  <SMR_VSA7>
113.47308

>  <TPSA>
81.860001

>  <VAdjEq>
0.42571631

>  <VAdjMa>
5.643856

>  <VDistEq>
3.2063468

>  <VDistMa>
8.9009676

>  <vdw_area>
329.14832

>  <vdw_vol>
409.70776

>  <vsa_acc>
31.384512

>  <vsa_acid>
0

>  <vsa_base>
0

>  <vsa_don>
0

>  <vsa_hyd>
230.96396

>  <vsa_other>
25.887869

>  <vsa_pol>
58.518353

>  <Weight>
357.35199

>  <weinerPath>
1266

>  <weinerPol>
41

>  <zagreb>
124

$$$$