Clc1ccccc1CC(N)(C)C
  MOE2013           2D

 12 12  0  0  0  0  0  0  0  0999 V2000
    0.0000    0.0000    0.0000 Cl  0  0  0  0  0  0  0  0  0  0  0  0
    0.7430   -1.3030    0.0000 C   0  0  0  0  0  0  0  0  0  0  0  0
    2.2430   -1.3110    0.0000 C   0  0  0  0  0  0  0  0  0  0  0  0
    2.9860   -2.6140    0.0000 C   0  0  0  0  0  0  0  0  0  0  0  0
    2.2290   -3.9090    0.0000 C   0  0  0  0  0  0  0  0  0  0  0  0
    0.7290   -3.9010    0.0000 C   0  0  0  0  0  0  0  0  0  0  0  0
   -0.0140   -2.5980    0.0000 C   0  0  0  0  0  0  0  0  0  0  0  0
   -1.5140   -2.5900    0.0000 C   0  0  0  0  0  0  0  0  0  0  0  0
   -2.2710   -3.8850    0.0000 C   0  0  0  0  0  0  0  0  0  0  0  0
   -3.5660   -3.1280    0.0000 N   0  0  0  0  0  0  0  0  0  0  0  0
   -3.0280   -5.1800    0.0000 C   0  0  0  0  0  0  0  0  0  0  0  0
   -0.9760   -4.6420    0.0000 C   0  0  0  0  0  0  0  0  0  0  0  0
  1  2  1  0  0  0  0
  2  3  1  0  0  0  0
  2  7  2  0  0  0  0
  3  4  2  0  0  0  0
  4  5  1  0  0  0  0
  5  6  2  0  0  0  0
  6  7  1  0  0  0  0
  7  8  1  0  0  0  0
  8  9  1  0  0  0  0
  9 10  1  0  0  0  0
  9 11  1  0  0  0  0
  9 12  1  0  0  0  0
M  END
>  <Index>
1252

>  <ID>
HT2795

>  <class>
0

>  <apol>
30.215101

>  <ast_fraglike>
1

>  <ast_fraglike_ext>
1

>  <ast_violation>
0

>  <ast_violation_ext>
0

>  <a_acc>
1

>  <a_acid>
0

>  <a_aro>
6

>  <a_base>
0

>  <a_count>
26

>  <a_don>
1

>  <a_donacc>
2

>  <a_heavy>
12

>  <a_hyd>
11

>  <a_IC>
35.689182

>  <a_ICM>
1.3726609

>  <a_nB>
0

>  <a_nBr>
0

>  <a_nC>
10

>  <a_nCl>
1

>  <a_nF>
0

>  <a_nH>
14

>  <a_nI>
0

>  <a_nN>
1

>  <a_nO>
0

>  <a_nP>
0

>  <a_nS>
0

>  <balabanJ>
2.4153666

>  <BCUT_PEOE_0>
-2.6605625

>  <BCUT_PEOE_1>
-0.34853989

>  <BCUT_PEOE_2>
0.42721376

>  <BCUT_PEOE_3>
2.6011894

>  <BCUT_SLOGP_0>
-2.7852852

>  <BCUT_SLOGP_1>
-0.26104191

>  <BCUT_SLOGP_2>
0.54263544

>  <BCUT_SLOGP_3>
2.5994661

>  <BCUT_SMR_0>
-2.3947957

>  <BCUT_SMR_1>
-0.21454878

>  <BCUT_SMR_2>
0.58373898

>  <BCUT_SMR_3>
2.8654974

>  <bpol>
15.064898

>  <b_1rotN>
2

>  <b_1rotR>
0.16666667

>  <b_ar>
6

>  <b_count>
26

>  <b_double>
0

>  <b_heavy>
12

>  <b_max1len>
4

>  <b_rotN>
2

>  <b_rotR>
0.16666667

>  <b_single>
20

>  <b_triple>
0

>  <chi0>
9.1902342

>  <chi0v>
8.2277517

>  <chi0v_C>
6.5165076

>  <chi0_C>
7.1902347

>  <chi1>
5.4889817

>  <chi1v>
4.390079

>  <chi1v_C>
3.534457

>  <chi1_C>
4.4116316

>  <chiral>
0

>  <chiral_u>
0

>  <density>
0.71412146

>  <diameter>
6

>  <FCharge>
0

>  <GCUT_PEOE_0>
-0.83848703

>  <GCUT_PEOE_1>
-0.30532581

>  <GCUT_PEOE_2>
0.020574279

>  <GCUT_PEOE_3>
2.3777897

>  <GCUT_SLOGP_0>
-1.3633628

>  <GCUT_SLOGP_1>
-0.21704063

>  <GCUT_SLOGP_2>
0.11199379

>  <GCUT_SLOGP_3>
2.4635782

>  <GCUT_SMR_0>
-0.52099407

>  <GCUT_SMR_1>
-0.12571998

>  <GCUT_SMR_2>
0.13075241

>  <GCUT_SMR_3>
2.6437967

>  <Kier1>
10.083333

>  <Kier2>
3.8062284

>  <Kier3>
3.515625

>  <KierA1>
9.2413359

>  <KierA2>
3.4584944

>  <KierA3>
3.1728888

>  <KierFlex>
2.6634259

>  <lip_acc>
1

>  <lip_don>
2

>  <lip_druglike>
1

>  <lip_violation>
0

>  <logP(o/w)>
2.7090001

>  <logS>
-2.49998

>  <mr>
5.3099613

>  <mutagenic>
0

>  <nmol>
1

>  <opr_brigid>
6

>  <opr_leadlike>
1

>  <opr_nring>
1

>  <opr_nrot>
2

>  <opr_violation>
0

>  <PC+>
0

>  <PC->
0

>  <PEOE_PC+>
0.75999045

>  <PEOE_PC->
-0.75999045

>  <PEOE_RPC+>
0.15620974

>  <PEOE_RPC->
0.42737734

>  <PEOE_VSA+0>
38.642834

>  <PEOE_VSA+1>
17.061544

>  <PEOE_VSA+2>
17.238026

>  <PEOE_VSA+3>
0

>  <PEOE_VSA+4>
0

>  <PEOE_VSA+5>
0

>  <PEOE_VSA+6>
0

>  <PEOE_VSA-0>
60.66011

>  <PEOE_VSA-1>
66.346657

>  <PEOE_VSA-2>
0

>  <PEOE_VSA-3>
0

>  <PEOE_VSA-4>
0

>  <PEOE_VSA-5>
0

>  <PEOE_VSA-6>
6.6511192

>  <PEOE_VSA_FHYD>
0.96780682

>  <PEOE_VSA_FNEG>
0.64693952

>  <PEOE_VSA_FPNEG>
0.032193176

>  <PEOE_VSA_FPOL>
0.032193176

>  <PEOE_VSA_FPOS>
0.35306051

>  <PEOE_VSA_FPPOS>
0

>  <PEOE_VSA_HYD>
199.94917

>  <PEOE_VSA_NEG>
133.65788

>  <PEOE_VSA_PNEG>
6.6511192

>  <PEOE_VSA_POL>
6.6511192

>  <PEOE_VSA_POS>
72.942406

>  <PEOE_VSA_PPOS>
0

>  <petitjean>
0.5

>  <petitjeanSC>
1

>  <Q_PC+>
0

>  <Q_PC->
0

>  <Q_RPC+>
0

>  <Q_RPC->
0

>  <Q_VSA_FHYD>
1

>  <Q_VSA_FNEG>
0

>  <Q_VSA_FPNEG>
0

>  <Q_VSA_FPOL>
0

>  <Q_VSA_FPOS>
1

>  <Q_VSA_FPPOS>
0

>  <Q_VSA_HYD>
206.6003

>  <Q_VSA_NEG>
0

>  <Q_VSA_PNEG>
0

>  <Q_VSA_POL>
0

>  <Q_VSA_POS>
206.6003

>  <Q_VSA_PPOS>
0

>  <radius>
3

>  <reactive>
0

>  <rings>
1

>  <RPC+>
0

>  <RPC->
0

>  <rsynth>
0

>  <SlogP>
2.6197701

>  <SlogP_VSA0>
32.897186

>  <SlogP_VSA1>
0

>  <SlogP_VSA2>
0

>  <SlogP_VSA3>
0

>  <SlogP_VSA4>
3.185575

>  <SlogP_VSA5>
18.868406

>  <SlogP_VSA6>
3.5006065

>  <SlogP_VSA7>
70.572739

>  <SlogP_VSA8>
0

>  <SlogP_VSA9>
105.80067

>  <SMR>
5.3422399

>  <SMR_VSA0>
0

>  <SMR_VSA1>
0

>  <SMR_VSA2>
0

>  <SMR_VSA3>
6.6861815

>  <SMR_VSA4>
32.897186

>  <SMR_VSA5>
89.441139

>  <SMR_VSA6>
0

>  <SMR_VSA7>
105.80067

>  <TPSA>
26.02

>  <VAdjEq>
0.65002245

>  <VAdjMa>
4.5849624

>  <VDistEq>
2.4589388

>  <VDistMa>
6.8634768

>  <vdw_area>
206.6003

>  <vdw_vol>
257.21393

>  <vsa_acc>
0

>  <vsa_acid>
0

>  <vsa_base>
0

>  <vsa_don>
0

>  <vsa_hyd>
174.1696

>  <vsa_other>
0

>  <vsa_pol>
17.742489

>  <Weight>
183.68199

>  <weinerPath>
197

>  <weinerPol>
13

>  <zagreb>
58

$$$$