S(=O)(=O)(Nc1ncccn1)c1ccc(N)cc1
  MOE2013           2D

 17 18  0  0  0  0  0  0  0  0999 V2000
    0.0000    0.0000    0.0000 S   0  0  0  0  0  0  0  0  0  0  0  0
   -0.7460    1.3010    0.0000 O   0  0  0  0  0  0  0  0  0  0  0  0
    0.7460   -1.3010    0.0000 O   0  0  0  0  0  0  0  0  0  0  0  0
   -1.3010   -0.7460    0.0000 N   0  0  0  0  0  0  0  0  0  0  0  0
   -2.5980    0.0070    0.0000 C   0  0  0  0  0  0  0  0  0  0  0  0
   -2.5940    1.5070    0.0000 N   0  0  0  0  0  0  0  0  0  0  0  0
   -3.8910    2.2610    0.0000 C   0  0  0  0  0  0  0  0  0  0  0  0
   -5.1920    1.5150    0.0000 C   0  0  0  0  0  0  0  0  0  0  0  0
   -5.1960    0.0150    0.0000 C   0  0  0  0  0  0  0  0  0  0  0  0
   -3.8990   -0.7390    0.0000 N   0  0  0  0  0  0  0  0  0  0  0  0
    1.3010    0.7460    0.0000 C   0  0  0  0  0  0  0  0  0  0  0  0
    1.3050    2.2460    0.0000 C   0  0  0  0  0  0  0  0  0  0  0  0
    2.6070    2.9930    0.0000 C   0  0  0  0  0  0  0  0  0  0  0  0
    3.9040    2.2390    0.0000 C   0  0  0  0  0  0  0  0  0  0  0  0
    5.2050    2.9850    0.0000 N   0  0  0  0  0  0  0  0  0  0  0  0
    3.8990    0.7390    0.0000 C   0  0  0  0  0  0  0  0  0  0  0  0
    2.5980   -0.0070    0.0000 C   0  0  0  0  0  0  0  0  0  0  0  0
  1  2  2  0  0  0  0
  1  3  2  0  0  0  0
  1  4  1  0  0  0  0
  1 11  1  0  0  0  0
  4  5  1  0  0  0  0
  5  6  1  0  0  0  0
  5 10  2  0  0  0  0
  6  7  2  0  0  0  0
  7  8  1  0  0  0  0
  8  9  2  0  0  0  0
  9 10  1  0  0  0  0
 11 12  1  0  0  0  0
 11 17  2  0  0  0  0
 12 13  2  0  0  0  0
 13 14  1  0  0  0  0
 14 15  1  0  0  0  0
 14 16  2  0  0  0  0
 16 17  1  0  0  0  0
M  END
>  <Index>
1012

>  <ID>
HT1937

>  <class>
0

>  <apol>
33.171928

>  <ast_fraglike>
0

>  <ast_fraglike_ext>
0

>  <ast_violation>
1

>  <ast_violation_ext>
2

>  <a_acc>
4

>  <a_acid>
0

>  <a_aro>
12

>  <a_base>
0

>  <a_count>
27

>  <a_don>
2

>  <a_donacc>
6

>  <a_heavy>
17

>  <a_hyd>
9

>  <a_IC>
51.943401

>  <a_ICM>
1.9238297

>  <a_nB>
0

>  <a_nBr>
0

>  <a_nC>
10

>  <a_nCl>
0

>  <a_nF>
0

>  <a_nH>
10

>  <a_nI>
0

>  <a_nN>
4

>  <a_nO>
2

>  <a_nP>
0

>  <a_nS>
1

>  <balabanJ>
1.8481435

>  <BCUT_PEOE_0>
-2.2970572

>  <BCUT_PEOE_1>
-0.66192102

>  <BCUT_PEOE_2>
0.71975344

>  <BCUT_PEOE_3>
2.4539876

>  <BCUT_SLOGP_0>
-2.4372473

>  <BCUT_SLOGP_1>
-0.61856335

>  <BCUT_SLOGP_2>
0.78166926

>  <BCUT_SLOGP_3>
2.3891966

>  <BCUT_SMR_0>
-1.9833716

>  <BCUT_SMR_1>
-0.51420099

>  <BCUT_SMR_2>
0.87539202

>  <BCUT_SMR_3>
2.761905

>  <bpol>
20.048071

>  <b_1rotN>
3

>  <b_1rotR>
0.16666667

>  <b_ar>
12

>  <b_count>
28

>  <b_double>
0

>  <b_heavy>
18

>  <b_max1len>
3

>  <b_rotN>
3

>  <b_rotR>
0.16666667

>  <b_single>
16

>  <b_triple>
0

>  <chi0>
12.303119

>  <chi0v>
9.554471

>  <chi0v_C>
5.5414519

>  <chi0_C>
6.6817985

>  <chi1>
8.0773172

>  <chi1v>
6.2150655

>  <chi1v_C>
2.4880338

>  <chi1_C>
3.6329932

>  <chiral>
0

>  <chiral_u>
0

>  <density>
0.84754312

>  <diameter>
10

>  <FCharge>
0

>  <GCUT_PEOE_0>
-0.84790307

>  <GCUT_PEOE_1>
-0.38257855

>  <GCUT_PEOE_2>
0.10091532

>  <GCUT_PEOE_3>
2.2862215

>  <GCUT_SLOGP_0>
-1.3342901

>  <GCUT_SLOGP_1>
-0.42180359

>  <GCUT_SLOGP_2>
0.16408004

>  <GCUT_SLOGP_3>
2.3240883

>  <GCUT_SMR_0>
-0.40723139

>  <GCUT_SMR_1>
-0.20356947

>  <GCUT_SMR_2>
0.21629018

>  <GCUT_SMR_3>
2.5710671

>  <Kier1>
13.432098

>  <Kier2>
5.7600002

>  <Kier3>
3.7288942

>  <KierA1>
10.099036

>  <KierA2>
4.2465863

>  <KierA3>
2.7063208

>  <KierFlex>
2.5227313

>  <lip_acc>
6

>  <lip_don>
3

>  <lip_druglike>
1

>  <lip_violation>
0

>  <logP(o/w)>
-0.026000001

>  <logS>
-2.2722001

>  <mr>
6.443193

>  <mutagenic>
1

>  <nmol>
1

>  <opr_brigid>
12

>  <opr_leadlike>
1

>  <opr_nring>
2

>  <opr_nrot>
2

>  <opr_violation>
0

>  <PC+>
0

>  <PC->
0

>  <PEOE_PC+>
1.5069731

>  <PEOE_PC->
-1.5069731

>  <PEOE_RPC+>
0.20589121

>  <PEOE_RPC->
0.26206657

>  <PEOE_VSA+0>
46.890934

>  <PEOE_VSA+1>
29.857702

>  <PEOE_VSA+2>
25.857038

>  <PEOE_VSA+3>
0

>  <PEOE_VSA+4>
10.105608

>  <PEOE_VSA+5>
0

>  <PEOE_VSA+6>
4.1846013

>  <PEOE_VSA-0>
56.526333

>  <PEOE_VSA-1>
48.276257

>  <PEOE_VSA-2>
0

>  <PEOE_VSA-3>
0

>  <PEOE_VSA-4>
0

>  <PEOE_VSA-5>
0

>  <PEOE_VSA-6>
18.016272

>  <PEOE_VSA_FHYD>
0.86522949

>  <PEOE_VSA_FNEG>
0.5123542

>  <PEOE_VSA_FPNEG>
0.075157128

>  <PEOE_VSA_FPOL>
0.13477053

>  <PEOE_VSA_FPOS>
0.48764578

>  <PEOE_VSA_FPPOS>
0.059613395

>  <PEOE_VSA_HYD>
207.40826

>  <PEOE_VSA_NEG>
122.81886

>  <PEOE_VSA_PNEG>
18.016272

>  <PEOE_VSA_POL>
32.30648

>  <PEOE_VSA_POS>
116.89588

>  <PEOE_VSA_PPOS>
14.29021

>  <petitjean>
0.5

>  <petitjeanSC>
1

>  <Q_PC+>
0

>  <Q_PC->
0

>  <Q_RPC+>
0

>  <Q_RPC->
0

>  <Q_VSA_FHYD>
1

>  <Q_VSA_FNEG>
0

>  <Q_VSA_FPNEG>
0

>  <Q_VSA_FPOL>
0

>  <Q_VSA_FPOS>
1

>  <Q_VSA_FPPOS>
0

>  <Q_VSA_HYD>
239.71474

>  <Q_VSA_NEG>
0

>  <Q_VSA_PNEG>
0

>  <Q_VSA_POL>
0

>  <Q_VSA_POS>
239.71474

>  <Q_VSA_PPOS>
0

>  <radius>
5

>  <reactive>
0

>  <rings>
2

>  <RPC+>
0

>  <RPC->
0

>  <rsynth>
1

>  <SlogP>
0.85960001

>  <SlogP_VSA0>
32.897186

>  <SlogP_VSA1>
98.147743

>  <SlogP_VSA2>
6.6407428

>  <SlogP_VSA3>
0

>  <SlogP_VSA4>
0

>  <SlogP_VSA5>
1.5507339

>  <SlogP_VSA6>
0

>  <SlogP_VSA7>
122.64464

>  <SlogP_VSA8>
0

>  <SlogP_VSA9>
4.6558404

>  <SMR>
6.3694901

>  <SMR_VSA0>
48.171688

>  <SMR_VSA1>
33.57106

>  <SMR_VSA2>
1.5507339

>  <SMR_VSA3>
0

>  <SMR_VSA4>
21.060839

>  <SMR_VSA5>
155.54182

>  <SMR_VSA6>
0

>  <SMR_VSA7>
6.6407428

>  <TPSA>
97.970001

>  <VAdjEq>
0.54234898

>  <VAdjMa>
5.1699252

>  <VDistEq>
3.0228171

>  <VDistMa>
7.8626499

>  <vdw_area>
239.71474

>  <vdw_vol>
295.30298

>  <vsa_acc>
43.381676

>  <vsa_acid>
0

>  <vsa_base>
0

>  <vsa_don>
25.817696

>  <vsa_hyd>
130.52563

>  <vsa_other>
25.787182

>  <vsa_pol>
69.199371

>  <Weight>
250.282

>  <weinerPath>
536

>  <weinerPol>
23

>  <zagreb>
86

$$$$