Oc1cc(ccc1)[C@@H]([C@H](CN(C)C)C)CC
  MOE2013           2D

 16 16  0  0  1  0  0  0  0  0999 V2000
    0.0000    0.0000    0.0000 O   0  0  0  0  0  0  0  0  0  0  0  0
    1.3000   -0.7490    0.0000 C   0  0  0  0  0  0  0  0  0  0  0  0
    2.5980    0.0020    0.0000 C   0  0  0  0  0  0  0  0  0  0  0  0
    3.8980   -0.7460    0.0000 C   0  0  0  0  0  0  0  0  0  0  0  0
    3.8990   -2.2460    0.0000 C   0  0  0  0  0  0  0  0  0  0  0  0
    2.6010   -2.9980    0.0000 C   0  0  0  0  0  0  0  0  0  0  0  0
    1.3010   -2.2490    0.0000 C   0  0  0  0  0  0  0  0  0  0  0  0
    5.1960    0.0050    0.0000 C   0  0  1  0  0  0  0  0  0  0  0  0
    6.4960   -0.7440    0.0000 C   0  0  2  0  0  0  0  0  0  0  0  0
    7.7940    0.0070    0.0000 C   0  0  0  0  0  0  0  0  0  0  0  0
    9.0940   -0.7410    0.0000 N   0  0  0  0  0  0  0  0  0  0  0  0
   10.3920    0.0100    0.0000 C   0  0  0  0  0  0  0  0  0  0  0  0
    9.0950   -2.2410    0.0000 C   0  0  0  0  0  0  0  0  0  0  0  0
    6.4970   -2.2440    0.0000 C   0  0  0  0  0  0  0  0  0  0  0  0
    5.1950    1.5050    0.0000 C   0  0  0  0  0  0  0  0  0  0  0  0
    6.4930    2.2560    0.0000 C   0  0  0  0  0  0  0  0  0  0  0  0
  1  2  1  0  0  0  0
  2  3  2  0  0  0  0
  2  7  1  0  0  0  0
  3  4  1  0  0  0  0
  4  5  2  0  0  0  0
  5  6  1  0  0  0  0
  6  7  2  0  0  0  0
  8  4  1  6  0  0  0
  8  9  1  0  0  0  0
  8 15  1  0  0  0  0
  9 10  1  0  0  0  0
  9 14  1  6  0  0  0
 10 11  1  0  0  0  0
 11 12  1  0  0  0  0
 11 13  1  0  0  0  0
 15 16  1  0  0  0  0
M  END
>  <Index>
1034

>  <ID>
HT1980

>  <class>
0

>  <apol>
41.878239

>  <ast_fraglike>
0

>  <ast_fraglike_ext>
0

>  <ast_violation>
1

>  <ast_violation_ext>
2

>  <a_acc>
2

>  <a_acid>
0

>  <a_aro>
6

>  <a_base>
0

>  <a_count>
39

>  <a_don>
1

>  <a_donacc>
3

>  <a_heavy>
16

>  <a_hyd>
14

>  <a_IC>
48.785793

>  <a_ICM>
1.2509178

>  <a_nB>
0

>  <a_nBr>
0

>  <a_nC>
14

>  <a_nCl>
0

>  <a_nF>
0

>  <a_nH>
23

>  <a_nI>
0

>  <a_nN>
1

>  <a_nO>
1

>  <a_nP>
0

>  <a_nS>
0

>  <balabanJ>
2.5201724

>  <BCUT_PEOE_0>
-2.7388082

>  <BCUT_PEOE_1>
-0.25906774

>  <BCUT_PEOE_2>
0.26952311

>  <BCUT_PEOE_3>
2.6729524

>  <BCUT_SLOGP_0>
-2.7302547

>  <BCUT_SLOGP_1>
-0.20350692

>  <BCUT_SLOGP_2>
0.30633664

>  <BCUT_SLOGP_3>
2.7636218

>  <BCUT_SMR_0>
-2.4734976

>  <BCUT_SMR_1>
-0.068154983

>  <BCUT_SMR_2>
0.37877405

>  <BCUT_SMR_3>
2.9362879

>  <bpol>
27.12376

>  <b_1rotN>
5

>  <b_1rotR>
0.3125

>  <b_ar>
6

>  <b_count>
39

>  <b_double>
0

>  <b_heavy>
16

>  <b_max1len>
8

>  <b_rotN>
5

>  <b_rotR>
0.3125

>  <b_single>
33

>  <b_triple>
0

>  <chi0>
12.129392

>  <chi0v>
10.772742

>  <chi0v_C>
9.878315

>  <chi0_C>
10.552042

>  <chi1>
7.5409126

>  <chi1v>
5.978591

>  <chi1v_C>
4.5443292

>  <chi1_C>
5.4006133

>  <chiral>
2

>  <chiral_u>
0

>  <density>
0.63109785

>  <diameter>
8

>  <FCharge>
0

>  <GCUT_PEOE_0>
-0.86359841

>  <GCUT_PEOE_1>
-0.33227473

>  <GCUT_PEOE_2>
-0.061114106

>  <GCUT_PEOE_3>
2.6709046

>  <GCUT_SLOGP_0>
-0.9543696

>  <GCUT_SLOGP_1>
-0.25079823

>  <GCUT_SLOGP_2>
0.01914583

>  <GCUT_SLOGP_3>
2.7729599

>  <GCUT_SMR_0>
-0.52781254

>  <GCUT_SMR_1>
-0.12482797

>  <GCUT_SMR_2>
0.047604572

>  <GCUT_SMR_3>
2.9178023

>  <Kier1>
14.0625

>  <Kier2>
6.6666665

>  <Kier3>
4.4236112

>  <KierA1>
12.021921

>  <KierA2>
5.6353893

>  <KierA3>
3.7077601

>  <KierFlex>
4.2342629

>  <lip_acc>
2

>  <lip_don>
1

>  <lip_druglike>
1

>  <lip_violation>
0

>  <logP(o/w)>
3.3840001

>  <logS>
-2.3898301

>  <mr>
6.8732309

>  <mutagenic>
0

>  <nmol>
1

>  <opr_brigid>
6

>  <opr_leadlike>
1

>  <opr_nring>
1

>  <opr_nrot>
5

>  <opr_violation>
0

>  <PC+>
0

>  <PC->
0

>  <PEOE_PC+>
1.1239209

>  <PEOE_PC->
-1.1239209

>  <PEOE_RPC+>
0.19335294

>  <PEOE_RPC->
0.32015041

>  <PEOE_VSA+0>
89.969276

>  <PEOE_VSA+1>
25.520063

>  <PEOE_VSA+2>
0

>  <PEOE_VSA+3>
0

>  <PEOE_VSA+4>
10.324173

>  <PEOE_VSA+5>
0

>  <PEOE_VSA+6>
0

>  <PEOE_VSA-0>
81.897041

>  <PEOE_VSA-1>
62.005161

>  <PEOE_VSA-2>
0

>  <PEOE_VSA-3>
0

>  <PEOE_VSA-4>
0

>  <PEOE_VSA-5>
0

>  <PEOE_VSA-6>
7.7675405

>  <PEOE_VSA_FHYD>
0.93480068

>  <PEOE_VSA_FNEG>
0.54659063

>  <PEOE_VSA_FPNEG>
0.027992826

>  <PEOE_VSA_FPOL>
0.065199301

>  <PEOE_VSA_FPOS>
0.45340937

>  <PEOE_VSA_FPPOS>
0.037206471

>  <PEOE_VSA_HYD>
259.39154

>  <PEOE_VSA_NEG>
151.66974

>  <PEOE_VSA_PNEG>
7.7675405

>  <PEOE_VSA_POL>
18.091713

>  <PEOE_VSA_POS>
125.81351

>  <PEOE_VSA_PPOS>
10.324173

>  <petitjean>
0.5

>  <petitjeanSC>
1

>  <Q_PC+>
0

>  <Q_PC->
0

>  <Q_RPC+>
0

>  <Q_RPC->
0

>  <Q_VSA_FHYD>
1

>  <Q_VSA_FNEG>
0

>  <Q_VSA_FPNEG>
0

>  <Q_VSA_FPOL>
0

>  <Q_VSA_FPOS>
1

>  <Q_VSA_FPPOS>
0

>  <Q_VSA_HYD>
277.48325

>  <Q_VSA_NEG>
0

>  <Q_VSA_PNEG>
0

>  <Q_VSA_POL>
0

>  <Q_VSA_POS>
277.48325

>  <Q_VSA_PPOS>
0

>  <radius>
4

>  <reactive>
0

>  <rings>
1

>  <RPC+>
0

>  <RPC->
0

>  <rsynth>
0

>  <SlogP>
3.0834999

>  <SlogP_VSA0>
25.385227

>  <SlogP_VSA1>
3.1243138

>  <SlogP_VSA2>
0

>  <SlogP_VSA3>
18.439579

>  <SlogP_VSA4>
7.5963712

>  <SlogP_VSA5>
65.794373

>  <SlogP_VSA6>
4.4107962

>  <SlogP_VSA7>
70.572739

>  <SlogP_VSA8>
18.868406

>  <SlogP_VSA9>
71.895454

>  <SMR>
6.8856802

>  <SMR_VSA0>
0

>  <SMR_VSA1>
28.509541

>  <SMR_VSA2>
4.4107962

>  <SMR_VSA3>
12.839799

>  <SMR_VSA4>
0

>  <SMR_VSA5>
89.441139

>  <SMR_VSA6>
18.439579

>  <SMR_VSA7>
132.44641

>  <TPSA>
23.469999

>  <VAdjEq>
0.54356444

>  <VAdjMa>
5

>  <VDistEq>
2.8484273

>  <VDistMa>
7.7130194

>  <vdw_area>
277.48325

>  <vdw_vol>
350.72849

>  <vsa_acc>
0

>  <vsa_acid>
0

>  <vsa_base>
0

>  <vsa_don>
0

>  <vsa_hyd>
241.04195

>  <vsa_other>
0

>  <vsa_pol>
13.566921

>  <Weight>
221.34399

>  <weinerPath>
448

>  <weinerPol>
21

>  <zagreb>
74

$$$$