O=C1N(C)C(=O)N(c2ncn(c12)C)C
  MOE2013           2D

 14 15  0  0  0  0  0  0  0  0999 V2000
    0.0000    0.0000    0.0000 O   0  0  0  0  0  0  0  0  0  0  0  0
    0.7430   -1.3030    0.0000 C   0  0  0  0  0  0  0  0  0  0  0  0
    2.2430   -1.3100    0.0000 N   0  0  0  0  0  0  0  0  0  0  0  0
    3.0000   -0.0150    0.0000 C   0  0  0  0  0  0  0  0  0  0  0  0
    2.9870   -2.6130    0.0000 C   0  0  0  0  0  0  0  0  0  0  0  0
    4.4870   -2.6210    0.0000 O   0  0  0  0  0  0  0  0  0  0  0  0
    2.2300   -3.9080    0.0000 N   0  0  0  0  0  0  0  0  0  0  0  0
    0.7300   -3.9010    0.0000 C   0  0  0  0  0  0  0  0  0  0  0  0
   -0.2790   -5.0100    0.0000 N   0  0  0  0  0  0  0  0  0  0  0  0
   -1.6460   -4.3930    0.0000 C   0  0  0  0  0  0  0  0  0  0  0  0
   -1.4820   -2.9020    0.0000 N   0  0  0  0  0  0  0  0  0  0  0  0
   -0.0130   -2.5980    0.0000 C   0  0  0  0  0  0  0  0  0  0  0  0
   -2.5920   -1.8930    0.0000 C   0  0  0  0  0  0  0  0  0  0  0  0
    2.9740   -5.2110    0.0000 C   0  0  0  0  0  0  0  0  0  0  0  0
  1  2  2  0  0  0  0
  2  3  1  0  0  0  0
  2 12  1  0  0  0  0
  3  4  1  0  0  0  0
  3  5  1  0  0  0  0
  5  6  2  0  0  0  0
  5  7  1  0  0  0  0
  7  8  1  0  0  0  0
  7 14  1  0  0  0  0
  8  9  1  0  0  0  0
  8 12  2  0  0  0  0
  9 10  2  0  0  0  0
 10 11  1  0  0  0  0
 11 12  1  0  0  0  0
 11 13  1  0  0  0  0
M  END
>  <Index>
175

>  <ID>
HT0348

>  <class>
0

>  <apol>
26.75193

>  <ast_fraglike>
1

>  <ast_fraglike_ext>
1

>  <ast_violation>
0

>  <ast_violation_ext>
0

>  <a_acc>
3

>  <a_acid>
0

>  <a_aro>
5

>  <a_base>
0

>  <a_count>
24

>  <a_don>
0

>  <a_donacc>
3

>  <a_heavy>
14

>  <a_hyd>
4

>  <a_IC>
42.81982

>  <a_ICM>
1.7841592

>  <a_nB>
0

>  <a_nBr>
0

>  <a_nC>
8

>  <a_nCl>
0

>  <a_nF>
0

>  <a_nH>
10

>  <a_nI>
0

>  <a_nN>
4

>  <a_nO>
2

>  <a_nP>
0

>  <a_nS>
0

>  <balabanJ>
2.247865

>  <BCUT_PEOE_0>
-2.4536171

>  <BCUT_PEOE_1>
-0.27941167

>  <BCUT_PEOE_2>
0.10598757

>  <BCUT_PEOE_3>
2.4786618

>  <BCUT_SLOGP_0>
-2.6267395

>  <BCUT_SLOGP_1>
-0.17823356

>  <BCUT_SLOGP_2>
0.24075854

>  <BCUT_SLOGP_3>
2.3914192

>  <BCUT_SMR_0>
-2.1531734

>  <BCUT_SMR_1>
0.010782566

>  <BCUT_SMR_2>
0.29583871

>  <BCUT_SMR_3>
2.7730138

>  <bpol>
20.10807

>  <b_1rotN>
0

>  <b_1rotR>
0

>  <b_ar>
5

>  <b_count>
25

>  <b_double>
2

>  <b_heavy>
15

>  <b_max1len>
2

>  <b_rotN>
0

>  <b_rotR>
0

>  <b_single>
18

>  <b_triple>
0

>  <chi0>
10.455666

>  <chi0v>
8.1827011

>  <chi0v_C>
5.5773501

>  <chi0_C>
6.0165076

>  <chi1>
6.536581

>  <chi1v>
4.1079278

>  <chi1v_C>
0.5

>  <chi1_C>
0.66666669

>  <chiral>
0

>  <chiral_u>
0

>  <density>
0.80527008

>  <diameter>
6

>  <FCharge>
0

>  <GCUT_PEOE_0>
-0.84105462

>  <GCUT_PEOE_1>
-0.43118259

>  <GCUT_PEOE_2>
-0.11418443

>  <GCUT_PEOE_3>
2.345499

>  <GCUT_SLOGP_0>
-1.0014238

>  <GCUT_SLOGP_1>
-0.29680276

>  <GCUT_SLOGP_2>
-0.037

>  <GCUT_SLOGP_3>
2.3107893

>  <GCUT_SMR_0>
-0.48707736

>  <GCUT_SMR_1>
-0.12930878

>  <GCUT_SMR_2>
0.0074123628

>  <GCUT_SMR_3>
2.616025

>  <Kier1>
10.515555

>  <Kier2>
3.5387523

>  <Kier3>
1.4545455

>  <KierA1>
7.0346155

>  <KierA2>
2.2854667

>  <KierA3>
0.91422778

>  <KierFlex>
1.1483842

>  <lip_acc>
6

>  <lip_don>
0

>  <lip_druglike>
1

>  <lip_violation>
0

>  <logP(o/w)>
-0.60399997

>  <logS>
-0.68832999

>  <mr>
4.8692617

>  <mutagenic>
0

>  <nmol>
1

>  <opr_brigid>
10

>  <opr_leadlike>
1

>  <opr_nring>
2

>  <opr_nrot>
0

>  <opr_violation>
0

>  <PC+>
0

>  <PC->
0

>  <PEOE_PC+>
1.5985926

>  <PEOE_PC->
-1.5985926

>  <PEOE_RPC+>
0.20835082

>  <PEOE_RPC->
0.2050059

>  <PEOE_VSA+0>
108.10454

>  <PEOE_VSA+1>
21.236927

>  <PEOE_VSA+2>
4.2653861

>  <PEOE_VSA+3>
17.890114

>  <PEOE_VSA+4>
0

>  <PEOE_VSA+5>
12.949531

>  <PEOE_VSA+6>
17.440542

>  <PEOE_VSA-0>
0

>  <PEOE_VSA-1>
0

>  <PEOE_VSA-2>
0

>  <PEOE_VSA-3>
0

>  <PEOE_VSA-4>
19.249496

>  <PEOE_VSA-5>
13.566921

>  <PEOE_VSA-6>
0

>  <PEOE_VSA_FHYD>
0.70561028

>  <PEOE_VSA_FNEG>
0.15284531

>  <PEOE_VSA_FPNEG>
0.15284531

>  <PEOE_VSA_FPOL>
0.29438972

>  <PEOE_VSA_FPOS>
0.84715468

>  <PEOE_VSA_FPPOS>
0.1415444

>  <PEOE_VSA_HYD>
151.49696

>  <PEOE_VSA_NEG>
32.816418

>  <PEOE_VSA_PNEG>
32.816418

>  <PEOE_VSA_POL>
63.20649

>  <PEOE_VSA_POS>
181.88704

>  <PEOE_VSA_PPOS>
30.390074

>  <petitjean>
0.33333334

>  <petitjeanSC>
0.5

>  <Q_PC+>
0

>  <Q_PC->
0

>  <Q_RPC+>
0

>  <Q_RPC->
0

>  <Q_VSA_FHYD>
1

>  <Q_VSA_FNEG>
0

>  <Q_VSA_FPNEG>
0

>  <Q_VSA_FPOL>
0

>  <Q_VSA_FPOS>
1

>  <Q_VSA_FPPOS>
0

>  <Q_VSA_HYD>
214.70346

>  <Q_VSA_NEG>
0

>  <Q_VSA_PNEG>
0

>  <Q_VSA_POL>
0

>  <Q_VSA_POS>
214.70346

>  <Q_VSA_PPOS>
0

>  <radius>
4

>  <reactive>
0

>  <rings>
2

>  <RPC+>
0

>  <RPC->
0

>  <rsynth>
1

>  <SlogP>
0.42109999

>  <SlogP_VSA0>
3.1243138

>  <SlogP_VSA1>
31.897676

>  <SlogP_VSA2>
0

>  <SlogP_VSA3>
0

>  <SlogP_VSA4>
26.618963

>  <SlogP_VSA5>
65.794373

>  <SlogP_VSA6>
0

>  <SlogP_VSA7>
16.78553

>  <SlogP_VSA8>
0

>  <SlogP_VSA9>
59.087322

>  <SMR>
4.9381499

>  <SMR_VSA0>
47.724434

>  <SMR_VSA1>
21.808937

>  <SMR_VSA2>
3.1243138

>  <SMR_VSA3>
2.7567475

>  <SMR_VSA4>
2.3279202

>  <SMR_VSA5>
16.78553

>  <SMR_VSA6>
10.088739

>  <SMR_VSA7>
98.691559

>  <TPSA>
58.439999

>  <VAdjEq>
0.61744827

>  <VAdjMa>
4.9068904

>  <VDistEq>
2.2940331

>  <VDistMa>
7.362936

>  <vdw_area>
214.70346

>  <vdw_vol>
241.15387

>  <vsa_acc>
32.816418

>  <vsa_acid>
0

>  <vsa_base>
0

>  <vsa_don>
0

>  <vsa_hyd>
108.39793

>  <vsa_other>
66.371155

>  <vsa_pol>
32.816418

>  <Weight>
194.194

>  <weinerPath>
258

>  <weinerPol>
25

>  <zagreb>
76

$$$$