Ic1c(CC(CC)C(O)=O)c(I)cc(I)c1NC(=O)CCC
  MOE2013           2D

 22 22  0  0  1  0  0  0  0  0999 V2000
    0.0000    0.0000    0.0000 I   0  0  0  0  0  0  0  0  0  0  0  0
   -0.7490    1.3000    0.0000 C   0  0  0  0  0  0  0  0  0  0  0  0
   -2.2490    1.3010    0.0000 C   0  0  0  0  0  0  0  0  0  0  0  0
   -3.0000    0.0020    0.0000 C   0  0  0  0  0  0  0  0  0  0  0  0
   -4.5000    0.0030    0.0000 C   0  0  3  0  0  0  0  0  0  0  0  0
   -5.2490    1.3030    0.0000 C   0  0  0  0  0  0  0  0  0  0  0  0
   -6.7490    1.3040    0.0000 C   0  0  0  0  0  0  0  0  0  0  0  0
   -5.2510   -1.2950    0.0000 C   0  0  0  0  0  0  0  0  0  0  0  0
   -6.7510   -1.2940    0.0000 O   0  0  0  0  0  0  0  0  0  0  0  0
   -4.5020   -2.5950    0.0000 O   0  0  0  0  0  0  0  0  0  0  0  0
   -2.9980    2.6000    0.0000 C   0  0  0  0  0  0  0  0  0  0  0  0
   -4.4980    2.6010    0.0000 I   0  0  0  0  0  0  0  0  0  0  0  0
   -2.2470    3.8990    0.0000 C   0  0  0  0  0  0  0  0  0  0  0  0
   -0.7470    3.8980    0.0000 C   0  0  0  0  0  0  0  0  0  0  0  0
    0.0040    5.1960    0.0000 I   0  0  0  0  0  0  0  0  0  0  0  0
    0.0020    2.5980    0.0000 C   0  0  0  0  0  0  0  0  0  0  0  0
    1.5020    2.5970    0.0000 N   0  0  0  0  0  0  0  0  0  0  0  0
    2.2530    3.8960    0.0000 C   0  0  0  0  0  0  0  0  0  0  0  0
    1.5040    5.1950    0.0000 O   0  0  0  0  0  0  0  0  0  0  0  0
    3.7530    3.8950    0.0000 C   0  0  0  0  0  0  0  0  0  0  0  0
    4.5040    5.1930    0.0000 C   0  0  0  0  0  0  0  0  0  0  0  0
    6.0040    5.1920    0.0000 C   0  0  0  0  0  0  0  0  0  0  0  0
  1  2  1  0  0  0  0
  2  3  1  0  0  0  0
  2 16  2  0  0  0  0
  3  4  1  0  0  0  0
  3 11  2  0  0  0  0
  4  5  1  0  0  0  0
  5  6  1  0  0  0  0
  5  8  1  0  0  0  0
  6  7  1  0  0  0  0
  8  9  1  0  0  0  0
  8 10  2  0  0  0  0
 11 12  1  0  0  0  0
 11 13  1  0  0  0  0
 13 14  2  0  0  0  0
 14 15  1  0  0  0  0
 14 16  1  0  0  0  0
 16 17  1  0  0  0  0
 17 18  1  0  0  0  0
 18 19  2  0  0  0  0
 18 20  1  0  0  0  0
 20 21  1  0  0  0  0
 21 22  1  0  0  0  0
M  END
>  <Index>
1124

>  <ID>
HT2148

>  <class>
0

>  <apol>
57.958275

>  <ast_fraglike>
0

>  <ast_fraglike_ext>
0

>  <ast_violation>
2

>  <ast_violation_ext>
3

>  <a_acc>
3

>  <a_acid>
0

>  <a_aro>
6

>  <a_base>
0

>  <a_count>
40

>  <a_don>
3

>  <a_donacc>
6

>  <a_heavy>
22

>  <a_hyd>
16

>  <a_IC>
69.705338

>  <a_ICM>
1.7426335

>  <a_nB>
0

>  <a_nBr>
0

>  <a_nC>
15

>  <a_nCl>
0

>  <a_nF>
0

>  <a_nH>
18

>  <a_nI>
3

>  <a_nN>
1

>  <a_nO>
3

>  <a_nP>
0

>  <a_nS>
0

>  <balabanJ>
2.7677574

>  <BCUT_PEOE_0>
-2.5801229

>  <BCUT_PEOE_1>
-0.55274051

>  <BCUT_PEOE_2>
0.43800953

>  <BCUT_PEOE_3>
2.6029918

>  <BCUT_SLOGP_0>
-2.5617595

>  <BCUT_SLOGP_1>
-0.40364447

>  <BCUT_SLOGP_2>
0.58413863

>  <BCUT_SLOGP_3>
2.646925

>  <BCUT_SMR_0>
-2.3492699

>  <BCUT_SMR_1>
-0.2673851

>  <BCUT_SMR_2>
0.81850851

>  <BCUT_SMR_3>
2.8495233

>  <bpol>
33.023727

>  <b_1rotN>
7

>  <b_1rotR>
0.31818181

>  <b_ar>
6

>  <b_count>
40

>  <b_double>
2

>  <b_heavy>
22

>  <b_max1len>
5

>  <b_rotN>
8

>  <b_rotR>
0.36363637

>  <b_single>
32

>  <b_triple>
0

>  <chi0>
16.861443

>  <chi0v>
18.853226

>  <chi0v_C>
9.4831276

>  <chi0_C>
10.154336

>  <chi1>
10.310968

>  <chi1v>
10.238892

>  <chi1v_C>
5.3038425

>  <chi1_C>
6.0303698

>  <chiral>
1

>  <chiral_u>
1

>  <density>
1.3535267

>  <diameter>
11

>  <FCharge>
0

>  <GCUT_PEOE_0>
-0.80668634

>  <GCUT_PEOE_1>
-0.39366573

>  <GCUT_PEOE_2>
0.038494334

>  <GCUT_PEOE_3>
2.5308361

>  <GCUT_SLOGP_0>
-0.99762458

>  <GCUT_SLOGP_1>
-0.31588525

>  <GCUT_SLOGP_2>
0.22231728

>  <GCUT_SLOGP_3>
2.6371984

>  <GCUT_SMR_0>
-0.52493125

>  <GCUT_SMR_1>
-0.19956934

>  <GCUT_SMR_2>
0.2945042

>  <GCUT_SMR_3>
2.8836141

>  <Kier1>
20.045454

>  <Kier2>
9.333333

>  <Kier3>
5.5514975

>  <KierA1>
24.991199

>  <KierA2>
11.758328

>  <KierA3>
7.046813

>  <KierFlex>
13.357034

>  <lip_acc>
4

>  <lip_don>
2

>  <lip_druglike>
1

>  <lip_violation>
1

>  <logP(o/w)>
6.3779998

>  <logS>
-5.9156599

>  <mr>
11.561466

>  <mutagenic>
0

>  <nmol>
1

>  <opr_brigid>
6

>  <opr_leadlike>
0

>  <opr_nring>
1

>  <opr_nrot>
7

>  <opr_violation>
2

>  <PC+>
0

>  <PC->
0

>  <PEOE_PC+>
1.6055954

>  <PEOE_PC->
-1.6055954

>  <PEOE_RPC+>
0.16380633

>  <PEOE_RPC->
0.20618632

>  <PEOE_VSA+0>
81.802383

>  <PEOE_VSA+1>
10.964937

>  <PEOE_VSA+2>
0

>  <PEOE_VSA+3>
8.6190128

>  <PEOE_VSA+4>
23.273705

>  <PEOE_VSA+5>
14.708499

>  <PEOE_VSA+6>
0

>  <PEOE_VSA-0>
181.53743

>  <PEOE_VSA-1>
37.495354

>  <PEOE_VSA-2>
0

>  <PEOE_VSA-3>
0

>  <PEOE_VSA-4>
0

>  <PEOE_VSA-5>
27.133842

>  <PEOE_VSA-6>
7.9044313

>  <PEOE_VSA_FHYD>
0.81440485

>  <PEOE_VSA_FNEG>
0.64576888

>  <PEOE_VSA_FPNEG>
0.089056298

>  <PEOE_VSA_FPOL>
0.18559514

>  <PEOE_VSA_FPOS>
0.35423109

>  <PEOE_VSA_FPPOS>
0.096538842

>  <PEOE_VSA_HYD>
320.41913

>  <PEOE_VSA_NEG>
254.07106

>  <PEOE_VSA_PNEG>
35.038273

>  <PEOE_VSA_POL>
73.020477

>  <PEOE_VSA_POS>
139.36855

>  <PEOE_VSA_PPOS>
37.982204

>  <petitjean>
0.45454547

>  <petitjeanSC>
0.83333331

>  <Q_PC+>
0

>  <Q_PC->
0

>  <Q_RPC+>
0

>  <Q_RPC->
0

>  <Q_VSA_FHYD>
1

>  <Q_VSA_FNEG>
0

>  <Q_VSA_FPNEG>
0

>  <Q_VSA_FPOL>
0

>  <Q_VSA_FPOS>
1

>  <Q_VSA_FPPOS>
0

>  <Q_VSA_HYD>
393.43961

>  <Q_VSA_NEG>
0

>  <Q_VSA_PNEG>
0

>  <Q_VSA_POL>
0

>  <Q_VSA_POS>
393.43961

>  <Q_VSA_PPOS>
0

>  <radius>
6

>  <reactive>
0

>  <rings>
1

>  <RPC+>
0

>  <RPC->
0

>  <rsynth>
0.27272728

>  <SlogP>
4.8922701

>  <SlogP_VSA0>
0

>  <SlogP_VSA1>
31.014997

>  <SlogP_VSA2>
52.703362

>  <SlogP_VSA3>
25.385227

>  <SlogP_VSA4>
7.5963712

>  <SlogP_VSA5>
18.868406

>  <SlogP_VSA6>
0

>  <SlogP_VSA7>
17.643185

>  <SlogP_VSA8>
56.605217

>  <SlogP_VSA9>
239.75481

>  <SMR>
11.32515

>  <SMR_VSA0>
47.724434

>  <SMR_VSA1>
0

>  <SMR_VSA2>
34.774952

>  <SMR_VSA3>
3.185575

>  <SMR_VSA4>
20.767498

>  <SMR_VSA5>
93.116806

>  <SMR_VSA6>
13.004248

>  <SMR_VSA7>
236.99806

>  <TPSA>
66.400002

>  <VAdjEq>
0.43949699

>  <VAdjMa>
5.4594316

>  <VDistEq>
3.2260356

>  <VDistMa>
8.6429005

>  <vdw_area>
393.43961

>  <vdw_vol>
473.5961

>  <vsa_acc>
13.566921

>  <vsa_acid>
0

>  <vsa_base>
0

>  <vsa_don>
5.6825762

>  <vsa_hyd>
299.06631

>  <vsa_other>
27.65803

>  <vsa_pol>
46.383339

>  <Weight>
641.02496

>  <weinerPath>
1070

>  <weinerPol>
34

>  <zagreb>
104

$$$$