S(=O)(=O)(Nc1cc(ccc1)[C@@H](CC)C=1C(=O)C[C@](OC=1O)(CCc1ccccc1)CCC)c1ncc(cc1)C(F)(F)F
  MOE2013           2D

 42 45  0  0  1  0  0  0  0  0999 V2000
    0.0000    0.0000    0.0000 S   0  0  0  0  0  0  0  0  0  0  0  0
   -0.7590    1.2940    0.0000 O   0  0  0  0  0  0  0  0  0  0  0  0
    0.7590   -1.2940    0.0000 O   0  0  0  0  0  0  0  0  0  0  0  0
   -1.2940   -0.7590    0.0000 N   0  0  0  0  0  0  0  0  0  0  0  0
   -2.5980   -0.0190    0.0000 C   0  0  0  0  0  0  0  0  0  0  0  0
   -3.8920   -0.7780    0.0000 C   0  0  0  0  0  0  0  0  0  0  0  0
   -5.1960   -0.0370    0.0000 C   0  0  0  0  0  0  0  0  0  0  0  0
   -5.2070    1.4620    0.0000 C   0  0  0  0  0  0  0  0  0  0  0  0
   -3.9130    2.2220    0.0000 C   0  0  0  0  0  0  0  0  0  0  0  0
   -2.6090    1.4810    0.0000 C   0  0  0  0  0  0  0  0  0  0  0  0
   -6.4900   -0.7970    0.0000 C   0  0  1  0  0  0  0  0  0  0  0  0
   -6.4790   -2.2970    0.0000 C   0  0  0  0  0  0  0  0  0  0  0  0
   -5.1740   -3.0370    0.0000 C   0  0  0  0  0  0  0  0  0  0  0  0
   -7.7940   -0.0560    0.0000 C   0  0  0  0  0  0  0  0  0  0  0  0
   -7.8050    1.4440    0.0000 C   0  0  0  0  0  0  0  0  0  0  0  0
   -6.5110    2.2030    0.0000 O   0  0  0  0  0  0  0  0  0  0  0  0
   -9.1090    2.1840    0.0000 C   0  0  0  0  0  0  0  0  0  0  0  0
  -10.4030    1.4250    0.0000 C   0  0  2  0  0  0  0  0  0  0  0  0
  -10.3920   -0.0750    0.0000 O   0  0  0  0  0  0  0  0  0  0  0  0
   -9.0880   -0.8160    0.0000 C   0  0  0  0  0  0  0  0  0  0  0  0
   -9.0770   -2.3160    0.0000 O   0  0  0  0  0  0  0  0  0  0  0  0
  -11.9030    1.4140    0.0000 C   0  0  0  0  0  0  0  0  0  0  0  0
  -12.6430    0.1100    0.0000 C   0  0  0  0  0  0  0  0  0  0  0  0
  -14.1430    0.0990    0.0000 C   0  0  0  0  0  0  0  0  0  0  0  0
  -14.8840   -1.2050    0.0000 C   0  0  0  0  0  0  0  0  0  0  0  0
  -16.3840   -1.2160    0.0000 C   0  0  0  0  0  0  0  0  0  0  0  0
  -17.1430    0.0770    0.0000 C   0  0  0  0  0  0  0  0  0  0  0  0
  -16.4030    1.3820    0.0000 C   0  0  0  0  0  0  0  0  0  0  0  0
  -14.9030    1.3930    0.0000 C   0  0  0  0  0  0  0  0  0  0  0  0
  -11.1620    2.7190    0.0000 C   0  0  0  0  0  0  0  0  0  0  0  0
  -10.4220    4.0230    0.0000 C   0  0  0  0  0  0  0  0  0  0  0  0
  -11.1810    5.3170    0.0000 C   0  0  0  0  0  0  0  0  0  0  0  0
    1.2940    0.7590    0.0000 C   0  0  0  0  0  0  0  0  0  0  0  0
    2.5980    0.0190    0.0000 N   0  0  0  0  0  0  0  0  0  0  0  0
    3.8920    0.7780    0.0000 C   0  0  0  0  0  0  0  0  0  0  0  0
    3.8810    2.2780    0.0000 C   0  0  0  0  0  0  0  0  0  0  0  0
    2.5760    3.0190    0.0000 C   0  0  0  0  0  0  0  0  0  0  0  0
    1.2830    2.2590    0.0000 C   0  0  0  0  0  0  0  0  0  0  0  0
    5.1740    3.0370    0.0000 C   0  0  0  0  0  0  0  0  0  0  0  0
    6.4680    3.7970    0.0000 F   0  0  0  0  0  0  0  0  0  0  0  0
    5.9340    1.7440    0.0000 F   0  0  0  0  0  0  0  0  0  0  0  0
    4.4150    4.3310    0.0000 F   0  0  0  0  0  0  0  0  0  0  0  0
  1  2  2  0  0  0  0
  1  3  2  0  0  0  0
  1  4  1  0  0  0  0
  1 33  1  0  0  0  0
  4  5  1  0  0  0  0
  5  6  2  0  0  0  0
  5 10  1  0  0  0  0
  6  7  1  0  0  0  0
  7  8  2  0  0  0  0
  8  9  1  0  0  0  0
  9 10  2  0  0  0  0
 11  7  1  1  0  0  0
 11 12  1  0  0  0  0
 11 14  1  0  0  0  0
 12 13  1  0  0  0  0
 14 15  1  0  0  0  0
 14 20  2  0  0  0  0
 15 16  2  0  0  0  0
 15 17  1  0  0  0  0
 17 18  1  0  0  0  0
 18 19  1  0  0  0  0
 18 22  1  6  0  0  0
 18 30  1  1  0  0  0
 19 20  1  0  0  0  0
 20 21  1  0  0  0  0
 22 23  1  0  0  0  0
 23 24  1  0  0  0  0
 24 25  1  0  0  0  0
 24 29  2  0  0  0  0
 25 26  2  0  0  0  0
 26 27  1  0  0  0  0
 27 28  2  0  0  0  0
 28 29  1  0  0  0  0
 30 31  1  0  0  0  0
 31 32  1  0  0  0  0
 33 34  2  0  0  0  0
 33 38  1  0  0  0  0
 34 35  1  0  0  0  0
 35 36  2  0  0  0  0
 36 37  1  0  0  0  0
 36 39  1  0  0  0  0
 37 38  2  0  0  0  0
 39 40  1  0  0  0  0
 39 41  1  0  0  0  0
 39 42  1  0  0  0  0
M  END
>  <Index>
1079

>  <ID>
HT2069

>  <class>
0

>  <apol>
87.345169

>  <ast_fraglike>
0

>  <ast_fraglike_ext>
0

>  <ast_violation>
3

>  <ast_violation_ext>
5

>  <a_acc>
6

>  <a_acid>
0

>  <a_aro>
18

>  <a_base>
0

>  <a_count>
75

>  <a_don>
3

>  <a_donacc>
9

>  <a_heavy>
42

>  <a_hyd>
32

>  <a_IC>
128.75179

>  <a_ICM>
1.7166904

>  <a_nB>
0

>  <a_nBr>
0

>  <a_nC>
31

>  <a_nCl>
0

>  <a_nF>
3

>  <a_nH>
33

>  <a_nI>
0

>  <a_nN>
2

>  <a_nO>
5

>  <a_nP>
0

>  <a_nS>
1

>  <balabanJ>
1.3540019

>  <BCUT_PEOE_0>
-2.7250941

>  <BCUT_PEOE_1>
-0.60236609

>  <BCUT_PEOE_2>
0.65237522

>  <BCUT_PEOE_3>
2.7386992

>  <BCUT_SLOGP_0>
-2.7056344

>  <BCUT_SLOGP_1>
-0.4955681

>  <BCUT_SLOGP_2>
0.7287553

>  <BCUT_SLOGP_3>
2.7759583

>  <BCUT_SMR_0>
-2.4894512

>  <BCUT_SMR_1>
-0.45935762

>  <BCUT_SMR_2>
0.80069494

>  <BCUT_SMR_3>
2.9746811

>  <bpol>
51.014832

>  <b_1rotN>
11

>  <b_1rotR>
0.24444444

>  <b_ar>
18

>  <b_count>
78

>  <b_double>
2

>  <b_heavy>
45

>  <b_max1len>
7

>  <b_rotN>
12

>  <b_rotR>
0.26666668

>  <b_single>
58

>  <b_triple>
0

>  <chi0>
30.545395

>  <chi0v>
24.134253

>  <chi0v_C>
18.748194

>  <chi0_C>
20.924074

>  <chi1>
19.87109

>  <chi1v>
15.208466

>  <chi1v_C>
10.848989

>  <chi1_C>
13.495862

>  <chiral>
2

>  <chiral_u>
0

>  <density>
0.79647046

>  <diameter>
21

>  <FCharge>
0

>  <GCUT_PEOE_0>
-0.78470832

>  <GCUT_PEOE_1>
-0.39156997

>  <GCUT_PEOE_2>
0.071996458

>  <GCUT_PEOE_3>
2.9769845

>  <GCUT_SLOGP_0>
-0.94318831

>  <GCUT_SLOGP_1>
-0.2947031

>  <GCUT_SLOGP_2>
0.16645741

>  <GCUT_SLOGP_3>
3.0572946

>  <GCUT_SMR_0>
-0.52985305

>  <GCUT_SMR_1>
-0.20100656

>  <GCUT_SMR_2>
0.18091154

>  <GCUT_SMR_3>
3.2282071

>  <Kier1>
34.865185

>  <Kier2>
15.059688

>  <Kier3>
9.0579185

>  <KierA1>
28.277773

>  <KierA2>
12.148733

>  <KierA3>
7.2797489

>  <KierFlex>
8.1795025

>  <lip_acc>
7

>  <lip_don>
2

>  <lip_druglike>
0

>  <lip_violation>
2

>  <logP(o/w)>
7.5787601

>  <logS>
-7.9256201

>  <mr>
15.714108

>  <mutagenic>
0

>  <nmol>
1

>  <opr_brigid>
24

>  <opr_leadlike>
0

>  <opr_nring>
4

>  <opr_nrot>
11

>  <opr_violation>
3

>  <PC+>
0

>  <PC->
0

>  <PEOE_PC+>
3.1995645

>  <PEOE_PC->
-3.1995645

>  <PEOE_RPC+>
0.13089925

>  <PEOE_RPC->
0.10630509

>  <PEOE_VSA+0>
106.48956

>  <PEOE_VSA+1>
86.581238

>  <PEOE_VSA+2>
0

>  <PEOE_VSA+3>
23.167019

>  <PEOE_VSA+4>
10.324173

>  <PEOE_VSA+5>
0

>  <PEOE_VSA+6>
17.721115

>  <PEOE_VSA-0>
58.176788

>  <PEOE_VSA-1>
156.4908

>  <PEOE_VSA-2>
0

>  <PEOE_VSA-3>
43.938004

>  <PEOE_VSA-4>
32.016521

>  <PEOE_VSA-5>
13.566921

>  <PEOE_VSA-6>
10.271297

>  <PEOE_VSA_FHYD>
0.84984159

>  <PEOE_VSA_FNEG>
0.56279916

>  <PEOE_VSA_FPNEG>
0.099964917

>  <PEOE_VSA_FPOL>
0.15015841

>  <PEOE_VSA_FPOS>
0.43720084

>  <PEOE_VSA_FPPOS>
0.050193496

>  <PEOE_VSA_HYD>
474.84341

>  <PEOE_VSA_NEG>
314.46033

>  <PEOE_VSA_PNEG>
55.85474

>  <PEOE_VSA_POL>
83.900024

>  <PEOE_VSA_POS>
244.28311

>  <PEOE_VSA_PPOS>
28.045288

>  <petitjean>
0.47619048

>  <petitjeanSC>
0.90909094

>  <Q_PC+>
0

>  <Q_PC->
0

>  <Q_RPC+>
0

>  <Q_RPC->
0

>  <Q_VSA_FHYD>
1

>  <Q_VSA_FNEG>
0

>  <Q_VSA_FPNEG>
0

>  <Q_VSA_FPOL>
0

>  <Q_VSA_FPOS>
1

>  <Q_VSA_FPPOS>
0

>  <Q_VSA_HYD>
558.74347

>  <Q_VSA_NEG>
0

>  <Q_VSA_PNEG>
0

>  <Q_VSA_POL>
0

>  <Q_VSA_POS>
558.74347

>  <Q_VSA_PPOS>
0

>  <radius>
11

>  <reactive>
0

>  <rings>
4

>  <RPC+>
0

>  <RPC->
0

>  <rsynth>
1

>  <SlogP>
7.63697

>  <SlogP_VSA0>
0

>  <SlogP_VSA1>
87.049828

>  <SlogP_VSA2>
41.502846

>  <SlogP_VSA3>
25.385227

>  <SlogP_VSA4>
9.5567245

>  <SlogP_VSA5>
30.477169

>  <SlogP_VSA6>
12.170312

>  <SlogP_VSA7>
211.28938

>  <SlogP_VSA8>
94.342026

>  <SlogP_VSA9>
114.28912

>  <SMR>
15.24043

>  <SMR_VSA0>
83.033791

>  <SMR_VSA1>
61.665871

>  <SMR_VSA2>
34.266647

>  <SMR_VSA3>
24.454376

>  <SMR_VSA4>
19.161745

>  <SMR_VSA5>
324.49982

>  <SMR_VSA6>
5.6876111

>  <SMR_VSA7>
73.29277

>  <TPSA>
105.59

>  <VAdjEq>
0.29071587

>  <VAdjMa>
6.4918532

>  <VDistEq>
4.1240349

>  <VDistMa>
10.480043

>  <vdw_area>
558.74347

>  <vdw_vol>
756.68091

>  <vsa_acc>
40.202854

>  <vsa_acid>
0

>  <vsa_base>
0

>  <vsa_don>
8.0752068

>  <vsa_hyd>
419.05008

>  <vsa_other>
33.272629

>  <vsa_pol>
75.411903

>  <Weight>
602.67401

>  <weinerPath>
6752

>  <weinerPol>
71

>  <zagreb>
222

$$$$