s1c2c(cc1C(N(O)C(=O)N)C)cccc2
  MOE2013           2D

 16 17  0  0  1  0  0  0  0  0999 V2000
    0.0000    0.0000    0.0000 S   0  0  0  0  0  0  0  0  0  0  0  0
   -1.4690   -0.3040    0.0000 C   0  0  0  0  0  0  0  0  0  0  0  0
   -1.6330   -1.7950    0.0000 C   0  0  0  0  0  0  0  0  0  0  0  0
   -0.2660   -2.4120    0.0000 C   0  0  0  0  0  0  0  0  0  0  0  0
    0.7430   -1.3030    0.0000 C   0  0  0  0  0  0  0  0  0  0  0  0
    2.2340   -1.4670    0.0000 C   0  0  3  0  0  0  0  0  0  0  0  0
    3.1220   -0.2580    0.0000 N   0  0  0  0  0  0  0  0  0  0  0  0
    2.5190    1.1150    0.0000 O   0  0  0  0  0  0  0  0  0  0  0  0
    4.6130   -0.4230    0.0000 C   0  0  0  0  0  0  0  0  0  0  0  0
    5.2160   -1.7960    0.0000 O   0  0  0  0  0  0  0  0  0  0  0  0
    5.5010    0.7860    0.0000 N   0  0  0  0  0  0  0  0  0  0  0  0
    2.8370   -2.8410    0.0000 C   0  0  0  0  0  0  0  0  0  0  0  0
   -3.0070   -2.3980    0.0000 C   0  0  0  0  0  0  0  0  0  0  0  0
   -4.2160   -1.5110    0.0000 C   0  0  0  0  0  0  0  0  0  0  0  0
   -4.0510   -0.0200    0.0000 C   0  0  0  0  0  0  0  0  0  0  0  0
   -2.6780    0.5830    0.0000 C   0  0  0  0  0  0  0  0  0  0  0  0
  1  2  1  0  0  0  0
  1  5  1  0  0  0  0
  2  3  1  0  0  0  0
  2 16  2  0  0  0  0
  3  4  1  0  0  0  0
  3 13  2  0  0  0  0
  4  5  2  0  0  0  0
  5  6  1  0  0  0  0
  6  7  1  0  0  0  0
  6 12  1  0  0  0  0
  7  8  1  0  0  0  0
  7  9  1  0  0  0  0
  9 10  2  0  0  0  0
  9 11  1  0  0  0  0
 13 14  1  0  0  0  0
 14 15  2  0  0  0  0
 15 16  1  0  0  0  0
M  END
>  <Index>
1164

>  <ID>
HT2213

>  <class>
0

>  <apol>
34.065517

>  <ast_fraglike>
1

>  <ast_fraglike_ext>
1

>  <ast_violation>
0

>  <ast_violation_ext>
0

>  <a_acc>
2

>  <a_acid>
0

>  <a_aro>
9

>  <a_base>
0

>  <a_count>
28

>  <a_don>
2

>  <a_donacc>
4

>  <a_heavy>
16

>  <a_hyd>
11

>  <a_IC>
49.532639

>  <a_ICM>
1.7690228

>  <a_nB>
0

>  <a_nBr>
0

>  <a_nC>
11

>  <a_nCl>
0

>  <a_nF>
0

>  <a_nH>
12

>  <a_nI>
0

>  <a_nN>
2

>  <a_nO>
2

>  <a_nP>
0

>  <a_nS>
1

>  <balabanJ>
1.9266025

>  <BCUT_PEOE_0>
-2.4923458

>  <BCUT_PEOE_1>
-0.62332463

>  <BCUT_PEOE_2>
0.70488048

>  <BCUT_PEOE_3>
2.4758255

>  <BCUT_SLOGP_0>
-2.5883765

>  <BCUT_SLOGP_1>
-0.45808643

>  <BCUT_SLOGP_2>
0.81385261

>  <BCUT_SLOGP_3>
2.5931926

>  <BCUT_SMR_0>
-2.2324374

>  <BCUT_SMR_1>
-0.41767743

>  <BCUT_SMR_2>
0.86091721

>  <BCUT_SMR_3>
2.7492204

>  <bpol>
16.356483

>  <b_1rotN>
3

>  <b_1rotR>
0.17647059

>  <b_ar>
10

>  <b_count>
29

>  <b_double>
1

>  <b_heavy>
17

>  <b_max1len>
5

>  <b_rotN>
3

>  <b_rotR>
0.17647059

>  <b_single>
18

>  <b_triple>
0

>  <chi0>
11.706742

>  <chi0v>
9.5688725

>  <chi0v_C>
6.4641018

>  <chi0_C>
7.4222851

>  <chi1>
7.5922241

>  <chi1v>
5.6700759

>  <chi1v_C>
3.270726

>  <chi1_C>
4.3770099

>  <chiral>
1

>  <chiral_u>
1

>  <density>
0.80168992

>  <diameter>
8

>  <FCharge>
0

>  <GCUT_PEOE_0>
-0.8131327

>  <GCUT_PEOE_1>
-0.40986556

>  <GCUT_PEOE_2>
0.11745168

>  <GCUT_PEOE_3>
2.3552613

>  <GCUT_SLOGP_0>
-1.3704443

>  <GCUT_SLOGP_1>
-0.22568646

>  <GCUT_SLOGP_2>
0.27550393

>  <GCUT_SLOGP_3>
2.5262284

>  <GCUT_SMR_0>
-0.51501286

>  <GCUT_SMR_1>
-0.18249102

>  <GCUT_SMR_2>
0.28676757

>  <GCUT_SMR_3>
2.6765938

>  <Kier1>
12.456747

>  <Kier2>
5.1041665

>  <Kier3>
2.6514049

>  <KierA1>
9.7941427

>  <KierA2>
3.9433162

>  <KierA3>
2.0214832

>  <KierFlex>
2.4138377

>  <lip_acc>
4

>  <lip_don>
3

>  <lip_druglike>
1

>  <lip_violation>
0

>  <logP(o/w)>
1.978

>  <logS>
-3.2621701

>  <mr>
6.4577174

>  <mutagenic>
1

>  <nmol>
1

>  <opr_brigid>
10

>  <opr_leadlike>
1

>  <opr_nring>
2

>  <opr_nrot>
2

>  <opr_violation>
0

>  <PC+>
0

>  <PC->
0

>  <PEOE_PC+>
1.5885669

>  <PEOE_PC->
-1.5885669

>  <PEOE_RPC+>
0.2140976

>  <PEOE_RPC->
0.22043742

>  <PEOE_VSA+0>
12.796158

>  <PEOE_VSA+1>
28.738277

>  <PEOE_VSA+2>
0

>  <PEOE_VSA+3>
36.998642

>  <PEOE_VSA+4>
10.324173

>  <PEOE_VSA+5>
0

>  <PEOE_VSA+6>
17.440542

>  <PEOE_VSA-0>
20.956217

>  <PEOE_VSA-1>
69.643723

>  <PEOE_VSA-2>
0

>  <PEOE_VSA-3>
0

>  <PEOE_VSA-4>
13.566921

>  <PEOE_VSA-5>
11.166143

>  <PEOE_VSA-6>
6.6511192

>  <PEOE_VSA_FHYD>
0.74089539

>  <PEOE_VSA_FNEG>
0.53435737

>  <PEOE_VSA_FPNEG>
0.13747993

>  <PEOE_VSA_FPOL>
0.25910461

>  <PEOE_VSA_FPOS>
0.46564263

>  <PEOE_VSA_FPPOS>
0.12162468

>  <PEOE_VSA_HYD>
169.13301

>  <PEOE_VSA_NEG>
121.98412

>  <PEOE_VSA_PNEG>
31.384184

>  <PEOE_VSA_POL>
59.148899

>  <PEOE_VSA_POS>
106.29779

>  <PEOE_VSA_PPOS>
27.764715

>  <petitjean>
0.5

>  <petitjeanSC>
1

>  <Q_PC+>
0

>  <Q_PC->
0

>  <Q_RPC+>
0

>  <Q_RPC->
0

>  <Q_VSA_FHYD>
1

>  <Q_VSA_FNEG>
0

>  <Q_VSA_FPNEG>
0

>  <Q_VSA_FPOL>
0

>  <Q_VSA_FPOS>
1

>  <Q_VSA_FPPOS>
0

>  <Q_VSA_HYD>
228.28192

>  <Q_VSA_NEG>
0

>  <Q_VSA_PNEG>
0

>  <Q_VSA_POL>
0

>  <Q_VSA_POS>
228.28192

>  <Q_VSA_PPOS>
0

>  <radius>
4

>  <reactive>
0

>  <rings>
2

>  <RPC+>
0

>  <RPC->
0

>  <rsynth>
1

>  <SlogP>
2.8276999

>  <SlogP_VSA0>
32.897186

>  <SlogP_VSA1>
10.568603

>  <SlogP_VSA2>
25.604103

>  <SlogP_VSA3>
0

>  <SlogP_VSA4>
1.3584013

>  <SlogP_VSA5>
0

>  <SlogP_VSA6>
0

>  <SlogP_VSA7>
91.534676

>  <SlogP_VSA8>
3.9819686

>  <SlogP_VSA9>
88.465919

>  <SMR>
6.4402199

>  <SMR_VSA0>
23.862217

>  <SMR_VSA1>
5.7386465

>  <SMR_VSA2>
25.604103

>  <SMR_VSA3>
5.3403697

>  <SMR_VSA4>
36.215942

>  <SMR_VSA5>
88.215919

>  <SMR_VSA6>
4.8299561

>  <SMR_VSA7>
64.603706

>  <TPSA>
66.559998

>  <VAdjEq>
0.56510133

>  <VAdjMa>
5.0874629

>  <VDistEq>
2.8489819

>  <VDistMa>
7.6965637

>  <vdw_area>
228.28192

>  <vdw_vol>
294.74612

>  <vsa_acc>
13.566921

>  <vsa_acid>
0

>  <vsa_base>
0

>  <vsa_don>
17.742489

>  <vsa_hyd>
145.48883

>  <vsa_other>
17.440542

>  <vsa_pol>
48.274933

>  <Weight>
236.295

>  <weinerPath>
436

>  <weinerPol>
23

>  <zagreb>
82

$$$$