Clc1ccc(cc1)C(OCCN(C)C)c1ncccc1
  MOE2013           2D

 20 21  0  0  1  0  0  0  0  0999 V2000
    0.0000    0.0000    0.0000 Cl  0  0  0  0  0  0  0  0  0  0  0  0
   -1.5000   -0.0070    0.0000 C   0  0  0  0  0  0  0  0  0  0  0  0
   -2.2560    1.2890    0.0000 C   0  0  0  0  0  0  0  0  0  0  0  0
   -3.7560    1.2820    0.0000 C   0  0  0  0  0  0  0  0  0  0  0  0
   -4.5000   -0.0210    0.0000 C   0  0  0  0  0  0  0  0  0  0  0  0
   -3.7440   -1.3160    0.0000 C   0  0  0  0  0  0  0  0  0  0  0  0
   -2.2440   -1.3090    0.0000 C   0  0  0  0  0  0  0  0  0  0  0  0
   -6.0000   -0.0270    0.0000 C   0  0  3  0  0  0  0  0  0  0  0  0
   -6.7440   -1.3300    0.0000 O   0  0  0  0  0  0  0  0  0  0  0  0
   -8.2440   -1.3370    0.0000 C   0  0  0  0  0  0  0  0  0  0  0  0
   -8.9880   -2.6390    0.0000 C   0  0  0  0  0  0  0  0  0  0  0  0
  -10.4880   -2.6460    0.0000 N   0  0  0  0  0  0  0  0  0  0  0  0
  -11.2320   -3.9490    0.0000 C   0  0  0  0  0  0  0  0  0  0  0  0
  -11.2440   -1.3510    0.0000 C   0  0  0  0  0  0  0  0  0  0  0  0
   -6.7560    1.2680    0.0000 C   0  0  0  0  0  0  0  0  0  0  0  0
   -6.0120    2.5710    0.0000 N   0  0  0  0  0  0  0  0  0  0  0  0
   -6.7680    3.8660    0.0000 C   0  0  0  0  0  0  0  0  0  0  0  0
   -8.2680    3.8590    0.0000 C   0  0  0  0  0  0  0  0  0  0  0  0
   -9.0120    2.5570    0.0000 C   0  0  0  0  0  0  0  0  0  0  0  0
   -8.2560    1.2610    0.0000 C   0  0  0  0  0  0  0  0  0  0  0  0
  1  2  1  0  0  0  0
  2  3  1  0  0  0  0
  2  7  2  0  0  0  0
  3  4  2  0  0  0  0
  4  5  1  0  0  0  0
  5  6  2  0  0  0  0
  5  8  1  0  0  0  0
  6  7  1  0  0  0  0
  8  9  1  0  0  0  0
  8 15  1  0  0  0  0
  9 10  1  0  0  0  0
 10 11  1  0  0  0  0
 11 12  1  0  0  0  0
 12 13  1  0  0  0  0
 12 14  1  0  0  0  0
 15 16  1  0  0  0  0
 15 20  2  0  0  0  0
 16 17  2  0  0  0  0
 17 18  1  0  0  0  0
 18 19  2  0  0  0  0
 19 20  1  0  0  0  0
M  END
>  <Index>
191

>  <ID>
HT0379

>  <class>
0

>  <apol>
46.011066

>  <ast_fraglike>
0

>  <ast_fraglike_ext>
0

>  <ast_violation>
1

>  <ast_violation_ext>
2

>  <a_acc>
3

>  <a_acid>
0

>  <a_aro>
12

>  <a_base>
0

>  <a_count>
39

>  <a_don>
0

>  <a_donacc>
3

>  <a_heavy>
20

>  <a_hyd>
17

>  <a_IC>
59.420063

>  <a_ICM>
1.5235914

>  <a_nB>
0

>  <a_nBr>
0

>  <a_nC>
16

>  <a_nCl>
1

>  <a_nF>
0

>  <a_nH>
19

>  <a_nI>
0

>  <a_nN>
2

>  <a_nO>
1

>  <a_nP>
0

>  <a_nS>
0

>  <balabanJ>
1.8845631

>  <BCUT_PEOE_0>
-2.6079807

>  <BCUT_PEOE_1>
-0.53844422

>  <BCUT_PEOE_2>
0.56663305

>  <BCUT_PEOE_3>
2.52211

>  <BCUT_SLOGP_0>
-2.6995726

>  <BCUT_SLOGP_1>
-0.38009039

>  <BCUT_SLOGP_2>
0.7285549

>  <BCUT_SLOGP_3>
2.5289843

>  <BCUT_SMR_0>
-2.3348899

>  <BCUT_SMR_1>
-0.2946521

>  <BCUT_SMR_2>
0.77021998

>  <BCUT_SMR_3>
2.7802815

>  <bpol>
26.406933

>  <b_1rotN>
6

>  <b_1rotR>
0.2857143

>  <b_ar>
12

>  <b_count>
40

>  <b_double>
0

>  <b_heavy>
21

>  <b_max1len>
7

>  <b_rotN>
6

>  <b_rotR>
0.2857143

>  <b_single>
28

>  <b_triple>
0

>  <chi0>
14.372033

>  <chi0v>
12.546935

>  <chi0v_C>
10.110366

>  <chi0_C>
11.380469

>  <chi1>
9.6647034

>  <chi1v>
6.9711776

>  <chi1v_C>
4.1873927

>  <chi1_C>
5.7079082

>  <chiral>
1

>  <chiral_u>
1

>  <density>
0.72438741

>  <diameter>
10

>  <FCharge>
0

>  <GCUT_PEOE_0>
-0.85888338

>  <GCUT_PEOE_1>
-0.35973841

>  <GCUT_PEOE_2>
0.033526137

>  <GCUT_PEOE_3>
2.5002489

>  <GCUT_SLOGP_0>
-0.95889288

>  <GCUT_SLOGP_1>
-0.25743392

>  <GCUT_SLOGP_2>
0.14851131

>  <GCUT_SLOGP_3>
2.5891395

>  <GCUT_SMR_0>
-0.51775146

>  <GCUT_SMR_1>
-0.16498433

>  <GCUT_SMR_2>
0.17144144

>  <GCUT_SMR_3>
2.7666459

>  <Kier1>
16.371881

>  <Kier2>
8.4444447

>  <Kier3>
5.3789062

>  <KierA1>
13.632356

>  <KierA2>
6.9591594

>  <KierA3>
4.3993998

>  <KierFlex>
4.7434864

>  <lip_acc>
3

>  <lip_don>
0

>  <lip_druglike>
1

>  <lip_violation>
0

>  <logP(o/w)>
3.1029999

>  <logS>
-2.7959399

>  <mr>
8.4128084

>  <mutagenic>
0

>  <nmol>
1

>  <opr_brigid>
12

>  <opr_leadlike>
1

>  <opr_nring>
2

>  <opr_nrot>
6

>  <opr_violation>
0

>  <PC+>
0

>  <PC->
0

>  <PEOE_PC+>
1.3845154

>  <PEOE_PC->
-1.3845154

>  <PEOE_RPC+>
0.090561762

>  <PEOE_RPC->
0.26330772

>  <PEOE_VSA+0>
68.581078

>  <PEOE_VSA+1>
68.570091

>  <PEOE_VSA+2>
4.9049287

>  <PEOE_VSA+3>
0

>  <PEOE_VSA+4>
0

>  <PEOE_VSA+5>
0

>  <PEOE_VSA+6>
0

>  <PEOE_VSA-0>
97.705536

>  <PEOE_VSA-1>
66.346657

>  <PEOE_VSA-2>
0

>  <PEOE_VSA-3>
0

>  <PEOE_VSA-4>
0

>  <PEOE_VSA-5>
5.6825762

>  <PEOE_VSA-6>
2.503756

>  <PEOE_VSA_FHYD>
0.97395331

>  <PEOE_VSA_FNEG>
0.54801613

>  <PEOE_VSA_FPNEG>
0.026046682

>  <PEOE_VSA_FPOL>
0.026046682

>  <PEOE_VSA_FPOS>
0.45198387

>  <PEOE_VSA_FPPOS>
0

>  <PEOE_VSA_HYD>
306.10828

>  <PEOE_VSA_NEG>
172.23853

>  <PEOE_VSA_PNEG>
8.1863317

>  <PEOE_VSA_POL>
8.1863317

>  <PEOE_VSA_POS>
142.05609

>  <PEOE_VSA_PPOS>
0

>  <petitjean>
0.5

>  <petitjeanSC>
1

>  <Q_PC+>
0

>  <Q_PC->
0

>  <Q_RPC+>
0

>  <Q_RPC->
0

>  <Q_VSA_FHYD>
1

>  <Q_VSA_FNEG>
0

>  <Q_VSA_FPNEG>
0

>  <Q_VSA_FPOL>
0

>  <Q_VSA_FPOS>
1

>  <Q_VSA_FPPOS>
0

>  <Q_VSA_HYD>
314.29462

>  <Q_VSA_NEG>
0

>  <Q_VSA_PNEG>
0

>  <Q_VSA_POL>
0

>  <Q_VSA_POS>
314.29462

>  <Q_VSA_PPOS>
0

>  <radius>
5

>  <reactive>
0

>  <rings>
2

>  <RPC+>
0

>  <RPC->
0

>  <rsynth>
1

>  <SlogP>
3.4981

>  <SlogP_VSA0>
0

>  <SlogP_VSA1>
19.909843

>  <SlogP_VSA2>
10.999887

>  <SlogP_VSA3>
39.365837

>  <SlogP_VSA4>
5.9423227

>  <SlogP_VSA5>
65.794373

>  <SlogP_VSA6>
3.5006065

>  <SlogP_VSA7>
140.71664

>  <SlogP_VSA8>
6.4686494

>  <SlogP_VSA9>
39.148643

>  <SMR>
8.2149

>  <SMR_VSA0>
10.999887

>  <SMR_VSA1>
19.909843

>  <SMR_VSA2>
0

>  <SMR_VSA3>
15.911578

>  <SMR_VSA4>
0

>  <SMR_VSA5>
140.71664

>  <SMR_VSA6>
39.365837

>  <SMR_VSA7>
104.94302

>  <TPSA>
25.360001

>  <VAdjEq>
0.48464775

>  <VAdjMa>
5.3923173

>  <VDistEq>
3.1379709

>  <VDistMa>
8.3612194

>  <vdw_area>
314.29462

>  <vdw_vol>
401.43436

>  <vsa_acc>
8.1863317

>  <vsa_acid>
0

>  <vsa_base>
0

>  <vsa_don>
0

>  <vsa_hyd>
292.58417

>  <vsa_other>
0

>  <vsa_pol>
8.1863317

>  <Weight>
290.79401

>  <weinerPath>
851

>  <weinerPol>
26

>  <zagreb>
96

$$$$