s1cccc1CCN1CCC(N(C(=O)CC)c2ccccc2)(CC1)COC
  MOE2013           2D

 27 29  0  0  0  0  0  0  0  0999 V2000
    0.0000    0.0000    0.0000 S   0  0  0  0  0  0  0  0  0  0  0  0
    1.0370    1.0840    0.0000 C   0  0  0  0  0  0  0  0  0  0  0  0
    0.3270    2.4050    0.0000 C   0  0  0  0  0  0  0  0  0  0  0  0
   -1.1490    2.1380    0.0000 C   0  0  0  0  0  0  0  0  0  0  0  0
   -1.3510    0.6510    0.0000 C   0  0  0  0  0  0  0  0  0  0  0  0
   -2.6720   -0.0590    0.0000 C   0  0  0  0  0  0  0  0  0  0  0  0
   -3.9480    0.7300    0.0000 C   0  0  0  0  0  0  0  0  0  0  0  0
   -5.2690    0.0200    0.0000 N   0  0  0  0  0  0  0  0  0  0  0  0
   -5.3150   -1.4800    0.0000 C   0  0  0  0  0  0  0  0  0  0  0  0
   -6.6360   -2.1900    0.0000 C   0  0  0  0  0  0  0  0  0  0  0  0
   -7.9120   -1.4010    0.0000 C   0  0  0  0  0  0  0  0  0  0  0  0
   -9.4110   -1.3560    0.0000 N   0  0  0  0  0  0  0  0  0  0  0  0
  -10.2000   -2.6310    0.0000 C   0  0  0  0  0  0  0  0  0  0  0  0
   -9.4890   -3.9530    0.0000 O   0  0  0  0  0  0  0  0  0  0  0  0
  -11.6990   -2.5860    0.0000 C   0  0  0  0  0  0  0  0  0  0  0  0
  -12.4880   -3.8620    0.0000 C   0  0  0  0  0  0  0  0  0  0  0  0
  -10.1210   -0.0350    0.0000 C   0  0  0  0  0  0  0  0  0  0  0  0
   -9.3320    1.2410    0.0000 C   0  0  0  0  0  0  0  0  0  0  0  0
  -10.0430    2.5620    0.0000 C   0  0  0  0  0  0  0  0  0  0  0  0
  -11.5420    2.6080    0.0000 C   0  0  0  0  0  0  0  0  0  0  0  0
  -12.3310    1.3320    0.0000 C   0  0  0  0  0  0  0  0  0  0  0  0
  -11.6210    0.0110    0.0000 C   0  0  0  0  0  0  0  0  0  0  0  0
   -7.8660    0.0980    0.0000 C   0  0  0  0  0  0  0  0  0  0  0  0
   -6.5450    0.8090    0.0000 C   0  0  0  0  0  0  0  0  0  0  0  0
   -8.7010   -2.6770    0.0000 C   0  0  0  0  0  0  0  0  0  0  0  0
   -7.9900   -3.9980    0.0000 O   0  0  0  0  0  0  0  0  0  0  0  0
   -8.7790   -5.2740    0.0000 C   0  0  0  0  0  0  0  0  0  0  0  0
  1  2  1  0  0  0  0
  1  5  1  0  0  0  0
  2  3  2  0  0  0  0
  3  4  1  0  0  0  0
  4  5  2  0  0  0  0
  5  6  1  0  0  0  0
  6  7  1  0  0  0  0
  7  8  1  0  0  0  0
  8  9  1  0  0  0  0
  8 24  1  0  0  0  0
  9 10  1  0  0  0  0
 10 11  1  0  0  0  0
 11 12  1  0  0  0  0
 11 23  1  0  0  0  0
 11 25  1  0  0  0  0
 12 13  1  0  0  0  0
 12 17  1  0  0  0  0
 13 14  2  0  0  0  0
 13 15  1  0  0  0  0
 15 16  1  0  0  0  0
 17 18  1  0  0  0  0
 17 22  2  0  0  0  0
 18 19  2  0  0  0  0
 19 20  1  0  0  0  0
 20 21  2  0  0  0  0
 21 22  1  0  0  0  0
 23 24  1  0  0  0  0
 25 26  1  0  0  0  0
 26 27  1  0  0  0  0
M  END
>  <Index>
1006

>  <ID>
HT1928

>  <class>
0

>  <apol>
65.427788

>  <ast_fraglike>
0

>  <ast_fraglike_ext>
0

>  <ast_violation>
2

>  <ast_violation_ext>
3

>  <a_acc>
3

>  <a_acid>
0

>  <a_aro>
11

>  <a_base>
0

>  <a_count>
57

>  <a_don>
0

>  <a_donacc>
3

>  <a_heavy>
27

>  <a_hyd>
22

>  <a_IC>
83.160515

>  <a_ICM>
1.4589565

>  <a_nB>
0

>  <a_nBr>
0

>  <a_nC>
22

>  <a_nCl>
0

>  <a_nF>
0

>  <a_nH>
30

>  <a_nI>
0

>  <a_nN>
2

>  <a_nO>
2

>  <a_nP>
0

>  <a_nS>
1

>  <balabanJ>
1.6265713

>  <BCUT_PEOE_0>
-2.8297365

>  <BCUT_PEOE_1>
-0.50338888

>  <BCUT_PEOE_2>
0.4651632

>  <BCUT_PEOE_3>
2.7862909

>  <BCUT_SLOGP_0>
-2.9053984

>  <BCUT_SLOGP_1>
-0.42864358

>  <BCUT_SLOGP_2>
0.60123307

>  <BCUT_SLOGP_3>
2.7343285

>  <BCUT_SMR_0>
-2.5626571

>  <BCUT_SMR_1>
-0.30557671

>  <BCUT_SMR_2>
0.64092821

>  <BCUT_SMR_3>
3.0466442

>  <bpol>
41.91021

>  <b_1rotN>
9

>  <b_1rotR>
0.31034482

>  <b_ar>
11

>  <b_count>
59

>  <b_double>
1

>  <b_heavy>
29

>  <b_max1len>
5

>  <b_rotN>
9

>  <b_rotR>
0.31034482

>  <b_single>
47

>  <b_triple>
0

>  <chi0>
19.114674

>  <chi0v>
17.211325

>  <chi0v_C>
14.275657

>  <chi0_C>
15.545759

>  <chi1>
13.181801

>  <chi1v>
10.680929

>  <chi1v_C>
6.840899

>  <chi1_C>
8.3090086

>  <chiral>
0

>  <chiral_u>
0

>  <density>
0.70261902

>  <diameter>
13

>  <FCharge>
0

>  <GCUT_PEOE_0>
-0.8580929

>  <GCUT_PEOE_1>
-0.37741631

>  <GCUT_PEOE_2>
0.011428702

>  <GCUT_PEOE_3>
2.9618189

>  <GCUT_SLOGP_0>
-1.0004371

>  <GCUT_SLOGP_1>
-0.25300783

>  <GCUT_SLOGP_2>
0.12416315

>  <GCUT_SLOGP_3>
2.9809883

>  <GCUT_SMR_0>
-0.51964146

>  <GCUT_SMR_1>
-0.1823253

>  <GCUT_SMR_2>
0.14800201

>  <GCUT_SMR_3>
3.2151842

>  <Kier1>
21.702734

>  <Kier2>
10.683761

>  <Kier3>
5.5384617

>  <KierA1>
18.710785

>  <KierA2>
9.1556749

>  <KierA3>
4.7251577

>  <KierFlex>
6.34481

>  <lip_acc>
4

>  <lip_don>
0

>  <lip_druglike>
1

>  <lip_violation>
0

>  <logP(o/w)>
3.789

>  <logS>
-3.91906

>  <mr>
11.408865

>  <mutagenic>
0

>  <nmol>
1

>  <opr_brigid>
17

>  <opr_leadlike>
1

>  <opr_nring>
3

>  <opr_nrot>
10

>  <opr_violation>
0

>  <PC+>
0

>  <PC->
0

>  <PEOE_PC+>
1.9796436

>  <PEOE_PC->
-1.9796436

>  <PEOE_RPC+>
0.11522289

>  <PEOE_RPC->
0.19228213

>  <PEOE_VSA+0>
156.75244

>  <PEOE_VSA+1>
66.135925

>  <PEOE_VSA+2>
0

>  <PEOE_VSA+3>
19.760618

>  <PEOE_VSA+4>
12.949531

>  <PEOE_VSA+5>
0

>  <PEOE_VSA+6>
0

>  <PEOE_VSA-0>
50.613747

>  <PEOE_VSA-1>
84.206795

>  <PEOE_VSA-2>
14.230966

>  <PEOE_VSA-3>
0

>  <PEOE_VSA-4>
0

>  <PEOE_VSA-5>
13.566921

>  <PEOE_VSA-6>
2.503756

>  <PEOE_VSA_FHYD>
0.93102264

>  <PEOE_VSA_FNEG>
0.39247459

>  <PEOE_VSA_FPNEG>
0.038197972

>  <PEOE_VSA_FPOL>
0.068977371

>  <PEOE_VSA_FPOS>
0.60752541

>  <PEOE_VSA_FPPOS>
0.030779401

>  <PEOE_VSA_HYD>
391.7005

>  <PEOE_VSA_NEG>
165.12219

>  <PEOE_VSA_PNEG>
16.070677

>  <PEOE_VSA_POL>
29.020208

>  <PEOE_VSA_POS>
255.59853

>  <PEOE_VSA_PPOS>
12.949531

>  <petitjean>
0.46153846

>  <petitjeanSC>
0.85714287

>  <Q_PC+>
0

>  <Q_PC->
0

>  <Q_RPC+>
0

>  <Q_RPC->
0

>  <Q_VSA_FHYD>
1

>  <Q_VSA_FNEG>
0

>  <Q_VSA_FPNEG>
0

>  <Q_VSA_FPOL>
0

>  <Q_VSA_FPOS>
1

>  <Q_VSA_FPPOS>
0

>  <Q_VSA_HYD>
420.7207

>  <Q_VSA_NEG>
0

>  <Q_VSA_PNEG>
0

>  <Q_VSA_POL>
0

>  <Q_VSA_POS>
420.7207

>  <Q_VSA_PPOS>
0

>  <radius>
7

>  <reactive>
0

>  <rings>
3

>  <RPC+>
0

>  <RPC->
0

>  <rsynth>
1

>  <SlogP>
4.2147698

>  <SlogP_VSA0>
3.1243138

>  <SlogP_VSA1>
8.3830976

>  <SlogP_VSA2>
34.862103

>  <SlogP_VSA3>
76.244995

>  <SlogP_VSA4>
1.3584013

>  <SlogP_VSA5>
54.252274

>  <SlogP_VSA6>
0

>  <SlogP_VSA7>
139.3183

>  <SlogP_VSA8>
56.605217

>  <SlogP_VSA9>
67.360451

>  <SMR>
11.2523

>  <SMR_VSA0>
34.862103

>  <SMR_VSA1>
3.1243138

>  <SMR_VSA2>
3.1243138

>  <SMR_VSA3>
1.3584013

>  <SMR_VSA4>
2.7567475

>  <SMR_VSA5>
214.79192

>  <SMR_VSA6>
81.503777

>  <SMR_VSA7>
99.987572

>  <TPSA>
32.779999

>  <VAdjEq>
0.40063059

>  <VAdjMa>
5.8579812

>  <VDistEq>
3.4793739

>  <VDistMa>
9.2218275

>  <vdw_area>
420.7207

>  <vdw_vol>
550.1701

>  <vsa_acc>
16.070677

>  <vsa_acid>
0

>  <vsa_base>
0

>  <vsa_don>
0

>  <vsa_hyd>
370.34665

>  <vsa_other>
12.949531

>  <vsa_pol>
16.070677

>  <Weight>
386.56

>  <weinerPath>
1893

>  <weinerPol>
41

>  <zagreb>
136

$$$$