O[C@@H]1C[C@H](O)CC(=C/C=C2/[C@H]3CC[C@@H]([C@@H](C=C[C@H](O)C4CC4)C)[C@]3(CCC/2)C)C1=C
  MOE2013           2D

 30 33  0  0  1  0  0  0  0  0999 V2000
    0.0000    0.0000    0.0000 O   0  0  0  0  0  0  0  0  0  0  0  0
    1.3020   -0.7440    0.0000 C   0  0  2  0  0  0  0  0  0  0  0  0
    1.3090   -2.2440    0.0000 C   0  0  0  0  0  0  0  0  0  0  0  0
    2.6110   -2.9880    0.0000 C   0  0  2  0  0  0  0  0  0  0  0  0
    2.6180   -4.4880    0.0000 O   0  0  0  0  0  0  0  0  0  0  0  0
    3.9070   -2.2330    0.0000 C   0  0  0  0  0  0  0  0  0  0  0  0
    3.9000   -0.7330    0.0000 C   0  0  0  0  0  0  0  0  0  0  0  0
    5.1960    0.0230    0.0000 C   0  0  0  0  0  0  0  0  0  0  0  0
    6.4980   -0.7210    0.0000 C   0  0  0  0  0  0  0  0  0  0  0  0
    7.7940    0.0350    0.0000 C   0  0  0  0  0  0  0  0  0  0  0  0
    9.0970   -0.7090    0.0000 C   0  0  1  0  0  0  0  0  0  0  0  0
    9.4150   -2.1750    0.0000 C   0  0  0  0  0  0  0  0  0  0  0  0
   10.9070   -2.3250    0.0000 C   0  0  0  0  0  0  0  0  0  0  0  0
   11.5110   -0.9520    0.0000 C   0  0  1  0  0  0  0  0  0  0  0  0
   12.9770   -0.6340    0.0000 C   0  0  1  0  0  0  0  0  0  0  0  0
   13.9860   -1.7440    0.0000 C   0  0  0  0  0  0  0  0  0  0  0  0
   15.4520   -1.4260    0.0000 C   0  0  0  0  0  0  0  0  0  0  0  0
   16.4600   -2.5360    0.0000 C   0  0  2  0  0  0  0  0  0  0  0  0
   16.0030   -3.9650    0.0000 O   0  0  0  0  0  0  0  0  0  0  0  0
   17.9260   -2.2180    0.0000 C   0  0  0  0  0  0  0  0  0  0  0  0
   19.0360   -1.2090    0.0000 C   0  0  0  0  0  0  0  0  0  0  0  0
   19.3550   -2.6750    0.0000 C   0  0  0  0  0  0  0  0  0  0  0  0
   13.4340    0.7950    0.0000 C   0  0  0  0  0  0  0  0  0  0  0  0
   10.3920    0.0460    0.0000 C   0  0  1  0  0  0  0  0  0  0  0  0
   10.3860    1.5460    0.0000 C   0  0  0  0  0  0  0  0  0  0  0  0
    9.0830    2.2910    0.0000 C   0  0  0  0  0  0  0  0  0  0  0  0
    7.7870    1.5350    0.0000 C   0  0  0  0  0  0  0  0  0  0  0  0
   11.7600    0.6630    0.0000 C   0  0  0  0  0  0  0  0  0  0  0  0
    2.5980    0.0120    0.0000 C   0  0  0  0  0  0  0  0  0  0  0  0
    2.5910    1.5120    0.0000 C   0  0  0  0  0  0  0  0  0  0  0  0
  2  1  1  1  0  0  0
  2  3  1  0  0  0  0
  2 29  1  0  0  0  0
  3  4  1  0  0  0  0
  4  5  1  1  0  0  0
  4  6  1  0  0  0  0
  6  7  1  0  0  0  0
  7  8  2  3  0  0  0
  7 29  1  0  0  0  0
  8  9  1  0  0  0  0
  9 10  2  0  0  0  0
 10 27  1  0  0  0  0
 11 10  1  6  0  0  0
 11 12  1  0  0  0  0
 11 24  1  0  0  0  0
 12 13  1  0  0  0  0
 14 13  1  6  0  0  0
 14 15  1  0  0  0  0
 14 24  1  0  0  0  0
 15 16  1  0  0  0  0
 15 23  1  6  0  0  0
 16 17  2  3  0  0  0
 17 18  1  0  0  0  0
 18 19  1  1  0  0  0
 18 20  1  0  0  0  0
 20 21  1  0  0  0  0
 20 22  1  0  0  0  0
 21 22  1  0  0  0  0
 24 25  1  0  0  0  0
 24 28  1  1  0  0  0
 25 26  1  0  0  0  0
 26 27  1  0  0  0  0
 29 30  2  0  0  0  0
M  END
>  <Index>
177

>  <ID>
HT0350

>  <class>
0

>  <apol>
76.597717

>  <ast_fraglike>
0

>  <ast_fraglike_ext>
0

>  <ast_violation>
2

>  <ast_violation_ext>
3

>  <a_acc>
3

>  <a_acid>
0

>  <a_aro>
0

>  <a_base>
0

>  <a_count>
70

>  <a_don>
3

>  <a_donacc>
6

>  <a_heavy>
30

>  <a_hyd>
27

>  <a_IC>
83.035835

>  <a_ICM>
1.1862262

>  <a_nB>
0

>  <a_nBr>
0

>  <a_nC>
27

>  <a_nCl>
0

>  <a_nF>
0

>  <a_nH>
40

>  <a_nI>
0

>  <a_nN>
0

>  <a_nO>
3

>  <a_nP>
0

>  <a_nS>
0

>  <balabanJ>
1.3244742

>  <BCUT_PEOE_0>
-2.8224924

>  <BCUT_PEOE_1>
-0.48033261

>  <BCUT_PEOE_2>
0.59260148

>  <BCUT_PEOE_3>
2.8893518

>  <BCUT_SLOGP_0>
-2.7213972

>  <BCUT_SLOGP_1>
-0.5272367

>  <BCUT_SLOGP_2>
0.6045506

>  <BCUT_SLOGP_3>
2.9955986

>  <BCUT_SMR_0>
-2.5622463

>  <BCUT_SMR_1>
-0.39033568

>  <BCUT_SMR_2>
0.6613065

>  <BCUT_SMR_3>
3.1513872

>  <bpol>
43.728279

>  <b_1rotN>
5

>  <b_1rotR>
0.15151516

>  <b_ar>
0

>  <b_count>
73

>  <b_double>
4

>  <b_heavy>
33

>  <b_max1len>
4

>  <b_rotN>
5

>  <b_rotR>
0.15151516

>  <b_single>
69

>  <b_triple>
0

>  <chi0>
21.465891

>  <chi0v>
18.763561

>  <chi0v_C>
17.421921

>  <chi0_C>
18.465891

>  <chi1>
14.29155

>  <chi1v>
12.105949

>  <chi1v_C>
11.331352

>  <chi1_C>
12.559499

>  <chiral>
7

>  <chiral_u>
0

>  <density>
0.6656574

>  <diameter>
15

>  <FCharge>
0

>  <GCUT_PEOE_0>
-0.80273944

>  <GCUT_PEOE_1>
-0.35457191

>  <GCUT_PEOE_2>
0.093752295

>  <GCUT_PEOE_3>
3.1717627

>  <GCUT_SLOGP_0>
-0.88028026

>  <GCUT_SLOGP_1>
-0.32401714

>  <GCUT_SLOGP_2>
0.06035088

>  <GCUT_SLOGP_3>
3.2784612

>  <GCUT_SMR_0>
-0.53872883

>  <GCUT_SMR_1>
-0.21215485

>  <GCUT_SMR_2>
0.1523366

>  <GCUT_SMR_3>
3.411078

>  <Kier1>
23.168043

>  <Kier2>
9.469388

>  <Kier3>
4.7155271

>  <KierA1>
20.789547

>  <KierA2>
8.4641781

>  <KierA3>
4.2033434

>  <KierFlex>
5.8655472

>  <lip_acc>
3

>  <lip_don>
3

>  <lip_druglike>
1

>  <lip_violation>
1

>  <logP(o/w)>
4.4439998

>  <logS>
-7.1427498

>  <mr>
12.065291

>  <mutagenic>
0

>  <nmol>
1

>  <opr_brigid>
23

>  <opr_leadlike>
1

>  <opr_nring>
4

>  <opr_nrot>
8

>  <opr_violation>
1

>  <PC+>
0

>  <PC->
0

>  <PEOE_PC+>
2.182013

>  <PEOE_PC->
-2.182013

>  <PEOE_RPC+>
0.096347734

>  <PEOE_RPC->
0.17936063

>  <PEOE_VSA+0>
128.13213

>  <PEOE_VSA+1>
53.10326

>  <PEOE_VSA+2>
0

>  <PEOE_VSA+3>
0

>  <PEOE_VSA+4>
30.972517

>  <PEOE_VSA+5>
0

>  <PEOE_VSA+6>
0

>  <PEOE_VSA-0>
74.027588

>  <PEOE_VSA-1>
111.02478

>  <PEOE_VSA-2>
0

>  <PEOE_VSA-3>
0

>  <PEOE_VSA-4>
0

>  <PEOE_VSA-5>
0

>  <PEOE_VSA-6>
23.30262

>  <PEOE_VSA_FHYD>
0.87094641

>  <PEOE_VSA_FNEG>
0.49541932

>  <PEOE_VSA_FPNEG>
0.055408172

>  <PEOE_VSA_FPOL>
0.12905356

>  <PEOE_VSA_FPOS>
0.50458068

>  <PEOE_VSA_FPPOS>
0.073645391

>  <PEOE_VSA_HYD>
366.28775

>  <PEOE_VSA_NEG>
208.35498

>  <PEOE_VSA_PNEG>
23.30262

>  <PEOE_VSA_POL>
54.275139

>  <PEOE_VSA_POS>
212.2079

>  <PEOE_VSA_PPOS>
30.972517

>  <petitjean>
0.46666667

>  <petitjeanSC>
0.875

>  <Q_PC+>
0

>  <Q_PC->
0

>  <Q_RPC+>
0

>  <Q_RPC->
0

>  <Q_VSA_FHYD>
1

>  <Q_VSA_FNEG>
0

>  <Q_VSA_FPNEG>
0

>  <Q_VSA_FPOL>
0

>  <Q_VSA_FPOS>
1

>  <Q_VSA_FPPOS>
0

>  <Q_VSA_HYD>
420.5629

>  <Q_VSA_NEG>
0

>  <Q_VSA_PNEG>
0

>  <Q_VSA_POL>
0

>  <Q_VSA_POS>
420.5629

>  <Q_VSA_PPOS>
0

>  <radius>
8

>  <reactive>
0

>  <rings>
4

>  <RPC+>
0

>  <RPC->
0

>  <rsynth>
0

>  <SlogP>
5.0906

>  <SlogP_VSA0>
76.155678

>  <SlogP_VSA1>
0

>  <SlogP_VSA2>
19.405949

>  <SlogP_VSA3>
0

>  <SlogP_VSA4>
17.643185

>  <SlogP_VSA5>
9.5567245

>  <SlogP_VSA6>
0

>  <SlogP_VSA7>
70.572739

>  <SlogP_VSA8>
169.81564

>  <SlogP_VSA9>
98.752823

>  <SMR>
12.17604

>  <SMR_VSA0>
0

>  <SMR_VSA1>
76.155678

>  <SMR_VSA2>
17.643185

>  <SMR_VSA3>
28.962673

>  <SMR_VSA4>
0

>  <SMR_VSA5>
240.38838

>  <SMR_VSA6>
0

>  <SMR_VSA7>
98.752823

>  <TPSA>
60.689999

>  <VAdjEq>
0.37824166

>  <VAdjMa>
6.044394

>  <VDistEq>
3.7093575

>  <VDistMa>
9.5056562

>  <vdw_area>
420.5629

>  <vdw_vol>
619.85938

>  <vsa_acc>
0

>  <vsa_acid>
0

>  <vsa_base>
0

>  <vsa_don>
0

>  <vsa_hyd>
334.57111

>  <vsa_other>
0

>  <vsa_pol>
40.700764

>  <Weight>
412.61398

>  <weinerPath>
2653

>  <weinerPol>
51

>  <zagreb>
164

$$$$