Oc1c2c(cccc2)c(O)cc1C
  MOE2013           2D

 13 14  0  0  0  0  0  0  0  0999 V2000
    0.0000    0.0000    0.0000 O   0  0  0  0  0  0  0  0  0  0  0  0
   -0.7450   -1.3020    0.0000 C   0  0  0  0  0  0  0  0  0  0  0  0
   -2.2450   -1.3080    0.0000 C   0  0  0  0  0  0  0  0  0  0  0  0
   -2.9890   -2.6100    0.0000 C   0  0  0  0  0  0  0  0  0  0  0  0
   -4.4890   -2.6170    0.0000 C   0  0  0  0  0  0  0  0  0  0  0  0
   -5.2450   -1.3210    0.0000 C   0  0  0  0  0  0  0  0  0  0  0  0
   -4.5000   -0.0190    0.0000 C   0  0  0  0  0  0  0  0  0  0  0  0
   -3.0000   -0.0120    0.0000 C   0  0  0  0  0  0  0  0  0  0  0  0
   -2.2340   -3.9060    0.0000 C   0  0  0  0  0  0  0  0  0  0  0  0
   -2.9780   -5.2090    0.0000 O   0  0  0  0  0  0  0  0  0  0  0  0
   -0.7340   -3.9000    0.0000 C   0  0  0  0  0  0  0  0  0  0  0  0
    0.0110   -2.5980    0.0000 C   0  0  0  0  0  0  0  0  0  0  0  0
    1.5110   -2.5920    0.0000 C   0  0  0  0  0  0  0  0  0  0  0  0
  1  2  1  0  0  0  0
  2  3  1  0  0  0  0
  2 12  2  0  0  0  0
  3  4  1  0  0  0  0
  3  8  2  0  0  0  0
  4  5  2  0  0  0  0
  4  9  1  0  0  0  0
  5  6  1  0  0  0  0
  6  7  2  0  0  0  0
  7  8  1  0  0  0  0
  9 10  1  0  0  0  0
  9 11  2  0  0  0  0
 11 12  1  0  0  0  0
 12 13  1  0  0  0  0
M  END
>  <Index>
1240

>  <ID>
HT2748

>  <class>
0

>  <apol>
27.631929

>  <ast_fraglike>
1

>  <ast_fraglike_ext>
1

>  <ast_violation>
0

>  <ast_violation_ext>
0

>  <a_acc>
2

>  <a_acid>
0

>  <a_aro>
10

>  <a_base>
0

>  <a_count>
23

>  <a_don>
2

>  <a_donacc>
4

>  <a_heavy>
13

>  <a_hyd>
11

>  <a_IC>
30.768896

>  <a_ICM>
1.3377781

>  <a_nB>
0

>  <a_nBr>
0

>  <a_nC>
11

>  <a_nCl>
0

>  <a_nF>
0

>  <a_nH>
10

>  <a_nI>
0

>  <a_nN>
0

>  <a_nO>
2

>  <a_nP>
0

>  <a_nS>
0

>  <balabanJ>
2.1321476

>  <BCUT_PEOE_0>
-2.2925537

>  <BCUT_PEOE_1>
-0.54329783

>  <BCUT_PEOE_2>
0.62100089

>  <BCUT_PEOE_3>
2.267967

>  <BCUT_SLOGP_0>
-2.1091199

>  <BCUT_SLOGP_1>
-0.44912469

>  <BCUT_SLOGP_2>
0.6796689

>  <BCUT_SLOGP_3>
2.49472

>  <BCUT_SMR_0>
-1.9934999

>  <BCUT_SMR_1>
-0.39165103

>  <BCUT_SMR_2>
0.77142537

>  <BCUT_SMR_3>
2.5895298

>  <bpol>
10.93207

>  <b_1rotN>
0

>  <b_1rotR>
0

>  <b_ar>
11

>  <b_count>
24

>  <b_double>
0

>  <b_heavy>
14

>  <b_max1len>
2

>  <b_rotN>
0

>  <b_rotR>
0

>  <b_single>
13

>  <b_triple>
0

>  <chi0>
9.4222851

>  <chi0v>
7.2811785

>  <chi0v_C>
6.3867512

>  <chi0_C>
7.4222851

>  <chi1>
6.1983771

>  <chi1v>
4.1019139

>  <chi1v_C>
3.6547005

>  <chi1_C>
5.0436769

>  <chiral>
0

>  <chiral_u>
0

>  <density>
0.718759

>  <diameter>
6

>  <FCharge>
0

>  <GCUT_PEOE_0>
-0.76361704

>  <GCUT_PEOE_1>
-0.40743697

>  <GCUT_PEOE_2>
0.081128277

>  <GCUT_PEOE_3>
2.2826474

>  <GCUT_SLOGP_0>
-0.76274019

>  <GCUT_SLOGP_1>
-0.23455393

>  <GCUT_SLOGP_2>
0.12133308

>  <GCUT_SLOGP_3>
2.502388

>  <GCUT_SMR_0>
-0.47878221

>  <GCUT_SMR_1>
-0.18395132

>  <GCUT_SMR_2>
0.20333485

>  <GCUT_SMR_3>
2.6001604

>  <Kier1>
9.5510206

>  <Kier2>
3.6300001

>  <Kier3>
1.6460905

>  <KierA1>
6.834352

>  <KierA2>
2.5169075

>  <KierA3>
1.1109506

>  <KierFlex>
1.3231871

>  <lip_acc>
2

>  <lip_don>
2

>  <lip_druglike>
1

>  <lip_violation>
0

>  <logP(o/w)>
2.8410001

>  <logS>
-2.6993301

>  <mr>
5.0986123

>  <mutagenic>
0

>  <nmol>
1

>  <opr_brigid>
11

>  <opr_leadlike>
1

>  <opr_nring>
2

>  <opr_nrot>
0

>  <opr_violation>
0

>  <PC+>
0

>  <PC->
0

>  <PEOE_PC+>
1.0241594

>  <PEOE_PC->
-1.0241594

>  <PEOE_RPC+>
0.21222201

>  <PEOE_RPC->
0.3507418

>  <PEOE_VSA+0>
17.213238

>  <PEOE_VSA+1>
38.243969

>  <PEOE_VSA+2>
0

>  <PEOE_VSA+3>
0

>  <PEOE_VSA+4>
20.648346

>  <PEOE_VSA+5>
0

>  <PEOE_VSA+6>
0

>  <PEOE_VSA-0>
33.211121

>  <PEOE_VSA-1>
49.019615

>  <PEOE_VSA-2>
0

>  <PEOE_VSA-3>
0

>  <PEOE_VSA-4>
0

>  <PEOE_VSA-5>
0

>  <PEOE_VSA-6>
15.535081

>  <PEOE_VSA_FHYD>
0.79189545

>  <PEOE_VSA_FNEG>
0.56228817

>  <PEOE_VSA_FPNEG>
0.089348122

>  <PEOE_VSA_FPOL>
0.20810457

>  <PEOE_VSA_FPOS>
0.43771181

>  <PEOE_VSA_FPPOS>
0.11875644

>  <PEOE_VSA_HYD>
137.68794

>  <PEOE_VSA_NEG>
97.765816

>  <PEOE_VSA_PNEG>
15.535081

>  <PEOE_VSA_POL>
36.183426

>  <PEOE_VSA_POS>
76.105553

>  <PEOE_VSA_PPOS>
20.648346

>  <petitjean>
0.5

>  <petitjeanSC>
1

>  <Q_PC+>
0

>  <Q_PC->
0

>  <Q_RPC+>
0

>  <Q_RPC->
0

>  <Q_VSA_FHYD>
1

>  <Q_VSA_FNEG>
0

>  <Q_VSA_FPNEG>
0

>  <Q_VSA_FPOL>
0

>  <Q_VSA_FPOS>
1

>  <Q_VSA_FPPOS>
0

>  <Q_VSA_HYD>
173.87137

>  <Q_VSA_NEG>
0

>  <Q_VSA_PNEG>
0

>  <Q_VSA_POL>
0

>  <Q_VSA_POS>
173.87137

>  <Q_VSA_PPOS>
0

>  <radius>
3

>  <reactive>
0

>  <rings>
2

>  <RPC+>
0

>  <RPC->
0

>  <rsynth>
0

>  <SlogP>
2.5594201

>  <SlogP_VSA0>
50.770454

>  <SlogP_VSA1>
0

>  <SlogP_VSA2>
0

>  <SlogP_VSA3>
0

>  <SlogP_VSA4>
3.185575

>  <SlogP_VSA5>
0

>  <SlogP_VSA6>
0

>  <SlogP_VSA7>
93.361847

>  <SlogP_VSA8>
0

>  <SlogP_VSA9>
43.81287

>  <SMR>
5.2014599

>  <SMR_VSA0>
0

>  <SMR_VSA1>
50.770454

>  <SMR_VSA2>
0

>  <SMR_VSA3>
13.672431

>  <SMR_VSA4>
5.1459289

>  <SMR_VSA5>
88.215919

>  <SMR_VSA6>
0

>  <SMR_VSA7>
33.326015

>  <TPSA>
40.459999

>  <VAdjEq>
0.64772749

>  <VAdjMa>
4.8073549

>  <VDistEq>
2.3080299

>  <VDistMa>
7.1322675

>  <vdw_area>
173.87137

>  <vdw_vol>
242.36078

>  <vsa_acc>
0

>  <vsa_acid>
0

>  <vsa_base>
0

>  <vsa_don>
0

>  <vsa_hyd>
131.99358

>  <vsa_other>
0

>  <vsa_pol>
27.133842

>  <Weight>
174.19899

>  <weinerPath>
218

>  <weinerPol>
21

>  <zagreb>
68

$$$$