O1CCN(CC1)CCCOc1ccc(OCCCC)cc1
  MOE2013           2D

 21 22  0  0  0  0  0  0  0  0999 V2000
    0.0000    0.0000    0.0000 O   0  0  0  0  0  0  0  0  0  0  0  0
    0.7480   -1.3000    0.0000 C   0  0  0  0  0  0  0  0  0  0  0  0
    2.2480   -1.3020    0.0000 C   0  0  0  0  0  0  0  0  0  0  0  0
    3.0000   -0.0040    0.0000 N   0  0  0  0  0  0  0  0  0  0  0  0
    2.2520    1.2960    0.0000 C   0  0  0  0  0  0  0  0  0  0  0  0
    0.7520    1.2980    0.0000 C   0  0  0  0  0  0  0  0  0  0  0  0
    4.5000   -0.0050    0.0000 C   0  0  0  0  0  0  0  0  0  0  0  0
    5.2480   -1.3050    0.0000 C   0  0  0  0  0  0  0  0  0  0  0  0
    6.7480   -1.3070    0.0000 C   0  0  0  0  0  0  0  0  0  0  0  0
    7.4970   -2.6070    0.0000 O   0  0  0  0  0  0  0  0  0  0  0  0
    8.9970   -2.6090    0.0000 C   0  0  0  0  0  0  0  0  0  0  0  0
    9.7450   -3.9090    0.0000 C   0  0  0  0  0  0  0  0  0  0  0  0
   11.2450   -3.9100    0.0000 C   0  0  0  0  0  0  0  0  0  0  0  0
   11.9970   -2.6120    0.0000 C   0  0  0  0  0  0  0  0  0  0  0  0
   13.4970   -2.6140    0.0000 O   0  0  0  0  0  0  0  0  0  0  0  0
   14.2450   -3.9140    0.0000 C   0  0  0  0  0  0  0  0  0  0  0  0
   15.7450   -3.9160    0.0000 C   0  0  0  0  0  0  0  0  0  0  0  0
   16.4940   -5.2160    0.0000 C   0  0  0  0  0  0  0  0  0  0  0  0
   17.9940   -5.2170    0.0000 C   0  0  0  0  0  0  0  0  0  0  0  0
   11.2480   -1.3120    0.0000 C   0  0  0  0  0  0  0  0  0  0  0  0
    9.7480   -1.3110    0.0000 C   0  0  0  0  0  0  0  0  0  0  0  0
  1  2  1  0  0  0  0
  1  6  1  0  0  0  0
  2  3  1  0  0  0  0
  3  4  1  0  0  0  0
  4  5  1  0  0  0  0
  4  7  1  0  0  0  0
  5  6  1  0  0  0  0
  7  8  1  0  0  0  0
  8  9  1  0  0  0  0
  9 10  1  0  0  0  0
 10 11  1  0  0  0  0
 11 12  1  0  0  0  0
 11 21  2  0  0  0  0
 12 13  2  0  0  0  0
 13 14  1  0  0  0  0
 14 15  1  0  0  0  0
 14 20  2  0  0  0  0
 15 16  1  0  0  0  0
 16 17  1  0  0  0  0
 17 18  1  0  0  0  0
 18 19  1  0  0  0  0
 20 21  1  0  0  0  0
M  END
>  <Index>
1312

>  <ID>
HT3317

>  <class>
0

>  <apol>
51.429413

>  <ast_fraglike>
0

>  <ast_fraglike_ext>
0

>  <ast_violation>
1

>  <ast_violation_ext>
2

>  <a_acc>
4

>  <a_acid>
0

>  <a_aro>
6

>  <a_base>
0

>  <a_count>
48

>  <a_don>
0

>  <a_donacc>
4

>  <a_heavy>
21

>  <a_hyd>
17

>  <a_IC>
65.454483

>  <a_ICM>
1.3636351

>  <a_nB>
0

>  <a_nBr>
0

>  <a_nC>
17

>  <a_nCl>
0

>  <a_nF>
0

>  <a_nH>
27

>  <a_nI>
0

>  <a_nN>
1

>  <a_nO>
3

>  <a_nP>
0

>  <a_nS>
0

>  <balabanJ>
1.4503307

>  <BCUT_PEOE_0>
-2.7310975

>  <BCUT_PEOE_1>
-0.49263602

>  <BCUT_PEOE_2>
0.42785856

>  <BCUT_PEOE_3>
2.6519158

>  <BCUT_SLOGP_0>
-2.8311462

>  <BCUT_SLOGP_1>
-0.44224408

>  <BCUT_SLOGP_2>
0.55031759

>  <BCUT_SLOGP_3>
2.638227

>  <BCUT_SMR_0>
-2.4637537

>  <BCUT_SMR_1>
-0.293109

>  <BCUT_SMR_2>
0.61983389

>  <BCUT_SMR_3>
2.9079285

>  <bpol>
37.244591

>  <b_1rotN>
9

>  <b_1rotR>
0.40909091

>  <b_ar>
6

>  <b_count>
49

>  <b_double>
0

>  <b_heavy>
22

>  <b_max1len>
5

>  <b_rotN>
9

>  <b_rotR>
0.40909091

>  <b_single>
43

>  <b_triple>
0

>  <chi0>
14.752866

>  <chi0v>
13.052427

>  <chi0v_C>
11.380469

>  <chi0_C>
12.054195

>  <chi1>
10.381341

>  <chi1v>
8.0401058

>  <chi1v_C>
5.5284739

>  <chi1_C>
6.3400998

>  <chiral>
0

>  <chiral_u>
0

>  <density>
0.67670494

>  <diameter>
16

>  <FCharge>
0

>  <GCUT_PEOE_0>
-0.84913993

>  <GCUT_PEOE_1>
-0.37533918

>  <GCUT_PEOE_2>
-0.063327521

>  <GCUT_PEOE_3>
2.552927

>  <GCUT_SLOGP_0>
-0.95864248

>  <GCUT_SLOGP_1>
-0.29538208

>  <GCUT_SLOGP_2>
0.10536861

>  <GCUT_SLOGP_3>
2.602705

>  <GCUT_SMR_0>
-0.528346

>  <GCUT_SMR_1>
-0.18275414

>  <GCUT_SMR_2>
0.10349301

>  <GCUT_SMR_3>
2.7899454

>  <Kier1>
17.355371

>  <Kier2>
10.680473

>  <Kier3>
7.1999998

>  <KierA1>
15.432723

>  <KierA2>
9.4385099

>  <KierA3>
6.3325286

>  <KierFlex>
6.9362812

>  <lip_acc>
4

>  <lip_don>
0

>  <lip_druglike>
1

>  <lip_violation>
0

>  <logP(o/w)>
3.0999999

>  <logS>
-2.92098

>  <mr>
8.5441914

>  <mutagenic>
0

>  <nmol>
1

>  <opr_brigid>
12

>  <opr_leadlike>
1

>  <opr_nring>
2

>  <opr_nrot>
11

>  <opr_violation>
1

>  <PC+>
0

>  <PC->
0

>  <PEOE_PC+>
1.6458466

>  <PEOE_PC->
-1.6458466

>  <PEOE_RPC+>
0.04637878

>  <PEOE_RPC->
0.2292088

>  <PEOE_VSA+0>
103.55776

>  <PEOE_VSA+1>
127.90685

>  <PEOE_VSA+2>
0

>  <PEOE_VSA+3>
0

>  <PEOE_VSA+4>
0

>  <PEOE_VSA+5>
0

>  <PEOE_VSA+6>
0

>  <PEOE_VSA-0>
66.422241

>  <PEOE_VSA-1>
27.44899

>  <PEOE_VSA-2>
0

>  <PEOE_VSA-3>
0

>  <PEOE_VSA-4>
0

>  <PEOE_VSA-5>
0

>  <PEOE_VSA-6>
7.5112681

>  <PEOE_VSA_FHYD>
0.97743326

>  <PEOE_VSA_FNEG>
0.3045918

>  <PEOE_VSA_FPNEG>
0.022566723

>  <PEOE_VSA_FPOL>
0.022566723

>  <PEOE_VSA_FPOS>
0.69540823

>  <PEOE_VSA_FPPOS>
0

>  <PEOE_VSA_HYD>
325.33585

>  <PEOE_VSA_NEG>
101.3825

>  <PEOE_VSA_PNEG>
7.5112681

>  <PEOE_VSA_POL>
7.5112681

>  <PEOE_VSA_POS>
231.46461

>  <PEOE_VSA_PPOS>
0

>  <petitjean>
0.5

>  <petitjeanSC>
1

>  <Q_PC+>
0

>  <Q_PC->
0

>  <Q_RPC+>
0

>  <Q_RPC->
0

>  <Q_VSA_FHYD>
1

>  <Q_VSA_FNEG>
0

>  <Q_VSA_FPNEG>
0

>  <Q_VSA_FPOL>
0

>  <Q_VSA_FPOS>
1

>  <Q_VSA_FPPOS>
0

>  <Q_VSA_HYD>
332.84711

>  <Q_VSA_NEG>
0

>  <Q_VSA_PNEG>
0

>  <Q_VSA_POL>
0

>  <Q_VSA_POS>
332.84711

>  <Q_VSA_PPOS>
0

>  <radius>
8

>  <reactive>
0

>  <rings>
2

>  <RPC+>
0

>  <RPC->
0

>  <rsynth>
1

>  <SlogP>
2.9665999

>  <SlogP_VSA0>
21.999775

>  <SlogP_VSA1>
3.1243138

>  <SlogP_VSA2>
10.999887

>  <SlogP_VSA3>
139.02377

>  <SlogP_VSA4>
0

>  <SlogP_VSA5>
0

>  <SlogP_VSA6>
0

>  <SlogP_VSA7>
70.572739

>  <SlogP_VSA8>
56.605217

>  <SlogP_VSA9>
43.81287

>  <SMR>
8.4216003

>  <SMR_VSA0>
10.999887

>  <SMR_VSA1>
25.12409

>  <SMR_VSA2>
0

>  <SMR_VSA3>
10.486856

>  <SMR_VSA4>
0

>  <SMR_VSA5>
127.17796

>  <SMR_VSA6>
139.02377

>  <SMR_VSA7>
33.326015

>  <TPSA>
30.93

>  <VAdjEq>
0.46827638

>  <VAdjMa>
5.4594316

>  <VDistEq>
3.7377298

>  <VDistMa>
8.4119759

>  <vdw_area>
332.84711

>  <vdw_vol>
433.58188

>  <vsa_acc>
7.5112681

>  <vsa_acid>
0

>  <vsa_base>
0

>  <vsa_don>
0

>  <vsa_hyd>
306.11737

>  <vsa_other>
0

>  <vsa_pol>
7.5112681

>  <Weight>
293.40698

>  <weinerPath>
1244

>  <weinerPol>
24

>  <zagreb>
96

$$$$