Clc1ccc(O)cc1
  MOE2013           2D

  8  8  0  0  0  0  0  0  0  0999 V2000
    0.0000    0.0000    0.0000 Cl  0  0  0  0  0  0  0  0  0  0  0  0
    1.5000    0.0000    0.0000 C   0  0  0  0  0  0  0  0  0  0  0  0
    2.2500   -1.2990    0.0000 C   0  0  0  0  0  0  0  0  0  0  0  0
    3.7500   -1.2990    0.0000 C   0  0  0  0  0  0  0  0  0  0  0  0
    4.5000    0.0000    0.0000 C   0  0  0  0  0  0  0  0  0  0  0  0
    6.0000    0.0000    0.0000 O   0  0  0  0  0  0  0  0  0  0  0  0
    3.7500    1.2990    0.0000 C   0  0  0  0  0  0  0  0  0  0  0  0
    2.2500    1.2990    0.0000 C   0  0  0  0  0  0  0  0  0  0  0  0
  1  2  1  0  0  0  0
  2  3  1  0  0  0  0
  2  8  2  0  0  0  0
  3  4  2  0  0  0  0
  4  5  1  0  0  0  0
  5  6  1  0  0  0  0
  5  7  2  0  0  0  0
  7  8  1  0  0  0  0
M  END
>  <Index>
1214

>  <ID>
HT2535

>  <class>
0

>  <apol>
16.875965

>  <ast_fraglike>
1

>  <ast_fraglike_ext>
1

>  <ast_violation>
0

>  <ast_violation_ext>
0

>  <a_acc>
1

>  <a_acid>
0

>  <a_aro>
6

>  <a_base>
0

>  <a_count>
13

>  <a_don>
1

>  <a_donacc>
2

>  <a_heavy>
8

>  <a_hyd>
7

>  <a_IC>
20.986301

>  <a_ICM>
1.6143309

>  <a_nB>
0

>  <a_nBr>
0

>  <a_nC>
6

>  <a_nCl>
1

>  <a_nF>
0

>  <a_nH>
5

>  <a_nI>
0

>  <a_nN>
0

>  <a_nO>
1

>  <a_nP>
0

>  <a_nS>
0

>  <balabanJ>
2.2646422

>  <BCUT_PEOE_0>
-2.1465003

>  <BCUT_PEOE_1>
-0.6400162

>  <BCUT_PEOE_2>
0.70568633

>  <BCUT_PEOE_3>
2.1158288

>  <BCUT_SLOGP_0>
-1.944613

>  <BCUT_SLOGP_1>
-0.53807992

>  <BCUT_SLOGP_2>
0.80591482

>  <BCUT_SLOGP_3>
2.3536878

>  <BCUT_SMR_0>
-1.8252872

>  <BCUT_SMR_1>
-0.49986199

>  <BCUT_SMR_2>
0.85431087

>  <BCUT_SMR_3>
2.4431112

>  <bpol>
5.886035

>  <b_1rotN>
0

>  <b_1rotR>
0

>  <b_ar>
6

>  <b_count>
13

>  <b_double>
0

>  <b_heavy>
8

>  <b_max1len>
1

>  <b_rotN>
0

>  <b_rotR>
0

>  <b_single>
7

>  <b_triple>
0

>  <chi0>
5.9831276

>  <chi0v>
4.8905082

>  <chi0v_C>
3.309401

>  <chi0_C>
3.9831276

>  <chi1>
3.7876937

>  <chi1v>
2.6119206

>  <chi1v_C>
1.8213673

>  <chi1_C>
2.6329932

>  <chiral>
0

>  <chiral_u>
0

>  <density>
0.838341

>  <diameter>
5

>  <FCharge>
0

>  <GCUT_PEOE_0>
-0.76476204

>  <GCUT_PEOE_1>
-0.37807983

>  <GCUT_PEOE_2>
0.084109604

>  <GCUT_PEOE_3>
1.857482

>  <GCUT_SLOGP_0>
-0.76167637

>  <GCUT_SLOGP_1>
-0.26386139

>  <GCUT_SLOGP_2>
0.16644596

>  <GCUT_SLOGP_3>
2.0855477

>  <GCUT_SMR_0>
-0.42916924

>  <GCUT_SMR_1>
-0.21605732

>  <GCUT_SMR_2>
0.3231186

>  <GCUT_SMR_3>
2.1699691

>  <Kier1>
6.125

>  <Kier2>
2.52

>  <Kier3>
1.8

>  <KierA1>
5.345221

>  <KierA2>
2.1506782

>  <KierA3>
1.5063654

>  <KierFlex>
1.4369814

>  <lip_acc>
1

>  <lip_don>
1

>  <lip_druglike>
1

>  <lip_violation>
0

>  <logP(o/w)>
2.1900001

>  <logS>
-1.75722

>  <mr>
3.3806264

>  <mutagenic>
0

>  <nmol>
1

>  <opr_brigid>
6

>  <opr_leadlike>
1

>  <opr_nring>
1

>  <opr_nrot>
0

>  <opr_violation>
0

>  <PC+>
0

>  <PC->
0

>  <PEOE_PC+>
0.58641303

>  <PEOE_PC->
-0.58641303

>  <PEOE_RPC+>
0.37058055

>  <PEOE_RPC->
0.61361432

>  <PEOE_VSA+0>
4.5197463

>  <PEOE_VSA+1>
25.520063

>  <PEOE_VSA+2>
0

>  <PEOE_VSA+3>
0

>  <PEOE_VSA+4>
10.324173

>  <PEOE_VSA+5>
0

>  <PEOE_VSA+6>
0

>  <PEOE_VSA-0>
49.019615

>  <PEOE_VSA-1>
29.581947

>  <PEOE_VSA-2>
0

>  <PEOE_VSA-3>
0

>  <PEOE_VSA-4>
0

>  <PEOE_VSA-5>
0

>  <PEOE_VSA-6>
7.7675405

>  <PEOE_VSA_FHYD>
0.85724556

>  <PEOE_VSA_FNEG>
0.68150401

>  <PEOE_VSA_FPNEG>
0.061290547

>  <PEOE_VSA_FPOL>
0.14275445

>  <PEOE_VSA_FPOS>
0.31849602

>  <PEOE_VSA_FPPOS>
0.081463911

>  <PEOE_VSA_HYD>
108.64137

>  <PEOE_VSA_NEG>
86.369102

>  <PEOE_VSA_PNEG>
7.7675405

>  <PEOE_VSA_POL>
18.091713

>  <PEOE_VSA_POS>
40.363983

>  <PEOE_VSA_PPOS>
10.324173

>  <petitjean>
0.40000001

>  <petitjeanSC>
0.66666669

>  <Q_PC+>
0

>  <Q_PC->
0

>  <Q_RPC+>
0

>  <Q_RPC->
0

>  <Q_VSA_FHYD>
1

>  <Q_VSA_FNEG>
0

>  <Q_VSA_FPNEG>
0

>  <Q_VSA_FPOL>
0

>  <Q_VSA_FPOS>
1

>  <Q_VSA_FPPOS>
0

>  <Q_VSA_HYD>
126.73309

>  <Q_VSA_NEG>
0

>  <Q_VSA_PNEG>
0

>  <Q_VSA_POL>
0

>  <Q_VSA_POS>
126.73309

>  <Q_VSA_PPOS>
0

>  <radius>
3

>  <reactive>
0

>  <rings>
1

>  <RPC+>
0

>  <RPC->
0

>  <rsynth>
1

>  <SlogP>
2.0455999

>  <SlogP_VSA0>
25.385227

>  <SlogP_VSA1>
0

>  <SlogP_VSA2>
0

>  <SlogP_VSA3>
0

>  <SlogP_VSA4>
0

>  <SlogP_VSA5>
0

>  <SlogP_VSA6>
3.5006065

>  <SlogP_VSA7>
70.572739

>  <SlogP_VSA8>
0

>  <SlogP_VSA9>
44.392071

>  <SMR>
3.3116801

>  <SMR_VSA0>
0

>  <SMR_VSA1>
25.385227

>  <SMR_VSA2>
0

>  <SMR_VSA3>
8.7440348

>  <SMR_VSA4>
0

>  <SMR_VSA5>
70.572739

>  <SMR_VSA6>
0

>  <SMR_VSA7>
39.148643

>  <TPSA>
20.23

>  <VAdjEq>
0.8112781

>  <VAdjMa>
4

>  <VDistEq>
1.9905418

>  <VDistMa>
5.649457

>  <vdw_area>
126.73309

>  <vdw_vol>
153.3481

>  <vsa_acc>
0

>  <vsa_acid>
0

>  <vsa_base>
0

>  <vsa_don>
0

>  <vsa_hyd>
105.79419

>  <vsa_other>
0

>  <vsa_pol>
13.566921

>  <Weight>
128.558

>  <weinerPath>
62

>  <weinerPol>
7

>  <zagreb>
36

$$$$