Clc1ccc(cc1C(F)(F)F)C1(O)CCN(CC1)CCCC(=O)c1ccc(F)cc1
  MOE2013           2D

 30 32  0  0  0  0  0  0  0  0999 V2000
    0.0000    0.0000    0.0000 Cl  0  0  0  0  0  0  0  0  0  0  0  0
    1.5000    0.0080    0.0000 C   0  0  0  0  0  0  0  0  0  0  0  0
    2.2570   -1.2880    0.0000 C   0  0  0  0  0  0  0  0  0  0  0  0
    3.7570   -1.2800    0.0000 C   0  0  0  0  0  0  0  0  0  0  0  0
    4.5000    0.0230    0.0000 C   0  0  0  0  0  0  0  0  0  0  0  0
    3.7430    1.3180    0.0000 C   0  0  0  0  0  0  0  0  0  0  0  0
    2.2430    1.3100    0.0000 C   0  0  0  0  0  0  0  0  0  0  0  0
    1.4870    2.6060    0.0000 C   0  0  0  0  0  0  0  0  0  0  0  0
    0.7300    3.9010    0.0000 F   0  0  0  0  0  0  0  0  0  0  0  0
    2.7820    3.3620    0.0000 F   0  0  0  0  0  0  0  0  0  0  0  0
    0.1920    1.8490    0.0000 F   0  0  0  0  0  0  0  0  0  0  0  0
    6.0000    0.0300    0.0000 C   0  0  0  0  0  0  0  0  0  0  0  0
    5.2430    1.3260    0.0000 O   0  0  0  0  0  0  0  0  0  0  0  0
    7.2950    0.7870    0.0000 C   0  0  0  0  0  0  0  0  0  0  0  0
    8.5980    0.0430    0.0000 C   0  0  0  0  0  0  0  0  0  0  0  0
    8.6060   -1.4570    0.0000 N   0  0  0  0  0  0  0  0  0  0  0  0
    7.3100   -2.2130    0.0000 C   0  0  0  0  0  0  0  0  0  0  0  0
    6.0070   -1.4700    0.0000 C   0  0  0  0  0  0  0  0  0  0  0  0
    9.9080   -2.2000    0.0000 C   0  0  0  0  0  0  0  0  0  0  0  0
   11.2040   -1.4430    0.0000 C   0  0  0  0  0  0  0  0  0  0  0  0
   12.5060   -2.1870    0.0000 C   0  0  0  0  0  0  0  0  0  0  0  0
   13.8020   -1.4300    0.0000 C   0  0  0  0  0  0  0  0  0  0  0  0
   13.7940    0.0700    0.0000 O   0  0  0  0  0  0  0  0  0  0  0  0
   15.1040   -2.1740    0.0000 C   0  0  0  0  0  0  0  0  0  0  0  0
   15.1120   -3.6740    0.0000 C   0  0  0  0  0  0  0  0  0  0  0  0
   16.4150   -4.4170    0.0000 C   0  0  0  0  0  0  0  0  0  0  0  0
   17.7100   -3.6610    0.0000 C   0  0  0  0  0  0  0  0  0  0  0  0
   19.0130   -4.4040    0.0000 F   0  0  0  0  0  0  0  0  0  0  0  0
   17.7020   -2.1610    0.0000 C   0  0  0  0  0  0  0  0  0  0  0  0
   16.4000   -1.4170    0.0000 C   0  0  0  0  0  0  0  0  0  0  0  0
  1  2  1  0  0  0  0
  2  3  1  0  0  0  0
  2  7  2  0  0  0  0
  3  4  2  0  0  0  0
  4  5  1  0  0  0  0
  5  6  2  0  0  0  0
  5 12  1  0  0  0  0
  6  7  1  0  0  0  0
  7  8  1  0  0  0  0
  8  9  1  0  0  0  0
  8 10  1  0  0  0  0
  8 11  1  0  0  0  0
 12 13  1  0  0  0  0
 12 14  1  0  0  0  0
 12 18  1  0  0  0  0
 14 15  1  0  0  0  0
 15 16  1  0  0  0  0
 16 17  1  0  0  0  0
 16 19  1  0  0  0  0
 17 18  1  0  0  0  0
 19 20  1  0  0  0  0
 20 21  1  0  0  0  0
 21 22  1  0  0  0  0
 22 23  2  0  0  0  0
 22 24  1  0  0  0  0
 24 25  1  0  0  0  0
 24 30  2  0  0  0  0
 25 26  2  0  0  0  0
 26 27  1  0  0  0  0
 27 28  1  0  0  0  0
 27 29  2  0  0  0  0
 29 30  1  0  0  0  0
M  END
>  <Index>
1386

>  <ID>
HT3830

>  <class>
0

>  <apol>
60.501446

>  <ast_fraglike>
0

>  <ast_fraglike_ext>
0

>  <ast_violation>
2

>  <ast_violation_ext>
3

>  <a_acc>
3

>  <a_acid>
0

>  <a_aro>
12

>  <a_base>
0

>  <a_count>
52

>  <a_don>
1

>  <a_donacc>
4

>  <a_heavy>
30

>  <a_hyd>
26

>  <a_IC>
90.20787

>  <a_ICM>
1.7347668

>  <a_nB>
0

>  <a_nBr>
0

>  <a_nC>
22

>  <a_nCl>
1

>  <a_nF>
4

>  <a_nH>
22

>  <a_nI>
0

>  <a_nN>
1

>  <a_nO>
2

>  <a_nP>
0

>  <a_nS>
0

>  <balabanJ>
1.3968611

>  <BCUT_PEOE_0>
-2.7920473

>  <BCUT_PEOE_1>
-0.61022365

>  <BCUT_PEOE_2>
0.64058328

>  <BCUT_PEOE_3>
2.7412734

>  <BCUT_SLOGP_0>
-2.8023465

>  <BCUT_SLOGP_1>
-0.40308699

>  <BCUT_SLOGP_2>
0.80591482

>  <BCUT_SLOGP_3>
2.7892501

>  <BCUT_SMR_0>
-2.5299082

>  <BCUT_SMR_1>
-0.38157737

>  <BCUT_SMR_2>
0.85431087

>  <BCUT_SMR_3>
2.9948251

>  <bpol>
32.220554

>  <b_1rotN>
6

>  <b_1rotR>
0.1875

>  <b_ar>
12

>  <b_count>
54

>  <b_double>
1

>  <b_heavy>
32

>  <b_max1len>
4

>  <b_rotN>
7

>  <b_rotR>
0.21875

>  <b_single>
41

>  <b_triple>
0

>  <chi0>
21.940947

>  <chi0v>
16.939627

>  <chi0v_C>
12.991199

>  <chi0_C>
14.363597

>  <chi1>
14.082154

>  <chi1v>
10.069351

>  <chi1v_C>
7.3700614

>  <chi1_C>
9.1253586

>  <chiral>
0

>  <chiral_u>
0

>  <density>
0.83690512

>  <diameter>
17

>  <FCharge>
0

>  <GCUT_PEOE_0>
-0.8573662

>  <GCUT_PEOE_1>
-0.3859807

>  <GCUT_PEOE_2>
0.053700414

>  <GCUT_PEOE_3>
2.8180127

>  <GCUT_SLOGP_0>
-0.95250851

>  <GCUT_SLOGP_1>
-0.26386139

>  <GCUT_SLOGP_2>
0.26019999

>  <GCUT_SLOGP_3>
2.8905022

>  <GCUT_SMR_0>
-0.52277571

>  <GCUT_SMR_1>
-0.1798315

>  <GCUT_SMR_2>
0.19305076

>  <GCUT_SMR_3>
3.0580037

>  <Kier1>
24.638672

>  <Kier2>
10.29244

>  <Kier3>
6.5152354

>  <KierA1>
20.733191

>  <KierA2>
8.6067638

>  <KierA3>
5.4240017

>  <KierFlex>
5.9481893

>  <lip_acc>
3

>  <lip_don>
1

>  <lip_druglike>
1

>  <lip_violation>
1

>  <logP(o/w)>
5.56776

>  <logS>
-5.8749299

>  <mr>
10.920928

>  <mutagenic>
0

>  <nmol>
1

>  <opr_brigid>
18

>  <opr_leadlike>
1

>  <opr_nring>
3

>  <opr_nrot>
8

>  <opr_violation>
1

>  <PC+>
0

>  <PC->
0

>  <PEOE_PC+>
2.1157427

>  <PEOE_PC->
-2.1157427

>  <PEOE_RPC+>
0.19793119

>  <PEOE_RPC->
0.1814348

>  <PEOE_VSA+0>
97.009903

>  <PEOE_VSA+1>
36.585987

>  <PEOE_VSA+2>
9.0208454

>  <PEOE_VSA+3>
8.458519

>  <PEOE_VSA+4>
10.324173

>  <PEOE_VSA+5>
0

>  <PEOE_VSA+6>
9.0455017

>  <PEOE_VSA-0>
115.03423

>  <PEOE_VSA-1>
41.836849

>  <PEOE_VSA-2>
0

>  <PEOE_VSA-3>
35.725906

>  <PEOE_VSA-4>
11.908636

>  <PEOE_VSA-5>
13.566921

>  <PEOE_VSA-6>
7.7675405

>  <PEOE_VSA_FHYD>
0.867235

>  <PEOE_VSA_FNEG>
0.56989306

>  <PEOE_VSA_FPNEG>
0.083886839

>  <PEOE_VSA_FPOL>
0.13276498

>  <PEOE_VSA_FPOS>
0.43010694

>  <PEOE_VSA_FPPOS>
0.048878141

>  <PEOE_VSA_HYD>
343.67224

>  <PEOE_VSA_NEG>
225.84009

>  <PEOE_VSA_PNEG>
33.243095

>  <PEOE_VSA_POL>
52.61277

>  <PEOE_VSA_POS>
170.44493

>  <PEOE_VSA_PPOS>
19.369675

>  <petitjean>
0.47058824

>  <petitjeanSC>
0.8888889

>  <Q_PC+>
0

>  <Q_PC->
0

>  <Q_RPC+>
0

>  <Q_RPC->
0

>  <Q_VSA_FHYD>
1

>  <Q_VSA_FNEG>
0

>  <Q_VSA_FPNEG>
0

>  <Q_VSA_FPOL>
0

>  <Q_VSA_FPOS>
1

>  <Q_VSA_FPPOS>
0

>  <Q_VSA_HYD>
396.285

>  <Q_VSA_NEG>
0

>  <Q_VSA_PNEG>
0

>  <Q_VSA_POL>
0

>  <Q_VSA_POS>
396.285

>  <Q_VSA_PPOS>
0

>  <radius>
9

>  <reactive>
1

>  <rings>
3

>  <RPC+>
0

>  <RPC->
0

>  <rsynth>
0.26666668

>  <SlogP>
6.0674

>  <SlogP_VSA0>
25.385227

>  <SlogP_VSA1>
8.8119249

>  <SlogP_VSA2>
9.1210184

>  <SlogP_VSA3>
55.318733

>  <SlogP_VSA4>
33.418941

>  <SlogP_VSA5>
0

>  <SlogP_VSA6>
11.260122

>  <SlogP_VSA7>
123.50229

>  <SlogP_VSA8>
75.473625

>  <SlogP_VSA9>
98.989098

>  <SMR>
10.62233

>  <SMR_VSA0>
23.862217

>  <SMR_VSA1>
88.349991

>  <SMR_VSA2>
16.880533

>  <SMR_VSA3>
13.057331

>  <SMR_VSA4>
0

>  <SMR_VSA5>
198.97591

>  <SMR_VSA6>
61.006344

>  <SMR_VSA7>
39.148643

>  <TPSA>
40.540001

>  <VAdjEq>
0.37005648

>  <VAdjMa>
6

>  <VDistEq>
3.8972099

>  <VDistMa>
9.4700966

>  <vdw_area>
396.285

>  <vdw_vol>
530.36835

>  <vsa_acc>
13.566921

>  <vsa_acid>
0

>  <vsa_base>
0

>  <vsa_don>
0

>  <vsa_hyd>
341.22015

>  <vsa_other>
8.458519

>  <vsa_pol>
27.133842

>  <Weight>
443.86798

>  <weinerPath>
2934

>  <weinerPol>
48

>  <zagreb>
158

$$$$