OC(C(=O)c1ccccc1)c1ccccc1
  MOE2013           2D

 16 17  0  0  1  0  0  0  0  0999 V2000
    0.0000    0.0000    0.0000 O   0  0  0  0  0  0  0  0  0  0  0  0
   -0.7470   -1.3010    0.0000 C   0  0  3  0  0  0  0  0  0  0  0  0
    0.0060   -2.5980    0.0000 C   0  0  0  0  0  0  0  0  0  0  0  0
   -0.7410   -3.8990    0.0000 O   0  0  0  0  0  0  0  0  0  0  0  0
    1.5060   -2.5950    0.0000 C   0  0  0  0  0  0  0  0  0  0  0  0
    2.2530   -1.2940    0.0000 C   0  0  0  0  0  0  0  0  0  0  0  0
    3.7530   -1.2900    0.0000 C   0  0  0  0  0  0  0  0  0  0  0  0
    4.5060   -2.5880    0.0000 C   0  0  0  0  0  0  0  0  0  0  0  0
    3.7590   -3.8880    0.0000 C   0  0  0  0  0  0  0  0  0  0  0  0
    2.2590   -3.8920    0.0000 C   0  0  0  0  0  0  0  0  0  0  0  0
   -2.2470   -1.3040    0.0000 C   0  0  0  0  0  0  0  0  0  0  0  0
   -3.0000   -0.0070    0.0000 C   0  0  0  0  0  0  0  0  0  0  0  0
   -4.5000   -0.0100    0.0000 C   0  0  0  0  0  0  0  0  0  0  0  0
   -5.2470   -1.3110    0.0000 C   0  0  0  0  0  0  0  0  0  0  0  0
   -4.4940   -2.6080    0.0000 C   0  0  0  0  0  0  0  0  0  0  0  0
   -2.9940   -2.6050    0.0000 C   0  0  0  0  0  0  0  0  0  0  0  0
  1  2  1  0  0  0  0
  2  3  1  0  0  0  0
  2 11  1  0  0  0  0
  3  4  2  0  0  0  0
  3  5  1  0  0  0  0
  5  6  1  0  0  0  0
  5 10  2  0  0  0  0
  6  7  2  0  0  0  0
  7  8  1  0  0  0  0
  8  9  2  0  0  0  0
  9 10  1  0  0  0  0
 11 12  1  0  0  0  0
 11 16  2  0  0  0  0
 12 13  2  0  0  0  0
 13 14  1  0  0  0  0
 14 15  2  0  0  0  0
 15 16  1  0  0  0  0
M  END
>  <Index>
1267

>  <ID>
HT2913

>  <class>
0

>  <apol>
34.245518

>  <ast_fraglike>
1

>  <ast_fraglike_ext>
1

>  <ast_violation>
0

>  <ast_violation_ext>
0

>  <a_acc>
2

>  <a_acid>
0

>  <a_aro>
12

>  <a_base>
0

>  <a_count>
28

>  <a_don>
1

>  <a_donacc>
3

>  <a_heavy>
16

>  <a_hyd>
13

>  <a_IC>
36.283421

>  <a_ICM>
1.2958364

>  <a_nB>
0

>  <a_nBr>
0

>  <a_nC>
14

>  <a_nCl>
0

>  <a_nF>
0

>  <a_nH>
12

>  <a_nI>
0

>  <a_nN>
0

>  <a_nO>
2

>  <a_nP>
0

>  <a_nS>
0

>  <balabanJ>
1.8508394

>  <BCUT_PEOE_0>
-2.3384678

>  <BCUT_PEOE_1>
-0.647946

>  <BCUT_PEOE_2>
0.69775057

>  <BCUT_PEOE_3>
2.3955355

>  <BCUT_SLOGP_0>
-2.3085654

>  <BCUT_SLOGP_1>
-0.53807992

>  <BCUT_SLOGP_2>
0.80591482

>  <BCUT_SLOGP_3>
2.4450748

>  <BCUT_SMR_0>
-2.0666766

>  <BCUT_SMR_1>
-0.49986199

>  <BCUT_SMR_2>
0.85431087

>  <BCUT_SMR_3>
2.6622219

>  <bpol>
14.076484

>  <b_1rotN>
3

>  <b_1rotR>
0.17647059

>  <b_ar>
12

>  <b_count>
29

>  <b_double>
1

>  <b_heavy>
17

>  <b_max1len>
3

>  <b_rotN>
3

>  <b_rotR>
0.17647059

>  <b_single>
16

>  <b_triple>
0

>  <chi0>
11.380469

>  <chi0v>
8.706315

>  <chi0v_C>
7.850853

>  <chi0_C>
9.3804693

>  <chi1>
7.7876935

>  <chi1v>
5.1110406

>  <chi1v_C>
4.6487174

>  <chi1_C>
6.6329932

>  <chiral>
1

>  <chiral_u>
1

>  <density>
0.7018708

>  <diameter>
9

>  <FCharge>
0

>  <GCUT_PEOE_0>
-0.76373047

>  <GCUT_PEOE_1>
-0.38932344

>  <GCUT_PEOE_2>
0.079958297

>  <GCUT_PEOE_3>
2.3171222

>  <GCUT_SLOGP_0>
-0.78946966

>  <GCUT_SLOGP_1>
-0.26386139

>  <GCUT_SLOGP_2>
0.16445385

>  <GCUT_SLOGP_3>
2.4200683

>  <GCUT_SMR_0>
-0.48173848

>  <GCUT_SMR_1>
-0.21605732

>  <GCUT_SMR_2>
0.19305076

>  <GCUT_SMR_3>
2.6031394

>  <Kier1>
12.456747

>  <Kier2>
6.0743804

>  <Kier3>
3.25

>  <KierA1>
8.4477739

>  <KierA2>
4.0011735

>  <KierA3>
2.0941439

>  <KierFlex>
2.1125631

>  <lip_acc>
2

>  <lip_don>
1

>  <lip_druglike>
1

>  <lip_violation>
0

>  <logP(o/w)>
2.848

>  <logS>
-3.2551501

>  <mr>
6.4121938

>  <mutagenic>
0

>  <nmol>
1

>  <opr_brigid>
12

>  <opr_leadlike>
1

>  <opr_nring>
2

>  <opr_nrot>
3

>  <opr_violation>
0

>  <PC+>
0

>  <PC->
0

>  <PEOE_PC+>
1.2619874

>  <PEOE_PC->
-1.2619874

>  <PEOE_RPC+>
0.16705911

>  <PEOE_RPC->
0.30051982

>  <PEOE_VSA+0>
2.2085397

>  <PEOE_VSA+1>
46.919247

>  <PEOE_VSA+2>
4.9049287

>  <PEOE_VSA+3>
8.458519

>  <PEOE_VSA+4>
10.324173

>  <PEOE_VSA+5>
0

>  <PEOE_VSA+6>
0

>  <PEOE_VSA-0>
2.2085397

>  <PEOE_VSA-1>
122.54904

>  <PEOE_VSA-2>
0

>  <PEOE_VSA-3>
0

>  <PEOE_VSA-4>
0

>  <PEOE_VSA-5>
13.566921

>  <PEOE_VSA-6>
7.7675405

>  <PEOE_VSA_FHYD>
0.85537893

>  <PEOE_VSA_FNEG>
0.66736901

>  <PEOE_VSA_FPNEG>
0.097458817

>  <PEOE_VSA_FPOL>
0.14462109

>  <PEOE_VSA_FPOS>
0.33263102

>  <PEOE_VSA_FPPOS>
0.047162272

>  <PEOE_VSA_HYD>
187.24881

>  <PEOE_VSA_NEG>
146.09204

>  <PEOE_VSA_PNEG>
21.334461

>  <PEOE_VSA_POL>
31.658634

>  <PEOE_VSA_POS>
72.815407

>  <PEOE_VSA_PPOS>
10.324173

>  <petitjean>
0.44444445

>  <petitjeanSC>
0.80000001

>  <Q_PC+>
0

>  <Q_PC->
0

>  <Q_RPC+>
0

>  <Q_RPC->
0

>  <Q_VSA_FHYD>
1

>  <Q_VSA_FNEG>
0

>  <Q_VSA_FPNEG>
0

>  <Q_VSA_FPOL>
0

>  <Q_VSA_FPOS>
1

>  <Q_VSA_FPPOS>
0

>  <Q_VSA_HYD>
218.90744

>  <Q_VSA_NEG>
0

>  <Q_VSA_PNEG>
0

>  <Q_VSA_POL>
0

>  <Q_VSA_POS>
218.90744

>  <Q_VSA_PPOS>
0

>  <radius>
5

>  <reactive>
1

>  <rings>
2

>  <RPC+>
0

>  <RPC->
0

>  <rsynth>
1

>  <SlogP>
2.6984

>  <SlogP_VSA0>
25.385227

>  <SlogP_VSA1>
5.6876111

>  <SlogP_VSA2>
0

>  <SlogP_VSA3>
0

>  <SlogP_VSA4>
30.233366

>  <SlogP_VSA5>
0

>  <SlogP_VSA6>
0

>  <SlogP_VSA7>
176.43184

>  <SlogP_VSA8>
6.4686494

>  <SlogP_VSA9>
0

>  <SMR>
6.2285299

>  <SMR_VSA0>
23.862217

>  <SMR_VSA1>
25.385227

>  <SMR_VSA2>
0

>  <SMR_VSA3>
12.839799

>  <SMR_VSA4>
0

>  <SMR_VSA5>
176.43184

>  <SMR_VSA6>
5.6876111

>  <SMR_VSA7>
0

>  <TPSA>
37.299999

>  <VAdjEq>
0.56510133

>  <VAdjMa>
5.0874629

>  <VDistEq>
2.9087234

>  <VDistMa>
7.6952562

>  <vdw_area>
218.90744

>  <vdw_vol>
302.40323

>  <vsa_acc>
13.566921

>  <vsa_acid>
0

>  <vsa_base>
0

>  <vsa_don>
0

>  <vsa_hyd>
170.96054

>  <vsa_other>
8.458519

>  <vsa_pol>
27.133842

>  <Weight>
212.248

>  <weinerPath>
448

>  <weinerPol>
22

>  <zagreb>
78

$$$$