S1C2N(C(C(O)=O)C1(C)C)C(=O)C2NC(=O)C(Oc1ccccc1)C
  MOE2013           2D

 25 27  0  0  1  0  0  0  0  0999 V2000
    0.0000    0.0000    0.0000 S   0  0  0  0  0  0  0  0  0  0  0  0
    1.1310   -0.9860    0.0000 C   0  0  3  0  0  0  0  0  0  0  0  0
    0.5430   -2.3660    0.0000 N   0  0  0  0  0  0  0  0  0  0  0  0
   -0.9510   -2.2330    0.0000 C   0  0  3  0  0  0  0  0  0  0  0  0
   -1.9370   -3.3640    0.0000 C   0  0  0  0  0  0  0  0  0  0  0  0
   -3.4090   -3.0760    0.0000 O   0  0  0  0  0  0  0  0  0  0  0  0
   -1.4500   -4.7830    0.0000 O   0  0  0  0  0  0  0  0  0  0  0  0
   -1.2870   -0.7710    0.0000 C   0  0  0  0  0  0  0  0  0  0  0  0
   -2.1560    0.4510    0.0000 C   0  0  0  0  0  0  0  0  0  0  0  0
   -2.7710   -0.9910    0.0000 C   0  0  0  0  0  0  0  0  0  0  0  0
    1.9230   -2.9530    0.0000 C   0  0  0  0  0  0  0  0  0  0  0  0
    2.4830   -4.3450    0.0000 O   0  0  0  0  0  0  0  0  0  0  0  0
    2.5110   -1.5730    0.0000 C   0  0  3  0  0  0  0  0  0  0  0  0
    3.9020   -1.0130    0.0000 N   0  0  0  0  0  0  0  0  0  0  0  0
    5.0830   -1.9380    0.0000 C   0  0  0  0  0  0  0  0  0  0  0  0
    4.8730   -3.4230    0.0000 O   0  0  0  0  0  0  0  0  0  0  0  0
    6.4750   -1.3780    0.0000 C   0  0  3  0  0  0  0  0  0  0  0  0
    7.6560   -2.3030    0.0000 O   0  0  0  0  0  0  0  0  0  0  0  0
    9.0470   -1.7430    0.0000 C   0  0  0  0  0  0  0  0  0  0  0  0
   10.2280   -2.6680    0.0000 C   0  0  0  0  0  0  0  0  0  0  0  0
   11.6190   -2.1080    0.0000 C   0  0  0  0  0  0  0  0  0  0  0  0
   11.8300   -0.6220    0.0000 C   0  0  0  0  0  0  0  0  0  0  0  0
   10.6490    0.3030    0.0000 C   0  0  0  0  0  0  0  0  0  0  0  0
    9.2580   -0.2580    0.0000 C   0  0  0  0  0  0  0  0  0  0  0  0
    6.6850    0.1070    0.0000 C   0  0  0  0  0  0  0  0  0  0  0  0
  1  2  1  0  0  0  0
  1  8  1  0  0  0  0
  2  3  1  0  0  0  0
  2 13  1  0  0  0  0
  3  4  1  0  0  0  0
  3 11  1  0  0  0  0
  4  5  1  0  0  0  0
  4  8  1  0  0  0  0
  5  6  1  0  0  0  0
  5  7  2  0  0  0  0
  8  9  1  0  0  0  0
  8 10  1  0  0  0  0
 11 12  2  0  0  0  0
 11 13  1  0  0  0  0
 13 14  1  0  0  0  0
 14 15  1  0  0  0  0
 15 16  2  0  0  0  0
 15 17  1  0  0  0  0
 17 18  1  0  0  0  0
 17 25  1  0  0  0  0
 18 19  1  0  0  0  0
 19 20  1  0  0  0  0
 19 24  2  0  0  0  0
 20 21  2  0  0  0  0
 21 22  1  0  0  0  0
 22 23  2  0  0  0  0
 23 24  1  0  0  0  0
M  END
>  <Index>
1360

>  <ID>
HT3659

>  <class>
0

>  <apol>
52.36586

>  <ast_fraglike>
0

>  <ast_fraglike_ext>
0

>  <ast_violation>
2

>  <ast_violation_ext>
4

>  <a_acc>
5

>  <a_acid>
0

>  <a_aro>
6

>  <a_base>
0

>  <a_count>
45

>  <a_don>
3

>  <a_donacc>
8

>  <a_heavy>
25

>  <a_hyd>
15

>  <a_IC>
77.59832

>  <a_ICM>
1.7244071

>  <a_nB>
0

>  <a_nBr>
0

>  <a_nC>
17

>  <a_nCl>
0

>  <a_nF>
0

>  <a_nH>
20

>  <a_nI>
0

>  <a_nN>
2

>  <a_nO>
5

>  <a_nP>
0

>  <a_nS>
1

>  <balabanJ>
1.5508246

>  <BCUT_PEOE_0>
-2.6474495

>  <BCUT_PEOE_1>
-0.54667783

>  <BCUT_PEOE_2>
0.55136395

>  <BCUT_PEOE_3>
2.8506894

>  <BCUT_SLOGP_0>
-2.9057541

>  <BCUT_SLOGP_1>
-0.52255177

>  <BCUT_SLOGP_2>
0.56809527

>  <BCUT_SLOGP_3>
2.754391

>  <BCUT_SMR_0>
-2.3935597

>  <BCUT_SMR_1>
-0.3495357

>  <BCUT_SMR_2>
0.75173664

>  <BCUT_SMR_3>
3.1312971

>  <bpol>
31.574141

>  <b_1rotN>
5

>  <b_1rotR>
0.18518518

>  <b_ar>
6

>  <b_count>
47

>  <b_double>
3

>  <b_heavy>
27

>  <b_max1len>
4

>  <b_rotN>
6

>  <b_rotR>
0.22222222

>  <b_single>
38

>  <b_triple>
0

>  <chi0>
18.353006

>  <chi0v>
14.948318

>  <chi0v_C>
10.696153

>  <chi0_C>
11.654336

>  <chi1>
11.720051

>  <chi1v>
8.8500319

>  <chi1v_C>
4.9760675

>  <chi1_C>
6.0158553

>  <chiral>
4

>  <chiral_u>
4

>  <density>
0.81146449

>  <diameter>
13

>  <FCharge>
0

>  <GCUT_PEOE_0>
-0.83752483

>  <GCUT_PEOE_1>
-0.3874324

>  <GCUT_PEOE_2>
0.064387061

>  <GCUT_PEOE_3>
2.7091529

>  <GCUT_SLOGP_0>
-1.16562

>  <GCUT_SLOGP_1>
-0.37381613

>  <GCUT_SLOGP_2>
0.11565491

>  <GCUT_SLOGP_3>
2.6575532

>  <GCUT_SMR_0>
-0.53704756

>  <GCUT_SMR_1>
-0.21454424

>  <GCUT_SMR_2>
0.19248548

>  <GCUT_SMR_3>
2.9690688

>  <Kier1>
19.753086

>  <Kier2>
7.5526471

>  <Kier3>
3.8399999

>  <KierA1>
16.643322

>  <KierA2>
6.3156242

>  <KierA3>
3.1928825

>  <KierFlex>
4.2045188

>  <lip_acc>
7

>  <lip_don>
2

>  <lip_druglike>
1

>  <lip_violation>
0

>  <logP(o/w)>
1.783

>  <logS>
-3.82217

>  <mr>
9.3457937

>  <mutagenic>
0

>  <nmol>
1

>  <opr_brigid>
14

>  <opr_leadlike>
1

>  <opr_nring>
3

>  <opr_nrot>
5

>  <opr_violation>
0

>  <PC+>
0

>  <PC->
0

>  <PEOE_PC+>
2.6125538

>  <PEOE_PC->
-2.6125538

>  <PEOE_RPC+>
0.10862035

>  <PEOE_RPC->
0.13015334

>  <PEOE_VSA+0>
38.388474

>  <PEOE_VSA+1>
46.846992

>  <PEOE_VSA+2>
16.318872

>  <PEOE_VSA+3>
8.6190128

>  <PEOE_VSA+4>
10.324173

>  <PEOE_VSA+5>
40.607563

>  <PEOE_VSA+6>
0

>  <PEOE_VSA-0>
80.752838

>  <PEOE_VSA-1>
36.764713

>  <PEOE_VSA-2>
19.760618

>  <PEOE_VSA-3>
0

>  <PEOE_VSA-4>
0

>  <PEOE_VSA-5>
40.700764

>  <PEOE_VSA-6>
10.408187

>  <PEOE_VSA_FHYD>
0.70803159

>  <PEOE_VSA_FNEG>
0.53903097

>  <PEOE_VSA_FPNEG>
0.14623775

>  <PEOE_VSA_FPOL>
0.29196841

>  <PEOE_VSA_FPOS>
0.46096903

>  <PEOE_VSA_FPPOS>
0.14573067

>  <PEOE_VSA_HYD>
247.45152

>  <PEOE_VSA_NEG>
188.38712

>  <PEOE_VSA_PNEG>
51.108952

>  <PEOE_VSA_POL>
102.04069

>  <PEOE_VSA_POS>
161.10509

>  <PEOE_VSA_PPOS>
50.931732

>  <petitjean>
0.46153846

>  <petitjeanSC>
0.85714287

>  <Q_PC+>
0

>  <Q_PC->
0

>  <Q_RPC+>
0

>  <Q_RPC->
0

>  <Q_VSA_FHYD>
1

>  <Q_VSA_FNEG>
0

>  <Q_VSA_FPNEG>
0

>  <Q_VSA_FPOL>
0

>  <Q_VSA_FPOS>
1

>  <Q_VSA_FPPOS>
0

>  <Q_VSA_HYD>
349.49222

>  <Q_VSA_NEG>
0

>  <Q_VSA_PNEG>
0

>  <Q_VSA_POL>
0

>  <Q_VSA_POS>
349.49222

>  <Q_VSA_PPOS>
0

>  <radius>
7

>  <reactive>
0

>  <rings>
3

>  <RPC+>
0

>  <RPC->
0

>  <rsynth>
1

>  <SlogP>
1.0856

>  <SlogP_VSA0>
29.010639

>  <SlogP_VSA1>
21.387344

>  <SlogP_VSA2>
88.366364

>  <SlogP_VSA3>
25.385227

>  <SlogP_VSA4>
0

>  <SlogP_VSA5>
0

>  <SlogP_VSA6>
0

>  <SlogP_VSA7>
88.215919

>  <SlogP_VSA8>
0

>  <SlogP_VSA9>
137.44101

>  <SMR>
9.2191496

>  <SMR_VSA0>
71.586647

>  <SMR_VSA1>
14.124202

>  <SMR_VSA2>
43.395977

>  <SMR_VSA3>
22.023142

>  <SMR_VSA4>
0

>  <SMR_VSA5>
88.215919

>  <SMR_VSA6>
18.263031

>  <SMR_VSA7>
132.19759

>  <TPSA>
95.940002

>  <VAdjEq>
0.42433795

>  <VAdjMa>
5.7548876

>  <VDistEq>
3.4894521

>  <VDistMa>
8.9771347

>  <vdw_area>
349.49222

>  <vdw_vol>
449.09174

>  <vsa_acc>
29.637598

>  <vsa_acid>
0

>  <vsa_base>
0

>  <vsa_don>
5.6825762

>  <vsa_hyd>
226.02019

>  <vsa_other>
40.607563

>  <vsa_pol>
62.454014

>  <Weight>
364.422

>  <weinerPath>
1587

>  <weinerPol>
39

>  <zagreb>
136

$$$$