OCCC(CCCC(C)=C)C
  MOE2013           2D

 11 10  0  0  1  0  0  0  0  0999 V2000
    0.0000    0.0000    0.0000 O   0  0  0  0  0  0  0  0  0  0  0  0
   -1.3010    0.7470    0.0000 C   0  0  0  0  0  0  0  0  0  0  0  0
   -2.5980   -0.0050    0.0000 C   0  0  0  0  0  0  0  0  0  0  0  0
   -3.8990    0.7420    0.0000 C   0  0  3  0  0  0  0  0  0  0  0  0
   -5.1960   -0.0100    0.0000 C   0  0  0  0  0  0  0  0  0  0  0  0
   -6.4970    0.7370    0.0000 C   0  0  0  0  0  0  0  0  0  0  0  0
   -7.7940   -0.0150    0.0000 C   0  0  0  0  0  0  0  0  0  0  0  0
   -9.0950    0.7320    0.0000 C   0  0  0  0  0  0  0  0  0  0  0  0
  -10.3920   -0.0210    0.0000 C   0  0  0  0  0  0  0  0  0  0  0  0
   -9.0980    2.2320    0.0000 C   0  0  0  0  0  0  0  0  0  0  0  0
   -3.9020    2.2420    0.0000 C   0  0  0  0  0  0  0  0  0  0  0  0
  1  2  1  0  0  0  0
  2  3  1  0  0  0  0
  3  4  1  0  0  0  0
  4  5  1  0  0  0  0
  4 11  1  0  0  0  0
  5  6  1  0  0  0  0
  6  7  1  0  0  0  0
  7  8  1  0  0  0  0
  8  9  1  0  0  0  0
  8 10  2  0  0  0  0
M  END
>  <Index>
1233

>  <ID>
HT2659

>  <class>
0

>  <apol>
31.73786

>  <ast_fraglike>
1

>  <ast_fraglike_ext>
0

>  <ast_violation>
0

>  <ast_violation_ext>
1

>  <a_acc>
1

>  <a_acid>
0

>  <a_aro>
0

>  <a_base>
0

>  <a_count>
31

>  <a_don>
1

>  <a_donacc>
2

>  <a_heavy>
11

>  <a_hyd>
10

>  <a_IC>
33.922241

>  <a_ICM>
1.0942659

>  <a_nB>
0

>  <a_nBr>
0

>  <a_nC>
10

>  <a_nCl>
0

>  <a_nF>
0

>  <a_nH>
20

>  <a_nI>
0

>  <a_nN>
0

>  <a_nO>
1

>  <a_nP>
0

>  <a_nS>
0

>  <balabanJ>
3.1069996

>  <BCUT_PEOE_0>
-2.7149942

>  <BCUT_PEOE_1>
-0.020041917

>  <BCUT_PEOE_2>
0.055704668

>  <BCUT_PEOE_3>
2.6581349

>  <BCUT_SLOGP_0>
-2.6115005

>  <BCUT_SLOGP_1>
0.123

>  <BCUT_SLOGP_2>
0.13840826

>  <BCUT_SLOGP_3>
2.7834189

>  <BCUT_SMR_0>
-2.4653792

>  <BCUT_SMR_1>
0.1057

>  <BCUT_SMR_2>
0.22365922

>  <BCUT_SMR_3>
2.9086244

>  <bpol>
21.86414

>  <b_1rotN>
6

>  <b_1rotR>
0.60000002

>  <b_ar>
0

>  <b_count>
30

>  <b_double>
1

>  <b_heavy>
10

>  <b_max1len>
10

>  <b_rotN>
6

>  <b_rotR>
0.60000002

>  <b_single>
29

>  <b_triple>
0

>  <chi0>
8.6902342

>  <chi0v>
7.7672048

>  <chi0v_C>
7.3199911

>  <chi0_C>
7.6902347

>  <chi1>
5.1639023

>  <chi1v>
4.4171815

>  <chi1v_C>
4.1009536

>  <chi1_C>
4.4567957

>  <chiral>
1

>  <chiral_u>
1

>  <density>
0.5991717

>  <diameter>
8

>  <FCharge>
0

>  <GCUT_PEOE_0>
-0.8028667

>  <GCUT_PEOE_1>
-0.24848075

>  <GCUT_PEOE_2>
-0.10429534

>  <GCUT_PEOE_3>
2.4620271

>  <GCUT_SLOGP_0>
-0.87377894

>  <GCUT_SLOGP_1>
-0.092859268

>  <GCUT_SLOGP_2>
-0.037

>  <GCUT_SLOGP_3>
2.5823941

>  <GCUT_SMR_0>
-0.53426421

>  <GCUT_SMR_1>
-0.054299999

>  <GCUT_SMR_2>
-0.0028261926

>  <GCUT_SMR_3>
2.6843126

>  <Kier1>
11

>  <Kier2>
6.6942148

>  <Kier3>
7.9012346

>  <KierA1>
10.18878

>  <KierA2>
6.1488862

>  <KierA3>
7.2037039

>  <KierFlex>
5.6954226

>  <lip_acc>
1

>  <lip_don>
1

>  <lip_druglike>
1

>  <lip_violation>
0

>  <logP(o/w)>
2.516

>  <logS>
-2.9861

>  <mr>
4.9384408

>  <mutagenic>
0

>  <nmol>
1

>  <opr_brigid>
1

>  <opr_leadlike>
1

>  <opr_nring>
0

>  <opr_nrot>
6

>  <opr_violation>
0

>  <PC+>
0

>  <PC->
0

>  <PEOE_PC+>
0.88120389

>  <PEOE_PC->
-0.88120389

>  <PEOE_RPC+>
0.23762421

>  <PEOE_RPC->
0.44824758

>  <PEOE_VSA+0>
78.932083

>  <PEOE_VSA+1>
17.061544

>  <PEOE_VSA+2>
0

>  <PEOE_VSA+3>
0

>  <PEOE_VSA+4>
10.324173

>  <PEOE_VSA+5>
0

>  <PEOE_VSA+6>
0

>  <PEOE_VSA-0>
44.851616

>  <PEOE_VSA-1>
51.958797

>  <PEOE_VSA-2>
0

>  <PEOE_VSA-3>
0

>  <PEOE_VSA-4>
0

>  <PEOE_VSA-5>
0

>  <PEOE_VSA-6>
7.7675405

>  <PEOE_VSA_FHYD>
0.91421491

>  <PEOE_VSA_FNEG>
0.49587512

>  <PEOE_VSA_FPNEG>
0.036831181

>  <PEOE_VSA_FPOL>
0.085785098

>  <PEOE_VSA_FPOS>
0.50412488

>  <PEOE_VSA_FPPOS>
0.048953913

>  <PEOE_VSA_HYD>
192.80405

>  <PEOE_VSA_NEG>
104.57796

>  <PEOE_VSA_PNEG>
7.7675405

>  <PEOE_VSA_POL>
18.091713

>  <PEOE_VSA_POS>
106.3178

>  <PEOE_VSA_PPOS>
10.324173

>  <petitjean>
0.5

>  <petitjeanSC>
1

>  <Q_PC+>
0

>  <Q_PC->
0

>  <Q_RPC+>
0

>  <Q_RPC->
0

>  <Q_VSA_FHYD>
1

>  <Q_VSA_FNEG>
0

>  <Q_VSA_FPNEG>
0

>  <Q_VSA_FPOL>
0

>  <Q_VSA_FPOS>
1

>  <Q_VSA_FPPOS>
0

>  <Q_VSA_HYD>
210.89575

>  <Q_VSA_NEG>
0

>  <Q_VSA_PNEG>
0

>  <Q_VSA_POL>
0

>  <Q_VSA_POS>
210.89575

>  <Q_VSA_PPOS>
0

>  <radius>
4

>  <reactive>
0

>  <rings>
0

>  <RPC+>
0

>  <RPC->
0

>  <rsynth>
0

>  <SlogP>
2.7513001

>  <SlogP_VSA0>
25.385227

>  <SlogP_VSA1>
0

>  <SlogP_VSA2>
0

>  <SlogP_VSA3>
20.926258

>  <SlogP_VSA4>
4.4107962

>  <SlogP_VSA5>
3.185575

>  <SlogP_VSA6>
0

>  <SlogP_VSA7>
0

>  <SlogP_VSA8>
75.473625

>  <SlogP_VSA9>
98.752823

>  <SMR>
4.9531798

>  <SMR_VSA0>
0

>  <SMR_VSA1>
25.385227

>  <SMR_VSA2>
4.4107962

>  <SMR_VSA3>
3.185575

>  <SMR_VSA4>
0

>  <SMR_VSA5>
75.473625

>  <SMR_VSA6>
20.926258

>  <SMR_VSA7>
98.752823

>  <TPSA>
20.23

>  <VAdjEq>
0.64681429

>  <VAdjMa>
4.321928

>  <VDistEq>
2.8435998

>  <VDistMa>
6.54597

>  <vdw_area>
210.89575

>  <vdw_vol>
260.80838

>  <vsa_acc>
0

>  <vsa_acid>
0

>  <vsa_base>
0

>  <vsa_don>
0

>  <vsa_hyd>
177.93488

>  <vsa_other>
0

>  <vsa_pol>
13.566921

>  <Weight>
156.269

>  <weinerPath>
194

>  <weinerPol>
9

>  <zagreb>
42

$$$$