O(C(=O)CCCCCCCCCCCCCCC)CC=C(C=CC=C(C=CC=1C(CCCC=1C)(C)C)/C)/C
  MOE2013           2D

 38 38  0  0  0  0  0  0  0  0999 V2000
    0.0000    0.0000    0.0000 O   0  0  0  0  0  0  0  0  0  0  0  0
    1.5000   -0.0040    0.0000 C   0  0  0  0  0  0  0  0  0  0  0  0
    2.2460   -1.3050    0.0000 O   0  0  0  0  0  0  0  0  0  0  0  0
    2.2540    1.2930    0.0000 C   0  0  0  0  0  0  0  0  0  0  0  0
    3.7540    1.2890    0.0000 C   0  0  0  0  0  0  0  0  0  0  0  0
    4.5070    2.5860    0.0000 C   0  0  0  0  0  0  0  0  0  0  0  0
    6.0070    2.5820    0.0000 C   0  0  0  0  0  0  0  0  0  0  0  0
    6.7610    3.8790    0.0000 C   0  0  0  0  0  0  0  0  0  0  0  0
    8.2610    3.8750    0.0000 C   0  0  0  0  0  0  0  0  0  0  0  0
    9.0140    5.1720    0.0000 C   0  0  0  0  0  0  0  0  0  0  0  0
   10.5140    5.1680    0.0000 C   0  0  0  0  0  0  0  0  0  0  0  0
   11.2610    3.8670    0.0000 C   0  0  0  0  0  0  0  0  0  0  0  0
   12.7610    3.8620    0.0000 C   0  0  0  0  0  0  0  0  0  0  0  0
   13.5070    2.5610    0.0000 C   0  0  0  0  0  0  0  0  0  0  0  0
   15.0070    2.5570    0.0000 C   0  0  0  0  0  0  0  0  0  0  0  0
   15.7530    1.2560    0.0000 C   0  0  0  0  0  0  0  0  0  0  0  0
   17.2530    1.2520    0.0000 C   0  0  0  0  0  0  0  0  0  0  0  0
   18.0000   -0.0490    0.0000 C   0  0  0  0  0  0  0  0  0  0  0  0
   -0.7460    1.3010    0.0000 C   0  0  0  0  0  0  0  0  0  0  0  0
   -2.2460    1.3050    0.0000 C   0  0  0  0  0  0  0  0  0  0  0  0
   -2.9930    2.6060    0.0000 C   0  0  0  0  0  0  0  0  0  0  0  0
   -4.4930    2.6100    0.0000 C   0  0  0  0  0  0  0  0  0  0  0  0
   -5.2460    1.3130    0.0000 C   0  0  0  0  0  0  0  0  0  0  0  0
   -6.7460    1.3170    0.0000 C   0  0  0  0  0  0  0  0  0  0  0  0
   -7.5000    0.0200    0.0000 C   0  0  0  0  0  0  0  0  0  0  0  0
   -9.0000    0.0240    0.0000 C   0  0  0  0  0  0  0  0  0  0  0  0
   -9.7460    1.3260    0.0000 C   0  0  0  0  0  0  0  0  0  0  0  0
  -11.2460    1.3300    0.0000 C   0  0  0  0  0  0  0  0  0  0  0  0
  -11.9930    2.6310    0.0000 C   0  0  0  0  0  0  0  0  0  0  0  0
  -13.4930    2.6350    0.0000 C   0  0  0  0  0  0  0  0  0  0  0  0
  -14.2460    1.3380    0.0000 C   0  0  0  0  0  0  0  0  0  0  0  0
  -13.5000    0.0370    0.0000 C   0  0  0  0  0  0  0  0  0  0  0  0
  -12.0000    0.0330    0.0000 C   0  0  0  0  0  0  0  0  0  0  0  0
  -11.2530   -1.2680    0.0000 C   0  0  0  0  0  0  0  0  0  0  0  0
  -11.9890    4.1310    0.0000 C   0  0  0  0  0  0  0  0  0  0  0  0
  -10.6920    3.3770    0.0000 C   0  0  0  0  0  0  0  0  0  0  0  0
   -6.7540   -1.2810    0.0000 C   0  0  0  0  0  0  0  0  0  0  0  0
   -2.2390    3.9030    0.0000 C   0  0  0  0  0  0  0  0  0  0  0  0
  1  2  1  0  0  0  0
  1 19  1  0  0  0  0
  2  3  2  0  0  0  0
  2  4  1  0  0  0  0
  4  5  1  0  0  0  0
  5  6  1  0  0  0  0
  6  7  1  0  0  0  0
  7  8  1  0  0  0  0
  8  9  1  0  0  0  0
  9 10  1  0  0  0  0
 10 11  1  0  0  0  0
 11 12  1  0  0  0  0
 12 13  1  0  0  0  0
 13 14  1  0  0  0  0
 14 15  1  0  0  0  0
 15 16  1  0  0  0  0
 16 17  1  0  0  0  0
 17 18  1  0  0  0  0
 19 20  1  0  0  0  0
 20 21  2  3  0  0  0
 21 22  1  0  0  0  0
 21 38  1  0  0  0  0
 22 23  2  3  0  0  0
 23 24  1  0  0  0  0
 24 25  2  3  0  0  0
 25 26  1  0  0  0  0
 25 37  1  0  0  0  0
 26 27  2  3  0  0  0
 27 28  1  0  0  0  0
 28 29  1  0  0  0  0
 28 33  2  0  0  0  0
 29 30  1  0  0  0  0
 29 35  1  0  0  0  0
 29 36  1  0  0  0  0
 30 31  1  0  0  0  0
 31 32  1  0  0  0  0
 32 33  1  0  0  0  0
 33 34  1  0  0  0  0
M  END
>  <Index>
1149

>  <ID>
HT2189

>  <class>
0

>  <apol>
104.97158

>  <ast_fraglike>
0

>  <ast_fraglike_ext>
0

>  <ast_violation>
2

>  <ast_violation_ext>
3

>  <a_acc>
1

>  <a_acid>
0

>  <a_aro>
0

>  <a_base>
0

>  <a_count>
98

>  <a_don>
0

>  <a_donacc>
1

>  <a_heavy>
38

>  <a_hyd>
35

>  <a_IC>
105.71083

>  <a_ICM>
1.0786819

>  <a_nB>
0

>  <a_nBr>
0

>  <a_nC>
36

>  <a_nCl>
0

>  <a_nF>
0

>  <a_nH>
60

>  <a_nI>
0

>  <a_nN>
0

>  <a_nO>
2

>  <a_nP>
0

>  <a_nS>
0

>  <balabanJ>
1.9133973

>  <BCUT_PEOE_0>
-2.7535243

>  <BCUT_PEOE_1>
-0.15532944

>  <BCUT_PEOE_2>
0.05288589

>  <BCUT_PEOE_3>
2.6964064

>  <BCUT_SLOGP_0>
-2.6118655

>  <BCUT_SLOGP_1>
-0.021865098

>  <BCUT_SLOGP_2>
0.13433051

>  <BCUT_SLOGP_3>
2.8454859

>  <BCUT_SMR_0>
-2.488169

>  <BCUT_SMR_1>
0.066801555

>  <BCUT_SMR_2>
0.20673482

>  <BCUT_SMR_3>
2.9671443

>  <bpol>
68.466423

>  <b_1rotN>
20

>  <b_1rotR>
0.52631581

>  <b_ar>
0

>  <b_count>
98

>  <b_double>
6

>  <b_heavy>
38

>  <b_max1len>
16

>  <b_rotN>
21

>  <b_rotR>
0.55263156

>  <b_single>
92

>  <b_triple>
0

>  <chi0>
28.064421

>  <chi0v>
26.00852

>  <chi0v_C>
25.192024

>  <chi0_C>
26.357313

>  <chi1>
18.258057

>  <chi1v>
15.816315

>  <chi1v_C>
15.11939

>  <chi1_C>
16.772457

>  <chiral>
0

>  <chiral_u>
0

>  <density>
0.60905653

>  <diameter>
29

>  <FCharge>
0

>  <GCUT_PEOE_0>
-0.80439603

>  <GCUT_PEOE_1>
-0.33105344

>  <GCUT_PEOE_2>
-0.10711411

>  <GCUT_PEOE_3>
2.8231051

>  <GCUT_SLOGP_0>
-0.84509176

>  <GCUT_SLOGP_1>
-0.21883735

>  <GCUT_SLOGP_2>
-0.037

>  <GCUT_SLOGP_3>
2.9632542

>  <GCUT_SMR_0>
-0.53493869

>  <GCUT_SMR_1>
-0.10750244

>  <GCUT_SMR_2>
-0.01607208

>  <GCUT_SMR_3>
3.0676072

>  <Kier1>
36.026318

>  <Kier2>
22.661625

>  <Kier3>
18.892128

>  <KierA1>
31.589352

>  <KierA2>
19.797232

>  <KierA3>
16.461567

>  <KierFlex>
16.457415

>  <lip_acc>
2

>  <lip_don>
0

>  <lip_druglike>
0

>  <lip_violation>
2

>  <logP(o/w)>
11.24

>  <logS>
-14.91675

>  <mr>
16.658976

>  <mutagenic>
0

>  <nmol>
1

>  <opr_brigid>
10

>  <opr_leadlike>
0

>  <opr_nring>
1

>  <opr_nrot>
21

>  <opr_violation>
3

>  <PC+>
0

>  <PC->
0

>  <PEOE_PC+>
2.2576275

>  <PEOE_PC->
-2.2576275

>  <PEOE_RPC+>
0.11624891

>  <PEOE_RPC->
0.13778153

>  <PEOE_VSA+0>
230.50139

>  <PEOE_VSA+1>
49.074383

>  <PEOE_VSA+2>
0

>  <PEOE_VSA+3>
0

>  <PEOE_VSA+4>
0

>  <PEOE_VSA+5>
14.708499

>  <PEOE_VSA+6>
0

>  <PEOE_VSA-0>
93.256828

>  <PEOE_VSA-1>
240.81383

>  <PEOE_VSA-2>
0

>  <PEOE_VSA-3>
0

>  <PEOE_VSA-4>
0

>  <PEOE_VSA-5>
13.566921

>  <PEOE_VSA-6>
2.503756

>  <PEOE_VSA_FHYD>
0.95223778

>  <PEOE_VSA_FNEG>
0.54333866

>  <PEOE_VSA_FPNEG>
0.024937987

>  <PEOE_VSA_FPOL>
0.047762185

>  <PEOE_VSA_FPOS>
0.45666134

>  <PEOE_VSA_FPPOS>
0.0228242

>  <PEOE_VSA_HYD>
613.64642

>  <PEOE_VSA_NEG>
350.14133

>  <PEOE_VSA_PNEG>
16.070677

>  <PEOE_VSA_POL>
30.779177

>  <PEOE_VSA_POS>
294.28427

>  <PEOE_VSA_PPOS>
14.708499

>  <petitjean>
0.48275861

>  <petitjeanSC>
0.93333334

>  <Q_PC+>
0

>  <Q_PC->
0

>  <Q_RPC+>
0

>  <Q_RPC->
0

>  <Q_VSA_FHYD>
1

>  <Q_VSA_FNEG>
0

>  <Q_VSA_FPNEG>
0

>  <Q_VSA_FPOL>
0

>  <Q_VSA_FPOS>
1

>  <Q_VSA_FPPOS>
0

>  <Q_VSA_HYD>
644.4256

>  <Q_VSA_NEG>
0

>  <Q_VSA_PNEG>
0

>  <Q_VSA_POL>
0

>  <Q_VSA_POS>
644.4256

>  <Q_VSA_PPOS>
0

>  <radius>
15

>  <reactive>
0

>  <rings>
1

>  <RPC+>
0

>  <RPC->
0

>  <rsynth>
1

>  <SlogP>
11.5425

>  <SlogP_VSA0>
0

>  <SlogP_VSA1>
7.7454643

>  <SlogP_VSA2>
34.862103

>  <SlogP_VSA3>
20.926258

>  <SlogP_VSA4>
0

>  <SlogP_VSA5>
12.7423

>  <SlogP_VSA6>
0

>  <SlogP_VSA7>
105.85911

>  <SlogP_VSA8>
320.76288

>  <SlogP_VSA9>
199.95609

>  <SMR>
16.7397

>  <SMR_VSA0>
34.862103

>  <SMR_VSA1>
0

>  <SMR_VSA2>
0

>  <SMR_VSA3>
12.7423

>  <SMR_VSA4>
0

>  <SMR_VSA5>
426.62201

>  <SMR_VSA6>
28.671722

>  <SMR_VSA7>
199.95609

>  <TPSA>
26.299999

>  <VAdjEq>
0.29747224

>  <VAdjMa>
6.2479277

>  <VDistEq>
4.6470928

>  <VDistMa>
10.122498

>  <vdw_area>
644.4256

>  <vdw_vol>
861.7821

>  <vsa_acc>
13.566921

>  <vsa_acid>
0

>  <vsa_base>
0

>  <vsa_don>
0

>  <vsa_hyd>
570.93872

>  <vsa_other>
17.212255

>  <vsa_pol>
13.566921

>  <Weight>
524.87396

>  <weinerPath>
7582

>  <weinerPol>
46

>  <zagreb>
168

$$$$