s1nc(N2CCOCC2)c(OC[C@@H](O)CNC(C)(C)C)n1
  MOE2013           2D

 21 22  0  0  1  0  0  0  0  0999 V2000
    0.0000    0.0000    0.0000 S   0  0  0  0  0  0  0  0  0  0  0  0
   -1.0250   -1.0950    0.0000 N   0  0  0  0  0  0  0  0  0  0  0  0
   -0.3000   -2.4080    0.0000 C   0  0  0  0  0  0  0  0  0  0  0  0
   -0.9370   -3.7670    0.0000 N   0  0  0  0  0  0  0  0  0  0  0  0
   -0.0790   -4.9970    0.0000 C   0  0  0  0  0  0  0  0  0  0  0  0
   -0.7150   -6.3550    0.0000 C   0  0  0  0  0  0  0  0  0  0  0  0
   -2.2100   -6.4830    0.0000 O   0  0  0  0  0  0  0  0  0  0  0  0
   -3.0680   -5.2530    0.0000 C   0  0  0  0  0  0  0  0  0  0  0  0
   -2.4310   -3.8950    0.0000 C   0  0  0  0  0  0  0  0  0  0  0  0
    1.1730   -2.1250    0.0000 C   0  0  0  0  0  0  0  0  0  0  0  0
    2.2680   -3.1500    0.0000 O   0  0  0  0  0  0  0  0  0  0  0  0
    3.7030   -2.7140    0.0000 C   0  0  0  0  0  0  0  0  0  0  0  0
    4.7980   -3.7390    0.0000 C   0  0  1  0  0  0  0  0  0  0  0  0
    4.4580   -5.2000    0.0000 O   0  0  0  0  0  0  0  0  0  0  0  0
    6.2330   -3.3030    0.0000 C   0  0  0  0  0  0  0  0  0  0  0  0
    7.3290   -4.3280    0.0000 N   0  0  0  0  0  0  0  0  0  0  0  0
    8.7640   -3.8920    0.0000 C   0  0  0  0  0  0  0  0  0  0  0  0
    8.3280   -2.4570    0.0000 C   0  0  0  0  0  0  0  0  0  0  0  0
    9.2000   -5.3280    0.0000 C   0  0  0  0  0  0  0  0  0  0  0  0
   10.1990   -3.4560    0.0000 C   0  0  0  0  0  0  0  0  0  0  0  0
    1.3580   -0.6360    0.0000 N   0  0  0  0  0  0  0  0  0  0  0  0
  1  2  1  0  0  0  0
  1 21  1  0  0  0  0
  2  3  2  0  0  0  0
  3  4  1  0  0  0  0
  3 10  1  0  0  0  0
  4  5  1  0  0  0  0
  4  9  1  0  0  0  0
  5  6  1  0  0  0  0
  6  7  1  0  0  0  0
  7  8  1  0  0  0  0
  8  9  1  0  0  0  0
 10 11  1  0  0  0  0
 10 21  2  0  0  0  0
 11 12  1  0  0  0  0
 12 13  1  0  0  0  0
 13 14  1  6  0  0  0
 13 15  1  0  0  0  0
 15 16  1  0  0  0  0
 16 17  1  0  0  0  0
 17 18  1  0  0  0  0
 17 19  1  0  0  0  0
 17 20  1  0  0  0  0
M  END
>  <Index>
1077

>  <ID>
HT2064

>  <class>
0

>  <apol>
48.589031

>  <ast_fraglike>
0

>  <ast_fraglike_ext>
0

>  <ast_violation>
2

>  <ast_violation_ext>
3

>  <a_acc>
5

>  <a_acid>
0

>  <a_aro>
5

>  <a_base>
0

>  <a_count>
45

>  <a_don>
2

>  <a_donacc>
7

>  <a_heavy>
21

>  <a_hyd>
11

>  <a_IC>
76.233688

>  <a_ICM>
1.6940819

>  <a_nB>
0

>  <a_nBr>
0

>  <a_nC>
13

>  <a_nCl>
0

>  <a_nF>
0

>  <a_nH>
24

>  <a_nI>
0

>  <a_nN>
4

>  <a_nO>
3

>  <a_nP>
0

>  <a_nS>
1

>  <balabanJ>
1.7105161

>  <BCUT_PEOE_0>
-2.7107778

>  <BCUT_PEOE_1>
-0.26359612

>  <BCUT_PEOE_2>
0.23796226

>  <BCUT_PEOE_3>
2.6446879

>  <BCUT_SLOGP_0>
-2.8414428

>  <BCUT_SLOGP_1>
-0.3014774

>  <BCUT_SLOGP_2>
0.24107261

>  <BCUT_SLOGP_3>
2.6186416

>  <BCUT_SMR_0>
-2.444936

>  <BCUT_SMR_1>
0.021603948

>  <BCUT_SMR_2>
0.34716332

>  <BCUT_SMR_3>
2.9012415

>  <bpol>
37.628967

>  <b_1rotN>
6

>  <b_1rotR>
0.27272728

>  <b_ar>
5

>  <b_count>
46

>  <b_double>
0

>  <b_heavy>
22

>  <b_max1len>
7

>  <b_rotN>
7

>  <b_rotR>
0.31818181

>  <b_single>
41

>  <b_triple>
0

>  <chi0>
15.294683

>  <chi0v>
13.650086

>  <chi0v_C>
9.3199911

>  <chi0_C>
9.4746914

>  <chi1>
9.955308

>  <chi1v>
7.8971195

>  <chi1v_C>
3.5664966

>  <chi1_C>
3.6498299

>  <chiral>
1

>  <chiral_u>
0

>  <density>
0.77531081

>  <diameter>
12

>  <FCharge>
0

>  <GCUT_PEOE_0>
-0.84473503

>  <GCUT_PEOE_1>
-0.34139511

>  <GCUT_PEOE_2>
-0.0604624

>  <GCUT_PEOE_3>
2.5900378

>  <GCUT_SLOGP_0>
-1.1534369

>  <GCUT_SLOGP_1>
-0.41188452

>  <GCUT_SLOGP_2>
-0.0275074

>  <GCUT_SLOGP_3>
2.5715251

>  <GCUT_SMR_0>
-0.52413881

>  <GCUT_SMR_1>
-0.11092608

>  <GCUT_SMR_2>
0.017174086

>  <GCUT_SMR_3>
2.826369

>  <Kier1>
17.355371

>  <Kier2>
8.0222225

>  <Kier3>
5.9504132

>  <KierA1>
16.672783

>  <KierA2>
7.6905985

>  <KierA3>
5.6953011

>  <KierFlex>
6.1058893

>  <lip_acc>
7

>  <lip_don>
2

>  <lip_druglike>
1

>  <lip_violation>
0

>  <logP(o/w)>
1.034

>  <logS>
-1.51697

>  <mr>
8.2743025

>  <mutagenic>
0

>  <nmol>
1

>  <opr_brigid>
11

>  <opr_leadlike>
1

>  <opr_nring>
2

>  <opr_nrot>
9

>  <opr_violation>
0

>  <PC+>
0

>  <PC->
0

>  <PEOE_PC+>
2.3095474

>  <PEOE_PC->
-2.3095474

>  <PEOE_RPC+>
0.14515476

>  <PEOE_RPC->
0.16810079

>  <PEOE_VSA+0>
103.55776

>  <PEOE_VSA+1>
79.616508

>  <PEOE_VSA+2>
8.6190128

>  <PEOE_VSA+3>
24.140093

>  <PEOE_VSA+4>
10.324173

>  <PEOE_VSA+5>
0

>  <PEOE_VSA+6>
26.946236

>  <PEOE_VSA-0>
56.243034

>  <PEOE_VSA-1>
0

>  <PEOE_VSA-2>
0

>  <PEOE_VSA-3>
0

>  <PEOE_VSA-4>
0

>  <PEOE_VSA-5>
16.150414

>  <PEOE_VSA-6>
12.911943

>  <PEOE_VSA_FHYD>
0.80404443

>  <PEOE_VSA_FNEG>
0.25200319

>  <PEOE_VSA_FPNEG>
0.085853972

>  <PEOE_VSA_FPOL>
0.19595559

>  <PEOE_VSA_FPOS>
0.74799681

>  <PEOE_VSA_FPPOS>
0.11010162

>  <PEOE_VSA_HYD>
272.17642

>  <PEOE_VSA_NEG>
85.305389

>  <PEOE_VSA_PNEG>
29.062357

>  <PEOE_VSA_POL>
66.332764

>  <PEOE_VSA_POS>
253.2038

>  <PEOE_VSA_PPOS>
37.270409

>  <petitjean>
0.5

>  <petitjeanSC>
1

>  <Q_PC+>
0

>  <Q_PC->
0

>  <Q_RPC+>
0

>  <Q_RPC->
0

>  <Q_VSA_FHYD>
1

>  <Q_VSA_FNEG>
0

>  <Q_VSA_FPNEG>
0

>  <Q_VSA_FPOL>
0

>  <Q_VSA_FPOS>
1

>  <Q_VSA_FPPOS>
0

>  <Q_VSA_HYD>
338.50919

>  <Q_VSA_NEG>
0

>  <Q_VSA_PNEG>
0

>  <Q_VSA_POL>
0

>  <Q_VSA_POS>
338.50919

>  <Q_VSA_PPOS>
0

>  <radius>
6

>  <reactive>
0

>  <rings>
2

>  <RPC+>
0

>  <RPC->
0

>  <rsynth>
1

>  <SlogP>
0.5025

>  <SlogP_VSA0>
57.52018

>  <SlogP_VSA1>
29.952044

>  <SlogP_VSA2>
17.468536

>  <SlogP_VSA3>
118.09751

>  <SlogP_VSA4>
0

>  <SlogP_VSA5>
0

>  <SlogP_VSA6>
0

>  <SlogP_VSA7>
0

>  <SlogP_VSA8>
0

>  <SlogP_VSA9>
137.94681

>  <SMR>
8.2198496

>  <SMR_VSA0>
10.999887

>  <SMR_VSA1>
66.337158

>  <SMR_VSA2>
21.135065

>  <SMR_VSA3>
11.28325

>  <SMR_VSA4>
2.3279202

>  <SMR_VSA5>
0

>  <SMR_VSA6>
118.09751

>  <SMR_VSA7>
130.80428

>  <TPSA>
79.739998

>  <VAdjEq>
0.46827638

>  <VAdjMa>
5.4594316

>  <VDistEq>
3.4171066

>  <VDistMa>
8.4603987

>  <vdw_area>
338.50919

>  <vdw_vol>
408.12793

>  <vsa_acc>
18.654169

>  <vsa_acid>
0

>  <vsa_base>
0

>  <vsa_don>
0

>  <vsa_hyd>
223.75781

>  <vsa_other>
53.590088

>  <vsa_pol>
37.903667

>  <Weight>
316.42599

>  <weinerPath>
1063

>  <weinerPol>
25

>  <zagreb>
104

$$$$