O(C(=O)c1cccnc1)C1C(OC(=O)c2cccnc2)C(OC(=O)c2cccnc2)C(OC(=O)c2cccnc2)C(OC(=O)c2cccnc2)C1OC(=O)c1cccnc1
  MOE2013           2D

 60 66  0  0  0  0  0  0  0  0999 V2000
    0.0000    0.0000    0.0000 O   0  0  0  0  0  0  0  0  0  0  0  0
   -1.3020    0.7440    0.0000 C   0  0  0  0  0  0  0  0  0  0  0  0
   -1.3090    2.2440    0.0000 O   0  0  0  0  0  0  0  0  0  0  0  0
   -2.5980   -0.0110    0.0000 C   0  0  0  0  0  0  0  0  0  0  0  0
   -2.5920   -1.5110    0.0000 C   0  0  0  0  0  0  0  0  0  0  0  0
   -3.8870   -2.2670    0.0000 C   0  0  0  0  0  0  0  0  0  0  0  0
   -5.1900   -1.5220    0.0000 C   0  0  0  0  0  0  0  0  0  0  0  0
   -5.1960   -0.0220    0.0000 N   0  0  0  0  0  0  0  0  0  0  0  0
   -3.9000    0.7330    0.0000 C   0  0  0  0  0  0  0  0  0  0  0  0
    1.2960    0.7560    0.0000 C   0  0  0  0  0  0  0  0  0  0  0  0
    2.5980    0.0110    0.0000 C   0  0  0  0  0  0  0  0  0  0  0  0
    2.6040   -1.4890    0.0000 O   0  0  0  0  0  0  0  0  0  0  0  0
    1.3090   -2.2440    0.0000 C   0  0  0  0  0  0  0  0  0  0  0  0
    0.0060   -1.5000    0.0000 O   0  0  0  0  0  0  0  0  0  0  0  0
    1.3150   -3.7440    0.0000 C   0  0  0  0  0  0  0  0  0  0  0  0
    2.6170   -4.4890    0.0000 C   0  0  0  0  0  0  0  0  0  0  0  0
    2.6240   -5.9890    0.0000 C   0  0  0  0  0  0  0  0  0  0  0  0
    1.3280   -6.7440    0.0000 C   0  0  0  0  0  0  0  0  0  0  0  0
    0.0260   -6.0000    0.0000 N   0  0  0  0  0  0  0  0  0  0  0  0
    0.0190   -4.5000    0.0000 C   0  0  0  0  0  0  0  0  0  0  0  0
    3.8940    0.7670    0.0000 C   0  0  0  0  0  0  0  0  0  0  0  0
    4.8630   -0.3780    0.0000 O   0  0  0  0  0  0  0  0  0  0  0  0
    6.3580   -0.5030    0.0000 C   0  0  0  0  0  0  0  0  0  0  0  0
    7.2130    0.7300    0.0000 O   0  0  0  0  0  0  0  0  0  0  0  0
    6.9980   -1.8590    0.0000 C   0  0  0  0  0  0  0  0  0  0  0  0
    6.1420   -3.0920    0.0000 C   0  0  0  0  0  0  0  0  0  0  0  0
    6.7820   -4.4490    0.0000 C   0  0  0  0  0  0  0  0  0  0  0  0
    8.2770   -4.5730    0.0000 C   0  0  0  0  0  0  0  0  0  0  0  0
    9.1320   -3.3400    0.0000 N   0  0  0  0  0  0  0  0  0  0  0  0
    8.4920   -1.9840    0.0000 C   0  0  0  0  0  0  0  0  0  0  0  0
    3.8870    2.2670    0.0000 C   0  0  0  0  0  0  0  0  0  0  0  0
    5.3640    2.5330    0.0000 O   0  0  0  0  0  0  0  0  0  0  0  0
    6.3330    1.3880    0.0000 C   0  0  0  0  0  0  0  0  0  0  0  0
    5.8260   -0.0230    0.0000 O   0  0  0  0  0  0  0  0  0  0  0  0
    7.8090    1.6550    0.0000 C   0  0  0  0  0  0  0  0  0  0  0  0
    8.3160    3.0670    0.0000 C   0  0  0  0  0  0  0  0  0  0  0  0
    9.7920    3.3340    0.0000 C   0  0  0  0  0  0  0  0  0  0  0  0
   10.7610    2.1890    0.0000 C   0  0  0  0  0  0  0  0  0  0  0  0
   10.2540    0.7770    0.0000 N   0  0  0  0  0  0  0  0  0  0  0  0
    8.7780    0.5100    0.0000 C   0  0  0  0  0  0  0  0  0  0  0  0
    2.5850    3.0110    0.0000 C   0  0  0  0  0  0  0  0  0  0  0  0
    2.5790    4.5110    0.0000 O   0  0  0  0  0  0  0  0  0  0  0  0
    3.8750    5.2670    0.0000 C   0  0  0  0  0  0  0  0  0  0  0  0
    5.1770    4.5220    0.0000 O   0  0  0  0  0  0  0  0  0  0  0  0
    3.8680    6.7670    0.0000 C   0  0  0  0  0  0  0  0  0  0  0  0
    5.1640    7.5220    0.0000 C   0  0  0  0  0  0  0  0  0  0  0  0
    5.1580    9.0220    0.0000 C   0  0  0  0  0  0  0  0  0  0  0  0
    3.8550    9.7670    0.0000 C   0  0  0  0  0  0  0  0  0  0  0  0
    2.5600    9.0110    0.0000 N   0  0  0  0  0  0  0  0  0  0  0  0
    2.5660    7.5110    0.0000 C   0  0  0  0  0  0  0  0  0  0  0  0
    1.2890    2.2560    0.0000 C   0  0  0  0  0  0  0  0  0  0  0  0
    0.3200    3.4000    0.0000 O   0  0  0  0  0  0  0  0  0  0  0  0
   -1.1560    3.1340    0.0000 C   0  0  0  0  0  0  0  0  0  0  0  0
   -1.6630    1.7220    0.0000 O   0  0  0  0  0  0  0  0  0  0  0  0
   -2.1250    4.2790    0.0000 C   0  0  0  0  0  0  0  0  0  0  0  0
   -3.6010    4.0120    0.0000 C   0  0  0  0  0  0  0  0  0  0  0  0
   -4.5700    5.1570    0.0000 C   0  0  0  0  0  0  0  0  0  0  0  0
   -4.0630    6.5690    0.0000 C   0  0  0  0  0  0  0  0  0  0  0  0
   -2.5870    6.8350    0.0000 N   0  0  0  0  0  0  0  0  0  0  0  0
   -1.6180    5.6900    0.0000 C   0  0  0  0  0  0  0  0  0  0  0  0
  1  2  1  0  0  0  0
  1 10  1  0  0  0  0
  2  3  2  0  0  0  0
  2  4  1  0  0  0  0
  4  5  1  0  0  0  0
  4  9  2  0  0  0  0
  5  6  2  0  0  0  0
  6  7  1  0  0  0  0
  7  8  2  0  0  0  0
  8  9  1  0  0  0  0
 10 11  1  0  0  0  0
 10 51  1  0  0  0  0
 11 12  1  0  0  0  0
 11 21  1  0  0  0  0
 12 13  1  0  0  0  0
 13 14  2  0  0  0  0
 13 15  1  0  0  0  0
 15 16  1  0  0  0  0
 15 20  2  0  0  0  0
 16 17  2  0  0  0  0
 17 18  1  0  0  0  0
 18 19  2  0  0  0  0
 19 20  1  0  0  0  0
 21 22  1  0  0  0  0
 21 31  1  0  0  0  0
 22 23  1  0  0  0  0
 23 24  2  0  0  0  0
 23 25  1  0  0  0  0
 25 26  1  0  0  0  0
 25 30  2  0  0  0  0
 26 27  2  0  0  0  0
 27 28  1  0  0  0  0
 28 29  2  0  0  0  0
 29 30  1  0  0  0  0
 31 32  1  0  0  0  0
 31 41  1  0  0  0  0
 32 33  1  0  0  0  0
 33 34  2  0  0  0  0
 33 35  1  0  0  0  0
 35 36  1  0  0  0  0
 35 40  2  0  0  0  0
 36 37  2  0  0  0  0
 37 38  1  0  0  0  0
 38 39  2  0  0  0  0
 39 40  1  0  0  0  0
 41 42  1  0  0  0  0
 41 51  1  0  0  0  0
 42 43  1  0  0  0  0
 43 44  2  0  0  0  0
 43 45  1  0  0  0  0
 45 46  1  0  0  0  0
 45 50  2  0  0  0  0
 46 47  2  0  0  0  0
 47 48  1  0  0  0  0
 48 49  2  0  0  0  0
 49 50  1  0  0  0  0
 51 52  1  0  0  0  0
 52 53  1  0  0  0  0
 53 54  2  0  0  0  0
 53 55  1  0  0  0  0
 55 56  1  0  0  0  0
 55 60  2  0  0  0  0
 56 57  2  0  0  0  0
 57 58  1  0  0  0  0
 58 59  2  0  0  0  0
 59 60  1  0  0  0  0
M  END
>  <Index>
1412

>  <ID>
HT4008

>  <class>
0

>  <apol>
110.14779

>  <ast_fraglike>
0

>  <ast_fraglike_ext>
0

>  <ast_violation>
3

>  <ast_violation_ext>
5

>  <a_acc>
12

>  <a_acid>
0

>  <a_aro>
36

>  <a_base>
0

>  <a_count>
90

>  <a_don>
0

>  <a_donacc>
12

>  <a_heavy>
60

>  <a_hyd>
36

>  <a_IC>
152.05341

>  <a_ICM>
1.6894822

>  <a_nB>
0

>  <a_nBr>
0

>  <a_nC>
42

>  <a_nCl>
0

>  <a_nF>
0

>  <a_nH>
30

>  <a_nI>
0

>  <a_nN>
6

>  <a_nO>
12

>  <a_nP>
0

>  <a_nS>
0

>  <balabanJ>
1.318037

>  <BCUT_PEOE_0>
-2.7302649

>  <BCUT_PEOE_1>
-0.5812459

>  <BCUT_PEOE_2>
0.65669513

>  <BCUT_PEOE_3>
2.8615279

>  <BCUT_SLOGP_0>
-2.9466975

>  <BCUT_SLOGP_1>
-0.50261194

>  <BCUT_SLOGP_2>
0.74220067

>  <BCUT_SLOGP_3>
2.6388524

>  <BCUT_SMR_0>
-2.5491521

>  <BCUT_SMR_1>
-0.45145914

>  <BCUT_SMR_2>
0.79256105

>  <BCUT_SMR_3>
3.0330539

>  <bpol>
57.960209

>  <b_1rotN>
12

>  <b_1rotR>
0.18181819

>  <b_ar>
36

>  <b_count>
96

>  <b_double>
6

>  <b_heavy>
66

>  <b_max1len>
2

>  <b_rotN>
18

>  <b_rotR>
0.27272728

>  <b_single>
54

>  <b_triple>
0

>  <chi0>
41.848148

>  <chi0v>
30.902769

>  <chi0v_C>
23.320509

>  <chi0_C>
27.362867

>  <chi1>
29.26206

>  <chi1v>
17.926191

>  <chi1v_C>
10.964102

>  <chi1_C>
14.898979

>  <chiral>
0

>  <chiral_u>
0

>  <density>
0.81107163

>  <diameter>
15

>  <FCharge>
0

>  <GCUT_PEOE_0>
-0.7459932

>  <GCUT_PEOE_1>
-0.43486583

>  <GCUT_PEOE_2>
0.080430105

>  <GCUT_PEOE_3>
3.1125646

>  <GCUT_SLOGP_0>
-0.93790978

>  <GCUT_SLOGP_1>
-0.31271031

>  <GCUT_SLOGP_2>
0.15128526

>  <GCUT_SLOGP_3>
3.037529

>  <GCUT_SMR_0>
-0.51562792

>  <GCUT_SMR_1>
-0.21393865

>  <GCUT_SMR_2>
0.17700179

>  <GCUT_SMR_3>
3.3341467

>  <Kier1>
47.947659

>  <Kier2>
24.50321

>  <Kier3>
13.315833

>  <KierA1>
33.430855

>  <KierA2>
16.97253

>  <KierA3>
9.1818209

>  <KierFlex>
9.4567699

>  <lip_acc>
18

>  <lip_don>
0

>  <lip_druglike>
0

>  <lip_violation>
2

>  <logP(o/w)>
1.11844

>  <logS>
-5.2469602

>  <mr>
21.231169

>  <mutagenic>
0

>  <nmol>
1

>  <opr_brigid>
42

>  <opr_leadlike>
0

>  <opr_nring>
7

>  <opr_nrot>
14

>  <opr_violation>
4

>  <PC+>
0

>  <PC->
0

>  <PEOE_PC+>
5.4787598

>  <PEOE_PC->
-5.4787598

>  <PEOE_RPC+>
0.053971063

>  <PEOE_RPC->
0.055240314

>  <PEOE_VSA+0>
200.95099

>  <PEOE_VSA+1>
141.21281

>  <PEOE_VSA+2>
29.429573

>  <PEOE_VSA+3>
0

>  <PEOE_VSA+4>
0

>  <PEOE_VSA+5>
88.250992

>  <PEOE_VSA+6>
0

>  <PEOE_VSA-0>
147.05885

>  <PEOE_VSA-1>
0

>  <PEOE_VSA-2>
0

>  <PEOE_VSA-3>
0

>  <PEOE_VSA-4>
0

>  <PEOE_VSA-5>
115.49698

>  <PEOE_VSA-6>
15.022536

>  <PEOE_VSA_FHYD>
0.70333093

>  <PEOE_VSA_FNEG>
0.37641689

>  <PEOE_VSA_FPNEG>
0.17699416

>  <PEOE_VSA_FPOL>
0.29666907

>  <PEOE_VSA_FPOS>
0.62358314

>  <PEOE_VSA_FPPOS>
0.11967491

>  <PEOE_VSA_HYD>
518.65222

>  <PEOE_VSA_NEG>
277.57837

>  <PEOE_VSA_PNEG>
130.51952

>  <PEOE_VSA_POL>
218.77051

>  <PEOE_VSA_POS>
459.84436

>  <PEOE_VSA_PPOS>
88.250992

>  <petitjean>
0.40000001

>  <petitjeanSC>
0.66666669

>  <Q_PC+>
0

>  <Q_PC->
0

>  <Q_RPC+>
0

>  <Q_RPC->
0

>  <Q_VSA_FHYD>
1

>  <Q_VSA_FNEG>
0

>  <Q_VSA_FPNEG>
0

>  <Q_VSA_FPOL>
0

>  <Q_VSA_FPOS>
1

>  <Q_VSA_FPPOS>
0

>  <Q_VSA_HYD>
737.42273

>  <Q_VSA_NEG>
0

>  <Q_VSA_PNEG>
0

>  <Q_VSA_POL>
0

>  <Q_VSA_POS>
737.42273

>  <Q_VSA_PPOS>
0

>  <radius>
9

>  <reactive>
0

>  <rings>
7

>  <RPC+>
0

>  <RPC->
0

>  <rsynth>
1

>  <SlogP>
3.7235999

>  <SlogP_VSA0>
0

>  <SlogP_VSA1>
147.18596

>  <SlogP_VSA2>
104.81123

>  <SlogP_VSA3>
0

>  <SlogP_VSA4>
162.28674

>  <SlogP_VSA5>
0

>  <SlogP_VSA6>
0

>  <SlogP_VSA7>
418.2905

>  <SlogP_VSA8>
0

>  <SlogP_VSA9>
0

>  <SMR>
20.064301

>  <SMR_VSA0>
209.17262

>  <SMR_VSA1>
100.71318

>  <SMR_VSA2>
0

>  <SMR_VSA3>
57.925346

>  <SMR_VSA4>
0

>  <SMR_VSA5>
418.2905

>  <SMR_VSA6>
46.472786

>  <SMR_VSA7>
0

>  <TPSA>
235.14

>  <VAdjEq>
0.22679445

>  <VAdjMa>
7.044394

>  <VDistEq>
3.6490502

>  <VDistMa>
11.638338

>  <vdw_area>
737.42273

>  <vdw_vol>
999.58124

>  <vsa_acc>
115.49698

>  <vsa_acid>
0

>  <vsa_base>
0

>  <vsa_don>
0

>  <vsa_hyd>
497.29837

>  <vsa_other>
103.27353

>  <vsa_pol>
115.49698

>  <Weight>
810.73199

>  <weinerPath>
13326

>  <weinerPol>
99

>  <zagreb>
312

$$$$