BrC1=C(N=C(NC1=O)N)c1ccccc1
  MOE2013           2D

 15 16  0  0  0  0  0  0  0  0999 V2000
    0.0000    0.0000    0.0000 Br  0  0  0  0  0  0  0  0  0  0  0  0
   -0.7400   -1.3050    0.0000 C   0  0  0  0  0  0  0  0  0  0  0  0
    0.0210   -2.5980    0.0000 C   0  0  0  0  0  0  0  0  0  0  0  0
   -0.7190   -3.9030    0.0000 N   0  0  0  0  0  0  0  0  0  0  0  0
   -2.2190   -3.9150    0.0000 C   0  0  0  0  0  0  0  0  0  0  0  0
   -2.9790   -2.6220    0.0000 N   0  0  0  0  0  0  0  0  0  0  0  0
   -2.2400   -1.3170    0.0000 C   0  0  0  0  0  0  0  0  0  0  0  0
   -3.0000   -0.0240    0.0000 O   0  0  0  0  0  0  0  0  0  0  0  0
   -2.9580   -5.2200    0.0000 N   0  0  0  0  0  0  0  0  0  0  0  0
    1.5210   -2.5860    0.0000 C   0  0  0  0  0  0  0  0  0  0  0  0
    2.2810   -3.8790    0.0000 C   0  0  0  0  0  0  0  0  0  0  0  0
    3.7810   -3.8670    0.0000 C   0  0  0  0  0  0  0  0  0  0  0  0
    4.5210   -2.5620    0.0000 C   0  0  0  0  0  0  0  0  0  0  0  0
    3.7600   -1.2690    0.0000 C   0  0  0  0  0  0  0  0  0  0  0  0
    2.2600   -1.2810    0.0000 C   0  0  0  0  0  0  0  0  0  0  0  0
  1  2  1  0  0  0  0
  2  3  2  0  0  0  0
  2  7  1  0  0  0  0
  3  4  1  0  0  0  0
  3 10  1  0  0  0  0
  4  5  2  0  0  0  0
  5  6  1  0  0  0  0
  5  9  1  0  0  0  0
  6  7  1  0  0  0  0
  7  8  2  0  0  0  0
 10 11  1  0  0  0  0
 10 15  2  0  0  0  0
 11 12  2  0  0  0  0
 12 13  1  0  0  0  0
 13 14  2  0  0  0  0
 14 15  1  0  0  0  0
M  END
>  <Index>
160

>  <ID>
HT0317

>  <class>
0

>  <apol>
30.086344

>  <ast_fraglike>
1

>  <ast_fraglike_ext>
1

>  <ast_violation>
0

>  <ast_violation_ext>
0

>  <a_acc>
2

>  <a_acid>
0

>  <a_aro>
6

>  <a_base>
0

>  <a_count>
23

>  <a_don>
2

>  <a_donacc>
4

>  <a_heavy>
15

>  <a_hyd>
9

>  <a_IC>
42.067757

>  <a_ICM>
1.8290329

>  <a_nB>
0

>  <a_nBr>
1

>  <a_nC>
10

>  <a_nCl>
0

>  <a_nF>
0

>  <a_nH>
8

>  <a_nI>
0

>  <a_nN>
3

>  <a_nO>
1

>  <a_nP>
0

>  <a_nS>
0

>  <balabanJ>
2.0037322

>  <BCUT_PEOE_0>
-2.2959342

>  <BCUT_PEOE_1>
-0.60867673

>  <BCUT_PEOE_2>
0.66007692

>  <BCUT_PEOE_3>
2.2873034

>  <BCUT_SLOGP_0>
-2.6358111

>  <BCUT_SLOGP_1>
-0.49961731

>  <BCUT_SLOGP_2>
0.76432365

>  <BCUT_SLOGP_3>
2.3559895

>  <BCUT_SMR_0>
-1.9408821

>  <BCUT_SMR_1>
-0.46317148

>  <BCUT_SMR_2>
0.84306151

>  <BCUT_SMR_3>
2.6356862

>  <bpol>
12.313656

>  <b_1rotN>
1

>  <b_1rotR>
0.0625

>  <b_ar>
6

>  <b_count>
24

>  <b_double>
3

>  <b_heavy>
16

>  <b_max1len>
2

>  <b_rotN>
1

>  <b_rotR>
0.0625

>  <b_single>
15

>  <b_triple>
0

>  <chi0>
10.836499

>  <chi0v>
9.2835245

>  <chi0v_C>
5.3867512

>  <chi0_C>
6.4222851

>  <chi1>
7.1815405

>  <chi1v>
5.0826769

>  <chi1v_C>
2.6606836

>  <chi1_C>
3.8164966

>  <chiral>
0

>  <chiral_u>
0

>  <density>
0.95937628

>  <diameter>
7

>  <FCharge>
0

>  <GCUT_PEOE_0>
-0.82694066

>  <GCUT_PEOE_1>
-0.43775332

>  <GCUT_PEOE_2>
0.072989888

>  <GCUT_PEOE_3>
2.1962385

>  <GCUT_SLOGP_0>
-1.3710364

>  <GCUT_SLOGP_1>
-0.32845706

>  <GCUT_SLOGP_2>
0.17044601

>  <GCUT_SLOGP_3>
2.2910182

>  <GCUT_SMR_0>
-0.42830321

>  <GCUT_SMR_1>
-0.20415922

>  <GCUT_SMR_2>
0.32034048

>  <GCUT_SMR_3>
2.5295451

>  <Kier1>
11.484375

>  <Kier2>
4.8884296

>  <Kier3>
2.5714285

>  <KierA1>
8.8308115

>  <KierA2>
3.6818438

>  <KierA3>
1.9040316

>  <KierFlex>
2.167578

>  <lip_acc>
4

>  <lip_don>
3

>  <lip_druglike>
1

>  <lip_violation>
0

>  <logP(o/w)>
2.177

>  <logS>
-3.8395901

>  <mr>
6.0212703

>  <mutagenic>
0

>  <nmol>
1

>  <opr_brigid>
12

>  <opr_leadlike>
1

>  <opr_nring>
2

>  <opr_nrot>
1

>  <opr_violation>
0

>  <PC+>
0

>  <PC->
0

>  <PEOE_PC+>
1.47281

>  <PEOE_PC->
-1.47281

>  <PEOE_RPC+>
0.18157221

>  <PEOE_RPC->
0.25077346

>  <PEOE_VSA+0>
2.2085397

>  <PEOE_VSA+1>
28.026482

>  <PEOE_VSA+2>
2.2522078

>  <PEOE_VSA+3>
25.857038

>  <PEOE_VSA+4>
15.681574

>  <PEOE_VSA+5>
12.949531

>  <PEOE_VSA+6>
0

>  <PEOE_VSA-0>
43.624847

>  <PEOE_VSA-1>
61.274521

>  <PEOE_VSA-2>
0

>  <PEOE_VSA-3>
0

>  <PEOE_VSA-4>
5.6825762

>  <PEOE_VSA-5>
13.703812

>  <PEOE_VSA-6>
6.6511192

>  <PEOE_VSA_FHYD>
0.74912554

>  <PEOE_VSA_FNEG>
0.60086972

>  <PEOE_VSA_FPNEG>
0.11948621

>  <PEOE_VSA_FPOL>
0.25087443

>  <PEOE_VSA_FPOS>
0.39913025

>  <PEOE_VSA_FPPOS>
0.13138823

>  <PEOE_VSA_HYD>
163.24364

>  <PEOE_VSA_NEG>
130.93687

>  <PEOE_VSA_PNEG>
26.037508

>  <PEOE_VSA_POL>
54.668613

>  <PEOE_VSA_POS>
86.975372

>  <PEOE_VSA_PPOS>
28.631105

>  <petitjean>
0.42857143

>  <petitjeanSC>
0.75

>  <Q_PC+>
0

>  <Q_PC->
0

>  <Q_RPC+>
0

>  <Q_RPC->
0

>  <Q_VSA_FHYD>
1

>  <Q_VSA_FNEG>
0

>  <Q_VSA_FPNEG>
0

>  <Q_VSA_FPOL>
0

>  <Q_VSA_FPOS>
1

>  <Q_VSA_FPPOS>
0

>  <Q_VSA_HYD>
217.91225

>  <Q_VSA_NEG>
0

>  <Q_VSA_PNEG>
0

>  <Q_VSA_POL>
0

>  <Q_VSA_POS>
217.91225

>  <Q_VSA_PPOS>
0

>  <radius>
4

>  <reactive>
0

>  <rings>
2

>  <RPC+>
0

>  <RPC->
0

>  <rsynth>
1

>  <SlogP>
1.1946

>  <SlogP_VSA0>
50.90794

>  <SlogP_VSA1>
7.1578765

>  <SlogP_VSA2>
23.862217

>  <SlogP_VSA3>
0

>  <SlogP_VSA4>
3.185575

>  <SlogP_VSA5>
19.840633

>  <SlogP_VSA6>
0

>  <SlogP_VSA7>
90.972672

>  <SlogP_VSA8>
0

>  <SlogP_VSA9>
45.954094

>  <SMR>
6.20541

>  <SMR_VSA0>
23.862217

>  <SMR_VSA1>
16.78553

>  <SMR_VSA2>
18.01075

>  <SMR_VSA3>
6.2406793

>  <SMR_VSA4>
35.653934

>  <SMR_VSA5>
88.215919

>  <SMR_VSA6>
7.1578765

>  <SMR_VSA7>
45.954094

>  <TPSA>
67.480003

>  <VAdjEq>
0.59002918

>  <VAdjMa>
5

>  <VDistEq>
2.6460435

>  <VDistMa>
7.5311775

>  <vdw_area>
217.91225

>  <vdw_vol>
277.36563

>  <vsa_acc>
19.249496

>  <vsa_acid>
0

>  <vsa_base>
0

>  <vsa_don>
23.425066

>  <vsa_hyd>
133.82762

>  <vsa_other>
28.631105

>  <vsa_pol>
42.674564

>  <Weight>
266.09799

>  <weinerPath>
348

>  <weinerPol>
22

>  <zagreb>
76

$$$$