O(C(=O)c1ccccc1)CCCN1CCCCC1C
  MOE2013           2D

 19 20  0  0  1  0  0  0  0  0999 V2000
    0.0000    0.0000    0.0000 O   0  0  0  0  0  0  0  0  0  0  0  0
    1.2990   -0.7500    0.0000 C   0  0  0  0  0  0  0  0  0  0  0  0
    1.2990   -2.2500    0.0000 O   0  0  0  0  0  0  0  0  0  0  0  0
    2.5980    0.0000    0.0000 C   0  0  0  0  0  0  0  0  0  0  0  0
    3.8970   -0.7490    0.0000 C   0  0  0  0  0  0  0  0  0  0  0  0
    5.1960    0.0010    0.0000 C   0  0  0  0  0  0  0  0  0  0  0  0
    5.1960    1.5010    0.0000 C   0  0  0  0  0  0  0  0  0  0  0  0
    3.8970    2.2510    0.0000 C   0  0  0  0  0  0  0  0  0  0  0  0
    2.5980    1.5000    0.0000 C   0  0  0  0  0  0  0  0  0  0  0  0
   -1.2990   -0.7500    0.0000 C   0  0  0  0  0  0  0  0  0  0  0  0
   -2.5980    0.0000    0.0000 C   0  0  0  0  0  0  0  0  0  0  0  0
   -3.8970   -0.7510    0.0000 C   0  0  0  0  0  0  0  0  0  0  0  0
   -5.1960   -0.0010    0.0000 N   0  0  3  0  0  0  0  0  0  0  0  0
   -5.1960    1.4990    0.0000 C   0  0  0  0  0  0  0  0  0  0  0  0
   -6.4960    2.2490    0.0000 C   0  0  0  0  0  0  0  0  0  0  0  0
   -7.7940    1.4990    0.0000 C   0  0  0  0  0  0  0  0  0  0  0  0
   -7.7940   -0.0010    0.0000 C   0  0  0  0  0  0  0  0  0  0  0  0
   -6.4950   -0.7510    0.0000 C   0  0  3  0  0  0  0  0  0  0  0  0
   -6.4950   -2.2510    0.0000 C   0  0  0  0  0  0  0  0  0  0  0  0
  1  2  1  0  0  0  0
  1 10  1  0  0  0  0
  2  3  2  0  0  0  0
  2  4  1  0  0  0  0
  4  5  1  0  0  0  0
  4  9  2  0  0  0  0
  5  6  2  0  0  0  0
  6  7  1  0  0  0  0
  7  8  2  0  0  0  0
  8  9  1  0  0  0  0
 10 11  1  0  0  0  0
 11 12  1  0  0  0  0
 12 13  1  0  0  0  0
 13 14  1  0  0  0  0
 13 18  1  0  0  0  0
 14 15  1  0  0  0  0
 15 16  1  0  0  0  0
 16 17  1  0  0  0  0
 17 18  1  0  0  0  0
 18 19  1  0  0  0  0
M  END
>  <Index>
1293

>  <ID>
HT3152

>  <class>
0

>  <apol>
46.200237

>  <ast_fraglike>
0

>  <ast_fraglike_ext>
0

>  <ast_violation>
1

>  <ast_violation_ext>
2

>  <a_acc>
2

>  <a_acid>
0

>  <a_aro>
6

>  <a_base>
0

>  <a_count>
42

>  <a_don>
0

>  <a_donacc>
2

>  <a_heavy>
19

>  <a_hyd>
15

>  <a_IC>
56.435406

>  <a_ICM>
1.3437002

>  <a_nB>
0

>  <a_nBr>
0

>  <a_nC>
16

>  <a_nCl>
0

>  <a_nF>
0

>  <a_nH>
23

>  <a_nI>
0

>  <a_nN>
1

>  <a_nO>
2

>  <a_nP>
0

>  <a_nS>
0

>  <balabanJ>
1.5545189

>  <BCUT_PEOE_0>
-2.8172135

>  <BCUT_PEOE_1>
-0.55866355

>  <BCUT_PEOE_2>
0.61650985

>  <BCUT_PEOE_3>
2.7285647

>  <BCUT_SLOGP_0>
-2.8239586

>  <BCUT_SLOGP_1>
-0.45574713

>  <BCUT_SLOGP_2>
0.71395683

>  <BCUT_SLOGP_3>
2.7740421

>  <BCUT_SMR_0>
-2.5452478

>  <BCUT_SMR_1>
-0.42426836

>  <BCUT_SMR_2>
0.75635499

>  <BCUT_SMR_3>
2.9952438

>  <bpol>
29.997761

>  <b_1rotN>
5

>  <b_1rotR>
0.25

>  <b_ar>
6

>  <b_count>
43

>  <b_double>
1

>  <b_heavy>
20

>  <b_max1len>
4

>  <b_rotN>
6

>  <b_rotR>
0.30000001

>  <b_single>
36

>  <b_triple>
0

>  <chi0>
13.501789

>  <chi0v>
11.677559

>  <chi0v_C>
10.413849

>  <chi0_C>
11.217332

>  <chi1>
9.2708569

>  <chi1v>
7.23386

>  <chi1v_C>
5.6462822

>  <chi1_C>
6.6354284

>  <chiral>
1

>  <chiral_u>
1

>  <density>
0.67187434

>  <diameter>
12

>  <FCharge>
0

>  <GCUT_PEOE_0>
-0.85575593

>  <GCUT_PEOE_1>
-0.37775108

>  <GCUT_PEOE_2>
0.06585639

>  <GCUT_PEOE_3>
2.6515265

>  <GCUT_SLOGP_0>
-0.95242381

>  <GCUT_SLOGP_1>
-0.2482751

>  <GCUT_SLOGP_2>
0.14673613

>  <GCUT_SLOGP_3>
2.6901357

>  <GCUT_SMR_0>
-0.52617359

>  <GCUT_SMR_1>
-0.19232073

>  <GCUT_SMR_2>
0.16909905

>  <GCUT_SMR_3>
2.8829782

>  <Kier1>
15.39

>  <Kier2>
8.3232002

>  <Kier3>
5.1199999

>  <KierA1>
12.825631

>  <KierA2>
6.8613009

>  <KierA3>
4.1850004

>  <KierFlex>
4.6316061

>  <lip_acc>
3

>  <lip_don>
0

>  <lip_druglike>
1

>  <lip_violation>
0

>  <logP(o/w)>
3.602

>  <logS>
-2.9476299

>  <mr>
7.7954578

>  <mutagenic>
0

>  <nmol>
1

>  <opr_brigid>
12

>  <opr_leadlike>
1

>  <opr_nring>
2

>  <opr_nrot>
7

>  <opr_violation>
0

>  <PC+>
0

>  <PC->
0

>  <PEOE_PC+>
1.3462398

>  <PEOE_PC->
-1.3462398

>  <PEOE_RPC+>
0.21824478

>  <PEOE_RPC->
0.23130307

>  <PEOE_VSA+0>
86.792999

>  <PEOE_VSA+1>
44.808994

>  <PEOE_VSA+2>
0

>  <PEOE_VSA+3>
0

>  <PEOE_VSA+4>
0

>  <PEOE_VSA+5>
14.708499

>  <PEOE_VSA+6>
0

>  <PEOE_VSA-0>
82.553749

>  <PEOE_VSA-1>
45.466026

>  <PEOE_VSA-2>
0

>  <PEOE_VSA-3>
0

>  <PEOE_VSA-4>
0

>  <PEOE_VSA-5>
13.566921

>  <PEOE_VSA-6>
2.503756

>  <PEOE_VSA_FHYD>
0.89401144

>  <PEOE_VSA_FNEG>
0.49617761

>  <PEOE_VSA_FPNEG>
0.055339616

>  <PEOE_VSA_FPOL>
0.10598855

>  <PEOE_VSA_FPOS>
0.50382239

>  <PEOE_VSA_FPPOS>
0.050648935

>  <PEOE_VSA_HYD>
259.62177

>  <PEOE_VSA_NEG>
144.09045

>  <PEOE_VSA_PNEG>
16.070677

>  <PEOE_VSA_POL>
30.779177

>  <PEOE_VSA_POS>
146.3105

>  <PEOE_VSA_PPOS>
14.708499

>  <petitjean>
0.5

>  <petitjeanSC>
1

>  <Q_PC+>
0

>  <Q_PC->
0

>  <Q_RPC+>
0

>  <Q_RPC->
0

>  <Q_VSA_FHYD>
1

>  <Q_VSA_FNEG>
0

>  <Q_VSA_FPNEG>
0

>  <Q_VSA_FPOL>
0

>  <Q_VSA_FPOS>
1

>  <Q_VSA_FPPOS>
0

>  <Q_VSA_HYD>
290.40094

>  <Q_VSA_NEG>
0

>  <Q_VSA_PNEG>
0

>  <Q_VSA_POL>
0

>  <Q_VSA_POS>
290.40094

>  <Q_VSA_PPOS>
0

>  <radius>
6

>  <reactive>
0

>  <rings>
2

>  <RPC+>
0

>  <RPC->
0

>  <rsynth>
1

>  <SlogP>
3.1078999

>  <SlogP_VSA0>
0

>  <SlogP_VSA1>
10.869778

>  <SlogP_VSA2>
14.981856

>  <SlogP_VSA3>
57.805416

>  <SlogP_VSA4>
27.047791

>  <SlogP_VSA5>
0

>  <SlogP_VSA6>
0

>  <SlogP_VSA7>
88.215919

>  <SlogP_VSA8>
75.473625

>  <SlogP_VSA9>
33.326015

>  <SMR>
7.6227498

>  <SMR_VSA0>
34.862103

>  <SMR_VSA1>
3.1243138

>  <SMR_VSA2>
0

>  <SMR_VSA3>
7.1675434

>  <SMR_VSA4>
0

>  <SMR_VSA5>
163.68954

>  <SMR_VSA6>
65.55088

>  <SMR_VSA7>
33.326015

>  <TPSA>
29.540001

>  <VAdjEq>
0.5023343

>  <VAdjMa>
5.321928

>  <VDistEq>
3.3904543

>  <VDistMa>
8.1482553

>  <vdw_area>
290.40094

>  <vdw_vol>
389.00876

>  <vsa_acc>
13.566921

>  <vsa_acid>
0

>  <vsa_base>
0

>  <vsa_don>
0

>  <vsa_hyd>
243.25047

>  <vsa_other>
17.212255

>  <vsa_pol>
13.566921

>  <Weight>
261.36499

>  <weinerPath>
854

>  <weinerPol>
24

>  <zagreb>
90

$$$$