OC(=O)CCC(=O)c1cc-2c(-c3c4c-2cccc4ccc3)cc1
  MOE2013           2D

 23 26  0  0  0  0  0  0  0  0999 V2000
    0.0000    0.0000    0.0000 O   0  0  0  0  0  0  0  0  0  0  0  0
   -1.3000   -0.7480    0.0000 C   0  0  0  0  0  0  0  0  0  0  0  0
   -1.3030   -2.2480    0.0000 O   0  0  0  0  0  0  0  0  0  0  0  0
   -2.5980    0.0050    0.0000 C   0  0  0  0  0  0  0  0  0  0  0  0
   -3.8990   -0.7430    0.0000 C   0  0  0  0  0  0  0  0  0  0  0  0
   -5.1960    0.0100    0.0000 C   0  0  0  0  0  0  0  0  0  0  0  0
   -5.1930    1.5100    0.0000 O   0  0  0  0  0  0  0  0  0  0  0  0
   -6.4970   -0.7380    0.0000 C   0  0  0  0  0  0  0  0  0  0  0  0
   -7.7940    0.0150    0.0000 C   0  0  0  0  0  0  0  0  0  0  0  0
   -8.9950   -0.4270    0.0000 C   0  0  0  0  0  0  0  0  0  0  0  0
   -9.1840   -2.2830    0.0000 C   0  0  0  0  0  0  0  0  0  0  0  0
  -10.6720   -2.5290    0.0000 C   0  0  0  0  0  0  0  0  0  0  0  0
  -11.2860   -1.1950    0.0000 C   0  0  0  0  0  0  0  0  0  0  0  0
  -10.4300    0.0010    0.0000 C   0  0  0  0  0  0  0  0  0  0  0  0
  -11.0410    1.3320    0.0000 C   0  0  0  0  0  0  0  0  0  0  0  0
  -12.5020    1.4700    0.0000 C   0  0  0  0  0  0  0  0  0  0  0  0
  -13.3490    0.2760    0.0000 C   0  0  0  0  0  0  0  0  0  0  0  0
  -12.7470   -1.0590    0.0000 C   0  0  0  0  0  0  0  0  0  0  0  0
  -13.5910   -2.2520    0.0000 C   0  0  0  0  0  0  0  0  0  0  0  0
  -12.9890   -3.5850    0.0000 C   0  0  0  0  0  0  0  0  0  0  0  0
  -11.5270   -3.7260    0.0000 C   0  0  0  0  0  0  0  0  0  0  0  0
   -7.8000   -2.9850    0.0000 C   0  0  0  0  0  0  0  0  0  0  0  0
   -6.4990   -2.2380    0.0000 C   0  0  0  0  0  0  0  0  0  0  0  0
  1  2  1  0  0  0  0
  2  3  2  0  0  0  0
  2  4  1  0  0  0  0
  4  5  1  0  0  0  0
  5  6  1  0  0  0  0
  6  7  2  0  0  0  0
  6  8  1  0  0  0  0
  8  9  1  0  0  0  0
  8 23  2  0  0  0  0
  9 10  2  0  0  0  0
 10 11  1  0  0  0  0
 10 14  1  0  0  0  0
 11 12  1  0  0  0  0
 11 22  2  0  0  0  0
 12 13  1  0  0  0  0
 12 21  2  0  0  0  0
 13 14  1  0  0  0  0
 13 18  2  0  0  0  0
 14 15  2  0  0  0  0
 15 16  1  0  0  0  0
 16 17  2  0  0  0  0
 17 18  1  0  0  0  0
 18 19  1  0  0  0  0
 19 20  2  0  0  0  0
 20 21  1  0  0  0  0
 22 23  1  0  0  0  0
M  END
>  <Index>
1321

>  <ID>
HT3366

>  <class>
0

>  <apol>
46.941101

>  <ast_fraglike>
0

>  <ast_fraglike_ext>
0

>  <ast_violation>
2

>  <ast_violation_ext>
3

>  <a_acc>
3

>  <a_acid>
0

>  <a_aro>
16

>  <a_base>
0

>  <a_count>
37

>  <a_don>
2

>  <a_donacc>
5

>  <a_heavy>
23

>  <a_hyd>
18

>  <a_IC>
48.253357

>  <a_ICM>
1.3041447

>  <a_nB>
0

>  <a_nBr>
0

>  <a_nC>
20

>  <a_nCl>
0

>  <a_nF>
0

>  <a_nH>
14

>  <a_nI>
0

>  <a_nN>
0

>  <a_nO>
3

>  <a_nP>
0

>  <a_nS>
0

>  <balabanJ>
1.4492906

>  <BCUT_PEOE_0>
-2.3849008

>  <BCUT_PEOE_1>
-0.63439196

>  <BCUT_PEOE_2>
0.64778519

>  <BCUT_PEOE_3>
2.4840994

>  <BCUT_SLOGP_0>
-2.3973491

>  <BCUT_SLOGP_1>
-0.51509625

>  <BCUT_SLOGP_2>
0.72384185

>  <BCUT_SLOGP_3>
2.5624089

>  <BCUT_SMR_0>
-2.1661487

>  <BCUT_SMR_1>
-0.46411771

>  <BCUT_SMR_2>
0.82944149

>  <BCUT_SMR_3>
2.7341185

>  <bpol>
17.220898

>  <b_1rotN>
4

>  <b_1rotR>
0.15384616

>  <b_ar>
17

>  <b_count>
40

>  <b_double>
2

>  <b_heavy>
26

>  <b_max1len>
3

>  <b_rotN>
4

>  <b_rotR>
0.15384616

>  <b_single>
21

>  <b_triple>
0

>  <chi0>
15.974327

>  <chi0v>
12.374076

>  <chi0v_C>
11.110366

>  <chi0_C>
12.974327

>  <chi1>
11.147867

>  <chi1v>
7.5650296

>  <chi1v_C>
6.9331746

>  <chi1_C>
9.4158163

>  <chiral>
0

>  <chiral_u>
0

>  <density>
0.73637927

>  <diameter>
11

>  <FCharge>
0

>  <GCUT_PEOE_0>
-0.74589533

>  <GCUT_PEOE_1>
-0.45416436

>  <GCUT_PEOE_2>
0.080480695

>  <GCUT_PEOE_3>
2.5964568

>  <GCUT_SLOGP_0>
-0.87268037

>  <GCUT_SLOGP_1>
-0.34160435

>  <GCUT_SLOGP_2>
0.16319302

>  <GCUT_SLOGP_3>
2.7821016

>  <GCUT_SMR_0>
-0.49686584

>  <GCUT_SMR_1>
-0.23235507

>  <GCUT_SMR_2>
0.20319937

>  <GCUT_SMR_3>
2.930841

>  <Kier1>
16.467455

>  <Kier2>
6.7188368

>  <Kier3>
3.0178328

>  <KierA1>
11.219958

>  <KierA2>
4.4904604

>  <KierA3>
1.9875377

>  <KierFlex>
2.1905556

>  <lip_acc>
3

>  <lip_don>
1

>  <lip_druglike>
1

>  <lip_violation>
0

>  <logP(o/w)>
4.5190001

>  <logS>
-6.5346098

>  <mr>
8.8009834

>  <mutagenic>
1

>  <nmol>
1

>  <opr_brigid>
19

>  <opr_leadlike>
1

>  <opr_nring>
4

>  <opr_nrot>
4

>  <opr_violation>
1

>  <PC+>
0

>  <PC->
0

>  <PEOE_PC+>
1.4263473

>  <PEOE_PC->
-1.4263473

>  <PEOE_RPC+>
0.18228664

>  <PEOE_RPC->
0.23224281

>  <PEOE_VSA+0>
36.67271

>  <PEOE_VSA+1>
38.388474

>  <PEOE_VSA+2>
0

>  <PEOE_VSA+3>
8.458519

>  <PEOE_VSA+4>
10.324173

>  <PEOE_VSA+5>
14.708499

>  <PEOE_VSA+6>
0

>  <PEOE_VSA-0>
25.506142

>  <PEOE_VSA-1>
98.03923

>  <PEOE_VSA-2>
0

>  <PEOE_VSA-3>
0

>  <PEOE_VSA-4>
0

>  <PEOE_VSA-5>
27.133842

>  <PEOE_VSA-6>
7.7675405

>  <PEOE_VSA_FHYD>
0.77552718

>  <PEOE_VSA_FNEG>
0.59343547

>  <PEOE_VSA_FPNEG>
0.13071722

>  <PEOE_VSA_FPOL>
0.22447284

>  <PEOE_VSA_FPOS>
0.40656453

>  <PEOE_VSA_FPPOS>
0.093755633

>  <PEOE_VSA_HYD>
207.06508

>  <PEOE_VSA_NEG>
158.44676

>  <PEOE_VSA_PNEG>
34.901382

>  <PEOE_VSA_POL>
59.934055

>  <PEOE_VSA_POS>
108.55238

>  <PEOE_VSA_PPOS>
25.032671

>  <petitjean>
0.45454547

>  <petitjeanSC>
0.83333331

>  <Q_PC+>
0

>  <Q_PC->
0

>  <Q_RPC+>
0

>  <Q_RPC->
0

>  <Q_VSA_FHYD>
1

>  <Q_VSA_FNEG>
0

>  <Q_VSA_FPNEG>
0

>  <Q_VSA_FPOL>
0

>  <Q_VSA_FPOS>
1

>  <Q_VSA_FPPOS>
0

>  <Q_VSA_HYD>
266.99915

>  <Q_VSA_NEG>
0

>  <Q_VSA_PNEG>
0

>  <Q_VSA_POL>
0

>  <Q_VSA_POS>
266.99915

>  <Q_VSA_PPOS>
0

>  <radius>
6

>  <reactive>
1

>  <rings>
4

>  <RPC+>
0

>  <RPC->
0

>  <rsynth>
0

>  <SlogP>
4.5346999

>  <SlogP_VSA0>
0

>  <SlogP_VSA1>
13.433075

>  <SlogP_VSA2>
23.862217

>  <SlogP_VSA3>
25.385227

>  <SlogP_VSA4>
27.047791

>  <SlogP_VSA5>
0

>  <SlogP_VSA6>
0

>  <SlogP_VSA7>
176.6769

>  <SlogP_VSA8>
37.736813

>  <SlogP_VSA9>
0

>  <SMR>
8.9578304

>  <SMR_VSA0>
47.724434

>  <SMR_VSA1>
0

>  <SMR_VSA2>
25.385227

>  <SMR_VSA3>
3.185575

>  <SMR_VSA4>
17.888229

>  <SMR_VSA5>
196.52547

>  <SMR_VSA6>
13.433075

>  <SMR_VSA7>
0

>  <TPSA>
54.369999

>  <VAdjEq>
0.46357921

>  <VAdjMa>
5.7004399

>  <VDistEq>
3.2728443

>  <VDistMa>
8.7421665

>  <vdw_area>
266.99915

>  <vdw_vol>
410.56152

>  <vsa_acc>
13.566921

>  <vsa_acid>
0

>  <vsa_base>
0

>  <vsa_don>
0

>  <vsa_hyd>
189.35323

>  <vsa_other>
23.167019

>  <vsa_pol>
40.700764

>  <Weight>
302.32898

>  <weinerPath>
1167

>  <weinerPol>
40

>  <zagreb>
128

$$$$