O1[C@@H](CO)[C@H](O)C[C@H]1N1C=C(C)C(=O)NC1=O
  MOE2013           2D

 17 18  0  0  1  0  0  0  0  0999 V2000
    0.0000    0.0000    0.0000 O   0  0  0  0  0  0  0  0  0  0  0  0
   -1.4380   -0.4260    0.0000 C   0  0  1  0  0  0  0  0  0  0  0  0
   -2.6280    0.4880    0.0000 C   0  0  0  0  0  0  0  0  0  0  0  0
   -2.4320    1.9750    0.0000 O   0  0  0  0  0  0  0  0  0  0  0  0
   -1.4780   -1.9250    0.0000 C   0  0  2  0  0  0  0  0  0  0  0  0
   -2.7150   -2.7740    0.0000 O   0  0  0  0  0  0  0  0  0  0  0  0
   -0.0640   -2.4260    0.0000 C   0  0  0  0  0  0  0  0  0  0  0  0
    0.8490   -1.2360    0.0000 C   0  0  1  0  0  0  0  0  0  0  0  0
    2.3490   -1.2760    0.0000 N   0  0  0  0  0  0  0  0  0  0  0  0
    3.1330    0.0020    0.0000 C   0  0  0  0  0  0  0  0  0  0  0  0
    4.6320   -0.0370    0.0000 C   0  0  0  0  0  0  0  0  0  0  0  0
    5.4160    1.2410    0.0000 C   0  0  0  0  0  0  0  0  0  0  0  0
    5.3480   -1.3560    0.0000 C   0  0  0  0  0  0  0  0  0  0  0  0
    6.8470   -1.3960    0.0000 O   0  0  0  0  0  0  0  0  0  0  0  0
    4.5630   -2.6340    0.0000 N   0  0  0  0  0  0  0  0  0  0  0  0
    3.0640   -2.5950    0.0000 C   0  0  0  0  0  0  0  0  0  0  0  0
    2.2800   -3.8730    0.0000 O   0  0  0  0  0  0  0  0  0  0  0  0
  1  2  1  0  0  0  0
  1  8  1  0  0  0  0
  2  3  1  6  0  0  0
  2  5  1  0  0  0  0
  3  4  1  0  0  0  0
  5  6  1  1  0  0  0
  5  7  1  0  0  0  0
  7  8  1  0  0  0  0
  8  9  1  6  0  0  0
  9 10  1  0  0  0  0
  9 16  1  0  0  0  0
 10 11  2  0  0  0  0
 11 12  1  0  0  0  0
 11 13  1  0  0  0  0
 13 14  2  0  0  0  0
 13 15  1  0  0  0  0
 15 16  1  0  0  0  0
 16 17  2  0  0  0  0
M  END
>  <Index>
1037

>  <ID>
HT1992

>  <class>
0

>  <apol>
33.145103

>  <ast_fraglike>
0

>  <ast_fraglike_ext>
0

>  <ast_violation>
1

>  <ast_violation_ext>
2

>  <a_acc>
5

>  <a_acid>
0

>  <a_aro>
0

>  <a_base>
0

>  <a_count>
31

>  <a_don>
3

>  <a_donacc>
8

>  <a_heavy>
17

>  <a_hyd>
7

>  <a_IC>
53.448196

>  <a_ICM>
1.7241353

>  <a_nB>
0

>  <a_nBr>
0

>  <a_nC>
10

>  <a_nCl>
0

>  <a_nF>
0

>  <a_nH>
14

>  <a_nI>
0

>  <a_nN>
2

>  <a_nO>
5

>  <a_nP>
0

>  <a_nS>
0

>  <balabanJ>
1.9884326

>  <BCUT_PEOE_0>
-2.5259256

>  <BCUT_PEOE_1>
-0.51476717

>  <BCUT_PEOE_2>
0.56576222

>  <BCUT_PEOE_3>
2.7557399

>  <BCUT_SLOGP_0>
-2.6748116

>  <BCUT_SLOGP_1>
-0.54950362

>  <BCUT_SLOGP_2>
0.58036184

>  <BCUT_SLOGP_3>
2.6416163

>  <BCUT_SMR_0>
-2.3166573

>  <BCUT_SMR_1>
-0.38593283

>  <BCUT_SMR_2>
0.64467371

>  <BCUT_SMR_3>
2.9648211

>  <bpol>
21.776897

>  <b_1rotN>
2

>  <b_1rotR>
0.11111111

>  <b_ar>
0

>  <b_count>
32

>  <b_double>
3

>  <b_heavy>
18

>  <b_max1len>
4

>  <b_rotN>
2

>  <b_rotR>
0.11111111

>  <b_single>
29

>  <b_triple>
0

>  <chi0>
12.576985

>  <chi0v>
9.29

>  <chi0v_C>
6.2236147

>  <chi0_C>
6.585422

>  <chi1>
8.0240755

>  <chi1v>
5.2908373

>  <chi1v_C>
2.5967534

>  <chi1_C>
2.8770101

>  <chiral>
3

>  <chiral_u>
0

>  <density>
0.83890259

>  <diameter>
9

>  <FCharge>
0

>  <GCUT_PEOE_0>
-0.80185753

>  <GCUT_PEOE_1>
-0.44406608

>  <GCUT_PEOE_2>
0.10643866

>  <GCUT_PEOE_3>
2.5530691

>  <GCUT_SLOGP_0>
-1.1699582

>  <GCUT_SLOGP_1>
-0.43331873

>  <GCUT_SLOGP_2>
-3.9316415e-005

>  <GCUT_SLOGP_3>
2.4779816

>  <GCUT_SMR_0>
-0.52691746

>  <GCUT_SMR_1>
-0.22925818

>  <GCUT_SMR_2>
0.15959023

>  <GCUT_SMR_3>
2.7729201

>  <Kier1>
13.432098

>  <Kier2>
5.3254437

>  <Kier3>
2.7128029

>  <KierA1>
10.681581

>  <KierA2>
4.1693964

>  <KierA3>
2.0976055

>  <KierFlex>
2.6197495

>  <lip_acc>
7

>  <lip_don>
3

>  <lip_druglike>
1

>  <lip_violation>
0

>  <logP(o/w)>
-1.789

>  <logS>
-0.29291001

>  <mr>
5.6780629

>  <mutagenic>
0

>  <nmol>
1

>  <opr_brigid>
11

>  <opr_leadlike>
1

>  <opr_nring>
2

>  <opr_nrot>
3

>  <opr_violation>
0

>  <PC+>
0

>  <PC->
0

>  <PEOE_PC+>
2.225086

>  <PEOE_PC->
-2.225086

>  <PEOE_RPC+>
0.14890845

>  <PEOE_RPC->
0.1763382

>  <PEOE_VSA+0>
48.982697

>  <PEOE_VSA+1>
45.44854

>  <PEOE_VSA+2>
14.300869

>  <PEOE_VSA+3>
8.6190128

>  <PEOE_VSA+4>
20.648346

>  <PEOE_VSA+5>
12.949531

>  <PEOE_VSA+6>
17.440542

>  <PEOE_VSA-0>
18.747677

>  <PEOE_VSA-1>
0

>  <PEOE_VSA-2>
0

>  <PEOE_VSA-3>
0

>  <PEOE_VSA-4>
13.566921

>  <PEOE_VSA-5>
13.703812

>  <PEOE_VSA-6>
18.038837

>  <PEOE_VSA_FHYD>
0.58550519

>  <PEOE_VSA_FNEG>
0.27557811

>  <PEOE_VSA_FPNEG>
0.19492449

>  <PEOE_VSA_FPOL>
0.41449481

>  <PEOE_VSA_FPOS>
0.72442186

>  <PEOE_VSA_FPPOS>
0.21957034

>  <PEOE_VSA_HYD>
136.0988

>  <PEOE_VSA_NEG>
64.057243

>  <PEOE_VSA_PNEG>
45.30957

>  <PEOE_VSA_POL>
96.347992

>  <PEOE_VSA_POS>
168.38954

>  <PEOE_VSA_PPOS>
51.038418

>  <petitjean>
0.44444445

>  <petitjeanSC>
0.80000001

>  <Q_PC+>
0

>  <Q_PC->
0

>  <Q_RPC+>
0

>  <Q_RPC->
0

>  <Q_VSA_FHYD>
1

>  <Q_VSA_FNEG>
0

>  <Q_VSA_FPNEG>
0

>  <Q_VSA_FPOL>
0

>  <Q_VSA_FPOS>
1

>  <Q_VSA_FPPOS>
0

>  <Q_VSA_HYD>
232.44678

>  <Q_VSA_NEG>
0

>  <Q_VSA_PNEG>
0

>  <Q_VSA_POL>
0

>  <Q_VSA_POS>
232.44678

>  <Q_VSA_PPOS>
0

>  <radius>
5

>  <reactive>
0

>  <rings>
2

>  <RPC+>
0

>  <RPC->
0

>  <rsynth>
1

>  <SlogP>
-1.0898

>  <SlogP_VSA0>
68.781204

>  <SlogP_VSA1>
13.213054

>  <SlogP_VSA2>
53.839226

>  <SlogP_VSA3>
20.926258

>  <SlogP_VSA4>
0

>  <SlogP_VSA5>
3.185575

>  <SlogP_VSA6>
0

>  <SlogP_VSA7>
17.214357

>  <SlogP_VSA8>
18.868406

>  <SlogP_VSA9>
57.188232

>  <SMR>
5.55053

>  <SMR_VSA0>
58.724319

>  <SMR_VSA1>
53.894768

>  <SMR_VSA2>
18.01075

>  <SMR_VSA3>
22.162695

>  <SMR_VSA4>
0

>  <SMR_VSA5>
36.082764

>  <SMR_VSA6>
31.014997

>  <SMR_VSA7>
33.326015

>  <TPSA>
99.099998

>  <VAdjEq>
0.54234898

>  <VAdjMa>
5.1699252

>  <VDistEq>
2.8886442

>  <VDistMa>
7.8820791

>  <vdw_area>
232.44678

>  <vdw_vol>
288.74747

>  <vsa_acc>
29.637598

>  <vsa_acid>
0

>  <vsa_base>
0

>  <vsa_don>
5.6825762

>  <vsa_hyd>
106.7005

>  <vsa_other>
43.339603

>  <vsa_pol>
62.454014

>  <Weight>
242.23099

>  <weinerPath>
505

>  <weinerPol>
26

>  <zagreb>
88

$$$$