S1c2c(N(c3c1cccc3)CCCN1CCN(CC1)C(CC)(CC)CC)cccc2
  MOE2013           2D

 30 33  0  0  0  0  0  0  0  0999 V2000
    0.0000    0.0000    0.0000 S   0  0  0  0  0  0  0  0  0  0  0  0
   -0.0070   -1.5000    0.0000 C   0  0  0  0  0  0  0  0  0  0  0  0
    1.2880   -2.2560    0.0000 C   0  0  0  0  0  0  0  0  0  0  0  0
    2.5910   -1.5120    0.0000 N   0  0  0  0  0  0  0  0  0  0  0  0
    2.5980   -0.0120    0.0000 C   0  0  0  0  0  0  0  0  0  0  0  0
    1.3030    0.7440    0.0000 C   0  0  0  0  0  0  0  0  0  0  0  0
    1.3100    2.2440    0.0000 C   0  0  0  0  0  0  0  0  0  0  0  0
    2.6120    2.9870    0.0000 C   0  0  0  0  0  0  0  0  0  0  0  0
    3.9080    2.2310    0.0000 C   0  0  0  0  0  0  0  0  0  0  0  0
    3.9010    0.7310    0.0000 C   0  0  0  0  0  0  0  0  0  0  0  0
    3.8860   -2.2690    0.0000 C   0  0  0  0  0  0  0  0  0  0  0  0
    5.1890   -1.5250    0.0000 C   0  0  0  0  0  0  0  0  0  0  0  0
    6.4840   -2.2810    0.0000 C   0  0  0  0  0  0  0  0  0  0  0  0
    7.7870   -1.5370    0.0000 N   0  0  0  0  0  0  0  0  0  0  0  0
    7.7940   -0.0370    0.0000 C   0  0  0  0  0  0  0  0  0  0  0  0
    9.0970    0.7060    0.0000 C   0  0  0  0  0  0  0  0  0  0  0  0
   10.3920   -0.0500    0.0000 N   0  0  0  0  0  0  0  0  0  0  0  0
   10.3850   -1.5500    0.0000 C   0  0  0  0  0  0  0  0  0  0  0  0
    9.0820   -2.2940    0.0000 C   0  0  0  0  0  0  0  0  0  0  0  0
   11.6950    0.6940    0.0000 C   0  0  0  0  0  0  0  0  0  0  0  0
   12.9970    1.4380    0.0000 C   0  0  0  0  0  0  0  0  0  0  0  0
   14.2930    0.6810    0.0000 C   0  0  0  0  0  0  0  0  0  0  0  0
   10.9510    1.9960    0.0000 C   0  0  0  0  0  0  0  0  0  0  0  0
   11.7070    3.2920    0.0000 C   0  0  0  0  0  0  0  0  0  0  0  0
   12.4390   -0.6090    0.0000 C   0  0  0  0  0  0  0  0  0  0  0  0
   13.9390   -0.6160    0.0000 C   0  0  0  0  0  0  0  0  0  0  0  0
    1.2810   -3.7560    0.0000 C   0  0  0  0  0  0  0  0  0  0  0  0
   -0.0220   -4.5000    0.0000 C   0  0  0  0  0  0  0  0  0  0  0  0
   -1.3170   -3.7440    0.0000 C   0  0  0  0  0  0  0  0  0  0  0  0
   -1.3100   -2.2440    0.0000 C   0  0  0  0  0  0  0  0  0  0  0  0
  1  2  1  0  0  0  0
  1  6  1  0  0  0  0
  2  3  1  0  0  0  0
  2 30  2  0  0  0  0
  3  4  1  0  0  0  0
  3 27  2  0  0  0  0
  4  5  1  0  0  0  0
  4 11  1  0  0  0  0
  5  6  1  0  0  0  0
  5 10  2  0  0  0  0
  6  7  2  0  0  0  0
  7  8  1  0  0  0  0
  8  9  2  0  0  0  0
  9 10  1  0  0  0  0
 11 12  1  0  0  0  0
 12 13  1  0  0  0  0
 13 14  1  0  0  0  0
 14 15  1  0  0  0  0
 14 19  1  0  0  0  0
 15 16  1  0  0  0  0
 16 17  1  0  0  0  0
 17 18  1  0  0  0  0
 17 20  1  0  0  0  0
 18 19  1  0  0  0  0
 20 21  1  0  0  0  0
 20 23  1  0  0  0  0
 20 25  1  0  0  0  0
 21 22  1  0  0  0  0
 23 24  1  0  0  0  0
 25 26  1  0  0  0  0
 27 28  1  0  0  0  0
 28 29  2  0  0  0  0
 29 30  1  0  0  0  0
M  END
>  <Index>
1381

>  <ID>
HT3806

>  <class>
0

>  <apol>
76.63134

>  <ast_fraglike>
0

>  <ast_fraglike_ext>
0

>  <ast_violation>
2

>  <ast_violation_ext>
3

>  <a_acc>
2

>  <a_acid>
0

>  <a_aro>
12

>  <a_base>
0

>  <a_count>
67

>  <a_don>
0

>  <a_donacc>
2

>  <a_heavy>
30

>  <a_hyd>
27

>  <a_IC>
86.711884

>  <a_ICM>
1.2942072

>  <a_nB>
0

>  <a_nBr>
0

>  <a_nC>
26

>  <a_nCl>
0

>  <a_nF>
0

>  <a_nH>
37

>  <a_nI>
0

>  <a_nN>
3

>  <a_nO>
0

>  <a_nP>
0

>  <a_nS>
1

>  <balabanJ>
1.2719886

>  <BCUT_PEOE_0>
-2.8622427

>  <BCUT_PEOE_1>
-0.48546049

>  <BCUT_PEOE_2>
0.53060263

>  <BCUT_PEOE_3>
2.7683656

>  <BCUT_SLOGP_0>
-2.9344008

>  <BCUT_SLOGP_1>
-0.43001875

>  <BCUT_SLOGP_2>
0.64268827

>  <BCUT_SLOGP_3>
2.7863691

>  <BCUT_SMR_0>
-2.5826349

>  <BCUT_SMR_1>
-0.31068432

>  <BCUT_SMR_2>
0.68767178

>  <BCUT_SMR_3>
3.0413322

>  <bpol>
48.668659

>  <b_1rotN>
8

>  <b_1rotR>
0.24242425

>  <b_ar>
12

>  <b_count>
70

>  <b_double>
0

>  <b_heavy>
33

>  <b_max1len>
6

>  <b_rotN>
8

>  <b_rotR>
0.24242425

>  <b_single>
58

>  <b_triple>
0

>  <chi0>
20.97648

>  <chi0v>
19.756256

>  <chi0v_C>
17.189871

>  <chi0_C>
18.537323

>  <chi1>
14.702969

>  <chi1v>
12.629613

>  <chi1v_C>
8.8366814

>  <chi1_C>
10.481641

>  <chiral>
0

>  <chiral_u>
0

>  <density>
0.66808772

>  <diameter>
14

>  <FCharge>
0

>  <GCUT_PEOE_0>
-0.85951442

>  <GCUT_PEOE_1>
-0.3383393

>  <GCUT_PEOE_2>
-0.029753802

>  <GCUT_PEOE_3>
3.0088813

>  <GCUT_SLOGP_0>
-0.96449882

>  <GCUT_SLOGP_1>
-0.22952905

>  <GCUT_SLOGP_2>
0.13255523

>  <GCUT_SLOGP_3>
3.0576189

>  <GCUT_SMR_0>
-0.53134906

>  <GCUT_SMR_1>
-0.18470456

>  <GCUT_SMR_2>
0.15536548

>  <GCUT_SMR_3>
3.2595649

>  <Kier1>
23.168043

>  <Kier2>
10.744802

>  <Kier3>
5.0101776

>  <KierA1>
20.373411

>  <KierA2>
9.4049597

>  <KierA3>
4.3710365

>  <KierFlex>
6.3870373

>  <lip_acc>
3

>  <lip_don>
0

>  <lip_druglike>
1

>  <lip_violation>
1

>  <logP(o/w)>
6.572

>  <logS>
-5.4735298

>  <mr>
12.92395

>  <mutagenic>
0

>  <nmol>
1

>  <opr_brigid>
22

>  <opr_leadlike>
1

>  <opr_nring>
4

>  <opr_nrot>
10

>  <opr_violation>
1

>  <PC+>
0

>  <PC->
0

>  <PEOE_PC+>
1.6712865

>  <PEOE_PC->
-1.6712865

>  <PEOE_RPC+>
0.037914347

>  <PEOE_RPC->
0.1794197

>  <PEOE_VSA+0>
224.61845

>  <PEOE_VSA+1>
34.123089

>  <PEOE_VSA+2>
0

>  <PEOE_VSA+3>
0

>  <PEOE_VSA+4>
0

>  <PEOE_VSA+5>
0

>  <PEOE_VSA+6>
0

>  <PEOE_VSA-0>
83.824867

>  <PEOE_VSA-1>
125.02327

>  <PEOE_VSA-2>
0

>  <PEOE_VSA-3>
0

>  <PEOE_VSA-4>
0

>  <PEOE_VSA-5>
0

>  <PEOE_VSA-6>
0

>  <PEOE_VSA_FHYD>
1

>  <PEOE_VSA_FNEG>
0.4466483

>  <PEOE_VSA_FPNEG>
0

>  <PEOE_VSA_FPOL>
0

>  <PEOE_VSA_FPOS>
0.5533517

>  <PEOE_VSA_FPPOS>
0

>  <PEOE_VSA_HYD>
467.58966

>  <PEOE_VSA_NEG>
208.84813

>  <PEOE_VSA_PNEG>
0

>  <PEOE_VSA_POL>
0

>  <PEOE_VSA_POS>
258.74155

>  <PEOE_VSA_PPOS>
0

>  <petitjean>
0.5

>  <petitjeanSC>
1

>  <Q_PC+>
0

>  <Q_PC->
0

>  <Q_RPC+>
0

>  <Q_RPC->
0

>  <Q_VSA_FHYD>
1

>  <Q_VSA_FNEG>
0

>  <Q_VSA_FPNEG>
0

>  <Q_VSA_FPOL>
0

>  <Q_VSA_FPOS>
1

>  <Q_VSA_FPPOS>
0

>  <Q_VSA_HYD>
467.58966

>  <Q_VSA_NEG>
0

>  <Q_VSA_PNEG>
0

>  <Q_VSA_POL>
0

>  <Q_VSA_POS>
467.58966

>  <Q_VSA_PPOS>
0

>  <radius>
7

>  <reactive>
0

>  <rings>
4

>  <RPC+>
0

>  <RPC->
0

>  <rsynth>
0.73333335

>  <SlogP>
6.2658

>  <SlogP_VSA0>
3.1243138

>  <SlogP_VSA1>
6.2486277

>  <SlogP_VSA2>
0

>  <SlogP_VSA3>
110.63747

>  <SlogP_VSA4>
0

>  <SlogP_VSA5>
3.1014678

>  <SlogP_VSA6>
0

>  <SlogP_VSA7>
141.14548

>  <SlogP_VSA8>
75.473625

>  <SlogP_VSA9>
137.71107

>  <SMR>
13.0248

>  <SMR_VSA0>
0

>  <SMR_VSA1>
6.2486277

>  <SMR_VSA2>
6.2257819

>  <SMR_VSA3>
0

>  <SMR_VSA4>
5.513495

>  <SMR_VSA5>
216.61909

>  <SMR_VSA6>
110.63747

>  <SMR_VSA7>
132.19759

>  <TPSA>
9.7200003

>  <VAdjEq>
0.37824166

>  <VAdjMa>
6.044394

>  <VDistEq>
3.6958973

>  <VDistMa>
9.4967184

>  <vdw_area>
467.58966

>  <vdw_vol>
634.15173

>  <vsa_acc>
0

>  <vsa_acid>
0

>  <vsa_base>
0

>  <vsa_don>
0

>  <vsa_hyd>
441.25323

>  <vsa_other>
0

>  <vsa_pol>
0

>  <Weight>
423.66901

>  <weinerPath>
2717

>  <weinerPol>
53

>  <zagreb>
158

$$$$