OC(=O)c1ccccc1-c1ccc(cc1)Cn1c2c(nc1CCC)c(cc(c2)-c1nc2c(n1C)cccc2)C
  MOE2013           2D

 39 44  0  0  0  0  0  0  0  0999 V2000
    0.0000    0.0000    0.0000 O   0  0  0  0  0  0  0  0  0  0  0  0
    1.5000    0.0020    0.0000 C   0  0  0  0  0  0  0  0  0  0  0  0
    2.2520   -1.2960    0.0000 O   0  0  0  0  0  0  0  0  0  0  0  0
    2.2480    1.3020    0.0000 C   0  0  0  0  0  0  0  0  0  0  0  0
    3.7480    1.3040    0.0000 C   0  0  0  0  0  0  0  0  0  0  0  0
    4.4960    2.6040    0.0000 C   0  0  0  0  0  0  0  0  0  0  0  0
    3.7450    3.9020    0.0000 C   0  0  0  0  0  0  0  0  0  0  0  0
    2.2450    3.9000    0.0000 C   0  0  0  0  0  0  0  0  0  0  0  0
    1.4960    2.6000    0.0000 C   0  0  0  0  0  0  0  0  0  0  0  0
   -0.0040    2.5980    0.0000 C   0  0  0  0  0  0  0  0  0  0  0  0
   -0.7550    3.8960    0.0000 C   0  0  0  0  0  0  0  0  0  0  0  0
   -2.2550    3.8940    0.0000 C   0  0  0  0  0  0  0  0  0  0  0  0
   -3.0040    2.5940    0.0000 C   0  0  0  0  0  0  0  0  0  0  0  0
   -2.2520    1.2960    0.0000 C   0  0  0  0  0  0  0  0  0  0  0  0
   -0.7520    1.2980    0.0000 C   0  0  0  0  0  0  0  0  0  0  0  0
   -4.5040    2.5920    0.0000 C   0  0  0  0  0  0  0  0  0  0  0  0
   -5.2550    3.8900    0.0000 N   0  0  0  0  0  0  0  0  0  0  0  0
   -6.7470    4.0450    0.0000 C   0  0  0  0  0  0  0  0  0  0  0  0
   -7.0610    5.5110    0.0000 C   0  0  0  0  0  0  0  0  0  0  0  0
   -5.7630    6.2630    0.0000 N   0  0  0  0  0  0  0  0  0  0  0  0
   -4.6470    5.2610    0.0000 C   0  0  0  0  0  0  0  0  0  0  0  0
   -3.1800    5.5750    0.0000 C   0  0  0  0  0  0  0  0  0  0  0  0
   -2.7190    7.0020    0.0000 C   0  0  0  0  0  0  0  0  0  0  0  0
   -1.2520    7.3160    0.0000 C   0  0  0  0  0  0  0  0  0  0  0  0
   -8.4890    5.9730    0.0000 C   0  0  0  0  0  0  0  0  0  0  0  0
   -9.6020    4.9680    0.0000 C   0  0  0  0  0  0  0  0  0  0  0  0
   -9.2880    3.5010    0.0000 C   0  0  0  0  0  0  0  0  0  0  0  0
   -7.8610    3.0390    0.0000 C   0  0  0  0  0  0  0  0  0  0  0  0
  -10.4010    2.4960    0.0000 C   0  0  0  0  0  0  0  0  0  0  0  0
  -10.2420    1.0040    0.0000 N   0  0  0  0  0  0  0  0  0  0  0  0
  -11.6120    0.3920    0.0000 C   0  0  0  0  0  0  0  0  0  0  0  0
  -12.6170    1.5050    0.0000 C   0  0  0  0  0  0  0  0  0  0  0  0
  -11.8690    2.8050    0.0000 N   0  0  0  0  0  0  0  0  0  0  0  0
  -12.4810    4.1750    0.0000 C   0  0  0  0  0  0  0  0  0  0  0  0
  -14.0840    1.1910    0.0000 C   0  0  0  0  0  0  0  0  0  0  0  0
  -14.5450   -0.2360    0.0000 C   0  0  0  0  0  0  0  0  0  0  0  0
  -13.5400   -1.3490    0.0000 C   0  0  0  0  0  0  0  0  0  0  0  0
  -12.0730   -1.0350    0.0000 C   0  0  0  0  0  0  0  0  0  0  0  0
   -8.8020    7.4400    0.0000 C   0  0  0  0  0  0  0  0  0  0  0  0
  1  2  1  0  0  0  0
  2  3  2  0  0  0  0
  2  4  1  0  0  0  0
  4  5  1  0  0  0  0
  4  9  2  0  0  0  0
  5  6  2  0  0  0  0
  6  7  1  0  0  0  0
  7  8  2  0  0  0  0
  8  9  1  0  0  0  0
  9 10  1  0  0  0  0
 10 11  1  0  0  0  0
 10 15  2  0  0  0  0
 11 12  2  0  0  0  0
 12 13  1  0  0  0  0
 13 14  2  0  0  0  0
 13 16  1  0  0  0  0
 14 15  1  0  0  0  0
 16 17  1  0  0  0  0
 17 18  1  0  0  0  0
 17 21  1  0  0  0  0
 18 19  1  0  0  0  0
 18 28  2  0  0  0  0
 19 20  1  0  0  0  0
 19 25  2  0  0  0  0
 20 21  2  0  0  0  0
 21 22  1  0  0  0  0
 22 23  1  0  0  0  0
 23 24  1  0  0  0  0
 25 26  1  0  0  0  0
 25 39  1  0  0  0  0
 26 27  2  0  0  0  0
 27 28  1  0  0  0  0
 27 29  1  0  0  0  0
 29 30  2  0  0  0  0
 29 33  1  0  0  0  0
 30 31  1  0  0  0  0
 31 32  1  0  0  0  0
 31 38  2  0  0  0  0
 32 33  1  0  0  0  0
 32 35  2  0  0  0  0
 33 34  1  0  0  0  0
 35 36  1  0  0  0  0
 36 37  2  0  0  0  0
 37 38  1  0  0  0  0
M  END
>  <Index>
1039

>  <ID>
HT1995

>  <class>
0

>  <apol>
84.087791

>  <ast_fraglike>
0

>  <ast_fraglike_ext>
0

>  <ast_violation>
3

>  <ast_violation_ext>
4

>  <a_acc>
4

>  <a_acid>
0

>  <a_aro>
30

>  <a_base>
0

>  <a_count>
69

>  <a_don>
2

>  <a_donacc>
6

>  <a_heavy>
39

>  <a_hyd>
30

>  <a_IC>
97.816467

>  <a_ICM>
1.41763

>  <a_nB>
0

>  <a_nBr>
0

>  <a_nC>
33

>  <a_nCl>
0

>  <a_nF>
0

>  <a_nH>
30

>  <a_nI>
0

>  <a_nN>
4

>  <a_nO>
2

>  <a_nP>
0

>  <a_nS>
0

>  <balabanJ>
1.1022122

>  <BCUT_PEOE_0>
-2.5107801

>  <BCUT_PEOE_1>
-0.63071603

>  <BCUT_PEOE_2>
0.60854888

>  <BCUT_PEOE_3>
2.4899631

>  <BCUT_SLOGP_0>
-2.418618

>  <BCUT_SLOGP_1>
-0.54122639

>  <BCUT_SLOGP_2>
0.71508205

>  <BCUT_SLOGP_3>
2.5935302

>  <BCUT_SMR_0>
-2.2690291

>  <BCUT_SMR_1>
-0.43364879

>  <BCUT_SMR_2>
0.7943303

>  <BCUT_SMR_3>
2.7507029

>  <bpol>
40.35421

>  <b_1rotN>
7

>  <b_1rotR>
0.15909091

>  <b_ar>
32

>  <b_count>
74

>  <b_double>
1

>  <b_heavy>
44

>  <b_max1len>
4

>  <b_rotN>
7

>  <b_rotR>
0.15909091

>  <b_single>
41

>  <b_triple>
0

>  <chi0>
27.095284

>  <chi0v>
22.348541

>  <chi0v_C>
19.704224

>  <chi0_C>
22.526369

>  <chi1>
18.939892

>  <chi1v>
13.275008

>  <chi1v_C>
10.294982

>  <chi1_C>
13.833266

>  <chiral>
0

>  <chiral_u>
0

>  <density>
0.70470804

>  <diameter>
17

>  <FCharge>
0

>  <GCUT_PEOE_0>
-0.84563214

>  <GCUT_PEOE_1>
-0.40668052

>  <GCUT_PEOE_2>
0.062136393

>  <GCUT_PEOE_3>
2.8504965

>  <GCUT_SLOGP_0>
-0.85411787

>  <GCUT_SLOGP_1>
-0.2861304

>  <GCUT_SLOGP_2>
0.14284502

>  <GCUT_SLOGP_3>
2.9848545

>  <GCUT_SMR_0>
-0.52446198

>  <GCUT_SMR_1>
-0.21054575

>  <GCUT_SMR_2>
0.18893324

>  <GCUT_SMR_3>
3.154408

>  <Kier1>
29.088842

>  <Kier2>
12.700684

>  <Kier3>
5.9471078

>  <KierA1>
20.24811

>  <KierA2>
8.7497644

>  <KierA3>
4.0667377

>  <KierFlex>
4.5427227

>  <lip_acc>
6

>  <lip_don>
1

>  <lip_druglike>
0

>  <lip_violation>
2

>  <logP(o/w)>
8.4860001

>  <logS>
-9.73139

>  <mr>
15.480343

>  <mutagenic>
0

>  <nmol>
1

>  <opr_brigid>
32

>  <opr_leadlike>
0

>  <opr_nring>
6

>  <opr_nrot>
7

>  <opr_violation>
3

>  <PC+>
0

>  <PC->
0

>  <PEOE_PC+>
2.6246643

>  <PEOE_PC->
-2.6246643

>  <PEOE_RPC+>
0.11118596

>  <PEOE_RPC->
0.12476845

>  <PEOE_VSA+0>
102.79089

>  <PEOE_VSA+1>
97.252922

>  <PEOE_VSA+2>
22.381124

>  <PEOE_VSA+3>
0

>  <PEOE_VSA+4>
10.324173

>  <PEOE_VSA+5>
14.708499

>  <PEOE_VSA+6>
0

>  <PEOE_VSA-0>
97.557671

>  <PEOE_VSA-1>
129.04181

>  <PEOE_VSA-2>
0

>  <PEOE_VSA-3>
0

>  <PEOE_VSA-4>
11.365152

>  <PEOE_VSA-5>
13.566921

>  <PEOE_VSA-6>
7.7675405

>  <PEOE_VSA_FHYD>
0.88607496

>  <PEOE_VSA_FNEG>
0.51168358

>  <PEOE_VSA_FPNEG>
0.064527243

>  <PEOE_VSA_FPOL>
0.11392505

>  <PEOE_VSA_FPOS>
0.48831639

>  <PEOE_VSA_FPPOS>
0.049397811

>  <PEOE_VSA_HYD>
449.02441

>  <PEOE_VSA_NEG>
259.2991

>  <PEOE_VSA_PNEG>
32.699612

>  <PEOE_VSA_POL>
57.732285

>  <PEOE_VSA_POS>
247.4576

>  <PEOE_VSA_PPOS>
25.032671

>  <petitjean>
0.47058824

>  <petitjeanSC>
0.8888889

>  <Q_PC+>
0

>  <Q_PC->
0

>  <Q_RPC+>
0

>  <Q_RPC->
0

>  <Q_VSA_FHYD>
1

>  <Q_VSA_FNEG>
0

>  <Q_VSA_FPNEG>
0

>  <Q_VSA_FPOL>
0

>  <Q_VSA_FPOS>
1

>  <Q_VSA_FPPOS>
0

>  <Q_VSA_HYD>
506.75668

>  <Q_VSA_NEG>
0

>  <Q_VSA_PNEG>
0

>  <Q_VSA_POL>
0

>  <Q_VSA_POS>
506.75668

>  <Q_VSA_PPOS>
0

>  <radius>
9

>  <reactive>
0

>  <rings>
6

>  <RPC+>
0

>  <RPC->
0

>  <rsynth>
1

>  <SlogP>
7.8899899

>  <SlogP_VSA0>
0

>  <SlogP_VSA1>
45.114708

>  <SlogP_VSA2>
0

>  <SlogP_VSA3>
25.385227

>  <SlogP_VSA4>
35.746861

>  <SlogP_VSA5>
18.868406

>  <SlogP_VSA6>
0

>  <SlogP_VSA7>
267.46576

>  <SlogP_VSA8>
18.868406

>  <SlogP_VSA9>
117.98879

>  <SMR>
15.65983

>  <SMR_VSA0>
23.862217

>  <SMR_VSA1>
37.369244

>  <SMR_VSA2>
25.385227

>  <SMR_VSA3>
11.884645

>  <SMR_VSA4>
20.461193

>  <SMR_VSA5>
303.18097

>  <SMR_VSA6>
7.7454643

>  <SMR_VSA7>
99.549217

>  <TPSA>
72.940002

>  <VAdjEq>
0.31887728

>  <VAdjMa>
6.4594316

>  <VDistEq>
3.9165215

>  <VDistMa>
10.280373

>  <vdw_area>
506.75668

>  <vdw_vol>
730.27264

>  <vsa_acc>
11.365152

>  <vsa_acid>
0

>  <vsa_base>
0

>  <vsa_don>
0

>  <vsa_hyd>
406.00122

>  <vsa_other>
37.089626

>  <vsa_pol>
38.498993

>  <Weight>
514.62897

>  <weinerPath>
5229

>  <weinerPol>
69

>  <zagreb>
216

$$$$