S(C(=O)C(c1ccccc1)c1ccccc1)CCN(CC)CC
  MOE2013           2D

 23 24  0  0  0  0  0  0  0  0999 V2000
    0.0000    0.0000    0.0000 S   0  0  0  0  0  0  0  0  0  0  0  0
   -0.7460   -1.3010    0.0000 C   0  0  0  0  0  0  0  0  0  0  0  0
    0.0070   -2.5980    0.0000 O   0  0  0  0  0  0  0  0  0  0  0  0
   -2.2460   -1.3050    0.0000 C   0  0  0  0  0  0  0  0  0  0  0  0
   -3.0000   -0.0080    0.0000 C   0  0  0  0  0  0  0  0  0  0  0  0
   -4.5000   -0.0130    0.0000 C   0  0  0  0  0  0  0  0  0  0  0  0
   -5.2540    1.2840    0.0000 C   0  0  0  0  0  0  0  0  0  0  0  0
   -4.5070    2.5850    0.0000 C   0  0  0  0  0  0  0  0  0  0  0  0
   -3.0070    2.5900    0.0000 C   0  0  0  0  0  0  0  0  0  0  0  0
   -2.2540    1.2930    0.0000 C   0  0  0  0  0  0  0  0  0  0  0  0
   -2.9930   -2.6070    0.0000 C   0  0  0  0  0  0  0  0  0  0  0  0
   -4.4930   -2.6110    0.0000 C   0  0  0  0  0  0  0  0  0  0  0  0
   -5.2390   -3.9120    0.0000 C   0  0  0  0  0  0  0  0  0  0  0  0
   -4.4850   -5.2090    0.0000 C   0  0  0  0  0  0  0  0  0  0  0  0
   -2.9850   -5.2050    0.0000 C   0  0  0  0  0  0  0  0  0  0  0  0
   -2.2390   -3.9030    0.0000 C   0  0  0  0  0  0  0  0  0  0  0  0
    1.5000    0.0040    0.0000 C   0  0  0  0  0  0  0  0  0  0  0  0
    2.2460    1.3050    0.0000 C   0  0  0  0  0  0  0  0  0  0  0  0
    3.7460    1.3100    0.0000 N   0  0  0  0  0  0  0  0  0  0  0  0
    4.5000    0.0130    0.0000 C   0  0  0  0  0  0  0  0  0  0  0  0
    6.0000    0.0170    0.0000 C   0  0  0  0  0  0  0  0  0  0  0  0
    4.4930    2.6110    0.0000 C   0  0  0  0  0  0  0  0  0  0  0  0
    3.7390    3.9080    0.0000 C   0  0  0  0  0  0  0  0  0  0  0  0
  1  2  1  0  0  0  0
  1 17  1  0  0  0  0
  2  3  2  0  0  0  0
  2  4  1  0  0  0  0
  4  5  1  0  0  0  0
  4 11  1  0  0  0  0
  5  6  1  0  0  0  0
  5 10  2  0  0  0  0
  6  7  2  0  0  0  0
  7  8  1  0  0  0  0
  8  9  2  0  0  0  0
  9 10  1  0  0  0  0
 11 12  1  0  0  0  0
 11 16  2  0  0  0  0
 12 13  2  0  0  0  0
 13 14  1  0  0  0  0
 14 15  2  0  0  0  0
 15 16  1  0  0  0  0
 17 18  1  0  0  0  0
 18 19  1  0  0  0  0
 19 20  1  0  0  0  0
 19 22  1  0  0  0  0
 20 21  1  0  0  0  0
 22 23  1  0  0  0  0
M  END
>  <Index>
1339

>  <ID>
HT3498

>  <class>
0

>  <apol>
56.671825

>  <ast_fraglike>
0

>  <ast_fraglike_ext>
0

>  <ast_violation>
2

>  <ast_violation_ext>
3

>  <a_acc>
2

>  <a_acid>
0

>  <a_aro>
12

>  <a_base>
0

>  <a_count>
48

>  <a_don>
0

>  <a_donacc>
2

>  <a_heavy>
23

>  <a_hyd>
20

>  <a_IC>
65.543236

>  <a_ICM>
1.365484

>  <a_nB>
0

>  <a_nBr>
0

>  <a_nC>
20

>  <a_nCl>
0

>  <a_nF>
0

>  <a_nH>
25

>  <a_nI>
0

>  <a_nN>
1

>  <a_nO>
1

>  <a_nP>
0

>  <a_nS>
1

>  <balabanJ>
1.8908514

>  <BCUT_PEOE_0>
-2.6722267

>  <BCUT_PEOE_1>
-0.56615984

>  <BCUT_PEOE_2>
0.62366229

>  <BCUT_PEOE_3>
2.5718603

>  <BCUT_SLOGP_0>
-2.736799

>  <BCUT_SLOGP_1>
-0.46141538

>  <BCUT_SLOGP_2>
0.72586107

>  <BCUT_SLOGP_3>
2.5557404

>  <BCUT_SMR_0>
-2.3860197

>  <BCUT_SMR_1>
-0.4297317

>  <BCUT_SMR_2>
0.76781034

>  <BCUT_SMR_3>
2.8662076

>  <bpol>
32.548176

>  <b_1rotN>
8

>  <b_1rotR>
0.33333334

>  <b_ar>
12

>  <b_count>
49

>  <b_double>
1

>  <b_heavy>
24

>  <b_max1len>
6

>  <b_rotN>
9

>  <b_rotR>
0.375

>  <b_single>
36

>  <b_triple>
0

>  <chi0>
16.493353

>  <chi0v>
14.759487

>  <chi0v_C>
12.67928

>  <chi0_C>
14.208896

>  <chi1>
11.25755

>  <chi1v>
9.2328119

>  <chi1v_C>
6.6016064

>  <chi1_C>
8.5472069

>  <chiral>
0

>  <chiral_u>
0

>  <density>
0.68122214

>  <diameter>
11

>  <FCharge>
0

>  <GCUT_PEOE_0>
-0.85873389

>  <GCUT_PEOE_1>
-0.35949171

>  <GCUT_PEOE_2>
0.065666355

>  <GCUT_PEOE_3>
2.6081479

>  <GCUT_SLOGP_0>
-0.95816982

>  <GCUT_SLOGP_1>
-0.26386139

>  <GCUT_SLOGP_2>
0.1471646

>  <GCUT_SLOGP_3>
2.6962264

>  <GCUT_SMR_0>
-0.52152914

>  <GCUT_SMR_1>
-0.19412023

>  <GCUT_SMR_2>
0.18184151

>  <GCUT_SMR_3>
2.9000208

>  <Kier1>
19.326389

>  <Kier2>
10.78

>  <Kier3>
6.094183

>  <KierA1>
16.004944

>  <KierA2>
8.8460655

>  <KierA3>
4.9663157

>  <KierFlex>
6.1556859

>  <lip_acc>
2

>  <lip_don>
0

>  <lip_druglike>
1

>  <lip_violation>
0

>  <logP(o/w)>
4.7750001

>  <logS>
-4.9938698

>  <mr>
10.123696

>  <mutagenic>
0

>  <nmol>
1

>  <opr_brigid>
12

>  <opr_leadlike>
1

>  <opr_nring>
2

>  <opr_nrot>
9

>  <opr_violation>
0

>  <PC+>
0

>  <PC->
0

>  <PEOE_PC+>
1.4483211

>  <PEOE_PC->
-1.4483211

>  <PEOE_RPC+>
0.13882533

>  <PEOE_RPC->
0.2085519

>  <PEOE_VSA+0>
87.850487

>  <PEOE_VSA+1>
42.653858

>  <PEOE_VSA+2>
0

>  <PEOE_VSA+3>
0

>  <PEOE_VSA+4>
10.434581

>  <PEOE_VSA+5>
0

>  <PEOE_VSA+6>
0

>  <PEOE_VSA-0>
30.801729

>  <PEOE_VSA-1>
179.80501

>  <PEOE_VSA-2>
0

>  <PEOE_VSA-3>
0

>  <PEOE_VSA-4>
0

>  <PEOE_VSA-5>
13.566921

>  <PEOE_VSA-6>
0

>  <PEOE_VSA_FHYD>
0.93426275

>  <PEOE_VSA_FNEG>
0.613985

>  <PEOE_VSA_FPNEG>
0.037158184

>  <PEOE_VSA_FPOL>
0.065737262

>  <PEOE_VSA_FPOS>
0.38601497

>  <PEOE_VSA_FPPOS>
0.028579077

>  <PEOE_VSA_HYD>
341.11108

>  <PEOE_VSA_NEG>
224.17366

>  <PEOE_VSA_PNEG>
13.566921

>  <PEOE_VSA_POL>
24.001501

>  <PEOE_VSA_POS>
140.93893

>  <PEOE_VSA_PPOS>
10.434581

>  <petitjean>
0.45454547

>  <petitjeanSC>
0.83333331

>  <Q_PC+>
0

>  <Q_PC->
0

>  <Q_RPC+>
0

>  <Q_RPC->
0

>  <Q_VSA_FHYD>
1

>  <Q_VSA_FNEG>
0

>  <Q_VSA_FPNEG>
0

>  <Q_VSA_FPOL>
0

>  <Q_VSA_FPOS>
1

>  <Q_VSA_FPPOS>
0

>  <Q_VSA_HYD>
365.11258

>  <Q_VSA_NEG>
0

>  <Q_VSA_PNEG>
0

>  <Q_VSA_POL>
0

>  <Q_VSA_POS>
365.11258

>  <Q_VSA_PPOS>
0

>  <radius>
6

>  <reactive>
0

>  <rings>
2

>  <RPC+>
0

>  <RPC->
0

>  <rsynth>
1

>  <SlogP>
4.4201002

>  <SlogP_VSA0>
0

>  <SlogP_VSA1>
7.177084

>  <SlogP_VSA2>
23.862217

>  <SlogP_VSA3>
72.552299

>  <SlogP_VSA4>
6.37115

>  <SlogP_VSA5>
0

>  <SlogP_VSA6>
4.4107962

>  <SlogP_VSA7>
176.43184

>  <SlogP_VSA8>
0

>  <SlogP_VSA9>
98.871574

>  <SMR>
9.9981003

>  <SMR_VSA0>
23.862217

>  <SMR_VSA1>
3.1243138

>  <SMR_VSA2>
0

>  <SMR_VSA3>
10.781946

>  <SMR_VSA4>
0

>  <SMR_VSA5>
176.43184

>  <SMR_VSA6>
76.605072

>  <SMR_VSA7>
98.871574

>  <TPSA>
20.309999

>  <VAdjEq>
0.43892586

>  <VAdjMa>
5.5849624

>  <VDistEq>
3.3318155

>  <VDistMa>
8.7636662

>  <vdw_area>
365.11258

>  <vdw_vol>
480.74185

>  <vsa_acc>
13.566921

>  <vsa_acid>
0

>  <vsa_base>
0

>  <vsa_don>
0

>  <vsa_hyd>
321.97116

>  <vsa_other>
10.434581

>  <vsa_pol>
13.566921

>  <Weight>
327.492

>  <weinerPath>
1268

>  <weinerPol>
32

>  <zagreb>
108

$$$$