ClCC(O)=O
  MOE2013           2D

  5  4  0  0  0  0  0  0  0  0999 V2000
    0.0000    0.0000    0.0000 Cl  0  0  0  0  0  0  0  0  0  0  0  0
    1.2990   -0.7500    0.0000 C   0  0  0  0  0  0  0  0  0  0  0  0
    2.5980    0.0000    0.0000 C   0  0  0  0  0  0  0  0  0  0  0  0
    3.8970   -0.7500    0.0000 O   0  0  0  0  0  0  0  0  0  0  0  0
    2.5980    1.5000    0.0000 O   0  0  0  0  0  0  0  0  0  0  0  0
  1  2  1  0  0  0  0
  2  3  1  0  0  0  0
  3  4  1  0  0  0  0
  3  5  2  0  0  0  0
M  END
>  <Index>
1197

>  <ID>
HT2389

>  <class>
0

>  <apol>
9.3043795

>  <ast_fraglike>
1

>  <ast_fraglike_ext>
1

>  <ast_violation>
0

>  <ast_violation_ext>
0

>  <a_acc>
2

>  <a_acid>
0

>  <a_aro>
0

>  <a_base>
0

>  <a_count>
8

>  <a_don>
2

>  <a_donacc>
4

>  <a_heavy>
5

>  <a_hyd>
2

>  <a_IC>
15.245112

>  <a_ICM>
1.9056391

>  <a_nB>
0

>  <a_nBr>
0

>  <a_nC>
2

>  <a_nCl>
1

>  <a_nF>
0

>  <a_nH>
3

>  <a_nI>
0

>  <a_nN>
0

>  <a_nO>
2

>  <a_nP>
0

>  <a_nS>
0

>  <balabanJ>
2.6693285

>  <BCUT_PEOE_0>
-2.0861797

>  <BCUT_PEOE_1>
-0.37300614

>  <BCUT_PEOE_2>
0.33290181

>  <BCUT_PEOE_3>
2.2342081

>  <BCUT_SLOGP_0>
-2.2679141

>  <BCUT_SLOGP_1>
-0.29166013

>  <BCUT_SLOGP_2>
0.48253027

>  <BCUT_SLOGP_3>
2.114702

>  <BCUT_SMR_0>
-1.861441

>  <BCUT_SMR_1>
-0.17202665

>  <BCUT_SMR_2>
0.55930632

>  <BCUT_SMR_3>
2.4617572

>  <bpol>
4.6576209

>  <b_1rotN>
1

>  <b_1rotR>
0.25

>  <b_ar>
0

>  <b_count>
7

>  <b_double>
1

>  <b_heavy>
4

>  <b_max1len>
2

>  <b_rotN>
1

>  <b_rotR>
0.25

>  <b_single>
6

>  <b_triple>
0

>  <chi0>
4.2844572

>  <chi0v>
3.1964622

>  <chi0v_C>
1.2071068

>  <chi0_C>
1.2844571

>  <chi1>
2.2700555

>  <chi1v>
1.583068

>  <chi1v_C>
0.35355338

>  <chi1_C>
0.40824831

>  <chiral>
0

>  <chiral_u>
0

>  <density>
1.0688326

>  <diameter>
3

>  <FCharge>
0

>  <GCUT_PEOE_0>
-0.70050848

>  <GCUT_PEOE_1>
-0.39860147

>  <GCUT_PEOE_2>
0.042492796

>  <GCUT_PEOE_3>
1.5121349

>  <GCUT_SLOGP_0>
-0.91301817

>  <GCUT_SLOGP_1>
-0.33093092

>  <GCUT_SLOGP_2>
0.2133577

>  <GCUT_SLOGP_3>
1.4750013

>  <GCUT_SMR_0>
-0.43158498

>  <GCUT_SMR_1>
-0.17738989

>  <GCUT_SMR_2>
0.26017943

>  <GCUT_SMR_3>
1.7495248

>  <Kier1>
5

>  <Kier2>
2.25

>  <Kier3>
4

>  <KierA1>
5.565568

>  <KierA2>
2.5869312

>  <KierA3>
4.8289576

>  <KierFlex>
2.8795483

>  <lip_acc>
2

>  <lip_don>
1

>  <lip_druglike>
1

>  <lip_violation>
0

>  <logP(o/w)>
0.34900001

>  <logS>
-0.35166001

>  <mr>
1.8850169

>  <mutagenic>
1

>  <nmol>
1

>  <opr_brigid>
0

>  <opr_leadlike>
1

>  <opr_nring>
0

>  <opr_nrot>
1

>  <opr_violation>
0

>  <PC+>
0

>  <PC->
0

>  <PEOE_PC+>
0.70900232

>  <PEOE_PC->
-0.70900232

>  <PEOE_RPC+>
0.38695547

>  <PEOE_RPC->
0.46598119

>  <PEOE_VSA+0>
0

>  <PEOE_VSA+1>
8.5307722

>  <PEOE_VSA+2>
11.01252

>  <PEOE_VSA+3>
0

>  <PEOE_VSA+4>
10.324173

>  <PEOE_VSA+5>
14.708499

>  <PEOE_VSA+6>
0

>  <PEOE_VSA-0>
0

>  <PEOE_VSA-1>
0

>  <PEOE_VSA-2>
29.581947

>  <PEOE_VSA-3>
0

>  <PEOE_VSA-4>
0

>  <PEOE_VSA-5>
13.566921

>  <PEOE_VSA-6>
7.7675405

>  <PEOE_VSA_FHYD>
0.51444149

>  <PEOE_VSA_FNEG>
0.53319871

>  <PEOE_VSA_FPNEG>
0.22341534

>  <PEOE_VSA_FPOL>
0.48555851

>  <PEOE_VSA_FPOS>
0.46680132

>  <PEOE_VSA_FPPOS>
0.26214316

>  <PEOE_VSA_HYD>
49.12524

>  <PEOE_VSA_NEG>
50.916409

>  <PEOE_VSA_PNEG>
21.334461

>  <PEOE_VSA_POL>
46.367134

>  <PEOE_VSA_POS>
44.575966

>  <PEOE_VSA_PPOS>
25.032671

>  <petitjean>
0.33333334

>  <petitjeanSC>
0.5

>  <Q_PC+>
0

>  <Q_PC->
0

>  <Q_RPC+>
0

>  <Q_RPC->
0

>  <Q_VSA_FHYD>
1

>  <Q_VSA_FNEG>
0

>  <Q_VSA_FPNEG>
0

>  <Q_VSA_FPOL>
0

>  <Q_VSA_FPOS>
1

>  <Q_VSA_FPPOS>
0

>  <Q_VSA_HYD>
95.492371

>  <Q_VSA_NEG>
0

>  <Q_VSA_PNEG>
0

>  <Q_VSA_POL>
0

>  <Q_VSA_POS>
95.492371

>  <Q_VSA_PPOS>
0

>  <radius>
2

>  <reactive>
1

>  <rings>
0

>  <RPC+>
0

>  <RPC->
0

>  <rsynth>
1

>  <SlogP>
0.3098

>  <SlogP_VSA0>
0

>  <SlogP_VSA1>
7.7454643

>  <SlogP_VSA2>
23.862217

>  <SlogP_VSA3>
44.568665

>  <SlogP_VSA4>
0

>  <SlogP_VSA5>
0

>  <SlogP_VSA6>
0

>  <SlogP_VSA7>
0

>  <SlogP_VSA8>
0

>  <SlogP_VSA9>
39.148643

>  <SMR>
1.83558

>  <SMR_VSA0>
23.862217

>  <SMR_VSA1>
0

>  <SMR_VSA2>
25.385227

>  <SMR_VSA3>
0

>  <SMR_VSA4>
0

>  <SMR_VSA5>
0

>  <SMR_VSA6>
26.928902

>  <SMR_VSA7>
39.148643

>  <TPSA>
37.299999

>  <VAdjEq>
0.90438145

>  <VAdjMa>
3

>  <VDistEq>
1.5219281

>  <VDistMa>
4.1971598

>  <vdw_area>
95.492371

>  <vdw_vol>
88.411407

>  <vsa_acc>
0

>  <vsa_acid>
0

>  <vsa_base>
0

>  <vsa_don>
0

>  <vsa_hyd>
47.701649

>  <vsa_other>
14.708499

>  <vsa_pol>
27.133842

>  <Weight>
94.496994

>  <weinerPath>
18

>  <weinerPol>
2

>  <zagreb>
16

$$$$