S=P(N1CC1)(N1CC1)N1CC1
  MOE2013           2D

 11 13  0  0  0  0  0  0  0  0999 V2000
    0.0000    0.0000    0.0000 S   0  0  0  0  0  0  0  0  0  0  0  0
    0.3880   -1.4490    0.0000 P   0  0  0  0  0  0  0  0  0  0  0  0
   -1.0610   -1.8370    0.0000 N   0  0  0  0  0  0  0  0  0  0  0  0
   -2.1210   -2.8980    0.0000 C   0  0  0  0  0  0  0  0  0  0  0  0
   -2.5100   -1.4490    0.0000 C   0  0  0  0  0  0  0  0  0  0  0  0
    1.8370   -1.0610    0.0000 N   0  0  0  0  0  0  0  0  0  0  0  0
    2.8980    0.0000    0.0000 C   0  0  0  0  0  0  0  0  0  0  0  0
    3.2860   -1.4490    0.0000 C   0  0  0  0  0  0  0  0  0  0  0  0
    0.7760   -2.8980    0.0000 N   0  0  0  0  0  0  0  0  0  0  0  0
    1.8370   -3.9580    0.0000 C   0  0  0  0  0  0  0  0  0  0  0  0
    0.3880   -4.3470    0.0000 C   0  0  0  0  0  0  0  0  0  0  0  0
  1  2  2  0  0  0  0
  2  3  1  0  0  0  0
  2  6  1  0  0  0  0
  2  9  1  0  0  0  0
  3  4  1  0  0  0  0
  3  5  1  0  0  0  0
  4  5  1  0  0  0  0
  6  7  1  0  0  0  0
  6  8  1  0  0  0  0
  7  8  1  0  0  0  0
  9 10  1  0  0  0  0
  9 11  1  0  0  0  0
 10 11  1  0  0  0  0
M  END
>  <Index>
1069

>  <ID>
HT2047

>  <class>
0

>  <apol>
28.391516

>  <ast_fraglike>
1

>  <ast_fraglike_ext>
1

>  <ast_violation>
0

>  <ast_violation_ext>
0

>  <a_acc>
3

>  <a_acid>
0

>  <a_aro>
0

>  <a_base>
0

>  <a_count>
23

>  <a_don>
0

>  <a_donacc>
3

>  <a_heavy>
11

>  <a_hyd>
6

>  <a_IC>
40.757713

>  <a_ICM>
1.7720745

>  <a_nB>
0

>  <a_nBr>
0

>  <a_nC>
6

>  <a_nCl>
0

>  <a_nF>
0

>  <a_nH>
12

>  <a_nI>
0

>  <a_nN>
3

>  <a_nO>
0

>  <a_nP>
1

>  <a_nS>
1

>  <balabanJ>
1.8207929

>  <BCUT_PEOE_0>
-2.4140964

>  <BCUT_PEOE_1>
-0.22348019

>  <BCUT_PEOE_2>
0.04870601

>  <BCUT_PEOE_3>
2.8671656

>  <BCUT_SLOGP_0>
-2.2999339

>  <BCUT_SLOGP_1>
-0.087101169

>  <BCUT_SLOGP_2>
0.123

>  <BCUT_SLOGP_3>
2.8993709

>  <BCUT_SMR_0>
-1.9841895

>  <BCUT_SMR_1>
0.1057

>  <BCUT_SMR_2>
0.39255205

>  <BCUT_SMR_3>
3.1925659

>  <bpol>
25.398483

>  <b_1rotN>
3

>  <b_1rotR>
0.23076923

>  <b_ar>
0

>  <b_count>
25

>  <b_double>
0

>  <b_heavy>
13

>  <b_max1len>
2

>  <b_rotN>
3

>  <b_rotR>
0.23076923

>  <b_single>
25

>  <b_triple>
0

>  <chi0>
7.4746914

>  <chi0v>
8.1506672

>  <chi0v_C>
4.2426405

>  <chi0_C>
4.2426405

>  <chi1>
5.315515

>  <chi1v>
6.8405342

>  <chi1v_C>
1.5

>  <chi1_C>
1.5

>  <chiral>
0

>  <chiral_u>
0

>  <density>
0.85129595

>  <diameter>
4

>  <FCharge>
0

>  <GCUT_PEOE_0>
-0.78664273

>  <GCUT_PEOE_1>
-0.36685342

>  <GCUT_PEOE_2>
-0.11129399

>  <GCUT_PEOE_3>
2.3657966

>  <GCUT_SLOGP_0>
-0.83006436

>  <GCUT_SLOGP_1>
-0.36004621

>  <GCUT_SLOGP_2>
-0.037

>  <GCUT_SLOGP_3>
2.4116726

>  <GCUT_SMR_0>
-0.44737878

>  <GCUT_SMR_1>
-0.099460214

>  <GCUT_SMR_2>
0.22429344

>  <GCUT_SMR_3>
2.672725

>  <Kier1>
6.5088758

>  <Kier2>
1.8367347

>  <Kier3>
0.58769512

>  <KierA1>
8.6926126

>  <KierA2>
2.5264807

>  <KierA3>
0.82953656

>  <KierFlex>
1.9965198

>  <lip_acc>
3

>  <lip_don>
0

>  <lip_druglike>
1

>  <lip_violation>
0

>  <logP(o/w)>
-2.043

>  <logS>
-0.12067

>  <mr>
4.8659019

>  <mutagenic>
0

>  <nmol>
1

>  <opr_brigid>
9

>  <opr_leadlike>
1

>  <opr_nring>
3

>  <opr_nrot>
3

>  <opr_violation>
0

>  <PC+>
0

>  <PC->
0

>  <PEOE_PC+>
1.0825673

>  <PEOE_PC->
-1.0825673

>  <PEOE_RPC+>
0.13859928

>  <PEOE_RPC->
0.47092596

>  <PEOE_VSA+0>
51.184631

>  <PEOE_VSA+1>
79.153946

>  <PEOE_VSA+2>
0

>  <PEOE_VSA+3>
11.329773

>  <PEOE_VSA+4>
0

>  <PEOE_VSA+5>
0

>  <PEOE_VSA+6>
0

>  <PEOE_VSA-0>
0

>  <PEOE_VSA-1>
0

>  <PEOE_VSA-2>
0

>  <PEOE_VSA-3>
0

>  <PEOE_VSA-4>
0

>  <PEOE_VSA-5>
0

>  <PEOE_VSA-6>
33.008488

>  <PEOE_VSA_FHYD>
0.8110311

>  <PEOE_VSA_FNEG>
0.18896888

>  <PEOE_VSA_FPNEG>
0.18896888

>  <PEOE_VSA_FPOL>
0.18896888

>  <PEOE_VSA_FPOS>
0.8110311

>  <PEOE_VSA_FPPOS>
0

>  <PEOE_VSA_HYD>
141.66835

>  <PEOE_VSA_NEG>
33.008488

>  <PEOE_VSA_PNEG>
33.008488

>  <PEOE_VSA_POL>
33.008488

>  <PEOE_VSA_POS>
141.66835

>  <PEOE_VSA_PPOS>
0

>  <petitjean>
0.5

>  <petitjeanSC>
1

>  <Q_PC+>
0

>  <Q_PC->
0

>  <Q_RPC+>
0

>  <Q_RPC->
0

>  <Q_VSA_FHYD>
1

>  <Q_VSA_FNEG>
0

>  <Q_VSA_FPNEG>
0

>  <Q_VSA_FPOL>
0

>  <Q_VSA_FPOS>
1

>  <Q_VSA_FPPOS>
0

>  <Q_VSA_HYD>
174.67683

>  <Q_VSA_NEG>
0

>  <Q_VSA_PNEG>
0

>  <Q_VSA_POL>
0

>  <Q_VSA_POS>
174.67683

>  <Q_VSA_PPOS>
0

>  <radius>
2

>  <reactive>
1

>  <rings>
3

>  <RPC+>
0

>  <RPC->
0

>  <rsynth>
1

>  <SlogP>
0.1577

>  <SlogP_VSA0>
0

>  <SlogP_VSA1>
0

>  <SlogP_VSA2>
42.693977

>  <SlogP_VSA3>
110.63747

>  <SlogP_VSA4>
0

>  <SlogP_VSA5>
0

>  <SlogP_VSA6>
0

>  <SlogP_VSA7>
0

>  <SlogP_VSA8>
0

>  <SlogP_VSA9>
5.2601914

>  <SMR>
4.9004002

>  <SMR_VSA0>
0

>  <SMR_VSA1>
0

>  <SMR_VSA2>
0

>  <SMR_VSA3>
0

>  <SMR_VSA4>
0

>  <SMR_VSA5>
0

>  <SMR_VSA6>
110.63747

>  <SMR_VSA7>
47.954166

>  <TPSA>
41.119999

>  <VAdjEq>
0.75070029

>  <VAdjMa>
4.7004399

>  <VDistEq>
1.9776603

>  <VDistMa>
6.6398907

>  <vdw_area>
174.67683

>  <vdw_vol>
222.27641

>  <vsa_acc>
0

>  <vsa_acid>
0

>  <vsa_base>
0

>  <vsa_don>
0

>  <vsa_hyd>
121.79704

>  <vsa_other>
44.338261

>  <vsa_pol>
0

>  <Weight>
189.22301

>  <weinerPath>
139

>  <weinerPol>
18

>  <zagreb>
68

$$$$