OC(C1NCCCC1)(c1ccccc1)c1ccccc1
  MOE2013           2D

 20 22  0  0  1  0  0  0  0  0999 V2000
    0.0000    0.0000    0.0000 O   0  0  0  0  0  0  0  0  0  0  0  0
    0.0000    1.5000    0.0000 C   0  0  0  0  0  0  0  0  0  0  0  0
    0.0000    3.0000    0.0000 C   0  0  3  0  0  0  0  0  0  0  0  0
   -1.2990    3.7500    0.0000 N   0  0  0  0  0  0  0  0  0  0  0  0
   -1.2990    5.2500    0.0000 C   0  0  0  0  0  0  0  0  0  0  0  0
    0.0000    6.0000    0.0000 C   0  0  0  0  0  0  0  0  0  0  0  0
    1.2990    5.2500    0.0000 C   0  0  0  0  0  0  0  0  0  0  0  0
    1.2990    3.7500    0.0000 C   0  0  0  0  0  0  0  0  0  0  0  0
   -1.5000    1.5000    0.0000 C   0  0  0  0  0  0  0  0  0  0  0  0
   -2.2500    0.2010    0.0000 C   0  0  0  0  0  0  0  0  0  0  0  0
   -3.7500    0.2010    0.0000 C   0  0  0  0  0  0  0  0  0  0  0  0
   -4.5000    1.5000    0.0000 C   0  0  0  0  0  0  0  0  0  0  0  0
   -3.7500    2.7990    0.0000 C   0  0  0  0  0  0  0  0  0  0  0  0
   -2.2500    2.7990    0.0000 C   0  0  0  0  0  0  0  0  0  0  0  0
    1.5000    1.5000    0.0000 C   0  0  0  0  0  0  0  0  0  0  0  0
    2.2500    2.7990    0.0000 C   0  0  0  0  0  0  0  0  0  0  0  0
    3.7500    2.7990    0.0000 C   0  0  0  0  0  0  0  0  0  0  0  0
    4.5000    1.5000    0.0000 C   0  0  0  0  0  0  0  0  0  0  0  0
    3.7500    0.2010    0.0000 C   0  0  0  0  0  0  0  0  0  0  0  0
    2.2500    0.2010    0.0000 C   0  0  0  0  0  0  0  0  0  0  0  0
  1  2  1  0  0  0  0
  2  3  1  0  0  0  0
  2  9  1  0  0  0  0
  2 15  1  0  0  0  0
  3  4  1  0  0  0  0
  3  8  1  0  0  0  0
  4  5  1  0  0  0  0
  5  6  1  0  0  0  0
  6  7  1  0  0  0  0
  7  8  1  0  0  0  0
  9 10  1  0  0  0  0
  9 14  2  0  0  0  0
 10 11  2  0  0  0  0
 11 12  1  0  0  0  0
 12 13  2  0  0  0  0
 13 14  1  0  0  0  0
 15 16  1  0  0  0  0
 15 20  2  0  0  0  0
 16 17  2  0  0  0  0
 17 18  1  0  0  0  0
 18 19  2  0  0  0  0
 19 20  1  0  0  0  0
M  END
>  <Index>
1299

>  <ID>
HT3182

>  <class>
0

>  <apol>
47.584652

>  <ast_fraglike>
0

>  <ast_fraglike_ext>
0

>  <ast_violation>
1

>  <ast_violation_ext>
2

>  <a_acc>
2

>  <a_acid>
0

>  <a_aro>
12

>  <a_base>
0

>  <a_count>
41

>  <a_don>
2

>  <a_donacc>
4

>  <a_heavy>
20

>  <a_hyd>
18

>  <a_IC>
52.362316

>  <a_ICM>
1.2771297

>  <a_nB>
0

>  <a_nBr>
0

>  <a_nC>
18

>  <a_nCl>
0

>  <a_nF>
0

>  <a_nH>
21

>  <a_nI>
0

>  <a_nN>
1

>  <a_nO>
1

>  <a_nP>
0

>  <a_nS>
0

>  <balabanJ>
1.7983508

>  <BCUT_PEOE_0>
-2.776273

>  <BCUT_PEOE_1>
-0.64541602

>  <BCUT_PEOE_2>
0.69553465

>  <BCUT_PEOE_3>
2.7282052

>  <BCUT_SLOGP_0>
-2.8287222

>  <BCUT_SLOGP_1>
-0.53807992

>  <BCUT_SLOGP_2>
0.76714957

>  <BCUT_SLOGP_3>
2.7649686

>  <BCUT_SMR_0>
-2.5141532

>  <BCUT_SMR_1>
-0.49886355

>  <BCUT_SMR_2>
0.84383905

>  <BCUT_SMR_3>
2.9852736

>  <bpol>
23.617348

>  <b_1rotN>
3

>  <b_1rotR>
0.13636364

>  <b_ar>
12

>  <b_count>
43

>  <b_double>
0

>  <b_heavy>
22

>  <b_max1len>
4

>  <b_rotN>
3

>  <b_rotR>
0.13636364

>  <b_single>
31

>  <b_triple>
0

>  <chi0>
13.838653

>  <chi0v>
11.626493

>  <chi0v_C>
10.67928

>  <chi0_C>
12.131546

>  <chi1>
9.8155155

>  <chi1v>
7.3841262

>  <chi1v_C>
6.5182905

>  <chi1_C>
8.4072666

>  <chiral>
1

>  <chiral_u>
1

>  <density>
0.66621125

>  <diameter>
8

>  <FCharge>
0

>  <GCUT_PEOE_0>
-0.83884621

>  <GCUT_PEOE_1>
-0.38926771

>  <GCUT_PEOE_2>
0.079521112

>  <GCUT_PEOE_3>
2.7779448

>  <GCUT_SLOGP_0>
-1.1533781

>  <GCUT_SLOGP_1>
-0.27531976

>  <GCUT_SLOGP_2>
0.15610953

>  <GCUT_SLOGP_3>
2.8570459

>  <GCUT_SMR_0>
-0.52313912

>  <GCUT_SMR_1>
-0.21605732

>  <GCUT_SMR_2>
0.19305076

>  <GCUT_SMR_3>
3.037904

>  <Kier1>
14.917356

>  <Kier2>
6.8400002

>  <Kier3>
3.1224489

>  <KierA1>
11.588001

>  <KierA2>
5.2373018

>  <KierA3>
2.3656602

>  <KierFlex>
3.0344927

>  <lip_acc>
2

>  <lip_don>
2

>  <lip_druglike>
1

>  <lip_violation>
0

>  <logP(o/w)>
4.0630002

>  <logS>
-3.44489

>  <mr>
8.2742558

>  <mutagenic>
0

>  <nmol>
1

>  <opr_brigid>
18

>  <opr_leadlike>
1

>  <opr_nring>
3

>  <opr_nrot>
5

>  <opr_violation>
0

>  <PC+>
0

>  <PC->
0

>  <PEOE_PC+>
1.427897

>  <PEOE_PC->
-1.427897

>  <PEOE_RPC+>
0.14787325

>  <PEOE_RPC->
0.26452854

>  <PEOE_VSA+0>
41.534435

>  <PEOE_VSA+1>
42.653858

>  <PEOE_VSA+2>
8.6190128

>  <PEOE_VSA+3>
0

>  <PEOE_VSA+4>
10.324173

>  <PEOE_VSA+5>
0

>  <PEOE_VSA+6>
0

>  <PEOE_VSA-0>
35.012032

>  <PEOE_VSA-1>
131.25035

>  <PEOE_VSA-2>
0

>  <PEOE_VSA-3>
0

>  <PEOE_VSA-4>
0

>  <PEOE_VSA-5>
0

>  <PEOE_VSA-6>
7.9044313

>  <PEOE_VSA_FHYD>
0.93426353

>  <PEOE_VSA_FNEG>
0.62808472

>  <PEOE_VSA_FPNEG>
0.028505156

>  <PEOE_VSA_FPOL>
0.065736443

>  <PEOE_VSA_FPOS>
0.37191531

>  <PEOE_VSA_FPPOS>
0.037231289

>  <PEOE_VSA_HYD>
259.0697

>  <PEOE_VSA_NEG>
174.16681

>  <PEOE_VSA_PNEG>
7.9044313

>  <PEOE_VSA_POL>
18.228603

>  <PEOE_VSA_POS>
103.13148

>  <PEOE_VSA_PPOS>
10.324173

>  <petitjean>
0.5

>  <petitjeanSC>
1

>  <Q_PC+>
0

>  <Q_PC->
0

>  <Q_RPC+>
0

>  <Q_RPC->
0

>  <Q_VSA_FHYD>
1

>  <Q_VSA_FNEG>
0

>  <Q_VSA_FPNEG>
0

>  <Q_VSA_FPOL>
0

>  <Q_VSA_FPOS>
1

>  <Q_VSA_FPPOS>
0

>  <Q_VSA_HYD>
277.29831

>  <Q_VSA_NEG>
0

>  <Q_VSA_PNEG>
0

>  <Q_VSA_POL>
0

>  <Q_VSA_POS>
277.29831

>  <Q_VSA_PPOS>
0

>  <radius>
4

>  <reactive>
0

>  <rings>
3

>  <RPC+>
0

>  <RPC->
0

>  <rsynth>
0.050000001

>  <SlogP>
3.3761001

>  <SlogP_VSA0>
43.395977

>  <SlogP_VSA1>
0

>  <SlogP_VSA2>
3.9819686

>  <SlogP_VSA3>
18.439579

>  <SlogP_VSA4>
6.37115

>  <SlogP_VSA5>
0

>  <SlogP_VSA6>
0

>  <SlogP_VSA7>
176.43184

>  <SlogP_VSA8>
56.605217

>  <SlogP_VSA9>
0

>  <SMR>
8.1641502

>  <SMR_VSA0>
0

>  <SMR_VSA1>
25.385227

>  <SMR_VSA2>
18.01075

>  <SMR_VSA3>
10.353119

>  <SMR_VSA4>
0

>  <SMR_VSA5>
233.03706

>  <SMR_VSA6>
18.439579

>  <SMR_VSA7>
0

>  <TPSA>
32.259998

>  <VAdjEq>
0.49991596

>  <VAdjMa>
5.4594316

>  <VDistEq>
2.8197358

>  <VDistMa>
8.3965721

>  <vdw_area>
277.29831

>  <vdw_vol>
401.33215

>  <vsa_acc>
0

>  <vsa_acid>
0

>  <vsa_base>
0

>  <vsa_don>
0

>  <vsa_hyd>
236.92656

>  <vsa_other>
0

>  <vsa_pol>
19.249496

>  <Weight>
267.37198

>  <weinerPath>
730

>  <weinerPol>
33

>  <zagreb>
104

$$$$