Clc1ccc(cc1)CC(O)(C(CN(C)C)C)C
  MOE2013           2D

 17 17  0  0  1  0  0  0  0  0999 V2000
    0.0000    0.0000    0.0000 Cl  0  0  0  0  0  0  0  0  0  0  0  0
    1.2950   -0.7570    0.0000 C   0  0  0  0  0  0  0  0  0  0  0  0
    2.5980   -0.0150    0.0000 C   0  0  0  0  0  0  0  0  0  0  0  0
    3.8930   -0.7720    0.0000 C   0  0  0  0  0  0  0  0  0  0  0  0
    3.8840   -2.2720    0.0000 C   0  0  0  0  0  0  0  0  0  0  0  0
    2.5810   -3.0150    0.0000 C   0  0  0  0  0  0  0  0  0  0  0  0
    1.2860   -2.2570    0.0000 C   0  0  0  0  0  0  0  0  0  0  0  0
    5.1790   -3.0290    0.0000 C   0  0  0  0  0  0  0  0  0  0  0  0
    6.4820   -2.2870    0.0000 C   0  0  3  0  0  0  0  0  0  0  0  0
    5.7400   -0.9830    0.0000 O   0  0  0  0  0  0  0  0  0  0  0  0
    7.7860   -1.5440    0.0000 C   0  0  3  0  0  0  0  0  0  0  0  0
    9.0800   -2.3010    0.0000 C   0  0  0  0  0  0  0  0  0  0  0  0
   10.3840   -1.5590    0.0000 N   0  0  0  0  0  0  0  0  0  0  0  0
   11.6780   -2.3160    0.0000 C   0  0  0  0  0  0  0  0  0  0  0  0
   10.3920   -0.0590    0.0000 C   0  0  0  0  0  0  0  0  0  0  0  0
    7.7940   -0.0440    0.0000 C   0  0  0  0  0  0  0  0  0  0  0  0
    7.2250   -3.5900    0.0000 C   0  0  0  0  0  0  0  0  0  0  0  0
  1  2  1  0  0  0  0
  2  3  1  0  0  0  0
  2  7  2  0  0  0  0
  3  4  2  0  0  0  0
  4  5  1  0  0  0  0
  5  6  2  0  0  0  0
  5  8  1  0  0  0  0
  6  7  1  0  0  0  0
  8  9  1  0  0  0  0
  9 10  1  0  0  0  0
  9 11  1  0  0  0  0
  9 17  1  0  0  0  0
 11 12  1  0  0  0  0
 11 16  1  0  0  0  0
 12 13  1  0  0  0  0
 13 14  1  0  0  0  0
 13 15  1  0  0  0  0
M  END
>  <Index>
1289

>  <ID>
HT3125

>  <class>
0

>  <apol>
43.391445

>  <ast_fraglike>
1

>  <ast_fraglike_ext>
0

>  <ast_violation>
0

>  <ast_violation_ext>
1

>  <a_acc>
2

>  <a_acid>
0

>  <a_aro>
6

>  <a_base>
0

>  <a_count>
39

>  <a_don>
1

>  <a_donacc>
3

>  <a_heavy>
17

>  <a_hyd>
15

>  <a_IC>
54.720222

>  <a_ICM>
1.4030826

>  <a_nB>
0

>  <a_nBr>
0

>  <a_nC>
14

>  <a_nCl>
1

>  <a_nF>
0

>  <a_nH>
22

>  <a_nI>
0

>  <a_nN>
1

>  <a_nO>
1

>  <a_nP>
0

>  <a_nS>
0

>  <balabanJ>
2.4277415

>  <BCUT_PEOE_0>
-2.7472179

>  <BCUT_PEOE_1>
-0.26389408

>  <BCUT_PEOE_2>
0.24168259

>  <BCUT_PEOE_3>
2.7111638

>  <BCUT_SLOGP_0>
-2.7991636

>  <BCUT_SLOGP_1>
-0.13563648

>  <BCUT_SLOGP_2>
0.34375894

>  <BCUT_SLOGP_3>
2.6885731

>  <BCUT_SMR_0>
-2.4972043

>  <BCUT_SMR_1>
-0.0093004908

>  <BCUT_SMR_2>
0.41643289

>  <BCUT_SMR_3>
2.9541783

>  <bpol>
26.450554

>  <b_1rotN>
5

>  <b_1rotR>
0.29411766

>  <b_ar>
6

>  <b_count>
39

>  <b_double>
0

>  <b_heavy>
17

>  <b_max1len>
7

>  <b_rotN>
5

>  <b_rotR>
0.29411766

>  <b_single>
33

>  <b_triple>
0

>  <chi0>
13.052042

>  <chi0v>
11.829286

>  <chi0v_C>
9.8009653

>  <chi0_C>
10.474691

>  <chi1>
7.8093677

>  <chi1v>
6.303956

>  <chi1v_C>
4.3027477

>  <chi1_C>
5.1690683

>  <chiral>
2

>  <chiral_u>
2

>  <density>
0.69757259

>  <diameter>
10

>  <FCharge>
0

>  <GCUT_PEOE_0>
-0.86323553

>  <GCUT_PEOE_1>
-0.34561414

>  <GCUT_PEOE_2>
-0.072155394

>  <GCUT_PEOE_3>
2.671706

>  <GCUT_SLOGP_0>
-0.95452279

>  <GCUT_SLOGP_1>
-0.25589737

>  <GCUT_SLOGP_2>
0.014498707

>  <GCUT_SLOGP_3>
2.7076404

>  <GCUT_SMR_0>
-0.53120965

>  <GCUT_SMR_1>
-0.07630536

>  <GCUT_SMR_2>
0.052535914

>  <GCUT_SMR_3>
2.9087355

>  <Kier1>
15.058824

>  <Kier2>
6.25

>  <Kier3>
5.0176001

>  <KierA1>
14.179306

>  <KierA2>
5.8616238

>  <KierA3>
4.6909704

>  <KierFlex>
4.8890448

>  <lip_acc>
2

>  <lip_don>
1

>  <lip_druglike>
1

>  <lip_violation>
0

>  <logP(o/w)>
3.2690001

>  <logS>
-2.5803001

>  <mr>
7.3530393

>  <mutagenic>
0

>  <nmol>
1

>  <opr_brigid>
6

>  <opr_leadlike>
1

>  <opr_nring>
1

>  <opr_nrot>
5

>  <opr_violation>
0

>  <PC+>
0

>  <PC->
0

>  <PEOE_PC+>
1.1471523

>  <PEOE_PC->
-1.1471523

>  <PEOE_RPC+>
0.18321225

>  <PEOE_RPC->
0.33841705

>  <PEOE_VSA+0>
98.92495

>  <PEOE_VSA+1>
17.061544

>  <PEOE_VSA+2>
0

>  <PEOE_VSA+3>
0

>  <PEOE_VSA+4>
10.324173

>  <PEOE_VSA+5>
0

>  <PEOE_VSA+6>
0

>  <PEOE_VSA-0>
91.943405

>  <PEOE_VSA-1>
72.839432

>  <PEOE_VSA-2>
0

>  <PEOE_VSA-3>
0

>  <PEOE_VSA-4>
0

>  <PEOE_VSA-5>
0

>  <PEOE_VSA-6>
7.7675405

>  <PEOE_VSA_FHYD>
0.93946445

>  <PEOE_VSA_FNEG>
0.57735991

>  <PEOE_VSA_FPNEG>
0.025990475

>  <PEOE_VSA_FPOL>
0.060535535

>  <PEOE_VSA_FPOS>
0.42264012

>  <PEOE_VSA_FPPOS>
0.03454506

>  <PEOE_VSA_HYD>
280.76932

>  <PEOE_VSA_NEG>
172.55037

>  <PEOE_VSA_PNEG>
7.7675405

>  <PEOE_VSA_POL>
18.091713

>  <PEOE_VSA_POS>
126.31066

>  <PEOE_VSA_PPOS>
10.324173

>  <petitjean>
0.5

>  <petitjeanSC>
1

>  <Q_PC+>
0

>  <Q_PC->
0

>  <Q_RPC+>
0

>  <Q_RPC->
0

>  <Q_VSA_FHYD>
1

>  <Q_VSA_FNEG>
0

>  <Q_VSA_FPNEG>
0

>  <Q_VSA_FPOL>
0

>  <Q_VSA_FPOS>
1

>  <Q_VSA_FPPOS>
0

>  <Q_VSA_HYD>
298.86105

>  <Q_VSA_NEG>
0

>  <Q_VSA_PNEG>
0

>  <Q_VSA_POL>
0

>  <Q_VSA_POS>
298.86105

>  <Q_VSA_PPOS>
0

>  <radius>
5

>  <reactive>
0

>  <rings>
1

>  <RPC+>
0

>  <RPC->
0

>  <rsynth>
0

>  <SlogP>
2.8311701

>  <SlogP_VSA0>
25.385227

>  <SlogP_VSA1>
3.1243138

>  <SlogP_VSA2>
0

>  <SlogP_VSA3>
18.439579

>  <SlogP_VSA4>
7.5963712

>  <SlogP_VSA5>
84.662781

>  <SlogP_VSA6>
3.5006065

>  <SlogP_VSA7>
70.572739

>  <SlogP_VSA8>
0

>  <SlogP_VSA9>
105.80067

>  <SMR>
7.3497801

>  <SMR_VSA0>
0

>  <SMR_VSA1>
28.509541

>  <SMR_VSA2>
4.4107962

>  <SMR_VSA3>
6.6861815

>  <SMR_VSA4>
0

>  <SMR_VSA5>
89.441139

>  <SMR_VSA6>
18.439579

>  <SMR_VSA7>
171.59505

>  <TPSA>
23.469999

>  <VAdjEq>
0.52255934

>  <VAdjMa>
5.0874629

>  <VDistEq>
3.0688276

>  <VDistMa>
7.8619356

>  <vdw_area>
298.86105

>  <vdw_vol>
366.68442

>  <vsa_acc>
0

>  <vsa_acid>
0

>  <vsa_base>
0

>  <vsa_don>
0

>  <vsa_hyd>
264.47656

>  <vsa_other>
0

>  <vsa_pol>
13.566921

>  <Weight>
255.789

>  <weinerPath>
554

>  <weinerPol>
22

>  <zagreb>
82

$$$$