FC(F)(F)C(=O)N[C@H]1C[C@@H](O[C@@H](C)[C@H]1O)O[C@@H]1c2c(C[C@](O)(C1)C(=O)COC(=O)CCCC)c(O)c1c(C(=O)c3c(cccc3OC)C1=O)c2O
  MOE2013           2D

 51 55  0  0  1  0  0  0  0  0999 V2000
    0.0000    0.0000    0.0000 F   0  0  0  0  0  0  0  0  0  0  0  0
    1.4420   -0.4130    0.0000 C   0  0  0  0  0  0  0  0  0  0  0  0
    2.8840   -0.8250    0.0000 F   0  0  0  0  0  0  0  0  0  0  0  0
    1.8550    1.0300    0.0000 F   0  0  0  0  0  0  0  0  0  0  0  0
    1.0300   -1.8550    0.0000 C   0  0  0  0  0  0  0  0  0  0  0  0
    2.0720   -2.9330    0.0000 O   0  0  0  0  0  0  0  0  0  0  0  0
   -0.4260   -2.2190    0.0000 N   0  0  0  0  0  0  0  0  0  0  0  0
   -0.8380   -3.6610    0.0000 C   0  0  1  0  0  0  0  0  0  0  0  0
    0.2050   -4.7390    0.0000 C   0  0  0  0  0  0  0  0  0  0  0  0
   -0.2080   -6.1810    0.0000 C   0  0  1  0  0  0  0  0  0  0  0  0
   -1.6630   -6.5450    0.0000 O   0  0  0  0  0  0  0  0  0  0  0  0
   -2.7060   -5.4670    0.0000 C   0  0  1  0  0  0  0  0  0  0  0  0
   -4.1610   -5.8310    0.0000 C   0  0  0  0  0  0  0  0  0  0  0  0
   -2.2930   -4.0250    0.0000 C   0  0  1  0  0  0  0  0  0  0  0  0
   -3.3360   -2.9460    0.0000 O   0  0  0  0  0  0  0  0  0  0  0  0
    0.8350   -7.2590    0.0000 O   0  0  0  0  0  0  0  0  0  0  0  0
    0.4220   -8.7020    0.0000 C   0  0  2  0  0  0  0  0  0  0  0  0
    1.4650   -9.7800    0.0000 C   0  0  0  0  0  0  0  0  0  0  0  0
    1.0520  -11.2220    0.0000 C   0  0  0  0  0  0  0  0  0  0  0  0
   -0.4030  -11.5860    0.0000 C   0  0  0  0  0  0  0  0  0  0  0  0
   -1.4450  -10.5080    0.0000 C   0  0  2  0  0  0  0  0  0  0  0  0
   -2.8880  -10.0950    0.0000 O   0  0  0  0  0  0  0  0  0  0  0  0
   -1.0330   -9.0650    0.0000 C   0  0  0  0  0  0  0  0  0  0  0  0
   -2.5240  -11.5500    0.0000 C   0  0  0  0  0  0  0  0  0  0  0  0
   -2.1600  -13.0060    0.0000 O   0  0  0  0  0  0  0  0  0  0  0  0
   -3.9660  -11.1380    0.0000 C   0  0  0  0  0  0  0  0  0  0  0  0
   -5.0440  -12.1810    0.0000 O   0  0  0  0  0  0  0  0  0  0  0  0
   -6.4860  -11.7680    0.0000 C   0  0  0  0  0  0  0  0  0  0  0  0
   -6.8500  -10.3130    0.0000 O   0  0  0  0  0  0  0  0  0  0  0  0
   -7.5650  -12.8110    0.0000 C   0  0  0  0  0  0  0  0  0  0  0  0
   -9.0070  -12.3980    0.0000 C   0  0  0  0  0  0  0  0  0  0  0  0
  -10.0850  -13.4410    0.0000 C   0  0  0  0  0  0  0  0  0  0  0  0
  -11.5270  -13.0280    0.0000 C   0  0  0  0  0  0  0  0  0  0  0  0
    2.0950  -12.3000    0.0000 C   0  0  0  0  0  0  0  0  0  0  0  0
    1.6830  -13.7430    0.0000 O   0  0  0  0  0  0  0  0  0  0  0  0
    3.5500  -11.9370    0.0000 C   0  0  0  0  0  0  0  0  0  0  0  0
    3.9630  -10.4940    0.0000 C   0  0  0  0  0  0  0  0  0  0  0  0
    5.4180  -10.1310    0.0000 C   0  0  0  0  0  0  0  0  0  0  0  0
    5.8310   -8.6880    0.0000 O   0  0  0  0  0  0  0  0  0  0  0  0
    6.4610  -11.2090    0.0000 C   0  0  0  0  0  0  0  0  0  0  0  0
    6.0480  -12.6510    0.0000 C   0  0  0  0  0  0  0  0  0  0  0  0
    7.0910  -13.7290    0.0000 C   0  0  0  0  0  0  0  0  0  0  0  0
    8.5460  -13.3660    0.0000 C   0  0  0  0  0  0  0  0  0  0  0  0
    8.9590  -11.9230    0.0000 C   0  0  0  0  0  0  0  0  0  0  0  0
    7.9160  -10.8450    0.0000 C   0  0  0  0  0  0  0  0  0  0  0  0
    8.3290   -9.4030    0.0000 O   0  0  0  0  0  0  0  0  0  0  0  0
    9.7840   -9.0390    0.0000 C   0  0  0  0  0  0  0  0  0  0  0  0
    4.5930  -13.0150    0.0000 C   0  0  0  0  0  0  0  0  0  0  0  0
    4.1810  -14.4570    0.0000 O   0  0  0  0  0  0  0  0  0  0  0  0
    2.9200   -9.4160    0.0000 C   0  0  0  0  0  0  0  0  0  0  0  0
    3.3330   -7.9740    0.0000 O   0  0  0  0  0  0  0  0  0  0  0  0
  1  2  1  0  0  0  0
  2  3  1  0  0  0  0
  2  4  1  0  0  0  0
  2  5  1  0  0  0  0
  5  6  2  0  0  0  0
  5  7  1  0  0  0  0
  8  7  1  1  0  0  0
  8  9  1  0  0  0  0
  8 14  1  0  0  0  0
  9 10  1  0  0  0  0
 10 11  1  0  0  0  0
 10 16  1  6  0  0  0
 11 12  1  0  0  0  0
 12 13  1  1  0  0  0
 12 14  1  0  0  0  0
 14 15  1  1  0  0  0
 17 16  1  6  0  0  0
 17 18  1  0  0  0  0
 17 23  1  0  0  0  0
 18 19  1  0  0  0  0
 18 50  2  0  0  0  0
 19 20  1  0  0  0  0
 19 34  2  0  0  0  0
 20 21  1  0  0  0  0
 21 22  1  6  0  0  0
 21 23  1  0  0  0  0
 21 24  1  1  0  0  0
 24 25  2  0  0  0  0
 24 26  1  0  0  0  0
 26 27  1  0  0  0  0
 27 28  1  0  0  0  0
 28 29  2  0  0  0  0
 28 30  1  0  0  0  0
 30 31  1  0  0  0  0
 31 32  1  0  0  0  0
 32 33  1  0  0  0  0
 34 35  1  0  0  0  0
 34 36  1  0  0  0  0
 36 37  2  0  0  0  0
 36 48  1  0  0  0  0
 37 38  1  0  0  0  0
 37 50  1  0  0  0  0
 38 39  2  0  0  0  0
 38 40  1  0  0  0  0
 40 41  1  0  0  0  0
 40 45  2  0  0  0  0
 41 42  2  0  0  0  0
 41 48  1  0  0  0  0
 42 43  1  0  0  0  0
 43 44  2  0  0  0  0
 44 45  1  0  0  0  0
 45 46  1  0  0  0  0
 46 47  1  0  0  0  0
 48 49  2  0  0  0  0
 50 51  1  0  0  0  0
M  END
>  <Index>
1134

>  <ID>
HT2163

>  <class>
0

>  <apol>
97.04155

>  <ast_fraglike>
0

>  <ast_fraglike_ext>
0

>  <ast_violation>
3

>  <ast_violation_ext>
5

>  <a_acc>
12

>  <a_acid>
0

>  <a_aro>
12

>  <a_base>
0

>  <a_count>
87

>  <a_don>
5

>  <a_donacc>
17

>  <a_heavy>
51

>  <a_hyd>
31

>  <a_IC>
148.58444

>  <a_ICM>
1.7078671

>  <a_nB>
0

>  <a_nBr>
0

>  <a_nC>
34

>  <a_nCl>
0

>  <a_nF>
3

>  <a_nH>
36

>  <a_nI>
0

>  <a_nN>
1

>  <a_nO>
13

>  <a_nP>
0

>  <a_nS>
0

>  <balabanJ>
1.4482332

>  <BCUT_PEOE_0>
-2.7526395

>  <BCUT_PEOE_1>
-0.53437221

>  <BCUT_PEOE_2>
0.56081998

>  <BCUT_PEOE_3>
2.7816019

>  <BCUT_SLOGP_0>
-2.891516

>  <BCUT_SLOGP_1>
-0.4943881

>  <BCUT_SLOGP_2>
0.5375827

>  <BCUT_SLOGP_3>
2.7511399

>  <BCUT_SMR_0>
-2.5284555

>  <BCUT_SMR_1>
-0.36792606

>  <BCUT_SMR_2>
0.71366346

>  <BCUT_SMR_3>
2.9964352

>  <bpol>
56.078453

>  <b_1rotN>
10

>  <b_1rotR>
0.18181819

>  <b_ar>
12

>  <b_count>
91

>  <b_double>
5

>  <b_heavy>
55

>  <b_max1len>
5

>  <b_rotN>
13

>  <b_rotR>
0.23636363

>  <b_single>
74

>  <b_triple>
0

>  <chi0>
37.576256

>  <chi0v>
27.665531

>  <chi0v_C>
20.56855

>  <chi0_C>
22.040724

>  <chi1>
23.926796

>  <chi1v>
16.079571

>  <chi1v_C>
10.976328

>  <chi1_C>
12.834901

>  <chiral>
6

>  <chiral_u>
0

>  <density>
0.85342133

>  <diameter>
18

>  <FCharge>
0

>  <GCUT_PEOE_0>
-0.82067072

>  <GCUT_PEOE_1>
-0.44260409

>  <GCUT_PEOE_2>
0.070343971

>  <GCUT_PEOE_3>
3.1412692

>  <GCUT_SLOGP_0>
-1.1635724

>  <GCUT_SLOGP_1>
-0.34326366

>  <GCUT_SLOGP_2>
0.09032961

>  <GCUT_SLOGP_3>
3.1613894

>  <GCUT_SMR_0>
-0.52850479

>  <GCUT_SMR_1>
-0.21415086

>  <GCUT_SMR_2>
0.17349514

>  <GCUT_SMR_3>
3.3760958

>  <Kier1>
42.148762

>  <Kier2>
17.013889

>  <Kier3>
8.7107754

>  <KierA1>
34.156532

>  <KierA2>
13.726932

>  <KierA3>
7.0060563

>  <KierFlex>
9.1934185

>  <lip_acc>
14

>  <lip_don>
5

>  <lip_druglike>
0

>  <lip_violation>
2

>  <logP(o/w)>
3.2607601

>  <logS>
-7.2440801

>  <mr>
16.959351

>  <mutagenic>
0

>  <nmol>
1

>  <opr_brigid>
27

>  <opr_leadlike>
0

>  <opr_nring>
5

>  <opr_nrot>
13

>  <opr_violation>
4

>  <PC+>
0

>  <PC->
0

>  <PEOE_PC+>
5.3973103

>  <PEOE_PC->
-5.3973103

>  <PEOE_RPC+>
0.087380558

>  <PEOE_RPC->
0.071739025

>  <PEOE_VSA+0>
140.99693

>  <PEOE_VSA+1>
100.40701

>  <PEOE_VSA+2>
19.856222

>  <PEOE_VSA+3>
45.149479

>  <PEOE_VSA+4>
41.296692

>  <PEOE_VSA+5>
14.708499

>  <PEOE_VSA+6>
21.995033

>  <PEOE_VSA-0>
41.912434

>  <PEOE_VSA-1>
51.958797

>  <PEOE_VSA-2>
0

>  <PEOE_VSA-3>
35.725906

>  <PEOE_VSA-4>
0

>  <PEOE_VSA-5>
67.834602

>  <PEOE_VSA-6>
41.222076

>  <PEOE_VSA_FHYD>
0.69977885

>  <PEOE_VSA_FNEG>
0.38303277

>  <PEOE_VSA_FPNEG>
0.17503296

>  <PEOE_VSA_FPOL>
0.30022115

>  <PEOE_VSA_FPOS>
0.6169672

>  <PEOE_VSA_FPPOS>
0.1251882

>  <PEOE_VSA_HYD>
436.00681

>  <PEOE_VSA_NEG>
238.65382

>  <PEOE_VSA_PNEG>
109.05668

>  <PEOE_VSA_POL>
187.0569

>  <PEOE_VSA_POS>
384.40988

>  <PEOE_VSA_PPOS>
78.000221

>  <petitjean>
0.5

>  <petitjeanSC>
1

>  <Q_PC+>
0

>  <Q_PC->
0

>  <Q_RPC+>
0

>  <Q_RPC->
0

>  <Q_VSA_FHYD>
1

>  <Q_VSA_FNEG>
0

>  <Q_VSA_FPNEG>
0

>  <Q_VSA_FPOL>
0

>  <Q_VSA_FPOS>
1

>  <Q_VSA_FPPOS>
0

>  <Q_VSA_HYD>
623.06372

>  <Q_VSA_NEG>
0

>  <Q_VSA_PNEG>
0

>  <Q_VSA_POL>
0

>  <Q_VSA_POS>
623.06372

>  <Q_VSA_PPOS>
0

>  <radius>
9

>  <reactive>
1

>  <rings>
5

>  <RPC+>
0

>  <RPC->
0

>  <rsynth>
0.68627453

>  <SlogP>
2.5576701

>  <SlogP_VSA0>
130.55154

>  <SlogP_VSA1>
37.826595

>  <SlogP_VSA2>
130.03209

>  <SlogP_VSA3>
20.926258

>  <SlogP_VSA4>
66.837883

>  <SlogP_VSA5>
54.252274

>  <SlogP_VSA6>
0

>  <SlogP_VSA7>
52.929554

>  <SlogP_VSA8>
100.81068

>  <SlogP_VSA9>
127.26266

>  <SMR>
16.52739

>  <SMR_VSA0>
152.31075

>  <SMR_VSA1>
157.42113

>  <SMR_VSA2>
25.770267

>  <SMR_VSA3>
66.758156

>  <SMR_VSA4>
0

>  <SMR_VSA5>
166.13998

>  <SMR_VSA6>
50.99334

>  <SMR_VSA7>
102.0359

>  <TPSA>
215.22

>  <VAdjEq>
0.2527014

>  <VAdjMa>
6.7813597

>  <VDistEq>
3.9496593

>  <VDistMa>
11.100365

>  <vdw_area>
623.06372

>  <vdw_vol>
847.93988

>  <vsa_acc>
75.345871

>  <vsa_acid>
0

>  <vsa_base>
0

>  <vsa_don>
5.6825762

>  <vsa_hyd>
374.28357

>  <vsa_other>
70.245842

>  <vsa_pol>
135.29613

>  <Weight>
723.64996

>  <weinerPath>
9714

>  <weinerPol>
100

>  <zagreb>
278

$$$$