n1c2c(cccc2)c(N)c2c1cccc2
  MOE2013           2D

 15 17  0  0  0  0  0  0  0  0999 V2000
    0.0000    0.0000    0.0000 N   0  0  0  0  0  0  0  0  0  0  0  0
    1.2990    0.7500    0.0000 C   0  0  0  0  0  0  0  0  0  0  0  0
    1.2990    2.2500    0.0000 C   0  0  0  0  0  0  0  0  0  0  0  0
    2.5980    3.0000    0.0000 C   0  0  0  0  0  0  0  0  0  0  0  0
    3.8970    2.2500    0.0000 C   0  0  0  0  0  0  0  0  0  0  0  0
    3.8970    0.7500    0.0000 C   0  0  0  0  0  0  0  0  0  0  0  0
    2.5980    0.0000    0.0000 C   0  0  0  0  0  0  0  0  0  0  0  0
    0.0000    3.0000    0.0000 C   0  0  0  0  0  0  0  0  0  0  0  0
    0.0000    4.5000    0.0000 N   0  0  0  0  0  0  0  0  0  0  0  0
   -1.2990    2.2500    0.0000 C   0  0  0  0  0  0  0  0  0  0  0  0
   -1.2990    0.7500    0.0000 C   0  0  0  0  0  0  0  0  0  0  0  0
   -2.5980    0.0000    0.0000 C   0  0  0  0  0  0  0  0  0  0  0  0
   -3.8970    0.7500    0.0000 C   0  0  0  0  0  0  0  0  0  0  0  0
   -3.8970    2.2500    0.0000 C   0  0  0  0  0  0  0  0  0  0  0  0
   -2.5980    3.0000    0.0000 C   0  0  0  0  0  0  0  0  0  0  0  0
  1  2  1  0  0  0  0
  1 11  2  0  0  0  0
  2  3  1  0  0  0  0
  2  7  2  0  0  0  0
  3  4  2  0  0  0  0
  3  8  1  0  0  0  0
  4  5  1  0  0  0  0
  5  6  2  0  0  0  0
  6  7  1  0  0  0  0
  8  9  1  0  0  0  0
  8 10  2  0  0  0  0
 10 11  1  0  0  0  0
 10 15  1  0  0  0  0
 11 12  1  0  0  0  0
 12 13  2  0  0  0  0
 13 14  1  0  0  0  0
 14 15  2  0  0  0  0
M  END
>  <Index>
1261

>  <ID>
HT2829

>  <class>
0

>  <apol>
31.747931

>  <ast_fraglike>
1

>  <ast_fraglike_ext>
1

>  <ast_violation>
0

>  <ast_violation_ext>
0

>  <a_acc>
1

>  <a_acid>
0

>  <a_aro>
14

>  <a_base>
0

>  <a_count>
25

>  <a_don>
1

>  <a_donacc>
2

>  <a_heavy>
15

>  <a_hyd>
13

>  <a_IC>
32.771408

>  <a_ICM>
1.3108563

>  <a_nB>
0

>  <a_nBr>
0

>  <a_nC>
13

>  <a_nCl>
0

>  <a_nF>
0

>  <a_nH>
10

>  <a_nI>
0

>  <a_nN>
2

>  <a_nO>
0

>  <a_nP>
0

>  <a_nS>
0

>  <balabanJ>
1.7818784

>  <BCUT_PEOE_0>
-2.2441912

>  <BCUT_PEOE_1>
-0.61819422

>  <BCUT_PEOE_2>
0.67386556

>  <BCUT_PEOE_3>
2.1980002

>  <BCUT_SLOGP_0>
-2.3151612

>  <BCUT_SLOGP_1>
-0.47440013

>  <BCUT_SLOGP_2>
0.78958082

>  <BCUT_SLOGP_3>
2.4003286

>  <BCUT_SMR_0>
-1.8777395

>  <BCUT_SMR_1>
-0.43657023

>  <BCUT_SMR_2>
0.86816531

>  <BCUT_SMR_3>
2.5690668

>  <bpol>
11.59207

>  <b_1rotN>
0

>  <b_1rotR>
0

>  <b_ar>
16

>  <b_count>
27

>  <b_double>
0

>  <b_heavy>
17

>  <b_max1len>
2

>  <b_rotN>
0

>  <b_rotR>
0

>  <b_single>
11

>  <b_triple>
0

>  <chi0>
10.250712

>  <chi0v>
8.1433659

>  <chi0v_C>
7.1188021

>  <chi0_C>
8.5436058

>  <chi1>
7.3601732

>  <chi1v>
4.8905892

>  <chi1v_C>
4.1547008

>  <chi1_C>
5.9663267

>  <chiral>
0

>  <chiral_u>
0

>  <density>
0.69743943

>  <diameter>
7

>  <FCharge>
0

>  <GCUT_PEOE_0>
-0.80722594

>  <GCUT_PEOE_1>
-0.40752724

>  <GCUT_PEOE_2>
0.068509653

>  <GCUT_PEOE_3>
2.3380551

>  <GCUT_SLOGP_0>
-1.3343648

>  <GCUT_SLOGP_1>
-0.22940964

>  <GCUT_SLOGP_2>
0.15337208

>  <GCUT_SLOGP_3>
2.5242064

>  <GCUT_SMR_0>
-0.40602389

>  <GCUT_SMR_1>
-0.18821469

>  <GCUT_SMR_2>
0.21362212

>  <GCUT_SMR_3>
2.684087

>  <Kier1>
10.173011

>  <Kier2>
4.1076388

>  <Kier3>
1.7439446

>  <KierA1>
6.4302883

>  <KierA2>
2.5008342

>  <KierA3>
1.0292636

>  <KierFlex>
1.0720724

>  <lip_acc>
2

>  <lip_don>
2

>  <lip_druglike>
1

>  <lip_violation>
0

>  <logP(o/w)>
2.8659999

>  <logS>
-3.5409801

>  <mr>
6.0744386

>  <mutagenic>
1

>  <nmol>
1

>  <opr_brigid>
16

>  <opr_leadlike>
1

>  <opr_nring>
3

>  <opr_nrot>
0

>  <opr_violation>
0

>  <PC+>
0

>  <PC->
0

>  <PEOE_PC+>
0.96271002

>  <PEOE_PC->
-0.96271002

>  <PEOE_RPC+>
0.12875657

>  <PEOE_RPC->
0.31286496

>  <PEOE_VSA+0>
11.116631

>  <PEOE_VSA+1>
47.52219

>  <PEOE_VSA+2>
17.238026

>  <PEOE_VSA+3>
0

>  <PEOE_VSA+4>
0

>  <PEOE_VSA+5>
0

>  <PEOE_VSA+6>
0

>  <PEOE_VSA-0>
24.509808

>  <PEOE_VSA-1>
73.529427

>  <PEOE_VSA-2>
0

>  <PEOE_VSA-3>
0

>  <PEOE_VSA-4>
5.6825762

>  <PEOE_VSA-5>
0

>  <PEOE_VSA-6>
6.6511192

>  <PEOE_VSA_FHYD>
0.93377876

>  <PEOE_VSA_FNEG>
0.59260702

>  <PEOE_VSA_FPNEG>
0.066221267

>  <PEOE_VSA_FPOL>
0.066221267

>  <PEOE_VSA_FPOS>
0.40739295

>  <PEOE_VSA_FPPOS>
0

>  <PEOE_VSA_HYD>
173.91608

>  <PEOE_VSA_NEG>
110.37292

>  <PEOE_VSA_PNEG>
12.333695

>  <PEOE_VSA_POL>
12.333695

>  <PEOE_VSA_POS>
75.876846

>  <PEOE_VSA_PPOS>
0

>  <petitjean>
0.42857143

>  <petitjeanSC>
0.75

>  <Q_PC+>
0

>  <Q_PC->
0

>  <Q_RPC+>
0

>  <Q_RPC->
0

>  <Q_VSA_FHYD>
1

>  <Q_VSA_FNEG>
0

>  <Q_VSA_FPNEG>
0

>  <Q_VSA_FPOL>
0

>  <Q_VSA_FPOS>
1

>  <Q_VSA_FPPOS>
0

>  <Q_VSA_HYD>
186.24977

>  <Q_VSA_NEG>
0

>  <Q_VSA_PNEG>
0

>  <Q_VSA_POL>
0

>  <Q_VSA_POS>
186.24977

>  <Q_VSA_PPOS>
0

>  <radius>
4

>  <reactive>
0

>  <rings>
3

>  <RPC+>
0

>  <RPC->
0

>  <rsynth>
1

>  <SlogP>
2.9702001

>  <SlogP_VSA0>
32.897186

>  <SlogP_VSA1>
16.78553

>  <SlogP_VSA2>
0

>  <SlogP_VSA3>
0

>  <SlogP_VSA4>
0

>  <SlogP_VSA5>
0

>  <SlogP_VSA6>
0

>  <SlogP_VSA7>
150.57968

>  <SlogP_VSA8>
0

>  <SlogP_VSA9>
2.7567475

>  <SMR>
6.3661399

>  <SMR_VSA0>
0

>  <SMR_VSA1>
16.78553

>  <SMR_VSA2>
0

>  <SMR_VSA3>
0

>  <SMR_VSA4>
12.19095

>  <SMR_VSA5>
174.04266

>  <SMR_VSA6>
0

>  <SMR_VSA7>
0

>  <TPSA>
38.91

>  <VAdjEq>
0.61261392

>  <VAdjMa>
5.0874629

>  <VDistEq>
2.553652

>  <VDistMa>
7.5372267

>  <vdw_area>
186.24977

>  <vdw_vol>
278.50018

>  <vsa_acc>
5.6825762

>  <vsa_acid>
0

>  <vsa_base>
0

>  <vsa_don>
17.742489

>  <vsa_hyd>
150.98369

>  <vsa_other>
0

>  <vsa_pol>
23.425066

>  <Weight>
194.237

>  <weinerPath>
326

>  <weinerPol>
25

>  <zagreb>
82

$$$$