Clc1ccc(cc1OCC(O)CNC(C)(C)C)C
  MOE2013           2D

 18 18  0  0  1  0  0  0  0  0999 V2000
    0.0000    0.0000    0.0000 Cl  0  0  0  0  0  0  0  0  0  0  0  0
   -0.7530    1.2970    0.0000 C   0  0  0  0  0  0  0  0  0  0  0  0
   -2.2530    1.2930    0.0000 C   0  0  0  0  0  0  0  0  0  0  0  0
   -3.0070    2.5900    0.0000 C   0  0  0  0  0  0  0  0  0  0  0  0
   -2.2600    3.8910    0.0000 C   0  0  0  0  0  0  0  0  0  0  0  0
   -0.7600    3.8950    0.0000 C   0  0  0  0  0  0  0  0  0  0  0  0
   -0.0070    2.5980    0.0000 C   0  0  0  0  0  0  0  0  0  0  0  0
    1.4930    2.6020    0.0000 O   0  0  0  0  0  0  0  0  0  0  0  0
    2.2400    3.9030    0.0000 C   0  0  0  0  0  0  0  0  0  0  0  0
    3.7400    3.9070    0.0000 C   0  0  3  0  0  0  0  0  0  0  0  0
    4.4930    2.6100    0.0000 O   0  0  0  0  0  0  0  0  0  0  0  0
    4.4860    5.2080    0.0000 C   0  0  0  0  0  0  0  0  0  0  0  0
    5.9860    5.2120    0.0000 N   0  0  0  0  0  0  0  0  0  0  0  0
    6.7330    6.5130    0.0000 C   0  0  0  0  0  0  0  0  0  0  0  0
    5.4320    7.2590    0.0000 C   0  0  0  0  0  0  0  0  0  0  0  0
    8.0340    5.7660    0.0000 C   0  0  0  0  0  0  0  0  0  0  0  0
    7.4800    7.8140    0.0000 C   0  0  0  0  0  0  0  0  0  0  0  0
   -3.0140    5.1880    0.0000 C   0  0  0  0  0  0  0  0  0  0  0  0
  1  2  1  0  0  0  0
  2  3  1  0  0  0  0
  2  7  2  0  0  0  0
  3  4  2  0  0  0  0
  4  5  1  0  0  0  0
  5  6  2  0  0  0  0
  5 18  1  0  0  0  0
  6  7  1  0  0  0  0
  7  8  1  0  0  0  0
  8  9  1  0  0  0  0
  9 10  1  0  0  0  0
 10 11  1  0  0  0  0
 10 12  1  0  0  0  0
 12 13  1  0  0  0  0
 13 14  1  0  0  0  0
 14 15  1  0  0  0  0
 14 16  1  0  0  0  0
 14 17  1  0  0  0  0
M  END
>  <Index>
164

>  <ID>
HT0328

>  <class>
0

>  <apol>
44.193447

>  <ast_fraglike>
1

>  <ast_fraglike_ext>
0

>  <ast_violation>
0

>  <ast_violation_ext>
1

>  <a_acc>
3

>  <a_acid>
0

>  <a_aro>
6

>  <a_base>
0

>  <a_count>
40

>  <a_don>
2

>  <a_donacc>
5

>  <a_heavy>
18

>  <a_hyd>
15

>  <a_IC>
59.46666

>  <a_ICM>
1.4866664

>  <a_nB>
0

>  <a_nBr>
0

>  <a_nC>
14

>  <a_nCl>
1

>  <a_nF>
0

>  <a_nH>
22

>  <a_nI>
0

>  <a_nN>
1

>  <a_nO>
2

>  <a_nP>
0

>  <a_nS>
0

>  <balabanJ>
2.2296612

>  <BCUT_PEOE_0>
-2.7109163

>  <BCUT_PEOE_1>
-0.44214794

>  <BCUT_PEOE_2>
0.42311555

>  <BCUT_PEOE_3>
2.6433475

>  <BCUT_SLOGP_0>
-2.8411851

>  <BCUT_SLOGP_1>
-0.29578799

>  <BCUT_SLOGP_2>
0.47664717

>  <BCUT_SLOGP_3>
2.618721

>  <BCUT_SMR_0>
-2.4448309

>  <BCUT_SMR_1>
-0.19154687

>  <BCUT_SMR_2>
0.64768857

>  <BCUT_SMR_3>
2.9002068

>  <bpol>
27.046555

>  <b_1rotN>
5

>  <b_1rotR>
0.27777779

>  <b_ar>
6

>  <b_count>
40

>  <b_double>
0

>  <b_heavy>
18

>  <b_max1len>
7

>  <b_rotN>
6

>  <b_rotR>
0.33333334

>  <b_single>
34

>  <b_triple>
0

>  <chi0>
13.759149

>  <chi0v>
12.21297

>  <chi0v_C>
9.7236147

>  <chi0_C>
10.344935

>  <chi1>
8.2766752

>  <chi1v>
6.4760289

>  <chi1v_C>
4.5545306

>  <chi1_C>
5.3601732

>  <chiral>
1

>  <chiral_u>
1

>  <density>
0.72335976

>  <diameter>
10

>  <FCharge>
0

>  <GCUT_PEOE_0>
-0.84480703

>  <GCUT_PEOE_1>
-0.31242201

>  <GCUT_PEOE_2>
-0.095204197

>  <GCUT_PEOE_3>
2.5238576

>  <GCUT_SLOGP_0>
-1.1534332

>  <GCUT_SLOGP_1>
-0.22765277

>  <GCUT_SLOGP_2>
-0.0085199336

>  <GCUT_SLOGP_3>
2.5555043

>  <GCUT_SMR_0>
-0.52411276

>  <GCUT_SMR_1>
-0.089550786

>  <GCUT_SMR_2>
0.14684443

>  <GCUT_SMR_3>
2.7623675

>  <Kier1>
16.055555

>  <Kier2>
6.9632001

>  <Kier3>
6.6666665

>  <KierA1>
15.170983

>  <KierA2>
6.5565109

>  <KierA3>
6.2610292

>  <KierFlex>
5.5260401

>  <lip_acc>
3

>  <lip_don>
2

>  <lip_druglike>
1

>  <lip_violation>
0

>  <logP(o/w)>
3.033

>  <logS>
-3.1895001

>  <mr>
7.5386477

>  <mutagenic>
0

>  <nmol>
1

>  <opr_brigid>
6

>  <opr_leadlike>
1

>  <opr_nring>
1

>  <opr_nrot>
6

>  <opr_violation>
0

>  <PC+>
0

>  <PC->
0

>  <PEOE_PC+>
1.4732448

>  <PEOE_PC->
-1.4732448

>  <PEOE_RPC+>
0.14249602

>  <PEOE_RPC->
0.26352543

>  <PEOE_VSA+0>
72.90773

>  <PEOE_VSA+1>
58.426804

>  <PEOE_VSA+2>
8.6190128

>  <PEOE_VSA+3>
0

>  <PEOE_VSA+4>
10.324173

>  <PEOE_VSA+5>
0

>  <PEOE_VSA+6>
0

>  <PEOE_VSA-0>
101.70906

>  <PEOE_VSA-1>
41.836849

>  <PEOE_VSA-2>
0

>  <PEOE_VSA-3>
0

>  <PEOE_VSA-4>
0

>  <PEOE_VSA-5>
0

>  <PEOE_VSA-6>
10.408187

>  <PEOE_VSA_FHYD>
0.93185341

>  <PEOE_VSA_FNEG>
0.50604206

>  <PEOE_VSA_FPNEG>
0.034211371

>  <PEOE_VSA_FPOL>
0.068146586

>  <PEOE_VSA_FPOS>
0.49395794

>  <PEOE_VSA_FPPOS>
0.033935215

>  <PEOE_VSA_HYD>
283.49945

>  <PEOE_VSA_NEG>
153.9541

>  <PEOE_VSA_PNEG>
10.408187

>  <PEOE_VSA_POL>
20.732361

>  <PEOE_VSA_POS>
150.27773

>  <PEOE_VSA_PPOS>
10.324173

>  <petitjean>
0.5

>  <petitjeanSC>
1

>  <Q_PC+>
0

>  <Q_PC->
0

>  <Q_RPC+>
0

>  <Q_RPC->
0

>  <Q_VSA_FHYD>
1

>  <Q_VSA_FNEG>
0

>  <Q_VSA_FPNEG>
0

>  <Q_VSA_FPOL>
0

>  <Q_VSA_FPOS>
1

>  <Q_VSA_FPPOS>
0

>  <Q_VSA_HYD>
304.23181

>  <Q_VSA_NEG>
0

>  <Q_VSA_PNEG>
0

>  <Q_VSA_POL>
0

>  <Q_VSA_POS>
304.23181

>  <Q_VSA_PPOS>
0

>  <radius>
5

>  <reactive>
0

>  <rings>
1

>  <RPC+>
0

>  <RPC->
0

>  <rsynth>
1

>  <SlogP>
2.7762201

>  <SlogP_VSA0>
54.395866

>  <SlogP_VSA1>
0

>  <SlogP_VSA2>
6.4686494

>  <SlogP_VSA3>
39.365837

>  <SlogP_VSA4>
3.185575

>  <SlogP_VSA5>
0

>  <SlogP_VSA6>
3.5006065

>  <SlogP_VSA7>
52.929554

>  <SlogP_VSA8>
0

>  <SlogP_VSA9>
177.69614

>  <SMR>
7.5446501

>  <SMR_VSA0>
0

>  <SMR_VSA1>
36.385113

>  <SMR_VSA2>
18.01075

>  <SMR_VSA3>
18.398258

>  <SMR_VSA4>
0

>  <SMR_VSA5>
52.929554

>  <SMR_VSA6>
39.365837

>  <SMR_VSA7>
172.4527

>  <TPSA>
41.490002

>  <VAdjEq>
0.50325835

>  <VAdjMa>
5.1699252

>  <VDistEq>
3.2320347

>  <VDistMa>
8.0092621

>  <vdw_area>
304.23181

>  <vdw_vol>
375.73004

>  <vsa_acc>
2.503756

>  <vsa_acid>
0

>  <vsa_base>
0

>  <vsa_don>
0

>  <vsa_hyd>
260.64453

>  <vsa_other>
0

>  <vsa_pol>
21.753254

>  <Weight>
271.78799

>  <weinerPath>
704

>  <weinerPol>
21

>  <zagreb>
86

$$$$