S(=O)(C)C
  MOE2013           2D

  4  3  0  0  0  0  0  0  0  0999 V2000
    0.0000    0.0000    0.0000 S   0  0  0  0  0  0  0  0  0  0  0  0
   -1.5000   -0.0040    0.0000 O   0  0  0  0  0  0  0  0  0  0  0  0
    0.7460    1.3010    0.0000 C   0  0  0  0  0  0  0  0  0  0  0  0
    0.7540   -1.2970    0.0000 C   0  0  0  0  0  0  0  0  0  0  0  0
  1  2  2  0  0  0  0
  1  3  1  0  0  0  0
  1  4  1  0  0  0  0
M  END
>  <Index>
1189

>  <ID>
HT2347

>  <class>
0

>  <apol>
11.222758

>  <ast_fraglike>
1

>  <ast_fraglike_ext>
1

>  <ast_violation>
0

>  <ast_violation_ext>
0

>  <a_acc>
1

>  <a_acid>
0

>  <a_aro>
0

>  <a_base>
0

>  <a_count>
10

>  <a_don>
0

>  <a_donacc>
1

>  <a_heavy>
4

>  <a_hyd>
2

>  <a_IC>
15.709506

>  <a_ICM>
1.5709506

>  <a_nB>
0

>  <a_nBr>
0

>  <a_nC>
2

>  <a_nCl>
0

>  <a_nF>
0

>  <a_nH>
6

>  <a_nI>
0

>  <a_nN>
0

>  <a_nO>
1

>  <a_nP>
0

>  <a_nS>
1

>  <balabanJ>
2.3237901

>  <BCUT_PEOE_0>
-2.3309755

>  <BCUT_PEOE_1>
0.080356285

>  <BCUT_PEOE_2>
0.080356285

>  <BCUT_PEOE_3>
2.3664989

>  <BCUT_SLOGP_0>
-2.4176769

>  <BCUT_SLOGP_1>
0.123

>  <BCUT_SLOGP_2>
0.123

>  <BCUT_SLOGP_3>
2.2625725

>  <BCUT_SMR_0>
-2.0168529

>  <BCUT_SMR_1>
0.1057

>  <BCUT_SMR_2>
0.1057

>  <BCUT_SMR_3>
2.6982155

>  <bpol>
10.937242

>  <b_1rotN>
0

>  <b_1rotR>
0

>  <b_ar>
0

>  <b_count>
9

>  <b_double>
0

>  <b_heavy>
3

>  <b_max1len>
4

>  <b_rotN>
0

>  <b_rotR>
0

>  <b_single>
9

>  <b_triple>
0

>  <chi0>
3.5773504

>  <chi0v>
3.6329932

>  <chi0v_C>
2

>  <chi0_C>
2

>  <chi1>
1.7320508

>  <chi1v>
2.9494898

>  <chi1v_C>
0

>  <chi1_C>
0

>  <chiral>
0

>  <chiral_u>
0

>  <density>
0.83574855

>  <diameter>
2

>  <FCharge>
0

>  <GCUT_PEOE_0>
-0.88105184

>  <GCUT_PEOE_1>
-0.095451437

>  <GCUT_PEOE_2>
-0.079643711

>  <GCUT_PEOE_3>
1.671315

>  <GCUT_SLOGP_0>
-0.83276701

>  <GCUT_SLOGP_1>
-0.037

>  <GCUT_SLOGP_2>
-0.037

>  <GCUT_SLOGP_3>
1.6084609

>  <GCUT_SMR_0>
-0.45229715

>  <GCUT_SMR_1>
-0.054299999

>  <GCUT_SMR_2>
-0.054299999

>  <GCUT_SMR_3>
1.9657699

>  <Kier1>
4

>  <Kier2>
1.3333334

>  <Kier3>
0

>  <KierA1>
6.125

>  <KierA2>
2.4305553

>  <KierA3>
0

>  <KierFlex>
3.7217879

>  <lip_acc>
1

>  <lip_don>
0

>  <lip_druglike>
1

>  <lip_violation>
0

>  <logP(o/w)>
-1.143

>  <logS>
0.14881

>  <mr>
1.9507171

>  <mutagenic>
0

>  <nmol>
1

>  <opr_brigid>
0

>  <opr_leadlike>
1

>  <opr_nring>
0

>  <opr_nrot>
0

>  <opr_violation>
0

>  <PC+>
0

>  <PC->
0

>  <PEOE_PC+>
0.67566997

>  <PEOE_PC->
-0.67566997

>  <PEOE_RPC+>
0.14321508

>  <PEOE_RPC->
0.91512239

>  <PEOE_VSA+0>
0

>  <PEOE_VSA+1>
67.039795

>  <PEOE_VSA+2>
0

>  <PEOE_VSA+3>
0

>  <PEOE_VSA+4>
0

>  <PEOE_VSA+5>
0

>  <PEOE_VSA+6>
0

>  <PEOE_VSA-0>
0

>  <PEOE_VSA-1>
13.136708

>  <PEOE_VSA-2>
0

>  <PEOE_VSA-3>
0

>  <PEOE_VSA-4>
0

>  <PEOE_VSA-5>
0

>  <PEOE_VSA-6>
16.008261

>  <PEOE_VSA_FHYD>
0.83356762

>  <PEOE_VSA_FNEG>
0.30301026

>  <PEOE_VSA_FPNEG>
0.16643241

>  <PEOE_VSA_FPOL>
0.16643241

>  <PEOE_VSA_FPOS>
0.69698972

>  <PEOE_VSA_FPPOS>
0

>  <PEOE_VSA_HYD>
80.176506

>  <PEOE_VSA_NEG>
29.14497

>  <PEOE_VSA_PNEG>
16.008261

>  <PEOE_VSA_POL>
16.008261

>  <PEOE_VSA_POS>
67.039795

>  <PEOE_VSA_PPOS>
0

>  <petitjean>
0.5

>  <petitjeanSC>
1

>  <Q_PC+>
0

>  <Q_PC->
0

>  <Q_RPC+>
0

>  <Q_RPC->
0

>  <Q_VSA_FHYD>
1

>  <Q_VSA_FNEG>
0

>  <Q_VSA_FPNEG>
0

>  <Q_VSA_FPOL>
0

>  <Q_VSA_FPOS>
1

>  <Q_VSA_FPPOS>
0

>  <Q_VSA_HYD>
96.184761

>  <Q_VSA_NEG>
0

>  <Q_VSA_PNEG>
0

>  <Q_VSA_POL>
0

>  <Q_VSA_POS>
96.184761

>  <Q_VSA_PPOS>
0

>  <radius>
1

>  <reactive>
0

>  <rings>
0

>  <RPC+>
0

>  <RPC->
0

>  <rsynth>
1

>  <SlogP>
-0.0052999998

>  <SlogP_VSA0>
0

>  <SlogP_VSA1>
24.085844

>  <SlogP_VSA2>
19.549404

>  <SlogP_VSA3>
0

>  <SlogP_VSA4>
0

>  <SlogP_VSA5>
63.382347

>  <SlogP_VSA6>
0

>  <SlogP_VSA7>
0

>  <SlogP_VSA8>
0

>  <SlogP_VSA9>
0

>  <SMR>
1.99904

>  <SMR_VSA0>
24.085844

>  <SMR_VSA1>
0

>  <SMR_VSA2>
0

>  <SMR_VSA3>
0

>  <SMR_VSA4>
0

>  <SMR_VSA5>
0

>  <SMR_VSA6>
0

>  <SMR_VSA7>
82.931755

>  <TPSA>
36.279999

>  <VAdjEq>
0.95443398

>  <VAdjMa>
2.5849626

>  <VDistEq>
1

>  <VDistMa>
3.5032582

>  <vdw_area>
96.184761

>  <vdw_vol>
93.491043

>  <vsa_acc>
16.008261

>  <vsa_acid>
0

>  <vsa_base>
0

>  <vsa_don>
0

>  <vsa_hyd>
62.769024

>  <vsa_other>
13.136708

>  <vsa_pol>
16.008261

>  <Weight>
78.135002

>  <weinerPath>
9

>  <weinerPol>
0

>  <zagreb>
12

$$$$