Clc1c2c(C(O)=C3C(CC4C(O)(C(O)=C(C(O)=O)C(=O)C4N(C)C)C3=O)C2O)c(O)cc1
  MOE2013           2D

 32 35  0  0  1  0  0  0  0  0999 V2000
    0.0000    0.0000    0.0000 Cl  0  0  0  0  0  0  0  0  0  0  0  0
    0.7440    1.3020    0.0000 C   0  0  0  0  0  0  0  0  0  0  0  0
    2.2440    1.3090    0.0000 C   0  0  0  0  0  0  0  0  0  0  0  0
    2.9880    2.6120    0.0000 C   0  0  0  0  0  0  0  0  0  0  0  0
    4.4880    2.6190    0.0000 C   0  0  0  0  0  0  0  0  0  0  0  0
    5.2320    3.9210    0.0000 O   0  0  0  0  0  0  0  0  0  0  0  0
    5.2440    1.3230    0.0000 C   0  0  0  0  0  0  0  0  0  0  0  0
    4.5000    0.0210    0.0000 C   0  0  3  0  0  0  0  0  0  0  0  0
    5.2560   -1.2750    0.0000 C   0  0  0  0  0  0  0  0  0  0  0  0
    6.7560   -1.2680    0.0000 C   0  0  3  0  0  0  0  0  0  0  0  0
    7.5000    0.0340    0.0000 C   0  0  3  0  0  0  0  0  0  0  0  0
    8.2440    1.3370    0.0000 O   0  0  0  0  0  0  0  0  0  0  0  0
    9.0000    0.0410    0.0000 C   0  0  0  0  0  0  0  0  0  0  0  0
    9.7440    1.3430    0.0000 O   0  0  0  0  0  0  0  0  0  0  0  0
    9.7560   -1.2550    0.0000 C   0  0  0  0  0  0  0  0  0  0  0  0
   11.2560   -1.2480    0.0000 C   0  0  0  0  0  0  0  0  0  0  0  0
   12.0120   -2.5430    0.0000 O   0  0  0  0  0  0  0  0  0  0  0  0
   12.0000    0.0550    0.0000 O   0  0  0  0  0  0  0  0  0  0  0  0
    9.0120   -2.5570    0.0000 C   0  0  0  0  0  0  0  0  0  0  0  0
    9.7680   -3.8530    0.0000 O   0  0  0  0  0  0  0  0  0  0  0  0
    7.5120   -2.5640    0.0000 C   0  0  3  0  0  0  0  0  0  0  0  0
    6.7680   -3.8660    0.0000 N   0  0  0  0  0  0  0  0  0  0  0  0
    7.5240   -5.1620    0.0000 C   0  0  0  0  0  0  0  0  0  0  0  0
    5.2680   -3.8730    0.0000 C   0  0  0  0  0  0  0  0  0  0  0  0
    6.7440    1.3300    0.0000 C   0  0  0  0  0  0  0  0  0  0  0  0
    7.4880    2.6320    0.0000 O   0  0  0  0  0  0  0  0  0  0  0  0
    3.0000    0.0140    0.0000 C   0  0  3  0  0  0  0  0  0  0  0  0
    2.2560   -1.2890    0.0000 O   0  0  0  0  0  0  0  0  0  0  0  0
    2.2320    3.9070    0.0000 C   0  0  0  0  0  0  0  0  0  0  0  0
    2.9760    5.2100    0.0000 O   0  0  0  0  0  0  0  0  0  0  0  0
    0.7320    3.9000    0.0000 C   0  0  0  0  0  0  0  0  0  0  0  0
   -0.0120    2.5980    0.0000 C   0  0  0  0  0  0  0  0  0  0  0  0
  1  2  1  0  0  0  0
  2  3  1  0  0  0  0
  2 32  2  0  0  0  0
  3  4  2  0  0  0  0
  3 27  1  0  0  0  0
  4  5  1  0  0  0  0
  4 29  1  0  0  0  0
  5  6  1  0  0  0  0
  5  7  2  0  0  0  0
  7  8  1  0  0  0  0
  7 25  1  0  0  0  0
  8  9  1  0  0  0  0
  8 27  1  0  0  0  0
  9 10  1  0  0  0  0
 10 11  1  0  0  0  0
 10 21  1  0  0  0  0
 11 12  1  0  0  0  0
 11 13  1  0  0  0  0
 11 25  1  0  0  0  0
 13 14  1  0  0  0  0
 13 15  2  0  0  0  0
 15 16  1  0  0  0  0
 15 19  1  0  0  0  0
 16 17  1  0  0  0  0
 16 18  2  0  0  0  0
 19 20  2  0  0  0  0
 19 21  1  0  0  0  0
 21 22  1  0  0  0  0
 22 23  1  0  0  0  0
 22 24  1  0  0  0  0
 25 26  2  0  0  0  0
 27 28  1  0  0  0  0
 29 30  1  0  0  0  0
 29 31  2  0  0  0  0
 31 32  1  0  0  0  0
M  END
>  <Index>
1390

>  <ID>
HT3854

>  <class>
0

>  <apol>
60.793861

>  <ast_fraglike>
0

>  <ast_fraglike_ext>
0

>  <ast_violation>
3

>  <ast_violation_ext>
4

>  <a_acc>
10

>  <a_acid>
0

>  <a_aro>
6

>  <a_base>
0

>  <a_count>
52

>  <a_don>
9

>  <a_donacc>
19

>  <a_heavy>
32

>  <a_hyd>
19

>  <a_IC>
89.216316

>  <a_ICM>
1.7156984

>  <a_nB>
0

>  <a_nBr>
0

>  <a_nC>
21

>  <a_nCl>
1

>  <a_nF>
0

>  <a_nH>
20

>  <a_nI>
0

>  <a_nN>
1

>  <a_nO>
9

>  <a_nP>
0

>  <a_nS>
0

>  <balabanJ>
1.7933124

>  <BCUT_PEOE_0>
-2.7697041

>  <BCUT_PEOE_1>
-0.58767062

>  <BCUT_PEOE_2>
0.62930548

>  <BCUT_PEOE_3>
2.8373985

>  <BCUT_SLOGP_0>
-2.8643808

>  <BCUT_SLOGP_1>
-0.5828259

>  <BCUT_SLOGP_2>
0.69163203

>  <BCUT_SLOGP_3>
2.8016202

>  <BCUT_SMR_0>
-2.5379915

>  <BCUT_SMR_1>
-0.41583273

>  <BCUT_SMR_2>
0.8398332

>  <BCUT_SMR_3>
3.0642452

>  <bpol>
27.13814

>  <b_1rotN>
2

>  <b_1rotR>
0.057142857

>  <b_ar>
6

>  <b_count>
55

>  <b_double>
5

>  <b_heavy>
35

>  <b_max1len>
4

>  <b_rotN>
2

>  <b_rotR>
0.057142857

>  <b_single>
44

>  <b_triple>
0

>  <chi0>
23.858925

>  <chi0v>
17.660341

>  <chi0v_C>
12.171208

>  <chi0_C>
13.281574

>  <chi1>
14.849872

>  <chi1v>
10.006725

>  <chi1v_C>
6.2985473

>  <chi1_C>
7.6656852

>  <chiral>
5

>  <chiral_u>
5

>  <density>
0.87837613

>  <diameter>
11

>  <FCharge>
0

>  <GCUT_PEOE_0>
-0.84902066

>  <GCUT_PEOE_1>
-0.4587746

>  <GCUT_PEOE_2>
0.11648975

>  <GCUT_PEOE_3>
3.0637114

>  <GCUT_SLOGP_0>
-0.96495491

>  <GCUT_SLOGP_1>
-0.39286757

>  <GCUT_SLOGP_2>
0.090798832

>  <GCUT_SLOGP_3>
3.0588467

>  <GCUT_SMR_0>
-0.52280825

>  <GCUT_SMR_1>
-0.25392142

>  <GCUT_SMR_2>
0.26202145

>  <GCUT_SMR_3>
3.3041713

>  <Kier1>
25.103674

>  <Kier2>
8.5872574

>  <Kier3>
3.4482758

>  <KierA1>
21.139765

>  <KierA2>
7.1892109

>  <KierA3>
2.875011

>  <KierFlex>
4.7493196

>  <lip_acc>
10

>  <lip_don>
6

>  <lip_druglike>
1

>  <lip_violation>
1

>  <logP(o/w)>
0.47499999

>  <logS>
-2.71577

>  <mr>
10.838985

>  <mutagenic>
0

>  <nmol>
1

>  <opr_brigid>
21

>  <opr_leadlike>
0

>  <opr_nring>
4

>  <opr_nrot>
2

>  <opr_violation>
3

>  <PC+>
0

>  <PC->
0

>  <PEOE_PC+>
3.5155699

>  <PEOE_PC->
-3.5155699

>  <PEOE_RPC+>
0.084476255

>  <PEOE_RPC->
0.10994214

>  <PEOE_VSA+0>
53.799225

>  <PEOE_VSA+1>
42.029472

>  <PEOE_VSA+2>
10.667059

>  <PEOE_VSA+3>
8.458519

>  <PEOE_VSA+4>
70.403557

>  <PEOE_VSA+5>
14.708499

>  <PEOE_VSA+6>
0

>  <PEOE_VSA-0>
79.688499

>  <PEOE_VSA-1>
29.581947

>  <PEOE_VSA-2>
0

>  <PEOE_VSA-3>
0

>  <PEOE_VSA-4>
0

>  <PEOE_VSA-5>
40.700764

>  <PEOE_VSA-6>
46.60524

>  <PEOE_VSA_FHYD>
0.56530643

>  <PEOE_VSA_FNEG>
0.49560073

>  <PEOE_VSA_FPNEG>
0.22011243

>  <PEOE_VSA_FPOL>
0.43469355

>  <PEOE_VSA_FPOS>
0.5043993

>  <PEOE_VSA_FPPOS>
0.21458113

>  <PEOE_VSA_HYD>
224.22472

>  <PEOE_VSA_NEG>
196.57645

>  <PEOE_VSA_PNEG>
87.306007

>  <PEOE_VSA_POL>
172.41806

>  <PEOE_VSA_POS>
200.06633

>  <PEOE_VSA_PPOS>
85.112053

>  <petitjean>
0.45454547

>  <petitjeanSC>
0.83333331

>  <Q_PC+>
0

>  <Q_PC->
0

>  <Q_RPC+>
0

>  <Q_RPC->
0

>  <Q_VSA_FHYD>
1

>  <Q_VSA_FNEG>
0

>  <Q_VSA_FPNEG>
0

>  <Q_VSA_FPOL>
0

>  <Q_VSA_FPOS>
1

>  <Q_VSA_FPPOS>
0

>  <Q_VSA_HYD>
396.64279

>  <Q_VSA_NEG>
0

>  <Q_VSA_PNEG>
0

>  <Q_VSA_POL>
0

>  <Q_VSA_POS>
396.64279

>  <Q_VSA_PPOS>
0

>  <radius>
6

>  <reactive>
0

>  <rings>
4

>  <RPC+>
0

>  <RPC->
0

>  <rsynth>
0.4375

>  <SlogP>
0.80309999

>  <SlogP_VSA0>
76.155678

>  <SlogP_VSA1>
22.245001

>  <SlogP_VSA2>
75.568619

>  <SlogP_VSA3>
76.155678

>  <SlogP_VSA4>
15.192742

>  <SlogP_VSA5>
77.408951

>  <SlogP_VSA6>
3.5006065

>  <SlogP_VSA7>
40.529797

>  <SlogP_VSA8>
25.337055

>  <SlogP_VSA9>
44.392071

>  <SMR>
10.90628

>  <SMR_VSA0>
71.586647

>  <SMR_VSA1>
79.279991

>  <SMR_VSA2>
84.977272

>  <SMR_VSA3>
37.180382

>  <SMR_VSA4>
5.2434282

>  <SMR_VSA5>
54.154774

>  <SMR_VSA6>
19.120686

>  <SMR_VSA7>
104.94302

>  <TPSA>
175.83

>  <VAdjEq>
0.3597711

>  <VAdjMa>
6.129283

>  <VDistEq>
3.2246816

>  <VDistMa>
9.7660599

>  <vdw_area>
396.64279

>  <vdw_vol>
530.34454

>  <vsa_acc>
0

>  <vsa_acid>
0

>  <vsa_base>
0

>  <vsa_don>
0

>  <vsa_hyd>
203.11096

>  <vsa_other>
31.625538

>  <vsa_pol>
122.10229

>  <Weight>
465.84198

>  <weinerPath>
2388

>  <weinerPol>
75

>  <zagreb>
184

$$$$