O1C2C34C(C(N(CC3)C)Cc3c4c1c(OC(=O)C)cc3)C=CC2OC(=O)C
  MOE2013           2D

 27 31  0  0  1  0  0  0  0  0999 V2000
    0.0000    0.0000    0.0000 O   0  0  0  0  0  0  0  0  0  0  0  0
   -1.6960    0.5120    0.0000 C   0  0  3  0  0  0  0  0  0  0  0  0
   -1.4580    1.9190    0.0000 C   0  0  3  0  0  0  0  0  0  0  0  0
   -2.5630    2.8340    0.0000 C   0  0  3  0  0  0  0  0  0  0  0  0
   -2.3200    4.2570    0.0000 C   0  0  3  0  0  0  0  0  0  0  0  0
   -3.1390    5.4470    0.0000 N   0  0  3  0  0  0  0  0  0  0  0  0
   -1.7210    5.2020    0.0000 C   0  0  0  0  0  0  0  0  0  0  0  0
   -0.8390    3.2390    0.0000 C   0  0  0  0  0  0  0  0  0  0  0  0
   -4.4030    6.2550    0.0000 C   0  0  0  0  0  0  0  0  0  0  0  0
   -0.9690    4.7460    0.0000 C   0  0  0  0  0  0  0  0  0  0  0  0
    0.1390    3.8250    0.0000 C   0  0  0  0  0  0  0  0  0  0  0  0
   -0.1050    2.4130    0.0000 C   0  0  0  0  0  0  0  0  0  0  0  0
    0.9890    1.4940    0.0000 C   0  0  0  0  0  0  0  0  0  0  0  0
    2.3360    1.9920    0.0000 C   0  0  0  0  0  0  0  0  0  0  0  0
    3.4900    1.0330    0.0000 O   0  0  0  0  0  0  0  0  0  0  0  0
    4.8970    1.5510    0.0000 C   0  0  0  0  0  0  0  0  0  0  0  0
    6.0500    0.5920    0.0000 O   0  0  0  0  0  0  0  0  0  0  0  0
    5.1510    3.0300    0.0000 C   0  0  0  0  0  0  0  0  0  0  0  0
    2.5810    3.4030    0.0000 C   0  0  0  0  0  0  0  0  0  0  0  0
    1.4760    4.3170    0.0000 C   0  0  0  0  0  0  0  0  0  0  0  0
   -3.9060    2.3430    0.0000 C   0  0  0  0  0  0  0  0  0  0  0  0
   -4.1430    0.9260    0.0000 C   0  0  0  0  0  0  0  0  0  0  0  0
   -3.0380    0.0110    0.0000 C   0  0  3  0  0  0  0  0  0  0  0  0
   -3.2870   -1.4680    0.0000 O   0  0  0  0  0  0  0  0  0  0  0  0
   -4.6930   -1.9920    0.0000 C   0  0  0  0  0  0  0  0  0  0  0  0
   -5.8490   -1.0370    0.0000 O   0  0  0  0  0  0  0  0  0  0  0  0
   -4.9420   -3.4710    0.0000 C   0  0  0  0  0  0  0  0  0  0  0  0
  1  2  1  0  0  0  0
  1 13  1  0  0  0  0
  2  3  1  0  0  0  0
  2 23  1  0  0  0  0
  3  4  1  0  0  0  0
  3  8  1  0  0  0  0
  3 12  1  0  0  0  0
  4  5  1  0  0  0  0
  4 21  1  0  0  0  0
  5  6  1  0  0  0  0
  5 10  1  0  0  0  0
  6  7  1  0  0  0  0
  6  9  1  0  0  0  0
  7  8  1  0  0  0  0
 10 11  1  0  0  0  0
 11 12  1  0  0  0  0
 11 20  2  0  0  0  0
 12 13  2  0  0  0  0
 13 14  1  0  0  0  0
 14 15  1  0  0  0  0
 14 19  2  0  0  0  0
 15 16  1  0  0  0  0
 16 17  2  0  0  0  0
 16 18  1  0  0  0  0
 19 20  1  0  0  0  0
 21 22  2  0  0  0  0
 22 23  1  0  0  0  0
 23 24  1  0  0  0  0
 24 25  1  0  0  0  0
 25 26  2  0  0  0  0
 25 27  1  0  0  0  0
M  END
>  <Index>
1362

>  <ID>
HT3678

>  <class>
0

>  <apol>
57.406239

>  <ast_fraglike>
0

>  <ast_fraglike_ext>
0

>  <ast_violation>
2

>  <ast_violation_ext>
2

>  <a_acc>
4

>  <a_acid>
0

>  <a_aro>
6

>  <a_base>
0

>  <a_count>
50

>  <a_don>
0

>  <a_donacc>
4

>  <a_heavy>
27

>  <a_hyd>
19

>  <a_IC>
74.302582

>  <a_ICM>
1.4860516

>  <a_nB>
0

>  <a_nBr>
0

>  <a_nC>
21

>  <a_nCl>
0

>  <a_nF>
0

>  <a_nH>
23

>  <a_nI>
0

>  <a_nN>
1

>  <a_nO>
5

>  <a_nP>
0

>  <a_nS>
0

>  <balabanJ>
1.543286

>  <BCUT_PEOE_0>
-2.8695059

>  <BCUT_PEOE_1>
-0.50652194

>  <BCUT_PEOE_2>
0.55081677

>  <BCUT_PEOE_3>
2.8849978

>  <BCUT_SLOGP_0>
-2.9325769

>  <BCUT_SLOGP_1>
-0.43250793

>  <BCUT_SLOGP_2>
0.57025629

>  <BCUT_SLOGP_3>
2.8531332

>  <BCUT_SMR_0>
-2.6111023

>  <BCUT_SMR_1>
-0.3479479

>  <BCUT_SMR_2>
0.68893814

>  <BCUT_SMR_3>
3.1380181

>  <bpol>
34.787762

>  <b_1rotN>
2

>  <b_1rotR>
0.064516127

>  <b_ar>
6

>  <b_count>
54

>  <b_double>
3

>  <b_heavy>
31

>  <b_max1len>
2

>  <b_rotN>
4

>  <b_rotR>
0.12903225

>  <b_single>
45

>  <b_triple>
0

>  <chi0>
18.921921

>  <chi0v>
15.728578

>  <chi0v_C>
13.240123

>  <chi0_C>
14.22325

>  <chi1>
12.913558

>  <chi1v>
9.4878454

>  <chi1v_C>
6.7700558

>  <chi1_C>
7.9904356

>  <chiral>
5

>  <chiral_u>
5

>  <density>
0.76001358

>  <diameter>
10

>  <FCharge>
0

>  <GCUT_PEOE_0>
-0.85614091

>  <GCUT_PEOE_1>
-0.4257282

>  <GCUT_PEOE_2>
0.025819864

>  <GCUT_PEOE_3>
3.1290812

>  <GCUT_SLOGP_0>
-0.95980853

>  <GCUT_SLOGP_1>
-0.35383272

>  <GCUT_SLOGP_2>
0.081749551

>  <GCUT_SLOGP_3>
3.1549454

>  <GCUT_SMR_0>
-0.52068937

>  <GCUT_SMR_1>
-0.19814761

>  <GCUT_SMR_2>
0.14574383

>  <GCUT_SMR_3>
3.3779576

>  <Kier1>
18.992716

>  <Kier2>
6.7680135

>  <Kier3>
2.734843

>  <KierA1>
15.659592

>  <KierA2>
5.5364428

>  <KierA3>
2.2241161

>  <KierFlex>
3.2110529

>  <lip_acc>
6

>  <lip_don>
0

>  <lip_druglike>
1

>  <lip_violation>
0

>  <logP(o/w)>
1.767

>  <logS>
-2.9808099

>  <mr>
9.7978868

>  <mutagenic>
0

>  <nmol>
1

>  <opr_brigid>
22

>  <opr_leadlike>
1

>  <opr_nring>
5

>  <opr_nrot>
2

>  <opr_violation>
1

>  <PC+>
0

>  <PC->
0

>  <PEOE_PC+>
2.0596659

>  <PEOE_PC->
-2.0596659

>  <PEOE_RPC+>
0.12821093

>  <PEOE_RPC->
0.16254355

>  <PEOE_VSA+0>
113.15288

>  <PEOE_VSA+1>
25.592316

>  <PEOE_VSA+2>
26.726896

>  <PEOE_VSA+3>
0

>  <PEOE_VSA+4>
0

>  <PEOE_VSA+5>
29.416998

>  <PEOE_VSA+6>
0

>  <PEOE_VSA-0>
70.505623

>  <PEOE_VSA-1>
36.764713

>  <PEOE_VSA-2>
0

>  <PEOE_VSA-3>
0

>  <PEOE_VSA-4>
0

>  <PEOE_VSA-5>
29.637598

>  <PEOE_VSA-6>
5.0075121

>  <PEOE_VSA_FHYD>
0.80979443

>  <PEOE_VSA_FNEG>
0.42135847

>  <PEOE_VSA_FPNEG>
0.10286415

>  <PEOE_VSA_FPOL>
0.1902056

>  <PEOE_VSA_FPOS>
0.57864153

>  <PEOE_VSA_FPPOS>
0.087341458

>  <PEOE_VSA_HYD>
272.74243

>  <PEOE_VSA_NEG>
141.91545

>  <PEOE_VSA_PNEG>
34.645111

>  <PEOE_VSA_POL>
64.062111

>  <PEOE_VSA_POS>
194.88908

>  <PEOE_VSA_PPOS>
29.416998

>  <petitjean>
0.40000001

>  <petitjeanSC>
0.66666669

>  <Q_PC+>
0

>  <Q_PC->
0

>  <Q_RPC+>
0

>  <Q_RPC->
0

>  <Q_VSA_FHYD>
1

>  <Q_VSA_FNEG>
0

>  <Q_VSA_FPNEG>
0

>  <Q_VSA_FPOL>
0

>  <Q_VSA_FPOS>
1

>  <Q_VSA_FPPOS>
0

>  <Q_VSA_HYD>
336.80453

>  <Q_VSA_NEG>
0

>  <Q_VSA_PNEG>
0

>  <Q_VSA_POL>
0

>  <Q_VSA_POS>
336.80453

>  <Q_VSA_PPOS>
0

>  <radius>
6

>  <reactive>
0

>  <rings>
5

>  <RPC+>
0

>  <RPC->
0

>  <rsynth>
0.2962963

>  <SlogP>
1.98857

>  <SlogP_VSA0>
21.999775

>  <SlogP_VSA1>
18.615242

>  <SlogP_VSA2>
75.643585

>  <SlogP_VSA3>
18.439579

>  <SlogP_VSA4>
10.781946

>  <SlogP_VSA5>
51.765594

>  <SlogP_VSA6>
0

>  <SlogP_VSA7>
70.572739

>  <SlogP_VSA8>
18.868406

>  <SlogP_VSA9>
77.138885

>  <SMR>
9.6767998

>  <SMR_VSA0>
58.724319

>  <SMR_VSA1>
25.12409

>  <SMR_VSA2>
4.4107962

>  <SMR_VSA3>
33.777275

>  <SMR_VSA4>
0

>  <SMR_VSA5>
108.30955

>  <SMR_VSA6>
33.930508

>  <SMR_VSA7>
99.549217

>  <TPSA>
65.07

>  <VAdjEq>
0.41972107

>  <VAdjMa>
5.9541965

>  <VDistEq>
3.1081665

>  <VDistMa>
9.2624331

>  <vdw_area>
336.80453

>  <vdw_vol>
486.06628

>  <vsa_acc>
29.637598

>  <vsa_acid>
0

>  <vsa_base>
0

>  <vsa_don>
0

>  <vsa_hyd>
255.02608

>  <vsa_other>
34.424511

>  <vsa_pol>
29.637598

>  <Weight>
369.41699

>  <weinerPath>
1548

>  <weinerPol>
57

>  <zagreb>
160

$$$$