S(OC1C(OS(O)(=O)=O)C(OC(OC2(OC(OS(O)(=O)=O)C(OS(O)(=O)=O)C2OS(O)(=O)=O)COS(O)(=O)=O)C1OS(O)(=O)=O)COS(O)(=O)=O)(O)(=O)=O
  MOE2013           2D

 54 55  0  0  1  0  0  0  0  0999 V2000
   -0.2500   -0.4330    0.0000 S   0  0  0  0  0  0  0  0  0  0  0  0
    0.4990    0.8660    0.0000 O   0  0  0  0  0  0  0  0  0  0  0  0
   -0.2510    2.1650    0.0000 C   0  0  3  0  0  0  0  0  0  0  0  0
   -1.7510    2.1640    0.0000 C   0  0  3  0  0  0  0  0  0  0  0  0
   -2.5010    0.8640    0.0000 O   0  0  0  0  0  0  0  0  0  0  0  0
   -4.0010    0.8640    0.0000 S   0  0  0  0  0  0  0  0  0  0  0  0
   -5.5010    0.8630    0.0000 O   0  0  0  0  0  0  0  0  0  0  0  0
   -4.0010    2.3640    0.0000 O   0  0  0  0  0  0  0  0  0  0  0  0
   -4.0000   -0.6360    0.0000 O   0  0  0  0  0  0  0  0  0  0  0  0
   -2.5020    3.4630    0.0000 C   0  0  3  0  0  0  0  0  0  0  0  0
   -1.7530    4.7620    0.0000 O   0  0  0  0  0  0  0  0  0  0  0  0
   -0.2530    4.7630    0.0000 C   0  0  3  0  0  0  0  0  0  0  0  0
    0.7460    6.4960    0.0000 O   0  0  0  0  0  0  0  0  0  0  0  0
    2.2460    6.4970    0.0000 C   0  0  3  0  0  0  0  0  0  0  0  0
    2.4300    5.0080    0.0000 O   0  0  0  0  0  0  0  0  0  0  0  0
    3.9020    4.7230    0.0000 C   0  0  3  0  0  0  0  0  0  0  0  0
    4.0340    3.2280    0.0000 O   0  0  0  0  0  0  0  0  0  0  0  0
    5.3940    2.5950    0.0000 S   0  0  0  0  0  0  0  0  0  0  0  0
    6.7540    1.9620    0.0000 O   0  0  0  0  0  0  0  0  0  0  0  0
    6.0270    3.9550    0.0000 O   0  0  0  0  0  0  0  0  0  0  0  0
    4.7610    1.2350    0.0000 O   0  0  0  0  0  0  0  0  0  0  0  0
    4.6290    6.0350    0.0000 C   0  0  3  0  0  0  0  0  0  0  0  0
    6.1270    5.9570    0.0000 O   0  0  0  0  0  0  0  0  0  0  0  0
    7.2410    6.9620    0.0000 S   0  0  0  0  0  0  0  0  0  0  0  0
    8.3550    7.9660    0.0000 O   0  0  0  0  0  0  0  0  0  0  0  0
    6.5590    8.2980    0.0000 O   0  0  0  0  0  0  0  0  0  0  0  0
    8.2450    5.8480    0.0000 O   0  0  0  0  0  0  0  0  0  0  0  0
    3.6050    7.1310    0.0000 C   0  0  3  0  0  0  0  0  0  0  0  0
    3.8900    8.6040    0.0000 O   0  0  0  0  0  0  0  0  0  0  0  0
    5.3080    9.0930    0.0000 S   0  0  0  0  0  0  0  0  0  0  0  0
    6.7260    9.5820    0.0000 O   0  0  0  0  0  0  0  0  0  0  0  0
    4.8190   10.5110    0.0000 O   0  0  0  0  0  0  0  0  0  0  0  0
    5.7980    7.6750    0.0000 O   0  0  0  0  0  0  0  0  0  0  0  0
    1.5410    7.8210    0.0000 C   0  0  0  0  0  0  0  0  0  0  0  0
    0.0420    7.8720    0.0000 O   0  0  0  0  0  0  0  0  0  0  0  0
   -0.6630    9.1960    0.0000 S   0  0  0  0  0  0  0  0  0  0  0  0
   -1.3680   10.5200    0.0000 O   0  0  0  0  0  0  0  0  0  0  0  0
   -1.9870    8.4910    0.0000 O   0  0  0  0  0  0  0  0  0  0  0  0
    0.6610    9.9010    0.0000 O   0  0  0  0  0  0  0  0  0  0  0  0
    0.4980    3.4640    0.0000 C   0  0  3  0  0  0  0  0  0  0  0  0
    1.9980    3.4650    0.0000 O   0  0  0  0  0  0  0  0  0  0  0  0
    2.7490    2.1670    0.0000 S   0  0  0  0  0  0  0  0  0  0  0  0
    3.4990    0.8680    0.0000 O   0  0  0  0  0  0  0  0  0  0  0  0
    4.0470    2.9180    0.0000 O   0  0  0  0  0  0  0  0  0  0  0  0
    1.4500    1.4160    0.0000 O   0  0  0  0  0  0  0  0  0  0  0  0
   -4.0020    3.4620    0.0000 C   0  0  0  0  0  0  0  0  0  0  0  0
   -4.7530    4.7600    0.0000 O   0  0  0  0  0  0  0  0  0  0  0  0
   -6.2530    4.7590    0.0000 S   0  0  0  0  0  0  0  0  0  0  0  0
   -7.7530    4.7580    0.0000 O   0  0  0  0  0  0  0  0  0  0  0  0
   -6.2540    6.2590    0.0000 O   0  0  0  0  0  0  0  0  0  0  0  0
   -6.2520    3.2590    0.0000 O   0  0  0  0  0  0  0  0  0  0  0  0
   -0.9990   -1.7330    0.0000 O   0  0  0  0  0  0  0  0  0  0  0  0
    1.0500   -1.1820    0.0000 O   0  0  0  0  0  0  0  0  0  0  0  0
   -1.5490    0.3160    0.0000 O   0  0  0  0  0  0  0  0  0  0  0  0
  1  2  1  0  0  0  0
  1 52  1  0  0  0  0
  1 53  2  0  0  0  0
  1 54  2  0  0  0  0
  2  3  1  0  0  0  0
  3  4  1  0  0  0  0
  3 40  1  0  0  0  0
  4  5  1  0  0  0  0
  4 10  1  0  0  0  0
  5  6  1  0  0  0  0
  6  7  1  0  0  0  0
  6  8  2  0  0  0  0
  6  9  2  0  0  0  0
 10 11  1  0  0  0  0
 10 46  1  0  0  0  0
 11 12  1  0  0  0  0
 12 13  1  0  0  0  0
 12 40  1  0  0  0  0
 13 14  1  0  0  0  0
 14 15  1  0  0  0  0
 14 28  1  0  0  0  0
 14 34  1  0  0  0  0
 15 16  1  0  0  0  0
 16 17  1  0  0  0  0
 16 22  1  0  0  0  0
 17 18  1  0  0  0  0
 18 19  1  0  0  0  0
 18 20  2  0  0  0  0
 18 21  2  0  0  0  0
 22 23  1  0  0  0  0
 22 28  1  0  0  0  0
 23 24  1  0  0  0  0
 24 25  1  0  0  0  0
 24 26  2  0  0  0  0
 24 27  2  0  0  0  0
 28 29  1  0  0  0  0
 29 30  1  0  0  0  0
 30 31  1  0  0  0  0
 30 32  2  0  0  0  0
 30 33  2  0  0  0  0
 34 35  1  0  0  0  0
 35 36  1  0  0  0  0
 36 37  1  0  0  0  0
 36 38  2  0  0  0  0
 36 39  2  0  0  0  0
 40 41  1  0  0  0  0
 41 42  1  0  0  0  0
 42 43  1  0  0  0  0
 42 44  2  0  0  0  0
 42 45  2  0  0  0  0
 46 47  1  0  0  0  0
 47 48  1  0  0  0  0
 48 49  1  0  0  0  0
 48 50  2  0  0  0  0
 48 51  2  0  0  0  0
M  END
>  <Index>
1005

>  <ID>
HT1926

>  <class>
0

>  <apol>
83.965858

>  <ast_fraglike>
0

>  <ast_fraglike_ext>
0

>  <ast_violation>
3

>  <ast_violation_ext>
5

>  <a_acc>
35

>  <a_acid>
0

>  <a_aro>
0

>  <a_base>
0

>  <a_count>
74

>  <a_don>
24

>  <a_donacc>
59

>  <a_heavy>
54

>  <a_hyd>
8

>  <a_IC>
131.48233

>  <a_ICM>
1.7767882

>  <a_nB>
0

>  <a_nBr>
0

>  <a_nC>
11

>  <a_nCl>
0

>  <a_nF>
0

>  <a_nH>
20

>  <a_nI>
0

>  <a_nN>
0

>  <a_nO>
35

>  <a_nP>
0

>  <a_nS>
8

>  <balabanJ>
2.9861932

>  <BCUT_PEOE_0>
-2.7745867

>  <BCUT_PEOE_1>
-0.6811313

>  <BCUT_PEOE_2>
0.71848631

>  <BCUT_PEOE_3>
2.8199496

>  <BCUT_SLOGP_0>
-2.9156122

>  <BCUT_SLOGP_1>
-0.76567227

>  <BCUT_SLOGP_2>
0.69985211

>  <BCUT_SLOGP_3>
2.657217

>  <BCUT_SMR_0>
-2.5312989

>  <BCUT_SMR_1>
-0.52692807

>  <BCUT_SMR_2>
0.86344588

>  <BCUT_SMR_3>
3.0448918

>  <bpol>
94.748138

>  <b_1rotN>
20

>  <b_1rotR>
0.36363637

>  <b_ar>
0

>  <b_count>
75

>  <b_double>
0

>  <b_heavy>
55

>  <b_max1len>
8

>  <b_rotN>
20

>  <b_rotR>
0.36363637

>  <b_single>
75

>  <b_triple>
0

>  <chi0>
42.311192

>  <chi0v>
30.931387

>  <chi0v_C>
6.5330157

>  <chi0_C>
6.5330157

>  <chi1>
23.668493

>  <chi1v>
22.774878

>  <chi1v_C>
3.0504768

>  <chi1_C>
3.0504768

>  <chiral>
9

>  <chiral_u>
9

>  <density>
1.3046968

>  <diameter>
13

>  <FCharge>
0

>  <GCUT_PEOE_0>
-0.86459571

>  <GCUT_PEOE_1>
-0.41617176

>  <GCUT_PEOE_2>
0.088223167

>  <GCUT_PEOE_3>
3.0792363

>  <GCUT_SLOGP_0>
-0.94391769

>  <GCUT_SLOGP_1>
-0.56627572

>  <GCUT_SLOGP_2>
0.11544736

>  <GCUT_SLOGP_3>
2.9668193

>  <GCUT_SMR_0>
-0.52641773

>  <GCUT_SMR_1>
-0.20288752

>  <GCUT_SMR_2>
0.20810945

>  <GCUT_SMR_3>
3.3140819

>  <Kier1>
50.144131

>  <Kier2>
17.306122

>  <Kier3>
18.21958

>  <KierA1>
62.294876

>  <KierA2>
21.585798

>  <KierA3>
22.787685

>  <KierFlex>
24.901567

>  <lip_acc>
35

>  <lip_don>
8

>  <lip_druglike>
0

>  <lip_violation>
3

>  <logP(o/w)>
-8.4668198

>  <logS>
-2.33444

>  <mr>
14.329735

>  <mutagenic>
0

>  <nmol>
1

>  <opr_brigid>
11

>  <opr_leadlike>
0

>  <opr_nring>
2

>  <opr_nrot>
23

>  <opr_violation>
5

>  <PC+>
0

>  <PC->
0

>  <PEOE_PC+>
5.2192044

>  <PEOE_PC->
-5.2192044

>  <PEOE_RPC+>
0.085430101

>  <PEOE_RPC->
0.084200174

>  <PEOE_VSA+0>
47.558788

>  <PEOE_VSA+1>
102.33305

>  <PEOE_VSA+2>
77.174141

>  <PEOE_VSA+3>
11.154908

>  <PEOE_VSA+4>
10.324173

>  <PEOE_VSA+5>
115.58937

>  <PEOE_VSA+6>
16.512768

>  <PEOE_VSA-0>
0

>  <PEOE_VSA-1>
229.06076

>  <PEOE_VSA-2>
10.208881

>  <PEOE_VSA-3>
34.615677

>  <PEOE_VSA-4>
71.462166

>  <PEOE_VSA-5>
0

>  <PEOE_VSA-6>
7.5112681

>  <PEOE_VSA_FHYD>
0.69816232

>  <PEOE_VSA_FNEG>
0.48105779

>  <PEOE_VSA_FPNEG>
0.1076657

>  <PEOE_VSA_FPOL>
0.30183768

>  <PEOE_VSA_FPOS>
0.51894218

>  <PEOE_VSA_FPPOS>
0.19417199

>  <PEOE_VSA_HYD>
512.1062

>  <PEOE_VSA_NEG>
352.85876

>  <PEOE_VSA_PNEG>
78.973434

>  <PEOE_VSA_POL>
221.39975

>  <PEOE_VSA_POS>
380.64719

>  <PEOE_VSA_PPOS>
142.42632

>  <petitjean>
0.46153846

>  <petitjeanSC>
0.85714287

>  <Q_PC+>
0

>  <Q_PC->
0

>  <Q_RPC+>
0

>  <Q_RPC->
0

>  <Q_VSA_FHYD>
1

>  <Q_VSA_FNEG>
0

>  <Q_VSA_FPNEG>
0

>  <Q_VSA_FPOL>
0

>  <Q_VSA_FPOS>
1

>  <Q_VSA_FPPOS>
0

>  <Q_VSA_HYD>
733.50592

>  <Q_VSA_NEG>
0

>  <Q_VSA_PNEG>
0

>  <Q_VSA_POL>
0

>  <Q_VSA_POS>
733.50592

>  <Q_VSA_PPOS>
0

>  <radius>
7

>  <reactive>
1

>  <rings>
2

>  <RPC+>
0

>  <RPC->
0

>  <rsynth>
1

>  <SlogP>
-11.3469

>  <SlogP_VSA0>
183.44601

>  <SlogP_VSA1>
385.3735

>  <SlogP_VSA2>
239.52411

>  <SlogP_VSA3>
41.852516

>  <SlogP_VSA4>
0

>  <SlogP_VSA5>
0

>  <SlogP_VSA6>
0

>  <SlogP_VSA7>
0

>  <SlogP_VSA8>
0

>  <SlogP_VSA9>
0

>  <SMR>
14.38128

>  <SMR_VSA0>
486.73648

>  <SMR_VSA1>
183.44601

>  <SMR_VSA2>
0

>  <SMR_VSA3>
55.864899

>  <SMR_VSA4>
0

>  <SMR_VSA5>
0

>  <SMR_VSA6>
41.852516

>  <SMR_VSA7>
82.296242

>  <TPSA>
536.48999

>  <VAdjEq>
0.23175257

>  <VAdjMa>
6.7813597

>  <VDistEq>
3.5974288

>  <VDistMa>
11.323172

>  <vdw_area>
733.50592

>  <vdw_vol>
742.52808

>  <vsa_acc>
47.072044

>  <vsa_acid>
0

>  <vsa_base>
0

>  <vsa_don>
0

>  <vsa_hyd>
94.868065

>  <vsa_other>
162.62769

>  <vsa_pol>
431.27032

>  <Weight>
968.77399

>  <weinerPath>
9997

>  <weinerPol>
79

>  <zagreb>
292

$$$$