O(CC(O)CNC(C)C)c1ccc(NC(=O)CCC)cc1C(=O)C
  MOE2013           2D

 24 24  0  0  1  0  0  0  0  0999 V2000
    0.0000    0.0000    0.0000 O   0  0  0  0  0  0  0  0  0  0  0  0
   -0.7420   -1.3040    0.0000 C   0  0  0  0  0  0  0  0  0  0  0  0
   -2.2410   -1.3140    0.0000 C   0  0  3  0  0  0  0  0  0  0  0  0
   -3.0000   -0.0200    0.0000 O   0  0  0  0  0  0  0  0  0  0  0  0
   -2.9830   -2.6180    0.0000 C   0  0  0  0  0  0  0  0  0  0  0  0
   -4.4830   -2.6270    0.0000 N   0  0  0  0  0  0  0  0  0  0  0  0
   -5.2240   -3.9310    0.0000 C   0  0  0  0  0  0  0  0  0  0  0  0
   -6.7240   -3.9410    0.0000 C   0  0  0  0  0  0  0  0  0  0  0  0
   -4.4660   -5.2250    0.0000 C   0  0  0  0  0  0  0  0  0  0  0  0
    1.5000    0.0100    0.0000 C   0  0  0  0  0  0  0  0  0  0  0  0
    2.2580   -1.2840    0.0000 C   0  0  0  0  0  0  0  0  0  0  0  0
    3.7580   -1.2750    0.0000 C   0  0  0  0  0  0  0  0  0  0  0  0
    4.5000    0.0290    0.0000 C   0  0  0  0  0  0  0  0  0  0  0  0
    6.0000    0.0390    0.0000 N   0  0  0  0  0  0  0  0  0  0  0  0
    6.7580   -1.2550    0.0000 C   0  0  0  0  0  0  0  0  0  0  0  0
    6.0170   -2.5590    0.0000 O   0  0  0  0  0  0  0  0  0  0  0  0
    8.2580   -1.2450    0.0000 C   0  0  0  0  0  0  0  0  0  0  0  0
    9.0170   -2.5390    0.0000 C   0  0  0  0  0  0  0  0  0  0  0  0
   10.5170   -2.5290    0.0000 C   0  0  0  0  0  0  0  0  0  0  0  0
    3.7410    1.3230    0.0000 C   0  0  0  0  0  0  0  0  0  0  0  0
    2.2410    1.3140    0.0000 C   0  0  0  0  0  0  0  0  0  0  0  0
    1.4830    2.6080    0.0000 C   0  0  0  0  0  0  0  0  0  0  0  0
    2.2250    3.9120    0.0000 O   0  0  0  0  0  0  0  0  0  0  0  0
   -0.0170    2.5980    0.0000 C   0  0  0  0  0  0  0  0  0  0  0  0
  1  2  1  0  0  0  0
  1 10  1  0  0  0  0
  2  3  1  0  0  0  0
  3  4  1  0  0  0  0
  3  5  1  0  0  0  0
  5  6  1  0  0  0  0
  6  7  1  0  0  0  0
  7  8  1  0  0  0  0
  7  9  1  0  0  0  0
 10 11  1  0  0  0  0
 10 21  2  0  0  0  0
 11 12  2  0  0  0  0
 12 13  1  0  0  0  0
 13 14  1  0  0  0  0
 13 20  2  0  0  0  0
 14 15  1  0  0  0  0
 15 16  2  0  0  0  0
 15 17  1  0  0  0  0
 17 18  1  0  0  0  0
 18 19  1  0  0  0  0
 20 21  1  0  0  0  0
 21 22  1  0  0  0  0
 22 23  2  0  0  0  0
 22 24  1  0  0  0  0
M  END
>  <Index>
16

>  <ID>
HT0047

>  <class>
0

>  <apol>
55.758205

>  <ast_fraglike>
0

>  <ast_fraglike_ext>
0

>  <ast_violation>
2

>  <ast_violation_ext>
3

>  <a_acc>
5

>  <a_acid>
0

>  <a_aro>
6

>  <a_base>
0

>  <a_count>
52

>  <a_don>
3

>  <a_donacc>
8

>  <a_heavy>
24

>  <a_hyd>
16

>  <a_IC>
76.758278

>  <a_ICM>
1.4761207

>  <a_nB>
0

>  <a_nBr>
0

>  <a_nC>
18

>  <a_nCl>
0

>  <a_nF>
0

>  <a_nH>
28

>  <a_nI>
0

>  <a_nN>
2

>  <a_nO>
4

>  <a_nP>
0

>  <a_nS>
0

>  <balabanJ>
2.4301541

>  <BCUT_PEOE_0>
-2.6557071

>  <BCUT_PEOE_1>
-0.51830316

>  <BCUT_PEOE_2>
0.5122866

>  <BCUT_PEOE_3>
2.5988503

>  <BCUT_SLOGP_0>
-2.8163993

>  <BCUT_SLOGP_1>
-0.49844545

>  <BCUT_SLOGP_2>
0.47623497

>  <BCUT_SLOGP_3>
2.599313

>  <BCUT_SMR_0>
-2.3944333

>  <BCUT_SMR_1>
-0.34369755

>  <BCUT_SMR_2>
0.62863028

>  <BCUT_SMR_3>
2.8455191

>  <bpol>
35.761795

>  <b_1rotN>
10

>  <b_1rotR>
0.41666666

>  <b_ar>
6

>  <b_count>
52

>  <b_double>
2

>  <b_heavy>
24

>  <b_max1len>
7

>  <b_rotN>
11

>  <b_rotR>
0.45833334

>  <b_single>
44

>  <b_triple>
0

>  <chi0>
18.11252

>  <chi0v>
14.887137

>  <chi0v_C>
12.215178

>  <chi0_C>
12.991199

>  <chi1>
11.328607

>  <chi1v>
8.3213663

>  <chi1v_C>
6.0198913

>  <chi1_C>
6.9635625

>  <chiral>
1

>  <chiral_u>
1

>  <density>
0.70658863

>  <diameter>
15

>  <FCharge>
0

>  <GCUT_PEOE_0>
-0.84580445

>  <GCUT_PEOE_1>
-0.36889893

>  <GCUT_PEOE_2>
0.06238623

>  <GCUT_PEOE_3>
2.5793147

>  <GCUT_SLOGP_0>
-1.1534563

>  <GCUT_SLOGP_1>
-0.34245369

>  <GCUT_SLOGP_2>
0.042919848

>  <GCUT_SLOGP_3>
2.623009

>  <GCUT_SMR_0>
-0.52279031

>  <GCUT_SMR_1>
-0.20522237

>  <GCUT_SMR_2>
0.14830863

>  <GCUT_SMR_3>
2.8339682

>  <Kier1>
22.041666

>  <Kier2>
11.583767

>  <Kier3>
8.792388

>  <KierA1>
17.932814

>  <KierA2>
9.3344889

>  <KierA3>
7.0363655

>  <KierFlex>
6.9747357

>  <lip_acc>
6

>  <lip_don>
3

>  <lip_druglike>
1

>  <lip_violation>
0

>  <logP(o/w)>
1.7970001

>  <logS>
-2.8927901

>  <mr>
9.4400902

>  <mutagenic>
0

>  <nmol>
1

>  <opr_brigid>
6

>  <opr_leadlike>
1

>  <opr_nring>
1

>  <opr_nrot>
10

>  <opr_violation>
0

>  <PC+>
0

>  <PC->
0

>  <PEOE_PC+>
2.2358656

>  <PEOE_PC->
-2.2358656

>  <PEOE_RPC+>
0.10073199

>  <PEOE_RPC->
0.17364086

>  <PEOE_VSA+0>
114.99002

>  <PEOE_VSA+1>
53.907059

>  <PEOE_VSA+2>
8.6190128

>  <PEOE_VSA+3>
17.077532

>  <PEOE_VSA+4>
23.273705

>  <PEOE_VSA+5>
0

>  <PEOE_VSA+6>
0

>  <PEOE_VSA-0>
101.70906

>  <PEOE_VSA-1>
18.747677

>  <PEOE_VSA-2>
0

>  <PEOE_VSA-3>
0

>  <PEOE_VSA-4>
0

>  <PEOE_VSA-5>
27.133842

>  <PEOE_VSA-6>
10.545078

>  <PEOE_VSA_FHYD>
0.83789325

>  <PEOE_VSA_FNEG>
0.42057022

>  <PEOE_VSA_FPNEG>
0.10020909

>  <PEOE_VSA_FPOL>
0.16210675

>  <PEOE_VSA_FPOS>
0.57942981

>  <PEOE_VSA_FPPOS>
0.061897658

>  <PEOE_VSA_HYD>
315.05035

>  <PEOE_VSA_NEG>
158.13565

>  <PEOE_VSA_PNEG>
37.678921

>  <PEOE_VSA_POL>
60.952625

>  <PEOE_VSA_POS>
217.86732

>  <PEOE_VSA_PPOS>
23.273705

>  <petitjean>
0.46666667

>  <petitjeanSC>
0.875

>  <Q_PC+>
0

>  <Q_PC->
0

>  <Q_RPC+>
0

>  <Q_RPC->
0

>  <Q_VSA_FHYD>
1

>  <Q_VSA_FNEG>
0

>  <Q_VSA_FPNEG>
0

>  <Q_VSA_FPOL>
0

>  <Q_VSA_FPOS>
1

>  <Q_VSA_FPPOS>
0

>  <Q_VSA_HYD>
376.00299

>  <Q_VSA_NEG>
0

>  <Q_VSA_PNEG>
0

>  <Q_VSA_POL>
0

>  <Q_VSA_POS>
376.00299

>  <Q_VSA_PPOS>
0

>  <radius>
8

>  <reactive>
1

>  <rings>
1

>  <RPC+>
0

>  <RPC->
0

>  <rsynth>
1

>  <SlogP>
2.3655

>  <SlogP_VSA0>
54.395866

>  <SlogP_VSA1>
28.957146

>  <SlogP_VSA2>
34.312836

>  <SlogP_VSA3>
39.365837

>  <SlogP_VSA4>
27.047791

>  <SlogP_VSA5>
0

>  <SlogP_VSA6>
0

>  <SlogP_VSA7>
52.929554

>  <SlogP_VSA8>
37.736813

>  <SlogP_VSA9>
141.30423

>  <SMR>
9.4624701

>  <SMR_VSA0>
47.724434

>  <SMR_VSA1>
36.385113

>  <SMR_VSA2>
18.01075

>  <SMR_VSA3>
18.879622

>  <SMR_VSA4>
20.767498

>  <SMR_VSA5>
90.666367

>  <SMR_VSA6>
50.312233

>  <SMR_VSA7>
133.30406

>  <TPSA>
87.660004

>  <VAdjEq>
0.41381684

>  <VAdjMa>
5.5849624

>  <VDistEq>
3.6266034

>  <VDistMa>
8.853137

>  <vdw_area>
376.00299

>  <vdw_vol>
476.13556

>  <vsa_acc>
29.637598

>  <vsa_acid>
0

>  <vsa_base>
0

>  <vsa_don>
5.6825762

>  <vsa_hyd>
271.55893

>  <vsa_other>
21.408051

>  <vsa_pol>
54.569672

>  <Weight>
336.43201

>  <weinerPath>
1568

>  <weinerPol>
31

>  <zagreb>
110

$$$$