ClC(Cl)(Cl)C(O)(C)C
  MOE2013           2D

  8  7  0  0  0  0  0  0  0  0999 V2000
    0.0000    0.0000    0.0000 Cl  0  0  0  0  0  0  0  0  0  0  0  0
    1.5000    0.0000    0.0000 C   0  0  0  0  0  0  0  0  0  0  0  0
    1.5000   -1.5000    0.0000 Cl  0  0  0  0  0  0  0  0  0  0  0  0
    1.5000    1.5000    0.0000 Cl  0  0  0  0  0  0  0  0  0  0  0  0
    3.0000    0.0000    0.0000 C   0  0  0  0  0  0  0  0  0  0  0  0
    3.0000    1.5000    0.0000 O   0  0  0  0  0  0  0  0  0  0  0  0
    4.5000    0.0000    0.0000 C   0  0  0  0  0  0  0  0  0  0  0  0
    3.0000   -1.5000    0.0000 C   0  0  0  0  0  0  0  0  0  0  0  0
  1  2  1  0  0  0  0
  2  3  1  0  0  0  0
  2  4  1  0  0  0  0
  2  5  1  0  0  0  0
  5  6  1  0  0  0  0
  5  7  1  0  0  0  0
  5  8  1  0  0  0  0
M  END
>  <Index>
1242

>  <ID>
HT2759

>  <class>
0

>  <apol>
19.049551

>  <ast_fraglike>
1

>  <ast_fraglike_ext>
1

>  <ast_violation>
0

>  <ast_violation_ext>
0

>  <a_acc>
1

>  <a_acid>
0

>  <a_aro>
0

>  <a_base>
0

>  <a_count>
15

>  <a_don>
1

>  <a_donacc>
2

>  <a_heavy>
8

>  <a_hyd>
6

>  <a_IC>
26.196987

>  <a_ICM>
1.7464658

>  <a_nB>
0

>  <a_nBr>
0

>  <a_nC>
4

>  <a_nCl>
3

>  <a_nF>
0

>  <a_nH>
7

>  <a_nI>
0

>  <a_nN>
0

>  <a_nO>
1

>  <a_nP>
0

>  <a_nS>
0

>  <balabanJ>
4.0203915

>  <BCUT_PEOE_0>
-2.5555854

>  <BCUT_PEOE_1>
-0.080281697

>  <BCUT_PEOE_2>
0.05082418

>  <BCUT_PEOE_3>
2.6153896

>  <BCUT_SLOGP_0>
-2.6097186

>  <BCUT_SLOGP_1>
0.062150054

>  <BCUT_SLOGP_2>
0.68949997

>  <BCUT_SLOGP_3>
2.6011846

>  <BCUT_SMR_0>
-2.3338356

>  <BCUT_SMR_1>
0.1057

>  <BCUT_SMR_2>
0.58530003

>  <BCUT_SMR_3>
2.8402357

>  <bpol>
8.9124489

>  <b_1rotN>
0

>  <b_1rotR>
0

>  <b_ar>
0

>  <b_count>
14

>  <b_double>
0

>  <b_heavy>
7

>  <b_max1len>
4

>  <b_rotN>
1

>  <b_rotR>
0.14285715

>  <b_single>
14

>  <b_triple>
0

>  <chi0>
7

>  <chi0v>
6.8488936

>  <chi0v_C>
3

>  <chi0_C>
3

>  <chi1>
3.25

>  <chi1v>
3.1744468

>  <chi1v_C>
1.25

>  <chi1_C>
1.25

>  <chiral>
0

>  <chiral_u>
0

>  <density>
1.0562799

>  <diameter>
3

>  <FCharge>
0

>  <GCUT_PEOE_0>
-0.78245008

>  <GCUT_PEOE_1>
-0.2402817

>  <GCUT_PEOE_2>
-0.13415472

>  <GCUT_PEOE_3>
2.0561347

>  <GCUT_SLOGP_0>
-0.89697343

>  <GCUT_SLOGP_1>
-0.11894462

>  <GCUT_SLOGP_2>
0.29892614

>  <GCUT_SLOGP_3>
2.1349475

>  <GCUT_SMR_0>
-0.52270448

>  <GCUT_SMR_1>
-0.054299999

>  <GCUT_SMR_2>
0.4253

>  <GCUT_SMR_3>
2.2974122

>  <Kier1>
8

>  <Kier2>
1.75

>  <Kier3>
2.2222223

>  <KierA1>
13.385702

>  <KierA2>
3.1542673

>  <KierA3>
4.2672844

>  <KierFlex>
5.27776

>  <lip_acc>
1

>  <lip_don>
1

>  <lip_druglike>
1

>  <lip_violation>
0

>  <logP(o/w)>
1.97308

>  <logS>
-2.4501801

>  <mr>
3.5540316

>  <mutagenic>
1

>  <nmol>
1

>  <opr_brigid>
0

>  <opr_leadlike>
1

>  <opr_nring>
0

>  <opr_nrot>
0

>  <opr_violation>
0

>  <PC+>
0

>  <PC->
0

>  <PEOE_PC+>
0.6904273

>  <PEOE_PC->
-0.6904273

>  <PEOE_RPC+>
0.31604293

>  <PEOE_RPC->
0.55752325

>  <PEOE_VSA+0>
25.592316

>  <PEOE_VSA+1>
0

>  <PEOE_VSA+2>
0

>  <PEOE_VSA+3>
0

>  <PEOE_VSA+4>
10.324173

>  <PEOE_VSA+5>
0

>  <PEOE_VSA+6>
0

>  <PEOE_VSA-0>
37.495354

>  <PEOE_VSA-1>
88.745842

>  <PEOE_VSA-2>
0

>  <PEOE_VSA-3>
0

>  <PEOE_VSA-4>
0

>  <PEOE_VSA-5>
0

>  <PEOE_VSA-6>
7.7675405

>  <PEOE_VSA_FHYD>
0.89353132

>  <PEOE_VSA_FNEG>
0.78863358

>  <PEOE_VSA_FPNEG>
0.045711521

>  <PEOE_VSA_FPOL>
0.10646867

>  <PEOE_VSA_FPOS>
0.21136643

>  <PEOE_VSA_FPPOS>
0.060757153

>  <PEOE_VSA_HYD>
151.83351

>  <PEOE_VSA_NEG>
134.00874

>  <PEOE_VSA_PNEG>
7.7675405

>  <PEOE_VSA_POL>
18.091713

>  <PEOE_VSA_POS>
35.916489

>  <PEOE_VSA_PPOS>
10.324173

>  <petitjean>
0.33333334

>  <petitjeanSC>
0.5

>  <Q_PC+>
0

>  <Q_PC->
0

>  <Q_RPC+>
0

>  <Q_RPC->
0

>  <Q_VSA_FHYD>
1

>  <Q_VSA_FNEG>
0

>  <Q_VSA_FPNEG>
0

>  <Q_VSA_FPOL>
0

>  <Q_VSA_FPOS>
1

>  <Q_VSA_FPPOS>
0

>  <Q_VSA_HYD>
169.92523

>  <Q_VSA_NEG>
0

>  <Q_VSA_PNEG>
0

>  <Q_VSA_POL>
0

>  <Q_VSA_POS>
169.92523

>  <Q_VSA_PPOS>
0

>  <radius>
2

>  <reactive>
1

>  <rings>
0

>  <RPC+>
0

>  <RPC->
0

>  <rsynth>
1

>  <SlogP>
2.1275001

>  <SlogP_VSA0>
25.385227

>  <SlogP_VSA1>
0

>  <SlogP_VSA2>
0

>  <SlogP_VSA3>
0

>  <SlogP_VSA4>
0

>  <SlogP_VSA5>
0

>  <SlogP_VSA6>
0

>  <SlogP_VSA7>
0

>  <SlogP_VSA8>
0

>  <SlogP_VSA9>
184.09796

>  <SMR>
3.6587801

>  <SMR_VSA0>
0

>  <SMR_VSA1>
25.385227

>  <SMR_VSA2>
0

>  <SMR_VSA3>
0

>  <SMR_VSA4>
0

>  <SMR_VSA5>
0

>  <SMR_VSA6>
0

>  <SMR_VSA7>
184.09796

>  <TPSA>
20.23

>  <VAdjEq>
0.75787848

>  <VAdjMa>
3.8073549

>  <VDistEq>
1.5501993

>  <VDistMa>
5.7063603

>  <vdw_area>
169.92523

>  <vdw_vol>
168.00281

>  <vsa_acc>
0

>  <vsa_acid>
0

>  <vsa_base>
0

>  <vsa_don>
0

>  <vsa_hyd>
147.56274

>  <vsa_other>
0

>  <vsa_pol>
13.566921

>  <Weight>
177.45799

>  <weinerPath>
58

>  <weinerPol>
9

>  <zagreb>
38

$$$$