OC(=O)[C@@H](N(Cc1ccc(cc1)-c1ccccc1-c1nn[nH]n1)C(=O)CCCC)C(C)C
  MOE2013           2D

 32 34  0  0  1  0  0  0  0  0999 V2000
    0.0000    0.0000    0.0000 O   0  0  0  0  0  0  0  0  0  0  0  0
   -0.7440    1.3020    0.0000 C   0  0  0  0  0  0  0  0  0  0  0  0
   -2.2440    1.3090    0.0000 O   0  0  0  0  0  0  0  0  0  0  0  0
    0.0110    2.5980    0.0000 C   0  0  1  0  0  0  0  0  0  0  0  0
    1.5110    2.5920    0.0000 N   0  0  0  0  0  0  0  0  0  0  0  0
    2.2560    1.2890    0.0000 C   0  0  0  0  0  0  0  0  0  0  0  0
    3.7560    1.2830    0.0000 C   0  0  0  0  0  0  0  0  0  0  0  0
    4.5000   -0.0190    0.0000 C   0  0  0  0  0  0  0  0  0  0  0  0
    6.0000   -0.0260    0.0000 C   0  0  0  0  0  0  0  0  0  0  0  0
    6.7550    1.2700    0.0000 C   0  0  0  0  0  0  0  0  0  0  0  0
    6.0110    2.5720    0.0000 C   0  0  0  0  0  0  0  0  0  0  0  0
    4.5110    2.5790    0.0000 C   0  0  0  0  0  0  0  0  0  0  0  0
    8.2550    1.2640    0.0000 C   0  0  0  0  0  0  0  0  0  0  0  0
    9.0110    2.5600    0.0000 C   0  0  0  0  0  0  0  0  0  0  0  0
   10.5110    2.5530    0.0000 C   0  0  0  0  0  0  0  0  0  0  0  0
   11.2550    1.2510    0.0000 C   0  0  0  0  0  0  0  0  0  0  0  0
   10.5000   -0.0450    0.0000 C   0  0  0  0  0  0  0  0  0  0  0  0
    9.0000   -0.0380    0.0000 C   0  0  0  0  0  0  0  0  0  0  0  0
    8.2440   -1.3340    0.0000 C   0  0  0  0  0  0  0  0  0  0  0  0
    6.7520   -1.4850    0.0000 N   0  0  0  0  0  0  0  0  0  0  0  0
    6.4340   -2.9510    0.0000 N   0  0  0  0  0  0  0  0  0  0  0  0
    7.7300   -3.7060    0.0000 N   0  0  0  0  0  0  0  0  0  0  0  0
    8.8490   -2.7070    0.0000 N   0  0  0  0  0  0  0  0  0  0  0  0
    2.2670    3.8870    0.0000 C   0  0  0  0  0  0  0  0  0  0  0  0
    3.7670    3.8810    0.0000 O   0  0  0  0  0  0  0  0  0  0  0  0
    1.5220    5.1900    0.0000 C   0  0  0  0  0  0  0  0  0  0  0  0
    2.2780    6.4860    0.0000 C   0  0  0  0  0  0  0  0  0  0  0  0
    1.5330    7.7880    0.0000 C   0  0  0  0  0  0  0  0  0  0  0  0
    2.2890    9.0840    0.0000 C   0  0  0  0  0  0  0  0  0  0  0  0
   -0.7330    3.9000    0.0000 C   0  0  0  0  0  0  0  0  0  0  0  0
    0.0220    5.1960    0.0000 C   0  0  0  0  0  0  0  0  0  0  0  0
   -2.2330    3.9070    0.0000 C   0  0  0  0  0  0  0  0  0  0  0  0
  1  2  1  0  0  0  0
  2  3  2  0  0  0  0
  4  2  1  6  0  0  0
  4  5  1  0  0  0  0
  4 30  1  0  0  0  0
  5  6  1  0  0  0  0
  5 24  1  0  0  0  0
  6  7  1  0  0  0  0
  7  8  1  0  0  0  0
  7 12  2  0  0  0  0
  8  9  2  0  0  0  0
  9 10  1  0  0  0  0
 10 11  2  0  0  0  0
 10 13  1  0  0  0  0
 11 12  1  0  0  0  0
 13 14  1  0  0  0  0
 13 18  2  0  0  0  0
 14 15  2  0  0  0  0
 15 16  1  0  0  0  0
 16 17  2  0  0  0  0
 17 18  1  0  0  0  0
 18 19  1  0  0  0  0
 19 20  1  0  0  0  0
 19 23  2  0  0  0  0
 20 21  2  0  0  0  0
 21 22  1  0  0  0  0
 22 23  1  0  0  0  0
 24 25  2  0  0  0  0
 24 26  1  0  0  0  0
 26 27  1  0  0  0  0
 27 28  1  0  0  0  0
 28 29  1  0  0  0  0
 30 31  1  0  0  0  0
 30 32  1  0  0  0  0
M  END
>  <Index>
1135

>  <ID>
HT2164

>  <class>
0

>  <apol>
69.482994

>  <ast_fraglike>
0

>  <ast_fraglike_ext>
0

>  <ast_violation>
4

>  <ast_violation_ext>
6

>  <a_acc>
7

>  <a_acid>
0

>  <a_aro>
17

>  <a_base>
0

>  <a_count>
61

>  <a_don>
4

>  <a_donacc>
11

>  <a_heavy>
32

>  <a_hyd>
21

>  <a_IC>
94.489899

>  <a_ICM>
1.5490148

>  <a_nB>
0

>  <a_nBr>
0

>  <a_nC>
24

>  <a_nCl>
0

>  <a_nF>
0

>  <a_nH>
29

>  <a_nI>
0

>  <a_nN>
5

>  <a_nO>
3

>  <a_nP>
0

>  <a_nS>
0

>  <balabanJ>
1.5884377

>  <BCUT_PEOE_0>
-2.671984

>  <BCUT_PEOE_1>
-0.54476708

>  <BCUT_PEOE_2>
0.6046297

>  <BCUT_PEOE_3>
2.667949

>  <BCUT_SLOGP_0>
-2.7245793

>  <BCUT_SLOGP_1>
-0.44936094

>  <BCUT_SLOGP_2>
0.63902807

>  <BCUT_SLOGP_3>
2.6928692

>  <BCUT_SMR_0>
-2.4221838

>  <BCUT_SMR_1>
-0.40810037

>  <BCUT_SMR_2>
0.77993679

>  <BCUT_SMR_3>
2.9129176

>  <bpol>
36.259003

>  <b_1rotN>
11

>  <b_1rotR>
0.32352942

>  <b_ar>
17

>  <b_count>
63

>  <b_double>
2

>  <b_heavy>
34

>  <b_max1len>
6

>  <b_rotN>
11

>  <b_rotR>
0.32352942

>  <b_single>
44

>  <b_triple>
0

>  <chi0>
23.087212

>  <chi0v>
18.654495

>  <chi0v_C>
15.10193

>  <chi0_C>
16.681435

>  <chi1>
15.417923

>  <chi1v>
10.863955

>  <chi1v_C>
8.3396397

>  <chi1_C>
10.29446

>  <chiral>
1

>  <chiral_u>
0

>  <density>
0.72589326

>  <diameter>
15

>  <FCharge>
0

>  <GCUT_PEOE_0>
-0.82527083

>  <GCUT_PEOE_1>
-0.38757032

>  <GCUT_PEOE_2>
0.061936185

>  <GCUT_PEOE_3>
2.8027604

>  <GCUT_SLOGP_0>
-0.96363896

>  <GCUT_SLOGP_1>
-0.3212907

>  <GCUT_SLOGP_2>
0.10670383

>  <GCUT_SLOGP_3>
2.8737574

>  <GCUT_SMR_0>
-0.53177887

>  <GCUT_SMR_1>
-0.21605732

>  <GCUT_SMR_2>
0.19305076

>  <GCUT_SMR_3>
3.0603132

>  <Kier1>
26.602076

>  <Kier2>
13.185255

>  <Kier3>
7.25

>  <KierA1>
19.377632

>  <KierA2>
9.498991

>  <KierA3>
5.1824846

>  <KierFlex>
5.7521234

>  <lip_acc>
8

>  <lip_don>
2

>  <lip_druglike>
1

>  <lip_violation>
0

>  <logP(o/w)>
5.2989998

>  <logS>
-6.4538002

>  <mr>
12.445973

>  <mutagenic>
0

>  <nmol>
1

>  <opr_brigid>
17

>  <opr_leadlike>
1

>  <opr_nring>
3

>  <opr_nrot>
10

>  <opr_violation>
0

>  <PC+>
0

>  <PC->
0

>  <PEOE_PC+>
2.4580684

>  <PEOE_PC->
-2.4580684

>  <PEOE_RPC+>
0.11499017

>  <PEOE_RPC->
0.1341334

>  <PEOE_VSA+0>
92.348351

>  <PEOE_VSA+1>
46.919247

>  <PEOE_VSA+2>
3.1459606

>  <PEOE_VSA+3>
0

>  <PEOE_VSA+4>
43.083279

>  <PEOE_VSA+5>
14.708499

>  <PEOE_VSA+6>
0

>  <PEOE_VSA-0>
28.486435

>  <PEOE_VSA-1>
162.98358

>  <PEOE_VSA-2>
18.842079

>  <PEOE_VSA-3>
7.6138182

>  <PEOE_VSA-4>
0

>  <PEOE_VSA-5>
27.133842

>  <PEOE_VSA-6>
7.7675405

>  <PEOE_VSA_FHYD>
0.79539406

>  <PEOE_VSA_FNEG>
0.55807745

>  <PEOE_VSA_FPNEG>
0.077039443

>  <PEOE_VSA_FPOL>
0.20460592

>  <PEOE_VSA_FPOS>
0.44192255

>  <PEOE_VSA_FPPOS>
0.12756649

>  <PEOE_VSA_HYD>
360.33948

>  <PEOE_VSA_NEG>
252.82729

>  <PEOE_VSA_PNEG>
34.901382

>  <PEOE_VSA_POL>
92.693161

>  <PEOE_VSA_POS>
200.20534

>  <PEOE_VSA_PPOS>
57.791779

>  <petitjean>
0.46666667

>  <petitjeanSC>
0.875

>  <Q_PC+>
0

>  <Q_PC->
0

>  <Q_RPC+>
0

>  <Q_RPC->
0

>  <Q_VSA_FHYD>
1

>  <Q_VSA_FNEG>
0

>  <Q_VSA_FPNEG>
0

>  <Q_VSA_FPOL>
0

>  <Q_VSA_FPOS>
1

>  <Q_VSA_FPPOS>
0

>  <Q_VSA_HYD>
453.03262

>  <Q_VSA_NEG>
0

>  <Q_VSA_PNEG>
0

>  <Q_VSA_POL>
0

>  <Q_VSA_POS>
453.03262

>  <Q_VSA_PPOS>
0

>  <radius>
8

>  <reactive>
0

>  <rings>
3

>  <RPC+>
0

>  <RPC->
0

>  <rsynth>
1

>  <SlogP>
4.4281001

>  <SlogP_VSA0>
0

>  <SlogP_VSA1>
65.995064

>  <SlogP_VSA2>
68.246887

>  <SlogP_VSA3>
25.385227

>  <SlogP_VSA4>
7.5963712

>  <SlogP_VSA5>
0

>  <SlogP_VSA6>
0

>  <SlogP_VSA7>
153.03012

>  <SlogP_VSA8>
56.605217

>  <SlogP_VSA9>
118.41763

>  <SMR>
12.15915

>  <SMR_VSA0>
47.724434

>  <SMR_VSA1>
52.990814

>  <SMR_VSA2>
46.33651

>  <SMR_VSA3>
7.1675434

>  <SMR_VSA4>
11.884645

>  <SMR_VSA5>
216.19026

>  <SMR_VSA6>
13.004248

>  <SMR_VSA7>
99.978043

>  <TPSA>
112.07

>  <VAdjEq>
0.35236704

>  <VAdjMa>
6.0874629

>  <VDistEq>
3.6993654

>  <VDistMa>
9.7124567

>  <vdw_area>
453.03262

>  <vdw_vol>
599.98901

>  <vsa_acc>
36.147465

>  <vsa_acid>
0

>  <vsa_base>
0

>  <vsa_don>
0

>  <vsa_hyd>
300.16055

>  <vsa_other>
38.848595

>  <vsa_pol>
85.861847

>  <Weight>
435.52798

>  <weinerPath>
3122

>  <weinerPol>
49

>  <zagreb>
160

$$$$