SC(=S)N
  MOE2013           2D

  4  3  0  0  0  0  0  0  0  0999 V2000
    0.0000    0.0000    0.0000 S   0  0  0  0  0  0  0  0  0  0  0  0
   -1.5000    0.0000    0.0000 C   0  0  0  0  0  0  0  0  0  0  0  0
   -2.2500    1.2990    0.0000 S   0  0  0  0  0  0  0  0  0  0  0  0
   -2.2500   -1.2990    0.0000 N   0  0  0  0  0  0  0  0  0  0  0  0
  1  2  1  0  0  0  0
  2  3  2  0  0  0  0
  2  4  1  0  0  0  0
M  END
>  <Index>
1196

>  <ID>
HT2388

>  <class>
0

>  <apol>
10.660379

>  <ast_fraglike>
1

>  <ast_fraglike_ext>
1

>  <ast_violation>
0

>  <ast_violation_ext>
0

>  <a_acc>
1

>  <a_acid>
0

>  <a_aro>
0

>  <a_base>
0

>  <a_count>
7

>  <a_don>
1

>  <a_donacc>
2

>  <a_heavy>
4

>  <a_hyd>
0

>  <a_IC>
12.896597

>  <a_ICM>
1.842371

>  <a_nB>
0

>  <a_nBr>
0

>  <a_nC>
1

>  <a_nCl>
0

>  <a_nF>
0

>  <a_nH>
3

>  <a_nI>
0

>  <a_nN>
1

>  <a_nO>
0

>  <a_nP>
0

>  <a_nS>
2

>  <balabanJ>
2.5914834

>  <BCUT_PEOE_0>
-2.0792139

>  <BCUT_PEOE_1>
-0.35012224

>  <BCUT_PEOE_2>
0.50431216

>  <BCUT_PEOE_3>
1.8875142

>  <BCUT_SLOGP_0>
-2.4117515

>  <BCUT_SLOGP_1>
-0.38248909

>  <BCUT_SLOGP_2>
0.81162268

>  <BCUT_SLOGP_3>
1.9168431

>  <BCUT_SMR_0>
-1.6425362

>  <BCUT_SMR_1>
0.0128168

>  <BCUT_SMR_2>
0.98597622

>  <BCUT_SMR_3>
2.4020438

>  <bpol>
6.0396209

>  <b_1rotN>
0

>  <b_1rotR>
0

>  <b_ar>
0

>  <b_count>
6

>  <b_double>
1

>  <b_heavy>
3

>  <b_max1len>
2

>  <b_rotN>
0

>  <b_rotR>
0

>  <b_single>
5

>  <b_triple>
0

>  <chi0>
3.5773504

>  <chi0v>
3.6437359

>  <chi0v_C>
0.5

>  <chi0_C>
0.57735026

>  <chi1>
1.7320508

>  <chi1v>
1.5718679

>  <chi1v_C>
0

>  <chi1_C>
0

>  <chiral>
0

>  <chiral_u>
0

>  <density>
1.0484161

>  <diameter>
2

>  <FCharge>
0

>  <GCUT_PEOE_0>
-0.82075375

>  <GCUT_PEOE_1>
-0.33098465

>  <GCUT_PEOE_2>
0.13794158

>  <GCUT_PEOE_3>
1.2684131

>  <GCUT_SLOGP_0>
-1.3699769

>  <GCUT_SLOGP_1>
-0.4435268

>  <GCUT_SLOGP_2>
0.49074852

>  <GCUT_SLOGP_3>
1.4021194

>  <GCUT_SMR_0>
-0.42377341

>  <GCUT_SMR_1>
-0.063730001

>  <GCUT_SMR_2>
0.63199461

>  <GCUT_SMR_3>
1.7685378

>  <Kier1>
4

>  <Kier2>
1.3333334

>  <Kier3>
0

>  <KierA1>
6.3712635

>  <KierA2>
2.5648749

>  <KierA3>
0

>  <KierFlex>
4.0853734

>  <lip_acc>
1

>  <lip_don>
2

>  <lip_druglike>
1

>  <lip_violation>
0

>  <logP(o/w)>
0.23199999

>  <logS>
-1.96691

>  <mr>
2.3003986

>  <mutagenic>
0

>  <nmol>
1

>  <opr_brigid>
0

>  <opr_leadlike>
1

>  <opr_nring>
0

>  <opr_nrot>
0

>  <opr_violation>
0

>  <PC+>
0

>  <PC->
0

>  <PEOE_PC+>
0.4684639

>  <PEOE_PC->
-0.4684639

>  <PEOE_RPC+>
0.26365265

>  <PEOE_RPC->
0.65518695

>  <PEOE_VSA+0>
0

>  <PEOE_VSA+1>
0

>  <PEOE_VSA+2>
56.403633

>  <PEOE_VSA+3>
0

>  <PEOE_VSA+4>
0

>  <PEOE_VSA+5>
0

>  <PEOE_VSA+6>
0

>  <PEOE_VSA-0>
10.651674

>  <PEOE_VSA-1>
0

>  <PEOE_VSA-2>
26.362989

>  <PEOE_VSA-3>
0

>  <PEOE_VSA-4>
0

>  <PEOE_VSA-5>
0

>  <PEOE_VSA-6>
6.6511192

>  <PEOE_VSA_FHYD>
0.93353492

>  <PEOE_VSA_FNEG>
0.43635494

>  <PEOE_VSA_FPNEG>
0.066465057

>  <PEOE_VSA_FPOL>
0.066465057

>  <PEOE_VSA_FPOS>
0.56364506

>  <PEOE_VSA_FPPOS>
0

>  <PEOE_VSA_HYD>
93.418297

>  <PEOE_VSA_NEG>
43.665783

>  <PEOE_VSA_PNEG>
6.6511192

>  <PEOE_VSA_POL>
6.6511192

>  <PEOE_VSA_POS>
56.403633

>  <PEOE_VSA_PPOS>
0

>  <petitjean>
0.5

>  <petitjeanSC>
1

>  <Q_PC+>
0

>  <Q_PC->
0

>  <Q_RPC+>
0

>  <Q_RPC->
0

>  <Q_VSA_FHYD>
1

>  <Q_VSA_FNEG>
0

>  <Q_VSA_FPNEG>
0

>  <Q_VSA_FPOL>
0

>  <Q_VSA_FPOS>
1

>  <Q_VSA_FPPOS>
0

>  <Q_VSA_HYD>
100.06942

>  <Q_VSA_NEG>
0

>  <Q_VSA_PNEG>
0

>  <Q_VSA_POL>
0

>  <Q_VSA_POS>
100.06942

>  <Q_VSA_PPOS>
0

>  <radius>
1

>  <reactive>
1

>  <rings>
0

>  <RPC+>
0

>  <RPC->
0

>  <rsynth>
1

>  <SlogP>
0.15979999

>  <SlogP_VSA0>
32.897186

>  <SlogP_VSA1>
0

>  <SlogP_VSA2>
0

>  <SlogP_VSA3>
0

>  <SlogP_VSA4>
0

>  <SlogP_VSA5>
0

>  <SlogP_VSA6>
0

>  <SlogP_VSA7>
0

>  <SlogP_VSA8>
46.107109

>  <SlogP_VSA9>
45.192028

>  <SMR>
2.5773399

>  <SMR_VSA0>
0

>  <SMR_VSA1>
0

>  <SMR_VSA2>
0

>  <SMR_VSA3>
0

>  <SMR_VSA4>
32.897186

>  <SMR_VSA5>
0

>  <SMR_VSA6>
0

>  <SMR_VSA7>
91.299141

>  <TPSA>
96.910004

>  <VAdjEq>
0.95443398

>  <VAdjMa>
2.5849626

>  <VDistEq>
1

>  <VDistMa>
3.5032582

>  <vdw_area>
100.06942

>  <vdw_vol>
88.871201

>  <vsa_acc>
31.384512

>  <vsa_acid>
0

>  <vsa_base>
0

>  <vsa_don>
17.742489

>  <vsa_hyd>
0

>  <vsa_other>
42.036186

>  <vsa_pol>
49.126999

>  <Weight>
93.174004

>  <weinerPath>
9

>  <weinerPol>
0

>  <zagreb>
12

$$$$