ClCCN(CCCl)c1cc2nc(n(c2cc1)C)CCCC(O)=O
  MOE2013           2D

 23 24  0  0  0  0  0  0  0  0999 V2000
    0.0000    0.0000    0.0000 Cl  0  0  0  0  0  0  0  0  0  0  0  0
    0.0080   -1.5000    0.0000 C   0  0  0  0  0  0  0  0  0  0  0  0
    1.3110   -2.2430    0.0000 C   0  0  0  0  0  0  0  0  0  0  0  0
    1.3200   -3.7430    0.0000 N   0  0  0  0  0  0  0  0  0  0  0  0
    0.0250   -4.5000    0.0000 C   0  0  0  0  0  0  0  0  0  0  0  0
   -1.2790   -3.7570    0.0000 C   0  0  0  0  0  0  0  0  0  0  0  0
   -2.5730   -4.5140    0.0000 Cl  0  0  0  0  0  0  0  0  0  0  0  0
    2.6230   -4.4860    0.0000 C   0  0  0  0  0  0  0  0  0  0  0  0
    3.9180   -3.7290    0.0000 C   0  0  0  0  0  0  0  0  0  0  0  0
    5.2210   -4.4720    0.0000 C   0  0  0  0  0  0  0  0  0  0  0  0
    6.6450   -4.0000    0.0000 N   0  0  0  0  0  0  0  0  0  0  0  0
    7.5330   -5.2090    0.0000 C   0  0  0  0  0  0  0  0  0  0  0  0
    6.6580   -6.4270    0.0000 N   0  0  0  0  0  0  0  0  0  0  0  0
    5.2290   -5.9710    0.0000 C   0  0  0  0  0  0  0  0  0  0  0  0
    3.9340   -6.7290    0.0000 C   0  0  0  0  0  0  0  0  0  0  0  0
    2.6310   -5.9860    0.0000 C   0  0  0  0  0  0  0  0  0  0  0  0
    7.1290   -7.8510    0.0000 C   0  0  0  0  0  0  0  0  0  0  0  0
    9.0330   -5.2010    0.0000 C   0  0  0  0  0  0  0  0  0  0  0  0
    9.7760   -3.8980    0.0000 C   0  0  0  0  0  0  0  0  0  0  0  0
   11.2760   -3.8890    0.0000 C   0  0  0  0  0  0  0  0  0  0  0  0
   12.0190   -2.5860    0.0000 C   0  0  0  0  0  0  0  0  0  0  0  0
   13.5190   -2.5780    0.0000 O   0  0  0  0  0  0  0  0  0  0  0  0
   11.2620   -1.2910    0.0000 O   0  0  0  0  0  0  0  0  0  0  0  0
  1  2  1  0  0  0  0
  2  3  1  0  0  0  0
  3  4  1  0  0  0  0
  4  5  1  0  0  0  0
  4  8  1  0  0  0  0
  5  6  1  0  0  0  0
  6  7  1  0  0  0  0
  8  9  1  0  0  0  0
  8 16  2  0  0  0  0
  9 10  2  0  0  0  0
 10 11  1  0  0  0  0
 10 14  1  0  0  0  0
 11 12  2  0  0  0  0
 12 13  1  0  0  0  0
 12 18  1  0  0  0  0
 13 14  1  0  0  0  0
 13 17  1  0  0  0  0
 14 15  2  0  0  0  0
 15 16  1  0  0  0  0
 18 19  1  0  0  0  0
 19 20  1  0  0  0  0
 20 21  1  0  0  0  0
 21 22  1  0  0  0  0
 21 23  2  0  0  0  0
M  END
>  <Index>
115

>  <ID>
HT0234

>  <class>
0

>  <apol>
51.426655

>  <ast_fraglike>
0

>  <ast_fraglike_ext>
0

>  <ast_violation>
2

>  <ast_violation_ext>
3

>  <a_acc>
3

>  <a_acid>
0

>  <a_aro>
9

>  <a_base>
0

>  <a_count>
44

>  <a_don>
2

>  <a_donacc>
5

>  <a_heavy>
23

>  <a_hyd>
16

>  <a_IC>
75.221436

>  <a_ICM>
1.7095782

>  <a_nB>
0

>  <a_nBr>
0

>  <a_nC>
16

>  <a_nCl>
2

>  <a_nF>
0

>  <a_nH>
21

>  <a_nI>
0

>  <a_nN>
3

>  <a_nO>
2

>  <a_nP>
0

>  <a_nS>
0

>  <balabanJ>
1.86224

>  <BCUT_PEOE_0>
-2.5759549

>  <BCUT_PEOE_1>
-0.49088359

>  <BCUT_PEOE_2>
0.40948942

>  <BCUT_PEOE_3>
2.5374622

>  <BCUT_SLOGP_0>
-2.6827564

>  <BCUT_SLOGP_1>
-0.44896281

>  <BCUT_SLOGP_2>
0.47828031

>  <BCUT_SLOGP_3>
2.5931308

>  <BCUT_SMR_0>
-2.2795579

>  <BCUT_SMR_1>
-0.27517948

>  <BCUT_SMR_2>
0.58144057

>  <BCUT_SMR_3>
2.8136721

>  <bpol>
30.035347

>  <b_1rotN>
9

>  <b_1rotR>
0.375

>  <b_ar>
10

>  <b_count>
45

>  <b_double>
1

>  <b_heavy>
24

>  <b_max1len>
6

>  <b_rotN>
9

>  <b_rotR>
0.375

>  <b_single>
34

>  <b_triple>
0

>  <chi0>
16.819626

>  <chi0v>
14.646688

>  <chi0v_C>
10.181798

>  <chi0_C>
10.957819

>  <chi1>
11.06208

>  <chi1v>
8.6741419

>  <chi1v_C>
4.4451408

>  <chi1_C>
5.2828231

>  <chiral>
0

>  <chiral_u>
0

>  <density>
0.80304837

>  <diameter>
13

>  <FCharge>
0

>  <GCUT_PEOE_0>
-0.85031456

>  <GCUT_PEOE_1>
-0.41746286

>  <GCUT_PEOE_2>
-0.068695843

>  <GCUT_PEOE_3>
2.6182079

>  <GCUT_SLOGP_0>
-0.98994505

>  <GCUT_SLOGP_1>
-0.33112967

>  <GCUT_SLOGP_2>
0.14367467

>  <GCUT_SLOGP_3>
2.7074978

>  <GCUT_SMR_0>
-0.51887995

>  <GCUT_SMR_1>
-0.18486999

>  <GCUT_SMR_2>
0.22064944

>  <GCUT_SMR_3>
2.9061849

>  <Kier1>
19.326389

>  <Kier2>
9.4746094

>  <Kier3>
5.2349792

>  <KierA1>
17.30229

>  <KierA2>
8.4375372

>  <KierA3>
4.6433268

>  <KierFlex>
6.3473358

>  <lip_acc>
5

>  <lip_don>
1

>  <lip_druglike>
1

>  <lip_violation>
0

>  <logP(o/w)>
3.0669999

>  <logS>
-3.1029401

>  <mr>
9.4052105

>  <mutagenic>
1

>  <nmol>
1

>  <opr_brigid>
10

>  <opr_leadlike>
1

>  <opr_nring>
2

>  <opr_nrot>
9

>  <opr_violation>
0

>  <PC+>
0

>  <PC->
0

>  <PEOE_PC+>
1.8089406

>  <PEOE_PC->
-1.8089406

>  <PEOE_RPC+>
0.14350872

>  <PEOE_RPC->
0.18312781

>  <PEOE_VSA+0>
168.26212

>  <PEOE_VSA+1>
26.195261

>  <PEOE_VSA+2>
11.190562

>  <PEOE_VSA+3>
0

>  <PEOE_VSA+4>
10.324173

>  <PEOE_VSA+5>
14.708499

>  <PEOE_VSA+6>
0

>  <PEOE_VSA-0>
45.466026

>  <PEOE_VSA-1>
0

>  <PEOE_VSA-2>
59.163895

>  <PEOE_VSA-3>
0

>  <PEOE_VSA-4>
5.6825762

>  <PEOE_VSA-5>
13.566921

>  <PEOE_VSA-6>
7.7675405

>  <PEOE_VSA_FHYD>
0.85634625

>  <PEOE_VSA_FNEG>
0.36333683

>  <PEOE_VSA_FPNEG>
0.074565224

>  <PEOE_VSA_FPOL>
0.14365374

>  <PEOE_VSA_FPOS>
0.63666314

>  <PEOE_VSA_FPPOS>
0.069088511

>  <PEOE_VSA_HYD>
310.27786

>  <PEOE_VSA_NEG>
131.64696

>  <PEOE_VSA_PNEG>
27.017036

>  <PEOE_VSA_POL>
52.049709

>  <PEOE_VSA_POS>
230.68062

>  <PEOE_VSA_PPOS>
25.032671

>  <petitjean>
0.46153846

>  <petitjeanSC>
0.85714287

>  <Q_PC+>
0

>  <Q_PC->
0

>  <Q_RPC+>
0

>  <Q_RPC->
0

>  <Q_VSA_FHYD>
1

>  <Q_VSA_FNEG>
0

>  <Q_VSA_FPNEG>
0

>  <Q_VSA_FPOL>
0

>  <Q_VSA_FPOS>
1

>  <Q_VSA_FPPOS>
0

>  <Q_VSA_HYD>
362.32758

>  <Q_VSA_NEG>
0

>  <Q_VSA_PNEG>
0

>  <Q_VSA_POL>
0

>  <Q_VSA_POS>
362.32758

>  <Q_VSA_PPOS>
0

>  <radius>
7

>  <reactive>
1

>  <rings>
2

>  <RPC+>
0

>  <RPC->
0

>  <rsynth>
1

>  <SlogP>
3.62377

>  <SlogP_VSA0>
3.1243138

>  <SlogP_VSA1>
26.430086

>  <SlogP_VSA2>
23.862217

>  <SlogP_VSA3>
100.63126

>  <SlogP_VSA4>
2.3279202

>  <SlogP_VSA5>
18.868406

>  <SlogP_VSA6>
0

>  <SlogP_VSA7>
57.217827

>  <SlogP_VSA8>
37.736813

>  <SlogP_VSA9>
113.95123

>  <SMR>
9.5221796

>  <SMR_VSA0>
23.862217

>  <SMR_VSA1>
18.684622

>  <SMR_VSA2>
28.509541

>  <SMR_VSA3>
2.3279202

>  <SMR_VSA4>
7.0450215

>  <SMR_VSA5>
109.53477

>  <SMR_VSA6>
82.991493

>  <SMR_VSA7>
111.19447

>  <TPSA>
58.360001

>  <VAdjEq>
0.43892586

>  <VAdjMa>
5.5849624

>  <VDistEq>
3.4768834

>  <VDistMa>
8.7319756

>  <vdw_area>
362.32758

>  <vdw_vol>
446.13626

>  <vsa_acc>
5.6825762

>  <vsa_acid>
0

>  <vsa_base>
0

>  <vsa_don>
0

>  <vsa_hyd>
284.85138

>  <vsa_other>
25.899061

>  <vsa_pol>
32.816418

>  <Weight>
358.26898

>  <weinerPath>
1313

>  <weinerPol>
33

>  <zagreb>
112

$$$$