Clc1c(O)c(Cl)c(Cl)c(Cl)c1Cl
  MOE2013           2D

 12 12  0  0  0  0  0  0  0  0999 V2000
    0.0000    0.0000    0.0000 Cl  0  0  0  0  0  0  0  0  0  0  0  0
    1.5000    0.0000    0.0000 C   0  0  0  0  0  0  0  0  0  0  0  0
    2.2500   -1.2990    0.0000 C   0  0  0  0  0  0  0  0  0  0  0  0
    1.5000   -2.5980    0.0000 O   0  0  0  0  0  0  0  0  0  0  0  0
    3.7500   -1.2990    0.0000 C   0  0  0  0  0  0  0  0  0  0  0  0
    4.5000   -2.5980    0.0000 Cl  0  0  0  0  0  0  0  0  0  0  0  0
    4.5000    0.0000    0.0000 C   0  0  0  0  0  0  0  0  0  0  0  0
    6.0000    0.0000    0.0000 Cl  0  0  0  0  0  0  0  0  0  0  0  0
    3.7500    1.2990    0.0000 C   0  0  0  0  0  0  0  0  0  0  0  0
    4.5000    2.5980    0.0000 Cl  0  0  0  0  0  0  0  0  0  0  0  0
    2.2500    1.2990    0.0000 C   0  0  0  0  0  0  0  0  0  0  0  0
    1.5000    2.5980    0.0000 Cl  0  0  0  0  0  0  0  0  0  0  0  0
  1  2  1  0  0  0  0
  2  3  1  0  0  0  0
  2 11  2  0  0  0  0
  3  4  1  0  0  0  0
  3  5  2  0  0  0  0
  5  6  1  0  0  0  0
  5  7  1  0  0  0  0
  7  8  1  0  0  0  0
  7  9  2  0  0  0  0
  9 10  1  0  0  0  0
  9 11  1  0  0  0  0
 11 12  1  0  0  0  0
M  END
>  <Index>
1298

>  <ID>
HT3178

>  <class>
0

>  <apol>
22.928793

>  <ast_fraglike>
0

>  <ast_fraglike_ext>
0

>  <ast_violation>
1

>  <ast_violation_ext>
1

>  <a_acc>
1

>  <a_acid>
0

>  <a_aro>
6

>  <a_base>
0

>  <a_count>
13

>  <a_don>
1

>  <a_donacc>
2

>  <a_heavy>
12

>  <a_hyd>
11

>  <a_IC>
20.986301

>  <a_ICM>
1.6143309

>  <a_nB>
0

>  <a_nBr>
0

>  <a_nC>
6

>  <a_nCl>
5

>  <a_nF>
0

>  <a_nH>
1

>  <a_nI>
0

>  <a_nN>
0

>  <a_nO>
1

>  <a_nP>
0

>  <a_nS>
0

>  <balabanJ>
2.8055034

>  <BCUT_PEOE_0>
-2.0916369

>  <BCUT_PEOE_1>
-0.7025851

>  <BCUT_PEOE_2>
0.64664632

>  <BCUT_PEOE_3>
2.1755345

>  <BCUT_SLOGP_0>
-1.8585424

>  <BCUT_SLOGP_1>
-0.14165232

>  <BCUT_SLOGP_2>
1.2108802

>  <BCUT_SLOGP_3>
2.4684286

>  <BCUT_SMR_0>
-1.7632357

>  <BCUT_SMR_1>
-0.16316724

>  <BCUT_SMR_2>
1.1909693

>  <BCUT_SMR_3>
2.5102179

>  <bpol>
3.193207

>  <b_1rotN>
0

>  <b_1rotR>
0

>  <b_ar>
6

>  <b_count>
13

>  <b_double>
0

>  <b_heavy>
12

>  <b_max1len>
1

>  <b_rotN>
0

>  <b_rotR>
0

>  <b_single>
7

>  <b_triple>
0

>  <chi0>
9.4641018

>  <chi0v>
9.1166811

>  <chi0v_C>
3

>  <chi0_C>
3.4641016

>  <chi1>
5.4641018

>  <chi1v>
4.5583405

>  <chi1v_C>
1.5

>  <chi1_C>
2

>  <chiral>
0

>  <chiral_u>
0

>  <density>
1.2263929

>  <diameter>
5

>  <FCharge>
0

>  <GCUT_PEOE_0>
-0.74613202

>  <GCUT_PEOE_1>
-0.42088753

>  <GCUT_PEOE_2>
-0.0098280618

>  <GCUT_PEOE_3>
1.9035548

>  <GCUT_SLOGP_0>
-0.76157892

>  <GCUT_SLOGP_1>
-0.041689668

>  <GCUT_SLOGP_2>
0.66552299

>  <GCUT_SLOGP_3>
2.2284169

>  <GCUT_SMR_0>
-0.42520386

>  <GCUT_SMR_1>
0.082133621

>  <GCUT_SMR_2>
0.5794028

>  <GCUT_SMR_3>
2.2595592

>  <Kier1>
10.083333

>  <Kier2>
3.3950617

>  <Kier3>
1.5625

>  <KierA1>
14.64642

>  <KierA2>
5.1014757

>  <KierA3>
2.4104257

>  <KierFlex>
6.2265296

>  <lip_acc>
1

>  <lip_don>
1

>  <lip_druglike>
1

>  <lip_violation>
0

>  <logP(o/w)>
4.546

>  <logS>
-4.6943798

>  <mr>
5.0624981

>  <mutagenic>
0

>  <nmol>
1

>  <opr_brigid>
6

>  <opr_leadlike>
1

>  <opr_nring>
1

>  <opr_nrot>
0

>  <opr_violation>
1

>  <PC+>
0

>  <PC->
0

>  <PEOE_PC+>
0.75666851

>  <PEOE_PC->
-0.75666851

>  <PEOE_RPC+>
0.28735417

>  <PEOE_RPC->
0.47172222

>  <PEOE_VSA+0>
0

>  <PEOE_VSA+1>
22.598732

>  <PEOE_VSA+2>
8.458519

>  <PEOE_VSA+3>
0

>  <PEOE_VSA+4>
10.324173

>  <PEOE_VSA+5>
0

>  <PEOE_VSA+6>
0

>  <PEOE_VSA-0>
0

>  <PEOE_VSA-1>
147.90973

>  <PEOE_VSA-2>
0

>  <PEOE_VSA-3>
0

>  <PEOE_VSA-4>
0

>  <PEOE_VSA-5>
0

>  <PEOE_VSA-6>
7.7675405

>  <PEOE_VSA_FHYD>
0.90819126

>  <PEOE_VSA_FNEG>
0.79000455

>  <PEOE_VSA_FPNEG>
0.039417394

>  <PEOE_VSA_FPOL>
0.091808751

>  <PEOE_VSA_FPOS>
0.20999542

>  <PEOE_VSA_FPPOS>
0.052391358

>  <PEOE_VSA_HYD>
178.96698

>  <PEOE_VSA_NEG>
155.67728

>  <PEOE_VSA_PNEG>
7.7675405

>  <PEOE_VSA_POL>
18.091713

>  <PEOE_VSA_POS>
41.381424

>  <PEOE_VSA_PPOS>
10.324173

>  <petitjean>
0.2

>  <petitjeanSC>
0.25

>  <Q_PC+>
0

>  <Q_PC->
0

>  <Q_RPC+>
0

>  <Q_RPC->
0

>  <Q_VSA_FHYD>
1

>  <Q_VSA_FNEG>
0

>  <Q_VSA_FPNEG>
0

>  <Q_VSA_FPOL>
0

>  <Q_VSA_FPOS>
1

>  <Q_VSA_FPPOS>
0

>  <Q_VSA_HYD>
197.0587

>  <Q_VSA_NEG>
0

>  <Q_VSA_PNEG>
0

>  <Q_VSA_POL>
0

>  <Q_VSA_POS>
197.0587

>  <Q_VSA_PPOS>
0

>  <radius>
4

>  <reactive>
0

>  <rings>
1

>  <RPC+>
0

>  <RPC->
0

>  <rsynth>
1

>  <SlogP>
4.6592002

>  <SlogP_VSA0>
25.385227

>  <SlogP_VSA1>
0

>  <SlogP_VSA2>
0

>  <SlogP_VSA3>
0

>  <SlogP_VSA4>
0

>  <SlogP_VSA5>
0

>  <SlogP_VSA6>
17.503033

>  <SlogP_VSA7>
0

>  <SlogP_VSA8>
0

>  <SlogP_VSA9>
200.98665

>  <SMR>
5.31568

>  <SMR_VSA0>
0

>  <SMR_VSA1>
25.385227

>  <SMR_VSA2>
0

>  <SMR_VSA3>
22.74646

>  <SMR_VSA4>
0

>  <SMR_VSA5>
0

>  <SMR_VSA6>
0

>  <SMR_VSA7>
195.74323

>  <TPSA>
20.23

>  <VAdjEq>
0.65002245

>  <VAdjMa>
4.5849624

>  <VDistEq>
2.1339197

>  <VDistMa>
6.9102907

>  <vdw_area>
197.0587

>  <vdw_vol>
217.17184

>  <vsa_acc>
0

>  <vsa_acid>
0

>  <vsa_base>
0

>  <vsa_don>
0

>  <vsa_hyd>
178.96698

>  <vsa_other>
0

>  <vsa_pol>
13.566921

>  <Weight>
266.33798

>  <weinerPath>
174

>  <weinerPol>
21

>  <zagreb>
60

$$$$