OC1(CCC2C3C(C4C(=CC(O)CC4)CC3)CCC12C)C#C
  MOE2013           2D

 22 25  0  0  1  0  0  0  0  0999 V2000
    0.0000    0.0000    0.0000 O   0  0  0  0  0  0  0  0  0  0  0  0
   -1.1280    0.9890    0.0000 C   0  0  3  0  0  0  0  0  0  0  0  0
   -1.7320    2.3620    0.0000 C   0  0  0  0  0  0  0  0  0  0  0  0
   -3.2240    2.2120    0.0000 C   0  0  0  0  0  0  0  0  0  0  0  0
   -3.5430    0.7460    0.0000 C   0  0  3  0  0  0  0  0  0  0  0  0
   -4.8450    0.0020    0.0000 C   0  0  3  0  0  0  0  0  0  0  0  0
   -4.8520   -1.4980    0.0000 C   0  0  3  0  0  0  0  0  0  0  0  0
   -6.1540   -2.2420    0.0000 C   0  0  3  0  0  0  0  0  0  0  0  0
   -7.4500   -1.4860    0.0000 C   0  0  0  0  0  0  0  0  0  0  0  0
   -8.7520   -2.2300    0.0000 C   0  0  0  0  0  0  0  0  0  0  0  0
   -8.7590   -3.7300    0.0000 C   0  0  3  0  0  0  0  0  0  0  0  0
  -10.0610   -4.4740    0.0000 O   0  0  0  0  0  0  0  0  0  0  0  0
   -7.4630   -4.4860    0.0000 C   0  0  0  0  0  0  0  0  0  0  0  0
   -6.1610   -3.7420    0.0000 C   0  0  0  0  0  0  0  0  0  0  0  0
   -7.4430    0.0140    0.0000 C   0  0  0  0  0  0  0  0  0  0  0  0
   -6.1410    0.7580    0.0000 C   0  0  0  0  0  0  0  0  0  0  0  0
   -3.5560   -2.2540    0.0000 C   0  0  0  0  0  0  0  0  0  0  0  0
   -2.2540   -1.5100    0.0000 C   0  0  0  0  0  0  0  0  0  0  0  0
   -2.2470   -0.0100    0.0000 C   0  0  3  0  0  0  0  0  0  0  0  0
   -0.8900   -0.6500    0.0000 C   0  0  0  0  0  0  0  0  0  0  0  0
    0.2750    1.5200    0.0000 C   0  0  0  0  0  0  0  0  0  0  0  0
    1.6780    2.0520    0.0000 C   0  0  0  0  0  0  0  0  0  0  0  0
  1  2  1  0  0  0  0
  2  3  1  0  0  0  0
  2 19  1  0  0  0  0
  2 21  1  0  0  0  0
  3  4  1  0  0  0  0
  4  5  1  0  0  0  0
  5  6  1  0  0  0  0
  5 19  1  0  0  0  0
  6  7  1  0  0  0  0
  6 16  1  0  0  0  0
  7  8  1  0  0  0  0
  7 17  1  0  0  0  0
  8  9  1  0  0  0  0
  8 14  1  0  0  0  0
  9 10  2  0  0  0  0
  9 15  1  0  0  0  0
 10 11  1  0  0  0  0
 11 12  1  0  0  0  0
 11 13  1  0  0  0  0
 13 14  1  0  0  0  0
 15 16  1  0  0  0  0
 17 18  1  0  0  0  0
 18 19  1  0  0  0  0
 19 20  1  0  0  0  0
 21 22  3  0  0  0  0
M  END
>  <Index>
1318

>  <ID>
HT3358

>  <class>
0

>  <apol>
55.474205

>  <ast_fraglike>
0

>  <ast_fraglike_ext>
0

>  <ast_violation>
2

>  <ast_violation_ext>
2

>  <a_acc>
2

>  <a_acid>
0

>  <a_aro>
0

>  <a_base>
0

>  <a_count>
50

>  <a_don>
2

>  <a_donacc>
4

>  <a_heavy>
22

>  <a_hyd>
20

>  <a_IC>
59.148312

>  <a_ICM>
1.1829662

>  <a_nB>
0

>  <a_nBr>
0

>  <a_nC>
20

>  <a_nCl>
0

>  <a_nF>
0

>  <a_nH>
28

>  <a_nI>
0

>  <a_nN>
0

>  <a_nO>
2

>  <a_nP>
0

>  <a_nS>
0

>  <balabanJ>
1.5798423

>  <BCUT_PEOE_0>
-2.9326601

>  <BCUT_PEOE_1>
-0.51780033

>  <BCUT_PEOE_2>
0.58797485

>  <BCUT_PEOE_3>
2.9552021

>  <BCUT_SLOGP_0>
-2.8557019

>  <BCUT_SLOGP_1>
-0.52884585

>  <BCUT_SLOGP_2>
0.54558241

>  <BCUT_SLOGP_3>
3.0249059

>  <BCUT_SMR_0>
-2.6782193

>  <BCUT_SMR_1>
-0.38442758

>  <BCUT_SMR_2>
0.70659

>  <BCUT_SMR_3>
3.2037246

>  <bpol>
30.609797

>  <b_1rotN>
0

>  <b_1rotR>
0

>  <b_ar>
0

>  <b_count>
53

>  <b_double>
1

>  <b_heavy>
25

>  <b_max1len>
3

>  <b_rotN>
1

>  <b_rotR>
0.039999999

>  <b_single>
51

>  <b_triple>
1

>  <chi0>
15.53517

>  <chi0v>
13.592733

>  <chi0v_C>
12.698306

>  <chi0_C>
13.53517

>  <chi1>
10.483112

>  <chi1v>
9.0717411

>  <chi1v_C>
8.5899353

>  <chi1_C>
9.4057617

>  <chiral>
7

>  <chiral_u>
7

>  <density>
0.67328256

>  <diameter>
11

>  <FCharge>
0

>  <GCUT_PEOE_0>
-0.79794145

>  <GCUT_PEOE_1>
-0.3703258

>  <GCUT_PEOE_2>
0.063654661

>  <GCUT_PEOE_3>
3.2397842

>  <GCUT_SLOGP_0>
-0.88826507

>  <GCUT_SLOGP_1>
-0.32524985

>  <GCUT_SLOGP_2>
0.064246826

>  <GCUT_SLOGP_3>
3.3209019

>  <GCUT_SMR_0>
-0.53801918

>  <GCUT_SMR_1>
-0.21474913

>  <GCUT_SMR_2>
0.15483065

>  <GCUT_SMR_3>
3.4669533

>  <Kier1>
15.5232

>  <Kier2>
5.25

>  <Kier3>
2.1111112

>  <KierA1>
14.044027

>  <KierA2>
4.7259669

>  <KierA3>
1.8934908

>  <KierFlex>
3.0168912

>  <lip_acc>
2

>  <lip_don>
2

>  <lip_druglike>
1

>  <lip_violation>
0

>  <logP(o/w)>
3.3440001

>  <logS>
-4.65346

>  <mr>
8.6812906

>  <mutagenic>
0

>  <nmol>
1

>  <opr_brigid>
21

>  <opr_leadlike>
1

>  <opr_nring>
4

>  <opr_nrot>
1

>  <opr_violation>
0

>  <PC+>
0

>  <PC->
0

>  <PEOE_PC+>
1.5344959

>  <PEOE_PC->
-1.5344959

>  <PEOE_RPC+>
0.13776956

>  <PEOE_RPC->
0.25269571

>  <PEOE_VSA+0>
98.103882

>  <PEOE_VSA+1>
13.4357

>  <PEOE_VSA+2>
4.2653861

>  <PEOE_VSA+3>
0

>  <PEOE_VSA+4>
20.648346

>  <PEOE_VSA+5>
0

>  <PEOE_VSA+6>
0

>  <PEOE_VSA-0>
69.610504

>  <PEOE_VSA-1>
49.019615

>  <PEOE_VSA-2>
25.854858

>  <PEOE_VSA-3>
0

>  <PEOE_VSA-4>
0

>  <PEOE_VSA-5>
0

>  <PEOE_VSA-6>
15.535081

>  <PEOE_VSA_FHYD>
0.87795389

>  <PEOE_VSA_FNEG>
0.53974515

>  <PEOE_VSA_FPNEG>
0.052399579

>  <PEOE_VSA_FPOL>
0.12204612

>  <PEOE_VSA_FPOS>
0.46025485

>  <PEOE_VSA_FPPOS>
0.069646545

>  <PEOE_VSA_HYD>
260.28995

>  <PEOE_VSA_NEG>
160.02007

>  <PEOE_VSA_PNEG>
15.535081

>  <PEOE_VSA_POL>
36.183426

>  <PEOE_VSA_POS>
136.45331

>  <PEOE_VSA_PPOS>
20.648346

>  <petitjean>
0.45454547

>  <petitjeanSC>
0.83333331

>  <Q_PC+>
0

>  <Q_PC->
0

>  <Q_RPC+>
0

>  <Q_RPC->
0

>  <Q_VSA_FHYD>
1

>  <Q_VSA_FNEG>
0

>  <Q_VSA_FPNEG>
0

>  <Q_VSA_FPOL>
0

>  <Q_VSA_FPOS>
1

>  <Q_VSA_FPPOS>
0

>  <Q_VSA_HYD>
296.47336

>  <Q_VSA_NEG>
0

>  <Q_VSA_PNEG>
0

>  <Q_VSA_POL>
0

>  <Q_VSA_POS>
296.47336

>  <Q_VSA_PPOS>
0

>  <radius>
6

>  <reactive>
0

>  <rings>
4

>  <RPC+>
0

>  <RPC->
0

>  <rsynth>
0

>  <SlogP>
3.284308

>  <SlogP_VSA0>
50.770454

>  <SlogP_VSA1>
0

>  <SlogP_VSA2>
6.4686494

>  <SlogP_VSA3>
17.030573

>  <SlogP_VSA4>
49.131367

>  <SlogP_VSA5>
3.185575

>  <SlogP_VSA6>
0

>  <SlogP_VSA7>
17.643185

>  <SlogP_VSA8>
150.94725

>  <SlogP_VSA9>
33.326015

>  <SMR>
8.6875601

>  <SMR_VSA0>
0

>  <SMR_VSA1>
50.770454

>  <SMR_VSA2>
17.643185

>  <SMR_VSA3>
26.684797

>  <SMR_VSA4>
0

>  <SMR_VSA5>
168.59042

>  <SMR_VSA6>
31.488184

>  <SMR_VSA7>
33.326015

>  <TPSA>
40.459999

>  <VAdjEq>
0.47938794

>  <VAdjMa>
5.643856

>  <VDistEq>
3.0712955

>  <VDistMa>
8.6308546

>  <vdw_area>
296.47336

>  <vdw_vol>
446.23462

>  <vsa_acc>
0

>  <vsa_acid>
0

>  <vsa_base>
0

>  <vsa_don>
0

>  <vsa_hyd>
236.40306

>  <vsa_other>
0

>  <vsa_pol>
27.133842

>  <Weight>
300.44199

>  <weinerPath>
941

>  <weinerPol>
46

>  <zagreb>
130

$$$$