O(C)C12N(C3=C(C1COC(=O)N)C(=O)C(=N)C(C)=C3O)CC1N(C12)C
  MOE2013           2D

 25 28  0  0  1  0  0  0  0  0999 V2000
    0.0000    0.0000    0.0000 O   0  0  0  0  0  0  0  0  0  0  0  0
    1.5000   -0.0190    0.0000 C   0  0  0  0  0  0  0  0  0  0  0  0
   -0.7330    1.3080    0.0000 C   0  0  3  0  0  0  0  0  0  0  0  0
   -1.4900    2.6040    0.0000 N   0  0  3  0  0  0  0  0  0  0  0  0
   -2.9550    2.2850    0.0000 C   0  0  0  0  0  0  0  0  0  0  0  0
   -3.1050    0.7930    0.0000 C   0  0  0  0  0  0  0  0  0  0  0  0
   -1.7320    0.1890    0.0000 C   0  0  3  0  0  0  0  0  0  0  0  0
   -1.4130   -1.2770    0.0000 C   0  0  0  0  0  0  0  0  0  0  0  0
   -2.5230   -2.2860    0.0000 O   0  0  0  0  0  0  0  0  0  0  0  0
   -2.2040   -3.7510    0.0000 C   0  0  0  0  0  0  0  0  0  0  0  0
   -0.7750   -4.2080    0.0000 O   0  0  0  0  0  0  0  0  0  0  0  0
   -3.3140   -4.7600    0.0000 N   0  0  0  0  0  0  0  0  0  0  0  0
   -4.4720    0.1760    0.0000 C   0  0  0  0  0  0  0  0  0  0  0  0
   -4.6220   -1.3170    0.0000 O   0  0  0  0  0  0  0  0  0  0  0  0
   -5.6900    1.0520    0.0000 C   0  0  0  0  0  0  0  0  0  0  0  0
   -7.0580    0.4350    0.0000 N   0  0  0  0  0  0  0  0  0  0  0  0
   -5.5400    2.5440    0.0000 C   0  0  0  0  0  0  0  0  0  0  0  0
   -6.7580    3.4200    0.0000 C   0  0  0  0  0  0  0  0  0  0  0  0
   -4.1730    3.1610    0.0000 C   0  0  0  0  0  0  0  0  0  0  0  0
   -4.0230    4.6530    0.0000 O   0  0  0  0  0  0  0  0  0  0  0  0
   -0.4910    3.7230    0.0000 C   0  0  0  0  0  0  0  0  0  0  0  0
    0.8820    3.1200    0.0000 C   0  0  3  0  0  0  0  0  0  0  0  0
    2.1000    2.2440    0.0000 N   0  0  3  0  0  0  0  0  0  0  0  0
    0.7320    1.6270    0.0000 C   0  0  3  0  0  0  0  0  0  0  0  0
    3.5920    2.0940    0.0000 C   0  0  0  0  0  0  0  0  0  0  0  0
  1  2  1  0  0  0  0
  1  3  1  0  0  0  0
  3  4  1  0  0  0  0
  3  7  1  0  0  0  0
  3 24  1  0  0  0  0
  4  5  1  0  0  0  0
  4 21  1  0  0  0  0
  5  6  2  0  0  0  0
  5 19  1  0  0  0  0
  6  7  1  0  0  0  0
  6 13  1  0  0  0  0
  7  8  1  0  0  0  0
  8  9  1  0  0  0  0
  9 10  1  0  0  0  0
 10 11  2  0  0  0  0
 10 12  1  0  0  0  0
 13 14  2  0  0  0  0
 13 15  1  0  0  0  0
 15 16  2  0  0  0  0
 15 17  1  0  0  0  0
 17 18  1  0  0  0  0
 17 19  2  0  0  0  0
 19 20  1  0  0  0  0
 21 22  1  0  0  0  0
 22 23  1  0  0  0  0
 22 24  1  0  0  0  0
 23 24  1  0  0  0  0
 23 25  1  0  0  0  0
M  END
>  <Index>
1351

>  <ID>
HT3593

>  <class>
0

>  <apol>
49.905861

>  <ast_fraglike>
0

>  <ast_fraglike_ext>
0

>  <ast_violation>
2

>  <ast_violation_ext>
3

>  <a_acc>
6

>  <a_acid>
0

>  <a_aro>
0

>  <a_base>
0

>  <a_count>
45

>  <a_don>
3

>  <a_donacc>
9

>  <a_heavy>
25

>  <a_hyd>
12

>  <a_IC>
77.08519

>  <a_ICM>
1.7130041

>  <a_nB>
0

>  <a_nBr>
0

>  <a_nC>
16

>  <a_nCl>
0

>  <a_nF>
0

>  <a_nH>
20

>  <a_nI>
0

>  <a_nN>
4

>  <a_nO>
5

>  <a_nP>
0

>  <a_nS>
0

>  <balabanJ>
1.7560612

>  <BCUT_PEOE_0>
-2.6018717

>  <BCUT_PEOE_1>
-0.55201727

>  <BCUT_PEOE_2>
0.53255194

>  <BCUT_PEOE_3>
2.961283

>  <BCUT_SLOGP_0>
-2.7403581

>  <BCUT_SLOGP_1>
-0.47829098

>  <BCUT_SLOGP_2>
0.55887496

>  <BCUT_SLOGP_3>
2.8051672

>  <BCUT_SMR_0>
-2.3718071

>  <BCUT_SMR_1>
-0.32003093

>  <BCUT_SMR_2>
0.67900491

>  <BCUT_SMR_3>
3.2043881

>  <bpol>
30.91214

>  <b_1rotN>
3

>  <b_1rotR>
0.10714286

>  <b_ar>
0

>  <b_count>
48

>  <b_double>
5

>  <b_heavy>
28

>  <b_max1len>
3

>  <b_rotN>
4

>  <b_rotR>
0.14285715

>  <b_single>
43

>  <b_triple>
0

>  <chi0>
18.25663

>  <chi0v>
14.198249

>  <chi0v_C>
10.146264

>  <chi0_C>
10.687716

>  <chi1>
11.767797

>  <chi1v>
8.01861

>  <chi1v_C>
4.0158553

>  <chi1_C>
4.6378636

>  <chiral>
4

>  <chiral_u>
4

>  <density>
0.81413001

>  <diameter>
9

>  <FCharge>
0

>  <GCUT_PEOE_0>
-0.81037962

>  <GCUT_PEOE_1>
-0.4578706

>  <GCUT_PEOE_2>
0.019614216

>  <GCUT_PEOE_3>
2.9521046

>  <GCUT_SLOGP_0>
-1.3703336

>  <GCUT_SLOGP_1>
-0.35769579

>  <GCUT_SLOGP_2>
0.0710195

>  <GCUT_SLOGP_3>
2.8831391

>  <GCUT_SMR_0>
-0.52548289

>  <GCUT_SMR_1>
-0.20088743

>  <GCUT_SMR_2>
0.15301321

>  <GCUT_SMR_3>
3.1925168

>  <Kier1>
18.367348

>  <Kier2>
6

>  <Kier3>
2.1212564

>  <KierA1>
14.661879

>  <KierA2>
4.7416353

>  <KierA3>
1.6637664

>  <KierFlex>
2.7808514

>  <lip_acc>
9

>  <lip_don>
4

>  <lip_druglike>
1

>  <lip_violation>
0

>  <logP(o/w)>
-0.82300001

>  <logS>
-1.93341

>  <mr>
8.5051603

>  <mutagenic>
0

>  <nmol>
1

>  <opr_brigid>
17

>  <opr_leadlike>
1

>  <opr_nring>
4

>  <opr_nrot>
3

>  <opr_violation>
1

>  <PC+>
0

>  <PC->
0

>  <PEOE_PC+>
2.7583396

>  <PEOE_PC->
-2.7583396

>  <PEOE_RPC+>
0.12982963

>  <PEOE_RPC->
0.13031641

>  <PEOE_VSA+0>
88.406883

>  <PEOE_VSA+1>
58.847641

>  <PEOE_VSA+2>
6.6995511

>  <PEOE_VSA+3>
25.857038

>  <PEOE_VSA+4>
18.782692

>  <PEOE_VSA+5>
0

>  <PEOE_VSA+6>
19.199511

>  <PEOE_VSA-0>
41.986366

>  <PEOE_VSA-1>
0

>  <PEOE_VSA-2>
0

>  <PEOE_VSA-3>
0

>  <PEOE_VSA-4>
13.566921

>  <PEOE_VSA-5>
28.267481

>  <PEOE_VSA-6>
16.922417

>  <PEOE_VSA_FHYD>
0.69630164

>  <PEOE_VSA_FNEG>
0.31626889

>  <PEOE_VSA_FPNEG>
0.18445867

>  <PEOE_VSA_FPOL>
0.30369839

>  <PEOE_VSA_FPOS>
0.68373114

>  <PEOE_VSA_FPPOS>
0.11923972

>  <PEOE_VSA_HYD>
221.79749

>  <PEOE_VSA_NEG>
100.74319

>  <PEOE_VSA_PNEG>
58.756817

>  <PEOE_VSA_POL>
96.739021

>  <PEOE_VSA_POS>
217.79332

>  <PEOE_VSA_PPOS>
37.982204

>  <petitjean>
0.44444445

>  <petitjeanSC>
0.80000001

>  <Q_PC+>
0

>  <Q_PC->
0

>  <Q_RPC+>
0

>  <Q_RPC->
0

>  <Q_VSA_FHYD>
1

>  <Q_VSA_FNEG>
0

>  <Q_VSA_FPNEG>
0

>  <Q_VSA_FPOL>
0

>  <Q_VSA_FPOS>
1

>  <Q_VSA_FPPOS>
0

>  <Q_VSA_HYD>
318.5365

>  <Q_VSA_NEG>
0

>  <Q_VSA_PNEG>
0

>  <Q_VSA_POL>
0

>  <Q_VSA_POS>
318.5365

>  <Q_VSA_PPOS>
0

>  <radius>
5

>  <reactive>
1

>  <rings>
4

>  <RPC+>
0

>  <RPC->
0

>  <rsynth>
0.68000001

>  <SlogP>
-0.25903001

>  <SlogP_VSA0>
32.897186

>  <SlogP_VSA1>
22.009623

>  <SlogP_VSA2>
53.825928

>  <SlogP_VSA3>
64.75106

>  <SlogP_VSA4>
4.4107962

>  <SlogP_VSA5>
82.652382

>  <SlogP_VSA6>
0

>  <SlogP_VSA7>
31.671967

>  <SlogP_VSA8>
0

>  <SlogP_VSA9>
57.188232

>  <SMR>
8.5898895

>  <SMR_VSA0>
69.724205

>  <SMR_VSA1>
6.2486277

>  <SMR_VSA2>
61.467987

>  <SMR_VSA3>
22.335262

>  <SMR_VSA4>
32.897186

>  <SMR_VSA5>
0

>  <SMR_VSA6>
55.126831

>  <SMR_VSA7>
101.60707

>  <TPSA>
128.95

>  <VAdjEq>
0.43513325

>  <VAdjMa>
5.8073549

>  <VDistEq>
2.9350076

>  <VDistMa>
9.0573788

>  <vdw_area>
318.5365

>  <vdw_vol>
427.89108

>  <vsa_acc>
29.637598

>  <vsa_acid>
0

>  <vsa_base>
0

>  <vsa_don>
17.742489

>  <vsa_hyd>
176.50711

>  <vsa_other>
36.861336

>  <vsa_pol>
78.689499

>  <Weight>
348.35898

>  <weinerPath>
1243

>  <weinerPol>
51

>  <zagreb>
148

$$$$