S(=O)(=O)(N)c1cc(ccc1OC)C[C@H](NCCOc1ccccc1OCC)C
  MOE2013           2D

 28 29  0  0  1  0  0  0  0  0999 V2000
    0.0000    0.0000    0.0000 S   0  0  0  0  0  0  0  0  0  0  0  0
   -0.7410    1.3040    0.0000 O   0  0  0  0  0  0  0  0  0  0  0  0
    0.7410   -1.3040    0.0000 O   0  0  0  0  0  0  0  0  0  0  0  0
    1.3040    0.7410    0.0000 N   0  0  0  0  0  0  0  0  0  0  0  0
   -1.3040   -0.7410    0.0000 C   0  0  0  0  0  0  0  0  0  0  0  0
   -2.5980    0.0170    0.0000 C   0  0  0  0  0  0  0  0  0  0  0  0
   -3.9020   -0.7240    0.0000 C   0  0  0  0  0  0  0  0  0  0  0  0
   -3.9120   -2.2240    0.0000 C   0  0  0  0  0  0  0  0  0  0  0  0
   -2.6180   -2.9830    0.0000 C   0  0  0  0  0  0  0  0  0  0  0  0
   -1.3140   -2.2410    0.0000 C   0  0  0  0  0  0  0  0  0  0  0  0
   -0.0200   -3.0000    0.0000 O   0  0  0  0  0  0  0  0  0  0  0  0
   -0.0300   -4.5000    0.0000 C   0  0  0  0  0  0  0  0  0  0  0  0
   -5.1960    0.0350    0.0000 C   0  0  0  0  0  0  0  0  0  0  0  0
   -6.5000   -0.7070    0.0000 C   0  0  2  0  0  0  0  0  0  0  0  0
   -7.7940    0.0520    0.0000 N   0  0  0  0  0  0  0  0  0  0  0  0
   -9.0980   -0.6890    0.0000 C   0  0  0  0  0  0  0  0  0  0  0  0
  -10.3920    0.0690    0.0000 C   0  0  0  0  0  0  0  0  0  0  0  0
  -11.6960   -0.6720    0.0000 O   0  0  0  0  0  0  0  0  0  0  0  0
  -12.9900    0.0870    0.0000 C   0  0  0  0  0  0  0  0  0  0  0  0
  -12.9800    1.5870    0.0000 C   0  0  0  0  0  0  0  0  0  0  0  0
  -14.2740    2.3450    0.0000 C   0  0  0  0  0  0  0  0  0  0  0  0
  -15.5780    1.6040    0.0000 C   0  0  0  0  0  0  0  0  0  0  0  0
  -15.5880    0.1040    0.0000 C   0  0  0  0  0  0  0  0  0  0  0  0
  -14.2940   -0.6550    0.0000 C   0  0  0  0  0  0  0  0  0  0  0  0
  -14.3040   -2.1550    0.0000 O   0  0  0  0  0  0  0  0  0  0  0  0
  -15.6080   -2.8960    0.0000 C   0  0  0  0  0  0  0  0  0  0  0  0
  -15.6180   -4.3960    0.0000 C   0  0  0  0  0  0  0  0  0  0  0  0
   -6.5100   -2.2070    0.0000 C   0  0  0  0  0  0  0  0  0  0  0  0
  1  2  2  0  0  0  0
  1  3  2  0  0  0  0
  1  4  1  0  0  0  0
  1  5  1  0  0  0  0
  5  6  2  0  0  0  0
  5 10  1  0  0  0  0
  6  7  1  0  0  0  0
  7  8  2  0  0  0  0
  7 13  1  0  0  0  0
  8  9  1  0  0  0  0
  9 10  2  0  0  0  0
 10 11  1  0  0  0  0
 11 12  1  0  0  0  0
 13 14  1  0  0  0  0
 14 15  1  0  0  0  0
 14 28  1  1  0  0  0
 15 16  1  0  0  0  0
 16 17  1  0  0  0  0
 17 18  1  0  0  0  0
 18 19  1  0  0  0  0
 19 20  1  0  0  0  0
 19 24  2  0  0  0  0
 20 21  2  0  0  0  0
 21 22  1  0  0  0  0
 22 23  2  0  0  0  0
 23 24  1  0  0  0  0
 24 25  1  0  0  0  0
 25 26  1  0  0  0  0
 26 27  1  0  0  0  0
M  END
>  <Index>
1033

>  <ID>
HT1979

>  <class>
0

>  <apol>
62.980206

>  <ast_fraglike>
0

>  <ast_fraglike_ext>
0

>  <ast_violation>
2

>  <ast_violation_ext>
4

>  <a_acc>
5

>  <a_acid>
0

>  <a_aro>
12

>  <a_base>
0

>  <a_count>
56

>  <a_don>
2

>  <a_donacc>
7

>  <a_heavy>
28

>  <a_hyd>
20

>  <a_IC>
90.557739

>  <a_ICM>
1.6171024

>  <a_nB>
0

>  <a_nBr>
0

>  <a_nC>
20

>  <a_nCl>
0

>  <a_nF>
0

>  <a_nH>
28

>  <a_nI>
0

>  <a_nN>
2

>  <a_nO>
5

>  <a_nP>
0

>  <a_nS>
1

>  <balabanJ>
1.6732451

>  <BCUT_PEOE_0>
-2.6457319

>  <BCUT_PEOE_1>
-0.55734318

>  <BCUT_PEOE_2>
0.58820367

>  <BCUT_PEOE_3>
2.5783954

>  <BCUT_SLOGP_0>
-2.7909698

>  <BCUT_SLOGP_1>
-0.50999427

>  <BCUT_SLOGP_2>
0.65865433

>  <BCUT_SLOGP_3>
2.5428793

>  <BCUT_SMR_0>
-2.3749259

>  <BCUT_SMR_1>
-0.40585053

>  <BCUT_SMR_2>
0.72803909

>  <BCUT_SMR_3>
2.8453302

>  <bpol>
42.833797

>  <b_1rotN>
11

>  <b_1rotR>
0.37931034

>  <b_ar>
12

>  <b_count>
57

>  <b_double>
0

>  <b_heavy>
29

>  <b_max1len>
6

>  <b_rotN>
11

>  <b_rotR>
0.37931034

>  <b_single>
45

>  <b_triple>
0

>  <chi0>
20.570704

>  <chi0v>
17.290565

>  <chi0v_C>
12.947229

>  <chi0_C>
14.242276

>  <chi1>
13.345885

>  <chi1v>
10.671322

>  <chi1v_C>
6.1116428

>  <chi1_C>
7.7171102

>  <chiral>
1

>  <chiral_u>
0

>  <density>
0.75529742

>  <diameter>
16

>  <FCharge>
0

>  <GCUT_PEOE_0>
-0.84395099

>  <GCUT_PEOE_1>
-0.40043393

>  <GCUT_PEOE_2>
0.040445771

>  <GCUT_PEOE_3>
2.6536033

>  <GCUT_SLOGP_0>
-1.3483402

>  <GCUT_SLOGP_1>
-0.36008418

>  <GCUT_SLOGP_2>
0.13574275

>  <GCUT_SLOGP_3>
2.6963308

>  <GCUT_SMR_0>
-0.51875204

>  <GCUT_SMR_1>
-0.20212477

>  <GCUT_SMR_2>
0.15089495

>  <GCUT_SMR_3>
2.9052253

>  <Kier1>
24.271107

>  <Kier2>
12

>  <Kier3>
7.9867673

>  <KierA1>
21.554678

>  <KierA2>
10.608004

>  <KierA3>
7.0372243

>  <KierFlex>
8.1661463

>  <lip_acc>
7

>  <lip_don>
3

>  <lip_druglike>
1

>  <lip_violation>
0

>  <logP(o/w)>
2.27474

>  <logS>
-4.01336

>  <mr>
11.072886

>  <mutagenic>
0

>  <nmol>
1

>  <opr_brigid>
12

>  <opr_leadlike>
1

>  <opr_nring>
2

>  <opr_nrot>
11

>  <opr_violation>
1

>  <PC+>
0

>  <PC->
0

>  <PEOE_PC+>
2.3904636

>  <PEOE_PC->
-2.3904636

>  <PEOE_RPC+>
0.13044176

>  <PEOE_RPC->
0.14323303

>  <PEOE_VSA+0>
127.85373

>  <PEOE_VSA+1>
89.617989

>  <PEOE_VSA+2>
25.536053

>  <PEOE_VSA+3>
8.458519

>  <PEOE_VSA+4>
0

>  <PEOE_VSA+5>
0

>  <PEOE_VSA+6>
4.1846013

>  <PEOE_VSA-0>
85.169922

>  <PEOE_VSA-1>
36.764713

>  <PEOE_VSA-2>
0

>  <PEOE_VSA-3>
9.0437498

>  <PEOE_VSA-4>
32.016521

>  <PEOE_VSA-5>
0

>  <PEOE_VSA-6>
7.6481595

>  <PEOE_VSA_FHYD>
0.89713836

>  <PEOE_VSA_FNEG>
0.40029436

>  <PEOE_VSA_FPNEG>
0.093045376

>  <PEOE_VSA_FPOL>
0.10286161

>  <PEOE_VSA_FPOS>
0.59970564

>  <PEOE_VSA_FPPOS>
0.009816234

>  <PEOE_VSA_HYD>
382.44467

>  <PEOE_VSA_NEG>
170.64307

>  <PEOE_VSA_PNEG>
39.664684

>  <PEOE_VSA_POL>
43.849285

>  <PEOE_VSA_POS>
255.65089

>  <PEOE_VSA_PPOS>
4.1846013

>  <petitjean>
0.5

>  <petitjeanSC>
1

>  <Q_PC+>
0

>  <Q_PC->
0

>  <Q_RPC+>
0

>  <Q_RPC->
0

>  <Q_VSA_FHYD>
1

>  <Q_VSA_FNEG>
0

>  <Q_VSA_FPNEG>
0

>  <Q_VSA_FPOL>
0

>  <Q_VSA_FPOS>
1

>  <Q_VSA_FPPOS>
0

>  <Q_VSA_HYD>
426.29395

>  <Q_VSA_NEG>
0

>  <Q_VSA_PNEG>
0

>  <Q_VSA_POL>
0

>  <Q_VSA_POS>
426.29395

>  <Q_VSA_PPOS>
0

>  <radius>
8

>  <reactive>
0

>  <rings>
2

>  <RPC+>
0

>  <RPC->
0

>  <rsynth>
1

>  <SlogP>
2.3408699

>  <SlogP_VSA0>
82.301849

>  <SlogP_VSA1>
48.171688

>  <SlogP_VSA2>
10.622711

>  <SlogP_VSA3>
60.292095

>  <SlogP_VSA4>
3.185575

>  <SlogP_VSA5>
55.803009

>  <SlogP_VSA6>
0

>  <SlogP_VSA7>
123.50229

>  <SlogP_VSA8>
0

>  <SlogP_VSA9>
82.382317

>  <SMR>
10.86419

>  <SMR_VSA0>
48.171688

>  <SMR_VSA1>
32.999664

>  <SMR_VSA2>
19.561485

>  <SMR_VSA3>
22.897827

>  <SMR_VSA4>
31.291433

>  <SMR_VSA5>
142.3707

>  <SMR_VSA6>
60.292095

>  <SMR_VSA7>
108.67664

>  <TPSA>
99.879997

>  <VAdjEq>
0.38060221

>  <VAdjMa>
5.8579812

>  <VDistEq>
3.8147502

>  <VDistMa>
9.2833891

>  <vdw_area>
426.29395

>  <vdw_vol>
540.8717

>  <vsa_acc>
37.024036

>  <vsa_acid>
0

>  <vsa_base>
0

>  <vsa_don>
20.13512

>  <vsa_hyd>
323.828

>  <vsa_other>
12.609365

>  <vsa_pol>
62.841732

>  <Weight>
408.51898

>  <weinerPath>
2488

>  <weinerPol>
40

>  <zagreb>
136

$$$$