O(CC=1NCCN=1)c1cc(ccc1C(C)C)C
  MOE2013           2D

 17 18  0  0  0  0  0  0  0  0999 V2000
    0.0000    0.0000    0.0000 O   0  0  0  0  0  0  0  0  0  0  0  0
    0.7520    1.2980    0.0000 C   0  0  0  0  0  0  0  0  0  0  0  0
    2.2520    1.2960    0.0000 C   0  0  0  0  0  0  0  0  0  0  0  0
    3.1350    2.5090    0.0000 N   0  0  0  0  0  0  0  0  0  0  0  0
    4.5610    2.0440    0.0000 C   0  0  0  0  0  0  0  0  0  0  0  0
    4.5590    0.5440    0.0000 C   0  0  0  0  0  0  0  0  0  0  0  0
    3.1320    0.0820    0.0000 N   0  0  0  0  0  0  0  0  0  0  0  0
   -1.5000    0.0020    0.0000 C   0  0  0  0  0  0  0  0  0  0  0  0
   -2.2480    1.3020    0.0000 C   0  0  0  0  0  0  0  0  0  0  0  0
   -3.7480    1.3040    0.0000 C   0  0  0  0  0  0  0  0  0  0  0  0
   -4.5000    0.0050    0.0000 C   0  0  0  0  0  0  0  0  0  0  0  0
   -3.7520   -1.2950    0.0000 C   0  0  0  0  0  0  0  0  0  0  0  0
   -2.2520   -1.2960    0.0000 C   0  0  0  0  0  0  0  0  0  0  0  0
   -1.5030   -2.5960    0.0000 C   0  0  0  0  0  0  0  0  0  0  0  0
   -2.2550   -3.8940    0.0000 C   0  0  0  0  0  0  0  0  0  0  0  0
   -0.0030   -2.5980    0.0000 C   0  0  0  0  0  0  0  0  0  0  0  0
   -4.4970    2.6040    0.0000 C   0  0  0  0  0  0  0  0  0  0  0  0
  1  2  1  0  0  0  0
  1  8  1  0  0  0  0
  2  3  1  0  0  0  0
  3  4  1  0  0  0  0
  3  7  2  0  0  0  0
  4  5  1  0  0  0  0
  5  6  1  0  0  0  0
  6  7  1  0  0  0  0
  8  9  1  0  0  0  0
  8 13  2  0  0  0  0
  9 10  2  0  0  0  0
 10 11  1  0  0  0  0
 10 17  1  0  0  0  0
 11 12  2  0  0  0  0
 12 13  1  0  0  0  0
 13 14  1  0  0  0  0
 14 15  1  0  0  0  0
 14 16  1  0  0  0  0
M  END
>  <Index>
1123

>  <ID>
HT2147

>  <class>
0

>  <apol>
40.977859

>  <ast_fraglike>
1

>  <ast_fraglike_ext>
0

>  <ast_violation>
0

>  <ast_violation_ext>
1

>  <a_acc>
2

>  <a_acid>
0

>  <a_aro>
6

>  <a_base>
0

>  <a_count>
37

>  <a_don>
1

>  <a_donacc>
3

>  <a_heavy>
17

>  <a_hyd>
13

>  <a_IC>
51.008244

>  <a_ICM>
1.3786012

>  <a_nB>
0

>  <a_nBr>
0

>  <a_nC>
14

>  <a_nCl>
0

>  <a_nF>
0

>  <a_nH>
20

>  <a_nI>
0

>  <a_nN>
2

>  <a_nO>
1

>  <a_nP>
0

>  <a_nS>
0

>  <balabanJ>
1.8218055

>  <BCUT_PEOE_0>
-2.5407124

>  <BCUT_PEOE_1>
-0.39048824

>  <BCUT_PEOE_2>
0.35812804

>  <BCUT_PEOE_3>
2.5131857

>  <BCUT_SLOGP_0>
-2.6325786

>  <BCUT_SLOGP_1>
-0.30157572

>  <BCUT_SLOGP_2>
0.42857826

>  <BCUT_SLOGP_3>
2.6574938

>  <BCUT_SMR_0>
-2.2801492

>  <BCUT_SMR_1>
-0.13114011

>  <BCUT_SMR_2>
0.53771603

>  <BCUT_SMR_3>
2.7918382

>  <bpol>
25.760139

>  <b_1rotN>
4

>  <b_1rotR>
0.22222222

>  <b_ar>
6

>  <b_count>
38

>  <b_double>
1

>  <b_heavy>
18

>  <b_max1len>
4

>  <b_rotN>
4

>  <b_rotR>
0.22222222

>  <b_single>
31

>  <b_triple>
0

>  <chi0>
12.250712

>  <chi0v>
10.786183

>  <chi0v_C>
9.4307213

>  <chi0_C>
10.129392

>  <chi1>
8.1647034

>  <chi1v>
6.1711502

>  <chi1v_C>
4.5349631

>  <chi1_C>
5.439959

>  <chiral>
0

>  <chiral_u>
0

>  <density>
0.66990149

>  <diameter>
8

>  <FCharge>
0

>  <GCUT_PEOE_0>
-0.85913193

>  <GCUT_PEOE_1>
-0.39142063

>  <GCUT_PEOE_2>
0.00066954346

>  <GCUT_PEOE_3>
2.4992356

>  <GCUT_SLOGP_0>
-1.1669626

>  <GCUT_SLOGP_1>
-0.30532077

>  <GCUT_SLOGP_2>
0.074473441

>  <GCUT_SLOGP_3>
2.6118634

>  <GCUT_SMR_0>
-0.5185501

>  <GCUT_SMR_1>
-0.14070842

>  <GCUT_SMR_2>
0.13911569

>  <GCUT_SMR_3>
2.7708178

>  <Kier1>
13.432098

>  <Kier2>
6.25

>  <Kier3>
3.7288942

>  <KierA1>
10.575954

>  <KierA2>
4.841444

>  <KierA3>
2.851126

>  <KierFlex>
3.011935

>  <lip_acc>
3

>  <lip_don>
1

>  <lip_druglike>
1

>  <lip_violation>
0

>  <logP(o/w)>
2.497

>  <logS>
-3.5162699

>  <mr>
6.9772692

>  <mutagenic>
0

>  <nmol>
1

>  <opr_brigid>
11

>  <opr_leadlike>
1

>  <opr_nring>
2

>  <opr_nrot>
4

>  <opr_violation>
0

>  <PC+>
0

>  <PC->
0

>  <PEOE_PC+>
1.3550727

>  <PEOE_PC->
-1.3550727

>  <PEOE_RPC+>
0.11871234

>  <PEOE_RPC->
0.27284035

>  <PEOE_VSA+0>
55.846184

>  <PEOE_VSA+1>
60.039318

>  <PEOE_VSA+2>
26.141855

>  <PEOE_VSA+3>
8.6190128

>  <PEOE_VSA+4>
0

>  <PEOE_VSA+5>
0

>  <PEOE_VSA+6>
0

>  <PEOE_VSA-0>
35.419662

>  <PEOE_VSA-1>
62.005161

>  <PEOE_VSA-2>
0

>  <PEOE_VSA-3>
0

>  <PEOE_VSA-4>
0

>  <PEOE_VSA-5>
5.6825762

>  <PEOE_VSA-6>
2.6406472

>  <PEOE_VSA_FHYD>
0.9675374

>  <PEOE_VSA_FNEG>
0.41244286

>  <PEOE_VSA_FPNEG>
0.032462575

>  <PEOE_VSA_FPOL>
0.032462575

>  <PEOE_VSA_FPOS>
0.58755714

>  <PEOE_VSA_FPPOS>
0

>  <PEOE_VSA_HYD>
248.0712

>  <PEOE_VSA_NEG>
105.74805

>  <PEOE_VSA_PNEG>
8.3232231

>  <PEOE_VSA_POL>
8.3232231

>  <PEOE_VSA_POS>
150.64638

>  <PEOE_VSA_PPOS>
0

>  <petitjean>
0.5

>  <petitjeanSC>
1

>  <Q_PC+>
0

>  <Q_PC->
0

>  <Q_RPC+>
0

>  <Q_RPC->
0

>  <Q_VSA_FHYD>
1

>  <Q_VSA_FNEG>
0

>  <Q_VSA_FPNEG>
0

>  <Q_VSA_FPOL>
0

>  <Q_VSA_FPOS>
1

>  <Q_VSA_FPPOS>
0

>  <Q_VSA_HYD>
256.39441

>  <Q_VSA_NEG>
0

>  <Q_VSA_PNEG>
0

>  <Q_VSA_POL>
0

>  <Q_VSA_POS>
256.39441

>  <Q_VSA_PPOS>
0

>  <radius>
4

>  <reactive>
0

>  <rings>
2

>  <RPC+>
0

>  <RPC->
0

>  <rsynth>
1

>  <SlogP>
2.49892

>  <SlogP_VSA0>
29.010639

>  <SlogP_VSA1>
2.3279202

>  <SlogP_VSA2>
0

>  <SlogP_VSA3>
57.805416

>  <SlogP_VSA4>
6.37115

>  <SlogP_VSA5>
16.78553

>  <SlogP_VSA6>
4.4107962

>  <SlogP_VSA7>
52.929554

>  <SlogP_VSA8>
0

>  <SlogP_VSA9>
105.22147

>  <SMR>
7.10677

>  <SMR_VSA0>
0

>  <SMR_VSA1>
27.785418

>  <SMR_VSA2>
18.01075

>  <SMR_VSA3>
16.025373

>  <SMR_VSA4>
0

>  <SMR_VSA5>
52.929554

>  <SMR_VSA6>
60.133335

>  <SMR_VSA7>
99.978043

>  <TPSA>
33.619999

>  <VAdjEq>
0.54234898

>  <VAdjMa>
5.1699252

>  <VDistEq>
2.9451833

>  <VDistMa>
7.8732357

>  <vdw_area>
256.39441

>  <vdw_vol>
346.80771

>  <vsa_acc>
8.1863317

>  <vsa_acid>
0

>  <vsa_base>
0

>  <vsa_don>
5.6825762

>  <vsa_hyd>
213.39246

>  <vsa_other>
11.190562

>  <vsa_pol>
13.868908

>  <Weight>
232.327

>  <weinerPath>
543

>  <weinerPol>
21

>  <zagreb>
84

$$$$