C1CCC(C)=C(C=CC(=CC=CC(=CC=CC=C(C=CC=C(C=CC=2C(CCCC=2C)(C)C)/C)/C)C)C)C1(C)C
  MOE2013           2D

 40 41  0  0  0  0  0  0  0  0999 V2000
    0.0000    0.0000    0.0000 C   0  0  0  0  0  0  0  0  0  0  0  0
    0.7440   -1.3020    0.0000 C   0  0  0  0  0  0  0  0  0  0  0  0
   -0.0120   -2.5980    0.0000 C   0  0  0  0  0  0  0  0  0  0  0  0
   -1.5120   -2.5910    0.0000 C   0  0  0  0  0  0  0  0  0  0  0  0
   -2.2680   -3.8870    0.0000 C   0  0  0  0  0  0  0  0  0  0  0  0
   -2.2560   -1.2890    0.0000 C   0  0  0  0  0  0  0  0  0  0  0  0
   -3.7560   -1.2820    0.0000 C   0  0  0  0  0  0  0  0  0  0  0  0
   -4.5120   -2.5770    0.0000 C   0  0  0  0  0  0  0  0  0  0  0  0
   -6.0120   -2.5700    0.0000 C   0  0  0  0  0  0  0  0  0  0  0  0
   -6.7560   -1.2680    0.0000 C   0  0  0  0  0  0  0  0  0  0  0  0
   -8.2560   -1.2610    0.0000 C   0  0  0  0  0  0  0  0  0  0  0  0
   -9.0000    0.0410    0.0000 C   0  0  0  0  0  0  0  0  0  0  0  0
  -10.5000    0.0480    0.0000 C   0  0  0  0  0  0  0  0  0  0  0  0
  -11.2560   -1.2470    0.0000 C   0  0  0  0  0  0  0  0  0  0  0  0
  -12.7560   -1.2400    0.0000 C   0  0  0  0  0  0  0  0  0  0  0  0
  -13.5120   -2.5360    0.0000 C   0  0  0  0  0  0  0  0  0  0  0  0
  -15.0120   -2.5290    0.0000 C   0  0  0  0  0  0  0  0  0  0  0  0
  -15.7680   -3.8250    0.0000 C   0  0  0  0  0  0  0  0  0  0  0  0
  -17.2680   -3.8180    0.0000 C   0  0  0  0  0  0  0  0  0  0  0  0
  -18.0240   -5.1130    0.0000 C   0  0  0  0  0  0  0  0  0  0  0  0
  -19.5240   -5.1060    0.0000 C   0  0  0  0  0  0  0  0  0  0  0  0
  -20.2800   -6.4020    0.0000 C   0  0  0  0  0  0  0  0  0  0  0  0
  -21.7800   -6.3950    0.0000 C   0  0  0  0  0  0  0  0  0  0  0  0
  -22.5360   -7.6910    0.0000 C   0  0  0  0  0  0  0  0  0  0  0  0
  -24.0360   -7.6840    0.0000 C   0  0  0  0  0  0  0  0  0  0  0  0
  -24.7920   -8.9790    0.0000 C   0  0  0  0  0  0  0  0  0  0  0  0
  -26.2920   -8.9720    0.0000 C   0  0  0  0  0  0  0  0  0  0  0  0
  -27.0360   -7.6700    0.0000 C   0  0  0  0  0  0  0  0  0  0  0  0
  -26.2800   -6.3740    0.0000 C   0  0  0  0  0  0  0  0  0  0  0  0
  -24.7800   -6.3810    0.0000 C   0  0  0  0  0  0  0  0  0  0  0  0
  -24.0240   -5.0860    0.0000 C   0  0  0  0  0  0  0  0  0  0  0  0
  -24.7980  -10.4790    0.0000 C   0  0  0  0  0  0  0  0  0  0  0  0
  -23.4960   -9.7350    0.0000 C   0  0  0  0  0  0  0  0  0  0  0  0
  -19.5360   -7.7040    0.0000 C   0  0  0  0  0  0  0  0  0  0  0  0
  -15.0240   -5.1270    0.0000 C   0  0  0  0  0  0  0  0  0  0  0  0
  -11.2440    1.3510    0.0000 C   0  0  0  0  0  0  0  0  0  0  0  0
   -6.7680   -3.8660    0.0000 C   0  0  0  0  0  0  0  0  0  0  0  0
   -1.5000    0.0070    0.0000 C   0  0  0  0  0  0  0  0  0  0  0  0
   -2.7960    0.7630    0.0000 C   0  0  0  0  0  0  0  0  0  0  0  0
   -1.4930    1.5070    0.0000 C   0  0  0  0  0  0  0  0  0  0  0  0
  1  2  1  0  0  0  0
  1 38  1  0  0  0  0
  2  3  1  0  0  0  0
  3  4  1  0  0  0  0
  4  5  1  0  0  0  0
  4  6  2  0  0  0  0
  6  7  1  0  0  0  0
  6 38  1  0  0  0  0
  7  8  2  3  0  0  0
  8  9  1  0  0  0  0
  9 10  2  3  0  0  0
  9 37  1  0  0  0  0
 10 11  1  0  0  0  0
 11 12  2  3  0  0  0
 12 13  1  0  0  0  0
 13 14  2  3  0  0  0
 13 36  1  0  0  0  0
 14 15  1  0  0  0  0
 15 16  2  3  0  0  0
 16 17  1  0  0  0  0
 17 18  2  3  0  0  0
 18 19  1  0  0  0  0
 18 35  1  0  0  0  0
 19 20  2  3  0  0  0
 20 21  1  0  0  0  0
 21 22  2  3  0  0  0
 22 23  1  0  0  0  0
 22 34  1  0  0  0  0
 23 24  2  3  0  0  0
 24 25  1  0  0  0  0
 25 26  1  0  0  0  0
 25 30  2  0  0  0  0
 26 27  1  0  0  0  0
 26 32  1  0  0  0  0
 26 33  1  0  0  0  0
 27 28  1  0  0  0  0
 28 29  1  0  0  0  0
 29 30  1  0  0  0  0
 30 31  1  0  0  0  0
 38 39  1  0  0  0  0
 38 40  1  0  0  0  0
M  END
>  <Index>
132

>  <ID>
HT0267

>  <class>
0

>  <apol>
107.74041

>  <ast_fraglike>
0

>  <ast_fraglike_ext>
0

>  <ast_violation>
2

>  <ast_violation_ext>
3

>  <a_acc>
0

>  <a_acid>
0

>  <a_aro>
0

>  <a_base>
0

>  <a_count>
96

>  <a_don>
0

>  <a_donacc>
0

>  <a_heavy>
40

>  <a_hyd>
40

>  <a_IC>
94.067398

>  <a_ICM>
0.97986877

>  <a_nB>
0

>  <a_nBr>
0

>  <a_nC>
40

>  <a_nCl>
0

>  <a_nF>
0

>  <a_nH>
56

>  <a_nI>
0

>  <a_nN>
0

>  <a_nO>
0

>  <a_nP>
0

>  <a_nS>
0

>  <balabanJ>
1.4618156

>  <BCUT_PEOE_0>
-2.7535243

>  <BCUT_PEOE_1>
-0.17120695

>  <BCUT_PEOE_2>
0.19314395

>  <BCUT_PEOE_3>
2.6964064

>  <BCUT_SLOGP_0>
-2.6118655

>  <BCUT_SLOGP_1>
-0.052189425

>  <BCUT_SLOGP_2>
0.29865205

>  <BCUT_SLOGP_3>
2.8409042

>  <BCUT_SMR_0>
-2.4876893

>  <BCUT_SMR_1>
-0.035180047

>  <BCUT_SMR_2>
0.37291282

>  <BCUT_SMR_3>
2.9671443

>  <bpol>
61.219593

>  <b_1rotN>
10

>  <b_1rotR>
0.24390244

>  <b_ar>
0

>  <b_count>
97

>  <b_double>
11

>  <b_heavy>
41

>  <b_max1len>
4

>  <b_rotN>
10

>  <b_rotR>
0.24390244

>  <b_single>
86

>  <b_triple>
0

>  <chi0>
29.760939

>  <chi0v>
27.325544

>  <chi0v_C>
27.325544

>  <chi0_C>
29.760939

>  <chi1>
18.814205

>  <chi1v>
15.300965

>  <chi1v_C>
15.300965

>  <chi1_C>
18.814205

>  <chiral>
0

>  <chiral_u>
0

>  <density>
0.59763634

>  <diameter>
25

>  <FCharge>
0

>  <GCUT_PEOE_0>
-0.79080355

>  <GCUT_PEOE_1>
-0.30077279

>  <GCUT_PEOE_2>
-0.083476074

>  <GCUT_PEOE_3>
2.8248346

>  <GCUT_SLOGP_0>
-0.6776135

>  <GCUT_SLOGP_1>
-0.1864482

>  <GCUT_SLOGP_2>
0.013867032

>  <GCUT_SLOGP_3>
2.9778595

>  <GCUT_SMR_0>
-0.52746993

>  <GCUT_SMR_1>
-0.1008599

>  <GCUT_SMR_2>
0.048027325

>  <GCUT_SMR_3>
3.0909703

>  <Kier1>
36.192741

>  <Kier2>
17.957909

>  <Kier3>
13.461326

>  <KierA1>
28.856955

>  <KierA2>
14.23035

>  <KierA3>
10.621502

>  <KierFlex>
10.266114

>  <lip_acc>
0

>  <lip_don>
0

>  <lip_druglike>
0

>  <lip_violation>
2

>  <logP(o/w)>
17.438

>  <logS>
-17.999161

>  <mr>
17.560793

>  <mutagenic>
0

>  <nmol>
1

>  <opr_brigid>
21

>  <opr_leadlike>
0

>  <opr_nring>
2

>  <opr_nrot>
12

>  <opr_violation>
3

>  <PC+>
0

>  <PC->
0

>  <PEOE_PC+>
1.9918017

>  <PEOE_PC->
-1.9918017

>  <PEOE_RPC+>
0.031154372

>  <PEOE_RPC->
0.034608375

>  <PEOE_VSA+0>
179.14621

>  <PEOE_VSA+1>
59.715405

>  <PEOE_VSA+2>
0

>  <PEOE_VSA+3>
0

>  <PEOE_VSA+4>
0

>  <PEOE_VSA+5>
0

>  <PEOE_VSA+6>
0

>  <PEOE_VSA-0>
169.11102

>  <PEOE_VSA-1>
259.81061

>  <PEOE_VSA-2>
0

>  <PEOE_VSA-3>
0

>  <PEOE_VSA-4>
0

>  <PEOE_VSA-5>
0

>  <PEOE_VSA-6>
0

>  <PEOE_VSA_FHYD>
1

>  <PEOE_VSA_FNEG>
0.64230669

>  <PEOE_VSA_FPNEG>
0

>  <PEOE_VSA_FPOL>
0

>  <PEOE_VSA_FPOS>
0.35769334

>  <PEOE_VSA_FPPOS>
0

>  <PEOE_VSA_HYD>
667.78326

>  <PEOE_VSA_NEG>
428.92163

>  <PEOE_VSA_PNEG>
0

>  <PEOE_VSA_POL>
0

>  <PEOE_VSA_POS>
238.86162

>  <PEOE_VSA_PPOS>
0

>  <petitjean>
0.47999999

>  <petitjeanSC>
0.92307693

>  <Q_PC+>
0

>  <Q_PC->
0

>  <Q_RPC+>
0

>  <Q_RPC->
0

>  <Q_VSA_FHYD>
1

>  <Q_VSA_FNEG>
0

>  <Q_VSA_FPNEG>
0

>  <Q_VSA_FPOL>
0

>  <Q_VSA_FPOS>
1

>  <Q_VSA_FPPOS>
0

>  <Q_VSA_HYD>
667.78326

>  <Q_VSA_NEG>
0

>  <Q_VSA_PNEG>
0

>  <Q_VSA_POL>
0

>  <Q_VSA_POS>
667.78326

>  <Q_VSA_PPOS>
0

>  <radius>
13

>  <reactive>
0

>  <rings>
2

>  <RPC+>
0

>  <RPC->
0

>  <rsynth>
0

>  <SlogP>
12.6058

>  <SlogP_VSA0>
0

>  <SlogP_VSA1>
0

>  <SlogP_VSA2>
0

>  <SlogP_VSA3>
0

>  <SlogP_VSA4>
0

>  <SlogP_VSA5>
25.4846

>  <SlogP_VSA6>
0

>  <SlogP_VSA7>
247.00458

>  <SlogP_VSA8>
113.21043

>  <SlogP_VSA9>
333.26016

>  <SMR>
18.1392

>  <SMR_VSA0>
0

>  <SMR_VSA1>
0

>  <SMR_VSA2>
0

>  <SMR_VSA3>
25.4846

>  <SMR_VSA4>
0

>  <SMR_VSA5>
360.21503

>  <SMR_VSA6>
0

>  <SMR_VSA7>
333.26016

>  <TPSA>
0

>  <VAdjEq>
0.29168332

>  <VAdjMa>
6.3575521

>  <VDistEq>
4.4930477

>  <VDistMa>
10.282134

>  <vdw_area>
667.78326

>  <vdw_vol>
898.35229

>  <vsa_acc>
0

>  <vsa_acid>
0

>  <vsa_base>
0

>  <vsa_don>
0

>  <vsa_hyd>
627.92273

>  <vsa_other>
0

>  <vsa_pol>
0

>  <Weight>
536.888

>  <weinerPath>
7984

>  <weinerPol>
57

>  <zagreb>
194

$$$$