O(C1CCCCC1)c1ccc(cc1)C(OCCCN1CCCCC1C)=O
  MOE2013           2D

 26 28  0  0  1  0  0  0  0  0999 V2000
    0.0000    0.0000    0.0000 O   0  0  0  0  0  0  0  0  0  0  0  0
    1.2990    0.7500    0.0000 C   0  0  0  0  0  0  0  0  0  0  0  0
    1.2980    2.2500    0.0000 C   0  0  0  0  0  0  0  0  0  0  0  0
    2.5970    3.0010    0.0000 C   0  0  0  0  0  0  0  0  0  0  0  0
    3.8960    2.2510    0.0000 C   0  0  0  0  0  0  0  0  0  0  0  0
    3.8970    0.7510    0.0000 C   0  0  0  0  0  0  0  0  0  0  0  0
    2.5980    0.0010    0.0000 C   0  0  0  0  0  0  0  0  0  0  0  0
   -1.2990    0.7500    0.0000 C   0  0  0  0  0  0  0  0  0  0  0  0
   -2.5980   -0.0010    0.0000 C   0  0  0  0  0  0  0  0  0  0  0  0
   -3.8970    0.7490    0.0000 C   0  0  0  0  0  0  0  0  0  0  0  0
   -3.8980    2.2490    0.0000 C   0  0  0  0  0  0  0  0  0  0  0  0
   -2.5990    2.9990    0.0000 C   0  0  0  0  0  0  0  0  0  0  0  0
   -1.3000    2.2500    0.0000 C   0  0  0  0  0  0  0  0  0  0  0  0
   -5.1970    2.9980    0.0000 C   0  0  0  0  0  0  0  0  0  0  0  0
   -6.4960    2.2480    0.0000 O   0  0  0  0  0  0  0  0  0  0  0  0
   -7.7950    2.9970    0.0000 C   0  0  0  0  0  0  0  0  0  0  0  0
   -9.0940    2.2470    0.0000 C   0  0  0  0  0  0  0  0  0  0  0  0
  -10.3930    2.9960    0.0000 C   0  0  0  0  0  0  0  0  0  0  0  0
  -11.6920    2.2460    0.0000 N   0  0  3  0  0  0  0  0  0  0  0  0
  -11.6920    0.7460    0.0000 C   0  0  0  0  0  0  0  0  0  0  0  0
  -12.9900   -0.0050    0.0000 C   0  0  0  0  0  0  0  0  0  0  0  0
  -14.2900    0.7450    0.0000 C   0  0  0  0  0  0  0  0  0  0  0  0
  -14.2900    2.2450    0.0000 C   0  0  0  0  0  0  0  0  0  0  0  0
  -12.9910    2.9950    0.0000 C   0  0  3  0  0  0  0  0  0  0  0  0
  -12.9920    4.4950    0.0000 C   0  0  0  0  0  0  0  0  0  0  0  0
   -5.1980    4.4980    0.0000 O   0  0  0  0  0  0  0  0  0  0  0  0
  1  2  1  0  0  0  0
  1  8  1  0  0  0  0
  2  3  1  0  0  0  0
  2  7  1  0  0  0  0
  3  4  1  0  0  0  0
  4  5  1  0  0  0  0
  5  6  1  0  0  0  0
  6  7  1  0  0  0  0
  8  9  1  0  0  0  0
  8 13  2  0  0  0  0
  9 10  2  0  0  0  0
 10 11  1  0  0  0  0
 11 12  2  0  0  0  0
 11 14  1  0  0  0  0
 12 13  1  0  0  0  0
 14 15  1  0  0  0  0
 14 26  2  0  0  0  0
 15 16  1  0  0  0  0
 16 17  1  0  0  0  0
 17 18  1  0  0  0  0
 18 19  1  0  0  0  0
 19 20  1  0  0  0  0
 19 24  1  0  0  0  0
 20 21  1  0  0  0  0
 21 22  1  0  0  0  0
 22 23  1  0  0  0  0
 23 24  1  0  0  0  0
 24 25  1  0  0  0  0
M  END
>  <Index>
1358

>  <ID>
HT3639

>  <class>
0

>  <apol>
64.230171

>  <ast_fraglike>
0

>  <ast_fraglike_ext>
0

>  <ast_violation>
2

>  <ast_violation_ext>
3

>  <a_acc>
3

>  <a_acid>
0

>  <a_aro>
6

>  <a_base>
0

>  <a_count>
59

>  <a_don>
0

>  <a_donacc>
3

>  <a_heavy>
26

>  <a_hyd>
21

>  <a_IC>
77.74855

>  <a_ICM>
1.317772

>  <a_nB>
0

>  <a_nBr>
0

>  <a_nC>
22

>  <a_nCl>
0

>  <a_nF>
0

>  <a_nH>
33

>  <a_nI>
0

>  <a_nN>
1

>  <a_nO>
3

>  <a_nP>
0

>  <a_nS>
0

>  <balabanJ>
1.2546824

>  <BCUT_PEOE_0>
-2.8172138

>  <BCUT_PEOE_1>
-0.55608559

>  <BCUT_PEOE_2>
0.60017675

>  <BCUT_PEOE_3>
2.7285764

>  <BCUT_SLOGP_0>
-2.8239586

>  <BCUT_SLOGP_1>
-0.46927035

>  <BCUT_SLOGP_2>
0.70709133

>  <BCUT_SLOGP_3>
2.8338375

>  <BCUT_SMR_0>
-2.5452483

>  <BCUT_SMR_1>
-0.40999109

>  <BCUT_SMR_2>
0.75389421

>  <BCUT_SMR_3>
2.9952469

>  <bpol>
42.845833

>  <b_1rotN>
7

>  <b_1rotR>
0.25

>  <b_ar>
6

>  <b_count>
61

>  <b_double>
1

>  <b_heavy>
28

>  <b_max1len>
4

>  <b_rotN>
8

>  <b_rotR>
0.2857143

>  <b_single>
54

>  <b_triple>
0

>  <chi0>
18.192024

>  <chi0v>
16.121342

>  <chi0v_C>
14.449383

>  <chi0_C>
15.200459

>  <chi1>
12.720346

>  <chi1v>
10.400867

>  <chi1v_C>
8.3734627

>  <chi1_C>
9.2684212

>  <chiral>
1

>  <chiral_u>
1

>  <density>
0.67532748

>  <diameter>
17

>  <FCharge>
0

>  <GCUT_PEOE_0>
-0.85575736

>  <GCUT_PEOE_1>
-0.37702215

>  <GCUT_PEOE_2>
0.034651347

>  <GCUT_PEOE_3>
2.7387409

>  <GCUT_SLOGP_0>
-0.9524253

>  <GCUT_SLOGP_1>
-0.26914644

>  <GCUT_SLOGP_2>
0.14180283

>  <GCUT_SLOGP_3>
2.8034518

>  <GCUT_SMR_0>
-0.52734089

>  <GCUT_SMR_1>
-0.19910058

>  <GCUT_SMR_2>
0.1563718

>  <GCUT_SMR_3>
2.9729917

>  <Kier1>
20.727041

>  <Kier2>
11.111111

>  <Kier3>
6.8429751

>  <KierA1>
18.186718

>  <KierA2>
9.6958389

>  <KierA3>
5.9479103

>  <KierFlex>
6.7821341

>  <lip_acc>
4

>  <lip_don>
0

>  <lip_druglike>
1

>  <lip_violation>
0

>  <logP(o/w)>
5.5370002

>  <logS>
-4.4691501

>  <mr>
10.54036

>  <mutagenic>
0

>  <nmol>
1

>  <opr_brigid>
18

>  <opr_leadlike>
0

>  <opr_nring>
3

>  <opr_nrot>
11

>  <opr_violation>
2

>  <PC+>
0

>  <PC->
0

>  <PEOE_PC+>
1.7674427

>  <PEOE_PC->
-1.7674427

>  <PEOE_RPC+>
0.16623557

>  <PEOE_RPC->
0.19320631

>  <PEOE_VSA+0>
129.44685

>  <PEOE_VSA+1>
58.172443

>  <PEOE_VSA+2>
0

>  <PEOE_VSA+3>
0

>  <PEOE_VSA+4>
0

>  <PEOE_VSA+5>
14.708499

>  <PEOE_VSA+6>
0

>  <PEOE_VSA-0>
124.46619

>  <PEOE_VSA-1>
34.805252

>  <PEOE_VSA-2>
0

>  <PEOE_VSA-3>
0

>  <PEOE_VSA-4>
0

>  <PEOE_VSA-5>
13.566921

>  <PEOE_VSA-6>
5.0075121

>  <PEOE_VSA_FHYD>
0.91245335

>  <PEOE_VSA_FNEG>
0.46780166

>  <PEOE_VSA_FPNEG>
0.048857756

>  <PEOE_VSA_FPOL>
0.087546654

>  <PEOE_VSA_FPOS>
0.53219837

>  <PEOE_VSA_FPPOS>
0.038688894

>  <PEOE_VSA_HYD>
346.89075

>  <PEOE_VSA_NEG>
177.84587

>  <PEOE_VSA_PNEG>
18.574432

>  <PEOE_VSA_POL>
33.282932

>  <PEOE_VSA_POS>
202.3278

>  <PEOE_VSA_PPOS>
14.708499

>  <petitjean>
0.47058824

>  <petitjeanSC>
0.8888889

>  <Q_PC+>
0

>  <Q_PC->
0

>  <Q_RPC+>
0

>  <Q_RPC->
0

>  <Q_VSA_FHYD>
1

>  <Q_VSA_FNEG>
0

>  <Q_VSA_FPNEG>
0

>  <Q_VSA_FPOL>
0

>  <Q_VSA_FPOS>
1

>  <Q_VSA_FPPOS>
0

>  <Q_VSA_HYD>
380.17368

>  <Q_VSA_NEG>
0

>  <Q_VSA_PNEG>
0

>  <Q_VSA_POL>
0

>  <Q_VSA_POS>
380.17368

>  <Q_VSA_PPOS>
0

>  <radius>
9

>  <reactive>
0

>  <rings>
3

>  <RPC+>
0

>  <RPC->
0

>  <rsynth>
1

>  <SlogP>
4.8193998

>  <SlogP_VSA0>
10.999887

>  <SlogP_VSA1>
10.869778

>  <SlogP_VSA2>
21.450506

>  <SlogP_VSA3>
57.805416

>  <SlogP_VSA4>
27.047791

>  <SlogP_VSA5>
0

>  <SlogP_VSA6>
0

>  <SlogP_VSA7>
70.572739

>  <SlogP_VSA8>
169.81564

>  <SlogP_VSA9>
38.569443

>  <SMR>
10.37285

>  <SMR_VSA0>
34.862103

>  <SMR_VSA1>
14.124202

>  <SMR_VSA2>
0

>  <SMR_VSA3>
18.879622

>  <SMR_VSA4>
0

>  <SMR_VSA5>
240.38838

>  <SMR_VSA6>
65.55088

>  <SMR_VSA7>
33.326015

>  <TPSA>
38.77

>  <VAdjEq>
0.41210872

>  <VAdjMa>
5.8073549

>  <VDistEq>
3.8689671

>  <VDistMa>
9.0453281

>  <vdw_area>
380.17368

>  <vdw_vol>
532.34912

>  <vsa_acc>
16.070677

>  <vsa_acid>
0

>  <vsa_base>
0

>  <vsa_don>
0

>  <vsa_hyd>
323.40149

>  <vsa_other>
17.212255

>  <vsa_pol>
16.070677

>  <Weight>
359.50998

>  <weinerPath>
2140

>  <weinerPol>
35

>  <zagreb>
128

$$$$