O1C2(C(C3C(CC2)C2(C(=CC(=O)C=C2)CC3)C)CCC1=O)C
  MOE2013           2D

 22 25  0  0  1  0  0  0  0  0999 V2000
    0.0000    0.0000    0.0000 O   0  0  0  0  0  0  0  0  0  0  0  0
    1.5000    0.0010    0.0000 C   0  0  3  0  0  0  0  0  0  0  0  0
    2.2490    1.3000    0.0000 C   0  0  3  0  0  0  0  0  0  0  0  0
    3.7490    1.3010    0.0000 C   0  0  3  0  0  0  0  0  0  0  0  0
    4.5000    0.0020    0.0000 C   0  0  3  0  0  0  0  0  0  0  0  0
    3.7510   -1.2970    0.0000 C   0  0  0  0  0  0  0  0  0  0  0  0
    2.2510   -1.2980    0.0000 C   0  0  0  0  0  0  0  0  0  0  0  0
    6.0000    0.0030    0.0000 C   0  0  3  0  0  0  0  0  0  0  0  0
    6.7490    1.3020    0.0000 C   0  0  0  0  0  0  0  0  0  0  0  0
    8.2490    1.3030    0.0000 C   0  0  0  0  0  0  0  0  0  0  0  0
    9.0000    0.0040    0.0000 C   0  0  0  0  0  0  0  0  0  0  0  0
   10.5000    0.0040    0.0000 O   0  0  0  0  0  0  0  0  0  0  0  0
    8.2510   -1.2960    0.0000 C   0  0  0  0  0  0  0  0  0  0  0  0
    6.7510   -1.2960    0.0000 C   0  0  0  0  0  0  0  0  0  0  0  0
    5.9990    2.6010    0.0000 C   0  0  0  0  0  0  0  0  0  0  0  0
    4.4990    2.6000    0.0000 C   0  0  0  0  0  0  0  0  0  0  0  0
    5.2510   -1.2970    0.0000 C   0  0  0  0  0  0  0  0  0  0  0  0
    1.4990    2.5990    0.0000 C   0  0  0  0  0  0  0  0  0  0  0  0
   -0.0010    2.5980    0.0000 C   0  0  0  0  0  0  0  0  0  0  0  0
   -0.7510    1.2990    0.0000 C   0  0  0  0  0  0  0  0  0  0  0  0
   -2.2510    1.2980    0.0000 O   0  0  0  0  0  0  0  0  0  0  0  0
    0.7510   -1.2990    0.0000 C   0  0  0  0  0  0  0  0  0  0  0  0
  1  2  1  0  0  0  0
  1 20  1  0  0  0  0
  2  3  1  0  0  0  0
  2  7  1  0  0  0  0
  2 22  1  0  0  0  0
  3  4  1  0  0  0  0
  3 18  1  0  0  0  0
  4  5  1  0  0  0  0
  4 16  1  0  0  0  0
  5  6  1  0  0  0  0
  5  8  1  0  0  0  0
  6  7  1  0  0  0  0
  8  9  1  0  0  0  0
  8 14  1  0  0  0  0
  8 17  1  0  0  0  0
  9 10  2  0  0  0  0
  9 15  1  0  0  0  0
 10 11  1  0  0  0  0
 11 12  2  0  0  0  0
 11 13  1  0  0  0  0
 13 14  2  0  0  0  0
 15 16  1  0  0  0  0
 18 19  1  0  0  0  0
 19 20  1  0  0  0  0
 20 21  2  0  0  0  0
M  END
>  <Index>
1055

>  <ID>
HT2016

>  <class>
0

>  <apol>
51.849033

>  <ast_fraglike>
0

>  <ast_fraglike_ext>
0

>  <ast_violation>
2

>  <ast_violation_ext>
2

>  <a_acc>
2

>  <a_acid>
0

>  <a_aro>
0

>  <a_base>
0

>  <a_count>
46

>  <a_don>
0

>  <a_donacc>
2

>  <a_heavy>
22

>  <a_hyd>
17

>  <a_IC>
58.579239

>  <a_ICM>
1.2734617

>  <a_nB>
0

>  <a_nBr>
0

>  <a_nC>
19

>  <a_nCl>
0

>  <a_nF>
0

>  <a_nH>
24

>  <a_nI>
0

>  <a_nN>
0

>  <a_nO>
3

>  <a_nP>
0

>  <a_nS>
0

>  <balabanJ>
1.5994295

>  <BCUT_PEOE_0>
-2.9376988

>  <BCUT_PEOE_1>
-0.50279421

>  <BCUT_PEOE_2>
0.38797876

>  <BCUT_PEOE_3>
2.9134922

>  <BCUT_SLOGP_0>
-2.8884146

>  <BCUT_SLOGP_1>
-0.42189845

>  <BCUT_SLOGP_2>
0.46860313

>  <BCUT_SLOGP_3>
2.9760919

>  <BCUT_SMR_0>
-2.6894734

>  <BCUT_SMR_1>
-0.28320944

>  <BCUT_SMR_2>
0.56913286

>  <BCUT_SMR_3>
3.162384

>  <bpol>
30.068968

>  <b_1rotN>
0

>  <b_1rotR>
0

>  <b_ar>
0

>  <b_count>
49

>  <b_double>
4

>  <b_heavy>
25

>  <b_max1len>
2

>  <b_rotN>
0

>  <b_rotR>
0

>  <b_single>
45

>  <b_triple>
0

>  <chi0>
15.53517

>  <chi0v>
13.431487

>  <chi0v_C>
12.206742

>  <chi0_C>
12.828063

>  <chi1>
10.422287

>  <chi1v>
8.5839529

>  <chi1v_C>
7.7674561

>  <chi1_C>
8.505785

>  <chiral>
5

>  <chiral_u>
5

>  <density>
0.70901799

>  <diameter>
11

>  <FCharge>
0

>  <GCUT_PEOE_0>
-0.78477579

>  <GCUT_PEOE_1>
-0.42326578

>  <GCUT_PEOE_2>
0.0018802459

>  <GCUT_PEOE_3>
3.1577015

>  <GCUT_SLOGP_0>
-0.84387451

>  <GCUT_SLOGP_1>
-0.3135874

>  <GCUT_SLOGP_2>
0.013960297

>  <GCUT_SLOGP_3>
3.2330484

>  <GCUT_SMR_0>
-0.52988398

>  <GCUT_SMR_1>
-0.20933764

>  <GCUT_SMR_2>
0.13682623

>  <GCUT_SMR_3>
3.3884511

>  <Kier1>
15.5232

>  <Kier2>
5.25

>  <Kier3>
2.3391812

>  <KierA1>
13.203322

>  <KierA2>
4.428946

>  <KierA3>
1.9616512

>  <KierFlex>
2.6580365

>  <lip_acc>
3

>  <lip_don>
0

>  <lip_druglike>
1

>  <lip_violation>
0

>  <logP(o/w)>
3.6960001

>  <logS>
-4.5992699

>  <mr>
8.4135628

>  <mutagenic>
0

>  <nmol>
1

>  <opr_brigid>
21

>  <opr_leadlike>
1

>  <opr_nring>
4

>  <opr_nrot>
0

>  <opr_violation>
0

>  <PC+>
0

>  <PC->
0

>  <PEOE_PC+>
1.3556805

>  <PEOE_PC->
-1.3556805

>  <PEOE_RPC+>
0.19376324

>  <PEOE_RPC->
0.2276025

>  <PEOE_VSA+0>
98.274422

>  <PEOE_VSA+1>
12.796158

>  <PEOE_VSA+2>
0

>  <PEOE_VSA+3>
8.458519

>  <PEOE_VSA+4>
0

>  <PEOE_VSA+5>
14.708499

>  <PEOE_VSA+6>
0

>  <PEOE_VSA-0>
86.764053

>  <PEOE_VSA-1>
33.211121

>  <PEOE_VSA-2>
0

>  <PEOE_VSA-3>
0

>  <PEOE_VSA-4>
0

>  <PEOE_VSA-5>
27.133842

>  <PEOE_VSA-6>
2.503756

>  <PEOE_VSA_FHYD>
0.84376943

>  <PEOE_VSA_FNEG>
0.52708322

>  <PEOE_VSA_FPNEG>
0.10441275

>  <PEOE_VSA_FPOL>
0.15623054

>  <PEOE_VSA_FPOS>
0.47291675

>  <PEOE_VSA_FPPOS>
0.051817793

>  <PEOE_VSA_HYD>
239.50427

>  <PEOE_VSA_NEG>
149.61278

>  <PEOE_VSA_PNEG>
29.637598

>  <PEOE_VSA_POL>
44.346096

>  <PEOE_VSA_POS>
134.23759

>  <PEOE_VSA_PPOS>
14.708499

>  <petitjean>
0.45454547

>  <petitjeanSC>
0.83333331

>  <Q_PC+>
0

>  <Q_PC->
0

>  <Q_RPC+>
0

>  <Q_RPC->
0

>  <Q_VSA_FHYD>
1

>  <Q_VSA_FNEG>
0

>  <Q_VSA_FPNEG>
0

>  <Q_VSA_FPOL>
0

>  <Q_VSA_FPOS>
1

>  <Q_VSA_FPPOS>
0

>  <Q_VSA_HYD>
283.85037

>  <Q_VSA_NEG>
0

>  <Q_VSA_PNEG>
0

>  <Q_VSA_POL>
0

>  <Q_VSA_POS>
283.85037

>  <Q_VSA_PPOS>
0

>  <radius>
6

>  <reactive>
1

>  <rings>
4

>  <RPC+>
0

>  <RPC->
0

>  <rsynth>
0.31818181

>  <SlogP>
3.5899

>  <SlogP_VSA0>
0

>  <SlogP_VSA1>
13.433075

>  <SlogP_VSA2>
58.724319

>  <SlogP_VSA3>
0

>  <SlogP_VSA4>
13.232388

>  <SlogP_VSA5>
3.185575

>  <SlogP_VSA6>
0

>  <SlogP_VSA7>
52.929554

>  <SlogP_VSA8>
113.21043

>  <SlogP_VSA9>
66.652031

>  <SMR>
8.3006001

>  <SMR_VSA0>
58.724319

>  <SMR_VSA1>
0

>  <SMR_VSA2>
13.232388

>  <SMR_VSA3>
3.185575

>  <SMR_VSA4>
0

>  <SMR_VSA5>
166.13998

>  <SMR_VSA6>
13.433075

>  <SMR_VSA7>
66.652031

>  <TPSA>
43.369999

>  <VAdjEq>
0.47938794

>  <VAdjMa>
5.643856

>  <VDistEq>
3.0391724

>  <VDistMa>
8.6390305

>  <vdw_area>
283.85037

>  <vdw_vol>
423.68176

>  <vsa_acc>
27.133842

>  <vsa_acid>
0

>  <vsa_base>
0

>  <vsa_don>
0

>  <vsa_hyd>
209.92751

>  <vsa_other>
25.670774

>  <vsa_pol>
27.133842

>  <Weight>
300.39798

>  <weinerPath>
928

>  <weinerPol>
45

>  <zagreb>
130

$$$$