OC1(C(=O)CO)C2(CC(=O)C3C(C2CC1C)CCC1=CC(=O)C=CC13C)C
  MOE2013           2D

 27 30  0  0  1  0  0  0  0  0999 V2000
    0.0000    0.0000    0.0000 O   0  0  0  0  0  0  0  0  0  0  0  0
    0.7210   -1.3150    0.0000 C   0  0  3  0  0  0  0  0  0  0  0  0
   -0.7780   -1.3350    0.0000 C   0  0  0  0  0  0  0  0  0  0  0  0
   -1.5110   -2.6430    0.0000 O   0  0  0  0  0  0  0  0  0  0  0  0
   -1.5450   -0.0460    0.0000 C   0  0  0  0  0  0  0  0  0  0  0  0
   -3.0450   -0.0650    0.0000 O   0  0  0  0  0  0  0  0  0  0  0  0
    2.1150   -0.7590    0.0000 C   0  0  3  0  0  0  0  0  0  0  0  0
    2.6340    0.6480    0.0000 C   0  0  0  0  0  0  0  0  0  0  0  0
    4.1120    0.9020    0.0000 C   0  0  0  0  0  0  0  0  0  0  0  0
    4.6310    2.3090    0.0000 O   0  0  0  0  0  0  0  0  0  0  0  0
    5.0710   -0.2510    0.0000 C   0  0  3  0  0  0  0  0  0  0  0  0
    4.5520   -1.6590    0.0000 C   0  0  3  0  0  0  0  0  0  0  0  0
    3.0740   -1.9130    0.0000 C   0  0  3  0  0  0  0  0  0  0  0  0
    2.2730   -3.1810    0.0000 C   0  0  0  0  0  0  0  0  0  0  0  0
    0.8200   -2.8120    0.0000 C   0  0  3  0  0  0  0  0  0  0  0  0
   -0.3340   -3.7710    0.0000 C   0  0  0  0  0  0  0  0  0  0  0  0
    5.5110   -2.8120    0.0000 C   0  0  0  0  0  0  0  0  0  0  0  0
    6.9900   -2.5580    0.0000 C   0  0  0  0  0  0  0  0  0  0  0  0
    7.5090   -1.1510    0.0000 C   0  0  0  0  0  0  0  0  0  0  0  0
    8.9870   -0.8970    0.0000 C   0  0  0  0  0  0  0  0  0  0  0  0
    9.5060    0.5110    0.0000 C   0  0  0  0  0  0  0  0  0  0  0  0
   10.9850    0.7650    0.0000 O   0  0  0  0  0  0  0  0  0  0  0  0
    8.5470    1.6640    0.0000 C   0  0  0  0  0  0  0  0  0  0  0  0
    7.0690    1.4100    0.0000 C   0  0  0  0  0  0  0  0  0  0  0  0
    6.5500    0.0030    0.0000 C   0  0  3  0  0  0  0  0  0  0  0  0
    5.5910    1.1560    0.0000 C   0  0  0  0  0  0  0  0  0  0  0  0
    1.0590    0.3060    0.0000 C   0  0  0  0  0  0  0  0  0  0  0  0
  1  2  1  0  0  0  0
  2  3  1  0  0  0  0
  2  7  1  0  0  0  0
  2 15  1  0  0  0  0
  3  4  2  0  0  0  0
  3  5  1  0  0  0  0
  5  6  1  0  0  0  0
  7  8  1  0  0  0  0
  7 13  1  0  0  0  0
  7 27  1  0  0  0  0
  8  9  1  0  0  0  0
  9 10  2  0  0  0  0
  9 11  1  0  0  0  0
 11 12  1  0  0  0  0
 11 25  1  0  0  0  0
 12 13  1  0  0  0  0
 12 17  1  0  0  0  0
 13 14  1  0  0  0  0
 14 15  1  0  0  0  0
 15 16  1  0  0  0  0
 17 18  1  0  0  0  0
 18 19  1  0  0  0  0
 19 20  2  0  0  0  0
 19 25  1  0  0  0  0
 20 21  1  0  0  0  0
 21 22  2  0  0  0  0
 21 23  1  0  0  0  0
 23 24  2  0  0  0  0
 24 25  1  0  0  0  0
 25 26  1  0  0  0  0
M  END
>  <Index>
1365

>  <ID>
HT3690

>  <class>
0

>  <apol>
61.400204

>  <ast_fraglike>
0

>  <ast_fraglike_ext>
0

>  <ast_violation>
2

>  <ast_violation_ext>
3

>  <a_acc>
5

>  <a_acid>
0

>  <a_aro>
0

>  <a_base>
0

>  <a_count>
55

>  <a_don>
2

>  <a_donacc>
7

>  <a_heavy>
27

>  <a_hyd>
19

>  <a_IC>
73.651711

>  <a_ICM>
1.3391221

>  <a_nB>
0

>  <a_nBr>
0

>  <a_nC>
22

>  <a_nCl>
0

>  <a_nF>
0

>  <a_nH>
28

>  <a_nI>
0

>  <a_nN>
0

>  <a_nO>
5

>  <a_nP>
0

>  <a_nS>
0

>  <balabanJ>
1.7107785

>  <BCUT_PEOE_0>
-2.8774559

>  <BCUT_PEOE_1>
-0.51404089

>  <BCUT_PEOE_2>
0.46253249

>  <BCUT_PEOE_3>
2.971859

>  <BCUT_SLOGP_0>
-2.8591824

>  <BCUT_SLOGP_1>
-0.44195655

>  <BCUT_SLOGP_2>
0.49876115

>  <BCUT_SLOGP_3>
2.9898612

>  <BCUT_SMR_0>
-2.631074

>  <BCUT_SMR_1>
-0.33832428

>  <BCUT_SMR_2>
0.65458924

>  <BCUT_SMR_3>
3.2112892

>  <bpol>
33.483795

>  <b_1rotN>
2

>  <b_1rotR>
0.06666667

>  <b_ar>
0

>  <b_count>
58

>  <b_double>
5

>  <b_heavy>
30

>  <b_max1len>
6

>  <b_rotN>
2

>  <b_rotR>
0.06666667

>  <b_single>
53

>  <b_triple>
0

>  <chi0>
19.775656

>  <chi0v>
16.196157

>  <chi0v_C>
14.076985

>  <chi0_C>
14.775657

>  <chi1>
12.591225

>  <chi1v>
9.9279165

>  <chi1v_C>
8.7757101

>  <chi1_C>
9.6520672

>  <chiral>
7

>  <chiral_u>
7

>  <density>
0.7382319

>  <diameter>
12

>  <FCharge>
0

>  <GCUT_PEOE_0>
-0.79164737

>  <GCUT_PEOE_1>
-0.43047336

>  <GCUT_PEOE_2>
0.0043449053

>  <GCUT_PEOE_3>
3.3128746

>  <GCUT_SLOGP_0>
-0.94785362

>  <GCUT_SLOGP_1>
-0.32630837

>  <GCUT_SLOGP_2>
-0.0040974705

>  <GCUT_SLOGP_3>
3.3441889

>  <GCUT_SMR_0>
-0.53777969

>  <GCUT_SMR_1>
-0.22295812

>  <GCUT_SMR_2>
0.16035317

>  <GCUT_SMR_3>
3.5395648

>  <Kier1>
20.280001

>  <Kier2>
6.5

>  <Kier3>
2.5258896

>  <KierA1>
17.172035

>  <KierA2>
5.4667535

>  <KierA3>
2.1137242

>  <KierFlex>
3.4768624

>  <lip_acc>
5

>  <lip_don>
2

>  <lip_druglike>
1

>  <lip_violation>
0

>  <logP(o/w)>
1.568

>  <logS>
-3.4528601

>  <mr>
9.9799242

>  <mutagenic>
0

>  <nmol>
1

>  <opr_brigid>
20

>  <opr_leadlike>
1

>  <opr_nring>
4

>  <opr_nrot>
2

>  <opr_violation>
0

>  <PC+>
0

>  <PC->
0

>  <PEOE_PC+>
2.1512554

>  <PEOE_PC->
-2.1512554

>  <PEOE_RPC+>
0.097977787

>  <PEOE_RPC->
0.18009052

>  <PEOE_VSA+0>
98.274422

>  <PEOE_VSA+1>
21.326929

>  <PEOE_VSA+2>
23.409813

>  <PEOE_VSA+3>
16.917038

>  <PEOE_VSA+4>
20.648346

>  <PEOE_VSA+5>
0

>  <PEOE_VSA+6>
0

>  <PEOE_VSA-0>
50.613747

>  <PEOE_VSA-1>
70.706474

>  <PEOE_VSA-2>
0

>  <PEOE_VSA-3>
0

>  <PEOE_VSA-4>
0

>  <PEOE_VSA-5>
40.700764

>  <PEOE_VSA-6>
15.535081

>  <PEOE_VSA_FHYD>
0.78531921

>  <PEOE_VSA_FNEG>
0.495783

>  <PEOE_VSA_FPNEG>
0.15702519

>  <PEOE_VSA_FPOL>
0.21468078

>  <PEOE_VSA_FPOS>
0.50421697

>  <PEOE_VSA_FPPOS>
0.057655584

>  <PEOE_VSA_HYD>
281.24841

>  <PEOE_VSA_NEG>
177.55606

>  <PEOE_VSA_PNEG>
56.235844

>  <PEOE_VSA_POL>
76.884186

>  <PEOE_VSA_POS>
180.57655

>  <PEOE_VSA_PPOS>
20.648346

>  <petitjean>
0.5

>  <petitjeanSC>
1

>  <Q_PC+>
0

>  <Q_PC->
0

>  <Q_RPC+>
0

>  <Q_RPC->
0

>  <Q_VSA_FHYD>
1

>  <Q_VSA_FNEG>
0

>  <Q_VSA_FPNEG>
0

>  <Q_VSA_FPOL>
0

>  <Q_VSA_FPOS>
1

>  <Q_VSA_FPPOS>
0

>  <Q_VSA_HYD>
358.1326

>  <Q_VSA_NEG>
0

>  <Q_VSA_PNEG>
0

>  <Q_VSA_POL>
0

>  <Q_VSA_POS>
358.1326

>  <Q_VSA_PPOS>
0

>  <radius>
6

>  <reactive>
1

>  <rings>
4

>  <RPC+>
0

>  <RPC->
0

>  <rsynth>
0.2962963

>  <SlogP>
2.0118001

>  <SlogP_VSA0>
50.770454

>  <SlogP_VSA1>
17.062834

>  <SlogP_VSA2>
71.586647

>  <SlogP_VSA3>
20.926258

>  <SlogP_VSA4>
17.643185

>  <SlogP_VSA5>
3.185575

>  <SlogP_VSA6>
0

>  <SlogP_VSA7>
52.929554

>  <SlogP_VSA8>
75.473625

>  <SlogP_VSA9>
99.978043

>  <SMR>
9.85956

>  <SMR_VSA0>
71.586647

>  <SMR_VSA1>
50.770454

>  <SMR_VSA2>
17.643185

>  <SMR_VSA3>
3.185575

>  <SMR_VSA4>
0

>  <SMR_VSA5>
128.40317

>  <SMR_VSA6>
37.98909

>  <SMR_VSA7>
99.978043

>  <TPSA>
91.669998

>  <VAdjEq>
0.41024774

>  <VAdjMa>
5.9068904

>  <VDistEq>
3.1698639

>  <VDistMa>
9.2484779

>  <vdw_area>
358.1326

>  <vdw_vol>
504.53116

>  <vsa_acc>
40.700764

>  <vsa_acid>
0

>  <vsa_base>
0

>  <vsa_don>
0

>  <vsa_hyd>
231.98598

>  <vsa_other>
25.375559

>  <vsa_pol>
67.834602

>  <Weight>
372.461

>  <weinerPath>
1556

>  <weinerPol>
63

>  <zagreb>
160

$$$$