Clc1cc(ccc1)C(=O)C(NC(C)(C)C)C
  MOE2013           2D

 16 16  0  0  1  0  0  0  0  0999 V2000
    0.0000    0.0000    0.0000 Cl  0  0  0  0  0  0  0  0  0  0  0  0
   -1.3050   -0.7400    0.0000 C   0  0  0  0  0  0  0  0  0  0  0  0
   -2.5980    0.0210    0.0000 C   0  0  0  0  0  0  0  0  0  0  0  0
   -3.9030   -0.7190    0.0000 C   0  0  0  0  0  0  0  0  0  0  0  0
   -3.9150   -2.2190    0.0000 C   0  0  0  0  0  0  0  0  0  0  0  0
   -2.6220   -2.9790    0.0000 C   0  0  0  0  0  0  0  0  0  0  0  0
   -1.3170   -2.2400    0.0000 C   0  0  0  0  0  0  0  0  0  0  0  0
   -5.1960    0.0410    0.0000 C   0  0  0  0  0  0  0  0  0  0  0  0
   -5.1840    1.5410    0.0000 O   0  0  0  0  0  0  0  0  0  0  0  0
   -6.5010   -0.6990    0.0000 C   0  0  3  0  0  0  0  0  0  0  0  0
   -7.7940    0.0620    0.0000 N   0  0  0  0  0  0  0  0  0  0  0  0
   -9.0990   -0.6780    0.0000 C   0  0  0  0  0  0  0  0  0  0  0  0
  -10.4040   -1.4180    0.0000 C   0  0  0  0  0  0  0  0  0  0  0  0
   -8.3590   -1.9830    0.0000 C   0  0  0  0  0  0  0  0  0  0  0  0
   -9.8390    0.6270    0.0000 C   0  0  0  0  0  0  0  0  0  0  0  0
   -6.5130   -2.1990    0.0000 C   0  0  0  0  0  0  0  0  0  0  0  0
  1  2  1  0  0  0  0
  2  3  1  0  0  0  0
  2  7  2  0  0  0  0
  3  4  2  0  0  0  0
  4  5  1  0  0  0  0
  4  8  1  0  0  0  0
  5  6  2  0  0  0  0
  6  7  1  0  0  0  0
  8  9  2  0  0  0  0
  8 10  1  0  0  0  0
 10 11  1  0  0  0  0
 10 16  1  0  0  0  0
 11 12  1  0  0  0  0
 12 13  1  0  0  0  0
 12 14  1  0  0  0  0
 12 15  1  0  0  0  0
M  END
>  <Index>
165

>  <ID>
HT0330

>  <class>
0

>  <apol>
38.964275

>  <ast_fraglike>
0

>  <ast_fraglike_ext>
0

>  <ast_violation>
1

>  <ast_violation_ext>
2

>  <a_acc>
2

>  <a_acid>
0

>  <a_aro>
6

>  <a_base>
0

>  <a_count>
34

>  <a_don>
1

>  <a_donacc>
3

>  <a_heavy>
16

>  <a_hyd>
13

>  <a_IC>
49.809372

>  <a_ICM>
1.4649814

>  <a_nB>
0

>  <a_nBr>
0

>  <a_nC>
13

>  <a_nCl>
1

>  <a_nF>
0

>  <a_nH>
18

>  <a_nI>
0

>  <a_nN>
1

>  <a_nO>
1

>  <a_nP>
0

>  <a_nS>
0

>  <balabanJ>
2.4717963

>  <BCUT_PEOE_0>
-2.7012656

>  <BCUT_PEOE_1>
-0.50277233

>  <BCUT_PEOE_2>
0.49890304

>  <BCUT_PEOE_3>
2.6356421

>  <BCUT_SLOGP_0>
-2.8085747

>  <BCUT_SLOGP_1>
-0.24773329

>  <BCUT_SLOGP_2>
0.56371677

>  <BCUT_SLOGP_3>
2.6236567

>  <BCUT_SMR_0>
-2.4315858

>  <BCUT_SMR_1>
-0.24609061

>  <BCUT_SMR_2>
0.65865946

>  <BCUT_SMR_3>
2.9026406

>  <bpol>
21.715727

>  <b_1rotN>
3

>  <b_1rotR>
0.1875

>  <b_ar>
6

>  <b_count>
34

>  <b_double>
1

>  <b_heavy>
16

>  <b_max1len>
6

>  <b_rotN>
4

>  <b_rotR>
0.25

>  <b_single>
27

>  <b_triple>
0

>  <chi0>
12.344935

>  <chi0v>
10.928893

>  <chi0v_C>
8.8867512

>  <chi0_C>
9.6378279

>  <chi1>
7.2935123

>  <chi1v>
5.7471385

>  <chi1v_C>
4.4373927

>  <chi1_C>
5.3770099

>  <chiral>
1

>  <chiral_u>
1

>  <density>
0.71931839

>  <diameter>
8

>  <FCharge>
0

>  <GCUT_PEOE_0>
-0.83683378

>  <GCUT_PEOE_1>
-0.35199675

>  <GCUT_PEOE_2>
0.019117424

>  <GCUT_PEOE_3>
2.5152788

>  <GCUT_SLOGP_0>
-1.1536876

>  <GCUT_SLOGP_1>
-0.22371875

>  <GCUT_SLOGP_2>
0.11904822

>  <GCUT_SLOGP_3>
2.5460429

>  <GCUT_SMR_0>
-0.52289152

>  <GCUT_SMR_1>
-0.074860848

>  <GCUT_SMR_2>
0.15172762

>  <GCUT_SMR_3>
2.7686718

>  <Kier1>
14.0625

>  <Kier2>
5.5576558

>  <Kier3>
4.8166351

>  <KierA1>
12.412782

>  <KierA2>
4.8620982

>  <KierA3>
4.1856737

>  <KierFlex>
3.7720101

>  <lip_acc>
2

>  <lip_don>
1

>  <lip_druglike>
1

>  <lip_violation>
0

>  <logP(o/w)>
3.543

>  <logS>
-3.49986

>  <mr>
6.8323212

>  <mutagenic>
0

>  <nmol>
1

>  <opr_brigid>
6

>  <opr_leadlike>
1

>  <opr_nring>
1

>  <opr_nrot>
4

>  <opr_violation>
0

>  <PC+>
0

>  <PC->
0

>  <PEOE_PC+>
1.047394

>  <PEOE_PC->
-1.047394

>  <PEOE_RPC+>
0.17157881

>  <PEOE_RPC->
0.28851053

>  <PEOE_VSA+0>
57.912918

>  <PEOE_VSA+1>
24.472891

>  <PEOE_VSA+2>
8.6190128

>  <PEOE_VSA+3>
8.458519

>  <PEOE_VSA+4>
0

>  <PEOE_VSA+5>
0

>  <PEOE_VSA+6>
0

>  <PEOE_VSA-0>
99.500519

>  <PEOE_VSA-1>
54.091755

>  <PEOE_VSA-2>
0

>  <PEOE_VSA-3>
0

>  <PEOE_VSA-4>
0

>  <PEOE_VSA-5>
13.566921

>  <PEOE_VSA-6>
0.13689101

>  <PEOE_VSA_FHYD>
0.9486286

>  <PEOE_VSA_FNEG>
0.62714219

>  <PEOE_VSA_FPNEG>
0.051371425

>  <PEOE_VSA_FPOL>
0.051371425

>  <PEOE_VSA_FPOS>
0.37285784

>  <PEOE_VSA_FPPOS>
0

>  <PEOE_VSA_HYD>
253.05562

>  <PEOE_VSA_NEG>
167.29608

>  <PEOE_VSA_PNEG>
13.703812

>  <PEOE_VSA_POL>
13.703812

>  <PEOE_VSA_POS>
99.463341

>  <PEOE_VSA_PPOS>
0

>  <petitjean>
0.5

>  <petitjeanSC>
1

>  <Q_PC+>
0

>  <Q_PC->
0

>  <Q_RPC+>
0

>  <Q_RPC->
0

>  <Q_VSA_FHYD>
1

>  <Q_VSA_FNEG>
0

>  <Q_VSA_FPNEG>
0

>  <Q_VSA_FPOL>
0

>  <Q_VSA_FPOS>
1

>  <Q_VSA_FPPOS>
0

>  <Q_VSA_HYD>
266.75943

>  <Q_VSA_NEG>
0

>  <Q_VSA_PNEG>
0

>  <Q_VSA_POL>
0

>  <Q_VSA_POS>
266.75943

>  <Q_VSA_PPOS>
0

>  <radius>
4

>  <reactive>
1

>  <rings>
1

>  <RPC+>
0

>  <RPC->
0

>  <rsynth>
0

>  <SlogP>
3.2993

>  <SlogP_VSA0>
18.01075

>  <SlogP_VSA1>
5.6876111

>  <SlogP_VSA2>
3.9819686

>  <SlogP_VSA3>
0

>  <SlogP_VSA4>
27.047791

>  <SlogP_VSA5>
0

>  <SlogP_VSA6>
3.5006065

>  <SlogP_VSA7>
70.572739

>  <SlogP_VSA8>
0

>  <SlogP_VSA9>
172.4527

>  <SMR>
6.8133202

>  <SMR_VSA0>
23.862217

>  <SMR_VSA1>
0

>  <SMR_VSA2>
18.01075

>  <SMR_VSA3>
10.66815

>  <SMR_VSA4>
0

>  <SMR_VSA5>
70.572739

>  <SMR_VSA6>
5.6876111

>  <SMR_VSA7>
172.4527

>  <TPSA>
29.1

>  <VAdjEq>
0.54356444

>  <VAdjMa>
5

>  <VDistEq>
2.8925536

>  <VDistMa>
7.6983962

>  <vdw_area>
266.75943

>  <vdw_vol>
333.29608

>  <vsa_acc>
13.566921

>  <vsa_acid>
0

>  <vsa_base>
0

>  <vsa_don>
0

>  <vsa_hyd>
223.87756

>  <vsa_other>
8.458519

>  <vsa_pol>
19.249496

>  <Weight>
239.74599

>  <weinerPath>
454

>  <weinerPol>
20

>  <zagreb>
78

$$$$