S(P(OCC)(OCC)=O)CCN(CC)CC
  MOE2013           2D

 16 15  0  0  0  0  0  0  0  0999 V2000
    0.0000    0.0000    0.0000 S   0  0  0  0  0  0  0  0  0  0  0  0
    1.5000   -0.0020    0.0000 P   0  0  0  0  0  0  0  0  0  0  0  0
    1.5020    1.4980    0.0000 O   0  0  0  0  0  0  0  0  0  0  0  0
    2.8020    2.2460    0.0000 C   0  0  0  0  0  0  0  0  0  0  0  0
    2.8040    3.7460    0.0000 C   0  0  0  0  0  0  0  0  0  0  0  0
    3.0000   -0.0040    0.0000 O   0  0  0  0  0  0  0  0  0  0  0  0
    3.7480   -1.3040    0.0000 C   0  0  0  0  0  0  0  0  0  0  0  0
    5.2480   -1.3060    0.0000 C   0  0  0  0  0  0  0  0  0  0  0  0
    1.4980   -1.5020    0.0000 O   0  0  0  0  0  0  0  0  0  0  0  0
   -0.7520   -1.2980    0.0000 C   0  0  0  0  0  0  0  0  0  0  0  0
   -2.2520   -1.2960    0.0000 C   0  0  0  0  0  0  0  0  0  0  0  0
   -3.0030   -2.5940    0.0000 N   0  0  0  0  0  0  0  0  0  0  0  0
   -2.2550   -3.8940    0.0000 C   0  0  0  0  0  0  0  0  0  0  0  0
   -3.0070   -5.1920    0.0000 C   0  0  0  0  0  0  0  0  0  0  0  0
   -4.5030   -2.5920    0.0000 C   0  0  0  0  0  0  0  0  0  0  0  0
   -5.2520   -1.2920    0.0000 C   0  0  0  0  0  0  0  0  0  0  0  0
  1  2  1  0  0  0  0
  1 10  1  0  0  0  0
  2  3  1  0  0  0  0
  2  6  1  0  0  0  0
  2  9  2  0  0  0  0
  3  4  1  0  0  0  0
  4  5  1  0  0  0  0
  6  7  1  0  0  0  0
  7  8  1  0  0  0  0
 10 11  1  0  0  0  0
 11 12  1  0  0  0  0
 12 13  1  0  0  0  0
 12 15  1  0  0  0  0
 13 14  1  0  0  0  0
 15 16  1  0  0  0  0
M  END
>  <Index>
1302

>  <ID>
HT3189

>  <class>
0

>  <apol>
43.63903

>  <ast_fraglike>
0

>  <ast_fraglike_ext>
0

>  <ast_violation>
1

>  <ast_violation_ext>
2

>  <a_acc>
4

>  <a_acid>
0

>  <a_aro>
0

>  <a_base>
0

>  <a_count>
40

>  <a_don>
0

>  <a_donacc>
4

>  <a_heavy>
16

>  <a_hyd>
10

>  <a_IC>
64.863853

>  <a_ICM>
1.6215963

>  <a_nB>
0

>  <a_nBr>
0

>  <a_nC>
10

>  <a_nCl>
0

>  <a_nF>
0

>  <a_nH>
24

>  <a_nI>
0

>  <a_nN>
1

>  <a_nO>
3

>  <a_nP>
1

>  <a_nS>
1

>  <balabanJ>
3.9144344

>  <BCUT_PEOE_0>
-2.6697454

>  <BCUT_PEOE_1>
-0.094306424

>  <BCUT_PEOE_2>
0.042379078

>  <BCUT_PEOE_3>
2.6002886

>  <BCUT_SLOGP_0>
-2.7360361

>  <BCUT_SLOGP_1>
-0.0050206566

>  <BCUT_SLOGP_2>
0.123

>  <BCUT_SLOGP_3>
2.7408226

>  <BCUT_SMR_0>
-2.387603

>  <BCUT_SMR_1>
0.1057

>  <BCUT_SMR_2>
0.10756677

>  <BCUT_SMR_3>
2.9082465

>  <bpol>
40.486969

>  <b_1rotN>
10

>  <b_1rotR>
0.66666669

>  <b_ar>
0

>  <b_count>
39

>  <b_double>
0

>  <b_heavy>
15

>  <b_max1len>
11

>  <b_rotN>
10

>  <b_rotR>
0.66666669

>  <b_single>
39

>  <b_triple>
0

>  <chi0>
12.441311

>  <chi0v>
12.480985

>  <chi0v_C>
8.2426405

>  <chi0_C>
8.2426405

>  <chi1>
7.613832

>  <chi1v>
9.0068216

>  <chi1v_C>
3.3284271

>  <chi1_C>
3.3284271

>  <chiral>
0

>  <chiral_u>
0

>  <density>
0.75735682

>  <diameter>
9

>  <FCharge>
0

>  <GCUT_PEOE_0>
-0.8578794

>  <GCUT_PEOE_1>
-0.30344978

>  <GCUT_PEOE_2>
-0.11762092

>  <GCUT_PEOE_3>
2.4737234

>  <GCUT_SLOGP_0>
-1.2924153

>  <GCUT_SLOGP_1>
-0.24503101

>  <GCUT_SLOGP_2>
-0.037

>  <GCUT_SLOGP_3>
2.549638

>  <GCUT_SMR_0>
-0.52200276

>  <GCUT_SMR_1>
-0.082757078

>  <GCUT_SMR_2>
-0.054299999

>  <GCUT_SMR_3>
2.7371783

>  <Kier1>
16

>  <Kier2>
9.0740738

>  <Kier3>
7.0581717

>  <KierA1>
19.499508

>  <KierA2>
11.207384

>  <KierA3>
8.8048239

>  <KierFlex>
13.658655

>  <lip_acc>
4

>  <lip_don>
0

>  <lip_druglike>
1

>  <lip_violation>
0

>  <logP(o/w)>
1.646

>  <logS>
-1.92191

>  <mr>
7.3163266

>  <mutagenic>
0

>  <nmol>
1

>  <opr_brigid>
0

>  <opr_leadlike>
1

>  <opr_nring>
0

>  <opr_nrot>
10

>  <opr_violation>
0

>  <PC+>
0

>  <PC->
0

>  <PEOE_PC+>
1.3506604

>  <PEOE_PC->
-1.3506604

>  <PEOE_RPC+>
0.25769934

>  <PEOE_RPC->
0.23248728

>  <PEOE_VSA+0>
145.46417

>  <PEOE_VSA+1>
32.06197

>  <PEOE_VSA+2>
0

>  <PEOE_VSA+3>
0

>  <PEOE_VSA+4>
0

>  <PEOE_VSA+5>
0

>  <PEOE_VSA+6>
15.590208

>  <PEOE_VSA-0>
26.384649

>  <PEOE_VSA-1>
74.990707

>  <PEOE_VSA-2>
0

>  <PEOE_VSA-3>
0

>  <PEOE_VSA-4>
15.729136

>  <PEOE_VSA-5>
0

>  <PEOE_VSA-6>
9.3319435

>  <PEOE_VSA_FHYD>
0.87278694

>  <PEOE_VSA_FNEG>
0.39566684

>  <PEOE_VSA_FPNEG>
0.078425474

>  <PEOE_VSA_FPOL>
0.12721306

>  <PEOE_VSA_FPOS>
0.60433316

>  <PEOE_VSA_FPPOS>
0.048787583

>  <PEOE_VSA_HYD>
278.90149

>  <PEOE_VSA_NEG>
126.43644

>  <PEOE_VSA_PNEG>
25.061081

>  <PEOE_VSA_POL>
40.651287

>  <PEOE_VSA_POS>
193.11635

>  <PEOE_VSA_PPOS>
15.590208

>  <petitjean>
0.44444445

>  <petitjeanSC>
0.80000001

>  <Q_PC+>
0

>  <Q_PC->
0

>  <Q_RPC+>
0

>  <Q_RPC->
0

>  <Q_VSA_FHYD>
1

>  <Q_VSA_FNEG>
0

>  <Q_VSA_FPNEG>
0

>  <Q_VSA_FPOL>
0

>  <Q_VSA_FPOS>
1

>  <Q_VSA_FPPOS>
0

>  <Q_VSA_HYD>
319.5528

>  <Q_VSA_NEG>
0

>  <Q_VSA_PNEG>
0

>  <Q_VSA_POL>
0

>  <Q_VSA_POS>
319.5528

>  <Q_VSA_PPOS>
0

>  <radius>
5

>  <reactive>
0

>  <rings>
0

>  <RPC+>
0

>  <RPC->
0

>  <rsynth>
1

>  <SlogP>
2.1723001

>  <SlogP_VSA0>
22.433765

>  <SlogP_VSA1>
3.1243138

>  <SlogP_VSA2>
13.843261

>  <SlogP_VSA3>
114.40482

>  <SlogP_VSA4>
0

>  <SlogP_VSA5>
0

>  <SlogP_VSA6>
0

>  <SlogP_VSA7>
0

>  <SlogP_VSA8>
0

>  <SlogP_VSA9>
174.52844

>  <SMR>
7.0419002

>  <SMR_VSA0>
36.277027

>  <SMR_VSA1>
3.1243138

>  <SMR_VSA2>
0

>  <SMR_VSA3>
0

>  <SMR_VSA4>
0

>  <SMR_VSA5>
0

>  <SMR_VSA6>
114.40482

>  <SMR_VSA7>
174.52844

>  <TPSA>
38.77

>  <VAdjEq>
0.521222

>  <VAdjMa>
4.9068904

>  <VDistEq>
3.0680385

>  <VDistMa>
7.6883459

>  <vdw_area>
319.5528

>  <vdw_vol>
355.6395

>  <vsa_acc>
25.061081

>  <vsa_acid>
0

>  <vsa_base>
0

>  <vsa_don>
0

>  <vsa_hyd>
240.43382

>  <vsa_other>
36.9748

>  <vsa_pol>
25.061081

>  <Weight>
269.34601

>  <weinerPath>
507

>  <weinerPol>
19

>  <zagreb>
66

$$$$