Oc1ccc(cc1)CC(NC(=O)c1ccccc1)C(=O)Nc1ccc(cc1)C(O)=O
  MOE2013           2D

 30 32  0  0  1  0  0  0  0  0999 V2000
    0.0000    0.0000    0.0000 O   0  0  0  0  0  0  0  0  0  0  0  0
    1.5000   -0.0060    0.0000 C   0  0  0  0  0  0  0  0  0  0  0  0
    2.2450   -1.3080    0.0000 C   0  0  0  0  0  0  0  0  0  0  0  0
    3.7450   -1.3130    0.0000 C   0  0  0  0  0  0  0  0  0  0  0  0
    4.5000   -0.0170    0.0000 C   0  0  0  0  0  0  0  0  0  0  0  0
    3.7550    1.2850    0.0000 C   0  0  0  0  0  0  0  0  0  0  0  0
    2.2550    1.2900    0.0000 C   0  0  0  0  0  0  0  0  0  0  0  0
    6.0000   -0.0230    0.0000 C   0  0  0  0  0  0  0  0  0  0  0  0
    6.7550    1.2730    0.0000 C   0  0  3  0  0  0  0  0  0  0  0  0
    6.0100    2.5750    0.0000 N   0  0  0  0  0  0  0  0  0  0  0  0
    6.7650    3.8710    0.0000 C   0  0  0  0  0  0  0  0  0  0  0  0
    8.2650    3.8660    0.0000 O   0  0  0  0  0  0  0  0  0  0  0  0
    6.0200    5.1730    0.0000 C   0  0  0  0  0  0  0  0  0  0  0  0
    4.5200    5.1790    0.0000 C   0  0  0  0  0  0  0  0  0  0  0  0
    3.7750    6.4810    0.0000 C   0  0  0  0  0  0  0  0  0  0  0  0
    4.5300    7.7770    0.0000 C   0  0  0  0  0  0  0  0  0  0  0  0
    6.0300    7.7710    0.0000 C   0  0  0  0  0  0  0  0  0  0  0  0
    6.7750    6.4690    0.0000 C   0  0  0  0  0  0  0  0  0  0  0  0
    8.2550    1.2670    0.0000 C   0  0  0  0  0  0  0  0  0  0  0  0
    9.0100    2.5640    0.0000 O   0  0  0  0  0  0  0  0  0  0  0  0
    9.0000   -0.0340    0.0000 N   0  0  0  0  0  0  0  0  0  0  0  0
   10.5000   -0.0400    0.0000 C   0  0  0  0  0  0  0  0  0  0  0  0
   11.2450   -1.3420    0.0000 C   0  0  0  0  0  0  0  0  0  0  0  0
   12.7450   -1.3480    0.0000 C   0  0  0  0  0  0  0  0  0  0  0  0
   13.5000   -0.0520    0.0000 C   0  0  0  0  0  0  0  0  0  0  0  0
   12.7550    1.2500    0.0000 C   0  0  0  0  0  0  0  0  0  0  0  0
   11.2550    1.2560    0.0000 C   0  0  0  0  0  0  0  0  0  0  0  0
   15.0000   -0.0570    0.0000 C   0  0  0  0  0  0  0  0  0  0  0  0
   15.7450   -1.3590    0.0000 O   0  0  0  0  0  0  0  0  0  0  0  0
   15.7550    1.2390    0.0000 O   0  0  0  0  0  0  0  0  0  0  0  0
  1  2  1  0  0  0  0
  2  3  1  0  0  0  0
  2  7  2  0  0  0  0
  3  4  2  0  0  0  0
  4  5  1  0  0  0  0
  5  6  2  0  0  0  0
  5  8  1  0  0  0  0
  6  7  1  0  0  0  0
  8  9  1  0  0  0  0
  9 10  1  0  0  0  0
  9 19  1  0  0  0  0
 10 11  1  0  0  0  0
 11 12  2  0  0  0  0
 11 13  1  0  0  0  0
 13 14  1  0  0  0  0
 13 18  2  0  0  0  0
 14 15  2  0  0  0  0
 15 16  1  0  0  0  0
 16 17  2  0  0  0  0
 17 18  1  0  0  0  0
 19 20  2  0  0  0  0
 19 21  1  0  0  0  0
 21 22  1  0  0  0  0
 22 23  1  0  0  0  0
 22 27  2  0  0  0  0
 23 24  2  0  0  0  0
 24 25  1  0  0  0  0
 25 26  2  0  0  0  0
 25 28  1  0  0  0  0
 26 27  1  0  0  0  0
 28 29  1  0  0  0  0
 28 30  2  0  0  0  0
M  END
>  <Index>
119

>  <ID>
HT0241

>  <class>
0

>  <apol>
60.02586

>  <ast_fraglike>
0

>  <ast_fraglike_ext>
0

>  <ast_violation>
4

>  <ast_violation_ext>
6

>  <a_acc>
5

>  <a_acid>
0

>  <a_aro>
18

>  <a_base>
0

>  <a_count>
50

>  <a_don>
5

>  <a_donacc>
10

>  <a_heavy>
30

>  <a_hyd>
20

>  <a_IC>
78.102684

>  <a_ICM>
1.5620537

>  <a_nB>
0

>  <a_nBr>
0

>  <a_nC>
23

>  <a_nCl>
0

>  <a_nF>
0

>  <a_nH>
20

>  <a_nI>
0

>  <a_nN>
2

>  <a_nO>
5

>  <a_nP>
0

>  <a_nS>
0

>  <balabanJ>
1.5479367

>  <BCUT_PEOE_0>
-2.515342

>  <BCUT_PEOE_1>
-0.64291567

>  <BCUT_PEOE_2>
0.70152384

>  <BCUT_PEOE_3>
2.5404294

>  <BCUT_SLOGP_0>
-2.7269049

>  <BCUT_SLOGP_1>
-0.53807992

>  <BCUT_SLOGP_2>
0.80591482

>  <BCUT_SLOGP_3>
2.4556251

>  <BCUT_SMR_0>
-2.2461598

>  <BCUT_SMR_1>
-0.49986199

>  <BCUT_SMR_2>
0.85431087

>  <BCUT_SMR_3>
2.8038449

>  <bpol>
26.05814

>  <b_1rotN>
7

>  <b_1rotR>
0.21875

>  <b_ar>
18

>  <b_count>
52

>  <b_double>
3

>  <b_heavy>
32

>  <b_max1len>
4

>  <b_rotN>
9

>  <b_rotR>
0.28125

>  <b_single>
31

>  <b_triple>
0

>  <chi0>
21.509861

>  <chi0v>
15.909183

>  <chi0v_C>
12.79001

>  <chi0_C>
15.095648

>  <chi1>
14.418724

>  <chi1v>
9.2021561

>  <chi1v_C>
7.1038947

>  <chi1_C>
9.8989792

>  <chiral>
1

>  <chiral_u>
1

>  <density>
0.75717622

>  <diameter>
14

>  <FCharge>
0

>  <GCUT_PEOE_0>
-0.81494433

>  <GCUT_PEOE_1>
-0.45628482

>  <GCUT_PEOE_2>
0.11113454

>  <GCUT_PEOE_3>
2.6037698

>  <GCUT_SLOGP_0>
-1.1621674

>  <GCUT_SLOGP_1>
-0.36026224

>  <GCUT_SLOGP_2>
0.16445385

>  <GCUT_SLOGP_3>
2.6367753

>  <GCUT_SMR_0>
-0.4966287

>  <GCUT_SMR_1>
-0.22951761

>  <GCUT_SMR_2>
0.21454443

>  <GCUT_SMR_3>
2.8845017

>  <Kier1>
24.638672

>  <Kier2>
12.296376

>  <Kier3>
7.8284025

>  <KierA1>
16.671856

>  <KierA2>
8.1984158

>  <KierA3>
5.1650143

>  <KierFlex>
4.5560937

>  <lip_acc>
7

>  <lip_don>
4

>  <lip_druglike>
1

>  <lip_violation>
0

>  <logP(o/w)>
3.352

>  <logS>
-4.9642601

>  <mr>
11.265543

>  <mutagenic>
0

>  <nmol>
1

>  <opr_brigid>
18

>  <opr_leadlike>
1

>  <opr_nring>
3

>  <opr_nrot>
7

>  <opr_violation>
0

>  <PC+>
0

>  <PC->
0

>  <PEOE_PC+>
2.8216245

>  <PEOE_PC->
-2.8216245

>  <PEOE_RPC+>
0.1032162

>  <PEOE_RPC->
0.12752666

>  <PEOE_VSA+0>
28.348715

>  <PEOE_VSA+1>
68.173927

>  <PEOE_VSA+2>
3.1459606

>  <PEOE_VSA+3>
17.238026

>  <PEOE_VSA+4>
33.597878

>  <PEOE_VSA+5>
27.65803

>  <PEOE_VSA+6>
0

>  <PEOE_VSA-0>
100.24777

>  <PEOE_VSA-1>
61.274521

>  <PEOE_VSA-2>
0

>  <PEOE_VSA-3>
0

>  <PEOE_VSA-4>
0

>  <PEOE_VSA-5>
40.700764

>  <PEOE_VSA-6>
15.808863

>  <PEOE_VSA_FHYD>
0.70275825

>  <PEOE_VSA_FNEG>
0.55031544

>  <PEOE_VSA_FPNEG>
0.14263104

>  <PEOE_VSA_FPOL>
0.29724175

>  <PEOE_VSA_FPOS>
0.44968459

>  <PEOE_VSA_FPPOS>
0.15461071

>  <PEOE_VSA_HYD>
278.42892

>  <PEOE_VSA_NEG>
218.03192

>  <PEOE_VSA_PNEG>
56.509624

>  <PEOE_VSA_POL>
117.76553

>  <PEOE_VSA_POS>
178.16254

>  <PEOE_VSA_PPOS>
61.255905

>  <petitjean>
0.5

>  <petitjeanSC>
1

>  <Q_PC+>
0

>  <Q_PC->
0

>  <Q_RPC+>
0

>  <Q_RPC->
0

>  <Q_VSA_FHYD>
1

>  <Q_VSA_FNEG>
0

>  <Q_VSA_FPNEG>
0

>  <Q_VSA_FPOL>
0

>  <Q_VSA_FPOS>
1

>  <Q_VSA_FPPOS>
0

>  <Q_VSA_HYD>
396.19446

>  <Q_VSA_NEG>
0

>  <Q_VSA_PNEG>
0

>  <Q_VSA_POL>
0

>  <Q_VSA_POS>
396.19446

>  <Q_VSA_PPOS>
0

>  <radius>
7

>  <reactive>
0

>  <rings>
3

>  <RPC+>
0

>  <RPC->
0

>  <rsynth>
1

>  <SlogP>
3.0701699

>  <SlogP_VSA0>
43.395977

>  <SlogP_VSA1>
36.273781

>  <SlogP_VSA2>
27.844185

>  <SlogP_VSA3>
25.385227

>  <SlogP_VSA4>
57.281158

>  <SlogP_VSA5>
18.868406

>  <SlogP_VSA6>
0

>  <SlogP_VSA7>
229.36139

>  <SlogP_VSA8>
0

>  <SlogP_VSA9>
8.0001755

>  <SMR>
11.1538

>  <SMR_VSA0>
71.586647

>  <SMR_VSA1>
25.385227

>  <SMR_VSA2>
43.395977

>  <SMR_VSA3>
18.782122

>  <SMR_VSA4>
20.767498

>  <SMR_VSA5>
248.2298

>  <SMR_VSA6>
18.263031

>  <SMR_VSA7>
0

>  <TPSA>
115.73

>  <VAdjEq>
0.37005648

>  <VAdjMa>
6

>  <VDistEq>
3.6397929

>  <VDistMa>
9.5391121

>  <vdw_area>
396.19446

>  <vdw_vol>
534.11871

>  <vsa_acc>
27.133842

>  <vsa_acid>
0

>  <vsa_base>
0

>  <vsa_don>
11.365152

>  <vsa_hyd>
249.80217

>  <vsa_other>
40.607563

>  <vsa_pol>
79.199753

>  <Weight>
404.422

>  <weinerPath>
2664

>  <weinerPol>
43

>  <zagreb>
150

$$$$