Oc1cc2[C@@]34CCCC[C@@]3(O)[C@H](N(CC4)CC3CCC3)Cc2cc1
  MOE2013           2D

 24 28  0  0  1  0  0  0  0  0999 V2000
    0.0000    0.0000    0.0000 O   0  0  0  0  0  0  0  0  0  0  0  0
    1.5000   -0.0100    0.0000 C   0  0  0  0  0  0  0  0  0  0  0  0
    2.2590    1.2840    0.0000 C   0  0  0  0  0  0  0  0  0  0  0  0
    3.7810    1.2490    0.0000 C   0  0  0  0  0  0  0  0  0  0  0  0
    4.5470    2.5000    0.0000 C   0  0  1  0  0  0  0  0  0  0  0  0
    3.8500    3.7990    0.0000 C   0  0  0  0  0  0  0  0  0  0  0  0
    4.6160    5.0500    0.0000 C   0  0  0  0  0  0  0  0  0  0  0  0
    6.0910    5.0200    0.0000 C   0  0  0  0  0  0  0  0  0  0  0  0
    6.7890    3.7200    0.0000 C   0  0  0  0  0  0  0  0  0  0  0  0
    6.0220    2.4690    0.0000 C   0  0  2  0  0  0  0  0  0  0  0  0
    7.5220    2.4300    0.0000 O   0  0  0  0  0  0  0  0  0  0  0  0
    6.6910    1.2130    0.0000 C   0  0  2  0  0  0  0  0  0  0  0  0
    8.1120    1.1860    0.0000 N   0  0  3  0  0  0  0  0  0  0  0  0
    6.8410    0.2180    0.0000 C   0  0  0  0  0  0  0  0  0  0  0  0
    5.2360    1.2320    0.0000 C   0  0  0  0  0  0  0  0  0  0  0  0
    9.5380    1.6520    0.0000 C   0  0  0  0  0  0  0  0  0  0  0  0
   10.6540    0.6500    0.0000 C   0  0  0  0  0  0  0  0  0  0  0  0
   10.7350   -0.8470    0.0000 C   0  0  0  0  0  0  0  0  0  0  0  0
   12.2330   -0.7660    0.0000 C   0  0  0  0  0  0  0  0  0  0  0  0
   12.1520    0.7320    0.0000 C   0  0  0  0  0  0  0  0  0  0  0  0
    5.9530   -0.0820    0.0000 C   0  0  0  0  0  0  0  0  0  0  0  0
    4.4910   -0.0310    0.0000 C   0  0  0  0  0  0  0  0  0  0  0  0
    3.7410   -1.3250    0.0000 C   0  0  0  0  0  0  0  0  0  0  0  0
    2.2410   -1.3140    0.0000 C   0  0  0  0  0  0  0  0  0  0  0  0
  1  2  1  0  0  0  0
  2  3  1  0  0  0  0
  2 24  2  0  0  0  0
  3  4  2  0  0  0  0
  4  5  1  0  0  0  0
  4 22  1  0  0  0  0
  5  6  1  0  0  0  0
  5 10  1  0  0  0  0
  5 15  1  6  0  0  0
  6  7  1  0  0  0  0
  7  8  1  0  0  0  0
  8  9  1  0  0  0  0
  9 10  1  0  0  0  0
 10 11  1  6  0  0  0
 10 12  1  0  0  0  0
 12 13  1  0  0  0  0
 12 21  1  6  0  0  0
 13 14  1  0  0  0  0
 13 16  1  0  0  0  0
 14 15  1  0  0  0  0
 16 17  1  0  0  0  0
 17 18  1  0  0  0  0
 17 20  1  0  0  0  0
 18 19  1  0  0  0  0
 19 20  1  0  0  0  0
 21 22  1  0  0  0  0
 22 23  2  0  0  0  0
 23 24  1  0  0  0  0
M  END
>  <Index>
172

>  <ID>
HT0341

>  <class>
0

>  <apol>
59.000996

>  <ast_fraglike>
0

>  <ast_fraglike_ext>
0

>  <ast_violation>
2

>  <ast_violation_ext>
2

>  <a_acc>
3

>  <a_acid>
0

>  <a_aro>
6

>  <a_base>
0

>  <a_count>
53

>  <a_don>
2

>  <a_donacc>
5

>  <a_heavy>
24

>  <a_hyd>
21

>  <a_IC>
68.459671

>  <a_ICM>
1.2916919

>  <a_nB>
0

>  <a_nBr>
0

>  <a_nC>
21

>  <a_nCl>
0

>  <a_nF>
0

>  <a_nH>
29

>  <a_nI>
0

>  <a_nN>
1

>  <a_nO>
2

>  <a_nP>
0

>  <a_nS>
0

>  <balabanJ>
1.4850994

>  <BCUT_PEOE_0>
-2.9467697

>  <BCUT_PEOE_1>
-0.57109654

>  <BCUT_PEOE_2>
0.61709058

>  <BCUT_PEOE_3>
2.9158492

>  <BCUT_SLOGP_0>
-2.9899378

>  <BCUT_SLOGP_1>
-0.50080705

>  <BCUT_SLOGP_2>
0.67963219

>  <BCUT_SLOGP_3>
2.9246702

>  <BCUT_SMR_0>
-2.6890571

>  <BCUT_SMR_1>
-0.43391007

>  <BCUT_SMR_2>
0.76162505

>  <BCUT_SMR_3>
3.169194

>  <bpol>
33.683002

>  <b_1rotN>
2

>  <b_1rotR>
0.071428575

>  <b_ar>
6

>  <b_count>
57

>  <b_double>
0

>  <b_heavy>
28

>  <b_max1len>
3

>  <b_rotN>
2

>  <b_rotR>
0.071428575

>  <b_single>
51

>  <b_triple>
0

>  <chi0>
16.363596

>  <chi0v>
14.506567

>  <chi0v_C>
13.164926

>  <chi0_C>
13.786246

>  <chi1>
11.622759

>  <chi1v>
9.9117842

>  <chi1v_C>
8.5739155

>  <chi1_C>
9.3955784

>  <chiral>
3

>  <chiral_u>
0

>  <density>
0.68988472

>  <diameter>
11

>  <FCharge>
0

>  <GCUT_PEOE_0>
-0.85932159

>  <GCUT_PEOE_1>
-0.38933268

>  <GCUT_PEOE_2>
0.033342104

>  <GCUT_PEOE_3>
3.2198269

>  <GCUT_SLOGP_0>
-0.96076322

>  <GCUT_SLOGP_1>
-0.31785125

>  <GCUT_SLOGP_2>
0.10960802

>  <GCUT_SLOGP_3>
3.2600219

>  <GCUT_SMR_0>
-0.58726293

>  <GCUT_SMR_1>
-0.22777903

>  <GCUT_SMR_2>
0.15305643

>  <GCUT_SMR_3>
3.4587994

>  <Kier1>
16.193878

>  <Kier2>
5.75

>  <Kier3>
2.2642014

>  <KierA1>
14.622926

>  <KierA2>
5.1680827

>  <KierA3>
2.0282538

>  <KierFlex>
3.1488538

>  <lip_acc>
3

>  <lip_don>
2

>  <lip_druglike>
1

>  <lip_violation>
0

>  <logP(o/w)>
3.7590001

>  <logS>
-3.4502101

>  <mr>
9.429081

>  <mutagenic>
0

>  <nmol>
1

>  <opr_brigid>
24

>  <opr_leadlike>
1

>  <opr_nring>
5

>  <opr_nrot>
2

>  <opr_violation>
1

>  <PC+>
0

>  <PC->
0

>  <PEOE_PC+>
1.6122768

>  <PEOE_PC->
-1.6122768

>  <PEOE_RPC+>
0.13478667

>  <PEOE_RPC->
0.23949642

>  <PEOE_VSA+0>
131.89987

>  <PEOE_VSA+1>
21.254677

>  <PEOE_VSA+2>
0

>  <PEOE_VSA+3>
0

>  <PEOE_VSA+4>
20.648346

>  <PEOE_VSA+5>
0

>  <PEOE_VSA+6>
0

>  <PEOE_VSA-0>
81.134766

>  <PEOE_VSA-1>
38.358845

>  <PEOE_VSA-2>
0

>  <PEOE_VSA-3>
0

>  <PEOE_VSA-4>
0

>  <PEOE_VSA-5>
0

>  <PEOE_VSA-6>
15.535081

>  <PEOE_VSA_FHYD>
0.88283765

>  <PEOE_VSA_FNEG>
0.43722436

>  <PEOE_VSA_FPNEG>
0.050302759

>  <PEOE_VSA_FPOL>
0.11716232

>  <PEOE_VSA_FPOS>
0.56277567

>  <PEOE_VSA_FPPOS>
0.066859566

>  <PEOE_VSA_HYD>
272.64816

>  <PEOE_VSA_NEG>
135.02869

>  <PEOE_VSA_PNEG>
15.535081

>  <PEOE_VSA_POL>
36.183426

>  <PEOE_VSA_POS>
173.8029

>  <PEOE_VSA_PPOS>
20.648346

>  <petitjean>
0.45454547

>  <petitjeanSC>
0.83333331

>  <Q_PC+>
0

>  <Q_PC->
0

>  <Q_RPC+>
0

>  <Q_RPC->
0

>  <Q_VSA_FHYD>
1

>  <Q_VSA_FNEG>
0

>  <Q_VSA_FPNEG>
0

>  <Q_VSA_FPOL>
0

>  <Q_VSA_FPOS>
1

>  <Q_VSA_FPPOS>
0

>  <Q_VSA_HYD>
308.83157

>  <Q_VSA_NEG>
0

>  <Q_VSA_PNEG>
0

>  <Q_VSA_POL>
0

>  <Q_VSA_POS>
308.83157

>  <Q_VSA_PPOS>
0

>  <radius>
6

>  <reactive>
0

>  <rings>
5

>  <RPC+>
0

>  <RPC->
0

>  <rsynth>
0

>  <SlogP>
3.3655701

>  <SlogP_VSA0>
50.770454

>  <SlogP_VSA1>
3.1243138

>  <SlogP_VSA2>
3.9819686

>  <SlogP_VSA3>
36.879158

>  <SlogP_VSA4>
10.781946

>  <SlogP_VSA5>
18.868406

>  <SlogP_VSA6>
0

>  <SlogP_VSA7>
52.929554

>  <SlogP_VSA8>
150.94725

>  <SlogP_VSA9>
5.2434282

>  <SMR>
9.4225597

>  <SMR_VSA0>
0

>  <SMR_VSA1>
53.894768

>  <SMR_VSA2>
4.4107962

>  <SMR_VSA3>
15.596547

>  <SMR_VSA4>
0

>  <SMR_VSA5>
222.74521

>  <SMR_VSA6>
36.879158

>  <SMR_VSA7>
0

>  <TPSA>
43.700001

>  <VAdjEq>
0.46012789

>  <VAdjMa>
5.8073549

>  <VDistEq>
3.0552919

>  <VDistMa>
8.9095345

>  <vdw_area>
308.83157

>  <vdw_vol>
474.67062

>  <vsa_acc>
0

>  <vsa_acid>
0

>  <vsa_base>
0

>  <vsa_don>
0

>  <vsa_hyd>
252.08464

>  <vsa_other>
0

>  <vsa_pol>
27.133842

>  <Weight>
327.46799

>  <weinerPath>
1145

>  <weinerPol>
50

>  <zagreb>
144

$$$$