S(CCC)c1nc(N[C@@H]2C[C@H]2c2cc(F)c(F)cc2)c2nnn(c2n1)[C@@H]1C[C@H](OCCO)[C@@H](O)[C@H]1O
  MOE2013           2D

 36 40  0  0  1  0  0  0  0  0999 V2000
    0.0000    0.0000    0.0000 S   0  0  0  0  0  0  0  0  0  0  0  0
   -1.2980   -0.7520    0.0000 C   0  0  0  0  0  0  0  0  0  0  0  0
   -1.2960   -2.2520    0.0000 C   0  0  0  0  0  0  0  0  0  0  0  0
   -2.5930   -3.0040    0.0000 C   0  0  0  0  0  0  0  0  0  0  0  0
   -0.0020    1.5000    0.0000 C   0  0  0  0  0  0  0  0  0  0  0  0
   -1.3030    2.2480    0.0000 N   0  0  0  0  0  0  0  0  0  0  0  0
   -1.3050    3.7480    0.0000 C   0  0  0  0  0  0  0  0  0  0  0  0
   -2.6050    4.4960    0.0000 N   0  0  0  0  0  0  0  0  0  0  0  0
   -3.9030    3.7440    0.0000 C   0  0  2  0  0  0  0  0  0  0  0  0
   -4.6510    2.4440    0.0000 C   0  0  0  0  0  0  0  0  0  0  0  0
   -5.4030    3.7420    0.0000 C   0  0  1  0  0  0  0  0  0  0  0  0
   -6.7030    4.4900    0.0000 C   0  0  0  0  0  0  0  0  0  0  0  0
   -8.0010    3.7380    0.0000 C   0  0  0  0  0  0  0  0  0  0  0  0
   -9.3010    4.4860    0.0000 C   0  0  0  0  0  0  0  0  0  0  0  0
  -10.5990    3.7340    0.0000 F   0  0  0  0  0  0  0  0  0  0  0  0
   -9.3040    5.9860    0.0000 C   0  0  0  0  0  0  0  0  0  0  0  0
  -10.6040    6.7340    0.0000 F   0  0  0  0  0  0  0  0  0  0  0  0
   -8.0060    6.7380    0.0000 C   0  0  0  0  0  0  0  0  0  0  0  0
   -6.7050    5.9900    0.0000 C   0  0  0  0  0  0  0  0  0  0  0  0
   -0.0070    4.5000    0.0000 C   0  0  0  0  0  0  0  0  0  0  0  0
    0.3030    5.9680    0.0000 N   0  0  0  0  0  0  0  0  0  0  0  0
    1.7940    6.1270    0.0000 N   0  0  0  0  0  0  0  0  0  0  0  0
    2.4060    4.7570    0.0000 N   0  0  0  0  0  0  0  0  0  0  0  0
    1.2930    3.7520    0.0000 C   0  0  0  0  0  0  0  0  0  0  0  0
    1.2960    2.2520    0.0000 N   0  0  0  0  0  0  0  0  0  0  0  0
    3.8740    4.4480    0.0000 C   0  0  2  0  0  0  0  0  0  0  0  0
    4.4860    3.0780    0.0000 C   0  0  0  0  0  0  0  0  0  0  0  0
    5.9780    3.2380    0.0000 C   0  0  2  0  0  0  0  0  0  0  0  0
    6.9830    2.1240    0.0000 O   0  0  0  0  0  0  0  0  0  0  0  0
    8.4500    2.4390    0.0000 C   0  0  0  0  0  0  0  0  0  0  0  0
    9.4550    1.3250    0.0000 C   0  0  0  0  0  0  0  0  0  0  0  0
   10.9220    1.6400    0.0000 O   0  0  0  0  0  0  0  0  0  0  0  0
    6.2870    4.7050    0.0000 C   0  0  1  0  0  0  0  0  0  0  0  0
    7.6570    5.3180    0.0000 O   0  0  0  0  0  0  0  0  0  0  0  0
    4.9870    5.4530    0.0000 C   0  0  1  0  0  0  0  0  0  0  0  0
    4.8280    6.9450    0.0000 O   0  0  0  0  0  0  0  0  0  0  0  0
  1  2  1  0  0  0  0
  1  5  1  0  0  0  0
  2  3  1  0  0  0  0
  3  4  1  0  0  0  0
  5  6  1  0  0  0  0
  5 25  2  0  0  0  0
  6  7  2  0  0  0  0
  7  8  1  0  0  0  0
  7 20  1  0  0  0  0
  9  8  1  6  0  0  0
  9 10  1  0  0  0  0
  9 11  1  0  0  0  0
 10 11  1  0  0  0  0
 11 12  1  1  0  0  0
 12 13  1  0  0  0  0
 12 19  2  0  0  0  0
 13 14  2  0  0  0  0
 14 15  1  0  0  0  0
 14 16  1  0  0  0  0
 16 17  1  0  0  0  0
 16 18  2  0  0  0  0
 18 19  1  0  0  0  0
 20 21  1  0  0  0  0
 20 24  2  0  0  0  0
 21 22  2  0  0  0  0
 22 23  1  0  0  0  0
 23 24  1  0  0  0  0
 24 25  1  0  0  0  0
 26 23  1  1  0  0  0
 26 27  1  0  0  0  0
 26 35  1  0  0  0  0
 27 28  1  0  0  0  0
 28 29  1  1  0  0  0
 28 33  1  0  0  0  0
 29 30  1  0  0  0  0
 30 31  1  0  0  0  0
 31 32  1  0  0  0  0
 33 34  1  6  0  0  0
 33 35  1  0  0  0  0
 35 36  1  6  0  0  0
M  END
>  <Index>
1074

>  <ID>
HT2056

>  <class>
0

>  <apol>
72.972206

>  <ast_fraglike>
0

>  <ast_fraglike_ext>
0

>  <ast_violation>
3

>  <ast_violation_ext>
5

>  <a_acc>
8

>  <a_acid>
0

>  <a_aro>
15

>  <a_base>
0

>  <a_count>
64

>  <a_don>
4

>  <a_donacc>
12

>  <a_heavy>
36

>  <a_hyd>
23

>  <a_IC>
119.84236

>  <a_ICM>
1.8725369

>  <a_nB>
0

>  <a_nBr>
0

>  <a_nC>
23

>  <a_nCl>
0

>  <a_nF>
2

>  <a_nH>
28

>  <a_nI>
0

>  <a_nN>
6

>  <a_nO>
4

>  <a_nP>
0

>  <a_nS>
1

>  <balabanJ>
1.2329805

>  <BCUT_PEOE_0>
-2.5486851

>  <BCUT_PEOE_1>
-0.66013002

>  <BCUT_PEOE_2>
0.68670189

>  <BCUT_PEOE_3>
2.8178134

>  <BCUT_SLOGP_0>
-2.6875639

>  <BCUT_SLOGP_1>
-0.60915142

>  <BCUT_SLOGP_2>
0.6143145

>  <BCUT_SLOGP_3>
2.8276582

>  <BCUT_SMR_0>
-2.3254735

>  <BCUT_SMR_1>
-0.49335092

>  <BCUT_SMR_2>
0.85429859

>  <BCUT_SMR_3>
3.0527191

>  <bpol>
42.491795

>  <b_1rotN>
10

>  <b_1rotR>
0.25

>  <b_ar>
16

>  <b_count>
68

>  <b_double>
0

>  <b_heavy>
40

>  <b_max1len>
6

>  <b_rotN>
10

>  <b_rotR>
0.25

>  <b_single>
52

>  <b_triple>
0

>  <chi0>
25.396612

>  <chi0v>
20.405424

>  <chi0v_C>
13.938793

>  <chi0_C>
14.869514

>  <chi1>
17.405416

>  <chi1v>
12.952023

>  <chi1v_C>
7.2001424

>  <chi1_C>
8.13976

>  <chiral>
6

>  <chiral_u>
0

>  <density>
0.83766371

>  <diameter>
18

>  <FCharge>
0

>  <GCUT_PEOE_0>
-0.803195

>  <GCUT_PEOE_1>
-0.41570216

>  <GCUT_PEOE_2>
0.081074521

>  <GCUT_PEOE_3>
2.8493018

>  <GCUT_SLOGP_0>
-0.97820717

>  <GCUT_SLOGP_1>
-0.37743655

>  <GCUT_SLOGP_2>
0.13687018

>  <GCUT_SLOGP_3>
2.8627527

>  <GCUT_SMR_0>
-0.52715081

>  <GCUT_SMR_1>
-0.23584495

>  <GCUT_SMR_2>
0.22143149

>  <GCUT_SMR_3>
3.0939124

>  <Kier1>
27.5625

>  <Kier2>
12.027349

>  <Kier3>
5.6734085

>  <KierA1>
23.271381

>  <KierA2>
10.103423

>  <KierA3>
4.7489481

>  <KierFlex>
6.5311284

>  <lip_acc>
10

>  <lip_don>
4

>  <lip_druglike>
1

>  <lip_violation>
1

>  <logP(o/w)>
1.95459

>  <logS>
-5.5079999

>  <mr>
13.090354

>  <mutagenic>
0

>  <nmol>
1

>  <opr_brigid>
24

>  <opr_leadlike>
0

>  <opr_nring>
5

>  <opr_nrot>
11

>  <opr_violation>
4

>  <PC+>
0

>  <PC->
0

>  <PEOE_PC+>
3.3906591

>  <PEOE_PC->
-3.3906591

>  <PEOE_RPC+>
0.061935417

>  <PEOE_RPC->
0.11583144

>  <PEOE_VSA+0>
77.97467

>  <PEOE_VSA+1>
84.872719

>  <PEOE_VSA+2>
29.619432

>  <PEOE_VSA+3>
49.098431

>  <PEOE_VSA+4>
30.972517

>  <PEOE_VSA+5>
0

>  <PEOE_VSA+6>
0

>  <PEOE_VSA-0>
44.120975

>  <PEOE_VSA-1>
63.922703

>  <PEOE_VSA-2>
9.4210396

>  <PEOE_VSA-3>
0

>  <PEOE_VSA-4>
35.182423

>  <PEOE_VSA-5>
0.13689101

>  <PEOE_VSA-6>
25.806377

>  <PEOE_VSA_FHYD>
0.79584914

>  <PEOE_VSA_FNEG>
0.3958751

>  <PEOE_VSA_FPNEG>
0.13549517

>  <PEOE_VSA_FPOL>
0.20415087

>  <PEOE_VSA_FPOS>
0.6041249

>  <PEOE_VSA_FPPOS>
0.068655692

>  <PEOE_VSA_HYD>
359.02997

>  <PEOE_VSA_NEG>
178.59041

>  <PEOE_VSA_PNEG>
61.12569

>  <PEOE_VSA_POL>
92.098206

>  <PEOE_VSA_POS>
272.53778

>  <PEOE_VSA_PPOS>
30.972517

>  <petitjean>
0.5

>  <petitjeanSC>
1

>  <Q_PC+>
0

>  <Q_PC->
0

>  <Q_RPC+>
0

>  <Q_RPC->
0

>  <Q_VSA_FHYD>
1

>  <Q_VSA_FNEG>
0

>  <Q_VSA_FPNEG>
0

>  <Q_VSA_FPOL>
0

>  <Q_VSA_FPOS>
1

>  <Q_VSA_FPPOS>
0

>  <Q_VSA_HYD>
451.12817

>  <Q_VSA_NEG>
0

>  <Q_VSA_PNEG>
0

>  <Q_VSA_POL>
0

>  <Q_VSA_POS>
451.12817

>  <Q_VSA_PPOS>
0

>  <radius>
9

>  <reactive>
0

>  <rings>
5

>  <RPC+>
0

>  <RPC->
0

>  <rsynth>
0.44444445

>  <SlogP>
2.1092

>  <SlogP_VSA0>
76.155678

>  <SlogP_VSA1>
86.561874

>  <SlogP_VSA2>
52.629841

>  <SlogP_VSA3>
59.086082

>  <SlogP_VSA4>
3.185575

>  <SlogP_VSA5>
0.69307917

>  <SlogP_VSA6>
4.4107962

>  <SlogP_VSA7>
56.789001

>  <SlogP_VSA8>
60.587185

>  <SlogP_VSA9>
97.793701

>  <SMR>
12.78651

>  <SMR_VSA0>
10.999887

>  <SMR_VSA1>
174.62703

>  <SMR_VSA2>
18.935116

>  <SMR_VSA3>
34.966255

>  <SMR_VSA4>
24.198118

>  <SMR_VSA5>
109.53477

>  <SMR_VSA6>
59.086082

>  <SMR_VSA7>
65.545555

>  <TPSA>
138.44

>  <VAdjEq>
0.33426812

>  <VAdjMa>
6.321928

>  <VDistEq>
3.8475564

>  <VDistMa>
10.057143

>  <vdw_area>
451.12817

>  <vdw_vol>
623.85059

>  <vsa_acc>
36.449451

>  <vsa_acid>
0

>  <vsa_base>
0

>  <vsa_don>
5.6825762

>  <vsa_hyd>
297.67178

>  <vsa_other>
35.547749

>  <vsa_pol>
82.832787

>  <Weight>
522.57697

>  <weinerPath>
4243

>  <weinerPol>
59

>  <zagreb>
196

$$$$