Oc1c2c(cccc2)c(N)cc1C
  MOE2013           2D

 13 14  0  0  0  0  0  0  0  0999 V2000
    0.0000    0.0000    0.0000 O   0  0  0  0  0  0  0  0  0  0  0  0
   -0.7450   -1.3020    0.0000 C   0  0  0  0  0  0  0  0  0  0  0  0
   -2.2450   -1.3080    0.0000 C   0  0  0  0  0  0  0  0  0  0  0  0
   -2.9890   -2.6100    0.0000 C   0  0  0  0  0  0  0  0  0  0  0  0
   -4.4890   -2.6170    0.0000 C   0  0  0  0  0  0  0  0  0  0  0  0
   -5.2450   -1.3210    0.0000 C   0  0  0  0  0  0  0  0  0  0  0  0
   -4.5000   -0.0190    0.0000 C   0  0  0  0  0  0  0  0  0  0  0  0
   -3.0000   -0.0120    0.0000 C   0  0  0  0  0  0  0  0  0  0  0  0
   -2.2340   -3.9060    0.0000 C   0  0  0  0  0  0  0  0  0  0  0  0
   -2.9780   -5.2090    0.0000 N   0  0  0  0  0  0  0  0  0  0  0  0
   -0.7340   -3.9000    0.0000 C   0  0  0  0  0  0  0  0  0  0  0  0
    0.0110   -2.5980    0.0000 C   0  0  0  0  0  0  0  0  0  0  0  0
    1.5110   -2.5920    0.0000 C   0  0  0  0  0  0  0  0  0  0  0  0
  1  2  1  0  0  0  0
  2  3  1  0  0  0  0
  2 12  2  0  0  0  0
  3  4  1  0  0  0  0
  3  8  2  0  0  0  0
  4  5  2  0  0  0  0
  4  9  1  0  0  0  0
  5  6  1  0  0  0  0
  6  7  2  0  0  0  0
  7  8  1  0  0  0  0
  9 10  1  0  0  0  0
  9 11  2  0  0  0  0
 11 12  1  0  0  0  0
 12 13  1  0  0  0  0
M  END
>  <Index>
1239

>  <ID>
HT2742

>  <class>
0

>  <apol>
28.596724

>  <ast_fraglike>
1

>  <ast_fraglike_ext>
1

>  <ast_violation>
0

>  <ast_violation_ext>
0

>  <a_acc>
1

>  <a_acid>
0

>  <a_aro>
10

>  <a_base>
0

>  <a_count>
24

>  <a_don>
2

>  <a_donacc>
3

>  <a_heavy>
13

>  <a_hyd>
11

>  <a_IC>
33.931606

>  <a_ICM>
1.4138168

>  <a_nB>
0

>  <a_nBr>
0

>  <a_nC>
11

>  <a_nCl>
0

>  <a_nF>
0

>  <a_nH>
11

>  <a_nI>
0

>  <a_nN>
1

>  <a_nO>
1

>  <a_nP>
0

>  <a_nS>
0

>  <balabanJ>
2.1321476

>  <BCUT_PEOE_0>
-2.3145504

>  <BCUT_PEOE_1>
-0.53897315

>  <BCUT_PEOE_2>
0.61089277

>  <BCUT_PEOE_3>
2.2717338

>  <BCUT_SLOGP_0>
-2.3261898

>  <BCUT_SLOGP_1>
-0.43223226

>  <BCUT_SLOGP_2>
0.69935495

>  <BCUT_SLOGP_3>
2.4839277

>  <BCUT_SMR_0>
-1.9989282

>  <BCUT_SMR_1>
-0.37308666

>  <BCUT_SMR_2>
0.77797103

>  <BCUT_SMR_3>
2.608355

>  <bpol>
11.365277

>  <b_1rotN>
0

>  <b_1rotR>
0

>  <b_ar>
11

>  <b_count>
25

>  <b_double>
0

>  <b_heavy>
14

>  <b_max1len>
2

>  <b_rotN>
0

>  <b_rotR>
0

>  <b_single>
14

>  <b_triple>
0

>  <chi0>
9.4222851

>  <chi0v>
7.4113154

>  <chi0v_C>
6.3867512

>  <chi0_C>
7.4222851

>  <chi1>
6.1983771

>  <chi1v>
4.1669827

>  <chi1v_C>
3.6547005

>  <chi1_C>
5.0436769

>  <chiral>
0

>  <chiral_u>
0

>  <density>
0.69701445

>  <diameter>
6

>  <FCharge>
0

>  <GCUT_PEOE_0>
-0.81049269

>  <GCUT_PEOE_1>
-0.39754072

>  <GCUT_PEOE_2>
0.069758505

>  <GCUT_PEOE_3>
2.3079567

>  <GCUT_SLOGP_0>
-1.3343228

>  <GCUT_SLOGP_1>
-0.22658446

>  <GCUT_SLOGP_2>
0.14659762

>  <GCUT_SLOGP_3>
2.5126703

>  <GCUT_SMR_0>
-0.47888437

>  <GCUT_SMR_1>
-0.17776246

>  <GCUT_SMR_2>
0.19609128

>  <GCUT_SMR_3>
2.6358957

>  <Kier1>
9.5510206

>  <Kier2>
3.6300001

>  <Kier3>
1.6460905

>  <KierA1>
6.5227385

>  <KierA2>
2.3908601

>  <KierA3>
1.0509908

>  <KierFlex>
1.199612

>  <lip_acc>
2

>  <lip_don>
3

>  <lip_druglike>
1

>  <lip_violation>
0

>  <logP(o/w)>
2.477

>  <logS>
-2.78216

>  <mr>
5.2554946

>  <mutagenic>
1

>  <nmol>
1

>  <opr_brigid>
11

>  <opr_leadlike>
1

>  <opr_nring>
2

>  <opr_nrot>
0

>  <opr_violation>
0

>  <PC+>
0

>  <PC->
0

>  <PEOE_PC+>
0.98091191

>  <PEOE_PC->
-0.98091191

>  <PEOE_RPC+>
0.22157869

>  <PEOE_RPC->
0.36594769

>  <PEOE_VSA+0>
23.912788

>  <PEOE_VSA+1>
29.78545

>  <PEOE_VSA+2>
17.238026

>  <PEOE_VSA+3>
0

>  <PEOE_VSA+4>
10.324173

>  <PEOE_VSA+5>
0

>  <PEOE_VSA+6>
0

>  <PEOE_VSA-0>
33.211121

>  <PEOE_VSA-1>
49.019615

>  <PEOE_VSA-2>
0

>  <PEOE_VSA-3>
0

>  <PEOE_VSA-4>
0

>  <PEOE_VSA-5>
0

>  <PEOE_VSA-6>
14.418659

>  <PEOE_VSA_FHYD>
0.8609249

>  <PEOE_VSA_FNEG>
0.54324931

>  <PEOE_VSA_FPNEG>
0.081044763

>  <PEOE_VSA_FPOL>
0.13907513

>  <PEOE_VSA_FPOS>
0.45675069

>  <PEOE_VSA_FPPOS>
0.058030367

>  <PEOE_VSA_HYD>
153.16701

>  <PEOE_VSA_NEG>
96.649399

>  <PEOE_VSA_PNEG>
14.418659

>  <PEOE_VSA_POL>
24.742832

>  <PEOE_VSA_POS>
81.260437

>  <PEOE_VSA_PPOS>
10.324173

>  <petitjean>
0.5

>  <petitjeanSC>
1

>  <Q_PC+>
0

>  <Q_PC->
0

>  <Q_RPC+>
0

>  <Q_RPC->
0

>  <Q_VSA_FHYD>
1

>  <Q_VSA_FNEG>
0

>  <Q_VSA_FPNEG>
0

>  <Q_VSA_FPOL>
0

>  <Q_VSA_FPOS>
1

>  <Q_VSA_FPPOS>
0

>  <Q_VSA_HYD>
177.90984

>  <Q_VSA_NEG>
0

>  <Q_VSA_PNEG>
0

>  <Q_VSA_POL>
0

>  <Q_VSA_POS>
177.90984

>  <Q_VSA_PPOS>
0

>  <radius>
3

>  <reactive>
0

>  <rings>
2

>  <RPC+>
0

>  <RPC->
0

>  <rsynth>
0

>  <SlogP>
2.4360199

>  <SlogP_VSA0>
58.282413

>  <SlogP_VSA1>
0

>  <SlogP_VSA2>
0

>  <SlogP_VSA3>
0

>  <SlogP_VSA4>
3.185575

>  <SlogP_VSA5>
0

>  <SlogP_VSA6>
0

>  <SlogP_VSA7>
93.361847

>  <SlogP_VSA8>
0

>  <SlogP_VSA9>
41.326191

>  <SMR>
5.4762201

>  <SMR_VSA0>
0

>  <SMR_VSA1>
25.385227

>  <SMR_VSA2>
0

>  <SMR_VSA3>
8.4290028

>  <SMR_VSA4>
7.9026761

>  <SMR_VSA5>
121.11311

>  <SMR_VSA6>
0

>  <SMR_VSA7>
33.326015

>  <TPSA>
46.25

>  <VAdjEq>
0.64772749

>  <VAdjMa>
4.8073549

>  <VDistEq>
2.3080299

>  <VDistMa>
7.1322675

>  <vdw_area>
177.90984

>  <vdw_vol>
248.50992

>  <vsa_acc>
0

>  <vsa_acid>
0

>  <vsa_base>
0

>  <vsa_don>
17.742489

>  <vsa_hyd>
130.23462

>  <vsa_other>
0

>  <vsa_pol>
31.30941

>  <Weight>
173.215

>  <weinerPath>
218

>  <weinerPol>
21

>  <zagreb>
68

$$$$