OCCCCCCCCCCCCCCCC
  MOE2013           2D

 17 16  0  0  0  0  0  0  0  0999 V2000
    0.0000    0.0000    0.0000 O   0  0  0  0  0  0  0  0  0  0  0  0
   -1.2990    0.7500    0.0000 C   0  0  0  0  0  0  0  0  0  0  0  0
   -2.5980    0.0000    0.0000 C   0  0  0  0  0  0  0  0  0  0  0  0
   -3.8970    0.7500    0.0000 C   0  0  0  0  0  0  0  0  0  0  0  0
   -5.1960    0.0000    0.0000 C   0  0  0  0  0  0  0  0  0  0  0  0
   -6.4950    0.7500    0.0000 C   0  0  0  0  0  0  0  0  0  0  0  0
   -7.7940    0.0000    0.0000 C   0  0  0  0  0  0  0  0  0  0  0  0
   -9.0930    0.7500    0.0000 C   0  0  0  0  0  0  0  0  0  0  0  0
  -10.3920    0.0000    0.0000 C   0  0  0  0  0  0  0  0  0  0  0  0
  -11.6910    0.7500    0.0000 C   0  0  0  0  0  0  0  0  0  0  0  0
  -12.9900    0.0000    0.0000 C   0  0  0  0  0  0  0  0  0  0  0  0
  -14.2890    0.7500    0.0000 C   0  0  0  0  0  0  0  0  0  0  0  0
  -15.5880    0.0000    0.0000 C   0  0  0  0  0  0  0  0  0  0  0  0
  -16.8870    0.7500    0.0000 C   0  0  0  0  0  0  0  0  0  0  0  0
  -18.1870    0.0000    0.0000 C   0  0  0  0  0  0  0  0  0  0  0  0
  -19.4860    0.7500    0.0000 C   0  0  0  0  0  0  0  0  0  0  0  0
  -20.7850    0.0000    0.0000 C   0  0  0  0  0  0  0  0  0  0  0  0
  1  2  1  0  0  0  0
  2  3  1  0  0  0  0
  3  4  1  0  0  0  0
  4  5  1  0  0  0  0
  5  6  1  0  0  0  0
  6  7  1  0  0  0  0
  7  8  1  0  0  0  0
  8  9  1  0  0  0  0
  9 10  1  0  0  0  0
 10 11  1  0  0  0  0
 11 12  1  0  0  0  0
 12 13  1  0  0  0  0
 13 14  1  0  0  0  0
 14 15  1  0  0  0  0
 15 16  1  0  0  0  0
 16 17  1  0  0  0  0
M  END
>  <Index>
1284

>  <ID>
HT3059

>  <class>
0

>  <apol>
51.632961

>  <ast_fraglike>
0

>  <ast_fraglike_ext>
0

>  <ast_violation>
1

>  <ast_violation_ext>
2

>  <a_acc>
1

>  <a_acid>
0

>  <a_aro>
0

>  <a_base>
0

>  <a_count>
51

>  <a_don>
1

>  <a_donacc>
2

>  <a_heavy>
17

>  <a_hyd>
16

>  <a_IC>
52.319958

>  <a_ICM>
1.0258815

>  <a_nB>
0

>  <a_nBr>
0

>  <a_nC>
16

>  <a_nCl>
0

>  <a_nF>
0

>  <a_nH>
34

>  <a_nI>
0

>  <a_nN>
0

>  <a_nO>
1

>  <a_nP>
0

>  <a_nS>
0

>  <balabanJ>
2.8462622

>  <BCUT_PEOE_0>
-2.7446349

>  <BCUT_PEOE_1>
-0.21552557

>  <BCUT_PEOE_2>
0.28406727

>  <BCUT_PEOE_3>
2.6741202

>  <BCUT_SLOGP_0>
-2.5782075

>  <BCUT_SLOGP_1>
-0.12209108

>  <BCUT_SLOGP_2>
0.27622572

>  <BCUT_SLOGP_3>
2.8465712

>  <BCUT_SMR_0>
-2.4907618

>  <BCUT_SMR_1>
-0.12170255

>  <BCUT_SMR_2>
0.34986207

>  <BCUT_SMR_3>
2.9291539

>  <bpol>
37.169037

>  <b_1rotN>
14

>  <b_1rotR>
0.875

>  <b_ar>
0

>  <b_count>
50

>  <b_double>
0

>  <b_heavy>
16

>  <b_max1len>
18

>  <b_rotN>
14

>  <b_rotR>
0.875

>  <b_single>
50

>  <b_triple>
0

>  <chi0>
12.606602

>  <chi0v>
12.053815

>  <chi0v_C>
11.606602

>  <chi0_C>
11.606602

>  <chi1>
8.4142132

>  <chi1v>
8.0233345

>  <chi1v_C>
7.7071066

>  <chi1_C>
7.7071066

>  <chiral>
0

>  <chiral_u>
0

>  <density>
0.58663374

>  <diameter>
16

>  <FCharge>
0

>  <GCUT_PEOE_0>
-0.80514765

>  <GCUT_PEOE_1>
-0.22488926

>  <GCUT_PEOE_2>
-0.025772182

>  <GCUT_PEOE_3>
2.6656125

>  <GCUT_SLOGP_0>
-0.87370723

>  <GCUT_SLOGP_1>
-0.11514571

>  <GCUT_SLOGP_2>
-0.024761394

>  <GCUT_SLOGP_3>
2.8146214

>  <GCUT_SMR_0>
-0.53537577

>  <GCUT_SMR_1>
-0.11581289

>  <GCUT_SMR_2>
0.042688623

>  <GCUT_SMR_3>
2.8792155

>  <Kier1>
17

>  <Kier2>
16

>  <Kier3>
16

>  <KierA1>
17

>  <KierA2>
16

>  <KierA3>
16

>  <KierFlex>
16

>  <lip_acc>
1

>  <lip_don>
1

>  <lip_druglike>
1

>  <lip_violation>
1

>  <logP(o/w)>
6.2969999

>  <logS>
-6.61484

>  <mr>
7.8026538

>  <mutagenic>
0

>  <nmol>
1

>  <opr_brigid>
0

>  <opr_leadlike>
0

>  <opr_nring>
0

>  <opr_nrot>
14

>  <opr_violation>
2

>  <PC+>
0

>  <PC->
0

>  <PEOE_PC+>
1.1807101

>  <PEOE_PC->
-1.1807101

>  <PEOE_RPC+>
0.17734687

>  <PEOE_RPC->
0.33454996

>  <PEOE_VSA+0>
147.17825

>  <PEOE_VSA+1>
8.5307722

>  <PEOE_VSA+2>
0

>  <PEOE_VSA+3>
0

>  <PEOE_VSA+4>
10.324173

>  <PEOE_VSA+5>
0

>  <PEOE_VSA+6>
0

>  <PEOE_VSA-0>
8.701313

>  <PEOE_VSA-1>
131.86475

>  <PEOE_VSA-2>
0

>  <PEOE_VSA-3>
0

>  <PEOE_VSA-4>
0

>  <PEOE_VSA-5>
0

>  <PEOE_VSA-6>
7.7675405

>  <PEOE_VSA_FHYD>
0.94245028

>  <PEOE_VSA_FNEG>
0.47184882

>  <PEOE_VSA_FPNEG>
0.024708526

>  <PEOE_VSA_FPOL>
0.057549693

>  <PEOE_VSA_FPOS>
0.52815121

>  <PEOE_VSA_FPPOS>
0.032841165

>  <PEOE_VSA_HYD>
296.27509

>  <PEOE_VSA_NEG>
148.3336

>  <PEOE_VSA_PNEG>
7.7675405

>  <PEOE_VSA_POL>
18.091713

>  <PEOE_VSA_POS>
166.0332

>  <PEOE_VSA_PPOS>
10.324173

>  <petitjean>
0.5

>  <petitjeanSC>
1

>  <Q_PC+>
0

>  <Q_PC->
0

>  <Q_RPC+>
0

>  <Q_RPC->
0

>  <Q_VSA_FHYD>
1

>  <Q_VSA_FNEG>
0

>  <Q_VSA_FPNEG>
0

>  <Q_VSA_FPOL>
0

>  <Q_VSA_FPOS>
1

>  <Q_VSA_FPPOS>
0

>  <Q_VSA_HYD>
314.36682

>  <Q_VSA_NEG>
0

>  <Q_VSA_PNEG>
0

>  <Q_VSA_POL>
0

>  <Q_VSA_POS>
314.36682

>  <Q_VSA_PPOS>
0

>  <radius>
8

>  <reactive>
0

>  <rings>
0

>  <RPC+>
0

>  <RPC->
0

>  <rsynth>
1

>  <SlogP>
5.46

>  <SlogP_VSA0>
25.385227

>  <SlogP_VSA1>
0

>  <SlogP_VSA2>
0

>  <SlogP_VSA3>
20.926258

>  <SlogP_VSA4>
0

>  <SlogP_VSA5>
0

>  <SlogP_VSA6>
0

>  <SlogP_VSA7>
0

>  <SlogP_VSA8>
264.15768

>  <SlogP_VSA9>
33.326015

>  <SMR>
7.7397799

>  <SMR_VSA0>
0

>  <SMR_VSA1>
25.385227

>  <SMR_VSA2>
0

>  <SMR_VSA3>
0

>  <SMR_VSA4>
0

>  <SMR_VSA5>
264.15768

>  <SMR_VSA6>
20.926258

>  <SMR_VSA7>
33.326015

>  <TPSA>
20.23

>  <VAdjEq>
0.50210387

>  <VAdjMa>
5

>  <VDistEq>
3.7612884

>  <VDistMa>
7.7793679

>  <vdw_area>
314.36682

>  <vdw_vol>
413.28513

>  <vsa_acc>
0

>  <vsa_acid>
0

>  <vsa_base>
0

>  <vsa_don>
0

>  <vsa_hyd>
272.78586

>  <vsa_other>
0

>  <vsa_pol>
13.566921

>  <Weight>
242.44699

>  <weinerPath>
816

>  <weinerPol>
14

>  <zagreb>
62

$$$$