ClC(Cl)(Cl)COP(O)(O)=O
  MOE2013           2D

 10  9  0  0  0  0  0  0  0  0999 V2000
    0.0000    0.0000    0.0000 Cl  0  0  0  0  0  0  0  0  0  0  0  0
    1.4170   -0.4910    0.0000 C   0  0  0  0  0  0  0  0  0  0  0  0
    1.9080    0.9260    0.0000 Cl  0  0  0  0  0  0  0  0  0  0  0  0
    0.9260   -1.9080    0.0000 Cl  0  0  0  0  0  0  0  0  0  0  0  0
    2.8350   -0.9820    0.0000 C   0  0  0  0  0  0  0  0  0  0  0  0
    3.9690    0.0000    0.0000 O   0  0  0  0  0  0  0  0  0  0  0  0
    5.3860   -0.4910    0.0000 P   0  0  0  0  0  0  0  0  0  0  0  0
    4.8950   -1.9080    0.0000 O   0  0  0  0  0  0  0  0  0  0  0  0
    6.8030   -0.9820    0.0000 O   0  0  0  0  0  0  0  0  0  0  0  0
    5.8770    0.9260    0.0000 O   0  0  0  0  0  0  0  0  0  0  0  0
  1  2  1  0  0  0  0
  2  3  1  0  0  0  0
  2  4  1  0  0  0  0
  2  5  1  0  0  0  0
  5  6  1  0  0  0  0
  6  7  1  0  0  0  0
  7  8  1  0  0  0  0
  7  9  1  0  0  0  0
  7 10  2  0  0  0  0
M  END
>  <Index>
1276

>  <ID>
HT2998

>  <class>
0

>  <apol>
19.565172

>  <ast_fraglike>
0

>  <ast_fraglike_ext>
0

>  <ast_violation>
1

>  <ast_violation_ext>
1

>  <a_acc>
4

>  <a_acid>
0

>  <a_aro>
0

>  <a_base>
0

>  <a_count>
14

>  <a_don>
3

>  <a_donacc>
7

>  <a_heavy>
10

>  <a_hyd>
4

>  <a_IC>
30.548082

>  <a_ICM>
2.1820059

>  <a_nB>
0

>  <a_nBr>
0

>  <a_nC>
2

>  <a_nCl>
3

>  <a_nF>
0

>  <a_nH>
4

>  <a_nI>
0

>  <a_nN>
0

>  <a_nO>
4

>  <a_nP>
1

>  <a_nS>
0

>  <balabanJ>
3.5630016

>  <BCUT_PEOE_0>
-2.3570428

>  <BCUT_PEOE_1>
-0.45890751

>  <BCUT_PEOE_2>
0.46025112

>  <BCUT_PEOE_3>
2.4814456

>  <BCUT_SLOGP_0>
-2.4230115

>  <BCUT_SLOGP_1>
-0.87130302

>  <BCUT_SLOGP_2>
0.68949997

>  <BCUT_SLOGP_3>
2.5435953

>  <BCUT_SMR_0>
-2.1192572

>  <BCUT_SMR_1>
-0.29634374

>  <BCUT_SMR_2>
0.70484054

>  <BCUT_SMR_3>
2.7284024

>  <bpol>
15.986828

>  <b_1rotN>
2

>  <b_1rotR>
0.22222222

>  <b_ar>
0

>  <b_count>
13

>  <b_double>
0

>  <b_heavy>
9

>  <b_max1len>
6

>  <b_rotN>
3

>  <b_rotR>
0.33333334

>  <b_single>
13

>  <b_triple>
0

>  <chi0>
8.4142132

>  <chi0v>
7.6613517

>  <chi0v_C>
1.2071068

>  <chi0_C>
1.2071068

>  <chi1>
4.2071066

>  <chi1v>
4.6385136

>  <chi1v_C>
0.35355338

>  <chi1_C>
0.35355338

>  <chiral>
0

>  <chiral_u>
0

>  <density>
1.3200074

>  <diameter>
5

>  <FCharge>
0

>  <GCUT_PEOE_0>
-0.69446182

>  <GCUT_PEOE_1>
-0.3763569

>  <GCUT_PEOE_2>
0.074774623

>  <GCUT_PEOE_3>
1.8742198

>  <GCUT_SLOGP_0>
-1.2937895

>  <GCUT_SLOGP_1>
-0.45789495

>  <GCUT_SLOGP_2>
0.35525322

>  <GCUT_SLOGP_3>
1.9884143

>  <GCUT_SMR_0>
-0.47957748

>  <GCUT_SMR_1>
-0.19186532

>  <GCUT_SMR_2>
0.41681847

>  <GCUT_SMR_3>
2.1403337

>  <Kier1>
10

>  <Kier2>
2.9387755

>  <Kier3>
9.1428576

>  <KierA1>
17.509794

>  <KierA2>
5.4694152

>  <KierA3>
17.867739

>  <KierFlex>
9.5768337

>  <lip_acc>
4

>  <lip_don>
2

>  <lip_druglike>
1

>  <lip_violation>
0

>  <logP(o/w)>
0.21708

>  <logS>
-1.58334

>  <mr>
3.9244306

>  <mutagenic>
1

>  <nmol>
1

>  <opr_brigid>
0

>  <opr_leadlike>
1

>  <opr_nring>
0

>  <opr_nrot>
2

>  <opr_violation>
0

>  <PC+>
0

>  <PC->
0

>  <PEOE_PC+>
1.1890715

>  <PEOE_PC->
-1.1890715

>  <PEOE_RPC+>
0.34575373

>  <PEOE_RPC->
0.23432575

>  <PEOE_VSA+0>
0

>  <PEOE_VSA+1>
8.5307722

>  <PEOE_VSA+2>
14.951293

>  <PEOE_VSA+3>
20.648346

>  <PEOE_VSA+4>
0

>  <PEOE_VSA+5>
0

>  <PEOE_VSA+6>
18.713068

>  <PEOE_VSA-0>
0

>  <PEOE_VSA-1>
88.745842

>  <PEOE_VSA-2>
15.729136

>  <PEOE_VSA-3>
0

>  <PEOE_VSA-4>
0

>  <PEOE_VSA-5>
24.525484

>  <PEOE_VSA-6>
0

>  <PEOE_VSA_FHYD>
0.774616

>  <PEOE_VSA_FNEG>
0.67242396

>  <PEOE_VSA_FPNEG>
0.1278408

>  <PEOE_VSA_FPOL>
0.22538398

>  <PEOE_VSA_FPOS>
0.32757604

>  <PEOE_VSA_FPPOS>
0.097543187

>  <PEOE_VSA_HYD>
148.60539

>  <PEOE_VSA_NEG>
129.00046

>  <PEOE_VSA_PNEG>
24.525484

>  <PEOE_VSA_POL>
43.238552

>  <PEOE_VSA_POS>
62.843479

>  <PEOE_VSA_PPOS>
18.713068

>  <petitjean>
0.40000001

>  <petitjeanSC>
0.66666669

>  <Q_PC+>
0

>  <Q_PC->
0

>  <Q_RPC+>
0

>  <Q_RPC->
0

>  <Q_VSA_FHYD>
1

>  <Q_VSA_FNEG>
0

>  <Q_VSA_FPNEG>
0

>  <Q_VSA_FPOL>
0

>  <Q_VSA_FPOS>
1

>  <Q_VSA_FPPOS>
0

>  <Q_VSA_HYD>
191.84393

>  <Q_VSA_NEG>
0

>  <Q_VSA_PNEG>
0

>  <Q_VSA_POL>
0

>  <Q_VSA_POS>
191.84393

>  <Q_VSA_PPOS>
0

>  <radius>
3

>  <reactive>
1

>  <rings>
0

>  <RPC+>
0

>  <RPC->
0

>  <rsynth>
1

>  <SlogP>
0.39570001

>  <SlogP_VSA0>
65.047699

>  <SlogP_VSA1>
0

>  <SlogP_VSA2>
6.9216304

>  <SlogP_VSA3>
20.926258

>  <SlogP_VSA4>
0

>  <SlogP_VSA5>
0

>  <SlogP_VSA6>
0

>  <SlogP_VSA7>
0

>  <SlogP_VSA8>
0

>  <SlogP_VSA9>
134.14078

>  <SMR>
3.7599599

>  <SMR_VSA0>
29.355396

>  <SMR_VSA1>
42.613937

>  <SMR_VSA2>
0

>  <SMR_VSA3>
0

>  <SMR_VSA4>
0

>  <SMR_VSA5>
0

>  <SMR_VSA6>
20.926258

>  <SMR_VSA7>
134.14078

>  <TPSA>
66.760002

>  <VAdjEq>
0.68007702

>  <VAdjMa>
4.1699252

>  <VDistEq>
2.2580113

>  <VDistMa>
6.3054485

>  <vdw_area>
191.84393

>  <vdw_vol>
173.77402

>  <vsa_acc>
4.6659718

>  <vsa_acid>
0

>  <vsa_base>
0

>  <vsa_don>
0

>  <vsa_hyd>
110.80431

>  <vsa_other>
18.713068

>  <vsa_pol>
51.853382

>  <Weight>
229.383

>  <weinerPath>
127

>  <weinerPol>
7

>  <zagreb>
46

$$$$