O(C)c1ccccc1CC(NC)C
  MOE2013           2D

 13 13  0  0  1  0  0  0  0  0999 V2000
    0.0000    0.0000    0.0000 O   0  0  0  0  0  0  0  0  0  0  0  0
   -1.5000   -0.0090    0.0000 C   0  0  0  0  0  0  0  0  0  0  0  0
    0.7580   -1.2950    0.0000 C   0  0  0  0  0  0  0  0  0  0  0  0
    0.0160   -2.5980    0.0000 C   0  0  0  0  0  0  0  0  0  0  0  0
    0.7730   -3.8930    0.0000 C   0  0  0  0  0  0  0  0  0  0  0  0
    2.2730   -3.8840    0.0000 C   0  0  0  0  0  0  0  0  0  0  0  0
    3.0160   -2.5800    0.0000 C   0  0  0  0  0  0  0  0  0  0  0  0
    2.2580   -1.2850    0.0000 C   0  0  0  0  0  0  0  0  0  0  0  0
    3.0000    0.0180    0.0000 C   0  0  0  0  0  0  0  0  0  0  0  0
    4.5000    0.0270    0.0000 C   0  0  3  0  0  0  0  0  0  0  0  0
    5.2420    1.3310    0.0000 N   0  0  0  0  0  0  0  0  0  0  0  0
    6.7420    1.3400    0.0000 C   0  0  0  0  0  0  0  0  0  0  0  0
    5.2580   -1.2670    0.0000 C   0  0  0  0  0  0  0  0  0  0  0  0
  1  2  1  0  0  0  0
  1  3  1  0  0  0  0
  3  4  1  0  0  0  0
  3  8  2  0  0  0  0
  4  5  2  0  0  0  0
  5  6  1  0  0  0  0
  6  7  2  0  0  0  0
  7  8  1  0  0  0  0
  8  9  1  0  0  0  0
  9 10  1  0  0  0  0
 10 11  1  0  0  0  0
 10 13  1  0  0  0  0
 11 12  1  0  0  0  0
M  END
>  <Index>
1244

>  <ID>
HT2769

>  <class>
0

>  <apol>
32.597481

>  <ast_fraglike>
1

>  <ast_fraglike_ext>
0

>  <ast_violation>
0

>  <ast_violation_ext>
1

>  <a_acc>
2

>  <a_acid>
0

>  <a_aro>
6

>  <a_base>
0

>  <a_count>
30

>  <a_don>
1

>  <a_donacc>
3

>  <a_heavy>
13

>  <a_hyd>
11

>  <a_IC>
39.666103

>  <a_ICM>
1.3222034

>  <a_nB>
0

>  <a_nBr>
0

>  <a_nC>
11

>  <a_nCl>
0

>  <a_nF>
0

>  <a_nH>
17

>  <a_nI>
0

>  <a_nN>
1

>  <a_nO>
1

>  <a_nP>
0

>  <a_nS>
0

>  <balabanJ>
2.372889

>  <BCUT_PEOE_0>
-2.6198685

>  <BCUT_PEOE_1>
-0.5080806

>  <BCUT_PEOE_2>
0.56441754

>  <BCUT_PEOE_3>
2.5445659

>  <BCUT_SLOGP_0>
-2.7355561

>  <BCUT_SLOGP_1>
-0.4496263

>  <BCUT_SLOGP_2>
0.62147355

>  <BCUT_SLOGP_3>
2.5396848

>  <BCUT_SMR_0>
-2.3460007

>  <BCUT_SMR_1>
-0.38827258

>  <BCUT_SMR_2>
0.68132401

>  <BCUT_SMR_3>
2.8135569

>  <bpol>
21.160519

>  <b_1rotN>
4

>  <b_1rotR>
0.30769232

>  <b_ar>
6

>  <b_count>
30

>  <b_double>
0

>  <b_heavy>
13

>  <b_max1len>
5

>  <b_rotN>
4

>  <b_rotR>
0.30769232

>  <b_single>
24

>  <b_triple>
0

>  <chi0>
9.681798

>  <chi0v>
8.5021067

>  <chi0v_C>
7.5938582

>  <chi0_C>
8.2675848

>  <chi1>
6.2743869

>  <chi1v>
4.5675497

>  <chi1v_C>
3.1665022

>  <chi1_C>
4.0436769

>  <chiral>
1

>  <chiral_u>
1

>  <density>
0.64491361

>  <diameter>
7

>  <FCharge>
0

>  <GCUT_PEOE_0>
-0.85211849

>  <GCUT_PEOE_1>
-0.34388936

>  <GCUT_PEOE_2>
0.029876944

>  <GCUT_PEOE_3>
2.3932469

>  <GCUT_SLOGP_0>
-1.1529155

>  <GCUT_SLOGP_1>
-0.26319659

>  <GCUT_SLOGP_2>
0.13479047

>  <GCUT_SLOGP_3>
2.4745166

>  <GCUT_SMR_0>
-0.51911914

>  <GCUT_SMR_1>
-0.19259652

>  <GCUT_SMR_2>
0.14692949

>  <GCUT_SMR_3>
2.6555161

>  <Kier1>
11.076923

>  <Kier2>
5.671875

>  <Kier3>
3.3240998

>  <KierA1>
9.1026993

>  <KierA2>
4.5777774

>  <KierA3>
2.6420894

>  <KierFlex>
3.205395

>  <lip_acc>
2

>  <lip_don>
1

>  <lip_druglike>
1

>  <lip_violation>
0

>  <logP(o/w)>
2.191

>  <logS>
-1.56444

>  <mr>
5.5613875

>  <mutagenic>
0

>  <nmol>
1

>  <opr_brigid>
6

>  <opr_leadlike>
1

>  <opr_nring>
1

>  <opr_nrot>
4

>  <opr_violation>
0

>  <PC+>
0

>  <PC->
0

>  <PEOE_PC+>
0.96291286

>  <PEOE_PC->
-0.96291286

>  <PEOE_RPC+>
0.12658803

>  <PEOE_RPC->
0.36103046

>  <PEOE_VSA+0>
66.532089

>  <PEOE_VSA+1>
38.316223

>  <PEOE_VSA+2>
8.6190128

>  <PEOE_VSA+3>
0

>  <PEOE_VSA+4>
0

>  <PEOE_VSA+5>
0

>  <PEOE_VSA+6>
0

>  <PEOE_VSA-0>
65.151123

>  <PEOE_VSA-1>
36.764713

>  <PEOE_VSA-2>
0

>  <PEOE_VSA-3>
0

>  <PEOE_VSA-4>
0

>  <PEOE_VSA-5>
0

>  <PEOE_VSA-6>
2.6406472

>  <PEOE_VSA_FHYD>
0.98788828

>  <PEOE_VSA_FNEG>
0.47956452

>  <PEOE_VSA_FPNEG>
0.012111737

>  <PEOE_VSA_FPOL>
0.012111737

>  <PEOE_VSA_FPOS>
0.52043551

>  <PEOE_VSA_FPPOS>
0

>  <PEOE_VSA_HYD>
215.38316

>  <PEOE_VSA_NEG>
104.55648

>  <PEOE_VSA_PNEG>
2.6406472

>  <PEOE_VSA_POL>
2.6406472

>  <PEOE_VSA_POS>
113.46732

>  <PEOE_VSA_PPOS>
0

>  <petitjean>
0.42857143

>  <petitjeanSC>
0.75

>  <Q_PC+>
0

>  <Q_PC->
0

>  <Q_RPC+>
0

>  <Q_RPC->
0

>  <Q_VSA_FHYD>
1

>  <Q_VSA_FNEG>
0

>  <Q_VSA_FPNEG>
0

>  <Q_VSA_FPOL>
0

>  <Q_VSA_FPOS>
1

>  <Q_VSA_FPPOS>
0

>  <Q_VSA_HYD>
218.0238

>  <Q_VSA_NEG>
0

>  <Q_VSA_PNEG>
0

>  <Q_VSA_POL>
0

>  <Q_VSA_POS>
218.0238

>  <Q_VSA_PPOS>
0

>  <radius>
4

>  <reactive>
0

>  <rings>
1

>  <RPC+>
0

>  <RPC->
0

>  <rsynth>
1

>  <SlogP>
1.84557

>  <SlogP_VSA0>
29.010639

>  <SlogP_VSA1>
0

>  <SlogP_VSA2>
3.9819686

>  <SlogP_VSA3>
0

>  <SlogP_VSA4>
3.185575

>  <SlogP_VSA5>
87.14946

>  <SlogP_VSA6>
0

>  <SlogP_VSA7>
70.572739

>  <SlogP_VSA8>
0

>  <SlogP_VSA9>
38.569443

>  <SMR>
5.5219698

>  <SMR_VSA0>
0

>  <SMR_VSA1>
10.999887

>  <SMR_VSA2>
18.01075

>  <SMR_VSA3>
12.410972

>  <SMR_VSA4>
0

>  <SMR_VSA5>
89.441139

>  <SMR_VSA6>
0

>  <SMR_VSA7>
101.60707

>  <TPSA>
21.26

>  <VAdjEq>
0.6193822

>  <VAdjMa>
4.7004399

>  <VDistEq>
2.6454449

>  <VDistMa>
7.0950952

>  <vdw_area>
218.0238

>  <vdw_vol>
277.96436

>  <vsa_acc>
2.503756

>  <vsa_acid>
0

>  <vsa_base>
0

>  <vsa_don>
0

>  <vsa_hyd>
195.37543

>  <vsa_other>
0

>  <vsa_pol>
8.1863317

>  <Weight>
179.263

>  <weinerPath>
256

>  <weinerPol>
16

>  <zagreb>
58

$$$$