O=C(Nc1ccccc1)N(C)C
  MOE2013           2D

 12 12  0  0  0  0  0  0  0  0999 V2000
    0.0000    0.0000    0.0000 O   0  0  0  0  0  0  0  0  0  0  0  0
   -0.0090    1.5000    0.0000 C   0  0  0  0  0  0  0  0  0  0  0  0
   -1.3130    2.2420    0.0000 N   0  0  0  0  0  0  0  0  0  0  0  0
   -2.6070    1.4840    0.0000 C   0  0  0  0  0  0  0  0  0  0  0  0
   -2.5980   -0.0160    0.0000 C   0  0  0  0  0  0  0  0  0  0  0  0
   -3.8920   -0.7740    0.0000 C   0  0  0  0  0  0  0  0  0  0  0  0
   -5.1960   -0.0320    0.0000 C   0  0  0  0  0  0  0  0  0  0  0  0
   -5.2050    1.4680    0.0000 C   0  0  0  0  0  0  0  0  0  0  0  0
   -3.9110    2.2260    0.0000 C   0  0  0  0  0  0  0  0  0  0  0  0
    1.2850    2.2580    0.0000 N   0  0  0  0  0  0  0  0  0  0  0  0
    1.2760    3.7580    0.0000 C   0  0  0  0  0  0  0  0  0  0  0  0
    2.5890    1.5160    0.0000 C   0  0  0  0  0  0  0  0  0  0  0  0
  1  2  2  0  0  0  0
  2  3  1  0  0  0  0
  2 10  1  0  0  0  0
  3  4  1  0  0  0  0
  4  5  1  0  0  0  0
  4  9  2  0  0  0  0
  5  6  2  0  0  0  0
  6  7  1  0  0  0  0
  7  8  2  0  0  0  0
  8  9  1  0  0  0  0
 10 11  1  0  0  0  0
 10 12  1  0  0  0  0
M  END
>  <Index>
1236

>  <ID>
HT2692

>  <class>
0

>  <apol>
26.843515

>  <ast_fraglike>
1

>  <ast_fraglike_ext>
1

>  <ast_violation>
0

>  <ast_violation_ext>
0

>  <a_acc>
1

>  <a_acid>
0

>  <a_aro>
6

>  <a_base>
0

>  <a_count>
24

>  <a_don>
1

>  <a_donacc>
2

>  <a_heavy>
12

>  <a_hyd>
8

>  <a_IC>
36.490227

>  <a_ICM>
1.520426

>  <a_nB>
0

>  <a_nBr>
0

>  <a_nC>
9

>  <a_nCl>
0

>  <a_nF>
0

>  <a_nH>
12

>  <a_nI>
0

>  <a_nN>
2

>  <a_nO>
1

>  <a_nP>
0

>  <a_nS>
0

>  <balabanJ>
2.2203875

>  <BCUT_PEOE_0>
-2.468545

>  <BCUT_PEOE_1>
-0.55123603

>  <BCUT_PEOE_2>
0.61497426

>  <BCUT_PEOE_3>
2.3711529

>  <BCUT_SLOGP_0>
-2.59442

>  <BCUT_SLOGP_1>
-0.4508765

>  <BCUT_SLOGP_2>
0.71351552

>  <BCUT_SLOGP_3>
2.3436353

>  <BCUT_SMR_0>
-2.1675572

>  <BCUT_SMR_1>
-0.42051992

>  <BCUT_SMR_2>
0.74963486

>  <BCUT_SMR_3>
2.6713955

>  <bpol>
16.716484

>  <b_1rotN>
2

>  <b_1rotR>
0.16666667

>  <b_ar>
6

>  <b_count>
24

>  <b_double>
1

>  <b_heavy>
12

>  <b_max1len>
4

>  <b_rotN>
3

>  <b_rotR>
0.25

>  <b_single>
17

>  <b_triple>
0

>  <chi0>
8.9746914

>  <chi0v>
7.2422132

>  <chi0v_C>
5.8867512

>  <chi0_C>
6.6902347

>  <chi1>
5.6983771

>  <chi1v>
3.7328417

>  <chi1v_C>
1.9106836

>  <chi1_C>
2.8164966

>  <chiral>
0

>  <chiral_u>
0

>  <density>
0.69132549

>  <diameter>
7

>  <FCharge>
0

>  <GCUT_PEOE_0>
-0.84234202

>  <GCUT_PEOE_1>
-0.38970396

>  <GCUT_PEOE_2>
0.066784486

>  <GCUT_PEOE_3>
2.1537592

>  <GCUT_SLOGP_0>
-1.0109365

>  <GCUT_SLOGP_1>
-0.23410356

>  <GCUT_SLOGP_2>
0.1490445

>  <GCUT_SLOGP_3>
2.2385736

>  <GCUT_SMR_0>
-0.49896839

>  <GCUT_SMR_1>
-0.19087857

>  <GCUT_SMR_2>
0.16854383

>  <GCUT_SMR_3>
2.4477992

>  <Kier1>
10.083333

>  <Kier2>
4.8888888

>  <Kier3>
3.515625

>  <KierA1>
6.7430162

>  <KierA2>
3.1344228

>  <KierA3>
2.1797357

>  <KierFlex>
1.7612885

>  <lip_acc>
3

>  <lip_don>
1

>  <lip_druglike>
1

>  <lip_violation>
0

>  <logP(o/w)>
1.038

>  <logS>
-1.3221999

>  <mr>
4.8525848

>  <mutagenic>
0

>  <nmol>
1

>  <opr_brigid>
6

>  <opr_leadlike>
1

>  <opr_nring>
1

>  <opr_nrot>
1

>  <opr_violation>
0

>  <PC+>
0

>  <PC->
0

>  <PEOE_PC+>
1.1431761

>  <PEOE_PC->
-1.1431761

>  <PEOE_RPC+>
0.28220302

>  <PEOE_RPC->
0.28899223

>  <PEOE_VSA+0>
78.769249

>  <PEOE_VSA+1>
21.326929

>  <PEOE_VSA+2>
0

>  <PEOE_VSA+3>
8.6190128

>  <PEOE_VSA+4>
0

>  <PEOE_VSA+5>
0

>  <PEOE_VSA+6>
17.440542

>  <PEOE_VSA-0>
24.509808

>  <PEOE_VSA-1>
36.764713

>  <PEOE_VSA-2>
0

>  <PEOE_VSA-3>
0

>  <PEOE_VSA-4>
13.566921

>  <PEOE_VSA-5>
0

>  <PEOE_VSA-6>
0.13689101

>  <PEOE_VSA_FHYD>
0.84515625

>  <PEOE_VSA_FNEG>
0.37277788

>  <PEOE_VSA_FPNEG>
0.068132728

>  <PEOE_VSA_FPOL>
0.15484376

>  <PEOE_VSA_FPOS>
0.62722212

>  <PEOE_VSA_FPPOS>
0.086711034

>  <PEOE_VSA_HYD>
169.98972

>  <PEOE_VSA_NEG>
74.978333

>  <PEOE_VSA_PNEG>
13.703812

>  <PEOE_VSA_POL>
31.144354

>  <PEOE_VSA_POS>
126.15573

>  <PEOE_VSA_PPOS>
17.440542

>  <petitjean>
0.42857143

>  <petitjeanSC>
0.75

>  <Q_PC+>
0

>  <Q_PC->
0

>  <Q_RPC+>
0

>  <Q_RPC->
0

>  <Q_VSA_FHYD>
1

>  <Q_VSA_FNEG>
0

>  <Q_VSA_FPNEG>
0

>  <Q_VSA_FPOL>
0

>  <Q_VSA_FPOS>
1

>  <Q_VSA_FPPOS>
0

>  <Q_VSA_HYD>
201.13406

>  <Q_VSA_NEG>
0

>  <Q_VSA_PNEG>
0

>  <Q_VSA_POL>
0

>  <Q_VSA_POS>
201.13406

>  <Q_VSA_PPOS>
0

>  <radius>
4

>  <reactive>
0

>  <rings>
1

>  <RPC+>
0

>  <RPC->
0

>  <rsynth>
1

>  <SlogP>
1.7801

>  <SlogP_VSA0>
0

>  <SlogP_VSA1>
25.965021

>  <SlogP_VSA2>
0

>  <SlogP_VSA3>
0

>  <SlogP_VSA4>
0

>  <SlogP_VSA5>
65.794373

>  <SlogP_VSA6>
0

>  <SlogP_VSA7>
88.215919

>  <SlogP_VSA8>
0

>  <SlogP_VSA9>
26.618963

>  <SMR>
4.9147701

>  <SMR_VSA0>
23.862217

>  <SMR_VSA1>
3.1243138

>  <SMR_VSA2>
0

>  <SMR_VSA3>
0

>  <SMR_VSA4>
20.767498

>  <SMR_VSA5>
88.215919

>  <SMR_VSA6>
4.8299561

>  <SMR_VSA7>
65.794373

>  <TPSA>
32.34

>  <VAdjEq>
0.65002245

>  <VAdjMa>
4.5849624

>  <VDistEq>
2.6459539

>  <VDistMa>
6.8380055

>  <vdw_area>
201.13406

>  <vdw_vol>
237.52632

>  <vsa_acc>
13.566921

>  <vsa_acid>
0

>  <vsa_base>
0

>  <vsa_don>
5.6825762

>  <vsa_hyd>
153.54094

>  <vsa_other>
17.440542

>  <vsa_pol>
19.249496

>  <Weight>
164.20799

>  <weinerPath>
212

>  <weinerPol>
13

>  <zagreb>
54

$$$$