O(C(=O)CCCCCCCCCCCCCCCCC)CC(O)CO
  MOE2013           2D

 25 24  0  0  1  0  0  0  0  0999 V2000
    0.0000    0.0000    0.0000 O   0  0  0  0  0  0  0  0  0  0  0  0
    1.3000    0.7490    0.0000 C   0  0  0  0  0  0  0  0  0  0  0  0
    1.3010    2.2490    0.0000 O   0  0  0  0  0  0  0  0  0  0  0  0
    2.5980   -0.0030    0.0000 C   0  0  0  0  0  0  0  0  0  0  0  0
    3.8980    0.7460    0.0000 C   0  0  0  0  0  0  0  0  0  0  0  0
    5.1960   -0.0060    0.0000 C   0  0  0  0  0  0  0  0  0  0  0  0
    6.4960    0.7430    0.0000 C   0  0  0  0  0  0  0  0  0  0  0  0
    7.7940   -0.0090    0.0000 C   0  0  0  0  0  0  0  0  0  0  0  0
    9.0940    0.7400    0.0000 C   0  0  0  0  0  0  0  0  0  0  0  0
   10.3920   -0.0110    0.0000 C   0  0  0  0  0  0  0  0  0  0  0  0
   11.6920    0.7370    0.0000 C   0  0  0  0  0  0  0  0  0  0  0  0
   12.9900   -0.0140    0.0000 C   0  0  0  0  0  0  0  0  0  0  0  0
   14.2900    0.7340    0.0000 C   0  0  0  0  0  0  0  0  0  0  0  0
   15.5880   -0.0170    0.0000 C   0  0  0  0  0  0  0  0  0  0  0  0
   16.8880    0.7320    0.0000 C   0  0  0  0  0  0  0  0  0  0  0  0
   18.1870   -0.0200    0.0000 C   0  0  0  0  0  0  0  0  0  0  0  0
   19.4860    0.7290    0.0000 C   0  0  0  0  0  0  0  0  0  0  0  0
   20.7850   -0.0230    0.0000 C   0  0  0  0  0  0  0  0  0  0  0  0
   22.0840    0.7260    0.0000 C   0  0  0  0  0  0  0  0  0  0  0  0
   23.3830   -0.0260    0.0000 C   0  0  0  0  0  0  0  0  0  0  0  0
   -1.2980    0.7510    0.0000 C   0  0  0  0  0  0  0  0  0  0  0  0
   -2.5980    0.0030    0.0000 C   0  0  3  0  0  0  0  0  0  0  0  0
   -3.8960    0.7540    0.0000 O   0  0  0  0  0  0  0  0  0  0  0  0
   -2.6000   -1.4970    0.0000 C   0  0  0  0  0  0  0  0  0  0  0  0
   -3.9000   -2.2460    0.0000 O   0  0  0  0  0  0  0  0  0  0  0  0
  1  2  1  0  0  0  0
  1 21  1  0  0  0  0
  2  3  2  0  0  0  0
  2  4  1  0  0  0  0
  4  5  1  0  0  0  0
  5  6  1  0  0  0  0
  6  7  1  0  0  0  0
  7  8  1  0  0  0  0
  8  9  1  0  0  0  0
  9 10  1  0  0  0  0
 10 11  1  0  0  0  0
 11 12  1  0  0  0  0
 12 13  1  0  0  0  0
 13 14  1  0  0  0  0
 14 15  1  0  0  0  0
 15 16  1  0  0  0  0
 16 17  1  0  0  0  0
 17 18  1  0  0  0  0
 18 19  1  0  0  0  0
 19 20  1  0  0  0  0
 21 22  1  0  0  0  0
 22 23  1  0  0  0  0
 22 24  1  0  0  0  0
 24 25  1  0  0  0  0
M  END
>  <Index>
1357

>  <ID>
HT3636

>  <class>
0

>  <apol>
68.173309

>  <ast_fraglike>
0

>  <ast_fraglike_ext>
0

>  <ast_violation>
2

>  <ast_violation_ext>
3

>  <a_acc>
3

>  <a_acid>
0

>  <a_aro>
0

>  <a_base>
0

>  <a_count>
67

>  <a_don>
2

>  <a_donacc>
5

>  <a_heavy>
25

>  <a_hyd>
20

>  <a_IC>
79.711975

>  <a_ICM>
1.189731

>  <a_nB>
0

>  <a_nBr>
0

>  <a_nC>
21

>  <a_nCl>
0

>  <a_nF>
0

>  <a_nH>
42

>  <a_nI>
0

>  <a_nN>
0

>  <a_nO>
4

>  <a_nP>
0

>  <a_nS>
0

>  <balabanJ>
3.1126325

>  <BCUT_PEOE_0>
-2.7471435

>  <BCUT_PEOE_1>
-0.46483555

>  <BCUT_PEOE_2>
0.60052079

>  <BCUT_PEOE_3>
2.6779826

>  <BCUT_SLOGP_0>
-2.6759164

>  <BCUT_SLOGP_1>
-0.55959439

>  <BCUT_SLOGP_2>
0.47168583

>  <BCUT_SLOGP_3>
2.8506463

>  <BCUT_SMR_0>
-2.4931383

>  <BCUT_SMR_1>
-0.38816231

>  <BCUT_SMR_2>
0.65774226

>  <BCUT_SMR_3>
2.9327061

>  <bpol>
48.788692

>  <b_1rotN>
19

>  <b_1rotR>
0.79166669

>  <b_ar>
0

>  <b_count>
66

>  <b_double>
1

>  <b_heavy>
24

>  <b_max1len>
18

>  <b_rotN>
20

>  <b_rotR>
0.83333331

>  <b_single>
65

>  <b_triple>
0

>  <chi0>
18.589729

>  <chi0v>
16.516195

>  <chi0v_C>
14.805272

>  <chi0_C>
14.882623

>  <chi1>
12.201907

>  <chi1v>
10.648507

>  <chi1v_C>
9.3771572

>  <chi1_C>
9.4318514

>  <chiral>
1

>  <chiral_u>
1

>  <density>
0.64513713

>  <diameter>
22

>  <FCharge>
0

>  <GCUT_PEOE_0>
-0.80476159

>  <GCUT_PEOE_1>
-0.40554535

>  <GCUT_PEOE_2>
0.11159939

>  <GCUT_PEOE_3>
2.738348

>  <GCUT_SLOGP_0>
-0.93936247

>  <GCUT_SLOGP_1>
-0.27115771

>  <GCUT_SLOGP_2>
-0.008851069

>  <GCUT_SLOGP_3>
2.8747425

>  <GCUT_SMR_0>
-0.53571469

>  <GCUT_SMR_1>
-0.21745662

>  <GCUT_SMR_2>
0.15369512

>  <GCUT_SMR_3>
2.9504037

>  <Kier1>
25

>  <Kier2>
20.313601

>  <Kier3>
20.166666

>  <KierA1>
24.086359

>  <KierA2>
19.539797

>  <KierA3>
19.375162

>  <KierFlex>
18.825703

>  <lip_acc>
4

>  <lip_don>
2

>  <lip_druglike>
1

>  <lip_violation>
1

>  <logP(o/w)>
6.0229998

>  <logS>
-7.5310602

>  <mr>
10.57303

>  <mutagenic>
0

>  <nmol>
1

>  <opr_brigid>
0

>  <opr_leadlike>
0

>  <opr_nring>
0

>  <opr_nrot>
19

>  <opr_violation>
2

>  <PC+>
0

>  <PC->
0

>  <PEOE_PC+>
2.2118928

>  <PEOE_PC->
-2.2118928

>  <PEOE_RPC+>
0.11855822

>  <PEOE_RPC->
0.17739889

>  <PEOE_VSA+0>
157.98982

>  <PEOE_VSA+1>
51.229515

>  <PEOE_VSA+2>
4.9049287

>  <PEOE_VSA+3>
0

>  <PEOE_VSA+4>
20.648346

>  <PEOE_VSA+5>
14.708499

>  <PEOE_VSA+6>
0

>  <PEOE_VSA-0>
8.701313

>  <PEOE_VSA-1>
140.56607

>  <PEOE_VSA-2>
0

>  <PEOE_VSA-3>
0

>  <PEOE_VSA-4>
0

>  <PEOE_VSA-5>
13.566921

>  <PEOE_VSA-6>
18.038837

>  <PEOE_VSA_FHYD>
0.84440118

>  <PEOE_VSA_FNEG>
0.42028895

>  <PEOE_VSA_FPNEG>
0.07344126

>  <PEOE_VSA_FPOL>
0.15559879

>  <PEOE_VSA_FPOS>
0.57971108

>  <PEOE_VSA_FPPOS>
0.082157537

>  <PEOE_VSA_HYD>
363.39163

>  <PEOE_VSA_NEG>
180.87314

>  <PEOE_VSA_PNEG>
31.605757

>  <PEOE_VSA_POL>
66.962601

>  <PEOE_VSA_POS>
249.48111

>  <PEOE_VSA_PPOS>
35.356846

>  <petitjean>
0.5

>  <petitjeanSC>
1

>  <Q_PC+>
0

>  <Q_PC->
0

>  <Q_RPC+>
0

>  <Q_RPC->
0

>  <Q_VSA_FHYD>
1

>  <Q_VSA_FNEG>
0

>  <Q_VSA_FPNEG>
0

>  <Q_VSA_FPOL>
0

>  <Q_VSA_FPOS>
1

>  <Q_VSA_FPPOS>
0

>  <Q_VSA_HYD>
430.35425

>  <Q_VSA_NEG>
0

>  <Q_VSA_PNEG>
0

>  <Q_VSA_POL>
0

>  <Q_VSA_POS>
430.35425

>  <Q_VSA_PPOS>
0

>  <radius>
11

>  <reactive>
0

>  <rings>
0

>  <RPC+>
0

>  <RPC->
0

>  <rsynth>
1

>  <SlogP>
5.1443

>  <SlogP_VSA0>
50.770454

>  <SlogP_VSA1>
7.7454643

>  <SlogP_VSA2>
41.330753

>  <SlogP_VSA3>
41.852516

>  <SlogP_VSA4>
0

>  <SlogP_VSA5>
0

>  <SlogP_VSA6>
0

>  <SlogP_VSA7>
0

>  <SlogP_VSA8>
301.8945

>  <SlogP_VSA9>
33.326015

>  <SMR>
10.35976

>  <SMR_VSA0>
34.862103

>  <SMR_VSA1>
50.770454

>  <SMR_VSA2>
0

>  <SMR_VSA3>
6.4686494

>  <SMR_VSA4>
0

>  <SMR_VSA5>
301.8945

>  <SMR_VSA6>
49.59798

>  <SMR_VSA7>
33.326015

>  <TPSA>
66.760002

>  <VAdjEq>
0.39080217

>  <VAdjMa>
5.5849624

>  <VDistEq>
4.2347398

>  <VDistMa>
8.9048929

>  <vdw_area>
430.35425

>  <vdw_vol>
555.79346

>  <vsa_acc>
13.566921

>  <vsa_acid>
0

>  <vsa_base>
0

>  <vsa_don>
0

>  <vsa_hyd>
334.91983

>  <vsa_other>
17.212255

>  <vsa_pol>
40.700764

>  <Weight>
358.56299

>  <weinerPath>
2456

>  <weinerPol>
24

>  <zagreb>
98

$$$$