ClC(Cl)(Cl)F
  MOE2013           2D

  5  4  0  0  0  0  0  0  0  0999 V2000
    0.0000    0.0000    0.0000 Cl  0  0  0  0  0  0  0  0  0  0  0  0
    1.5000    0.0000    0.0000 C   0  0  0  0  0  0  0  0  0  0  0  0
    1.5000   -1.5000    0.0000 Cl  0  0  0  0  0  0  0  0  0  0  0  0
    3.0000    0.0000    0.0000 Cl  0  0  0  0  0  0  0  0  0  0  0  0
    1.5000    1.5000    0.0000 F   0  0  0  0  0  0  0  0  0  0  0  0
  1  2  1  0  0  0  0
  2  3  1  0  0  0  0
  2  4  1  0  0  0  0
  2  5  1  0  0  0  0
M  END
>  <Index>
1217

>  <ID>
HT2579

>  <class>
0

>  <apol>
8.8570004

>  <ast_fraglike>
1

>  <ast_fraglike_ext>
1

>  <ast_violation>
0

>  <ast_violation_ext>
0

>  <a_acc>
0

>  <a_acid>
0

>  <a_aro>
0

>  <a_base>
0

>  <a_count>
5

>  <a_don>
0

>  <a_donacc>
0

>  <a_heavy>
5

>  <a_hyd>
4

>  <a_IC>
6.854753

>  <a_ICM>
1.3709506

>  <a_nB>
0

>  <a_nBr>
0

>  <a_nC>
1

>  <a_nCl>
3

>  <a_nF>
1

>  <a_nH>
0

>  <a_nI>
0

>  <a_nN>
0

>  <a_nO>
0

>  <a_nP>
0

>  <a_nS>
0

>  <balabanJ>
3.0237157

>  <BCUT_PEOE_0>
-1.8867639

>  <BCUT_PEOE_1>
-0.11819761

>  <BCUT_PEOE_2>
-0.048533954

>  <BCUT_PEOE_3>
2.1368613

>  <BCUT_SLOGP_0>
-1.8361241

>  <BCUT_SLOGP_1>
0.5533216

>  <BCUT_SLOGP_2>
0.68949997

>  <BCUT_SLOGP_3>
2.2554915

>  <BCUT_SMR_0>
-1.6432116

>  <BCUT_SMR_1>
0.34835485

>  <BCUT_SMR_2>
0.58530003

>  <BCUT_SMR_3>
2.3825293

>  <bpol>
2.4630001

>  <b_1rotN>
0

>  <b_1rotR>
0

>  <b_ar>
0

>  <b_count>
4

>  <b_double>
0

>  <b_heavy>
4

>  <b_max1len>
2

>  <b_rotN>
0

>  <b_rotR>
0

>  <b_single>
4

>  <b_triple>
0

>  <chi0>
4.5

>  <chi0v>
4.279645

>  <chi0v_C>
0.5

>  <chi0_C>
0.5

>  <chi1>
2

>  <chi1v>
1.8898224

>  <chi1v_C>
0

>  <chi1_C>
0

>  <chiral>
0

>  <chiral_u>
0

>  <density>
1.5376675

>  <diameter>
2

>  <FCharge>
0

>  <GCUT_PEOE_0>
-0.53229654

>  <GCUT_PEOE_1>
-0.27388313

>  <GCUT_PEOE_2>
-0.20853396

>  <GCUT_PEOE_3>
1.2559222

>  <GCUT_SLOGP_0>
-0.65763229

>  <GCUT_SLOGP_1>
0.39087549

>  <GCUT_SLOGP_2>
0.52950001

>  <GCUT_SLOGP_3>
1.5606691

>  <GCUT_SMR_0>
-0.37256777

>  <GCUT_SMR_1>
0.19663851

>  <GCUT_SMR_2>
0.4253

>  <GCUT_SMR_3>
1.57946

>  <Kier1>
5

>  <Kier2>
1

>  <Kier3>
0

>  <KierA1>
11.112838

>  <KierA2>
2.7378724

>  <KierA3>
0

>  <KierFlex>
6.0851059

>  <lip_acc>
0

>  <lip_don>
0

>  <lip_druglike>
1

>  <lip_violation>
0

>  <logP(o/w)>
2.5538399

>  <logS>
-2.37795

>  <mr>
1.9745754

>  <mutagenic>
1

>  <nmol>
1

>  <opr_brigid>
0

>  <opr_leadlike>
1

>  <opr_nring>
0

>  <opr_nrot>
0

>  <opr_violation>
0

>  <PC+>
0

>  <PC->
0

>  <PEOE_PC+>
0.3340643

>  <PEOE_PC->
-0.3340643

>  <PEOE_RPC+>
1

>  <PEOE_RPC->
0.56415021

>  <PEOE_VSA+0>
0

>  <PEOE_VSA+1>
0

>  <PEOE_VSA+2>
0

>  <PEOE_VSA+3>
0

>  <PEOE_VSA+4>
0

>  <PEOE_VSA+5>
0

>  <PEOE_VSA+6>
2.354511

>  <PEOE_VSA-0>
88.745842

>  <PEOE_VSA-1>
0

>  <PEOE_VSA-2>
0

>  <PEOE_VSA-3>
11.908636

>  <PEOE_VSA-4>
0

>  <PEOE_VSA-5>
0

>  <PEOE_VSA-6>
0

>  <PEOE_VSA_FHYD>
0.97714269

>  <PEOE_VSA_FNEG>
0.97714269

>  <PEOE_VSA_FPNEG>
0

>  <PEOE_VSA_FPOL>
0.022857334

>  <PEOE_VSA_FPOS>
0.022857334

>  <PEOE_VSA_FPPOS>
0.022857334

>  <PEOE_VSA_HYD>
100.65448

>  <PEOE_VSA_NEG>
100.65448

>  <PEOE_VSA_PNEG>
0

>  <PEOE_VSA_POL>
2.354511

>  <PEOE_VSA_POS>
2.354511

>  <PEOE_VSA_PPOS>
2.354511

>  <petitjean>
0.5

>  <petitjeanSC>
1

>  <Q_PC+>
0

>  <Q_PC->
0

>  <Q_RPC+>
0

>  <Q_RPC->
0

>  <Q_VSA_FHYD>
1

>  <Q_VSA_FNEG>
0

>  <Q_VSA_FPNEG>
0

>  <Q_VSA_FPOL>
0

>  <Q_VSA_FPOS>
1

>  <Q_VSA_FPPOS>
0

>  <Q_VSA_HYD>
103.00899

>  <Q_VSA_NEG>
0

>  <Q_VSA_PNEG>
0

>  <Q_VSA_POL>
0

>  <Q_VSA_POS>
103.00899

>  <Q_VSA_PPOS>
0

>  <radius>
1

>  <reactive>
1

>  <rings>
0

>  <RPC+>
0

>  <RPC->
0

>  <rsynth>
0

>  <SlogP>
2.2836001

>  <SlogP_VSA0>
0

>  <SlogP_VSA1>
0

>  <SlogP_VSA2>
0

>  <SlogP_VSA3>
0

>  <SlogP_VSA4>
0

>  <SlogP_VSA5>
0

>  <SlogP_VSA6>
0

>  <SlogP_VSA7>
0

>  <SlogP_VSA8>
0

>  <SlogP_VSA9>
132.40605

>  <SMR>
2.1398001

>  <SMR_VSA0>
0

>  <SMR_VSA1>
14.960114

>  <SMR_VSA2>
0

>  <SMR_VSA3>
0

>  <SMR_VSA4>
0

>  <SMR_VSA5>
0

>  <SMR_VSA6>
0

>  <SMR_VSA7>
117.44593

>  <TPSA>
0

>  <VAdjEq>
0.90438145

>  <VAdjMa>
3

>  <VDistEq>
0.9709506

>  <VDistMa>
4.25

>  <vdw_area>
103.00899

>  <vdw_vol>
89.335304

>  <vsa_acc>
0

>  <vsa_acid>
0

>  <vsa_base>
0

>  <vsa_don>
0

>  <vsa_hyd>
100.65448

>  <vsa_other>
2.354511

>  <vsa_pol>
0

>  <Weight>
137.368

>  <weinerPath>
16

>  <weinerPol>
0

>  <zagreb>
20

$$$$