OC(=O)c1ccccc1N=Nc1ccc(N(C)C)cc1
  MOE2013           2D

 20 21  0  0  0  0  0  0  0  0999 V2000
    0.0000    0.0000    0.0000 O   0  0  0  0  0  0  0  0  0  0  0  0
   -1.2980    0.7520    0.0000 C   0  0  0  0  0  0  0  0  0  0  0  0
   -2.5980    0.0040    0.0000 O   0  0  0  0  0  0  0  0  0  0  0  0
   -1.2960    2.2520    0.0000 C   0  0  0  0  0  0  0  0  0  0  0  0
   -2.5940    3.0040    0.0000 C   0  0  0  0  0  0  0  0  0  0  0  0
   -2.5910    4.5040    0.0000 C   0  0  0  0  0  0  0  0  0  0  0  0
   -1.2910    5.2520    0.0000 C   0  0  0  0  0  0  0  0  0  0  0  0
    0.0070    4.5000    0.0000 C   0  0  0  0  0  0  0  0  0  0  0  0
    0.0040    3.0000    0.0000 C   0  0  0  0  0  0  0  0  0  0  0  0
    1.3020    2.2480    0.0000 N   0  0  0  0  0  0  0  0  0  0  0  0
    2.6030    2.9960    0.0000 N   0  0  0  0  0  0  0  0  0  0  0  0
    3.9000    2.2440    0.0000 C   0  0  0  0  0  0  0  0  0  0  0  0
    3.8980    0.7440    0.0000 C   0  0  0  0  0  0  0  0  0  0  0  0
    5.1960   -0.0080    0.0000 C   0  0  0  0  0  0  0  0  0  0  0  0
    6.4960    0.7400    0.0000 C   0  0  0  0  0  0  0  0  0  0  0  0
    7.7940   -0.0120    0.0000 N   0  0  0  0  0  0  0  0  0  0  0  0
    7.7920   -1.5120    0.0000 C   0  0  0  0  0  0  0  0  0  0  0  0
    9.0940    0.7360    0.0000 C   0  0  0  0  0  0  0  0  0  0  0  0
    6.4990    2.2400    0.0000 C   0  0  0  0  0  0  0  0  0  0  0  0
    5.2010    2.9920    0.0000 C   0  0  0  0  0  0  0  0  0  0  0  0
  1  2  1  0  0  0  0
  2  3  2  0  0  0  0
  2  4  1  0  0  0  0
  4  5  1  0  0  0  0
  4  9  2  0  0  0  0
  5  6  2  0  0  0  0
  6  7  1  0  0  0  0
  7  8  2  0  0  0  0
  8  9  1  0  0  0  0
  9 10  1  0  0  0  0
 10 11  2  3  0  0  0
 11 12  1  0  0  0  0
 12 13  1  0  0  0  0
 12 20  2  0  0  0  0
 13 14  2  0  0  0  0
 14 15  1  0  0  0  0
 15 16  1  0  0  0  0
 15 19  2  0  0  0  0
 16 17  1  0  0  0  0
 16 18  1  0  0  0  0
 19 20  1  0  0  0  0
M  END
>  <Index>
1301

>  <ID>
HT3187

>  <class>
0

>  <apol>
41.305897

>  <ast_fraglike>
0

>  <ast_fraglike_ext>
0

>  <ast_violation>
2

>  <ast_violation_ext>
3

>  <a_acc>
4

>  <a_acid>
0

>  <a_aro>
12

>  <a_base>
0

>  <a_count>
35

>  <a_don>
2

>  <a_donacc>
6

>  <a_heavy>
20

>  <a_hyd>
14

>  <a_IC>
55.563301

>  <a_ICM>
1.5875229

>  <a_nB>
0

>  <a_nBr>
0

>  <a_nC>
15

>  <a_nCl>
0

>  <a_nF>
0

>  <a_nH>
15

>  <a_nI>
0

>  <a_nN>
3

>  <a_nO>
2

>  <a_nP>
0

>  <a_nS>
0

>  <balabanJ>
1.7281768

>  <BCUT_PEOE_0>
-2.470777

>  <BCUT_PEOE_1>
-0.60275865

>  <BCUT_PEOE_2>
0.65626234

>  <BCUT_PEOE_3>
2.3461699

>  <BCUT_SLOGP_0>
-2.5368612

>  <BCUT_SLOGP_1>
-0.51173455

>  <BCUT_SLOGP_2>
0.73852432

>  <BCUT_SLOGP_3>
2.4266994

>  <BCUT_SMR_0>
-2.1454921

>  <BCUT_SMR_1>
-0.4317444

>  <BCUT_SMR_2>
0.80471933

>  <BCUT_SMR_3>
2.6727488

>  <bpol>
20.656105

>  <b_1rotN>
4

>  <b_1rotR>
0.19047619

>  <b_ar>
12

>  <b_count>
36

>  <b_double>
2

>  <b_heavy>
21

>  <b_max1len>
4

>  <b_rotN>
4

>  <b_rotR>
0.19047619

>  <b_single>
22

>  <b_triple>
0

>  <chi0>
14.53517

>  <chi0v>
11.315905

>  <chi0v_C>
9.1188021

>  <chi0_C>
10.543606

>  <chi1>
9.575387

>  <chi1v>
6.0916958

>  <chi1v_C>
3.8987174

>  <chi1_C>
5.6161566

>  <chiral>
0

>  <chiral_u>
0

>  <density>
0.730358

>  <diameter>
11

>  <FCharge>
0

>  <GCUT_PEOE_0>
-0.84288627

>  <GCUT_PEOE_1>
-0.41176289

>  <GCUT_PEOE_2>
0.076236278

>  <GCUT_PEOE_3>
2.3111722

>  <GCUT_SLOGP_0>
-0.98069835

>  <GCUT_SLOGP_1>
-0.29754624

>  <GCUT_SLOGP_2>
0.15741396

>  <GCUT_SLOGP_3>
2.4764183

>  <GCUT_SMR_0>
-0.47984457

>  <GCUT_SMR_1>
-0.20517649

>  <GCUT_SMR_2>
0.1825992

>  <GCUT_SMR_3>
2.6138055

>  <Kier1>
16.371881

>  <Kier2>
7.8520408

>  <Kier3>
4.7647057

>  <KierA1>
11.056005

>  <KierA2>
5.1819611

>  <KierA3>
3.0917506

>  <KierFlex>
2.8645892

>  <lip_acc>
5

>  <lip_don>
1

>  <lip_druglike>
1

>  <lip_violation>
0

>  <logP(o/w)>
3.5020001

>  <logS>
-3.17449

>  <mr>
7.7472682

>  <mutagenic>
1

>  <nmol>
1

>  <opr_brigid>
13

>  <opr_leadlike>
1

>  <opr_nring>
2

>  <opr_nrot>
4

>  <opr_violation>
0

>  <PC+>
0

>  <PC->
0

>  <PEOE_PC+>
1.5318744

>  <PEOE_PC->
-1.5318744

>  <PEOE_RPC+>
0.19149993

>  <PEOE_RPC->
0.21374996

>  <PEOE_VSA+0>
32.291866

>  <PEOE_VSA+1>
49.730728

>  <PEOE_VSA+2>
0

>  <PEOE_VSA+3>
0

>  <PEOE_VSA+4>
10.324173

>  <PEOE_VSA+5>
14.708499

>  <PEOE_VSA+6>
0

>  <PEOE_VSA-0>
120.00681

>  <PEOE_VSA-1>
24.509808

>  <PEOE_VSA-2>
18.842079

>  <PEOE_VSA-3>
0

>  <PEOE_VSA-4>
0

>  <PEOE_VSA-5>
13.566921

>  <PEOE_VSA-6>
7.7675405

>  <PEOE_VSA_FHYD>
0.84107155

>  <PEOE_VSA_FNEG>
0.63305622

>  <PEOE_VSA_FPNEG>
0.073126227

>  <PEOE_VSA_FPOL>
0.15892848

>  <PEOE_VSA_FPOS>
0.36694378

>  <PEOE_VSA_FPPOS>
0.085802257

>  <PEOE_VSA_HYD>
245.38129

>  <PEOE_VSA_NEG>
184.69315

>  <PEOE_VSA_PNEG>
21.334461

>  <PEOE_VSA_POL>
46.367134

>  <PEOE_VSA_POS>
107.05527

>  <PEOE_VSA_PPOS>
25.032671

>  <petitjean>
0.45454547

>  <petitjeanSC>
0.83333331

>  <Q_PC+>
0

>  <Q_PC->
0

>  <Q_RPC+>
0

>  <Q_RPC->
0

>  <Q_VSA_FHYD>
1

>  <Q_VSA_FNEG>
0

>  <Q_VSA_FPNEG>
0

>  <Q_VSA_FPOL>
0

>  <Q_VSA_FPOS>
1

>  <Q_VSA_FPPOS>
0

>  <Q_VSA_HYD>
291.74841

>  <Q_VSA_NEG>
0

>  <Q_VSA_PNEG>
0

>  <Q_VSA_POL>
0

>  <Q_VSA_POS>
291.74841

>  <Q_VSA_PPOS>
0

>  <radius>
6

>  <reactive>
1

>  <rings>
2

>  <RPC+>
0

>  <RPC->
0

>  <rsynth>
1

>  <SlogP>
3.8662

>  <SlogP_VSA0>
3.1243138

>  <SlogP_VSA1>
7.7454643

>  <SlogP_VSA2>
0

>  <SlogP_VSA3>
25.385227

>  <SlogP_VSA4>
27.047791

>  <SlogP_VSA5>
99.120392

>  <SlogP_VSA6>
0

>  <SlogP_VSA7>
141.14548

>  <SlogP_VSA8>
0

>  <SlogP_VSA9>
8.2702427

>  <SMR>
7.83463

>  <SMR_VSA0>
23.862217

>  <SMR_VSA1>
33.326015

>  <SMR_VSA2>
28.509541

>  <SMR_VSA3>
3.185575

>  <SMR_VSA4>
8.2702427

>  <SMR_VSA5>
141.14548

>  <SMR_VSA6>
7.7454643

>  <SMR_VSA7>
65.794373

>  <TPSA>
65.260002

>  <VAdjEq>
0.48464775

>  <VAdjMa>
5.3923173

>  <VDistEq>
3.3335979

>  <VDistMa>
8.3147802

>  <vdw_area>
291.74841

>  <vdw_vol>
368.72876

>  <vsa_acc>
18.842079

>  <vsa_acid>
0

>  <vsa_base>
0

>  <vsa_don>
0

>  <vsa_hyd>
216.57407

>  <vsa_other>
14.708499

>  <vsa_pol>
45.975922

>  <Weight>
269.30399

>  <weinerPath>
914

>  <weinerPol>
28

>  <zagreb>
98

$$$$