O(C(=O)c1ccc(N)cc1)CC(C)C
  MOE2013           2D

 14 14  0  0  0  0  0  0  0  0999 V2000
    0.0000    0.0000    0.0000 O   0  0  0  0  0  0  0  0  0  0  0  0
   -0.7600    1.2930    0.0000 C   0  0  0  0  0  0  0  0  0  0  0  0
   -0.0200    2.5980    0.0000 O   0  0  0  0  0  0  0  0  0  0  0  0
   -2.2600    1.2810    0.0000 C   0  0  0  0  0  0  0  0  0  0  0  0
   -3.0200    2.5740    0.0000 C   0  0  0  0  0  0  0  0  0  0  0  0
   -4.5200    2.5630    0.0000 C   0  0  0  0  0  0  0  0  0  0  0  0
   -5.2600    1.2580    0.0000 C   0  0  0  0  0  0  0  0  0  0  0  0
   -6.7600    1.2460    0.0000 N   0  0  0  0  0  0  0  0  0  0  0  0
   -4.5000   -0.0350    0.0000 C   0  0  0  0  0  0  0  0  0  0  0  0
   -3.0000   -0.0240    0.0000 C   0  0  0  0  0  0  0  0  0  0  0  0
    1.5000    0.0120    0.0000 C   0  0  0  0  0  0  0  0  0  0  0  0
    2.2600   -1.2810    0.0000 C   0  0  0  0  0  0  0  0  0  0  0  0
    1.5200   -2.5860    0.0000 C   0  0  0  0  0  0  0  0  0  0  0  0
    3.7600   -1.2690    0.0000 C   0  0  0  0  0  0  0  0  0  0  0  0
  1  2  1  0  0  0  0
  1 11  1  0  0  0  0
  2  3  2  0  0  0  0
  2  4  1  0  0  0  0
  4  5  1  0  0  0  0
  4 10  2  0  0  0  0
  5  6  2  0  0  0  0
  6  7  1  0  0  0  0
  7  8  1  0  0  0  0
  7  9  2  0  0  0  0
  9 10  1  0  0  0  0
 11 12  1  0  0  0  0
 12 13  1  0  0  0  0
 12 14  1  0  0  0  0
M  END
>  <Index>
1260

>  <ID>
HT2826

>  <class>
0

>  <apol>
32.065895

>  <ast_fraglike>
1

>  <ast_fraglike_ext>
1

>  <ast_violation>
0

>  <ast_violation_ext>
0

>  <a_acc>
1

>  <a_acid>
0

>  <a_aro>
6

>  <a_base>
0

>  <a_count>
29

>  <a_don>
1

>  <a_donacc>
2

>  <a_heavy>
14

>  <a_hyd>
10

>  <a_IC>
42.224342

>  <a_ICM>
1.4560118

>  <a_nB>
0

>  <a_nBr>
0

>  <a_nC>
11

>  <a_nCl>
0

>  <a_nF>
0

>  <a_nH>
15

>  <a_nI>
0

>  <a_nN>
1

>  <a_nO>
2

>  <a_nP>
0

>  <a_nS>
0

>  <balabanJ>
2.2177737

>  <BCUT_PEOE_0>
-2.5920064

>  <BCUT_PEOE_1>
-0.50184405

>  <BCUT_PEOE_2>
0.49154827

>  <BCUT_PEOE_3>
2.5611095

>  <BCUT_SLOGP_0>
-2.5611019

>  <BCUT_SLOGP_1>
-0.34325108

>  <BCUT_SLOGP_2>
0.58006656

>  <BCUT_SLOGP_3>
2.6163859

>  <BCUT_SMR_0>
-2.3578153

>  <BCUT_SMR_1>
-0.31478333

>  <BCUT_SMR_2>
0.60421222

>  <BCUT_SMR_3>
2.7952089

>  <bpol>
18.612104

>  <b_1rotN>
3

>  <b_1rotR>
0.21428572

>  <b_ar>
6

>  <b_count>
29

>  <b_double>
1

>  <b_heavy>
14

>  <b_max1len>
4

>  <b_rotN>
4

>  <b_rotR>
0.2857143

>  <b_single>
22

>  <b_triple>
0

>  <chi0>
10.552042

>  <chi0v>
8.4877052

>  <chi0v_C>
7.0938582

>  <chi0_C>
7.8449349

>  <chi1>
6.5922241

>  <chi1v>
4.6199145

>  <chi1v_C>
3.634316

>  <chi1_C>
4.5292754

>  <chiral>
0

>  <chiral_u>
0

>  <density>
0.6963132

>  <diameter>
9

>  <FCharge>
0

>  <GCUT_PEOE_0>
-0.81296813

>  <GCUT_PEOE_1>
-0.37139872

>  <GCUT_PEOE_2>
0.042693961

>  <GCUT_PEOE_3>
2.2848165

>  <GCUT_SLOGP_0>
-1.334278

>  <GCUT_SLOGP_1>
-0.2378118

>  <GCUT_SLOGP_2>
0.12710916

>  <GCUT_SLOGP_3>
2.3569715

>  <GCUT_SMR_0>
-0.52988094

>  <GCUT_SMR_1>
-0.18496509

>  <GCUT_SMR_2>
0.1290894

>  <GCUT_SMR_3>
2.5395324

>  <Kier1>
12.071428

>  <Kier2>
5.7777777

>  <Kier3>
4.3878117

>  <KierA1>
8.9811068

>  <KierA2>
4.1909242

>  <KierA3>
3.1211479

>  <KierFlex>
2.6885097

>  <lip_acc>
3

>  <lip_don>
2

>  <lip_druglike>
1

>  <lip_violation>
0

>  <logP(o/w)>
2.4879999

>  <logS>
-2.21824

>  <mr>
5.6218333

>  <mutagenic>
1

>  <nmol>
1

>  <opr_brigid>
6

>  <opr_leadlike>
1

>  <opr_nring>
1

>  <opr_nrot>
3

>  <opr_violation>
0

>  <PC+>
0

>  <PC->
0

>  <PEOE_PC+>
1.1979703

>  <PEOE_PC->
-1.1979703

>  <PEOE_RPC+>
0.24526373

>  <PEOE_RPC->
0.25975147

>  <PEOE_VSA+0>
38.765793

>  <PEOE_VSA+1>
40.54361

>  <PEOE_VSA+2>
17.238026

>  <PEOE_VSA+3>
0

>  <PEOE_VSA+4>
0

>  <PEOE_VSA+5>
14.708499

>  <PEOE_VSA+6>
0

>  <PEOE_VSA-0>
49.019615

>  <PEOE_VSA-1>
37.495354

>  <PEOE_VSA-2>
0

>  <PEOE_VSA-3>
0

>  <PEOE_VSA-4>
0

>  <PEOE_VSA-5>
13.566921

>  <PEOE_VSA-6>
9.1548758

>  <PEOE_VSA_FHYD>
0.83024246

>  <PEOE_VSA_FNEG>
0.49542126

>  <PEOE_VSA_FPNEG>
0.10305011

>  <PEOE_VSA_FPOL>
0.16975753

>  <PEOE_VSA_FPOS>
0.50457877

>  <PEOE_VSA_FPPOS>
0.066707425

>  <PEOE_VSA_HYD>
183.06239

>  <PEOE_VSA_NEG>
109.23677

>  <PEOE_VSA_PNEG>
22.721796

>  <PEOE_VSA_POL>
37.430294

>  <PEOE_VSA_POS>
111.25593

>  <PEOE_VSA_PPOS>
14.708499

>  <petitjean>
0.44444445

>  <petitjeanSC>
0.80000001

>  <Q_PC+>
0

>  <Q_PC->
0

>  <Q_RPC+>
0

>  <Q_RPC->
0

>  <Q_VSA_FHYD>
1

>  <Q_VSA_FNEG>
0

>  <Q_VSA_FPNEG>
0

>  <Q_VSA_FPOL>
0

>  <Q_VSA_FPOS>
1

>  <Q_VSA_FPPOS>
0

>  <Q_VSA_HYD>
220.49269

>  <Q_VSA_NEG>
0

>  <Q_VSA_PNEG>
0

>  <Q_VSA_POL>
0

>  <Q_VSA_POS>
220.49269

>  <Q_VSA_PPOS>
0

>  <radius>
5

>  <reactive>
0

>  <rings>
1

>  <RPC+>
0

>  <RPC->
0

>  <rsynth>
1

>  <SlogP>
2.0816

>  <SlogP_VSA0>
32.897186

>  <SlogP_VSA1>
7.7454643

>  <SlogP_VSA2>
10.999887

>  <SlogP_VSA3>
20.926258

>  <SlogP_VSA4>
31.458588

>  <SlogP_VSA5>
0

>  <SlogP_VSA6>
0

>  <SlogP_VSA7>
70.572739

>  <SlogP_VSA8>
0

>  <SlogP_VSA9>
69.408775

>  <SMR>
5.5974898

>  <SMR_VSA0>
34.862103

>  <SMR_VSA1>
0

>  <SMR_VSA2>
4.4107962

>  <SMR_VSA3>
3.185575

>  <SMR_VSA4>
2.7567475

>  <SMR_VSA5>
103.46992

>  <SMR_VSA6>
28.671722

>  <SMR_VSA7>
66.652031

>  <TPSA>
52.32

>  <VAdjEq>
0.59167278

>  <VAdjMa>
4.8073549

>  <VDistEq>
2.9448397

>  <VDistMa>
7.2743459

>  <vdw_area>
220.49269

>  <vdw_vol>
277.5274

>  <vsa_acc>
13.566921

>  <vsa_acid>
0

>  <vsa_base>
0

>  <vsa_don>
17.742489

>  <vsa_hyd>
155.22598

>  <vsa_other>
17.212255

>  <vsa_pol>
31.30941

>  <Weight>
193.246

>  <weinerPath>
339

>  <weinerPol>
16

>  <zagreb>
64

$$$$