O=C1CC[C@@]2([C@@H]3[C@H]([C@@H]4CC[C@H](OC(=O)CC)[C@]4(CC3)C)CCC2=C1)C
  MOE2013           2D

 25 28  0  0  1  0  0  0  0  0999 V2000
    0.0000    0.0000    0.0000 O   0  0  0  0  0  0  0  0  0  0  0  0
    1.5000    0.0060    0.0000 C   0  0  0  0  0  0  0  0  0  0  0  0
    2.2450    1.3070    0.0000 C   0  0  0  0  0  0  0  0  0  0  0  0
    3.7450    1.3130    0.0000 C   0  0  0  0  0  0  0  0  0  0  0  0
    4.5000    0.0170    0.0000 C   0  0  2  0  0  0  0  0  0  0  0  0
    6.0000    0.0220    0.0000 C   0  0  2  0  0  0  0  0  0  0  0  0
    6.7550   -1.2740    0.0000 C   0  0  2  0  0  0  0  0  0  0  0  0
    8.2550   -1.2690    0.0000 C   0  0  2  0  0  0  0  0  0  0  0  0
    9.2630   -2.3800    0.0000 C   0  0  0  0  0  0  0  0  0  0  0  0
   10.6310   -1.7640    0.0000 C   0  0  0  0  0  0  0  0  0  0  0  0
   10.4680   -0.2730    0.0000 C   0  0  2  0  0  0  0  0  0  0  0  0
   11.5790    0.7350    0.0000 O   0  0  0  0  0  0  0  0  0  0  0  0
   13.0080    0.2760    0.0000 C   0  0  0  0  0  0  0  0  0  0  0  0
   13.3250   -1.1900    0.0000 O   0  0  0  0  0  0  0  0  0  0  0  0
   14.1190    1.2840    0.0000 C   0  0  0  0  0  0  0  0  0  0  0  0
   15.5470    0.8260    0.0000 C   0  0  0  0  0  0  0  0  0  0  0  0
    9.0000    0.0330    0.0000 C   0  0  1  0  0  0  0  0  0  0  0  0
    8.2450    1.3300    0.0000 C   0  0  0  0  0  0  0  0  0  0  0  0
    6.7450    1.3240    0.0000 C   0  0  0  0  0  0  0  0  0  0  0  0
    9.8770    1.2500    0.0000 C   0  0  0  0  0  0  0  0  0  0  0  0
    6.0100   -2.5760    0.0000 C   0  0  0  0  0  0  0  0  0  0  0  0
    4.5100   -2.5810    0.0000 C   0  0  0  0  0  0  0  0  0  0  0  0
    3.7550   -1.2850    0.0000 C   0  0  0  0  0  0  0  0  0  0  0  0
    2.2550   -1.2910    0.0000 C   0  0  0  0  0  0  0  0  0  0  0  0
    5.2680    1.3050    0.0000 C   0  0  0  0  0  0  0  0  0  0  0  0
  1  2  2  0  0  0  0
  2  3  1  0  0  0  0
  2 24  1  0  0  0  0
  3  4  1  0  0  0  0
  4  5  1  0  0  0  0
  5  6  1  0  0  0  0
  5 23  1  0  0  0  0
  5 25  1  1  0  0  0
  6  7  1  0  0  0  0
  6 19  1  1  0  0  0
  7  8  1  0  0  0  0
  7 21  1  6  0  0  0
  8  9  1  1  0  0  0
  8 17  1  0  0  0  0
  9 10  1  0  0  0  0
 10 11  1  0  0  0  0
 11 12  1  1  0  0  0
 11 17  1  0  0  0  0
 12 13  1  0  0  0  0
 13 14  2  0  0  0  0
 13 15  1  0  0  0  0
 15 16  1  0  0  0  0
 17 18  1  0  0  0  0
 17 20  1  1  0  0  0
 18 19  1  0  0  0  0
 21 22  1  0  0  0  0
 22 23  1  0  0  0  0
 23 24  2  0  0  0  0
M  END
>  <Index>
1058

>  <ID>
HT2021

>  <class>
0

>  <apol>
62.463375

>  <ast_fraglike>
0

>  <ast_fraglike_ext>
0

>  <ast_violation>
2

>  <ast_violation_ext>
2

>  <a_acc>
2

>  <a_acid>
0

>  <a_aro>
0

>  <a_base>
0

>  <a_count>
57

>  <a_don>
0

>  <a_donacc>
2

>  <a_heavy>
25

>  <a_hyd>
20

>  <a_IC>
69.61235

>  <a_ICM>
1.2212692

>  <a_nB>
0

>  <a_nBr>
0

>  <a_nC>
22

>  <a_nCl>
0

>  <a_nF>
0

>  <a_nH>
32

>  <a_nI>
0

>  <a_nN>
0

>  <a_nO>
3

>  <a_nP>
0

>  <a_nS>
0

>  <balabanJ>
1.539034

>  <BCUT_PEOE_0>
-2.944458

>  <BCUT_PEOE_1>
-0.40908551

>  <BCUT_PEOE_2>
0.36864626

>  <BCUT_PEOE_3>
2.9574935

>  <BCUT_SLOGP_0>
-2.8629031

>  <BCUT_SLOGP_1>
-0.31556371

>  <BCUT_SLOGP_2>
0.39747036

>  <BCUT_SLOGP_3>
3.0349057

>  <BCUT_SMR_0>
-2.6884656

>  <BCUT_SMR_1>
-0.23558269

>  <BCUT_SMR_2>
0.54443914

>  <BCUT_SMR_3>
3.2103033

>  <bpol>
38.814625

>  <b_1rotN>
2

>  <b_1rotR>
0.071428575

>  <b_ar>
0

>  <b_count>
60

>  <b_double>
3

>  <b_heavy>
28

>  <b_max1len>
3

>  <b_rotN>
3

>  <b_rotR>
0.10714286

>  <b_single>
57

>  <b_triple>
0

>  <chi0>
17.819626

>  <chi0v>
15.975457

>  <chi0v_C>
14.750712

>  <chi0_C>
15.112519

>  <chi1>
11.881013

>  <chi1v>
10.315984

>  <chi1v_C>
9.4679089

>  <chi1_C>
9.9098158

>  <chiral>
6

>  <chiral_u>
0

>  <density>
0.68505639

>  <diameter>
13

>  <FCharge>
0

>  <GCUT_PEOE_0>
-0.79651117

>  <GCUT_PEOE_1>
-0.37561968

>  <GCUT_PEOE_2>
-0.05552794

>  <GCUT_PEOE_3>
3.3081999

>  <GCUT_SLOGP_0>
-0.85156858

>  <GCUT_SLOGP_1>
-0.27656287

>  <GCUT_SLOGP_2>
-0.0013531807

>  <GCUT_SLOGP_3>
3.3934526

>  <GCUT_SMR_0>
-0.53916836

>  <GCUT_SMR_1>
-0.18252121

>  <GCUT_SMR_2>
0.088448524

>  <GCUT_SMR_3>
3.534301

>  <Kier1>
18.367348

>  <Kier2>
6.5578513

>  <Kier3>
2.8359375

>  <KierA1>
16.487238

>  <KierA2>
5.8588614

>  <KierA3>
2.5247209

>  <KierFlex>
3.8638577

>  <lip_acc>
3

>  <lip_don>
0

>  <lip_druglike>
1

>  <lip_violation>
0

>  <logP(o/w)>
4.1659999

>  <logS>
-5.2839098

>  <mr>
9.8354931

>  <mutagenic>
0

>  <nmol>
1

>  <opr_brigid>
20

>  <opr_leadlike>
1

>  <opr_nring>
4

>  <opr_nrot>
2

>  <opr_violation>
1

>  <PC+>
0

>  <PC->
0

>  <PEOE_PC+>
1.4977968

>  <PEOE_PC->
-1.4977968

>  <PEOE_RPC+>
0.17503518

>  <PEOE_RPC->
0.2078581

>  <PEOE_VSA+0>
145.36421

>  <PEOE_VSA+1>
13.4357

>  <PEOE_VSA+2>
0

>  <PEOE_VSA+3>
8.458519

>  <PEOE_VSA+4>
0

>  <PEOE_VSA+5>
14.708499

>  <PEOE_VSA+6>
0

>  <PEOE_VSA-0>
73.164093

>  <PEOE_VSA-1>
58.451572

>  <PEOE_VSA-2>
0

>  <PEOE_VSA-3>
0

>  <PEOE_VSA-4>
0

>  <PEOE_VSA-5>
27.133842

>  <PEOE_VSA-6>
2.503756

>  <PEOE_VSA_FHYD>
0.87079406

>  <PEOE_VSA_FNEG>
0.46982452

>  <PEOE_VSA_FPNEG>
0.086351559

>  <PEOE_VSA_FPOL>
0.12920597

>  <PEOE_VSA_FPOS>
0.53017545

>  <PEOE_VSA_FPPOS>
0.04285441

>  <PEOE_VSA_HYD>
298.87408

>  <PEOE_VSA_NEG>
161.25327

>  <PEOE_VSA_PNEG>
29.637598

>  <PEOE_VSA_POL>
44.346096

>  <PEOE_VSA_POS>
181.96692

>  <PEOE_VSA_PPOS>
14.708499

>  <petitjean>
0.46153846

>  <petitjeanSC>
0.85714287

>  <Q_PC+>
0

>  <Q_PC->
0

>  <Q_RPC+>
0

>  <Q_RPC->
0

>  <Q_VSA_FHYD>
1

>  <Q_VSA_FNEG>
0

>  <Q_VSA_FPNEG>
0

>  <Q_VSA_FPOL>
0

>  <Q_VSA_FPOS>
1

>  <Q_VSA_FPPOS>
0

>  <Q_VSA_HYD>
343.22018

>  <Q_VSA_NEG>
0

>  <Q_VSA_PNEG>
0

>  <Q_VSA_POL>
0

>  <Q_VSA_POS>
343.22018

>  <Q_VSA_PPOS>
0

>  <radius>
7

>  <reactive>
1

>  <rings>
4

>  <RPC+>
0

>  <RPC->
0

>  <rsynth>
0.16

>  <SlogP>
4.8400998

>  <SlogP_VSA0>
0

>  <SlogP_VSA1>
13.433075

>  <SlogP_VSA2>
65.19297

>  <SlogP_VSA3>
0

>  <SlogP_VSA4>
13.232388

>  <SlogP_VSA5>
3.185575

>  <SlogP_VSA6>
0

>  <SlogP_VSA7>
17.643185

>  <SlogP_VSA8>
169.81564

>  <SlogP_VSA9>
99.978043

>  <SMR>
9.6880999

>  <SMR_VSA0>
58.724319

>  <SMR_VSA1>
0

>  <SMR_VSA2>
13.232388

>  <SMR_VSA3>
9.6542244

>  <SMR_VSA4>
0

>  <SMR_VSA5>
187.45883

>  <SMR_VSA6>
13.433075

>  <SMR_VSA7>
99.978043

>  <TPSA>
43.369999

>  <VAdjEq>
0.43513325

>  <VAdjMa>
5.8073549

>  <VDistEq>
3.300786

>  <VDistMa>
8.992094

>  <vdw_area>
343.22018

>  <vdw_vol>
502.871

>  <vsa_acc>
27.133842

>  <vsa_acid>
0

>  <vsa_base>
0

>  <vsa_don>
0

>  <vsa_hyd>
263.60297

>  <vsa_other>
25.670774

>  <vsa_pol>
27.133842

>  <Weight>
344.495

>  <weinerPath>
1392

>  <weinerPol>
50

>  <zagreb>
144

$$$$