Fc1c2cc([nH]c2ccc1Oc1ncnc2c1cc(OC)c(OCCCN1CCCC1)c2)C
  MOE2013           2D

 33 37  0  0  0  0  0  0  0  0999 V2000
    0.0000    0.0000    0.0000 F   0  0  0  0  0  0  0  0  0  0  0  0
    0.0120   -1.5000    0.0000 C   0  0  0  0  0  0  0  0  0  0  0  0
    1.3180   -2.2390    0.0000 C   0  0  0  0  0  0  0  0  0  0  0  0
    2.7400   -1.7640    0.0000 C   0  0  0  0  0  0  0  0  0  0  0  0
    3.6320   -2.9700    0.0000 C   0  0  0  0  0  0  0  0  0  0  0  0
    2.7600   -4.1910    0.0000 N   0  0  0  0  0  0  0  0  0  0  0  0
    1.3300   -3.7390    0.0000 C   0  0  0  0  0  0  0  0  0  0  0  0
    0.0370   -4.5000    0.0000 C   0  0  0  0  0  0  0  0  0  0  0  0
   -1.2680   -3.7610    0.0000 C   0  0  0  0  0  0  0  0  0  0  0  0
   -1.2800   -2.2610    0.0000 C   0  0  0  0  0  0  0  0  0  0  0  0
   -2.5860   -1.5210    0.0000 O   0  0  0  0  0  0  0  0  0  0  0  0
   -3.8780   -2.2820    0.0000 C   0  0  0  0  0  0  0  0  0  0  0  0
   -3.8660   -3.7820    0.0000 N   0  0  0  0  0  0  0  0  0  0  0  0
   -5.1590   -4.5430    0.0000 C   0  0  0  0  0  0  0  0  0  0  0  0
   -6.4640   -3.8040    0.0000 N   0  0  0  0  0  0  0  0  0  0  0  0
   -6.4760   -2.3040    0.0000 C   0  0  0  0  0  0  0  0  0  0  0  0
   -5.1840   -1.5430    0.0000 C   0  0  0  0  0  0  0  0  0  0  0  0
   -5.1960   -0.0430    0.0000 C   0  0  0  0  0  0  0  0  0  0  0  0
   -6.5010    0.6960    0.0000 C   0  0  0  0  0  0  0  0  0  0  0  0
   -6.5140    2.1960    0.0000 O   0  0  0  0  0  0  0  0  0  0  0  0
   -5.2210    2.9570    0.0000 C   0  0  0  0  0  0  0  0  0  0  0  0
   -7.7940   -0.0640    0.0000 C   0  0  0  0  0  0  0  0  0  0  0  0
   -9.0990    0.6750    0.0000 O   0  0  0  0  0  0  0  0  0  0  0  0
  -10.3920   -0.0860    0.0000 C   0  0  0  0  0  0  0  0  0  0  0  0
  -11.6970    0.6530    0.0000 C   0  0  0  0  0  0  0  0  0  0  0  0
  -12.9900   -0.1070    0.0000 C   0  0  0  0  0  0  0  0  0  0  0  0
  -14.2950    0.6320    0.0000 N   0  0  0  0  0  0  0  0  0  0  0  0
  -15.6600    0.0100    0.0000 C   0  0  0  0  0  0  0  0  0  0  0  0
  -16.6730    1.1170    0.0000 C   0  0  0  0  0  0  0  0  0  0  0  0
  -15.9340    2.4220    0.0000 C   0  0  0  0  0  0  0  0  0  0  0  0
  -14.4640    2.1220    0.0000 C   0  0  0  0  0  0  0  0  0  0  0  0
   -7.7820   -1.5640    0.0000 C   0  0  0  0  0  0  0  0  0  0  0  0
    5.1320   -2.9580    0.0000 C   0  0  0  0  0  0  0  0  0  0  0  0
  1  2  1  0  0  0  0
  2  3  1  0  0  0  0
  2 10  2  0  0  0  0
  3  4  1  0  0  0  0
  3  7  2  0  0  0  0
  4  5  2  0  0  0  0
  5  6  1  0  0  0  0
  5 33  1  0  0  0  0
  6  7  1  0  0  0  0
  7  8  1  0  0  0  0
  8  9  2  0  0  0  0
  9 10  1  0  0  0  0
 10 11  1  0  0  0  0
 11 12  1  0  0  0  0
 12 13  2  0  0  0  0
 12 17  1  0  0  0  0
 13 14  1  0  0  0  0
 14 15  2  0  0  0  0
 15 16  1  0  0  0  0
 16 17  1  0  0  0  0
 16 32  2  0  0  0  0
 17 18  2  0  0  0  0
 18 19  1  0  0  0  0
 19 20  1  0  0  0  0
 19 22  2  0  0  0  0
 20 21  1  0  0  0  0
 22 23  1  0  0  0  0
 22 32  1  0  0  0  0
 23 24  1  0  0  0  0
 24 25  1  0  0  0  0
 25 26  1  0  0  0  0
 26 27  1  0  0  0  0
 27 28  1  0  0  0  0
 27 31  1  0  0  0  0
 28 29  1  0  0  0  0
 29 30  1  0  0  0  0
 30 31  1  0  0  0  0
M  END
>  <Index>
1175

>  <ID>
HT2269

>  <class>
0

>  <apol>
69.366409

>  <ast_fraglike>
0

>  <ast_fraglike_ext>
0

>  <ast_violation>
3

>  <ast_violation_ext>
4

>  <a_acc>
5

>  <a_acid>
0

>  <a_aro>
19

>  <a_base>
0

>  <a_count>
60

>  <a_don>
1

>  <a_donacc>
6

>  <a_heavy>
33

>  <a_hyd>
24

>  <a_IC>
97.180183

>  <a_ICM>
1.6196697

>  <a_nB>
0

>  <a_nBr>
0

>  <a_nC>
25

>  <a_nCl>
0

>  <a_nF>
1

>  <a_nH>
27

>  <a_nI>
0

>  <a_nN>
4

>  <a_nO>
3

>  <a_nP>
0

>  <a_nS>
0

>  <balabanJ>
1.1316648

>  <BCUT_PEOE_0>
-2.6255717

>  <BCUT_PEOE_1>
-0.54728431

>  <BCUT_PEOE_2>
0.47794718

>  <BCUT_PEOE_3>
2.697608

>  <BCUT_SLOGP_0>
-2.6868389

>  <BCUT_SLOGP_1>
-0.51683217

>  <BCUT_SLOGP_2>
0.62939847

>  <BCUT_SLOGP_3>
2.710695

>  <BCUT_SMR_0>
-2.3566577

>  <BCUT_SMR_1>
-0.29740778

>  <BCUT_SMR_2>
0.69011211

>  <BCUT_SMR_3>
2.965153

>  <bpol>
41.747589

>  <b_1rotN>
8

>  <b_1rotR>
0.21621622

>  <b_ar>
21

>  <b_count>
64

>  <b_double>
0

>  <b_heavy>
37

>  <b_max1len>
4

>  <b_rotN>
8

>  <b_rotR>
0.21621622

>  <b_single>
43

>  <b_triple>
0

>  <chi0>
22.785881

>  <chi0v>
18.8582

>  <chi0v_C>
15.413849

>  <chi0_C>
16.965891

>  <chi1>
16.118525

>  <chi1v>
11.257431

>  <chi1v_C>
7.1427345

>  <chi1_C>
8.8433371

>  <chiral>
0

>  <chiral_u>
0

>  <density>
0.74829572

>  <diameter>
18

>  <FCharge>
0

>  <GCUT_PEOE_0>
-0.86414844

>  <GCUT_PEOE_1>
-0.43626356

>  <GCUT_PEOE_2>
-0.018341444

>  <GCUT_PEOE_3>
2.6744232

>  <GCUT_SLOGP_0>
-0.95916724

>  <GCUT_SLOGP_1>
-0.32960832

>  <GCUT_SLOGP_2>
0.14253925

>  <GCUT_SLOGP_3>
2.7911661

>  <GCUT_SMR_0>
-0.52623183

>  <GCUT_SMR_1>
-0.1888063

>  <GCUT_SMR_2>
0.14410582

>  <GCUT_SMR_3>
2.9433084

>  <Kier1>
24.68371

>  <Kier2>
11.372781

>  <Kier3>
5.7131519

>  <KierA1>
19.099548

>  <KierA2>
8.7249107

>  <KierA3>
4.3557286

>  <KierFlex>
5.0497532

>  <lip_acc>
7

>  <lip_don>
1

>  <lip_druglike>
1

>  <lip_violation>
1

>  <logP(o/w)>
4.3777399

>  <logS>
-5.8794599

>  <mr>
12.522299

>  <mutagenic>
0

>  <nmol>
1

>  <opr_brigid>
26

>  <opr_leadlike>
0

>  <opr_nring>
5

>  <opr_nrot>
9

>  <opr_violation>
3

>  <PC+>
0

>  <PC->
0

>  <PEOE_PC+>
2.5152948

>  <PEOE_PC->
-2.5152948

>  <PEOE_RPC+>
0.07312616

>  <PEOE_RPC->
0.14235573

>  <PEOE_VSA+0>
117.77841

>  <PEOE_VSA+1>
66.513245

>  <PEOE_VSA+2>
50.877872

>  <PEOE_VSA+3>
30.58939

>  <PEOE_VSA+4>
0

>  <PEOE_VSA+5>
0

>  <PEOE_VSA+6>
0

>  <PEOE_VSA-0>
132.51079

>  <PEOE_VSA-1>
0

>  <PEOE_VSA-2>
0

>  <PEOE_VSA-3>
0

>  <PEOE_VSA-4>
23.273788

>  <PEOE_VSA-5>
2.503756

>  <PEOE_VSA-6>
5.1444035

>  <PEOE_VSA_FHYD>
0.92795306

>  <PEOE_VSA_FNEG>
0.38079196

>  <PEOE_VSA_FPNEG>
0.072046943

>  <PEOE_VSA_FPOL>
0.072046943

>  <PEOE_VSA_FPOS>
0.61920804

>  <PEOE_VSA_FPPOS>
0

>  <PEOE_VSA_HYD>
398.26971

>  <PEOE_VSA_NEG>
163.43274

>  <PEOE_VSA_PNEG>
30.921947

>  <PEOE_VSA_POL>
30.921947

>  <PEOE_VSA_POS>
265.75891

>  <PEOE_VSA_PPOS>
0

>  <petitjean>
0.5

>  <petitjeanSC>
1

>  <Q_PC+>
0

>  <Q_PC->
0

>  <Q_RPC+>
0

>  <Q_RPC->
0

>  <Q_VSA_FHYD>
1

>  <Q_VSA_FNEG>
0

>  <Q_VSA_FPNEG>
0

>  <Q_VSA_FPOL>
0

>  <Q_VSA_FPOS>
1

>  <Q_VSA_FPPOS>
0

>  <Q_VSA_HYD>
429.19165

>  <Q_VSA_NEG>
0

>  <Q_VSA_PNEG>
0

>  <Q_VSA_POL>
0

>  <Q_VSA_POS>
429.19165

>  <Q_VSA_PPOS>
0

>  <radius>
9

>  <reactive>
0

>  <rings>
5

>  <RPC+>
0

>  <RPC->
0

>  <rsynth>
0.66666669

>  <SlogP>
5.2242198

>  <SlogP_VSA0>
32.999664

>  <SlogP_VSA1>
36.695374

>  <SlogP_VSA2>
25.906548

>  <SlogP_VSA3>
76.244995

>  <SlogP_VSA4>
2.7567475

>  <SlogP_VSA5>
35.383869

>  <SlogP_VSA6>
0

>  <SlogP_VSA7>
114.43565

>  <SlogP_VSA8>
56.605217

>  <SlogP_VSA9>
68.831017

>  <SMR>
12.49437

>  <SMR_VSA0>
0

>  <SMR_VSA1>
84.655151

>  <SMR_VSA2>
25.906548

>  <SMR_VSA3>
23.301632

>  <SMR_VSA4>
9.4342031

>  <SMR_VSA5>
161.60667

>  <SMR_VSA6>
76.244995

>  <SMR_VSA7>
68.709885

>  <TPSA>
72.5

>  <VAdjEq>
0.35823497

>  <VAdjMa>
6.2094536

>  <VDistEq>
3.902771

>  <VDistMa>
9.7701092

>  <vdw_area>
429.19165

>  <vdw_vol>
602.05341

>  <vsa_acc>
16.372663

>  <vsa_acid>
0

>  <vsa_base>
0

>  <vsa_don>
5.6825762

>  <vsa_hyd>
345.31259

>  <vsa_other>
40.243805

>  <vsa_pol>
22.055241

>  <Weight>
450.51398

>  <weinerPath>
3562

>  <weinerPol>
52

>  <zagreb>
178

$$$$