Oc1c(O)c(O)ccc1CNNC(=O)C(N)CO
  MOE2013           2D

 18 18  0  0  1  0  0  0  0  0999 V2000
    0.0000    0.0000    0.0000 O   0  0  0  0  0  0  0  0  0  0  0  0
   -0.7390   -1.3060    0.0000 C   0  0  0  0  0  0  0  0  0  0  0  0
   -2.2390   -1.3190    0.0000 C   0  0  0  0  0  0  0  0  0  0  0  0
   -3.0000   -0.0260    0.0000 O   0  0  0  0  0  0  0  0  0  0  0  0
   -2.9770   -2.6240    0.0000 C   0  0  0  0  0  0  0  0  0  0  0  0
   -4.4770   -2.6370    0.0000 O   0  0  0  0  0  0  0  0  0  0  0  0
   -2.2160   -3.9170    0.0000 C   0  0  0  0  0  0  0  0  0  0  0  0
   -0.7160   -3.9030    0.0000 C   0  0  0  0  0  0  0  0  0  0  0  0
    0.0230   -2.5980    0.0000 C   0  0  0  0  0  0  0  0  0  0  0  0
    1.5230   -2.5850    0.0000 C   0  0  0  0  0  0  0  0  0  0  0  0
    2.2840   -3.8770    0.0000 N   0  0  0  0  0  0  0  0  0  0  0  0
    3.7840   -3.8640    0.0000 N   0  0  0  0  0  0  0  0  0  0  0  0
    4.5450   -5.1570    0.0000 C   0  0  0  0  0  0  0  0  0  0  0  0
    3.8060   -6.4620    0.0000 O   0  0  0  0  0  0  0  0  0  0  0  0
    6.0450   -5.1440    0.0000 C   0  0  3  0  0  0  0  0  0  0  0  0
    6.7840   -3.8380    0.0000 N   0  0  0  0  0  0  0  0  0  0  0  0
    6.8060   -6.4360    0.0000 C   0  0  0  0  0  0  0  0  0  0  0  0
    8.3060   -6.4230    0.0000 O   0  0  0  0  0  0  0  0  0  0  0  0
  1  2  1  0  0  0  0
  2  3  1  0  0  0  0
  2  9  2  0  0  0  0
  3  4  1  0  0  0  0
  3  5  2  0  0  0  0
  5  6  1  0  0  0  0
  5  7  1  0  0  0  0
  7  8  2  0  0  0  0
  8  9  1  0  0  0  0
  9 10  1  0  0  0  0
 10 11  1  0  0  0  0
 11 12  1  0  0  0  0
 12 13  1  0  0  0  0
 13 14  2  0  0  0  0
 13 15  1  0  0  0  0
 15 16  1  0  0  0  0
 15 17  1  0  0  0  0
 17 18  1  0  0  0  0
M  END
>  <Index>
1290

>  <ID>
HT3132

>  <class>
0

>  <apol>
34.911896

>  <ast_fraglike>
0

>  <ast_fraglike_ext>
0

>  <ast_violation>
2

>  <ast_violation_ext>
4

>  <a_acc>
7

>  <a_acid>
0

>  <a_aro>
6

>  <a_base>
0

>  <a_count>
33

>  <a_don>
7

>  <a_donacc>
14

>  <a_heavy>
18

>  <a_hyd>
9

>  <a_IC>
58.27784

>  <a_ICM>
1.7659951

>  <a_nB>
0

>  <a_nBr>
0

>  <a_nC>
10

>  <a_nCl>
0

>  <a_nF>
0

>  <a_nH>
15

>  <a_nI>
0

>  <a_nN>
3

>  <a_nO>
5

>  <a_nP>
0

>  <a_nS>
0

>  <balabanJ>
2.2795908

>  <BCUT_PEOE_0>
-2.5069396

>  <BCUT_PEOE_1>
-0.61886328

>  <BCUT_PEOE_2>
0.70950043

>  <BCUT_PEOE_3>
2.5128937

>  <BCUT_SLOGP_0>
-2.8255916

>  <BCUT_SLOGP_1>
-0.65874255

>  <BCUT_SLOGP_2>
0.60275871

>  <BCUT_SLOGP_3>
2.5162292

>  <BCUT_SMR_0>
-2.245645

>  <BCUT_SMR_1>
-0.50912094

>  <BCUT_SMR_2>
0.80235523

>  <BCUT_SMR_3>
2.7520311

>  <bpol>
16.696104

>  <b_1rotN>
5

>  <b_1rotR>
0.27777779

>  <b_ar>
6

>  <b_count>
33

>  <b_double>
1

>  <b_heavy>
18

>  <b_max1len>
5

>  <b_rotN>
6

>  <b_rotR>
0.33333334

>  <b_single>
26

>  <b_triple>
0

>  <chi0>
13.706742

>  <chi0v>
9.4207172

>  <chi0v_C>
5.6462646

>  <chi0_C>
6.2925286

>  <chi1>
8.4684334

>  <chi1v>
5.0892196

>  <chi1v_C>
2.7111604

>  <chi1_C>
3.4663265

>  <chiral>
1

>  <chiral_u>
1

>  <density>
0.83443433

>  <diameter>
11

>  <FCharge>
0

>  <GCUT_PEOE_0>
-0.86422992

>  <GCUT_PEOE_1>
-0.44096631

>  <GCUT_PEOE_2>
0.18227676

>  <GCUT_PEOE_3>
2.3439047

>  <GCUT_SLOGP_0>
-1.3637893

>  <GCUT_SLOGP_1>
-0.43456095

>  <GCUT_SLOGP_2>
0.092243582

>  <GCUT_SLOGP_3>
2.4214497

>  <GCUT_SMR_0>
-0.50988376

>  <GCUT_SMR_1>
-0.25000852

>  <GCUT_SMR_2>
0.25605562

>  <GCUT_SMR_3>
2.5999818

>  <Kier1>
16.055555

>  <Kier2>
7.5555553

>  <Kier3>
4.5659928

>  <KierA1>
12.824219

>  <KierA2>
5.9489746

>  <KierA3>
3.5570564

>  <KierFlex>
4.2383862

>  <lip_acc>
8

>  <lip_don>
8

>  <lip_druglike>
1

>  <lip_violation>
1

>  <logP(o/w)>
-1.317

>  <logS>
0.36873001

>  <mr>
6.1615472

>  <mutagenic>
0

>  <nmol>
1

>  <opr_brigid>
6

>  <opr_leadlike>
1

>  <opr_nring>
1

>  <opr_nrot>
5

>  <opr_violation>
1

>  <PC+>
0

>  <PC->
0

>  <PEOE_PC+>
2.6501448

>  <PEOE_PC->
-2.6501448

>  <PEOE_RPC+>
0.095833316

>  <PEOE_RPC->
0.14828619

>  <PEOE_VSA+0>
23.931637

>  <PEOE_VSA+1>
36.278225

>  <PEOE_VSA+2>
54.378559

>  <PEOE_VSA+3>
8.6190128

>  <PEOE_VSA+4>
41.296692

>  <PEOE_VSA+5>
12.949531

>  <PEOE_VSA+6>
0

>  <PEOE_VSA-0>
12.254904

>  <PEOE_VSA-1>
12.254904

>  <PEOE_VSA-2>
0

>  <PEOE_VSA-3>
0

>  <PEOE_VSA-4>
3.8753545

>  <PEOE_VSA-5>
17.442276

>  <PEOE_VSA-6>
37.721279

>  <PEOE_VSA_FHYD>
0.5659613

>  <PEOE_VSA_FNEG>
0.32010713

>  <PEOE_VSA_FPNEG>
0.22620067

>  <PEOE_VSA_FPOL>
0.4340387

>  <PEOE_VSA_FPOS>
0.6798929

>  <PEOE_VSA_FPPOS>
0.20783804

>  <PEOE_VSA_HYD>
147.71724

>  <PEOE_VSA_NEG>
83.548721

>  <PEOE_VSA_PNEG>
59.03891

>  <PEOE_VSA_POL>
113.28513

>  <PEOE_VSA_POS>
177.45366

>  <PEOE_VSA_PPOS>
54.246223

>  <petitjean>
0.45454547

>  <petitjeanSC>
0.83333331

>  <Q_PC+>
0

>  <Q_PC->
0

>  <Q_RPC+>
0

>  <Q_RPC->
0

>  <Q_VSA_FHYD>
1

>  <Q_VSA_FNEG>
0

>  <Q_VSA_FPNEG>
0

>  <Q_VSA_FPOL>
0

>  <Q_VSA_FPOS>
1

>  <Q_VSA_FPPOS>
0

>  <Q_VSA_HYD>
261.00238

>  <Q_VSA_NEG>
0

>  <Q_VSA_PNEG>
0

>  <Q_VSA_POL>
0

>  <Q_VSA_POS>
261.00238

>  <Q_VSA_PPOS>
0

>  <radius>
6

>  <reactive>
1

>  <rings>
1

>  <RPC+>
0

>  <RPC->
0

>  <rsynth>
1

>  <SlogP>
-1.4898

>  <SlogP_VSA0>
170.21455

>  <SlogP_VSA1>
5.2587838

>  <SlogP_VSA2>
27.844185

>  <SlogP_VSA3>
20.926258

>  <SlogP_VSA4>
3.185575

>  <SlogP_VSA5>
0

>  <SlogP_VSA6>
0

>  <SlogP_VSA7>
35.286369

>  <SlogP_VSA8>
0

>  <SlogP_VSA9>
34.169861

>  <SMR>
6.1684999

>  <SMR_VSA0>
23.862217

>  <SMR_VSA1>
101.54091

>  <SMR_VSA2>
35.776459

>  <SMR_VSA3>
22.897827

>  <SMR_VSA4>
32.897186

>  <SMR_VSA5>
53.725948

>  <SMR_VSA6>
26.185041

>  <SMR_VSA7>
0

>  <TPSA>
148.07001

>  <VAdjEq>
0.50325835

>  <VAdjMa>
5.1699252

>  <VDistEq>
3.2278631

>  <VDistMa>
8.0081472

>  <vdw_area>
261.00238

>  <vdw_vol>
308.28787

>  <vsa_acc>
13.566921

>  <vsa_acid>
0

>  <vsa_base>
0

>  <vsa_don>
9.4210396

>  <vsa_hyd>
108.25862

>  <vsa_other>
12.949531

>  <vsa_pol>
104.41917

>  <Weight>
257.246

>  <weinerPath>
693

>  <weinerPol>
26

>  <zagreb>
84

$$$$