N(Cc1c2c(ccc1)cccc2)(Cc1ccc(cc1)C(C)(C)C)C
  MOE2013           2D

 24 26  0  0  1  0  0  0  0  0999 V2000
    0.0000    0.0000    0.0000 N   0  0  3  0  0  0  0  0  0  0  0  0
   -1.5000   -0.0060    0.0000 C   0  0  0  0  0  0  0  0  0  0  0  0
   -2.2550    1.2900    0.0000 C   0  0  0  0  0  0  0  0  0  0  0  0
   -3.7550    1.2850    0.0000 C   0  0  0  0  0  0  0  0  0  0  0  0
   -4.5100    2.5810    0.0000 C   0  0  0  0  0  0  0  0  0  0  0  0
   -3.7650    3.8830    0.0000 C   0  0  0  0  0  0  0  0  0  0  0  0
   -2.2650    3.8890    0.0000 C   0  0  0  0  0  0  0  0  0  0  0  0
   -1.5100    2.5920    0.0000 C   0  0  0  0  0  0  0  0  0  0  0  0
   -6.0100    2.5750    0.0000 C   0  0  0  0  0  0  0  0  0  0  0  0
   -6.7550    1.2730    0.0000 C   0  0  0  0  0  0  0  0  0  0  0  0
   -6.0000   -0.0230    0.0000 C   0  0  0  0  0  0  0  0  0  0  0  0
   -4.5000   -0.0170    0.0000 C   0  0  0  0  0  0  0  0  0  0  0  0
    0.7550   -1.2960    0.0000 C   0  0  0  0  0  0  0  0  0  0  0  0
    2.2550   -1.2900    0.0000 C   0  0  0  0  0  0  0  0  0  0  0  0
    3.0100   -2.5870    0.0000 C   0  0  0  0  0  0  0  0  0  0  0  0
    4.5100   -2.5810    0.0000 C   0  0  0  0  0  0  0  0  0  0  0  0
    5.2550   -1.2790    0.0000 C   0  0  0  0  0  0  0  0  0  0  0  0
    4.5000    0.0170    0.0000 C   0  0  0  0  0  0  0  0  0  0  0  0
    3.0000    0.0110    0.0000 C   0  0  0  0  0  0  0  0  0  0  0  0
    6.7550   -1.2730    0.0000 C   0  0  0  0  0  0  0  0  0  0  0  0
    6.7490    0.2270    0.0000 C   0  0  0  0  0  0  0  0  0  0  0  0
    6.7610   -2.7730    0.0000 C   0  0  0  0  0  0  0  0  0  0  0  0
    8.2550   -1.2680    0.0000 C   0  0  0  0  0  0  0  0  0  0  0  0
    0.7450    1.3020    0.0000 C   0  0  0  0  0  0  0  0  0  0  0  0
  1  2  1  0  0  0  0
  1 13  1  0  0  0  0
  1 24  1  0  0  0  0
  2  3  1  0  0  0  0
  3  4  1  0  0  0  0
  3  8  2  0  0  0  0
  4  5  1  0  0  0  0
  4 12  2  0  0  0  0
  5  6  1  0  0  0  0
  5  9  2  0  0  0  0
  6  7  2  0  0  0  0
  7  8  1  0  0  0  0
  9 10  1  0  0  0  0
 10 11  2  0  0  0  0
 11 12  1  0  0  0  0
 13 14  1  0  0  0  0
 14 15  1  0  0  0  0
 14 19  2  0  0  0  0
 15 16  2  0  0  0  0
 16 17  1  0  0  0  0
 17 18  2  0  0  0  0
 17 20  1  0  0  0  0
 18 19  1  0  0  0  0
 20 21  1  0  0  0  0
 20 22  1  0  0  0  0
 20 23  1  0  0  0  0
M  END
>  <Index>
169

>  <ID>
HT0335

>  <class>
0

>  <apol>
59.583412

>  <ast_fraglike>
0

>  <ast_fraglike_ext>
0

>  <ast_violation>
2

>  <ast_violation_ext>
3

>  <a_acc>
1

>  <a_acid>
0

>  <a_aro>
16

>  <a_base>
0

>  <a_count>
51

>  <a_don>
0

>  <a_donacc>
1

>  <a_heavy>
24

>  <a_hyd>
23

>  <a_IC>
56.869804

>  <a_ICM>
1.1150942

>  <a_nB>
0

>  <a_nBr>
0

>  <a_nC>
23

>  <a_nCl>
0

>  <a_nF>
0

>  <a_nH>
27

>  <a_nI>
0

>  <a_nN>
1

>  <a_nO>
0

>  <a_nP>
0

>  <a_nS>
0

>  <balabanJ>
1.4364773

>  <BCUT_PEOE_0>
-2.6351945

>  <BCUT_PEOE_1>
-0.46358234

>  <BCUT_PEOE_2>
0.52361608

>  <BCUT_PEOE_3>
2.5781693

>  <BCUT_SLOGP_0>
-2.5418615

>  <BCUT_SLOGP_1>
-0.3691113

>  <BCUT_SLOGP_2>
0.63901371

>  <BCUT_SLOGP_3>
2.6819351

>  <BCUT_SMR_0>
-2.370491

>  <BCUT_SMR_1>
-0.30382234

>  <BCUT_SMR_2>
0.68004692

>  <BCUT_SMR_3>
2.8485229

>  <bpol>
31.49659

>  <b_1rotN>
4

>  <b_1rotR>
0.15384616

>  <b_ar>
17

>  <b_count>
53

>  <b_double>
0

>  <b_heavy>
26

>  <b_max1len>
4

>  <b_rotN>
5

>  <b_rotR>
0.1923077

>  <b_single>
36

>  <b_triple>
0

>  <chi0>
17.15649

>  <chi0v>
15.21228

>  <chi0v_C>
14.765066

>  <chi0_C>
16.57914

>  <chi1>
11.431671

>  <chi1v>
8.6795101

>  <chi1v_C>
7.5998411

>  <chi1_C>
10.037825

>  <chiral>
0

>  <chiral_u>
0

>  <density>
0.62895405

>  <diameter>
13

>  <FCharge>
0

>  <GCUT_PEOE_0>
-0.85013479

>  <GCUT_PEOE_1>
-0.35487837

>  <GCUT_PEOE_2>
0.018227136

>  <GCUT_PEOE_3>
2.6918535

>  <GCUT_SLOGP_0>
-0.88404709

>  <GCUT_SLOGP_1>
-0.25560763

>  <GCUT_SLOGP_2>
0.11780109

>  <GCUT_SLOGP_3>
2.8360775

>  <GCUT_SMR_0>
-0.52218592

>  <GCUT_SMR_1>
-0.17369924

>  <GCUT_SMR_2>
0.14481983

>  <GCUT_SMR_3>
2.9788513

>  <Kier1>
18.781065

>  <Kier2>
8.1314831

>  <Kier3>
5.0192595

>  <KierA1>
14.191137

>  <KierA2>
6.0636888

>  <KierA3>
3.7074454

>  <KierFlex>
3.5854435

>  <lip_acc>
1

>  <lip_don>
0

>  <lip_druglike>
1

>  <lip_violation>
1

>  <logP(o/w)>
6.4619999

>  <logS>
-6.92169

>  <mr>
10.285994

>  <mutagenic>
0

>  <nmol>
1

>  <opr_brigid>
17

>  <opr_leadlike>
1

>  <opr_nring>
3

>  <opr_nrot>
5

>  <opr_violation>
1

>  <PC+>
0

>  <PC->
0

>  <PEOE_PC+>
1.2532945

>  <PEOE_PC->
-1.2532945

>  <PEOE_RPC+>
0.049765363

>  <PEOE_RPC->
0.23696396

>  <PEOE_VSA+0>
94.630829

>  <PEOE_VSA+1>
46.919247

>  <PEOE_VSA+2>
0

>  <PEOE_VSA+3>
0

>  <PEOE_VSA+4>
0

>  <PEOE_VSA+5>
0

>  <PEOE_VSA+6>
0

>  <PEOE_VSA-0>
34.281387

>  <PEOE_VSA-1>
191.04698

>  <PEOE_VSA-2>
0

>  <PEOE_VSA-3>
0

>  <PEOE_VSA-4>
0

>  <PEOE_VSA-5>
0

>  <PEOE_VSA-6>
0

>  <PEOE_VSA_FHYD>
1

>  <PEOE_VSA_FNEG>
0.61417717

>  <PEOE_VSA_FPNEG>
0

>  <PEOE_VSA_FPOL>
0

>  <PEOE_VSA_FPOS>
0.38582283

>  <PEOE_VSA_FPPOS>
0

>  <PEOE_VSA_HYD>
366.87845

>  <PEOE_VSA_NEG>
225.32837

>  <PEOE_VSA_PNEG>
0

>  <PEOE_VSA_POL>
0

>  <PEOE_VSA_POS>
141.55008

>  <PEOE_VSA_PPOS>
0

>  <petitjean>
0.46153846

>  <petitjeanSC>
0.85714287

>  <Q_PC+>
0

>  <Q_PC->
0

>  <Q_RPC+>
0

>  <Q_RPC->
0

>  <Q_VSA_FHYD>
1

>  <Q_VSA_FNEG>
0

>  <Q_VSA_FPNEG>
0

>  <Q_VSA_FPOL>
0

>  <Q_VSA_FPOS>
1

>  <Q_VSA_FPPOS>
0

>  <Q_VSA_HYD>
366.87845

>  <Q_VSA_NEG>
0

>  <Q_VSA_PNEG>
0

>  <Q_VSA_POL>
0

>  <Q_VSA_POS>
366.87845

>  <Q_VSA_PPOS>
0

>  <radius>
7

>  <reactive>
0

>  <rings>
3

>  <RPC+>
0

>  <RPC->
0

>  <rsynth>
1

>  <SlogP>
6.3021002

>  <SlogP_VSA0>
0

>  <SlogP_VSA1>
3.1243138

>  <SlogP_VSA2>
0

>  <SlogP_VSA3>
0

>  <SlogP_VSA4>
9.5567245

>  <SlogP_VSA5>
32.897186

>  <SlogP_VSA6>
0

>  <SlogP_VSA7>
199.22096

>  <SlogP_VSA8>
0

>  <SlogP_VSA9>
136.85721

>  <SMR>
10.4671

>  <SMR_VSA0>
0

>  <SMR_VSA1>
3.1243138

>  <SMR_VSA2>
0

>  <SMR_VSA3>
9.5567245

>  <SMR_VSA4>
5.1459289

>  <SMR_VSA5>
230.95418

>  <SMR_VSA6>
0

>  <SMR_VSA7>
132.87523

>  <TPSA>
3.24

>  <VAdjEq>
0.43739632

>  <VAdjMa>
5.7004399

>  <VDistEq>
3.5339174

>  <VDistMa>
8.8411694

>  <vdw_area>
366.87845

>  <vdw_vol>
504.76819

>  <vsa_acc>
0

>  <vsa_acid>
0

>  <vsa_base>
0

>  <vsa_don>
0

>  <vsa_hyd>
347.65997

>  <vsa_other>
0

>  <vsa_pol>
0

>  <Weight>
317.47598

>  <weinerPath>
1498

>  <weinerPol>
36

>  <zagreb>
126

$$$$