O=C1N(N(C)C(C)=C1C(C)C)c1ccccc1
  MOE2013           2D

 17 18  0  0  1  0  0  0  0  0999 V2000
    0.0000    0.0000    0.0000 O   0  0  0  0  0  0  0  0  0  0  0  0
    0.2430    1.4800    0.0000 C   0  0  0  0  0  0  0  0  0  0  0  0
   -0.8110    2.5470    0.0000 N   0  0  0  0  0  0  0  0  0  0  0  0
   -0.1230    3.8790    0.0000 N   0  0  3  0  0  0  0  0  0  0  0  0
   -0.7960    5.2200    0.0000 C   0  0  0  0  0  0  0  0  0  0  0  0
    1.3580    3.6360    0.0000 C   0  0  0  0  0  0  0  0  0  0  0  0
    2.4240    4.6910    0.0000 C   0  0  0  0  0  0  0  0  0  0  0  0
    1.5840    2.1530    0.0000 C   0  0  0  0  0  0  0  0  0  0  0  0
    2.9160    1.4650    0.0000 C   0  0  0  0  0  0  0  0  0  0  0  0
    2.9860   -0.0340    0.0000 C   0  0  0  0  0  0  0  0  0  0  0  0
    4.1790    2.2740    0.0000 C   0  0  0  0  0  0  0  0  0  0  0  0
   -2.2940    2.3210    0.0000 C   0  0  0  0  0  0  0  0  0  0  0  0
   -2.8400    0.9240    0.0000 C   0  0  0  0  0  0  0  0  0  0  0  0
   -4.3230    0.6980    0.0000 C   0  0  0  0  0  0  0  0  0  0  0  0
   -5.2600    1.8690    0.0000 C   0  0  0  0  0  0  0  0  0  0  0  0
   -4.7140    3.2660    0.0000 C   0  0  0  0  0  0  0  0  0  0  0  0
   -3.2310    3.4920    0.0000 C   0  0  0  0  0  0  0  0  0  0  0  0
  1  2  2  0  0  0  0
  2  3  1  0  0  0  0
  2  8  1  0  0  0  0
  3  4  1  0  0  0  0
  3 12  1  0  0  0  0
  4  5  1  0  0  0  0
  4  6  1  0  0  0  0
  6  7  1  0  0  0  0
  6  8  2  0  0  0  0
  8  9  1  0  0  0  0
  9 10  1  0  0  0  0
  9 11  1  0  0  0  0
 12 13  1  0  0  0  0
 12 17  2  0  0  0  0
 13 14  2  0  0  0  0
 14 15  1  0  0  0  0
 15 16  2  0  0  0  0
 16 17  1  0  0  0  0
M  END
>  <Index>
1277

>  <ID>
HT3006

>  <class>
0

>  <apol>
39.644276

>  <ast_fraglike>
1

>  <ast_fraglike_ext>
1

>  <ast_violation>
0

>  <ast_violation_ext>
0

>  <a_acc>
1

>  <a_acid>
0

>  <a_aro>
6

>  <a_base>
0

>  <a_count>
35

>  <a_don>
0

>  <a_donacc>
1

>  <a_heavy>
17

>  <a_hyd>
13

>  <a_IC>
49.163288

>  <a_ICM>
1.4046654

>  <a_nB>
0

>  <a_nBr>
0

>  <a_nC>
14

>  <a_nCl>
0

>  <a_nF>
0

>  <a_nH>
18

>  <a_nI>
0

>  <a_nN>
2

>  <a_nO>
1

>  <a_nP>
0

>  <a_nS>
0

>  <balabanJ>
2.1245601

>  <BCUT_PEOE_0>
-2.5264509

>  <BCUT_PEOE_1>
-0.48038638

>  <BCUT_PEOE_2>
0.55294698

>  <BCUT_PEOE_3>
2.5731759

>  <BCUT_SLOGP_0>
-2.5268731

>  <BCUT_SLOGP_1>
-0.38562006

>  <BCUT_SLOGP_2>
0.60050124

>  <BCUT_SLOGP_3>
2.6319973

>  <BCUT_SMR_0>
-2.2831011

>  <BCUT_SMR_1>
-0.30576566

>  <BCUT_SMR_2>
0.72180796

>  <BCUT_SMR_3>
2.8593824

>  <bpol>
23.275726

>  <b_1rotN>
2

>  <b_1rotR>
0.11111111

>  <b_ar>
6

>  <b_count>
36

>  <b_double>
2

>  <b_heavy>
18

>  <b_max1len>
4

>  <b_rotN>
2

>  <b_rotR>
0.11111111

>  <b_single>
28

>  <b_triple>
0

>  <chi0>
12.576985

>  <chi0v>
10.766777

>  <chi0v_C>
9.4641018

>  <chi0_C>
10.422285

>  <chi1>
8.036581

>  <chi1v>
5.8762174

>  <chi1v_C>
4.3540592

>  <chi1_C>
5.5485473

>  <chiral>
0

>  <chiral_u>
0

>  <density>
0.67603689

>  <diameter>
8

>  <FCharge>
0

>  <GCUT_PEOE_0>
-0.84544075

>  <GCUT_PEOE_1>
-0.36707398

>  <GCUT_PEOE_2>
0.0074527585

>  <GCUT_PEOE_3>
2.5609868

>  <GCUT_SLOGP_0>
-1.023608

>  <GCUT_SLOGP_1>
-0.24817465

>  <GCUT_SLOGP_2>
0.068887398

>  <GCUT_SLOGP_3>
2.6228054

>  <GCUT_SMR_0>
-0.52323282

>  <GCUT_SMR_1>
-0.17686324

>  <GCUT_SMR_2>
0.15966316

>  <GCUT_SMR_3>
2.8369145

>  <Kier1>
13.432098

>  <Kier2>
5.3254437

>  <Kier3>
2.4197531

>  <KierA1>
9.6961603

>  <KierA2>
3.7584152

>  <KierA3>
1.6771019

>  <KierFlex>
2.1436586

>  <lip_acc>
3

>  <lip_don>
0

>  <lip_druglike>
1

>  <lip_violation>
0

>  <logP(o/w)>
2.3050001

>  <logS>
-3.02881

>  <mr>
6.8816633

>  <mutagenic>
0

>  <nmol>
1

>  <opr_brigid>
11

>  <opr_leadlike>
1

>  <opr_nring>
2

>  <opr_nrot>
2

>  <opr_violation>
0

>  <PC+>
0

>  <PC->
0

>  <PEOE_PC+>
1.1026335

>  <PEOE_PC->
-1.1026335

>  <PEOE_RPC+>
0.24585512

>  <PEOE_RPC->
0.24117945

>  <PEOE_VSA+0>
87.596802

>  <PEOE_VSA+1>
28.026482

>  <PEOE_VSA+2>
0

>  <PEOE_VSA+3>
0

>  <PEOE_VSA+4>
0

>  <PEOE_VSA+5>
12.949531

>  <PEOE_VSA+6>
0

>  <PEOE_VSA-0>
43.257484

>  <PEOE_VSA-1>
74.260063

>  <PEOE_VSA-2>
0

>  <PEOE_VSA-3>
0

>  <PEOE_VSA-4>
0

>  <PEOE_VSA-5>
13.566921

>  <PEOE_VSA-6>
0

>  <PEOE_VSA_FHYD>
0.89787906

>  <PEOE_VSA_FNEG>
0.5048365

>  <PEOE_VSA_FPNEG>
0.052249338

>  <PEOE_VSA_FPOL>
0.10212097

>  <PEOE_VSA_FPOS>
0.4951635

>  <PEOE_VSA_FPPOS>
0.049871627

>  <PEOE_VSA_HYD>
233.14084

>  <PEOE_VSA_NEG>
131.08447

>  <PEOE_VSA_PNEG>
13.566921

>  <PEOE_VSA_POL>
26.516451

>  <PEOE_VSA_POS>
128.57281

>  <PEOE_VSA_PPOS>
12.949531

>  <petitjean>
0.5

>  <petitjeanSC>
1

>  <Q_PC+>
0

>  <Q_PC->
0

>  <Q_RPC+>
0

>  <Q_RPC->
0

>  <Q_VSA_FHYD>
1

>  <Q_VSA_FNEG>
0

>  <Q_VSA_FPNEG>
0

>  <Q_VSA_FPOL>
0

>  <Q_VSA_FPOS>
1

>  <Q_VSA_FPPOS>
0

>  <Q_VSA_HYD>
259.65729

>  <Q_VSA_NEG>
0

>  <Q_VSA_PNEG>
0

>  <Q_VSA_POL>
0

>  <Q_VSA_POS>
259.65729

>  <Q_VSA_PPOS>
0

>  <radius>
4

>  <reactive>
0

>  <rings>
2

>  <RPC+>
0

>  <RPC->
0

>  <rsynth>
1

>  <SlogP>
2.8099999

>  <SlogP_VSA0>
3.0017917

>  <SlogP_VSA1>
8.2605753

>  <SlogP_VSA2>
23.862217

>  <SlogP_VSA3>
0

>  <SlogP_VSA4>
4.4107962

>  <SlogP_VSA5>
38.839512

>  <SlogP_VSA6>
0

>  <SlogP_VSA7>
88.215919

>  <SlogP_VSA8>
0

>  <SlogP_VSA9>
102.73479

>  <SMR>
6.9229002

>  <SMR_VSA0>
23.862217

>  <SMR_VSA1>
3.0017917

>  <SMR_VSA2>
7.4125876

>  <SMR_VSA3>
5.9423227

>  <SMR_VSA4>
2.7567475

>  <SMR_VSA5>
88.215919

>  <SMR_VSA6>
5.2587838

>  <SMR_VSA7>
132.87523

>  <TPSA>
23.549999

>  <VAdjEq>
0.54234898

>  <VAdjMa>
5.1699252

>  <VDistEq>
2.7516141

>  <VDistMa>
7.9047651

>  <vdw_area>
259.65729

>  <vdw_vol>
340.67813

>  <vsa_acc>
13.566921

>  <vsa_acid>
0

>  <vsa_base>
0

>  <vsa_don>
0

>  <vsa_hyd>
218.98346

>  <vsa_other>
12.949531

>  <vsa_pol>
13.566921

>  <Weight>
230.31099

>  <weinerPath>
478

>  <weinerPol>
28

>  <zagreb>
88

$$$$