O1C(C(O)C(O)C(O)C1CO)C1c2c(C(=O)c3c1cccc3O)c(O)cc(c2)CO
  MOE2013           2D

 30 33  0  0  1  0  0  0  0  0999 V2000
    0.0000    0.0000    0.0000 O   0  0  0  0  0  0  0  0  0  0  0  0
   -0.7600   -1.2930    0.0000 C   0  0  3  0  0  0  0  0  0  0  0  0
   -0.0200   -2.5980    0.0000 C   0  0  3  0  0  0  0  0  0  0  0  0
   -0.7800   -3.8910    0.0000 O   0  0  0  0  0  0  0  0  0  0  0  0
    1.4800   -2.6100    0.0000 C   0  0  3  0  0  0  0  0  0  0  0  0
    2.2200   -3.9140    0.0000 O   0  0  0  0  0  0  0  0  0  0  0  0
    2.2400   -1.3160    0.0000 C   0  0  3  0  0  0  0  0  0  0  0  0
    3.7400   -1.3280    0.0000 O   0  0  0  0  0  0  0  0  0  0  0  0
    1.5000   -0.0120    0.0000 C   0  0  3  0  0  0  0  0  0  0  0  0
    2.2600    1.2820    0.0000 C   0  0  0  0  0  0  0  0  0  0  0  0
    3.7600    1.2700    0.0000 O   0  0  0  0  0  0  0  0  0  0  0  0
   -2.2600   -1.2820    0.0000 C   0  0  3  0  0  0  0  0  0  0  0  0
   -3.0000    0.0230    0.0000 C   0  0  0  0  0  0  0  0  0  0  0  0
   -4.5000    0.0350    0.0000 C   0  0  0  0  0  0  0  0  0  0  0  0
   -5.2600   -1.2580    0.0000 C   0  0  0  0  0  0  0  0  0  0  0  0
   -6.7600   -1.2470    0.0000 O   0  0  0  0  0  0  0  0  0  0  0  0
   -4.5200   -2.5630    0.0000 C   0  0  0  0  0  0  0  0  0  0  0  0
   -3.0200   -2.5750    0.0000 C   0  0  0  0  0  0  0  0  0  0  0  0
   -2.2800   -3.8800    0.0000 C   0  0  0  0  0  0  0  0  0  0  0  0
   -3.0400   -5.1730    0.0000 C   0  0  0  0  0  0  0  0  0  0  0  0
   -4.5400   -5.1610    0.0000 C   0  0  0  0  0  0  0  0  0  0  0  0
   -5.2800   -3.8560    0.0000 C   0  0  0  0  0  0  0  0  0  0  0  0
   -6.7800   -3.8450    0.0000 O   0  0  0  0  0  0  0  0  0  0  0  0
   -5.2400    1.3400    0.0000 C   0  0  0  0  0  0  0  0  0  0  0  0
   -6.7400    1.3510    0.0000 O   0  0  0  0  0  0  0  0  0  0  0  0
   -4.4800    2.6330    0.0000 C   0  0  0  0  0  0  0  0  0  0  0  0
   -2.9800    2.6210    0.0000 C   0  0  0  0  0  0  0  0  0  0  0  0
   -2.2400    1.3160    0.0000 C   0  0  0  0  0  0  0  0  0  0  0  0
   -2.2200    3.9140    0.0000 C   0  0  0  0  0  0  0  0  0  0  0  0
   -2.9600    5.2190    0.0000 O   0  0  0  0  0  0  0  0  0  0  0  0
  1  2  1  0  0  0  0
  1  9  1  0  0  0  0
  2  3  1  0  0  0  0
  2 12  1  0  0  0  0
  3  4  1  0  0  0  0
  3  5  1  0  0  0  0
  5  6  1  0  0  0  0
  5  7  1  0  0  0  0
  7  8  1  0  0  0  0
  7  9  1  0  0  0  0
  9 10  1  0  0  0  0
 10 11  1  0  0  0  0
 12 13  1  0  0  0  0
 12 18  1  0  0  0  0
 13 14  1  0  0  0  0
 13 28  2  0  0  0  0
 14 15  1  0  0  0  0
 14 24  2  0  0  0  0
 15 16  2  0  0  0  0
 15 17  1  0  0  0  0
 17 18  1  0  0  0  0
 17 22  2  0  0  0  0
 18 19  2  0  0  0  0
 19 20  1  0  0  0  0
 20 21  2  0  0  0  0
 21 22  1  0  0  0  0
 22 23  1  0  0  0  0
 24 25  1  0  0  0  0
 24 26  1  0  0  0  0
 26 27  2  0  0  0  0
 27 28  1  0  0  0  0
 27 29  1  0  0  0  0
 29 30  1  0  0  0  0
M  END
>  <Index>
1171

>  <ID>
HT2251

>  <class>
0

>  <apol>
58.847446

>  <ast_fraglike>
0

>  <ast_fraglike_ext>
0

>  <ast_violation>
3

>  <ast_violation_ext>
5

>  <a_acc>
9

>  <a_acid>
0

>  <a_aro>
12

>  <a_base>
0

>  <a_count>
52

>  <a_don>
7

>  <a_donacc>
16

>  <a_heavy>
30

>  <a_hyd>
20

>  <a_IC>
77.547379

>  <a_ICM>
1.4912957

>  <a_nB>
0

>  <a_nBr>
0

>  <a_nC>
21

>  <a_nCl>
0

>  <a_nF>
0

>  <a_nH>
22

>  <a_nI>
0

>  <a_nN>
0

>  <a_nO>
9

>  <a_nP>
0

>  <a_nS>
0

>  <balabanJ>
1.7378324

>  <BCUT_PEOE_0>
-2.7460554

>  <BCUT_PEOE_1>
-0.75990069

>  <BCUT_PEOE_2>
0.79428244

>  <BCUT_PEOE_3>
2.8022668

>  <BCUT_SLOGP_0>
-2.9166596

>  <BCUT_SLOGP_1>
-0.86494207

>  <BCUT_SLOGP_2>
0.61444819

>  <BCUT_SLOGP_3>
2.6768274

>  <BCUT_SMR_0>
-2.5338316

>  <BCUT_SMR_1>
-0.59664911

>  <BCUT_SMR_2>
0.89293998

>  <BCUT_SMR_3>
3.0041053

>  <bpol>
26.924555

>  <b_1rotN>
3

>  <b_1rotR>
0.090909094

>  <b_ar>
12

>  <b_count>
55

>  <b_double>
1

>  <b_heavy>
33

>  <b_max1len>
4

>  <b_rotN>
3

>  <b_rotR>
0.090909094

>  <b_single>
42

>  <b_triple>
0

>  <chi0>
21.739758

>  <chi0v>
15.712058

>  <chi0v_C>
11.765066

>  <chi0_C>
13.032651

>  <chi1>
14.294131

>  <chi1v>
9.4343309

>  <chi1v_C>
6.9045362

>  <chi1_C>
8.5993195

>  <chiral>
6

>  <chiral_u>
6

>  <density>
0.82457578

>  <diameter>
10

>  <FCharge>
0

>  <GCUT_PEOE_0>
-0.79599673

>  <GCUT_PEOE_1>
-0.47206339

>  <GCUT_PEOE_2>
0.20645592

>  <GCUT_PEOE_3>
2.972995

>  <GCUT_SLOGP_0>
-0.95242679

>  <GCUT_SLOGP_1>
-0.41602814

>  <GCUT_SLOGP_2>
0.019643486

>  <GCUT_SLOGP_3>
2.9904482

>  <GCUT_SMR_0>
-0.52188927

>  <GCUT_SMR_1>
-0.28626648

>  <GCUT_SMR_2>
0.27304029

>  <GCUT_SMR_3>
3.2175188

>  <Kier1>
23.168043

>  <Kier2>
9.0944004

>  <Kier3>
3.8655953

>  <KierA1>
19.033379

>  <KierA2>
7.4179006

>  <KierA3>
3.1369891

>  <KierFlex>
4.7062569

>  <lip_acc>
9

>  <lip_don>
7

>  <lip_druglike>
1

>  <lip_violation>
1

>  <logP(o/w)>
-0.31900001

>  <logS>
-2.0181201

>  <mr>
10.188379

>  <mutagenic>
0

>  <nmol>
1

>  <opr_brigid>
22

>  <opr_leadlike>
0

>  <opr_nring>
4

>  <opr_nrot>
5

>  <opr_violation>
2

>  <PC+>
0

>  <PC->
0

>  <PEOE_PC+>
3.6040611

>  <PEOE_PC->
-3.6040611

>  <PEOE_RPC+>
0.06030415

>  <PEOE_RPC->
0.10886814

>  <PEOE_VSA+0>
4.2653861

>  <PEOE_VSA+1>
115.85704

>  <PEOE_VSA+2>
19.619715

>  <PEOE_VSA+3>
8.458519

>  <PEOE_VSA+4>
72.269211

>  <PEOE_VSA+5>
0

>  <PEOE_VSA+6>
0

>  <PEOE_VSA-0>
31.135427

>  <PEOE_VSA-1>
36.764713

>  <PEOE_VSA-2>
0

>  <PEOE_VSA-3>
0

>  <PEOE_VSA-4>
0

>  <PEOE_VSA-5>
13.566921

>  <PEOE_VSA-6>
56.876537

>  <PEOE_VSA_FHYD>
0.602265

>  <PEOE_VSA_FNEG>
0.38555855

>  <PEOE_VSA_FPNEG>
0.19632335

>  <PEOE_VSA_FPOL>
0.39773497

>  <PEOE_VSA_FPOS>
0.61444145

>  <PEOE_VSA_FPPOS>
0.20141163

>  <PEOE_VSA_HYD>
216.1008

>  <PEOE_VSA_NEG>
138.3436

>  <PEOE_VSA_PNEG>
70.443459

>  <PEOE_VSA_POL>
142.71266

>  <PEOE_VSA_POS>
220.46986

>  <PEOE_VSA_PPOS>
72.269211

>  <petitjean>
0.5

>  <petitjeanSC>
1

>  <Q_PC+>
0

>  <Q_PC->
0

>  <Q_RPC+>
0

>  <Q_RPC->
0

>  <Q_VSA_FHYD>
1

>  <Q_VSA_FNEG>
0

>  <Q_VSA_FPNEG>
0

>  <Q_VSA_FPOL>
0

>  <Q_VSA_FPOS>
1

>  <Q_VSA_FPPOS>
0

>  <Q_VSA_HYD>
358.81348

>  <Q_VSA_NEG>
0

>  <Q_VSA_PNEG>
0

>  <Q_VSA_POL>
0

>  <Q_VSA_POS>
358.81348

>  <Q_VSA_PPOS>
0

>  <radius>
5

>  <reactive>
1

>  <rings>
4

>  <RPC+>
0

>  <RPC->
0

>  <rsynth>
0.1

>  <SlogP>
-0.62480003

>  <SlogP_VSA0>
177.69658

>  <SlogP_VSA1>
5.6876111

>  <SlogP_VSA2>
43.343136

>  <SlogP_VSA3>
20.926258

>  <SlogP_VSA4>
39.790092

>  <SlogP_VSA5>
0

>  <SlogP_VSA6>
4.4107962

>  <SlogP_VSA7>
88.215919

>  <SlogP_VSA8>
0

>  <SlogP_VSA9>
31.413115

>  <SMR>
10.13841

>  <SMR_VSA0>
34.862103

>  <SMR_VSA1>
177.69658

>  <SMR_VSA2>
0

>  <SMR_VSA3>
63.168774

>  <SMR_VSA4>
0

>  <SMR_VSA5>
109.14218

>  <SMR_VSA6>
26.613869

>  <SMR_VSA7>
0

>  <TPSA>
167.91

>  <VAdjEq>
0.37824166

>  <VAdjMa>
6.044394

>  <VDistEq>
3.1142747

>  <VDistMa>
9.5919552

>  <vdw_area>
358.81348

>  <vdw_vol>
507.40997

>  <vsa_acc>
16.070677

>  <vsa_acid>
0

>  <vsa_base>
0

>  <vsa_don>
0

>  <vsa_hyd>
195.6203

>  <vsa_other>
8.458519

>  <vsa_pol>
111.03912

>  <Weight>
418.39798

>  <weinerPath>
2054

>  <weinerPol>
62

>  <zagreb>
166

$$$$