O(C(=O)c1ccc(NCCCC)cc1)CCN(C)C
  MOE2013           2D

 19 19  0  0  0  0  0  0  0  0999 V2000
    0.0000    0.0000    0.0000 O   0  0  0  0  0  0  0  0  0  0  0  0
    1.2930   -0.7600    0.0000 C   0  0  0  0  0  0  0  0  0  0  0  0
    1.2810   -2.2600    0.0000 O   0  0  0  0  0  0  0  0  0  0  0  0
    2.5980   -0.0210    0.0000 C   0  0  0  0  0  0  0  0  0  0  0  0
    3.8910   -0.7820    0.0000 C   0  0  0  0  0  0  0  0  0  0  0  0
    5.1960   -0.0420    0.0000 C   0  0  0  0  0  0  0  0  0  0  0  0
    5.2080    1.4580    0.0000 C   0  0  0  0  0  0  0  0  0  0  0  0
    6.5130    2.1970    0.0000 N   0  0  0  0  0  0  0  0  0  0  0  0
    7.8060    1.4370    0.0000 C   0  0  0  0  0  0  0  0  0  0  0  0
    9.1110    2.1760    0.0000 C   0  0  0  0  0  0  0  0  0  0  0  0
   10.4040    1.4160    0.0000 C   0  0  0  0  0  0  0  0  0  0  0  0
   11.7090    2.1550    0.0000 C   0  0  0  0  0  0  0  0  0  0  0  0
    3.9150    2.2180    0.0000 C   0  0  0  0  0  0  0  0  0  0  0  0
    2.6100    1.4790    0.0000 C   0  0  0  0  0  0  0  0  0  0  0  0
   -1.3050   -0.7390    0.0000 C   0  0  0  0  0  0  0  0  0  0  0  0
   -2.5980    0.0210    0.0000 C   0  0  0  0  0  0  0  0  0  0  0  0
   -3.9030   -0.7180    0.0000 N   0  0  0  0  0  0  0  0  0  0  0  0
   -3.9150   -2.2180    0.0000 C   0  0  0  0  0  0  0  0  0  0  0  0
   -5.1960    0.0420    0.0000 C   0  0  0  0  0  0  0  0  0  0  0  0
  1  2  1  0  0  0  0
  1 15  1  0  0  0  0
  2  3  2  0  0  0  0
  2  4  1  0  0  0  0
  4  5  1  0  0  0  0
  4 14  2  0  0  0  0
  5  6  2  0  0  0  0
  6  7  1  0  0  0  0
  7  8  1  0  0  0  0
  7 13  2  0  0  0  0
  8  9  1  0  0  0  0
  9 10  1  0  0  0  0
 10 11  1  0  0  0  0
 11 12  1  0  0  0  0
 13 14  1  0  0  0  0
 15 16  1  0  0  0  0
 16 17  1  0  0  0  0
 17 18  1  0  0  0  0
 17 19  1  0  0  0  0
M  END
>  <Index>
1060

>  <ID>
HT2024

>  <class>
0

>  <apol>
46.207031

>  <ast_fraglike>
1

>  <ast_fraglike_ext>
0

>  <ast_violation>
0

>  <ast_violation_ext>
1

>  <a_acc>
2

>  <a_acid>
0

>  <a_aro>
6

>  <a_base>
0

>  <a_count>
43

>  <a_don>
1

>  <a_donacc>
3

>  <a_heavy>
19

>  <a_hyd>
14

>  <a_IC>
60.686924

>  <a_ICM>
1.4113239

>  <a_nB>
0

>  <a_nBr>
0

>  <a_nC>
15

>  <a_nCl>
0

>  <a_nF>
0

>  <a_nH>
24

>  <a_nI>
0

>  <a_nN>
2

>  <a_nO>
2

>  <a_nP>
0

>  <a_nS>
0

>  <balabanJ>
2.1136568

>  <BCUT_PEOE_0>
-2.6051929

>  <BCUT_PEOE_1>
-0.22741172

>  <BCUT_PEOE_2>
0.067933425

>  <BCUT_PEOE_3>
2.5328927

>  <BCUT_SLOGP_0>
-2.6981637

>  <BCUT_SLOGP_1>
-0.081631191

>  <BCUT_SLOGP_2>
0.25071019

>  <BCUT_SLOGP_3>
2.6429801

>  <BCUT_SMR_0>
-2.3418305

>  <BCUT_SMR_1>
0.055369761

>  <BCUT_SMR_2>
0.19400796

>  <BCUT_SMR_3>
2.7986786

>  <bpol>
31.750969

>  <b_1rotN>
8

>  <b_1rotR>
0.42105263

>  <b_ar>
6

>  <b_count>
43

>  <b_double>
1

>  <b_heavy>
19

>  <b_max1len>
6

>  <b_rotN>
9

>  <b_rotR>
0.47368422

>  <b_single>
36

>  <b_triple>
0

>  <chi0>
14.087576

>  <chi0v>
12.108645

>  <chi0v_C>
10.344935

>  <chi0_C>
11.096012

>  <chi1>
9.130229

>  <chi1v>
6.7896056

>  <chi1v_C>
4.2784739

>  <chi1_C>
5.1734333

>  <chiral>
0

>  <chiral_u>
0

>  <density>
0.66969079

>  <diameter>
14

>  <FCharge>
0

>  <GCUT_PEOE_0>
-0.85868323

>  <GCUT_PEOE_1>
-0.38281757

>  <GCUT_PEOE_2>
-0.10212937

>  <GCUT_PEOE_3>
2.4334555

>  <GCUT_SLOGP_0>
-0.98143989

>  <GCUT_SLOGP_1>
-0.26386139

>  <GCUT_SLOGP_2>
0.041888509

>  <GCUT_SLOGP_3>
2.5046797

>  <GCUT_SMR_0>
-0.52719647

>  <GCUT_SMR_1>
-0.12466826

>  <GCUT_SMR_2>
-0.006366997

>  <GCUT_SMR_3>
2.6978559

>  <Kier1>
17.052631

>  <Kier2>
9.8336487

>  <Kier3>
7.3727999

>  <KierA1>
13.794971

>  <KierA2>
7.8545308

>  <KierA3>
5.8306751

>  <KierFlex>
5.7027907

>  <lip_acc>
4

>  <lip_don>
1

>  <lip_druglike>
1

>  <lip_violation>
0

>  <logP(o/w)>
2.7679999

>  <logS>
-2.5051601

>  <mr>
7.8356328

>  <mutagenic>
0

>  <nmol>
1

>  <opr_brigid>
6

>  <opr_leadlike>
1

>  <opr_nring>
1

>  <opr_nrot>
8

>  <opr_violation>
0

>  <PC+>
0

>  <PC->
0

>  <PEOE_PC+>
1.531018

>  <PEOE_PC->
-1.531018

>  <PEOE_RPC+>
0.19193068

>  <PEOE_RPC->
0.20258096

>  <PEOE_VSA+0>
107.80431

>  <PEOE_VSA+1>
40.54361

>  <PEOE_VSA+2>
8.6190128

>  <PEOE_VSA+3>
0

>  <PEOE_VSA+4>
0

>  <PEOE_VSA+5>
14.708499

>  <PEOE_VSA+6>
0

>  <PEOE_VSA-0>
104.19831

>  <PEOE_VSA-1>
27.44899

>  <PEOE_VSA-2>
0

>  <PEOE_VSA-3>
0

>  <PEOE_VSA-4>
0

>  <PEOE_VSA-5>
13.703812

>  <PEOE_VSA-6>
2.503756

>  <PEOE_VSA_FHYD>
0.90324527

>  <PEOE_VSA_FNEG>
0.46272567

>  <PEOE_VSA_FPNEG>
0.050723102

>  <PEOE_VSA_FPOL>
0.09675473

>  <PEOE_VSA_FPOS>
0.53727436

>  <PEOE_VSA_FPPOS>
0.046031628

>  <PEOE_VSA_HYD>
288.61423

>  <PEOE_VSA_NEG>
147.85486

>  <PEOE_VSA_PNEG>
16.207567

>  <PEOE_VSA_POL>
30.916067

>  <PEOE_VSA_POS>
171.67543

>  <PEOE_VSA_PPOS>
14.708499

>  <petitjean>
0.5

>  <petitjeanSC>
1

>  <Q_PC+>
0

>  <Q_PC->
0

>  <Q_RPC+>
0

>  <Q_RPC->
0

>  <Q_VSA_FHYD>
1

>  <Q_VSA_FNEG>
0

>  <Q_VSA_FPNEG>
0

>  <Q_VSA_FPOL>
0

>  <Q_VSA_FPOS>
1

>  <Q_VSA_FPPOS>
0

>  <Q_VSA_HYD>
319.5303

>  <Q_VSA_NEG>
0

>  <Q_VSA_PNEG>
0

>  <Q_VSA_POL>
0

>  <Q_VSA_POS>
319.5303

>  <Q_VSA_PPOS>
0

>  <radius>
7

>  <reactive>
0

>  <rings>
1

>  <RPC+>
0

>  <RPC->
0

>  <rsynth>
1

>  <SlogP>
2.6170001

>  <SlogP_VSA0>
0

>  <SlogP_VSA1>
28.880529

>  <SlogP_VSA2>
10.999887

>  <SlogP_VSA3>
57.805416

>  <SlogP_VSA4>
27.047791

>  <SlogP_VSA5>
65.794373

>  <SlogP_VSA6>
0

>  <SlogP_VSA7>
70.572739

>  <SlogP_VSA8>
37.736813

>  <SlogP_VSA9>
36.082764

>  <SMR>
7.86762

>  <SMR_VSA0>
34.862103

>  <SMR_VSA1>
3.1243138

>  <SMR_VSA2>
0

>  <SMR_VSA3>
3.185575

>  <SMR_VSA4>
20.767498

>  <SMR_VSA5>
108.30955

>  <SMR_VSA6>
65.55088

>  <SMR_VSA7>
99.120392

>  <TPSA>
41.57

>  <VAdjEq>
0.48546076

>  <VAdjMa>
5.2479277

>  <VDistEq>
3.5352962

>  <VDistMa>
8.1363277

>  <vdw_area>
319.5303

>  <vdw_vol>
394.76279

>  <vsa_acc>
13.566921

>  <vsa_acid>
0

>  <vsa_base>
0

>  <vsa_don>
5.6825762

>  <vsa_hyd>
263.62393

>  <vsa_other>
17.212255

>  <vsa_pol>
19.249496

>  <Weight>
264.36899

>  <weinerPath>
892

>  <weinerPol>
22

>  <zagreb>
84

$$$$