S(O)(=O)(=O)C1N(c2cc(O)c(N=NC(=O)N)cc2C1)C
  MOE2013           2D

 20 21  0  0  1  0  0  0  0  0999 V2000
    0.0000    0.0000    0.0000 S   0  0  0  0  0  0  0  0  0  0  0  0
   -1.3010    0.7460    0.0000 O   0  0  0  0  0  0  0  0  0  0  0  0
   -0.7460   -1.3010    0.0000 O   0  0  0  0  0  0  0  0  0  0  0  0
    0.7460    1.3010    0.0000 O   0  0  0  0  0  0  0  0  0  0  0  0
    1.3010   -0.7460    0.0000 C   0  0  3  0  0  0  0  0  0  0  0  0
    1.4630   -2.2370    0.0000 N   0  0  3  0  0  0  0  0  0  0  0  0
    2.9310   -2.5440    0.0000 C   0  0  0  0  0  0  0  0  0  0  0  0
    3.6860   -3.8410    0.0000 C   0  0  0  0  0  0  0  0  0  0  0  0
    5.1860   -3.8360    0.0000 C   0  0  0  0  0  0  0  0  0  0  0  0
    5.9400   -5.1320    0.0000 O   0  0  0  0  0  0  0  0  0  0  0  0
    5.9310   -2.5340    0.0000 C   0  0  0  0  0  0  0  0  0  0  0  0
    7.4310   -2.5290    0.0000 N   0  0  0  0  0  0  0  0  0  0  0  0
    8.1770   -1.2280    0.0000 N   0  0  0  0  0  0  0  0  0  0  0  0
    9.6770   -1.2230    0.0000 C   0  0  0  0  0  0  0  0  0  0  0  0
   10.4310   -2.5190    0.0000 O   0  0  0  0  0  0  0  0  0  0  0  0
   10.4230    0.0790    0.0000 N   0  0  0  0  0  0  0  0  0  0  0  0
    5.1770   -1.2380    0.0000 C   0  0  0  0  0  0  0  0  0  0  0  0
    3.6770   -1.2430    0.0000 C   0  0  0  0  0  0  0  0  0  0  0  0
    2.6700   -0.1310    0.0000 C   0  0  0  0  0  0  0  0  0  0  0  0
    0.3520   -3.2440    0.0000 C   0  0  0  0  0  0  0  0  0  0  0  0
  1  2  1  0  0  0  0
  1  3  2  0  0  0  0
  1  4  2  0  0  0  0
  1  5  1  0  0  0  0
  5  6  1  0  0  0  0
  5 19  1  0  0  0  0
  6  7  1  0  0  0  0
  6 20  1  0  0  0  0
  7  8  1  0  0  0  0
  7 18  2  0  0  0  0
  8  9  2  0  0  0  0
  9 10  1  0  0  0  0
  9 11  1  0  0  0  0
 11 12  1  0  0  0  0
 11 17  2  0  0  0  0
 12 13  2  3  0  0  0
 13 14  1  0  0  0  0
 14 15  2  0  0  0  0
 14 16  1  0  0  0  0
 17 18  1  0  0  0  0
 18 19  1  0  0  0  0
M  END
>  <Index>
1317

>  <ID>
HT3355

>  <class>
0

>  <apol>
36.911514

>  <ast_fraglike>
0

>  <ast_fraglike_ext>
0

>  <ast_violation>
3

>  <ast_violation_ext>
4

>  <a_acc>
7

>  <a_acid>
0

>  <a_aro>
6

>  <a_base>
0

>  <a_count>
32

>  <a_don>
5

>  <a_donacc>
12

>  <a_heavy>
20

>  <a_hyd>
9

>  <a_IC>
64.151527

>  <a_ICM>
2.0047352

>  <a_nB>
0

>  <a_nBr>
0

>  <a_nC>
10

>  <a_nCl>
0

>  <a_nF>
0

>  <a_nH>
12

>  <a_nI>
0

>  <a_nN>
4

>  <a_nO>
5

>  <a_nP>
0

>  <a_nS>
1

>  <balabanJ>
2.0066044

>  <BCUT_PEOE_0>
-2.4949172

>  <BCUT_PEOE_1>
-0.604671

>  <BCUT_PEOE_2>
0.63868326

>  <BCUT_PEOE_3>
2.7187464

>  <BCUT_SLOGP_0>
-2.6935718

>  <BCUT_SLOGP_1>
-0.52955621

>  <BCUT_SLOGP_2>
0.72347558

>  <BCUT_SLOGP_3>
2.6229608

>  <BCUT_SMR_0>
-2.2466087

>  <BCUT_SMR_1>
-0.42073652

>  <BCUT_SMR_2>
0.85780114

>  <BCUT_SMR_3>
2.9740381

>  <bpol>
23.192484

>  <b_1rotN>
3

>  <b_1rotR>
0.14285715

>  <b_ar>
6

>  <b_count>
33

>  <b_double>
2

>  <b_heavy>
21

>  <b_max1len>
4

>  <b_rotN>
3

>  <b_rotR>
0.14285715

>  <b_single>
25

>  <b_triple>
0

>  <chi0>
15.076985

>  <chi0v>
11.202065

>  <chi0v_C>
5.9391575

>  <chi0_C>
6.585422

>  <chi1>
9.1973963

>  <chi1v>
6.9639707

>  <chi1v_C>
2.4165022

>  <chi1_C>
3.1161563

>  <chiral>
1

>  <chiral_u>
1

>  <density>
0.92138392

>  <diameter>
10

>  <FCharge>
0

>  <GCUT_PEOE_0>
-0.79512632

>  <GCUT_PEOE_1>
-0.44690782

>  <GCUT_PEOE_2>
0.063012443

>  <GCUT_PEOE_3>
2.5561473

>  <GCUT_SLOGP_0>
-1.3701404

>  <GCUT_SLOGP_1>
-0.41008663

>  <GCUT_SLOGP_2>
0.12633449

>  <GCUT_SLOGP_3>
2.6060112

>  <GCUT_SMR_0>
-0.49470031

>  <GCUT_SMR_1>
-0.18912528

>  <GCUT_SMR_2>
0.2596176

>  <GCUT_SMR_3>
2.8233473

>  <Kier1>
16.371881

>  <Kier2>
6.0117188

>  <Kier3>
3.6213019

>  <KierA1>
13.373289

>  <KierA2>
4.8547244

>  <KierA3>
2.8999226

>  <KierFlex>
3.2461815

>  <lip_acc>
9

>  <lip_don>
4

>  <lip_druglike>
1

>  <lip_violation>
0

>  <logP(o/w)>
-0.51700002

>  <logS>
-1.4389499

>  <mr>
6.8082771

>  <mutagenic>
0

>  <nmol>
1

>  <opr_brigid>
11

>  <opr_leadlike>
1

>  <opr_nring>
2

>  <opr_nrot>
2

>  <opr_violation>
1

>  <PC+>
0

>  <PC->
0

>  <PEOE_PC+>
2.1772439

>  <PEOE_PC->
-2.1772439

>  <PEOE_RPC+>
0.16426906

>  <PEOE_RPC->
0.16424724

>  <PEOE_VSA+0>
51.265171

>  <PEOE_VSA+1>
39.069042

>  <PEOE_VSA+2>
15.158071

>  <PEOE_VSA+3>
21.503412

>  <PEOE_VSA+4>
10.324173

>  <PEOE_VSA+5>
5.1220222

>  <PEOE_VSA+6>
17.440542

>  <PEOE_VSA-0>
26.718348

>  <PEOE_VSA-1>
9.4210396

>  <PEOE_VSA-2>
9.4210396

>  <PEOE_VSA-3>
0

>  <PEOE_VSA-4>
45.583443

>  <PEOE_VSA-5>
0

>  <PEOE_VSA-6>
24.627541

>  <PEOE_VSA_FHYD>
0.62598842

>  <PEOE_VSA_FNEG>
0.41998839

>  <PEOE_VSA_FPNEG>
0.25470707

>  <PEOE_VSA_FPOL>
0.37401155

>  <PEOE_VSA_FPOS>
0.58001161

>  <PEOE_VSA_FPPOS>
0.11930448

>  <PEOE_VSA_HYD>
172.55612

>  <PEOE_VSA_NEG>
115.77141

>  <PEOE_VSA_PNEG>
70.210983

>  <PEOE_VSA_POL>
103.09772

>  <PEOE_VSA_POS>
159.88243

>  <PEOE_VSA_PPOS>
32.886738

>  <petitjean>
0.5

>  <petitjeanSC>
1

>  <Q_PC+>
0

>  <Q_PC->
0

>  <Q_RPC+>
0

>  <Q_RPC->
0

>  <Q_VSA_FHYD>
1

>  <Q_VSA_FNEG>
0

>  <Q_VSA_FPNEG>
0

>  <Q_VSA_FPOL>
0

>  <Q_VSA_FPOS>
1

>  <Q_VSA_FPPOS>
0

>  <Q_VSA_HYD>
275.65384

>  <Q_VSA_NEG>
0

>  <Q_VSA_PNEG>
0

>  <Q_VSA_POL>
0

>  <Q_VSA_POS>
275.65384

>  <Q_VSA_PPOS>
0

>  <radius>
5

>  <reactive>
0

>  <rings>
2

>  <RPC+>
0

>  <RPC->
0

>  <rsynth>
1

>  <SlogP>
0.19507

>  <SlogP_VSA0>
84.337479

>  <SlogP_VSA1>
53.001644

>  <SlogP_VSA2>
10.930276

>  <SlogP_VSA3>
0

>  <SlogP_VSA4>
3.185575

>  <SlogP_VSA5>
85.091606

>  <SlogP_VSA6>
0

>  <SlogP_VSA7>
35.286369

>  <SlogP_VSA8>
0

>  <SlogP_VSA9>
34.619141

>  <SMR>
6.9239802

>  <SMR_VSA0>
72.033905

>  <SMR_VSA1>
81.641991

>  <SMR_VSA2>
3.1243138

>  <SMR_VSA3>
10.776131

>  <SMR_VSA4>
38.410683

>  <SMR_VSA5>
54.154774

>  <SMR_VSA6>
4.8299561

>  <SMR_VSA7>
41.480335

>  <TPSA>
145.64999

>  <VAdjEq>
0.48464775

>  <VAdjMa>
5.3923173

>  <VDistEq>
3.1373777

>  <VDistMa>
8.341136

>  <vdw_area>
275.65384

>  <vdw_vol>
325.91733

>  <vsa_acc>
32.409

>  <vsa_acid>
0

>  <vsa_base>
0

>  <vsa_don>
17.742489

>  <vsa_hyd>
114.06672

>  <vsa_other>
28.953325

>  <vsa_pol>
111.74319

>  <Weight>
300.29498

>  <weinerPath>
812

>  <weinerPol>
31

>  <zagreb>
106

$$$$