O(C)c1ccc(cc1)C(CN(C)C)C1(O)CCCCC1
  MOE2013           2D

 20 21  0  0  1  0  0  0  0  0999 V2000
    0.0000    0.0000    0.0000 O   0  0  0  0  0  0  0  0  0  0  0  0
   -0.7490   -1.3000    0.0000 C   0  0  0  0  0  0  0  0  0  0  0  0
    1.5000    0.0020    0.0000 C   0  0  0  0  0  0  0  0  0  0  0  0
    2.2490    1.3010    0.0000 C   0  0  0  0  0  0  0  0  0  0  0  0
    3.7490    1.3030    0.0000 C   0  0  0  0  0  0  0  0  0  0  0  0
    4.5000    0.0050    0.0000 C   0  0  0  0  0  0  0  0  0  0  0  0
    3.7510   -1.2950    0.0000 C   0  0  0  0  0  0  0  0  0  0  0  0
    2.2510   -1.2970    0.0000 C   0  0  0  0  0  0  0  0  0  0  0  0
    6.0000    0.0060    0.0000 C   0  0  3  0  0  0  0  0  0  0  0  0
    6.7490    1.3060    0.0000 C   0  0  0  0  0  0  0  0  0  0  0  0
    5.9970    2.6040    0.0000 N   0  0  0  0  0  0  0  0  0  0  0  0
    4.4970    2.6030    0.0000 C   0  0  0  0  0  0  0  0  0  0  0  0
    6.7460    3.9040    0.0000 C   0  0  0  0  0  0  0  0  0  0  0  0
    6.7510   -1.2920    0.0000 C   0  0  0  0  0  0  0  0  0  0  0  0
    5.2510   -1.2940    0.0000 O   0  0  0  0  0  0  0  0  0  0  0  0
    6.7530   -2.7920    0.0000 C   0  0  0  0  0  0  0  0  0  0  0  0
    8.0530   -3.5410    0.0000 C   0  0  0  0  0  0  0  0  0  0  0  0
    9.3510   -2.7890    0.0000 C   0  0  0  0  0  0  0  0  0  0  0  0
    9.3490   -1.2890    0.0000 C   0  0  0  0  0  0  0  0  0  0  0  0
    8.0500   -0.5410    0.0000 C   0  0  0  0  0  0  0  0  0  0  0  0
  1  2  1  0  0  0  0
  1  3  1  0  0  0  0
  3  4  1  0  0  0  0
  3  8  2  0  0  0  0
  4  5  2  0  0  0  0
  5  6  1  0  0  0  0
  6  7  2  0  0  0  0
  6  9  1  0  0  0  0
  7  8  1  0  0  0  0
  9 10  1  0  0  0  0
  9 14  1  0  0  0  0
 10 11  1  0  0  0  0
 11 12  1  0  0  0  0
 11 13  1  0  0  0  0
 14 15  1  0  0  0  0
 14 16  1  0  0  0  0
 14 20  1  0  0  0  0
 16 17  1  0  0  0  0
 17 18  1  0  0  0  0
 18 19  1  0  0  0  0
 19 20  1  0  0  0  0
M  END
>  <Index>
1140

>  <ID>
HT2172

>  <class>
0

>  <apol>
50.627411

>  <ast_fraglike>
0

>  <ast_fraglike_ext>
0

>  <ast_violation>
1

>  <ast_violation_ext>
2

>  <a_acc>
3

>  <a_acid>
0

>  <a_aro>
6

>  <a_base>
0

>  <a_count>
47

>  <a_don>
1

>  <a_donacc>
4

>  <a_heavy>
20

>  <a_hyd>
17

>  <a_IC>
61.196846

>  <a_ICM>
1.3020605

>  <a_nB>
0

>  <a_nBr>
0

>  <a_nC>
17

>  <a_nCl>
0

>  <a_nF>
0

>  <a_nH>
27

>  <a_nI>
0

>  <a_nN>
1

>  <a_nO>
2

>  <a_nP>
0

>  <a_nS>
0

>  <balabanJ>
2.0346856

>  <BCUT_PEOE_0>
-2.8248301

>  <BCUT_PEOE_1>
-0.40787959

>  <BCUT_PEOE_2>
0.32979575

>  <BCUT_PEOE_3>
2.7955263

>  <BCUT_SLOGP_0>
-2.7991626

>  <BCUT_SLOGP_1>
-0.36227524

>  <BCUT_SLOGP_2>
0.42371812

>  <BCUT_SLOGP_3>
2.8721621

>  <BCUT_SMR_0>
-2.5775359

>  <BCUT_SMR_1>
-0.18284795

>  <BCUT_SMR_2>
0.50604457

>  <BCUT_SMR_3>
3.0407004

>  <bpol>
33.41259

>  <b_1rotN>
5

>  <b_1rotR>
0.23809524

>  <b_ar>
6

>  <b_count>
48

>  <b_double>
0

>  <b_heavy>
21

>  <b_max1len>
7

>  <b_rotN>
5

>  <b_rotR>
0.23809524

>  <b_single>
42

>  <b_triple>
0

>  <chi0>
14.587576

>  <chi0v>
12.932068

>  <chi0v_C>
11.629392

>  <chi0_C>
12.303119

>  <chi1>
9.5486603

>  <chi1v>
7.5607066

>  <chi1v_C>
5.5140724

>  <chi1_C>
6.3703566

>  <chiral>
1

>  <chiral_u>
1

>  <density>
0.6592688

>  <diameter>
10

>  <FCharge>
0

>  <GCUT_PEOE_0>
-0.86248112

>  <GCUT_PEOE_1>
-0.36580491

>  <GCUT_PEOE_2>
-0.075233549

>  <GCUT_PEOE_3>
2.8762689

>  <GCUT_SLOGP_0>
-0.95362854

>  <GCUT_SLOGP_1>
-0.29343587

>  <GCUT_SLOGP_2>
0.0586842

>  <GCUT_SLOGP_3>
2.9491136

>  <GCUT_SMR_0>
-0.52875996

>  <GCUT_SMR_1>
-0.15983142

>  <GCUT_SMR_2>
0.068306521

>  <GCUT_SMR_3>
3.113286

>  <Kier1>
16.371881

>  <Kier2>
7.3198571

>  <Kier3>
4.25

>  <KierA1>
14.468102

>  <KierA2>
6.4241943

>  <KierA3>
3.7111812

>  <KierFlex>
4.6472945

>  <lip_acc>
3

>  <lip_don>
1

>  <lip_druglike>
1

>  <lip_violation>
0

>  <logP(o/w)>
3.207

>  <logS>
-2.5113399

>  <mr>
8.250886

>  <mutagenic>
0

>  <nmol>
1

>  <opr_brigid>
12

>  <opr_leadlike>
1

>  <opr_nring>
2

>  <opr_nrot>
7

>  <opr_violation>
0

>  <PC+>
0

>  <PC->
0

>  <PEOE_PC+>
1.484614

>  <PEOE_PC->
-1.484614

>  <PEOE_RPC+>
0.1415752

>  <PEOE_RPC->
0.26130128

>  <PEOE_VSA+0>
119.23232

>  <PEOE_VSA+1>
38.316223

>  <PEOE_VSA+2>
0

>  <PEOE_VSA+3>
0

>  <PEOE_VSA+4>
10.324173

>  <PEOE_VSA+5>
0

>  <PEOE_VSA+6>
0

>  <PEOE_VSA-0>
90.598351

>  <PEOE_VSA-1>
50.613747

>  <PEOE_VSA-2>
0

>  <PEOE_VSA-3>
0

>  <PEOE_VSA-4>
0

>  <PEOE_VSA-5>
0

>  <PEOE_VSA-6>
10.271297

>  <PEOE_VSA_FHYD>
0.93550938

>  <PEOE_VSA_FNEG>
0.47434005

>  <PEOE_VSA_FPNEG>
0.032162517

>  <PEOE_VSA_FPOL>
0.064490609

>  <PEOE_VSA_FPOS>
0.52565992

>  <PEOE_VSA_FPPOS>
0.032328088

>  <PEOE_VSA_HYD>
298.76065

>  <PEOE_VSA_NEG>
151.4834

>  <PEOE_VSA_PNEG>
10.271297

>  <PEOE_VSA_POL>
20.595469

>  <PEOE_VSA_POS>
167.87271

>  <PEOE_VSA_PPOS>
10.324173

>  <petitjean>
0.5

>  <petitjeanSC>
1

>  <Q_PC+>
0

>  <Q_PC->
0

>  <Q_RPC+>
0

>  <Q_RPC->
0

>  <Q_VSA_FHYD>
1

>  <Q_VSA_FNEG>
0

>  <Q_VSA_FPNEG>
0

>  <Q_VSA_FPOL>
0

>  <Q_VSA_FPOS>
1

>  <Q_VSA_FPPOS>
0

>  <Q_VSA_HYD>
319.35611

>  <Q_VSA_NEG>
0

>  <Q_VSA_PNEG>
0

>  <Q_VSA_POL>
0

>  <Q_VSA_POS>
319.35611

>  <Q_VSA_PPOS>
0

>  <radius>
5

>  <reactive>
0

>  <rings>
2

>  <RPC+>
0

>  <RPC->
0

>  <rsynth>
0.050000001

>  <SlogP>
3.0355999

>  <SlogP_VSA0>
36.385113

>  <SlogP_VSA1>
3.1243138

>  <SlogP_VSA2>
0

>  <SlogP_VSA3>
18.439579

>  <SlogP_VSA4>
3.185575

>  <SlogP_VSA5>
101.17825

>  <SlogP_VSA6>
4.4107962

>  <SlogP_VSA7>
70.572739

>  <SlogP_VSA8>
94.342026

>  <SlogP_VSA9>
5.2434282

>  <SMR>
8.2323799

>  <SMR_VSA0>
0

>  <SMR_VSA1>
39.50943

>  <SMR_VSA2>
0

>  <SMR_VSA3>
12.839799

>  <SMR_VSA4>
0

>  <SMR_VSA5>
164.91476

>  <SMR_VSA6>
18.439579

>  <SMR_VSA7>
101.17825

>  <TPSA>
32.700001

>  <VAdjEq>
0.48464775

>  <VAdjMa>
5.3923173

>  <VDistEq>
3.0437269

>  <VDistMa>
8.3703442

>  <vdw_area>
319.35611

>  <vdw_vol>
420.78131

>  <vsa_acc>
2.503756

>  <vsa_acid>
0

>  <vsa_base>
0

>  <vsa_don>
0

>  <vsa_hyd>
278.90891

>  <vsa_other>
0

>  <vsa_pol>
16.070677

>  <Weight>
277.40799

>  <weinerPath>
792

>  <weinerPol>
30

>  <zagreb>
100

$$$$