S1c2c(N(c3c1cccc3)CC(N(C)C)C)cc(cc2)C(=O)C
  MOE2013           2D

 23 25  0  0  1  0  0  0  0  0999 V2000
    0.0000    0.0000    0.0000 S   0  0  0  0  0  0  0  0  0  0  0  0
    0.7500    1.2990    0.0000 C   0  0  0  0  0  0  0  0  0  0  0  0
   -0.0010    2.5980    0.0000 C   0  0  0  0  0  0  0  0  0  0  0  0
   -1.5010    2.5980    0.0000 N   0  0  3  0  0  0  0  0  0  0  0  0
   -2.2500    1.2980    0.0000 C   0  0  0  0  0  0  0  0  0  0  0  0
   -1.5000   -0.0010    0.0000 C   0  0  0  0  0  0  0  0  0  0  0  0
   -2.2500   -1.3000    0.0000 C   0  0  0  0  0  0  0  0  0  0  0  0
   -3.7500   -1.3000    0.0000 C   0  0  0  0  0  0  0  0  0  0  0  0
   -4.5000   -0.0020    0.0000 C   0  0  0  0  0  0  0  0  0  0  0  0
   -3.7500    1.2980    0.0000 C   0  0  0  0  0  0  0  0  0  0  0  0
   -2.2510    3.8960    0.0000 C   0  0  0  0  0  0  0  0  0  0  0  0
   -3.7510    3.8960    0.0000 C   0  0  3  0  0  0  0  0  0  0  0  0
   -4.5020    5.1950    0.0000 N   0  0  0  0  0  0  0  0  0  0  0  0
   -6.0020    5.1940    0.0000 C   0  0  0  0  0  0  0  0  0  0  0  0
   -3.7520    6.4940    0.0000 C   0  0  0  0  0  0  0  0  0  0  0  0
   -4.5010    2.5970    0.0000 C   0  0  0  0  0  0  0  0  0  0  0  0
    0.7490    3.8970    0.0000 C   0  0  0  0  0  0  0  0  0  0  0  0
    2.2490    3.8980    0.0000 C   0  0  0  0  0  0  0  0  0  0  0  0
    2.9990    2.5990    0.0000 C   0  0  0  0  0  0  0  0  0  0  0  0
    2.2500    1.3000    0.0000 C   0  0  0  0  0  0  0  0  0  0  0  0
    2.9980    5.1970    0.0000 C   0  0  0  0  0  0  0  0  0  0  0  0
    2.2480    6.4960    0.0000 O   0  0  0  0  0  0  0  0  0  0  0  0
    4.4980    5.1980    0.0000 C   0  0  0  0  0  0  0  0  0  0  0  0
  1  2  1  0  0  0  0
  1  6  1  0  0  0  0
  2  3  1  0  0  0  0
  2 20  2  0  0  0  0
  3  4  1  0  0  0  0
  3 17  2  0  0  0  0
  4  5  1  0  0  0  0
  4 11  1  0  0  0  0
  5  6  1  0  0  0  0
  5 10  2  0  0  0  0
  6  7  2  0  0  0  0
  7  8  1  0  0  0  0
  8  9  2  0  0  0  0
  9 10  1  0  0  0  0
 11 12  1  0  0  0  0
 12 13  1  0  0  0  0
 12 16  1  0  0  0  0
 13 14  1  0  0  0  0
 13 15  1  0  0  0  0
 17 18  1  0  0  0  0
 18 19  2  0  0  0  0
 18 21  1  0  0  0  0
 19 20  1  0  0  0  0
 21 22  2  0  0  0  0
 21 23  1  0  0  0  0
M  END
>  <Index>
19

>  <ID>
HT0052

>  <class>
0

>  <apol>
54.011448

>  <ast_fraglike>
0

>  <ast_fraglike_ext>
0

>  <ast_violation>
2

>  <ast_violation_ext>
3

>  <a_acc>
2

>  <a_acid>
0

>  <a_aro>
12

>  <a_base>
0

>  <a_count>
45

>  <a_don>
0

>  <a_donacc>
2

>  <a_heavy>
23

>  <a_hyd>
19

>  <a_IC>
66.315269

>  <a_ICM>
1.4736727

>  <a_nB>
0

>  <a_nBr>
0

>  <a_nC>
19

>  <a_nCl>
0

>  <a_nF>
0

>  <a_nH>
22

>  <a_nI>
0

>  <a_nN>
2

>  <a_nO>
1

>  <a_nP>
0

>  <a_nS>
1

>  <balabanJ>
1.7891273

>  <BCUT_PEOE_0>
-2.6862068

>  <BCUT_PEOE_1>
-0.55653566

>  <BCUT_PEOE_2>
0.58537591

>  <BCUT_PEOE_3>
2.5954456

>  <BCUT_SLOGP_0>
-2.7697146

>  <BCUT_SLOGP_1>
-0.43214548

>  <BCUT_SLOGP_2>
0.685063

>  <BCUT_SLOGP_3>
2.601079

>  <BCUT_SMR_0>
-2.4000187

>  <BCUT_SMR_1>
-0.3637003

>  <BCUT_SMR_2>
0.76089311

>  <BCUT_SMR_3>
2.8831303

>  <bpol>
31.248554

>  <b_1rotN>
4

>  <b_1rotR>
0.16

>  <b_ar>
12

>  <b_count>
47

>  <b_double>
1

>  <b_heavy>
25

>  <b_max1len>
5

>  <b_rotN>
4

>  <b_rotR>
0.16

>  <b_single>
34

>  <b_triple>
0

>  <chi0>
16.560114

>  <chi0v>
14.85333

>  <chi0v_C>
12.325909

>  <chi0_C>
13.698306

>  <chi1>
10.969234

>  <chi1v>
8.6459188

>  <chi1v_C>
5.3009825

>  <chi1_C>
7.0124388

>  <chiral>
1

>  <chiral_u>
1

>  <density>
0.70921177

>  <diameter>
9

>  <FCharge>
0

>  <GCUT_PEOE_0>
-0.85931581

>  <GCUT_PEOE_1>
-0.362214

>  <GCUT_PEOE_2>
0.0019878633

>  <GCUT_PEOE_3>
2.7068141

>  <GCUT_SLOGP_0>
-0.96656013

>  <GCUT_SLOGP_1>
-0.24324922

>  <GCUT_SLOGP_2>
0.14361264

>  <GCUT_SLOGP_3>
2.8259861

>  <GCUT_SMR_0>
-0.52091289

>  <GCUT_SMR_1>
-0.17036693

>  <GCUT_SMR_2>
0.17231731

>  <GCUT_SMR_3>
3.0097156

>  <Kier1>
17.811199

>  <Kier2>
7.4861112

>  <Kier3>
3.8194444

>  <KierA1>
14.394206

>  <KierA2>
5.9874892

>  <KierA3>
3.0308828

>  <KierFlex>
3.7471805

>  <lip_acc>
3

>  <lip_don>
0

>  <lip_druglike>
1

>  <lip_violation>
0

>  <logP(o/w)>
3.905

>  <logS>
-4.2775698

>  <mr>
9.6991854

>  <mutagenic>
0

>  <nmol>
1

>  <opr_brigid>
16

>  <opr_leadlike>
1

>  <opr_nring>
3

>  <opr_nrot>
4

>  <opr_violation>
0

>  <PC+>
0

>  <PC->
0

>  <PEOE_PC+>
1.336445

>  <PEOE_PC->
-1.336445

>  <PEOE_RPC+>
0.11984243

>  <PEOE_RPC->
0.22779799

>  <PEOE_VSA+0>
104.29592

>  <PEOE_VSA+1>
29.857702

>  <PEOE_VSA+2>
0

>  <PEOE_VSA+3>
8.458519

>  <PEOE_VSA+4>
0

>  <PEOE_VSA+5>
0

>  <PEOE_VSA+6>
0

>  <PEOE_VSA-0>
132.99236

>  <PEOE_VSA-1>
56.52533

>  <PEOE_VSA-2>
0

>  <PEOE_VSA-3>
0

>  <PEOE_VSA-4>
0

>  <PEOE_VSA-5>
13.566921

>  <PEOE_VSA-6>
0

>  <PEOE_VSA_FHYD>
0.96075487

>  <PEOE_VSA_FNEG>
0.58746463

>  <PEOE_VSA_FPNEG>
0.039245151

>  <PEOE_VSA_FPOL>
0.039245151

>  <PEOE_VSA_FPOS>
0.4125354

>  <PEOE_VSA_FPPOS>
0

>  <PEOE_VSA_HYD>
332.12982

>  <PEOE_VSA_NEG>
203.08459

>  <PEOE_VSA_PNEG>
13.566921

>  <PEOE_VSA_POL>
13.566921

>  <PEOE_VSA_POS>
142.61214

>  <PEOE_VSA_PPOS>
0

>  <petitjean>
0.44444445

>  <petitjeanSC>
0.80000001

>  <Q_PC+>
0

>  <Q_PC->
0

>  <Q_RPC+>
0

>  <Q_RPC->
0

>  <Q_VSA_FHYD>
1

>  <Q_VSA_FNEG>
0

>  <Q_VSA_FPNEG>
0

>  <Q_VSA_FPOL>
0

>  <Q_VSA_FPOS>
1

>  <Q_VSA_FPPOS>
0

>  <Q_VSA_HYD>
345.69675

>  <Q_VSA_NEG>
0

>  <Q_VSA_PNEG>
0

>  <Q_VSA_POL>
0

>  <Q_VSA_POS>
345.69675

>  <Q_VSA_PPOS>
0

>  <radius>
5

>  <reactive>
1

>  <rings>
3

>  <RPC+>
0

>  <RPC->
0

>  <rsynth>
1

>  <SlogP>
4.4419999

>  <SlogP_VSA0>
3.1243138

>  <SlogP_VSA1>
8.8119249

>  <SlogP_VSA2>
3.9819686

>  <SlogP_VSA3>
18.439579

>  <SlogP_VSA4>
27.047791

>  <SlogP_VSA5>
68.895844

>  <SlogP_VSA6>
0

>  <SlogP_VSA7>
123.50229

>  <SlogP_VSA8>
0

>  <SlogP_VSA9>
104.38506

>  <SMR>
9.7167501

>  <SMR_VSA0>
23.862217

>  <SMR_VSA1>
3.1243138

>  <SMR_VSA2>
6.2257819

>  <SMR_VSA3>
7.1675434

>  <SMR_VSA4>
5.513495

>  <SMR_VSA5>
123.50229

>  <SMR_VSA6>
24.12719

>  <SMR_VSA7>
164.66594

>  <TPSA>
23.549999

>  <VAdjEq>
0.45137304

>  <VAdjMa>
5.643856

>  <VDistEq>
3.0429301

>  <VDistMa>
8.7938843

>  <vdw_area>
345.69675

>  <vdw_vol>
460.31949

>  <vsa_acc>
13.566921

>  <vsa_acid>
0

>  <vsa_base>
0

>  <vsa_don>
0

>  <vsa_hyd>
308.01181

>  <vsa_other>
8.458519

>  <vsa_pol>
13.566921

>  <Weight>
326.46399

>  <weinerPath>
1100

>  <weinerPol>
39

>  <zagreb>
122

$$$$