Clc1cc(OC)c(Cl)cc1OC
  MOE2013           2D

 12 12  0  0  0  0  0  0  0  0999 V2000
    0.0000    0.0000    0.0000 Cl  0  0  0  0  0  0  0  0  0  0  0  0
    0.7430   -1.3030    0.0000 C   0  0  0  0  0  0  0  0  0  0  0  0
    2.2430   -1.3110    0.0000 C   0  0  0  0  0  0  0  0  0  0  0  0
    2.9870   -2.6130    0.0000 C   0  0  0  0  0  0  0  0  0  0  0  0
    4.4870   -2.6210    0.0000 O   0  0  0  0  0  0  0  0  0  0  0  0
    5.2430   -1.3260    0.0000 C   0  0  0  0  0  0  0  0  0  0  0  0
    2.2300   -3.9090    0.0000 C   0  0  0  0  0  0  0  0  0  0  0  0
    2.9730   -5.2110    0.0000 Cl  0  0  0  0  0  0  0  0  0  0  0  0
    0.7300   -3.9010    0.0000 C   0  0  0  0  0  0  0  0  0  0  0  0
   -0.0130   -2.5980    0.0000 C   0  0  0  0  0  0  0  0  0  0  0  0
   -1.5130   -2.5900    0.0000 O   0  0  0  0  0  0  0  0  0  0  0  0
   -2.2700   -3.8860    0.0000 C   0  0  0  0  0  0  0  0  0  0  0  0
  1  2  1  0  0  0  0
  2  3  1  0  0  0  0
  2 10  2  0  0  0  0
  3  4  2  0  0  0  0
  4  5  1  0  0  0  0
  4  7  1  0  0  0  0
  5  6  1  0  0  0  0
  7  8  1  0  0  0  0
  7  9  2  0  0  0  0
  9 10  1  0  0  0  0
 10 11  1  0  0  0  0
 11 12  1  0  0  0  0
M  END
>  <Index>
1265

>  <ID>
HT2890

>  <class>
0

>  <apol>
25.378344

>  <ast_fraglike>
0

>  <ast_fraglike_ext>
0

>  <ast_violation>
1

>  <ast_violation_ext>
1

>  <a_acc>
2

>  <a_acid>
0

>  <a_aro>
6

>  <a_base>
0

>  <a_count>
20

>  <a_don>
0

>  <a_donacc>
2

>  <a_heavy>
12

>  <a_hyd>
10

>  <a_IC>
34.43856

>  <a_ICM>
1.7219281

>  <a_nB>
0

>  <a_nBr>
0

>  <a_nC>
8

>  <a_nCl>
2

>  <a_nF>
0

>  <a_nH>
8

>  <a_nI>
0

>  <a_nN>
0

>  <a_nO>
2

>  <a_nP>
0

>  <a_nS>
0

>  <balabanJ>
2.5256176

>  <BCUT_PEOE_0>
-2.2646546

>  <BCUT_PEOE_1>
-0.60615194

>  <BCUT_PEOE_2>
0.45990622

>  <BCUT_PEOE_3>
2.2384305

>  <BCUT_SLOGP_0>
-2.2563808

>  <BCUT_SLOGP_1>
-0.32611972

>  <BCUT_SLOGP_2>
0.70420986

>  <BCUT_SLOGP_3>
2.4495013

>  <BCUT_SMR_0>
-1.9830122

>  <BCUT_SMR_1>
-0.23061126

>  <BCUT_SMR_2>
0.76930732

>  <BCUT_SMR_3>
2.5376666

>  <bpol>
13.417656

>  <b_1rotN>
2

>  <b_1rotR>
0.16666667

>  <b_ar>
6

>  <b_count>
20

>  <b_double>
0

>  <b_heavy>
12

>  <b_max1len>
2

>  <b_rotN>
2

>  <b_rotR>
0.16666667

>  <b_single>
14

>  <b_triple>
0

>  <chi0>
9.1378279

>  <chi0v>
8.2389841

>  <chi0v_C>
5.1547008

>  <chi0_C>
5.7236147

>  <chi1>
5.6850705

>  <chi1v>
4.013339

>  <chi1v_C>
1.6547005

>  <chi1_C>
2.2996597

>  <chiral>
0

>  <chiral_u>
0

>  <density>
0.89649004

>  <diameter>
7

>  <FCharge>
0

>  <GCUT_PEOE_0>
-0.78673232

>  <GCUT_PEOE_1>
-0.41330972

>  <GCUT_PEOE_2>
-0.092858106

>  <GCUT_PEOE_3>
2.0628242

>  <GCUT_SLOGP_0>
-0.88696492

>  <GCUT_SLOGP_1>
-0.17935993

>  <GCUT_SLOGP_2>
0.25808218

>  <GCUT_SLOGP_3>
2.2874913

>  <GCUT_SMR_0>
-0.48405814

>  <GCUT_SMR_1>
-0.093740523

>  <GCUT_SMR_2>
0.23881577

>  <GCUT_SMR_3>
2.3650072

>  <Kier1>
10.083333

>  <Kier2>
4.296875

>  <Kier3>
2.25

>  <KierA1>
10.439736

>  <KierA2>
4.4636922

>  <KierA3>
2.3434997

>  <KierFlex>
3.8833141

>  <lip_acc>
2

>  <lip_don>
0

>  <lip_druglike>
1

>  <lip_violation>
0

>  <logP(o/w)>
3.072

>  <logS>
-2.9542201

>  <mr>
4.9900446

>  <mutagenic>
0

>  <nmol>
1

>  <opr_brigid>
6

>  <opr_leadlike>
1

>  <opr_nring>
1

>  <opr_nrot>
2

>  <opr_violation>
0

>  <PC+>
0

>  <PC->
0

>  <PEOE_PC+>
0.87320334

>  <PEOE_PC->
-0.87320334

>  <PEOE_RPC+>
0.1094934

>  <PEOE_RPC->
0.39671409

>  <PEOE_VSA+0>
49.995316

>  <PEOE_VSA+1>
60.07962

>  <PEOE_VSA+2>
0

>  <PEOE_VSA+3>
0

>  <PEOE_VSA+4>
0

>  <PEOE_VSA+5>
0

>  <PEOE_VSA+6>
0

>  <PEOE_VSA-0>
24.509808

>  <PEOE_VSA-1>
59.163895

>  <PEOE_VSA-2>
0

>  <PEOE_VSA-3>
0

>  <PEOE_VSA-4>
0

>  <PEOE_VSA-5>
0

>  <PEOE_VSA-6>
5.0075121

>  <PEOE_VSA_FHYD>
0.97480577

>  <PEOE_VSA_FNEG>
0.44618097

>  <PEOE_VSA_FPNEG>
0.02519425

>  <PEOE_VSA_FPOL>
0.02519425

>  <PEOE_VSA_FPOS>
0.553819

>  <PEOE_VSA_FPPOS>
0

>  <PEOE_VSA_HYD>
193.74864

>  <PEOE_VSA_NEG>
88.681213

>  <PEOE_VSA_PNEG>
5.0075121

>  <PEOE_VSA_POL>
5.0075121

>  <PEOE_VSA_POS>
110.07494

>  <PEOE_VSA_PPOS>
0

>  <petitjean>
0.42857143

>  <petitjeanSC>
0.75

>  <Q_PC+>
0

>  <Q_PC->
0

>  <Q_RPC+>
0

>  <Q_RPC->
0

>  <Q_VSA_FHYD>
1

>  <Q_VSA_FNEG>
0

>  <Q_VSA_FPNEG>
0

>  <Q_VSA_FPOL>
0

>  <Q_VSA_FPOS>
1

>  <Q_VSA_FPPOS>
0

>  <Q_VSA_HYD>
198.75615

>  <Q_VSA_NEG>
0

>  <Q_VSA_PNEG>
0

>  <Q_VSA_POL>
0

>  <Q_VSA_POS>
198.75615

>  <Q_VSA_PPOS>
0

>  <radius>
4

>  <reactive>
0

>  <rings>
1

>  <RPC+>
0

>  <RPC->
0

>  <rsynth>
1

>  <SlogP>
3.0106001

>  <SlogP_VSA0>
21.999775

>  <SlogP_VSA1>
0

>  <SlogP_VSA2>
0

>  <SlogP_VSA3>
0

>  <SlogP_VSA4>
0

>  <SlogP_VSA5>
70.767738

>  <SlogP_VSA6>
7.0012131

>  <SlogP_VSA7>
35.286369

>  <SlogP_VSA8>
0

>  <SlogP_VSA9>
88.784142

>  <SMR>
4.9566002

>  <SMR_VSA0>
0

>  <SMR_VSA1>
21.999775

>  <SMR_VSA2>
0

>  <SMR_VSA3>
17.48807

>  <SMR_VSA4>
0

>  <SMR_VSA5>
35.286369

>  <SMR_VSA6>
0

>  <SMR_VSA7>
149.06502

>  <TPSA>
18.459999

>  <VAdjEq>
0.65002245

>  <VAdjMa>
4.5849624

>  <VDistEq>
2.4529436

>  <VDistMa>
6.8705773

>  <vdw_area>
198.75615

>  <vdw_vol>
230.96295

>  <vsa_acc>
5.0075121

>  <vsa_acid>
0

>  <vsa_base>
0

>  <vsa_don>
0

>  <vsa_hyd>
188.05428

>  <vsa_other>
0

>  <vsa_pol>
5.0075121

>  <Weight>
207.056

>  <weinerPath>
192

>  <weinerPol>
17

>  <zagreb>
56

$$$$