Clc1cc2c(n(C(=O)N)c(O)c2C(=O)c2sccc2)cc1
  MOE2013           2D

 21 23  0  0  0  0  0  0  0  0999 V2000
    0.0000    0.0000    0.0000 Cl  0  0  0  0  0  0  0  0  0  0  0  0
    1.1320    0.9840    0.0000 C   0  0  0  0  0  0  0  0  0  0  0  0
    2.5500    0.4960    0.0000 C   0  0  0  0  0  0  0  0  0  0  0  0
    3.6820    1.4800    0.0000 C   0  0  0  0  0  0  0  0  0  0  0  0
    3.3960    2.9530    0.0000 C   0  0  0  0  0  0  0  0  0  0  0  0
    4.7070    3.6800    0.0000 N   0  0  0  0  0  0  0  0  0  0  0  0
    4.8900    5.1690    0.0000 C   0  0  0  0  0  0  0  0  0  0  0  0
    6.2710    5.7560    0.0000 O   0  0  0  0  0  0  0  0  0  0  0  0
    3.6920    6.0720    0.0000 N   0  0  0  0  0  0  0  0  0  0  0  0
    5.8050    2.6580    0.0000 C   0  0  0  0  0  0  0  0  0  0  0  0
    7.2770    2.9440    0.0000 O   0  0  0  0  0  0  0  0  0  0  0  0
    5.1710    1.2980    0.0000 C   0  0  0  0  0  0  0  0  0  0  0  0
    5.8980   -0.0140    0.0000 C   0  0  0  0  0  0  0  0  0  0  0  0
    5.1260   -1.3000    0.0000 O   0  0  0  0  0  0  0  0  0  0  0  0
    7.3980   -0.0400    0.0000 C   0  0  0  0  0  0  0  0  0  0  0  0
    8.3010    1.1580    0.0000 S   0  0  0  0  0  0  0  0  0  0  0  0
    9.7190    0.6700    0.0000 C   0  0  0  0  0  0  0  0  0  0  0  0
    9.6930   -0.8290    0.0000 C   0  0  0  0  0  0  0  0  0  0  0  0
    8.2590   -1.2680    0.0000 C   0  0  0  0  0  0  0  0  0  0  0  0
    1.9770    3.4410    0.0000 C   0  0  0  0  0  0  0  0  0  0  0  0
    0.8450    2.4570    0.0000 C   0  0  0  0  0  0  0  0  0  0  0  0
  1  2  1  0  0  0  0
  2  3  1  0  0  0  0
  2 21  2  0  0  0  0
  3  4  2  0  0  0  0
  4  5  1  0  0  0  0
  4 12  1  0  0  0  0
  5  6  1  0  0  0  0
  5 20  2  0  0  0  0
  6  7  1  0  0  0  0
  6 10  1  0  0  0  0
  7  8  2  0  0  0  0
  7  9  1  0  0  0  0
 10 11  1  0  0  0  0
 10 12  2  0  0  0  0
 12 13  1  0  0  0  0
 13 14  2  0  0  0  0
 13 15  1  0  0  0  0
 15 16  1  0  0  0  0
 15 19  2  0  0  0  0
 16 17  1  0  0  0  0
 17 18  2  0  0  0  0
 18 19  1  0  0  0  0
 20 21  1  0  0  0  0
M  END
>  <Index>
1043

>  <ID>
HT2001

>  <class>
0

>  <apol>
40.327137

>  <ast_fraglike>
0

>  <ast_fraglike_ext>
0

>  <ast_violation>
2

>  <ast_violation_ext>
2

>  <a_acc>
3

>  <a_acid>
0

>  <a_aro>
14

>  <a_base>
0

>  <a_count>
30

>  <a_don>
2

>  <a_donacc>
5

>  <a_heavy>
21

>  <a_hyd>
13

>  <a_IC>
58.619537

>  <a_ICM>
1.9539845

>  <a_nB>
0

>  <a_nBr>
0

>  <a_nC>
14

>  <a_nCl>
1

>  <a_nF>
0

>  <a_nH>
9

>  <a_nI>
0

>  <a_nN>
2

>  <a_nO>
3

>  <a_nP>
0

>  <a_nS>
1

>  <balabanJ>
1.8363352

>  <BCUT_PEOE_0>
-2.1578298

>  <BCUT_PEOE_1>
-0.59250975

>  <BCUT_PEOE_2>
0.67335933

>  <BCUT_PEOE_3>
2.2995563

>  <BCUT_SLOGP_0>
-2.4806621

>  <BCUT_SLOGP_1>
-0.47139722

>  <BCUT_SLOGP_2>
0.87049967

>  <BCUT_SLOGP_3>
2.4179606

>  <BCUT_SMR_0>
-1.8204021

>  <BCUT_SMR_1>
-0.39946055

>  <BCUT_SMR_2>
0.95340997

>  <BCUT_SMR_3>
2.6347113

>  <bpol>
15.774863

>  <b_1rotN>
3

>  <b_1rotR>
0.13043478

>  <b_ar>
15

>  <b_count>
32

>  <b_double>
2

>  <b_heavy>
23

>  <b_max1len>
2

>  <b_rotN>
3

>  <b_rotR>
0.13043478

>  <b_single>
15

>  <b_triple>
0

>  <chi0>
15.1459

>  <chi0v>
12.111014

>  <chi0v_C>
7.4641018

>  <chi0_C>
8.8614426

>  <chi1>
10.002908

>  <chi1v>
7.1711521

>  <chi1v_C>
3.6933756

>  <chi1_C>
5.2079082

>  <chiral>
0

>  <chiral_u>
0

>  <density>
0.88950878

>  <diameter>
8

>  <FCharge>
0

>  <GCUT_PEOE_0>
-0.79976517

>  <GCUT_PEOE_1>
-0.43744132

>  <GCUT_PEOE_2>
0.1072408

>  <GCUT_PEOE_3>
2.4238636

>  <GCUT_SLOGP_0>
-1.3704551

>  <GCUT_SLOGP_1>
-0.30116293

>  <GCUT_SLOGP_2>
0.31565952

>  <GCUT_SLOGP_3>
2.5536585

>  <GCUT_SMR_0>
-0.43427128

>  <GCUT_SMR_1>
-0.20458873

>  <GCUT_SMR_2>
0.37649804

>  <GCUT_SMR_3>
2.7513416

>  <Kier1>
15.879017

>  <Kier2>
6.2456746

>  <Kier3>
2.8125

>  <KierA1>
12.527514

>  <KierA2>
4.8647509

>  <KierA3>
2.1691754

>  <KierFlex>
2.9020586

>  <lip_acc>
5

>  <lip_don>
3

>  <lip_druglike>
1

>  <lip_violation>
0

>  <logP(o/w)>
3.161

>  <logS>
-4.4663901

>  <mr>
8.1955671

>  <mutagenic>
0

>  <nmol>
1

>  <opr_brigid>
15

>  <opr_leadlike>
1

>  <opr_nring>
3

>  <opr_nrot>
3

>  <opr_violation>
0

>  <PC+>
0

>  <PC->
0

>  <PEOE_PC+>
1.941366

>  <PEOE_PC->
-1.941366

>  <PEOE_RPC+>
0.16820751

>  <PEOE_RPC->
0.18093434

>  <PEOE_VSA+0>
10.993672

>  <PEOE_VSA+1>
30.235022

>  <PEOE_VSA+2>
0

>  <PEOE_VSA+3>
58.406693

>  <PEOE_VSA+4>
10.324173

>  <PEOE_VSA+5>
0

>  <PEOE_VSA+6>
17.440542

>  <PEOE_VSA-0>
40.949314

>  <PEOE_VSA-1>
54.091755

>  <PEOE_VSA-2>
14.230966

>  <PEOE_VSA-3>
0

>  <PEOE_VSA-4>
13.566921

>  <PEOE_VSA-5>
13.566921

>  <PEOE_VSA-6>
14.418659

>  <PEOE_VSA_FHYD>
0.75085878

>  <PEOE_VSA_FNEG>
0.54209626

>  <PEOE_VSA_FPNEG>
0.14934875

>  <PEOE_VSA_FPOL>
0.24914119

>  <PEOE_VSA_FPOS>
0.45790374

>  <PEOE_VSA_FPPOS>
0.099792436

>  <PEOE_VSA_HYD>
208.90742

>  <PEOE_VSA_NEG>
150.82454

>  <PEOE_VSA_PNEG>
41.552502

>  <PEOE_VSA_POL>
69.317215

>  <PEOE_VSA_POS>
127.4001

>  <PEOE_VSA_PPOS>
27.764715

>  <petitjean>
0.5

>  <petitjeanSC>
1

>  <Q_PC+>
0

>  <Q_PC->
0

>  <Q_RPC+>
0

>  <Q_RPC->
0

>  <Q_VSA_FHYD>
1

>  <Q_VSA_FNEG>
0

>  <Q_VSA_FPNEG>
0

>  <Q_VSA_FPOL>
0

>  <Q_VSA_FPOS>
1

>  <Q_VSA_FPPOS>
0

>  <Q_VSA_HYD>
278.22464

>  <Q_VSA_NEG>
0

>  <Q_VSA_PNEG>
0

>  <Q_VSA_POL>
0

>  <Q_VSA_POS>
278.22464

>  <Q_VSA_PPOS>
0

>  <radius>
4

>  <reactive>
1

>  <rings>
3

>  <RPC+>
0

>  <RPC->
0

>  <rsynth>
1

>  <SlogP>
3.2196

>  <SlogP_VSA0>
58.282413

>  <SlogP_VSA1>
12.41666

>  <SlogP_VSA2>
0

>  <SlogP_VSA3>
0

>  <SlogP_VSA4>
28.406193

>  <SlogP_VSA5>
0

>  <SlogP_VSA6>
3.5006065

>  <SlogP_VSA7>
108.74903

>  <SlogP_VSA8>
0

>  <SlogP_VSA9>
99.103149

>  <SMR>
8.1345701

>  <SMR_VSA0>
47.724434

>  <SMR_VSA1>
27.284319

>  <SMR_VSA2>
0

>  <SMR_VSA3>
12.859183

>  <SMR_VSA4>
37.614288

>  <SMR_VSA5>
104.03193

>  <SMR_VSA6>
10.517568

>  <SMR_VSA7>
70.426331

>  <TPSA>
85.32

>  <VAdjEq>
0.48250595

>  <VAdjMa>
5.523562

>  <VDistEq>
2.8900461

>  <VDistMa>
8.5326424

>  <vdw_area>
278.22464

>  <vdw_vol>
360.59903

>  <vsa_acc>
27.133842

>  <vsa_acid>
0

>  <vsa_base>
0

>  <vsa_don>
17.742489

>  <vsa_hyd>
165.99057

>  <vsa_other>
38.848595

>  <vsa_pol>
58.443253

>  <Weight>
320.75598

>  <weinerPath>
831

>  <weinerPol>
35

>  <zagreb>
114

$$$$