O=C1N(C)C(=O)N(c2nc(n(c12)CCN(CCO)CC)Cc1ccccc1)C
  MOE2013           2D

 28 30  0  0  1  0  0  0  0  0999 V2000
    0.0000    0.0000    0.0000 O   0  0  0  0  0  0  0  0  0  0  0  0
   -0.7440    1.3030    0.0000 C   0  0  0  0  0  0  0  0  0  0  0  0
   -2.2440    1.3100    0.0000 N   0  0  0  0  0  0  0  0  0  0  0  0
   -3.0000    0.0140    0.0000 C   0  0  0  0  0  0  0  0  0  0  0  0
   -2.9880    2.6120    0.0000 C   0  0  0  0  0  0  0  0  0  0  0  0
   -4.4880    2.6190    0.0000 O   0  0  0  0  0  0  0  0  0  0  0  0
   -2.2320    3.9080    0.0000 N   0  0  0  0  0  0  0  0  0  0  0  0
   -0.7320    3.9010    0.0000 C   0  0  0  0  0  0  0  0  0  0  0  0
    0.2770    5.0110    0.0000 N   0  0  0  0  0  0  0  0  0  0  0  0
    1.6450    4.3940    0.0000 C   0  0  0  0  0  0  0  0  0  0  0  0
    1.4810    2.9030    0.0000 N   0  0  0  0  0  0  0  0  0  0  0  0
    0.0120    2.5980    0.0000 C   0  0  0  0  0  0  0  0  0  0  0  0
    2.5910    1.8940    0.0000 C   0  0  0  0  0  0  0  0  0  0  0  0
    4.0200    2.3510    0.0000 C   0  0  0  0  0  0  0  0  0  0  0  0
    5.1300    1.3420    0.0000 N   0  0  3  0  0  0  0  0  0  0  0  0
    6.5580    1.7990    0.0000 C   0  0  0  0  0  0  0  0  0  0  0  0
    7.6680    0.7900    0.0000 C   0  0  0  0  0  0  0  0  0  0  0  0
    9.0970    1.2470    0.0000 O   0  0  0  0  0  0  0  0  0  0  0  0
    4.8110   -0.1240    0.0000 C   0  0  0  0  0  0  0  0  0  0  0  0
    5.9210   -1.1330    0.0000 C   0  0  0  0  0  0  0  0  0  0  0  0
    2.9470    5.1380    0.0000 C   0  0  0  0  0  0  0  0  0  0  0  0
    2.9540    6.6380    0.0000 C   0  0  0  0  0  0  0  0  0  0  0  0
    1.6590    7.3940    0.0000 C   0  0  0  0  0  0  0  0  0  0  0  0
    1.6660    8.8940    0.0000 C   0  0  0  0  0  0  0  0  0  0  0  0
    2.9680    9.6380    0.0000 C   0  0  0  0  0  0  0  0  0  0  0  0
    4.2640    8.8820    0.0000 C   0  0  0  0  0  0  0  0  0  0  0  0
    4.2570    7.3820    0.0000 C   0  0  0  0  0  0  0  0  0  0  0  0
   -2.9760    5.2100    0.0000 C   0  0  0  0  0  0  0  0  0  0  0  0
  1  2  2  0  0  0  0
  2  3  1  0  0  0  0
  2 12  1  0  0  0  0
  3  4  1  0  0  0  0
  3  5  1  0  0  0  0
  5  6  2  0  0  0  0
  5  7  1  0  0  0  0
  7  8  1  0  0  0  0
  7 28  1  0  0  0  0
  8  9  1  0  0  0  0
  8 12  2  0  0  0  0
  9 10  2  0  0  0  0
 10 11  1  0  0  0  0
 10 21  1  0  0  0  0
 11 12  1  0  0  0  0
 11 13  1  0  0  0  0
 13 14  1  0  0  0  0
 14 15  1  0  0  0  0
 15 16  1  0  0  0  0
 15 19  1  0  0  0  0
 16 17  1  0  0  0  0
 17 18  1  0  0  0  0
 19 20  1  0  0  0  0
 21 22  1  0  0  0  0
 22 23  1  0  0  0  0
 22 27  2  0  0  0  0
 23 24  2  0  0  0  0
 24 25  1  0  0  0  0
 25 26  2  0  0  0  0
 26 27  1  0  0  0  0
M  END
>  <Index>
1367

>  <ID>
HT3727

>  <class>
0

>  <apol>
61.109409

>  <ast_fraglike>
0

>  <ast_fraglike_ext>
0

>  <ast_violation>
2

>  <ast_violation_ext>
3

>  <a_acc>
5

>  <a_acid>
0

>  <a_aro>
11

>  <a_base>
0

>  <a_count>
55

>  <a_don>
1

>  <a_donacc>
6

>  <a_heavy>
28

>  <a_hyd>
16

>  <a_IC>
86.789734

>  <a_ICM>
1.5779952

>  <a_nB>
0

>  <a_nBr>
0

>  <a_nC>
20

>  <a_nCl>
0

>  <a_nF>
0

>  <a_nH>
27

>  <a_nI>
0

>  <a_nN>
5

>  <a_nO>
3

>  <a_nP>
0

>  <a_nS>
0

>  <balabanJ>
1.7455609

>  <BCUT_PEOE_0>
-2.6743152

>  <BCUT_PEOE_1>
-0.51638389

>  <BCUT_PEOE_2>
0.55571979

>  <BCUT_PEOE_3>
2.5918615

>  <BCUT_SLOGP_0>
-2.7544274

>  <BCUT_SLOGP_1>
-0.41679716

>  <BCUT_SLOGP_2>
0.58371478

>  <BCUT_SLOGP_3>
2.5524998

>  <BCUT_SMR_0>
-2.3996363

>  <BCUT_SMR_1>
-0.38940525

>  <BCUT_SMR_2>
0.70680785

>  <BCUT_SMR_3>
2.8611085

>  <bpol>
40.672588

>  <b_1rotN>
8

>  <b_1rotR>
0.26666668

>  <b_ar>
11

>  <b_count>
57

>  <b_double>
2

>  <b_heavy>
30

>  <b_max1len>
7

>  <b_rotN>
8

>  <b_rotR>
0.26666668

>  <b_single>
44

>  <b_triple>
0

>  <chi0>
20.258783

>  <chi0v>
16.629169

>  <chi0v_C>
13.129392

>  <chi0_C>
14.242276

>  <chi1>
13.472764

>  <chi1v>
9.4975662

>  <chi1v_C>
4.8248973

>  <chi1_C>
6.0067668

>  <chiral>
0

>  <chiral_u>
0

>  <density>
0.72849679

>  <diameter>
12

>  <FCharge>
0

>  <GCUT_PEOE_0>
-0.8513971

>  <GCUT_PEOE_1>
-0.41390377

>  <GCUT_PEOE_2>
-0.0021316628

>  <GCUT_PEOE_3>
2.7940633

>  <GCUT_SLOGP_0>
-1.0015283

>  <GCUT_SLOGP_1>
-0.28408256

>  <GCUT_SLOGP_2>
-0.00043274855

>  <GCUT_SLOGP_3>
2.7959523

>  <GCUT_SMR_0>
-0.52132565

>  <GCUT_SMR_1>
-0.18023013

>  <GCUT_SMR_2>
0.15719599

>  <GCUT_SMR_3>
3.054322

>  <Kier1>
22.68

>  <Kier2>
10.346939

>  <Kier3>
5.0237813

>  <KierA1>
17.110054

>  <KierA2>
7.7185326

>  <KierA3>
3.7176833

>  <KierFlex>
4.7165895

>  <lip_acc>
8

>  <lip_don>
1

>  <lip_druglike>
1

>  <lip_violation>
0

>  <logP(o/w)>
1.002

>  <logS>
-2.3456399

>  <mr>
10.68505

>  <mutagenic>
0

>  <nmol>
1

>  <opr_brigid>
16

>  <opr_leadlike>
1

>  <opr_nring>
3

>  <opr_nrot>
8

>  <opr_violation>
0

>  <PC+>
0

>  <PC->
0

>  <PEOE_PC+>
2.6774123

>  <PEOE_PC->
-2.6774123

>  <PEOE_RPC+>
0.1243993

>  <PEOE_RPC->
0.14706258

>  <PEOE_VSA+0>
167.26723

>  <PEOE_VSA+1>
53.339767

>  <PEOE_VSA+2>
11.190562

>  <PEOE_VSA+3>
17.890114

>  <PEOE_VSA+4>
10.324173

>  <PEOE_VSA+5>
12.949531

>  <PEOE_VSA+6>
17.440542

>  <PEOE_VSA-0>
15.400865

>  <PEOE_VSA-1>
80.022194

>  <PEOE_VSA-2>
0

>  <PEOE_VSA-3>
0

>  <PEOE_VSA-4>
19.249496

>  <PEOE_VSA-5>
13.566921

>  <PEOE_VSA-6>
7.7675405

>  <PEOE_VSA_FHYD>
0.80934215

>  <PEOE_VSA_FNEG>
0.31895912

>  <PEOE_VSA_FPNEG>
0.095176145

>  <PEOE_VSA_FPOL>
0.19065784

>  <PEOE_VSA_FPOS>
0.68104088

>  <PEOE_VSA_FPPOS>
0.095481694

>  <PEOE_VSA_HYD>
345.11075

>  <PEOE_VSA_NEG>
136.00702

>  <PEOE_VSA_PNEG>
40.583958

>  <PEOE_VSA_POL>
81.298203

>  <PEOE_VSA_POS>
290.40192

>  <PEOE_VSA_PPOS>
40.714245

>  <petitjean>
0.5

>  <petitjeanSC>
1

>  <Q_PC+>
0

>  <Q_PC->
0

>  <Q_RPC+>
0

>  <Q_RPC->
0

>  <Q_VSA_FHYD>
1

>  <Q_VSA_FNEG>
0

>  <Q_VSA_FPNEG>
0

>  <Q_VSA_FPOL>
0

>  <Q_VSA_FPOS>
1

>  <Q_VSA_FPPOS>
0

>  <Q_VSA_HYD>
426.40894

>  <Q_VSA_NEG>
0

>  <Q_VSA_PNEG>
0

>  <Q_VSA_POL>
0

>  <Q_VSA_POS>
426.40894

>  <Q_VSA_PPOS>
0

>  <radius>
6

>  <reactive>
0

>  <rings>
3

>  <RPC+>
0

>  <RPC->
0

>  <rsynth>
1

>  <SlogP>
1.69627

>  <SlogP_VSA0>
28.509541

>  <SlogP_VSA1>
35.021992

>  <SlogP_VSA2>
0

>  <SlogP_VSA3>
76.244995

>  <SlogP_VSA4>
32.132458

>  <SlogP_VSA5>
84.662781

>  <SlogP_VSA6>
0

>  <SlogP_VSA7>
88.215919

>  <SlogP_VSA8>
0

>  <SlogP_VSA9>
77.955727

>  <SMR>
10.67723

>  <SMR_VSA0>
47.724434

>  <SMR_VSA1>
50.318478

>  <SMR_VSA2>
3.1243138

>  <SMR_VSA3>
8.2702427

>  <SMR_VSA4>
2.3279202

>  <SMR_VSA5>
125.5239

>  <SMR_VSA6>
86.333733

>  <SMR_VSA7>
99.120392

>  <TPSA>
81.910004

>  <VAdjEq>
0.38983503

>  <VAdjMa>
5.9068904

>  <VDistEq>
3.3464093

>  <VDistMa>
9.3597279

>  <vdw_area>
426.40894

>  <vdw_vol>
529.12793

>  <vsa_acc>
32.816418

>  <vsa_acid>
0

>  <vsa_base>
0

>  <vsa_don>
0

>  <vsa_hyd>
304.22293

>  <vsa_other>
52.771198

>  <vsa_pol>
46.383339

>  <Weight>
385.46799

>  <weinerPath>
1981

>  <weinerPol>
47

>  <zagreb>
144

$$$$