Clc1ccc(OC(Oc2ccc(Cl)cc2)C(OCC2N(CCC2)C)=O)cc1
  MOE2013           2D

 27 29  0  0  1  0  0  0  0  0999 V2000
    0.0000    0.0000    0.0000 Cl  0  0  0  0  0  0  0  0  0  0  0  0
   -0.7420   -1.3040    0.0000 C   0  0  0  0  0  0  0  0  0  0  0  0
    0.0170   -2.5980    0.0000 C   0  0  0  0  0  0  0  0  0  0  0  0
   -0.7250   -3.9020    0.0000 C   0  0  0  0  0  0  0  0  0  0  0  0
   -2.2250   -3.9120    0.0000 C   0  0  0  0  0  0  0  0  0  0  0  0
   -2.9660   -5.2160    0.0000 O   0  0  0  0  0  0  0  0  0  0  0  0
   -2.2080   -6.5100    0.0000 C   0  0  0  0  0  0  0  0  0  0  0  0
   -2.9490   -7.8140    0.0000 O   0  0  0  0  0  0  0  0  0  0  0  0
   -4.4490   -7.8230    0.0000 C   0  0  0  0  0  0  0  0  0  0  0  0
   -5.2080   -6.5290    0.0000 C   0  0  0  0  0  0  0  0  0  0  0  0
   -6.7080   -6.5390    0.0000 C   0  0  0  0  0  0  0  0  0  0  0  0
   -7.4490   -7.8430    0.0000 C   0  0  0  0  0  0  0  0  0  0  0  0
   -8.9490   -7.8530    0.0000 Cl  0  0  0  0  0  0  0  0  0  0  0  0
   -6.6910   -9.1370    0.0000 C   0  0  0  0  0  0  0  0  0  0  0  0
   -5.1910   -9.1270    0.0000 C   0  0  0  0  0  0  0  0  0  0  0  0
   -0.7080   -6.5000    0.0000 C   0  0  0  0  0  0  0  0  0  0  0  0
    0.0510   -7.7940    0.0000 O   0  0  0  0  0  0  0  0  0  0  0  0
    1.5510   -7.7840    0.0000 C   0  0  0  0  0  0  0  0  0  0  0  0
    2.3090   -9.0780    0.0000 C   0  0  3  0  0  0  0  0  0  0  0  0
    3.8020   -9.2250    0.0000 N   0  0  3  0  0  0  0  0  0  0  0  0
    4.1230  -10.6910    0.0000 C   0  0  0  0  0  0  0  0  0  0  0  0
    2.8290  -11.4490    0.0000 C   0  0  0  0  0  0  0  0  0  0  0  0
    1.7080  -10.4530    0.0000 C   0  0  0  0  0  0  0  0  0  0  0  0
    4.7980   -8.1040    0.0000 C   0  0  0  0  0  0  0  0  0  0  0  0
    0.0340   -5.1960    0.0000 O   0  0  0  0  0  0  0  0  0  0  0  0
   -2.9830   -2.6180    0.0000 C   0  0  0  0  0  0  0  0  0  0  0  0
   -2.2410   -1.3140    0.0000 C   0  0  0  0  0  0  0  0  0  0  0  0
  1  2  1  0  0  0  0
  2  3  1  0  0  0  0
  2 27  2  0  0  0  0
  3  4  2  0  0  0  0
  4  5  1  0  0  0  0
  5  6  1  0  0  0  0
  5 26  2  0  0  0  0
  6  7  1  0  0  0  0
  7  8  1  0  0  0  0
  7 16  1  0  0  0  0
  8  9  1  0  0  0  0
  9 10  1  0  0  0  0
  9 15  2  0  0  0  0
 10 11  2  0  0  0  0
 11 12  1  0  0  0  0
 12 13  1  0  0  0  0
 12 14  2  0  0  0  0
 14 15  1  0  0  0  0
 16 17  1  0  0  0  0
 16 25  2  0  0  0  0
 17 18  1  0  0  0  0
 18 19  1  0  0  0  0
 19 20  1  0  0  0  0
 19 23  1  0  0  0  0
 20 21  1  0  0  0  0
 20 24  1  0  0  0  0
 21 22  1  0  0  0  0
 22 23  1  0  0  0  0
 26 27  1  0  0  0  0
M  END
>  <Index>
144

>  <ID>
HT0284

>  <class>
0

>  <apol>
57.870651

>  <ast_fraglike>
0

>  <ast_fraglike_ext>
0

>  <ast_violation>
3

>  <ast_violation_ext>
4

>  <a_acc>
4

>  <a_acid>
0

>  <a_aro>
12

>  <a_base>
0

>  <a_count>
48

>  <a_don>
0

>  <a_donacc>
4

>  <a_heavy>
27

>  <a_hyd>
20

>  <a_IC>
79.40097

>  <a_ICM>
1.654187

>  <a_nB>
0

>  <a_nBr>
0

>  <a_nC>
20

>  <a_nCl>
2

>  <a_nF>
0

>  <a_nH>
21

>  <a_nI>
0

>  <a_nN>
1

>  <a_nO>
4

>  <a_nP>
0

>  <a_nS>
0

>  <balabanJ>
1.5214854

>  <BCUT_PEOE_0>
-2.5939114

>  <BCUT_PEOE_1>
-0.63994777

>  <BCUT_PEOE_2>
0.65116006

>  <BCUT_PEOE_3>
2.7309945

>  <BCUT_SLOGP_0>
-2.7037978

>  <BCUT_SLOGP_1>
-0.53807992

>  <BCUT_SLOGP_2>
0.80591482

>  <BCUT_SLOGP_3>
2.719512

>  <BCUT_SMR_0>
-2.3362451

>  <BCUT_SMR_1>
-0.44748834

>  <BCUT_SMR_2>
0.85431087

>  <BCUT_SMR_3>
2.9882481

>  <bpol>
32.483349

>  <b_1rotN>
7

>  <b_1rotR>
0.24137931

>  <b_ar>
12

>  <b_count>
50

>  <b_double>
1

>  <b_heavy>
29

>  <b_max1len>
3

>  <b_rotN>
8

>  <b_rotR>
0.27586207

>  <b_single>
37

>  <b_triple>
0

>  <chi0>
19.225405

>  <chi0v>
16.449923

>  <chi0v_C>
12.10193

>  <chi0_C>
13.526733

>  <chi1>
13.00804

>  <chi1v>
9.4800158

>  <chi1v_C>
5.7479062

>  <chi1_C>
7.4158163

>  <chiral>
1

>  <chiral_u>
1

>  <density>
0.80710101

>  <diameter>
12

>  <FCharge>
0

>  <GCUT_PEOE_0>
-0.85918838

>  <GCUT_PEOE_1>
-0.37997535

>  <GCUT_PEOE_2>
0.040147513

>  <GCUT_PEOE_3>
2.6089959

>  <GCUT_SLOGP_0>
-0.96848691

>  <GCUT_SLOGP_1>
-0.2921156

>  <GCUT_SLOGP_2>
0.16445385

>  <GCUT_SLOGP_3>
2.635103

>  <GCUT_SMR_0>
-0.52691597

>  <GCUT_SMR_1>
-0.21540593

>  <GCUT_SMR_2>
0.20018199

>  <GCUT_SMR_3>
2.8481135

>  <Kier1>
21.702734

>  <Kier2>
10.683761

>  <Kier3>
6.7795382

>  <KierA1>
19.440964

>  <KierA2>
9.5280275

>  <KierA3>
6.0263028

>  <KierFlex>
6.8605199

>  <lip_acc>
5

>  <lip_don>
0

>  <lip_druglike>
1

>  <lip_violation>
0

>  <logP(o/w)>
4.6184802

>  <logS>
-5.48773

>  <mr>
10.700432

>  <mutagenic>
0

>  <nmol>
1

>  <opr_brigid>
17

>  <opr_leadlike>
1

>  <opr_nring>
3

>  <opr_nrot>
8

>  <opr_violation>
0

>  <PC+>
0

>  <PC->
0

>  <PEOE_PC+>
2.0181658

>  <PEOE_PC->
-2.0181658

>  <PEOE_RPC+>
0.15851176

>  <PEOE_RPC->
0.15350738

>  <PEOE_VSA+0>
54.839314

>  <PEOE_VSA+1>
74.522194

>  <PEOE_VSA+2>
4.2653861

>  <PEOE_VSA+3>
0

>  <PEOE_VSA+4>
0

>  <PEOE_VSA+5>
11.154908

>  <PEOE_VSA+6>
14.708499

>  <PEOE_VSA-0>
151.87288

>  <PEOE_VSA-1>
59.163895

>  <PEOE_VSA-2>
0

>  <PEOE_VSA-3>
0

>  <PEOE_VSA-4>
0

>  <PEOE_VSA-5>
13.566921

>  <PEOE_VSA-6>
7.5112681

>  <PEOE_VSA_FHYD>
0.88013029

>  <PEOE_VSA_FNEG>
0.59272689

>  <PEOE_VSA_FPNEG>
0.053825092

>  <PEOE_VSA_FPOL>
0.11986968

>  <PEOE_VSA_FPOS>
0.40727314

>  <PEOE_VSA_FPPOS>
0.066044591

>  <PEOE_VSA_HYD>
344.66367

>  <PEOE_VSA_NEG>
232.11496

>  <PEOE_VSA_PNEG>
21.07819

>  <PEOE_VSA_POL>
46.941597

>  <PEOE_VSA_POS>
159.4903

>  <PEOE_VSA_PPOS>
25.863407

>  <petitjean>
0.5

>  <petitjeanSC>
1

>  <Q_PC+>
0

>  <Q_PC->
0

>  <Q_RPC+>
0

>  <Q_RPC->
0

>  <Q_VSA_FHYD>
1

>  <Q_VSA_FNEG>
0

>  <Q_VSA_FPNEG>
0

>  <Q_VSA_FPOL>
0

>  <Q_VSA_FPOS>
1

>  <Q_VSA_FPPOS>
0

>  <Q_VSA_HYD>
391.60526

>  <Q_VSA_NEG>
0

>  <Q_VSA_PNEG>
0

>  <Q_VSA_POL>
0

>  <Q_VSA_POS>
391.60526

>  <Q_VSA_PPOS>
0

>  <radius>
6

>  <reactive>
0

>  <rings>
3

>  <RPC+>
0

>  <RPC->
0

>  <rsynth>
1

>  <SlogP>
4.4147

>  <SlogP_VSA0>
21.999775

>  <SlogP_VSA1>
10.869778

>  <SlogP_VSA2>
47.370575

>  <SlogP_VSA3>
39.365837

>  <SlogP_VSA4>
0

>  <SlogP_VSA5>
32.897186

>  <SlogP_VSA6>
7.0012131

>  <SlogP_VSA7>
141.14548

>  <SlogP_VSA8>
37.736813

>  <SlogP_VSA9>
88.784142

>  <SMR>
10.4559

>  <SMR_VSA0>
34.862103

>  <SMR_VSA1>
25.12409

>  <SMR_VSA2>
0

>  <SMR_VSA3>
29.99654

>  <SMR_VSA4>
0

>  <SMR_VSA5>
178.88228

>  <SMR_VSA6>
47.111301

>  <SMR_VSA7>
111.19447

>  <TPSA>
48

>  <VAdjEq>
0.40063059

>  <VAdjMa>
5.8579812

>  <VDistEq>
3.4835713

>  <VDistMa>
9.2358913

>  <vdw_area>
391.60526

>  <vdw_vol>
508.35892

>  <vsa_acc>
18.574432

>  <vsa_acid>
0

>  <vsa_base>
0

>  <vsa_don>
0

>  <vsa_hyd>
326.16235

>  <vsa_other>
31.920755

>  <vsa_pol>
18.574432

>  <Weight>
410.297

>  <weinerPath>
1996

>  <weinerPol>
36

>  <zagreb>
136

$$$$