O1C(CO)C(OC2OC(CO)C(O)C(O)C2O)C(O)C(O)C1OC1C(O)C(O)C(OC1CO)O
  MOE2013           2D

 34 36  0  0  1  0  0  0  0  0999 V2000
    0.0000    0.0000    0.0000 O   0  0  0  0  0  0  0  0  0  0  0  0
   -0.7610   -1.2920    0.0000 C   0  0  3  0  0  0  0  0  0  0  0  0
   -0.0230   -2.5980    0.0000 C   0  0  0  0  0  0  0  0  0  0  0  0
    1.4770   -2.6110    0.0000 O   0  0  0  0  0  0  0  0  0  0  0  0
   -2.2610   -1.2790    0.0000 C   0  0  3  0  0  0  0  0  0  0  0  0
   -3.0220   -2.5720    0.0000 O   0  0  0  0  0  0  0  0  0  0  0  0
   -4.5220   -2.5590    0.0000 C   0  0  3  0  0  0  0  0  0  0  0  0
   -5.2610   -1.2530    0.0000 O   0  0  0  0  0  0  0  0  0  0  0  0
   -6.7610   -1.2400    0.0000 C   0  0  3  0  0  0  0  0  0  0  0  0
   -7.5000    0.0650    0.0000 C   0  0  0  0  0  0  0  0  0  0  0  0
   -9.0000    0.0780    0.0000 O   0  0  0  0  0  0  0  0  0  0  0  0
   -7.5220   -2.5330    0.0000 C   0  0  3  0  0  0  0  0  0  0  0  0
   -9.0220   -2.5200    0.0000 O   0  0  0  0  0  0  0  0  0  0  0  0
   -6.7840   -3.8380    0.0000 C   0  0  3  0  0  0  0  0  0  0  0  0
   -7.5450   -5.1310    0.0000 O   0  0  0  0  0  0  0  0  0  0  0  0
   -5.2840   -3.8510    0.0000 C   0  0  3  0  0  0  0  0  0  0  0  0
   -4.5450   -5.1570    0.0000 O   0  0  0  0  0  0  0  0  0  0  0  0
   -3.0000    0.0260    0.0000 C   0  0  3  0  0  0  0  0  0  0  0  0
   -4.5000    0.0390    0.0000 O   0  0  0  0  0  0  0  0  0  0  0  0
   -2.2390    1.3180    0.0000 C   0  0  3  0  0  0  0  0  0  0  0  0
   -2.9770    2.6240    0.0000 O   0  0  0  0  0  0  0  0  0  0  0  0
   -0.7390    1.3050    0.0000 C   0  0  3  0  0  0  0  0  0  0  0  0
    0.0230    2.5980    0.0000 O   0  0  0  0  0  0  0  0  0  0  0  0
    1.5220    2.5850    0.0000 C   0  0  3  0  0  0  0  0  0  0  0  0
    2.2610    1.2790    0.0000 C   0  0  3  0  0  0  0  0  0  0  0  0
    1.5000   -0.0130    0.0000 O   0  0  0  0  0  0  0  0  0  0  0  0
    3.7610    1.2660    0.0000 C   0  0  3  0  0  0  0  0  0  0  0  0
    4.5000   -0.0390    0.0000 O   0  0  0  0  0  0  0  0  0  0  0  0
    4.5220    2.5590    0.0000 C   0  0  3  0  0  0  0  0  0  0  0  0
    3.7840    3.8640    0.0000 O   0  0  0  0  0  0  0  0  0  0  0  0
    2.2840    3.8770    0.0000 C   0  0  3  0  0  0  0  0  0  0  0  0
    1.5450    5.1830    0.0000 C   0  0  0  0  0  0  0  0  0  0  0  0
    2.3060    6.4750    0.0000 O   0  0  0  0  0  0  0  0  0  0  0  0
    6.0220    2.5460    0.0000 O   0  0  0  0  0  0  0  0  0  0  0  0
  1  2  1  0  0  0  0
  1 22  1  0  0  0  0
  2  3  1  0  0  0  0
  2  5  1  0  0  0  0
  3  4  1  0  0  0  0
  5  6  1  0  0  0  0
  5 18  1  0  0  0  0
  6  7  1  0  0  0  0
  7  8  1  0  0  0  0
  7 16  1  0  0  0  0
  8  9  1  0  0  0  0
  9 10  1  0  0  0  0
  9 12  1  0  0  0  0
 10 11  1  0  0  0  0
 12 13  1  0  0  0  0
 12 14  1  0  0  0  0
 14 15  1  0  0  0  0
 14 16  1  0  0  0  0
 16 17  1  0  0  0  0
 18 19  1  0  0  0  0
 18 20  1  0  0  0  0
 20 21  1  0  0  0  0
 20 22  1  0  0  0  0
 22 23  1  0  0  0  0
 23 24  1  0  0  0  0
 24 25  1  0  0  0  0
 24 31  1  0  0  0  0
 25 26  1  0  0  0  0
 25 27  1  0  0  0  0
 27 28  1  0  0  0  0
 27 29  1  0  0  0  0
 29 30  1  0  0  0  0
 29 34  1  0  0  0  0
 30 31  1  0  0  0  0
 31 32  1  0  0  0  0
 32 33  1  0  0  0  0
M  END
>  <Index>
1393

>  <ID>
HT3889

>  <class>
0

>  <apol>
65.849373

>  <ast_fraglike>
0

>  <ast_fraglike_ext>
0

>  <ast_violation>
3

>  <ast_violation_ext>
5

>  <a_acc>
16

>  <a_acid>
0

>  <a_aro>
0

>  <a_base>
0

>  <a_count>
66

>  <a_don>
11

>  <a_donacc>
27

>  <a_heavy>
34

>  <a_hyd>
15

>  <a_IC>
99.871361

>  <a_ICM>
1.5132024

>  <a_nB>
0

>  <a_nBr>
0

>  <a_nC>
18

>  <a_nCl>
0

>  <a_nF>
0

>  <a_nH>
32

>  <a_nI>
0

>  <a_nN>
0

>  <a_nO>
16

>  <a_nP>
0

>  <a_nS>
0

>  <balabanJ>
1.716386

>  <BCUT_PEOE_0>
-2.7679985

>  <BCUT_PEOE_1>
-0.7247054

>  <BCUT_PEOE_2>
0.77013558

>  <BCUT_PEOE_3>
2.8366935

>  <BCUT_SLOGP_0>
-2.9578059

>  <BCUT_SLOGP_1>
-0.87169307

>  <BCUT_SLOGP_2>
0.5635348

>  <BCUT_SLOGP_3>
2.6341658

>  <BCUT_SMR_0>
-2.569165

>  <BCUT_SMR_1>
-0.59807885

>  <BCUT_SMR_2>
0.85897022

>  <BCUT_SMR_3>
3.0179825

>  <bpol>
44.562626

>  <b_1rotN>
7

>  <b_1rotR>
0.19444445

>  <b_ar>
0

>  <b_count>
68

>  <b_double>
0

>  <b_heavy>
36

>  <b_max1len>
4

>  <b_rotN>
7

>  <b_rotR>
0.19444445

>  <b_single>
68

>  <b_triple>
0

>  <chi0>
25.317108

>  <chi0v>
17.742165

>  <chi0v_C>
10.781574

>  <chi0_C>
10.781574

>  <chi1>
16.04735

>  <chi1v>
10.596042

>  <chi1v_C>
5.2247448

>  <chi1_C>
5.2247448

>  <chiral>
15

>  <chiral_u>
15

>  <density>
0.90241885

>  <diameter>
15

>  <FCharge>
0

>  <GCUT_PEOE_0>
-0.79279166

>  <GCUT_PEOE_1>
-0.44917175

>  <GCUT_PEOE_2>
0.21029675

>  <GCUT_PEOE_3>
3.0315428

>  <GCUT_SLOGP_0>
-0.95673722

>  <GCUT_SLOGP_1>
-0.60146272

>  <GCUT_SLOGP_2>
-0.0051647602

>  <GCUT_SLOGP_3>
2.8856483

>  <GCUT_SMR_0>
-0.52804506

>  <GCUT_SMR_1>
-0.28766888

>  <GCUT_SMR_2>
0.24988787

>  <GCUT_SMR_3>
3.2111399

>  <Kier1>
28.569445

>  <Kier2>
12.029903

>  <Kier3>
5.7969322

>  <KierA1>
28.569445

>  <KierA2>
12.029903

>  <KierA3>
5.7969322

>  <KierFlex>
10.10846

>  <lip_acc>
16

>  <lip_don>
11

>  <lip_druglike>
0

>  <lip_violation>
3

>  <logP(o/w)>
-6.7639999

>  <logS>
1.83549

>  <mr>
10.198722

>  <mutagenic>
0

>  <nmol>
1

>  <opr_brigid>
18

>  <opr_leadlike>
0

>  <opr_nring>
3

>  <opr_nrot>
13

>  <opr_violation>
5

>  <PC+>
0

>  <PC->
0

>  <PEOE_PC+>
5.941967

>  <PEOE_PC->
-5.941967

>  <PEOE_RPC+>
0.035772827

>  <PEOE_RPC->
0.066033043

>  <PEOE_VSA+0>
0

>  <PEOE_VSA+1>
134.42699

>  <PEOE_VSA+2>
58.859146

>  <PEOE_VSA+3>
33.464725

>  <PEOE_VSA+4>
113.5659

>  <PEOE_VSA+5>
0

>  <PEOE_VSA+6>
0

>  <PEOE_VSA-0>
0

>  <PEOE_VSA-1>
0

>  <PEOE_VSA-2>
0

>  <PEOE_VSA-3>
0

>  <PEOE_VSA-4>
0

>  <PEOE_VSA-5>
0

>  <PEOE_VSA-6>
97.961723

>  <PEOE_VSA_FHYD>
0.51736706

>  <PEOE_VSA_FNEG>
0.2235148

>  <PEOE_VSA_FPNEG>
0.2235148

>  <PEOE_VSA_FPOL>
0.48263294

>  <PEOE_VSA_FPOS>
0.7764852

>  <PEOE_VSA_FPPOS>
0.25911814

>  <PEOE_VSA_HYD>
226.75085

>  <PEOE_VSA_NEG>
97.961723

>  <PEOE_VSA_PNEG>
97.961723

>  <PEOE_VSA_POL>
211.52762

>  <PEOE_VSA_POS>
340.31674

>  <PEOE_VSA_PPOS>
113.5659

>  <petitjean>
0.46666667

>  <petitjeanSC>
0.875

>  <Q_PC+>
0

>  <Q_PC->
0

>  <Q_RPC+>
0

>  <Q_RPC->
0

>  <Q_VSA_FHYD>
1

>  <Q_VSA_FNEG>
0

>  <Q_VSA_FPNEG>
0

>  <Q_VSA_FPOL>
0

>  <Q_VSA_FPOS>
1

>  <Q_VSA_FPPOS>
0

>  <Q_VSA_HYD>
438.27847

>  <Q_VSA_NEG>
0

>  <Q_VSA_PNEG>
0

>  <Q_VSA_POL>
0

>  <Q_VSA_POS>
438.27847

>  <Q_VSA_PPOS>
0

>  <radius>
8

>  <reactive>
1

>  <rings>
3

>  <RPC+>
0

>  <RPC->
0

>  <rsynth>
1

>  <SlogP>
-7.573

>  <SlogP_VSA0>
279.23749

>  <SlogP_VSA1>
0

>  <SlogP_VSA2>
158.20274

>  <SlogP_VSA3>
62.778774

>  <SlogP_VSA4>
0

>  <SlogP_VSA5>
0

>  <SlogP_VSA6>
0

>  <SlogP_VSA7>
0

>  <SlogP_VSA8>
0

>  <SlogP_VSA9>
0

>  <SMR>
10.12528

>  <SMR_VSA0>
54.999439

>  <SMR_VSA1>
279.23749

>  <SMR_VSA2>
0

>  <SMR_VSA3>
103.2033

>  <SMR_VSA4>
0

>  <SMR_VSA5>
0

>  <SMR_VSA6>
62.778774

>  <SMR_VSA7>
0

>  <TPSA>
268.67999

>  <VAdjEq>
0.33644459

>  <VAdjMa>
6.1699252

>  <VDistEq>
3.6876404

>  <VDistMa>
9.8933134

>  <vdw_area>
438.27847

>  <vdw_vol>
558.98431

>  <vsa_acc>
12.518781

>  <vsa_acid>
0

>  <vsa_base>
0

>  <vsa_don>
0

>  <vsa_hyd>
167.67766

>  <vsa_other>
44.125496

>  <vsa_pol>
161.75491

>  <Weight>
504.43799

>  <weinerPath>
3461

>  <weinerPol>
65

>  <zagreb>
178

$$$$