Oc1ccc(cc1)CC(NC(=O)C(NC(=O)C(NC(=O)C(N)CC(O)=O)CCCN=C(N)/N)C(C)C)C(=O)NC(C(CC)C)C(=O)NC(Cc1nc[nH]c1)C(=O)N1CCCC1C(=O)NC(Cc1ccccc1)C(O)=O
  MOE2013           2D

 75 78  0  0  1  0  0  0  0  0999 V2000
    0.0000    0.0000    0.0000 O   0  0  0  0  0  0  0  0  0  0  0  0
    0.7500    1.2990    0.0000 C   0  0  0  0  0  0  0  0  0  0  0  0
   -0.0010    2.5980    0.0000 C   0  0  0  0  0  0  0  0  0  0  0  0
    0.7490    3.8970    0.0000 C   0  0  0  0  0  0  0  0  0  0  0  0
    2.2490    3.8980    0.0000 C   0  0  0  0  0  0  0  0  0  0  0  0
    2.9990    2.5990    0.0000 C   0  0  0  0  0  0  0  0  0  0  0  0
    2.2500    1.3000    0.0000 C   0  0  0  0  0  0  0  0  0  0  0  0
    2.9980    5.1970    0.0000 C   0  0  0  0  0  0  0  0  0  0  0  0
    2.2480    6.4960    0.0000 C   0  0  3  0  0  0  0  0  0  0  0  0
    2.9970    7.7950    0.0000 N   0  0  0  0  0  0  0  0  0  0  0  0
    4.4970    7.7960    0.0000 C   0  0  0  0  0  0  0  0  0  0  0  0
    5.2480    6.4970    0.0000 O   0  0  0  0  0  0  0  0  0  0  0  0
    5.2470    9.0950    0.0000 C   0  0  3  0  0  0  0  0  0  0  0  0
    6.7470    9.0950    0.0000 N   0  0  0  0  0  0  0  0  0  0  0  0
    7.4970   10.3950    0.0000 C   0  0  0  0  0  0  0  0  0  0  0  0
    6.7460   11.6940    0.0000 O   0  0  0  0  0  0  0  0  0  0  0  0
    8.9970   10.3950    0.0000 C   0  0  3  0  0  0  0  0  0  0  0  0
    9.7470    9.0960    0.0000 N   0  0  0  0  0  0  0  0  0  0  0  0
   11.2470    9.0970    0.0000 C   0  0  0  0  0  0  0  0  0  0  0  0
   11.9970   10.3960    0.0000 O   0  0  0  0  0  0  0  0  0  0  0  0
   11.9970    7.7980    0.0000 C   0  0  3  0  0  0  0  0  0  0  0  0
   13.4970    7.7990    0.0000 N   0  0  0  0  0  0  0  0  0  0  0  0
   11.2480    6.4990    0.0000 C   0  0  0  0  0  0  0  0  0  0  0  0
   11.9980    5.2000    0.0000 C   0  0  0  0  0  0  0  0  0  0  0  0
   11.2490    3.9010    0.0000 O   0  0  0  0  0  0  0  0  0  0  0  0
   13.4980    5.2010    0.0000 O   0  0  0  0  0  0  0  0  0  0  0  0
    9.7460   11.6950    0.0000 C   0  0  0  0  0  0  0  0  0  0  0  0
    8.9960   12.9930    0.0000 C   0  0  0  0  0  0  0  0  0  0  0  0
    9.7450   14.2930    0.0000 C   0  0  0  0  0  0  0  0  0  0  0  0
    8.9950   15.5910    0.0000 N   0  0  0  0  0  0  0  0  0  0  0  0
    9.7440   16.8910    0.0000 C   0  0  0  0  0  0  0  0  0  0  0  0
    8.9940   18.1890    0.0000 N   0  0  0  0  0  0  0  0  0  0  0  0
   11.2440   16.8910    0.0000 N   0  0  0  0  0  0  0  0  0  0  0  0
    4.4970   10.3940    0.0000 C   0  0  0  0  0  0  0  0  0  0  0  0
    5.2460   11.6930    0.0000 C   0  0  0  0  0  0  0  0  0  0  0  0
    2.9970   10.3930    0.0000 C   0  0  0  0  0  0  0  0  0  0  0  0
    0.7480    6.4950    0.0000 C   0  0  0  0  0  0  0  0  0  0  0  0
   -0.0020    5.1960    0.0000 O   0  0  0  0  0  0  0  0  0  0  0  0
   -0.0030    7.7940    0.0000 N   0  0  0  0  0  0  0  0  0  0  0  0
   -1.5030    7.7940    0.0000 C   0  0  3  0  0  0  0  0  0  0  0  0
   -2.2520    6.4940    0.0000 C   0  0  3  0  0  0  0  0  0  0  0  0
   -1.5020    5.1960    0.0000 C   0  0  0  0  0  0  0  0  0  0  0  0
   -2.2510    3.8960    0.0000 C   0  0  0  0  0  0  0  0  0  0  0  0
   -3.7520    6.4940    0.0000 C   0  0  0  0  0  0  0  0  0  0  0  0
   -2.2530    9.0930    0.0000 C   0  0  0  0  0  0  0  0  0  0  0  0
   -1.5030   10.3920    0.0000 O   0  0  0  0  0  0  0  0  0  0  0  0
   -3.7530    9.0920    0.0000 N   0  0  0  0  0  0  0  0  0  0  0  0
   -4.5030   10.3910    0.0000 C   0  0  3  0  0  0  0  0  0  0  0  0
   -6.0030   10.3900    0.0000 C   0  0  0  0  0  0  0  0  0  0  0  0
   -6.7530    9.0910    0.0000 C   0  0  0  0  0  0  0  0  0  0  0  0
   -8.2450    8.9340    0.0000 N   0  0  0  0  0  0  0  0  0  0  0  0
   -8.5560    7.4660    0.0000 C   0  0  0  0  0  0  0  0  0  0  0  0
   -7.2570    6.7170    0.0000 N   0  0  0  0  0  0  0  0  0  0  0  0
   -6.1420    7.7210    0.0000 C   0  0  0  0  0  0  0  0  0  0  0  0
   -3.7540   11.6900    0.0000 C   0  0  0  0  0  0  0  0  0  0  0  0
   -2.2540   11.6910    0.0000 O   0  0  0  0  0  0  0  0  0  0  0  0
   -4.5040   12.9890    0.0000 N   0  0  0  0  0  0  0  0  0  0  0  0
   -3.8950   14.3590    0.0000 C   0  0  0  0  0  0  0  0  0  0  0  0
   -5.0100   15.3630    0.0000 C   0  0  0  0  0  0  0  0  0  0  0  0
   -6.3080   14.6120    0.0000 C   0  0  0  0  0  0  0  0  0  0  0  0
   -5.9960   13.1450    0.0000 C   0  0  3  0  0  0  0  0  0  0  0  0
   -6.9990   12.0300    0.0000 C   0  0  0  0  0  0  0  0  0  0  0  0
   -6.5350   10.6040    0.0000 O   0  0  0  0  0  0  0  0  0  0  0  0
   -8.4670   12.3420    0.0000 N   0  0  0  0  0  0  0  0  0  0  0  0
   -8.9310   13.7680    0.0000 C   0  0  3  0  0  0  0  0  0  0  0  0
   -7.9270   14.8830    0.0000 C   0  0  0  0  0  0  0  0  0  0  0  0
   -8.3910   16.3090    0.0000 C   0  0  0  0  0  0  0  0  0  0  0  0
   -7.3880   17.4250    0.0000 C   0  0  0  0  0  0  0  0  0  0  0  0
   -7.8520   18.8510    0.0000 C   0  0  0  0  0  0  0  0  0  0  0  0
   -9.3190   19.1620    0.0000 C   0  0  0  0  0  0  0  0  0  0  0  0
  -10.3230   18.0470    0.0000 C   0  0  0  0  0  0  0  0  0  0  0  0
   -9.8590   16.6210    0.0000 C   0  0  0  0  0  0  0  0  0  0  0  0
  -10.3980   14.0790    0.0000 C   0  0  0  0  0  0  0  0  0  0  0  0
  -11.4010   12.9640    0.0000 O   0  0  0  0  0  0  0  0  0  0  0  0
  -10.8620   15.5060    0.0000 O   0  0  0  0  0  0  0  0  0  0  0  0
  1  2  1  0  0  0  0
  2  3  1  0  0  0  0
  2  7  2  0  0  0  0
  3  4  2  0  0  0  0
  4  5  1  0  0  0  0
  5  6  2  0  0  0  0
  5  8  1  0  0  0  0
  6  7  1  0  0  0  0
  8  9  1  0  0  0  0
  9 10  1  0  0  0  0
  9 37  1  0  0  0  0
 10 11  1  0  0  0  0
 11 12  2  0  0  0  0
 11 13  1  0  0  0  0
 13 14  1  0  0  0  0
 13 34  1  0  0  0  0
 14 15  1  0  0  0  0
 15 16  2  0  0  0  0
 15 17  1  0  0  0  0
 17 18  1  0  0  0  0
 17 27  1  0  0  0  0
 18 19  1  0  0  0  0
 19 20  2  0  0  0  0
 19 21  1  0  0  0  0
 21 22  1  0  0  0  0
 21 23  1  0  0  0  0
 23 24  1  0  0  0  0
 24 25  1  0  0  0  0
 24 26  2  0  0  0  0
 27 28  1  0  0  0  0
 28 29  1  0  0  0  0
 29 30  1  0  0  0  0
 30 31  2  3  0  0  0
 31 32  1  0  0  0  0
 31 33  1  0  0  0  0
 34 35  1  0  0  0  0
 34 36  1  0  0  0  0
 37 38  2  0  0  0  0
 37 39  1  0  0  0  0
 39 40  1  0  0  0  0
 40 41  1  0  0  0  0
 40 45  1  0  0  0  0
 41 42  1  0  0  0  0
 41 44  1  0  0  0  0
 42 43  1  0  0  0  0
 45 46  2  0  0  0  0
 45 47  1  0  0  0  0
 47 48  1  0  0  0  0
 48 49  1  0  0  0  0
 48 55  1  0  0  0  0
 49 50  1  0  0  0  0
 50 51  1  0  0  0  0
 50 54  2  0  0  0  0
 51 52  2  0  0  0  0
 52 53  1  0  0  0  0
 53 54  1  0  0  0  0
 55 56  2  0  0  0  0
 55 57  1  0  0  0  0
 57 58  1  0  0  0  0
 57 61  1  0  0  0  0
 58 59  1  0  0  0  0
 59 60  1  0  0  0  0
 60 61  1  0  0  0  0
 61 62  1  0  0  0  0
 62 63  2  0  0  0  0
 62 64  1  0  0  0  0
 64 65  1  0  0  0  0
 65 66  1  0  0  0  0
 65 73  1  0  0  0  0
 66 67  1  0  0  0  0
 67 68  1  0  0  0  0
 67 72  2  0  0  0  0
 68 69  2  0  0  0  0
 69 70  1  0  0  0  0
 70 71  2  0  0  0  0
 71 72  1  0  0  0  0
 73 74  1  0  0  0  0
 73 75  2  0  0  0  0
M  END
>  <Index>
1202

>  <ID>
HT2432

>  <class>
0

>  <apol>
159.2663

>  <ast_fraglike>
0

>  <ast_fraglike_ext>
0

>  <ast_violation>
3

>  <ast_violation_ext>
5

>  <a_acc>
16

>  <a_acid>
0

>  <a_aro>
17

>  <a_base>
0

>  <a_count>
146

>  <a_don>
16

>  <a_donacc>
32

>  <a_heavy>
75

>  <a_hyd>
39

>  <a_IC>
239.76427

>  <a_ICM>
1.642221

>  <a_nB>
0

>  <a_nBr>
0

>  <a_nC>
50

>  <a_nCl>
0

>  <a_nF>
0

>  <a_nH>
71

>  <a_nI>
0

>  <a_nN>
13

>  <a_nO>
12

>  <a_nP>
0

>  <a_nS>
0

>  <balabanJ>
1.5416447

>  <BCUT_PEOE_0>
-2.6890402

>  <BCUT_PEOE_1>
-0.52913481

>  <BCUT_PEOE_2>
0.56737262

>  <BCUT_PEOE_3>
2.7423968

>  <BCUT_SLOGP_0>
-2.8868735

>  <BCUT_SLOGP_1>
-0.52180815

>  <BCUT_SLOGP_2>
0.58015335

>  <BCUT_SLOGP_3>
2.6915231

>  <BCUT_SMR_0>
-2.4389682

>  <BCUT_SMR_1>
-0.38263762

>  <BCUT_SMR_2>
0.69012517

>  <BCUT_SMR_3>
2.9942548

>  <bpol>
93.499695

>  <b_1rotN>
30

>  <b_1rotR>
0.38461539

>  <b_ar>
17

>  <b_count>
149

>  <b_double>
10

>  <b_heavy>
78

>  <b_max1len>
6

>  <b_rotN>
36

>  <b_rotR>
0.46153846

>  <b_single>
122

>  <b_triple>
0

>  <chi0>
55.354069

>  <chi0v>
42.492096

>  <chi0v_C>
30.902531

>  <chi0_C>
33.412754

>  <chi1>
35.571606

>  <chi1v>
24.755598

>  <chi1v_C>
15.707903

>  <chi1_C>
18.12096

>  <chiral>
9

>  <chiral_u>
9

>  <density>
0.76394558

>  <diameter>
29

>  <FCharge>
0

>  <GCUT_PEOE_0>
-0.84795433

>  <GCUT_PEOE_1>
-0.39652658

>  <GCUT_PEOE_2>
0.076546676

>  <GCUT_PEOE_3>
3.2263544

>  <GCUT_SLOGP_0>
-1.3840969

>  <GCUT_SLOGP_1>
-0.39848605

>  <GCUT_SLOGP_2>
0.11597365

>  <GCUT_SLOGP_3>
3.1505826

>  <GCUT_SMR_0>
-0.53199685

>  <GCUT_SMR_1>
-0.22178943

>  <GCUT_SMR_2>
0.19305076

>  <GCUT_SMR_3>
3.4607279

>  <Kier1>
67.504929

>  <Kier2>
35.096653

>  <Kier3>
23.414062

>  <KierA1>
50.576385

>  <KierA2>
26.186762

>  <KierA3>
17.420025

>  <KierFlex>
17.65909

>  <lip_acc>
25

>  <lip_don>
16

>  <lip_druglike>
0

>  <lip_violation>
3

>  <logP(o/w)>
0.0020000001

>  <logS>
-7.39398

>  <mr>
27.560158

>  <mutagenic>
0

>  <nmol>
1

>  <opr_brigid>
23

>  <opr_leadlike>
0

>  <opr_nring>
4

>  <opr_nrot>
30

>  <opr_violation>
4

>  <PC+>
0

>  <PC->
0

>  <PEOE_PC+>
8.7384253

>  <PEOE_PC->
-8.7384253

>  <PEOE_RPC+>
0.032328699

>  <PEOE_RPC->
0.042356219

>  <PEOE_VSA+0>
214.25763

>  <PEOE_VSA+1>
133.54999

>  <PEOE_VSA+2>
43.525135

>  <PEOE_VSA+3>
110.49072

>  <PEOE_VSA+4>
121.61923

>  <PEOE_VSA+5>
29.416998

>  <PEOE_VSA+6>
0

>  <PEOE_VSA-0>
63.73214

>  <PEOE_VSA-1>
169.47635

>  <PEOE_VSA-2>
0

>  <PEOE_VSA-3>
0

>  <PEOE_VSA-4>
5.6825762

>  <PEOE_VSA-5>
127.78487

>  <PEOE_VSA-6>
44.214214

>  <PEOE_VSA_FHYD>
0.69098198

>  <PEOE_VSA_FNEG>
0.38626575

>  <PEOE_VSA_FPNEG>
0.1670333

>  <PEOE_VSA_FPOL>
0.30901805

>  <PEOE_VSA_FPOS>
0.61373425

>  <PEOE_VSA_FPPOS>
0.14198473

>  <PEOE_VSA_HYD>
735.03198

>  <PEOE_VSA_NEG>
410.89014

>  <PEOE_VSA_PNEG>
177.68166

>  <PEOE_VSA_POL>
328.7179

>  <PEOE_VSA_POS>
652.85968

>  <PEOE_VSA_PPOS>
151.03624

>  <petitjean>
0.48275861

>  <petitjeanSC>
0.93333334

>  <Q_PC+>
0

>  <Q_PC->
0

>  <Q_RPC+>
0

>  <Q_RPC->
0

>  <Q_VSA_FHYD>
1

>  <Q_VSA_FNEG>
0

>  <Q_VSA_FPNEG>
0

>  <Q_VSA_FPOL>
0

>  <Q_VSA_FPOS>
1

>  <Q_VSA_FPPOS>
0

>  <Q_VSA_HYD>
1063.7499

>  <Q_VSA_NEG>
0

>  <Q_VSA_PNEG>
0

>  <Q_VSA_POL>
0

>  <Q_VSA_POS>
1063.7499

>  <Q_VSA_PPOS>
0

>  <radius>
15

>  <reactive>
0

>  <rings>
4

>  <RPC+>
0

>  <RPC->
0

>  <rsynth>
1

>  <SlogP>
-1.31479

>  <SlogP_VSA0>
232.1413

>  <SlogP_VSA1>
74.111351

>  <SlogP_VSA2>
263.40121

>  <SlogP_VSA3>
87.649612

>  <SlogP_VSA4>
17.94949

>  <SlogP_VSA5>
73.390747

>  <SlogP_VSA6>
0

>  <SlogP_VSA7>
192.78854

>  <SlogP_VSA8>
113.21043

>  <SlogP_VSA9>
138.54749

>  <SMR>
27.26355

>  <SMR_VSA0>
214.75995

>  <SMR_VSA1>
62.080601

>  <SMR_VSA2>
184.44208

>  <SMR_VSA3>
46.227074

>  <SMR_VSA4>
98.691559

>  <SMR_VSA5>
362.60419

>  <SMR_VSA6>
91.080666

>  <SMR_VSA7>
133.30406

>  <TPSA>
408.84

>  <VAdjEq>
0.18289405

>  <VAdjMa>
7.2854023

>  <VDistEq>
4.6005425

>  <VDistMa>
12.202919

>  <vdw_area>
1063.7499

>  <vdw_vol>
1369.4653

>  <vsa_acc>
100.65102

>  <vsa_acid>
0

>  <vsa_base>
0

>  <vsa_don>
69.580437

>  <vsa_hyd>
540.67383

>  <vsa_other>
160.53581

>  <vsa_pol>
267.17371

>  <Weight>
1046.197

>  <weinerPath>
31556

>  <weinerPol>
112

>  <zagreb>
368

$$$$