O(C(=O)c1ccccc1)Cc1ccccc1
  MOE2013           2D

 16 17  0  0  0  0  0  0  0  0999 V2000
    0.0000    0.0000    0.0000 O   0  0  0  0  0  0  0  0  0  0  0  0
   -1.5000   -0.0020    0.0000 C   0  0  0  0  0  0  0  0  0  0  0  0
   -2.2520    1.2960    0.0000 O   0  0  0  0  0  0  0  0  0  0  0  0
   -2.2480   -1.3030    0.0000 C   0  0  0  0  0  0  0  0  0  0  0  0
   -1.4960   -2.6000    0.0000 C   0  0  0  0  0  0  0  0  0  0  0  0
   -2.2440   -3.9010    0.0000 C   0  0  0  0  0  0  0  0  0  0  0  0
   -3.7440   -3.9030    0.0000 C   0  0  0  0  0  0  0  0  0  0  0  0
   -4.4960   -2.6050    0.0000 C   0  0  0  0  0  0  0  0  0  0  0  0
   -3.7480   -1.3050    0.0000 C   0  0  0  0  0  0  0  0  0  0  0  0
    0.7480    1.3000    0.0000 C   0  0  0  0  0  0  0  0  0  0  0  0
    2.2480    1.3030    0.0000 C   0  0  0  0  0  0  0  0  0  0  0  0
    3.0000    0.0050    0.0000 C   0  0  0  0  0  0  0  0  0  0  0  0
    4.5000    0.0070    0.0000 C   0  0  0  0  0  0  0  0  0  0  0  0
    5.2480    1.3070    0.0000 C   0  0  0  0  0  0  0  0  0  0  0  0
    4.4960    2.6050    0.0000 C   0  0  0  0  0  0  0  0  0  0  0  0
    2.9960    2.6030    0.0000 C   0  0  0  0  0  0  0  0  0  0  0  0
  1  2  1  0  0  0  0
  1 10  1  0  0  0  0
  2  3  2  0  0  0  0
  2  4  1  0  0  0  0
  4  5  1  0  0  0  0
  4  9  2  0  0  0  0
  5  6  2  0  0  0  0
  6  7  1  0  0  0  0
  7  8  2  0  0  0  0
  8  9  1  0  0  0  0
 10 11  1  0  0  0  0
 11 12  1  0  0  0  0
 11 16  2  0  0  0  0
 12 13  2  0  0  0  0
 13 14  1  0  0  0  0
 14 15  2  0  0  0  0
 15 16  1  0  0  0  0
M  END
>  <Index>
128

>  <ID>
HT0258

>  <class>
0

>  <apol>
34.245518

>  <ast_fraglike>
0

>  <ast_fraglike_ext>
0

>  <ast_violation>
1

>  <ast_violation_ext>
1

>  <a_acc>
1

>  <a_acid>
0

>  <a_aro>
12

>  <a_base>
0

>  <a_count>
28

>  <a_don>
0

>  <a_donacc>
1

>  <a_heavy>
16

>  <a_hyd>
13

>  <a_IC>
36.283421

>  <a_ICM>
1.2958364

>  <a_nB>
0

>  <a_nBr>
0

>  <a_nC>
14

>  <a_nCl>
0

>  <a_nF>
0

>  <a_nH>
12

>  <a_nI>
0

>  <a_nN>
0

>  <a_nO>
2

>  <a_nP>
0

>  <a_nS>
0

>  <balabanJ>
1.6450418

>  <BCUT_PEOE_0>
-2.3133991

>  <BCUT_PEOE_1>
-0.64752108

>  <BCUT_PEOE_2>
0.69764364

>  <BCUT_PEOE_3>
2.3088083

>  <BCUT_SLOGP_0>
-2.2145748

>  <BCUT_SLOGP_1>
-0.53807992

>  <BCUT_SLOGP_2>
0.80591482

>  <BCUT_SLOGP_3>
2.4296796

>  <BCUT_SMR_0>
-2.0373571

>  <BCUT_SMR_1>
-0.49986199

>  <BCUT_SMR_2>
0.85431087

>  <BCUT_SMR_3>
2.5864599

>  <bpol>
15.992484

>  <b_1rotN>
3

>  <b_1rotR>
0.17647059

>  <b_ar>
12

>  <b_count>
29

>  <b_double>
1

>  <b_heavy>
17

>  <b_max1len>
2

>  <b_rotN>
4

>  <b_rotR>
0.23529412

>  <b_single>
16

>  <b_triple>
0

>  <chi0>
11.217332

>  <chi0v>
8.7971058

>  <chi0v_C>
7.9806094

>  <chi0_C>
9.5102253

>  <chi1>
7.8601732

>  <chi1v>
5.1218438

>  <chi1v_C>
4.4249206

>  <chi1_C>
6.3745747

>  <chiral>
0

>  <chiral_u>
0

>  <density>
0.69694072

>  <diameter>
10

>  <FCharge>
0

>  <GCUT_PEOE_0>
-0.7547701

>  <GCUT_PEOE_1>
-0.38948825

>  <GCUT_PEOE_2>
0.079449371

>  <GCUT_PEOE_3>
2.2285962

>  <GCUT_SLOGP_0>
-0.80145705

>  <GCUT_SLOGP_1>
-0.26386139

>  <GCUT_SLOGP_2>
0.16445385

>  <GCUT_SLOGP_3>
2.3510928

>  <GCUT_SMR_0>
-0.47692269

>  <GCUT_SMR_1>
-0.21605732

>  <GCUT_SMR_2>
0.19305076

>  <GCUT_SMR_3>
2.5138018

>  <Kier1>
12.456747

>  <Kier2>
6.6666665

>  <Kier3>
4.0767999

>  <KierA1>
8.4477739

>  <KierA2>
4.3913107

>  <KierA3>
2.626894

>  <KierFlex>
2.3185499

>  <lip_acc>
2

>  <lip_don>
0

>  <lip_druglike>
1

>  <lip_violation>
0

>  <logP(o/w)>
3.635

>  <logS>
-3.5345099

>  <mr>
6.4551845

>  <mutagenic>
0

>  <nmol>
1

>  <opr_brigid>
12

>  <opr_leadlike>
1

>  <opr_nring>
2

>  <opr_nrot>
3

>  <opr_violation>
0

>  <PC+>
0

>  <PC->
0

>  <PEOE_PC+>
1.1661115

>  <PEOE_PC->
-1.1661115

>  <PEOE_RPC+>
0.25221744

>  <PEOE_RPC->
0.2630282

>  <PEOE_VSA+0>
2.2085397

>  <PEOE_VSA+1>
66.135925

>  <PEOE_VSA+2>
0

>  <PEOE_VSA+3>
0

>  <PEOE_VSA+4>
0

>  <PEOE_VSA+5>
14.708499

>  <PEOE_VSA+6>
0

>  <PEOE_VSA-0>
26.718348

>  <PEOE_VSA-1>
98.03923

>  <PEOE_VSA-2>
0

>  <PEOE_VSA-3>
0

>  <PEOE_VSA-4>
0

>  <PEOE_VSA-5>
13.566921

>  <PEOE_VSA-6>
2.503756

>  <PEOE_VSA_FHYD>
0.86252004

>  <PEOE_VSA_FNEG>
0.62903112

>  <PEOE_VSA_FPNEG>
0.071782157

>  <PEOE_VSA_FPOL>
0.13747993

>  <PEOE_VSA_FPOS>
0.37096888

>  <PEOE_VSA_FPPOS>
0.065697782

>  <PEOE_VSA_HYD>
193.10205

>  <PEOE_VSA_NEG>
140.82826

>  <PEOE_VSA_PNEG>
16.070677

>  <PEOE_VSA_POL>
30.779177

>  <PEOE_VSA_POS>
83.052963

>  <PEOE_VSA_PPOS>
14.708499

>  <petitjean>
0.5

>  <petitjeanSC>
1

>  <Q_PC+>
0

>  <Q_PC->
0

>  <Q_RPC+>
0

>  <Q_RPC->
0

>  <Q_VSA_FHYD>
1

>  <Q_VSA_FNEG>
0

>  <Q_VSA_FPNEG>
0

>  <Q_VSA_FPOL>
0

>  <Q_VSA_FPOS>
1

>  <Q_VSA_FPPOS>
0

>  <Q_VSA_HYD>
223.88123

>  <Q_VSA_NEG>
0

>  <Q_VSA_PNEG>
0

>  <Q_VSA_POL>
0

>  <Q_VSA_POS>
223.88123

>  <Q_VSA_PPOS>
0

>  <radius>
5

>  <reactive>
0

>  <rings>
2

>  <RPC+>
0

>  <RPC->
0

>  <rsynth>
1

>  <SlogP>
3.3099999

>  <SlogP_VSA0>
0

>  <SlogP_VSA1>
7.7454643

>  <SlogP_VSA2>
10.999887

>  <SlogP_VSA3>
0

>  <SlogP_VSA4>
30.233366

>  <SlogP_VSA5>
0

>  <SlogP_VSA6>
0

>  <SlogP_VSA7>
176.43184

>  <SlogP_VSA8>
0

>  <SlogP_VSA9>
20.926258

>  <SMR>
6.22085

>  <SMR_VSA0>
34.862103

>  <SMR_VSA1>
0

>  <SMR_VSA2>
0

>  <SMR_VSA3>
6.37115

>  <SMR_VSA4>
0

>  <SMR_VSA5>
197.35811

>  <SMR_VSA6>
7.7454643

>  <SMR_VSA7>
0

>  <TPSA>
26.299999

>  <VAdjEq>
0.56510133

>  <VAdjMa>
5.0874629

>  <VDistEq>
3.0992393

>  <VDistMa>
7.6620827

>  <vdw_area>
223.88123

>  <vdw_vol>
304.54239

>  <vsa_acc>
13.566921

>  <vsa_acid>
0

>  <vsa_base>
0

>  <vsa_don>
0

>  <vsa_hyd>
184.5605

>  <vsa_other>
17.212255

>  <vsa_pol>
13.566921

>  <Weight>
212.248

>  <weinerPath>
496

>  <weinerPol>
19

>  <zagreb>
76

$$$$