O=C(NC(=O)N)C(C(CC)C)CC
  MOE2013           2D

 13 12  0  0  1  0  0  0  0  0999 V2000
    0.0000    0.0000    0.0000 O   0  0  0  0  0  0  0  0  0  0  0  0
    0.0080    1.5000    0.0000 C   0  0  0  0  0  0  0  0  0  0  0  0
    1.3100    2.2430    0.0000 N   0  0  0  0  0  0  0  0  0  0  0  0
    2.6060    1.4870    0.0000 C   0  0  0  0  0  0  0  0  0  0  0  0
    2.5980   -0.0130    0.0000 O   0  0  0  0  0  0  0  0  0  0  0  0
    3.9080    2.2300    0.0000 N   0  0  0  0  0  0  0  0  0  0  0  0
   -1.2880    2.2570    0.0000 C   0  0  3  0  0  0  0  0  0  0  0  0
   -2.5900    1.5130    0.0000 C   0  0  3  0  0  0  0  0  0  0  0  0
   -3.8860    2.2700    0.0000 C   0  0  0  0  0  0  0  0  0  0  0  0
   -5.1880    1.5260    0.0000 C   0  0  0  0  0  0  0  0  0  0  0  0
   -2.5980    0.0130    0.0000 C   0  0  0  0  0  0  0  0  0  0  0  0
   -1.2800    3.7570    0.0000 C   0  0  0  0  0  0  0  0  0  0  0  0
   -2.5750    4.5130    0.0000 C   0  0  0  0  0  0  0  0  0  0  0  0
  1  2  2  0  0  0  0
  2  3  1  0  0  0  0
  2  7  1  0  0  0  0
  3  4  1  0  0  0  0
  4  5  2  0  0  0  0
  4  6  1  0  0  0  0
  7  8  1  0  0  0  0
  7 12  1  0  0  0  0
  8  9  1  0  0  0  0
  8 11  1  0  0  0  0
  9 10  1  0  0  0  0
 12 13  1  0  0  0  0
M  END
>  <Index>
1255

>  <ID>
HT2804

>  <class>
0

>  <apol>
31.646275

>  <ast_fraglike>
1

>  <ast_fraglike_ext>
0

>  <ast_violation>
0

>  <ast_violation_ext>
1

>  <a_acc>
2

>  <a_acid>
0

>  <a_aro>
0

>  <a_base>
0

>  <a_count>
31

>  <a_don>
2

>  <a_donacc>
4

>  <a_heavy>
13

>  <a_hyd>
7

>  <a_IC>
45.992111

>  <a_ICM>
1.4836165

>  <a_nB>
0

>  <a_nBr>
0

>  <a_nC>
9

>  <a_nCl>
0

>  <a_nF>
0

>  <a_nH>
18

>  <a_nI>
0

>  <a_nN>
2

>  <a_nO>
2

>  <a_nP>
0

>  <a_nS>
0

>  <balabanJ>
4.0754986

>  <BCUT_PEOE_0>
-2.708075

>  <BCUT_PEOE_1>
-0.42814201

>  <BCUT_PEOE_2>
0.34731647

>  <BCUT_PEOE_3>
2.6919639

>  <BCUT_SLOGP_0>
-2.7152779

>  <BCUT_SLOGP_1>
-0.27455905

>  <BCUT_SLOGP_2>
0.34016827

>  <BCUT_SLOGP_3>
2.7647743

>  <BCUT_SMR_0>
-2.4678457

>  <BCUT_SMR_1>
-0.24142565

>  <BCUT_SMR_2>
0.45784131

>  <BCUT_SMR_3>
2.9336791

>  <bpol>
21.593725

>  <b_1rotN>
4

>  <b_1rotR>
0.33333334

>  <b_ar>
0

>  <b_count>
30

>  <b_double>
2

>  <b_heavy>
12

>  <b_max1len>
7

>  <b_rotN>
6

>  <b_rotR>
0.5

>  <b_single>
28

>  <b_triple>
0

>  <chi0>
10.430721

>  <chi0v>
8.4627609

>  <chi0v_C>
6.5689139

>  <chi0_C>
6.7236147

>  <chi1>
6.0232744

>  <chi1v>
4.6269922

>  <chi1v_C>
3.430069

>  <chi1_C>
3.4747272

>  <chiral>
2

>  <chiral_u>
2

>  <density>
0.69738889

>  <diameter>
7

>  <FCharge>
0

>  <GCUT_PEOE_0>
-0.80180669

>  <GCUT_PEOE_1>
-0.34415755

>  <GCUT_PEOE_2>
0.0065102889

>  <GCUT_PEOE_3>
2.5119493

>  <GCUT_SLOGP_0>
-1.3709254

>  <GCUT_SLOGP_1>
-0.26485381

>  <GCUT_SLOGP_2>
0.054200001

>  <GCUT_SLOGP_3>
2.5564654

>  <GCUT_SMR_0>
-0.53311551

>  <GCUT_SMR_1>
-0.18974191

>  <GCUT_SMR_2>
0.10393449

>  <GCUT_SMR_3>
2.7302849

>  <Kier1>
13

>  <Kier2>
6.4533334

>  <Kier3>
4.6875

>  <KierA1>
10.244601

>  <KierA2>
4.974719

>  <KierA3>
3.546268

>  <KierFlex>
3.9203088

>  <lip_acc>
4

>  <lip_don>
3

>  <lip_druglike>
1

>  <lip_violation>
0

>  <logP(o/w)>
1.337

>  <logS>
-2.5694101

>  <mr>
5.1936998

>  <mutagenic>
0

>  <nmol>
1

>  <opr_brigid>
0

>  <opr_leadlike>
1

>  <opr_nring>
0

>  <opr_nrot>
4

>  <opr_violation>
0

>  <PC+>
0

>  <PC->
0

>  <PEOE_PC+>
1.4713794

>  <PEOE_PC->
-1.4713794

>  <PEOE_RPC+>
0.21749055

>  <PEOE_RPC->
0.23902382

>  <PEOE_VSA+0>
63.980789

>  <PEOE_VSA+1>
0

>  <PEOE_VSA+2>
0

>  <PEOE_VSA+3>
25.857038

>  <PEOE_VSA+4>
12.949531

>  <PEOE_VSA+5>
0

>  <PEOE_VSA+6>
17.440542

>  <PEOE_VSA-0>
8.701313

>  <PEOE_VSA-1>
64.944344

>  <PEOE_VSA-2>
0

>  <PEOE_VSA-3>
0

>  <PEOE_VSA-4>
13.566921

>  <PEOE_VSA-5>
13.703812

>  <PEOE_VSA-6>
6.6511192

>  <PEOE_VSA_FHYD>
0.71767682

>  <PEOE_VSA_FNEG>
0.47221106

>  <PEOE_VSA_FPNEG>
0.14891368

>  <PEOE_VSA_FPOL>
0.28232318

>  <PEOE_VSA_FPOS>
0.52778894

>  <PEOE_VSA_FPPOS>
0.1334095

>  <PEOE_VSA_HYD>
163.48349

>  <PEOE_VSA_NEG>
107.56751

>  <PEOE_VSA_PNEG>
33.921852

>  <PEOE_VSA_POL>
64.311928

>  <PEOE_VSA_POS>
120.22791

>  <PEOE_VSA_PPOS>
30.390074

>  <petitjean>
0.42857143

>  <petitjeanSC>
0.75

>  <Q_PC+>
0

>  <Q_PC->
0

>  <Q_RPC+>
0

>  <Q_RPC->
0

>  <Q_VSA_FHYD>
1

>  <Q_VSA_FNEG>
0

>  <Q_VSA_FPNEG>
0

>  <Q_VSA_FPOL>
0

>  <Q_VSA_FPOS>
1

>  <Q_VSA_FPPOS>
0

>  <Q_VSA_HYD>
227.79541

>  <Q_VSA_NEG>
0

>  <Q_VSA_PNEG>
0

>  <Q_VSA_POL>
0

>  <Q_VSA_POS>
227.79541

>  <Q_VSA_PPOS>
0

>  <radius>
4

>  <reactive>
0

>  <rings>
0

>  <RPC+>
0

>  <RPC->
0

>  <rsynth>
0.30769232

>  <SlogP>
1.2536

>  <SlogP_VSA0>
50.90794

>  <SlogP_VSA1>
10.088739

>  <SlogP_VSA2>
23.862217

>  <SlogP_VSA3>
0

>  <SlogP_VSA4>
8.8215923

>  <SlogP_VSA5>
0

>  <SlogP_VSA6>
0

>  <SlogP_VSA7>
0

>  <SlogP_VSA8>
37.736813

>  <SlogP_VSA9>
123.84026

>  <SMR>
5.09621

>  <SMR_VSA0>
47.724434

>  <SMR_VSA1>
0

>  <SMR_VSA2>
26.832342

>  <SMR_VSA3>
0

>  <SMR_VSA4>
32.897186

>  <SMR_VSA5>
37.736813

>  <SMR_VSA6>
10.088739

>  <SMR_VSA7>
99.978043

>  <TPSA>
72.190002

>  <VAdjEq>
0.5894835

>  <VAdjMa>
4.5849624

>  <VDistEq>
2.6380475

>  <VDistMa>
7.1068063

>  <vdw_area>
227.79541

>  <vdw_vol>
267.0748

>  <vsa_acc>
27.133842

>  <vsa_acid>
0

>  <vsa_base>
0

>  <vsa_don>
23.425066

>  <vsa_hyd>
124.25941

>  <vsa_other>
30.390074

>  <vsa_pol>
50.558907

>  <Weight>
186.25499

>  <weinerPath>
260

>  <weinerPol>
16

>  <zagreb>
54

$$$$