O1[C@@H]2C[C@H](OC)[C@@]3([C@H]([C@H](OC(=O)c4ccccc4)[C@]4(O)C[C@H](OC(=O)[C@H](O)[C@@H](NC(OC(C)(C)C)=O)c5ccccc5)C(=C([C@@H](OC)C3=O)C4(C)C)C)[C@]2(OC(=O)C)C1)C
  MOE2013           2D

 60 65  0  0  1  0  0  0  0  0999 V2000
    0.0000    0.0000    0.0000 O   0  0  0  0  0  0  0  0  0  0  0  0
    1.2410    0.8430    0.0000 C   0  0  2  0  0  0  0  0  0  0  0  0
    1.8930    2.1940    0.0000 C   0  0  0  0  0  0  0  0  0  0  0  0
    3.3890    2.3040    0.0000 C   0  0  2  0  0  0  0  0  0  0  0  0
    3.5670    3.7930    0.0000 O   0  0  0  0  0  0  0  0  0  0  0  0
    2.3660    4.6920    0.0000 C   0  0  0  0  0  0  0  0  0  0  0  0
    4.2150    0.9890    0.0000 C   0  0  2  0  0  0  0  0  0  0  0  0
    3.5680   -0.2700    0.0000 C   0  0  2  0  0  0  0  0  0  0  0  0
    4.2060   -1.7090    0.0000 C   0  0  2  0  0  0  0  0  0  0  0  0
    2.5230   -4.7780    0.0000 O   0  0  0  0  0  0  0  0  0  0  0  0
    1.0230   -4.8100    0.0000 C   0  0  0  0  0  0  0  0  0  0  0  0
    0.2450   -3.5280    0.0000 O   0  0  0  0  0  0  0  0  0  0  0  0
    0.3020   -6.1250    0.0000 C   0  0  0  0  0  0  0  0  0  0  0  0
    1.0800   -7.4080    0.0000 C   0  0  0  0  0  0  0  0  0  0  0  0
    0.3580   -8.7230    0.0000 C   0  0  0  0  0  0  0  0  0  0  0  0
   -1.1410   -8.7560    0.0000 C   0  0  0  0  0  0  0  0  0  0  0  0
   -1.9200   -7.4730    0.0000 C   0  0  0  0  0  0  0  0  0  0  0  0
   -1.1980   -6.1580    0.0000 C   0  0  0  0  0  0  0  0  0  0  0  0
    5.8190   -1.4650    0.0000 C   0  0  2  0  0  0  0  0  0  0  0  0
    5.5100   -2.9330    0.0000 O   0  0  0  0  0  0  0  0  0  0  0  0
    7.0830   -2.1920    0.0000 C   0  0  0  0  0  0  0  0  0  0  0  0
    8.3540   -1.4870    0.0000 C   0  0  2  0  0  0  0  0  0  0  0  0
    9.6410   -2.2570    0.0000 O   0  0  0  0  0  0  0  0  0  0  0  0
    9.6180   -3.7570    0.0000 C   0  0  0  0  0  0  0  0  0  0  0  0
    8.3070   -4.4870    0.0000 O   0  0  0  0  0  0  0  0  0  0  0  0
   10.9050   -4.5270    0.0000 C   0  0  2  0  0  0  0  0  0  0  0  0
   10.8810   -6.0270    0.0000 O   0  0  0  0  0  0  0  0  0  0  0  0
   12.2150   -3.7980    0.0000 C   0  0  1  0  0  0  0  0  0  0  0  0
   12.2390   -2.2980    0.0000 N   0  0  0  0  0  0  0  0  0  0  0  0
   13.5490   -1.5680    0.0000 C   0  0  0  0  0  0  0  0  0  0  0  0
   13.5730   -0.0680    0.0000 O   0  0  0  0  0  0  0  0  0  0  0  0
   14.8840    0.6610    0.0000 C   0  0  0  0  0  0  0  0  0  0  0  0
   14.1540    1.9720    0.0000 C   0  0  0  0  0  0  0  0  0  0  0  0
   15.6130   -0.6500    0.0000 C   0  0  0  0  0  0  0  0  0  0  0  0
   16.1940    1.3910    0.0000 C   0  0  0  0  0  0  0  0  0  0  0  0
   14.8370   -2.3390    0.0000 O   0  0  0  0  0  0  0  0  0  0  0  0
   13.5030   -4.5680    0.0000 C   0  0  0  0  0  0  0  0  0  0  0  0
   13.4790   -6.0680    0.0000 C   0  0  0  0  0  0  0  0  0  0  0  0
   14.7660   -6.8380    0.0000 C   0  0  0  0  0  0  0  0  0  0  0  0
   16.0770   -6.1080    0.0000 C   0  0  0  0  0  0  0  0  0  0  0  0
   16.1000   -4.6090    0.0000 C   0  0  0  0  0  0  0  0  0  0  0  0
   14.8130   -3.8380    0.0000 C   0  0  0  0  0  0  0  0  0  0  0  0
    8.3740   -0.0340    0.0000 C   0  0  0  0  0  0  0  0  0  0  0  0
    7.1340    0.7370    0.0000 C   0  0  0  0  0  0  0  0  0  0  0  0
    6.5860    2.2730    0.0000 C   0  0  1  0  0  0  0  0  0  0  0  0
    7.4030    3.5310    0.0000 O   0  0  0  0  0  0  0  0  0  0  0  0
    6.7220    4.8670    0.0000 C   0  0  0  0  0  0  0  0  0  0  0  0
    5.0160    2.1540    0.0000 C   0  0  0  0  0  0  0  0  0  0  0  0
    4.2680    3.4550    0.0000 O   0  0  0  0  0  0  0  0  0  0  0  0
    5.8650    0.0020    0.0000 C   0  0  0  0  0  0  0  0  0  0  0  0
    7.3000   -0.4350    0.0000 C   0  0  0  0  0  0  0  0  0  0  0  0
    6.8910   -1.0930    0.0000 C   0  0  0  0  0  0  0  0  0  0  0  0
    9.6900    0.6860    0.0000 C   0  0  0  0  0  0  0  0  0  0  0  0
    2.0840   -0.3970    0.0000 C   0  0  1  0  0  0  0  0  0  0  0  0
    2.5500   -1.8230    0.0000 O   0  0  0  0  0  0  0  0  0  0  0  0
    1.5480   -2.9400    0.0000 C   0  0  0  0  0  0  0  0  0  0  0  0
    0.0800   -2.6300    0.0000 O   0  0  0  0  0  0  0  0  0  0  0  0
    2.0140   -4.3650    0.0000 C   0  0  0  0  0  0  0  0  0  0  0  0
    0.8430   -1.2410    0.0000 C   0  0  0  0  0  0  0  0  0  0  0  0
    2.7540    0.6490    0.0000 C   0  0  0  0  0  0  0  0  0  0  0  0
  1 59  1  0  0  0  0
  2  1  1  6  0  0  0
  2  3  1  0  0  0  0
  2 54  1  0  0  0  0
  3  4  1  0  0  0  0
  4  5  1  6  0  0  0
  4  7  1  0  0  0  0
  5  6  1  0  0  0  0
  7 48  1  0  0  0  0
  7 60  1  6  0  0  0
  8  7  1  6  0  0  0
  8  9  1  0  0  0  0
  8 54  1  0  0  0  0
  9 10  1  1  0  0  0
  9 19  1  0  0  0  0
 10 11  1  0  0  0  0
 11 12  2  0  0  0  0
 11 13  1  0  0  0  0
 13 14  1  0  0  0  0
 13 18  2  0  0  0  0
 14 15  2  0  0  0  0
 15 16  1  0  0  0  0
 16 17  2  0  0  0  0
 17 18  1  0  0  0  0
 19 20  1  6  0  0  0
 19 21  1  0  0  0  0
 19 50  1  0  0  0  0
 21 22  1  0  0  0  0
 22 23  1  1  0  0  0
 22 43  1  0  0  0  0
 23 24  1  0  0  0  0
 24 25  2  0  0  0  0
 24 26  1  0  0  0  0
 26 27  1  1  0  0  0
 26 28  1  0  0  0  0
 28 29  1  0  0  0  0
 28 37  1  1  0  0  0
 29 30  1  0  0  0  0
 30 31  1  0  0  0  0
 30 36  2  0  0  0  0
 31 32  1  0  0  0  0
 32 33  1  0  0  0  0
 32 34  1  0  0  0  0
 32 35  1  0  0  0  0
 37 38  1  0  0  0  0
 37 42  2  0  0  0  0
 38 39  2  0  0  0  0
 39 40  1  0  0  0  0
 40 41  2  0  0  0  0
 41 42  1  0  0  0  0
 43 44  2  0  0  0  0
 43 53  1  0  0  0  0
 44 45  1  0  0  0  0
 44 50  1  0  0  0  0
 45 46  1  6  0  0  0
 45 48  1  0  0  0  0
 46 47  1  0  0  0  0
 48 49  2  0  0  0  0
 50 51  1  0  0  0  0
 50 52  1  0  0  0  0
 54 55  1  1  0  0  0
 54 59  1  0  0  0  0
 55 56  1  0  0  0  0
 56 57  2  0  0  0  0
 56 58  1  0  0  0  0
M  END
>  <Index>
173

>  <ID>
HT0344

>  <class>
0

>  <apol>
129.5352

>  <ast_fraglike>
0

>  <ast_fraglike_ext>
0

>  <ast_violation>
3

>  <ast_violation_ext>
5

>  <a_acc>
10

>  <a_acid>
0

>  <a_aro>
12

>  <a_base>
0

>  <a_count>
117

>  <a_don>
3

>  <a_donacc>
13

>  <a_heavy>
60

>  <a_hyd>
40

>  <a_IC>
170.92159

>  <a_ICM>
1.4608682

>  <a_nB>
0

>  <a_nBr>
0

>  <a_nC>
45

>  <a_nCl>
0

>  <a_nF>
0

>  <a_nH>
57

>  <a_nI>
0

>  <a_nN>
1

>  <a_nO>
14

>  <a_nP>
0

>  <a_nS>
0

>  <balabanJ>
1.4489237

>  <BCUT_PEOE_0>
-2.9191954

>  <BCUT_PEOE_1>
-0.48402271

>  <BCUT_PEOE_2>
0.54136908

>  <BCUT_PEOE_3>
2.9890473

>  <BCUT_SLOGP_0>
-3.034251

>  <BCUT_SLOGP_1>
-0.41336012

>  <BCUT_SLOGP_2>
0.56098557

>  <BCUT_SLOGP_3>
2.8897924

>  <BCUT_SMR_0>
-2.7068186

>  <BCUT_SMR_1>
-0.3482312

>  <BCUT_SMR_2>
0.64188933

>  <BCUT_SMR_3>
3.1959596

>  <bpol>
81.174797

>  <b_1rotN>
10

>  <b_1rotR>
0.15384616

>  <b_ar>
12

>  <b_count>
122

>  <b_double>
6

>  <b_heavy>
65

>  <b_max1len>
5

>  <b_rotN>
16

>  <b_rotR>
0.24615385

>  <b_single>
104

>  <b_triple>
0

>  <chi0>
44.164196

>  <chi0v>
35.807034

>  <chi0v_C>
29.513626

>  <chi0_C>
31.507343

>  <chi1>
28.066425

>  <chi1v>
20.106167

>  <chi1v_C>
14.556637

>  <chi1_C>
16.990271

>  <chiral>
11

>  <chiral_u>
0

>  <density>
0.75831109

>  <diameter>
18

>  <FCharge>
0

>  <GCUT_PEOE_0>
-0.84325969

>  <GCUT_PEOE_1>
-0.38820657

>  <GCUT_PEOE_2>
0.055200256

>  <GCUT_PEOE_3>
3.6435912

>  <GCUT_SLOGP_0>
-1.1308191

>  <GCUT_SLOGP_1>
-0.27528659

>  <GCUT_SLOGP_2>
0.050572887

>  <GCUT_SLOGP_3>
3.6127331

>  <GCUT_SMR_0>
-0.57568252

>  <GCUT_SMR_1>
-0.20408742

>  <GCUT_SMR_2>
0.13627611

>  <GCUT_SMR_3>
3.8585756

>  <Kier1>
49.434319

>  <Kier2>
19.076893

>  <Kier3>
9.2471066

>  <KierA1>
41.213646

>  <KierA2>
15.853431

>  <KierA3>
7.6676507

>  <KierFlex>
10.889628

>  <lip_acc>
15

>  <lip_don>
3

>  <lip_druglike>
0

>  <lip_violation>
2

>  <logP(o/w)>
4.8039999

>  <logS>
-7.7947202

>  <mr>
21.727295

>  <mutagenic>
0

>  <nmol>
1

>  <opr_brigid>
32

>  <opr_leadlike>
0

>  <opr_nring>
6

>  <opr_nrot>
11

>  <opr_violation>
5

>  <PC+>
0

>  <PC->
0

>  <PEOE_PC+>
5.6993175

>  <PEOE_PC->
-5.6993175

>  <PEOE_RPC+>
0.063466765

>  <PEOE_RPC->
0.067557074

>  <PEOE_VSA+0>
212.05035

>  <PEOE_VSA+1>
139.44669

>  <PEOE_VSA+2>
9.8098574

>  <PEOE_VSA+3>
21.982462

>  <PEOE_VSA+4>
20.648346

>  <PEOE_VSA+5>
44.125496

>  <PEOE_VSA+6>
19.199511

>  <PEOE_VSA-0>
124.87382

>  <PEOE_VSA-1>
135.53459

>  <PEOE_VSA-2>
0

>  <PEOE_VSA-3>
0

>  <PEOE_VSA-4>
13.566921

>  <PEOE_VSA-5>
56.771439

>  <PEOE_VSA-6>
30.694508

>  <PEOE_VSA_FHYD>
0.77675235

>  <PEOE_VSA_FNEG>
0.43615246

>  <PEOE_VSA_FPNEG>
0.12191672

>  <PEOE_VSA_FPOL>
0.22324766

>  <PEOE_VSA_FPOS>
0.56384754

>  <PEOE_VSA_FPPOS>
0.10133094

>  <PEOE_VSA_HYD>
643.69775

>  <PEOE_VSA_NEG>
361.44128

>  <PEOE_VSA_PNEG>
101.03287

>  <PEOE_VSA_POL>
185.00623

>  <PEOE_VSA_POS>
467.26273

>  <PEOE_VSA_PPOS>
83.973351

>  <petitjean>
0.5

>  <petitjeanSC>
1

>  <Q_PC+>
0

>  <Q_PC->
0

>  <Q_RPC+>
0

>  <Q_RPC->
0

>  <Q_VSA_FHYD>
1

>  <Q_VSA_FNEG>
0

>  <Q_VSA_FPNEG>
0

>  <Q_VSA_FPOL>
0

>  <Q_VSA_FPOS>
1

>  <Q_VSA_FPPOS>
0

>  <Q_VSA_HYD>
828.70398

>  <Q_VSA_NEG>
0

>  <Q_VSA_PNEG>
0

>  <Q_VSA_POL>
0

>  <Q_VSA_POS>
828.70398

>  <Q_VSA_PPOS>
0

>  <radius>
9

>  <reactive>
1

>  <rings>
6

>  <RPC+>
0

>  <RPC->
0

>  <rsynth>
0.5

>  <SlogP>
4.6633

>  <SlogP_VSA0>
68.781204

>  <SlogP_VSA1>
36.240639

>  <SlogP_VSA2>
187.39777

>  <SlogP_VSA3>
20.926258

>  <SlogP_VSA4>
34.644161

>  <SlogP_VSA5>
77.138885

>  <SlogP_VSA6>
0

>  <SlogP_VSA7>
176.43184

>  <SlogP_VSA8>
41.718781

>  <SlogP_VSA9>
290.47034

>  <SMR>
21.32958

>  <SMR_VSA0>
196.3103

>  <SMR_VSA1>
50.770454

>  <SMR_VSA2>
22.421547

>  <SMR_VSA3>
55.536163

>  <SMR_VSA4>
0

>  <SMR_VSA5>
214.16866

>  <SMR_VSA6>
57.166897

>  <SMR_VSA7>
337.37585

>  <TPSA>
202.45

>  <VAdjEq>
0.2241684

>  <VAdjMa>
7.022368

>  <VDistEq>
3.9450545

>  <VDistMa>
11.582225

>  <vdw_area>
828.70398

>  <vdw_vol>
1102.3761

>  <vsa_acc>
75.345871

>  <vsa_acid>
0

>  <vsa_base>
0

>  <vsa_don>
5.6825762

>  <vsa_hyd>
586.83826

>  <vsa_other>
81.798553

>  <vsa_pol>
108.16229

>  <Weight>
835.94397

>  <weinerPath>
13570

>  <weinerPol>
125

>  <zagreb>
334

$$$$