S1c2c(N(c3c1cccc3)CCCN1CCN(CC1)C)cc(cc2)C(=O)CCC
  MOE2013           2D

 29 32  0  0  1  0  0  0  0  0999 V2000
    0.0000    0.0000    0.0000 S   0  0  0  0  0  0  0  0  0  0  0  0
   -0.7490   -1.2990    0.0000 C   0  0  0  0  0  0  0  0  0  0  0  0
    0.0010   -2.5980    0.0000 C   0  0  0  0  0  0  0  0  0  0  0  0
    1.5010   -2.5970    0.0000 N   0  0  3  0  0  0  0  0  0  0  0  0
    2.2510   -1.2980    0.0000 C   0  0  0  0  0  0  0  0  0  0  0  0
    1.5000    0.0010    0.0000 C   0  0  0  0  0  0  0  0  0  0  0  0
    2.2490    1.3000    0.0000 C   0  0  0  0  0  0  0  0  0  0  0  0
    3.7490    1.3010    0.0000 C   0  0  0  0  0  0  0  0  0  0  0  0
    4.5000    0.0020    0.0000 C   0  0  0  0  0  0  0  0  0  0  0  0
    3.7510   -1.2970    0.0000 C   0  0  0  0  0  0  0  0  0  0  0  0
    2.2520   -3.8960    0.0000 C   0  0  0  0  0  0  0  0  0  0  0  0
    3.7520   -3.8950    0.0000 C   0  0  0  0  0  0  0  0  0  0  0  0
    4.5030   -5.1940    0.0000 C   0  0  0  0  0  0  0  0  0  0  0  0
    6.0030   -5.1930    0.0000 N   0  0  0  0  0  0  0  0  0  0  0  0
    6.7530   -6.4920    0.0000 C   0  0  0  0  0  0  0  0  0  0  0  0
    8.2530   -6.4910    0.0000 C   0  0  0  0  0  0  0  0  0  0  0  0
    9.0030   -5.1920    0.0000 N   0  0  0  0  0  0  0  0  0  0  0  0
    8.2520   -3.8930    0.0000 C   0  0  0  0  0  0  0  0  0  0  0  0
    6.7520   -3.8940    0.0000 C   0  0  0  0  0  0  0  0  0  0  0  0
   10.5030   -5.1910    0.0000 C   0  0  0  0  0  0  0  0  0  0  0  0
   -0.7480   -3.8970    0.0000 C   0  0  0  0  0  0  0  0  0  0  0  0
   -2.2480   -3.8980    0.0000 C   0  0  0  0  0  0  0  0  0  0  0  0
   -2.9990   -2.6000    0.0000 C   0  0  0  0  0  0  0  0  0  0  0  0
   -2.2490   -1.3000    0.0000 C   0  0  0  0  0  0  0  0  0  0  0  0
   -2.9970   -5.1980    0.0000 C   0  0  0  0  0  0  0  0  0  0  0  0
   -2.2470   -6.4960    0.0000 O   0  0  0  0  0  0  0  0  0  0  0  0
   -4.4970   -5.1980    0.0000 C   0  0  0  0  0  0  0  0  0  0  0  0
   -5.2470   -6.4980    0.0000 C   0  0  0  0  0  0  0  0  0  0  0  0
   -6.7470   -6.4980    0.0000 C   0  0  0  0  0  0  0  0  0  0  0  0
  1  2  1  0  0  0  0
  1  6  1  0  0  0  0
  2  3  1  0  0  0  0
  2 24  2  0  0  0  0
  3  4  1  0  0  0  0
  3 21  2  0  0  0  0
  4  5  1  0  0  0  0
  4 11  1  0  0  0  0
  5  6  1  0  0  0  0
  5 10  2  0  0  0  0
  6  7  2  0  0  0  0
  7  8  1  0  0  0  0
  8  9  2  0  0  0  0
  9 10  1  0  0  0  0
 11 12  1  0  0  0  0
 12 13  1  0  0  0  0
 13 14  1  0  0  0  0
 14 15  1  0  0  0  0
 14 19  1  0  0  0  0
 15 16  1  0  0  0  0
 16 17  1  0  0  0  0
 17 18  1  0  0  0  0
 17 20  1  0  0  0  0
 18 19  1  0  0  0  0
 21 22  1  0  0  0  0
 22 23  2  0  0  0  0
 22 25  1  0  0  0  0
 23 24  1  0  0  0  0
 25 26  2  0  0  0  0
 25 27  1  0  0  0  0
 27 28  1  0  0  0  0
 28 29  1  0  0  0  0
M  END
>  <Index>
1376

>  <ID>
HT3783

>  <class>
0

>  <apol>
69.912582

>  <ast_fraglike>
0

>  <ast_fraglike_ext>
0

>  <ast_violation>
2

>  <ast_violation_ext>
3

>  <a_acc>
3

>  <a_acid>
0

>  <a_aro>
12

>  <a_base>
0

>  <a_count>
60

>  <a_don>
0

>  <a_donacc>
3

>  <a_heavy>
29

>  <a_hyd>
24

>  <a_IC>
86.03936

>  <a_ICM>
1.4339894

>  <a_nB>
0

>  <a_nBr>
0

>  <a_nC>
24

>  <a_nCl>
0

>  <a_nF>
0

>  <a_nH>
31

>  <a_nI>
0

>  <a_nN>
3

>  <a_nO>
1

>  <a_nP>
0

>  <a_nS>
1

>  <balabanJ>
1.3779563

>  <BCUT_PEOE_0>
-2.7903402

>  <BCUT_PEOE_1>
-0.55418915

>  <BCUT_PEOE_2>
0.57687443

>  <BCUT_PEOE_3>
2.6805172

>  <BCUT_SLOGP_0>
-2.8981605

>  <BCUT_SLOGP_1>
-0.43054259

>  <BCUT_SLOGP_2>
0.67364365

>  <BCUT_SLOGP_3>
2.6295357

>  <BCUT_SMR_0>
-2.5038624

>  <BCUT_SMR_1>
-0.36214322

>  <BCUT_SMR_2>
0.74847931

>  <BCUT_SMR_3>
2.9588084

>  <bpol>
43.067417

>  <b_1rotN>
7

>  <b_1rotR>
0.21875

>  <b_ar>
12

>  <b_count>
63

>  <b_double>
1

>  <b_heavy>
32

>  <b_max1len>
4

>  <b_rotN>
7

>  <b_rotR>
0.21875

>  <b_single>
50

>  <b_triple>
0

>  <chi0>
20.216969

>  <chi0v>
18.380047

>  <chi0v_C>
15.405413

>  <chi0_C>
16.777811

>  <chi1>
14.152199

>  <chi1v>
11.596707

>  <chi1v_C>
7.3760443

>  <chi1_C>
9.0648451

>  <chiral>
0

>  <chiral_u>
0

>  <density>
0.69840991

>  <diameter>
15

>  <FCharge>
0

>  <GCUT_PEOE_0>
-0.86208206

>  <GCUT_PEOE_1>
-0.36116064

>  <GCUT_PEOE_2>
0.0019636117

>  <GCUT_PEOE_3>
2.8339148

>  <GCUT_SLOGP_0>
-0.9642756

>  <GCUT_SLOGP_1>
-0.29231152

>  <GCUT_SLOGP_2>
0.14428876

>  <GCUT_SLOGP_3>
2.9236081

>  <GCUT_SMR_0>
-0.52295947

>  <GCUT_SMR_1>
-0.17033255

>  <GCUT_SMR_2>
0.17263205

>  <GCUT_SMR_3>
3.1172631

>  <Kier1>
22.203125

>  <Kier2>
10.543388

>  <Kier3>
5.4375181

>  <KierA1>
18.796049

>  <KierA2>
8.8696499

>  <KierA3>
4.5532117

>  <KierFlex>
5.7487717

>  <lip_acc>
4

>  <lip_don>
0

>  <lip_druglike>
1

>  <lip_violation>
0

>  <logP(o/w)>
4.3270001

>  <logS>
-4.9158502

>  <mr>
12.167952

>  <mutagenic>
0

>  <nmol>
1

>  <opr_brigid>
22

>  <opr_leadlike>
1

>  <opr_nring>
4

>  <opr_nrot>
9

>  <opr_violation>
1

>  <PC+>
0

>  <PC->
0

>  <PEOE_PC+>
1.7138207

>  <PEOE_PC->
-1.7138207

>  <PEOE_RPC+>
0.095229343

>  <PEOE_RPC->
0.17674978

>  <PEOE_VSA+0>
214.20137

>  <PEOE_VSA+1>
29.857702

>  <PEOE_VSA+2>
0

>  <PEOE_VSA+3>
8.458519

>  <PEOE_VSA+4>
0

>  <PEOE_VSA+5>
0

>  <PEOE_VSA+6>
0

>  <PEOE_VSA-0>
89.660934

>  <PEOE_VSA-1>
75.27301

>  <PEOE_VSA-2>
0

>  <PEOE_VSA-3>
0

>  <PEOE_VSA-4>
0

>  <PEOE_VSA-5>
13.566921

>  <PEOE_VSA-6>
0

>  <PEOE_VSA_FHYD>
0.96852356

>  <PEOE_VSA_FNEG>
0.41413739

>  <PEOE_VSA_FPNEG>
0.031476427

>  <PEOE_VSA_FPOL>
0.031476427

>  <PEOE_VSA_FPOS>
0.58586258

>  <PEOE_VSA_FPPOS>
0

>  <PEOE_VSA_HYD>
417.45154

>  <PEOE_VSA_NEG>
178.50085

>  <PEOE_VSA_PNEG>
13.566921

>  <PEOE_VSA_POL>
13.566921

>  <PEOE_VSA_POS>
252.51759

>  <PEOE_VSA_PPOS>
0

>  <petitjean>
0.46666667

>  <petitjeanSC>
0.875

>  <Q_PC+>
0

>  <Q_PC->
0

>  <Q_RPC+>
0

>  <Q_RPC->
0

>  <Q_VSA_FHYD>
1

>  <Q_VSA_FNEG>
0

>  <Q_VSA_FPNEG>
0

>  <Q_VSA_FPOL>
0

>  <Q_VSA_FPOS>
1

>  <Q_VSA_FPPOS>
0

>  <Q_VSA_HYD>
431.01846

>  <Q_VSA_NEG>
0

>  <Q_VSA_PNEG>
0

>  <Q_VSA_POL>
0

>  <Q_VSA_POS>
431.01846

>  <Q_VSA_PPOS>
0

>  <radius>
8

>  <reactive>
1

>  <rings>
4

>  <RPC+>
0

>  <RPC->
0

>  <rsynth>
1

>  <SlogP>
4.9095998

>  <SlogP_VSA0>
3.1243138

>  <SlogP_VSA1>
11.936239

>  <SlogP_VSA2>
0

>  <SlogP_VSA3>
110.63747

>  <SlogP_VSA4>
27.047791

>  <SlogP_VSA5>
35.998657

>  <SlogP_VSA6>
0

>  <SlogP_VSA7>
123.50229

>  <SlogP_VSA8>
56.605217

>  <SlogP_VSA9>
71.059052

>  <SMR>
12.18065

>  <SMR_VSA0>
23.862217

>  <SMR_VSA1>
6.2486277

>  <SMR_VSA2>
6.2257819

>  <SMR_VSA3>
3.185575

>  <SMR_VSA4>
5.513495

>  <SMR_VSA5>
180.10751

>  <SMR_VSA6>
116.32508

>  <SMR_VSA7>
98.442741

>  <TPSA>
26.790001

>  <VAdjEq>
0.38828552

>  <VAdjMa>
6

>  <VDistEq>
3.5871735

>  <VDistMa>
9.4307842

>  <vdw_area>
431.01846

>  <vdw_vol>
586.47217

>  <vsa_acc>
13.566921

>  <vsa_acid>
0

>  <vsa_base>
0

>  <vsa_don>
0

>  <vsa_hyd>
386.92737

>  <vsa_other>
8.458519

>  <vsa_pol>
13.566921

>  <Weight>
409.59799

>  <weinerPath>
2332

>  <weinerPol>
47

>  <zagreb>
152

$$$$