Clc1cc2N(c3c(Sc2cc1)cccc3)CCCN1CCN(CC1)CCOC(=O)C
  MOE2013           2D

 30 33  0  0  1  0  0  0  0  0999 V2000
    0.0000    0.0000    0.0000 Cl  0  0  0  0  0  0  0  0  0  0  0  0
    0.7460    1.3010    0.0000 C   0  0  0  0  0  0  0  0  0  0  0  0
    2.2460    1.3050    0.0000 C   0  0  0  0  0  0  0  0  0  0  0  0
    2.9930    2.6060    0.0000 C   0  0  0  0  0  0  0  0  0  0  0  0
    4.4930    2.6110    0.0000 N   0  0  3  0  0  0  0  0  0  0  0  0
    5.2390    3.9120    0.0000 C   0  0  0  0  0  0  0  0  0  0  0  0
    4.4850    5.2090    0.0000 C   0  0  0  0  0  0  0  0  0  0  0  0
    2.9850    5.2050    0.0000 S   0  0  0  0  0  0  0  0  0  0  0  0
    2.2390    3.9030    0.0000 C   0  0  0  0  0  0  0  0  0  0  0  0
    0.7390    3.8990    0.0000 C   0  0  0  0  0  0  0  0  0  0  0  0
   -0.0070    2.5980    0.0000 C   0  0  0  0  0  0  0  0  0  0  0  0
    5.2320    6.5100    0.0000 C   0  0  0  0  0  0  0  0  0  0  0  0
    6.7320    6.5140    0.0000 C   0  0  0  0  0  0  0  0  0  0  0  0
    7.4850    5.2170    0.0000 C   0  0  0  0  0  0  0  0  0  0  0  0
    6.7390    3.9160    0.0000 C   0  0  0  0  0  0  0  0  0  0  0  0
    5.2460    1.3140    0.0000 C   0  0  0  0  0  0  0  0  0  0  0  0
    6.7460    1.3180    0.0000 C   0  0  0  0  0  0  0  0  0  0  0  0
    7.5000    0.0210    0.0000 C   0  0  0  0  0  0  0  0  0  0  0  0
    9.0000    0.0250    0.0000 N   0  0  0  0  0  0  0  0  0  0  0  0
    9.7540   -1.2720    0.0000 C   0  0  0  0  0  0  0  0  0  0  0  0
   11.2540   -1.2680    0.0000 C   0  0  0  0  0  0  0  0  0  0  0  0
   12.0000    0.0340    0.0000 N   0  0  0  0  0  0  0  0  0  0  0  0
   11.2460    1.3300    0.0000 C   0  0  0  0  0  0  0  0  0  0  0  0
    9.7460    1.3260    0.0000 C   0  0  0  0  0  0  0  0  0  0  0  0
   13.5000    0.0380    0.0000 C   0  0  0  0  0  0  0  0  0  0  0  0
   14.2540   -1.2590    0.0000 C   0  0  0  0  0  0  0  0  0  0  0  0
   15.7540   -1.2550    0.0000 O   0  0  0  0  0  0  0  0  0  0  0  0
   16.5070   -2.5520    0.0000 C   0  0  0  0  0  0  0  0  0  0  0  0
   18.0070   -2.5480    0.0000 O   0  0  0  0  0  0  0  0  0  0  0  0
   15.7610   -3.8530    0.0000 C   0  0  0  0  0  0  0  0  0  0  0  0
  1  2  1  0  0  0  0
  2  3  1  0  0  0  0
  2 11  2  0  0  0  0
  3  4  2  0  0  0  0
  4  5  1  0  0  0  0
  4  9  1  0  0  0  0
  5  6  1  0  0  0  0
  5 16  1  0  0  0  0
  6  7  1  0  0  0  0
  6 15  2  0  0  0  0
  7  8  1  0  0  0  0
  7 12  2  0  0  0  0
  8  9  1  0  0  0  0
  9 10  2  0  0  0  0
 10 11  1  0  0  0  0
 12 13  1  0  0  0  0
 13 14  2  0  0  0  0
 14 15  1  0  0  0  0
 16 17  1  0  0  0  0
 17 18  1  0  0  0  0
 18 19  1  0  0  0  0
 19 20  1  0  0  0  0
 19 24  1  0  0  0  0
 20 21  1  0  0  0  0
 21 22  1  0  0  0  0
 22 23  1  0  0  0  0
 22 25  1  0  0  0  0
 23 24  1  0  0  0  0
 25 26  1  0  0  0  0
 26 27  1  0  0  0  0
 27 28  1  0  0  0  0
 28 29  2  0  0  0  0
 28 30  1  0  0  0  0
M  END
>  <Index>
1174

>  <ID>
HT2265

>  <class>
0

>  <apol>
69.134201

>  <ast_fraglike>
0

>  <ast_fraglike_ext>
0

>  <ast_violation>
2

>  <ast_violation_ext>
3

>  <a_acc>
3

>  <a_acid>
0

>  <a_aro>
12

>  <a_base>
0

>  <a_count>
58

>  <a_don>
0

>  <a_donacc>
3

>  <a_heavy>
30

>  <a_hyd>
24

>  <a_IC>
94.360146

>  <a_ICM>
1.6268991

>  <a_nB>
0

>  <a_nBr>
0

>  <a_nC>
23

>  <a_nCl>
1

>  <a_nF>
0

>  <a_nH>
28

>  <a_nI>
0

>  <a_nN>
3

>  <a_nO>
2

>  <a_nP>
0

>  <a_nS>
1

>  <balabanJ>
1.2223647

>  <BCUT_PEOE_0>
-2.7985973

>  <BCUT_PEOE_1>
-0.55194271

>  <BCUT_PEOE_2>
0.5852322

>  <BCUT_PEOE_3>
2.6957097

>  <BCUT_SLOGP_0>
-2.9124541

>  <BCUT_SLOGP_1>
-0.40103424

>  <BCUT_SLOGP_2>
0.75666642

>  <BCUT_SLOGP_3>
2.6268613

>  <BCUT_SMR_0>
-2.5150018

>  <BCUT_SMR_1>
-0.34684667

>  <BCUT_SMR_2>
0.84628218

>  <BCUT_SMR_3>
2.9706962

>  <bpol>
42.123795

>  <b_1rotN>
7

>  <b_1rotR>
0.21212122

>  <b_ar>
12

>  <b_count>
61

>  <b_double>
1

>  <b_heavy>
33

>  <b_max1len>
4

>  <b_rotN>
8

>  <b_rotR>
0.24242425

>  <b_single>
48

>  <b_triple>
0

>  <chi0>
20.924074

>  <chi0v>
18.922188

>  <chi0v_C>
14.405413

>  <chi0_C>
15.77781

>  <chi1>
14.597357

>  <chi1v>
11.714808

>  <chi1v_C>
6.5653839

>  <chi1_C>
8.1935062

>  <chiral>
0

>  <chiral_u>
0

>  <density>
0.75767803

>  <diameter>
16

>  <FCharge>
0

>  <GCUT_PEOE_0>
-0.85809833

>  <GCUT_PEOE_1>
-0.38447854

>  <GCUT_PEOE_2>
0.02415614

>  <GCUT_PEOE_3>
2.8183074

>  <GCUT_SLOGP_0>
-0.96557951

>  <GCUT_SLOGP_1>
-0.27849668

>  <GCUT_SLOGP_2>
0.14345947

>  <GCUT_SLOGP_3>
2.8835793

>  <GCUT_SMR_0>
-0.52141482

>  <GCUT_SMR_1>
-0.16280335

>  <GCUT_SMR_2>
0.20151129

>  <GCUT_SMR_3>
3.0917337

>  <Kier1>
23.168043

>  <Kier2>
11.227654

>  <Kier3>
6.2925091

>  <KierA1>
20.714409

>  <KierA2>
9.9981985

>  <KierA3>
5.5874987

>  <KierFlex>
6.9035592

>  <lip_acc>
5

>  <lip_don>
0

>  <lip_druglike>
1

>  <lip_violation>
0

>  <logP(o/w)>
4.0440001

>  <logS>
-5.0364099

>  <mr>
12.435515

>  <mutagenic>
0

>  <nmol>
1

>  <opr_brigid>
22

>  <opr_leadlike>
1

>  <opr_nring>
4

>  <opr_nrot>
9

>  <opr_violation>
1

>  <PC+>
0

>  <PC->
0

>  <PEOE_PC+>
1.9365382

>  <PEOE_PC->
-1.9365382

>  <PEOE_RPC+>
0.13378482

>  <PEOE_RPC->
0.16220985

>  <PEOE_VSA+0>
218.42433

>  <PEOE_VSA+1>
53.339767

>  <PEOE_VSA+2>
0

>  <PEOE_VSA+3>
0

>  <PEOE_VSA+4>
0

>  <PEOE_VSA+5>
14.708499

>  <PEOE_VSA+6>
0

>  <PEOE_VSA-0>
69.97583

>  <PEOE_VSA-1>
73.852371

>  <PEOE_VSA-2>
0

>  <PEOE_VSA-3>
0

>  <PEOE_VSA-4>
0

>  <PEOE_VSA-5>
13.566921

>  <PEOE_VSA-6>
2.503756

>  <PEOE_VSA_FHYD>
0.93104583

>  <PEOE_VSA_FNEG>
0.3582193

>  <PEOE_VSA_FPNEG>
0.036002919

>  <PEOE_VSA_FPOL>
0.06895417

>  <PEOE_VSA_FPOS>
0.64178067

>  <PEOE_VSA_FPPOS>
0.032951251

>  <PEOE_VSA_HYD>
415.59232

>  <PEOE_VSA_NEG>
159.89888

>  <PEOE_VSA_PNEG>
16.070677

>  <PEOE_VSA_POL>
30.779177

>  <PEOE_VSA_POS>
286.4726

>  <PEOE_VSA_PPOS>
14.708499

>  <petitjean>
0.5

>  <petitjeanSC>
1

>  <Q_PC+>
0

>  <Q_PC->
0

>  <Q_RPC+>
0

>  <Q_RPC->
0

>  <Q_VSA_FHYD>
1

>  <Q_VSA_FNEG>
0

>  <Q_VSA_FPNEG>
0

>  <Q_VSA_FPOL>
0

>  <Q_VSA_FPOS>
1

>  <Q_VSA_FPPOS>
0

>  <Q_VSA_HYD>
446.37149

>  <Q_VSA_NEG>
0

>  <Q_VSA_PNEG>
0

>  <Q_VSA_POL>
0

>  <Q_VSA_POS>
446.37149

>  <Q_VSA_PPOS>
0

>  <radius>
8

>  <reactive>
0

>  <rings>
4

>  <RPC+>
0

>  <RPC->
0

>  <rsynth>
1

>  <SlogP>
4.5135002

>  <SlogP_VSA0>
3.1243138

>  <SlogP_VSA1>
13.994092

>  <SlogP_VSA2>
34.862103

>  <SlogP_VSA3>
150.00331

>  <SlogP_VSA4>
0

>  <SlogP_VSA5>
3.1014678

>  <SlogP_VSA6>
3.5006065

>  <SlogP_VSA7>
123.50229

>  <SlogP_VSA8>
18.868406

>  <SlogP_VSA9>
110.2077

>  <SMR>
12.3154

>  <SMR_VSA0>
34.862103

>  <SMR_VSA1>
6.2486277

>  <SMR_VSA2>
6.2257819

>  <SMR_VSA3>
3.5006065

>  <SMR_VSA4>
5.513495

>  <SMR_VSA5>
142.3707

>  <SMR_VSA6>
157.74876

>  <SMR_VSA7>
104.6942

>  <TPSA>
36.02

>  <VAdjEq>
0.37824166

>  <VAdjMa>
6.044394

>  <VDistEq>
3.8476658

>  <VDistMa>
9.4821587

>  <vdw_area>
446.37149

>  <vdw_vol>
588.66034

>  <vsa_acc>
13.566921

>  <vsa_acid>
0

>  <vsa_base>
0

>  <vsa_don>
0

>  <vsa_hyd>
395.66205

>  <vsa_other>
17.212255

>  <vsa_pol>
13.566921

>  <Weight>
446.01498

>  <weinerPath>
2862

>  <weinerPol>
46

>  <zagreb>
156

$$$$