O(C(=O)c1ccc(NCCCC)cc1)CCOCCOCCOCCOCCOCCOCCOCCOCCOC
  MOE2013           2D

 42 42  0  0  0  0  0  0  0  0999 V2000
    0.0000    0.0000    0.0000 O   0  0  0  0  0  0  0  0  0  0  0  0
   -1.2990   -0.7500    0.0000 C   0  0  0  0  0  0  0  0  0  0  0  0
   -1.2980   -2.2500    0.0000 O   0  0  0  0  0  0  0  0  0  0  0  0
   -2.5980   -0.0010    0.0000 C   0  0  0  0  0  0  0  0  0  0  0  0
   -3.8970   -0.7510    0.0000 C   0  0  0  0  0  0  0  0  0  0  0  0
   -5.1960   -0.0010    0.0000 C   0  0  0  0  0  0  0  0  0  0  0  0
   -5.1970    1.4990    0.0000 C   0  0  0  0  0  0  0  0  0  0  0  0
   -6.4960    2.2480    0.0000 N   0  0  0  0  0  0  0  0  0  0  0  0
   -7.7950    1.4980    0.0000 C   0  0  0  0  0  0  0  0  0  0  0  0
   -9.0940    2.2480    0.0000 C   0  0  0  0  0  0  0  0  0  0  0  0
  -10.3930    1.4970    0.0000 C   0  0  0  0  0  0  0  0  0  0  0  0
  -11.6920    2.2470    0.0000 C   0  0  0  0  0  0  0  0  0  0  0  0
   -3.8980    2.2490    0.0000 C   0  0  0  0  0  0  0  0  0  0  0  0
   -2.5980    1.4990    0.0000 C   0  0  0  0  0  0  0  0  0  0  0  0
    1.2990   -0.7500    0.0000 C   0  0  0  0  0  0  0  0  0  0  0  0
    2.5980    0.0010    0.0000 C   0  0  0  0  0  0  0  0  0  0  0  0
    3.8970   -0.7490    0.0000 O   0  0  0  0  0  0  0  0  0  0  0  0
    5.1960    0.0010    0.0000 C   0  0  0  0  0  0  0  0  0  0  0  0
    6.4950   -0.7480    0.0000 C   0  0  0  0  0  0  0  0  0  0  0  0
    7.7940    0.0020    0.0000 O   0  0  0  0  0  0  0  0  0  0  0  0
    9.0930   -0.7480    0.0000 C   0  0  0  0  0  0  0  0  0  0  0  0
   10.3920    0.0030    0.0000 C   0  0  0  0  0  0  0  0  0  0  0  0
   11.6920   -0.7470    0.0000 O   0  0  0  0  0  0  0  0  0  0  0  0
   12.9900    0.0030    0.0000 C   0  0  0  0  0  0  0  0  0  0  0  0
   14.2900   -0.7460    0.0000 C   0  0  0  0  0  0  0  0  0  0  0  0
   15.5880    0.0040    0.0000 O   0  0  0  0  0  0  0  0  0  0  0  0
   16.8880   -0.7460    0.0000 C   0  0  0  0  0  0  0  0  0  0  0  0
   18.1870    0.0050    0.0000 C   0  0  0  0  0  0  0  0  0  0  0  0
   19.4860   -0.7450    0.0000 O   0  0  0  0  0  0  0  0  0  0  0  0
   20.7850    0.0050    0.0000 C   0  0  0  0  0  0  0  0  0  0  0  0
   22.0840   -0.7440    0.0000 C   0  0  0  0  0  0  0  0  0  0  0  0
   23.3830    0.0060    0.0000 O   0  0  0  0  0  0  0  0  0  0  0  0
   24.6820   -0.7430    0.0000 C   0  0  0  0  0  0  0  0  0  0  0  0
   25.9810    0.0070    0.0000 C   0  0  0  0  0  0  0  0  0  0  0  0
   27.2800   -0.7430    0.0000 O   0  0  0  0  0  0  0  0  0  0  0  0
   28.5790    0.0080    0.0000 C   0  0  0  0  0  0  0  0  0  0  0  0
   29.8780   -0.7420    0.0000 C   0  0  0  0  0  0  0  0  0  0  0  0
   31.1770    0.0080    0.0000 O   0  0  0  0  0  0  0  0  0  0  0  0
   32.4760   -0.7410    0.0000 C   0  0  0  0  0  0  0  0  0  0  0  0
   33.7750    0.0090    0.0000 C   0  0  0  0  0  0  0  0  0  0  0  0
   35.0740   -0.7410    0.0000 O   0  0  0  0  0  0  0  0  0  0  0  0
   36.3730    0.0100    0.0000 C   0  0  0  0  0  0  0  0  0  0  0  0
  1  2  1  0  0  0  0
  1 15  1  0  0  0  0
  2  3  2  0  0  0  0
  2  4  1  0  0  0  0
  4  5  1  0  0  0  0
  4 14  2  0  0  0  0
  5  6  2  0  0  0  0
  6  7  1  0  0  0  0
  7  8  1  0  0  0  0
  7 13  2  0  0  0  0
  8  9  1  0  0  0  0
  9 10  1  0  0  0  0
 10 11  1  0  0  0  0
 11 12  1  0  0  0  0
 13 14  1  0  0  0  0
 15 16  1  0  0  0  0
 16 17  1  0  0  0  0
 17 18  1  0  0  0  0
 18 19  1  0  0  0  0
 19 20  1  0  0  0  0
 20 21  1  0  0  0  0
 21 22  1  0  0  0  0
 22 23  1  0  0  0  0
 23 24  1  0  0  0  0
 24 25  1  0  0  0  0
 25 26  1  0  0  0  0
 26 27  1  0  0  0  0
 27 28  1  0  0  0  0
 28 29  1  0  0  0  0
 29 30  1  0  0  0  0
 30 31  1  0  0  0  0
 31 32  1  0  0  0  0
 32 33  1  0  0  0  0
 33 34  1  0  0  0  0
 34 35  1  0  0  0  0
 35 36  1  0  0  0  0
 36 37  1  0  0  0  0
 37 38  1  0  0  0  0
 38 39  1  0  0  0  0
 39 40  1  0  0  0  0
 40 41  1  0  0  0  0
 41 42  1  0  0  0  0
M  END
>  <Index>
1401

>  <ID>
HT3949

>  <class>
0

>  <apol>
98.062027

>  <ast_fraglike>
0

>  <ast_fraglike_ext>
0

>  <ast_violation>
2

>  <ast_violation_ext>
3

>  <a_acc>
10

>  <a_acid>
0

>  <a_aro>
6

>  <a_base>
0

>  <a_count>
95

>  <a_don>
1

>  <a_donacc>
11

>  <a_heavy>
42

>  <a_hyd>
29

>  <a_IC>
135.29604

>  <a_ICM>
1.4241688

>  <a_nB>
0

>  <a_nBr>
0

>  <a_nC>
30

>  <a_nCl>
0

>  <a_nF>
0

>  <a_nH>
53

>  <a_nI>
0

>  <a_nN>
1

>  <a_nO>
11

>  <a_nP>
0

>  <a_nS>
0

>  <balabanJ>
1.6966568

>  <BCUT_PEOE_0>
-2.6050131

>  <BCUT_PEOE_1>
-0.16559465

>  <BCUT_PEOE_2>
0.058272056

>  <BCUT_PEOE_3>
2.5475729

>  <BCUT_SLOGP_0>
-2.6737304

>  <BCUT_SLOGP_1>
0.025302488

>  <BCUT_SLOGP_2>
0.123

>  <BCUT_SLOGP_3>
2.6429796

>  <BCUT_SMR_0>
-2.3437107

>  <BCUT_SMR_1>
0.1057

>  <BCUT_SMR_2>
0.10718508

>  <BCUT_SMR_3>
2.7984772

>  <bpol>
78.717972

>  <b_1rotN>
32

>  <b_1rotR>
0.76190478

>  <b_ar>
6

>  <b_count>
95

>  <b_double>
1

>  <b_heavy>
42

>  <b_max1len>
29

>  <b_rotN>
33

>  <b_rotR>
0.78571427

>  <b_single>
88

>  <b_triple>
0

>  <chi0>
30.187895

>  <chi0v>
25.649374

>  <chi0v_C>
20.658644

>  <chi0_C>
21.409719

>  <chi1>
20.774387

>  <chi1v>
14.894676

>  <chi1v_C>
8.2784739

>  <chi1_C>
9.1734333

>  <chiral>
0

>  <chiral_u>
0

>  <density>
0.71939224

>  <diameter>
38

>  <FCharge>
0

>  <GCUT_PEOE_0>
-0.83028221

>  <GCUT_PEOE_1>
-0.35476676

>  <GCUT_PEOE_2>
-0.10173982

>  <GCUT_PEOE_3>
2.5581589

>  <GCUT_SLOGP_0>
-0.98143643

>  <GCUT_SLOGP_1>
-0.20645599

>  <GCUT_SLOGP_2>
-0.037

>  <GCUT_SLOGP_3>
2.5687885

>  <GCUT_SMR_0>
-0.52719438

>  <GCUT_SMR_1>
-0.10606375

>  <GCUT_SMR_2>
-0.054299999

>  <GCUT_SMR_3>
2.7834513

>  <Kier1>
40.023811

>  <Kier2>
32.395061

>  <Kier3>
27.083334

>  <KierA1>
36.500877

>  <KierA2>
29.475115

>  <KierA3>
24.602425

>  <KierFlex>
25.615894

>  <lip_acc>
12

>  <lip_don>
1

>  <lip_druglike>
0

>  <lip_violation>
2

>  <logP(o/w)>
-0.08134

>  <logS>
-3.8910301

>  <mr>
16.187717

>  <mutagenic>
0

>  <nmol>
1

>  <opr_brigid>
6

>  <opr_leadlike>
0

>  <opr_nring>
1

>  <opr_nrot>
32

>  <opr_violation>
3

>  <PC+>
0

>  <PC->
0

>  <PEOE_PC+>
4.5805273

>  <PEOE_PC->
-4.5805273

>  <PEOE_RPC+>
0.064158462

>  <PEOE_RPC->
0.083115272

>  <PEOE_VSA+0>
85.486549

>  <PEOE_VSA+1>
452.53488

>  <PEOE_VSA+2>
8.6190128

>  <PEOE_VSA+3>
0

>  <PEOE_VSA+4>
0

>  <PEOE_VSA+5>
14.708499

>  <PEOE_VSA+6>
0

>  <PEOE_VSA-0>
57.720928

>  <PEOE_VSA-1>
27.44899

>  <PEOE_VSA-2>
0

>  <PEOE_VSA-3>
0

>  <PEOE_VSA-4>
0

>  <PEOE_VSA-5>
13.703812

>  <PEOE_VSA-6>
25.037561

>  <PEOE_VSA_FHYD>
0.92200065

>  <PEOE_VSA_FNEG>
0.1808237

>  <PEOE_VSA_FPNEG>
0.05653527

>  <PEOE_VSA_FPOL>
0.077999376

>  <PEOE_VSA_FPOS>
0.81917632

>  <PEOE_VSA_FPPOS>
0.021464108

>  <PEOE_VSA_HYD>
631.81036

>  <PEOE_VSA_NEG>
123.91129

>  <PEOE_VSA_PNEG>
38.741375

>  <PEOE_VSA_POL>
53.449871

>  <PEOE_VSA_POS>
561.34894

>  <PEOE_VSA_PPOS>
14.708499

>  <petitjean>
0.5

>  <petitjeanSC>
1

>  <Q_PC+>
0

>  <Q_PC->
0

>  <Q_RPC+>
0

>  <Q_RPC->
0

>  <Q_VSA_FHYD>
1

>  <Q_VSA_FNEG>
0

>  <Q_VSA_FPNEG>
0

>  <Q_VSA_FPOL>
0

>  <Q_VSA_FPOS>
1

>  <Q_VSA_FPPOS>
0

>  <Q_VSA_HYD>
685.26025

>  <Q_VSA_NEG>
0

>  <Q_VSA_PNEG>
0

>  <Q_VSA_POL>
0

>  <Q_VSA_POS>
685.26025

>  <Q_VSA_PPOS>
0

>  <radius>
19

>  <reactive>
0

>  <rings>
1

>  <RPC+>
0

>  <RPC->
0

>  <rsynth>
1

>  <SlogP>
2.8346

>  <SlogP_VSA0>
0

>  <SlogP_VSA1>
25.756214

>  <SlogP_VSA2>
109.99888

>  <SlogP_VSA3>
395.11224

>  <SlogP_VSA4>
27.047791

>  <SlogP_VSA5>
35.383869

>  <SlogP_VSA6>
0

>  <SlogP_VSA7>
70.572739

>  <SlogP_VSA8>
37.736813

>  <SlogP_VSA9>
36.082764

>  <SMR>
15.85502

>  <SMR_VSA0>
133.8611

>  <SMR_VSA1>
0

>  <SMR_VSA2>
0

>  <SMR_VSA3>
3.185575

>  <SMR_VSA4>
20.767498

>  <SMR_VSA5>
108.30955

>  <SMR_VSA6>
402.8577

>  <SMR_VSA7>
68.709885

>  <TPSA>
121.4

>  <VAdjEq>
0.27619544

>  <VAdjMa>
6.3923173

>  <VDistEq>
4.9843016

>  <VDistMa>
10.398538

>  <vdw_area>
685.26025

>  <vdw_vol>
839.25006

>  <vsa_acc>
36.100727

>  <vsa_acid>
0

>  <vsa_base>
0

>  <vsa_don>
5.6825762

>  <vsa_hyd>
586.17798

>  <vsa_other>
17.212255

>  <vsa_pol>
41.783302

>  <Weight>
603.75

>  <weinerPath>
11488

>  <weinerPol>
45

>  <zagreb>
174

$$$$