S1C2N(C(=O)C2NC(=O)CC#N)C(C(O)=O)=C(C1)COC(=O)C
  MOE2013           2D

 23 24  0  0  1  0  0  0  0  0999 V2000
    0.0000    0.0000    0.0000 S   0  0  0  0  0  0  0  0  0  0  0  0
    0.7450    1.3020    0.0000 C   0  0  3  0  0  0  0  0  0  0  0  0
   -0.0100    2.5980    0.0000 N   0  0  0  0  0  0  0  0  0  0  0  0
    1.2860    3.3530    0.0000 C   0  0  0  0  0  0  0  0  0  0  0  0
    1.6680    4.8040    0.0000 O   0  0  0  0  0  0  0  0  0  0  0  0
    2.0410    2.0570    0.0000 C   0  0  3  0  0  0  0  0  0  0  0  0
    3.4910    1.6750    0.0000 N   0  0  0  0  0  0  0  0  0  0  0  0
    4.5480    2.7390    0.0000 C   0  0  0  0  0  0  0  0  0  0  0  0
    4.1540    4.1870    0.0000 O   0  0  0  0  0  0  0  0  0  0  0  0
    5.9980    2.3570    0.0000 C   0  0  0  0  0  0  0  0  0  0  0  0
    7.0550    3.4220    0.0000 C   0  0  0  0  0  0  0  0  0  0  0  0
    8.1110    4.4870    0.0000 N   0  0  0  0  0  0  0  0  0  0  0  0
   -1.5100    2.5920    0.0000 C   0  0  0  0  0  0  0  0  0  0  0  0
   -2.2650    3.8880    0.0000 C   0  0  0  0  0  0  0  0  0  0  0  0
   -1.5210    5.1900    0.0000 O   0  0  0  0  0  0  0  0  0  0  0  0
   -3.7650    3.8820    0.0000 O   0  0  0  0  0  0  0  0  0  0  0  0
   -2.2550    1.2900    0.0000 C   0  0  0  0  0  0  0  0  0  0  0  0
   -1.5000   -0.0060    0.0000 C   0  0  0  0  0  0  0  0  0  0  0  0
   -3.7550    1.2840    0.0000 C   0  0  0  0  0  0  0  0  0  0  0  0
   -4.5000   -0.0180    0.0000 O   0  0  0  0  0  0  0  0  0  0  0  0
   -6.0000   -0.0240    0.0000 C   0  0  0  0  0  0  0  0  0  0  0  0
   -6.7450   -1.3260    0.0000 O   0  0  0  0  0  0  0  0  0  0  0  0
   -6.7550    1.2720    0.0000 C   0  0  0  0  0  0  0  0  0  0  0  0
  1  2  1  0  0  0  0
  1 18  1  0  0  0  0
  2  3  1  0  0  0  0
  2  6  1  0  0  0  0
  3  4  1  0  0  0  0
  3 13  1  0  0  0  0
  4  5  2  0  0  0  0
  4  6  1  0  0  0  0
  6  7  1  0  0  0  0
  7  8  1  0  0  0  0
  8  9  2  0  0  0  0
  8 10  1  0  0  0  0
 10 11  1  0  0  0  0
 11 12  3  0  0  0  0
 13 14  1  0  0  0  0
 13 17  2  0  0  0  0
 14 15  1  0  0  0  0
 14 16  2  0  0  0  0
 17 18  1  0  0  0  0
 17 19  1  0  0  0  0
 19 20  1  0  0  0  0
 20 21  1  0  0  0  0
 21 22  2  0  0  0  0
 21 23  1  0  0  0  0
M  END
>  <Index>
200

>  <ID>
HT0393

>  <class>
0

>  <apol>
42.56031

>  <ast_fraglike>
0

>  <ast_fraglike_ext>
0

>  <ast_violation>
2

>  <ast_violation_ext>
4

>  <a_acc>
6

>  <a_acid>
0

>  <a_aro>
0

>  <a_base>
0

>  <a_count>
36

>  <a_don>
3

>  <a_donacc>
9

>  <a_heavy>
23

>  <a_hyd>
9

>  <a_IC>
69.641205

>  <a_ICM>
1.9344779

>  <a_nB>
0

>  <a_nBr>
0

>  <a_nC>
13

>  <a_nCl>
0

>  <a_nF>
0

>  <a_nH>
13

>  <a_nI>
0

>  <a_nN>
3

>  <a_nO>
6

>  <a_nP>
0

>  <a_nS>
1

>  <balabanJ>
1.9923608

>  <BCUT_PEOE_0>
-2.6866961

>  <BCUT_PEOE_1>
-0.50036347

>  <BCUT_PEOE_2>
0.40544888

>  <BCUT_PEOE_3>
2.7367017

>  <BCUT_SLOGP_0>
-2.8937635

>  <BCUT_SLOGP_1>
-0.43955374

>  <BCUT_SLOGP_2>
0.40919811

>  <BCUT_SLOGP_3>
2.6134338

>  <BCUT_SMR_0>
-2.4033723

>  <BCUT_SMR_1>
-0.25523451

>  <BCUT_SMR_2>
0.58855718

>  <BCUT_SMR_3>
3.0177386

>  <bpol>
25.539692

>  <b_1rotN>
5

>  <b_1rotR>
0.20833333

>  <b_ar>
0

>  <b_count>
37

>  <b_double>
5

>  <b_heavy>
24

>  <b_max1len>
3

>  <b_rotN>
8

>  <b_rotR>
0.33333334

>  <b_single>
31

>  <b_triple>
1

>  <chi0>
17.145901

>  <chi0v>
12.883648

>  <chi0v_C>
7.776021

>  <chi0_C>
8.4472294

>  <chi1>
10.86228

>  <chi1v>
7.6099515

>  <chi1v_C>
3.036222

>  <chi1_C>
3.6354284

>  <chiral>
2

>  <chiral_u>
2

>  <density>
0.89472431

>  <diameter>
13

>  <FCharge>
0

>  <GCUT_PEOE_0>
-0.82436246

>  <GCUT_PEOE_1>
-0.46563095

>  <GCUT_PEOE_2>
0.071066134

>  <GCUT_PEOE_3>
2.541002

>  <GCUT_SLOGP_0>
-1.1645759

>  <GCUT_SLOGP_1>
-0.43085968

>  <GCUT_SLOGP_2>
0.086346731

>  <GCUT_SLOGP_3>
2.4740677

>  <GCUT_SMR_0>
-0.5291577

>  <GCUT_SMR_1>
-0.21182747

>  <GCUT_SMR_2>
0.23986857

>  <GCUT_SMR_3>
2.8108072

>  <Kier1>
19.326389

>  <Kier2>
8.3927336

>  <Kier3>
4.3456788

>  <KierA1>
15.439127

>  <KierA2>
6.6315494

>  <KierA3>
3.405302

>  <KierFlex>
4.4515362

>  <lip_acc>
9

>  <lip_don>
2

>  <lip_druglike>
1

>  <lip_violation>
0

>  <logP(o/w)>
-1.37

>  <logS>
-2.2516

>  <mr>
7.984796

>  <mutagenic>
0

>  <nmol>
1

>  <opr_brigid>
9

>  <opr_leadlike>
1

>  <opr_nring>
2

>  <opr_nrot>
6

>  <opr_violation>
1

>  <PC+>
0

>  <PC->
0

>  <PEOE_PC+>
2.6634536

>  <PEOE_PC->
-2.6634536

>  <PEOE_RPC+>
0.11563464

>  <PEOE_RPC->
0.12815417

>  <PEOE_VSA+0>
50.751984

>  <PEOE_VSA+1>
60.843117

>  <PEOE_VSA+2>
23.668848

>  <PEOE_VSA+3>
8.6190128

>  <PEOE_VSA+4>
23.273705

>  <PEOE_VSA+5>
27.65803

>  <PEOE_VSA+6>
14.708499

>  <PEOE_VSA-0>
2.2085397

>  <PEOE_VSA-1>
0

>  <PEOE_VSA-2>
19.760618

>  <PEOE_VSA-3>
17.742489

>  <PEOE_VSA-4>
0

>  <PEOE_VSA-5>
54.267685

>  <PEOE_VSA-6>
10.408187

>  <PEOE_VSA_FHYD>
0.58486253

>  <PEOE_VSA_FNEG>
0.33253887

>  <PEOE_VSA_FPNEG>
0.20603269

>  <PEOE_VSA_FPOL>
0.4151375

>  <PEOE_VSA_FPOS>
0.6674611

>  <PEOE_VSA_FPPOS>
0.20910479

>  <PEOE_VSA_HYD>
183.5946

>  <PEOE_VSA_NEG>
104.38752

>  <PEOE_VSA_PNEG>
64.675873

>  <PEOE_VSA_POL>
130.3161

>  <PEOE_VSA_POS>
209.52319

>  <PEOE_VSA_PPOS>
65.640236

>  <petitjean>
0.46153846

>  <petitjeanSC>
0.85714287

>  <Q_PC+>
0

>  <Q_PC->
0

>  <Q_RPC+>
0

>  <Q_RPC->
0

>  <Q_VSA_FHYD>
1

>  <Q_VSA_FNEG>
0

>  <Q_VSA_FPNEG>
0

>  <Q_VSA_FPOL>
0

>  <Q_VSA_FPOS>
1

>  <Q_VSA_FPPOS>
0

>  <Q_VSA_HYD>
313.91071

>  <Q_VSA_NEG>
0

>  <Q_VSA_PNEG>
0

>  <Q_VSA_POL>
0

>  <Q_VSA_POS>
313.91071

>  <Q_VSA_PPOS>
0

>  <radius>
7

>  <reactive>
0

>  <rings>
2

>  <RPC+>
0

>  <RPC->
0

>  <rsynth>
1

>  <SlogP>
-0.79821599

>  <SlogP_VSA0>
18.01075

>  <SlogP_VSA1>
29.132809

>  <SlogP_VSA2>
112.77785

>  <SlogP_VSA3>
111.20615

>  <SlogP_VSA4>
0

>  <SlogP_VSA5>
5.9423227

>  <SlogP_VSA6>
0

>  <SlogP_VSA7>
0

>  <SlogP_VSA8>
18.868406

>  <SlogP_VSA9>
65.545555

>  <SMR>
7.65485

>  <SMR_VSA0>
106.44875

>  <SMR_VSA1>
34.18367

>  <SMR_VSA2>
43.395977

>  <SMR_VSA3>
28.873165

>  <SMR_VSA4>
0

>  <SMR_VSA5>
18.868406

>  <SMR_VSA6>
64.16832

>  <SMR_VSA7>
65.545555

>  <TPSA>
136.8

>  <VAdjEq>
0.43892586

>  <VAdjMa>
5.5849624

>  <VDistEq>
3.3769364

>  <VDistMa>
8.7497358

>  <vdw_area>
313.91071

>  <vdw_vol>
379.25424

>  <vsa_acc>
58.443253

>  <vsa_acid>
0

>  <vsa_base>
0

>  <vsa_don>
5.6825762

>  <vsa_hyd>
129.10385

>  <vsa_other>
78.119324

>  <vsa_pol>
91.259666

>  <Weight>
339.328

>  <weinerPath>
1242

>  <weinerPol>
34

>  <zagreb>
116

$$$$