Clc1ccc(OC(C(OCC)=O)(C)C)cc1
  MOE2013           2D

 16 16  0  0  0  0  0  0  0  0999 V2000
    0.0000    0.0000    0.0000 Cl  0  0  0  0  0  0  0  0  0  0  0  0
    1.4160    0.4950    0.0000 C   0  0  0  0  0  0  0  0  0  0  0  0
    2.5530   -0.4840    0.0000 C   0  0  0  0  0  0  0  0  0  0  0  0
    3.9690    0.0110    0.0000 C   0  0  0  0  0  0  0  0  0  0  0  0
    4.2480    1.4850    0.0000 C   0  0  0  0  0  0  0  0  0  0  0  0
    5.6640    1.9800    0.0000 O   0  0  0  0  0  0  0  0  0  0  0  0
    6.8010    1.0010    0.0000 C   0  0  0  0  0  0  0  0  0  0  0  0
    7.9370    0.0230    0.0000 C   0  0  0  0  0  0  0  0  0  0  0  0
    9.3530    0.5180    0.0000 O   0  0  0  0  0  0  0  0  0  0  0  0
   10.4900   -0.4610    0.0000 C   0  0  0  0  0  0  0  0  0  0  0  0
   11.9060    0.0340    0.0000 C   0  0  0  0  0  0  0  0  0  0  0  0
    7.6580   -1.4510    0.0000 O   0  0  0  0  0  0  0  0  0  0  0  0
    5.8220   -0.1350    0.0000 C   0  0  0  0  0  0  0  0  0  0  0  0
    7.7790    2.1380    0.0000 C   0  0  0  0  0  0  0  0  0  0  0  0
    3.1110    2.4640    0.0000 C   0  0  0  0  0  0  0  0  0  0  0  0
    1.6950    1.9690    0.0000 C   0  0  0  0  0  0  0  0  0  0  0  0
  1  2  1  0  0  0  0
  2  3  1  0  0  0  0
  2 16  2  0  0  0  0
  3  4  2  0  0  0  0
  4  5  1  0  0  0  0
  5  6  1  0  0  0  0
  5 15  2  0  0  0  0
  6  7  1  0  0  0  0
  7  8  1  0  0  0  0
  7 13  1  0  0  0  0
  7 14  1  0  0  0  0
  8  9  1  0  0  0  0
  8 12  2  0  0  0  0
  9 10  1  0  0  0  0
 10 11  1  0  0  0  0
 15 16  1  0  0  0  0
M  END
>  <Index>
250

>  <ID>
HT0523

>  <class>
0

>  <apol>
35.707893

>  <ast_fraglike>
0

>  <ast_fraglike_ext>
0

>  <ast_violation>
1

>  <ast_violation_ext>
2

>  <a_acc>
2

>  <a_acid>
0

>  <a_aro>
6

>  <a_base>
0

>  <a_count>
31

>  <a_don>
0

>  <a_donacc>
2

>  <a_heavy>
16

>  <a_hyd>
12

>  <a_IC>
47.20229

>  <a_ICM>
1.5226545

>  <a_nB>
0

>  <a_nBr>
0

>  <a_nC>
12

>  <a_nCl>
1

>  <a_nF>
0

>  <a_nH>
15

>  <a_nI>
0

>  <a_nN>
0

>  <a_nO>
3

>  <a_nP>
0

>  <a_nS>
0

>  <balabanJ>
2.404058

>  <BCUT_PEOE_0>
-2.5244689

>  <BCUT_PEOE_1>
-0.5300836

>  <BCUT_PEOE_2>
0.52134329

>  <BCUT_PEOE_3>
2.5879805

>  <BCUT_SLOGP_0>
-2.6175368

>  <BCUT_SLOGP_1>
-0.23483787

>  <BCUT_SLOGP_2>
0.64172256

>  <BCUT_SLOGP_3>
2.535018

>  <BCUT_SMR_0>
-2.30597

>  <BCUT_SMR_1>
-0.23576002

>  <BCUT_SMR_2>
0.77998626

>  <BCUT_SMR_3>
2.7985971

>  <bpol>
21.608105

>  <b_1rotN>
4

>  <b_1rotR>
0.25

>  <b_ar>
6

>  <b_count>
31

>  <b_double>
1

>  <b_heavy>
16

>  <b_max1len>
4

>  <b_rotN>
5

>  <b_rotR>
0.3125

>  <b_single>
24

>  <b_triple>
0

>  <chi0>
12.181798

>  <chi0v>
10.375146

>  <chi0v_C>
8.0165081

>  <chi0_C>
8.7675848

>  <chi1>
7.4535255

>  <chi1v>
5.4505925

>  <chi1v_C>
3.7784741

>  <chi1_C>
4.6287751

>  <chiral>
0

>  <chiral_u>
0

>  <density>
0.77317625

>  <diameter>
10

>  <FCharge>
0

>  <GCUT_PEOE_0>
-0.76694036

>  <GCUT_PEOE_1>
-0.37800694

>  <GCUT_PEOE_2>
0.0082718898

>  <GCUT_PEOE_3>
2.3721468

>  <GCUT_SLOGP_0>
-0.93322021

>  <GCUT_SLOGP_1>
-0.26386139

>  <GCUT_SLOGP_2>
0.11557441

>  <GCUT_SLOGP_3>
2.4356623

>  <GCUT_SMR_0>
-0.51889539

>  <GCUT_SMR_1>
-0.13124925

>  <GCUT_SMR_2>
0.19305076

>  <GCUT_SMR_3>
2.6124511

>  <Kier1>
14.0625

>  <Kier2>
6.0743804

>  <Kier3>
4.4236112

>  <KierA1>
12.412782

>  <KierA2>
5.3141527

>  <KierA3>
3.8441346

>  <KierFlex>
4.1227136

>  <lip_acc>
3

>  <lip_don>
0

>  <lip_druglike>
1

>  <lip_violation>
0

>  <logP(o/w)>
3.1847401

>  <logS>
-3.55935

>  <mr>
6.4324989

>  <mutagenic>
0

>  <nmol>
1

>  <opr_brigid>
6

>  <opr_leadlike>
1

>  <opr_nring>
1

>  <opr_nrot>
4

>  <opr_violation>
0

>  <PC+>
0

>  <PC->
0

>  <PEOE_PC+>
1.2231697

>  <PEOE_PC->
-1.2231697

>  <PEOE_RPC+>
0.24064171

>  <PEOE_RPC->
0.26880941

>  <PEOE_VSA+0>
42.908222

>  <PEOE_VSA+1>
49.002129

>  <PEOE_VSA+2>
0

>  <PEOE_VSA+3>
0

>  <PEOE_VSA+4>
0

>  <PEOE_VSA+5>
14.708499

>  <PEOE_VSA+6>
0

>  <PEOE_VSA-0>
105.26265

>  <PEOE_VSA-1>
29.581947

>  <PEOE_VSA-2>
0

>  <PEOE_VSA-3>
0

>  <PEOE_VSA-4>
0

>  <PEOE_VSA-5>
13.566921

>  <PEOE_VSA-6>
5.0075121

>  <PEOE_VSA_FHYD>
0.87200737

>  <PEOE_VSA_FNEG>
0.58998722

>  <PEOE_VSA_FPNEG>
0.071429722

>  <PEOE_VSA_FPOL>
0.12799263

>  <PEOE_VSA_FPOS>
0.41001275

>  <PEOE_VSA_FPPOS>
0.056562912

>  <PEOE_VSA_HYD>
226.75494

>  <PEOE_VSA_NEG>
153.41902

>  <PEOE_VSA_PNEG>
18.574432

>  <PEOE_VSA_POL>
33.282932

>  <PEOE_VSA_POS>
106.61885

>  <PEOE_VSA_PPOS>
14.708499

>  <petitjean>
0.5

>  <petitjeanSC>
1

>  <Q_PC+>
0

>  <Q_PC->
0

>  <Q_RPC+>
0

>  <Q_RPC->
0

>  <Q_VSA_FHYD>
1

>  <Q_VSA_FNEG>
0

>  <Q_VSA_FPNEG>
0

>  <Q_VSA_FPOL>
0

>  <Q_VSA_FPOS>
1

>  <Q_VSA_FPPOS>
0

>  <Q_VSA_HYD>
260.03787

>  <Q_VSA_NEG>
0

>  <Q_VSA_PNEG>
0

>  <Q_VSA_POL>
0

>  <Q_VSA_POS>
260.03787

>  <Q_VSA_PPOS>
0

>  <radius>
5

>  <reactive>
0

>  <rings>
1

>  <RPC+>
0

>  <RPC->
0

>  <rsynth>
1

>  <SlogP>
3.0604999

>  <SlogP_VSA0>
10.999887

>  <SlogP_VSA1>
7.7454643

>  <SlogP_VSA2>
34.862103

>  <SlogP_VSA3>
20.926258

>  <SlogP_VSA4>
0

>  <SlogP_VSA5>
0

>  <SlogP_VSA6>
3.5006065

>  <SlogP_VSA7>
70.572739

>  <SlogP_VSA8>
0

>  <SlogP_VSA9>
144.37012

>  <SMR>
6.2792001

>  <SMR_VSA0>
34.862103

>  <SMR_VSA1>
10.999887

>  <SMR_VSA2>
0

>  <SMR_VSA3>
8.7440348

>  <SMR_VSA4>
0

>  <SMR_VSA5>
70.572739

>  <SMR_VSA6>
28.671722

>  <SMR_VSA7>
139.12669

>  <TPSA>
35.529999

>  <VAdjEq>
0.54356444

>  <VAdjMa>
5

>  <VDistEq>
3.006676

>  <VDistMa>
7.6837072

>  <vdw_area>
260.03787

>  <vdw_vol>
313.90256

>  <vsa_acc>
16.070677

>  <vsa_acid>
0

>  <vsa_base>
0

>  <vsa_don>
0

>  <vsa_hyd>
216.07802

>  <vsa_other>
17.212255

>  <vsa_pol>
16.070677

>  <Weight>
242.702

>  <weinerPath>
468

>  <weinerPol>
21

>  <zagreb>
76

$$$$