S1C2N(C(=O)C2NC(=O)C(N)c2ccccc2)C(C(O)=O)=C(C1)COC(=O)C
  MOE2013           2D

 28 30  0  0  1  0  0  0  0  0999 V2000
    0.0000    0.0000    0.0000 S   0  0  0  0  0  0  0  0  0  0  0  0
   -0.7420   -1.3040    0.0000 C   0  0  3  0  0  0  0  0  0  0  0  0
    0.0170   -2.5980    0.0000 N   0  0  0  0  0  0  0  0  0  0  0  0
   -1.2770   -3.3560    0.0000 C   0  0  0  0  0  0  0  0  0  0  0  0
   -1.6560   -4.8080    0.0000 O   0  0  0  0  0  0  0  0  0  0  0  0
   -2.0360   -2.0620    0.0000 C   0  0  3  0  0  0  0  0  0  0  0  0
   -3.4870   -1.6840    0.0000 N   0  0  0  0  0  0  0  0  0  0  0  0
   -4.5410   -2.7510    0.0000 C   0  0  0  0  0  0  0  0  0  0  0  0
   -4.1430   -4.1970    0.0000 O   0  0  0  0  0  0  0  0  0  0  0  0
   -5.9920   -2.3720    0.0000 C   0  0  3  0  0  0  0  0  0  0  0  0
   -6.3900   -0.9260    0.0000 N   0  0  0  0  0  0  0  0  0  0  0  0
   -7.0460   -3.4400    0.0000 C   0  0  0  0  0  0  0  0  0  0  0  0
   -8.4970   -3.0610    0.0000 C   0  0  0  0  0  0  0  0  0  0  0  0
   -9.5510   -4.1290    0.0000 C   0  0  0  0  0  0  0  0  0  0  0  0
   -9.1530   -5.5750    0.0000 C   0  0  0  0  0  0  0  0  0  0  0  0
   -7.7020   -5.9540    0.0000 C   0  0  0  0  0  0  0  0  0  0  0  0
   -6.6480   -4.8860    0.0000 C   0  0  0  0  0  0  0  0  0  0  0  0
    1.5170   -2.5880    0.0000 C   0  0  0  0  0  0  0  0  0  0  0  0
    2.2750   -3.8820    0.0000 C   0  0  0  0  0  0  0  0  0  0  0  0
    1.5340   -5.1860    0.0000 O   0  0  0  0  0  0  0  0  0  0  0  0
    3.7750   -3.8730    0.0000 O   0  0  0  0  0  0  0  0  0  0  0  0
    2.2580   -1.2840    0.0000 C   0  0  0  0  0  0  0  0  0  0  0  0
    1.5000    0.0100    0.0000 C   0  0  0  0  0  0  0  0  0  0  0  0
    3.7580   -1.2750    0.0000 C   0  0  0  0  0  0  0  0  0  0  0  0
    4.5000    0.0290    0.0000 O   0  0  0  0  0  0  0  0  0  0  0  0
    6.0000    0.0390    0.0000 C   0  0  0  0  0  0  0  0  0  0  0  0
    6.7580   -1.2550    0.0000 O   0  0  0  0  0  0  0  0  0  0  0  0
    6.7410    1.3430    0.0000 C   0  0  0  0  0  0  0  0  0  0  0  0
  1  2  1  0  0  0  0
  1 23  1  0  0  0  0
  2  3  1  0  0  0  0
  2  6  1  0  0  0  0
  3  4  1  0  0  0  0
  3 18  1  0  0  0  0
  4  5  2  0  0  0  0
  4  6  1  0  0  0  0
  6  7  1  0  0  0  0
  7  8  1  0  0  0  0
  8  9  2  0  0  0  0
  8 10  1  0  0  0  0
 10 11  1  0  0  0  0
 10 12  1  0  0  0  0
 12 13  1  0  0  0  0
 12 17  2  0  0  0  0
 13 14  2  0  0  0  0
 14 15  1  0  0  0  0
 15 16  2  0  0  0  0
 16 17  1  0  0  0  0
 18 19  1  0  0  0  0
 18 22  2  0  0  0  0
 19 20  1  0  0  0  0
 19 21  2  0  0  0  0
 22 23  1  0  0  0  0
 22 24  1  0  0  0  0
 24 25  1  0  0  0  0
 25 26  1  0  0  0  0
 26 27  2  0  0  0  0
 26 28  1  0  0  0  0
M  END
>  <Index>
208

>  <ID>
HT0432

>  <class>
0

>  <apol>
55.361069

>  <ast_fraglike>
0

>  <ast_fraglike_ext>
0

>  <ast_violation>
3

>  <ast_violation_ext>
5

>  <a_acc>
6

>  <a_acid>
0

>  <a_aro>
6

>  <a_base>
0

>  <a_count>
47

>  <a_don>
4

>  <a_donacc>
10

>  <a_heavy>
28

>  <a_hyd>
15

>  <a_IC>
85.031738

>  <a_ICM>
1.809186

>  <a_nB>
0

>  <a_nBr>
0

>  <a_nC>
18

>  <a_nCl>
0

>  <a_nF>
0

>  <a_nH>
19

>  <a_nI>
0

>  <a_nN>
3

>  <a_nO>
6

>  <a_nP>
0

>  <a_nS>
1

>  <balabanJ>
1.5836276

>  <BCUT_PEOE_0>
-2.6893158

>  <BCUT_PEOE_1>
-0.57411802

>  <BCUT_PEOE_2>
0.60835683

>  <BCUT_PEOE_3>
2.738178

>  <BCUT_SLOGP_0>
-2.8989711

>  <BCUT_SLOGP_1>
-0.51482373

>  <BCUT_SLOGP_2>
0.6292091

>  <BCUT_SLOGP_3>
2.614476

>  <BCUT_SMR_0>
-2.4055424

>  <BCUT_SMR_1>
-0.40898728

>  <BCUT_SMR_2>
0.75182837

>  <BCUT_SMR_3>
3.0194616

>  <bpol>
30.778933

>  <b_1rotN>
6

>  <b_1rotR>
0.2

>  <b_ar>
6

>  <b_count>
49

>  <b_double>
5

>  <b_heavy>
30

>  <b_max1len>
3

>  <b_rotN>
8

>  <b_rotR>
0.26666668

>  <b_single>
38

>  <b_triple>
0

>  <chi0>
20.421921

>  <chi0v>
15.77078

>  <chi0v_C>
10.533015

>  <chi0_C>
11.72325

>  <chi1>
13.307438

>  <chi1v>
9.5006046

>  <chi1v_C>
4.8171492

>  <chi1_C>
6.2103434

>  <chiral>
3

>  <chiral_u>
3

>  <density>
0.83858675

>  <diameter>
15

>  <FCharge>
0

>  <GCUT_PEOE_0>
-0.82505697

>  <GCUT_PEOE_1>
-0.43124837

>  <GCUT_PEOE_2>
0.073037945

>  <GCUT_PEOE_3>
2.644778

>  <GCUT_SLOGP_0>
-1.3374572

>  <GCUT_SLOGP_1>
-0.38195735

>  <GCUT_SLOGP_2>
0.13208273

>  <GCUT_SLOGP_3>
2.6006615

>  <GCUT_SMR_0>
-0.52941358

>  <GCUT_SMR_1>
-0.22406815

>  <GCUT_SMR_2>
0.2095685

>  <GCUT_SMR_3>
2.917402

>  <Kier1>
22.68

>  <Kier2>
9.8712816

>  <Kier3>
5.0237813

>  <KierA1>
18.248741

>  <KierA2>
7.8747602

>  <KierA3>
3.9832864

>  <KierFlex>
5.1323018

>  <lip_acc>
9

>  <lip_don>
4

>  <lip_druglike>
1

>  <lip_violation>
0

>  <logP(o/w)>
0.046999998

>  <logS>
-3.45157

>  <mr>
10.183494

>  <mutagenic>
0

>  <nmol>
1

>  <opr_brigid>
15

>  <opr_leadlike>
1

>  <opr_nring>
3

>  <opr_nrot>
6

>  <opr_violation>
1

>  <PC+>
0

>  <PC->
0

>  <PEOE_PC+>
3.1013184

>  <PEOE_PC->
-3.1013184

>  <PEOE_RPC+>
0.099308558

>  <PEOE_RPC->
0.10982288

>  <PEOE_VSA+0>
50.751984

>  <PEOE_VSA+1>
57.605152

>  <PEOE_VSA+2>
35.351521

>  <PEOE_VSA+3>
8.6190128

>  <PEOE_VSA+4>
23.273705

>  <PEOE_VSA+5>
27.65803

>  <PEOE_VSA+6>
14.708499

>  <PEOE_VSA-0>
4.4170794

>  <PEOE_VSA-1>
61.274521

>  <PEOE_VSA-2>
19.760618

>  <PEOE_VSA-3>
0

>  <PEOE_VSA-4>
0

>  <PEOE_VSA-5>
54.267685

>  <PEOE_VSA-6>
17.059307

>  <PEOE_VSA_FHYD>
0.6345076

>  <PEOE_VSA_FNEG>
0.41836002

>  <PEOE_VSA_FPNEG>
0.19033366

>  <PEOE_VSA_FPOL>
0.3654924

>  <PEOE_VSA_FPOS>
0.58164001

>  <PEOE_VSA_FPPOS>
0.17515874

>  <PEOE_VSA_HYD>
237.77989

>  <PEOE_VSA_NEG>
156.77921

>  <PEOE_VSA_PNEG>
71.326988

>  <PEOE_VSA_POL>
136.96722

>  <PEOE_VSA_POS>
217.9679

>  <PEOE_VSA_PPOS>
65.640236

>  <petitjean>
0.46666667

>  <petitjeanSC>
0.875

>  <Q_PC+>
0

>  <Q_PC->
0

>  <Q_RPC+>
0

>  <Q_RPC->
0

>  <Q_VSA_FHYD>
1

>  <Q_VSA_FNEG>
0

>  <Q_VSA_FPNEG>
0

>  <Q_VSA_FPOL>
0

>  <Q_VSA_FPOS>
1

>  <Q_VSA_FPPOS>
0

>  <Q_VSA_HYD>
374.7471

>  <Q_VSA_NEG>
0

>  <Q_VSA_PNEG>
0

>  <Q_VSA_POL>
0

>  <Q_VSA_POS>
374.7471

>  <Q_VSA_PPOS>
0

>  <radius>
8

>  <reactive>
0

>  <rings>
3

>  <RPC+>
0

>  <RPC->
0

>  <rsynth>
1

>  <SlogP>
0.0836

>  <SlogP_VSA0>
50.90794

>  <SlogP_VSA1>
29.132809

>  <SlogP_VSA2>
112.77785

>  <SlogP_VSA3>
63.545048

>  <SlogP_VSA4>
3.185575

>  <SlogP_VSA5>
5.9423227

>  <SlogP_VSA6>
0

>  <SlogP_VSA7>
88.215919

>  <SlogP_VSA8>
3.9819686

>  <SlogP_VSA9>
65.545555

>  <SMR>
9.97999

>  <SMR_VSA0>
106.44875

>  <SMR_VSA1>
3.1243138

>  <SMR_VSA2>
43.395977

>  <SMR_VSA3>
19.438963

>  <SMR_VSA4>
32.897186

>  <SMR_VSA5>
88.215919

>  <SMR_VSA6>
64.16832

>  <SMR_VSA7>
65.545555

>  <TPSA>
139.03

>  <VAdjEq>
0.38983503

>  <VAdjMa>
5.9068904

>  <VDistEq>
3.6340663

>  <VDistMa>
9.3121147

>  <vdw_area>
374.7471

>  <vdw_vol>
483.46936

>  <vsa_acc>
40.700764

>  <vsa_acid>
0

>  <vsa_base>
0

>  <vsa_don>
5.6825762

>  <vsa_hyd>
201.24591

>  <vsa_other>
57.819817

>  <vsa_pol>
91.259666

>  <Weight>
405.431

>  <weinerPath>
2172

>  <weinerPol>
44

>  <zagreb>
146

$$$$