O(CC)c1cc(N)c([N+](=O)[O-])cc1C(=O)NC1CCN(CC1)CC1CCC=CC1
  MOE2013           2D

 29 31  0  0  1  0  0  0  0  0999 V2000
    0.0000    0.0000    0.0000 O   0  0  0  0  0  0  0  0  0  0  0  0
   -1.2990    0.7500    0.0000 C   0  0  0  0  0  0  0  0  0  0  0  0
   -1.2980    2.2500    0.0000 C   0  0  0  0  0  0  0  0  0  0  0  0
   -0.0010   -1.5000    0.0000 C   0  0  0  0  0  0  0  0  0  0  0  0
   -1.3000   -2.2500    0.0000 C   0  0  0  0  0  0  0  0  0  0  0  0
   -1.3000   -3.7500    0.0000 C   0  0  0  0  0  0  0  0  0  0  0  0
   -2.6000   -4.4990    0.0000 N   0  0  0  0  0  0  0  0  0  0  0  0
   -0.0020   -4.5000    0.0000 C   0  0  0  0  0  0  0  0  0  0  0  0
   -0.0020   -6.0000    0.0000 N   0  3  0  0  0  0  0  0  0  0  0  0
   -1.3010   -6.7500    0.0000 O   0  0  0  0  0  0  0  0  0  0  0  0
    1.2970   -6.7500    0.0000 O   0  5  0  0  0  0  0  0  0  0  0  0
    1.2980   -3.7500    0.0000 C   0  0  0  0  0  0  0  0  0  0  0  0
    1.2980   -2.2500    0.0000 C   0  0  0  0  0  0  0  0  0  0  0  0
    2.5980   -1.5010    0.0000 C   0  0  0  0  0  0  0  0  0  0  0  0
    2.5980   -0.0010    0.0000 O   0  0  0  0  0  0  0  0  0  0  0  0
    3.8960   -2.2510    0.0000 N   0  0  0  0  0  0  0  0  0  0  0  0
    5.1960   -1.5020    0.0000 C   0  0  0  0  0  0  0  0  0  0  0  0
    5.1960   -0.0020    0.0000 C   0  0  0  0  0  0  0  0  0  0  0  0
    6.4950    0.7480    0.0000 C   0  0  0  0  0  0  0  0  0  0  0  0
    7.7940   -0.0030    0.0000 N   0  0  0  0  0  0  0  0  0  0  0  0
    7.7940   -1.5030    0.0000 C   0  0  0  0  0  0  0  0  0  0  0  0
    6.4940   -2.2520    0.0000 C   0  0  0  0  0  0  0  0  0  0  0  0
    9.0940    0.7470    0.0000 C   0  0  0  0  0  0  0  0  0  0  0  0
   10.3920   -0.0040    0.0000 C   0  0  3  0  0  0  0  0  0  0  0  0
   10.3920   -1.5040    0.0000 C   0  0  0  0  0  0  0  0  0  0  0  0
   11.6910   -2.2540    0.0000 C   0  0  0  0  0  0  0  0  0  0  0  0
   12.9900   -1.5040    0.0000 C   0  0  0  0  0  0  0  0  0  0  0  0
   12.9900   -0.0040    0.0000 C   0  0  0  0  0  0  0  0  0  0  0  0
   11.6920    0.7460    0.0000 C   0  0  0  0  0  0  0  0  0  0  0  0
  1  2  1  0  0  0  0
  1  4  1  0  0  0  0
  2  3  1  0  0  0  0
  4  5  1  0  0  0  0
  4 13  2  0  0  0  0
  5  6  2  0  0  0  0
  6  7  1  0  0  0  0
  6  8  1  0  0  0  0
  8  9  1  0  0  0  0
  8 12  2  0  0  0  0
  9 10  2  0  0  0  0
  9 11  1  0  0  0  0
 12 13  1  0  0  0  0
 13 14  1  0  0  0  0
 14 15  2  0  0  0  0
 14 16  1  0  0  0  0
 16 17  1  0  0  0  0
 17 18  1  0  0  0  0
 17 22  1  0  0  0  0
 18 19  1  0  0  0  0
 19 20  1  0  0  0  0
 20 21  1  0  0  0  0
 20 23  1  0  0  0  0
 21 22  1  0  0  0  0
 23 24  1  0  0  0  0
 24 25  1  0  0  0  0
 24 29  1  0  0  0  0
 25 26  1  0  0  0  0
 26 27  1  0  0  0  0
 27 28  2  0  0  0  0
 28 29  1  0  0  0  0
M  CHG  1   9   1
M  CHG  1  11  -1
M  END
>  <Index>
232

>  <ID>
HT0490

>  <class>
0

>  <apol>
64.571793

>  <ast_fraglike>
0

>  <ast_fraglike_ext>
0

>  <ast_violation>
2

>  <ast_violation_ext>
3

>  <a_acc>
3

>  <a_acid>
0

>  <a_aro>
6

>  <a_base>
0

>  <a_count>
59

>  <a_don>
2

>  <a_donacc>
5

>  <a_heavy>
29

>  <a_hyd>
21

>  <a_IC>
91.630554

>  <a_ICM>
1.5530603

>  <a_nB>
0

>  <a_nBr>
0

>  <a_nC>
21

>  <a_nCl>
0

>  <a_nF>
0

>  <a_nH>
30

>  <a_nI>
0

>  <a_nN>
4

>  <a_nO>
4

>  <a_nP>
0

>  <a_nS>
0

>  <balabanJ>
1.4722625

>  <BCUT_PEOE_0>
-2.8230219

>  <BCUT_PEOE_1>
-0.50143015

>  <BCUT_PEOE_2>
0.5426985

>  <BCUT_PEOE_3>
2.7469709

>  <BCUT_SLOGP_0>
-2.8790925

>  <BCUT_SLOGP_1>
-0.43096974

>  <BCUT_SLOGP_2>
0.6189009

>  <BCUT_SLOGP_3>
2.7775977

>  <BCUT_SMR_0>
-2.5514081

>  <BCUT_SMR_1>
-0.37619519

>  <BCUT_SMR_2>
0.65809757

>  <BCUT_SMR_3>
3.0129387

>  <bpol>
38.906212

>  <b_1rotN>
7

>  <b_1rotR>
0.22580644

>  <b_ar>
6

>  <b_count>
61

>  <b_double>
3

>  <b_heavy>
31

>  <b_max1len>
3

>  <b_rotN>
8

>  <b_rotR>
0.25806451

>  <b_single>
52

>  <b_triple>
0

>  <chi0>
20.802753

>  <chi0v>
16.932833

>  <chi0v_C>
13.328063

>  <chi0_C>
14.23384

>  <chi1>
13.973565

>  <chi1v>
10.364591

>  <chi1v_C>
7.3028789

>  <chi1_C>
8.381341

>  <chiral>
1

>  <chiral_u>
1

>  <density>
0.73687696

>  <diameter>
15

>  <FCharge>
0

>  <GCUT_PEOE_0>
-0.85908657

>  <GCUT_PEOE_1>
-0.39790255

>  <GCUT_PEOE_2>
0.059866268

>  <GCUT_PEOE_3>
2.8639283

>  <GCUT_SLOGP_0>
-1.334348

>  <GCUT_SLOGP_1>
-0.29994178

>  <GCUT_SLOGP_2>
0.14066255

>  <GCUT_SLOGP_3>
2.8944921

>  <GCUT_SMR_0>
-0.52756822

>  <GCUT_SMR_1>
-0.19694977

>  <GCUT_SMR_2>
0.17211623

>  <GCUT_SMR_3>
3.1025543

>  <Kier1>
23.658689

>  <Kier2>
11.571428

>  <Kier3>
6.7383409

>  <KierA1>
18.949461

>  <KierA2>
9.1902103

>  <KierA3>
5.3184586

>  <KierFlex>
6.005156

>  <lip_acc>
8

>  <lip_don>
3

>  <lip_druglike>
1

>  <lip_violation>
0

>  <logP(o/w)>
2.562

>  <logS>
-3.8800299

>  <mr>
10.992133

>  <mutagenic>
1

>  <nmol>
1

>  <opr_brigid>
18

>  <opr_leadlike>
1

>  <opr_nring>
3

>  <opr_nrot>
10

>  <opr_violation>
0

>  <PC+>
0

>  <PC->
0

>  <PEOE_PC+>
2.4738812

>  <PEOE_PC->
-2.4738812

>  <PEOE_RPC+>
0.11696444

>  <PEOE_RPC->
0.14112361

>  <PEOE_VSA+0>
140.28555

>  <PEOE_VSA+1>
66.203636

>  <PEOE_VSA+2>
17.238026

>  <PEOE_VSA+3>
8.6190128

>  <PEOE_VSA+4>
0

>  <PEOE_VSA+5>
19.649082

>  <PEOE_VSA+6>
0

>  <PEOE_VSA-0>
74.509148

>  <PEOE_VSA-1>
24.509808

>  <PEOE_VSA-2>
0

>  <PEOE_VSA-3>
0

>  <PEOE_VSA-4>
0

>  <PEOE_VSA-5>
54.14909

>  <PEOE_VSA-6>
2.6406472

>  <PEOE_VSA_FHYD>
0.8125599

>  <PEOE_VSA_FNEG>
0.38206759

>  <PEOE_VSA_FPNEG>
0.13925742

>  <PEOE_VSA_FPOL>
0.18744008

>  <PEOE_VSA_FPOS>
0.61793244

>  <PEOE_VSA_FPPOS>
0.048182659

>  <PEOE_VSA_HYD>
331.3652

>  <PEOE_VSA_NEG>
155.80869

>  <PEOE_VSA_PNEG>
56.789734

>  <PEOE_VSA_POL>
76.43882

>  <PEOE_VSA_POS>
251.99532

>  <PEOE_VSA_PPOS>
19.649082

>  <petitjean>
0.46666667

>  <petitjeanSC>
0.875

>  <Q_PC+>
0

>  <Q_PC->
0

>  <Q_RPC+>
0

>  <Q_RPC->
0

>  <Q_VSA_FHYD>
1

>  <Q_VSA_FNEG>
0

>  <Q_VSA_FPNEG>
0

>  <Q_VSA_FPOL>
0

>  <Q_VSA_FPOS>
1

>  <Q_VSA_FPPOS>
0

>  <Q_VSA_HYD>
407.80402

>  <Q_VSA_NEG>
0

>  <Q_VSA_PNEG>
0

>  <Q_VSA_POL>
0

>  <Q_VSA_POS>
407.80402

>  <Q_VSA_PPOS>
0

>  <radius>
8

>  <reactive>
1

>  <rings>
3

>  <RPC+>
0

>  <RPC->
0

>  <rsynth>
0.51724136

>  <SlogP>
3.1262

>  <SlogP_VSA0>
61.907825

>  <SlogP_VSA1>
15.468714

>  <SlogP_VSA2>
3.9819686

>  <SlogP_VSA3>
127.18

>  <SlogP_VSA4>
31.458588

>  <SlogP_VSA5>
0

>  <SlogP_VSA6>
0

>  <SlogP_VSA7>
70.572739

>  <SlogP_VSA8>
94.342026

>  <SlogP_VSA9>
44.082939

>  <SMR>
11.2087

>  <SMR_VSA0>
30.947832

>  <SMR_VSA1>
14.124202

>  <SMR_VSA2>
73.356552

>  <SMR_VSA3>
12.410972

>  <SMR_VSA4>
5.513495

>  <SMR_VSA5>
197.81195

>  <SMR_VSA6>
81.503777

>  <SMR_VSA7>
33.326015

>  <TPSA>
113.41

>  <VAdjEq>
0.3796615

>  <VAdjMa>
5.9541965

>  <VDistEq>
3.7468059

>  <VDistMa>
9.3996344

>  <vdw_area>
407.80402

>  <vdw_vol>
546.21735

>  <vsa_acc>
16.070677

>  <vsa_acid>
0

>  <vsa_base>
0

>  <vsa_don>
23.425066

>  <vsa_hyd>
291.64417

>  <vsa_other>
46.880581

>  <vsa_pol>
39.495743

>  <Weight>
402.495

>  <weinerPath>
2534

>  <weinerPol>
44

>  <zagreb>
146

$$$$