S1[C@H]2N(C(C(O)=O)=C(C1)CSc1nnnn1C)C(=O)[C@H]2NC(=O)[C@H](NC(=O)N1CCN(CC)C(=O)C1=O)c1ccc(O)cc1
  MOE2013           2D

 44 48  0  0  1  0  0  0  0  0999 V2000
    0.0000    0.0000    0.0000 S   0  0  0  0  0  0  0  0  0  0  0  0
   -0.7530    1.2980    0.0000 C   0  0  1  0  0  0  0  0  0  0  0  0
   -0.0050    2.5980    0.0000 N   0  0  0  0  0  0  0  0  0  0  0  0
    1.4950    2.6010    0.0000 C   0  0  0  0  0  0  0  0  0  0  0  0
    2.2420    3.9010    0.0000 C   0  0  0  0  0  0  0  0  0  0  0  0
    1.4900    5.1990    0.0000 O   0  0  0  0  0  0  0  0  0  0  0  0
    3.7420    3.9040    0.0000 O   0  0  0  0  0  0  0  0  0  0  0  0
    2.2470    1.3030    0.0000 C   0  0  0  0  0  0  0  0  0  0  0  0
    1.5000    0.0030    0.0000 C   0  0  0  0  0  0  0  0  0  0  0  0
    3.7470    1.3060    0.0000 C   0  0  0  0  0  0  0  0  0  0  0  0
    4.5000    0.0090    0.0000 S   0  0  0  0  0  0  0  0  0  0  0  0
    6.0000    0.0120    0.0000 C   0  0  0  0  0  0  0  0  0  0  0  0
    6.8790    1.2270    0.0000 N   0  0  0  0  0  0  0  0  0  0  0  0
    8.3070    0.7660    0.0000 N   0  0  0  0  0  0  0  0  0  0  0  0
    8.3100   -0.7340    0.0000 N   0  0  0  0  0  0  0  0  0  0  0  0
    6.8840   -1.2000    0.0000 N   0  0  0  0  0  0  0  0  0  0  0  0
    6.4230   -2.6280    0.0000 C   0  0  0  0  0  0  0  0  0  0  0  0
   -1.3060    3.3460    0.0000 C   0  0  0  0  0  0  0  0  0  0  0  0
   -1.6970    4.7940    0.0000 O   0  0  0  0  0  0  0  0  0  0  0  0
   -2.0530    2.0450    0.0000 C   0  0  1  0  0  0  0  0  0  0  0  0
   -3.5010    1.6540    0.0000 N   0  0  0  0  0  0  0  0  0  0  0  0
   -4.5640    2.7130    0.0000 C   0  0  0  0  0  0  0  0  0  0  0  0
   -4.1780    4.1620    0.0000 O   0  0  0  0  0  0  0  0  0  0  0  0
   -6.0120    2.3220    0.0000 C   0  0  2  0  0  0  0  0  0  0  0  0
   -6.3970    0.8720    0.0000 N   0  0  0  0  0  0  0  0  0  0  0  0
   -7.8460    0.4810    0.0000 C   0  0  0  0  0  0  0  0  0  0  0  0
   -8.9080    1.5400    0.0000 O   0  0  0  0  0  0  0  0  0  0  0  0
   -8.2310   -0.9690    0.0000 N   0  0  0  0  0  0  0  0  0  0  0  0
   -7.1680   -2.0270    0.0000 C   0  0  0  0  0  0  0  0  0  0  0  0
   -7.5540   -3.4770    0.0000 C   0  0  0  0  0  0  0  0  0  0  0  0
   -9.0020   -3.8680    0.0000 N   0  0  0  0  0  0  0  0  0  0  0  0
   -9.3870   -5.3180    0.0000 C   0  0  0  0  0  0  0  0  0  0  0  0
   -8.3250   -6.3760    0.0000 C   0  0  0  0  0  0  0  0  0  0  0  0
  -10.0650   -2.8090    0.0000 C   0  0  0  0  0  0  0  0  0  0  0  0
  -11.5130   -3.2000    0.0000 O   0  0  0  0  0  0  0  0  0  0  0  0
   -9.6790   -1.3600    0.0000 C   0  0  0  0  0  0  0  0  0  0  0  0
  -10.7420   -0.3010    0.0000 O   0  0  0  0  0  0  0  0  0  0  0  0
   -7.0750    3.3800    0.0000 C   0  0  0  0  0  0  0  0  0  0  0  0
   -6.6890    4.8300    0.0000 C   0  0  0  0  0  0  0  0  0  0  0  0
   -7.7520    5.8880    0.0000 C   0  0  0  0  0  0  0  0  0  0  0  0
   -9.2000    5.4970    0.0000 C   0  0  0  0  0  0  0  0  0  0  0  0
  -10.2630    6.5560    0.0000 O   0  0  0  0  0  0  0  0  0  0  0  0
   -9.5860    4.0480    0.0000 C   0  0  0  0  0  0  0  0  0  0  0  0
   -8.5230    2.9890    0.0000 C   0  0  0  0  0  0  0  0  0  0  0  0
  1  9  1  0  0  0  0
  2  1  1  6  0  0  0
  2  3  1  0  0  0  0
  2 20  1  0  0  0  0
  3  4  1  0  0  0  0
  3 18  1  0  0  0  0
  4  5  1  0  0  0  0
  4  8  2  0  0  0  0
  5  6  1  0  0  0  0
  5  7  2  0  0  0  0
  8  9  1  0  0  0  0
  8 10  1  0  0  0  0
 10 11  1  0  0  0  0
 11 12  1  0  0  0  0
 12 13  2  0  0  0  0
 12 16  1  0  0  0  0
 13 14  1  0  0  0  0
 14 15  2  0  0  0  0
 15 16  1  0  0  0  0
 16 17  1  0  0  0  0
 18 19  2  0  0  0  0
 18 20  1  0  0  0  0
 20 21  1  6  0  0  0
 21 22  1  0  0  0  0
 22 23  2  0  0  0  0
 24 22  1  6  0  0  0
 24 25  1  0  0  0  0
 24 38  1  0  0  0  0
 25 26  1  0  0  0  0
 26 27  2  0  0  0  0
 26 28  1  0  0  0  0
 28 29  1  0  0  0  0
 28 36  1  0  0  0  0
 29 30  1  0  0  0  0
 30 31  1  0  0  0  0
 31 32  1  0  0  0  0
 31 34  1  0  0  0  0
 32 33  1  0  0  0  0
 34 35  2  0  0  0  0
 34 36  1  0  0  0  0
 36 37  2  0  0  0  0
 38 39  1  0  0  0  0
 38 44  2  0  0  0  0
 39 40  2  0  0  0  0
 40 41  1  0  0  0  0
 41 42  1  0  0  0  0
 41 43  2  0  0  0  0
 43 44  1  0  0  0  0
M  END
>  <Index>
203

>  <ID>
HT0410

>  <class>
0

>  <apol>
84.119408

>  <ast_fraglike>
0

>  <ast_fraglike_ext>
0

>  <ast_violation>
3

>  <ast_violation_ext>
5

>  <a_acc>
11

>  <a_acid>
0

>  <a_aro>
11

>  <a_base>
0

>  <a_count>
71

>  <a_don>
5

>  <a_donacc>
16

>  <a_heavy>
44

>  <a_hyd>
20

>  <a_IC>
137.62436

>  <a_ICM>
1.9383712

>  <a_nB>
0

>  <a_nBr>
0

>  <a_nC>
25

>  <a_nCl>
0

>  <a_nF>
0

>  <a_nH>
27

>  <a_nI>
0

>  <a_nN>
9

>  <a_nO>
8

>  <a_nP>
0

>  <a_nS>
2

>  <balabanJ>
1.228333

>  <BCUT_PEOE_0>
-2.6905794

>  <BCUT_PEOE_1>
-0.57784027

>  <BCUT_PEOE_2>
0.55564702

>  <BCUT_PEOE_3>
2.7383659

>  <BCUT_SLOGP_0>
-2.8986838

>  <BCUT_SLOGP_1>
-0.53215784

>  <BCUT_SLOGP_2>
0.51266778

>  <BCUT_SLOGP_3>
2.6242979

>  <BCUT_SMR_0>
-2.4050214

>  <BCUT_SMR_1>
-0.38373515

>  <BCUT_SMR_2>
0.71974003

>  <BCUT_SMR_3>
3.0221477

>  <bpol>
49.06459

>  <b_1rotN>
10

>  <b_1rotR>
0.20833333

>  <b_ar>
11

>  <b_count>
75

>  <b_double>
7

>  <b_heavy>
48

>  <b_max1len>
3

>  <b_rotN>
12

>  <b_rotR>
0.25

>  <b_single>
57

>  <b_triple>
0

>  <chi0>
31.706013

>  <chi0v>
25.000887

>  <chi0v_C>
15.076985

>  <chi0_C>
16.446865

>  <chi1>
21.010147

>  <chi1v>
15.305121

>  <chi1v_C>
5.6849394

>  <chi1_C>
6.9899297

>  <chiral>
3

>  <chiral_u>
0

>  <density>
0.87676936

>  <diameter>
20

>  <FCharge>
0

>  <GCUT_PEOE_0>
-0.84246075

>  <GCUT_PEOE_1>
-0.45887268

>  <GCUT_PEOE_2>
0.078173362

>  <GCUT_PEOE_3>
2.8258967

>  <GCUT_SLOGP_0>
-1.1656708

>  <GCUT_SLOGP_1>
-0.41080093

>  <GCUT_SLOGP_2>
0.10320979

>  <GCUT_SLOGP_3>
2.7766466

>  <GCUT_SMR_0>
-0.52902991

>  <GCUT_SMR_1>
-0.23133872

>  <GCUT_SMR_2>
0.21641129

>  <GCUT_SMR_3>
3.0945396

>  <Kier1>
35.310764

>  <Kier2>
15.48

>  <Kier3>
7.6866832

>  <KierA1>
27.778967

>  <KierA2>
12.106384

>  <KierA3>
5.9868793

>  <KierFlex>
7.6432467

>  <lip_acc>
17

>  <lip_don>
4

>  <lip_druglike>
0

>  <lip_violation>
2

>  <logP(o/w)>
-1.654

>  <logS>
-5.08254

>  <mr>
15.657409

>  <mutagenic>
0

>  <nmol>
1

>  <opr_brigid>
26

>  <opr_leadlike>
0

>  <opr_nring>
5

>  <opr_nrot>
9

>  <opr_violation>
3

>  <PC+>
0

>  <PC->
0

>  <PEOE_PC+>
4.6496983

>  <PEOE_PC->
-4.6496983

>  <PEOE_RPC+>
0.070209704

>  <PEOE_RPC->
0.077388324

>  <PEOE_VSA+0>
135.35504

>  <PEOE_VSA+1>
55.377766

>  <PEOE_VSA+2>
18.113495

>  <PEOE_VSA+3>
17.238026

>  <PEOE_VSA+4>
46.7645

>  <PEOE_VSA+5>
12.949531

>  <PEOE_VSA+6>
58.048103

>  <PEOE_VSA-0>
73.993568

>  <PEOE_VSA-1>
44.270424

>  <PEOE_VSA-2>
29.181658

>  <PEOE_VSA-3>
0

>  <PEOE_VSA-4>
13.566921

>  <PEOE_VSA-5>
67.834602

>  <PEOE_VSA-6>
15.808863

>  <PEOE_VSA_FHYD>
0.63471264

>  <PEOE_VSA_FNEG>
0.41572642

>  <PEOE_VSA_FPNEG>
0.16518262

>  <PEOE_VSA_FPOL>
0.36528736

>  <PEOE_VSA_FPOS>
0.58427358

>  <PEOE_VSA_FPPOS>
0.20010473

>  <PEOE_VSA_HYD>
373.53

>  <PEOE_VSA_NEG>
244.65604

>  <PEOE_VSA_PNEG>
97.210388

>  <PEOE_VSA_POL>
214.97252

>  <PEOE_VSA_POS>
343.84647

>  <PEOE_VSA_PPOS>
117.76214

>  <petitjean>
0.5

>  <petitjeanSC>
1

>  <Q_PC+>
0

>  <Q_PC->
0

>  <Q_RPC+>
0

>  <Q_RPC->
0

>  <Q_VSA_FHYD>
1

>  <Q_VSA_FNEG>
0

>  <Q_VSA_FPNEG>
0

>  <Q_VSA_FPOL>
0

>  <Q_VSA_FPOS>
1

>  <Q_VSA_FPPOS>
0

>  <Q_VSA_HYD>
588.5025

>  <Q_VSA_NEG>
0

>  <Q_VSA_PNEG>
0

>  <Q_VSA_POL>
0

>  <Q_VSA_POS>
588.5025

>  <Q_VSA_PPOS>
0

>  <radius>
10

>  <reactive>
0

>  <rings>
5

>  <RPC+>
0

>  <RPC->
0

>  <rsynth>
0.65909094

>  <SlogP>
-0.6573

>  <SlogP_VSA0>
61.406727

>  <SlogP_VSA1>
94.504044

>  <SlogP_VSA2>
125.64017

>  <SlogP_VSA3>
115.17109

>  <SlogP_VSA4>
3.185575

>  <SlogP_VSA5>
6.6354017

>  <SlogP_VSA6>
0

>  <SlogP_VSA7>
70.572739

>  <SlogP_VSA8>
3.9819686

>  <SlogP_VSA9>
159.76793

>  <SMR>
15.2947

>  <SMR_VSA0>
143.17329

>  <SMR_VSA1>
86.278717

>  <SMR_VSA2>
62.099808

>  <SMR_VSA3>
24.68239

>  <SMR_VSA4>
0

>  <SMR_VSA5>
70.572739

>  <SMR_VSA6>
123.39642

>  <SMR_VSA7>
130.66228

>  <TPSA>
220.25999

>  <VAdjEq>
0.284639

>  <VAdjMa>
6.5849624

>  <VDistEq>
4.0698586

>  <VDistMa>
10.638547

>  <vdw_area>
588.5025

>  <vdw_vol>
736.42853

>  <vsa_acc>
103.57465

>  <vsa_acid>
0

>  <vsa_base>
0

>  <vsa_don>
11.365152

>  <vsa_hyd>
304.18063

>  <vsa_other>
97.113792

>  <vsa_pol>
155.64056

>  <Weight>
645.67798

>  <weinerPath>
7383

>  <weinerPol>
75

>  <zagreb>
236

$$$$