S1[C@H]2N(C(C(O)=O)=C(C1)COC(=O)C)C(=O)[C@H]2NC(=O)CSc1ccncc1
  MOE2013           2D

 28 30  0  0  1  0  0  0  0  0999 V2000
    0.0000    0.0000    0.0000 S   0  0  0  0  0  0  0  0  0  0  0  0
    0.7430    1.3030    0.0000 C   0  0  1  0  0  0  0  0  0  0  0  0
   -0.0130    2.5980    0.0000 N   0  0  0  0  0  0  0  0  0  0  0  0
   -1.5130    2.5900    0.0000 C   0  0  0  0  0  0  0  0  0  0  0  0
   -2.2700    3.8860    0.0000 C   0  0  0  0  0  0  0  0  0  0  0  0
   -1.5270    5.1880    0.0000 O   0  0  0  0  0  0  0  0  0  0  0  0
   -3.7700    3.8780    0.0000 O   0  0  0  0  0  0  0  0  0  0  0  0
   -2.2570    1.2880    0.0000 C   0  0  0  0  0  0  0  0  0  0  0  0
   -1.5000   -0.0080    0.0000 C   0  0  0  0  0  0  0  0  0  0  0  0
   -3.7570    1.2800    0.0000 C   0  0  0  0  0  0  0  0  0  0  0  0
   -4.5000   -0.0230    0.0000 O   0  0  0  0  0  0  0  0  0  0  0  0
   -6.0000   -0.0310    0.0000 C   0  0  0  0  0  0  0  0  0  0  0  0
   -6.7430   -1.3330    0.0000 O   0  0  0  0  0  0  0  0  0  0  0  0
   -6.7570    1.2650    0.0000 C   0  0  0  0  0  0  0  0  0  0  0  0
    1.2820    3.3550    0.0000 C   0  0  0  0  0  0  0  0  0  0  0  0
    1.6630    4.8060    0.0000 O   0  0  0  0  0  0  0  0  0  0  0  0
    2.0390    2.0590    0.0000 C   0  0  1  0  0  0  0  0  0  0  0  0
    3.4890    1.6790    0.0000 N   0  0  0  0  0  0  0  0  0  0  0  0
    4.5450    2.7450    0.0000 C   0  0  0  0  0  0  0  0  0  0  0  0
    4.1490    4.1920    0.0000 O   0  0  0  0  0  0  0  0  0  0  0  0
    5.9950    2.3640    0.0000 C   0  0  0  0  0  0  0  0  0  0  0  0
    7.0510    3.4300    0.0000 S   0  0  0  0  0  0  0  0  0  0  0  0
    8.5020    3.0490    0.0000 C   0  0  0  0  0  0  0  0  0  0  0  0
    8.8970    1.6020    0.0000 C   0  0  0  0  0  0  0  0  0  0  0  0
   10.3480    1.2210    0.0000 C   0  0  0  0  0  0  0  0  0  0  0  0
   11.4030    2.2870    0.0000 N   0  0  0  0  0  0  0  0  0  0  0  0
   11.0080    3.7340    0.0000 C   0  0  0  0  0  0  0  0  0  0  0  0
    9.5570    4.1150    0.0000 C   0  0  0  0  0  0  0  0  0  0  0  0
  1  9  1  0  0  0  0
  2  1  1  1  0  0  0
  2  3  1  0  0  0  0
  2 17  1  0  0  0  0
  3  4  1  0  0  0  0
  3 15  1  0  0  0  0
  4  5  1  0  0  0  0
  4  8  2  0  0  0  0
  5  6  1  0  0  0  0
  5  7  2  0  0  0  0
  8  9  1  0  0  0  0
  8 10  1  0  0  0  0
 10 11  1  0  0  0  0
 11 12  1  0  0  0  0
 12 13  2  0  0  0  0
 12 14  1  0  0  0  0
 15 16  2  0  0  0  0
 15 17  1  0  0  0  0
 17 18  1  1  0  0  0
 18 19  1  0  0  0  0
 19 20  2  0  0  0  0
 19 21  1  0  0  0  0
 21 22  1  0  0  0  0
 22 23  1  0  0  0  0
 23 24  1  0  0  0  0
 23 28  2  0  0  0  0
 24 25  2  0  0  0  0
 25 26  1  0  0  0  0
 26 27  2  0  0  0  0
 27 28  1  0  0  0  0
M  END
>  <Index>
210

>  <ID>
HT0434

>  <class>
0

>  <apol>
55.16748

>  <ast_fraglike>
0

>  <ast_fraglike_ext>
0

>  <ast_violation>
2

>  <ast_violation_ext>
4

>  <a_acc>
6

>  <a_acid>
0

>  <a_aro>
6

>  <a_base>
0

>  <a_count>
45

>  <a_don>
3

>  <a_donacc>
9

>  <a_heavy>
28

>  <a_hyd>
15

>  <a_IC>
85.894989

>  <a_ICM>
1.9087776

>  <a_nB>
0

>  <a_nBr>
0

>  <a_nC>
17

>  <a_nCl>
0

>  <a_nF>
0

>  <a_nH>
17

>  <a_nI>
0

>  <a_nN>
3

>  <a_nO>
6

>  <a_nP>
0

>  <a_nS>
2

>  <balabanJ>
1.4984307

>  <BCUT_PEOE_0>
-2.6876061

>  <BCUT_PEOE_1>
-0.54583657

>  <BCUT_PEOE_2>
0.54690909

>  <BCUT_PEOE_3>
2.7365766

>  <BCUT_SLOGP_0>
-2.8969009

>  <BCUT_SLOGP_1>
-0.50698084

>  <BCUT_SLOGP_2>
0.602422

>  <BCUT_SLOGP_3>
2.6134143

>  <BCUT_SMR_0>
-2.4031973

>  <BCUT_SMR_1>
-0.3450613

>  <BCUT_SMR_2>
0.78055465

>  <BCUT_SMR_3>
3.0189357

>  <bpol>
32.85252

>  <b_1rotN>
7

>  <b_1rotR>
0.23333333

>  <b_ar>
6

>  <b_count>
47

>  <b_double>
5

>  <b_heavy>
30

>  <b_max1len>
3

>  <b_rotN>
9

>  <b_rotR>
0.30000001

>  <b_single>
36

>  <b_triple>
0

>  <chi0>
20.258783

>  <chi0v>
16.417793

>  <chi0v_C>
10.085422

>  <chi0_C>
11.1459

>  <chi1>
13.379918

>  <chi1v>
10.271604

>  <chi1v_C>
3.9266856

>  <chi1_C>
4.9519253

>  <chiral>
2

>  <chiral_u>
0

>  <density>
0.87837648

>  <diameter>
16

>  <FCharge>
0

>  <GCUT_PEOE_0>
-0.82454795

>  <GCUT_PEOE_1>
-0.43940508

>  <GCUT_PEOE_2>
0.079378776

>  <GCUT_PEOE_3>
2.5866489

>  <GCUT_SLOGP_0>
-1.1655388

>  <GCUT_SLOGP_1>
-0.42963094

>  <GCUT_SLOGP_2>
0.13011259

>  <GCUT_SLOGP_3>
2.5412033

>  <GCUT_SMR_0>
-0.52908105

>  <GCUT_SMR_1>
-0.2206632

>  <GCUT_SMR_2>
0.23941408

>  <GCUT_SMR_3>
2.866802

>  <Kier1>
22.68

>  <Kier2>
10.346939

>  <Kier3>
5.5867767

>  <KierA1>
19.257673

>  <KierA2>
8.729619

>  <KierA3>
4.6921134

>  <KierFlex>
6.0040059

>  <lip_acc>
9

>  <lip_don>
2

>  <lip_druglike>
1

>  <lip_violation>
0

>  <logP(o/w)>
0.029999999

>  <logS>
-3.5499101

>  <mr>
10.457627

>  <mutagenic>
0

>  <nmol>
1

>  <opr_brigid>
15

>  <opr_leadlike>
1

>  <opr_nring>
3

>  <opr_nrot>
7

>  <opr_violation>
1

>  <PC+>
0

>  <PC->
0

>  <PEOE_PC+>
2.9068022

>  <PEOE_PC->
-2.9068022

>  <PEOE_RPC+>
0.10595405

>  <PEOE_RPC->
0.11747629

>  <PEOE_VSA+0>
96.95919

>  <PEOE_VSA+1>
59.751755

>  <PEOE_VSA+2>
14.967534

>  <PEOE_VSA+3>
8.6190128

>  <PEOE_VSA+4>
23.273705

>  <PEOE_VSA+5>
27.65803

>  <PEOE_VSA+6>
14.708499

>  <PEOE_VSA-0>
26.718348

>  <PEOE_VSA-1>
0

>  <PEOE_VSA-2>
39.521236

>  <PEOE_VSA-3>
0

>  <PEOE_VSA-4>
0

>  <PEOE_VSA-5>
59.95026

>  <PEOE_VSA-6>
10.408187

>  <PEOE_VSA_FHYD>
0.64448112

>  <PEOE_VSA_FNEG>
0.35708565

>  <PEOE_VSA_FPNEG>
0.18392646

>  <PEOE_VSA_FPOL>
0.35551888

>  <PEOE_VSA_FPOS>
0.64291435

>  <PEOE_VSA_FPPOS>
0.17159241

>  <PEOE_VSA_HYD>
246.53708

>  <PEOE_VSA_NEG>
136.59804

>  <PEOE_VSA_PNEG>
70.358444

>  <PEOE_VSA_POL>
135.99867

>  <PEOE_VSA_POS>
245.93773

>  <PEOE_VSA_PPOS>
65.640236

>  <petitjean>
0.5

>  <petitjeanSC>
1

>  <Q_PC+>
0

>  <Q_PC->
0

>  <Q_RPC+>
0

>  <Q_RPC->
0

>  <Q_VSA_FHYD>
1

>  <Q_VSA_FNEG>
0

>  <Q_VSA_FPNEG>
0

>  <Q_VSA_FPOL>
0

>  <Q_VSA_FPOS>
1

>  <Q_VSA_FPPOS>
0

>  <Q_VSA_HYD>
382.53577

>  <Q_VSA_NEG>
0

>  <Q_VSA_PNEG>
0

>  <Q_VSA_POL>
0

>  <Q_VSA_POS>
382.53577

>  <Q_VSA_PPOS>
0

>  <radius>
8

>  <reactive>
0

>  <rings>
3

>  <RPC+>
0

>  <RPC->
0

>  <rsynth>
0.4642857

>  <SlogP>
0.4754

>  <SlogP_VSA0>
18.01075

>  <SlogP_VSA1>
45.918339

>  <SlogP_VSA2>
112.77785

>  <SlogP_VSA3>
80.77861

>  <SlogP_VSA4>
0

>  <SlogP_VSA5>
7.4930563

>  <SlogP_VSA6>
0

>  <SlogP_VSA7>
69.71508

>  <SlogP_VSA8>
0

>  <SlogP_VSA9>
97.765099

>  <SMR>
10.12805

>  <SMR_VSA0>
106.44875

>  <SMR_VSA1>
19.909843

>  <SMR_VSA2>
44.946712

>  <SMR_VSA3>
12.271419

>  <SMR_VSA4>
0

>  <SMR_VSA5>
69.71508

>  <SMR_VSA6>
81.401886

>  <SMR_VSA7>
97.765099

>  <TPSA>
125.9

>  <VAdjEq>
0.38983503

>  <VAdjMa>
5.9068904

>  <VDistEq>
3.7355752

>  <VDistMa>
9.2974367

>  <vdw_area>
382.53577

>  <vdw_vol>
482.10535

>  <vsa_acc>
46.383339

>  <vsa_acid>
0

>  <vsa_base>
0

>  <vsa_don>
5.6825762

>  <vsa_hyd>
227.24113

>  <vsa_other>
57.819817

>  <vsa_pol>
79.199753

>  <Weight>
423.47

>  <weinerPath>
2292

>  <weinerPol>
41

>  <zagreb>
144

$$$$