NC(=N)N1CCc2c(C1)cccc2
  MOE2013           2D

 13 14  0  0  0  0  0  0  0  0999 V2000
    0.0000    0.0000    0.0000 N   0  0  0  0  0  0  0  0  0  0  0  0
   -0.7500    1.2990    0.0000 C   0  0  0  0  0  0  0  0  0  0  0  0
    0.0000    2.5980    0.0000 N   0  0  0  0  0  0  0  0  0  0  0  0
   -2.2500    1.2990    0.0000 N   0  0  0  0  0  0  0  0  0  0  0  0
   -3.0000    2.5980    0.0000 C   0  0  0  0  0  0  0  0  0  0  0  0
   -4.5000    2.5980    0.0000 C   0  0  0  0  0  0  0  0  0  0  0  0
   -5.2500    1.2990    0.0000 C   0  0  0  0  0  0  0  0  0  0  0  0
   -4.5000    0.0000    0.0000 C   0  0  0  0  0  0  0  0  0  0  0  0
   -3.0000    0.0000    0.0000 C   0  0  0  0  0  0  0  0  0  0  0  0
   -5.2500   -1.2990    0.0000 C   0  0  0  0  0  0  0  0  0  0  0  0
   -6.7500   -1.2990    0.0000 C   0  0  0  0  0  0  0  0  0  0  0  0
   -7.5000    0.0000    0.0000 C   0  0  0  0  0  0  0  0  0  0  0  0
   -6.7500    1.2990    0.0000 C   0  0  0  0  0  0  0  0  0  0  0  0
  1  2  1  0  0  0  0
  2  3  2  0  0  0  0
  2  4  1  0  0  0  0
  4  5  1  0  0  0  0
  4  9  1  0  0  0  0
  5  6  1  0  0  0  0
  6  7  1  0  0  0  0
  7  8  1  0  0  0  0
  7 13  2  0  0  0  0
  8  9  1  0  0  0  0
  8 10  2  0  0  0  0
 10 11  1  0  0  0  0
 11 12  2  0  0  0  0
 12 13  1  0  0  0  0
M  END
>  <Index>
287

>  <ID>
HT0596

>  <class>
0

>  <apol>
29.56831

>  <ast_fraglike>
1

>  <ast_fraglike_ext>
1

>  <ast_violation>
0

>  <ast_violation_ext>
0

>  <a_acc>
1

>  <a_acid>
0

>  <a_aro>
6

>  <a_base>
0

>  <a_count>
26

>  <a_don>
2

>  <a_donacc>
3

>  <a_heavy>
13

>  <a_hyd>
9

>  <a_IC>
36.131546

>  <a_ICM>
1.3896749

>  <a_nB>
0

>  <a_nBr>
0

>  <a_nC>
10

>  <a_nCl>
0

>  <a_nF>
0

>  <a_nH>
13

>  <a_nI>
0

>  <a_nN>
3

>  <a_nO>
0

>  <a_nP>
0

>  <a_nS>
0

>  <balabanJ>
1.9261498

>  <BCUT_PEOE_0>
-2.6325004

>  <BCUT_PEOE_1>
-0.51652789

>  <BCUT_PEOE_2>
0.56721026

>  <BCUT_PEOE_3>
2.5541093

>  <BCUT_SLOGP_0>
-2.7027729

>  <BCUT_SLOGP_1>
-0.47727671

>  <BCUT_SLOGP_2>
0.62369168

>  <BCUT_SLOGP_3>
2.5836771

>  <BCUT_SMR_0>
-2.335773

>  <BCUT_SMR_1>
-0.35905713

>  <BCUT_SMR_2>
0.7128253

>  <BCUT_SMR_3>
2.8453386

>  <bpol>
15.531691

>  <b_1rotN>
1

>  <b_1rotR>
0.071428575

>  <b_ar>
6

>  <b_count>
27

>  <b_double>
1

>  <b_heavy>
14

>  <b_max1len>
2

>  <b_rotN>
1

>  <b_rotR>
0.071428575

>  <b_single>
20

>  <b_triple>
0

>  <chi0>
9.2591486

>  <chi0v>
7.4552851

>  <chi0v_C>
5.9307213

>  <chi0_C>
6.6817985

>  <chi1>
6.2708569

>  <chi1v>
4.4291945

>  <chi1v_C>
3.034457

>  <chi1_C>
3.9663265

>  <chiral>
0

>  <chiral_u>
0

>  <density>
0.69235218

>  <diameter>
7

>  <FCharge>
0

>  <GCUT_PEOE_0>
-0.85037023

>  <GCUT_PEOE_1>
-0.38172373

>  <GCUT_PEOE_2>
0.048836038

>  <GCUT_PEOE_3>
2.4217014

>  <GCUT_SLOGP_0>
-1.3706167

>  <GCUT_SLOGP_1>
-0.28953427

>  <GCUT_SLOGP_2>
0.11204188

>  <GCUT_SLOGP_3>
2.4875836

>  <GCUT_SMR_0>
-0.50468421

>  <GCUT_SMR_1>
-0.181472

>  <GCUT_SMR_2>
0.15751347

>  <GCUT_SMR_3>
2.7039902

>  <Kier1>
9.5510206

>  <Kier2>
4.0221605

>  <Kier3>
2.0833333

>  <KierA1>
6.6133852

>  <KierA2>
2.6897349

>  <KierA3>
1.3521901

>  <KierFlex>
1.3683271

>  <lip_acc>
3

>  <lip_don>
3

>  <lip_druglike>
1

>  <lip_violation>
0

>  <logP(o/w)>
1.5700001

>  <logS>
-1.75686

>  <mr>
5.1748476

>  <mutagenic>
0

>  <nmol>
1

>  <opr_brigid>
12

>  <opr_leadlike>
1

>  <opr_nring>
2

>  <opr_nrot>
2

>  <opr_violation>
0

>  <PC+>
0

>  <PC->
0

>  <PEOE_PC+>
1.2897359

>  <PEOE_PC->
-1.2897359

>  <PEOE_RPC+>
0.14775822

>  <PEOE_RPC->
0.28685322

>  <PEOE_VSA+0>
43.446194

>  <PEOE_VSA+1>
25.592316

>  <PEOE_VSA+2>
0

>  <PEOE_VSA+3>
41.538612

>  <PEOE_VSA+4>
0

>  <PEOE_VSA+5>
0

>  <PEOE_VSA+6>
0

>  <PEOE_VSA-0>
13.118393

>  <PEOE_VSA-1>
49.019615

>  <PEOE_VSA-2>
0

>  <PEOE_VSA-3>
0

>  <PEOE_VSA-4>
0

>  <PEOE_VSA-5>
12.196804

>  <PEOE_VSA-6>
6.6511192

>  <PEOE_VSA_FHYD>
0.90160984

>  <PEOE_VSA_FNEG>
0.42276382

>  <PEOE_VSA_FPNEG>
0.098390184

>  <PEOE_VSA_FPOL>
0.098390184

>  <PEOE_VSA_FPOS>
0.57723618

>  <PEOE_VSA_FPPOS>
0

>  <PEOE_VSA_HYD>
172.71513

>  <PEOE_VSA_NEG>
80.985931

>  <PEOE_VSA_PNEG>
18.847923

>  <PEOE_VSA_POL>
18.847923

>  <PEOE_VSA_POS>
110.57713

>  <PEOE_VSA_PPOS>
0

>  <petitjean>
0.42857143

>  <petitjeanSC>
0.75

>  <Q_PC+>
0

>  <Q_PC->
0

>  <Q_RPC+>
0

>  <Q_RPC->
0

>  <Q_VSA_FHYD>
1

>  <Q_VSA_FNEG>
0

>  <Q_VSA_FPNEG>
0

>  <Q_VSA_FPOL>
0

>  <Q_VSA_FPOS>
1

>  <Q_VSA_FPPOS>
0

>  <Q_VSA_HYD>
191.56305

>  <Q_VSA_NEG>
0

>  <Q_VSA_PNEG>
0

>  <Q_VSA_POL>
0

>  <Q_VSA_POS>
191.56305

>  <Q_VSA_PPOS>
0

>  <radius>
4

>  <reactive>
0

>  <rings>
2

>  <RPC+>
0

>  <RPC->
0

>  <rsynth>
1

>  <SlogP>
1.20454

>  <SlogP_VSA0>
32.897186

>  <SlogP_VSA1>
5.0234065

>  <SlogP_VSA2>
0

>  <SlogP_VSA3>
18.439579

>  <SlogP_VSA4>
6.37115

>  <SlogP_VSA5>
18.868406

>  <SlogP_VSA6>
0

>  <SlogP_VSA7>
102.24471

>  <SlogP_VSA8>
0

>  <SlogP_VSA9>
18.439579

>  <SMR>
5.2675099

>  <SMR_VSA0>
0

>  <SMR_VSA1>
3.1243138

>  <SMR_VSA2>
31.671967

>  <SMR_VSA3>
6.37115

>  <SMR_VSA4>
32.897186

>  <SMR_VSA5>
107.88072

>  <SMR_VSA6>
20.338671

>  <SMR_VSA7>
0

>  <TPSA>
53.110001

>  <VAdjEq>
0.64772749

>  <VAdjMa>
4.8073549

>  <VDistEq>
2.5712812

>  <VDistMa>
7.0909653

>  <vdw_area>
191.56305

>  <vdw_vol>
253.10095

>  <vsa_acc>
0

>  <vsa_acid>
0

>  <vsa_base>
0

>  <vsa_don>
17.742489

>  <vsa_hyd>
124.05856

>  <vsa_other>
15.681574

>  <vsa_pol>
35.484978

>  <Weight>
175.235

>  <weinerPath>
238

>  <weinerPol>
18

>  <zagreb>
66

$$$$