O1C(CO)C(O)C(O)C(O)C1OC1C(OC(OC2C(OC(OC3C(OC(OC4CC5CCC6C(CC(O)C7(C)C(CCC67O)C6=CC(OC6)=O)C5(CC4)C)CC3O)C)CC2O)C)CC1O)C
  MOE2013           2D

 66 74  0  0  1  0  0  0  0  0999 V2000
    0.0000    0.0000    0.0000 O   0  0  0  0  0  0  0  0  0  0  0  0
   -1.2980   -0.7520    0.0000 C   0  0  3  0  0  0  0  0  0  0  0  0
   -1.2960   -2.2520    0.0000 C   0  0  0  0  0  0  0  0  0  0  0  0
   -2.5940   -3.0030    0.0000 O   0  0  0  0  0  0  0  0  0  0  0  0
   -2.5980   -0.0030    0.0000 C   0  0  3  0  0  0  0  0  0  0  0  0
   -3.8960   -0.7550    0.0000 O   0  0  0  0  0  0  0  0  0  0  0  0
   -2.6000    1.4970    0.0000 C   0  0  3  0  0  0  0  0  0  0  0  0
   -3.9000    2.2450    0.0000 O   0  0  0  0  0  0  0  0  0  0  0  0
   -1.3020    2.2480    0.0000 C   0  0  3  0  0  0  0  0  0  0  0  0
   -1.3040    3.7480    0.0000 O   0  0  0  0  0  0  0  0  0  0  0  0
   -0.0020    1.5000    0.0000 C   0  0  3  0  0  0  0  0  0  0  0  0
    1.2960    2.2520    0.0000 O   0  0  0  0  0  0  0  0  0  0  0  0
    2.5960    1.5030    0.0000 C   0  0  3  0  0  0  0  0  0  0  0  0
    3.8940    2.2550    0.0000 C   0  0  3  0  0  0  0  0  0  0  0  0
    5.1940    1.5070    0.0000 O   0  0  0  0  0  0  0  0  0  0  0  0
    5.1960    0.0070    0.0000 C   0  0  3  0  0  0  0  0  0  0  0  0
    6.4960   -0.7410    0.0000 O   0  0  0  0  0  0  0  0  0  0  0  0
    7.7940    0.0100    0.0000 C   0  0  3  0  0  0  0  0  0  0  0  0
    7.7920    1.5100    0.0000 C   0  0  3  0  0  0  0  0  0  0  0  0
    9.0900    2.2620    0.0000 O   0  0  0  0  0  0  0  0  0  0  0  0
   10.3900    1.5140    0.0000 C   0  0  3  0  0  0  0  0  0  0  0  0
   11.6880    2.2650    0.0000 O   0  0  0  0  0  0  0  0  0  0  0  0
   12.9880    1.5170    0.0000 C   0  0  3  0  0  0  0  0  0  0  0  0
   14.2860    2.2690    0.0000 C   0  0  3  0  0  0  0  0  0  0  0  0
   15.5860    1.5210    0.0000 O   0  0  0  0  0  0  0  0  0  0  0  0
   15.5880    0.0210    0.0000 C   0  0  3  0  0  0  0  0  0  0  0  0
   16.8880   -0.7280    0.0000 O   0  0  0  0  0  0  0  0  0  0  0  0
   18.1870    0.0240    0.0000 C   0  0  3  0  0  0  0  0  0  0  0  0
   19.4870   -0.7240    0.0000 C   0  0  0  0  0  0  0  0  0  0  0  0
   20.7850    0.0270    0.0000 C   0  0  3  0  0  0  0  0  0  0  0  0
   22.0850   -0.7210    0.0000 C   0  0  0  0  0  0  0  0  0  0  0  0
   23.3830    0.0310    0.0000 C   0  0  0  0  0  0  0  0  0  0  0  0
   23.3810    1.5310    0.0000 C   0  0  3  0  0  0  0  0  0  0  0  0
   22.0810    2.2790    0.0000 C   0  0  3  0  0  0  0  0  0  0  0  0
   22.0790    3.7790    0.0000 C   0  0  0  0  0  0  0  0  0  0  0  0
   23.3770    4.5310    0.0000 C   0  0  3  0  0  0  0  0  0  0  0  0
   23.3750    6.0310    0.0000 O   0  0  0  0  0  0  0  0  0  0  0  0
   24.6770    3.7830    0.0000 C   0  0  3  0  0  0  0  0  0  0  0  0
   24.7790    5.2790    0.0000 C   0  0  0  0  0  0  0  0  0  0  0  0
   26.1030    4.2480    0.0000 C   0  0  3  0  0  0  0  0  0  0  0  0
   26.9860    3.0360    0.0000 C   0  0  0  0  0  0  0  0  0  0  0  0
   26.1060    1.8210    0.0000 C   0  0  0  0  0  0  0  0  0  0  0  0
   24.6790    2.2830    0.0000 C   0  0  3  0  0  0  0  0  0  0  0  0
   24.8370    0.7910    0.0000 O   0  0  0  0  0  0  0  0  0  0  0  0
   26.5640    5.6750    0.0000 C   0  0  0  0  0  0  0  0  0  0  0  0
   27.9900    6.1410    0.0000 C   0  0  0  0  0  0  0  0  0  0  0  0
   27.9880    7.6410    0.0000 C   0  0  0  0  0  0  0  0  0  0  0  0
   26.5610    8.1020    0.0000 O   0  0  0  0  0  0  0  0  0  0  0  0
   25.6810    6.8870    0.0000 C   0  0  0  0  0  0  0  0  0  0  0  0
   29.2010    8.5240    0.0000 O   0  0  0  0  0  0  0  0  0  0  0  0
   20.7830    1.5270    0.0000 C   0  0  3  0  0  0  0  0  0  0  0  0
   19.4830    2.2760    0.0000 C   0  0  0  0  0  0  0  0  0  0  0  0
   18.1850    1.5240    0.0000 C   0  0  0  0  0  0  0  0  0  0  0  0
   20.7540    3.0270    0.0000 C   0  0  0  0  0  0  0  0  0  0  0  0
   14.2900   -0.7310    0.0000 C   0  0  0  0  0  0  0  0  0  0  0  0
   12.9900    0.0170    0.0000 C   0  0  3  0  0  0  0  0  0  0  0  0
   11.6920   -0.7350    0.0000 O   0  0  0  0  0  0  0  0  0  0  0  0
   14.2840    3.7690    0.0000 C   0  0  0  0  0  0  0  0  0  0  0  0
   10.3920    0.0140    0.0000 C   0  0  0  0  0  0  0  0  0  0  0  0
    9.0940   -0.7380    0.0000 C   0  0  3  0  0  0  0  0  0  0  0  0
    9.0960   -2.2380    0.0000 O   0  0  0  0  0  0  0  0  0  0  0  0
    6.4920    2.2590    0.0000 C   0  0  0  0  0  0  0  0  0  0  0  0
    3.8980   -0.7450    0.0000 C   0  0  0  0  0  0  0  0  0  0  0  0
    2.5980    0.0030    0.0000 C   0  0  3  0  0  0  0  0  0  0  0  0
    1.3000   -0.7480    0.0000 O   0  0  0  0  0  0  0  0  0  0  0  0
    3.8920    3.7550    0.0000 C   0  0  0  0  0  0  0  0  0  0  0  0
  1  2  1  0  0  0  0
  1 11  1  0  0  0  0
  2  3  1  0  0  0  0
  2  5  1  0  0  0  0
  3  4  1  0  0  0  0
  5  6  1  0  0  0  0
  5  7  1  0  0  0  0
  7  8  1  0  0  0  0
  7  9  1  0  0  0  0
  9 10  1  0  0  0  0
  9 11  1  0  0  0  0
 11 12  1  0  0  0  0
 12 13  1  0  0  0  0
 13 14  1  0  0  0  0
 13 64  1  0  0  0  0
 14 15  1  0  0  0  0
 14 66  1  0  0  0  0
 15 16  1  0  0  0  0
 16 17  1  0  0  0  0
 16 63  1  0  0  0  0
 17 18  1  0  0  0  0
 18 19  1  0  0  0  0
 18 60  1  0  0  0  0
 19 20  1  0  0  0  0
 19 62  1  0  0  0  0
 20 21  1  0  0  0  0
 21 22  1  0  0  0  0
 21 59  1  0  0  0  0
 22 23  1  0  0  0  0
 23 24  1  0  0  0  0
 23 56  1  0  0  0  0
 24 25  1  0  0  0  0
 24 58  1  0  0  0  0
 25 26  1  0  0  0  0
 26 27  1  0  0  0  0
 26 55  1  0  0  0  0
 27 28  1  0  0  0  0
 28 29  1  0  0  0  0
 28 53  1  0  0  0  0
 29 30  1  0  0  0  0
 30 31  1  0  0  0  0
 30 51  1  0  0  0  0
 31 32  1  0  0  0  0
 32 33  1  0  0  0  0
 33 34  1  0  0  0  0
 33 43  1  0  0  0  0
 34 35  1  0  0  0  0
 34 51  1  0  0  0  0
 35 36  1  0  0  0  0
 36 37  1  0  0  0  0
 36 38  1  0  0  0  0
 38 39  1  0  0  0  0
 38 40  1  0  0  0  0
 38 43  1  0  0  0  0
 40 41  1  0  0  0  0
 40 45  1  0  0  0  0
 41 42  1  0  0  0  0
 42 43  1  0  0  0  0
 43 44  1  0  0  0  0
 45 46  2  0  0  0  0
 45 49  1  0  0  0  0
 46 47  1  0  0  0  0
 47 48  1  0  0  0  0
 47 50  2  0  0  0  0
 48 49  1  0  0  0  0
 51 52  1  0  0  0  0
 51 54  1  0  0  0  0
 52 53  1  0  0  0  0
 55 56  1  0  0  0  0
 56 57  1  0  0  0  0
 59 60  1  0  0  0  0
 60 61  1  0  0  0  0
 63 64  1  0  0  0  0
 64 65  1  0  0  0  0
M  END
>  <Index>
295

>  <ID>
HT0612

>  <class>
0

>  <apol>
147.30067

>  <ast_fraglike>
0

>  <ast_fraglike_ext>
0

>  <ast_violation>
3

>  <ast_violation_ext>
5

>  <a_acc>
18

>  <a_acid>
0

>  <a_aro>
0

>  <a_base>
0

>  <a_count>
140

>  <a_don>
9

>  <a_donacc>
27

>  <a_heavy>
66

>  <a_hyd>
42

>  <a_IC>
196.82378

>  <a_ICM>
1.4058841

>  <a_nB>
0

>  <a_nBr>
0

>  <a_nC>
47

>  <a_nCl>
0

>  <a_nF>
0

>  <a_nH>
74

>  <a_nI>
0

>  <a_nN>
0

>  <a_nO>
19

>  <a_nP>
0

>  <a_nS>
0

>  <balabanJ>
0.73440379

>  <BCUT_PEOE_0>
-2.9918089

>  <BCUT_PEOE_1>
-0.53549594

>  <BCUT_PEOE_2>
0.61574477

>  <BCUT_PEOE_3>
3.0046449

>  <BCUT_SLOGP_0>
-2.9609232

>  <BCUT_SLOGP_1>
-0.56978464

>  <BCUT_SLOGP_2>
0.52075559

>  <BCUT_SLOGP_3>
3.0420964

>  <BCUT_SMR_0>
-2.7460811

>  <BCUT_SMR_1>
-0.4287664

>  <BCUT_SMR_2>
0.70409846

>  <BCUT_SMR_3>
3.2458844

>  <bpol>
99.099319

>  <b_1rotN>
10

>  <b_1rotR>
0.13513513

>  <b_ar>
0

>  <b_count>
148

>  <b_double>
2

>  <b_heavy>
74

>  <b_max1len>
4

>  <b_rotN>
10

>  <b_rotR>
0.13513513

>  <b_single>
146

>  <b_triple>
0

>  <chi0>
47.197212

>  <chi0v>
38.6562

>  <chi0v_C>
30.548794

>  <chi0_C>
30.833252

>  <chi1>
31.247133

>  <chi1v>
24.45789

>  <chi1v_C>
17.642504

>  <chi1_C>
17.981003

>  <chiral>
26

>  <chiral_u>
26

>  <density>
0.7826913

>  <diameter>
33

>  <FCharge>
0

>  <GCUT_PEOE_0>
-0.8040241

>  <GCUT_PEOE_1>
-0.39269263

>  <GCUT_PEOE_2>
0.089830741

>  <GCUT_PEOE_3>
3.6058066

>  <GCUT_SLOGP_0>
-0.95329028

>  <GCUT_SLOGP_1>
-0.37775299

>  <GCUT_SLOGP_2>
-0.0069154799

>  <GCUT_SLOGP_3>
3.6416595

>  <GCUT_SMR_0>
-0.54082054

>  <GCUT_SMR_1>
-0.23823623

>  <GCUT_SMR_2>
0.15109442

>  <GCUT_SMR_3>
3.8169668

>  <Kier1>
50.922207

>  <Kier2>
19.785969

>  <Kier3>
9.2526798

>  <KierA1>
49.623901

>  <KierA2>
19.273735

>  <KierA3>
9.0106535

>  <KierFlex>
14.491485

>  <lip_acc>
19

>  <lip_don>
9

>  <lip_druglike>
0

>  <lip_violation>
3

>  <logP(o/w)>
1.408

>  <logS>
-5.3779802

>  <mr>
22.763264

>  <mutagenic>
0

>  <nmol>
1

>  <opr_brigid>
49

>  <opr_leadlike>
0

>  <opr_nring>
9

>  <opr_nrot>
18

>  <opr_violation>
5

>  <PC+>
0

>  <PC->
0

>  <PEOE_PC+>
7.4490657

>  <PEOE_PC->
-7.4490657

>  <PEOE_RPC+>
0.038517404

>  <PEOE_RPC->
0.052673206

>  <PEOE_VSA+0>
213.23967

>  <PEOE_VSA+1>
171.51128

>  <PEOE_VSA+2>
34.334503

>  <PEOE_VSA+3>
44.619633

>  <PEOE_VSA+4>
92.917557

>  <PEOE_VSA+5>
14.708499

>  <PEOE_VSA+6>
0

>  <PEOE_VSA-0>
128.06207

>  <PEOE_VSA-1>
37.495354

>  <PEOE_VSA-2>
0

>  <PEOE_VSA-3>
0

>  <PEOE_VSA-4>
0

>  <PEOE_VSA-5>
13.566921

>  <PEOE_VSA-6>
92.441666

>  <PEOE_VSA_FHYD>
0.74654722

>  <PEOE_VSA_FNEG>
0.32218167

>  <PEOE_VSA_FPNEG>
0.12576693

>  <PEOE_VSA_FPOL>
0.25345281

>  <PEOE_VSA_FPOS>
0.6778183

>  <PEOE_VSA_FPPOS>
0.12768586

>  <PEOE_VSA_HYD>
629.26251

>  <PEOE_VSA_NEG>
271.56601

>  <PEOE_VSA_PNEG>
106.00859

>  <PEOE_VSA_POL>
213.63464

>  <PEOE_VSA_POS>
571.33112

>  <PEOE_VSA_PPOS>
107.62605

>  <petitjean>
0.4848485

>  <petitjeanSC>
0.94117647

>  <Q_PC+>
0

>  <Q_PC->
0

>  <Q_RPC+>
0

>  <Q_RPC->
0

>  <Q_VSA_FHYD>
1

>  <Q_VSA_FNEG>
0

>  <Q_VSA_FPNEG>
0

>  <Q_VSA_FPOL>
0

>  <Q_VSA_FPOS>
1

>  <Q_VSA_FPPOS>
0

>  <Q_VSA_HYD>
842.89716

>  <Q_VSA_NEG>
0

>  <Q_VSA_PNEG>
0

>  <Q_VSA_POL>
0

>  <Q_VSA_POS>
842.89716

>  <Q_VSA_PPOS>
0

>  <radius>
17

>  <reactive>
1

>  <rings>
9

>  <RPC+>
0

>  <RPC->
0

>  <rsynth>
0.63636363

>  <SlogP>
0.042300001

>  <SlogP_VSA0>
228.46704

>  <SlogP_VSA1>
7.7454643

>  <SlogP_VSA2>
253.99695

>  <SlogP_VSA3>
41.852516

>  <SlogP_VSA4>
17.643185

>  <SlogP_VSA5>
3.185575

>  <SlogP_VSA6>
0

>  <SlogP_VSA7>
17.643185

>  <SlogP_VSA8>
207.55246

>  <SlogP_VSA9>
166.63008

>  <SMR>
22.52442

>  <SMR_VSA0>
122.86121

>  <SMR_VSA1>
228.46704

>  <SMR_VSA2>
17.643185

>  <SMR_VSA3>
134.32132

>  <SMR_VSA4>
0

>  <SMR_VSA5>
225.19565

>  <SMR_VSA6>
49.59798

>  <SMR_VSA7>
166.63008

>  <TPSA>
282.20999

>  <VAdjEq>
0.21395577

>  <VAdjMa>
7.2094536

>  <VDistEq>
4.8032556

>  <VDistMa>
11.739039

>  <vdw_area>
842.89716

>  <vdw_vol>
1204.9323

>  <vsa_acc>
33.59697

>  <vsa_acid>
0

>  <vsa_base>
0

>  <vsa_don>
0

>  <vsa_hyd>
518.78162

>  <vsa_other>
76.046249

>  <vsa_pol>
155.69926

>  <Weight>
943.08997

>  <weinerPath>
25932

>  <weinerPol>
136

>  <zagreb>
380

$$$$