Clc1c2c(C(O)=C3[C@H](C[C@@H]4[C@@](O)(C(O)=C(C(=O)N)C(=O)[C@H]4N(C)C)C3=O)[C@@H]2O)c(O)cc1
  MOE2013           2D

 32 35  0  0  1  0  0  0  0  0999 V2000
    0.0000    0.0000    0.0000 Cl  0  0  0  0  0  0  0  0  0  0  0  0
    0.7440    1.3020    0.0000 C   0  0  0  0  0  0  0  0  0  0  0  0
    2.2440    1.3090    0.0000 C   0  0  0  0  0  0  0  0  0  0  0  0
    2.9880    2.6120    0.0000 C   0  0  0  0  0  0  0  0  0  0  0  0
    4.4880    2.6190    0.0000 C   0  0  0  0  0  0  0  0  0  0  0  0
    5.2320    3.9210    0.0000 O   0  0  0  0  0  0  0  0  0  0  0  0
    5.2440    1.3230    0.0000 C   0  0  0  0  0  0  0  0  0  0  0  0
    4.5000    0.0210    0.0000 C   0  0  2  0  0  0  0  0  0  0  0  0
    5.2560   -1.2750    0.0000 C   0  0  0  0  0  0  0  0  0  0  0  0
    6.7560   -1.2680    0.0000 C   0  0  2  0  0  0  0  0  0  0  0  0
    7.5000    0.0340    0.0000 C   0  0  1  0  0  0  0  0  0  0  0  0
    8.2440    1.3370    0.0000 O   0  0  0  0  0  0  0  0  0  0  0  0
    9.0000    0.0410    0.0000 C   0  0  0  0  0  0  0  0  0  0  0  0
    9.7440    1.3430    0.0000 O   0  0  0  0  0  0  0  0  0  0  0  0
    9.7560   -1.2550    0.0000 C   0  0  0  0  0  0  0  0  0  0  0  0
   11.2560   -1.2480    0.0000 C   0  0  0  0  0  0  0  0  0  0  0  0
   12.0120   -2.5430    0.0000 O   0  0  0  0  0  0  0  0  0  0  0  0
   12.0000    0.0550    0.0000 N   0  0  0  0  0  0  0  0  0  0  0  0
    9.0120   -2.5570    0.0000 C   0  0  0  0  0  0  0  0  0  0  0  0
    9.7680   -3.8530    0.0000 O   0  0  0  0  0  0  0  0  0  0  0  0
    7.5120   -2.5640    0.0000 C   0  0  1  0  0  0  0  0  0  0  0  0
    6.7680   -3.8660    0.0000 N   0  0  0  0  0  0  0  0  0  0  0  0
    7.5240   -5.1620    0.0000 C   0  0  0  0  0  0  0  0  0  0  0  0
    5.2680   -3.8730    0.0000 C   0  0  0  0  0  0  0  0  0  0  0  0
    6.7440    1.3300    0.0000 C   0  0  0  0  0  0  0  0  0  0  0  0
    7.4880    2.6320    0.0000 O   0  0  0  0  0  0  0  0  0  0  0  0
    3.0000    0.0140    0.0000 C   0  0  2  0  0  0  0  0  0  0  0  0
    2.2560   -1.2890    0.0000 O   0  0  0  0  0  0  0  0  0  0  0  0
    2.2320    3.9070    0.0000 C   0  0  0  0  0  0  0  0  0  0  0  0
    2.9760    5.2100    0.0000 O   0  0  0  0  0  0  0  0  0  0  0  0
    0.7320    3.9000    0.0000 C   0  0  0  0  0  0  0  0  0  0  0  0
   -0.0120    2.5980    0.0000 C   0  0  0  0  0  0  0  0  0  0  0  0
  1  2  1  0  0  0  0
  2  3  1  0  0  0  0
  2 32  2  0  0  0  0
  3  4  2  0  0  0  0
  3 27  1  0  0  0  0
  4  5  1  0  0  0  0
  4 29  1  0  0  0  0
  5  6  1  0  0  0  0
  5  7  2  0  0  0  0
  7 25  1  0  0  0  0
  8  7  1  6  0  0  0
  8  9  1  0  0  0  0
  8 27  1  0  0  0  0
 10  9  1  6  0  0  0
 10 11  1  0  0  0  0
 10 21  1  0  0  0  0
 11 12  1  1  0  0  0
 11 13  1  0  0  0  0
 11 25  1  0  0  0  0
 13 14  1  0  0  0  0
 13 15  2  0  0  0  0
 15 16  1  0  0  0  0
 15 19  1  0  0  0  0
 16 17  2  0  0  0  0
 16 18  1  0  0  0  0
 19 20  2  0  0  0  0
 19 21  1  0  0  0  0
 21 22  1  1  0  0  0
 22 23  1  0  0  0  0
 22 24  1  0  0  0  0
 25 26  2  0  0  0  0
 27 28  1  6  0  0  0
 29 30  1  0  0  0  0
 29 31  2  0  0  0  0
 31 32  1  0  0  0  0
M  END
>  <Index>
293

>  <ID>
HT0607

>  <class>
0

>  <apol>
61.758652

>  <ast_fraglike>
0

>  <ast_fraglike_ext>
0

>  <ast_violation>
3

>  <ast_violation_ext>
4

>  <a_acc>
9

>  <a_acid>
0

>  <a_aro>
6

>  <a_base>
0

>  <a_count>
53

>  <a_don>
8

>  <a_donacc>
17

>  <a_heavy>
32

>  <a_hyd>
19

>  <a_IC>
93.102455

>  <a_ICM>
1.7566501

>  <a_nB>
0

>  <a_nBr>
0

>  <a_nC>
21

>  <a_nCl>
1

>  <a_nF>
0

>  <a_nH>
21

>  <a_nI>
0

>  <a_nN>
2

>  <a_nO>
8

>  <a_nP>
0

>  <a_nS>
0

>  <balabanJ>
1.7933124

>  <BCUT_PEOE_0>
-2.7701409

>  <BCUT_PEOE_1>
-0.60811543

>  <BCUT_PEOE_2>
0.62190467

>  <BCUT_PEOE_3>
2.8372288

>  <BCUT_SLOGP_0>
-2.8669178

>  <BCUT_SLOGP_1>
-0.61655003

>  <BCUT_SLOGP_2>
0.64789373

>  <BCUT_SLOGP_3>
2.8015692

>  <BCUT_SMR_0>
-2.5380991

>  <BCUT_SMR_1>
-0.41049883

>  <BCUT_SMR_2>
0.81894976

>  <BCUT_SMR_3>
3.064693

>  <bpol>
27.571346

>  <b_1rotN>
2

>  <b_1rotR>
0.057142857

>  <b_ar>
6

>  <b_count>
56

>  <b_double>
5

>  <b_heavy>
35

>  <b_max1len>
4

>  <b_rotN>
2

>  <b_rotR>
0.057142857

>  <b_single>
45

>  <b_triple>
0

>  <chi0>
23.858925

>  <chi0v>
17.790478

>  <chi0v_C>
12.171208

>  <chi0_C>
13.281574

>  <chi1>
14.849872

>  <chi1v>
10.071794

>  <chi1v_C>
6.2985473

>  <chi1_C>
7.6656852

>  <chiral>
5

>  <chiral_u>
0

>  <density>
0.86647433

>  <diameter>
11

>  <FCharge>
0

>  <GCUT_PEOE_0>
-0.84913546

>  <GCUT_PEOE_1>
-0.45766938

>  <GCUT_PEOE_2>
0.090805151

>  <GCUT_PEOE_3>
3.071521

>  <GCUT_SLOGP_0>
-1.37052

>  <GCUT_SLOGP_1>
-0.38472021

>  <GCUT_SLOGP_2>
0.07799603

>  <GCUT_SLOGP_3>
3.063462

>  <GCUT_SMR_0>
-0.52281207

>  <GCUT_SMR_1>
-0.24992412

>  <GCUT_SMR_2>
0.26354402

>  <GCUT_SMR_3>
3.3132932

>  <Kier1>
25.103674

>  <Kier2>
8.5872574

>  <Kier3>
3.4482758

>  <KierA1>
20.777397

>  <KierA2>
7.0616903

>  <KierA3>
2.8228033

>  <KierFlex>
4.5851111

>  <lip_acc>
10

>  <lip_don>
7

>  <lip_druglike>
1

>  <lip_violation>
1

>  <logP(o/w)>
-0.259

>  <logS>
-2.9984901

>  <mr>
11.007153

>  <mutagenic>
0

>  <nmol>
1

>  <opr_brigid>
21

>  <opr_leadlike>
0

>  <opr_nring>
4

>  <opr_nrot>
2

>  <opr_violation>
3

>  <PC+>
0

>  <PC->
0

>  <PEOE_PC+>
3.5623579

>  <PEOE_PC->
-3.5623579

>  <PEOE_RPC+>
0.0716452

>  <PEOE_RPC->
0.10849816

>  <PEOE_VSA+0>
53.799225

>  <PEOE_VSA+1>
42.029472

>  <PEOE_VSA+2>
10.667059

>  <PEOE_VSA+3>
25.696545

>  <PEOE_VSA+4>
60.079384

>  <PEOE_VSA+5>
12.949531

>  <PEOE_VSA+6>
0

>  <PEOE_VSA-0>
79.688499

>  <PEOE_VSA-1>
29.581947

>  <PEOE_VSA-2>
0

>  <PEOE_VSA-3>
0

>  <PEOE_VSA-4>
0

>  <PEOE_VSA-5>
40.700764

>  <PEOE_VSA-6>
45.488819

>  <PEOE_VSA_FHYD>
0.6026305

>  <PEOE_VSA_FNEG>
0.48781925

>  <PEOE_VSA_FPNEG>
0.2151076

>  <PEOE_VSA_FPOL>
0.39736947

>  <PEOE_VSA_FPOS>
0.51218075

>  <PEOE_VSA_FPPOS>
0.18226187

>  <PEOE_VSA_HYD>
241.46275

>  <PEOE_VSA_NEG>
195.46002

>  <PEOE_VSA_PNEG>
86.189583

>  <PEOE_VSA_POL>
159.21849

>  <PEOE_VSA_POS>
205.22122

>  <PEOE_VSA_PPOS>
73.028915

>  <petitjean>
0.45454547

>  <petitjeanSC>
0.83333331

>  <Q_PC+>
0

>  <Q_PC->
0

>  <Q_RPC+>
0

>  <Q_RPC->
0

>  <Q_VSA_FHYD>
1

>  <Q_VSA_FNEG>
0

>  <Q_VSA_FPNEG>
0

>  <Q_VSA_FPOL>
0

>  <Q_VSA_FPOS>
1

>  <Q_VSA_FPPOS>
0

>  <Q_VSA_HYD>
400.68124

>  <Q_VSA_NEG>
0

>  <Q_VSA_PNEG>
0

>  <Q_VSA_POL>
0

>  <Q_VSA_POS>
400.68124

>  <Q_VSA_PPOS>
0

>  <radius>
6

>  <reactive>
0

>  <rings>
4

>  <RPC+>
0

>  <RPC->
0

>  <rsynth>
0.25

>  <SlogP>
0.20379999

>  <SlogP_VSA0>
109.05286

>  <SlogP_VSA1>
19.75832

>  <SlogP_VSA2>
75.568619

>  <SlogP_VSA3>
50.770454

>  <SlogP_VSA4>
15.192742

>  <SlogP_VSA5>
77.408951

>  <SlogP_VSA6>
3.5006065

>  <SlogP_VSA7>
40.529797

>  <SlogP_VSA8>
25.337055

>  <SlogP_VSA9>
44.392071

>  <SMR>
11.06214

>  <SMR_VSA0>
71.586647

>  <SMR_VSA1>
79.279991

>  <SMR_VSA2>
59.592045

>  <SMR_VSA3>
37.180382

>  <SMR_VSA4>
38.140617

>  <SMR_VSA5>
54.154774

>  <SMR_VSA6>
16.634007

>  <SMR_VSA7>
104.94302

>  <TPSA>
181.62

>  <VAdjEq>
0.3597711

>  <VAdjMa>
6.129283

>  <VDistEq>
3.2246816

>  <VDistMa>
9.7660599

>  <vdw_area>
400.68124

>  <vdw_vol>
536.49365

>  <vsa_acc>
13.566921

>  <vsa_acid>
0

>  <vsa_base>
0

>  <vsa_don>
17.742489

>  <vsa_hyd>
203.11096

>  <vsa_other>
29.86657

>  <vsa_pol>
126.27785

>  <Weight>
464.858

>  <weinerPath>
2388

>  <weinerPol>
75

>  <zagreb>
184

$$$$