O1C(C)C(NC(=O)C=2C3=Nc4c(OC3=C(C)C(=O)C=2N)c(ccc4C(=O)NC2C(OC(=O)C(N(C)C(=O)CN(C)C(=O)C3N(CCC3)C(=O)C(NC2=O)C(C)C)C(C)C)C)C)C(=O)NC(C(C)C)C(=O)N2C(CCC2)C(=O)N(CC(=O)N(C)C(C(C)C)C1=O)C
  MOE2013           2D

 90 96  0  0  1  0  0  0  0  0999 V2000
    4.5260   -1.4610    0.0000 O   0  0  0  0  0  0  0  0  0  0  0  0
    5.8390   -2.1850    0.0000 C   0  0  3  0  0  0  0  0  0  0  0  0
    6.7230   -1.4640    0.0000 C   0  0  0  0  0  0  0  0  0  0  0  0
    5.0590   -3.7560    0.0000 C   0  0  3  0  0  0  0  0  0  0  0  0
    3.7070   -3.1180    0.0000 N   0  0  0  0  0  0  0  0  0  0  0  0
    2.4360   -2.3810    0.0000 C   0  0  0  0  0  0  0  0  0  0  0  0
    1.2560   -3.7140    0.0000 O   0  0  0  0  0  0  0  0  0  0  0  0
    1.7430   -1.0870    0.0000 C   0  0  0  0  0  0  0  0  0  0  0  0
    0.2470   -0.4650    0.0000 C   0  0  0  0  0  0  0  0  0  0  0  0
   -1.0400   -1.3370    0.0000 N   0  0  0  0  0  0  0  0  0  0  0  0
   -2.4900   -0.7470    0.0000 C   0  0  0  0  0  0  0  0  0  0  0  0
   -2.5460    0.7890    0.0000 C   0  0  0  0  0  0  0  0  0  0  0  0
   -1.3230    1.5900    0.0000 O   0  0  0  0  0  0  0  0  0  0  0  0
    0.0510    0.9700    0.0000 C   0  0  0  0  0  0  0  0  0  0  0  0
    1.1920    1.9980    0.0000 C   0  0  0  0  0  0  0  0  0  0  0  0
    0.8540    3.4510    0.0000 C   0  0  0  0  0  0  0  0  0  0  0  0
    2.5510    1.4770    0.0000 C   0  0  0  0  0  0  0  0  0  0  0  0
    3.8970    2.2090    0.0000 O   0  0  0  0  0  0  0  0  0  0  0  0
    2.8200   -0.0070    0.0000 C   0  0  0  0  0  0  0  0  0  0  0  0
    4.2080   -0.5960    0.0000 N   0  0  0  0  0  0  0  0  0  0  0  0
   -3.8750    1.5290    0.0000 C   0  0  0  0  0  0  0  0  0  0  0  0
   -5.1290    0.7230    0.0000 C   0  0  0  0  0  0  0  0  0  0  0  0
   -5.0910   -0.7240    0.0000 C   0  0  0  0  0  0  0  0  0  0  0  0
   -3.7520   -1.5120    0.0000 C   0  0  0  0  0  0  0  0  0  0  0  0
   -3.9680   -3.0240    0.0000 C   0  0  0  0  0  0  0  0  0  0  0  0
   -2.6800   -3.8690    0.0000 O   0  0  0  0  0  0  0  0  0  0  0  0
   -5.2710   -3.6790    0.0000 N   0  0  0  0  0  0  0  0  0  0  0  0
   -6.6200   -4.0510    0.0000 C   0  0  3  0  0  0  0  0  0  0  0  0
   -7.0130   -2.7340    0.0000 C   0  0  3  0  0  0  0  0  0  0  0  0
   -8.4630   -2.1900    0.0000 O   0  0  0  0  0  0  0  0  0  0  0  0
   -9.6300   -3.0680    0.0000 C   0  0  0  0  0  0  0  0  0  0  0  0
   -9.4320   -4.5710    0.0000 O   0  0  0  0  0  0  0  0  0  0  0  0
  -11.0480   -2.5320    0.0000 C   0  0  3  0  0  0  0  0  0  0  0  0
  -12.2060   -3.5410    0.0000 N   0  0  0  0  0  0  0  0  0  0  0  0
  -13.6420   -3.0700    0.0000 C   0  0  0  0  0  0  0  0  0  0  0  0
  -11.8920   -4.9940    0.0000 C   0  0  0  0  0  0  0  0  0  0  0  0
  -10.4390   -5.3840    0.0000 O   0  0  0  0  0  0  0  0  0  0  0  0
  -12.9260   -6.0640    0.0000 C   0  0  0  0  0  0  0  0  0  0  0  0
  -12.3970   -7.5440    0.0000 N   0  0  0  0  0  0  0  0  0  0  0  0
  -13.4070   -8.6960    0.0000 C   0  0  0  0  0  0  0  0  0  0  0  0
  -10.9450   -7.7560    0.0000 C   0  0  0  0  0  0  0  0  0  0  0  0
  -10.0930   -6.4970    0.0000 O   0  0  0  0  0  0  0  0  0  0  0  0
  -10.1250   -8.8670    0.0000 C   0  0  3  0  0  0  0  0  0  0  0  0
   -8.7730   -9.1950    0.0000 N   0  0  0  0  0  0  0  0  0  0  0  0
   -8.5960  -10.6890    0.0000 C   0  0  0  0  0  0  0  0  0  0  0  0
   -9.9990  -11.2770    0.0000 C   0  0  0  0  0  0  0  0  0  0  0  0
  -10.9780  -10.0890    0.0000 C   0  0  0  0  0  0  0  0  0  0  0  0
   -7.4830   -8.6430    0.0000 C   0  0  0  0  0  0  0  0  0  0  0  0
   -6.5550   -9.8640    0.0000 O   0  0  0  0  0  0  0  0  0  0  0  0
   -7.0640   -7.2150    0.0000 C   0  0  3  0  0  0  0  0  0  0  0  0
   -5.9110   -6.5490    0.0000 N   0  0  0  0  0  0  0  0  0  0  0  0
   -5.6110   -4.9860    0.0000 C   0  0  0  0  0  0  0  0  0  0  0  0
   -4.0510   -4.6480    0.0000 O   0  0  0  0  0  0  0  0  0  0  0  0
   -5.7010   -7.7540    0.0000 C   0  0  0  0  0  0  0  0  0  0  0  0
   -5.4050   -9.2410    0.0000 C   0  0  0  0  0  0  0  0  0  0  0  0
   -4.4770   -6.8360    0.0000 C   0  0  0  0  0  0  0  0  0  0  0  0
  -11.3170   -1.0490    0.0000 C   0  0  0  0  0  0  0  0  0  0  0  0
  -12.7480   -0.5590    0.0000 C   0  0  0  0  0  0  0  0  0  0  0  0
  -10.2010   -0.0630    0.0000 C   0  0  0  0  0  0  0  0  0  0  0  0
   -5.9380   -1.5620    0.0000 C   0  0  0  0  0  0  0  0  0  0  0  0
   -3.9010    3.0180    0.0000 C   0  0  0  0  0  0  0  0  0  0  0  0
    6.0710   -4.6750    0.0000 C   0  0  0  0  0  0  0  0  0  0  0  0
    7.3560   -3.6230    0.0000 O   0  0  0  0  0  0  0  0  0  0  0  0
    6.5710   -5.9550    0.0000 N   0  0  0  0  0  0  0  0  0  0  0  0
    7.5060   -6.8950    0.0000 C   0  0  3  0  0  0  0  0  0  0  0  0
    8.8290   -6.3360    0.0000 C   0  0  0  0  0  0  0  0  0  0  0  0
   10.0820   -7.2460    0.0000 C   0  0  0  0  0  0  0  0  0  0  0  0
    9.1190   -4.8460    0.0000 C   0  0  0  0  0  0  0  0  0  0  0  0
    7.6630   -8.3360    0.0000 C   0  0  0  0  0  0  0  0  0  0  0  0
    8.8380   -9.1640    0.0000 O   0  0  0  0  0  0  0  0  0  0  0  0
    6.8050   -9.3840    0.0000 N   0  0  0  0  0  0  0  0  0  0  0  0
    5.3270   -9.4810    0.0000 C   0  0  3  0  0  0  0  0  0  0  0  0
    4.9310  -10.8550    0.0000 C   0  0  0  0  0  0  0  0  0  0  0  0
    6.2170  -11.7210    0.0000 C   0  0  0  0  0  0  0  0  0  0  0  0
    7.3790  -10.6860    0.0000 C   0  0  0  0  0  0  0  0  0  0  0  0
    4.3470   -8.5680    0.0000 C   0  0  0  0  0  0  0  0  0  0  0  0
    5.1240   -7.1870    0.0000 O   0  0  0  0  0  0  0  0  0  0  0  0
    2.8580   -8.5770    0.0000 N   0  0  0  0  0  0  0  0  0  0  0  0
    2.0040   -7.4820    0.0000 C   0  0  0  0  0  0  0  0  0  0  0  0
    1.8760   -6.1030    0.0000 C   0  0  0  0  0  0  0  0  0  0  0  0
    0.4910   -5.4210    0.0000 O   0  0  0  0  0  0  0  0  0  0  0  0
    2.8670   -4.9700    0.0000 N   0  0  0  0  0  0  0  0  0  0  0  0
    4.4140   -5.2540    0.0000 C   0  0  0  0  0  0  0  0  0  0  0  0
    2.6310   -3.5370    0.0000 C   0  0  3  0  0  0  0  0  0  0  0  0
    1.1380   -2.8120    0.0000 C   0  0  0  0  0  0  0  0  0  0  0  0
    0.0280   -4.1200    0.0000 C   0  0  0  0  0  0  0  0  0  0  0  0
    0.6580   -1.7000    0.0000 C   0  0  0  0  0  0  0  0  0  0  0  0
    3.2880   -2.2910    0.0000 C   0  0  0  0  0  0  0  0  0  0  0  0
    2.6560   -0.9360    0.0000 O   0  0  0  0  0  0  0  0  0  0  0  0
    2.2050   -9.9520    0.0000 C   0  0  0  0  0  0  0  0  0  0  0  0
  1  2  1  0  0  0  0
  1 88  1  0  0  0  0
  2  3  1  0  0  0  0
  2  4  1  0  0  0  0
  4  5  1  0  0  0  0
  4 62  1  0  0  0  0
  5  6  1  0  0  0  0
  6  7  2  0  0  0  0
  6  8  1  0  0  0  0
  8  9  1  0  0  0  0
  8 19  2  0  0  0  0
  9 10  2  0  0  0  0
  9 14  1  0  0  0  0
 10 11  1  0  0  0  0
 11 12  1  0  0  0  0
 11 24  2  0  0  0  0
 12 13  1  0  0  0  0
 12 21  2  0  0  0  0
 13 14  1  0  0  0  0
 14 15  2  0  0  0  0
 15 16  1  0  0  0  0
 15 17  1  0  0  0  0
 17 18  2  0  0  0  0
 17 19  1  0  0  0  0
 19 20  1  0  0  0  0
 21 22  1  0  0  0  0
 21 61  1  0  0  0  0
 22 23  2  0  0  0  0
 23 24  1  0  0  0  0
 24 25  1  0  0  0  0
 25 26  2  0  0  0  0
 25 27  1  0  0  0  0
 27 28  1  0  0  0  0
 28 29  1  0  0  0  0
 28 52  1  0  0  0  0
 29 30  1  0  0  0  0
 29 60  1  0  0  0  0
 30 31  1  0  0  0  0
 31 32  2  0  0  0  0
 31 33  1  0  0  0  0
 33 34  1  0  0  0  0
 33 57  1  0  0  0  0
 34 35  1  0  0  0  0
 34 36  1  0  0  0  0
 36 37  2  0  0  0  0
 36 38  1  0  0  0  0
 38 39  1  0  0  0  0
 39 40  1  0  0  0  0
 39 41  1  0  0  0  0
 41 42  2  0  0  0  0
 41 43  1  0  0  0  0
 43 44  1  0  0  0  0
 43 47  1  0  0  0  0
 44 45  1  0  0  0  0
 44 48  1  0  0  0  0
 45 46  1  0  0  0  0
 46 47  1  0  0  0  0
 48 49  2  0  0  0  0
 48 50  1  0  0  0  0
 50 51  1  0  0  0  0
 50 54  1  0  0  0  0
 51 52  1  0  0  0  0
 52 53  2  0  0  0  0
 54 55  1  0  0  0  0
 54 56  1  0  0  0  0
 57 58  1  0  0  0  0
 57 59  1  0  0  0  0
 62 63  2  0  0  0  0
 62 64  1  0  0  0  0
 64 65  1  0  0  0  0
 65 66  1  0  0  0  0
 65 69  1  0  0  0  0
 66 67  1  0  0  0  0
 66 68  1  0  0  0  0
 69 70  2  0  0  0  0
 69 71  1  0  0  0  0
 71 72  1  0  0  0  0
 71 75  1  0  0  0  0
 72 73  1  0  0  0  0
 72 76  1  0  0  0  0
 73 74  1  0  0  0  0
 74 75  1  0  0  0  0
 76 77  2  0  0  0  0
 76 78  1  0  0  0  0
 78 79  1  0  0  0  0
 78 90  1  0  0  0  0
 79 80  1  0  0  0  0
 80 81  2  0  0  0  0
 80 82  1  0  0  0  0
 82 83  1  0  0  0  0
 82 84  1  0  0  0  0
 84 85  1  0  0  0  0
 84 88  1  0  0  0  0
 85 86  1  0  0  0  0
 85 87  1  0  0  0  0
 88 89  2  0  0  0  0
M  END
>  <Index>
277

>  <ID>
HT0582

>  <class>
0

>  <apol>
192.4962

>  <ast_fraglike>
0

>  <ast_fraglike_ext>
0

>  <ast_violation>
3

>  <ast_violation_ext>
5

>  <a_acc>
14

>  <a_acid>
0

>  <a_aro>
6

>  <a_base>
0

>  <a_count>
176

>  <a_don>
5

>  <a_donacc>
19

>  <a_heavy>
90

>  <a_hyd>
48

>  <a_IC>
284.02148

>  <a_ICM>
1.6137583

>  <a_nB>
0

>  <a_nBr>
0

>  <a_nC>
62

>  <a_nCl>
0

>  <a_nF>
0

>  <a_nH>
86

>  <a_nI>
0

>  <a_nN>
12

>  <a_nO>
16

>  <a_nP>
0

>  <a_nS>
0

>  <balabanJ>
1.2051396

>  <BCUT_PEOE_0>
-2.6791949

>  <BCUT_PEOE_1>
-0.42359996

>  <BCUT_PEOE_2>
0.44154981

>  <BCUT_PEOE_3>
2.7523

>  <BCUT_SLOGP_0>
-2.8649671

>  <BCUT_SLOGP_1>
-0.39688486

>  <BCUT_SLOGP_2>
0.41901535

>  <BCUT_SLOGP_3>
2.6991816

>  <BCUT_SMR_0>
-2.4297271

>  <BCUT_SMR_1>
-0.29211825

>  <BCUT_SMR_2>
0.55817288

>  <BCUT_SMR_3>
3.0045767

>  <bpol>
127.3978

>  <b_1rotN>
8

>  <b_1rotR>
0.083333336

>  <b_ar>
6

>  <b_count>
182

>  <b_double>
16

>  <b_heavy>
96

>  <b_max1len>
4

>  <b_rotN>
10

>  <b_rotR>
0.10416666

>  <b_single>
160

>  <b_triple>
0

>  <chi0>
66.976631

>  <chi0v>
54.134277

>  <chi0v_C>
41.894459

>  <chi0_C>
43.855679

>  <chi1>
42.101631

>  <chi1v>
30.527496

>  <chi1v_C>
18.267191

>  <chi1_C>
20.211027

>  <chiral>
10

>  <chiral_u>
10

>  <density>
0.76284939

>  <diameter>
28

>  <FCharge>
0

>  <GCUT_PEOE_0>
-0.84131259

>  <GCUT_PEOE_1>
-0.41348457

>  <GCUT_PEOE_2>
0.035304144

>  <GCUT_PEOE_3>
3.4004416

>  <GCUT_SLOGP_0>
-1.3399031

>  <GCUT_SLOGP_1>
-0.35977989

>  <GCUT_SLOGP_2>
0.037772082

>  <GCUT_SLOGP_3>
3.3344064

>  <GCUT_SMR_0>
-0.53069139

>  <GCUT_SMR_1>
-0.20694824

>  <GCUT_SMR_2>
0.11641809

>  <GCUT_SMR_3>
3.6383469

>  <Kier1>
77.353516

>  <Kier2>
33.237656

>  <Kier3>
17.360096

>  <KierA1>
59.74408

>  <KierA2>
25.592819

>  <KierA3>
13.339439

>  <KierFlex>
16.989105

>  <lip_acc>
28

>  <lip_don>
6

>  <lip_druglike>
0

>  <lip_violation>
3

>  <logP(o/w)>
1.219

>  <logS>
-10.72077

>  <mr>
32.581318

>  <mutagenic>
0

>  <nmol>
1

>  <opr_brigid>
56

>  <opr_leadlike>
0

>  <opr_nring>
5

>  <opr_nrot>
28

>  <opr_violation>
5

>  <PC+>
0

>  <PC->
0

>  <PEOE_PC+>
9.248415

>  <PEOE_PC->
-9.248415

>  <PEOE_RPC+>
0.030872431

>  <PEOE_RPC->
0.037040669

>  <PEOE_VSA+0>
394.53265

>  <PEOE_VSA+1>
115.55731

>  <PEOE_VSA+2>
72.721848

>  <PEOE_VSA+3>
34.476051

>  <PEOE_VSA+4>
112.05476

>  <PEOE_VSA+5>
55.316059

>  <PEOE_VSA+6>
0

>  <PEOE_VSA-0>
124.25941

>  <PEOE_VSA-1>
162.23633

>  <PEOE_VSA-2>
0

>  <PEOE_VSA-3>
0

>  <PEOE_VSA-4>
5.6825762

>  <PEOE_VSA-5>
183.02109

>  <PEOE_VSA-6>
8.0588322

>  <PEOE_VSA_FHYD>
0.7128098

>  <PEOE_VSA_FNEG>
0.38114345

>  <PEOE_VSA_FPNEG>
0.15518564

>  <PEOE_VSA_FPOL>
0.2871902

>  <PEOE_VSA_FPOS>
0.61885655

>  <PEOE_VSA_FPPOS>
0.13200457

>  <PEOE_VSA_HYD>
903.78357

>  <PEOE_VSA_NEG>
483.25824

>  <PEOE_VSA_PNEG>
196.7625

>  <PEOE_VSA_POL>
364.13333

>  <PEOE_VSA_POS>
784.65869

>  <PEOE_VSA_PPOS>
167.37083

>  <petitjean>
0.5

>  <petitjeanSC>
1

>  <Q_PC+>
0

>  <Q_PC->
0

>  <Q_RPC+>
0

>  <Q_RPC->
0

>  <Q_VSA_FHYD>
1

>  <Q_VSA_FNEG>
0

>  <Q_VSA_FPNEG>
0

>  <Q_VSA_FPOL>
0

>  <Q_VSA_FPOS>
1

>  <Q_VSA_FPPOS>
0

>  <Q_VSA_HYD>
1267.9169

>  <Q_VSA_NEG>
0

>  <Q_VSA_PNEG>
0

>  <Q_VSA_POL>
0

>  <Q_VSA_POS>
1267.9169

>  <Q_VSA_PPOS>
0

>  <radius>
14

>  <reactive>
1

>  <rings>
7

>  <RPC+>
0

>  <RPC->
0

>  <rsynth>
1

>  <SlogP>
0.14962

>  <SlogP_VSA0>
115.94008

>  <SlogP_VSA1>
95.269005

>  <SlogP_VSA2>
353.1394

>  <SlogP_VSA3>
73.758316

>  <SlogP_VSA4>
47.876549

>  <SlogP_VSA5>
162.74561

>  <SlogP_VSA6>
0

>  <SlogP_VSA7>
35.286369

>  <SlogP_VSA8>
75.473625

>  <SlogP_VSA9>
407.91235

>  <SMR>
32.318871

>  <SMR_VSA0>
332.20859

>  <SMR_VSA1>
46.5313

>  <SMR_VSA2>
89.686188

>  <SMR_VSA3>
70.778954

>  <SMR_VSA4>
35.653934

>  <SMR_VSA5>
110.75999

>  <SMR_VSA6>
150.28143

>  <SMR_VSA7>
531.50092

>  <TPSA>
355.54001

>  <VAdjEq>
0.1617589

>  <VAdjMa>
7.5849624

>  <VDistEq>
4.567575

>  <VDistMa>
12.728859

>  <vdw_area>
1267.9169

>  <vdw_vol>
1645.7219

>  <vsa_acc>
182.05255

>  <vsa_acid>
0

>  <vsa_base>
0

>  <vsa_don>
40.472794

>  <vsa_hyd>
783.04614

>  <vsa_other>
181.58165

>  <vsa_pol>
222.52534

>  <Weight>
1255.438

>  <weinerPath>
45378

>  <weinerPol>
178

>  <zagreb>
480

$$$$