O=C1NC(=Nc2n(cnc12)COCCO)N
  MOE2013           2D

 16 17  0  0  0  0  0  0  0  0999 V2000
    0.0000    0.0000    0.0000 O   0  0  0  0  0  0  0  0  0  0  0  0
    1.2980   -0.7520    0.0000 C   0  0  0  0  0  0  0  0  0  0  0  0
    1.2960   -2.2520    0.0000 N   0  0  0  0  0  0  0  0  0  0  0  0
    2.5940   -3.0030    0.0000 C   0  0  0  0  0  0  0  0  0  0  0  0
    3.8940   -2.2550    0.0000 N   0  0  0  0  0  0  0  0  0  0  0  0
    3.8960   -0.7550    0.0000 C   0  0  0  0  0  0  0  0  0  0  0  0
    5.0120    0.2470    0.0000 N   0  0  0  0  0  0  0  0  0  0  0  0
    4.4040    1.6190    0.0000 C   0  0  0  0  0  0  0  0  0  0  0  0
    2.9120    1.4640    0.0000 N   0  0  0  0  0  0  0  0  0  0  0  0
    2.5980   -0.0030    0.0000 C   0  0  0  0  0  0  0  0  0  0  0  0
    6.4790   -0.0660    0.0000 C   0  0  0  0  0  0  0  0  0  0  0  0
    7.4840    1.0470    0.0000 O   0  0  0  0  0  0  0  0  0  0  0  0
    8.9510    0.7330    0.0000 C   0  0  0  0  0  0  0  0  0  0  0  0
    9.9560    1.8470    0.0000 C   0  0  0  0  0  0  0  0  0  0  0  0
   11.4230    1.5330    0.0000 O   0  0  0  0  0  0  0  0  0  0  0  0
    2.5920   -4.5030    0.0000 N   0  0  0  0  0  0  0  0  0  0  0  0
  1  2  2  0  0  0  0
  2  3  1  0  0  0  0
  2 10  1  0  0  0  0
  3  4  1  0  0  0  0
  4  5  2  0  0  0  0
  4 16  1  0  0  0  0
  5  6  1  0  0  0  0
  6  7  1  0  0  0  0
  6 10  2  0  0  0  0
  7  8  1  0  0  0  0
  7 11  1  0  0  0  0
  8  9  2  0  0  0  0
  9 10  1  0  0  0  0
 11 12  1  0  0  0  0
 12 13  1  0  0  0  0
 13 14  1  0  0  0  0
 14 15  1  0  0  0  0
M  END
>  <Index>
26

>  <ID>
HT0070

>  <class>
0

>  <apol>
29.320723

>  <ast_fraglike>
0

>  <ast_fraglike_ext>
0

>  <ast_violation>
1

>  <ast_violation_ext>
3

>  <a_acc>
5

>  <a_acid>
0

>  <a_aro>
5

>  <a_base>
0

>  <a_count>
27

>  <a_don>
3

>  <a_donacc>
8

>  <a_heavy>
16

>  <a_hyd>
3

>  <a_IC>
49.963688

>  <a_ICM>
1.8505069

>  <a_nB>
0

>  <a_nBr>
0

>  <a_nC>
8

>  <a_nCl>
0

>  <a_nF>
0

>  <a_nH>
11

>  <a_nI>
0

>  <a_nN>
5

>  <a_nO>
3

>  <a_nP>
0

>  <a_nS>
0

>  <balabanJ>
1.8808812

>  <BCUT_PEOE_0>
-2.4527788

>  <BCUT_PEOE_1>
-0.53490835

>  <BCUT_PEOE_2>
0.45526421

>  <BCUT_PEOE_3>
2.4375148

>  <BCUT_SLOGP_0>
-2.6352277

>  <BCUT_SLOGP_1>
-0.50332719

>  <BCUT_SLOGP_2>
0.42650267

>  <BCUT_SLOGP_3>
2.4209383

>  <BCUT_SMR_0>
-2.2190487

>  <BCUT_SMR_1>
-0.31204748

>  <BCUT_SMR_2>
0.63657498

>  <BCUT_SMR_3>
2.6754191

>  <bpol>
19.519278

>  <b_1rotN>
4

>  <b_1rotR>
0.23529412

>  <b_ar>
5

>  <b_count>
28

>  <b_double>
2

>  <b_heavy>
17

>  <b_max1len>
6

>  <b_rotN>
4

>  <b_rotR>
0.23529412

>  <b_single>
21

>  <b_triple>
0

>  <chi0>
11.543606

>  <chi0v>
8.3813715

>  <chi0v_C>
4.6986704

>  <chi0_C>
5.1378284

>  <chi1>
7.7195454

>  <chi1v>
4.61343

>  <chi1v_C>
1

>  <chi1_C>
1.1666666

>  <chiral>
0

>  <chiral_u>
0

>  <density>
0.85382634

>  <diameter>
9

>  <FCharge>
0

>  <GCUT_PEOE_0>
-0.82764775

>  <GCUT_PEOE_1>
-0.44890094

>  <GCUT_PEOE_2>
0.080042757

>  <GCUT_PEOE_3>
2.2853262

>  <GCUT_SLOGP_0>
-1.3710475

>  <GCUT_SLOGP_1>
-0.44312176

>  <GCUT_SLOGP_2>
0.047797289

>  <GCUT_SLOGP_3>
2.2737942

>  <GCUT_SMR_0>
-0.51811105

>  <GCUT_SMR_1>
-0.2061602

>  <GCUT_SMR_2>
0.17410903

>  <GCUT_SMR_3>
2.5472012

>  <Kier1>
12.456747

>  <Kier2>
5.5576558

>  <Kier3>
2.8311112

>  <KierA1>
8.8106642

>  <KierA2>
3.8308983

>  <KierA3>
1.913875

>  <KierFlex>
2.1095474

>  <lip_acc>
8

>  <lip_don>
4

>  <lip_druglike>
1

>  <lip_violation>
0

>  <logP(o/w)>
-1.599

>  <logS>
-0.74667001

>  <mr>
5.3532133

>  <mutagenic>
0

>  <nmol>
1

>  <opr_brigid>
10

>  <opr_leadlike>
1

>  <opr_nring>
2

>  <opr_nrot>
4

>  <opr_violation>
0

>  <PC+>
0

>  <PC->
0

>  <PEOE_PC+>
2.3895311

>  <PEOE_PC->
-2.3895311

>  <PEOE_RPC+>
0.11737069

>  <PEOE_RPC->
0.16436031

>  <PEOE_VSA+0>
0

>  <PEOE_VSA+1>
55.494904

>  <PEOE_VSA+2>
44.944618

>  <PEOE_VSA+3>
43.747154

>  <PEOE_VSA+4>
26.005747

>  <PEOE_VSA+5>
12.949531

>  <PEOE_VSA+6>
0

>  <PEOE_VSA-0>
0

>  <PEOE_VSA-1>
0

>  <PEOE_VSA-2>
0

>  <PEOE_VSA-3>
5.6825762

>  <PEOE_VSA-4>
5.6825762

>  <PEOE_VSA-5>
13.703812

>  <PEOE_VSA-6>
16.922417

>  <PEOE_VSA_FHYD>
0.66569108

>  <PEOE_VSA_FNEG>
0.18651783

>  <PEOE_VSA_FPNEG>
0.16127689

>  <PEOE_VSA_FPOL>
0.33430892

>  <PEOE_VSA_FPOS>
0.81348217

>  <PEOE_VSA_FPPOS>
0.17303203

>  <PEOE_VSA_HYD>
149.86925

>  <PEOE_VSA_NEG>
41.991379

>  <PEOE_VSA_PNEG>
36.308804

>  <PEOE_VSA_POL>
75.264084

>  <PEOE_VSA_POS>
183.14195

>  <PEOE_VSA_PPOS>
38.955276

>  <petitjean>
0.44444445

>  <petitjeanSC>
0.80000001

>  <Q_PC+>
0

>  <Q_PC->
0

>  <Q_RPC+>
0

>  <Q_RPC->
0

>  <Q_VSA_FHYD>
1

>  <Q_VSA_FNEG>
0

>  <Q_VSA_FPNEG>
0

>  <Q_VSA_FPOL>
0

>  <Q_VSA_FPOS>
1

>  <Q_VSA_FPPOS>
0

>  <Q_VSA_HYD>
225.13333

>  <Q_VSA_NEG>
0

>  <Q_VSA_PNEG>
0

>  <Q_VSA_POL>
0

>  <Q_VSA_POS>
225.13333

>  <Q_VSA_PPOS>
0

>  <radius>
5

>  <reactive>
0

>  <rings>
2

>  <RPC+>
0

>  <RPC->
0

>  <rsynth>
1

>  <SlogP>
-1.1945

>  <SlogP_VSA0>
76.293167

>  <SlogP_VSA1>
25.842499

>  <SlogP_VSA2>
10.999887

>  <SlogP_VSA3>
41.852516

>  <SlogP_VSA4>
26.618963

>  <SlogP_VSA5>
16.78553

>  <SlogP_VSA6>
0

>  <SlogP_VSA7>
16.78553

>  <SlogP_VSA8>
0

>  <SlogP_VSA9>
22.825352

>  <SMR>
5.4218402

>  <SMR_VSA0>
34.862103

>  <SMR_VSA1>
60.855377

>  <SMR_VSA2>
18.01075

>  <SMR_VSA3>
2.7567475

>  <SMR_VSA4>
35.225109

>  <SMR_VSA5>
37.282959

>  <SMR_VSA6>
49.010395

>  <SMR_VSA7>
0

>  <TPSA>
114.76

>  <VAdjEq>
0.56510133

>  <VAdjMa>
5.0874629

>  <VDistEq>
2.9565868

>  <VDistMa>
7.6789293

>  <vdw_area>
225.13333

>  <vdw_vol>
263.76324

>  <vsa_acc>
27.435829

>  <vsa_acid>
0

>  <vsa_base>
0

>  <vsa_don>
23.425066

>  <vsa_hyd>
50.816502

>  <vsa_other>
91.161674

>  <vsa_pol>
64.427818

>  <Weight>
225.20799

>  <weinerPath>
453

>  <weinerPol>
22

>  <zagreb>
80

$$$$