ClCC(=O)[C@]1(O)[C@@]2([C@H]([C@@H]3CCC4=CC(=O)C=C[C@]4(C)[C@@]3(F)[C@@H](O)C2)C[C@@H]1C)C
  MOE2013           2D

 28 31  0  0  1  0  0  0  0  0999 V2000
    0.0000    0.0000    0.0000 Cl  0  0  0  0  0  0  0  0  0  0  0  0
    1.4880    0.1890    0.0000 C   0  0  0  0  0  0  0  0  0  0  0  0
    2.0680    1.5730    0.0000 C   0  0  0  0  0  0  0  0  0  0  0  0
    1.1600    2.7670    0.0000 O   0  0  0  0  0  0  0  0  0  0  0  0
    3.5560    1.7620    0.0000 C   0  0  2  0  0  0  0  0  0  0  0  0
    3.0250    0.3590    0.0000 O   0  0  0  0  0  0  0  0  0  0  0  0
    5.0130    1.4050    0.0000 C   0  0  2  0  0  0  0  0  0  0  0  0
    5.8030    2.6810    0.0000 C   0  0  2  0  0  0  0  0  0  0  0  0
    7.3020    2.6350    0.0000 C   0  0  2  0  0  0  0  0  0  0  0  0
    8.0910    3.9100    0.0000 C   0  0  0  0  0  0  0  0  0  0  0  0
    9.5900    3.8640    0.0000 C   0  0  0  0  0  0  0  0  0  0  0  0
   10.3000    2.5430    0.0000 C   0  0  0  0  0  0  0  0  0  0  0  0
   11.8000    2.4970    0.0000 C   0  0  0  0  0  0  0  0  0  0  0  0
   12.5100    1.1760    0.0000 C   0  0  0  0  0  0  0  0  0  0  0  0
   14.0090    1.1300    0.0000 O   0  0  0  0  0  0  0  0  0  0  0  0
   11.7200   -0.1000    0.0000 C   0  0  0  0  0  0  0  0  0  0  0  0
   10.2210   -0.0540    0.0000 C   0  0  0  0  0  0  0  0  0  0  0  0
    9.5110    1.2680    0.0000 C   0  0  1  0  0  0  0  0  0  0  0  0
    8.7220   -0.0080    0.0000 C   0  0  0  0  0  0  0  0  0  0  0  0
    8.0120    1.3130    0.0000 C   0  0  2  0  0  0  0  0  0  0  0  0
    6.5120    1.3590    0.0000 F   0  0  0  0  0  0  0  0  0  0  0  0
    7.2220    0.0380    0.0000 C   0  0  1  0  0  0  0  0  0  0  0  0
    7.9320   -1.2830    0.0000 O   0  0  0  0  0  0  0  0  0  0  0  0
    5.7230    0.0840    0.0000 C   0  0  0  0  0  0  0  0  0  0  0  0
    4.8330    3.8260    0.0000 C   0  0  0  0  0  0  0  0  0  0  0  0
    3.4450    3.2580    0.0000 C   0  0  2  0  0  0  0  0  0  0  0  0
    2.1700    4.0470    0.0000 C   0  0  0  0  0  0  0  0  0  0  0  0
    4.1160    0.2030    0.0000 C   0  0  0  0  0  0  0  0  0  0  0  0
  1  2  1  0  0  0  0
  2  3  1  0  0  0  0
  3  4  2  0  0  0  0
  5  3  1  1  0  0  0
  5  6  1  6  0  0  0
  5  7  1  0  0  0  0
  5 26  1  0  0  0  0
  7  8  1  0  0  0  0
  7 24  1  0  0  0  0
  7 28  1  1  0  0  0
  8  9  1  0  0  0  0
  8 25  1  1  0  0  0
  9 10  1  6  0  0  0
  9 20  1  0  0  0  0
 10 11  1  0  0  0  0
 11 12  1  0  0  0  0
 12 13  2  0  0  0  0
 12 18  1  0  0  0  0
 13 14  1  0  0  0  0
 14 15  2  0  0  0  0
 14 16  1  0  0  0  0
 16 17  2  0  0  0  0
 17 18  1  0  0  0  0
 18 19  1  1  0  0  0
 18 20  1  0  0  0  0
 20 21  1  6  0  0  0
 20 22  1  0  0  0  0
 22 23  1  1  0  0  0
 22 24  1  0  0  0  0
 25 26  1  0  0  0  0
 26 27  1  1  0  0  0
M  END
>  <Index>
244

>  <ID>
HT0516

>  <class>
0

>  <apol>
63.335205

>  <ast_fraglike>
0

>  <ast_fraglike_ext>
0

>  <ast_violation>
3

>  <ast_violation_ext>
3

>  <a_acc>
4

>  <a_acid>
0

>  <a_aro>
0

>  <a_base>
0

>  <a_count>
56

>  <a_don>
2

>  <a_donacc>
6

>  <a_heavy>
28

>  <a_hyd>
22

>  <a_IC>
84.498444

>  <a_ICM>
1.5089008

>  <a_nB>
0

>  <a_nBr>
0

>  <a_nC>
22

>  <a_nCl>
1

>  <a_nF>
1

>  <a_nH>
28

>  <a_nI>
0

>  <a_nN>
0

>  <a_nO>
4

>  <a_nP>
0

>  <a_nS>
0

>  <balabanJ>
1.7703513

>  <BCUT_PEOE_0>
-2.8985333

>  <BCUT_PEOE_1>
-0.49988741

>  <BCUT_PEOE_2>
0.47668764

>  <BCUT_PEOE_3>
2.9996283

>  <BCUT_SLOGP_0>
-2.9224494

>  <BCUT_SLOGP_1>
-0.42676795

>  <BCUT_SLOGP_2>
0.50904948

>  <BCUT_SLOGP_3>
2.9976714

>  <BCUT_SMR_0>
-2.6716533

>  <BCUT_SMR_1>
-0.33575603

>  <BCUT_SMR_2>
0.62864769

>  <BCUT_SMR_3>
3.226301

>  <bpol>
34.148796

>  <b_1rotN>
2

>  <b_1rotR>
0.064516127

>  <b_ar>
0

>  <b_count>
59

>  <b_double>
4

>  <b_heavy>
31

>  <b_max1len>
5

>  <b_rotN>
2

>  <b_rotR>
0.064516127

>  <b_single>
55

>  <b_triple>
0

>  <chi0>
20.698307

>  <chi0v>
17.299767

>  <chi0v_C>
14.076985

>  <chi0_C>
14.698306

>  <chi1>
12.963233

>  <chi1v>
10.627892

>  <chi1v_C>
8.7470713

>  <chi1_C>
9.5240755

>  <chiral>
8

>  <chiral_u>
0

>  <density>
0.78651083

>  <diameter>
12

>  <FCharge>
0

>  <GCUT_PEOE_0>
-0.79044002

>  <GCUT_PEOE_1>
-0.38322434

>  <GCUT_PEOE_2>
0.010859407

>  <GCUT_PEOE_3>
3.3678806

>  <GCUT_SLOGP_0>
-0.94214034

>  <GCUT_SLOGP_1>
-0.31846192

>  <GCUT_SLOGP_2>
0.027801113

>  <GCUT_SLOGP_3>
3.3954847

>  <GCUT_SMR_0>
-0.53789455

>  <GCUT_SMR_1>
-0.21323228

>  <GCUT_SMR_2>
0.15695097

>  <GCUT_SMR_3>
3.5863049

>  <Kier1>
21.240376

>  <Kier2>
6.4976859

>  <Kier3>
2.3951247

>  <KierA1>
19.598719

>  <KierA2>
5.9769287

>  <KierA3>
2.1983182

>  <KierFlex>
4.1835766

>  <lip_acc>
4

>  <lip_don>
2

>  <lip_druglike>
1

>  <lip_violation>
0

>  <logP(o/w)>
3.3989999

>  <logS>
-4.1469498

>  <mr>
10.46702

>  <mutagenic>
1

>  <nmol>
1

>  <opr_brigid>
20

>  <opr_leadlike>
1

>  <opr_nring>
4

>  <opr_nrot>
2

>  <opr_violation>
0

>  <PC+>
0

>  <PC->
0

>  <PEOE_PC+>
2.1884131

>  <PEOE_PC->
-2.1884131

>  <PEOE_RPC+>
0.096313782

>  <PEOE_RPC->
0.17756273

>  <PEOE_VSA+0>
85.307716

>  <PEOE_VSA+1>
41.509766

>  <PEOE_VSA+2>
0

>  <PEOE_VSA+3>
16.917038

>  <PEOE_VSA+4>
20.648346

>  <PEOE_VSA+5>
0

>  <PEOE_VSA+6>
0

>  <PEOE_VSA-0>
78.062737

>  <PEOE_VSA-1>
51.958797

>  <PEOE_VSA-2>
29.581947

>  <PEOE_VSA-3>
0

>  <PEOE_VSA-4>
11.908636

>  <PEOE_VSA-5>
27.133842

>  <PEOE_VSA-6>
15.535081

>  <PEOE_VSA_FHYD>
0.8012861

>  <PEOE_VSA_FNEG>
0.56577247

>  <PEOE_VSA_FPNEG>
0.14417

>  <PEOE_VSA_FPOL>
0.19871388

>  <PEOE_VSA_FPOS>
0.43422753

>  <PEOE_VSA_FPPOS>
0.054543883

>  <PEOE_VSA_HYD>
303.33801

>  <PEOE_VSA_NEG>
214.18105

>  <PEOE_VSA_PNEG>
54.577557

>  <PEOE_VSA_POL>
75.225906

>  <PEOE_VSA_POS>
164.38287

>  <PEOE_VSA_PPOS>
20.648346

>  <petitjean>
0.5

>  <petitjeanSC>
1

>  <Q_PC+>
0

>  <Q_PC->
0

>  <Q_RPC+>
0

>  <Q_RPC->
0

>  <Q_VSA_FHYD>
1

>  <Q_VSA_FNEG>
0

>  <Q_VSA_FPNEG>
0

>  <Q_VSA_FPOL>
0

>  <Q_VSA_FPOS>
1

>  <Q_VSA_FPPOS>
0

>  <Q_VSA_HYD>
378.5639

>  <Q_VSA_NEG>
0

>  <Q_VSA_PNEG>
0

>  <Q_VSA_POL>
0

>  <Q_VSA_POS>
378.5639

>  <Q_VSA_PPOS>
0

>  <radius>
6

>  <reactive>
1

>  <rings>
4

>  <RPC+>
0

>  <RPC->
0

>  <rsynth>
0.2857143

>  <SlogP>
3.1422

>  <SlogP_VSA0>
50.770454

>  <SlogP_VSA1>
11.375222

>  <SlogP_VSA2>
54.193081

>  <SlogP_VSA3>
19.183437

>  <SlogP_VSA4>
13.232388

>  <SlogP_VSA5>
3.185575

>  <SlogP_VSA6>
0

>  <SlogP_VSA7>
52.929554

>  <SlogP_VSA8>
75.473625

>  <SlogP_VSA9>
154.08681

>  <SMR>
10.35786

>  <SMR_VSA0>
47.724434

>  <SMR_VSA1>
65.730568

>  <SMR_VSA2>
13.232388

>  <SMR_VSA3>
9.6542244

>  <SMR_VSA4>
0

>  <SMR_VSA5>
128.40317

>  <SMR_VSA6>
30.558659

>  <SMR_VSA7>
139.12669

>  <TPSA>
74.599998

>  <VAdjEq>
0.39893496

>  <VAdjMa>
5.9541965

>  <VDistEq>
3.152231

>  <VDistMa>
9.3609161

>  <vdw_area>
378.5639

>  <vdw_vol>
522.4505

>  <vsa_acc>
27.133842

>  <vsa_acid>
0

>  <vsa_base>
0

>  <vsa_don>
0

>  <vsa_hyd>
275.78778

>  <vsa_other>
16.917038

>  <vsa_pol>
54.267685

>  <Weight>
410.91299

>  <weinerPath>
1670

>  <weinerPol>
70

>  <zagreb>
168

$$$$