ClC(N)C
  MOE2013           2D

  4  3  0  0  1  0  0  0  0  0999 V2000
    0.0000    0.0000    0.0000 Cl  0  0  0  0  0  0  0  0  0  0  0  0
   -1.5000    0.0000    0.0000 C   0  0  3  0  0  0  0  0  0  0  0  0
   -2.2500    1.2990    0.0000 N   0  0  0  0  0  0  0  0  0  0  0  0
   -2.2500   -1.2990    0.0000 C   0  0  0  0  0  0  0  0  0  0  0  0
  1  2  1  0  0  0  0
  2  3  1  0  0  0  0
  2  4  1  0  0  0  0
M  END
>  <Index>
215

>  <ID>
HT0451

>  <class>
0

>  <apol>
10.800758

>  <ast_fraglike>
1

>  <ast_fraglike_ext>
1

>  <ast_violation>
0

>  <ast_violation_ext>
0

>  <a_acc>
1

>  <a_acid>
0

>  <a_aro>
0

>  <a_base>
0

>  <a_count>
10

>  <a_don>
1

>  <a_donacc>
2

>  <a_heavy>
4

>  <a_hyd>
2

>  <a_IC>
15.709506

>  <a_ICM>
1.5709506

>  <a_nB>
0

>  <a_nBr>
0

>  <a_nC>
2

>  <a_nCl>
1

>  <a_nF>
0

>  <a_nH>
6

>  <a_nI>
0

>  <a_nN>
1

>  <a_nO>
0

>  <a_nP>
0

>  <a_nS>
0

>  <balabanJ>
2.3237901

>  <BCUT_PEOE_0>
-2.4076951

>  <BCUT_PEOE_1>
-0.02081437

>  <BCUT_PEOE_2>
0.11953516

>  <BCUT_PEOE_3>
2.3666804

>  <BCUT_SLOGP_0>
-2.6101515

>  <BCUT_SLOGP_1>
0.123

>  <BCUT_SLOGP_2>
0.37616083

>  <BCUT_SLOGP_3>
2.3683956

>  <BCUT_SMR_0>
-2.1479504

>  <BCUT_SMR_1>
0.096270002

>  <BCUT_SMR_2>
0.33788365

>  <BCUT_SMR_3>
2.6256456

>  <bpol>
6.319242

>  <b_1rotN>
0

>  <b_1rotR>
0

>  <b_ar>
0

>  <b_count>
9

>  <b_double>
0

>  <b_heavy>
3

>  <b_max1len>
4

>  <b_rotN>
0

>  <b_rotR>
0

>  <b_single>
9

>  <b_triple>
0

>  <chi0>
3.5773504

>  <chi0v>
3.288594

>  <chi0v_C>
1.5773503

>  <chi0_C>
1.5773503

>  <chi1>
1.7320508

>  <chi1v>
1.5653373

>  <chi1v_C>
0.57735026

>  <chi1_C>
0.57735026

>  <chiral>
1

>  <chiral_u>
1

>  <density>
0.85166562

>  <diameter>
2

>  <FCharge>
0

>  <GCUT_PEOE_0>
-0.81445456

>  <GCUT_PEOE_1>
-0.17950979

>  <GCUT_PEOE_2>
-0.040464841

>  <GCUT_PEOE_3>
1.6651856

>  <GCUT_SLOGP_0>
-1.3631967

>  <GCUT_SLOGP_1>
-0.037

>  <GCUT_SLOGP_2>
0.12221217

>  <GCUT_SLOGP_3>
1.7151206

>  <GCUT_SMR_0>
-0.50368947

>  <GCUT_SMR_1>
-0.063730001

>  <GCUT_SMR_2>
0.13084798

>  <GCUT_SMR_3>
1.9100401

>  <Kier1>
4

>  <Kier2>
1.3333334

>  <Kier3>
0

>  <KierA1>
5.9130168

>  <KierA2>
2.3159628

>  <KierA3>
0

>  <KierFlex>
3.4235816

>  <lip_acc>
1

>  <lip_don>
2

>  <lip_druglike>
1

>  <lip_violation>
0

>  <logP(o/w)>
0.46700001

>  <logS>
-0.25512001

>  <mr>
1.9043552

>  <mutagenic>
1

>  <nmol>
1

>  <opr_brigid>
0

>  <opr_leadlike>
1

>  <opr_nring>
0

>  <opr_nrot>
0

>  <opr_violation>
0

>  <PC+>
0

>  <PC->
0

>  <PEOE_PC+>
0.45664898

>  <PEOE_PC->
-0.45664898

>  <PEOE_RPC+>
0.26176596

>  <PEOE_RPC->
0.69045919

>  <PEOE_VSA+0>
12.796158

>  <PEOE_VSA+1>
9.7225533

>  <PEOE_VSA+2>
17.238026

>  <PEOE_VSA+3>
0

>  <PEOE_VSA+4>
0

>  <PEOE_VSA+5>
0

>  <PEOE_VSA+6>
0

>  <PEOE_VSA-0>
18.747677

>  <PEOE_VSA-1>
0

>  <PEOE_VSA-2>
29.581947

>  <PEOE_VSA-3>
0

>  <PEOE_VSA-4>
0

>  <PEOE_VSA-5>
0

>  <PEOE_VSA-6>
6.6511192

>  <PEOE_VSA_FHYD>
0.92979419

>  <PEOE_VSA_FNEG>
0.58034837

>  <PEOE_VSA_FPNEG>
0.070205785

>  <PEOE_VSA_FPOL>
0.070205785

>  <PEOE_VSA_FPOS>
0.41965163

>  <PEOE_VSA_FPPOS>
0

>  <PEOE_VSA_HYD>
88.086365

>  <PEOE_VSA_NEG>
54.980743

>  <PEOE_VSA_PNEG>
6.6511192

>  <PEOE_VSA_POL>
6.6511192

>  <PEOE_VSA_POS>
39.756737

>  <PEOE_VSA_PPOS>
0

>  <petitjean>
0.5

>  <petitjeanSC>
1

>  <Q_PC+>
0

>  <Q_PC->
0

>  <Q_RPC+>
0

>  <Q_RPC->
0

>  <Q_VSA_FHYD>
1

>  <Q_VSA_FNEG>
0

>  <Q_VSA_FPNEG>
0

>  <Q_VSA_FPOL>
0

>  <Q_VSA_FPOS>
1

>  <Q_VSA_FPPOS>
0

>  <Q_VSA_HYD>
94.73748

>  <Q_VSA_NEG>
0

>  <Q_VSA_PNEG>
0

>  <Q_VSA_POL>
0

>  <Q_VSA_POS>
94.73748

>  <Q_VSA_PPOS>
0

>  <radius>
1

>  <reactive>
1

>  <rings>
0

>  <RPC+>
0

>  <RPC->
0

>  <rsynth>
1

>  <SlogP>
0.52990001

>  <SlogP_VSA0>
32.897186

>  <SlogP_VSA1>
0

>  <SlogP_VSA2>
4.2970004

>  <SlogP_VSA3>
0

>  <SlogP_VSA4>
0

>  <SlogP_VSA5>
0

>  <SlogP_VSA6>
0

>  <SlogP_VSA7>
0

>  <SlogP_VSA8>
0

>  <SlogP_VSA9>
72.474655

>  <SMR>
1.95024

>  <SMR_VSA0>
0

>  <SMR_VSA1>
0

>  <SMR_VSA2>
0

>  <SMR_VSA3>
4.2970004

>  <SMR_VSA4>
32.897186

>  <SMR_VSA5>
0

>  <SMR_VSA6>
0

>  <SMR_VSA7>
72.474655

>  <TPSA>
26.02

>  <VAdjEq>
0.95443398

>  <VAdjMa>
2.5849626

>  <VDistEq>
1

>  <VDistMa>
3.5032582

>  <vdw_area>
94.73748

>  <vdw_vol>
93.381714

>  <vsa_acc>
0

>  <vsa_acid>
0

>  <vsa_base>
0

>  <vsa_don>
0

>  <vsa_hyd>
58.990395

>  <vsa_other>
9.0107584

>  <vsa_pol>
17.742489

>  <Weight>
79.529999

>  <weinerPath>
9

>  <weinerPol>
0

>  <zagreb>
12

$$$$