ClC12C(C3CC(C)C(C(=O)CO)C3(CC1O)C)CC(F)C1=CC(=O)C=CC12C
  MOE2013           2D

 28 31  0  0  1  0  0  0  0  0999 V2000
    0.0000    0.0000    0.0000 Cl  0  0  0  0  0  0  0  0  0  0  0  0
    1.5000   -0.0110    0.0000 C   0  0  3  0  0  0  0  0  0  0  0  0
    0.7590    1.2940    0.0000 C   0  0  3  0  0  0  0  0  0  0  0  0
   -0.7410    1.3040    0.0000 C   0  0  3  0  0  0  0  0  0  0  0  0
   -1.7360    2.4260    0.0000 C   0  0  0  0  0  0  0  0  0  0  0  0
   -3.1110    1.8260    0.0000 C   0  0  3  0  0  0  0  0  0  0  0  0
   -4.4050    2.5850    0.0000 C   0  0  0  0  0  0  0  0  0  0  0  0
   -2.9650    0.3330    0.0000 C   0  0  3  0  0  0  0  0  0  0  0  0
   -4.0870   -0.6620    0.0000 C   0  0  0  0  0  0  0  0  0  0  0  0
   -3.7860   -2.1320    0.0000 O   0  0  0  0  0  0  0  0  0  0  0  0
   -5.5100   -0.1890    0.0000 C   0  0  0  0  0  0  0  0  0  0  0  0
   -6.6320   -1.1840    0.0000 O   0  0  0  0  0  0  0  0  0  0  0  0
   -1.5000    0.0110    0.0000 C   0  0  3  0  0  0  0  0  0  0  0  0
   -0.7590   -1.2940    0.0000 C   0  0  0  0  0  0  0  0  0  0  0  0
    0.7410   -1.3040    0.0000 C   0  0  3  0  0  0  0  0  0  0  0  0
    1.4810   -2.6090    0.0000 O   0  0  0  0  0  0  0  0  0  0  0  0
   -2.3690   -1.2120    0.0000 C   0  0  0  0  0  0  0  0  0  0  0  0
    1.5190    2.5870    0.0000 C   0  0  0  0  0  0  0  0  0  0  0  0
    3.0190    2.5760    0.0000 C   0  0  3  0  0  0  0  0  0  0  0  0
    3.7780    3.8700    0.0000 F   0  0  0  0  0  0  0  0  0  0  0  0
    3.7590    1.2720    0.0000 C   0  0  0  0  0  0  0  0  0  0  0  0
    5.2590    1.2610    0.0000 C   0  0  0  0  0  0  0  0  0  0  0  0
    6.0000   -0.0430    0.0000 C   0  0  0  0  0  0  0  0  0  0  0  0
    7.5000   -0.0540    0.0000 O   0  0  0  0  0  0  0  0  0  0  0  0
    5.2410   -1.3370    0.0000 C   0  0  0  0  0  0  0  0  0  0  0  0
    3.7410   -1.3260    0.0000 C   0  0  0  0  0  0  0  0  0  0  0  0
    3.0000   -0.0220    0.0000 C   0  0  3  0  0  0  0  0  0  0  0  0
    2.2410   -1.3150    0.0000 C   0  0  0  0  0  0  0  0  0  0  0  0
  1  2  1  0  0  0  0
  2  3  1  0  0  0  0
  2 15  1  0  0  0  0
  2 27  1  0  0  0  0
  3  4  1  0  0  0  0
  3 18  1  0  0  0  0
  4  5  1  0  0  0  0
  4 13  1  0  0  0  0
  5  6  1  0  0  0  0
  6  7  1  0  0  0  0
  6  8  1  0  0  0  0
  8  9  1  0  0  0  0
  8 13  1  0  0  0  0
  9 10  2  0  0  0  0
  9 11  1  0  0  0  0
 11 12  1  0  0  0  0
 13 14  1  0  0  0  0
 13 17  1  0  0  0  0
 14 15  1  0  0  0  0
 15 16  1  0  0  0  0
 18 19  1  0  0  0  0
 19 20  1  0  0  0  0
 19 21  1  0  0  0  0
 21 22  2  0  0  0  0
 21 27  1  0  0  0  0
 22 23  1  0  0  0  0
 23 24  2  0  0  0  0
 23 25  1  0  0  0  0
 25 26  2  0  0  0  0
 26 27  1  0  0  0  0
 27 28  1  0  0  0  0
M  END
>  <Index>
246

>  <ID>
HT0519

>  <class>
0

>  <apol>
63.335205

>  <ast_fraglike>
0

>  <ast_fraglike_ext>
0

>  <ast_violation>
2

>  <ast_violation_ext>
2

>  <a_acc>
4

>  <a_acid>
0

>  <a_aro>
0

>  <a_base>
0

>  <a_count>
56

>  <a_don>
2

>  <a_donacc>
6

>  <a_heavy>
28

>  <a_hyd>
22

>  <a_IC>
84.498444

>  <a_ICM>
1.5089008

>  <a_nB>
0

>  <a_nBr>
0

>  <a_nC>
22

>  <a_nCl>
1

>  <a_nF>
1

>  <a_nH>
28

>  <a_nI>
0

>  <a_nN>
0

>  <a_nO>
4

>  <a_nP>
0

>  <a_nS>
0

>  <balabanJ>
1.7674142

>  <BCUT_PEOE_0>
-2.9036858

>  <BCUT_PEOE_1>
-0.51192081

>  <BCUT_PEOE_2>
0.48087466

>  <BCUT_PEOE_3>
2.9839771

>  <BCUT_SLOGP_0>
-2.9180033

>  <BCUT_SLOGP_1>
-0.44605613

>  <BCUT_SLOGP_2>
0.54449993

>  <BCUT_SLOGP_3>
3.0070646

>  <BCUT_SMR_0>
-2.6644385

>  <BCUT_SMR_1>
-0.32335097

>  <BCUT_SMR_2>
0.66791177

>  <BCUT_SMR_3>
3.2265646

>  <bpol>
34.148796

>  <b_1rotN>
2

>  <b_1rotR>
0.064516127

>  <b_ar>
0

>  <b_count>
59

>  <b_double>
4

>  <b_heavy>
31

>  <b_max1len>
5

>  <b_rotN>
2

>  <b_rotR>
0.064516127

>  <b_single>
55

>  <b_triple>
0

>  <chi0>
20.645901

>  <chi0v>
17.247362

>  <chi0v_C>
14.02458

>  <chi0_C>
14.6459

>  <chi1>
13.001908

>  <chi1v>
10.480289

>  <chi1v_C>
8.71245

>  <chi1_C>
9.4854002

>  <chiral>
9

>  <chiral_u>
9

>  <density>
0.78651083

>  <diameter>
12

>  <FCharge>
0

>  <GCUT_PEOE_0>
-0.7978577

>  <GCUT_PEOE_1>
-0.39410213

>  <GCUT_PEOE_2>
0.012764722

>  <GCUT_PEOE_3>
3.3521001

>  <GCUT_SLOGP_0>
-0.92157149

>  <GCUT_SLOGP_1>
-0.3211323

>  <GCUT_SLOGP_2>
0.022327561

>  <GCUT_SLOGP_3>
3.3930855

>  <GCUT_SMR_0>
-0.53786308

>  <GCUT_SMR_1>
-0.22333689

>  <GCUT_SMR_2>
0.15861207

>  <GCUT_SMR_3>
3.5804553

>  <Kier1>
21.240376

>  <Kier2>
6.75

>  <Kier3>
2.640625

>  <KierA1>
19.598719

>  <KierA2>
6.2090211

>  <KierA3>
2.423646

>  <KierFlex>
4.3460307

>  <lip_acc>
4

>  <lip_don>
2

>  <lip_druglike>
1

>  <lip_violation>
0

>  <logP(o/w)>
3.1900001

>  <logS>
-4.6484098

>  <mr>
10.487569

>  <mutagenic>
1

>  <nmol>
1

>  <opr_brigid>
20

>  <opr_leadlike>
1

>  <opr_nring>
4

>  <opr_nrot>
2

>  <opr_violation>
0

>  <PC+>
0

>  <PC->
0

>  <PEOE_PC+>
2.1758652

>  <PEOE_PC->
-2.1758652

>  <PEOE_RPC+>
0.096498542

>  <PEOE_RPC->
0.17923652

>  <PEOE_VSA+0>
81.042336

>  <PEOE_VSA+1>
34.76263

>  <PEOE_VSA+2>
20.418549

>  <PEOE_VSA+3>
16.917038

>  <PEOE_VSA+4>
20.648346

>  <PEOE_VSA+5>
0

>  <PEOE_VSA+6>
0

>  <PEOE_VSA-0>
52.822289

>  <PEOE_VSA-1>
68.49794

>  <PEOE_VSA-2>
29.581947

>  <PEOE_VSA-3>
0

>  <PEOE_VSA-4>
11.908636

>  <PEOE_VSA-5>
27.133842

>  <PEOE_VSA-6>
15.535081

>  <PEOE_VSA_FHYD>
0.80165535

>  <PEOE_VSA_FNEG>
0.54177886

>  <PEOE_VSA_FPNEG>
0.14390212

>  <PEOE_VSA_FPOL>
0.19834465

>  <PEOE_VSA_FPOS>
0.45822114

>  <PEOE_VSA_FPPOS>
0.054442536

>  <PEOE_VSA_HYD>
304.04272

>  <PEOE_VSA_NEG>
205.47972

>  <PEOE_VSA_PNEG>
54.577557

>  <PEOE_VSA_POL>
75.225906

>  <PEOE_VSA_POS>
173.78889

>  <PEOE_VSA_PPOS>
20.648346

>  <petitjean>
0.5

>  <petitjeanSC>
1

>  <Q_PC+>
0

>  <Q_PC->
0

>  <Q_RPC+>
0

>  <Q_RPC->
0

>  <Q_VSA_FHYD>
1

>  <Q_VSA_FNEG>
0

>  <Q_VSA_FPNEG>
0

>  <Q_VSA_FPOL>
0

>  <Q_VSA_FPOS>
1

>  <Q_VSA_FPPOS>
0

>  <Q_VSA_HYD>
379.26862

>  <Q_VSA_NEG>
0

>  <Q_VSA_PNEG>
0

>  <Q_VSA_POL>
0

>  <Q_VSA_POS>
379.26862

>  <Q_VSA_PPOS>
0

>  <radius>
6

>  <reactive>
1

>  <rings>
4

>  <RPC+>
0

>  <RPC->
0

>  <rsynth>
0.32142857

>  <SlogP>
2.9981

>  <SlogP_VSA0>
50.770454

>  <SlogP_VSA1>
11.375222

>  <SlogP_VSA2>
64.539322

>  <SlogP_VSA3>
20.926258

>  <SlogP_VSA4>
17.643185

>  <SlogP_VSA5>
3.185575

>  <SlogP_VSA6>
0

>  <SlogP_VSA7>
52.929554

>  <SlogP_VSA8>
56.605217

>  <SlogP_VSA9>
154.08681

>  <SMR>
10.35086

>  <SMR_VSA0>
47.724434

>  <SMR_VSA1>
65.730568

>  <SMR_VSA2>
17.643185

>  <SMR_VSA3>
20.000463

>  <SMR_VSA4>
0

>  <SMR_VSA5>
109.53477

>  <SMR_VSA6>
32.301479

>  <SMR_VSA7>
139.12669

>  <TPSA>
74.599998

>  <VAdjEq>
0.39893496

>  <VAdjMa>
5.9541965

>  <VDistEq>
3.1469295

>  <VDistMa>
9.3652163

>  <vdw_area>
379.26862

>  <vdw_vol>
522.4505

>  <vsa_acc>
27.133842

>  <vsa_acid>
0

>  <vsa_base>
0

>  <vsa_don>
0

>  <vsa_hyd>
275.14743

>  <vsa_other>
16.917038

>  <vsa_pol>
54.267685

>  <Weight>
410.91299

>  <weinerPath>
1674

>  <weinerPol>
66

>  <zagreb>
166

$$$$