S(=O)(=O)(c1ccc(N)cc1)c1ccc(N)cc1
  MOE2013           2D

 17 18  0  0  0  0  0  0  0  0999 V2000
    0.0000    0.0000    0.0000 S   0  0  0  0  0  0  0  0  0  0  0  0
    0.0000   -1.5000    0.0000 O   0  0  0  0  0  0  0  0  0  0  0  0
    0.0000    1.5000    0.0000 O   0  0  0  0  0  0  0  0  0  0  0  0
    1.5000    0.0000    0.0000 C   0  0  0  0  0  0  0  0  0  0  0  0
    2.2500    1.2990    0.0000 C   0  0  0  0  0  0  0  0  0  0  0  0
    3.7500    1.2990    0.0000 C   0  0  0  0  0  0  0  0  0  0  0  0
    4.5000    0.0000    0.0000 C   0  0  0  0  0  0  0  0  0  0  0  0
    6.0000    0.0000    0.0000 N   0  0  0  0  0  0  0  0  0  0  0  0
    3.7500   -1.2990    0.0000 C   0  0  0  0  0  0  0  0  0  0  0  0
    2.2500   -1.2990    0.0000 C   0  0  0  0  0  0  0  0  0  0  0  0
   -1.5000    0.0000    0.0000 C   0  0  0  0  0  0  0  0  0  0  0  0
   -2.2500   -1.2990    0.0000 C   0  0  0  0  0  0  0  0  0  0  0  0
   -3.7500   -1.2990    0.0000 C   0  0  0  0  0  0  0  0  0  0  0  0
   -4.5000    0.0000    0.0000 C   0  0  0  0  0  0  0  0  0  0  0  0
   -6.0000    0.0000    0.0000 N   0  0  0  0  0  0  0  0  0  0  0  0
   -3.7500    1.2990    0.0000 C   0  0  0  0  0  0  0  0  0  0  0  0
   -2.2500    1.2990    0.0000 C   0  0  0  0  0  0  0  0  0  0  0  0
  1  2  2  0  0  0  0
  1  3  2  0  0  0  0
  1  4  1  0  0  0  0
  1 11  1  0  0  0  0
  4  5  1  0  0  0  0
  4 10  2  0  0  0  0
  5  6  2  0  0  0  0
  6  7  1  0  0  0  0
  7  8  1  0  0  0  0
  7  9  2  0  0  0  0
  9 10  1  0  0  0  0
 11 12  1  0  0  0  0
 11 17  2  0  0  0  0
 12 13  2  0  0  0  0
 13 14  1  0  0  0  0
 14 15  1  0  0  0  0
 14 16  2  0  0  0  0
 16 17  1  0  0  0  0
M  END
>  <Index>
283

>  <ID>
HT0591

>  <class>
0

>  <apol>
35.825516

>  <ast_fraglike>
1

>  <ast_fraglike_ext>
0

>  <ast_violation>
0

>  <ast_violation_ext>
1

>  <a_acc>
2

>  <a_acid>
0

>  <a_aro>
12

>  <a_base>
0

>  <a_count>
29

>  <a_don>
2

>  <a_donacc>
4

>  <a_heavy>
17

>  <a_hyd>
12

>  <a_IC>
50.84235

>  <a_ICM>
1.7531844

>  <a_nB>
0

>  <a_nBr>
0

>  <a_nC>
12

>  <a_nCl>
0

>  <a_nF>
0

>  <a_nH>
12

>  <a_nI>
0

>  <a_nN>
2

>  <a_nO>
2

>  <a_nP>
0

>  <a_nS>
1

>  <balabanJ>
1.9409156

>  <BCUT_PEOE_0>
-2.3574033

>  <BCUT_PEOE_1>
-0.62401831

>  <BCUT_PEOE_2>
0.71971637

>  <BCUT_PEOE_3>
2.3778443

>  <BCUT_SLOGP_0>
-2.3543689

>  <BCUT_SLOGP_1>
-0.53807992

>  <BCUT_SLOGP_2>
0.80591482

>  <BCUT_SLOGP_3>
2.4476223

>  <BCUT_SMR_0>
-1.9873667

>  <BCUT_SMR_1>
-0.49986199

>  <BCUT_SMR_2>
0.85431087

>  <BCUT_SMR_3>
2.7440462

>  <bpol>
18.274485

>  <b_1rotN>
2

>  <b_1rotR>
0.11111111

>  <b_ar>
12

>  <b_count>
30

>  <b_double>
0

>  <b_heavy>
18

>  <b_max1len>
2

>  <b_rotN>
2

>  <b_rotR>
0.11111111

>  <b_single>
18

>  <b_triple>
0

>  <chi0>
12.466255

>  <chi0v>
9.814744

>  <chi0v_C>
6.6188021

>  <chi0_C>
7.9662552

>  <chi1>
7.9980373

>  <chi1v>
6.4448295

>  <chi1v_C>
3.6427345

>  <chi1_C>
5.2659864

>  <chiral>
0

>  <chiral_u>
0

>  <density>
0.795147

>  <diameter>
10

>  <FCharge>
0

>  <GCUT_PEOE_0>
-0.8609578

>  <GCUT_PEOE_1>
-0.45907104

>  <GCUT_PEOE_2>
0.092748627

>  <GCUT_PEOE_3>
2.3724823

>  <GCUT_SLOGP_0>
-1.3347858

>  <GCUT_SLOGP_1>
-0.34701991

>  <GCUT_SLOGP_2>
0.16445385

>  <GCUT_SLOGP_3>
2.4657748

>  <GCUT_SMR_0>
-0.40956798

>  <GCUT_SMR_1>
-0.21605732

>  <GCUT_SMR_2>
0.19305076

>  <GCUT_SMR_3>
2.6684604

>  <Kier1>
13.432098

>  <Kier2>
5.3254437

>  <Kier3>
3.0625

>  <KierA1>
10.263259

>  <KierA2>
3.9946983

>  <KierA3>
2.2635703

>  <KierFlex>
2.4116838

>  <lip_acc>
4

>  <lip_don>
4

>  <lip_druglike>
1

>  <lip_violation>
0

>  <logP(o/w)>
1.414

>  <logS>
-2.7911899

>  <mr>
6.7740979

>  <mutagenic>
1

>  <nmol>
1

>  <opr_brigid>
12

>  <opr_leadlike>
1

>  <opr_nring>
2

>  <opr_nrot>
2

>  <opr_violation>
0

>  <PC+>
0

>  <PC->
0

>  <PEOE_PC+>
1.7535757

>  <PEOE_PC->
-1.7535757

>  <PEOE_RPC+>
0.14824377

>  <PEOE_RPC->
0.26594236

>  <PEOE_VSA+0>
62.418716

>  <PEOE_VSA+1>
34.123089

>  <PEOE_VSA+2>
34.476051

>  <PEOE_VSA+3>
0

>  <PEOE_VSA+4>
0

>  <PEOE_VSA+5>
8.3692026

>  <PEOE_VSA+6>
0

>  <PEOE_VSA-0>
49.019615

>  <PEOE_VSA-1>
6.5127993

>  <PEOE_VSA-2>
0

>  <PEOE_VSA-3>
0

>  <PEOE_VSA-4>
0

>  <PEOE_VSA-5>
0

>  <PEOE_VSA-6>
45.318764

>  <PEOE_VSA_FHYD>
0.77652198

>  <PEOE_VSA_FNEG>
0.41979653

>  <PEOE_VSA_FPNEG>
0.18864092

>  <PEOE_VSA_FPOL>
0.22347802

>  <PEOE_VSA_FPOS>
0.58020347

>  <PEOE_VSA_FPPOS>
0.034837097

>  <PEOE_VSA_HYD>
186.55028

>  <PEOE_VSA_NEG>
100.85117

>  <PEOE_VSA_PNEG>
45.318764

>  <PEOE_VSA_POL>
53.687965

>  <PEOE_VSA_POS>
139.38705

>  <PEOE_VSA_PPOS>
8.3692026

>  <petitjean>
0.5

>  <petitjeanSC>
1

>  <Q_PC+>
0

>  <Q_PC->
0

>  <Q_RPC+>
0

>  <Q_RPC->
0

>  <Q_VSA_FHYD>
1

>  <Q_VSA_FNEG>
0

>  <Q_VSA_FPNEG>
0

>  <Q_VSA_FPOL>
0

>  <Q_VSA_FPOS>
1

>  <Q_VSA_FPPOS>
0

>  <Q_VSA_HYD>
240.23824

>  <Q_VSA_NEG>
0

>  <Q_VSA_PNEG>
0

>  <Q_VSA_POL>
0

>  <Q_VSA_POS>
240.23824

>  <Q_VSA_PPOS>
0

>  <radius>
5

>  <reactive>
0

>  <rings>
2

>  <RPC+>
0

>  <RPC->
0

>  <rsynth>
1

>  <SlogP>
1.6838

>  <SlogP_VSA0>
65.794373

>  <SlogP_VSA1>
48.171688

>  <SlogP_VSA2>
6.8792672

>  <SlogP_VSA3>
0

>  <SlogP_VSA4>
0

>  <SlogP_VSA5>
3.1014678

>  <SlogP_VSA6>
0

>  <SlogP_VSA7>
141.14548

>  <SlogP_VSA8>
0

>  <SlogP_VSA9>
5.513495

>  <SMR>
6.7160602

>  <SMR_VSA0>
48.171688

>  <SMR_VSA1>
0

>  <SMR_VSA2>
3.1014678

>  <SMR_VSA3>
0

>  <SMR_VSA4>
5.513495

>  <SMR_VSA5>
206.93985

>  <SMR_VSA6>
0

>  <SMR_VSA7>
6.8792672

>  <TPSA>
86.18

>  <VAdjEq>
0.54234898

>  <VAdjMa>
5.1699252

>  <VDistEq>
2.9636931

>  <VDistMa>
7.8678007

>  <vdw_area>
240.23824

>  <vdw_vol>
312.27682

>  <vsa_acc>
32.016521

>  <vsa_acid>
0

>  <vsa_base>
0

>  <vsa_don>
35.484978

>  <vsa_hyd>
148.23627

>  <vsa_other>
6.5127993

>  <vsa_pol>
67.501503

>  <Weight>
248.306

>  <weinerPath>
516

>  <weinerPol>
26

>  <zagreb>
88

$$$$