Clc1ccc(NC(NC(NCCCCCCNC(NC(Nc2ccc(Cl)cc2)=N)=N)=N)=N)cc1
  MOE2013           2D

 34 35  0  0  0  0  0  0  0  0999 V2000
    0.0000    0.0000    0.0000 Cl  0  0  0  0  0  0  0  0  0  0  0  0
   -1.4170   -0.4910    0.0000 C   0  0  0  0  0  0  0  0  0  0  0  0
   -1.7010   -1.9640    0.0000 C   0  0  0  0  0  0  0  0  0  0  0  0
   -3.1190   -2.4540    0.0000 C   0  0  0  0  0  0  0  0  0  0  0  0
   -4.2520   -1.4720    0.0000 C   0  0  0  0  0  0  0  0  0  0  0  0
   -5.6700   -1.9630    0.0000 N   0  0  0  0  0  0  0  0  0  0  0  0
   -6.8040   -0.9810    0.0000 C   0  0  0  0  0  0  0  0  0  0  0  0
   -8.2210   -1.4720    0.0000 N   0  0  0  0  0  0  0  0  0  0  0  0
   -9.3550   -0.4890    0.0000 C   0  0  0  0  0  0  0  0  0  0  0  0
  -10.7720   -0.9800    0.0000 N   0  0  0  0  0  0  0  0  0  0  0  0
  -11.9060    0.0020    0.0000 C   0  0  0  0  0  0  0  0  0  0  0  0
  -13.3230   -0.4890    0.0000 C   0  0  0  0  0  0  0  0  0  0  0  0
  -14.4570    0.4930    0.0000 C   0  0  0  0  0  0  0  0  0  0  0  0
  -15.8750    0.0030    0.0000 C   0  0  0  0  0  0  0  0  0  0  0  0
  -17.0080    0.9850    0.0000 C   0  0  0  0  0  0  0  0  0  0  0  0
  -18.4260    0.4940    0.0000 C   0  0  0  0  0  0  0  0  0  0  0  0
  -19.5590    1.4760    0.0000 N   0  0  0  0  0  0  0  0  0  0  0  0
  -20.9770    0.9860    0.0000 C   0  0  0  0  0  0  0  0  0  0  0  0
  -21.2610   -0.4870    0.0000 N   0  0  0  0  0  0  0  0  0  0  0  0
  -22.6780   -0.9780    0.0000 C   0  0  0  0  0  0  0  0  0  0  0  0
  -22.9620   -2.4510    0.0000 N   0  0  0  0  0  0  0  0  0  0  0  0
  -24.3790   -2.9420    0.0000 C   0  0  0  0  0  0  0  0  0  0  0  0
  -24.6630   -4.4150    0.0000 C   0  0  0  0  0  0  0  0  0  0  0  0
  -26.0800   -4.9050    0.0000 C   0  0  0  0  0  0  0  0  0  0  0  0
  -27.2140   -3.9230    0.0000 C   0  0  0  0  0  0  0  0  0  0  0  0
  -28.6320   -4.4140    0.0000 Cl  0  0  0  0  0  0  0  0  0  0  0  0
  -26.9300   -2.4500    0.0000 C   0  0  0  0  0  0  0  0  0  0  0  0
  -25.5130   -1.9600    0.0000 C   0  0  0  0  0  0  0  0  0  0  0  0
  -23.8120    0.0040    0.0000 N   0  0  0  0  0  0  0  0  0  0  0  0
  -22.1110    1.9680    0.0000 N   0  0  0  0  0  0  0  0  0  0  0  0
   -9.0710    0.9840    0.0000 N   0  0  0  0  0  0  0  0  0  0  0  0
   -6.5200    0.4920    0.0000 N   0  0  0  0  0  0  0  0  0  0  0  0
   -3.9690    0.0010    0.0000 C   0  0  0  0  0  0  0  0  0  0  0  0
   -2.5510    0.4910    0.0000 C   0  0  0  0  0  0  0  0  0  0  0  0
  1  2  1  0  0  0  0
  2  3  1  0  0  0  0
  2 34  2  0  0  0  0
  3  4  2  0  0  0  0
  4  5  1  0  0  0  0
  5  6  1  0  0  0  0
  5 33  2  0  0  0  0
  6  7  1  0  0  0  0
  7  8  1  0  0  0  0
  7 32  2  0  0  0  0
  8  9  1  0  0  0  0
  9 10  1  0  0  0  0
  9 31  2  0  0  0  0
 10 11  1  0  0  0  0
 11 12  1  0  0  0  0
 12 13  1  0  0  0  0
 13 14  1  0  0  0  0
 14 15  1  0  0  0  0
 15 16  1  0  0  0  0
 16 17  1  0  0  0  0
 17 18  1  0  0  0  0
 18 19  1  0  0  0  0
 18 30  2  0  0  0  0
 19 20  1  0  0  0  0
 20 21  1  0  0  0  0
 20 29  2  0  0  0  0
 21 22  1  0  0  0  0
 22 23  1  0  0  0  0
 22 28  2  0  0  0  0
 23 24  2  0  0  0  0
 24 25  1  0  0  0  0
 25 26  1  0  0  0  0
 25 27  2  0  0  0  0
 27 28  1  0  0  0  0
 33 34  1  0  0  0  0
M  END
>  <Index>
216

>  <ID>
HT0452

>  <class>
0

>  <apol>
74.083794

>  <ast_fraglike>
0

>  <ast_fraglike_ext>
0

>  <ast_violation>
4

>  <ast_violation_ext>
6

>  <a_acc>
4

>  <a_acid>
0

>  <a_aro>
12

>  <a_base>
0

>  <a_count>
64

>  <a_don>
10

>  <a_donacc>
14

>  <a_heavy>
34

>  <a_hyd>
20

>  <a_IC>
103.46651

>  <a_ICM>
1.6166642

>  <a_nB>
0

>  <a_nBr>
0

>  <a_nC>
22

>  <a_nCl>
2

>  <a_nF>
0

>  <a_nH>
30

>  <a_nI>
0

>  <a_nN>
10

>  <a_nO>
0

>  <a_nP>
0

>  <a_nS>
0

>  <balabanJ>
1.3808621

>  <BCUT_PEOE_0>
-2.6792924

>  <BCUT_PEOE_1>
-0.71976483

>  <BCUT_PEOE_2>
0.75615686

>  <BCUT_PEOE_3>
2.6161563

>  <BCUT_SLOGP_0>
-2.7358191

>  <BCUT_SLOGP_1>
-0.64146447

>  <BCUT_SLOGP_2>
0.84227055

>  <BCUT_SLOGP_3>
2.7200129

>  <BCUT_SMR_0>
-2.4217422

>  <BCUT_SMR_1>
-0.59410441

>  <BCUT_SMR_2>
0.88085669

>  <BCUT_SMR_3>
2.8727577

>  <bpol>
37.59621

>  <b_1rotN>
9

>  <b_1rotR>
0.25714287

>  <b_ar>
12

>  <b_count>
65

>  <b_double>
4

>  <b_heavy>
35

>  <b_max1len>
9

>  <b_rotN>
17

>  <b_rotR>
0.48571429

>  <b_single>
49

>  <b_triple>
0

>  <chi0>
24.760939

>  <chi0v>
20.12923

>  <chi0v_C>
12.861443

>  <chi0_C>
14.518297

>  <chi1>
16.312571

>  <chi1v>
11.483735

>  <chi1v_C>
6.1427345

>  <chi1_C>
7.7659864

>  <chiral>
0

>  <chiral_u>
0

>  <density>
0.77868825

>  <diameter>
25

>  <FCharge>
0

>  <GCUT_PEOE_0>
-0.84764111

>  <GCUT_PEOE_1>
-0.41234067

>  <GCUT_PEOE_2>
0.14259371

>  <GCUT_PEOE_3>
2.5614791

>  <GCUT_SLOGP_0>
-1.1921533

>  <GCUT_SLOGP_1>
-0.30472356

>  <GCUT_SLOGP_2>
0.26362529

>  <GCUT_SLOGP_3>
2.5963764

>  <GCUT_SMR_0>
-0.52978414

>  <GCUT_SMR_1>
-0.25369772

>  <GCUT_SMR_2>
0.29684526

>  <GCUT_SMR_3>
2.8286457

>  <Kier1>
30.225306

>  <Kier2>
17.454546

>  <Kier3>
14.370303

>  <KierA1>
23.073675

>  <KierA2>
13.208479

>  <KierA3>
10.807739

>  <KierFlex>
8.963769

>  <lip_acc>
10

>  <lip_don>
10

>  <lip_druglike>
0

>  <lip_violation>
2

>  <logP(o/w)>
6.204

>  <logS>
-6.8016

>  <mr>
13.492808

>  <mutagenic>
0

>  <nmol>
1

>  <opr_brigid>
16

>  <opr_leadlike>
0

>  <opr_nring>
2

>  <opr_nrot>
17

>  <opr_violation>
4

>  <PC+>
0

>  <PC->
0

>  <PEOE_PC+>
3.6856132

>  <PEOE_PC->
-3.6856132

>  <PEOE_RPC+>
0.054616343

>  <PEOE_RPC->
0.096570015

>  <PEOE_VSA+0>
100.00787

>  <PEOE_VSA+1>
34.123089

>  <PEOE_VSA+2>
0

>  <PEOE_VSA+3>
117.55328

>  <PEOE_VSA+4>
31.363148

>  <PEOE_VSA+5>
0

>  <PEOE_VSA+6>
0

>  <PEOE_VSA-0>
115.44186

>  <PEOE_VSA-1>
76.566521

>  <PEOE_VSA-2>
0

>  <PEOE_VSA-3>
0

>  <PEOE_VSA-4>
0

>  <PEOE_VSA-5>
49.061001

>  <PEOE_VSA-6>
0.54756403

>  <PEOE_VSA_FHYD>
0.84566951

>  <PEOE_VSA_FNEG>
0.4605172

>  <PEOE_VSA_FPNEG>
0.094552957

>  <PEOE_VSA_FPOL>
0.15433051

>  <PEOE_VSA_FPOS>
0.53948283

>  <PEOE_VSA_FPPOS>
0.05977755

>  <PEOE_VSA_HYD>
443.69263

>  <PEOE_VSA_NEG>
241.61694

>  <PEOE_VSA_PNEG>
49.608562

>  <PEOE_VSA_POL>
80.97171

>  <PEOE_VSA_POS>
283.04739

>  <PEOE_VSA_PPOS>
31.363148

>  <petitjean>
0.47999999

>  <petitjeanSC>
0.92307693

>  <Q_PC+>
0

>  <Q_PC->
0

>  <Q_RPC+>
0

>  <Q_RPC->
0

>  <Q_VSA_FHYD>
1

>  <Q_VSA_FNEG>
0

>  <Q_VSA_FPNEG>
0

>  <Q_VSA_FPOL>
0

>  <Q_VSA_FPOS>
1

>  <Q_VSA_FPPOS>
0

>  <Q_VSA_HYD>
524.66431

>  <Q_VSA_NEG>
0

>  <Q_VSA_PNEG>
0

>  <Q_VSA_POL>
0

>  <Q_VSA_POS>
524.66431

>  <Q_VSA_PPOS>
0

>  <radius>
13

>  <reactive>
0

>  <rings>
2

>  <RPC+>
0

>  <RPC->
0

>  <rsynth>
1

>  <SlogP>
4.1752801

>  <SlogP_VSA0>
72.042999

>  <SlogP_VSA1>
43.617874

>  <SlogP_VSA2>
0

>  <SlogP_VSA3>
36.879158

>  <SlogP_VSA4>
0

>  <SlogP_VSA5>
0

>  <SlogP_VSA6>
7.0012131

>  <SlogP_VSA7>
267.83334

>  <SlogP_VSA8>
75.473625

>  <SlogP_VSA9>
83.810783

>  <SMR>
14.1801

>  <SMR_VSA0>
0

>  <SMR_VSA1>
0

>  <SMR_VSA2>
198.73087

>  <SMR_VSA3>
7.0012131

>  <SMR_VSA4>
41.534996

>  <SMR_VSA5>
216.61909

>  <SMR_VSA6>
44.475529

>  <SMR_VSA7>
78.297287

>  <TPSA>
167.58

>  <VAdjEq>
0.32963872

>  <VAdjMa>
6.129283

>  <VDistEq>
4.4131603

>  <VDistMa>
9.8076077

>  <vdw_area>
524.66431

>  <vdw_vol>
649.11475

>  <vsa_acc>
0

>  <vsa_acid>
0

>  <vsa_base>
0

>  <vsa_don>
34.095455

>  <vsa_hyd>
311.90344

>  <vsa_other>
62.726295

>  <vsa_pol>
105.06541

>  <Weight>
505.45798

>  <weinerPath>
5239

>  <weinerPol>
41

>  <zagreb>
158

$$$$