P(OC[C@H]1O[C@@H](n2c3ncnc(N)c3nc2)[C@H](O)[C@@H]1O)(OP(OP(O)(O)=O)(O)=O)(O)=O
  MOE2013           2D

 31 33  0  0  1  0  0  0  0  0999 V2000
    0.0000    0.0000    0.0000 P   0  0  3  0  0  0  0  0  0  0  0  0
   -1.2970    0.7540    0.0000 O   0  0  0  0  0  0  0  0  0  0  0  0
   -2.5980    0.0080    0.0000 C   0  0  0  0  0  0  0  0  0  0  0  0
   -3.8950    0.7620    0.0000 C   0  0  1  0  0  0  0  0  0  0  0  0
   -5.2670    0.1560    0.0000 O   0  0  0  0  0  0  0  0  0  0  0  0
   -6.2670    1.2730    0.0000 C   0  0  1  0  0  0  0  0  0  0  0  0
   -7.7600    1.1210    0.0000 N   0  0  0  0  0  0  0  0  0  0  0  0
   -8.5130   -0.1760    0.0000 C   0  0  0  0  0  0  0  0  0  0  0  0
   -8.0540   -1.6040    0.0000 N   0  0  0  0  0  0  0  0  0  0  0  0
   -9.0610   -2.7150    0.0000 C   0  0  0  0  0  0  0  0  0  0  0  0
  -10.5280   -2.3990    0.0000 N   0  0  0  0  0  0  0  0  0  0  0  0
  -10.9870   -0.9710    0.0000 C   0  0  0  0  0  0  0  0  0  0  0  0
  -12.4530   -0.6550    0.0000 N   0  0  0  0  0  0  0  0  0  0  0  0
   -9.9800    0.1410    0.0000 C   0  0  0  0  0  0  0  0  0  0  0  0
  -10.1320    1.6330    0.0000 N   0  0  0  0  0  0  0  0  0  0  0  0
   -8.7600    2.2390    0.0000 C   0  0  0  0  0  0  0  0  0  0  0  0
   -5.5130    2.5700    0.0000 C   0  0  2  0  0  0  0  0  0  0  0  0
   -6.1190    3.9420    0.0000 O   0  0  0  0  0  0  0  0  0  0  0  0
   -4.0470    2.2540    0.0000 C   0  0  2  0  0  0  0  0  0  0  0  0
   -2.9290    3.2540    0.0000 O   0  0  0  0  0  0  0  0  0  0  0  0
    1.2970   -0.7540    0.0000 O   0  0  0  0  0  0  0  0  0  0  0  0
    2.5980   -0.0080    0.0000 P   0  0  3  0  0  0  0  0  0  0  0  0
    3.8990    0.7380    0.0000 O   0  0  0  0  0  0  0  0  0  0  0  0
    5.1960   -0.0160    0.0000 P   0  0  0  0  0  0  0  0  0  0  0  0
    5.9500    1.2810    0.0000 O   0  0  0  0  0  0  0  0  0  0  0  0
    6.4930   -0.7690    0.0000 O   0  0  0  0  0  0  0  0  0  0  0  0
    4.4420   -1.3120    0.0000 O   0  0  0  0  0  0  0  0  0  0  0  0
    1.8520    1.2930    0.0000 O   0  0  0  0  0  0  0  0  0  0  0  0
    3.3440   -1.3090    0.0000 O   0  0  0  0  0  0  0  0  0  0  0  0
   -0.7540   -1.2970    0.0000 O   0  0  0  0  0  0  0  0  0  0  0  0
    0.7540    1.2970    0.0000 O   0  0  0  0  0  0  0  0  0  0  0  0
  1  2  1  0  0  0  0
  1 21  1  0  0  0  0
  1 30  1  0  0  0  0
  1 31  2  0  0  0  0
  2  3  1  0  0  0  0
  4  3  1  1  0  0  0
  4  5  1  0  0  0  0
  4 19  1  0  0  0  0
  5  6  1  0  0  0  0
  6  7  1  1  0  0  0
  6 17  1  0  0  0  0
  7  8  1  0  0  0  0
  7 16  1  0  0  0  0
  8  9  2  0  0  0  0
  8 14  1  0  0  0  0
  9 10  1  0  0  0  0
 10 11  2  0  0  0  0
 11 12  1  0  0  0  0
 12 13  1  0  0  0  0
 12 14  2  0  0  0  0
 14 15  1  0  0  0  0
 15 16  2  0  0  0  0
 17 18  1  6  0  0  0
 17 19  1  0  0  0  0
 19 20  1  6  0  0  0
 21 22  1  0  0  0  0
 22 23  1  0  0  0  0
 22 28  1  0  0  0  0
 22 29  2  0  0  0  0
 23 24  1  0  0  0  0
 24 25  1  0  0  0  0
 24 26  1  0  0  0  0
 24 27  2  0  0  0  0
M  END
>  <Index>
30

>  <ID>
HT0076

>  <class>
0

>  <apol>
55.084686

>  <ast_fraglike>
0

>  <ast_fraglike_ext>
0

>  <ast_violation>
3

>  <ast_violation_ext>
5

>  <a_acc>
14

>  <a_acid>
0

>  <a_aro>
9

>  <a_base>
0

>  <a_count>
47

>  <a_don>
10

>  <a_donacc>
24

>  <a_heavy>
31

>  <a_hyd>
5

>  <a_IC>
99.376152

>  <a_ICM>
2.1143861

>  <a_nB>
0

>  <a_nBr>
0

>  <a_nC>
10

>  <a_nCl>
0

>  <a_nF>
0

>  <a_nH>
16

>  <a_nI>
0

>  <a_nN>
5

>  <a_nO>
13

>  <a_nP>
3

>  <a_nS>
0

>  <balabanJ>
1.5673071

>  <BCUT_PEOE_0>
-2.5245979

>  <BCUT_PEOE_1>
-0.70283103

>  <BCUT_PEOE_2>
0.76591754

>  <BCUT_PEOE_3>
2.7748773

>  <BCUT_SLOGP_0>
-2.7072172

>  <BCUT_SLOGP_1>
-0.96686119

>  <BCUT_SLOGP_2>
0.54625756

>  <BCUT_SLOGP_3>
2.7425723

>  <BCUT_SMR_0>
-2.3270094

>  <BCUT_SMR_1>
-0.48184383

>  <BCUT_SMR_2>
0.88345122

>  <BCUT_SMR_3>
2.9678984

>  <bpol>
55.749313

>  <b_1rotN>
8

>  <b_1rotR>
0.24242425

>  <b_ar>
10

>  <b_count>
49

>  <b_double>
0

>  <b_heavy>
33

>  <b_max1len>
10

>  <b_rotN>
8

>  <b_rotR>
0.24242425

>  <b_single>
39

>  <b_triple>
0

>  <chi0>
23.189871

>  <chi0v>
17.603355

>  <chi0v_C>
5.6712084

>  <chi0_C>
6.1627722

>  <chi1>
14.190889

>  <chi1v>
12.440603

>  <chi1v_C>
1.9082483

>  <chi1_C>
2.0749149

>  <chiral>
6

>  <chiral_u>
2

>  <density>
1.0753479

>  <diameter>
15

>  <FCharge>
0

>  <GCUT_PEOE_0>
-0.80455536

>  <GCUT_PEOE_1>
-0.44861552

>  <GCUT_PEOE_2>
0.17736539

>  <GCUT_PEOE_3>
2.681987

>  <GCUT_SLOGP_0>
-1.334729

>  <GCUT_SLOGP_1>
-0.64947665

>  <GCUT_SLOGP_2>
0.0021866008

>  <GCUT_SLOGP_3>
2.6614034

>  <GCUT_SMR_0>
-0.52578968

>  <GCUT_SMR_1>
-0.24491742

>  <GCUT_SMR_2>
0.2744883

>  <GCUT_SMR_3>
2.9079931

>  <Kier1>
25.619835

>  <Kier2>
9.3306217

>  <Kier3>
6.3208814

>  <KierA1>
25.956739

>  <KierA2>
9.4575243

>  <KierA3>
6.4089293

>  <KierFlex>
7.9189196

>  <lip_acc>
18

>  <lip_don>
8

>  <lip_druglike>
0

>  <lip_violation>
3

>  <logP(o/w)>
-4.9699402

>  <logS>
-0.32541999

>  <mr>
10.091836

>  <mutagenic>
1

>  <nmol>
1

>  <opr_brigid>
15

>  <opr_leadlike>
0

>  <opr_nring>
3

>  <opr_nrot>
9

>  <opr_violation>
4

>  <PC+>
0

>  <PC->
0

>  <PEOE_PC+>
4.4804883

>  <PEOE_PC->
-4.4804883

>  <PEOE_RPC+>
0.10425922

>  <PEOE_RPC->
0.086256094

>  <PEOE_VSA+0>
8.5307722

>  <PEOE_VSA+1>
32.012836

>  <PEOE_VSA+2>
100.84755

>  <PEOE_VSA+3>
61.883194

>  <PEOE_VSA+4>
20.648346

>  <PEOE_VSA+5>
0

>  <PEOE_VSA+6>
56.139206

>  <PEOE_VSA-0>
0

>  <PEOE_VSA-1>
13.656375

>  <PEOE_VSA-2>
0

>  <PEOE_VSA-3>
47.187408

>  <PEOE_VSA-4>
17.047728

>  <PEOE_VSA-5>
51.036114

>  <PEOE_VSA-6>
18.038837

>  <PEOE_VSA_FHYD>
0.61850256

>  <PEOE_VSA_FNEG>
0.34416088

>  <PEOE_VSA_FPNEG>
0.20167907

>  <PEOE_VSA_FPOL>
0.38149744

>  <PEOE_VSA_FPOS>
0.65583909

>  <PEOE_VSA_FPPOS>
0.17981838

>  <PEOE_VSA_HYD>
264.11813

>  <PEOE_VSA_NEG>
146.96646

>  <PEOE_VSA_PNEG>
86.122681

>  <PEOE_VSA_POL>
162.91023

>  <PEOE_VSA_POS>
280.06192

>  <PEOE_VSA_PPOS>
76.787552

>  <petitjean>
0.46666667

>  <petitjeanSC>
0.875

>  <Q_PC+>
0

>  <Q_PC->
0

>  <Q_RPC+>
0

>  <Q_RPC->
0

>  <Q_VSA_FHYD>
1

>  <Q_VSA_FNEG>
0

>  <Q_VSA_FPNEG>
0

>  <Q_VSA_FPOL>
0

>  <Q_VSA_FPOS>
1

>  <Q_VSA_FPPOS>
0

>  <Q_VSA_HYD>
427.02838

>  <Q_VSA_NEG>
0

>  <Q_VSA_PNEG>
0

>  <Q_VSA_POL>
0

>  <Q_VSA_POS>
427.02838

>  <Q_VSA_PPOS>
0

>  <radius>
8

>  <reactive>
1

>  <rings>
3

>  <RPC+>
0

>  <RPC->
0

>  <rsynth>
1

>  <SlogP>
-4.7441001

>  <SlogP_VSA0>
236.19681

>  <SlogP_VSA1>
52.25568

>  <SlogP_VSA2>
43.01421

>  <SlogP_VSA3>
20.926258

>  <SlogP_VSA4>
0

>  <SlogP_VSA5>
0

>  <SlogP_VSA6>
0

>  <SlogP_VSA7>
37.430504

>  <SlogP_VSA8>
6.0398216

>  <SlogP_VSA9>
52.412441

>  <SMR>
9.3527203

>  <SMR_VSA0>
90.909561

>  <SMR_VSA1>
188.25401

>  <SMR_VSA2>
0

>  <SMR_VSA3>
25.44577

>  <SMR_VSA4>
6.187367

>  <SMR_VSA5>
66.468246

>  <SMR_VSA6>
20.926258

>  <SMR_VSA7>
50.084522

>  <TPSA>
279.13

>  <VAdjEq>
0.36097246

>  <VAdjMa>
6.044394

>  <VDistEq>
3.7354364

>  <VDistMa>
9.6015596

>  <vdw_area>
427.02838

>  <vdw_vol>
471.64456

>  <vsa_acc>
24.217457

>  <vsa_acid>
0

>  <vsa_base>
0

>  <vsa_don>
17.742489

>  <vsa_hyd>
54.133583

>  <vsa_other>
154.70728

>  <vsa_pol>
179.19774

>  <Weight>
507.18201

>  <weinerPath>
2891

>  <weinerPol>
48

>  <zagreb>
170

$$$$