O1[C@@]2([C@H](OC1(C)C)C[C@H]1[C@H]3[C@@H]([C@@]4(C(=CC(=O)C=C4)CC3)C)[C@@H](O)C[C@@]12C)C(=O)CO
  MOE2013           2D

 30 34  0  0  1  0  0  0  0  0999 V2000
    0.0000    0.0000    0.0000 O   0  0  0  0  0  0  0  0  0  0  0  0
    1.3800    0.5870    0.0000 C   0  0  2  0  0  0  0  0  0  0  0  0
    1.2490    2.0810    0.0000 C   0  0  2  0  0  0  0  0  0  0  0  0
   -0.2130    2.4180    0.0000 O   0  0  0  0  0  0  0  0  0  0  0  0
   -0.9850    1.1310    0.0000 C   0  0  0  0  0  0  0  0  0  0  0  0
   -2.2090    0.2650    0.0000 C   0  0  0  0  0  0  0  0  0  0  0  0
   -2.3190    1.8170    0.0000 C   0  0  0  0  0  0  0  0  0  0  0  0
    2.6290    2.6680    0.0000 C   0  0  0  0  0  0  0  0  0  0  0  0
    3.6140    1.5370    0.0000 C   0  0  1  0  0  0  0  0  0  0  0  0
    5.1140    1.5120    0.0000 C   0  0  1  0  0  0  0  0  0  0  0  0
    5.8420    0.2000    0.0000 C   0  0  1  0  0  0  0  0  0  0  0  0
    7.3420    0.1750    0.0000 C   0  0  2  0  0  0  0  0  0  0  0  0
    8.1130    1.4610    0.0000 C   0  0  0  0  0  0  0  0  0  0  0  0
    9.6130    1.4360    0.0000 C   0  0  0  0  0  0  0  0  0  0  0  0
   10.3410    0.1250    0.0000 C   0  0  0  0  0  0  0  0  0  0  0  0
   11.8410    0.0990    0.0000 O   0  0  0  0  0  0  0  0  0  0  0  0
    9.5690   -1.1620    0.0000 C   0  0  0  0  0  0  0  0  0  0  0  0
    8.0700   -1.1360    0.0000 C   0  0  0  0  0  0  0  0  0  0  0  0
    7.3850    2.7730    0.0000 C   0  0  0  0  0  0  0  0  0  0  0  0
    5.8850    2.7980    0.0000 C   0  0  0  0  0  0  0  0  0  0  0  0
    6.5700   -1.1110    0.0000 C   0  0  0  0  0  0  0  0  0  0  0  0
    5.0700   -1.0860    0.0000 C   0  0  1  0  0  0  0  0  0  0  0  0
    5.7980   -2.3980    0.0000 O   0  0  0  0  0  0  0  0  0  0  0  0
    3.5700   -1.0610    0.0000 C   0  0  0  0  0  0  0  0  0  0  0  0
    2.8420    0.2510    0.0000 C   0  0  2  0  0  0  0  0  0  0  0  0
    2.4300   -1.1920    0.0000 C   0  0  0  0  0  0  0  0  0  0  0  0
    0.9680   -0.8550    0.0000 C   0  0  0  0  0  0  0  0  0  0  0  0
    2.0110   -1.9330    0.0000 O   0  0  0  0  0  0  0  0  0  0  0  0
   -0.4870   -1.2190    0.0000 C   0  0  0  0  0  0  0  0  0  0  0  0
   -0.9000   -2.6610    0.0000 O   0  0  0  0  0  0  0  0  0  0  0  0
  1  2  1  0  0  0  0
  1  5  1  0  0  0  0
  2  3  1  0  0  0  0
  2 25  1  0  0  0  0
  2 27  1  1  0  0  0
  3  4  1  6  0  0  0
  3  8  1  0  0  0  0
  4  5  1  0  0  0  0
  5  6  1  0  0  0  0
  5  7  1  0  0  0  0
  9  8  1  1  0  0  0
  9 10  1  0  0  0  0
  9 25  1  0  0  0  0
 10 11  1  0  0  0  0
 10 20  1  6  0  0  0
 11 12  1  0  0  0  0
 11 22  1  1  0  0  0
 12 13  1  0  0  0  0
 12 18  1  0  0  0  0
 12 21  1  1  0  0  0
 13 14  2  0  0  0  0
 13 19  1  0  0  0  0
 14 15  1  0  0  0  0
 15 16  2  0  0  0  0
 15 17  1  0  0  0  0
 17 18  2  0  0  0  0
 19 20  1  0  0  0  0
 22 23  1  1  0  0  0
 22 24  1  0  0  0  0
 24 25  1  0  0  0  0
 25 26  1  1  0  0  0
 27 28  2  0  0  0  0
 27 29  1  0  0  0  0
 29 30  1  0  0  0  0
M  END
>  <Index>
298

>  <ID>
HT0616

>  <class>
0

>  <apol>
68.389374

>  <ast_fraglike>
0

>  <ast_fraglike_ext>
0

>  <ast_violation>
2

>  <ast_violation_ext>
2

>  <a_acc>
6

>  <a_acid>
0

>  <a_aro>
0

>  <a_base>
0

>  <a_count>
62

>  <a_don>
2

>  <a_donacc>
8

>  <a_heavy>
30

>  <a_hyd>
21

>  <a_IC>
83.611298

>  <a_ICM>
1.3485693

>  <a_nB>
0

>  <a_nBr>
0

>  <a_nC>
24

>  <a_nCl>
0

>  <a_nF>
0

>  <a_nH>
32

>  <a_nI>
0

>  <a_nN>
0

>  <a_nO>
6

>  <a_nP>
0

>  <a_nS>
0

>  <balabanJ>
1.5421839

>  <BCUT_PEOE_0>
-2.9207921

>  <BCUT_PEOE_1>
-0.49352452

>  <BCUT_PEOE_2>
0.48797345

>  <BCUT_PEOE_3>
3.0052378

>  <BCUT_SLOGP_0>
-2.8993013

>  <BCUT_SLOGP_1>
-0.43374252

>  <BCUT_SLOGP_2>
0.48497108

>  <BCUT_SLOGP_3>
3.0024579

>  <BCUT_SMR_0>
-2.676589

>  <BCUT_SMR_1>
-0.33618578

>  <BCUT_SMR_2>
0.6281268

>  <BCUT_SMR_3>
3.2344735

>  <bpol>
40.730625

>  <b_1rotN>
2

>  <b_1rotR>
0.05882353

>  <b_ar>
0

>  <b_count>
66

>  <b_double>
4

>  <b_heavy>
34

>  <b_max1len>
4

>  <b_rotN>
2

>  <b_rotR>
0.05882353

>  <b_single>
62

>  <b_triple>
0

>  <chi0>
21.689871

>  <chi0v>
18.181757

>  <chi0v_C>
15.654336

>  <chi0_C>
16.275656

>  <chi1>
13.982783

>  <chi1v>
11.128462

>  <chi1v_C>
9.2977123

>  <chi1_C>
10.074718

>  <chiral>
8

>  <chiral_u>
0

>  <density>
0.74425691

>  <diameter>
12

>  <FCharge>
0

>  <GCUT_PEOE_0>
-0.79997408

>  <GCUT_PEOE_1>
-0.37913597

>  <GCUT_PEOE_2>
0.019295147

>  <GCUT_PEOE_3>
3.4211626

>  <GCUT_SLOGP_0>
-0.94960344

>  <GCUT_SLOGP_1>
-0.33961007

>  <GCUT_SLOGP_2>
-0.00342993

>  <GCUT_SLOGP_3>
3.4421747

>  <GCUT_SMR_0>
-0.53677273

>  <GCUT_SMR_1>
-0.21484621

>  <GCUT_SMR_2>
0.14267196

>  <GCUT_SMR_3>
3.6402035

>  <Kier1>
21.82526

>  <Kier2>
6.7586207

>  <Kier3>
2.7334712

>  <KierA1>
19.418913

>  <KierA2>
5.9881864

>  <KierA3>
2.4146681

>  <KierFlex>
3.8761356

>  <lip_acc>
6

>  <lip_don>
2

>  <lip_druglike>
1

>  <lip_violation>
0

>  <logP(o/w)>
3.118

>  <logS>
-4.5021701

>  <mr>
10.900918

>  <mutagenic>
0

>  <nmol>
1

>  <opr_brigid>
24

>  <opr_leadlike>
1

>  <opr_nring>
5

>  <opr_nrot>
2

>  <opr_violation>
1

>  <PC+>
0

>  <PC->
0

>  <PEOE_PC+>
2.492975

>  <PEOE_PC->
-2.492975

>  <PEOE_RPC+>
0.084224433

>  <PEOE_RPC->
0.15701938

>  <PEOE_VSA+0>
98.103882

>  <PEOE_VSA+1>
39.667561

>  <PEOE_VSA+2>
14.951293

>  <PEOE_VSA+3>
18.025583

>  <PEOE_VSA+4>
20.648346

>  <PEOE_VSA+5>
0

>  <PEOE_VSA+6>
0

>  <PEOE_VSA-0>
96.810417

>  <PEOE_VSA-1>
51.958797

>  <PEOE_VSA-2>
0

>  <PEOE_VSA-3>
0

>  <PEOE_VSA-4>
0

>  <PEOE_VSA-5>
27.133842

>  <PEOE_VSA-6>
20.542593

>  <PEOE_VSA_FHYD>
0.82383358

>  <PEOE_VSA_FNEG>
0.50650907

>  <PEOE_VSA_FPNEG>
0.12292737

>  <PEOE_VSA_FPOL>
0.17616639

>  <PEOE_VSA_FPOS>
0.49349093

>  <PEOE_VSA_FPPOS>
0.053239021

>  <PEOE_VSA_HYD>
319.51752

>  <PEOE_VSA_NEG>
196.44565

>  <PEOE_VSA_PNEG>
47.676434

>  <PEOE_VSA_POL>
68.324783

>  <PEOE_VSA_POS>
191.39665

>  <PEOE_VSA_PPOS>
20.648346

>  <petitjean>
0.5

>  <petitjeanSC>
1

>  <Q_PC+>
0

>  <Q_PC->
0

>  <Q_RPC+>
0

>  <Q_RPC->
0

>  <Q_VSA_FHYD>
1

>  <Q_VSA_FNEG>
0

>  <Q_VSA_FPNEG>
0

>  <Q_VSA_FPOL>
0

>  <Q_VSA_FPOS>
1

>  <Q_VSA_FPPOS>
0

>  <Q_VSA_HYD>
387.84232

>  <Q_VSA_NEG>
0

>  <Q_VSA_PNEG>
0

>  <Q_VSA_POL>
0

>  <Q_VSA_POS>
387.84232

>  <Q_VSA_PPOS>
0

>  <radius>
6

>  <reactive>
1

>  <rings>
5

>  <RPC+>
0

>  <RPC->
0

>  <rsynth>
0.40000001

>  <SlogP>
2.3267

>  <SlogP_VSA0>
50.770454

>  <SlogP_VSA1>
11.375222

>  <SlogP_VSA2>
82.661507

>  <SlogP_VSA3>
20.926258

>  <SlogP_VSA4>
13.232388

>  <SlogP_VSA5>
3.185575

>  <SlogP_VSA6>
0

>  <SlogP_VSA7>
52.929554

>  <SlogP_VSA8>
75.473625

>  <SlogP_VSA9>
133.30406

>  <SMR>
10.82496

>  <SMR_VSA0>
69.724205

>  <SMR_VSA1>
50.770454

>  <SMR_VSA2>
13.232388

>  <SMR_VSA3>
16.122873

>  <SMR_VSA4>
0

>  <SMR_VSA5>
128.40317

>  <SMR_VSA6>
32.301479

>  <SMR_VSA7>
133.30406

>  <TPSA>
93.059998

>  <VAdjEq>
0.38632196

>  <VAdjMa>
6.0874629

>  <VDistEq>
3.2612231

>  <VDistMa>
9.5549822

>  <vdw_area>
387.84232

>  <vdw_vol>
559.63739

>  <vsa_acc>
32.141354

>  <vsa_acid>
0

>  <vsa_base>
0

>  <vsa_don>
0

>  <vsa_hyd>
276.10294

>  <vsa_other>
18.025583

>  <vsa_pol>
59.275196

>  <Weight>
416.51398

>  <weinerPath>
2048

>  <weinerPol>
69

>  <zagreb>
184

$$$$