Clc1cc2c(N(CCC#N)C(=O)C(O)N=C2c2ccccc2F)cc1
  MOE2013           2D

 25 27  0  0  1  0  0  0  0  0999 V2000
    0.0000    0.0000    0.0000 Cl  0  0  0  0  0  0  0  0  0  0  0  0
    0.7570   -1.2950    0.0000 C   0  0  0  0  0  0  0  0  0  0  0  0
    0.0140   -2.5980    0.0000 C   0  0  0  0  0  0  0  0  0  0  0  0
    0.7710   -3.8930    0.0000 C   0  0  0  0  0  0  0  0  0  0  0  0
    2.2710   -3.8850    0.0000 C   0  0  0  0  0  0  0  0  0  0  0  0
    3.2110   -5.0540    0.0000 N   0  0  0  0  0  0  0  0  0  0  0  0
    4.6720   -4.7130    0.0000 C   0  0  0  0  0  0  0  0  0  0  0  0
    5.6970   -5.8080    0.0000 C   0  0  0  0  0  0  0  0  0  0  0  0
    7.1580   -5.4680    0.0000 C   0  0  0  0  0  0  0  0  0  0  0  0
    8.6190   -5.1280    0.0000 N   0  0  0  0  0  0  0  0  0  0  0  0
    2.8840   -6.5180    0.0000 C   0  0  0  0  0  0  0  0  0  0  0  0
    4.0620   -7.4470    0.0000 O   0  0  0  0  0  0  0  0  0  0  0  0
    1.5360   -7.1750    0.0000 C   0  0  3  0  0  0  0  0  0  0  0  0
    1.5430   -8.6750    0.0000 O   0  0  0  0  0  0  0  0  0  0  0  0
    0.1820   -6.5310    0.0000 N   0  0  0  0  0  0  0  0  0  0  0  0
   -0.1580   -5.0700    0.0000 C   0  0  0  0  0  0  0  0  0  0  0  0
   -1.6220   -4.7430    0.0000 C   0  0  0  0  0  0  0  0  0  0  0  0
   -2.0710   -3.3120    0.0000 C   0  0  0  0  0  0  0  0  0  0  0  0
   -3.5350   -2.9850    0.0000 C   0  0  0  0  0  0  0  0  0  0  0  0
   -4.5500   -4.0900    0.0000 C   0  0  0  0  0  0  0  0  0  0  0  0
   -4.1010   -5.5210    0.0000 C   0  0  0  0  0  0  0  0  0  0  0  0
   -2.6370   -5.8480    0.0000 C   0  0  0  0  0  0  0  0  0  0  0  0
   -2.1880   -7.2790    0.0000 F   0  0  0  0  0  0  0  0  0  0  0  0
    3.0140   -2.5820    0.0000 C   0  0  0  0  0  0  0  0  0  0  0  0
    2.2570   -1.2870    0.0000 C   0  0  0  0  0  0  0  0  0  0  0  0
  1  2  1  0  0  0  0
  2  3  1  0  0  0  0
  2 25  2  0  0  0  0
  3  4  2  0  0  0  0
  4  5  1  0  0  0  0
  4 16  1  0  0  0  0
  5  6  1  0  0  0  0
  5 24  2  0  0  0  0
  6  7  1  0  0  0  0
  6 11  1  0  0  0  0
  7  8  1  0  0  0  0
  8  9  1  0  0  0  0
  9 10  3  0  0  0  0
 11 12  2  0  0  0  0
 11 13  1  0  0  0  0
 13 14  1  0  0  0  0
 13 15  1  0  0  0  0
 15 16  2  0  0  0  0
 16 17  1  0  0  0  0
 17 18  1  0  0  0  0
 17 22  2  0  0  0  0
 18 19  2  0  0  0  0
 19 20  1  0  0  0  0
 20 21  2  0  0  0  0
 21 22  1  0  0  0  0
 22 23  1  0  0  0  0
 24 25  1  0  0  0  0
M  END
>  <Index>
233

>  <ID>
HT0494

>  <class>
0

>  <apol>
47.989307

>  <ast_fraglike>
0

>  <ast_fraglike_ext>
0

>  <ast_violation>
2

>  <ast_violation_ext>
3

>  <a_acc>
4

>  <a_acid>
0

>  <a_aro>
12

>  <a_base>
0

>  <a_count>
38

>  <a_don>
1

>  <a_donacc>
5

>  <a_heavy>
25

>  <a_hyd>
16

>  <a_IC>
69.501991

>  <a_ICM>
1.8289998

>  <a_nB>
0

>  <a_nBr>
0

>  <a_nC>
18

>  <a_nCl>
1

>  <a_nF>
1

>  <a_nH>
13

>  <a_nI>
0

>  <a_nN>
3

>  <a_nO>
2

>  <a_nP>
0

>  <a_nS>
0

>  <balabanJ>
1.8774751

>  <BCUT_PEOE_0>
-2.4775801

>  <BCUT_PEOE_1>
-0.62230867

>  <BCUT_PEOE_2>
0.64478511

>  <BCUT_PEOE_3>
2.514173

>  <BCUT_SLOGP_0>
-2.6056271

>  <BCUT_SLOGP_1>
-0.48275936

>  <BCUT_SLOGP_2>
0.74727726

>  <BCUT_SLOGP_3>
2.472919

>  <BCUT_SMR_0>
-2.2019441

>  <BCUT_SMR_1>
-0.43308443

>  <BCUT_SMR_2>
0.84299105

>  <BCUT_SMR_3>
2.7945907

>  <bpol>
20.752691

>  <b_1rotN>
3

>  <b_1rotR>
0.11111111

>  <b_ar>
12

>  <b_count>
40

>  <b_double>
2

>  <b_heavy>
27

>  <b_max1len>
3

>  <b_rotN>
4

>  <b_rotR>
0.14814815

>  <b_single>
25

>  <b_triple>
1

>  <chi0>
17.974327

>  <chi0v>
13.741977

>  <chi0v_C>
10.033015

>  <chi0_C>
11.68987

>  <chi1>
12.024076

>  <chi1v>
7.8947186

>  <chi1v_C>
5.2076125

>  <chi1_C>
7.1161566

>  <chiral>
1

>  <chiral_u>
1

>  <density>
0.82497197

>  <diameter>
11

>  <FCharge>
0

>  <GCUT_PEOE_0>
-0.81728613

>  <GCUT_PEOE_1>
-0.43215367

>  <GCUT_PEOE_2>
0.084664389

>  <GCUT_PEOE_3>
2.6127415

>  <GCUT_SLOGP_0>
-1.0013676

>  <GCUT_SLOGP_1>
-0.34480116

>  <GCUT_SLOGP_2>
0.17311431

>  <GCUT_SLOGP_3>
2.6671686

>  <GCUT_SMR_0>
-0.49872562

>  <GCUT_SMR_1>
-0.19787444

>  <GCUT_SMR_2>
0.26398814

>  <GCUT_SMR_3>
2.9103715

>  <Kier1>
19.753086

>  <Kier2>
8.792244

>  <Kier3>
4.2958579

>  <KierA1>
14.438401

>  <KierA2>
6.3359962

>  <KierA3>
3.0628467

>  <KierFlex>
3.659266

>  <lip_acc>
5

>  <lip_don>
1

>  <lip_druglike>
1

>  <lip_violation>
0

>  <logP(o/w)>
2.3399999

>  <logS>
-4.7641501

>  <mr>
9.3595457

>  <mutagenic>
0

>  <nmol>
1

>  <opr_brigid>
18

>  <opr_leadlike>
1

>  <opr_nring>
3

>  <opr_nrot>
4

>  <opr_violation>
0

>  <PC+>
0

>  <PC->
0

>  <PEOE_PC+>
1.9705557

>  <PEOE_PC->
-1.9705557

>  <PEOE_RPC+>
0.14167218

>  <PEOE_RPC->
0.18445353

>  <PEOE_VSA+0>
30.659922

>  <PEOE_VSA+1>
85.05378

>  <PEOE_VSA+2>
9.0208454

>  <PEOE_VSA+3>
0

>  <PEOE_VSA+4>
19.720114

>  <PEOE_VSA+5>
12.949531

>  <PEOE_VSA+6>
0

>  <PEOE_VSA-0>
61.274521

>  <PEOE_VSA-1>
54.091755

>  <PEOE_VSA-2>
0

>  <PEOE_VSA-3>
17.742489

>  <PEOE_VSA-4>
17.591211

>  <PEOE_VSA-5>
13.566921

>  <PEOE_VSA-6>
7.7675405

>  <PEOE_VSA_FHYD>
0.78267479

>  <PEOE_VSA_FNEG>
0.52220482

>  <PEOE_VSA_FPNEG>
0.11815759

>  <PEOE_VSA_FPOL>
0.2173252

>  <PEOE_VSA_FPOS>
0.47779518

>  <PEOE_VSA_FPPOS>
0.099167615

>  <PEOE_VSA_HYD>
257.84332

>  <PEOE_VSA_NEG>
172.03444

>  <PEOE_VSA_PNEG>
38.925674

>  <PEOE_VSA_POL>
71.595314

>  <PEOE_VSA_POS>
157.40419

>  <PEOE_VSA_PPOS>
32.669643

>  <petitjean>
0.45454547

>  <petitjeanSC>
0.83333331

>  <Q_PC+>
0

>  <Q_PC->
0

>  <Q_RPC+>
0

>  <Q_RPC->
0

>  <Q_VSA_FHYD>
1

>  <Q_VSA_FNEG>
0

>  <Q_VSA_FPNEG>
0

>  <Q_VSA_FPOL>
0

>  <Q_VSA_FPOS>
1

>  <Q_VSA_FPPOS>
0

>  <Q_VSA_HYD>
329.43863

>  <Q_VSA_NEG>
0

>  <Q_VSA_PNEG>
0

>  <Q_VSA_POL>
0

>  <Q_VSA_POS>
329.43863

>  <Q_VSA_PPOS>
0

>  <radius>
6

>  <reactive>
0

>  <rings>
3

>  <RPC+>
0

>  <RPC->
0

>  <rsynth>
1

>  <SlogP>
2.895184

>  <SlogP_VSA0>
28.509541

>  <SlogP_VSA1>
8.0155315

>  <SlogP_VSA2>
39.023056

>  <SlogP_VSA3>
66.100677

>  <SlogP_VSA4>
6.37115

>  <SlogP_VSA5>
16.78553

>  <SlogP_VSA6>
3.5006065

>  <SlogP_VSA7>
123.50229

>  <SlogP_VSA8>
18.868406

>  <SlogP_VSA9>
56.865505

>  <SMR>
9.2080803

>  <SMR_VSA0>
23.862217

>  <SMR_VSA1>
88.190224

>  <SMR_VSA2>
12.245332

>  <SMR_VSA3>
32.513325

>  <SMR_VSA4>
2.7567475

>  <SMR_VSA5>
142.3707

>  <SMR_VSA6>
26.455109

>  <SMR_VSA7>
39.148643

>  <TPSA>
76.690002

>  <VAdjEq>
0.42433795

>  <VAdjMa>
5.7548876

>  <VDistEq>
3.0890906

>  <VDistMa>
9.0463438

>  <vdw_area>
329.43863

>  <vdw_vol>
433.67773

>  <vsa_acc>
36.991985

>  <vsa_acid>
0

>  <vsa_base>
0

>  <vsa_don>
0

>  <vsa_hyd>
212.91527

>  <vsa_other>
52.898121

>  <vsa_pol>
50.558907

>  <Weight>
357.772

>  <weinerPath>
1331

>  <weinerPol>
46

>  <zagreb>
130

$$$$