O=C1CC[C@@]2([C@@H]3[C@H]([C@@H]4CC[C@](O)(C(=O)COC(=O)C)[C@]4(CC3=O)C)CCC2=C1)C
  MOE2013           2D

 29 32  0  0  1  0  0  0  0  0999 V2000
    0.0000    0.0000    0.0000 O   0  0  0  0  0  0  0  0  0  0  0  0
    1.5000    0.0110    0.0000 C   0  0  0  0  0  0  0  0  0  0  0  0
    2.2590   -1.2830    0.0000 C   0  0  0  0  0  0  0  0  0  0  0  0
    3.7590   -1.2720    0.0000 C   0  0  0  0  0  0  0  0  0  0  0  0
    4.5000    0.0320    0.0000 C   0  0  2  0  0  0  0  0  0  0  0  0
    6.0000    0.0430    0.0000 C   0  0  2  0  0  0  0  0  0  0  0  0
    6.7410    1.3470    0.0000 C   0  0  2  0  0  0  0  0  0  0  0  0
    8.2410    1.3580    0.0000 C   0  0  2  0  0  0  0  0  0  0  0  0
    9.2360    2.4800    0.0000 C   0  0  0  0  0  0  0  0  0  0  0  0
   10.6110    1.8790    0.0000 C   0  0  0  0  0  0  0  0  0  0  0  0
   10.4650    0.3860    0.0000 C   0  0  2  0  0  0  0  0  0  0  0  0
   10.8630   -1.0600    0.0000 O   0  0  0  0  0  0  0  0  0  0  0  0
   11.9290    0.0590    0.0000 C   0  0  0  0  0  0  0  0  0  0  0  0
   12.3770   -1.3720    0.0000 O   0  0  0  0  0  0  0  0  0  0  0  0
   12.9440    1.1640    0.0000 C   0  0  0  0  0  0  0  0  0  0  0  0
   14.4080    0.8370    0.0000 O   0  0  0  0  0  0  0  0  0  0  0  0
   15.4230    1.9410    0.0000 C   0  0  0  0  0  0  0  0  0  0  0  0
   16.8870    1.6140    0.0000 O   0  0  0  0  0  0  0  0  0  0  0  0
   14.9740    3.3720    0.0000 C   0  0  0  0  0  0  0  0  0  0  0  0
    9.0000    0.0640    0.0000 C   0  0  1  0  0  0  0  0  0  0  0  0
    8.2590   -1.2400    0.0000 C   0  0  0  0  0  0  0  0  0  0  0  0
    6.7590   -1.2510    0.0000 C   0  0  0  0  0  0  0  0  0  0  0  0
    6.0180   -2.5550    0.0000 O   0  0  0  0  0  0  0  0  0  0  0  0
    9.8900   -1.1430    0.0000 C   0  0  0  0  0  0  0  0  0  0  0  0
    5.9810    2.6410    0.0000 C   0  0  0  0  0  0  0  0  0  0  0  0
    4.4810    2.6300    0.0000 C   0  0  0  0  0  0  0  0  0  0  0  0
    3.7410    1.3260    0.0000 C   0  0  0  0  0  0  0  0  0  0  0  0
    2.2410    1.3150    0.0000 C   0  0  0  0  0  0  0  0  0  0  0  0
    5.2820   -1.2480    0.0000 C   0  0  0  0  0  0  0  0  0  0  0  0
  1  2  2  0  0  0  0
  2  3  1  0  0  0  0
  2 28  1  0  0  0  0
  3  4  1  0  0  0  0
  4  5  1  0  0  0  0
  5  6  1  0  0  0  0
  5 27  1  0  0  0  0
  5 29  1  6  0  0  0
  6  7  1  0  0  0  0
  6 22  1  6  0  0  0
  7  8  1  0  0  0  0
  7 25  1  1  0  0  0
  8  9  1  6  0  0  0
  8 20  1  0  0  0  0
  9 10  1  0  0  0  0
 10 11  1  0  0  0  0
 11 12  1  1  0  0  0
 11 13  1  6  0  0  0
 11 20  1  0  0  0  0
 13 14  2  0  0  0  0
 13 15  1  0  0  0  0
 15 16  1  0  0  0  0
 16 17  1  0  0  0  0
 17 18  2  0  0  0  0
 17 19  1  0  0  0  0
 20 21  1  0  0  0  0
 20 24  1  6  0  0  0
 21 22  1  0  0  0  0
 22 23  2  0  0  0  0
 25 26  1  0  0  0  0
 26 27  1  0  0  0  0
 27 28  2  0  0  0  0
M  END
>  <Index>
260

>  <ID>
HT0550

>  <class>
0

>  <apol>
65.295792

>  <ast_fraglike>
0

>  <ast_fraglike_ext>
0

>  <ast_violation>
2

>  <ast_violation_ext>
3

>  <a_acc>
5

>  <a_acid>
0

>  <a_aro>
0

>  <a_base>
0

>  <a_count>
59

>  <a_don>
1

>  <a_donacc>
6

>  <a_heavy>
29

>  <a_hyd>
19

>  <a_IC>
80.31752

>  <a_ICM>
1.3613139

>  <a_nB>
0

>  <a_nBr>
0

>  <a_nC>
23

>  <a_nCl>
0

>  <a_nF>
0

>  <a_nH>
30

>  <a_nI>
0

>  <a_nN>
0

>  <a_nO>
6

>  <a_nP>
0

>  <a_nS>
0

>  <balabanJ>
1.603547

>  <BCUT_PEOE_0>
-2.8980968

>  <BCUT_PEOE_1>
-0.47368553

>  <BCUT_PEOE_2>
0.35971513

>  <BCUT_PEOE_3>
2.9669106

>  <BCUT_SLOGP_0>
-2.8691051

>  <BCUT_SLOGP_1>
-0.41365185

>  <BCUT_SLOGP_2>
0.35150608

>  <BCUT_SLOGP_3>
2.997309

>  <BCUT_SMR_0>
-2.6505768

>  <BCUT_SMR_1>
-0.27346021

>  <BCUT_SMR_2>
0.55919302

>  <BCUT_SMR_3>
3.2083304

>  <bpol>
38.544209

>  <b_1rotN>
3

>  <b_1rotR>
0.09375

>  <b_ar>
0

>  <b_count>
62

>  <b_double>
5

>  <b_heavy>
32

>  <b_max1len>
5

>  <b_rotN>
4

>  <b_rotR>
0.125

>  <b_single>
57

>  <b_triple>
0

>  <chi0>
21.189871

>  <chi0v>
17.45471

>  <chi0v_C>
14.966255

>  <chi0_C>
15.482763

>  <chi1>
13.526346

>  <chi1v>
10.684316

>  <chi1v_C>
9.151413

>  <chi1_C>
9.8086977

>  <chiral>
6

>  <chiral_u>
0

>  <density>
0.74786681

>  <diameter>
14

>  <FCharge>
0

>  <GCUT_PEOE_0>
-0.79213697

>  <GCUT_PEOE_1>
-0.39345172

>  <GCUT_PEOE_2>
-0.031714328

>  <GCUT_PEOE_3>
3.3209007

>  <GCUT_SLOGP_0>
-0.94030488

>  <GCUT_SLOGP_1>
-0.32910851

>  <GCUT_SLOGP_2>
-0.010322613

>  <GCUT_SLOGP_3>
3.3581817

>  <GCUT_SMR_0>
-0.53898388

>  <GCUT_SMR_1>
-0.2138962

>  <GCUT_SMR_2>
0.11462748

>  <GCUT_SMR_3>
3.5449796

>  <Kier1>
22.203125

>  <Kier2>
7.5488167

>  <Kier3>
3.2770083

>  <KierA1>
18.943745

>  <KierA2>
6.4022999

>  <KierA3>
2.7670872

>  <KierFlex>
4.1821909

>  <lip_acc>
6

>  <lip_don>
1

>  <lip_druglike>
1

>  <lip_violation>
0

>  <logP(o/w)>
1.035

>  <logS>
-3.4470301

>  <mr>
10.611212

>  <mutagenic>
0

>  <nmol>
1

>  <opr_brigid>
20

>  <opr_leadlike>
1

>  <opr_nring>
4

>  <opr_nrot>
3

>  <opr_violation>
0

>  <PC+>
0

>  <PC->
0

>  <PEOE_PC+>
2.2560055

>  <PEOE_PC->
-2.2560055

>  <PEOE_RPC+>
0.11499548

>  <PEOE_RPC->
0.16862181

>  <PEOE_VSA+0>
147.05034

>  <PEOE_VSA+1>
12.796158

>  <PEOE_VSA+2>
23.409813

>  <PEOE_VSA+3>
16.917038

>  <PEOE_VSA+4>
10.324173

>  <PEOE_VSA+5>
14.708499

>  <PEOE_VSA+6>
0

>  <PEOE_VSA-0>
55.761471

>  <PEOE_VSA-1>
39.703896

>  <PEOE_VSA-2>
0

>  <PEOE_VSA-3>
0

>  <PEOE_VSA-4>
0

>  <PEOE_VSA-5>
54.267685

>  <PEOE_VSA-6>
10.271297

>  <PEOE_VSA_FHYD>
0.7674734

>  <PEOE_VSA_FNEG>
0.41536874

>  <PEOE_VSA_FPNEG>
0.16754217

>  <PEOE_VSA_FPOL>
0.23252659

>  <PEOE_VSA_FPOS>
0.58463126

>  <PEOE_VSA_FPPOS>
0.064984418

>  <PEOE_VSA_HYD>
295.6387

>  <PEOE_VSA_NEG>
160.00435

>  <PEOE_VSA_PNEG>
64.538979

>  <PEOE_VSA_POL>
89.571655

>  <PEOE_VSA_POS>
225.20602

>  <PEOE_VSA_PPOS>
25.032671

>  <petitjean>
0.5

>  <petitjeanSC>
1

>  <Q_PC+>
0

>  <Q_PC->
0

>  <Q_RPC+>
0

>  <Q_RPC->
0

>  <Q_VSA_FHYD>
1

>  <Q_VSA_FNEG>
0

>  <Q_VSA_FPNEG>
0

>  <Q_VSA_FPOL>
0

>  <Q_VSA_FPOS>
1

>  <Q_VSA_FPPOS>
0

>  <Q_VSA_HYD>
385.21036

>  <Q_VSA_NEG>
0

>  <Q_VSA_PNEG>
0

>  <Q_VSA_POL>
0

>  <Q_VSA_POS>
385.21036

>  <Q_VSA_PPOS>
0

>  <radius>
7

>  <reactive>
1

>  <rings>
4

>  <RPC+>
0

>  <RPC->
0

>  <rsynth>
1

>  <SlogP>
2.5606

>  <SlogP_VSA0>
25.385227

>  <SlogP_VSA1>
24.808296

>  <SlogP_VSA2>
106.44875

>  <SlogP_VSA3>
20.926258

>  <SlogP_VSA4>
13.232388

>  <SlogP_VSA5>
3.185575

>  <SlogP_VSA6>
0

>  <SlogP_VSA7>
17.643185

>  <SlogP_VSA8>
132.07884

>  <SlogP_VSA9>
99.978043

>  <SMR>
10.36898

>  <SMR_VSA0>
106.44875

>  <SMR_VSA1>
25.385227

>  <SMR_VSA2>
13.232388

>  <SMR_VSA3>
3.185575

>  <SMR_VSA4>
0

>  <SMR_VSA5>
149.72202

>  <SMR_VSA6>
45.734554

>  <SMR_VSA7>
99.978043

>  <TPSA>
97.739998

>  <VAdjEq>
0.38828552

>  <VAdjMa>
6

>  <VDistEq>
3.4160271

>  <VDistMa>
9.4304848

>  <vdw_area>
385.21036

>  <vdw_vol>
538.18005

>  <vsa_acc>
54.267685

>  <vsa_acid>
0

>  <vsa_base>
0

>  <vsa_don>
0

>  <vsa_hyd>
245.58594

>  <vsa_other>
42.587814

>  <vsa_pol>
67.834602

>  <Weight>
402.487

>  <weinerPath>
2039

>  <weinerPol>
62

>  <zagreb>
168

$$$$