O1C(C(=O)CCC=CCC=CC)C1C(=O)N
  MOE2013           2D

 16 16  0  0  1  0  0  0  0  0999 V2000
    0.0000    0.0000    0.0000 O   0  0  0  0  0  0  0  0  0  0  0  0
    0.7390    1.3050    0.0000 C   0  0  3  0  0  0  0  0  0  0  0  0
    2.0310    2.0670    0.0000 C   0  0  0  0  0  0  0  0  0  0  0  0
    2.0180    3.5670    0.0000 O   0  0  0  0  0  0  0  0  0  0  0  0
    3.3370    1.3280    0.0000 C   0  0  0  0  0  0  0  0  0  0  0  0
    4.6290    2.0890    0.0000 C   0  0  0  0  0  0  0  0  0  0  0  0
    5.9350    1.3510    0.0000 C   0  0  0  0  0  0  0  0  0  0  0  0
    7.2270    2.1120    0.0000 C   0  0  0  0  0  0  0  0  0  0  0  0
    8.5330    1.3730    0.0000 C   0  0  0  0  0  0  0  0  0  0  0  0
    9.8250    2.1340    0.0000 C   0  0  0  0  0  0  0  0  0  0  0  0
   11.1310    1.3960    0.0000 C   0  0  0  0  0  0  0  0  0  0  0  0
   12.4230    2.1570    0.0000 C   0  0  0  0  0  0  0  0  0  0  0  0
   -0.7610    1.2920    0.0000 C   0  0  3  0  0  0  0  0  0  0  0  0
   -2.0670    2.0310    0.0000 C   0  0  0  0  0  0  0  0  0  0  0  0
   -2.0800    3.5310    0.0000 O   0  0  0  0  0  0  0  0  0  0  0  0
   -3.3590    1.2700    0.0000 N   0  0  0  0  0  0  0  0  0  0  0  0
  1  2  1  0  0  0  0
  1 13  1  0  0  0  0
  2  3  1  0  0  0  0
  2 13  1  0  0  0  0
  3  4  2  0  0  0  0
  3  5  1  0  0  0  0
  5  6  1  0  0  0  0
  6  7  1  0  0  0  0
  7  8  2  3  0  0  0
  8  9  1  0  0  0  0
  9 10  1  0  0  0  0
 10 11  2  3  0  0  0
 11 12  1  0  0  0  0
 13 14  1  0  0  0  0
 14 15  2  0  0  0  0
 14 16  1  0  0  0  0
M  END
>  <Index>
211

>  <ID>
HT0437

>  <class>
0

>  <apol>
35.961479

>  <ast_fraglike>
1

>  <ast_fraglike_ext>
0

>  <ast_violation>
0

>  <ast_violation_ext>
1

>  <a_acc>
3

>  <a_acid>
0

>  <a_aro>
0

>  <a_base>
0

>  <a_count>
33

>  <a_don>
1

>  <a_donacc>
4

>  <a_heavy>
16

>  <a_hyd>
10

>  <a_IC>
49.203701

>  <a_ICM>
1.4910213

>  <a_nB>
0

>  <a_nBr>
0

>  <a_nC>
12

>  <a_nCl>
0

>  <a_nF>
0

>  <a_nH>
17

>  <a_nI>
0

>  <a_nN>
1

>  <a_nO>
3

>  <a_nP>
0

>  <a_nS>
0

>  <balabanJ>
1.941793

>  <BCUT_PEOE_0>
-2.4532878

>  <BCUT_PEOE_1>
-0.58391172

>  <BCUT_PEOE_2>
0.51352137

>  <BCUT_PEOE_3>
2.7433801

>  <BCUT_SLOGP_0>
-2.5651999

>  <BCUT_SLOGP_1>
-0.52618557

>  <BCUT_SLOGP_2>
0.4936499

>  <BCUT_SLOGP_3>
2.5997329

>  <BCUT_SMR_0>
-2.2043984

>  <BCUT_SMR_1>
-0.38106391

>  <BCUT_SMR_2>
0.69823241

>  <BCUT_SMR_3>
2.9441819

>  <bpol>
21.756519

>  <b_1rotN>
7

>  <b_1rotR>
0.4375

>  <b_ar>
0

>  <b_count>
33

>  <b_double>
4

>  <b_heavy>
16

>  <b_max1len>
6

>  <b_rotN>
7

>  <b_rotR>
0.4375

>  <b_single>
29

>  <b_triple>
0

>  <chi0>
11.966255

>  <chi0v>
9.387517

>  <chi0v_C>
7.585422

>  <chi0_C>
8.2591486

>  <chi1>
7.6639023

>  <chi1v>
5.4013267

>  <chi1v_C>
4.2329988

>  <chi1_C>
5.115355

>  <chiral>
2

>  <chiral_u>
2

>  <density>
0.72247636

>  <diameter>
12

>  <FCharge>
0

>  <GCUT_PEOE_0>
-0.81770533

>  <GCUT_PEOE_1>
-0.41325364

>  <GCUT_PEOE_2>
0.062074319

>  <GCUT_PEOE_3>
2.3353021

>  <GCUT_SLOGP_0>
-1.3704668

>  <GCUT_SLOGP_1>
-0.28226092

>  <GCUT_SLOGP_2>
0.085463002

>  <GCUT_SLOGP_3>
2.3714359

>  <GCUT_SMR_0>
-0.50221974

>  <GCUT_SMR_1>
-0.21574782

>  <GCUT_SMR_2>
0.17580879

>  <GCUT_SMR_3>
2.5695353

>  <Kier1>
14.0625

>  <Kier2>
7.3499999

>  <Kier3>
4.4236112

>  <KierA1>
10.800593

>  <KierA2>
5.5369239

>  <KierA3>
3.2841692

>  <KierFlex>
3.7376292

>  <lip_acc>
4

>  <lip_don>
2

>  <lip_druglike>
1

>  <lip_violation>
0

>  <logP(o/w)>
0.102

>  <logS>
-3.03739

>  <mr>
6.213212

>  <mutagenic>
1

>  <nmol>
1

>  <opr_brigid>
5

>  <opr_leadlike>
1

>  <opr_nring>
1

>  <opr_nrot>
7

>  <opr_violation>
0

>  <PC+>
0

>  <PC->
0

>  <PEOE_PC+>
1.7209352

>  <PEOE_PC->
-1.7209352

>  <PEOE_RPC+>
0.14548555

>  <PEOE_RPC->
0.21361403

>  <PEOE_VSA+0>
47.089787

>  <PEOE_VSA+1>
25.592316

>  <PEOE_VSA+2>
0

>  <PEOE_VSA+3>
35.506401

>  <PEOE_VSA+4>
0

>  <PEOE_VSA+5>
12.949531

>  <PEOE_VSA+6>
0

>  <PEOE_VSA-0>
36.150303

>  <PEOE_VSA-1>
49.019615

>  <PEOE_VSA-2>
0

>  <PEOE_VSA-3>
0

>  <PEOE_VSA-4>
0

>  <PEOE_VSA-5>
27.133842

>  <PEOE_VSA-6>
9.1548758

>  <PEOE_VSA_FHYD>
0.79703659

>  <PEOE_VSA_FNEG>
0.50066078

>  <PEOE_VSA_FPNEG>
0.14958456

>  <PEOE_VSA_FPOL>
0.20296341

>  <PEOE_VSA_FPOS>
0.49933922

>  <PEOE_VSA_FPPOS>
0.053378846

>  <PEOE_VSA_HYD>
193.35843

>  <PEOE_VSA_NEG>
121.45863

>  <PEOE_VSA_PNEG>
36.288715

>  <PEOE_VSA_POL>
49.238247

>  <PEOE_VSA_POS>
121.13804

>  <PEOE_VSA_PPOS>
12.949531

>  <petitjean>
0.5

>  <petitjeanSC>
1

>  <Q_PC+>
0

>  <Q_PC->
0

>  <Q_RPC+>
0

>  <Q_RPC->
0

>  <Q_VSA_FHYD>
1

>  <Q_VSA_FNEG>
0

>  <Q_VSA_FPNEG>
0

>  <Q_VSA_FPOL>
0

>  <Q_VSA_FPOS>
1

>  <Q_VSA_FPPOS>
0

>  <Q_VSA_HYD>
242.59668

>  <Q_VSA_NEG>
0

>  <Q_VSA_PNEG>
0

>  <Q_VSA_POL>
0

>  <Q_VSA_POS>
242.59668

>  <Q_VSA_PPOS>
0

>  <radius>
6

>  <reactive>
1

>  <rings>
1

>  <RPC+>
0

>  <RPC->
0

>  <rsynth>
0.0625

>  <SlogP>
1.1108

>  <SlogP_VSA0>
32.897186

>  <SlogP_VSA1>
10.946395

>  <SlogP_VSA2>
71.661621

>  <SlogP_VSA3>
0

>  <SlogP_VSA4>
0

>  <SlogP_VSA5>
0

>  <SlogP_VSA6>
0

>  <SlogP_VSA7>
70.572739

>  <SlogP_VSA8>
56.605217

>  <SlogP_VSA9>
33.326015

>  <SMR>
6.06674

>  <SMR_VSA0>
58.724319

>  <SMR_VSA1>
0

>  <SMR_VSA2>
0

>  <SMR_VSA3>
12.937299

>  <SMR_VSA4>
32.897186

>  <SMR_VSA5>
127.17796

>  <SMR_VSA6>
10.946395

>  <SMR_VSA7>
33.326015

>  <TPSA>
72.690002

>  <VAdjEq>
0.54356444

>  <VAdjMa>
5

>  <VDistEq>
3.382309

>  <VDistMa>
7.6287718

>  <vdw_area>
242.59668

>  <vdw_vol>
309.03711

>  <vsa_acc>
29.637598

>  <vsa_acid>
0

>  <vsa_base>
0

>  <vsa_don>
17.742489

>  <vsa_hyd>
156.98495

>  <vsa_other>
21.408051

>  <vsa_pol>
47.380089

>  <Weight>
223.27199

>  <weinerPath>
575

>  <weinerPol>
17

>  <zagreb>
72

$$$$