Clc1ccccc1C1=NCC(=O)N(c2sc(cc12)CC)C
  MOE2013           2D

 21 23  0  0  0  0  0  0  0  0999 V2000
    0.0000    0.0000    0.0000 Cl  0  0  0  0  0  0  0  0  0  0  0  0
   -0.0050    1.5000    0.0000 C   0  0  0  0  0  0  0  0  0  0  0  0
    1.2920    2.2540    0.0000 C   0  0  0  0  0  0  0  0  0  0  0  0
    1.2880    3.7540    0.0000 C   0  0  0  0  0  0  0  0  0  0  0  0
   -0.0140    4.5000    0.0000 C   0  0  0  0  0  0  0  0  0  0  0  0
   -1.3100    3.7460    0.0000 C   0  0  0  0  0  0  0  0  0  0  0  0
   -1.3060    2.2460    0.0000 C   0  0  0  0  0  0  0  0  0  0  0  0
   -2.6030    1.4920    0.0000 C   0  0  0  0  0  0  0  0  0  0  0  0
   -2.4870   -0.0030    0.0000 N   0  0  0  0  0  0  0  0  0  0  0  0
   -3.5840   -1.0270    0.0000 C   0  0  0  0  0  0  0  0  0  0  0  0
   -5.0680   -0.8080    0.0000 C   0  0  0  0  0  0  0  0  0  0  0  0
   -5.9080   -2.0510    0.0000 O   0  0  0  0  0  0  0  0  0  0  0  0
   -5.8230    0.4880    0.0000 N   0  0  0  0  0  0  0  0  0  0  0  0
   -5.2770    1.8860    0.0000 C   0  0  0  0  0  0  0  0  0  0  0  0
   -6.1440    3.1100    0.0000 S   0  0  0  0  0  0  0  0  0  0  0  0
   -5.2480    4.3130    0.0000 C   0  0  0  0  0  0  0  0  0  0  0  0
   -3.8270    3.8320    0.0000 C   0  0  0  0  0  0  0  0  0  0  0  0
   -3.8450    2.3330    0.0000 C   0  0  0  0  0  0  0  0  0  0  0  0
   -5.6950    5.7450    0.0000 C   0  0  0  0  0  0  0  0  0  0  0  0
   -7.1580    6.0740    0.0000 C   0  0  0  0  0  0  0  0  0  0  0  0
   -7.3180    0.3710    0.0000 C   0  0  0  0  0  0  0  0  0  0  0  0
  1  2  1  0  0  0  0
  2  3  1  0  0  0  0
  2  7  2  0  0  0  0
  3  4  2  0  0  0  0
  4  5  1  0  0  0  0
  5  6  2  0  0  0  0
  6  7  1  0  0  0  0
  7  8  1  0  0  0  0
  8  9  2  0  0  0  0
  8 18  1  0  0  0  0
  9 10  1  0  0  0  0
 10 11  1  0  0  0  0
 11 12  2  0  0  0  0
 11 13  1  0  0  0  0
 13 14  1  0  0  0  0
 13 21  1  0  0  0  0
 14 15  1  0  0  0  0
 14 18  2  0  0  0  0
 15 16  1  0  0  0  0
 16 17  2  0  0  0  0
 16 19  1  0  0  0  0
 17 18  1  0  0  0  0
 19 20  1  0  0  0  0
M  END
>  <Index>
255

>  <ID>
HT0535

>  <class>
0

>  <apol>
46.243896

>  <ast_fraglike>
0

>  <ast_fraglike_ext>
0

>  <ast_violation>
2

>  <ast_violation_ext>
2

>  <a_acc>
2

>  <a_acid>
0

>  <a_aro>
11

>  <a_base>
0

>  <a_count>
36

>  <a_don>
0

>  <a_donacc>
2

>  <a_heavy>
21

>  <a_hyd>
16

>  <a_IC>
61.513943

>  <a_ICM>
1.7087206

>  <a_nB>
0

>  <a_nBr>
0

>  <a_nC>
16

>  <a_nCl>
1

>  <a_nF>
0

>  <a_nH>
15

>  <a_nI>
0

>  <a_nN>
2

>  <a_nO>
1

>  <a_nP>
0

>  <a_nS>
1

>  <balabanJ>
1.8223776

>  <BCUT_PEOE_0>
-2.4036994

>  <BCUT_PEOE_1>
-0.56027782

>  <BCUT_PEOE_2>
0.61506349

>  <BCUT_PEOE_3>
2.4367607

>  <BCUT_SLOGP_0>
-2.5250206

>  <BCUT_SLOGP_1>
-0.40427619

>  <BCUT_SLOGP_2>
0.73113221

>  <BCUT_SLOGP_3>
2.524605

>  <BCUT_SMR_0>
-2.1376436

>  <BCUT_SMR_1>
-0.36165431

>  <BCUT_SMR_2>
0.80545968

>  <BCUT_SMR_3>
2.7702017

>  <bpol>
23.356106

>  <b_1rotN>
2

>  <b_1rotR>
0.086956523

>  <b_ar>
11

>  <b_count>
38

>  <b_double>
2

>  <b_heavy>
23

>  <b_max1len>
3

>  <b_rotN>
2

>  <b_rotR>
0.086956523

>  <b_single>
25

>  <b_triple>
0

>  <chi0>
14.982763

>  <chi0v>
13.462278

>  <chi0v_C>
9.8009653

>  <chi0_C>
10.991199

>  <chi1>
10.113392

>  <chi1v>
7.9989915

>  <chi1v_C>
4.5689139

>  <chi1_C>
5.9899297

>  <chiral>
0

>  <chiral_u>
0

>  <density>
0.79619694

>  <diameter>
9

>  <FCharge>
0

>  <GCUT_PEOE_0>
-0.83770335

>  <GCUT_PEOE_1>
-0.41019097

>  <GCUT_PEOE_2>
0.055167265

>  <GCUT_PEOE_3>
2.5398958

>  <GCUT_SLOGP_0>
-1.0000778

>  <GCUT_SLOGP_1>
-0.23094739

>  <GCUT_SLOGP_2>
0.1605618

>  <GCUT_SLOGP_3>
2.6497552

>  <GCUT_SMR_0>
-0.5125376

>  <GCUT_SMR_1>
-0.15350004

>  <GCUT_SMR_2>
0.24734931

>  <GCUT_SMR_3>
2.8712587

>  <Kier1>
15.879017

>  <Kier2>
6.6299357

>  <Kier3>
3.0623817

>  <KierA1>
13.407992

>  <KierA2>
5.5479193

>  <KierA3>
2.5448906

>  <KierFlex>
3.5422122

>  <lip_acc>
3

>  <lip_don>
0

>  <lip_druglike>
1

>  <lip_violation>
0

>  <logP(o/w)>
3.622

>  <logS>
-5.0118599

>  <mr>
8.8573895

>  <mutagenic>
0

>  <nmol>
1

>  <opr_brigid>
17

>  <opr_leadlike>
1

>  <opr_nring>
3

>  <opr_nrot>
2

>  <opr_violation>
0

>  <PC+>
0

>  <PC->
0

>  <PEOE_PC+>
1.4222633

>  <PEOE_PC->
-1.4222633

>  <PEOE_RPC+>
0.17458889

>  <PEOE_RPC->
0.22692601

>  <PEOE_VSA+0>
70.454468

>  <PEOE_VSA+1>
41.077

>  <PEOE_VSA+2>
13.192325

>  <PEOE_VSA+3>
19.760618

>  <PEOE_VSA+4>
12.949531

>  <PEOE_VSA+5>
0

>  <PEOE_VSA+6>
0

>  <PEOE_VSA-0>
20.956217

>  <PEOE_VSA-1>
101.53384

>  <PEOE_VSA-2>
0

>  <PEOE_VSA-3>
0

>  <PEOE_VSA-4>
0

>  <PEOE_VSA-5>
19.249496

>  <PEOE_VSA-6>
0

>  <PEOE_VSA_FHYD>
0.89237338

>  <PEOE_VSA_FNEG>
0.47377044

>  <PEOE_VSA_FPNEG>
0.064342253

>  <PEOE_VSA_FPOL>
0.1076266

>  <PEOE_VSA_FPOS>
0.52622956

>  <PEOE_VSA_FPPOS>
0.043284353

>  <PEOE_VSA_HYD>
266.97446

>  <PEOE_VSA_NEG>
141.73956

>  <PEOE_VSA_PNEG>
19.249496

>  <PEOE_VSA_POL>
32.199028

>  <PEOE_VSA_POS>
157.43394

>  <PEOE_VSA_PPOS>
12.949531

>  <petitjean>
0.44444445

>  <petitjeanSC>
0.80000001

>  <Q_PC+>
0

>  <Q_PC->
0

>  <Q_RPC+>
0

>  <Q_RPC->
0

>  <Q_VSA_FHYD>
1

>  <Q_VSA_FNEG>
0

>  <Q_VSA_FPNEG>
0

>  <Q_VSA_FPOL>
0

>  <Q_VSA_FPOS>
1

>  <Q_VSA_FPPOS>
0

>  <Q_VSA_HYD>
299.17349

>  <Q_VSA_NEG>
0

>  <Q_VSA_PNEG>
0

>  <Q_VSA_POL>
0

>  <Q_VSA_POS>
299.17349

>  <Q_VSA_PPOS>
0

>  <radius>
5

>  <reactive>
0

>  <rings>
3

>  <RPC+>
0

>  <RPC->
0

>  <rsynth>
1

>  <SlogP>
3.7776699

>  <SlogP_VSA0>
3.1243138

>  <SlogP_VSA1>
8.0155315

>  <SlogP_VSA2>
23.862217

>  <SlogP_VSA3>
18.439579

>  <SlogP_VSA4>
7.7295513

>  <SlogP_VSA5>
68.551125

>  <SlogP_VSA6>
3.5006065

>  <SlogP_VSA7>
88.215919

>  <SlogP_VSA8>
0

>  <SlogP_VSA9>
104.68192

>  <SMR>
8.9064999

>  <SMR_VSA0>
23.862217

>  <SMR_VSA1>
16.78553

>  <SMR_VSA2>
3.1243138

>  <SMR_VSA3>
11.230158

>  <SMR_VSA4>
0.92957383

>  <SMR_VSA5>
107.08433

>  <SMR_VSA6>
26.455109

>  <SMR_VSA7>
136.64954

>  <TPSA>
32.669998

>  <VAdjEq>
0.48250595

>  <VAdjMa>
5.523562

>  <VDistEq>
2.9045389

>  <VDistMa>
8.5322266

>  <vdw_area>
299.17349

>  <vdw_vol>
400.4386

>  <vsa_acc>
19.249496

>  <vsa_acid>
0

>  <vsa_base>
0

>  <vsa_don>
0

>  <vsa_hyd>
249.59799

>  <vsa_other>
19.649082

>  <vsa_pol>
19.249496

>  <Weight>
318.828

>  <weinerPath>
831

>  <weinerPol>
38

>  <zagreb>
112

$$$$