Clc1cccc(Cl)c1NC=1NCCN=1
  MOE2013           2D

 14 15  0  0  0  0  0  0  0  0999 V2000
    0.0000    0.0000    0.0000 Cl  0  0  0  0  0  0  0  0  0  0  0  0
    0.7400    1.3050    0.0000 C   0  0  0  0  0  0  0  0  0  0  0  0
   -0.0200    2.5980    0.0000 C   0  0  0  0  0  0  0  0  0  0  0  0
    0.7200    3.9030    0.0000 C   0  0  0  0  0  0  0  0  0  0  0  0
    2.2200    3.9140    0.0000 C   0  0  0  0  0  0  0  0  0  0  0  0
    2.9800    2.6210    0.0000 C   0  0  0  0  0  0  0  0  0  0  0  0
    4.4800    2.6320    0.0000 Cl  0  0  0  0  0  0  0  0  0  0  0  0
    2.2400    1.3160    0.0000 C   0  0  0  0  0  0  0  0  0  0  0  0
    3.0000    0.0230    0.0000 N   0  0  0  0  0  0  0  0  0  0  0  0
    4.5000    0.0340    0.0000 C   0  0  0  0  0  0  0  0  0  0  0  0
    5.3720    1.2550    0.0000 N   0  0  0  0  0  0  0  0  0  0  0  0
    6.8020    0.8020    0.0000 C   0  0  0  0  0  0  0  0  0  0  0  0
    6.8140   -0.6980    0.0000 C   0  0  0  0  0  0  0  0  0  0  0  0
    5.3910   -1.1720    0.0000 N   0  0  0  0  0  0  0  0  0  0  0  0
  1  2  1  0  0  0  0
  2  3  1  0  0  0  0
  2  8  2  0  0  0  0
  3  4  2  0  0  0  0
  4  5  1  0  0  0  0
  5  6  2  0  0  0  0
  6  7  1  0  0  0  0
  6  8  1  0  0  0  0
  8  9  1  0  0  0  0
  9 10  1  0  0  0  0
 10 11  1  0  0  0  0
 10 14  2  0  0  0  0
 11 12  1  0  0  0  0
 12 13  1  0  0  0  0
 13 14  1  0  0  0  0
M  END
>  <Index>
254

>  <ID>
HT0531

>  <class>
0

>  <apol>
29.501137

>  <ast_fraglike>
1

>  <ast_fraglike_ext>
1

>  <ast_violation>
0

>  <ast_violation_ext>
0

>  <a_acc>
1

>  <a_acid>
0

>  <a_aro>
6

>  <a_base>
0

>  <a_count>
23

>  <a_don>
2

>  <a_donacc>
3

>  <a_heavy>
14

>  <a_hyd>
10

>  <a_IC>
40.228386

>  <a_ICM>
1.7490603

>  <a_nB>
0

>  <a_nBr>
0

>  <a_nC>
9

>  <a_nCl>
2

>  <a_nF>
0

>  <a_nH>
9

>  <a_nI>
0

>  <a_nN>
3

>  <a_nO>
0

>  <a_nP>
0

>  <a_nS>
0

>  <balabanJ>
1.8792391

>  <BCUT_PEOE_0>
-2.3930893

>  <BCUT_PEOE_1>
-0.62323129

>  <BCUT_PEOE_2>
0.64228678

>  <BCUT_PEOE_3>
2.4762459

>  <BCUT_SLOGP_0>
-2.6163881

>  <BCUT_SLOGP_1>
-0.37689766

>  <BCUT_SLOGP_2>
0.83564115

>  <BCUT_SLOGP_3>
2.4114327

>  <BCUT_SMR_0>
-2.1276436

>  <BCUT_SMR_1>
-0.35529184

>  <BCUT_SMR_2>
0.92445034

>  <BCUT_SMR_3>
2.766037

>  <bpol>
13.318863

>  <b_1rotN>
1

>  <b_1rotR>
0.06666667

>  <b_ar>
6

>  <b_count>
24

>  <b_double>
1

>  <b_heavy>
15

>  <b_max1len>
2

>  <b_rotN>
2

>  <b_rotR>
0.13333334

>  <b_single>
17

>  <b_triple>
0

>  <chi0>
9.9662552

>  <chi0v>
8.8612652

>  <chi0v_C>
5.1462646

>  <chi0_C>
5.8449349

>  <chi1>
6.7708569

>  <chi1v>
5.0212984

>  <chi1v_C>
2.2440169

>  <chi1_C>
2.9831634

>  <chiral>
0

>  <chiral_u>
0

>  <density>
0.87756866

>  <diameter>
7

>  <FCharge>
0

>  <GCUT_PEOE_0>
-0.8447997

>  <GCUT_PEOE_1>
-0.40777075

>  <GCUT_PEOE_2>
0.051593505

>  <GCUT_PEOE_3>
2.2026877

>  <GCUT_SLOGP_0>
-1.1701022

>  <GCUT_SLOGP_1>
-0.27423629

>  <GCUT_SLOGP_2>
0.28612873

>  <GCUT_SLOGP_3>
2.3100684

>  <GCUT_SMR_0>
-0.50483406

>  <GCUT_SMR_1>
-0.1579069

>  <GCUT_SMR_2>
0.34520322

>  <GCUT_SMR_3>
2.5232832

>  <Kier1>
10.515555

>  <Kier2>
4.6799998

>  <Kier3>
2.5344

>  <KierA1>
9.3569393

>  <KierA2>
4.1241765

>  <KierA3>
2.2168789

>  <KierFlex>
2.7564051

>  <lip_acc>
3

>  <lip_don>
2

>  <lip_druglike>
1

>  <lip_violation>
0

>  <logP(o/w)>
2.467

>  <logS>
-3.1403799

>  <mr>
5.7343659

>  <mutagenic>
0

>  <nmol>
1

>  <opr_brigid>
11

>  <opr_leadlike>
1

>  <opr_nring>
2

>  <opr_nrot>
2

>  <opr_violation>
0

>  <PC+>
0

>  <PC->
0

>  <PEOE_PC+>
1.2323928

>  <PEOE_PC->
-1.2323928

>  <PEOE_RPC+>
0.16041608

>  <PEOE_RPC->
0.28729001

>  <PEOE_VSA+0>
13.192325

>  <PEOE_VSA+1>
58.78907

>  <PEOE_VSA+2>
0

>  <PEOE_VSA+3>
32.919601

>  <PEOE_VSA+4>
0

>  <PEOE_VSA+5>
0

>  <PEOE_VSA+6>
0

>  <PEOE_VSA-0>
24.509808

>  <PEOE_VSA-1>
71.4188

>  <PEOE_VSA-2>
0

>  <PEOE_VSA-3>
0

>  <PEOE_VSA-4>
0

>  <PEOE_VSA-5>
5.6825762

>  <PEOE_VSA-6>
0.27378201

>  <PEOE_VSA_FHYD>
0.97119552

>  <PEOE_VSA_FNEG>
0.49270737

>  <PEOE_VSA_FPNEG>
0.028804461

>  <PEOE_VSA_FPOL>
0.028804461

>  <PEOE_VSA_FPOS>
0.50729263

>  <PEOE_VSA_FPPOS>
0

>  <PEOE_VSA_HYD>
200.82961

>  <PEOE_VSA_NEG>
101.88496

>  <PEOE_VSA_PNEG>
5.956358

>  <PEOE_VSA_POL>
5.956358

>  <PEOE_VSA_POS>
104.90099

>  <PEOE_VSA_PPOS>
0

>  <petitjean>
0.42857143

>  <petitjeanSC>
0.75

>  <Q_PC+>
0

>  <Q_PC->
0

>  <Q_RPC+>
0

>  <Q_RPC->
0

>  <Q_VSA_FHYD>
1

>  <Q_VSA_FNEG>
0

>  <Q_VSA_FPNEG>
0

>  <Q_VSA_FPOL>
0

>  <Q_VSA_FPOS>
1

>  <Q_VSA_FPPOS>
0

>  <Q_VSA_HYD>
206.78596

>  <Q_VSA_NEG>
0

>  <Q_VSA_PNEG>
0

>  <Q_VSA_POL>
0

>  <Q_VSA_POS>
206.78596

>  <Q_VSA_PPOS>
0

>  <radius>
4

>  <reactive>
0

>  <rings>
2

>  <RPC+>
0

>  <RPC->
0

>  <rsynth>
1

>  <SlogP>
2.3645

>  <SlogP_VSA0>
18.01075

>  <SlogP_VSA1>
19.909843

>  <SlogP_VSA2>
0

>  <SlogP_VSA3>
36.879158

>  <SlogP_VSA4>
0

>  <SlogP_VSA5>
16.78553

>  <SlogP_VSA6>
7.0012131

>  <SlogP_VSA7>
52.929554

>  <SlogP_VSA8>
0

>  <SlogP_VSA9>
81.054039

>  <SMR>
6.03894

>  <SMR_VSA0>
0

>  <SMR_VSA1>
16.78553

>  <SMR_VSA2>
18.01075

>  <SMR_VSA3>
7.0012131

>  <SMR_VSA4>
20.767498

>  <SMR_VSA5>
52.929554

>  <SMR_VSA6>
38.778248

>  <SMR_VSA7>
78.297287

>  <TPSA>
36.419998

>  <VAdjEq>
0.61744827

>  <VAdjMa>
4.9068904

>  <VDistEq>
2.6489291

>  <VDistMa>
7.3128252

>  <vdw_area>
206.78596

>  <vdw_vol>
262.19943

>  <vsa_acc>
5.6825762

>  <vsa_acid>
0

>  <vsa_base>
0

>  <vsa_don>
11.365152

>  <vsa_hyd>
162.92743

>  <vsa_other>
15.681574

>  <vsa_pol>
17.047728

>  <Weight>
230.09799

>  <weinerPath>
301

>  <weinerPol>
17

>  <zagreb>
70

$$$$