ClC(Cl)(Cl)C(O)O
  MOE2013           2D

  7  6  0  0  0  0  0  0  0  0999 V2000
    0.0000    0.0000    0.0000 Cl  0  0  0  0  0  0  0  0  0  0  0  0
    0.0000   -1.5000    0.0000 C   0  0  0  0  0  0  0  0  0  0  0  0
    0.0000   -3.0000    0.0000 Cl  0  0  0  0  0  0  0  0  0  0  0  0
    1.5000   -1.5000    0.0000 Cl  0  0  0  0  0  0  0  0  0  0  0  0
   -1.5000   -1.5000    0.0000 C   0  0  0  0  0  0  0  0  0  0  0  0
   -2.2500   -0.2010    0.0000 O   0  0  0  0  0  0  0  0  0  0  0  0
   -2.2500   -2.7990    0.0000 O   0  0  0  0  0  0  0  0  0  0  0  0
  1  2  1  0  0  0  0
  2  3  1  0  0  0  0
  2  4  1  0  0  0  0
  2  5  1  0  0  0  0
  5  6  1  0  0  0  0
  5  7  1  0  0  0  0
M  END
>  <Index>
213

>  <ID>
HT0442

>  <class>
0

>  <apol>
13.664379

>  <ast_fraglike>
1

>  <ast_fraglike_ext>
1

>  <ast_violation>
0

>  <ast_violation_ext>
0

>  <a_acc>
2

>  <a_acid>
0

>  <a_aro>
0

>  <a_base>
0

>  <a_count>
10

>  <a_don>
2

>  <a_donacc>
4

>  <a_heavy>
7

>  <a_hyd>
3

>  <a_IC>
19.709505

>  <a_ICM>
1.9709506

>  <a_nB>
0

>  <a_nBr>
0

>  <a_nC>
2

>  <a_nCl>
3

>  <a_nF>
0

>  <a_nH>
3

>  <a_nI>
0

>  <a_nN>
0

>  <a_nO>
2

>  <a_nP>
0

>  <a_nS>
0

>  <balabanJ>
3.5411971

>  <BCUT_PEOE_0>
-2.317488

>  <BCUT_PEOE_1>
-0.40610084

>  <BCUT_PEOE_2>
0.6087516

>  <BCUT_PEOE_3>
2.4494946

>  <BCUT_SLOGP_0>
-2.4846253

>  <BCUT_SLOGP_1>
-0.55775905

>  <BCUT_SLOGP_2>
0.68949997

>  <BCUT_SLOGP_3>
2.3726473

>  <BCUT_SMR_0>
-2.1099532

>  <BCUT_SMR_1>
-0.34452388

>  <BCUT_SMR_2>
0.65010464

>  <BCUT_SMR_3>
2.6556544

>  <bpol>
4.5396209

>  <b_1rotN>
0

>  <b_1rotR>
0

>  <b_ar>
0

>  <b_count>
9

>  <b_double>
0

>  <b_heavy>
6

>  <b_max1len>
4

>  <b_rotN>
1

>  <b_rotR>
0.16666667

>  <b_single>
9

>  <b_triple>
0

>  <chi0>
6.0773501

>  <chi0v>
5.3734579

>  <chi0v_C>
1.0773503

>  <chi0_C>
1.0773503

>  <chi1>
2.9433756

>  <chi1v>
2.505913

>  <chi1v_C>
0.28867513

>  <chi1_C>
0.28867513

>  <chiral>
0

>  <chiral_u>
0

>  <density>
1.2955848

>  <diameter>
3

>  <FCharge>
0

>  <GCUT_PEOE_0>
-0.76202464

>  <GCUT_PEOE_1>
-0.26972124

>  <GCUT_PEOE_2>
0.15060273

>  <GCUT_PEOE_3>
1.7083569

>  <GCUT_SLOGP_0>
-0.92840123

>  <GCUT_SLOGP_1>
-0.44357139

>  <GCUT_SLOGP_2>
0.52950001

>  <GCUT_SLOGP_3>
1.7608048

>  <GCUT_SMR_0>
-0.51398075

>  <GCUT_SMR_1>
-0.17611504

>  <GCUT_SMR_2>
0.4253

>  <GCUT_SMR_3>
1.9589787

>  <Kier1>
7

>  <Kier2>
1.8518518

>  <Kier3>
2.6666667

>  <KierA1>
12.617069

>  <KierA2>
3.6880922

>  <KierA3>
5.8964987

>  <KierFlex>
6.6475592

>  <lip_acc>
2

>  <lip_don>
2

>  <lip_druglike>
1

>  <lip_violation>
0

>  <logP(o/w)>
0.60808003

>  <logS>
-1.47395

>  <mr>
2.7701662

>  <mutagenic>
1

>  <nmol>
1

>  <opr_brigid>
0

>  <opr_leadlike>
1

>  <opr_nring>
0

>  <opr_nrot>
0

>  <opr_violation>
0

>  <PC+>
0

>  <PC->
0

>  <PEOE_PC+>
0.96187145

>  <PEOE_PC->
-0.96187145

>  <PEOE_RPC+>
0.24994282

>  <PEOE_RPC->
0.3783305

>  <PEOE_VSA+0>
0

>  <PEOE_VSA+1>
4.2653861

>  <PEOE_VSA+2>
0

>  <PEOE_VSA+3>
0

>  <PEOE_VSA+4>
31.803253

>  <PEOE_VSA+5>
0

>  <PEOE_VSA+6>
0

>  <PEOE_VSA-0>
0

>  <PEOE_VSA-1>
88.745842

>  <PEOE_VSA-2>
0

>  <PEOE_VSA-3>
0

>  <PEOE_VSA-4>
0

>  <PEOE_VSA-5>
0

>  <PEOE_VSA-6>
15.535081

>  <PEOE_VSA_FHYD>
0.6627112

>  <PEOE_VSA_FNEG>
0.74300855

>  <PEOE_VSA_FPNEG>
0.11068849

>  <PEOE_VSA_FPOL>
0.3372888

>  <PEOE_VSA_FPOS>
0.25699148

>  <PEOE_VSA_FPPOS>
0.2266003

>  <PEOE_VSA_HYD>
93.01123

>  <PEOE_VSA_NEG>
104.28092

>  <PEOE_VSA_PNEG>
15.535081

>  <PEOE_VSA_POL>
47.338333

>  <PEOE_VSA_POS>
36.068642

>  <PEOE_VSA_PPOS>
31.803253

>  <petitjean>
0.33333334

>  <petitjeanSC>
0.5

>  <Q_PC+>
0

>  <Q_PC->
0

>  <Q_RPC+>
0

>  <Q_RPC->
0

>  <Q_VSA_FHYD>
1

>  <Q_VSA_FNEG>
0

>  <Q_VSA_FPNEG>
0

>  <Q_VSA_FPOL>
0

>  <Q_VSA_FPOS>
1

>  <Q_VSA_FPPOS>
0

>  <Q_VSA_HYD>
140.34956

>  <Q_VSA_NEG>
0

>  <Q_VSA_PNEG>
0

>  <Q_VSA_POL>
0

>  <Q_VSA_POS>
140.34956

>  <Q_VSA_PPOS>
0

>  <radius>
2

>  <reactive>
1

>  <rings>
0

>  <RPC+>
0

>  <RPC->
0

>  <rsynth>
1

>  <SlogP>
0.66729999

>  <SlogP_VSA0>
50.770454

>  <SlogP_VSA1>
0

>  <SlogP_VSA2>
8.5265026

>  <SlogP_VSA3>
0

>  <SlogP_VSA4>
0

>  <SlogP_VSA5>
0

>  <SlogP_VSA6>
0

>  <SlogP_VSA7>
0

>  <SlogP_VSA8>
0

>  <SlogP_VSA9>
117.44593

>  <SMR>
2.8515601

>  <SMR_VSA0>
0

>  <SMR_VSA1>
50.770454

>  <SMR_VSA2>
0

>  <SMR_VSA3>
8.5265026

>  <SMR_VSA4>
0

>  <SMR_VSA5>
0

>  <SMR_VSA6>
0

>  <SMR_VSA7>
117.44593

>  <TPSA>
40.459999

>  <VAdjEq>
0.80309099

>  <VAdjMa>
3.5849626

>  <VDistEq>
1.5566567

>  <VDistMa>
5.2844763

>  <vdw_area>
140.34956

>  <vdw_vol>
127.66666

>  <vsa_acc>
0

>  <vsa_acid>
0

>  <vsa_base>
0

>  <vsa_don>
0

>  <vsa_hyd>
88.745842

>  <vsa_other>
14.708499

>  <vsa_pol>
27.133842

>  <Weight>
165.403

>  <weinerPath>
42

>  <weinerPol>
6

>  <zagreb>
30

$$$$