OC(=O)c1cc(nc2c1cccc2)-c1ccccc1
  MOE2013           2D

 19 21  0  0  0  0  0  0  0  0999 V2000
    0.0000    0.0000    0.0000 O   0  0  0  0  0  0  0  0  0  0  0  0
   -0.7560    1.2960    0.0000 C   0  0  0  0  0  0  0  0  0  0  0  0
   -2.2560    1.2890    0.0000 O   0  0  0  0  0  0  0  0  0  0  0  0
   -0.0110    2.5980    0.0000 C   0  0  0  0  0  0  0  0  0  0  0  0
    1.4890    2.6050    0.0000 C   0  0  0  0  0  0  0  0  0  0  0  0
    2.2330    3.9070    0.0000 C   0  0  0  0  0  0  0  0  0  0  0  0
    1.4770    5.2030    0.0000 N   0  0  0  0  0  0  0  0  0  0  0  0
   -0.0230    5.1960    0.0000 C   0  0  0  0  0  0  0  0  0  0  0  0
   -0.7670    3.8940    0.0000 C   0  0  0  0  0  0  0  0  0  0  0  0
   -2.2670    3.8870    0.0000 C   0  0  0  0  0  0  0  0  0  0  0  0
   -3.0220    5.1830    0.0000 C   0  0  0  0  0  0  0  0  0  0  0  0
   -2.2780    6.4850    0.0000 C   0  0  0  0  0  0  0  0  0  0  0  0
   -0.7780    6.4920    0.0000 C   0  0  0  0  0  0  0  0  0  0  0  0
    3.7330    3.9130    0.0000 C   0  0  0  0  0  0  0  0  0  0  0  0
    4.4770    5.2160    0.0000 C   0  0  0  0  0  0  0  0  0  0  0  0
    5.9770    5.2220    0.0000 C   0  0  0  0  0  0  0  0  0  0  0  0
    6.7330    3.9260    0.0000 C   0  0  0  0  0  0  0  0  0  0  0  0
    5.9890    2.6240    0.0000 C   0  0  0  0  0  0  0  0  0  0  0  0
    4.4890    2.6180    0.0000 C   0  0  0  0  0  0  0  0  0  0  0  0
  1  2  1  0  0  0  0
  2  3  2  0  0  0  0
  2  4  1  0  0  0  0
  4  5  2  0  0  0  0
  4  9  1  0  0  0  0
  5  6  1  0  0  0  0
  6  7  2  0  0  0  0
  6 14  1  0  0  0  0
  7  8  1  0  0  0  0
  8  9  1  0  0  0  0
  8 13  2  0  0  0  0
  9 10  2  0  0  0  0
 10 11  1  0  0  0  0
 11 12  2  0  0  0  0
 12 13  1  0  0  0  0
 14 15  1  0  0  0  0
 14 19  2  0  0  0  0
 15 16  2  0  0  0  0
 16 17  1  0  0  0  0
 17 18  2  0  0  0  0
 18 19  1  0  0  0  0
M  END
>  <Index>
231

>  <ID>
HT0489

>  <class>
0

>  <apol>
38.198723

>  <ast_fraglike>
0

>  <ast_fraglike_ext>
0

>  <ast_violation>
1

>  <ast_violation_ext>
1

>  <a_acc>
3

>  <a_acid>
0

>  <a_aro>
16

>  <a_base>
0

>  <a_count>
30

>  <a_don>
2

>  <a_donacc>
5

>  <a_heavy>
19

>  <a_hyd>
15

>  <a_IC>
43.152969

>  <a_ICM>
1.4384323

>  <a_nB>
0

>  <a_nBr>
0

>  <a_nC>
16

>  <a_nCl>
0

>  <a_nF>
0

>  <a_nH>
11

>  <a_nI>
0

>  <a_nN>
1

>  <a_nO>
2

>  <a_nP>
0

>  <a_nS>
0

>  <balabanJ>
1.7050419

>  <BCUT_PEOE_0>
-2.2302809

>  <BCUT_PEOE_1>
-0.64890009

>  <BCUT_PEOE_2>
0.69025594

>  <BCUT_PEOE_3>
2.2333214

>  <BCUT_SLOGP_0>
-2.1176665

>  <BCUT_SLOGP_1>
-0.54986024

>  <BCUT_SLOGP_2>
0.78087533

>  <BCUT_SLOGP_3>
2.3891377

>  <BCUT_SMR_0>
-1.8916781

>  <BCUT_SMR_1>
-0.47530821

>  <BCUT_SMR_2>
0.85383618

>  <BCUT_SMR_3>
2.5692017

>  <bpol>
14.303277

>  <b_1rotN>
2

>  <b_1rotR>
0.095238097

>  <b_ar>
17

>  <b_count>
32

>  <b_double>
1

>  <b_heavy>
21

>  <b_max1len>
1

>  <b_rotN>
2

>  <b_rotR>
0.095238097

>  <b_single>
14

>  <b_triple>
0

>  <chi0>
13.242276

>  <chi0v>
10.076179

>  <chi0v_C>
8.7735023

>  <chi0_C>
10.53517

>  <chi1>
9.2540197

>  <chi1v>
5.9403286

>  <chi1v_C>
5.0653839

>  <chi1_C>
7.2828231

>  <chiral>
0

>  <chiral_u>
0

>  <density>
0.73117489

>  <diameter>
9

>  <FCharge>
0

>  <GCUT_PEOE_0>
-0.75068432

>  <GCUT_PEOE_1>
-0.42422304

>  <GCUT_PEOE_2>
0.083387055

>  <GCUT_PEOE_3>
2.3853161

>  <GCUT_SLOGP_0>
-0.85429966

>  <GCUT_SLOGP_1>
-0.30491123

>  <GCUT_SLOGP_2>
0.16826478

>  <GCUT_SLOGP_3>
2.5337224

>  <GCUT_SMR_0>
-0.40392998

>  <GCUT_SMR_1>
-0.22214001

>  <GCUT_SMR_2>
0.21372958

>  <GCUT_SMR_3>
2.7078276

>  <Kier1>
13.959184

>  <Kier2>
6.1854935

>  <Kier3>
3.0295858

>  <KierA1>
9.126008

>  <KierA2>
3.938098

>  <KierA3>
1.8890253

>  <KierFlex>
1.8915322

>  <lip_acc>
3

>  <lip_don>
1

>  <lip_druglike>
1

>  <lip_violation>
0

>  <logP(o/w)>
3.7409999

>  <logS>
-4.3379998

>  <mr>
7.4124088

>  <mutagenic>
0

>  <nmol>
1

>  <opr_brigid>
17

>  <opr_leadlike>
1

>  <opr_nring>
3

>  <opr_nrot>
2

>  <opr_violation>
0

>  <PC+>
0

>  <PC->
0

>  <PEOE_PC+>
1.3531578

>  <PEOE_PC->
-1.3531578

>  <PEOE_RPC+>
0.21574748

>  <PEOE_RPC->
0.24200739

>  <PEOE_VSA+0>
4.4170794

>  <PEOE_VSA+1>
58.261501

>  <PEOE_VSA+2>
0

>  <PEOE_VSA+3>
0

>  <PEOE_VSA+4>
10.324173

>  <PEOE_VSA+5>
14.708499

>  <PEOE_VSA+6>
0

>  <PEOE_VSA-0>
24.509808

>  <PEOE_VSA-1>
98.03923

>  <PEOE_VSA-2>
0

>  <PEOE_VSA-3>
0

>  <PEOE_VSA-4>
5.6825762

>  <PEOE_VSA-5>
13.566921

>  <PEOE_VSA-6>
7.7675405

>  <PEOE_VSA_FHYD>
0.78063768

>  <PEOE_VSA_FNEG>
0.6303429

>  <PEOE_VSA_FPNEG>
0.1138627

>  <PEOE_VSA_FPOL>
0.21936233

>  <PEOE_VSA_FPOS>
0.36965713

>  <PEOE_VSA_FPPOS>
0.10549963

>  <PEOE_VSA_HYD>
185.22762

>  <PEOE_VSA_NEG>
149.56607

>  <PEOE_VSA_PNEG>
27.017036

>  <PEOE_VSA_POL>
52.049709

>  <PEOE_VSA_POS>
87.71125

>  <PEOE_VSA_PPOS>
25.032671

>  <petitjean>
0.44444445

>  <petitjeanSC>
0.80000001

>  <Q_PC+>
0

>  <Q_PC->
0

>  <Q_RPC+>
0

>  <Q_RPC->
0

>  <Q_VSA_FHYD>
1

>  <Q_VSA_FNEG>
0

>  <Q_VSA_FPNEG>
0

>  <Q_VSA_FPOL>
0

>  <Q_VSA_FPOS>
1

>  <Q_VSA_FPPOS>
0

>  <Q_VSA_HYD>
237.27733

>  <Q_VSA_NEG>
0

>  <Q_VSA_PNEG>
0

>  <Q_VSA_POL>
0

>  <Q_VSA_POS>
237.27733

>  <Q_VSA_PPOS>
0

>  <radius>
5

>  <reactive>
0

>  <rings>
3

>  <RPC+>
0

>  <RPC->
0

>  <rsynth>
1

>  <SlogP>
3.5999999

>  <SlogP_VSA0>
0

>  <SlogP_VSA1>
24.530994

>  <SlogP_VSA2>
0

>  <SlogP_VSA3>
25.385227

>  <SlogP_VSA4>
27.047791

>  <SlogP_VSA5>
0

>  <SlogP_VSA6>
0

>  <SlogP_VSA7>
187.09126

>  <SlogP_VSA8>
0

>  <SlogP_VSA9>
0

>  <SMR>
7.4138298

>  <SMR_VSA0>
23.862217

>  <SMR_VSA1>
16.78553

>  <SMR_VSA2>
25.385227

>  <SMR_VSA3>
3.185575

>  <SMR_VSA4>
10.659424

>  <SMR_VSA5>
176.43184

>  <SMR_VSA6>
7.7454643

>  <SMR_VSA7>
0

>  <TPSA>
50.189999

>  <VAdjEq>
0.51875818

>  <VAdjMa>
5.3923173

>  <VDistEq>
2.9200087

>  <VDistMa>
8.2220697

>  <vdw_area>
237.27733

>  <vdw_vol>
340.91568

>  <vsa_acc>
5.6825762

>  <vsa_acid>
0

>  <vsa_base>
0

>  <vsa_don>
0

>  <vsa_hyd>
178.10966

>  <vsa_other>
14.708499

>  <vsa_pol>
32.816418

>  <Weight>
249.269

>  <weinerPath>
664

>  <weinerPol>
30

>  <zagreb>
100

$$$$