S(CC(N)C(O)=O)CCCCC=C(NC(=O)C1CC1(C)C)/C(O)=O
  MOE2013           2D

 24 24  0  0  1  0  0  0  0  0999 V2000
    0.0000    0.0000    0.0000 S   0  0  0  0  0  0  0  0  0  0  0  0
    1.2930   -0.7610    0.0000 C   0  0  0  0  0  0  0  0  0  0  0  0
    2.5980   -0.0220    0.0000 C   0  0  3  0  0  0  0  0  0  0  0  0
    2.6110    1.4780    0.0000 N   0  0  0  0  0  0  0  0  0  0  0  0
    3.8910   -0.7830    0.0000 C   0  0  0  0  0  0  0  0  0  0  0  0
    5.1960   -0.0450    0.0000 O   0  0  0  0  0  0  0  0  0  0  0  0
    3.8780   -2.2830    0.0000 O   0  0  0  0  0  0  0  0  0  0  0  0
   -1.3050   -0.7390    0.0000 C   0  0  0  0  0  0  0  0  0  0  0  0
   -2.5980    0.0220    0.0000 C   0  0  0  0  0  0  0  0  0  0  0  0
   -3.9030   -0.7170    0.0000 C   0  0  0  0  0  0  0  0  0  0  0  0
   -5.1960    0.0450    0.0000 C   0  0  0  0  0  0  0  0  0  0  0  0
   -6.5010   -0.6940    0.0000 C   0  0  0  0  0  0  0  0  0  0  0  0
   -7.7940    0.0670    0.0000 C   0  0  0  0  0  0  0  0  0  0  0  0
   -9.0990   -0.6720    0.0000 N   0  0  0  0  0  0  0  0  0  0  0  0
   -9.1120   -2.1720    0.0000 C   0  0  0  0  0  0  0  0  0  0  0  0
   -7.8200   -2.9330    0.0000 O   0  0  0  0  0  0  0  0  0  0  0  0
  -10.4180   -2.9110    0.0000 C   0  0  3  0  0  0  0  0  0  0  0  0
  -11.9180   -2.8980    0.0000 C   0  0  0  0  0  0  0  0  0  0  0  0
  -11.1790   -4.2030    0.0000 C   0  0  0  0  0  0  0  0  0  0  0  0
  -12.1020   -5.3850    0.0000 C   0  0  0  0  0  0  0  0  0  0  0  0
  -10.2760   -5.4010    0.0000 C   0  0  0  0  0  0  0  0  0  0  0  0
   -7.7810    1.5670    0.0000 C   0  0  0  0  0  0  0  0  0  0  0  0
   -6.4760    2.3060    0.0000 O   0  0  0  0  0  0  0  0  0  0  0  0
   -9.0740    2.3280    0.0000 O   0  0  0  0  0  0  0  0  0  0  0  0
  1  2  1  0  0  0  0
  1  8  1  0  0  0  0
  2  3  1  0  0  0  0
  3  4  1  0  0  0  0
  3  5  1  0  0  0  0
  5  6  1  0  0  0  0
  5  7  2  0  0  0  0
  8  9  1  0  0  0  0
  9 10  1  0  0  0  0
 10 11  1  0  0  0  0
 11 12  1  0  0  0  0
 12 13  2  3  0  0  0
 13 14  1  0  0  0  0
 13 22  1  0  0  0  0
 14 15  1  0  0  0  0
 15 16  2  0  0  0  0
 15 17  1  0  0  0  0
 17 18  1  0  0  0  0
 17 19  1  0  0  0  0
 18 19  1  0  0  0  0
 19 20  1  0  0  0  0
 19 21  1  0  0  0  0
 22 23  1  0  0  0  0
 22 24  2  0  0  0  0
M  END
>  <Index>
228

>  <ID>
HT0483

>  <class>
0

>  <apol>
54.606617

>  <ast_fraglike>
0

>  <ast_fraglike_ext>
0

>  <ast_violation>
3

>  <ast_violation_ext>
5

>  <a_acc>
6

>  <a_acid>
0

>  <a_aro>
0

>  <a_base>
0

>  <a_count>
50

>  <a_don>
6

>  <a_donacc>
12

>  <a_heavy>
24

>  <a_hyd>
14

>  <a_IC>
82.371735

>  <a_ICM>
1.6474347

>  <a_nB>
0

>  <a_nBr>
0

>  <a_nC>
16

>  <a_nCl>
0

>  <a_nF>
0

>  <a_nH>
26

>  <a_nI>
0

>  <a_nN>
2

>  <a_nO>
5

>  <a_nP>
0

>  <a_nS>
1

>  <balabanJ>
2.1192167

>  <BCUT_PEOE_0>
-2.6124723

>  <BCUT_PEOE_1>
-0.50502431

>  <BCUT_PEOE_2>
0.39748767

>  <BCUT_PEOE_3>
2.8721836

>  <BCUT_SLOGP_0>
-2.7458878

>  <BCUT_SLOGP_1>
-0.48875999

>  <BCUT_SLOGP_2>
0.37065339

>  <BCUT_SLOGP_3>
2.9286845

>  <BCUT_SMR_0>
-2.3422899

>  <BCUT_SMR_1>
-0.29549161

>  <BCUT_SMR_2>
0.54036415

>  <BCUT_SMR_3>
3.1137176

>  <bpol>
33.577381

>  <b_1rotN>
11

>  <b_1rotR>
0.45833334

>  <b_ar>
0

>  <b_count>
50

>  <b_double>
4

>  <b_heavy>
24

>  <b_max1len>
10

>  <b_rotN>
12

>  <b_rotR>
0.5

>  <b_single>
46

>  <b_triple>
0

>  <chi0>
18.328062

>  <chi0v>
14.895959

>  <chi0v_C>
10.474691

>  <chi0_C>
10.913849

>  <chi1>
11.147572

>  <chi1v>
9.1079693

>  <chi1v_C>
5.4829988

>  <chi1_C>
5.8669734

>  <chiral>
2

>  <chiral_u>
2

>  <density>
0.78114808

>  <diameter>
15

>  <FCharge>
0

>  <GCUT_PEOE_0>
-0.80958396

>  <GCUT_PEOE_1>
-0.4215641

>  <GCUT_PEOE_2>
0.042542201

>  <GCUT_PEOE_3>
2.5837173

>  <GCUT_SLOGP_0>
-1.3634655

>  <GCUT_SLOGP_1>
-0.36328873

>  <GCUT_SLOGP_2>
0.10919201

>  <GCUT_SLOGP_3>
2.6243615

>  <GCUT_SMR_0>
-0.52469128

>  <GCUT_SMR_1>
-0.23369859

>  <GCUT_SMR_2>
0.20521696

>  <GCUT_SMR_3>
2.8283617

>  <Kier1>
22.041666

>  <Kier2>
10.222222

>  <Kier3>
7.4243975

>  <KierA1>
19.771286

>  <KierA2>
9.1238794

>  <KierA3>
6.6030436

>  <KierFlex>
7.5162845

>  <lip_acc>
7

>  <lip_don>
5

>  <lip_druglike>
1

>  <lip_violation>
0

>  <logP(o/w)>
-1.24573

>  <logS>
-2.63416

>  <mr>
9.3045197

>  <mutagenic>
0

>  <nmol>
1

>  <opr_brigid>
4

>  <opr_leadlike>
1

>  <opr_nring>
1

>  <opr_nrot>
11

>  <opr_violation>
1

>  <PC+>
0

>  <PC->
0

>  <PEOE_PC+>
2.6112475

>  <PEOE_PC->
-2.6112475

>  <PEOE_RPC+>
0.11771573

>  <PEOE_RPC->
0.12640582

>  <PEOE_VSA+0>
91.719711

>  <PEOE_VSA+1>
8.5307722

>  <PEOE_VSA+2>
27.083538

>  <PEOE_VSA+3>
8.6190128

>  <PEOE_VSA+4>
33.597878

>  <PEOE_VSA+5>
14.708499

>  <PEOE_VSA+6>
14.708499

>  <PEOE_VSA-0>
45.482628

>  <PEOE_VSA-1>
49.750259

>  <PEOE_VSA-2>
0

>  <PEOE_VSA-3>
19.760618

>  <PEOE_VSA-4>
0

>  <PEOE_VSA-5>
40.700764

>  <PEOE_VSA-6>
22.323092

>  <PEOE_VSA_FHYD>
0.6656667

>  <PEOE_VSA_FNEG>
0.47221303

>  <PEOE_VSA_FPNEG>
0.16717856

>  <PEOE_VSA_FPOL>
0.3343333

>  <PEOE_VSA_FPOS>
0.52778697

>  <PEOE_VSA_FPPOS>
0.16715474

>  <PEOE_VSA_HYD>
250.94653

>  <PEOE_VSA_NEG>
178.01736

>  <PEOE_VSA_PNEG>
63.023853

>  <PEOE_VSA_POL>
126.03873

>  <PEOE_VSA_POS>
198.96791

>  <PEOE_VSA_PPOS>
63.014874

>  <petitjean>
0.46666667

>  <petitjeanSC>
0.875

>  <Q_PC+>
0

>  <Q_PC->
0

>  <Q_RPC+>
0

>  <Q_RPC->
0

>  <Q_VSA_FHYD>
1

>  <Q_VSA_FNEG>
0

>  <Q_VSA_FPNEG>
0

>  <Q_VSA_FPOL>
0

>  <Q_VSA_FPOS>
1

>  <Q_VSA_FPPOS>
0

>  <Q_VSA_HYD>
376.98526

>  <Q_VSA_NEG>
0

>  <Q_VSA_PNEG>
0

>  <Q_VSA_POL>
0

>  <Q_VSA_POS>
376.98526

>  <Q_VSA_PPOS>
0

>  <radius>
8

>  <reactive>
1

>  <rings>
1

>  <RPC+>
0

>  <RPC->
0

>  <rsynth>
0.58333331

>  <SlogP>
1.4326

>  <SlogP_VSA0>
50.90794

>  <SlogP_VSA1>
20.749712

>  <SlogP_VSA2>
75.568619

>  <SlogP_VSA3>
85.237579

>  <SlogP_VSA4>
4.4107962

>  <SlogP_VSA5>
2.7567475

>  <SlogP_VSA6>
0

>  <SlogP_VSA7>
17.643185

>  <SlogP_VSA8>
75.473625

>  <SlogP_VSA9>
98.871574

>  <SMR>
9.2537699

>  <SMR_VSA0>
71.586647

>  <SMR_VSA1>
0

>  <SMR_VSA2>
73.192001

>  <SMR_VSA3>
6.7387161

>  <SMR_VSA4>
32.897186

>  <SMR_VSA5>
93.116806

>  <SMR_VSA6>
55.216843

>  <SMR_VSA7>
98.871574

>  <TPSA>
129.72

>  <VAdjEq>
0.41381684

>  <VAdjMa>
5.5849624

>  <VDistEq>
3.7745886

>  <VDistMa>
8.8287344

>  <vdw_area>
376.98526

>  <vdw_vol>
458.88739

>  <vsa_acc>
13.566921

>  <vsa_acid>
0

>  <vsa_base>
0

>  <vsa_don>
5.6825762

>  <vsa_hyd>
208.79674

>  <vsa_other>
42.366531

>  <vsa_pol>
91.259666

>  <Weight>
358.45898

>  <weinerPath>
1747

>  <weinerPol>
28

>  <zagreb>
114

$$$$