O1[C@@H](C)[C@@H](O)[C@@H](N)C[C@@H]1O[C@@H]1c2c(C[C@](O)(C1)C(=O)C)c(O)c1c(C(=O)c3c(cccc3OC)C1=O)c2O
  MOE2013           2D

 38 42  0  0  1  0  0  0  0  0999 V2000
    0.0000    0.0000    0.0000 O   0  0  0  0  0  0  0  0  0  0  0  0
    1.5000    0.0120    0.0000 C   0  0  1  0  0  0  0  0  0  0  0  0
    2.2600   -1.2810    0.0000 C   0  0  0  0  0  0  0  0  0  0  0  0
    2.2400    1.3170    0.0000 C   0  0  1  0  0  0  0  0  0  0  0  0
    3.7400    1.3290    0.0000 O   0  0  0  0  0  0  0  0  0  0  0  0
    1.4790    2.6100    0.0000 C   0  0  1  0  0  0  0  0  0  0  0  0
    2.2190    3.9150    0.0000 N   0  0  0  0  0  0  0  0  0  0  0  0
   -0.0210    2.5980    0.0000 C   0  0  0  0  0  0  0  0  0  0  0  0
   -0.7600    1.2930    0.0000 C   0  0  2  0  0  0  0  0  0  0  0  0
   -2.2600    1.2810    0.0000 O   0  0  0  0  0  0  0  0  0  0  0  0
   -3.0210    2.5740    0.0000 C   0  0  2  0  0  0  0  0  0  0  0  0
   -4.5210    2.5620    0.0000 C   0  0  0  0  0  0  0  0  0  0  0  0
   -5.2810    3.8550    0.0000 C   0  0  0  0  0  0  0  0  0  0  0  0
   -4.5410    5.1600    0.0000 C   0  0  0  0  0  0  0  0  0  0  0  0
   -3.0410    5.1720    0.0000 C   0  0  2  0  0  0  0  0  0  0  0  0
   -1.7480    5.9320    0.0000 O   0  0  0  0  0  0  0  0  0  0  0  0
   -2.2810    3.8790    0.0000 C   0  0  0  0  0  0  0  0  0  0  0  0
   -3.0530    6.6720    0.0000 C   0  0  0  0  0  0  0  0  0  0  0  0
   -4.3580    7.4120    0.0000 O   0  0  0  0  0  0  0  0  0  0  0  0
   -1.7600    7.4320    0.0000 C   0  0  0  0  0  0  0  0  0  0  0  0
   -6.7810    3.8430    0.0000 C   0  0  0  0  0  0  0  0  0  0  0  0
   -7.5410    5.1360    0.0000 O   0  0  0  0  0  0  0  0  0  0  0  0
   -7.5200    2.5380    0.0000 C   0  0  0  0  0  0  0  0  0  0  0  0
   -6.7600    1.2450    0.0000 C   0  0  0  0  0  0  0  0  0  0  0  0
   -7.5000   -0.0600    0.0000 C   0  0  0  0  0  0  0  0  0  0  0  0
   -6.7390   -1.3530    0.0000 O   0  0  0  0  0  0  0  0  0  0  0  0
   -9.0000   -0.0720    0.0000 C   0  0  0  0  0  0  0  0  0  0  0  0
   -9.7600    1.2210    0.0000 C   0  0  0  0  0  0  0  0  0  0  0  0
  -11.2600    1.2090    0.0000 C   0  0  0  0  0  0  0  0  0  0  0  0
  -12.0000   -0.0960    0.0000 C   0  0  0  0  0  0  0  0  0  0  0  0
  -11.2390   -1.3890    0.0000 C   0  0  0  0  0  0  0  0  0  0  0  0
   -9.7390   -1.3770    0.0000 C   0  0  0  0  0  0  0  0  0  0  0  0
   -8.9790   -2.6700    0.0000 O   0  0  0  0  0  0  0  0  0  0  0  0
   -9.7190   -3.9750    0.0000 C   0  0  0  0  0  0  0  0  0  0  0  0
   -9.0200    2.5260    0.0000 C   0  0  0  0  0  0  0  0  0  0  0  0
   -9.7810    3.8190    0.0000 O   0  0  0  0  0  0  0  0  0  0  0  0
   -5.2600    1.2570    0.0000 C   0  0  0  0  0  0  0  0  0  0  0  0
   -4.5000   -0.0360    0.0000 O   0  0  0  0  0  0  0  0  0  0  0  0
  1  2  1  0  0  0  0
  1  9  1  0  0  0  0
  2  3  1  6  0  0  0
  2  4  1  0  0  0  0
  4  5  1  6  0  0  0
  4  6  1  0  0  0  0
  6  7  1  6  0  0  0
  6  8  1  0  0  0  0
  8  9  1  0  0  0  0
  9 10  1  1  0  0  0
 11 10  1  6  0  0  0
 11 12  1  0  0  0  0
 11 17  1  0  0  0  0
 12 13  1  0  0  0  0
 12 37  2  0  0  0  0
 13 14  1  0  0  0  0
 13 21  2  0  0  0  0
 14 15  1  0  0  0  0
 15 16  1  6  0  0  0
 15 17  1  0  0  0  0
 15 18  1  1  0  0  0
 18 19  2  0  0  0  0
 18 20  1  0  0  0  0
 21 22  1  0  0  0  0
 21 23  1  0  0  0  0
 23 24  2  0  0  0  0
 23 35  1  0  0  0  0
 24 25  1  0  0  0  0
 24 37  1  0  0  0  0
 25 26  2  0  0  0  0
 25 27  1  0  0  0  0
 27 28  1  0  0  0  0
 27 32  2  0  0  0  0
 28 29  2  0  0  0  0
 28 35  1  0  0  0  0
 29 30  1  0  0  0  0
 30 31  2  0  0  0  0
 31 32  1  0  0  0  0
 32 33  1  0  0  0  0
 33 34  1  0  0  0  0
 35 36  2  0  0  0  0
 37 38  1  0  0  0  0
M  END
>  <Index>
286

>  <ID>
HT0595

>  <class>
0

>  <apol>
75.976997

>  <ast_fraglike>
0

>  <ast_fraglike_ext>
0

>  <ast_violation>
3

>  <ast_violation_ext>
5

>  <a_acc>
11

>  <a_acid>
0

>  <a_aro>
12

>  <a_base>
0

>  <a_count>
67

>  <a_don>
5

>  <a_donacc>
16

>  <a_heavy>
38

>  <a_hyd>
23

>  <a_IC>
103.94528

>  <a_ICM>
1.5514221

>  <a_nB>
0

>  <a_nBr>
0

>  <a_nC>
27

>  <a_nCl>
0

>  <a_nF>
0

>  <a_nH>
29

>  <a_nI>
0

>  <a_nN>
1

>  <a_nO>
10

>  <a_nP>
0

>  <a_nS>
0

>  <balabanJ>
1.4793882

>  <BCUT_PEOE_0>
-2.753577

>  <BCUT_PEOE_1>
-0.53719223

>  <BCUT_PEOE_2>
0.5836212

>  <BCUT_PEOE_3>
2.7697923

>  <BCUT_SLOGP_0>
-2.9030044

>  <BCUT_SLOGP_1>
-0.46358207

>  <BCUT_SLOGP_2>
0.57675326

>  <BCUT_SLOGP_3>
2.7523508

>  <BCUT_SMR_0>
-2.5258784

>  <BCUT_SMR_1>
-0.3810913

>  <BCUT_SMR_2>
0.73512715

>  <BCUT_SMR_3>
2.9897032

>  <bpol>
39.665005

>  <b_1rotN>
4

>  <b_1rotR>
0.095238097

>  <b_ar>
12

>  <b_count>
71

>  <b_double>
3

>  <b_heavy>
42

>  <b_max1len>
5

>  <b_rotN>
4

>  <b_rotR>
0.095238097

>  <b_single>
56

>  <b_triple>
0

>  <chi0>
27.678915

>  <chi0v>
21.055817

>  <chi0v_C>
16.240122

>  <chi0_C>
17.557596

>  <chi1>
17.889772

>  <chi1v>
12.242021

>  <chi1v_C>
8.8121138

>  <chi1_C>
10.599972

>  <chiral>
6

>  <chiral_u>
0

>  <density>
0.80800569

>  <diameter>
14

>  <FCharge>
0

>  <GCUT_PEOE_0>
-0.82896692

>  <GCUT_PEOE_1>
-0.44138113

>  <GCUT_PEOE_2>
0.057927012

>  <GCUT_PEOE_3>
3.0557184

>  <GCUT_SLOGP_0>
-1.3636991

>  <GCUT_SLOGP_1>
-0.35582769

>  <GCUT_SLOGP_2>
0.054200001

>  <GCUT_SLOGP_3>
3.0929489

>  <GCUT_SMR_0>
-0.52195537

>  <GCUT_SMR_1>
-0.20312086

>  <GCUT_SMR_2>
0.17964767

>  <GCUT_SMR_3>
3.298321

>  <Kier1>
29.490931

>  <Kier2>
11.008265

>  <Kier3>
4.921875

>  <KierA1>
24.036072

>  <KierA2>
8.9199123

>  <KierA3>
3.9719265

>  <KierFlex>
5.642096

>  <lip_acc>
11

>  <lip_don>
6

>  <lip_druglike>
0

>  <lip_violation>
3

>  <logP(o/w)>
1.327

>  <logS>
-4.0395002

>  <mr>
13.127082

>  <mutagenic>
0

>  <nmol>
1

>  <opr_brigid>
27

>  <opr_leadlike>
0

>  <opr_nring>
5

>  <opr_nrot>
7

>  <opr_violation>
4

>  <PC+>
0

>  <PC->
0

>  <PEOE_PC+>
3.8991499

>  <PEOE_PC->
-3.8991499

>  <PEOE_RPC+>
0.055743646

>  <PEOE_RPC->
0.099430688

>  <PEOE_VSA+0>
114.11465

>  <PEOE_VSA+1>
89.369827

>  <PEOE_VSA+2>
17.238026

>  <PEOE_VSA+3>
36.530468

>  <PEOE_VSA+4>
41.296692

>  <PEOE_VSA+5>
0

>  <PEOE_VSA+6>
0

>  <PEOE_VSA-0>
51.958797

>  <PEOE_VSA-1>
24.509808

>  <PEOE_VSA-2>
0

>  <PEOE_VSA-3>
0

>  <PEOE_VSA-4>
0

>  <PEOE_VSA-5>
40.700764

>  <PEOE_VSA-6>
45.232548

>  <PEOE_VSA_FHYD>
0.723984

>  <PEOE_VSA_FNEG>
0.35231882

>  <PEOE_VSA_FPNEG>
0.18642589

>  <PEOE_VSA_FPOL>
0.27601597

>  <PEOE_VSA_FPOS>
0.64768118

>  <PEOE_VSA_FPPOS>
0.08959008

>  <PEOE_VSA_HYD>
333.72159

>  <PEOE_VSA_NEG>
162.40192

>  <PEOE_VSA_PNEG>
85.933311

>  <PEOE_VSA_POL>
127.23

>  <PEOE_VSA_POS>
298.54965

>  <PEOE_VSA_PPOS>
41.296692

>  <petitjean>
0.5

>  <petitjeanSC>
1

>  <Q_PC+>
0

>  <Q_PC->
0

>  <Q_RPC+>
0

>  <Q_RPC->
0

>  <Q_VSA_FHYD>
1

>  <Q_VSA_FNEG>
0

>  <Q_VSA_FPNEG>
0

>  <Q_VSA_FPOL>
0

>  <Q_VSA_FPOS>
1

>  <Q_VSA_FPPOS>
0

>  <Q_VSA_HYD>
460.95157

>  <Q_VSA_NEG>
0

>  <Q_VSA_PNEG>
0

>  <Q_VSA_POL>
0

>  <Q_VSA_POS>
460.95157

>  <Q_VSA_PPOS>
0

>  <radius>
7

>  <reactive>
1

>  <rings>
5

>  <RPC+>
0

>  <RPC->
0

>  <rsynth>
0.57894737

>  <SlogP>
1.12437

>  <SlogP_VSA0>
145.43799

>  <SlogP_VSA1>
17.062834

>  <SlogP_VSA2>
71.307762

>  <SlogP_VSA3>
0

>  <SlogP_VSA4>
66.837883

>  <SlogP_VSA5>
54.252274

>  <SlogP_VSA6>
0

>  <SlogP_VSA7>
52.929554

>  <SlogP_VSA8>
44.20546

>  <SlogP_VSA9>
82.382317

>  <SMR>
13.04536

>  <SMR_VSA0>
93.586426

>  <SMR_VSA1>
112.54079

>  <SMR_VSA2>
0

>  <SMR_VSA3>
66.758156

>  <SMR_VSA4>
32.897186

>  <SMR_VSA5>
109.53477

>  <SMR_VSA6>
17.062834

>  <SMR_VSA7>
102.0359

>  <TPSA>
185.84

>  <VAdjEq>
0.32014427

>  <VAdjMa>
6.3923173

>  <VDistEq>
3.5523336

>  <VDistMa>
10.250303

>  <vdw_area>
460.95157

>  <vdw_vol>
652.87408

>  <vsa_acc>
48.212032

>  <vsa_acid>
0

>  <vsa_base>
0

>  <vsa_don>
0

>  <vsa_hyd>
260.0282

>  <vsa_other>
40.084057

>  <vsa_pol>
120.22221

>  <Weight>
527.526

>  <weinerPath>
4100

>  <weinerPol>
81

>  <zagreb>
216

$$$$