O(C)c1ccc(cc1C12CC3CC(C1)CC(C2)C3)-c1cc2c(cc(cc2)C(O)=O)cc1
  MOE2013           2D

 31 36  0  0  0  0  0  0  0  0999 V2000
    0.0000    0.0000    0.0000 O   0  0  0  0  0  0  0  0  0  0  0  0
   -0.7560    1.2960    0.0000 C   0  0  0  0  0  0  0  0  0  0  0  0
    1.5000    0.0070    0.0000 C   0  0  0  0  0  0  0  0  0  0  0  0
    2.2440    1.3090    0.0000 C   0  0  0  0  0  0  0  0  0  0  0  0
    3.7440    1.3160    0.0000 C   0  0  0  0  0  0  0  0  0  0  0  0
    4.5000    0.0210    0.0000 C   0  0  0  0  0  0  0  0  0  0  0  0
    3.7560   -1.2820    0.0000 C   0  0  0  0  0  0  0  0  0  0  0  0
    2.2560   -1.2890    0.0000 C   0  0  0  0  0  0  0  0  0  0  0  0
    1.5120   -2.5910    0.0000 C   0  0  0  0  0  0  0  0  0  0  0  0
    1.7510   -4.1410    0.0000 C   0  0  0  0  0  0  0  0  0  0  0  0
    0.9420   -5.4640    0.0000 C   0  0  0  0  0  0  0  0  0  0  0  0
   -0.5140   -5.2260    0.0000 C   0  0  0  0  0  0  0  0  0  0  0  0
   -0.7100   -3.6480    0.0000 C   0  0  0  0  0  0  0  0  0  0  0  0
    0.0560   -2.3700    0.0000 C   0  0  0  0  0  0  0  0  0  0  0  0
    0.2780   -4.6420    0.0000 C   0  0  0  0  0  0  0  0  0  0  0  0
    1.6330   -4.9040    0.0000 C   0  0  0  0  0  0  0  0  0  0  0  0
    2.3940   -3.6740    0.0000 C   0  0  0  0  0  0  0  0  0  0  0  0
    1.9810   -6.5740    0.0000 C   0  0  0  0  0  0  0  0  0  0  0  0
    6.0000    0.0280    0.0000 C   0  0  0  0  0  0  0  0  0  0  0  0
    6.7440    1.3300    0.0000 C   0  0  0  0  0  0  0  0  0  0  0  0
    8.2440    1.3370    0.0000 C   0  0  0  0  0  0  0  0  0  0  0  0
    9.0000    0.0410    0.0000 C   0  0  0  0  0  0  0  0  0  0  0  0
   10.5000    0.0480    0.0000 C   0  0  0  0  0  0  0  0  0  0  0  0
   11.2440    1.3510    0.0000 C   0  0  0  0  0  0  0  0  0  0  0  0
   10.4880    2.6460    0.0000 C   0  0  0  0  0  0  0  0  0  0  0  0
    8.9880    2.6400    0.0000 C   0  0  0  0  0  0  0  0  0  0  0  0
   12.7440    1.3580    0.0000 C   0  0  0  0  0  0  0  0  0  0  0  0
   13.4880    2.6600    0.0000 O   0  0  0  0  0  0  0  0  0  0  0  0
   13.5000    0.0620    0.0000 O   0  0  0  0  0  0  0  0  0  0  0  0
    8.2560   -1.2610    0.0000 C   0  0  0  0  0  0  0  0  0  0  0  0
    6.7560   -1.2680    0.0000 C   0  0  0  0  0  0  0  0  0  0  0  0
  1  2  1  0  0  0  0
  1  3  1  0  0  0  0
  3  4  1  0  0  0  0
  3  8  2  0  0  0  0
  4  5  2  0  0  0  0
  5  6  1  0  0  0  0
  6  7  2  0  0  0  0
  6 19  1  0  0  0  0
  7  8  1  0  0  0  0
  8  9  1  0  0  0  0
  9 10  1  0  0  0  0
  9 14  1  0  0  0  0
  9 17  1  0  0  0  0
 10 11  1  0  0  0  0
 11 12  1  0  0  0  0
 11 18  1  0  0  0  0
 12 13  1  0  0  0  0
 13 14  1  0  0  0  0
 13 15  1  0  0  0  0
 15 16  1  0  0  0  0
 16 17  1  0  0  0  0
 16 18  1  0  0  0  0
 19 20  2  0  0  0  0
 19 31  1  0  0  0  0
 20 21  1  0  0  0  0
 21 22  1  0  0  0  0
 21 26  2  0  0  0  0
 22 23  2  0  0  0  0
 22 30  1  0  0  0  0
 23 24  1  0  0  0  0
 24 25  2  0  0  0  0
 24 27  1  0  0  0  0
 25 26  1  0  0  0  0
 27 28  1  0  0  0  0
 27 29  2  0  0  0  0
 30 31  2  0  0  0  0
M  END
>  <Index>
27

>  <ID>
HT0071

>  <class>
0

>  <apol>
70.356201

>  <ast_fraglike>
0

>  <ast_fraglike_ext>
0

>  <ast_violation>
2

>  <ast_violation_ext>
3

>  <a_acc>
3

>  <a_acid>
0

>  <a_aro>
16

>  <a_base>
0

>  <a_count>
59

>  <a_don>
2

>  <a_donacc>
5

>  <a_heavy>
31

>  <a_hyd>
27

>  <a_IC>
73.109177

>  <a_ICM>
1.2391386

>  <a_nB>
0

>  <a_nBr>
0

>  <a_nC>
28

>  <a_nCl>
0

>  <a_nF>
0

>  <a_nH>
28

>  <a_nI>
0

>  <a_nN>
0

>  <a_nO>
3

>  <a_nP>
0

>  <a_nS>
0

>  <balabanJ>
1.1475118

>  <BCUT_PEOE_0>
-2.9981287

>  <BCUT_PEOE_1>
-0.60633409

>  <BCUT_PEOE_2>
0.63736814

>  <BCUT_PEOE_3>
2.9428918

>  <BCUT_SLOGP_0>
-2.8973188

>  <BCUT_SLOGP_1>
-0.52005869

>  <BCUT_SLOGP_2>
0.71856105

>  <BCUT_SLOGP_3>
3.0473158

>  <BCUT_SMR_0>
-2.7393055

>  <BCUT_SMR_1>
-0.43027258

>  <BCUT_SMR_2>
0.79091662

>  <BCUT_SMR_3>
3.2034738

>  <bpol>
33.483795

>  <b_1rotN>
4

>  <b_1rotR>
0.11111111

>  <b_ar>
17

>  <b_count>
64

>  <b_double>
1

>  <b_heavy>
36

>  <b_max1len>
2

>  <b_rotN>
4

>  <b_rotR>
0.11111111

>  <b_single>
46

>  <b_triple>
0

>  <chi0>
21.164562

>  <chi0v>
17.934553

>  <chi0v_C>
16.670843

>  <chi0_C>
18.457455

>  <chi1>
15.025938

>  <chi1v>
11.4891

>  <chi1v_C>
10.448997

>  <chi1_C>
12.755882

>  <chiral>
0

>  <chiral_u>
0

>  <density>
0.70195556

>  <diameter>
14

>  <FCharge>
0

>  <GCUT_PEOE_0>
-0.7926293

>  <GCUT_PEOE_1>
-0.4261798

>  <GCUT_PEOE_2>
0.055783309

>  <GCUT_PEOE_3>
3.122159

>  <GCUT_SLOGP_0>
-0.88703978

>  <GCUT_SLOGP_1>
-0.31630239

>  <GCUT_SLOGP_2>
0.14648816

>  <GCUT_SLOGP_3>
3.2518413

>  <GCUT_SMR_0>
-0.52630413

>  <GCUT_SMR_1>
-0.22624917

>  <GCUT_SMR_2>
0.16514221

>  <GCUT_SMR_3>
3.3785937

>  <Kier1>
21.527779

>  <Kier2>
8.3404961

>  <Kier3>
3.8658776

>  <KierA1>
16.846588

>  <KierA2>
6.4701509

>  <KierA3>
2.9798384

>  <KierFlex>
3.5161281

>  <lip_acc>
3

>  <lip_don>
1

>  <lip_druglike>
1

>  <lip_violation>
1

>  <logP(o/w)>
7.2470002

>  <logS>
-10.20025

>  <mr>
12.135192

>  <mutagenic>
0

>  <nmol>
1

>  <opr_brigid>
29

>  <opr_leadlike>
0

>  <opr_nring>
6

>  <opr_nrot>
4

>  <opr_violation>
2

>  <PC+>
0

>  <PC->
0

>  <PEOE_PC+>
1.82376

>  <PEOE_PC->
-1.82376

>  <PEOE_RPC+>
0.15969993

>  <PEOE_RPC->
0.19060759

>  <PEOE_VSA+0>
91.186989

>  <PEOE_VSA+1>
59.64315

>  <PEOE_VSA+2>
0

>  <PEOE_VSA+3>
0

>  <PEOE_VSA+4>
10.324173

>  <PEOE_VSA+5>
14.708499

>  <PEOE_VSA+6>
0

>  <PEOE_VSA-0>
124.5251

>  <PEOE_VSA-1>
49.019615

>  <PEOE_VSA-2>
0

>  <PEOE_VSA-3>
0

>  <PEOE_VSA-4>
0

>  <PEOE_VSA-5>
13.566921

>  <PEOE_VSA-6>
10.271297

>  <PEOE_VSA_FHYD>
0.86906511

>  <PEOE_VSA_FNEG>
0.52882838

>  <PEOE_VSA_FPNEG>
0.063867353

>  <PEOE_VSA_FPOL>
0.13093489

>  <PEOE_VSA_FPOS>
0.47117165

>  <PEOE_VSA_FPPOS>
0.067067534

>  <PEOE_VSA_HYD>
324.37485

>  <PEOE_VSA_NEG>
197.38293

>  <PEOE_VSA_PNEG>
23.838217

>  <PEOE_VSA_POL>
48.870888

>  <PEOE_VSA_POS>
175.86281

>  <PEOE_VSA_PPOS>
25.032671

>  <petitjean>
0.5

>  <petitjeanSC>
1

>  <Q_PC+>
0

>  <Q_PC->
0

>  <Q_RPC+>
0

>  <Q_RPC->
0

>  <Q_VSA_FHYD>
1

>  <Q_VSA_FNEG>
0

>  <Q_VSA_FPNEG>
0

>  <Q_VSA_FPOL>
0

>  <Q_VSA_FPOS>
1

>  <Q_VSA_FPPOS>
0

>  <Q_VSA_HYD>
373.24573

>  <Q_VSA_NEG>
0

>  <Q_VSA_PNEG>
0

>  <Q_VSA_POL>
0

>  <Q_VSA_POS>
373.24573

>  <Q_VSA_PPOS>
0

>  <radius>
7

>  <reactive>
0

>  <rings>
6

>  <RPC+>
0

>  <RPC->
0

>  <rsynth>
0.3548387

>  <SlogP>
6.6813998

>  <SlogP_VSA0>
10.999887

>  <SlogP_VSA1>
7.7454643

>  <SlogP_VSA2>
0

>  <SlogP_VSA3>
25.385227

>  <SlogP_VSA4>
43.465755

>  <SlogP_VSA5>
35.383869

>  <SlogP_VSA6>
0

>  <SlogP_VSA7>
170.30574

>  <SlogP_VSA8>
113.21043

>  <SlogP_VSA9>
5.2434282

>  <SMR>
12.27453

>  <SMR_VSA0>
23.862217

>  <SMR_VSA1>
10.999887

>  <SMR_VSA2>
38.617615

>  <SMR_VSA3>
11.614578

>  <SMR_VSA4>
11.517078

>  <SMR_VSA5>
271.99908

>  <SMR_VSA6>
7.7454643

>  <SMR_VSA7>
35.383869

>  <TPSA>
46.529999

>  <VAdjEq>
0.38402861

>  <VAdjMa>
6.1699252

>  <VDistEq>
3.6183691

>  <VDistMa>
9.6078424

>  <vdw_area>
373.24573

>  <vdw_vol>
587.68536

>  <vsa_acc>
2.503756

>  <vsa_acid>
0

>  <vsa_base>
0

>  <vsa_don>
0

>  <vsa_hyd>
301.12122

>  <vsa_other>
14.708499

>  <vsa_pol>
29.637598

>  <Weight>
412.52899

>  <weinerPath>
2664

>  <weinerPol>
57

>  <zagreb>
182

$$$$