S1C2N(C(=O)C2NC(=O)Cc2ccccc2CN)C(C(O)=O)=C(C1)CSc1nnnn1CC(O)=O
  MOE2013           2D

 35 38  0  0  1  0  0  0  0  0999 V2000
    0.0000    0.0000    0.0000 S   0  0  0  0  0  0  0  0  0  0  0  0
    0.7430   -1.3030    0.0000 C   0  0  3  0  0  0  0  0  0  0  0  0
   -0.0140   -2.5980    0.0000 N   0  0  0  0  0  0  0  0  0  0  0  0
    1.2810   -3.3550    0.0000 C   0  0  0  0  0  0  0  0  0  0  0  0
    1.6610   -4.8060    0.0000 O   0  0  0  0  0  0  0  0  0  0  0  0
    2.0380   -2.0600    0.0000 C   0  0  3  0  0  0  0  0  0  0  0  0
    3.4890   -1.6800    0.0000 N   0  0  0  0  0  0  0  0  0  0  0  0
    3.8850   -0.2330    0.0000 C   0  0  0  0  0  0  0  0  0  0  0  0
    2.8300    0.8330    0.0000 O   0  0  0  0  0  0  0  0  0  0  0  0
    5.3360    0.1470    0.0000 C   0  0  0  0  0  0  0  0  0  0  0  0
    5.7320    1.5940    0.0000 C   0  0  0  0  0  0  0  0  0  0  0  0
    4.6770    2.6600    0.0000 C   0  0  0  0  0  0  0  0  0  0  0  0
    5.0740    4.1070    0.0000 C   0  0  0  0  0  0  0  0  0  0  0  0
    6.5250    4.4870    0.0000 C   0  0  0  0  0  0  0  0  0  0  0  0
    7.5790    3.4210    0.0000 C   0  0  0  0  0  0  0  0  0  0  0  0
    7.1830    1.9740    0.0000 C   0  0  0  0  0  0  0  0  0  0  0  0
    8.2380    0.9070    0.0000 C   0  0  0  0  0  0  0  0  0  0  0  0
    9.6890    1.2880    0.0000 N   0  0  0  0  0  0  0  0  0  0  0  0
   -1.5140   -2.5900    0.0000 C   0  0  0  0  0  0  0  0  0  0  0  0
   -2.2710   -3.8850    0.0000 C   0  0  0  0  0  0  0  0  0  0  0  0
   -1.5290   -5.1880    0.0000 O   0  0  0  0  0  0  0  0  0  0  0  0
   -3.7710   -3.8760    0.0000 O   0  0  0  0  0  0  0  0  0  0  0  0
   -2.2570   -1.2870    0.0000 C   0  0  0  0  0  0  0  0  0  0  0  0
   -1.5000    0.0080    0.0000 C   0  0  0  0  0  0  0  0  0  0  0  0
   -3.7570   -1.2780    0.0000 C   0  0  0  0  0  0  0  0  0  0  0  0
   -4.5000    0.0250    0.0000 S   0  0  0  0  0  0  0  0  0  0  0  0
   -6.0000    0.0330    0.0000 C   0  0  0  0  0  0  0  0  0  0  0  0
   -6.8880   -1.1760    0.0000 N   0  0  0  0  0  0  0  0  0  0  0  0
   -8.3120   -0.7040    0.0000 N   0  0  0  0  0  0  0  0  0  0  0  0
   -8.3040    0.7960    0.0000 N   0  0  0  0  0  0  0  0  0  0  0  0
   -6.8750    1.2510    0.0000 N   0  0  0  0  0  0  0  0  0  0  0  0
   -6.4030    2.6750    0.0000 C   0  0  0  0  0  0  0  0  0  0  0  0
   -7.4010    3.7960    0.0000 C   0  0  0  0  0  0  0  0  0  0  0  0
   -6.9300    5.2200    0.0000 O   0  0  0  0  0  0  0  0  0  0  0  0
   -8.8700    3.4920    0.0000 O   0  0  0  0  0  0  0  0  0  0  0  0
  1  2  1  0  0  0  0
  1 24  1  0  0  0  0
  2  3  1  0  0  0  0
  2  6  1  0  0  0  0
  3  4  1  0  0  0  0
  3 19  1  0  0  0  0
  4  5  2  0  0  0  0
  4  6  1  0  0  0  0
  6  7  1  0  0  0  0
  7  8  1  0  0  0  0
  8  9  2  0  0  0  0
  8 10  1  0  0  0  0
 10 11  1  0  0  0  0
 11 12  1  0  0  0  0
 11 16  2  0  0  0  0
 12 13  2  0  0  0  0
 13 14  1  0  0  0  0
 14 15  2  0  0  0  0
 15 16  1  0  0  0  0
 16 17  1  0  0  0  0
 17 18  1  0  0  0  0
 19 20  1  0  0  0  0
 19 23  2  0  0  0  0
 20 21  1  0  0  0  0
 20 22  2  0  0  0  0
 23 24  1  0  0  0  0
 23 25  1  0  0  0  0
 25 26  1  0  0  0  0
 26 27  1  0  0  0  0
 27 28  2  0  0  0  0
 27 31  1  0  0  0  0
 28 29  1  0  0  0  0
 29 30  2  0  0  0  0
 30 31  1  0  0  0  0
 31 32  1  0  0  0  0
 32 33  1  0  0  0  0
 33 34  1  0  0  0  0
 33 35  2  0  0  0  0
M  END
>  <Index>
204

>  <ID>
HT0411

>  <class>
0

>  <apol>
67.514656

>  <ast_fraglike>
0

>  <ast_fraglike_ext>
0

>  <ast_violation>
3

>  <ast_violation_ext>
5

>  <a_acc>
10

>  <a_acid>
0

>  <a_aro>
11

>  <a_base>
0

>  <a_count>
56

>  <a_don>
6

>  <a_donacc>
16

>  <a_heavy>
35

>  <a_hyd>
17

>  <a_IC>
109.37339

>  <a_ICM>
1.9530963

>  <a_nB>
0

>  <a_nBr>
0

>  <a_nC>
20

>  <a_nCl>
0

>  <a_nF>
0

>  <a_nH>
21

>  <a_nI>
0

>  <a_nN>
7

>  <a_nO>
6

>  <a_nP>
0

>  <a_nS>
2

>  <balabanJ>
1.3008016

>  <BCUT_PEOE_0>
-2.6890485

>  <BCUT_PEOE_1>
-0.52518702

>  <BCUT_PEOE_2>
0.55657846

>  <BCUT_PEOE_3>
2.7357326

>  <BCUT_SLOGP_0>
-2.895752

>  <BCUT_SLOGP_1>
-0.48976958

>  <BCUT_SLOGP_2>
0.52472401

>  <BCUT_SLOGP_3>
2.6232772

>  <BCUT_SMR_0>
-2.4027417

>  <BCUT_SMR_1>
-0.36964163

>  <BCUT_SMR_2>
0.71154863

>  <BCUT_SMR_3>
3.0205913

>  <bpol>
35.309345

>  <b_1rotN>
10

>  <b_1rotR>
0.2631579

>  <b_ar>
11

>  <b_count>
59

>  <b_double>
5

>  <b_heavy>
38

>  <b_max1len>
3

>  <b_rotN>
11

>  <b_rotR>
0.28947368

>  <b_single>
43

>  <b_triple>
0

>  <chi0>
25.112156

>  <chi0v>
19.789965

>  <chi0v_C>
11.499636

>  <chi0_C>
12.714814

>  <chi1>
16.794933

>  <chi1v>
12.401696

>  <chi1v_C>
5.0706792

>  <chi1_C>
6.432653

>  <chiral>
2

>  <chiral_u>
2

>  <density>
0.88301057

>  <diameter>
18

>  <FCharge>
0

>  <GCUT_PEOE_0>
-0.83212107

>  <GCUT_PEOE_1>
-0.48056298

>  <GCUT_PEOE_2>
0.098449364

>  <GCUT_PEOE_3>
2.6880848

>  <GCUT_SLOGP_0>
-1.3371112

>  <GCUT_SLOGP_1>
-0.4374859

>  <GCUT_SLOGP_2>
0.10321257

>  <GCUT_SLOGP_3>
2.6701965

>  <GCUT_SMR_0>
-0.52893734

>  <GCUT_SMR_1>
-0.23538798

>  <GCUT_SMR_2>
0.23015426

>  <GCUT_SMR_3>
2.9717116

>  <Kier1>
28.01939

>  <Kier2>
12.697531

>  <Kier3>
6.5333085

>  <KierA1>
22.927122

>  <KierA2>
10.325322

>  <KierA3>
5.288805

>  <KierFlex>
6.7637119

>  <lip_acc>
13

>  <lip_don>
5

>  <lip_druglike>
0

>  <lip_violation>
2

>  <logP(o/w)>
-0.87800002

>  <logS>
-4.32898

>  <mr>
12.759089

>  <mutagenic>
0

>  <nmol>
1

>  <opr_brigid>
20

>  <opr_leadlike>
0

>  <opr_nring>
4

>  <opr_nrot>
10

>  <opr_violation>
2

>  <PC+>
0

>  <PC->
0

>  <PEOE_PC+>
3.5863953

>  <PEOE_PC->
-3.5863953

>  <PEOE_RPC+>
0.085862912

>  <PEOE_RPC->
0.095331781

>  <PEOE_VSA+0>
68.670166

>  <PEOE_VSA+1>
42.824402

>  <PEOE_VSA+2>
45.397884

>  <PEOE_VSA+3>
8.6190128

>  <PEOE_VSA+4>
46.7645

>  <PEOE_VSA+5>
27.65803

>  <PEOE_VSA+6>
14.708499

>  <PEOE_VSA-0>
32.944626

>  <PEOE_VSA-1>
68.780235

>  <PEOE_VSA-2>
29.181658

>  <PEOE_VSA-3>
0

>  <PEOE_VSA-4>
0

>  <PEOE_VSA-5>
54.267685

>  <PEOE_VSA-6>
22.323092

>  <PEOE_VSA_FHYD>
0.64140332

>  <PEOE_VSA_FNEG>
0.44899249

>  <PEOE_VSA_FPNEG>
0.16573076

>  <PEOE_VSA_FPOL>
0.35859671

>  <PEOE_VSA_FPOS>
0.55100751

>  <PEOE_VSA_FPPOS>
0.19286595

>  <PEOE_VSA_HYD>
296.41797

>  <PEOE_VSA_NEG>
207.49728

>  <PEOE_VSA_PNEG>
76.590775

>  <PEOE_VSA_POL>
165.7218

>  <PEOE_VSA_POS>
254.64249

>  <PEOE_VSA_PPOS>
89.131027

>  <petitjean>
0.5

>  <petitjeanSC>
1

>  <Q_PC+>
0

>  <Q_PC->
0

>  <Q_RPC+>
0

>  <Q_RPC->
0

>  <Q_VSA_FHYD>
1

>  <Q_VSA_FNEG>
0

>  <Q_VSA_FPNEG>
0

>  <Q_VSA_FPOL>
0

>  <Q_VSA_FPOS>
1

>  <Q_VSA_FPPOS>
0

>  <Q_VSA_HYD>
462.13977

>  <Q_VSA_NEG>
0

>  <Q_VSA_PNEG>
0

>  <Q_VSA_POL>
0

>  <Q_VSA_POS>
462.13977

>  <Q_VSA_PPOS>
0

>  <radius>
9

>  <reactive>
0

>  <rings>
4

>  <RPC+>
0

>  <RPC->
0

>  <rsynth>
1

>  <SlogP>
-0.17743

>  <SlogP_VSA0>
50.90794

>  <SlogP_VSA1>
80.653358

>  <SlogP_VSA2>
101.77796

>  <SlogP_VSA3>
85.237579

>  <SlogP_VSA4>
6.37115

>  <SlogP_VSA5>
25.503807

>  <SlogP_VSA6>
0

>  <SlogP_VSA7>
70.572739

>  <SlogP_VSA8>
0

>  <SlogP_VSA9>
101.31824

>  <SMR>
12.43107

>  <SMR_VSA0>
95.448868

>  <SMR_VSA1>
54.644863

>  <SMR_VSA2>
69.474281

>  <SMR_VSA3>
18.642569

>  <SMR_VSA4>
32.897186

>  <SMR_VSA5>
126.3203

>  <SMR_VSA6>
60.475624

>  <SMR_VSA7>
64.439079

>  <TPSA>
193.63

>  <VAdjEq>
0.33549348

>  <VAdjMa>
6.2479277

>  <VDistEq>
3.9533162

>  <VDistMa>
9.9490471

>  <vdw_area>
462.13977

>  <vdw_vol>
588.39954

>  <vsa_acc>
62.873886

>  <vsa_acid>
0

>  <vsa_base>
0

>  <vsa_don>
5.6825762

>  <vsa_hyd>
223.43217

>  <vsa_other>
68.482681

>  <vsa_pol>
140.56664

>  <Weight>
519.56299

>  <weinerPath>
4203

>  <weinerPol>
54

>  <zagreb>
184

$$$$