O=C1N[C@@H](CC)C(=O)N(CC(=O)N(C)[C@@H](CC(C)C)C(=O)N[C@@H](C(C)C)C(=O)N(C)[C@@H](CC(C)C)C(=O)N[C@@H](C)C(=O)N[C@H](C)C(=O)N(C)[C@@H](CC(C)C)C(=O)N(C)[C@@H](CC(C)C)C(=O)N(C)[C@@H](C(C)C)C(=O)N(C)C1[C@H](O)[C@@H](CC=CC)C)C
  MOE2013           2D

 85 85  0  0  1  0  0  0  0  0999 V2000
    0.0000    0.0000    0.0000 O   0  0  0  0  0  0  0  0  0  0  0  0
   -0.7400    1.3050    0.0000 C   0  0  0  0  0  0  0  0  0  0  0  0
    0.0180    2.6050    0.0000 N   0  0  0  0  0  0  0  0  0  0  0  0
    1.5130    2.6110    0.0000 C   0  0  1  0  0  0  0  0  0  0  0  0
    2.2720    1.3170    0.0000 C   0  0  0  0  0  0  0  0  0  0  0  0
    1.5310    0.0130    0.0000 C   0  0  0  0  0  0  0  0  0  0  0  0
    2.2530    3.9210    0.0000 C   0  0  0  0  0  0  0  0  0  0  0  0
    1.4850    5.2100    0.0000 O   0  0  0  0  0  0  0  0  0  0  0  0
    3.7430    3.9490    0.0000 N   0  0  0  0  0  0  0  0  0  0  0  0
    4.5390    2.6830    0.0000 C   0  0  0  0  0  0  0  0  0  0  0  0
    6.0430    2.7370    0.0000 C   0  0  0  0  0  0  0  0  0  0  0  0
    6.7470    4.0620    0.0000 O   0  0  0  0  0  0  0  0  0  0  0  0
    6.8340    1.4690    0.0000 N   0  0  0  0  0  0  0  0  0  0  0  0
    6.1240    0.1480    0.0000 C   0  0  0  0  0  0  0  0  0  0  0  0
    8.3380    1.5100    0.0000 C   0  0  1  0  0  0  0  0  0  0  0  0
    9.0790    2.8140    0.0000 C   0  0  0  0  0  0  0  0  0  0  0  0
   10.5790    2.8240    0.0000 C   0  0  0  0  0  0  0  0  0  0  0  0
   11.3200    4.1280    0.0000 C   0  0  0  0  0  0  0  0  0  0  0  0
   11.3380    1.5300    0.0000 C   0  0  0  0  0  0  0  0  0  0  0  0
    9.0830    0.1780    0.0000 C   0  0  0  0  0  0  0  0  0  0  0  0
   10.5830    0.1320    0.0000 O   0  0  0  0  0  0  0  0  0  0  0  0
    8.2720   -1.0820    0.0000 N   0  0  0  0  0  0  0  0  0  0  0  0
    8.9470   -2.4220    0.0000 C   0  0  1  0  0  0  0  0  0  0  0  0
   10.4450   -2.5130    0.0000 C   0  0  0  0  0  0  0  0  0  0  0  0
   11.2730   -1.2620    0.0000 C   0  0  0  0  0  0  0  0  0  0  0  0
   11.1140   -3.8560    0.0000 C   0  0  0  0  0  0  0  0  0  0  0  0
    8.1140   -3.6690    0.0000 C   0  0  0  0  0  0  0  0  0  0  0  0
    6.6180   -3.5640    0.0000 O   0  0  0  0  0  0  0  0  0  0  0  0
    8.7650   -5.0190    0.0000 N   0  0  0  0  0  0  0  0  0  0  0  0
   10.2590   -5.1570    0.0000 C   0  0  0  0  0  0  0  0  0  0  0  0
    7.8610   -6.2480    0.0000 C   0  0  1  0  0  0  0  0  0  0  0  0
    8.4340   -7.6340    0.0000 C   0  0  0  0  0  0  0  0  0  0  0  0
    9.9210   -7.8310    0.0000 C   0  0  0  0  0  0  0  0  0  0  0  0
   10.8350   -6.6420    0.0000 C   0  0  0  0  0  0  0  0  0  0  0  0
   10.4930   -9.2180    0.0000 C   0  0  0  0  0  0  0  0  0  0  0  0
    6.3740   -6.0190    0.0000 C   0  0  0  0  0  0  0  0  0  0  0  0
    5.8340   -4.6190    0.0000 O   0  0  0  0  0  0  0  0  0  0  0  0
    5.4320   -7.1790    0.0000 N   0  0  0  0  0  0  0  0  0  0  0  0
    3.9460   -6.9370    0.0000 C   0  0  1  0  0  0  0  0  0  0  0  0
    3.4150   -5.5350    0.0000 C   0  0  0  0  0  0  0  0  0  0  0  0
    2.9950   -8.0890    0.0000 C   0  0  0  0  0  0  0  0  0  0  0  0
    3.5280   -9.4910    0.0000 O   0  0  0  0  0  0  0  0  0  0  0  0
    1.5090   -7.8500    0.0000 N   0  0  0  0  0  0  0  0  0  0  0  0
    0.5680   -9.0100    0.0000 C   0  0  2  0  0  0  0  0  0  0  0  0
    1.1370  -10.3970    0.0000 C   0  0  0  0  0  0  0  0  0  0  0  0
   -0.8960   -8.8470    0.0000 C   0  0  0  0  0  0  0  0  0  0  0  0
   -1.7620  -10.0710    0.0000 O   0  0  0  0  0  0  0  0  0  0  0  0
   -1.5490   -7.4920    0.0000 N   0  0  0  0  0  0  0  0  0  0  0  0
   -0.7090   -6.2490    0.0000 C   0  0  0  0  0  0  0  0  0  0  0  0
   -3.0400   -7.3920    0.0000 C   0  0  1  0  0  0  0  0  0  0  0  0
   -4.2460   -8.2840    0.0000 C   0  0  0  0  0  0  0  0  0  0  0  0
   -4.0760   -9.7740    0.0000 C   0  0  0  0  0  0  0  0  0  0  0  0
   -2.7000  -10.3720    0.0000 C   0  0  0  0  0  0  0  0  0  0  0  0
   -5.2820  -10.6660    0.0000 C   0  0  0  0  0  0  0  0  0  0  0  0
   -3.7200   -6.0490    0.0000 C   0  0  0  0  0  0  0  0  0  0  0  0
   -2.8990   -4.7930    0.0000 O   0  0  0  0  0  0  0  0  0  0  0  0
   -5.2010   -5.9670    0.0000 N   0  0  0  0  0  0  0  0  0  0  0  0
   -5.8900   -7.3000    0.0000 C   0  0  0  0  0  0  0  0  0  0  0  0
   -6.0600   -4.8850    0.0000 C   0  0  1  0  0  0  0  0  0  0  0  0
   -7.4670   -5.4060    0.0000 C   0  0  0  0  0  0  0  0  0  0  0  0
   -7.7200   -6.8840    0.0000 C   0  0  0  0  0  0  0  0  0  0  0  0
   -9.1260   -7.4040    0.0000 C   0  0  0  0  0  0  0  0  0  0  0  0
   -6.5660   -7.8420    0.0000 C   0  0  0  0  0  0  0  0  0  0  0  0
   -6.1120   -3.5100    0.0000 C   0  0  0  0  0  0  0  0  0  0  0  0
   -7.5040   -2.9520    0.0000 O   0  0  0  0  0  0  0  0  0  0  0  0
   -5.0450   -2.4750    0.0000 N   0  0  0  0  0  0  0  0  0  0  0  0
   -3.6040   -2.8890    0.0000 C   0  0  0  0  0  0  0  0  0  0  0  0
   -5.4030   -1.0240    0.0000 C   0  0  1  0  0  0  0  0  0  0  0  0
   -6.8670   -0.6950    0.0000 C   0  0  0  0  0  0  0  0  0  0  0  0
   -7.3140    0.7370    0.0000 C   0  0  0  0  0  0  0  0  0  0  0  0
   -7.8830   -1.7980    0.0000 C   0  0  0  0  0  0  0  0  0  0  0  0
   -4.5050    0.0800    0.0000 C   0  0  0  0  0  0  0  0  0  0  0  0
   -5.1290    1.4440    0.0000 O   0  0  0  0  0  0  0  0  0  0  0  0
   -3.0170    0.0370    0.0000 N   0  0  0  0  0  0  0  0  0  0  0  0
   -2.3010   -1.2810    0.0000 C   0  0  0  0  0  0  0  0  0  0  0  0
   -2.2340    1.3220    0.0000 C   0  0  3  0  0  0  0  0  0  0  0  0
   -2.9610    2.6340    0.0000 C   0  0  2  0  0  0  0  0  0  0  0  0
   -4.4610    2.6600    0.0000 O   0  0  0  0  0  0  0  0  0  0  0  0
   -2.1890    3.9200    0.0000 C   0  0  1  0  0  0  0  0  0  0  0  0
   -2.9160    5.2320    0.0000 C   0  0  0  0  0  0  0  0  0  0  0  0
   -2.1430    6.5170    0.0000 C   0  0  0  0  0  0  0  0  0  0  0  0
   -2.8710    7.8290    0.0000 C   0  0  0  0  0  0  0  0  0  0  0  0
   -2.0980    9.1150    0.0000 C   0  0  0  0  0  0  0  0  0  0  0  0
   -0.6890    3.8930    0.0000 C   0  0  0  0  0  0  0  0  0  0  0  0
    4.4570    5.2680    0.0000 C   0  0  0  0  0  0  0  0  0  0  0  0
  1  2  2  0  0  0  0
  2  3  1  0  0  0  0
  2 76  1  0  0  0  0
  3  4  1  0  0  0  0
  4  5  1  6  0  0  0
  4  7  1  0  0  0  0
  5  6  1  0  0  0  0
  7  8  2  0  0  0  0
  7  9  1  0  0  0  0
  9 10  1  0  0  0  0
  9 85  1  0  0  0  0
 10 11  1  0  0  0  0
 11 12  2  0  0  0  0
 11 13  1  0  0  0  0
 13 14  1  0  0  0  0
 13 15  1  0  0  0  0
 15 16  1  1  0  0  0
 15 20  1  0  0  0  0
 16 17  1  0  0  0  0
 17 18  1  0  0  0  0
 17 19  1  0  0  0  0
 20 21  2  0  0  0  0
 20 22  1  0  0  0  0
 22 23  1  0  0  0  0
 23 24  1  1  0  0  0
 23 27  1  0  0  0  0
 24 25  1  0  0  0  0
 24 26  1  0  0  0  0
 27 28  2  0  0  0  0
 27 29  1  0  0  0  0
 29 30  1  0  0  0  0
 29 31  1  0  0  0  0
 31 32  1  1  0  0  0
 31 36  1  0  0  0  0
 32 33  1  0  0  0  0
 33 34  1  0  0  0  0
 33 35  1  0  0  0  0
 36 37  2  0  0  0  0
 36 38  1  0  0  0  0
 38 39  1  0  0  0  0
 39 40  1  6  0  0  0
 39 41  1  0  0  0  0
 41 42  2  0  0  0  0
 41 43  1  0  0  0  0
 43 44  1  0  0  0  0
 44 45  1  6  0  0  0
 44 46  1  0  0  0  0
 46 47  2  0  0  0  0
 46 48  1  0  0  0  0
 48 49  1  0  0  0  0
 48 50  1  0  0  0  0
 50 51  1  1  0  0  0
 50 55  1  0  0  0  0
 51 52  1  0  0  0  0
 52 53  1  0  0  0  0
 52 54  1  0  0  0  0
 55 56  2  0  0  0  0
 55 57  1  0  0  0  0
 57 58  1  0  0  0  0
 57 59  1  0  0  0  0
 59 60  1  1  0  0  0
 59 64  1  0  0  0  0
 60 61  1  0  0  0  0
 61 62  1  0  0  0  0
 61 63  1  0  0  0  0
 64 65  2  0  0  0  0
 64 66  1  0  0  0  0
 66 67  1  0  0  0  0
 66 68  1  0  0  0  0
 68 69  1  1  0  0  0
 68 72  1  0  0  0  0
 69 70  1  0  0  0  0
 69 71  1  0  0  0  0
 72 73  2  0  0  0  0
 72 74  1  0  0  0  0
 74 75  1  0  0  0  0
 74 76  1  0  0  0  0
 76 77  1  0  0  0  0
 77 78  1  6  0  0  0
 77 79  1  0  0  0  0
 79 80  1  0  0  0  0
 79 84  1  1  0  0  0
 80 81  1  0  0  0  0
 81 82  2  3  0  0  0
 82 83  1  0  0  0  0
M  END
>  <Index>
272

>  <ID>
HT0571

>  <class>
0

>  <apol>
204.85802

>  <ast_fraglike>
0

>  <ast_fraglike_ext>
0

>  <ast_violation>
4

>  <ast_violation_ext>
6

>  <a_acc>
12

>  <a_acid>
0

>  <a_aro>
0

>  <a_base>
0

>  <a_count>
196

>  <a_don>
5

>  <a_donacc>
17

>  <a_heavy>
85

>  <a_hyd>
51

>  <a_IC>
288.06949

>  <a_ICM>
1.4697423

>  <a_nB>
0

>  <a_nBr>
0

>  <a_nC>
62

>  <a_nCl>
0

>  <a_nF>
0

>  <a_nH>
111

>  <a_nI>
0

>  <a_nN>
11

>  <a_nO>
12

>  <a_nP>
0

>  <a_nS>
0

>  <balabanJ>
4.2716203

>  <BCUT_PEOE_0>
-2.7380505

>  <BCUT_PEOE_1>
-0.40374964

>  <BCUT_PEOE_2>
0.37530497

>  <BCUT_PEOE_3>
2.7375586

>  <BCUT_SLOGP_0>
-2.881006

>  <BCUT_SLOGP_1>
-0.39054477

>  <BCUT_SLOGP_2>
0.33767807

>  <BCUT_SLOGP_3>
2.7133863

>  <BCUT_SMR_0>
-2.4829538

>  <BCUT_SMR_1>
-0.26191691

>  <BCUT_SMR_2>
0.48870763

>  <BCUT_SMR_3>
2.9844453

>  <bpol>
148.38397

>  <b_1rotN>
15

>  <b_1rotR>
0.17647059

>  <b_ar>
0

>  <b_count>
196

>  <b_double>
12

>  <b_heavy>
85

>  <b_max1len>
6

>  <b_rotN>
15

>  <b_rotR>
0.17647059

>  <b_single>
184

>  <b_triple>
0

>  <chi0>
65.976997

>  <chi0v>
56.065193

>  <chi0v_C>
45.996754

>  <chi0_C>
47.107121

>  <chi1>
39.209087

>  <chi1v>
30.561842

>  <chi1v_C>
19.342413

>  <chi1_C>
20.231865

>  <chiral>
12

>  <chiral_u>
1

>  <density>
0.69893605

>  <diameter>
24

>  <FCharge>
0

>  <GCUT_PEOE_0>
-0.83999586

>  <GCUT_PEOE_1>
-0.35582262

>  <GCUT_PEOE_2>
0.030311422

>  <GCUT_PEOE_3>
3.524874

>  <GCUT_SLOGP_0>
-1.1659157

>  <GCUT_SLOGP_1>
-0.33763149

>  <GCUT_SLOGP_2>
0.0054385173

>  <GCUT_SLOGP_3>
3.4613352

>  <GCUT_SMR_0>
-0.53579473

>  <GCUT_SMR_1>
-0.19252566

>  <GCUT_SMR_2>
0.10379616

>  <GCUT_SMR_3>
3.7486086

>  <Kier1>
83.011765

>  <Kier2>
39.524349

>  <Kier3>
25.102934

>  <KierA1>
67.986862

>  <KierA2>
32.290413

>  <KierA3>
20.473473

>  <KierFlex>
25.827341

>  <lip_acc>
23

>  <lip_don>
5

>  <lip_druglike>
0

>  <lip_violation>
2

>  <logP(o/w)>
5.2919998

>  <logS>
-11.31475

>  <mr>
33.080379

>  <mutagenic>
0

>  <nmol>
1

>  <opr_brigid>
34

>  <opr_leadlike>
0

>  <opr_nring>
0

>  <opr_nrot>
37

>  <opr_violation>
3

>  <PC+>
0

>  <PC->
0

>  <PEOE_PC+>
8.592495

>  <PEOE_PC->
-8.592495

>  <PEOE_RPC+>
0.028725676

>  <PEOE_RPC->
0.045268875

>  <PEOE_VSA+0>
550.82092

>  <PEOE_VSA+1>
82.078041

>  <PEOE_VSA+2>
31.459604

>  <PEOE_VSA+3>
34.476051

>  <PEOE_VSA+4>
152.76901

>  <PEOE_VSA+5>
0

>  <PEOE_VSA+6>
0

>  <PEOE_VSA-0>
108.45091

>  <PEOE_VSA-1>
286.97729

>  <PEOE_VSA-2>
0

>  <PEOE_VSA-3>
0

>  <PEOE_VSA-4>
0

>  <PEOE_VSA-5>
149.23613

>  <PEOE_VSA-6>
8.3151045

>  <PEOE_VSA_FHYD>
0.77906597

>  <PEOE_VSA_FNEG>
0.39369649

>  <PEOE_VSA_FPNEG>
0.11216939

>  <PEOE_VSA_FPOL>
0.22093406

>  <PEOE_VSA_FPOS>
0.60630351

>  <PEOE_VSA_FPPOS>
0.10876466

>  <PEOE_VSA_HYD>
1094.2628

>  <PEOE_VSA_NEG>
552.97943

>  <PEOE_VSA_PNEG>
157.55124

>  <PEOE_VSA_POL>
310.32025

>  <PEOE_VSA_POS>
851.60364

>  <PEOE_VSA_PPOS>
152.76901

>  <petitjean>
0.29166666

>  <petitjeanSC>
0.41176471

>  <Q_PC+>
0

>  <Q_PC->
0

>  <Q_RPC+>
0

>  <Q_RPC->
0

>  <Q_VSA_FHYD>
1

>  <Q_VSA_FNEG>
0

>  <Q_VSA_FPNEG>
0

>  <Q_VSA_FPOL>
0

>  <Q_VSA_FPOS>
1

>  <Q_VSA_FPPOS>
0

>  <Q_VSA_HYD>
1404.5831

>  <Q_VSA_NEG>
0

>  <Q_VSA_PNEG>
0

>  <Q_VSA_POL>
0

>  <Q_VSA_POS>
1404.5831

>  <Q_VSA_PPOS>
0

>  <radius>
17

>  <reactive>
0

>  <rings>
1

>  <RPC+>
0

>  <RPC->
0

>  <rsynth>
1

>  <SlogP>
3.2690001

>  <SlogP_VSA0>
97.42823

>  <SlogP_VSA1>
79.71682

>  <SlogP_VSA2>
308.77271

>  <SlogP_VSA3>
18.439579

>  <SlogP_VSA4>
30.875572

>  <SlogP_VSA5>
230.28032

>  <SlogP_VSA6>
0

>  <SlogP_VSA7>
35.286369

>  <SlogP_VSA8>
113.21043

>  <SlogP_VSA9>
566.54224

>  <SMR>
32.84446

>  <SMR_VSA0>
262.48438

>  <SMR_VSA1>
47.255424

>  <SMR_VSA2>
102.91858

>  <SMR_VSA3>
46.288338

>  <SMR_VSA4>
0

>  <SMR_VSA5>
148.4968

>  <SMR_VSA6>
76.286194

>  <SMR_VSA7>
796.82257

>  <TPSA>
278.79999

>  <VAdjEq>
0.16082302

>  <VAdjMa>
7.4093909

>  <VDistEq>
4.2990451

>  <VDistMa>
12.612231

>  <vdw_area>
1404.5831

>  <vdw_vol>
1720.6653

>  <vsa_acc>
149.23613

>  <vsa_acid>
0

>  <vsa_base>
0

>  <vsa_don>
22.730305

>  <vsa_hyd>
974.92114

>  <vsa_other>
142.44484

>  <vsa_pol>
185.53336

>  <Weight>
1202.635

>  <weinerPath>
37337

>  <weinerPol>
150

>  <zagreb>
412

$$$$