Clc1c([C@H](Oc2cc(cnc2N)-c2cn(nc2)C2CCNCC2)C)c(Cl)ccc1F
  MOE2013           2D

 30 33  0  0  1  0  0  0  0  0999 V2000
    0.0000    0.0000    0.0000 Cl  0  0  0  0  0  0  0  0  0  0  0  0
   -0.7510    1.2980    0.0000 C   0  0  0  0  0  0  0  0  0  0  0  0
   -0.0030    2.5980    0.0000 C   0  0  0  0  0  0  0  0  0  0  0  0
    1.4970    2.6000    0.0000 C   0  0  2  0  0  0  0  0  0  0  0  0
    2.2460    3.8990    0.0000 O   0  0  0  0  0  0  0  0  0  0  0  0
    3.7460    3.9010    0.0000 C   0  0  0  0  0  0  0  0  0  0  0  0
    4.4970    2.6030    0.0000 C   0  0  0  0  0  0  0  0  0  0  0  0
    5.9970    2.6040    0.0000 C   0  0  0  0  0  0  0  0  0  0  0  0
    6.7460    3.9040    0.0000 C   0  0  0  0  0  0  0  0  0  0  0  0
    5.9950    5.2020    0.0000 N   0  0  0  0  0  0  0  0  0  0  0  0
    4.4950    5.2010    0.0000 C   0  0  0  0  0  0  0  0  0  0  0  0
    3.7430    6.4990    0.0000 N   0  0  0  0  0  0  0  0  0  0  0  0
    6.7490    1.3060    0.0000 C   0  0  0  0  0  0  0  0  0  0  0  0
    8.2410    1.1510    0.0000 C   0  0  0  0  0  0  0  0  0  0  0  0
    8.5540   -0.3160    0.0000 N   0  0  0  0  0  0  0  0  0  0  0  0
    7.2560   -1.0680    0.0000 N   0  0  0  0  0  0  0  0  0  0  0  0
    6.1400   -0.0650    0.0000 C   0  0  0  0  0  0  0  0  0  0  0  0
    9.9250   -0.9250    0.0000 C   0  0  0  0  0  0  0  0  0  0  0  0
   11.1380   -0.0420    0.0000 C   0  0  0  0  0  0  0  0  0  0  0  0
   12.5080   -0.6510    0.0000 C   0  0  0  0  0  0  0  0  0  0  0  0
   12.6670   -2.1420    0.0000 N   0  0  0  0  0  0  0  0  0  0  0  0
   11.4540   -3.0250    0.0000 C   0  0  0  0  0  0  0  0  0  0  0  0
   10.0830   -2.4170    0.0000 C   0  0  0  0  0  0  0  0  0  0  0  0
    2.2490    1.3010    0.0000 C   0  0  0  0  0  0  0  0  0  0  0  0
   -0.7540    3.8960    0.0000 C   0  0  0  0  0  0  0  0  0  0  0  0
   -0.0050    5.1960    0.0000 Cl  0  0  0  0  0  0  0  0  0  0  0  0
   -2.2540    3.8950    0.0000 C   0  0  0  0  0  0  0  0  0  0  0  0
   -3.0030    2.5950    0.0000 C   0  0  0  0  0  0  0  0  0  0  0  0
   -2.2510    1.2970    0.0000 C   0  0  0  0  0  0  0  0  0  0  0  0
   -3.0000   -0.0030    0.0000 F   0  0  0  0  0  0  0  0  0  0  0  0
  1  2  1  0  0  0  0
  2  3  2  0  0  0  0
  2 29  1  0  0  0  0
  3  4  1  0  0  0  0
  3 25  1  0  0  0  0
  4  5  1  0  0  0  0
  4 24  1  6  0  0  0
  5  6  1  0  0  0  0
  6  7  1  0  0  0  0
  6 11  2  0  0  0  0
  7  8  2  0  0  0  0
  8  9  1  0  0  0  0
  8 13  1  0  0  0  0
  9 10  2  0  0  0  0
 10 11  1  0  0  0  0
 11 12  1  0  0  0  0
 13 14  2  0  0  0  0
 13 17  1  0  0  0  0
 14 15  1  0  0  0  0
 15 16  1  0  0  0  0
 15 18  1  0  0  0  0
 16 17  2  0  0  0  0
 18 19  1  0  0  0  0
 18 23  1  0  0  0  0
 19 20  1  0  0  0  0
 20 21  1  0  0  0  0
 21 22  1  0  0  0  0
 22 23  1  0  0  0  0
 25 26  1  0  0  0  0
 25 27  2  0  0  0  0
 27 28  1  0  0  0  0
 28 29  2  0  0  0  0
 29 30  1  0  0  0  0
M  END
>  <Index>
263

>  <ID>
HT0556

>  <class>
0

>  <apol>
62.848446

>  <ast_fraglike>
0

>  <ast_fraglike_ext>
0

>  <ast_violation>
3

>  <ast_violation_ext>
4

>  <a_acc>
4

>  <a_acid>
0

>  <a_aro>
17

>  <a_base>
0

>  <a_count>
52

>  <a_don>
2

>  <a_donacc>
6

>  <a_heavy>
30

>  <a_hyd>
23

>  <a_IC>
92.467064

>  <a_ICM>
1.7782128

>  <a_nB>
0

>  <a_nBr>
0

>  <a_nC>
21

>  <a_nCl>
2

>  <a_nF>
1

>  <a_nH>
22

>  <a_nI>
0

>  <a_nN>
5

>  <a_nO>
1

>  <a_nP>
0

>  <a_nS>
0

>  <balabanJ>
1.3216255

>  <BCUT_PEOE_0>
-2.7390373

>  <BCUT_PEOE_1>
-0.61093748

>  <BCUT_PEOE_2>
0.64994776

>  <BCUT_PEOE_3>
2.6883304

>  <BCUT_SLOGP_0>
-2.7925177

>  <BCUT_SLOGP_1>
-0.41252422

>  <BCUT_SLOGP_2>
0.75173444

>  <BCUT_SLOGP_3>
2.7343163

>  <BCUT_SMR_0>
-2.4787478

>  <BCUT_SMR_1>
-0.36953729

>  <BCUT_SMR_2>
0.78460991

>  <BCUT_SMR_3>
2.9421296

>  <bpol>
31.309553

>  <b_1rotN>
5

>  <b_1rotR>
0.15151516

>  <b_ar>
17

>  <b_count>
55

>  <b_double>
0

>  <b_heavy>
33

>  <b_max1len>
3

>  <b_rotN>
5

>  <b_rotR>
0.15151516

>  <b_single>
38

>  <b_triple>
0

>  <chi0>
21.250347

>  <chi0v>
17.920219

>  <chi0v_C>
12.447229

>  <chi0_C>
13.84457

>  <chi1>
14.435561

>  <chi1v>
10.501468

>  <chi1v_C>
6.286581

>  <chi1_C>
7.751585

>  <chiral>
1

>  <chiral_u>
0

>  <density>
0.82092422

>  <diameter>
15

>  <FCharge>
0

>  <GCUT_PEOE_0>
-0.85603791

>  <GCUT_PEOE_1>
-0.39257714

>  <GCUT_PEOE_2>
0.048801076

>  <GCUT_PEOE_3>
2.6747081

>  <GCUT_SLOGP_0>
-1.3346664

>  <GCUT_SLOGP_1>
-0.2663258

>  <GCUT_SLOGP_2>
0.22554053

>  <GCUT_SLOGP_3>
2.7861943

>  <GCUT_SMR_0>
-0.51790714

>  <GCUT_SMR_1>
-0.17614315

>  <GCUT_SMR_2>
0.22805916

>  <GCUT_SMR_3>
2.945296

>  <Kier1>
23.168043

>  <Kier2>
10.29244

>  <Kier3>
5.3333335

>  <KierA1>
19.479523

>  <KierA2>
8.5993671

>  <KierA3>
4.436142

>  <KierFlex>
5.5837188

>  <lip_acc>
6

>  <lip_don>
3

>  <lip_druglike>
1

>  <lip_violation>
1

>  <logP(o/w)>
4.1750002

>  <logS>
-5.1436801

>  <mr>
11.7019

>  <mutagenic>
1

>  <nmol>
1

>  <opr_brigid>
23

>  <opr_leadlike>
0

>  <opr_nring>
4

>  <opr_nrot>
7

>  <opr_violation>
2

>  <PC+>
0

>  <PC->
0

>  <PEOE_PC+>
2.1460598

>  <PEOE_PC->
-2.1460598

>  <PEOE_RPC+>
0.066193171

>  <PEOE_RPC->
0.15559939

>  <PEOE_VSA+0>
91.556442

>  <PEOE_VSA+1>
63.43964

>  <PEOE_VSA+2>
54.526966

>  <PEOE_VSA+3>
0

>  <PEOE_VSA+4>
0

>  <PEOE_VSA+5>
0

>  <PEOE_VSA+6>
0

>  <PEOE_VSA-0>
99.299667

>  <PEOE_VSA-1>
59.163895

>  <PEOE_VSA-2>
0

>  <PEOE_VSA-3>
9.4210396

>  <PEOE_VSA-4>
17.591211

>  <PEOE_VSA-5>
6.6511192

>  <PEOE_VSA-6>
2.6406472

>  <PEOE_VSA_FHYD>
0.93350583

>  <PEOE_VSA_FNEG>
0.48175141

>  <PEOE_VSA_FPNEG>
0.066494189

>  <PEOE_VSA_FPOL>
0.066494189

>  <PEOE_VSA_FPOS>
0.51824862

>  <PEOE_VSA_FPPOS>
0

>  <PEOE_VSA_HYD>
377.40765

>  <PEOE_VSA_NEG>
194.76758

>  <PEOE_VSA_PNEG>
26.882978

>  <PEOE_VSA_POL>
26.882978

>  <PEOE_VSA_POS>
209.52304

>  <PEOE_VSA_PPOS>
0

>  <petitjean>
0.46666667

>  <petitjeanSC>
0.875

>  <Q_PC+>
0

>  <Q_PC->
0

>  <Q_RPC+>
0

>  <Q_RPC->
0

>  <Q_VSA_FHYD>
1

>  <Q_VSA_FNEG>
0

>  <Q_VSA_FPNEG>
0

>  <Q_VSA_FPOL>
0

>  <Q_VSA_FPOS>
1

>  <Q_VSA_FPPOS>
0

>  <Q_VSA_HYD>
404.29062

>  <Q_VSA_NEG>
0

>  <Q_VSA_PNEG>
0

>  <Q_VSA_POL>
0

>  <Q_VSA_POS>
404.29062

>  <Q_VSA_PPOS>
0

>  <radius>
8

>  <reactive>
0

>  <rings>
4

>  <RPC+>
0

>  <RPC->
0

>  <rsynth>
0.63333333

>  <SlogP>
5.2287002

>  <SlogP_VSA0>
61.907825

>  <SlogP_VSA1>
35.225109

>  <SlogP_VSA2>
9.1210184

>  <SlogP_VSA3>
36.879158

>  <SlogP_VSA4>
3.185575

>  <SlogP_VSA5>
0

>  <SlogP_VSA6>
7.0012131

>  <SlogP_VSA7>
110.94377

>  <SlogP_VSA8>
48.187428

>  <SlogP_VSA9>
134.15477

>  <SMR>
11.66961

>  <SMR_VSA0>
0

>  <SMR_VSA1>
61.185108

>  <SMR_VSA2>
27.131769

>  <SMR_VSA3>
25.880835

>  <SMR_VSA4>
8.69907

>  <SMR_VSA5>
175.20662

>  <SMR_VSA6>
36.879158

>  <SMR_VSA7>
111.62331

>  <TPSA>
77.989998

>  <VAdjEq>
0.37824166

>  <VAdjMa>
6.044394

>  <VDistEq>
3.6977582

>  <VDistMa>
9.5103731

>  <vdw_area>
404.29062

>  <vdw_vol>
548.58289

>  <vsa_acc>
17.607372

>  <vsa_acid>
0

>  <vsa_base>
0

>  <vsa_don>
17.742489

>  <vsa_hyd>
329.32352

>  <vsa_other>
11.190562

>  <vsa_pol>
41.032436

>  <Weight>
450.345

>  <weinerPath>
2633

>  <weinerPol>
49

>  <zagreb>
160

$$$$