Clc1ccc(cc1)CN(CCN(C)C)c1ncccc1
  MOE2013           2D

 20 21  0  0  1  0  0  0  0  0999 V2000
    0.0000    0.0000    0.0000 Cl  0  0  0  0  0  0  0  0  0  0  0  0
   -1.5000   -0.0020    0.0000 C   0  0  0  0  0  0  0  0  0  0  0  0
   -2.2510    1.2960    0.0000 C   0  0  0  0  0  0  0  0  0  0  0  0
   -3.7510    1.2950    0.0000 C   0  0  0  0  0  0  0  0  0  0  0  0
   -4.5000   -0.0050    0.0000 C   0  0  0  0  0  0  0  0  0  0  0  0
   -3.7490   -1.3030    0.0000 C   0  0  0  0  0  0  0  0  0  0  0  0
   -2.2490   -1.3020    0.0000 C   0  0  0  0  0  0  0  0  0  0  0  0
   -6.0000   -0.0070    0.0000 C   0  0  0  0  0  0  0  0  0  0  0  0
   -6.7490   -1.3070    0.0000 N   0  0  3  0  0  0  0  0  0  0  0  0
   -5.9970   -2.6050    0.0000 C   0  0  0  0  0  0  0  0  0  0  0  0
   -6.7460   -3.9050    0.0000 C   0  0  0  0  0  0  0  0  0  0  0  0
   -5.9940   -5.2030    0.0000 N   0  0  0  0  0  0  0  0  0  0  0  0
   -6.7430   -6.5030    0.0000 C   0  0  0  0  0  0  0  0  0  0  0  0
   -4.4940   -5.2010    0.0000 C   0  0  0  0  0  0  0  0  0  0  0  0
   -8.2490   -1.3080    0.0000 C   0  0  0  0  0  0  0  0  0  0  0  0
   -9.0000   -0.0100    0.0000 N   0  0  0  0  0  0  0  0  0  0  0  0
  -10.5000   -0.0120    0.0000 C   0  0  0  0  0  0  0  0  0  0  0  0
  -11.2490   -1.3120    0.0000 C   0  0  0  0  0  0  0  0  0  0  0  0
  -10.4970   -2.6100    0.0000 C   0  0  0  0  0  0  0  0  0  0  0  0
   -8.9970   -2.6080    0.0000 C   0  0  0  0  0  0  0  0  0  0  0  0
  1  2  1  0  0  0  0
  2  3  1  0  0  0  0
  2  7  2  0  0  0  0
  3  4  2  0  0  0  0
  4  5  1  0  0  0  0
  5  6  2  0  0  0  0
  5  8  1  0  0  0  0
  6  7  1  0  0  0  0
  8  9  1  0  0  0  0
  9 10  1  0  0  0  0
  9 15  1  0  0  0  0
 10 11  1  0  0  0  0
 11 12  1  0  0  0  0
 12 13  1  0  0  0  0
 12 14  1  0  0  0  0
 15 16  1  0  0  0  0
 15 20  2  0  0  0  0
 16 17  2  0  0  0  0
 17 18  1  0  0  0  0
 18 19  2  0  0  0  0
 19 20  1  0  0  0  0
M  END
>  <Index>
218

>  <ID>
HT0458

>  <class>
0

>  <apol>
46.975861

>  <ast_fraglike>
0

>  <ast_fraglike_ext>
0

>  <ast_violation>
1

>  <ast_violation_ext>
2

>  <a_acc>
2

>  <a_acid>
0

>  <a_aro>
12

>  <a_base>
0

>  <a_count>
40

>  <a_don>
0

>  <a_donacc>
2

>  <a_heavy>
20

>  <a_hyd>
16

>  <a_IC>
57.683674

>  <a_ICM>
1.4420918

>  <a_nB>
0

>  <a_nBr>
0

>  <a_nC>
16

>  <a_nCl>
1

>  <a_nF>
0

>  <a_nH>
20

>  <a_nI>
0

>  <a_nN>
3

>  <a_nO>
0

>  <a_nP>
0

>  <a_nS>
0

>  <balabanJ>
1.8431908

>  <BCUT_PEOE_0>
-2.6442893

>  <BCUT_PEOE_1>
-0.54304206

>  <BCUT_PEOE_2>
0.56804353

>  <BCUT_PEOE_3>
2.5430775

>  <BCUT_SLOGP_0>
-2.7396636

>  <BCUT_SLOGP_1>
-0.43911594

>  <BCUT_SLOGP_2>
0.73078102

>  <BCUT_SLOGP_3>
2.5254905

>  <BCUT_SMR_0>
-2.3514457

>  <BCUT_SMR_1>
-0.3661575

>  <BCUT_SMR_2>
0.78750604

>  <BCUT_SMR_3>
2.8321898

>  <bpol>
27.56414

>  <b_1rotN>
6

>  <b_1rotR>
0.2857143

>  <b_ar>
12

>  <b_count>
41

>  <b_double>
0

>  <b_heavy>
21

>  <b_max1len>
7

>  <b_rotN>
6

>  <b_rotR>
0.2857143

>  <b_single>
29

>  <b_triple>
0

>  <chi0>
14.372033

>  <chi0v>
12.715656

>  <chi0v_C>
10.240123

>  <chi0_C>
11.510225

>  <chi1>
9.6478672

>  <chi1v>
7.0790653

>  <chi1v_C>
3.9635956

>  <chi1_C>
5.4494896

>  <chiral>
0

>  <chiral_u>
0

>  <density>
0.70914388

>  <diameter>
10

>  <FCharge>
0

>  <GCUT_PEOE_0>
-0.86105102

>  <GCUT_PEOE_1>
-0.36711985

>  <GCUT_PEOE_2>
0.017597429

>  <GCUT_PEOE_3>
2.5424519

>  <GCUT_SLOGP_0>
-0.96784526

>  <GCUT_SLOGP_1>
-0.26386139

>  <GCUT_SLOGP_2>
0.14643554

>  <GCUT_SLOGP_3>
2.6196485

>  <GCUT_SMR_0>
-0.51516879

>  <GCUT_SMR_1>
-0.18128532

>  <GCUT_SMR_2>
0.16999185

>  <GCUT_SMR_3>
2.8232982

>  <Kier1>
16.371881

>  <Kier2>
8.4444447

>  <Kier3>
5.7315297

>  <KierA1>
13.253436

>  <KierA2>
6.7545676

>  <KierA3>
4.544477

>  <KierFlex>
4.4760613

>  <lip_acc>
3

>  <lip_don>
0

>  <lip_druglike>
1

>  <lip_violation>
0

>  <logP(o/w)>
3.2509999

>  <logS>
-2.7654901

>  <mr>
8.4894609

>  <mutagenic>
0

>  <nmol>
1

>  <opr_brigid>
12

>  <opr_leadlike>
1

>  <opr_nring>
2

>  <opr_nrot>
6

>  <opr_violation>
0

>  <PC+>
0

>  <PC->
0

>  <PEOE_PC+>
1.270125

>  <PEOE_PC->
-1.270125

>  <PEOE_RPC+>
0.086259149

>  <PEOE_RPC->
0.2418061

>  <PEOE_VSA+0>
112.02727

>  <PEOE_VSA+1>
34.123089

>  <PEOE_VSA+2>
11.190562

>  <PEOE_VSA+3>
0

>  <PEOE_VSA+4>
0

>  <PEOE_VSA+5>
0

>  <PEOE_VSA+6>
0

>  <PEOE_VSA-0>
97.705536

>  <PEOE_VSA-1>
66.346657

>  <PEOE_VSA-2>
0

>  <PEOE_VSA-3>
0

>  <PEOE_VSA-4>
5.6825762

>  <PEOE_VSA-5>
0

>  <PEOE_VSA-6>
0

>  <PEOE_VSA_FHYD>
0.98262614

>  <PEOE_VSA_FNEG>
0.51894647

>  <PEOE_VSA_FPNEG>
0.017373888

>  <PEOE_VSA_FPOL>
0.017373888

>  <PEOE_VSA_FPOS>
0.48105353

>  <PEOE_VSA_FPPOS>
0

>  <PEOE_VSA_HYD>
321.3931

>  <PEOE_VSA_NEG>
169.73477

>  <PEOE_VSA_PNEG>
5.6825762

>  <PEOE_VSA_POL>
5.6825762

>  <PEOE_VSA_POS>
157.34091

>  <PEOE_VSA_PPOS>
0

>  <petitjean>
0.5

>  <petitjeanSC>
1

>  <Q_PC+>
0

>  <Q_PC->
0

>  <Q_RPC+>
0

>  <Q_RPC->
0

>  <Q_VSA_FHYD>
1

>  <Q_VSA_FNEG>
0

>  <Q_VSA_FPNEG>
0

>  <Q_VSA_FPOL>
0

>  <Q_VSA_FPOS>
1

>  <Q_VSA_FPPOS>
0

>  <Q_VSA_HYD>
327.07568

>  <Q_VSA_NEG>
0

>  <Q_VSA_PNEG>
0

>  <Q_VSA_POL>
0

>  <Q_VSA_POS>
327.07568

>  <Q_VSA_PPOS>
0

>  <radius>
5

>  <reactive>
0

>  <rings>
2

>  <RPC+>
0

>  <RPC->
0

>  <rsynth>
1

>  <SlogP>
3.5696001

>  <SlogP_VSA0>
3.1243138

>  <SlogP_VSA1>
19.909843

>  <SlogP_VSA2>
0

>  <SlogP_VSA3>
36.879158

>  <SlogP_VSA4>
3.185575

>  <SlogP_VSA5>
65.794373

>  <SlogP_VSA6>
3.5006065

>  <SlogP_VSA7>
140.71664

>  <SlogP_VSA8>
0

>  <SlogP_VSA9>
59.916142

>  <SMR>
8.5497999

>  <SMR_VSA0>
0

>  <SMR_VSA1>
19.909843

>  <SMR_VSA2>
3.1243138

>  <SMR_VSA3>
6.6861815

>  <SMR_VSA4>
2.3279202

>  <SMR_VSA5>
159.15622

>  <SMR_VSA6>
36.879158

>  <SMR_VSA7>
104.94302

>  <TPSA>
19.370001

>  <VAdjEq>
0.48464775

>  <VAdjMa>
5.3923173

>  <VDistEq>
3.1556847

>  <VDistMa>
8.3592148

>  <vdw_area>
327.07568

>  <vdw_vol>
408.67587

>  <vsa_acc>
5.6825762

>  <vsa_acid>
0

>  <vsa_base>
0

>  <vsa_don>
0

>  <vsa_hyd>
295.96664

>  <vsa_other>
11.190562

>  <vsa_pol>
5.6825762

>  <Weight>
289.81

>  <weinerPath>
863

>  <weinerPol>
25

>  <zagreb>
96

$$$$