O1c2c(OC1)cc1N(N=C(C(O)=O)C(=O)c1c2)CC
  MOE2013           2D

 19 21  0  0  1  0  0  0  0  0999 V2000
    0.0000    0.0000    0.0000 O   0  0  0  0  0  0  0  0  0  0  0  0
   -1.3750    0.5990    0.0000 C   0  0  0  0  0  0  0  0  0  0  0  0
   -1.2310    2.0920    0.0000 C   0  0  0  0  0  0  0  0  0  0  0  0
    0.2340    2.4160    0.0000 O   0  0  0  0  0  0  0  0  0  0  0  0
    0.9950    1.1230    0.0000 C   0  0  0  0  0  0  0  0  0  0  0  0
   -2.4510    2.9640    0.0000 C   0  0  0  0  0  0  0  0  0  0  0  0
   -3.8170    2.3420    0.0000 C   0  0  0  0  0  0  0  0  0  0  0  0
   -5.0370    3.2140    0.0000 N   0  0  3  0  0  0  0  0  0  0  0  0
   -6.4030    2.5930    0.0000 N   0  0  0  0  0  0  0  0  0  0  0  0
   -6.5470    1.1000    0.0000 C   0  0  0  0  0  0  0  0  0  0  0  0
   -7.9120    0.4790    0.0000 C   0  0  0  0  0  0  0  0  0  0  0  0
   -8.0570   -1.0140    0.0000 O   0  0  0  0  0  0  0  0  0  0  0  0
   -9.1330    1.3500    0.0000 O   0  0  0  0  0  0  0  0  0  0  0  0
   -5.3270    0.2280    0.0000 C   0  0  0  0  0  0  0  0  0  0  0  0
   -5.4710   -1.2650    0.0000 O   0  0  0  0  0  0  0  0  0  0  0  0
   -3.9610    0.8490    0.0000 C   0  0  0  0  0  0  0  0  0  0  0  0
   -2.7410   -0.0220    0.0000 C   0  0  0  0  0  0  0  0  0  0  0  0
   -4.8930    4.7070    0.0000 C   0  0  0  0  0  0  0  0  0  0  0  0
   -6.1130    5.5790    0.0000 C   0  0  0  0  0  0  0  0  0  0  0  0
  1  2  1  0  0  0  0
  1  5  1  0  0  0  0
  2  3  1  0  0  0  0
  2 17  2  0  0  0  0
  3  4  1  0  0  0  0
  3  6  2  0  0  0  0
  4  5  1  0  0  0  0
  6  7  1  0  0  0  0
  7  8  1  0  0  0  0
  7 16  2  0  0  0  0
  8  9  1  0  0  0  0
  8 18  1  0  0  0  0
  9 10  2  0  0  0  0
 10 11  1  0  0  0  0
 10 14  1  0  0  0  0
 11 12  1  0  0  0  0
 11 13  2  0  0  0  0
 14 15  2  0  0  0  0
 14 16  1  0  0  0  0
 16 17  1  0  0  0  0
 18 19  1  0  0  0  0
M  END
>  <Index>
234

>  <ID>
HT0495

>  <class>
0

>  <apol>
33.997929

>  <ast_fraglike>
0

>  <ast_fraglike_ext>
0

>  <ast_violation>
1

>  <ast_violation_ext>
1

>  <a_acc>
6

>  <a_acid>
0

>  <a_aro>
6

>  <a_base>
0

>  <a_count>
29

>  <a_don>
2

>  <a_donacc>
8

>  <a_heavy>
19

>  <a_hyd>
8

>  <a_IC>
51.032978

>  <a_ICM>
1.7597579

>  <a_nB>
0

>  <a_nBr>
0

>  <a_nC>
12

>  <a_nCl>
0

>  <a_nF>
0

>  <a_nH>
10

>  <a_nI>
0

>  <a_nN>
2

>  <a_nO>
5

>  <a_nP>
0

>  <a_nS>
0

>  <balabanJ>
1.8135222

>  <BCUT_PEOE_0>
-2.4683857

>  <BCUT_PEOE_1>
-0.55852491

>  <BCUT_PEOE_2>
0.56258357

>  <BCUT_PEOE_3>
2.4593332

>  <BCUT_SLOGP_0>
-2.5223832

>  <BCUT_SLOGP_1>
-0.54345036

>  <BCUT_SLOGP_2>
0.62299436

>  <BCUT_SLOGP_3>
2.5203588

>  <BCUT_SMR_0>
-2.1916583

>  <BCUT_SMR_1>
-0.34641621

>  <BCUT_SMR_2>
0.77303195

>  <BCUT_SMR_3>
2.7539885

>  <bpol>
18.66007

>  <b_1rotN>
2

>  <b_1rotR>
0.095238097

>  <b_ar>
6

>  <b_count>
31

>  <b_double>
3

>  <b_heavy>
21

>  <b_max1len>
3

>  <b_rotN>
2

>  <b_rotR>
0.095238097

>  <b_single>
22

>  <b_triple>
0

>  <chi0>
13.568549

>  <chi0v>
10.043548

>  <chi0v_C>
7.0689139

>  <chi0_C>
7.8698792

>  <chi1>
9.1133919

>  <chi1v>
5.6927023

>  <chi1v_C>
3.1118073

>  <chi1_C>
4.0067668

>  <chiral>
0

>  <chiral_u>
0

>  <density>
0.85581756

>  <diameter>
8

>  <FCharge>
0

>  <GCUT_PEOE_0>
-0.79416156

>  <GCUT_PEOE_1>
-0.46678895

>  <GCUT_PEOE_2>
0.033289567

>  <GCUT_PEOE_3>
2.4463141

>  <GCUT_SLOGP_0>
-0.95372665

>  <GCUT_SLOGP_1>
-0.42187533

>  <GCUT_SLOGP_2>
0.11615614

>  <GCUT_SLOGP_3>
2.5156169

>  <GCUT_SMR_0>
-0.5075351

>  <GCUT_SMR_1>
-0.22173522

>  <GCUT_SMR_2>
0.20775612

>  <GCUT_SMR_3>
2.7321799

>  <Kier1>
13.959184

>  <Kier2>
5.4131112

>  <Kier3>
2.3801653

>  <KierA1>
10.143097

>  <KierA2>
3.8572199

>  <KierA3>
1.6702445

>  <KierFlex>
2.0591662

>  <lip_acc>
7

>  <lip_don>
1

>  <lip_druglike>
1

>  <lip_violation>
0

>  <logP(o/w)>
1.428

>  <logS>
-2.3452899

>  <mr>
6.3324008

>  <mutagenic>
0

>  <nmol>
1

>  <opr_brigid>
15

>  <opr_leadlike>
1

>  <opr_nring>
3

>  <opr_nrot>
2

>  <opr_violation>
0

>  <PC+>
0

>  <PC->
0

>  <PEOE_PC+>
1.9244176

>  <PEOE_PC->
-1.9244176

>  <PEOE_RPC+>
0.16357489

>  <PEOE_RPC->
0.16951545

>  <PEOE_VSA+0>
36.727795

>  <PEOE_VSA+1>
23.761095

>  <PEOE_VSA+2>
16.917038

>  <PEOE_VSA+3>
27.900824

>  <PEOE_VSA+4>
18.782692

>  <PEOE_VSA+5>
0

>  <PEOE_VSA+6>
14.708499

>  <PEOE_VSA-0>
24.509808

>  <PEOE_VSA-1>
18.747677

>  <PEOE_VSA-2>
0

>  <PEOE_VSA-3>
9.4210396

>  <PEOE_VSA-4>
0

>  <PEOE_VSA-5>
27.133842

>  <PEOE_VSA-6>
12.775052

>  <PEOE_VSA_FHYD>
0.68277991

>  <PEOE_VSA_FNEG>
0.4001438

>  <PEOE_VSA_FPNEG>
0.17247804

>  <PEOE_VSA_FPOL>
0.31722009

>  <PEOE_VSA_FPOS>
0.5998562

>  <PEOE_VSA_FPPOS>
0.14474204

>  <PEOE_VSA_HYD>
157.98528

>  <PEOE_VSA_NEG>
92.587418

>  <PEOE_VSA_PNEG>
39.908894

>  <PEOE_VSA_POL>
73.400085

>  <PEOE_VSA_POS>
138.79794

>  <PEOE_VSA_PPOS>
33.491192

>  <petitjean>
0.5

>  <petitjeanSC>
1

>  <Q_PC+>
0

>  <Q_PC->
0

>  <Q_RPC+>
0

>  <Q_RPC->
0

>  <Q_VSA_FHYD>
1

>  <Q_VSA_FNEG>
0

>  <Q_VSA_FPNEG>
0

>  <Q_VSA_FPOL>
0

>  <Q_VSA_FPOS>
1

>  <Q_VSA_FPPOS>
0

>  <Q_VSA_HYD>
231.38536

>  <Q_VSA_NEG>
0

>  <Q_VSA_PNEG>
0

>  <Q_VSA_POL>
0

>  <Q_VSA_POS>
231.38536

>  <Q_VSA_PPOS>
0

>  <radius>
4

>  <reactive>
0

>  <rings>
3

>  <RPC+>
0

>  <RPC->
0

>  <rsynth>
0.15789473

>  <SlogP>
0.87849998

>  <SlogP_VSA0>
25.001568

>  <SlogP_VSA1>
16.189823

>  <SlogP_VSA2>
23.862217

>  <SlogP_VSA3>
66.808914

>  <SlogP_VSA4>
27.047791

>  <SlogP_VSA5>
16.663008

>  <SlogP_VSA6>
0

>  <SlogP_VSA7>
35.286369

>  <SlogP_VSA8>
0

>  <SlogP_VSA9>
46.569618

>  <SMR>
6.49863

>  <SMR_VSA0>
47.724434

>  <SMR_VSA1>
38.662785

>  <SMR_VSA2>
28.387018

>  <SMR_VSA3>
13.672431

>  <SMR_VSA4>
2.7567475

>  <SMR_VSA5>
35.286369

>  <SMR_VSA6>
57.613514

>  <SMR_VSA7>
33.326015

>  <TPSA>
88.43

>  <VAdjEq>
0.51875818

>  <VAdjMa>
5.3923173

>  <VDistEq>
2.8079257

>  <VDistMa>
8.2348337

>  <vdw_area>
231.38536

>  <vdw_vol>
306.39825

>  <vsa_acc>
27.995472

>  <vsa_acid>
0

>  <vsa_base>
0

>  <vsa_don>
0

>  <vsa_hyd>
107.15008

>  <vsa_other>
58.175026

>  <vsa_pol>
55.129314

>  <Weight>
262.22101

>  <weinerPath>
629

>  <weinerPol>
33

>  <zagreb>
104

$$$$