O=C1CC[C@H]2[C@H]3[C@H](CC[C@]12C)[C@@]1(C(C[C@@H](O)CC1)=CC3)C
  MOE2013           2D

 21 24  0  0  1  0  0  0  0  0999 V2000
    0.0000    0.0000    0.0000 O   0  0  0  0  0  0  0  0  0  0  0  0
    1.1740    0.9340    0.0000 C   0  0  0  0  0  0  0  0  0  0  0  0
    1.1090    2.4320    0.0000 C   0  0  0  0  0  0  0  0  0  0  0  0
    2.5140    2.9570    0.0000 C   0  0  0  0  0  0  0  0  0  0  0  0
    3.4480    1.7830    0.0000 C   0  0  1  0  0  0  0  0  0  0  0  0
    4.9450    1.6910    0.0000 C   0  0  1  0  0  0  0  0  0  0  0  0
    5.6140    0.3490    0.0000 C   0  0  2  0  0  0  0  0  0  0  0  0
    4.7860   -0.9020    0.0000 C   0  0  0  0  0  0  0  0  0  0  0  0
    3.2880   -0.8100    0.0000 C   0  0  0  0  0  0  0  0  0  0  0  0
    2.6190    0.5320    0.0000 C   0  0  2  0  0  0  0  0  0  0  0  0
    1.6850   -0.6410    0.0000 C   0  0  0  0  0  0  0  0  0  0  0  0
    7.1110    0.2570    0.0000 C   0  0  2  0  0  0  0  0  0  0  0  0
    7.9390    1.5070    0.0000 C   0  0  0  0  0  0  0  0  0  0  0  0
    9.4360    1.4160    0.0000 C   0  0  0  0  0  0  0  0  0  0  0  0
   10.1050    0.0730    0.0000 C   0  0  1  0  0  0  0  0  0  0  0  0
   11.6030   -0.0190    0.0000 O   0  0  0  0  0  0  0  0  0  0  0  0
    9.2770   -1.1780    0.0000 C   0  0  0  0  0  0  0  0  0  0  0  0
    7.7800   -1.0860    0.0000 C   0  0  0  0  0  0  0  0  0  0  0  0
    7.2700    2.8500    0.0000 C   0  0  0  0  0  0  0  0  0  0  0  0
    5.7730    2.9420    0.0000 C   0  0  0  0  0  0  0  0  0  0  0  0
    6.2830   -0.9940    0.0000 C   0  0  0  0  0  0  0  0  0  0  0  0
  1  2  2  0  0  0  0
  2  3  1  0  0  0  0
  2 10  1  0  0  0  0
  3  4  1  0  0  0  0
  5  4  1  1  0  0  0
  5  6  1  0  0  0  0
  5 10  1  0  0  0  0
  6  7  1  0  0  0  0
  6 20  1  6  0  0  0
  7  8  1  1  0  0  0
  7 12  1  0  0  0  0
  8  9  1  0  0  0  0
  9 10  1  0  0  0  0
 10 11  1  1  0  0  0
 12 13  1  0  0  0  0
 12 18  1  0  0  0  0
 12 21  1  1  0  0  0
 13 14  1  0  0  0  0
 13 19  2  0  0  0  0
 14 15  1  0  0  0  0
 15 16  1  1  0  0  0
 15 17  1  0  0  0  0
 17 18  1  0  0  0  0
 19 20  1  0  0  0  0
M  END
>  <Index>
291

>  <ID>
HT0603

>  <class>
0

>  <apol>
53.714203

>  <ast_fraglike>
0

>  <ast_fraglike_ext>
0

>  <ast_violation>
1

>  <ast_violation_ext>
1

>  <a_acc>
2

>  <a_acid>
0

>  <a_aro>
0

>  <a_base>
0

>  <a_count>
49

>  <a_don>
1

>  <a_donacc>
3

>  <a_heavy>
21

>  <a_hyd>
18

>  <a_IC>
57.804222

>  <a_ICM>
1.179678

>  <a_nB>
0

>  <a_nBr>
0

>  <a_nC>
19

>  <a_nCl>
0

>  <a_nF>
0

>  <a_nH>
28

>  <a_nI>
0

>  <a_nN>
0

>  <a_nO>
2

>  <a_nP>
0

>  <a_nS>
0

>  <balabanJ>
1.625061

>  <BCUT_PEOE_0>
-2.9322467

>  <BCUT_PEOE_1>
-0.48765838

>  <BCUT_PEOE_2>
0.50632548

>  <BCUT_PEOE_3>
2.9349616

>  <BCUT_SLOGP_0>
-2.853092

>  <BCUT_SLOGP_1>
-0.42323756

>  <BCUT_SLOGP_2>
0.49314314

>  <BCUT_SLOGP_3>
3.0099018

>  <BCUT_SMR_0>
-2.676743

>  <BCUT_SMR_1>
-0.37432647

>  <BCUT_SMR_2>
0.64277011

>  <BCUT_SMR_3>
3.1904864

>  <bpol>
31.567797

>  <b_1rotN>
0

>  <b_1rotR>
0

>  <b_ar>
0

>  <b_count>
52

>  <b_double>
2

>  <b_heavy>
24

>  <b_max1len>
3

>  <b_rotN>
0

>  <b_rotR>
0

>  <b_single>
50

>  <b_triple>
0

>  <chi0>
14.828063

>  <chi0v>
13.399068

>  <chi0v_C>
12.543606

>  <chi0_C>
12.828063

>  <chi1>
9.9491606

>  <chi1v>
8.8587189

>  <chi1v_C>
8.3963957

>  <chi1_C>
8.7944603

>  <chiral>
6

>  <chiral_u>
0

>  <density>
0.67664641

>  <diameter>
10

>  <FCharge>
0

>  <GCUT_PEOE_0>
-0.80188233

>  <GCUT_PEOE_1>
-0.34730268

>  <GCUT_PEOE_2>
0.023631958

>  <GCUT_PEOE_3>
3.236203

>  <GCUT_SLOGP_0>
-0.87574494

>  <GCUT_SLOGP_1>
-0.29063931

>  <GCUT_SLOGP_2>
0.0095707364

>  <GCUT_SLOGP_3>
3.3229516

>  <GCUT_SMR_0>
-0.53886265

>  <GCUT_SMR_1>
-0.21680239

>  <GCUT_SMR_2>
0.12952414

>  <GCUT_SMR_3>
3.4658368

>  <Kier1>
14.583333

>  <Kier2>
4.7468772

>  <Kier3>
1.9262782

>  <KierA1>
13.410684

>  <KierA2>
4.3459916

>  <KierA3>
1.7576534

>  <KierFlex>
2.7753675

>  <lip_acc>
2

>  <lip_don>
1

>  <lip_druglike>
1

>  <lip_violation>
0

>  <logP(o/w)>
2.3629999

>  <logS>
-3.51092

>  <mr>
8.3140745

>  <mutagenic>
0

>  <nmol>
1

>  <opr_brigid>
20

>  <opr_leadlike>
1

>  <opr_nring>
4

>  <opr_nrot>
0

>  <opr_violation>
0

>  <PC+>
0

>  <PC->
0

>  <PEOE_PC+>
1.2711626

>  <PEOE_PC->
-1.2711626

>  <PEOE_RPC+>
0.16503716

>  <PEOE_RPC->
0.30796522

>  <PEOE_VSA+0>
115.33596

>  <PEOE_VSA+1>
13.4357

>  <PEOE_VSA+2>
8.458519

>  <PEOE_VSA+3>
0

>  <PEOE_VSA+4>
10.324173

>  <PEOE_VSA+5>
0

>  <PEOE_VSA+6>
0

>  <PEOE_VSA-0>
60.909191

>  <PEOE_VSA-1>
51.958797

>  <PEOE_VSA-2>
0

>  <PEOE_VSA-3>
0

>  <PEOE_VSA-4>
0

>  <PEOE_VSA-5>
13.566921

>  <PEOE_VSA-6>
7.7675405

>  <PEOE_VSA_FHYD>
0.88763845

>  <PEOE_VSA_FNEG>
0.47630599

>  <PEOE_VSA_FPNEG>
0.075719416

>  <PEOE_VSA_FPOL>
0.11236156

>  <PEOE_VSA_FPOS>
0.52369404

>  <PEOE_VSA_FPPOS>
0.036642142

>  <PEOE_VSA_HYD>
250.09818

>  <PEOE_VSA_NEG>
134.20245

>  <PEOE_VSA_PNEG>
21.334461

>  <PEOE_VSA_POL>
31.658634

>  <PEOE_VSA_POS>
147.55435

>  <PEOE_VSA_PPOS>
10.324173

>  <petitjean>
0.5

>  <petitjeanSC>
1

>  <Q_PC+>
0

>  <Q_PC->
0

>  <Q_RPC+>
0

>  <Q_RPC->
0

>  <Q_VSA_FHYD>
1

>  <Q_VSA_FNEG>
0

>  <Q_VSA_FPNEG>
0

>  <Q_VSA_FPOL>
0

>  <Q_VSA_FPOS>
1

>  <Q_VSA_FPPOS>
0

>  <Q_VSA_HYD>
281.75681

>  <Q_VSA_NEG>
0

>  <Q_VSA_PNEG>
0

>  <Q_VSA_POL>
0

>  <Q_VSA_POS>
281.75681

>  <Q_VSA_PPOS>
0

>  <radius>
5

>  <reactive>
1

>  <rings>
4

>  <RPC+>
0

>  <RPC->
0

>  <rsynth>
1

>  <SlogP>
3.8792

>  <SlogP_VSA0>
25.385227

>  <SlogP_VSA1>
5.6876111

>  <SlogP_VSA2>
30.330866

>  <SlogP_VSA3>
0

>  <SlogP_VSA4>
13.232388

>  <SlogP_VSA5>
3.185575

>  <SlogP_VSA6>
0

>  <SlogP_VSA7>
17.643185

>  <SlogP_VSA8>
150.94725

>  <SlogP_VSA9>
66.652031

>  <SMR>
8.2716799

>  <SMR_VSA0>
23.862217

>  <SMR_VSA1>
25.385227

>  <SMR_VSA2>
13.232388

>  <SMR_VSA3>
9.6542244

>  <SMR_VSA4>
0

>  <SMR_VSA5>
168.59042

>  <SMR_VSA6>
5.6876111

>  <SMR_VSA7>
66.652031

>  <TPSA>
37.299999

>  <VAdjEq>
0.49641782

>  <VAdjMa>
5.5849624

>  <VDistEq>
2.9431849

>  <VDistMa>
8.50912

>  <vdw_area>
281.75681

>  <vdw_vol>
426.26547

>  <vsa_acc>
13.566921

>  <vsa_acid>
0

>  <vsa_base>
0

>  <vsa_don>
0

>  <vsa_hyd>
218.38603

>  <vsa_other>
8.458519

>  <vsa_pol>
27.133842

>  <Weight>
288.431

>  <weinerPath>
802

>  <weinerPol>
44

>  <zagreb>
126

$$$$