O(C)C1=CC=C2c3c(cc(OC)c(OC)c3OC)CC[C@H](NC(=O)C)C2=CC1=O
  MOE2013           2D

 29 31  0  0  1  0  0  0  0  0999 V2000
    0.0000    0.0000    0.0000 O   0  0  0  0  0  0  0  0  0  0  0  0
   -0.7490    1.3000    0.0000 C   0  0  0  0  0  0  0  0  0  0  0  0
   -0.7510   -1.2990    0.0000 C   0  0  0  0  0  0  0  0  0  0  0  0
   -2.2470   -1.1860    0.0000 C   0  0  0  0  0  0  0  0  0  0  0  0
   -3.2670   -2.2860    0.0000 C   0  0  0  0  0  0  0  0  0  0  0  0
   -3.0450   -3.7690    0.0000 C   0  0  0  0  0  0  0  0  0  0  0  0
   -4.4420   -4.3170    0.0000 C   0  0  0  0  0  0  0  0  0  0  0  0
   -4.8850   -5.7500    0.0000 C   0  0  0  0  0  0  0  0  0  0  0  0
   -6.3480   -6.0820    0.0000 C   0  0  0  0  0  0  0  0  0  0  0  0
   -7.3670   -4.9820    0.0000 C   0  0  0  0  0  0  0  0  0  0  0  0
   -8.8300   -5.3150    0.0000 O   0  0  0  0  0  0  0  0  0  0  0  0
   -9.2730   -6.7480    0.0000 C   0  0  0  0  0  0  0  0  0  0  0  0
   -6.9240   -3.5490    0.0000 C   0  0  0  0  0  0  0  0  0  0  0  0
   -7.9430   -2.4490    0.0000 O   0  0  0  0  0  0  0  0  0  0  0  0
   -9.4060   -2.7810    0.0000 C   0  0  0  0  0  0  0  0  0  0  0  0
   -5.4610   -3.2160    0.0000 C   0  0  0  0  0  0  0  0  0  0  0  0
   -5.0180   -1.7830    0.0000 O   0  0  0  0  0  0  0  0  0  0  0  0
   -6.0370   -0.6830    0.0000 C   0  0  0  0  0  0  0  0  0  0  0  0
   -4.0420   -6.9910    0.0000 C   0  0  0  0  0  0  0  0  0  0  0  0
   -2.5460   -7.1030    0.0000 C   0  0  0  0  0  0  0  0  0  0  0  0
   -1.5250   -6.0040    0.0000 C   0  0  2  0  0  0  0  0  0  0  0  0
   -0.0920   -6.4480    0.0000 N   0  0  0  0  0  0  0  0  0  0  0  0
    0.2400   -7.9100    0.0000 C   0  0  0  0  0  0  0  0  0  0  0  0
    1.6730   -8.3530    0.0000 O   0  0  0  0  0  0  0  0  0  0  0  0
   -0.8600   -8.9300    0.0000 C   0  0  0  0  0  0  0  0  0  0  0  0
   -1.7470   -4.5210    0.0000 C   0  0  0  0  0  0  0  0  0  0  0  0
   -0.3510   -3.9720    0.0000 C   0  0  0  0  0  0  0  0  0  0  0  0
    0.0930   -2.5390    0.0000 C   0  0  0  0  0  0  0  0  0  0  0  0
    1.5760   -2.3170    0.0000 O   0  0  0  0  0  0  0  0  0  0  0  0
  1  2  1  0  0  0  0
  1  3  1  0  0  0  0
  3  4  2  0  0  0  0
  3 28  1  0  0  0  0
  4  5  1  0  0  0  0
  5  6  2  0  0  0  0
  6  7  1  0  0  0  0
  6 26  1  0  0  0  0
  7  8  1  0  0  0  0
  7 16  2  0  0  0  0
  8  9  2  0  0  0  0
  8 19  1  0  0  0  0
  9 10  1  0  0  0  0
 10 11  1  0  0  0  0
 10 13  2  0  0  0  0
 11 12  1  0  0  0  0
 13 14  1  0  0  0  0
 13 16  1  0  0  0  0
 14 15  1  0  0  0  0
 16 17  1  0  0  0  0
 17 18  1  0  0  0  0
 19 20  1  0  0  0  0
 20 21  1  0  0  0  0
 21 22  1  1  0  0  0
 21 26  1  0  0  0  0
 22 23  1  0  0  0  0
 23 24  2  0  0  0  0
 23 25  1  0  0  0  0
 26 27  2  0  0  0  0
 27 28  1  0  0  0  0
 28 29  2  0  0  0  0
M  END
>  <Index>
258

>  <ID>
HT0543

>  <class>
0

>  <apol>
61.301826

>  <ast_fraglike>
0

>  <ast_fraglike_ext>
0

>  <ast_violation>
2

>  <ast_violation_ext>
3

>  <a_acc>
6

>  <a_acid>
0

>  <a_aro>
6

>  <a_base>
0

>  <a_count>
54

>  <a_don>
1

>  <a_donacc>
7

>  <a_heavy>
29

>  <a_hyd>
20

>  <a_IC>
81.050247

>  <a_ICM>
1.5009305

>  <a_nB>
0

>  <a_nBr>
0

>  <a_nC>
22

>  <a_nCl>
0

>  <a_nF>
0

>  <a_nH>
25

>  <a_nI>
0

>  <a_nN>
1

>  <a_nO>
6

>  <a_nP>
0

>  <a_nS>
0

>  <balabanJ>
1.9731683

>  <BCUT_PEOE_0>
-2.5801928

>  <BCUT_PEOE_1>
-0.52777463

>  <BCUT_PEOE_2>
0.35658762

>  <BCUT_PEOE_3>
2.5993204

>  <BCUT_SLOGP_0>
-2.6828811

>  <BCUT_SLOGP_1>
-0.4771485

>  <BCUT_SLOGP_2>
0.39634529

>  <BCUT_SLOGP_3>
2.6535225

>  <BCUT_SMR_0>
-2.3144646

>  <BCUT_SMR_1>
-0.28251621

>  <BCUT_SMR_2>
0.58666652

>  <BCUT_SMR_3>
2.8814549

>  <bpol>
37.570175

>  <b_1rotN>
5

>  <b_1rotR>
0.16129032

>  <b_ar>
6

>  <b_count>
56

>  <b_double>
5

>  <b_heavy>
31

>  <b_max1len>
3

>  <b_rotN>
6

>  <b_rotR>
0.19354838

>  <b_single>
45

>  <b_triple>
0

>  <chi0>
21.129028

>  <chi0v>
17.250454

>  <chi0v_C>
14.300965

>  <chi0_C>
15.593493

>  <chi1>
13.94262

>  <chi1v>
9.2622738

>  <chi1v_C>
5.8658609

>  <chi1_C>
7.5100031

>  <chiral>
1

>  <chiral_u>
0

>  <density>
0.7458837

>  <diameter>
11

>  <FCharge>
0

>  <GCUT_PEOE_0>
-0.83178002

>  <GCUT_PEOE_1>
-0.4449127

>  <GCUT_PEOE_2>
-0.086895533

>  <GCUT_PEOE_3>
2.8737736

>  <GCUT_SLOGP_0>
-1.1617879

>  <GCUT_SLOGP_1>
-0.3632744

>  <GCUT_SLOGP_2>
0.024538197

>  <GCUT_SLOGP_3>
2.9685874

>  <GCUT_SMR_0>
-0.51637238

>  <GCUT_SMR_1>
-0.20498396

>  <GCUT_SMR_2>
0.10383637

>  <GCUT_SMR_3>
3.1541004

>  <Kier1>
23.658689

>  <Kier2>
10.543388

>  <Kier3>
4.9240375

>  <KierA1>
18.287374

>  <KierA2>
8.0697269

>  <KierA3>
3.741442

>  <KierFlex>
5.0887623

>  <lip_acc>
7

>  <lip_don>
1

>  <lip_druglike>
1

>  <lip_violation>
0

>  <logP(o/w)>
2.2084799

>  <logS>
-4.17839

>  <mr>
10.830585

>  <mutagenic>
0

>  <nmol>
1

>  <opr_brigid>
18

>  <opr_leadlike>
1

>  <opr_nring>
3

>  <opr_nrot>
5

>  <opr_violation>
0

>  <PC+>
0

>  <PC->
0

>  <PEOE_PC+>
2.5024335

>  <PEOE_PC->
-2.5024335

>  <PEOE_RPC+>
0.087240033

>  <PEOE_RPC->
0.13965026

>  <PEOE_VSA+0>
150.80455

>  <PEOE_VSA+1>
75.657524

>  <PEOE_VSA+2>
33.834076

>  <PEOE_VSA+3>
8.6190128

>  <PEOE_VSA+4>
21.408051

>  <PEOE_VSA+5>
0

>  <PEOE_VSA+6>
0

>  <PEOE_VSA-0>
60.792957

>  <PEOE_VSA-1>
12.254904

>  <PEOE_VSA-2>
0

>  <PEOE_VSA-3>
0

>  <PEOE_VSA-4>
0

>  <PEOE_VSA-5>
27.133842

>  <PEOE_VSA-6>
10.151916

>  <PEOE_VSA_FHYD>
0.85350603

>  <PEOE_VSA_FNEG>
0.27538183

>  <PEOE_VSA_FPNEG>
0.093061581

>  <PEOE_VSA_FPOL>
0.14649397

>  <PEOE_VSA_FPOS>
0.72461814

>  <PEOE_VSA_FPPOS>
0.053432386

>  <PEOE_VSA_HYD>
341.96301

>  <PEOE_VSA_NEG>
110.33362

>  <PEOE_VSA_PNEG>
37.285759

>  <PEOE_VSA_POL>
58.69381

>  <PEOE_VSA_POS>
290.32321

>  <PEOE_VSA_PPOS>
21.408051

>  <petitjean>
0.45454547

>  <petitjeanSC>
0.83333331

>  <Q_PC+>
0

>  <Q_PC->
0

>  <Q_RPC+>
0

>  <Q_RPC->
0

>  <Q_VSA_FHYD>
1

>  <Q_VSA_FNEG>
0

>  <Q_VSA_FPNEG>
0

>  <Q_VSA_FPOL>
0

>  <Q_VSA_FPOS>
1

>  <Q_VSA_FPPOS>
0

>  <Q_VSA_HYD>
400.65683

>  <Q_VSA_NEG>
0

>  <Q_VSA_PNEG>
0

>  <Q_VSA_POL>
0

>  <Q_VSA_POS>
400.65683

>  <Q_VSA_PPOS>
0

>  <radius>
6

>  <reactive>
0

>  <rings>
3

>  <RPC+>
0

>  <RPC->
0

>  <rsynth>
1

>  <SlogP>
2.5860701

>  <SlogP_VSA0>
51.010414

>  <SlogP_VSA1>
10.946395

>  <SlogP_VSA2>
62.706287

>  <SlogP_VSA3>
0

>  <SlogP_VSA4>
6.37115

>  <SlogP_VSA5>
168.83289

>  <SlogP_VSA6>
0

>  <SlogP_VSA7>
73.758316

>  <SlogP_VSA8>
18.868406

>  <SlogP_VSA9>
49.056297

>  <SMR>
10.81827

>  <SMR_VSA0>
58.724319

>  <SMR_VSA1>
32.999664

>  <SMR_VSA2>
18.01075

>  <SMR_VSA3>
34.512405

>  <SMR_VSA4>
3.185575

>  <SMR_VSA5>
108.30955

>  <SMR_VSA6>
10.946395

>  <SMR_VSA7>
174.86148

>  <TPSA>
83.089996

>  <VAdjEq>
0.3796615

>  <VAdjMa>
5.9541965

>  <VDistEq>
3.1868572

>  <VDistMa>
9.4847994

>  <vdw_area>
400.65683

>  <vdw_vol>
535.52985

>  <vsa_acc>
37.148865

>  <vsa_acid>
0

>  <vsa_base>
0

>  <vsa_don>
5.6825762

>  <vsa_hyd>
316.26093

>  <vsa_other>
21.408051

>  <vsa_pol>
42.831444

>  <Weight>
399.44299

>  <weinerPath>
1944

>  <weinerPol>
59

>  <zagreb>
150

$$$$