ClC1(Cl)CC1c1ccc(OC(C(O)=O)(C)C)cc1
  MOE2013           2D

 18 19  0  0  1  0  0  0  0  0999 V2000
    0.0000    0.0000    0.0000 Cl  0  0  0  0  0  0  0  0  0  0  0  0
   -1.5000    0.0000    0.0000 C   0  0  0  0  0  0  0  0  0  0  0  0
   -1.1120   -1.4490    0.0000 Cl  0  0  0  0  0  0  0  0  0  0  0  0
   -2.0740    1.3860    0.0000 C   0  0  0  0  0  0  0  0  0  0  0  0
   -2.9870    0.1960    0.0000 C   0  0  3  0  0  0  0  0  0  0  0  0
   -4.3730   -0.3780    0.0000 C   0  0  0  0  0  0  0  0  0  0  0  0
   -4.5690   -1.8650    0.0000 C   0  0  0  0  0  0  0  0  0  0  0  0
   -5.9550   -2.4390    0.0000 C   0  0  0  0  0  0  0  0  0  0  0  0
   -7.1450   -1.5250    0.0000 C   0  0  0  0  0  0  0  0  0  0  0  0
   -8.5310   -2.0990    0.0000 O   0  0  0  0  0  0  0  0  0  0  0  0
   -9.7210   -1.1860    0.0000 C   0  0  0  0  0  0  0  0  0  0  0  0
  -10.9110   -0.2720    0.0000 C   0  0  0  0  0  0  0  0  0  0  0  0
  -12.2960   -0.8460    0.0000 O   0  0  0  0  0  0  0  0  0  0  0  0
  -10.7150    1.2150    0.0000 O   0  0  0  0  0  0  0  0  0  0  0  0
   -8.8070    0.0040    0.0000 C   0  0  0  0  0  0  0  0  0  0  0  0
  -10.6340   -2.3760    0.0000 C   0  0  0  0  0  0  0  0  0  0  0  0
   -6.9490   -0.0380    0.0000 C   0  0  0  0  0  0  0  0  0  0  0  0
   -5.5630    0.5360    0.0000 C   0  0  0  0  0  0  0  0  0  0  0  0
  1  2  1  0  0  0  0
  2  3  1  0  0  0  0
  2  4  1  0  0  0  0
  2  5  1  0  0  0  0
  4  5  1  0  0  0  0
  5  6  1  0  0  0  0
  6  7  1  0  0  0  0
  6 18  2  0  0  0  0
  7  8  2  0  0  0  0
  8  9  1  0  0  0  0
  9 10  1  0  0  0  0
  9 17  2  0  0  0  0
 10 11  1  0  0  0  0
 11 12  1  0  0  0  0
 11 15  1  0  0  0  0
 11 16  1  0  0  0  0
 12 13  1  0  0  0  0
 12 14  2  0  0  0  0
 17 18  1  0  0  0  0
M  END
>  <Index>
235

>  <ID>
HT0496

>  <class>
0

>  <apol>
38.981102

>  <ast_fraglike>
0

>  <ast_fraglike_ext>
0

>  <ast_violation>
1

>  <ast_violation_ext>
2

>  <a_acc>
3

>  <a_acid>
0

>  <a_aro>
6

>  <a_base>
0

>  <a_count>
32

>  <a_don>
2

>  <a_donacc>
5

>  <a_heavy>
18

>  <a_hyd>
13

>  <a_IC>
51.836426

>  <a_ICM>
1.6198883

>  <a_nB>
0

>  <a_nBr>
0

>  <a_nC>
13

>  <a_nCl>
2

>  <a_nF>
0

>  <a_nH>
14

>  <a_nI>
0

>  <a_nN>
0

>  <a_nO>
3

>  <a_nP>
0

>  <a_nS>
0

>  <balabanJ>
1.7804173

>  <BCUT_PEOE_0>
-2.5067215

>  <BCUT_PEOE_1>
-0.60848403

>  <BCUT_PEOE_2>
0.63616854

>  <BCUT_PEOE_3>
2.7906501

>  <BCUT_SLOGP_0>
-2.6023881

>  <BCUT_SLOGP_1>
-0.50098968

>  <BCUT_SLOGP_2>
0.76646435

>  <BCUT_SLOGP_3>
2.8597376

>  <BCUT_SMR_0>
-2.291074

>  <BCUT_SMR_1>
-0.379132

>  <BCUT_SMR_2>
0.79384178

>  <BCUT_SMR_3>
3.0400443

>  <bpol>
19.018898

>  <b_1rotN>
4

>  <b_1rotR>
0.21052632

>  <b_ar>
6

>  <b_count>
33

>  <b_double>
1

>  <b_heavy>
19

>  <b_max1len>
4

>  <b_rotN>
4

>  <b_rotR>
0.21052632

>  <b_single>
26

>  <b_triple>
0

>  <chi0>
13.552042

>  <chi0v>
11.625355

>  <chi0v_C>
8.0938578

>  <chi0_C>
8.8449354

>  <chi1>
8.221981

>  <chi1v>
6.3803916

>  <chi1v_C>
4.4105191

>  <chi1_C>
5.3054786

>  <chiral>
1

>  <chiral_u>
1

>  <density>
0.85485864

>  <diameter>
10

>  <FCharge>
0

>  <GCUT_PEOE_0>
-0.76346993

>  <GCUT_PEOE_1>
-0.40633947

>  <GCUT_PEOE_2>
0.054202873

>  <GCUT_PEOE_3>
2.4340522

>  <GCUT_SLOGP_0>
-0.94324321

>  <GCUT_SLOGP_1>
-0.2730805

>  <GCUT_SLOGP_2>
0.16787478

>  <GCUT_SLOGP_3>
2.543869

>  <GCUT_SMR_0>
-0.51275051

>  <GCUT_SMR_1>
-0.20140879

>  <GCUT_SMR_2>
0.25249845

>  <GCUT_SMR_3>
2.6974649

>  <Kier1>
14.409972

>  <Kier2>
4.8355556

>  <Kier3>
2.9629629

>  <KierA1>
13.994146

>  <KierA2>
4.6875486

>  <KierA3>
2.8684447

>  <KierFlex>
3.644347

>  <lip_acc>
3

>  <lip_don>
1

>  <lip_druglike>
1

>  <lip_violation>
0

>  <logP(o/w)>
4.1483598

>  <logS>
-3.93224

>  <mr>
7.0851436

>  <mutagenic>
1

>  <nmol>
1

>  <opr_brigid>
9

>  <opr_leadlike>
1

>  <opr_nring>
2

>  <opr_nrot>
4

>  <opr_violation>
0

>  <PC+>
0

>  <PC->
0

>  <PEOE_PC+>
1.3981493

>  <PEOE_PC->
-1.3981493

>  <PEOE_RPC+>
0.20869441

>  <PEOE_RPC->
0.23538353

>  <PEOE_VSA+0>
38.388474

>  <PEOE_VSA+1>
25.520063

>  <PEOE_VSA+2>
0

>  <PEOE_VSA+3>
0

>  <PEOE_VSA+4>
10.324173

>  <PEOE_VSA+5>
14.708499

>  <PEOE_VSA+6>
0

>  <PEOE_VSA-0>
72.915016

>  <PEOE_VSA-1>
24.509808

>  <PEOE_VSA-2>
59.163895

>  <PEOE_VSA-3>
0

>  <PEOE_VSA-4>
0

>  <PEOE_VSA-5>
13.566921

>  <PEOE_VSA-6>
10.271297

>  <PEOE_VSA_FHYD>
0.8185721

>  <PEOE_VSA_FNEG>
0.66981542

>  <PEOE_VSA_FPNEG>
0.088496797

>  <PEOE_VSA_FPOL>
0.18142787

>  <PEOE_VSA_FPOS>
0.33018458

>  <PEOE_VSA_FPPOS>
0.092931077

>  <PEOE_VSA_HYD>
220.49725

>  <PEOE_VSA_NEG>
180.42694

>  <PEOE_VSA_PNEG>
23.838217

>  <PEOE_VSA_POL>
48.870888

>  <PEOE_VSA_POS>
88.941208

>  <PEOE_VSA_PPOS>
25.032671

>  <petitjean>
0.5

>  <petitjeanSC>
1

>  <Q_PC+>
0

>  <Q_PC->
0

>  <Q_RPC+>
0

>  <Q_RPC->
0

>  <Q_VSA_FHYD>
1

>  <Q_VSA_FNEG>
0

>  <Q_VSA_FPNEG>
0

>  <Q_VSA_FPOL>
0

>  <Q_VSA_FPOS>
1

>  <Q_VSA_FPPOS>
0

>  <Q_VSA_HYD>
269.36813

>  <Q_VSA_NEG>
0

>  <Q_VSA_PNEG>
0

>  <Q_VSA_POL>
0

>  <Q_VSA_POS>
269.36813

>  <Q_VSA_PPOS>
0

>  <radius>
5

>  <reactive>
1

>  <rings>
2

>  <RPC+>
0

>  <RPC->
0

>  <rsynth>
1

>  <SlogP>
3.5897999

>  <SlogP_VSA0>
10.999887

>  <SlogP_VSA1>
7.7454643

>  <SlogP_VSA2>
23.862217

>  <SlogP_VSA3>
25.385227

>  <SlogP_VSA4>
3.185575

>  <SlogP_VSA5>
0

>  <SlogP_VSA6>
4.4107962

>  <SlogP_VSA7>
70.572739

>  <SlogP_VSA8>
18.868406

>  <SlogP_VSA9>
150.19275

>  <SMR>
7.0579801

>  <SMR_VSA0>
23.862217

>  <SMR_VSA1>
10.999887

>  <SMR_VSA2>
25.385227

>  <SMR_VSA3>
12.839799

>  <SMR_VSA4>
0

>  <SMR_VSA5>
89.441139

>  <SMR_VSA6>
7.7454643

>  <SMR_VSA7>
144.94931

>  <TPSA>
46.529999

>  <VAdjEq>
0.52150291

>  <VAdjMa>
5.2479277

>  <VDistEq>
3.1618562

>  <VDistMa>
8.0053501

>  <vdw_area>
269.36813

>  <vdw_vol>
338.25241

>  <vsa_acc>
2.503756

>  <vsa_acid>
0

>  <vsa_base>
0

>  <vsa_don>
0

>  <vsa_hyd>
209.89886

>  <vsa_other>
14.708499

>  <vsa_pol>
29.637598

>  <Weight>
289.15799

>  <weinerPath>
660

>  <weinerPol>
24

>  <zagreb>
98

$$$$