Clc1cc(N)ccc1C(OCCN(CC)CC)=O
  MOE2013           2D

 18 18  0  0  0  0  0  0  0  0999 V2000
    0.0000    0.0000    0.0000 Cl  0  0  0  0  0  0  0  0  0  0  0  0
   -0.0010    1.5000    0.0000 C   0  0  0  0  0  0  0  0  0  0  0  0
    1.2970    2.2510    0.0000 C   0  0  0  0  0  0  0  0  0  0  0  0
    1.2950    3.7510    0.0000 C   0  0  0  0  0  0  0  0  0  0  0  0
    2.5940    4.5030    0.0000 N   0  0  0  0  0  0  0  0  0  0  0  0
   -0.0040    4.5000    0.0000 C   0  0  0  0  0  0  0  0  0  0  0  0
   -1.3030    3.7490    0.0000 C   0  0  0  0  0  0  0  0  0  0  0  0
   -1.3010    2.2490    0.0000 C   0  0  0  0  0  0  0  0  0  0  0  0
   -2.6000    1.4970    0.0000 C   0  0  0  0  0  0  0  0  0  0  0  0
   -3.8990    2.2460    0.0000 O   0  0  0  0  0  0  0  0  0  0  0  0
   -5.1980    1.4950    0.0000 C   0  0  0  0  0  0  0  0  0  0  0  0
   -6.4970    2.2440    0.0000 C   0  0  0  0  0  0  0  0  0  0  0  0
   -7.7960    1.4920    0.0000 N   0  0  0  0  0  0  0  0  0  0  0  0
   -7.7940   -0.0080    0.0000 C   0  0  0  0  0  0  0  0  0  0  0  0
   -9.0930   -0.7590    0.0000 C   0  0  0  0  0  0  0  0  0  0  0  0
   -9.0950    2.2410    0.0000 C   0  0  0  0  0  0  0  0  0  0  0  0
   -9.0970    3.7410    0.0000 C   0  0  0  0  0  0  0  0  0  0  0  0
   -2.5980   -0.0030    0.0000 O   0  0  0  0  0  0  0  0  0  0  0  0
  1  2  1  0  0  0  0
  2  3  1  0  0  0  0
  2  8  2  0  0  0  0
  3  4  2  0  0  0  0
  4  5  1  0  0  0  0
  4  6  1  0  0  0  0
  6  7  2  0  0  0  0
  7  8  1  0  0  0  0
  8  9  1  0  0  0  0
  9 10  1  0  0  0  0
  9 18  2  0  0  0  0
 10 11  1  0  0  0  0
 11 12  1  0  0  0  0
 12 13  1  0  0  0  0
 13 14  1  0  0  0  0
 13 16  1  0  0  0  0
 14 15  1  0  0  0  0
 16 17  1  0  0  0  0
M  END
>  <Index>
217

>  <ID>
HT0457

>  <class>
0

>  <apol>
41.533066

>  <ast_fraglike>
1

>  <ast_fraglike_ext>
0

>  <ast_violation>
0

>  <ast_violation_ext>
1

>  <a_acc>
2

>  <a_acid>
0

>  <a_aro>
6

>  <a_base>
0

>  <a_count>
37

>  <a_don>
1

>  <a_donacc>
3

>  <a_heavy>
18

>  <a_hyd>
13

>  <a_IC>
59.933434

>  <a_ICM>
1.6198226

>  <a_nB>
0

>  <a_nBr>
0

>  <a_nC>
13

>  <a_nCl>
1

>  <a_nF>
0

>  <a_nH>
19

>  <a_nI>
0

>  <a_nN>
2

>  <a_nO>
2

>  <a_nP>
0

>  <a_nS>
0

>  <balabanJ>
2.2619238

>  <BCUT_PEOE_0>
-2.6683378

>  <BCUT_PEOE_1>
-0.22748357

>  <BCUT_PEOE_2>
0.12392125

>  <BCUT_PEOE_3>
2.5711935

>  <BCUT_SLOGP_0>
-2.7461026

>  <BCUT_SLOGP_1>
-0.054506008

>  <BCUT_SLOGP_2>
0.2595197

>  <BCUT_SLOGP_3>
2.5217173

>  <BCUT_SMR_0>
-2.3930895

>  <BCUT_SMR_1>
0.057449989

>  <BCUT_SMR_2>
0.27677545

>  <BCUT_SMR_3>
2.8357971

>  <bpol>
25.384933

>  <b_1rotN>
6

>  <b_1rotR>
0.33333334

>  <b_ar>
6

>  <b_count>
37

>  <b_double>
1

>  <b_heavy>
18

>  <b_max1len>
6

>  <b_rotN>
7

>  <b_rotR>
0.3888889

>  <b_single>
30

>  <b_triple>
0

>  <chi0>
13.543606

>  <chi0v>
11.535432

>  <chi0v_C>
8.5604782

>  <chi0_C>
9.2591486

>  <chi1>
8.5789175

>  <chi1v>
6.4034762

>  <chi1v_C>
3.9022474

>  <chi1_C>
4.7138734

>  <chiral>
0

>  <chiral_u>
0

>  <density>
0.75160044

>  <diameter>
11

>  <FCharge>
0

>  <GCUT_PEOE_0>
-0.85588503

>  <GCUT_PEOE_1>
-0.38248247

>  <GCUT_PEOE_2>
-0.036078755

>  <GCUT_PEOE_3>
2.4181879

>  <GCUT_SLOGP_0>
-1.3342618

>  <GCUT_SLOGP_1>
-0.22096117

>  <GCUT_SLOGP_2>
0.054200001

>  <GCUT_SLOGP_3>
2.4442441

>  <GCUT_SMR_0>
-0.52179831

>  <GCUT_SMR_1>
-0.1244407

>  <GCUT_SMR_2>
0.065805919

>  <GCUT_SMR_3>
2.6686454

>  <Kier1>
16.055555

>  <Kier2>
8.2268429

>  <Kier3>
5.2674899

>  <KierA1>
13.946888

>  <KierA2>
7.0833755

>  <KierA3>
4.5057173

>  <KierFlex>
5.4883914

>  <lip_acc>
4

>  <lip_don>
2

>  <lip_druglike>
1

>  <lip_violation>
0

>  <logP(o/w)>
2.3610001

>  <logS>
-2.7740901

>  <mr>
7.3956156

>  <mutagenic>
1

>  <nmol>
1

>  <opr_brigid>
6

>  <opr_leadlike>
1

>  <opr_nring>
1

>  <opr_nrot>
6

>  <opr_violation>
0

>  <PC+>
0

>  <PC->
0

>  <PEOE_PC+>
1.4816041

>  <PEOE_PC->
-1.4816041

>  <PEOE_RPC+>
0.19928734

>  <PEOE_RPC->
0.20931408

>  <PEOE_VSA+0>
71.076508

>  <PEOE_VSA+1>
43.006508

>  <PEOE_VSA+2>
17.238026

>  <PEOE_VSA+3>
0

>  <PEOE_VSA+4>
0

>  <PEOE_VSA+5>
14.708499

>  <PEOE_VSA+6>
0

>  <PEOE_VSA-0>
63.149361

>  <PEOE_VSA-1>
67.077301

>  <PEOE_VSA-2>
0

>  <PEOE_VSA-3>
0

>  <PEOE_VSA-4>
0

>  <PEOE_VSA-5>
13.566921

>  <PEOE_VSA-6>
9.1548758

>  <PEOE_VSA_FHYD>
0.87480587

>  <PEOE_VSA_FNEG>
0.51157093

>  <PEOE_VSA_FPNEG>
0.075998224

>  <PEOE_VSA_FPOL>
0.12519415

>  <PEOE_VSA_FPOS>
0.48842904

>  <PEOE_VSA_FPPOS>
0.049195923

>  <PEOE_VSA_HYD>
261.5477

>  <PEOE_VSA_NEG>
152.94846

>  <PEOE_VSA_PNEG>
22.721796

>  <PEOE_VSA_POL>
37.430294

>  <PEOE_VSA_POS>
146.02954

>  <PEOE_VSA_PPOS>
14.708499

>  <petitjean>
0.45454547

>  <petitjeanSC>
0.83333331

>  <Q_PC+>
0

>  <Q_PC->
0

>  <Q_RPC+>
0

>  <Q_RPC->
0

>  <Q_VSA_FHYD>
1

>  <Q_VSA_FNEG>
0

>  <Q_VSA_FPNEG>
0

>  <Q_VSA_FPOL>
0

>  <Q_VSA_FPOS>
1

>  <Q_VSA_FPPOS>
0

>  <Q_VSA_HYD>
298.978

>  <Q_VSA_NEG>
0

>  <Q_VSA_PNEG>
0

>  <Q_VSA_POL>
0

>  <Q_VSA_POS>
298.978

>  <Q_VSA_PPOS>
0

>  <radius>
6

>  <reactive>
0

>  <rings>
1

>  <RPC+>
0

>  <RPC->
0

>  <rsynth>
1

>  <SlogP>
2.4208

>  <SlogP_VSA0>
32.897186

>  <SlogP_VSA1>
10.869778

>  <SlogP_VSA2>
10.999887

>  <SlogP_VSA3>
76.244995

>  <SlogP_VSA4>
27.047791

>  <SlogP_VSA5>
0

>  <SlogP_VSA6>
3.5006065

>  <SlogP_VSA7>
52.929554

>  <SlogP_VSA8>
0

>  <SlogP_VSA9>
108.55742

>  <SMR>
7.3934898

>  <SMR_VSA0>
34.862103

>  <SMR_VSA1>
3.1243138

>  <SMR_VSA2>
0

>  <SMR_VSA3>
6.6861815

>  <SMR_VSA4>
2.7567475

>  <SMR_VSA5>
85.826744

>  <SMR_VSA6>
83.990456

>  <SMR_VSA7>
105.80067

>  <TPSA>
55.560001

>  <VAdjEq>
0.50325835

>  <VAdjMa>
5.1699252

>  <VDistEq>
3.2584417

>  <VDistMa>
8.0097723

>  <vdw_area>
298.978

>  <vdw_vol>
360.24457

>  <vsa_acc>
13.566921

>  <vsa_acid>
0

>  <vsa_base>
0

>  <vsa_don>
17.742489

>  <vsa_hyd>
232.20917

>  <vsa_other>
17.212255

>  <vsa_pol>
31.30941

>  <Weight>
270.75998

>  <weinerPath>
700

>  <weinerPol>
24

>  <zagreb>
82

$$$$