n12CCCCc1nnc2CCN1CCN(CC1)c1ccccc1C
  MOE2013           2D

 24 27  0  0  0  0  0  0  0  0999 V2000
    0.0000    0.0000    0.0000 N   0  0  0  0  0  0  0  0  0  0  0  0
    0.0070    1.5000    0.0000 C   0  0  0  0  0  0  0  0  0  0  0  0
   -1.2890    2.2560    0.0000 C   0  0  0  0  0  0  0  0  0  0  0  0
   -2.5920    1.5110    0.0000 C   0  0  0  0  0  0  0  0  0  0  0  0
   -2.5980    0.0110    0.0000 C   0  0  0  0  0  0  0  0  0  0  0  0
   -1.3020   -0.7440    0.0000 C   0  0  0  0  0  0  0  0  0  0  0  0
   -0.9970   -2.2130    0.0000 N   0  0  0  0  0  0  0  0  0  0  0  0
    0.4940   -2.3760    0.0000 N   0  0  0  0  0  0  0  0  0  0  0  0
    1.1100   -1.0090    0.0000 C   0  0  0  0  0  0  0  0  0  0  0  0
    2.5790   -0.7030    0.0000 C   0  0  0  0  0  0  0  0  0  0  0  0
    3.5780   -1.8220    0.0000 C   0  0  0  0  0  0  0  0  0  0  0  0
    5.0460   -1.5170    0.0000 N   0  0  0  0  0  0  0  0  0  0  0  0
    5.5160   -0.0920    0.0000 C   0  0  0  0  0  0  0  0  0  0  0  0
    6.9850    0.2130    0.0000 C   0  0  0  0  0  0  0  0  0  0  0  0
    7.9830   -0.9060    0.0000 N   0  0  0  0  0  0  0  0  0  0  0  0
    7.5140   -2.3300    0.0000 C   0  0  0  0  0  0  0  0  0  0  0  0
    6.0450   -2.6360    0.0000 C   0  0  0  0  0  0  0  0  0  0  0  0
    9.4520   -0.6000    0.0000 C   0  0  0  0  0  0  0  0  0  0  0  0
    9.9220    0.8240    0.0000 C   0  0  0  0  0  0  0  0  0  0  0  0
   11.3900    1.1300    0.0000 C   0  0  0  0  0  0  0  0  0  0  0  0
   12.3890    0.0110    0.0000 C   0  0  0  0  0  0  0  0  0  0  0  0
   11.9190   -1.4140    0.0000 C   0  0  0  0  0  0  0  0  0  0  0  0
   10.4510   -1.7190    0.0000 C   0  0  0  0  0  0  0  0  0  0  0  0
    9.9810   -3.1440    0.0000 C   0  0  0  0  0  0  0  0  0  0  0  0
  1  2  1  0  0  0  0
  1  6  1  0  0  0  0
  1  9  1  0  0  0  0
  2  3  1  0  0  0  0
  3  4  1  0  0  0  0
  4  5  1  0  0  0  0
  5  6  1  0  0  0  0
  6  7  2  0  0  0  0
  7  8  1  0  0  0  0
  8  9  2  0  0  0  0
  9 10  1  0  0  0  0
 10 11  1  0  0  0  0
 11 12  1  0  0  0  0
 12 13  1  0  0  0  0
 12 17  1  0  0  0  0
 13 14  1  0  0  0  0
 14 15  1  0  0  0  0
 15 16  1  0  0  0  0
 15 18  1  0  0  0  0
 16 17  1  0  0  0  0
 18 19  1  0  0  0  0
 18 23  2  0  0  0  0
 19 20  2  0  0  0  0
 20 21  1  0  0  0  0
 21 22  2  0  0  0  0
 22 23  1  0  0  0  0
 23 24  1  0  0  0  0
M  END
>  <Index>
282

>  <ID>
HT0590

>  <class>
0

>  <apol>
56.943413

>  <ast_fraglike>
0

>  <ast_fraglike_ext>
0

>  <ast_violation>
1

>  <ast_violation_ext>
2

>  <a_acc>
3

>  <a_acid>
0

>  <a_aro>
11

>  <a_base>
0

>  <a_count>
51

>  <a_don>
0

>  <a_donacc>
3

>  <a_heavy>
24

>  <a_hyd>
17

>  <a_IC>
68.591469

>  <a_ICM>
1.3449308

>  <a_nB>
0

>  <a_nBr>
0

>  <a_nC>
19

>  <a_nCl>
0

>  <a_nF>
0

>  <a_nH>
27

>  <a_nI>
0

>  <a_nN>
5

>  <a_nO>
0

>  <a_nP>
0

>  <a_nS>
0

>  <balabanJ>
1.1956524

>  <BCUT_PEOE_0>
-2.7642128

>  <BCUT_PEOE_1>
-0.53242493

>  <BCUT_PEOE_2>
0.45845005

>  <BCUT_PEOE_3>
2.6712983

>  <BCUT_SLOGP_0>
-2.88486

>  <BCUT_SLOGP_1>
-0.43999341

>  <BCUT_SLOGP_2>
0.49426171

>  <BCUT_SLOGP_3>
2.718627

>  <BCUT_SMR_0>
-2.47258

>  <BCUT_SMR_1>
-0.36875618

>  <BCUT_SMR_2>
0.64206088

>  <BCUT_SMR_3>
2.9548202

>  <bpol>
36.776588

>  <b_1rotN>
4

>  <b_1rotR>
0.14814815

>  <b_ar>
11

>  <b_count>
54

>  <b_double>
0

>  <b_heavy>
27

>  <b_max1len>
3

>  <b_rotN>
4

>  <b_rotR>
0.14814815

>  <b_single>
43

>  <b_triple>
0

>  <chi0>
16.35516

>  <chi0v>
14.616537

>  <chi0v_C>
12.380469

>  <chi0_C>
13.208896

>  <chi1>
11.809663

>  <chi1v>
9.2498579

>  <chi1v_C>
6.0344572

>  <chi1_C>
7.0436769

>  <chiral>
0

>  <chiral_u>
0

>  <density>
0.68293393

>  <diameter>
14

>  <FCharge>
0

>  <GCUT_PEOE_0>
-0.85358626

>  <GCUT_PEOE_1>
-0.36005056

>  <GCUT_PEOE_2>
-0.030280799

>  <GCUT_PEOE_3>
2.7871816

>  <GCUT_SLOGP_0>
-0.98687935

>  <GCUT_SLOGP_1>
-0.3085621

>  <GCUT_SLOGP_2>
0.019679911

>  <GCUT_SLOGP_3>
2.8038986

>  <GCUT_SMR_0>
-0.52351904

>  <GCUT_SMR_1>
-0.17911962

>  <GCUT_SMR_2>
0.14977235

>  <GCUT_SMR_3>
3.0425341

>  <Kier1>
17.415638

>  <Kier2>
8.1314831

>  <Kier3>
4.0655999

>  <KierA1>
13.839835

>  <KierA2>
6.3929906

>  <KierA3>
3.1717789

>  <KierFlex>
3.6865807

>  <lip_acc>
5

>  <lip_don>
0

>  <lip_druglike>
1

>  <lip_violation>
0

>  <logP(o/w)>
2.4389999

>  <logS>
-2.0924201

>  <mr>
9.595006

>  <mutagenic>
0

>  <nmol>
1

>  <opr_brigid>
22

>  <opr_leadlike>
1

>  <opr_nring>
4

>  <opr_nrot>
7

>  <opr_violation>
0

>  <PC+>
0

>  <PC->
0

>  <PEOE_PC+>
1.5265485

>  <PEOE_PC->
-1.5265485

>  <PEOE_RPC+>
0.088224329

>  <PEOE_RPC->
0.20617093

>  <PEOE_VSA+0>
201.36

>  <PEOE_VSA+1>
17.061544

>  <PEOE_VSA+2>
22.381124

>  <PEOE_VSA+3>
0

>  <PEOE_VSA+4>
0

>  <PEOE_VSA+5>
0

>  <PEOE_VSA+6>
0

>  <PEOE_VSA-0>
50.613747

>  <PEOE_VSA-1>
36.764713

>  <PEOE_VSA-2>
18.842079

>  <PEOE_VSA-3>
0

>  <PEOE_VSA-4>
0

>  <PEOE_VSA-5>
0

>  <PEOE_VSA-6>
0

>  <PEOE_VSA_FHYD>
1

>  <PEOE_VSA_FNEG>
0.30609059

>  <PEOE_VSA_FPNEG>
0

>  <PEOE_VSA_FPOL>
0

>  <PEOE_VSA_FPOS>
0.69390941

>  <PEOE_VSA_FPPOS>
0

>  <PEOE_VSA_HYD>
347.02322

>  <PEOE_VSA_NEG>
106.22054

>  <PEOE_VSA_PNEG>
0

>  <PEOE_VSA_POL>
0

>  <PEOE_VSA_POS>
240.80267

>  <PEOE_VSA_PPOS>
0

>  <petitjean>
0.5

>  <petitjeanSC>
1

>  <Q_PC+>
0

>  <Q_PC->
0

>  <Q_RPC+>
0

>  <Q_RPC->
0

>  <Q_VSA_FHYD>
1

>  <Q_VSA_FNEG>
0

>  <Q_VSA_FPNEG>
0

>  <Q_VSA_FPOL>
0

>  <Q_VSA_FPOS>
1

>  <Q_VSA_FPPOS>
0

>  <Q_VSA_HYD>
347.02322

>  <Q_VSA_NEG>
0

>  <Q_VSA_PNEG>
0

>  <Q_VSA_POL>
0

>  <Q_VSA_POS>
347.02322

>  <Q_VSA_PPOS>
0

>  <radius>
7

>  <reactive>
0

>  <rings>
4

>  <RPC+>
0

>  <RPC->
0

>  <rsynth>
1

>  <SlogP>
2.5538599

>  <SlogP_VSA0>
3.1243138

>  <SlogP_VSA1>
38.349422

>  <SlogP_VSA2>
0

>  <SlogP_VSA3>
92.197891

>  <SlogP_VSA4>
7.8414154

>  <SlogP_VSA5>
37.736813

>  <SlogP_VSA6>
0

>  <SlogP_VSA7>
70.572739

>  <SlogP_VSA8>
37.736813

>  <SlogP_VSA9>
54.522339

>  <SMR>
9.6701002

>  <SMR_VSA0>
0

>  <SMR_VSA1>
38.349422

>  <SMR_VSA2>
3.1243138

>  <SMR_VSA3>
7.8414154

>  <SMR_VSA4>
2.7567475

>  <SMR_VSA5>
164.48593

>  <SMR_VSA6>
92.197891

>  <SMR_VSA7>
33.326015

>  <TPSA>
37.189999

>  <VAdjEq>
0.44886449

>  <VAdjMa>
5.7548876

>  <VDistEq>
3.5850852

>  <VDistMa>
8.8261032

>  <vdw_area>
347.02322

>  <vdw_vol>
476.56146

>  <vsa_acc>
18.842079

>  <vsa_acid>
0

>  <vsa_base>
0

>  <vsa_don>
0

>  <vsa_hyd>
286.58154

>  <vsa_other>
22.381124

>  <vsa_pol>
18.842079

>  <Weight>
325.45999

>  <weinerPath>
1535

>  <weinerPol>
36

>  <zagreb>
128

$$$$