O[C@]1(CC[C@H]2[C@H]3[C@@H]([C@@H]4C(CC3)=CCCC4)C(C[C@]12CC)=C)C#C
  MOE2013           2D

 23 26  0  0  1  0  0  0  0  0999 V2000
    0.0000    0.0000    0.0000 O   0  0  0  0  0  0  0  0  0  0  0  0
   -1.1220    0.9950    0.0000 C   0  0  1  0  0  0  0  0  0  0  0  0
   -1.7190    2.3720    0.0000 C   0  0  0  0  0  0  0  0  0  0  0  0
   -3.2120    2.2300    0.0000 C   0  0  0  0  0  0  0  0  0  0  0  0
   -3.5380    0.7660    0.0000 C   0  0  1  0  0  0  0  0  0  0  0  0
   -4.8450    0.0290    0.0000 C   0  0  1  0  0  0  0  0  0  0  0  0
   -4.8600   -1.4710    0.0000 C   0  0  1  0  0  0  0  0  0  0  0  0
   -6.1660   -2.2080    0.0000 C   0  0  2  0  0  0  0  0  0  0  0  0
   -7.4580   -1.4450    0.0000 C   0  0  0  0  0  0  0  0  0  0  0  0
   -7.4430    0.0550    0.0000 C   0  0  0  0  0  0  0  0  0  0  0  0
   -6.1360    0.7920    0.0000 C   0  0  0  0  0  0  0  0  0  0  0  0
   -8.7640   -2.1820    0.0000 C   0  0  0  0  0  0  0  0  0  0  0  0
   -8.7790   -3.6820    0.0000 C   0  0  0  0  0  0  0  0  0  0  0  0
   -7.4880   -4.4450    0.0000 C   0  0  0  0  0  0  0  0  0  0  0  0
   -6.1810   -3.7080    0.0000 C   0  0  0  0  0  0  0  0  0  0  0  0
   -3.5680   -2.2340    0.0000 C   0  0  0  0  0  0  0  0  0  0  0  0
   -2.2620   -1.4970    0.0000 C   0  0  0  0  0  0  0  0  0  0  0  0
   -2.2470    0.0030    0.0000 C   0  0  2  0  0  0  0  0  0  0  0  0
   -0.8940   -0.6450    0.0000 C   0  0  0  0  0  0  0  0  0  0  0  0
   -0.7780   -2.1400    0.0000 C   0  0  0  0  0  0  0  0  0  0  0  0
   -3.5830   -3.7340    0.0000 C   0  0  0  0  0  0  0  0  0  0  0  0
    0.2840    1.5190    0.0000 C   0  0  0  0  0  0  0  0  0  0  0  0
    1.6890    2.0420    0.0000 C   0  0  0  0  0  0  0  0  0  0  0  0
  2  1  1  6  0  0  0
  2  3  1  0  0  0  0
  2 18  1  0  0  0  0
  2 22  1  1  0  0  0
  3  4  1  0  0  0  0
  5  4  1  6  0  0  0
  5  6  1  0  0  0  0
  5 18  1  0  0  0  0
  6  7  1  0  0  0  0
  6 11  1  1  0  0  0
  7  8  1  0  0  0  0
  7 16  1  6  0  0  0
  8  9  1  1  0  0  0
  8 15  1  0  0  0  0
  9 10  1  0  0  0  0
  9 12  2  0  0  0  0
 10 11  1  0  0  0  0
 12 13  1  0  0  0  0
 13 14  1  0  0  0  0
 14 15  1  0  0  0  0
 16 17  1  0  0  0  0
 16 21  2  0  0  0  0
 17 18  1  0  0  0  0
 18 19  1  6  0  0  0
 19 20  1  0  0  0  0
 22 23  3  0  0  0  0
M  END
>  <Index>
297

>  <ID>
HT0615

>  <class>
0

>  <apol>
59.525791

>  <ast_fraglike>
0

>  <ast_fraglike_ext>
0

>  <ast_violation>
2

>  <ast_violation_ext>
2

>  <a_acc>
1

>  <a_acid>
0

>  <a_aro>
0

>  <a_base>
0

>  <a_count>
53

>  <a_don>
1

>  <a_donacc>
2

>  <a_heavy>
23

>  <a_hyd>
22

>  <a_IC>
58.265572

>  <a_ICM>
1.0993503

>  <a_nB>
0

>  <a_nBr>
0

>  <a_nC>
22

>  <a_nCl>
0

>  <a_nF>
0

>  <a_nH>
30

>  <a_nI>
0

>  <a_nN>
0

>  <a_nO>
1

>  <a_nP>
0

>  <a_nS>
0

>  <balabanJ>
1.681924

>  <BCUT_PEOE_0>
-2.9091363

>  <BCUT_PEOE_1>
-0.526133

>  <BCUT_PEOE_2>
0.57966238

>  <BCUT_PEOE_3>
2.9455259

>  <BCUT_SLOGP_0>
-2.8328331

>  <BCUT_SLOGP_1>
-0.52692837

>  <BCUT_SLOGP_2>
0.56846875

>  <BCUT_SLOGP_3>
3.0119691

>  <BCUT_SMR_0>
-2.650646

>  <BCUT_SMR_1>
-0.38190424

>  <BCUT_SMR_2>
0.71800554

>  <BCUT_SMR_3>
3.1954594

>  <bpol>
32.796211

>  <b_1rotN>
1

>  <b_1rotR>
0.03846154

>  <b_ar>
0

>  <b_count>
56

>  <b_double>
2

>  <b_heavy>
26

>  <b_max1len>
3

>  <b_rotN>
2

>  <b_rotR>
0.07692308

>  <b_single>
53

>  <b_triple>
1

>  <chi0>
16.242277

>  <chi0v>
14.482383

>  <chi0v_C>
14.03517

>  <chi0_C>
15.242276

>  <chi1>
11.060609

>  <chi1v>
9.6284027

>  <chi1v_C>
9.4047956

>  <chi1_C>
10.560609

>  <chiral>
6

>  <chiral_u>
0

>  <density>
0.64593506

>  <diameter>
10

>  <FCharge>
0

>  <GCUT_PEOE_0>
-0.79480124

>  <GCUT_PEOE_1>
-0.37188742

>  <GCUT_PEOE_2>
0.037250955

>  <GCUT_PEOE_3>
3.2716074

>  <GCUT_SLOGP_0>
-0.8883245

>  <GCUT_SLOGP_1>
-0.30277187

>  <GCUT_SLOGP_2>
0.059333581

>  <GCUT_SLOGP_3>
3.3634944

>  <GCUT_SMR_0>
-0.53826976

>  <GCUT_SMR_1>
-0.21309592

>  <GCUT_SMR_2>
0.15406843

>  <GCUT_SMR_3>
3.5066955

>  <Kier1>
16.467455

>  <Kier2>
5.7715645

>  <Kier3>
2.1484375

>  <KierA1>
14.432992

>  <KierA2>
5.0265899

>  <KierA3>
1.8621715

>  <KierFlex>
3.1542926

>  <lip_acc>
1

>  <lip_don>
1

>  <lip_druglike>
1

>  <lip_violation>
0

>  <logP(o/w)>
3.8889999

>  <logS>
-5.8578401

>  <mr>
9.3919411

>  <mutagenic>
0

>  <nmol>
1

>  <opr_brigid>
22

>  <opr_leadlike>
1

>  <opr_nring>
4

>  <opr_nrot>
2

>  <opr_violation>
1

>  <PC+>
0

>  <PC->
0

>  <PEOE_PC+>
1.3667179

>  <PEOE_PC->
-1.3667179

>  <PEOE_RPC+>
0.15468235

>  <PEOE_RPC->
0.27508819

>  <PEOE_VSA+0>
106.63465

>  <PEOE_VSA+1>
12.796158

>  <PEOE_VSA+2>
4.2653861

>  <PEOE_VSA+3>
0

>  <PEOE_VSA+4>
10.324173

>  <PEOE_VSA+5>
0

>  <PEOE_VSA+6>
0

>  <PEOE_VSA-0>
78.311821

>  <PEOE_VSA-1>
73.529427

>  <PEOE_VSA-2>
25.854858

>  <PEOE_VSA-3>
0

>  <PEOE_VSA-4>
0

>  <PEOE_VSA-5>
0

>  <PEOE_VSA-6>
7.7675405

>  <PEOE_VSA_FHYD>
0.94337207

>  <PEOE_VSA_FNEG>
0.58050996

>  <PEOE_VSA_FPNEG>
0.024312766

>  <PEOE_VSA_FPOL>
0.056627914

>  <PEOE_VSA_FPOS>
0.41949007

>  <PEOE_VSA_FPPOS>
0.032315146

>  <PEOE_VSA_HYD>
301.3923

>  <PEOE_VSA_NEG>
185.46364

>  <PEOE_VSA_PNEG>
7.7675405

>  <PEOE_VSA_POL>
18.091713

>  <PEOE_VSA_POS>
134.02037

>  <PEOE_VSA_PPOS>
10.324173

>  <petitjean>
0.5

>  <petitjeanSC>
1

>  <Q_PC+>
0

>  <Q_PC->
0

>  <Q_RPC+>
0

>  <Q_RPC->
0

>  <Q_VSA_FHYD>
1

>  <Q_VSA_FNEG>
0

>  <Q_VSA_FPNEG>
0

>  <Q_VSA_FPOL>
0

>  <Q_VSA_FPOS>
1

>  <Q_VSA_FPPOS>
0

>  <Q_VSA_HYD>
319.48401

>  <Q_VSA_NEG>
0

>  <Q_VSA_PNEG>
0

>  <Q_VSA_POL>
0

>  <Q_VSA_POS>
319.48401

>  <Q_VSA_PPOS>
0

>  <radius>
5

>  <reactive>
0

>  <rings>
4

>  <RPC+>
0

>  <RPC->
0

>  <rsynth>
0

>  <SlogP>
4.8697081

>  <SlogP_VSA0>
25.385227

>  <SlogP_VSA1>
0

>  <SlogP_VSA2>
0

>  <SlogP_VSA3>
17.030573

>  <SlogP_VSA4>
49.131367

>  <SlogP_VSA5>
6.37115

>  <SlogP_VSA6>
0

>  <SlogP_VSA7>
17.643185

>  <SlogP_VSA8>
169.81564

>  <SlogP_VSA9>
65.426811

>  <SMR>
9.4625797

>  <SMR_VSA0>
0

>  <SMR_VSA1>
25.385227

>  <SMR_VSA2>
17.643185

>  <SMR_VSA3>
23.401724

>  <SMR_VSA4>
0

>  <SMR_VSA5>
187.45883

>  <SMR_VSA6>
31.488184

>  <SMR_VSA7>
65.426811

>  <TPSA>
20.23

>  <VAdjEq>
0.46357921

>  <VAdjMa>
5.7004399

>  <VDistEq>
2.9654303

>  <VDistMa>
8.7906809

>  <vdw_area>
319.48401

>  <vdw_vol>
480.66907

>  <vsa_acc>
0

>  <vsa_acid>
0

>  <vsa_base>
0

>  <vsa_don>
0

>  <vsa_hyd>
275.37003

>  <vsa_other>
0

>  <vsa_pol>
13.566921

>  <Weight>
310.48099

>  <weinerPath>
1004

>  <weinerPol>
50

>  <zagreb>
134

$$$$