F[C@@]12[C@H]([C@@H]3C[C@@H](C)[C@H](C(=O)CO)[C@]3(C[C@@H]1O)C)CCC1=CC(=O)C=C[C@@]12C
  MOE2013           2D

 27 30  0  0  1  0  0  0  0  0999 V2000
    0.0000    0.0000    0.0000 F   0  0  0  0  0  0  0  0  0  0  0  0
    1.5000    0.0000    0.0000 C   0  0  1  0  0  0  0  0  0  0  0  0
    0.7500    1.2990    0.0000 C   0  0  2  0  0  0  0  0  0  0  0  0
   -0.7500    1.2990    0.0000 C   0  0  2  0  0  0  0  0  0  0  0  0
   -1.7540    2.4140    0.0000 C   0  0  0  0  0  0  0  0  0  0  0  0
   -3.1240    1.8030    0.0000 C   0  0  1  0  0  0  0  0  0  0  0  0
   -4.4230    2.5530    0.0000 C   0  0  0  0  0  0  0  0  0  0  0  0
   -2.9670    0.3120    0.0000 C   0  0  2  0  0  0  0  0  0  0  0  0
   -4.0820   -0.6920    0.0000 C   0  0  0  0  0  0  0  0  0  0  0  0
   -3.7700   -2.1590    0.0000 O   0  0  0  0  0  0  0  0  0  0  0  0
   -5.5080   -0.2290    0.0000 C   0  0  0  0  0  0  0  0  0  0  0  0
   -6.6230   -1.2330    0.0000 O   0  0  0  0  0  0  0  0  0  0  0  0
   -1.5000    0.0000    0.0000 C   0  0  1  0  0  0  0  0  0  0  0  0
   -0.7500   -1.2990    0.0000 C   0  0  0  0  0  0  0  0  0  0  0  0
    0.7500   -1.2990    0.0000 C   0  0  2  0  0  0  0  0  0  0  0  0
    1.5000   -2.5980    0.0000 O   0  0  0  0  0  0  0  0  0  0  0  0
   -2.3600   -1.2290    0.0000 C   0  0  0  0  0  0  0  0  0  0  0  0
    1.5000    2.5980    0.0000 C   0  0  0  0  0  0  0  0  0  0  0  0
    3.0000    2.5980    0.0000 C   0  0  0  0  0  0  0  0  0  0  0  0
    3.7500    1.2990    0.0000 C   0  0  0  0  0  0  0  0  0  0  0  0
    5.2500    1.3000    0.0000 C   0  0  0  0  0  0  0  0  0  0  0  0
    6.0000    0.0010    0.0000 C   0  0  0  0  0  0  0  0  0  0  0  0
    7.5000    0.0010    0.0000 O   0  0  0  0  0  0  0  0  0  0  0  0
    5.2500   -1.2980    0.0000 C   0  0  0  0  0  0  0  0  0  0  0  0
    3.7500   -1.2990    0.0000 C   0  0  0  0  0  0  0  0  0  0  0  0
    3.0000    0.0000    0.0000 C   0  0  2  0  0  0  0  0  0  0  0  0
    2.2500   -1.2990    0.0000 C   0  0  0  0  0  0  0  0  0  0  0  0
  2  1  1  6  0  0  0
  2  3  1  0  0  0  0
  2 15  1  0  0  0  0
  2 26  1  0  0  0  0
  3  4  1  0  0  0  0
  3 18  1  6  0  0  0
  4  5  1  1  0  0  0
  4 13  1  0  0  0  0
  5  6  1  0  0  0  0
  6  7  1  6  0  0  0
  6  8  1  0  0  0  0
  8  9  1  1  0  0  0
  8 13  1  0  0  0  0
  9 10  2  0  0  0  0
  9 11  1  0  0  0  0
 11 12  1  0  0  0  0
 13 14  1  0  0  0  0
 13 17  1  1  0  0  0
 14 15  1  0  0  0  0
 15 16  1  1  0  0  0
 18 19  1  0  0  0  0
 19 20  1  0  0  0  0
 20 21  2  0  0  0  0
 20 26  1  0  0  0  0
 21 22  1  0  0  0  0
 22 23  2  0  0  0  0
 22 24  1  0  0  0  0
 24 25  2  0  0  0  0
 25 26  1  0  0  0  0
 26 27  1  1  0  0  0
M  END
>  <Index>
299

>  <ID>
HT0617

>  <class>
0

>  <apol>
61.821999

>  <ast_fraglike>
0

>  <ast_fraglike_ext>
0

>  <ast_violation>
2

>  <ast_violation_ext>
2

>  <a_acc>
4

>  <a_acid>
0

>  <a_aro>
0

>  <a_base>
0

>  <a_count>
56

>  <a_don>
2

>  <a_donacc>
6

>  <a_heavy>
27

>  <a_hyd>
21

>  <a_IC>
78.222931

>  <a_ICM>
1.3968381

>  <a_nB>
0

>  <a_nBr>
0

>  <a_nC>
22

>  <a_nCl>
0

>  <a_nF>
1

>  <a_nH>
29

>  <a_nI>
0

>  <a_nN>
0

>  <a_nO>
4

>  <a_nP>
0

>  <a_nS>
0

>  <balabanJ>
1.7321689

>  <BCUT_PEOE_0>
-2.9014521

>  <BCUT_PEOE_1>
-0.51136088

>  <BCUT_PEOE_2>
0.47944638

>  <BCUT_PEOE_3>
2.987427

>  <BCUT_SLOGP_0>
-2.9129331

>  <BCUT_SLOGP_1>
-0.44754565

>  <BCUT_SLOGP_2>
0.50885612

>  <BCUT_SLOGP_3>
3.0104101

>  <BCUT_SMR_0>
-2.6712139

>  <BCUT_SMR_1>
-0.34357587

>  <BCUT_SMR_2>
0.63014883

>  <BCUT_SMR_3>
3.2214882

>  <bpol>
34.822002

>  <b_1rotN>
2

>  <b_1rotR>
0.06666667

>  <b_ar>
0

>  <b_count>
59

>  <b_double>
4

>  <b_heavy>
30

>  <b_max1len>
5

>  <b_rotN>
2

>  <b_rotR>
0.06666667

>  <b_single>
55

>  <b_triple>
0

>  <chi0>
19.775656

>  <chi0v>
16.243225

>  <chi0v_C>
14.154336

>  <chi0_C>
14.775657

>  <chi1>
12.591225

>  <chi1v>
10.040737

>  <chi1v_C>
8.8690796

>  <chi1_C>
9.6520672

>  <chiral>
8

>  <chiral_u>
0

>  <density>
0.74328136

>  <diameter>
12

>  <FCharge>
0

>  <GCUT_PEOE_0>
-0.79701203

>  <GCUT_PEOE_1>
-0.39927205

>  <GCUT_PEOE_2>
0.010995305

>  <GCUT_PEOE_3>
3.3518479

>  <GCUT_SLOGP_0>
-0.92167383

>  <GCUT_SLOGP_1>
-0.31919318

>  <GCUT_SLOGP_2>
-0.0012315814

>  <GCUT_SLOGP_3>
3.3935077

>  <GCUT_SMR_0>
-0.53790206

>  <GCUT_SMR_1>
-0.22394079

>  <GCUT_SMR_2>
0.14859307

>  <GCUT_SMR_3>
3.5715549

>  <Kier1>
20.280001

>  <Kier2>
6.5

>  <Kier3>
2.5258896

>  <KierA1>
17.675766

>  <KierA2>
5.6338954

>  <KierA3>
2.1803036

>  <KierFlex>
3.6882746

>  <lip_acc>
4

>  <lip_don>
2

>  <lip_druglike>
1

>  <lip_violation>
0

>  <logP(o/w)>
2.6029999

>  <logS>
-4.0784998

>  <mr>
9.9723063

>  <mutagenic>
0

>  <nmol>
1

>  <opr_brigid>
20

>  <opr_leadlike>
1

>  <opr_nring>
4

>  <opr_nrot>
2

>  <opr_violation>
0

>  <PC+>
0

>  <PC->
0

>  <PEOE_PC+>
2.1350932

>  <PEOE_PC->
-2.1350932

>  <PEOE_RPC+>
0.098341294

>  <PEOE_RPC->
0.18199757

>  <PEOE_VSA+0>
89.573105

>  <PEOE_VSA+1>
30.497244

>  <PEOE_VSA+2>
14.951293

>  <PEOE_VSA+3>
16.917038

>  <PEOE_VSA+4>
20.648346

>  <PEOE_VSA+5>
0

>  <PEOE_VSA+6>
0

>  <PEOE_VSA-0>
78.062737

>  <PEOE_VSA-1>
51.958797

>  <PEOE_VSA-2>
0

>  <PEOE_VSA-3>
0

>  <PEOE_VSA-4>
11.908636

>  <PEOE_VSA-5>
27.133842

>  <PEOE_VSA-6>
15.535081

>  <PEOE_VSA_FHYD>
0.78939301

>  <PEOE_VSA_FNEG>
0.51681483

>  <PEOE_VSA_FPNEG>
0.15279865

>  <PEOE_VSA_FPOL>
0.21060702

>  <PEOE_VSA_FPOS>
0.48318514

>  <PEOE_VSA_FPPOS>
0.057808362

>  <PEOE_VSA_HYD>
281.96021

>  <PEOE_VSA_NEG>
184.59909

>  <PEOE_VSA_PNEG>
54.577557

>  <PEOE_VSA_POL>
75.225906

>  <PEOE_VSA_POS>
172.58702

>  <PEOE_VSA_PPOS>
20.648346

>  <petitjean>
0.5

>  <petitjeanSC>
1

>  <Q_PC+>
0

>  <Q_PC->
0

>  <Q_RPC+>
0

>  <Q_RPC->
0

>  <Q_VSA_FHYD>
1

>  <Q_VSA_FNEG>
0

>  <Q_VSA_FPNEG>
0

>  <Q_VSA_FPOL>
0

>  <Q_VSA_FPOS>
1

>  <Q_VSA_FPPOS>
0

>  <Q_VSA_HYD>
357.18613

>  <Q_VSA_NEG>
0

>  <Q_VSA_PNEG>
0

>  <Q_VSA_POL>
0

>  <Q_VSA_POS>
357.18613

>  <Q_VSA_PPOS>
0

>  <radius>
6

>  <reactive>
1

>  <rings>
4

>  <RPC+>
0

>  <RPC->
0

>  <rsynth>
0.33333334

>  <SlogP>
2.7808001

>  <SlogP_VSA0>
50.770454

>  <SlogP_VSA1>
11.375222

>  <SlogP_VSA2>
54.193081

>  <SlogP_VSA3>
20.926258

>  <SlogP_VSA4>
17.643185

>  <SlogP_VSA5>
3.185575

>  <SlogP_VSA6>
0

>  <SlogP_VSA7>
52.929554

>  <SlogP_VSA8>
75.473625

>  <SlogP_VSA9>
114.93816

>  <SMR>
9.8484602

>  <SMR_VSA0>
47.724434

>  <SMR_VSA1>
65.730568

>  <SMR_VSA2>
17.643185

>  <SMR_VSA3>
9.6542244

>  <SMR_VSA4>
0

>  <SMR_VSA5>
128.40317

>  <SMR_VSA6>
32.301479

>  <SMR_VSA7>
99.978043

>  <TPSA>
74.599998

>  <VAdjEq>
0.41024774

>  <VAdjMa>
5.9068904

>  <VDistEq>
3.1495242

>  <VDistMa>
9.2519932

>  <vdw_area>
357.18613

>  <vdw_vol>
506.49457

>  <vsa_acc>
27.133842

>  <vsa_acid>
0

>  <vsa_base>
0

>  <vsa_don>
0

>  <vsa_hyd>
252.35313

>  <vsa_other>
16.917038

>  <vsa_pol>
54.267685

>  <Weight>
376.46799

>  <weinerPath>
1541

>  <weinerPol>
63

>  <zagreb>
160

$$$$