S(=O)(=O)(CCN(CC)CC)C1C2N(CC1)C(=O)c1nc(oc1)CC(=O)CC(O)C=C(C=CCNC(=O)C=CC(C)C(OC2=O)C(C)C)/C
  MOE2013           2D

 48 50  0  0  1  0  0  0  0  0999 V2000
    0.0000    0.0000    0.0000 S   0  0  0  0  0  0  0  0  0  0  0  0
   -0.7390    1.3050    0.0000 O   0  0  0  0  0  0  0  0  0  0  0  0
    0.7390   -1.3050    0.0000 O   0  0  0  0  0  0  0  0  0  0  0  0
    1.3050    0.7390    0.0000 C   0  0  0  0  0  0  0  0  0  0  0  0
    2.5980   -0.0220    0.0000 C   0  0  0  0  0  0  0  0  0  0  0  0
    3.9030    0.7160    0.0000 N   0  0  0  0  0  0  0  0  0  0  0  0
    5.1960   -0.0450    0.0000 C   0  0  0  0  0  0  0  0  0  0  0  0
    6.5010    0.6940    0.0000 C   0  0  0  0  0  0  0  0  0  0  0  0
    3.9160    2.2160    0.0000 C   0  0  0  0  0  0  0  0  0  0  0  0
    5.2220    2.9550    0.0000 C   0  0  0  0  0  0  0  0  0  0  0  0
   -1.3050   -0.7390    0.0000 C   0  0  3  0  0  0  0  0  0  0  0  0
   -2.6820   -0.1450    0.0000 C   0  0  3  0  0  0  0  0  0  0  0  0
   -3.6520   -1.1330    0.0000 N   0  0  0  0  0  0  0  0  0  0  0  0
   -3.0120   -2.5010    0.0000 C   0  0  0  0  0  0  0  0  0  0  0  0
   -1.5090   -2.2530    0.0000 C   0  0  0  0  0  0  0  0  0  0  0  0
   -5.0180   -1.3340    0.0000 C   0  0  0  0  0  0  0  0  0  0  0  0
   -5.6340    0.0340    0.0000 O   0  0  0  0  0  0  0  0  0  0  0  0
   -6.0430   -2.1990    0.0000 C   0  0  0  0  0  0  0  0  0  0  0  0
   -7.5120   -2.1620    0.0000 N   0  0  0  0  0  0  0  0  0  0  0  0
   -7.9710   -3.5520    0.0000 C   0  0  0  0  0  0  0  0  0  0  0  0
   -6.8300   -4.4840    0.0000 O   0  0  0  0  0  0  0  0  0  0  0  0
   -5.5580   -3.5950    0.0000 C   0  0  0  0  0  0  0  0  0  0  0  0
   -9.1470   -4.2240    0.0000 C   0  0  0  0  0  0  0  0  0  0  0  0
  -10.5610   -3.5820    0.0000 C   0  0  0  0  0  0  0  0  0  0  0  0
  -11.8010   -4.4260    0.0000 O   0  0  0  0  0  0  0  0  0  0  0  0
  -10.6370   -2.1180    0.0000 C   0  0  0  0  0  0  0  0  0  0  0  0
  -11.8950   -1.3270    0.0000 C   0  0  3  0  0  0  0  0  0  0  0  0
  -13.2360   -2.0000    0.0000 O   0  0  0  0  0  0  0  0  0  0  0  0
  -11.7750    0.1850    0.0000 C   0  0  0  0  0  0  0  0  0  0  0  0
  -12.9510    1.0590    0.0000 C   0  0  0  0  0  0  0  0  0  0  0  0
  -12.7570    2.5840    0.0000 C   0  0  0  0  0  0  0  0  0  0  0  0
  -11.3200    3.0750    0.0000 C   0  0  0  0  0  0  0  0  0  0  0  0
  -11.0200    4.5190    0.0000 C   0  0  0  0  0  0  0  0  0  0  0  0
   -9.6600    5.0790    0.0000 N   0  0  0  0  0  0  0  0  0  0  0  0
   -8.4260    4.2760    0.0000 C   0  0  0  0  0  0  0  0  0  0  0  0
   -8.5470    2.7810    0.0000 O   0  0  0  0  0  0  0  0  0  0  0  0
   -7.0670    4.8770    0.0000 C   0  0  0  0  0  0  0  0  0  0  0  0
   -5.8430    3.9990    0.0000 C   0  0  0  0  0  0  0  0  0  0  0  0
   -4.4790    4.7020    0.0000 C   0  0  3  0  0  0  0  0  0  0  0  0
   -4.3310    6.1950    0.0000 C   0  0  0  0  0  0  0  0  0  0  0  0
   -3.2690    3.7380    0.0000 C   0  0  3  0  0  0  0  0  0  0  0  0
   -3.6100    2.2710    0.0000 O   0  0  0  0  0  0  0  0  0  0  0  0
   -2.5310    1.2380    0.0000 C   0  0  0  0  0  0  0  0  0  0  0  0
   -1.1210    1.7520    0.0000 O   0  0  0  0  0  0  0  0  0  0  0  0
   -1.8530    4.2320    0.0000 C   0  0  0  0  0  0  0  0  0  0  0  0
   -0.7170    3.2520    0.0000 C   0  0  0  0  0  0  0  0  0  0  0  0
   -1.5720    5.7050    0.0000 C   0  0  0  0  0  0  0  0  0  0  0  0
  -14.3310    0.4720    0.0000 C   0  0  0  0  0  0  0  0  0  0  0  0
  1  2  2  0  0  0  0
  1  3  2  0  0  0  0
  1  4  1  0  0  0  0
  1 11  1  0  0  0  0
  4  5  1  0  0  0  0
  5  6  1  0  0  0  0
  6  7  1  0  0  0  0
  6  9  1  0  0  0  0
  7  8  1  0  0  0  0
  9 10  1  0  0  0  0
 11 12  1  0  0  0  0
 11 15  1  0  0  0  0
 12 13  1  0  0  0  0
 12 43  1  0  0  0  0
 13 14  1  0  0  0  0
 13 16  1  0  0  0  0
 14 15  1  0  0  0  0
 16 17  2  0  0  0  0
 16 18  1  0  0  0  0
 18 19  1  0  0  0  0
 18 22  2  0  0  0  0
 19 20  2  0  0  0  0
 20 21  1  0  0  0  0
 20 23  1  0  0  0  0
 21 22  1  0  0  0  0
 23 24  1  0  0  0  0
 24 25  2  0  0  0  0
 24 26  1  0  0  0  0
 26 27  1  0  0  0  0
 27 28  1  0  0  0  0
 27 29  1  0  0  0  0
 29 30  2  3  0  0  0
 30 31  1  0  0  0  0
 30 48  1  0  0  0  0
 31 32  2  3  0  0  0
 32 33  1  0  0  0  0
 33 34  1  0  0  0  0
 34 35  1  0  0  0  0
 35 36  2  0  0  0  0
 35 37  1  0  0  0  0
 37 38  2  3  0  0  0
 38 39  1  0  0  0  0
 39 40  1  0  0  0  0
 39 41  1  0  0  0  0
 41 42  1  0  0  0  0
 41 45  1  0  0  0  0
 42 43  1  0  0  0  0
 43 44  2  0  0  0  0
 45 46  1  0  0  0  0
 45 47  1  0  0  0  0
M  END
>  <Index>
278

>  <ID>
HT0585

>  <class>
0

>  <apol>
107.69765

>  <ast_fraglike>
0

>  <ast_fraglike_ext>
0

>  <ast_violation>
2

>  <ast_violation_ext>
4

>  <a_acc>
9

>  <a_acid>
0

>  <a_aro>
5

>  <a_base>
0

>  <a_count>
98

>  <a_don>
2

>  <a_donacc>
11

>  <a_heavy>
48

>  <a_hyd>
28

>  <a_IC>
156.5457

>  <a_ICM>
1.5974051

>  <a_nB>
0

>  <a_nBr>
0

>  <a_nC>
34

>  <a_nCl>
0

>  <a_nF>
0

>  <a_nH>
50

>  <a_nI>
0

>  <a_nN>
4

>  <a_nO>
9

>  <a_nP>
0

>  <a_nS>
1

>  <balabanJ>
1.8572733

>  <BCUT_PEOE_0>
-2.7034767

>  <BCUT_PEOE_1>
-0.47758964

>  <BCUT_PEOE_2>
0.4690465

>  <BCUT_PEOE_3>
2.8573668

>  <BCUT_SLOGP_0>
-2.822408

>  <BCUT_SLOGP_1>
-0.45346338

>  <BCUT_SLOGP_2>
0.44538924

>  <BCUT_SLOGP_3>
2.7125032

>  <BCUT_SMR_0>
-2.4552402

>  <BCUT_SMR_1>
-0.32980219

>  <BCUT_SMR_2>
0.60780495

>  <BCUT_SMR_3>
3.1013515

>  <bpol>
74.740349

>  <b_1rotN>
7

>  <b_1rotR>
0.14

>  <b_ar>
5

>  <b_count>
100

>  <b_double>
7

>  <b_heavy>
50

>  <b_max1len>
8

>  <b_rotN>
7

>  <b_rotR>
0.14

>  <b_single>
88

>  <b_triple>
0

>  <chi0>
35.595284

>  <chi0v>
29.571751

>  <chi0v_C>
22.792164

>  <chi0_C>
24.112156

>  <chi1>
22.659142

>  <chi1v>
18.283342

>  <chi1v_C>
10.958379

>  <chi1_C>
12.381013

>  <chiral>
5

>  <chiral_u>
5

>  <density>
0.7555421

>  <diameter>
19

>  <FCharge>
0

>  <GCUT_PEOE_0>
-0.90881801

>  <GCUT_PEOE_1>
-0.38948488

>  <GCUT_PEOE_2>
0.024954429

>  <GCUT_PEOE_3>
3.132839

>  <GCUT_SLOGP_0>
-1.1614563

>  <GCUT_SLOGP_1>
-0.34491292

>  <GCUT_SLOGP_2>
0.0059297103

>  <GCUT_SLOGP_3>
3.0816691

>  <GCUT_SMR_0>
-0.53109246

>  <GCUT_SMR_1>
-0.19256528

>  <GCUT_SMR_2>
0.14159597

>  <GCUT_SMR_3>
3.3619237

>  <Kier1>
42.4128

>  <Kier2>
20.296326

>  <Kier3>
12.874527

>  <KierA1>
36.330753

>  <KierA2>
17.32626

>  <KierA3>
10.964476

>  <KierFlex>
13.114084

>  <lip_acc>
13

>  <lip_don>
2

>  <lip_druglike>
0

>  <lip_violation>
2

>  <logP(o/w)>
0.98799998

>  <logS>
-4.6760201

>  <mr>
18.324139

>  <mutagenic>
0

>  <nmol>
1

>  <opr_brigid>
30

>  <opr_leadlike>
0

>  <opr_nring>
2

>  <opr_nrot>
21

>  <opr_violation>
3

>  <PC+>
0

>  <PC->
0

>  <PEOE_PC+>
5.1707468

>  <PEOE_PC->
-5.1707468

>  <PEOE_RPC+>
0.057128262

>  <PEOE_RPC->
0.092515133

>  <PEOE_VSA+0>
171.57831

>  <PEOE_VSA+1>
91.589439

>  <PEOE_VSA+2>
44.024948

>  <PEOE_VSA+3>
25.995939

>  <PEOE_VSA+4>
40.000206

>  <PEOE_VSA+5>
27.65803

>  <PEOE_VSA+6>
0

>  <PEOE_VSA-0>
57.38723

>  <PEOE_VSA-1>
144.96654

>  <PEOE_VSA-2>
0

>  <PEOE_VSA-3>
6.5127993

>  <PEOE_VSA-4>
5.6825762

>  <PEOE_VSA-5>
54.267685

>  <PEOE_VSA-6>
44.928467

>  <PEOE_VSA_FHYD>
0.75855184

>  <PEOE_VSA_FNEG>
0.43905506

>  <PEOE_VSA_FPNEG>
0.14676724

>  <PEOE_VSA_FPOL>
0.24144815

>  <PEOE_VSA_FPOS>
0.56094497

>  <PEOE_VSA_FPPOS>
0.094680905

>  <PEOE_VSA_HYD>
542.05524

>  <PEOE_VSA_NEG>
313.7453

>  <PEOE_VSA_PNEG>
104.87872

>  <PEOE_VSA_POL>
172.53696

>  <PEOE_VSA_POS>
400.84689

>  <PEOE_VSA_PPOS>
67.658234

>  <petitjean>
0.42105263

>  <petitjeanSC>
0.72727275

>  <Q_PC+>
0

>  <Q_PC->
0

>  <Q_RPC+>
0

>  <Q_RPC->
0

>  <Q_VSA_FHYD>
1

>  <Q_VSA_FNEG>
0

>  <Q_VSA_FPNEG>
0

>  <Q_VSA_FPOL>
0

>  <Q_VSA_FPOS>
1

>  <Q_VSA_FPPOS>
0

>  <Q_VSA_HYD>
714.59216

>  <Q_VSA_NEG>
0

>  <Q_VSA_PNEG>
0

>  <Q_VSA_POL>
0

>  <Q_VSA_POS>
714.59216

>  <Q_VSA_PPOS>
0

>  <radius>
11

>  <reactive>
1

>  <rings>
3

>  <RPC+>
0

>  <RPC->
0

>  <rsynth>
0.77083331

>  <SlogP>
2.2692699

>  <SlogP_VSA0>
43.395977

>  <SlogP_VSA1>
95.156487

>  <SlogP_VSA2>
109.16103

>  <SlogP_VSA3>
109.43146

>  <SlogP_VSA4>
40.460548

>  <SlogP_VSA5>
31.561327

>  <SlogP_VSA6>
0

>  <SlogP_VSA7>
108.12235

>  <SlogP_VSA8>
37.736813

>  <SlogP_VSA9>
199.95609

>  <SMR>
17.957081

>  <SMR_VSA0>
164.12779

>  <SMR_VSA1>
48.419384

>  <SMR_VSA2>
26.832342

>  <SMR_VSA3>
30.657537

>  <SMR_VSA4>
0

>  <SMR_VSA5>
164.72757

>  <SMR_VSA6>
133.3821

>  <SMR_VSA7>
206.83536

>  <TPSA>
176.42

>  <VAdjEq>
0.25768197

>  <VAdjMa>
6.643856

>  <VDistEq>
3.9240987

>  <VDistMa>
10.935617

>  <vdw_area>
714.59216

>  <vdw_vol>
914.38849

>  <vsa_acc>
91.966782

>  <vsa_acid>
0

>  <vsa_base>
0

>  <vsa_don>
5.6825762

>  <vsa_hyd>
463.32709

>  <vsa_other>
95.594398

>  <vsa_pol>
111.21628

>  <Weight>
690.85901

>  <weinerPath>
8581

>  <weinerPol>
76

>  <zagreb>
240

$$$$