O=C(N(CC)c1ccccc1C)C=CC
  MOE2013           2D

 15 15  0  0  0  0  0  0  0  0999 V2000
    0.0000    0.0000    0.0000 O   0  0  0  0  0  0  0  0  0  0  0  0
    0.7590   -1.2940    0.0000 C   0  0  0  0  0  0  0  0  0  0  0  0
    0.0180   -2.5980    0.0000 N   0  0  0  0  0  0  0  0  0  0  0  0
    0.7770   -3.8920    0.0000 C   0  0  0  0  0  0  0  0  0  0  0  0
    2.2770   -3.8820    0.0000 C   0  0  0  0  0  0  0  0  0  0  0  0
   -1.4820   -2.6080    0.0000 C   0  0  0  0  0  0  0  0  0  0  0  0
   -2.2410   -1.3140    0.0000 C   0  0  0  0  0  0  0  0  0  0  0  0
   -3.7410   -1.3250    0.0000 C   0  0  0  0  0  0  0  0  0  0  0  0
   -4.4820   -2.6290    0.0000 C   0  0  0  0  0  0  0  0  0  0  0  0
   -3.7230   -3.9230    0.0000 C   0  0  0  0  0  0  0  0  0  0  0  0
   -2.2230   -3.9120    0.0000 C   0  0  0  0  0  0  0  0  0  0  0  0
   -1.4640   -5.2060    0.0000 C   0  0  0  0  0  0  0  0  0  0  0  0
    2.2590   -1.2840    0.0000 C   0  0  0  0  0  0  0  0  0  0  0  0
    3.0000    0.0210    0.0000 C   0  0  0  0  0  0  0  0  0  0  0  0
    4.5000    0.0310    0.0000 C   0  0  0  0  0  0  0  0  0  0  0  0
  1  2  2  0  0  0  0
  2  3  1  0  0  0  0
  2 13  1  0  0  0  0
  3  4  1  0  0  0  0
  3  6  1  0  0  0  0
  4  5  1  0  0  0  0
  6  7  1  0  0  0  0
  6 11  2  0  0  0  0
  7  8  2  0  0  0  0
  8  9  1  0  0  0  0
  9 10  2  0  0  0  0
 10 11  1  0  0  0  0
 11 12  1  0  0  0  0
 13 14  2  3  0  0  0
 14 15  1  0  0  0  0
M  END
>  <Index>
265

>  <ID>
HT0558

>  <class>
0

>  <apol>
36.117481

>  <ast_fraglike>
1

>  <ast_fraglike_ext>
1

>  <ast_violation>
0

>  <ast_violation_ext>
0

>  <a_acc>
1

>  <a_acid>
0

>  <a_aro>
6

>  <a_base>
0

>  <a_count>
32

>  <a_don>
0

>  <a_donacc>
1

>  <a_heavy>
15

>  <a_hyd>
12

>  <a_IC>
42.407413

>  <a_ICM>
1.3252317

>  <a_nB>
0

>  <a_nBr>
0

>  <a_nC>
13

>  <a_nCl>
0

>  <a_nF>
0

>  <a_nH>
17

>  <a_nI>
0

>  <a_nN>
1

>  <a_nO>
1

>  <a_nP>
0

>  <a_nS>
0

>  <balabanJ>
2.5663211

>  <BCUT_PEOE_0>
-2.5020611

>  <BCUT_PEOE_1>
-0.50837231

>  <BCUT_PEOE_2>
0.53774881

>  <BCUT_PEOE_3>
2.4348965

>  <BCUT_SLOGP_0>
-2.5532346

>  <BCUT_SLOGP_1>
-0.41332141

>  <BCUT_SLOGP_2>
0.6088438

>  <BCUT_SLOGP_3>
2.4809005

>  <BCUT_SMR_0>
-2.2007573

>  <BCUT_SMR_1>
-0.3523612

>  <BCUT_SMR_2>
0.68749076

>  <BCUT_SMR_3>
2.7447662

>  <bpol>
21.522518

>  <b_1rotN>
4

>  <b_1rotR>
0.26666668

>  <b_ar>
6

>  <b_count>
32

>  <b_double>
2

>  <b_heavy>
15

>  <b_max1len>
3

>  <b_rotN>
4

>  <b_rotR>
0.26666668

>  <b_single>
24

>  <b_triple>
0

>  <chi0>
11.259149

>  <chi0v>
9.5266705

>  <chi0v_C>
8.6712084

>  <chi0_C>
9.681798

>  <chi1>
7.2019072

>  <chi1v>
5.2013812

>  <chi1v_C>
4.2338157

>  <chi1_C>
5.5496421

>  <chiral>
0

>  <chiral_u>
0

>  <density>
0.64936036

>  <diameter>
8

>  <FCharge>
0

>  <GCUT_PEOE_0>
-0.82676142

>  <GCUT_PEOE_1>
-0.35954532

>  <GCUT_PEOE_2>
0.034581136

>  <GCUT_PEOE_3>
2.387471

>  <GCUT_SLOGP_0>
-0.99270976

>  <GCUT_SLOGP_1>
-0.24260658

>  <GCUT_SLOGP_2>
0.10223323

>  <GCUT_SLOGP_3>
2.486232

>  <GCUT_SMR_0>
-0.50759137

>  <GCUT_SMR_1>
-0.18070158

>  <GCUT_SMR_2>
0.15480357

>  <GCUT_SMR_3>
2.6814167

>  <Kier1>
13.066667

>  <Kier2>
6.5540166

>  <Kier3>
3.5

>  <KierA1>
9.3530731

>  <KierA2>
4.5676761

>  <KierA3>
2.3861127

>  <KierFlex>
2.8481205

>  <lip_acc>
2

>  <lip_don>
0

>  <lip_druglike>
1

>  <lip_violation>
0

>  <logP(o/w)>
2.675

>  <logS>
-2.79529

>  <mr>
6.366457

>  <mutagenic>
0

>  <nmol>
1

>  <opr_brigid>
7

>  <opr_leadlike>
1

>  <opr_nring>
1

>  <opr_nrot>
3

>  <opr_violation>
0

>  <PC+>
0

>  <PC->
0

>  <PEOE_PC+>
1.0334711

>  <PEOE_PC->
-1.0334711

>  <PEOE_RPC+>
0.24326052

>  <PEOE_RPC->
0.2987006

>  <PEOE_VSA+0>
66.811119

>  <PEOE_VSA+1>
25.592316

>  <PEOE_VSA+2>
0

>  <PEOE_VSA+3>
0

>  <PEOE_VSA+4>
0

>  <PEOE_VSA+5>
12.949531

>  <PEOE_VSA+6>
0

>  <PEOE_VSA-0>
82.96138

>  <PEOE_VSA-1>
49.019615

>  <PEOE_VSA-2>
0

>  <PEOE_VSA-3>
0

>  <PEOE_VSA-4>
0

>  <PEOE_VSA-5>
13.566921

>  <PEOE_VSA-6>
0

>  <PEOE_VSA_FHYD>
0.894315

>  <PEOE_VSA_FNEG>
0.58010125

>  <PEOE_VSA_FPNEG>
0.054072831

>  <PEOE_VSA_FPOL>
0.10568497

>  <PEOE_VSA_FPOS>
0.41989875

>  <PEOE_VSA_FPPOS>
0.051612139

>  <PEOE_VSA_HYD>
224.38443

>  <PEOE_VSA_NEG>
145.54791

>  <PEOE_VSA_PNEG>
13.566921

>  <PEOE_VSA_POL>
26.516451

>  <PEOE_VSA_POS>
105.35297

>  <PEOE_VSA_PPOS>
12.949531

>  <petitjean>
0.5

>  <petitjeanSC>
1

>  <Q_PC+>
0

>  <Q_PC->
0

>  <Q_RPC+>
0

>  <Q_RPC->
0

>  <Q_VSA_FHYD>
1

>  <Q_VSA_FNEG>
0

>  <Q_VSA_FPNEG>
0

>  <Q_VSA_FPOL>
0

>  <Q_VSA_FPOS>
1

>  <Q_VSA_FPPOS>
0

>  <Q_VSA_HYD>
250.90088

>  <Q_VSA_NEG>
0

>  <Q_VSA_PNEG>
0

>  <Q_VSA_POL>
0

>  <Q_VSA_POS>
250.90088

>  <Q_VSA_PPOS>
0

>  <radius>
4

>  <reactive>
0

>  <rings>
1

>  <RPC+>
0

>  <RPC->
0

>  <rsynth>
1

>  <SlogP>
2.9240201

>  <SlogP_VSA0>
3.1243138

>  <SlogP_VSA1>
5.2587838

>  <SlogP_VSA2>
23.862217

>  <SlogP_VSA3>
18.439579

>  <SlogP_VSA4>
3.185575

>  <SlogP_VSA5>
0

>  <SlogP_VSA6>
0

>  <SlogP_VSA7>
105.85911

>  <SlogP_VSA8>
0

>  <SlogP_VSA9>
102.73479

>  <SMR>
6.402

>  <SMR_VSA0>
23.862217

>  <SMR_VSA1>
0

>  <SMR_VSA2>
3.1243138

>  <SMR_VSA3>
3.185575

>  <SMR_VSA4>
2.7567475

>  <SMR_VSA5>
105.85911

>  <SMR_VSA6>
23.698362

>  <SMR_VSA7>
99.978043

>  <TPSA>
20.309999

>  <VAdjEq>
0.56650949

>  <VAdjMa>
4.9068904

>  <VDistEq>
2.7283356

>  <VDistMa>
7.5326376

>  <vdw_area>
250.90088

>  <vdw_vol>
313.0542

>  <vsa_acc>
13.566921

>  <vsa_acid>
0

>  <vsa_base>
0

>  <vsa_don>
0

>  <vsa_hyd>
212.28392

>  <vsa_other>
12.949531

>  <vsa_pol>
13.566921

>  <Weight>
203.28499

>  <weinerPath>
366

>  <weinerPol>
21

>  <zagreb>
68

$$$$