S1[C@H]2N([C@@H](C(O)=O)C1(C)C)C(=O)[C@H]2NC(=O)C1(N)CCCCC1
  MOE2013           2D

 23 25  0  0  1  0  0  0  0  0999 V2000
    0.0000    0.0000    0.0000 S   0  0  0  0  0  0  0  0  0  0  0  0
    1.3060    0.7370    0.0000 C   0  0  1  0  0  0  0  0  0  0  0  0
    1.0090    2.2070    0.0000 N   0  0  0  0  0  0  0  0  0  0  0  0
   -0.4810    2.3790    0.0000 C   0  0  1  0  0  0  0  0  0  0  0  0
   -1.2180    3.6850    0.0000 C   0  0  0  0  0  0  0  0  0  0  0  0
   -2.7180    3.7000    0.0000 O   0  0  0  0  0  0  0  0  0  0  0  0
   -0.4550    4.9770    0.0000 O   0  0  0  0  0  0  0  0  0  0  0  0
   -1.1050    1.0150    0.0000 C   0  0  0  0  0  0  0  0  0  0  0  0
   -2.2030   -0.0070    0.0000 C   0  0  0  0  0  0  0  0  0  0  0  0
   -2.5140    1.5300    0.0000 C   0  0  0  0  0  0  0  0  0  0  0  0
    2.4800    2.5040    0.0000 C   0  0  0  0  0  0  0  0  0  0  0  0
    3.3090    3.7540    0.0000 O   0  0  0  0  0  0  0  0  0  0  0  0
    2.7770    1.0340    0.0000 C   0  0  1  0  0  0  0  0  0  0  0  0
    4.0270    0.2050    0.0000 N   0  0  0  0  0  0  0  0  0  0  0  0
    5.3700    0.8720    0.0000 C   0  0  0  0  0  0  0  0  0  0  0  0
    5.4630    2.3690    0.0000 O   0  0  0  0  0  0  0  0  0  0  0  0
    6.6200    0.0430    0.0000 C   0  0  0  0  0  0  0  0  0  0  0  0
    5.2760   -0.6250    0.0000 N   0  0  0  0  0  0  0  0  0  0  0  0
    7.4490    1.2930    0.0000 C   0  0  0  0  0  0  0  0  0  0  0  0
    8.9460    1.1990    0.0000 C   0  0  0  0  0  0  0  0  0  0  0  0
    9.6140   -0.1440    0.0000 C   0  0  0  0  0  0  0  0  0  0  0  0
    8.7840   -1.3940    0.0000 C   0  0  0  0  0  0  0  0  0  0  0  0
    7.2870   -1.3000    0.0000 C   0  0  0  0  0  0  0  0  0  0  0  0
  1  8  1  0  0  0  0
  2  1  1  1  0  0  0
  2  3  1  0  0  0  0
  2 13  1  0  0  0  0
  3  4  1  0  0  0  0
  3 11  1  0  0  0  0
  4  5  1  6  0  0  0
  4  8  1  0  0  0  0
  5  6  1  0  0  0  0
  5  7  2  0  0  0  0
  8  9  1  0  0  0  0
  8 10  1  0  0  0  0
 11 12  2  0  0  0  0
 11 13  1  0  0  0  0
 13 14  1  1  0  0  0
 14 15  1  0  0  0  0
 15 16  2  0  0  0  0
 15 17  1  0  0  0  0
 17 18  1  0  0  0  0
 17 19  1  0  0  0  0
 17 23  1  0  0  0  0
 19 20  1  0  0  0  0
 20 21  1  0  0  0  0
 21 22  1  0  0  0  0
 22 23  1  0  0  0  0
M  END
>  <Index>
266

>  <ID>
HT0560

>  <class>
0

>  <apol>
51.144238

>  <ast_fraglike>
0

>  <ast_fraglike_ext>
0

>  <ast_violation>
3

>  <ast_violation_ext>
5

>  <a_acc>
5

>  <a_acid>
0

>  <a_aro>
0

>  <a_base>
0

>  <a_count>
46

>  <a_don>
4

>  <a_donacc>
9

>  <a_heavy>
23

>  <a_hyd>
13

>  <a_IC>
78.683678

>  <a_ICM>
1.7105148

>  <a_nB>
0

>  <a_nBr>
0

>  <a_nC>
15

>  <a_nCl>
0

>  <a_nF>
0

>  <a_nH>
23

>  <a_nI>
0

>  <a_nN>
3

>  <a_nO>
4

>  <a_nP>
0

>  <a_nS>
1

>  <balabanJ>
1.6734289

>  <BCUT_PEOE_0>
-2.7881651

>  <BCUT_PEOE_1>
-0.50128633

>  <BCUT_PEOE_2>
0.51993722

>  <BCUT_PEOE_3>
2.8548255

>  <BCUT_SLOGP_0>
-2.9367712

>  <BCUT_SLOGP_1>
-0.5156644

>  <BCUT_SLOGP_2>
0.49665058

>  <BCUT_SLOGP_3>
2.8313036

>  <BCUT_SMR_0>
-2.5387933

>  <BCUT_SMR_1>
-0.31800368

>  <BCUT_SMR_2>
0.62478864

>  <BCUT_SMR_3>
3.1343181

>  <bpol>
32.27776

>  <b_1rotN>
3

>  <b_1rotR>
0.12

>  <b_ar>
0

>  <b_count>
48

>  <b_double>
3

>  <b_heavy>
25

>  <b_max1len>
4

>  <b_rotN>
4

>  <b_rotR>
0.16

>  <b_single>
45

>  <b_triple>
0

>  <chi0>
16.991199

>  <chi0v>
14.188852

>  <chi0v_C>
9.7675848

>  <chi0_C>
9.9996357

>  <chi1>
10.672156

>  <chi1v>
8.8792791

>  <chi1v_C>
5.1564655

>  <chi1_C>
5.2844572

>  <chiral>
3

>  <chiral_u>
0

>  <density>
0.80917943

>  <diameter>
11

>  <FCharge>
0

>  <GCUT_PEOE_0>
-0.83820343

>  <GCUT_PEOE_1>
-0.39704508

>  <GCUT_PEOE_2>
0.063185751

>  <GCUT_PEOE_3>
2.839644

>  <GCUT_SLOGP_0>
-1.3637329

>  <GCUT_SLOGP_1>
-0.35024637

>  <GCUT_SLOGP_2>
0.071476713

>  <GCUT_SLOGP_3>
2.8001986

>  <GCUT_SMR_0>
-0.53801453

>  <GCUT_SMR_1>
-0.21575841

>  <GCUT_SMR_2>
0.19747944

>  <GCUT_SMR_3>
3.0861325

>  <Kier1>
17.811199

>  <Kier2>
6.0637498

>  <Kier3>
2.909091

>  <KierA1>
16.48138

>  <KierA2>
5.5903492

>  <KierA3>
2.6744988

>  <KierFlex>
4.0059423

>  <lip_acc>
7

>  <lip_don>
4

>  <lip_druglike>
1

>  <lip_violation>
0

>  <logP(o/w)>
0.87800002

>  <logS>
-2.8127401

>  <mr>
8.5905342

>  <mutagenic>
0

>  <nmol>
1

>  <opr_brigid>
14

>  <opr_leadlike>
1

>  <opr_nring>
3

>  <opr_nrot>
5

>  <opr_violation>
0

>  <PC+>
0

>  <PC->
0

>  <PEOE_PC+>
2.5330167

>  <PEOE_PC->
-2.5330167

>  <PEOE_RPC+>
0.11203105

>  <PEOE_RPC->
0.13448747

>  <PEOE_VSA+0>
68.246178

>  <PEOE_VSA+1>
12.796158

>  <PEOE_VSA+2>
28.65197

>  <PEOE_VSA+3>
8.6190128

>  <PEOE_VSA+4>
23.273705

>  <PEOE_VSA+5>
27.65803

>  <PEOE_VSA+6>
0

>  <PEOE_VSA-0>
54.89798

>  <PEOE_VSA-1>
26.103939

>  <PEOE_VSA-2>
19.760618

>  <PEOE_VSA-3>
0

>  <PEOE_VSA-4>
0

>  <PEOE_VSA-5>
40.700764

>  <PEOE_VSA-6>
14.555551

>  <PEOE_VSA_FHYD>
0.67353266

>  <PEOE_VSA_FNEG>
0.47966853

>  <PEOE_VSA_FPNEG>
0.16988148

>  <PEOE_VSA_FPOL>
0.32646737

>  <PEOE_VSA_FPOS>
0.5203315

>  <PEOE_VSA_FPPOS>
0.15658587

>  <PEOE_VSA_HYD>
219.07585

>  <PEOE_VSA_NEG>
156.01886

>  <PEOE_VSA_PNEG>
55.256313

>  <PEOE_VSA_POL>
106.18805

>  <PEOE_VSA_POS>
169.24506

>  <PEOE_VSA_PPOS>
50.931732

>  <petitjean>
0.45454547

>  <petitjeanSC>
0.83333331

>  <Q_PC+>
0

>  <Q_PC->
0

>  <Q_RPC+>
0

>  <Q_RPC->
0

>  <Q_VSA_FHYD>
1

>  <Q_VSA_FNEG>
0

>  <Q_VSA_FPNEG>
0

>  <Q_VSA_FPOL>
0

>  <Q_VSA_FPOS>
1

>  <Q_VSA_FPPOS>
0

>  <Q_VSA_HYD>
325.26392

>  <Q_VSA_NEG>
0

>  <Q_VSA_PNEG>
0

>  <Q_VSA_POL>
0

>  <Q_VSA_POS>
325.26392

>  <Q_VSA_PPOS>
0

>  <radius>
6

>  <reactive>
0

>  <rings>
3

>  <RPC+>
0

>  <RPC->
0

>  <rsynth>
1

>  <SlogP>
0.27970001

>  <SlogP_VSA0>
50.90794

>  <SlogP_VSA1>
21.387344

>  <SlogP_VSA2>
81.897713

>  <SlogP_VSA3>
25.385227

>  <SlogP_VSA4>
0

>  <SlogP_VSA5>
0

>  <SlogP_VSA6>
0

>  <SlogP_VSA7>
0

>  <SlogP_VSA8>
94.342026

>  <SlogP_VSA9>
98.871574

>  <SMR>
8.5662899

>  <SMR_VSA0>
71.586647

>  <SMR_VSA1>
3.1243138

>  <SMR_VSA2>
43.395977

>  <SMR_VSA3>
10.311065

>  <SMR_VSA4>
32.897186

>  <SMR_VSA5>
94.342026

>  <SMR_VSA6>
18.263031

>  <SMR_VSA7>
98.871574

>  <TPSA>
112.73

>  <VAdjEq>
0.45137304

>  <VAdjMa>
5.643856

>  <VDistEq>
3.2411358

>  <VDistMa>
8.7549887

>  <vdw_area>
325.26392

>  <vdw_vol>
421.94843

>  <vsa_acc>
27.133842

>  <vsa_acid>
0

>  <vsa_base>
0

>  <vsa_don>
5.6825762

>  <vsa_hyd>
179.6947

>  <vsa_other>
40.607563

>  <vsa_pol>
77.692749

>  <Weight>
341.43201

>  <weinerPath>
1167

>  <weinerPol>
39

>  <zagreb>
130

$$$$