s1cccc1CC(=O)N[C@H]1[C@H]2SCC(COC(=O)C)=C(N2C1=O)C(O)=O
  MOE2013           2D

 26 28  0  0  1  0  0  0  0  0999 V2000
    0.0000    0.0000    0.0000 S   0  0  0  0  0  0  0  0  0  0  0  0
   -1.4640    0.3290    0.0000 C   0  0  0  0  0  0  0  0  0  0  0  0
   -2.2280   -0.9620    0.0000 C   0  0  0  0  0  0  0  0  0  0  0  0
   -1.2380   -2.0880    0.0000 C   0  0  0  0  0  0  0  0  0  0  0  0
    0.1400   -1.4930    0.0000 C   0  0  0  0  0  0  0  0  0  0  0  0
    1.4300   -2.2580    0.0000 C   0  0  0  0  0  0  0  0  0  0  0  0
    2.7380   -1.5230    0.0000 C   0  0  0  0  0  0  0  0  0  0  0  0
    2.7550   -0.0230    0.0000 O   0  0  0  0  0  0  0  0  0  0  0  0
    4.0280   -2.2880    0.0000 N   0  0  0  0  0  0  0  0  0  0  0  0
    5.3350   -1.5530    0.0000 C   0  0  1  0  0  0  0  0  0  0  0  0
    6.7800   -1.9580    0.0000 C   0  0  1  0  0  0  0  0  0  0  0  0
    7.8280   -3.0310    0.0000 S   0  0  0  0  0  0  0  0  0  0  0  0
    9.2810   -2.6590    0.0000 C   0  0  0  0  0  0  0  0  0  0  0  0
    9.6860   -1.2150    0.0000 C   0  0  0  0  0  0  0  0  0  0  0  0
   11.1400   -0.8430    0.0000 C   0  0  0  0  0  0  0  0  0  0  0  0
   12.1880   -1.9160    0.0000 O   0  0  0  0  0  0  0  0  0  0  0  0
   13.6410   -1.5440    0.0000 C   0  0  0  0  0  0  0  0  0  0  0  0
   14.6900   -2.6170    0.0000 O   0  0  0  0  0  0  0  0  0  0  0  0
   14.0460   -0.1000    0.0000 C   0  0  0  0  0  0  0  0  0  0  0  0
    8.6380   -0.1420    0.0000 C   0  0  0  0  0  0  0  0  0  0  0  0
    7.1850   -0.5140    0.0000 N   0  0  0  0  0  0  0  0  0  0  0  0
    5.7400   -0.1090    0.0000 C   0  0  0  0  0  0  0  0  0  0  0  0
    5.0050    1.1990    0.0000 O   0  0  0  0  0  0  0  0  0  0  0  0
    9.0430    1.3020    0.0000 C   0  0  0  0  0  0  0  0  0  0  0  0
   10.4960    1.6740    0.0000 O   0  0  0  0  0  0  0  0  0  0  0  0
    7.9940    2.3750    0.0000 O   0  0  0  0  0  0  0  0  0  0  0  0
  1  2  1  0  0  0  0
  1  5  1  0  0  0  0
  2  3  2  0  0  0  0
  3  4  1  0  0  0  0
  4  5  2  0  0  0  0
  5  6  1  0  0  0  0
  6  7  1  0  0  0  0
  7  8  2  0  0  0  0
  7  9  1  0  0  0  0
 10  9  1  6  0  0  0
 10 11  1  0  0  0  0
 10 22  1  0  0  0  0
 11 12  1  6  0  0  0
 11 21  1  0  0  0  0
 12 13  1  0  0  0  0
 13 14  1  0  0  0  0
 14 15  1  0  0  0  0
 14 20  2  0  0  0  0
 15 16  1  0  0  0  0
 16 17  1  0  0  0  0
 17 18  2  0  0  0  0
 17 19  1  0  0  0  0
 20 21  1  0  0  0  0
 20 24  1  0  0  0  0
 21 22  1  0  0  0  0
 22 23  2  0  0  0  0
 24 25  1  0  0  0  0
 24 26  2  0  0  0  0
M  END
>  <Index>
209

>  <ID>
HT0433

>  <class>
0

>  <apol>
51.64069

>  <ast_fraglike>
0

>  <ast_fraglike_ext>
0

>  <ast_violation>
2

>  <ast_violation_ext>
4

>  <a_acc>
5

>  <a_acid>
0

>  <a_aro>
5

>  <a_base>
0

>  <a_count>
42

>  <a_don>
3

>  <a_donacc>
8

>  <a_heavy>
26

>  <a_hyd>
14

>  <a_IC>
78.96756

>  <a_ICM>
1.8801799

>  <a_nB>
0

>  <a_nBr>
0

>  <a_nC>
16

>  <a_nCl>
0

>  <a_nF>
0

>  <a_nH>
16

>  <a_nI>
0

>  <a_nN>
2

>  <a_nO>
6

>  <a_nP>
0

>  <a_nS>
2

>  <balabanJ>
1.5598134

>  <BCUT_PEOE_0>
-2.6881235

>  <BCUT_PEOE_1>
-0.53149307

>  <BCUT_PEOE_2>
0.50295353

>  <BCUT_PEOE_3>
2.7364151

>  <BCUT_SLOGP_0>
-2.8959417

>  <BCUT_SLOGP_1>
-0.48566619

>  <BCUT_SLOGP_2>
0.55065358

>  <BCUT_SLOGP_3>
2.6135511

>  <BCUT_SMR_0>
-2.4039884

>  <BCUT_SMR_1>
-0.34306604

>  <BCUT_SMR_2>
0.66601288

>  <BCUT_SMR_3>
3.0183737

>  <bpol>
30.439312

>  <b_1rotN>
6

>  <b_1rotR>
0.21428572

>  <b_ar>
5

>  <b_count>
44

>  <b_double>
5

>  <b_heavy>
28

>  <b_max1len>
3

>  <b_rotN>
8

>  <b_rotR>
0.2857143

>  <b_single>
34

>  <b_triple>
0

>  <chi0>
18.84457

>  <chi0v>
15.39323

>  <chi0v_C>
9.5080719

>  <chi0_C>
10.438793

>  <chi1>
12.379918

>  <chi1v>
9.6611652

>  <chi1v_C>
3.9915638

>  <chi1_C>
4.9519253

>  <chiral>
2

>  <chiral_u>
0

>  <density>
0.8844769

>  <diameter>
14

>  <FCharge>
0

>  <GCUT_PEOE_0>
-0.82492691

>  <GCUT_PEOE_1>
-0.43940553

>  <GCUT_PEOE_2>
0.081092648

>  <GCUT_PEOE_3>
2.588412

>  <GCUT_SLOGP_0>
-1.1650177

>  <GCUT_SLOGP_1>
-0.40793988

>  <GCUT_SLOGP_2>
0.11982401

>  <GCUT_SLOGP_3>
2.5424697

>  <GCUT_SMR_0>
-0.52921295

>  <GCUT_SMR_1>
-0.2113328

>  <GCUT_SMR_2>
0.24647827

>  <GCUT_SMR_3>
2.8661122

>  <Kier1>
20.727041

>  <Kier2>
9

>  <Kier3>
4.716269

>  <KierA1>
18.029642

>  <KierA2>
7.7828884

>  <KierA3>
4.0613656

>  <KierFlex>
5.3970265

>  <lip_acc>
8

>  <lip_don>
2

>  <lip_druglike>
1

>  <lip_violation>
0

>  <logP(o/w)>
0.46000001

>  <logS>
-3.62835

>  <mr>
9.7401772

>  <mutagenic>
0

>  <nmol>
1

>  <opr_brigid>
14

>  <opr_leadlike>
1

>  <opr_nring>
3

>  <opr_nrot>
6

>  <opr_violation>
0

>  <PC+>
0

>  <PC->
0

>  <PEOE_PC+>
2.8137696

>  <PEOE_PC->
-2.8137696

>  <PEOE_RPC+>
0.10945724

>  <PEOE_RPC->
0.12151769

>  <PEOE_VSA+0>
72.249451

>  <PEOE_VSA+1>
40.54361

>  <PEOE_VSA+2>
14.967534

>  <PEOE_VSA+3>
28.379631

>  <PEOE_VSA+4>
23.273705

>  <PEOE_VSA+5>
27.65803

>  <PEOE_VSA+6>
14.708499

>  <PEOE_VSA-0>
2.2085397

>  <PEOE_VSA-1>
28.694408

>  <PEOE_VSA-2>
33.991585

>  <PEOE_VSA-3>
0

>  <PEOE_VSA-4>
0

>  <PEOE_VSA-5>
54.267685

>  <PEOE_VSA-6>
10.408187

>  <PEOE_VSA_FHYD>
0.62909979

>  <PEOE_VSA_FNEG>
0.36877781

>  <PEOE_VSA_FPNEG>
0.18407774

>  <PEOE_VSA_FPOL>
0.37090018

>  <PEOE_VSA_FPOS>
0.63122219

>  <PEOE_VSA_FPPOS>
0.18682246

>  <PEOE_VSA_HYD>
221.03476

>  <PEOE_VSA_NEG>
129.5704

>  <PEOE_VSA_PNEG>
64.675873

>  <PEOE_VSA_POL>
130.3161

>  <PEOE_VSA_POS>
221.78046

>  <PEOE_VSA_PPOS>
65.640236

>  <petitjean>
0.5

>  <petitjeanSC>
1

>  <Q_PC+>
0

>  <Q_PC->
0

>  <Q_RPC+>
0

>  <Q_RPC->
0

>  <Q_VSA_FHYD>
1

>  <Q_VSA_FNEG>
0

>  <Q_VSA_FPNEG>
0

>  <Q_VSA_FPOL>
0

>  <Q_VSA_FPOS>
1

>  <Q_VSA_FPPOS>
0

>  <Q_VSA_HYD>
351.35086

>  <Q_VSA_NEG>
0

>  <Q_VSA_PNEG>
0

>  <Q_VSA_POL>
0

>  <Q_VSA_POS>
351.35086

>  <Q_VSA_PPOS>
0

>  <radius>
7

>  <reactive>
0

>  <rings>
3

>  <RPC+>
0

>  <RPC->
0

>  <rsynth>
0.42307693

>  <SlogP>
0.59227002

>  <SlogP_VSA0>
18.01075

>  <SlogP_VSA1>
29.132809

>  <SlogP_VSA2>
112.77785

>  <SlogP_VSA3>
63.545048

>  <SlogP_VSA4>
1.3584013

>  <SlogP_VSA5>
24.810728

>  <SlogP_VSA6>
0

>  <SlogP_VSA7>
51.102379

>  <SlogP_VSA8>
0

>  <SlogP_VSA9>
96.823242

>  <SMR>
9.4341497

>  <SMR_VSA0>
106.44875

>  <SMR_VSA1>
3.1243138

>  <SMR_VSA2>
43.395977

>  <SMR_VSA3>
13.62982

>  <SMR_VSA4>
0

>  <SMR_VSA5>
69.970787

>  <SMR_VSA6>
64.16832

>  <SMR_VSA7>
96.823242

>  <TPSA>
113.01

>  <VAdjEq>
0.41210872

>  <VAdjMa>
5.8073549

>  <VDistEq>
3.5650451

>  <VDistMa>
9.0943718

>  <vdw_area>
351.35086

>  <vdw_vol>
448.22424

>  <vsa_acc>
40.700764

>  <vsa_acid>
0

>  <vsa_base>
0

>  <vsa_don>
5.6825762

>  <vsa_hyd>
202.45061

>  <vsa_other>
57.819817

>  <vsa_pol>
73.517181

>  <Weight>
396.444

>  <weinerPath>
1790

>  <weinerPol>
37

>  <zagreb>
136

$$$$