Clc1nc(N)c2ncn(c2n1)[C@@H]1O[C@H](CO)[C@@H](O)[C@@H]1F
  MOE2013           2D

 20 22  0  0  1  0  0  0  0  0999 V2000
    0.0000    0.0000    0.0000 Cl  0  0  0  0  0  0  0  0  0  0  0  0
    0.0100   -1.5000    0.0000 C   0  0  0  0  0  0  0  0  0  0  0  0
   -1.2850   -2.2580    0.0000 N   0  0  0  0  0  0  0  0  0  0  0  0
   -1.2750   -3.7580    0.0000 C   0  0  0  0  0  0  0  0  0  0  0  0
   -2.5690   -4.5170    0.0000 N   0  0  0  0  0  0  0  0  0  0  0  0
    0.0290   -4.5000    0.0000 C   0  0  0  0  0  0  0  0  0  0  0  0
    0.3500   -5.9650    0.0000 N   0  0  0  0  0  0  0  0  0  0  0  0
    1.8430   -6.1120    0.0000 C   0  0  0  0  0  0  0  0  0  0  0  0
    2.4440   -4.7380    0.0000 N   0  0  0  0  0  0  0  0  0  0  0  0
    1.3230   -3.7420    0.0000 C   0  0  0  0  0  0  0  0  0  0  0  0
    1.3130   -2.2420    0.0000 N   0  0  0  0  0  0  0  0  0  0  0  0
    3.9090   -4.4170    0.0000 C   0  0  2  0  0  0  0  0  0  0  0  0
    4.5110   -3.0430    0.0000 O   0  0  0  0  0  0  0  0  0  0  0  0
    6.0030   -3.1900    0.0000 C   0  0  2  0  0  0  0  0  0  0  0  0
    7.0000   -2.0690    0.0000 C   0  0  0  0  0  0  0  0  0  0  0  0
    6.5270   -0.6450    0.0000 O   0  0  0  0  0  0  0  0  0  0  0  0
    6.3250   -4.6550    0.0000 C   0  0  1  0  0  0  0  0  0  0  0  0
    7.6990   -5.2560    0.0000 O   0  0  0  0  0  0  0  0  0  0  0  0
    5.0310   -5.4130    0.0000 C   0  0  2  0  0  0  0  0  0  0  0  0
    4.8830   -6.9060    0.0000 F   0  0  0  0  0  0  0  0  0  0  0  0
  1  2  1  0  0  0  0
  2  3  1  0  0  0  0
  2 11  2  0  0  0  0
  3  4  2  0  0  0  0
  4  5  1  0  0  0  0
  4  6  1  0  0  0  0
  6  7  1  0  0  0  0
  6 10  2  0  0  0  0
  7  8  2  0  0  0  0
  8  9  1  0  0  0  0
  9 10  1  0  0  0  0
 10 11  1  0  0  0  0
 12  9  1  6  0  0  0
 12 13  1  0  0  0  0
 12 19  1  0  0  0  0
 13 14  1  0  0  0  0
 14 15  1  6  0  0  0
 14 17  1  0  0  0  0
 15 16  1  0  0  0  0
 17 18  1  1  0  0  0
 17 19  1  0  0  0  0
 19 20  1  6  0  0  0
M  END
>  <Index>
248

>  <ID>
HT0521

>  <class>
0

>  <apol>
35.577724

>  <ast_fraglike>
0

>  <ast_fraglike_ext>
0

>  <ast_violation>
2

>  <ast_violation_ext>
3

>  <a_acc>
6

>  <a_acid>
0

>  <a_aro>
9

>  <a_base>
0

>  <a_count>
31

>  <a_don>
3

>  <a_donacc>
9

>  <a_heavy>
20

>  <a_hyd>
7

>  <a_IC>
65.942528

>  <a_ICM>
2.1271784

>  <a_nB>
0

>  <a_nBr>
0

>  <a_nC>
10

>  <a_nCl>
1

>  <a_nF>
1

>  <a_nH>
11

>  <a_nI>
0

>  <a_nN>
5

>  <a_nO>
3

>  <a_nP>
0

>  <a_nS>
0

>  <balabanJ>
1.7515098

>  <BCUT_PEOE_0>
-2.4914064

>  <BCUT_PEOE_1>
-0.68379772

>  <BCUT_PEOE_2>
0.76780587

>  <BCUT_PEOE_3>
2.7747557

>  <BCUT_SLOGP_0>
-2.688319

>  <BCUT_SLOGP_1>
-0.69898266

>  <BCUT_SLOGP_2>
0.58066577

>  <BCUT_SLOGP_3>
2.6472487

>  <BCUT_SMR_0>
-2.3072052

>  <BCUT_SMR_1>
-0.45741847

>  <BCUT_SMR_2>
0.86046487

>  <BCUT_SMR_3>
2.9505222

>  <bpol>
20.844276

>  <b_1rotN>
2

>  <b_1rotR>
0.090909094

>  <b_ar>
10

>  <b_count>
33

>  <b_double>
0

>  <b_heavy>
22

>  <b_max1len>
4

>  <b_rotN>
2

>  <b_rotR>
0.090909094

>  <b_single>
23

>  <b_triple>
0

>  <chi0>
14.438793

>  <chi0v>
10.774596

>  <chi0v_C>
5.5938582

>  <chi0_C>
6.0330157

>  <chi1>
9.5240755

>  <chi1v>
6.1441565

>  <chi1v_C>
1.9082483

>  <chi1_C>
2.0749149

>  <chiral>
4

>  <chiral_u>
0

>  <density>
0.95397609

>  <diameter>
9

>  <FCharge>
0

>  <GCUT_PEOE_0>
-0.80265939

>  <GCUT_PEOE_1>
-0.41743934

>  <GCUT_PEOE_2>
0.15237506

>  <GCUT_PEOE_3>
2.5598891

>  <GCUT_SLOGP_0>
-1.3346969

>  <GCUT_SLOGP_1>
-0.44686207

>  <GCUT_SLOGP_2>
0.15268831

>  <GCUT_SLOGP_3>
2.5359352

>  <GCUT_SMR_0>
-0.52492654

>  <GCUT_SMR_1>
-0.23234895

>  <GCUT_SMR_2>
0.26676965

>  <GCUT_SMR_3>
2.7852161

>  <Kier1>
14.917356

>  <Kier2>
5.6528926

>  <Kier3>
2.4934359

>  <KierA1>
12.50582

>  <KierA2>
4.6921945

>  <KierA3>
2.0546758

>  <KierFlex>
2.9339871

>  <lip_acc>
8

>  <lip_don>
4

>  <lip_druglike>
1

>  <lip_violation>
0

>  <logP(o/w)>
-0.55093998

>  <logS>
-2.82494

>  <mr>
6.6974196

>  <mutagenic>
1

>  <nmol>
1

>  <opr_brigid>
15

>  <opr_leadlike>
1

>  <opr_nring>
3

>  <opr_nrot>
3

>  <opr_violation>
0

>  <PC+>
0

>  <PC->
0

>  <PEOE_PC+>
2.6051702

>  <PEOE_PC->
-2.6051702

>  <PEOE_RPC+>
0.086810067

>  <PEOE_RPC->
0.15061061

>  <PEOE_VSA+0>
0

>  <PEOE_VSA+1>
40.54361

>  <PEOE_VSA+2>
70.440308

>  <PEOE_VSA+3>
26.053759

>  <PEOE_VSA+4>
34.150116

>  <PEOE_VSA+5>
0

>  <PEOE_VSA+6>
0

>  <PEOE_VSA-0>
29.581947

>  <PEOE_VSA-1>
0

>  <PEOE_VSA-2>
0

>  <PEOE_VSA-3>
5.6825762

>  <PEOE_VSA-4>
23.273788

>  <PEOE_VSA-5>
6.6511192

>  <PEOE_VSA-6>
18.038837

>  <PEOE_VSA_FHYD>
0.6772458

>  <PEOE_VSA_FNEG>
0.32713449

>  <PEOE_VSA_FPNEG>
0.18852483

>  <PEOE_VSA_FPOL>
0.32275423

>  <PEOE_VSA_FPOS>
0.67286551

>  <PEOE_VSA_FPPOS>
0.13422941

>  <PEOE_VSA_HYD>
172.3022

>  <PEOE_VSA_NEG>
83.228264

>  <PEOE_VSA_PNEG>
47.963745

>  <PEOE_VSA_POL>
82.113861

>  <PEOE_VSA_POS>
171.18779

>  <PEOE_VSA_PPOS>
34.150116

>  <petitjean>
0.44444445

>  <petitjeanSC>
0.80000001

>  <Q_PC+>
0

>  <Q_PC->
0

>  <Q_RPC+>
0

>  <Q_RPC->
0

>  <Q_VSA_FHYD>
1

>  <Q_VSA_FNEG>
0

>  <Q_VSA_FPNEG>
0

>  <Q_VSA_FPOL>
0

>  <Q_VSA_FPOS>
1

>  <Q_VSA_FPPOS>
0

>  <Q_VSA_HYD>
254.41606

>  <Q_VSA_NEG>
0

>  <Q_VSA_PNEG>
0

>  <Q_VSA_POL>
0

>  <Q_VSA_POS>
254.41606

>  <Q_VSA_PPOS>
0

>  <radius>
5

>  <reactive>
1

>  <rings>
3

>  <RPC+>
0

>  <RPC->
0

>  <rsynth>
1

>  <SlogP>
-0.25389999

>  <SlogP_VSA0>
83.667641

>  <SlogP_VSA1>
52.25568

>  <SlogP_VSA2>
34.283424

>  <SlogP_VSA3>
20.926258

>  <SlogP_VSA4>
0

>  <SlogP_VSA5>
0

>  <SlogP_VSA6>
2.6429517

>  <SlogP_VSA7>
20.644976

>  <SlogP_VSA8>
6.0398216

>  <SlogP_VSA9>
56.436676

>  <SMR>
6.6754999

>  <SMR_VSA0>
10.999887

>  <SMR_VSA1>
117.98624

>  <SMR_VSA2>
0

>  <SMR_VSA3>
31.966311

>  <SMR_VSA4>
6.187367

>  <SMR_VSA5>
49.682716

>  <SMR_VSA6>
20.926258

>  <SMR_VSA7>
39.148643

>  <TPSA>
119.31

>  <VAdjEq>
0.49991596

>  <VAdjMa>
5.4594316

>  <VDistEq>
2.9699318

>  <VDistMa>
8.3672571

>  <vdw_area>
254.41606

>  <vdw_vol>
318.33188

>  <vsa_acc>
19.551485

>  <vsa_acid>
0

>  <vsa_base>
0

>  <vsa_don>
17.742489

>  <vsa_hyd>
96.186493

>  <vsa_other>
73.62294

>  <vsa_pol>
64.427818

>  <Weight>
303.681

>  <weinerPath>
753

>  <weinerPol>
34

>  <zagreb>
110

$$$$