Clc1cc(Cl)c2c(nccc2)c1O
  MOE2013           2D

 13 14  0  0  0  0  0  0  0  0999 V2000
    0.0000    0.0000    0.0000 Cl  0  0  0  0  0  0  0  0  0  0  0  0
   -1.5000   -0.0060    0.0000 C   0  0  0  0  0  0  0  0  0  0  0  0
   -2.2450   -1.3080    0.0000 C   0  0  0  0  0  0  0  0  0  0  0  0
   -3.7450   -1.3150    0.0000 C   0  0  0  0  0  0  0  0  0  0  0  0
   -4.4890   -2.6170    0.0000 Cl  0  0  0  0  0  0  0  0  0  0  0  0
   -4.5000   -0.0190    0.0000 C   0  0  0  0  0  0  0  0  0  0  0  0
   -3.7550    1.2840    0.0000 C   0  0  0  0  0  0  0  0  0  0  0  0
   -4.5110    2.5790    0.0000 N   0  0  0  0  0  0  0  0  0  0  0  0
   -6.0110    2.5730    0.0000 C   0  0  0  0  0  0  0  0  0  0  0  0
   -6.7550    1.2710    0.0000 C   0  0  0  0  0  0  0  0  0  0  0  0
   -6.0000   -0.0250    0.0000 C   0  0  0  0  0  0  0  0  0  0  0  0
   -2.2550    1.2900    0.0000 C   0  0  0  0  0  0  0  0  0  0  0  0
   -1.5110    2.5920    0.0000 O   0  0  0  0  0  0  0  0  0  0  0  0
  1  2  1  0  0  0  0
  2  3  1  0  0  0  0
  2 12  2  0  0  0  0
  3  4  2  0  0  0  0
  4  5  1  0  0  0  0
  4  6  1  0  0  0  0
  6  7  1  0  0  0  0
  6 11  2  0  0  0  0
  7  8  2  0  0  0  0
  7 12  1  0  0  0  0
  8  9  1  0  0  0  0
  9 10  2  0  0  0  0
 10 11  1  0  0  0  0
 12 13  1  0  0  0  0
M  END
>  <Index>
219

>  <ID>
HT0463

>  <class>
0

>  <apol>
25.435965

>  <ast_fraglike>
0

>  <ast_fraglike_ext>
0

>  <ast_violation>
1

>  <ast_violation_ext>
1

>  <a_acc>
2

>  <a_acid>
0

>  <a_aro>
10

>  <a_base>
0

>  <a_count>
18

>  <a_don>
1

>  <a_donacc>
3

>  <a_heavy>
13

>  <a_hyd>
11

>  <a_IC>
32.919685

>  <a_ICM>
1.8288714

>  <a_nB>
0

>  <a_nBr>
0

>  <a_nC>
9

>  <a_nCl>
2

>  <a_nF>
0

>  <a_nH>
5

>  <a_nI>
0

>  <a_nN>
1

>  <a_nO>
1

>  <a_nP>
0

>  <a_nS>
0

>  <balabanJ>
2.1321476

>  <BCUT_PEOE_0>
-2.1575394

>  <BCUT_PEOE_1>
-0.72548842

>  <BCUT_PEOE_2>
0.73546636

>  <BCUT_PEOE_3>
2.1760032

>  <BCUT_SLOGP_0>
-1.9719386

>  <BCUT_SLOGP_1>
-0.54456633

>  <BCUT_SLOGP_2>
0.96867639

>  <BCUT_SLOGP_3>
2.420563

>  <BCUT_SMR_0>
-1.8217928

>  <BCUT_SMR_1>
-0.48412597

>  <BCUT_SMR_2>
1.0350711

>  <BCUT_SMR_3>
2.5180335

>  <bpol>
7.6260352

>  <b_1rotN>
0

>  <b_1rotR>
0

>  <b_ar>
11

>  <b_count>
19

>  <b_double>
0

>  <b_heavy>
14

>  <b_max1len>
1

>  <b_rotN>
0

>  <b_rotR>
0

>  <b_single>
8

>  <b_triple>
0

>  <chi0>
9.4222851

>  <chi0v>
7.9716153

>  <chi0v_C>
4.809401

>  <chi0_C>
5.7151785

>  <chi1>
6.1983771

>  <chi1v>
4.3719978

>  <chi1v_C>
2.532692

>  <chi1_C>
3.5580783

>  <chiral>
0

>  <chiral_u>
0

>  <density>
0.92165756

>  <diameter>
6

>  <FCharge>
0

>  <GCUT_PEOE_0>
-0.74646395

>  <GCUT_PEOE_1>
-0.43429145

>  <GCUT_PEOE_2>
0.13226753

>  <GCUT_PEOE_3>
2.1241241

>  <GCUT_SLOGP_0>
-0.76197559

>  <GCUT_SLOGP_1>
-0.23837338

>  <GCUT_SLOGP_2>
0.36958626

>  <GCUT_SLOGP_3>
2.3507311

>  <GCUT_SMR_0>
-0.4248758

>  <GCUT_SMR_1>
-0.18829902

>  <GCUT_SMR_2>
0.44426286

>  <GCUT_SMR_3>
2.4603839

>  <Kier1>
9.5510206

>  <Kier2>
3.6300001

>  <Kier3>
1.6460905

>  <KierA1>
8.5889359

>  <KierA2>
3.2332149

>  <KierA3>
1.454307

>  <KierFlex>
2.1361444

>  <lip_acc>
2

>  <lip_don>
1

>  <lip_druglike>
1

>  <lip_violation>
0

>  <logP(o/w)>
3.0150001

>  <logS>
-3.08005

>  <mr>
5.3021483

>  <mutagenic>
0

>  <nmol>
1

>  <opr_brigid>
11

>  <opr_leadlike>
1

>  <opr_nring>
2

>  <opr_nrot>
0

>  <opr_violation>
0

>  <PC+>
0

>  <PC->
0

>  <PEOE_PC+>
0.88679528

>  <PEOE_PC->
-0.88679528

>  <PEOE_RPC+>
0.2452126

>  <PEOE_RPC->
0.40199724

>  <PEOE_VSA+0>
18.954454

>  <PEOE_VSA+1>
26.101036

>  <PEOE_VSA+2>
15.158071

>  <PEOE_VSA+3>
0

>  <PEOE_VSA+4>
10.324173

>  <PEOE_VSA+5>
0

>  <PEOE_VSA+6>
0

>  <PEOE_VSA-0>
36.764713

>  <PEOE_VSA-1>
59.163895

>  <PEOE_VSA-2>
0

>  <PEOE_VSA-3>
0

>  <PEOE_VSA-4>
0

>  <PEOE_VSA-5>
5.6825762

>  <PEOE_VSA-6>
7.7675405

>  <PEOE_VSA_FHYD>
0.8678593

>  <PEOE_VSA_FNEG>
0.60794175

>  <PEOE_VSA_FPNEG>
0.074757569

>  <PEOE_VSA_FPOL>
0.13214071

>  <PEOE_VSA_FPOS>
0.39205828

>  <PEOE_VSA_FPPOS>
0.057383146

>  <PEOE_VSA_HYD>
156.14217

>  <PEOE_VSA_NEG>
109.37872

>  <PEOE_VSA_PNEG>
13.450116

>  <PEOE_VSA_POL>
23.774288

>  <PEOE_VSA_POS>
70.537735

>  <PEOE_VSA_PPOS>
10.324173

>  <petitjean>
0.5

>  <petitjeanSC>
1

>  <Q_PC+>
0

>  <Q_PC->
0

>  <Q_RPC+>
0

>  <Q_RPC->
0

>  <Q_VSA_FHYD>
1

>  <Q_VSA_FNEG>
0

>  <Q_VSA_FPNEG>
0

>  <Q_VSA_FPOL>
0

>  <Q_VSA_FPOS>
1

>  <Q_VSA_FPPOS>
0

>  <Q_VSA_HYD>
179.91646

>  <Q_VSA_NEG>
0

>  <Q_VSA_PNEG>
0

>  <Q_VSA_POL>
0

>  <Q_VSA_POS>
179.91646

>  <Q_VSA_PPOS>
0

>  <radius>
3

>  <reactive>
0

>  <rings>
2

>  <RPC+>
0

>  <RPC->
0

>  <rsynth>
1

>  <SlogP>
3.2472

>  <SlogP_VSA0>
25.385227

>  <SlogP_VSA1>
16.78553

>  <SlogP_VSA2>
0

>  <SlogP_VSA3>
0

>  <SlogP_VSA4>
0

>  <SlogP_VSA5>
0

>  <SlogP_VSA6>
7.0012131

>  <SlogP_VSA7>
74.861008

>  <SlogP_VSA8>
0

>  <SlogP_VSA9>
83.540718

>  <SMR>
5.3427801

>  <SMR_VSA0>
0

>  <SMR_VSA1>
42.170757

>  <SMR_VSA2>
0

>  <SMR_VSA3>
12.244641

>  <SMR_VSA4>
4.7171016

>  <SMR_VSA5>
70.143913

>  <SMR_VSA6>
0

>  <SMR_VSA7>
78.297287

>  <TPSA>
33.119999

>  <VAdjEq>
0.64772749

>  <VAdjMa>
4.8073549

>  <VDistEq>
2.3080299

>  <VDistMa>
7.1322675

>  <vdw_area>
179.91646

>  <vdw_vol>
232.2457

>  <vsa_acc>
5.6825762

>  <vsa_acid>
0

>  <vsa_base>
0

>  <vsa_don>
0

>  <vsa_hyd>
153.29498

>  <vsa_other>
0

>  <vsa_pol>
19.249496

>  <Weight>
214.05099

>  <weinerPath>
218

>  <weinerPol>
21

>  <zagreb>
68

$$$$