Clc1ccccc1C1=NCC(=O)Nc2c1cc([N+](=O)[O-])cc2
  MOE2013           2D

 22 24  0  0  0  0  0  0  0  0999 V2000
    0.0000    0.0000    0.0000 Cl  0  0  0  0  0  0  0  0  0  0  0  0
   -1.5000    0.0090    0.0000 C   0  0  0  0  0  0  0  0  0  0  0  0
   -2.2580   -1.2860    0.0000 C   0  0  0  0  0  0  0  0  0  0  0  0
   -3.7580   -1.2770    0.0000 C   0  0  0  0  0  0  0  0  0  0  0  0
   -4.5000    0.0270    0.0000 C   0  0  0  0  0  0  0  0  0  0  0  0
   -3.7420    1.3210    0.0000 C   0  0  0  0  0  0  0  0  0  0  0  0
   -2.2420    1.3120    0.0000 C   0  0  0  0  0  0  0  0  0  0  0  0
   -1.4840    2.6070    0.0000 C   0  0  0  0  0  0  0  0  0  0  0  0
    0.0110    2.4870    0.0000 N   0  0  0  0  0  0  0  0  0  0  0  0
    1.0370    3.5800    0.0000 C   0  0  0  0  0  0  0  0  0  0  0  0
    0.8230    5.0650    0.0000 C   0  0  0  0  0  0  0  0  0  0  0  0
    2.0680    5.9020    0.0000 O   0  0  0  0  0  0  0  0  0  0  0  0
   -0.4710    5.8240    0.0000 N   0  0  0  0  0  0  0  0  0  0  0  0
   -1.8700    5.2830    0.0000 C   0  0  0  0  0  0  0  0  0  0  0  0
   -2.3210    3.8520    0.0000 C   0  0  0  0  0  0  0  0  0  0  0  0
   -3.7860    3.5270    0.0000 C   0  0  0  0  0  0  0  0  0  0  0  0
   -4.7990    4.6330    0.0000 C   0  0  0  0  0  0  0  0  0  0  0  0
   -6.2640    4.3080    0.0000 N   0  3  0  0  0  0  0  0  0  0  0  0
   -7.2770    5.4140    0.0000 O   0  0  0  0  0  0  0  0  0  0  0  0
   -6.7140    2.8770    0.0000 O   0  5  0  0  0  0  0  0  0  0  0  0
   -4.3480    6.0630    0.0000 C   0  0  0  0  0  0  0  0  0  0  0  0
   -2.8840    6.3880    0.0000 C   0  0  0  0  0  0  0  0  0  0  0  0
  1  2  1  0  0  0  0
  2  3  1  0  0  0  0
  2  7  2  0  0  0  0
  3  4  2  0  0  0  0
  4  5  1  0  0  0  0
  5  6  2  0  0  0  0
  6  7  1  0  0  0  0
  7  8  1  0  0  0  0
  8  9  2  0  0  0  0
  8 15  1  0  0  0  0
  9 10  1  0  0  0  0
 10 11  1  0  0  0  0
 11 12  2  0  0  0  0
 11 13  1  0  0  0  0
 13 14  1  0  0  0  0
 14 15  1  0  0  0  0
 14 22  2  0  0  0  0
 15 16  2  0  0  0  0
 16 17  1  0  0  0  0
 17 18  1  0  0  0  0
 17 21  2  0  0  0  0
 18 19  2  0  0  0  0
 18 20  1  0  0  0  0
 21 22  1  0  0  0  0
M  CHG  1  18   1
M  CHG  1  20  -1
M  END
>  <Index>
253

>  <ID>
HT0530

>  <class>
0

>  <apol>
40.95393

>  <ast_fraglike>
0

>  <ast_fraglike_ext>
0

>  <ast_violation>
2

>  <ast_violation_ext>
2

>  <a_acc>
2

>  <a_acid>
0

>  <a_aro>
12

>  <a_base>
0

>  <a_count>
32

>  <a_don>
1

>  <a_donacc>
3

>  <a_heavy>
22

>  <a_hyd>
15

>  <a_IC>
58.667583

>  <a_ICM>
1.833362

>  <a_nB>
0

>  <a_nBr>
0

>  <a_nC>
15

>  <a_nCl>
1

>  <a_nF>
0

>  <a_nH>
10

>  <a_nI>
0

>  <a_nN>
3

>  <a_nO>
3

>  <a_nP>
0

>  <a_nS>
0

>  <balabanJ>
1.7960881

>  <BCUT_PEOE_0>
-2.2629313

>  <BCUT_PEOE_1>
-0.63559955

>  <BCUT_PEOE_2>
0.64970189

>  <BCUT_PEOE_3>
2.3878045

>  <BCUT_SLOGP_0>
-2.4160604

>  <BCUT_SLOGP_1>
-0.51974803

>  <BCUT_SLOGP_2>
0.79805958

>  <BCUT_SLOGP_3>
2.4243038

>  <BCUT_SMR_0>
-1.9570332

>  <BCUT_SMR_1>
-0.40723261

>  <BCUT_SMR_2>
0.86577129

>  <BCUT_SMR_3>
2.6989224

>  <bpol>
15.54607

>  <b_1rotN>
2

>  <b_1rotR>
0.083333336

>  <b_ar>
12

>  <b_count>
34

>  <b_double>
3

>  <b_heavy>
24

>  <b_max1len>
2

>  <b_rotN>
2

>  <b_rotR>
0.083333336

>  <b_single>
19

>  <b_triple>
0

>  <chi0>
15.68987

>  <chi0v>
12.001624

>  <chi0v_C>
8.248559

>  <chi0_C>
9.6983061

>  <chi1>
10.558551

>  <chi1v>
6.8185983

>  <chi1v_C>
4.4189377

>  <chi1_C>
6.1910715

>  <chiral>
0

>  <chiral_u>
0

>  <density>
0.85326087

>  <diameter>
9

>  <FCharge>
0

>  <GCUT_PEOE_0>
-0.80738729

>  <GCUT_PEOE_1>
-0.4377093

>  <GCUT_PEOE_2>
0.073213205

>  <GCUT_PEOE_3>
2.491703

>  <GCUT_SLOGP_0>
-1.0068321

>  <GCUT_SLOGP_1>
-0.28584692

>  <GCUT_SLOGP_2>
0.16459893

>  <GCUT_SLOGP_3>
2.5814593

>  <GCUT_SMR_0>
-0.49117965

>  <GCUT_SMR_1>
-0.20474023

>  <GCUT_SMR_2>
0.25679821

>  <GCUT_SMR_3>
2.796638

>  <Kier1>
16.84375

>  <Kier2>
7.2664361

>  <Kier3>
3.7530863

>  <KierA1>
12.12261

>  <KierA2>
5.1407275

>  <KierA3>
2.622225

>  <KierFlex>
2.8326836

>  <lip_acc>
6

>  <lip_don>
1

>  <lip_druglike>
1

>  <lip_violation>
0

>  <logP(o/w)>
2.845

>  <logS>
-5.4279099

>  <mr>
8.118701

>  <mutagenic>
1

>  <nmol>
1

>  <opr_brigid>
18

>  <opr_leadlike>
1

>  <opr_nring>
3

>  <opr_nrot>
2

>  <opr_violation>
0

>  <PC+>
0

>  <PC->
0

>  <PEOE_PC+>
1.714065

>  <PEOE_PC->
-1.714065

>  <PEOE_RPC+>
0.15861762

>  <PEOE_RPC->
0.18904227

>  <PEOE_VSA+0>
28.926888

>  <PEOE_VSA+1>
60.335358

>  <PEOE_VSA+2>
13.192325

>  <PEOE_VSA+3>
8.6190128

>  <PEOE_VSA+4>
12.949531

>  <PEOE_VSA+5>
6.6995511

>  <PEOE_VSA+6>
0

>  <PEOE_VSA-0>
24.509808

>  <PEOE_VSA-1>
66.346657

>  <PEOE_VSA-2>
0

>  <PEOE_VSA-3>
0

>  <PEOE_VSA-4>
0

>  <PEOE_VSA-5>
53.180546

>  <PEOE_VSA-6>
0.13689101

>  <PEOE_VSA_FHYD>
0.73456734

>  <PEOE_VSA_FNEG>
0.52446598

>  <PEOE_VSA_FPNEG>
0.19395454

>  <PEOE_VSA_FPOL>
0.26543263

>  <PEOE_VSA_FPOS>
0.47553399

>  <PEOE_VSA_FPPOS>
0.071478091

>  <PEOE_VSA_HYD>
201.93005

>  <PEOE_VSA_NEG>
144.1739

>  <PEOE_VSA_PNEG>
53.317436

>  <PEOE_VSA_POL>
72.966515

>  <PEOE_VSA_POS>
130.72267

>  <PEOE_VSA_PPOS>
19.649082

>  <petitjean>
0.44444445

>  <petitjeanSC>
0.80000001

>  <Q_PC+>
0

>  <Q_PC->
0

>  <Q_RPC+>
0

>  <Q_RPC->
0

>  <Q_VSA_FHYD>
1

>  <Q_VSA_FNEG>
0

>  <Q_VSA_FPNEG>
0

>  <Q_VSA_FPOL>
0

>  <Q_VSA_FPOS>
1

>  <Q_VSA_FPPOS>
0

>  <Q_VSA_HYD>
274.89658

>  <Q_VSA_NEG>
0

>  <Q_VSA_PNEG>
0

>  <Q_VSA_POL>
0

>  <Q_VSA_POS>
274.89658

>  <Q_VSA_PPOS>
0

>  <radius>
5

>  <reactive>
1

>  <rings>
3

>  <RPC+>
0

>  <RPC->
0

>  <rsynth>
1

>  <SlogP>
3.0376999

>  <SlogP_VSA0>
0

>  <SlogP_VSA1>
33.111897

>  <SlogP_VSA2>
23.862217

>  <SlogP_VSA3>
69.374588

>  <SlogP_VSA4>
6.37115

>  <SlogP_VSA5>
16.78553

>  <SlogP_VSA6>
3.5006065

>  <SlogP_VSA7>
123.50229

>  <SlogP_VSA8>
0

>  <SlogP_VSA9>
44.66214

>  <SMR>
8.3684101

>  <SMR_VSA0>
30.947832

>  <SMR_VSA1>
16.78553

>  <SMR_VSA2>
50.935009

>  <SMR_VSA3>
9.8717566

>  <SMR_VSA4>
23.524246

>  <SMR_VSA5>
123.50229

>  <SMR_VSA6>
26.455109

>  <SMR_VSA7>
39.148643

>  <TPSA>
87.279999

>  <VAdjEq>
0.46637034

>  <VAdjMa>
5.5849624

>  <VDistEq>
2.9729173

>  <VDistMa>
8.66675

>  <vdw_area>
274.89658

>  <vdw_vol>
370.01111

>  <vsa_acc>
19.249496

>  <vsa_acid>
0

>  <vsa_base>
0

>  <vsa_don>
5.6825762

>  <vsa_hyd>
186.90488

>  <vsa_other>
53.580132

>  <vsa_pol>
24.932074

>  <Weight>
315.716

>  <weinerPath>
959

>  <weinerPol>
39

>  <zagreb>
116

$$$$