[nH]1c2c(ncnc2N)nc1
  MOE2013           2D

 10 11  0  0  0  0  0  0  0  0999 V2000
    0.0000    0.0000    0.0000 N   0  0  0  0  0  0  0  0  0  0  0  0
   -1.3690   -0.6130    0.0000 C   0  0  0  0  0  0  0  0  0  0  0  0
   -1.2090   -2.1040    0.0000 C   0  0  0  0  0  0  0  0  0  0  0  0
   -2.4210   -2.9890    0.0000 N   0  0  0  0  0  0  0  0  0  0  0  0
   -3.7930   -2.3810    0.0000 C   0  0  0  0  0  0  0  0  0  0  0  0
   -3.9520   -0.8900    0.0000 N   0  0  0  0  0  0  0  0  0  0  0  0
   -2.7410   -0.0060    0.0000 C   0  0  0  0  0  0  0  0  0  0  0  0
   -2.9000    1.4860    0.0000 N   0  0  0  0  0  0  0  0  0  0  0  0
    0.2590   -2.4130    0.0000 N   0  0  0  0  0  0  0  0  0  0  0  0
    1.0060   -1.1130    0.0000 C   0  0  0  0  0  0  0  0  0  0  0  0
  1  2  1  0  0  0  0
  1 10  1  0  0  0  0
  2  3  1  0  0  0  0
  2  7  2  0  0  0  0
  3  4  2  0  0  0  0
  3  9  1  0  0  0  0
  4  5  1  0  0  0  0
  5  6  2  0  0  0  0
  6  7  1  0  0  0  0
  7  8  1  0  0  0  0
  9 10  2  0  0  0  0
M  END
>  <Index>
28

>  <ID>
HT0074

>  <class>
0

>  <apol>
17.633965

>  <ast_fraglike>
0

>  <ast_fraglike_ext>
0

>  <ast_violation>
1

>  <ast_violation_ext>
1

>  <a_acc>
4

>  <a_acid>
0

>  <a_aro>
9

>  <a_base>
0

>  <a_count>
15

>  <a_don>
3

>  <a_donacc>
7

>  <a_heavy>
10

>  <a_hyd>
1

>  <a_IC>
23.774437

>  <a_ICM>
1.5849625

>  <a_nB>
0

>  <a_nBr>
0

>  <a_nC>
5

>  <a_nCl>
0

>  <a_nF>
0

>  <a_nH>
5

>  <a_nI>
0

>  <a_nN>
5

>  <a_nO>
0

>  <a_nP>
0

>  <a_nS>
0

>  <balabanJ>
2.0757287

>  <BCUT_PEOE_0>
-2.1020949

>  <BCUT_PEOE_1>
-0.62686718

>  <BCUT_PEOE_2>
0.76134229

>  <BCUT_PEOE_3>
2.131742

>  <BCUT_SLOGP_0>
-2.3233826

>  <BCUT_SLOGP_1>
-0.59143817

>  <BCUT_SLOGP_2>
0.80985236

>  <BCUT_SLOGP_3>
2.1978848

>  <BCUT_SMR_0>
-1.7639182

>  <BCUT_SMR_1>
-0.4430154

>  <BCUT_SMR_2>
0.98170894

>  <BCUT_SMR_3>
2.4555733

>  <bpol>
9.4260349

>  <b_1rotN>
0

>  <b_1rotR>
0

>  <b_ar>
10

>  <b_count>
16

>  <b_double>
0

>  <b_heavy>
11

>  <b_max1len>
2

>  <b_rotN>
0

>  <b_rotR>
0

>  <b_single>
6

>  <b_triple>
0

>  <chi0>
6.9746914

>  <chi0v>
5.0736914

>  <chi0v_C>
2.6547005

>  <chi0_C>
3.1462643

>  <chi1>
4.8770099

>  <chi1v>
2.7727673

>  <chi1v_C>
0.5

>  <chi1_C>
0.66666669

>  <chiral>
0

>  <chiral_u>
0

>  <density>
0.83587831

>  <diameter>
4

>  <FCharge>
0

>  <GCUT_PEOE_0>
-0.82852101

>  <GCUT_PEOE_1>
-0.43896258

>  <GCUT_PEOE_2>
0.16586094

>  <GCUT_PEOE_3>
1.9894311

>  <GCUT_SLOGP_0>
-1.3347299

>  <GCUT_SLOGP_1>
-0.39231184

>  <GCUT_SLOGP_2>
0.25321758

>  <GCUT_SLOGP_3>
2.048981

>  <GCUT_SMR_0>
-0.43662727

>  <GCUT_SMR_1>
-0.21103242

>  <GCUT_SMR_2>
0.32911515

>  <GCUT_SMR_3>
2.2936046

>  <Kier1>
6.6942148

>  <Kier2>
2.5599999

>  <Kier3>
1.12

>  <KierA1>
3.9514463

>  <KierA2>
1.4083333

>  <KierA3>
0.5809375

>  <KierFlex>
0.55649537

>  <lip_acc>
5

>  <lip_don>
3

>  <lip_druglike>
1

>  <lip_violation>
0

>  <logP(o/w)>
-0.75393999

>  <logS>
-1.5040801

>  <mr>
3.4652188

>  <mutagenic>
1

>  <nmol>
1

>  <opr_brigid>
10

>  <opr_leadlike>
1

>  <opr_nring>
2

>  <opr_nrot>
0

>  <opr_violation>
0

>  <PC+>
0

>  <PC->
0

>  <PEOE_PC+>
1.278699

>  <PEOE_PC->
-1.278699

>  <PEOE_RPC+>
0.14249605

>  <PEOE_RPC->
0.26641059

>  <PEOE_VSA+0>
0

>  <PEOE_VSA+1>
21.236927

>  <PEOE_VSA+2>
64.895836

>  <PEOE_VSA+3>
19.809576

>  <PEOE_VSA+4>
0

>  <PEOE_VSA+5>
0

>  <PEOE_VSA+6>
0

>  <PEOE_VSA-0>
0

>  <PEOE_VSA-1>
0

>  <PEOE_VSA-2>
0

>  <PEOE_VSA-3>
0

>  <PEOE_VSA-4>
17.047728

>  <PEOE_VSA-5>
6.6511192

>  <PEOE_VSA-6>
0.13689101

>  <PEOE_VSA_FHYD>
0.81633461

>  <PEOE_VSA_FNEG>
0.18366536

>  <PEOE_VSA_FPNEG>
0.18366536

>  <PEOE_VSA_FPOL>
0.18366536

>  <PEOE_VSA_FPOS>
0.81633461

>  <PEOE_VSA_FPPOS>
0

>  <PEOE_VSA_HYD>
105.94234

>  <PEOE_VSA_NEG>
23.835739

>  <PEOE_VSA_PNEG>
23.835739

>  <PEOE_VSA_POL>
23.835739

>  <PEOE_VSA_POS>
105.94234

>  <PEOE_VSA_PPOS>
0

>  <petitjean>
0.25

>  <petitjeanSC>
0.33333334

>  <Q_PC+>
0

>  <Q_PC->
0

>  <Q_RPC+>
0

>  <Q_RPC->
0

>  <Q_VSA_FHYD>
1

>  <Q_VSA_FNEG>
0

>  <Q_VSA_FPNEG>
0

>  <Q_VSA_FPOL>
0

>  <Q_VSA_FPOS>
1

>  <Q_VSA_FPPOS>
0

>  <Q_VSA_HYD>
129.77808

>  <Q_VSA_NEG>
0

>  <Q_VSA_PNEG>
0

>  <Q_VSA_POL>
0

>  <Q_VSA_POS>
129.77808

>  <Q_VSA_PPOS>
0

>  <radius>
3

>  <reactive>
0

>  <rings>
2

>  <RPC+>
0

>  <RPC->
0

>  <rsynth>
1

>  <SlogP>
-0.064900003

>  <SlogP_VSA0>
32.897186

>  <SlogP_VSA1>
50.35659

>  <SlogP_VSA2>
16.78553

>  <SlogP_VSA3>
0

>  <SlogP_VSA4>
0

>  <SlogP_VSA5>
0

>  <SlogP_VSA6>
0

>  <SlogP_VSA7>
37.430504

>  <SlogP_VSA8>
0

>  <SlogP_VSA9>
2.3279202

>  <SMR>
3.6096101

>  <SMR_VSA0>
0

>  <SMR_VSA1>
50.35659

>  <SMR_VSA2>
16.78553

>  <SMR_VSA3>
0

>  <SMR_VSA4>
6.187367

>  <SMR_VSA5>
66.468246

>  <SMR_VSA6>
0

>  <SMR_VSA7>
0

>  <TPSA>
80.480003

>  <VAdjEq>
0.76016748

>  <VAdjMa>
4.4594316

>  <VDistEq>
1.9512278

>  <VDistMa>
6.3517823

>  <vdw_area>
129.77808

>  <vdw_vol>
161.66229

>  <vsa_acc>
11.365152

>  <vsa_acid>
0

>  <vsa_base>
0

>  <vsa_don>
17.742489

>  <vsa_hyd>
6.6995511

>  <vsa_other>
71.962158

>  <vsa_pol>
40.472794

>  <Weight>
135.13

>  <weinerPath>
105

>  <weinerPol>
12

>  <zagreb>
52

$$$$