O=C1NC(=O)NC(=O)C1(CC)C=1CCCCC=1
  MOE2013           2D

 17 18  0  0  0  0  0  0  0  0999 V2000
    0.0000    0.0000    0.0000 O   0  0  0  0  0  0  0  0  0  0  0  0
    0.0010   -1.5000    0.0000 C   0  0  0  0  0  0  0  0  0  0  0  0
    1.3010   -2.2490    0.0000 N   0  0  0  0  0  0  0  0  0  0  0  0
    1.3030   -3.7490    0.0000 C   0  0  0  0  0  0  0  0  0  0  0  0
    2.6020   -4.4980    0.0000 O   0  0  0  0  0  0  0  0  0  0  0  0
    0.0040   -4.5000    0.0000 N   0  0  0  0  0  0  0  0  0  0  0  0
   -1.2950   -3.7510    0.0000 C   0  0  0  0  0  0  0  0  0  0  0  0
   -2.5940   -4.5020    0.0000 O   0  0  0  0  0  0  0  0  0  0  0  0
   -1.2970   -2.2510    0.0000 C   0  0  0  0  0  0  0  0  0  0  0  0
   -2.0480   -0.9530    0.0000 C   0  0  0  0  0  0  0  0  0  0  0  0
   -1.2990    0.3470    0.0000 C   0  0  0  0  0  0  0  0  0  0  0  0
   -2.7970   -2.2530    0.0000 C   0  0  0  0  0  0  0  0  0  0  0  0
   -3.5460   -3.5520    0.0000 C   0  0  0  0  0  0  0  0  0  0  0  0
   -5.0460   -3.5540    0.0000 C   0  0  0  0  0  0  0  0  0  0  0  0
   -5.7970   -2.2560    0.0000 C   0  0  0  0  0  0  0  0  0  0  0  0
   -5.0480   -0.9560    0.0000 C   0  0  0  0  0  0  0  0  0  0  0  0
   -3.5480   -0.9540    0.0000 C   0  0  0  0  0  0  0  0  0  0  0  0
  1  2  2  0  0  0  0
  2  3  1  0  0  0  0
  2  9  1  0  0  0  0
  3  4  1  0  0  0  0
  4  5  2  0  0  0  0
  4  6  1  0  0  0  0
  6  7  1  0  0  0  0
  7  8  2  0  0  0  0
  7  9  1  0  0  0  0
  9 10  1  0  0  0  0
  9 12  1  0  0  0  0
 10 11  1  0  0  0  0
 12 13  1  0  0  0  0
 12 17  2  0  0  0  0
 13 14  1  0  0  0  0
 14 15  1  0  0  0  0
 15 16  1  0  0  0  0
 16 17  1  0  0  0  0
M  END
>  <Index>
267

>  <ID>
HT0563

>  <class>
0

>  <apol>
36.394688

>  <ast_fraglike>
1

>  <ast_fraglike_ext>
1

>  <ast_violation>
0

>  <ast_violation_ext>
0

>  <a_acc>
3

>  <a_acid>
0

>  <a_aro>
0

>  <a_base>
0

>  <a_count>
33

>  <a_don>
2

>  <a_donacc>
5

>  <a_heavy>
17

>  <a_hyd>
9

>  <a_IC>
52.690567

>  <a_ICM>
1.5966839

>  <a_nB>
0

>  <a_nBr>
0

>  <a_nC>
12

>  <a_nCl>
0

>  <a_nF>
0

>  <a_nH>
16

>  <a_nI>
0

>  <a_nN>
2

>  <a_nO>
3

>  <a_nP>
0

>  <a_nS>
0

>  <balabanJ>
2.2152295

>  <BCUT_PEOE_0>
-2.6907704

>  <BCUT_PEOE_1>
-0.49795124

>  <BCUT_PEOE_2>
0.45762813

>  <BCUT_PEOE_3>
2.7133884

>  <BCUT_SLOGP_0>
-2.779768

>  <BCUT_SLOGP_1>
-0.40378517

>  <BCUT_SLOGP_2>
0.47945368

>  <BCUT_SLOGP_3>
2.7890854

>  <BCUT_SMR_0>
-2.4356968

>  <BCUT_SMR_1>
-0.29522929

>  <BCUT_SMR_2>
0.58604717

>  <BCUT_SMR_3>
2.9614367

>  <bpol>
21.685312

>  <b_1rotN>
2

>  <b_1rotR>
0.11111111

>  <b_ar>
0

>  <b_count>
34

>  <b_double>
4

>  <b_heavy>
18

>  <b_max1len>
4

>  <b_rotN>
2

>  <b_rotR>
0.11111111

>  <b_single>
30

>  <b_triple>
0

>  <chi0>
12.466255

>  <chi0v>
9.8376293

>  <chi0v_C>
7.612884

>  <chi0_C>
8.052042

>  <chi1>
8.1082258

>  <chi1v>
5.9735093

>  <chi1v_C>
4.3611369

>  <chi1_C>
4.7431822

>  <chiral>
0

>  <chiral_u>
0

>  <density>
0.76348692

>  <diameter>
8

>  <FCharge>
0

>  <GCUT_PEOE_0>
-0.78704125

>  <GCUT_PEOE_1>
-0.4615927

>  <GCUT_PEOE_2>
0.093163416

>  <GCUT_PEOE_3>
2.6816888

>  <GCUT_SLOGP_0>
-1.1838359

>  <GCUT_SLOGP_1>
-0.34209827

>  <GCUT_SLOGP_2>
0.077104539

>  <GCUT_SLOGP_3>
2.7095456

>  <GCUT_SMR_0>
-0.52632773

>  <GCUT_SMR_1>
-0.22479306

>  <GCUT_SMR_2>
0.15460138

>  <GCUT_SMR_3>
2.9193552

>  <Kier1>
13.432098

>  <Kier2>
5.3254437

>  <Kier3>
2.2907231

>  <KierA1>
10.058256

>  <KierA2>
3.9092085

>  <KierA3>
1.6549488

>  <KierFlex>
2.3129306

>  <lip_acc>
5

>  <lip_don>
2

>  <lip_druglike>
1

>  <lip_violation>
0

>  <logP(o/w)>
1.2

>  <logS>
-3.0866899

>  <mr>
6.2711873

>  <mutagenic>
0

>  <nmol>
1

>  <opr_brigid>
12

>  <opr_leadlike>
1

>  <opr_nring>
2

>  <opr_nrot>
3

>  <opr_violation>
0

>  <PC+>
0

>  <PC->
0

>  <PEOE_PC+>
1.7327472

>  <PEOE_PC->
-1.7327472

>  <PEOE_RPC+>
0.1898839

>  <PEOE_RPC->
0.16013464

>  <PEOE_VSA+0>
55.45002

>  <PEOE_VSA+1>
4.2653861

>  <PEOE_VSA+2>
0

>  <PEOE_VSA+3>
17.238026

>  <PEOE_VSA+4>
25.899061

>  <PEOE_VSA+5>
0

>  <PEOE_VSA+6>
17.440542

>  <PEOE_VSA-0>
45.715107

>  <PEOE_VSA-1>
31.002581

>  <PEOE_VSA-2>
0

>  <PEOE_VSA-3>
0

>  <PEOE_VSA-4>
13.566921

>  <PEOE_VSA-5>
27.407623

>  <PEOE_VSA-6>
0

>  <PEOE_VSA_FHYD>
0.64571697

>  <PEOE_VSA_FNEG>
0.4945358

>  <PEOE_VSA_FPNEG>
0.17217261

>  <PEOE_VSA_FPOL>
0.35428306

>  <PEOE_VSA_FPOS>
0.5054642

>  <PEOE_VSA_FPPOS>
0.18211046

>  <PEOE_VSA_HYD>
153.67111

>  <PEOE_VSA_NEG>
117.69223

>  <PEOE_VSA_PNEG>
40.974545

>  <PEOE_VSA_POL>
84.314148

>  <PEOE_VSA_POS>
120.29304

>  <PEOE_VSA_PPOS>
43.339603

>  <petitjean>
0.5

>  <petitjeanSC>
1

>  <Q_PC+>
0

>  <Q_PC->
0

>  <Q_RPC+>
0

>  <Q_RPC->
0

>  <Q_VSA_FHYD>
1

>  <Q_VSA_FNEG>
0

>  <Q_VSA_FPNEG>
0

>  <Q_VSA_FPOL>
0

>  <Q_VSA_FPOS>
1

>  <Q_VSA_FPPOS>
0

>  <Q_VSA_HYD>
237.98526

>  <Q_VSA_NEG>
0

>  <Q_VSA_PNEG>
0

>  <Q_VSA_POL>
0

>  <Q_VSA_POS>
237.98526

>  <Q_VSA_PPOS>
0

>  <radius>
4

>  <reactive>
0

>  <rings>
2

>  <RPC+>
0

>  <RPC->
0

>  <rsynth>
0.35294119

>  <SlogP>
1.2492

>  <SlogP_VSA0>
36.0215

>  <SlogP_VSA1>
15.347524

>  <SlogP_VSA2>
47.724434

>  <SlogP_VSA3>
0

>  <SlogP_VSA4>
0

>  <SlogP_VSA5>
3.185575

>  <SlogP_VSA6>
0

>  <SlogP_VSA7>
17.643185

>  <SlogP_VSA8>
94.342026

>  <SlogP_VSA9>
57.188232

>  <SMR>
6.0956402

>  <SMR_VSA0>
71.586647

>  <SMR_VSA1>
0

>  <SMR_VSA2>
36.0215

>  <SMR_VSA3>
3.185575

>  <SMR_VSA4>
0

>  <SMR_VSA5>
111.98521

>  <SMR_VSA6>
15.347524

>  <SMR_VSA7>
33.326015

>  <TPSA>
75.269997

>  <VAdjEq>
0.54234898

>  <VAdjMa>
5.1699252

>  <VDistEq>
2.6406655

>  <VDistMa>
7.9212403

>  <vdw_area>
237.98526

>  <vdw_vol>
309.46304

>  <vsa_acc>
40.700764

>  <vsa_acid>
0

>  <vsa_base>
0

>  <vsa_don>
11.365152

>  <vsa_hyd>
126.46796

>  <vsa_other>
43.339603

>  <vsa_pol>
52.065914

>  <Weight>
236.271

>  <weinerPath>
458

>  <weinerPol>
31

>  <zagreb>
88

$$$$