Clc1ccc(cc1)C(N1CCN(CC1)C)c1ccccc1
  MOE2013           2D

 21 23  0  0  1  0  0  0  0  0999 V2000
    0.0000    0.0000    0.0000 Cl  0  0  0  0  0  0  0  0  0  0  0  0
   -1.2990    0.7500    0.0000 C   0  0  0  0  0  0  0  0  0  0  0  0
   -1.2990    2.2500    0.0000 C   0  0  0  0  0  0  0  0  0  0  0  0
   -2.5980    3.0000    0.0000 C   0  0  0  0  0  0  0  0  0  0  0  0
   -3.8970    2.2500    0.0000 C   0  0  0  0  0  0  0  0  0  0  0  0
   -3.8970    0.7500    0.0000 C   0  0  0  0  0  0  0  0  0  0  0  0
   -2.5980    0.0000    0.0000 C   0  0  0  0  0  0  0  0  0  0  0  0
   -5.1960    3.0000    0.0000 C   0  0  3  0  0  0  0  0  0  0  0  0
   -6.4950    2.2500    0.0000 N   0  0  0  0  0  0  0  0  0  0  0  0
   -6.4950    0.7500    0.0000 C   0  0  0  0  0  0  0  0  0  0  0  0
   -7.7940    0.0000    0.0000 C   0  0  0  0  0  0  0  0  0  0  0  0
   -9.0930    0.7500    0.0000 N   0  0  0  0  0  0  0  0  0  0  0  0
   -9.0930    2.2500    0.0000 C   0  0  0  0  0  0  0  0  0  0  0  0
   -7.7940    3.0000    0.0000 C   0  0  0  0  0  0  0  0  0  0  0  0
  -10.3920    0.0000    0.0000 C   0  0  0  0  0  0  0  0  0  0  0  0
   -5.1960    4.5000    0.0000 C   0  0  0  0  0  0  0  0  0  0  0  0
   -3.8970    5.2500    0.0000 C   0  0  0  0  0  0  0  0  0  0  0  0
   -3.8970    6.7500    0.0000 C   0  0  0  0  0  0  0  0  0  0  0  0
   -5.1960    7.5000    0.0000 C   0  0  0  0  0  0  0  0  0  0  0  0
   -6.4950    6.7500    0.0000 C   0  0  0  0  0  0  0  0  0  0  0  0
   -6.4950    5.2500    0.0000 C   0  0  0  0  0  0  0  0  0  0  0  0
  1  2  1  0  0  0  0
  2  3  1  0  0  0  0
  2  7  2  0  0  0  0
  3  4  2  0  0  0  0
  4  5  1  0  0  0  0
  5  6  2  0  0  0  0
  5  8  1  0  0  0  0
  6  7  1  0  0  0  0
  8  9  1  0  0  0  0
  8 16  1  0  0  0  0
  9 10  1  0  0  0  0
  9 14  1  0  0  0  0
 10 11  1  0  0  0  0
 11 12  1  0  0  0  0
 12 13  1  0  0  0  0
 12 15  1  0  0  0  0
 13 14  1  0  0  0  0
 16 17  1  0  0  0  0
 16 21  2  0  0  0  0
 17 18  2  0  0  0  0
 18 19  1  0  0  0  0
 19 20  2  0  0  0  0
 20 21  1  0  0  0  0
M  END
>  <Index>
214

>  <ID>
HT0448

>  <class>
0

>  <apol>
50.062653

>  <ast_fraglike>
0

>  <ast_fraglike_ext>
0

>  <ast_violation>
2

>  <ast_violation_ext>
3

>  <a_acc>
2

>  <a_acid>
0

>  <a_aro>
12

>  <a_base>
0

>  <a_count>
42

>  <a_don>
0

>  <a_donacc>
2

>  <a_heavy>
21

>  <a_hyd>
19

>  <a_IC>
57.180016

>  <a_ICM>
1.361429

>  <a_nB>
0

>  <a_nBr>
0

>  <a_nC>
18

>  <a_nCl>
1

>  <a_nF>
0

>  <a_nH>
21

>  <a_nI>
0

>  <a_nN>
2

>  <a_nO>
0

>  <a_nP>
0

>  <a_nS>
0

>  <balabanJ>
1.6776571

>  <BCUT_PEOE_0>
-2.7752466

>  <BCUT_PEOE_1>
-0.58429891

>  <BCUT_PEOE_2>
0.62010473

>  <BCUT_PEOE_3>
2.6698554

>  <BCUT_SLOGP_0>
-2.873203

>  <BCUT_SLOGP_1>
-0.45719936

>  <BCUT_SLOGP_2>
0.80591482

>  <BCUT_SLOGP_3>
2.626441

>  <BCUT_SMR_0>
-2.4874415

>  <BCUT_SMR_1>
-0.42626473

>  <BCUT_SMR_2>
0.85431087

>  <BCUT_SMR_3>
2.9502349

>  <bpol>
27.337347

>  <b_1rotN>
3

>  <b_1rotR>
0.13043478

>  <b_ar>
12

>  <b_count>
44

>  <b_double>
0

>  <b_heavy>
23

>  <b_max1len>
2

>  <b_rotN>
3

>  <b_rotR>
0.13043478

>  <b_single>
32

>  <b_triple>
0

>  <chi0>
14.656489

>  <chi0v>
13.13025

>  <chi0v_C>
11.10193

>  <chi0_C>
12.501789

>  <chi1>
10.237184

>  <chi1v>
7.8466711

>  <chi1v_C>
5.309401

>  <chi1_C>
7.1161566

>  <chiral>
1

>  <chiral_u>
1

>  <density>
0.70241386

>  <diameter>
10

>  <FCharge>
0

>  <GCUT_PEOE_0>
-0.85772216

>  <GCUT_PEOE_1>
-0.3795625

>  <GCUT_PEOE_2>
0.06557329

>  <GCUT_PEOE_3>
2.7342551

>  <GCUT_SLOGP_0>
-0.96068132

>  <GCUT_SLOGP_1>
-0.26386139

>  <GCUT_SLOGP_2>
0.16445385

>  <GCUT_SLOGP_3>
2.8004382

>  <GCUT_SMR_0>
-0.51470774

>  <GCUT_SMR_1>
-0.19172902

>  <GCUT_SMR_2>
0.19305076

>  <GCUT_SMR_3>
3.0069578

>  <Kier1>
15.879017

>  <Kier2>
7.5130072

>  <Kier3>
4.0500002

>  <KierA1>
13.428945

>  <KierA2>
6.2972369

>  <KierA3>
3.3713896

>  <KierFlex>
4.0269165

>  <lip_acc>
2

>  <lip_don>
0

>  <lip_druglike>
1

>  <lip_violation>
0

>  <logP(o/w)>
3.9809999

>  <logS>
-3.8052499

>  <mr>
8.9129181

>  <mutagenic>
0

>  <nmol>
1

>  <opr_brigid>
18

>  <opr_leadlike>
1

>  <opr_nring>
3

>  <opr_nrot>
5

>  <opr_violation>
0

>  <PC+>
0

>  <PC->
0

>  <PEOE_PC+>
1.2349503

>  <PEOE_PC->
-1.2349503

>  <PEOE_RPC+>
0.051188886

>  <PEOE_RPC->
0.24528655

>  <PEOE_VSA+0>
104.20829

>  <PEOE_VSA+1>
45.79982

>  <PEOE_VSA+2>
0

>  <PEOE_VSA+3>
0

>  <PEOE_VSA+4>
0

>  <PEOE_VSA+5>
0

>  <PEOE_VSA+6>
0

>  <PEOE_VSA-0>
52.165577

>  <PEOE_VSA-1>
115.36627

>  <PEOE_VSA-2>
0

>  <PEOE_VSA-3>
0

>  <PEOE_VSA-4>
0

>  <PEOE_VSA-5>
0

>  <PEOE_VSA-6>
0

>  <PEOE_VSA_FHYD>
1

>  <PEOE_VSA_FNEG>
0.52759296

>  <PEOE_VSA_FPNEG>
0

>  <PEOE_VSA_FPOL>
0

>  <PEOE_VSA_FPOS>
0.47240704

>  <PEOE_VSA_FPPOS>
0

>  <PEOE_VSA_HYD>
317.53998

>  <PEOE_VSA_NEG>
167.53185

>  <PEOE_VSA_PNEG>
0

>  <PEOE_VSA_POL>
0

>  <PEOE_VSA_POS>
150.00812

>  <PEOE_VSA_PPOS>
0

>  <petitjean>
0.5

>  <petitjeanSC>
1

>  <Q_PC+>
0

>  <Q_PC->
0

>  <Q_RPC+>
0

>  <Q_RPC->
0

>  <Q_VSA_FHYD>
1

>  <Q_VSA_FNEG>
0

>  <Q_VSA_FPNEG>
0

>  <Q_VSA_FPOL>
0

>  <Q_VSA_FPOS>
1

>  <Q_VSA_FPPOS>
0

>  <Q_VSA_HYD>
317.53998

>  <Q_VSA_NEG>
0

>  <Q_VSA_PNEG>
0

>  <Q_VSA_POL>
0

>  <Q_VSA_POS>
317.53998

>  <Q_VSA_PPOS>
0

>  <radius>
5

>  <reactive>
0

>  <rings>
3

>  <RPC+>
0

>  <RPC->
0

>  <rsynth>
1

>  <SlogP>
3.7723

>  <SlogP_VSA0>
0

>  <SlogP_VSA1>
6.2486277

>  <SlogP_VSA2>
0

>  <SlogP_VSA3>
73.758316

>  <SlogP_VSA4>
6.37115

>  <SlogP_VSA5>
32.897186

>  <SlogP_VSA6>
3.5006065

>  <SlogP_VSA7>
158.78867

>  <SlogP_VSA8>
3.9819686

>  <SlogP_VSA9>
39.148643

>  <SMR>
8.8917999

>  <SMR_VSA0>
0

>  <SMR_VSA1>
6.2486277

>  <SMR_VSA2>
0

>  <SMR_VSA3>
13.853725

>  <SMR_VSA4>
0

>  <SMR_VSA5>
158.78867

>  <SMR_VSA6>
73.758316

>  <SMR_VSA7>
72.04583

>  <TPSA>
6.48

>  <VAdjEq>
0.48250595

>  <VAdjMa>
5.523562

>  <VDistEq>
3.051475

>  <VDistMa>
8.5176783

>  <vdw_area>
317.53998

>  <vdw_vol>
428.28455

>  <vsa_acc>
0

>  <vsa_acid>
0

>  <vsa_base>
0

>  <vsa_don>
0

>  <vsa_hyd>
302.59225

>  <vsa_other>
0

>  <vsa_pol>
0

>  <Weight>
300.83301

>  <weinerPath>
896

>  <weinerPol>
31

>  <zagreb>
108

$$$$