Fc1ccc(cc1)[C@@]1(OCc2cc(ccc12)C#N)CCCN(C)C
  MOE2013           2D

 24 26  0  0  1  0  0  0  0  0999 V2000
    0.0000    0.0000    0.0000 F   0  0  0  0  0  0  0  0  0  0  0  0
    0.7510   -1.2980    0.0000 C   0  0  0  0  0  0  0  0  0  0  0  0
    0.0020   -2.5980    0.0000 C   0  0  0  0  0  0  0  0  0  0  0  0
    0.7530   -3.8970    0.0000 C   0  0  0  0  0  0  0  0  0  0  0  0
    2.2530   -3.8950    0.0000 C   0  0  0  0  0  0  0  0  0  0  0  0
    3.0020   -2.5960    0.0000 C   0  0  0  0  0  0  0  0  0  0  0  0
    2.2510   -1.2970    0.0000 C   0  0  0  0  0  0  0  0  0  0  0  0
    3.0040   -5.1940    0.0000 C   0  0  2  0  0  0  0  0  0  0  0  0
    3.1360   -6.6880    0.0000 O   0  0  0  0  0  0  0  0  0  0  0  0
    4.5980   -7.0240    0.0000 C   0  0  0  0  0  0  0  0  0  0  0  0
    5.3690   -5.7380    0.0000 C   0  0  0  0  0  0  0  0  0  0  0  0
    6.8420   -5.4500    0.0000 C   0  0  0  0  0  0  0  0  0  0  0  0
    7.3290   -4.0320    0.0000 C   0  0  0  0  0  0  0  0  0  0  0  0
    6.3440   -2.9010    0.0000 C   0  0  0  0  0  0  0  0  0  0  0  0
    4.8720   -3.1880    0.0000 C   0  0  0  0  0  0  0  0  0  0  0  0
    4.3840   -4.6070    0.0000 C   0  0  0  0  0  0  0  0  0  0  0  0
    8.8010   -3.7440    0.0000 C   0  0  0  0  0  0  0  0  0  0  0  0
   10.2730   -3.4570    0.0000 N   0  0  0  0  0  0  0  0  0  0  0  0
    1.5050   -5.2470    0.0000 C   0  0  0  0  0  0  0  0  0  0  0  0
    0.8020   -6.5720    0.0000 C   0  0  0  0  0  0  0  0  0  0  0  0
   -0.6970   -6.6260    0.0000 C   0  0  0  0  0  0  0  0  0  0  0  0
   -1.4000   -7.9510    0.0000 N   0  0  0  0  0  0  0  0  0  0  0  0
   -2.8990   -8.0040    0.0000 C   0  0  0  0  0  0  0  0  0  0  0  0
   -0.6040   -9.2220    0.0000 C   0  0  0  0  0  0  0  0  0  0  0  0
  1  2  1  0  0  0  0
  2  3  1  0  0  0  0
  2  7  2  0  0  0  0
  3  4  2  0  0  0  0
  4  5  1  0  0  0  0
  5  6  2  0  0  0  0
  6  7  1  0  0  0  0
  8  5  1  1  0  0  0
  8  9  1  0  0  0  0
  8 16  1  0  0  0  0
  8 19  1  6  0  0  0
  9 10  1  0  0  0  0
 10 11  1  0  0  0  0
 11 12  2  0  0  0  0
 11 16  1  0  0  0  0
 12 13  1  0  0  0  0
 13 14  2  0  0  0  0
 13 17  1  0  0  0  0
 14 15  1  0  0  0  0
 15 16  2  0  0  0  0
 17 18  3  0  0  0  0
 19 20  1  0  0  0  0
 20 21  1  0  0  0  0
 21 22  1  0  0  0  0
 22 23  1  0  0  0  0
 22 24  1  0  0  0  0
M  END
>  <Index>
237

>  <ID>
HT0501

>  <class>
0

>  <apol>
52.761654

>  <ast_fraglike>
0

>  <ast_fraglike_ext>
0

>  <ast_violation>
2

>  <ast_violation_ext>
3

>  <a_acc>
3

>  <a_acid>
0

>  <a_aro>
12

>  <a_base>
0

>  <a_count>
45

>  <a_don>
0

>  <a_donacc>
3

>  <a_heavy>
24

>  <a_hyd>
20

>  <a_IC>
66.456161

>  <a_ICM>
1.4768035

>  <a_nB>
0

>  <a_nBr>
0

>  <a_nC>
20

>  <a_nCl>
0

>  <a_nF>
1

>  <a_nH>
21

>  <a_nI>
0

>  <a_nN>
2

>  <a_nO>
1

>  <a_nP>
0

>  <a_nS>
0

>  <balabanJ>
1.7313491

>  <BCUT_PEOE_0>
-2.6684287

>  <BCUT_PEOE_1>
-0.60217088

>  <BCUT_PEOE_2>
0.57833534

>  <BCUT_PEOE_3>
2.659234

>  <BCUT_SLOGP_0>
-2.6801047

>  <BCUT_SLOGP_1>
-0.41381639

>  <BCUT_SLOGP_2>
0.7519353

>  <BCUT_SLOGP_3>
2.7806997

>  <BCUT_SMR_0>
-2.4051127

>  <BCUT_SMR_1>
-0.41294897

>  <BCUT_SMR_2>
0.75520754

>  <BCUT_SMR_3>
2.9168615

>  <bpol>
28.716347

>  <b_1rotN>
5

>  <b_1rotR>
0.1923077

>  <b_ar>
12

>  <b_count>
47

>  <b_double>
0

>  <b_heavy>
26

>  <b_max1len>
7

>  <b_rotN>
6

>  <b_rotR>
0.23076923

>  <b_single>
34

>  <b_triple>
1

>  <chi0>
17.15649

>  <chi0v>
14.050519

>  <chi0v_C>
12.369879

>  <chi0_C>
13.872033

>  <chi1>
11.547679

>  <chi1v>
8.1325512

>  <chi1v_C>
6.0165076

>  <chi1_C>
7.8467197

>  <chiral>
1

>  <chiral_u>
0

>  <density>
0.70815772

>  <diameter>
11

>  <FCharge>
0

>  <GCUT_PEOE_0>
-0.86409998

>  <GCUT_PEOE_1>
-0.393994

>  <GCUT_PEOE_2>
0.024978535

>  <GCUT_PEOE_3>
2.7782202

>  <GCUT_SLOGP_0>
-0.95310736

>  <GCUT_SLOGP_1>
-0.27697968

>  <GCUT_SLOGP_2>
0.16438118

>  <GCUT_SLOGP_3>
2.8957057

>  <GCUT_SMR_0>
-0.52428436

>  <GCUT_SMR_1>
-0.19113563

>  <GCUT_SMR_2>
0.16750534

>  <GCUT_SMR_3>
3.0389187

>  <Kier1>
18.781065

>  <Kier2>
8.1314831

>  <Kier3>
4.0655999

>  <KierA1>
14.153446

>  <KierA2>
6.0467887

>  <KierA3>
2.9943759

>  <KierFlex>
3.5659542

>  <lip_acc>
3

>  <lip_don>
0

>  <lip_druglike>
1

>  <lip_violation>
0

>  <logP(o/w)>
4.4000001

>  <logS>
-4.3387198

>  <mr>
9.4381714

>  <mutagenic>
0

>  <nmol>
1

>  <opr_brigid>
16

>  <opr_leadlike>
1

>  <opr_nring>
3

>  <opr_nrot>
6

>  <opr_violation>
0

>  <PC+>
0

>  <PC->
0

>  <PEOE_PC+>
1.4691241

>  <PEOE_PC->
-1.4691241

>  <PEOE_RPC+>
0.084010832

>  <PEOE_RPC->
0.24471369

>  <PEOE_VSA+0>
51.184631

>  <PEOE_VSA+1>
75.847816

>  <PEOE_VSA+2>
9.0208454

>  <PEOE_VSA+3>
0

>  <PEOE_VSA+4>
0

>  <PEOE_VSA+5>
0

>  <PEOE_VSA+6>
0

>  <PEOE_VSA-0>
132.71756

>  <PEOE_VSA-1>
36.764713

>  <PEOE_VSA-2>
0

>  <PEOE_VSA-3>
17.742489

>  <PEOE_VSA-4>
11.908636

>  <PEOE_VSA-5>
0

>  <PEOE_VSA-6>
2.503756

>  <PEOE_VSA_FHYD>
0.95732069

>  <PEOE_VSA_FNEG>
0.59710652

>  <PEOE_VSA_FPNEG>
0.042679299

>  <PEOE_VSA_FPOL>
0.042679299

>  <PEOE_VSA_FPOS>
0.40289351

>  <PEOE_VSA_FPPOS>
0

>  <PEOE_VSA_HYD>
323.27805

>  <PEOE_VSA_NEG>
201.63716

>  <PEOE_VSA_PNEG>
14.412392

>  <PEOE_VSA_POL>
14.412392

>  <PEOE_VSA_POS>
136.05328

>  <PEOE_VSA_PPOS>
0

>  <petitjean>
0.45454547

>  <petitjeanSC>
0.83333331

>  <Q_PC+>
0

>  <Q_PC->
0

>  <Q_RPC+>
0

>  <Q_RPC->
0

>  <Q_VSA_FHYD>
1

>  <Q_VSA_FNEG>
0

>  <Q_VSA_FPNEG>
0

>  <Q_VSA_FPOL>
0

>  <Q_VSA_FPOS>
1

>  <Q_VSA_FPPOS>
0

>  <Q_VSA_HYD>
337.69046

>  <Q_VSA_NEG>
0

>  <Q_VSA_PNEG>
0

>  <Q_VSA_POL>
0

>  <Q_VSA_POS>
337.69046

>  <Q_VSA_PPOS>
0

>  <radius>
6

>  <reactive>
0

>  <rings>
3

>  <RPC+>
0

>  <RPC->
0

>  <rsynth>
0.041666668

>  <SlogP>
4.3908839

>  <SlogP_VSA0>
0

>  <SlogP_VSA1>
3.1243138

>  <SlogP_VSA2>
20.120907

>  <SlogP_VSA3>
66.100677

>  <SlogP_VSA4>
12.7423

>  <SlogP_VSA5>
65.794373

>  <SlogP_VSA6>
0

>  <SlogP_VSA7>
123.50229

>  <SlogP_VSA8>
37.736813

>  <SlogP_VSA9>
35.886372

>  <SMR>
9.1236

>  <SMR_VSA0>
10.999887

>  <SMR_VSA1>
49.143784

>  <SMR_VSA2>
9.1210184

>  <SMR_VSA3>
29.344046

>  <SMR_VSA4>
0

>  <SMR_VSA5>
182.16536

>  <SMR_VSA6>
18.439579

>  <SMR_VSA7>
65.794373

>  <TPSA>
36.259998

>  <VAdjEq>
0.43739632

>  <VAdjMa>
5.7004399

>  <VDistEq>
3.242363

>  <VDistMa>
8.8980045

>  <vdw_area>
337.69046

>  <vdw_vol>
458.08862

>  <vsa_acc>
20.246246

>  <vsa_acid>
0

>  <vsa_base>
0

>  <vsa_don>
0

>  <vsa_hyd>
282.19699

>  <vsa_other>
20.299505

>  <vsa_pol>
20.246246

>  <Weight>
324.39899

>  <weinerPath>
1298

>  <weinerPol>
39

>  <zagreb>
126

$$$$