Clc1cc2c(Sc3c(cccc3)/C/2=CCCN(C)C)cc1
  MOE2013           2D

 21 23  0  0  0  0  0  0  0  0999 V2000
    0.0000    0.0000    0.0000 Cl  0  0  0  0  0  0  0  0  0  0  0  0
    0.7500   -1.2990    0.0000 C   0  0  0  0  0  0  0  0  0  0  0  0
    2.2500   -1.2990    0.0000 C   0  0  0  0  0  0  0  0  0  0  0  0
    3.0000   -2.5980    0.0000 C   0  0  0  0  0  0  0  0  0  0  0  0
    2.2500   -3.8970    0.0000 C   0  0  0  0  0  0  0  0  0  0  0  0
    3.0000   -5.1960    0.0000 S   0  0  0  0  0  0  0  0  0  0  0  0
    4.5000   -5.1960    0.0000 C   0  0  0  0  0  0  0  0  0  0  0  0
    5.2500   -3.8970    0.0000 C   0  0  0  0  0  0  0  0  0  0  0  0
    6.7500   -3.8970    0.0000 C   0  0  0  0  0  0  0  0  0  0  0  0
    7.5000   -5.1960    0.0000 C   0  0  0  0  0  0  0  0  0  0  0  0
    6.7500   -6.4950    0.0000 C   0  0  0  0  0  0  0  0  0  0  0  0
    5.2500   -6.4950    0.0000 C   0  0  0  0  0  0  0  0  0  0  0  0
    4.5000   -2.5980    0.0000 C   0  0  0  0  0  0  0  0  0  0  0  0
    5.2500   -1.2990    0.0000 C   0  0  0  0  0  0  0  0  0  0  0  0
    6.7500   -1.2990    0.0000 C   0  0  0  0  0  0  0  0  0  0  0  0
    7.5000    0.0000    0.0000 C   0  0  0  0  0  0  0  0  0  0  0  0
    9.0000    0.0000    0.0000 N   0  0  0  0  0  0  0  0  0  0  0  0
    9.7500   -1.2990    0.0000 C   0  0  0  0  0  0  0  0  0  0  0  0
    9.7500    1.2990    0.0000 C   0  0  0  0  0  0  0  0  0  0  0  0
    0.7500   -3.8970    0.0000 C   0  0  0  0  0  0  0  0  0  0  0  0
    0.0000   -2.5980    0.0000 C   0  0  0  0  0  0  0  0  0  0  0  0
  1  2  1  0  0  0  0
  2  3  1  0  0  0  0
  2 21  2  0  0  0  0
  3  4  2  0  0  0  0
  4  5  1  0  0  0  0
  4 13  1  0  0  0  0
  5  6  1  0  0  0  0
  5 20  2  0  0  0  0
  6  7  1  0  0  0  0
  7  8  1  0  0  0  0
  7 12  2  0  0  0  0
  8  9  2  0  0  0  0
  8 13  1  0  0  0  0
  9 10  1  0  0  0  0
 10 11  2  0  0  0  0
 11 12  1  0  0  0  0
 13 14  2  3  0  0  0
 14 15  1  0  0  0  0
 15 16  1  0  0  0  0
 16 17  1  0  0  0  0
 17 18  1  0  0  0  0
 17 19  1  0  0  0  0
 20 21  1  0  0  0  0
M  END
>  <Index>
222

>  <ID>
HT0470

>  <class>
0

>  <apol>
49.862274

>  <ast_fraglike>
0

>  <ast_fraglike_ext>
0

>  <ast_violation>
2

>  <ast_violation_ext>
2

>  <a_acc>
1

>  <a_acid>
0

>  <a_aro>
12

>  <a_base>
0

>  <a_count>
39

>  <a_don>
0

>  <a_donacc>
1

>  <a_heavy>
21

>  <a_hyd>
20

>  <a_IC>
56.013386

>  <a_ICM>
1.4362407

>  <a_nB>
0

>  <a_nBr>
0

>  <a_nC>
18

>  <a_nCl>
1

>  <a_nF>
0

>  <a_nH>
18

>  <a_nI>
0

>  <a_nN>
1

>  <a_nO>
0

>  <a_nP>
0

>  <a_nS>
1

>  <balabanJ>
1.6960737

>  <BCUT_PEOE_0>
-2.6080532

>  <BCUT_PEOE_1>
-0.57377172

>  <BCUT_PEOE_2>
0.60925937

>  <BCUT_PEOE_3>
2.49611

>  <BCUT_SLOGP_0>
-2.6599998

>  <BCUT_SLOGP_1>
-0.42244193

>  <BCUT_SLOGP_2>
0.78233451

>  <BCUT_SLOGP_3>
2.5494485

>  <BCUT_SMR_0>
-2.3221893

>  <BCUT_SMR_1>
-0.37324861

>  <BCUT_SMR_2>
0.83087158

>  <BCUT_SMR_3>
2.7780197

>  <bpol>
24.357725

>  <b_1rotN>
3

>  <b_1rotR>
0.13043478

>  <b_ar>
12

>  <b_count>
41

>  <b_double>
1

>  <b_heavy>
23

>  <b_max1len>
6

>  <b_rotN>
3

>  <b_rotR>
0.13043478

>  <b_single>
28

>  <b_triple>
0

>  <chi0>
14.819627

>  <chi0v>
13.838867

>  <chi0v_C>
11.033015

>  <chi0_C>
12.53517

>  <chi1>
10.147867

>  <chi1v>
8.2646542

>  <chi1v_C>
5.2623076

>  <chi1_C>
7.1910715

>  <chiral>
0

>  <chiral_u>
0

>  <density>
0.73997539

>  <diameter>
9

>  <FCharge>
0

>  <GCUT_PEOE_0>
-0.86317545

>  <GCUT_PEOE_1>
-0.37256813

>  <GCUT_PEOE_2>
0.036361881

>  <GCUT_PEOE_3>
2.5555267

>  <GCUT_SLOGP_0>
-0.95305705

>  <GCUT_SLOGP_1>
-0.23776637

>  <GCUT_SLOGP_2>
0.1738694

>  <GCUT_SLOGP_3>
2.713439

>  <GCUT_SMR_0>
-0.51698613

>  <GCUT_SMR_1>
-0.17533769

>  <GCUT_SMR_2>
0.2136493

>  <GCUT_SMR_3>
2.8684103

>  <Kier1>
15.879017

>  <Kier2>
7.0507812

>  <Kier3>
3.6734693

>  <KierA1>
13.93837

>  <KierA2>
6.146472

>  <KierA3>
3.1853917

>  <KierFlex>
4.0796094

>  <lip_acc>
1

>  <lip_don>
0

>  <lip_druglike>
1

>  <lip_violation>
1

>  <logP(o/w)>
5.0770001

>  <logS>
-4.7599001

>  <mr>
9.2804031

>  <mutagenic>
0

>  <nmol>
1

>  <opr_brigid>
17

>  <opr_leadlike>
1

>  <opr_nring>
3

>  <opr_nrot>
3

>  <opr_violation>
1

>  <PC+>
0

>  <PC->
0

>  <PEOE_PC+>
0.96524698

>  <PEOE_PC->
-0.96524698

>  <PEOE_RPC+>
0.066145539

>  <PEOE_RPC->
0.31914383

>  <PEOE_VSA+0>
68.73513

>  <PEOE_VSA+1>
34.123089

>  <PEOE_VSA+2>
0

>  <PEOE_VSA+3>
0

>  <PEOE_VSA+4>
0

>  <PEOE_VSA+5>
0

>  <PEOE_VSA+6>
0

>  <PEOE_VSA-0>
110.82393

>  <PEOE_VSA-1>
98.362183

>  <PEOE_VSA-2>
0

>  <PEOE_VSA-3>
0

>  <PEOE_VSA-4>
0

>  <PEOE_VSA-5>
0

>  <PEOE_VSA-6>
0

>  <PEOE_VSA_FHYD>
1

>  <PEOE_VSA_FNEG>
0.67037302

>  <PEOE_VSA_FPNEG>
0

>  <PEOE_VSA_FPOL>
0

>  <PEOE_VSA_FPOS>
0.32962695

>  <PEOE_VSA_FPPOS>
0

>  <PEOE_VSA_HYD>
312.04434

>  <PEOE_VSA_NEG>
209.18611

>  <PEOE_VSA_PNEG>
0

>  <PEOE_VSA_POL>
0

>  <PEOE_VSA_POS>
102.85822

>  <PEOE_VSA_PPOS>
0

>  <petitjean>
0.44444445

>  <petitjeanSC>
0.80000001

>  <Q_PC+>
0

>  <Q_PC->
0

>  <Q_RPC+>
0

>  <Q_RPC->
0

>  <Q_VSA_FHYD>
1

>  <Q_VSA_FNEG>
0

>  <Q_VSA_FPNEG>
0

>  <Q_VSA_FPOL>
0

>  <Q_VSA_FPOS>
1

>  <Q_VSA_FPPOS>
0

>  <Q_VSA_HYD>
312.04434

>  <Q_VSA_NEG>
0

>  <Q_VSA_PNEG>
0

>  <Q_VSA_POL>
0

>  <Q_VSA_POS>
312.04434

>  <Q_VSA_PPOS>
0

>  <radius>
5

>  <reactive>
0

>  <rings>
3

>  <RPC+>
0

>  <RPC->
0

>  <rsynth>
0.047619049

>  <SlogP>
5.00529

>  <SlogP_VSA0>
0

>  <SlogP_VSA1>
3.1243138

>  <SlogP_VSA2>
0

>  <SlogP_VSA3>
21.625153

>  <SlogP_VSA4>
6.37115

>  <SlogP_VSA5>
68.895844

>  <SlogP_VSA6>
3.5006065

>  <SlogP_VSA7>
141.14548

>  <SlogP_VSA8>
18.868406

>  <SlogP_VSA9>
71.368187

>  <SMR>
9.1205997

>  <SMR_VSA0>
0

>  <SMR_VSA1>
3.1243138

>  <SMR_VSA2>
6.2870431

>  <SMR_VSA3>
9.8717566

>  <SMR_VSA4>
0

>  <SMR_VSA5>
160.01389

>  <SMR_VSA6>
18.439579

>  <SMR_VSA7>
137.16257

>  <TPSA>
3.24

>  <VAdjEq>
0.48250595

>  <VAdjMa>
5.523562

>  <VDistEq>
3.0589597

>  <VDistMa>
8.5100098

>  <vdw_area>
312.04434

>  <vdw_vol>
426.86282

>  <vsa_acc>
0

>  <vsa_acid>
0

>  <vsa_base>
0

>  <vsa_don>
0

>  <vsa_hyd>
299.23203

>  <vsa_other>
0

>  <vsa_pol>
0

>  <Weight>
315.86798

>  <weinerPath>
896

>  <weinerPol>
33

>  <zagreb>
110

$$$$