Clc1ccc(cc1)C(=O)c1ccc(OC(C(=O)NCCS(O)(=O)=O)(C)C)cc1
  MOE2013           2D

 28 29  0  0  0  0  0  0  0  0999 V2000
    0.0000    0.0000    0.0000 Cl  0  0  0  0  0  0  0  0  0  0  0  0
    1.2940    0.7590    0.0000 C   0  0  0  0  0  0  0  0  0  0  0  0
    2.5980    0.0170    0.0000 C   0  0  0  0  0  0  0  0  0  0  0  0
    3.8920    0.7760    0.0000 C   0  0  0  0  0  0  0  0  0  0  0  0
    3.8820    2.2760    0.0000 C   0  0  0  0  0  0  0  0  0  0  0  0
    2.5780    3.0170    0.0000 C   0  0  0  0  0  0  0  0  0  0  0  0
    1.2840    2.2590    0.0000 C   0  0  0  0  0  0  0  0  0  0  0  0
    5.1760    3.0350    0.0000 C   0  0  0  0  0  0  0  0  0  0  0  0
    5.1660    4.5350    0.0000 O   0  0  0  0  0  0  0  0  0  0  0  0
    6.4800    2.2940    0.0000 C   0  0  0  0  0  0  0  0  0  0  0  0
    7.7740    3.0520    0.0000 C   0  0  0  0  0  0  0  0  0  0  0  0
    9.0780    2.3110    0.0000 C   0  0  0  0  0  0  0  0  0  0  0  0
    9.0880    0.8110    0.0000 C   0  0  0  0  0  0  0  0  0  0  0  0
   10.3920    0.0700    0.0000 O   0  0  0  0  0  0  0  0  0  0  0  0
   11.6860    0.8280    0.0000 C   0  0  0  0  0  0  0  0  0  0  0  0
   12.4450   -0.4660    0.0000 C   0  0  0  0  0  0  0  0  0  0  0  0
   11.7030   -1.7700    0.0000 O   0  0  0  0  0  0  0  0  0  0  0  0
   13.9450   -0.4560    0.0000 N   0  0  0  0  0  0  0  0  0  0  0  0
   14.7030   -1.7500    0.0000 C   0  0  0  0  0  0  0  0  0  0  0  0
   16.2030   -1.7390    0.0000 C   0  0  0  0  0  0  0  0  0  0  0  0
   16.9620   -3.0330    0.0000 S   0  0  0  0  0  0  0  0  0  0  0  0
   17.7210   -4.3270    0.0000 O   0  0  0  0  0  0  0  0  0  0  0  0
   15.6680   -3.7920    0.0000 O   0  0  0  0  0  0  0  0  0  0  0  0
   18.2560   -2.2750    0.0000 O   0  0  0  0  0  0  0  0  0  0  0  0
   10.9270    2.1220    0.0000 C   0  0  0  0  0  0  0  0  0  0  0  0
   12.9800    1.5870    0.0000 C   0  0  0  0  0  0  0  0  0  0  0  0
    7.7940    0.0520    0.0000 C   0  0  0  0  0  0  0  0  0  0  0  0
    6.4900    0.7940    0.0000 C   0  0  0  0  0  0  0  0  0  0  0  0
  1  2  1  0  0  0  0
  2  3  1  0  0  0  0
  2  7  2  0  0  0  0
  3  4  2  0  0  0  0
  4  5  1  0  0  0  0
  5  6  2  0  0  0  0
  5  8  1  0  0  0  0
  6  7  1  0  0  0  0
  8  9  2  0  0  0  0
  8 10  1  0  0  0  0
 10 11  1  0  0  0  0
 10 28  2  0  0  0  0
 11 12  2  0  0  0  0
 12 13  1  0  0  0  0
 13 14  1  0  0  0  0
 13 27  2  0  0  0  0
 14 15  1  0  0  0  0
 15 16  1  0  0  0  0
 15 25  1  0  0  0  0
 15 26  1  0  0  0  0
 16 17  2  0  0  0  0
 16 18  1  0  0  0  0
 18 19  1  0  0  0  0
 19 20  1  0  0  0  0
 20 21  1  0  0  0  0
 21 22  1  0  0  0  0
 21 23  2  0  0  0  0
 21 24  2  0  0  0  0
 27 28  1  0  0  0  0
M  END
>  <Index>
223

>  <ID>
HT0474

>  <class>
0

>  <apol>
57.76786

>  <ast_fraglike>
0

>  <ast_fraglike_ext>
0

>  <ast_violation>
3

>  <ast_violation_ext>
5

>  <a_acc>
6

>  <a_acid>
0

>  <a_aro>
12

>  <a_base>
0

>  <a_count>
48

>  <a_don>
4

>  <a_donacc>
10

>  <a_heavy>
28

>  <a_hyd>
18

>  <a_IC>
85.419243

>  <a_ICM>
1.7795675

>  <a_nB>
0

>  <a_nBr>
0

>  <a_nC>
19

>  <a_nCl>
1

>  <a_nF>
0

>  <a_nH>
20

>  <a_nI>
0

>  <a_nN>
1

>  <a_nO>
6

>  <a_nP>
0

>  <a_nS>
1

>  <balabanJ>
1.7308832

>  <BCUT_PEOE_0>
-2.5592773

>  <BCUT_PEOE_1>
-0.64241624

>  <BCUT_PEOE_2>
0.67538625

>  <BCUT_PEOE_3>
2.6373572

>  <BCUT_SLOGP_0>
-2.7710862

>  <BCUT_SLOGP_1>
-0.54414344

>  <BCUT_SLOGP_2>
0.75864643

>  <BCUT_SLOGP_3>
2.5301025

>  <BCUT_SMR_0>
-2.3261368

>  <BCUT_SMR_1>
-0.49986199

>  <BCUT_SMR_2>
0.85431087

>  <BCUT_SMR_3>
2.8762522

>  <bpol>
33.25214

>  <b_1rotN>
8

>  <b_1rotR>
0.27586207

>  <b_ar>
12

>  <b_count>
49

>  <b_double>
2

>  <b_heavy>
29

>  <b_max1len>
6

>  <b_rotN>
9

>  <b_rotR>
0.31034482

>  <b_single>
35

>  <b_triple>
0

>  <chi0>
20.949383

>  <chi0v>
16.88011

>  <chi0v_C>
11.533015

>  <chi0_C>
13.03517

>  <chi1>
12.976982

>  <chi1v>
10.293479

>  <chi1v_C>
5.8927345

>  <chi1_C>
7.7213283

>  <chiral>
0

>  <chiral_u>
0

>  <density>
0.83990479

>  <diameter>
17

>  <FCharge>
0

>  <GCUT_PEOE_0>
-0.81461608

>  <GCUT_PEOE_1>
-0.38409019

>  <GCUT_PEOE_2>
0.082353115

>  <GCUT_PEOE_3>
2.573509

>  <GCUT_SLOGP_0>
-1.1634331

>  <GCUT_SLOGP_1>
-0.38528353

>  <GCUT_SLOGP_2>
0.15138549

>  <GCUT_SLOGP_3>
2.6035039

>  <GCUT_SMR_0>
-0.51488739

>  <GCUT_SMR_1>
-0.21605732

>  <GCUT_SMR_2>
0.20452377

>  <GCUT_SMR_3>
2.8313825

>  <Kier1>
24.271107

>  <Kier2>
10.346939

>  <Kier3>
7.9867673

>  <KierA1>
20.790535

>  <KierA2>
8.8097553

>  <KierA3>
6.771049

>  <KierFlex>
6.5414119

>  <lip_acc>
7

>  <lip_don>
2

>  <lip_druglike>
1

>  <lip_violation>
0

>  <logP(o/w)>
2.8239999

>  <logS>
-5.0899

>  <mr>
10.738965

>  <mutagenic>
0

>  <nmol>
1

>  <opr_brigid>
12

>  <opr_leadlike>
1

>  <opr_nring>
2

>  <opr_nrot>
8

>  <opr_violation>
0

>  <PC+>
0

>  <PC->
0

>  <PEOE_PC+>
2.4658797

>  <PEOE_PC->
-2.4658797

>  <PEOE_RPC+>
0.10269377

>  <PEOE_RPC->
0.13960092

>  <PEOE_VSA+0>
34.52914

>  <PEOE_VSA+1>
72.949333

>  <PEOE_VSA+2>
21.723097

>  <PEOE_VSA+3>
17.077532

>  <PEOE_VSA+4>
10.677375

>  <PEOE_VSA+5>
12.949531

>  <PEOE_VSA+6>
0

>  <PEOE_VSA-0>
135.53459

>  <PEOE_VSA-1>
29.581947

>  <PEOE_VSA-2>
0

>  <PEOE_VSA-3>
0

>  <PEOE_VSA-4>
32.016521

>  <PEOE_VSA-5>
27.133842

>  <PEOE_VSA-6>
12.849528

>  <PEOE_VSA_FHYD>
0.76505768

>  <PEOE_VSA_FNEG>
0.58256352

>  <PEOE_VSA_FPNEG>
0.17689416

>  <PEOE_VSA_FPOL>
0.23494233

>  <PEOE_VSA_FPOS>
0.41743648

>  <PEOE_VSA_FPPOS>
0.058048166

>  <PEOE_VSA_HYD>
311.39563

>  <PEOE_VSA_NEG>
237.11642

>  <PEOE_VSA_PNEG>
71.999893

>  <PEOE_VSA_POL>
95.626801

>  <PEOE_VSA_POS>
169.90601

>  <PEOE_VSA_PPOS>
23.626905

>  <petitjean>
0.47058824

>  <petitjeanSC>
0.8888889

>  <Q_PC+>
0

>  <Q_PC->
0

>  <Q_RPC+>
0

>  <Q_RPC->
0

>  <Q_VSA_FHYD>
1

>  <Q_VSA_FNEG>
0

>  <Q_VSA_FPNEG>
0

>  <Q_VSA_FPOL>
0

>  <Q_VSA_FPOS>
1

>  <Q_VSA_FPPOS>
0

>  <Q_VSA_HYD>
407.02243

>  <Q_VSA_NEG>
0

>  <Q_VSA_PNEG>
0

>  <Q_VSA_POL>
0

>  <Q_VSA_POS>
407.02243

>  <Q_VSA_PPOS>
0

>  <radius>
9

>  <reactive>
1

>  <rings>
2

>  <RPC+>
0

>  <RPC->
0

>  <rsynth>
1

>  <SlogP>
2.1666999

>  <SlogP_VSA0>
51.941391

>  <SlogP_VSA1>
59.118084

>  <SlogP_VSA2>
32.445366

>  <SlogP_VSA3>
35.673141

>  <SlogP_VSA4>
30.233366

>  <SlogP_VSA5>
0

>  <SlogP_VSA6>
3.5006065

>  <SlogP_VSA7>
141.14548

>  <SlogP_VSA8>
0

>  <SlogP_VSA9>
111.04411

>  <SMR>
10.50488

>  <SMR_VSA0>
95.896118

>  <SMR_VSA1>
33.930641

>  <SMR_VSA2>
18.01075

>  <SMR_VSA3>
15.115185

>  <SMR_VSA4>
0

>  <SMR_VSA5>
141.14548

>  <SMR_VSA6>
46.619537

>  <SMR_VSA7>
114.38382

>  <TPSA>
109.77

>  <VAdjEq>
0.38060221

>  <VAdjMa>
5.8579812

>  <VDistEq>
3.8501065

>  <VDistMa>
9.2776794

>  <vdw_area>
407.02243

>  <vdw_vol>
507.06818

>  <vsa_acc>
29.637598

>  <vsa_acid>
0

>  <vsa_base>
0

>  <vsa_don>
5.6825762

>  <vsa_hyd>
270.34622

>  <vsa_other>
32.920834

>  <vsa_pol>
83.344955

>  <Weight>
425.88901

>  <weinerPath>
2446

>  <weinerPol>
40

>  <zagreb>
142

$$$$