S(=O)(=O)(Nc1cc2cc([nH]c2cc1)C(=O)N1CCN(CC1)c1ncccc1NC(C)C)C
  MOE2013           2D

 32 35  0  0  0  0  0  0  0  0999 V2000
    0.0000    0.0000    0.0000 S   0  0  0  0  0  0  0  0  0  0  0  0
   -1.2940    0.7590    0.0000 O   0  0  0  0  0  0  0  0  0  0  0  0
    1.2940   -0.7590    0.0000 O   0  0  0  0  0  0  0  0  0  0  0  0
   -0.7590   -1.2940    0.0000 N   0  0  0  0  0  0  0  0  0  0  0  0
   -2.2590   -1.2830    0.0000 C   0  0  0  0  0  0  0  0  0  0  0  0
   -3.0180   -2.5770    0.0000 C   0  0  0  0  0  0  0  0  0  0  0  0
   -4.5180   -2.5660    0.0000 C   0  0  0  0  0  0  0  0  0  0  0  0
   -5.5300   -3.6740    0.0000 C   0  0  0  0  0  0  0  0  0  0  0  0
   -6.8960   -3.0540    0.0000 C   0  0  0  0  0  0  0  0  0  0  0  0
   -6.7280   -1.5640    0.0000 N   0  0  0  0  0  0  0  0  0  0  0  0
   -5.2590   -1.2620    0.0000 C   0  0  0  0  0  0  0  0  0  0  0  0
   -4.5000    0.0320    0.0000 C   0  0  0  0  0  0  0  0  0  0  0  0
   -3.0000    0.0210    0.0000 C   0  0  0  0  0  0  0  0  0  0  0  0
   -8.2000   -3.7950    0.0000 C   0  0  0  0  0  0  0  0  0  0  0  0
   -8.2110   -5.2950    0.0000 O   0  0  0  0  0  0  0  0  0  0  0  0
   -9.4940   -3.0360    0.0000 N   0  0  0  0  0  0  0  0  0  0  0  0
   -9.4830   -1.5360    0.0000 C   0  0  0  0  0  0  0  0  0  0  0  0
  -10.7770   -0.7770    0.0000 C   0  0  0  0  0  0  0  0  0  0  0  0
  -12.0810   -1.5180    0.0000 N   0  0  0  0  0  0  0  0  0  0  0  0
  -12.0920   -3.0180    0.0000 C   0  0  0  0  0  0  0  0  0  0  0  0
  -10.7980   -3.7770    0.0000 C   0  0  0  0  0  0  0  0  0  0  0  0
  -13.3750   -0.7580    0.0000 C   0  0  0  0  0  0  0  0  0  0  0  0
  -13.3640    0.7410    0.0000 N   0  0  0  0  0  0  0  0  0  0  0  0
  -14.6580    1.5010    0.0000 C   0  0  0  0  0  0  0  0  0  0  0  0
  -15.9620    0.7600    0.0000 C   0  0  0  0  0  0  0  0  0  0  0  0
  -15.9730   -0.7400    0.0000 C   0  0  0  0  0  0  0  0  0  0  0  0
  -14.6790   -1.4990    0.0000 C   0  0  0  0  0  0  0  0  0  0  0  0
  -14.6900   -2.9990    0.0000 N   0  0  0  0  0  0  0  0  0  0  0  0
  -15.9940   -3.7400    0.0000 C   0  0  0  0  0  0  0  0  0  0  0  0
  -17.2880   -2.9810    0.0000 C   0  0  0  0  0  0  0  0  0  0  0  0
  -16.0050   -5.2400    0.0000 C   0  0  0  0  0  0  0  0  0  0  0  0
    0.7590    1.2940    0.0000 C   0  0  0  0  0  0  0  0  0  0  0  0
  1  2  2  0  0  0  0
  1  3  2  0  0  0  0
  1  4  1  0  0  0  0
  1 32  1  0  0  0  0
  4  5  1  0  0  0  0
  5  6  1  0  0  0  0
  5 13  2  0  0  0  0
  6  7  2  0  0  0  0
  7  8  1  0  0  0  0
  7 11  1  0  0  0  0
  8  9  2  0  0  0  0
  9 10  1  0  0  0  0
  9 14  1  0  0  0  0
 10 11  1  0  0  0  0
 11 12  2  0  0  0  0
 12 13  1  0  0  0  0
 14 15  2  0  0  0  0
 14 16  1  0  0  0  0
 16 17  1  0  0  0  0
 16 21  1  0  0  0  0
 17 18  1  0  0  0  0
 18 19  1  0  0  0  0
 19 20  1  0  0  0  0
 19 22  1  0  0  0  0
 20 21  1  0  0  0  0
 22 23  1  0  0  0  0
 22 27  2  0  0  0  0
 23 24  2  0  0  0  0
 24 25  1  0  0  0  0
 25 26  2  0  0  0  0
 26 27  1  0  0  0  0
 27 28  1  0  0  0  0
 28 29  1  0  0  0  0
 29 30  1  0  0  0  0
 29 31  1  0  0  0  0
M  END
>  <Index>
292

>  <ID>
HT0605

>  <class>
0

>  <apol>
69.296204

>  <ast_fraglike>
0

>  <ast_fraglike_ext>
0

>  <ast_violation>
2

>  <ast_violation_ext>
4

>  <a_acc>
4

>  <a_acid>
0

>  <a_aro>
15

>  <a_base>
0

>  <a_count>
60

>  <a_don>
3

>  <a_donacc>
7

>  <a_heavy>
32

>  <a_hyd>
20

>  <a_IC>
101.43534

>  <a_ICM>
1.690589

>  <a_nB>
0

>  <a_nBr>
0

>  <a_nC>
22

>  <a_nCl>
0

>  <a_nF>
0

>  <a_nH>
28

>  <a_nI>
0

>  <a_nN>
6

>  <a_nO>
3

>  <a_nP>
0

>  <a_nS>
1

>  <balabanJ>
1.2566175

>  <BCUT_PEOE_0>
-2.7140028

>  <BCUT_PEOE_1>
-0.55499142

>  <BCUT_PEOE_2>
0.62418169

>  <BCUT_PEOE_3>
2.6449404

>  <BCUT_SLOGP_0>
-2.8559377

>  <BCUT_SLOGP_1>
-0.49588525

>  <BCUT_SLOGP_2>
0.68128163

>  <BCUT_SLOGP_3>
2.559283

>  <BCUT_SMR_0>
-2.4240768

>  <BCUT_SMR_1>
-0.42228577

>  <BCUT_SMR_2>
0.75385433

>  <BCUT_SMR_3>
2.9288807

>  <bpol>
45.303795

>  <b_1rotN>
7

>  <b_1rotR>
0.2

>  <b_ar>
16

>  <b_count>
63

>  <b_double>
1

>  <b_heavy>
35

>  <b_max1len>
4

>  <b_rotN>
7

>  <b_rotR>
0.2

>  <b_single>
46

>  <b_triple>
0

>  <chi0>
22.880104

>  <chi0v>
19.238359

>  <chi0v_C>
13.947229

>  <chi0_C>
15.396976

>  <chi1>
15.192492

>  <chi1v>
12.449273

>  <chi1v_C>
5.9254265

>  <chi1_C>
7.5124388

>  <chiral>
0

>  <chiral_u>
0

>  <density>
0.76825893

>  <diameter>
17

>  <FCharge>
0

>  <GCUT_PEOE_0>
-0.84615582

>  <GCUT_PEOE_1>
-0.40529627

>  <GCUT_PEOE_2>
0.067480892

>  <GCUT_PEOE_3>
2.7694173

>  <GCUT_SLOGP_0>
-0.99052161

>  <GCUT_SLOGP_1>
-0.34765843

>  <GCUT_SLOGP_2>
0.12765056

>  <GCUT_SLOGP_3>
2.8028429

>  <GCUT_SMR_0>
-0.51595503

>  <GCUT_SMR_1>
-0.18386558

>  <GCUT_SMR_2>
0.16928521

>  <GCUT_SMR_3>
3.0565915

>  <Kier1>
25.103674

>  <Kier2>
10.726644

>  <Kier3>
6.5759635

>  <KierA1>
19.539955

>  <KierA2>
8.2775459

>  <KierA3>
5.0437126

>  <KierFlex>
5.0544648

>  <lip_acc>
9

>  <lip_don>
3

>  <lip_druglike>
1

>  <lip_violation>
0

>  <logP(o/w)>
1.701

>  <logS>
-3.08041

>  <mr>
12.334322

>  <mutagenic>
0

>  <nmol>
1

>  <opr_brigid>
22

>  <opr_leadlike>
0

>  <opr_nring>
4

>  <opr_nrot>
7

>  <opr_violation>
2

>  <PC+>
0

>  <PC->
0

>  <PEOE_PC+>
2.7381828

>  <PEOE_PC->
-2.7381828

>  <PEOE_RPC+>
0.098952837

>  <PEOE_RPC->
0.12796688

>  <PEOE_VSA+0>
138.59412

>  <PEOE_VSA+1>
62.237812

>  <PEOE_VSA+2>
39.305286

>  <PEOE_VSA+3>
29.342752

>  <PEOE_VSA+4>
0

>  <PEOE_VSA+5>
12.949531

>  <PEOE_VSA+6>
0

>  <PEOE_VSA-0>
93.214523

>  <PEOE_VSA-1>
24.509808

>  <PEOE_VSA-2>
0

>  <PEOE_VSA-3>
2.5295215

>  <PEOE_VSA-4>
37.6991

>  <PEOE_VSA-5>
13.703812

>  <PEOE_VSA-6>
0.13689101

>  <PEOE_VSA_FHYD>
0.85802281

>  <PEOE_VSA_FNEG>
0.37821421

>  <PEOE_VSA_FPNEG>
0.11346802

>  <PEOE_VSA_FPOL>
0.14197721

>  <PEOE_VSA_FPOS>
0.62178576

>  <PEOE_VSA_FPPOS>
0.028509183

>  <PEOE_VSA_HYD>
389.73383

>  <PEOE_VSA_NEG>
171.79366

>  <PEOE_VSA_PNEG>
51.539803

>  <PEOE_VSA_POL>
64.489334

>  <PEOE_VSA_POS>
282.4295

>  <PEOE_VSA_PPOS>
12.949531

>  <petitjean>
0.47058824

>  <petitjeanSC>
0.8888889

>  <Q_PC+>
0

>  <Q_PC->
0

>  <Q_RPC+>
0

>  <Q_RPC->
0

>  <Q_VSA_FHYD>
1

>  <Q_VSA_FNEG>
0

>  <Q_VSA_FPNEG>
0

>  <Q_VSA_FPOL>
0

>  <Q_VSA_FPOS>
1

>  <Q_VSA_FPPOS>
0

>  <Q_VSA_HYD>
454.22314

>  <Q_VSA_NEG>
0

>  <Q_VSA_PNEG>
0

>  <Q_VSA_POL>
0

>  <Q_VSA_POS>
454.22314

>  <Q_VSA_PPOS>
0

>  <radius>
9

>  <reactive>
0

>  <rings>
4

>  <RPC+>
0

>  <RPC->
0

>  <rsynth>
1

>  <SlogP>
2.7170999

>  <SlogP_VSA0>
3.1243138

>  <SlogP_VSA1>
107.75607

>  <SlogP_VSA2>
27.408241

>  <SlogP_VSA3>
73.758316

>  <SlogP_VSA4>
26.618963

>  <SlogP_VSA5>
31.691174

>  <SlogP_VSA6>
0

>  <SlogP_VSA7>
127.79057

>  <SlogP_VSA8>
0

>  <SlogP_VSA9>
74.493446

>  <SMR>
12.78774

>  <SMR_VSA0>
72.033905

>  <SMR_VSA1>
19.909843

>  <SMR_VSA2>
19.909843

>  <SMR_VSA3>
6.7387161

>  <SMR_VSA4>
46.974266

>  <SMR_VSA5>
123.07346

>  <SMR_VSA6>
79.017097

>  <SMR_VSA7>
104.98395

>  <TPSA>
110.43

>  <VAdjEq>
0.3597711

>  <VAdjMa>
6.129283

>  <VDistEq>
3.9000969

>  <VDistMa>
9.6714134

>  <vdw_area>
454.22314

>  <vdw_vol>
594.29315

>  <vsa_acc>
51.266022

>  <vsa_acid>
0

>  <vsa_base>
0

>  <vsa_don>
19.440359

>  <vsa_hyd>
322.2562

>  <vsa_other>
34.245701

>  <vsa_pol>
70.706375

>  <Weight>
456.57098

>  <weinerPath>
3349

>  <weinerPol>
49

>  <zagreb>
172

$$$$