OC1(CCCC1)C(C(OCCN(C)C)=O)c1ccccc1
  MOE2013           2D

 21 22  0  0  1  0  0  0  0  0999 V2000
    0.0000    0.0000    0.0000 O   0  0  0  0  0  0  0  0  0  0  0  0
   -1.4980   -0.0750    0.0000 C   0  0  0  0  0  0  0  0  0  0  0  0
   -2.8700   -0.6820    0.0000 C   0  0  0  0  0  0  0  0  0  0  0  0
   -3.8710    0.4350    0.0000 C   0  0  0  0  0  0  0  0  0  0  0  0
   -3.1180    1.7320    0.0000 C   0  0  0  0  0  0  0  0  0  0  0  0
   -1.6520    1.4170    0.0000 C   0  0  0  0  0  0  0  0  0  0  0  0
   -0.7280   -1.3630    0.0000 C   0  0  3  0  0  0  0  0  0  0  0  0
    0.7710   -1.3400    0.0000 C   0  0  0  0  0  0  0  0  0  0  0  0
    1.5020   -0.0300    0.0000 O   0  0  0  0  0  0  0  0  0  0  0  0
    3.0010   -0.0070    0.0000 C   0  0  0  0  0  0  0  0  0  0  0  0
    3.7320    1.3040    0.0000 C   0  0  0  0  0  0  0  0  0  0  0  0
    5.2310    1.3260    0.0000 N   0  0  0  0  0  0  0  0  0  0  0  0
    5.9620    2.6370    0.0000 C   0  0  0  0  0  0  0  0  0  0  0  0
    6.0010    0.0390    0.0000 C   0  0  0  0  0  0  0  0  0  0  0  0
    1.5410   -2.6270    0.0000 O   0  0  0  0  0  0  0  0  0  0  0  0
   -1.4590   -2.6730    0.0000 C   0  0  0  0  0  0  0  0  0  0  0  0
   -0.6890   -3.9600    0.0000 C   0  0  0  0  0  0  0  0  0  0  0  0
   -1.4190   -5.2710    0.0000 C   0  0  0  0  0  0  0  0  0  0  0  0
   -2.9190   -5.2930    0.0000 C   0  0  0  0  0  0  0  0  0  0  0  0
   -3.6890   -4.0060    0.0000 C   0  0  0  0  0  0  0  0  0  0  0  0
   -2.9580   -2.6960    0.0000 C   0  0  0  0  0  0  0  0  0  0  0  0
  1  2  1  0  0  0  0
  2  3  1  0  0  0  0
  2  6  1  0  0  0  0
  2  7  1  0  0  0  0
  3  4  1  0  0  0  0
  4  5  1  0  0  0  0
  5  6  1  0  0  0  0
  7  8  1  0  0  0  0
  7 16  1  0  0  0  0
  8  9  1  0  0  0  0
  8 15  2  0  0  0  0
  9 10  1  0  0  0  0
 10 11  1  0  0  0  0
 11 12  1  0  0  0  0
 12 13  1  0  0  0  0
 12 14  1  0  0  0  0
 16 17  1  0  0  0  0
 16 21  2  0  0  0  0
 17 18  2  0  0  0  0
 18 19  1  0  0  0  0
 19 20  2  0  0  0  0
 20 21  1  0  0  0  0
M  END
>  <Index>
268

>  <ID>
HT0567

>  <class>
0

>  <apol>
50.095825

>  <ast_fraglike>
1

>  <ast_fraglike_ext>
0

>  <ast_violation>
0

>  <ast_violation_ext>
1

>  <a_acc>
3

>  <a_acid>
0

>  <a_aro>
6

>  <a_base>
0

>  <a_count>
46

>  <a_don>
1

>  <a_donacc>
4

>  <a_heavy>
21

>  <a_hyd>
16

>  <a_IC>
63.745689

>  <a_ICM>
1.3857758

>  <a_nB>
0

>  <a_nBr>
0

>  <a_nC>
17

>  <a_nCl>
0

>  <a_nF>
0

>  <a_nH>
25

>  <a_nI>
0

>  <a_nN>
1

>  <a_nO>
3

>  <a_nP>
0

>  <a_nS>
0

>  <balabanJ>
2.0004418

>  <BCUT_PEOE_0>
-2.6207922

>  <BCUT_PEOE_1>
-0.50942457

>  <BCUT_PEOE_2>
0.57413626

>  <BCUT_PEOE_3>
2.802599

>  <BCUT_SLOGP_0>
-2.709275

>  <BCUT_SLOGP_1>
-0.41335732

>  <BCUT_SLOGP_2>
0.64464438

>  <BCUT_SLOGP_3>
2.8626373

>  <BCUT_SMR_0>
-2.3816714

>  <BCUT_SMR_1>
-0.38529283

>  <BCUT_SMR_2>
0.70307326

>  <BCUT_SMR_3>
3.0353084

>  <bpol>
32.184174

>  <b_1rotN>
6

>  <b_1rotR>
0.27272728

>  <b_ar>
6

>  <b_count>
47

>  <b_double>
1

>  <b_heavy>
22

>  <b_max1len>
5

>  <b_rotN>
7

>  <b_rotR>
0.31818181

>  <b_single>
40

>  <b_triple>
0

>  <chi0>
15.294683

>  <chi0v>
12.917666

>  <chi0v_C>
11.206742

>  <chi0_C>
12.010225

>  <chi1>
10.027493

>  <chi1v>
7.6150012

>  <chi1v_C>
5.4838157

>  <chi1_C>
6.4789453

>  <chiral>
1

>  <chiral_u>
1

>  <density>
0.69056523

>  <diameter>
10

>  <FCharge>
0

>  <GCUT_PEOE_0>
-0.85872322

>  <GCUT_PEOE_1>
-0.389824

>  <GCUT_PEOE_2>
0.058274847

>  <GCUT_PEOE_3>
2.770788

>  <GCUT_SLOGP_0>
-0.9589262

>  <GCUT_SLOGP_1>
-0.26582187

>  <GCUT_SLOGP_2>
0.095199399

>  <GCUT_SLOGP_3>
2.8129318

>  <GCUT_SMR_0>
-0.53139472

>  <GCUT_SMR_1>
-0.17943087

>  <GCUT_SMR_2>
0.15576759

>  <GCUT_SMR_3>
3.0024006

>  <Kier1>
17.355371

>  <Kier2>
8.0222225

>  <Kier3>
4.7333822

>  <KierA1>
14.732832

>  <KierA2>
6.7507906

>  <KierA3>
3.9565659

>  <KierFlex>
4.7361078

>  <lip_acc>
4

>  <lip_don>
1

>  <lip_druglike>
1

>  <lip_violation>
0

>  <logP(o/w)>
2.5780001

>  <logS>
-2.35391

>  <mr>
8.369545

>  <mutagenic>
0

>  <nmol>
1

>  <opr_brigid>
11

>  <opr_leadlike>
1

>  <opr_nring>
2

>  <opr_nrot>
7

>  <opr_violation>
0

>  <PC+>
0

>  <PC->
0

>  <PEOE_PC+>
1.7759256

>  <PEOE_PC->
-1.7759256

>  <PEOE_RPC+>
0.15341982

>  <PEOE_RPC->
0.21817693

>  <PEOE_VSA+0>
85.703888

>  <PEOE_VSA+1>
44.808994

>  <PEOE_VSA+2>
0

>  <PEOE_VSA+3>
0

>  <PEOE_VSA+4>
10.324173

>  <PEOE_VSA+5>
14.708499

>  <PEOE_VSA+6>
0

>  <PEOE_VSA-0>
66.088547

>  <PEOE_VSA-1>
78.677147

>  <PEOE_VSA-2>
0

>  <PEOE_VSA-3>
0

>  <PEOE_VSA-4>
0

>  <PEOE_VSA-5>
13.566921

>  <PEOE_VSA-6>
10.271297

>  <PEOE_VSA_FHYD>
0.84923345

>  <PEOE_VSA_FNEG>
0.5201425

>  <PEOE_VSA_FPNEG>
0.073540822

>  <PEOE_VSA_FPOL>
0.15076652

>  <PEOE_VSA_FPOS>
0.4798575

>  <PEOE_VSA_FPPOS>
0.077225707

>  <PEOE_VSA_HYD>
275.27856

>  <PEOE_VSA_NEG>
168.60391

>  <PEOE_VSA_PNEG>
23.838217

>  <PEOE_VSA_POL>
48.870888

>  <PEOE_VSA_POS>
155.54555

>  <PEOE_VSA_PPOS>
25.032671

>  <petitjean>
0.5

>  <petitjeanSC>
1

>  <Q_PC+>
0

>  <Q_PC->
0

>  <Q_RPC+>
0

>  <Q_RPC->
0

>  <Q_VSA_FHYD>
1

>  <Q_VSA_FNEG>
0

>  <Q_VSA_FPNEG>
0

>  <Q_VSA_FPOL>
0

>  <Q_VSA_FPOS>
1

>  <Q_VSA_FPPOS>
0

>  <Q_VSA_HYD>
324.14948

>  <Q_VSA_NEG>
0

>  <Q_VSA_PNEG>
0

>  <Q_VSA_POL>
0

>  <Q_VSA_POS>
324.14948

>  <Q_VSA_PPOS>
0

>  <radius>
5

>  <reactive>
0

>  <rings>
2

>  <RPC+>
0

>  <RPC->
0

>  <rsynth>
1

>  <SlogP>
2.1801

>  <SlogP_VSA0>
25.385227

>  <SlogP_VSA1>
10.869778

>  <SlogP_VSA2>
34.862103

>  <SlogP_VSA3>
39.365837

>  <SlogP_VSA4>
3.185575

>  <SlogP_VSA5>
65.794373

>  <SlogP_VSA6>
4.4107962

>  <SlogP_VSA7>
88.215919

>  <SlogP_VSA8>
75.473625

>  <SlogP_VSA9>
0

>  <SMR>
8.21138

>  <SMR_VSA0>
34.862103

>  <SMR_VSA1>
28.509541

>  <SMR_VSA2>
0

>  <SMR_VSA3>
7.5963712

>  <SMR_VSA4>
0

>  <SMR_VSA5>
163.68954

>  <SMR_VSA6>
47.111301

>  <SMR_VSA7>
65.794373

>  <TPSA>
49.77

>  <VAdjEq>
0.46827638

>  <VAdjMa>
5.4594316

>  <VDistEq>
3.1287811

>  <VDistMa>
8.5089951

>  <vdw_area>
324.14948

>  <vdw_vol>
421.96014

>  <vsa_acc>
13.566921

>  <vsa_acid>
0

>  <vsa_base>
0

>  <vsa_don>
0

>  <vsa_hyd>
256.85043

>  <vsa_other>
17.212255

>  <vsa_pol>
27.133842

>  <Weight>
291.39099

>  <weinerPath>
929

>  <weinerPol>
29

>  <zagreb>
104

$$$$