o1c(ccc1C=NN1CC(=O)NC1=O)-c1ccc([N+](=O)[O-])cc1
  MOE2013           2D

 23 25  0  0  0  0  0  0  0  0999 V2000
    0.0000    0.0000    0.0000 O   0  0  0  0  0  0  0  0  0  0  0  0
    1.1230    0.9950    0.0000 C   0  0  0  0  0  0  0  0  0  0  0  0
    0.5240    2.3700    0.0000 C   0  0  0  0  0  0  0  0  0  0  0  0
   -0.9690    2.2250    0.0000 C   0  0  0  0  0  0  0  0  0  0  0  0
   -1.2930    0.7610    0.0000 C   0  0  0  0  0  0  0  0  0  0  0  0
   -2.6680    0.1620    0.0000 C   0  0  0  0  0  0  0  0  0  0  0  0
   -3.8740    1.0530    0.0000 N   0  0  0  0  0  0  0  0  0  0  0  0
   -5.2500    0.4540    0.0000 N   0  0  0  0  0  0  0  0  0  0  0  0
   -5.5740   -1.0100    0.0000 C   0  0  0  0  0  0  0  0  0  0  0  0
   -7.0670   -1.1550    0.0000 C   0  0  0  0  0  0  0  0  0  0  0  0
   -7.8270   -2.4480    0.0000 O   0  0  0  0  0  0  0  0  0  0  0  0
   -7.6650    0.2200    0.0000 N   0  0  0  0  0  0  0  0  0  0  0  0
   -6.5430    1.2150    0.0000 C   0  0  0  0  0  0  0  0  0  0  0  0
   -6.6870    2.7080    0.0000 O   0  0  0  0  0  0  0  0  0  0  0  0
    2.5880    0.6710    0.0000 C   0  0  0  0  0  0  0  0  0  0  0  0
    3.0390   -0.7600    0.0000 C   0  0  0  0  0  0  0  0  0  0  0  0
    4.5040   -1.0840    0.0000 C   0  0  0  0  0  0  0  0  0  0  0  0
    5.5170    0.0230    0.0000 C   0  0  0  0  0  0  0  0  0  0  0  0
    6.9810   -0.3010    0.0000 N   0  3  0  0  0  0  0  0  0  0  0  0
    7.4330   -1.7310    0.0000 O   0  0  0  0  0  0  0  0  0  0  0  0
    7.9940    0.8060    0.0000 O   0  5  0  0  0  0  0  0  0  0  0  0
    5.0650    1.4530    0.0000 C   0  0  0  0  0  0  0  0  0  0  0  0
    3.6000    1.7770    0.0000 C   0  0  0  0  0  0  0  0  0  0  0  0
  1  2  1  0  0  0  0
  1  5  1  0  0  0  0
  2  3  2  0  0  0  0
  2 15  1  0  0  0  0
  3  4  1  0  0  0  0
  4  5  2  0  0  0  0
  5  6  1  0  0  0  0
  6  7  2  3  0  0  0
  7  8  1  0  0  0  0
  8  9  1  0  0  0  0
  8 13  1  0  0  0  0
  9 10  1  0  0  0  0
 10 11  2  0  0  0  0
 10 12  1  0  0  0  0
 12 13  1  0  0  0  0
 13 14  2  0  0  0  0
 15 16  1  0  0  0  0
 15 23  2  0  0  0  0
 16 17  2  0  0  0  0
 17 18  1  0  0  0  0
 18 19  1  0  0  0  0
 18 22  2  0  0  0  0
 19 20  2  0  0  0  0
 19 21  1  0  0  0  0
 22 23  1  0  0  0  0
M  CHG  1  19   1
M  CHG  1  21  -1
M  END
>  <Index>
280

>  <ID>
HT0588

>  <class>
0

>  <apol>
39.71793

>  <ast_fraglike>
0

>  <ast_fraglike_ext>
0

>  <ast_violation>
1

>  <ast_violation_ext>
2

>  <a_acc>
3

>  <a_acid>
0

>  <a_aro>
11

>  <a_base>
0

>  <a_count>
33

>  <a_don>
1

>  <a_donacc>
4

>  <a_heavy>
23

>  <a_hyd>
10

>  <a_IC>
60.333115

>  <a_ICM>
1.8282763

>  <a_nB>
0

>  <a_nBr>
0

>  <a_nC>
14

>  <a_nCl>
0

>  <a_nF>
0

>  <a_nH>
10

>  <a_nI>
0

>  <a_nN>
4

>  <a_nO>
5

>  <a_nP>
0

>  <a_nS>
0

>  <balabanJ>
1.3795557

>  <BCUT_PEOE_0>
-2.2243826

>  <BCUT_PEOE_1>
-0.62395269

>  <BCUT_PEOE_2>
0.70779687

>  <BCUT_PEOE_3>
2.4961398

>  <BCUT_SLOGP_0>
-2.4317012

>  <BCUT_SLOGP_1>
-0.5713436

>  <BCUT_SLOGP_2>
0.81645077

>  <BCUT_SLOGP_3>
2.4066794

>  <BCUT_SMR_0>
-1.9834217

>  <BCUT_SMR_1>
-0.44367394

>  <BCUT_SMR_2>
0.88927621

>  <BCUT_SMR_3>
2.7452273

>  <bpol>
18.66007

>  <b_1rotN>
4

>  <b_1rotR>
0.16

>  <b_ar>
11

>  <b_count>
35

>  <b_double>
4

>  <b_heavy>
25

>  <b_max1len>
2

>  <b_rotN>
4

>  <b_rotR>
0.16

>  <b_single>
20

>  <b_triple>
0

>  <chi0>
16.396976

>  <chi0v>
11.631441

>  <chi0v_C>
7.7485585

>  <chi0_C>
9.1209555

>  <chi1>
11.024878

>  <chi1v>
6.5275645

>  <chi1v_C>
3.6242793

>  <chi1_C>
5.0993195

>  <chiral>
0

>  <chiral_u>
0

>  <density>
0.86225671

>  <diameter>
14

>  <FCharge>
0

>  <GCUT_PEOE_0>
-0.82612765

>  <GCUT_PEOE_1>
-0.43953255

>  <GCUT_PEOE_2>
0.093559779

>  <GCUT_PEOE_3>
2.3400171

>  <GCUT_SLOGP_0>
-1.1766245

>  <GCUT_SLOGP_1>
-0.33665103

>  <GCUT_SLOGP_2>
0.19995205

>  <GCUT_SLOGP_3>
2.4341912

>  <GCUT_SMR_0>
-0.49112466

>  <GCUT_SMR_1>
-0.22117479

>  <GCUT_SMR_2>
0.23905018

>  <GCUT_SMR_3>
2.6172113

>  <Kier1>
17.811199

>  <Kier2>
7.9200001

>  <Kier3>
4.5454545

>  <KierA1>
11.768571

>  <KierA2>
5.1246967

>  <KierA3>
2.8946099

>  <KierFlex>
2.6221895

>  <lip_acc>
9

>  <lip_don>
1

>  <lip_druglike>
1

>  <lip_violation>
0

>  <logP(o/w)>
1.86

>  <logS>
-4.97861

>  <mr>
7.7421746

>  <mutagenic>
1

>  <nmol>
1

>  <opr_brigid>
17

>  <opr_leadlike>
1

>  <opr_nring>
3

>  <opr_nrot>
4

>  <opr_violation>
1

>  <PC+>
0

>  <PC->
0

>  <PEOE_PC+>
2.2576365

>  <PEOE_PC->
-2.2576365

>  <PEOE_RPC+>
0.15312812

>  <PEOE_RPC->
0.20103037

>  <PEOE_VSA+0>
26.718348

>  <PEOE_VSA+1>
59.162422

>  <PEOE_VSA+2>
30.109364

>  <PEOE_VSA+3>
8.6190128

>  <PEOE_VSA+4>
0

>  <PEOE_VSA+5>
19.649082

>  <PEOE_VSA+6>
17.440542

>  <PEOE_VSA-0>
49.019615

>  <PEOE_VSA-1>
0

>  <PEOE_VSA-2>
0

>  <PEOE_VSA-3>
9.4210396

>  <PEOE_VSA-4>
13.566921

>  <PEOE_VSA-5>
47.634861

>  <PEOE_VSA-6>
2.503756

>  <PEOE_VSA_FHYD>
0.64489359

>  <PEOE_VSA_FNEG>
0.43032715

>  <PEOE_VSA_FPNEG>
0.22443779

>  <PEOE_VSA_FPOL>
0.35510638

>  <PEOE_VSA_FPOS>
0.56967288

>  <PEOE_VSA_FPPOS>
0.1306686

>  <PEOE_VSA_HYD>
183.0498

>  <PEOE_VSA_NEG>
122.14619

>  <PEOE_VSA_PNEG>
63.705536

>  <PEOE_VSA_POL>
100.79516

>  <PEOE_VSA_POS>
161.69878

>  <PEOE_VSA_PPOS>
37.089626

>  <petitjean>
0.5

>  <petitjeanSC>
1

>  <Q_PC+>
0

>  <Q_PC->
0

>  <Q_RPC+>
0

>  <Q_RPC->
0

>  <Q_VSA_FHYD>
1

>  <Q_VSA_FNEG>
0

>  <Q_VSA_FPNEG>
0

>  <Q_VSA_FPOL>
0

>  <Q_VSA_FPOS>
1

>  <Q_VSA_FPPOS>
0

>  <Q_VSA_HYD>
283.84497

>  <Q_VSA_NEG>
0

>  <Q_VSA_PNEG>
0

>  <Q_VSA_POL>
0

>  <Q_VSA_POS>
283.84497

>  <Q_VSA_PPOS>
0

>  <radius>
7

>  <reactive>
1

>  <rings>
3

>  <RPC+>
0

>  <RPC->
0

>  <rsynth>
1

>  <SlogP>
1.7405

>  <SlogP_VSA0>
18.01075

>  <SlogP_VSA1>
20.176147

>  <SlogP_VSA2>
41.076572

>  <SlogP_VSA3>
69.374588

>  <SlogP_VSA4>
5.4488211

>  <SlogP_VSA5>
26.170353

>  <SlogP_VSA6>
0

>  <SlogP_VSA7>
114.4935

>  <SlogP_VSA8>
0

>  <SlogP_VSA9>
26.618963

>  <SMR>
7.8637099

>  <SMR_VSA0>
64.317398

>  <SMR_VSA1>
19.664799

>  <SMR_VSA2>
68.945755

>  <SMR_VSA3>
5.4488211

>  <SMR_VSA4>
11.391144

>  <SMR_VSA5>
105.85911

>  <SMR_VSA6>
28.528318

>  <SMR_VSA7>
17.214357

>  <TPSA>
120.73

>  <VAdjEq>
0.45137304

>  <VAdjMa>
5.643856

>  <VDistEq>
3.5946803

>  <VDistMa>
8.7017488

>  <vdw_area>
283.84497

>  <vdw_vol>
364.45874

>  <vsa_acc>
36.554882

>  <vsa_acid>
0

>  <vsa_base>
0

>  <vsa_don>
5.6825762

>  <vsa_hyd>
128.08659

>  <vsa_other>
104.04142

>  <vsa_pol>
42.237457

>  <Weight>
314.25699

>  <weinerPath>
1396

>  <weinerPol>
31

>  <zagreb>
120

$$$$