Clc1nc(N)c2ncn(c2n1)[C@@H]1O[C@H](CO)[C@@H](O)C1
  MOE2013           2D

 19 21  0  0  1  0  0  0  0  0999 V2000
    0.0000    0.0000    0.0000 Cl  0  0  0  0  0  0  0  0  0  0  0  0
    0.0100    1.5000    0.0000 C   0  0  0  0  0  0  0  0  0  0  0  0
   -1.2840    2.2590    0.0000 N   0  0  0  0  0  0  0  0  0  0  0  0
   -1.2740    3.7590    0.0000 C   0  0  0  0  0  0  0  0  0  0  0  0
   -2.5680    4.5170    0.0000 N   0  0  0  0  0  0  0  0  0  0  0  0
    0.0300    4.5000    0.0000 C   0  0  0  0  0  0  0  0  0  0  0  0
    0.3520    5.9650    0.0000 N   0  0  0  0  0  0  0  0  0  0  0  0
    1.8440    6.1120    0.0000 C   0  0  0  0  0  0  0  0  0  0  0  0
    2.4450    4.7380    0.0000 N   0  0  0  0  0  0  0  0  0  0  0  0
    1.3240    3.7410    0.0000 C   0  0  0  0  0  0  0  0  0  0  0  0
    1.3140    2.2410    0.0000 N   0  0  0  0  0  0  0  0  0  0  0  0
    3.9100    4.4160    0.0000 C   0  0  2  0  0  0  0  0  0  0  0  0
    5.0320    5.4120    0.0000 O   0  0  0  0  0  0  0  0  0  0  0  0
    6.3260    4.6540    0.0000 C   0  0  2  0  0  0  0  0  0  0  0  0
    7.7000    5.2550    0.0000 C   0  0  0  0  0  0  0  0  0  0  0  0
    7.8670    6.7450    0.0000 O   0  0  0  0  0  0  0  0  0  0  0  0
    6.0040    3.1880    0.0000 C   0  0  1  0  0  0  0  0  0  0  0  0
    7.0000    2.0670    0.0000 O   0  0  0  0  0  0  0  0  0  0  0  0
    4.5110    3.0420    0.0000 C   0  0  0  0  0  0  0  0  0  0  0  0
  1  2  1  0  0  0  0
  2  3  1  0  0  0  0
  2 11  2  0  0  0  0
  3  4  2  0  0  0  0
  4  5  1  0  0  0  0
  4  6  1  0  0  0  0
  6  7  1  0  0  0  0
  6 10  2  0  0  0  0
  7  8  2  0  0  0  0
  8  9  1  0  0  0  0
  9 10  1  0  0  0  0
 10 11  1  0  0  0  0
 12  9  1  6  0  0  0
 12 13  1  0  0  0  0
 12 19  1  0  0  0  0
 13 14  1  0  0  0  0
 14 15  1  6  0  0  0
 14 17  1  0  0  0  0
 15 16  1  0  0  0  0
 17 18  1  1  0  0  0
 17 19  1  0  0  0  0
M  END
>  <Index>
238

>  <ID>
HT0503

>  <class>
0

>  <apol>
35.687515

>  <ast_fraglike>
0

>  <ast_fraglike_ext>
0

>  <ast_violation>
1

>  <ast_violation_ext>
2

>  <a_acc>
6

>  <a_acid>
0

>  <a_aro>
9

>  <a_base>
0

>  <a_count>
31

>  <a_don>
3

>  <a_donacc>
9

>  <a_heavy>
19

>  <a_hyd>
6

>  <a_IC>
60.976727

>  <a_ICM>
1.9669912

>  <a_nB>
0

>  <a_nBr>
0

>  <a_nC>
10

>  <a_nCl>
1

>  <a_nF>
0

>  <a_nH>
12

>  <a_nI>
0

>  <a_nN>
5

>  <a_nO>
3

>  <a_nP>
0

>  <a_nS>
0

>  <balabanJ>
1.6974989

>  <BCUT_PEOE_0>
-2.5101087

>  <BCUT_PEOE_1>
-0.67571294

>  <BCUT_PEOE_2>
0.76679647

>  <BCUT_PEOE_3>
2.7427754

>  <BCUT_SLOGP_0>
-2.6638424

>  <BCUT_SLOGP_1>
-0.69752365

>  <BCUT_SLOGP_2>
0.58065736

>  <BCUT_SLOGP_3>
2.7021601

>  <BCUT_SMR_0>
-2.3102717

>  <BCUT_SMR_1>
-0.45747334

>  <BCUT_SMR_2>
0.86044711

>  <BCUT_SMR_3>
2.9468114

>  <bpol>
20.734484

>  <b_1rotN>
2

>  <b_1rotR>
0.095238097

>  <b_ar>
10

>  <b_count>
33

>  <b_double>
0

>  <b_heavy>
21

>  <b_max1len>
4

>  <b_rotN>
2

>  <b_rotR>
0.095238097

>  <b_single>
23

>  <b_triple>
0

>  <chi0>
13.568549

>  <chi0v>
10.526388

>  <chi0v_C>
5.7236147

>  <chi0_C>
6.1627722

>  <chi1>
9.0965557

>  <chi1v>
6.0757685

>  <chi1v_C>
2.0580783

>  <chi1_C>
2.2247448

>  <chiral>
3

>  <chiral_u>
0

>  <density>
0.90640992

>  <diameter>
9

>  <FCharge>
0

>  <GCUT_PEOE_0>
-0.81033474

>  <GCUT_PEOE_1>
-0.3982527

>  <GCUT_PEOE_2>
0.15128148

>  <GCUT_PEOE_3>
2.5458024

>  <GCUT_SLOGP_0>
-1.3346961

>  <GCUT_SLOGP_1>
-0.40406716

>  <GCUT_SLOGP_2>
0.15213931

>  <GCUT_SLOGP_3>
2.5534804

>  <GCUT_SMR_0>
-0.52679408

>  <GCUT_SMR_1>
-0.23235366

>  <GCUT_SMR_2>
0.2667529

>  <GCUT_SMR_3>
2.78339

>  <Kier1>
13.959184

>  <Kier2>
5.4131112

>  <Kier3>
2.4921579

>  <KierA1>
11.706012

>  <KierA2>
4.4919887

>  <KierA3>
2.051198

>  <KierFlex>
2.7675407

>  <lip_acc>
8

>  <lip_don>
4

>  <lip_druglike>
1

>  <lip_violation>
0

>  <logP(o/w)>
-0.34494001

>  <logS>
-2.7030201

>  <mr>
6.6300259

>  <mutagenic>
1

>  <nmol>
1

>  <opr_brigid>
15

>  <opr_leadlike>
1

>  <opr_nring>
3

>  <opr_nrot>
3

>  <opr_violation>
0

>  <PC+>
0

>  <PC->
0

>  <PEOE_PC+>
2.3757727

>  <PEOE_PC->
-2.3757727

>  <PEOE_RPC+>
0.095192194

>  <PEOE_RPC->
0.16515371

>  <PEOE_VSA+0>
17.232086

>  <PEOE_VSA+1>
41.183151

>  <PEOE_VSA+2>
74.93132

>  <PEOE_VSA+3>
11.190562

>  <PEOE_VSA+4>
34.150116

>  <PEOE_VSA+5>
0

>  <PEOE_VSA+6>
0

>  <PEOE_VSA-0>
29.581947

>  <PEOE_VSA-1>
0

>  <PEOE_VSA-2>
0

>  <PEOE_VSA-3>
5.6825762

>  <PEOE_VSA-4>
11.365152

>  <PEOE_VSA-5>
6.6511192

>  <PEOE_VSA-6>
18.038837

>  <PEOE_VSA_FHYD>
0.71918684

>  <PEOE_VSA_FNEG>
0.28527069

>  <PEOE_VSA_FPNEG>
0.14421648

>  <PEOE_VSA_FPOL>
0.28081319

>  <PEOE_VSA_FPOS>
0.71472931

>  <PEOE_VSA_FPPOS>
0.13659671

>  <PEOE_VSA_HYD>
179.80165

>  <PEOE_VSA_NEG>
71.319633

>  <PEOE_VSA_PNEG>
36.055107

>  <PEOE_VSA_POL>
70.205223

>  <PEOE_VSA_POS>
178.68724

>  <PEOE_VSA_PPOS>
34.150116

>  <petitjean>
0.44444445

>  <petitjeanSC>
0.80000001

>  <Q_PC+>
0

>  <Q_PC->
0

>  <Q_RPC+>
0

>  <Q_RPC->
0

>  <Q_VSA_FHYD>
1

>  <Q_VSA_FNEG>
0

>  <Q_VSA_FPNEG>
0

>  <Q_VSA_FPOL>
0

>  <Q_VSA_FPOS>
1

>  <Q_VSA_FPPOS>
0

>  <Q_VSA_HYD>
250.00687

>  <Q_VSA_NEG>
0

>  <Q_VSA_PNEG>
0

>  <Q_VSA_POL>
0

>  <Q_VSA_POS>
250.00687

>  <Q_VSA_PPOS>
0

>  <radius>
5

>  <reactive>
1

>  <rings>
3

>  <RPC+>
0

>  <RPC->
0

>  <rsynth>
1

>  <SlogP>
-0.20190001

>  <SlogP_VSA0>
83.667641

>  <SlogP_VSA1>
52.25568

>  <SlogP_VSA2>
23.937187

>  <SlogP_VSA3>
20.926258

>  <SlogP_VSA4>
0

>  <SlogP_VSA5>
0

>  <SlogP_VSA6>
2.6429517

>  <SlogP_VSA7>
20.644976

>  <SlogP_VSA8>
24.908228

>  <SlogP_VSA9>
41.476562

>  <SMR>
6.6476002

>  <SMR_VSA0>
10.999887

>  <SMR_VSA1>
103.02613

>  <SMR_VSA2>
0

>  <SMR_VSA3>
21.620071

>  <SMR_VSA4>
6.187367

>  <SMR_VSA5>
68.551125

>  <SMR_VSA6>
20.926258

>  <SMR_VSA7>
39.148643

>  <TPSA>
119.31

>  <VAdjEq>
0.51875818

>  <VAdjMa>
5.3923173

>  <VDistEq>
2.9747808

>  <VDistMa>
8.2067518

>  <vdw_area>
250.00687

>  <vdw_vol>
315.18961

>  <vsa_acc>
19.551485

>  <vsa_acid>
0

>  <vsa_base>
0

>  <vsa_don>
17.742489

>  <vsa_hyd>
91.065506

>  <vsa_other>
73.62294

>  <vsa_pol>
64.427818

>  <Weight>
285.69101

>  <weinerPath>
671

>  <weinerPol>
30

>  <zagreb>
104

$$$$