O[C@H]1C[C@H]2[C@H]([C@@H]3CC[C@H]([C@@H](CCC(O)=O)C)[C@@]13C)[C@H](O)C[C@@H]1C[C@H](O)CC[C@@]12C
  MOE2013           2D

 29 32  0  0  1  0  0  0  0  0999 V2000
    0.0000    0.0000    0.0000 O   0  0  0  0  0  0  0  0  0  0  0  0
   -1.3040    0.7410    0.0000 C   0  0  1  0  0  0  0  0  0  0  0  0
   -2.5980   -0.0180    0.0000 C   0  0  0  0  0  0  0  0  0  0  0  0
   -3.9020    0.7230    0.0000 C   0  0  1  0  0  0  0  0  0  0  0  0
   -3.9130    2.2230    0.0000 C   0  0  2  0  0  0  0  0  0  0  0  0
   -2.6190    2.9820    0.0000 C   0  0  2  0  0  0  0  0  0  0  0  0
   -2.3170    4.4510    0.0000 C   0  0  0  0  0  0  0  0  0  0  0  0
   -0.8270    4.6180    0.0000 C   0  0  0  0  0  0  0  0  0  0  0  0
   -0.2070    3.2520    0.0000 C   0  0  2  0  0  0  0  0  0  0  0  0
    1.2620    2.9510    0.0000 C   0  0  1  0  0  0  0  0  0  0  0  0
    2.2580    4.0720    0.0000 C   0  0  0  0  0  0  0  0  0  0  0  0
    3.7280    3.7710    0.0000 C   0  0  0  0  0  0  0  0  0  0  0  0
    4.7240    4.8920    0.0000 C   0  0  0  0  0  0  0  0  0  0  0  0
    6.1930    4.5910    0.0000 O   0  0  0  0  0  0  0  0  0  0  0  0
    4.2500    6.3160    0.0000 O   0  0  0  0  0  0  0  0  0  0  0  0
    1.7360    1.5270    0.0000 C   0  0  0  0  0  0  0  0  0  0  0  0
   -1.3150    2.2410    0.0000 C   0  0  1  0  0  0  0  0  0  0  0  0
    0.0490    1.6160    0.0000 C   0  0  0  0  0  0  0  0  0  0  0  0
   -5.2170    2.9640    0.0000 C   0  0  2  0  0  0  0  0  0  0  0  0
   -5.2270    4.4640    0.0000 O   0  0  0  0  0  0  0  0  0  0  0  0
   -6.5110    2.2050    0.0000 C   0  0  0  0  0  0  0  0  0  0  0  0
   -6.5000    0.7050    0.0000 C   0  0  2  0  0  0  0  0  0  0  0  0
   -7.7940   -0.0540    0.0000 C   0  0  0  0  0  0  0  0  0  0  0  0
   -7.7840   -1.5540    0.0000 C   0  0  2  0  0  0  0  0  0  0  0  0
   -9.0770   -2.3130    0.0000 O   0  0  0  0  0  0  0  0  0  0  0  0
   -6.4790   -2.2950    0.0000 C   0  0  0  0  0  0  0  0  0  0  0  0
   -5.1860   -1.5360    0.0000 C   0  0  0  0  0  0  0  0  0  0  0  0
   -5.1960   -0.0360    0.0000 C   0  0  2  0  0  0  0  0  0  0  0  0
   -3.8920   -0.7770    0.0000 C   0  0  0  0  0  0  0  0  0  0  0  0
  2  1  1  1  0  0  0
  2  3  1  0  0  0  0
  2 17  1  0  0  0  0
  4  3  1  6  0  0  0
  4  5  1  0  0  0  0
  4 28  1  0  0  0  0
  5  6  1  0  0  0  0
  5 19  1  1  0  0  0
  6  7  1  6  0  0  0
  6 17  1  0  0  0  0
  7  8  1  0  0  0  0
  9  8  1  6  0  0  0
  9 10  1  0  0  0  0
  9 17  1  0  0  0  0
 10 11  1  0  0  0  0
 10 16  1  1  0  0  0
 11 12  1  0  0  0  0
 12 13  1  0  0  0  0
 13 14  1  0  0  0  0
 13 15  2  0  0  0  0
 17 18  1  6  0  0  0
 19 20  1  1  0  0  0
 19 21  1  0  0  0  0
 22 21  1  1  0  0  0
 22 23  1  0  0  0  0
 22 28  1  0  0  0  0
 23 24  1  0  0  0  0
 24 25  1  1  0  0  0
 24 26  1  0  0  0  0
 26 27  1  0  0  0  0
 27 28  1  0  0  0  0
 28 29  1  6  0  0  0
M  END
>  <Index>
224

>  <ID>
HT0475

>  <class>
0

>  <apol>
72.921722

>  <ast_fraglike>
0

>  <ast_fraglike_ext>
0

>  <ast_violation>
4

>  <ast_violation_ext>
6

>  <a_acc>
5

>  <a_acid>
0

>  <a_aro>
0

>  <a_base>
0

>  <a_count>
69

>  <a_don>
5

>  <a_donacc>
10

>  <a_heavy>
29

>  <a_hyd>
23

>  <a_IC>
86.962326

>  <a_ICM>
1.2603235

>  <a_nB>
0

>  <a_nBr>
0

>  <a_nC>
24

>  <a_nCl>
0

>  <a_nF>
0

>  <a_nH>
40

>  <a_nI>
0

>  <a_nN>
0

>  <a_nO>
5

>  <a_nP>
0

>  <a_nS>
0

>  <balabanJ>
1.5989761

>  <BCUT_PEOE_0>
-2.9928343

>  <BCUT_PEOE_1>
-0.50672537

>  <BCUT_PEOE_2>
0.56687444

>  <BCUT_PEOE_3>
3.0021381

>  <BCUT_SLOGP_0>
-2.9627235

>  <BCUT_SLOGP_1>
-0.49048248

>  <BCUT_SLOGP_2>
0.49002609

>  <BCUT_SLOGP_3>
3.0495889

>  <BCUT_SMR_0>
-2.7473898

>  <BCUT_SMR_1>
-0.39106485

>  <BCUT_SMR_2>
0.6581654

>  <BCUT_SMR_3>
3.2483742

>  <bpol>
44.686279

>  <b_1rotN>
4

>  <b_1rotR>
0.125

>  <b_ar>
0

>  <b_count>
72

>  <b_double>
1

>  <b_heavy>
32

>  <b_max1len>
5

>  <b_rotN>
4

>  <b_rotR>
0.125

>  <b_single>
71

>  <b_triple>
0

>  <chi0>
21.137465

>  <chi0v>
18.257215

>  <chi0v_C>
16.060114

>  <chi0_C>
16.137465

>  <chi1>
13.585095

>  <chi1v>
11.845977

>  <chi1v_C>
10.643649

>  <chi1_C>
10.698344

>  <chiral>
11

>  <chiral_u>
0

>  <density>
0.7045927

>  <diameter>
14

>  <FCharge>
0

>  <GCUT_PEOE_0>
-0.80642098

>  <GCUT_PEOE_1>
-0.37055552

>  <GCUT_PEOE_2>
0.074964799

>  <GCUT_PEOE_3>
3.5212569

>  <GCUT_SLOGP_0>
-0.88913149

>  <GCUT_SLOGP_1>
-0.32853585

>  <GCUT_SLOGP_2>
0.008764796

>  <GCUT_SLOGP_3>
3.5776217

>  <GCUT_SMR_0>
-0.54293096

>  <GCUT_SMR_1>
-0.22578317

>  <GCUT_SMR_2>
0.15591303

>  <GCUT_SMR_3>
3.735466

>  <Kier1>
22.203125

>  <Kier2>
7.8477507

>  <Kier3>
3.4565377

>  <KierA1>
21.5051

>  <KierA2>
7.5921001

>  <KierA3>
3.341047

>  <KierFlex>
5.6299615

>  <lip_acc>
5

>  <lip_don>
4

>  <lip_druglike>
1

>  <lip_violation>
0

>  <logP(o/w)>
3.8989999

>  <logS>
-4.2922902

>  <mr>
11.07036

>  <mutagenic>
0

>  <nmol>
1

>  <opr_brigid>
20

>  <opr_leadlike>
1

>  <opr_nring>
4

>  <opr_nrot>
4

>  <opr_violation>
0

>  <PC+>
0

>  <PC->
0

>  <PEOE_PC+>
2.4185815

>  <PEOE_PC->
-2.4185815

>  <PEOE_RPC+>
0.10733423

>  <PEOE_RPC->
0.16198613

>  <PEOE_VSA+0>
149.45905

>  <PEOE_VSA+1>
27.510944

>  <PEOE_VSA+2>
0

>  <PEOE_VSA+3>
0

>  <PEOE_VSA+4>
41.296692

>  <PEOE_VSA+5>
14.708499

>  <PEOE_VSA+6>
0

>  <PEOE_VSA-0>
69.610504

>  <PEOE_VSA-1>
56.243034

>  <PEOE_VSA-2>
0

>  <PEOE_VSA-3>
0

>  <PEOE_VSA-4>
0

>  <PEOE_VSA-5>
13.566921

>  <PEOE_VSA-6>
31.070162

>  <PEOE_VSA_FHYD>
0.75055563

>  <PEOE_VSA_FNEG>
0.42256522

>  <PEOE_VSA_FPNEG>
0.11063411

>  <PEOE_VSA_FPOL>
0.24944437

>  <PEOE_VSA_FPOS>
0.57743478

>  <PEOE_VSA_FPPOS>
0.13881025

>  <PEOE_VSA_HYD>
302.82355

>  <PEOE_VSA_NEG>
170.49062

>  <PEOE_VSA_PNEG>
44.637081

>  <PEOE_VSA_POL>
100.64227

>  <PEOE_VSA_POS>
232.97519

>  <PEOE_VSA_PPOS>
56.005188

>  <petitjean>
0.5

>  <petitjeanSC>
1

>  <Q_PC+>
0

>  <Q_PC->
0

>  <Q_RPC+>
0

>  <Q_RPC->
0

>  <Q_VSA_FHYD>
1

>  <Q_VSA_FNEG>
0

>  <Q_VSA_FPNEG>
0

>  <Q_VSA_FPOL>
0

>  <Q_VSA_FPOS>
1

>  <Q_VSA_FPPOS>
0

>  <Q_VSA_HYD>
403.46582

>  <Q_VSA_NEG>
0

>  <Q_VSA_PNEG>
0

>  <Q_VSA_POL>
0

>  <Q_VSA_POS>
403.46582

>  <Q_VSA_PPOS>
0

>  <radius>
7

>  <reactive>
0

>  <rings>
4

>  <RPC+>
0

>  <RPC->
0

>  <rsynth>
1

>  <SlogP>
3.4487

>  <SlogP_VSA0>
76.155678

>  <SlogP_VSA1>
7.7454643

>  <SlogP_VSA2>
43.268166

>  <SlogP_VSA3>
25.385227

>  <SlogP_VSA4>
26.464777

>  <SlogP_VSA5>
0

>  <SlogP_VSA6>
0

>  <SlogP_VSA7>
0

>  <SlogP_VSA8>
169.81564

>  <SlogP_VSA9>
99.978043

>  <SMR>
11.00372

>  <SMR_VSA0>
23.862217

>  <SMR_VSA1>
76.155678

>  <SMR_VSA2>
51.850002

>  <SMR_VSA3>
19.405949

>  <SMR_VSA4>
0

>  <SMR_VSA5>
169.81564

>  <SMR_VSA6>
7.7454643

>  <SMR_VSA7>
99.978043

>  <TPSA>
97.989998

>  <VAdjEq>
0.38828552

>  <VAdjMa>
6

>  <VDistEq>
3.4170749

>  <VDistMa>
9.4327879

>  <vdw_area>
403.46582

>  <vdw_vol>
579.8797

>  <vsa_acc>
0

>  <vsa_acid>
0

>  <vsa_base>
0

>  <vsa_don>
0

>  <vsa_hyd>
269.1286

>  <vsa_other>
14.708499

>  <vsa_pol>
67.834602

>  <Weight>
408.57898

>  <weinerPath>
2045

>  <weinerPol>
60

>  <zagreb>
166

$$$$