s1cc(nc1N)CC(=O)N[C@H]1[C@H]2SCC(CSc3nnnn3CCN(C)C)=C(N2C1=O)C(O)=O
  MOE2013           2D

 34 37  0  0  1  0  0  0  0  0999 V2000
    0.0000    0.0000    0.0000 S   0  0  0  0  0  0  0  0  0  0  0  0
   -1.4980   -0.0760    0.0000 C   0  0  0  0  0  0  0  0  0  0  0  0
   -1.8890   -1.5240    0.0000 C   0  0  0  0  0  0  0  0  0  0  0  0
   -0.6320   -2.3430    0.0000 N   0  0  0  0  0  0  0  0  0  0  0  0
    0.5350   -1.4010    0.0000 C   0  0  0  0  0  0  0  0  0  0  0  0
    1.9840   -1.7920    0.0000 N   0  0  0  0  0  0  0  0  0  0  0  0
   -3.2900   -2.0600    0.0000 C   0  0  0  0  0  0  0  0  0  0  0  0
   -4.4540   -1.1140    0.0000 C   0  0  0  0  0  0  0  0  0  0  0  0
   -4.2170    0.3670    0.0000 O   0  0  0  0  0  0  0  0  0  0  0  0
   -5.8550   -1.6490    0.0000 N   0  0  0  0  0  0  0  0  0  0  0  0
   -7.0190   -0.7030    0.0000 C   0  0  1  0  0  0  0  0  0  0  0  0
   -8.5110   -0.8580    0.0000 C   0  0  1  0  0  0  0  0  0  0  0  0
   -9.7260   -1.7380    0.0000 S   0  0  0  0  0  0  0  0  0  0  0  0
  -11.0960   -1.1250    0.0000 C   0  0  0  0  0  0  0  0  0  0  0  0
  -11.2500    0.3670    0.0000 C   0  0  0  0  0  0  0  0  0  0  0  0
  -12.6200    0.9790    0.0000 C   0  0  0  0  0  0  0  0  0  0  0  0
  -13.8340    0.0990    0.0000 S   0  0  0  0  0  0  0  0  0  0  0  0
  -15.2040    0.7110    0.0000 C   0  0  0  0  0  0  0  0  0  0  0  0
  -15.5130    2.1790    0.0000 N   0  0  0  0  0  0  0  0  0  0  0  0
  -17.0050    2.3380    0.0000 N   0  0  0  0  0  0  0  0  0  0  0  0
  -17.6170    0.9690    0.0000 N   0  0  0  0  0  0  0  0  0  0  0  0
  -16.5040   -0.0370    0.0000 N   0  0  0  0  0  0  0  0  0  0  0  0
  -16.6630   -1.5280    0.0000 C   0  0  0  0  0  0  0  0  0  0  0  0
  -18.0340   -2.1360    0.0000 C   0  0  0  0  0  0  0  0  0  0  0  0
  -18.1940   -3.6280    0.0000 N   0  0  0  0  0  0  0  0  0  0  0  0
  -19.5650   -4.2360    0.0000 C   0  0  0  0  0  0  0  0  0  0  0  0
  -16.9810   -4.5110    0.0000 C   0  0  0  0  0  0  0  0  0  0  0  0
  -10.0350    1.2460    0.0000 C   0  0  0  0  0  0  0  0  0  0  0  0
   -8.6660    0.6340    0.0000 N   0  0  0  0  0  0  0  0  0  0  0  0
   -7.1740    0.7890    0.0000 C   0  0  0  0  0  0  0  0  0  0  0  0
   -6.2280    1.9530    0.0000 O   0  0  0  0  0  0  0  0  0  0  0  0
  -10.1900    2.7380    0.0000 C   0  0  0  0  0  0  0  0  0  0  0  0
   -8.9750    3.6180    0.0000 O   0  0  0  0  0  0  0  0  0  0  0  0
  -11.5590    3.3510    0.0000 O   0  0  0  0  0  0  0  0  0  0  0  0
  1  2  1  0  0  0  0
  1  5  1  0  0  0  0
  2  3  2  0  0  0  0
  3  4  1  0  0  0  0
  3  7  1  0  0  0  0
  4  5  2  0  0  0  0
  5  6  1  0  0  0  0
  7  8  1  0  0  0  0
  8  9  2  0  0  0  0
  8 10  1  0  0  0  0
 11 10  1  1  0  0  0
 11 12  1  0  0  0  0
 11 30  1  0  0  0  0
 12 13  1  0  0  0  0
 12 29  1  1  0  0  0
 13 14  1  0  0  0  0
 14 15  1  0  0  0  0
 15 16  1  0  0  0  0
 15 28  2  0  0  0  0
 16 17  1  0  0  0  0
 17 18  1  0  0  0  0
 18 19  2  0  0  0  0
 18 22  1  0  0  0  0
 19 20  1  0  0  0  0
 20 21  2  0  0  0  0
 21 22  1  0  0  0  0
 22 23  1  0  0  0  0
 23 24  1  0  0  0  0
 24 25  1  0  0  0  0
 25 26  1  0  0  0  0
 25 27  1  0  0  0  0
 28 29  1  0  0  0  0
 28 32  1  0  0  0  0
 29 30  1  0  0  0  0
 30 31  2  0  0  0  0
 32 33  1  0  0  0  0
 32 34  2  0  0  0  0
M  END
>  <Index>
205

>  <ID>
HT0414

>  <class>
0

>  <apol>
68.824242

>  <ast_fraglike>
0

>  <ast_fraglike_ext>
0

>  <ast_violation>
3

>  <ast_violation_ext>
5

>  <a_acc>
9

>  <a_acid>
0

>  <a_aro>
10

>  <a_base>
0

>  <a_count>
57

>  <a_don>
4

>  <a_donacc>
13

>  <a_heavy>
34

>  <a_hyd>
16

>  <a_IC>
112.08994

>  <a_ICM>
1.9664903

>  <a_nB>
0

>  <a_nBr>
0

>  <a_nC>
18

>  <a_nCl>
0

>  <a_nF>
0

>  <a_nH>
23

>  <a_nI>
0

>  <a_nN>
9

>  <a_nO>
4

>  <a_nP>
0

>  <a_nS>
3

>  <balabanJ>
1.2817756

>  <BCUT_PEOE_0>
-2.6885214

>  <BCUT_PEOE_1>
-0.44595507

>  <BCUT_PEOE_2>
0.41928148

>  <BCUT_PEOE_3>
2.7358251

>  <BCUT_SLOGP_0>
-2.8956616

>  <BCUT_SLOGP_1>
-0.40371683

>  <BCUT_SLOGP_2>
0.4213385

>  <BCUT_SLOGP_3>
2.6234784

>  <BCUT_SMR_0>
-2.4024427

>  <BCUT_SMR_1>
-0.23161697

>  <BCUT_SMR_2>
0.66567957

>  <BCUT_SMR_3>
3.0204561

>  <bpol>
42.11776

>  <b_1rotN>
10

>  <b_1rotR>
0.27027026

>  <b_ar>
10

>  <b_count>
60

>  <b_double>
4

>  <b_heavy>
37

>  <b_max1len>
5

>  <b_rotN>
11

>  <b_rotR>
0.2972973

>  <b_single>
46

>  <b_triple>
0

>  <chi0>
24.405048

>  <chi0v>
20.821623

>  <chi0v_C>
11.267585

>  <chi0_C>
12.016144

>  <chi1>
16.240091

>  <chi1v>
13.085958

>  <chi1v_C>
3.3248971

>  <chi1_C>
3.8745749

>  <chiral>
2

>  <chiral_u>
0

>  <density>
0.88883275

>  <diameter>
19

>  <FCharge>
0

>  <GCUT_PEOE_0>
-0.85957175

>  <GCUT_PEOE_1>
-0.41239637

>  <GCUT_PEOE_2>
0.0098604187

>  <GCUT_PEOE_3>
2.6681685

>  <GCUT_SLOGP_0>
-1.3345311

>  <GCUT_SLOGP_1>
-0.40618896

>  <GCUT_SLOGP_2>
0.08633735

>  <GCUT_SLOGP_3>
2.6431522

>  <GCUT_SMR_0>
-0.52893835

>  <GCUT_SMR_1>
-0.20914924

>  <GCUT_SMR_2>
0.23986463

>  <GCUT_SMR_3>
2.9524627

>  <Kier1>
27.046019

>  <Kier2>
12.029903

>  <Kier3>
6.4783673

>  <KierA1>
23.845806

>  <KierA2>
10.564318

>  <KierA3>
5.6732192

>  <KierFlex>
7.4092546

>  <lip_acc>
13

>  <lip_don>
4

>  <lip_druglike>
0

>  <lip_violation>
2

>  <logP(o/w)>
-1.4910001

>  <logS>
-3.9112799

>  <mr>
12.895238

>  <mutagenic>
1

>  <nmol>
1

>  <opr_brigid>
19

>  <opr_leadlike>
0

>  <opr_nring>
4

>  <opr_nrot>
10

>  <opr_violation>
2

>  <PC+>
0

>  <PC->
0

>  <PEOE_PC+>
3.3436217

>  <PEOE_PC->
-3.3436217

>  <PEOE_RPC+>
0.092097245

>  <PEOE_RPC->
0.10224114

>  <PEOE_VSA+0>
100.96203

>  <PEOE_VSA+1>
56.387192

>  <PEOE_VSA+2>
32.205559

>  <PEOE_VSA+3>
28.379631

>  <PEOE_VSA+4>
36.440327

>  <PEOE_VSA+5>
12.949531

>  <PEOE_VSA+6>
14.708499

>  <PEOE_VSA-0>
75.004921

>  <PEOE_VSA-1>
33.991585

>  <PEOE_VSA-2>
29.181658

>  <PEOE_VSA-3>
0

>  <PEOE_VSA-4>
0

>  <PEOE_VSA-5>
53.034458

>  <PEOE_VSA-6>
7.9044313

>  <PEOE_VSA_FHYD>
0.74012828

>  <PEOE_VSA_FNEG>
0.41383585

>  <PEOE_VSA_FPNEG>
0.12665263

>  <PEOE_VSA_FPOL>
0.25987175

>  <PEOE_VSA_FPOS>
0.58616412

>  <PEOE_VSA_FPPOS>
0.13321912

>  <PEOE_VSA_HYD>
356.11258

>  <PEOE_VSA_NEG>
199.11705

>  <PEOE_VSA_PNEG>
60.938889

>  <PEOE_VSA_POL>
125.03725

>  <PEOE_VSA_POS>
282.03278

>  <PEOE_VSA_PPOS>
64.098358

>  <petitjean>
0.47368422

>  <petitjeanSC>
0.89999998

>  <Q_PC+>
0

>  <Q_PC->
0

>  <Q_RPC+>
0

>  <Q_RPC->
0

>  <Q_VSA_FHYD>
1

>  <Q_VSA_FNEG>
0

>  <Q_VSA_FPNEG>
0

>  <Q_VSA_FPOL>
0

>  <Q_VSA_FPOS>
1

>  <Q_VSA_FPPOS>
0

>  <Q_VSA_HYD>
481.14981

>  <Q_VSA_NEG>
0

>  <Q_VSA_PNEG>
0

>  <Q_VSA_POL>
0

>  <Q_VSA_POS>
481.14981

>  <Q_VSA_PPOS>
0

>  <radius>
10

>  <reactive>
0

>  <rings>
4

>  <RPC+>
0

>  <RPC->
0

>  <rsynth>
0.55882353

>  <SlogP>
-0.38683

>  <SlogP_VSA0>
50.90794

>  <SlogP_VSA1>
92.817734

>  <SlogP_VSA2>
77.915749

>  <SlogP_VSA3>
78.291931

>  <SlogP_VSA4>
2.7567475

>  <SlogP_VSA5>
91.29818

>  <SlogP_VSA6>
0

>  <SlogP_VSA7>
15.81601

>  <SlogP_VSA8>
0

>  <SlogP_VSA9>
114.6571

>  <SMR>
12.72169

>  <SMR_VSA0>
71.586647

>  <SMR_VSA1>
74.554703

>  <SMR_VSA2>
44.089058

>  <SMR_VSA3>
15.028167

>  <SMR_VSA4>
0.50074643

>  <SMR_VSA5>
86.021179

>  <SMR_VSA6>
71.169739

>  <SMR_VSA7>
161.51114

>  <TPSA>
172.46001

>  <VAdjEq>
0.34317648

>  <VAdjMa>
6.2094536

>  <VDistEq>
3.9638784

>  <VDistMa>
9.8611469

>  <vdw_area>
481.14981

>  <vdw_vol>
591.38123

>  <vsa_acc>
68.556465

>  <vsa_acid>
0

>  <vsa_base>
0

>  <vsa_don>
23.425066

>  <vsa_hyd>
267.82477

>  <vsa_other>
66.940811

>  <vsa_pol>
119.11537

>  <Weight>
525.63898

>  <weinerPath>
3941

>  <weinerPol>
49

>  <zagreb>
180

$$$$