Clc1c(cccc1Cl)[C@H]1C(=C(OCOC(=O)CCC)/O)C(=NC(C)=C1C(OC)=O)C
  MOE2013           2D

 30 31  0  0  1  0  0  0  0  0999 V2000
    0.0000    0.0000    0.0000 Cl  0  0  0  0  0  0  0  0  0  0  0  0
   -1.5000   -0.0080    0.0000 C   0  0  0  0  0  0  0  0  0  0  0  0
   -2.2430   -1.3100    0.0000 C   0  0  0  0  0  0  0  0  0  0  0  0
   -3.7430   -1.3180    0.0000 C   0  0  0  0  0  0  0  0  0  0  0  0
   -4.5000   -0.0230    0.0000 C   0  0  0  0  0  0  0  0  0  0  0  0
   -3.7570    1.2800    0.0000 C   0  0  0  0  0  0  0  0  0  0  0  0
   -2.2570    1.2880    0.0000 C   0  0  0  0  0  0  0  0  0  0  0  0
   -1.5130    2.5900    0.0000 Cl  0  0  0  0  0  0  0  0  0  0  0  0
   -1.9750   -2.7860    0.0000 C   0  0  1  0  0  0  0  0  0  0  0  0
   -0.6730   -3.5300    0.0000 C   0  0  0  0  0  0  0  0  0  0  0  0
    0.6230   -2.7730    0.0000 C   0  0  0  0  0  0  0  0  0  0  0  0
    1.9250   -3.5170    0.0000 O   0  0  0  0  0  0  0  0  0  0  0  0
    3.2210   -2.7600    0.0000 C   0  0  0  0  0  0  0  0  0  0  0  0
    4.5230   -3.5030    0.0000 O   0  0  0  0  0  0  0  0  0  0  0  0
    4.5310   -5.0030    0.0000 C   0  0  0  0  0  0  0  0  0  0  0  0
    3.2360   -5.7600    0.0000 O   0  0  0  0  0  0  0  0  0  0  0  0
    5.8340   -5.7470    0.0000 C   0  0  0  0  0  0  0  0  0  0  0  0
    7.1290   -4.9900    0.0000 C   0  0  0  0  0  0  0  0  0  0  0  0
    8.4320   -5.7340    0.0000 C   0  0  0  0  0  0  0  0  0  0  0  0
    0.6150   -1.2730    0.0000 O   0  0  0  0  0  0  0  0  0  0  0  0
   -0.6650   -5.0300    0.0000 C   0  0  0  0  0  0  0  0  0  0  0  0
   -1.9600   -5.7860    0.0000 N   0  0  0  0  0  0  0  0  0  0  0  0
   -3.2630   -5.0430    0.0000 C   0  0  0  0  0  0  0  0  0  0  0  0
   -4.5580   -5.7990    0.0000 C   0  0  0  0  0  0  0  0  0  0  0  0
   -3.2710   -3.5430    0.0000 C   0  0  0  0  0  0  0  0  0  0  0  0
   -4.6830   -3.0370    0.0000 C   0  0  0  0  0  0  0  0  0  0  0  0
   -5.8270   -4.0070    0.0000 O   0  0  0  0  0  0  0  0  0  0  0  0
   -7.2390   -3.5010    0.0000 C   0  0  0  0  0  0  0  0  0  0  0  0
   -4.9510   -1.5610    0.0000 O   0  0  0  0  0  0  0  0  0  0  0  0
    0.6380   -5.7730    0.0000 C   0  0  0  0  0  0  0  0  0  0  0  0
  1  2  1  0  0  0  0
  2  3  1  0  0  0  0
  2  7  2  0  0  0  0
  3  4  2  0  0  0  0
  4  5  1  0  0  0  0
  5  6  2  0  0  0  0
  6  7  1  0  0  0  0
  7  8  1  0  0  0  0
  9  3  1  1  0  0  0
  9 10  1  0  0  0  0
  9 25  1  0  0  0  0
 10 11  2  3  0  0  0
 10 21  1  0  0  0  0
 11 12  1  0  0  0  0
 11 20  1  0  0  0  0
 12 13  1  0  0  0  0
 13 14  1  0  0  0  0
 14 15  1  0  0  0  0
 15 16  2  0  0  0  0
 15 17  1  0  0  0  0
 17 18  1  0  0  0  0
 18 19  1  0  0  0  0
 21 22  2  0  0  0  0
 21 30  1  0  0  0  0
 22 23  1  0  0  0  0
 23 24  1  0  0  0  0
 23 25  2  0  0  0  0
 25 26  1  0  0  0  0
 26 27  1  0  0  0  0
 26 29  2  0  0  0  0
 27 28  1  0  0  0  0
M  END
>  <Index>
240

>  <ID>
HT0508

>  <class>
0

>  <apol>
62.568237

>  <ast_fraglike>
0

>  <ast_fraglike_ext>
0

>  <ast_violation>
3

>  <ast_violation_ext>
4

>  <a_acc>
5

>  <a_acid>
0

>  <a_aro>
6

>  <a_base>
0

>  <a_count>
53

>  <a_don>
1

>  <a_donacc>
6

>  <a_heavy>
30

>  <a_hyd>
18

>  <a_IC>
89.789421

>  <a_ICM>
1.69414

>  <a_nB>
0

>  <a_nBr>
0

>  <a_nC>
21

>  <a_nCl>
2

>  <a_nF>
0

>  <a_nH>
23

>  <a_nI>
0

>  <a_nN>
1

>  <a_nO>
6

>  <a_nP>
0

>  <a_nS>
0

>  <balabanJ>
2.2427838

>  <BCUT_PEOE_0>
-2.4943268

>  <BCUT_PEOE_1>
-0.51873267

>  <BCUT_PEOE_2>
0.52622503

>  <BCUT_PEOE_3>
2.5193448

>  <BCUT_SLOGP_0>
-2.4478414

>  <BCUT_SLOGP_1>
-0.34964806

>  <BCUT_SLOGP_2>
0.641478

>  <BCUT_SLOGP_3>
2.5988255

>  <BCUT_SMR_0>
-2.2670965

>  <BCUT_SMR_1>
-0.21734929

>  <BCUT_SMR_2>
0.73302466

>  <BCUT_SMR_3>
2.7982502

>  <bpol>
34.967762

>  <b_1rotN>
7

>  <b_1rotR>
0.22580644

>  <b_ar>
6

>  <b_count>
54

>  <b_double>
5

>  <b_heavy>
31

>  <b_max1len>
4

>  <b_rotN>
9

>  <b_rotR>
0.29032257

>  <b_single>
43

>  <b_triple>
0

>  <chi0>
22.421921

>  <chi0v>
18.634176

>  <chi0v_C>
13.430721

>  <chi0_C>
14.593493

>  <chi1>
14.221652

>  <chi1v>
9.981636

>  <chi1v_C>
6.1707025

>  <chi1_C>
7.5865521

>  <chiral>
1

>  <chiral_u>
0

>  <density>
0.82392991

>  <diameter>
13

>  <FCharge>
0

>  <GCUT_PEOE_0>
-0.77160138

>  <GCUT_PEOE_1>
-0.41791311

>  <GCUT_PEOE_2>
-0.020599654

>  <GCUT_PEOE_3>
2.6945109

>  <GCUT_SLOGP_0>
-0.84994394

>  <GCUT_SLOGP_1>
-0.27731538

>  <GCUT_SLOGP_2>
0.11729874

>  <GCUT_SLOGP_3>
2.781579

>  <GCUT_SMR_0>
-0.52313459

>  <GCUT_SMR_1>
-0.16097137

>  <GCUT_SMR_2>
0.20660694

>  <GCUT_SMR_3>
2.9701228

>  <Kier1>
26.253902

>  <Kier2>
12.296376

>  <Kier3>
6.5152354

>  <KierA1>
22.943775

>  <KierA2>
10.69381

>  <KierA3>
5.6466041

>  <KierFlex>
8.178545

>  <lip_acc>
7

>  <lip_don>
1

>  <lip_druglike>
1

>  <lip_violation>
1

>  <logP(o/w)>
4.6589999

>  <logS>
-5.4461899

>  <mr>
11.539994

>  <mutagenic>
0

>  <nmol>
1

>  <opr_brigid>
13

>  <opr_leadlike>
0

>  <opr_nring>
2

>  <opr_nrot>
7

>  <opr_violation>
2

>  <PC+>
0

>  <PC->
0

>  <PEOE_PC+>
2.5117953

>  <PEOE_PC->
-2.5117953

>  <PEOE_RPC+>
0.11632037

>  <PEOE_RPC->
0.13541068

>  <PEOE_VSA+0>
109.02202

>  <PEOE_VSA+1>
45.37112

>  <PEOE_VSA+2>
0

>  <PEOE_VSA+3>
35.909771

>  <PEOE_VSA+4>
10.324173

>  <PEOE_VSA+5>
29.416998

>  <PEOE_VSA+6>
0

>  <PEOE_VSA-0>
60.66011

>  <PEOE_VSA-1>
102.42138

>  <PEOE_VSA-2>
0

>  <PEOE_VSA-3>
0

>  <PEOE_VSA-4>
0

>  <PEOE_VSA-5>
37.823929

>  <PEOE_VSA-6>
10.271297

>  <PEOE_VSA_FHYD>
0.80092418

>  <PEOE_VSA_FNEG>
0.47861913

>  <PEOE_VSA_FPNEG>
0.10900489

>  <PEOE_VSA_FPOL>
0.19907583

>  <PEOE_VSA_FPOS>
0.52138084

>  <PEOE_VSA_FPPOS>
0.090070941

>  <PEOE_VSA_HYD>
353.3844

>  <PEOE_VSA_NEG>
211.17671

>  <PEOE_VSA_PNEG>
48.095226

>  <PEOE_VSA_POL>
87.836395

>  <PEOE_VSA_POS>
230.04408

>  <PEOE_VSA_PPOS>
39.741173

>  <petitjean>
0.46153846

>  <petitjeanSC>
0.85714287

>  <Q_PC+>
0

>  <Q_PC->
0

>  <Q_RPC+>
0

>  <Q_RPC->
0

>  <Q_VSA_FHYD>
1

>  <Q_VSA_FNEG>
0

>  <Q_VSA_FPNEG>
0

>  <Q_VSA_FPOL>
0

>  <Q_VSA_FPOS>
1

>  <Q_VSA_FPPOS>
0

>  <Q_VSA_HYD>
441.22079

>  <Q_VSA_NEG>
0

>  <Q_VSA_PNEG>
0

>  <Q_VSA_POL>
0

>  <Q_VSA_POS>
441.22079

>  <Q_VSA_PPOS>
0

>  <radius>
7

>  <reactive>
1

>  <rings>
2

>  <RPC+>
0

>  <RPC->
0

>  <rsynth>
1

>  <SlogP>
5.0854998

>  <SlogP_VSA0>
0

>  <SlogP_VSA1>
18.247675

>  <SlogP_VSA2>
80.724098

>  <SlogP_VSA3>
48.369339

>  <SlogP_VSA4>
3.185575

>  <SlogP_VSA5>
68.598579

>  <SlogP_VSA6>
11.412009

>  <SlogP_VSA7>
52.929554

>  <SlogP_VSA8>
37.736813

>  <SlogP_VSA9>
178.27533

>  <SMR>
11.36348

>  <SMR_VSA0>
80.724098

>  <SMR_VSA1>
16.78553

>  <SMR_VSA2>
25.385227

>  <SMR_VSA3>
31.026762

>  <SMR_VSA4>
0

>  <SMR_VSA5>
90.666367

>  <SMR_VSA6>
41.231789

>  <SMR_VSA7>
213.65919

>  <TPSA>
94.419998

>  <VAdjEq>
0.36176345

>  <VAdjMa>
5.9541965

>  <VDistEq>
3.4653907

>  <VDistMa>
9.5539312

>  <vdw_area>
441.22079

>  <vdw_vol>
553.83594

>  <vsa_acc>
35.320175

>  <vsa_acid>
0

>  <vsa_base>
0

>  <vsa_don>
0

>  <vsa_hyd>
286.66336

>  <vsa_other>
84.141014

>  <vsa_pol>
48.887096

>  <Weight>
456.32199

>  <weinerPath>
2375

>  <weinerPol>
51

>  <zagreb>
148

$$$$