O(C(CC)(C(O)=O)C)c1ccc(cc1)C1(CCCCC1)c1ccc(OC(CC)(C(O)=O)C)cc1
  MOE2013           2D

 34 36  0  0  1  0  0  0  0  0999 V2000
    0.0000    0.0000    0.0000 O   0  0  0  0  0  0  0  0  0  0  0  0
    0.7420   -1.3040    0.0000 C   0  0  3  0  0  0  0  0  0  0  0  0
    1.4830   -2.6080    0.0000 C   0  0  0  0  0  0  0  0  0  0  0  0
    2.9830   -2.6170    0.0000 C   0  0  0  0  0  0  0  0  0  0  0  0
   -0.5620   -2.0460    0.0000 C   0  0  0  0  0  0  0  0  0  0  0  0
   -0.5720   -3.5450    0.0000 O   0  0  0  0  0  0  0  0  0  0  0  0
   -1.8560   -1.2870    0.0000 O   0  0  0  0  0  0  0  0  0  0  0  0
    2.0460   -0.5620    0.0000 C   0  0  0  0  0  0  0  0  0  0  0  0
    0.7580    1.2940    0.0000 C   0  0  0  0  0  0  0  0  0  0  0  0
    0.0170    2.5980    0.0000 C   0  0  0  0  0  0  0  0  0  0  0  0
    0.7750    3.8920    0.0000 C   0  0  0  0  0  0  0  0  0  0  0  0
    2.2750    3.8830    0.0000 C   0  0  0  0  0  0  0  0  0  0  0  0
    3.0160    2.5790    0.0000 C   0  0  0  0  0  0  0  0  0  0  0  0
    2.2580    1.2850    0.0000 C   0  0  0  0  0  0  0  0  0  0  0  0
    3.0330    5.1770    0.0000 C   0  0  0  0  0  0  0  0  0  0  0  0
    1.5570    5.4470    0.0000 C   0  0  0  0  0  0  0  0  0  0  0  0
    1.0530    6.8600    0.0000 C   0  0  0  0  0  0  0  0  0  0  0  0
    2.0250    8.0030    0.0000 C   0  0  0  0  0  0  0  0  0  0  0  0
    3.5000    7.7330    0.0000 C   0  0  0  0  0  0  0  0  0  0  0  0
    4.0040    6.3200    0.0000 C   0  0  0  0  0  0  0  0  0  0  0  0
    4.4390    4.6550    0.0000 C   0  0  0  0  0  0  0  0  0  0  0  0
    5.1980    5.9490    0.0000 C   0  0  0  0  0  0  0  0  0  0  0  0
    6.6970    5.9400    0.0000 C   0  0  0  0  0  0  0  0  0  0  0  0
    7.4390    4.6360    0.0000 C   0  0  0  0  0  0  0  0  0  0  0  0
    8.9390    4.6260    0.0000 O   0  0  0  0  0  0  0  0  0  0  0  0
    9.6810    3.3230    0.0000 C   0  0  3  0  0  0  0  0  0  0  0  0
   10.9850    4.0640    0.0000 C   0  0  0  0  0  0  0  0  0  0  0  0
   10.9940    5.5640    0.0000 C   0  0  0  0  0  0  0  0  0  0  0  0
   10.4230    2.0190    0.0000 C   0  0  0  0  0  0  0  0  0  0  0  0
    9.6640    0.7240    0.0000 O   0  0  0  0  0  0  0  0  0  0  0  0
   11.9230    2.0090    0.0000 O   0  0  0  0  0  0  0  0  0  0  0  0
    8.3770    2.5810    0.0000 C   0  0  0  0  0  0  0  0  0  0  0  0
    6.6810    3.3420    0.0000 C   0  0  0  0  0  0  0  0  0  0  0  0
    5.1810    3.3510    0.0000 C   0  0  0  0  0  0  0  0  0  0  0  0
  1  2  1  0  0  0  0
  1  9  1  0  0  0  0
  2  3  1  0  0  0  0
  2  5  1  0  0  0  0
  2  8  1  0  0  0  0
  3  4  1  0  0  0  0
  5  6  1  0  0  0  0
  5  7  2  0  0  0  0
  9 10  1  0  0  0  0
  9 14  2  0  0  0  0
 10 11  2  0  0  0  0
 11 12  1  0  0  0  0
 12 13  2  0  0  0  0
 12 15  1  0  0  0  0
 13 14  1  0  0  0  0
 15 16  1  0  0  0  0
 15 20  1  0  0  0  0
 15 21  1  0  0  0  0
 16 17  1  0  0  0  0
 17 18  1  0  0  0  0
 18 19  1  0  0  0  0
 19 20  1  0  0  0  0
 21 22  1  0  0  0  0
 21 34  2  0  0  0  0
 22 23  2  0  0  0  0
 23 24  1  0  0  0  0
 24 25  1  0  0  0  0
 24 33  2  0  0  0  0
 25 26  1  0  0  0  0
 26 27  1  0  0  0  0
 26 29  1  0  0  0  0
 26 32  1  0  0  0  0
 27 28  1  0  0  0  0
 29 30  1  0  0  0  0
 29 31  2  0  0  0  0
 33 34  1  0  0  0  0
M  END
>  <Index>
242

>  <ID>
HT0513

>  <class>
0

>  <apol>
78.09655

>  <ast_fraglike>
0

>  <ast_fraglike_ext>
0

>  <ast_violation>
4

>  <ast_violation_ext>
5

>  <a_acc>
6

>  <a_acid>
0

>  <a_aro>
12

>  <a_base>
0

>  <a_count>
70

>  <a_don>
4

>  <a_donacc>
10

>  <a_heavy>
34

>  <a_hyd>
26

>  <a_IC>
92.816795

>  <a_ICM>
1.3259543

>  <a_nB>
0

>  <a_nBr>
0

>  <a_nC>
28

>  <a_nCl>
0

>  <a_nF>
0

>  <a_nH>
36

>  <a_nI>
0

>  <a_nN>
0

>  <a_nO>
6

>  <a_nP>
0

>  <a_nS>
0

>  <balabanJ>
1.6101905

>  <BCUT_PEOE_0>
-2.789428

>  <BCUT_PEOE_1>
-0.58013153

>  <BCUT_PEOE_2>
0.58100712

>  <BCUT_PEOE_3>
2.7418444

>  <BCUT_SLOGP_0>
-2.6669092

>  <BCUT_SLOGP_1>
-0.53807992

>  <BCUT_SLOGP_2>
0.6356554

>  <BCUT_SLOGP_3>
2.8725238

>  <BCUT_SMR_0>
-2.5297987

>  <BCUT_SMR_1>
-0.37711582

>  <BCUT_SMR_2>
0.7435689

>  <BCUT_SMR_3>
3.0060978

>  <bpol>
45.103451

>  <b_1rotN>
10

>  <b_1rotR>
0.27777779

>  <b_ar>
12

>  <b_count>
72

>  <b_double>
2

>  <b_heavy>
36

>  <b_max1len>
5

>  <b_rotN>
10

>  <b_rotR>
0.27777779

>  <b_single>
58

>  <b_triple>
0

>  <chi0>
24.984917

>  <chi0v>
20.59597

>  <chi0v_C>
18.06855

>  <chi0_C>
19.570704

>  <chi1>
16.082119

>  <chi1v>
12.14312

>  <chi1v_C>
10.471162

>  <chi1_C>
12.249114

>  <chiral>
2

>  <chiral_u>
2

>  <density>
0.70833266

>  <diameter>
16

>  <FCharge>
0

>  <GCUT_PEOE_0>
-0.79158902

>  <GCUT_PEOE_1>
-0.3816036

>  <GCUT_PEOE_2>
-0.00071985374

>  <GCUT_PEOE_3>
2.9744754

>  <GCUT_SLOGP_0>
-0.94361681

>  <GCUT_SLOGP_1>
-0.26689139

>  <GCUT_SLOGP_2>
0.10309724

>  <GCUT_SLOGP_3>
3.0932865

>  <GCUT_SMR_0>
-0.52715784

>  <GCUT_SMR_1>
-0.21605732

>  <GCUT_SMR_2>
0.19305076

>  <GCUT_SMR_3>
3.2318447

>  <Kier1>
28.569445

>  <Kier2>
12.029903

>  <Kier3>
6.4783673

>  <KierA1>
23.366669

>  <KierA2>
9.775979

>  <KierA3>
5.2407908

>  <KierFlex>
6.7185903

>  <lip_acc>
6

>  <lip_don>
2

>  <lip_druglike>
1

>  <lip_violation>
1

>  <logP(o/w)>
8.0500002

>  <logS>
-7.7801399

>  <mr>
13.17371

>  <mutagenic>
0

>  <nmol>
1

>  <opr_brigid>
18

>  <opr_leadlike>
0

>  <opr_nring>
3

>  <opr_nrot>
12

>  <opr_violation>
3

>  <PC+>
0

>  <PC->
0

>  <PEOE_PC+>
2.7048631

>  <PEOE_PC->
-2.7048631

>  <PEOE_RPC+>
0.10797317

>  <PEOE_RPC->
0.1216676

>  <PEOE_VSA+0>
110.90004

>  <PEOE_VSA+1>
51.040127

>  <PEOE_VSA+2>
0

>  <PEOE_VSA+3>
0

>  <PEOE_VSA+4>
20.648346

>  <PEOE_VSA+5>
29.416998

>  <PEOE_VSA+6>
0

>  <PEOE_VSA-0>
125.7373

>  <PEOE_VSA-1>
112.61891

>  <PEOE_VSA-2>
0

>  <PEOE_VSA-3>
0

>  <PEOE_VSA-4>
0

>  <PEOE_VSA-5>
27.133842

>  <PEOE_VSA-6>
20.542593

>  <PEOE_VSA_FHYD>
0.8037464

>  <PEOE_VSA_FNEG>
0.57431877

>  <PEOE_VSA_FPNEG>
0.095728479

>  <PEOE_VSA_FPOL>
0.1962536

>  <PEOE_VSA_FPOS>
0.42568126

>  <PEOE_VSA_FPPOS>
0.10052512

>  <PEOE_VSA_HYD>
400.29639

>  <PEOE_VSA_NEG>
286.03265

>  <PEOE_VSA_PNEG>
47.676434

>  <PEOE_VSA_POL>
97.741776

>  <PEOE_VSA_POS>
212.00551

>  <PEOE_VSA_PPOS>
50.065342

>  <petitjean>
0.5

>  <petitjeanSC>
1

>  <Q_PC+>
0

>  <Q_PC->
0

>  <Q_RPC+>
0

>  <Q_RPC->
0

>  <Q_VSA_FHYD>
1

>  <Q_VSA_FNEG>
0

>  <Q_VSA_FPNEG>
0

>  <Q_VSA_FPOL>
0

>  <Q_VSA_FPOS>
1

>  <Q_VSA_FPPOS>
0

>  <Q_VSA_HYD>
498.03815

>  <Q_VSA_NEG>
0

>  <Q_VSA_PNEG>
0

>  <Q_VSA_POL>
0

>  <Q_VSA_POS>
498.03815

>  <Q_VSA_PPOS>
0

>  <radius>
8

>  <reactive>
0

>  <rings>
3

>  <RPC+>
0

>  <RPC->
0

>  <rsynth>
1

>  <SlogP>
6.2010002

>  <SlogP_VSA0>
21.999775

>  <SlogP_VSA1>
15.490929

>  <SlogP_VSA2>
47.724434

>  <SlogP_VSA3>
50.770454

>  <SlogP_VSA4>
6.37115

>  <SlogP_VSA5>
0

>  <SlogP_VSA6>
0

>  <SlogP_VSA7>
141.14548

>  <SlogP_VSA8>
132.07884

>  <SlogP_VSA9>
143.79091

>  <SMR>
13.06686

>  <SMR_VSA0>
47.724434

>  <SMR_VSA1>
21.999775

>  <SMR_VSA2>
50.770454

>  <SMR_VSA3>
16.858006

>  <SMR_VSA4>
0

>  <SMR_VSA5>
273.2243

>  <SMR_VSA6>
15.490929

>  <SMR_VSA7>
133.30406

>  <TPSA>
93.059998

>  <VAdjEq>
0.33644459

>  <VAdjMa>
6.1699252

>  <VDistEq>
3.8111615

>  <VDistMa>
9.8705034

>  <vdw_area>
498.03815

>  <vdw_vol>
661.53943

>  <vsa_acc>
5.0075121

>  <vsa_acid>
0

>  <vsa_base>
0

>  <vsa_don>
0

>  <vsa_hyd>
376.09534

>  <vsa_other>
29.416998

>  <vsa_pol>
59.275196

>  <Weight>
468.59

>  <weinerPath>
3729

>  <weinerPol>
61

>  <zagreb>
178

$$$$