P(O)(O)(=O)CO[C@@H](CN1C=CC(=NC1=O)N)CO
  MOE2013           2D

 18 18  0  0  1  0  0  0  0  0999 V2000
    0.0000    0.0000    0.0000 P   0  0  0  0  0  0  0  0  0  0  0  0
   -0.0130    1.5000    0.0000 O   0  0  0  0  0  0  0  0  0  0  0  0
    0.0130   -1.5000    0.0000 O   0  0  0  0  0  0  0  0  0  0  0  0
   -1.5000   -0.0130    0.0000 O   0  0  0  0  0  0  0  0  0  0  0  0
    1.5000    0.0130    0.0000 C   0  0  0  0  0  0  0  0  0  0  0  0
    2.2610   -1.2800    0.0000 O   0  0  0  0  0  0  0  0  0  0  0  0
    3.7610   -1.2670    0.0000 C   0  0  1  0  0  0  0  0  0  0  0  0
    4.5000    0.0390    0.0000 C   0  0  0  0  0  0  0  0  0  0  0  0
    6.0000    0.0520    0.0000 N   0  0  0  0  0  0  0  0  0  0  0  0
    6.7610   -1.2410    0.0000 C   0  0  0  0  0  0  0  0  0  0  0  0
    8.2610   -1.2280    0.0000 C   0  0  0  0  0  0  0  0  0  0  0  0
    9.0000    0.0780    0.0000 C   0  0  0  0  0  0  0  0  0  0  0  0
    8.2380    1.3700    0.0000 N   0  0  0  0  0  0  0  0  0  0  0  0
    6.7390    1.3570    0.0000 C   0  0  0  0  0  0  0  0  0  0  0  0
    5.9770    2.6500    0.0000 O   0  0  0  0  0  0  0  0  0  0  0  0
   10.5000    0.0910    0.0000 N   0  0  0  0  0  0  0  0  0  0  0  0
    4.5220   -2.5590    0.0000 C   0  0  0  0  0  0  0  0  0  0  0  0
    3.7840   -3.8650    0.0000 O   0  0  0  0  0  0  0  0  0  0  0  0
  1  2  1  0  0  0  0
  1  3  1  0  0  0  0
  1  4  2  0  0  0  0
  1  5  1  0  0  0  0
  5  6  1  0  0  0  0
  7  6  1  1  0  0  0
  7  8  1  0  0  0  0
  7 17  1  0  0  0  0
  8  9  1  0  0  0  0
  9 10  1  0  0  0  0
  9 14  1  0  0  0  0
 10 11  2  0  0  0  0
 11 12  1  0  0  0  0
 12 13  2  0  0  0  0
 12 16  1  0  0  0  0
 13 14  1  0  0  0  0
 14 15  2  0  0  0  0
 17 18  1  0  0  0  0
M  END
>  <Index>
227

>  <ID>
HT0481

>  <class>
0

>  <apol>
35.157101

>  <ast_fraglike>
0

>  <ast_fraglike_ext>
0

>  <ast_violation>
2

>  <ast_violation_ext>
4

>  <a_acc>
7

>  <a_acid>
0

>  <a_aro>
0

>  <a_base>
0

>  <a_count>
32

>  <a_don>
5

>  <a_donacc>
12

>  <a_heavy>
18

>  <a_hyd>
6

>  <a_IC>
62.432369

>  <a_ICM>
1.9510115

>  <a_nB>
0

>  <a_nBr>
0

>  <a_nC>
8

>  <a_nCl>
0

>  <a_nF>
0

>  <a_nH>
14

>  <a_nI>
0

>  <a_nN>
3

>  <a_nO>
6

>  <a_nP>
1

>  <a_nS>
0

>  <balabanJ>
2.3840733

>  <BCUT_PEOE_0>
-2.5837543

>  <BCUT_PEOE_1>
-0.6412251

>  <BCUT_PEOE_2>
0.66391587

>  <BCUT_PEOE_3>
2.6240852

>  <BCUT_SLOGP_0>
-2.7300973

>  <BCUT_SLOGP_1>
-0.87911808

>  <BCUT_SLOGP_2>
0.55184132

>  <BCUT_SLOGP_3>
2.605478

>  <BCUT_SMR_0>
-2.3527889

>  <BCUT_SMR_1>
-0.5009414

>  <BCUT_SMR_2>
0.76749414

>  <BCUT_SMR_3>
2.849936

>  <bpol>
29.256899

>  <b_1rotN>
6

>  <b_1rotR>
0.33333334

>  <b_ar>
0

>  <b_count>
32

>  <b_double>
3

>  <b_heavy>
18

>  <b_max1len>
8

>  <b_rotN>
6

>  <b_rotR>
0.33333334

>  <b_single>
29

>  <b_triple>
0

>  <chi0>
13.759149

>  <chi0v>
10.233175

>  <chi0v_C>
4.8533711

>  <chi0_C>
5.2675848

>  <chi1>
8.3146801

>  <chi1v>
6.7135625

>  <chi1v_C>
1.4385051

>  <chi1_C>
1.7247449

>  <chiral>
1

>  <chiral_u>
0

>  <density>
0.91548944

>  <diameter>
10

>  <FCharge>
0

>  <GCUT_PEOE_0>
-0.84399021

>  <GCUT_PEOE_1>
-0.44582796

>  <GCUT_PEOE_2>
0.12694697

>  <GCUT_PEOE_3>
2.4149592

>  <GCUT_SLOGP_0>
-1.3703825

>  <GCUT_SLOGP_1>
-0.54060745

>  <GCUT_SLOGP_2>
0.038386546

>  <GCUT_SLOGP_3>
2.3613527

>  <GCUT_SMR_0>
-0.51971859

>  <GCUT_SMR_1>
-0.24286275

>  <GCUT_SMR_2>
0.21778481

>  <GCUT_SMR_3>
2.6479392

>  <Kier1>
16.055555

>  <Kier2>
6.9632001

>  <Kier3>
6.1440001

>  <KierA1>
14.299807

>  <KierA2>
6.1569452

>  <KierA3>
5.4035311

>  <KierFlex>
4.8912849

>  <lip_acc>
9

>  <lip_don>
5

>  <lip_druglike>
1

>  <lip_violation>
0

>  <logP(o/w)>
-2.842

>  <logS>
0.51609999

>  <mr>
6.2462077

>  <mutagenic>
0

>  <nmol>
1

>  <opr_brigid>
6

>  <opr_leadlike>
1

>  <opr_nring>
1

>  <opr_nrot>
6

>  <opr_violation>
1

>  <PC+>
0

>  <PC->
0

>  <PEOE_PC+>
2.719548

>  <PEOE_PC->
-2.719548

>  <PEOE_RPC+>
0.12881625

>  <PEOE_RPC->
0.14428651

>  <PEOE_VSA+0>
16.745916

>  <PEOE_VSA+1>
58.00132

>  <PEOE_VSA+2>
45.274609

>  <PEOE_VSA+3>
33.709831

>  <PEOE_VSA+4>
10.324173

>  <PEOE_VSA+5>
0

>  <PEOE_VSA+6>
31.10754

>  <PEOE_VSA-0>
12.254904

>  <PEOE_VSA-1>
0

>  <PEOE_VSA-2>
0

>  <PEOE_VSA-3>
5.6825762

>  <PEOE_VSA-4>
29.296057

>  <PEOE_VSA-5>
0

>  <PEOE_VSA-6>
36.781929

>  <PEOE_VSA_FHYD>
0.61490744

>  <PEOE_VSA_FNEG>
0.30093777

>  <PEOE_VSA_FPNEG>
0.23668693

>  <PEOE_VSA_FPOL>
0.38509256

>  <PEOE_VSA_FPOS>
0.69906223

>  <PEOE_VSA_FPPOS>
0.14840563

>  <PEOE_VSA_HYD>
171.66916

>  <PEOE_VSA_NEG>
84.015465

>  <PEOE_VSA_PNEG>
66.077988

>  <PEOE_VSA_POL>
107.5097

>  <PEOE_VSA_POS>
195.16339

>  <PEOE_VSA_PPOS>
41.431713

>  <petitjean>
0.5

>  <petitjeanSC>
1

>  <Q_PC+>
0

>  <Q_PC->
0

>  <Q_RPC+>
0

>  <Q_RPC->
0

>  <Q_VSA_FHYD>
1

>  <Q_VSA_FNEG>
0

>  <Q_VSA_FPNEG>
0

>  <Q_VSA_FPOL>
0

>  <Q_VSA_FPOS>
1

>  <Q_VSA_FPPOS>
0

>  <Q_VSA_HYD>
279.17886

>  <Q_VSA_NEG>
0

>  <Q_VSA_PNEG>
0

>  <Q_VSA_POL>
0

>  <Q_VSA_POS>
279.17886

>  <Q_VSA_PPOS>
0

>  <radius>
5

>  <reactive>
1

>  <rings>
1

>  <RPC+>
0

>  <RPC->
0

>  <rsynth>
1

>  <SlogP>
-2.2646

>  <SlogP_VSA0>
123.33012

>  <SlogP_VSA1>
10.28219

>  <SlogP_VSA2>
17.468536

>  <SlogP_VSA3>
57.462929

>  <SlogP_VSA4>
0

>  <SlogP_VSA5>
16.78553

>  <SlogP_VSA6>
0

>  <SlogP_VSA7>
34.85754

>  <SlogP_VSA8>
0

>  <SlogP_VSA9>
38.661686

>  <SMR>
6.1047802

>  <SMR_VSA0>
57.295868

>  <SMR_VSA1>
87.909004

>  <SMR_VSA2>
0

>  <SMR_VSA3>
6.4686494

>  <SMR_VSA4>
32.897186

>  <SMR_VSA5>
34.85754

>  <SMR_VSA6>
64.620804

>  <SMR_VSA7>
14.799472

>  <TPSA>
145.67999

>  <VAdjEq>
0.50325835

>  <VAdjMa>
5.1699252

>  <VDistEq>
3.1411867

>  <VDistMa>
8.0317802

>  <vdw_area>
279.17886

>  <vdw_vol>
304.96146

>  <vsa_acc>
21.753254

>  <vsa_acid>
0

>  <vsa_base>
0

>  <vsa_don>
17.742489

>  <vsa_hyd>
110.50349

>  <vsa_other>
42.298103

>  <vsa_pol>
100.25008

>  <Weight>
279.189

>  <weinerPath>
665

>  <weinerPol>
22

>  <zagreb>
86

$$$$