O=C1N(O)C(=CC(=C1)C)C1CCCCC1
  MOE2013           2D

 15 16  0  0  0  0  0  0  0  0999 V2000
    0.0000    0.0000    0.0000 O   0  0  0  0  0  0  0  0  0  0  0  0
    0.7600   -1.2930    0.0000 C   0  0  0  0  0  0  0  0  0  0  0  0
    2.2600   -1.2810    0.0000 N   0  0  0  0  0  0  0  0  0  0  0  0
    3.0000    0.0240    0.0000 O   0  0  0  0  0  0  0  0  0  0  0  0
    3.0210   -2.5740    0.0000 C   0  0  0  0  0  0  0  0  0  0  0  0
    2.2810   -3.8790    0.0000 C   0  0  0  0  0  0  0  0  0  0  0  0
    0.7810   -3.8910    0.0000 C   0  0  0  0  0  0  0  0  0  0  0  0
    0.0210   -2.5980    0.0000 C   0  0  0  0  0  0  0  0  0  0  0  0
    0.0410   -5.1960    0.0000 C   0  0  0  0  0  0  0  0  0  0  0  0
    4.5210   -2.5620    0.0000 C   0  0  0  0  0  0  0  0  0  0  0  0
    5.2600   -1.2570    0.0000 C   0  0  0  0  0  0  0  0  0  0  0  0
    6.7600   -1.2450    0.0000 C   0  0  0  0  0  0  0  0  0  0  0  0
    7.5200   -2.5380    0.0000 C   0  0  0  0  0  0  0  0  0  0  0  0
    6.7810   -3.8430    0.0000 C   0  0  0  0  0  0  0  0  0  0  0  0
    5.2810   -3.8550    0.0000 C   0  0  0  0  0  0  0  0  0  0  0  0
  1  2  2  0  0  0  0
  2  3  1  0  0  0  0
  2  8  1  0  0  0  0
  3  4  1  0  0  0  0
  3  5  1  0  0  0  0
  5  6  2  0  0  0  0
  5 10  1  0  0  0  0
  6  7  1  0  0  0  0
  7  8  2  0  0  0  0
  7  9  1  0  0  0  0
 10 11  1  0  0  0  0
 10 15  1  0  0  0  0
 11 12  1  0  0  0  0
 12 13  1  0  0  0  0
 13 14  1  0  0  0  0
 14 15  1  0  0  0  0
M  END
>  <Index>
226

>  <ID>
HT0480

>  <class>
0

>  <apol>
35.159481

>  <ast_fraglike>
1

>  <ast_fraglike_ext>
1

>  <ast_violation>
0

>  <ast_violation_ext>
0

>  <a_acc>
2

>  <a_acid>
0

>  <a_aro>
0

>  <a_base>
0

>  <a_count>
32

>  <a_don>
1

>  <a_donacc>
3

>  <a_heavy>
15

>  <a_hyd>
11

>  <a_IC>
45.49358

>  <a_ICM>
1.4216744

>  <a_nB>
0

>  <a_nBr>
0

>  <a_nC>
12

>  <a_nCl>
0

>  <a_nF>
0

>  <a_nH>
17

>  <a_nI>
0

>  <a_nN>
1

>  <a_nO>
2

>  <a_nP>
0

>  <a_nS>
0

>  <balabanJ>
1.9934375

>  <BCUT_PEOE_0>
-2.7800291

>  <BCUT_PEOE_1>
-0.529805

>  <BCUT_PEOE_2>
0.5230425

>  <BCUT_PEOE_3>
2.730689

>  <BCUT_SLOGP_0>
-2.651453

>  <BCUT_SLOGP_1>
-0.47131914

>  <BCUT_SLOGP_2>
0.52427125

>  <BCUT_SLOGP_3>
2.870419

>  <BCUT_SMR_0>
-2.528518

>  <BCUT_SMR_1>
-0.36513269

>  <BCUT_SMR_2>
0.66488272

>  <BCUT_SMR_3>
2.9845078

>  <bpol>
20.202518

>  <b_1rotN>
1

>  <b_1rotR>
0.0625

>  <b_ar>
0

>  <b_count>
33

>  <b_double>
3

>  <b_heavy>
16

>  <b_max1len>
2

>  <b_rotN>
1

>  <b_rotR>
0.0625

>  <b_single>
30

>  <b_triple>
0

>  <chi0>
10.836499

>  <chi0v>
9.07026

>  <chi0v_C>
7.7675848

>  <chi0_C>
8.2591486

>  <chi1>
7.1815405

>  <chi1v>
5.6112099

>  <chi1v_C>
4.7598724

>  <chi1_C>
5.3601732

>  <chiral>
0

>  <chiral_u>
0

>  <density>
0.70519137

>  <diameter>
7

>  <FCharge>
0

>  <GCUT_PEOE_0>
-0.81036288

>  <GCUT_PEOE_1>
-0.40501365

>  <GCUT_PEOE_2>
0.030762242

>  <GCUT_PEOE_3>
2.6174102

>  <GCUT_SLOGP_0>
-0.93823946

>  <GCUT_SLOGP_1>
-0.32590511

>  <GCUT_SLOGP_2>
0.063686892

>  <GCUT_SLOGP_3>
2.7194614

>  <GCUT_SMR_0>
-0.52883589

>  <GCUT_SMR_1>
-0.21925443

>  <GCUT_SMR_2>
0.15942156

>  <GCUT_SMR_3>
2.8575954

>  <Kier1>
11.484375

>  <Kier2>
4.8884296

>  <Kier3>
2.5714285

>  <KierA1>
9.2630234

>  <KierA2>
3.8771977

>  <KierA3>
2.0115733

>  <KierFlex>
2.394305

>  <lip_acc>
3

>  <lip_don>
1

>  <lip_druglike>
1

>  <lip_violation>
0

>  <logP(o/w)>
2.2130001

>  <logS>
-2.9774499

>  <mr>
5.8756547

>  <mutagenic>
1

>  <nmol>
1

>  <opr_brigid>
12

>  <opr_leadlike>
1

>  <opr_nring>
2

>  <opr_nrot>
3

>  <opr_violation>
0

>  <PC+>
0

>  <PC->
0

>  <PEOE_PC+>
1.1029302

>  <PEOE_PC->
-1.1029302

>  <PEOE_RPC+>
0.24941449

>  <PEOE_RPC->
0.25339299

>  <PEOE_VSA+0>
71.970306

>  <PEOE_VSA+1>
15.230323

>  <PEOE_VSA+2>
0

>  <PEOE_VSA+3>
0

>  <PEOE_VSA+4>
10.324173

>  <PEOE_VSA+5>
12.949531

>  <PEOE_VSA+6>
0

>  <PEOE_VSA-0>
50.613747

>  <PEOE_VSA-1>
26.103939

>  <PEOE_VSA-2>
0

>  <PEOE_VSA-3>
0

>  <PEOE_VSA-4>
0

>  <PEOE_VSA-5>
24.733065

>  <PEOE_VSA-6>
0

>  <PEOE_VSA_FHYD>
0.77347291

>  <PEOE_VSA_FNEG>
0.47871044

>  <PEOE_VSA_FPNEG>
0.11670664

>  <PEOE_VSA_FPOL>
0.22652707

>  <PEOE_VSA_FPOS>
0.52128959

>  <PEOE_VSA_FPPOS>
0.10982043

>  <PEOE_VSA_HYD>
163.91832

>  <PEOE_VSA_NEG>
101.45075

>  <PEOE_VSA_PNEG>
24.733065

>  <PEOE_VSA_POL>
48.006767

>  <PEOE_VSA_POS>
110.47433

>  <PEOE_VSA_PPOS>
23.273705

>  <petitjean>
0.42857143

>  <petitjeanSC>
0.75

>  <Q_PC+>
0

>  <Q_PC->
0

>  <Q_RPC+>
0

>  <Q_RPC->
0

>  <Q_VSA_FHYD>
1

>  <Q_VSA_FNEG>
0

>  <Q_VSA_FPNEG>
0

>  <Q_VSA_FPOL>
0

>  <Q_VSA_FPOS>
1

>  <Q_VSA_FPPOS>
0

>  <Q_VSA_HYD>
211.92508

>  <Q_VSA_NEG>
0

>  <Q_VSA_PNEG>
0

>  <Q_VSA_POL>
0

>  <Q_VSA_POS>
211.92508

>  <Q_VSA_PPOS>
0

>  <radius>
4

>  <reactive>
0

>  <rings>
2

>  <RPC+>
0

>  <RPC->
0

>  <rsynth>
0.33333334

>  <SlogP>
2.6283

>  <SlogP_VSA0>
0

>  <SlogP_VSA1>
10.99743

>  <SlogP_VSA2>
49.46632

>  <SlogP_VSA3>
0

>  <SlogP_VSA4>
4.4107962

>  <SlogP_VSA5>
5.9423227

>  <SlogP_VSA6>
0

>  <SlogP_VSA7>
35.286369

>  <SlogP_VSA8>
94.342026

>  <SlogP_VSA9>
33.326015

>  <SMR>
5.78898

>  <SMR_VSA0>
23.862217

>  <SMR_VSA1>
5.7386465

>  <SMR_VSA2>
30.014898

>  <SMR_VSA3>
5.9423227

>  <SMR_VSA4>
0

>  <SMR_VSA5>
129.6284

>  <SMR_VSA6>
5.2587838

>  <SMR_VSA7>
33.326015

>  <TPSA>
40.540001

>  <VAdjEq>
0.59002918

>  <VAdjMa>
5

>  <VDistEq>
2.6460435

>  <VDistMa>
7.5311775

>  <vdw_area>
211.92508

>  <vdw_vol>
293.92447

>  <vsa_acc>
13.566921

>  <vsa_acid>
0

>  <vsa_base>
0

>  <vsa_don>
0

>  <vsa_hyd>
151.18454

>  <vsa_other>
12.949531

>  <vsa_pol>
30.532444

>  <Weight>
207.27299

>  <weinerPath>
348

>  <weinerPol>
22

>  <zagreb>
76

$$$$