ClCC(=O)C1(OC(=O)CC)C2(CC(O)C3(F)C(C2CC1C)CCC1=CC(=O)C=CC13C)C
  MOE2013           2D

 32 35  0  0  1  0  0  0  0  0999 V2000
    0.0000    0.0000    0.0000 Cl  0  0  0  0  0  0  0  0  0  0  0  0
   -1.4880   -0.1910    0.0000 C   0  0  0  0  0  0  0  0  0  0  0  0
   -2.3970    1.0010    0.0000 C   0  0  0  0  0  0  0  0  0  0  0  0
   -1.8190    2.3860    0.0000 O   0  0  0  0  0  0  0  0  0  0  0  0
   -3.8850    0.8100    0.0000 C   0  0  3  0  0  0  0  0  0  0  0  0
   -3.3560    2.2140    0.0000 O   0  0  0  0  0  0  0  0  0  0  0  0
   -4.3060    3.3740    0.0000 C   0  0  0  0  0  0  0  0  0  0  0  0
   -5.7860    3.1310    0.0000 O   0  0  0  0  0  0  0  0  0  0  0  0
   -3.7770    4.7770    0.0000 C   0  0  0  0  0  0  0  0  0  0  0  0
   -4.7270    5.9380    0.0000 C   0  0  0  0  0  0  0  0  0  0  0  0
   -5.3430    1.1650    0.0000 C   0  0  3  0  0  0  0  0  0  0  0  0
   -6.0540    2.4850    0.0000 C   0  0  0  0  0  0  0  0  0  0  0  0
   -7.5540    2.5290    0.0000 C   0  0  3  0  0  0  0  0  0  0  0  0
   -8.2650    3.8490    0.0000 O   0  0  0  0  0  0  0  0  0  0  0  0
   -8.3410    1.2520    0.0000 C   0  0  3  0  0  0  0  0  0  0  0  0
   -6.8420    1.2090    0.0000 F   0  0  0  0  0  0  0  0  0  0  0  0
   -7.6300   -0.0680    0.0000 C   0  0  3  0  0  0  0  0  0  0  0  0
   -6.1300   -0.1120    0.0000 C   0  0  3  0  0  0  0  0  0  0  0  0
   -5.1590   -1.2550    0.0000 C   0  0  0  0  0  0  0  0  0  0  0  0
   -3.7720   -0.6860    0.0000 C   0  0  3  0  0  0  0  0  0  0  0  0
   -2.4950   -1.4730    0.0000 C   0  0  0  0  0  0  0  0  0  0  0  0
   -8.4170   -1.3450    0.0000 C   0  0  0  0  0  0  0  0  0  0  0  0
   -9.9160   -1.3010    0.0000 C   0  0  0  0  0  0  0  0  0  0  0  0
  -10.6280    0.0200    0.0000 C   0  0  0  0  0  0  0  0  0  0  0  0
  -12.1280    0.0630    0.0000 C   0  0  0  0  0  0  0  0  0  0  0  0
  -12.8390    1.3840    0.0000 C   0  0  0  0  0  0  0  0  0  0  0  0
  -14.3390    1.4270    0.0000 O   0  0  0  0  0  0  0  0  0  0  0  0
  -12.0520    2.6600    0.0000 C   0  0  0  0  0  0  0  0  0  0  0  0
  -10.5520    2.6160    0.0000 C   0  0  0  0  0  0  0  0  0  0  0  0
   -9.8410    1.2960    0.0000 C   0  0  3  0  0  0  0  0  0  0  0  0
   -9.0530    2.5730    0.0000 C   0  0  0  0  0  0  0  0  0  0  0  0
   -4.4470    2.3680    0.0000 C   0  0  0  0  0  0  0  0  0  0  0  0
  1  2  1  0  0  0  0
  2  3  1  0  0  0  0
  3  4  2  0  0  0  0
  3  5  1  0  0  0  0
  5  6  1  0  0  0  0
  5 11  1  0  0  0  0
  5 20  1  0  0  0  0
  6  7  1  0  0  0  0
  7  8  2  0  0  0  0
  7  9  1  0  0  0  0
  9 10  1  0  0  0  0
 11 12  1  0  0  0  0
 11 18  1  0  0  0  0
 11 32  1  0  0  0  0
 12 13  1  0  0  0  0
 13 14  1  0  0  0  0
 13 15  1  0  0  0  0
 15 16  1  0  0  0  0
 15 17  1  0  0  0  0
 15 30  1  0  0  0  0
 17 18  1  0  0  0  0
 17 22  1  0  0  0  0
 18 19  1  0  0  0  0
 19 20  1  0  0  0  0
 20 21  1  0  0  0  0
 22 23  1  0  0  0  0
 23 24  1  0  0  0  0
 24 25  2  0  0  0  0
 24 30  1  0  0  0  0
 25 26  1  0  0  0  0
 26 27  2  0  0  0  0
 26 28  1  0  0  0  0
 28 29  2  0  0  0  0
 29 30  1  0  0  0  0
 30 31  1  0  0  0  0
M  END
>  <Index>
245

>  <ID>
HT0517

>  <class>
0

>  <apol>
72.084373

>  <ast_fraglike>
0

>  <ast_fraglike_ext>
0

>  <ast_violation>
3

>  <ast_violation_ext>
4

>  <a_acc>
4

>  <a_acid>
0

>  <a_aro>
0

>  <a_base>
0

>  <a_count>
64

>  <a_don>
1

>  <a_donacc>
5

>  <a_heavy>
32

>  <a_hyd>
24

>  <a_IC>
96.293953

>  <a_ICM>
1.504593

>  <a_nB>
0

>  <a_nBr>
0

>  <a_nC>
25

>  <a_nCl>
1

>  <a_nF>
1

>  <a_nH>
32

>  <a_nI>
0

>  <a_nN>
0

>  <a_nO>
5

>  <a_nP>
0

>  <a_nS>
0

>  <balabanJ>
1.7871232

>  <BCUT_PEOE_0>
-2.8982785

>  <BCUT_PEOE_1>
-0.49711579

>  <BCUT_PEOE_2>
0.36653951

>  <BCUT_PEOE_3>
3.0028179

>  <BCUT_SLOGP_0>
-2.9217799

>  <BCUT_SLOGP_1>
-0.4193776

>  <BCUT_SLOGP_2>
0.48714185

>  <BCUT_SLOGP_3>
2.9997952

>  <BCUT_SMR_0>
-2.6717916

>  <BCUT_SMR_1>
-0.28295013

>  <BCUT_SMR_2>
0.5625

>  <BCUT_SMR_3>
3.2283456

>  <bpol>
41.395622

>  <b_1rotN>
4

>  <b_1rotR>
0.11428571

>  <b_ar>
0

>  <b_count>
67

>  <b_double>
5

>  <b_heavy>
35

>  <b_max1len>
4

>  <b_rotN>
5

>  <b_rotR>
0.14285715

>  <b_single>
62

>  <b_triple>
0

>  <chi0>
23.689871

>  <chi0v>
19.876158

>  <chi0v_C>
16.284092

>  <chi0_C>
16.982763

>  <chi1>
14.917741

>  <chi1v>
12.077317

>  <chi1v_C>
9.8077316

>  <chi1_C>
10.639431

>  <chiral>
8

>  <chiral_u>
8

>  <density>
0.77952141

>  <diameter>
13

>  <FCharge>
0

>  <GCUT_PEOE_0>
-0.79033196

>  <GCUT_PEOE_1>
-0.39656278

>  <GCUT_PEOE_2>
-0.00014339839

>  <GCUT_PEOE_3>
3.4262938

>  <GCUT_SLOGP_0>
-0.92981601

>  <GCUT_SLOGP_1>
-0.31394374

>  <GCUT_SLOGP_2>
0.039389949

>  <GCUT_SLOGP_3>
3.4529076

>  <GCUT_SMR_0>
-0.53789592

>  <GCUT_SMR_1>
-0.21530631

>  <GCUT_SMR_2>
0.15115649

>  <GCUT_SMR_3>
3.6444011

>  <Kier1>
25.103674

>  <Kier2>
8.2936983

>  <Kier3>
3.1517932

>  <KierA1>
22.723862

>  <KierA2>
7.4824123

>  <KierA3>
2.8367944

>  <KierFlex>
5.3134155

>  <lip_acc>
5

>  <lip_don>
1

>  <lip_druglike>
1

>  <lip_violation>
0

>  <logP(o/w)>
4.4629998

>  <logS>
-4.9667902

>  <mr>
11.99422

>  <mutagenic>
1

>  <nmol>
1

>  <opr_brigid>
20

>  <opr_leadlike>
1

>  <opr_nring>
4

>  <opr_nrot>
4

>  <opr_violation>
1

>  <PC+>
0

>  <PC->
0

>  <PEOE_PC+>
2.4284194

>  <PEOE_PC->
-2.4284194

>  <PEOE_RPC+>
0.10822887

>  <PEOE_RPC->
0.16001379

>  <PEOE_VSA+0>
115.33596

>  <PEOE_VSA+1>
41.509766

>  <PEOE_VSA+2>
0

>  <PEOE_VSA+3>
16.917038

>  <PEOE_VSA+4>
10.324173

>  <PEOE_VSA+5>
14.708499

>  <PEOE_VSA+6>
0

>  <PEOE_VSA-0>
78.062737

>  <PEOE_VSA-1>
70.706474

>  <PEOE_VSA-2>
29.581947

>  <PEOE_VSA-3>
0

>  <PEOE_VSA-4>
11.908636

>  <PEOE_VSA-5>
40.700764

>  <PEOE_VSA-6>
10.271297

>  <PEOE_VSA_FHYD>
0.80020928

>  <PEOE_VSA_FNEG>
0.54822022

>  <PEOE_VSA_FPNEG>
0.14290181

>  <PEOE_VSA_FPOL>
0.19979072

>  <PEOE_VSA_FPOS>
0.45177978

>  <PEOE_VSA_FPPOS>
0.056888908

>  <PEOE_VSA_HYD>
352.11392

>  <PEOE_VSA_NEG>
241.23186

>  <PEOE_VSA_PNEG>
62.880695

>  <PEOE_VSA_POL>
87.913368

>  <PEOE_VSA_POS>
198.79544

>  <PEOE_VSA_PPOS>
25.032671

>  <petitjean>
0.46153846

>  <petitjeanSC>
0.85714287

>  <Q_PC+>
0

>  <Q_PC->
0

>  <Q_RPC+>
0

>  <Q_RPC->
0

>  <Q_VSA_FHYD>
1

>  <Q_VSA_FNEG>
0

>  <Q_VSA_FPNEG>
0

>  <Q_VSA_FPOL>
0

>  <Q_VSA_FPOS>
1

>  <Q_VSA_FPPOS>
0

>  <Q_VSA_HYD>
440.02728

>  <Q_VSA_NEG>
0

>  <Q_VSA_PNEG>
0

>  <Q_VSA_POL>
0

>  <Q_VSA_POS>
440.02728

>  <Q_VSA_PPOS>
0

>  <radius>
7

>  <reactive>
1

>  <rings>
4

>  <RPC+>
0

>  <RPC->
0

>  <rsynth>
0.375

>  <SlogP>
4.1030998

>  <SlogP_VSA0>
25.385227

>  <SlogP_VSA1>
19.120686

>  <SlogP_VSA2>
89.055183

>  <SlogP_VSA3>
19.183437

>  <SlogP_VSA4>
13.232388

>  <SlogP_VSA5>
3.185575

>  <SlogP_VSA6>
0

>  <SlogP_VSA7>
52.929554

>  <SlogP_VSA8>
94.342026

>  <SlogP_VSA9>
187.41281

>  <SMR>
11.77428

>  <SMR_VSA0>
82.58654

>  <SMR_VSA1>
40.345341

>  <SMR_VSA2>
13.232388

>  <SMR_VSA3>
9.6542244

>  <SMR_VSA4>
0

>  <SMR_VSA5>
147.27158

>  <SMR_VSA6>
38.304123

>  <SMR_VSA7>
172.4527

>  <TPSA>
80.669998

>  <VAdjEq>
0.3597711

>  <VAdjMa>
6.129283

>  <VDistEq>
3.298907

>  <VDistMa>
9.752305

>  <vdw_area>
440.02728

>  <vdw_vol>
599.05603

>  <vsa_acc>
40.700764

>  <vsa_acid>
0

>  <vsa_base>
0

>  <vsa_don>
0

>  <vsa_hyd>
321.00473

>  <vsa_other>
34.129295

>  <vsa_pol>
54.267685

>  <Weight>
466.97699

>  <weinerPath>
2420

>  <weinerPol>
77

>  <zagreb>
186

$$$$