Clc1cc(C(=O)N[C@@H]2CCN(C[C@@H]2OC)CCCOc2ccc(F)cc2)c(OC)cc1N
  MOE2013           2D

 32 34  0  0  1  0  0  0  0  0999 V2000
    0.0000    0.0000    0.0000 Cl  0  0  0  0  0  0  0  0  0  0  0  0
    0.7590    1.2940    0.0000 C   0  0  0  0  0  0  0  0  0  0  0  0
    2.2590    1.2830    0.0000 C   0  0  0  0  0  0  0  0  0  0  0  0
    3.0180    2.5770    0.0000 C   0  0  0  0  0  0  0  0  0  0  0  0
    4.5180    2.5660    0.0000 C   0  0  0  0  0  0  0  0  0  0  0  0
    5.2780    3.8600    0.0000 O   0  0  0  0  0  0  0  0  0  0  0  0
    5.2590    1.2620    0.0000 N   0  0  0  0  0  0  0  0  0  0  0  0
    6.7590    1.2510    0.0000 C   0  0  2  0  0  0  0  0  0  0  0  0
    7.5180    2.5450    0.0000 C   0  0  0  0  0  0  0  0  0  0  0  0
    9.0180    2.5340    0.0000 C   0  0  0  0  0  0  0  0  0  0  0  0
    9.7590    1.2300    0.0000 N   0  0  3  0  0  0  0  0  0  0  0  0
    9.0000   -0.0640    0.0000 C   0  0  0  0  0  0  0  0  0  0  0  0
    7.5000   -0.0530    0.0000 C   0  0  2  0  0  0  0  0  0  0  0  0
    6.7410   -1.3470    0.0000 O   0  0  0  0  0  0  0  0  0  0  0  0
    7.4810   -2.6510    0.0000 C   0  0  0  0  0  0  0  0  0  0  0  0
   11.2590    1.2190    0.0000 C   0  0  0  0  0  0  0  0  0  0  0  0
   12.0000   -0.0850    0.0000 C   0  0  0  0  0  0  0  0  0  0  0  0
   13.5000   -0.0960    0.0000 C   0  0  0  0  0  0  0  0  0  0  0  0
   14.2400   -1.4000    0.0000 O   0  0  0  0  0  0  0  0  0  0  0  0
   15.7400   -1.4110    0.0000 C   0  0  0  0  0  0  0  0  0  0  0  0
   16.5000   -0.1170    0.0000 C   0  0  0  0  0  0  0  0  0  0  0  0
   18.0000   -0.1280    0.0000 C   0  0  0  0  0  0  0  0  0  0  0  0
   18.7400   -1.4320    0.0000 C   0  0  0  0  0  0  0  0  0  0  0  0
   20.2400   -1.4430    0.0000 F   0  0  0  0  0  0  0  0  0  0  0  0
   17.9810   -2.7260    0.0000 C   0  0  0  0  0  0  0  0  0  0  0  0
   16.4810   -2.7150    0.0000 C   0  0  0  0  0  0  0  0  0  0  0  0
    2.2780    3.8810    0.0000 C   0  0  0  0  0  0  0  0  0  0  0  0
    3.0370    5.1750    0.0000 O   0  0  0  0  0  0  0  0  0  0  0  0
    2.2960    6.4790    0.0000 C   0  0  0  0  0  0  0  0  0  0  0  0
    0.7780    3.8920    0.0000 C   0  0  0  0  0  0  0  0  0  0  0  0
    0.0180    2.5980    0.0000 C   0  0  0  0  0  0  0  0  0  0  0  0
   -1.4820    2.6090    0.0000 N   0  0  0  0  0  0  0  0  0  0  0  0
  1  2  1  0  0  0  0
  2  3  1  0  0  0  0
  2 31  2  0  0  0  0
  3  4  2  0  0  0  0
  4  5  1  0  0  0  0
  4 27  1  0  0  0  0
  5  6  2  0  0  0  0
  5  7  1  0  0  0  0
  8  7  1  6  0  0  0
  8  9  1  0  0  0  0
  8 13  1  0  0  0  0
  9 10  1  0  0  0  0
 10 11  1  0  0  0  0
 11 12  1  0  0  0  0
 11 16  1  0  0  0  0
 12 13  1  0  0  0  0
 13 14  1  6  0  0  0
 14 15  1  0  0  0  0
 16 17  1  0  0  0  0
 17 18  1  0  0  0  0
 18 19  1  0  0  0  0
 19 20  1  0  0  0  0
 20 21  1  0  0  0  0
 20 26  2  0  0  0  0
 21 22  2  0  0  0  0
 22 23  1  0  0  0  0
 23 24  1  0  0  0  0
 23 25  2  0  0  0  0
 25 26  1  0  0  0  0
 27 28  1  0  0  0  0
 27 30  2  0  0  0  0
 28 29  1  0  0  0  0
 30 31  1  0  0  0  0
 31 32  1  0  0  0  0
M  END
>  <Index>
236

>  <ID>
HT0498

>  <class>
0

>  <apol>
69.061996

>  <ast_fraglike>
0

>  <ast_fraglike_ext>
0

>  <ast_violation>
3

>  <ast_violation_ext>
4

>  <a_acc>
5

>  <a_acid>
0

>  <a_aro>
12

>  <a_base>
0

>  <a_count>
61

>  <a_don>
2

>  <a_donacc>
7

>  <a_heavy>
32

>  <a_hyd>
24

>  <a_IC>
104.09672

>  <a_ICM>
1.7065035

>  <a_nB>
0

>  <a_nBr>
0

>  <a_nC>
23

>  <a_nCl>
1

>  <a_nF>
1

>  <a_nH>
29

>  <a_nI>
0

>  <a_nN>
3

>  <a_nO>
4

>  <a_nP>
0

>  <a_nS>
0

>  <balabanJ>
1.3888505

>  <BCUT_PEOE_0>
-2.8010058

>  <BCUT_PEOE_1>
-0.63647282

>  <BCUT_PEOE_2>
0.57245696

>  <BCUT_PEOE_3>
2.7539446

>  <BCUT_SLOGP_0>
-2.9248333

>  <BCUT_SLOGP_1>
-0.47990796

>  <BCUT_SLOGP_2>
0.69910288

>  <BCUT_SLOGP_3>
2.6587789

>  <BCUT_SMR_0>
-2.5399592

>  <BCUT_SMR_1>
-0.38618922

>  <BCUT_SMR_2>
0.79053408

>  <BCUT_SMR_3>
3.0040827

>  <bpol>
42.012005

>  <b_1rotN>
9

>  <b_1rotR>
0.2647059

>  <b_ar>
12

>  <b_count>
63

>  <b_double>
1

>  <b_heavy>
34

>  <b_max1len>
4

>  <b_rotN>
10

>  <b_rotR>
0.29411766

>  <b_single>
50

>  <b_triple>
0

>  <chi0>
23.087212

>  <chi0v>
19.030857

>  <chi0v_C>
14.361443

>  <chi0_C>
15.681434

>  <chi1>
15.405417

>  <chi1v>
10.861107

>  <chi1v_C>
6.3758979

>  <chi1_C>
7.9158163

>  <chiral>
2

>  <chiral_u>
0

>  <density>
0.77685863

>  <diameter>
19

>  <FCharge>
0

>  <GCUT_PEOE_0>
-0.85420769

>  <GCUT_PEOE_1>
-0.38783872

>  <GCUT_PEOE_2>
0.0013361634

>  <GCUT_PEOE_3>
2.8249016

>  <GCUT_SLOGP_0>
-1.3343054

>  <GCUT_SLOGP_1>
-0.2834931

>  <GCUT_SLOGP_2>
0.16445385

>  <GCUT_SLOGP_3>
2.8148463

>  <GCUT_SMR_0>
-0.52228552

>  <GCUT_SMR_1>
-0.2078311

>  <GCUT_SMR_2>
0.16902857

>  <GCUT_SMR_3>
3.0651457

>  <Kier1>
26.602076

>  <Kier2>
13.185255

>  <Kier3>
7.7586207

>  <KierA1>
22.268196

>  <KierA2>
10.970617

>  <KierA3>
6.4279661

>  <KierFlex>
7.6342449

>  <lip_acc>
7

>  <lip_don>
3

>  <lip_druglike>
1

>  <lip_violation>
0

>  <logP(o/w)>
3.4449999

>  <logS>
-4.7691698

>  <mr>
12.320443

>  <mutagenic>
1

>  <nmol>
1

>  <opr_brigid>
18

>  <opr_leadlike>
0

>  <opr_nring>
3

>  <opr_nrot>
11

>  <opr_violation>
2

>  <PC+>
0

>  <PC->
0

>  <PEOE_PC+>
2.7488451

>  <PEOE_PC->
-2.7488451

>  <PEOE_RPC+>
0.092717752

>  <PEOE_RPC->
0.13695724

>  <PEOE_VSA+0>
138.9257

>  <PEOE_VSA+1>
114.89368

>  <PEOE_VSA+2>
26.258871

>  <PEOE_VSA+3>
8.6190128

>  <PEOE_VSA+4>
0

>  <PEOE_VSA+5>
12.949531

>  <PEOE_VSA+6>
0

>  <PEOE_VSA-0>
90.932053

>  <PEOE_VSA-1>
29.581947

>  <PEOE_VSA-2>
0

>  <PEOE_VSA-3>
0

>  <PEOE_VSA-4>
11.908636

>  <PEOE_VSA-5>
13.566921

>  <PEOE_VSA-6>
14.299279

>  <PEOE_VSA_FHYD>
0.88586211

>  <PEOE_VSA_FNEG>
0.34699386

>  <PEOE_VSA_FPNEG>
0.086104713

>  <PEOE_VSA_FPOL>
0.11413791

>  <PEOE_VSA_FPOS>
0.65300614

>  <PEOE_VSA_FPPOS>
0.028033193

>  <PEOE_VSA_HYD>
409.21127

>  <PEOE_VSA_NEG>
160.28883

>  <PEOE_VSA_PNEG>
39.774834

>  <PEOE_VSA_POL>
52.724365

>  <PEOE_VSA_POS>
301.64679

>  <PEOE_VSA_PPOS>
12.949531

>  <petitjean>
0.47368422

>  <petitjeanSC>
0.89999998

>  <Q_PC+>
0

>  <Q_PC->
0

>  <Q_RPC+>
0

>  <Q_RPC->
0

>  <Q_VSA_FHYD>
1

>  <Q_VSA_FNEG>
0

>  <Q_VSA_FPNEG>
0

>  <Q_VSA_FPOL>
0

>  <Q_VSA_FPOS>
1

>  <Q_VSA_FPPOS>
0

>  <Q_VSA_HYD>
461.93564

>  <Q_VSA_NEG>
0

>  <Q_VSA_PNEG>
0

>  <Q_VSA_POL>
0

>  <Q_VSA_POS>
461.93564

>  <Q_VSA_PPOS>
0

>  <radius>
10

>  <reactive>
0

>  <rings>
3

>  <RPC+>
0

>  <RPC->
0

>  <rsynth>
0.625

>  <SlogP>
3.3580999

>  <SlogP_VSA0>
72.907715

>  <SlogP_VSA1>
8.3830976

>  <SlogP_VSA2>
30.571524

>  <SlogP_VSA3>
76.244995

>  <SlogP_VSA4>
27.047791

>  <SlogP_VSA5>
70.767738

>  <SlogP_VSA6>
3.5006065

>  <SlogP_VSA7>
105.85911

>  <SlogP_VSA8>
37.736813

>  <SlogP_VSA9>
67.352364

>  <SMR>
12.20366

>  <SMR_VSA0>
34.862103

>  <SMR_VSA1>
40.084202

>  <SMR_VSA2>
27.131769

>  <SMR_VSA3>
27.623655

>  <SMR_VSA4>
2.7567475

>  <SMR_VSA5>
176.4931

>  <SMR_VSA6>
81.503777

>  <SMR_VSA7>
109.91638

>  <TPSA>
86.050003

>  <VAdjEq>
0.35236704

>  <VAdjMa>
6.0874629

>  <VDistEq>
4.0002151

>  <VDistMa>
9.6656494

>  <vdw_area>
461.93564

>  <vdw_vol>
599.7912

>  <vsa_acc>
21.07819

>  <vsa_acid>
0

>  <vsa_base>
0

>  <vsa_don>
23.425066

>  <vsa_hyd>
376.7562

>  <vsa_other>
12.949531

>  <vsa_pol>
44.503254

>  <Weight>
465.953

>  <weinerPath>
3560

>  <weinerPol>
49

>  <zagreb>
160

$$$$