S1[C@H]2N(C(C(O)=O)=C(C1)CSc1nnnn1C)C(=O)[C@H]2NC(=O)[C@H](NC(=O)C1=CNC(=CC1=O)C)c1ccc(O)cc1
  MOE2013           2D

 42 46  0  0  1  0  0  0  0  0999 V2000
    0.0000    0.0000    0.0000 S   0  0  0  0  0  0  0  0  0  0  0  0
    0.7390   -1.3050    0.0000 C   0  0  1  0  0  0  0  0  0  0  0  0
   -0.0220   -2.5980    0.0000 N   0  0  0  0  0  0  0  0  0  0  0  0
   -1.5220   -2.5850    0.0000 C   0  0  0  0  0  0  0  0  0  0  0  0
   -2.2830   -3.8780    0.0000 C   0  0  0  0  0  0  0  0  0  0  0  0
   -3.7830   -3.8650    0.0000 O   0  0  0  0  0  0  0  0  0  0  0  0
   -1.5440   -5.1830    0.0000 O   0  0  0  0  0  0  0  0  0  0  0  0
   -2.2610   -1.2800    0.0000 C   0  0  0  0  0  0  0  0  0  0  0  0
   -1.5000    0.0130    0.0000 C   0  0  0  0  0  0  0  0  0  0  0  0
   -3.7610   -1.2670    0.0000 C   0  0  0  0  0  0  0  0  0  0  0  0
   -4.5000    0.0380    0.0000 S   0  0  0  0  0  0  0  0  0  0  0  0
   -6.0000    0.0510    0.0000 C   0  0  0  0  0  0  0  0  0  0  0  0
   -6.8920   -1.1550    0.0000 N   0  0  0  0  0  0  0  0  0  0  0  0
   -8.3140   -0.6790    0.0000 N   0  0  0  0  0  0  0  0  0  0  0  0
   -8.3020    0.8210    0.0000 N   0  0  0  0  0  0  0  0  0  0  0  0
   -6.8710    1.2720    0.0000 N   0  0  0  0  0  0  0  0  0  0  0  0
   -6.3950    2.6950    0.0000 C   0  0  0  0  0  0  0  0  0  0  0  0
    1.2700   -3.3590    0.0000 C   0  0  0  0  0  0  0  0  0  0  0  0
    1.6460   -4.8110    0.0000 O   0  0  0  0  0  0  0  0  0  0  0  0
    2.0320   -2.0660    0.0000 C   0  0  1  0  0  0  0  0  0  0  0  0
    3.4840   -1.6910    0.0000 N   0  0  0  0  0  0  0  0  0  0  0  0
    4.5350   -2.7600    0.0000 C   0  0  0  0  0  0  0  0  0  0  0  0
    4.1350   -4.2060    0.0000 O   0  0  0  0  0  0  0  0  0  0  0  0
    5.9870   -2.3840    0.0000 C   0  0  2  0  0  0  0  0  0  0  0  0
    7.0390   -3.4540    0.0000 N   0  0  0  0  0  0  0  0  0  0  0  0
    8.4910   -3.0780    0.0000 C   0  0  0  0  0  0  0  0  0  0  0  0
    8.8920   -1.6330    0.0000 O   0  0  0  0  0  0  0  0  0  0  0  0
    9.5430   -4.1480    0.0000 C   0  0  0  0  0  0  0  0  0  0  0  0
    9.1420   -5.5930    0.0000 C   0  0  0  0  0  0  0  0  0  0  0  0
   10.1940   -6.6630    0.0000 N   0  0  0  0  0  0  0  0  0  0  0  0
   11.6460   -6.2870    0.0000 C   0  0  0  0  0  0  0  0  0  0  0  0
   12.0460   -4.8420    0.0000 C   0  0  0  0  0  0  0  0  0  0  0  0
   10.9950   -3.7720    0.0000 C   0  0  0  0  0  0  0  0  0  0  0  0
   11.3950   -2.3260    0.0000 O   0  0  0  0  0  0  0  0  0  0  0  0
   12.6970   -7.3570    0.0000 C   0  0  0  0  0  0  0  0  0  0  0  0
    6.3880   -0.9390    0.0000 C   0  0  0  0  0  0  0  0  0  0  0  0
    5.3360    0.1310    0.0000 C   0  0  0  0  0  0  0  0  0  0  0  0
    5.7370    1.5760    0.0000 C   0  0  0  0  0  0  0  0  0  0  0  0
    7.1890    1.9520    0.0000 C   0  0  0  0  0  0  0  0  0  0  0  0
    7.5900    3.3980    0.0000 O   0  0  0  0  0  0  0  0  0  0  0  0
    8.2410    0.8830    0.0000 C   0  0  0  0  0  0  0  0  0  0  0  0
    7.8400   -0.5630    0.0000 C   0  0  0  0  0  0  0  0  0  0  0  0
  1  9  1  0  0  0  0
  2  1  1  6  0  0  0
  2  3  1  0  0  0  0
  2 20  1  0  0  0  0
  3  4  1  0  0  0  0
  3 18  1  0  0  0  0
  4  5  1  0  0  0  0
  4  8  2  0  0  0  0
  5  6  1  0  0  0  0
  5  7  2  0  0  0  0
  8  9  1  0  0  0  0
  8 10  1  0  0  0  0
 10 11  1  0  0  0  0
 11 12  1  0  0  0  0
 12 13  2  0  0  0  0
 12 16  1  0  0  0  0
 13 14  1  0  0  0  0
 14 15  2  0  0  0  0
 15 16  1  0  0  0  0
 16 17  1  0  0  0  0
 18 19  2  0  0  0  0
 18 20  1  0  0  0  0
 20 21  1  6  0  0  0
 21 22  1  0  0  0  0
 22 23  2  0  0  0  0
 24 22  1  1  0  0  0
 24 25  1  0  0  0  0
 24 36  1  0  0  0  0
 25 26  1  0  0  0  0
 26 27  2  0  0  0  0
 26 28  1  0  0  0  0
 28 29  2  0  0  0  0
 28 33  1  0  0  0  0
 29 30  1  0  0  0  0
 30 31  1  0  0  0  0
 31 32  2  0  0  0  0
 31 35  1  0  0  0  0
 32 33  1  0  0  0  0
 33 34  2  0  0  0  0
 36 37  1  0  0  0  0
 36 42  2  0  0  0  0
 37 38  2  0  0  0  0
 38 39  1  0  0  0  0
 39 40  1  0  0  0  0
 39 41  2  0  0  0  0
 41 42  1  0  0  0  0
M  END
>  <Index>
206

>  <ID>
HT0416

>  <class>
0

>  <apol>
80.217033

>  <ast_fraglike>
0

>  <ast_fraglike_ext>
0

>  <ast_violation>
3

>  <ast_violation_ext>
5

>  <a_acc>
10

>  <a_acid>
0

>  <a_aro>
11

>  <a_base>
0

>  <a_count>
66

>  <a_don>
6

>  <a_donacc>
16

>  <a_heavy>
42

>  <a_hyd>
21

>  <a_IC>
127.14302

>  <a_ICM>
1.9264095

>  <a_nB>
0

>  <a_nBr>
0

>  <a_nC>
25

>  <a_nCl>
0

>  <a_nF>
0

>  <a_nH>
24

>  <a_nI>
0

>  <a_nN>
8

>  <a_nO>
7

>  <a_nP>
0

>  <a_nS>
2

>  <balabanJ>
1.2213203

>  <BCUT_PEOE_0>
-2.6900275

>  <BCUT_PEOE_1>
-0.5992704

>  <BCUT_PEOE_2>
0.62458169

>  <BCUT_PEOE_3>
2.7380538

>  <BCUT_SLOGP_0>
-2.8974006

>  <BCUT_SLOGP_1>
-0.54334456

>  <BCUT_SLOGP_2>
0.57737195

>  <BCUT_SLOGP_3>
2.6242857

>  <BCUT_SMR_0>
-2.4041789

>  <BCUT_SMR_1>
-0.42148346

>  <BCUT_SMR_2>
0.7632876

>  <BCUT_SMR_3>
3.0220034

>  <bpol>
41.526966

>  <b_1rotN>
9

>  <b_1rotR>
0.19565217

>  <b_ar>
11

>  <b_count>
70

>  <b_double>
8

>  <b_heavy>
46

>  <b_max1len>
3

>  <b_rotN>
11

>  <b_rotR>
0.23913044

>  <b_single>
51

>  <b_triple>
0

>  <chi0>
30.128664

>  <chi0v>
23.731592

>  <chi0v_C>
14.610366

>  <chi0_C>
16.317108

>  <chi1>
20.044622

>  <chi1v>
14.429088

>  <chi1v_C>
6.0938582

>  <chi1_C>
7.9182515

>  <chiral>
3

>  <chiral_u>
0

>  <density>
0.87032807

>  <diameter>
19

>  <FCharge>
0

>  <GCUT_PEOE_0>
-0.82477182

>  <GCUT_PEOE_1>
-0.47089443

>  <GCUT_PEOE_2>
0.091421843

>  <GCUT_PEOE_3>
2.774683

>  <GCUT_SLOGP_0>
-1.1656066

>  <GCUT_SLOGP_1>
-0.40446579

>  <GCUT_SLOGP_2>
0.1252346

>  <GCUT_SLOGP_3>
2.7475896

>  <GCUT_SMR_0>
-0.52901733

>  <GCUT_SMR_1>
-0.23609522

>  <GCUT_SMR_2>
0.20473006

>  <GCUT_SMR_3>
3.0548089

>  <Kier1>
33.365784

>  <Kier2>
14.6135

>  <Kier3>
7.5353217

>  <KierA1>
25.830582

>  <KierA2>
11.238436

>  <KierA3>
5.7682996

>  <KierFlex>
6.9117937

>  <lip_acc>
15

>  <lip_don>
5

>  <lip_druglike>
0

>  <lip_violation>
2

>  <logP(o/w)>
-0.86299998

>  <logS>
-5.5253901

>  <mr>
15.162297

>  <mutagenic>
0

>  <nmol>
1

>  <opr_brigid>
26

>  <opr_leadlike>
0

>  <opr_nring>
5

>  <opr_nrot>
9

>  <opr_violation>
3

>  <PC+>
0

>  <PC->
0

>  <PEOE_PC+>
4.1145668

>  <PEOE_PC->
-4.1145668

>  <PEOE_RPC+>
0.074841015

>  <PEOE_RPC->
0.087453276

>  <PEOE_VSA+0>
87.247299

>  <PEOE_VSA+1>
49.055534

>  <PEOE_VSA+2>
26.732508

>  <PEOE_VSA+3>
25.696545

>  <PEOE_VSA+4>
46.7645

>  <PEOE_VSA+5>
25.899061

>  <PEOE_VSA+6>
14.708499

>  <PEOE_VSA-0>
109.69394

>  <PEOE_VSA-1>
44.270424

>  <PEOE_VSA-2>
29.181658

>  <PEOE_VSA-3>
0

>  <PEOE_VSA-4>
0

>  <PEOE_VSA-5>
67.971497

>  <PEOE_VSA-6>
15.808863

>  <PEOE_VSA_FHYD>
0.68481976

>  <PEOE_VSA_FNEG>
0.49154967

>  <PEOE_VSA_FPNEG>
0.15428302

>  <PEOE_VSA_FPOL>
0.31518021

>  <PEOE_VSA_FPOS>
0.50845033

>  <PEOE_VSA_FPPOS>
0.16089721

>  <PEOE_VSA_HYD>
371.8779

>  <PEOE_VSA_NEG>
266.92639

>  <PEOE_VSA_PNEG>
83.780357

>  <PEOE_VSA_POL>
171.15242

>  <PEOE_VSA_POS>
276.10394

>  <PEOE_VSA_PPOS>
87.372063

>  <petitjean>
0.47368422

>  <petitjeanSC>
0.89999998

>  <Q_PC+>
0

>  <Q_PC->
0

>  <Q_RPC+>
0

>  <Q_RPC->
0

>  <Q_VSA_FHYD>
1

>  <Q_VSA_FNEG>
0

>  <Q_VSA_FPNEG>
0

>  <Q_VSA_FPOL>
0

>  <Q_VSA_FPOS>
1

>  <Q_VSA_FPPOS>
0

>  <Q_VSA_HYD>
543.03033

>  <Q_VSA_NEG>
0

>  <Q_VSA_PNEG>
0

>  <Q_VSA_POL>
0

>  <Q_VSA_POS>
543.03033

>  <Q_VSA_PPOS>
0

>  <radius>
10

>  <reactive>
0

>  <rings>
5

>  <RPC+>
0

>  <RPC->
0

>  <rsynth>
0.64285713

>  <SlogP>
0.0186

>  <SlogP_VSA0>
79.41748

>  <SlogP_VSA1>
83.854286

>  <SlogP_VSA2>
125.64017

>  <SlogP_VSA3>
59.852356

>  <SlogP_VSA4>
3.185575

>  <SlogP_VSA5>
12.577724

>  <SlogP_VSA6>
0

>  <SlogP_VSA7>
105.43027

>  <SlogP_VSA8>
3.9819686

>  <SlogP_VSA9>
135.90572

>  <SMR>
14.85737

>  <SMR_VSA0>
119.31108

>  <SMR_VSA1>
80.03009

>  <SMR_VSA2>
80.110558

>  <SMR_VSA3>
30.624714

>  <SMR_VSA4>
0

>  <SMR_VSA5>
105.43027

>  <SMR_VSA6>
63.676556

>  <SMR_VSA7>
130.66228

>  <TPSA>
208.74001

>  <VAdjEq>
0.29547828

>  <VAdjMa>
6.523562

>  <VDistEq>
4.0163207

>  <VDistMa>
10.504038

>  <vdw_area>
543.03033

>  <vdw_vol>
703.92761

>  <vsa_acc>
90.007729

>  <vsa_acid>
0

>  <vsa_base>
0

>  <vsa_don>
17.047728

>  <vsa_hyd>
288.29819

>  <vsa_other>
75.182236

>  <vsa_pol>
147.75623

>  <Weight>
612.64801

>  <weinerPath>
6507

>  <weinerPol>
69

>  <zagreb>
226

$$$$