O(C)C1C(C2C(CC1OC(=O)c1cc(OC)c(OC)c(OC)c1)CN1C(C2)c2[nH]c3c(c2CC1)cccc3)C(OC)=O
  MOE2013           2D

 42 47  0  0  1  0  0  0  0  0999 V2000
    0.0000    0.0000    0.0000 O   0  0  0  0  0  0  0  0  0  0  0  0
   -1.5000    0.0100    0.0000 C   0  0  0  0  0  0  0  0  0  0  0  0
    0.7420   -1.3040    0.0000 C   0  0  3  0  0  0  0  0  0  0  0  0
    2.2420   -1.3140    0.0000 C   0  0  3  0  0  0  0  0  0  0  0  0
    2.9830   -2.6170    0.0000 C   0  0  3  0  0  0  0  0  0  0  0  0
    2.2250   -3.9120    0.0000 C   0  0  3  0  0  0  0  0  0  0  0  0
    0.7250   -3.9020    0.0000 C   0  0  0  0  0  0  0  0  0  0  0  0
   -0.0170   -2.5980    0.0000 C   0  0  3  0  0  0  0  0  0  0  0  0
   -1.5170   -2.5880    0.0000 O   0  0  0  0  0  0  0  0  0  0  0  0
   -2.2750   -3.8830    0.0000 C   0  0  0  0  0  0  0  0  0  0  0  0
   -1.5340   -5.1860    0.0000 O   0  0  0  0  0  0  0  0  0  0  0  0
   -3.7750   -3.8730    0.0000 C   0  0  0  0  0  0  0  0  0  0  0  0
   -4.5170   -2.5690    0.0000 C   0  0  0  0  0  0  0  0  0  0  0  0
   -6.0170   -2.5590    0.0000 C   0  0  0  0  0  0  0  0  0  0  0  0
   -6.7580   -1.2550    0.0000 O   0  0  0  0  0  0  0  0  0  0  0  0
   -6.0000    0.0390    0.0000 C   0  0  0  0  0  0  0  0  0  0  0  0
   -6.7750   -3.8530    0.0000 C   0  0  0  0  0  0  0  0  0  0  0  0
   -8.2750   -3.8440    0.0000 O   0  0  0  0  0  0  0  0  0  0  0  0
   -9.0330   -5.1380    0.0000 C   0  0  0  0  0  0  0  0  0  0  0  0
   -6.0330   -5.1570    0.0000 C   0  0  0  0  0  0  0  0  0  0  0  0
   -6.7920   -6.4510    0.0000 O   0  0  0  0  0  0  0  0  0  0  0  0
   -6.0500   -7.7550    0.0000 C   0  0  0  0  0  0  0  0  0  0  0  0
   -4.5330   -5.1670    0.0000 C   0  0  0  0  0  0  0  0  0  0  0  0
    2.9660   -5.2150    0.0000 C   0  0  0  0  0  0  0  0  0  0  0  0
    4.4660   -5.2250    0.0000 N   0  0  3  0  0  0  0  0  0  0  0  0
    5.2250   -3.9310    0.0000 C   0  0  3  0  0  0  0  0  0  0  0  0
    4.4830   -2.6270    0.0000 C   0  0  0  0  0  0  0  0  0  0  0  0
    6.7250   -3.9410    0.0000 C   0  0  0  0  0  0  0  0  0  0  0  0
    7.7360   -2.8320    0.0000 N   0  0  0  0  0  0  0  0  0  0  0  0
    9.1020   -3.4510    0.0000 C   0  0  0  0  0  0  0  0  0  0  0  0
    8.9350   -4.9420    0.0000 C   0  0  0  0  0  0  0  0  0  0  0  0
    7.4660   -5.2440    0.0000 C   0  0  0  0  0  0  0  0  0  0  0  0
    6.7080   -6.5390    0.0000 C   0  0  0  0  0  0  0  0  0  0  0  0
    5.2080   -6.5290    0.0000 C   0  0  0  0  0  0  0  0  0  0  0  0
   10.1430   -5.8320    0.0000 C   0  0  0  0  0  0  0  0  0  0  0  0
   11.5180   -5.2300    0.0000 C   0  0  0  0  0  0  0  0  0  0  0  0
   11.6840   -3.7400    0.0000 C   0  0  0  0  0  0  0  0  0  0  0  0
   10.4760   -2.8500    0.0000 C   0  0  0  0  0  0  0  0  0  0  0  0
    3.0000   -0.0190    0.0000 C   0  0  0  0  0  0  0  0  0  0  0  0
    2.2580    1.2840    0.0000 O   0  0  0  0  0  0  0  0  0  0  0  0
    3.0170    2.5790    0.0000 C   0  0  0  0  0  0  0  0  0  0  0  0
    4.5000   -0.0290    0.0000 O   0  0  0  0  0  0  0  0  0  0  0  0
  1  2  1  0  0  0  0
  1  3  1  0  0  0  0
  3  4  1  0  0  0  0
  3  8  1  0  0  0  0
  4  5  1  0  0  0  0
  4 39  1  0  0  0  0
  5  6  1  0  0  0  0
  5 27  1  0  0  0  0
  6  7  1  0  0  0  0
  6 24  1  0  0  0  0
  7  8  1  0  0  0  0
  8  9  1  0  0  0  0
  9 10  1  0  0  0  0
 10 11  2  0  0  0  0
 10 12  1  0  0  0  0
 12 13  1  0  0  0  0
 12 23  2  0  0  0  0
 13 14  2  0  0  0  0
 14 15  1  0  0  0  0
 14 17  1  0  0  0  0
 15 16  1  0  0  0  0
 17 18  1  0  0  0  0
 17 20  2  0  0  0  0
 18 19  1  0  0  0  0
 20 21  1  0  0  0  0
 20 23  1  0  0  0  0
 21 22  1  0  0  0  0
 24 25  1  0  0  0  0
 25 26  1  0  0  0  0
 25 34  1  0  0  0  0
 26 27  1  0  0  0  0
 26 28  1  0  0  0  0
 28 29  1  0  0  0  0
 28 32  2  0  0  0  0
 29 30  1  0  0  0  0
 30 31  1  0  0  0  0
 30 38  2  0  0  0  0
 31 32  1  0  0  0  0
 31 35  2  0  0  0  0
 32 33  1  0  0  0  0
 33 34  1  0  0  0  0
 35 36  1  0  0  0  0
 36 37  2  0  0  0  0
 37 38  1  0  0  0  0
 39 40  1  0  0  0  0
 39 42  2  0  0  0  0
 40 41  1  0  0  0  0
M  END
>  <Index>
294

>  <ID>
HT0609

>  <class>
0

>  <apol>
90.274132

>  <ast_fraglike>
0

>  <ast_fraglike_ext>
0

>  <ast_violation>
3

>  <ast_violation_ext>
4

>  <a_acc>
7

>  <a_acid>
0

>  <a_aro>
15

>  <a_base>
0

>  <a_count>
80

>  <a_don>
1

>  <a_donacc>
8

>  <a_heavy>
42

>  <a_hyd>
30

>  <a_IC>
120.333

>  <a_ICM>
1.5041625

>  <a_nB>
0

>  <a_nBr>
0

>  <a_nC>
32

>  <a_nCl>
0

>  <a_nF>
0

>  <a_nH>
38

>  <a_nI>
0

>  <a_nN>
2

>  <a_nO>
8

>  <a_nP>
0

>  <a_nS>
0

>  <balabanJ>
1.1854308

>  <BCUT_PEOE_0>
-2.8980975

>  <BCUT_PEOE_1>
-0.56204683

>  <BCUT_PEOE_2>
0.52542943

>  <BCUT_PEOE_3>
2.8961751

>  <BCUT_SLOGP_0>
-2.9231892

>  <BCUT_SLOGP_1>
-0.45706281

>  <BCUT_SLOGP_2>
0.61442

>  <BCUT_SLOGP_3>
2.8919868

>  <BCUT_SMR_0>
-2.6560757

>  <BCUT_SMR_1>
-0.35652441

>  <BCUT_SMR_2>
0.67258215

>  <BCUT_SMR_3>
3.1297324

>  <bpol>
57.593864

>  <b_1rotN>
7

>  <b_1rotR>
0.14893617

>  <b_ar>
16

>  <b_count>
85

>  <b_double>
2

>  <b_heavy>
47

>  <b_max1len>
4

>  <b_rotN>
9

>  <b_rotR>
0.19148937

>  <b_single>
67

>  <b_triple>
0

>  <chi0>
29.542877

>  <chi0v>
24.676937

>  <chi0v_C>
20.463737

>  <chi0_C>
22.015779

>  <chi1>
20.413279

>  <chi1v>
14.369699

>  <chi1v_C>
9.037529

>  <chi1_C>
10.898979

>  <chiral>
6

>  <chiral_u>
6

>  <density>
0.75008941

>  <diameter>
18

>  <FCharge>
0

>  <GCUT_PEOE_0>
-0.85674506

>  <GCUT_PEOE_1>
-0.41640151

>  <GCUT_PEOE_2>
-0.0065767202

>  <GCUT_PEOE_3>
3.2449856

>  <GCUT_SLOGP_0>
-0.93144929

>  <GCUT_SLOGP_1>
-0.30481762

>  <GCUT_SLOGP_2>
0.10585184

>  <GCUT_SLOGP_3>
3.2747152

>  <GCUT_SMR_0>
-0.5276618

>  <GCUT_SMR_1>
-0.20039441

>  <GCUT_SMR_2>
0.13015102

>  <GCUT_SMR_3>
3.4818497

>  <Kier1>
31.961069

>  <Kier2>
13.778618

>  <Kier3>
5.9976931

>  <KierA1>
26.320814

>  <KierA2>
11.290717

>  <KierA3>
4.8977404

>  <KierFlex>
7.0757356

>  <lip_acc>
10

>  <lip_don>
1

>  <lip_druglike>
1

>  <lip_violation>
1

>  <logP(o/w)>
3.68822

>  <logS>
-5.3713999

>  <mr>
15.602212

>  <mutagenic>
0

>  <nmol>
1

>  <opr_brigid>
31

>  <opr_leadlike>
0

>  <opr_nring>
6

>  <opr_nrot>
8

>  <opr_violation>
3

>  <PC+>
0

>  <PC->
0

>  <PEOE_PC+>
3.5694056

>  <PEOE_PC->
-3.5694056

>  <PEOE_RPC+>
0.082452744

>  <PEOE_RPC->
0.10545296

>  <PEOE_VSA+0>
222.4306

>  <PEOE_VSA+1>
117.53362

>  <PEOE_VSA+2>
25.375559

>  <PEOE_VSA+3>
8.6190128

>  <PEOE_VSA+4>
0

>  <PEOE_VSA+5>
29.416998

>  <PEOE_VSA+6>
0

>  <PEOE_VSA-0>
65.077194

>  <PEOE_VSA-1>
36.764713

>  <PEOE_VSA-2>
0

>  <PEOE_VSA-3>
0

>  <PEOE_VSA-4>
0

>  <PEOE_VSA-5>
27.133842

>  <PEOE_VSA-6>
15.159428

>  <PEOE_VSA_FHYD>
0.86902499

>  <PEOE_VSA_FNEG>
0.26325533

>  <PEOE_VSA_FPNEG>
0.077246435

>  <PEOE_VSA_FPOL>
0.13097504

>  <PEOE_VSA_FPOS>
0.7367447

>  <PEOE_VSA_FPPOS>
0.053728603

>  <PEOE_VSA_HYD>
475.80069

>  <PEOE_VSA_NEG>
144.13518

>  <PEOE_VSA_PNEG>
42.29327

>  <PEOE_VSA_POL>
71.710266

>  <PEOE_VSA_POS>
403.37579

>  <PEOE_VSA_PPOS>
29.416998

>  <petitjean>
0.5

>  <petitjeanSC>
1

>  <Q_PC+>
0

>  <Q_PC->
0

>  <Q_RPC+>
0

>  <Q_RPC->
0

>  <Q_VSA_FHYD>
1

>  <Q_VSA_FNEG>
0

>  <Q_VSA_FPNEG>
0

>  <Q_VSA_FPOL>
0

>  <Q_VSA_FPOS>
1

>  <Q_VSA_FPPOS>
0

>  <Q_VSA_HYD>
547.51099

>  <Q_VSA_NEG>
0

>  <Q_VSA_PNEG>
0

>  <Q_VSA_POL>
0

>  <Q_VSA_POS>
547.51099

>  <Q_VSA_PPOS>
0

>  <radius>
9

>  <reactive>
0

>  <rings>
6

>  <RPC+>
0

>  <RPC->
0

>  <rsynth>
0.61904764

>  <SlogP>
4.2579699

>  <SlogP_VSA0>
32.999664

>  <SlogP_VSA1>
18.615242

>  <SlogP_VSA2>
86.584709

>  <SlogP_VSA3>
36.879158

>  <SlogP_VSA4>
46.222504

>  <SlogP_VSA5>
195.78775

>  <SlogP_VSA6>
0

>  <SlogP_VSA7>
110.57621

>  <SlogP_VSA8>
41.718781

>  <SlogP_VSA9>
15.730285

>  <SMR>
15.42462

>  <SMR_VSA0>
80.724098

>  <SMR_VSA1>
36.123978

>  <SMR_VSA2>
30.017918

>  <SMR_VSA3>
41.777451

>  <SMR_VSA4>
4.7171016

>  <SMR_VSA5>
162.46432

>  <SMR_VSA6>
52.370083

>  <SMR_VSA7>
176.91934

>  <TPSA>
108.55

>  <VAdjEq>
0.3002032

>  <VAdjMa>
6.5545888

>  <VDistEq>
3.9001725

>  <VDistMa>
10.506742

>  <vdw_area>
547.51099

>  <vdw_vol>
771.45734

>  <vsa_acc>
37.148865

>  <vsa_acid>
0

>  <vsa_base>
0

>  <vsa_don>
5.6825762

>  <vsa_hyd>
436.81009

>  <vsa_other>
34.424511

>  <vsa_pol>
42.831444

>  <Weight>
578.66199

>  <weinerPath>
5996

>  <weinerPol>
82

>  <zagreb>
232

$$$$