Clc1ccc(N2c3cc(N=C(C)/C)c(Nc4ccc(Cl)cc4)cc3Nc3c2cccc3)cc1
  MOE2013           2D

 33 37  0  0  1  0  0  0  0  0999 V2000
    0.0000    0.0000    0.0000 Cl  0  0  0  0  0  0  0  0  0  0  0  0
    1.3020   -0.7450    0.0000 C   0  0  0  0  0  0  0  0  0  0  0  0
    2.5980    0.0100    0.0000 C   0  0  0  0  0  0  0  0  0  0  0  0
    3.9000   -0.7350    0.0000 C   0  0  0  0  0  0  0  0  0  0  0  0
    3.9060   -2.2350    0.0000 C   0  0  0  0  0  0  0  0  0  0  0  0
    5.2080   -2.9800    0.0000 N   0  0  3  0  0  0  0  0  0  0  0  0
    6.5040   -2.2250    0.0000 C   0  0  0  0  0  0  0  0  0  0  0  0
    6.4980   -0.7250    0.0000 C   0  0  0  0  0  0  0  0  0  0  0  0
    7.7940    0.0300    0.0000 C   0  0  0  0  0  0  0  0  0  0  0  0
    7.7880    1.5300    0.0000 N   0  0  0  0  0  0  0  0  0  0  0  0
    6.4870    2.2750    0.0000 C   0  0  0  0  0  0  0  0  0  0  0  0
    5.1900    1.5200    0.0000 C   0  0  0  0  0  0  0  0  0  0  0  0
    6.4810    3.7750    0.0000 C   0  0  0  0  0  0  0  0  0  0  0  0
    9.0960   -0.7150    0.0000 C   0  0  0  0  0  0  0  0  0  0  0  0
   10.3920    0.0400    0.0000 N   0  0  0  0  0  0  0  0  0  0  0  0
   11.6940   -0.7050    0.0000 C   0  0  0  0  0  0  0  0  0  0  0  0
   11.7000   -2.2050    0.0000 C   0  0  0  0  0  0  0  0  0  0  0  0
   13.0020   -2.9500    0.0000 C   0  0  0  0  0  0  0  0  0  0  0  0
   14.2980   -2.1950    0.0000 C   0  0  0  0  0  0  0  0  0  0  0  0
   15.6000   -2.9410    0.0000 Cl  0  0  0  0  0  0  0  0  0  0  0  0
   14.2920   -0.6950    0.0000 C   0  0  0  0  0  0  0  0  0  0  0  0
   12.9900    0.0500    0.0000 C   0  0  0  0  0  0  0  0  0  0  0  0
    9.1020   -2.2150    0.0000 C   0  0  0  0  0  0  0  0  0  0  0  0
    7.8060   -2.9700    0.0000 C   0  0  0  0  0  0  0  0  0  0  0  0
    7.8110   -4.4700    0.0000 N   0  0  0  0  0  0  0  0  0  0  0  0
    6.5150   -5.2250    0.0000 C   0  0  0  0  0  0  0  0  0  0  0  0
    5.2130   -4.4800    0.0000 C   0  0  0  0  0  0  0  0  0  0  0  0
    3.9170   -5.2350    0.0000 C   0  0  0  0  0  0  0  0  0  0  0  0
    3.9230   -6.7350    0.0000 C   0  0  0  0  0  0  0  0  0  0  0  0
    5.2250   -7.4800    0.0000 C   0  0  0  0  0  0  0  0  0  0  0  0
    6.5210   -6.7250    0.0000 C   0  0  0  0  0  0  0  0  0  0  0  0
    2.6100   -2.9900    0.0000 C   0  0  0  0  0  0  0  0  0  0  0  0
    1.3080   -2.2450    0.0000 C   0  0  0  0  0  0  0  0  0  0  0  0
  1  2  1  0  0  0  0
  2  3  1  0  0  0  0
  2 33  2  0  0  0  0
  3  4  2  0  0  0  0
  4  5  1  0  0  0  0
  5  6  1  0  0  0  0
  5 32  2  0  0  0  0
  6  7  1  0  0  0  0
  6 27  1  0  0  0  0
  7  8  1  0  0  0  0
  7 24  2  0  0  0  0
  8  9  2  0  0  0  0
  9 10  1  0  0  0  0
  9 14  1  0  0  0  0
 10 11  2  3  0  0  0
 11 12  1  0  0  0  0
 11 13  1  0  0  0  0
 14 15  1  0  0  0  0
 14 23  2  0  0  0  0
 15 16  1  0  0  0  0
 16 17  1  0  0  0  0
 16 22  2  0  0  0  0
 17 18  2  0  0  0  0
 18 19  1  0  0  0  0
 19 20  1  0  0  0  0
 19 21  2  0  0  0  0
 21 22  1  0  0  0  0
 23 24  1  0  0  0  0
 24 25  1  0  0  0  0
 25 26  1  0  0  0  0
 26 27  1  0  0  0  0
 26 31  2  0  0  0  0
 27 28  2  0  0  0  0
 28 29  1  0  0  0  0
 29 30  2  0  0  0  0
 30 31  1  0  0  0  0
 32 33  1  0  0  0  0
M  END
>  <Index>
249

>  <ID>
HT0522

>  <class>
0

>  <apol>
70.949448

>  <ast_fraglike>
0

>  <ast_fraglike_ext>
0

>  <ast_violation>
2

>  <ast_violation_ext>
3

>  <a_acc>
1

>  <a_acid>
0

>  <a_aro>
24

>  <a_base>
0

>  <a_count>
55

>  <a_don>
2

>  <a_donacc>
3

>  <a_heavy>
33

>  <a_hyd>
28

>  <a_IC>
81.485329

>  <a_ICM>
1.4815514

>  <a_nB>
0

>  <a_nBr>
0

>  <a_nC>
27

>  <a_nCl>
2

>  <a_nF>
0

>  <a_nH>
22

>  <a_nI>
0

>  <a_nN>
4

>  <a_nO>
0

>  <a_nP>
0

>  <a_nS>
0

>  <balabanJ>
1.3451988

>  <BCUT_PEOE_0>
-2.4428136

>  <BCUT_PEOE_1>
-0.64235842

>  <BCUT_PEOE_2>
0.70349526

>  <BCUT_PEOE_3>
2.3712087

>  <BCUT_SLOGP_0>
-2.3011613

>  <BCUT_SLOGP_1>
-0.53807992

>  <BCUT_SLOGP_2>
0.81890851

>  <BCUT_SLOGP_3>
2.5981042

>  <BCUT_SMR_0>
-2.0674667

>  <BCUT_SMR_1>
-0.49986199

>  <BCUT_SMR_2>
0.86068517

>  <BCUT_SMR_3>
2.7496021

>  <bpol>
29.510553

>  <b_1rotN>
4

>  <b_1rotR>
0.10810811

>  <b_ar>
24

>  <b_count>
59

>  <b_double>
1

>  <b_heavy>
37

>  <b_max1len>
4

>  <b_rotN>
4

>  <b_rotR>
0.10810811

>  <b_single>
34

>  <b_triple>
0

>  <chi0>
22.949018

>  <chi0v>
19.745117

>  <chi0v_C>
15.582904

>  <chi0_C>
18.250347

>  <chi1>
15.974367

>  <chi1v>
11.376713

>  <chi1v_C>
8.1247854

>  <chi1_C>
11.370176

>  <chiral>
0

>  <chiral_u>
0

>  <density>
0.75742221

>  <diameter>
15

>  <FCharge>
0

>  <GCUT_PEOE_0>
-0.79939371

>  <GCUT_PEOE_1>
-0.38119131

>  <GCUT_PEOE_2>
0.07063935

>  <GCUT_PEOE_3>
2.7435453

>  <GCUT_SLOGP_0>
-0.9046914

>  <GCUT_SLOGP_1>
-0.26386139

>  <GCUT_SLOGP_2>
0.1877955

>  <GCUT_SLOGP_3>
2.9615598

>  <GCUT_SMR_0>
-0.46701944

>  <GCUT_SMR_1>
-0.21605732

>  <GCUT_SMR_2>
0.28165323

>  <GCUT_SMR_3>
3.0830441

>  <Kier1>
24.68371

>  <Kier2>
10.947668

>  <Kier3>
5.7131519

>  <KierA1>
18.395153

>  <KierA2>
8.0783615

>  <KierA3>
4.1855145

>  <KierFlex>
4.5031118

>  <lip_acc>
4

>  <lip_don>
2

>  <lip_druglike>
1

>  <lip_violation>
1

>  <logP(o/w)>
7.2189999

>  <logS>
-8.4940901

>  <mr>
13.479117

>  <mutagenic>
0

>  <nmol>
1

>  <opr_brigid>
29

>  <opr_leadlike>
0

>  <opr_nring>
5

>  <opr_nrot>
4

>  <opr_violation>
3

>  <PC+>
0

>  <PC->
0

>  <PEOE_PC+>
1.7743595

>  <PEOE_PC->
-1.7743595

>  <PEOE_RPC+>
0.075335473

>  <PEOE_RPC->
0.14471956

>  <PEOE_VSA+0>
88.228218

>  <PEOE_VSA+1>
66.414955

>  <PEOE_VSA+2>
17.238026

>  <PEOE_VSA+3>
0

>  <PEOE_VSA+4>
0

>  <PEOE_VSA+5>
0

>  <PEOE_VSA+6>
0

>  <PEOE_VSA-0>
184.5542

>  <PEOE_VSA-1>
83.673698

>  <PEOE_VSA-2>
0

>  <PEOE_VSA-3>
0

>  <PEOE_VSA-4>
0

>  <PEOE_VSA-5>
5.956358

>  <PEOE_VSA-6>
0

>  <PEOE_VSA_FHYD>
0.98664689

>  <PEOE_VSA_FNEG>
0.61467272

>  <PEOE_VSA_FPNEG>
0.013353103

>  <PEOE_VSA_FPOL>
0.013353103

>  <PEOE_VSA_FPOS>
0.38532731

>  <PEOE_VSA_FPPOS>
0

>  <PEOE_VSA_HYD>
440.1091

>  <PEOE_VSA_NEG>
274.18427

>  <PEOE_VSA_PNEG>
5.956358

>  <PEOE_VSA_POL>
5.956358

>  <PEOE_VSA_POS>
171.8812

>  <PEOE_VSA_PPOS>
0

>  <petitjean>
0.46666667

>  <petitjeanSC>
0.875

>  <Q_PC+>
0

>  <Q_PC->
0

>  <Q_RPC+>
0

>  <Q_RPC->
0

>  <Q_VSA_FHYD>
1

>  <Q_VSA_FNEG>
0

>  <Q_VSA_FPNEG>
0

>  <Q_VSA_FPOL>
0

>  <Q_VSA_FPOS>
1

>  <Q_VSA_FPPOS>
0

>  <Q_VSA_HYD>
446.06546

>  <Q_VSA_NEG>
0

>  <Q_VSA_PNEG>
0

>  <Q_VSA_POL>
0

>  <Q_VSA_POS>
446.06546

>  <Q_VSA_PPOS>
0

>  <radius>
8

>  <reactive>
1

>  <rings>
5

>  <RPC+>
0

>  <RPC->
0

>  <rsynth>
1

>  <SlogP>
9.3760996

>  <SlogP_VSA0>
3.1243138

>  <SlogP_VSA1>
38.778248

>  <SlogP_VSA2>
0

>  <SlogP_VSA3>
0

>  <SlogP_VSA4>
0

>  <SlogP_VSA5>
16.78553

>  <SlogP_VSA6>
7.0012131

>  <SlogP_VSA7>
247.00458

>  <SlogP_VSA8>
0

>  <SlogP_VSA9>
167.0033

>  <SMR>
14.25954

>  <SMR_VSA0>
0

>  <SMR_VSA1>
16.78553

>  <SMR_VSA2>
3.1243138

>  <SMR_VSA3>
7.0012131

>  <SMR_VSA4>
58.075481

>  <SMR_VSA5>
247.00458

>  <SMR_VSA6>
2.7567475

>  <SMR_VSA7>
144.94931

>  <TPSA>
39.66

>  <VAdjEq>
0.35823497

>  <VAdjMa>
6.2094536

>  <VDistEq>
3.5537322

>  <VDistMa>
9.8303518

>  <vdw_area>
446.06546

>  <vdw_vol>
625.02393

>  <vsa_acc>
5.6825762

>  <vsa_acid>
0

>  <vsa_base>
0

>  <vsa_don>
11.365152

>  <vsa_hyd>
401.93561

>  <vsa_other>
6.6995511

>  <vsa_pol>
17.047728

>  <Weight>
473.40698

>  <weinerPath>
3032

>  <weinerPol>
56

>  <zagreb>
180

$$$$