O=C1N(C)C(=O)CC1c1ccccc1
  MOE2013           2D

 14 15  0  0  1  0  0  0  0  0999 V2000
    0.0000    0.0000    0.0000 O   0  0  0  0  0  0  0  0  0  0  0  0
    0.4270   -1.4380    0.0000 C   0  0  0  0  0  0  0  0  0  0  0  0
    1.8410   -1.9380    0.0000 N   0  0  0  0  0  0  0  0  0  0  0  0
    3.0770   -1.0870    0.0000 C   0  0  0  0  0  0  0  0  0  0  0  0
    1.8030   -3.4370    0.0000 C   0  0  0  0  0  0  0  0  0  0  0  0
    2.9940   -4.3490    0.0000 O   0  0  0  0  0  0  0  0  0  0  0  0
    0.3650   -3.8640    0.0000 C   0  0  0  0  0  0  0  0  0  0  0  0
   -0.4850   -2.6290    0.0000 C   0  0  3  0  0  0  0  0  0  0  0  0
   -1.9850   -2.5900    0.0000 C   0  0  0  0  0  0  0  0  0  0  0  0
   -2.7680   -3.8700    0.0000 C   0  0  0  0  0  0  0  0  0  0  0  0
   -4.2670   -3.8320    0.0000 C   0  0  0  0  0  0  0  0  0  0  0  0
   -4.9840   -2.5140    0.0000 C   0  0  0  0  0  0  0  0  0  0  0  0
   -4.2010   -1.2350    0.0000 C   0  0  0  0  0  0  0  0  0  0  0  0
   -2.7010   -1.2730    0.0000 C   0  0  0  0  0  0  0  0  0  0  0  0
  1  2  2  0  0  0  0
  2  3  1  0  0  0  0
  2  8  1  0  0  0  0
  3  4  1  0  0  0  0
  3  5  1  0  0  0  0
  5  6  2  0  0  0  0
  5  7  1  0  0  0  0
  7  8  1  0  0  0  0
  8  9  1  0  0  0  0
  9 10  1  0  0  0  0
  9 14  2  0  0  0  0
 10 11  2  0  0  0  0
 11 12  1  0  0  0  0
 12 13  2  0  0  0  0
 13 14  1  0  0  0  0
M  END
>  <Index>
3

>  <ID>
HT0024

>  <class>
0

>  <apol>
29.398724

>  <ast_fraglike>
1

>  <ast_fraglike_ext>
1

>  <ast_violation>
0

>  <ast_violation_ext>
0

>  <a_acc>
2

>  <a_acid>
0

>  <a_aro>
6

>  <a_base>
0

>  <a_count>
25

>  <a_don>
0

>  <a_donacc>
2

>  <a_heavy>
14

>  <a_hyd>
9

>  <a_IC>
37.988911

>  <a_ICM>
1.5195564

>  <a_nB>
0

>  <a_nBr>
0

>  <a_nC>
11

>  <a_nCl>
0

>  <a_nF>
0

>  <a_nH>
11

>  <a_nI>
0

>  <a_nN>
1

>  <a_nO>
2

>  <a_nP>
0

>  <a_nS>
0

>  <balabanJ>
1.9835254

>  <BCUT_PEOE_0>
-2.3748217

>  <BCUT_PEOE_1>
-0.64927071

>  <BCUT_PEOE_2>
0.58823097

>  <BCUT_PEOE_3>
2.6371474

>  <BCUT_SLOGP_0>
-2.4677138

>  <BCUT_SLOGP_1>
-0.53807992

>  <BCUT_SLOGP_2>
0.67622131

>  <BCUT_SLOGP_3>
2.6004715

>  <BCUT_SMR_0>
-2.1405458

>  <BCUT_SMR_1>
-0.42026728

>  <BCUT_SMR_2>
0.74012703

>  <BCUT_SMR_3>
2.8867619

>  <bpol>
15.921277

>  <b_1rotN>
1

>  <b_1rotR>
0.06666667

>  <b_ar>
6

>  <b_count>
26

>  <b_double>
2

>  <b_heavy>
15

>  <b_max1len>
2

>  <b_rotN>
1

>  <b_rotR>
0.06666667

>  <b_single>
18

>  <b_triple>
0

>  <chi0>
10.129392

>  <chi0v>
7.9349184

>  <chi0v_C>
6.6712084

>  <chi0_C>
7.5520415

>  <chi1>
6.6983771

>  <chi1v>
4.5525112

>  <chi1v_C>
3.2498355

>  <chi1_C>
4.2996597

>  <chiral>
1

>  <chiral_u>
1

>  <density>
0.73515338

>  <diameter>
7

>  <FCharge>
0

>  <GCUT_PEOE_0>
-0.79691291

>  <GCUT_PEOE_1>
-0.42664725

>  <GCUT_PEOE_2>
0.060299113

>  <GCUT_PEOE_3>
2.400099

>  <GCUT_SLOGP_0>
-0.97845197

>  <GCUT_SLOGP_1>
-0.33464488

>  <GCUT_SLOGP_2>
0.13777721

>  <GCUT_SLOGP_3>
2.4283173

>  <GCUT_SMR_0>
-0.49020392

>  <GCUT_SMR_1>
-0.21605732

>  <GCUT_SMR_2>
0.1863848

>  <GCUT_SMR_3>
2.6612191

>  <Kier1>
10.515555

>  <Kier2>
4.2448978

>  <Kier3>
2.0204082

>  <KierA1>
7.2543383

>  <KierA2>
2.8353031

>  <KierA3>
1.3162801

>  <KierFlex>
1.4691606

>  <lip_acc>
3

>  <lip_don>
0

>  <lip_druglike>
1

>  <lip_violation>
0

>  <logP(o/w)>
0.93400002

>  <logS>
-1.77912

>  <mr>
5.3719587

>  <mutagenic>
0

>  <nmol>
1

>  <opr_brigid>
11

>  <opr_leadlike>
1

>  <opr_nring>
2

>  <opr_nrot>
1

>  <opr_violation>
0

>  <PC+>
0

>  <PC->
0

>  <PEOE_PC+>
1.1652169

>  <PEOE_PC->
-1.1652169

>  <PEOE_RPC+>
0.20381048

>  <PEOE_RPC->
0.24500835

>  <PEOE_VSA+0>
57.532318

>  <PEOE_VSA+1>
21.326929

>  <PEOE_VSA+2>
0

>  <PEOE_VSA+3>
0

>  <PEOE_VSA+4>
25.899061

>  <PEOE_VSA+5>
0

>  <PEOE_VSA+6>
0

>  <PEOE_VSA-0>
2.2085397

>  <PEOE_VSA-1>
61.274521

>  <PEOE_VSA-2>
0

>  <PEOE_VSA-3>
0

>  <PEOE_VSA-4>
0

>  <PEOE_VSA-5>
27.133842

>  <PEOE_VSA-6>
0

>  <PEOE_VSA_FHYD>
0.72855866

>  <PEOE_VSA_FNEG>
0.46380961

>  <PEOE_VSA_FPNEG>
0.13888067

>  <PEOE_VSA_FPOL>
0.27144131

>  <PEOE_VSA_FPOS>
0.53619039

>  <PEOE_VSA_FPPOS>
0.13256064

>  <PEOE_VSA_HYD>
142.3423

>  <PEOE_VSA_NEG>
90.616898

>  <PEOE_VSA_PNEG>
27.133842

>  <PEOE_VSA_POL>
53.032902

>  <PEOE_VSA_POS>
104.75831

>  <PEOE_VSA_PPOS>
25.899061

>  <petitjean>
0.42857143

>  <petitjeanSC>
0.75

>  <Q_PC+>
0

>  <Q_PC->
0

>  <Q_RPC+>
0

>  <Q_RPC->
0

>  <Q_VSA_FHYD>
1

>  <Q_VSA_FNEG>
0

>  <Q_VSA_FPNEG>
0

>  <Q_VSA_FPOL>
0

>  <Q_VSA_FPOS>
1

>  <Q_VSA_FPPOS>
0

>  <Q_VSA_HYD>
195.37521

>  <Q_VSA_NEG>
0

>  <Q_VSA_PNEG>
0

>  <Q_VSA_POL>
0

>  <Q_VSA_POS>
195.37521

>  <Q_VSA_PPOS>
0

>  <radius>
4

>  <reactive>
0

>  <rings>
2

>  <RPC+>
0

>  <RPC->
0

>  <rsynth>
1

>  <SlogP>
1.1589

>  <SlogP_VSA0>
0

>  <SlogP_VSA1>
13.641881

>  <SlogP_VSA2>
47.724434

>  <SlogP_VSA3>
0

>  <SlogP_VSA4>
3.185575

>  <SlogP_VSA5>
32.897186

>  <SlogP_VSA6>
4.4107962

>  <SlogP_VSA7>
88.215919

>  <SlogP_VSA8>
18.868406

>  <SlogP_VSA9>
0

>  <SMR>
5.1577001

>  <SMR_VSA0>
47.724434

>  <SMR_VSA1>
3.1243138

>  <SMR_VSA2>
0

>  <SMR_VSA3>
7.5963712

>  <SMR_VSA4>
0

>  <SMR_VSA5>
107.08433

>  <SMR_VSA6>
10.517568

>  <SMR_VSA7>
32.897186

>  <TPSA>
37.380001

>  <VAdjEq>
0.61744827

>  <VAdjMa>
4.9068904

>  <VDistEq>
2.603898

>  <VDistMa>
7.3192687

>  <vdw_area>
195.37521

>  <vdw_vol>
257.38031

>  <vsa_acc>
27.133842

>  <vsa_acid>
0

>  <vsa_base>
0

>  <vsa_don>
0

>  <vsa_hyd>
133.16751

>  <vsa_other>
25.899061

>  <vsa_pol>
27.133842

>  <Weight>
189.21399

>  <weinerPath>
289

>  <weinerPol>
20

>  <zagreb>
72

$$$$