Clc1c2c(C(=O)C=3C(CC4C(O)(C(O)=C(C(=O)NCO)C(=O)C4N(C)C)C=3O)C2(O)C)c(O)cc1
  MOE2013           2D

 35 38  0  0  1  0  0  0  0  0999 V2000
    0.0000    0.0000    0.0000 Cl  0  0  0  0  0  0  0  0  0  0  0  0
    0.7400    1.3050    0.0000 C   0  0  0  0  0  0  0  0  0  0  0  0
    2.2400    1.3160    0.0000 C   0  0  0  0  0  0  0  0  0  0  0  0
    2.9800    2.6210    0.0000 C   0  0  0  0  0  0  0  0  0  0  0  0
    4.4800    2.6320    0.0000 C   0  0  0  0  0  0  0  0  0  0  0  0
    5.2200    3.9370    0.0000 O   0  0  0  0  0  0  0  0  0  0  0  0
    5.2400    1.3390    0.0000 C   0  0  0  0  0  0  0  0  0  0  0  0
    4.5000    0.0340    0.0000 C   0  0  3  0  0  0  0  0  0  0  0  0
    5.2600   -1.2590    0.0000 C   0  0  0  0  0  0  0  0  0  0  0  0
    6.7600   -1.2480    0.0000 C   0  0  3  0  0  0  0  0  0  0  0  0
    7.5000    0.0570    0.0000 C   0  0  3  0  0  0  0  0  0  0  0  0
    8.2400    1.3610    0.0000 O   0  0  0  0  0  0  0  0  0  0  0  0
    9.0000    0.0680    0.0000 C   0  0  0  0  0  0  0  0  0  0  0  0
    9.7400    1.3730    0.0000 O   0  0  0  0  0  0  0  0  0  0  0  0
    9.7600   -1.2250    0.0000 C   0  0  0  0  0  0  0  0  0  0  0  0
   11.2600   -1.2140    0.0000 C   0  0  0  0  0  0  0  0  0  0  0  0
   12.0000    0.0910    0.0000 O   0  0  0  0  0  0  0  0  0  0  0  0
   12.0190   -2.5070    0.0000 N   0  0  0  0  0  0  0  0  0  0  0  0
   13.5190   -2.4960    0.0000 C   0  0  0  0  0  0  0  0  0  0  0  0
   14.2790   -3.7890    0.0000 O   0  0  0  0  0  0  0  0  0  0  0  0
    9.0190   -2.5300    0.0000 C   0  0  0  0  0  0  0  0  0  0  0  0
    9.7790   -3.8230    0.0000 O   0  0  0  0  0  0  0  0  0  0  0  0
    7.5190   -2.5410    0.0000 C   0  0  3  0  0  0  0  0  0  0  0  0
    6.7790   -3.8460    0.0000 N   0  0  0  0  0  0  0  0  0  0  0  0
    5.2790   -3.8570    0.0000 C   0  0  0  0  0  0  0  0  0  0  0  0
    7.5390   -5.1390    0.0000 C   0  0  0  0  0  0  0  0  0  0  0  0
    6.7400    1.3500    0.0000 C   0  0  0  0  0  0  0  0  0  0  0  0
    7.4800    2.6550    0.0000 O   0  0  0  0  0  0  0  0  0  0  0  0
    3.0000    0.0230    0.0000 C   0  0  3  0  0  0  0  0  0  0  0  0
    1.7070   -0.7370    0.0000 O   0  0  0  0  0  0  0  0  0  0  0  0
    3.0110   -1.4770    0.0000 C   0  0  0  0  0  0  0  0  0  0  0  0
    2.2200    3.9140    0.0000 C   0  0  0  0  0  0  0  0  0  0  0  0
    2.9610    5.2190    0.0000 O   0  0  0  0  0  0  0  0  0  0  0  0
    0.7200    3.9030    0.0000 C   0  0  0  0  0  0  0  0  0  0  0  0
   -0.0200    2.5980    0.0000 C   0  0  0  0  0  0  0  0  0  0  0  0
  1  2  1  0  0  0  0
  2  3  1  0  0  0  0
  2 35  2  0  0  0  0
  3  4  2  0  0  0  0
  3 29  1  0  0  0  0
  4  5  1  0  0  0  0
  4 32  1  0  0  0  0
  5  6  2  0  0  0  0
  5  7  1  0  0  0  0
  7  8  1  0  0  0  0
  7 27  2  0  0  0  0
  8  9  1  0  0  0  0
  8 29  1  0  0  0  0
  9 10  1  0  0  0  0
 10 11  1  0  0  0  0
 10 23  1  0  0  0  0
 11 12  1  0  0  0  0
 11 13  1  0  0  0  0
 11 27  1  0  0  0  0
 13 14  1  0  0  0  0
 13 15  2  0  0  0  0
 15 16  1  0  0  0  0
 15 21  1  0  0  0  0
 16 17  2  0  0  0  0
 16 18  1  0  0  0  0
 18 19  1  0  0  0  0
 19 20  1  0  0  0  0
 21 22  2  0  0  0  0
 21 23  1  0  0  0  0
 23 24  1  0  0  0  0
 24 25  1  0  0  0  0
 24 26  1  0  0  0  0
 27 28  1  0  0  0  0
 29 30  1  0  0  0  0
 29 31  1  0  0  0  0
 32 33  1  0  0  0  0
 32 34  2  0  0  0  0
 34 35  1  0  0  0  0
M  END
>  <Index>
252

>  <ID>
HT0529

>  <class>
0

>  <apol>
68.747826

>  <ast_fraglike>
0

>  <ast_fraglike_ext>
0

>  <ast_violation>
3

>  <ast_violation_ext>
4

>  <a_acc>
10

>  <a_acid>
0

>  <a_aro>
6

>  <a_base>
0

>  <a_count>
60

>  <a_don>
9

>  <a_donacc>
19

>  <a_heavy>
35

>  <a_hyd>
20

>  <a_IC>
103.74578

>  <a_ICM>
1.7290963

>  <a_nB>
0

>  <a_nBr>
0

>  <a_nC>
23

>  <a_nCl>
1

>  <a_nF>
0

>  <a_nH>
25

>  <a_nI>
0

>  <a_nN>
2

>  <a_nO>
9

>  <a_nP>
0

>  <a_nS>
0

>  <balabanJ>
1.8172419

>  <BCUT_PEOE_0>
-2.7825465

>  <BCUT_PEOE_1>
-0.59097534

>  <BCUT_PEOE_2>
0.62905586

>  <BCUT_PEOE_3>
2.8352685

>  <BCUT_SLOGP_0>
-2.8543677

>  <BCUT_SLOGP_1>
-0.63035911

>  <BCUT_SLOGP_2>
0.61123371

>  <BCUT_SLOGP_3>
2.8328145

>  <BCUT_SMR_0>
-2.5498369

>  <BCUT_SMR_1>
-0.41553506

>  <BCUT_SMR_2>
0.83751011

>  <BCUT_SMR_3>
3.0644743

>  <bpol>
33.264175

>  <b_1rotN>
3

>  <b_1rotR>
0.078947365

>  <b_ar>
6

>  <b_count>
63

>  <b_double>
5

>  <b_heavy>
38

>  <b_max1len>
4

>  <b_rotN>
4

>  <b_rotR>
0.10526316

>  <b_single>
52

>  <b_triple>
0

>  <chi0>
26.195787

>  <chi0v>
19.790098

>  <chi0v_C>
13.800965

>  <chi0_C>
14.911331

>  <chi1>
16.22121

>  <chi1v>
11.084974

>  <chi1v_C>
6.7152143

>  <chi1_C>
8.0763693

>  <chiral>
5

>  <chiral_u>
5

>  <density>
0.85460877

>  <diameter>
13

>  <FCharge>
0

>  <GCUT_PEOE_0>
-0.84918034

>  <GCUT_PEOE_1>
-0.4370065

>  <GCUT_PEOE_2>
0.1139945

>  <GCUT_PEOE_3>
3.1545014

>  <GCUT_SLOGP_0>
-1.16238

>  <GCUT_SLOGP_1>
-0.40297806

>  <GCUT_SLOGP_2>
0.067540765

>  <GCUT_SLOGP_3>
3.1563945

>  <GCUT_SMR_0>
-0.52437168

>  <GCUT_SMR_1>
-0.24606502

>  <GCUT_SMR_2>
0.27168819

>  <GCUT_SMR_3>
3.3930235

>  <Kier1>
28.01939

>  <Kier2>
9.6321545

>  <Kier3>
3.9402444

>  <KierA1>
23.588673

>  <KierA2>
8.0659771

>  <KierA3>
3.2868795

>  <KierFlex>
5.4361629

>  <lip_acc>
11

>  <lip_don>
7

>  <lip_druglike>
0

>  <lip_violation>
3

>  <logP(o/w)>
-0.079999998

>  <logS>
-2.7226701

>  <mr>
12.092679

>  <mutagenic>
0

>  <nmol>
1

>  <opr_brigid>
21

>  <opr_leadlike>
0

>  <opr_nring>
4

>  <opr_nrot>
3

>  <opr_violation>
3

>  <PC+>
0

>  <PC->
0

>  <PEOE_PC+>
3.9297855

>  <PEOE_PC->
-3.9297855

>  <PEOE_RPC+>
0.066015199

>  <PEOE_RPC->
0.097602442

>  <PEOE_VSA+0>
64.386841

>  <PEOE_VSA+1>
43.598469

>  <PEOE_VSA+2>
30.109364

>  <PEOE_VSA+3>
25.536053

>  <PEOE_VSA+4>
61.945034

>  <PEOE_VSA+5>
12.949531

>  <PEOE_VSA+6>
0

>  <PEOE_VSA-0>
98.43618

>  <PEOE_VSA-1>
29.581947

>  <PEOE_VSA-2>
0

>  <PEOE_VSA-3>
0

>  <PEOE_VSA-4>
0

>  <PEOE_VSA-5>
40.700764

>  <PEOE_VSA-6>
46.742134

>  <PEOE_VSA_FHYD>
0.64241773

>  <PEOE_VSA_FNEG>
0.47459805

>  <PEOE_VSA_FPNEG>
0.19261131

>  <PEOE_VSA_FPOL>
0.35758227

>  <PEOE_VSA_FPOS>
0.52540195

>  <PEOE_VSA_FPPOS>
0.16497098

>  <PEOE_VSA_HYD>
291.64886

>  <PEOE_VSA_NEG>
215.46101

>  <PEOE_VSA_PNEG>
87.442894

>  <PEOE_VSA_POL>
162.33746

>  <PEOE_VSA_POS>
238.5253

>  <PEOE_VSA_PPOS>
74.894569

>  <petitjean>
0.46153846

>  <petitjeanSC>
0.85714287

>  <Q_PC+>
0

>  <Q_PC->
0

>  <Q_RPC+>
0

>  <Q_RPC->
0

>  <Q_VSA_FHYD>
1

>  <Q_VSA_FNEG>
0

>  <Q_VSA_FPNEG>
0

>  <Q_VSA_FPOL>
0

>  <Q_VSA_FPOS>
1

>  <Q_VSA_FPPOS>
0

>  <Q_VSA_HYD>
453.98633

>  <Q_VSA_NEG>
0

>  <Q_VSA_PNEG>
0

>  <Q_VSA_POL>
0

>  <Q_VSA_POS>
453.98633

>  <Q_VSA_PPOS>
0

>  <radius>
7

>  <reactive>
0

>  <rings>
4

>  <RPC+>
0

>  <RPC->
0

>  <rsynth>
0.45714286

>  <SlogP>
0.3312

>  <SlogP_VSA0>
119.55166

>  <SlogP_VSA1>
19.75832

>  <SlogP_VSA2>
51.706402

>  <SlogP_VSA3>
71.267883

>  <SlogP_VSA4>
39.054958

>  <SlogP_VSA5>
82.652382

>  <SlogP_VSA6>
3.5006065

>  <SlogP_VSA7>
35.286369

>  <SlogP_VSA8>
18.868406

>  <SlogP_VSA9>
77.718086

>  <SMR>
12.0702

>  <SMR_VSA0>
71.586647

>  <SMR_VSA1>
104.66522

>  <SMR_VSA2>
77.602798

>  <SMR_VSA3>
35.955158

>  <SMR_VSA4>
0

>  <SMR_VSA5>
54.154774

>  <SMR_VSA6>
37.131435

>  <SMR_VSA7>
138.26903

>  <TPSA>
187.86

>  <VAdjEq>
0.33549348

>  <VAdjMa>
6.2479277

>  <VDistEq>
3.3474345

>  <VDistMa>
10.023257

>  <vdw_area>
453.98633

>  <vdw_vol>
595.49005

>  <vsa_acc>
13.566921

>  <vsa_acid>
0

>  <vsa_base>
0

>  <vsa_don>
5.6825762

>  <vsa_hyd>
224.0609

>  <vsa_other>
56.416058

>  <vsa_pol>
127.78487

>  <Weight>
508.91098

>  <weinerPath>
3052

>  <weinerPol>
82

>  <zagreb>
200

$$$$