S(=O)(=O)(N(CC(C)C)C[C@@H](O)[C@@H](NC(O[C@@H]1[C@H]2[C@@H](OC1)OCC2)=O)Cc1ccccc1)c1ccc(N)cc1
  MOE2013           2D

 38 41  0  0  1  0  0  0  0  0999 V2000
    0.0000    0.0000    0.0000 S   0  0  0  0  0  0  0  0  0  0  0  0
    1.2950   -0.7570    0.0000 O   0  0  0  0  0  0  0  0  0  0  0  0
   -1.2950    0.7570    0.0000 O   0  0  0  0  0  0  0  0  0  0  0  0
    0.7570    1.2950    0.0000 N   0  0  3  0  0  0  0  0  0  0  0  0
    0.0140    2.5980    0.0000 C   0  0  0  0  0  0  0  0  0  0  0  0
   -1.4860    2.6060    0.0000 C   0  0  0  0  0  0  0  0  0  0  0  0
   -2.2430    1.3110    0.0000 C   0  0  0  0  0  0  0  0  0  0  0  0
   -2.2290    3.9090    0.0000 C   0  0  0  0  0  0  0  0  0  0  0  0
    2.2570    1.2870    0.0000 C   0  0  0  0  0  0  0  0  0  0  0  0
    3.0140    2.5820    0.0000 C   0  0  1  0  0  0  0  0  0  0  0  0
    2.2710    3.8850    0.0000 O   0  0  0  0  0  0  0  0  0  0  0  0
    4.5140    2.5740    0.0000 C   0  0  1  0  0  0  0  0  0  0  0  0
    5.2570    1.2710    0.0000 N   0  0  0  0  0  0  0  0  0  0  0  0
    6.7570    1.2630    0.0000 C   0  0  0  0  0  0  0  0  0  0  0  0
    7.5140    2.5580    0.0000 O   0  0  0  0  0  0  0  0  0  0  0  0
    9.0140    2.5500    0.0000 C   0  0  2  0  0  0  0  0  0  0  0  0
    9.9020    3.7590    0.0000 C   0  0  1  0  0  0  0  0  0  0  0  0
   11.3260    3.2880    0.0000 C   0  0  1  0  0  0  0  0  0  0  0  0
   11.3180    1.7880    0.0000 O   0  0  0  0  0  0  0  0  0  0  0  0
    9.8890    1.3320    0.0000 C   0  0  0  0  0  0  0  0  0  0  0  0
   12.2140    4.4960    0.0000 O   0  0  0  0  0  0  0  0  0  0  0  0
   11.3390    5.7150    0.0000 C   0  0  0  0  0  0  0  0  0  0  0  0
    9.9100    5.2590    0.0000 C   0  0  0  0  0  0  0  0  0  0  0  0
    7.5000   -0.0400    0.0000 O   0  0  0  0  0  0  0  0  0  0  0  0
    5.2710    3.8690    0.0000 C   0  0  0  0  0  0  0  0  0  0  0  0
    4.5280    5.1720    0.0000 C   0  0  0  0  0  0  0  0  0  0  0  0
    5.2850    6.4670    0.0000 C   0  0  0  0  0  0  0  0  0  0  0  0
    4.5420    7.7700    0.0000 C   0  0  0  0  0  0  0  0  0  0  0  0
    3.0420    7.7780    0.0000 C   0  0  0  0  0  0  0  0  0  0  0  0
    2.2850    6.4830    0.0000 C   0  0  0  0  0  0  0  0  0  0  0  0
    3.0280    5.1800    0.0000 C   0  0  0  0  0  0  0  0  0  0  0  0
   -0.7570   -1.2950    0.0000 C   0  0  0  0  0  0  0  0  0  0  0  0
   -2.2570   -1.2870    0.0000 C   0  0  0  0  0  0  0  0  0  0  0  0
   -3.0140   -2.5820    0.0000 C   0  0  0  0  0  0  0  0  0  0  0  0
   -2.2710   -3.8850    0.0000 C   0  0  0  0  0  0  0  0  0  0  0  0
   -3.0280   -5.1800    0.0000 N   0  0  0  0  0  0  0  0  0  0  0  0
   -0.7710   -3.8930    0.0000 C   0  0  0  0  0  0  0  0  0  0  0  0
   -0.0140   -2.5980    0.0000 C   0  0  0  0  0  0  0  0  0  0  0  0
  1  2  2  0  0  0  0
  1  3  2  0  0  0  0
  1  4  1  0  0  0  0
  1 32  1  0  0  0  0
  4  5  1  0  0  0  0
  4  9  1  0  0  0  0
  5  6  1  0  0  0  0
  6  7  1  0  0  0  0
  6  8  1  0  0  0  0
  9 10  1  0  0  0  0
 10 11  1  1  0  0  0
 10 12  1  0  0  0  0
 12 13  1  6  0  0  0
 12 25  1  0  0  0  0
 13 14  1  0  0  0  0
 14 15  1  0  0  0  0
 14 24  2  0  0  0  0
 16 15  1  6  0  0  0
 16 17  1  0  0  0  0
 16 20  1  0  0  0  0
 17 18  1  0  0  0  0
 17 23  1  6  0  0  0
 18 19  1  6  0  0  0
 18 21  1  0  0  0  0
 19 20  1  0  0  0  0
 21 22  1  0  0  0  0
 22 23  1  0  0  0  0
 25 26  1  0  0  0  0
 26 27  1  0  0  0  0
 26 31  2  0  0  0  0
 27 28  2  0  0  0  0
 28 29  1  0  0  0  0
 29 30  2  0  0  0  0
 30 31  1  0  0  0  0
 32 33  1  0  0  0  0
 32 38  2  0  0  0  0
 33 34  2  0  0  0  0
 34 35  1  0  0  0  0
 35 36  1  0  0  0  0
 35 37  2  0  0  0  0
 37 38  1  0  0  0  0
M  END
>  <Index>
285

>  <ID>
HT0593

>  <class>
0

>  <apol>
84.005341

>  <ast_fraglike>
0

>  <ast_fraglike_ext>
0

>  <ast_violation>
2

>  <ast_violation_ext>
4

>  <a_acc>
6

>  <a_acid>
0

>  <a_aro>
12

>  <a_base>
0

>  <a_count>
75

>  <a_don>
3

>  <a_donacc>
9

>  <a_heavy>
38

>  <a_hyd>
25

>  <a_IC>
121.62329

>  <a_ICM>
1.6216439

>  <a_nB>
0

>  <a_nBr>
0

>  <a_nC>
27

>  <a_nCl>
0

>  <a_nF>
0

>  <a_nH>
37

>  <a_nI>
0

>  <a_nN>
3

>  <a_nO>
7

>  <a_nP>
0

>  <a_nS>
1

>  <balabanJ>
1.4213641

>  <BCUT_PEOE_0>
-2.7248094

>  <BCUT_PEOE_1>
-0.55496043

>  <BCUT_PEOE_2>
0.60914594

>  <BCUT_PEOE_3>
2.8209198

>  <BCUT_SLOGP_0>
-2.86639

>  <BCUT_SLOGP_1>
-0.50233525

>  <BCUT_SLOGP_2>
0.65352374

>  <BCUT_SLOGP_3>
2.7457535

>  <BCUT_SMR_0>
-2.4577808

>  <BCUT_SMR_1>
-0.42814174

>  <BCUT_SMR_2>
0.73486233

>  <BCUT_SMR_3>
3.0250931

>  <bpol>
55.610661

>  <b_1rotN>
11

>  <b_1rotR>
0.2682927

>  <b_ar>
12

>  <b_count>
78

>  <b_double>
1

>  <b_heavy>
41

>  <b_max1len>
9

>  <b_rotN>
13

>  <b_rotR>
0.31707317

>  <b_single>
65

>  <b_triple>
0

>  <chi0>
27.285881

>  <chi0v>
22.548906

>  <chi0v_C>
16.902895

>  <chi0_C>
18.380104

>  <chi1>
18.129068

>  <chi1v>
14.352351

>  <chi1v_C>
8.7815466

>  <chi1_C>
10.55368

>  <chiral>
5

>  <chiral_u>
0

>  <density>
0.7695412

>  <diameter>
16

>  <FCharge>
0

>  <GCUT_PEOE_0>
-0.81307971

>  <GCUT_PEOE_1>
-0.39212331

>  <GCUT_PEOE_2>
0.06795115

>  <GCUT_PEOE_3>
2.9777524

>  <GCUT_SLOGP_0>
-1.3343047

>  <GCUT_SLOGP_1>
-0.33780348

>  <GCUT_SLOGP_2>
0.13415176

>  <GCUT_SLOGP_3>
2.9543655

>  <GCUT_SMR_0>
-0.53382349

>  <GCUT_SMR_1>
-0.21605732

>  <GCUT_SMR_2>
0.16836348

>  <GCUT_SMR_3>
3.220459

>  <Kier1>
30.947056

>  <Kier2>
14.254459

>  <Kier3>
8.5119162

>  <KierA1>
26.908428

>  <KierA2>
12.345451

>  <KierA3>
7.3516827

>  <KierFlex>
8.7420177

>  <lip_acc>
10

>  <lip_don>
4

>  <lip_druglike>
1

>  <lip_violation>
1

>  <logP(o/w)>
2.4360001

>  <logS>
-4.3680801

>  <mr>
14.446087

>  <mutagenic>
1

>  <nmol>
1

>  <opr_brigid>
21

>  <opr_leadlike>
0

>  <opr_nring>
4

>  <opr_nrot>
10

>  <opr_violation>
2

>  <PC+>
0

>  <PC->
0

>  <PEOE_PC+>
3.51229

>  <PEOE_PC->
-3.51229

>  <PEOE_RPC+>
0.10287105

>  <PEOE_RPC->
0.11113255

>  <PEOE_VSA+0>
122.75347

>  <PEOE_VSA+1>
110.46503

>  <PEOE_VSA+2>
22.142954

>  <PEOE_VSA+3>
19.773922

>  <PEOE_VSA+4>
10.324173

>  <PEOE_VSA+5>
4.1846013

>  <PEOE_VSA+6>
19.199511

>  <PEOE_VSA-0>
57.313297

>  <PEOE_VSA-1>
98.769875

>  <PEOE_VSA-2>
0

>  <PEOE_VSA-3>
0

>  <PEOE_VSA-4>
45.583443

>  <PEOE_VSA-5>
2.503756

>  <PEOE_VSA-6>
19.563063

>  <PEOE_VSA_FHYD>
0.80968285

>  <PEOE_VSA_FNEG>
0.42009586

>  <PEOE_VSA_FPNEG>
0.12702435

>  <PEOE_VSA_FPOL>
0.19031714

>  <PEOE_VSA_FPOS>
0.57990414

>  <PEOE_VSA_FPPOS>
0.063292779

>  <PEOE_VSA_HYD>
431.21857

>  <PEOE_VSA_NEG>
223.73344

>  <PEOE_VSA_PNEG>
67.650261

>  <PEOE_VSA_POL>
101.35855

>  <PEOE_VSA_POS>
308.84366

>  <PEOE_VSA_PPOS>
33.708286

>  <petitjean>
0.5

>  <petitjeanSC>
1

>  <Q_PC+>
0

>  <Q_PC->
0

>  <Q_RPC+>
0

>  <Q_RPC->
0

>  <Q_VSA_FHYD>
1

>  <Q_VSA_FNEG>
0

>  <Q_VSA_FPNEG>
0

>  <Q_VSA_FPOL>
0

>  <Q_VSA_FPOS>
1

>  <Q_VSA_FPPOS>
0

>  <Q_VSA_HYD>
532.57709

>  <Q_VSA_NEG>
0

>  <Q_VSA_PNEG>
0

>  <Q_VSA_POL>
0

>  <Q_VSA_POS>
532.57709

>  <Q_VSA_PPOS>
0

>  <radius>
8

>  <reactive>
1

>  <rings>
4

>  <RPC+>
0

>  <RPC->
0

>  <rsynth>
1

>  <SlogP>
2.3752699

>  <SlogP_VSA0>
76.293167

>  <SlogP_VSA1>
57.006886

>  <SlogP_VSA2>
65.086174

>  <SlogP_VSA3>
78.731674

>  <SlogP_VSA4>
12.007167

>  <SlogP_VSA5>
20.41914

>  <SlogP_VSA6>
0

>  <SlogP_VSA7>
158.78867

>  <SlogP_VSA8>
18.868406

>  <SlogP_VSA9>
93.270996

>  <SMR>
14.15957

>  <SMR_VSA0>
105.03357

>  <SMR_VSA1>
26.903788

>  <SMR_VSA2>
28.383078

>  <SMR_VSA3>
28.631344

>  <SMR_VSA4>
2.7567475

>  <SMR_VSA5>
229.42265

>  <SMR_VSA6>
86.048309

>  <SMR_VSA7>
73.29277

>  <TPSA>
140.42

>  <VAdjEq>
0.31455502

>  <VAdjMa>
6.3575521

>  <VDistEq>
3.7582679

>  <VDistMa>
10.24492

>  <vdw_area>
532.57709

>  <vdw_vol>
711.68768

>  <vsa_acc>
50.590958

>  <vsa_acid>
0

>  <vsa_base>
0

>  <vsa_don>
23.425066

>  <vsa_hyd>
358.55267

>  <vsa_other>
46.517376

>  <vsa_pol>
87.582939

>  <Weight>
547.67297

>  <weinerPath>
4771

>  <weinerPol>
57

>  <zagreb>
198

$$$$