O1[C@@H]2[C@]34[C@H]([C@H](N(CC3)CC3CC3)Cc3c4c1c(OC)cc3)[C@H](CC2=O)CC
  MOE2013           2D

 27 32  0  0  1  0  0  0  0  0999 V2000
    0.0000    0.0000    0.0000 O   0  0  0  0  0  0  0  0  0  0  0  0
   -1.2830    1.2220    0.0000 C   0  0  2  0  0  0  0  0  0  0  0  0
   -2.3880    0.3200    0.0000 C   0  0  2  0  0  0  0  0  0  0  0  0
   -3.7300    0.8300    0.0000 C   0  0  2  0  0  0  0  0  0  0  0  0
   -4.8470   -0.0840    0.0000 C   0  0  2  0  0  0  0  0  0  0  0  0
   -6.2870    0.0400    0.0000 N   0  0  3  0  0  0  0  0  0  0  0  0
   -5.3730   -1.0720    0.0000 C   0  0  0  0  0  0  0  0  0  0  0  0
   -3.2310   -0.8690    0.0000 C   0  0  0  0  0  0  0  0  0  0  0  0
   -7.6130    0.7400    0.0000 C   0  0  0  0  0  0  0  0  0  0  0  0
   -8.8830   -0.0590    0.0000 C   0  0  0  0  0  0  0  0  0  0  0  0
  -10.3820   -0.1170    0.0000 C   0  0  0  0  0  0  0  0  0  0  0  0
   -9.5820   -1.3860    0.0000 C   0  0  0  0  0  0  0  0  0  0  0  0
   -4.6050   -1.5000    0.0000 C   0  0  0  0  0  0  0  0  0  0  0  0
   -3.2580   -2.0090    0.0000 C   0  0  0  0  0  0  0  0  0  0  0  0
   -2.1510   -1.1000    0.0000 C   0  0  0  0  0  0  0  0  0  0  0  0
   -0.8110   -1.5980    0.0000 C   0  0  0  0  0  0  0  0  0  0  0  0
   -0.5790   -3.0150    0.0000 C   0  0  0  0  0  0  0  0  0  0  0  0
    0.8250   -3.5440    0.0000 O   0  0  0  0  0  0  0  0  0  0  0  0
    1.0690   -5.0240    0.0000 C   0  0  0  0  0  0  0  0  0  0  0  0
   -1.6860   -3.9240    0.0000 C   0  0  0  0  0  0  0  0  0  0  0  0
   -3.0250   -3.4150    0.0000 C   0  0  0  0  0  0  0  0  0  0  0  0
   -3.9660    2.2400    0.0000 C   0  0  2  0  0  0  0  0  0  0  0  0
   -2.8510    3.1460    0.0000 C   0  0  0  0  0  0  0  0  0  0  0  0
   -1.5100    2.6360    0.0000 C   0  0  0  0  0  0  0  0  0  0  0  0
   -0.3460    3.5830    0.0000 O   0  0  0  0  0  0  0  0  0  0  0  0
   -5.3690    2.7710    0.0000 C   0  0  0  0  0  0  0  0  0  0  0  0
   -5.6110    4.2510    0.0000 C   0  0  0  0  0  0  0  0  0  0  0  0
  1 16  1  0  0  0  0
  2  1  1  6  0  0  0
  2  3  1  0  0  0  0
  2 24  1  0  0  0  0
  3  4  1  0  0  0  0
  3  8  1  1  0  0  0
  3 15  1  0  0  0  0
  4  5  1  0  0  0  0
  4 22  1  6  0  0  0
  5  6  1  1  0  0  0
  5 13  1  0  0  0  0
  6  7  1  0  0  0  0
  6  9  1  0  0  0  0
  7  8  1  0  0  0  0
  9 10  1  0  0  0  0
 10 11  1  0  0  0  0
 10 12  1  0  0  0  0
 11 12  1  0  0  0  0
 13 14  1  0  0  0  0
 14 15  1  0  0  0  0
 14 21  2  0  0  0  0
 15 16  2  0  0  0  0
 16 17  1  0  0  0  0
 17 18  1  0  0  0  0
 17 20  2  0  0  0  0
 18 19  1  0  0  0  0
 20 21  1  0  0  0  0
 22 23  1  0  0  0  0
 22 26  1  1  0  0  0
 23 24  1  0  0  0  0
 24 25  2  0  0  0  0
 26 27  1  0  0  0  0
M  END
>  <Index>
259

>  <ID>
HT0548

>  <class>
0

>  <apol>
63.322998

>  <ast_fraglike>
0

>  <ast_fraglike_ext>
0

>  <ast_violation>
3

>  <ast_violation_ext>
4

>  <a_acc>
4

>  <a_acid>
0

>  <a_aro>
6

>  <a_base>
0

>  <a_count>
56

>  <a_don>
0

>  <a_donacc>
4

>  <a_heavy>
27

>  <a_hyd>
22

>  <a_IC>
75.533615

>  <a_ICM>
1.3488145

>  <a_nB>
0

>  <a_nBr>
0

>  <a_nC>
23

>  <a_nCl>
0

>  <a_nF>
0

>  <a_nH>
29

>  <a_nI>
0

>  <a_nN>
1

>  <a_nO>
3

>  <a_nP>
0

>  <a_nS>
0

>  <balabanJ>
1.4358664

>  <BCUT_PEOE_0>
-2.9162412

>  <BCUT_PEOE_1>
-0.5225668

>  <BCUT_PEOE_2>
0.47944447

>  <BCUT_PEOE_3>
2.935308

>  <BCUT_SLOGP_0>
-2.9676826

>  <BCUT_SLOGP_1>
-0.4419544

>  <BCUT_SLOGP_2>
0.54722238

>  <BCUT_SLOGP_3>
2.9246261

>  <BCUT_SMR_0>
-2.6623783

>  <BCUT_SMR_1>
-0.36773217

>  <BCUT_SMR_2>
0.67626524

>  <BCUT_SMR_3>
3.1877317

>  <bpol>
38.473003

>  <b_1rotN>
4

>  <b_1rotR>
0.125

>  <b_ar>
6

>  <b_count>
61

>  <b_double>
1

>  <b_heavy>
32

>  <b_max1len>
4

>  <b_rotN>
4

>  <b_rotR>
0.125

>  <b_single>
54

>  <b_triple>
0

>  <chi0>
18.336134

>  <chi0v>
16.370264

>  <chi0v_C>
14.698306

>  <chi0_C>
15.34457

>  <chi1>
13.1682

>  <chi1v>
10.80761

>  <chi1v_C>
8.6606321

>  <chi1_C>
9.5091686

>  <chiral>
5

>  <chiral_u>
0

>  <density>
0.71344608

>  <diameter>
11

>  <FCharge>
0

>  <GCUT_PEOE_0>
-0.85402393

>  <GCUT_PEOE_1>
-0.38213152

>  <GCUT_PEOE_2>
0.0054748687

>  <GCUT_PEOE_3>
3.2851048

>  <GCUT_SLOGP_0>
-0.96180099

>  <GCUT_SLOGP_1>
-0.30592784

>  <GCUT_SLOGP_2>
0.073602423

>  <GCUT_SLOGP_3>
3.3145232

>  <GCUT_SMR_0>
-0.5338257

>  <GCUT_SMR_1>
-0.21326579

>  <GCUT_SMR_2>
0.14538167

>  <GCUT_SMR_3>
3.5251794

>  <Kier1>
17.824219

>  <Kier2>
6.2475972

>  <Kier3>
2.2272456

>  <KierA1>
15.719225

>  <KierA2>
5.4818864

>  <KierA3>
1.9469265

>  <KierFlex>
3.1915188

>  <lip_acc>
4

>  <lip_don>
0

>  <lip_druglike>
1

>  <lip_violation>
0

>  <logP(o/w)>
3.1760001

>  <logS>
-4.1503601

>  <mr>
10.31842

>  <mutagenic>
0

>  <nmol>
1

>  <opr_brigid>
25

>  <opr_leadlike>
1

>  <opr_nring>
6

>  <opr_nrot>
4

>  <opr_violation>
1

>  <PC+>
0

>  <PC->
0

>  <PEOE_PC+>
1.7152261

>  <PEOE_PC->
-1.7152261

>  <PEOE_RPC+>
0.095301859

>  <PEOE_RPC->
0.20133288

>  <PEOE_VSA+0>
161.33347

>  <PEOE_VSA+1>
25.592316

>  <PEOE_VSA+2>
21.821968

>  <PEOE_VSA+3>
8.458519

>  <PEOE_VSA+4>
0

>  <PEOE_VSA+5>
0

>  <PEOE_VSA+6>
0

>  <PEOE_VSA-0>
51.477238

>  <PEOE_VSA-1>
39.703896

>  <PEOE_VSA-2>
0

>  <PEOE_VSA-3>
0

>  <PEOE_VSA-4>
0

>  <PEOE_VSA-5>
13.566921

>  <PEOE_VSA-6>
5.0075121

>  <PEOE_VSA_FHYD>
0.94319081

>  <PEOE_VSA_FNEG>
0.33568311

>  <PEOE_VSA_FPNEG>
0.056809179

>  <PEOE_VSA_FPOL>
0.056809179

>  <PEOE_VSA_FPOS>
0.66431689

>  <PEOE_VSA_FPPOS>
0

>  <PEOE_VSA_HYD>
308.38739

>  <PEOE_VSA_NEG>
109.75556

>  <PEOE_VSA_PNEG>
18.574432

>  <PEOE_VSA_POL>
18.574432

>  <PEOE_VSA_POS>
217.20627

>  <PEOE_VSA_PPOS>
0

>  <petitjean>
0.45454547

>  <petitjeanSC>
0.83333331

>  <Q_PC+>
0

>  <Q_PC->
0

>  <Q_RPC+>
0

>  <Q_RPC->
0

>  <Q_VSA_FHYD>
1

>  <Q_VSA_FNEG>
0

>  <Q_VSA_FPNEG>
0

>  <Q_VSA_FPOL>
0

>  <Q_VSA_FPOS>
1

>  <Q_VSA_FPPOS>
0

>  <Q_VSA_HYD>
326.96182

>  <Q_VSA_NEG>
0

>  <Q_VSA_PNEG>
0

>  <Q_VSA_POL>
0

>  <Q_VSA_POS>
326.96182

>  <Q_VSA_PPOS>
0

>  <radius>
6

>  <reactive>
1

>  <rings>
6

>  <RPC+>
0

>  <RPC->
0

>  <rsynth>
0.037037037

>  <SlogP>
3.34957

>  <SlogP_VSA0>
21.999775

>  <SlogP_VSA1>
8.8119249

>  <SlogP_VSA2>
34.312836

>  <SlogP_VSA3>
36.879158

>  <SlogP_VSA4>
19.603539

>  <SlogP_VSA5>
54.252274

>  <SlogP_VSA6>
0

>  <SlogP_VSA7>
35.286369

>  <SlogP_VSA8>
94.342026

>  <SlogP_VSA9>
43.81287

>  <SMR>
10.2389

>  <SMR_VSA0>
23.862217

>  <SMR_VSA1>
25.12409

>  <SMR_VSA2>
13.232388

>  <SMR_VSA3>
27.308624

>  <SMR_VSA4>
0

>  <SMR_VSA5>
148.4968

>  <SMR_VSA6>
42.566769

>  <SMR_VSA7>
68.709885

>  <TPSA>
38.77

>  <VAdjEq>
0.42905483

>  <VAdjMa>
6

>  <VDistEq>
3.0632033

>  <VDistMa>
9.2684488

>  <vdw_area>
326.96182

>  <vdw_vol>
515.09009

>  <vsa_acc>
18.574432

>  <vsa_acid>
0

>  <vsa_base>
0

>  <vsa_don>
0

>  <vsa_hyd>
275.25165

>  <vsa_other>
8.458519

>  <vsa_pol>
18.574432

>  <Weight>
367.48898

>  <weinerPath>
1500

>  <weinerPol>
60

>  <zagreb>
166

$$$$