O1C(C)C(OC2OC(C)C(O)C(OC(=O)C)C2)C(O)CC1OC1C(OC(OC2CC3CCC4C(CCC5(C)C(CCC45O)C4=CC(OC4)=O)C3(CC2)C)CC1O)C
  MOE2013           2D

 57 64  0  0  1  0  0  0  0  0999 V2000
    0.0000    0.0000    0.0000 O   0  0  0  0  0  0  0  0  0  0  0  0
    1.2980    0.7510    0.0000 C   0  0  3  0  0  0  0  0  0  0  0  0
    1.2970    2.2510    0.0000 C   0  0  0  0  0  0  0  0  0  0  0  0
    2.5980    0.0020    0.0000 C   0  0  3  0  0  0  0  0  0  0  0  0
    3.8960    0.7530    0.0000 O   0  0  0  0  0  0  0  0  0  0  0  0
    5.1960    0.0040    0.0000 C   0  0  3  0  0  0  0  0  0  0  0  0
    5.1970   -1.4960    0.0000 O   0  0  0  0  0  0  0  0  0  0  0  0
    6.4970   -2.2440    0.0000 C   0  0  3  0  0  0  0  0  0  0  0  0
    6.4980   -3.7440    0.0000 C   0  0  0  0  0  0  0  0  0  0  0  0
    7.7960   -1.4930    0.0000 C   0  0  3  0  0  0  0  0  0  0  0  0
    9.0950   -2.2420    0.0000 O   0  0  0  0  0  0  0  0  0  0  0  0
    7.7940    0.0070    0.0000 C   0  0  3  0  0  0  0  0  0  0  0  0
    9.0930    0.7580    0.0000 O   0  0  0  0  0  0  0  0  0  0  0  0
    9.0910    2.2580    0.0000 C   0  0  0  0  0  0  0  0  0  0  0  0
   10.3900    3.0090    0.0000 O   0  0  0  0  0  0  0  0  0  0  0  0
    7.7920    3.0070    0.0000 C   0  0  0  0  0  0  0  0  0  0  0  0
    6.4950    0.7560    0.0000 C   0  0  0  0  0  0  0  0  0  0  0  0
    2.5990   -1.4980    0.0000 C   0  0  3  0  0  0  0  0  0  0  0  0
    3.8990   -2.2470    0.0000 O   0  0  0  0  0  0  0  0  0  0  0  0
    1.3010   -2.2490    0.0000 C   0  0  0  0  0  0  0  0  0  0  0  0
    0.0010   -1.5000    0.0000 C   0  0  3  0  0  0  0  0  0  0  0  0
   -1.2970   -2.2510    0.0000 O   0  0  0  0  0  0  0  0  0  0  0  0
   -2.5970   -1.5020    0.0000 C   0  0  3  0  0  0  0  0  0  0  0  0
   -2.5980   -0.0020    0.0000 C   0  0  3  0  0  0  0  0  0  0  0  0
   -3.8980    0.7470    0.0000 O   0  0  0  0  0  0  0  0  0  0  0  0
   -5.1960   -0.0040    0.0000 C   0  0  3  0  0  0  0  0  0  0  0  0
   -6.4960    0.7440    0.0000 O   0  0  0  0  0  0  0  0  0  0  0  0
   -7.7940   -0.0070    0.0000 C   0  0  3  0  0  0  0  0  0  0  0  0
   -9.0940    0.7420    0.0000 C   0  0  0  0  0  0  0  0  0  0  0  0
  -10.3920   -0.0090    0.0000 C   0  0  3  0  0  0  0  0  0  0  0  0
  -11.6920    0.7400    0.0000 C   0  0  0  0  0  0  0  0  0  0  0  0
  -12.9900   -0.0110    0.0000 C   0  0  0  0  0  0  0  0  0  0  0  0
  -12.9890   -1.5110    0.0000 C   0  0  3  0  0  0  0  0  0  0  0  0
  -11.6890   -2.2600    0.0000 C   0  0  3  0  0  0  0  0  0  0  0  0
  -11.6880   -3.7600    0.0000 C   0  0  0  0  0  0  0  0  0  0  0  0
  -12.9870   -4.5110    0.0000 C   0  0  0  0  0  0  0  0  0  0  0  0
  -14.2860   -3.7620    0.0000 C   0  0  3  0  0  0  0  0  0  0  0  0
  -14.3900   -5.2590    0.0000 C   0  0  0  0  0  0  0  0  0  0  0  0
  -15.7120   -4.2270    0.0000 C   0  0  3  0  0  0  0  0  0  0  0  0
  -16.5950   -3.0140    0.0000 C   0  0  0  0  0  0  0  0  0  0  0  0
  -15.7140   -1.8000    0.0000 C   0  0  0  0  0  0  0  0  0  0  0  0
  -14.2870   -2.2620    0.0000 C   0  0  3  0  0  0  0  0  0  0  0  0
  -14.4460   -0.7710    0.0000 O   0  0  0  0  0  0  0  0  0  0  0  0
  -16.1750   -5.6540    0.0000 C   0  0  0  0  0  0  0  0  0  0  0  0
  -17.6010   -6.1190    0.0000 C   0  0  0  0  0  0  0  0  0  0  0  0
  -17.6000   -7.6190    0.0000 C   0  0  0  0  0  0  0  0  0  0  0  0
  -16.1730   -8.0810    0.0000 O   0  0  0  0  0  0  0  0  0  0  0  0
  -15.2920   -6.8670    0.0000 C   0  0  0  0  0  0  0  0  0  0  0  0
  -18.8120   -8.5010    0.0000 O   0  0  0  0  0  0  0  0  0  0  0  0
  -10.3910   -1.5090    0.0000 C   0  0  3  0  0  0  0  0  0  0  0  0
   -9.0910   -2.2580    0.0000 C   0  0  0  0  0  0  0  0  0  0  0  0
   -7.7930   -1.5070    0.0000 C   0  0  0  0  0  0  0  0  0  0  0  0
  -10.3640   -3.0090    0.0000 C   0  0  0  0  0  0  0  0  0  0  0  0
   -5.1950   -1.5040    0.0000 C   0  0  0  0  0  0  0  0  0  0  0  0
   -3.8950   -2.2530    0.0000 C   0  0  3  0  0  0  0  0  0  0  0  0
   -3.8940   -3.7530    0.0000 O   0  0  0  0  0  0  0  0  0  0  0  0
   -1.3000    0.7490    0.0000 C   0  0  0  0  0  0  0  0  0  0  0  0
  1  2  1  0  0  0  0
  1 21  1  0  0  0  0
  2  3  1  0  0  0  0
  2  4  1  0  0  0  0
  4  5  1  0  0  0  0
  4 18  1  0  0  0  0
  5  6  1  0  0  0  0
  6  7  1  0  0  0  0
  6 17  1  0  0  0  0
  7  8  1  0  0  0  0
  8  9  1  0  0  0  0
  8 10  1  0  0  0  0
 10 11  1  0  0  0  0
 10 12  1  0  0  0  0
 12 13  1  0  0  0  0
 12 17  1  0  0  0  0
 13 14  1  0  0  0  0
 14 15  2  0  0  0  0
 14 16  1  0  0  0  0
 18 19  1  0  0  0  0
 18 20  1  0  0  0  0
 20 21  1  0  0  0  0
 21 22  1  0  0  0  0
 22 23  1  0  0  0  0
 23 24  1  0  0  0  0
 23 55  1  0  0  0  0
 24 25  1  0  0  0  0
 24 57  1  0  0  0  0
 25 26  1  0  0  0  0
 26 27  1  0  0  0  0
 26 54  1  0  0  0  0
 27 28  1  0  0  0  0
 28 29  1  0  0  0  0
 28 52  1  0  0  0  0
 29 30  1  0  0  0  0
 30 31  1  0  0  0  0
 30 50  1  0  0  0  0
 31 32  1  0  0  0  0
 32 33  1  0  0  0  0
 33 34  1  0  0  0  0
 33 42  1  0  0  0  0
 34 35  1  0  0  0  0
 34 50  1  0  0  0  0
 35 36  1  0  0  0  0
 36 37  1  0  0  0  0
 37 38  1  0  0  0  0
 37 39  1  0  0  0  0
 37 42  1  0  0  0  0
 39 40  1  0  0  0  0
 39 44  1  0  0  0  0
 40 41  1  0  0  0  0
 41 42  1  0  0  0  0
 42 43  1  0  0  0  0
 44 45  2  0  0  0  0
 44 48  1  0  0  0  0
 45 46  1  0  0  0  0
 46 47  1  0  0  0  0
 46 49  2  0  0  0  0
 47 48  1  0  0  0  0
 50 51  1  0  0  0  0
 50 53  1  0  0  0  0
 51 52  1  0  0  0  0
 54 55  1  0  0  0  0
 55 56  1  0  0  0  0
M  END
>  <Index>
24

>  <ID>
HT0064

>  <class>
0

>  <apol>
130.91634

>  <ast_fraglike>
0

>  <ast_fraglike_ext>
0

>  <ast_violation>
4

>  <ast_violation_ext>
6

>  <a_acc>
12

>  <a_acid>
0

>  <a_aro>
0

>  <a_base>
0

>  <a_count>
123

>  <a_don>
4

>  <a_donacc>
16

>  <a_heavy>
57

>  <a_hyd>
38

>  <a_IC>
168.36691

>  <a_ICM>
1.3688368

>  <a_nB>
0

>  <a_nBr>
0

>  <a_nC>
43

>  <a_nCl>
0

>  <a_nF>
0

>  <a_nH>
66

>  <a_nI>
0

>  <a_nN>
0

>  <a_nO>
14

>  <a_nP>
0

>  <a_nS>
0

>  <balabanJ>
0.81367379

>  <BCUT_PEOE_0>
-2.9947419

>  <BCUT_PEOE_1>
-0.46840242

>  <BCUT_PEOE_2>
0.57584584

>  <BCUT_PEOE_3>
2.9952967

>  <BCUT_SLOGP_0>
-2.9397364

>  <BCUT_SLOGP_1>
-0.52243942

>  <BCUT_SLOGP_2>
0.47124156

>  <BCUT_SLOGP_3>
3.055923

>  <BCUT_SMR_0>
-2.7450581

>  <BCUT_SMR_1>
-0.37580815

>  <BCUT_SMR_2>
0.64541435

>  <BCUT_SMR_3>
3.2432165

>  <bpol>
89.39566

>  <b_1rotN>
8

>  <b_1rotR>
0.125

>  <b_ar>
0

>  <b_count>
130

>  <b_double>
3

>  <b_heavy>
64

>  <b_max1len>
4

>  <b_rotN>
9

>  <b_rotR>
0.140625

>  <b_single>
127

>  <b_triple>
0

>  <chi0>
40.603355

>  <chi0v>
34.456032

>  <chi0v_C>
28.584694

>  <chi0_C>
28.946501

>  <chi1>
26.983877

>  <chi1v>
21.725056

>  <chi1v_C>
16.557552

>  <chi1_C>
16.973402

>  <chiral>
20

>  <chiral_u>
20

>  <density>
0.75488627

>  <diameter>
29

>  <FCharge>
0

>  <GCUT_PEOE_0>
-0.80588132

>  <GCUT_PEOE_1>
-0.37386703

>  <GCUT_PEOE_2>
0.074781232

>  <GCUT_PEOE_3>
3.580626

>  <GCUT_SLOGP_0>
-0.93366587

>  <GCUT_SLOGP_1>
-0.34861612

>  <GCUT_SLOGP_2>
-0.0083439657

>  <GCUT_SLOGP_3>
3.6356716

>  <GCUT_SMR_0>
-0.54112452

>  <GCUT_SMR_1>
-0.21915229

>  <GCUT_SMR_2>
0.13661124

>  <GCUT_SMR_3>
3.7947948

>  <Kier1>
43.640625

>  <Kier2>
16.940001

>  <Kier3>
8.2136717

>  <KierA1>
41.672157

>  <KierA2>
16.162304

>  <KierA3>
7.8319812

>  <KierFlex>
11.816107

>  <lip_acc>
14

>  <lip_don>
4

>  <lip_druglike>
0

>  <lip_violation>
2

>  <logP(o/w)>
4.928

>  <logS>
-7.0065799

>  <mr>
20.370934

>  <mutagenic>
0

>  <nmol>
1

>  <opr_brigid>
43

>  <opr_leadlike>
0

>  <opr_nring>
8

>  <opr_nrot>
14

>  <opr_violation>
4

>  <PC+>
0

>  <PC->
0

>  <PEOE_PC+>
5.4780087

>  <PEOE_PC->
-5.4780087

>  <PEOE_RPC+>
0.052376457

>  <PEOE_RPC->
0.071005665

>  <PEOE_VSA+0>
253.31427

>  <PEOE_VSA+1>
112.62704

>  <PEOE_VSA+2>
19.619715

>  <PEOE_VSA+3>
33.464725

>  <PEOE_VSA+4>
41.296692

>  <PEOE_VSA+5>
29.416998

>  <PEOE_VSA+6>
0

>  <PEOE_VSA-0>
136.7634

>  <PEOE_VSA-1>
37.495354

>  <PEOE_VSA-2>
0

>  <PEOE_VSA-3>
0

>  <PEOE_VSA-4>
0

>  <PEOE_VSA-5>
27.133842

>  <PEOE_VSA-6>
51.100208

>  <PEOE_VSA_FHYD>
0.79932463

>  <PEOE_VSA_FNEG>
0.34018031

>  <PEOE_VSA_FPNEG>
0.10540374

>  <PEOE_VSA_FPOL>
0.20067538

>  <PEOE_VSA_FPOS>
0.65981966

>  <PEOE_VSA_FPPOS>
0.095271647

>  <PEOE_VSA_HYD>
593.28448

>  <PEOE_VSA_NEG>
252.4928

>  <PEOE_VSA_PNEG>
78.234055

>  <PEOE_VSA_POL>
148.94774

>  <PEOE_VSA_POS>
489.73944

>  <PEOE_VSA_PPOS>
70.713692

>  <petitjean>
0.48275861

>  <petitjeanSC>
0.93333334

>  <Q_PC+>
0

>  <Q_PC->
0

>  <Q_RPC+>
0

>  <Q_RPC->
0

>  <Q_VSA_FHYD>
1

>  <Q_VSA_FNEG>
0

>  <Q_VSA_FPNEG>
0

>  <Q_VSA_FPOL>
0

>  <Q_VSA_FPOS>
1

>  <Q_VSA_FPPOS>
0

>  <Q_VSA_HYD>
742.23224

>  <Q_VSA_NEG>
0

>  <Q_VSA_PNEG>
0

>  <Q_VSA_POL>
0

>  <Q_VSA_POS>
742.23224

>  <Q_VSA_PPOS>
0

>  <radius>
15

>  <reactive>
1

>  <rings>
8

>  <RPC+>
0

>  <RPC->
0

>  <rsynth>
1

>  <SlogP>
3.8181

>  <SlogP_VSA0>
101.54091

>  <SlogP_VSA1>
15.490929

>  <SlogP_VSA2>
225.98953

>  <SlogP_VSA3>
20.926258

>  <SlogP_VSA4>
17.643185

>  <SlogP_VSA5>
3.185575

>  <SlogP_VSA6>
0

>  <SlogP_VSA7>
17.643185

>  <SlogP_VSA8>
226.42087

>  <SlogP_VSA9>
199.95609

>  <SMR>
20.07682

>  <SMR_VSA0>
135.72354

>  <SMR_VSA1>
101.54091

>  <SMR_VSA2>
17.643185

>  <SMR_VSA3>
93.451576

>  <SMR_VSA4>
0

>  <SMR_VSA5>
244.06406

>  <SMR_VSA6>
36.417187

>  <SMR_VSA7>
199.95609

>  <TPSA>
188.89999

>  <VAdjEq>
0.23951939

>  <VAdjMa>
7

>  <VDistEq>
4.605073

>  <VDistMa>
11.321254

>  <vdw_area>
742.23224

>  <vdw_vol>
1069.0179

>  <vsa_acc>
42.15638

>  <vsa_acid>
0

>  <vsa_base>
0

>  <vsa_don>
0

>  <vsa_hyd>
499.64749

>  <vsa_other>
78.550011

>  <vsa_pol>
96.424065

>  <Weight>
806.987

>  <weinerPath>
16873

>  <weinerPol>
113

>  <zagreb>
328

$$$$