Clc1c2N(C=C(C(O)=O)C(=O)c2cc(F)c1N1CC(N)CC1)C1CC1
  MOE2013           2D

 25 28  0  0  1  0  0  0  0  0999 V2000
    0.0000    0.0000    0.0000 Cl  0  0  0  0  0  0  0  0  0  0  0  0
   -0.7570    1.2950    0.0000 C   0  0  0  0  0  0  0  0  0  0  0  0
   -2.2560    1.2880    0.0000 C   0  0  0  0  0  0  0  0  0  0  0  0
   -3.0000   -0.0150    0.0000 N   0  0  3  0  0  0  0  0  0  0  0  0
   -4.5000   -0.0230    0.0000 C   0  0  0  0  0  0  0  0  0  0  0  0
   -5.2560    1.2730    0.0000 C   0  0  0  0  0  0  0  0  0  0  0  0
   -6.7560    1.2650    0.0000 C   0  0  0  0  0  0  0  0  0  0  0  0
   -7.5130    2.5600    0.0000 O   0  0  0  0  0  0  0  0  0  0  0  0
   -7.5000   -0.0380    0.0000 O   0  0  0  0  0  0  0  0  0  0  0  0
   -4.5130    2.5750    0.0000 C   0  0  0  0  0  0  0  0  0  0  0  0
   -5.2690    3.8710    0.0000 O   0  0  0  0  0  0  0  0  0  0  0  0
   -3.0130    2.5830    0.0000 C   0  0  0  0  0  0  0  0  0  0  0  0
   -2.2700    3.8860    0.0000 C   0  0  0  0  0  0  0  0  0  0  0  0
   -0.7700    3.8930    0.0000 C   0  0  0  0  0  0  0  0  0  0  0  0
   -0.0260    5.1960    0.0000 F   0  0  0  0  0  0  0  0  0  0  0  0
   -0.0130    2.5980    0.0000 C   0  0  0  0  0  0  0  0  0  0  0  0
    1.4870    2.6060    0.0000 N   0  0  3  0  0  0  0  0  0  0  0  0
    2.3630    3.8230    0.0000 C   0  0  0  0  0  0  0  0  0  0  0  0
    3.7910    3.3670    0.0000 C   0  0  3  0  0  0  0  0  0  0  0  0
    5.0010    4.2550    0.0000 N   0  0  0  0  0  0  0  0  0  0  0  0
    3.7990    1.8670    0.0000 C   0  0  0  0  0  0  0  0  0  0  0  0
    2.3750    1.3960    0.0000 C   0  0  0  0  0  0  0  0  0  0  0  0
   -2.2430   -1.3100    0.0000 C   0  0  0  0  0  0  0  0  0  0  0  0
   -2.2360   -2.8100    0.0000 C   0  0  0  0  0  0  0  0  0  0  0  0
   -0.9410   -2.0540    0.0000 C   0  0  0  0  0  0  0  0  0  0  0  0
  1  2  1  0  0  0  0
  2  3  1  0  0  0  0
  2 16  2  0  0  0  0
  3  4  1  0  0  0  0
  3 12  2  0  0  0  0
  4  5  1  0  0  0  0
  4 23  1  0  0  0  0
  5  6  2  0  0  0  0
  6  7  1  0  0  0  0
  6 10  1  0  0  0  0
  7  8  1  0  0  0  0
  7  9  2  0  0  0  0
 10 11  2  0  0  0  0
 10 12  1  0  0  0  0
 12 13  1  0  0  0  0
 13 14  2  0  0  0  0
 14 15  1  0  0  0  0
 14 16  1  0  0  0  0
 16 17  1  0  0  0  0
 17 18  1  0  0  0  0
 17 22  1  0  0  0  0
 18 19  1  0  0  0  0
 19 20  1  0  0  0  0
 19 21  1  0  0  0  0
 21 22  1  0  0  0  0
 23 24  1  0  0  0  0
 23 25  1  0  0  0  0
 24 25  1  0  0  0  0
M  END
>  <Index>
241

>  <ID>
HT0510

>  <class>
0

>  <apol>
49.698483

>  <ast_fraglike>
0

>  <ast_fraglike_ext>
0

>  <ast_violation>
2

>  <ast_violation_ext>
3

>  <a_acc>
4

>  <a_acid>
0

>  <a_aro>
6

>  <a_base>
0

>  <a_count>
42

>  <a_don>
3

>  <a_donacc>
7

>  <a_heavy>
25

>  <a_hyd>
17

>  <a_IC>
77.99382

>  <a_ICM>
1.8569957

>  <a_nB>
0

>  <a_nBr>
0

>  <a_nC>
17

>  <a_nCl>
1

>  <a_nF>
1

>  <a_nH>
17

>  <a_nI>
0

>  <a_nN>
3

>  <a_nO>
3

>  <a_nP>
0

>  <a_nS>
0

>  <balabanJ>
1.6017538

>  <BCUT_PEOE_0>
-2.5229716

>  <BCUT_PEOE_1>
-0.60782522

>  <BCUT_PEOE_2>
0.63276893

>  <BCUT_PEOE_3>
2.7640977

>  <BCUT_SLOGP_0>
-2.7388635

>  <BCUT_SLOGP_1>
-0.56107599

>  <BCUT_SLOGP_2>
0.72337782

>  <BCUT_SLOGP_3>
2.8114896

>  <BCUT_SMR_0>
-2.2675581

>  <BCUT_SMR_1>
-0.4288229

>  <BCUT_SMR_2>
0.77085537

>  <BCUT_SMR_3>
3.0325644

>  <bpol>
25.423519

>  <b_1rotN>
3

>  <b_1rotR>
0.10714286

>  <b_ar>
6

>  <b_count>
45

>  <b_double>
3

>  <b_heavy>
28

>  <b_max1len>
3

>  <b_rotN>
3

>  <b_rotR>
0.10714286

>  <b_single>
36

>  <b_triple>
0

>  <chi0>
17.877951

>  <chi0v>
14.09228

>  <chi0v_C>
9.8449354

>  <chi0_C>
10.72325

>  <chi1>
11.879918

>  <chi1v>
8.5662031

>  <chi1v_C>
5.2490187

>  <chi1_C>
6.1910715

>  <chiral>
1

>  <chiral_u>
1

>  <density>
0.84977764

>  <diameter>
11

>  <FCharge>
0

>  <GCUT_PEOE_0>
-0.83839351

>  <GCUT_PEOE_1>
-0.45686758

>  <GCUT_PEOE_2>
0.096397758

>  <GCUT_PEOE_3>
2.7232547

>  <GCUT_SLOGP_0>
-1.3634539

>  <GCUT_SLOGP_1>
-0.33225676

>  <GCUT_SLOGP_2>
0.21026678

>  <GCUT_SLOGP_3>
2.7794549

>  <GCUT_SMR_0>
-0.5206517

>  <GCUT_SMR_1>
-0.23813619

>  <GCUT_SMR_2>
0.26603281

>  <GCUT_SMR_3>
3.0064542

>  <Kier1>
18.367348

>  <Kier2>
6.8664141

>  <Kier3>
3.0218523

>  <KierA1>
15.009753

>  <KierA2>
5.5611086

>  <KierA3>
2.4309812

>  <KierFlex>
3.3388348

>  <lip_acc>
6

>  <lip_don>
3

>  <lip_druglike>
1

>  <lip_violation>
0

>  <logP(o/w)>
1.626

>  <logS>
-3.5950699

>  <mr>
8.9988441

>  <mutagenic>
0

>  <nmol>
1

>  <opr_brigid>
19

>  <opr_leadlike>
1

>  <opr_nring>
4

>  <opr_nrot>
4

>  <opr_violation>
0

>  <PC+>
0

>  <PC->
0

>  <PEOE_PC+>
2.1032724

>  <PEOE_PC->
-2.1032724

>  <PEOE_RPC+>
0.14069937

>  <PEOE_RPC->
0.15564995

>  <PEOE_VSA+0>
102.81566

>  <PEOE_VSA+1>
26.449621

>  <PEOE_VSA+2>
28.467411

>  <PEOE_VSA+3>
0

>  <PEOE_VSA+4>
18.782692

>  <PEOE_VSA+5>
14.708499

>  <PEOE_VSA+6>
0

>  <PEOE_VSA-0>
38.358845

>  <PEOE_VSA-1>
29.581947

>  <PEOE_VSA-2>
0

>  <PEOE_VSA-3>
0

>  <PEOE_VSA-4>
11.908636

>  <PEOE_VSA-5>
27.133842

>  <PEOE_VSA-6>
14.418659

>  <PEOE_VSA_FHYD>
0.72186452

>  <PEOE_VSA_FNEG>
0.38832983

>  <PEOE_VSA_FPNEG>
0.1710068

>  <PEOE_VSA_FPOL>
0.27813548

>  <PEOE_VSA_FPOS>
0.6116702

>  <PEOE_VSA_FPPOS>
0.10712869

>  <PEOE_VSA_HYD>
225.67348

>  <PEOE_VSA_NEG>
121.40192

>  <PEOE_VSA_PNEG>
53.461136

>  <PEOE_VSA_POL>
86.952332

>  <PEOE_VSA_POS>
191.22388

>  <PEOE_VSA_PPOS>
33.491192

>  <petitjean>
0.45454547

>  <petitjeanSC>
0.83333331

>  <Q_PC+>
0

>  <Q_PC->
0

>  <Q_RPC+>
0

>  <Q_RPC->
0

>  <Q_VSA_FHYD>
1

>  <Q_VSA_FNEG>
0

>  <Q_VSA_FPNEG>
0

>  <Q_VSA_FPOL>
0

>  <Q_VSA_FPOS>
1

>  <Q_VSA_FPPOS>
0

>  <Q_VSA_HYD>
312.62579

>  <Q_VSA_NEG>
0

>  <Q_VSA_PNEG>
0

>  <Q_VSA_POL>
0

>  <Q_VSA_POS>
312.62579

>  <Q_VSA_PPOS>
0

>  <radius>
6

>  <reactive>
0

>  <rings>
4

>  <RPC+>
0

>  <RPC->
0

>  <rsynth>
0.60000002

>  <SlogP>
2.1501

>  <SlogP_VSA0>
39.145817

>  <SlogP_VSA1>
13.433075

>  <SlogP_VSA2>
40.94717

>  <SlogP_VSA3>
62.264381

>  <SlogP_VSA4>
27.047791

>  <SlogP_VSA5>
3.185575

>  <SlogP_VSA6>
3.5006065

>  <SlogP_VSA7>
34.85754

>  <SlogP_VSA8>
56.605217

>  <SlogP_VSA9>
59.622253

>  <SMR>
9.1765699

>  <SMR_VSA0>
47.724434

>  <SMR_VSA1>
14.960114

>  <SMR_VSA2>
40.754871

>  <SMR_VSA3>
17.835693

>  <SMR_VSA4>
38.410683

>  <SMR_VSA5>
91.462761

>  <SMR_VSA6>
50.312233

>  <SMR_VSA7>
39.148643

>  <TPSA>
86.870003

>  <VAdjEq>
0.43513325

>  <VAdjMa>
5.8073549

>  <VDistEq>
3.1459031

>  <VDistMa>
9.0316296

>  <vdw_area>
312.62579

>  <vdw_vol>
430.45615

>  <vsa_acc>
13.566921

>  <vsa_acid>
0

>  <vsa_base>
0

>  <vsa_don>
0

>  <vsa_hyd>
210.37895

>  <vsa_other>
23.167019

>  <vsa_pol>
58.443253

>  <Weight>
365.79199

>  <weinerPath>
1334

>  <weinerPol>
46

>  <zagreb>
142

$$$$