Clc1ccc(cc1)CC(N)(C)C
  MOE2013           2D

 12 12  0  0  0  0  0  0  0  0999 V2000
    0.0000    0.0000    0.0000 Cl  0  0  0  0  0  0  0  0  0  0  0  0
   -1.5000    0.0070    0.0000 C   0  0  0  0  0  0  0  0  0  0  0  0
   -2.2560   -1.2890    0.0000 C   0  0  0  0  0  0  0  0  0  0  0  0
   -3.7560   -1.2820    0.0000 C   0  0  0  0  0  0  0  0  0  0  0  0
   -4.5000    0.0200    0.0000 C   0  0  0  0  0  0  0  0  0  0  0  0
   -3.7440    1.3160    0.0000 C   0  0  0  0  0  0  0  0  0  0  0  0
   -2.2440    1.3090    0.0000 C   0  0  0  0  0  0  0  0  0  0  0  0
   -6.0000    0.0270    0.0000 C   0  0  0  0  0  0  0  0  0  0  0  0
   -6.7560   -1.2690    0.0000 C   0  0  0  0  0  0  0  0  0  0  0  0
   -7.5120   -2.5640    0.0000 N   0  0  0  0  0  0  0  0  0  0  0  0
   -5.4600   -2.0240    0.0000 C   0  0  0  0  0  0  0  0  0  0  0  0
   -8.0510   -0.5130    0.0000 C   0  0  0  0  0  0  0  0  0  0  0  0
  1  2  1  0  0  0  0
  2  3  1  0  0  0  0
  2  7  2  0  0  0  0
  3  4  2  0  0  0  0
  4  5  1  0  0  0  0
  5  6  2  0  0  0  0
  5  8  1  0  0  0  0
  6  7  1  0  0  0  0
  8  9  1  0  0  0  0
  9 10  1  0  0  0  0
  9 11  1  0  0  0  0
  9 12  1  0  0  0  0
M  END
>  <Index>
221

>  <ID>
HT0467

>  <class>
0

>  <apol>
30.215101

>  <ast_fraglike>
1

>  <ast_fraglike_ext>
1

>  <ast_violation>
0

>  <ast_violation_ext>
0

>  <a_acc>
1

>  <a_acid>
0

>  <a_aro>
6

>  <a_base>
0

>  <a_count>
26

>  <a_don>
1

>  <a_donacc>
2

>  <a_heavy>
12

>  <a_hyd>
11

>  <a_IC>
35.689182

>  <a_ICM>
1.3726609

>  <a_nB>
0

>  <a_nBr>
0

>  <a_nC>
10

>  <a_nCl>
1

>  <a_nF>
0

>  <a_nH>
14

>  <a_nI>
0

>  <a_nN>
1

>  <a_nO>
0

>  <a_nP>
0

>  <a_nS>
0

>  <balabanJ>
2.2872596

>  <BCUT_PEOE_0>
-2.6619854

>  <BCUT_PEOE_1>
-0.36330786

>  <BCUT_PEOE_2>
0.40588865

>  <BCUT_PEOE_3>
2.5995722

>  <BCUT_SLOGP_0>
-2.7856231

>  <BCUT_SLOGP_1>
-0.15535757

>  <BCUT_SLOGP_2>
0.60867655

>  <BCUT_SLOGP_3>
2.5963893

>  <BCUT_SMR_0>
-2.3952322

>  <BCUT_SMR_1>
-0.12748082

>  <BCUT_SMR_2>
0.63664776

>  <BCUT_SMR_3>
2.8644726

>  <bpol>
15.064898

>  <b_1rotN>
2

>  <b_1rotR>
0.16666667

>  <b_ar>
6

>  <b_count>
26

>  <b_double>
0

>  <b_heavy>
12

>  <b_max1len>
4

>  <b_rotN>
2

>  <b_rotR>
0.16666667

>  <b_single>
20

>  <b_triple>
0

>  <chi0>
9.1902342

>  <chi0v>
8.2277517

>  <chi0v_C>
6.5165076

>  <chi0_C>
7.1902347

>  <chi1>
5.4721451

>  <chi1v>
4.3840957

>  <chi1v_C>
3.5284741

>  <chi1_C>
4.3947949

>  <chiral>
0

>  <chiral_u>
0

>  <density>
0.71412146

>  <diameter>
7

>  <FCharge>
0

>  <GCUT_PEOE_0>
-0.83851731

>  <GCUT_PEOE_1>
-0.32570753

>  <GCUT_PEOE_2>
-0.0020454014

>  <GCUT_PEOE_3>
2.3757415

>  <GCUT_SLOGP_0>
-1.3633653

>  <GCUT_SLOGP_1>
-0.19910552

>  <GCUT_SLOGP_2>
0.12770256

>  <GCUT_SLOGP_3>
2.4560251

>  <GCUT_SMR_0>
-0.52100337

>  <GCUT_SMR_1>
-0.06924054

>  <GCUT_SMR_2>
0.12280161

>  <GCUT_SMR_3>
2.6394095

>  <Kier1>
10.083333

>  <Kier2>
3.8062284

>  <Kier3>
4

>  <KierA1>
9.2413359

>  <KierA2>
3.4584944

>  <KierA3>
3.6100423

>  <KierFlex>
2.6634259

>  <lip_acc>
1

>  <lip_don>
2

>  <lip_druglike>
1

>  <lip_violation>
0

>  <logP(o/w)>
2.711

>  <logS>
-2.49998

>  <mr>
5.3062229

>  <mutagenic>
0

>  <nmol>
1

>  <opr_brigid>
6

>  <opr_leadlike>
1

>  <opr_nring>
1

>  <opr_nrot>
2

>  <opr_violation>
0

>  <PC+>
0

>  <PC->
0

>  <PEOE_PC+>
0.75837004

>  <PEOE_PC->
-0.75837004

>  <PEOE_RPC+>
0.15654351

>  <PEOE_RPC->
0.42829126

>  <PEOE_VSA+0>
38.642834

>  <PEOE_VSA+1>
17.061544

>  <PEOE_VSA+2>
17.238026

>  <PEOE_VSA+3>
0

>  <PEOE_VSA+4>
0

>  <PEOE_VSA+5>
0

>  <PEOE_VSA+6>
0

>  <PEOE_VSA-0>
72.915016

>  <PEOE_VSA-1>
54.091755

>  <PEOE_VSA-2>
0

>  <PEOE_VSA-3>
0

>  <PEOE_VSA-4>
0

>  <PEOE_VSA-5>
0

>  <PEOE_VSA-6>
6.6511192

>  <PEOE_VSA_FHYD>
0.96780682

>  <PEOE_VSA_FNEG>
0.64693952

>  <PEOE_VSA_FPNEG>
0.032193176

>  <PEOE_VSA_FPOL>
0.032193176

>  <PEOE_VSA_FPOS>
0.35306051

>  <PEOE_VSA_FPPOS>
0

>  <PEOE_VSA_HYD>
199.94917

>  <PEOE_VSA_NEG>
133.65788

>  <PEOE_VSA_PNEG>
6.6511192

>  <PEOE_VSA_POL>
6.6511192

>  <PEOE_VSA_POS>
72.942406

>  <PEOE_VSA_PPOS>
0

>  <petitjean>
0.42857143

>  <petitjeanSC>
0.75

>  <Q_PC+>
0

>  <Q_PC->
0

>  <Q_RPC+>
0

>  <Q_RPC->
0

>  <Q_VSA_FHYD>
1

>  <Q_VSA_FNEG>
0

>  <Q_VSA_FPNEG>
0

>  <Q_VSA_FPOL>
0

>  <Q_VSA_FPOS>
1

>  <Q_VSA_FPPOS>
0

>  <Q_VSA_HYD>
206.6003

>  <Q_VSA_NEG>
0

>  <Q_VSA_PNEG>
0

>  <Q_VSA_POL>
0

>  <Q_VSA_POS>
206.6003

>  <Q_VSA_PPOS>
0

>  <radius>
4

>  <reactive>
0

>  <rings>
1

>  <RPC+>
0

>  <RPC->
0

>  <rsynth>
1

>  <SlogP>
2.6197701

>  <SlogP_VSA0>
32.897186

>  <SlogP_VSA1>
0

>  <SlogP_VSA2>
0

>  <SlogP_VSA3>
0

>  <SlogP_VSA4>
3.185575

>  <SlogP_VSA5>
18.868406

>  <SlogP_VSA6>
3.5006065

>  <SlogP_VSA7>
70.572739

>  <SlogP_VSA8>
0

>  <SlogP_VSA9>
105.80067

>  <SMR>
5.3422399

>  <SMR_VSA0>
0

>  <SMR_VSA1>
0

>  <SMR_VSA2>
0

>  <SMR_VSA3>
6.6861815

>  <SMR_VSA4>
32.897186

>  <SMR_VSA5>
89.441139

>  <SMR_VSA6>
0

>  <SMR_VSA7>
105.80067

>  <TPSA>
26.02

>  <VAdjEq>
0.65002245

>  <VAdjMa>
4.5849624

>  <VDistEq>
2.6277254

>  <VDistMa>
6.8339248

>  <vdw_area>
206.6003

>  <vdw_vol>
257.21393

>  <vsa_acc>
0

>  <vsa_acid>
0

>  <vsa_base>
0

>  <vsa_don>
0

>  <vsa_hyd>
174.1696

>  <vsa_other>
0

>  <vsa_pol>
17.742489

>  <Weight>
183.68199

>  <weinerPath>
207

>  <weinerPol>
12

>  <zagreb>
58

$$$$