P(OCC1OC(n2c3ncnc(N)c3nc2)C(O)C1O)(O)(O)=O
  MOE2013           2D

 23 25  0  0  1  0  0  0  0  0999 V2000
    0.0000    0.0000    0.0000 P   0  0  0  0  0  0  0  0  0  0  0  0
    1.2990    0.7500    0.0000 O   0  0  0  0  0  0  0  0  0  0  0  0
    2.5980   -0.0010    0.0000 C   0  0  0  0  0  0  0  0  0  0  0  0
    3.8970    0.7490    0.0000 C   0  0  3  0  0  0  0  0  0  0  0  0
    5.2670    0.1380    0.0000 O   0  0  0  0  0  0  0  0  0  0  0  0
    6.2720    1.2520    0.0000 C   0  0  3  0  0  0  0  0  0  0  0  0
    7.7630    1.0950    0.0000 N   0  0  0  0  0  0  0  0  0  0  0  0
    8.5130   -0.2040    0.0000 C   0  0  0  0  0  0  0  0  0  0  0  0
    8.0490   -1.6310    0.0000 N   0  0  0  0  0  0  0  0  0  0  0  0
    9.0520   -2.7460    0.0000 C   0  0  0  0  0  0  0  0  0  0  0  0
   10.5190   -2.4340    0.0000 N   0  0  0  0  0  0  0  0  0  0  0  0
   10.9830   -1.0080    0.0000 C   0  0  0  0  0  0  0  0  0  0  0  0
   12.4510   -0.6970    0.0000 N   0  0  0  0  0  0  0  0  0  0  0  0
    9.9800    0.1070    0.0000 C   0  0  0  0  0  0  0  0  0  0  0  0
   10.1370    1.5990    0.0000 N   0  0  0  0  0  0  0  0  0  0  0  0
    8.7670    2.2090    0.0000 C   0  0  0  0  0  0  0  0  0  0  0  0
    5.5220    2.5520    0.0000 C   0  0  3  0  0  0  0  0  0  0  0  0
    6.1330    3.9220    0.0000 O   0  0  0  0  0  0  0  0  0  0  0  0
    4.0550    2.2400    0.0000 C   0  0  3  0  0  0  0  0  0  0  0  0
    2.9400    3.2440    0.0000 O   0  0  0  0  0  0  0  0  0  0  0  0
    0.7500   -1.2990    0.0000 O   0  0  0  0  0  0  0  0  0  0  0  0
   -0.7500    1.2990    0.0000 O   0  0  0  0  0  0  0  0  0  0  0  0
   -1.2990   -0.7500    0.0000 O   0  0  0  0  0  0  0  0  0  0  0  0
  1  2  1  0  0  0  0
  1 21  1  0  0  0  0
  1 22  1  0  0  0  0
  1 23  2  0  0  0  0
  2  3  1  0  0  0  0
  3  4  1  0  0  0  0
  4  5  1  0  0  0  0
  4 19  1  0  0  0  0
  5  6  1  0  0  0  0
  6  7  1  0  0  0  0
  6 17  1  0  0  0  0
  7  8  1  0  0  0  0
  7 16  1  0  0  0  0
  8  9  1  0  0  0  0
  8 14  2  0  0  0  0
  9 10  2  0  0  0  0
 10 11  1  0  0  0  0
 11 12  2  0  0  0  0
 12 13  1  0  0  0  0
 12 14  1  0  0  0  0
 14 15  1  0  0  0  0
 15 16  2  0  0  0  0
 17 18  1  0  0  0  0
 17 19  1  0  0  0  0
 19 20  1  0  0  0  0
M  END
>  <Index>
29

>  <ID>
HT0075

>  <class>
0

>  <apol>
41.679104

>  <ast_fraglike>
0

>  <ast_fraglike_ext>
0

>  <ast_violation>
3

>  <ast_violation_ext>
5

>  <a_acc>
10

>  <a_acid>
0

>  <a_aro>
9

>  <a_base>
0

>  <a_count>
37

>  <a_don>
6

>  <a_donacc>
16

>  <a_heavy>
23

>  <a_hyd>
5

>  <a_IC>
74.9664

>  <a_ICM>
2.026119

>  <a_nB>
0

>  <a_nBr>
0

>  <a_nC>
10

>  <a_nCl>
0

>  <a_nF>
0

>  <a_nH>
14

>  <a_nI>
0

>  <a_nN>
5

>  <a_nO>
7

>  <a_nP>
1

>  <a_nS>
0

>  <balabanJ>
1.6438383

>  <BCUT_PEOE_0>
-2.5205369

>  <BCUT_PEOE_1>
-0.63363892

>  <BCUT_PEOE_2>
0.74876118

>  <BCUT_PEOE_3>
2.7749698

>  <BCUT_SLOGP_0>
-2.7073989

>  <BCUT_SLOGP_1>
-0.75900495

>  <BCUT_SLOGP_2>
0.54075956

>  <BCUT_SLOGP_3>
2.6564052

>  <BCUT_SMR_0>
-2.3260813

>  <BCUT_SMR_1>
-0.47461292

>  <BCUT_SMR_2>
0.84285092

>  <BCUT_SMR_3>
2.9656086

>  <bpol>
32.854897

>  <b_1rotN>
4

>  <b_1rotR>
0.16

>  <b_ar>
10

>  <b_count>
39

>  <b_double>
0

>  <b_heavy>
25

>  <b_max1len>
6

>  <b_rotN>
4

>  <b_rotR>
0.16

>  <b_single>
29

>  <b_triple>
0

>  <chi0>
16.775656

>  <chi0v>
12.392653

>  <chi0v_C>
5.6712084

>  <chi0_C>
6.1627722

>  <chi1>
10.776675

>  <chi1v>
7.9542675

>  <chi1v_C>
1.9082483

>  <chi1_C>
2.0749149

>  <chiral>
4

>  <chiral_u>
4

>  <density>
0.95816207

>  <diameter>
11

>  <FCharge>
0

>  <GCUT_PEOE_0>
-0.80443054

>  <GCUT_PEOE_1>
-0.42844057

>  <GCUT_PEOE_2>
0.16416167

>  <GCUT_PEOE_3>
2.6307256

>  <GCUT_SLOGP_0>
-1.3347261

>  <GCUT_SLOGP_1>
-0.6301105

>  <GCUT_SLOGP_2>
0.0067596338

>  <GCUT_SLOGP_3>
2.5930076

>  <GCUT_SMR_0>
-0.52579701

>  <GCUT_SMR_1>
-0.23584759

>  <GCUT_SMR_2>
0.2483798

>  <GCUT_SMR_3>
2.8567927

>  <Kier1>
17.811199

>  <Kier2>
6.7188368

>  <Kier3>
3.6651394

>  <KierA1>
15.619752

>  <KierA2>
5.8551416

>  <KierA3>
3.1787784

>  <KierFlex>
3.9763417

>  <lip_acc>
12

>  <lip_don>
6

>  <lip_druglike>
0

>  <lip_violation>
2

>  <logP(o/w)>
-3.20594

>  <logS>
-0.75026

>  <mr>
7.5702567

>  <mutagenic>
1

>  <nmol>
1

>  <opr_brigid>
15

>  <opr_leadlike>
0

>  <opr_nring>
3

>  <opr_nrot>
5

>  <opr_violation>
2

>  <PC+>
0

>  <PC->
0

>  <PEOE_PC+>
3.301826

>  <PEOE_PC->
-3.301826

>  <PEOE_RPC+>
0.12450143

>  <PEOE_RPC->
0.11704475

>  <PEOE_VSA+0>
8.5307722

>  <PEOE_VSA+1>
32.012836

>  <PEOE_VSA+2>
100.84755

>  <PEOE_VSA+3>
41.234848

>  <PEOE_VSA+4>
20.648346

>  <PEOE_VSA+5>
0

>  <PEOE_VSA+6>
18.713068

>  <PEOE_VSA-0>
0

>  <PEOE_VSA-1>
0

>  <PEOE_VSA-2>
15.729136

>  <PEOE_VSA-3>
0

>  <PEOE_VSA-4>
17.047728

>  <PEOE_VSA-5>
31.176603

>  <PEOE_VSA-6>
18.038837

>  <PEOE_VSA_FHYD>
0.65252757

>  <PEOE_VSA_FNEG>
0.26972952

>  <PEOE_VSA_FPNEG>
0.21798548

>  <PEOE_VSA_FPOL>
0.34747246

>  <PEOE_VSA_FPOS>
0.7302705

>  <PEOE_VSA_FPPOS>
0.12948696

>  <PEOE_VSA_HYD>
198.35515

>  <PEOE_VSA_NEG>
81.992302

>  <PEOE_VSA_PNEG>
66.263168

>  <PEOE_VSA_POL>
105.62458

>  <PEOE_VSA_POS>
221.98743

>  <PEOE_VSA_PPOS>
39.361416

>  <petitjean>
0.45454547

>  <petitjeanSC>
0.83333331

>  <Q_PC+>
0

>  <Q_PC->
0

>  <Q_RPC+>
0

>  <Q_RPC->
0

>  <Q_VSA_FHYD>
1

>  <Q_VSA_FNEG>
0

>  <Q_VSA_FPNEG>
0

>  <Q_VSA_FPOL>
0

>  <Q_VSA_FPOS>
1

>  <Q_VSA_FPPOS>
0

>  <Q_VSA_HYD>
303.97974

>  <Q_VSA_NEG>
0

>  <Q_VSA_PNEG>
0

>  <Q_VSA_POL>
0

>  <Q_VSA_POS>
303.97974

>  <Q_VSA_PPOS>
0

>  <radius>
6

>  <reactive>
1

>  <rings>
3

>  <RPC+>
0

>  <RPC->
0

>  <rsynth>
1

>  <SlogP>
-2.8376999

>  <SlogP_VSA0>
148.71535

>  <SlogP_VSA1>
52.25568

>  <SlogP_VSA2>
37.327465

>  <SlogP_VSA3>
20.926258

>  <SlogP_VSA4>
0

>  <SlogP_VSA5>
0

>  <SlogP_VSA6>
0

>  <SlogP_VSA7>
37.430504

>  <SlogP_VSA8>
6.0398216

>  <SlogP_VSA9>
19.02276

>  <SMR>
7.30796

>  <SMR_VSA0>
40.355282

>  <SMR_VSA1>
145.64008

>  <SMR_VSA2>
0

>  <SMR_VSA3>
25.44577

>  <SMR_VSA4>
6.187367

>  <SMR_VSA5>
66.468246

>  <SMR_VSA6>
20.926258

>  <SMR_VSA7>
16.694841

>  <TPSA>
186.07001

>  <VAdjEq>
0.45137304

>  <VAdjMa>
5.643856

>  <VDistEq>
3.2866275

>  <VDistMa>
8.7503777

>  <vdw_area>
303.97974

>  <vdw_vol>
362.38547

>  <vsa_acc>
24.217457

>  <vsa_acid>
0

>  <vsa_base>
0

>  <vsa_don>
17.742489

>  <vsa_hyd>
54.133583

>  <vsa_other>
103.62476

>  <vsa_pol>
116.2812

>  <Weight>
347.224

>  <weinerPath>
1191

>  <weinerPol>
36

>  <zagreb>
126

$$$$