O(CCCCc1nnnn1C1CCCCC1)c1cc2CCC(=O)Nc2cc1
  MOE2013           2D

 27 30  0  0  0  0  0  0  0  0999 V2000
    0.0000    0.0000    0.0000 O   0  0  0  0  0  0  0  0  0  0  0  0
   -1.2930    0.7600    0.0000 C   0  0  0  0  0  0  0  0  0  0  0  0
   -2.5980    0.0200    0.0000 C   0  0  0  0  0  0  0  0  0  0  0  0
   -3.8910    0.7800    0.0000 C   0  0  0  0  0  0  0  0  0  0  0  0
   -5.1960    0.0400    0.0000 C   0  0  0  0  0  0  0  0  0  0  0  0
   -6.4890    0.8000    0.0000 C   0  0  0  0  0  0  0  0  0  0  0  0
   -6.6340    2.2930    0.0000 N   0  0  0  0  0  0  0  0  0  0  0  0
   -8.0990    2.6160    0.0000 N   0  0  0  0  0  0  0  0  0  0  0  0
   -8.8590    1.3230    0.0000 N   0  0  0  0  0  0  0  0  0  0  0  0
   -7.8640    0.2010    0.0000 N   0  0  0  0  0  0  0  0  0  0  0  0
   -8.1870   -1.2640    0.0000 C   0  0  0  0  0  0  0  0  0  0  0  0
   -9.6180   -1.7160    0.0000 C   0  0  0  0  0  0  0  0  0  0  0  0
   -9.9410   -3.1810    0.0000 C   0  0  0  0  0  0  0  0  0  0  0  0
   -8.8340   -4.1940    0.0000 C   0  0  0  0  0  0  0  0  0  0  0  0
   -7.4040   -3.7410    0.0000 C   0  0  0  0  0  0  0  0  0  0  0  0
   -7.0800   -2.2760    0.0000 C   0  0  0  0  0  0  0  0  0  0  0  0
    1.3050    0.7400    0.0000 C   0  0  0  0  0  0  0  0  0  0  0  0
    2.5980   -0.0200    0.0000 C   0  0  0  0  0  0  0  0  0  0  0  0
    3.9030    0.7200    0.0000 C   0  0  0  0  0  0  0  0  0  0  0  0
    5.1960   -0.0400    0.0000 C   0  0  0  0  0  0  0  0  0  0  0  0
    6.5010    0.7000    0.0000 C   0  0  0  0  0  0  0  0  0  0  0  0
    6.5120    2.2000    0.0000 C   0  0  0  0  0  0  0  0  0  0  0  0
    7.8170    2.9400    0.0000 O   0  0  0  0  0  0  0  0  0  0  0  0
    5.2190    2.9600    0.0000 N   0  0  0  0  0  0  0  0  0  0  0  0
    3.9140    2.2200    0.0000 C   0  0  0  0  0  0  0  0  0  0  0  0
    2.6210    2.9800    0.0000 C   0  0  0  0  0  0  0  0  0  0  0  0
    1.3160    2.2400    0.0000 C   0  0  0  0  0  0  0  0  0  0  0  0
  1  2  1  0  0  0  0
  1 17  1  0  0  0  0
  2  3  1  0  0  0  0
  3  4  1  0  0  0  0
  4  5  1  0  0  0  0
  5  6  1  0  0  0  0
  6  7  2  0  0  0  0
  6 10  1  0  0  0  0
  7  8  1  0  0  0  0
  8  9  2  0  0  0  0
  9 10  1  0  0  0  0
 10 11  1  0  0  0  0
 11 12  1  0  0  0  0
 11 16  1  0  0  0  0
 12 13  1  0  0  0  0
 13 14  1  0  0  0  0
 14 15  1  0  0  0  0
 15 16  1  0  0  0  0
 17 18  1  0  0  0  0
 17 27  2  0  0  0  0
 18 19  2  0  0  0  0
 19 20  1  0  0  0  0
 19 25  1  0  0  0  0
 20 21  1  0  0  0  0
 21 22  1  0  0  0  0
 22 23  2  0  0  0  0
 22 24  1  0  0  0  0
 24 25  1  0  0  0  0
 25 26  2  0  0  0  0
 26 27  1  0  0  0  0
M  END
>  <Index>
229

>  <ID>
HT0485

>  <class>
0

>  <apol>
60.307411

>  <ast_fraglike>
0

>  <ast_fraglike_ext>
0

>  <ast_violation>
3

>  <ast_violation_ext>
4

>  <a_acc>
5

>  <a_acid>
0

>  <a_aro>
11

>  <a_base>
0

>  <a_count>
54

>  <a_don>
1

>  <a_donacc>
6

>  <a_heavy>
27

>  <a_hyd>
18

>  <a_IC>
82.333763

>  <a_ICM>
1.5246992

>  <a_nB>
0

>  <a_nBr>
0

>  <a_nC>
20

>  <a_nCl>
0

>  <a_nF>
0

>  <a_nH>
27

>  <a_nI>
0

>  <a_nN>
5

>  <a_nO>
2

>  <a_nP>
0

>  <a_nS>
0

>  <balabanJ>
1.099682

>  <BCUT_PEOE_0>
-2.7680881

>  <BCUT_PEOE_1>
-0.55950344

>  <BCUT_PEOE_2>
0.45655435

>  <BCUT_PEOE_3>
2.7307701

>  <BCUT_SLOGP_0>
-2.6235137

>  <BCUT_SLOGP_1>
-0.51360315

>  <BCUT_SLOGP_2>
0.54304057

>  <BCUT_SLOGP_3>
2.8843625

>  <BCUT_SMR_0>
-2.5228314

>  <BCUT_SMR_1>
-0.36811876

>  <BCUT_SMR_2>
0.65596485

>  <BCUT_SMR_3>
2.9762321

>  <bpol>
35.03059

>  <b_1rotN>
7

>  <b_1rotR>
0.23333333

>  <b_ar>
11

>  <b_count>
57

>  <b_double>
1

>  <b_heavy>
30

>  <b_max1len>
5

>  <b_rotN>
7

>  <b_rotR>
0.23333333

>  <b_single>
45

>  <b_triple>
0

>  <chi0>
18.47648

>  <chi0v>
15.692926

>  <chi0v_C>
12.587576

>  <chi0_C>
13.363597

>  <chi1>
13.292827

>  <chi1v>
10.117527

>  <chi1v_C>
7.6151905

>  <chi1_C>
8.5075684

>  <chiral>
0

>  <chiral_u>
0

>  <density>
0.72867578

>  <diameter>
17

>  <FCharge>
0

>  <GCUT_PEOE_0>
-0.81284672

>  <GCUT_PEOE_1>
-0.41393608

>  <GCUT_PEOE_2>
0.0056607616

>  <GCUT_PEOE_3>
2.7283082

>  <GCUT_SLOGP_0>
-0.99888182

>  <GCUT_SLOGP_1>
-0.32042181

>  <GCUT_SLOGP_2>
0.10493679

>  <GCUT_SLOGP_3>
2.8179073

>  <GCUT_SMR_0>
-0.53064835

>  <GCUT_SMR_1>
-0.22838004

>  <GCUT_SMR_2>
0.1848453

>  <GCUT_SMR_3>
2.9639127

>  <Kier1>
20.280001

>  <Kier2>
10.15625

>  <Kier3>
5.5384617

>  <KierA1>
15.881892

>  <KierA2>
7.87392

>  <KierA3>
4.2617769

>  <KierFlex>
4.6315832

>  <lip_acc>
7

>  <lip_don>
1

>  <lip_druglike>
1

>  <lip_violation>
0

>  <logP(o/w)>
2.5840001

>  <logS>
-3.0836

>  <mr>
10.416666

>  <mutagenic>
0

>  <nmol>
1

>  <opr_brigid>
22

>  <opr_leadlike>
1

>  <opr_nring>
4

>  <opr_nrot>
9

>  <opr_violation>
0

>  <PC+>
0

>  <PC->
0

>  <PEOE_PC+>
1.7683507

>  <PEOE_PC->
-1.7683507

>  <PEOE_RPC+>
0.12754889

>  <PEOE_RPC->
0.19491757

>  <PEOE_VSA+0>
109.4099

>  <PEOE_VSA+1>
52.14809

>  <PEOE_VSA+2>
0

>  <PEOE_VSA+3>
19.809576

>  <PEOE_VSA+4>
12.949531

>  <PEOE_VSA+5>
0

>  <PEOE_VSA+6>
0

>  <PEOE_VSA-0>
108.79882

>  <PEOE_VSA-1>
26.103939

>  <PEOE_VSA-2>
9.4210396

>  <PEOE_VSA-3>
0

>  <PEOE_VSA-4>
0

>  <PEOE_VSA-5>
13.566921

>  <PEOE_VSA-6>
2.6406472

>  <PEOE_VSA_FHYD>
0.91783226

>  <PEOE_VSA_FNEG>
0.45239416

>  <PEOE_VSA_FPNEG>
0.045674618

>  <PEOE_VSA_FPOL>
0.082167745

>  <PEOE_VSA_FPOS>
0.54760587

>  <PEOE_VSA_FPPOS>
0.03649313

>  <PEOE_VSA_HYD>
325.69138

>  <PEOE_VSA_NEG>
160.53137

>  <PEOE_VSA_PNEG>
16.207567

>  <PEOE_VSA_POL>
29.157099

>  <PEOE_VSA_POS>
194.31709

>  <PEOE_VSA_PPOS>
12.949531

>  <petitjean>
0.47058824

>  <petitjeanSC>
0.8888889

>  <Q_PC+>
0

>  <Q_PC->
0

>  <Q_RPC+>
0

>  <Q_RPC->
0

>  <Q_VSA_FHYD>
1

>  <Q_VSA_FNEG>
0

>  <Q_VSA_FPNEG>
0

>  <Q_VSA_FPOL>
0

>  <Q_VSA_FPOS>
1

>  <Q_VSA_FPPOS>
0

>  <Q_VSA_HYD>
354.84845

>  <Q_VSA_NEG>
0

>  <Q_VSA_PNEG>
0

>  <Q_VSA_POL>
0

>  <Q_VSA_POS>
354.84845

>  <Q_VSA_PPOS>
0

>  <radius>
9

>  <reactive>
0

>  <rings>
4

>  <RPC+>
0

>  <RPC->
0

>  <rsynth>
1

>  <SlogP>
3.5601399

>  <SlogP_VSA0>
10.999887

>  <SlogP_VSA1>
74.790085

>  <SlogP_VSA2>
23.862217

>  <SlogP_VSA3>
20.926258

>  <SlogP_VSA4>
5.513495

>  <SlogP_VSA5>
37.736813

>  <SlogP_VSA6>
0

>  <SlogP_VSA7>
52.929554

>  <SlogP_VSA8>
154.92921

>  <SlogP_VSA9>
8.0001755

>  <SMR>
10.18757

>  <SMR_VSA0>
23.862217

>  <SMR_VSA1>
62.520435

>  <SMR_VSA2>
0

>  <SMR_VSA3>
14.738892

>  <SMR_VSA4>
20.767498

>  <SMR_VSA5>
241.6136

>  <SMR_VSA6>
26.185041

>  <SMR_VSA7>
0

>  <TPSA>
81.93

>  <VAdjEq>
0.41024774

>  <VAdjMa>
5.9068904

>  <VDistEq>
3.8453016

>  <VDistMa>
9.1583252

>  <vdw_area>
354.84845

>  <vdw_vol>
507.04169

>  <vsa_acc>
51.810722

>  <vsa_acid>
0

>  <vsa_base>
0

>  <vsa_don>
5.6825762

>  <vsa_hyd>
251.63507

>  <vsa_other>
24.140093

>  <vsa_pol>
57.493298

>  <Weight>
369.46899

>  <weinerPath>
2301

>  <weinerPol>
38

>  <zagreb>
140

$$$$