S1[C@H]2N(C(C(O)=O)=C(C1)CSc1nnnn1C)C(=O)[C@@]2(OC)NC(=O)CSCC#N
  MOE2013           2D

 30 32  0  0  1  0  0  0  0  0999 V2000
    0.0000    0.0000    0.0000 S   0  0  0  0  0  0  0  0  0  0  0  0
    0.7500   -1.2990    0.0000 C   0  0  1  0  0  0  0  0  0  0  0  0
   -0.0010   -2.5980    0.0000 N   0  0  0  0  0  0  0  0  0  0  0  0
   -1.5010   -2.5980    0.0000 C   0  0  0  0  0  0  0  0  0  0  0  0
   -2.2510   -3.8970    0.0000 C   0  0  0  0  0  0  0  0  0  0  0  0
   -3.7510   -3.8960    0.0000 O   0  0  0  0  0  0  0  0  0  0  0  0
   -1.5010   -5.1960    0.0000 O   0  0  0  0  0  0  0  0  0  0  0  0
   -2.2500   -1.2990    0.0000 C   0  0  0  0  0  0  0  0  0  0  0  0
   -1.5000    0.0000    0.0000 C   0  0  0  0  0  0  0  0  0  0  0  0
   -3.7500   -1.2980    0.0000 C   0  0  0  0  0  0  0  0  0  0  0  0
   -4.5000    0.0010    0.0000 S   0  0  0  0  0  0  0  0  0  0  0  0
   -6.0000    0.0010    0.0000 C   0  0  0  0  0  0  0  0  0  0  0  0
   -6.8820   -1.2120    0.0000 N   0  0  0  0  0  0  0  0  0  0  0  0
   -8.3080   -0.7480    0.0000 N   0  0  0  0  0  0  0  0  0  0  0  0
   -8.3080    0.7520    0.0000 N   0  0  0  0  0  0  0  0  0  0  0  0
   -6.8810    1.2150    0.0000 N   0  0  0  0  0  0  0  0  0  0  0  0
   -6.4180    2.6420    0.0000 C   0  0  0  0  0  0  0  0  0  0  0  0
    1.2980   -3.3480    0.0000 C   0  0  0  0  0  0  0  0  0  0  0  0
    1.6860   -4.7970    0.0000 O   0  0  0  0  0  0  0  0  0  0  0  0
    2.0490   -2.0500    0.0000 C   0  0  2  0  0  0  0  0  0  0  0  0
    3.4690   -2.5320    0.0000 O   0  0  0  0  0  0  0  0  0  0  0  0
    3.7610   -4.0030    0.0000 C   0  0  0  0  0  0  0  0  0  0  0  0
    3.0380   -0.9220    0.0000 N   0  0  0  0  0  0  0  0  0  0  0  0
    4.5090   -1.2150    0.0000 C   0  0  0  0  0  0  0  0  0  0  0  0
    4.9910   -2.6350    0.0000 O   0  0  0  0  0  0  0  0  0  0  0  0
    5.4980   -0.0870    0.0000 C   0  0  0  0  0  0  0  0  0  0  0  0
    6.9690   -0.3800    0.0000 S   0  0  0  0  0  0  0  0  0  0  0  0
    7.9590    0.7470    0.0000 C   0  0  0  0  0  0  0  0  0  0  0  0
    9.4300    0.4540    0.0000 C   0  0  0  0  0  0  0  0  0  0  0  0
   10.9010    0.1610    0.0000 N   0  0  0  0  0  0  0  0  0  0  0  0
  1  9  1  0  0  0  0
  2  1  1  6  0  0  0
  2  3  1  0  0  0  0
  2 20  1  0  0  0  0
  3  4  1  0  0  0  0
  3 18  1  0  0  0  0
  4  5  1  0  0  0  0
  4  8  2  0  0  0  0
  5  6  1  0  0  0  0
  5  7  2  0  0  0  0
  8  9  1  0  0  0  0
  8 10  1  0  0  0  0
 10 11  1  0  0  0  0
 11 12  1  0  0  0  0
 12 13  2  0  0  0  0
 12 16  1  0  0  0  0
 13 14  1  0  0  0  0
 14 15  2  0  0  0  0
 15 16  1  0  0  0  0
 16 17  1  0  0  0  0
 18 19  2  0  0  0  0
 18 20  1  0  0  0  0
 20 21  1  1  0  0  0
 20 23  1  6  0  0  0
 21 22  1  0  0  0  0
 23 24  1  0  0  0  0
 24 25  2  0  0  0  0
 24 26  1  0  0  0  0
 26 27  1  0  0  0  0
 27 28  1  0  0  0  0
 28 29  1  0  0  0  0
 29 30  3  0  0  0  0
M  END
>  <Index>
201

>  <ID>
HT0407

>  <class>
0

>  <apol>
58.145481

>  <ast_fraglike>
0

>  <ast_fraglike_ext>
0

>  <ast_violation>
2

>  <ast_violation_ext>
4

>  <a_acc>
9

>  <a_acid>
0

>  <a_aro>
5

>  <a_base>
0

>  <a_count>
47

>  <a_don>
3

>  <a_donacc>
12

>  <a_heavy>
30

>  <a_hyd>
12

>  <a_IC>
96.959435

>  <a_ICM>
2.0629668

>  <a_nB>
0

>  <a_nBr>
0

>  <a_nC>
15

>  <a_nCl>
0

>  <a_nF>
0

>  <a_nH>
17

>  <a_nI>
0

>  <a_nN>
7

>  <a_nO>
5

>  <a_nP>
0

>  <a_nS>
3

>  <balabanJ>
1.6376344

>  <BCUT_PEOE_0>
-2.6944189

>  <BCUT_PEOE_1>
-0.48680156

>  <BCUT_PEOE_2>
0.38212797

>  <BCUT_PEOE_3>
2.7786853

>  <BCUT_SLOGP_0>
-2.9227378

>  <BCUT_SLOGP_1>
-0.4233658

>  <BCUT_SLOGP_2>
0.37827387

>  <BCUT_SLOGP_3>
2.6311047

>  <BCUT_SMR_0>
-2.43011

>  <BCUT_SMR_1>
-0.22659037

>  <BCUT_SMR_2>
0.62218344

>  <BCUT_SMR_3>
3.0355372

>  <bpol>
35.494518

>  <b_1rotN>
9

>  <b_1rotR>
0.28125

>  <b_ar>
5

>  <b_count>
49

>  <b_double>
4

>  <b_heavy>
32

>  <b_max1len>
5

>  <b_rotN>
11

>  <b_rotR>
0.34375

>  <b_single>
39

>  <b_triple>
1

>  <chi0>
21.88854

>  <chi0v>
18.3435

>  <chi0v_C>
9.405777

>  <chi0_C>
10.076985

>  <chi1>
14.351408

>  <chi1v>
11.608268

>  <chi1v_C>
2.4528887

>  <chi1_C>
2.9687619

>  <chiral>
2

>  <chiral_u>
0

>  <density>
0.92909819

>  <diameter>
16

>  <FCharge>
0

>  <GCUT_PEOE_0>
-0.80223554

>  <GCUT_PEOE_1>
-0.48302984

>  <GCUT_PEOE_2>
-0.0052105356

>  <GCUT_PEOE_3>
2.662328

>  <GCUT_SLOGP_0>
-1.1660284

>  <GCUT_SLOGP_1>
-0.42695498

>  <GCUT_SLOGP_2>
0.085400134

>  <GCUT_SLOGP_3>
2.6105406

>  <GCUT_SMR_0>
-0.53213298

>  <GCUT_SMR_1>
-0.20251046

>  <GCUT_SMR_2>
0.22503603

>  <GCUT_SMR_3>
2.9412856

>  <Kier1>
24.638672

>  <Kier2>
10.744802

>  <Kier3>
5.0101776

>  <KierA1>
21.922131

>  <KierA2>
9.5199709

>  <KierA3>
4.4258437

>  <KierFlex>
6.9566016

>  <lip_acc>
12

>  <lip_don>
2

>  <lip_druglike>
1

>  <lip_violation>
1

>  <logP(o/w)>
-0.87300003

>  <logS>
-4.4067001

>  <mr>
11.169359

>  <mutagenic>
0

>  <nmol>
1

>  <opr_brigid>
14

>  <opr_leadlike>
0

>  <opr_nring>
3

>  <opr_nrot>
10

>  <opr_violation>
2

>  <PC+>
0

>  <PC->
0

>  <PEOE_PC+>
3.0227234

>  <PEOE_PC->
-3.0227234

>  <PEOE_RPC+>
0.10187516

>  <PEOE_RPC->
0.11489828

>  <PEOE_VSA+0>
107.97957

>  <PEOE_VSA+1>
67.246574

>  <PEOE_VSA+2>
11.821573

>  <PEOE_VSA+3>
8.6190128

>  <PEOE_VSA+4>
36.440327

>  <PEOE_VSA+5>
12.949531

>  <PEOE_VSA+6>
14.708499

>  <PEOE_VSA-0>
28.527546

>  <PEOE_VSA-1>
19.760618

>  <PEOE_VSA-2>
48.942276

>  <PEOE_VSA-3>
17.742489

>  <PEOE_VSA-4>
0

>  <PEOE_VSA-5>
40.700764

>  <PEOE_VSA-6>
10.408187

>  <PEOE_VSA_FHYD>
0.7294631

>  <PEOE_VSA_FNEG>
0.39000368

>  <PEOE_VSA_FPNEG>
0.12001718

>  <PEOE_VSA_FPOL>
0.27053687

>  <PEOE_VSA_FPOS>
0.60999632

>  <PEOE_VSA_FPPOS>
0.1505197

>  <PEOE_VSA_HYD>
310.63965

>  <PEOE_VSA_NEG>
166.08188

>  <PEOE_VSA_PNEG>
51.108952

>  <PEOE_VSA_POL>
115.20731

>  <PEOE_VSA_POS>
259.76508

>  <PEOE_VSA_PPOS>
64.098358

>  <petitjean>
0.5

>  <petitjeanSC>
1

>  <Q_PC+>
0

>  <Q_PC->
0

>  <Q_RPC+>
0

>  <Q_RPC->
0

>  <Q_VSA_FHYD>
1

>  <Q_VSA_FNEG>
0

>  <Q_VSA_FPNEG>
0

>  <Q_VSA_FPOL>
0

>  <Q_VSA_FPOS>
1

>  <Q_VSA_FPPOS>
0

>  <Q_VSA_HYD>
425.84695

>  <Q_VSA_NEG>
0

>  <Q_VSA_PNEG>
0

>  <Q_VSA_POL>
0

>  <Q_VSA_POS>
425.84695

>  <Q_VSA_PPOS>
0

>  <radius>
8

>  <reactive>
0

>  <rings>
3

>  <RPC+>
0

>  <RPC->
0

>  <rsynth>
0.43333334

>  <SlogP>
-0.36911601

>  <SlogP_VSA0>
18.01075

>  <SlogP_VSA1>
72.90789

>  <SlogP_VSA2>
84.933662

>  <SlogP_VSA3>
141.98059

>  <SlogP_VSA4>
0

>  <SlogP_VSA5>
42.019268

>  <SlogP_VSA6>
0

>  <SlogP_VSA7>
0

>  <SlogP_VSA8>
0

>  <SlogP_VSA9>
129.55582

>  <SMR>
10.83805

>  <SMR_VSA0>
82.58654

>  <SMR_VSA1>
85.704216

>  <SMR_VSA2>
44.089058

>  <SMR_VSA3>
24.891197

>  <SMR_VSA4>
0

>  <SMR_VSA5>
0

>  <SMR_VSA6>
87.197289

>  <SMR_VSA7>
164.93968

>  <TPSA>
163.33

>  <VAdjEq>
0.37005648

>  <VAdjMa>
6

>  <VDistEq>
3.6889224

>  <VDistMa>
9.516923

>  <vdw_area>
425.84695

>  <vdw_vol>
507.52765

>  <vsa_acc>
83.120132

>  <vsa_acid>
0

>  <vsa_base>
0

>  <vsa_don>
5.6825762

>  <vsa_hyd>
217.56168

>  <vsa_other>
74.073692

>  <vsa_pol>
115.93655

>  <Weight>
471.543

>  <weinerPath>
2591

>  <weinerPol>
48

>  <zagreb>
156

$$$$