O(C(=O)CCN(C(=O)c1cc2nc(n(c2cc1)C)CNc1ccc(cc1)C(NC(OCCCCCC)=O)=N)c1ncccc1)CC
  MOE2013           2D

 46 49  0  0  0  0  0  0  0  0999 V2000
    0.0000    0.0000    0.0000 O   0  0  0  0  0  0  0  0  0  0  0  0
    1.5000   -0.0120    0.0000 C   0  0  0  0  0  0  0  0  0  0  0  0
    2.2610    1.2800    0.0000 O   0  0  0  0  0  0  0  0  0  0  0  0
    2.2390   -1.3180    0.0000 C   0  0  0  0  0  0  0  0  0  0  0  0
    3.7390   -1.3300    0.0000 C   0  0  0  0  0  0  0  0  0  0  0  0
    4.4780   -2.6350    0.0000 N   0  0  0  0  0  0  0  0  0  0  0  0
    5.9780   -2.6480    0.0000 C   0  0  0  0  0  0  0  0  0  0  0  0
    6.7170   -3.9530    0.0000 O   0  0  0  0  0  0  0  0  0  0  0  0
    6.7390   -1.3550    0.0000 C   0  0  0  0  0  0  0  0  0  0  0  0
    8.2390   -1.3670    0.0000 C   0  0  0  0  0  0  0  0  0  0  0  0
    9.0000   -0.0750    0.0000 C   0  0  0  0  0  0  0  0  0  0  0  0
   10.4690    0.2250    0.0000 N   0  0  0  0  0  0  0  0  0  0  0  0
   10.6390    1.7160    0.0000 C   0  0  0  0  0  0  0  0  0  0  0  0
    9.2730    2.3370    0.0000 N   0  0  0  0  0  0  0  0  0  0  0  0
    8.2600    1.2310    0.0000 C   0  0  0  0  0  0  0  0  0  0  0  0
    6.7610    1.2430    0.0000 C   0  0  0  0  0  0  0  0  0  0  0  0
    6.0000   -0.0500    0.0000 C   0  0  0  0  0  0  0  0  0  0  0  0
    8.9740    3.8070    0.0000 C   0  0  0  0  0  0  0  0  0  0  0  0
   11.9440    2.4550    0.0000 C   0  0  0  0  0  0  0  0  0  0  0  0
   13.2370    1.6940    0.0000 N   0  0  0  0  0  0  0  0  0  0  0  0
   14.5420    2.4330    0.0000 C   0  0  0  0  0  0  0  0  0  0  0  0
   15.8350    1.6720    0.0000 C   0  0  0  0  0  0  0  0  0  0  0  0
   17.1400    2.4120    0.0000 C   0  0  0  0  0  0  0  0  0  0  0  0
   17.1520    3.9120    0.0000 C   0  0  0  0  0  0  0  0  0  0  0  0
   15.8590    4.6720    0.0000 C   0  0  0  0  0  0  0  0  0  0  0  0
   14.5540    3.9330    0.0000 C   0  0  0  0  0  0  0  0  0  0  0  0
   18.4570    4.6510    0.0000 C   0  0  0  0  0  0  0  0  0  0  0  0
   19.7500    3.8900    0.0000 N   0  0  0  0  0  0  0  0  0  0  0  0
   21.0550    4.6290    0.0000 C   0  0  0  0  0  0  0  0  0  0  0  0
   21.0680    6.1290    0.0000 O   0  0  0  0  0  0  0  0  0  0  0  0
   22.3730    6.8680    0.0000 C   0  0  0  0  0  0  0  0  0  0  0  0
   22.3850    8.3680    0.0000 C   0  0  0  0  0  0  0  0  0  0  0  0
   23.6910    9.1080    0.0000 C   0  0  0  0  0  0  0  0  0  0  0  0
   23.7030   10.6080    0.0000 C   0  0  0  0  0  0  0  0  0  0  0  0
   25.0080   11.3470    0.0000 C   0  0  0  0  0  0  0  0  0  0  0  0
   25.0210   12.8470    0.0000 C   0  0  0  0  0  0  0  0  0  0  0  0
   22.3480    3.8690    0.0000 O   0  0  0  0  0  0  0  0  0  0  0  0
   18.4700    6.1510    0.0000 N   0  0  0  0  0  0  0  0  0  0  0  0
    3.7180   -3.9280    0.0000 C   0  0  0  0  0  0  0  0  0  0  0  0
    2.2180   -3.9160    0.0000 N   0  0  0  0  0  0  0  0  0  0  0  0
    1.4570   -5.2080    0.0000 C   0  0  0  0  0  0  0  0  0  0  0  0
    2.1960   -6.5140    0.0000 C   0  0  0  0  0  0  0  0  0  0  0  0
    3.6960   -6.5260    0.0000 C   0  0  0  0  0  0  0  0  0  0  0  0
    4.4570   -5.2330    0.0000 C   0  0  0  0  0  0  0  0  0  0  0  0
   -0.7390    1.3050    0.0000 C   0  0  0  0  0  0  0  0  0  0  0  0
   -2.2390    1.3180    0.0000 C   0  0  0  0  0  0  0  0  0  0  0  0
  1  2  1  0  0  0  0
  1 45  1  0  0  0  0
  2  3  2  0  0  0  0
  2  4  1  0  0  0  0
  4  5  1  0  0  0  0
  5  6  1  0  0  0  0
  6  7  1  0  0  0  0
  6 39  1  0  0  0  0
  7  8  2  0  0  0  0
  7  9  1  0  0  0  0
  9 10  1  0  0  0  0
  9 17  2  0  0  0  0
 10 11  2  0  0  0  0
 11 12  1  0  0  0  0
 11 15  1  0  0  0  0
 12 13  2  0  0  0  0
 13 14  1  0  0  0  0
 13 19  1  0  0  0  0
 14 15  1  0  0  0  0
 14 18  1  0  0  0  0
 15 16  2  0  0  0  0
 16 17  1  0  0  0  0
 19 20  1  0  0  0  0
 20 21  1  0  0  0  0
 21 22  1  0  0  0  0
 21 26  2  0  0  0  0
 22 23  2  0  0  0  0
 23 24  1  0  0  0  0
 24 25  2  0  0  0  0
 24 27  1  0  0  0  0
 25 26  1  0  0  0  0
 27 28  1  0  0  0  0
 27 38  2  0  0  0  0
 28 29  1  0  0  0  0
 29 30  1  0  0  0  0
 29 37  2  0  0  0  0
 30 31  1  0  0  0  0
 31 32  1  0  0  0  0
 32 33  1  0  0  0  0
 33 34  1  0  0  0  0
 34 35  1  0  0  0  0
 35 36  1  0  0  0  0
 39 40  1  0  0  0  0
 39 44  2  0  0  0  0
 40 41  2  0  0  0  0
 41 42  1  0  0  0  0
 42 43  2  0  0  0  0
 43 44  1  0  0  0  0
 45 46  1  0  0  0  0
M  END
>  <Index>
275

>  <ID>
HT0580

>  <class>
0

>  <apol>
98.888512

>  <ast_fraglike>
0

>  <ast_fraglike_ext>
0

>  <ast_violation>
3

>  <ast_violation_ext>
5

>  <a_acc>
6

>  <a_acid>
0

>  <a_aro>
21

>  <a_base>
0

>  <a_count>
87

>  <a_don>
3

>  <a_donacc>
9

>  <a_heavy>
46

>  <a_hyd>
28

>  <a_IC>
136.64159

>  <a_ICM>
1.570593

>  <a_nB>
0

>  <a_nBr>
0

>  <a_nC>
34

>  <a_nCl>
0

>  <a_nF>
0

>  <a_nH>
41

>  <a_nI>
0

>  <a_nN>
7

>  <a_nO>
5

>  <a_nP>
0

>  <a_nS>
0

>  <balabanJ>
1.1794103

>  <BCUT_PEOE_0>
-2.6510954

>  <BCUT_PEOE_1>
-0.62127101

>  <BCUT_PEOE_2>
0.64473641

>  <BCUT_PEOE_3>
2.5994823

>  <BCUT_SLOGP_0>
-2.592392

>  <BCUT_SLOGP_1>
-0.52969146

>  <BCUT_SLOGP_2>
0.70960122

>  <BCUT_SLOGP_3>
2.7410371

>  <BCUT_SMR_0>
-2.406812

>  <BCUT_SMR_1>
-0.44451281

>  <BCUT_SMR_2>
0.79476231

>  <BCUT_SMR_3>
2.8434644

>  <bpol>
59.447487

>  <b_1rotN>
16

>  <b_1rotR>
0.32653061

>  <b_ar>
22

>  <b_count>
90

>  <b_double>
4

>  <b_heavy>
49

>  <b_max1len>
7

>  <b_rotN>
20

>  <b_rotR>
0.40816328

>  <b_single>
64

>  <b_triple>
0

>  <chi0>
32.890331

>  <chi0v>
26.54491

>  <chi0v_C>
21.214813

>  <chi0_C>
23.492989

>  <chi1>
22.299265

>  <chi1v>
15.507809

>  <chi1v_C>
9.9693966

>  <chi1_C>
12.404944

>  <chiral>
0

>  <chiral_u>
0

>  <density>
0.72852302

>  <diameter>
28

>  <FCharge>
0

>  <GCUT_PEOE_0>
-0.84778076

>  <GCUT_PEOE_1>
-0.41579717

>  <GCUT_PEOE_2>
0.072125643

>  <GCUT_PEOE_3>
2.7390018

>  <GCUT_SLOGP_0>
-1.1686046

>  <GCUT_SLOGP_1>
-0.30687588

>  <GCUT_SLOGP_2>
0.13407645

>  <GCUT_SLOGP_3>
2.8124506

>  <GCUT_SMR_0>
-0.53130335

>  <GCUT_SMR_1>
-0.20892161

>  <GCUT_SMR_2>
0.17559421

>  <GCUT_SMR_3>
3.027612

>  <Kier1>
38.796333

>  <Kier2>
20.620119

>  <Kier3>
12.084192

>  <KierA1>
28.226036

>  <KierA2>
14.88875

>  <KierA3>
8.6796255

>  <KierFlex>
9.1358776

>  <lip_acc>
12

>  <lip_don>
3

>  <lip_druglike>
0

>  <lip_violation>
3

>  <logP(o/w)>
5.6220002

>  <logS>
-7.5148501

>  <mr>
17.741165

>  <mutagenic>
0

>  <nmol>
1

>  <opr_brigid>
23

>  <opr_leadlike>
0

>  <opr_nring>
4

>  <opr_nrot>
16

>  <opr_violation>
4

>  <PC+>
0

>  <PC->
0

>  <PEOE_PC+>
4.0292044

>  <PEOE_PC->
-4.0292044

>  <PEOE_RPC+>
0.090872414

>  <PEOE_RPC->
0.081800237

>  <PEOE_VSA+0>
153.86667

>  <PEOE_VSA+1>
137.70689

>  <PEOE_VSA+2>
42.190701

>  <PEOE_VSA+3>
17.238026

>  <PEOE_VSA+4>
0

>  <PEOE_VSA+5>
27.65803

>  <PEOE_VSA+6>
19.199511

>  <PEOE_VSA-0>
137.74313

>  <PEOE_VSA-1>
57.106522

>  <PEOE_VSA-2>
0

>  <PEOE_VSA-3>
0

>  <PEOE_VSA-4>
24.932074

>  <PEOE_VSA-5>
42.108185

>  <PEOE_VSA-6>
2.503756

>  <PEOE_VSA_FHYD>
0.82423413

>  <PEOE_VSA_FNEG>
0.39923331

>  <PEOE_VSA_FPNEG>
0.10501117

>  <PEOE_VSA_FPOL>
0.17576586

>  <PEOE_VSA_FPOS>
0.60076666

>  <PEOE_VSA_FPPOS>
0.070754692

>  <PEOE_VSA_HYD>
545.85193

>  <PEOE_VSA_NEG>
264.39365

>  <PEOE_VSA_PNEG>
69.544014

>  <PEOE_VSA_POL>
116.40156

>  <PEOE_VSA_POS>
397.85983

>  <PEOE_VSA_PPOS>
46.85754

>  <petitjean>
0.5

>  <petitjeanSC>
1

>  <Q_PC+>
0

>  <Q_PC->
0

>  <Q_RPC+>
0

>  <Q_RPC->
0

>  <Q_VSA_FHYD>
1

>  <Q_VSA_FNEG>
0

>  <Q_VSA_FPNEG>
0

>  <Q_VSA_FPOL>
0

>  <Q_VSA_FPOS>
1

>  <Q_VSA_FPPOS>
0

>  <Q_VSA_HYD>
662.25348

>  <Q_VSA_NEG>
0

>  <Q_VSA_PNEG>
0

>  <Q_VSA_POL>
0

>  <Q_VSA_POS>
662.25348

>  <Q_VSA_PPOS>
0

>  <radius>
14

>  <reactive>
0

>  <rings>
4

>  <RPC+>
0

>  <RPC->
0

>  <rsynth>
1

>  <SlogP>
6.43787

>  <SlogP_VSA0>
21.135065

>  <SlogP_VSA1>
76.129707

>  <SlogP_VSA2>
45.861992

>  <SlogP_VSA3>
60.292095

>  <SlogP_VSA4>
32.561287

>  <SlogP_VSA5>
0

>  <SlogP_VSA6>
0

>  <SlogP_VSA7>
229.60645

>  <SlogP_VSA8>
94.342026

>  <SlogP_VSA9>
146.93568

>  <SMR>
17.758659

>  <SMR_VSA0>
93.586426

>  <SMR_VSA1>
35.47015

>  <SMR_VSA2>
52.80703

>  <SMR_VSA3>
8.69907

>  <SMR_VSA4>
27.383692

>  <SMR_VSA5>
306.4278

>  <SMR_VSA6>
82.940903

>  <SMR_VSA7>
99.549217

>  <TPSA>
151.53

>  <VAdjEq>
0.27052692

>  <VAdjMa>
6.6147099

>  <VDistEq>
4.4963207

>  <VDistMa>
10.710458

>  <vdw_area>
662.25348

>  <vdw_vol>
861.66937

>  <vsa_acc>
52.065914

>  <vsa_acid>
0

>  <vsa_base>
0

>  <vsa_don>
11.365152

>  <vsa_hyd>
459.37497

>  <vsa_other>
85.436745

>  <vsa_pol>
81.173553

>  <Weight>
627.74597

>  <weinerPath>
10122

>  <weinerPol>
69

>  <zagreb>
228

$$$$