S1SCCC(=O)N[C@@H](Cc2ccc(O)cc2)C(=O)N[C@@H](Cc2ccccc2)C(=O)N[C@@H](CCC(=O)N)C(=O)N[C@@H](CC(=O)N)C(=O)N[C@@H](C1)C(=O)N1CCC[C@H]1C(=O)N[C@H](CCCNC(N)=N)C(=O)NCC(=O)N
  MOE2013           2D

 74 77  0  0  1  0  0  0  0  0999 V2000
    0.0000    0.0000    0.0000 S   0  0  0  0  0  0  0  0  0  0  0  0
   -0.6590    1.3310    0.0000 S   0  0  0  0  0  0  0  0  0  0  0  0
   -1.9790    1.7060    0.0000 C   0  0  0  0  0  0  0  0  0  0  0  0
   -3.2830    1.3190    0.0000 C   0  0  0  0  0  0  0  0  0  0  0  0
   -3.9670    0.0030    0.0000 C   0  0  0  0  0  0  0  0  0  0  0  0
   -3.1500   -1.2550    0.0000 O   0  0  0  0  0  0  0  0  0  0  0  0
   -5.4550   -0.0860    0.0000 N   0  0  0  0  0  0  0  0  0  0  0  0
   -6.2910   -1.1930    0.0000 C   0  0  1  0  0  0  0  0  0  0  0  0
   -7.7190   -0.7340    0.0000 C   0  0  0  0  0  0  0  0  0  0  0  0
   -8.0350    0.7320    0.0000 C   0  0  0  0  0  0  0  0  0  0  0  0
   -9.4630    1.1910    0.0000 C   0  0  0  0  0  0  0  0  0  0  0  0
   -9.7800    2.6580    0.0000 C   0  0  0  0  0  0  0  0  0  0  0  0
   -8.6690    3.6650    0.0000 C   0  0  0  0  0  0  0  0  0  0  0  0
   -8.9850    5.1310    0.0000 O   0  0  0  0  0  0  0  0  0  0  0  0
   -7.2410    3.2060    0.0000 C   0  0  0  0  0  0  0  0  0  0  0  0
   -6.9240    1.7400    0.0000 C   0  0  0  0  0  0  0  0  0  0  0  0
   -6.2560   -2.5790    0.0000 C   0  0  0  0  0  0  0  0  0  0  0  0
   -7.6050   -3.2350    0.0000 O   0  0  0  0  0  0  0  0  0  0  0  0
   -5.1110   -3.5250    0.0000 N   0  0  0  0  0  0  0  0  0  0  0  0
   -5.3500   -5.0030    0.0000 C   0  0  1  0  0  0  0  0  0  0  0  0
   -6.7760   -5.4670    0.0000 C   0  0  0  0  0  0  0  0  0  0  0  0
   -7.0870   -6.9340    0.0000 C   0  0  0  0  0  0  0  0  0  0  0  0
   -8.5130   -7.3990    0.0000 C   0  0  0  0  0  0  0  0  0  0  0  0
   -8.8240   -8.8660    0.0000 C   0  0  0  0  0  0  0  0  0  0  0  0
   -7.7090   -9.8690    0.0000 C   0  0  0  0  0  0  0  0  0  0  0  0
   -6.2830   -9.4050    0.0000 C   0  0  0  0  0  0  0  0  0  0  0  0
   -5.9720   -7.9370    0.0000 C   0  0  0  0  0  0  0  0  0  0  0  0
   -4.3270   -6.0150    0.0000 C   0  0  0  0  0  0  0  0  0  0  0  0
   -4.7820   -7.4440    0.0000 O   0  0  0  0  0  0  0  0  0  0  0  0
   -2.8550   -5.7700    0.0000 N   0  0  0  0  0  0  0  0  0  0  0  0
   -1.9110   -6.9460    0.0000 C   0  0  1  0  0  0  0  0  0  0  0  0
   -2.4760   -8.3360    0.0000 C   0  0  0  0  0  0  0  0  0  0  0  0
   -1.5550   -9.5200    0.0000 C   0  0  0  0  0  0  0  0  0  0  0  0
   -2.1200  -10.9100    0.0000 C   0  0  0  0  0  0  0  0  0  0  0  0
   -3.6050  -11.1150    0.0000 O   0  0  0  0  0  0  0  0  0  0  0  0
   -1.1980  -12.0930    0.0000 N   0  0  0  0  0  0  0  0  0  0  0  0
   -0.4490   -6.7660    0.0000 C   0  0  0  0  0  0  0  0  0  0  0  0
    0.4300   -7.9810    0.0000 O   0  0  0  0  0  0  0  0  0  0  0  0
    0.1900   -5.4130    0.0000 N   0  0  0  0  0  0  0  0  0  0  0  0
    1.6890   -5.2970    0.0000 C   0  0  1  0  0  0  0  0  0  0  0  0
    2.5280   -6.5400    0.0000 C   0  0  0  0  0  0  0  0  0  0  0  0
    4.0250   -6.4340    0.0000 C   0  0  0  0  0  0  0  0  0  0  0  0
    4.6810   -5.0860    0.0000 O   0  0  0  0  0  0  0  0  0  0  0  0
    4.8640   -7.6770    0.0000 N   0  0  0  0  0  0  0  0  0  0  0  0
    2.3490   -3.9650    0.0000 C   0  0  0  0  0  0  0  0  0  0  0  0
    3.8460   -3.8800    0.0000 O   0  0  0  0  0  0  0  0  0  0  0  0
    1.5330   -2.7010    0.0000 N   0  0  0  0  0  0  0  0  0  0  0  0
    2.2140   -1.3740    0.0000 C   0  0  1  0  0  0  0  0  0  0  0  0
    1.5020   -0.0960    0.0000 C   0  0  0  0  0  0  0  0  0  0  0  0
    3.7140   -1.3490    0.0000 C   0  0  0  0  0  0  0  0  0  0  0  0
    4.4860   -2.6340    0.0000 O   0  0  0  0  0  0  0  0  0  0  0  0
    4.4410   -0.0370    0.0000 N   0  0  0  0  0  0  0  0  0  0  0  0
    3.8080    1.3230    0.0000 C   0  0  0  0  0  0  0  0  0  0  0  0
    4.9050    2.3460    0.0000 C   0  0  0  0  0  0  0  0  0  0  0  0
    6.2170    1.6180    0.0000 C   0  0  0  0  0  0  0  0  0  0  0  0
    5.9300    0.1460    0.0000 C   0  0  1  0  0  0  0  0  0  0  0  0
    6.9530   -0.9520    0.0000 C   0  0  0  0  0  0  0  0  0  0  0  0
    6.5140   -2.3860    0.0000 O   0  0  0  0  0  0  0  0  0  0  0  0
    8.4150   -0.6150    0.0000 N   0  0  0  0  0  0  0  0  0  0  0  0
    9.4370   -1.7120    0.0000 C   0  0  2  0  0  0  0  0  0  0  0  0
    8.9980   -3.1460    0.0000 C   0  0  0  0  0  0  0  0  0  0  0  0
   10.0210   -4.2430    0.0000 C   0  0  0  0  0  0  0  0  0  0  0  0
    9.5820   -5.6780    0.0000 C   0  0  0  0  0  0  0  0  0  0  0  0
   10.6050   -6.7750    0.0000 N   0  0  0  0  0  0  0  0  0  0  0  0
   10.1660   -8.2090    0.0000 C   0  0  0  0  0  0  0  0  0  0  0  0
    8.7050   -8.5460    0.0000 N   0  0  0  0  0  0  0  0  0  0  0  0
   11.1890   -9.3070    0.0000 N   0  0  0  0  0  0  0  0  0  0  0  0
   10.8990   -1.3750    0.0000 C   0  0  0  0  0  0  0  0  0  0  0  0
   11.9220   -2.4720    0.0000 O   0  0  0  0  0  0  0  0  0  0  0  0
   11.3380    0.0600    0.0000 N   0  0  0  0  0  0  0  0  0  0  0  0
   12.8000    0.3970    0.0000 C   0  0  0  0  0  0  0  0  0  0  0  0
   13.2380    1.8310    0.0000 C   0  0  0  0  0  0  0  0  0  0  0  0
   12.2160    2.9280    0.0000 O   0  0  0  0  0  0  0  0  0  0  0  0
   14.7000    2.1680    0.0000 N   0  0  0  0  0  0  0  0  0  0  0  0
  1  2  1  0  0  0  0
  1 49  1  0  0  0  0
  2  3  1  0  0  0  0
  3  4  1  0  0  0  0
  4  5  1  0  0  0  0
  5  6  2  0  0  0  0
  5  7  1  0  0  0  0
  7  8  1  0  0  0  0
  8  9  1  6  0  0  0
  8 17  1  0  0  0  0
  9 10  1  0  0  0  0
 10 11  1  0  0  0  0
 10 16  2  0  0  0  0
 11 12  2  0  0  0  0
 12 13  1  0  0  0  0
 13 14  1  0  0  0  0
 13 15  2  0  0  0  0
 15 16  1  0  0  0  0
 17 18  2  0  0  0  0
 17 19  1  0  0  0  0
 19 20  1  0  0  0  0
 20 21  1  6  0  0  0
 20 28  1  0  0  0  0
 21 22  1  0  0  0  0
 22 23  1  0  0  0  0
 22 27  2  0  0  0  0
 23 24  2  0  0  0  0
 24 25  1  0  0  0  0
 25 26  2  0  0  0  0
 26 27  1  0  0  0  0
 28 29  2  0  0  0  0
 28 30  1  0  0  0  0
 30 31  1  0  0  0  0
 31 32  1  6  0  0  0
 31 37  1  0  0  0  0
 32 33  1  0  0  0  0
 33 34  1  0  0  0  0
 34 35  2  0  0  0  0
 34 36  1  0  0  0  0
 37 38  2  0  0  0  0
 37 39  1  0  0  0  0
 39 40  1  0  0  0  0
 40 41  1  6  0  0  0
 40 45  1  0  0  0  0
 41 42  1  0  0  0  0
 42 43  2  0  0  0  0
 42 44  1  0  0  0  0
 45 46  2  0  0  0  0
 45 47  1  0  0  0  0
 47 48  1  0  0  0  0
 48 49  1  0  0  0  0
 48 50  1  1  0  0  0
 50 51  2  0  0  0  0
 50 52  1  0  0  0  0
 52 53  1  0  0  0  0
 52 56  1  0  0  0  0
 53 54  1  0  0  0  0
 54 55  1  0  0  0  0
 55 56  1  0  0  0  0
 56 57  1  1  0  0  0
 57 58  2  0  0  0  0
 57 59  1  0  0  0  0
 60 59  1  1  0  0  0
 60 61  1  0  0  0  0
 60 68  1  0  0  0  0
 61 62  1  0  0  0  0
 62 63  1  0  0  0  0
 63 64  1  0  0  0  0
 64 65  1  0  0  0  0
 65 66  1  0  0  0  0
 65 67  2  0  0  0  0
 68 69  2  0  0  0  0
 68 70  1  0  0  0  0
 70 71  1  0  0  0  0
 71 72  1  0  0  0  0
 72 73  2  0  0  0  0
 72 74  1  0  0  0  0
M  END
>  <Index>
296

>  <ID>
HT0614

>  <class>
0

>  <apol>
154.45876

>  <ast_fraglike>
0

>  <ast_fraglike_ext>
0

>  <ast_violation>
3

>  <ast_violation_ext>
5

>  <a_acc>
13

>  <a_acid>
0

>  <a_aro>
12

>  <a_base>
0

>  <a_count>
138

>  <a_don>
14

>  <a_donacc>
27

>  <a_heavy>
74

>  <a_hyd>
36

>  <a_IC>
244.57001

>  <a_ICM>
1.7722465

>  <a_nB>
0

>  <a_nBr>
0

>  <a_nC>
46

>  <a_nCl>
0

>  <a_nF>
0

>  <a_nH>
64

>  <a_nI>
0

>  <a_nN>
14

>  <a_nO>
12

>  <a_nP>
0

>  <a_nS>
2

>  <balabanJ>
1.6346784

>  <BCUT_PEOE_0>
-2.6426358

>  <BCUT_PEOE_1>
-0.58260781

>  <BCUT_PEOE_2>
0.54498816

>  <BCUT_PEOE_3>
2.7427275

>  <BCUT_SLOGP_0>
-2.8736331

>  <BCUT_SLOGP_1>
-0.54488361

>  <BCUT_SLOGP_2>
0.55349946

>  <BCUT_SLOGP_3>
2.6913352

>  <BCUT_SMR_0>
-2.3867424

>  <BCUT_SMR_1>
-0.36758032

>  <BCUT_SMR_2>
0.69784886

>  <BCUT_SMR_3>
2.9985316

>  <bpol>
87.403252

>  <b_1rotN>
20

>  <b_1rotR>
0.25974026

>  <b_ar>
12

>  <b_count>
141

>  <b_double>
12

>  <b_heavy>
77

>  <b_max1len>
7

>  <b_rotN>
23

>  <b_rotR>
0.29870129

>  <b_single>
117

>  <b_triple>
0

>  <chi0>
54.320686

>  <chi0v>
41.988255

>  <chi0v_C>
27.344206

>  <chi0_C>
29.672268

>  <chi1>
35.195396

>  <chi1v>
26.074749

>  <chi1v_C>
13.731835

>  <chi1_C>
16.090052

>  <chiral>
7

>  <chiral_u>
0

>  <density>
0.80549717

>  <diameter>
26

>  <FCharge>
0

>  <GCUT_PEOE_0>
-0.85051775

>  <GCUT_PEOE_1>
-0.44178542

>  <GCUT_PEOE_2>
0.075593568

>  <GCUT_PEOE_3>
3.1994364

>  <GCUT_SLOGP_0>
-1.3710443

>  <GCUT_SLOGP_1>
-0.41356283

>  <GCUT_SLOGP_2>
0.11007719

>  <GCUT_SLOGP_3>
3.1132908

>  <GCUT_SMR_0>
-0.52622992

>  <GCUT_SMR_1>
-0.24034257

>  <GCUT_SMR_2>
0.19671391

>  <GCUT_SMR_3>
3.4472921

>  <Kier1>
66.511383

>  <Kier2>
35.670845

>  <Kier3>
25.139267

>  <KierA1>
50.64045

>  <KierA2>
27.05205

>  <KierA3>
19.013769

>  <KierFlex>
18.512541

>  <lip_acc>
26

>  <lip_don>
18

>  <lip_druglike>
0

>  <lip_violation>
3

>  <logP(o/w)>
-3.299

>  <logS>
-8.3660898

>  <mr>
27.383698

>  <mutagenic>
0

>  <nmol>
1

>  <opr_brigid>
38

>  <opr_leadlike>
0

>  <opr_nring>
3

>  <opr_nrot>
36

>  <opr_violation>
5

>  <PC+>
0

>  <PC->
0

>  <PEOE_PC+>
9.058713

>  <PEOE_PC->
-9.058713

>  <PEOE_RPC+>
0.027308147

>  <PEOE_RPC->
0.040859327

>  <PEOE_VSA+0>
201.97546

>  <PEOE_VSA+1>
107.1291

>  <PEOE_VSA+2>
22.021723

>  <PEOE_VSA+3>
162.20479

>  <PEOE_VSA+4>
152.76901

>  <PEOE_VSA+5>
0

>  <PEOE_VSA+6>
0

>  <PEOE_VSA-0>
72.433456

>  <PEOE_VSA-1>
129.25769

>  <PEOE_VSA-2>
0

>  <PEOE_VSA-3>
0

>  <PEOE_VSA-4>
0

>  <PEOE_VSA-5>
161.43294

>  <PEOE_VSA-6>
35.467148

>  <PEOE_VSA_FHYD>
0.66528958

>  <PEOE_VSA_FNEG>
0.3815397

>  <PEOE_VSA_FPNEG>
0.1884768

>  <PEOE_VSA_FPOL>
0.33471045

>  <PEOE_VSA_FPOS>
0.6184603

>  <PEOE_VSA_FPPOS>
0.14623363

>  <PEOE_VSA_HYD>
695.02222

>  <PEOE_VSA_NEG>
398.59122

>  <PEOE_VSA_PNEG>
196.90009

>  <PEOE_VSA_POL>
349.6691

>  <PEOE_VSA_POS>
646.1001

>  <PEOE_VSA_PPOS>
152.76901

>  <petitjean>
0.46153846

>  <petitjeanSC>
0.85714287

>  <Q_PC+>
0

>  <Q_PC->
0

>  <Q_RPC+>
0

>  <Q_RPC->
0

>  <Q_VSA_FHYD>
1

>  <Q_VSA_FNEG>
0

>  <Q_VSA_FPNEG>
0

>  <Q_VSA_FPOL>
0

>  <Q_VSA_FPOS>
1

>  <Q_VSA_FPPOS>
0

>  <Q_VSA_HYD>
1044.6913

>  <Q_VSA_NEG>
0

>  <Q_VSA_PNEG>
0

>  <Q_VSA_POL>
0

>  <Q_VSA_POS>
1044.6913

>  <Q_VSA_PPOS>
0

>  <radius>
14

>  <reactive>
1

>  <rings>
4

>  <RPC+>
0

>  <RPC->
0

>  <rsynth>
1

>  <SlogP>
-4.1320901

>  <SlogP_VSA0>
301.05997

>  <SlogP_VSA1>
62.870026

>  <SlogP_VSA2>
290.35815

>  <SlogP_VSA3>
89.785866

>  <SlogP_VSA4>
6.37115

>  <SlogP_VSA5>
37.736813

>  <SlogP_VSA6>
0

>  <SlogP_VSA7>
190.46063

>  <SlogP_VSA8>
150.94725

>  <SlogP_VSA9>
65.606926

>  <SMR>
27.14057

>  <SMR_VSA0>
262.48438

>  <SMR_VSA1>
28.509541

>  <SMR_VSA2>
175.75797

>  <SMR_VSA3>
39.488358

>  <SMR_VSA4>
131.58875

>  <SMR_VSA5>
347.47272

>  <SMR_VSA6>
149.53157

>  <SMR_VSA7>
60.363499

>  <TPSA>
435.41

>  <VAdjEq>
0.1848882

>  <VAdjMa>
7.2667866

>  <VDistEq>
4.44979

>  <VDistMa>
12.180749

>  <vdw_area>
1044.6913

>  <vdw_vol>
1327.4236

>  <vsa_acc>
149.23613

>  <vsa_acid>
0

>  <vsa_base>
0

>  <vsa_don>
116.43056

>  <vsa_hyd>
500.07486

>  <vsa_other>
158.12642

>  <vsa_pol>
296.9761

>  <Weight>
1069.236

>  <weinerPath>
28498

>  <weinerPol>
110

>  <zagreb>
360

$$$$