s1cc(nc1C=Cc1cc(NC(=O)CC(CC)(CC)C(O)=O)ccc1)C1CCC1
  MOE2013           2D

 29 31  0  0  0  0  0  0  0  0999 V2000
    0.0000    0.0000    0.0000 S   0  0  0  0  0  0  0  0  0  0  0  0
    1.4850   -0.2080    0.0000 C   0  0  0  0  0  0  0  0  0  0  0  0
    2.1420    1.1400    0.0000 C   0  0  0  0  0  0  0  0  0  0  0  0
    1.0630    2.1820    0.0000 N   0  0  0  0  0  0  0  0  0  0  0  0
   -0.2610    1.4770    0.0000 C   0  0  0  0  0  0  0  0  0  0  0  0
   -1.6100    2.1340    0.0000 C   0  0  0  0  0  0  0  0  0  0  0  0
   -2.8530    1.2950    0.0000 C   0  0  0  0  0  0  0  0  0  0  0  0
   -4.2010    1.9520    0.0000 C   0  0  0  0  0  0  0  0  0  0  0  0
   -5.4440    1.1120    0.0000 C   0  0  0  0  0  0  0  0  0  0  0  0
   -6.7930    1.7690    0.0000 C   0  0  0  0  0  0  0  0  0  0  0  0
   -8.0360    0.9300    0.0000 N   0  0  0  0  0  0  0  0  0  0  0  0
   -9.3850    1.5870    0.0000 C   0  0  0  0  0  0  0  0  0  0  0  0
   -9.4900    3.0830    0.0000 O   0  0  0  0  0  0  0  0  0  0  0  0
  -10.6280    0.7480    0.0000 C   0  0  0  0  0  0  0  0  0  0  0  0
  -11.9760    1.4050    0.0000 C   0  0  0  0  0  0  0  0  0  0  0  0
  -13.3250    2.0620    0.0000 C   0  0  0  0  0  0  0  0  0  0  0  0
  -14.5680    1.2220    0.0000 C   0  0  0  0  0  0  0  0  0  0  0  0
  -11.3190    2.7530    0.0000 C   0  0  0  0  0  0  0  0  0  0  0  0
  -12.1590    3.9960    0.0000 C   0  0  0  0  0  0  0  0  0  0  0  0
  -12.6330    0.0560    0.0000 C   0  0  0  0  0  0  0  0  0  0  0  0
  -14.1300   -0.0490    0.0000 O   0  0  0  0  0  0  0  0  0  0  0  0
  -11.7940   -1.1870    0.0000 O   0  0  0  0  0  0  0  0  0  0  0  0
   -6.8980    3.2660    0.0000 C   0  0  0  0  0  0  0  0  0  0  0  0
   -5.6550    4.1050    0.0000 C   0  0  0  0  0  0  0  0  0  0  0  0
   -4.3070    3.4480    0.0000 C   0  0  0  0  0  0  0  0  0  0  0  0
    3.6200    1.4010    0.0000 C   0  0  0  0  0  0  0  0  0  0  0  0
    4.8490    0.5420    0.0000 C   0  0  0  0  0  0  0  0  0  0  0  0
    5.7080    1.7710    0.0000 C   0  0  0  0  0  0  0  0  0  0  0  0
    4.4790    2.6310    0.0000 C   0  0  0  0  0  0  0  0  0  0  0  0
  1  2  1  0  0  0  0
  1  5  1  0  0  0  0
  2  3  2  0  0  0  0
  3  4  1  0  0  0  0
  3 26  1  0  0  0  0
  4  5  2  0  0  0  0
  5  6  1  0  0  0  0
  6  7  2  3  0  0  0
  7  8  1  0  0  0  0
  8  9  1  0  0  0  0
  8 25  2  0  0  0  0
  9 10  2  0  0  0  0
 10 11  1  0  0  0  0
 10 23  1  0  0  0  0
 11 12  1  0  0  0  0
 12 13  2  0  0  0  0
 12 14  1  0  0  0  0
 14 15  1  0  0  0  0
 15 16  1  0  0  0  0
 15 18  1  0  0  0  0
 15 20  1  0  0  0  0
 16 17  1  0  0  0  0
 18 19  1  0  0  0  0
 20 21  1  0  0  0  0
 20 22  2  0  0  0  0
 23 24  2  0  0  0  0
 24 25  1  0  0  0  0
 26 27  1  0  0  0  0
 26 29  1  0  0  0  0
 27 28  1  0  0  0  0
 28 29  1  0  0  0  0
M  END
>  <Index>
230

>  <ID>
HT0488

>  <class>
0

>  <apol>
66.656204

>  <ast_fraglike>
0

>  <ast_fraglike_ext>
0

>  <ast_violation>
3

>  <ast_violation_ext>
4

>  <a_acc>
4

>  <a_acid>
0

>  <a_aro>
11

>  <a_base>
0

>  <a_count>
57

>  <a_don>
3

>  <a_donacc>
7

>  <a_heavy>
29

>  <a_hyd>
22

>  <a_IC>
87.071983

>  <a_ICM>
1.5275786

>  <a_nB>
0

>  <a_nBr>
0

>  <a_nC>
23

>  <a_nCl>
0

>  <a_nF>
0

>  <a_nH>
28

>  <a_nI>
0

>  <a_nN>
2

>  <a_nO>
3

>  <a_nP>
0

>  <a_nS>
1

>  <balabanJ>
1.3857286

>  <BCUT_PEOE_0>
-2.7733467

>  <BCUT_PEOE_1>
-0.58990782

>  <BCUT_PEOE_2>
0.60133362

>  <BCUT_PEOE_3>
2.7322202

>  <BCUT_SLOGP_0>
-2.6533217

>  <BCUT_SLOGP_1>
-0.51621616

>  <BCUT_SLOGP_2>
0.65084523

>  <BCUT_SLOGP_3>
2.8871801

>  <BCUT_SMR_0>
-2.521647

>  <BCUT_SMR_1>
-0.42116022

>  <BCUT_SMR_2>
0.77393967

>  <BCUT_SMR_3>
2.9877515

>  <bpol>
36.785797

>  <b_1rotN>
9

>  <b_1rotR>
0.29032257

>  <b_ar>
11

>  <b_count>
59

>  <b_double>
3

>  <b_heavy>
31

>  <b_max1len>
6

>  <b_rotN>
10

>  <b_rotR>
0.32258064

>  <b_single>
45

>  <b_triple>
0

>  <chi0>
20.85516

>  <chi0v>
17.797112

>  <chi0v_C>
14.361443

>  <chi0_C>
15.73384

>  <chi1>
13.952658

>  <chi1v>
11.102873

>  <chi1v_C>
8.2043247

>  <chi1_C>
9.6793652

>  <chiral>
0

>  <chiral_u>
0

>  <density>
0.73203397

>  <diameter>
16

>  <FCharge>
0

>  <GCUT_PEOE_0>
-0.85011977

>  <GCUT_PEOE_1>
-0.41930118

>  <GCUT_PEOE_2>
0.069200583

>  <GCUT_PEOE_3>
2.6787865

>  <GCUT_SLOGP_0>
-0.99778187

>  <GCUT_SLOGP_1>
-0.27971506

>  <GCUT_SLOGP_2>
0.13616075

>  <GCUT_SLOGP_3>
2.7682278

>  <GCUT_SMR_0>
-0.58253044

>  <GCUT_SMR_1>
-0.21367933

>  <GCUT_SMR_2>
0.22017093

>  <GCUT_SMR_3>
2.9386854

>  <Kier1>
23.658689

>  <Kier2>
11.039481

>  <Kier3>
6.2571902

>  <KierA1>
19.27548

>  <KierA2>
8.9245739

>  <KierA3>
5.0295448

>  <KierFlex>
5.9319119

>  <lip_acc>
5

>  <lip_don>
2

>  <lip_druglike>
1

>  <lip_violation>
1

>  <logP(o/w)>
4.7020001

>  <logS>
-4.8594699

>  <mr>
11.862637

>  <mutagenic>
0

>  <nmol>
1

>  <opr_brigid>
16

>  <opr_leadlike>
1

>  <opr_nring>
3

>  <opr_nrot>
9

>  <opr_violation>
1

>  <PC+>
0

>  <PC->
0

>  <PEOE_PC+>
2.2058022

>  <PEOE_PC->
-2.2058022

>  <PEOE_RPC+>
0.12070923

>  <PEOE_RPC->
0.14998682

>  <PEOE_VSA+0>
111.81836

>  <PEOE_VSA+1>
29.857702

>  <PEOE_VSA+2>
0

>  <PEOE_VSA+3>
28.379631

>  <PEOE_VSA+4>
23.273705

>  <PEOE_VSA+5>
14.708499

>  <PEOE_VSA+6>
0

>  <PEOE_VSA-0>
73.778503

>  <PEOE_VSA-1>
97.192345

>  <PEOE_VSA-2>
0

>  <PEOE_VSA-3>
0

>  <PEOE_VSA-4>
0

>  <PEOE_VSA-5>
32.816418

>  <PEOE_VSA-6>
7.9044313

>  <PEOE_VSA_FHYD>
0.81249106

>  <PEOE_VSA_FNEG>
0.50435257

>  <PEOE_VSA_FPNEG>
0.097016864

>  <PEOE_VSA_FPOL>
0.18750894

>  <PEOE_VSA_FPOS>
0.49564743

>  <PEOE_VSA_FPPOS>
0.090492077

>  <PEOE_VSA_HYD>
341.02655

>  <PEOE_VSA_NEG>
211.6917

>  <PEOE_VSA_PNEG>
40.720848

>  <PEOE_VSA_POL>
78.703049

>  <PEOE_VSA_POS>
208.0379

>  <PEOE_VSA_PPOS>
37.982204

>  <petitjean>
0.5

>  <petitjeanSC>
1

>  <Q_PC+>
0

>  <Q_PC->
0

>  <Q_RPC+>
0

>  <Q_RPC->
0

>  <Q_VSA_FHYD>
1

>  <Q_VSA_FNEG>
0

>  <Q_VSA_FPNEG>
0

>  <Q_VSA_FPOL>
0

>  <Q_VSA_FPOS>
1

>  <Q_VSA_FPPOS>
0

>  <Q_VSA_HYD>
419.72958

>  <Q_VSA_NEG>
0

>  <Q_VSA_PNEG>
0

>  <Q_VSA_POL>
0

>  <Q_VSA_POS>
419.72958

>  <Q_VSA_PPOS>
0

>  <radius>
8

>  <reactive>
0

>  <rings>
3

>  <RPC+>
0

>  <RPC->
0

>  <rsynth>
0.79310346

>  <SlogP>
5.8006001

>  <SlogP_VSA0>
0

>  <SlogP_VSA1>
47.800529

>  <SlogP_VSA2>
47.724434

>  <SlogP_VSA3>
25.385227

>  <SlogP_VSA4>
6.8718963

>  <SlogP_VSA5>
0

>  <SlogP_VSA6>
4.4107962

>  <SlogP_VSA7>
86.388748

>  <SlogP_VSA8>
148.4968

>  <SlogP_VSA9>
100.68646

>  <SMR>
11.79735

>  <SMR_VSA0>
47.724434

>  <SMR_VSA1>
16.78553

>  <SMR_VSA2>
25.385227

>  <SMR_VSA3>
11.282692

>  <SMR_VSA4>
20.767498

>  <SMR_VSA5>
199.59918

>  <SMR_VSA6>
48.290615

>  <SMR_VSA7>
97.929718

>  <TPSA>
79.290001

>  <VAdjEq>
0.3796615

>  <VAdjMa>
5.9541965

>  <VDistEq>
3.8396888

>  <VDistMa>
9.3898973

>  <vdw_area>
419.72958

>  <vdw_vol>
563.5722

>  <vsa_acc>
19.249496

>  <vsa_acid>
0

>  <vsa_base>
0

>  <vsa_don>
5.6825762

>  <vsa_hyd>
312.55582

>  <vsa_other>
27.65803

>  <vsa_pol>
52.065914

>  <Weight>
412.55399

>  <weinerPath>
2669

>  <weinerPol>
42

>  <zagreb>
148

$$$$