O1NC(=O)[C@H](N)C1
  MOE2013           2D

  7  7  0  0  1  0  0  0  0  0999 V2000
    0.0000    0.0000    0.0000 O   0  0  0  0  0  0  0  0  0  0  0  0
   -0.8820   -1.2140    0.0000 N   0  0  0  0  0  0  0  0  0  0  0  0
   -2.3080   -0.7500    0.0000 C   0  0  0  0  0  0  0  0  0  0  0  0
   -3.5220   -1.6320    0.0000 O   0  0  0  0  0  0  0  0  0  0  0  0
   -2.3080    0.7500    0.0000 C   0  0  2  0  0  0  0  0  0  0  0  0
   -3.5220    1.6320    0.0000 N   0  0  0  0  0  0  0  0  0  0  0  0
   -0.8820    1.2140    0.0000 C   0  0  0  0  0  0  0  0  0  0  0  0
  1  2  1  0  0  0  0
  1  7  1  0  0  0  0
  2  3  1  0  0  0  0
  3  4  2  0  0  0  0
  3  5  1  0  0  0  0
  5  6  1  6  0  0  0
  5  7  1  0  0  0  0
M  END
>  <Index>
271

>  <ID>
HT0570

>  <class>
0

>  <apol>
13.084758

>  <ast_fraglike>
1

>  <ast_fraglike_ext>
1

>  <ast_violation>
0

>  <ast_violation_ext>
0

>  <a_acc>
3

>  <a_acid>
0

>  <a_aro>
0

>  <a_base>
0

>  <a_count>
13

>  <a_don>
2

>  <a_donacc>
5

>  <a_heavy>
7

>  <a_hyd>
2

>  <a_IC>
23.841053

>  <a_ICM>
1.8339273

>  <a_nB>
0

>  <a_nBr>
0

>  <a_nC>
3

>  <a_nCl>
0

>  <a_nF>
0

>  <a_nH>
6

>  <a_nI>
0

>  <a_nN>
2

>  <a_nO>
2

>  <a_nP>
0

>  <a_nS>
0

>  <balabanJ>
2.3616965

>  <BCUT_PEOE_0>
-2.370683

>  <BCUT_PEOE_1>
-0.49962917

>  <BCUT_PEOE_2>
0.39348918

>  <BCUT_PEOE_3>
2.5752497

>  <BCUT_SLOGP_0>
-2.721168

>  <BCUT_SLOGP_1>
-0.49227604

>  <BCUT_SLOGP_2>
0.34241

>  <BCUT_SLOGP_3>
2.3146012

>  <BCUT_SMR_0>
-2.1558573

>  <BCUT_SMR_1>
-0.30422789

>  <BCUT_SMR_2>
0.51838988

>  <BCUT_SMR_3>
2.7984972

>  <bpol>
8.1132421

>  <b_1rotN>
0

>  <b_1rotR>
0

>  <b_ar>
0

>  <b_count>
13

>  <b_double>
1

>  <b_heavy>
7

>  <b_max1len>
3

>  <b_rotN>
0

>  <b_rotR>
0

>  <b_single>
12

>  <b_triple>
0

>  <chi0>
5.276021

>  <chi0v>
3.678304

>  <chi0v_C>
1.7844571

>  <chi0_C>
1.8618073

>  <chi1>
3.3045304

>  <chi1v>
1.9771802

>  <chi1v_C>
0.69692343

>  <chi1_C>
0.74158162

>  <chiral>
1

>  <chiral_u>
0

>  <density>
0.8881042

>  <diameter>
3

>  <FCharge>
0

>  <GCUT_PEOE_0>
-0.83047342

>  <GCUT_PEOE_1>
-0.37025413

>  <GCUT_PEOE_2>
0.039718978

>  <GCUT_PEOE_3>
1.9884449

>  <GCUT_SLOGP_0>
-1.3633709

>  <GCUT_SLOGP_1>
-0.46934989

>  <GCUT_SLOGP_2>
0.054200001

>  <GCUT_SLOGP_3>
1.7830113

>  <GCUT_SMR_0>
-0.5120073

>  <GCUT_SMR_1>
-0.22641595

>  <GCUT_SMR_2>
0.12383689

>  <GCUT_SMR_3>
2.2013948

>  <Kier1>
5.1428571

>  <Kier2>
1.8518518

>  <Kier3>
0.95999998

>  <KierA1>
4.0753732

>  <KierA2>
1.4009948

>  <KierA3>
0.68908775

>  <KierFlex>
0.81565374

>  <lip_acc>
4

>  <lip_don>
3

>  <lip_druglike>
1

>  <lip_violation>
0

>  <logP(o/w)>
-1.5880001

>  <logS>
0.14213

>  <mr>
2.2697465

>  <mutagenic>
0

>  <nmol>
1

>  <opr_brigid>
5

>  <opr_leadlike>
1

>  <opr_nring>
1

>  <opr_nrot>
0

>  <opr_violation>
0

>  <PC+>
0

>  <PC->
0

>  <PEOE_PC+>
1.089594

>  <PEOE_PC->
-1.089594

>  <PEOE_RPC+>
0.24167497

>  <PEOE_RPC->
0.29169279

>  <PEOE_VSA+0>
0

>  <PEOE_VSA+1>
27.747452

>  <PEOE_VSA+2>
20.383986

>  <PEOE_VSA+3>
8.6190128

>  <PEOE_VSA+4>
0

>  <PEOE_VSA+5>
12.949531

>  <PEOE_VSA+6>
0

>  <PEOE_VSA-0>
0

>  <PEOE_VSA-1>
0

>  <PEOE_VSA-2>
0

>  <PEOE_VSA-3>
0

>  <PEOE_VSA-4>
5.3395767

>  <PEOE_VSA-5>
19.46928

>  <PEOE_VSA-6>
6.6511192

>  <PEOE_VSA_FHYD>
0.56099719

>  <PEOE_VSA_FNEG>
0.31099239

>  <PEOE_VSA_FPNEG>
0.31099239

>  <PEOE_VSA_FPOL>
0.43900281

>  <PEOE_VSA_FPOS>
0.68900764

>  <PEOE_VSA_FPPOS>
0.12801044

>  <PEOE_VSA_HYD>
56.75045

>  <PEOE_VSA_NEG>
31.459976

>  <PEOE_VSA_PNEG>
31.459976

>  <PEOE_VSA_POL>
44.409508

>  <PEOE_VSA_POS>
69.699982

>  <PEOE_VSA_PPOS>
12.949531

>  <petitjean>
0.33333334

>  <petitjeanSC>
0.5

>  <Q_PC+>
0

>  <Q_PC->
0

>  <Q_RPC+>
0

>  <Q_RPC->
0

>  <Q_VSA_FHYD>
1

>  <Q_VSA_FNEG>
0

>  <Q_VSA_FPNEG>
0

>  <Q_VSA_FPOL>
0

>  <Q_VSA_FPOS>
1

>  <Q_VSA_FPPOS>
0

>  <Q_VSA_HYD>
101.15996

>  <Q_VSA_NEG>
0

>  <Q_VSA_PNEG>
0

>  <Q_VSA_POL>
0

>  <Q_VSA_POS>
101.15996

>  <Q_VSA_PPOS>
0

>  <radius>
2

>  <reactive>
0

>  <rings>
1

>  <RPC+>
0

>  <RPC->
0

>  <rsynth>
1

>  <SlogP>
-1.6249

>  <SlogP_VSA0>
53.52227

>  <SlogP_VSA1>
5.2587838

>  <SlogP_VSA2>
39.06295

>  <SlogP_VSA3>
20.926258

>  <SlogP_VSA4>
0

>  <SlogP_VSA5>
0

>  <SlogP_VSA6>
0

>  <SlogP_VSA7>
0

>  <SlogP_VSA8>
0

>  <SlogP_VSA9>
0

>  <SMR>
2.20701

>  <SMR_VSA0>
35.080978

>  <SMR_VSA1>
0

>  <SMR_VSA2>
20.625084

>  <SMR_VSA3>
3.9819686

>  <SMR_VSA4>
32.897186

>  <SMR_VSA5>
0

>  <SMR_VSA6>
26.185041

>  <SMR_VSA7>
0

>  <TPSA>
64.349998

>  <VAdjEq>
0.86312056

>  <VAdjMa>
3.8073549

>  <VDistEq>
1.5451531

>  <VDistMa>
5.2775674

>  <vdw_area>
101.15996

>  <vdw_vol>
114.95611

>  <vsa_acc>
19.46928

>  <vsa_acid>
0

>  <vsa_base>
0

>  <vsa_don>
10.885262

>  <vsa_hyd>
28.758026

>  <vsa_other>
12.949531

>  <vsa_pol>
48.097031

>  <Weight>
102.09299

>  <weinerPath>
40

>  <weinerPol>
5

>  <zagreb>
32

$$$$