OC(=O)CN(C(N)=N)C
  MOE2013           2D

  9  8  0  0  0  0  0  0  0  0999 V2000
    0.0000    0.0000    0.0000 O   0  0  0  0  0  0  0  0  0  0  0  0
    1.3010   -0.7470    0.0000 C   0  0  0  0  0  0  0  0  0  0  0  0
    1.3040   -2.2470    0.0000 O   0  0  0  0  0  0  0  0  0  0  0  0
    2.5980    0.0050    0.0000 C   0  0  0  0  0  0  0  0  0  0  0  0
    3.8990   -0.7420    0.0000 N   0  0  0  0  0  0  0  0  0  0  0  0
    5.1960    0.0100    0.0000 C   0  0  0  0  0  0  0  0  0  0  0  0
    5.1930    1.5100    0.0000 N   0  0  0  0  0  0  0  0  0  0  0  0
    6.4970   -0.7370    0.0000 N   0  0  0  0  0  0  0  0  0  0  0  0
    3.9020   -2.2420    0.0000 C   0  0  0  0  0  0  0  0  0  0  0  0
  1  2  1  0  0  0  0
  2  3  2  0  0  0  0
  2  4  1  0  0  0  0
  4  5  1  0  0  0  0
  5  6  1  0  0  0  0
  5  9  1  0  0  0  0
  6  7  1  0  0  0  0
  6  8  2  0  0  0  0
M  END
>  <Index>
261

>  <ID>
HT0552

>  <class>
0

>  <apol>
17.945137

>  <ast_fraglike>
0

>  <ast_fraglike_ext>
0

>  <ast_violation>
1

>  <ast_violation_ext>
2

>  <a_acc>
3

>  <a_acid>
0

>  <a_aro>
0

>  <a_base>
0

>  <a_count>
18

>  <a_don>
4

>  <a_donacc>
7

>  <a_heavy>
9

>  <a_hyd>
2

>  <a_IC>
31.774437

>  <a_ICM>
1.7652465

>  <a_nB>
0

>  <a_nBr>
0

>  <a_nC>
4

>  <a_nCl>
0

>  <a_nF>
0

>  <a_nH>
9

>  <a_nI>
0

>  <a_nN>
3

>  <a_nO>
2

>  <a_nP>
0

>  <a_nS>
0

>  <balabanJ>
3.41747

>  <BCUT_PEOE_0>
-2.4803655

>  <BCUT_PEOE_1>
-0.49830356

>  <BCUT_PEOE_2>
0.47987622

>  <BCUT_PEOE_3>
2.4249573

>  <BCUT_SLOGP_0>
-2.6921287

>  <BCUT_SLOGP_1>
-0.49758917

>  <BCUT_SLOGP_2>
0.40529814

>  <BCUT_SLOGP_3>
2.2466717

>  <BCUT_SMR_0>
-2.1856754

>  <BCUT_SMR_1>
-0.28572604

>  <BCUT_SMR_2>
0.62057489

>  <BCUT_SMR_3>
2.6962845

>  <bpol>
12.116863

>  <b_1rotN>
3

>  <b_1rotR>
0.375

>  <b_ar>
0

>  <b_count>
17

>  <b_double>
2

>  <b_heavy>
8

>  <b_max1len>
4

>  <b_rotN>
3

>  <b_rotR>
0.375

>  <b_single>
15

>  <b_triple>
0

>  <chi0>
7.4391575

>  <chi0v>
5.0871325

>  <chi0v_C>
2.7071068

>  <chi0_C>
2.8618073

>  <chi1>
4.036581

>  <chi1v>
2.3070076

>  <chi1v_C>
0.35355338

>  <chi1_C>
0.40824831

>  <chiral>
0

>  <chiral_u>
0

>  <density>
0.81085575

>  <diameter>
5

>  <FCharge>
0

>  <GCUT_PEOE_0>
-0.84504378

>  <GCUT_PEOE_1>
-0.43590289

>  <GCUT_PEOE_2>
0.056140944

>  <GCUT_PEOE_3>
2.0047572

>  <GCUT_SLOGP_0>
-1.3706326

>  <GCUT_SLOGP_1>
-0.40464008

>  <GCUT_SLOGP_2>
0.043453939

>  <GCUT_SLOGP_3>
1.8666958

>  <GCUT_SMR_0>
-0.4935863

>  <GCUT_SMR_1>
-0.20021971

>  <GCUT_SMR_2>
0.1769111

>  <GCUT_SMR_3>
2.25459

>  <Kier1>
9

>  <Kier2>
3.9200001

>  <Kier3>
4.5

>  <KierA1>
6.2771783

>  <KierA2>
2.5926862

>  <KierA3>
2.8243971

>  <KierFlex>
1.808306

>  <lip_acc>
5

>  <lip_don>
4

>  <lip_druglike>
1

>  <lip_violation>
0

>  <logP(o/w)>
-0.61900002

>  <logS>
0.19907001

>  <mr>
3.1176884

>  <mutagenic>
0

>  <nmol>
1

>  <opr_brigid>
1

>  <opr_leadlike>
1

>  <opr_nring>
0

>  <opr_nrot>
3

>  <opr_violation>
0

>  <PC+>
0

>  <PC->
0

>  <PEOE_PC+>
1.5679891

>  <PEOE_PC->
-1.5679891

>  <PEOE_RPC+>
0.17806235

>  <PEOE_RPC->
0.23595208

>  <PEOE_VSA+0>
36.034847

>  <PEOE_VSA+1>
8.5307722

>  <PEOE_VSA+2>
13.192325

>  <PEOE_VSA+3>
41.538612

>  <PEOE_VSA+4>
10.324173

>  <PEOE_VSA+5>
14.708499

>  <PEOE_VSA+6>
0

>  <PEOE_VSA-0>
0

>  <PEOE_VSA-1>
0

>  <PEOE_VSA-2>
0

>  <PEOE_VSA-3>
0

>  <PEOE_VSA-4>
0

>  <PEOE_VSA-5>
25.763725

>  <PEOE_VSA-6>
14.418659

>  <PEOE_VSA_FHYD>
0.60358387

>  <PEOE_VSA_FNEG>
0.24425258

>  <PEOE_VSA_FPNEG>
0.24425258

>  <PEOE_VSA_FPOL>
0.39641613

>  <PEOE_VSA_FPOS>
0.75574744

>  <PEOE_VSA_FPPOS>
0.15216355

>  <PEOE_VSA_HYD>
99.296555

>  <PEOE_VSA_NEG>
40.182384

>  <PEOE_VSA_PNEG>
40.182384

>  <PEOE_VSA_POL>
65.215057

>  <PEOE_VSA_POS>
124.32923

>  <PEOE_VSA_PPOS>
25.032671

>  <petitjean>
0.40000001

>  <petitjeanSC>
0.66666669

>  <Q_PC+>
0

>  <Q_PC->
0

>  <Q_RPC+>
0

>  <Q_RPC->
0

>  <Q_VSA_FHYD>
1

>  <Q_VSA_FNEG>
0

>  <Q_VSA_FPNEG>
0

>  <Q_VSA_FPOL>
0

>  <Q_VSA_FPOS>
1

>  <Q_VSA_FPPOS>
0

>  <Q_VSA_HYD>
164.51161

>  <Q_VSA_NEG>
0

>  <Q_VSA_PNEG>
0

>  <Q_VSA_POL>
0

>  <Q_VSA_POS>
164.51161

>  <Q_VSA_PPOS>
0

>  <radius>
3

>  <reactive>
0

>  <rings>
0

>  <RPC+>
0

>  <RPC->
0

>  <rsynth>
1

>  <SlogP>
-1.10373

>  <SlogP_VSA0>
32.897186

>  <SlogP_VSA1>
12.76887

>  <SlogP_VSA2>
23.862217

>  <SlogP_VSA3>
43.824806

>  <SlogP_VSA4>
0

>  <SlogP_VSA5>
32.897186

>  <SlogP_VSA6>
0

>  <SlogP_VSA7>
31.671967

>  <SlogP_VSA8>
0

>  <SlogP_VSA9>
0

>  <SMR>
3.2179899

>  <SMR_VSA0>
23.862217

>  <SMR_VSA1>
3.1243138

>  <SMR_VSA2>
57.057194

>  <SMR_VSA3>
0

>  <SMR_VSA4>
32.897186

>  <SMR_VSA5>
0

>  <SMR_VSA6>
28.084135

>  <SMR_VSA7>
32.897186

>  <TPSA>
90.410004

>  <VAdjEq>
0.71696228

>  <VAdjMa>
4

>  <VDistEq>
2.2607846

>  <VDistMa>
5.9966536

>  <vdw_area>
164.51161

>  <vdw_vol>
161.7242

>  <vsa_acc>
0

>  <vsa_acid>
0

>  <vsa_base>
0

>  <vsa_don>
17.742489

>  <vsa_hyd>
54.198967

>  <vsa_other>
30.390074

>  <vsa_pol>
62.61882

>  <Weight>
131.13499

>  <weinerPath>
96

>  <weinerPol>
8

>  <zagreb>
36

$$$$