Oc1ccccc1-c1nc(nn1-c1ccc(cc1)C(O)=O)-c1ccccc1O
  MOE2013           2D

 28 31  0  0  0  0  0  0  0  0999 V2000
    0.0000    0.0000    0.0000 O   0  0  0  0  0  0  0  0  0  0  0  0
    1.5000    0.0090    0.0000 C   0  0  0  0  0  0  0  0  0  0  0  0
    2.2420    1.3130    0.0000 C   0  0  0  0  0  0  0  0  0  0  0  0
    3.7420    1.3220    0.0000 C   0  0  0  0  0  0  0  0  0  0  0  0
    4.5000    0.0280    0.0000 C   0  0  0  0  0  0  0  0  0  0  0  0
    3.7580   -1.2760    0.0000 C   0  0  0  0  0  0  0  0  0  0  0  0
    2.2580   -1.2850    0.0000 C   0  0  0  0  0  0  0  0  0  0  0  0
    1.5160   -2.5890    0.0000 C   0  0  0  0  0  0  0  0  0  0  0  0
    0.0250   -2.7550    0.0000 N   0  0  0  0  0  0  0  0  0  0  0  0
   -0.2780   -4.2240    0.0000 C   0  0  0  0  0  0  0  0  0  0  0  0
    1.0260   -4.9660    0.0000 N   0  0  0  0  0  0  0  0  0  0  0  0
    2.1350   -3.9550    0.0000 N   0  0  0  0  0  0  0  0  0  0  0  0
    3.6040   -4.2580    0.0000 C   0  0  0  0  0  0  0  0  0  0  0  0
    4.0760   -5.6820    0.0000 C   0  0  0  0  0  0  0  0  0  0  0  0
    5.5450   -5.9850    0.0000 C   0  0  0  0  0  0  0  0  0  0  0  0
    6.5420   -4.8640    0.0000 C   0  0  0  0  0  0  0  0  0  0  0  0
    6.0700   -3.4400    0.0000 C   0  0  0  0  0  0  0  0  0  0  0  0
    4.6000   -3.1370    0.0000 C   0  0  0  0  0  0  0  0  0  0  0  0
    8.0110   -5.1670    0.0000 C   0  0  0  0  0  0  0  0  0  0  0  0
    9.0080   -4.0460    0.0000 O   0  0  0  0  0  0  0  0  0  0  0  0
    8.4830   -6.5900    0.0000 O   0  0  0  0  0  0  0  0  0  0  0  0
   -1.6440   -4.8420    0.0000 C   0  0  0  0  0  0  0  0  0  0  0  0
   -2.8630   -3.9680    0.0000 C   0  0  0  0  0  0  0  0  0  0  0  0
   -4.2300   -4.5870    0.0000 C   0  0  0  0  0  0  0  0  0  0  0  0
   -4.3770   -6.0800    0.0000 C   0  0  0  0  0  0  0  0  0  0  0  0
   -3.1580   -6.9540    0.0000 C   0  0  0  0  0  0  0  0  0  0  0  0
   -1.7920   -6.3350    0.0000 C   0  0  0  0  0  0  0  0  0  0  0  0
   -0.5730   -7.2090    0.0000 O   0  0  0  0  0  0  0  0  0  0  0  0
  1  2  1  0  0  0  0
  2  3  1  0  0  0  0
  2  7  2  0  0  0  0
  3  4  2  0  0  0  0
  4  5  1  0  0  0  0
  5  6  2  0  0  0  0
  6  7  1  0  0  0  0
  7  8  1  0  0  0  0
  8  9  2  0  0  0  0
  8 12  1  0  0  0  0
  9 10  1  0  0  0  0
 10 11  2  0  0  0  0
 10 22  1  0  0  0  0
 11 12  1  0  0  0  0
 12 13  1  0  0  0  0
 13 14  1  0  0  0  0
 13 18  2  0  0  0  0
 14 15  2  0  0  0  0
 15 16  1  0  0  0  0
 16 17  2  0  0  0  0
 16 19  1  0  0  0  0
 17 18  1  0  0  0  0
 19 20  1  0  0  0  0
 19 21  2  0  0  0  0
 22 23  1  0  0  0  0
 22 27  2  0  0  0  0
 23 24  2  0  0  0  0
 24 25  1  0  0  0  0
 25 26  2  0  0  0  0
 26 27  1  0  0  0  0
 27 28  1  0  0  0  0
M  END
>  <Index>
289

>  <ID>
HT0599

>  <class>
0

>  <apol>
53.469894

>  <ast_fraglike>
0

>  <ast_fraglike_ext>
0

>  <ast_violation>
4

>  <ast_violation_ext>
6

>  <a_acc>
6

>  <a_acid>
0

>  <a_aro>
23

>  <a_base>
0

>  <a_count>
43

>  <a_don>
4

>  <a_donacc>
10

>  <a_heavy>
28

>  <a_hyd>
18

>  <a_IC>
69.732475

>  <a_ICM>
1.6216854

>  <a_nB>
0

>  <a_nBr>
0

>  <a_nC>
21

>  <a_nCl>
0

>  <a_nF>
0

>  <a_nH>
15

>  <a_nI>
0

>  <a_nN>
3

>  <a_nO>
4

>  <a_nP>
0

>  <a_nS>
0

>  <balabanJ>
1.4812565

>  <BCUT_PEOE_0>
-2.2233105

>  <BCUT_PEOE_1>
-0.64219666

>  <BCUT_PEOE_2>
0.70369714

>  <BCUT_PEOE_3>
2.2638159

>  <BCUT_SLOGP_0>
-2.1429086

>  <BCUT_SLOGP_1>
-0.53807992

>  <BCUT_SLOGP_2>
0.80591482

>  <BCUT_SLOGP_3>
2.4268079

>  <BCUT_SMR_0>
-1.8996919

>  <BCUT_SMR_1>
-0.49986199

>  <BCUT_SMR_2>
0.90509206

>  <BCUT_SMR_3>
2.5837102

>  <bpol>
20.656105

>  <b_1rotN>
4

>  <b_1rotR>
0.12903225

>  <b_ar>
23

>  <b_count>
46

>  <b_double>
1

>  <b_heavy>
31

>  <b_max1len>
1

>  <b_rotN>
4

>  <b_rotR>
0.12903225

>  <b_single>
22

>  <b_triple>
0

>  <chi0>
19.672998

>  <chi0v>
14.519733

>  <chi0v_C>
11.428204

>  <chi0_C>
13.681434

>  <chi1>
13.541714

>  <chi1v>
8.4190464

>  <chi1v_C>
6.2260675

>  <chi1_C>
8.9326534

>  <chiral>
0

>  <chiral_u>
0

>  <density>
0.77631474

>  <diameter>
12

>  <FCharge>
0

>  <GCUT_PEOE_0>
-0.79417408

>  <GCUT_PEOE_1>
-0.49379998

>  <GCUT_PEOE_2>
0.10771709

>  <GCUT_PEOE_3>
2.5285864

>  <GCUT_SLOGP_0>
-0.88525194

>  <GCUT_SLOGP_1>
-0.36532778

>  <GCUT_SLOGP_2>
0.1791783

>  <GCUT_SLOGP_3>
2.6626582

>  <GCUT_SMR_0>
-0.42894074

>  <GCUT_SMR_1>
-0.23778225

>  <GCUT_SMR_2>
0.2682271

>  <GCUT_SMR_3>
2.8334808

>  <Kier1>
21.240376

>  <Kier2>
9.4276857

>  <Kier3>
4.6944447

>  <KierA1>
14.239378

>  <KierA2>
6.2180619

>  <KierA3>
3.060431

>  <KierFlex>
3.1621907

>  <lip_acc>
7

>  <lip_don>
3

>  <lip_druglike>
1

>  <lip_violation>
0

>  <logP(o/w)>
3.471

>  <logS>
-6.3180699

>  <mr>
10.327324

>  <mutagenic>
0

>  <nmol>
1

>  <opr_brigid>
23

>  <opr_leadlike>
1

>  <opr_nring>
4

>  <opr_nrot>
4

>  <opr_violation>
0

>  <PC+>
0

>  <PC->
0

>  <PEOE_PC+>
2.4320064

>  <PEOE_PC->
-2.4320064

>  <PEOE_RPC+>
0.1197519

>  <PEOE_RPC->
0.14766641

>  <PEOE_VSA+0>
4.4170794

>  <PEOE_VSA+1>
77.009758

>  <PEOE_VSA+2>
0

>  <PEOE_VSA+3>
22.381124

>  <PEOE_VSA+4>
30.972517

>  <PEOE_VSA+5>
14.708499

>  <PEOE_VSA+6>
0

>  <PEOE_VSA-0>
98.03923

>  <PEOE_VSA-1>
49.019615

>  <PEOE_VSA-2>
9.4210396

>  <PEOE_VSA-3>
0

>  <PEOE_VSA-4>
5.6825762

>  <PEOE_VSA-5>
13.566921

>  <PEOE_VSA-6>
23.30262

>  <PEOE_VSA_FHYD>
0.74683553

>  <PEOE_VSA_FNEG>
0.5710761

>  <PEOE_VSA_FPNEG>
0.12209342

>  <PEOE_VSA_FPOL>
0.25316447

>  <PEOE_VSA_FPOS>
0.4289239

>  <PEOE_VSA_FPPOS>
0.13107106

>  <PEOE_VSA_HYD>
260.28784

>  <PEOE_VSA_NEG>
199.032

>  <PEOE_VSA_PNEG>
42.552116

>  <PEOE_VSA_POL>
88.233131

>  <PEOE_VSA_POS>
149.48898

>  <PEOE_VSA_PPOS>
45.681019

>  <petitjean>
0.5

>  <petitjeanSC>
1

>  <Q_PC+>
0

>  <Q_PC->
0

>  <Q_RPC+>
0

>  <Q_RPC->
0

>  <Q_VSA_FHYD>
1

>  <Q_VSA_FNEG>
0

>  <Q_VSA_FPNEG>
0

>  <Q_VSA_FPOL>
0

>  <Q_VSA_FPOS>
1

>  <Q_VSA_FPPOS>
0

>  <Q_VSA_HYD>
348.521

>  <Q_VSA_NEG>
0

>  <Q_VSA_PNEG>
0

>  <Q_VSA_POL>
0

>  <Q_VSA_POS>
348.521

>  <Q_VSA_PPOS>
0

>  <radius>
6

>  <reactive>
0

>  <rings>
4

>  <RPC+>
0

>  <RPC->
0

>  <rsynth>
1

>  <SlogP>
3.7107

>  <SlogP_VSA0>
50.770454

>  <SlogP_VSA1>
42.970573

>  <SlogP_VSA2>
0

>  <SlogP_VSA3>
25.385227

>  <SlogP_VSA4>
27.047791

>  <SlogP_VSA5>
0

>  <SlogP_VSA6>
0

>  <SlogP_VSA7>
225.50195

>  <SlogP_VSA8>
0

>  <SlogP_VSA9>
10.486856

>  <SMR>
10.25199

>  <SMR_VSA0>
23.862217

>  <SMR_VSA1>
85.99556

>  <SMR_VSA2>
25.385227

>  <SMR_VSA3>
13.672431

>  <SMR_VSA4>
13.783738

>  <SMR_VSA5>
211.71822

>  <SMR_VSA6>
7.7454643

>  <SMR_VSA7>
0

>  <TPSA>
108.47

>  <VAdjEq>
0.39893496

>  <VAdjMa>
5.9541965

>  <VDistEq>
3.3800168

>  <VDistMa>
9.3514795

>  <vdw_area>
348.521

>  <vdw_vol>
480.94928

>  <vsa_acc>
15.103616

>  <vsa_acid>
0

>  <vsa_base>
0

>  <vsa_don>
0

>  <vsa_hyd>
219.94414

>  <vsa_other>
37.089626

>  <vsa_pol>
69.3713

>  <Weight>
373.36798

>  <weinerPath>
1976

>  <weinerPol>
46

>  <zagreb>
150

$$$$