Clc1cc2N(C(=O)CC(=O)N(c2cc1)C)c1ccccc1
  MOE2013           2D

 21 23  0  0  0  0  0  0  0  0999 V2000
    0.0000    0.0000    0.0000 Cl  0  0  0  0  0  0  0  0  0  0  0  0
   -0.8910   -1.2070    0.0000 C   0  0  0  0  0  0  0  0  0  0  0  0
   -0.2910   -2.5820    0.0000 C   0  0  0  0  0  0  0  0  0  0  0  0
   -1.1810   -3.7890    0.0000 C   0  0  0  0  0  0  0  0  0  0  0  0
   -0.3830   -5.0580    0.0000 N   0  0  0  0  0  0  0  0  0  0  0  0
   -0.8790   -6.4740    0.0000 C   0  0  0  0  0  0  0  0  0  0  0  0
    0.1810   -7.5350    0.0000 O   0  0  0  0  0  0  0  0  0  0  0  0
   -2.2950   -6.9690    0.0000 C   0  0  0  0  0  0  0  0  0  0  0  0
   -3.5650   -6.1710    0.0000 C   0  0  0  0  0  0  0  0  0  0  0  0
   -4.8360   -6.9690    0.0000 O   0  0  0  0  0  0  0  0  0  0  0  0
   -3.7330   -4.6810    0.0000 N   0  0  0  0  0  0  0  0  0  0  0  0
   -2.6720   -3.6210    0.0000 C   0  0  0  0  0  0  0  0  0  0  0  0
   -3.2720   -2.2460    0.0000 C   0  0  0  0  0  0  0  0  0  0  0  0
   -2.3810   -1.0390    0.0000 C   0  0  0  0  0  0  0  0  0  0  0  0
   -5.1490   -4.1850    0.0000 C   0  0  0  0  0  0  0  0  0  0  0  0
    1.1080   -4.8910    0.0000 C   0  0  0  0  0  0  0  0  0  0  0  0
    1.7080   -3.5160    0.0000 C   0  0  0  0  0  0  0  0  0  0  0  0
    3.1980   -3.3480    0.0000 C   0  0  0  0  0  0  0  0  0  0  0  0
    4.0890   -4.5550    0.0000 C   0  0  0  0  0  0  0  0  0  0  0  0
    3.4890   -5.9300    0.0000 C   0  0  0  0  0  0  0  0  0  0  0  0
    1.9980   -6.0970    0.0000 C   0  0  0  0  0  0  0  0  0  0  0  0
  1  2  1  0  0  0  0
  2  3  1  0  0  0  0
  2 14  2  0  0  0  0
  3  4  2  0  0  0  0
  4  5  1  0  0  0  0
  4 12  1  0  0  0  0
  5  6  1  0  0  0  0
  5 16  1  0  0  0  0
  6  7  2  0  0  0  0
  6  8  1  0  0  0  0
  8  9  1  0  0  0  0
  9 10  2  0  0  0  0
  9 11  1  0  0  0  0
 11 12  1  0  0  0  0
 11 15  1  0  0  0  0
 12 13  2  0  0  0  0
 13 14  1  0  0  0  0
 16 17  1  0  0  0  0
 16 21  2  0  0  0  0
 17 18  2  0  0  0  0
 18 19  1  0  0  0  0
 19 20  2  0  0  0  0
 20 21  1  0  0  0  0
M  END
>  <Index>
243

>  <ID>
HT0515

>  <class>
0

>  <apol>
42.812309

>  <ast_fraglike>
0

>  <ast_fraglike_ext>
0

>  <ast_violation>
2

>  <ast_violation_ext>
2

>  <a_acc>
2

>  <a_acid>
0

>  <a_aro>
12

>  <a_base>
0

>  <a_count>
34

>  <a_don>
0

>  <a_donacc>
2

>  <a_heavy>
21

>  <a_hyd>
15

>  <a_IC>
56.868019

>  <a_ICM>
1.6725888

>  <a_nB>
0

>  <a_nBr>
0

>  <a_nC>
16

>  <a_nCl>
1

>  <a_nF>
0

>  <a_nH>
13

>  <a_nI>
0

>  <a_nN>
2

>  <a_nO>
2

>  <a_nP>
0

>  <a_nS>
0

>  <balabanJ>
1.8690488

>  <BCUT_PEOE_0>
-2.395195

>  <BCUT_PEOE_1>
-0.5854491

>  <BCUT_PEOE_2>
0.58851796

>  <BCUT_PEOE_3>
2.4952774

>  <BCUT_SLOGP_0>
-2.5161498

>  <BCUT_SLOGP_1>
-0.51256061

>  <BCUT_SLOGP_2>
0.77707297

>  <BCUT_SLOGP_3>
2.5162821

>  <BCUT_SMR_0>
-2.0829775

>  <BCUT_SMR_1>
-0.39544842

>  <BCUT_SMR_2>
0.85431087

>  <BCUT_SMR_3>
2.802701

>  <bpol>
20.50769

>  <b_1rotN>
1

>  <b_1rotR>
0.043478262

>  <b_ar>
12

>  <b_count>
36

>  <b_double>
2

>  <b_heavy>
23

>  <b_max1len>
2

>  <b_rotN>
1

>  <b_rotR>
0.043478262

>  <b_single>
22

>  <b_triple>
0

>  <chi0>
14.982763

>  <chi0v>
12.170726

>  <chi0v_C>
9.3259087

>  <chi0_C>
10.828063

>  <chi1>
10.075387

>  <chi1v>
6.8962669

>  <chi1v_C>
4.3558245

>  <chi1_C>
6.0993195

>  <chiral>
0

>  <chiral_u>
0

>  <density>
0.78773636

>  <diameter>
8

>  <FCharge>
0

>  <GCUT_PEOE_0>
-0.82506174

>  <GCUT_PEOE_1>
-0.45173141

>  <GCUT_PEOE_2>
0.05985786

>  <GCUT_PEOE_3>
2.5619764

>  <GCUT_SLOGP_0>
-0.9927516

>  <GCUT_SLOGP_1>
-0.31218493

>  <GCUT_SLOGP_2>
0.15389213

>  <GCUT_SLOGP_3>
2.6705701

>  <GCUT_SMR_0>
-0.46840501

>  <GCUT_SMR_1>
-0.21170096

>  <GCUT_SMR_2>
0.19305076

>  <GCUT_SMR_3>
2.8741498

>  <Kier1>
15.879017

>  <Kier2>
6.6299357

>  <Kier3>
3.2

>  <KierA1>
11.553188

>  <KierA2>
4.7404509

>  <KierA3>
2.2574773

>  <KierFlex>
2.6079676

>  <lip_acc>
4

>  <lip_don>
0

>  <lip_druglike>
1

>  <lip_violation>
0

>  <logP(o/w)>
2.6470001

>  <logS>
-4.1659899

>  <mr>
8.2048092

>  <mutagenic>
0

>  <nmol>
1

>  <opr_brigid>
18

>  <opr_leadlike>
1

>  <opr_nring>
3

>  <opr_nrot>
1

>  <opr_violation>
0

>  <PC+>
0

>  <PC->
0

>  <PEOE_PC+>
1.5689945

>  <PEOE_PC->
-1.5689945

>  <PEOE_RPC+>
0.15383075

>  <PEOE_RPC->
0.199442

>  <PEOE_VSA+0>
55.784916

>  <PEOE_VSA+1>
47.52219

>  <PEOE_VSA+2>
8.701313

>  <PEOE_VSA+3>
0

>  <PEOE_VSA+4>
25.899061

>  <PEOE_VSA+5>
0

>  <PEOE_VSA+6>
0

>  <PEOE_VSA-0>
61.274521

>  <PEOE_VSA-1>
66.346657

>  <PEOE_VSA-2>
0

>  <PEOE_VSA-3>
0

>  <PEOE_VSA-4>
0

>  <PEOE_VSA-5>
27.133842

>  <PEOE_VSA-6>
0

>  <PEOE_VSA_FHYD>
0.81879163

>  <PEOE_VSA_FNEG>
0.5287832

>  <PEOE_VSA_FPNEG>
0.092713766

>  <PEOE_VSA_FPOL>
0.1812084

>  <PEOE_VSA_FPOS>
0.47121677

>  <PEOE_VSA_FPPOS>
0.088494636

>  <PEOE_VSA_HYD>
239.62959

>  <PEOE_VSA_NEG>
154.75502

>  <PEOE_VSA_PNEG>
27.133842

>  <PEOE_VSA_POL>
53.032902

>  <PEOE_VSA_POS>
137.90749

>  <PEOE_VSA_PPOS>
25.899061

>  <petitjean>
0.5

>  <petitjeanSC>
1

>  <Q_PC+>
0

>  <Q_PC->
0

>  <Q_RPC+>
0

>  <Q_RPC->
0

>  <Q_VSA_FHYD>
1

>  <Q_VSA_FNEG>
0

>  <Q_VSA_FPNEG>
0

>  <Q_VSA_FPOL>
0

>  <Q_VSA_FPOS>
1

>  <Q_VSA_FPPOS>
0

>  <Q_VSA_HYD>
292.66251

>  <Q_VSA_NEG>
0

>  <Q_VSA_PNEG>
0

>  <Q_VSA_POL>
0

>  <Q_VSA_POS>
292.66251

>  <Q_VSA_PPOS>
0

>  <radius>
4

>  <reactive>
0

>  <rings>
3

>  <RPC+>
0

>  <RPC->
0

>  <rsynth>
1

>  <SlogP>
3.3712001

>  <SlogP_VSA0>
6.2486277

>  <SlogP_VSA1>
10.517568

>  <SlogP_VSA2>
47.724434

>  <SlogP_VSA3>
0

>  <SlogP_VSA4>
0

>  <SlogP_VSA5>
32.897186

>  <SlogP_VSA6>
3.5006065

>  <SlogP_VSA7>
141.14548

>  <SlogP_VSA8>
18.868406

>  <SlogP_VSA9>
47.418888

>  <SMR>
8.3066998

>  <SMR_VSA0>
47.724434

>  <SMR_VSA1>
0

>  <SMR_VSA2>
6.2486277

>  <SMR_VSA3>
3.5006065

>  <SMR_VSA4>
8.2702427

>  <SMR_VSA5>
160.01389

>  <SMR_VSA6>
10.517568

>  <SMR_VSA7>
72.04583

>  <TPSA>
40.619999

>  <VAdjEq>
0.48250595

>  <VAdjMa>
5.523562

>  <VDistEq>
2.8221037

>  <VDistMa>
8.5437956

>  <vdw_area>
292.66251

>  <vdw_vol>
381.78381

>  <vsa_acc>
27.133842

>  <vsa_acid>
0

>  <vsa_base>
0

>  <vsa_don>
0

>  <vsa_hyd>
230.37627

>  <vsa_other>
25.899061

>  <vsa_pol>
27.133842

>  <Weight>
300.745

>  <weinerPath>
807

>  <weinerPol>
39

>  <zagreb>
112

$$$$