OC(CCN1CCCCC1)(C1CCCC1)c1ccccc1
  MOE2013           2D

 21 23  0  0  1  0  0  0  0  0999 V2000
    0.0000    0.0000    0.0000 O   0  0  0  0  0  0  0  0  0  0  0  0
   -0.3900    1.4480    0.0000 C   0  0  3  0  0  0  0  0  0  0  0  0
    1.0590    1.8380    0.0000 C   0  0  0  0  0  0  0  0  0  0  0  0
    2.1200    0.7790    0.0000 C   0  0  0  0  0  0  0  0  0  0  0  0
    3.5690    1.1680    0.0000 N   0  0  0  0  0  0  0  0  0  0  0  0
    3.9560    2.6180    0.0000 C   0  0  0  0  0  0  0  0  0  0  0  0
    5.4040    3.0080    0.0000 C   0  0  0  0  0  0  0  0  0  0  0  0
    6.4660    1.9480    0.0000 C   0  0  0  0  0  0  0  0  0  0  0  0
    6.0790    0.4990    0.0000 C   0  0  0  0  0  0  0  0  0  0  0  0
    4.6310    0.1090    0.0000 C   0  0  0  0  0  0  0  0  0  0  0  0
   -0.7800    2.8970    0.0000 C   0  0  0  0  0  0  0  0  0  0  0  0
   -2.1800    3.4330    0.0000 C   0  0  0  0  0  0  0  0  0  0  0  0
   -2.1040    4.9310    0.0000 C   0  0  0  0  0  0  0  0  0  0  0  0
   -0.6550    5.3210    0.0000 C   0  0  0  0  0  0  0  0  0  0  0  0
    0.1630    4.0640    0.0000 C   0  0  0  0  0  0  0  0  0  0  0  0
   -1.8380    1.0590    0.0000 C   0  0  0  0  0  0  0  0  0  0  0  0
   -2.2250   -0.3910    0.0000 C   0  0  0  0  0  0  0  0  0  0  0  0
   -3.6730   -0.7800    0.0000 C   0  0  0  0  0  0  0  0  0  0  0  0
   -4.7350    0.2790    0.0000 C   0  0  0  0  0  0  0  0  0  0  0  0
   -4.3490    1.7280    0.0000 C   0  0  0  0  0  0  0  0  0  0  0  0
   -2.9000    2.1180    0.0000 C   0  0  0  0  0  0  0  0  0  0  0  0
  1  2  1  0  0  0  0
  2  3  1  0  0  0  0
  2 11  1  0  0  0  0
  2 16  1  0  0  0  0
  3  4  1  0  0  0  0
  4  5  1  0  0  0  0
  5  6  1  0  0  0  0
  5 10  1  0  0  0  0
  6  7  1  0  0  0  0
  7  8  1  0  0  0  0
  8  9  1  0  0  0  0
  9 10  1  0  0  0  0
 11 12  1  0  0  0  0
 11 15  1  0  0  0  0
 12 13  1  0  0  0  0
 13 14  1  0  0  0  0
 14 15  1  0  0  0  0
 16 17  1  0  0  0  0
 16 21  2  0  0  0  0
 17 18  2  0  0  0  0
 18 19  1  0  0  0  0
 19 20  2  0  0  0  0
 20 21  1  0  0  0  0
M  END
>  <Index>
273

>  <ID>
HT0573

>  <class>
0

>  <apol>
54.678997

>  <ast_fraglike>
0

>  <ast_fraglike_ext>
0

>  <ast_violation>
1

>  <ast_violation_ext>
2

>  <a_acc>
2

>  <a_acid>
0

>  <a_aro>
6

>  <a_base>
0

>  <a_count>
50

>  <a_don>
1

>  <a_donacc>
3

>  <a_heavy>
21

>  <a_hyd>
19

>  <a_IC>
60.600739

>  <a_ICM>
1.2120148

>  <a_nB>
0

>  <a_nBr>
0

>  <a_nC>
19

>  <a_nCl>
0

>  <a_nF>
0

>  <a_nH>
29

>  <a_nI>
0

>  <a_nN>
1

>  <a_nO>
1

>  <a_nP>
0

>  <a_nS>
0

>  <balabanJ>
1.6230035

>  <BCUT_PEOE_0>
-2.8002164

>  <BCUT_PEOE_1>
-0.61033249

>  <BCUT_PEOE_2>
0.66317677

>  <BCUT_PEOE_3>
2.8039987

>  <BCUT_SLOGP_0>
-2.7989478

>  <BCUT_SLOGP_1>
-0.50338006

>  <BCUT_SLOGP_2>
0.72250384

>  <BCUT_SLOGP_3>
2.9254777

>  <BCUT_SMR_0>
-2.5322802

>  <BCUT_SMR_1>
-0.46695217

>  <BCUT_SMR_2>
0.81379563

>  <BCUT_SMR_3>
3.0526521

>  <bpol>
33.683002

>  <b_1rotN>
5

>  <b_1rotR>
0.2173913

>  <b_ar>
6

>  <b_count>
52

>  <b_double>
0

>  <b_heavy>
23

>  <b_max1len>
5

>  <b_rotN>
5

>  <b_rotR>
0.2173913

>  <b_single>
46

>  <b_triple>
0

>  <chi0>
14.545759

>  <chi0v>
13.136703

>  <chi0v_C>
12.242276

>  <chi0_C>
12.968409

>  <chi1>
10.288642

>  <chi1v>
8.7916985

>  <chi1v_C>
7.6194086

>  <chi1_C>
8.5638971

>  <chiral>
1

>  <chiral_u>
1

>  <density>
0.64582902

>  <diameter>
10

>  <FCharge>
0

>  <GCUT_PEOE_0>
-0.85751313

>  <GCUT_PEOE_1>
-0.3763783

>  <GCUT_PEOE_2>
0.072833888

>  <GCUT_PEOE_3>
2.9375656

>  <GCUT_SLOGP_0>
-0.95233011

>  <GCUT_SLOGP_1>
-0.27036601

>  <GCUT_SLOGP_2>
0.1363878

>  <GCUT_SLOGP_3>
3.0291877

>  <GCUT_SMR_0>
-0.53569591

>  <GCUT_SMR_1>
-0.20476128

>  <GCUT_SMR_2>
0.18197371

>  <GCUT_SMR_3>
3.1720557

>  <Kier1>
15.879017

>  <Kier2>
7.5130072

>  <Kier3>
3.8548484

>  <KierA1>
14.119921

>  <KierA2>
6.6393681

>  <KierA3>
3.390408

>  <KierFlex>
4.4641595

>  <lip_acc>
2

>  <lip_don>
1

>  <lip_druglike>
1

>  <lip_violation>
0

>  <logP(o/w)>
4.5669999

>  <logS>
-3.66886

>  <mr>
8.8069458

>  <mutagenic>
0

>  <nmol>
1

>  <opr_brigid>
17

>  <opr_leadlike>
1

>  <opr_nring>
3

>  <opr_nrot>
8

>  <opr_violation>
0

>  <PC+>
0

>  <PC->
0

>  <PEOE_PC+>
1.3458381

>  <PEOE_PC->
-1.3458381

>  <PEOE_RPC+>
0.15650383

>  <PEOE_RPC->
0.28505406

>  <PEOE_VSA+0>
111.2962

>  <PEOE_VSA+1>
21.326929

>  <PEOE_VSA+2>
0

>  <PEOE_VSA+3>
0

>  <PEOE_VSA+4>
10.324173

>  <PEOE_VSA+5>
0

>  <PEOE_VSA+6>
0

>  <PEOE_VSA-0>
72.099754

>  <PEOE_VSA-1>
87.378456

>  <PEOE_VSA-2>
0

>  <PEOE_VSA-3>
0

>  <PEOE_VSA-4>
0

>  <PEOE_VSA-5>
0

>  <PEOE_VSA-6>
7.7675405

>  <PEOE_VSA_FHYD>
0.94167596

>  <PEOE_VSA_FNEG>
0.53916663

>  <PEOE_VSA_FPNEG>
0.025040986

>  <PEOE_VSA_FPOL>
0.058324043

>  <PEOE_VSA_FPOS>
0.46083334

>  <PEOE_VSA_FPPOS>
0.033283055

>  <PEOE_VSA_HYD>
292.10135

>  <PEOE_VSA_NEG>
167.24576

>  <PEOE_VSA_PNEG>
7.7675405

>  <PEOE_VSA_POL>
18.091713

>  <PEOE_VSA_POS>
142.94731

>  <PEOE_VSA_PPOS>
10.324173

>  <petitjean>
0.5

>  <petitjeanSC>
1

>  <Q_PC+>
0

>  <Q_PC->
0

>  <Q_RPC+>
0

>  <Q_RPC->
0

>  <Q_VSA_FHYD>
1

>  <Q_VSA_FNEG>
0

>  <Q_VSA_FPNEG>
0

>  <Q_VSA_FPOL>
0

>  <Q_VSA_FPOS>
1

>  <Q_VSA_FPPOS>
0

>  <Q_VSA_HYD>
310.19305

>  <Q_VSA_NEG>
0

>  <Q_VSA_PNEG>
0

>  <Q_VSA_POL>
0

>  <Q_VSA_POS>
310.19305

>  <Q_VSA_PPOS>
0

>  <radius>
5

>  <reactive>
0

>  <rings>
3

>  <RPC+>
0

>  <RPC->
0

>  <rsynth>
0.047619049

>  <SlogP>
4.2519002

>  <SlogP_VSA0>
25.385227

>  <SlogP_VSA1>
3.1243138

>  <SlogP_VSA2>
0

>  <SlogP_VSA3>
55.318733

>  <SlogP_VSA4>
7.5963712

>  <SlogP_VSA5>
0

>  <SlogP_VSA6>
0

>  <SlogP_VSA7>
88.215919

>  <SlogP_VSA8>
150.94725

>  <SlogP_VSA9>
0

>  <SMR>
8.7321796

>  <SMR_VSA0>
0

>  <SMR_VSA1>
28.509541

>  <SMR_VSA2>
4.4107962

>  <SMR_VSA3>
3.185575

>  <SMR_VSA4>
0

>  <SMR_VSA5>
239.16316

>  <SMR_VSA6>
55.318733

>  <SMR_VSA7>
0

>  <TPSA>
23.469999

>  <VAdjEq>
0.48250595

>  <VAdjMa>
5.523562

>  <VDistEq>
3.0978274

>  <VDistMa>
8.5095911

>  <vdw_area>
310.19305

>  <vdw_vol>
445.08221

>  <vsa_acc>
0

>  <vsa_acid>
0

>  <vsa_base>
0

>  <vsa_don>
0

>  <vsa_hyd>
270.82602

>  <vsa_other>
0

>  <vsa_pol>
13.566921

>  <Weight>
287.44699

>  <weinerPath>
917

>  <weinerPol>
30

>  <zagreb>
108

$$$$