Fc1ccc(cc1C)C=1CC(CC(C)(C)C=1C=C[C@H]1OC(=O)C[C@H](O)C1)(C)C
  MOE2013           2D

 28 30  0  0  1  0  0  0  0  0999 V2000
    0.0000    0.0000    0.0000 F   0  0  0  0  0  0  0  0  0  0  0  0
   -0.7420   -1.3040    0.0000 C   0  0  0  0  0  0  0  0  0  0  0  0
    0.0160   -2.5980    0.0000 C   0  0  0  0  0  0  0  0  0  0  0  0
   -0.7260   -3.9020    0.0000 C   0  0  0  0  0  0  0  0  0  0  0  0
   -2.2260   -3.9110    0.0000 C   0  0  0  0  0  0  0  0  0  0  0  0
   -2.9840   -2.6170    0.0000 C   0  0  0  0  0  0  0  0  0  0  0  0
   -2.2420   -1.3130    0.0000 C   0  0  0  0  0  0  0  0  0  0  0  0
   -3.0000   -0.0190    0.0000 C   0  0  0  0  0  0  0  0  0  0  0  0
   -2.9680   -5.2150    0.0000 C   0  0  0  0  0  0  0  0  0  0  0  0
   -4.4680   -5.2240    0.0000 C   0  0  0  0  0  0  0  0  0  0  0  0
   -5.2100   -6.5280    0.0000 C   0  0  0  0  0  0  0  0  0  0  0  0
   -4.4520   -7.8220    0.0000 C   0  0  0  0  0  0  0  0  0  0  0  0
   -2.9520   -7.8130    0.0000 C   0  0  0  0  0  0  0  0  0  0  0  0
   -1.6480   -8.5550    0.0000 C   0  0  0  0  0  0  0  0  0  0  0  0
   -2.9420   -9.3130    0.0000 C   0  0  0  0  0  0  0  0  0  0  0  0
   -2.2100   -6.5090    0.0000 C   0  0  0  0  0  0  0  0  0  0  0  0
   -0.7100   -6.5000    0.0000 C   0  0  0  0  0  0  0  0  0  0  0  0
    0.0480   -7.7940    0.0000 C   0  0  0  0  0  0  0  0  0  0  0  0
    1.5480   -7.7850    0.0000 C   0  0  1  0  0  0  0  0  0  0  0  0
    2.2900   -6.4810    0.0000 O   0  0  0  0  0  0  0  0  0  0  0  0
    3.7900   -6.4720    0.0000 C   0  0  0  0  0  0  0  0  0  0  0  0
    4.5320   -5.1680    0.0000 O   0  0  0  0  0  0  0  0  0  0  0  0
    4.5480   -7.7660    0.0000 C   0  0  0  0  0  0  0  0  0  0  0  0
    3.8060   -9.0700    0.0000 C   0  0  2  0  0  0  0  0  0  0  0  0
    4.5640  -10.3640    0.0000 O   0  0  0  0  0  0  0  0  0  0  0  0
    2.3060   -9.0790    0.0000 C   0  0  0  0  0  0  0  0  0  0  0  0
   -6.5130   -5.7860    0.0000 C   0  0  0  0  0  0  0  0  0  0  0  0
   -6.5040   -7.2860    0.0000 C   0  0  0  0  0  0  0  0  0  0  0  0
  1  2  1  0  0  0  0
  2  3  1  0  0  0  0
  2  7  2  0  0  0  0
  3  4  2  0  0  0  0
  4  5  1  0  0  0  0
  5  6  2  0  0  0  0
  5  9  1  0  0  0  0
  6  7  1  0  0  0  0
  7  8  1  0  0  0  0
  9 10  1  0  0  0  0
  9 16  2  0  0  0  0
 10 11  1  0  0  0  0
 11 12  1  0  0  0  0
 11 27  1  0  0  0  0
 11 28  1  0  0  0  0
 12 13  1  0  0  0  0
 13 14  1  0  0  0  0
 13 15  1  0  0  0  0
 13 16  1  0  0  0  0
 16 17  1  0  0  0  0
 17 18  2  3  0  0  0
 19 18  1  1  0  0  0
 19 20  1  0  0  0  0
 19 26  1  0  0  0  0
 20 21  1  0  0  0  0
 21 22  2  0  0  0  0
 21 23  1  0  0  0  0
 23 24  1  0  0  0  0
 24 25  1  6  0  0  0
 24 26  1  0  0  0  0
M  END
>  <Index>
279

>  <ID>
HT0586

>  <class>
0

>  <apol>
65.873581

>  <ast_fraglike>
0

>  <ast_fraglike_ext>
0

>  <ast_violation>
2

>  <ast_violation_ext>
3

>  <a_acc>
2

>  <a_acid>
0

>  <a_aro>
6

>  <a_base>
0

>  <a_count>
59

>  <a_don>
1

>  <a_donacc>
3

>  <a_heavy>
28

>  <a_hyd>
24

>  <a_IC>
78.701866

>  <a_ICM>
1.3339299

>  <a_nB>
0

>  <a_nBr>
0

>  <a_nC>
24

>  <a_nCl>
0

>  <a_nF>
1

>  <a_nH>
31

>  <a_nI>
0

>  <a_nN>
0

>  <a_nO>
3

>  <a_nP>
0

>  <a_nS>
0

>  <balabanJ>
1.7260879

>  <BCUT_PEOE_0>
-2.8142545

>  <BCUT_PEOE_1>
-0.42310849

>  <BCUT_PEOE_2>
0.49171945

>  <BCUT_PEOE_3>
2.7621067

>  <BCUT_SLOGP_0>
-2.6965945

>  <BCUT_SLOGP_1>
-0.35334963

>  <BCUT_SLOGP_2>
0.46842837

>  <BCUT_SLOGP_3>
2.8911424

>  <BCUT_SMR_0>
-2.5494323

>  <BCUT_SMR_1>
-0.28351381

>  <BCUT_SMR_2>
0.61898512

>  <BCUT_SMR_3>
3.0328546

>  <bpol>
37.966415

>  <b_1rotN>
3

>  <b_1rotR>
0.1

>  <b_ar>
6

>  <b_count>
61

>  <b_double>
3

>  <b_heavy>
30

>  <b_max1len>
4

>  <b_rotN>
3

>  <b_rotR>
0.1

>  <b_single>
52

>  <b_triple>
0

>  <chi0>
20.689871

>  <chi0v>
17.511553

>  <chi0v_C>
15.869879

>  <chi0_C>
16.982763

>  <chi1>
12.965964

>  <chi1v>
10.02702

>  <chi1v_C>
8.9358873

>  <chi1_C>
10.417417

>  <chiral>
2

>  <chiral_u>
0

>  <density>
0.6995548

>  <diameter>
12

>  <FCharge>
0

>  <GCUT_PEOE_0>
-0.79731762

>  <GCUT_PEOE_1>
-0.33284307

>  <GCUT_PEOE_2>
-0.013552603

>  <GCUT_PEOE_3>
3.0175865

>  <GCUT_SLOGP_0>
-0.87566638

>  <GCUT_SLOGP_1>
-0.23354368

>  <GCUT_SLOGP_2>
-0.015327936

>  <GCUT_SLOGP_3>
3.1383464

>  <GCUT_SMR_0>
-0.53170794

>  <GCUT_SMR_1>
-0.16658643

>  <GCUT_SMR_2>
0.11618628

>  <GCUT_SMR_3>
3.2741463

>  <Kier1>
22.68

>  <Kier2>
8.6257086

>  <Kier3>
5.5867767

>  <KierA1>
18.795168

>  <KierA2>
7.0956836

>  <KierA3>
4.5717292

>  <KierFlex>
4.76302

>  <lip_acc>
3

>  <lip_don>
1

>  <lip_druglike>
1

>  <lip_violation>
1

>  <logP(o/w)>
5.5040002

>  <logS>
-6.9137702

>  <mr>
10.938977

>  <mutagenic>
0

>  <nmol>
1

>  <opr_brigid>
19

>  <opr_leadlike>
1

>  <opr_nring>
3

>  <opr_nrot>
5

>  <opr_violation>
1

>  <PC+>
0

>  <PC->
0

>  <PEOE_PC+>
1.885447

>  <PEOE_PC->
-1.885447

>  <PEOE_RPC+>
0.14064604

>  <PEOE_RPC->
0.20747854

>  <PEOE_VSA+0>
106.80519

>  <PEOE_VSA+1>
48.368874

>  <PEOE_VSA+2>
9.0208454

>  <PEOE_VSA+3>
0

>  <PEOE_VSA+4>
10.324173

>  <PEOE_VSA+5>
14.708499

>  <PEOE_VSA+6>
0

>  <PEOE_VSA-0>
69.49427

>  <PEOE_VSA-1>
111.75542

>  <PEOE_VSA-2>
0

>  <PEOE_VSA-3>
0

>  <PEOE_VSA-4>
11.908636

>  <PEOE_VSA-5>
13.566921

>  <PEOE_VSA-6>
10.271297

>  <PEOE_VSA_FHYD>
0.85037935

>  <PEOE_VSA_FNEG>
0.53417939

>  <PEOE_VSA_FPNEG>
0.087997861

>  <PEOE_VSA_FPOL>
0.14962067

>  <PEOE_VSA_FPOS>
0.46582064

>  <PEOE_VSA_FPPOS>
0.06162281

>  <PEOE_VSA_HYD>
345.44461

>  <PEOE_VSA_NEG>
216.99655

>  <PEOE_VSA_PNEG>
35.746853

>  <PEOE_VSA_POL>
60.779526

>  <PEOE_VSA_POS>
189.22758

>  <PEOE_VSA_PPOS>
25.032671

>  <petitjean>
0.5

>  <petitjeanSC>
1

>  <Q_PC+>
0

>  <Q_PC->
0

>  <Q_RPC+>
0

>  <Q_RPC->
0

>  <Q_VSA_FHYD>
1

>  <Q_VSA_FNEG>
0

>  <Q_VSA_FPNEG>
0

>  <Q_VSA_FPOL>
0

>  <Q_VSA_FPOS>
1

>  <Q_VSA_FPPOS>
0

>  <Q_VSA_HYD>
406.22412

>  <Q_VSA_NEG>
0

>  <Q_VSA_PNEG>
0

>  <Q_VSA_POL>
0

>  <Q_VSA_POS>
406.22412

>  <Q_VSA_PPOS>
0

>  <radius>
6

>  <reactive>
1

>  <rings>
3

>  <RPC+>
0

>  <RPC->
0

>  <rsynth>
0.10714286

>  <SlogP>
5.3566198

>  <SlogP_VSA0>
25.385227

>  <SlogP_VSA1>
7.7454643

>  <SlogP_VSA2>
56.920422

>  <SlogP_VSA3>
0

>  <SlogP_VSA4>
6.37115

>  <SlogP_VSA5>
3.185575

>  <SlogP_VSA6>
0

>  <SlogP_VSA7>
91.401497

>  <SlogP_VSA8>
75.473625

>  <SlogP_VSA9>
181.59019

>  <SMR>
10.91138

>  <SMR_VSA0>
34.862103

>  <SMR_VSA1>
40.345341

>  <SMR_VSA2>
9.1210184

>  <SMR_VSA3>
22.494022

>  <SMR_VSA4>
3.185575

>  <SMR_VSA5>
163.68954

>  <SMR_VSA6>
7.7454643

>  <SMR_VSA7>
166.63008

>  <TPSA>
46.529999

>  <VAdjEq>
0.38983503

>  <VAdjMa>
5.9068904

>  <VDistEq>
3.3871295

>  <VDistMa>
9.3495464

>  <vdw_area>
406.22412

>  <vdw_vol>
552.50427

>  <vsa_acc>
13.566921

>  <vsa_acid>
0

>  <vsa_base>
0

>  <vsa_don>
0

>  <vsa_hyd>
335.99939

>  <vsa_other>
17.212255

>  <vsa_pol>
27.133842

>  <Weight>
386.50699

>  <weinerPath>
1977

>  <weinerPol>
46

>  <zagreb>
152

$$$$