O[C@H]1C[C@H]2[C@H]([C@@H]3CC[C@H]([C@@H](CCC(O)=O)C)[C@]13C)CC[C@@H]1C[C@H](O)CC[C@]12C
  MOE2013           2D

 28 31  0  0  1  0  0  0  0  0999 V2000
    0.0000    0.0000    0.0000 O   0  0  0  0  0  0  0  0  0  0  0  0
   -1.2950    0.7570    0.0000 C   0  0  1  0  0  0  0  0  0  0  0  0
   -2.5980    0.0140    0.0000 C   0  0  0  0  0  0  0  0  0  0  0  0
   -3.8930    0.7710    0.0000 C   0  0  1  0  0  0  0  0  0  0  0  0
   -3.8850    2.2710    0.0000 C   0  0  2  0  0  0  0  0  0  0  0  0
   -2.5820    3.0140    0.0000 C   0  0  2  0  0  0  0  0  0  0  0  0
   -2.2620    4.4800    0.0000 C   0  0  0  0  0  0  0  0  0  0  0  0
   -0.7690    4.6280    0.0000 C   0  0  0  0  0  0  0  0  0  0  0  0
   -0.1670    3.2550    0.0000 C   0  0  2  0  0  0  0  0  0  0  0  0
    1.2990    2.9350    0.0000 C   0  0  1  0  0  0  0  0  0  0  0  0
    2.3090    4.0440    0.0000 C   0  0  0  0  0  0  0  0  0  0  0  0
    3.7740    3.7240    0.0000 C   0  0  0  0  0  0  0  0  0  0  0  0
    4.7840    4.8330    0.0000 C   0  0  0  0  0  0  0  0  0  0  0  0
    6.2490    4.5140    0.0000 O   0  0  0  0  0  0  0  0  0  0  0  0
    4.3280    6.2630    0.0000 O   0  0  0  0  0  0  0  0  0  0  0  0
    1.7550    1.5060    0.0000 C   0  0  0  0  0  0  0  0  0  0  0  0
   -1.2870    2.2570    0.0000 C   0  0  2  0  0  0  0  0  0  0  0  0
    0.0690    1.6160    0.0000 C   0  0  0  0  0  0  0  0  0  0  0  0
   -5.1800    3.0280    0.0000 C   0  0  0  0  0  0  0  0  0  0  0  0
   -6.4830    2.2850    0.0000 C   0  0  0  0  0  0  0  0  0  0  0  0
   -6.4910    0.7850    0.0000 C   0  0  2  0  0  0  0  0  0  0  0  0
   -7.7940    0.0420    0.0000 C   0  0  0  0  0  0  0  0  0  0  0  0
   -7.8020   -1.4580    0.0000 C   0  0  2  0  0  0  0  0  0  0  0  0
   -9.1050   -2.2010    0.0000 O   0  0  0  0  0  0  0  0  0  0  0  0
   -6.5070   -2.2150    0.0000 C   0  0  0  0  0  0  0  0  0  0  0  0
   -5.2040   -1.4720    0.0000 C   0  0  0  0  0  0  0  0  0  0  0  0
   -5.1960    0.0280    0.0000 C   0  0  1  0  0  0  0  0  0  0  0  0
   -3.9010   -0.7290    0.0000 C   0  0  0  0  0  0  0  0  0  0  0  0
  2  1  1  1  0  0  0
  2  3  1  0  0  0  0
  2 17  1  0  0  0  0
  4  3  1  6  0  0  0
  4  5  1  0  0  0  0
  4 27  1  0  0  0  0
  5  6  1  0  0  0  0
  5 19  1  1  0  0  0
  6  7  1  6  0  0  0
  6 17  1  0  0  0  0
  7  8  1  0  0  0  0
  9  8  1  6  0  0  0
  9 10  1  0  0  0  0
  9 17  1  0  0  0  0
 10 11  1  0  0  0  0
 10 16  1  1  0  0  0
 11 12  1  0  0  0  0
 12 13  1  0  0  0  0
 13 14  1  0  0  0  0
 13 15  2  0  0  0  0
 17 18  1  1  0  0  0
 19 20  1  0  0  0  0
 21 20  1  1  0  0  0
 21 22  1  0  0  0  0
 21 27  1  0  0  0  0
 22 23  1  0  0  0  0
 23 24  1  1  0  0  0
 23 25  1  0  0  0  0
 25 26  1  0  0  0  0
 26 27  1  0  0  0  0
 27 28  1  1  0  0  0
M  END
>  <Index>
300

>  <ID>
HT0618

>  <class>
0

>  <apol>
72.11972

>  <ast_fraglike>
0

>  <ast_fraglike_ext>
0

>  <ast_violation>
4

>  <ast_violation_ext>
5

>  <a_acc>
4

>  <a_acid>
0

>  <a_aro>
0

>  <a_base>
0

>  <a_count>
68

>  <a_don>
4

>  <a_donacc>
8

>  <a_heavy>
28

>  <a_hyd>
23

>  <a_IC>
83.03125

>  <a_ICM>
1.2210478

>  <a_nB>
0

>  <a_nBr>
0

>  <a_nC>
24

>  <a_nCl>
0

>  <a_nF>
0

>  <a_nH>
40

>  <a_nI>
0

>  <a_nN>
0

>  <a_nO>
4

>  <a_nP>
0

>  <a_nS>
0

>  <balabanJ>
1.5551083

>  <BCUT_PEOE_0>
-2.9973342

>  <BCUT_PEOE_1>
-0.49949157

>  <BCUT_PEOE_2>
0.55192327

>  <BCUT_PEOE_3>
2.9944761

>  <BCUT_SLOGP_0>
-2.9384074

>  <BCUT_SLOGP_1>
-0.47708839

>  <BCUT_SLOGP_2>
0.5014528

>  <BCUT_SLOGP_3>
3.0628996

>  <BCUT_SMR_0>
-2.7459052

>  <BCUT_SMR_1>
-0.38288137

>  <BCUT_SMR_2>
0.64589208

>  <BCUT_SMR_3>
3.2461512

>  <bpol>
44.686279

>  <b_1rotN>
4

>  <b_1rotR>
0.12903225

>  <b_ar>
0

>  <b_count>
71

>  <b_double>
1

>  <b_heavy>
31

>  <b_max1len>
5

>  <b_rotN>
4

>  <b_rotR>
0.12903225

>  <b_single>
70

>  <b_triple>
0

>  <chi0>
20.26722

>  <chi0v>
17.939758

>  <chi0v_C>
16.189871

>  <chi0_C>
16.26722

>  <chi1>
13.174412

>  <chi1v>
11.754444

>  <chi1v_C>
10.810316

>  <chi1_C>
10.86501

>  <chiral>
10

>  <chiral_u>
0

>  <density>
0.68710047

>  <diameter>
14

>  <FCharge>
0

>  <GCUT_PEOE_0>
-0.80610013

>  <GCUT_PEOE_1>
-0.36201191

>  <GCUT_PEOE_2>
0.060956135

>  <GCUT_PEOE_3>
3.5027621

>  <GCUT_SLOGP_0>
-0.88304067

>  <GCUT_SLOGP_1>
-0.31165949

>  <GCUT_SLOGP_2>
0.022923088

>  <GCUT_SLOGP_3>
3.577944

>  <GCUT_SMR_0>
-0.54293078

>  <GCUT_SMR_1>
-0.22166662

>  <GCUT_SMR_2>
0.14723991

>  <GCUT_SMR_3>
3.719681

>  <Kier1>
21.240376

>  <Kier2>
7.6018324

>  <Kier3>
3.3525095

>  <KierA1>
20.548443

>  <KierA2>
7.3448911

>  <KierA3>
3.2362831

>  <KierFlex>
5.3902168

>  <lip_acc>
4

>  <lip_don>
3

>  <lip_druglike>
1

>  <lip_violation>
0

>  <logP(o/w)>
4.914

>  <logS>
-5.63695

>  <mr>
10.930642

>  <mutagenic>
0

>  <nmol>
1

>  <opr_brigid>
20

>  <opr_leadlike>
1

>  <opr_nring>
4

>  <opr_nrot>
4

>  <opr_violation>
0

>  <PC+>
0

>  <PC->
0

>  <PEOE_PC+>
2.1361823

>  <PEOE_PC->
-2.1361823

>  <PEOE_RPC+>
0.1215236

>  <PEOE_RPC->
0.18340038

>  <PEOE_VSA+0>
157.98982

>  <PEOE_VSA+1>
18.34063

>  <PEOE_VSA+2>
0

>  <PEOE_VSA+3>
0

>  <PEOE_VSA+4>
30.972517

>  <PEOE_VSA+5>
14.708499

>  <PEOE_VSA+6>
0

>  <PEOE_VSA-0>
78.311821

>  <PEOE_VSA-1>
56.243034

>  <PEOE_VSA-2>
0

>  <PEOE_VSA-3>
0

>  <PEOE_VSA-4>
0

>  <PEOE_VSA-5>
13.566921

>  <PEOE_VSA-6>
23.30262

>  <PEOE_VSA_FHYD>
0.79018039

>  <PEOE_VSA_FNEG>
0.43571115

>  <PEOE_VSA_FPNEG>
0.093711697

>  <PEOE_VSA_FPOL>
0.20981961

>  <PEOE_VSA_FPOS>
0.56428885

>  <PEOE_VSA_FPPOS>
0.11610791

>  <PEOE_VSA_HYD>
310.88531

>  <PEOE_VSA_NEG>
171.42439

>  <PEOE_VSA_PNEG>
36.869541

>  <PEOE_VSA_POL>
82.55056

>  <PEOE_VSA_POS>
222.01147

>  <PEOE_VSA_PPOS>
45.681019

>  <petitjean>
0.5

>  <petitjeanSC>
1

>  <Q_PC+>
0

>  <Q_PC->
0

>  <Q_RPC+>
0

>  <Q_RPC->
0

>  <Q_VSA_FHYD>
1

>  <Q_VSA_FNEG>
0

>  <Q_VSA_FPNEG>
0

>  <Q_VSA_FPOL>
0

>  <Q_VSA_FPOS>
1

>  <Q_VSA_FPPOS>
0

>  <Q_VSA_HYD>
393.43585

>  <Q_VSA_NEG>
0

>  <Q_VSA_PNEG>
0

>  <Q_VSA_POL>
0

>  <Q_VSA_POS>
393.43585

>  <Q_VSA_PPOS>
0

>  <radius>
7

>  <reactive>
0

>  <rings>
4

>  <RPC+>
0

>  <RPC->
0

>  <rsynth>
0

>  <SlogP>
4.4779

>  <SlogP_VSA0>
50.770454

>  <SlogP_VSA1>
7.7454643

>  <SlogP_VSA2>
36.799515

>  <SlogP_VSA3>
25.385227

>  <SlogP_VSA4>
26.464777

>  <SlogP_VSA5>
0

>  <SlogP_VSA6>
0

>  <SlogP_VSA7>
0

>  <SlogP_VSA8>
188.68405

>  <SlogP_VSA9>
99.978043

>  <SMR>
10.86474

>  <SMR_VSA0>
23.862217

>  <SMR_VSA1>
50.770454

>  <SMR_VSA2>
51.850002

>  <SMR_VSA3>
12.937299

>  <SMR_VSA4>
0

>  <SMR_VSA5>
188.68405

>  <SMR_VSA6>
7.7454643

>  <SMR_VSA7>
99.978043

>  <TPSA>
77.760002

>  <VAdjEq>
0.39893496

>  <VAdjMa>
5.9541965

>  <VDistEq>
3.4271033

>  <VDistMa>
9.3224316

>  <vdw_area>
393.43585

>  <vdw_vol>
571.35748

>  <vsa_acc>
0

>  <vsa_acid>
0

>  <vsa_base>
0

>  <vsa_don>
0

>  <vsa_hyd>
276.47858

>  <vsa_other>
14.708499

>  <vsa_pol>
54.267685

>  <Weight>
392.57999

>  <weinerPath>
1901

>  <weinerPol>
57

>  <zagreb>
160

$$$$