O=C1N[C@@H](CC1)C(O[C@H]1CC(C[C@H](C1)C)(C)C)=O
  MOE2013           2D

 18 19  0  0  1  0  0  0  0  0999 V2000
    0.0000    0.0000    0.0000 O   0  0  0  0  0  0  0  0  0  0  0  0
   -1.4120   -0.5050    0.0000 C   0  0  0  0  0  0  0  0  0  0  0  0
   -2.6510    0.3410    0.0000 N   0  0  0  0  0  0  0  0  0  0  0  0
   -3.8380   -0.5760    0.0000 C   0  0  1  0  0  0  0  0  0  0  0  0
   -3.3340   -1.9880    0.0000 C   0  0  0  0  0  0  0  0  0  0  0  0
   -1.8340   -1.9440    0.0000 C   0  0  0  0  0  0  0  0  0  0  0  0
   -5.2780   -0.1540    0.0000 C   0  0  0  0  0  0  0  0  0  0  0  0
   -6.3630   -1.1900    0.0000 O   0  0  0  0  0  0  0  0  0  0  0  0
   -7.8020   -0.7680    0.0000 C   0  0  1  0  0  0  0  0  0  0  0  0
   -8.8870   -1.8040    0.0000 C   0  0  0  0  0  0  0  0  0  0  0  0
  -10.3270   -1.3820    0.0000 C   0  0  0  0  0  0  0  0  0  0  0  0
  -10.6810    0.0750    0.0000 C   0  0  0  0  0  0  0  0  0  0  0  0
   -9.5960    1.1110    0.0000 C   0  0  2  0  0  0  0  0  0  0  0  0
   -8.1570    0.6890    0.0000 C   0  0  0  0  0  0  0  0  0  0  0  0
   -9.9510    2.5690    0.0000 C   0  0  0  0  0  0  0  0  0  0  0  0
  -10.7490   -2.8220    0.0000 C   0  0  0  0  0  0  0  0  0  0  0  0
  -11.7840   -1.7370    0.0000 C   0  0  0  0  0  0  0  0  0  0  0  0
   -5.6330    1.3030    0.0000 O   0  0  0  0  0  0  0  0  0  0  0  0
  1  2  2  0  0  0  0
  2  3  1  0  0  0  0
  2  6  1  0  0  0  0
  3  4  1  0  0  0  0
  4  5  1  0  0  0  0
  4  7  1  1  0  0  0
  5  6  1  0  0  0  0
  7  8  1  0  0  0  0
  7 18  2  0  0  0  0
  9  8  1  1  0  0  0
  9 10  1  0  0  0  0
  9 14  1  0  0  0  0
 10 11  1  0  0  0  0
 11 12  1  0  0  0  0
 11 16  1  0  0  0  0
 11 17  1  0  0  0  0
 12 13  1  0  0  0  0
 13 14  1  0  0  0  0
 13 15  1  1  0  0  0
M  END
>  <Index>
262

>  <ID>
HT0555

>  <class>
0

>  <apol>
43.482239

>  <ast_fraglike>
1

>  <ast_fraglike_ext>
0

>  <ast_violation>
0

>  <ast_violation_ext>
1

>  <a_acc>
2

>  <a_acid>
0

>  <a_aro>
0

>  <a_base>
0

>  <a_count>
41

>  <a_don>
1

>  <a_donacc>
3

>  <a_heavy>
18

>  <a_hyd>
12

>  <a_IC>
57.559853

>  <a_ICM>
1.4038988

>  <a_nB>
0

>  <a_nBr>
0

>  <a_nC>
14

>  <a_nCl>
0

>  <a_nF>
0

>  <a_nH>
23

>  <a_nI>
0

>  <a_nN>
1

>  <a_nO>
3

>  <a_nP>
0

>  <a_nS>
0

>  <balabanJ>
1.8494633

>  <BCUT_PEOE_0>
-2.8563507

>  <BCUT_PEOE_1>
-0.34648234

>  <BCUT_PEOE_2>
0.28299284

>  <BCUT_PEOE_3>
2.8169124

>  <BCUT_SLOGP_0>
-2.7847223

>  <BCUT_SLOGP_1>
-0.29341549

>  <BCUT_SLOGP_2>
0.28515312

>  <BCUT_SLOGP_3>
2.9031527

>  <BCUT_SMR_0>
-2.6090701

>  <BCUT_SMR_1>
-0.16867523

>  <BCUT_SMR_2>
0.4009549

>  <BCUT_SMR_3>
3.063668

>  <bpol>
29.635761

>  <b_1rotN>
2

>  <b_1rotR>
0.10526316

>  <b_ar>
0

>  <b_count>
42

>  <b_double>
2

>  <b_heavy>
19

>  <b_max1len>
4

>  <b_rotN>
3

>  <b_rotR>
0.15789473

>  <b_single>
40

>  <b_triple>
0

>  <chi0>
13.336499

>  <chi0v>
11.49233

>  <chi0v_C>
9.7675848

>  <chi0_C>
9.9222851

>  <chi1>
8.3549738

>  <chi1v>
6.8546767

>  <chi1v_C>
5.467927

>  <chi1_C>
5.5672803

>  <chiral>
3

>  <chiral_u>
0

>  <density>
0.70881039

>  <diameter>
9

>  <FCharge>
0

>  <GCUT_PEOE_0>
-0.82030874

>  <GCUT_PEOE_1>
-0.33557689

>  <GCUT_PEOE_2>
-0.0061444263

>  <GCUT_PEOE_3>
2.8164721

>  <GCUT_SLOGP_0>
-1.1665996

>  <GCUT_SLOGP_1>
-0.28967381

>  <GCUT_SLOGP_2>
-0.0015888333

>  <GCUT_SLOGP_3>
2.8725567

>  <GCUT_SMR_0>
-0.53214872

>  <GCUT_SMR_1>
-0.17270628

>  <GCUT_SMR_2>
0.057861488

>  <GCUT_SMR_3>
3.0325439

>  <Kier1>
14.409972

>  <Kier2>
5.5510206

>  <Kier3>
3.9958377

>  <KierA1>
12.572311

>  <KierA2>
4.8017802

>  <KierA3>
3.4346406

>  <KierFlex>
3.3538597

>  <lip_acc>
4

>  <lip_don>
1

>  <lip_druglike>
1

>  <lip_violation>
0

>  <logP(o/w)>
2.579

>  <logS>
-3.42061

>  <mr>
6.946485

>  <mutagenic>
0

>  <nmol>
1

>  <opr_brigid>
11

>  <opr_leadlike>
1

>  <opr_nring>
2

>  <opr_nrot>
4

>  <opr_violation>
0

>  <PC+>
0

>  <PC->
0

>  <PEOE_PC+>
1.5494633

>  <PEOE_PC->
-1.5494633

>  <PEOE_RPC+>
0.18394275

>  <PEOE_RPC->
0.22203127

>  <PEOE_VSA+0>
94.009033

>  <PEOE_VSA+1>
13.4357

>  <PEOE_VSA+2>
3.1459606

>  <PEOE_VSA+3>
8.6190128

>  <PEOE_VSA+4>
12.949531

>  <PEOE_VSA+5>
14.708499

>  <PEOE_VSA+6>
0

>  <PEOE_VSA-0>
34.805252

>  <PEOE_VSA-1>
56.243034

>  <PEOE_VSA-2>
0

>  <PEOE_VSA-3>
0

>  <PEOE_VSA-4>
0

>  <PEOE_VSA-5>
27.133842

>  <PEOE_VSA-6>
2.6406472

>  <PEOE_VSA_FHYD>
0.78545177

>  <PEOE_VSA_FNEG>
0.45135248

>  <PEOE_VSA_FPNEG>
0.11122728

>  <PEOE_VSA_FPOL>
0.2145482

>  <PEOE_VSA_FPOS>
0.54864752

>  <PEOE_VSA_FPPOS>
0.10332092

>  <PEOE_VSA_HYD>
210.258

>  <PEOE_VSA_NEG>
120.82278

>  <PEOE_VSA_PNEG>
29.774488

>  <PEOE_VSA_POL>
57.432518

>  <PEOE_VSA_POS>
146.86774

>  <PEOE_VSA_PPOS>
27.65803

>  <petitjean>
0.44444445

>  <petitjeanSC>
0.80000001

>  <Q_PC+>
0

>  <Q_PC->
0

>  <Q_RPC+>
0

>  <Q_RPC->
0

>  <Q_VSA_FHYD>
1

>  <Q_VSA_FNEG>
0

>  <Q_VSA_FPNEG>
0

>  <Q_VSA_FPOL>
0

>  <Q_VSA_FPOS>
1

>  <Q_VSA_FPPOS>
0

>  <Q_VSA_HYD>
267.69052

>  <Q_VSA_NEG>
0

>  <Q_VSA_PNEG>
0

>  <Q_VSA_POL>
0

>  <Q_VSA_POS>
267.69052

>  <Q_VSA_PPOS>
0

>  <radius>
5

>  <reactive>
0

>  <rings>
2

>  <RPC+>
0

>  <RPC->
0

>  <rsynth>
0.44444445

>  <SlogP>
2.023

>  <SlogP_VSA0>
18.01075

>  <SlogP_VSA1>
13.004248

>  <SlogP_VSA2>
69.174942

>  <SlogP_VSA3>
0

>  <SlogP_VSA4>
4.4107962

>  <SlogP_VSA5>
0

>  <SlogP_VSA6>
0

>  <SlogP_VSA7>
0

>  <SlogP_VSA8>
94.342026

>  <SlogP_VSA9>
99.978043

>  <SMR>
6.78407

>  <SMR_VSA0>
58.724319

>  <SMR_VSA1>
0

>  <SMR_VSA2>
22.421547

>  <SMR_VSA3>
10.450618

>  <SMR_VSA4>
0

>  <SMR_VSA5>
94.342026

>  <SMR_VSA6>
13.004248

>  <SMR_VSA7>
99.978043

>  <TPSA>
55.400002

>  <VAdjEq>
0.52150291

>  <VAdjMa>
5.2479277

>  <VDistEq>
3.0385964

>  <VDistMa>
8.0334406

>  <vdw_area>
267.69052

>  <vdw_vol>
357.41855

>  <vsa_acc>
27.133842

>  <vsa_acid>
0

>  <vsa_base>
0

>  <vsa_don>
5.6825762

>  <vsa_hyd>
184.63443

>  <vsa_other>
30.161787

>  <vsa_pol>
32.816418

>  <Weight>
253.342

>  <weinerPath>
628

>  <weinerPol>
23

>  <zagreb>
94

$$$$