O1[C@H](CO)[C@@H](O)C[C@@H]1N1C=NC(=NC1=O)N
  MOE2013           2D

 16 17  0  0  1  0  0  0  0  0999 V2000
    0.0000    0.0000    0.0000 O   0  0  0  0  0  0  0  0  0  0  0  0
   -1.4380   -0.4260    0.0000 C   0  0  2  0  0  0  0  0  0  0  0  0
   -2.6280    0.4880    0.0000 C   0  0  0  0  0  0  0  0  0  0  0  0
   -2.4320    1.9750    0.0000 O   0  0  0  0  0  0  0  0  0  0  0  0
   -1.4780   -1.9250    0.0000 C   0  0  1  0  0  0  0  0  0  0  0  0
   -2.7150   -2.7740    0.0000 O   0  0  0  0  0  0  0  0  0  0  0  0
   -0.0640   -2.4260    0.0000 C   0  0  0  0  0  0  0  0  0  0  0  0
    0.8490   -1.2360    0.0000 C   0  0  2  0  0  0  0  0  0  0  0  0
    2.3490   -1.2760    0.0000 N   0  0  0  0  0  0  0  0  0  0  0  0
    3.1330    0.0020    0.0000 C   0  0  0  0  0  0  0  0  0  0  0  0
    4.6320   -0.0370    0.0000 N   0  0  0  0  0  0  0  0  0  0  0  0
    5.3480   -1.3560    0.0000 C   0  0  0  0  0  0  0  0  0  0  0  0
    4.5630   -2.6340    0.0000 N   0  0  0  0  0  0  0  0  0  0  0  0
    3.0640   -2.5950    0.0000 C   0  0  0  0  0  0  0  0  0  0  0  0
    2.2800   -3.8730    0.0000 O   0  0  0  0  0  0  0  0  0  0  0  0
    6.8470   -1.3950    0.0000 N   0  0  0  0  0  0  0  0  0  0  0  0
  1  2  1  0  0  0  0
  1  8  1  0  0  0  0
  2  3  1  1  0  0  0
  2  5  1  0  0  0  0
  3  4  1  0  0  0  0
  5  6  1  6  0  0  0
  5  7  1  0  0  0  0
  7  8  1  0  0  0  0
  8  9  1  1  0  0  0
  9 10  1  0  0  0  0
  9 14  1  0  0  0  0
 10 11  2  0  0  0  0
 11 12  1  0  0  0  0
 12 13  2  0  0  0  0
 12 16  1  0  0  0  0
 13 14  1  0  0  0  0
 14 15  2  0  0  0  0
M  END
>  <Index>
288

>  <ID>
HT0598

>  <class>
0

>  <apol>
29.689516

>  <ast_fraglike>
0

>  <ast_fraglike_ext>
0

>  <ast_violation>
1

>  <ast_violation_ext>
2

>  <a_acc>
6

>  <a_acid>
0

>  <a_aro>
0

>  <a_base>
0

>  <a_count>
28

>  <a_don>
3

>  <a_donacc>
9

>  <a_heavy>
16

>  <a_hyd>
4

>  <a_IC>
51.586388

>  <a_ICM>
1.842371

>  <a_nB>
0

>  <a_nBr>
0

>  <a_nC>
8

>  <a_nCl>
0

>  <a_nF>
0

>  <a_nH>
12

>  <a_nI>
0

>  <a_nN>
4

>  <a_nO>
4

>  <a_nP>
0

>  <a_nS>
0

>  <balabanJ>
1.9390887

>  <BCUT_PEOE_0>
-2.5141184

>  <BCUT_PEOE_1>
-0.64163119

>  <BCUT_PEOE_2>
0.77054083

>  <BCUT_PEOE_3>
2.7546141

>  <BCUT_SLOGP_0>
-2.6659803

>  <BCUT_SLOGP_1>
-0.70861828

>  <BCUT_SLOGP_2>
0.58031982

>  <BCUT_SLOGP_3>
2.6357286

>  <BCUT_SMR_0>
-2.3137138

>  <BCUT_SMR_1>
-0.4828586

>  <BCUT_SMR_2>
0.85910398

>  <BCUT_SMR_3>
2.961282

>  <bpol>
19.952484

>  <b_1rotN>
2

>  <b_1rotR>
0.11764706

>  <b_ar>
0

>  <b_count>
29

>  <b_double>
3

>  <b_heavy>
17

>  <b_max1len>
4

>  <b_rotN>
2

>  <b_rotR>
0.11764706

>  <b_single>
26

>  <b_triple>
0

>  <chi0>
11.706742

>  <chi0v>
8.3535299

>  <chi0v_C>
4.7236147

>  <chi0_C>
5.0080719

>  <chi1>
7.6133924

>  <chi1v>
4.7657323

>  <chi1v_C>
1.5580782

>  <chi1_C>
1.5580782

>  <chiral>
3

>  <chiral_u>
0

>  <density>
0.87135535

>  <diameter>
9

>  <FCharge>
0

>  <GCUT_PEOE_0>
-0.82152557

>  <GCUT_PEOE_1>
-0.43681189

>  <GCUT_PEOE_2>
0.16819723

>  <GCUT_PEOE_3>
2.4773188

>  <GCUT_SLOGP_0>
-1.3703874

>  <GCUT_SLOGP_1>
-0.48924801

>  <GCUT_SLOGP_2>
0.054200001

>  <GCUT_SLOGP_3>
2.3823564

>  <GCUT_SMR_0>
-0.52682251

>  <GCUT_SMR_1>
-0.21912231

>  <GCUT_SMR_2>
0.24972466

>  <GCUT_SMR_3>
2.6972954

>  <Kier1>
12.456747

>  <Kier2>
5.1041665

>  <Kier3>
2.6514049

>  <KierA1>
9.6699753

>  <KierA2>
3.8895316

>  <KierA3>
1.9924401

>  <KierFlex>
2.3507297

>  <lip_acc>
8

>  <lip_don>
4

>  <lip_druglike>
1

>  <lip_violation>
0

>  <logP(o/w)>
-1.239

>  <logS>
-0.63846999

>  <mr>
5.1696649

>  <mutagenic>
0

>  <nmol>
1

>  <opr_brigid>
11

>  <opr_leadlike>
1

>  <opr_nring>
2

>  <opr_nrot>
3

>  <opr_violation>
0

>  <PC+>
0

>  <PC->
0

>  <PEOE_PC+>
2.3577437

>  <PEOE_PC->
-2.3577437

>  <PEOE_RPC+>
0.15040672

>  <PEOE_RPC->
0.16641659

>  <PEOE_VSA+0>
17.232086

>  <PEOE_VSA+1>
41.183151

>  <PEOE_VSA+2>
39.803181

>  <PEOE_VSA+3>
17.238026

>  <PEOE_VSA+4>
36.329918

>  <PEOE_VSA+5>
0

>  <PEOE_VSA+6>
17.440542

>  <PEOE_VSA-0>
0

>  <PEOE_VSA-1>
0

>  <PEOE_VSA-2>
0

>  <PEOE_VSA-3>
5.6825762

>  <PEOE_VSA-4>
19.249496

>  <PEOE_VSA-5>
0

>  <PEOE_VSA-6>
24.689957

>  <PEOE_VSA_FHYD>
0.55352801

>  <PEOE_VSA_FNEG>
0.22674102

>  <PEOE_VSA_FPNEG>
0.20077527

>  <PEOE_VSA_FPOL>
0.44647196

>  <PEOE_VSA_FPOS>
0.77325898

>  <PEOE_VSA_FPPOS>
0.24569671

>  <PEOE_VSA_HYD>
121.13902

>  <PEOE_VSA_NEG>
49.622028

>  <PEOE_VSA_PNEG>
43.939453

>  <PEOE_VSA_POL>
97.709915

>  <PEOE_VSA_POS>
169.22691

>  <PEOE_VSA_PPOS>
53.770462

>  <petitjean>
0.44444445

>  <petitjeanSC>
0.80000001

>  <Q_PC+>
0

>  <Q_PC->
0

>  <Q_RPC+>
0

>  <Q_RPC->
0

>  <Q_VSA_FHYD>
1

>  <Q_VSA_FNEG>
0

>  <Q_VSA_FPNEG>
0

>  <Q_VSA_FPOL>
0

>  <Q_VSA_FPOS>
1

>  <Q_VSA_FPPOS>
0

>  <Q_VSA_HYD>
218.84894

>  <Q_VSA_NEG>
0

>  <Q_VSA_PNEG>
0

>  <Q_VSA_POL>
0

>  <Q_VSA_POS>
218.84894

>  <Q_VSA_PPOS>
0

>  <radius>
5

>  <reactive>
0

>  <rings>
2

>  <RPC+>
0

>  <RPC->
0

>  <rsynth>
1

>  <SlogP>
-1.7668

>  <SlogP_VSA0>
83.667641

>  <SlogP_VSA1>
9.853363

>  <SlogP_VSA2>
46.762539

>  <SlogP_VSA3>
20.926258

>  <SlogP_VSA4>
0

>  <SlogP_VSA5>
33.57106

>  <SlogP_VSA6>
0

>  <SlogP_VSA7>
0

>  <SlogP_VSA8>
18.868406

>  <SlogP_VSA9>
23.862217

>  <SMR>
5.3720002

>  <SMR_VSA0>
34.862103

>  <SMR_VSA1>
87.465828

>  <SMR_VSA2>
0

>  <SMR_VSA3>
18.977119

>  <SMR_VSA4>
32.897186

>  <SMR_VSA5>
18.868406

>  <SMR_VSA6>
27.655308

>  <SMR_VSA7>
16.78553

>  <TPSA>
120.74

>  <VAdjEq>
0.56510133

>  <VAdjMa>
5.0874629

>  <VDistEq>
2.8651621

>  <VDistMa>
7.6967945

>  <vdw_area>
218.84894

>  <vdw_vol>
261.90002

>  <vsa_acc>
27.435829

>  <vsa_acid>
0

>  <vsa_base>
0

>  <vsa_don>
17.742489

>  <vsa_hyd>
54.784008

>  <vsa_other>
70.862167

>  <vsa_pol>
72.312157

>  <Weight>
228.20799

>  <weinerPath>
434

>  <weinerPol>
23

>  <zagreb>
82

$$$$