Oc1c2c(ccc1)C(=O)c1c(C2=O)c(O)ccc1
  MOE2013           2D

 18 20  0  0  0  0  0  0  0  0999 V2000
    0.0000    0.0000    0.0000 O   0  0  0  0  0  0  0  0  0  0  0  0
    0.0000    1.5000    0.0000 C   0  0  0  0  0  0  0  0  0  0  0  0
   -1.2990    2.2500    0.0000 C   0  0  0  0  0  0  0  0  0  0  0  0
   -1.2990    3.7500    0.0000 C   0  0  0  0  0  0  0  0  0  0  0  0
    0.0000    4.5000    0.0000 C   0  0  0  0  0  0  0  0  0  0  0  0
    1.2990    3.7500    0.0000 C   0  0  0  0  0  0  0  0  0  0  0  0
    1.2990    2.2500    0.0000 C   0  0  0  0  0  0  0  0  0  0  0  0
   -2.5980    4.5000    0.0000 C   0  0  0  0  0  0  0  0  0  0  0  0
   -2.5980    6.0000    0.0000 O   0  0  0  0  0  0  0  0  0  0  0  0
   -3.8970    3.7500    0.0000 C   0  0  0  0  0  0  0  0  0  0  0  0
   -3.8970    2.2500    0.0000 C   0  0  0  0  0  0  0  0  0  0  0  0
   -2.5980    1.5000    0.0000 C   0  0  0  0  0  0  0  0  0  0  0  0
   -2.5980    0.0000    0.0000 O   0  0  0  0  0  0  0  0  0  0  0  0
   -5.1960    1.5000    0.0000 C   0  0  0  0  0  0  0  0  0  0  0  0
   -5.1960    0.0000    0.0000 O   0  0  0  0  0  0  0  0  0  0  0  0
   -6.4950    2.2500    0.0000 C   0  0  0  0  0  0  0  0  0  0  0  0
   -6.4950    3.7500    0.0000 C   0  0  0  0  0  0  0  0  0  0  0  0
   -5.1960    4.5000    0.0000 C   0  0  0  0  0  0  0  0  0  0  0  0
  1  2  1  0  0  0  0
  2  3  1  0  0  0  0
  2  7  2  0  0  0  0
  3  4  2  0  0  0  0
  3 12  1  0  0  0  0
  4  5  1  0  0  0  0
  4  8  1  0  0  0  0
  5  6  2  0  0  0  0
  6  7  1  0  0  0  0
  8  9  2  0  0  0  0
  8 10  1  0  0  0  0
 10 11  1  0  0  0  0
 10 18  2  0  0  0  0
 11 12  1  0  0  0  0
 11 14  2  0  0  0  0
 12 13  2  0  0  0  0
 14 15  1  0  0  0  0
 14 16  1  0  0  0  0
 16 17  2  0  0  0  0
 17 18  1  0  0  0  0
M  END
>  <Index>
281

>  <ID>
HT0589

>  <class>
0

>  <apol>
33.182343

>  <ast_fraglike>
0

>  <ast_fraglike_ext>
0

>  <ast_violation>
1

>  <ast_violation_ext>
1

>  <a_acc>
4

>  <a_acid>
0

>  <a_aro>
12

>  <a_base>
0

>  <a_count>
26

>  <a_don>
2

>  <a_donacc>
6

>  <a_heavy>
18

>  <a_hyd>
12

>  <a_IC>
36.908463

>  <a_ICM>
1.4195563

>  <a_nB>
0

>  <a_nBr>
0

>  <a_nC>
14

>  <a_nCl>
0

>  <a_nF>
0

>  <a_nH>
8

>  <a_nI>
0

>  <a_nN>
0

>  <a_nO>
4

>  <a_nP>
0

>  <a_nS>
0

>  <balabanJ>
1.9132824

>  <BCUT_PEOE_0>
-2.2808683

>  <BCUT_PEOE_1>
-0.75509214

>  <BCUT_PEOE_2>
0.79074055

>  <BCUT_PEOE_3>
2.3707635

>  <BCUT_SLOGP_0>
-2.2582498

>  <BCUT_SLOGP_1>
-0.70105696

>  <BCUT_SLOGP_2>
0.76467788

>  <BCUT_SLOGP_3>
2.4357145

>  <BCUT_SMR_0>
-1.9693229

>  <BCUT_SMR_1>
-0.56182438

>  <BCUT_SMR_2>
0.95575994

>  <BCUT_SMR_3>
2.6800654

>  <bpol>
10.661656

>  <b_1rotN>
0

>  <b_1rotR>
0

>  <b_ar>
12

>  <b_count>
28

>  <b_double>
2

>  <b_heavy>
20

>  <b_max1len>
1

>  <b_rotN>
0

>  <b_rotR>
0

>  <b_single>
14

>  <b_triple>
0

>  <chi0>
12.861443

>  <chi0v>
9.175025

>  <chi0v_C>
7.4641018

>  <chi0_C>
8.8614426

>  <chi1>
8.6090612

>  <chi1v>
5.3434958

>  <chi1v_C>
4.4880338

>  <chi1_C>
6.2996597

>  <chiral>
0

>  <chiral_u>
0

>  <density>
0.80552453

>  <diameter>
7

>  <FCharge>
0

>  <GCUT_PEOE_0>
-0.76199675

>  <GCUT_PEOE_1>
-0.52225453

>  <GCUT_PEOE_2>
0.179243

>  <GCUT_PEOE_3>
2.4112585

>  <GCUT_SLOGP_0>
-0.78949797

>  <GCUT_SLOGP_1>
-0.35937369

>  <GCUT_SLOGP_2>
0.14693435

>  <GCUT_SLOGP_3>
2.5072336

>  <GCUT_SMR_0>
-0.4306784

>  <GCUT_SMR_1>
-0.25291565

>  <GCUT_SMR_2>
0.30024135

>  <GCUT_SMR_3>
2.7108772

>  <Kier1>
13.005

>  <Kier2>
4.8355556

>  <Kier3>
1.983471

>  <KierA1>
8.7209339

>  <KierA2>
3.1583741

>  <KierA3>
1.2703748

>  <KierFlex>
1.5302206

>  <lip_acc>
4

>  <lip_don>
2

>  <lip_druglike>
1

>  <lip_violation>
0

>  <logP(o/w)>
2.3440001

>  <logS>
-3.1610999

>  <mr>
6.3713055

>  <mutagenic>
0

>  <nmol>
1

>  <opr_brigid>
16

>  <opr_leadlike>
1

>  <opr_nring>
3

>  <opr_nrot>
0

>  <opr_violation>
0

>  <PC+>
0

>  <PC->
0

>  <PEOE_PC+>
1.5710199

>  <PEOE_PC->
-1.5710199

>  <PEOE_RPC+>
0.13834317

>  <PEOE_RPC->
0.22857916

>  <PEOE_VSA+0>
4.4170794

>  <PEOE_VSA+1>
46.926434

>  <PEOE_VSA+2>
0

>  <PEOE_VSA+3>
16.917038

>  <PEOE_VSA+4>
20.648346

>  <PEOE_VSA+5>
0

>  <PEOE_VSA+6>
0

>  <PEOE_VSA-0>
24.509808

>  <PEOE_VSA-1>
49.019615

>  <PEOE_VSA-2>
0

>  <PEOE_VSA-3>
0

>  <PEOE_VSA-4>
0

>  <PEOE_VSA-5>
27.133842

>  <PEOE_VSA-6>
15.535081

>  <PEOE_VSA_FHYD>
0.69129676

>  <PEOE_VSA_FNEG>
0.5665248

>  <PEOE_VSA_FPNEG>
0.20803225

>  <PEOE_VSA_FPOL>
0.30870321

>  <PEOE_VSA_FPOS>
0.43347517

>  <PEOE_VSA_FPPOS>
0.10067097

>  <PEOE_VSA_HYD>
141.78998

>  <PEOE_VSA_NEG>
116.19835

>  <PEOE_VSA_PNEG>
42.668922

>  <PEOE_VSA_POL>
63.317268

>  <PEOE_VSA_POS>
88.908897

>  <PEOE_VSA_PPOS>
20.648346

>  <petitjean>
0.42857143

>  <petitjeanSC>
0.75

>  <Q_PC+>
0

>  <Q_PC->
0

>  <Q_RPC+>
0

>  <Q_RPC->
0

>  <Q_VSA_FHYD>
1

>  <Q_VSA_FNEG>
0

>  <Q_VSA_FPNEG>
0

>  <Q_VSA_FPOL>
0

>  <Q_VSA_FPOS>
1

>  <Q_VSA_FPPOS>
0

>  <Q_VSA_HYD>
205.10724

>  <Q_VSA_NEG>
0

>  <Q_VSA_PNEG>
0

>  <Q_VSA_POL>
0

>  <Q_VSA_POS>
205.10724

>  <Q_VSA_PPOS>
0

>  <radius>
4

>  <reactive>
1

>  <rings>
3

>  <RPC+>
0

>  <RPC->
0

>  <rsynth>
1

>  <SlogP>
1.8732001

>  <SlogP_VSA0>
50.770454

>  <SlogP_VSA1>
11.375222

>  <SlogP_VSA2>
0

>  <SlogP_VSA3>
0

>  <SlogP_VSA4>
60.466732

>  <SlogP_VSA5>
0

>  <SlogP_VSA6>
0

>  <SlogP_VSA7>
105.85911

>  <SlogP_VSA8>
0

>  <SlogP_VSA9>
10.486856

>  <SMR>
6.3078599

>  <SMR_VSA0>
47.724434

>  <SMR_VSA1>
50.770454

>  <SMR_VSA2>
0

>  <SMR_VSA3>
23.229156

>  <SMR_VSA4>
0

>  <SMR_VSA5>
105.85911

>  <SMR_VSA6>
11.375222

>  <SMR_VSA7>
0

>  <TPSA>
74.599998

>  <VAdjEq>
0.53921634

>  <VAdjMa>
5.321928

>  <VDistEq>
2.6073055

>  <VDistMa>
8.0948496

>  <vdw_area>
205.10724

>  <vdw_vol>
298.20816

>  <vsa_acc>
27.133842

>  <vsa_acid>
0

>  <vsa_base>
0

>  <vsa_don>
0

>  <vsa_hyd>
120.60217

>  <vsa_other>
16.917038

>  <vsa_pol>
54.267685

>  <Weight>
240.21399

>  <weinerPath>
512

>  <weinerPol>
35

>  <zagreb>
100

$$$$