O1[C@H](CO)[C@@H](O)[C@H](O)[C@@H]1N1C=CC(=NC1=O)N
  MOE2013           2D

 17 18  0  0  1  0  0  0  0  0999 V2000
    0.0000    0.0000    0.0000 O   0  0  0  0  0  0  0  0  0  0  0  0
   -1.4360   -0.4340    0.0000 C   0  0  2  0  0  0  0  0  0  0  0  0
   -2.6310    0.4720    0.0000 C   0  0  0  0  0  0  0  0  0  0  0  0
   -2.4440    1.9600    0.0000 O   0  0  0  0  0  0  0  0  0  0  0  0
   -1.4670   -1.9340    0.0000 C   0  0  1  0  0  0  0  0  0  0  0  0
   -2.6980   -2.7900    0.0000 O   0  0  0  0  0  0  0  0  0  0  0  0
   -0.0500   -2.4270    0.0000 C   0  0  2  0  0  0  0  0  0  0  0  0
    0.3840   -3.8620    0.0000 O   0  0  0  0  0  0  0  0  0  0  0  0
    0.8570   -1.2310    0.0000 C   0  0  2  0  0  0  0  0  0  0  0  0
    2.3560   -1.2620    0.0000 N   0  0  0  0  0  0  0  0  0  0  0  0
    3.0800   -2.5760    0.0000 C   0  0  0  0  0  0  0  0  0  0  0  0
    4.5790   -2.6070    0.0000 C   0  0  0  0  0  0  0  0  0  0  0  0
    5.3560   -1.3240    0.0000 C   0  0  0  0  0  0  0  0  0  0  0  0
    4.6320   -0.0090    0.0000 N   0  0  0  0  0  0  0  0  0  0  0  0
    3.1330    0.0210    0.0000 C   0  0  0  0  0  0  0  0  0  0  0  0
    2.4100    1.3350    0.0000 O   0  0  0  0  0  0  0  0  0  0  0  0
    6.8550   -1.3540    0.0000 N   0  0  0  0  0  0  0  0  0  0  0  0
  1  2  1  0  0  0  0
  1  9  1  0  0  0  0
  2  3  1  1  0  0  0
  2  5  1  0  0  0  0
  3  4  1  0  0  0  0
  5  6  1  6  0  0  0
  5  7  1  0  0  0  0
  7  8  1  1  0  0  0
  7  9  1  0  0  0  0
  9 10  1  1  0  0  0
 10 11  1  0  0  0  0
 10 15  1  0  0  0  0
 11 12  2  0  0  0  0
 12 13  1  0  0  0  0
 13 14  2  0  0  0  0
 13 17  1  0  0  0  0
 14 15  1  0  0  0  0
 15 16  2  0  0  0  0
M  END
>  <Index>
274

>  <ID>
HT0579

>  <class>
0

>  <apol>
31.81831

>  <ast_fraglike>
0

>  <ast_fraglike_ext>
0

>  <ast_violation>
2

>  <ast_violation_ext>
3

>  <a_acc>
6

>  <a_acid>
0

>  <a_aro>
0

>  <a_base>
0

>  <a_count>
30

>  <a_don>
4

>  <a_donacc>
10

>  <a_heavy>
17

>  <a_hyd>
6

>  <a_IC>
54.20715

>  <a_ICM>
1.8069049

>  <a_nB>
0

>  <a_nBr>
0

>  <a_nC>
9

>  <a_nCl>
0

>  <a_nF>
0

>  <a_nH>
13

>  <a_nI>
0

>  <a_nN>
3

>  <a_nO>
5

>  <a_nP>
0

>  <a_nS>
0

>  <balabanJ>
2.0315859

>  <BCUT_PEOE_0>
-2.519393

>  <BCUT_PEOE_1>
-0.61286598

>  <BCUT_PEOE_2>
0.75447792

>  <BCUT_PEOE_3>
2.7805359

>  <BCUT_SLOGP_0>
-2.7344995

>  <BCUT_SLOGP_1>
-0.72633696

>  <BCUT_SLOGP_2>
0.5534057

>  <BCUT_SLOGP_3>
2.5774755

>  <BCUT_SMR_0>
-2.3255911

>  <BCUT_SMR_1>
-0.5150314

>  <BCUT_SMR_2>
0.84163916

>  <BCUT_SMR_3>
2.9711962

>  <bpol>
19.725691

>  <b_1rotN>
2

>  <b_1rotR>
0.11111111

>  <b_ar>
0

>  <b_count>
31

>  <b_double>
3

>  <b_heavy>
18

>  <b_max1len>
4

>  <b_rotN>
2

>  <b_rotR>
0.11111111

>  <b_single>
28

>  <b_triple>
0

>  <chi0>
12.576985

>  <chi0v>
8.8011236

>  <chi0v_C>
5.1712084

>  <chi0_C>
5.585422

>  <chi1>
8.0409126

>  <chi1v>
5.0143042

>  <chi1v_C>
2.0302567

>  <chi1_C>
2.3164966

>  <chiral>
4

>  <chiral_u>
0

>  <density>
0.87019998

>  <diameter>
9

>  <FCharge>
0

>  <GCUT_PEOE_0>
-0.84325588

>  <GCUT_PEOE_1>
-0.44764203

>  <GCUT_PEOE_2>
0.19208167

>  <GCUT_PEOE_3>
2.5359423

>  <GCUT_SLOGP_0>
-1.3703768

>  <GCUT_SLOGP_1>
-0.50943267

>  <GCUT_SLOGP_2>
0.083135739

>  <GCUT_SLOGP_3>
2.4113376

>  <GCUT_SMR_0>
-0.52615255

>  <GCUT_SMR_1>
-0.25094992

>  <GCUT_SMR_2>
0.23963247

>  <GCUT_SMR_3>
2.7488739

>  <Kier1>
13.432098

>  <Kier2>
5.3254437

>  <Kier3>
2.5599999

>  <KierA1>
10.681581

>  <KierA2>
4.1693964

>  <KierA3>
1.9794546

>  <KierFlex>
2.6197495

>  <lip_acc>
8

>  <lip_don>
5

>  <lip_druglike>
1

>  <lip_violation>
0

>  <logP(o/w)>
-2.529

>  <logS>
-0.072410002

>  <mr>
5.4838672

>  <mutagenic>
0

>  <nmol>
1

>  <opr_brigid>
11

>  <opr_leadlike>
1

>  <opr_nring>
2

>  <opr_nrot>
3

>  <opr_violation>
0

>  <PC+>
0

>  <PC->
0

>  <PEOE_PC+>
2.5863478

>  <PEOE_PC->
-2.5863478

>  <PEOE_RPC+>
0.13622558

>  <PEOE_RPC->
0.15170674

>  <PEOE_VSA+0>
16.745916

>  <PEOE_VSA+1>
49.074383

>  <PEOE_VSA+2>
25.90535

>  <PEOE_VSA+3>
26.633966

>  <PEOE_VSA+4>
30.972517

>  <PEOE_VSA+5>
0

>  <PEOE_VSA+6>
17.440542

>  <PEOE_VSA-0>
12.254904

>  <PEOE_VSA-1>
0

>  <PEOE_VSA-2>
0

>  <PEOE_VSA-3>
5.6825762

>  <PEOE_VSA-4>
13.566921

>  <PEOE_VSA-5>
0

>  <PEOE_VSA-6>
32.457497

>  <PEOE_VSA_FHYD>
0.59070945

>  <PEOE_VSA_FNEG>
0.27720985

>  <PEOE_VSA_FPNEG>
0.1994691

>  <PEOE_VSA_FPOL>
0.40929055

>  <PEOE_VSA_FPOS>
0.72279012

>  <PEOE_VSA_FPPOS>
0.20982145

>  <PEOE_VSA_HYD>
136.29709

>  <PEOE_VSA_NEG>
63.961899

>  <PEOE_VSA_PNEG>
46.024418

>  <PEOE_VSA_POL>
94.437477

>  <PEOE_VSA_POS>
166.77267

>  <PEOE_VSA_PPOS>
48.413059

>  <petitjean>
0.44444445

>  <petitjeanSC>
0.80000001

>  <Q_PC+>
0

>  <Q_PC->
0

>  <Q_RPC+>
0

>  <Q_RPC->
0

>  <Q_VSA_FHYD>
1

>  <Q_VSA_FNEG>
0

>  <Q_VSA_FPNEG>
0

>  <Q_VSA_FPOL>
0

>  <Q_VSA_FPOS>
1

>  <Q_VSA_FPPOS>
0

>  <Q_VSA_HYD>
230.73457

>  <Q_VSA_NEG>
0

>  <Q_VSA_PNEG>
0

>  <Q_VSA_POL>
0

>  <Q_VSA_POS>
230.73457

>  <Q_VSA_PPOS>
0

>  <radius>
5

>  <reactive>
0

>  <rings>
2

>  <RPC+>
0

>  <RPC->
0

>  <rsynth>
1

>  <SlogP>
-2.2681

>  <SlogP_VSA0>
109.05286

>  <SlogP_VSA1>
10.28219

>  <SlogP_VSA2>
36.445656

>  <SlogP_VSA3>
20.926258

>  <SlogP_VSA4>
0

>  <SlogP_VSA5>
16.78553

>  <SlogP_VSA6>
0

>  <SlogP_VSA7>
34.85754

>  <SlogP_VSA8>
0

>  <SlogP_VSA9>
23.862217

>  <SMR>
5.5757799

>  <SMR_VSA0>
34.862103

>  <SMR_VSA1>
96.065521

>  <SMR_VSA2>
0

>  <SMR_VSA3>
25.44577

>  <SMR_VSA4>
32.897186

>  <SMR_VSA5>
34.85754

>  <SMR_VSA6>
28.084135

>  <SMR_VSA7>
0

>  <TPSA>
128.61

>  <VAdjEq>
0.54234898

>  <VAdjMa>
5.1699252

>  <VDistEq>
2.8545306

>  <VDistMa>
7.8882208

>  <vdw_area>
230.73457

>  <vdw_vol>
279.4978

>  <vsa_acc>
21.753254

>  <vsa_acid>
0

>  <vsa_base>
0

>  <vsa_don>
17.742489

>  <vsa_hyd>
83.54203

>  <vsa_other>
41.580635

>  <vsa_pol>
80.196503

>  <Weight>
243.21899

>  <weinerPath>
496

>  <weinerPol>
27

>  <zagreb>
88

$$$$