Ic1c(C(O)=O)c(I)cc(I)c1NC(=O)C
  MOE2013           2D

 16 16  0  0  0  0  0  0  0  0999 V2000
    0.0000    0.0000    0.0000 I   0  0  0  0  0  0  0  0  0  0  0  0
    0.7420    1.3040    0.0000 C   0  0  0  0  0  0  0  0  0  0  0  0
   -0.0170    2.5980    0.0000 C   0  0  0  0  0  0  0  0  0  0  0  0
   -1.5170    2.5880    0.0000 C   0  0  0  0  0  0  0  0  0  0  0  0
   -2.2750    3.8820    0.0000 O   0  0  0  0  0  0  0  0  0  0  0  0
   -2.2580    1.2840    0.0000 O   0  0  0  0  0  0  0  0  0  0  0  0
    0.7250    3.9020    0.0000 C   0  0  0  0  0  0  0  0  0  0  0  0
   -0.0340    5.1960    0.0000 I   0  0  0  0  0  0  0  0  0  0  0  0
    2.2250    3.9120    0.0000 C   0  0  0  0  0  0  0  0  0  0  0  0
    2.9830    2.6180    0.0000 C   0  0  0  0  0  0  0  0  0  0  0  0
    4.4830    2.6270    0.0000 I   0  0  0  0  0  0  0  0  0  0  0  0
    2.2410    1.3140    0.0000 C   0  0  0  0  0  0  0  0  0  0  0  0
    3.0000    0.0200    0.0000 N   0  0  0  0  0  0  0  0  0  0  0  0
    4.5000    0.0290    0.0000 C   0  0  0  0  0  0  0  0  0  0  0  0
    5.2580   -1.2650    0.0000 O   0  0  0  0  0  0  0  0  0  0  0  0
    5.2410    1.3330    0.0000 C   0  0  0  0  0  0  0  0  0  0  0  0
  1  2  1  0  0  0  0
  2  3  1  0  0  0  0
  2 12  2  0  0  0  0
  3  4  1  0  0  0  0
  3  7  2  0  0  0  0
  4  5  1  0  0  0  0
  4  6  2  0  0  0  0
  7  8  1  0  0  0  0
  7  9  1  0  0  0  0
  9 10  2  0  0  0  0
 10 11  1  0  0  0  0
 10 12  1  0  0  0  0
 12 13  1  0  0  0  0
 13 14  1  0  0  0  0
 14 15  2  0  0  0  0
 14 16  1  0  0  0  0
M  END
>  <Index>
23

>  <ID>
HT0061

>  <class>
0

>  <apol>
39.396759

>  <ast_fraglike>
0

>  <ast_fraglike_ext>
0

>  <ast_violation>
2

>  <ast_violation_ext>
2

>  <a_acc>
3

>  <a_acid>
0

>  <a_aro>
6

>  <a_base>
0

>  <a_count>
22

>  <a_don>
3

>  <a_donacc>
6

>  <a_heavy>
16

>  <a_hyd>
10

>  <a_IC>
44.55862

>  <a_ICM>
2.0253918

>  <a_nB>
0

>  <a_nBr>
0

>  <a_nC>
9

>  <a_nCl>
0

>  <a_nF>
0

>  <a_nH>
6

>  <a_nI>
3

>  <a_nN>
1

>  <a_nO>
3

>  <a_nP>
0

>  <a_nS>
0

>  <balabanJ>
2.7922964

>  <BCUT_PEOE_0>
-2.2863219

>  <BCUT_PEOE_1>
-0.60225958

>  <BCUT_PEOE_2>
0.60010582

>  <BCUT_PEOE_3>
2.2999501

>  <BCUT_SLOGP_0>
-2.3556454

>  <BCUT_SLOGP_1>
-0.47537681

>  <BCUT_SLOGP_2>
0.82208425

>  <BCUT_SLOGP_3>
2.3736341

>  <BCUT_SMR_0>
-1.9709132

>  <BCUT_SMR_1>
-0.31484309

>  <BCUT_SMR_2>
1.0139058

>  <BCUT_SMR_3>
2.6897914

>  <bpol>
19.905243

>  <b_1rotN>
2

>  <b_1rotR>
0.125

>  <b_ar>
6

>  <b_count>
22

>  <b_double>
2

>  <b_heavy>
16

>  <b_max1len>
2

>  <b_rotN>
3

>  <b_rotR>
0.1875

>  <b_single>
14

>  <b_triple>
0

>  <chi0>
12.455666

>  <chi0v>
14.447449

>  <chi0v_C>
5.0773501

>  <chi0_C>
5.7485585

>  <chi1>
7.3411117

>  <chi1v>
7.2623997

>  <chi1v_C>
2.3273504

>  <chi1_C>
3.0605135

>  <chiral>
0

>  <chiral_u>
0

>  <density>
1.7028354

>  <diameter>
7

>  <FCharge>
0

>  <GCUT_PEOE_0>
-0.80611801

>  <GCUT_PEOE_1>
-0.49591631

>  <GCUT_PEOE_2>
0.078368686

>  <GCUT_PEOE_3>
2.1570282

>  <GCUT_SLOGP_0>
-0.99749464

>  <GCUT_SLOGP_1>
-0.41121414

>  <GCUT_SLOGP_2>
0.32708058

>  <GCUT_SLOGP_3>
2.2926154

>  <GCUT_SMR_0>
-0.46804455

>  <GCUT_SMR_1>
-0.19940093

>  <GCUT_SMR_2>
0.4588649

>  <GCUT_SMR_3>
2.6102705

>  <Kier1>
14.0625

>  <Kier2>
5.5576558

>  <Kier3>
3.25

>  <KierA1>
19.0338

>  <KierA2>
7.6747842

>  <KierA3>
4.5555968

>  <KierFlex>
9.1300201

>  <lip_acc>
4

>  <lip_don>
2

>  <lip_druglike>
1

>  <lip_violation>
1

>  <logP(o/w)>
4.473

>  <logS>
-4.53829

>  <mr>
8.685009

>  <mutagenic>
0

>  <nmol>
1

>  <opr_brigid>
6

>  <opr_leadlike>
1

>  <opr_nring>
1

>  <opr_nrot>
2

>  <opr_violation>
1

>  <PC+>
0

>  <PC->
0

>  <PEOE_PC+>
1.3427234

>  <PEOE_PC->
-1.3427234

>  <PEOE_RPC+>
0.21844959

>  <PEOE_RPC->
0.24386282

>  <PEOE_VSA+0>
37.624023

>  <PEOE_VSA+1>
16.213572

>  <PEOE_VSA+2>
0

>  <PEOE_VSA+3>
8.6190128

>  <PEOE_VSA+4>
23.273705

>  <PEOE_VSA+5>
14.708499

>  <PEOE_VSA+6>
0

>  <PEOE_VSA-0>
153.22495

>  <PEOE_VSA-1>
0

>  <PEOE_VSA-2>
0

>  <PEOE_VSA-3>
0

>  <PEOE_VSA-4>
0

>  <PEOE_VSA-5>
27.133842

>  <PEOE_VSA-6>
7.9044313

>  <PEOE_VSA_FHYD>
0.74707323

>  <PEOE_VSA_FNEG>
0.65210217

>  <PEOE_VSA_FPNEG>
0.12136483

>  <PEOE_VSA_FPOL>
0.2529268

>  <PEOE_VSA_FPOS>
0.34789783

>  <PEOE_VSA_FPPOS>
0.13156195

>  <PEOE_VSA_HYD>
215.68155

>  <PEOE_VSA_NEG>
188.26321

>  <PEOE_VSA_PNEG>
35.038273

>  <PEOE_VSA_POL>
73.020477

>  <PEOE_VSA_POS>
100.43881

>  <PEOE_VSA_PPOS>
37.982204

>  <petitjean>
0.42857143

>  <petitjeanSC>
0.75

>  <Q_PC+>
0

>  <Q_PC->
0

>  <Q_RPC+>
0

>  <Q_RPC->
0

>  <Q_VSA_FHYD>
1

>  <Q_VSA_FNEG>
0

>  <Q_VSA_FPNEG>
0

>  <Q_VSA_FPOL>
0

>  <Q_VSA_FPOS>
1

>  <Q_VSA_FPPOS>
0

>  <Q_VSA_HYD>
288.70203

>  <Q_VSA_NEG>
0

>  <Q_VSA_PNEG>
0

>  <Q_VSA_POL>
0

>  <Q_VSA_POS>
288.70203

>  <Q_VSA_PPOS>
0

>  <radius>
4

>  <reactive>
0

>  <rings>
1

>  <RPC+>
0

>  <RPC->
0

>  <rsynth>
1

>  <SlogP>
3.1570001

>  <SlogP_VSA0>
0

>  <SlogP_VSA1>
31.014997

>  <SlogP_VSA2>
28.841145

>  <SlogP_VSA3>
25.385227

>  <SlogP_VSA4>
27.047791

>  <SlogP_VSA5>
0

>  <SlogP_VSA6>
0

>  <SlogP_VSA7>
17.643185

>  <SlogP_VSA8>
0

>  <SlogP_VSA9>
206.42879

>  <SMR>
8.5855999

>  <SMR_VSA0>
47.724434

>  <SMR_VSA1>
0

>  <SMR_VSA2>
30.364155

>  <SMR_VSA3>
3.185575

>  <SMR_VSA4>
20.767498

>  <SMR_VSA5>
17.643185

>  <SMR_VSA6>
13.004248

>  <SMR_VSA7>
203.67204

>  <TPSA>
66.400002

>  <VAdjEq>
0.54356444

>  <VAdjMa>
5

>  <VDistEq>
2.6712754

>  <VDistMa>
7.733283

>  <vdw_area>
288.70203

>  <vdw_vol>
327.02103

>  <vsa_acc>
13.566921

>  <vsa_acid>
0

>  <vsa_base>
0

>  <vsa_don>
5.6825762

>  <vsa_hyd>
204.21536

>  <vsa_other>
27.65803

>  <vsa_pol>
46.383339

>  <Weight>
556.86298

>  <weinerPath>
413

>  <weinerPol>
25

>  <zagreb>
78

$$$$