s1nc(nc1N)/C(=NO)/C(=O)N[C@H]1[C@H]2SCC(C=C3/CCN([C@@H]4CCN(C4)C(OCC=4OC(OC=4C)=O)=O)C/3=O)=C(N2C1=O)C(O)=O
  MOE2013           2D

 47 52  0  0  1  0  0  0  0  0999 V2000
    0.0000    0.0000    0.0000 S   0  0  0  0  0  0  0  0  0  0  0  0
   -1.4990   -0.0640    0.0000 N   0  0  0  0  0  0  0  0  0  0  0  0
   -2.0230    1.3420    0.0000 C   0  0  0  0  0  0  0  0  0  0  0  0
   -0.8480    2.2740    0.0000 N   0  0  0  0  0  0  0  0  0  0  0  0
    0.4020    1.4450    0.0000 C   0  0  0  0  0  0  0  0  0  0  0  0
    1.8080    1.9690    0.0000 N   0  0  0  0  0  0  0  0  0  0  0  0
   -3.4680    1.7440    0.0000 C   0  0  0  0  0  0  0  0  0  0  0  0
   -3.8420    3.1960    0.0000 N   0  0  0  0  0  0  0  0  0  0  0  0
   -2.7710    4.2470    0.0000 O   0  0  0  0  0  0  0  0  0  0  0  0
   -4.5390    0.6930    0.0000 C   0  0  0  0  0  0  0  0  0  0  0  0
   -4.1640   -0.7590    0.0000 O   0  0  0  0  0  0  0  0  0  0  0  0
   -5.9840    1.0960    0.0000 N   0  0  0  0  0  0  0  0  0  0  0  0
   -7.0540    0.0450    0.0000 C   0  0  1  0  0  0  0  0  0  0  0  0
   -8.5540    0.0600    0.0000 C   0  0  1  0  0  0  0  0  0  0  0  0
   -9.8460    0.8220    0.0000 S   0  0  0  0  0  0  0  0  0  0  0  0
  -11.1520    0.0850    0.0000 C   0  0  0  0  0  0  0  0  0  0  0  0
  -11.1670   -1.4150    0.0000 C   0  0  0  0  0  0  0  0  0  0  0  0
  -12.4730   -2.1520    0.0000 C   0  0  0  0  0  0  0  0  0  0  0  0
  -13.7650   -1.3900    0.0000 C   0  0  0  0  0  0  0  0  0  0  0  0
  -13.9070    0.1040    0.0000 C   0  0  0  0  0  0  0  0  0  0  0  0
  -15.3710    0.4300    0.0000 C   0  0  0  0  0  0  0  0  0  0  0  0
  -16.1340   -0.8620    0.0000 N   0  0  0  0  0  0  0  0  0  0  0  0
  -17.6270   -1.0040    0.0000 C   0  0  2  0  0  0  0  0  0  0  0  0
  -18.6200    0.1200    0.0000 C   0  0  0  0  0  0  0  0  0  0  0  0
  -19.9960   -0.4770    0.0000 C   0  0  0  0  0  0  0  0  0  0  0  0
  -19.8540   -1.9700    0.0000 N   0  0  0  0  0  0  0  0  0  0  0  0
  -18.3900   -2.2960    0.0000 C   0  0  0  0  0  0  0  0  0  0  0  0
  -20.9780   -2.9630    0.0000 C   0  0  0  0  0  0  0  0  0  0  0  0
  -22.4000   -2.4850    0.0000 O   0  0  0  0  0  0  0  0  0  0  0  0
  -23.5250   -3.4780    0.0000 C   0  0  0  0  0  0  0  0  0  0  0  0
  -24.9470   -3.0010    0.0000 C   0  0  0  0  0  0  0  0  0  0  0  0
  -25.3960   -1.5700    0.0000 O   0  0  0  0  0  0  0  0  0  0  0  0
  -26.8960   -1.5550    0.0000 C   0  0  0  0  0  0  0  0  0  0  0  0
  -27.3740   -2.9770    0.0000 O   0  0  0  0  0  0  0  0  0  0  0  0
  -26.1690   -3.8710    0.0000 C   0  0  0  0  0  0  0  0  0  0  0  0
  -26.1830   -5.3710    0.0000 C   0  0  0  0  0  0  0  0  0  0  0  0
  -27.7660   -0.3330    0.0000 O   0  0  0  0  0  0  0  0  0  0  0  0
  -20.6810   -4.4330    0.0000 O   0  0  0  0  0  0  0  0  0  0  0  0
  -15.1410   -1.9860    0.0000 C   0  0  0  0  0  0  0  0  0  0  0  0
  -15.4670   -3.4510    0.0000 O   0  0  0  0  0  0  0  0  0  0  0  0
   -9.8750   -2.1770    0.0000 C   0  0  0  0  0  0  0  0  0  0  0  0
   -8.5690   -1.4400    0.0000 N   0  0  0  0  0  0  0  0  0  0  0  0
   -7.0690   -1.4550    0.0000 C   0  0  0  0  0  0  0  0  0  0  0  0
   -6.0190   -2.5250    0.0000 O   0  0  0  0  0  0  0  0  0  0  0  0
   -9.8900   -3.6770    0.0000 C   0  0  0  0  0  0  0  0  0  0  0  0
  -11.1960   -4.4150    0.0000 O   0  0  0  0  0  0  0  0  0  0  0  0
   -8.5980   -4.4400    0.0000 O   0  0  0  0  0  0  0  0  0  0  0  0
  1  2  1  0  0  0  0
  1  5  1  0  0  0  0
  2  3  2  0  0  0  0
  3  4  1  0  0  0  0
  3  7  1  0  0  0  0
  4  5  2  0  0  0  0
  5  6  1  0  0  0  0
  7  8  2  3  0  0  0
  7 10  1  0  0  0  0
  8  9  1  0  0  0  0
 10 11  2  0  0  0  0
 10 12  1  0  0  0  0
 13 12  1  6  0  0  0
 13 14  1  0  0  0  0
 13 43  1  0  0  0  0
 14 15  1  6  0  0  0
 14 42  1  0  0  0  0
 15 16  1  0  0  0  0
 16 17  1  0  0  0  0
 17 18  1  0  0  0  0
 17 41  2  0  0  0  0
 18 19  2  3  0  0  0
 19 20  1  0  0  0  0
 19 39  1  0  0  0  0
 20 21  1  0  0  0  0
 21 22  1  0  0  0  0
 22 39  1  0  0  0  0
 23 22  1  1  0  0  0
 23 24  1  0  0  0  0
 23 27  1  0  0  0  0
 24 25  1  0  0  0  0
 25 26  1  0  0  0  0
 26 27  1  0  0  0  0
 26 28  1  0  0  0  0
 28 29  1  0  0  0  0
 28 38  2  0  0  0  0
 29 30  1  0  0  0  0
 30 31  1  0  0  0  0
 31 32  1  0  0  0  0
 31 35  2  0  0  0  0
 32 33  1  0  0  0  0
 33 34  1  0  0  0  0
 33 37  2  0  0  0  0
 34 35  1  0  0  0  0
 35 36  1  0  0  0  0
 39 40  2  0  0  0  0
 41 42  1  0  0  0  0
 41 45  1  0  0  0  0
 42 43  1  0  0  0  0
 43 44  2  0  0  0  0
 45 46  1  0  0  0  0
 45 47  2  0  0  0  0
M  END
>  <Index>
207

>  <ID>
HT0426

>  <class>
0

>  <apol>
86.518616

>  <ast_fraglike>
0

>  <ast_fraglike_ext>
0

>  <ast_violation>
3

>  <ast_violation_ext>
5

>  <a_acc>
11

>  <a_acid>
0

>  <a_aro>
5

>  <a_base>
0

>  <a_count>
73

>  <a_don>
5

>  <a_donacc>
16

>  <a_heavy>
47

>  <a_hyd>
18

>  <a_IC>
143.38058

>  <a_ICM>
1.9641175

>  <a_nB>
0

>  <a_nBr>
0

>  <a_nC>
26

>  <a_nCl>
0

>  <a_nF>
0

>  <a_nH>
26

>  <a_nI>
0

>  <a_nN>
8

>  <a_nO>
11

>  <a_nP>
0

>  <a_nS>
2

>  <balabanJ>
0.98873812

>  <BCUT_PEOE_0>
-2.678472

>  <BCUT_PEOE_1>
-0.5253576

>  <BCUT_PEOE_2>
0.51011389

>  <BCUT_PEOE_3>
2.7533371

>  <BCUT_SLOGP_0>
-2.8916075

>  <BCUT_SLOGP_1>
-0.56985378

>  <BCUT_SLOGP_2>
0.56542331

>  <BCUT_SLOGP_3>
2.6743214

>  <BCUT_SMR_0>
-2.3938994

>  <BCUT_SMR_1>
-0.36441493

>  <BCUT_SMR_2>
0.79377955

>  <BCUT_SMR_3>
3.0213921

>  <bpol>
53.059383

>  <b_1rotN>
9

>  <b_1rotR>
0.17307693

>  <b_ar>
5

>  <b_count>
78

>  <b_double>
10

>  <b_heavy>
52

>  <b_max1len>
3

>  <b_rotN>
11

>  <b_rotR>
0.21153846

>  <b_single>
63

>  <b_triple>
0

>  <chi0>
33.567822

>  <chi0v>
26.037931

>  <chi0v_C>
15.259149

>  <chi0_C>
16.471809

>  <chi1>
22.459637

>  <chi1v>
15.848676

>  <chi1v_C>
6.0765157

>  <chi1_C>
7.1017551

>  <chiral>
3

>  <chiral_u>
0

>  <density>
0.90842539

>  <diameter>
25

>  <FCharge>
0

>  <GCUT_PEOE_0>
-0.84616178

>  <GCUT_PEOE_1>
-0.46942905

>  <GCUT_PEOE_2>
0.091527842

>  <GCUT_PEOE_3>
2.8725228

>  <GCUT_SLOGP_0>
-1.3344939

>  <GCUT_SLOGP_1>
-0.461817

>  <GCUT_SLOGP_2>
0.12007483

>  <GCUT_SLOGP_3>
2.8324554

>  <GCUT_SMR_0>
-0.52859616

>  <GCUT_SMR_1>
-0.21837622

>  <GCUT_SMR_2>
0.22509737

>  <GCUT_SMR_3>
3.1324146

>  <Kier1>
36.779587

>  <Kier2>
15.710913

>  <Kier3>
7.7784958

>  <KierA1>
29.755194

>  <KierA2>
12.648859

>  <KierA3>
6.2409883

>  <KierFlex>
8.0078564

>  <lip_acc>
19

>  <lip_don>
5

>  <lip_druglike>
0

>  <lip_violation>
2

>  <logP(o/w)>
-0.926

>  <logS>
-6.0074501

>  <mr>
16.04487

>  <mutagenic>
1

>  <nmol>
1

>  <opr_brigid>
31

>  <opr_leadlike>
0

>  <opr_nring>
6

>  <opr_nrot>
9

>  <opr_violation>
3

>  <PC+>
0

>  <PC->
0

>  <PEOE_PC+>
5.3394356

>  <PEOE_PC->
-5.3394356

>  <PEOE_RPC+>
0.077955864

>  <PEOE_RPC->
0.063060351

>  <PEOE_VSA+0>
107.91291

>  <PEOE_VSA+1>
58.894192

>  <PEOE_VSA+2>
55.615372

>  <PEOE_VSA+3>
26.509127

>  <PEOE_VSA+4>
20.648346

>  <PEOE_VSA+5>
62.202019

>  <PEOE_VSA+6>
54.866489

>  <PEOE_VSA-0>
50.613747

>  <PEOE_VSA-1>
0

>  <PEOE_VSA-2>
30.64588

>  <PEOE_VSA-3>
0

>  <PEOE_VSA-4>
32.816418

>  <PEOE_VSA-5>
87.671425

>  <PEOE_VSA-6>
7.9044313

>  <PEOE_VSA_FHYD>
0.55373305

>  <PEOE_VSA_FNEG>
0.35158774

>  <PEOE_VSA_FPNEG>
0.21531476

>  <PEOE_VSA_FPOL>
0.44626692

>  <PEOE_VSA_FPOS>
0.64841223

>  <PEOE_VSA_FPPOS>
0.23095216

>  <PEOE_VSA_HYD>
330.19122

>  <PEOE_VSA_NEG>
209.6519

>  <PEOE_VSA_PNEG>
128.39227

>  <PEOE_VSA_POL>
266.10913

>  <PEOE_VSA_POS>
386.64847

>  <PEOE_VSA_PPOS>
137.71686

>  <petitjean>
0.47999999

>  <petitjeanSC>
0.92307693

>  <Q_PC+>
0

>  <Q_PC->
0

>  <Q_RPC+>
0

>  <Q_RPC->
0

>  <Q_VSA_FHYD>
1

>  <Q_VSA_FNEG>
0

>  <Q_VSA_FPNEG>
0

>  <Q_VSA_FPOL>
0

>  <Q_VSA_FPOS>
1

>  <Q_VSA_FPPOS>
0

>  <Q_VSA_HYD>
596.30035

>  <Q_VSA_NEG>
0

>  <Q_VSA_PNEG>
0

>  <Q_VSA_POL>
0

>  <Q_VSA_POS>
596.30035

>  <Q_VSA_PPOS>
0

>  <radius>
13

>  <reactive>
1

>  <rings>
6

>  <RPC+>
0

>  <RPC->
0

>  <rsynth>
1

>  <SlogP>
-0.19490001

>  <SlogP_VSA0>
50.90794

>  <SlogP_VSA1>
84.533012

>  <SlogP_VSA2>
164.36369

>  <SlogP_VSA3>
118.86378

>  <SlogP_VSA4>
2.3279202

>  <SlogP_VSA5>
39.014614

>  <SlogP_VSA6>
0

>  <SlogP_VSA7>
17.643185

>  <SlogP_VSA8>
37.736813

>  <SlogP_VSA9>
144.82269

>  <SMR>
15.91777

>  <SMR_VSA0>
176.17296

>  <SMR_VSA1>
60.534355

>  <SMR_VSA2>
69.000076

>  <SMR_VSA3>
32.253738

>  <SMR_VSA4>
0.50074643

>  <SMR_VSA5>
88.277184

>  <SMR_VSA6>
136.87708

>  <SMR_VSA7>
96.597519

>  <TPSA>
256.48001

>  <VAdjEq>
0.27386162

>  <VAdjMa>
6.7004399

>  <VDistEq>
4.3725772

>  <VDistMa>
10.783752

>  <vdw_area>
596.30035

>  <vdw_vol>
760.29468

>  <vsa_acc>
92.477646

>  <vsa_acid>
0

>  <vsa_base>
0

>  <vsa_don>
23.425066

>  <vsa_hyd>
247.44449

>  <vsa_other>
155.63652

>  <vsa_pol>
160.00208

>  <Weight>
690.67102

>  <weinerPath>
9853

>  <weinerPol>
76

>  <zagreb>
258

$$$$