O1[C@@H]2[C@]34[C@H]([C@H](N(CC3)C)Cc3c4c1c(OC)cc3)C=C[C@@H]2O
  MOE2013           2D

 22 26  0  0  1  0  0  0  0  0999 V2000
    0.0000    0.0000    0.0000 O   0  0  0  0  0  0  0  0  0  0  0  0
   -1.7640    0.1660    0.0000 C   0  0  2  0  0  0  0  0  0  0  0  0
   -1.8100    1.5910    0.0000 C   0  0  2  0  0  0  0  0  0  0  0  0
   -3.0750    2.2690    0.0000 C   0  0  2  0  0  0  0  0  0  0  0  0
   -3.1190    3.7120    0.0000 C   0  0  2  0  0  0  0  0  0  0  0  0
   -4.1580    4.7150    0.0000 N   0  0  3  0  0  0  0  0  0  0  0  0
   -2.7190    4.7570    0.0000 C   0  0  0  0  0  0  0  0  0  0  0  0
   -1.4660    3.0080    0.0000 C   0  0  0  0  0  0  0  0  0  0  0  0
   -5.5570    5.2570    0.0000 C   0  0  0  0  0  0  0  0  0  0  0  0
   -1.8920    4.4590    0.0000 C   0  0  0  0  0  0  0  0  0  0  0  0
   -0.6230    3.7760    0.0000 C   0  0  0  0  0  0  0  0  0  0  0  0
   -0.5820    2.3450    0.0000 C   0  0  0  0  0  0  0  0  0  0  0  0
    0.6730    1.6610    0.0000 C   0  0  0  0  0  0  0  0  0  0  0  0
    1.8950    2.4160    0.0000 C   0  0  0  0  0  0  0  0  0  0  0  0
    3.2150    1.7050    0.0000 O   0  0  0  0  0  0  0  0  0  0  0  0
    4.4920    2.4930    0.0000 C   0  0  0  0  0  0  0  0  0  0  0  0
    1.8540    3.8480    0.0000 C   0  0  0  0  0  0  0  0  0  0  0  0
    0.5900    4.5240    0.0000 C   0  0  0  0  0  0  0  0  0  0  0  0
   -4.2930    1.5210    0.0000 C   0  0  0  0  0  0  0  0  0  0  0  0
   -4.2450    0.0850    0.0000 C   0  0  0  0  0  0  0  0  0  0  0  0
   -2.9800   -0.5920    0.0000 C   0  0  2  0  0  0  0  0  0  0  0  0
   -2.9300   -2.0910    0.0000 O   0  0  0  0  0  0  0  0  0  0  0  0
  1 13  1  0  0  0  0
  2  1  1  1  0  0  0
  2  3  1  0  0  0  0
  2 21  1  0  0  0  0
  3  4  1  0  0  0  0
  3  8  1  6  0  0  0
  3 12  1  0  0  0  0
  4  5  1  0  0  0  0
  4 19  1  1  0  0  0
  5  6  1  6  0  0  0
  5 10  1  0  0  0  0
  6  7  1  0  0  0  0
  6  9  1  0  0  0  0
  7  8  1  0  0  0  0
 10 11  1  0  0  0  0
 11 12  1  0  0  0  0
 11 18  2  0  0  0  0
 12 13  2  0  0  0  0
 13 14  1  0  0  0  0
 14 15  1  0  0  0  0
 14 17  2  0  0  0  0
 15 16  1  0  0  0  0
 17 18  1  0  0  0  0
 19 20  2  0  0  0  0
 20 21  1  0  0  0  0
 21 22  1  1  0  0  0
M  END
>  <Index>
257

>  <ID>
HT0541

>  <class>
0

>  <apol>
49.188652

>  <ast_fraglike>
0

>  <ast_fraglike_ext>
0

>  <ast_violation>
1

>  <ast_violation_ext>
1

>  <a_acc>
4

>  <a_acid>
0

>  <a_aro>
6

>  <a_base>
0

>  <a_count>
43

>  <a_don>
1

>  <a_donacc>
5

>  <a_heavy>
22

>  <a_hyd>
18

>  <a_IC>
61.27718

>  <a_ICM>
1.4250507

>  <a_nB>
0

>  <a_nBr>
0

>  <a_nC>
18

>  <a_nCl>
0

>  <a_nF>
0

>  <a_nH>
21

>  <a_nI>
0

>  <a_nN>
1

>  <a_nO>
3

>  <a_nP>
0

>  <a_nS>
0

>  <balabanJ>
1.6325682

>  <BCUT_PEOE_0>
-2.869828

>  <BCUT_PEOE_1>
-0.51379913

>  <BCUT_PEOE_2>
0.55871707

>  <BCUT_PEOE_3>
2.8828642

>  <BCUT_SLOGP_0>
-2.9332697

>  <BCUT_SLOGP_1>
-0.49062979

>  <BCUT_SLOGP_2>
0.60575747

>  <BCUT_SLOGP_3>
2.8519418

>  <BCUT_SMR_0>
-2.6109014

>  <BCUT_SMR_1>
-0.3690758

>  <BCUT_SMR_2>
0.69716179

>  <BCUT_SMR_3>
3.1368854

>  <bpol>
28.769346

>  <b_1rotN>
1

>  <b_1rotR>
0.03846154

>  <b_ar>
6

>  <b_count>
47

>  <b_double>
1

>  <b_heavy>
26

>  <b_max1len>
3

>  <b_rotN>
1

>  <b_rotR>
0.03846154

>  <b_single>
40

>  <b_triple>
0

>  <chi0>
15.060114

>  <chi0v>
12.951046

>  <chi0v_C>
11.240123

>  <chi0_C>
12.068549

>  <chi1>
10.663869

>  <chi1v>
8.1020937

>  <chi1v_C>
5.7700558

>  <chi1_C>
6.8357353

>  <chiral>
5

>  <chiral_u>
0

>  <density>
0.73324329

>  <diameter>
9

>  <FCharge>
0

>  <GCUT_PEOE_0>
-0.85621107

>  <GCUT_PEOE_1>
-0.39644083

>  <GCUT_PEOE_2>
0.048097219

>  <GCUT_PEOE_3>
3.0842936

>  <GCUT_SLOGP_0>
-0.96093816

>  <GCUT_SLOGP_1>
-0.34981346

>  <GCUT_SLOGP_2>
0.10336601

>  <GCUT_SLOGP_3>
3.1136432

>  <GCUT_SMR_0>
-0.52226985

>  <GCUT_SMR_1>
-0.19967616

>  <GCUT_SMR_2>
0.13348821

>  <GCUT_SMR_3>
3.3344891

>  <Kier1>
14.352071

>  <Kier2>
4.7619047

>  <Kier3>
1.6435986

>  <KierA1>
12.352807

>  <KierA2>
4.0676036

>  <KierA3>
1.3962564

>  <KierFlex>
2.2839236

>  <lip_acc>
4

>  <lip_don>
1

>  <lip_druglike>
1

>  <lip_violation>
0

>  <logP(o/w)>
1.201

>  <logS>
-2.0596001

>  <mr>
8.213685

>  <mutagenic>
0

>  <nmol>
1

>  <opr_brigid>
22

>  <opr_leadlike>
1

>  <opr_nring>
5

>  <opr_nrot>
1

>  <opr_violation>
1

>  <PC+>
0

>  <PC->
0

>  <PEOE_PC+>
1.6809855

>  <PEOE_PC->
-1.6809855

>  <PEOE_RPC+>
0.125117

>  <PEOE_RPC->
0.22912027

>  <PEOE_VSA+0>
75.062866

>  <PEOE_VSA+1>
38.388474

>  <PEOE_VSA+2>
26.726896

>  <PEOE_VSA+3>
0

>  <PEOE_VSA+4>
10.324173

>  <PEOE_VSA+5>
0

>  <PEOE_VSA+6>
0

>  <PEOE_VSA-0>
70.505623

>  <PEOE_VSA-1>
36.764713

>  <PEOE_VSA-2>
0

>  <PEOE_VSA-3>
0

>  <PEOE_VSA-4>
0

>  <PEOE_VSA-5>
0

>  <PEOE_VSA-6>
12.775052

>  <PEOE_VSA_FHYD>
0.91462052

>  <PEOE_VSA_FNEG>
0.44371232

>  <PEOE_VSA_FPNEG>
0.047219209

>  <PEOE_VSA_FPOL>
0.085379459

>  <PEOE_VSA_FPOS>
0.55628771

>  <PEOE_VSA_FPPOS>
0.038160253

>  <PEOE_VSA_HYD>
247.44856

>  <PEOE_VSA_NEG>
120.04539

>  <PEOE_VSA_PNEG>
12.775052

>  <PEOE_VSA_POL>
23.099226

>  <PEOE_VSA_POS>
150.50241

>  <PEOE_VSA_PPOS>
10.324173

>  <petitjean>
0.44444445

>  <petitjeanSC>
0.80000001

>  <Q_PC+>
0

>  <Q_PC->
0

>  <Q_RPC+>
0

>  <Q_RPC->
0

>  <Q_VSA_FHYD>
1

>  <Q_VSA_FNEG>
0

>  <Q_VSA_FPNEG>
0

>  <Q_VSA_FPOL>
0

>  <Q_VSA_FPOS>
1

>  <Q_VSA_FPPOS>
0

>  <Q_VSA_HYD>
270.54779

>  <Q_VSA_NEG>
0

>  <Q_VSA_PNEG>
0

>  <Q_VSA_POL>
0

>  <Q_VSA_POS>
270.54779

>  <Q_VSA_PPOS>
0

>  <radius>
5

>  <reactive>
0

>  <rings>
5

>  <RPC+>
0

>  <RPC->
0

>  <rsynth>
1

>  <SlogP>
1.50107

>  <SlogP_VSA0>
47.385002

>  <SlogP_VSA1>
3.1243138

>  <SlogP_VSA2>
16.919268

>  <SlogP_VSA3>
18.439579

>  <SlogP_VSA4>
10.781946

>  <SlogP_VSA5>
87.14946

>  <SlogP_VSA6>
0

>  <SlogP_VSA7>
70.572739

>  <SlogP_VSA8>
18.868406

>  <SlogP_VSA9>
10.486856

>  <SMR>
8.2463799

>  <SMR_VSA0>
0

>  <SMR_VSA1>
50.509315

>  <SMR_VSA2>
4.4107962

>  <SMR_VSA3>
33.777275

>  <SMR_VSA4>
0

>  <SMR_VSA5>
108.30955

>  <SMR_VSA6>
18.439579

>  <SMR_VSA7>
68.281059

>  <TPSA>
41.93

>  <VAdjEq>
0.49213955

>  <VAdjMa>
5.7004399

>  <VDistEq>
2.7298632

>  <VDistMa>
8.6853304

>  <vdw_area>
270.54779

>  <vdw_vol>
408.28195

>  <vsa_acc>
5.0075121

>  <vsa_acid>
0

>  <vsa_base>
0

>  <vsa_don>
0

>  <vsa_hyd>
231.86761

>  <vsa_other>
0

>  <vsa_pol>
18.574432

>  <Weight>
299.37

>  <weinerPath>
824

>  <weinerPol>
51

>  <zagreb>
136

$$$$