O1[C@H]2N([C@@H](C(O)=O)/C/1=C/CO)C(=O)C2
  MOE2013           2D

 14 15  0  0  1  0  0  0  0  0999 V2000
    0.0000    0.0000    0.0000 O   0  0  0  0  0  0  0  0  0  0  0  0
   -1.4360   -0.4330    0.0000 C   0  0  1  0  0  0  0  0  0  0  0  0
   -1.4680   -1.9330    0.0000 N   0  0  0  0  0  0  0  0  0  0  0  0
   -0.0510   -2.4270    0.0000 C   0  0  1  0  0  0  0  0  0  0  0  0
    0.3820   -3.8630    0.0000 C   0  0  0  0  0  0  0  0  0  0  0  0
    1.8420   -4.2060    0.0000 O   0  0  0  0  0  0  0  0  0  0  0  0
   -0.6450   -4.9560    0.0000 O   0  0  0  0  0  0  0  0  0  0  0  0
    0.8560   -1.2320    0.0000 C   0  0  0  0  0  0  0  0  0  0  0  0
    2.3550   -1.2640    0.0000 C   0  0  0  0  0  0  0  0  0  0  0  0
    3.1330    0.0190    0.0000 C   0  0  0  0  0  0  0  0  0  0  0  0
    4.6320   -0.0130    0.0000 O   0  0  0  0  0  0  0  0  0  0  0  0
   -2.9680   -1.9010    0.0000 C   0  0  0  0  0  0  0  0  0  0  0  0
   -4.0500   -2.9390    0.0000 O   0  0  0  0  0  0  0  0  0  0  0  0
   -2.9360   -0.4010    0.0000 C   0  0  0  0  0  0  0  0  0  0  0  0
  1  2  1  0  0  0  0
  1  8  1  0  0  0  0
  2  3  1  0  0  0  0
  2 14  1  1  0  0  0
  3  4  1  0  0  0  0
  3 12  1  0  0  0  0
  4  5  1  6  0  0  0
  4  8  1  0  0  0  0
  5  6  1  0  0  0  0
  5  7  2  0  0  0  0
  8  9  2  0  0  0  0
  9 10  1  0  0  0  0
 10 11  1  0  0  0  0
 12 13  2  0  0  0  0
 12 14  1  0  0  0  0
M  END
>  <Index>
239

>  <ID>
HT0505

>  <class>
0

>  <apol>
25.191137

>  <ast_fraglike>
0

>  <ast_fraglike_ext>
0

>  <ast_violation>
1

>  <ast_violation_ext>
1

>  <a_acc>
5

>  <a_acid>
0

>  <a_aro>
0

>  <a_base>
0

>  <a_count>
23

>  <a_don>
3

>  <a_donacc>
8

>  <a_heavy>
14

>  <a_hyd>
5

>  <a_IC>
39.902958

>  <a_ICM>
1.7349113

>  <a_nB>
0

>  <a_nBr>
0

>  <a_nC>
8

>  <a_nCl>
0

>  <a_nF>
0

>  <a_nH>
9

>  <a_nI>
0

>  <a_nN>
1

>  <a_nO>
5

>  <a_nP>
0

>  <a_nS>
0

>  <balabanJ>
2.0666637

>  <BCUT_PEOE_0>
-2.5804412

>  <BCUT_PEOE_1>
-0.62315184

>  <BCUT_PEOE_2>
0.66552675

>  <BCUT_PEOE_3>
2.7545083

>  <BCUT_SLOGP_0>
-2.751121

>  <BCUT_SLOGP_1>
-0.63614392

>  <BCUT_SLOGP_2>
0.55985677

>  <BCUT_SLOGP_3>
2.6171756

>  <BCUT_SMR_0>
-2.3489447

>  <BCUT_SMR_1>
-0.47254208

>  <BCUT_SMR_2>
0.79287595

>  <BCUT_SMR_3>
2.9823186

>  <bpol>
15.650863

>  <b_1rotN>
2

>  <b_1rotR>
0.13333334

>  <b_ar>
0

>  <b_count>
24

>  <b_double>
3

>  <b_heavy>
15

>  <b_max1len>
4

>  <b_rotN>
2

>  <b_rotR>
0.13333334

>  <b_single>
21

>  <b_triple>
0

>  <chi0>
10.292529

>  <chi0v>
7.2126498

>  <chi0v_C>
4.6462646

>  <chi0_C>
5.0080719

>  <chi1>
6.6470656

>  <chi1v>
4.1639891

>  <chi1v_C>
2.0360754

>  <chi1_C>
2.3914115

>  <chiral>
2

>  <chiral_u>
0

>  <density>
0.89069867

>  <diameter>
7

>  <FCharge>
0

>  <GCUT_PEOE_0>
-0.82801718

>  <GCUT_PEOE_1>
-0.46707726

>  <GCUT_PEOE_2>
0.14942849

>  <GCUT_PEOE_3>
2.3610382

>  <GCUT_SLOGP_0>
-1.0100213

>  <GCUT_SLOGP_1>
-0.44776976

>  <GCUT_SLOGP_2>
0.036035758

>  <GCUT_SLOGP_3>
2.2677407

>  <GCUT_SMR_0>
-0.55001295

>  <GCUT_SMR_1>
-0.25303391

>  <GCUT_SMR_2>
0.2372079

>  <GCUT_SMR_3>
2.5843892

>  <Kier1>
10.515555

>  <Kier2>
3.8677685

>  <Kier3>
1.648283

>  <KierA1>
8.6069689

>  <KierA2>
3.1127462

>  <KierA3>
1.309438

>  <KierFlex>
1.9136649

>  <lip_acc>
6

>  <lip_don>
2

>  <lip_druglike>
1

>  <lip_violation>
0

>  <logP(o/w)>
-1.193

>  <logS>
-0.10298

>  <mr>
4.4388933

>  <mutagenic>
0

>  <nmol>
1

>  <opr_brigid>
9

>  <opr_leadlike>
1

>  <opr_nring>
2

>  <opr_nrot>
2

>  <opr_violation>
0

>  <PC+>
0

>  <PC->
0

>  <PEOE_PC+>
1.9055184

>  <PEOE_PC->
-1.9055184

>  <PEOE_RPC+>
0.15167385

>  <PEOE_RPC->
0.20515111

>  <PEOE_VSA+0>
8.5307722

>  <PEOE_VSA+1>
53.438057

>  <PEOE_VSA+2>
9.3959408

>  <PEOE_VSA+3>
3.1459606

>  <PEOE_VSA+4>
33.597878

>  <PEOE_VSA+5>
14.708499

>  <PEOE_VSA+6>
0

>  <PEOE_VSA-0>
12.254904

>  <PEOE_VSA-1>
0

>  <PEOE_VSA-2>
0

>  <PEOE_VSA-3>
0

>  <PEOE_VSA-4>
0

>  <PEOE_VSA-5>
27.133842

>  <PEOE_VSA-6>
18.038837

>  <PEOE_VSA_FHYD>
0.48137692

>  <PEOE_VSA_FNEG>
0.31860903

>  <PEOE_VSA_FPNEG>
0.25061864

>  <PEOE_VSA_FPOL>
0.51862305

>  <PEOE_VSA_FPOS>
0.681391

>  <PEOE_VSA_FPPOS>
0.26800445

>  <PEOE_VSA_HYD>
86.765633

>  <PEOE_VSA_NEG>
57.427582

>  <PEOE_VSA_PNEG>
45.17268

>  <PEOE_VSA_POL>
93.479057

>  <PEOE_VSA_POS>
122.8171

>  <PEOE_VSA_PPOS>
48.306377

>  <petitjean>
0.42857143

>  <petitjeanSC>
0.75

>  <Q_PC+>
0

>  <Q_PC->
0

>  <Q_RPC+>
0

>  <Q_RPC->
0

>  <Q_VSA_FHYD>
1

>  <Q_VSA_FNEG>
0

>  <Q_VSA_FPNEG>
0

>  <Q_VSA_FPOL>
0

>  <Q_VSA_FPOS>
1

>  <Q_VSA_FPPOS>
0

>  <Q_VSA_HYD>
180.24469

>  <Q_VSA_NEG>
0

>  <Q_VSA_PNEG>
0

>  <Q_VSA_POL>
0

>  <Q_VSA_POS>
180.24469

>  <Q_VSA_PPOS>
0

>  <radius>
4

>  <reactive>
1

>  <rings>
2

>  <RPC+>
0

>  <RPC->
0

>  <rsynth>
1

>  <SlogP>
-1.0956

>  <SlogP_VSA0>
25.385227

>  <SlogP_VSA1>
16.128561

>  <SlogP_VSA2>
68.746109

>  <SlogP_VSA3>
46.311485

>  <SlogP_VSA4>
0

>  <SlogP_VSA5>
5.2434282

>  <SlogP_VSA6>
0

>  <SlogP_VSA7>
17.643185

>  <SlogP_VSA8>
18.868406

>  <SlogP_VSA9>
0

>  <SMR>
4.29286

>  <SMR_VSA0>
58.724319

>  <SMR_VSA1>
28.509541

>  <SMR_VSA2>
25.385227

>  <SMR_VSA3>
15.265219

>  <SMR_VSA4>
0

>  <SMR_VSA5>
36.511589

>  <SMR_VSA6>
33.930508

>  <SMR_VSA7>
0

>  <TPSA>
87.07

>  <VAdjEq>
0.61744827

>  <VAdjMa>
4.9068904

>  <VDistEq>
2.5397468

>  <VDistMa>
7.3342605

>  <vdw_area>
180.24469

>  <vdw_vol>
223.60199

>  <vsa_acc>
16.070677

>  <vsa_acid>
0

>  <vsa_base>
0

>  <vsa_don>
0

>  <vsa_hyd>
68.833534

>  <vsa_other>
40.607563

>  <vsa_pol>
56.771439

>  <Weight>
199.162

>  <weinerPath>
285

>  <weinerPol>
19

>  <zagreb>
74

$$$$