O=C(N)c1nc[nH]c1N=NN(C)C
  MOE2013           2D

 13 13  0  0  0  0  0  0  0  0999 V2000
    0.0000    0.0000    0.0000 O   0  0  0  0  0  0  0  0  0  0  0  0
   -1.3020   -0.7440    0.0000 C   0  0  0  0  0  0  0  0  0  0  0  0
   -2.5980    0.0110    0.0000 N   0  0  0  0  0  0  0  0  0  0  0  0
   -1.3090   -2.2440    0.0000 C   0  0  0  0  0  0  0  0  0  0  0  0
   -2.5260   -3.1210    0.0000 N   0  0  0  0  0  0  0  0  0  0  0  0
   -2.0690   -4.5490    0.0000 C   0  0  0  0  0  0  0  0  0  0  0  0
   -0.5690   -4.5560    0.0000 N   0  0  0  0  0  0  0  0  0  0  0  0
   -0.0990   -3.1310    0.0000 C   0  0  0  0  0  0  0  0  0  0  0  0
    1.3290   -2.6740    0.0000 N   0  0  0  0  0  0  0  0  0  0  0  0
    2.4400   -3.6830    0.0000 N   0  0  0  0  0  0  0  0  0  0  0  0
    3.8680   -3.2250    0.0000 N   0  0  0  0  0  0  0  0  0  0  0  0
    4.1870   -1.7600    0.0000 C   0  0  0  0  0  0  0  0  0  0  0  0
    4.9780   -4.2340    0.0000 C   0  0  0  0  0  0  0  0  0  0  0  0
  1  2  2  0  0  0  0
  2  3  1  0  0  0  0
  2  4  1  0  0  0  0
  4  5  1  0  0  0  0
  4  8  2  0  0  0  0
  5  6  2  0  0  0  0
  6  7  1  0  0  0  0
  7  8  1  0  0  0  0
  8  9  1  0  0  0  0
  9 10  2  3  0  0  0
 10 11  1  0  0  0  0
 11 12  1  0  0  0  0
 11 13  1  0  0  0  0
M  END
>  <Index>
276

>  <ID>
HT0581

>  <class>
0

>  <apol>
24.62993

>  <ast_fraglike>
0

>  <ast_fraglike_ext>
0

>  <ast_violation>
1

>  <ast_violation_ext>
2

>  <a_acc>
5

>  <a_acid>
0

>  <a_aro>
5

>  <a_base>
0

>  <a_count>
23

>  <a_don>
3

>  <a_donacc>
8

>  <a_heavy>
13

>  <a_hyd>
3

>  <a_IC>
39.803093

>  <a_ICM>
1.7305694

>  <a_nB>
0

>  <a_nBr>
0

>  <a_nC>
6

>  <a_nCl>
0

>  <a_nF>
0

>  <a_nH>
10

>  <a_nI>
0

>  <a_nN>
6

>  <a_nO>
1

>  <a_nP>
0

>  <a_nS>
0

>  <balabanJ>
2.3348494

>  <BCUT_PEOE_0>
-2.4118016

>  <BCUT_PEOE_1>
-0.46205315

>  <BCUT_PEOE_2>
0.40131912

>  <BCUT_PEOE_3>
2.3078988

>  <BCUT_SLOGP_0>
-2.4889202

>  <BCUT_SLOGP_1>
-0.35974741

>  <BCUT_SLOGP_2>
0.48482889

>  <BCUT_SLOGP_3>
2.2626612

>  <BCUT_SMR_0>
-2.1408811

>  <BCUT_SMR_1>
-0.23415637

>  <BCUT_SMR_2>
0.61309439

>  <BCUT_SMR_3>
2.5668597

>  <bpol>
15.19007

>  <b_1rotN>
3

>  <b_1rotR>
0.23076923

>  <b_ar>
5

>  <b_count>
23

>  <b_double>
2

>  <b_heavy>
13

>  <b_max1len>
4

>  <b_rotN>
3

>  <b_rotR>
0.23076923

>  <b_single>
16

>  <b_triple>
0

>  <chi0>
9.8449354

>  <chi0v>
7.3518033

>  <chi0v_C>
4.0773501

>  <chi0_C>
4.4391575

>  <chi1>
6.1090608

>  <chi1v>
3.5313141

>  <chi1v_C>
0.5

>  <chi1_C>
0.66666669

>  <chiral>
0

>  <chiral_u>
0

>  <density>
0.81571329

>  <diameter>
7

>  <FCharge>
0

>  <GCUT_PEOE_0>
-0.84090346

>  <GCUT_PEOE_1>
-0.38724792

>  <GCUT_PEOE_2>
0.013126122

>  <GCUT_PEOE_3>
2.061538

>  <GCUT_SLOGP_0>
-1.3702954

>  <GCUT_SLOGP_1>
-0.27563927

>  <GCUT_SLOGP_2>
0.11520217

>  <GCUT_SLOGP_3>
2.0833733

>  <GCUT_SMR_0>
-0.50659627

>  <GCUT_SMR_1>
-0.17205523

>  <GCUT_SMR_2>
0.15417926

>  <GCUT_SMR_3>
2.3221936

>  <Kier1>
11.076923

>  <Kier2>
5.0242214

>  <Kier3>
3.3240998

>  <KierA1>
7.0735593

>  <KierA2>
3.0729039

>  <KierA3>
1.9589224

>  <KierFlex>
1.6720282

>  <lip_acc>
7

>  <lip_don>
3

>  <lip_druglike>
1

>  <lip_violation>
0

>  <logP(o/w)>
-2.8900001

>  <logS>
-0.54720998

>  <mr>
4.5286717

>  <mutagenic>
1

>  <nmol>
1

>  <opr_brigid>
6

>  <opr_leadlike>
1

>  <opr_nring>
1

>  <opr_nrot>
3

>  <opr_violation>
0

>  <PC+>
0

>  <PC->
0

>  <PEOE_PC+>
1.6504252

>  <PEOE_PC->
-1.6504252

>  <PEOE_RPC+>
0.16453621

>  <PEOE_RPC->
0.22085348

>  <PEOE_VSA+0>
72.069695

>  <PEOE_VSA+1>
21.236927

>  <PEOE_VSA+2>
4.2653861

>  <PEOE_VSA+3>
43.747154

>  <PEOE_VSA+4>
0

>  <PEOE_VSA+5>
12.949531

>  <PEOE_VSA+6>
0

>  <PEOE_VSA-0>
0

>  <PEOE_VSA-1>
13.159503

>  <PEOE_VSA-2>
9.4210396

>  <PEOE_VSA-3>
0

>  <PEOE_VSA-4>
5.6825762

>  <PEOE_VSA-5>
13.566921

>  <PEOE_VSA-6>
6.7880106

>  <PEOE_VSA_FHYD>
0.80783844

>  <PEOE_VSA_FNEG>
0.23963147

>  <PEOE_VSA_FPNEG>
0.12833518

>  <PEOE_VSA_FPOL>
0.19216159

>  <PEOE_VSA_FPOS>
0.76036853

>  <PEOE_VSA_FPPOS>
0.063826405

>  <PEOE_VSA_HYD>
163.8997

>  <PEOE_VSA_NEG>
48.61805

>  <PEOE_VSA_PNEG>
26.037508

>  <PEOE_VSA_POL>
38.987038

>  <PEOE_VSA_POS>
154.26869

>  <PEOE_VSA_PPOS>
12.949531

>  <petitjean>
0.42857143

>  <petitjeanSC>
0.75

>  <Q_PC+>
0

>  <Q_PC->
0

>  <Q_RPC+>
0

>  <Q_RPC->
0

>  <Q_VSA_FHYD>
1

>  <Q_VSA_FNEG>
0

>  <Q_VSA_FPNEG>
0

>  <Q_VSA_FPOL>
0

>  <Q_VSA_FPOS>
1

>  <Q_VSA_FPPOS>
0

>  <Q_VSA_HYD>
202.88673

>  <Q_VSA_NEG>
0

>  <Q_VSA_PNEG>
0

>  <Q_VSA_POL>
0

>  <Q_VSA_POS>
202.88673

>  <Q_VSA_PPOS>
0

>  <radius>
4

>  <reactive>
0

>  <rings>
1

>  <RPC+>
0

>  <RPC->
0

>  <rsynth>
1

>  <SlogP>
0.068899997

>  <SlogP_VSA0>
32.897186

>  <SlogP_VSA1>
25.046104

>  <SlogP_VSA2>
16.78553

>  <SlogP_VSA3>
0

>  <SlogP_VSA4>
26.618963

>  <SlogP_VSA5>
98.997871

>  <SlogP_VSA6>
0

>  <SlogP_VSA7>
16.78553

>  <SlogP_VSA8>
0

>  <SlogP_VSA9>
2.3279202

>  <SMR>
4.5308599

>  <SMR_VSA0>
23.862217

>  <SMR_VSA1>
52.990814

>  <SMR_VSA2>
16.78553

>  <SMR_VSA3>
2.7567475

>  <SMR_VSA4>
35.225109

>  <SMR_VSA5>
16.78553

>  <SMR_VSA6>
5.2587838

>  <SMR_VSA7>
65.794373

>  <TPSA>
99.730003

>  <VAdjEq>
0.6193822

>  <VAdjMa>
4.7004399

>  <VDistEq>
2.7016766

>  <VDistMa>
7.0802193

>  <vdw_area>
202.88673

>  <vdw_vol>
223.34686

>  <vsa_acc>
36.147465

>  <vsa_acid>
0

>  <vsa_base>
0

>  <vsa_don>
17.742489

>  <vsa_hyd>
74.498474

>  <vsa_other>
48.930611

>  <vsa_pol>
65.255104

>  <Weight>
182.187

>  <weinerPath>
262

>  <weinerPol>
14

>  <zagreb>
60

$$$$