O(C(=O)c1ccccc1)[C@H]1C[C@H]2N([C@H](CC2)[C@@H]1C(OC)=O)C
  MOE2013           2D

 22 24  0  0  1  0  0  0  0  0999 V2000
    0.0000    0.0000    0.0000 O   0  0  0  0  0  0  0  0  0  0  0  0
    0.7470   -1.3010    0.0000 C   0  0  0  0  0  0  0  0  0  0  0  0
   -0.0060   -2.5980    0.0000 O   0  0  0  0  0  0  0  0  0  0  0  0
    2.2470   -1.3040    0.0000 C   0  0  0  0  0  0  0  0  0  0  0  0
    2.9940   -2.6050    0.0000 C   0  0  0  0  0  0  0  0  0  0  0  0
    4.4940   -2.6080    0.0000 C   0  0  0  0  0  0  0  0  0  0  0  0
    5.2470   -1.3110    0.0000 C   0  0  0  0  0  0  0  0  0  0  0  0
    4.5000   -0.0100    0.0000 C   0  0  0  0  0  0  0  0  0  0  0  0
    3.0000   -0.0070    0.0000 C   0  0  0  0  0  0  0  0  0  0  0  0
   -1.5000    0.0030    0.0000 C   0  0  1  0  0  0  0  0  0  0  0  0
   -2.6630    0.4360    0.0000 C   0  0  0  0  0  0  0  0  0  0  0  0
   -3.5560    1.9920    0.0000 C   0  0  1  0  0  0  0  0  0  0  0  0
   -4.9790    1.4620    0.0000 N   0  0  3  0  0  0  0  0  0  0  0  0
   -3.7600    0.9710    0.0000 C   0  0  2  0  0  0  0  0  0  0  0  0
   -2.9200    2.1400    0.0000 C   0  0  0  0  0  0  0  0  0  0  0  0
   -2.8890    3.4740    0.0000 C   0  0  0  0  0  0  0  0  0  0  0  0
   -2.9330   -0.5230    0.0000 C   0  0  2  0  0  0  0  0  0  0  0  0
   -3.4560   -1.9290    0.0000 C   0  0  0  0  0  0  0  0  0  0  0  0
   -4.9350   -2.1780    0.0000 O   0  0  0  0  0  0  0  0  0  0  0  0
   -5.4590   -3.5840    0.0000 C   0  0  0  0  0  0  0  0  0  0  0  0
   -2.5010   -3.0850    0.0000 O   0  0  0  0  0  0  0  0  0  0  0  0
   -6.4790    1.4820    0.0000 C   0  0  0  0  0  0  0  0  0  0  0  0
  1  2  1  0  0  0  0
  2  3  2  0  0  0  0
  2  4  1  0  0  0  0
  4  5  1  0  0  0  0
  4  9  2  0  0  0  0
  5  6  2  0  0  0  0
  6  7  1  0  0  0  0
  7  8  2  0  0  0  0
  8  9  1  0  0  0  0
 10  1  1  6  0  0  0
 10 11  1  0  0  0  0
 10 17  1  0  0  0  0
 12 11  1  1  0  0  0
 12 13  1  0  0  0  0
 12 16  1  0  0  0  0
 13 22  1  0  0  0  0
 14 13  1  6  0  0  0
 14 15  1  0  0  0  0
 14 17  1  0  0  0  0
 15 16  1  0  0  0  0
 17 18  1  1  0  0  0
 18 19  1  0  0  0  0
 18 21  2  0  0  0  0
 19 20  1  0  0  0  0
M  END
>  <Index>
256

>  <ID>
HT0540

>  <class>
0

>  <apol>
48.230652

>  <ast_fraglike>
0

>  <ast_fraglike_ext>
0

>  <ast_violation>
1

>  <ast_violation_ext>
2

>  <a_acc>
3

>  <a_acid>
0

>  <a_aro>
6

>  <a_base>
0

>  <a_count>
43

>  <a_don>
0

>  <a_donacc>
3

>  <a_heavy>
22

>  <a_hyd>
15

>  <a_IC>
63.603851

>  <a_ICM>
1.4791594

>  <a_nB>
0

>  <a_nBr>
0

>  <a_nC>
17

>  <a_nCl>
0

>  <a_nF>
0

>  <a_nH>
21

>  <a_nI>
0

>  <a_nN>
1

>  <a_nO>
4

>  <a_nP>
0

>  <a_nS>
0

>  <balabanJ>
1.6746829

>  <BCUT_PEOE_0>
-2.7458305

>  <BCUT_PEOE_1>
-0.52493161

>  <BCUT_PEOE_2>
0.57557005

>  <BCUT_PEOE_3>
2.8764389

>  <BCUT_SLOGP_0>
-2.8419936

>  <BCUT_SLOGP_1>
-0.46601784

>  <BCUT_SLOGP_2>
0.66231436

>  <BCUT_SLOGP_3>
2.8400829

>  <BCUT_SMR_0>
-2.5006771

>  <BCUT_SMR_1>
-0.3922618

>  <BCUT_SMR_2>
0.70666742

>  <BCUT_SMR_3>
3.1182778

>  <bpol>
30.685347

>  <b_1rotN>
3

>  <b_1rotR>
0.125

>  <b_ar>
6

>  <b_count>
45

>  <b_double>
2

>  <b_heavy>
24

>  <b_max1len>
2

>  <b_rotN>
5

>  <b_rotR>
0.20833333

>  <b_single>
37

>  <b_triple>
0

>  <chi0>
15.68987

>  <chi0v>
12.897679

>  <chi0v_C>
10.817472

>  <chi0_C>
11.698306

>  <chi1>
10.613392

>  <chi1v>
7.6730771

>  <chi1v_C>
5.2490187

>  <chi1_C>
6.2828231

>  <chiral>
4

>  <chiral_u>
0

>  <density>
0.7374118

>  <diameter>
10

>  <FCharge>
0

>  <GCUT_PEOE_0>
-0.85792422

>  <GCUT_PEOE_1>
-0.38815647

>  <GCUT_PEOE_2>
0.058671121

>  <GCUT_PEOE_3>
2.8586981

>  <GCUT_SLOGP_0>
-0.9601087

>  <GCUT_SLOGP_1>
-0.28301707

>  <GCUT_SLOGP_2>
0.1371516

>  <GCUT_SLOGP_3>
2.8413503

>  <GCUT_SMR_0>
-0.52958304

>  <GCUT_SMR_1>
-0.21605732

>  <GCUT_SMR_2>
0.15692574

>  <GCUT_SMR_3>
3.0833278

>  <Kier1>
16.84375

>  <Kier2>
7.2664361

>  <Kier3>
3.4404707

>  <KierA1>
13.780475

>  <KierA2>
5.8843775

>  <KierA3>
2.7654738

>  <KierFlex>
3.6858871

>  <lip_acc>
5

>  <lip_don>
0

>  <lip_druglike>
1

>  <lip_violation>
0

>  <logP(o/w)>
2.4230001

>  <logS>
-2.7321401

>  <mr>
8.2987661

>  <mutagenic>
0

>  <nmol>
1

>  <opr_brigid>
15

>  <opr_leadlike>
1

>  <opr_nring>
3

>  <opr_nrot>
6

>  <opr_violation>
0

>  <PC+>
0

>  <PC->
0

>  <PEOE_PC+>
1.8218509

>  <PEOE_PC->
-1.8218509

>  <PEOE_RPC+>
0.16142128

>  <PEOE_RPC->
0.17466296

>  <PEOE_VSA+0>
84.682747

>  <PEOE_VSA+1>
43.293404

>  <PEOE_VSA+2>
0

>  <PEOE_VSA+3>
0

>  <PEOE_VSA+4>
0

>  <PEOE_VSA+5>
29.416998

>  <PEOE_VSA+6>
0

>  <PEOE_VSA-0>
73.85244

>  <PEOE_VSA-1>
36.764713

>  <PEOE_VSA-2>
0

>  <PEOE_VSA-3>
0

>  <PEOE_VSA-4>
0

>  <PEOE_VSA-5>
27.133842

>  <PEOE_VSA-6>
5.0075121

>  <PEOE_VSA_FHYD>
0.79490918

>  <PEOE_VSA_FNEG>
0.47562125

>  <PEOE_VSA_FPNEG>
0.10708372

>  <PEOE_VSA_FPOL>
0.20509084

>  <PEOE_VSA_FPOS>
0.52437878

>  <PEOE_VSA_FPPOS>
0.09800712

>  <PEOE_VSA_HYD>
238.59331

>  <PEOE_VSA_NEG>
142.7585

>  <PEOE_VSA_PNEG>
32.141354

>  <PEOE_VSA_POL>
61.558353

>  <PEOE_VSA_POS>
157.39316

>  <PEOE_VSA_PPOS>
29.416998

>  <petitjean>
0.5

>  <petitjeanSC>
1

>  <Q_PC+>
0

>  <Q_PC->
0

>  <Q_RPC+>
0

>  <Q_RPC->
0

>  <Q_VSA_FHYD>
1

>  <Q_VSA_FNEG>
0

>  <Q_VSA_FPNEG>
0

>  <Q_VSA_FPOL>
0

>  <Q_VSA_FPOS>
1

>  <Q_VSA_FPPOS>
0

>  <Q_VSA_HYD>
300.15164

>  <Q_VSA_NEG>
0

>  <Q_VSA_PNEG>
0

>  <Q_VSA_POL>
0

>  <Q_VSA_POS>
300.15164

>  <Q_VSA_PPOS>
0

>  <radius>
5

>  <reactive>
0

>  <rings>
3

>  <RPC+>
0

>  <RPC->
0

>  <rsynth>
1

>  <SlogP>
1.8677

>  <SlogP_VSA0>
0

>  <SlogP_VSA1>
18.615242

>  <SlogP_VSA2>
60.294579

>  <SlogP_VSA3>
0

>  <SlogP_VSA4>
31.458588

>  <SlogP_VSA5>
68.281059

>  <SlogP_VSA6>
0

>  <SlogP_VSA7>
88.215919

>  <SlogP_VSA8>
56.605217

>  <SlogP_VSA9>
0

>  <SMR>
8.0341501

>  <SMR_VSA0>
69.724205

>  <SMR_VSA1>
3.1243138

>  <SMR_VSA2>
4.4107962

>  <SMR_VSA3>
17.618162

>  <SMR_VSA4>
0

>  <SMR_VSA5>
144.82114

>  <SMR_VSA6>
15.490929

>  <SMR_VSA7>
68.281059

>  <TPSA>
55.84

>  <VAdjEq>
0.46637034

>  <VAdjMa>
5.5849624

>  <VDistEq>
3.1320431

>  <VDistMa>
8.6429224

>  <vdw_area>
300.15164

>  <vdw_vol>
411.38205

>  <vsa_acc>
27.133842

>  <vsa_acid>
0

>  <vsa_base>
0

>  <vsa_don>
0

>  <vsa_hyd>
222.30055

>  <vsa_other>
34.424511

>  <vsa_pol>
27.133842

>  <Weight>
303.358

>  <weinerPath>
1021

>  <weinerPol>
36

>  <zagreb>
116

$$$$