O1c2c(C(=O)C=C1C(O)=O)c(OCC(O)COc1c3c(OC(=CC3=O)C(O)=O)ccc1)ccc2
  MOE2013           2D

 34 37  0  0  0  0  0  0  0  0999 V2000
    0.0000    0.0000    0.0000 O   0  0  0  0  0  0  0  0  0  0  0  0
    1.2990   -0.7500    0.0000 C   0  0  0  0  0  0  0  0  0  0  0  0
    2.5980    0.0000    0.0000 C   0  0  0  0  0  0  0  0  0  0  0  0
    2.5980    1.5000    0.0000 C   0  0  0  0  0  0  0  0  0  0  0  0
    3.8970    2.2500    0.0000 O   0  0  0  0  0  0  0  0  0  0  0  0
    1.2990    2.2500    0.0000 C   0  0  0  0  0  0  0  0  0  0  0  0
    0.0000    1.5000    0.0000 C   0  0  0  0  0  0  0  0  0  0  0  0
   -1.2990    2.2500    0.0000 C   0  0  0  0  0  0  0  0  0  0  0  0
   -2.5980    1.5000    0.0000 O   0  0  0  0  0  0  0  0  0  0  0  0
   -1.2990    3.7500    0.0000 O   0  0  0  0  0  0  0  0  0  0  0  0
    3.8970   -0.7500    0.0000 C   0  0  0  0  0  0  0  0  0  0  0  0
    5.1960    0.0000    0.0000 O   0  0  0  0  0  0  0  0  0  0  0  0
    6.4950   -0.7500    0.0000 C   0  0  0  0  0  0  0  0  0  0  0  0
    7.7940    0.0000    0.0000 C   0  0  0  0  0  0  0  0  0  0  0  0
    7.7940    1.5000    0.0000 O   0  0  0  0  0  0  0  0  0  0  0  0
    9.0930   -0.7500    0.0000 C   0  0  0  0  0  0  0  0  0  0  0  0
   10.3920    0.0000    0.0000 O   0  0  0  0  0  0  0  0  0  0  0  0
   11.6910   -0.7500    0.0000 C   0  0  0  0  0  0  0  0  0  0  0  0
   12.9900    0.0000    0.0000 C   0  0  0  0  0  0  0  0  0  0  0  0
   14.2890   -0.7500    0.0000 C   0  0  0  0  0  0  0  0  0  0  0  0
   15.5880    0.0000    0.0000 O   0  0  0  0  0  0  0  0  0  0  0  0
   15.5880    1.5000    0.0000 C   0  0  0  0  0  0  0  0  0  0  0  0
   14.2890    2.2500    0.0000 C   0  0  0  0  0  0  0  0  0  0  0  0
   12.9900    1.5000    0.0000 C   0  0  0  0  0  0  0  0  0  0  0  0
   11.6910    2.2500    0.0000 O   0  0  0  0  0  0  0  0  0  0  0  0
   16.8870    2.2500    0.0000 C   0  0  0  0  0  0  0  0  0  0  0  0
   16.8870    3.7500    0.0000 O   0  0  0  0  0  0  0  0  0  0  0  0
   18.1870    1.5000    0.0000 O   0  0  0  0  0  0  0  0  0  0  0  0
   14.2890   -2.2500    0.0000 C   0  0  0  0  0  0  0  0  0  0  0  0
   12.9900   -3.0000    0.0000 C   0  0  0  0  0  0  0  0  0  0  0  0
   11.6910   -2.2500    0.0000 C   0  0  0  0  0  0  0  0  0  0  0  0
    3.8970   -2.2500    0.0000 C   0  0  0  0  0  0  0  0  0  0  0  0
    2.5980   -3.0000    0.0000 C   0  0  0  0  0  0  0  0  0  0  0  0
    1.2990   -2.2500    0.0000 C   0  0  0  0  0  0  0  0  0  0  0  0
  1  2  1  0  0  0  0
  1  7  1  0  0  0  0
  2  3  1  0  0  0  0
  2 34  2  0  0  0  0
  3  4  1  0  0  0  0
  3 11  2  0  0  0  0
  4  5  2  0  0  0  0
  4  6  1  0  0  0  0
  6  7  2  0  0  0  0
  7  8  1  0  0  0  0
  8  9  1  0  0  0  0
  8 10  2  0  0  0  0
 11 12  1  0  0  0  0
 11 32  1  0  0  0  0
 12 13  1  0  0  0  0
 13 14  1  0  0  0  0
 14 15  1  0  0  0  0
 14 16  1  0  0  0  0
 16 17  1  0  0  0  0
 17 18  1  0  0  0  0
 18 19  1  0  0  0  0
 18 31  2  0  0  0  0
 19 20  2  0  0  0  0
 19 24  1  0  0  0  0
 20 21  1  0  0  0  0
 20 29  1  0  0  0  0
 21 22  1  0  0  0  0
 22 23  2  0  0  0  0
 22 26  1  0  0  0  0
 23 24  1  0  0  0  0
 24 25  2  0  0  0  0
 26 27  1  0  0  0  0
 26 28  2  0  0  0  0
 29 30  2  0  0  0  0
 30 31  1  0  0  0  0
 32 33  2  0  0  0  0
 33 34  1  0  0  0  0
M  END
>  <Index>
264

>  <ID>
HT0557

>  <class>
0

>  <apol>
59.970688

>  <ast_fraglike>
0

>  <ast_fraglike_ext>
0

>  <ast_violation>
3

>  <ast_violation_ext>
5

>  <a_acc>
9

>  <a_acid>
0

>  <a_aro>
12

>  <a_base>
0

>  <a_count>
50

>  <a_don>
5

>  <a_donacc>
14

>  <a_heavy>
34

>  <a_hyd>
19

>  <a_IC>
76.097137

>  <a_ICM>
1.5219427

>  <a_nB>
0

>  <a_nBr>
0

>  <a_nC>
23

>  <a_nCl>
0

>  <a_nF>
0

>  <a_nH>
16

>  <a_nI>
0

>  <a_nN>
0

>  <a_nO>
11

>  <a_nP>
0

>  <a_nS>
0

>  <balabanJ>
1.2479298

>  <BCUT_PEOE_0>
-2.5167823

>  <BCUT_PEOE_1>
-0.61348563

>  <BCUT_PEOE_2>
0.63695586

>  <BCUT_PEOE_3>
2.5475264

>  <BCUT_SLOGP_0>
-2.6845853

>  <BCUT_SLOGP_1>
-0.56480432

>  <BCUT_SLOGP_2>
0.70069361

>  <BCUT_SLOGP_3>
2.4671931

>  <BCUT_SMR_0>
-2.2981112

>  <BCUT_SMR_1>
-0.43266156

>  <BCUT_SMR_2>
0.78908521

>  <BCUT_SMR_3>
2.7566764

>  <bpol>
28.987312

>  <b_1rotN>
8

>  <b_1rotR>
0.21621622

>  <b_ar>
12

>  <b_count>
53

>  <b_double>
6

>  <b_heavy>
37

>  <b_max1len>
4

>  <b_rotN>
8

>  <b_rotR>
0.21621622

>  <b_single>
35

>  <b_triple>
0

>  <chi0>
24.405048

>  <chi0v>
17.217993

>  <chi0v_C>
12.610366

>  <chi0_C>
14.576621

>  <chi1>
16.240091

>  <chi1v>
9.7832355

>  <chi1v_C>
6.4592309

>  <chi1_C>
8.7491493

>  <chiral>
0

>  <chiral_u>
0

>  <density>
0.85798281

>  <diameter>
18

>  <FCharge>
0

>  <GCUT_PEOE_0>
-0.78461671

>  <GCUT_PEOE_1>
-0.48807186

>  <GCUT_PEOE_2>
0.1003221

>  <GCUT_PEOE_3>
2.5711575

>  <GCUT_SLOGP_0>
-0.95290941

>  <GCUT_SLOGP_1>
-0.41578189

>  <GCUT_SLOGP_2>
0.14311087

>  <GCUT_SLOGP_3>
2.6295707

>  <GCUT_SMR_0>
-0.52021366

>  <GCUT_SMR_1>
-0.24597506

>  <GCUT_SMR_2>
0.22482634

>  <GCUT_SMR_3>
2.8321433

>  <Kier1>
27.046019

>  <Kier2>
12.029903

>  <Kier3>
6.4783673

>  <KierA1>
19.820536

>  <KierA2>
8.7270193

>  <KierA3>
4.6662288

>  <KierFlex>
5.0874763

>  <lip_acc>
11

>  <lip_don>
3

>  <lip_druglike>
1

>  <lip_violation>
1

>  <logP(o/w)>
1.251

>  <logS>
-5.8605399

>  <mr>
11.187133

>  <mutagenic>
0

>  <nmol>
1

>  <opr_brigid>
22

>  <opr_leadlike>
0

>  <opr_nring>
4

>  <opr_nrot>
8

>  <opr_violation>
2

>  <PC+>
0

>  <PC->
0

>  <PEOE_PC+>
3.6508591

>  <PEOE_PC->
-3.6508591

>  <PEOE_RPC+>
0.086275741

>  <PEOE_RPC->
0.10605723

>  <PEOE_VSA+0>
24.509808

>  <PEOE_VSA+1>
123.60376

>  <PEOE_VSA+2>
4.9049287

>  <PEOE_VSA+3>
33.834076

>  <PEOE_VSA+4>
30.972517

>  <PEOE_VSA+5>
0

>  <PEOE_VSA+6>
29.416998

>  <PEOE_VSA-0>
49.019615

>  <PEOE_VSA-1>
24.509808

>  <PEOE_VSA-2>
0

>  <PEOE_VSA-3>
0

>  <PEOE_VSA-4>
0

>  <PEOE_VSA-5>
54.267685

>  <PEOE_VSA-6>
33.317646

>  <PEOE_VSA_FHYD>
0.6376335

>  <PEOE_VSA_FNEG>
0.39454404

>  <PEOE_VSA_FPNEG>
0.21448234

>  <PEOE_VSA_FPOL>
0.3623665

>  <PEOE_VSA_FPOS>
0.60545599

>  <PEOE_VSA_FPPOS>
0.14788418

>  <PEOE_VSA_HYD>
260.38199

>  <PEOE_VSA_NEG>
161.11475

>  <PEOE_VSA_PNEG>
87.585327

>  <PEOE_VSA_POL>
147.97484

>  <PEOE_VSA_POS>
247.2421

>  <PEOE_VSA_PPOS>
60.389515

>  <petitjean>
0.5

>  <petitjeanSC>
1

>  <Q_PC+>
0

>  <Q_PC->
0

>  <Q_RPC+>
0

>  <Q_RPC->
0

>  <Q_VSA_FHYD>
1

>  <Q_VSA_FNEG>
0

>  <Q_VSA_FPNEG>
0

>  <Q_VSA_FPOL>
0

>  <Q_VSA_FPOS>
1

>  <Q_VSA_FPPOS>
0

>  <Q_VSA_HYD>
408.35684

>  <Q_VSA_NEG>
0

>  <Q_VSA_PNEG>
0

>  <Q_VSA_POL>
0

>  <Q_VSA_POS>
408.35684

>  <Q_VSA_PPOS>
0

>  <radius>
9

>  <reactive>
0

>  <rings>
4

>  <RPC+>
0

>  <RPC->
0

>  <rsynth>
1

>  <SlogP>
1.5925

>  <SlogP_VSA0>
69.384781

>  <SlogP_VSA1>
26.86615

>  <SlogP_VSA2>
54.193081

>  <SlogP_VSA3>
92.622971

>  <SlogP_VSA4>
54.095581

>  <SlogP_VSA5>
10.486856

>  <SlogP_VSA6>
0

>  <SlogP_VSA7>
141.14548

>  <SlogP_VSA8>
0

>  <SlogP_VSA9>
20.973713

>  <SMR>
11.12354

>  <SMR_VSA0>
95.448868

>  <SMR_VSA1>
69.384781

>  <SMR_VSA2>
50.770454

>  <SMR_VSA3>
44.300369

>  <SMR_VSA4>
0

>  <SMR_VSA5>
141.14548

>  <SMR_VSA6>
68.718666

>  <SMR_VSA7>
0

>  <TPSA>
165.89

>  <VAdjEq>
0.34317648

>  <VAdjMa>
6.2094536

>  <VDistEq>
3.934968

>  <VDistMa>
9.8525724

>  <vdw_area>
408.35684

>  <vdw_vol>
545.89673

>  <vsa_acc>
32.141354

>  <vsa_acid>
0

>  <vsa_base>
0

>  <vsa_don>
0

>  <vsa_hyd>
234.21162

>  <vsa_other>
51.341549

>  <vsa_pol>
99.97596

>  <Weight>
468.37

>  <weinerPath>
3945

>  <weinerPol>
58

>  <zagreb>
180

$$$$