S1[C@@H]2N(C(C(O)=O)=C(C1)CSc1nnnn1CS(O)(=O)=O)C(=O)[C@@H]2NC(=O)[C@@H](O)c1ccccc1
  MOE2013           2D

 35 38  0  0  1  0  0  0  0  0999 V2000
    0.0000    0.0000    0.0000 S   0  0  0  0  0  0  0  0  0  0  0  0
    0.7410    1.3040    0.0000 C   0  0  2  0  0  0  0  0  0  0  0  0
   -0.0180    2.5980    0.0000 N   0  0  0  0  0  0  0  0  0  0  0  0
   -1.5180    2.5880    0.0000 C   0  0  0  0  0  0  0  0  0  0  0  0
   -2.2770    3.8820    0.0000 C   0  0  0  0  0  0  0  0  0  0  0  0
   -3.7770    3.8710    0.0000 O   0  0  0  0  0  0  0  0  0  0  0  0
   -1.5360    5.1860    0.0000 O   0  0  0  0  0  0  0  0  0  0  0  0
   -2.2590    1.2840    0.0000 C   0  0  0  0  0  0  0  0  0  0  0  0
   -1.5000   -0.0100    0.0000 C   0  0  0  0  0  0  0  0  0  0  0  0
   -3.7590    1.2730    0.0000 C   0  0  0  0  0  0  0  0  0  0  0  0
   -4.5000   -0.0310    0.0000 S   0  0  0  0  0  0  0  0  0  0  0  0
   -6.0000   -0.0410    0.0000 C   0  0  0  0  0  0  0  0  0  0  0  0
   -6.8900    1.1660    0.0000 N   0  0  0  0  0  0  0  0  0  0  0  0
   -8.3130    0.6930    0.0000 N   0  0  0  0  0  0  0  0  0  0  0  0
   -8.3030   -0.8070    0.0000 N   0  0  0  0  0  0  0  0  0  0  0  0
   -6.8730   -1.2610    0.0000 N   0  0  0  0  0  0  0  0  0  0  0  0
   -6.4000   -2.6840    0.0000 C   0  0  0  0  0  0  0  0  0  0  0  0
   -7.3960   -3.8060    0.0000 S   0  0  0  0  0  0  0  0  0  0  0  0
   -8.3920   -4.9270    0.0000 O   0  0  0  0  0  0  0  0  0  0  0  0
   -6.2740   -4.8020    0.0000 O   0  0  0  0  0  0  0  0  0  0  0  0
   -8.5180   -2.8100    0.0000 O   0  0  0  0  0  0  0  0  0  0  0  0
    1.2760    3.3570    0.0000 C   0  0  0  0  0  0  0  0  0  0  0  0
    1.6540    4.8080    0.0000 O   0  0  0  0  0  0  0  0  0  0  0  0
    2.0350    2.0630    0.0000 C   0  0  2  0  0  0  0  0  0  0  0  0
    3.4860    1.6850    0.0000 N   0  0  0  0  0  0  0  0  0  0  0  0
    4.5400    2.7530    0.0000 C   0  0  0  0  0  0  0  0  0  0  0  0
    4.1420    4.1990    0.0000 O   0  0  0  0  0  0  0  0  0  0  0  0
    5.9910    2.3740    0.0000 C   0  0  1  0  0  0  0  0  0  0  0  0
    6.3890    0.9280    0.0000 O   0  0  0  0  0  0  0  0  0  0  0  0
    7.0450    3.4420    0.0000 C   0  0  0  0  0  0  0  0  0  0  0  0
    8.4960    3.0640    0.0000 C   0  0  0  0  0  0  0  0  0  0  0  0
    9.5500    4.1320    0.0000 C   0  0  0  0  0  0  0  0  0  0  0  0
    9.1510    5.5780    0.0000 C   0  0  0  0  0  0  0  0  0  0  0  0
    7.7000    5.9560    0.0000 C   0  0  0  0  0  0  0  0  0  0  0  0
    6.6470    4.8880    0.0000 C   0  0  0  0  0  0  0  0  0  0  0  0
  1  9  1  0  0  0  0
  2  1  1  6  0  0  0
  2  3  1  0  0  0  0
  2 24  1  0  0  0  0
  3  4  1  0  0  0  0
  3 22  1  0  0  0  0
  4  5  1  0  0  0  0
  4  8  2  0  0  0  0
  5  6  1  0  0  0  0
  5  7  2  0  0  0  0
  8  9  1  0  0  0  0
  8 10  1  0  0  0  0
 10 11  1  0  0  0  0
 11 12  1  0  0  0  0
 12 13  2  0  0  0  0
 12 16  1  0  0  0  0
 13 14  1  0  0  0  0
 14 15  2  0  0  0  0
 15 16  1  0  0  0  0
 16 17  1  0  0  0  0
 17 18  1  0  0  0  0
 18 19  1  0  0  0  0
 18 20  2  0  0  0  0
 18 21  2  0  0  0  0
 22 23  2  0  0  0  0
 22 24  1  0  0  0  0
 24 25  1  6  0  0  0
 25 26  1  0  0  0  0
 26 27  2  0  0  0  0
 26 28  1  0  0  0  0
 28 29  1  6  0  0  0
 28 30  1  0  0  0  0
 30 31  1  0  0  0  0
 30 35  2  0  0  0  0
 31 32  2  0  0  0  0
 32 33  1  0  0  0  0
 33 34  2  0  0  0  0
 34 35  1  0  0  0  0
M  END
>  <Index>
202

>  <ID>
HT0409

>  <class>
0

>  <apol>
65.398277

>  <ast_fraglike>
0

>  <ast_fraglike_ext>
0

>  <ast_violation>
3

>  <ast_violation_ext>
5

>  <a_acc>
11

>  <a_acid>
0

>  <a_aro>
11

>  <a_base>
0

>  <a_count>
53

>  <a_don>
7

>  <a_donacc>
18

>  <a_heavy>
35

>  <a_hyd>
16

>  <a_IC>
109.19782

>  <a_ICM>
2.0603364

>  <a_nB>
0

>  <a_nBr>
0

>  <a_nC>
18

>  <a_nCl>
0

>  <a_nF>
0

>  <a_nH>
18

>  <a_nI>
0

>  <a_nN>
6

>  <a_nO>
8

>  <a_nP>
0

>  <a_nS>
3

>  <balabanJ>
1.318612

>  <BCUT_PEOE_0>
-2.6884055

>  <BCUT_PEOE_1>
-0.62811184

>  <BCUT_PEOE_2>
0.65943009

>  <BCUT_PEOE_3>
2.7373638

>  <BCUT_SLOGP_0>
-2.8941357

>  <BCUT_SLOGP_1>
-0.58363867

>  <BCUT_SLOGP_2>
0.65806848

>  <BCUT_SLOGP_3>
2.6244593

>  <BCUT_SMR_0>
-2.4031627

>  <BCUT_SMR_1>
-0.47272459

>  <BCUT_SMR_2>
0.82507443

>  <BCUT_SMR_3>
3.020951

>  <bpol>
38.207726

>  <b_1rotN>
9

>  <b_1rotR>
0.23684211

>  <b_ar>
11

>  <b_count>
56

>  <b_double>
4

>  <b_heavy>
38

>  <b_max1len>
4

>  <b_rotN>
10

>  <b_rotR>
0.2631579

>  <b_single>
41

>  <b_triple>
0

>  <chi0>
25.327698

>  <chi0v>
20.033308

>  <chi0v_C>
10.240123

>  <chi0_C>
11.430357

>  <chi1>
16.564369

>  <chi1v>
13.484135

>  <chi1v_C>
4.3171492

>  <chi1_C>
5.6329932

>  <chiral>
3

>  <chiral_u>
0

>  <density>
0.95080161

>  <diameter>
18

>  <FCharge>
0

>  <GCUT_PEOE_0>
-0.8239314

>  <GCUT_PEOE_1>
-0.40368026

>  <GCUT_PEOE_2>
0.090495922

>  <GCUT_PEOE_3>
2.6722982

>  <GCUT_SLOGP_0>
-1.1646

>  <GCUT_SLOGP_1>
-0.49298695

>  <GCUT_SLOGP_2>
0.13241038

>  <GCUT_SLOGP_3>
2.6451445

>  <GCUT_SMR_0>
-0.52911806

>  <GCUT_SMR_1>
-0.22321196

>  <GCUT_SMR_2>
0.22348736

>  <GCUT_SMR_3>
2.9533947

>  <Kier1>
28.01939

>  <Kier2>
11.80676

>  <Kier3>
6.5333085

>  <KierA1>
24.684006

>  <KierA2>
10.360943

>  <KierA3>
5.7171597

>  <KierFlex>
7.3071308

>  <lip_acc>
14

>  <lip_don>
4

>  <lip_druglike>
0

>  <lip_violation>
2

>  <logP(o/w)>
-1.329

>  <logS>
-4.13026

>  <mr>
12.469071

>  <mutagenic>
0

>  <nmol>
1

>  <opr_brigid>
20

>  <opr_leadlike>
0

>  <opr_nring>
4

>  <opr_nrot>
9

>  <opr_violation>
2

>  <PC+>
0

>  <PC->
0

>  <PEOE_PC+>
3.7068789

>  <PEOE_PC->
-3.7068789

>  <PEOE_RPC+>
0.083072133

>  <PEOE_RPC->
0.10188291

>  <PEOE_VSA+0>
38.416294

>  <PEOE_VSA+1>
55.960045

>  <PEOE_VSA+2>
14.967534

>  <PEOE_VSA+3>
22.054714

>  <PEOE_VSA+4>
33.814968

>  <PEOE_VSA+5>
25.899061

>  <PEOE_VSA+6>
29.876886

>  <PEOE_VSA-0>
30.736086

>  <PEOE_VSA-1>
81.035141

>  <PEOE_VSA-2>
29.181658

>  <PEOE_VSA-3>
0

>  <PEOE_VSA-4>
32.016521

>  <PEOE_VSA-5>
40.700764

>  <PEOE_VSA-6>
25.880852

>  <PEOE_VSA_FHYD>
0.5913735

>  <PEOE_VSA_FNEG>
0.52015185

>  <PEOE_VSA_FPNEG>
0.21409221

>  <PEOE_VSA_FPOL>
0.4086265

>  <PEOE_VSA_FPOS>
0.47984812

>  <PEOE_VSA_FPPOS>
0.19453427

>  <PEOE_VSA_HYD>
272.35147

>  <PEOE_VSA_NEG>
239.55103

>  <PEOE_VSA_PNEG>
98.598137

>  <PEOE_VSA_POL>
188.18906

>  <PEOE_VSA_POS>
220.9895

>  <PEOE_VSA_PPOS>
89.590919

>  <petitjean>
0.5

>  <petitjeanSC>
1

>  <Q_PC+>
0

>  <Q_PC->
0

>  <Q_RPC+>
0

>  <Q_RPC->
0

>  <Q_VSA_FHYD>
1

>  <Q_VSA_FNEG>
0

>  <Q_VSA_FPNEG>
0

>  <Q_VSA_FPOL>
0

>  <Q_VSA_FPOS>
1

>  <Q_VSA_FPPOS>
0

>  <Q_VSA_HYD>
460.54053

>  <Q_VSA_NEG>
0

>  <Q_VSA_PNEG>
0

>  <Q_VSA_POL>
0

>  <Q_VSA_POS>
460.54053

>  <Q_VSA_PPOS>
0

>  <radius>
9

>  <reactive>
0

>  <rings>
4

>  <RPC+>
0

>  <RPC->
0

>  <rsynth>
0.5714286

>  <SlogP>
-1.1210999

>  <SlogP_VSA0>
66.326729

>  <SlogP_VSA1>
121.07958

>  <SlogP_VSA2>
86.498894

>  <SlogP_VSA3>
59.852356

>  <SlogP_VSA4>
3.185575

>  <SlogP_VSA5>
6.6354017

>  <SlogP_VSA6>
0

>  <SlogP_VSA7>
88.215919

>  <SlogP_VSA8>
6.4686494

>  <SlogP_VSA9>
81.24382

>  <SMR>
12.10839

>  <SMR_VSA0>
119.75834

>  <SMR_VSA1>
102.96084

>  <SMR_VSA2>
44.089058

>  <SMR_VSA3>
21.925644

>  <SMR_VSA4>
0

>  <SMR_VSA5>
105.02066

>  <SMR_VSA6>
52.73016

>  <SMR_VSA7>
73.022232

>  <TPSA>
204.91

>  <VAdjEq>
0.33549348

>  <VAdjMa>
6.2479277

>  <VDistEq>
3.9338558

>  <VDistMa>
9.9507036

>  <vdw_area>
460.54053

>  <vdw_vol>
570.64899

>  <vsa_acc>
62.873886

>  <vsa_acid>
0

>  <vsa_base>
0

>  <vsa_don>
5.6825762

>  <vsa_hyd>
211.3587

>  <vsa_other>
65.286972

>  <vsa_pol>
157.28201

>  <Weight>
542.57397

>  <weinerPath>
4144

>  <weinerPol>
54

>  <zagreb>
188

$$$$