ClC(=C(/c1ccc(OCCN(CC)CC)cc1)c1ccccc1)c1ccccc1
  MOE2013           2D

 29 31  0  0  0  0  0  0  0  0999 V2000
    0.0000    0.0000    0.0000 Cl  0  0  0  0  0  0  0  0  0  0  0  0
   -0.7410    1.3040    0.0000 C   0  0  0  0  0  0  0  0  0  0  0  0
    0.0190    2.5980    0.0000 C   0  0  0  0  0  0  0  0  0  0  0  0
    1.5190    2.5870    0.0000 C   0  0  0  0  0  0  0  0  0  0  0  0
    2.2590    1.2830    0.0000 C   0  0  0  0  0  0  0  0  0  0  0  0
    3.7590    1.2720    0.0000 C   0  0  0  0  0  0  0  0  0  0  0  0
    4.5190    2.5650    0.0000 C   0  0  0  0  0  0  0  0  0  0  0  0
    6.0190    2.5540    0.0000 O   0  0  0  0  0  0  0  0  0  0  0  0
    6.7590    1.2500    0.0000 C   0  0  0  0  0  0  0  0  0  0  0  0
    8.2590    1.2390    0.0000 C   0  0  0  0  0  0  0  0  0  0  0  0
    9.0000   -0.0650    0.0000 N   0  0  0  0  0  0  0  0  0  0  0  0
    8.2400   -1.3590    0.0000 C   0  0  0  0  0  0  0  0  0  0  0  0
    8.9810   -2.6630    0.0000 C   0  0  0  0  0  0  0  0  0  0  0  0
   10.5000   -0.0760    0.0000 C   0  0  0  0  0  0  0  0  0  0  0  0
   11.2590    1.2170    0.0000 C   0  0  0  0  0  0  0  0  0  0  0  0
    3.7780    3.8700    0.0000 C   0  0  0  0  0  0  0  0  0  0  0  0
    2.2780    3.8810    0.0000 C   0  0  0  0  0  0  0  0  0  0  0  0
   -0.7220    3.9020    0.0000 C   0  0  0  0  0  0  0  0  0  0  0  0
    0.0380    5.1960    0.0000 C   0  0  0  0  0  0  0  0  0  0  0  0
   -0.7030    6.5000    0.0000 C   0  0  0  0  0  0  0  0  0  0  0  0
   -2.2030    6.5110    0.0000 C   0  0  0  0  0  0  0  0  0  0  0  0
   -2.9620    5.2180    0.0000 C   0  0  0  0  0  0  0  0  0  0  0  0
   -2.2220    3.9130    0.0000 C   0  0  0  0  0  0  0  0  0  0  0  0
   -2.2410    1.3150    0.0000 C   0  0  0  0  0  0  0  0  0  0  0  0
   -3.0000    0.0220    0.0000 C   0  0  0  0  0  0  0  0  0  0  0  0
   -4.5000    0.0330    0.0000 C   0  0  0  0  0  0  0  0  0  0  0  0
   -5.2400    1.3370    0.0000 C   0  0  0  0  0  0  0  0  0  0  0  0
   -4.4810    2.6310    0.0000 C   0  0  0  0  0  0  0  0  0  0  0  0
   -2.9810    2.6200    0.0000 C   0  0  0  0  0  0  0  0  0  0  0  0
  1  2  1  0  0  0  0
  2  3  2  3  0  0  0
  2 24  1  0  0  0  0
  3  4  1  0  0  0  0
  3 18  1  0  0  0  0
  4  5  1  0  0  0  0
  4 17  2  0  0  0  0
  5  6  2  0  0  0  0
  6  7  1  0  0  0  0
  7  8  1  0  0  0  0
  7 16  2  0  0  0  0
  8  9  1  0  0  0  0
  9 10  1  0  0  0  0
 10 11  1  0  0  0  0
 11 12  1  0  0  0  0
 11 14  1  0  0  0  0
 12 13  1  0  0  0  0
 14 15  1  0  0  0  0
 16 17  1  0  0  0  0
 18 19  1  0  0  0  0
 18 23  2  0  0  0  0
 19 20  2  0  0  0  0
 20 21  1  0  0  0  0
 21 22  2  0  0  0  0
 22 23  1  0  0  0  0
 24 25  1  0  0  0  0
 24 29  2  0  0  0  0
 25 26  2  0  0  0  0
 26 27  1  0  0  0  0
 27 28  2  0  0  0  0
 28 29  1  0  0  0  0
M  END
>  <Index>
251

>  <ID>
HT0527

>  <class>
0

>  <apol>
68.512207

>  <ast_fraglike>
0

>  <ast_fraglike_ext>
0

>  <ast_violation>
2

>  <ast_violation_ext>
3

>  <a_acc>
2

>  <a_acid>
0

>  <a_aro>
18

>  <a_base>
0

>  <a_count>
57

>  <a_don>
0

>  <a_donacc>
2

>  <a_heavy>
29

>  <a_hyd>
27

>  <a_IC>
75.657364

>  <a_ICM>
1.3273221

>  <a_nB>
0

>  <a_nBr>
0

>  <a_nC>
26

>  <a_nCl>
1

>  <a_nF>
0

>  <a_nH>
28

>  <a_nI>
0

>  <a_nN>
1

>  <a_nO>
1

>  <a_nP>
0

>  <a_nS>
0

>  <balabanJ>
1.5201284

>  <BCUT_PEOE_0>
-2.6700215

>  <BCUT_PEOE_1>
-0.64419037

>  <BCUT_PEOE_2>
0.6981613

>  <BCUT_PEOE_3>
2.5687163

>  <BCUT_SLOGP_0>
-2.7502944

>  <BCUT_SLOGP_1>
-0.53730035

>  <BCUT_SLOGP_2>
0.80591482

>  <BCUT_SLOGP_3>
2.5231349

>  <BCUT_SMR_0>
-2.3933415

>  <BCUT_SMR_1>
-0.46700093

>  <BCUT_SMR_2>
0.85431087

>  <BCUT_SMR_3>
2.8353016

>  <bpol>
34.925797

>  <b_1rotN>
9

>  <b_1rotR>
0.29032257

>  <b_ar>
18

>  <b_count>
59

>  <b_double>
1

>  <b_heavy>
31

>  <b_max1len>
6

>  <b_rotN>
9

>  <b_rotR>
0.29032257

>  <b_single>
40

>  <b_triple>
0

>  <chi0>
20.47648

>  <chi0v>
17.900686

>  <chi0v_C>
15.911331

>  <chi0_C>
18.192024

>  <chi1>
14.223877

>  <chi1v>
10.565377

>  <chi1v_C>
8.5569477

>  <chi1_C>
11.513534

>  <chiral>
0

>  <chiral_u>
0

>  <density>
0.68475252

>  <diameter>
15

>  <FCharge>
0

>  <GCUT_PEOE_0>
-0.85596716

>  <GCUT_PEOE_1>
-0.38867798

>  <GCUT_PEOE_2>
0.067133687

>  <GCUT_PEOE_3>
2.6214185

>  <GCUT_SLOGP_0>
-0.96165729

>  <GCUT_SLOGP_1>
-0.26386139

>  <GCUT_SLOGP_2>
0.16445385

>  <GCUT_SLOGP_3>
2.7547543

>  <GCUT_SMR_0>
-0.52180988

>  <GCUT_SMR_1>
-0.19729999

>  <GCUT_SMR_2>
0.19305076

>  <GCUT_SMR_3>
2.9179237

>  <Kier1>
23.658689

>  <Kier2>
12.7575

>  <Kier3>
7

>  <KierA1>
18.682489

>  <KierA2>
9.9838428

>  <KierA3>
5.4418135

>  <KierFlex>
6.4318295

>  <lip_acc>
2

>  <lip_don>
0

>  <lip_druglike>
1

>  <lip_violation>
1

>  <logP(o/w)>
7.467

>  <logS>
-6.8431702

>  <mr>
12.415136

>  <mutagenic>
0

>  <nmol>
1

>  <opr_brigid>
19

>  <opr_leadlike>
1

>  <opr_nring>
3

>  <opr_nrot>
9

>  <opr_violation>
1

>  <PC+>
0

>  <PC->
0

>  <PEOE_PC+>
1.6242863

>  <PEOE_PC->
-1.6242863

>  <PEOE_RPC+>
0.046953145

>  <PEOE_RPC->
0.21143572

>  <PEOE_VSA+0>
66.585495

>  <PEOE_VSA+1>
96.175735

>  <PEOE_VSA+2>
0

>  <PEOE_VSA+3>
0

>  <PEOE_VSA+4>
0

>  <PEOE_VSA+5>
0

>  <PEOE_VSA+6>
0

>  <PEOE_VSA-0>
57.520077

>  <PEOE_VSA-1>
214.13615

>  <PEOE_VSA-2>
0

>  <PEOE_VSA-3>
0

>  <PEOE_VSA-4>
0

>  <PEOE_VSA-5>
0

>  <PEOE_VSA-6>
2.503756

>  <PEOE_VSA_FHYD>
0.99426955

>  <PEOE_VSA_FNEG>
0.62748152

>  <PEOE_VSA_FPNEG>
0.005730452

>  <PEOE_VSA_FPOL>
0.005730452

>  <PEOE_VSA_FPOS>
0.37251848

>  <PEOE_VSA_FPPOS>
0

>  <PEOE_VSA_HYD>
434.41745

>  <PEOE_VSA_NEG>
274.15997

>  <PEOE_VSA_PNEG>
2.503756

>  <PEOE_VSA_POL>
2.503756

>  <PEOE_VSA_POS>
162.76123

>  <PEOE_VSA_PPOS>
0

>  <petitjean>
0.46666667

>  <petitjeanSC>
0.875

>  <Q_PC+>
0

>  <Q_PC->
0

>  <Q_RPC+>
0

>  <Q_RPC->
0

>  <Q_VSA_FHYD>
1

>  <Q_VSA_FNEG>
0

>  <Q_VSA_FPNEG>
0

>  <Q_VSA_FPOL>
0

>  <Q_VSA_FPOS>
1

>  <Q_VSA_FPPOS>
0

>  <Q_VSA_HYD>
436.9212

>  <Q_VSA_NEG>
0

>  <Q_VSA_PNEG>
0

>  <Q_VSA_POL>
0

>  <Q_VSA_POS>
436.9212

>  <Q_VSA_PPOS>
0

>  <radius>
8

>  <reactive>
0

>  <rings>
3

>  <RPC+>
0

>  <RPC->
0

>  <rsynth>
1

>  <SlogP>
6.37989

>  <SlogP_VSA0>
10.999887

>  <SlogP_VSA1>
3.1243138

>  <SlogP_VSA2>
0

>  <SlogP_VSA3>
79.430565

>  <SlogP_VSA4>
9.5567245

>  <SlogP_VSA5>
0

>  <SlogP_VSA6>
0

>  <SlogP_VSA7>
250.50519

>  <SlogP_VSA8>
0

>  <SlogP_VSA9>
111.04411

>  <SMR>
12.3316

>  <SMR_VSA0>
0

>  <SMR_VSA1>
14.124202

>  <SMR_VSA2>
3.185575

>  <SMR_VSA3>
14.800153

>  <SMR_VSA4>
3.5006065

>  <SMR_VSA5>
247.00458

>  <SMR_VSA6>
76.244995

>  <SMR_VSA7>
105.80067

>  <TPSA>
12.47

>  <VAdjEq>
0.3796615

>  <VAdjMa>
5.9541965

>  <VDistEq>
3.7034278

>  <VDistMa>
9.4106607

>  <vdw_area>
436.9212

>  <vdw_vol>
592.86963

>  <vsa_acc>
2.503756

>  <vsa_acid>
0

>  <vsa_base>
0

>  <vsa_don>
0

>  <vsa_hyd>
414.48718

>  <vsa_other>
0

>  <vsa_pol>
2.503756

>  <Weight>
405.96899

>  <weinerPath>
2488

>  <weinerPol>
43

>  <zagreb>
142

$$$$