O1CCc2cc(ccc12)CCN1C[C@@H](CC1)C(C(=O)N)(c1ccccc1)c1ccccc1
  MOE2013           2D

 32 36  0  0  1  0  0  0  0  0999 V2000
    0.0000    0.0000    0.0000 O   0  0  0  0  0  0  0  0  0  0  0  0
    0.2410    1.4800    0.0000 C   0  0  0  0  0  0  0  0  0  0  0  0
   -1.0920    2.1670    0.0000 C   0  0  0  0  0  0  0  0  0  0  0  0
   -2.1580    1.1120    0.0000 C   0  0  0  0  0  0  0  0  0  0  0  0
   -3.6550    1.1970    0.0000 C   0  0  0  0  0  0  0  0  0  0  0  0
   -4.4780   -0.0580    0.0000 C   0  0  0  0  0  0  0  0  0  0  0  0
   -3.8030   -1.3970    0.0000 C   0  0  0  0  0  0  0  0  0  0  0  0
   -2.3050   -1.4820    0.0000 C   0  0  0  0  0  0  0  0  0  0  0  0
   -1.4830   -0.2280    0.0000 C   0  0  0  0  0  0  0  0  0  0  0  0
   -5.9750    0.0280    0.0000 C   0  0  0  0  0  0  0  0  0  0  0  0
   -6.7980   -1.2270    0.0000 C   0  0  0  0  0  0  0  0  0  0  0  0
   -8.2950   -1.1410    0.0000 N   0  0  3  0  0  0  0  0  0  0  0  0
   -9.2450   -2.3030    0.0000 C   0  0  0  0  0  0  0  0  0  0  0  0
  -10.6430   -1.7590    0.0000 C   0  0  1  0  0  0  0  0  0  0  0  0
  -10.5570   -0.2610    0.0000 C   0  0  0  0  0  0  0  0  0  0  0  0
   -9.1070    0.1200    0.0000 C   0  0  0  0  0  0  0  0  0  0  0  0
  -11.9040   -2.5700    0.0000 C   0  0  0  0  0  0  0  0  0  0  0  0
  -11.0930   -3.8320    0.0000 C   0  0  0  0  0  0  0  0  0  0  0  0
   -9.5950   -3.7600    0.0000 O   0  0  0  0  0  0  0  0  0  0  0  0
  -11.7800   -5.1650    0.0000 N   0  0  0  0  0  0  0  0  0  0  0  0
  -13.1660   -3.3820    0.0000 C   0  0  0  0  0  0  0  0  0  0  0  0
  -13.0940   -4.8800    0.0000 C   0  0  0  0  0  0  0  0  0  0  0  0
  -14.3560   -5.6910    0.0000 C   0  0  0  0  0  0  0  0  0  0  0  0
  -15.6890   -5.0040    0.0000 C   0  0  0  0  0  0  0  0  0  0  0  0
  -15.7610   -3.5060    0.0000 C   0  0  0  0  0  0  0  0  0  0  0  0
  -14.4990   -2.6950    0.0000 C   0  0  0  0  0  0  0  0  0  0  0  0
  -12.7160   -1.3090    0.0000 C   0  0  0  0  0  0  0  0  0  0  0  0
  -12.0290    0.0250    0.0000 C   0  0  0  0  0  0  0  0  0  0  0  0
  -12.8400    1.2860    0.0000 C   0  0  0  0  0  0  0  0  0  0  0  0
  -14.3380    1.2150    0.0000 C   0  0  0  0  0  0  0  0  0  0  0  0
  -15.0250   -0.1190    0.0000 C   0  0  0  0  0  0  0  0  0  0  0  0
  -14.2140   -1.3800    0.0000 C   0  0  0  0  0  0  0  0  0  0  0  0
  1  2  1  0  0  0  0
  1  9  1  0  0  0  0
  2  3  1  0  0  0  0
  3  4  1  0  0  0  0
  4  5  2  0  0  0  0
  4  9  1  0  0  0  0
  5  6  1  0  0  0  0
  6  7  2  0  0  0  0
  6 10  1  0  0  0  0
  7  8  1  0  0  0  0
  8  9  2  0  0  0  0
 10 11  1  0  0  0  0
 11 12  1  0  0  0  0
 12 13  1  0  0  0  0
 12 16  1  0  0  0  0
 13 14  1  0  0  0  0
 14 15  1  0  0  0  0
 14 17  1  6  0  0  0
 15 16  1  0  0  0  0
 17 18  1  0  0  0  0
 17 21  1  0  0  0  0
 17 27  1  0  0  0  0
 18 19  2  0  0  0  0
 18 20  1  0  0  0  0
 21 22  1  0  0  0  0
 21 26  2  0  0  0  0
 22 23  2  0  0  0  0
 23 24  1  0  0  0  0
 24 25  2  0  0  0  0
 25 26  1  0  0  0  0
 27 28  1  0  0  0  0
 27 32  2  0  0  0  0
 28 29  2  0  0  0  0
 29 30  1  0  0  0  0
 30 31  2  0  0  0  0
 31 32  1  0  0  0  0
M  END
>  <Index>
284

>  <ID>
HT0592

>  <class>
0

>  <apol>
73.087791

>  <ast_fraglike>
0

>  <ast_fraglike_ext>
0

>  <ast_violation>
2

>  <ast_violation_ext>
3

>  <a_acc>
3

>  <a_acid>
0

>  <a_aro>
18

>  <a_base>
0

>  <a_count>
62

>  <a_don>
1

>  <a_donacc>
4

>  <a_heavy>
32

>  <a_hyd>
27

>  <a_IC>
83.347519

>  <a_ICM>
1.3443148

>  <a_nB>
0

>  <a_nBr>
0

>  <a_nC>
28

>  <a_nCl>
0

>  <a_nF>
0

>  <a_nH>
30

>  <a_nI>
0

>  <a_nN>
2

>  <a_nO>
2

>  <a_nP>
0

>  <a_nS>
0

>  <balabanJ>
1.2413001

>  <BCUT_PEOE_0>
-2.6309581

>  <BCUT_PEOE_1>
-0.61809403

>  <BCUT_PEOE_2>
0.62730348

>  <BCUT_PEOE_3>
2.7790051

>  <BCUT_SLOGP_0>
-2.7258358

>  <BCUT_SLOGP_1>
-0.52039087

>  <BCUT_SLOGP_2>
0.70518345

>  <BCUT_SLOGP_3>
2.7476194

>  <BCUT_SMR_0>
-2.3761084

>  <BCUT_SMR_1>
-0.45762247

>  <BCUT_SMR_2>
0.77448899

>  <BCUT_SMR_3>
3.0379763

>  <bpol>
36.990211

>  <b_1rotN>
7

>  <b_1rotR>
0.19444445

>  <b_ar>
18

>  <b_count>
66

>  <b_double>
1

>  <b_heavy>
36

>  <b_max1len>
3

>  <b_rotN>
7

>  <b_rotR>
0.19444445

>  <b_single>
47

>  <b_triple>
0

>  <chi0>
21.968044

>  <chi0v>
18.373713

>  <chi0v_C>
16.532652

>  <chi0_C>
18.683588

>  <chi1>
15.674707

>  <chi1v>
11.555962

>  <chi1v_C>
9.6216793

>  <chi1_C>
12.387013

>  <chiral>
1

>  <chiral_u>
0

>  <density>
0.68829775

>  <diameter>
14

>  <FCharge>
0

>  <GCUT_PEOE_0>
-0.86256117

>  <GCUT_PEOE_1>
-0.3897036

>  <GCUT_PEOE_2>
0.072904877

>  <GCUT_PEOE_3>
3.0066018

>  <GCUT_SLOGP_0>
-1.3706772

>  <GCUT_SLOGP_1>
-0.30383936

>  <GCUT_SLOGP_2>
0.14126509

>  <GCUT_SLOGP_3>
3.0427914

>  <GCUT_SMR_0>
-0.5273481

>  <GCUT_SMR_1>
-0.21104144

>  <GCUT_SMR_2>
0.18255359

>  <GCUT_SMR_3>
3.2678182

>  <Kier1>
23.728395

>  <Kier2>
10.726644

>  <Kier3>
4.8977294

>  <KierA1>
17.898607

>  <KierA2>
8.0125942

>  <KierA3>
3.633358

>  <KierFlex>
4.4816961

>  <lip_acc>
4

>  <lip_don>
2

>  <lip_druglike>
1

>  <lip_violation>
0

>  <logP(o/w)>
5.1040001

>  <logS>
-5.60394

>  <mr>
12.836032

>  <mutagenic>
0

>  <nmol>
1

>  <opr_brigid>
27

>  <opr_leadlike>
1

>  <opr_nring>
5

>  <opr_nrot>
8

>  <opr_violation>
1

>  <PC+>
0

>  <PC->
0

>  <PEOE_PC+>
2.1973286

>  <PEOE_PC->
-2.1973286

>  <PEOE_RPC+>
0.10632404

>  <PEOE_RPC->
0.16785035

>  <PEOE_VSA+0>
81.834671

>  <PEOE_VSA+1>
87.390602

>  <PEOE_VSA+2>
0

>  <PEOE_VSA+3>
17.238026

>  <PEOE_VSA+4>
12.949531

>  <PEOE_VSA+5>
0

>  <PEOE_VSA+6>
0

>  <PEOE_VSA-0>
60.385326

>  <PEOE_VSA-1>
147.05885

>  <PEOE_VSA-2>
0

>  <PEOE_VSA-3>
0

>  <PEOE_VSA-4>
0

>  <PEOE_VSA-5>
13.566921

>  <PEOE_VSA-6>
9.1548758

>  <PEOE_VSA_FHYD>
0.91696209

>  <PEOE_VSA_FNEG>
0.53579456

>  <PEOE_VSA_FPNEG>
0.052893199

>  <PEOE_VSA_FPOL>
0.083037913

>  <PEOE_VSA_FPOS>
0.46420547

>  <PEOE_VSA_FPPOS>
0.030144716

>  <PEOE_VSA_HYD>
393.90747

>  <PEOE_VSA_NEG>
230.16597

>  <PEOE_VSA_PNEG>
22.721796

>  <PEOE_VSA_POL>
35.671326

>  <PEOE_VSA_POS>
199.41283

>  <PEOE_VSA_PPOS>
12.949531

>  <petitjean>
0.5

>  <petitjeanSC>
1

>  <Q_PC+>
0

>  <Q_PC->
0

>  <Q_RPC+>
0

>  <Q_RPC->
0

>  <Q_VSA_FHYD>
1

>  <Q_VSA_FNEG>
0

>  <Q_VSA_FPNEG>
0

>  <Q_VSA_FPOL>
0

>  <Q_VSA_FPOS>
1

>  <Q_VSA_FPPOS>
0

>  <Q_VSA_HYD>
429.5788

>  <Q_VSA_NEG>
0

>  <Q_VSA_PNEG>
0

>  <Q_VSA_POL>
0

>  <Q_VSA_POS>
429.5788

>  <Q_VSA_PPOS>
0

>  <radius>
7

>  <reactive>
0

>  <rings>
5

>  <RPC+>
0

>  <RPC->
0

>  <rsynth>
1

>  <SlogP>
3.9574399

>  <SlogP_VSA0>
43.897076

>  <SlogP_VSA1>
8.3830976

>  <SlogP_VSA2>
23.862217

>  <SlogP_VSA3>
76.244995

>  <SlogP_VSA4>
17.153095

>  <SlogP_VSA5>
37.736813

>  <SlogP_VSA6>
0

>  <SlogP_VSA7>
229.36139

>  <SlogP_VSA8>
18.868406

>  <SlogP_VSA9>
5.2434282

>  <SMR>
12.67504

>  <SMR_VSA0>
23.862217

>  <SMR_VSA1>
14.124202

>  <SMR_VSA2>
4.4107962

>  <SMR_VSA3>
17.985727

>  <SMR_VSA4>
32.897186

>  <SMR_VSA5>
285.96661

>  <SMR_VSA6>
81.503777

>  <SMR_VSA7>
0

>  <TPSA>
55.560001

>  <VAdjEq>
0.36708876

>  <VAdjMa>
6.1699252

>  <VDistEq>
3.6374164

>  <VDistMa>
9.7078161

>  <vdw_area>
429.5788

>  <vdw_vol>
619.73175

>  <vsa_acc>
16.070677

>  <vsa_acid>
0

>  <vsa_base>
0

>  <vsa_don>
17.742489

>  <vsa_hyd>
355.39413

>  <vsa_other>
12.949531

>  <vsa_pol>
33.813168

>  <Weight>
426.56

>  <weinerPath>
2965

>  <weinerPol>
54

>  <zagreb>
174

$$$$