N1CCN=C1C1CC1(c1ccccc1)c1ccccc1
  MOE2013           2D

 20 23  0  0  1  0  0  0  0  0999 V2000
    0.0000    0.0000    0.0000 N   0  0  0  0  0  0  0  0  0  0  0  0
   -1.3560   -0.6410    0.0000 C   0  0  0  0  0  0  0  0  0  0  0  0
   -1.1660   -2.1280    0.0000 C   0  0  0  0  0  0  0  0  0  0  0  0
    0.3080   -2.4070    0.0000 N   0  0  0  0  0  0  0  0  0  0  0  0
    1.0280   -1.0920    0.0000 C   0  0  0  0  0  0  0  0  0  0  0  0
    2.5160   -0.9020    0.0000 C   0  0  3  0  0  0  0  0  0  0  0  0
    3.9000   -1.4810    0.0000 C   0  0  0  0  0  0  0  0  0  0  0  0
    3.7100    0.0070    0.0000 C   0  0  0  0  0  0  0  0  0  0  0  0
    3.3270    1.4570    0.0000 C   0  0  0  0  0  0  0  0  0  0  0  0
    4.3920    2.5140    0.0000 C   0  0  0  0  0  0  0  0  0  0  0  0
    4.0090    3.9640    0.0000 C   0  0  0  0  0  0  0  0  0  0  0  0
    2.5620    4.3580    0.0000 C   0  0  0  0  0  0  0  0  0  0  0  0
    1.4970    3.3010    0.0000 C   0  0  0  0  0  0  0  0  0  0  0  0
    1.8800    1.8510    0.0000 C   0  0  0  0  0  0  0  0  0  0  0  0
    5.0120    0.7520    0.0000 C   0  0  0  0  0  0  0  0  0  0  0  0
    6.3080   -0.0030    0.0000 C   0  0  0  0  0  0  0  0  0  0  0  0
    7.6100    0.7420    0.0000 C   0  0  0  0  0  0  0  0  0  0  0  0
    7.6160    2.2420    0.0000 C   0  0  0  0  0  0  0  0  0  0  0  0
    6.3190    2.9970    0.0000 C   0  0  0  0  0  0  0  0  0  0  0  0
    5.0170    2.2520    0.0000 C   0  0  0  0  0  0  0  0  0  0  0  0
  1  2  1  0  0  0  0
  1  5  1  0  0  0  0
  2  3  1  0  0  0  0
  3  4  1  0  0  0  0
  4  5  2  0  0  0  0
  5  6  1  0  0  0  0
  6  7  1  0  0  0  0
  6  8  1  0  0  0  0
  7  8  1  0  0  0  0
  8  9  1  0  0  0  0
  8 15  1  0  0  0  0
  9 10  1  0  0  0  0
  9 14  2  0  0  0  0
 10 11  2  0  0  0  0
 11 12  1  0  0  0  0
 12 13  2  0  0  0  0
 13 14  1  0  0  0  0
 15 16  1  0  0  0  0
 15 20  2  0  0  0  0
 16 17  2  0  0  0  0
 17 18  1  0  0  0  0
 18 19  2  0  0  0  0
 19 20  1  0  0  0  0
M  END
>  <Index>
225

>  <ID>
HT0478

>  <class>
0

>  <apol>
45.882275

>  <ast_fraglike>
1

>  <ast_fraglike_ext>
1

>  <ast_violation>
0

>  <ast_violation_ext>
0

>  <a_acc>
1

>  <a_acid>
0

>  <a_aro>
12

>  <a_base>
0

>  <a_count>
38

>  <a_don>
1

>  <a_donacc>
2

>  <a_heavy>
20

>  <a_hyd>
17

>  <a_IC>
47.303944

>  <a_ICM>
1.2448406

>  <a_nB>
0

>  <a_nBr>
0

>  <a_nC>
18

>  <a_nCl>
0

>  <a_nF>
0

>  <a_nH>
18

>  <a_nI>
0

>  <a_nN>
2

>  <a_nO>
0

>  <a_nP>
0

>  <a_nS>
0

>  <balabanJ>
1.534917

>  <BCUT_PEOE_0>
-2.4050925

>  <BCUT_PEOE_1>
-0.62728381

>  <BCUT_PEOE_2>
0.69008201

>  <BCUT_PEOE_3>
2.8342433

>  <BCUT_SLOGP_0>
-2.6075473

>  <BCUT_SLOGP_1>
-0.52992022

>  <BCUT_SLOGP_2>
0.78448665

>  <BCUT_SLOGP_3>
2.8485656

>  <BCUT_SMR_0>
-2.1332705

>  <BCUT_SMR_1>
-0.47614825

>  <BCUT_SMR_2>
0.84851712

>  <BCUT_SMR_3>
3.0963688

>  <bpol>
21.657726

>  <b_1rotN>
3

>  <b_1rotR>
0.13043478

>  <b_ar>
12

>  <b_count>
41

>  <b_double>
1

>  <b_heavy>
23

>  <b_max1len>
2

>  <b_rotN>
3

>  <b_rotR>
0.13043478

>  <b_single>
28

>  <b_triple>
0

>  <chi0>
13.416003

>  <chi0v>
11.419387

>  <chi0v_C>
10.472174

>  <chi0_C>
12.001789

>  <chi1>
9.9106503

>  <chi1v>
7.3039069

>  <chi1v_C>
6.1605191

>  <chi1_C>
8.0941534

>  <chiral>
1

>  <chiral_u>
1

>  <density>
0.67553842

>  <diameter>
8

>  <FCharge>
0

>  <GCUT_PEOE_0>
-0.86333454

>  <GCUT_PEOE_1>
-0.38981479

>  <GCUT_PEOE_2>
0.074116863

>  <GCUT_PEOE_3>
2.676239

>  <GCUT_SLOGP_0>
-1.1663239

>  <GCUT_SLOGP_1>
-0.27010021

>  <GCUT_SLOGP_2>
0.15730329

>  <GCUT_SLOGP_3>
2.7490027

>  <GCUT_SMR_0>
-0.50484949

>  <GCUT_SMR_1>
-0.21573952

>  <GCUT_SMR_2>
0.1898703

>  <GCUT_SMR_3>
2.962219

>  <Kier1>
13.648394

>  <Kier2>
5.6528926

>  <Kier3>
2.2032001

>  <KierA1>
9.7826405

>  <KierA2>
3.9743288

>  <KierA3>
1.527185

>  <KierFlex>
1.9439715

>  <lip_acc>
2

>  <lip_don>
1

>  <lip_druglike>
1

>  <lip_violation>
0

>  <logP(o/w)>
3.4979999

>  <logS>
-3.4602001

>  <mr>
8.1369238

>  <mutagenic>
0

>  <nmol>
1

>  <opr_brigid>
20

>  <opr_leadlike>
1

>  <opr_nring>
4

>  <opr_nrot>
3

>  <opr_violation>
0

>  <PC+>
0

>  <PC->
0

>  <PEOE_PC+>
1.3410908

>  <PEOE_PC->
-1.3410908

>  <PEOE_RPC+>
0.11990419

>  <PEOE_RPC->
0.27687365

>  <PEOE_VSA+0>
25.988483

>  <PEOE_VSA+1>
72.90773

>  <PEOE_VSA+2>
11.190562

>  <PEOE_VSA+3>
8.6190128

>  <PEOE_VSA+4>
0

>  <PEOE_VSA+5>
0

>  <PEOE_VSA+6>
0

>  <PEOE_VSA-0>
13.118393

>  <PEOE_VSA-1>
122.54904

>  <PEOE_VSA-2>
0

>  <PEOE_VSA-3>
0

>  <PEOE_VSA-4>
0

>  <PEOE_VSA-5>
5.6825762

>  <PEOE_VSA-6>
0.13689101

>  <PEOE_VSA_FHYD>
0.97763401

>  <PEOE_VSA_FNEG>
0.54377741

>  <PEOE_VSA_FPNEG>
0.022365991

>  <PEOE_VSA_FPOL>
0.022365991

>  <PEOE_VSA_FPOS>
0.45622262

>  <PEOE_VSA_FPPOS>
0

>  <PEOE_VSA_HYD>
254.37321

>  <PEOE_VSA_NEG>
141.48689

>  <PEOE_VSA_PNEG>
5.8194671

>  <PEOE_VSA_POL>
5.8194671

>  <PEOE_VSA_POS>
118.70579

>  <PEOE_VSA_PPOS>
0

>  <petitjean>
0.5

>  <petitjeanSC>
1

>  <Q_PC+>
0

>  <Q_PC->
0

>  <Q_RPC+>
0

>  <Q_RPC->
0

>  <Q_VSA_FHYD>
1

>  <Q_VSA_FNEG>
0

>  <Q_VSA_FPNEG>
0

>  <Q_VSA_FPOL>
0

>  <Q_VSA_FPOS>
1

>  <Q_VSA_FPPOS>
0

>  <Q_VSA_HYD>
260.19269

>  <Q_VSA_NEG>
0

>  <Q_VSA_PNEG>
0

>  <Q_VSA_POL>
0

>  <Q_VSA_POS>
260.19269

>  <Q_VSA_PPOS>
0

>  <radius>
4

>  <reactive>
0

>  <rings>
4

>  <RPC+>
0

>  <RPC->
0

>  <rsynth>
1

>  <SlogP>
2.9942999

>  <SlogP_VSA0>
18.01075

>  <SlogP_VSA1>
2.3279202

>  <SlogP_VSA2>
0

>  <SlogP_VSA3>
36.879158

>  <SlogP_VSA4>
10.781946

>  <SlogP_VSA5>
16.78553

>  <SlogP_VSA6>
0

>  <SlogP_VSA7>
176.43184

>  <SlogP_VSA8>
18.868406

>  <SlogP_VSA9>
0

>  <SMR>
8.2075701

>  <SMR_VSA0>
0

>  <SMR_VSA1>
16.78553

>  <SMR_VSA2>
22.421547

>  <SMR_VSA3>
6.37115

>  <SMR_VSA4>
0

>  <SMR_VSA5>
195.30025

>  <SMR_VSA6>
39.207077

>  <SMR_VSA7>
0

>  <TPSA>
24.389999

>  <VAdjEq>
0.51481563

>  <VAdjMa>
5.523562

>  <VDistEq>
2.8820143

>  <VDistMa>
8.3840752

>  <vdw_area>
260.19269

>  <vdw_vol>
388.36575

>  <vsa_acc>
5.6825762

>  <vsa_acid>
0

>  <vsa_base>
0

>  <vsa_don>
5.6825762

>  <vsa_hyd>
221.11807

>  <vsa_other>
11.190562

>  <vsa_pol>
11.365152

>  <Weight>
262.35599

>  <weinerPath>
751

>  <weinerPol>
30

>  <zagreb>
112

$$$$