Fc1ccc(cc1)C(=O)CCCN1CCC(N2c3c(NC2=O)cccc3)=CC1
  MOE2013           2D

 28 31  0  0  1  0  0  0  0  0999 V2000
    0.0000    0.0000    0.0000 F   0  0  0  0  0  0  0  0  0  0  0  0
   -1.5000    0.0110    0.0000 C   0  0  0  0  0  0  0  0  0  0  0  0
   -2.2600   -1.2820    0.0000 C   0  0  0  0  0  0  0  0  0  0  0  0
   -3.7600   -1.2710    0.0000 C   0  0  0  0  0  0  0  0  0  0  0  0
   -4.5000    0.0340    0.0000 C   0  0  0  0  0  0  0  0  0  0  0  0
   -3.7400    1.3270    0.0000 C   0  0  0  0  0  0  0  0  0  0  0  0
   -2.2400    1.3160    0.0000 C   0  0  0  0  0  0  0  0  0  0  0  0
   -6.0000    0.0450    0.0000 C   0  0  0  0  0  0  0  0  0  0  0  0
   -6.7600   -1.2480    0.0000 O   0  0  0  0  0  0  0  0  0  0  0  0
   -6.7400    1.3500    0.0000 C   0  0  0  0  0  0  0  0  0  0  0  0
   -8.2400    1.3610    0.0000 C   0  0  0  0  0  0  0  0  0  0  0  0
   -8.9800    2.6650    0.0000 C   0  0  0  0  0  0  0  0  0  0  0  0
  -10.4800    2.6770    0.0000 N   0  0  3  0  0  0  0  0  0  0  0  0
  -11.2200    3.9810    0.0000 C   0  0  0  0  0  0  0  0  0  0  0  0
  -12.7200    3.9930    0.0000 C   0  0  0  0  0  0  0  0  0  0  0  0
  -13.4800    2.6990    0.0000 C   0  0  0  0  0  0  0  0  0  0  0  0
  -14.9800    2.7100    0.0000 N   0  0  0  0  0  0  0  0  0  0  0  0
  -15.8530    3.9310    0.0000 C   0  0  0  0  0  0  0  0  0  0  0  0
  -17.2830    3.4780    0.0000 C   0  0  0  0  0  0  0  0  0  0  0  0
  -17.2940    1.9780    0.0000 N   0  0  0  0  0  0  0  0  0  0  0  0
  -15.8710    1.5040    0.0000 C   0  0  0  0  0  0  0  0  0  0  0  0
  -15.4180    0.0740    0.0000 O   0  0  0  0  0  0  0  0  0  0  0  0
  -18.3900    4.4900    0.0000 C   0  0  0  0  0  0  0  0  0  0  0  0
  -18.0670    5.9550    0.0000 C   0  0  0  0  0  0  0  0  0  0  0  0
  -16.6370    6.4070    0.0000 C   0  0  0  0  0  0  0  0  0  0  0  0
  -15.5300    5.3950    0.0000 C   0  0  0  0  0  0  0  0  0  0  0  0
  -12.7400    1.3950    0.0000 C   0  0  0  0  0  0  0  0  0  0  0  0
  -11.2400    1.3830    0.0000 C   0  0  0  0  0  0  0  0  0  0  0  0
  1  2  1  0  0  0  0
  2  3  1  0  0  0  0
  2  7  2  0  0  0  0
  3  4  2  0  0  0  0
  4  5  1  0  0  0  0
  5  6  2  0  0  0  0
  5  8  1  0  0  0  0
  6  7  1  0  0  0  0
  8  9  2  0  0  0  0
  8 10  1  0  0  0  0
 10 11  1  0  0  0  0
 11 12  1  0  0  0  0
 12 13  1  0  0  0  0
 13 14  1  0  0  0  0
 13 28  1  0  0  0  0
 14 15  1  0  0  0  0
 15 16  1  0  0  0  0
 16 17  1  0  0  0  0
 16 27  2  0  0  0  0
 17 18  1  0  0  0  0
 17 21  1  0  0  0  0
 18 19  1  0  0  0  0
 18 26  2  0  0  0  0
 19 20  1  0  0  0  0
 19 23  2  0  0  0  0
 20 21  1  0  0  0  0
 21 22  2  0  0  0  0
 23 24  1  0  0  0  0
 24 25  2  0  0  0  0
 25 26  1  0  0  0  0
 27 28  1  0  0  0  0
M  END
>  <Index>
352

>  <ID>
HT0726

>  <class>
0

>  <apol>
58.850445

>  <ast_fraglike>
0

>  <ast_fraglike_ext>
0

>  <ast_violation>
2

>  <ast_violation_ext>
3

>  <a_acc>
3

>  <a_acid>
0

>  <a_aro>
12

>  <a_base>
0

>  <a_count>
50

>  <a_don>
1

>  <a_donacc>
4

>  <a_heavy>
28

>  <a_hyd>
21

>  <a_IC>
79.222931

>  <a_ICM>
1.5844586

>  <a_nB>
0

>  <a_nBr>
0

>  <a_nC>
22

>  <a_nCl>
0

>  <a_nF>
1

>  <a_nH>
22

>  <a_nI>
0

>  <a_nN>
3

>  <a_nO>
2

>  <a_nP>
0

>  <a_nS>
0

>  <balabanJ>
1.1577505

>  <BCUT_PEOE_0>
-2.7052305

>  <BCUT_PEOE_1>
-0.61644012

>  <BCUT_PEOE_2>
0.6599043

>  <BCUT_PEOE_3>
2.6312952

>  <BCUT_SLOGP_0>
-2.7470725

>  <BCUT_SLOGP_1>
-0.50244945

>  <BCUT_SLOGP_2>
0.78316551

>  <BCUT_SLOGP_3>
2.6361344

>  <BCUT_SMR_0>
-2.4246552

>  <BCUT_SMR_1>
-0.46822464

>  <BCUT_SMR_2>
0.81467831

>  <BCUT_SMR_3>
2.9121377

>  <bpol>
31.789555

>  <b_1rotN>
6

>  <b_1rotR>
0.19354838

>  <b_ar>
12

>  <b_count>
53

>  <b_double>
3

>  <b_heavy>
31

>  <b_max1len>
4

>  <b_rotN>
6

>  <b_rotR>
0.19354838

>  <b_single>
38

>  <b_triple>
0

>  <chi0>
19.509861

>  <chi0v>
15.527681

>  <chi0v_C>
12.938793

>  <chi0_C>
14.648053

>  <chi1>
13.614194

>  <chi1v>
9.5194817

>  <chi1v_C>
6.8027477

>  <chi1_C>
8.8409014

>  <chiral>
0

>  <chiral_u>
0

>  <density>
0.74103397

>  <diameter>
17

>  <FCharge>
0

>  <GCUT_PEOE_0>
-0.85253245

>  <GCUT_PEOE_1>
-0.44333223

>  <GCUT_PEOE_2>
0.076604575

>  <GCUT_PEOE_3>
2.7124987

>  <GCUT_SLOGP_0>
-1.0298101

>  <GCUT_SLOGP_1>
-0.30934361

>  <GCUT_SLOGP_2>
0.17829216

>  <GCUT_SLOGP_3>
2.7683518

>  <GCUT_SMR_0>
-0.51986665

>  <GCUT_SMR_1>
-0.20906942

>  <GCUT_SMR_2>
0.18803057

>  <GCUT_SMR_3>
2.984988

>  <Kier1>
21.240376

>  <Kier2>
9.8712816

>  <Kier3>
5.2016006

>  <KierA1>
15.321718

>  <KierA2>
7.0276718

>  <KierA3>
3.6686461

>  <KierFlex>
3.8455718

>  <lip_acc>
5

>  <lip_don>
1

>  <lip_druglike>
1

>  <lip_violation>
0

>  <logP(o/w)>
3.122

>  <logS>
-4.4784999

>  <mr>
10.650059

>  <mutagenic>
0

>  <nmol>
1

>  <opr_brigid>
22

>  <opr_leadlike>
1

>  <opr_nring>
4

>  <opr_nrot>
7

>  <opr_violation>
0

>  <PC+>
0

>  <PC->
0

>  <PEOE_PC+>
2.0362186

>  <PEOE_PC->
-2.0362186

>  <PEOE_RPC+>
0.16296639

>  <PEOE_RPC->
0.15011366

>  <PEOE_VSA+0>
103.88

>  <PEOE_VSA+1>
51.787575

>  <PEOE_VSA+2>
9.0208454

>  <PEOE_VSA+3>
17.077532

>  <PEOE_VSA+4>
0

>  <PEOE_VSA+5>
0

>  <PEOE_VSA+6>
17.440542

>  <PEOE_VSA-0>
95.423065

>  <PEOE_VSA-1>
36.764713

>  <PEOE_VSA-2>
0

>  <PEOE_VSA-3>
0

>  <PEOE_VSA-4>
25.475557

>  <PEOE_VSA-5>
13.566921

>  <PEOE_VSA-6>
0.13689101

>  <PEOE_VSA_FHYD>
0.84721011

>  <PEOE_VSA_FNEG>
0.46243748

>  <PEOE_VSA_FPNEG>
0.10572627

>  <PEOE_VSA_FPOL>
0.15278991

>  <PEOE_VSA_FPOS>
0.53756249

>  <PEOE_VSA_FPPOS>
0.047063634

>  <PEOE_VSA_HYD>
313.95374

>  <PEOE_VSA_NEG>
171.36714

>  <PEOE_VSA_PNEG>
39.179367

>  <PEOE_VSA_POL>
56.619911

>  <PEOE_VSA_POS>
199.2065

>  <PEOE_VSA_PPOS>
17.440542

>  <petitjean>
0.47058824

>  <petitjeanSC>
0.8888889

>  <Q_PC+>
0

>  <Q_PC->
0

>  <Q_RPC+>
0

>  <Q_RPC->
0

>  <Q_VSA_FHYD>
1

>  <Q_VSA_FNEG>
0

>  <Q_VSA_FPNEG>
0

>  <Q_VSA_FPOL>
0

>  <Q_VSA_FPOS>
1

>  <Q_VSA_FPPOS>
0

>  <Q_VSA_HYD>
370.57364

>  <Q_VSA_NEG>
0

>  <Q_VSA_PNEG>
0

>  <Q_VSA_POL>
0

>  <Q_VSA_POS>
370.57364

>  <Q_VSA_PPOS>
0

>  <radius>
9

>  <reactive>
1

>  <rings>
4

>  <RPC+>
0

>  <RPC->
0

>  <rsynth>
1

>  <SlogP>
4.4303002

>  <SlogP_VSA0>
3.1243138

>  <SlogP_VSA1>
31.652632

>  <SlogP_VSA2>
9.1210184

>  <SlogP_VSA3>
55.318733

>  <SlogP_VSA4>
27.047791

>  <SlogP_VSA5>
2.7567475

>  <SlogP_VSA6>
0

>  <SlogP_VSA7>
158.78867

>  <SlogP_VSA8>
56.605217

>  <SlogP_VSA9>
44.335823

>  <SMR>
10.70442

>  <SMR_VSA0>
47.724434

>  <SMR_VSA1>
18.084427

>  <SMR_VSA2>
12.245332

>  <SMR_VSA3>
5.9423227

>  <SMR_VSA4>
23.524246

>  <SMR_VSA5>
215.39388

>  <SMR_VSA6>
65.836304

>  <SMR_VSA7>
0

>  <TPSA>
52.650002

>  <VAdjEq>
0.39893496

>  <VAdjMa>
5.9541965

>  <VDistEq>
3.8398168

>  <VDistMa>
9.2645092

>  <vdw_area>
370.57364

>  <vdw_vol>
512.03455

>  <vsa_acc>
27.133842

>  <vsa_acid>
0

>  <vsa_base>
0

>  <vsa_don>
5.6825762

>  <vsa_hyd>
293.83713

>  <vsa_other>
25.899061

>  <vsa_pol>
32.816418

>  <Weight>
379.435

>  <weinerPath>
2452

>  <weinerPol>
43

>  <zagreb>
148

$$$$