O(C(=O)[C@@H]([C@@H]1NCCCC1)c1ccccc1)C
  MOE2013           2D

 17 18  0  0  1  0  0  0  0  0999 V2000
    0.0000    0.0000    0.0000 O   0  0  0  0  0  0  0  0  0  0  0  0
    1.5000    0.0100    0.0000 C   0  0  0  0  0  0  0  0  0  0  0  0
    2.2410    1.3140    0.0000 O   0  0  0  0  0  0  0  0  0  0  0  0
    2.2590   -1.2840    0.0000 C   0  0  1  0  0  0  0  0  0  0  0  0
    3.7590   -1.2740    0.0000 C   0  0  2  0  0  0  0  0  0  0  0  0
    4.5170   -2.5680    0.0000 N   0  0  0  0  0  0  0  0  0  0  0  0
    6.0170   -2.5580    0.0000 C   0  0  0  0  0  0  0  0  0  0  0  0
    6.7590   -1.2540    0.0000 C   0  0  0  0  0  0  0  0  0  0  0  0
    6.0000    0.0400    0.0000 C   0  0  0  0  0  0  0  0  0  0  0  0
    4.5000    0.0300    0.0000 C   0  0  0  0  0  0  0  0  0  0  0  0
    1.5170   -2.5880    0.0000 C   0  0  0  0  0  0  0  0  0  0  0  0
    0.0170   -2.5980    0.0000 C   0  0  0  0  0  0  0  0  0  0  0  0
   -0.7240   -3.9020    0.0000 C   0  0  0  0  0  0  0  0  0  0  0  0
    0.0350   -5.1960    0.0000 C   0  0  0  0  0  0  0  0  0  0  0  0
    1.5350   -5.1860    0.0000 C   0  0  0  0  0  0  0  0  0  0  0  0
    2.2760   -3.8820    0.0000 C   0  0  0  0  0  0  0  0  0  0  0  0
   -0.7590    1.2940    0.0000 C   0  0  0  0  0  0  0  0  0  0  0  0
  1  2  1  0  0  0  0
  1 17  1  0  0  0  0
  2  3  2  0  0  0  0
  4  2  1  1  0  0  0
  4  5  1  0  0  0  0
  4 11  1  0  0  0  0
  5  6  1  1  0  0  0
  5 10  1  0  0  0  0
  6  7  1  0  0  0  0
  7  8  1  0  0  0  0
  8  9  1  0  0  0  0
  9 10  1  0  0  0  0
 11 12  1  0  0  0  0
 11 16  2  0  0  0  0
 12 13  2  0  0  0  0
 13 14  1  0  0  0  0
 14 15  2  0  0  0  0
 15 16  1  0  0  0  0
M  END
>  <Index>
304

>  <ID>
HT0625

>  <class>
0

>  <apol>
40.013065

>  <ast_fraglike>
1

>  <ast_fraglike_ext>
0

>  <ast_violation>
0

>  <ast_violation_ext>
1

>  <a_acc>
2

>  <a_acid>
0

>  <a_aro>
6

>  <a_base>
0

>  <a_count>
36

>  <a_don>
1

>  <a_donacc>
3

>  <a_heavy>
17

>  <a_hyd>
13

>  <a_IC>
50.10371

>  <a_ICM>
1.3917696

>  <a_nB>
0

>  <a_nBr>
0

>  <a_nC>
14

>  <a_nCl>
0

>  <a_nF>
0

>  <a_nH>
19

>  <a_nI>
0

>  <a_nN>
1

>  <a_nO>
2

>  <a_nP>
0

>  <a_nS>
0

>  <balabanJ>
2.0059097

>  <BCUT_PEOE_0>
-2.7720561

>  <BCUT_PEOE_1>
-0.56318676

>  <BCUT_PEOE_2>
0.62107265

>  <BCUT_PEOE_3>
2.7247615

>  <BCUT_SLOGP_0>
-2.8339815

>  <BCUT_SLOGP_1>
-0.47714716

>  <BCUT_SLOGP_2>
0.68801576

>  <BCUT_SLOGP_3>
2.7489662

>  <BCUT_SMR_0>
-2.5090082

>  <BCUT_SMR_1>
-0.43039197

>  <BCUT_SMR_2>
0.75889522

>  <BCUT_SMR_3>
2.9814229

>  <bpol>
24.304934

>  <b_1rotN>
3

>  <b_1rotR>
0.16666667

>  <b_ar>
6

>  <b_count>
37

>  <b_double>
1

>  <b_heavy>
18

>  <b_max1len>
3

>  <b_rotN>
4

>  <b_rotR>
0.22222222

>  <b_single>
30

>  <b_triple>
0

>  <chi0>
12.087576

>  <chi0v>
10.186376

>  <chi0v_C>
8.8698788

>  <chi0_C>
9.6733618

>  <chi1>
8.3256989

>  <chi1v>
6.1883407

>  <chi1v_C>
4.7296157

>  <chi1_C>
5.7247448

>  <chiral>
2

>  <chiral_u>
0

>  <density>
0.68917912

>  <diameter>
8

>  <FCharge>
0

>  <GCUT_PEOE_0>
-0.84333479

>  <GCUT_PEOE_1>
-0.40036076

>  <GCUT_PEOE_2>
0.066731639

>  <GCUT_PEOE_3>
2.6574323

>  <GCUT_SLOGP_0>
-1.1534605

>  <GCUT_SLOGP_1>
-0.28564942

>  <GCUT_SLOGP_2>
0.14405172

>  <GCUT_SLOGP_3>
2.6936293

>  <GCUT_SMR_0>
-0.52328277

>  <GCUT_SMR_1>
-0.20318988

>  <GCUT_SMR_2>
0.169457

>  <GCUT_SMR_3>
2.9015932

>  <Kier1>
13.432098

>  <Kier2>
6.8052931

>  <Kier3>
3.4844444

>  <KierA1>
10.937944

>  <KierA2>
5.4650183

>  <KierA3>
2.7672687

>  <KierFlex>
3.5162392

>  <lip_acc>
3

>  <lip_don>
1

>  <lip_druglike>
1

>  <lip_violation>
0

>  <logP(o/w)>
2.4960001

>  <logS>
-2.2237301

>  <mr>
6.8745971

>  <mutagenic>
0

>  <nmol>
1

>  <opr_brigid>
12

>  <opr_leadlike>
1

>  <opr_nring>
2

>  <opr_nrot>
5

>  <opr_violation>
0

>  <PC+>
0

>  <PC->
0

>  <PEOE_PC+>
1.3591516

>  <PEOE_PC->
-1.3591516

>  <PEOE_RPC+>
0.19931035

>  <PEOE_RPC->
0.23399012

>  <PEOE_VSA+0>
70.797478

>  <PEOE_VSA+1>
34.123089

>  <PEOE_VSA+2>
8.6190128

>  <PEOE_VSA+3>
0

>  <PEOE_VSA+4>
0

>  <PEOE_VSA+5>
14.708499

>  <PEOE_VSA+6>
0

>  <PEOE_VSA-0>
32.80349

>  <PEOE_VSA-1>
69.97583

>  <PEOE_VSA-2>
0

>  <PEOE_VSA-3>
0

>  <PEOE_VSA-4>
0

>  <PEOE_VSA-5>
13.566921

>  <PEOE_VSA-6>
2.6406472

>  <PEOE_VSA_FHYD>
0.87495267

>  <PEOE_VSA_FNEG>
0.48127046

>  <PEOE_VSA_FPNEG>
0.065555319

>  <PEOE_VSA_FPOL>
0.12504731

>  <PEOE_VSA_FPOS>
0.51872951

>  <PEOE_VSA_FPPOS>
0.059491985

>  <PEOE_VSA_HYD>
216.31891

>  <PEOE_VSA_NEG>
118.98689

>  <PEOE_VSA_PNEG>
16.207567

>  <PEOE_VSA_POL>
30.916067

>  <PEOE_VSA_POS>
128.24808

>  <PEOE_VSA_PPOS>
14.708499

>  <petitjean>
0.5

>  <petitjeanSC>
1

>  <Q_PC+>
0

>  <Q_PC->
0

>  <Q_RPC+>
0

>  <Q_RPC->
0

>  <Q_VSA_FHYD>
1

>  <Q_VSA_FNEG>
0

>  <Q_VSA_FPNEG>
0

>  <Q_VSA_FPOL>
0

>  <Q_VSA_FPOS>
1

>  <Q_VSA_FPPOS>
0

>  <Q_VSA_HYD>
247.23497

>  <Q_VSA_NEG>
0

>  <Q_VSA_PNEG>
0

>  <Q_VSA_POL>
0

>  <Q_VSA_POS>
247.23497

>  <Q_VSA_PPOS>
0

>  <radius>
4

>  <reactive>
0

>  <rings>
2

>  <RPC+>
0

>  <RPC->
0

>  <rsynth>
1

>  <SlogP>
2.0853

>  <SlogP_VSA0>
18.01075

>  <SlogP_VSA1>
7.7454643

>  <SlogP_VSA2>
38.844074

>  <SlogP_VSA3>
18.439579

>  <SlogP_VSA4>
3.185575

>  <SlogP_VSA5>
35.383869

>  <SlogP_VSA6>
4.4107962

>  <SlogP_VSA7>
88.215919

>  <SlogP_VSA8>
56.605217

>  <SlogP_VSA9>
0

>  <SMR>
6.6840701

>  <SMR_VSA0>
34.862103

>  <SMR_VSA1>
0

>  <SMR_VSA2>
18.01075

>  <SMR_VSA3>
11.57834

>  <SMR_VSA4>
0

>  <SMR_VSA5>
144.82114

>  <SMR_VSA6>
26.185041

>  <SMR_VSA7>
35.383869

>  <TPSA>
38.330002

>  <VAdjEq>
0.54234898

>  <VAdjMa>
5.1699252

>  <VDistEq>
2.7585831

>  <VDistMa>
7.9101748

>  <vdw_area>
247.23497

>  <vdw_vol>
338.53464

>  <vsa_acc>
13.566921

>  <vsa_acid>
0

>  <vsa_base>
0

>  <vsa_don>
0

>  <vsa_hyd>
193.54253

>  <vsa_other>
17.212255

>  <vsa_pol>
19.249496

>  <Weight>
233.31099

>  <weinerPath>
498

>  <weinerPol>
24

>  <zagreb>
82

$$$$