Cl[C@H]1[C@@H]2[C@@H]([C@@]3(C(=CC(=O)C=C3)C1)C)[C@@H](O)C[C@]1([C@H]2C[C@@H](C)[C@]1(OC(=O)CC)C(=O)COC(=O)CC)C
  MOE2013           2D

 36 39  0  0  1  0  0  0  0  0999 V2000
    0.0000    0.0000    0.0000 Cl  0  0  0  0  0  0  0  0  0  0  0  0
    0.7610   -1.2930    0.0000 C   0  0  1  0  0  0  0  0  0  0  0  0
    0.0220   -2.5980    0.0000 C   0  0  2  0  0  0  0  0  0  0  0  0
    0.7830   -3.8910    0.0000 C   0  0  1  0  0  0  0  0  0  0  0  0
    2.2830   -3.8780    0.0000 C   0  0  2  0  0  0  0  0  0  0  0  0
    3.0220   -2.5730    0.0000 C   0  0  0  0  0  0  0  0  0  0  0  0
    4.5220   -2.5600    0.0000 C   0  0  0  0  0  0  0  0  0  0  0  0
    5.2830   -3.8530    0.0000 C   0  0  0  0  0  0  0  0  0  0  0  0
    6.7820   -3.8400    0.0000 O   0  0  0  0  0  0  0  0  0  0  0  0
    4.5430   -5.1580    0.0000 C   0  0  0  0  0  0  0  0  0  0  0  0
    3.0440   -5.1710    0.0000 C   0  0  0  0  0  0  0  0  0  0  0  0
    2.2610   -1.2800    0.0000 C   0  0  0  0  0  0  0  0  0  0  0  0
    3.7810   -3.8130    0.0000 C   0  0  0  0  0  0  0  0  0  0  0  0
    0.0440   -5.1960    0.0000 C   0  0  1  0  0  0  0  0  0  0  0  0
    0.8050   -6.4890    0.0000 O   0  0  0  0  0  0  0  0  0  0  0  0
   -1.4560   -5.2090    0.0000 C   0  0  0  0  0  0  0  0  0  0  0  0
   -2.2170   -3.9160    0.0000 C   0  0  1  0  0  0  0  0  0  0  0  0
   -1.4780   -2.6110    0.0000 C   0  0  1  0  0  0  0  0  0  0  0  0
   -2.4910   -1.5040    0.0000 C   0  0  0  0  0  0  0  0  0  0  0  0
   -3.8560   -2.1260    0.0000 C   0  0  1  0  0  0  0  0  0  0  0  0
   -5.0130   -1.1710    0.0000 C   0  0  0  0  0  0  0  0  0  0  0  0
   -3.6870   -3.6160    0.0000 C   0  0  1  0  0  0  0  0  0  0  0  0
   -5.1600   -3.9020    0.0000 O   0  0  0  0  0  0  0  0  0  0  0  0
   -6.1430   -2.7700    0.0000 C   0  0  0  0  0  0  0  0  0  0  0  0
   -5.6540   -1.3520    0.0000 O   0  0  0  0  0  0  0  0  0  0  0  0
   -7.6160   -3.0550    0.0000 C   0  0  0  0  0  0  0  0  0  0  0  0
   -8.5990   -1.9230    0.0000 C   0  0  0  0  0  0  0  0  0  0  0  0
   -4.1010   -5.0580    0.0000 C   0  0  0  0  0  0  0  0  0  0  0  0
   -3.0590   -6.1370    0.0000 O   0  0  0  0  0  0  0  0  0  0  0  0
   -5.5560   -5.4200    0.0000 C   0  0  0  0  0  0  0  0  0  0  0  0
   -5.9700   -6.8620    0.0000 O   0  0  0  0  0  0  0  0  0  0  0  0
   -7.4260   -7.2250    0.0000 C   0  0  0  0  0  0  0  0  0  0  0  0
   -8.4680   -6.1450    0.0000 O   0  0  0  0  0  0  0  0  0  0  0  0
   -7.8400   -8.6660    0.0000 C   0  0  0  0  0  0  0  0  0  0  0  0
   -9.2950   -9.0290    0.0000 C   0  0  0  0  0  0  0  0  0  0  0  0
   -3.1310   -5.1060    0.0000 C   0  0  0  0  0  0  0  0  0  0  0  0
  2  1  1  6  0  0  0
  2 12  1  0  0  0  0
  3  2  1  6  0  0  0
  3  4  1  0  0  0  0
  3 18  1  0  0  0  0
  4  5  1  0  0  0  0
  4 14  1  1  0  0  0
  5  6  1  0  0  0  0
  5 11  1  0  0  0  0
  5 13  1  1  0  0  0
  6  7  2  0  0  0  0
  6 12  1  0  0  0  0
  7  8  1  0  0  0  0
  8  9  2  0  0  0  0
  8 10  1  0  0  0  0
 10 11  2  0  0  0  0
 14 15  1  1  0  0  0
 14 16  1  0  0  0  0
 16 17  1  0  0  0  0
 17 18  1  0  0  0  0
 17 22  1  0  0  0  0
 17 36  1  1  0  0  0
 18 19  1  1  0  0  0
 19 20  1  0  0  0  0
 20 21  1  6  0  0  0
 20 22  1  0  0  0  0
 22 23  1  6  0  0  0
 22 28  1  1  0  0  0
 23 24  1  0  0  0  0
 24 25  2  0  0  0  0
 24 26  1  0  0  0  0
 26 27  1  0  0  0  0
 28 29  2  0  0  0  0
 28 30  1  0  0  0  0
 30 31  1  0  0  0  0
 31 32  1  0  0  0  0
 32 33  2  0  0  0  0
 32 34  1  0  0  0  0
 34 35  1  0  0  0  0
M  END
>  <Index>
37

>  <ID>
HT0091

>  <class>
0

>  <apol>
81.745338

>  <ast_fraglike>
0

>  <ast_fraglike_ext>
0

>  <ast_violation>
3

>  <ast_violation_ext>
5

>  <a_acc>
5

>  <a_acid>
0

>  <a_aro>
0

>  <a_base>
0

>  <a_count>
73

>  <a_don>
1

>  <a_donacc>
6

>  <a_heavy>
36

>  <a_hyd>
25

>  <a_IC>
104.85

>  <a_ICM>
1.4363014

>  <a_nB>
0

>  <a_nBr>
0

>  <a_nC>
28

>  <a_nCl>
1

>  <a_nF>
0

>  <a_nH>
37

>  <a_nI>
0

>  <a_nN>
0

>  <a_nO>
7

>  <a_nP>
0

>  <a_nS>
0

>  <balabanJ>
1.7384133

>  <BCUT_PEOE_0>
-2.9136174

>  <BCUT_PEOE_1>
-0.48500639

>  <BCUT_PEOE_2>
0.38604927

>  <BCUT_PEOE_3>
2.9925997

>  <BCUT_SLOGP_0>
-2.9130251

>  <BCUT_SLOGP_1>
-0.42032078

>  <BCUT_SLOGP_2>
0.44183081

>  <BCUT_SLOGP_3>
2.9999218

>  <BCUT_SMR_0>
-2.6713576

>  <BCUT_SMR_1>
-0.28295818

>  <BCUT_SMR_2>
0.56099486

>  <BCUT_SMR_3>
3.2289801

>  <bpol>
48.532658

>  <b_1rotN>
6

>  <b_1rotR>
0.15384616

>  <b_ar>
0

>  <b_count>
76

>  <b_double>
6

>  <b_heavy>
39

>  <b_max1len>
4

>  <b_rotN>
8

>  <b_rotR>
0.20512821

>  <b_single>
70

>  <b_triple>
0

>  <chi0>
26.629028

>  <chi0v>
22.469389

>  <chi0v_C>
18.438793

>  <chi0_C>
19.214813

>  <chi1>
16.850262

>  <chi1v>
13.460114

>  <chi1v_C>
10.829717

>  <chi1_C>
11.716111

>  <chiral>
9

>  <chiral_u>
0

>  <density>
0.76507813

>  <diameter>
15

>  <FCharge>
0

>  <GCUT_PEOE_0>
-0.79927868

>  <GCUT_PEOE_1>
-0.38235953

>  <GCUT_PEOE_2>
0.0018902058

>  <GCUT_PEOE_3>
3.4554238

>  <GCUT_SLOGP_0>
-0.93263936

>  <GCUT_SLOGP_1>
-0.31542718

>  <GCUT_SLOGP_2>
0.013731926

>  <GCUT_SLOGP_3>
3.4814472

>  <GCUT_SMR_0>
-0.53774667

>  <GCUT_SMR_1>
-0.21264458

>  <GCUT_SMR_2>
0.14204748

>  <GCUT_SMR_3>
3.6803381

>  <Kier1>
28.994083

>  <Kier2>
10.525495

>  <Kier3>
4.5070887

>  <KierA1>
25.991615

>  <KierA2>
9.4049568

>  <KierA3>
4.0181212

>  <KierFlex>
6.790278

>  <lip_acc>
7

>  <lip_don>
1

>  <lip_druglike>
1

>  <lip_violation>
1

>  <logP(o/w)>
4.4970002

>  <logS>
-5.1349602

>  <mr>
13.565794

>  <mutagenic>
1

>  <nmol>
1

>  <opr_brigid>
20

>  <opr_leadlike>
1

>  <opr_nring>
4

>  <opr_nrot>
6

>  <opr_violation>
1

>  <PC+>
0

>  <PC->
0

>  <PEOE_PC+>
2.7912159

>  <PEOE_PC->
-2.7912159

>  <PEOE_RPC+>
0.094161697

>  <PEOE_RPC->
0.14024167

>  <PEOE_VSA+0>
146.33037

>  <PEOE_VSA+1>
30.497244

>  <PEOE_VSA+2>
14.951293

>  <PEOE_VSA+3>
16.917038

>  <PEOE_VSA+4>
10.324173

>  <PEOE_VSA+5>
29.416998

>  <PEOE_VSA+6>
0

>  <PEOE_VSA-0>
50.613747

>  <PEOE_VSA-1>
108.20183

>  <PEOE_VSA-2>
29.581947

>  <PEOE_VSA-3>
0

>  <PEOE_VSA-4>
0

>  <PEOE_VSA-5>
56.771439

>  <PEOE_VSA-6>
10.271297

>  <PEOE_VSA_FHYD>
0.78807563

>  <PEOE_VSA_FNEG>
0.50694925

>  <PEOE_VSA_FPNEG>
0.13305368

>  <PEOE_VSA_FPOL>
0.21192439

>  <PEOE_VSA_FPOS>
0.49305072

>  <PEOE_VSA_FPPOS>
0.078870721

>  <PEOE_VSA_HYD>
397.09348

>  <PEOE_VSA_NEG>
255.44026

>  <PEOE_VSA_PNEG>
67.042732

>  <PEOE_VSA_POL>
106.78391

>  <PEOE_VSA_POS>
248.4371

>  <PEOE_VSA_PPOS>
39.741173

>  <petitjean>
0.46666667

>  <petitjeanSC>
0.875

>  <Q_PC+>
0

>  <Q_PC->
0

>  <Q_RPC+>
0

>  <Q_RPC->
0

>  <Q_VSA_FHYD>
1

>  <Q_VSA_FNEG>
0

>  <Q_VSA_FPNEG>
0

>  <Q_VSA_FPOL>
0

>  <Q_VSA_FPOS>
1

>  <Q_VSA_FPPOS>
0

>  <Q_VSA_HYD>
503.87738

>  <Q_VSA_NEG>
0

>  <Q_VSA_PNEG>
0

>  <Q_VSA_POL>
0

>  <Q_VSA_POS>
503.87738

>  <Q_VSA_PPOS>
0

>  <radius>
8

>  <reactive>
1

>  <rings>
4

>  <RPC+>
0

>  <RPC->
0

>  <rsynth>
0.52777779

>  <SlogP>
3.9426999

>  <SlogP_VSA0>
25.385227

>  <SlogP_VSA1>
26.86615

>  <SlogP_VSA2>
128.64311

>  <SlogP_VSA3>
20.926258

>  <SlogP_VSA4>
17.643185

>  <SlogP_VSA5>
3.185575

>  <SlogP_VSA6>
0

>  <SlogP_VSA7>
52.929554

>  <SlogP_VSA8>
94.342026

>  <SlogP_VSA9>
205.77872

>  <SMR>
13.29478

>  <SMR_VSA0>
117.44864

>  <SMR_VSA1>
25.385227

>  <SMR_VSA2>
17.643185

>  <SMR_VSA3>
14.380052

>  <SMR_VSA4>
0

>  <SMR_VSA5>
147.27158

>  <SMR_VSA6>
47.792408

>  <SMR_VSA7>
205.77872

>  <TPSA>
106.97

>  <VAdjEq>
0.3281796

>  <VAdjMa>
6.2854023

>  <VDistEq>
3.5035176

>  <VDistMa>
10.089844

>  <vdw_area>
503.87738

>  <vdw_vol>
681.04156

>  <vsa_acc>
54.267685

>  <vsa_acid>
0

>  <vsa_base>
0

>  <vsa_don>
0

>  <vsa_hyd>
349.1716

>  <vsa_other>
51.341549

>  <vsa_pol>
67.834602

>  <Weight>
521.04999

>  <weinerPath>
3486

>  <weinerPol>
78

>  <zagreb>
202

$$$$