O=C1NC(=O)CC1(CC)C
  MOE2013           2D

 10 10  0  0  1  0  0  0  0  0999 V2000
    0.0000    0.0000    0.0000 O   0  0  0  0  0  0  0  0  0  0  0  0
    0.7510   -1.2980    0.0000 C   0  0  0  0  0  0  0  0  0  0  0  0
    2.2430   -1.4540    0.0000 N   0  0  0  0  0  0  0  0  0  0  0  0
    2.5560   -2.9210    0.0000 C   0  0  0  0  0  0  0  0  0  0  0  0
    3.9270   -3.5300    0.0000 O   0  0  0  0  0  0  0  0  0  0  0  0
    1.2580   -3.6720    0.0000 C   0  0  0  0  0  0  0  0  0  0  0  0
    0.1420   -2.6690    0.0000 C   0  0  3  0  0  0  0  0  0  0  0  0
   -0.9450   -3.7030    0.0000 C   0  0  0  0  0  0  0  0  0  0  0  0
   -0.5940   -5.1610    0.0000 C   0  0  0  0  0  0  0  0  0  0  0  0
   -1.2720   -2.1700    0.0000 C   0  0  0  0  0  0  0  0  0  0  0  0
  1  2  2  0  0  0  0
  2  3  1  0  0  0  0
  2  7  1  0  0  0  0
  3  4  1  0  0  0  0
  4  5  2  0  0  0  0
  4  6  1  0  0  0  0
  6  7  1  0  0  0  0
  7  8  1  0  0  0  0
  7 10  1  0  0  0  0
  8  9  1  0  0  0  0
M  END
>  <Index>
400

>  <ID>
HT0811

>  <class>
0

>  <apol>
22.358723

>  <ast_fraglike>
1

>  <ast_fraglike_ext>
1

>  <ast_violation>
0

>  <ast_violation_ext>
0

>  <a_acc>
2

>  <a_acid>
0

>  <a_aro>
0

>  <a_base>
0

>  <a_count>
21

>  <a_don>
1

>  <a_donacc>
3

>  <a_heavy>
10

>  <a_hyd>
5

>  <a_IC>
32.533432

>  <a_ICM>
1.5492111

>  <a_nB>
0

>  <a_nBr>
0

>  <a_nC>
7

>  <a_nCl>
0

>  <a_nF>
0

>  <a_nH>
11

>  <a_nI>
0

>  <a_nN>
1

>  <a_nO>
2

>  <a_nP>
0

>  <a_nS>
0

>  <balabanJ>
2.6355355

>  <BCUT_PEOE_0>
-2.6112072

>  <BCUT_PEOE_1>
-0.23065601

>  <BCUT_PEOE_2>
0.15689197

>  <BCUT_PEOE_3>
2.7327211

>  <BCUT_SLOGP_0>
-2.573359

>  <BCUT_SLOGP_1>
-0.19593075

>  <BCUT_SLOGP_2>
0.20136654

>  <BCUT_SLOGP_3>
2.7413051

>  <BCUT_SMR_0>
-2.3904328

>  <BCUT_SMR_1>
-0.042461574

>  <BCUT_SMR_2>
0.24179308

>  <BCUT_SMR_3>
2.9682868

>  <bpol>
14.601277

>  <b_1rotN>
1

>  <b_1rotR>
0.1

>  <b_ar>
0

>  <b_count>
21

>  <b_double>
2

>  <b_heavy>
10

>  <b_max1len>
5

>  <b_rotN>
1

>  <b_rotR>
0.1

>  <b_single>
19

>  <b_triple>
0

>  <chi0>
7.776021

>  <chi0v>
6.23071

>  <chi0v_C>
4.9142137

>  <chi0_C>
5.0689139

>  <chi1>
4.582334

>  <chi1v>
3.4260151

>  <chi1v_C>
2.517767

>  <chi1_C>
2.6111369

>  <chiral>
1

>  <chiral_u>
1

>  <density>
0.74437511

>  <diameter>
5

>  <FCharge>
0

>  <GCUT_PEOE_0>
-0.77089489

>  <GCUT_PEOE_1>
-0.33431962

>  <GCUT_PEOE_2>
-0.063063763

>  <GCUT_PEOE_3>
2.3939188

>  <GCUT_SLOGP_0>
-1.1748004

>  <GCUT_SLOGP_1>
-0.27550507

>  <GCUT_SLOGP_2>
-0.018897016

>  <GCUT_SLOGP_3>
2.3927341

>  <GCUT_SMR_0>
-0.52620441

>  <GCUT_SMR_1>
-0.14175385

>  <GCUT_SMR_2>
0.0096214348

>  <GCUT_SMR_3>
2.613111

>  <Kier1>
8.1000004

>  <Kier2>
2.5599999

>  <Kier3>
1.3827161

>  <KierA1>
6.2517467

>  <KierA2>
1.9120265

>  <KierA3>
1.005124

>  <KierFlex>
1.1953505

>  <lip_acc>
3

>  <lip_don>
1

>  <lip_druglike>
1

>  <lip_violation>
0

>  <logP(o/w)>
0.25999999

>  <logS>
-0.98185998

>  <mr>
3.767395

>  <mutagenic>
0

>  <nmol>
1

>  <opr_brigid>
5

>  <opr_leadlike>
1

>  <opr_nring>
1

>  <opr_nrot>
1

>  <opr_violation>
0

>  <PC+>
0

>  <PC->
0

>  <PEOE_PC+>
0.99796599

>  <PEOE_PC->
-0.99796599

>  <PEOE_RPC+>
0.23410423

>  <PEOE_RPC->
0.29716352

>  <PEOE_VSA+0>
51.355175

>  <PEOE_VSA+1>
0

>  <PEOE_VSA+2>
0

>  <PEOE_VSA+3>
8.6190128

>  <PEOE_VSA+4>
25.899061

>  <PEOE_VSA+5>
0

>  <PEOE_VSA+6>
0

>  <PEOE_VSA-0>
8.701313

>  <PEOE_VSA-1>
37.495354

>  <PEOE_VSA-2>
0

>  <PEOE_VSA-3>
0

>  <PEOE_VSA-4>
0

>  <PEOE_VSA-5>
27.270733

>  <PEOE_VSA-6>
0

>  <PEOE_VSA_FHYD>
0.66631371

>  <PEOE_VSA_FNEG>
0.46107131

>  <PEOE_VSA_FPNEG>
0.17114736

>  <PEOE_VSA_FPOL>
0.33368632

>  <PEOE_VSA_FPOS>
0.53892869

>  <PEOE_VSA_FPPOS>
0.16253895

>  <PEOE_VSA_HYD>
106.17085

>  <PEOE_VSA_NEG>
73.4674

>  <PEOE_VSA_PNEG>
27.270733

>  <PEOE_VSA_POL>
53.169796

>  <PEOE_VSA_POS>
85.873245

>  <PEOE_VSA_PPOS>
25.899061

>  <petitjean>
0.40000001

>  <petitjeanSC>
0.66666669

>  <Q_PC+>
0

>  <Q_PC->
0

>  <Q_RPC+>
0

>  <Q_RPC->
0

>  <Q_VSA_FHYD>
1

>  <Q_VSA_FNEG>
0

>  <Q_VSA_FPNEG>
0

>  <Q_VSA_FPOL>
0

>  <Q_VSA_FPOS>
1

>  <Q_VSA_FPPOS>
0

>  <Q_VSA_HYD>
159.34065

>  <Q_VSA_NEG>
0

>  <Q_VSA_PNEG>
0

>  <Q_VSA_POL>
0

>  <Q_VSA_POS>
159.34065

>  <Q_VSA_PPOS>
0

>  <radius>
3

>  <reactive>
0

>  <rings>
1

>  <RPC+>
0

>  <RPC->
0

>  <rsynth>
1

>  <SlogP>
0.4492

>  <SlogP_VSA0>
18.01075

>  <SlogP_VSA1>
10.517568

>  <SlogP_VSA2>
47.724434

>  <SlogP_VSA3>
0

>  <SlogP_VSA4>
0

>  <SlogP_VSA5>
0

>  <SlogP_VSA6>
0

>  <SlogP_VSA7>
0

>  <SlogP_VSA8>
37.736813

>  <SlogP_VSA9>
66.652031

>  <SMR>
3.6164701

>  <SMR_VSA0>
47.724434

>  <SMR_VSA1>
0

>  <SMR_VSA2>
18.01075

>  <SMR_VSA3>
0

>  <SMR_VSA4>
0

>  <SMR_VSA5>
37.736813

>  <SMR_VSA6>
10.517568

>  <SMR_VSA7>
66.652031

>  <TPSA>
46.169998

>  <VAdjEq>
0.72192812

>  <VAdjMa>
4.321928

>  <VDistEq>
2.0376725

>  <VDistMa>
6.3528209

>  <vdw_area>
159.34065

>  <vdw_vol>
189.649

>  <vsa_acc>
27.133842

>  <vsa_acid>
0

>  <vsa_base>
0

>  <vsa_don>
5.6825762

>  <vsa_hyd>
90.433891

>  <vsa_other>
25.899061

>  <vsa_pol>
32.816418

>  <Weight>
141.17

>  <weinerPath>
108

>  <weinerPol>
13

>  <zagreb>
50

$$$$