O[C@H]1C[C@H](O)CC(=C/C=C2/[C@@H]3CC[C@H]([C@@H](C=C[C@@H](C(C)C)C)C)[C@]3(CCC/2)C)C1=C
  MOE2013           2D

 30 32  0  0  1  0  0  0  0  0999 V2000
    0.0000    0.0000    0.0000 O   0  0  0  0  0  0  0  0  0  0  0  0
    1.3050   -0.7400    0.0000 C   0  0  1  0  0  0  0  0  0  0  0  0
    1.3160   -2.2400    0.0000 C   0  0  0  0  0  0  0  0  0  0  0  0
    2.6210   -2.9800    0.0000 C   0  0  2  0  0  0  0  0  0  0  0  0
    2.6330   -4.4800    0.0000 O   0  0  0  0  0  0  0  0  0  0  0  0
    3.9140   -2.2200    0.0000 C   0  0  0  0  0  0  0  0  0  0  0  0
    3.9030   -0.7200    0.0000 C   0  0  0  0  0  0  0  0  0  0  0  0
    5.1960    0.0400    0.0000 C   0  0  0  0  0  0  0  0  0  0  0  0
    6.5010   -0.6990    0.0000 C   0  0  0  0  0  0  0  0  0  0  0  0
    7.7940    0.0610    0.0000 C   0  0  0  0  0  0  0  0  0  0  0  0
    9.0990   -0.6790    0.0000 C   0  0  2  0  0  0  0  0  0  0  0  0
    9.4220   -2.1440    0.0000 C   0  0  0  0  0  0  0  0  0  0  0  0
   10.9150   -2.2890    0.0000 C   0  0  0  0  0  0  0  0  0  0  0  0
   11.5140   -0.9140    0.0000 C   0  0  2  0  0  0  0  0  0  0  0  0
   12.9790   -0.5910    0.0000 C   0  0  1  0  0  0  0  0  0  0  0  0
   13.9920   -1.6980    0.0000 C   0  0  0  0  0  0  0  0  0  0  0  0
   15.4560   -1.3750    0.0000 C   0  0  0  0  0  0  0  0  0  0  0  0
   16.4690   -2.4810    0.0000 C   0  0  1  0  0  0  0  0  0  0  0  0
   17.9330   -2.1580    0.0000 C   0  0  0  0  0  0  0  0  0  0  0  0
   18.9460   -3.2650    0.0000 C   0  0  0  0  0  0  0  0  0  0  0  0
   18.3860   -0.7280    0.0000 C   0  0  0  0  0  0  0  0  0  0  0  0
   16.0160   -3.9120    0.0000 C   0  0  0  0  0  0  0  0  0  0  0  0
   13.4320    0.8390    0.0000 C   0  0  0  0  0  0  0  0  0  0  0  0
   10.3920    0.0810    0.0000 C   0  0  1  0  0  0  0  0  0  0  0  0
   10.3800    1.5810    0.0000 C   0  0  0  0  0  0  0  0  0  0  0  0
    9.0750    2.3210    0.0000 C   0  0  0  0  0  0  0  0  0  0  0  0
    7.7820    1.5610    0.0000 C   0  0  0  0  0  0  0  0  0  0  0  0
   11.7580    0.7020    0.0000 C   0  0  0  0  0  0  0  0  0  0  0  0
    2.5980    0.0200    0.0000 C   0  0  0  0  0  0  0  0  0  0  0  0
    2.5860    1.5200    0.0000 C   0  0  0  0  0  0  0  0  0  0  0  0
  2  1  1  6  0  0  0
  2  3  1  0  0  0  0
  2 29  1  0  0  0  0
  3  4  1  0  0  0  0
  4  5  1  1  0  0  0
  4  6  1  0  0  0  0
  6  7  1  0  0  0  0
  7  8  2  3  0  0  0
  7 29  1  0  0  0  0
  8  9  1  0  0  0  0
  9 10  2  0  0  0  0
 10 27  1  0  0  0  0
 11 10  1  1  0  0  0
 11 12  1  0  0  0  0
 11 24  1  0  0  0  0
 12 13  1  0  0  0  0
 14 13  1  1  0  0  0
 14 15  1  0  0  0  0
 14 24  1  0  0  0  0
 15 16  1  0  0  0  0
 15 23  1  6  0  0  0
 16 17  2  3  0  0  0
 17 18  1  0  0  0  0
 18 19  1  0  0  0  0
 18 22  1  1  0  0  0
 19 20  1  0  0  0  0
 19 21  1  0  0  0  0
 24 25  1  0  0  0  0
 24 28  1  1  0  0  0
 25 26  1  0  0  0  0
 26 27  1  0  0  0  0
 29 30  2  0  0  0  0
M  END
>  <Index>
347

>  <ID>
HT0717

>  <class>
0

>  <apol>
80.222893

>  <ast_fraglike>
0

>  <ast_fraglike_ext>
0

>  <ast_violation>
2

>  <ast_violation_ext>
3

>  <a_acc>
2

>  <a_acid>
0

>  <a_aro>
0

>  <a_base>
0

>  <a_count>
74

>  <a_don>
2

>  <a_donacc>
4

>  <a_heavy>
30

>  <a_hyd>
28

>  <a_IC>
82.678619

>  <a_ICM>
1.1172787

>  <a_nB>
0

>  <a_nBr>
0

>  <a_nC>
28

>  <a_nCl>
0

>  <a_nF>
0

>  <a_nH>
44

>  <a_nI>
0

>  <a_nN>
0

>  <a_nO>
2

>  <a_nP>
0

>  <a_nS>
0

>  <balabanJ>
1.5734167

>  <BCUT_PEOE_0>
-2.8232276

>  <BCUT_PEOE_1>
-0.45917702

>  <BCUT_PEOE_2>
0.51984233

>  <BCUT_PEOE_3>
2.8889594

>  <BCUT_SLOGP_0>
-2.7215617

>  <BCUT_SLOGP_1>
-0.39278674

>  <BCUT_SLOGP_2>
0.5378468

>  <BCUT_SLOGP_3>
2.9955864

>  <BCUT_SMR_0>
-2.5627415

>  <BCUT_SMR_1>
-0.36332023

>  <BCUT_SMR_2>
0.63564163

>  <BCUT_SMR_3>
3.1511085

>  <bpol>
48.101109

>  <b_1rotN>
5

>  <b_1rotR>
0.15625

>  <b_ar>
0

>  <b_count>
76

>  <b_double>
4

>  <b_heavy>
32

>  <b_max1len>
5

>  <b_rotN>
5

>  <b_rotR>
0.15625

>  <b_single>
72

>  <b_triple>
0

>  <chi0>
22.051678

>  <chi0v>
19.902134

>  <chi0v_C>
19.007708

>  <chi0_C>
20.051678

>  <chi1>
14.129753

>  <chi1v>
12.263305

>  <chi1v_C>
11.746907

>  <chi1_C>
12.975053

>  <chiral>
7

>  <chiral_u>
0

>  <density>
0.63518834

>  <diameter>
15

>  <FCharge>
0

>  <GCUT_PEOE_0>
-0.80478621

>  <GCUT_PEOE_1>
-0.32340673

>  <GCUT_PEOE_2>
0.029916838

>  <GCUT_PEOE_3>
3.196445

>  <GCUT_SLOGP_0>
-0.87889051

>  <GCUT_SLOGP_1>
-0.26361799

>  <GCUT_SLOGP_2>
0.037518054

>  <GCUT_SLOGP_3>
3.3094134

>  <GCUT_SMR_0>
-0.54112804

>  <GCUT_SMR_1>
-0.1975209

>  <GCUT_SMR_2>
0.12730131

>  <GCUT_SMR_3>
3.4356639

>  <Kier1>
24.638672

>  <Kier2>
10.29244

>  <Kier3>
5.5067639

>  <KierA1>
22.109196

>  <KierA2>
9.1998606

>  <KierA3>
4.908639

>  <KierFlex>
6.7800503

>  <lip_acc>
2

>  <lip_don>
2

>  <lip_druglike>
1

>  <lip_violation>
1

>  <logP(o/w)>
5.9689999

>  <logS>
-9.7251701

>  <mr>
12.52772

>  <mutagenic>
0

>  <nmol>
1

>  <opr_brigid>
20

>  <opr_leadlike>
1

>  <opr_nring>
3

>  <opr_nrot>
8

>  <opr_violation>
1

>  <PC+>
0

>  <PC->
0

>  <PEOE_PC+>
1.963326

>  <PEOE_PC->
-1.963326

>  <PEOE_RPC+>
0.10707952

>  <PEOE_RPC->
0.19933888

>  <PEOE_VSA+0>
153.72444

>  <PEOE_VSA+1>
43.932945

>  <PEOE_VSA+2>
0

>  <PEOE_VSA+3>
0

>  <PEOE_VSA+4>
20.648346

>  <PEOE_VSA+5>
0

>  <PEOE_VSA+6>
0

>  <PEOE_VSA-0>
56.624958

>  <PEOE_VSA-1>
167.26781

>  <PEOE_VSA-2>
0

>  <PEOE_VSA-3>
0

>  <PEOE_VSA-4>
0

>  <PEOE_VSA-5>
0

>  <PEOE_VSA-6>
15.535081

>  <PEOE_VSA_FHYD>
0.92095089

>  <PEOE_VSA_FNEG>
0.52307248

>  <PEOE_VSA_FPNEG>
0.033939131

>  <PEOE_VSA_FPOL>
0.079049096

>  <PEOE_VSA_FPOS>
0.47692749

>  <PEOE_VSA_FPPOS>
0.045109965

>  <PEOE_VSA_HYD>
421.55014

>  <PEOE_VSA_NEG>
239.42786

>  <PEOE_VSA_PNEG>
15.535081

>  <PEOE_VSA_POL>
36.183426

>  <PEOE_VSA_POS>
218.30573

>  <PEOE_VSA_PPOS>
20.648346

>  <petitjean>
0.46666667

>  <petitjeanSC>
0.875

>  <Q_PC+>
0

>  <Q_PC->
0

>  <Q_RPC+>
0

>  <Q_RPC->
0

>  <Q_VSA_FHYD>
1

>  <Q_VSA_FNEG>
0

>  <Q_VSA_FPNEG>
0

>  <Q_VSA_FPOL>
0

>  <Q_VSA_FPOS>
1

>  <Q_VSA_FPPOS>
0

>  <Q_VSA_HYD>
457.73358

>  <Q_VSA_NEG>
0

>  <Q_VSA_PNEG>
0

>  <Q_VSA_POL>
0

>  <Q_VSA_POS>
457.73358

>  <Q_VSA_PPOS>
0

>  <radius>
8

>  <reactive>
0

>  <rings>
3

>  <RPC+>
0

>  <RPC->
0

>  <rsynth>
0

>  <SlogP>
6.6118002

>  <SlogP_VSA0>
50.770454

>  <SlogP_VSA1>
0

>  <SlogP_VSA2>
12.937299

>  <SlogP_VSA3>
0

>  <SlogP_VSA4>
22.05398

>  <SlogP_VSA5>
9.5567245

>  <SlogP_VSA6>
0

>  <SlogP_VSA7>
70.572739

>  <SlogP_VSA8>
132.07884

>  <SlogP_VSA9>
198.73087

>  <SMR>
12.70316

>  <SMR_VSA0>
0

>  <SMR_VSA1>
50.770454

>  <SMR_VSA2>
22.05398

>  <SMR_VSA3>
22.494022

>  <SMR_VSA4>
0

>  <SMR_VSA5>
202.65158

>  <SMR_VSA6>
0

>  <SMR_VSA7>
198.73087

>  <TPSA>
40.459999

>  <VAdjEq>
0.37005648

>  <VAdjMa>
6

>  <VDistEq>
3.7081695

>  <VDistMa>
9.5065269

>  <vdw_area>
457.73358

>  <vdw_vol>
649.66241

>  <vsa_acc>
0

>  <vsa_acid>
0

>  <vsa_base>
0

>  <vsa_don>
0

>  <vsa_hyd>
384.9295

>  <vsa_other>
0

>  <vsa_pol>
27.133842

>  <Weight>
412.65799

>  <weinerPath>
2654

>  <weinerPol>
51

>  <zagreb>
158

$$$$