O(C)c1cc2c(cc1)cccc2CCNC(=O)C
  MOE2013           2D

 18 19  0  0  0  0  0  0  0  0999 V2000
    0.0000    0.0000    0.0000 O   0  0  0  0  0  0  0  0  0  0  0  0
   -1.5000   -0.0040    0.0000 C   0  0  0  0  0  0  0  0  0  0  0  0
    0.7540   -1.2970    0.0000 C   0  0  0  0  0  0  0  0  0  0  0  0
    2.2540   -1.2930    0.0000 C   0  0  0  0  0  0  0  0  0  0  0  0
    3.0070   -2.5900    0.0000 C   0  0  0  0  0  0  0  0  0  0  0  0
    2.2610   -3.8910    0.0000 C   0  0  0  0  0  0  0  0  0  0  0  0
    0.7610   -3.8950    0.0000 C   0  0  0  0  0  0  0  0  0  0  0  0
    0.0070   -2.5980    0.0000 C   0  0  0  0  0  0  0  0  0  0  0  0
    3.0150   -5.1880    0.0000 C   0  0  0  0  0  0  0  0  0  0  0  0
    4.5150   -5.1830    0.0000 C   0  0  0  0  0  0  0  0  0  0  0  0
    5.2610   -3.8820    0.0000 C   0  0  0  0  0  0  0  0  0  0  0  0
    4.5070   -2.5850    0.0000 C   0  0  0  0  0  0  0  0  0  0  0  0
    5.2540   -1.2840    0.0000 C   0  0  0  0  0  0  0  0  0  0  0  0
    6.7540   -1.2800    0.0000 C   0  0  0  0  0  0  0  0  0  0  0  0
    7.5000    0.0210    0.0000 N   0  0  0  0  0  0  0  0  0  0  0  0
    9.0000    0.0260    0.0000 C   0  0  0  0  0  0  0  0  0  0  0  0
    9.7460    1.3270    0.0000 O   0  0  0  0  0  0  0  0  0  0  0  0
    9.7540   -1.2710    0.0000 C   0  0  0  0  0  0  0  0  0  0  0  0
  1  2  1  0  0  0  0
  1  3  1  0  0  0  0
  3  4  1  0  0  0  0
  3  8  2  0  0  0  0
  4  5  2  0  0  0  0
  5  6  1  0  0  0  0
  5 12  1  0  0  0  0
  6  7  2  0  0  0  0
  6  9  1  0  0  0  0
  7  8  1  0  0  0  0
  9 10  2  0  0  0  0
 10 11  1  0  0  0  0
 11 12  2  0  0  0  0
 12 13  1  0  0  0  0
 13 14  1  0  0  0  0
 14 15  1  0  0  0  0
 15 16  1  0  0  0  0
 16 17  2  0  0  0  0
 16 18  1  0  0  0  0
M  END
>  <Index>
33

>  <ID>
HT0081

>  <class>
0

>  <apol>
40.43948

>  <ast_fraglike>
1

>  <ast_fraglike_ext>
0

>  <ast_violation>
0

>  <ast_violation_ext>
1

>  <a_acc>
2

>  <a_acid>
0

>  <a_aro>
10

>  <a_base>
0

>  <a_count>
35

>  <a_don>
1

>  <a_donacc>
3

>  <a_heavy>
18

>  <a_hyd>
14

>  <a_IC>
49.434677

>  <a_ICM>
1.4124194

>  <a_nB>
0

>  <a_nBr>
0

>  <a_nC>
15

>  <a_nCl>
0

>  <a_nF>
0

>  <a_nH>
17

>  <a_nI>
0

>  <a_nN>
1

>  <a_nO>
2

>  <a_nP>
0

>  <a_nS>
0

>  <balabanJ>
1.8505982

>  <BCUT_PEOE_0>
-2.5057874

>  <BCUT_PEOE_1>
-0.55248439

>  <BCUT_PEOE_2>
0.49258471

>  <BCUT_PEOE_3>
2.4567733

>  <BCUT_SLOGP_0>
-2.6551702

>  <BCUT_SLOGP_1>
-0.51116931

>  <BCUT_SLOGP_2>
0.61906558

>  <BCUT_SLOGP_3>
2.476325

>  <BCUT_SMR_0>
-2.226547

>  <BCUT_SMR_1>
-0.3389622

>  <BCUT_SMR_2>
0.6853264

>  <BCUT_SMR_3>
2.7364519

>  <bpol>
22.118519

>  <b_1rotN>
4

>  <b_1rotR>
0.21052632

>  <b_ar>
11

>  <b_count>
36

>  <b_double>
1

>  <b_heavy>
19

>  <b_max1len>
4

>  <b_rotN>
5

>  <b_rotR>
0.2631579

>  <b_single>
24

>  <b_triple>
0

>  <chi0>
12.957819

>  <chi0v>
10.694812

>  <chi0v_C>
9.378315

>  <chi0_C>
10.543606

>  <chi1>
8.7027082

>  <chi1v>
6.0056543

>  <chi1v_C>
4.5856042

>  <chi1_C>
6.1017551

>  <chiral>
0

>  <chiral_u>
0

>  <density>
0.69286287

>  <diameter>
10

>  <FCharge>
0

>  <GCUT_PEOE_0>
-0.84121305

>  <GCUT_PEOE_1>
-0.42323756

>  <GCUT_PEOE_2>
0.047845993

>  <GCUT_PEOE_3>
2.4678416

>  <GCUT_SLOGP_0>
-1.1615953

>  <GCUT_SLOGP_1>
-0.32066256

>  <GCUT_SLOGP_2>
0.11259518

>  <GCUT_SLOGP_3>
2.6008401

>  <GCUT_SMR_0>
-0.50608873

>  <GCUT_SMR_1>
-0.20549025

>  <GCUT_SMR_2>
0.15485536

>  <GCUT_SMR_3>
2.7705481

>  <Kier1>
14.409972

>  <Kier2>
6.9632001

>  <Kier3>
3.9958377

>  <KierA1>
10.428243

>  <KierA2>
4.9343472

>  <KierA3>
2.7877014

>  <KierFlex>
2.8586981

>  <lip_acc>
3

>  <lip_don>
1

>  <lip_druglike>
1

>  <lip_violation>
0

>  <logP(o/w)>
2.632

>  <logS>
-3.5281

>  <mr>
7.2948031

>  <mutagenic>
0

>  <nmol>
1

>  <opr_brigid>
11

>  <opr_leadlike>
1

>  <opr_nring>
2

>  <opr_nrot>
4

>  <opr_violation>
0

>  <PC+>
0

>  <PC->
0

>  <PEOE_PC+>
1.3337473

>  <PEOE_PC->
-1.3337473

>  <PEOE_RPC+>
0.16335557

>  <PEOE_RPC->
0.26681218

>  <PEOE_VSA+0>
86.795364

>  <PEOE_VSA+1>
46.846992

>  <PEOE_VSA+2>
0

>  <PEOE_VSA+3>
8.6190128

>  <PEOE_VSA+4>
12.949531

>  <PEOE_VSA+5>
0

>  <PEOE_VSA+6>
0

>  <PEOE_VSA-0>
39.836739

>  <PEOE_VSA-1>
49.019615

>  <PEOE_VSA-2>
0

>  <PEOE_VSA-3>
0

>  <PEOE_VSA-4>
0

>  <PEOE_VSA-5>
13.566921

>  <PEOE_VSA-6>
2.6406472

>  <PEOE_VSA_FHYD>
0.88797575

>  <PEOE_VSA_FNEG>
0.40366533

>  <PEOE_VSA_FPNEG>
0.06227098

>  <PEOE_VSA_FPOL>
0.11202428

>  <PEOE_VSA_FPOS>
0.59633464

>  <PEOE_VSA_FPPOS>
0.049753297

>  <PEOE_VSA_HYD>
231.11772

>  <PEOE_VSA_NEG>
105.06393

>  <PEOE_VSA_PNEG>
16.207567

>  <PEOE_VSA_POL>
29.157099

>  <PEOE_VSA_POS>
155.21089

>  <PEOE_VSA_PPOS>
12.949531

>  <petitjean>
0.5

>  <petitjeanSC>
1

>  <Q_PC+>
0

>  <Q_PC->
0

>  <Q_RPC+>
0

>  <Q_RPC->
0

>  <Q_VSA_FHYD>
1

>  <Q_VSA_FNEG>
0

>  <Q_VSA_FPNEG>
0

>  <Q_VSA_FPOL>
0

>  <Q_VSA_FPOS>
1

>  <Q_VSA_FPPOS>
0

>  <Q_VSA_HYD>
260.27481

>  <Q_VSA_NEG>
0

>  <Q_VSA_PNEG>
0

>  <Q_VSA_POL>
0

>  <Q_VSA_POS>
260.27481

>  <Q_VSA_PPOS>
0

>  <radius>
5

>  <reactive>
0

>  <rings>
2

>  <RPC+>
0

>  <RPC->
0

>  <rsynth>
1

>  <SlogP>
2.5269699

>  <SlogP_VSA0>
29.010639

>  <SlogP_VSA1>
5.2587838

>  <SlogP_VSA2>
23.862217

>  <SlogP_VSA3>
18.439579

>  <SlogP_VSA4>
3.185575

>  <SlogP_VSA5>
54.252274

>  <SlogP_VSA6>
0

>  <SlogP_VSA7>
111.00504

>  <SlogP_VSA8>
0

>  <SlogP_VSA9>
38.569443

>  <SMR>
7.2887702

>  <SMR_VSA0>
23.862217

>  <SMR_VSA1>
10.999887

>  <SMR_VSA2>
18.01075

>  <SMR_VSA3>
8.4290028

>  <SMR_VSA4>
5.1459289

>  <SMR_VSA5>
124.72751

>  <SMR_VSA6>
23.698362

>  <SMR_VSA7>
68.709885

>  <TPSA>
38.330002

>  <VAdjEq>
0.52150291

>  <VAdjMa>
5.2479277

>  <VDistEq>
3.1106856

>  <VDistMa>
8.0296125

>  <vdw_area>
260.27481

>  <vdw_vol>
351.1604

>  <vsa_acc>
16.070677

>  <vsa_acid>
0

>  <vsa_base>
0

>  <vsa_don>
5.6825762

>  <vsa_hyd>
211.10999

>  <vsa_other>
12.949531

>  <vsa_pol>
21.753254

>  <Weight>
243.306

>  <weinerPath>
642

>  <weinerPol>
25

>  <zagreb>
88

$$$$