O(C)c1cc2c(CC(CC3CCN(CC3)Cc3ccccc3)C2=O)cc1OC
  MOE2013           2D

 28 31  0  0  1  0  0  0  0  0999 V2000
    0.0000    0.0000    0.0000 O   0  0  0  0  0  0  0  0  0  0  0  0
   -0.7460   -1.3020    0.0000 C   0  0  0  0  0  0  0  0  0  0  0  0
    1.5000    0.0050    0.0000 C   0  0  0  0  0  0  0  0  0  0  0  0
    2.2540   -1.2910    0.0000 C   0  0  0  0  0  0  0  0  0  0  0  0
    3.7540   -1.2860    0.0000 C   0  0  0  0  0  0  0  0  0  0  0  0
    4.5000    0.0150    0.0000 C   0  0  0  0  0  0  0  0  0  0  0  0
    5.9680   -0.2920    0.0000 C   0  0  0  0  0  0  0  0  0  0  0  0
    6.1300   -1.7830    0.0000 C   0  0  3  0  0  0  0  0  0  0  0  0
    7.4320   -2.5290    0.0000 C   0  0  0  0  0  0  0  0  0  0  0  0
    8.7280   -1.7740    0.0000 C   0  0  0  0  0  0  0  0  0  0  0  0
    8.7230   -0.2740    0.0000 C   0  0  0  0  0  0  0  0  0  0  0  0
   10.0200    0.4800    0.0000 C   0  0  0  0  0  0  0  0  0  0  0  0
   11.3210   -0.2660    0.0000 N   0  0  0  0  0  0  0  0  0  0  0  0
   11.3260   -1.7660    0.0000 C   0  0  0  0  0  0  0  0  0  0  0  0
   10.0300   -2.5200    0.0000 C   0  0  0  0  0  0  0  0  0  0  0  0
   12.6180    0.4890    0.0000 C   0  0  0  0  0  0  0  0  0  0  0  0
   13.9190   -0.2570    0.0000 C   0  0  0  0  0  0  0  0  0  0  0  0
   15.2160    0.4970    0.0000 C   0  0  0  0  0  0  0  0  0  0  0  0
   16.5170   -0.2480    0.0000 C   0  0  0  0  0  0  0  0  0  0  0  0
   16.5220   -1.7480    0.0000 C   0  0  0  0  0  0  0  0  0  0  0  0
   15.2260   -2.5030    0.0000 C   0  0  0  0  0  0  0  0  0  0  0  0
   13.9240   -1.7570    0.0000 C   0  0  0  0  0  0  0  0  0  0  0  0
    4.7620   -2.3980    0.0000 C   0  0  0  0  0  0  0  0  0  0  0  0
    4.4550   -3.8660    0.0000 O   0  0  0  0  0  0  0  0  0  0  0  0
    3.7460    1.3120    0.0000 C   0  0  0  0  0  0  0  0  0  0  0  0
    2.2460    1.3070    0.0000 C   0  0  0  0  0  0  0  0  0  0  0  0
    1.4910    2.6030    0.0000 O   0  0  0  0  0  0  0  0  0  0  0  0
    2.2370    3.9050    0.0000 C   0  0  0  0  0  0  0  0  0  0  0  0
  1  2  1  0  0  0  0
  1  3  1  0  0  0  0
  3  4  1  0  0  0  0
  3 26  2  0  0  0  0
  4  5  2  0  0  0  0
  5  6  1  0  0  0  0
  5 23  1  0  0  0  0
  6  7  1  0  0  0  0
  6 25  2  0  0  0  0
  7  8  1  0  0  0  0
  8  9  1  0  0  0  0
  8 23  1  0  0  0  0
  9 10  1  0  0  0  0
 10 11  1  0  0  0  0
 10 15  1  0  0  0  0
 11 12  1  0  0  0  0
 12 13  1  0  0  0  0
 13 14  1  0  0  0  0
 13 16  1  0  0  0  0
 14 15  1  0  0  0  0
 16 17  1  0  0  0  0
 17 18  1  0  0  0  0
 17 22  2  0  0  0  0
 18 19  2  0  0  0  0
 19 20  1  0  0  0  0
 20 21  2  0  0  0  0
 21 22  1  0  0  0  0
 23 24  2  0  0  0  0
 25 26  1  0  0  0  0
 26 27  1  0  0  0  0
 27 28  1  0  0  0  0
M  END
>  <Index>
344

>  <ID>
HT0708

>  <class>
0

>  <apol>
65.083

>  <ast_fraglike>
0

>  <ast_fraglike_ext>
0

>  <ast_violation>
3

>  <ast_violation_ext>
4

>  <a_acc>
4

>  <a_acid>
0

>  <a_aro>
12

>  <a_base>
0

>  <a_count>
57

>  <a_don>
0

>  <a_donacc>
4

>  <a_heavy>
28

>  <a_hyd>
23

>  <a_IC>
76.799294

>  <a_ICM>
1.3473561

>  <a_nB>
0

>  <a_nBr>
0

>  <a_nC>
24

>  <a_nCl>
0

>  <a_nF>
0

>  <a_nH>
29

>  <a_nI>
0

>  <a_nN>
1

>  <a_nO>
3

>  <a_nP>
0

>  <a_nS>
0

>  <balabanJ>
1.2320755

>  <BCUT_PEOE_0>
-2.819875

>  <BCUT_PEOE_1>
-0.54091585

>  <BCUT_PEOE_2>
0.56829321

>  <BCUT_PEOE_3>
2.767833

>  <BCUT_SLOGP_0>
-2.7933638

>  <BCUT_SLOGP_1>
-0.45252454

>  <BCUT_SLOGP_2>
0.65886992

>  <BCUT_SLOGP_3>
2.8212492

>  <BCUT_SMR_0>
-2.5565095

>  <BCUT_SMR_1>
-0.37939063

>  <BCUT_SMR_2>
0.70041108

>  <BCUT_SMR_3>
3.0270054

>  <bpol>
38.473003

>  <b_1rotN>
6

>  <b_1rotR>
0.19354838

>  <b_ar>
12

>  <b_count>
60

>  <b_double>
1

>  <b_heavy>
31

>  <b_max1len>
4

>  <b_rotN>
6

>  <b_rotR>
0.19354838

>  <b_single>
47

>  <b_triple>
0

>  <chi0>
19.509861

>  <chi0v>
16.817858

>  <chi0v_C>
15.1459

>  <chi0_C>
16.518297

>  <chi1>
13.673367

>  <chi1v>
10.229959

>  <chi1v_C>
7.8524075

>  <chi1_C>
9.6405611

>  <chiral>
1

>  <chiral_u>
1

>  <density>
0.69049424

>  <diameter>
16

>  <FCharge>
0

>  <GCUT_PEOE_0>
-0.85221153

>  <GCUT_PEOE_1>
-0.38779411

>  <GCUT_PEOE_2>
0.041017007

>  <GCUT_PEOE_3>
2.9043789

>  <GCUT_SLOGP_0>
-0.92248559

>  <GCUT_SLOGP_1>
-0.27237225

>  <GCUT_SLOGP_2>
0.13138418

>  <GCUT_SLOGP_3>
2.9807367

>  <GCUT_SMR_0>
-0.53020954

>  <GCUT_SMR_1>
-0.20515326

>  <GCUT_SMR_2>
0.15145409

>  <GCUT_SMR_3>
3.1511924

>  <Kier1>
21.240376

>  <Kier2>
9.8712816

>  <Kier3>
5.0237813

>  <KierA1>
17.19146

>  <KierA2>
7.9232416

>  <KierA3>
4.0085001

>  <KierFlex>
4.8647175

>  <lip_acc>
4

>  <lip_don>
0

>  <lip_druglike>
1

>  <lip_violation>
0

>  <logP(o/w)>
4.14574

>  <logS>
-4.22717

>  <mr>
11.17571

>  <mutagenic>
0

>  <nmol>
1

>  <opr_brigid>
22

>  <opr_leadlike>
1

>  <opr_nring>
4

>  <opr_nrot>
8

>  <opr_violation>
1

>  <PC+>
0

>  <PC->
0

>  <PEOE_PC+>
1.8612545

>  <PEOE_PC->
-1.8612545

>  <PEOE_RPC+>
0.089655519

>  <PEOE_RPC->
0.18553741

>  <PEOE_VSA+0>
133.64235

>  <PEOE_VSA+1>
55.45002

>  <PEOE_VSA+2>
16.917038

>  <PEOE_VSA+3>
8.458519

>  <PEOE_VSA+4>
0

>  <PEOE_VSA+5>
0

>  <PEOE_VSA+6>
0

>  <PEOE_VSA-0>
90.116791

>  <PEOE_VSA-1>
61.274521

>  <PEOE_VSA-2>
0

>  <PEOE_VSA-3>
0

>  <PEOE_VSA-4>
0

>  <PEOE_VSA-5>
13.566921

>  <PEOE_VSA-6>
5.0075121

>  <PEOE_VSA_FHYD>
0.95168364

>  <PEOE_VSA_FNEG>
0.44211981

>  <PEOE_VSA_FPNEG>
0.048316352

>  <PEOE_VSA_FPOL>
0.048316352

>  <PEOE_VSA_FPOS>
0.55788016

>  <PEOE_VSA_FPPOS>
0

>  <PEOE_VSA_HYD>
365.85925

>  <PEOE_VSA_NEG>
169.96574

>  <PEOE_VSA_PNEG>
18.574432

>  <PEOE_VSA_POL>
18.574432

>  <PEOE_VSA_POS>
214.46793

>  <PEOE_VSA_PPOS>
0

>  <petitjean>
0.5

>  <petitjeanSC>
1

>  <Q_PC+>
0

>  <Q_PC->
0

>  <Q_RPC+>
0

>  <Q_RPC->
0

>  <Q_VSA_FHYD>
1

>  <Q_VSA_FNEG>
0

>  <Q_VSA_FPNEG>
0

>  <Q_VSA_FPOL>
0

>  <Q_VSA_FPOS>
1

>  <Q_VSA_FPPOS>
0

>  <Q_VSA_HYD>
384.43369

>  <Q_VSA_NEG>
0

>  <Q_VSA_PNEG>
0

>  <Q_VSA_POL>
0

>  <Q_VSA_POS>
384.43369

>  <Q_VSA_PPOS>
0

>  <radius>
8

>  <reactive>
1

>  <rings>
4

>  <RPC+>
0

>  <RPC->
0

>  <rsynth>
1

>  <SlogP>
4.62747

>  <SlogP_VSA0>
21.999775

>  <SlogP_VSA1>
8.8119249

>  <SlogP_VSA2>
0

>  <SlogP_VSA3>
36.879158

>  <SlogP_VSA4>
42.240532

>  <SlogP_VSA5>
89.636139

>  <SlogP_VSA6>
0

>  <SlogP_VSA7>
123.50229

>  <SlogP_VSA8>
56.605217

>  <SlogP_VSA9>
28.926434

>  <SMR>
11.03355

>  <SMR_VSA0>
23.862217

>  <SMR_VSA1>
25.12409

>  <SMR_VSA2>
8.8215923

>  <SMR_VSA3>
20.043581

>  <SMR_VSA4>
0

>  <SMR_VSA5>
217.4155

>  <SMR_VSA6>
42.566769

>  <SMR_VSA7>
70.767738

>  <TPSA>
38.77

>  <VAdjEq>
0.39893496

>  <VAdjMa>
5.9541965

>  <VDistEq>
3.7705595

>  <VDistMa>
9.2776403

>  <vdw_area>
384.43369

>  <vdw_vol>
549.60626

>  <vsa_acc>
18.574432

>  <vsa_acid>
0

>  <vsa_base>
0

>  <vsa_don>
0

>  <vsa_hyd>
334.06854

>  <vsa_other>
8.458519

>  <vsa_pol>
18.574432

>  <Weight>
379.5

>  <weinerPath>
2333

>  <weinerPol>
44

>  <zagreb>
148

$$$$