O1CC(=CC1=O)[C@H]1CC[C@]2(O)[C@H]3[C@H](CC[C@]12C)[C@@]1([C@@H](C[C@@H](O[C@@H]2O[C@H](C)[C@@H](O[C@@H]4O[C@H](C)[C@@H](O[C@@H]5O[C@H](C)[C@@H](O)[C@@H](O)C5)[C@@H](O)C4)[C@@H](O)C2)CC1)CC3)C
  MOE2013           2D

 54 61  0  0  1  0  0  0  0  0999 V2000
    0.0000    0.0000    0.0000 O   0  0  0  0  0  0  0  0  0  0  0  0
    1.3780   -0.5920    0.0000 C   0  0  0  0  0  0  0  0  0  0  0  0
    1.2410   -2.0860    0.0000 C   0  0  0  0  0  0  0  0  0  0  0  0
   -0.2220   -2.4170    0.0000 C   0  0  0  0  0  0  0  0  0  0  0  0
   -0.9890   -1.1280    0.0000 C   0  0  0  0  0  0  0  0  0  0  0  0
   -2.4830   -0.9900    0.0000 O   0  0  0  0  0  0  0  0  0  0  0  0
    2.3680   -3.0750    0.0000 C   0  0  1  0  0  0  0  0  0  0  0  0
    2.2310   -4.5690    0.0000 C   0  0  0  0  0  0  0  0  0  0  0  0
    3.6090   -5.1610    0.0000 C   0  0  0  0  0  0  0  0  0  0  0  0
    4.5980   -4.0330    0.0000 C   0  0  2  0  0  0  0  0  0  0  0  0
    5.2500   -5.3850    0.0000 O   0  0  0  0  0  0  0  0  0  0  0  0
    6.0980   -4.0140    0.0000 C   0  0  1  0  0  0  0  0  0  0  0  0
    6.8310   -2.7050    0.0000 C   0  0  2  0  0  0  0  0  0  0  0  0
    6.0640   -1.4160    0.0000 C   0  0  0  0  0  0  0  0  0  0  0  0
    4.5640   -1.4360    0.0000 C   0  0  0  0  0  0  0  0  0  0  0  0
    3.8310   -2.7440    0.0000 C   0  0  2  0  0  0  0  0  0  0  0  0
    2.9550   -1.5270    0.0000 C   0  0  0  0  0  0  0  0  0  0  0  0
    8.3310   -2.6860    0.0000 C   0  0  2  0  0  0  0  0  0  0  0  0
    9.0980   -3.9750    0.0000 C   0  0  1  0  0  0  0  0  0  0  0  0
   10.5980   -3.9560    0.0000 C   0  0  0  0  0  0  0  0  0  0  0  0
   11.3310   -2.6470    0.0000 C   0  0  1  0  0  0  0  0  0  0  0  0
   12.8310   -2.6280    0.0000 O   0  0  0  0  0  0  0  0  0  0  0  0
   13.5640   -1.3190    0.0000 C   0  0  2  0  0  0  0  0  0  0  0  0
   15.0640   -1.3000    0.0000 O   0  0  0  0  0  0  0  0  0  0  0  0
   15.7970    0.0090    0.0000 C   0  0  2  0  0  0  0  0  0  0  0  0
   17.2970    0.0290    0.0000 C   0  0  0  0  0  0  0  0  0  0  0  0
   15.0300    1.2980    0.0000 C   0  0  1  0  0  0  0  0  0  0  0  0
   15.7630    2.6070    0.0000 O   0  0  0  0  0  0  0  0  0  0  0  0
   17.2630    2.6260    0.0000 C   0  0  2  0  0  0  0  0  0  0  0  0
   18.0300    1.3370    0.0000 O   0  0  0  0  0  0  0  0  0  0  0  0
   19.5300    1.3570    0.0000 C   0  0  2  0  0  0  0  0  0  0  0  0
   20.2960    0.0670    0.0000 C   0  0  0  0  0  0  0  0  0  0  0  0
   20.2630    2.6650    0.0000 C   0  0  1  0  0  0  0  0  0  0  0  0
   21.7620    2.6850    0.0000 O   0  0  0  0  0  0  0  0  0  0  0  0
   22.4960    3.9930    0.0000 C   0  0  2  0  0  0  0  0  0  0  0  0
   21.7290    5.2830    0.0000 O   0  0  0  0  0  0  0  0  0  0  0  0
   22.4620    6.5910    0.0000 C   0  0  2  0  0  0  0  0  0  0  0  0
   21.6950    7.8800    0.0000 C   0  0  0  0  0  0  0  0  0  0  0  0
   23.9620    6.6110    0.0000 C   0  0  1  0  0  0  0  0  0  0  0  0
   24.6950    7.9190    0.0000 O   0  0  0  0  0  0  0  0  0  0  0  0
   24.7290    5.3210    0.0000 C   0  0  1  0  0  0  0  0  0  0  0  0
   26.2280    5.3410    0.0000 O   0  0  0  0  0  0  0  0  0  0  0  0
   23.9950    4.0130    0.0000 C   0  0  0  0  0  0  0  0  0  0  0  0
   19.4960    3.9540    0.0000 C   0  0  1  0  0  0  0  0  0  0  0  0
   20.2290    5.2630    0.0000 O   0  0  0  0  0  0  0  0  0  0  0  0
   17.9960    3.9350    0.0000 C   0  0  0  0  0  0  0  0  0  0  0  0
   13.5300    1.2790    0.0000 C   0  0  1  0  0  0  0  0  0  0  0  0
   12.7630    2.5680    0.0000 O   0  0  0  0  0  0  0  0  0  0  0  0
   12.7970   -0.0300    0.0000 C   0  0  0  0  0  0  0  0  0  0  0  0
   10.5640   -1.3580    0.0000 C   0  0  0  0  0  0  0  0  0  0  0  0
    9.0640   -1.3770    0.0000 C   0  0  0  0  0  0  0  0  0  0  0  0
    8.3650   -5.2840    0.0000 C   0  0  0  0  0  0  0  0  0  0  0  0
    6.8650   -5.3030    0.0000 C   0  0  0  0  0  0  0  0  0  0  0  0
    7.5640   -1.3970    0.0000 C   0  0  0  0  0  0  0  0  0  0  0  0
  1  2  1  0  0  0  0
  1  5  1  0  0  0  0
  2  3  1  0  0  0  0
  3  4  2  0  0  0  0
  4  5  1  0  0  0  0
  5  6  2  0  0  0  0
  7  3  1  6  0  0  0
  7  8  1  0  0  0  0
  7 16  1  0  0  0  0
  8  9  1  0  0  0  0
  9 10  1  0  0  0  0
 10 11  1  6  0  0  0
 10 12  1  0  0  0  0
 10 16  1  0  0  0  0
 12 13  1  0  0  0  0
 12 53  1  1  0  0  0
 13 14  1  6  0  0  0
 13 18  1  0  0  0  0
 14 15  1  0  0  0  0
 15 16  1  0  0  0  0
 16 17  1  6  0  0  0
 18 19  1  0  0  0  0
 18 51  1  0  0  0  0
 18 54  1  6  0  0  0
 19 20  1  0  0  0  0
 19 52  1  1  0  0  0
 20 21  1  0  0  0  0
 21 22  1  6  0  0  0
 21 50  1  0  0  0  0
 23 22  1  1  0  0  0
 23 24  1  0  0  0  0
 23 49  1  0  0  0  0
 24 25  1  0  0  0  0
 25 26  1  1  0  0  0
 25 27  1  0  0  0  0
 27 28  1  6  0  0  0
 27 47  1  0  0  0  0
 29 28  1  1  0  0  0
 29 30  1  0  0  0  0
 29 46  1  0  0  0  0
 30 31  1  0  0  0  0
 31 32  1  1  0  0  0
 31 33  1  0  0  0  0
 33 34  1  6  0  0  0
 33 44  1  0  0  0  0
 35 34  1  6  0  0  0
 35 36  1  0  0  0  0
 35 43  1  0  0  0  0
 36 37  1  0  0  0  0
 37 38  1  6  0  0  0
 37 39  1  0  0  0  0
 39 40  1  1  0  0  0
 39 41  1  0  0  0  0
 41 42  1  1  0  0  0
 41 43  1  0  0  0  0
 44 45  1  6  0  0  0
 44 46  1  0  0  0  0
 47 48  1  6  0  0  0
 47 49  1  0  0  0  0
 50 51  1  0  0  0  0
 52 53  1  0  0  0  0
M  END
>  <Index>
323

>  <ID>
HT0665

>  <class>
0

>  <apol>
125.26075

>  <ast_fraglike>
0

>  <ast_fraglike_ext>
0

>  <ast_violation>
4

>  <ast_violation_ext>
6

>  <a_acc>
12

>  <a_acid>
0

>  <a_aro>
0

>  <a_base>
0

>  <a_count>
118

>  <a_don>
5

>  <a_donacc>
17

>  <a_heavy>
54

>  <a_hyd>
37

>  <a_IC>
160.38654

>  <a_ICM>
1.3592079

>  <a_nB>
0

>  <a_nBr>
0

>  <a_nC>
41

>  <a_nCl>
0

>  <a_nF>
0

>  <a_nH>
64

>  <a_nI>
0

>  <a_nN>
0

>  <a_nO>
13

>  <a_nP>
0

>  <a_nS>
0

>  <balabanJ>
0.82177591

>  <BCUT_PEOE_0>
-2.9947419

>  <BCUT_PEOE_1>
-0.4623861

>  <BCUT_PEOE_2>
0.57679433

>  <BCUT_PEOE_3>
2.9952967

>  <BCUT_SLOGP_0>
-2.9397373

>  <BCUT_SLOGP_1>
-0.51823902

>  <BCUT_SLOGP_2>
0.47132456

>  <BCUT_SLOGP_3>
3.055923

>  <BCUT_SMR_0>
-2.7450581

>  <BCUT_SMR_1>
-0.3749902

>  <BCUT_SMR_2>
0.64450908

>  <BCUT_SMR_3>
3.2432165

>  <bpol>
84.335251

>  <b_1rotN>
7

>  <b_1rotR>
0.1147541

>  <b_ar>
0

>  <b_count>
125

>  <b_double>
2

>  <b_heavy>
61

>  <b_max1len>
4

>  <b_rotN>
7

>  <b_rotR>
0.1147541

>  <b_single>
123

>  <b_triple>
0

>  <chi0>
38.318897

>  <chi0v>
32.586746

>  <chi0v_C>
27.084694

>  <chi0_C>
27.36915

>  <chi1>
25.590031

>  <chi1v>
20.839304

>  <chi1v_C>
16.057552

>  <chi1_C>
16.396051

>  <chiral>
20

>  <chiral_u>
0

>  <density>
0.75228035

>  <diameter>
28

>  <FCharge>
0

>  <GCUT_PEOE_0>
-0.80588126

>  <GCUT_PEOE_1>
-0.36461151

>  <GCUT_PEOE_2>
0.079558909

>  <GCUT_PEOE_3>
3.5776229

>  <GCUT_SLOGP_0>
-0.93971145

>  <GCUT_SLOGP_1>
-0.36621699

>  <GCUT_SLOGP_2>
-0.0082860654

>  <GCUT_SLOGP_3>
3.6333084

>  <GCUT_SMR_0>
-0.54112458

>  <GCUT_SMR_1>
-0.21774244

>  <GCUT_SMR_2>
0.13677825

>  <GCUT_SMR_3>
3.7919695

>  <Kier1>
40.764847

>  <Kier2>
15.550347

>  <Kier3>
7.3474345

>  <KierA1>
39.494095

>  <KierA2>
15.056435

>  <KierA3>
7.1110849

>  <KierFlex>
11.011856

>  <lip_acc>
13

>  <lip_don>
5

>  <lip_druglike>
0

>  <lip_violation>
2

>  <logP(o/w)>
4.3390002

>  <logS>
-6.3885102

>  <mr>
19.330442

>  <mutagenic>
0

>  <nmol>
1

>  <opr_brigid>
43

>  <opr_leadlike>
0

>  <opr_nring>
8

>  <opr_nrot>
13

>  <opr_violation>
4

>  <PC+>
0

>  <PC->
0

>  <PEOE_PC+>
5.2925048

>  <PEOE_PC->
-5.2925048

>  <PEOE_RPC+>
0.054212268

>  <PEOE_RPC->
0.073496327

>  <PEOE_VSA+0>
221.77045

>  <PEOE_VSA+1>
117.53197

>  <PEOE_VSA+2>
14.714787

>  <PEOE_VSA+3>
33.464725

>  <PEOE_VSA+4>
51.620865

>  <PEOE_VSA+5>
14.708499

>  <PEOE_VSA+6>
0

>  <PEOE_VSA-0>
136.7634

>  <PEOE_VSA-1>
37.495354

>  <PEOE_VSA-2>
0

>  <PEOE_VSA-3>
0

>  <PEOE_VSA-4>
0

>  <PEOE_VSA-5>
13.566921

>  <PEOE_VSA-6>
56.363995

>  <PEOE_VSA_FHYD>
0.80478495

>  <PEOE_VSA_FNEG>
0.34984145

>  <PEOE_VSA_FPNEG>
0.10018742

>  <PEOE_VSA_FPOL>
0.19521503

>  <PEOE_VSA_FPOS>
0.65015852

>  <PEOE_VSA_FPPOS>
0.095027611

>  <PEOE_VSA_HYD>
561.74066

>  <PEOE_VSA_NEG>
244.18967

>  <PEOE_VSA_PNEG>
69.930916

>  <PEOE_VSA_POL>
136.26028

>  <PEOE_VSA_POS>
453.81128

>  <PEOE_VSA_PPOS>
66.329361

>  <petitjean>
0.5

>  <petitjeanSC>
1

>  <Q_PC+>
0

>  <Q_PC->
0

>  <Q_RPC+>
0

>  <Q_RPC->
0

>  <Q_VSA_FHYD>
1

>  <Q_VSA_FNEG>
0

>  <Q_VSA_FPNEG>
0

>  <Q_VSA_FPOL>
0

>  <Q_VSA_FPOS>
1

>  <Q_VSA_FPPOS>
0

>  <Q_VSA_HYD>
698.00098

>  <Q_VSA_NEG>
0

>  <Q_VSA_PNEG>
0

>  <Q_VSA_POL>
0

>  <Q_VSA_POS>
698.00098

>  <Q_VSA_PPOS>
0

>  <radius>
14

>  <reactive>
1

>  <rings>
8

>  <RPC+>
0

>  <RPC->
0

>  <rsynth>
0.57407409

>  <SlogP>
3.2472999

>  <SlogP_VSA0>
126.92613

>  <SlogP_VSA1>
7.7454643

>  <SlogP_VSA2>
191.12743

>  <SlogP_VSA3>
20.926258

>  <SlogP_VSA4>
17.643185

>  <SlogP_VSA5>
3.185575

>  <SlogP_VSA6>
0

>  <SlogP_VSA7>
17.643185

>  <SlogP_VSA8>
226.42087

>  <SlogP_VSA9>
166.63008

>  <SMR>
19.122101

>  <SMR_VSA0>
100.86143

>  <SMR_VSA1>
126.92613

>  <SMR_VSA2>
17.643185

>  <SMR_VSA3>
93.451576

>  <SMR_VSA4>
0

>  <SMR_VSA5>
244.06406

>  <SMR_VSA6>
28.671722

>  <SMR_VSA7>
166.63008

>  <TPSA>
182.83

>  <VAdjEq>
0.25065741

>  <VAdjMa>
6.9307375

>  <VDistEq>
4.5317011

>  <VDistMa>
11.164624

>  <vdw_area>
698.00098

>  <vdw_vol>
1016.8416

>  <vsa_acc>
28.589458

>  <vsa_acid>
0

>  <vsa_base>
0

>  <vsa_don>
0

>  <vsa_hyd>
470.23904

>  <vsa_other>
61.337753

>  <vsa_pol>
96.424065

>  <Weight>
764.94995

>  <weinerPath>
14382

>  <weinerPol>
109

>  <zagreb>
314

$$$$