S(=O)(=O)(Nc1ccc(cc1)CCN(CCOc1ccc(NS(=O)(=O)C)cc1)C)C
  MOE2013           2D

 29 30  0  0  1  0  0  0  0  0999 V2000
    0.0000    0.0000    0.0000 S   0  0  0  0  0  0  0  0  0  0  0  0
    0.9760   -1.1390    0.0000 O   0  0  0  0  0  0  0  0  0  0  0  0
   -0.9760    1.1390    0.0000 O   0  0  0  0  0  0  0  0  0  0  0  0
   -1.1390   -0.9760    0.0000 N   0  0  0  0  0  0  0  0  0  0  0  0
   -2.5540   -0.4780    0.0000 C   0  0  0  0  0  0  0  0  0  0  0  0
   -2.8300    0.9960    0.0000 C   0  0  0  0  0  0  0  0  0  0  0  0
   -4.2450    1.4940    0.0000 C   0  0  0  0  0  0  0  0  0  0  0  0
   -5.3830    0.5180    0.0000 C   0  0  0  0  0  0  0  0  0  0  0  0
   -5.1070   -0.9560    0.0000 C   0  0  0  0  0  0  0  0  0  0  0  0
   -3.6930   -1.4540    0.0000 C   0  0  0  0  0  0  0  0  0  0  0  0
   -6.7980    1.0160    0.0000 C   0  0  0  0  0  0  0  0  0  0  0  0
   -7.9370    0.0400    0.0000 C   0  0  0  0  0  0  0  0  0  0  0  0
   -9.3520    0.5380    0.0000 N   0  0  3  0  0  0  0  0  0  0  0  0
  -10.4910   -0.4380    0.0000 C   0  0  0  0  0  0  0  0  0  0  0  0
  -11.9060    0.0600    0.0000 C   0  0  0  0  0  0  0  0  0  0  0  0
  -13.0450   -0.9160    0.0000 O   0  0  0  0  0  0  0  0  0  0  0  0
  -14.4590   -0.4180    0.0000 C   0  0  0  0  0  0  0  0  0  0  0  0
  -15.5980   -1.3940    0.0000 C   0  0  0  0  0  0  0  0  0  0  0  0
  -17.0130   -0.8960    0.0000 C   0  0  0  0  0  0  0  0  0  0  0  0
  -17.2890    0.5780    0.0000 C   0  0  0  0  0  0  0  0  0  0  0  0
  -18.7040    1.0760    0.0000 N   0  0  0  0  0  0  0  0  0  0  0  0
  -19.8430    0.1000    0.0000 S   0  0  0  0  0  0  0  0  0  0  0  0
  -20.8190    1.2390    0.0000 O   0  0  0  0  0  0  0  0  0  0  0  0
  -18.8670   -1.0390    0.0000 O   0  0  0  0  0  0  0  0  0  0  0  0
  -20.9820   -0.8760    0.0000 C   0  0  0  0  0  0  0  0  0  0  0  0
  -16.1500    1.5540    0.0000 C   0  0  0  0  0  0  0  0  0  0  0  0
  -14.7350    1.0560    0.0000 C   0  0  0  0  0  0  0  0  0  0  0  0
   -9.6280    2.0130    0.0000 C   0  0  0  0  0  0  0  0  0  0  0  0
    1.1390    0.9760    0.0000 C   0  0  0  0  0  0  0  0  0  0  0  0
  1  2  2  0  0  0  0
  1  3  2  0  0  0  0
  1  4  1  0  0  0  0
  1 29  1  0  0  0  0
  4  5  1  0  0  0  0
  5  6  1  0  0  0  0
  5 10  2  0  0  0  0
  6  7  2  0  0  0  0
  7  8  1  0  0  0  0
  8  9  2  0  0  0  0
  8 11  1  0  0  0  0
  9 10  1  0  0  0  0
 11 12  1  0  0  0  0
 12 13  1  0  0  0  0
 13 14  1  0  0  0  0
 13 28  1  0  0  0  0
 14 15  1  0  0  0  0
 15 16  1  0  0  0  0
 16 17  1  0  0  0  0
 17 18  1  0  0  0  0
 17 27  2  0  0  0  0
 18 19  2  0  0  0  0
 19 20  1  0  0  0  0
 20 21  1  0  0  0  0
 20 26  2  0  0  0  0
 21 22  1  0  0  0  0
 22 23  2  0  0  0  0
 22 24  2  0  0  0  0
 22 25  1  0  0  0  0
 26 27  1  0  0  0  0
M  END
>  <Index>
342

>  <ID>
HT0705

>  <class>
0

>  <apol>
64.553413

>  <ast_fraglike>
0

>  <ast_fraglike_ext>
0

>  <ast_violation>
2

>  <ast_violation_ext>
4

>  <a_acc>
6

>  <a_acid>
0

>  <a_aro>
12

>  <a_base>
0

>  <a_count>
56

>  <a_don>
2

>  <a_donacc>
8

>  <a_heavy>
29

>  <a_hyd>
19

>  <a_IC>
97.754761

>  <a_ICM>
1.7456207

>  <a_nB>
0

>  <a_nBr>
0

>  <a_nC>
19

>  <a_nCl>
0

>  <a_nF>
0

>  <a_nH>
27

>  <a_nI>
0

>  <a_nN>
3

>  <a_nO>
5

>  <a_nP>
0

>  <a_nS>
2

>  <balabanJ>
1.5031087

>  <BCUT_PEOE_0>
-2.6455791

>  <BCUT_PEOE_1>
-0.5973891

>  <BCUT_PEOE_2>
0.6097244

>  <BCUT_PEOE_3>
2.5538709

>  <BCUT_SLOGP_0>
-2.742614

>  <BCUT_SLOGP_1>
-0.51027185

>  <BCUT_SLOGP_2>
0.67753273

>  <BCUT_SLOGP_3>
2.503263

>  <BCUT_SMR_0>
-2.3680573

>  <BCUT_SMR_1>
-0.43322438

>  <BCUT_SMR_2>
0.78002042

>  <BCUT_SMR_3>
2.8332105

>  <bpol>
47.684589

>  <b_1rotN>
11

>  <b_1rotR>
0.36666667

>  <b_ar>
12

>  <b_count>
57

>  <b_double>
0

>  <b_heavy>
30

>  <b_max1len>
6

>  <b_rotN>
11

>  <b_rotR>
0.36666667

>  <b_single>
45

>  <b_triple>
0

>  <chi0>
21.493353

>  <chi0v>
18.385174

>  <chi0v_C>
12.447229

>  <chi0_C>
13.794683

>  <chi1>
13.499933

>  <chi1v>
12.74299

>  <chi1v_C>
4.9962878

>  <chi1_C>
6.6742344

>  <chiral>
0

>  <chiral_u>
0

>  <density>
0.79808569

>  <diameter>
19

>  <FCharge>
0

>  <GCUT_PEOE_0>
-0.85570425

>  <GCUT_PEOE_1>
-0.40371811

>  <GCUT_PEOE_2>
0.040321436

>  <GCUT_PEOE_3>
2.5890434

>  <GCUT_SLOGP_0>
-0.96295017

>  <GCUT_SLOGP_1>
-0.35981748

>  <GCUT_SLOGP_2>
0.11587676

>  <GCUT_SLOGP_3>
2.6500721

>  <GCUT_SMR_0>
-0.51873124

>  <GCUT_SMR_1>
-0.18405686

>  <GCUT_SMR_2>
0.16422118

>  <GCUT_SMR_3>
2.8712447

>  <Kier1>
25.262222

>  <Kier2>
11.571428

>  <Kier3>
11.259964

>  <KierA1>
22.929913

>  <KierA2>
10.465301

>  <KierA3>
10.156615

>  <KierFlex>
8.2747736

>  <lip_acc>
8

>  <lip_don>
2

>  <lip_druglike>
1

>  <lip_violation>
0

>  <logP(o/w)>
1.8049999

>  <logS>
-2.83848

>  <mr>
11.45802

>  <mutagenic>
0

>  <nmol>
1

>  <opr_brigid>
12

>  <opr_leadlike>
1

>  <opr_nring>
2

>  <opr_nrot>
9

>  <opr_violation>
0

>  <PC+>
0

>  <PC->
0

>  <PEOE_PC+>
2.4509096

>  <PEOE_PC->
-2.4509096

>  <PEOE_RPC+>
0.075649805

>  <PEOE_RPC->
0.14012477

>  <PEOE_VSA+0>
84.984337

>  <PEOE_VSA+1>
83.301697

>  <PEOE_VSA+2>
25.592316

>  <PEOE_VSA+3>
41.447479

>  <PEOE_VSA+4>
0

>  <PEOE_VSA+5>
0

>  <PEOE_VSA+6>
0

>  <PEOE_VSA-0>
72.057449

>  <PEOE_VSA-1>
73.529427

>  <PEOE_VSA-2>
0

>  <PEOE_VSA-3>
5.0590429

>  <PEOE_VSA-4>
64.033043

>  <PEOE_VSA-5>
0

>  <PEOE_VSA-6>
2.503756

>  <PEOE_VSA_FHYD>
0.85296011

>  <PEOE_VSA_FNEG>
0.47995275

>  <PEOE_VSA_FPNEG>
0.14703988

>  <PEOE_VSA_FPOL>
0.14703988

>  <PEOE_VSA_FPOS>
0.52004725

>  <PEOE_VSA_FPPOS>
0

>  <PEOE_VSA_HYD>
385.97174

>  <PEOE_VSA_NEG>
217.18272

>  <PEOE_VSA_PNEG>
66.536804

>  <PEOE_VSA_POL>
66.536804

>  <PEOE_VSA_POS>
235.32584

>  <PEOE_VSA_PPOS>
0

>  <petitjean>
0.47368422

>  <petitjeanSC>
0.89999998

>  <Q_PC+>
0

>  <Q_PC->
0

>  <Q_RPC+>
0

>  <Q_RPC->
0

>  <Q_VSA_FHYD>
1

>  <Q_VSA_FNEG>
0

>  <Q_VSA_FPNEG>
0

>  <Q_VSA_FPOL>
0

>  <Q_VSA_FPOS>
1

>  <Q_VSA_FPPOS>
0

>  <Q_VSA_HYD>
452.50854

>  <Q_VSA_NEG>
0

>  <Q_VSA_PNEG>
0

>  <Q_VSA_POL>
0

>  <Q_VSA_POS>
452.50854

>  <Q_VSA_PPOS>
0

>  <radius>
10

>  <reactive>
0

>  <rings>
2

>  <RPC+>
0

>  <RPC->
0

>  <rsynth>
1

>  <SlogP>
1.98287

>  <SlogP_VSA0>
10.999887

>  <SlogP_VSA1>
132.27768

>  <SlogP_VSA2>
13.281486

>  <SlogP_VSA3>
57.805416

>  <SlogP_VSA4>
3.185575

>  <SlogP_VSA5>
115.14794

>  <SlogP_VSA6>
0

>  <SlogP_VSA7>
141.14548

>  <SlogP_VSA8>
0

>  <SlogP_VSA9>
10.756924

>  <SMR>
11.6513

>  <SMR_VSA0>
96.343376

>  <SMR_VSA1>
14.124202

>  <SMR_VSA2>
0

>  <SMR_VSA3>
8.4290028

>  <SMR_VSA4>
38.32349

>  <SMR_VSA5>
160.01389

>  <SMR_VSA6>
57.805416

>  <SMR_VSA7>
109.56102

>  <TPSA>
104.81

>  <VAdjEq>
0.37091795

>  <VAdjMa>
5.9068904

>  <VDistEq>
4.081883

>  <VDistMa>
9.350894

>  <vdw_area>
452.50854

>  <vdw_vol>
553.29022

>  <vsa_acc>
66.536804

>  <vsa_acid>
0

>  <vsa_base>
0

>  <vsa_don>
16.150414

>  <vsa_hyd>
325.66858

>  <vsa_other>
20.211216

>  <vsa_pol>
82.687218

>  <Weight>
441.573

>  <weinerPath>
3074

>  <weinerPol>
35

>  <zagreb>
144

$$$$