O1[C@@H](CC[C@@H]1n1c2N=CNC(=O)c2nc1)CO
  MOE2013           2D

 17 19  0  0  1  0  0  0  0  0999 V2000
    0.0000    0.0000    0.0000 O   0  0  0  0  0  0  0  0  0  0  0  0
    1.2030    0.8960    0.0000 C   0  0  1  0  0  0  0  0  0  0  0  0
    0.7230    2.3170    0.0000 C   0  0  0  0  0  0  0  0  0  0  0  0
   -0.7770    2.2990    0.0000 C   0  0  0  0  0  0  0  0  0  0  0  0
   -1.2240    0.8680    0.0000 C   0  0  2  0  0  0  0  0  0  0  0  0
   -2.6450    0.3880    0.0000 N   0  0  0  0  0  0  0  0  0  0  0  0
   -3.8680    1.2550    0.0000 C   0  0  0  0  0  0  0  0  0  0  0  0
   -4.0420    2.7450    0.0000 N   0  0  0  0  0  0  0  0  0  0  0  0
   -5.4200    3.3390    0.0000 C   0  0  0  0  0  0  0  0  0  0  0  0
   -6.6230    2.4440    0.0000 N   0  0  0  0  0  0  0  0  0  0  0  0
   -6.4490    0.9540    0.0000 C   0  0  0  0  0  0  0  0  0  0  0  0
   -7.6520    0.0580    0.0000 O   0  0  0  0  0  0  0  0  0  0  0  0
   -5.0720    0.3590    0.0000 C   0  0  0  0  0  0  0  0  0  0  0  0
   -4.5920   -1.0620    0.0000 N   0  0  0  0  0  0  0  0  0  0  0  0
   -3.0920   -1.0440    0.0000 C   0  0  0  0  0  0  0  0  0  0  0  0
    2.6350    0.4490    0.0000 C   0  0  0  0  0  0  0  0  0  0  0  0
    3.7380    1.4650    0.0000 O   0  0  0  0  0  0  0  0  0  0  0  0
  1  2  1  0  0  0  0
  1  5  1  0  0  0  0
  2  3  1  0  0  0  0
  2 16  1  1  0  0  0
  3  4  1  0  0  0  0
  4  5  1  0  0  0  0
  5  6  1  1  0  0  0
  6  7  1  0  0  0  0
  6 15  1  0  0  0  0
  7  8  1  0  0  0  0
  7 13  2  0  0  0  0
  8  9  2  0  0  0  0
  9 10  1  0  0  0  0
 10 11  1  0  0  0  0
 11 12  2  0  0  0  0
 11 13  1  0  0  0  0
 13 14  1  0  0  0  0
 14 15  2  0  0  0  0
 16 17  1  0  0  0  0
M  END
>  <Index>
316

>  <ID>
HT0652

>  <class>
0

>  <apol>
32.407516

>  <ast_fraglike>
0

>  <ast_fraglike_ext>
0

>  <ast_violation>
1

>  <ast_violation_ext>
1

>  <a_acc>
5

>  <a_acid>
0

>  <a_aro>
5

>  <a_base>
0

>  <a_count>
29

>  <a_don>
2

>  <a_donacc>
7

>  <a_heavy>
17

>  <a_hyd>
5

>  <a_IC>
51.88773

>  <a_ICM>
1.7892321

>  <a_nB>
0

>  <a_nBr>
0

>  <a_nC>
10

>  <a_nCl>
0

>  <a_nF>
0

>  <a_nH>
12

>  <a_nI>
0

>  <a_nN>
4

>  <a_nO>
3

>  <a_nP>
0

>  <a_nS>
0

>  <balabanJ>
1.6551943

>  <BCUT_PEOE_0>
-2.5045779

>  <BCUT_PEOE_1>
-0.59803402

>  <BCUT_PEOE_2>
0.66541868

>  <BCUT_PEOE_3>
2.7150743

>  <BCUT_SLOGP_0>
-2.5750935

>  <BCUT_SLOGP_1>
-0.60921776

>  <BCUT_SLOGP_2>
0.58073586

>  <BCUT_SLOGP_3>
2.7617471

>  <BCUT_SMR_0>
-2.2947116

>  <BCUT_SMR_1>
-0.47002429

>  <BCUT_SMR_2>
0.78532505

>  <BCUT_SMR_3>
2.9363589

>  <bpol>
21.272484

>  <b_1rotN>
2

>  <b_1rotR>
0.10526316

>  <b_ar>
5

>  <b_count>
31

>  <b_double>
2

>  <b_heavy>
19

>  <b_max1len>
4

>  <b_rotN>
2

>  <b_rotR>
0.10526316

>  <b_single>
24

>  <b_triple>
0

>  <chi0>
11.828063

>  <chi0v>
9.0360727

>  <chi0v_C>
5.9307213

>  <chi0_C>
6.4222851

>  <chi1>
8.2920246

>  <chi1v>
5.4587922

>  <chi1v_C>
2.2247448

>  <chi1_C>
2.3914115

>  <chiral>
2

>  <chiral_u>
0

>  <density>
0.83164066

>  <diameter>
9

>  <FCharge>
0

>  <GCUT_PEOE_0>
-0.81202114

>  <GCUT_PEOE_1>
-0.45299786

>  <GCUT_PEOE_2>
0.10842951

>  <GCUT_PEOE_3>
2.5093234

>  <GCUT_SLOGP_0>
-1.168587

>  <GCUT_SLOGP_1>
-0.36727881

>  <GCUT_SLOGP_2>
0.095649146

>  <GCUT_SLOGP_3>
2.5430326

>  <GCUT_SMR_0>
-0.52752811

>  <GCUT_SMR_1>
-0.24112724

>  <GCUT_SMR_2>
0.19395322

>  <GCUT_SMR_3>
2.7469783

>  <Kier1>
12.055402

>  <Kier2>
4.9382715

>  <Kier3>
2.1717451

>  <KierA1>
9.0273542

>  <KierA2>
3.625

>  <KierA3>
1.5689924

>  <KierFlex>
1.9249506

>  <lip_acc>
7

>  <lip_don>
2

>  <lip_druglike>
1

>  <lip_violation>
0

>  <logP(o/w)>
-0.53899997

>  <logS>
-1.42335

>  <mr>
5.8234987

>  <mutagenic>
0

>  <nmol>
1

>  <opr_brigid>
15

>  <opr_leadlike>
1

>  <opr_nring>
3

>  <opr_nrot>
3

>  <opr_violation>
0

>  <PC+>
0

>  <PC->
0

>  <PEOE_PC+>
2.0798881

>  <PEOE_PC->
-2.0798881

>  <PEOE_RPC+>
0.13412541

>  <PEOE_RPC->
0.18869197

>  <PEOE_VSA+0>
17.061544

>  <PEOE_VSA+1>
58.154694

>  <PEOE_VSA+2>
39.163639

>  <PEOE_VSA+3>
26.509127

>  <PEOE_VSA+4>
10.324173

>  <PEOE_VSA+5>
12.949531

>  <PEOE_VSA+6>
0

>  <PEOE_VSA-0>
17.402626

>  <PEOE_VSA-1>
0

>  <PEOE_VSA-2>
0

>  <PEOE_VSA-3>
0

>  <PEOE_VSA-4>
11.365152

>  <PEOE_VSA-5>
13.566921

>  <PEOE_VSA-6>
10.408187

>  <PEOE_VSA_FHYD>
0.72977203

>  <PEOE_VSA_FNEG>
0.24316056

>  <PEOE_VSA_FPNEG>
0.16292922

>  <PEOE_VSA_FPOL>
0.270228

>  <PEOE_VSA_FPOS>
0.75683945

>  <PEOE_VSA_FPPOS>
0.10729877

>  <PEOE_VSA_HYD>
158.29163

>  <PEOE_VSA_NEG>
52.742886

>  <PEOE_VSA_PNEG>
35.34026

>  <PEOE_VSA_POL>
58.613964

>  <PEOE_VSA_POS>
164.1627

>  <PEOE_VSA_PPOS>
23.273705

>  <petitjean>
0.44444445

>  <petitjeanSC>
0.80000001

>  <Q_PC+>
0

>  <Q_PC->
0

>  <Q_RPC+>
0

>  <Q_RPC->
0

>  <Q_VSA_FHYD>
1

>  <Q_VSA_FNEG>
0

>  <Q_VSA_FPNEG>
0

>  <Q_VSA_FPOL>
0

>  <Q_VSA_FPOS>
1

>  <Q_VSA_FPPOS>
0

>  <Q_VSA_HYD>
216.90559

>  <Q_VSA_NEG>
0

>  <Q_VSA_PNEG>
0

>  <Q_VSA_POL>
0

>  <Q_VSA_POS>
216.90559

>  <Q_VSA_PPOS>
0

>  <radius>
5

>  <reactive>
0

>  <rings>
3

>  <RPC+>
0

>  <RPC->
0

>  <rsynth>
1

>  <SlogP>
0.0517

>  <SlogP_VSA0>
43.395977

>  <SlogP_VSA1>
23.943405

>  <SlogP_VSA2>
34.254066

>  <SlogP_VSA3>
20.926258

>  <SlogP_VSA4>
26.618963

>  <SlogP_VSA5>
16.78553

>  <SlogP_VSA6>
0

>  <SlogP_VSA7>
16.78553

>  <SlogP_VSA8>
43.776634

>  <SlogP_VSA9>
2.3279202

>  <SMR>
5.8186002

>  <SMR_VSA0>
34.862103

>  <SMR_VSA1>
60.855377

>  <SMR_VSA2>
18.01075

>  <SMR_VSA3>
15.265219

>  <SMR_VSA4>
2.3279202

>  <SMR_VSA5>
54.522339

>  <SMR_VSA6>
26.185041

>  <SMR_VSA7>
16.78553

>  <TPSA>
88.739998

>  <VAdjEq>
0.56150466

>  <VAdjMa>
5.2479277

>  <VDistEq>
2.9070592

>  <VDistMa>
7.8708148

>  <vdw_area>
216.90559

>  <vdw_vol>
284.05417

>  <vsa_acc>
27.435829

>  <vsa_acid>
0

>  <vsa_base>
0

>  <vsa_don>
5.6825762

>  <vsa_hyd>
68.833534

>  <vsa_other>
86.670662

>  <vsa_pol>
46.685326

>  <Weight>
236.231

>  <weinerPath>
502

>  <weinerPol>
25

>  <zagreb>
92

$$$$