F[C@@]12[C@H]([C@@H]3C[C@@H](C)[C@](O)(C(=O)COC(=O)C)[C@]3(C[C@@H]1O)C)CCC1=CC(=O)C=C[C@@]12C
  MOE2013           2D

 31 34  0  0  1  0  0  0  0  0999 V2000
    0.0000    0.0000    0.0000 F   0  0  0  0  0  0  0  0  0  0  0  0
   -1.5000   -0.0080    0.0000 C   0  0  1  0  0  0  0  0  0  0  0  0
   -0.7430   -1.3030    0.0000 C   0  0  2  0  0  0  0  0  0  0  0  0
    0.7560   -1.2950    0.0000 C   0  0  2  0  0  0  0  0  0  0  0  0
    1.7660   -2.4050    0.0000 C   0  0  0  0  0  0  0  0  0  0  0  0
    3.1330   -1.7880    0.0000 C   0  0  1  0  0  0  0  0  0  0  0  0
    4.4360   -2.5310    0.0000 C   0  0  0  0  0  0  0  0  0  0  0  0
    2.9690   -0.2970    0.0000 C   0  0  2  0  0  0  0  0  0  0  0  0
    3.4500    1.1240    0.0000 O   0  0  0  0  0  0  0  0  0  0  0  0
    4.4490   -0.0550    0.0000 C   0  0  0  0  0  0  0  0  0  0  0  0
    5.3990   -1.2160    0.0000 O   0  0  0  0  0  0  0  0  0  0  0  0
    4.9800    1.3480    0.0000 C   0  0  0  0  0  0  0  0  0  0  0  0
    6.4600    1.5900    0.0000 O   0  0  0  0  0  0  0  0  0  0  0  0
    6.9910    2.9930    0.0000 C   0  0  0  0  0  0  0  0  0  0  0  0
    6.0410    4.1540    0.0000 O   0  0  0  0  0  0  0  0  0  0  0  0
    8.4710    3.2350    0.0000 C   0  0  0  0  0  0  0  0  0  0  0  0
    1.5000    0.0080    0.0000 C   0  0  1  0  0  0  0  0  0  0  0  0
    0.7430    1.3030    0.0000 C   0  0  0  0  0  0  0  0  0  0  0  0
   -0.7560    1.2950    0.0000 C   0  0  2  0  0  0  0  0  0  0  0  0
   -1.5130    2.5910    0.0000 O   0  0  0  0  0  0  0  0  0  0  0  0
    2.3540    1.2410    0.0000 C   0  0  0  0  0  0  0  0  0  0  0  0
   -1.4870   -2.6060    0.0000 C   0  0  0  0  0  0  0  0  0  0  0  0
   -2.9870   -2.6130    0.0000 C   0  0  0  0  0  0  0  0  0  0  0  0
   -3.7430   -1.3180    0.0000 C   0  0  0  0  0  0  0  0  0  0  0  0
   -5.2430   -1.3250    0.0000 C   0  0  0  0  0  0  0  0  0  0  0  0
   -6.0000   -0.0300    0.0000 C   0  0  0  0  0  0  0  0  0  0  0  0
   -7.5000   -0.0380    0.0000 O   0  0  0  0  0  0  0  0  0  0  0  0
   -5.2560    1.2730    0.0000 C   0  0  0  0  0  0  0  0  0  0  0  0
   -3.7560    1.2800    0.0000 C   0  0  0  0  0  0  0  0  0  0  0  0
   -3.0000   -0.0150    0.0000 C   0  0  2  0  0  0  0  0  0  0  0  0
   -2.2560    1.2880    0.0000 C   0  0  0  0  0  0  0  0  0  0  0  0
  2  1  1  6  0  0  0
  2  3  1  0  0  0  0
  2 19  1  0  0  0  0
  2 30  1  0  0  0  0
  3  4  1  0  0  0  0
  3 22  1  6  0  0  0
  4  5  1  1  0  0  0
  4 17  1  0  0  0  0
  5  6  1  0  0  0  0
  6  7  1  6  0  0  0
  6  8  1  0  0  0  0
  8  9  1  6  0  0  0
  8 10  1  1  0  0  0
  8 17  1  0  0  0  0
 10 11  2  0  0  0  0
 10 12  1  0  0  0  0
 12 13  1  0  0  0  0
 13 14  1  0  0  0  0
 14 15  2  0  0  0  0
 14 16  1  0  0  0  0
 17 18  1  0  0  0  0
 17 21  1  1  0  0  0
 18 19  1  0  0  0  0
 19 20  1  1  0  0  0
 22 23  1  0  0  0  0
 23 24  1  0  0  0  0
 24 25  2  0  0  0  0
 24 30  1  0  0  0  0
 25 26  1  0  0  0  0
 26 27  2  0  0  0  0
 26 28  1  0  0  0  0
 28 29  2  0  0  0  0
 29 30  1  0  0  0  0
 30 31  1  1  0  0  0
M  END
>  <Index>
302

>  <ID>
HT0621

>  <class>
0

>  <apol>
68.279587

>  <ast_fraglike>
0

>  <ast_fraglike_ext>
0

>  <ast_violation>
2

>  <ast_violation_ext>
3

>  <a_acc>
5

>  <a_acid>
0

>  <a_aro>
0

>  <a_base>
0

>  <a_count>
62

>  <a_don>
2

>  <a_donacc>
7

>  <a_heavy>
31

>  <a_hyd>
22

>  <a_IC>
90.031212

>  <a_ICM>
1.4521163

>  <a_nB>
0

>  <a_nBr>
0

>  <a_nC>
24

>  <a_nCl>
0

>  <a_nF>
1

>  <a_nH>
31

>  <a_nI>
0

>  <a_nN>
0

>  <a_nO>
6

>  <a_nP>
0

>  <a_nS>
0

>  <balabanJ>
1.6975641

>  <BCUT_PEOE_0>
-2.8985252

>  <BCUT_PEOE_1>
-0.49986792

>  <BCUT_PEOE_2>
0.47602162

>  <BCUT_PEOE_3>
3.0002661

>  <BCUT_SLOGP_0>
-2.9230819

>  <BCUT_SLOGP_1>
-0.42677349

>  <BCUT_SLOGP_2>
0.50877959

>  <BCUT_SLOGP_3>
2.99757

>  <BCUT_SMR_0>
-2.6717672

>  <BCUT_SMR_1>
-0.33563134

>  <BCUT_SMR_2>
0.62787855

>  <BCUT_SMR_3>
3.2263048

>  <bpol>
39.882416

>  <b_1rotN>
3

>  <b_1rotR>
0.088235296

>  <b_ar>
0

>  <b_count>
65

>  <b_double>
5

>  <b_heavy>
34

>  <b_max1len>
5

>  <b_rotN>
4

>  <b_rotR>
0.11764706

>  <b_single>
60

>  <b_triple>
0

>  <chi0>
22.982763

>  <chi0v>
18.48237

>  <chi0v_C>
15.576985

>  <chi0_C>
16.275656

>  <chi1>
14.319076

>  <chi1v>
11.023031

>  <chi1v_C>
9.2470713

>  <chi1_C>
10.101426

>  <chiral>
8

>  <chiral_u>
0

>  <density>
0.76605999

>  <diameter>
14

>  <FCharge>
0

>  <GCUT_PEOE_0>
-0.79043633

>  <GCUT_PEOE_1>
-0.39184248

>  <GCUT_PEOE_2>
0.01087896

>  <GCUT_PEOE_3>
3.3929408

>  <GCUT_SLOGP_0>
-0.94443142

>  <GCUT_SLOGP_1>
-0.31849846

>  <GCUT_SLOGP_2>
-6.4704283e-005

>  <GCUT_SLOGP_3>
3.4142091

>  <GCUT_SMR_0>
-0.53789532

>  <GCUT_SMR_1>
-0.21339229

>  <GCUT_SMR_2>
0.14394836

>  <GCUT_SMR_3>
3.6088424

>  <Kier1>
24.134949

>  <Kier2>
7.7654662

>  <Kier3>
3.1074119

>  <KierA1>
20.773548

>  <KierA2>
6.6489291

>  <KierA3>
2.6504188

>  <KierFlex>
4.455544

>  <lip_acc>
6

>  <lip_don>
2

>  <lip_druglike>
1

>  <lip_violation>
0

>  <logP(o/w)>
2.74

>  <logS>
-3.7972

>  <mr>
11.129611

>  <mutagenic>
0

>  <nmol>
1

>  <opr_brigid>
20

>  <opr_leadlike>
1

>  <opr_nring>
4

>  <opr_nrot>
3

>  <opr_violation>
0

>  <PC+>
0

>  <PC->
0

>  <PEOE_PC+>
2.6427629

>  <PEOE_PC->
-2.6427629

>  <PEOE_RPC+>
0.098166369

>  <PEOE_RPC->
0.14703575

>  <PEOE_VSA+0>
116.85155

>  <PEOE_VSA+1>
30.497244

>  <PEOE_VSA+2>
14.951293

>  <PEOE_VSA+3>
16.917038

>  <PEOE_VSA+4>
20.648346

>  <PEOE_VSA+5>
14.708499

>  <PEOE_VSA+6>
0

>  <PEOE_VSA-0>
78.062737

>  <PEOE_VSA-1>
51.958797

>  <PEOE_VSA-2>
0

>  <PEOE_VSA-3>
0

>  <PEOE_VSA-4>
11.908636

>  <PEOE_VSA-5>
40.700764

>  <PEOE_VSA-6>
18.038837

>  <PEOE_VSA_FHYD>
0.74471599

>  <PEOE_VSA_FNEG>
0.48325777

>  <PEOE_VSA_FPNEG>
0.17013678

>  <PEOE_VSA_FPOL>
0.25528398

>  <PEOE_VSA_FPOS>
0.51674223

>  <PEOE_VSA_FPPOS>
0.085147202

>  <PEOE_VSA_HYD>
309.23868

>  <PEOE_VSA_NEG>
200.66977

>  <PEOE_VSA_PNEG>
70.648232

>  <PEOE_VSA_POL>
106.00508

>  <PEOE_VSA_POS>
214.57397

>  <PEOE_VSA_PPOS>
35.356846

>  <petitjean>
0.5

>  <petitjeanSC>
1

>  <Q_PC+>
0

>  <Q_PC->
0

>  <Q_RPC+>
0

>  <Q_RPC->
0

>  <Q_VSA_FHYD>
1

>  <Q_VSA_FNEG>
0

>  <Q_VSA_FPNEG>
0

>  <Q_VSA_FPOL>
0

>  <Q_VSA_FPOS>
1

>  <Q_VSA_FPPOS>
0

>  <Q_VSA_HYD>
415.24374

>  <Q_VSA_NEG>
0

>  <Q_VSA_PNEG>
0

>  <Q_VSA_POL>
0

>  <Q_VSA_POS>
415.24374

>  <Q_VSA_PPOS>
0

>  <radius>
7

>  <reactive>
1

>  <rings>
4

>  <RPC+>
0

>  <RPC->
0

>  <rsynth>
0.38709676

>  <SlogP>
2.4665

>  <SlogP_VSA0>
50.770454

>  <SlogP_VSA1>
19.120686

>  <SlogP_VSA2>
89.055183

>  <SlogP_VSA3>
20.926258

>  <SlogP_VSA4>
13.232388

>  <SlogP_VSA5>
3.185575

>  <SlogP_VSA6>
0

>  <SlogP_VSA7>
52.929554

>  <SlogP_VSA8>
75.473625

>  <SlogP_VSA9>
148.26418

>  <SMR>
10.94916

>  <SMR_VSA0>
82.58654

>  <SMR_VSA1>
65.730568

>  <SMR_VSA2>
13.232388

>  <SMR_VSA3>
9.6542244

>  <SMR_VSA4>
0

>  <SMR_VSA5>
128.40317

>  <SMR_VSA6>
40.046944

>  <SMR_VSA7>
133.30406

>  <TPSA>
100.9

>  <VAdjEq>
0.36875206

>  <VAdjMa>
6.0874629

>  <VDistEq>
3.393832

>  <VDistMa>
9.6368256

>  <vdw_area>
415.24374

>  <vdw_vol>
567.19312

>  <vsa_acc>
40.700764

>  <vsa_acid>
0

>  <vsa_base>
0

>  <vsa_don>
0

>  <vsa_hyd>
279.55304

>  <vsa_other>
34.129295

>  <vsa_pol>
67.834602

>  <Weight>
434.504

>  <weinerPath>
2333

>  <weinerPol>
73

>  <zagreb>
182

$$$$