O(C)c1cc2[C@]34[C@@H]([C@@H](N(CC3)C)Cc2cc1)CCCC4
  MOE2013           2D

 20 23  0  0  1  0  0  0  0  0999 V2000
    0.0000    0.0000    0.0000 O   0  0  0  0  0  0  0  0  0  0  0  0
    0.7590    1.2940    0.0000 C   0  0  0  0  0  0  0  0  0  0  0  0
   -1.5000    0.0100    0.0000 C   0  0  0  0  0  0  0  0  0  0  0  0
   -2.2590   -1.2840    0.0000 C   0  0  0  0  0  0  0  0  0  0  0  0
   -3.7810   -1.2500    0.0000 C   0  0  0  0  0  0  0  0  0  0  0  0
   -4.5470   -2.5010    0.0000 C   0  0  2  0  0  0  0  0  0  0  0  0
   -6.0220   -2.4700    0.0000 C   0  0  1  0  0  0  0  0  0  0  0  0
   -6.6910   -1.2150    0.0000 C   0  0  1  0  0  0  0  0  0  0  0  0
   -8.1120   -1.1870    0.0000 N   0  0  3  0  0  0  0  0  0  0  0  0
   -6.8410   -0.2190    0.0000 C   0  0  0  0  0  0  0  0  0  0  0  0
   -5.2350   -1.2330    0.0000 C   0  0  0  0  0  0  0  0  0  0  0  0
   -9.5370   -1.6540    0.0000 C   0  0  0  0  0  0  0  0  0  0  0  0
   -5.9530    0.0800    0.0000 C   0  0  0  0  0  0  0  0  0  0  0  0
   -4.4910    0.0300    0.0000 C   0  0  0  0  0  0  0  0  0  0  0  0
   -3.7410    1.3240    0.0000 C   0  0  0  0  0  0  0  0  0  0  0  0
   -2.2410    1.3140    0.0000 C   0  0  0  0  0  0  0  0  0  0  0  0
   -6.7880   -3.7210    0.0000 C   0  0  0  0  0  0  0  0  0  0  0  0
   -6.0890   -5.0200    0.0000 C   0  0  0  0  0  0  0  0  0  0  0  0
   -4.6160   -5.0510    0.0000 C   0  0  0  0  0  0  0  0  0  0  0  0
   -3.8500   -3.8000    0.0000 C   0  0  0  0  0  0  0  0  0  0  0  0
  1  2  1  0  0  0  0
  1  3  1  0  0  0  0
  3  4  1  0  0  0  0
  3 16  2  0  0  0  0
  4  5  2  0  0  0  0
  5  6  1  0  0  0  0
  5 14  1  0  0  0  0
  6  7  1  0  0  0  0
  6 11  1  1  0  0  0
  6 20  1  0  0  0  0
  7  8  1  0  0  0  0
  7 17  1  6  0  0  0
  8  9  1  0  0  0  0
  8 13  1  1  0  0  0
  9 10  1  0  0  0  0
  9 12  1  0  0  0  0
 10 11  1  0  0  0  0
 13 14  1  0  0  0  0
 14 15  2  0  0  0  0
 15 16  1  0  0  0  0
 17 18  1  0  0  0  0
 18 19  1  0  0  0  0
 19 20  1  0  0  0  0
M  END
>  <Index>
306

>  <ID>
HT0628

>  <class>
0

>  <apol>
50.251823

>  <ast_fraglike>
0

>  <ast_fraglike_ext>
0

>  <ast_violation>
1

>  <ast_violation_ext>
1

>  <a_acc>
2

>  <a_acid>
0

>  <a_aro>
6

>  <a_base>
0

>  <a_count>
45

>  <a_don>
0

>  <a_donacc>
2

>  <a_heavy>
20

>  <a_hyd>
18

>  <a_IC>
55.978336

>  <a_ICM>
1.243963

>  <a_nB>
0

>  <a_nBr>
0

>  <a_nC>
18

>  <a_nCl>
0

>  <a_nF>
0

>  <a_nH>
25

>  <a_nI>
0

>  <a_nN>
1

>  <a_nO>
1

>  <a_nP>
0

>  <a_nS>
0

>  <balabanJ>
1.6823456

>  <BCUT_PEOE_0>
-2.9382522

>  <BCUT_PEOE_1>
-0.4978101

>  <BCUT_PEOE_2>
0.46479291

>  <BCUT_PEOE_3>
2.8838606

>  <BCUT_SLOGP_0>
-2.931833

>  <BCUT_SLOGP_1>
-0.42057896

>  <BCUT_SLOGP_2>
0.57250655

>  <BCUT_SLOGP_3>
2.9371364

>  <BCUT_SMR_0>
-2.6719491

>  <BCUT_SMR_1>
-0.30717081

>  <BCUT_SMR_2>
0.65590906

>  <BCUT_SMR_3>
3.1496019

>  <bpol>
31.226175

>  <b_1rotN>
1

>  <b_1rotR>
0.043478262

>  <b_ar>
6

>  <b_count>
48

>  <b_double>
0

>  <b_heavy>
23

>  <b_max1len>
2

>  <b_rotN>
1

>  <b_rotR>
0.043478262

>  <b_single>
42

>  <b_triple>
0

>  <chi0>
13.742276

>  <chi0v>
12.69196

>  <chi0v_C>
11.836499

>  <chi0_C>
12.457819

>  <chi1>
9.7431488

>  <chi1v>
8.121212

>  <chi1v_C>
6.4871993

>  <chi1_C>
7.3088617

>  <chiral>
3

>  <chiral_u>
0

>  <density>
0.66374803

>  <diameter>
9

>  <FCharge>
0

>  <GCUT_PEOE_0>
-0.85774392

>  <GCUT_PEOE_1>
-0.38536385

>  <GCUT_PEOE_2>
-0.04336733

>  <GCUT_PEOE_3>
3.0949688

>  <GCUT_SLOGP_0>
-0.95593613

>  <GCUT_SLOGP_1>
-0.29976442

>  <GCUT_SLOGP_2>
0.08542867

>  <GCUT_SLOGP_3>
3.1660063

>  <GCUT_SMR_0>
-0.530478

>  <GCUT_SMR_1>
-0.18340944

>  <GCUT_SMR_2>
0.11882629

>  <GCUT_SMR_3>
3.3428226

>  <Kier1>
13.648394

>  <Kier2>
5.0253062

>  <Kier3>
1.9608401

>  <KierA1>
12.06131

>  <KierA2>
4.4104061

>  <KierA3>
1.7122431

>  <KierFlex>
2.6597636

>  <lip_acc>
2

>  <lip_don>
0

>  <lip_druglike>
1

>  <lip_violation>
0

>  <logP(o/w)>
3.556

>  <logS>
-3.6243801

>  <mr>
8.1386251

>  <mutagenic>
0

>  <nmol>
1

>  <opr_brigid>
20

>  <opr_leadlike>
1

>  <opr_nring>
4

>  <opr_nrot>
1

>  <opr_violation>
0

>  <PC+>
0

>  <PC->
0

>  <PEOE_PC+>
1.1075455

>  <PEOE_PC->
-1.1075455

>  <PEOE_RPC+>
0.06871523

>  <PEOE_RPC->
0.31412098

>  <PEOE_VSA+0>
109.18595

>  <PEOE_VSA+1>
34.050835

>  <PEOE_VSA+2>
0

>  <PEOE_VSA+3>
0

>  <PEOE_VSA+4>
0

>  <PEOE_VSA+5>
0

>  <PEOE_VSA+6>
0

>  <PEOE_VSA-0>
100.16315

>  <PEOE_VSA-1>
29.65753

>  <PEOE_VSA-2>
0

>  <PEOE_VSA-3>
0

>  <PEOE_VSA-4>
0

>  <PEOE_VSA-5>
0

>  <PEOE_VSA-6>
2.503756

>  <PEOE_VSA_FHYD>
0.99091399

>  <PEOE_VSA_FNEG>
0.48019978

>  <PEOE_VSA_FPNEG>
0.0090860249

>  <PEOE_VSA_FPOL>
0.0090860249

>  <PEOE_VSA_FPOS>
0.51980025

>  <PEOE_VSA_FPPOS>
0

>  <PEOE_VSA_HYD>
273.05746

>  <PEOE_VSA_NEG>
132.32445

>  <PEOE_VSA_PNEG>
2.503756

>  <PEOE_VSA_POL>
2.503756

>  <PEOE_VSA_POS>
143.23679

>  <PEOE_VSA_PPOS>
0

>  <petitjean>
0.44444445

>  <petitjeanSC>
0.80000001

>  <Q_PC+>
0

>  <Q_PC->
0

>  <Q_RPC+>
0

>  <Q_RPC->
0

>  <Q_VSA_FHYD>
1

>  <Q_VSA_FNEG>
0

>  <Q_VSA_FPNEG>
0

>  <Q_VSA_FPOL>
0

>  <Q_VSA_FPOS>
1

>  <Q_VSA_FPPOS>
0

>  <Q_VSA_HYD>
275.56122

>  <Q_VSA_NEG>
0

>  <Q_VSA_PNEG>
0

>  <Q_VSA_POL>
0

>  <Q_VSA_POS>
275.56122

>  <Q_VSA_PPOS>
0

>  <radius>
5

>  <reactive>
0

>  <rings>
4

>  <RPC+>
0

>  <RPC->
0

>  <rsynth>
0.050000001

>  <SlogP>
3.3833699

>  <SlogP_VSA0>
10.999887

>  <SlogP_VSA1>
3.1243138

>  <SlogP_VSA2>
3.9819686

>  <SlogP_VSA3>
18.439579

>  <SlogP_VSA4>
10.781946

>  <SlogP_VSA5>
87.14946

>  <SlogP_VSA6>
0

>  <SlogP_VSA7>
52.929554

>  <SlogP_VSA8>
94.342026

>  <SlogP_VSA9>
5.2434282

>  <SMR>
8.1368999

>  <SMR_VSA0>
0

>  <SMR_VSA1>
14.124202

>  <SMR_VSA2>
4.4107962

>  <SMR_VSA3>
15.596547

>  <SMR_VSA4>
0

>  <SMR_VSA5>
166.13998

>  <SMR_VSA6>
18.439579

>  <SMR_VSA7>
68.281059

>  <TPSA>
12.47

>  <VAdjEq>
0.51481563

>  <VAdjMa>
5.523562

>  <VDistEq>
2.7836709

>  <VDistMa>
8.3904343

>  <vdw_area>
275.56122

>  <vdw_vol>
408.89612

>  <vsa_acc>
2.503756

>  <vsa_acid>
0

>  <vsa_base>
0

>  <vsa_don>
0

>  <vsa_hyd>
253.91754

>  <vsa_other>
0

>  <vsa_pol>
2.503756

>  <Weight>
271.40399

>  <weinerPath>
682

>  <weinerPol>
41

>  <zagreb>
116

$$$$