OC[C@@H](NC(=O)[C@@H]1C=C2[C@H](N(C1)C)Cc1c3c2cccc3[nH]c1)C
  MOE2013           2D

 24 27  0  0  1  0  0  0  0  0999 V2000
    0.0000    0.0000    0.0000 O   0  0  0  0  0  0  0  0  0  0  0  0
   -1.2990    0.7510    0.0000 C   0  0  0  0  0  0  0  0  0  0  0  0
   -2.5980    0.0020    0.0000 C   0  0  1  0  0  0  0  0  0  0  0  0
   -3.8970    0.7530    0.0000 N   0  0  0  0  0  0  0  0  0  0  0  0
   -5.1960    0.0030    0.0000 C   0  0  0  0  0  0  0  0  0  0  0  0
   -5.1970   -1.4970    0.0000 O   0  0  0  0  0  0  0  0  0  0  0  0
   -6.4950    0.7540    0.0000 C   0  0  2  0  0  0  0  0  0  0  0  0
   -7.7940    0.0050    0.0000 C   0  0  0  0  0  0  0  0  0  0  0  0
   -9.1010    0.7880    0.0000 C   0  0  0  0  0  0  0  0  0  0  0  0
   -9.0840    2.2520    0.0000 C   0  0  2  0  0  0  0  0  0  0  0  0
   -7.7920    3.0050    0.0000 N   0  0  3  0  0  0  0  0  0  0  0  0
   -6.4940    2.2540    0.0000 C   0  0  0  0  0  0  0  0  0  0  0  0
   -7.7950    4.5050    0.0000 C   0  0  0  0  0  0  0  0  0  0  0  0
  -10.3480    2.9970    0.0000 C   0  0  0  0  0  0  0  0  0  0  0  0
  -11.6240    2.2770    0.0000 C   0  0  0  0  0  0  0  0  0  0  0  0
  -11.6360    0.8090    0.0000 C   0  0  0  0  0  0  0  0  0  0  0  0
  -10.3730    0.0610    0.0000 C   0  0  0  0  0  0  0  0  0  0  0  0
  -10.3890   -1.4010    0.0000 C   0  0  0  0  0  0  0  0  0  0  0  0
  -11.6590   -2.1270    0.0000 C   0  0  0  0  0  0  0  0  0  0  0  0
  -12.9260   -1.3820    0.0000 C   0  0  0  0  0  0  0  0  0  0  0  0
  -12.9150    0.0890    0.0000 C   0  0  0  0  0  0  0  0  0  0  0  0
  -13.9770    1.1610    0.0000 N   0  0  0  0  0  0  0  0  0  0  0  0
  -13.0370    2.7730    0.0000 C   0  0  0  0  0  0  0  0  0  0  0  0
   -2.5990   -1.4980    0.0000 C   0  0  0  0  0  0  0  0  0  0  0  0
  1  2  1  0  0  0  0
  2  3  1  0  0  0  0
  3  4  1  0  0  0  0
  3 24  1  6  0  0  0
  4  5  1  0  0  0  0
  5  6  2  0  0  0  0
  7  5  1  6  0  0  0
  7  8  1  0  0  0  0
  7 12  1  0  0  0  0
  8  9  2  0  0  0  0
  9 17  1  0  0  0  0
 10  9  1  1  0  0  0
 10 11  1  0  0  0  0
 10 14  1  0  0  0  0
 11 12  1  0  0  0  0
 11 13  1  0  0  0  0
 14 15  1  0  0  0  0
 15 16  1  0  0  0  0
 15 23  2  0  0  0  0
 16 17  1  0  0  0  0
 16 21  2  0  0  0  0
 17 18  2  0  0  0  0
 18 19  1  0  0  0  0
 19 20  2  0  0  0  0
 20 21  1  0  0  0  0
 21 22  1  0  0  0  0
 22 23  1  0  0  0  0
M  END
>  <Index>
384

>  <ID>
HT0778

>  <class>
0

>  <apol>
53.680241

>  <ast_fraglike>
0

>  <ast_fraglike_ext>
0

>  <ast_violation>
1

>  <ast_violation_ext>
1

>  <a_acc>
3

>  <a_acid>
0

>  <a_aro>
9

>  <a_base>
0

>  <a_count>
47

>  <a_don>
3

>  <a_donacc>
6

>  <a_heavy>
24

>  <a_hyd>
18

>  <a_IC>
69.558243

>  <a_ICM>
1.4799626

>  <a_nB>
0

>  <a_nBr>
0

>  <a_nC>
19

>  <a_nCl>
0

>  <a_nF>
0

>  <a_nH>
23

>  <a_nI>
0

>  <a_nN>
3

>  <a_nO>
2

>  <a_nP>
0

>  <a_nS>
0

>  <balabanJ>
1.4989132

>  <BCUT_PEOE_0>
-2.7168601

>  <BCUT_PEOE_1>
-0.52666861

>  <BCUT_PEOE_2>
0.60401303

>  <BCUT_PEOE_3>
2.6749396

>  <BCUT_SLOGP_0>
-2.8148408

>  <BCUT_SLOGP_1>
-0.47918522

>  <BCUT_SLOGP_2>
0.62975532

>  <BCUT_SLOGP_3>
2.6505582

>  <BCUT_SMR_0>
-2.432086

>  <BCUT_SMR_1>
-0.40552539

>  <BCUT_SMR_2>
0.72976446

>  <BCUT_SMR_3>
2.9587429

>  <bpol>
29.40176

>  <b_1rotN>
3

>  <b_1rotR>
0.11111111

>  <b_ar>
10

>  <b_count>
50

>  <b_double>
2

>  <b_heavy>
27

>  <b_max1len>
5

>  <b_rotN>
4

>  <b_rotR>
0.14814815

>  <b_single>
38

>  <b_triple>
0

>  <chi0>
16.84457

>  <chi0v>
14.042798

>  <chi0v_C>
11.740123

>  <chi0_C>
12.853006

>  <chi1>
11.579719

>  <chi1v>
8.5070419

>  <chi1v_C>
5.8876991

>  <chi1_C>
7.251585

>  <chiral>
3

>  <chiral_u>
0

>  <density>
0.71813351

>  <diameter>
11

>  <FCharge>
0

>  <GCUT_PEOE_0>
-0.8628124

>  <GCUT_PEOE_1>
-0.36794999

>  <GCUT_PEOE_2>
0.081850365

>  <GCUT_PEOE_3>
2.8584452

>  <GCUT_SLOGP_0>
-1.1627083

>  <GCUT_SLOGP_1>
-0.32894602

>  <GCUT_SLOGP_2>
0.10362628

>  <GCUT_SLOGP_3>
2.9008389

>  <GCUT_SMR_0>
-0.52068383

>  <GCUT_SMR_1>
-0.21423893

>  <GCUT_SMR_2>
0.16171648

>  <GCUT_SMR_3>
3.141453

>  <Kier1>
17.415638

>  <Kier2>
6.9575

>  <Kier3>
3.1283472

>  <KierA1>
13.421304

>  <KierA2>
5.2966375

>  <KierA3>
2.3606687

>  <KierFlex>
2.9619908

>  <lip_acc>
5

>  <lip_don>
3

>  <lip_druglike>
1

>  <lip_violation>
0

>  <logP(o/w)>
1.398

>  <logS>
-2.44807

>  <mr>
9.2951984

>  <mutagenic>
0

>  <nmol>
1

>  <opr_brigid>
19

>  <opr_leadlike>
1

>  <opr_nring>
4

>  <opr_nrot>
3

>  <opr_violation>
0

>  <PC+>
0

>  <PC->
0

>  <PEOE_PC+>
2.0070782

>  <PEOE_PC->
-2.0070782

>  <PEOE_RPC+>
0.1142562

>  <PEOE_RPC->
0.195806

>  <PEOE_VSA+0>
92.057495

>  <PEOE_VSA+1>
53.339767

>  <PEOE_VSA+2>
0

>  <PEOE_VSA+3>
17.238026

>  <PEOE_VSA+4>
23.273705

>  <PEOE_VSA+5>
0

>  <PEOE_VSA+6>
0

>  <PEOE_VSA-0>
69.568199

>  <PEOE_VSA-1>
36.764713

>  <PEOE_VSA-2>
0

>  <PEOE_VSA-3>
0

>  <PEOE_VSA-4>
0

>  <PEOE_VSA-5>
13.566921

>  <PEOE_VSA-6>
8.0413227

>  <PEOE_VSA_FHYD>
0.85699564

>  <PEOE_VSA_FNEG>
0.40765044

>  <PEOE_VSA_FPNEG>
0.068848915

>  <PEOE_VSA_FPOL>
0.14300439

>  <PEOE_VSA_FPOS>
0.59234953

>  <PEOE_VSA_FPPOS>
0.074155465

>  <PEOE_VSA_HYD>
268.9682

>  <PEOE_VSA_NEG>
127.94115

>  <PEOE_VSA_PNEG>
21.608244

>  <PEOE_VSA_POL>
44.881947

>  <PEOE_VSA_POS>
185.909

>  <PEOE_VSA_PPOS>
23.273705

>  <petitjean>
0.45454547

>  <petitjeanSC>
0.83333331

>  <Q_PC+>
0

>  <Q_PC->
0

>  <Q_RPC+>
0

>  <Q_RPC->
0

>  <Q_VSA_FHYD>
1

>  <Q_VSA_FNEG>
0

>  <Q_VSA_FPNEG>
0

>  <Q_VSA_FPOL>
0

>  <Q_VSA_FPOS>
1

>  <Q_VSA_FPPOS>
0

>  <Q_VSA_HYD>
313.85016

>  <Q_VSA_NEG>
0

>  <Q_VSA_PNEG>
0

>  <Q_VSA_POL>
0

>  <Q_VSA_POS>
313.85016

>  <Q_VSA_PPOS>
0

>  <radius>
6

>  <reactive>
0

>  <rings>
4

>  <RPC+>
0

>  <RPC->
0

>  <rsynth>
1

>  <SlogP>
1.53457

>  <SlogP_VSA0>
43.395977

>  <SlogP_VSA1>
8.3830976

>  <SlogP_VSA2>
48.611683

>  <SlogP_VSA3>
39.365837

>  <SlogP_VSA4>
10.781946

>  <SlogP_VSA5>
51.765594

>  <SlogP_VSA6>
0

>  <SlogP_VSA7>
95.689774

>  <SlogP_VSA8>
0

>  <SlogP_VSA9>
33.326015

>  <SMR>
9.4578199

>  <SMR_VSA0>
23.862217

>  <SMR_VSA1>
28.509541

>  <SMR_VSA2>
39.207077

>  <SMR_VSA3>
14.335087

>  <SMR_VSA4>
7.9026761

>  <SMR_VSA5>
106.6555

>  <SMR_VSA6>
44.624619

>  <SMR_VSA7>
66.223206

>  <TPSA>
68.360001

>  <VAdjEq>
0.44886449

>  <VAdjMa>
5.7548876

>  <VDistEq>
3.2370927

>  <VDistMa>
8.8851557

>  <vdw_area>
313.85016

>  <vdw_vol>
453.13577

>  <vsa_acc>
13.566921

>  <vsa_acid>
0

>  <vsa_base>
0

>  <vsa_don>
11.365152

>  <vsa_hyd>
236.14922

>  <vsa_other>
12.949531

>  <vsa_pol>
38.498993

>  <Weight>
325.41199

>  <weinerPath>
1263

>  <weinerPol>
43

>  <zagreb>
134

$$$$