[nH]1cc(nc1)[C@H](C)c1cccc(C)c1C
  MOE2013           2D

 15 16  0  0  1  0  0  0  0  0999 V2000
    0.0000    0.0000    0.0000 N   0  0  0  0  0  0  0  0  0  0  0  0
    1.4890    0.1810    0.0000 C   0  0  0  0  0  0  0  0  0  0  0  0
    1.7770    1.6530    0.0000 C   0  0  0  0  0  0  0  0  0  0  0  0
    0.4670    2.3820    0.0000 N   0  0  0  0  0  0  0  0  0  0  0  0
   -0.6320    1.3600    0.0000 C   0  0  0  0  0  0  0  0  0  0  0  0
    3.1380    2.2850    0.0000 C   0  0  2  0  0  0  0  0  0  0  0  0
    3.2710    3.7790    0.0000 C   0  0  0  0  0  0  0  0  0  0  0  0
    4.3650    1.4220    0.0000 C   0  0  0  0  0  0  0  0  0  0  0  0
    4.2320   -0.0720    0.0000 C   0  0  0  0  0  0  0  0  0  0  0  0
    5.4600   -0.9340    0.0000 C   0  0  0  0  0  0  0  0  0  0  0  0
    6.8200   -0.3020    0.0000 C   0  0  0  0  0  0  0  0  0  0  0  0
    6.9530    1.1920    0.0000 C   0  0  0  0  0  0  0  0  0  0  0  0
    8.3140    1.8240    0.0000 C   0  0  0  0  0  0  0  0  0  0  0  0
    5.7260    2.0540    0.0000 C   0  0  0  0  0  0  0  0  0  0  0  0
    5.8590    3.5480    0.0000 C   0  0  0  0  0  0  0  0  0  0  0  0
  1  2  1  0  0  0  0
  1  5  1  0  0  0  0
  2  3  2  0  0  0  0
  3  4  1  0  0  0  0
  3  6  1  0  0  0  0
  4  5  2  0  0  0  0
  6  7  1  6  0  0  0
  6  8  1  0  0  0  0
  8  9  1  0  0  0  0
  8 14  2  0  0  0  0
  9 10  2  0  0  0  0
 10 11  1  0  0  0  0
 11 12  2  0  0  0  0
 12 13  1  0  0  0  0
 12 14  1  0  0  0  0
 14 15  1  0  0  0  0
M  END
>  <Index>
303

>  <ID>
HT0624

>  <class>
0

>  <apol>
35.748688

>  <ast_fraglike>
0

>  <ast_fraglike_ext>
0

>  <ast_violation>
1

>  <ast_violation_ext>
1

>  <a_acc>
2

>  <a_acid>
0

>  <a_aro>
11

>  <a_base>
0

>  <a_count>
31

>  <a_don>
2

>  <a_donacc>
4

>  <a_heavy>
15

>  <a_hyd>
12

>  <a_IC>
39.474369

>  <a_ICM>
1.2733668

>  <a_nB>
0

>  <a_nBr>
0

>  <a_nC>
13

>  <a_nCl>
0

>  <a_nF>
0

>  <a_nH>
16

>  <a_nI>
0

>  <a_nN>
2

>  <a_nO>
0

>  <a_nP>
0

>  <a_nS>
0

>  <balabanJ>
1.9670957

>  <BCUT_PEOE_0>
-2.4783986

>  <BCUT_PEOE_1>
-0.48536307

>  <BCUT_PEOE_2>
0.52782488

>  <BCUT_PEOE_3>
2.467495

>  <BCUT_SLOGP_0>
-2.3441286

>  <BCUT_SLOGP_1>
-0.38811737

>  <BCUT_SLOGP_2>
0.63306129

>  <BCUT_SLOGP_3>
2.5981755

>  <BCUT_SMR_0>
-2.2075279

>  <BCUT_SMR_1>
-0.3216626

>  <BCUT_SMR_2>
0.68768567

>  <BCUT_SMR_3>
2.7462003

>  <bpol>
19.471312

>  <b_1rotN>
2

>  <b_1rotR>
0.125

>  <b_ar>
11

>  <b_count>
32

>  <b_double>
0

>  <b_heavy>
16

>  <b_max1len>
3

>  <b_rotN>
2

>  <b_rotR>
0.125

>  <b_single>
21

>  <b_triple>
0

>  <chi0>
10.836499

>  <chi0v>
9.411315

>  <chi0v_C>
8.4641018

>  <chi0_C>
9.4222851

>  <chi1>
7.1983771

>  <chi1v>
5.2465487

>  <chi1v_C>
4.1873927

>  <chi1_C>
5.2901292

>  <chiral>
1

>  <chiral_u>
0

>  <density>
0.65492117

>  <diameter>
7

>  <FCharge>
0

>  <GCUT_PEOE_0>
-0.84777904

>  <GCUT_PEOE_1>
-0.33920065

>  <GCUT_PEOE_2>
0.014493885

>  <GCUT_PEOE_3>
2.4738967

>  <GCUT_SLOGP_0>
-0.80587178

>  <GCUT_SLOGP_1>
-0.26001495

>  <GCUT_SLOGP_2>
0.10948966

>  <GCUT_SLOGP_3>
2.6025698

>  <GCUT_SMR_0>
-0.50480849

>  <GCUT_SMR_1>
-0.17228638

>  <GCUT_SMR_2>
0.14713015

>  <GCUT_SMR_3>
2.7538137

>  <Kier1>
11.484375

>  <Kier2>
4.8884296

>  <Kier3>
2.3971462

>  <KierA1>
8.2204742

>  <KierA2>
3.4068823

>  <KierA3>
1.634246

>  <KierFlex>
1.8670791

>  <lip_acc>
2

>  <lip_don>
1

>  <lip_druglike>
1

>  <lip_violation>
0

>  <logP(o/w)>
2.612

>  <logS>
-3.0945599

>  <mr>
6.3146682

>  <mutagenic>
0

>  <nmol>
1

>  <opr_brigid>
11

>  <opr_leadlike>
1

>  <opr_nring>
2

>  <opr_nrot>
2

>  <opr_violation>
0

>  <PC+>
0

>  <PC->
0

>  <PEOE_PC+>
1.0263604

>  <PEOE_PC->
-1.0263604

>  <PEOE_RPC+>
0.16196823

>  <PEOE_RPC->
0.34154907

>  <PEOE_VSA+0>
59.399776

>  <PEOE_VSA+1>
44.998024

>  <PEOE_VSA+2>
4.2653861

>  <PEOE_VSA+3>
8.6190128

>  <PEOE_VSA+4>
0

>  <PEOE_VSA+5>
0

>  <PEOE_VSA+6>
0

>  <PEOE_VSA-0>
44.120975

>  <PEOE_VSA-1>
55.51239

>  <PEOE_VSA-2>
0

>  <PEOE_VSA-3>
0

>  <PEOE_VSA-4>
5.6825762

>  <PEOE_VSA-5>
0

>  <PEOE_VSA-6>
0.13689101

>  <PEOE_VSA_FHYD>
0.97387266

>  <PEOE_VSA_FNEG>
0.47344521

>  <PEOE_VSA_FPNEG>
0.02612731

>  <PEOE_VSA_FPOL>
0.02612731

>  <PEOE_VSA_FPOS>
0.52655482

>  <PEOE_VSA_FPPOS>
0

>  <PEOE_VSA_HYD>
216.91556

>  <PEOE_VSA_NEG>
105.45283

>  <PEOE_VSA_PNEG>
5.8194671

>  <PEOE_VSA_POL>
5.8194671

>  <PEOE_VSA_POS>
117.2822

>  <PEOE_VSA_PPOS>
0

>  <petitjean>
0.42857143

>  <petitjeanSC>
0.75

>  <Q_PC+>
0

>  <Q_PC->
0

>  <Q_RPC+>
0

>  <Q_RPC->
0

>  <Q_VSA_FHYD>
1

>  <Q_VSA_FNEG>
0

>  <Q_VSA_FPNEG>
0

>  <Q_VSA_FPOL>
0

>  <Q_VSA_FPOS>
1

>  <Q_VSA_FPPOS>
0

>  <Q_VSA_HYD>
222.73503

>  <Q_VSA_NEG>
0

>  <Q_VSA_PNEG>
0

>  <Q_VSA_POL>
0

>  <Q_VSA_POS>
222.73503

>  <Q_VSA_PPOS>
0

>  <radius>
4

>  <reactive>
0

>  <rings>
2

>  <RPC+>
0

>  <RPC->
0

>  <rsynth>
0.2

>  <SlogP>
3.17834

>  <SlogP_VSA0>
0

>  <SlogP_VSA1>
16.78553

>  <SlogP_VSA2>
16.78553

>  <SlogP_VSA3>
0

>  <SlogP_VSA4>
12.313473

>  <SlogP_VSA5>
0

>  <SlogP_VSA6>
4.4107962

>  <SlogP_VSA7>
86.929436

>  <SlogP_VSA8>
0

>  <SlogP_VSA9>
99.978043

>  <SMR>
6.2020702

>  <SMR_VSA0>
0

>  <SMR_VSA1>
16.78553

>  <SMR_VSA2>
16.78553

>  <SMR_VSA3>
16.724268

>  <SMR_VSA4>
0

>  <SMR_VSA5>
86.929436

>  <SMR_VSA6>
0

>  <SMR_VSA7>
99.978043

>  <TPSA>
28.68

>  <VAdjEq>
0.59002918

>  <VAdjMa>
5

>  <VDistEq>
2.6768448

>  <VDistMa>
7.5255885

>  <vdw_area>
222.73503

>  <vdw_vol>
305.81543

>  <vsa_acc>
0

>  <vsa_acid>
0

>  <vsa_base>
0

>  <vsa_don>
0

>  <vsa_hyd>
171.48405

>  <vsa_other>
24.790518

>  <vsa_pol>
11.365152

>  <Weight>
200.28499

>  <weinerPath>
353

>  <weinerPol>
21

>  <zagreb>
76

$$$$