O(C(=O)C(C)(C)C)c1cc(ccc1OC(=O)C(C)(C)C)C(O)CNC
  MOE2013           2D

 25 25  0  0  1  0  0  0  0  0999 V2000
    0.0000    0.0000    0.0000 O   0  0  0  0  0  0  0  0  0  0  0  0
    0.7410    1.3040    0.0000 C   0  0  0  0  0  0  0  0  0  0  0  0
    2.2410    1.3140    0.0000 O   0  0  0  0  0  0  0  0  0  0  0  0
   -0.0180    2.5980    0.0000 C   0  0  0  0  0  0  0  0  0  0  0  0
   -0.7770    3.8920    0.0000 C   0  0  0  0  0  0  0  0  0  0  0  0
    1.2760    3.3570    0.0000 C   0  0  0  0  0  0  0  0  0  0  0  0
   -1.3120    1.8390    0.0000 C   0  0  0  0  0  0  0  0  0  0  0  0
    0.7590   -1.2940    0.0000 C   0  0  0  0  0  0  0  0  0  0  0  0
    2.2590   -1.2840    0.0000 C   0  0  0  0  0  0  0  0  0  0  0  0
    3.0180   -2.5770    0.0000 C   0  0  0  0  0  0  0  0  0  0  0  0
    2.2770   -3.8820    0.0000 C   0  0  0  0  0  0  0  0  0  0  0  0
    0.7770   -3.8920    0.0000 C   0  0  0  0  0  0  0  0  0  0  0  0
    0.0180   -2.5980    0.0000 C   0  0  0  0  0  0  0  0  0  0  0  0
   -1.4820   -2.6080    0.0000 O   0  0  0  0  0  0  0  0  0  0  0  0
   -2.2230   -3.9120    0.0000 C   0  0  0  0  0  0  0  0  0  0  0  0
   -1.4640   -5.2060    0.0000 O   0  0  0  0  0  0  0  0  0  0  0  0
   -3.7230   -3.9230    0.0000 C   0  0  0  0  0  0  0  0  0  0  0  0
   -3.7340   -2.4230    0.0000 C   0  0  0  0  0  0  0  0  0  0  0  0
   -5.2230   -3.9330    0.0000 C   0  0  0  0  0  0  0  0  0  0  0  0
   -3.7130   -5.4230    0.0000 C   0  0  0  0  0  0  0  0  0  0  0  0
    4.5180   -2.5670    0.0000 C   0  0  3  0  0  0  0  0  0  0  0  0
    5.2770   -3.8610    0.0000 O   0  0  0  0  0  0  0  0  0  0  0  0
    5.2590   -1.2630    0.0000 C   0  0  0  0  0  0  0  0  0  0  0  0
    6.7590   -1.2530    0.0000 N   0  0  0  0  0  0  0  0  0  0  0  0
    7.5000    0.0510    0.0000 C   0  0  0  0  0  0  0  0  0  0  0  0
  1  2  1  0  0  0  0
  1  8  1  0  0  0  0
  2  3  2  0  0  0  0
  2  4  1  0  0  0  0
  4  5  1  0  0  0  0
  4  6  1  0  0  0  0
  4  7  1  0  0  0  0
  8  9  1  0  0  0  0
  8 13  2  0  0  0  0
  9 10  2  0  0  0  0
 10 11  1  0  0  0  0
 10 21  1  0  0  0  0
 11 12  2  0  0  0  0
 12 13  1  0  0  0  0
 13 14  1  0  0  0  0
 14 15  1  0  0  0  0
 15 16  2  0  0  0  0
 15 17  1  0  0  0  0
 17 18  1  0  0  0  0
 17 19  1  0  0  0  0
 17 20  1  0  0  0  0
 21 22  1  0  0  0  0
 21 23  1  0  0  0  0
 23 24  1  0  0  0  0
 24 25  1  0  0  0  0
M  END
>  <Index>
335

>  <ID>
HT0692

>  <class>
0

>  <apol>
57.886997

>  <ast_fraglike>
0

>  <ast_fraglike_ext>
0

>  <ast_violation>
2

>  <ast_violation_ext>
3

>  <a_acc>
4

>  <a_acid>
0

>  <a_aro>
6

>  <a_base>
0

>  <a_count>
54

>  <a_don>
2

>  <a_donacc>
6

>  <a_heavy>
25

>  <a_hyd>
17

>  <a_IC>
77.56221

>  <a_ICM>
1.4363372

>  <a_nB>
0

>  <a_nBr>
0

>  <a_nC>
19

>  <a_nCl>
0

>  <a_nF>
0

>  <a_nH>
29

>  <a_nI>
0

>  <a_nN>
1

>  <a_nO>
5

>  <a_nP>
0

>  <a_nS>
0

>  <balabanJ>
2.843159

>  <BCUT_PEOE_0>
-2.5931809

>  <BCUT_PEOE_1>
-0.22996834

>  <BCUT_PEOE_2>
0.1234843

>  <BCUT_PEOE_3>
2.6187685

>  <BCUT_SLOGP_0>
-2.671838

>  <BCUT_SLOGP_1>
-0.17844003

>  <BCUT_SLOGP_2>
0.20472479

>  <BCUT_SLOGP_3>
2.6699581

>  <BCUT_SMR_0>
-2.3669941

>  <BCUT_SMR_1>
-0.0066589722

>  <BCUT_SMR_2>
0.29275602

>  <BCUT_SMR_3>
2.847904

>  <bpol>
38.111004

>  <b_1rotN>
5

>  <b_1rotR>
0.2

>  <b_ar>
6

>  <b_count>
54

>  <b_double>
2

>  <b_heavy>
25

>  <b_max1len>
6

>  <b_rotN>
9

>  <b_rotR>
0.36000001

>  <b_single>
46

>  <b_triple>
0

>  <chi0>
19.413849

>  <chi0v>
16.096714

>  <chi0v_C>
13.516508

>  <chi0_C>
14.292529

>  <chi1>
11.357409

>  <chi1v>
8.2714548

>  <chi1v_C>
5.9349575

>  <chi1_C>
6.7852583

>  <chiral>
1

>  <chiral_u>
1

>  <density>
0.71007329

>  <diameter>
11

>  <FCharge>
0

>  <GCUT_PEOE_0>
-0.84668106

>  <GCUT_PEOE_1>
-0.30928299

>  <GCUT_PEOE_2>
-0.11904214

>  <GCUT_PEOE_3>
2.6705511

>  <GCUT_SLOGP_0>
-1.1524776

>  <GCUT_SLOGP_1>
-0.25014627

>  <GCUT_SLOGP_2>
-0.026294658

>  <GCUT_SLOGP_3>
2.7482536

>  <GCUT_SMR_0>
-0.52306479

>  <GCUT_SMR_1>
-0.13594808

>  <GCUT_SMR_2>
-4.3406703e-006

>  <GCUT_SMR_3>
2.9120321

>  <Kier1>
23.040001

>  <Kier2>
9.2739229

>  <Kier3>
7.2600002

>  <KierA1>
19.336821

>  <KierA2>
7.723258

>  <KierA3>
6.0110445

>  <KierFlex>
5.9737301

>  <lip_acc>
6

>  <lip_don>
2

>  <lip_druglike>
1

>  <lip_violation>
0

>  <logP(o/w)>
3.16874

>  <logS>
-2.8405001

>  <mr>
9.6518316

>  <mutagenic>
0

>  <nmol>
1

>  <opr_brigid>
6

>  <opr_leadlike>
1

>  <opr_nring>
1

>  <opr_nrot>
7

>  <opr_violation>
0

>  <PC+>
0

>  <PC->
0

>  <PEOE_PC+>
2.2209406

>  <PEOE_PC->
-2.2209406

>  <PEOE_RPC+>
0.12274527

>  <PEOE_RPC->
0.17376184

>  <PEOE_VSA+0>
111.2962

>  <PEOE_VSA+1>
21.966473

>  <PEOE_VSA+2>
25.536053

>  <PEOE_VSA+3>
0

>  <PEOE_VSA+4>
10.324173

>  <PEOE_VSA+5>
29.416998

>  <PEOE_VSA+6>
0

>  <PEOE_VSA-0>
49.957035

>  <PEOE_VSA-1>
124.74097

>  <PEOE_VSA-2>
0

>  <PEOE_VSA-3>
0

>  <PEOE_VSA-4>
0

>  <PEOE_VSA-5>
32.141354

>  <PEOE_VSA-6>
7.9044313

>  <PEOE_VSA_FHYD>
0.80694383

>  <PEOE_VSA_FNEG>
0.51960385

>  <PEOE_VSA_FPNEG>
0.096896604

>  <PEOE_VSA_FPOL>
0.19305615

>  <PEOE_VSA_FPOS>
0.48039615

>  <PEOE_VSA_FPPOS>
0.096159548

>  <PEOE_VSA_HYD>
333.49673

>  <PEOE_VSA_NEG>
214.74379

>  <PEOE_VSA_PNEG>
40.045784

>  <PEOE_VSA_POL>
79.786957

>  <PEOE_VSA_POS>
198.5399

>  <PEOE_VSA_PPOS>
39.741173

>  <petitjean>
0.45454547

>  <petitjeanSC>
0.83333331

>  <Q_PC+>
0

>  <Q_PC->
0

>  <Q_RPC+>
0

>  <Q_RPC->
0

>  <Q_VSA_FHYD>
1

>  <Q_VSA_FNEG>
0

>  <Q_VSA_FPNEG>
0

>  <Q_VSA_FPOL>
0

>  <Q_VSA_FPOS>
1

>  <Q_VSA_FPPOS>
0

>  <Q_VSA_HYD>
413.28369

>  <Q_VSA_NEG>
0

>  <Q_VSA_PNEG>
0

>  <Q_VSA_POL>
0

>  <Q_VSA_POS>
413.28369

>  <Q_VSA_PPOS>
0

>  <radius>
6

>  <reactive>
0

>  <rings>
1

>  <RPC+>
0

>  <RPC->
0

>  <rsynth>
1

>  <SlogP>
2.9379001

>  <SlogP_VSA0>
65.395752

>  <SlogP_VSA1>
15.490929

>  <SlogP_VSA2>
47.724434

>  <SlogP_VSA3>
18.439579

>  <SlogP_VSA4>
3.185575

>  <SlogP_VSA5>
32.897186

>  <SlogP_VSA6>
0

>  <SlogP_VSA7>
52.929554

>  <SlogP_VSA8>
6.4686494

>  <SlogP_VSA9>
210.44295

>  <SMR>
9.5619497

>  <SMR_VSA0>
47.724434

>  <SMR_VSA1>
47.385002

>  <SMR_VSA2>
18.01075

>  <SMR_VSA3>
20.141081

>  <SMR_VSA4>
0

>  <SMR_VSA5>
52.929554

>  <SMR_VSA6>
33.930508

>  <SMR_VSA7>
232.85327

>  <TPSA>
84.860001

>  <VAdjEq>
0.40217918

>  <VAdjMa>
5.643856

>  <VDistEq>
3.2932217

>  <VDistMa>
9.026

>  <vdw_area>
413.28369

>  <vdw_vol>
494.93903

>  <vsa_acc>
27.133842

>  <vsa_acid>
0

>  <vsa_base>
0

>  <vsa_don>
0

>  <vsa_hyd>
305.65924

>  <vsa_other>
34.424511

>  <vsa_pol>
46.383339

>  <Weight>
351.44299

>  <weinerPath>
1522

>  <weinerPol>
37

>  <zagreb>
124

$$$$