Clc1cc(Cl)ccc1C(OCc1ccc(Cl)cc1)Cn1ccnc1
  MOE2013           2D

 24 26  0  0  1  0  0  0  0  0999 V2000
    0.0000    0.0000    0.0000 Cl  0  0  0  0  0  0  0  0  0  0  0  0
    0.7440    1.3020    0.0000 C   0  0  0  0  0  0  0  0  0  0  0  0
   -0.0120    2.5980    0.0000 C   0  0  0  0  0  0  0  0  0  0  0  0
    0.7320    3.9010    0.0000 C   0  0  0  0  0  0  0  0  0  0  0  0
   -0.0240    5.1960    0.0000 Cl  0  0  0  0  0  0  0  0  0  0  0  0
    2.2320    3.9070    0.0000 C   0  0  0  0  0  0  0  0  0  0  0  0
    2.9880    2.6120    0.0000 C   0  0  0  0  0  0  0  0  0  0  0  0
    2.2440    1.3090    0.0000 C   0  0  0  0  0  0  0  0  0  0  0  0
    3.0000    0.0140    0.0000 C   0  0  3  0  0  0  0  0  0  0  0  0
    4.5000    0.0210    0.0000 O   0  0  0  0  0  0  0  0  0  0  0  0
    5.2440    1.3230    0.0000 C   0  0  0  0  0  0  0  0  0  0  0  0
    6.7440    1.3300    0.0000 C   0  0  0  0  0  0  0  0  0  0  0  0
    7.4880    2.6330    0.0000 C   0  0  0  0  0  0  0  0  0  0  0  0
    8.9880    2.6400    0.0000 C   0  0  0  0  0  0  0  0  0  0  0  0
    9.7440    1.3440    0.0000 C   0  0  0  0  0  0  0  0  0  0  0  0
   11.2440    1.3510    0.0000 Cl  0  0  0  0  0  0  0  0  0  0  0  0
    9.0000    0.0410    0.0000 C   0  0  0  0  0  0  0  0  0  0  0  0
    7.5000    0.0350    0.0000 C   0  0  0  0  0  0  0  0  0  0  0  0
    2.2560   -1.2890    0.0000 C   0  0  0  0  0  0  0  0  0  0  0  0
    3.0120   -2.5840    0.0000 N   0  0  0  0  0  0  0  0  0  0  0  0
    4.5040   -2.7340    0.0000 C   0  0  0  0  0  0  0  0  0  0  0  0
    4.8230   -4.2000    0.0000 C   0  0  0  0  0  0  0  0  0  0  0  0
    3.5270   -4.9560    0.0000 N   0  0  0  0  0  0  0  0  0  0  0  0
    2.4080   -3.9570    0.0000 C   0  0  0  0  0  0  0  0  0  0  0  0
  1  2  1  0  0  0  0
  2  3  1  0  0  0  0
  2  8  2  0  0  0  0
  3  4  2  0  0  0  0
  4  5  1  0  0  0  0
  4  6  1  0  0  0  0
  6  7  2  0  0  0  0
  7  8  1  0  0  0  0
  8  9  1  0  0  0  0
  9 10  1  0  0  0  0
  9 19  1  0  0  0  0
 10 11  1  0  0  0  0
 11 12  1  0  0  0  0
 12 13  1  0  0  0  0
 12 18  2  0  0  0  0
 13 14  2  0  0  0  0
 14 15  1  0  0  0  0
 15 16  1  0  0  0  0
 15 17  2  0  0  0  0
 17 18  1  0  0  0  0
 19 20  1  0  0  0  0
 20 21  1  0  0  0  0
 20 24  1  0  0  0  0
 21 22  2  0  0  0  0
 22 23  1  0  0  0  0
 23 24  2  0  0  0  0
M  END
>  <Index>
363

>  <ID>
HT0741

>  <class>
0

>  <apol>
51.223896

>  <ast_fraglike>
0

>  <ast_fraglike_ext>
0

>  <ast_violation>
2

>  <ast_violation_ext>
3

>  <a_acc>
2

>  <a_acid>
0

>  <a_aro>
17

>  <a_base>
0

>  <a_count>
39

>  <a_don>
0

>  <a_donacc>
2

>  <a_heavy>
24

>  <a_hyd>
20

>  <a_IC>
65.713791

>  <a_ICM>
1.6849689

>  <a_nB>
0

>  <a_nBr>
0

>  <a_nC>
18

>  <a_nCl>
3

>  <a_nF>
0

>  <a_nH>
15

>  <a_nI>
0

>  <a_nN>
2

>  <a_nO>
1

>  <a_nP>
0

>  <a_nS>
0

>  <balabanJ>
1.5457608

>  <BCUT_PEOE_0>
-2.5141695

>  <BCUT_PEOE_1>
-0.65075624

>  <BCUT_PEOE_2>
0.69176978

>  <BCUT_PEOE_3>
2.505044

>  <BCUT_SLOGP_0>
-2.3765106

>  <BCUT_SLOGP_1>
-0.47441328

>  <BCUT_SLOGP_2>
0.89769238

>  <BCUT_SLOGP_3>
2.645539

>  <BCUT_SMR_0>
-2.2562492

>  <BCUT_SMR_1>
-0.44519523

>  <BCUT_SMR_2>
0.90784878

>  <BCUT_SMR_3>
2.7573142

>  <bpol>
22.874105

>  <b_1rotN>
6

>  <b_1rotR>
0.23076923

>  <b_ar>
17

>  <b_count>
41

>  <b_double>
0

>  <b_heavy>
26

>  <b_max1len>
5

>  <b_rotN>
6

>  <b_rotR>
0.23076923

>  <b_single>
24

>  <b_triple>
0

>  <chi0>
16.940947

>  <chi0v>
14.969422

>  <chi0v_C>
10.265066

>  <chi0_C>
11.949383

>  <chi1>
11.614194

>  <chi1v>
8.5174522

>  <chi1v_C>
4.9432111

>  <chi1_C>
6.7491498

>  <chiral>
1

>  <chiral_u>
1

>  <density>
0.83611333

>  <diameter>
12

>  <FCharge>
0

>  <GCUT_PEOE_0>
-0.85165101

>  <GCUT_PEOE_1>
-0.38492009

>  <GCUT_PEOE_2>
0.06828367

>  <GCUT_PEOE_3>
2.5279107

>  <GCUT_SLOGP_0>
-0.80750251

>  <GCUT_SLOGP_1>
-0.26700342

>  <GCUT_SLOGP_2>
0.28769088

>  <GCUT_SLOGP_3>
2.6878974

>  <GCUT_SMR_0>
-0.50849825

>  <GCUT_SMR_1>
-0.17963064

>  <GCUT_SMR_2>
0.34731495

>  <GCUT_SMR_3>
2.8081791

>  <Kier1>
18.781065

>  <Kier2>
9.087347

>  <Kier3>
5.4970255

>  <KierA1>
16.639889

>  <KierA2>
8.0068359

>  <KierA3>
4.8241429

>  <KierFlex>
5.5513692

>  <lip_acc>
3

>  <lip_don>
0

>  <lip_druglike>
1

>  <lip_violation>
1

>  <logP(o/w)>
5.4580002

>  <logS>
-5.76442

>  <mr>
10.052691

>  <mutagenic>
0

>  <nmol>
1

>  <opr_brigid>
17

>  <opr_leadlike>
1

>  <opr_nring>
3

>  <opr_nrot>
6

>  <opr_violation>
1

>  <PC+>
0

>  <PC->
0

>  <PEOE_PC+>
1.5327213

>  <PEOE_PC->
-1.5327213

>  <PEOE_RPC+>
0.067343995

>  <PEOE_RPC->
0.23851357

>  <PEOE_VSA+0>
49.259609

>  <PEOE_VSA+1>
109.09595

>  <PEOE_VSA+2>
9.1703148

>  <PEOE_VSA+3>
0

>  <PEOE_VSA+4>
0

>  <PEOE_VSA+5>
0

>  <PEOE_VSA+6>
0

>  <PEOE_VSA-0>
51.228157

>  <PEOE_VSA-1>
125.51055

>  <PEOE_VSA-2>
0

>  <PEOE_VSA-3>
0

>  <PEOE_VSA-4>
5.6825762

>  <PEOE_VSA-5>
0

>  <PEOE_VSA-6>
2.503756

>  <PEOE_VSA_FHYD>
0.97677314

>  <PEOE_VSA_FNEG>
0.52468312

>  <PEOE_VSA_FPNEG>
0.023226872

>  <PEOE_VSA_FPOL>
0.023226872

>  <PEOE_VSA_FPOS>
0.47531688

>  <PEOE_VSA_FPPOS>
0

>  <PEOE_VSA_HYD>
344.26459

>  <PEOE_VSA_NEG>
184.92503

>  <PEOE_VSA_PNEG>
8.1863317

>  <PEOE_VSA_POL>
8.1863317

>  <PEOE_VSA_POS>
167.52588

>  <PEOE_VSA_PPOS>
0

>  <petitjean>
0.5

>  <petitjeanSC>
1

>  <Q_PC+>
0

>  <Q_PC->
0

>  <Q_RPC+>
0

>  <Q_RPC->
0

>  <Q_VSA_FHYD>
1

>  <Q_VSA_FNEG>
0

>  <Q_VSA_FPNEG>
0

>  <Q_VSA_FPOL>
0

>  <Q_VSA_FPOS>
1

>  <Q_VSA_FPPOS>
0

>  <Q_VSA_HYD>
352.45093

>  <Q_VSA_NEG>
0

>  <Q_VSA_PNEG>
0

>  <Q_VSA_POL>
0

>  <Q_VSA_POS>
352.45093

>  <Q_VSA_PPOS>
0

>  <radius>
6

>  <reactive>
0

>  <rings>
3

>  <RPC+>
0

>  <RPC->
0

>  <rsynth>
1

>  <SlogP>
6.4296999

>  <SlogP_VSA0>
0

>  <SlogP_VSA1>
18.684622

>  <SlogP_VSA2>
10.999887

>  <SlogP_VSA3>
0

>  <SlogP_VSA4>
6.37115

>  <SlogP_VSA5>
0

>  <SlogP_VSA6>
10.50182

>  <SlogP_VSA7>
174.71654

>  <SlogP_VSA8>
6.4686494

>  <SlogP_VSA9>
156.81177

>  <SMR>
9.8191996

>  <SMR_VSA0>
10.999887

>  <SMR_VSA1>
18.684622

>  <SMR_VSA2>
0

>  <SMR_VSA3>
23.341619

>  <SMR_VSA4>
0

>  <SMR_VSA5>
214.08237

>  <SMR_VSA6>
0

>  <SMR_VSA7>
117.44593

>  <TPSA>
27.049999

>  <VAdjEq>
0.43739632

>  <VAdjMa>
5.7004399

>  <VDistEq>
3.3448329

>  <VDistMa>
8.8911858

>  <vdw_area>
352.45093

>  <vdw_vol>
456.5051

>  <vsa_acc>
8.1863317

>  <vsa_acid>
0

>  <vsa_base>
0

>  <vsa_don>
0

>  <vsa_hyd>
308.79712

>  <vsa_other>
24.790518

>  <vsa_pol>
8.1863317

>  <Weight>
381.69

>  <weinerPath>
1406

>  <weinerPol>
32

>  <zagreb>
122

$$$$