O=C1NC(=O)N(c2nc[nH]c12)CCC
  MOE2013           2D

 14 15  0  0  0  0  0  0  0  0999 V2000
    0.0000    0.0000    0.0000 O   0  0  0  0  0  0  0  0  0  0  0  0
    1.3020    0.7450    0.0000 C   0  0  0  0  0  0  0  0  0  0  0  0
    2.5980   -0.0100    0.0000 N   0  0  0  0  0  0  0  0  0  0  0  0
    3.9000    0.7350    0.0000 C   0  0  0  0  0  0  0  0  0  0  0  0
    5.1960   -0.0200    0.0000 O   0  0  0  0  0  0  0  0  0  0  0  0
    3.9060    2.2350    0.0000 N   0  0  0  0  0  0  0  0  0  0  0  0
    2.6090    2.9900    0.0000 C   0  0  0  0  0  0  0  0  0  0  0  0
    2.3030    4.4590    0.0000 N   0  0  0  0  0  0  0  0  0  0  0  0
    0.8120    4.6210    0.0000 C   0  0  0  0  0  0  0  0  0  0  0  0
    0.1970    3.2530    0.0000 N   0  0  0  0  0  0  0  0  0  0  0  0
    1.3070    2.2450    0.0000 C   0  0  0  0  0  0  0  0  0  0  0  0
    5.2070    2.9800    0.0000 C   0  0  0  0  0  0  0  0  0  0  0  0
    6.5040    2.2260    0.0000 C   0  0  0  0  0  0  0  0  0  0  0  0
    7.8050    2.9710    0.0000 C   0  0  0  0  0  0  0  0  0  0  0  0
  1  2  2  0  0  0  0
  2  3  1  0  0  0  0
  2 11  1  0  0  0  0
  3  4  1  0  0  0  0
  4  5  2  0  0  0  0
  4  6  1  0  0  0  0
  6  7  1  0  0  0  0
  6 12  1  0  0  0  0
  7  8  1  0  0  0  0
  7 11  2  0  0  0  0
  8  9  2  0  0  0  0
  9 10  1  0  0  0  0
 10 11  1  0  0  0  0
 12 13  1  0  0  0  0
 13 14  1  0  0  0  0
M  END
>  <Index>
373

>  <ID>
HT0762

>  <class>
0

>  <apol>
26.75193

>  <ast_fraglike>
0

>  <ast_fraglike_ext>
0

>  <ast_violation>
1

>  <ast_violation_ext>
1

>  <a_acc>
4

>  <a_acid>
0

>  <a_aro>
5

>  <a_base>
0

>  <a_count>
24

>  <a_don>
3

>  <a_donacc>
7

>  <a_heavy>
14

>  <a_hyd>
4

>  <a_IC>
42.81982

>  <a_ICM>
1.7841592

>  <a_nB>
0

>  <a_nBr>
0

>  <a_nC>
8

>  <a_nCl>
0

>  <a_nF>
0

>  <a_nH>
10

>  <a_nI>
0

>  <a_nN>
4

>  <a_nO>
2

>  <a_nP>
0

>  <a_nS>
0

>  <balabanJ>
2.0942161

>  <BCUT_PEOE_0>
-2.5555246

>  <BCUT_PEOE_1>
-0.52980506

>  <BCUT_PEOE_2>
0.58472383

>  <BCUT_PEOE_3>
2.5313005

>  <BCUT_SLOGP_0>
-2.6673384

>  <BCUT_SLOGP_1>
-0.4468053

>  <BCUT_SLOGP_2>
0.66297877

>  <BCUT_SLOGP_3>
2.5527418

>  <BCUT_SMR_0>
-2.29035

>  <BCUT_SMR_1>
-0.34671909

>  <BCUT_SMR_2>
0.71692616

>  <BCUT_SMR_3>
2.8093543

>  <bpol>
17.468069

>  <b_1rotN>
2

>  <b_1rotR>
0.13333334

>  <b_ar>
5

>  <b_count>
25

>  <b_double>
2

>  <b_heavy>
15

>  <b_max1len>
4

>  <b_rotN>
2

>  <b_rotR>
0.13333334

>  <b_single>
18

>  <b_triple>
0

>  <chi0>
10.129392

>  <chi0v>
7.7024875

>  <chi0v_C>
4.9915638

>  <chi0_C>
5.4307213

>  <chi1>
6.736382

>  <chi1v>
4.3992772

>  <chi1v_C>
1.7071068

>  <chi1_C>
1.8737735

>  <chiral>
0

>  <chiral_u>
0

>  <density>
0.81620759

>  <diameter>
7

>  <FCharge>
0

>  <GCUT_PEOE_0>
-0.82475454

>  <GCUT_PEOE_1>
-0.43436593

>  <GCUT_PEOE_2>
0.12191614

>  <GCUT_PEOE_3>
2.3323038

>  <GCUT_SLOGP_0>
-1.1698307

>  <GCUT_SLOGP_1>
-0.32382315

>  <GCUT_SLOGP_2>
0.20778379

>  <GCUT_SLOGP_3>
2.3101182

>  <GCUT_SMR_0>
-0.52115458

>  <GCUT_SMR_1>
-0.20875373

>  <GCUT_SMR_2>
0.20643081

>  <GCUT_SMR_3>
2.5966227

>  <Kier1>
10.515555

>  <Kier2>
4.2448978

>  <Kier3>
1.8834721

>  <KierA1>
7.0346155

>  <KierA2>
2.7415235

>  <KierA3>
1.1838217

>  <KierFlex>
1.3775402

>  <lip_acc>
6

>  <lip_don>
2

>  <lip_druglike>
1

>  <lip_violation>
0

>  <logP(o/w)>
-0.236

>  <logS>
-1.4292901

>  <mr>
4.9037666

>  <mutagenic>
0

>  <nmol>
1

>  <opr_brigid>
10

>  <opr_leadlike>
1

>  <opr_nring>
2

>  <opr_nrot>
2

>  <opr_violation>
0

>  <PC+>
0

>  <PC->
0

>  <PEOE_PC+>
1.7196578

>  <PEOE_PC->
-1.7196578

>  <PEOE_RPC+>
0.19245505

>  <PEOE_RPC->
0.19708087

>  <PEOE_VSA+0>
43.050026

>  <PEOE_VSA+1>
21.236927

>  <PEOE_VSA+2>
10.964937

>  <PEOE_VSA+3>
28.428589

>  <PEOE_VSA+4>
0

>  <PEOE_VSA+5>
12.949531

>  <PEOE_VSA+6>
17.440542

>  <PEOE_VSA-0>
8.701313

>  <PEOE_VSA-1>
18.747677

>  <PEOE_VSA-2>
0

>  <PEOE_VSA-3>
0

>  <PEOE_VSA-4>
19.249496

>  <PEOE_VSA-5>
13.703812

>  <PEOE_VSA-6>
0.13689101

>  <PEOE_VSA_FHYD>
0.67380732

>  <PEOE_VSA_FNEG>
0.31107995

>  <PEOE_VSA_FPNEG>
0.17003362

>  <PEOE_VSA_FPOL>
0.32619268

>  <PEOE_VSA_FPOS>
0.68892002

>  <PEOE_VSA_FPPOS>
0.15615906

>  <PEOE_VSA_HYD>
131.12947

>  <PEOE_VSA_NEG>
60.539192

>  <PEOE_VSA_PNEG>
33.090199

>  <PEOE_VSA_POL>
63.480274

>  <PEOE_VSA_POS>
134.07056

>  <PEOE_VSA_PPOS>
30.390074

>  <petitjean>
0.42857143

>  <petitjeanSC>
0.75

>  <Q_PC+>
0

>  <Q_PC->
0

>  <Q_RPC+>
0

>  <Q_RPC->
0

>  <Q_VSA_FHYD>
1

>  <Q_VSA_FNEG>
0

>  <Q_VSA_FPNEG>
0

>  <Q_VSA_FPOL>
0

>  <Q_VSA_FPOS>
1

>  <Q_VSA_FPPOS>
0

>  <Q_VSA_HYD>
194.60974

>  <Q_VSA_NEG>
0

>  <Q_VSA_PNEG>
0

>  <Q_VSA_POL>
0

>  <Q_VSA_POS>
194.60974

>  <Q_VSA_PPOS>
0

>  <radius>
4

>  <reactive>
0

>  <rings>
2

>  <RPC+>
0

>  <RPC->
0

>  <rsynth>
1

>  <SlogP>
0.48949999

>  <SlogP_VSA0>
21.135065

>  <SlogP_VSA1>
26.874269

>  <SlogP_VSA2>
16.78553

>  <SlogP_VSA3>
18.439579

>  <SlogP_VSA4>
26.618963

>  <SlogP_VSA5>
0

>  <SlogP_VSA6>
0

>  <SlogP_VSA7>
16.78553

>  <SlogP_VSA8>
18.868406

>  <SlogP_VSA9>
59.516151

>  <SMR>
4.90869

>  <SMR_VSA0>
47.724434

>  <SMR_VSA1>
16.78553

>  <SMR_VSA2>
37.920593

>  <SMR_VSA3>
2.7567475

>  <SMR_VSA4>
2.3279202

>  <SMR_VSA5>
35.653934

>  <SMR_VSA6>
28.528318

>  <SMR_VSA7>
33.326015

>  <TPSA>
78.089996

>  <VAdjEq>
0.61744827

>  <VAdjMa>
4.9068904

>  <VDistEq>
2.4966893

>  <VDistMa>
7.33887

>  <vdw_area>
194.60974

>  <vdw_vol>
237.92232

>  <vsa_acc>
27.133842

>  <vsa_acid>
0

>  <vsa_base>
0

>  <vsa_don>
5.6825762

>  <vsa_hyd>
72.216003

>  <vsa_other>
66.371155

>  <vsa_pol>
44.181568

>  <Weight>
194.194

>  <weinerPath>
277

>  <weinerPol>
21

>  <zagreb>
72

$$$$