O(CCOC)c1cc2c(ncnc2Nc2cc(ccc2)C#C)cc1OCCOC
  MOE2013           2D

 29 31  0  0  0  0  0  0  0  0999 V2000
    0.0000    0.0000    0.0000 O   0  0  0  0  0  0  0  0  0  0  0  0
   -0.7450    1.3020    0.0000 C   0  0  0  0  0  0  0  0  0  0  0  0
    0.0090    2.5980    0.0000 C   0  0  0  0  0  0  0  0  0  0  0  0
   -0.7360    3.9000    0.0000 O   0  0  0  0  0  0  0  0  0  0  0  0
    0.0190    5.1960    0.0000 C   0  0  0  0  0  0  0  0  0  0  0  0
   -0.7550   -1.2960    0.0000 C   0  0  0  0  0  0  0  0  0  0  0  0
   -2.2550   -1.2910    0.0000 C   0  0  0  0  0  0  0  0  0  0  0  0
   -3.0090   -2.5870    0.0000 C   0  0  0  0  0  0  0  0  0  0  0  0
   -2.2640   -3.8890    0.0000 C   0  0  0  0  0  0  0  0  0  0  0  0
   -3.0190   -5.1850    0.0000 N   0  0  0  0  0  0  0  0  0  0  0  0
   -4.5190   -5.1800    0.0000 C   0  0  0  0  0  0  0  0  0  0  0  0
   -5.2640   -3.8780    0.0000 N   0  0  0  0  0  0  0  0  0  0  0  0
   -4.5090   -2.5820    0.0000 C   0  0  0  0  0  0  0  0  0  0  0  0
   -5.2550   -1.2800    0.0000 N   0  0  0  0  0  0  0  0  0  0  0  0
   -6.7550   -1.2750    0.0000 C   0  0  0  0  0  0  0  0  0  0  0  0
   -7.5000    0.0270    0.0000 C   0  0  0  0  0  0  0  0  0  0  0  0
   -9.0000    0.0330    0.0000 C   0  0  0  0  0  0  0  0  0  0  0  0
   -9.7550   -1.2640    0.0000 C   0  0  0  0  0  0  0  0  0  0  0  0
   -9.0090   -2.5650    0.0000 C   0  0  0  0  0  0  0  0  0  0  0  0
   -7.5090   -2.5710    0.0000 C   0  0  0  0  0  0  0  0  0  0  0  0
   -9.7450    1.3340    0.0000 C   0  0  0  0  0  0  0  0  0  0  0  0
  -10.4910    2.6360    0.0000 C   0  0  0  0  0  0  0  0  0  0  0  0
   -0.7640   -3.8940    0.0000 C   0  0  0  0  0  0  0  0  0  0  0  0
   -0.0090   -2.5980    0.0000 C   0  0  0  0  0  0  0  0  0  0  0  0
    1.4910   -2.6030    0.0000 O   0  0  0  0  0  0  0  0  0  0  0  0
    2.2360   -3.9050    0.0000 C   0  0  0  0  0  0  0  0  0  0  0  0
    3.7360   -3.9110    0.0000 C   0  0  0  0  0  0  0  0  0  0  0  0
    4.4810   -5.2120    0.0000 O   0  0  0  0  0  0  0  0  0  0  0  0
    5.9810   -5.2180    0.0000 C   0  0  0  0  0  0  0  0  0  0  0  0
  1  2  1  0  0  0  0
  1  6  1  0  0  0  0
  2  3  1  0  0  0  0
  3  4  1  0  0  0  0
  4  5  1  0  0  0  0
  6  7  2  0  0  0  0
  6 24  1  0  0  0  0
  7  8  1  0  0  0  0
  8  9  1  0  0  0  0
  8 13  2  0  0  0  0
  9 10  2  0  0  0  0
  9 23  1  0  0  0  0
 10 11  1  0  0  0  0
 11 12  2  0  0  0  0
 12 13  1  0  0  0  0
 13 14  1  0  0  0  0
 14 15  1  0  0  0  0
 15 16  1  0  0  0  0
 15 20  2  0  0  0  0
 16 17  2  0  0  0  0
 17 18  1  0  0  0  0
 17 21  1  0  0  0  0
 18 19  2  0  0  0  0
 19 20  1  0  0  0  0
 21 22  3  0  0  0  0
 23 24  2  0  0  0  0
 24 25  1  0  0  0  0
 25 26  1  0  0  0  0
 26 27  1  0  0  0  0
 27 28  1  0  0  0  0
 28 29  1  0  0  0  0
M  END
>  <Index>
386

>  <ID>
HT0781

>  <class>
0

>  <apol>
60.56424

>  <ast_fraglike>
0

>  <ast_fraglike_ext>
0

>  <ast_violation>
3

>  <ast_violation_ext>
4

>  <a_acc>
6

>  <a_acid>
0

>  <a_aro>
16

>  <a_base>
0

>  <a_count>
52

>  <a_don>
1

>  <a_donacc>
7

>  <a_heavy>
29

>  <a_hyd>
20

>  <a_IC>
81.518555

>  <a_ICM>
1.5676645

>  <a_nB>
0

>  <a_nBr>
0

>  <a_nC>
22

>  <a_nCl>
0

>  <a_nF>
0

>  <a_nH>
23

>  <a_nI>
0

>  <a_nN>
3

>  <a_nO>
4

>  <a_nP>
0

>  <a_nS>
0

>  <balabanJ>
1.5939776

>  <BCUT_PEOE_0>
-2.463881

>  <BCUT_PEOE_1>
-0.5350486

>  <BCUT_PEOE_2>
0.54058129

>  <BCUT_PEOE_3>
2.441875

>  <BCUT_SLOGP_0>
-2.5564489

>  <BCUT_SLOGP_1>
-0.48091644

>  <BCUT_SLOGP_2>
0.63599151

>  <BCUT_SLOGP_3>
2.4720778

>  <BCUT_SMR_0>
-2.2235014

>  <BCUT_SMR_1>
-0.33708531

>  <BCUT_SMR_2>
0.7579819

>  <BCUT_SMR_3>
2.6760747

>  <bpol>
36.107761

>  <b_1rotN>
10

>  <b_1rotR>
0.32258064

>  <b_ar>
17

>  <b_count>
54

>  <b_double>
0

>  <b_heavy>
31

>  <b_max1len>
5

>  <b_rotN>
11

>  <b_rotR>
0.3548387

>  <b_single>
36

>  <b_triple>
1

>  <chi0>
20.47648

>  <chi0v>
16.474649

>  <chi0v_C>
13.447229

>  <chi0_C>
15.526733

>  <chi1>
14.245045

>  <chi1v>
9.1077995

>  <chi1v_C>
5.2647429

>  <chi1_C>
7.3813415

>  <chiral>
0

>  <chiral_u>
0

>  <density>
0.72823054

>  <diameter>
15

>  <FCharge>
0

>  <GCUT_PEOE_0>
-0.81188321

>  <GCUT_PEOE_1>
-0.39634827

>  <GCUT_PEOE_2>
-0.0028783854

>  <GCUT_PEOE_3>
2.5625989

>  <GCUT_SLOGP_0>
-0.92431486

>  <GCUT_SLOGP_1>
-0.26724949

>  <GCUT_SLOGP_2>
0.105287

>  <GCUT_SLOGP_3>
2.6943269

>  <GCUT_SMR_0>
-0.51561022

>  <GCUT_SMR_1>
-0.18753758

>  <GCUT_SMR_2>
0.16329986

>  <GCUT_SMR_3>
2.855284

>  <Kier1>
23.658689

>  <Kier2>
12.7575

>  <Kier3>
7

>  <KierA1>
17.374384

>  <KierA2>
9.2577209

>  <KierA3>
5.03511

>  <KierFlex>
5.5464549

>  <lip_acc>
7

>  <lip_don>
1

>  <lip_druglike>
1

>  <lip_violation>
0

>  <logP(o/w)>
2.33922

>  <logS>
-5.3442502

>  <mr>
11.187799

>  <mutagenic>
0

>  <nmol>
1

>  <opr_brigid>
18

>  <opr_leadlike>
1

>  <opr_nring>
3

>  <opr_nrot>
11

>  <opr_violation>
1

>  <PC+>
0

>  <PC->
0

>  <PEOE_PC+>
2.5222101

>  <PEOE_PC->
-2.5222101

>  <PEOE_RPC+>
0.053536456

>  <PEOE_RPC->
0.15093701

>  <PEOE_VSA+0>
61.111946

>  <PEOE_VSA+1>
151.81244

>  <PEOE_VSA+2>
66.494316

>  <PEOE_VSA+3>
0

>  <PEOE_VSA+4>
0

>  <PEOE_VSA+5>
0

>  <PEOE_VSA+6>
0

>  <PEOE_VSA-0>
61.274521

>  <PEOE_VSA-1>
28.063398

>  <PEOE_VSA-2>
25.854858

>  <PEOE_VSA-3>
0

>  <PEOE_VSA-4>
11.502043

>  <PEOE_VSA-5>
0

>  <PEOE_VSA-6>
10.015024

>  <PEOE_VSA_FHYD>
0.94829226

>  <PEOE_VSA_FNEG>
0.32852793

>  <PEOE_VSA_FPNEG>
0.051707741

>  <PEOE_VSA_FPOL>
0.051707741

>  <PEOE_VSA_FPOS>
0.67147207

>  <PEOE_VSA_FPPOS>
0

>  <PEOE_VSA_HYD>
394.61148

>  <PEOE_VSA_NEG>
136.70984

>  <PEOE_VSA_PNEG>
21.517067

>  <PEOE_VSA_POL>
21.517067

>  <PEOE_VSA_POS>
279.4187

>  <PEOE_VSA_PPOS>
0

>  <petitjean>
0.46666667

>  <petitjeanSC>
0.875

>  <Q_PC+>
0

>  <Q_PC->
0

>  <Q_RPC+>
0

>  <Q_RPC->
0

>  <Q_VSA_FHYD>
1

>  <Q_VSA_FNEG>
0

>  <Q_VSA_FPNEG>
0

>  <Q_VSA_FPOL>
0

>  <Q_VSA_FPOS>
1

>  <Q_VSA_FPPOS>
0

>  <Q_VSA_HYD>
416.12854

>  <Q_VSA_NEG>
0

>  <Q_VSA_PNEG>
0

>  <Q_VSA_POL>
0

>  <Q_VSA_POS>
416.12854

>  <Q_VSA_PPOS>
0

>  <radius>
8

>  <reactive>
0

>  <rings>
3

>  <RPC+>
0

>  <RPC->
0

>  <rsynth>
1

>  <SlogP>
3.405108

>  <SlogP_VSA0>
21.999775

>  <SlogP_VSA1>
51.58181

>  <SlogP_VSA2>
21.999775

>  <SlogP_VSA3>
100.73561

>  <SlogP_VSA4>
34.673759

>  <SlogP_VSA5>
70.767738

>  <SlogP_VSA6>
0

>  <SlogP_VSA7>
127.36174

>  <SlogP_VSA8>
0

>  <SlogP_VSA9>
15.571524

>  <SMR>
11.19397

>  <SMR_VSA0>
21.999775

>  <SMR_VSA1>
55.570835

>  <SMR_VSA2>
0

>  <SMR_VSA3>
30.703005

>  <SMR_VSA4>
27.812519

>  <SMR_VSA5>
122.64464

>  <SMR_VSA6>
115.19321

>  <SMR_VSA7>
70.767738

>  <TPSA>
74.730003

>  <VAdjEq>
0.3796615

>  <VAdjMa>
5.9541965

>  <VDistEq>
3.6301103

>  <VDistMa>
9.4338923

>  <vdw_area>
416.12854

>  <vdw_vol>
540.27258

>  <vsa_acc>
21.380177

>  <vsa_acid>
0

>  <vsa_base>
0

>  <vsa_don>
5.6825762

>  <vsa_hyd>
334.3519

>  <vsa_other>
35.981079

>  <vsa_pol>
27.062754

>  <Weight>
393.44299

>  <weinerPath>
2396

>  <weinerPol>
43

>  <zagreb>
142

$$$$