O1[C@](NC(=O)[C@@H]2C[C@H]3[C@H](N(C2)C)Cc2c4c3cccc4[nH]c2)(C)C(=O)N2[C@@H](Cc3ccccc3)C(=O)N3[C@@H](CCC3)[C@]12O
  MOE2013           2D

 43 50  0  0  1  0  0  0  0  0999 V2000
    0.0000    0.0000    0.0000 O   0  0  0  0  0  0  0  0  0  0  0  0
    1.0100   -1.1090    0.0000 C   0  0  2  0  0  0  0  0  0  0  0  0
    2.1700   -0.1580    0.0000 N   0  0  0  0  0  0  0  0  0  0  0  0
    3.5740   -0.6880    0.0000 C   0  0  0  0  0  0  0  0  0  0  0  0
    3.8170   -2.1680    0.0000 O   0  0  0  0  0  0  0  0  0  0  0  0
    4.7340    0.2630    0.0000 C   0  0  2  0  0  0  0  0  0  0  0  0
    6.1370   -0.2670    0.0000 C   0  0  0  0  0  0  0  0  0  0  0  0
    7.3010    0.7170    0.0000 C   0  0  1  0  0  0  0  0  0  0  0  0
    7.0480    2.1580    0.0000 C   0  0  2  0  0  0  0  0  0  0  0  0
    5.6510    2.6930    0.0000 N   0  0  3  0  0  0  0  0  0  0  0  0
    4.4910    1.7430    0.0000 C   0  0  0  0  0  0  0  0  0  0  0  0
    5.4120    4.1740    0.0000 C   0  0  0  0  0  0  0  0  0  0  0  0
    8.1740    3.0980    0.0000 C   0  0  0  0  0  0  0  0  0  0  0  0
    9.5510    2.5940    0.0000 C   0  0  0  0  0  0  0  0  0  0  0  0
    9.7990    1.1460    0.0000 C   0  0  0  0  0  0  0  0  0  0  0  0
    8.6730    0.2050    0.0000 C   0  0  0  0  0  0  0  0  0  0  0  0
    8.9260   -1.2360    0.0000 C   0  0  0  0  0  0  0  0  0  0  0  0
   10.2960   -1.7470    0.0000 C   0  0  0  0  0  0  0  0  0  0  0  0
   11.4260   -0.8070    0.0000 C   0  0  0  0  0  0  0  0  0  0  0  0
   11.1780    0.6420    0.0000 C   0  0  0  0  0  0  0  0  0  0  0  0
   12.0520    1.8720    0.0000 N   0  0  0  0  0  0  0  0  0  0  0  0
   10.8650    3.3110    0.0000 C   0  0  0  0  0  0  0  0  0  0  0  0
    2.3940   -1.6870    0.0000 C   0  0  0  0  0  0  0  0  0  0  0  0
    0.2670   -2.4120    0.0000 C   0  0  0  0  0  0  0  0  0  0  0  0
    0.8850   -3.7790    0.0000 O   0  0  0  0  0  0  0  0  0  0  0  0
   -1.2020   -2.1090    0.0000 N   0  0  0  0  0  0  0  0  0  0  0  0
   -2.4100   -2.9970    0.0000 C   0  0  1  0  0  0  0  0  0  0  0  0
   -2.2450   -4.4880    0.0000 C   0  0  0  0  0  0  0  0  0  0  0  0
   -3.4530   -5.3770    0.0000 C   0  0  0  0  0  0  0  0  0  0  0  0
   -4.8270   -4.7740    0.0000 C   0  0  0  0  0  0  0  0  0  0  0  0
   -6.0350   -5.6630    0.0000 C   0  0  0  0  0  0  0  0  0  0  0  0
   -5.8700   -7.1540    0.0000 C   0  0  0  0  0  0  0  0  0  0  0  0
   -4.4960   -7.7560    0.0000 C   0  0  0  0  0  0  0  0  0  0  0  0
   -3.2880   -6.8680    0.0000 C   0  0  0  0  0  0  0  0  0  0  0  0
   -3.7840   -2.3950    0.0000 C   0  0  0  0  0  0  0  0  0  0  0  0
   -4.9920   -3.2840    0.0000 O   0  0  0  0  0  0  0  0  0  0  0  0
   -3.9490   -0.9040    0.0000 N   0  0  0  0  0  0  0  0  0  0  0  0
   -2.7410   -0.0160    0.0000 C   0  0  1  0  0  0  0  0  0  0  0  0
   -3.2120    1.4080    0.0000 C   0  0  0  0  0  0  0  0  0  0  0  0
   -4.7120    1.4000    0.0000 C   0  0  0  0  0  0  0  0  0  0  0  0
   -5.1680   -0.0290    0.0000 C   0  0  0  0  0  0  0  0  0  0  0  0
   -1.3670   -0.6180    0.0000 C   0  0  2  0  0  0  0  0  0  0  0  0
   -1.3230    0.8810    0.0000 O   0  0  0  0  0  0  0  0  0  0  0  0
  1  2  1  0  0  0  0
  1 42  1  0  0  0  0
  2  3  1  1  0  0  0
  2 23  1  6  0  0  0
  2 24  1  0  0  0  0
  3  4  1  0  0  0  0
  4  5  2  0  0  0  0
  6  4  1  1  0  0  0
  6  7  1  0  0  0  0
  6 11  1  0  0  0  0
  7  8  1  0  0  0  0
  8  9  1  0  0  0  0
  8 16  1  1  0  0  0
  9 10  1  0  0  0  0
  9 13  1  6  0  0  0
 10 11  1  0  0  0  0
 10 12  1  0  0  0  0
 13 14  1  0  0  0  0
 14 15  1  0  0  0  0
 14 22  2  0  0  0  0
 15 16  1  0  0  0  0
 15 20  2  0  0  0  0
 16 17  2  0  0  0  0
 17 18  1  0  0  0  0
 18 19  2  0  0  0  0
 19 20  1  0  0  0  0
 20 21  1  0  0  0  0
 21 22  1  0  0  0  0
 24 25  2  0  0  0  0
 24 26  1  0  0  0  0
 26 27  1  0  0  0  0
 26 42  1  0  0  0  0
 27 28  1  1  0  0  0
 27 35  1  0  0  0  0
 28 29  1  0  0  0  0
 29 30  1  0  0  0  0
 29 34  2  0  0  0  0
 30 31  2  0  0  0  0
 31 32  1  0  0  0  0
 32 33  2  0  0  0  0
 33 34  1  0  0  0  0
 35 36  2  0  0  0  0
 35 37  1  0  0  0  0
 37 41  1  0  0  0  0
 38 37  1  1  0  0  0
 38 39  1  0  0  0  0
 38 42  1  0  0  0  0
 39 40  1  0  0  0  0
 40 41  1  0  0  0  0
 42 43  1  1  0  0  0
M  END
>  <Index>
326

>  <ID>
HT0669

>  <class>
0

>  <apol>
92.261337

>  <ast_fraglike>
0

>  <ast_fraglike_ext>
0

>  <ast_violation>
2

>  <ast_violation_ext>
4

>  <a_acc>
6

>  <a_acid>
0

>  <a_aro>
15

>  <a_base>
0

>  <a_count>
80

>  <a_don>
3

>  <a_donacc>
9

>  <a_heavy>
43

>  <a_hyd>
28

>  <a_IC>
123.32018

>  <a_ICM>
1.5415024

>  <a_nB>
0

>  <a_nBr>
0

>  <a_nC>
33

>  <a_nCl>
0

>  <a_nF>
0

>  <a_nH>
37

>  <a_nI>
0

>  <a_nN>
5

>  <a_nO>
5

>  <a_nP>
0

>  <a_nS>
0

>  <balabanJ>
1.0187097

>  <BCUT_PEOE_0>
-2.8171597

>  <BCUT_PEOE_1>
-0.58483773

>  <BCUT_PEOE_2>
0.62512386

>  <BCUT_PEOE_3>
2.872951

>  <BCUT_SLOGP_0>
-2.8738732

>  <BCUT_SLOGP_1>
-0.52521718

>  <BCUT_SLOGP_2>
0.69300038

>  <BCUT_SLOGP_3>
2.7891879

>  <BCUT_SMR_0>
-2.5527623

>  <BCUT_SMR_1>
-0.4316538

>  <BCUT_SMR_2>
0.78004605

>  <BCUT_SMR_3>
3.0976577

>  <bpol>
52.498657

>  <b_1rotN>
4

>  <b_1rotR>
0.079999998

>  <b_ar>
16

>  <b_count>
87

>  <b_double>
3

>  <b_heavy>
50

>  <b_max1len>
4

>  <b_rotN>
5

>  <b_rotR>
0.1

>  <b_single>
68

>  <b_triple>
0

>  <chi0>
29.672632

>  <chi0v>
24.454498

>  <chi0v_C>
20.032652

>  <chi0_C>
21.819262

>  <chi1>
20.676308

>  <chi1v>
15.395995

>  <chi1v_C>
10.588006

>  <chi1_C>
12.717912

>  <chiral>
7

>  <chiral_u>
0

>  <density>
0.75161344

>  <diameter>
17

>  <FCharge>
0

>  <GCUT_PEOE_0>
-0.86300087

>  <GCUT_PEOE_1>
-0.40534413

>  <GCUT_PEOE_2>
0.062883154

>  <GCUT_PEOE_3>
3.241111

>  <GCUT_SLOGP_0>
-1.1635396

>  <GCUT_SLOGP_1>
-0.36929223

>  <GCUT_SLOGP_2>
0.13475707

>  <GCUT_SLOGP_3>
3.2058353

>  <GCUT_SMR_0>
-0.5298627

>  <GCUT_SMR_1>
-0.22135256

>  <GCUT_SMR_2>
0.16721439

>  <GCUT_SMR_3>
3.4796231

>  <Kier1>
30.340799

>  <Kier2>
11.312611

>  <Kier3>
4.8261995

>  <KierA1>
23.600965

>  <KierA2>
8.7439728

>  <KierA3>
3.7135174

>  <KierFlex>
4.7992144

>  <lip_acc>
10

>  <lip_don>
3

>  <lip_druglike>
1

>  <lip_violation>
1

>  <logP(o/w)>
2.872

>  <logS>
-5.1935701

>  <mr>
15.84869

>  <mutagenic>
0

>  <nmol>
1

>  <opr_brigid>
39

>  <opr_leadlike>
0

>  <opr_nring>
8

>  <opr_nrot>
4

>  <opr_violation>
3

>  <PC+>
0

>  <PC->
0

>  <PEOE_PC+>
3.7117753

>  <PEOE_PC->
-3.7117753

>  <PEOE_RPC+>
0.075673595

>  <PEOE_RPC->
0.097085491

>  <PEOE_VSA+0>
161.98981

>  <PEOE_VSA+1>
46.919247

>  <PEOE_VSA+2>
6.2919211

>  <PEOE_VSA+3>
17.238026

>  <PEOE_VSA+4>
36.223236

>  <PEOE_VSA+5>
18.549088

>  <PEOE_VSA+6>
0

>  <PEOE_VSA-0>
95.672142

>  <PEOE_VSA-1>
85.784325

>  <PEOE_VSA-2>
0

>  <PEOE_VSA-3>
0

>  <PEOE_VSA-4>
0

>  <PEOE_VSA-5>
43.204517

>  <PEOE_VSA-6>
8.0413227

>  <PEOE_VSA_FHYD>
0.79608506

>  <PEOE_VSA_FNEG>
0.44757879

>  <PEOE_VSA_FPNEG>
0.098566063

>  <PEOE_VSA_FPOL>
0.20391496

>  <PEOE_VSA_FPOS>
0.55242121

>  <PEOE_VSA_FPPOS>
0.10534889

>  <PEOE_VSA_HYD>
413.89548

>  <PEOE_VSA_NEG>
232.70232

>  <PEOE_VSA_PNEG>
51.245842

>  <PEOE_VSA_POL>
106.01817

>  <PEOE_VSA_POS>
287.21133

>  <PEOE_VSA_PPOS>
54.77232

>  <petitjean>
0.47058824

>  <petitjeanSC>
0.8888889

>  <Q_PC+>
0

>  <Q_PC->
0

>  <Q_RPC+>
0

>  <Q_RPC->
0

>  <Q_VSA_FHYD>
1

>  <Q_VSA_FNEG>
0

>  <Q_VSA_FPNEG>
0

>  <Q_VSA_FPOL>
0

>  <Q_VSA_FPOS>
1

>  <Q_VSA_FPPOS>
0

>  <Q_VSA_HYD>
519.91364

>  <Q_VSA_NEG>
0

>  <Q_VSA_PNEG>
0

>  <Q_VSA_POL>
0

>  <Q_VSA_POS>
519.91364

>  <Q_VSA_PPOS>
0

>  <radius>
9

>  <reactive>
1

>  <rings>
8

>  <RPC+>
0

>  <RPC->
0

>  <rsynth>
1

>  <SlogP>
2.0810399

>  <SlogP_VSA0>
43.395977

>  <SlogP_VSA1>
25.149292

>  <SlogP_VSA2>
111.31797

>  <SlogP_VSA3>
36.879158

>  <SlogP_VSA4>
13.967521

>  <SlogP_VSA5>
70.633995

>  <SlogP_VSA6>
4.4107962

>  <SlogP_VSA7>
163.07693

>  <SlogP_VSA8>
56.605217

>  <SlogP_VSA9>
33.326015

>  <SMR>
15.73662

>  <SMR_VSA0>
82.58654

>  <SMR_VSA1>
34.758167

>  <SMR_VSA2>
39.207077

>  <SMR_VSA3>
25.913427

>  <SMR_VSA4>
4.7171016

>  <SMR_VSA5>
252.70186

>  <SMR_VSA6>
52.655506

>  <SMR_VSA7>
66.223206

>  <TPSA>
118.21

>  <VAdjEq>
0.30349553

>  <VAdjMa>
6.643856

>  <VDistEq>
3.8625476

>  <VDistMa>
10.574031

>  <vdw_area>
519.91364

>  <vdw_vol>
776.58136

>  <vsa_acc>
43.204517

>  <vsa_acid>
0

>  <vsa_base>
0

>  <vsa_don>
11.365152

>  <vsa_hyd>
369.7663

>  <vsa_other>
44.448151

>  <vsa_pol>
68.136589

>  <Weight>
583.68896

>  <weinerPath>
6191

>  <weinerPol>
88

>  <zagreb>
258

$$$$