O1[C@H](CO)[C@@H](O)[C@@H](O)[C@@H]1n1c2ncnc(N)c2nc1
  MOE2013           2D

 19 21  0  0  1  0  0  0  0  0999 V2000
    0.0000    0.0000    0.0000 O   0  0  0  0  0  0  0  0  0  0  0  0
   -1.4300    0.4530    0.0000 C   0  0  2  0  0  0  0  0  0  0  0  0
   -2.6370   -0.4380    0.0000 C   0  0  0  0  0  0  0  0  0  0  0  0
   -2.4690   -1.9290    0.0000 O   0  0  0  0  0  0  0  0  0  0  0  0
   -1.4410    1.9530    0.0000 C   0  0  1  0  0  0  0  0  0  0  0  0
   -2.6620    2.8250    0.0000 O   0  0  0  0  0  0  0  0  0  0  0  0
   -0.0180    2.4270    0.0000 C   0  0  1  0  0  0  0  0  0  0  0  0
    0.4340    3.8570    0.0000 O   0  0  0  0  0  0  0  0  0  0  0  0
    0.8720    1.2200    0.0000 C   0  0  2  0  0  0  0  0  0  0  0  0
    2.3720    1.2310    0.0000 N   0  0  0  0  0  0  0  0  0  0  0  0
    3.2630    0.0250    0.0000 C   0  0  0  0  0  0  0  0  0  0  0  0
    2.9620   -1.4450    0.0000 N   0  0  0  0  0  0  0  0  0  0  0  0
    4.0850   -2.4400    0.0000 C   0  0  0  0  0  0  0  0  0  0  0  0
    5.5080   -1.9660    0.0000 N   0  0  0  0  0  0  0  0  0  0  0  0
    5.8090   -0.4960    0.0000 C   0  0  0  0  0  0  0  0  0  0  0  0
    7.2320   -0.0220    0.0000 N   0  0  0  0  0  0  0  0  0  0  0  0
    4.6860    0.4990    0.0000 C   0  0  0  0  0  0  0  0  0  0  0  0
    4.6750    1.9990    0.0000 N   0  0  0  0  0  0  0  0  0  0  0  0
    3.2450    2.4520    0.0000 C   0  0  0  0  0  0  0  0  0  0  0  0
  1  2  1  0  0  0  0
  1  9  1  0  0  0  0
  2  3  1  6  0  0  0
  2  5  1  0  0  0  0
  3  4  1  0  0  0  0
  5  6  1  1  0  0  0
  5  7  1  0  0  0  0
  7  8  1  1  0  0  0
  7  9  1  0  0  0  0
  9 10  1  6  0  0  0
 10 11  1  0  0  0  0
 10 19  1  0  0  0  0
 11 12  2  0  0  0  0
 11 17  1  0  0  0  0
 12 13  1  0  0  0  0
 13 14  2  0  0  0  0
 14 15  1  0  0  0  0
 15 16  1  0  0  0  0
 15 17  2  0  0  0  0
 17 18  1  0  0  0  0
 18 19  2  0  0  0  0
M  END
>  <Index>
31

>  <ID>
HT0077

>  <class>
0

>  <apol>
34.976311

>  <ast_fraglike>
0

>  <ast_fraglike_ext>
0

>  <ast_violation>
2

>  <ast_violation_ext>
3

>  <a_acc>
7

>  <a_acid>
0

>  <a_aro>
9

>  <a_base>
0

>  <a_count>
32

>  <a_don>
4

>  <a_donacc>
11

>  <a_heavy>
19

>  <a_hyd>
5

>  <a_IC>
59.065361

>  <a_ICM>
1.8457925

>  <a_nB>
0

>  <a_nBr>
0

>  <a_nC>
10

>  <a_nCl>
0

>  <a_nF>
0

>  <a_nH>
13

>  <a_nI>
0

>  <a_nN>
5

>  <a_nO>
4

>  <a_nP>
0

>  <a_nS>
0

>  <balabanJ>
1.733572

>  <BCUT_PEOE_0>
-2.5108883

>  <BCUT_PEOE_1>
-0.68671495

>  <BCUT_PEOE_2>
0.75709182

>  <BCUT_PEOE_3>
2.7699709

>  <BCUT_SLOGP_0>
-2.7103441

>  <BCUT_SLOGP_1>
-0.71318597

>  <BCUT_SLOGP_2>
0.5671671

>  <BCUT_SLOGP_3>
2.6370289

>  <BCUT_SMR_0>
-2.3198552

>  <BCUT_SMR_1>
-0.47249556

>  <BCUT_SMR_2>
0.85498631

>  <BCUT_SMR_3>
2.9579263

>  <bpol>
21.40769

>  <b_1rotN>
2

>  <b_1rotR>
0.095238097

>  <b_ar>
10

>  <b_count>
34

>  <b_double>
0

>  <b_heavy>
21

>  <b_max1len>
4

>  <b_rotN>
2

>  <b_rotR>
0.095238097

>  <b_single>
24

>  <b_triple>
0

>  <chi0>
13.568549

>  <chi0v>
9.787302

>  <chi0v_C>
5.6712084

>  <chi0_C>
6.1627722

>  <chi1>
9.130229

>  <chi1v>
5.6863751

>  <chi1v_C>
1.9082483

>  <chi1_C>
2.0749149

>  <chiral>
4

>  <chiral_u>
0

>  <density>
0.86836678

>  <diameter>
9

>  <FCharge>
0

>  <GCUT_PEOE_0>
-0.80407888

>  <GCUT_PEOE_1>
-0.42974123

>  <GCUT_PEOE_2>
0.17337956

>  <GCUT_PEOE_3>
2.578685

>  <GCUT_SLOGP_0>
-1.3347176

>  <GCUT_SLOGP_1>
-0.53768247

>  <GCUT_SLOGP_2>
0.036190193

>  <GCUT_SLOGP_3>
2.5321853

>  <GCUT_SMR_0>
-0.5261125

>  <GCUT_SMR_1>
-0.24114633

>  <GCUT_SMR_2>
0.24749324

>  <GCUT_SMR_3>
2.8051066

>  <Kier1>
13.959184

>  <Kier2>
5.4131112

>  <Kier3>
2.2755556

>  <KierA1>
10.803572

>  <KierA2>
4.125

>  <KierA3>
1.7131481

>  <KierFlex>
2.3455122

>  <lip_acc>
9

>  <lip_don>
5

>  <lip_druglike>
1

>  <lip_violation>
0

>  <logP(o/w)>
-2.3189399

>  <logS>
-0.96267998

>  <mr>
6.2680335

>  <mutagenic>
1

>  <nmol>
1

>  <opr_brigid>
15

>  <opr_leadlike>
1

>  <opr_nring>
3

>  <opr_nrot>
3

>  <opr_violation>
1

>  <PC+>
0

>  <PC->
0

>  <PEOE_PC+>
2.7484372

>  <PEOE_PC->
-2.7484372

>  <PEOE_RPC+>
0.076438606

>  <PEOE_RPC->
0.14275981

>  <PEOE_VSA+0>
0

>  <PEOE_VSA+1>
40.54361

>  <PEOE_VSA+2>
100.84755

>  <PEOE_VSA+3>
20.586502

>  <PEOE_VSA+4>
30.972517

>  <PEOE_VSA+5>
0

>  <PEOE_VSA+6>
0

>  <PEOE_VSA-0>
0

>  <PEOE_VSA-1>
0

>  <PEOE_VSA-2>
0

>  <PEOE_VSA-3>
0

>  <PEOE_VSA-4>
17.047728

>  <PEOE_VSA-5>
6.6511192

>  <PEOE_VSA-6>
25.806377

>  <PEOE_VSA_FHYD>
0.66807199

>  <PEOE_VSA_FNEG>
0.2041828

>  <PEOE_VSA_FPNEG>
0.2041828

>  <PEOE_VSA_FPOL>
0.33192801

>  <PEOE_VSA_FPOS>
0.7958172

>  <PEOE_VSA_FPPOS>
0.12774521

>  <PEOE_VSA_HYD>
161.97766

>  <PEOE_VSA_NEG>
49.505226

>  <PEOE_VSA_PNEG>
49.505226

>  <PEOE_VSA_POL>
80.477745

>  <PEOE_VSA_POS>
192.95018

>  <PEOE_VSA_PPOS>
30.972517

>  <petitjean>
0.44444445

>  <petitjeanSC>
0.80000001

>  <Q_PC+>
0

>  <Q_PC->
0

>  <Q_RPC+>
0

>  <Q_RPC->
0

>  <Q_VSA_FHYD>
1

>  <Q_VSA_FNEG>
0

>  <Q_VSA_FPNEG>
0

>  <Q_VSA_FPOL>
0

>  <Q_VSA_FPOS>
1

>  <Q_VSA_FPPOS>
0

>  <Q_VSA_HYD>
242.45541

>  <Q_VSA_NEG>
0

>  <Q_VSA_PNEG>
0

>  <Q_VSA_POL>
0

>  <Q_VSA_POS>
242.45541

>  <Q_VSA_PPOS>
0

>  <radius>
5

>  <reactive>
0

>  <rings>
3

>  <RPC+>
0

>  <RPC->
0

>  <rsynth>
1

>  <SlogP>
-1.8845

>  <SlogP_VSA0>
109.05286

>  <SlogP_VSA1>
52.25568

>  <SlogP_VSA2>
30.405836

>  <SlogP_VSA3>
20.926258

>  <SlogP_VSA4>
0

>  <SlogP_VSA5>
0

>  <SlogP_VSA6>
0

>  <SlogP_VSA7>
37.430504

>  <SlogP_VSA8>
6.0398216

>  <SlogP_VSA9>
2.3279202

>  <SMR>
6.2855802

>  <SMR_VSA0>
10.999887

>  <SMR_VSA1>
128.41136

>  <SMR_VSA2>
0

>  <SMR_VSA3>
25.44577

>  <SMR_VSA4>
6.187367

>  <SMR_VSA5>
66.468246

>  <SMR_VSA6>
20.926258

>  <SMR_VSA7>
0

>  <TPSA>
139.53999

>  <VAdjEq>
0.51875818

>  <VAdjMa>
5.3923173

>  <VDistEq>
2.9318085

>  <VDistMa>
8.2141438

>  <vdw_area>
242.45541

>  <vdw_vol>
307.75589

>  <vsa_acc>
19.551485

>  <vsa_acid>
0

>  <vsa_base>
0

>  <vsa_don>
17.742489

>  <vsa_hyd>
54.133583

>  <vsa_other>
84.91169

>  <vsa_pol>
77.994736

>  <Weight>
267.245

>  <weinerPath>
657

>  <weinerPol>
32

>  <zagreb>
104

$$$$