O=C1NC(=O)CN(C1)C[C@H](N1CC(=O)NC(=O)C1)C
  MOE2013           2D

 19 20  0  0  1  0  0  0  0  0999 V2000
    0.0000    0.0000    0.0000 O   0  0  0  0  0  0  0  0  0  0  0  0
    0.7520    1.2980    0.0000 C   0  0  0  0  0  0  0  0  0  0  0  0
    0.0050    2.5980    0.0000 N   0  0  0  0  0  0  0  0  0  0  0  0
    0.7570    3.8960    0.0000 C   0  0  0  0  0  0  0  0  0  0  0  0
    0.0100    5.1960    0.0000 O   0  0  0  0  0  0  0  0  0  0  0  0
    2.2570    3.8930    0.0000 C   0  0  0  0  0  0  0  0  0  0  0  0
    3.0050    2.5920    0.0000 N   0  0  0  0  0  0  0  0  0  0  0  0
    2.2520    1.2950    0.0000 C   0  0  0  0  0  0  0  0  0  0  0  0
    4.5050    2.5900    0.0000 C   0  0  0  0  0  0  0  0  0  0  0  0
    5.2520    1.2890    0.0000 C   0  0  2  0  0  0  0  0  0  0  0  0
    6.7520    1.2860    0.0000 N   0  0  0  0  0  0  0  0  0  0  0  0
    7.5050    2.5840    0.0000 C   0  0  0  0  0  0  0  0  0  0  0  0
    9.0050    2.5810    0.0000 C   0  0  0  0  0  0  0  0  0  0  0  0
    9.7570    3.8790    0.0000 O   0  0  0  0  0  0  0  0  0  0  0  0
    9.7520    1.2810    0.0000 N   0  0  0  0  0  0  0  0  0  0  0  0
    9.0000   -0.0170    0.0000 C   0  0  0  0  0  0  0  0  0  0  0  0
    9.7480   -1.3170    0.0000 O   0  0  0  0  0  0  0  0  0  0  0  0
    7.5000   -0.0140    0.0000 C   0  0  0  0  0  0  0  0  0  0  0  0
    4.5000   -0.0080    0.0000 C   0  0  0  0  0  0  0  0  0  0  0  0
  1  2  2  0  0  0  0
  2  3  1  0  0  0  0
  2  8  1  0  0  0  0
  3  4  1  0  0  0  0
  4  5  2  0  0  0  0
  4  6  1  0  0  0  0
  6  7  1  0  0  0  0
  7  8  1  0  0  0  0
  7  9  1  0  0  0  0
  9 10  1  0  0  0  0
 10 11  1  0  0  0  0
 10 19  1  6  0  0  0
 11 12  1  0  0  0  0
 11 18  1  0  0  0  0
 12 13  1  0  0  0  0
 13 14  2  0  0  0  0
 13 15  1  0  0  0  0
 15 16  1  0  0  0  0
 16 17  2  0  0  0  0
 16 18  1  0  0  0  0
M  END
>  <Index>
305

>  <ID>
HT0626

>  <class>
0

>  <apol>
37.636688

>  <ast_fraglike>
0

>  <ast_fraglike_ext>
0

>  <ast_violation>
1

>  <ast_violation_ext>
2

>  <a_acc>
6

>  <a_acid>
0

>  <a_aro>
0

>  <a_base>
0

>  <a_count>
35

>  <a_don>
2

>  <a_donacc>
8

>  <a_heavy>
19

>  <a_hyd>
7

>  <a_IC>
61.471157

>  <a_ICM>
1.7563188

>  <a_nB>
0

>  <a_nBr>
0

>  <a_nC>
11

>  <a_nCl>
0

>  <a_nF>
0

>  <a_nH>
16

>  <a_nI>
0

>  <a_nN>
4

>  <a_nO>
4

>  <a_nP>
0

>  <a_nS>
0

>  <balabanJ>
1.8429521

>  <BCUT_PEOE_0>
-2.7259653

>  <BCUT_PEOE_1>
-0.48202726

>  <BCUT_PEOE_2>
0.38338059

>  <BCUT_PEOE_3>
2.6868045

>  <BCUT_SLOGP_0>
-2.9002211

>  <BCUT_SLOGP_1>
-0.47565418

>  <BCUT_SLOGP_2>
0.34275085

>  <BCUT_SLOGP_3>
2.5510175

>  <BCUT_SMR_0>
-2.4569643

>  <BCUT_SMR_1>
-0.27474248

>  <BCUT_SMR_2>
0.49477506

>  <BCUT_SMR_3>
2.9491522

>  <bpol>
26.603312

>  <b_1rotN>
3

>  <b_1rotR>
0.15000001

>  <b_ar>
0

>  <b_count>
36

>  <b_double>
4

>  <b_heavy>
20

>  <b_max1len>
4

>  <b_rotN>
3

>  <b_rotR>
0.15000001

>  <b_single>
32

>  <b_triple>
0

>  <chi0>
13.991199

>  <chi0v>
10.640305

>  <chi0v_C>
7.112884

>  <chi0_C>
7.4222851

>  <chi1>
8.9355612

>  <chi1v>
6.0556464

>  <chi1v_C>
2.3998122

>  <chi1_C>
2.6185918

>  <chiral>
1

>  <chiral_u>
0

>  <density>
0.81810457

>  <diameter>
9

>  <FCharge>
0

>  <GCUT_PEOE_0>
-0.83135957

>  <GCUT_PEOE_1>
-0.47849357

>  <GCUT_PEOE_2>
0.070066504

>  <GCUT_PEOE_3>
2.6362329

>  <GCUT_SLOGP_0>
-1.1719304

>  <GCUT_SLOGP_1>
-0.51831716

>  <GCUT_SLOGP_2>
-0.010606766

>  <GCUT_SLOGP_3>
2.5053287

>  <GCUT_SMR_0>
-0.52064067

>  <GCUT_SMR_1>
-0.22776084

>  <GCUT_SMR_2>
0.14015192

>  <GCUT_SMR_3>
2.8685691

>  <Kier1>
15.39

>  <Kier2>
6.6352043

>  <Kier3>
4.5

>  <KierA1>
11.826164

>  <KierA2>
5.018024

>  <KierA3>
3.3609841

>  <KierFlex>
3.1233673

>  <lip_acc>
8

>  <lip_don>
2

>  <lip_druglike>
1

>  <lip_violation>
0

>  <logP(o/w)>
-2.2420001

>  <logS>
-1.13097

>  <mr>
6.5215349

>  <mutagenic>
0

>  <nmol>
1

>  <opr_brigid>
12

>  <opr_leadlike>
1

>  <opr_nring>
2

>  <opr_nrot>
3

>  <opr_violation>
0

>  <PC+>
0

>  <PC->
0

>  <PEOE_PC+>
2.288635

>  <PEOE_PC->
-2.288635

>  <PEOE_RPC+>
0.1054731

>  <PEOE_RPC->
0.12886281

>  <PEOE_VSA+0>
41.930603

>  <PEOE_VSA+1>
86.892387

>  <PEOE_VSA+2>
0

>  <PEOE_VSA+3>
17.238026

>  <PEOE_VSA+4>
51.798122

>  <PEOE_VSA+5>
0

>  <PEOE_VSA+6>
0

>  <PEOE_VSA-0>
18.747677

>  <PEOE_VSA-1>
0

>  <PEOE_VSA-2>
0

>  <PEOE_VSA-3>
0

>  <PEOE_VSA-4>
0

>  <PEOE_VSA-5>
54.541466

>  <PEOE_VSA-6>
0

>  <PEOE_VSA_FHYD>
0.60781759

>  <PEOE_VSA_FNEG>
0.27029175

>  <PEOE_VSA_FPNEG>
0.20114996

>  <PEOE_VSA_FPOL>
0.39218241

>  <PEOE_VSA_FPOS>
0.72970825

>  <PEOE_VSA_FPPOS>
0.19103247

>  <PEOE_VSA_HYD>
164.80869

>  <PEOE_VSA_NEG>
73.289146

>  <PEOE_VSA_PNEG>
54.541466

>  <PEOE_VSA_POL>
106.33959

>  <PEOE_VSA_POS>
197.85915

>  <PEOE_VSA_PPOS>
51.798122

>  <petitjean>
0.44444445

>  <petitjeanSC>
0.80000001

>  <Q_PC+>
0

>  <Q_PC->
0

>  <Q_RPC+>
0

>  <Q_RPC->
0

>  <Q_VSA_FHYD>
1

>  <Q_VSA_FNEG>
0

>  <Q_VSA_FPNEG>
0

>  <Q_VSA_FPOL>
0

>  <Q_VSA_FPOS>
1

>  <Q_VSA_FPPOS>
0

>  <Q_VSA_HYD>
271.14828

>  <Q_VSA_NEG>
0

>  <Q_VSA_PNEG>
0

>  <Q_VSA_POL>
0

>  <Q_VSA_POS>
271.14828

>  <Q_VSA_PPOS>
0

>  <radius>
5

>  <reactive>
0

>  <rings>
2

>  <RPC+>
0

>  <RPC->
0

>  <rsynth>
1

>  <SlogP>
-2.7083001

>  <SlogP_VSA0>
36.0215

>  <SlogP_VSA1>
27.283762

>  <SlogP_VSA2>
99.430832

>  <SlogP_VSA3>
92.197891

>  <SlogP_VSA4>
0

>  <SlogP_VSA5>
0

>  <SlogP_VSA6>
0

>  <SlogP_VSA7>
0

>  <SlogP_VSA8>
0

>  <SlogP_VSA9>
33.326015

>  <SMR>
6.37744

>  <SMR_VSA0>
95.448868

>  <SMR_VSA1>
6.2486277

>  <SMR_VSA2>
36.0215

>  <SMR_VSA3>
3.9819686

>  <SMR_VSA4>
0

>  <SMR_VSA5>
0

>  <SMR_VSA6>
113.23302

>  <SMR_VSA7>
33.326015

>  <TPSA>
98.82

>  <VAdjEq>
0.5023343

>  <VAdjMa>
5.321928

>  <VDistEq>
3.095973

>  <VDistMa>
8.1933117

>  <vdw_area>
271.14828

>  <vdw_vol>
327.9202

>  <vsa_acc>
54.267685

>  <vsa_acid>
0

>  <vsa_base>
0

>  <vsa_don>
11.365152

>  <vsa_hyd>
137.60553

>  <vsa_other>
51.798122

>  <vsa_pol>
65.632835

>  <Weight>
268.27298

>  <weinerPath>
736

>  <weinerPol>
26

>  <zagreb>
96

$$$$