OC(=O)CN(CCN(CC(O)=O)CC(O)=O)CC(O)=O
  MOE2013           2D

 20 19  0  0  0  0  0  0  0  0999 V2000
    0.0000    0.0000    0.0000 O   0  0  0  0  0  0  0  0  0  0  0  0
    1.2970   -0.7540    0.0000 C   0  0  0  0  0  0  0  0  0  0  0  0
    2.5980   -0.0080    0.0000 O   0  0  0  0  0  0  0  0  0  0  0  0
    1.2920   -2.2540    0.0000 C   0  0  0  0  0  0  0  0  0  0  0  0
   -0.0090   -3.0000    0.0000 N   0  0  0  0  0  0  0  0  0  0  0  0
   -1.3060   -2.2460    0.0000 C   0  0  0  0  0  0  0  0  0  0  0  0
   -2.6070   -2.9920    0.0000 C   0  0  0  0  0  0  0  0  0  0  0  0
   -3.9040   -2.2390    0.0000 N   0  0  0  0  0  0  0  0  0  0  0  0
   -5.2050   -2.9850    0.0000 C   0  0  0  0  0  0  0  0  0  0  0  0
   -5.2090   -4.4850    0.0000 C   0  0  0  0  0  0  0  0  0  0  0  0
   -6.5110   -5.2310    0.0000 O   0  0  0  0  0  0  0  0  0  0  0  0
   -3.9120   -5.2390    0.0000 O   0  0  0  0  0  0  0  0  0  0  0  0
   -3.8990   -0.7390    0.0000 C   0  0  0  0  0  0  0  0  0  0  0  0
   -5.1960    0.0150    0.0000 C   0  0  0  0  0  0  0  0  0  0  0  0
   -5.1920    1.5150    0.0000 O   0  0  0  0  0  0  0  0  0  0  0  0
   -6.4970   -0.7310    0.0000 O   0  0  0  0  0  0  0  0  0  0  0  0
   -0.0130   -4.5000    0.0000 C   0  0  0  0  0  0  0  0  0  0  0  0
    1.2840   -5.2540    0.0000 C   0  0  0  0  0  0  0  0  0  0  0  0
    2.5850   -4.5080    0.0000 O   0  0  0  0  0  0  0  0  0  0  0  0
    1.2790   -6.7540    0.0000 O   0  0  0  0  0  0  0  0  0  0  0  0
  1  2  1  0  0  0  0
  2  3  2  0  0  0  0
  2  4  1  0  0  0  0
  4  5  1  0  0  0  0
  5  6  1  0  0  0  0
  5 17  1  0  0  0  0
  6  7  1  0  0  0  0
  7  8  1  0  0  0  0
  8  9  1  0  0  0  0
  8 13  1  0  0  0  0
  9 10  1  0  0  0  0
 10 11  1  0  0  0  0
 10 12  2  0  0  0  0
 13 14  1  0  0  0  0
 14 15  1  0  0  0  0
 14 16  2  0  0  0  0
 17 18  1  0  0  0  0
 18 19  1  0  0  0  0
 18 20  2  0  0  0  0
M  END
>  <Index>
364

>  <ID>
HT0743

>  <class>
0

>  <apol>
36.884689

>  <ast_fraglike>
0

>  <ast_fraglike_ext>
0

>  <ast_violation>
2

>  <ast_violation_ext>
4

>  <a_acc>
10

>  <a_acid>
0

>  <a_aro>
0

>  <a_base>
0

>  <a_count>
36

>  <a_don>
8

>  <a_donacc>
18

>  <a_heavy>
20

>  <a_hyd>
6

>  <a_IC>
62.898018

>  <a_ICM>
1.7471672

>  <a_nB>
0

>  <a_nBr>
0

>  <a_nC>
10

>  <a_nCl>
0

>  <a_nF>
0

>  <a_nH>
16

>  <a_nI>
0

>  <a_nN>
2

>  <a_nO>
8

>  <a_nP>
0

>  <a_nS>
0

>  <balabanJ>
4.357224

>  <BCUT_PEOE_0>
-2.6543374

>  <BCUT_PEOE_1>
-0.52069771

>  <BCUT_PEOE_2>
0.46269488

>  <BCUT_PEOE_3>
2.6155806

>  <BCUT_SLOGP_0>
-2.8158579

>  <BCUT_SLOGP_1>
-0.49673444

>  <BCUT_SLOGP_2>
0.39513916

>  <BCUT_SLOGP_3>
2.4518209

>  <BCUT_SMR_0>
-2.3905411

>  <BCUT_SMR_1>
-0.3086628

>  <BCUT_SMR_2>
0.59324431

>  <BCUT_SMR_3>
2.8675613

>  <bpol>
25.283312

>  <b_1rotN>
11

>  <b_1rotR>
0.57894737

>  <b_ar>
0

>  <b_count>
35

>  <b_double>
4

>  <b_heavy>
19

>  <b_max1len>
7

>  <b_rotN>
11

>  <b_rotR>
0.57894737

>  <b_single>
31

>  <b_triple>
0

>  <chi0>
15.706742

>  <chi0v>
10.558915

>  <chi0v_C>
6.2426405

>  <chi0_C>
6.5520415

>  <chi1>
9.2012854

>  <chi1v>
5.5225039

>  <chi1v_C>
1.9142135

>  <chi1_C>
2.1329932

>  <chiral>
0

>  <chiral_u>
0

>  <density>
0.87814283

>  <diameter>
9

>  <FCharge>
0

>  <GCUT_PEOE_0>
-0.82642806

>  <GCUT_PEOE_1>
-0.48130116

>  <GCUT_PEOE_2>
0.10565758

>  <GCUT_PEOE_3>
2.5052478

>  <GCUT_SLOGP_0>
-0.97372842

>  <GCUT_SLOGP_1>
-0.48069409

>  <GCUT_SLOGP_2>
0.036989246

>  <GCUT_SLOGP_3>
2.3699734

>  <GCUT_SMR_0>
-0.51511657

>  <GCUT_SMR_1>
-0.24192245

>  <GCUT_SMR_2>
0.21444991

>  <GCUT_SMR_3>
2.725064

>  <Kier1>
20

>  <Kier2>
10.6875

>  <Kier3>
12.489796

>  <KierA1>
16.500256

>  <KierA2>
8.7220001

>  <KierA3>
10.112

>  <KierFlex>
7.1957612

>  <lip_acc>
10

>  <lip_don>
4

>  <lip_druglike>
1

>  <lip_violation>
0

>  <logP(o/w)>
-1.936

>  <logS>
0.63032001

>  <mr>
6.4181767

>  <mutagenic>
0

>  <nmol>
1

>  <opr_brigid>
0

>  <opr_leadlike>
0

>  <opr_nring>
0

>  <opr_nrot>
11

>  <opr_violation>
2

>  <PC+>
0

>  <PC->
0

>  <PEOE_PC+>
2.9423187

>  <PEOE_PC->
-2.9423187

>  <PEOE_RPC+>
0.093052141

>  <PEOE_RPC->
0.11225918

>  <PEOE_VSA+0>
43.446194

>  <PEOE_VSA+1>
86.892387

>  <PEOE_VSA+2>
0

>  <PEOE_VSA+3>
0

>  <PEOE_VSA+4>
41.296692

>  <PEOE_VSA+5>
58.833996

>  <PEOE_VSA+6>
0

>  <PEOE_VSA-0>
0

>  <PEOE_VSA-1>
0

>  <PEOE_VSA-2>
0

>  <PEOE_VSA-3>
0

>  <PEOE_VSA-4>
0

>  <PEOE_VSA-5>
54.267685

>  <PEOE_VSA-6>
31.070162

>  <PEOE_VSA_FHYD>
0.41271579

>  <PEOE_VSA_FNEG>
0.27022141

>  <PEOE_VSA_FPNEG>
0.27022141

>  <PEOE_VSA_FPOL>
0.58728421

>  <PEOE_VSA_FPOS>
0.72977859

>  <PEOE_VSA_FPPOS>
0.3170628

>  <PEOE_VSA_HYD>
130.33858

>  <PEOE_VSA_NEG>
85.337845

>  <PEOE_VSA_PNEG>
85.337845

>  <PEOE_VSA_POL>
185.46854

>  <PEOE_VSA_POS>
230.46927

>  <PEOE_VSA_PPOS>
100.13068

>  <petitjean>
0.44444445

>  <petitjeanSC>
0.80000001

>  <Q_PC+>
0

>  <Q_PC->
0

>  <Q_RPC+>
0

>  <Q_RPC->
0

>  <Q_VSA_FHYD>
1

>  <Q_VSA_FNEG>
0

>  <Q_VSA_FPNEG>
0

>  <Q_VSA_FPOL>
0

>  <Q_VSA_FPOS>
1

>  <Q_VSA_FPPOS>
0

>  <Q_VSA_HYD>
315.8071

>  <Q_VSA_NEG>
0

>  <Q_VSA_PNEG>
0

>  <Q_VSA_POL>
0

>  <Q_VSA_POS>
315.8071

>  <Q_VSA_PPOS>
0

>  <radius>
5

>  <reactive>
0

>  <rings>
0

>  <RPC+>
0

>  <RPC->
0

>  <rsynth>
1

>  <SlogP>
-2.0711999

>  <SlogP_VSA0>
0

>  <SlogP_VSA1>
37.230484

>  <SlogP_VSA2>
95.448868

>  <SlogP_VSA3>
212.17838

>  <SlogP_VSA4>
0

>  <SlogP_VSA5>
0

>  <SlogP_VSA6>
0

>  <SlogP_VSA7>
0

>  <SlogP_VSA8>
0

>  <SlogP_VSA9>
0

>  <SMR>
6.34232

>  <SMR_VSA0>
95.448868

>  <SMR_VSA1>
6.2486277

>  <SMR_VSA2>
101.54091

>  <SMR_VSA3>
0

>  <SMR_VSA4>
0

>  <SMR_VSA5>
0

>  <SMR_VSA6>
141.61932

>  <SMR_VSA7>
0

>  <TPSA>
155.67999

>  <VAdjEq>
0.45294255

>  <VAdjMa>
5.2479277

>  <VDistEq>
3.1502945

>  <VDistMa>
8.3679457

>  <vdw_area>
315.8071

>  <vdw_vol>
332.79779

>  <vsa_acc>
0

>  <vsa_acid>
0

>  <vsa_base>
0

>  <vsa_don>
0

>  <vsa_hyd>
121.79704

>  <vsa_other>
58.833996

>  <vsa_pol>
108.53537

>  <Weight>
292.24399

>  <weinerPath>
910

>  <weinerPol>
21

>  <zagreb>
86

$$$$