O([N+](=O)[O-])C(C(O[N+](=O)[O-])CO[N+](=O)[O-])CO[N+](=O)[O-]
  MOE2013           2D

 20 19  0  0  1  0  0  0  0  0999 V2000
    0.0000    0.0000    0.0000 O   0  0  0  0  0  0  0  0  0  0  0  0
   -0.0050   -1.5000    0.0000 N   0  3  0  0  0  0  0  0  0  0  0  0
    1.2920   -2.2540    0.0000 O   0  0  0  0  0  0  0  0  0  0  0  0
   -1.3060   -2.2460    0.0000 O   0  5  0  0  0  0  0  0  0  0  0  0
   -1.2970    0.7540    0.0000 C   0  0  3  0  0  0  0  0  0  0  0  0
   -1.2920    2.2540    0.0000 C   0  0  3  0  0  0  0  0  0  0  0  0
   -2.5890    3.0080    0.0000 O   0  0  0  0  0  0  0  0  0  0  0  0
   -2.5840    4.5080    0.0000 N   0  3  0  0  0  0  0  0  0  0  0  0
   -3.8810    5.2620    0.0000 O   0  0  0  0  0  0  0  0  0  0  0  0
   -1.2830    5.2540    0.0000 O   0  5  0  0  0  0  0  0  0  0  0  0
    0.0090    3.0000    0.0000 C   0  0  0  0  0  0  0  0  0  0  0  0
    1.3060    2.2460    0.0000 O   0  0  0  0  0  0  0  0  0  0  0  0
    2.6070    2.9920    0.0000 N   0  3  0  0  0  0  0  0  0  0  0  0
    3.9040    2.2380    0.0000 O   0  0  0  0  0  0  0  0  0  0  0  0
    2.6120    4.4920    0.0000 O   0  5  0  0  0  0  0  0  0  0  0  0
   -2.5980    0.0080    0.0000 C   0  0  0  0  0  0  0  0  0  0  0  0
   -3.8950    0.7620    0.0000 O   0  0  0  0  0  0  0  0  0  0  0  0
   -5.1960    0.0160    0.0000 N   0  3  0  0  0  0  0  0  0  0  0  0
   -6.4930    0.7700    0.0000 O   0  0  0  0  0  0  0  0  0  0  0  0
   -5.2010   -1.4840    0.0000 O   0  5  0  0  0  0  0  0  0  0  0  0
  1  2  1  0  0  0  0
  1  5  1  0  0  0  0
  2  3  2  0  0  0  0
  2  4  1  0  0  0  0
  5  6  1  0  0  0  0
  5 16  1  0  0  0  0
  6  7  1  0  0  0  0
  6 11  1  0  0  0  0
  7  8  1  0  0  0  0
  8  9  2  0  0  0  0
  8 10  1  0  0  0  0
 11 12  1  0  0  0  0
 12 13  1  0  0  0  0
 13 14  2  0  0  0  0
 13 15  1  0  0  0  0
 16 17  1  0  0  0  0
 17 18  1  0  0  0  0
 18 19  2  0  0  0  0
 18 20  1  0  0  0  0
M  CHG  1   2   1
M  CHG  1   4  -1
M  CHG  1   8   1
M  CHG  1  10  -1
M  CHG  1  13   1
M  CHG  1  15  -1
M  CHG  1  18   1
M  CHG  1  20  -1
M  END
>  <Index>
388

>  <ID>
HT0783

>  <class>
0

>  <apol>
25.064758

>  <ast_fraglike>
0

>  <ast_fraglike_ext>
0

>  <ast_violation>
1

>  <ast_violation_ext>
2

>  <a_acc>
0

>  <a_acid>
0

>  <a_aro>
0

>  <a_base>
0

>  <a_count>
26

>  <a_don>
0

>  <a_donacc>
0

>  <a_heavy>
20

>  <a_hyd>
8

>  <a_IC>
47.682106

>  <a_ICM>
1.8339273

>  <a_nB>
0

>  <a_nBr>
0

>  <a_nC>
4

>  <a_nCl>
0

>  <a_nF>
0

>  <a_nH>
6

>  <a_nI>
0

>  <a_nN>
4

>  <a_nO>
12

>  <a_nP>
0

>  <a_nS>
0

>  <balabanJ>
4.6713185

>  <BCUT_PEOE_0>
-2.5506735

>  <BCUT_PEOE_1>
-0.11930875

>  <BCUT_PEOE_2>
0.04392935

>  <BCUT_PEOE_3>
2.6522729

>  <BCUT_SLOGP_0>
-2.7459748

>  <BCUT_SLOGP_1>
0.0065640924

>  <BCUT_SLOGP_2>
0.123

>  <BCUT_SLOGP_3>
2.4603448

>  <BCUT_SMR_0>
-2.384021

>  <BCUT_SMR_1>
0.1057

>  <BCUT_SMR_2>
0.33669999

>  <BCUT_SMR_3>
2.8190644

>  <bpol>
13.967242

>  <b_1rotN>
11

>  <b_1rotR>
0.57894737

>  <b_ar>
0

>  <b_count>
25

>  <b_double>
4

>  <b_heavy>
19

>  <b_max1len>
5

>  <b_rotN>
11

>  <b_rotR>
0.57894737

>  <b_single>
21

>  <b_triple>
0

>  <chi0>
15.706742

>  <chi0v>
9.2567482

>  <chi0v_C>
2.5689142

>  <chi0_C>
2.5689142

>  <chi1>
9.2181215

>  <chi1v>
4.3894749

>  <chi1v_C>
1.1498299

>  <chi1_C>
1.1498299

>  <chiral>
2

>  <chiral_u>
2

>  <density>
1.2313545

>  <diameter>
9

>  <FCharge>
0

>  <GCUT_PEOE_0>
-0.70454019

>  <GCUT_PEOE_1>
-0.31184334

>  <GCUT_PEOE_2>
-0.11607065

>  <GCUT_PEOE_3>
2.3163183

>  <GCUT_SLOGP_0>
-0.92789507

>  <GCUT_SLOGP_1>
-0.22319621

>  <GCUT_SLOGP_2>
-0.037

>  <GCUT_SLOGP_3>
2.1773531

>  <GCUT_SMR_0>
-0.55121237

>  <GCUT_SMR_1>
-0.054299999

>  <GCUT_SMR_2>
0.1767

>  <GCUT_SMR_3>
2.470916

>  <Kier1>
20

>  <Kier2>
10.6875

>  <Kier3>
11.380165

>  <KierA1>
16.067039

>  <KierA2>
8.479744

>  <KierA3>
8.9474239

>  <KierFlex>
6.8122191

>  <lip_acc>
16

>  <lip_don>
0

>  <lip_druglike>
1

>  <lip_violation>
1

>  <logP(o/w)>
-0.056779999

>  <logS>
-3.1645

>  <mr>
4.6055508

>  <mutagenic>
0

>  <nmol>
1

>  <opr_brigid>
0

>  <opr_leadlike>
0

>  <opr_nring>
0

>  <opr_nrot>
11

>  <opr_violation>
2

>  <PC+>
0

>  <PC->
0

>  <PEOE_PC+>
1.5974936

>  <PEOE_PC->
-1.5974936

>  <PEOE_RPC+>
0.15272056

>  <PEOE_RPC->
0.10196349

>  <PEOE_VSA+0>
25.592316

>  <PEOE_VSA+1>
39.712444

>  <PEOE_VSA+2>
0

>  <PEOE_VSA+3>
0

>  <PEOE_VSA+4>
36.922878

>  <PEOE_VSA+5>
0

>  <PEOE_VSA+6>
0

>  <PEOE_VSA-0>
0

>  <PEOE_VSA-1>
0

>  <PEOE_VSA-2>
135.7242

>  <PEOE_VSA-3>
23.609438

>  <PEOE_VSA-4>
0

>  <PEOE_VSA-5>
0

>  <PEOE_VSA-6>
0

>  <PEOE_VSA_FHYD>
0.85883659

>  <PEOE_VSA_FNEG>
0.6091637

>  <PEOE_VSA_FPNEG>
0

>  <PEOE_VSA_FPOL>
0.14116341

>  <PEOE_VSA_FPOS>
0.3908363

>  <PEOE_VSA_FPPOS>
0.14116341

>  <PEOE_VSA_HYD>
224.6384

>  <PEOE_VSA_NEG>
159.33363

>  <PEOE_VSA_PNEG>
0

>  <PEOE_VSA_POL>
36.922878

>  <PEOE_VSA_POS>
102.22764

>  <PEOE_VSA_PPOS>
36.922878

>  <petitjean>
0.44444445

>  <petitjeanSC>
0.80000001

>  <Q_PC+>
0

>  <Q_PC->
0

>  <Q_RPC+>
0

>  <Q_RPC->
0

>  <Q_VSA_FHYD>
1

>  <Q_VSA_FNEG>
0

>  <Q_VSA_FPNEG>
0

>  <Q_VSA_FPOL>
0

>  <Q_VSA_FPOS>
1

>  <Q_VSA_FPPOS>
0

>  <Q_VSA_HYD>
261.56128

>  <Q_VSA_NEG>
0

>  <Q_VSA_PNEG>
0

>  <Q_VSA_POL>
0

>  <Q_VSA_POS>
261.56128

>  <Q_VSA_PPOS>
0

>  <radius>
5

>  <reactive>
1

>  <rings>
0

>  <RPC+>
0

>  <RPC->
0

>  <rsynth>
1

>  <SlogP>
-1.4432

>  <SlogP_VSA0>
0

>  <SlogP_VSA1>
38.799793

>  <SlogP_VSA2>
57.812355

>  <SlogP_VSA3>
245.59254

>  <SlogP_VSA4>
0

>  <SlogP_VSA5>
0

>  <SlogP_VSA6>
0

>  <SlogP_VSA7>
0

>  <SlogP_VSA8>
0

>  <SlogP_VSA9>
0

>  <SMR>
4.96276

>  <SMR_VSA0>
83.67485

>  <SMR_VSA1>
0

>  <SMR_VSA2>
203.74004

>  <SMR_VSA3>
12.937299

>  <SMR_VSA4>
0

>  <SMR_VSA5>
0

>  <SMR_VSA6>
41.852516

>  <SMR_VSA7>
0

>  <TPSA>
220.2

>  <VAdjEq>
0.45294255

>  <VAdjMa>
5.2479277

>  <VDistEq>
3.0435543

>  <VDistMa>
8.3889284

>  <vdw_area>
261.56128

>  <vdw_vol>
245.34607

>  <vsa_acc>
0

>  <vsa_acid>
0

>  <vsa_base>
0

>  <vsa_don>
0

>  <vsa_hyd>
97.956863

>  <vsa_other>
159.33363

>  <vsa_pol>
0

>  <Weight>
302.108

>  <weinerPath>
862

>  <weinerPol>
22

>  <zagreb>
86

$$$$