ClC(Cl)C(O)=O
  MOE2013           2D

  6  5  0  0  0  0  0  0  0  0999 V2000
    0.0000    0.0000    0.0000 Cl  0  0  0  0  0  0  0  0  0  0  0  0
   -0.7500   -1.2990    0.0000 C   0  0  0  0  0  0  0  0  0  0  0  0
    0.0000   -2.5980    0.0000 Cl  0  0  0  0  0  0  0  0  0  0  0  0
   -2.2500   -1.2990    0.0000 C   0  0  0  0  0  0  0  0  0  0  0  0
   -3.0000    0.0000    0.0000 O   0  0  0  0  0  0  0  0  0  0  0  0
   -3.0000   -2.5980    0.0000 O   0  0  0  0  0  0  0  0  0  0  0  0
  1  2  1  0  0  0  0
  2  3  1  0  0  0  0
  2  4  1  0  0  0  0
  4  5  1  0  0  0  0
  4  6  2  0  0  0  0
M  END
>  <Index>
310

>  <ID>
HT0641

>  <class>
0

>  <apol>
10.817586

>  <ast_fraglike>
1

>  <ast_fraglike_ext>
1

>  <ast_violation>
0

>  <ast_violation_ext>
0

>  <a_acc>
2

>  <a_acid>
0

>  <a_aro>
0

>  <a_base>
0

>  <a_count>
8

>  <a_don>
2

>  <a_donacc>
4

>  <a_heavy>
6

>  <a_hyd>
2

>  <a_IC>
16

>  <a_ICM>
2

>  <a_nB>
0

>  <a_nBr>
0

>  <a_nC>
2

>  <a_nCl>
2

>  <a_nF>
0

>  <a_nH>
2

>  <a_nI>
0

>  <a_nN>
0

>  <a_nO>
2

>  <a_nP>
0

>  <a_nS>
0

>  <balabanJ>
3.077395

>  <BCUT_PEOE_0>
-2.060962

>  <BCUT_PEOE_1>
-0.38328117

>  <BCUT_PEOE_2>
0.32266665

>  <BCUT_PEOE_3>
2.2653005

>  <BCUT_SLOGP_0>
-2.2389629

>  <BCUT_SLOGP_1>
-0.23686688

>  <BCUT_SLOGP_2>
0.61645854

>  <BCUT_SLOGP_3>
2.188287

>  <BCUT_SMR_0>
-1.82302

>  <BCUT_SMR_1>
-0.11675362

>  <BCUT_SMR_2>
0.62147743

>  <BCUT_SMR_3>
2.5027471

>  <bpol>
3.9844141

>  <b_1rotN>
1

>  <b_1rotR>
0.2

>  <b_ar>
0

>  <b_count>
7

>  <b_double>
1

>  <b_heavy>
5

>  <b_max1len>
2

>  <b_rotN>
1

>  <b_rotR>
0.2

>  <b_single>
6

>  <b_triple>
0

>  <chi0>
5.1547008

>  <chi0v>
4.2005992

>  <chi0v_C>
1.0773503

>  <chi0_C>
1.1547005

>  <chi1>
2.6427345

>  <chi1v>
2.0257134

>  <chi1v_C>
0.28867513

>  <chi1_C>
0.33333334

>  <chiral>
0

>  <chiral_u>
0

>  <density>
1.2354631

>  <diameter>
3

>  <FCharge>
0

>  <GCUT_PEOE_0>
-0.69521958

>  <GCUT_PEOE_1>
-0.40685105

>  <GCUT_PEOE_2>
0.033438794

>  <GCUT_PEOE_3>
1.5314921

>  <GCUT_SLOGP_0>
-0.90952766

>  <GCUT_SLOGP_1>
-0.30803382

>  <GCUT_SLOGP_2>
0.4126676

>  <GCUT_SLOGP_3>
1.5637285

>  <GCUT_SMR_0>
-0.41341102

>  <GCUT_SMR_1>
-0.12792113

>  <GCUT_SMR_2>
0.3714954

>  <GCUT_SMR_3>
1.7976569

>  <Kier1>
6

>  <Kier2>
2.2222223

>  <Kier3>
3

>  <KierA1>
8.3286819

>  <KierA2>
3.3153641

>  <KierA3>
4.8010225

>  <KierFlex>
4.6021023

>  <lip_acc>
2

>  <lip_don>
1

>  <lip_druglike>
1

>  <lip_violation>
0

>  <logP(o/w)>
0.89736003

>  <logS>
-0.99766999

>  <mr>
2.3047304

>  <mutagenic>
1

>  <nmol>
1

>  <opr_brigid>
0

>  <opr_leadlike>
1

>  <opr_nring>
0

>  <opr_nrot>
1

>  <opr_violation>
0

>  <PC+>
0

>  <PC->
0

>  <PEOE_PC+>
0.77871543

>  <PEOE_PC->
-0.77871543

>  <PEOE_RPC+>
0.37571055

>  <PEOE_RPC->
0.42281204

>  <PEOE_VSA+0>
0

>  <PEOE_VSA+1>
4.2653861

>  <PEOE_VSA+2>
0

>  <PEOE_VSA+3>
3.2773626

>  <PEOE_VSA+4>
10.324173

>  <PEOE_VSA+5>
14.708499

>  <PEOE_VSA+6>
0

>  <PEOE_VSA-0>
0

>  <PEOE_VSA-1>
59.163895

>  <PEOE_VSA-2>
0

>  <PEOE_VSA-3>
0

>  <PEOE_VSA-4>
0

>  <PEOE_VSA-5>
13.566921

>  <PEOE_VSA-6>
7.7675405

>  <PEOE_VSA_FHYD>
0.58993912

>  <PEOE_VSA_FNEG>
0.71191001

>  <PEOE_VSA_FPNEG>
0.18867736

>  <PEOE_VSA_FPOL>
0.41006088

>  <PEOE_VSA_FPOS>
0.28808996

>  <PEOE_VSA_FPPOS>
0.22138353

>  <PEOE_VSA_HYD>
66.706642

>  <PEOE_VSA_NEG>
80.498352

>  <PEOE_VSA_PNEG>
21.334461

>  <PEOE_VSA_POL>
46.367134

>  <PEOE_VSA_POS>
32.57542

>  <PEOE_VSA_PPOS>
25.032671

>  <petitjean>
0.33333334

>  <petitjeanSC>
0.5

>  <Q_PC+>
0

>  <Q_PC->
0

>  <Q_RPC+>
0

>  <Q_RPC->
0

>  <Q_VSA_FHYD>
1

>  <Q_VSA_FNEG>
0

>  <Q_VSA_FPNEG>
0

>  <Q_VSA_FPOL>
0

>  <Q_VSA_FPOS>
1

>  <Q_VSA_FPPOS>
0

>  <Q_VSA_HYD>
113.07378

>  <Q_VSA_NEG>
0

>  <Q_VSA_PNEG>
0

>  <Q_VSA_POL>
0

>  <Q_VSA_POS>
113.07378

>  <Q_VSA_PPOS>
0

>  <radius>
2

>  <reactive>
1

>  <rings>
0

>  <RPC+>
0

>  <RPC->
0

>  <rsynth>
1

>  <SlogP>
0.87470001

>  <SlogP_VSA0>
0

>  <SlogP_VSA1>
7.7454643

>  <SlogP_VSA2>
28.903076

>  <SlogP_VSA3>
25.385227

>  <SlogP_VSA4>
0

>  <SlogP_VSA5>
0

>  <SlogP_VSA6>
0

>  <SlogP_VSA7>
0

>  <SlogP_VSA8>
0

>  <SlogP_VSA9>
78.297287

>  <SMR>
2.3129799

>  <SMR_VSA0>
23.862217

>  <SMR_VSA1>
0

>  <SMR_VSA2>
25.385227

>  <SMR_VSA3>
5.0408592

>  <SMR_VSA4>
0

>  <SMR_VSA5>
0

>  <SMR_VSA6>
7.7454643

>  <SMR_VSA7>
78.297287

>  <TPSA>
37.299999

>  <VAdjEq>
0.85240519

>  <VAdjMa>
3.321928

>  <VDistEq>
1.5655962

>  <VDistMa>
4.7883415

>  <vdw_area>
113.07378

>  <vdw_vol>
104.36734

>  <vsa_acc>
0

>  <vsa_acid>
0

>  <vsa_base>
0

>  <vsa_don>
0

>  <vsa_hyd>
59.163895

>  <vsa_other>
21.539452

>  <vsa_pol>
27.133842

>  <Weight>
128.942

>  <weinerPath>
29

>  <weinerPol>
4

>  <zagreb>
22

$$$$