OC(=O)C(CCC)CCC
  MOE2013           2D

 10  9  0  0  0  0  0  0  0  0999 V2000
    0.0000    0.0000    0.0000 O   0  0  0  0  0  0  0  0  0  0  0  0
    1.2960   -0.7550    0.0000 C   0  0  0  0  0  0  0  0  0  0  0  0
    1.2910   -2.2550    0.0000 O   0  0  0  0  0  0  0  0  0  0  0  0
    2.5980   -0.0100    0.0000 C   0  0  0  0  0  0  0  0  0  0  0  0
    2.6040    1.4900    0.0000 C   0  0  0  0  0  0  0  0  0  0  0  0
    1.3070    2.2450    0.0000 C   0  0  0  0  0  0  0  0  0  0  0  0
    1.3130    3.7450    0.0000 C   0  0  0  0  0  0  0  0  0  0  0  0
    3.8940   -0.7640    0.0000 C   0  0  0  0  0  0  0  0  0  0  0  0
    5.1960   -0.0190    0.0000 C   0  0  0  0  0  0  0  0  0  0  0  0
    6.4920   -0.7740    0.0000 C   0  0  0  0  0  0  0  0  0  0  0  0
  1  2  1  0  0  0  0
  2  3  2  0  0  0  0
  2  4  1  0  0  0  0
  4  5  1  0  0  0  0
  4  8  1  0  0  0  0
  5  6  1  0  0  0  0
  6  7  1  0  0  0  0
  8  9  1  0  0  0  0
  9 10  1  0  0  0  0
M  END
>  <Index>
337

>  <ID>
HT0699

>  <class>
0

>  <apol>
26.352688

>  <ast_fraglike>
1

>  <ast_fraglike_ext>
0

>  <ast_violation>
0

>  <ast_violation_ext>
1

>  <a_acc>
2

>  <a_acid>
0

>  <a_aro>
0

>  <a_base>
0

>  <a_count>
26

>  <a_don>
2

>  <a_donacc>
4

>  <a_heavy>
10

>  <a_hyd>
7

>  <a_IC>
32.211433

>  <a_ICM>
1.2389013

>  <a_nB>
0

>  <a_nBr>
0

>  <a_nC>
8

>  <a_nCl>
0

>  <a_nF>
0

>  <a_nH>
16

>  <a_nI>
0

>  <a_nN>
0

>  <a_nO>
2

>  <a_nP>
0

>  <a_nS>
0

>  <balabanJ>
3.5176966

>  <BCUT_PEOE_0>
-2.6699152

>  <BCUT_PEOE_1>
-0.29877418

>  <BCUT_PEOE_2>
0.26536578

>  <BCUT_PEOE_3>
2.6587908

>  <BCUT_SLOGP_0>
-2.5845566

>  <BCUT_SLOGP_1>
-0.2239092

>  <BCUT_SLOGP_2>
0.28048098

>  <BCUT_SLOGP_3>
2.7599857

>  <BCUT_SMR_0>
-2.4344256

>  <BCUT_SMR_1>
-0.1427827

>  <BCUT_SMR_2>
0.37699866

>  <BCUT_SMR_3>
2.8937316

>  <bpol>
18.449312

>  <b_1rotN>
5

>  <b_1rotR>
0.55555558

>  <b_ar>
0

>  <b_count>
25

>  <b_double>
1

>  <b_heavy>
9

>  <b_max1len>
8

>  <b_rotN>
5

>  <b_rotR>
0.55555558

>  <b_single>
24

>  <b_triple>
0

>  <chi0>
7.9831276

>  <chi0v>
6.7612391

>  <chi0v_C>
5.9057775

>  <chi0_C>
5.9831276

>  <chi1>
4.7187438

>  <chi1v>
3.9471161

>  <chi1v_C>
3.5193853

>  <chi1_C>
3.5640435

>  <chiral>
0

>  <chiral_u>
0

>  <density>
0.65841961

>  <diameter>
6

>  <FCharge>
0

>  <GCUT_PEOE_0>
-0.78930658

>  <GCUT_PEOE_1>
-0.29541945

>  <GCUT_PEOE_2>
-0.026490383

>  <GCUT_PEOE_3>
2.3851759

>  <GCUT_SLOGP_0>
-0.883573

>  <GCUT_SLOGP_1>
-0.20061734

>  <GCUT_SLOGP_2>
0.0041088089

>  <GCUT_SLOGP_3>
2.4731865

>  <GCUT_SMR_0>
-0.52870208

>  <GCUT_SMR_1>
-0.15833962

>  <GCUT_SMR_2>
0.070194982

>  <GCUT_SMR_3>
2.5936394

>  <Kier1>
10

>  <Kier2>
5.7600002

>  <Kier3>
4.48

>  <KierA1>
9.0641108

>  <KierA2>
5.1582298

>  <KierA3>
3.97243

>  <KierFlex>
4.675477

>  <lip_acc>
2

>  <lip_don>
1

>  <lip_druglike>
1

>  <lip_violation>
0

>  <logP(o/w)>
2.5339999

>  <logS>
-2.0581601

>  <mr>
4.1926217

>  <mutagenic>
0

>  <nmol>
1

>  <opr_brigid>
0

>  <opr_leadlike>
1

>  <opr_nring>
0

>  <opr_nrot>
5

>  <opr_violation>
0

>  <PC+>
0

>  <PC->
0

>  <PEOE_PC+>
0.91971326

>  <PEOE_PC->
-0.91971326

>  <PEOE_RPC+>
0.2856327

>  <PEOE_RPC->
0.35995924

>  <PEOE_VSA+0>
63.980789

>  <PEOE_VSA+1>
0

>  <PEOE_VSA+2>
0

>  <PEOE_VSA+3>
0

>  <PEOE_VSA+4>
10.324173

>  <PEOE_VSA+5>
14.708499

>  <PEOE_VSA+6>
0

>  <PEOE_VSA-0>
17.402626

>  <PEOE_VSA-1>
54.89798

>  <PEOE_VSA-2>
0

>  <PEOE_VSA-3>
0

>  <PEOE_VSA-4>
0

>  <PEOE_VSA-5>
13.566921

>  <PEOE_VSA-6>
7.7675405

>  <PEOE_VSA_FHYD>
0.74614012

>  <PEOE_VSA_FNEG>
0.51265162

>  <PEOE_VSA_FPNEG>
0.11680609

>  <PEOE_VSA_FPOL>
0.25385988

>  <PEOE_VSA_FPOS>
0.48734835

>  <PEOE_VSA_FPPOS>
0.13705379

>  <PEOE_VSA_HYD>
136.2814

>  <PEOE_VSA_NEG>
93.635071

>  <PEOE_VSA_PNEG>
21.334461

>  <PEOE_VSA_POL>
46.367134

>  <PEOE_VSA_POS>
89.013458

>  <PEOE_VSA_PPOS>
25.032671

>  <petitjean>
0.5

>  <petitjeanSC>
1

>  <Q_PC+>
0

>  <Q_PC->
0

>  <Q_RPC+>
0

>  <Q_RPC->
0

>  <Q_VSA_FHYD>
1

>  <Q_VSA_FNEG>
0

>  <Q_VSA_FPNEG>
0

>  <Q_VSA_FPOL>
0

>  <Q_VSA_FPOS>
1

>  <Q_VSA_FPPOS>
0

>  <Q_VSA_HYD>
182.64853

>  <Q_VSA_NEG>
0

>  <Q_VSA_PNEG>
0

>  <Q_VSA_POL>
0

>  <Q_VSA_POS>
182.64853

>  <Q_VSA_PPOS>
0

>  <radius>
3

>  <reactive>
0

>  <rings>
0

>  <RPC+>
0

>  <RPC->
0

>  <rsynth>
1

>  <SlogP>
2.2874

>  <SlogP_VSA0>
0

>  <SlogP_VSA1>
7.7454643

>  <SlogP_VSA2>
23.862217

>  <SlogP_VSA3>
25.385227

>  <SlogP_VSA4>
4.4107962

>  <SlogP_VSA5>
0

>  <SlogP_VSA6>
0

>  <SlogP_VSA7>
0

>  <SlogP_VSA8>
75.473625

>  <SlogP_VSA9>
66.652031

>  <SMR>
4.0941801

>  <SMR_VSA0>
23.862217

>  <SMR_VSA1>
0

>  <SMR_VSA2>
29.796022

>  <SMR_VSA3>
0

>  <SMR_VSA4>
0

>  <SMR_VSA5>
75.473625

>  <SMR_VSA6>
7.7454643

>  <SMR_VSA7>
66.652031

>  <TPSA>
37.299999

>  <VAdjEq>
0.68007702

>  <VAdjMa>
4.1699252

>  <VDistEq>
2.4028089

>  <VDistMa>
6.3180299

>  <vdw_area>
182.64853

>  <vdw_vol>
219.03053

>  <vsa_acc>
0

>  <vsa_acid>
0

>  <vsa_base>
0

>  <vsa_don>
0

>  <vsa_hyd>
124.25941

>  <vsa_other>
14.708499

>  <vsa_pol>
27.133842

>  <Weight>
144.21399

>  <weinerPath>
131

>  <weinerPol>
10

>  <zagreb>
38

$$$$