O1[C@@H]2[C@H](C/C/1=C/CCCC(O)=O)[C@@H](C=C[C@@H](O)CCCCC)[C@H](O)C2
  MOE2013           2D

 25 26  0  0  1  0  0  0  0  0999 V2000
    0.0000    0.0000    0.0000 O   0  0  0  0  0  0  0  0  0  0  0  0
   -1.1100   -1.0090    0.0000 C   0  0  2  0  0  0  0  0  0  0  0  0
   -2.4130   -0.2650    0.0000 C   0  0  2  0  0  0  0  0  0  0  0  0
   -2.1080    1.2030    0.0000 C   0  0  0  0  0  0  0  0  0  0  0  0
   -0.6170    1.3670    0.0000 C   0  0  0  0  0  0  0  0  0  0  0  0
    0.1270    2.6700    0.0000 C   0  0  0  0  0  0  0  0  0  0  0  0
    1.6270    2.6770    0.0000 C   0  0  0  0  0  0  0  0  0  0  0  0
    2.3710    3.9800    0.0000 C   0  0  0  0  0  0  0  0  0  0  0  0
    3.8710    3.9870    0.0000 C   0  0  0  0  0  0  0  0  0  0  0  0
    4.6140    5.2900    0.0000 C   0  0  0  0  0  0  0  0  0  0  0  0
    6.1140    5.2970    0.0000 O   0  0  0  0  0  0  0  0  0  0  0  0
    3.8580    6.5850    0.0000 O   0  0  0  0  0  0  0  0  0  0  0  0
   -3.5220   -1.2740    0.0000 C   0  0  1  0  0  0  0  0  0  0  0  0
   -4.9910   -0.9700    0.0000 C   0  0  0  0  0  0  0  0  0  0  0  0
   -5.9890   -2.0890    0.0000 C   0  0  0  0  0  0  0  0  0  0  0  0
   -7.4580   -1.7840    0.0000 C   0  0  1  0  0  0  0  0  0  0  0  0
   -8.4560   -2.9040    0.0000 O   0  0  0  0  0  0  0  0  0  0  0  0
   -7.9280   -0.3600    0.0000 C   0  0  0  0  0  0  0  0  0  0  0  0
   -9.3970   -0.0550    0.0000 C   0  0  0  0  0  0  0  0  0  0  0  0
   -9.8680    1.3690    0.0000 C   0  0  0  0  0  0  0  0  0  0  0  0
  -11.3360    1.6740    0.0000 C   0  0  0  0  0  0  0  0  0  0  0  0
  -11.8070    3.0980    0.0000 C   0  0  0  0  0  0  0  0  0  0  0  0
   -2.9060   -2.6420    0.0000 C   0  0  2  0  0  0  0  0  0  0  0  0
   -3.6490   -3.9440    0.0000 O   0  0  0  0  0  0  0  0  0  0  0  0
   -1.4150   -2.4780    0.0000 C   0  0  0  0  0  0  0  0  0  0  0  0
  1  5  1  0  0  0  0
  2  1  1  1  0  0  0
  2  3  1  0  0  0  0
  2 25  1  0  0  0  0
  3  4  1  1  0  0  0
  3 13  1  0  0  0  0
  4  5  1  0  0  0  0
  5  6  2  0  0  0  0
  6  7  1  0  0  0  0
  7  8  1  0  0  0  0
  8  9  1  0  0  0  0
  9 10  1  0  0  0  0
 10 11  1  0  0  0  0
 10 12  2  0  0  0  0
 13 14  1  6  0  0  0
 13 23  1  0  0  0  0
 14 15  2  3  0  0  0
 15 16  1  0  0  0  0
 16 17  1  1  0  0  0
 16 18  1  0  0  0  0
 18 19  1  0  0  0  0
 19 20  1  0  0  0  0
 20 21  1  0  0  0  0
 21 22  1  0  0  0  0
 23 24  1  1  0  0  0
 23 25  1  0  0  0  0
M  END
>  <Index>
380

>  <ID>
HT0772

>  <class>
0

>  <apol>
60.547375

>  <ast_fraglike>
0

>  <ast_fraglike_ext>
0

>  <ast_violation>
4

>  <ast_violation_ext>
5

>  <a_acc>
5

>  <a_acid>
0

>  <a_aro>
0

>  <a_base>
0

>  <a_count>
57

>  <a_don>
4

>  <a_donacc>
9

>  <a_heavy>
25

>  <a_hyd>
19

>  <a_IC>
74.426529

>  <a_ICM>
1.3057286

>  <a_nB>
0

>  <a_nBr>
0

>  <a_nC>
20

>  <a_nCl>
0

>  <a_nF>
0

>  <a_nH>
32

>  <a_nI>
0

>  <a_nN>
0

>  <a_nO>
5

>  <a_nP>
0

>  <a_nS>
0

>  <balabanJ>
1.6848714

>  <BCUT_PEOE_0>
-2.6630521

>  <BCUT_PEOE_1>
-0.54242772

>  <BCUT_PEOE_2>
0.58463931

>  <BCUT_PEOE_3>
2.8476543

>  <BCUT_SLOGP_0>
-2.5937309

>  <BCUT_SLOGP_1>
-0.5277741

>  <BCUT_SLOGP_2>
0.52852613

>  <BCUT_SLOGP_3>
2.8462217

>  <BCUT_SMR_0>
-2.4156728

>  <BCUT_SMR_1>
-0.39057955

>  <BCUT_SMR_2>
0.67660761

>  <BCUT_SMR_3>
3.0788882

>  <bpol>
37.856625

>  <b_1rotN>
10

>  <b_1rotR>
0.38461539

>  <b_ar>
0

>  <b_count>
58

>  <b_double>
3

>  <b_heavy>
26

>  <b_max1len>
8

>  <b_rotN>
10

>  <b_rotR>
0.38461539

>  <b_single>
55

>  <b_triple>
0

>  <chi0>
18.233841

>  <chi0v>
15.140901

>  <chi0v_C>
12.982763

>  <chi0_C>
13.526733

>  <chi1>
12.007239

>  <chi1v>
9.6280851

>  <chi1v_C>
8.2441301

>  <chi1_C>
8.881341

>  <chiral>
5

>  <chiral_u>
0

>  <density>
0.70453209

>  <diameter>
17

>  <FCharge>
0

>  <GCUT_PEOE_0>
-0.80201751

>  <GCUT_PEOE_1>
-0.40789354

>  <GCUT_PEOE_2>
0.086601138

>  <GCUT_PEOE_3>
2.8665867

>  <GCUT_SLOGP_0>
-0.88506609

>  <GCUT_SLOGP_1>
-0.3151857

>  <GCUT_SLOGP_2>
0.060527027

>  <GCUT_SLOGP_3>
2.9211564

>  <GCUT_SMR_0>
-0.5364998

>  <GCUT_SMR_1>
-0.23662987

>  <GCUT_SMR_2>
0.19440573

>  <GCUT_SMR_3>
3.0907006

>  <Kier1>
21.301775

>  <Kier2>
10.982699

>  <Kier3>
6.9101725

>  <KierA1>
19.219252

>  <KierA2>
9.8645821

>  <KierA3>
6.1858249

>  <KierFlex>
7.5835953

>  <lip_acc>
5

>  <lip_don>
3

>  <lip_druglike>
1

>  <lip_violation>
0

>  <logP(o/w)>
3.05

>  <logS>
-2.5337801

>  <mr>
9.7065029

>  <mutagenic>
0

>  <nmol>
1

>  <opr_brigid>
11

>  <opr_leadlike>
1

>  <opr_nring>
2

>  <opr_nrot>
10

>  <opr_violation>
0

>  <PC+>
0

>  <PC->
0

>  <PEOE_PC+>
2.2392571

>  <PEOE_PC->
-2.2392571

>  <PEOE_RPC+>
0.11593006

>  <PEOE_RPC->
0.17466131

>  <PEOE_VSA+0>
115.50651

>  <PEOE_VSA+1>
48.765621

>  <PEOE_VSA+2>
0

>  <PEOE_VSA+3>
0

>  <PEOE_VSA+4>
30.972517

>  <PEOE_VSA+5>
14.708499

>  <PEOE_VSA+6>
0

>  <PEOE_VSA-0>
34.805252

>  <PEOE_VSA-1>
81.616325

>  <PEOE_VSA-2>
0

>  <PEOE_VSA-3>
0

>  <PEOE_VSA-4>
0

>  <PEOE_VSA-5>
13.566921

>  <PEOE_VSA-6>
25.806377

>  <PEOE_VSA_FHYD>
0.76745105

>  <PEOE_VSA_FNEG>
0.42596233

>  <PEOE_VSA_FPNEG>
0.10765143

>  <PEOE_VSA_FPOL>
0.23254894

>  <PEOE_VSA_FPOS>
0.57403767

>  <PEOE_VSA_FPPOS>
0.12489751

>  <PEOE_VSA_HYD>
280.6937

>  <PEOE_VSA_NEG>
155.79488

>  <PEOE_VSA_PNEG>
39.373299

>  <PEOE_VSA_POL>
85.054314

>  <PEOE_VSA_POS>
209.95314

>  <PEOE_VSA_PPOS>
45.681019

>  <petitjean>
0.47058824

>  <petitjeanSC>
0.8888889

>  <Q_PC+>
0

>  <Q_PC->
0

>  <Q_RPC+>
0

>  <Q_RPC->
0

>  <Q_VSA_FHYD>
1

>  <Q_VSA_FNEG>
0

>  <Q_VSA_FPNEG>
0

>  <Q_VSA_FPOL>
0

>  <Q_VSA_FPOS>
1

>  <Q_VSA_FPPOS>
0

>  <Q_VSA_HYD>
365.74802

>  <Q_VSA_NEG>
0

>  <Q_VSA_PNEG>
0

>  <Q_VSA_POL>
0

>  <Q_VSA_POS>
365.74802

>  <Q_VSA_PPOS>
0

>  <radius>
9

>  <reactive>
1

>  <rings>
2

>  <RPC+>
0

>  <RPC->
0

>  <rsynth>
0

>  <SlogP>
3.4085

>  <SlogP_VSA0>
50.770454

>  <SlogP_VSA1>
7.7454643

>  <SlogP_VSA2>
54.268051

>  <SlogP_VSA3>
25.385227

>  <SlogP_VSA4>
8.8215923

>  <SlogP_VSA5>
5.2434282

>  <SlogP_VSA6>
0

>  <SlogP_VSA7>
52.929554

>  <SlogP_VSA8>
169.81564

>  <SlogP_VSA9>
33.326015

>  <SMR>
9.5952396

>  <SMR_VSA0>
34.862103

>  <SMR_VSA1>
50.770454

>  <SMR_VSA2>
34.206818

>  <SMR_VSA3>
24.649376

>  <SMR_VSA4>
0

>  <SMR_VSA5>
222.74521

>  <SMR_VSA6>
7.7454643

>  <SMR_VSA7>
33.326015

>  <TPSA>
86.989998

>  <VAdjEq>
0.41335541

>  <VAdjMa>
5.7004399

>  <VDistEq>
3.782577

>  <VDistMa>
8.9493513

>  <vdw_area>
365.74802

>  <vdw_vol>
500.29092

>  <vsa_acc>
2.503756

>  <vsa_acid>
0

>  <vsa_base>
0

>  <vsa_don>
0

>  <vsa_hyd>
257.36154

>  <vsa_other>
14.708499

>  <vsa_pol>
56.771439

>  <Weight>
352.47098

>  <weinerPath>
1847

>  <weinerPol>
31

>  <zagreb>
120

$$$$