Clc1c(S(=O)(=O)N)cc(S(=O)(=O)N)cc1Cl
  MOE2013           2D

 16 16  0  0  0  0  0  0  0  0999 V2000
    0.0000    0.0000    0.0000 Cl  0  0  0  0  0  0  0  0  0  0  0  0
    1.5000    0.0000    0.0000 C   0  0  0  0  0  0  0  0  0  0  0  0
    2.2500   -1.2980    0.0000 C   0  0  0  0  0  0  0  0  0  0  0  0
    1.5010   -2.5980    0.0000 S   0  0  0  0  0  0  0  0  0  0  0  0
    0.2010   -1.8480    0.0000 O   0  0  0  0  0  0  0  0  0  0  0  0
    2.8000   -3.3470    0.0000 O   0  0  0  0  0  0  0  0  0  0  0  0
    0.7510   -3.8970    0.0000 N   0  0  0  0  0  0  0  0  0  0  0  0
    3.7500   -1.2980    0.0000 C   0  0  0  0  0  0  0  0  0  0  0  0
    4.5000    0.0010    0.0000 C   0  0  0  0  0  0  0  0  0  0  0  0
    6.0000    0.0020    0.0000 S   0  0  0  0  0  0  0  0  0  0  0  0
    6.0000   -1.4980    0.0000 O   0  0  0  0  0  0  0  0  0  0  0  0
    6.0000    1.5020    0.0000 O   0  0  0  0  0  0  0  0  0  0  0  0
    7.5000    0.0020    0.0000 N   0  0  0  0  0  0  0  0  0  0  0  0
    3.7500    1.3000    0.0000 C   0  0  0  0  0  0  0  0  0  0  0  0
    2.2500    1.3000    0.0000 C   0  0  0  0  0  0  0  0  0  0  0  0
    1.4990    2.5980    0.0000 Cl  0  0  0  0  0  0  0  0  0  0  0  0
  1  2  1  0  0  0  0
  2  3  1  0  0  0  0
  2 15  2  0  0  0  0
  3  4  1  0  0  0  0
  3  8  2  0  0  0  0
  4  5  2  0  0  0  0
  4  6  2  0  0  0  0
  4  7  1  0  0  0  0
  8  9  1  0  0  0  0
  9 10  1  0  0  0  0
  9 14  2  0  0  0  0
 10 11  2  0  0  0  0
 10 12  2  0  0  0  0
 10 13  1  0  0  0  0
 14 15  1  0  0  0  0
 15 16  1  0  0  0  0
M  END
>  <Index>
313

>  <ID>
HT0646

>  <class>
0

>  <apol>
30.128757

>  <ast_fraglike>
0

>  <ast_fraglike_ext>
0

>  <ast_violation>
2

>  <ast_violation_ext>
3

>  <a_acc>
4

>  <a_acid>
0

>  <a_aro>
6

>  <a_base>
0

>  <a_count>
22

>  <a_don>
2

>  <a_donacc>
6

>  <a_heavy>
16

>  <a_hyd>
8

>  <a_IC>
53.087944

>  <a_ICM>
2.4130883

>  <a_nB>
0

>  <a_nBr>
0

>  <a_nC>
6

>  <a_nCl>
2

>  <a_nF>
0

>  <a_nH>
6

>  <a_nI>
0

>  <a_nN>
2

>  <a_nO>
4

>  <a_nP>
0

>  <a_nS>
2

>  <balabanJ>
2.8790014

>  <BCUT_PEOE_0>
-2.3389039

>  <BCUT_PEOE_1>
-0.61353749

>  <BCUT_PEOE_2>
0.61450171

>  <BCUT_PEOE_3>
2.448271

>  <BCUT_SLOGP_0>
-2.5896349

>  <BCUT_SLOGP_1>
-0.3339

>  <BCUT_SLOGP_2>
0.89336634

>  <BCUT_SLOGP_3>
2.4291406

>  <BCUT_SMR_0>
-2.0002887

>  <BCUT_SMR_1>
-0.2068848

>  <BCUT_SMR_2>
1.0308956

>  <BCUT_SMR_3>
2.7721641

>  <bpol>
19.031242

>  <b_1rotN>
2

>  <b_1rotR>
0.125

>  <b_ar>
6

>  <b_count>
22

>  <b_double>
0

>  <b_heavy>
16

>  <b_max1len>
3

>  <b_rotN>
2

>  <b_rotR>
0.125

>  <b_single>
16

>  <b_triple>
0

>  <chi0>
12.723615

>  <chi0v>
10.659671

>  <chi0v_C>
3.1547005

>  <chi0_C>
3.7236147

>  <chi1>
7.0317106

>  <chi1v>
7.4275522

>  <chi1v_C>
1.6547005

>  <chi1_C>
2.2996597

>  <chiral>
0

>  <chiral_u>
0

>  <density>
1.1410991

>  <diameter>
6

>  <FCharge>
0

>  <GCUT_PEOE_0>
-0.77615392

>  <GCUT_PEOE_1>
-0.39680085

>  <GCUT_PEOE_2>
0.0169417

>  <GCUT_PEOE_3>
2.2902057

>  <GCUT_SLOGP_0>
-1.3499793

>  <GCUT_SLOGP_1>
-0.46192604

>  <GCUT_SLOGP_2>
0.20691562

>  <GCUT_SLOGP_3>
2.3105326

>  <GCUT_SMR_0>
-0.41646129

>  <GCUT_SMR_1>
-0.082259998

>  <GCUT_SMR_2>
0.43111372

>  <GCUT_SMR_3>
2.5632215

>  <Kier1>
14.0625

>  <Kier2>
4.3491125

>  <Kier3>
3.25

>  <KierA1>
17.415096

>  <KierA2>
5.464046

>  <KierA3>
4.1272378

>  <KierFlex>
5.9473052

>  <lip_acc>
6

>  <lip_don>
4

>  <lip_druglike>
1

>  <lip_violation>
0

>  <logP(o/w)>
0.016000001

>  <logS>
-3.30668

>  <mr>
6.0609465

>  <mutagenic>
0

>  <nmol>
1

>  <opr_brigid>
6

>  <opr_leadlike>
1

>  <opr_nring>
1

>  <opr_nrot>
2

>  <opr_violation>
0

>  <PC+>
0

>  <PC->
0

>  <PEOE_PC+>
1.4820222

>  <PEOE_PC->
-1.4820222

>  <PEOE_RPC+>
0.20995195

>  <PEOE_RPC->
0.15978226

>  <PEOE_VSA+0>
54.687267

>  <PEOE_VSA+1>
25.305422

>  <PEOE_VSA+2>
12.254904

>  <PEOE_VSA+3>
4.5197463

>  <PEOE_VSA+4>
0

>  <PEOE_VSA+5>
4.1846013

>  <PEOE_VSA+6>
4.1846013

>  <PEOE_VSA-0>
0

>  <PEOE_VSA-1>
59.163895

>  <PEOE_VSA-2>
0

>  <PEOE_VSA-3>
18.0875

>  <PEOE_VSA-4>
64.033043

>  <PEOE_VSA-5>
0

>  <PEOE_VSA-6>
0

>  <PEOE_VSA_FHYD>
0.70618474

>  <PEOE_VSA_FNEG>
0.57334584

>  <PEOE_VSA_FPNEG>
0.25985226

>  <PEOE_VSA_FPOL>
0.29381528

>  <PEOE_VSA_FPOS>
0.42665419

>  <PEOE_VSA_FPPOS>
0.033963028

>  <PEOE_VSA_HYD>
174.01874

>  <PEOE_VSA_NEG>
141.28444

>  <PEOE_VSA_PNEG>
64.033043

>  <PEOE_VSA_POL>
72.402252

>  <PEOE_VSA_POS>
105.13654

>  <PEOE_VSA_PPOS>
8.3692026

>  <petitjean>
0.33333334

>  <petitjeanSC>
0.5

>  <Q_PC+>
0

>  <Q_PC->
0

>  <Q_RPC+>
0

>  <Q_RPC->
0

>  <Q_VSA_FHYD>
1

>  <Q_VSA_FNEG>
0

>  <Q_VSA_FPNEG>
0

>  <Q_VSA_FPOL>
0

>  <Q_VSA_FPOS>
1

>  <Q_VSA_FPPOS>
0

>  <Q_VSA_HYD>
246.42099

>  <Q_VSA_NEG>
0

>  <Q_VSA_PNEG>
0

>  <Q_VSA_POL>
0

>  <Q_VSA_POS>
246.42099

>  <Q_VSA_PPOS>
0

>  <radius>
4

>  <reactive>
0

>  <rings>
1

>  <RPC+>
0

>  <RPC->
0

>  <rsynth>
1

>  <SlogP>
0.28819999

>  <SlogP_VSA0>
62.582867

>  <SlogP_VSA1>
96.343376

>  <SlogP_VSA2>
13.281486

>  <SlogP_VSA3>
0

>  <SlogP_VSA4>
0

>  <SlogP_VSA5>
3.1014678

>  <SlogP_VSA6>
7.0012131

>  <SlogP_VSA7>
35.286369

>  <SlogP_VSA8>
0

>  <SlogP_VSA9>
78.297287

>  <SMR>
5.9208398

>  <SMR_VSA0>
96.343376

>  <SMR_VSA1>
0

>  <SMR_VSA2>
3.1014678

>  <SMR_VSA3>
7.0012131

>  <SMR_VSA4>
62.582867

>  <SMR_VSA5>
35.286369

>  <SMR_VSA6>
0

>  <SMR_VSA7>
91.578773

>  <TPSA>
120.32

>  <VAdjEq>
0.54356444

>  <VAdjMa>
5

>  <VDistEq>
2.5390115

>  <VDistMa>
7.7432261

>  <vdw_area>
246.42099

>  <vdw_vol>
267.42813

>  <vsa_acc>
64.033043

>  <vsa_acid>
0

>  <vsa_base>
0

>  <vsa_don>
40.270241

>  <vsa_hyd>
108.18958

>  <vsa_other>
20.211216

>  <vsa_pol>
104.30328

>  <Weight>
305.16199

>  <weinerPath>
398

>  <weinerPol>
25

>  <zagreb>
84

$$$$