O=C(C(N(CC)CC)C)c1ccccc1
  MOE2013           2D

 15 15  0  0  1  0  0  0  0  0999 V2000
    0.0000    0.0000    0.0000 O   0  0  0  0  0  0  0  0  0  0  0  0
   -0.7510   -1.2990    0.0000 C   0  0  0  0  0  0  0  0  0  0  0  0
   -0.0010   -2.5980    0.0000 C   0  0  3  0  0  0  0  0  0  0  0  0
    1.4990   -2.5990    0.0000 N   0  0  0  0  0  0  0  0  0  0  0  0
    2.2480   -3.8980    0.0000 C   0  0  0  0  0  0  0  0  0  0  0  0
    3.7480   -3.8990    0.0000 C   0  0  0  0  0  0  0  0  0  0  0  0
    2.2490   -1.3000    0.0000 C   0  0  0  0  0  0  0  0  0  0  0  0
    3.7490   -1.3010    0.0000 C   0  0  0  0  0  0  0  0  0  0  0  0
   -0.7520   -3.8970    0.0000 C   0  0  0  0  0  0  0  0  0  0  0  0
   -2.2510   -1.2980    0.0000 C   0  0  0  0  0  0  0  0  0  0  0  0
   -3.0010   -2.5970    0.0000 C   0  0  0  0  0  0  0  0  0  0  0  0
   -4.5010   -2.5960    0.0000 C   0  0  0  0  0  0  0  0  0  0  0  0
   -5.2510   -1.2970    0.0000 C   0  0  0  0  0  0  0  0  0  0  0  0
   -4.5000    0.0020    0.0000 C   0  0  0  0  0  0  0  0  0  0  0  0
   -3.0000    0.0010    0.0000 C   0  0  0  0  0  0  0  0  0  0  0  0
  1  2  2  0  0  0  0
  2  3  1  0  0  0  0
  2 10  1  0  0  0  0
  3  4  1  0  0  0  0
  3  9  1  0  0  0  0
  4  5  1  0  0  0  0
  4  7  1  0  0  0  0
  5  6  1  0  0  0  0
  7  8  1  0  0  0  0
 10 11  1  0  0  0  0
 10 15  2  0  0  0  0
 11 12  2  0  0  0  0
 12 13  1  0  0  0  0
 13 14  2  0  0  0  0
 14 15  1  0  0  0  0
M  END
>  <Index>
318

>  <ID>
HT0656

>  <class>
0

>  <apol>
37.451069

>  <ast_fraglike>
1

>  <ast_fraglike_ext>
0

>  <ast_violation>
0

>  <ast_violation_ext>
1

>  <a_acc>
2

>  <a_acid>
0

>  <a_aro>
6

>  <a_base>
0

>  <a_count>
34

>  <a_don>
0

>  <a_donacc>
2

>  <a_heavy>
15

>  <a_hyd>
12

>  <a_IC>
44.157398

>  <a_ICM>
1.2987469

>  <a_nB>
0

>  <a_nBr>
0

>  <a_nC>
13

>  <a_nCl>
0

>  <a_nF>
0

>  <a_nH>
19

>  <a_nI>
0

>  <a_nN>
1

>  <a_nO>
1

>  <a_nP>
0

>  <a_nS>
0

>  <balabanJ>
2.468442

>  <BCUT_PEOE_0>
-2.6718276

>  <BCUT_PEOE_1>
-0.50714916

>  <BCUT_PEOE_2>
0.54082721

>  <BCUT_PEOE_3>
2.5985966

>  <BCUT_SLOGP_0>
-2.7476552

>  <BCUT_SLOGP_1>
-0.40188977

>  <BCUT_SLOGP_2>
0.60718644

>  <BCUT_SLOGP_3>
2.5518608

>  <BCUT_SMR_0>
-2.3964999

>  <BCUT_SMR_1>
-0.36549622

>  <BCUT_SMR_2>
0.67933613

>  <BCUT_SMR_3>
2.8678896

>  <bpol>
23.708933

>  <b_1rotN>
5

>  <b_1rotR>
0.33333334

>  <b_ar>
6

>  <b_count>
34

>  <b_double>
1

>  <b_heavy>
15

>  <b_max1len>
6

>  <b_rotN>
5

>  <b_rotR>
0.33333334

>  <b_single>
27

>  <b_triple>
0

>  <chi0>
11.259149

>  <chi0v>
9.733777

>  <chi0v_C>
8.878315

>  <chi0_C>
9.681798

>  <chi1>
7.2019072

>  <chi1v>
5.5357013

>  <chi1v_C>
4.4409227

>  <chi1_C>
5.4747272

>  <chiral>
1

>  <chiral_u>
1

>  <density>
0.64366573

>  <diameter>
8

>  <FCharge>
0

>  <GCUT_PEOE_0>
-0.84762591

>  <GCUT_PEOE_1>
-0.34541202

>  <GCUT_PEOE_2>
0.054186165

>  <GCUT_PEOE_3>
2.5004497

>  <GCUT_SLOGP_0>
-0.96043062

>  <GCUT_SLOGP_1>
-0.25445762

>  <GCUT_SLOGP_2>
0.13264781

>  <GCUT_SLOGP_3>
2.52161

>  <GCUT_SMR_0>
-0.52106172

>  <GCUT_SMR_1>
-0.18054181

>  <GCUT_SMR_2>
0.15555345

>  <GCUT_SMR_3>
2.7536407

>  <Kier1>
13.066667

>  <Kier2>
6.5540166

>  <Kier3>
3.5

>  <KierA1>
10.32718

>  <KierA2>
5.0851974

>  <KierA3>
2.674763

>  <KierFlex>
3.50105

>  <lip_acc>
2

>  <lip_don>
0

>  <lip_druglike>
1

>  <lip_violation>
0

>  <logP(o/w)>
2.654

>  <logS>
-2.5693099

>  <mr>
6.4022565

>  <mutagenic>
0

>  <nmol>
1

>  <opr_brigid>
6

>  <opr_leadlike>
1

>  <opr_nring>
1

>  <opr_nrot>
5

>  <opr_violation>
0

>  <PC+>
0

>  <PC->
0

>  <PEOE_PC+>
1.0235018

>  <PEOE_PC->
-1.0235018

>  <PEOE_RPC+>
0.17572856

>  <PEOE_RPC->
0.28656325

>  <PEOE_VSA+0>
57.658558

>  <PEOE_VSA+1>
28.738277

>  <PEOE_VSA+2>
0

>  <PEOE_VSA+3>
8.458519

>  <PEOE_VSA+4>
0

>  <PEOE_VSA+5>
0

>  <PEOE_VSA+6>
0

>  <PEOE_VSA-0>
45.132328

>  <PEOE_VSA-1>
98.769875

>  <PEOE_VSA-2>
0

>  <PEOE_VSA-3>
0

>  <PEOE_VSA-4>
0

>  <PEOE_VSA-5>
13.566921

>  <PEOE_VSA-6>
0

>  <PEOE_VSA_FHYD>
0.94623226

>  <PEOE_VSA_FNEG>
0.62407392

>  <PEOE_VSA_FPNEG>
0.053767756

>  <PEOE_VSA_FPOL>
0.053767756

>  <PEOE_VSA_FPOS>
0.37592608

>  <PEOE_VSA_FPPOS>
0

>  <PEOE_VSA_HYD>
238.75755

>  <PEOE_VSA_NEG>
157.46912

>  <PEOE_VSA_PNEG>
13.566921

>  <PEOE_VSA_POL>
13.566921

>  <PEOE_VSA_POS>
94.855354

>  <PEOE_VSA_PPOS>
0

>  <petitjean>
0.5

>  <petitjeanSC>
1

>  <Q_PC+>
0

>  <Q_PC->
0

>  <Q_RPC+>
0

>  <Q_RPC->
0

>  <Q_VSA_FHYD>
1

>  <Q_VSA_FNEG>
0

>  <Q_VSA_FPNEG>
0

>  <Q_VSA_FPOL>
0

>  <Q_VSA_FPOS>
1

>  <Q_VSA_FPPOS>
0

>  <Q_VSA_HYD>
252.32448

>  <Q_VSA_NEG>
0

>  <Q_VSA_PNEG>
0

>  <Q_VSA_POL>
0

>  <Q_VSA_POS>
252.32448

>  <Q_VSA_PPOS>
0

>  <radius>
4

>  <reactive>
1

>  <rings>
1

>  <RPC+>
0

>  <RPC->
0

>  <rsynth>
1

>  <SlogP>
2.5996001

>  <SlogP_VSA0>
0

>  <SlogP_VSA1>
8.8119249

>  <SlogP_VSA2>
3.9819686

>  <SlogP_VSA3>
36.879158

>  <SlogP_VSA4>
27.047791

>  <SlogP_VSA5>
0

>  <SlogP_VSA6>
0

>  <SlogP_VSA7>
88.215919

>  <SlogP_VSA8>
0

>  <SlogP_VSA9>
99.978043

>  <SMR>
6.3155499

>  <SMR_VSA0>
23.862217

>  <SMR_VSA1>
3.1243138

>  <SMR_VSA2>
0

>  <SMR_VSA3>
7.1675434

>  <SMR_VSA4>
0

>  <SMR_VSA5>
88.215919

>  <SMR_VSA6>
42.566769

>  <SMR_VSA7>
99.978043

>  <TPSA>
20.309999

>  <VAdjEq>
0.56650949

>  <VAdjMa>
4.9068904

>  <VDistEq>
2.8033566

>  <VDistMa>
7.5189657

>  <vdw_area>
252.32448

>  <vdw_vol>
318.9559

>  <vsa_acc>
13.566921

>  <vsa_acid>
0

>  <vsa_base>
0

>  <vsa_don>
0

>  <vsa_hyd>
216.77492

>  <vsa_other>
8.458519

>  <vsa_pol>
13.566921

>  <Weight>
205.30099

>  <weinerPath>
376

>  <weinerPol>
21

>  <zagreb>
68

$$$$