O1[C@@H]2C[C@H](O)[C@@]3([C@H]([C@H](OC(=O)c4ccccc4)[C@]4(O)C[C@H](OC(=O)[C@H](O)[C@@H](NC(OC(C)(C)C)=O)c5ccccc5)C(=C([C@@H](O)C3=O)C4(C)C)C)[C@]2(OC(=O)C)C1)C
  MOE2013           2D

 58 63  0  0  1  0  0  0  0  0999 V2000
    0.0000    0.0000    0.0000 O   0  0  0  0  0  0  0  0  0  0  0  0
    0.5380    1.4000    0.0000 C   0  0  2  0  0  0  0  0  0  0  0  0
    0.3040    2.8820    0.0000 C   0  0  0  0  0  0  0  0  0  0  0  0
    1.4700    3.8250    0.0000 C   0  0  2  0  0  0  0  0  0  0  0  0
    0.7660    5.1500    0.0000 O   0  0  0  0  0  0  0  0  0  0  0  0
    2.8980    3.2170    0.0000 C   0  0  2  0  0  0  0  0  0  0  0  0
    3.0850    1.8130    0.0000 C   0  0  2  0  0  0  0  0  0  0  0  0
    4.4290    0.9950    0.0000 C   0  0  2  0  0  0  0  0  0  0  0  0
    4.5870   -0.4960    0.0000 O   0  0  0  0  0  0  0  0  0  0  0  0
    5.9580   -1.1060    0.0000 C   0  0  0  0  0  0  0  0  0  0  0  0
    7.1710   -0.2230    0.0000 O   0  0  0  0  0  0  0  0  0  0  0  0
    6.1150   -2.5970    0.0000 C   0  0  0  0  0  0  0  0  0  0  0  0
    7.4860   -3.2070    0.0000 C   0  0  0  0  0  0  0  0  0  0  0  0
    7.6430   -4.6990    0.0000 C   0  0  0  0  0  0  0  0  0  0  0  0
    6.4300   -5.5810    0.0000 C   0  0  0  0  0  0  0  0  0  0  0  0
    5.0600   -4.9710    0.0000 C   0  0  0  0  0  0  0  0  0  0  0  0
    4.9020   -3.4800    0.0000 C   0  0  0  0  0  0  0  0  0  0  0  0
    5.6150    2.1160    0.0000 C   0  0  2  0  0  0  0  0  0  0  0  0
    6.1980    0.7340    0.0000 O   0  0  0  0  0  0  0  0  0  0  0  0
    7.0680    2.2400    0.0000 C   0  0  0  0  0  0  0  0  0  0  0  0
    7.7100    3.5440    0.0000 C   0  0  2  0  0  0  0  0  0  0  0  0
    9.2060    3.6450    0.0000 O   0  0  0  0  0  0  0  0  0  0  0  0
    9.8670    4.9920    0.0000 C   0  0  0  0  0  0  0  0  0  0  0  0
    9.0310    6.2370    0.0000 O   0  0  0  0  0  0  0  0  0  0  0  0
   11.3630    5.0930    0.0000 C   0  0  2  0  0  0  0  0  0  0  0  0
   12.0240    6.4400    0.0000 O   0  0  0  0  0  0  0  0  0  0  0  0
   12.2000    3.8480    0.0000 C   0  0  1  0  0  0  0  0  0  0  0  0
   11.5390    2.5010    0.0000 N   0  0  0  0  0  0  0  0  0  0  0  0
   12.3750    1.2560    0.0000 C   0  0  0  0  0  0  0  0  0  0  0  0
   13.8720    1.3580    0.0000 O   0  0  0  0  0  0  0  0  0  0  0  0
   14.7080    0.1120    0.0000 C   0  0  0  0  0  0  0  0  0  0  0  0
   15.5440   -1.1330    0.0000 C   0  0  0  0  0  0  0  0  0  0  0  0
   13.4630   -0.7240    0.0000 C   0  0  0  0  0  0  0  0  0  0  0  0
   15.9540    0.9480    0.0000 C   0  0  0  0  0  0  0  0  0  0  0  0
   11.7150   -0.0910    0.0000 O   0  0  0  0  0  0  0  0  0  0  0  0
   13.6960    3.9500    0.0000 C   0  0  0  0  0  0  0  0  0  0  0  0
   14.5320    2.7040    0.0000 C   0  0  0  0  0  0  0  0  0  0  0  0
   16.0290    2.8060    0.0000 C   0  0  0  0  0  0  0  0  0  0  0  0
   16.6890    4.1530    0.0000 C   0  0  0  0  0  0  0  0  0  0  0  0
   15.8530    5.3980    0.0000 C   0  0  0  0  0  0  0  0  0  0  0  0
   14.3570    5.2960    0.0000 C   0  0  0  0  0  0  0  0  0  0  0  0
    6.8970    4.7490    0.0000 C   0  0  0  0  0  0  0  0  0  0  0  0
    5.4390    4.6750    0.0000 C   0  0  0  0  0  0  0  0  0  0  0  0
    4.1140    5.6230    0.0000 C   0  0  1  0  0  0  0  0  0  0  0  0
    4.0670    7.1230    0.0000 O   0  0  0  0  0  0  0  0  0  0  0  0
    2.8910    4.6310    0.0000 C   0  0  0  0  0  0  0  0  0  0  0  0
    1.8360    5.6970    0.0000 O   0  0  0  0  0  0  0  0  0  0  0  0
    4.8170    3.3470    0.0000 C   0  0  0  0  0  0  0  0  0  0  0  0
    6.2830    3.0320    0.0000 C   0  0  0  0  0  0  0  0  0  0  0  0
    6.2440    3.8070    0.0000 C   0  0  0  0  0  0  0  0  0  0  0  0
    7.5680    6.0910    0.0000 C   0  0  0  0  0  0  0  0  0  0  0  0
    1.9380    0.8620    0.0000 C   0  0  1  0  0  0  0  0  0  0  0  0
    3.1340   -0.0430    0.0000 O   0  0  0  0  0  0  0  0  0  0  0  0
    2.9480   -1.5310    0.0000 C   0  0  0  0  0  0  0  0  0  0  0  0
    1.5660   -2.1150    0.0000 O   0  0  0  0  0  0  0  0  0  0  0  0
    4.1440   -2.4370    0.0000 C   0  0  0  0  0  0  0  0  0  0  0  0
    1.4000   -0.5380    0.0000 C   0  0  0  0  0  0  0  0  0  0  0  0
    1.4700    2.7560    0.0000 C   0  0  0  0  0  0  0  0  0  0  0  0
  1 57  1  0  0  0  0
  2  1  1  6  0  0  0
  2  3  1  0  0  0  0
  2 52  1  0  0  0  0
  3  4  1  0  0  0  0
  4  5  1  6  0  0  0
  4  6  1  0  0  0  0
  6 46  1  0  0  0  0
  6 58  1  6  0  0  0
  7  6  1  6  0  0  0
  7  8  1  0  0  0  0
  7 52  1  0  0  0  0
  8  9  1  1  0  0  0
  8 18  1  0  0  0  0
  9 10  1  0  0  0  0
 10 11  2  0  0  0  0
 10 12  1  0  0  0  0
 12 13  1  0  0  0  0
 12 17  2  0  0  0  0
 13 14  2  0  0  0  0
 14 15  1  0  0  0  0
 15 16  2  0  0  0  0
 16 17  1  0  0  0  0
 18 19  1  6  0  0  0
 18 20  1  0  0  0  0
 18 48  1  0  0  0  0
 20 21  1  0  0  0  0
 21 22  1  1  0  0  0
 21 42  1  0  0  0  0
 22 23  1  0  0  0  0
 23 24  2  0  0  0  0
 23 25  1  0  0  0  0
 25 26  1  6  0  0  0
 25 27  1  0  0  0  0
 27 28  1  6  0  0  0
 27 36  1  0  0  0  0
 28 29  1  0  0  0  0
 29 30  1  0  0  0  0
 29 35  2  0  0  0  0
 30 31  1  0  0  0  0
 31 32  1  0  0  0  0
 31 33  1  0  0  0  0
 31 34  1  0  0  0  0
 36 37  1  0  0  0  0
 36 41  2  0  0  0  0
 37 38  2  0  0  0  0
 38 39  1  0  0  0  0
 39 40  2  0  0  0  0
 40 41  1  0  0  0  0
 42 43  2  0  0  0  0
 42 51  1  0  0  0  0
 43 44  1  0  0  0  0
 43 48  1  0  0  0  0
 44 45  1  6  0  0  0
 44 46  1  0  0  0  0
 46 47  2  0  0  0  0
 48 49  1  0  0  0  0
 48 50  1  0  0  0  0
 52 53  1  1  0  0  0
 52 57  1  0  0  0  0
 53 54  1  0  0  0  0
 54 55  2  0  0  0  0
 54 56  1  0  0  0  0
M  END
>  <Index>
339

>  <ID>
HT0702

>  <class>
0

>  <apol>
123.34803

>  <ast_fraglike>
0

>  <ast_fraglike_ext>
0

>  <ast_violation>
4

>  <ast_violation_ext>
6

>  <a_acc>
10

>  <a_acid>
0

>  <a_aro>
12

>  <a_base>
0

>  <a_count>
111

>  <a_don>
5

>  <a_donacc>
15

>  <a_heavy>
58

>  <a_hyd>
38

>  <a_IC>
163.96802

>  <a_ICM>
1.4771894

>  <a_nB>
0

>  <a_nBr>
0

>  <a_nC>
43

>  <a_nCl>
0

>  <a_nF>
0

>  <a_nH>
53

>  <a_nI>
0

>  <a_nN>
1

>  <a_nO>
14

>  <a_nP>
0

>  <a_nS>
0

>  <balabanJ>
1.4157093

>  <BCUT_PEOE_0>
-2.9166036

>  <BCUT_PEOE_1>
-0.51576895

>  <BCUT_PEOE_2>
0.57845145

>  <BCUT_PEOE_3>
2.9872935

>  <BCUT_SLOGP_0>
-3.034863

>  <BCUT_SLOGP_1>
-0.49814415

>  <BCUT_SLOGP_2>
0.59061283

>  <BCUT_SLOGP_3>
2.8859577

>  <BCUT_SMR_0>
-2.7050157

>  <BCUT_SMR_1>
-0.38783625

>  <BCUT_SMR_2>
0.70871884

>  <BCUT_SMR_3>
3.1937029

>  <bpol>
72.969971

>  <b_1rotN>
8

>  <b_1rotR>
0.12698413

>  <b_ar>
12

>  <b_count>
116

>  <b_double>
6

>  <b_heavy>
63

>  <b_max1len>
5

>  <b_rotN>
14

>  <b_rotR>
0.22222222

>  <b_single>
98

>  <b_triple>
0

>  <chi0>
42.749985

>  <chi0v>
33.884964

>  <chi0v_C>
27.513626

>  <chi0_C>
29.507343

>  <chi1>
26.990416

>  <chi1v>
19.334663

>  <chi1v_C>
14.556637

>  <chi1_C>
16.990271

>  <chiral>
11

>  <chiral_u>
0

>  <density>
0.76997685

>  <diameter>
18

>  <FCharge>
0

>  <GCUT_PEOE_0>
-0.84273791

>  <GCUT_PEOE_1>
-0.39880934

>  <GCUT_PEOE_2>
0.064149566

>  <GCUT_PEOE_3>
3.5931556

>  <GCUT_SLOGP_0>
-1.1308191

>  <GCUT_SLOGP_1>
-0.3353633

>  <GCUT_SLOGP_2>
0.059928458

>  <GCUT_SLOGP_3>
3.5558939

>  <GCUT_SMR_0>
-0.57559013

>  <GCUT_SMR_1>
-0.21613628

>  <GCUT_SMR_2>
0.15767086

>  <GCUT_SMR_3>
3.807497

>  <Kier1>
47.478458

>  <Kier2>
17.8752

>  <Kier3>
8.8000002

>  <KierA1>
39.324661

>  <KierA2>
14.754313

>  <KierA3>
7.2463536

>  <KierFlex>
10.003592

>  <lip_acc>
15

>  <lip_don>
5

>  <lip_druglike>
0

>  <lip_violation>
2

>  <logP(o/w)>
3.5799999

>  <logS>
-7.1043601

>  <mr>
20.716845

>  <mutagenic>
0

>  <nmol>
1

>  <opr_brigid>
32

>  <opr_leadlike>
0

>  <opr_nring>
6

>  <opr_nrot>
9

>  <opr_violation>
3

>  <PC+>
0

>  <PC->
0

>  <PEOE_PC+>
5.7235956

>  <PEOE_PC->
-5.7235956

>  <PEOE_RPC+>
0.063197553

>  <PEOE_RPC->
0.068265818

>  <PEOE_VSA+0>
162.05504

>  <PEOE_VSA+1>
113.85438

>  <PEOE_VSA+2>
9.8098574

>  <PEOE_VSA+3>
21.982462

>  <PEOE_VSA+4>
41.296692

>  <PEOE_VSA+5>
44.125496

>  <PEOE_VSA+6>
19.199511

>  <PEOE_VSA-0>
124.87382

>  <PEOE_VSA-1>
135.53459

>  <PEOE_VSA-2>
0

>  <PEOE_VSA-3>
0

>  <PEOE_VSA-4>
13.566921

>  <PEOE_VSA-5>
56.771439

>  <PEOE_VSA-6>
41.222076

>  <PEOE_VSA_FHYD>
0.72436023

>  <PEOE_VSA_FNEG>
0.47427323

>  <PEOE_VSA_FPNEG>
0.14224344

>  <PEOE_VSA_FPOL>
0.27563977

>  <PEOE_VSA_FPOS>
0.52572674

>  <PEOE_VSA_FPPOS>
0.13339631

>  <PEOE_VSA_HYD>
568.11011

>  <PEOE_VSA_NEG>
371.96884

>  <PEOE_VSA_PNEG>
111.56044

>  <PEOE_VSA_POL>
216.18213

>  <PEOE_VSA_POS>
412.32343

>  <PEOE_VSA_PPOS>
104.6217

>  <petitjean>
0.5

>  <petitjeanSC>
1

>  <Q_PC+>
0

>  <Q_PC->
0

>  <Q_RPC+>
0

>  <Q_RPC->
0

>  <Q_VSA_FHYD>
1

>  <Q_VSA_FNEG>
0

>  <Q_VSA_FPNEG>
0

>  <Q_VSA_FPOL>
0

>  <Q_VSA_FPOS>
1

>  <Q_VSA_FPPOS>
0

>  <Q_VSA_HYD>
784.2923

>  <Q_VSA_NEG>
0

>  <Q_VSA_PNEG>
0

>  <Q_VSA_POL>
0

>  <Q_VSA_POS>
784.2923

>  <Q_VSA_PPOS>
0

>  <radius>
9

>  <reactive>
1

>  <rings>
6

>  <RPC+>
0

>  <RPC->
0

>  <rsynth>
0.51724136

>  <SlogP>
3.3550999

>  <SlogP_VSA0>
119.55166

>  <SlogP_VSA1>
36.240639

>  <SlogP_VSA2>
165.39798

>  <SlogP_VSA3>
20.926258

>  <SlogP_VSA4>
34.644161

>  <SlogP_VSA5>
6.37115

>  <SlogP_VSA6>
0

>  <SlogP_VSA7>
176.43184

>  <SlogP_VSA8>
41.718781

>  <SlogP_VSA9>
290.47034

>  <SMR>
20.37154

>  <SMR_VSA0>
174.31052

>  <SMR_VSA1>
101.54091

>  <SMR_VSA2>
22.421547

>  <SMR_VSA3>
55.536163

>  <SMR_VSA4>
0

>  <SMR_VSA5>
214.16866

>  <SMR_VSA6>
57.166897

>  <SMR_VSA7>
266.60812

>  <TPSA>
224.45

>  <VAdjEq>
0.23050116

>  <VAdjMa>
6.9772801

>  <VDistEq>
3.9449027

>  <VDistMa>
11.479533

>  <vdw_area>
784.2923

>  <vdw_vol>
1049.2394

>  <vsa_acc>
70.338364

>  <vsa_acid>
0

>  <vsa_base>
0

>  <vsa_don>
5.6825762

>  <vsa_hyd>
515.52136

>  <vsa_other>
81.798553

>  <vsa_pol>
130.28862

>  <Weight>
807.88995

>  <weinerPath>
12587

>  <weinerPol>
121

>  <zagreb>
326

$$$$