OC1CC(O)CC(=C/C=C2/C3CCC(C(CCCC(C)C)C)C3(CCC/2)C)C1=C
  MOE2013           2D

 29 31  0  0  1  0  0  0  0  0999 V2000
    0.0000    0.0000    0.0000 O   0  0  0  0  0  0  0  0  0  0  0  0
    1.3000   -0.7480    0.0000 C   0  0  3  0  0  0  0  0  0  0  0  0
    1.3030   -2.2480    0.0000 C   0  0  0  0  0  0  0  0  0  0  0  0
    2.6030   -2.9960    0.0000 C   0  0  3  0  0  0  0  0  0  0  0  0
    2.6060   -4.4960    0.0000 O   0  0  0  0  0  0  0  0  0  0  0  0
    3.9010   -2.2430    0.0000 C   0  0  0  0  0  0  0  0  0  0  0  0
    3.8980   -0.7430    0.0000 C   0  0  0  0  0  0  0  0  0  0  0  0
    5.1960    0.0090    0.0000 C   0  0  0  0  0  0  0  0  0  0  0  0
    6.4960   -0.7390    0.0000 C   0  0  0  0  0  0  0  0  0  0  0  0
    7.7940    0.0130    0.0000 C   0  0  0  0  0  0  0  0  0  0  0  0
    9.0950   -0.7340    0.0000 C   0  0  3  0  0  0  0  0  0  0  0  0
    9.4090   -2.2010    0.0000 C   0  0  0  0  0  0  0  0  0  0  0  0
   10.9010   -2.3550    0.0000 C   0  0  0  0  0  0  0  0  0  0  0  0
   11.5090   -0.9840    0.0000 C   0  0  3  0  0  0  0  0  0  0  0  0
   12.9750   -0.6690    0.0000 C   0  0  3  0  0  0  0  0  0  0  0  0
   13.9810   -1.7820    0.0000 C   0  0  0  0  0  0  0  0  0  0  0  0
   15.4480   -1.4680    0.0000 C   0  0  0  0  0  0  0  0  0  0  0  0
   16.4530   -2.5810    0.0000 C   0  0  0  0  0  0  0  0  0  0  0  0
   17.9200   -2.2670    0.0000 C   0  0  0  0  0  0  0  0  0  0  0  0
   18.9260   -3.3800    0.0000 C   0  0  0  0  0  0  0  0  0  0  0  0
   18.3810   -0.8390    0.0000 C   0  0  0  0  0  0  0  0  0  0  0  0
   13.4360    0.7580    0.0000 C   0  0  0  0  0  0  0  0  0  0  0  0
   10.3920    0.0180    0.0000 C   0  0  3  0  0  0  0  0  0  0  0  0
   10.3900    1.5180    0.0000 C   0  0  0  0  0  0  0  0  0  0  0  0
    9.0890    2.2660    0.0000 C   0  0  0  0  0  0  0  0  0  0  0  0
    7.7920    1.5130    0.0000 C   0  0  0  0  0  0  0  0  0  0  0  0
   11.7620    0.6300    0.0000 C   0  0  0  0  0  0  0  0  0  0  0  0
    2.5980    0.0040    0.0000 C   0  0  0  0  0  0  0  0  0  0  0  0
    2.5950    1.5040    0.0000 C   0  0  0  0  0  0  0  0  0  0  0  0
  1  2  1  0  0  0  0
  2  3  1  0  0  0  0
  2 28  1  0  0  0  0
  3  4  1  0  0  0  0
  4  5  1  0  0  0  0
  4  6  1  0  0  0  0
  6  7  1  0  0  0  0
  7  8  2  3  0  0  0
  7 28  1  0  0  0  0
  8  9  1  0  0  0  0
  9 10  2  0  0  0  0
 10 11  1  0  0  0  0
 10 26  1  0  0  0  0
 11 12  1  0  0  0  0
 11 23  1  0  0  0  0
 12 13  1  0  0  0  0
 13 14  1  0  0  0  0
 14 15  1  0  0  0  0
 14 23  1  0  0  0  0
 15 16  1  0  0  0  0
 15 22  1  0  0  0  0
 16 17  1  0  0  0  0
 17 18  1  0  0  0  0
 18 19  1  0  0  0  0
 19 20  1  0  0  0  0
 19 21  1  0  0  0  0
 23 24  1  0  0  0  0
 23 27  1  0  0  0  0
 24 25  1  0  0  0  0
 25 26  1  0  0  0  0
 28 29  2  0  0  0  0
M  END
>  <Index>
39

>  <ID>
HT0095

>  <class>
0

>  <apol>
78.462891

>  <ast_fraglike>
0

>  <ast_fraglike_ext>
0

>  <ast_violation>
2

>  <ast_violation_ext>
3

>  <a_acc>
2

>  <a_acid>
0

>  <a_aro>
0

>  <a_base>
0

>  <a_count>
73

>  <a_don>
2

>  <a_donacc>
4

>  <a_heavy>
29

>  <a_hyd>
27

>  <a_IC>
81.260239

>  <a_ICM>
1.1131539

>  <a_nB>
0

>  <a_nBr>
0

>  <a_nC>
27

>  <a_nCl>
0

>  <a_nF>
0

>  <a_nH>
44

>  <a_nI>
0

>  <a_nN>
0

>  <a_nO>
2

>  <a_nP>
0

>  <a_nS>
0

>  <balabanJ>
1.5639728

>  <BCUT_PEOE_0>
-2.8437076

>  <BCUT_PEOE_1>
-0.47354487

>  <BCUT_PEOE_2>
0.5629617

>  <BCUT_PEOE_3>
2.8976102

>  <BCUT_SLOGP_0>
-2.7394288

>  <BCUT_SLOGP_1>
-0.45513925

>  <BCUT_SLOGP_2>
0.4780066

>  <BCUT_SLOGP_3>
3.0058086

>  <BCUT_SMR_0>
-2.5849183

>  <BCUT_SMR_1>
-0.39032769

>  <BCUT_SMR_2>
0.66128391

>  <BCUT_SMR_3>
3.1594446

>  <bpol>
48.101109

>  <b_1rotN>
6

>  <b_1rotR>
0.19354838

>  <b_ar>
0

>  <b_count>
75

>  <b_double>
3

>  <b_heavy>
31

>  <b_max1len>
8

>  <b_rotN>
6

>  <b_rotR>
0.19354838

>  <b_single>
72

>  <b_triple>
0

>  <chi0>
21.181435

>  <chi0v>
19.291405

>  <chi0v_C>
18.396976

>  <chi0_C>
19.181435

>  <chi1>
13.719069

>  <chi1v>
12.169118

>  <chi1v_C>
11.652719

>  <chi1_C>
12.564369

>  <chiral>
6

>  <chiral_u>
6

>  <density>
0.63480401

>  <diameter>
15

>  <FCharge>
0

>  <GCUT_PEOE_0>
-0.80799884

>  <GCUT_PEOE_1>
-0.32855743

>  <GCUT_PEOE_2>
0.03765586

>  <GCUT_PEOE_3>
3.2217429

>  <GCUT_SLOGP_0>
-0.87889051

>  <GCUT_SLOGP_1>
-0.27420196

>  <GCUT_SLOGP_2>
-0.0081246402

>  <GCUT_SLOGP_3>
3.3368614

>  <GCUT_SMR_0>
-0.54183638

>  <GCUT_SMR_1>
-0.21160081

>  <GCUT_SMR_2>
0.14165802

>  <GCUT_SMR_3>
3.4549921

>  <Kier1>
23.658689

>  <Kier2>
10.08

>  <Kier3>
5.4375181

>  <KierA1>
21.757544

>  <KierA2>
9.2412024

>  <KierA3>
4.973639

>  <KierFlex>
6.9333053

>  <lip_acc>
2

>  <lip_don>
2

>  <lip_druglike>
1

>  <lip_violation>
1

>  <logP(o/w)>
6.5349998

>  <logS>
-9.7473698

>  <mr>
12.126488

>  <mutagenic>
0

>  <nmol>
1

>  <opr_brigid>
19

>  <opr_leadlike>
1

>  <opr_nring>
3

>  <opr_nrot>
9

>  <opr_violation>
1

>  <PC+>
0

>  <PC->
0

>  <PEOE_PC+>
1.8982164

>  <PEOE_PC->
-1.8982164

>  <PEOE_RPC+>
0.1107524

>  <PEOE_RPC->
0.2061763

>  <PEOE_VSA+0>
162.2552

>  <PEOE_VSA+1>
35.402172

>  <PEOE_VSA+2>
0

>  <PEOE_VSA+3>
0

>  <PEOE_VSA+4>
20.648346

>  <PEOE_VSA+5>
0

>  <PEOE_VSA+6>
0

>  <PEOE_VSA-0>
56.624958

>  <PEOE_VSA-1>
150.11427

>  <PEOE_VSA-2>
0

>  <PEOE_VSA-3>
0

>  <PEOE_VSA-4>
0

>  <PEOE_VSA-5>
0

>  <PEOE_VSA-6>
15.535081

>  <PEOE_VSA_FHYD>
0.9178732

>  <PEOE_VSA_FNEG>
0.50450379

>  <PEOE_VSA_FPNEG>
0.035260517

>  <PEOE_VSA_FPOL>
0.082126796

>  <PEOE_VSA_FPOS>
0.49549618

>  <PEOE_VSA_FPPOS>
0.046866275

>  <PEOE_VSA_HYD>
404.39661

>  <PEOE_VSA_NEG>
222.27431

>  <PEOE_VSA_PNEG>
15.535081

>  <PEOE_VSA_POL>
36.183426

>  <PEOE_VSA_POS>
218.30573

>  <PEOE_VSA_PPOS>
20.648346

>  <petitjean>
0.46666667

>  <petitjeanSC>
0.875

>  <Q_PC+>
0

>  <Q_PC->
0

>  <Q_RPC+>
0

>  <Q_RPC->
0

>  <Q_VSA_FHYD>
1

>  <Q_VSA_FNEG>
0

>  <Q_VSA_FPNEG>
0

>  <Q_VSA_FPOL>
0

>  <Q_VSA_FPOS>
1

>  <Q_VSA_FPPOS>
0

>  <Q_VSA_HYD>
440.58005

>  <Q_VSA_NEG>
0

>  <Q_VSA_PNEG>
0

>  <Q_VSA_POL>
0

>  <Q_VSA_POS>
440.58005

>  <Q_VSA_PPOS>
0

>  <radius>
8

>  <reactive>
0

>  <rings>
3

>  <RPC+>
0

>  <RPC->
0

>  <rsynth>
0

>  <SlogP>
6.5897999

>  <SlogP_VSA0>
50.770454

>  <SlogP_VSA1>
0

>  <SlogP_VSA2>
12.937299

>  <SlogP_VSA3>
0

>  <SlogP_VSA4>
17.643185

>  <SlogP_VSA5>
9.5567245

>  <SlogP_VSA6>
0

>  <SlogP_VSA7>
35.286369

>  <SlogP_VSA8>
188.68405

>  <SlogP_VSA9>
165.40485

>  <SMR>
12.25786

>  <SMR_VSA0>
0

>  <SMR_VSA1>
50.770454

>  <SMR_VSA2>
17.643185

>  <SMR_VSA3>
22.494022

>  <SMR_VSA4>
0

>  <SMR_VSA5>
223.97043

>  <SMR_VSA6>
0

>  <SMR_VSA7>
165.40485

>  <TPSA>
40.459999

>  <VAdjEq>
0.3796615

>  <VAdjMa>
5.9541965

>  <VDistEq>
3.6857693

>  <VDistMa>
9.4065886

>  <vdw_area>
440.58005

>  <vdw_vol>
631.13495

>  <vsa_acc>
0

>  <vsa_acid>
0

>  <vsa_base>
0

>  <vsa_don>
0

>  <vsa_hyd>
369.121

>  <vsa_other>
0

>  <vsa_pol>
27.133842

>  <Weight>
400.647

>  <weinerPath>
2426

>  <weinerPol>
48

>  <zagreb>
152

$$$$