Oc1cc(ccc1O)CCN
  MOE2013           2D

 11 11  0  0  0  0  0  0  0  0999 V2000
    0.0000    0.0000    0.0000 O   0  0  0  0  0  0  0  0  0  0  0  0
    1.2970    0.7530    0.0000 C   0  0  0  0  0  0  0  0  0  0  0  0
    2.5980    0.0050    0.0000 C   0  0  0  0  0  0  0  0  0  0  0  0
    3.8960    0.7580    0.0000 C   0  0  0  0  0  0  0  0  0  0  0  0
    3.8920    2.2580    0.0000 C   0  0  0  0  0  0  0  0  0  0  0  0
    2.5920    3.0050    0.0000 C   0  0  0  0  0  0  0  0  0  0  0  0
    1.2940    2.2530    0.0000 C   0  0  0  0  0  0  0  0  0  0  0  0
   -0.0060    3.0000    0.0000 O   0  0  0  0  0  0  0  0  0  0  0  0
    5.1960    0.0110    0.0000 C   0  0  0  0  0  0  0  0  0  0  0  0
    6.4940    0.7630    0.0000 C   0  0  0  0  0  0  0  0  0  0  0  0
    7.7940    0.0160    0.0000 N   0  0  0  0  0  0  0  0  0  0  0  0
  1  2  1  0  0  0  0
  2  3  1  0  0  0  0
  2  7  2  0  0  0  0
  3  4  2  0  0  0  0
  4  5  1  0  0  0  0
  4  9  1  0  0  0  0
  5  6  2  0  0  0  0
  6  7  1  0  0  0  0
  7  8  1  0  0  0  0
  9 10  1  0  0  0  0
 10 11  1  0  0  0  0
M  END
>  <Index>
345

>  <ID>
HT0709

>  <class>
0

>  <apol>
24.118723

>  <ast_fraglike>
1

>  <ast_fraglike_ext>
1

>  <ast_violation>
0

>  <ast_violation_ext>
0

>  <a_acc>
3

>  <a_acid>
0

>  <a_aro>
6

>  <a_base>
0

>  <a_count>
22

>  <a_don>
3

>  <a_donacc>
6

>  <a_heavy>
11

>  <a_hyd>
8

>  <a_IC>
34.053749

>  <a_ICM>
1.5478976

>  <a_nB>
0

>  <a_nBr>
0

>  <a_nC>
8

>  <a_nCl>
0

>  <a_nF>
0

>  <a_nH>
11

>  <a_nI>
0

>  <a_nN>
1

>  <a_nO>
2

>  <a_nP>
0

>  <a_nS>
0

>  <balabanJ>
2.3101289

>  <BCUT_PEOE_0>
-2.4812517

>  <BCUT_PEOE_1>
-0.75645959

>  <BCUT_PEOE_2>
0.80008495

>  <BCUT_PEOE_3>
2.417254

>  <BCUT_SLOGP_0>
-2.6658361

>  <BCUT_SLOGP_1>
-0.68841684

>  <BCUT_SLOGP_2>
0.8201108

>  <BCUT_SLOGP_3>
2.4668438

>  <BCUT_SMR_0>
-2.2078369

>  <BCUT_SMR_1>
-0.59403539

>  <BCUT_SMR_2>
0.94868475

>  <BCUT_SMR_3>
2.6908786

>  <bpol>
11.365277

>  <b_1rotN>
2

>  <b_1rotR>
0.18181819

>  <b_ar>
6

>  <b_count>
22

>  <b_double>
0

>  <b_heavy>
11

>  <b_max1len>
4

>  <b_rotN>
2

>  <b_rotR>
0.18181819

>  <b_single>
16

>  <b_triple>
0

>  <chi0>
8.2675848

>  <chi0v>
6.118042

>  <chi0v_C>
4.6462646

>  <chi0_C>
5.2675848

>  <chi1>
5.236382

>  <chi1v>
3.4470491

>  <chi1v_C>
2.5915873

>  <chi1_C>
3.3745749

>  <chiral>
0

>  <chiral_u>
0

>  <density>
0.73136944

>  <diameter>
7

>  <FCharge>
0

>  <GCUT_PEOE_0>
-0.83923024

>  <GCUT_PEOE_1>
-0.45616448

>  <GCUT_PEOE_2>
0.1784725

>  <GCUT_PEOE_3>
2.1893551

>  <GCUT_SLOGP_0>
-1.3632277

>  <GCUT_SLOGP_1>
-0.31517491

>  <GCUT_SLOGP_2>
0.16547732

>  <GCUT_SLOGP_3>
2.3205357

>  <GCUT_SMR_0>
-0.50854105

>  <GCUT_SMR_1>
-0.25213388

>  <GCUT_SMR_2>
0.28132838

>  <GCUT_SMR_3>
2.461899

>  <Kier1>
9.090909

>  <Kier2>
4.1326532

>  <Kier3>
2.5

>  <KierA1>
7.1800485

>  <KierA2>
3.1784728

>  <KierA3>
1.8774369

>  <KierFlex>
2.0746899

>  <lip_acc>
3

>  <lip_don>
4

>  <lip_druglike>
1

>  <lip_violation>
0

>  <logP(o/w)>
0.66900003

>  <logS>
-0.38736999

>  <mr>
4.275435

>  <mutagenic>
0

>  <nmol>
1

>  <opr_brigid>
6

>  <opr_leadlike>
1

>  <opr_nring>
1

>  <opr_nrot>
2

>  <opr_violation>
0

>  <PC+>
0

>  <PC->
0

>  <PEOE_PC+>
1.2172136

>  <PEOE_PC->
-1.2172136

>  <PEOE_RPC+>
0.17862244

>  <PEOE_RPC->
0.29351839

>  <PEOE_VSA+0>
17.061544

>  <PEOE_VSA+1>
12.796158

>  <PEOE_VSA+2>
34.155064

>  <PEOE_VSA+3>
0

>  <PEOE_VSA+4>
20.648346

>  <PEOE_VSA+5>
0

>  <PEOE_VSA+6>
0

>  <PEOE_VSA-0>
48.611984

>  <PEOE_VSA-1>
12.254904

>  <PEOE_VSA-2>
0

>  <PEOE_VSA-3>
0

>  <PEOE_VSA-4>
0

>  <PEOE_VSA-5>
0

>  <PEOE_VSA-6>
22.186199

>  <PEOE_VSA_FHYD>
0.74459797

>  <PEOE_VSA_FNEG>
0.49520606

>  <PEOE_VSA_FPNEG>
0.13228576

>  <PEOE_VSA_FPOL>
0.25540203

>  <PEOE_VSA_FPOS>
0.50479394

>  <PEOE_VSA_FPPOS>
0.12311626

>  <PEOE_VSA_HYD>
124.87965

>  <PEOE_VSA_NEG>
83.053093

>  <PEOE_VSA_PNEG>
22.186199

>  <PEOE_VSA_POL>
42.834545

>  <PEOE_VSA_POS>
84.66111

>  <PEOE_VSA_PPOS>
20.648346

>  <petitjean>
0.42857143

>  <petitjeanSC>
0.75

>  <Q_PC+>
0

>  <Q_PC->
0

>  <Q_RPC+>
0

>  <Q_RPC->
0

>  <Q_VSA_FHYD>
1

>  <Q_VSA_FNEG>
0

>  <Q_VSA_FPNEG>
0

>  <Q_VSA_FPOL>
0

>  <Q_VSA_FPOS>
1

>  <Q_VSA_FPPOS>
0

>  <Q_VSA_HYD>
167.7142

>  <Q_VSA_NEG>
0

>  <Q_VSA_PNEG>
0

>  <Q_VSA_POL>
0

>  <Q_VSA_POS>
167.7142

>  <Q_VSA_PPOS>
0

>  <radius>
4

>  <reactive>
0

>  <rings>
1

>  <RPC+>
0

>  <RPC->
0

>  <rsynth>
1

>  <SlogP>
0.59897

>  <SlogP_VSA0>
83.667641

>  <SlogP_VSA1>
0

>  <SlogP_VSA2>
0

>  <SlogP_VSA3>
18.439579

>  <SlogP_VSA4>
3.185575

>  <SlogP_VSA5>
18.868406

>  <SlogP_VSA6>
0

>  <SlogP_VSA7>
52.929554

>  <SlogP_VSA8>
0

>  <SlogP_VSA9>
10.486856

>  <SMR>
4.2529998

>  <SMR_VSA0>
0

>  <SMR_VSA1>
50.770454

>  <SMR_VSA2>
0

>  <SMR_VSA3>
13.672431

>  <SMR_VSA4>
32.897186

>  <SMR_VSA5>
71.797958

>  <SMR_VSA6>
18.439579

>  <SMR_VSA7>
0

>  <TPSA>
66.480003

>  <VAdjEq>
0.68403846

>  <VAdjMa>
4.4594316

>  <VDistEq>
2.5117786

>  <VDistMa>
6.5841622

>  <vdw_area>
167.7142

>  <vdw_vol>
209.44408

>  <vsa_acc>
0

>  <vsa_acid>
0

>  <vsa_base>
0

>  <vsa_don>
0

>  <vsa_hyd>
102.65907

>  <vsa_other>
0

>  <vsa_pol>
44.876331

>  <Weight>
153.181

>  <weinerPath>
160

>  <weinerPol>
13

>  <zagreb>
50

$$$$