s1cccc1CC(=C/c1n(Cc2ccc(cc2)C(O)=O)c(nc1)CCCC)C(O)=O
  MOE2013           2D

 30 32  0  0  0  0  0  0  0  0999 V2000
    0.0000    0.0000    0.0000 S   0  0  0  0  0  0  0  0  0  0  0  0
   -1.4430   -0.4090    0.0000 C   0  0  0  0  0  0  0  0  0  0  0  0
   -1.5000   -1.9080    0.0000 C   0  0  0  0  0  0  0  0  0  0  0  0
   -0.0920   -2.4250    0.0000 C   0  0  0  0  0  0  0  0  0  0  0  0
    0.8350   -1.2460    0.0000 C   0  0  0  0  0  0  0  0  0  0  0  0
    2.3340   -1.3030    0.0000 C   0  0  0  0  0  0  0  0  0  0  0  0
    3.0350   -2.6290    0.0000 C   0  0  0  0  0  0  0  0  0  0  0  0
    4.5340   -2.6860    0.0000 C   0  0  0  0  0  0  0  0  0  0  0  0
    5.3320   -1.4160    0.0000 C   0  0  0  0  0  0  0  0  0  0  0  0
    6.8290   -1.3160    0.0000 N   0  0  0  0  0  0  0  0  0  0  0  0
    7.7900   -2.4670    0.0000 C   0  0  0  0  0  0  0  0  0  0  0  0
    9.2680   -2.2110    0.0000 C   0  0  0  0  0  0  0  0  0  0  0  0
   10.2280   -3.3630    0.0000 C   0  0  0  0  0  0  0  0  0  0  0  0
   11.7060   -3.1070    0.0000 C   0  0  0  0  0  0  0  0  0  0  0  0
   12.2230   -1.6990    0.0000 C   0  0  0  0  0  0  0  0  0  0  0  0
   11.2630   -0.5470    0.0000 C   0  0  0  0  0  0  0  0  0  0  0  0
    9.7850   -0.8030    0.0000 C   0  0  0  0  0  0  0  0  0  0  0  0
   13.7010   -1.4420    0.0000 C   0  0  0  0  0  0  0  0  0  0  0  0
   14.6620   -2.5940    0.0000 O   0  0  0  0  0  0  0  0  0  0  0  0
   14.2180   -0.0340    0.0000 O   0  0  0  0  0  0  0  0  0  0  0  0
    7.1960    0.1390    0.0000 C   0  0  0  0  0  0  0  0  0  0  0  0
    5.9260    0.9370    0.0000 N   0  0  0  0  0  0  0  0  0  0  0  0
    4.7740   -0.0230    0.0000 C   0  0  0  0  0  0  0  0  0  0  0  0
    8.5880    0.6970    0.0000 C   0  0  0  0  0  0  0  0  0  0  0  0
    8.8010    2.1820    0.0000 C   0  0  0  0  0  0  0  0  0  0  0  0
   10.1930    2.7400    0.0000 C   0  0  0  0  0  0  0  0  0  0  0  0
   10.4060    4.2240    0.0000 C   0  0  0  0  0  0  0  0  0  0  0  0
    2.2360   -3.8990    0.0000 C   0  0  0  0  0  0  0  0  0  0  0  0
    2.9360   -5.2250    0.0000 O   0  0  0  0  0  0  0  0  0  0  0  0
    0.7370   -3.8420    0.0000 O   0  0  0  0  0  0  0  0  0  0  0  0
  1  2  1  0  0  0  0
  1  5  1  0  0  0  0
  2  3  2  0  0  0  0
  3  4  1  0  0  0  0
  4  5  2  0  0  0  0
  5  6  1  0  0  0  0
  6  7  1  0  0  0  0
  7  8  2  3  0  0  0
  7 28  1  0  0  0  0
  8  9  1  0  0  0  0
  9 10  1  0  0  0  0
  9 23  2  0  0  0  0
 10 11  1  0  0  0  0
 10 21  1  0  0  0  0
 11 12  1  0  0  0  0
 12 13  1  0  0  0  0
 12 17  2  0  0  0  0
 13 14  2  0  0  0  0
 14 15  1  0  0  0  0
 15 16  2  0  0  0  0
 15 18  1  0  0  0  0
 16 17  1  0  0  0  0
 18 19  1  0  0  0  0
 18 20  2  0  0  0  0
 21 22  2  0  0  0  0
 21 24  1  0  0  0  0
 22 23  1  0  0  0  0
 24 25  1  0  0  0  0
 25 26  1  0  0  0  0
 26 27  1  0  0  0  0
 28 29  1  0  0  0  0
 28 30  2  0  0  0  0
M  END
>  <Index>
381

>  <ID>
HT0773

>  <class>
0

>  <apol>
64.791031

>  <ast_fraglike>
0

>  <ast_fraglike_ext>
0

>  <ast_violation>
4

>  <ast_violation_ext>
5

>  <a_acc>
5

>  <a_acid>
0

>  <a_aro>
16

>  <a_base>
0

>  <a_count>
54

>  <a_don>
4

>  <a_donacc>
9

>  <a_heavy>
30

>  <a_hyd>
21

>  <a_IC>
86.682899

>  <a_ICM>
1.6052389

>  <a_nB>
0

>  <a_nBr>
0

>  <a_nC>
23

>  <a_nCl>
0

>  <a_nF>
0

>  <a_nH>
24

>  <a_nI>
0

>  <a_nN>
2

>  <a_nO>
4

>  <a_nP>
0

>  <a_nS>
1

>  <balabanJ>
1.5940672

>  <BCUT_PEOE_0>
-2.5789454

>  <BCUT_PEOE_1>
-0.61402726

>  <BCUT_PEOE_2>
0.66438293

>  <BCUT_PEOE_3>
2.5416336

>  <BCUT_SLOGP_0>
-2.4638481

>  <BCUT_SLOGP_1>
-0.51322871

>  <BCUT_SLOGP_2>
0.68711859

>  <BCUT_SLOGP_3>
2.665637

>  <BCUT_SMR_0>
-2.3356392

>  <BCUT_SMR_1>
-0.43888736

>  <BCUT_SMR_2>
0.8307777

>  <BCUT_SMR_3>
2.7917757

>  <bpol>
33.732967

>  <b_1rotN>
10

>  <b_1rotR>
0.3125

>  <b_ar>
16

>  <b_count>
56

>  <b_double>
3

>  <b_heavy>
32

>  <b_max1len>
5

>  <b_rotN>
10

>  <b_rotR>
0.3125

>  <b_single>
37

>  <b_triple>
0

>  <chi0>
21.509861

>  <chi0v>
17.561783

>  <chi0v_C>
13.731687

>  <chi0_C>
15.518297

>  <chi1>
14.473565

>  <chi1v>
10.684243

>  <chi1v_C>
7.2640548

>  <chi1_C>
9.2727528

>  <chiral>
0

>  <chiral_u>
0

>  <density>
0.75550079

>  <diameter>
14

>  <FCharge>
0

>  <GCUT_PEOE_0>
-0.84232253

>  <GCUT_PEOE_1>
-0.41569808

>  <GCUT_PEOE_2>
0.10566675

>  <GCUT_PEOE_3>
2.6784856

>  <GCUT_SLOGP_0>
-0.87169158

>  <GCUT_SLOGP_1>
-0.294144

>  <GCUT_SLOGP_2>
0.15752816

>  <GCUT_SLOGP_3>
2.7750604

>  <GCUT_SMR_0>
-0.52913183

>  <GCUT_SMR_1>
-0.22327141

>  <GCUT_SMR_2>
0.24238902

>  <GCUT_SMR_3>
2.9592657

>  <Kier1>
24.638672

>  <Kier2>
12.296376

>  <Kier3>
7.2592592

>  <KierA1>
19.092209

>  <KierA2>
9.4390249

>  <KierA3>
5.5353265

>  <KierFlex>
6.0070615

>  <lip_acc>
6

>  <lip_don>
2

>  <lip_druglike>
1

>  <lip_violation>
1

>  <logP(o/w)>
4.7930002

>  <logS>
-5.11868

>  <mr>
12.014577

>  <mutagenic>
0

>  <nmol>
1

>  <opr_brigid>
17

>  <opr_leadlike>
1

>  <opr_nring>
3

>  <opr_nrot>
10

>  <opr_violation>
1

>  <PC+>
0

>  <PC->
0

>  <PEOE_PC+>
2.5261981

>  <PEOE_PC->
-2.5261981

>  <PEOE_RPC+>
0.11528627

>  <PEOE_RPC->
0.12972789

>  <PEOE_VSA+0>
77.495346

>  <PEOE_VSA+1>
66.099327

>  <PEOE_VSA+2>
11.190562

>  <PEOE_VSA+3>
19.760618

>  <PEOE_VSA+4>
20.648346

>  <PEOE_VSA+5>
29.416998

>  <PEOE_VSA+6>
0

>  <PEOE_VSA-0>
56.375877

>  <PEOE_VSA-1>
80.653206

>  <PEOE_VSA-2>
14.230966

>  <PEOE_VSA-3>
0

>  <PEOE_VSA-4>
5.6825762

>  <PEOE_VSA-5>
27.133842

>  <PEOE_VSA-6>
15.535081

>  <PEOE_VSA_FHYD>
0.76800668

>  <PEOE_VSA_FNEG>
0.47053477

>  <PEOE_VSA_FPNEG>
0.11397667

>  <PEOE_VSA_FPOL>
0.23199332

>  <PEOE_VSA_FPOS>
0.52946526

>  <PEOE_VSA_FPPOS>
0.11801664

>  <PEOE_VSA_HYD>
325.80591

>  <PEOE_VSA_NEG>
199.61156

>  <PEOE_VSA_PNEG>
48.351498

>  <PEOE_VSA_POL>
98.41684

>  <PEOE_VSA_POS>
224.61121

>  <PEOE_VSA_PPOS>
50.065342

>  <petitjean>
0.5

>  <petitjeanSC>
1

>  <Q_PC+>
0

>  <Q_PC->
0

>  <Q_RPC+>
0

>  <Q_RPC->
0

>  <Q_VSA_FHYD>
1

>  <Q_VSA_FNEG>
0

>  <Q_VSA_FPNEG>
0

>  <Q_VSA_FPOL>
0

>  <Q_VSA_FPOS>
1

>  <Q_VSA_FPPOS>
0

>  <Q_VSA_HYD>
424.22275

>  <Q_VSA_NEG>
0

>  <Q_VSA_PNEG>
0

>  <Q_VSA_POL>
0

>  <Q_VSA_POS>
424.22275

>  <Q_VSA_PPOS>
0

>  <radius>
7

>  <reactive>
0

>  <rings>
3

>  <RPC+>
0

>  <RPC->
0

>  <rsynth>
0.60000002

>  <SlogP>
5.0107398

>  <SlogP_VSA0>
0

>  <SlogP_VSA1>
34.175552

>  <SlogP_VSA2>
23.862217

>  <SlogP_VSA3>
50.770454

>  <SlogP_VSA4>
36.676434

>  <SlogP_VSA5>
40.922386

>  <SlogP_VSA6>
0

>  <SlogP_VSA7>
138.88948

>  <SlogP_VSA8>
55.379993

>  <SlogP_VSA9>
83.043282

>  <SMR>
11.71831

>  <SMR_VSA0>
47.724434

>  <SMR_VSA1>
18.684622

>  <SMR_VSA2>
50.770454

>  <SMR_VSA3>
15.999794

>  <SMR_VSA4>
0

>  <SMR_VSA5>
232.80267

>  <SMR_VSA6>
33.134113

>  <SMR_VSA7>
64.603706

>  <TPSA>
92.419998

>  <VAdjEq>
0.37005648

>  <VAdjMa>
6

>  <VDistEq>
3.6191566

>  <VDistMa>
9.5417299

>  <vdw_area>
424.22275

>  <vdw_vol>
561.90674

>  <vsa_acc>
5.6825762

>  <vsa_acid>
0

>  <vsa_base>
0

>  <vsa_don>
0

>  <vsa_hyd>
298.95584

>  <vsa_other>
40.607563

>  <vsa_pol>
59.95026

>  <Weight>
424.521

>  <weinerPath>
2615

>  <weinerPol>
41

>  <zagreb>
150

$$$$