S(O)(=O)(=O)C(CC(OCC(CCCC)CC)=O)C(OCC(CCCC)CC)=O
  MOE2013           2D

 28 27  0  0  1  0  0  0  0  0999 V2000
    0.0000    0.0000    0.0000 S   0  0  0  0  0  0  0  0  0  0  0  0
   -1.2940    0.7580    0.0000 O   0  0  0  0  0  0  0  0  0  0  0  0
   -0.7580   -1.2940    0.0000 O   0  0  0  0  0  0  0  0  0  0  0  0
    0.7580    1.2940    0.0000 O   0  0  0  0  0  0  0  0  0  0  0  0
    1.2940   -0.7580    0.0000 C   0  0  3  0  0  0  0  0  0  0  0  0
    2.5980   -0.0170    0.0000 C   0  0  0  0  0  0  0  0  0  0  0  0
    3.8920   -0.7750    0.0000 C   0  0  0  0  0  0  0  0  0  0  0  0
    5.1960   -0.0330    0.0000 O   0  0  0  0  0  0  0  0  0  0  0  0
    6.4900   -0.7910    0.0000 C   0  0  0  0  0  0  0  0  0  0  0  0
    7.7940   -0.0500    0.0000 C   0  0  3  0  0  0  0  0  0  0  0  0
    7.8040    1.4500    0.0000 C   0  0  0  0  0  0  0  0  0  0  0  0
    9.1070    2.1920    0.0000 C   0  0  0  0  0  0  0  0  0  0  0  0
    9.1170    3.6920    0.0000 C   0  0  0  0  0  0  0  0  0  0  0  0
   10.4210    4.4340    0.0000 C   0  0  0  0  0  0  0  0  0  0  0  0
    9.0880   -0.8080    0.0000 C   0  0  0  0  0  0  0  0  0  0  0  0
    9.0790   -2.3080    0.0000 C   0  0  0  0  0  0  0  0  0  0  0  0
    3.8830   -2.2750    0.0000 O   0  0  0  0  0  0  0  0  0  0  0  0
    1.2850   -2.2580    0.0000 C   0  0  0  0  0  0  0  0  0  0  0  0
   -0.0190   -3.0000    0.0000 O   0  0  0  0  0  0  0  0  0  0  0  0
   -0.0290   -4.5000    0.0000 C   0  0  0  0  0  0  0  0  0  0  0  0
   -1.3320   -5.2420    0.0000 C   0  0  3  0  0  0  0  0  0  0  0  0
   -2.6270   -4.4830    0.0000 C   0  0  0  0  0  0  0  0  0  0  0  0
   -3.9300   -5.2250    0.0000 C   0  0  0  0  0  0  0  0  0  0  0  0
   -5.2250   -4.4670    0.0000 C   0  0  0  0  0  0  0  0  0  0  0  0
   -6.5280   -5.2090    0.0000 C   0  0  0  0  0  0  0  0  0  0  0  0
   -1.3420   -6.7420    0.0000 C   0  0  0  0  0  0  0  0  0  0  0  0
   -0.0480   -7.5000    0.0000 C   0  0  0  0  0  0  0  0  0  0  0  0
    2.5790   -3.0160    0.0000 O   0  0  0  0  0  0  0  0  0  0  0  0
  1  2  1  0  0  0  0
  1  3  2  0  0  0  0
  1  4  2  0  0  0  0
  1  5  1  0  0  0  0
  5  6  1  0  0  0  0
  5 18  1  0  0  0  0
  6  7  1  0  0  0  0
  7  8  1  0  0  0  0
  7 17  2  0  0  0  0
  8  9  1  0  0  0  0
  9 10  1  0  0  0  0
 10 11  1  0  0  0  0
 10 15  1  0  0  0  0
 11 12  1  0  0  0  0
 12 13  1  0  0  0  0
 13 14  1  0  0  0  0
 15 16  1  0  0  0  0
 18 19  1  0  0  0  0
 18 28  2  0  0  0  0
 19 20  1  0  0  0  0
 20 21  1  0  0  0  0
 21 22  1  0  0  0  0
 21 26  1  0  0  0  0
 22 23  1  0  0  0  0
 23 24  1  0  0  0  0
 24 25  1  0  0  0  0
 26 27  1  0  0  0  0
M  END
>  <Index>
341

>  <ID>
HT0704

>  <class>
0

>  <apol>
69.052132

>  <ast_fraglike>
0

>  <ast_fraglike_ext>
0

>  <ast_violation>
3

>  <ast_violation_ext>
5

>  <a_acc>
5

>  <a_acid>
0

>  <a_aro>
0

>  <a_base>
0

>  <a_count>
66

>  <a_don>
3

>  <a_donacc>
8

>  <a_heavy>
28

>  <a_hyd>
18

>  <a_IC>
93.418716

>  <a_ICM>
1.4154352

>  <a_nB>
0

>  <a_nBr>
0

>  <a_nC>
20

>  <a_nCl>
0

>  <a_nF>
0

>  <a_nH>
38

>  <a_nI>
0

>  <a_nN>
0

>  <a_nO>
7

>  <a_nP>
0

>  <a_nS>
1

>  <balabanJ>
4.6329894

>  <BCUT_PEOE_0>
-2.7207096

>  <BCUT_PEOE_1>
-0.30925071

>  <BCUT_PEOE_2>
0.22712086

>  <BCUT_PEOE_3>
2.7256837

>  <BCUT_SLOGP_0>
-2.6877122

>  <BCUT_SLOGP_1>
-0.38277477

>  <BCUT_SLOGP_2>
0.25485954

>  <BCUT_SLOGP_3>
2.784955

>  <BCUT_SMR_0>
-2.4776707

>  <BCUT_SMR_1>
-0.094761811

>  <BCUT_SMR_2>
0.2906335

>  <BCUT_SMR_3>
2.9406791

>  <bpol>
53.765865

>  <b_1rotN>
16

>  <b_1rotR>
0.5925926

>  <b_ar>
0

>  <b_count>
65

>  <b_double>
2

>  <b_heavy>
27

>  <b_max1len>
8

>  <b_rotN>
18

>  <b_rotR>
0.66666669

>  <b_single>
63

>  <b_triple>
0

>  <chi0>
21.57914

>  <chi0v>
18.631674

>  <chi0v_C>
14.510225

>  <chi0_C>
14.664926

>  <chi1>
13.187619

>  <chi1v>
11.97707

>  <chi1v_C>
8.3283939

>  <chi1_C>
8.4277468

>  <chiral>
3

>  <chiral_u>
3

>  <density>
0.73734021

>  <diameter>
17

>  <FCharge>
0

>  <GCUT_PEOE_0>
-0.79797477

>  <GCUT_PEOE_1>
-0.35528162

>  <GCUT_PEOE_2>
-0.047740355

>  <GCUT_PEOE_3>
2.7930832

>  <GCUT_SLOGP_0>
-0.90510362

>  <GCUT_SLOGP_1>
-0.29608512

>  <GCUT_SLOGP_2>
-0.0057525993

>  <GCUT_SLOGP_3>
2.8166161

>  <GCUT_SMR_0>
-0.53365105

>  <GCUT_SMR_1>
-0.14430711

>  <GCUT_SMR_2>
0.015542663

>  <GCUT_SMR_3>
2.9975212

>  <Kier1>
28

>  <Kier2>
15.788927

>  <Kier3>
13.040123

>  <KierA1>
27.693716

>  <KierA2>
15.609679

>  <KierA3>
12.888247

>  <KierFlex>
15.43893

>  <lip_acc>
7

>  <lip_don>
1

>  <lip_druglike>
1

>  <lip_violation>
0

>  <logP(o/w)>
5.0580001

>  <logS>
-5.8926101

>  <mr>
11.148978

>  <mutagenic>
0

>  <nmol>
1

>  <opr_brigid>
0

>  <opr_leadlike>
1

>  <opr_nring>
0

>  <opr_nrot>
16

>  <opr_violation>
1

>  <PC+>
0

>  <PC->
0

>  <PEOE_PC+>
2.603708

>  <PEOE_PC->
-2.603708

>  <PEOE_RPC+>
0.14007065

>  <PEOE_RPC->
0.12084305

>  <PEOE_VSA+0>
136.49236

>  <PEOE_VSA+1>
68.801086

>  <PEOE_VSA+2>
8.701313

>  <PEOE_VSA+3>
4.2653861

>  <PEOE_VSA+4>
0

>  <PEOE_VSA+5>
14.708499

>  <PEOE_VSA+6>
15.33951

>  <PEOE_VSA-0>
17.402626

>  <PEOE_VSA-1>
127.19859

>  <PEOE_VSA-2>
0

>  <PEOE_VSA-3>
0

>  <PEOE_VSA-4>
32.016521

>  <PEOE_VSA-5>
27.133842

>  <PEOE_VSA-6>
15.216393

>  <PEOE_VSA_FHYD>
0.77654588

>  <PEOE_VSA_FNEG>
0.4686051

>  <PEOE_VSA_FPNEG>
0.1591495

>  <PEOE_VSA_FPOL>
0.2234541

>  <PEOE_VSA_FPOS>
0.5313949

>  <PEOE_VSA_FPPOS>
0.064304613

>  <PEOE_VSA_HYD>
362.86136

>  <PEOE_VSA_NEG>
218.96797

>  <PEOE_VSA_PNEG>
74.36676

>  <PEOE_VSA_POL>
104.41476

>  <PEOE_VSA_POS>
248.30815

>  <PEOE_VSA_PPOS>
30.04801

>  <petitjean>
0.47058824

>  <petitjeanSC>
0.8888889

>  <Q_PC+>
0

>  <Q_PC->
0

>  <Q_RPC+>
0

>  <Q_RPC->
0

>  <Q_VSA_FHYD>
1

>  <Q_VSA_FNEG>
0

>  <Q_VSA_FPNEG>
0

>  <Q_VSA_FPOL>
0

>  <Q_VSA_FPOS>
1

>  <Q_VSA_FPPOS>
0

>  <Q_VSA_HYD>
467.27612

>  <Q_VSA_NEG>
0

>  <Q_VSA_PNEG>
0

>  <Q_VSA_POL>
0

>  <Q_VSA_POS>
467.27612

>  <Q_VSA_PPOS>
0

>  <radius>
9

>  <reactive>
0

>  <rings>
0

>  <RPC+>
0

>  <RPC->
0

>  <rsynth>
1

>  <SlogP>
3.5864

>  <SlogP_VSA0>
22.930752

>  <SlogP_VSA1>
63.662617

>  <SlogP_VSA2>
81.083313

>  <SlogP_VSA3>
41.852516

>  <SlogP_VSA4>
8.8215923

>  <SlogP_VSA5>
0

>  <SlogP_VSA6>
0

>  <SlogP_VSA7>
0

>  <SlogP_VSA8>
169.81564

>  <SlogP_VSA9>
133.30406

>  <SMR>
10.80736

>  <SMR_VSA0>
117.8959

>  <SMR_VSA1>
22.930752

>  <SMR_VSA2>
8.8215923

>  <SMR_VSA3>
2.7759552

>  <SMR_VSA4>
0

>  <SMR_VSA5>
169.81564

>  <SMR_VSA6>
57.343445

>  <SMR_VSA7>
141.88721

>  <TPSA>
106.97

>  <VAdjEq>
0.36172086

>  <VAdjMa>
5.7548876

>  <VDistEq>
3.7760129

>  <VDistMa>
9.3178797

>  <vdw_area>
467.27612

>  <vdw_vol>
573.11804

>  <vsa_acc>
27.133842

>  <vsa_acid>
0

>  <vsa_base>
0

>  <vsa_don>
0

>  <vsa_hyd>
312.62888

>  <vsa_other>
45.937294

>  <vsa_pol>
75.158623

>  <Weight>
422.58301

>  <weinerPath>
2411

>  <weinerPol>
36

>  <zagreb>
122

$$$$