O[C@H]1C[C@@H](O)[C@H](C=C[C@@H](O)CCCCC)[C@H]1CC=C/CCCC(O)=O
  MOE2013           2D

 25 25  0  0  1  0  0  0  0  0999 V2000
    0.0000    0.0000    0.0000 O   0  0  0  0  0  0  0  0  0  0  0  0
    1.4660   -0.3190    0.0000 C   0  0  1  0  0  0  0  0  0  0  0  0
    2.5850    0.6790    0.0000 C   0  0  0  0  0  0  0  0  0  0  0  0
    3.8810   -0.0770    0.0000 C   0  0  1  0  0  0  0  0  0  0  0  0
    5.2540    0.5260    0.0000 O   0  0  0  0  0  0  0  0  0  0  0  0
    3.5610   -1.5430    0.0000 C   0  0  2  0  0  0  0  0  0  0  0  0
    4.5600   -2.6630    0.0000 C   0  0  0  0  0  0  0  0  0  0  0  0
    6.0280   -2.3580    0.0000 C   0  0  0  0  0  0  0  0  0  0  0  0
    7.0270   -3.4780    0.0000 C   0  0  1  0  0  0  0  0  0  0  0  0
    6.5560   -4.9020    0.0000 O   0  0  0  0  0  0  0  0  0  0  0  0
    8.4950   -3.1730    0.0000 C   0  0  0  0  0  0  0  0  0  0  0  0
    9.4930   -4.2930    0.0000 C   0  0  0  0  0  0  0  0  0  0  0  0
   10.9620   -3.9880    0.0000 C   0  0  0  0  0  0  0  0  0  0  0  0
   11.9600   -5.1080    0.0000 C   0  0  0  0  0  0  0  0  0  0  0  0
   13.4290   -4.8030    0.0000 C   0  0  0  0  0  0  0  0  0  0  0  0
    2.0690   -1.6920    0.0000 C   0  0  1  0  0  0  0  0  0  0  0  0
    1.3130   -2.9880    0.0000 C   0  0  0  0  0  0  0  0  0  0  0  0
   -0.1870   -2.9800    0.0000 C   0  0  0  0  0  0  0  0  0  0  0  0
   -0.9440   -4.2760    0.0000 C   0  0  0  0  0  0  0  0  0  0  0  0
   -2.4440   -4.2680    0.0000 C   0  0  0  0  0  0  0  0  0  0  0  0
   -3.2000   -5.5630    0.0000 C   0  0  0  0  0  0  0  0  0  0  0  0
   -4.7000   -5.5560    0.0000 C   0  0  0  0  0  0  0  0  0  0  0  0
   -5.4570   -6.8510    0.0000 C   0  0  0  0  0  0  0  0  0  0  0  0
   -6.9570   -6.8440    0.0000 O   0  0  0  0  0  0  0  0  0  0  0  0
   -4.7130   -8.1540    0.0000 O   0  0  0  0  0  0  0  0  0  0  0  0
  2  1  1  1  0  0  0
  2  3  1  0  0  0  0
  2 16  1  0  0  0  0
  3  4  1  0  0  0  0
  4  5  1  1  0  0  0
  4  6  1  0  0  0  0
  6  7  1  6  0  0  0
  6 16  1  0  0  0  0
  7  8  2  3  0  0  0
  8  9  1  0  0  0  0
  9 10  1  6  0  0  0
  9 11  1  0  0  0  0
 11 12  1  0  0  0  0
 12 13  1  0  0  0  0
 13 14  1  0  0  0  0
 14 15  1  0  0  0  0
 16 17  1  1  0  0  0
 17 18  1  0  0  0  0
 18 19  2  3  0  0  0
 19 20  1  0  0  0  0
 20 21  1  0  0  0  0
 21 22  1  0  0  0  0
 22 23  1  0  0  0  0
 23 24  1  0  0  0  0
 23 25  2  0  0  0  0
M  END
>  <Index>
332

>  <ID>
HT0681

>  <class>
0

>  <apol>
61.880962

>  <ast_fraglike>
0

>  <ast_fraglike_ext>
0

>  <ast_violation>
4

>  <ast_violation_ext>
6

>  <a_acc>
5

>  <a_acid>
0

>  <a_aro>
0

>  <a_base>
0

>  <a_count>
59

>  <a_don>
5

>  <a_donacc>
10

>  <a_heavy>
25

>  <a_hyd>
19

>  <a_IC>
76.054001

>  <a_ICM>
1.2890508

>  <a_nB>
0

>  <a_nBr>
0

>  <a_nC>
20

>  <a_nCl>
0

>  <a_nF>
0

>  <a_nH>
34

>  <a_nI>
0

>  <a_nN>
0

>  <a_nO>
5

>  <a_nP>
0

>  <a_nS>
0

>  <balabanJ>
2.2749794

>  <BCUT_PEOE_0>
-2.6654589

>  <BCUT_PEOE_1>
-0.54997236

>  <BCUT_PEOE_2>
0.59398746

>  <BCUT_PEOE_3>
2.813014

>  <BCUT_SLOGP_0>
-2.6142144

>  <BCUT_SLOGP_1>
-0.52753991

>  <BCUT_SLOGP_2>
0.5732367

>  <BCUT_SLOGP_3>
2.8054461

>  <BCUT_SMR_0>
-2.4175112

>  <BCUT_SMR_1>
-0.42326269

>  <BCUT_SMR_2>
0.70868456

>  <BCUT_SMR_3>
3.0444024

>  <bpol>
38.127037

>  <b_1rotN>
12

>  <b_1rotR>
0.47999999

>  <b_ar>
0

>  <b_count>
59

>  <b_double>
3

>  <b_heavy>
25

>  <b_max1len>
8

>  <b_rotN>
12

>  <b_rotR>
0.47999999

>  <b_single>
56

>  <b_triple>
0

>  <chi0>
18.65649

>  <chi0v>
15.257216

>  <chi0v_C>
13.060114

>  <chi0_C>
13.656489

>  <chi1>
11.951596

>  <chi1v>
9.5458107

>  <chi1v_C>
8.343483

>  <chi1_C>
9.0648451

>  <chiral>
5

>  <chiral_u>
0

>  <density>
0.69229275

>  <diameter>
17

>  <FCharge>
0

>  <GCUT_PEOE_0>
-0.80112267

>  <GCUT_PEOE_1>
-0.38649663

>  <GCUT_PEOE_2>
0.082651168

>  <GCUT_PEOE_3>
2.8452389

>  <GCUT_SLOGP_0>
-0.8850857

>  <GCUT_SLOGP_1>
-0.32187343

>  <GCUT_SLOGP_2>
0.080043808

>  <GCUT_SLOGP_3>
2.8982053

>  <GCUT_SMR_0>
-0.53595865

>  <GCUT_SMR_1>
-0.2330125

>  <GCUT_SMR_2>
0.19506314

>  <GCUT_SMR_3>
3.0692081

>  <Kier1>
23.040001

>  <Kier2>
13.211238

>  <Kier3>
9.4824486

>  <KierA1>
20.787542

>  <KierA2>
11.86624

>  <KierA3>
8.4884672

>  <KierFlex>
9.8667984

>  <lip_acc>
5

>  <lip_don>
4

>  <lip_druglike>
1

>  <lip_violation>
0

>  <logP(o/w)>
2.6730001

>  <logS>
-3.03634

>  <mr>
9.8915815

>  <mutagenic>
0

>  <nmol>
1

>  <opr_brigid>
7

>  <opr_leadlike>
1

>  <opr_nring>
1

>  <opr_nrot>
13

>  <opr_violation>
1

>  <PC+>
0

>  <PC->
0

>  <PEOE_PC+>
2.4361482

>  <PEOE_PC->
-2.4361482

>  <PEOE_RPC+>
0.10656053

>  <PEOE_RPC->
0.1606622

>  <PEOE_VSA+0>
115.50651

>  <PEOE_VSA+1>
44.572487

>  <PEOE_VSA+2>
0

>  <PEOE_VSA+3>
0

>  <PEOE_VSA+4>
41.296692

>  <PEOE_VSA+5>
14.708499

>  <PEOE_VSA+6>
0

>  <PEOE_VSA-0>
34.805252

>  <PEOE_VSA-1>
93.871231

>  <PEOE_VSA-2>
0

>  <PEOE_VSA-3>
0

>  <PEOE_VSA-4>
0

>  <PEOE_VSA-5>
13.566921

>  <PEOE_VSA-6>
31.070162

>  <PEOE_VSA_FHYD>
0.74154377

>  <PEOE_VSA_FNEG>
0.44508108

>  <PEOE_VSA_FPNEG>
0.11463107

>  <PEOE_VSA_FPOL>
0.25845623

>  <PEOE_VSA_FPOS>
0.55491894

>  <PEOE_VSA_FPPOS>
0.14382514

>  <PEOE_VSA_HYD>
288.75549

>  <PEOE_VSA_NEG>
173.31357

>  <PEOE_VSA_PNEG>
44.637081

>  <PEOE_VSA_POL>
100.64227

>  <PEOE_VSA_POS>
216.08418

>  <PEOE_VSA_PPOS>
56.005188

>  <petitjean>
0.47058824

>  <petitjeanSC>
0.8888889

>  <Q_PC+>
0

>  <Q_PC->
0

>  <Q_RPC+>
0

>  <Q_RPC->
0

>  <Q_VSA_FHYD>
1

>  <Q_VSA_FNEG>
0

>  <Q_VSA_FPNEG>
0

>  <Q_VSA_FPOL>
0

>  <Q_VSA_FPOS>
1

>  <Q_VSA_FPPOS>
0

>  <Q_VSA_HYD>
389.39777

>  <Q_VSA_NEG>
0

>  <Q_VSA_PNEG>
0

>  <Q_VSA_POL>
0

>  <Q_VSA_POS>
389.39777

>  <Q_VSA_PPOS>
0

>  <radius>
9

>  <reactive>
0

>  <rings>
1

>  <RPC+>
0

>  <RPC->
0

>  <rsynth>
1

>  <SlogP>
3.0429001

>  <SlogP_VSA0>
76.155678

>  <SlogP_VSA1>
7.7454643

>  <SlogP_VSA2>
43.268166

>  <SlogP_VSA3>
25.385227

>  <SlogP_VSA4>
8.8215923

>  <SlogP_VSA5>
0

>  <SlogP_VSA6>
0

>  <SlogP_VSA7>
70.572739

>  <SlogP_VSA8>
169.81564

>  <SlogP_VSA9>
33.326015

>  <SMR>
9.8143196

>  <SMR_VSA0>
23.862217

>  <SMR_VSA1>
76.155678

>  <SMR_VSA2>
34.206818

>  <SMR_VSA3>
19.405949

>  <SMR_VSA4>
0

>  <SMR_VSA5>
240.38838

>  <SMR_VSA6>
7.7454643

>  <SMR_VSA7>
33.326015

>  <TPSA>
97.989998

>  <VAdjEq>
0.40217918

>  <VAdjMa>
5.643856

>  <VDistEq>
3.7943058

>  <VDistMa>
8.9595413

>  <vdw_area>
389.39777

>  <vdw_vol>
512.04779

>  <vsa_acc>
0

>  <vsa_acid>
0

>  <vsa_base>
0

>  <vsa_don>
0

>  <vsa_hyd>
264.71152

>  <vsa_other>
14.708499

>  <vsa_pol>
67.834602

>  <Weight>
354.487

>  <weinerPath>
1888

>  <weinerPol>
30

>  <zagreb>
112

$$$$