Clc1cc(Cc2cc(Cl)ccc2O)c(O)cc1
  MOE2013           2D

 17 18  0  0  0  0  0  0  0  0999 V2000
    0.0000    0.0000    0.0000 Cl  0  0  0  0  0  0  0  0  0  0  0  0
    0.0000   -1.5000    0.0000 C   0  0  0  0  0  0  0  0  0  0  0  0
   -1.2990   -2.2500    0.0000 C   0  0  0  0  0  0  0  0  0  0  0  0
   -1.2990   -3.7500    0.0000 C   0  0  0  0  0  0  0  0  0  0  0  0
   -2.5980   -4.5000    0.0000 C   0  0  0  0  0  0  0  0  0  0  0  0
   -3.8970   -3.7500    0.0000 C   0  0  0  0  0  0  0  0  0  0  0  0
   -3.8970   -2.2500    0.0000 C   0  0  0  0  0  0  0  0  0  0  0  0
   -5.1960   -1.5000    0.0000 C   0  0  0  0  0  0  0  0  0  0  0  0
   -5.1960    0.0000    0.0000 Cl  0  0  0  0  0  0  0  0  0  0  0  0
   -6.4950   -2.2500    0.0000 C   0  0  0  0  0  0  0  0  0  0  0  0
   -6.4950   -3.7500    0.0000 C   0  0  0  0  0  0  0  0  0  0  0  0
   -5.1960   -4.5000    0.0000 C   0  0  0  0  0  0  0  0  0  0  0  0
   -5.1960   -6.0000    0.0000 O   0  0  0  0  0  0  0  0  0  0  0  0
    0.0000   -4.5000    0.0000 C   0  0  0  0  0  0  0  0  0  0  0  0
    0.0000   -6.0000    0.0000 O   0  0  0  0  0  0  0  0  0  0  0  0
    1.2990   -3.7500    0.0000 C   0  0  0  0  0  0  0  0  0  0  0  0
    1.2990   -2.2500    0.0000 C   0  0  0  0  0  0  0  0  0  0  0  0
  1  2  1  0  0  0  0
  2  3  1  0  0  0  0
  2 17  2  0  0  0  0
  3  4  2  0  0  0  0
  4  5  1  0  0  0  0
  4 14  1  0  0  0  0
  5  6  1  0  0  0  0
  6  7  1  0  0  0  0
  6 12  2  0  0  0  0
  7  8  2  0  0  0  0
  8  9  1  0  0  0  0
  8 10  1  0  0  0  0
 10 11  2  0  0  0  0
 11 12  1  0  0  0  0
 12 13  1  0  0  0  0
 14 15  1  0  0  0  0
 14 16  2  0  0  0  0
 16 17  1  0  0  0  0
M  END
>  <Index>
311

>  <ID>
HT0644

>  <class>
0

>  <apol>
35.511929

>  <ast_fraglike>
0

>  <ast_fraglike_ext>
0

>  <ast_violation>
1

>  <ast_violation_ext>
1

>  <a_acc>
2

>  <a_acid>
0

>  <a_aro>
12

>  <a_base>
0

>  <a_count>
27

>  <a_don>
2

>  <a_donacc>
4

>  <a_heavy>
17

>  <a_hyd>
15

>  <a_IC>
43.056965

>  <a_ICM>
1.5947024

>  <a_nB>
0

>  <a_nBr>
0

>  <a_nC>
13

>  <a_nCl>
2

>  <a_nF>
0

>  <a_nH>
10

>  <a_nI>
0

>  <a_nN>
0

>  <a_nO>
2

>  <a_nP>
0

>  <a_nS>
0

>  <balabanJ>
1.9065025

>  <BCUT_PEOE_0>
-2.3515093

>  <BCUT_PEOE_1>
-0.65962362

>  <BCUT_PEOE_2>
0.670757

>  <BCUT_PEOE_3>
2.3433974

>  <BCUT_SLOGP_0>
-2.2330482

>  <BCUT_SLOGP_1>
-0.44098106

>  <BCUT_SLOGP_2>
0.86604178

>  <BCUT_SLOGP_3>
2.5000575

>  <BCUT_SMR_0>
-2.0604215

>  <BCUT_SMR_1>
-0.39238346

>  <BCUT_SMR_2>
0.93546164

>  <BCUT_SMR_3>
2.6420634

>  <bpol>
11.77207

>  <b_1rotN>
2

>  <b_1rotR>
0.11111111

>  <b_ar>
12

>  <b_count>
28

>  <b_double>
0

>  <b_heavy>
18

>  <b_max1len>
2

>  <b_rotN>
2

>  <b_rotR>
0.11111111

>  <b_single>
16

>  <b_triple>
0

>  <chi0>
12.413849

>  <chi0v>
10.333423

>  <chi0v_C>
7.1712084

>  <chi0_C>
8.4138489

>  <chi1>
8.0585508

>  <chi1v>
5.7642817

>  <chi1v_C>
4.1831746

>  <chi1_C>
5.7491498

>  <chiral>
0

>  <chiral_u>
0

>  <density>
0.84836739

>  <diameter>
8

>  <FCharge>
0

>  <GCUT_PEOE_0>
-0.76621479

>  <GCUT_PEOE_1>
-0.41027403

>  <GCUT_PEOE_2>
0.082171939

>  <GCUT_PEOE_3>
2.3229697

>  <GCUT_SLOGP_0>
-0.7623868

>  <GCUT_SLOGP_1>
-0.24571845

>  <GCUT_SLOGP_2>
0.25061685

>  <GCUT_SLOGP_3>
2.5133371

>  <GCUT_SMR_0>
-0.46609375

>  <GCUT_SMR_1>
-0.17465039

>  <GCUT_SMR_2>
0.34439436

>  <GCUT_SMR_3>
2.625011

>  <Kier1>
13.432098

>  <Kier2>
5.7600002

>  <Kier3>
3.4844444

>  <KierA1>
11.894227

>  <KierA2>
5.0592823

>  <KierA3>
3.040837

>  <KierFlex>
3.5397794

>  <lip_acc>
2

>  <lip_don>
2

>  <lip_druglike>
1

>  <lip_violation>
0

>  <logP(o/w)>
4.592

>  <logS>
-3.9324901

>  <mr>
6.94491

>  <mutagenic>
0

>  <nmol>
1

>  <opr_brigid>
12

>  <opr_leadlike>
1

>  <opr_nring>
2

>  <opr_nrot>
2

>  <opr_violation>
0

>  <PC+>
0

>  <PC->
0

>  <PEOE_PC+>
1.1273322

>  <PEOE_PC->
-1.1273322

>  <PEOE_RPC+>
0.19277799

>  <PEOE_RPC->
0.31893885

>  <PEOE_VSA+0>
26.271578

>  <PEOE_VSA+1>
42.509354

>  <PEOE_VSA+2>
0

>  <PEOE_VSA+3>
0

>  <PEOE_VSA+4>
20.648346

>  <PEOE_VSA+5>
0

>  <PEOE_VSA+6>
0

>  <PEOE_VSA-0>
77.946503

>  <PEOE_VSA-1>
59.163895

>  <PEOE_VSA-2>
0

>  <PEOE_VSA-3>
0

>  <PEOE_VSA-4>
0

>  <PEOE_VSA-5>
0

>  <PEOE_VSA-6>
15.535081

>  <PEOE_VSA_FHYD>
0.85052788

>  <PEOE_VSA_FNEG>
0.63057166

>  <PEOE_VSA_FPNEG>
0.064174727

>  <PEOE_VSA_FPOL>
0.14947212

>  <PEOE_VSA_FPOS>
0.36942837

>  <PEOE_VSA_FPPOS>
0.085297391

>  <PEOE_VSA_HYD>
205.89133

>  <PEOE_VSA_NEG>
152.64548

>  <PEOE_VSA_PNEG>
15.535081

>  <PEOE_VSA_POL>
36.183426

>  <PEOE_VSA_POS>
89.429276

>  <PEOE_VSA_PPOS>
20.648346

>  <petitjean>
0.5

>  <petitjeanSC>
1

>  <Q_PC+>
0

>  <Q_PC->
0

>  <Q_RPC+>
0

>  <Q_RPC->
0

>  <Q_VSA_FHYD>
1

>  <Q_VSA_FNEG>
0

>  <Q_VSA_FPNEG>
0

>  <Q_VSA_FPOL>
0

>  <Q_VSA_FPOS>
1

>  <Q_VSA_FPPOS>
0

>  <Q_VSA_HYD>
242.07475

>  <Q_VSA_NEG>
0

>  <Q_VSA_PNEG>
0

>  <Q_VSA_POL>
0

>  <Q_VSA_POS>
242.07475

>  <Q_VSA_PPOS>
0

>  <radius>
4

>  <reactive>
0

>  <rings>
2

>  <RPC+>
0

>  <RPC->
0

>  <rsynth>
1

>  <SlogP>
3.9953699

>  <SlogP_VSA0>
50.770454

>  <SlogP_VSA1>
0

>  <SlogP_VSA2>
0

>  <SlogP_VSA3>
0

>  <SlogP_VSA4>
6.37115

>  <SlogP_VSA5>
18.868406

>  <SlogP_VSA6>
7.0012131

>  <SlogP_VSA7>
105.85911

>  <SlogP_VSA8>
0

>  <SlogP_VSA9>
88.784142

>  <SMR>
6.9039602

>  <SMR_VSA0>
0

>  <SMR_VSA1>
50.770454

>  <SMR_VSA2>
0

>  <SMR_VSA3>
23.859219

>  <SMR_VSA4>
0

>  <SMR_VSA5>
124.72751

>  <SMR_VSA6>
0

>  <SMR_VSA7>
78.297287

>  <TPSA>
40.459999

>  <VAdjEq>
0.54234898

>  <VAdjMa>
5.1699252

>  <VDistEq>
2.8829195

>  <VDistMa>
7.8828011

>  <vdw_area>
242.07475

>  <vdw_vol>
317.22931

>  <vsa_acc>
0

>  <vsa_acid>
0

>  <vsa_base>
0

>  <vsa_don>
0

>  <vsa_hyd>
200.19696

>  <vsa_other>
0

>  <vsa_pol>
27.133842

>  <Weight>
269.12698

>  <weinerPath>
520

>  <weinerPol>
24

>  <zagreb>
86

$$$$