OC(=O)C(=C(C(O)=O)/C)C
  MOE2013           2D

 10  9  0  0  0  0  0  0  0  0999 V2000
    0.0000    0.0000    0.0000 O   0  0  0  0  0  0  0  0  0  0  0  0
    1.2960   -0.7550    0.0000 C   0  0  0  0  0  0  0  0  0  0  0  0
    1.2900   -2.2550    0.0000 O   0  0  0  0  0  0  0  0  0  0  0  0
    2.5980   -0.0110    0.0000 C   0  0  0  0  0  0  0  0  0  0  0  0
    3.8940   -0.7660    0.0000 C   0  0  0  0  0  0  0  0  0  0  0  0
    5.1960   -0.0210    0.0000 C   0  0  0  0  0  0  0  0  0  0  0  0
    6.4920   -0.7770    0.0000 O   0  0  0  0  0  0  0  0  0  0  0  0
    5.2020    1.4790    0.0000 O   0  0  0  0  0  0  0  0  0  0  0  0
    3.8880   -2.2660    0.0000 C   0  0  0  0  0  0  0  0  0  0  0  0
    2.6040    1.4890    0.0000 C   0  0  0  0  0  0  0  0  0  0  0  0
  1  2  1  0  0  0  0
  2  3  2  0  0  0  0
  2  4  1  0  0  0  0
  4  5  2  3  0  0  0
  4 10  1  0  0  0  0
  5  6  1  0  0  0  0
  5  9  1  0  0  0  0
  6  7  1  0  0  0  0
  6  8  2  0  0  0  0
M  END
>  <Index>
331

>  <ID>
HT0679

>  <class>
0

>  <apol>
19.102345

>  <ast_fraglike>
0

>  <ast_fraglike_ext>
0

>  <ast_violation>
2

>  <ast_violation_ext>
2

>  <a_acc>
4

>  <a_acid>
0

>  <a_aro>
0

>  <a_base>
0

>  <a_count>
18

>  <a_don>
4

>  <a_donacc>
8

>  <a_heavy>
10

>  <a_hyd>
4

>  <a_IC>
27.548876

>  <a_ICM>
1.530493

>  <a_nB>
0

>  <a_nBr>
0

>  <a_nC>
6

>  <a_nCl>
0

>  <a_nF>
0

>  <a_nH>
8

>  <a_nI>
0

>  <a_nN>
0

>  <a_nO>
4

>  <a_nP>
0

>  <a_nS>
0

>  <balabanJ>
3.8933465

>  <BCUT_PEOE_0>
-2.295661

>  <BCUT_PEOE_1>
-0.43468297

>  <BCUT_PEOE_2>
0.29229361

>  <BCUT_PEOE_3>
2.3525829

>  <BCUT_SLOGP_0>
-2.2792909

>  <BCUT_SLOGP_1>
-0.36428878

>  <BCUT_SLOGP_2>
0.30507293

>  <BCUT_SLOGP_3>
2.4065752

>  <BCUT_SMR_0>
-2.0472043

>  <BCUT_SMR_1>
-0.19800338

>  <BCUT_SMR_2>
0.48248163

>  <BCUT_SMR_3>
2.6104181

>  <bpol>
10.661656

>  <b_1rotN>
2

>  <b_1rotR>
0.22222222

>  <b_ar>
0

>  <b_count>
17

>  <b_double>
3

>  <b_heavy>
9

>  <b_max1len>
2

>  <b_rotN>
2

>  <b_rotR>
0.22222222

>  <b_single>
14

>  <b_triple>
0

>  <chi0>
8.3094015

>  <chi0v>
5.7109237

>  <chi0v_C>
4

>  <chi0_C>
4.309401

>  <chi1>
4.4641018

>  <chi1v>
2.6054618

>  <chi1v_C>
1.75

>  <chi1_C>
2.1547005

>  <chiral>
0

>  <chiral_u>
0

>  <density>
0.82844597

>  <diameter>
5

>  <FCharge>
0

>  <GCUT_PEOE_0>
-0.71651125

>  <GCUT_PEOE_1>
-0.46175992

>  <GCUT_PEOE_2>
-0.020872992

>  <GCUT_PEOE_3>
2.0290906

>  <GCUT_SLOGP_0>
-0.87642062

>  <GCUT_SLOGP_1>
-0.38503018

>  <GCUT_SLOGP_2>
0.01967028

>  <GCUT_SLOGP_3>
2.0451875

>  <GCUT_SMR_0>
-0.47558776

>  <GCUT_SMR_1>
-0.2026525

>  <GCUT_SMR_2>
0.16041328

>  <GCUT_SMR_3>
2.2694471

>  <Kier1>
10

>  <Kier2>
4

>  <Kier3>
3.1111112

>  <KierA1>
7.4767003

>  <KierA2>
2.8817635

>  <KierA3>
2.1737134

>  <KierFlex>
2.1546082

>  <lip_acc>
4

>  <lip_don>
2

>  <lip_druglike>
1

>  <lip_violation>
0

>  <logP(o/w)>
0.162

>  <logS>
-0.12194

>  <mr>
3.4106901

>  <mutagenic>
0

>  <nmol>
1

>  <opr_brigid>
1

>  <opr_leadlike>
1

>  <opr_nring>
0

>  <opr_nrot>
2

>  <opr_violation>
0

>  <PC+>
0

>  <PC->
0

>  <PEOE_PC+>
1.2422141

>  <PEOE_PC->
-1.2422141

>  <PEOE_RPC+>
0.23134522

>  <PEOE_RPC->
0.26382321

>  <PEOE_VSA+0>
30.009396

>  <PEOE_VSA+1>
0

>  <PEOE_VSA+2>
0

>  <PEOE_VSA+3>
0

>  <PEOE_VSA+4>
20.648346

>  <PEOE_VSA+5>
29.416998

>  <PEOE_VSA+6>
0

>  <PEOE_VSA-0>
37.495354

>  <PEOE_VSA-1>
0

>  <PEOE_VSA-2>
0

>  <PEOE_VSA-3>
0

>  <PEOE_VSA-4>
0

>  <PEOE_VSA-5>
27.133842

>  <PEOE_VSA-6>
15.535081

>  <PEOE_VSA_FHYD>
0.42127538

>  <PEOE_VSA_FNEG>
0.50027937

>  <PEOE_VSA_FPNEG>
0.26628298

>  <PEOE_VSA_FPOL>
0.57872462

>  <PEOE_VSA_FPOS>
0.4997206

>  <PEOE_VSA_FPPOS>
0.31244165

>  <PEOE_VSA_HYD>
67.504753

>  <PEOE_VSA_NEG>
80.164276

>  <PEOE_VSA_PNEG>
42.668922

>  <PEOE_VSA_POL>
92.734268

>  <PEOE_VSA_POS>
80.074738

>  <PEOE_VSA_PPOS>
50.065342

>  <petitjean>
0.40000001

>  <petitjeanSC>
0.66666669

>  <Q_PC+>
0

>  <Q_PC->
0

>  <Q_RPC+>
0

>  <Q_RPC->
0

>  <Q_VSA_FHYD>
1

>  <Q_VSA_FNEG>
0

>  <Q_VSA_FPNEG>
0

>  <Q_VSA_FPOL>
0

>  <Q_VSA_FPOS>
1

>  <Q_VSA_FPPOS>
0

>  <Q_VSA_HYD>
160.23901

>  <Q_VSA_NEG>
0

>  <Q_VSA_PNEG>
0

>  <Q_VSA_POL>
0

>  <Q_VSA_POS>
160.23901

>  <Q_VSA_PPOS>
0

>  <radius>
3

>  <reactive>
0

>  <rings>
0

>  <RPC+>
0

>  <RPC->
0

>  <rsynth>
1

>  <SlogP>
0.49200001

>  <SlogP_VSA0>
0

>  <SlogP_VSA1>
15.490929

>  <SlogP_VSA2>
47.724434

>  <SlogP_VSA3>
50.770454

>  <SlogP_VSA4>
0

>  <SlogP_VSA5>
6.37115

>  <SlogP_VSA6>
0

>  <SlogP_VSA7>
0

>  <SlogP_VSA8>
0

>  <SlogP_VSA9>
66.652031

>  <SMR>
3.3645599

>  <SMR_VSA0>
47.724434

>  <SMR_VSA1>
0

>  <SMR_VSA2>
50.770454

>  <SMR_VSA3>
6.37115

>  <SMR_VSA4>
0

>  <SMR_VSA5>
0

>  <SMR_VSA6>
15.490929

>  <SMR_VSA7>
66.652031

>  <TPSA>
74.599998

>  <VAdjEq>
0.68007702

>  <VAdjMa>
4.1699252

>  <VDistEq>
2.234777

>  <VDistMa>
6.3362417

>  <vdw_area>
160.23901

>  <vdw_vol>
173.97151

>  <vsa_acc>
0

>  <vsa_acid>
0

>  <vsa_base>
0

>  <vsa_don>
0

>  <vsa_hyd>
63.233978

>  <vsa_other>
29.416998

>  <vsa_pol>
54.267685

>  <Weight>
144.12599

>  <weinerPath>
121

>  <weinerPol>
12

>  <zagreb>
42

$$$$