FC12C(C3CC(C)C(OC(=O)C)(C(=O)COC(=O)C)C3(CC1O)C)CC(F)C1=CC(=O)C=CC12C
  MOE2013           2D

 35 38  0  0  1  0  0  0  0  0999 V2000
    0.0000    0.0000    0.0000 F   0  0  0  0  0  0  0  0  0  0  0  0
   -1.5000   -0.0120    0.0000 C   0  0  3  0  0  0  0  0  0  0  0  0
   -0.7390   -1.3050    0.0000 C   0  0  3  0  0  0  0  0  0  0  0  0
    0.7610   -1.2930    0.0000 C   0  0  3  0  0  0  0  0  0  0  0  0
    1.7740   -2.3990    0.0000 C   0  0  0  0  0  0  0  0  0  0  0  0
    3.1390   -1.7780    0.0000 C   0  0  3  0  0  0  0  0  0  0  0  0
    4.4440   -2.5170    0.0000 C   0  0  0  0  0  0  0  0  0  0  0  0
    2.9700   -0.2870    0.0000 C   0  0  3  0  0  0  0  0  0  0  0  0
    3.4460    1.1350    0.0000 O   0  0  0  0  0  0  0  0  0  0  0  0
    2.4530    2.2590    0.0000 C   0  0  0  0  0  0  0  0  0  0  0  0
    2.9290    3.6810    0.0000 O   0  0  0  0  0  0  0  0  0  0  0  0
    0.9830    1.9600    0.0000 C   0  0  0  0  0  0  0  0  0  0  0  0
    4.4490   -0.0400    0.0000 C   0  0  0  0  0  0  0  0  0  0  0  0
    4.9750    1.3640    0.0000 O   0  0  0  0  0  0  0  0  0  0  0  0
    5.4030   -1.1980    0.0000 C   0  0  0  0  0  0  0  0  0  0  0  0
    6.8820   -0.9510    0.0000 O   0  0  0  0  0  0  0  0  0  0  0  0
    7.8360   -2.1090    0.0000 C   0  0  0  0  0  0  0  0  0  0  0  0
    9.3160   -1.8620    0.0000 O   0  0  0  0  0  0  0  0  0  0  0  0
    7.3100   -3.5140    0.0000 C   0  0  0  0  0  0  0  0  0  0  0  0
    1.5000    0.0120    0.0000 C   0  0  3  0  0  0  0  0  0  0  0  0
    0.7390    1.3050    0.0000 C   0  0  0  0  0  0  0  0  0  0  0  0
   -0.7610    1.2930    0.0000 C   0  0  3  0  0  0  0  0  0  0  0  0
   -1.5210    2.5860    0.0000 O   0  0  0  0  0  0  0  0  0  0  0  0
    2.3500    1.2480    0.0000 C   0  0  0  0  0  0  0  0  0  0  0  0
   -1.4780   -2.6100    0.0000 C   0  0  0  0  0  0  0  0  0  0  0  0
   -2.9780   -2.6230    0.0000 C   0  0  3  0  0  0  0  0  0  0  0  0
   -3.7180   -3.9280    0.0000 F   0  0  0  0  0  0  0  0  0  0  0  0
   -3.7390   -1.3300    0.0000 C   0  0  0  0  0  0  0  0  0  0  0  0
   -5.2390   -1.3420    0.0000 C   0  0  0  0  0  0  0  0  0  0  0  0
   -6.0000   -0.0500    0.0000 C   0  0  0  0  0  0  0  0  0  0  0  0
   -7.5000   -0.0620    0.0000 O   0  0  0  0  0  0  0  0  0  0  0  0
   -5.2610    1.2560    0.0000 C   0  0  0  0  0  0  0  0  0  0  0  0
   -3.7610    1.2680    0.0000 C   0  0  0  0  0  0  0  0  0  0  0  0
   -3.0000   -0.0250    0.0000 C   0  0  3  0  0  0  0  0  0  0  0  0
   -2.2610    1.2800    0.0000 C   0  0  0  0  0  0  0  0  0  0  0  0
  1  2  1  0  0  0  0
  2  3  1  0  0  0  0
  2 22  1  0  0  0  0
  2 34  1  0  0  0  0
  3  4  1  0  0  0  0
  3 25  1  0  0  0  0
  4  5  1  0  0  0  0
  4 20  1  0  0  0  0
  5  6  1  0  0  0  0
  6  7  1  0  0  0  0
  6  8  1  0  0  0  0
  8  9  1  0  0  0  0
  8 13  1  0  0  0  0
  8 20  1  0  0  0  0
  9 10  1  0  0  0  0
 10 11  2  0  0  0  0
 10 12  1  0  0  0  0
 13 14  2  0  0  0  0
 13 15  1  0  0  0  0
 15 16  1  0  0  0  0
 16 17  1  0  0  0  0
 17 18  2  0  0  0  0
 17 19  1  0  0  0  0
 20 21  1  0  0  0  0
 20 24  1  0  0  0  0
 21 22  1  0  0  0  0
 22 23  1  0  0  0  0
 25 26  1  0  0  0  0
 26 27  1  0  0  0  0
 26 28  1  0  0  0  0
 28 29  2  0  0  0  0
 28 34  1  0  0  0  0
 29 30  1  0  0  0  0
 30 31  2  0  0  0  0
 30 32  1  0  0  0  0
 32 33  2  0  0  0  0
 33 34  1  0  0  0  0
 34 35  1  0  0  0  0
M  END
>  <Index>
321

>  <ID>
HT0661

>  <class>
0

>  <apol>
73.825378

>  <ast_fraglike>
0

>  <ast_fraglike_ext>
0

>  <ast_violation>
2

>  <ast_violation_ext>
4

>  <a_acc>
5

>  <a_acid>
0

>  <a_aro>
0

>  <a_base>
0

>  <a_count>
67

>  <a_don>
1

>  <a_donacc>
6

>  <a_heavy>
35

>  <a_hyd>
24

>  <a_IC>
102.56506

>  <a_ICM>
1.5308218

>  <a_nB>
0

>  <a_nBr>
0

>  <a_nC>
26

>  <a_nCl>
0

>  <a_nF>
2

>  <a_nH>
32

>  <a_nI>
0

>  <a_nN>
0

>  <a_nO>
7

>  <a_nP>
0

>  <a_nS>
0

>  <balabanJ>
1.7877146

>  <BCUT_PEOE_0>
-2.8906217

>  <BCUT_PEOE_1>
-0.49829775

>  <BCUT_PEOE_2>
0.36683536

>  <BCUT_PEOE_3>
3.0073562

>  <BCUT_SLOGP_0>
-2.9298916

>  <BCUT_SLOGP_1>
-0.41976857

>  <BCUT_SLOGP_2>
0.48629791

>  <BCUT_SLOGP_3>
2.9931395

>  <BCUT_SMR_0>
-2.6711223

>  <BCUT_SMR_1>
-0.28291494

>  <BCUT_SMR_2>
0.5621835

>  <BCUT_SMR_3>
3.2286267

>  <bpol>
45.052624

>  <b_1rotN>
4

>  <b_1rotR>
0.10526316

>  <b_ar>
0

>  <b_count>
70

>  <b_double>
6

>  <b_heavy>
38

>  <b_max1len>
4

>  <b_rotN>
6

>  <b_rotR>
0.15789473

>  <b_single>
64

>  <b_triple>
0

>  <chi0>
26.137465

>  <chi0v>
20.599861

>  <chi0v_C>
16.947229

>  <chi0_C>
17.723249

>  <chi1>
16.146261

>  <chi1v>
11.973385

>  <chi1v_C>
9.5904417

>  <chi1_C>
10.51211

>  <chiral>
9

>  <chiral_u>
9

>  <density>
0.79441231

>  <diameter>
14

>  <FCharge>
0

>  <GCUT_PEOE_0>
-0.78944582

>  <GCUT_PEOE_1>
-0.39781868

>  <GCUT_PEOE_2>
-2.9420105e-005

>  <GCUT_PEOE_3>
3.4412131

>  <GCUT_SLOGP_0>
-0.93364275

>  <GCUT_SLOGP_1>
-0.31534725

>  <GCUT_SLOGP_2>
0.027228186

>  <GCUT_SLOGP_3>
3.4513738

>  <GCUT_SMR_0>
-0.53789592

>  <GCUT_SMR_1>
-0.21545196

>  <GCUT_SMR_2>
0.13239707

>  <GCUT_SMR_3>
3.6534882

>  <Kier1>
28.01939

>  <Kier2>
9.3287983

>  <Kier3>
3.8577285

>  <KierA1>
23.756025

>  <KierA2>
7.8691387

>  <KierA3>
3.2421346

>  <KierFlex>
5.3411274

>  <lip_acc>
7

>  <lip_don>
1

>  <lip_druglike>
1

>  <lip_violation>
0

>  <logP(o/w)>
3.477

>  <logS>
-4.5435901

>  <mr>
12.232703

>  <mutagenic>
0

>  <nmol>
1

>  <opr_brigid>
20

>  <opr_leadlike>
1

>  <opr_nring>
4

>  <opr_nrot>
4

>  <opr_violation>
1

>  <PC+>
0

>  <PC->
0

>  <PEOE_PC+>
2.9698226

>  <PEOE_PC->
-2.9698226

>  <PEOE_RPC+>
0.087537564

>  <PEOE_RPC->
0.13084303

>  <PEOE_VSA+0>
139.86462

>  <PEOE_VSA+1>
34.76263

>  <PEOE_VSA+2>
20.418549

>  <PEOE_VSA+3>
16.917038

>  <PEOE_VSA+4>
10.324173

>  <PEOE_VSA+5>
29.416998

>  <PEOE_VSA+6>
0

>  <PEOE_VSA-0>
71.569962

>  <PEOE_VSA-1>
49.750259

>  <PEOE_VSA-2>
0

>  <PEOE_VSA-3>
0

>  <PEOE_VSA-4>
23.817272

>  <PEOE_VSA-5>
54.267685

>  <PEOE_VSA-6>
12.775052

>  <PEOE_VSA_FHYD>
0.71846169

>  <PEOE_VSA_FNEG>
0.4573991

>  <PEOE_VSA_FPNEG>
0.19586785

>  <PEOE_VSA_FPOL>
0.28153831

>  <PEOE_VSA_FPOS>
0.54260093

>  <PEOE_VSA_FPPOS>
0.085670449

>  <PEOE_VSA_HYD>
333.28305

>  <PEOE_VSA_NEG>
212.18024

>  <PEOE_VSA_PNEG>
90.860008

>  <PEOE_VSA_POL>
130.60118

>  <PEOE_VSA_POS>
251.70401

>  <PEOE_VSA_PPOS>
39.741173

>  <petitjean>
0.5

>  <petitjeanSC>
1

>  <Q_PC+>
0

>  <Q_PC->
0

>  <Q_RPC+>
0

>  <Q_RPC->
0

>  <Q_VSA_FHYD>
1

>  <Q_VSA_FNEG>
0

>  <Q_VSA_FPNEG>
0

>  <Q_VSA_FPOL>
0

>  <Q_VSA_FPOS>
1

>  <Q_VSA_FPPOS>
0

>  <Q_VSA_HYD>
463.88425

>  <Q_VSA_NEG>
0

>  <Q_VSA_PNEG>
0

>  <Q_VSA_POL>
0

>  <Q_VSA_POS>
463.88425

>  <Q_VSA_PPOS>
0

>  <radius>
7

>  <reactive>
1

>  <rings>
4

>  <RPC+>
0

>  <RPC->
0

>  <rsynth>
0.42857143

>  <SlogP>
2.9853001

>  <SlogP_VSA0>
25.385227

>  <SlogP_VSA1>
26.86615

>  <SlogP_VSA2>
134.26353

>  <SlogP_VSA3>
20.926258

>  <SlogP_VSA4>
13.232388

>  <SlogP_VSA5>
3.185575

>  <SlogP_VSA6>
0

>  <SlogP_VSA7>
52.929554

>  <SlogP_VSA8>
56.605217

>  <SlogP_VSA9>
196.55031

>  <SMR>
11.93178

>  <SMR_VSA0>
117.44864

>  <SMR_VSA1>
55.305454

>  <SMR_VSA2>
13.232388

>  <SMR_VSA3>
20.000463

>  <SMR_VSA4>
0

>  <SMR_VSA5>
109.53477

>  <SMR_VSA6>
47.792408

>  <SMR_VSA7>
166.63008

>  <TPSA>
106.97

>  <VAdjEq>
0.33549348

>  <VAdjMa>
6.2479277

>  <VDistEq>
3.4190469

>  <VDistMa>
10.010834

>  <vdw_area>
463.88425

>  <vdw_vol>
622.51172

>  <vsa_acc>
54.267685

>  <vsa_acid>
0

>  <vsa_base>
0

>  <vsa_don>
0

>  <vsa_hyd>
314.08249

>  <vsa_other>
51.341549

>  <vsa_pol>
67.834602

>  <Weight>
494.53098

>  <weinerPath>
3128

>  <weinerPol>
81

>  <zagreb>
202

$$$$