Oc1cc(ccc1O)C(O)C(N)C(O)=O
  MOE2013           2D

 15 15  0  0  1  0  0  0  0  0999 V2000
    0.0000    0.0000    0.0000 O   0  0  0  0  0  0  0  0  0  0  0  0
    1.3000    0.7480    0.0000 C   0  0  0  0  0  0  0  0  0  0  0  0
    2.5980   -0.0040    0.0000 C   0  0  0  0  0  0  0  0  0  0  0  0
    3.8980    0.7440    0.0000 C   0  0  0  0  0  0  0  0  0  0  0  0
    3.9010    2.2440    0.0000 C   0  0  0  0  0  0  0  0  0  0  0  0
    2.6030    2.9960    0.0000 C   0  0  0  0  0  0  0  0  0  0  0  0
    1.3030    2.2480    0.0000 C   0  0  0  0  0  0  0  0  0  0  0  0
    0.0050    3.0000    0.0000 O   0  0  0  0  0  0  0  0  0  0  0  0
    5.1960   -0.0080    0.0000 C   0  0  3  0  0  0  0  0  0  0  0  0
    5.1940   -1.5080    0.0000 O   0  0  0  0  0  0  0  0  0  0  0  0
    6.4960    0.7400    0.0000 C   0  0  3  0  0  0  0  0  0  0  0  0
    6.4990    2.2400    0.0000 N   0  0  0  0  0  0  0  0  0  0  0  0
    7.7940   -0.0120    0.0000 C   0  0  0  0  0  0  0  0  0  0  0  0
    9.0940    0.7360    0.0000 O   0  0  0  0  0  0  0  0  0  0  0  0
    7.7920   -1.5120    0.0000 O   0  0  0  0  0  0  0  0  0  0  0  0
  1  2  1  0  0  0  0
  2  3  1  0  0  0  0
  2  7  2  0  0  0  0
  3  4  2  0  0  0  0
  4  5  1  0  0  0  0
  4  9  1  0  0  0  0
  5  6  2  0  0  0  0
  6  7  1  0  0  0  0
  7  8  1  0  0  0  0
  9 10  1  0  0  0  0
  9 11  1  0  0  0  0
 11 12  1  0  0  0  0
 11 13  1  0  0  0  0
 13 14  1  0  0  0  0
 13 15  2  0  0  0  0
M  END
>  <Index>
357

>  <ID>
HT0731

>  <class>
0

>  <apol>
28.284723

>  <ast_fraglike>
0

>  <ast_fraglike_ext>
0

>  <ast_violation>
2

>  <ast_violation_ext>
3

>  <a_acc>
6

>  <a_acid>
0

>  <a_aro>
6

>  <a_base>
0

>  <a_count>
26

>  <a_don>
6

>  <a_donacc>
12

>  <a_heavy>
15

>  <a_hyd>
8

>  <a_IC>
44.018719

>  <a_ICM>
1.6930276

>  <a_nB>
0

>  <a_nBr>
0

>  <a_nC>
9

>  <a_nCl>
0

>  <a_nF>
0

>  <a_nH>
11

>  <a_nI>
0

>  <a_nN>
1

>  <a_nO>
5

>  <a_nP>
0

>  <a_nS>
0

>  <balabanJ>
2.5198035

>  <BCUT_PEOE_0>
-2.4857509

>  <BCUT_PEOE_1>
-0.72145009

>  <BCUT_PEOE_2>
0.77729183

>  <BCUT_PEOE_3>
2.5433748

>  <BCUT_SLOGP_0>
-2.7171497

>  <BCUT_SLOGP_1>
-0.69967026

>  <BCUT_SLOGP_2>
0.73255211

>  <BCUT_SLOGP_3>
2.5177038

>  <BCUT_SMR_0>
-2.2478995

>  <BCUT_SMR_1>
-0.56538767

>  <BCUT_SMR_2>
0.90820068

>  <BCUT_SMR_3>
2.7676671

>  <bpol>
12.323277

>  <b_1rotN>
3

>  <b_1rotR>
0.2

>  <b_ar>
6

>  <b_count>
26

>  <b_double>
1

>  <b_heavy>
15

>  <b_max1len>
5

>  <b_rotN>
3

>  <b_rotR>
0.2

>  <b_single>
19

>  <b_triple>
0

>  <chi0>
11.585422

>  <chi0v>
7.6612043

>  <chi0v_C>
4.8867512

>  <chi0_C>
5.585422

>  <chi1>
6.930428

>  <chi1v>
4.1151943

>  <chi1v_C>
2.6487174

>  <chi1_C>
3.4663265

>  <chiral>
2

>  <chiral_u>
2

>  <density>
0.8456642

>  <diameter>
8

>  <FCharge>
0

>  <GCUT_PEOE_0>
-0.80446112

>  <GCUT_PEOE_1>
-0.48413962

>  <GCUT_PEOE_2>
0.19113083

>  <GCUT_PEOE_3>
2.3272107

>  <GCUT_SLOGP_0>
-1.363524

>  <GCUT_SLOGP_1>
-0.42387637

>  <GCUT_SLOGP_2>
0.12847263

>  <GCUT_SLOGP_3>
2.3999202

>  <GCUT_SMR_0>
-0.50432789

>  <GCUT_SMR_1>
-0.25958803

>  <GCUT_SMR_2>
0.27392274

>  <GCUT_SMR_3>
2.5766571

>  <Kier1>
13.066667

>  <Kier2>
5.3650794

>  <Kier3>
3.2256

>  <KierA1>
10.32718

>  <KierA2>
4.1627126

>  <KierA3>
2.4650617

>  <KierFlex>
2.8659389

>  <lip_acc>
6

>  <lip_don>
6

>  <lip_druglike>
1

>  <lip_violation>
1

>  <logP(o/w)>
-2.76473

>  <logS>
-0.1192

>  <mr>
5.0576701

>  <mutagenic>
0

>  <nmol>
1

>  <opr_brigid>
6

>  <opr_leadlike>
1

>  <opr_nring>
1

>  <opr_nrot>
3

>  <opr_violation>
1

>  <PC+>
0

>  <PC->
0

>  <PEOE_PC+>
2.1308353

>  <PEOE_PC->
-2.1308353

>  <PEOE_RPC+>
0.13113734

>  <PEOE_RPC->
0.18073212

>  <PEOE_VSA+0>
0

>  <PEOE_VSA+1>
21.326929

>  <PEOE_VSA+2>
42.205956

>  <PEOE_VSA+3>
0

>  <PEOE_VSA+4>
41.296692

>  <PEOE_VSA+5>
14.708499

>  <PEOE_VSA+6>
0

>  <PEOE_VSA-0>
26.718348

>  <PEOE_VSA-1>
12.254904

>  <PEOE_VSA-2>
0

>  <PEOE_VSA-3>
0

>  <PEOE_VSA-4>
0

>  <PEOE_VSA-5>
13.566921

>  <PEOE_VSA-6>
37.721279

>  <PEOE_VSA_FHYD>
0.48859087

>  <PEOE_VSA_FNEG>
0.43022716

>  <PEOE_VSA_FPNEG>
0.24446291

>  <PEOE_VSA_FPOL>
0.5114091

>  <PEOE_VSA_FPOS>
0.56977284

>  <PEOE_VSA_FPPOS>
0.26694623

>  <PEOE_VSA_HYD>
102.50613

>  <PEOE_VSA_NEG>
90.261452

>  <PEOE_VSA_PNEG>
51.2882

>  <PEOE_VSA_POL>
107.29339

>  <PEOE_VSA_POS>
119.53807

>  <PEOE_VSA_PPOS>
56.005188

>  <petitjean>
0.5

>  <petitjeanSC>
1

>  <Q_PC+>
0

>  <Q_PC->
0

>  <Q_RPC+>
0

>  <Q_RPC->
0

>  <Q_VSA_FHYD>
1

>  <Q_VSA_FNEG>
0

>  <Q_VSA_FPNEG>
0

>  <Q_VSA_FPOL>
0

>  <Q_VSA_FPOS>
1

>  <Q_VSA_FPPOS>
0

>  <Q_VSA_HYD>
209.79953

>  <Q_VSA_NEG>
0

>  <Q_VSA_PNEG>
0

>  <Q_VSA_POL>
0

>  <Q_VSA_POS>
209.79953

>  <Q_VSA_PPOS>
0

>  <radius>
4

>  <reactive>
0

>  <rings>
1

>  <RPC+>
0

>  <RPC->
0

>  <rsynth>
1

>  <SlogP>
-0.36140001

>  <SlogP_VSA0>
109.05286

>  <SlogP_VSA1>
7.7454643

>  <SlogP_VSA2>
27.844185

>  <SlogP_VSA3>
25.385227

>  <SlogP_VSA4>
3.185575

>  <SlogP_VSA5>
0

>  <SlogP_VSA6>
0

>  <SlogP_VSA7>
52.929554

>  <SlogP_VSA8>
6.4686494

>  <SlogP_VSA9>
10.486856

>  <SMR>
5.0453601

>  <SMR_VSA0>
23.862217

>  <SMR_VSA1>
76.155678

>  <SMR_VSA2>
25.385227

>  <SMR_VSA3>
24.123049

>  <SMR_VSA4>
32.897186

>  <SMR_VSA5>
52.929554

>  <SMR_VSA6>
7.7454643

>  <SMR_VSA7>
0

>  <TPSA>
124.01

>  <VAdjEq>
0.56650949

>  <VAdjMa>
4.9068904

>  <VDistEq>
2.7924902

>  <VDistMa>
7.5137072

>  <vdw_area>
209.79953

>  <vdw_vol>
252.09651

>  <vsa_acc>
0

>  <vsa_acid>
0

>  <vsa_base>
0

>  <vsa_don>
0

>  <vsa_hyd>
81.709129

>  <vsa_other>
14.708499

>  <vsa_pol>
85.577095

>  <Weight>
213.189

>  <weinerPath>
370

>  <weinerPol>
22

>  <zagreb>
72

$$$$