O=C1CCC2C3C(C4C(=CC(=O)CC4)CC3)CCC12C
  MOE2013           2D

 20 23  0  0  1  0  0  0  0  0999 V2000
    0.0000    0.0000    0.0000 O   0  0  0  0  0  0  0  0  0  0  0  0
    1.0430    1.0780    0.0000 C   0  0  0  0  0  0  0  0  0  0  0  0
    0.7830    2.5560    0.0000 C   0  0  0  0  0  0  0  0  0  0  0  0
    2.1080    3.2590    0.0000 C   0  0  0  0  0  0  0  0  0  0  0  0
    3.1870    2.2160    0.0000 C   0  0  3  0  0  0  0  0  0  0  0  0
    4.6830    2.3200    0.0000 C   0  0  3  0  0  0  0  0  0  0  0  0
    5.5210    1.0750    0.0000 C   0  0  3  0  0  0  0  0  0  0  0  0
    7.0170    1.1790    0.0000 C   0  0  3  0  0  0  0  0  0  0  0  0
    7.6760    2.5270    0.0000 C   0  0  0  0  0  0  0  0  0  0  0  0
    9.1720    2.6300    0.0000 C   0  0  0  0  0  0  0  0  0  0  0  0
   10.0100    1.3860    0.0000 C   0  0  0  0  0  0  0  0  0  0  0  0
   11.5070    1.4900    0.0000 O   0  0  0  0  0  0  0  0  0  0  0  0
    9.3520    0.0380    0.0000 C   0  0  0  0  0  0  0  0  0  0  0  0
    7.8550   -0.0650    0.0000 C   0  0  0  0  0  0  0  0  0  0  0  0
    6.8380    3.7710    0.0000 C   0  0  0  0  0  0  0  0  0  0  0  0
    5.3420    3.6670    0.0000 C   0  0  0  0  0  0  0  0  0  0  0  0
    4.8620   -0.2720    0.0000 C   0  0  0  0  0  0  0  0  0  0  0  0
    3.3660   -0.3760    0.0000 C   0  0  0  0  0  0  0  0  0  0  0  0
    2.5280    0.8680    0.0000 C   0  0  3  0  0  0  0  0  0  0  0  0
    1.7550   -0.4170    0.0000 C   0  0  0  0  0  0  0  0  0  0  0  0
  1  2  2  0  0  0  0
  2  3  1  0  0  0  0
  2 19  1  0  0  0  0
  3  4  1  0  0  0  0
  4  5  1  0  0  0  0
  5  6  1  0  0  0  0
  5 19  1  0  0  0  0
  6  7  1  0  0  0  0
  6 16  1  0  0  0  0
  7  8  1  0  0  0  0
  7 17  1  0  0  0  0
  8  9  1  0  0  0  0
  8 14  1  0  0  0  0
  9 10  2  0  0  0  0
  9 15  1  0  0  0  0
 10 11  1  0  0  0  0
 11 12  2  0  0  0  0
 11 13  1  0  0  0  0
 13 14  1  0  0  0  0
 15 16  1  0  0  0  0
 17 18  1  0  0  0  0
 18 19  1  0  0  0  0
 19 20  1  0  0  0  0
M  END
>  <Index>
4

>  <ID>
HT0025

>  <class>
0

>  <apol>
49.287033

>  <ast_fraglike>
0

>  <ast_fraglike_ext>
0

>  <ast_violation>
1

>  <ast_violation_ext>
1

>  <a_acc>
2

>  <a_acid>
0

>  <a_aro>
0

>  <a_base>
0

>  <a_count>
44

>  <a_don>
0

>  <a_donacc>
2

>  <a_heavy>
20

>  <a_hyd>
16

>  <a_IC>
53.117241

>  <a_ICM>
1.2072101

>  <a_nB>
0

>  <a_nBr>
0

>  <a_nC>
18

>  <a_nCl>
0

>  <a_nF>
0

>  <a_nH>
24

>  <a_nI>
0

>  <a_nN>
0

>  <a_nO>
2

>  <a_nP>
0

>  <a_nS>
0

>  <balabanJ>
1.5674263

>  <BCUT_PEOE_0>
-2.9195096

>  <BCUT_PEOE_1>
-0.52669269

>  <BCUT_PEOE_2>
0.44178838

>  <BCUT_PEOE_3>
2.9299762

>  <BCUT_SLOGP_0>
-2.8384552

>  <BCUT_SLOGP_1>
-0.45454371

>  <BCUT_SLOGP_2>
0.47586828

>  <BCUT_SLOGP_3>
3.0048053

>  <BCUT_SMR_0>
-2.6659415

>  <BCUT_SMR_1>
-0.32937476

>  <BCUT_SMR_2>
0.6024859

>  <BCUT_SMR_3>
3.184521

>  <bpol>
28.152967

>  <b_1rotN>
0

>  <b_1rotR>
0

>  <b_ar>
0

>  <b_count>
47

>  <b_double>
3

>  <b_heavy>
23

>  <b_max1len>
2

>  <b_rotN>
0

>  <b_rotR>
0

>  <b_single>
44

>  <b_triple>
0

>  <chi0>
13.905413

>  <chi0v>
12.360102

>  <chi0v_C>
11.543606

>  <chi0_C>
11.905413

>  <chi1>
9.5931721

>  <chi1v>
8.3601551

>  <chi1v_C>
7.9519072

>  <chi1_C>
8.4384718

>  <chiral>
5

>  <chiral_u>
5

>  <density>
0.6904763

>  <diameter>
10

>  <FCharge>
0

>  <GCUT_PEOE_0>
-0.78998798

>  <GCUT_PEOE_1>
-0.39781061

>  <GCUT_PEOE_2>
0.010392845

>  <GCUT_PEOE_3>
3.1455667

>  <GCUT_SLOGP_0>
-0.83789754

>  <GCUT_SLOGP_1>
-0.30308846

>  <GCUT_SLOGP_2>
0.048407465

>  <GCUT_SLOGP_3>
3.2280979

>  <GCUT_SMR_0>
-0.53711152

>  <GCUT_SMR_1>
-0.22518007

>  <GCUT_SMR_2>
0.14528745

>  <GCUT_SMR_3>
3.3753014

>  <Kier1>
13.648394

>  <Kier2>
4.75

>  <Kier3>
1.9608401

>  <KierA1>
11.905862

>  <KierA2>
4.1120076

>  <KierA3>
1.6880038

>  <KierFlex>
2.4478498

>  <lip_acc>
2

>  <lip_don>
0

>  <lip_druglike>
1

>  <lip_violation>
0

>  <logP(o/w)>
2.135

>  <logS>
-3.84304

>  <mr>
7.8475795

>  <mutagenic>
0

>  <nmol>
1

>  <opr_brigid>
20

>  <opr_leadlike>
1

>  <opr_nring>
4

>  <opr_nrot>
0

>  <opr_violation>
0

>  <PC+>
0

>  <PC->
0

>  <PEOE_PC+>
1.0783765

>  <PEOE_PC->
-1.0783765

>  <PEOE_RPC+>
0.14473696

>  <PEOE_RPC->
0.27524725

>  <PEOE_VSA+0>
115.50651

>  <PEOE_VSA+1>
4.2653861

>  <PEOE_VSA+2>
8.458519

>  <PEOE_VSA+3>
8.458519

>  <PEOE_VSA+4>
0

>  <PEOE_VSA+5>
0

>  <PEOE_VSA+6>
0

>  <PEOE_VSA-0>
64.462784

>  <PEOE_VSA-1>
20.956217

>  <PEOE_VSA-2>
0

>  <PEOE_VSA-3>
0

>  <PEOE_VSA-4>
0

>  <PEOE_VSA-5>
27.133842

>  <PEOE_VSA-6>
0

>  <PEOE_VSA_FHYD>
0.89113444

>  <PEOE_VSA_FNEG>
0.45158097

>  <PEOE_VSA_FPNEG>
0.10886554

>  <PEOE_VSA_FPOL>
0.10886554

>  <PEOE_VSA_FPOS>
0.548419

>  <PEOE_VSA_FPPOS>
0

>  <PEOE_VSA_HYD>
222.10793

>  <PEOE_VSA_NEG>
112.55284

>  <PEOE_VSA_PNEG>
27.133842

>  <PEOE_VSA_POL>
27.133842

>  <PEOE_VSA_POS>
136.68893

>  <PEOE_VSA_PPOS>
0

>  <petitjean>
0.5

>  <petitjeanSC>
1

>  <Q_PC+>
0

>  <Q_PC->
0

>  <Q_RPC+>
0

>  <Q_RPC->
0

>  <Q_VSA_FHYD>
1

>  <Q_VSA_FNEG>
0

>  <Q_VSA_FPNEG>
0

>  <Q_VSA_FPOL>
0

>  <Q_VSA_FPOS>
1

>  <Q_VSA_FPPOS>
0

>  <Q_VSA_HYD>
249.24178

>  <Q_VSA_NEG>
0

>  <Q_VSA_PNEG>
0

>  <Q_VSA_POL>
0

>  <Q_VSA_POS>
249.24178

>  <Q_VSA_PPOS>
0

>  <radius>
5

>  <reactive>
1

>  <rings>
4

>  <RPC+>
0

>  <RPC->
0

>  <rsynth>
1

>  <SlogP>
3.6973

>  <SlogP_VSA0>
0

>  <SlogP_VSA1>
11.375222

>  <SlogP_VSA2>
47.724434

>  <SlogP_VSA3>
0

>  <SlogP_VSA4>
17.643185

>  <SlogP_VSA5>
3.185575

>  <SlogP_VSA6>
0

>  <SlogP_VSA7>
17.643185

>  <SlogP_VSA8>
150.94725

>  <SlogP_VSA9>
33.326015

>  <SMR>
7.71

>  <SMR_VSA0>
47.724434

>  <SMR_VSA1>
0

>  <SMR_VSA2>
17.643185

>  <SMR_VSA3>
3.185575

>  <SMR_VSA4>
0

>  <SMR_VSA5>
168.59042

>  <SMR_VSA6>
11.375222

>  <SMR_VSA7>
33.326015

>  <TPSA>
34.139999

>  <VAdjEq>
0.51481563

>  <VAdjMa>
5.523562

>  <VDistEq>
2.957881

>  <VDistMa>
8.3559732

>  <vdw_area>
249.24178

>  <vdw_vol>
394.49289

>  <vsa_acc>
27.133842

>  <vsa_acid>
0

>  <vsa_base>
0

>  <vsa_don>
0

>  <vsa_hyd>
182.7276

>  <vsa_other>
16.917038

>  <vsa_pol>
27.133842

>  <Weight>
272.388

>  <weinerPath>
724

>  <weinerPol>
39

>  <zagreb>
118

$$$$