O(C(=O)c1c2c([nH]c1)cccc2)C1CC2N3CC(=O)C(C2)CC3C1
  MOE2013           2D

 24 28  0  0  1  0  0  0  0  0999 V2000
    0.0000    0.0000    0.0000 O   0  0  0  0  0  0  0  0  0  0  0  0
   -0.7480    1.3000    0.0000 C   0  0  0  0  0  0  0  0  0  0  0  0
    0.0050    2.5980    0.0000 O   0  0  0  0  0  0  0  0  0  0  0  0
   -2.2480    1.3030    0.0000 C   0  0  0  0  0  0  0  0  0  0  0  0
   -3.1270    2.5180    0.0000 C   0  0  0  0  0  0  0  0  0  0  0  0
   -4.5550    2.0570    0.0000 C   0  0  0  0  0  0  0  0  0  0  0  0
   -4.5570    0.5570    0.0000 N   0  0  0  0  0  0  0  0  0  0  0  0
   -3.1320    0.0910    0.0000 C   0  0  0  0  0  0  0  0  0  0  0  0
   -5.6680    3.0630    0.0000 C   0  0  0  0  0  0  0  0  0  0  0  0
   -5.3530    4.5290    0.0000 C   0  0  0  0  0  0  0  0  0  0  0  0
   -3.9260    4.9900    0.0000 C   0  0  0  0  0  0  0  0  0  0  0  0
   -2.8130    3.9850    0.0000 C   0  0  0  0  0  0  0  0  0  0  0  0
    1.5000   -0.0030    0.0000 C   0  0  0  0  0  0  0  0  0  0  0  0
    2.3150   -1.4250    0.0000 C   0  0  0  0  0  0  0  0  0  0  0  0
    3.9670   -1.4220    0.0000 C   0  0  3  0  0  0  0  0  0  0  0  0
    4.7800    0.0020    0.0000 N   0  0  0  0  0  0  0  0  0  0  0  0
    6.3180    0.7720    0.0000 C   0  0  0  0  0  0  0  0  0  0  0  0
    7.0700   -0.1060    0.0000 C   0  0  0  0  0  0  0  0  0  0  0  0
    8.5030   -0.5480    0.0000 O   0  0  0  0  0  0  0  0  0  0  0  0
    5.9190   -0.4170    0.0000 C   0  0  0  0  0  0  0  0  0  0  0  0
    5.1610   -1.7220    0.0000 C   0  0  0  0  0  0  0  0  0  0  0  0
    5.1480    0.9230    0.0000 C   0  0  0  0  0  0  0  0  0  0  0  0
    3.9570    1.4260    0.0000 C   0  0  3  0  0  0  0  0  0  0  0  0
    2.3170    1.4120    0.0000 C   0  0  0  0  0  0  0  0  0  0  0  0
  1  2  1  0  0  0  0
  1 13  1  0  0  0  0
  2  3  2  0  0  0  0
  2  4  1  0  0  0  0
  4  5  1  0  0  0  0
  4  8  2  0  0  0  0
  5  6  1  0  0  0  0
  5 12  2  0  0  0  0
  6  7  1  0  0  0  0
  6  9  2  0  0  0  0
  7  8  1  0  0  0  0
  9 10  1  0  0  0  0
 10 11  2  0  0  0  0
 11 12  1  0  0  0  0
 13 14  1  0  0  0  0
 13 24  1  0  0  0  0
 14 15  1  0  0  0  0
 15 16  1  0  0  0  0
 15 21  1  0  0  0  0
 16 17  1  0  0  0  0
 16 23  1  0  0  0  0
 17 18  1  0  0  0  0
 18 19  2  0  0  0  0
 18 20  1  0  0  0  0
 20 21  1  0  0  0  0
 20 22  1  0  0  0  0
 22 23  1  0  0  0  0
 23 24  1  0  0  0  0
M  END
>  <Index>
343

>  <ID>
HT0706

>  <class>
0

>  <apol>
51.381859

>  <ast_fraglike>
0

>  <ast_fraglike_ext>
0

>  <ast_violation>
1

>  <ast_violation_ext>
1

>  <a_acc>
3

>  <a_acid>
0

>  <a_aro>
9

>  <a_base>
0

>  <a_count>
44

>  <a_don>
1

>  <a_donacc>
4

>  <a_heavy>
24

>  <a_hyd>
17

>  <a_IC>
66.310921

>  <a_ICM>
1.5070664

>  <a_nB>
0

>  <a_nBr>
0

>  <a_nC>
19

>  <a_nCl>
0

>  <a_nF>
0

>  <a_nH>
20

>  <a_nI>
0

>  <a_nN>
2

>  <a_nO>
3

>  <a_nP>
0

>  <a_nS>
0

>  <balabanJ>
1.2048131

>  <BCUT_PEOE_0>
-2.920296

>  <BCUT_PEOE_1>
-0.59991395

>  <BCUT_PEOE_2>
0.66119289

>  <BCUT_PEOE_3>
2.89185

>  <BCUT_SLOGP_0>
-2.9720843

>  <BCUT_SLOGP_1>
-0.54598397

>  <BCUT_SLOGP_2>
0.71466351

>  <BCUT_SLOGP_3>
2.8675709

>  <BCUT_SMR_0>
-2.6637034

>  <BCUT_SMR_1>
-0.47437665

>  <BCUT_SMR_2>
0.78758699

>  <BCUT_SMR_3>
3.1448572

>  <bpol>
28.33614

>  <b_1rotN>
2

>  <b_1rotR>
0.071428575

>  <b_ar>
10

>  <b_count>
48

>  <b_double>
2

>  <b_heavy>
28

>  <b_max1len>
2

>  <b_rotN>
3

>  <b_rotR>
0.10714286

>  <b_single>
36

>  <b_triple>
0

>  <chi0>
16.258783

>  <chi0v>
13.403645

>  <chi0v_C>
11.231687

>  <chi0_C>
12.26722

>  <chi1>
11.686673

>  <chi1v>
8.7436161

>  <chi1v_C>
6.52424

>  <chi1_C>
7.7323127

>  <chiral>
2

>  <chiral_u>
2

>  <density>
0.75058025

>  <diameter>
13

>  <FCharge>
0

>  <GCUT_PEOE_0>
-0.86010247

>  <GCUT_PEOE_1>
-0.40096828

>  <GCUT_PEOE_2>
0.068868525

>  <GCUT_PEOE_3>
2.9092419

>  <GCUT_SLOGP_0>
-0.95544523

>  <GCUT_SLOGP_1>
-0.33447856

>  <GCUT_SLOGP_2>
0.1379797

>  <GCUT_SLOGP_3>
2.9145954

>  <GCUT_SMR_0>
-0.51848352

>  <GCUT_SMR_1>
-0.23722938

>  <GCUT_SMR_2>
0.16920164

>  <GCUT_SMR_3>
3.1457305

>  <Kier1>
16.193878

>  <Kier2>
6.3106575

>  <Kier3>
2.8233333

>  <KierA1>
12.708759

>  <KierA2>
4.8967171

>  <KierA3>
2.1729269

>  <KierFlex>
2.5929666

>  <lip_acc>
5

>  <lip_don>
1

>  <lip_druglike>
1

>  <lip_violation>
0

>  <logP(o/w)>
2.665

>  <logS>
-3.29583

>  <mr>
8.9671106

>  <mutagenic>
0

>  <nmol>
1

>  <opr_brigid>
23

>  <opr_leadlike>
1

>  <opr_nring>
5

>  <opr_nrot>
2

>  <opr_violation>
1

>  <PC+>
0

>  <PC->
0

>  <PEOE_PC+>
1.7981433

>  <PEOE_PC->
-1.7981433

>  <PEOE_RPC+>
0.16467197

>  <PEOE_RPC->
0.20013906

>  <PEOE_VSA+0>
78.865173

>  <PEOE_VSA+1>
54.428883

>  <PEOE_VSA+2>
0

>  <PEOE_VSA+3>
17.077532

>  <PEOE_VSA+4>
0

>  <PEOE_VSA+5>
14.708499

>  <PEOE_VSA+6>
0

>  <PEOE_VSA-0>
47.060158

>  <PEOE_VSA-1>
36.764713

>  <PEOE_VSA-2>
0

>  <PEOE_VSA-3>
0

>  <PEOE_VSA-4>
0

>  <PEOE_VSA-5>
27.133842

>  <PEOE_VSA-6>
2.6406472

>  <PEOE_VSA_FHYD>
0.84037936

>  <PEOE_VSA_FNEG>
0.4076345

>  <PEOE_VSA_FPNEG>
0.10684136

>  <PEOE_VSA_FPOL>
0.15962063

>  <PEOE_VSA_FPOS>
0.5923655

>  <PEOE_VSA_FPPOS>
0.052779276

>  <PEOE_VSA_HYD>
234.19646

>  <PEOE_VSA_NEG>
113.59936

>  <PEOE_VSA_PNEG>
29.774488

>  <PEOE_VSA_POL>
44.482986

>  <PEOE_VSA_POS>
165.08009

>  <PEOE_VSA_PPOS>
14.708499

>  <petitjean>
0.46153846

>  <petitjeanSC>
0.85714287

>  <Q_PC+>
0

>  <Q_PC->
0

>  <Q_RPC+>
0

>  <Q_RPC->
0

>  <Q_VSA_FHYD>
1

>  <Q_VSA_FNEG>
0

>  <Q_VSA_FPNEG>
0

>  <Q_VSA_FPOL>
0

>  <Q_VSA_FPOS>
1

>  <Q_VSA_FPPOS>
0

>  <Q_VSA_HYD>
278.67944

>  <Q_VSA_NEG>
0

>  <Q_VSA_PNEG>
0

>  <Q_VSA_POL>
0

>  <Q_VSA_POS>
278.67944

>  <Q_VSA_PPOS>
0

>  <radius>
7

>  <reactive>
1

>  <rings>
5

>  <RPC+>
0

>  <RPC->
0

>  <rsynth>
0.45833334

>  <SlogP>
2.5190001

>  <SlogP_VSA0>
0

>  <SlogP_VSA1>
16.557388

>  <SlogP_VSA2>
66.080223

>  <SlogP_VSA3>
18.439579

>  <SlogP_VSA4>
31.458588

>  <SlogP_VSA5>
0

>  <SlogP_VSA6>
0

>  <SlogP_VSA7>
92.504196

>  <SlogP_VSA8>
75.473625

>  <SlogP_VSA9>
0

>  <SMR>
8.8749199

>  <SMR_VSA0>
58.724319

>  <SMR_VSA1>
3.1243138

>  <SMR_VSA2>
21.196325

>  <SMR_VSA3>
17.618162

>  <SMR_VSA4>
4.7171016

>  <SMR_VSA5>
163.26071

>  <SMR_VSA6>
31.872654

>  <SMR_VSA7>
0

>  <TPSA>
62.400002

>  <VAdjEq>
0.46012789

>  <VAdjMa>
5.8073549

>  <VDistEq>
3.4018753

>  <VDistMa>
8.8495045

>  <vdw_area>
278.67944

>  <vdw_vol>
432.17227

>  <vsa_acc>
27.133842

>  <vsa_acid>
0

>  <vsa_base>
0

>  <vsa_don>
5.6825762

>  <vsa_hyd>
202.24976

>  <vsa_other>
25.670774

>  <vsa_pol>
32.816418

>  <Weight>
324.38

>  <weinerPath>
1368

>  <weinerPol>
41

>  <zagreb>
140

$$$$