FC12C(C3CC(C)C(O)(C(=O)CO)C3(CC1O)C)CC(F)C1=CC(=O)C=CC12C
  MOE2013           2D

 29 32  0  0  1  0  0  0  0  0999 V2000
    0.0000    0.0000    0.0000 F   0  0  0  0  0  0  0  0  0  0  0  0
    1.5000   -0.0020    0.0000 C   0  0  3  0  0  0  0  0  0  0  0  0
    0.7510    1.2980    0.0000 C   0  0  3  0  0  0  0  0  0  0  0  0
   -0.7490    1.3000    0.0000 C   0  0  3  0  0  0  0  0  0  0  0  0
   -1.7510    2.4160    0.0000 C   0  0  0  0  0  0  0  0  0  0  0  0
   -3.1220    1.8070    0.0000 C   0  0  3  0  0  0  0  0  0  0  0  0
   -4.4200    2.5590    0.0000 C   0  0  0  0  0  0  0  0  0  0  0  0
   -2.9670    0.3150    0.0000 C   0  0  3  0  0  0  0  0  0  0  0  0
   -3.4570   -1.1030    0.0000 O   0  0  0  0  0  0  0  0  0  0  0  0
   -4.4490    0.0820    0.0000 C   0  0  0  0  0  0  0  0  0  0  0  0
   -5.3910    1.2490    0.0000 O   0  0  0  0  0  0  0  0  0  0  0  0
   -4.9880   -1.3180    0.0000 C   0  0  0  0  0  0  0  0  0  0  0  0
   -6.4700   -1.5510    0.0000 O   0  0  0  0  0  0  0  0  0  0  0  0
   -1.5000    0.0020    0.0000 C   0  0  3  0  0  0  0  0  0  0  0  0
   -0.7510   -1.2980    0.0000 C   0  0  0  0  0  0  0  0  0  0  0  0
    0.7490   -1.3000    0.0000 C   0  0  3  0  0  0  0  0  0  0  0  0
    1.4970   -2.6000    0.0000 O   0  0  0  0  0  0  0  0  0  0  0  0
   -2.3620   -1.2260    0.0000 C   0  0  0  0  0  0  0  0  0  0  0  0
    1.5030    2.5960    0.0000 C   0  0  0  0  0  0  0  0  0  0  0  0
    3.0030    2.5950    0.0000 C   0  0  3  0  0  0  0  0  0  0  0  0
    3.7540    3.8930    0.0000 F   0  0  0  0  0  0  0  0  0  0  0  0
    3.7510    1.2950    0.0000 C   0  0  0  0  0  0  0  0  0  0  0  0
    5.2510    1.2930    0.0000 C   0  0  0  0  0  0  0  0  0  0  0  0
    6.0000   -0.0070    0.0000 C   0  0  0  0  0  0  0  0  0  0  0  0
    7.5000   -0.0080    0.0000 O   0  0  0  0  0  0  0  0  0  0  0  0
    5.2490   -1.3050    0.0000 C   0  0  0  0  0  0  0  0  0  0  0  0
    3.7490   -1.3030    0.0000 C   0  0  0  0  0  0  0  0  0  0  0  0
    3.0000   -0.0030    0.0000 C   0  0  3  0  0  0  0  0  0  0  0  0
    2.2490   -1.3020    0.0000 C   0  0  0  0  0  0  0  0  0  0  0  0
  1  2  1  0  0  0  0
  2  3  1  0  0  0  0
  2 16  1  0  0  0  0
  2 28  1  0  0  0  0
  3  4  1  0  0  0  0
  3 19  1  0  0  0  0
  4  5  1  0  0  0  0
  4 14  1  0  0  0  0
  5  6  1  0  0  0  0
  6  7  1  0  0  0  0
  6  8  1  0  0  0  0
  8  9  1  0  0  0  0
  8 10  1  0  0  0  0
  8 14  1  0  0  0  0
 10 11  2  0  0  0  0
 10 12  1  0  0  0  0
 12 13  1  0  0  0  0
 14 15  1  0  0  0  0
 14 18  1  0  0  0  0
 15 16  1  0  0  0  0
 16 17  1  0  0  0  0
 19 20  1  0  0  0  0
 20 21  1  0  0  0  0
 20 22  1  0  0  0  0
 22 23  2  0  0  0  0
 22 28  1  0  0  0  0
 23 24  1  0  0  0  0
 24 25  2  0  0  0  0
 24 26  1  0  0  0  0
 26 27  2  0  0  0  0
 27 28  1  0  0  0  0
 28 29  1  0  0  0  0
M  END
>  <Index>
320

>  <ID>
HT0660

>  <class>
0

>  <apol>
62.514202

>  <ast_fraglike>
0

>  <ast_fraglike_ext>
0

>  <ast_violation>
2

>  <ast_violation_ext>
3

>  <a_acc>
5

>  <a_acid>
0

>  <a_aro>
0

>  <a_base>
0

>  <a_count>
57

>  <a_don>
3

>  <a_donacc>
8

>  <a_heavy>
29

>  <a_hyd>
22

>  <a_IC>
86.151657

>  <a_ICM>
1.5114325

>  <a_nB>
0

>  <a_nBr>
0

>  <a_nC>
22

>  <a_nCl>
0

>  <a_nF>
2

>  <a_nH>
28

>  <a_nI>
0

>  <a_nN>
0

>  <a_nO>
5

>  <a_nP>
0

>  <a_nS>
0

>  <balabanJ>
1.8039637

>  <BCUT_PEOE_0>
-2.8909495

>  <BCUT_PEOE_1>
-0.51589698

>  <BCUT_PEOE_2>
0.55112875

>  <BCUT_PEOE_3>
3.0042021

>  <BCUT_SLOGP_0>
-2.9306717

>  <BCUT_SLOGP_1>
-0.46510884

>  <BCUT_SLOGP_2>
0.51489425

>  <BCUT_SLOGP_3>
2.9908712

>  <BCUT_SMR_0>
-2.6710148

>  <BCUT_SMR_1>
-0.38275832

>  <BCUT_SMR_2>
0.67382616

>  <BCUT_SMR_3>
3.2266018

>  <bpol>
34.931797

>  <b_1rotN>
2

>  <b_1rotR>
0.0625

>  <b_ar>
0

>  <b_count>
60

>  <b_double>
4

>  <b_heavy>
32

>  <b_max1len>
6

>  <b_rotN>
2

>  <b_rotR>
0.0625

>  <b_single>
56

>  <b_triple>
0

>  <chi0>
21.56855

>  <chi0v>
16.861296

>  <chi0v_C>
13.947229

>  <chi0_C>
14.568549

>  <chi1>
13.373917

>  <chi1v>
10.203923

>  <chi1v_C>
8.5904417

>  <chi1_C>
9.3574095

>  <chiral>
9

>  <chiral_u>
9

>  <density>
0.79214483

>  <diameter>
12

>  <FCharge>
0

>  <GCUT_PEOE_0>
-0.78960323

>  <GCUT_PEOE_1>
-0.4107641

>  <GCUT_PEOE_2>
0.032922644

>  <GCUT_PEOE_3>
3.3789835

>  <GCUT_SLOGP_0>
-0.94866204

>  <GCUT_SLOGP_1>
-0.34713683

>  <GCUT_SLOGP_2>
0.016193736

>  <GCUT_SLOGP_3>
3.3907607

>  <GCUT_SMR_0>
-0.53789568

>  <GCUT_SMR_1>
-0.22392744

>  <GCUT_SMR_2>
0.15362336

>  <GCUT_SMR_3>
3.5912027

>  <Kier1>
22.203125

>  <Kier2>
6.7477684

>  <Kier3>
2.5007267

>  <KierA1>
19.418018

>  <KierA2>
5.8717823

>  <KierA3>
2.1680515

>  <KierFlex>
3.9316683

>  <lip_acc>
5

>  <lip_don>
3

>  <lip_druglike>
1

>  <lip_violation>
0

>  <logP(o/w)>
2.299

>  <logS>
-3.3074501

>  <mr>
10.148273

>  <mutagenic>
0

>  <nmol>
1

>  <opr_brigid>
20

>  <opr_leadlike>
1

>  <opr_nring>
4

>  <opr_nrot>
2

>  <opr_violation>
0

>  <PC+>
0

>  <PC->
0

>  <PEOE_PC+>
2.6000941

>  <PEOE_PC->
-2.6000941

>  <PEOE_RPC+>
0.081064396

>  <PEOE_RPC->
0.14944866

>  <PEOE_VSA+0>
76.776947

>  <PEOE_VSA+1>
34.76263

>  <PEOE_VSA+2>
20.418549

>  <PEOE_VSA+3>
16.917038

>  <PEOE_VSA+4>
30.972517

>  <PEOE_VSA+5>
0

>  <PEOE_VSA+6>
0

>  <PEOE_VSA-0>
71.569962

>  <PEOE_VSA-1>
49.750259

>  <PEOE_VSA-2>
0

>  <PEOE_VSA-3>
0

>  <PEOE_VSA-4>
23.817272

>  <PEOE_VSA-5>
27.133842

>  <PEOE_VSA-6>
23.30262

>  <PEOE_VSA_FHYD>
0.71971184

>  <PEOE_VSA_FNEG>
0.52094483

>  <PEOE_VSA_FPNEG>
0.19778757

>  <PEOE_VSA_FPOL>
0.28028819

>  <PEOE_VSA_FPOS>
0.4790552

>  <PEOE_VSA_FPPOS>
0.082500622

>  <PEOE_VSA_HYD>
270.1954

>  <PEOE_VSA_NEG>
195.57396

>  <PEOE_VSA_PNEG>
74.253731

>  <PEOE_VSA_POL>
105.22625

>  <PEOE_VSA_POS>
179.84769

>  <PEOE_VSA_PPOS>
30.972517

>  <petitjean>
0.5

>  <petitjeanSC>
1

>  <Q_PC+>
0

>  <Q_PC->
0

>  <Q_RPC+>
0

>  <Q_RPC->
0

>  <Q_VSA_FHYD>
1

>  <Q_VSA_FNEG>
0

>  <Q_VSA_FPNEG>
0

>  <Q_VSA_FPOL>
0

>  <Q_VSA_FPOS>
1

>  <Q_VSA_FPPOS>
0

>  <Q_VSA_HYD>
375.42163

>  <Q_VSA_NEG>
0

>  <Q_VSA_PNEG>
0

>  <Q_VSA_POL>
0

>  <Q_VSA_POS>
375.42163

>  <Q_VSA_PPOS>
0

>  <radius>
6

>  <reactive>
1

>  <rings>
4

>  <RPC+>
0

>  <RPC->
0

>  <rsynth>
0.31034482

>  <SlogP>
1.8437001

>  <SlogP_VSA0>
76.155678

>  <SlogP_VSA1>
11.375222

>  <SlogP_VSA2>
64.539322

>  <SlogP_VSA3>
20.926258

>  <SlogP_VSA4>
13.232388

>  <SlogP_VSA5>
3.185575

>  <SlogP_VSA6>
0

>  <SlogP_VSA7>
52.929554

>  <SlogP_VSA8>
56.605217

>  <SlogP_VSA9>
129.89827

>  <SMR>
10.02234

>  <SMR_VSA0>
47.724434

>  <SMR_VSA1>
106.0759

>  <SMR_VSA2>
13.232388

>  <SMR_VSA3>
20.000463

>  <SMR_VSA4>
0

>  <SMR_VSA5>
109.53477

>  <SMR_VSA6>
32.301479

>  <SMR_VSA7>
99.978043

>  <TPSA>
94.830002

>  <VAdjEq>
0.38828552

>  <VAdjMa>
6

>  <VDistEq>
3.1509857

>  <VDistMa>
9.4700441

>  <vdw_area>
375.42163

>  <vdw_vol>
518.15906

>  <vsa_acc>
27.133842

>  <vsa_acid>
0

>  <vsa_base>
0

>  <vsa_don>
0

>  <vsa_hyd>
255.26558

>  <vsa_other>
16.917038

>  <vsa_pol>
67.834602

>  <Weight>
410.457

>  <weinerPath>
1810

>  <weinerPol>
73

>  <zagreb>
174

$$$$