ClC(F)C(F)(F)OC(F)F
  MOE2013           2D

 10  9  0  0  1  0  0  0  0  0999 V2000
    0.0000    0.0000    0.0000 Cl  0  0  0  0  0  0  0  0  0  0  0  0
    1.2970    0.7540    0.0000 C   0  0  3  0  0  0  0  0  0  0  0  0
    1.2920    2.2540    0.0000 F   0  0  0  0  0  0  0  0  0  0  0  0
    2.5980    0.0080    0.0000 C   0  0  0  0  0  0  0  0  0  0  0  0
    3.3440    1.3090    0.0000 F   0  0  0  0  0  0  0  0  0  0  0  0
    1.8520   -1.2940    0.0000 F   0  0  0  0  0  0  0  0  0  0  0  0
    3.8990   -0.7390    0.0000 O   0  0  0  0  0  0  0  0  0  0  0  0
    5.1960    0.0150    0.0000 C   0  0  0  0  0  0  0  0  0  0  0  0
    5.1920    1.5150    0.0000 F   0  0  0  0  0  0  0  0  0  0  0  0
    6.4970   -0.7310    0.0000 F   0  0  0  0  0  0  0  0  0  0  0  0
  1  2  1  0  0  0  0
  2  3  1  0  0  0  0
  2  4  1  0  0  0  0
  4  5  1  0  0  0  0
  4  6  1  0  0  0  0
  4  7  1  0  0  0  0
  7  8  1  0  0  0  0
  8  9  1  0  0  0  0
  8 10  1  0  0  0  0
M  END
>  <Index>
370

>  <ID>
HT0756

>  <class>
0

>  <apol>
12.380586

>  <ast_fraglike>
1

>  <ast_fraglike_ext>
1

>  <ast_violation>
0

>  <ast_violation_ext>
0

>  <a_acc>
1

>  <a_acid>
0

>  <a_aro>
0

>  <a_base>
0

>  <a_count>
12

>  <a_don>
0

>  <a_donacc>
1

>  <a_heavy>
10

>  <a_hyd>
9

>  <a_IC>
24.655022

>  <a_ICM>
2.0545852

>  <a_nB>
0

>  <a_nBr>
0

>  <a_nC>
3

>  <a_nCl>
1

>  <a_nF>
5

>  <a_nH>
2

>  <a_nI>
0

>  <a_nN>
0

>  <a_nO>
1

>  <a_nP>
0

>  <a_nS>
0

>  <balabanJ>
3.8655589

>  <BCUT_PEOE_0>
-2.2596104

>  <BCUT_PEOE_1>
-0.19044328

>  <BCUT_PEOE_2>
0.031289548

>  <BCUT_PEOE_3>
2.5529995

>  <BCUT_SLOGP_0>
-2.4344285

>  <BCUT_SLOGP_1>
0.19592203

>  <BCUT_SLOGP_2>
0.46929717

>  <BCUT_SLOGP_3>
2.3895116

>  <BCUT_SMR_0>
-2.1656883

>  <BCUT_SMR_1>
0.10780989

>  <BCUT_SMR_2>
0.21445942

>  <BCUT_SMR_3>
2.6207893

>  <bpol>
10.537414

>  <b_1rotN>
3

>  <b_1rotR>
0.33333334

>  <b_ar>
0

>  <b_count>
11

>  <b_double>
0

>  <b_heavy>
9

>  <b_max1len>
5

>  <b_rotN>
3

>  <b_rotR>
0.33333334

>  <b_single>
11

>  <b_triple>
0

>  <chi0>
8.3618069

>  <chi0v>
5.0866647

>  <chi0v_C>
1.6547005

>  <chi0_C>
1.6547005

>  <chi1>
4.3598781

>  <chi1v>
2.4157734

>  <chi1v_C>
0.28867513

>  <chi1_C>
0.28867513

>  <chiral>
1

>  <chiral_u>
1

>  <density>
1.4245071

>  <diameter>
5

>  <FCharge>
0

>  <GCUT_PEOE_0>
-0.62494206

>  <GCUT_PEOE_1>
-0.35696682

>  <GCUT_PEOE_2>
-0.12182252

>  <GCUT_PEOE_3>
1.861782

>  <GCUT_SLOGP_0>
-0.85274458

>  <GCUT_SLOGP_1>
0.00075019948

>  <GCUT_SLOGP_2>
0.30142823

>  <GCUT_SLOGP_3>
1.8544455

>  <GCUT_SMR_0>
-0.50687307

>  <GCUT_SMR_1>
-0.069301099

>  <GCUT_SMR_2>
0.045856263

>  <GCUT_SMR_3>
1.9692041

>  <Kier1>
10

>  <Kier2>
3.4082839

>  <Kier3>
3.7024794

>  <KierA1>
10.530339

>  <KierA2>
3.611275

>  <KierA3>
3.9427822

>  <KierFlex>
3.8027949

>  <lip_acc>
1

>  <lip_don>
0

>  <lip_druglike>
1

>  <lip_violation>
0

>  <logP(o/w)>
2.3497601

>  <logS>
-1.54605

>  <mr>
2.3264358

>  <mutagenic>
1

>  <nmol>
1

>  <opr_brigid>
0

>  <opr_leadlike>
1

>  <opr_nring>
0

>  <opr_nrot>
3

>  <opr_violation>
0

>  <PC+>
0

>  <PC->
0

>  <PEOE_PC+>
1.2478975

>  <PEOE_PC->
-1.2478975

>  <PEOE_RPC+>
0.32525727

>  <PEOE_RPC->
0.20456487

>  <PEOE_VSA+0>
0

>  <PEOE_VSA+1>
4.2653861

>  <PEOE_VSA+2>
4.2653861

>  <PEOE_VSA+3>
0

>  <PEOE_VSA+4>
0

>  <PEOE_VSA+5>
7.7784615

>  <PEOE_VSA+6>
27.012716

>  <PEOE_VSA-0>
0

>  <PEOE_VSA-1>
29.581947

>  <PEOE_VSA-2>
0

>  <PEOE_VSA-3>
47.634544

>  <PEOE_VSA-4>
11.908636

>  <PEOE_VSA-5>
2.503756

>  <PEOE_VSA-6>
0

>  <PEOE_VSA_FHYD>
0.6353963

>  <PEOE_VSA_FNEG>
0.67897975

>  <PEOE_VSA_FPNEG>
0.10679735

>  <PEOE_VSA_FPOL>
0.36460367

>  <PEOE_VSA_FPOS>
0.32102025

>  <PEOE_VSA_FPPOS>
0.25780633

>  <PEOE_VSA_HYD>
85.747261

>  <PEOE_VSA_NEG>
91.628883

>  <PEOE_VSA_PNEG>
14.412392

>  <PEOE_VSA_POL>
49.203571

>  <PEOE_VSA_POS>
43.321949

>  <PEOE_VSA_PPOS>
34.79118

>  <petitjean>
0.40000001

>  <petitjeanSC>
0.66666669

>  <Q_PC+>
0

>  <Q_PC->
0

>  <Q_RPC+>
0

>  <Q_RPC->
0

>  <Q_VSA_FHYD>
1

>  <Q_VSA_FNEG>
0

>  <Q_VSA_FPNEG>
0

>  <Q_VSA_FPOL>
0

>  <Q_VSA_FPOS>
1

>  <Q_VSA_FPPOS>
0

>  <Q_VSA_HYD>
134.95084

>  <Q_VSA_NEG>
0

>  <Q_VSA_PNEG>
0

>  <Q_VSA_POL>
0

>  <Q_VSA_POS>
134.95084

>  <Q_VSA_PPOS>
0

>  <radius>
3

>  <reactive>
1

>  <rings>
0

>  <RPC+>
0

>  <RPC->
0

>  <rsynth>
1

>  <SlogP>
2.3527999

>  <SlogP_VSA0>
0

>  <SlogP_VSA1>
3.8819261

>  <SlogP_VSA2>
40.000694

>  <SlogP_VSA3>
0

>  <SlogP_VSA4>
0

>  <SlogP_VSA5>
0

>  <SlogP_VSA6>
0

>  <SlogP_VSA7>
0

>  <SlogP_VSA8>
0

>  <SlogP_VSA9>
113.94921

>  <SMR>
2.2785001

>  <SMR_VSA0>
10.999887

>  <SMR_VSA1>
74.800568

>  <SMR_VSA2>
3.8819261

>  <SMR_VSA3>
29.000807

>  <SMR_VSA4>
0

>  <SMR_VSA5>
0

>  <SMR_VSA6>
0

>  <SMR_VSA7>
39.148643

>  <TPSA>
9.2299995

>  <VAdjEq>
0.68007702

>  <VAdjMa>
4.1699252

>  <VDistEq>
2.2321022

>  <VDistMa>
6.3340378

>  <vdw_area>
134.95084

>  <vdw_vol>
129.51216

>  <vsa_acc>
2.503756

>  <vsa_acid>
0

>  <vsa_base>
0

>  <vsa_don>
0

>  <vsa_hyd>
131.02348

>  <vsa_other>
0

>  <vsa_pol>
2.503756

>  <Weight>
184.491

>  <weinerPath>
120

>  <weinerPol>
11

>  <zagreb>
44

$$$$