S([C@H]1C[C@H](NC1)C(=O)Nc1cc(ccc1)C(O)=O)C=1[C@@H]([C@H]2N(C=1C(O)=O)C(=O)[C@@H]2[C@H](O)C)C
  MOE2013           2D

 33 36  0  0  1  0  0  0  0  0999 V2000
    0.0000    0.0000    0.0000 S   0  0  0  0  0  0  0  0  0  0  0  0
    1.4850    0.2090    0.0000 C   0  0  1  0  0  0  0  0  0  0  0  0
    2.5280   -0.8690    0.0000 C   0  0  0  0  0  0  0  0  0  0  0  0
    3.8760   -0.2110    0.0000 C   0  0  2  0  0  0  0  0  0  0  0  0
    3.6660    1.2740    0.0000 N   0  0  0  0  0  0  0  0  0  0  0  0
    2.1890    1.5340    0.0000 C   0  0  0  0  0  0  0  0  0  0  0  0
    5.2000   -0.9150    0.0000 C   0  0  0  0  0  0  0  0  0  0  0  0
    5.2530   -2.4140    0.0000 O   0  0  0  0  0  0  0  0  0  0  0  0
    6.4720   -0.1200    0.0000 N   0  0  0  0  0  0  0  0  0  0  0  0
    7.7970   -0.8240    0.0000 C   0  0  0  0  0  0  0  0  0  0  0  0
    9.0690   -0.0280    0.0000 C   0  0  0  0  0  0  0  0  0  0  0  0
   10.3930   -0.7320    0.0000 C   0  0  0  0  0  0  0  0  0  0  0  0
   10.4460   -2.2310    0.0000 C   0  0  0  0  0  0  0  0  0  0  0  0
    9.1740   -3.0260    0.0000 C   0  0  0  0  0  0  0  0  0  0  0  0
    7.8500   -2.3230    0.0000 C   0  0  0  0  0  0  0  0  0  0  0  0
   11.6650    0.0630    0.0000 C   0  0  0  0  0  0  0  0  0  0  0  0
   11.6120    1.5620    0.0000 O   0  0  0  0  0  0  0  0  0  0  0  0
   12.9900   -0.6400    0.0000 O   0  0  0  0  0  0  0  0  0  0  0  0
   -0.9240    1.1820    0.0000 C   0  0  0  0  0  0  0  0  0  0  0  0
   -0.5110    2.6240    0.0000 C   0  0  1  0  0  0  0  0  0  0  0  0
   -1.7550    3.4620    0.0000 C   0  0  1  0  0  0  0  0  0  0  0  0
   -2.9360    2.5380    0.0000 N   0  0  0  0  0  0  0  0  0  0  0  0
   -2.4230    1.1290    0.0000 C   0  0  0  0  0  0  0  0  0  0  0  0
   -3.2610   -0.1150    0.0000 C   0  0  0  0  0  0  0  0  0  0  0  0
   -4.7580   -0.0110    0.0000 O   0  0  0  0  0  0  0  0  0  0  0  0
   -2.6030   -1.4630    0.0000 O   0  0  0  0  0  0  0  0  0  0  0  0
   -3.8600    3.7200    0.0000 C   0  0  0  0  0  0  0  0  0  0  0  0
   -5.3490    3.9020    0.0000 O   0  0  0  0  0  0  0  0  0  0  0  0
   -2.6790    4.6440    0.0000 C   0  0  2  0  0  0  0  0  0  0  0  0
   -2.4960    6.1330    0.0000 C   0  0  2  0  0  0  0  0  0  0  0  0
   -1.1160    6.7190    0.0000 O   0  0  0  0  0  0  0  0  0  0  0  0
   -3.6950    7.0350    0.0000 C   0  0  0  0  0  0  0  0  0  0  0  0
    0.8980    3.1370    0.0000 C   0  0  0  0  0  0  0  0  0  0  0  0
  1 19  1  0  0  0  0
  2  1  1  6  0  0  0
  2  3  1  0  0  0  0
  2  6  1  0  0  0  0
  3  4  1  0  0  0  0
  4  5  1  0  0  0  0
  4  7  1  6  0  0  0
  5  6  1  0  0  0  0
  7  8  2  0  0  0  0
  7  9  1  0  0  0  0
  9 10  1  0  0  0  0
 10 11  2  0  0  0  0
 10 15  1  0  0  0  0
 11 12  1  0  0  0  0
 12 13  2  0  0  0  0
 12 16  1  0  0  0  0
 13 14  1  0  0  0  0
 14 15  2  0  0  0  0
 16 17  1  0  0  0  0
 16 18  2  0  0  0  0
 19 20  1  0  0  0  0
 19 23  2  0  0  0  0
 20 21  1  0  0  0  0
 20 33  1  1  0  0  0
 21 22  1  1  0  0  0
 21 29  1  0  0  0  0
 22 23  1  0  0  0  0
 22 27  1  0  0  0  0
 23 24  1  0  0  0  0
 24 25  1  0  0  0  0
 24 26  2  0  0  0  0
 27 28  2  0  0  0  0
 29 27  1  6  0  0  0
 29 30  1  0  0  0  0
 30 31  1  1  0  0  0
 30 32  1  0  0  0  0
M  END
>  <Index>
387

>  <ID>
HT0782

>  <class>
0

>  <apol>
67.203827

>  <ast_fraglike>
0

>  <ast_fraglike_ext>
0

>  <ast_violation>
3

>  <ast_violation_ext>
5

>  <a_acc>
8

>  <a_acid>
0

>  <a_aro>
6

>  <a_base>
0

>  <a_count>
58

>  <a_don>
7

>  <a_donacc>
15

>  <a_heavy>
33

>  <a_hyd>
19

>  <a_IC>
101.15263

>  <a_ICM>
1.7440108

>  <a_nB>
0

>  <a_nBr>
0

>  <a_nC>
22

>  <a_nCl>
0

>  <a_nF>
0

>  <a_nH>
25

>  <a_nI>
0

>  <a_nN>
3

>  <a_nO>
7

>  <a_nP>
0

>  <a_nS>
1

>  <balabanJ>
1.327442

>  <BCUT_PEOE_0>
-2.7329807

>  <BCUT_PEOE_1>
-0.61550808

>  <BCUT_PEOE_2>
0.67458594

>  <BCUT_PEOE_3>
2.8366892

>  <BCUT_SLOGP_0>
-2.860635

>  <BCUT_SLOGP_1>
-0.55153531

>  <BCUT_SLOGP_2>
0.64739347

>  <BCUT_SLOGP_3>
2.7706907

>  <BCUT_SMR_0>
-2.4990609

>  <BCUT_SMR_1>
-0.46157768

>  <BCUT_SMR_2>
0.81985092

>  <BCUT_SMR_3>
3.0885768

>  <bpol>
36.742176

>  <b_1rotN>
7

>  <b_1rotR>
0.19444445

>  <b_ar>
6

>  <b_count>
61

>  <b_double>
5

>  <b_heavy>
36

>  <b_max1len>
4

>  <b_rotN>
8

>  <b_rotR>
0.22222222

>  <b_single>
50

>  <b_triple>
0

>  <chi0>
24.024216

>  <chi0v>
18.834309

>  <chi0v_C>
13.187716

>  <chi0_C>
14.325544

>  <chi1>
15.595132

>  <chi1v>
11.505867

>  <chi1v_C>
6.8168378

>  <chi1_C>
8.0124388

>  <chiral>
6

>  <chiral_u>
0

>  <density>
0.82657963

>  <diameter>
16

>  <FCharge>
0

>  <GCUT_PEOE_0>
-0.84248662

>  <GCUT_PEOE_1>
-0.48974499

>  <GCUT_PEOE_2>
0.10882714

>  <GCUT_PEOE_3>
2.874233

>  <GCUT_SLOGP_0>
-1.15889

>  <GCUT_SLOGP_1>
-0.40455785

>  <GCUT_SLOGP_2>
0.1501696

>  <GCUT_SLOGP_3>
2.8642952

>  <GCUT_SMR_0>
-0.54824144

>  <GCUT_SMR_1>
-0.24103613

>  <GCUT_SMR_2>
0.23741056

>  <GCUT_SMR_3>
3.1359768

>  <Kier1>
26.074074

>  <Kier2>
10.545954

>  <Kier3>
5.1199999

>  <KierA1>
21.720015

>  <KierA2>
8.7321682

>  <KierA3>
4.2208815

>  <KierFlex>
5.7473583

>  <lip_acc>
10

>  <lip_don>
5

>  <lip_druglike>
1

>  <lip_violation>
0

>  <logP(o/w)>
0.57499999

>  <logS>
-3.62766

>  <mr>
11.949078

>  <mutagenic>
0

>  <nmol>
1

>  <opr_brigid>
19

>  <opr_leadlike>
0

>  <opr_nring>
4

>  <opr_nrot>
8

>  <opr_violation>
2

>  <PC+>
0

>  <PC->
0

>  <PEOE_PC+>
3.4398634

>  <PEOE_PC->
-3.4398634

>  <PEOE_RPC+>
0.08973971

>  <PEOE_RPC->
0.11373414

>  <PEOE_VSA+0>
82.366043

>  <PEOE_VSA+1>
41.05455

>  <PEOE_VSA+2>
15.318564

>  <PEOE_VSA+3>
8.6190128

>  <PEOE_VSA+4>
56.871578

>  <PEOE_VSA+5>
14.708499

>  <PEOE_VSA+6>
14.708499

>  <PEOE_VSA-0>
64.213699

>  <PEOE_VSA-1>
31.002581

>  <PEOE_VSA-2>
19.760618

>  <PEOE_VSA-3>
0

>  <PEOE_VSA-4>
0

>  <PEOE_VSA-5>
54.267685

>  <PEOE_VSA-6>
23.576403

>  <PEOE_VSA_FHYD>
0.61513466

>  <PEOE_VSA_FNEG>
0.452135

>  <PEOE_VSA_FPNEG>
0.18253218

>  <PEOE_VSA_FPOL>
0.38486537

>  <PEOE_VSA_FPOS>
0.54786503

>  <PEOE_VSA_FPPOS>
0.2023332

>  <PEOE_VSA_HYD>
262.33508

>  <PEOE_VSA_NEG>
192.82098

>  <PEOE_VSA_PNEG>
77.844086

>  <PEOE_VSA_POL>
164.13266

>  <PEOE_VSA_POS>
233.64676

>  <PEOE_VSA_PPOS>
86.288582

>  <petitjean>
0.5

>  <petitjeanSC>
1

>  <Q_PC+>
0

>  <Q_PC->
0

>  <Q_RPC+>
0

>  <Q_RPC->
0

>  <Q_VSA_FHYD>
1

>  <Q_VSA_FNEG>
0

>  <Q_VSA_FPNEG>
0

>  <Q_VSA_FPOL>
0

>  <Q_VSA_FPOS>
1

>  <Q_VSA_FPPOS>
0

>  <Q_VSA_HYD>
426.46774

>  <Q_VSA_NEG>
0

>  <Q_VSA_PNEG>
0

>  <Q_VSA_POL>
0

>  <Q_VSA_POS>
426.46774

>  <Q_VSA_PPOS>
0

>  <radius>
8

>  <reactive>
0

>  <rings>
4

>  <RPC+>
0

>  <RPC->
0

>  <rsynth>
1

>  <SlogP>
0.94069999

>  <SlogP_VSA0>
43.395977

>  <SlogP_VSA1>
47.143559

>  <SlogP_VSA2>
88.795189

>  <SlogP_VSA3>
69.21003

>  <SlogP_VSA4>
35.869385

>  <SlogP_VSA5>
4.3074813

>  <SlogP_VSA6>
0

>  <SlogP_VSA7>
70.572739

>  <SlogP_VSA8>
18.868406

>  <SlogP_VSA9>
101.62832

>  <SMR>
11.94493

>  <SMR_VSA0>
95.448868

>  <SMR_VSA1>
28.509541

>  <SMR_VSA2>
77.602798

>  <SMR_VSA3>
24.701597

>  <SMR_VSA4>
20.767498

>  <SMR_VSA5>
89.441139

>  <SMR_VSA6>
44.448074

>  <SMR_VSA7>
98.871574

>  <TPSA>
156.27

>  <VAdjEq>
0.3512581

>  <VAdjMa>
6.1699252

>  <VDistEq>
3.8193753

>  <VDistMa>
9.7797899

>  <vdw_area>
426.46774

>  <vdw_vol>
575.28882

>  <vsa_acc>
27.133842

>  <vsa_acid>
0

>  <vsa_base>
0

>  <vsa_don>
5.6825762

>  <vsa_hyd>
228.17104

>  <vsa_other>
55.316059

>  <vsa_pol>
106.3336

>  <Weight>
475.522

>  <weinerPath>
3464

>  <weinerPol>
54

>  <zagreb>
180

$$$$