O(C(=O)N)C1(CCCCC1)C#C
  MOE2013           2D

 12 12  0  0  0  0  0  0  0  0999 V2000
    0.0000    0.0000    0.0000 O   0  0  0  0  0  0  0  0  0  0  0  0
    0.7400    1.3050    0.0000 C   0  0  0  0  0  0  0  0  0  0  0  0
   -0.0190    2.5980    0.0000 O   0  0  0  0  0  0  0  0  0  0  0  0
    2.2400    1.3160    0.0000 N   0  0  0  0  0  0  0  0  0  0  0  0
   -1.5000   -0.0110    0.0000 C   0  0  0  0  0  0  0  0  0  0  0  0
   -2.7930   -0.7710    0.0000 C   0  0  0  0  0  0  0  0  0  0  0  0
   -4.0980   -0.0300    0.0000 C   0  0  0  0  0  0  0  0  0  0  0  0
   -4.1090    1.4700    0.0000 C   0  0  0  0  0  0  0  0  0  0  0  0
   -2.8150    2.2290    0.0000 C   0  0  0  0  0  0  0  0  0  0  0  0
   -1.5110    1.4890    0.0000 C   0  0  0  0  0  0  0  0  0  0  0  0
   -0.7400   -1.3050    0.0000 C   0  0  0  0  0  0  0  0  0  0  0  0
    0.0190   -2.5980    0.0000 C   0  0  0  0  0  0  0  0  0  0  0  0
  1  2  1  0  0  0  0
  1  5  1  0  0  0  0
  2  3  2  0  0  0  0
  2  4  1  0  0  0  0
  5  6  1  0  0  0  0
  5 10  1  0  0  0  0
  5 11  1  0  0  0  0
  6  7  1  0  0  0  0
  7  8  1  0  0  0  0
  8  9  1  0  0  0  0
  9 10  1  0  0  0  0
 11 12  3  0  0  0  0
M  END
>  <Index>
398

>  <ID>
HT0807

>  <class>
0

>  <apol>
27.212309

>  <ast_fraglike>
1

>  <ast_fraglike_ext>
0

>  <ast_violation>
0

>  <ast_violation_ext>
1

>  <a_acc>
1

>  <a_acid>
0

>  <a_aro>
0

>  <a_base>
0

>  <a_count>
25

>  <a_don>
1

>  <a_donacc>
2

>  <a_heavy>
12

>  <a_hyd>
8

>  <a_IC>
37.461365

>  <a_ICM>
1.4984546

>  <a_nB>
0

>  <a_nBr>
0

>  <a_nC>
9

>  <a_nCl>
0

>  <a_nF>
0

>  <a_nH>
13

>  <a_nI>
0

>  <a_nN>
1

>  <a_nO>
2

>  <a_nP>
0

>  <a_nS>
0

>  <balabanJ>
2.4880352

>  <BCUT_PEOE_0>
-2.7526894

>  <BCUT_PEOE_1>
-0.5535472

>  <BCUT_PEOE_2>
0.58682406

>  <BCUT_PEOE_3>
2.7432799

>  <BCUT_SLOGP_0>
-2.6951833

>  <BCUT_SLOGP_1>
-0.4939481

>  <BCUT_SLOGP_2>
0.6811747

>  <BCUT_SLOGP_3>
2.8356485

>  <BCUT_SMR_0>
-2.5173926

>  <BCUT_SMR_1>
-0.35012099

>  <BCUT_SMR_2>
0.76409483

>  <BCUT_SMR_3>
2.9771247

>  <bpol>
16.425692

>  <b_1rotN>
1

>  <b_1rotR>
0.083333336

>  <b_ar>
0

>  <b_count>
25

>  <b_double>
1

>  <b_heavy>
12

>  <b_max1len>
2

>  <b_rotN>
3

>  <b_rotR>
0.25

>  <b_single>
23

>  <b_triple>
1

>  <chi0>
9.0270977

>  <chi0v>
7.006731

>  <chi0v_C>
5.612884

>  <chi0_C>
6.3199911

>  <chi1>
5.684269

>  <chi1v>
4.1468296

>  <chi1v_C>
3.2457819

>  <chi1_C>
3.767767

>  <chiral>
0

>  <chiral_u>
0

>  <density>
0.71282542

>  <diameter>
6

>  <FCharge>
0

>  <GCUT_PEOE_0>
-0.79390371

>  <GCUT_PEOE_1>
-0.44111568

>  <GCUT_PEOE_2>
0.029286578

>  <GCUT_PEOE_3>
2.4600759

>  <GCUT_SLOGP_0>
-1.370317

>  <GCUT_SLOGP_1>
-0.28946823

>  <GCUT_SLOGP_2>
0.10474913

>  <GCUT_SLOGP_3>
2.5309117

>  <GCUT_SMR_0>
-0.52631968

>  <GCUT_SMR_1>
-0.21576634

>  <GCUT_SMR_2>
0.19548671

>  <GCUT_SMR_3>
2.6812978

>  <Kier1>
10.083333

>  <Kier2>
4.296875

>  <Kier3>
2.7777777

>  <KierA1>
7.8406377

>  <KierA2>
3.2567091

>  <KierA3>
2.0631523

>  <KierFlex>
2.1278896

>  <lip_acc>
3

>  <lip_don>
2

>  <lip_druglike>
1

>  <lip_violation>
0

>  <logP(o/w)>
1.824

>  <logS>
-2.33571

>  <mr>
4.6329556

>  <mutagenic>
0

>  <nmol>
1

>  <opr_brigid>
7

>  <opr_leadlike>
1

>  <opr_nring>
1

>  <opr_nrot>
4

>  <opr_violation>
0

>  <PC+>
0

>  <PC->
0

>  <PEOE_PC+>
1.2251109

>  <PEOE_PC->
-1.2251109

>  <PEOE_RPC+>
0.2934455

>  <PEOE_RPC->
0.28222477

>  <PEOE_VSA+0>
42.653858

>  <PEOE_VSA+1>
0

>  <PEOE_VSA+2>
4.2653861

>  <PEOE_VSA+3>
17.238026

>  <PEOE_VSA+4>
0

>  <PEOE_VSA+5>
0

>  <PEOE_VSA+6>
19.199511

>  <PEOE_VSA-0>
34.805252

>  <PEOE_VSA-1>
24.509808

>  <PEOE_VSA-2>
25.854858

>  <PEOE_VSA-3>
0

>  <PEOE_VSA-4>
13.566921

>  <PEOE_VSA-5>
2.503756

>  <PEOE_VSA-6>
6.6511192

>  <PEOE_VSA_FHYD>
0.78080189

>  <PEOE_VSA_FNEG>
0.56414413

>  <PEOE_VSA_FPNEG>
0.11880771

>  <PEOE_VSA_FPOL>
0.21919809

>  <PEOE_VSA_FPOS>
0.43585587

>  <PEOE_VSA_FPPOS>
0.10039039

>  <PEOE_VSA_HYD>
149.32719

>  <PEOE_VSA_NEG>
107.89172

>  <PEOE_VSA_PNEG>
22.721796

>  <PEOE_VSA_POL>
41.921307

>  <PEOE_VSA_POS>
83.356781

>  <PEOE_VSA_PPOS>
19.199511

>  <petitjean>
0.5

>  <petitjeanSC>
1

>  <Q_PC+>
0

>  <Q_PC->
0

>  <Q_RPC+>
0

>  <Q_RPC->
0

>  <Q_VSA_FHYD>
1

>  <Q_VSA_FNEG>
0

>  <Q_VSA_FPNEG>
0

>  <Q_VSA_FPOL>
0

>  <Q_VSA_FPOS>
1

>  <Q_VSA_FPPOS>
0

>  <Q_VSA_HYD>
191.2485

>  <Q_VSA_NEG>
0

>  <Q_VSA_PNEG>
0

>  <Q_VSA_POL>
0

>  <Q_VSA_POS>
191.2485

>  <Q_VSA_PPOS>
0

>  <radius>
3

>  <reactive>
0

>  <rings>
1

>  <RPC+>
0

>  <RPC->
0

>  <rsynth>
1

>  <SlogP>
1.4178081

>  <SlogP_VSA0>
32.897186

>  <SlogP_VSA1>
7.3166366

>  <SlogP_VSA2>
10.999887

>  <SlogP_VSA3>
17.030573

>  <SlogP_VSA4>
31.488184

>  <SlogP_VSA5>
0

>  <SlogP_VSA6>
0

>  <SlogP_VSA7>
0

>  <SlogP_VSA8>
94.342026

>  <SlogP_VSA9>
23.862217

>  <SMR>
4.5317402

>  <SMR_VSA0>
34.862103

>  <SMR_VSA1>
0

>  <SMR_VSA2>
0

>  <SMR_VSA3>
17.030573

>  <SMR_VSA4>
32.897186

>  <SMR_VSA5>
94.342026

>  <SMR_VSA6>
38.804821

>  <SMR_VSA7>
0

>  <TPSA>
52.32

>  <VAdjEq>
0.65002245

>  <VAdjMa>
4.5849624

>  <VDistEq>
2.4121423

>  <VDistMa>
6.8762913

>  <vdw_area>
191.2485

>  <vdw_vol>
234.57074

>  <vsa_acc>
13.566921

>  <vsa_acid>
0

>  <vsa_base>
0

>  <vsa_don>
17.742489

>  <vsa_hyd>
124.25941

>  <vsa_other>
21.703266

>  <vsa_pol>
31.30941

>  <Weight>
167.20799

>  <weinerPath>
193

>  <weinerPol>
15

>  <zagreb>
56

$$$$