O1CC(=CC1=O)[C@H]1CC[C@]2(O)[C@H]3[C@H](C[C@@H](O)[C@]12C)[C@@]1([C@@H](C[C@@H](O[C@@H]2O[C@H](C)[C@@H](O[C@@H]4O[C@H](C)[C@@H](O[C@@H]5O[C@H](C)[C@@H](O)[C@@H](O)C5)[C@@H](O)C4)[C@@H](O)C2)CC1)CC3)C
  MOE2013           2D

 55 62  0  0  1  0  0  0  0  0999 V2000
    0.0000    0.0000    0.0000 O   0  0  0  0  0  0  0  0  0  0  0  0
    1.2300   -0.8590    0.0000 C   0  0  0  0  0  0  0  0  0  0  0  0
    0.7930   -2.2940    0.0000 C   0  0  0  0  0  0  0  0  0  0  0  0
   -0.7070   -2.3220    0.0000 C   0  0  0  0  0  0  0  0  0  0  0  0
   -1.1970   -0.9040    0.0000 C   0  0  0  0  0  0  0  0  0  0  0  0
   -2.6320   -0.4670    0.0000 O   0  0  0  0  0  0  0  0  0  0  0  0
    1.6970   -3.4910    0.0000 C   0  0  1  0  0  0  0  0  0  0  0  0
    1.2600   -4.9260    0.0000 C   0  0  0  0  0  0  0  0  0  0  0  0
    2.4900   -5.7850    0.0000 C   0  0  0  0  0  0  0  0  0  0  0  0
    3.6870   -4.8800    0.0000 C   0  0  2  0  0  0  0  0  0  0  0  0
    4.0510   -6.3350    0.0000 O   0  0  0  0  0  0  0  0  0  0  0  0
    5.1600   -5.1650    0.0000 C   0  0  1  0  0  0  0  0  0  0  0  0
    6.1420   -4.0320    0.0000 C   0  0  2  0  0  0  0  0  0  0  0  0
    5.6520   -2.6140    0.0000 C   0  0  0  0  0  0  0  0  0  0  0  0
    4.1800   -2.3300    0.0000 C   0  0  1  0  0  0  0  0  0  0  0  0
    3.6890   -0.9120    0.0000 O   0  0  0  0  0  0  0  0  0  0  0  0
    3.1970   -3.4630    0.0000 C   0  0  2  0  0  0  0  0  0  0  0  0
    2.5850   -2.0930    0.0000 C   0  0  0  0  0  0  0  0  0  0  0  0
    7.6150   -4.3160    0.0000 C   0  0  2  0  0  0  0  0  0  0  0  0
    8.1050   -5.7340    0.0000 C   0  0  1  0  0  0  0  0  0  0  0  0
    9.5780   -6.0180    0.0000 C   0  0  0  0  0  0  0  0  0  0  0  0
   10.5610   -4.8850    0.0000 C   0  0  1  0  0  0  0  0  0  0  0  0
   12.0330   -5.1700    0.0000 O   0  0  0  0  0  0  0  0  0  0  0  0
   13.0160   -4.0360    0.0000 C   0  0  2  0  0  0  0  0  0  0  0  0
   14.4890   -4.3210    0.0000 O   0  0  0  0  0  0  0  0  0  0  0  0
   15.4720   -3.1870    0.0000 C   0  0  2  0  0  0  0  0  0  0  0  0
   16.9450   -3.4720    0.0000 C   0  0  0  0  0  0  0  0  0  0  0  0
   14.9820   -1.7700    0.0000 C   0  0  1  0  0  0  0  0  0  0  0  0
   15.9640   -0.6370    0.0000 O   0  0  0  0  0  0  0  0  0  0  0  0
   17.4370   -0.9210    0.0000 C   0  0  2  0  0  0  0  0  0  0  0  0
   17.9270   -2.3390    0.0000 O   0  0  0  0  0  0  0  0  0  0  0  0
   19.4000   -2.6230    0.0000 C   0  0  2  0  0  0  0  0  0  0  0  0
   19.8900   -4.0410    0.0000 C   0  0  0  0  0  0  0  0  0  0  0  0
   20.3830   -1.4900    0.0000 C   0  0  1  0  0  0  0  0  0  0  0  0
   21.8560   -1.7740    0.0000 O   0  0  0  0  0  0  0  0  0  0  0  0
   22.8380   -0.6410    0.0000 C   0  0  2  0  0  0  0  0  0  0  0  0
   22.3480    0.7770    0.0000 O   0  0  0  0  0  0  0  0  0  0  0  0
   23.3310    1.9100    0.0000 C   0  0  2  0  0  0  0  0  0  0  0  0
   22.8410    3.3270    0.0000 C   0  0  0  0  0  0  0  0  0  0  0  0
   24.8040    1.6250    0.0000 C   0  0  1  0  0  0  0  0  0  0  0  0
   25.7870    2.7590    0.0000 O   0  0  0  0  0  0  0  0  0  0  0  0
   25.2940    0.2080    0.0000 C   0  0  1  0  0  0  0  0  0  0  0  0
   26.7670   -0.0770    0.0000 O   0  0  0  0  0  0  0  0  0  0  0  0
   24.3110   -0.9260    0.0000 C   0  0  0  0  0  0  0  0  0  0  0  0
   19.8930   -0.0720    0.0000 C   0  0  1  0  0  0  0  0  0  0  0  0
   20.8750    1.0610    0.0000 O   0  0  0  0  0  0  0  0  0  0  0  0
   18.4200    0.2120    0.0000 C   0  0  0  0  0  0  0  0  0  0  0  0
   13.5090   -1.4850    0.0000 C   0  0  1  0  0  0  0  0  0  0  0  0
   13.0190   -0.0680    0.0000 O   0  0  0  0  0  0  0  0  0  0  0  0
   12.5260   -2.6190    0.0000 C   0  0  0  0  0  0  0  0  0  0  0  0
   10.0710   -3.4670    0.0000 C   0  0  0  0  0  0  0  0  0  0  0  0
    8.5980   -3.1830    0.0000 C   0  0  0  0  0  0  0  0  0  0  0  0
    7.1220   -6.8670    0.0000 C   0  0  0  0  0  0  0  0  0  0  0  0
    5.6500   -6.5830    0.0000 C   0  0  0  0  0  0  0  0  0  0  0  0
    7.1250   -2.8980    0.0000 C   0  0  0  0  0  0  0  0  0  0  0  0
  1  2  1  0  0  0  0
  1  5  1  0  0  0  0
  2  3  1  0  0  0  0
  3  4  2  0  0  0  0
  4  5  1  0  0  0  0
  5  6  2  0  0  0  0
  7  3  1  6  0  0  0
  7  8  1  0  0  0  0
  7 17  1  0  0  0  0
  8  9  1  0  0  0  0
  9 10  1  0  0  0  0
 10 11  1  6  0  0  0
 10 12  1  0  0  0  0
 10 17  1  0  0  0  0
 12 13  1  0  0  0  0
 12 54  1  1  0  0  0
 13 14  1  6  0  0  0
 13 19  1  0  0  0  0
 14 15  1  0  0  0  0
 15 16  1  6  0  0  0
 15 17  1  0  0  0  0
 17 18  1  6  0  0  0
 19 20  1  0  0  0  0
 19 52  1  0  0  0  0
 19 55  1  6  0  0  0
 20 21  1  0  0  0  0
 20 53  1  1  0  0  0
 21 22  1  0  0  0  0
 22 23  1  6  0  0  0
 22 51  1  0  0  0  0
 24 23  1  1  0  0  0
 24 25  1  0  0  0  0
 24 50  1  0  0  0  0
 25 26  1  0  0  0  0
 26 27  1  1  0  0  0
 26 28  1  0  0  0  0
 28 29  1  6  0  0  0
 28 48  1  0  0  0  0
 30 29  1  1  0  0  0
 30 31  1  0  0  0  0
 30 47  1  0  0  0  0
 31 32  1  0  0  0  0
 32 33  1  1  0  0  0
 32 34  1  0  0  0  0
 34 35  1  6  0  0  0
 34 45  1  0  0  0  0
 36 35  1  6  0  0  0
 36 37  1  0  0  0  0
 36 44  1  0  0  0  0
 37 38  1  0  0  0  0
 38 39  1  6  0  0  0
 38 40  1  0  0  0  0
 40 41  1  1  0  0  0
 40 42  1  0  0  0  0
 42 43  1  1  0  0  0
 42 44  1  0  0  0  0
 45 46  1  6  0  0  0
 45 47  1  0  0  0  0
 48 49  1  6  0  0  0
 48 50  1  0  0  0  0
 51 52  1  0  0  0  0
 53 54  1  0  0  0  0
M  END
>  <Index>
324

>  <ID>
HT0666

>  <class>
0

>  <apol>
126.06275

>  <ast_fraglike>
0

>  <ast_fraglike_ext>
0

>  <ast_violation>
3

>  <ast_violation_ext>
5

>  <a_acc>
13

>  <a_acid>
0

>  <a_aro>
0

>  <a_base>
0

>  <a_count>
119

>  <a_don>
6

>  <a_donacc>
19

>  <a_heavy>
55

>  <a_hyd>
37

>  <a_IC>
163.52071

>  <a_ICM>
1.3741237

>  <a_nB>
0

>  <a_nBr>
0

>  <a_nC>
41

>  <a_nCl>
0

>  <a_nF>
0

>  <a_nH>
64

>  <a_nI>
0

>  <a_nN>
0

>  <a_nO>
14

>  <a_nP>
0

>  <a_nS>
0

>  <balabanJ>
0.83296001

>  <BCUT_PEOE_0>
-2.9918089

>  <BCUT_PEOE_1>
-0.51897317

>  <BCUT_PEOE_2>
0.59784973

>  <BCUT_PEOE_3>
3.0046449

>  <BCUT_SLOGP_0>
-2.9609215

>  <BCUT_SLOGP_1>
-0.5179795

>  <BCUT_SLOGP_2>
0.51271874

>  <BCUT_SLOGP_3>
3.0420964

>  <BCUT_SMR_0>
-2.7460811

>  <BCUT_SMR_1>
-0.41606417

>  <BCUT_SMR_2>
0.69056886

>  <BCUT_SMR_3>
3.2458844

>  <bpol>
84.335251

>  <b_1rotN>
7

>  <b_1rotR>
0.11290322

>  <b_ar>
0

>  <b_count>
126

>  <b_double>
2

>  <b_heavy>
62

>  <b_max1len>
4

>  <b_rotN>
7

>  <b_rotR>
0.11290322

>  <b_single>
124

>  <b_triple>
0

>  <chi0>
39.18914

>  <chi0v>
32.904205

>  <chi0v_C>
26.954937

>  <chi0_C>
27.239393

>  <chi1>
26.01075

>  <chi1v>
20.940874

>  <chi1v_C>
15.900922

>  <chi1_C>
16.23942

>  <chiral>
21

>  <chiral_u>
0

>  <density>
0.76163107

>  <diameter>
28

>  <FCharge>
0

>  <GCUT_PEOE_0>
-0.8040241

>  <GCUT_PEOE_1>
-0.37725595

>  <GCUT_PEOE_2>
0.080420911

>  <GCUT_PEOE_3>
3.5943801

>  <GCUT_SLOGP_0>
-0.93971145

>  <GCUT_SLOGP_1>
-0.3667036

>  <GCUT_SLOGP_2>
-0.0071938075

>  <GCUT_SLOGP_3>
3.633388

>  <GCUT_SMR_0>
-0.54082054

>  <GCUT_SMR_1>
-0.23303275

>  <GCUT_SMR_2>
0.1465977

>  <GCUT_SMR_3>
3.8064933

>  <Kier1>
41.722164

>  <Kier2>
15.794044

>  <Kier3>
7.3444996

>  <KierA1>
40.445259

>  <KierA2>
15.3017

>  <KierA3>
7.1126289

>  <KierFlex>
11.252386

>  <lip_acc>
14

>  <lip_don>
6

>  <lip_druglike>
0

>  <lip_violation>
3

>  <logP(o/w)>
3.3239999

>  <logS>
-5.6707501

>  <mr>
19.459574

>  <mutagenic>
0

>  <nmol>
1

>  <opr_brigid>
43

>  <opr_leadlike>
0

>  <opr_nring>
8

>  <opr_nrot>
13

>  <opr_violation>
5

>  <PC+>
0

>  <PC->
0

>  <PEOE_PC+>
5.6055651

>  <PEOE_PC->
-5.6055651

>  <PEOE_RPC+>
0.051184613

>  <PEOE_RPC->
0.06977392

>  <PEOE_VSA+0>
213.23967

>  <PEOE_VSA+1>
126.70229

>  <PEOE_VSA+2>
14.714787

>  <PEOE_VSA+3>
33.464725

>  <PEOE_VSA+4>
61.945034

>  <PEOE_VSA+5>
14.708499

>  <PEOE_VSA+6>
0

>  <PEOE_VSA-0>
128.06207

>  <PEOE_VSA-1>
37.495354

>  <PEOE_VSA-2>
0

>  <PEOE_VSA-3>
0

>  <PEOE_VSA-4>
0

>  <PEOE_VSA-5>
13.566921

>  <PEOE_VSA-6>
64.131531

>  <PEOE_VSA_FHYD>
0.78199822

>  <PEOE_VSA_FNEG>
0.34356678

>  <PEOE_VSA_FPNEG>
0.10973879

>  <PEOE_VSA_FPOL>
0.21800177

>  <PEOE_VSA_FPOS>
0.65643322

>  <PEOE_VSA_FPPOS>
0.10826298

>  <PEOE_VSA_HYD>
553.67889

>  <PEOE_VSA_NEG>
243.25589

>  <PEOE_VSA_PNEG>
77.698456

>  <PEOE_VSA_POL>
154.35199

>  <PEOE_VSA_POS>
464.77499

>  <PEOE_VSA_PPOS>
76.653534

>  <petitjean>
0.5

>  <petitjeanSC>
1

>  <Q_PC+>
0

>  <Q_PC->
0

>  <Q_RPC+>
0

>  <Q_RPC->
0

>  <Q_VSA_FHYD>
1

>  <Q_VSA_FNEG>
0

>  <Q_VSA_FPNEG>
0

>  <Q_VSA_FPOL>
0

>  <Q_VSA_FPOS>
1

>  <Q_VSA_FPPOS>
0

>  <Q_VSA_HYD>
708.03088

>  <Q_VSA_NEG>
0

>  <Q_VSA_PNEG>
0

>  <Q_VSA_POL>
0

>  <Q_VSA_POS>
708.03088

>  <Q_VSA_PPOS>
0

>  <radius>
14

>  <reactive>
1

>  <rings>
8

>  <RPC+>
0

>  <RPC->
0

>  <rsynth>
0.56363636

>  <SlogP>
2.2181001

>  <SlogP_VSA0>
152.31136

>  <SlogP_VSA1>
7.7454643

>  <SlogP_VSA2>
197.59608

>  <SlogP_VSA3>
20.926258

>  <SlogP_VSA4>
17.643185

>  <SlogP_VSA5>
3.185575

>  <SlogP_VSA6>
0

>  <SlogP_VSA7>
17.643185

>  <SlogP_VSA8>
207.55246

>  <SlogP_VSA9>
166.63008

>  <SMR>
19.26108

>  <SMR_VSA0>
100.86143

>  <SMR_VSA1>
152.31136

>  <SMR_VSA2>
17.643185

>  <SMR_VSA3>
99.920227

>  <SMR_VSA4>
0

>  <SMR_VSA5>
225.19565

>  <SMR_VSA6>
28.671722

>  <SMR_VSA7>
166.63008

>  <TPSA>
203.06

>  <VAdjEq>
0.24682093

>  <VAdjMa>
6.9541965

>  <VDistEq>
4.5297499

>  <VDistMa>
11.218669

>  <vdw_area>
708.03088

>  <vdw_vol>
1025.3639

>  <vsa_acc>
28.589458

>  <vsa_acid>
0

>  <vsa_base>
0

>  <vsa_don>
0

>  <vsa_hyd>
462.88907

>  <vsa_other>
61.337753

>  <vsa_pol>
109.99098

>  <Weight>
780.94897

>  <weinerPath>
14940

>  <weinerPol>
113

>  <zagreb>
320

$$$$