O[C@H]([C@@H](NC)C)c1ccccc1
  MOE2013           2D

 12 12  0  0  1  0  0  0  0  0999 V2000
    0.0000    0.0000    0.0000 O   0  0  0  0  0  0  0  0  0  0  0  0
   -0.7540   -1.2970    0.0000 C   0  0  2  0  0  0  0  0  0  0  0  0
   -0.0080   -2.5980    0.0000 C   0  0  1  0  0  0  0  0  0  0  0  0
    1.4920   -2.6030    0.0000 N   0  0  0  0  0  0  0  0  0  0  0  0
    2.2380   -3.9040    0.0000 C   0  0  0  0  0  0  0  0  0  0  0  0
   -0.7620   -3.8950    0.0000 C   0  0  0  0  0  0  0  0  0  0  0  0
   -2.2540   -1.2920    0.0000 C   0  0  0  0  0  0  0  0  0  0  0  0
   -3.0000    0.0100    0.0000 C   0  0  0  0  0  0  0  0  0  0  0  0
   -4.5000    0.0140    0.0000 C   0  0  0  0  0  0  0  0  0  0  0  0
   -5.2540   -1.2820    0.0000 C   0  0  0  0  0  0  0  0  0  0  0  0
   -4.5080   -2.5840    0.0000 C   0  0  0  0  0  0  0  0  0  0  0  0
   -3.0080   -2.5880    0.0000 C   0  0  0  0  0  0  0  0  0  0  0  0
  2  1  1  6  0  0  0
  2  3  1  0  0  0  0
  2  7  1  0  0  0  0
  3  4  1  0  0  0  0
  3  6  1  1  0  0  0
  4  5  1  0  0  0  0
  7  8  1  0  0  0  0
  7 12  2  0  0  0  0
  8  9  2  0  0  0  0
  9 10  1  0  0  0  0
 10 11  2  0  0  0  0
 11 12  1  0  0  0  0
M  END
>  <Index>
377

>  <ID>
HT0767

>  <class>
0

>  <apol>
29.503895

>  <ast_fraglike>
1

>  <ast_fraglike_ext>
1

>  <ast_violation>
0

>  <ast_violation_ext>
0

>  <a_acc>
2

>  <a_acid>
0

>  <a_aro>
6

>  <a_base>
0

>  <a_count>
27

>  <a_don>
2

>  <a_donacc>
4

>  <a_heavy>
12

>  <a_hyd>
10

>  <a_IC>
36.559322

>  <a_ICM>
1.354049

>  <a_nB>
0

>  <a_nBr>
0

>  <a_nC>
10

>  <a_nCl>
0

>  <a_nF>
0

>  <a_nH>
15

>  <a_nI>
0

>  <a_nN>
1

>  <a_nO>
1

>  <a_nP>
0

>  <a_nS>
0

>  <balabanJ>
2.3537216

>  <BCUT_PEOE_0>
-2.618449

>  <BCUT_PEOE_1>
-0.56753093

>  <BCUT_PEOE_2>
0.62580776

>  <BCUT_PEOE_3>
2.5701079

>  <BCUT_SLOGP_0>
-2.7232714

>  <BCUT_SLOGP_1>
-0.49250829

>  <BCUT_SLOGP_2>
0.65255922

>  <BCUT_SLOGP_3>
2.5755146

>  <BCUT_SMR_0>
-2.3553929

>  <BCUT_SMR_1>
-0.43439239

>  <BCUT_SMR_2>
0.76393712

>  <BCUT_SMR_3>
2.8237684

>  <bpol>
17.058105

>  <b_1rotN>
3

>  <b_1rotR>
0.25

>  <b_ar>
6

>  <b_count>
27

>  <b_double>
0

>  <b_heavy>
12

>  <b_max1len>
6

>  <b_rotN>
3

>  <b_rotR>
0.25

>  <b_single>
21

>  <b_triple>
0

>  <chi0>
8.9746914

>  <chi0v>
7.4886656

>  <chi0v_C>
6.5414519

>  <chi0_C>
7.2675848

>  <chi1>
5.7532187

>  <chi1v>
4.1569161

>  <chi1v_C>
3.1100423

>  <chi1_C>
4.0605135

>  <chiral>
2

>  <chiral_u>
0

>  <density>
0.65727377

>  <diameter>
7

>  <FCharge>
0

>  <GCUT_PEOE_0>
-0.84539419

>  <GCUT_PEOE_1>
-0.3640945

>  <GCUT_PEOE_2>
0.072313294

>  <GCUT_PEOE_3>
2.3623314

>  <GCUT_SLOGP_0>
-1.1526469

>  <GCUT_SLOGP_1>
-0.28137368

>  <GCUT_SLOGP_2>
0.13714953

>  <GCUT_SLOGP_3>
2.4279194

>  <GCUT_SMR_0>
-0.51866436

>  <GCUT_SMR_1>
-0.20731679

>  <GCUT_SMR_2>
0.16986133

>  <GCUT_SMR_3>
2.6175468

>  <Kier1>
10.083333

>  <Kier2>
4.8888888

>  <Kier3>
2.7777777

>  <KierA1>
8.1382713

>  <KierA2>
3.8612704

>  <KierA3>
2.1566947

>  <KierFlex>
2.6186721

>  <lip_acc>
2

>  <lip_don>
2

>  <lip_druglike>
1

>  <lip_violation>
0

>  <logP(o/w)>
1.576

>  <logS>
-1.2500499

>  <mr>
5.0636525

>  <mutagenic>
0

>  <nmol>
1

>  <opr_brigid>
6

>  <opr_leadlike>
1

>  <opr_nring>
1

>  <opr_nrot>
3

>  <opr_violation>
0

>  <PC+>
0

>  <PC->
0

>  <PEOE_PC+>
1.076308

>  <PEOE_PC->
-1.076308

>  <PEOE_RPC+>
0.19538946

>  <PEOE_RPC->
0.35829908

>  <PEOE_VSA+0>
33.003662

>  <PEOE_VSA+1>
30.497244

>  <PEOE_VSA+2>
8.6190128

>  <PEOE_VSA+3>
0

>  <PEOE_VSA+4>
10.324173

>  <PEOE_VSA+5>
0

>  <PEOE_VSA+6>
0

>  <PEOE_VSA-0>
44.194908

>  <PEOE_VSA-1>
61.274521

>  <PEOE_VSA-2>
0

>  <PEOE_VSA-3>
0

>  <PEOE_VSA-4>
0

>  <PEOE_VSA-5>
0

>  <PEOE_VSA-6>
7.9044313

>  <PEOE_VSA_FHYD>
0.90691048

>  <PEOE_VSA_FNEG>
0.5789758

>  <PEOE_VSA_FPNEG>
0.040366225

>  <PEOE_VSA_FPOL>
0.093089543

>  <PEOE_VSA_FPOS>
0.42102417

>  <PEOE_VSA_FPPOS>
0.052723322

>  <PEOE_VSA_HYD>
177.58934

>  <PEOE_VSA_NEG>
113.37386

>  <PEOE_VSA_PNEG>
7.9044313

>  <PEOE_VSA_POL>
18.228603

>  <PEOE_VSA_POS>
82.444092

>  <PEOE_VSA_PPOS>
10.324173

>  <petitjean>
0.42857143

>  <petitjeanSC>
0.75

>  <Q_PC+>
0

>  <Q_PC->
0

>  <Q_RPC+>
0

>  <Q_RPC->
0

>  <Q_VSA_FHYD>
1

>  <Q_VSA_FNEG>
0

>  <Q_VSA_FPNEG>
0

>  <Q_VSA_FPOL>
0

>  <Q_VSA_FPOS>
1

>  <Q_VSA_FPPOS>
0

>  <Q_VSA_HYD>
195.81795

>  <Q_VSA_NEG>
0

>  <Q_VSA_PNEG>
0

>  <Q_VSA_POL>
0

>  <Q_VSA_POS>
195.81795

>  <Q_VSA_PPOS>
0

>  <radius>
4

>  <reactive>
0

>  <rings>
1

>  <RPC+>
0

>  <RPC->
0

>  <rsynth>
1

>  <SlogP>
1.4234

>  <SlogP_VSA0>
43.395977

>  <SlogP_VSA1>
0

>  <SlogP_VSA2>
3.9819686

>  <SlogP_VSA3>
0

>  <SlogP_VSA4>
3.185575

>  <SlogP_VSA5>
32.897186

>  <SlogP_VSA6>
0

>  <SlogP_VSA7>
88.215919

>  <SlogP_VSA8>
6.4686494

>  <SlogP_VSA9>
33.326015

>  <SMR>
5.0034499

>  <SMR_VSA0>
0

>  <SMR_VSA1>
25.385227

>  <SMR_VSA2>
18.01075

>  <SMR_VSA3>
13.636193

>  <SMR_VSA4>
0

>  <SMR_VSA5>
88.215919

>  <SMR_VSA6>
0

>  <SMR_VSA7>
66.223206

>  <TPSA>
32.259998

>  <VAdjEq>
0.65002245

>  <VAdjMa>
4.5849624

>  <VDistEq>
2.5553029

>  <VDistMa>
6.856771

>  <vdw_area>
195.81795

>  <vdw_vol>
251.396

>  <vsa_acc>
0

>  <vsa_acid>
0

>  <vsa_base>
0

>  <vsa_don>
0

>  <vsa_hyd>
159.717

>  <vsa_other>
0

>  <vsa_pol>
19.249496

>  <Weight>
165.23599

>  <weinerPath>
202

>  <weinerPol>
15

>  <zagreb>
54

$$$$