O1C2(C3C(C4C5C(CCC24C)C2(C(=CC(=O)CC2)C2C5C2)C)C3)CCC1=O
  MOE2013           2D

 27 33  0  0  1  0  0  0  0  0999 V2000
    0.0000    0.0000    0.0000 O   0  0  0  0  0  0  0  0  0  0  0  0
   -1.4670   -0.3120    0.0000 C   0  0  3  0  0  0  0  0  0  0  0  0
   -1.0710    1.1360    0.0000 C   0  0  3  0  0  0  0  0  0  0  0  0
   -2.4030    1.8260    0.0000 C   0  0  3  0  0  0  0  0  0  0  0  0
   -3.5780    0.8920    0.0000 C   0  0  3  0  0  0  0  0  0  0  0  0
   -5.0600    1.1270    0.0000 C   0  0  3  0  0  0  0  0  0  0  0  0
   -6.0270   -0.0210    0.0000 C   0  0  3  0  0  0  0  0  0  0  0  0
   -5.3690   -1.3700    0.0000 C   0  0  0  0  0  0  0  0  0  0  0  0
   -3.8950   -1.6490    0.0000 C   0  0  0  0  0  0  0  0  0  0  0  0
   -2.9590   -0.4760    0.0000 C   0  0  3  0  0  0  0  0  0  0  0  0
   -4.4360   -0.2150    0.0000 C   0  0  0  0  0  0  0  0  0  0  0  0
   -7.5170    0.1590    0.0000 C   0  0  3  0  0  0  0  0  0  0  0  0
   -8.1140    1.5390    0.0000 C   0  0  0  0  0  0  0  0  0  0  0  0
   -9.6110    1.6420    0.0000 C   0  0  0  0  0  0  0  0  0  0  0  0
  -10.5920    0.5080    0.0000 C   0  0  0  0  0  0  0  0  0  0  0  0
  -12.0720    0.7490    0.0000 O   0  0  0  0  0  0  0  0  0  0  0  0
  -10.0180   -0.8790    0.0000 C   0  0  0  0  0  0  0  0  0  0  0  0
   -8.5200   -0.9570    0.0000 C   0  0  0  0  0  0  0  0  0  0  0  0
   -7.1760    2.7110    0.0000 C   0  0  3  0  0  0  0  0  0  0  0  0
   -5.6920    2.4890    0.0000 C   0  0  3  0  0  0  0  0  0  0  0  0
   -6.2420    3.8840    0.0000 C   0  0  0  0  0  0  0  0  0  0  0  0
   -7.0040   -1.2500    0.0000 C   0  0  0  0  0  0  0  0  0  0  0  0
   -1.1390    2.6340    0.0000 C   0  0  0  0  0  0  0  0  0  0  0  0
   -1.6240   -1.8030    0.0000 C   0  0  0  0  0  0  0  0  0  0  0  0
   -0.2540   -2.4140    0.0000 C   0  0  0  0  0  0  0  0  0  0  0  0
    0.7500   -1.2990    0.0000 C   0  0  0  0  0  0  0  0  0  0  0  0
    2.2420   -1.4560    0.0000 O   0  0  0  0  0  0  0  0  0  0  0  0
  1  2  1  0  0  0  0
  1 26  1  0  0  0  0
  2  3  1  0  0  0  0
  2 10  1  0  0  0  0
  2 24  1  0  0  0  0
  3  4  1  0  0  0  0
  3 23  1  0  0  0  0
  4  5  1  0  0  0  0
  4 23  1  0  0  0  0
  5  6  1  0  0  0  0
  5 10  1  0  0  0  0
  6  7  1  0  0  0  0
  6 20  1  0  0  0  0
  7  8  1  0  0  0  0
  7 12  1  0  0  0  0
  8  9  1  0  0  0  0
  9 10  1  0  0  0  0
 10 11  1  0  0  0  0
 12 13  1  0  0  0  0
 12 18  1  0  0  0  0
 12 22  1  0  0  0  0
 13 14  2  0  0  0  0
 13 19  1  0  0  0  0
 14 15  1  0  0  0  0
 15 16  2  0  0  0  0
 15 17  1  0  0  0  0
 17 18  1  0  0  0  0
 19 20  1  0  0  0  0
 19 21  1  0  0  0  0
 20 21  1  0  0  0  0
 24 25  1  0  0  0  0
 25 26  1  0  0  0  0
 26 27  2  0  0  0  0
M  END
>  <Index>
353

>  <ID>
HT0727

>  <class>
0

>  <apol>
64.649788

>  <ast_fraglike>
0

>  <ast_fraglike_ext>
0

>  <ast_violation>
2

>  <ast_violation_ext>
2

>  <a_acc>
2

>  <a_acid>
0

>  <a_aro>
0

>  <a_base>
0

>  <a_count>
57

>  <a_don>
0

>  <a_donacc>
2

>  <a_heavy>
27

>  <a_hyd>
22

>  <a_IC>
70.474022

>  <a_ICM>
1.2363864

>  <a_nB>
0

>  <a_nBr>
0

>  <a_nC>
24

>  <a_nCl>
0

>  <a_nF>
0

>  <a_nH>
30

>  <a_nI>
0

>  <a_nN>
0

>  <a_nO>
3

>  <a_nP>
0

>  <a_nS>
0

>  <balabanJ>
1.2919853

>  <BCUT_PEOE_0>
-2.9271715

>  <BCUT_PEOE_1>
-0.46206766

>  <BCUT_PEOE_2>
0.43682534

>  <BCUT_PEOE_3>
3.0883272

>  <BCUT_SLOGP_0>
-2.866739

>  <BCUT_SLOGP_1>
-0.38854471

>  <BCUT_SLOGP_2>
0.49262026

>  <BCUT_SLOGP_3>
3.1328232

>  <BCUT_SMR_0>
-2.675406

>  <BCUT_SMR_1>
-0.30520296

>  <BCUT_SMR_2>
0.60909516

>  <BCUT_SMR_3>
3.3369238

>  <bpol>
36.628208

>  <b_1rotN>
0

>  <b_1rotR>
0

>  <b_ar>
0

>  <b_count>
63

>  <b_double>
3

>  <b_heavy>
33

>  <b_max1len>
2

>  <b_rotN>
0

>  <b_rotR>
0

>  <b_single>
60

>  <b_triple>
0

>  <chi0>
18.34457

>  <chi0v>
16.500401

>  <chi0v_C>
15.275657

>  <chi0_C>
15.637464

>  <chi1>
12.889431

>  <chi1v>
11.357555

>  <chi1v_C>
10.541059

>  <chi1_C>
10.972929

>  <chiral>
10

>  <chiral_u>
10

>  <density>
0.71857148

>  <diameter>
12

>  <FCharge>
0

>  <GCUT_PEOE_0>
-0.79027712

>  <GCUT_PEOE_1>
-0.40052107

>  <GCUT_PEOE_2>
0.010941627

>  <GCUT_PEOE_3>
3.4442563

>  <GCUT_SLOGP_0>
-0.86598295

>  <GCUT_SLOGP_1>
-0.30773869

>  <GCUT_SLOGP_2>
0.042971194

>  <GCUT_SLOGP_3>
3.5101125

>  <GCUT_SMR_0>
-0.53804278

>  <GCUT_SMR_1>
-0.22501861

>  <GCUT_SMR_2>
0.14322335

>  <GCUT_SMR_3>
3.6703389

>  <Kier1>
16.76033

>  <Kier2>
4.8305588

>  <Kier3>
1.625

>  <KierA1>
15.170792

>  <KierA2>
4.3549566

>  <KierA3>
1.4606613

>  <KierFlex>
2.4469681

>  <lip_acc>
3

>  <lip_don>
0

>  <lip_druglike>
1

>  <lip_violation>
0

>  <logP(o/w)>
3.381

>  <logS>
-5.82022

>  <mr>
10.091369

>  <mutagenic>
0

>  <nmol>
1

>  <opr_brigid>
29

>  <opr_leadlike>
1

>  <opr_nring>
7

>  <opr_nrot>
0

>  <opr_violation>
1

>  <PC+>
0

>  <PC->
0

>  <PEOE_PC+>
1.4600294

>  <PEOE_PC->
-1.4600294

>  <PEOE_RPC+>
0.17998956

>  <PEOE_RPC->
0.21075535

>  <PEOE_VSA+0>
141.09882

>  <PEOE_VSA+1>
4.2653861

>  <PEOE_VSA+2>
0

>  <PEOE_VSA+3>
8.458519

>  <PEOE_VSA+4>
0

>  <PEOE_VSA+5>
14.708499

>  <PEOE_VSA+6>
0

>  <PEOE_VSA-0>
64.462784

>  <PEOE_VSA-1>
39.703896

>  <PEOE_VSA-2>
0

>  <PEOE_VSA-3>
0

>  <PEOE_VSA-4>
0

>  <PEOE_VSA-5>
27.133842

>  <PEOE_VSA-6>
2.503756

>  <PEOE_VSA_FHYD>
0.85332155

>  <PEOE_VSA_FNEG>
0.44256884

>  <PEOE_VSA_FPNEG>
0.098028839

>  <PEOE_VSA_FPOL>
0.14667843

>  <PEOE_VSA_FPOS>
0.55743116

>  <PEOE_VSA_FPPOS>
0.048649594

>  <PEOE_VSA_HYD>
257.98941

>  <PEOE_VSA_NEG>
133.80428

>  <PEOE_VSA_PNEG>
29.637598

>  <PEOE_VSA_POL>
44.346096

>  <PEOE_VSA_POS>
168.53122

>  <PEOE_VSA_PPOS>
14.708499

>  <petitjean>
0.5

>  <petitjeanSC>
1

>  <Q_PC+>
0

>  <Q_PC->
0

>  <Q_RPC+>
0

>  <Q_RPC->
0

>  <Q_VSA_FHYD>
1

>  <Q_VSA_FNEG>
0

>  <Q_VSA_FPNEG>
0

>  <Q_VSA_FPOL>
0

>  <Q_VSA_FPOS>
1

>  <Q_VSA_FPPOS>
0

>  <Q_VSA_HYD>
302.33551

>  <Q_VSA_NEG>
0

>  <Q_VSA_PNEG>
0

>  <Q_VSA_POL>
0

>  <Q_VSA_POS>
302.33551

>  <Q_VSA_PPOS>
0

>  <radius>
6

>  <reactive>
1

>  <rings>
7

>  <RPC+>
0

>  <RPC->
0

>  <rsynth>
0

>  <SlogP>
4.3059001

>  <SlogP_VSA0>
0

>  <SlogP_VSA1>
13.433075

>  <SlogP_VSA2>
58.724319

>  <SlogP_VSA3>
0

>  <SlogP_VSA4>
30.875572

>  <SlogP_VSA5>
3.185575

>  <SlogP_VSA6>
0

>  <SlogP_VSA7>
17.643185

>  <SlogP_VSA8>
150.94725

>  <SlogP_VSA9>
66.652031

>  <SMR>
9.9492998

>  <SMR_VSA0>
58.724319

>  <SMR_VSA1>
0

>  <SMR_VSA2>
30.875572

>  <SMR_VSA3>
3.185575

>  <SMR_VSA4>
0

>  <SMR_VSA5>
168.59042

>  <SMR_VSA6>
13.433075

>  <SMR_VSA7>
66.652031

>  <TPSA>
43.369999

>  <VAdjEq>
0.43825299

>  <VAdjMa>
6.044394

>  <VDistEq>
3.1641955

>  <VDistMa>
9.2419748

>  <vdw_area>
302.33551

>  <vdw_vol>
510.04111

>  <vsa_acc>
27.133842

>  <vsa_acid>
0

>  <vsa_base>
0

>  <vsa_don>
0

>  <vsa_hyd>
218.76167

>  <vsa_other>
25.670774

>  <vsa_pol>
27.133842

>  <Weight>
366.50098

>  <weinerPath>
1533

>  <weinerPol>
62

>  <zagreb>
182

$$$$