Clc1cc2c(-n3c(nnc3CN(C)C)CN=C2c2ccccc2)cc1
  MOE2013           2D

 25 28  0  0  0  0  0  0  0  0999 V2000
    0.0000    0.0000    0.0000 Cl  0  0  0  0  0  0  0  0  0  0  0  0
   -0.7510   -1.2990    0.0000 C   0  0  0  0  0  0  0  0  0  0  0  0
   -0.0010   -2.5980    0.0000 C   0  0  0  0  0  0  0  0  0  0  0  0
   -0.7520   -3.8970    0.0000 C   0  0  0  0  0  0  0  0  0  0  0  0
   -2.2520   -3.8960    0.0000 C   0  0  0  0  0  0  0  0  0  0  0  0
   -3.1860   -5.0690    0.0000 N   0  0  0  0  0  0  0  0  0  0  0  0
   -2.8520   -6.5320    0.0000 C   0  0  0  0  0  0  0  0  0  0  0  0
   -4.1400   -7.3010    0.0000 N   0  0  0  0  0  0  0  0  0  0  0  0
   -5.2690   -6.3150    0.0000 N   0  0  0  0  0  0  0  0  0  0  0  0
   -4.6800   -4.9350    0.0000 C   0  0  0  0  0  0  0  0  0  0  0  0
   -5.4500   -3.6480    0.0000 C   0  0  0  0  0  0  0  0  0  0  0  0
   -6.9500   -3.6710    0.0000 N   0  0  0  0  0  0  0  0  0  0  0  0
   -7.6800   -4.9810    0.0000 C   0  0  0  0  0  0  0  0  0  0  0  0
   -7.7190   -2.3830    0.0000 C   0  0  0  0  0  0  0  0  0  0  0  0
   -1.5010   -7.1830    0.0000 C   0  0  0  0  0  0  0  0  0  0  0  0
   -0.1500   -6.5320    0.0000 N   0  0  0  0  0  0  0  0  0  0  0  0
    0.1830   -5.0690    0.0000 C   0  0  0  0  0  0  0  0  0  0  0  0
    1.6460   -4.7350    0.0000 C   0  0  0  0  0  0  0  0  0  0  0  0
    2.0870   -3.3020    0.0000 C   0  0  0  0  0  0  0  0  0  0  0  0
    3.5500   -2.9680    0.0000 C   0  0  0  0  0  0  0  0  0  0  0  0
    4.5700   -4.0670    0.0000 C   0  0  0  0  0  0  0  0  0  0  0  0
    4.1290   -5.5000    0.0000 C   0  0  0  0  0  0  0  0  0  0  0  0
    2.6660   -5.8350    0.0000 C   0  0  0  0  0  0  0  0  0  0  0  0
   -3.0010   -2.5970    0.0000 C   0  0  0  0  0  0  0  0  0  0  0  0
   -2.2510   -1.2980    0.0000 C   0  0  0  0  0  0  0  0  0  0  0  0
  1  2  1  0  0  0  0
  2  3  1  0  0  0  0
  2 25  2  0  0  0  0
  3  4  2  0  0  0  0
  4  5  1  0  0  0  0
  4 17  1  0  0  0  0
  5  6  1  0  0  0  0
  5 24  2  0  0  0  0
  6  7  1  0  0  0  0
  6 10  1  0  0  0  0
  7  8  2  0  0  0  0
  7 15  1  0  0  0  0
  8  9  1  0  0  0  0
  9 10  2  0  0  0  0
 10 11  1  0  0  0  0
 11 12  1  0  0  0  0
 12 13  1  0  0  0  0
 12 14  1  0  0  0  0
 15 16  1  0  0  0  0
 16 17  2  0  0  0  0
 17 18  1  0  0  0  0
 18 19  1  0  0  0  0
 18 23  2  0  0  0  0
 19 20  2  0  0  0  0
 20 21  1  0  0  0  0
 21 22  2  0  0  0  0
 22 23  1  0  0  0  0
 24 25  1  0  0  0  0
M  END
>  <Index>
32

>  <ID>
HT0078

>  <class>
0

>  <apol>
53.122272

>  <ast_fraglike>
0

>  <ast_fraglike_ext>
0

>  <ast_violation>
3

>  <ast_violation_ext>
3

>  <a_acc>
4

>  <a_acid>
0

>  <a_aro>
17

>  <a_base>
0

>  <a_count>
43

>  <a_don>
0

>  <a_donacc>
4

>  <a_heavy>
25

>  <a_hyd>
17

>  <a_IC>
65.95047

>  <a_ICM>
1.5337319

>  <a_nB>
0

>  <a_nBr>
0

>  <a_nC>
19

>  <a_nCl>
1

>  <a_nF>
0

>  <a_nH>
18

>  <a_nI>
0

>  <a_nN>
5

>  <a_nO>
0

>  <a_nP>
0

>  <a_nS>
0

>  <balabanJ>
1.5786915

>  <BCUT_PEOE_0>
-2.5376375

>  <BCUT_PEOE_1>
-0.55686903

>  <BCUT_PEOE_2>
0.5806765

>  <BCUT_PEOE_3>
2.4603579

>  <BCUT_SLOGP_0>
-2.5699503

>  <BCUT_SLOGP_1>
-0.41336852

>  <BCUT_SLOGP_2>
0.6840989

>  <BCUT_SLOGP_3>
2.4917226

>  <BCUT_SMR_0>
-2.2585597

>  <BCUT_SMR_1>
-0.38199359

>  <BCUT_SMR_2>
0.80417687

>  <BCUT_SMR_3>
2.7343459

>  <bpol>
26.697725

>  <b_1rotN>
3

>  <b_1rotR>
0.10714286

>  <b_ar>
17

>  <b_count>
46

>  <b_double>
1

>  <b_heavy>
28

>  <b_max1len>
4

>  <b_rotN>
3

>  <b_rotR>
0.10714286

>  <b_single>
28

>  <b_triple>
0

>  <chi0>
17.38854

>  <chi0v>
14.902977

>  <chi0v_C>
11.533015

>  <chi0_C>
13.112519

>  <chi1>
12.13103

>  <chi1v>
8.4912949

>  <chi1v_C>
4.8558245

>  <chi1_C>
6.7659864

>  <chiral>
0

>  <chiral_u>
0

>  <density>
0.75443864

>  <diameter>
11

>  <FCharge>
0

>  <GCUT_PEOE_0>
-0.85194755

>  <GCUT_PEOE_1>
-0.37450701

>  <GCUT_PEOE_2>
0.022386627

>  <GCUT_PEOE_3>
2.6538467

>  <GCUT_SLOGP_0>
-0.92461383

>  <GCUT_SLOGP_1>
-0.27071884

>  <GCUT_SLOGP_2>
0.13653287

>  <GCUT_SLOGP_3>
2.7414916

>  <GCUT_SMR_0>
-0.5121479

>  <GCUT_SMR_1>
-0.17645733

>  <GCUT_SMR_2>
0.19305076

>  <GCUT_SMR_3>
2.9533808

>  <Kier1>
18.367348

>  <Kier2>
7.9349999

>  <Kier3>
3.8399999

>  <KierA1>
13.869319

>  <KierA2>
5.9164152

>  <KierA3>
2.8360343

>  <KierFlex>
3.2822659

>  <lip_acc>
5

>  <lip_don>
0

>  <lip_druglike>
1

>  <lip_violation>
0

>  <logP(o/w)>
3.7509999

>  <logS>
-4.2606101

>  <mr>
9.9460917

>  <mutagenic>
0

>  <nmol>
1

>  <opr_brigid>
22

>  <opr_leadlike>
1

>  <opr_nring>
4

>  <opr_nrot>
3

>  <opr_violation>
0

>  <PC+>
0

>  <PC->
0

>  <PEOE_PC+>
1.6278281

>  <PEOE_PC->
-1.6278281

>  <PEOE_RPC+>
0.09797956

>  <PEOE_RPC->
0.18509987

>  <PEOE_VSA+0>
34.52914

>  <PEOE_VSA+1>
77.776062

>  <PEOE_VSA+2>
13.192325

>  <PEOE_VSA+3>
22.381124

>  <PEOE_VSA+4>
0

>  <PEOE_VSA+5>
0

>  <PEOE_VSA+6>
0

>  <PEOE_VSA-0>
83.242088

>  <PEOE_VSA-1>
90.856468

>  <PEOE_VSA-2>
18.842079

>  <PEOE_VSA-3>
0

>  <PEOE_VSA-4>
0

>  <PEOE_VSA-5>
5.6825762

>  <PEOE_VSA-6>
0

>  <PEOE_VSA_FHYD>
0.98360014

>  <PEOE_VSA_FNEG>
0.57322407

>  <PEOE_VSA_FPNEG>
0.016399844

>  <PEOE_VSA_FPOL>
0.016399844

>  <PEOE_VSA_FPOS>
0.42677593

>  <PEOE_VSA_FPPOS>
0

>  <PEOE_VSA_HYD>
340.81927

>  <PEOE_VSA_NEG>
198.62321

>  <PEOE_VSA_PNEG>
5.6825762

>  <PEOE_VSA_POL>
5.6825762

>  <PEOE_VSA_POS>
147.87865

>  <PEOE_VSA_PPOS>
0

>  <petitjean>
0.45454547

>  <petitjeanSC>
0.83333331

>  <Q_PC+>
0

>  <Q_PC->
0

>  <Q_RPC+>
0

>  <Q_RPC->
0

>  <Q_VSA_FHYD>
1

>  <Q_VSA_FNEG>
0

>  <Q_VSA_FPNEG>
0

>  <Q_VSA_FPOL>
0

>  <Q_VSA_FPOS>
1

>  <Q_VSA_FPPOS>
0

>  <Q_VSA_HYD>
346.50186

>  <Q_VSA_NEG>
0

>  <Q_VSA_PNEG>
0

>  <Q_VSA_POL>
0

>  <Q_VSA_POS>
346.50186

>  <Q_VSA_PPOS>
0

>  <radius>
6

>  <reactive>
0

>  <rings>
4

>  <RPC+>
0

>  <RPC->
0

>  <rsynth>
1

>  <SlogP>
3.8661001

>  <SlogP_VSA0>
0

>  <SlogP_VSA1>
41.106171

>  <SlogP_VSA2>
0

>  <SlogP_VSA3>
0

>  <SlogP_VSA4>
11.02699

>  <SlogP_VSA5>
82.579903

>  <SlogP_VSA6>
3.5006065

>  <SlogP_VSA7>
143.90222

>  <SlogP_VSA8>
0

>  <SlogP_VSA9>
76.027802

>  <SMR>
9.9954996

>  <SMR_VSA0>
0

>  <SMR_VSA1>
55.134953

>  <SMR_VSA2>
0

>  <SMR_VSA3>
14.527596

>  <SMR_VSA4>
2.7567475

>  <SMR_VSA5>
178.02463

>  <SMR_VSA6>
2.7567475

>  <SMR_VSA7>
104.94302

>  <TPSA>
46.310001

>  <VAdjEq>
0.43513325

>  <VAdjMa>
5.8073549

>  <VDistEq>
3.1587243

>  <VDistMa>
9.0318699

>  <vdw_area>
346.50186

>  <vdw_vol>
466.3613

>  <vsa_acc>
24.524654

>  <vsa_acid>
0

>  <vsa_base>
0

>  <vsa_don>
0

>  <vsa_hyd>
280.08423

>  <vsa_other>
29.080677

>  <vsa_pol>
24.524654

>  <Weight>
351.841

>  <weinerPath>
1352

>  <weinerPol>
44

>  <zagreb>
136

$$$$