Oc1cc2c(C[C@@H]3CCCCC[C@@]2(C)[C@@H]3N)cc1
  MOE2013           2D

 18 20  0  0  1  0  0  0  0  0999 V2000
    0.0000    0.0000    0.0000 O   0  0  0  0  0  0  0  0  0  0  0  0
   -0.7450   -1.3020    0.0000 C   0  0  0  0  0  0  0  0  0  0  0  0
   -2.2450   -1.3080    0.0000 C   0  0  0  0  0  0  0  0  0  0  0  0
   -2.9760   -2.6510    0.0000 C   0  0  0  0  0  0  0  0  0  0  0  0
   -2.2280   -3.8960    0.0000 C   0  0  0  0  0  0  0  0  0  0  0  0
   -2.9360   -5.1650    0.0000 C   0  0  0  0  0  0  0  0  0  0  0  0
   -4.3920   -5.2140    0.0000 C   0  0  2  0  0  0  0  0  0  0  0  0
   -5.6330   -6.2730    0.0000 C   0  0  0  0  0  0  0  0  0  0  0  0
   -6.9360   -5.3870    0.0000 C   0  0  0  0  0  0  0  0  0  0  0  0
   -7.0500   -3.9760    0.0000 C   0  0  0  0  0  0  0  0  0  0  0  0
   -6.9850   -2.5640    0.0000 C   0  0  0  0  0  0  0  0  0  0  0  0
   -5.7130   -1.6350    0.0000 C   0  0  0  0  0  0  0  0  0  0  0  0
   -4.4360   -2.6500    0.0000 C   0  0  2  0  0  0  0  0  0  0  0  0
   -3.9210   -1.2410    0.0000 C   0  0  0  0  0  0  0  0  0  0  0  0
   -5.1260   -3.9440    0.0000 C   0  0  2  0  0  0  0  0  0  0  0  0
   -3.6260   -3.9180    0.0000 N   0  0  0  0  0  0  0  0  0  0  0  0
   -0.7340   -3.9000    0.0000 C   0  0  0  0  0  0  0  0  0  0  0  0
    0.0110   -2.5980    0.0000 C   0  0  0  0  0  0  0  0  0  0  0  0
  1  2  1  0  0  0  0
  2  3  1  0  0  0  0
  2 18  2  0  0  0  0
  3  4  2  0  0  0  0
  4  5  1  0  0  0  0
  4 13  1  0  0  0  0
  5  6  1  0  0  0  0
  5 17  2  0  0  0  0
  6  7  1  0  0  0  0
  7  8  1  6  0  0  0
  7 15  1  0  0  0  0
  8  9  1  0  0  0  0
  9 10  1  0  0  0  0
 10 11  1  0  0  0  0
 11 12  1  0  0  0  0
 12 13  1  0  0  0  0
 13 14  1  1  0  0  0
 13 15  1  0  0  0  0
 15 16  1  6  0  0  0
 17 18  1  0  0  0  0
M  END
>  <Index>
307

>  <ID>
HT0632

>  <class>
0

>  <apol>
45.398239

>  <ast_fraglike>
0

>  <ast_fraglike_ext>
0

>  <ast_violation>
1

>  <ast_violation_ext>
1

>  <a_acc>
2

>  <a_acid>
0

>  <a_aro>
6

>  <a_base>
0

>  <a_count>
41

>  <a_don>
2

>  <a_donacc>
4

>  <a_heavy>
18

>  <a_hyd>
16

>  <a_IC>
51.617706

>  <a_ICM>
1.2589685

>  <a_nB>
0

>  <a_nBr>
0

>  <a_nC>
16

>  <a_nCl>
0

>  <a_nF>
0

>  <a_nH>
23

>  <a_nI>
0

>  <a_nN>
1

>  <a_nO>
1

>  <a_nP>
0

>  <a_nS>
0

>  <balabanJ>
1.8891999

>  <BCUT_PEOE_0>
-2.8611703

>  <BCUT_PEOE_1>
-0.5445413

>  <BCUT_PEOE_2>
0.59119958

>  <BCUT_PEOE_3>
2.8133225

>  <BCUT_SLOGP_0>
-2.8917384

>  <BCUT_SLOGP_1>
-0.462542

>  <BCUT_SLOGP_2>
0.67345595

>  <BCUT_SLOGP_3>
2.8783684

>  <BCUT_SMR_0>
-2.5986238

>  <BCUT_SMR_1>
-0.40488455

>  <BCUT_SMR_2>
0.73697346

>  <BCUT_SMR_3>
3.0774963

>  <bpol>
24.483761

>  <b_1rotN>
0

>  <b_1rotR>
0

>  <b_ar>
6

>  <b_count>
43

>  <b_double>
0

>  <b_heavy>
20

>  <b_max1len>
3

>  <b_rotN>
0

>  <b_rotR>
0

>  <b_single>
37

>  <b_triple>
0

>  <chi0>
12.750712

>  <chi0v>
11.153955

>  <chi0v_C>
10.129392

>  <chi0_C>
10.750712

>  <chi1>
8.6100092

>  <chi1v>
7.1905856

>  <chi1v_C>
6.6336455

>  <chi1_C>
7.4553084

>  <chiral>
3

>  <chiral_u>
0

>  <density>
0.66573668

>  <diameter>
8

>  <FCharge>
0

>  <GCUT_PEOE_0>
-0.83473617

>  <GCUT_PEOE_1>
-0.37386441

>  <GCUT_PEOE_2>
0.033903114

>  <GCUT_PEOE_3>
2.9949436

>  <GCUT_SLOGP_0>
-1.3639377

>  <GCUT_SLOGP_1>
-0.2837033

>  <GCUT_SLOGP_2>
0.11238068

>  <GCUT_SLOGP_3>
3.0779536

>  <GCUT_SMR_0>
-0.53334832

>  <GCUT_SMR_1>
-0.21050657

>  <GCUT_SMR_2>
0.15369496

>  <GCUT_SMR_3>
3.2407649

>  <Kier1>
13.005

>  <Kier2>
4.8355556

>  <Kier3>
2.1768708

>  <KierA1>
11.325955

>  <KierA2>
4.174819

>  <KierA3>
1.8673698

>  <KierFlex>
2.6268785

>  <lip_acc>
2

>  <lip_don>
3

>  <lip_druglike>
1

>  <lip_violation>
0

>  <logP(o/w)>
3.3640001

>  <logS>
-3.1838901

>  <mr>
7.3522534

>  <mutagenic>
0

>  <nmol>
1

>  <opr_brigid>
17

>  <opr_leadlike>
1

>  <opr_nring>
3

>  <opr_nrot>
2

>  <opr_violation>
0

>  <PC+>
0

>  <PC->
0

>  <PEOE_PC+>
1.2258861

>  <PEOE_PC->
-1.2258861

>  <PEOE_RPC+>
0.17727047

>  <PEOE_RPC->
0.29352108

>  <PEOE_VSA+0>
75.657524

>  <PEOE_VSA+1>
21.254677

>  <PEOE_VSA+2>
17.238026

>  <PEOE_VSA+3>
0

>  <PEOE_VSA+4>
10.324173

>  <PEOE_VSA+5>
0

>  <PEOE_VSA+6>
0

>  <PEOE_VSA-0>
55.030827

>  <PEOE_VSA-1>
57.106522

>  <PEOE_VSA-2>
0

>  <PEOE_VSA-3>
0

>  <PEOE_VSA-4>
0

>  <PEOE_VSA-5>
0

>  <PEOE_VSA-6>
14.418659

>  <PEOE_VSA_FHYD>
0.9014349

>  <PEOE_VSA_FNEG>
0.50414616

>  <PEOE_VSA_FPNEG>
0.0574379

>  <PEOE_VSA_FPOL>
0.098565079

>  <PEOE_VSA_FPOS>
0.49585387

>  <PEOE_VSA_FPPOS>
0.041127179

>  <PEOE_VSA_HYD>
226.28757

>  <PEOE_VSA_NEG>
126.55601

>  <PEOE_VSA_PNEG>
14.418659

>  <PEOE_VSA_POL>
24.742832

>  <PEOE_VSA_POS>
124.4744

>  <PEOE_VSA_PPOS>
10.324173

>  <petitjean>
0.5

>  <petitjeanSC>
1

>  <Q_PC+>
0

>  <Q_PC->
0

>  <Q_RPC+>
0

>  <Q_RPC->
0

>  <Q_VSA_FHYD>
1

>  <Q_VSA_FNEG>
0

>  <Q_VSA_FPNEG>
0

>  <Q_VSA_FPOL>
0

>  <Q_VSA_FPOS>
1

>  <Q_VSA_FPPOS>
0

>  <Q_VSA_HYD>
251.03041

>  <Q_VSA_NEG>
0

>  <Q_VSA_PNEG>
0

>  <Q_VSA_POL>
0

>  <Q_VSA_POS>
251.03041

>  <Q_VSA_PPOS>
0

>  <radius>
4

>  <reactive>
0

>  <rings>
3

>  <RPC+>
0

>  <RPC->
0

>  <rsynth>
0

>  <SlogP>
3.11357

>  <SlogP_VSA0>
58.282413

>  <SlogP_VSA1>
0

>  <SlogP_VSA2>
3.9819686

>  <SlogP_VSA3>
0

>  <SlogP_VSA4>
10.781946

>  <SlogP_VSA5>
18.868406

>  <SlogP_VSA6>
0

>  <SlogP_VSA7>
52.929554

>  <SlogP_VSA8>
94.342026

>  <SlogP_VSA9>
38.569443

>  <SMR>
7.3713198

>  <SMR_VSA0>
0

>  <SMR_VSA1>
25.385227

>  <SMR_VSA2>
4.4107962

>  <SMR_VSA3>
15.596547

>  <SMR_VSA4>
32.897186

>  <SMR_VSA5>
166.13998

>  <SMR_VSA6>
0

>  <SMR_VSA7>
33.326015

>  <TPSA>
46.25

>  <VAdjEq>
0.53921634

>  <VAdjMa>
5.321928

>  <VDistEq>
2.6377759

>  <VDistMa>
8.0911541

>  <vdw_area>
251.03041

>  <vdw_vol>
368.56314

>  <vsa_acc>
0

>  <vsa_acid>
0

>  <vsa_base>
0

>  <vsa_don>
0

>  <vsa_hyd>
193.4686

>  <vsa_other>
0

>  <vsa_pol>
31.30941

>  <Weight>
245.366

>  <weinerPath>
513

>  <weinerPol>
36

>  <zagreb>
100

$$$$