O1[C@@]2(CCC1=O)CC[C@H]1[C@H]3[C@@]4(O[C@@H]4C[C@@]12C)[C@@]1(C(=CC(=O)CC1)C[C@H]3C(OC)=O)C
  MOE2013           2D

 30 35  0  0  1  0  0  0  0  0999 V2000
    0.0000    0.0000    0.0000 O   0  0  0  0  0  0  0  0  0  0  0  0
   -0.4640    1.4270    0.0000 C   0  0  1  0  0  0  0  0  0  0  0  0
    0.7500    2.3080    0.0000 C   0  0  0  0  0  0  0  0  0  0  0  0
    1.9630    1.4270    0.0000 C   0  0  0  0  0  0  0  0  0  0  0  0
    1.5000    0.0000    0.0000 C   0  0  0  0  0  0  0  0  0  0  0  0
    2.3820   -1.2130    0.0000 O   0  0  0  0  0  0  0  0  0  0  0  0
   -0.4820    2.9260    0.0000 C   0  0  0  0  0  0  0  0  0  0  0  0
   -1.9140    3.3720    0.0000 C   0  0  0  0  0  0  0  0  0  0  0  0
   -2.7600    2.0940    0.0000 C   0  0  1  0  0  0  0  0  0  0  0  0
   -4.0910    1.3750    0.0000 C   0  0  1  0  0  0  0  0  0  0  0  0
   -4.2610    0.0270    0.0000 C   0  0  2  0  0  0  0  0  0  0  0  0
   -3.9420   -0.7070    0.0000 O   0  0  0  0  0  0  0  0  0  0  0  0
   -3.1530   -0.8700    0.0000 C   0  0  2  0  0  0  0  0  0  0  0  0
   -1.7430   -0.4680    0.0000 C   0  0  0  0  0  0  0  0  0  0  0  0
   -1.8780    0.9640    0.0000 C   0  0  2  0  0  0  0  0  0  0  0  0
   -3.2690    0.4020    0.0000 C   0  0  0  0  0  0  0  0  0  0  0  0
   -5.5970   -0.5070    0.0000 C   0  0  2  0  0  0  0  0  0  0  0  0
   -6.6190    0.5640    0.0000 C   0  0  0  0  0  0  0  0  0  0  0  0
   -8.0780    0.2250    0.0000 C   0  0  0  0  0  0  0  0  0  0  0  0
   -8.5090   -1.2080    0.0000 C   0  0  0  0  0  0  0  0  0  0  0  0
   -9.9690   -1.5510    0.0000 O   0  0  0  0  0  0  0  0  0  0  0  0
   -7.4820   -2.3010    0.0000 C   0  0  0  0  0  0  0  0  0  0  0  0
   -6.0220   -1.9590    0.0000 C   0  0  0  0  0  0  0  0  0  0  0  0
   -6.1750    1.9810    0.0000 C   0  0  0  0  0  0  0  0  0  0  0  0
   -5.2370    2.1080    0.0000 C   0  0  1  0  0  0  0  0  0  0  0  0
   -4.9140    3.5720    0.0000 C   0  0  0  0  0  0  0  0  0  0  0  0
   -6.0210    4.5850    0.0000 O   0  0  0  0  0  0  0  0  0  0  0  0
   -5.6970    6.0500    0.0000 C   0  0  0  0  0  0  0  0  0  0  0  0
   -3.4840    4.0250    0.0000 O   0  0  0  0  0  0  0  0  0  0  0  0
   -7.0640   -0.8190    0.0000 C   0  0  0  0  0  0  0  0  0  0  0  0
  1  2  1  0  0  0  0
  1  5  1  0  0  0  0
  2  3  1  0  0  0  0
  2  7  1  6  0  0  0
  2 15  1  0  0  0  0
  3  4  1  0  0  0  0
  4  5  1  0  0  0  0
  5  6  2  0  0  0  0
  7  8  1  0  0  0  0
  9  8  1  6  0  0  0
  9 10  1  0  0  0  0
  9 15  1  0  0  0  0
 10 11  1  0  0  0  0
 10 25  1  1  0  0  0
 11 12  1  1  0  0  0
 11 13  1  0  0  0  0
 11 17  1  0  0  0  0
 13 12  1  1  0  0  0
 13 14  1  0  0  0  0
 14 15  1  0  0  0  0
 15 16  1  6  0  0  0
 17 18  1  0  0  0  0
 17 23  1  0  0  0  0
 17 30  1  6  0  0  0
 18 19  2  0  0  0  0
 18 24  1  0  0  0  0
 19 20  1  0  0  0  0
 20 21  2  0  0  0  0
 20 22  1  0  0  0  0
 22 23  1  0  0  0  0
 24 25  1  0  0  0  0
 25 26  1  1  0  0  0
 26 27  1  0  0  0  0
 26 29  2  0  0  0  0
 27 28  1  0  0  0  0
M  END
>  <Index>
379

>  <ID>
HT0771

>  <class>
0

>  <apol>
67.055794

>  <ast_fraglike>
0

>  <ast_fraglike_ext>
0

>  <ast_violation>
3

>  <ast_violation_ext>
3

>  <a_acc>
4

>  <a_acid>
0

>  <a_aro>
0

>  <a_base>
0

>  <a_count>
60

>  <a_don>
0

>  <a_donacc>
4

>  <a_heavy>
30

>  <a_hyd>
21

>  <a_IC>
81.657845

>  <a_ICM>
1.3609641

>  <a_nB>
0

>  <a_nBr>
0

>  <a_nC>
24

>  <a_nCl>
0

>  <a_nF>
0

>  <a_nH>
30

>  <a_nI>
0

>  <a_nN>
0

>  <a_nO>
6

>  <a_nP>
0

>  <a_nS>
0

>  <balabanJ>
1.4390398

>  <BCUT_PEOE_0>
-2.8653924

>  <BCUT_PEOE_1>
-0.47292405

>  <BCUT_PEOE_2>
0.39493603

>  <BCUT_PEOE_3>
3.0579748

>  <BCUT_SLOGP_0>
-2.8751757

>  <BCUT_SLOGP_1>
-0.41256037

>  <BCUT_SLOGP_2>
0.37789989

>  <BCUT_SLOGP_3>
3.0494974

>  <BCUT_SMR_0>
-2.6368122

>  <BCUT_SMR_1>
-0.30819151

>  <BCUT_SMR_2>
0.56482947

>  <BCUT_SMR_3>
3.2891097

>  <bpol>
41.418209

>  <b_1rotN>
1

>  <b_1rotR>
0.028571429

>  <b_ar>
0

>  <b_count>
65

>  <b_double>
4

>  <b_heavy>
35

>  <b_max1len>
2

>  <b_rotN>
2

>  <b_rotR>
0.057142857

>  <b_single>
61

>  <b_triple>
0

>  <chi0>
21.104084

>  <chi0v>
17.993095

>  <chi0v_C>
15.543606

>  <chi0_C>
15.982763

>  <chi1>
14.20591

>  <chi1v>
11.421156

>  <chi1v_C>
9.3483362

>  <chi1_C>
9.8349009

>  <chiral>
8

>  <chiral_u>
0

>  <density>
0.75854421

>  <diameter>
12

>  <FCharge>
0

>  <GCUT_PEOE_0>
-0.7891978

>  <GCUT_PEOE_1>
-0.43278652

>  <GCUT_PEOE_2>
-0.025719233

>  <GCUT_PEOE_3>
3.4323883

>  <GCUT_SLOGP_0>
-0.86258525

>  <GCUT_SLOGP_1>
-0.3120726

>  <GCUT_SLOGP_2>
-0.027822295

>  <GCUT_SLOGP_3>
3.4598114

>  <GCUT_SMR_0>
-0.53885788

>  <GCUT_SMR_1>
-0.21792948

>  <GCUT_SMR_2>
0.10432243

>  <GCUT_SMR_3>
3.6491733

>  <Kier1>
20.595919

>  <Kier2>
6.3155556

>  <Kier3>
2.2497609

>  <KierA1>
18.247259

>  <KierA2>
5.570982

>  <KierA3>
1.9783999

>  <KierFlex>
3.388505

>  <lip_acc>
6

>  <lip_don>
0

>  <lip_druglike>
1

>  <lip_violation>
0

>  <logP(o/w)>
2.2260001

>  <logS>
-3.0894201

>  <mr>
10.75294

>  <mutagenic>
1

>  <nmol>
1

>  <opr_brigid>
27

>  <opr_leadlike>
1

>  <opr_nring>
6

>  <opr_nrot>
1

>  <opr_violation>
1

>  <PC+>
0

>  <PC->
0

>  <PEOE_PC+>
2.1751952

>  <PEOE_PC->
-2.1751952

>  <PEOE_RPC+>
0.12214741

>  <PEOE_RPC->
0.16712335

>  <PEOE_VSA+0>
149.03493

>  <PEOE_VSA+1>
26.231859

>  <PEOE_VSA+2>
0

>  <PEOE_VSA+3>
8.458519

>  <PEOE_VSA+4>
0

>  <PEOE_VSA+5>
29.416998

>  <PEOE_VSA+6>
0

>  <PEOE_VSA-0>
64.462784

>  <PEOE_VSA-1>
39.703896

>  <PEOE_VSA-2>
0

>  <PEOE_VSA-3>
0

>  <PEOE_VSA-4>
0

>  <PEOE_VSA-5>
40.700764

>  <PEOE_VSA-6>
7.5112681

>  <PEOE_VSA_FHYD>
0.7876209

>  <PEOE_VSA_FNEG>
0.41688085

>  <PEOE_VSA_FPNEG>
0.13189948

>  <PEOE_VSA_FPOL>
0.21237911

>  <PEOE_VSA_FPOS>
0.58311915

>  <PEOE_VSA_FPPOS>
0.080479637

>  <PEOE_VSA_HYD>
287.892

>  <PEOE_VSA_NEG>
152.37871

>  <PEOE_VSA_PNEG>
48.212032

>  <PEOE_VSA_POL>
77.629028

>  <PEOE_VSA_POS>
213.1423

>  <PEOE_VSA_PPOS>
29.416998

>  <petitjean>
0.5

>  <petitjeanSC>
1

>  <Q_PC+>
0

>  <Q_PC->
0

>  <Q_RPC+>
0

>  <Q_RPC->
0

>  <Q_VSA_FHYD>
1

>  <Q_VSA_FNEG>
0

>  <Q_VSA_FPNEG>
0

>  <Q_VSA_FPOL>
0

>  <Q_VSA_FPOS>
1

>  <Q_VSA_FPPOS>
0

>  <Q_VSA_HYD>
365.52103

>  <Q_VSA_NEG>
0

>  <Q_VSA_PNEG>
0

>  <Q_VSA_POL>
0

>  <Q_VSA_POS>
365.52103

>  <Q_VSA_PPOS>
0

>  <radius>
6

>  <reactive>
1

>  <rings>
6

>  <RPC+>
0

>  <RPC->
0

>  <rsynth>
0.06666667

>  <SlogP>
3.1245

>  <SlogP_VSA0>
0

>  <SlogP_VSA1>
21.178539

>  <SlogP_VSA2>
111.05496

>  <SlogP_VSA3>
0

>  <SlogP_VSA4>
13.232388

>  <SlogP_VSA5>
38.569443

>  <SlogP_VSA6>
0

>  <SlogP_VSA7>
17.643185

>  <SlogP_VSA8>
150.94725

>  <SlogP_VSA9>
66.652031

>  <SMR>
10.5153

>  <SMR_VSA0>
104.58631

>  <SMR_VSA1>
0

>  <SMR_VSA2>
13.232388

>  <SMR_VSA3>
9.6542244

>  <SMR_VSA4>
0

>  <SMR_VSA5>
168.59042

>  <SMR_VSA6>
21.178539

>  <SMR_VSA7>
102.0359

>  <TPSA>
82.199997

>  <VAdjEq>
0.39430025

>  <VAdjMa>
6.129283

>  <VDistEq>
3.182224

>  <VDistMa>
9.5720911

>  <vdw_area>
365.52103

>  <vdw_vol>
546.43878

>  <vsa_acc>
43.204517

>  <vsa_acid>
0

>  <vsa_base>
0

>  <vsa_don>
0

>  <vsa_hyd>
254.04446

>  <vsa_other>
42.88303

>  <vsa_pol>
43.204517

>  <Weight>
414.49799

>  <weinerPath>
1996

>  <weinerPol>
69

>  <zagreb>
190

$$$$