S1SC[C@H](NC(=O)[C@@H](NC(=O)[C@@H](NC(=O)[C@H](NC(=O)[C@@H](NC(=O)[C@@H](NC(=O)[C@H](NC(=O)CN2CCN(CCN(CCN(CC2)CC(O)=O)CC(O)=O)CC(O)=O)Cc2ccccc2)C1)Cc1ccc(O)cc1)Cc1c2c([nH]c1)cccc2)CCCCN)[C@H](O)C)C(=O)N[C@@H]([C@H](O)C)CO
  MOE2013           2D

 99104  0  0  1  0  0  0  0  0999 V2000
    0.0000    0.0000    0.0000 S   0  0  0  0  0  0  0  0  0  0  0  0
   -1.3080   -0.7010    0.0000 S   0  0  0  0  0  0  0  0  0  0  0  0
   -2.5860    0.0790    0.0000 C   0  0  0  0  0  0  0  0  0  0  0  0
   -3.9100   -0.4830    0.0000 C   0  0  2  0  0  0  0  0  0  0  0  0
   -4.2400   -1.9380    0.0000 N   0  0  0  0  0  0  0  0  0  0  0  0
   -5.6850   -2.3680    0.0000 C   0  0  0  0  0  0  0  0  0  0  0  0
   -6.7580   -1.3200    0.0000 O   0  0  0  0  0  0  0  0  0  0  0  0
   -6.0720   -3.7900    0.0000 C   0  0  1  0  0  0  0  0  0  0  0  0
   -5.0610   -4.8930    0.0000 N   0  0  0  0  0  0  0  0  0  0  0  0
   -5.5180   -6.3250    0.0000 C   0  0  0  0  0  0  0  0  0  0  0  0
   -6.9860   -6.6330    0.0000 O   0  0  0  0  0  0  0  0  0  0  0  0
   -4.5350   -7.4400    0.0000 C   0  0  1  0  0  0  0  0  0  0  0  0
   -3.0570   -7.1670    0.0000 N   0  0  0  0  0  0  0  0  0  0  0  0
   -2.0880   -8.3010    0.0000 C   0  0  0  0  0  0  0  0  0  0  0  0
   -2.6340   -9.6980    0.0000 O   0  0  0  0  0  0  0  0  0  0  0  0
   -0.6350   -8.1250    0.0000 C   0  0  2  0  0  0  0  0  0  0  0  0
    0.0200   -6.7710    0.0000 N   0  0  0  0  0  0  0  0  0  0  0  0
    1.5000   -6.6620    0.0000 C   0  0  0  0  0  0  0  0  0  0  0  0
    2.2050   -7.9860    0.0000 O   0  0  0  0  0  0  0  0  0  0  0  0
    2.3470   -5.5820    0.0000 C   0  0  1  0  0  0  0  0  0  0  0  0
    2.4820   -4.2290    0.0000 N   0  0  0  0  0  0  0  0  0  0  0  0
    1.5210   -3.0990    0.0000 C   0  0  0  0  0  0  0  0  0  0  0  0
    0.0480   -3.3800    0.0000 O   0  0  0  0  0  0  0  0  0  0  0  0
    2.0020   -1.6880    0.0000 C   0  0  1  0  0  0  0  0  0  0  0  0
    3.4940   -1.5340    0.0000 N   0  0  0  0  0  0  0  0  0  0  0  0
    4.1070   -0.1650    0.0000 C   0  0  0  0  0  0  0  0  0  0  0  0
    3.2270    1.0500    0.0000 O   0  0  0  0  0  0  0  0  0  0  0  0
    5.5990   -0.0110    0.0000 C   0  0  2  0  0  0  0  0  0  0  0  0
    6.2110    1.3580    0.0000 N   0  0  0  0  0  0  0  0  0  0  0  0
    7.7040    1.5120    0.0000 C   0  0  0  0  0  0  0  0  0  0  0  0
    8.3160    2.8810    0.0000 O   0  0  0  0  0  0  0  0  0  0  0  0
    8.5830    0.2970    0.0000 C   0  0  0  0  0  0  0  0  0  0  0  0
   10.0750    0.4510    0.0000 N   0  0  0  0  0  0  0  0  0  0  0  0
   10.6880    1.8200    0.0000 C   0  0  0  0  0  0  0  0  0  0  0  0
   12.1800    1.9740    0.0000 C   0  0  0  0  0  0  0  0  0  0  0  0
   12.7930    3.3430    0.0000 N   0  0  3  0  0  0  0  0  0  0  0  0
   14.2850    3.4970    0.0000 C   0  0  0  0  0  0  0  0  0  0  0  0
   15.1640    2.2820    0.0000 C   0  0  0  0  0  0  0  0  0  0  0  0
   14.5510    0.9120    0.0000 N   0  0  0  0  0  0  0  0  0  0  0  0
   15.4300   -0.3030    0.0000 C   0  0  0  0  0  0  0  0  0  0  0  0
   14.8180   -1.6720    0.0000 C   0  0  0  0  0  0  0  0  0  0  0  0
   13.3260   -1.8260    0.0000 N   0  0  3  0  0  0  0  0  0  0  0  0
   12.4460   -0.6110    0.0000 C   0  0  0  0  0  0  0  0  0  0  0  0
   10.9540   -0.7650    0.0000 C   0  0  0  0  0  0  0  0  0  0  0  0
   12.7130   -3.1950    0.0000 C   0  0  0  0  0  0  0  0  0  0  0  0
   13.5920   -4.4100    0.0000 C   0  0  0  0  0  0  0  0  0  0  0  0
   12.9800   -5.7790    0.0000 O   0  0  0  0  0  0  0  0  0  0  0  0
   15.0840   -4.2560    0.0000 O   0  0  0  0  0  0  0  0  0  0  0  0
   16.0430    1.0660    0.0000 C   0  0  0  0  0  0  0  0  0  0  0  0
   16.6560    2.4350    0.0000 C   0  0  0  0  0  0  0  0  0  0  0  0
   18.1480    2.5890    0.0000 O   0  0  0  0  0  0  0  0  0  0  0  0
   15.7770    3.6510    0.0000 O   0  0  0  0  0  0  0  0  0  0  0  0
   11.9130    4.5580    0.0000 C   0  0  0  0  0  0  0  0  0  0  0  0
   12.5260    5.9270    0.0000 C   0  0  0  0  0  0  0  0  0  0  0  0
   11.6470    7.1420    0.0000 O   0  0  0  0  0  0  0  0  0  0  0  0
   14.0180    6.0810    0.0000 O   0  0  0  0  0  0  0  0  0  0  0  0
    6.4780   -1.2260    0.0000 C   0  0  0  0  0  0  0  0  0  0  0  0
    5.8650   -2.5960    0.0000 C   0  0  0  0  0  0  0  0  0  0  0  0
    4.3730   -2.7490    0.0000 C   0  0  0  0  0  0  0  0  0  0  0  0
    3.7610   -4.1190    0.0000 C   0  0  0  0  0  0  0  0  0  0  0  0
    4.6400   -5.3340    0.0000 C   0  0  0  0  0  0  0  0  0  0  0  0
    6.1320   -5.1800    0.0000 C   0  0  0  0  0  0  0  0  0  0  0  0
    6.7450   -3.8110    0.0000 C   0  0  0  0  0  0  0  0  0  0  0  0
    1.2970   -0.4950    0.0000 C   0  0  0  0  0  0  0  0  0  0  0  0
    3.7390   -6.1420    0.0000 C   0  0  0  0  0  0  0  0  0  0  0  0
    3.9500   -7.6270    0.0000 C   0  0  0  0  0  0  0  0  0  0  0  0
    2.7690   -8.5520    0.0000 C   0  0  0  0  0  0  0  0  0  0  0  0
    2.9800  -10.0370    0.0000 C   0  0  0  0  0  0  0  0  0  0  0  0
    4.3720  -10.5970    0.0000 C   0  0  0  0  0  0  0  0  0  0  0  0
    4.5830  -12.0820    0.0000 O   0  0  0  0  0  0  0  0  0  0  0  0
    5.5530   -9.6720    0.0000 C   0  0  0  0  0  0  0  0  0  0  0  0
    5.3410   -8.1870    0.0000 C   0  0  0  0  0  0  0  0  0  0  0  0
    0.2370   -9.3460    0.0000 C   0  0  0  0  0  0  0  0  0  0  0  0
   -0.3840  -10.7110    0.0000 C   0  0  0  0  0  0  0  0  0  0  0  0
    0.3560  -12.0160    0.0000 C   0  0  0  0  0  0  0  0  0  0  0  0
   -0.6570  -13.1230    0.0000 C   0  0  0  0  0  0  0  0  0  0  0  0
   -2.0220  -12.5020    0.0000 N   0  0  0  0  0  0  0  0  0  0  0  0
   -1.8540  -11.0110    0.0000 C   0  0  0  0  0  0  0  0  0  0  0  0
   -0.2050  -14.5530    0.0000 C   0  0  0  0  0  0  0  0  0  0  0  0
    1.2600  -14.8770    0.0000 C   0  0  0  0  0  0  0  0  0  0  0  0
    2.2720  -13.7700    0.0000 C   0  0  0  0  0  0  0  0  0  0  0  0
    1.8200  -12.3400    0.0000 C   0  0  0  0  0  0  0  0  0  0  0  0
   -5.0250   -8.8580    0.0000 C   0  0  0  0  0  0  0  0  0  0  0  0
   -6.4980   -9.1430    0.0000 C   0  0  0  0  0  0  0  0  0  0  0  0
   -6.9880  -10.5610    0.0000 C   0  0  0  0  0  0  0  0  0  0  0  0
   -8.4610  -10.8450    0.0000 C   0  0  0  0  0  0  0  0  0  0  0  0
   -8.9500  -12.2630    0.0000 N   0  0  0  0  0  0  0  0  0  0  0  0
   -7.5290   -4.1440    0.0000 C   0  0  2  0  0  0  0  0  0  0  0  0
   -8.5640   -3.0580    0.0000 O   0  0  0  0  0  0  0  0  0  0  0  0
   -7.9520   -5.5830    0.0000 C   0  0  0  0  0  0  0  0  0  0  0  0
   -5.0600    0.4790    0.0000 C   0  0  0  0  0  0  0  0  0  0  0  0
   -4.8020    1.9570    0.0000 O   0  0  0  0  0  0  0  0  0  0  0  0
   -6.4690   -0.0360    0.0000 N   0  0  0  0  0  0  0  0  0  0  0  0
   -7.6200    0.9260    0.0000 C   0  0  1  0  0  0  0  0  0  0  0  0
   -9.0280    0.4110    0.0000 C   0  0  2  0  0  0  0  0  0  0  0  0
  -10.1790    1.3740    0.0000 O   0  0  0  0  0  0  0  0  0  0  0  0
   -9.2870   -1.0660    0.0000 C   0  0  0  0  0  0  0  0  0  0  0  0
   -7.3620    2.4040    0.0000 C   0  0  0  0  0  0  0  0  0  0  0  0
   -8.5120    3.3660    0.0000 O   0  0  0  0  0  0  0  0  0  0  0  0
  1  2  1  0  0  0  0
  1 64  1  0  0  0  0
  2  3  1  0  0  0  0
  3  4  1  0  0  0  0
  4  5  1  0  0  0  0
  4 91  1  6  0  0  0
  5  6  1  0  0  0  0
  6  7  2  0  0  0  0
  8  6  1  1  0  0  0
  8  9  1  0  0  0  0
  8 88  1  0  0  0  0
  9 10  1  0  0  0  0
 10 11  2  0  0  0  0
 10 12  1  0  0  0  0
 12 13  1  0  0  0  0
 12 83  1  1  0  0  0
 13 14  1  0  0  0  0
 14 15  2  0  0  0  0
 14 16  1  0  0  0  0
 16 17  1  0  0  0  0
 16 73  1  6  0  0  0
 17 18  1  0  0  0  0
 18 19  2  0  0  0  0
 18 20  1  0  0  0  0
 20 21  1  0  0  0  0
 20 65  1  1  0  0  0
 21 22  1  0  0  0  0
 22 23  2  0  0  0  0
 22 24  1  0  0  0  0
 24 25  1  6  0  0  0
 24 64  1  0  0  0  0
 25 26  1  0  0  0  0
 26 27  2  0  0  0  0
 28 26  1  6  0  0  0
 28 29  1  0  0  0  0
 28 57  1  0  0  0  0
 29 30  1  0  0  0  0
 30 31  2  0  0  0  0
 30 32  1  0  0  0  0
 32 33  1  0  0  0  0
 33 34  1  0  0  0  0
 33 44  1  0  0  0  0
 34 35  1  0  0  0  0
 35 36  1  0  0  0  0
 36 37  1  0  0  0  0
 36 53  1  0  0  0  0
 37 38  1  0  0  0  0
 38 39  1  0  0  0  0
 39 40  1  0  0  0  0
 39 49  1  0  0  0  0
 40 41  1  0  0  0  0
 41 42  1  0  0  0  0
 42 43  1  0  0  0  0
 42 45  1  0  0  0  0
 43 44  1  0  0  0  0
 45 46  1  0  0  0  0
 46 47  1  0  0  0  0
 46 48  2  0  0  0  0
 49 50  1  0  0  0  0
 50 51  1  0  0  0  0
 50 52  2  0  0  0  0
 53 54  1  0  0  0  0
 54 55  1  0  0  0  0
 54 56  2  0  0  0  0
 57 58  1  0  0  0  0
 58 59  1  0  0  0  0
 58 63  2  0  0  0  0
 59 60  2  0  0  0  0
 60 61  1  0  0  0  0
 61 62  2  0  0  0  0
 62 63  1  0  0  0  0
 65 66  1  0  0  0  0
 66 67  1  0  0  0  0
 66 72  2  0  0  0  0
 67 68  2  0  0  0  0
 68 69  1  0  0  0  0
 69 70  1  0  0  0  0
 69 71  2  0  0  0  0
 71 72  1  0  0  0  0
 73 74  1  0  0  0  0
 74 75  1  0  0  0  0
 74 78  2  0  0  0  0
 75 76  2  0  0  0  0
 75 82  1  0  0  0  0
 76 77  1  0  0  0  0
 76 79  1  0  0  0  0
 77 78  1  0  0  0  0
 79 80  2  0  0  0  0
 80 81  1  0  0  0  0
 81 82  2  0  0  0  0
 83 84  1  0  0  0  0
 84 85  1  0  0  0  0
 85 86  1  0  0  0  0
 86 87  1  0  0  0  0
 88 89  1  1  0  0  0
 88 90  1  0  0  0  0
 91 92  2  0  0  0  0
 91 93  1  0  0  0  0
 94 93  1  1  0  0  0
 94 95  1  0  0  0  0
 94 98  1  0  0  0  0
 95 96  1  1  0  0  0
 95 97  1  0  0  0  0
 98 99  1  0  0  0  0
M  END
>  <Index>
365

>  <ID>
HT0744

>  <class>
0

>  <apol>
211.38095

>  <ast_fraglike>
0

>  <ast_fraglike_ext>
0

>  <ast_violation>
3

>  <ast_violation_ext>
5

>  <a_acc>
23

>  <a_acid>
0

>  <a_aro>
21

>  <a_base>
0

>  <a_count>
191

>  <a_don>
20

>  <a_donacc>
43

>  <a_heavy>
99

>  <a_hyd>
56

>  <a_IC>
325.30569

>  <a_ICM>
1.7031711

>  <a_nB>
0

>  <a_nBr>
0

>  <a_nC>
65

>  <a_nCl>
0

>  <a_nF>
0

>  <a_nH>
92

>  <a_nI>
0

>  <a_nN>
14

>  <a_nO>
18

>  <a_nP>
0

>  <a_nS>
2

>  <balabanJ>
1.3627009

>  <BCUT_PEOE_0>
-2.7629187

>  <BCUT_PEOE_1>
-0.55026472

>  <BCUT_PEOE_2>
0.57893175

>  <BCUT_PEOE_3>
2.683151

>  <BCUT_SLOGP_0>
-2.9078882

>  <BCUT_SLOGP_1>
-0.50206858

>  <BCUT_SLOGP_2>
0.61013913

>  <BCUT_SLOGP_3>
2.6697478

>  <BCUT_SMR_0>
-2.4851787

>  <BCUT_SMR_1>
-0.37280536

>  <BCUT_SMR_2>
0.7085011

>  <BCUT_SMR_3>
2.9508603

>  <bpol>
126.59304

>  <b_1rotN>
26

>  <b_1rotR>
0.25

>  <b_ar>
22

>  <b_count>
196

>  <b_double>
11

>  <b_heavy>
104

>  <b_max1len>
7

>  <b_rotN>
29

>  <b_rotR>
0.27884614

>  <b_single>
163

>  <b_triple>
0

>  <chi0>
72.131874

>  <chi0v>
56.849678

>  <chi0v_C>
39.912754

>  <chi0_C>
43.0443

>  <chi1>
47.279446

>  <chi1v>
35.028309

>  <chi1v_C>
18.772781

>  <chi1_C>
22.211079

>  <chiral>
10

>  <chiral_u>
0

>  <density>
0.78568447

>  <diameter>
30

>  <FCharge>
0

>  <GCUT_PEOE_0>
-0.86279213

>  <GCUT_PEOE_1>
-0.43333811

>  <GCUT_PEOE_2>
0.081421651

>  <GCUT_PEOE_3>
3.3795829

>  <GCUT_SLOGP_0>
-1.3632915

>  <GCUT_SLOGP_1>
-0.41379169

>  <GCUT_SLOGP_2>
0.11333418

>  <GCUT_SLOGP_3>
3.2975094

>  <GCUT_SMR_0>
-0.52864474

>  <GCUT_SMR_1>
-0.23748519

>  <GCUT_SMR_2>
0.19451089

>  <GCUT_SMR_3>
3.6270218

>  <Kier1>
87.906433

>  <Kier2>
47.044998

>  <Kier3>
32

>  <KierA1>
71.764557

>  <KierA2>
38.323563

>  <KierA3>
26.029139

>  <KierFlex>
27.78054

>  <lip_acc>
32

>  <lip_don>
18

>  <lip_druglike>
0

>  <lip_violation>
3

>  <logP(o/w)>
-1.9630001

>  <logS>
-8.7030697

>  <mr>
36.85006

>  <mutagenic>
0

>  <nmol>
1

>  <opr_brigid>
54

>  <opr_leadlike>
0

>  <opr_nring>
4

>  <opr_nrot>
53

>  <opr_violation>
4

>  <PC+>
0

>  <PC->
0

>  <PEOE_PC+>
11.253719

>  <PEOE_PC->
-11.253719

>  <PEOE_RPC+>
0.024327841

>  <PEOE_RPC->
0.034912854

>  <PEOE_VSA+0>
349.26672

>  <PEOE_VSA+1>
234.15805

>  <PEOE_VSA+2>
39.25975

>  <PEOE_VSA+3>
77.571114

>  <PEOE_VSA+4>
175.86546

>  <PEOE_VSA+5>
44.125496

>  <PEOE_VSA+6>
0

>  <PEOE_VSA-0>
120.18195

>  <PEOE_VSA-1>
166.0224

>  <PEOE_VSA-2>
0

>  <PEOE_VSA-3>
0

>  <PEOE_VSA-4>
0

>  <PEOE_VSA-5>
149.23613

>  <PEOE_VSA-6>
62.25592

>  <PEOE_VSA_FHYD>
0.6956979

>  <PEOE_VSA_FNEG>
0.35099888

>  <PEOE_VSA_FPNEG>
0.14915413

>  <PEOE_VSA_FPOL>
0.30430207

>  <PEOE_VSA_FPOS>
0.64900112

>  <PEOE_VSA_FPPOS>
0.15514795

>  <PEOE_VSA_HYD>
986.46002

>  <PEOE_VSA_NEG>
497.69641

>  <PEOE_VSA_PNEG>
211.49205

>  <PEOE_VSA_POL>
431.483

>  <PEOE_VSA_POS>
920.24658

>  <PEOE_VSA_PPOS>
219.99095

>  <petitjean>
0.5

>  <petitjeanSC>
1

>  <Q_PC+>
0

>  <Q_PC->
0

>  <Q_RPC+>
0

>  <Q_RPC->
0

>  <Q_VSA_FHYD>
1

>  <Q_VSA_FNEG>
0

>  <Q_VSA_FPNEG>
0

>  <Q_VSA_FPOL>
0

>  <Q_VSA_FPOS>
1

>  <Q_VSA_FPPOS>
0

>  <Q_VSA_HYD>
1417.943

>  <Q_VSA_NEG>
0

>  <Q_VSA_PNEG>
0

>  <Q_VSA_POL>
0

>  <Q_VSA_POS>
1417.943

>  <Q_VSA_PPOS>
0

>  <radius>
15

>  <reactive>
1

>  <rings>
6

>  <RPC+>
0

>  <RPC->
0

>  <rsynth>
1

>  <SlogP>
-3.46699

>  <SlogP_VSA0>
278.52411

>  <SlogP_VSA1>
77.803917

>  <SlogP_VSA2>
324.06296

>  <SlogP_VSA3>
371.26358

>  <SlogP_VSA4>
9.5567245

>  <SlogP_VSA5>
56.605217

>  <SlogP_VSA6>
0

>  <SlogP_VSA7>
251.29286

>  <SlogP_VSA8>
56.605217

>  <SlogP_VSA9>
132.25896

>  <SMR>
36.634331

>  <SMR_VSA0>
262.48438

>  <SMR_VSA1>
114.03816

>  <SMR_VSA2>
237.02722

>  <SMR_VSA3>
59.593201

>  <SMR_VSA4>
37.614288

>  <SMR_VSA5>
359.78619

>  <SMR_VSA6>
360.41455

>  <SMR_VSA7>
127.01553

>  <TPSA>
480.39001

>  <VAdjEq>
0.14824961

>  <VAdjMa>
7.7004399

>  <VDistEq>
4.6038098

>  <VDistMa>
13.042657

>  <vdw_area>
1417.943

>  <vdw_vol>
1809.4579

>  <vsa_acc>
108.53537

>  <vsa_acid>
0

>  <vsa_base>
0

>  <vsa_don>
51.143185

>  <vsa_hyd>
838.97803

>  <vsa_other>
147.72174

>  <vsa_pol>
313.09024

>  <Weight>
1421.663

>  <weinerPath>
59245

>  <weinerPol>
154

>  <zagreb>
488

$$$$