O(C(=O)C1(CCCCC1)C1CCCCC1)CCN(CC)CC
  MOE2013           2D

 22 23  0  0  0  0  0  0  0  0999 V2000
    0.0000    0.0000    0.0000 O   0  0  0  0  0  0  0  0  0  0  0  0
   -1.2930    0.7600    0.0000 C   0  0  0  0  0  0  0  0  0  0  0  0
   -1.2810    2.2600    0.0000 O   0  0  0  0  0  0  0  0  0  0  0  0
   -2.5980    0.0210    0.0000 C   0  0  0  0  0  0  0  0  0  0  0  0
   -1.8580   -1.2840    0.0000 C   0  0  0  0  0  0  0  0  0  0  0  0
   -2.6190   -2.5770    0.0000 C   0  0  0  0  0  0  0  0  0  0  0  0
   -4.1180   -2.5660    0.0000 C   0  0  0  0  0  0  0  0  0  0  0  0
   -4.8580   -1.2610    0.0000 C   0  0  0  0  0  0  0  0  0  0  0  0
   -4.0980    0.0320    0.0000 C   0  0  0  0  0  0  0  0  0  0  0  0
   -3.1000    1.4340    0.0000 C   0  0  0  0  0  0  0  0  0  0  0  0
   -4.5750    1.7060    0.0000 C   0  0  0  0  0  0  0  0  0  0  0  0
   -5.0770    3.1200    0.0000 C   0  0  0  0  0  0  0  0  0  0  0  0
   -4.1040    4.2610    0.0000 C   0  0  0  0  0  0  0  0  0  0  0  0
   -2.6280    3.9890    0.0000 C   0  0  0  0  0  0  0  0  0  0  0  0
   -2.1270    2.5760    0.0000 C   0  0  0  0  0  0  0  0  0  0  0  0
    1.3050    0.7400    0.0000 C   0  0  0  0  0  0  0  0  0  0  0  0
    2.5980   -0.0210    0.0000 C   0  0  0  0  0  0  0  0  0  0  0  0
    3.9030    0.7190    0.0000 N   0  0  0  0  0  0  0  0  0  0  0  0
    5.1960   -0.0410    0.0000 C   0  0  0  0  0  0  0  0  0  0  0  0
    5.1840   -1.5410    0.0000 C   0  0  0  0  0  0  0  0  0  0  0  0
    3.9150    2.2190    0.0000 C   0  0  0  0  0  0  0  0  0  0  0  0
    5.2200    2.9590    0.0000 C   0  0  0  0  0  0  0  0  0  0  0  0
  1  2  1  0  0  0  0
  1 16  1  0  0  0  0
  2  3  2  0  0  0  0
  2  4  1  0  0  0  0
  4  5  1  0  0  0  0
  4  9  1  0  0  0  0
  4 10  1  0  0  0  0
  5  6  1  0  0  0  0
  6  7  1  0  0  0  0
  7  8  1  0  0  0  0
  8  9  1  0  0  0  0
 10 11  1  0  0  0  0
 10 15  1  0  0  0  0
 11 12  1  0  0  0  0
 12 13  1  0  0  0  0
 13 14  1  0  0  0  0
 14 15  1  0  0  0  0
 16 17  1  0  0  0  0
 17 18  1  0  0  0  0
 18 19  1  0  0  0  0
 18 21  1  0  0  0  0
 19 20  1  0  0  0  0
 21 22  1  0  0  0  0
M  END
>  <Index>
315

>  <ID>
HT0651

>  <class>
0

>  <apol>
59.481754

>  <ast_fraglike>
0

>  <ast_fraglike_ext>
0

>  <ast_violation>
2

>  <ast_violation_ext>
3

>  <a_acc>
2

>  <a_acid>
0

>  <a_aro>
0

>  <a_base>
0

>  <a_count>
57

>  <a_don>
0

>  <a_donacc>
2

>  <a_heavy>
22

>  <a_hyd>
18

>  <a_IC>
70.239204

>  <a_ICM>
1.2322667

>  <a_nB>
0

>  <a_nBr>
0

>  <a_nC>
19

>  <a_nCl>
0

>  <a_nF>
0

>  <a_nH>
35

>  <a_nI>
0

>  <a_nN>
1

>  <a_nO>
2

>  <a_nP>
0

>  <a_nS>
0

>  <balabanJ>
1.9212195

>  <BCUT_PEOE_0>
-2.8794346

>  <BCUT_PEOE_1>
-0.13924688

>  <BCUT_PEOE_2>
0.049231708

>  <BCUT_PEOE_3>
2.8561091

>  <BCUT_SLOGP_0>
-2.7942958

>  <BCUT_SLOGP_1>
-0.068894401

>  <BCUT_SLOGP_2>
0.123

>  <BCUT_SLOGP_3>
2.9602206

>  <BCUT_SMR_0>
-2.6345701

>  <BCUT_SMR_1>
0.083902553

>  <BCUT_SMR_2>
0.13752471

>  <BCUT_SMR_3>
3.0999987

>  <bpol>
43.116245

>  <b_1rotN>
7

>  <b_1rotR>
0.30434781

>  <b_ar>
0

>  <b_count>
58

>  <b_double>
1

>  <b_heavy>
23

>  <b_max1len>
6

>  <b_rotN>
8

>  <b_rotR>
0.34782609

>  <b_single>
57

>  <b_triple>
0

>  <chi0>
15.838653

>  <chi0v>
14.740556

>  <chi0v_C>
13.476845

>  <chi0_C>
13.554195

>  <chi1>
10.725511

>  <chi1v>
9.6220989

>  <chi1v_C>
7.9764919

>  <chi1_C>
8.0151672

>  <chiral>
0

>  <chiral_u>
0

>  <density>
0.6447773

>  <diameter>
11

>  <FCharge>
0

>  <GCUT_PEOE_0>
-0.85596728

>  <GCUT_PEOE_1>
-0.32606328

>  <GCUT_PEOE_2>
-0.1107683

>  <GCUT_PEOE_3>
3.0234876

>  <GCUT_SLOGP_0>
-0.95872337

>  <GCUT_SLOGP_1>
-0.2714718

>  <GCUT_SLOGP_2>
-0.037

>  <GCUT_SLOGP_3>
3.1013634

>  <GCUT_SMR_0>
-0.53419828

>  <GCUT_SMR_1>
-0.10153558

>  <GCUT_SMR_2>
-0.054299999

>  <GCUT_SMR_3>
3.2398312

>  <Kier1>
18.340265

>  <Kier2>
9.333333

>  <Kier3>
4.75

>  <KierA1>
17.577

>  <KierA2>
8.9260702

>  <KierA3>
4.5358019

>  <KierFlex>
7.1315241

>  <lip_acc>
3

>  <lip_don>
0

>  <lip_druglike>
1

>  <lip_violation>
0

>  <logP(o/w)>
4.4089999

>  <logS>
-5.0813699

>  <mr>
9.2287731

>  <mutagenic>
0

>  <nmol>
1

>  <opr_brigid>
12

>  <opr_leadlike>
1

>  <opr_nring>
2

>  <opr_nrot>
11

>  <opr_violation>
1

>  <PC+>
0

>  <PC->
0

>  <PEOE_PC+>
1.5076708

>  <PEOE_PC->
-1.5076708

>  <PEOE_RPC+>
0.17821084

>  <PEOE_RPC->
0.20793356

>  <PEOE_VSA+0>
153.95006

>  <PEOE_VSA+1>
23.482065

>  <PEOE_VSA+2>
0

>  <PEOE_VSA+3>
0

>  <PEOE_VSA+4>
0

>  <PEOE_VSA+5>
14.708499

>  <PEOE_VSA+6>
0

>  <PEOE_VSA-0>
61.189903

>  <PEOE_VSA-1>
89.703232

>  <PEOE_VSA-2>
0

>  <PEOE_VSA-3>
0

>  <PEOE_VSA-4>
0

>  <PEOE_VSA-5>
13.566921

>  <PEOE_VSA-6>
2.503756

>  <PEOE_VSA_FHYD>
0.91428906

>  <PEOE_VSA_FNEG>
0.46494499

>  <PEOE_VSA_FPNEG>
0.044752099

>  <PEOE_VSA_FPOL>
0.085710935

>  <PEOE_VSA_FPOS>
0.53505498

>  <PEOE_VSA_FPPOS>
0.040958833

>  <PEOE_VSA_HYD>
328.32526

>  <PEOE_VSA_NEG>
166.96382

>  <PEOE_VSA_PNEG>
16.070677

>  <PEOE_VSA_POL>
30.779177

>  <PEOE_VSA_POS>
192.14062

>  <PEOE_VSA_PPOS>
14.708499

>  <petitjean>
0.45454547

>  <petitjeanSC>
0.83333331

>  <Q_PC+>
0

>  <Q_PC->
0

>  <Q_RPC+>
0

>  <Q_RPC->
0

>  <Q_VSA_FHYD>
1

>  <Q_VSA_FNEG>
0

>  <Q_VSA_FPNEG>
0

>  <Q_VSA_FPOL>
0

>  <Q_VSA_FPOS>
1

>  <Q_VSA_FPPOS>
0

>  <Q_VSA_HYD>
359.10443

>  <Q_VSA_NEG>
0

>  <Q_VSA_PNEG>
0

>  <Q_VSA_POL>
0

>  <Q_VSA_POS>
359.10443

>  <Q_VSA_PPOS>
0

>  <radius>
6

>  <reactive>
0

>  <rings>
2

>  <RPC+>
0

>  <RPC->
0

>  <rsynth>
1

>  <SlogP>
4.4022002

>  <SlogP_VSA0>
0

>  <SlogP_VSA1>
10.869778

>  <SlogP_VSA2>
34.862103

>  <SlogP_VSA3>
76.244995

>  <SlogP_VSA4>
4.4107962

>  <SlogP_VSA5>
0

>  <SlogP_VSA6>
0

>  <SlogP_VSA7>
0

>  <SlogP_VSA8>
188.68405

>  <SlogP_VSA9>
66.652031

>  <SMR>
9.0839996

>  <SMR_VSA0>
34.862103

>  <SMR_VSA1>
3.1243138

>  <SMR_VSA2>
4.4107962

>  <SMR_VSA3>
0

>  <SMR_VSA4>
0

>  <SMR_VSA5>
188.68405

>  <SMR_VSA6>
83.990456

>  <SMR_VSA7>
66.652031

>  <TPSA>
29.540001

>  <VAdjEq>
0.4530769

>  <VAdjMa>
5.523562

>  <VDistEq>
3.2746563

>  <VDistMa>
8.6277895

>  <vdw_area>
359.10443

>  <vdw_vol>
480.0014

>  <vsa_acc>
13.566921

>  <vsa_acid>
0

>  <vsa_base>
0

>  <vsa_don>
0

>  <vsa_hyd>
302.06738

>  <vsa_other>
17.212255

>  <vsa_pol>
13.566921

>  <Weight>
309.49399

>  <weinerPath>
1099

>  <weinerPol>
34

>  <zagreb>
106

$$$$