Cl[C@H]1[C@@H]2[C@@H]([C@@]3(C(=CC(=O)C=C3)C1)C)[C@@H](O)C[C@]1([C@H]2C[C@@H](C)[C@]1(O)C(=O)CO)C
  MOE2013           2D

 28 31  0  0  1  0  0  0  0  0999 V2000
    0.0000    0.0000    0.0000 Cl  0  0  0  0  0  0  0  0  0  0  0  0
    0.7560    1.2960    0.0000 C   0  0  1  0  0  0  0  0  0  0  0  0
    0.0120    2.5980    0.0000 C   0  0  2  0  0  0  0  0  0  0  0  0
    0.7680    3.8940    0.0000 C   0  0  1  0  0  0  0  0  0  0  0  0
    2.2680    3.8870    0.0000 C   0  0  2  0  0  0  0  0  0  0  0  0
    3.0120    2.5840    0.0000 C   0  0  0  0  0  0  0  0  0  0  0  0
    4.5120    2.5770    0.0000 C   0  0  0  0  0  0  0  0  0  0  0  0
    5.2680    3.8730    0.0000 C   0  0  0  0  0  0  0  0  0  0  0  0
    6.7680    3.8660    0.0000 O   0  0  0  0  0  0  0  0  0  0  0  0
    4.5240    5.1750    0.0000 C   0  0  0  0  0  0  0  0  0  0  0  0
    3.0240    5.1820    0.0000 C   0  0  0  0  0  0  0  0  0  0  0  0
    2.2560    1.2890    0.0000 C   0  0  0  0  0  0  0  0  0  0  0  0
    3.7670    3.8270    0.0000 C   0  0  0  0  0  0  0  0  0  0  0  0
    0.0240    5.1960    0.0000 C   0  0  1  0  0  0  0  0  0  0  0  0
    0.7800    6.4920    0.0000 O   0  0  0  0  0  0  0  0  0  0  0  0
   -1.4760    5.2030    0.0000 C   0  0  0  0  0  0  0  0  0  0  0  0
   -2.2320    3.9080    0.0000 C   0  0  1  0  0  0  0  0  0  0  0  0
   -1.4880    2.6050    0.0000 C   0  0  1  0  0  0  0  0  0  0  0  0
   -2.4970    1.4950    0.0000 C   0  0  0  0  0  0  0  0  0  0  0  0
   -3.8640    2.1120    0.0000 C   0  0  1  0  0  0  0  0  0  0  0  0
   -5.1670    1.3680    0.0000 C   0  0  0  0  0  0  0  0  0  0  0  0
   -3.7000    3.6030    0.0000 C   0  0  1  0  0  0  0  0  0  0  0  0
   -4.1200    5.0430    0.0000 O   0  0  0  0  0  0  0  0  0  0  0  0
   -5.1740    3.8830    0.0000 C   0  0  0  0  0  0  0  0  0  0  0  0
   -6.1540    2.7470    0.0000 O   0  0  0  0  0  0  0  0  0  0  0  0
   -5.6680    5.2990    0.0000 C   0  0  0  0  0  0  0  0  0  0  0  0
   -7.1420    5.5790    0.0000 O   0  0  0  0  0  0  0  0  0  0  0  0
   -3.1500    5.0940    0.0000 C   0  0  0  0  0  0  0  0  0  0  0  0
  2  1  1  1  0  0  0
  2 12  1  0  0  0  0
  3  2  1  1  0  0  0
  3  4  1  0  0  0  0
  3 18  1  0  0  0  0
  4  5  1  6  0  0  0
  4 14  1  0  0  0  0
  5  6  1  0  0  0  0
  5 11  1  0  0  0  0
  5 13  1  6  0  0  0
  6  7  2  0  0  0  0
  6 12  1  0  0  0  0
  7  8  1  0  0  0  0
  8  9  2  0  0  0  0
  8 10  1  0  0  0  0
 10 11  2  0  0  0  0
 14 15  1  6  0  0  0
 14 16  1  0  0  0  0
 16 17  1  0  0  0  0
 17 18  1  0  0  0  0
 17 22  1  0  0  0  0
 17 28  1  6  0  0  0
 18 19  1  6  0  0  0
 19 20  1  0  0  0  0
 20 21  1  1  0  0  0
 20 22  1  0  0  0  0
 22 23  1  1  0  0  0
 22 24  1  6  0  0  0
 24 25  2  0  0  0  0
 24 26  1  0  0  0  0
 26 27  1  0  0  0  0
M  END
>  <Index>
36

>  <ID>
HT0090

>  <class>
0

>  <apol>
64.246994

>  <ast_fraglike>
0

>  <ast_fraglike_ext>
0

>  <ast_violation>
2

>  <ast_violation_ext>
3

>  <a_acc>
5

>  <a_acid>
0

>  <a_aro>
0

>  <a_base>
0

>  <a_count>
57

>  <a_don>
3

>  <a_donacc>
8

>  <a_heavy>
28

>  <a_hyd>
21

>  <a_IC>
81.876144

>  <a_ICM>
1.4364237

>  <a_nB>
0

>  <a_nBr>
0

>  <a_nC>
22

>  <a_nCl>
1

>  <a_nF>
0

>  <a_nH>
29

>  <a_nI>
0

>  <a_nN>
0

>  <a_nO>
5

>  <a_nP>
0

>  <a_nS>
0

>  <balabanJ>
1.7552866

>  <BCUT_PEOE_0>
-2.913877

>  <BCUT_PEOE_1>
-0.51595604

>  <BCUT_PEOE_2>
0.55627626

>  <BCUT_PEOE_3>
2.9888356

>  <BCUT_SLOGP_0>
-2.9138355

>  <BCUT_SLOGP_1>
-0.46764478

>  <BCUT_SLOGP_2>
0.50201684

>  <BCUT_SLOGP_3>
2.9977248

>  <BCUT_SMR_0>
-2.6712079

>  <BCUT_SMR_1>
-0.37664115

>  <BCUT_SMR_2>
0.68489385

>  <BCUT_SMR_3>
3.2268293

>  <bpol>
34.039001

>  <b_1rotN>
2

>  <b_1rotR>
0.064516127

>  <b_ar>
0

>  <b_count>
60

>  <b_double>
4

>  <b_heavy>
31

>  <b_max1len>
6

>  <b_rotN>
2

>  <b_rotR>
0.064516127

>  <b_single>
56

>  <b_triple>
0

>  <chi0>
20.645901

>  <chi0v>
17.31661

>  <chi0v_C>
14.02458

>  <chi0_C>
14.6459

>  <chi1>
13.001908

>  <chi1v>
10.569331

>  <chi1v_C>
8.708396

>  <chi1_C>
9.4854002

>  <chiral>
9

>  <chiral_u>
0

>  <density>
0.77472222

>  <diameter>
12

>  <FCharge>
0

>  <GCUT_PEOE_0>
-0.79944181

>  <GCUT_PEOE_1>
-0.39974418

>  <GCUT_PEOE_2>
0.042790797

>  <GCUT_PEOE_3>
3.3686316

>  <GCUT_SLOGP_0>
-0.94812173

>  <GCUT_SLOGP_1>
-0.34559178

>  <GCUT_SLOGP_2>
0.011478104

>  <GCUT_SLOGP_3>
3.3976183

>  <GCUT_SMR_0>
-0.53774744

>  <GCUT_SMR_1>
-0.22017923

>  <GCUT_SMR_2>
0.17066643

>  <GCUT_SMR_3>
3.5952878

>  <Kier1>
21.240376

>  <Kier2>
6.75

>  <Kier3>
2.640625

>  <KierA1>
19.729017

>  <KierA2>
6.2519178

>  <KierA3>
2.4408393

>  <KierFlex>
4.4051499

>  <lip_acc>
5

>  <lip_don>
3

>  <lip_druglike>
1

>  <lip_violation>
0

>  <logP(o/w)>
2.369

>  <logS>
-3.49528

>  <mr>
10.535296

>  <mutagenic>
1

>  <nmol>
1

>  <opr_brigid>
20

>  <opr_leadlike>
1

>  <opr_nring>
4

>  <opr_nrot>
2

>  <opr_violation>
0

>  <PC+>
0

>  <PC->
0

>  <PEOE_PC+>
2.3099787

>  <PEOE_PC->
-2.3099787

>  <PEOE_RPC+>
0.091245458

>  <PEOE_RPC->
0.16945818

>  <PEOE_VSA+0>
86.273872

>  <PEOE_VSA+1>
30.497244

>  <PEOE_VSA+2>
14.951293

>  <PEOE_VSA+3>
16.917038

>  <PEOE_VSA+4>
30.972517

>  <PEOE_VSA+5>
0

>  <PEOE_VSA+6>
0

>  <PEOE_VSA-0>
50.613747

>  <PEOE_VSA-1>
70.706474

>  <PEOE_VSA-2>
29.581947

>  <PEOE_VSA-3>
0

>  <PEOE_VSA-4>
0

>  <PEOE_VSA-5>
27.133842

>  <PEOE_VSA-6>
23.30262

>  <PEOE_VSA_FHYD>
0.78630042

>  <PEOE_VSA_FNEG>
0.52851635

>  <PEOE_VSA_FPNEG>
0.13239633

>  <PEOE_VSA_FPOL>
0.21369956

>  <PEOE_VSA_FPOS>
0.47148362

>  <PEOE_VSA_FPPOS>
0.081303239

>  <PEOE_VSA_HYD>
299.54163

>  <PEOE_VSA_NEG>
201.33864

>  <PEOE_VSA_PNEG>
50.436462

>  <PEOE_VSA_POL>
81.408981

>  <PEOE_VSA_POS>
179.61197

>  <PEOE_VSA_PPOS>
30.972517

>  <petitjean>
0.5

>  <petitjeanSC>
1

>  <Q_PC+>
0

>  <Q_PC->
0

>  <Q_RPC+>
0

>  <Q_RPC->
0

>  <Q_VSA_FHYD>
1

>  <Q_VSA_FNEG>
0

>  <Q_VSA_FPNEG>
0

>  <Q_VSA_FPOL>
0

>  <Q_VSA_FPOS>
1

>  <Q_VSA_FPPOS>
0

>  <Q_VSA_HYD>
380.95059

>  <Q_VSA_NEG>
0

>  <Q_VSA_PNEG>
0

>  <Q_VSA_POL>
0

>  <Q_VSA_POS>
380.95059

>  <Q_VSA_PPOS>
0

>  <radius>
6

>  <reactive>
1

>  <rings>
4

>  <RPC+>
0

>  <RPC->
0

>  <rsynth>
0.39285713

>  <SlogP>
2.0209

>  <SlogP_VSA0>
76.155678

>  <SlogP_VSA1>
11.375222

>  <SlogP_VSA2>
58.918911

>  <SlogP_VSA3>
20.926258

>  <SlogP_VSA4>
17.643185

>  <SlogP_VSA5>
3.185575

>  <SlogP_VSA6>
0

>  <SlogP_VSA7>
52.929554

>  <SlogP_VSA8>
56.605217

>  <SlogP_VSA9>
139.12669

>  <SMR>
10.46194

>  <SMR_VSA0>
47.724434

>  <SMR_VSA1>
76.155678

>  <SMR_VSA2>
17.643185

>  <SMR_VSA3>
14.380052

>  <SMR_VSA4>
0

>  <SMR_VSA5>
109.53477

>  <SMR_VSA6>
32.301479

>  <SMR_VSA7>
139.12669

>  <TPSA>
94.830002

>  <VAdjEq>
0.39893496

>  <VAdjMa>
5.9541965

>  <VDistEq>
3.1576121

>  <VDistMa>
9.3636408

>  <vdw_area>
380.95059

>  <vdw_vol>
527.83051

>  <vsa_acc>
27.133842

>  <vsa_acid>
0

>  <vsa_base>
0

>  <vsa_don>
0

>  <vsa_hyd>
258.7377

>  <vsa_other>
16.917038

>  <vsa_pol>
67.834602

>  <Weight>
408.922

>  <weinerPath>
1682

>  <weinerPol>
66

>  <zagreb>
166

$$$$