S1(=O)(=O)N(C2=C(OC(=O)N(C2=O)c2ncccc2)c2c1cccc2)C
  MOE2013           2D

 25 28  0  0  1  0  0  0  0  0999 V2000
    0.0000    0.0000    0.0000 S   0  0  0  0  0  0  0  0  0  0  0  0
   -1.5000   -0.0080    0.0000 O   0  0  0  0  0  0  0  0  0  0  0  0
   -0.7430   -1.3030    0.0000 O   0  0  0  0  0  0  0  0  0  0  0  0
    1.3030   -0.7430    0.0000 N   0  0  3  0  0  0  0  0  0  0  0  0
    2.5980    0.0150    0.0000 C   0  0  0  0  0  0  0  0  0  0  0  0
    2.5900    1.5150    0.0000 C   0  0  0  0  0  0  0  0  0  0  0  0
    3.8840    2.2720    0.0000 O   0  0  0  0  0  0  0  0  0  0  0  0
    5.1880    1.5290    0.0000 C   0  0  0  0  0  0  0  0  0  0  0  0
    6.4820    2.2870    0.0000 O   0  0  0  0  0  0  0  0  0  0  0  0
    5.1960    0.0290    0.0000 N   0  0  0  0  0  0  0  0  0  0  0  0
    3.9010   -0.7280    0.0000 C   0  0  0  0  0  0  0  0  0  0  0  0
    3.9100   -2.2280    0.0000 O   0  0  0  0  0  0  0  0  0  0  0  0
    6.4990   -0.7130    0.0000 C   0  0  0  0  0  0  0  0  0  0  0  0
    7.7940    0.0440    0.0000 N   0  0  0  0  0  0  0  0  0  0  0  0
    9.0970   -0.6990    0.0000 C   0  0  0  0  0  0  0  0  0  0  0  0
    9.1060   -2.1990    0.0000 C   0  0  0  0  0  0  0  0  0  0  0  0
    7.8110   -2.9560    0.0000 C   0  0  0  0  0  0  0  0  0  0  0  0
    6.5080   -2.2130    0.0000 C   0  0  0  0  0  0  0  0  0  0  0  0
    1.2860    2.2570    0.0000 C   0  0  0  0  0  0  0  0  0  0  0  0
   -0.0080    1.5000    0.0000 C   0  0  0  0  0  0  0  0  0  0  0  0
   -1.3120    2.2430    0.0000 C   0  0  0  0  0  0  0  0  0  0  0  0
   -1.3200    3.7430    0.0000 C   0  0  0  0  0  0  0  0  0  0  0  0
   -0.0250    4.5000    0.0000 C   0  0  0  0  0  0  0  0  0  0  0  0
    1.2780    3.7570    0.0000 C   0  0  0  0  0  0  0  0  0  0  0  0
    1.3120   -2.2430    0.0000 C   0  0  0  0  0  0  0  0  0  0  0  0
  1  2  2  0  0  0  0
  1  3  2  0  0  0  0
  1  4  1  0  0  0  0
  1 20  1  0  0  0  0
  4  5  1  0  0  0  0
  4 25  1  0  0  0  0
  5  6  2  0  0  0  0
  5 11  1  0  0  0  0
  6  7  1  0  0  0  0
  6 19  1  0  0  0  0
  7  8  1  0  0  0  0
  8  9  2  0  0  0  0
  8 10  1  0  0  0  0
 10 11  1  0  0  0  0
 10 13  1  0  0  0  0
 11 12  2  0  0  0  0
 13 14  1  0  0  0  0
 13 18  2  0  0  0  0
 14 15  2  0  0  0  0
 15 16  1  0  0  0  0
 16 17  2  0  0  0  0
 17 18  1  0  0  0  0
 19 20  1  0  0  0  0
 19 24  2  0  0  0  0
 20 21  2  0  0  0  0
 21 22  1  0  0  0  0
 22 23  2  0  0  0  0
 23 24  1  0  0  0  0
M  END
>  <Index>
356

>  <ID>
HT0730

>  <class>
0

>  <apol>
45.704723

>  <ast_fraglike>
0

>  <ast_fraglike_ext>
0

>  <ast_violation>
2

>  <ast_violation_ext>
3

>  <a_acc>
5

>  <a_acid>
0

>  <a_aro>
12

>  <a_base>
0

>  <a_count>
36

>  <a_don>
0

>  <a_donacc>
5

>  <a_heavy>
25

>  <a_hyd>
13

>  <a_IC>
67.699028

>  <a_ICM>
1.8805285

>  <a_nB>
0

>  <a_nBr>
0

>  <a_nC>
16

>  <a_nCl>
0

>  <a_nF>
0

>  <a_nH>
11

>  <a_nI>
0

>  <a_nN>
3

>  <a_nO>
5

>  <a_nP>
0

>  <a_nS>
1

>  <balabanJ>
1.6348138

>  <BCUT_PEOE_0>
-2.5010638

>  <BCUT_PEOE_1>
-0.52987462

>  <BCUT_PEOE_2>
0.60293239

>  <BCUT_PEOE_3>
2.5469186

>  <BCUT_SLOGP_0>
-2.6034598

>  <BCUT_SLOGP_1>
-0.45543775

>  <BCUT_SLOGP_2>
0.69736218

>  <BCUT_SLOGP_3>
2.5015147

>  <BCUT_SMR_0>
-2.1802855

>  <BCUT_SMR_1>
-0.40248501

>  <BCUT_SMR_2>
0.73892939

>  <BCUT_SMR_3>
2.8779449

>  <bpol>
27.613277

>  <b_1rotN>
1

>  <b_1rotR>
0.035714287

>  <b_ar>
12

>  <b_count>
39

>  <b_double>
3

>  <b_heavy>
28

>  <b_max1len>
2

>  <b_rotN>
1

>  <b_rotR>
0.035714287

>  <b_single>
24

>  <b_triple>
0

>  <chi0>
17.76722

>  <chi0v>
13.726429

>  <chi0v_C>
9.1188021

>  <chi0_C>
10.698306

>  <chi1>
11.925557

>  <chi1v>
8.6660633

>  <chi1v_C>
3.8660254

>  <chi1_C>
5.5580783

>  <chiral>
0

>  <chiral_u>
0

>  <density>
0.87009662

>  <diameter>
11

>  <FCharge>
0

>  <GCUT_PEOE_0>
-0.77164447

>  <GCUT_PEOE_1>
-0.45215225

>  <GCUT_PEOE_2>
0.064638861

>  <GCUT_PEOE_3>
2.6033902

>  <GCUT_SLOGP_0>
-0.9990117

>  <GCUT_SLOGP_1>
-0.44964004

>  <GCUT_SLOGP_2>
0.14201757

>  <GCUT_SLOGP_3>
2.6083598

>  <GCUT_SMR_0>
-0.48324192

>  <GCUT_SMR_1>
-0.19144006

>  <GCUT_SMR_2>
0.16208114

>  <GCUT_SMR_3>
2.8920233

>  <Kier1>
18.367348

>  <Kier2>
6.8664141

>  <Kier3>
2.9266818

>  <KierA1>
13.634188

>  <KierA2>
5.02879

>  <KierA3>
2.1218324

>  <KierFlex>
2.7425387

>  <lip_acc>
8

>  <lip_don>
0

>  <lip_druglike>
1

>  <lip_violation>
0

>  <logP(o/w)>
1.41

>  <logS>
-3.9345

>  <mr>
8.8418732

>  <mutagenic>
0

>  <nmol>
1

>  <opr_brigid>
22

>  <opr_leadlike>
1

>  <opr_nring>
4

>  <opr_nrot>
1

>  <opr_violation>
0

>  <PC+>
0

>  <PC->
0

>  <PEOE_PC+>
2.108989

>  <PEOE_PC->
-2.108989

>  <PEOE_RPC+>
0.18052305

>  <PEOE_RPC->
0.12677963

>  <PEOE_VSA+0>
51.902584

>  <PEOE_VSA+1>
40.822639

>  <PEOE_VSA+2>
21.857622

>  <PEOE_VSA+3>
0

>  <PEOE_VSA+4>
0

>  <PEOE_VSA+5>
17.134132

>  <PEOE_VSA+6>
19.199511

>  <PEOE_VSA-0>
60.003403

>  <PEOE_VSA-1>
36.764713

>  <PEOE_VSA-2>
0

>  <PEOE_VSA-3>
0

>  <PEOE_VSA-4>
51.266022

>  <PEOE_VSA-5>
16.070677

>  <PEOE_VSA-6>
0

>  <PEOE_VSA_FHYD>
0.67091006

>  <PEOE_VSA_FNEG>
0.52093244

>  <PEOE_VSA_FPNEG>
0.21375284

>  <PEOE_VSA_FPOL>
0.32908994

>  <PEOE_VSA_FPOS>
0.47906756

>  <PEOE_VSA_FPPOS>
0.1153371

>  <PEOE_VSA_HYD>
211.35095

>  <PEOE_VSA_NEG>
164.10481

>  <PEOE_VSA_PNEG>
67.3367

>  <PEOE_VSA_POL>
103.67034

>  <PEOE_VSA_POS>
150.91649

>  <PEOE_VSA_PPOS>
36.333645

>  <petitjean>
0.45454547

>  <petitjeanSC>
0.83333331

>  <Q_PC+>
0

>  <Q_PC->
0

>  <Q_RPC+>
0

>  <Q_RPC->
0

>  <Q_VSA_FHYD>
1

>  <Q_VSA_FNEG>
0

>  <Q_VSA_FPNEG>
0

>  <Q_VSA_FPOL>
0

>  <Q_VSA_FPOS>
1

>  <Q_VSA_FPPOS>
0

>  <Q_VSA_HYD>
315.0213

>  <Q_VSA_NEG>
0

>  <Q_VSA_PNEG>
0

>  <Q_VSA_POL>
0

>  <Q_VSA_POS>
315.0213

>  <Q_VSA_PPOS>
0

>  <radius>
6

>  <reactive>
0

>  <rings>
4

>  <RPC+>
0

>  <RPC->
0

>  <rsynth>
1

>  <SlogP>
1.5677

>  <SlogP_VSA0>
3.1243138

>  <SlogP_VSA1>
79.051201

>  <SlogP_VSA2>
41.502846

>  <SlogP_VSA3>
0

>  <SlogP_VSA4>
3.185575

>  <SlogP_VSA5>
37.20467

>  <SlogP_VSA6>
0

>  <SlogP_VSA7>
145.96008

>  <SlogP_VSA8>
0

>  <SlogP_VSA9>
26.190136

>  <SMR>
8.6514797

>  <SMR_VSA0>
106.89601

>  <SMR_VSA1>
18.30409

>  <SMR_VSA2>
4.6750479

>  <SMR_VSA3>
5.9423227

>  <SMR_VSA4>
7.5713482

>  <SMR_VSA5>
140.71664

>  <SMR_VSA6>
12.57542

>  <SMR_VSA7>
39.53793

>  <TPSA>
96.879997

>  <VAdjEq>
0.43513325

>  <VAdjMa>
5.8073549

>  <VDistEq>
3.110177

>  <VDistMa>
9.0302677

>  <vdw_area>
315.0213

>  <vdw_vol>
410.6969

>  <vsa_acc>
64.832939

>  <vsa_acid>
0

>  <vsa_base>
0

>  <vsa_don>
0

>  <vsa_hyd>
186.40964

>  <vsa_other>
55.948971

>  <vsa_pol>
64.832939

>  <Weight>
357.34601

>  <weinerPath>
1298

>  <weinerPol>
51

>  <zagreb>
142

$$$$