S(CCC)c1cc2nc([nH]c2cc1)NC(OC)=O
  MOE2013           2D

 18 19  0  0  0  0  0  0  0  0999 V2000
    0.0000    0.0000    0.0000 S   0  0  0  0  0  0  0  0  0  0  0  0
    1.2980   -0.7520    0.0000 C   0  0  0  0  0  0  0  0  0  0  0  0
    2.5980   -0.0030    0.0000 C   0  0  0  0  0  0  0  0  0  0  0  0
    3.8960   -0.7550    0.0000 C   0  0  0  0  0  0  0  0  0  0  0  0
   -1.3000   -0.7480    0.0000 C   0  0  0  0  0  0  0  0  0  0  0  0
   -2.5980    0.0030    0.0000 C   0  0  0  0  0  0  0  0  0  0  0  0
   -3.8980   -0.7450    0.0000 C   0  0  0  0  0  0  0  0  0  0  0  0
   -5.3240   -0.2800    0.0000 N   0  0  0  0  0  0  0  0  0  0  0  0
   -6.2070   -1.4930    0.0000 C   0  0  0  0  0  0  0  0  0  0  0  0
   -5.3270   -2.7070    0.0000 N   0  0  0  0  0  0  0  0  0  0  0  0
   -3.9000   -2.2450    0.0000 C   0  0  0  0  0  0  0  0  0  0  0  0
   -2.6020   -2.9970    0.0000 C   0  0  0  0  0  0  0  0  0  0  0  0
   -1.3020   -2.2480    0.0000 C   0  0  0  0  0  0  0  0  0  0  0  0
   -7.7070   -1.4910    0.0000 N   0  0  0  0  0  0  0  0  0  0  0  0
   -8.4590   -2.7890    0.0000 C   0  0  0  0  0  0  0  0  0  0  0  0
   -9.9590   -2.7870    0.0000 O   0  0  0  0  0  0  0  0  0  0  0  0
  -10.7100   -4.0850    0.0000 C   0  0  0  0  0  0  0  0  0  0  0  0
   -7.7100   -4.0890    0.0000 O   0  0  0  0  0  0  0  0  0  0  0  0
  1  2  1  0  0  0  0
  1  5  1  0  0  0  0
  2  3  1  0  0  0  0
  3  4  1  0  0  0  0
  5  6  1  0  0  0  0
  5 13  2  0  0  0  0
  6  7  2  0  0  0  0
  7  8  1  0  0  0  0
  7 11  1  0  0  0  0
  8  9  2  0  0  0  0
  9 10  1  0  0  0  0
  9 14  1  0  0  0  0
 10 11  1  0  0  0  0
 11 12  2  0  0  0  0
 12 13  1  0  0  0  0
 14 15  1  0  0  0  0
 15 16  1  0  0  0  0
 15 18  2  0  0  0  0
 16 17  1  0  0  0  0
M  END
>  <Index>
34

>  <ID>
HT0086

>  <class>
0

>  <apol>
38.925896

>  <ast_fraglike>
0

>  <ast_fraglike_ext>
0

>  <ast_violation>
1

>  <ast_violation_ext>
2

>  <a_acc>
3

>  <a_acid>
0

>  <a_aro>
9

>  <a_base>
0

>  <a_count>
33

>  <a_don>
3

>  <a_donacc>
6

>  <a_heavy>
18

>  <a_hyd>
11

>  <a_IC>
58.087208

>  <a_ICM>
1.7602185

>  <a_nB>
0

>  <a_nBr>
0

>  <a_nC>
12

>  <a_nCl>
0

>  <a_nF>
0

>  <a_nH>
15

>  <a_nI>
0

>  <a_nN>
3

>  <a_nO>
2

>  <a_nP>
0

>  <a_nS>
1

>  <balabanJ>
1.7705112

>  <BCUT_PEOE_0>
-2.502578

>  <BCUT_PEOE_1>
-0.53625119

>  <BCUT_PEOE_2>
0.52559972

>  <BCUT_PEOE_3>
2.4534788

>  <BCUT_SLOGP_0>
-2.3951926

>  <BCUT_SLOGP_1>
-0.35572147

>  <BCUT_SLOGP_2>
0.69810098

>  <BCUT_SLOGP_3>
2.5921118

>  <BCUT_SMR_0>
-2.2363687

>  <BCUT_SMR_1>
-0.27358845

>  <BCUT_SMR_2>
0.78658223

>  <BCUT_SMR_3>
2.7509561

>  <bpol>
24.192104

>  <b_1rotN>
4

>  <b_1rotR>
0.21052632

>  <b_ar>
10

>  <b_count>
34

>  <b_double>
1

>  <b_heavy>
19

>  <b_max1len>
5

>  <b_rotN>
6

>  <b_rotR>
0.31578946

>  <b_single>
23

>  <b_triple>
0

>  <chi0>
12.957819

>  <chi0v>
11.13472

>  <chi0v_C>
7.6462646

>  <chi0_C>
8.4222851

>  <chi1>
8.723877

>  <chi1v>
6.6872487

>  <chi1v_C>
2.9451406

>  <chi1_C>
3.6734333

>  <chiral>
0

>  <chiral_u>
0

>  <density>
0.78548968

>  <diameter>
12

>  <FCharge>
0

>  <GCUT_PEOE_0>
-0.81439483

>  <GCUT_PEOE_1>
-0.42417052

>  <GCUT_PEOE_2>
0.019924268

>  <GCUT_PEOE_3>
2.3303046

>  <GCUT_SLOGP_0>
-0.99336004

>  <GCUT_SLOGP_1>
-0.1999757

>  <GCUT_SLOGP_2>
0.19148405

>  <GCUT_SLOGP_3>
2.4743879

>  <GCUT_SMR_0>
-0.51906919

>  <GCUT_SMR_1>
-0.15512179

>  <GCUT_SMR_2>
0.23974672

>  <GCUT_SMR_3>
2.6472378

>  <Kier1>
14.409972

>  <Kier2>
6.9632001

>  <Kier3>
3.9958377

>  <KierA1>
11.574407

>  <KierA2>
5.5153852

>  <KierA3>
3.1323819

>  <KierFlex>
3.5465174

>  <lip_acc>
5

>  <lip_don>
2

>  <lip_druglike>
1

>  <lip_violation>
0

>  <logP(o/w)>
2.816

>  <logS>
-4.23561

>  <mr>
7.2945175

>  <mutagenic>
0

>  <nmol>
1

>  <opr_brigid>
10

>  <opr_leadlike>
1

>  <opr_nring>
2

>  <opr_nrot>
4

>  <opr_violation>
0

>  <PC+>
0

>  <PC->
0

>  <PEOE_PC+>
1.6878005

>  <PEOE_PC->
-1.6878005

>  <PEOE_RPC+>
0.21742967

>  <PEOE_RPC->
0.19186671

>  <PEOE_VSA+0>
59.039959

>  <PEOE_VSA+1>
38.991417

>  <PEOE_VSA+2>
0

>  <PEOE_VSA+3>
17.238026

>  <PEOE_VSA+4>
15.681574

>  <PEOE_VSA+5>
0

>  <PEOE_VSA+6>
19.199511

>  <PEOE_VSA-0>
56.143398

>  <PEOE_VSA-1>
18.747677

>  <PEOE_VSA-2>
19.760618

>  <PEOE_VSA-3>
0

>  <PEOE_VSA-4>
19.249496

>  <PEOE_VSA-5>
0.13689101

>  <PEOE_VSA-6>
2.6406472

>  <PEOE_VSA_FHYD>
0.78672457

>  <PEOE_VSA_FNEG>
0.43727869

>  <PEOE_VSA_FPNEG>
0.082551062

>  <PEOE_VSA_FPOL>
0.21327545

>  <PEOE_VSA_FPOS>
0.56272131

>  <PEOE_VSA_FPPOS>
0.13072439

>  <PEOE_VSA_HYD>
209.9211

>  <PEOE_VSA_NEG>
116.67873

>  <PEOE_VSA_PNEG>
22.027035

>  <PEOE_VSA_POL>
56.908119

>  <PEOE_VSA_POS>
150.1505

>  <PEOE_VSA_PPOS>
34.881084

>  <petitjean>
0.5

>  <petitjeanSC>
1

>  <Q_PC+>
0

>  <Q_PC->
0

>  <Q_RPC+>
0

>  <Q_RPC->
0

>  <Q_VSA_FHYD>
1

>  <Q_VSA_FNEG>
0

>  <Q_VSA_FPNEG>
0

>  <Q_VSA_FPOL>
0

>  <Q_VSA_FPOS>
1

>  <Q_VSA_FPPOS>
0

>  <Q_VSA_HYD>
266.82922

>  <Q_VSA_NEG>
0

>  <Q_VSA_PNEG>
0

>  <Q_VSA_POL>
0

>  <Q_VSA_POS>
266.82922

>  <Q_VSA_PPOS>
0

>  <radius>
6

>  <reactive>
0

>  <rings>
2

>  <RPC+>
0

>  <RPC->
0

>  <rsynth>
1

>  <SlogP>
3.2433

>  <SlogP_VSA0>
0

>  <SlogP_VSA1>
42.112919

>  <SlogP_VSA2>
27.785418

>  <SlogP_VSA3>
17.233564

>  <SlogP_VSA4>
0

>  <SlogP_VSA5>
36.934601

>  <SlogP_VSA6>
0

>  <SlogP_VSA7>
57.217827

>  <SlogP_VSA8>
18.868406

>  <SlogP_VSA9>
91.306862

>  <SMR>
7.3137398

>  <SMR_VSA0>
34.862103

>  <SMR_VSA1>
16.78553

>  <SMR_VSA2>
18.336264

>  <SMR_VSA3>
0

>  <SMR_VSA4>
24.198118

>  <SMR_VSA5>
71.797958

>  <SMR_VSA6>
24.550201

>  <SMR_VSA7>
100.92942

>  <TPSA>
67.010002

>  <VAdjEq>
0.52150291

>  <VAdjMa>
5.2479277

>  <VDistEq>
3.2552075

>  <VDistMa>
8.0022039

>  <vdw_area>
266.82922

>  <vdw_vol>
337.79819

>  <vsa_acc>
13.566921

>  <vsa_acid>
0

>  <vsa_base>
0

>  <vsa_don>
5.6825762

>  <vsa_hyd>
183.42973

>  <vsa_other>
37.384842

>  <vsa_pol>
30.614649

>  <Weight>
265.33701

>  <weinerPath>
676

>  <weinerPol>
23

>  <zagreb>
88

$$$$