OC1(CCCCC1)C(CN(C)C)c1ccc(O)cc1
  MOE2013           2D

 19 20  0  0  1  0  0  0  0  0999 V2000
    0.0000    0.0000    0.0000 O   0  0  0  0  0  0  0  0  0  0  0  0
    0.7480   -1.3000    0.0000 C   0  0  0  0  0  0  0  0  0  0  0  0
    0.7450   -2.8000    0.0000 C   0  0  0  0  0  0  0  0  0  0  0  0
    2.0430   -3.5530    0.0000 C   0  0  0  0  0  0  0  0  0  0  0  0
    3.3430   -2.8050    0.0000 C   0  0  0  0  0  0  0  0  0  0  0  0
    3.3460   -1.3050    0.0000 C   0  0  0  0  0  0  0  0  0  0  0  0
    2.0480   -0.5530    0.0000 C   0  0  0  0  0  0  0  0  0  0  0  0
   -0.7520   -1.2980    0.0000 C   0  0  3  0  0  0  0  0  0  0  0  0
   -1.5000    0.0030    0.0000 C   0  0  0  0  0  0  0  0  0  0  0  0
   -3.0000    0.0050    0.0000 N   0  0  0  0  0  0  0  0  0  0  0  0
   -3.7480    1.3060    0.0000 C   0  0  0  0  0  0  0  0  0  0  0  0
   -3.7520   -1.2920    0.0000 C   0  0  0  0  0  0  0  0  0  0  0  0
   -1.5050   -2.5950    0.0000 C   0  0  0  0  0  0  0  0  0  0  0  0
   -3.0050   -2.5930    0.0000 C   0  0  0  0  0  0  0  0  0  0  0  0
   -3.7570   -3.8900    0.0000 C   0  0  0  0  0  0  0  0  0  0  0  0
   -3.0100   -5.1910    0.0000 C   0  0  0  0  0  0  0  0  0  0  0  0
   -3.7620   -6.4880    0.0000 O   0  0  0  0  0  0  0  0  0  0  0  0
   -1.5100   -5.1930    0.0000 C   0  0  0  0  0  0  0  0  0  0  0  0
   -0.7570   -3.8960    0.0000 C   0  0  0  0  0  0  0  0  0  0  0  0
  1  2  1  0  0  0  0
  2  3  1  0  0  0  0
  2  7  1  0  0  0  0
  2  8  1  0  0  0  0
  3  4  1  0  0  0  0
  4  5  1  0  0  0  0
  5  6  1  0  0  0  0
  6  7  1  0  0  0  0
  8  9  1  0  0  0  0
  8 13  1  0  0  0  0
  9 10  1  0  0  0  0
 10 11  1  0  0  0  0
 10 12  1  0  0  0  0
 13 14  1  0  0  0  0
 13 19  2  0  0  0  0
 14 15  2  0  0  0  0
 15 16  1  0  0  0  0
 16 17  1  0  0  0  0
 16 18  2  0  0  0  0
 18 19  1  0  0  0  0
M  END
>  <Index>
301

>  <ID>
HT0619

>  <class>
0

>  <apol>
47.533825

>  <ast_fraglike>
1

>  <ast_fraglike_ext>
0

>  <ast_violation>
0

>  <ast_violation_ext>
1

>  <a_acc>
3

>  <a_acid>
0

>  <a_aro>
6

>  <a_base>
0

>  <a_count>
44

>  <a_don>
2

>  <a_donacc>
5

>  <a_heavy>
19

>  <a_hyd>
16

>  <a_IC>
58.118587

>  <a_ICM>
1.320877

>  <a_nB>
0

>  <a_nBr>
0

>  <a_nC>
16

>  <a_nCl>
0

>  <a_nF>
0

>  <a_nH>
25

>  <a_nI>
0

>  <a_nN>
1

>  <a_nO>
2

>  <a_nP>
0

>  <a_nS>
0

>  <balabanJ>
2.0621305

>  <BCUT_PEOE_0>
-2.8248184

>  <BCUT_PEOE_1>
-0.46836326

>  <BCUT_PEOE_2>
0.50562412

>  <BCUT_PEOE_3>
2.7955163

>  <BCUT_SLOGP_0>
-2.7991493

>  <BCUT_SLOGP_1>
-0.3864927

>  <BCUT_SLOGP_2>
0.57471836

>  <BCUT_SLOGP_3>
2.8721592

>  <BCUT_SMR_0>
-2.5775306

>  <BCUT_SMR_1>
-0.29800799

>  <BCUT_SMR_2>
0.63658965

>  <BCUT_SMR_3>
3.0406799

>  <bpol>
29.310175

>  <b_1rotN>
4

>  <b_1rotR>
0.2

>  <b_ar>
6

>  <b_count>
45

>  <b_double>
0

>  <b_heavy>
20

>  <b_max1len>
7

>  <b_rotN>
4

>  <b_rotR>
0.2

>  <b_single>
39

>  <b_triple>
0

>  <chi0>
13.880469

>  <chi0v>
11.971033

>  <chi0v_C>
10.629392

>  <chi0_C>
11.303119

>  <chi1>
9.0106554

>  <chi1v>
7.1719413

>  <chi1v_C>
5.5140724

>  <chi1_C>
6.3703566

>  <chiral>
1

>  <chiral_u>
1

>  <density>
0.66811854

>  <diameter>
9

>  <FCharge>
0

>  <GCUT_PEOE_0>
-0.86248034

>  <GCUT_PEOE_1>
-0.36588514

>  <GCUT_PEOE_2>
0.016190957

>  <GCUT_PEOE_3>
2.861562

>  <GCUT_SLOGP_0>
-0.95362699

>  <GCUT_SLOGP_1>
-0.29454339

>  <GCUT_SLOGP_2>
0.072107457

>  <GCUT_SLOGP_3>
2.9341817

>  <GCUT_SMR_0>
-0.52874887

>  <GCUT_SMR_1>
-0.17436242

>  <GCUT_SMR_2>
0.12765004

>  <GCUT_SMR_3>
3.0976808

>  <Kier1>
15.39

>  <Kier2>
6.6352043

>  <Kier3>
3.9861591

>  <KierA1>
13.506868

>  <KierA2>
5.7785487

>  <KierA3>
3.4506795

>  <KierFlex>
4.1079001

>  <lip_acc>
3

>  <lip_don>
2

>  <lip_druglike>
1

>  <lip_violation>
0

>  <logP(o/w)>
2.9430001

>  <logS>
-2.09901

>  <mr>
7.7520576

>  <mutagenic>
0

>  <nmol>
1

>  <opr_brigid>
12

>  <opr_leadlike>
1

>  <opr_nring>
2

>  <opr_nrot>
6

>  <opr_violation>
0

>  <PC+>
0

>  <PC->
0

>  <PEOE_PC+>
1.4970454

>  <PEOE_PC->
-1.4970454

>  <PEOE_RPC+>
0.14516145

>  <PEOE_RPC->
0.25913146

>  <PEOE_VSA+0>
94.234657

>  <PEOE_VSA+1>
25.520063

>  <PEOE_VSA+2>
0

>  <PEOE_VSA+3>
0

>  <PEOE_VSA+4>
20.648346

>  <PEOE_VSA+5>
0

>  <PEOE_VSA+6>
0

>  <PEOE_VSA-0>
90.598351

>  <PEOE_VSA-1>
50.613747

>  <PEOE_VSA-2>
0

>  <PEOE_VSA-3>
0

>  <PEOE_VSA-4>
0

>  <PEOE_VSA-5>
0

>  <PEOE_VSA-6>
15.535081

>  <PEOE_VSA_FHYD>
0.87823188

>  <PEOE_VSA_FNEG>
0.5275014

>  <PEOE_VSA_FPNEG>
0.052280221

>  <PEOE_VSA_FPOL>
0.12176812

>  <PEOE_VSA_FPOS>
0.47249857

>  <PEOE_VSA_FPPOS>
0.069487892

>  <PEOE_VSA_HYD>
260.96683

>  <PEOE_VSA_NEG>
156.74718

>  <PEOE_VSA_PNEG>
15.535081

>  <PEOE_VSA_POL>
36.183426

>  <PEOE_VSA_POS>
140.40306

>  <PEOE_VSA_PPOS>
20.648346

>  <petitjean>
0.44444445

>  <petitjeanSC>
0.80000001

>  <Q_PC+>
0

>  <Q_PC->
0

>  <Q_RPC+>
0

>  <Q_RPC->
0

>  <Q_VSA_FHYD>
1

>  <Q_VSA_FNEG>
0

>  <Q_VSA_FPNEG>
0

>  <Q_VSA_FPOL>
0

>  <Q_VSA_FPOS>
1

>  <Q_VSA_FPPOS>
0

>  <Q_VSA_HYD>
297.15024

>  <Q_VSA_NEG>
0

>  <Q_VSA_PNEG>
0

>  <Q_VSA_POL>
0

>  <Q_VSA_POS>
297.15024

>  <Q_VSA_PPOS>
0

>  <radius>
5

>  <reactive>
0

>  <rings>
2

>  <RPC+>
0

>  <RPC->
0

>  <rsynth>
0

>  <SlogP>
2.7326

>  <SlogP_VSA0>
50.770454

>  <SlogP_VSA1>
3.1243138

>  <SlogP_VSA2>
0

>  <SlogP_VSA3>
18.439579

>  <SlogP_VSA4>
3.185575

>  <SlogP_VSA5>
65.794373

>  <SlogP_VSA6>
4.4107962

>  <SlogP_VSA7>
70.572739

>  <SlogP_VSA8>
94.342026

>  <SlogP_VSA9>
5.2434282

>  <SMR>
7.74366

>  <SMR_VSA0>
0

>  <SMR_VSA1>
53.894768

>  <SMR_VSA2>
0

>  <SMR_VSA3>
12.839799

>  <SMR_VSA4>
0

>  <SMR_VSA5>
164.91476

>  <SMR_VSA6>
18.439579

>  <SMR_VSA7>
65.794373

>  <TPSA>
43.700001

>  <VAdjEq>
0.5023343

>  <VAdjMa>
5.321928

>  <VDistEq>
2.9045093

>  <VDistMa>
8.2317982

>  <vdw_area>
297.15024

>  <vdw_vol>
394.21298

>  <vsa_acc>
0

>  <vsa_acid>
0

>  <vsa_base>
0

>  <vsa_don>
0

>  <vsa_hyd>
243.25047

>  <vsa_other>
0

>  <vsa_pol>
27.133842

>  <Weight>
263.38098

>  <weinerPath>
672

>  <weinerPol>
28

>  <zagreb>
96

$$$$