Oc1ccc(cc1CO)[C@@H](O)CNC(C)(C)C
  MOE2013           2D

 17 17  0  0  1  0  0  0  0  0999 V2000
    0.0000    0.0000    0.0000 O   0  0  0  0  0  0  0  0  0  0  0  0
    1.5000   -0.0110    0.0000 C   0  0  0  0  0  0  0  0  0  0  0  0
    2.2400   -1.3160    0.0000 C   0  0  0  0  0  0  0  0  0  0  0  0
    3.7400   -1.3270    0.0000 C   0  0  0  0  0  0  0  0  0  0  0  0
    4.5000   -0.0330    0.0000 C   0  0  0  0  0  0  0  0  0  0  0  0
    3.7590    1.2710    0.0000 C   0  0  0  0  0  0  0  0  0  0  0  0
    2.2600    1.2820    0.0000 C   0  0  0  0  0  0  0  0  0  0  0  0
    1.5190    2.5870    0.0000 C   0  0  0  0  0  0  0  0  0  0  0  0
    2.2790    3.8800    0.0000 O   0  0  0  0  0  0  0  0  0  0  0  0
    6.0000   -0.0440    0.0000 C   0  0  1  0  0  0  0  0  0  0  0  0
    6.7590    1.2490    0.0000 O   0  0  0  0  0  0  0  0  0  0  0  0
    6.7400   -1.3490    0.0000 C   0  0  0  0  0  0  0  0  0  0  0  0
    8.2400   -1.3600    0.0000 N   0  0  0  0  0  0  0  0  0  0  0  0
    8.9810   -2.6640    0.0000 C   0  0  0  0  0  0  0  0  0  0  0  0
   10.2850   -1.9240    0.0000 C   0  0  0  0  0  0  0  0  0  0  0  0
    7.6760   -3.4050    0.0000 C   0  0  0  0  0  0  0  0  0  0  0  0
    9.7210   -3.9690    0.0000 C   0  0  0  0  0  0  0  0  0  0  0  0
  1  2  1  0  0  0  0
  2  3  1  0  0  0  0
  2  7  2  0  0  0  0
  3  4  2  0  0  0  0
  4  5  1  0  0  0  0
  5  6  2  0  0  0  0
  5 10  1  0  0  0  0
  6  7  1  0  0  0  0
  7  8  1  0  0  0  0
  8  9  1  0  0  0  0
 10 11  1  1  0  0  0
 10 12  1  0  0  0  0
 12 13  1  0  0  0  0
 13 14  1  0  0  0  0
 14 15  1  0  0  0  0
 14 16  1  0  0  0  0
 14 17  1  0  0  0  0
M  END
>  <Index>
35

>  <ID>
HT0087

>  <class>
0

>  <apol>
40.388653

>  <ast_fraglike>
0

>  <ast_fraglike_ext>
0

>  <ast_violation>
2

>  <ast_violation_ext>
3

>  <a_acc>
4

>  <a_acid>
0

>  <a_aro>
6

>  <a_base>
0

>  <a_count>
38

>  <a_don>
4

>  <a_donacc>
8

>  <a_heavy>
17

>  <a_hyd>
13

>  <a_IC>
54.321976

>  <a_ICM>
1.4295257

>  <a_nB>
0

>  <a_nBr>
0

>  <a_nC>
13

>  <a_nCl>
0

>  <a_nF>
0

>  <a_nH>
21

>  <a_nI>
0

>  <a_nN>
1

>  <a_nO>
3

>  <a_nP>
0

>  <a_nS>
0

>  <balabanJ>
2.4028761

>  <BCUT_PEOE_0>
-2.7033775

>  <BCUT_PEOE_1>
-0.46420214

>  <BCUT_PEOE_2>
0.57967085

>  <BCUT_PEOE_3>
2.6268654

>  <BCUT_SLOGP_0>
-2.788614

>  <BCUT_SLOGP_1>
-0.44657934

>  <BCUT_SLOGP_2>
0.49500498

>  <BCUT_SLOGP_3>
2.6308038

>  <BCUT_SMR_0>
-2.432929

>  <BCUT_SMR_1>
-0.34696501

>  <BCUT_SMR_2>
0.68077034

>  <BCUT_SMR_3>
2.8917997

>  <bpol>
23.617348

>  <b_1rotN>
4

>  <b_1rotR>
0.23529412

>  <b_ar>
6

>  <b_count>
38

>  <b_double>
0

>  <b_heavy>
17

>  <b_max1len>
7

>  <b_rotN>
5

>  <b_rotR>
0.29411766

>  <b_single>
32

>  <b_triple>
0

>  <chi0>
13.052042

>  <chi0v>
10.565255

>  <chi0v_C>
8.7236147

>  <chi0_C>
9.3449354

>  <chi1>
7.8315172

>  <chi1v>
5.6900973

>  <chi1v_C>
4.2885108

>  <chi1_C>
5.1161566

>  <chiral>
1

>  <chiral_u>
0

>  <density>
0.7003085

>  <diameter>
9

>  <FCharge>
0

>  <GCUT_PEOE_0>
-0.84426451

>  <GCUT_PEOE_1>
-0.34357473

>  <GCUT_PEOE_2>
0.079186715

>  <GCUT_PEOE_3>
2.5540538

>  <GCUT_SLOGP_0>
-1.1526082

>  <GCUT_SLOGP_1>
-0.28501239

>  <GCUT_SLOGP_2>
-0.014278845

>  <GCUT_SLOGP_3>
2.6227014

>  <GCUT_SMR_0>
-0.52303308

>  <GCUT_SMR_1>
-0.19722997

>  <GCUT_SMR_2>
0.16027828

>  <GCUT_SMR_3>
2.8005259

>  <Kier1>
15.058824

>  <Kier2>
6.25

>  <Kier3>
5.0176001

>  <KierA1>
13.001166

>  <KierA2>
5.3430762

>  <KierA3>
4.25596

>  <KierFlex>
4.0862484

>  <lip_acc>
4

>  <lip_don>
4

>  <lip_druglike>
1

>  <lip_violation>
0

>  <logP(o/w)>
1.529

>  <logS>
-1.31354

>  <mr>
6.6941223

>  <mutagenic>
0

>  <nmol>
1

>  <opr_brigid>
6

>  <opr_leadlike>
1

>  <opr_nring>
1

>  <opr_nrot>
5

>  <opr_violation>
0

>  <PC+>
0

>  <PC->
0

>  <PEOE_PC+>
1.736784

>  <PEOE_PC->
-1.736784

>  <PEOE_RPC+>
0.12513123

>  <PEOE_RPC->
0.22474431

>  <PEOE_VSA+0>
62.32011

>  <PEOE_VSA+1>
53.907059

>  <PEOE_VSA+2>
8.6190128

>  <PEOE_VSA+3>
0

>  <PEOE_VSA+4>
30.972517

>  <PEOE_VSA+5>
0

>  <PEOE_VSA+6>
0

>  <PEOE_VSA-0>
82.96138

>  <PEOE_VSA-1>
12.254904

>  <PEOE_VSA-2>
0

>  <PEOE_VSA-3>
0

>  <PEOE_VSA-4>
0

>  <PEOE_VSA-5>
0

>  <PEOE_VSA-6>
23.439512

>  <PEOE_VSA_FHYD>
0.80175924

>  <PEOE_VSA_FNEG>
0.43230173

>  <PEOE_VSA_FPNEG>
0.08539778

>  <PEOE_VSA_FPOL>
0.19824076

>  <PEOE_VSA_FPOS>
0.5676983

>  <PEOE_VSA_FPPOS>
0.11284297

>  <PEOE_VSA_HYD>
220.06247

>  <PEOE_VSA_NEG>
118.65579

>  <PEOE_VSA_PNEG>
23.439512

>  <PEOE_VSA_POL>
54.412029

>  <PEOE_VSA_POS>
155.8187

>  <PEOE_VSA_PPOS>
30.972517

>  <petitjean>
0.44444445

>  <petitjeanSC>
0.80000001

>  <Q_PC+>
0

>  <Q_PC->
0

>  <Q_RPC+>
0

>  <Q_RPC->
0

>  <Q_VSA_FHYD>
1

>  <Q_VSA_FNEG>
0

>  <Q_VSA_FPNEG>
0

>  <Q_VSA_FPOL>
0

>  <Q_VSA_FPOS>
1

>  <Q_VSA_FPPOS>
0

>  <Q_VSA_HYD>
274.47449

>  <Q_VSA_NEG>
0

>  <Q_VSA_PNEG>
0

>  <Q_VSA_POL>
0

>  <Q_VSA_POS>
274.47449

>  <Q_VSA_PPOS>
0

>  <radius>
5

>  <reactive>
0

>  <rings>
1

>  <RPC+>
0

>  <RPC->
0

>  <rsynth>
1

>  <SlogP>
1.6679

>  <SlogP_VSA0>
94.166428

>  <SlogP_VSA1>
0

>  <SlogP_VSA2>
0

>  <SlogP_VSA3>
18.439579

>  <SlogP_VSA4>
6.37115

>  <SlogP_VSA5>
0

>  <SlogP_VSA6>
0

>  <SlogP_VSA7>
52.929554

>  <SlogP_VSA8>
6.4686494

>  <SlogP_VSA9>
126.14773

>  <SMR>
6.70611

>  <SMR_VSA0>
0

>  <SMR_VSA1>
76.155678

>  <SMR_VSA2>
18.01075

>  <SMR_VSA3>
18.083227

>  <SMR_VSA4>
0

>  <SMR_VSA5>
73.855812

>  <SMR_VSA6>
18.439579

>  <SMR_VSA7>
99.978043

>  <TPSA>
72.720001

>  <VAdjEq>
0.52255934

>  <VAdjMa>
5.0874629

>  <VDistEq>
3.0564995

>  <VDistMa>
7.8599992

>  <vdw_area>
274.47449

>  <vdw_vol>
341.72797

>  <vsa_acc>
0

>  <vsa_acid>
0

>  <vsa_base>
0

>  <vsa_don>
0

>  <vsa_hyd>
199.34293

>  <vsa_other>
0

>  <vsa_pol>
46.383339

>  <Weight>
239.31499

>  <weinerPath>
560

>  <weinerPol>
22

>  <zagreb>
82

$$$$