Clc1ccc(OC(C(Oc2ccc(Cl)cc2)=O)(C)C)cc1
  MOE2013           2D

 21 22  0  0  0  0  0  0  0  0999 V2000
    0.0000    0.0000    0.0000 Cl  0  0  0  0  0  0  0  0  0  0  0  0
    1.3040    0.7420    0.0000 C   0  0  0  0  0  0  0  0  0  0  0  0
    2.5980   -0.0160    0.0000 C   0  0  0  0  0  0  0  0  0  0  0  0
    3.9020    0.7260    0.0000 C   0  0  0  0  0  0  0  0  0  0  0  0
    3.9110    2.2260    0.0000 C   0  0  0  0  0  0  0  0  0  0  0  0
    5.2150    2.9680    0.0000 O   0  0  0  0  0  0  0  0  0  0  0  0
    6.5090    2.2100    0.0000 C   0  0  0  0  0  0  0  0  0  0  0  0
    7.8030    1.4520    0.0000 C   0  0  0  0  0  0  0  0  0  0  0  0
    9.1070    2.1940    0.0000 O   0  0  0  0  0  0  0  0  0  0  0  0
   10.4010    1.4360    0.0000 C   0  0  0  0  0  0  0  0  0  0  0  0
   10.3920   -0.0640    0.0000 C   0  0  0  0  0  0  0  0  0  0  0  0
   11.6860   -0.8220    0.0000 C   0  0  0  0  0  0  0  0  0  0  0  0
   12.9900   -0.0800    0.0000 C   0  0  0  0  0  0  0  0  0  0  0  0
   14.2850   -0.8380    0.0000 Cl  0  0  0  0  0  0  0  0  0  0  0  0
   12.9990    1.4200    0.0000 C   0  0  0  0  0  0  0  0  0  0  0  0
   11.7050    2.1780    0.0000 C   0  0  0  0  0  0  0  0  0  0  0  0
    7.7940   -0.0480    0.0000 O   0  0  0  0  0  0  0  0  0  0  0  0
    5.7510    0.9150    0.0000 C   0  0  0  0  0  0  0  0  0  0  0  0
    7.2670    3.5040    0.0000 C   0  0  0  0  0  0  0  0  0  0  0  0
    2.6170    2.9840    0.0000 C   0  0  0  0  0  0  0  0  0  0  0  0
    1.3130    2.2420    0.0000 C   0  0  0  0  0  0  0  0  0  0  0  0
  1  2  1  0  0  0  0
  2  3  1  0  0  0  0
  2 21  2  0  0  0  0
  3  4  2  0  0  0  0
  4  5  1  0  0  0  0
  5  6  1  0  0  0  0
  5 20  2  0  0  0  0
  6  7  1  0  0  0  0
  7  8  1  0  0  0  0
  7 18  1  0  0  0  0
  7 19  1  0  0  0  0
  8  9  1  0  0  0  0
  8 17  2  0  0  0  0
  9 10  1  0  0  0  0
 10 11  1  0  0  0  0
 10 16  2  0  0  0  0
 11 12  2  0  0  0  0
 12 13  1  0  0  0  0
 13 14  1  0  0  0  0
 13 15  2  0  0  0  0
 15 16  1  0  0  0  0
 20 21  1  0  0  0  0
M  END
>  <Index>
358

>  <ID>
HT0732

>  <class>
0

>  <apol>
44.261101

>  <ast_fraglike>
0

>  <ast_fraglike_ext>
0

>  <ast_violation>
2

>  <ast_violation_ext>
3

>  <a_acc>
2

>  <a_acid>
0

>  <a_aro>
12

>  <a_base>
0

>  <a_count>
35

>  <a_don>
0

>  <a_donacc>
2

>  <a_heavy>
21

>  <a_hyd>
17

>  <a_IC>
55.467049

>  <a_ICM>
1.5847728

>  <a_nB>
0

>  <a_nBr>
0

>  <a_nC>
16

>  <a_nCl>
2

>  <a_nF>
0

>  <a_nH>
14

>  <a_nI>
0

>  <a_nN>
0

>  <a_nO>
3

>  <a_nP>
0

>  <a_nS>
0

>  <balabanJ>
1.7815394

>  <BCUT_PEOE_0>
-2.5082493

>  <BCUT_PEOE_1>
-0.62537003

>  <BCUT_PEOE_2>
0.66189432

>  <BCUT_PEOE_3>
2.5798171

>  <BCUT_SLOGP_0>
-2.6093049

>  <BCUT_SLOGP_1>
-0.50264019

>  <BCUT_SLOGP_2>
0.80591482

>  <BCUT_SLOGP_3>
2.5294328

>  <BCUT_SMR_0>
-2.292166

>  <BCUT_SMR_1>
-0.42177466

>  <BCUT_SMR_2>
0.85431087

>  <BCUT_SMR_3>
2.7893739

>  <bpol>
20.934898

>  <b_1rotN>
4

>  <b_1rotR>
0.18181819

>  <b_ar>
12

>  <b_count>
36

>  <b_double>
1

>  <b_heavy>
22

>  <b_max1len>
4

>  <b_rotN>
5

>  <b_rotR>
0.22727273

>  <b_single>
23

>  <b_triple>
0

>  <chi0>
15.457819

>  <chi0v>
13.111334

>  <chi0v_C>
9.6188021

>  <chi0_C>
11.043606

>  <chi1>
9.8650103

>  <chi1v>
7.0472484

>  <chi1v_C>
4.8927345

>  <chi1_C>
6.5546613

>  <chiral>
0

>  <chiral_u>
0

>  <density>
0.82124329

>  <diameter>
13

>  <FCharge>
0

>  <GCUT_PEOE_0>
-0.76353902

>  <GCUT_PEOE_1>
-0.37796107

>  <GCUT_PEOE_2>
0.020590937

>  <GCUT_PEOE_3>
2.4167111

>  <GCUT_SLOGP_0>
-0.95777255

>  <GCUT_SLOGP_1>
-0.26386139

>  <GCUT_SLOGP_2>
0.16445385

>  <GCUT_SLOGP_3>
2.5102437

>  <GCUT_SMR_0>
-0.51292419

>  <GCUT_SMR_1>
-0.21019021

>  <GCUT_SMR_2>
0.20227689

>  <GCUT_SMR_3>
2.6760104

>  <Kier1>
17.355371

>  <Kier2>
7.5130072

>  <Kier3>
5.2897959

>  <KierA1>
15.03757

>  <KierA2>
6.4602771

>  <KierA3>
4.5220752

>  <KierFlex>
4.6260414

>  <lip_acc>
3

>  <lip_don>
0

>  <lip_druglike>
1

>  <lip_violation>
0

>  <logP(o/w)>
5.0897398

>  <logS>
-5.69876

>  <mr>
8.4642448

>  <mutagenic>
0

>  <nmol>
1

>  <opr_brigid>
12

>  <opr_leadlike>
1

>  <opr_nring>
2

>  <opr_nrot>
4

>  <opr_violation>
1

>  <PC+>
0

>  <PC->
0

>  <PEOE_PC+>
1.3687903

>  <PEOE_PC->
-1.3687903

>  <PEOE_RPC+>
0.21866097

>  <PEOE_RPC->
0.24020238

>  <PEOE_VSA+0>
34.631809

>  <PEOE_VSA+1>
51.040127

>  <PEOE_VSA+2>
0

>  <PEOE_VSA+3>
0

>  <PEOE_VSA+4>
0

>  <PEOE_VSA+5>
14.708499

>  <PEOE_VSA+6>
0

>  <PEOE_VSA-0>
135.53459

>  <PEOE_VSA-1>
59.163895

>  <PEOE_VSA-2>
0

>  <PEOE_VSA-3>
0

>  <PEOE_VSA-4>
0

>  <PEOE_VSA-5>
16.070677

>  <PEOE_VSA-6>
2.503756

>  <PEOE_VSA_FHYD>
0.89388627

>  <PEOE_VSA_FNEG>
0.67996377

>  <PEOE_VSA_FPNEG>
0.059219625

>  <PEOE_VSA_FPOL>
0.10611375

>  <PEOE_VSA_FPOS>
0.32003623

>  <PEOE_VSA_FPPOS>
0.046894126

>  <PEOE_VSA_HYD>
280.37042

>  <PEOE_VSA_NEG>
213.27292

>  <PEOE_VSA_PNEG>
18.574432

>  <PEOE_VSA_POL>
33.282932

>  <PEOE_VSA_POS>
100.38043

>  <PEOE_VSA_PPOS>
14.708499

>  <petitjean>
0.46153846

>  <petitjeanSC>
0.85714287

>  <Q_PC+>
0

>  <Q_PC->
0

>  <Q_RPC+>
0

>  <Q_RPC->
0

>  <Q_VSA_FHYD>
1

>  <Q_VSA_FNEG>
0

>  <Q_VSA_FPNEG>
0

>  <Q_VSA_FPOL>
0

>  <Q_VSA_FPOS>
1

>  <Q_VSA_FPPOS>
0

>  <Q_VSA_HYD>
313.65335

>  <Q_VSA_NEG>
0

>  <Q_VSA_PNEG>
0

>  <Q_VSA_POL>
0

>  <Q_VSA_POS>
313.65335

>  <Q_VSA_PPOS>
0

>  <radius>
7

>  <reactive>
0

>  <rings>
2

>  <RPC+>
0

>  <RPC->
0

>  <rsynth>
1

>  <SlogP>
4.7564001

>  <SlogP_VSA0>
21.999775

>  <SlogP_VSA1>
7.7454643

>  <SlogP_VSA2>
23.862217

>  <SlogP_VSA3>
0

>  <SlogP_VSA4>
0

>  <SlogP_VSA5>
0

>  <SlogP_VSA6>
7.0012131

>  <SlogP_VSA7>
141.14548

>  <SlogP_VSA8>
0

>  <SlogP_VSA9>
155.43617

>  <SMR>
8.3246002

>  <SMR_VSA0>
23.862217

>  <SMR_VSA1>
21.999775

>  <SMR_VSA2>
0

>  <SMR_VSA3>
17.48807

>  <SMR_VSA4>
0

>  <SMR_VSA5>
141.14548

>  <SMR_VSA6>
7.7454643

>  <SMR_VSA7>
144.94931

>  <TPSA>
35.529999

>  <VAdjEq>
0.46827638

>  <VAdjMa>
5.4594316

>  <VDistEq>
3.3835933

>  <VDistMa>
8.4638863

>  <vdw_area>
313.65335

>  <vdw_vol>
395.974

>  <vsa_acc>
16.070677

>  <vsa_acid>
0

>  <vsa_base>
0

>  <vsa_don>
0

>  <vsa_hyd>
270.40527

>  <vsa_other>
17.212255

>  <vsa_pol>
16.070677

>  <Weight>
325.19098

>  <weinerPath>
1022

>  <weinerPol>
29

>  <zagreb>
106

$$$$