Clc1ccc(nc1)N1C(OC(=O)N2CCN(CC2)C)c2nccnc2C1=O
  MOE2013           2D

 27 30  0  0  1  0  0  0  0  0999 V2000
    0.0000    0.0000    0.0000 Cl  0  0  0  0  0  0  0  0  0  0  0  0
    0.7540    1.2970    0.0000 C   0  0  0  0  0  0  0  0  0  0  0  0
    0.0070    2.5980    0.0000 C   0  0  0  0  0  0  0  0  0  0  0  0
    0.7610    3.8950    0.0000 C   0  0  0  0  0  0  0  0  0  0  0  0
    2.2610    3.8910    0.0000 C   0  0  0  0  0  0  0  0  0  0  0  0
    3.0070    2.5900    0.0000 N   0  0  0  0  0  0  0  0  0  0  0  0
    2.2540    1.2930    0.0000 C   0  0  0  0  0  0  0  0  0  0  0  0
    3.0150    5.1880    0.0000 N   0  0  0  0  0  0  0  0  0  0  0  0
    4.5070    5.3400    0.0000 C   0  0  3  0  0  0  0  0  0  0  0  0
    5.5070    4.2230    0.0000 O   0  0  0  0  0  0  0  0  0  0  0  0
    6.9760    4.5300    0.0000 C   0  0  0  0  0  0  0  0  0  0  0  0
    7.4430    5.9560    0.0000 O   0  0  0  0  0  0  0  0  0  0  0  0
    7.9760    3.4130    0.0000 N   0  0  0  0  0  0  0  0  0  0  0  0
    9.4440    3.7210    0.0000 C   0  0  0  0  0  0  0  0  0  0  0  0
   10.4450    2.6030    0.0000 C   0  0  0  0  0  0  0  0  0  0  0  0
    9.9770    1.1780    0.0000 N   0  0  0  0  0  0  0  0  0  0  0  0
    8.5090    0.8700    0.0000 C   0  0  0  0  0  0  0  0  0  0  0  0
    7.5090    1.9880    0.0000 C   0  0  0  0  0  0  0  0  0  0  0  0
   10.9780    0.0600    0.0000 C   0  0  0  0  0  0  0  0  0  0  0  0
    4.8230    6.8070    0.0000 C   0  0  0  0  0  0  0  0  0  0  0  0
    6.1240    7.5530    0.0000 N   0  0  0  0  0  0  0  0  0  0  0  0
    6.1280    9.0530    0.0000 C   0  0  0  0  0  0  0  0  0  0  0  0
    4.8310    9.8070    0.0000 C   0  0  0  0  0  0  0  0  0  0  0  0
    3.5300    9.0600    0.0000 N   0  0  0  0  0  0  0  0  0  0  0  0
    3.5260    7.5600    0.0000 C   0  0  0  0  0  0  0  0  0  0  0  0
    2.4080    6.5600    0.0000 C   0  0  0  0  0  0  0  0  0  0  0  0
    0.9420    6.8760    0.0000 O   0  0  0  0  0  0  0  0  0  0  0  0
  1  2  1  0  0  0  0
  2  3  1  0  0  0  0
  2  7  2  0  0  0  0
  3  4  2  0  0  0  0
  4  5  1  0  0  0  0
  5  6  2  0  0  0  0
  5  8  1  0  0  0  0
  6  7  1  0  0  0  0
  8  9  1  0  0  0  0
  8 26  1  0  0  0  0
  9 10  1  0  0  0  0
  9 20  1  0  0  0  0
 10 11  1  0  0  0  0
 11 12  2  0  0  0  0
 11 13  1  0  0  0  0
 13 14  1  0  0  0  0
 13 18  1  0  0  0  0
 14 15  1  0  0  0  0
 15 16  1  0  0  0  0
 16 17  1  0  0  0  0
 16 19  1  0  0  0  0
 17 18  1  0  0  0  0
 20 21  1  0  0  0  0
 20 25  2  0  0  0  0
 21 22  2  0  0  0  0
 22 23  1  0  0  0  0
 23 24  2  0  0  0  0
 24 25  1  0  0  0  0
 25 26  1  0  0  0  0
 26 27  2  0  0  0  0
M  END
>  <Index>
394

>  <ID>
HT0800

>  <class>
0

>  <apol>
52.441483

>  <ast_fraglike>
0

>  <ast_fraglike_ext>
0

>  <ast_violation>
2

>  <ast_violation_ext>
3

>  <a_acc>
6

>  <a_acid>
0

>  <a_aro>
12

>  <a_base>
0

>  <a_count>
44

>  <a_don>
0

>  <a_donacc>
6

>  <a_heavy>
27

>  <a_hyd>
14

>  <a_IC>
80.976593

>  <a_ICM>
1.8403771

>  <a_nB>
0

>  <a_nBr>
0

>  <a_nC>
17

>  <a_nCl>
1

>  <a_nF>
0

>  <a_nH>
17

>  <a_nI>
0

>  <a_nN>
6

>  <a_nO>
3

>  <a_nP>
0

>  <a_nS>
0

>  <balabanJ>
1.4758211

>  <BCUT_PEOE_0>
-2.7393894

>  <BCUT_PEOE_1>
-0.5513196

>  <BCUT_PEOE_2>
0.54370433

>  <BCUT_PEOE_3>
2.6568079

>  <BCUT_SLOGP_0>
-2.8712952

>  <BCUT_SLOGP_1>
-0.39165401

>  <BCUT_SLOGP_2>
0.71271479

>  <BCUT_SLOGP_3>
2.5352452

>  <BCUT_SMR_0>
-2.4597723

>  <BCUT_SMR_1>
-0.2931079

>  <BCUT_SMR_2>
0.80785507

>  <BCUT_SMR_3>
2.9241915

>  <bpol>
32.736519

>  <b_1rotN>
3

>  <b_1rotR>
0.1

>  <b_ar>
12

>  <b_count>
47

>  <b_double>
2

>  <b_heavy>
30

>  <b_max1len>
2

>  <b_rotN>
4

>  <b_rotR>
0.13333334

>  <b_single>
33

>  <b_triple>
0

>  <chi0>
18.965891

>  <chi0v>
15.334449

>  <chi0v_C>
10.292529

>  <chi0_C>
11.405413

>  <chi1>
13.041714

>  <chi1v>
8.8229494

>  <chi1v_C>
3.3213673

>  <chi1_C>
4.2247448

>  <chiral>
1

>  <chiral_u>
1

>  <density>
0.83268362

>  <diameter>
13

>  <FCharge>
0

>  <GCUT_PEOE_0>
-0.85451454

>  <GCUT_PEOE_1>
-0.43619755

>  <GCUT_PEOE_2>
0.018837264

>  <GCUT_PEOE_3>
2.6437285

>  <GCUT_SLOGP_0>
-0.96790862

>  <GCUT_SLOGP_1>
-0.3581419

>  <GCUT_SLOGP_2>
0.16211247

>  <GCUT_SLOGP_3>
2.6192517

>  <GCUT_SMR_0>
-0.51392406

>  <GCUT_SMR_1>
-0.16847084

>  <GCUT_SMR_2>
0.26578429

>  <GCUT_SMR_3>
2.896714

>  <Kier1>
20.280001

>  <Kier2>
8.7885342

>  <Kier3>
4.3022122

>  <KierA1>
15.678321

>  <KierA2>
6.722486

>  <KierA3>
3.2648911

>  <KierFlex>
3.9036036

>  <lip_acc>
9

>  <lip_don>
0

>  <lip_druglike>
1

>  <lip_violation>
0

>  <logP(o/w)>
-0.24947

>  <logS>
-1.01911

>  <mr>
9.8206873

>  <mutagenic>
0

>  <nmol>
1

>  <opr_brigid>
22

>  <opr_leadlike>
1

>  <opr_nring>
4

>  <opr_nrot>
4

>  <opr_violation>
1

>  <PC+>
0

>  <PC->
0

>  <PEOE_PC+>
2.5317552

>  <PEOE_PC->
-2.5317552

>  <PEOE_RPC+>
0.14438002

>  <PEOE_RPC->
0.12476498

>  <PEOE_VSA+0>
132.86475

>  <PEOE_VSA+1>
47.173607

>  <PEOE_VSA+2>
17.890114

>  <PEOE_VSA+3>
16.095491

>  <PEOE_VSA+4>
0

>  <PEOE_VSA+5>
12.949531

>  <PEOE_VSA+6>
19.199511

>  <PEOE_VSA-0>
47.748497

>  <PEOE_VSA-1>
29.581947

>  <PEOE_VSA-2>
0

>  <PEOE_VSA-3>
0

>  <PEOE_VSA-4>
24.932074

>  <PEOE_VSA-5>
21.753254

>  <PEOE_VSA-6>
0

>  <PEOE_VSA_FHYD>
0.7870428

>  <PEOE_VSA_FNEG>
0.33500683

>  <PEOE_VSA_FPNEG>
0.12611222

>  <PEOE_VSA_FPOL>
0.2129572

>  <PEOE_VSA_FPOS>
0.66499317

>  <PEOE_VSA_FPPOS>
0.086844996

>  <PEOE_VSA_HYD>
291.3544

>  <PEOE_VSA_NEG>
124.01577

>  <PEOE_VSA_PNEG>
46.685326

>  <PEOE_VSA_POL>
78.834366

>  <PEOE_VSA_POS>
246.173

>  <PEOE_VSA_PPOS>
32.14904

>  <petitjean>
0.46153846

>  <petitjeanSC>
0.85714287

>  <Q_PC+>
0

>  <Q_PC->
0

>  <Q_RPC+>
0

>  <Q_RPC->
0

>  <Q_VSA_FHYD>
1

>  <Q_VSA_FNEG>
0

>  <Q_VSA_FPNEG>
0

>  <Q_VSA_FPOL>
0

>  <Q_VSA_FPOS>
1

>  <Q_VSA_FPPOS>
0

>  <Q_VSA_HYD>
370.18878

>  <Q_VSA_NEG>
0

>  <Q_VSA_PNEG>
0

>  <Q_VSA_POL>
0

>  <Q_VSA_POS>
370.18878

>  <Q_VSA_PPOS>
0

>  <radius>
7

>  <reactive>
0

>  <rings>
4

>  <RPC+>
0

>  <RPC->
0

>  <rsynth>
1

>  <SlogP>
1.6635

>  <SlogP_VSA0>
3.1243138

>  <SlogP_VSA1>
69.180634

>  <SlogP_VSA2>
10.999887

>  <SlogP_VSA3>
73.758316

>  <SlogP_VSA4>
29.375711

>  <SlogP_VSA5>
32.897186

>  <SlogP_VSA6>
3.5006065

>  <SlogP_VSA7>
86.929436

>  <SlogP_VSA8>
6.0398216

>  <SlogP_VSA9>
65.338783

>  <SMR>
9.6491499

>  <SMR_VSA0>
58.724319

>  <SMR_VSA1>
56.605217

>  <SMR_VSA2>
3.1243138

>  <SMR_VSA3>
15.053924

>  <SMR_VSA4>
2.3279202

>  <SMR_VSA5>
86.929436

>  <SMR_VSA6>
86.333733

>  <SMR_VSA7>
72.04583

>  <TPSA>
91.760002

>  <VAdjEq>
0.41024774

>  <VAdjMa>
5.9068904

>  <VDistEq>
3.3654788

>  <VDistMa>
9.2412872

>  <vdw_area>
370.18878

>  <vdw_vol>
466.94205

>  <vsa_acc>
44.181568

>  <vsa_acid>
0

>  <vsa_base>
0

>  <vsa_don>
0

>  <vsa_hyd>
255.11378

>  <vsa_other>
58.792892

>  <vsa_pol>
44.181568

>  <Weight>
388.815

>  <weinerPath>
1782

>  <weinerPol>
45

>  <zagreb>
146

$$$$