S=C1N(C(C)(C)C(=O)N1c1cc(C(F)(F)F)c(cc1)C#N)c1cc(F)c(cc1)C(=O)NC
  MOE2013           2D

 32 34  0  0  0  0  0  0  0  0999 V2000
    0.0000    0.0000    0.0000 S   0  0  0  0  0  0  0  0  0  0  0  0
   -0.0020    1.5000    0.0000 C   0  0  0  0  0  0  0  0  0  0  0  0
    1.2100    2.3830    0.0000 N   0  0  0  0  0  0  0  0  0  0  0  0
    0.7450    3.8090    0.0000 C   0  0  0  0  0  0  0  0  0  0  0  0
    0.8930    5.3020    0.0000 C   0  0  0  0  0  0  0  0  0  0  0  0
    2.1380    4.3670    0.0000 C   0  0  0  0  0  0  0  0  0  0  0  0
   -0.7550    3.8070    0.0000 C   0  0  0  0  0  0  0  0  0  0  0  0
   -1.6380    5.0200    0.0000 O   0  0  0  0  0  0  0  0  0  0  0  0
   -1.2170    2.3800    0.0000 N   0  0  0  0  0  0  0  0  0  0  0  0
   -2.6430    1.9150    0.0000 C   0  0  0  0  0  0  0  0  0  0  0  0
   -3.7590    2.9170    0.0000 C   0  0  0  0  0  0  0  0  0  0  0  0
   -5.1850    2.4520    0.0000 C   0  0  0  0  0  0  0  0  0  0  0  0
   -6.3010    3.4540    0.0000 C   0  0  0  0  0  0  0  0  0  0  0  0
   -7.4170    4.4560    0.0000 F   0  0  0  0  0  0  0  0  0  0  0  0
   -5.2980    4.5700    0.0000 F   0  0  0  0  0  0  0  0  0  0  0  0
   -7.3030    2.3380    0.0000 F   0  0  0  0  0  0  0  0  0  0  0  0
   -5.4950    0.9840    0.0000 C   0  0  0  0  0  0  0  0  0  0  0  0
   -4.3790   -0.0180    0.0000 C   0  0  0  0  0  0  0  0  0  0  0  0
   -2.9530    0.4470    0.0000 C   0  0  0  0  0  0  0  0  0  0  0  0
   -6.9210    0.5190    0.0000 C   0  0  0  0  0  0  0  0  0  0  0  0
   -8.3470    0.0530    0.0000 N   0  0  0  0  0  0  0  0  0  0  0  0
    2.6380    1.9220    0.0000 C   0  0  0  0  0  0  0  0  0  0  0  0
    2.9510    0.4550    0.0000 C   0  0  0  0  0  0  0  0  0  0  0  0
    4.3790   -0.0070    0.0000 C   0  0  0  0  0  0  0  0  0  0  0  0
    4.6920   -1.4740    0.0000 F   0  0  0  0  0  0  0  0  0  0  0  0
    5.4920    0.9980    0.0000 C   0  0  0  0  0  0  0  0  0  0  0  0
    5.1780    2.4650    0.0000 C   0  0  0  0  0  0  0  0  0  0  0  0
    3.7510    2.9270    0.0000 C   0  0  0  0  0  0  0  0  0  0  0  0
    6.9190    0.5360    0.0000 C   0  0  0  0  0  0  0  0  0  0  0  0
    7.2330   -0.9300    0.0000 O   0  0  0  0  0  0  0  0  0  0  0  0
    8.0330    1.5420    0.0000 N   0  0  0  0  0  0  0  0  0  0  0  0
    9.4600    1.0800    0.0000 C   0  0  0  0  0  0  0  0  0  0  0  0
  1  2  2  0  0  0  0
  2  3  1  0  0  0  0
  2  9  1  0  0  0  0
  3  4  1  0  0  0  0
  3 22  1  0  0  0  0
  4  5  1  0  0  0  0
  4  6  1  0  0  0  0
  4  7  1  0  0  0  0
  7  8  2  0  0  0  0
  7  9  1  0  0  0  0
  9 10  1  0  0  0  0
 10 11  1  0  0  0  0
 10 19  2  0  0  0  0
 11 12  2  0  0  0  0
 12 13  1  0  0  0  0
 12 17  1  0  0  0  0
 13 14  1  0  0  0  0
 13 15  1  0  0  0  0
 13 16  1  0  0  0  0
 17 18  2  0  0  0  0
 17 20  1  0  0  0  0
 18 19  1  0  0  0  0
 20 21  3  0  0  0  0
 22 23  1  0  0  0  0
 22 28  2  0  0  0  0
 23 24  2  0  0  0  0
 24 25  1  0  0  0  0
 24 26  1  0  0  0  0
 26 27  2  0  0  0  0
 26 29  1  0  0  0  0
 27 28  1  0  0  0  0
 29 30  2  0  0  0  0
 29 31  1  0  0  0  0
 31 32  1  0  0  0  0
M  END
>  <Index>
375

>  <ID>
HT0765

>  <class>
0

>  <apol>
58.760689

>  <ast_fraglike>
0

>  <ast_fraglike_ext>
0

>  <ast_violation>
3

>  <ast_violation_ext>
5

>  <a_acc>
4

>  <a_acid>
0

>  <a_aro>
12

>  <a_base>
0

>  <a_count>
48

>  <a_don>
1

>  <a_donacc>
5

>  <a_heavy>
32

>  <a_hyd>
21

>  <a_IC>
93.839531

>  <a_ICM>
1.9549903

>  <a_nB>
0

>  <a_nBr>
0

>  <a_nC>
21

>  <a_nCl>
0

>  <a_nF>
4

>  <a_nH>
16

>  <a_nI>
0

>  <a_nN>
4

>  <a_nO>
2

>  <a_nP>
0

>  <a_nS>
1

>  <balabanJ>
1.7857504

>  <BCUT_PEOE_0>
-2.5402319

>  <BCUT_PEOE_1>
-0.53436446

>  <BCUT_PEOE_2>
0.59327745

>  <BCUT_PEOE_3>
2.6557939

>  <BCUT_SLOGP_0>
-2.6324255

>  <BCUT_SLOGP_1>
-0.47347847

>  <BCUT_SLOGP_2>
0.63938665

>  <BCUT_SLOGP_3>
2.587697

>  <BCUT_SMR_0>
-2.2889354

>  <BCUT_SMR_1>
-0.28391096

>  <BCUT_SMR_2>
0.75995332

>  <BCUT_SMR_3>
2.9568725

>  <bpol>
30.639313

>  <b_1rotN>
3

>  <b_1rotR>
0.088235296

>  <b_ar>
12

>  <b_count>
50

>  <b_double>
3

>  <b_heavy>
34

>  <b_max1len>
4

>  <b_rotN>
6

>  <b_rotR>
0.17647059

>  <b_single>
34

>  <b_triple>
1

>  <chi0>
24.007708

>  <chi0v>
17.858841

>  <chi0v_C>
12.464102

>  <chi0_C>
14.1459

>  <chi1>
14.83879

>  <chi1v>
9.5678654

>  <chi1v_C>
5.4760675

>  <chi1_C>
7.251585

>  <chiral>
0

>  <chiral_u>
0

>  <density>
0.872383

>  <diameter>
15

>  <FCharge>
0

>  <GCUT_PEOE_0>
-0.83986413

>  <GCUT_PEOE_1>
-0.44551605

>  <GCUT_PEOE_2>
0.018227443

>  <GCUT_PEOE_3>
2.7193513

>  <GCUT_SLOGP_0>
-1.1607237

>  <GCUT_SLOGP_1>
-0.32876334

>  <GCUT_SLOGP_2>
0.24117009

>  <GCUT_SLOGP_3>
2.7650471

>  <GCUT_SMR_0>
-0.507397

>  <GCUT_SMR_1>
-0.19857061

>  <GCUT_SMR_2>
0.19554712

>  <GCUT_SMR_3>
3.0199599

>  <Kier1>
26.602076

>  <Kier2>
9.9323606

>  <Kier3>
5.0347223

>  <KierA1>
19.32551

>  <KierA2>
7.1355681

>  <KierA3>
3.588659

>  <KierFlex>
4.3093281

>  <lip_acc>
6

>  <lip_don>
1

>  <lip_druglike>
1

>  <lip_violation>
0

>  <logP(o/w)>
3.7797599

>  <logS>
-7.5511298

>  <mr>
11.263069

>  <mutagenic>
0

>  <nmol>
1

>  <opr_brigid>
17

>  <opr_leadlike>
1

>  <opr_nring>
3

>  <opr_nrot>
4

>  <opr_violation>
1

>  <PC+>
0

>  <PC->
0

>  <PEOE_PC+>
2.5633841

>  <PEOE_PC->
-2.5633841

>  <PEOE_RPC+>
0.16332725

>  <PEOE_RPC->
0.13847408

>  <PEOE_VSA+0>
81.49334

>  <PEOE_VSA+1>
59.216991

>  <PEOE_VSA+2>
40.405357

>  <PEOE_VSA+3>
8.6190128

>  <PEOE_VSA+4>
0

>  <PEOE_VSA+5>
25.899061

>  <PEOE_VSA+6>
9.0455017

>  <PEOE_VSA-0>
111.02478

>  <PEOE_VSA-1>
0

>  <PEOE_VSA-2>
0

>  <PEOE_VSA-3>
53.468395

>  <PEOE_VSA-4>
11.908636

>  <PEOE_VSA-5>
27.133842

>  <PEOE_VSA-6>
0.13689101

>  <PEOE_VSA_FHYD>
0.8269555

>  <PEOE_VSA_FNEG>
0.4754796

>  <PEOE_VSA_FPNEG>
0.091465399

>  <PEOE_VSA_FPOL>
0.17304452

>  <PEOE_VSA_FPOS>
0.5245204

>  <PEOE_VSA_FPPOS>
0.081579119

>  <PEOE_VSA_HYD>
354.22787

>  <PEOE_VSA_NEG>
203.67255

>  <PEOE_VSA_PNEG>
39.179367

>  <PEOE_VSA_POL>
74.123932

>  <PEOE_VSA_POS>
224.67926

>  <PEOE_VSA_PPOS>
34.944565

>  <petitjean>
0.46666667

>  <petitjeanSC>
0.875

>  <Q_PC+>
0

>  <Q_PC->
0

>  <Q_RPC+>
0

>  <Q_RPC->
0

>  <Q_VSA_FHYD>
1

>  <Q_VSA_FNEG>
0

>  <Q_VSA_FPNEG>
0

>  <Q_VSA_FPOL>
0

>  <Q_VSA_FPOS>
1

>  <Q_VSA_FPPOS>
0

>  <Q_VSA_HYD>
428.35181

>  <Q_VSA_NEG>
0

>  <Q_VSA_PNEG>
0

>  <Q_VSA_POL>
0

>  <Q_VSA_POS>
428.35181

>  <Q_VSA_PPOS>
0

>  <radius>
8

>  <reactive>
0

>  <rings>
3

>  <RPC+>
0

>  <RPC->
0

>  <rsynth>
1

>  <SlogP>
4.3039842

>  <SlogP_VSA0>
24.259378

>  <SlogP_VSA1>
10.802089

>  <SlogP_VSA2>
32.983234

>  <SlogP_VSA3>
47.661102

>  <SlogP_VSA4>
33.418941

>  <SlogP_VSA5>
32.897186

>  <SlogP_VSA6>
7.7595162

>  <SlogP_VSA7>
105.85911

>  <SlogP_VSA8>
0

>  <SlogP_VSA9>
177.19801

>  <SMR>
11.27092

>  <SMR_VSA0>
47.724434

>  <SMR_VSA1>
90.899811

>  <SMR_VSA2>
41.139912

>  <SMR_VSA3>
26.158472

>  <SMR_VSA4>
5.513495

>  <SMR_VSA5>
105.85911

>  <SMR_VSA6>
10.802089

>  <SMR_VSA7>
144.74124

>  <TPSA>
108.53

>  <VAdjEq>
0.35236704

>  <VAdjMa>
6.0874629

>  <VDistEq>
3.6008008

>  <VDistMa>
9.7180605

>  <vdw_area>
428.35181

>  <vdw_vol>
532.38428

>  <vsa_acc>
76.260841

>  <vsa_acid>
0

>  <vsa_base>
0

>  <vsa_don>
5.6825762

>  <vsa_hyd>
273.29294

>  <vsa_other>
59.365192

>  <vsa_pol>
81.94342

>  <Weight>
464.44299

>  <weinerPath>
2840

>  <weinerPol>
61

>  <zagreb>
174

$$$$