Oc1cc(ccc1O)[C@@H](O)CNC
  MOE2013           2D

 13 13  0  0  1  0  0  0  0  0999 V2000
    0.0000    0.0000    0.0000 O   0  0  0  0  0  0  0  0  0  0  0  0
    1.3050    0.7400    0.0000 C   0  0  0  0  0  0  0  0  0  0  0  0
    2.5980   -0.0190    0.0000 C   0  0  0  0  0  0  0  0  0  0  0  0
    3.9030    0.7210    0.0000 C   0  0  0  0  0  0  0  0  0  0  0  0
    3.9140    2.2210    0.0000 C   0  0  0  0  0  0  0  0  0  0  0  0
    2.6200    2.9810    0.0000 C   0  0  0  0  0  0  0  0  0  0  0  0
    1.3160    2.2400    0.0000 C   0  0  0  0  0  0  0  0  0  0  0  0
    0.0220    3.0000    0.0000 O   0  0  0  0  0  0  0  0  0  0  0  0
    5.1960   -0.0380    0.0000 C   0  0  1  0  0  0  0  0  0  0  0  0
    5.1850   -1.5380    0.0000 O   0  0  0  0  0  0  0  0  0  0  0  0
    6.5010    0.7020    0.0000 C   0  0  0  0  0  0  0  0  0  0  0  0
    7.7940   -0.0580    0.0000 N   0  0  0  0  0  0  0  0  0  0  0  0
    9.0990    0.6830    0.0000 C   0  0  0  0  0  0  0  0  0  0  0  0
  1  2  1  0  0  0  0
  2  3  2  0  0  0  0
  2  7  1  0  0  0  0
  3  4  1  0  0  0  0
  4  5  2  0  0  0  0
  4  9  1  0  0  0  0
  5  6  1  0  0  0  0
  6  7  2  0  0  0  0
  7  8  1  0  0  0  0
  9 10  1  6  0  0  0
  9 11  1  0  0  0  0
 11 12  1  0  0  0  0
 12 13  1  0  0  0  0
M  END
>  <Index>
378

>  <ID>
HT0769

>  <class>
0

>  <apol>
28.014309

>  <ast_fraglike>
0

>  <ast_fraglike_ext>
0

>  <ast_violation>
2

>  <ast_violation_ext>
2

>  <a_acc>
4

>  <a_acid>
0

>  <a_aro>
6

>  <a_base>
0

>  <a_count>
26

>  <a_don>
4

>  <a_donacc>
8

>  <a_heavy>
13

>  <a_hyd>
9

>  <a_IC>
40.821503

>  <a_ICM>
1.5700579

>  <a_nB>
0

>  <a_nBr>
0

>  <a_nC>
9

>  <a_nCl>
0

>  <a_nF>
0

>  <a_nH>
13

>  <a_nI>
0

>  <a_nN>
1

>  <a_nO>
3

>  <a_nP>
0

>  <a_nS>
0

>  <balabanJ>
2.3793886

>  <BCUT_PEOE_0>
-2.5414813

>  <BCUT_PEOE_1>
-0.67931008

>  <BCUT_PEOE_2>
0.71414715

>  <BCUT_PEOE_3>
2.4891865

>  <BCUT_SLOGP_0>
-2.6716969

>  <BCUT_SLOGP_1>
-0.67779064

>  <BCUT_SLOGP_2>
0.65286928

>  <BCUT_SLOGP_3>
2.5241427

>  <BCUT_SMR_0>
-2.2732832

>  <BCUT_SMR_1>
-0.54172057

>  <BCUT_SMR_2>
0.82963407

>  <BCUT_SMR_3>
2.7463384

>  <bpol>
14.871691

>  <b_1rotN>
3

>  <b_1rotR>
0.23076923

>  <b_ar>
6

>  <b_count>
26

>  <b_double>
0

>  <b_heavy>
13

>  <b_max1len>
6

>  <b_rotN>
3

>  <b_rotR>
0.23076923

>  <b_single>
20

>  <b_triple>
0

>  <chi0>
9.8449354

>  <chi0v>
7.3581486

>  <chi0v_C>
5.5165076

>  <chi0_C>
6.1378284

>  <chi1>
6.1470656

>  <chi1v>
3.9939232

>  <chi1v_C>
2.4349573

>  <chi1_C>
3.2079082

>  <chiral>
1

>  <chiral_u>
0

>  <density>
0.75081372

>  <diameter>
8

>  <FCharge>
0

>  <GCUT_PEOE_0>
-0.84669477

>  <GCUT_PEOE_1>
-0.43545276

>  <GCUT_PEOE_2>
0.1504582

>  <GCUT_PEOE_3>
2.2914422

>  <GCUT_SLOGP_0>
-1.1524692

>  <GCUT_SLOGP_1>
-0.34077325

>  <GCUT_SLOGP_2>
0.10907655

>  <GCUT_SLOGP_3>
2.3998179

>  <GCUT_SMR_0>
-0.51227039

>  <GCUT_SMR_1>
-0.24782118

>  <GCUT_SMR_2>
0.21918397

>  <GCUT_SMR_3>
2.5504069

>  <Kier1>
11.076923

>  <Kier2>
5.0242214

>  <Kier3>
3

>  <KierA1>
9.1026993

>  <KierA2>
4.0550556

>  <KierA3>
2.3844857

>  <KierFlex>
2.839381

>  <lip_acc>
4

>  <lip_don>
4

>  <lip_druglike>
1

>  <lip_violation>
0

>  <logP(o/w)>
0.53299999

>  <logS>
-0.19893999

>  <mr>
4.894176

>  <mutagenic>
0

>  <nmol>
1

>  <opr_brigid>
6

>  <opr_leadlike>
1

>  <opr_nring>
1

>  <opr_nrot>
3

>  <opr_violation>
0

>  <PC+>
0

>  <PC->
0

>  <PEOE_PC+>
1.5540004

>  <PEOE_PC->
-1.5540004

>  <PEOE_RPC+>
0.13991095

>  <PEOE_RPC->
0.24833633

>  <PEOE_VSA+0>
34.519257

>  <PEOE_VSA+1>
21.966473

>  <PEOE_VSA+2>
25.536053

>  <PEOE_VSA+3>
0

>  <PEOE_VSA+4>
30.972517

>  <PEOE_VSA+5>
0

>  <PEOE_VSA+6>
0

>  <PEOE_VSA-0>
49.957035

>  <PEOE_VSA-1>
12.254904

>  <PEOE_VSA-2>
0

>  <PEOE_VSA-3>
0

>  <PEOE_VSA-4>
0

>  <PEOE_VSA-5>
0

>  <PEOE_VSA-6>
23.439512

>  <PEOE_VSA_FHYD>
0.72608513

>  <PEOE_VSA_FNEG>
0.43117687

>  <PEOE_VSA_FPNEG>
0.11799654

>  <PEOE_VSA_FPOL>
0.2739149

>  <PEOE_VSA_FPOS>
0.56882316

>  <PEOE_VSA_FPPOS>
0.15591834

>  <PEOE_VSA_HYD>
144.23372

>  <PEOE_VSA_NEG>
85.651451

>  <PEOE_VSA_PNEG>
23.439512

>  <PEOE_VSA_POL>
54.412029

>  <PEOE_VSA_POS>
112.9943

>  <PEOE_VSA_PPOS>
30.972517

>  <petitjean>
0.5

>  <petitjeanSC>
1

>  <Q_PC+>
0

>  <Q_PC->
0

>  <Q_RPC+>
0

>  <Q_RPC->
0

>  <Q_VSA_FHYD>
1

>  <Q_VSA_FNEG>
0

>  <Q_VSA_FPNEG>
0

>  <Q_VSA_FPOL>
0

>  <Q_VSA_FPOS>
1

>  <Q_VSA_FPPOS>
0

>  <Q_VSA_HYD>
198.64575

>  <Q_VSA_NEG>
0

>  <Q_VSA_PNEG>
0

>  <Q_VSA_POL>
0

>  <Q_VSA_POS>
198.64575

>  <Q_VSA_PPOS>
0

>  <radius>
4

>  <reactive>
0

>  <rings>
1

>  <RPC+>
0

>  <RPC->
0

>  <rsynth>
1

>  <SlogP>
0.4461

>  <SlogP_VSA0>
94.166428

>  <SlogP_VSA1>
0

>  <SlogP_VSA2>
0

>  <SlogP_VSA3>
18.439579

>  <SlogP_VSA4>
3.185575

>  <SlogP_VSA5>
32.897186

>  <SlogP_VSA6>
0

>  <SlogP_VSA7>
52.929554

>  <SlogP_VSA8>
6.4686494

>  <SlogP_VSA9>
10.486856

>  <SMR>
4.8769102

>  <SMR_VSA0>
0

>  <SMR_VSA1>
76.155678

>  <SMR_VSA2>
18.01075

>  <SMR_VSA3>
20.141081

>  <SMR_VSA4>
0

>  <SMR_VSA5>
52.929554

>  <SMR_VSA6>
18.439579

>  <SMR_VSA7>
32.897186

>  <TPSA>
72.720001

>  <VAdjEq>
0.6193822

>  <VAdjMa>
4.7004399

>  <VDistEq>
2.709851

>  <VDistMa>
7.0807304

>  <vdw_area>
198.64575

>  <vdw_vol>
244.01125

>  <vsa_acc>
0

>  <vsa_acid>
0

>  <vsa_base>
0

>  <vsa_don>
0

>  <vsa_hyd>
129.20854

>  <vsa_other>
0

>  <vsa_pol>
46.383339

>  <Weight>
183.207

>  <weinerPath>
256

>  <weinerPol>
17

>  <zagreb>
60

$$$$