O=C(N(CC)CC)c1cc(ccc1)C
  MOE2013           2D

 14 14  0  0  0  0  0  0  0  0999 V2000
    0.0000    0.0000    0.0000 O   0  0  0  0  0  0  0  0  0  0  0  0
    0.0090   -1.5000    0.0000 C   0  0  0  0  0  0  0  0  0  0  0  0
    1.3130   -2.2420    0.0000 N   0  0  0  0  0  0  0  0  0  0  0  0
    2.6070   -1.4840    0.0000 C   0  0  0  0  0  0  0  0  0  0  0  0
    3.9110   -2.2250    0.0000 C   0  0  0  0  0  0  0  0  0  0  0  0
    1.3230   -3.7420    0.0000 C   0  0  0  0  0  0  0  0  0  0  0  0
    2.6260   -4.4840    0.0000 C   0  0  0  0  0  0  0  0  0  0  0  0
   -1.2850   -2.2580    0.0000 C   0  0  0  0  0  0  0  0  0  0  0  0
   -2.5890   -1.5160    0.0000 C   0  0  0  0  0  0  0  0  0  0  0  0
   -3.8830   -2.2750    0.0000 C   0  0  0  0  0  0  0  0  0  0  0  0
   -3.8730   -3.7750    0.0000 C   0  0  0  0  0  0  0  0  0  0  0  0
   -2.5700   -4.5160    0.0000 C   0  0  0  0  0  0  0  0  0  0  0  0
   -1.2750   -3.7580    0.0000 C   0  0  0  0  0  0  0  0  0  0  0  0
   -5.1870   -1.5330    0.0000 C   0  0  0  0  0  0  0  0  0  0  0  0
  1  2  2  0  0  0  0
  2  3  1  0  0  0  0
  2  8  1  0  0  0  0
  3  4  1  0  0  0  0
  3  6  1  0  0  0  0
  4  5  1  0  0  0  0
  6  7  1  0  0  0  0
  8  9  1  0  0  0  0
  8 13  2  0  0  0  0
  9 10  2  0  0  0  0
 10 11  1  0  0  0  0
 10 14  1  0  0  0  0
 11 12  2  0  0  0  0
 12 13  1  0  0  0  0
M  END
>  <Index>
319

>  <ID>
HT0658

>  <class>
0

>  <apol>
34.357479

>  <ast_fraglike>
1

>  <ast_fraglike_ext>
1

>  <ast_violation>
0

>  <ast_violation_ext>
0

>  <a_acc>
1

>  <a_acid>
0

>  <a_aro>
6

>  <a_base>
0

>  <a_count>
31

>  <a_don>
0

>  <a_donacc>
1

>  <a_heavy>
14

>  <a_hyd>
11

>  <a_IC>
41.073666

>  <a_ICM>
1.324957

>  <a_nB>
0

>  <a_nBr>
0

>  <a_nC>
12

>  <a_nCl>
0

>  <a_nF>
0

>  <a_nH>
17

>  <a_nI>
0

>  <a_nN>
1

>  <a_nO>
1

>  <a_nP>
0

>  <a_nS>
0

>  <balabanJ>
2.4718425

>  <BCUT_PEOE_0>
-2.5883598

>  <BCUT_PEOE_1>
-0.20878917

>  <BCUT_PEOE_2>
0.0485784

>  <BCUT_PEOE_3>
2.5041964

>  <BCUT_SLOGP_0>
-2.6503198

>  <BCUT_SLOGP_1>
-0.025166363

>  <BCUT_SLOGP_2>
0.12802899

>  <BCUT_SLOGP_3>
2.4818735

>  <BCUT_SMR_0>
-2.3084288

>  <BCUT_SMR_1>
0.073581025

>  <BCUT_SMR_2>
0.21607845

>  <BCUT_SMR_3>
2.7803049

>  <bpol>
21.522518

>  <b_1rotN>
4

>  <b_1rotR>
0.2857143

>  <b_ar>
6

>  <b_count>
31

>  <b_double>
1

>  <b_heavy>
14

>  <b_max1len>
6

>  <b_rotN>
4

>  <b_rotR>
0.2857143

>  <b_single>
24

>  <b_triple>
0

>  <chi0>
10.552042

>  <chi0v>
9.0790768

>  <chi0v_C>
8.2236147

>  <chi0_C>
8.9746914

>  <chi1>
6.6850705

>  <chi1v>
5.0457673

>  <chi1v_C>
3.9855807

>  <chi1_C>
4.9578905

>  <chiral>
0

>  <chiral_u>
0

>  <density>
0.64942831

>  <diameter>
7

>  <FCharge>
0

>  <GCUT_PEOE_0>
-0.85148185

>  <GCUT_PEOE_1>
-0.36073753

>  <GCUT_PEOE_2>
-0.1114216

>  <GCUT_PEOE_3>
2.380877

>  <GCUT_SLOGP_0>
-0.95939708

>  <GCUT_SLOGP_1>
-0.24416155

>  <GCUT_SLOGP_2>
-0.037

>  <GCUT_SLOGP_3>
2.4322181

>  <GCUT_SMR_0>
-0.5167951

>  <GCUT_SMR_1>
-0.10368958

>  <GCUT_SMR_2>
-0.016786594

>  <GCUT_SMR_3>
2.649358

>  <Kier1>
12.071428

>  <Kier2>
5.7777777

>  <Kier3>
3.2727273

>  <KierA1>
8.9811068

>  <KierA2>
4.1909242

>  <KierA3>
2.3279636

>  <KierFlex>
2.6885097

>  <lip_acc>
2

>  <lip_don>
0

>  <lip_druglike>
1

>  <lip_violation>
0

>  <logP(o/w)>
2.4189999

>  <logS>
-2.55336

>  <mr>
5.9370813

>  <mutagenic>
0

>  <nmol>
1

>  <opr_brigid>
6

>  <opr_leadlike>
1

>  <opr_nring>
1

>  <opr_nrot>
3

>  <opr_violation>
0

>  <PC+>
0

>  <PC->
0

>  <PEOE_PC+>
1.0058918

>  <PEOE_PC->
-1.0058918

>  <PEOE_RPC+>
0.25308302

>  <PEOE_RPC->
0.33682206

>  <PEOE_VSA+0>
84.043205

>  <PEOE_VSA+1>
17.061544

>  <PEOE_VSA+2>
0

>  <PEOE_VSA+3>
0

>  <PEOE_VSA+4>
0

>  <PEOE_VSA+5>
12.949531

>  <PEOE_VSA+6>
0

>  <PEOE_VSA-0>
82.96138

>  <PEOE_VSA-1>
24.509808

>  <PEOE_VSA-2>
0

>  <PEOE_VSA-3>
0

>  <PEOE_VSA-4>
0

>  <PEOE_VSA-5>
13.566921

>  <PEOE_VSA-6>
0

>  <PEOE_VSA_FHYD>
0.8872084

>  <PEOE_VSA_FNEG>
0.51485336

>  <PEOE_VSA_FPNEG>
0.057708889

>  <PEOE_VSA_FPOL>
0.11279162

>  <PEOE_VSA_FPOS>
0.48514664

>  <PEOE_VSA_FPPOS>
0.055082731

>  <PEOE_VSA_HYD>
208.57594

>  <PEOE_VSA_NEG>
121.03811

>  <PEOE_VSA_PNEG>
13.566921

>  <PEOE_VSA_POL>
26.516451

>  <PEOE_VSA_POS>
114.05428

>  <PEOE_VSA_PPOS>
12.949531

>  <petitjean>
0.42857143

>  <petitjeanSC>
0.75

>  <Q_PC+>
0

>  <Q_PC->
0

>  <Q_RPC+>
0

>  <Q_RPC->
0

>  <Q_VSA_FHYD>
1

>  <Q_VSA_FNEG>
0

>  <Q_VSA_FPNEG>
0

>  <Q_VSA_FPOL>
0

>  <Q_VSA_FPOS>
1

>  <Q_VSA_FPPOS>
0

>  <Q_VSA_HYD>
235.09239

>  <Q_VSA_NEG>
0

>  <Q_VSA_PNEG>
0

>  <Q_VSA_POL>
0

>  <Q_VSA_POS>
235.09239

>  <Q_VSA_PPOS>
0

>  <radius>
4

>  <reactive>
0

>  <rings>
1

>  <RPC+>
0

>  <RPC->
0

>  <rsynth>
1

>  <SlogP>
2.47702

>  <SlogP_VSA0>
0

>  <SlogP_VSA1>
8.3830976

>  <SlogP_VSA2>
0

>  <SlogP_VSA3>
36.879158

>  <SlogP_VSA4>
30.233366

>  <SlogP_VSA5>
0

>  <SlogP_VSA6>
0

>  <SlogP_VSA7>
70.572739

>  <SlogP_VSA8>
0

>  <SlogP_VSA9>
99.978043

>  <SMR>
5.84305

>  <SMR_VSA0>
23.862217

>  <SMR_VSA1>
3.1243138

>  <SMR_VSA2>
0

>  <SMR_VSA3>
6.37115

>  <SMR_VSA4>
0

>  <SMR_VSA5>
70.572739

>  <SMR_VSA6>
42.137939

>  <SMR_VSA7>
99.978043

>  <TPSA>
20.309999

>  <VAdjEq>
0.59167278

>  <VAdjMa>
4.8073549

>  <VDistEq>
2.68261

>  <VDistMa>
7.3196106

>  <vdw_area>
235.09239

>  <vdw_vol>
294.52673

>  <vsa_acc>
13.566921

>  <vsa_acid>
0

>  <vsa_base>
0

>  <vsa_don>
0

>  <vsa_hyd>
196.47542

>  <vsa_other>
12.949531

>  <vsa_pol>
13.566921

>  <Weight>
191.274

>  <weinerPath>
307

>  <weinerPol>
19

>  <zagreb>
64

$$$$