ClCCN(CCCl)C(Oc1cc2CC[C@H]3[C@@H]4CC[C@H](OP(O)(O)=O)[C@]4(CC[C@@H]3c2cc1)C)=O
  MOE2013           2D

 33 36  0  0  1  0  0  0  0  0999 V2000
    0.0000    0.0000    0.0000 Cl  0  0  0  0  0  0  0  0  0  0  0  0
    1.2950    0.7570    0.0000 C   0  0  0  0  0  0  0  0  0  0  0  0
    2.5980    0.0140    0.0000 C   0  0  0  0  0  0  0  0  0  0  0  0
    3.8930    0.7710    0.0000 N   0  0  0  0  0  0  0  0  0  0  0  0
    3.8850    2.2710    0.0000 C   0  0  0  0  0  0  0  0  0  0  0  0
    2.5820    3.0140    0.0000 C   0  0  0  0  0  0  0  0  0  0  0  0
    2.5740    4.5140    0.0000 Cl  0  0  0  0  0  0  0  0  0  0  0  0
    5.1960    0.0280    0.0000 C   0  0  0  0  0  0  0  0  0  0  0  0
    6.4910    0.7850    0.0000 O   0  0  0  0  0  0  0  0  0  0  0  0
    7.7940    0.0420    0.0000 C   0  0  0  0  0  0  0  0  0  0  0  0
    9.0890    0.7990    0.0000 C   0  0  0  0  0  0  0  0  0  0  0  0
   10.3920    0.0560    0.0000 C   0  0  0  0  0  0  0  0  0  0  0  0
   11.6870    0.8120    0.0000 C   0  0  0  0  0  0  0  0  0  0  0  0
   12.9900    0.0690    0.0000 C   0  0  0  0  0  0  0  0  0  0  0  0
   12.9980   -1.4310    0.0000 C   0  0  1  0  0  0  0  0  0  0  0  0
   14.3010   -2.1740    0.0000 C   0  0  2  0  0  0  0  0  0  0  0  0
   15.7250   -1.7020    0.0000 C   0  0  0  0  0  0  0  0  0  0  0  0
   16.6130   -2.9110    0.0000 C   0  0  0  0  0  0  0  0  0  0  0  0
   15.7380   -4.1290    0.0000 C   0  0  2  0  0  0  0  0  0  0  0  0
   16.2090   -5.5540    0.0000 O   0  0  0  0  0  0  0  0  0  0  0  0
   17.6780   -5.8580    0.0000 P   0  0  0  0  0  0  0  0  0  0  0  0
   17.9820   -4.3890    0.0000 O   0  0  0  0  0  0  0  0  0  0  0  0
   19.1470   -6.1620    0.0000 O   0  0  0  0  0  0  0  0  0  0  0  0
   17.3740   -7.3260    0.0000 O   0  0  0  0  0  0  0  0  0  0  0  0
   14.3090   -3.6740    0.0000 C   0  0  1  0  0  0  0  0  0  0  0  0
   13.0140   -4.4310    0.0000 C   0  0  0  0  0  0  0  0  0  0  0  0
   11.7110   -3.6870    0.0000 C   0  0  0  0  0  0  0  0  0  0  0  0
   11.7030   -2.1870    0.0000 C   0  0  2  0  0  0  0  0  0  0  0  0
   10.4000   -1.4440    0.0000 C   0  0  0  0  0  0  0  0  0  0  0  0
    9.1050   -2.2010    0.0000 C   0  0  0  0  0  0  0  0  0  0  0  0
    7.8020   -1.4580    0.0000 C   0  0  0  0  0  0  0  0  0  0  0  0
   14.4740   -5.1650    0.0000 C   0  0  0  0  0  0  0  0  0  0  0  0
    5.2040   -1.4720    0.0000 O   0  0  0  0  0  0  0  0  0  0  0  0
  1  2  1  0  0  0  0
  2  3  1  0  0  0  0
  3  4  1  0  0  0  0
  4  5  1  0  0  0  0
  4  8  1  0  0  0  0
  5  6  1  0  0  0  0
  6  7  1  0  0  0  0
  8  9  1  0  0  0  0
  8 33  2  0  0  0  0
  9 10  1  0  0  0  0
 10 11  1  0  0  0  0
 10 31  2  0  0  0  0
 11 12  2  0  0  0  0
 12 13  1  0  0  0  0
 12 29  1  0  0  0  0
 13 14  1  0  0  0  0
 15 14  1  1  0  0  0
 15 16  1  0  0  0  0
 15 28  1  0  0  0  0
 16 17  1  6  0  0  0
 16 25  1  0  0  0  0
 17 18  1  0  0  0  0
 18 19  1  0  0  0  0
 19 20  1  6  0  0  0
 19 25  1  0  0  0  0
 20 21  1  0  0  0  0
 21 22  1  0  0  0  0
 21 23  1  0  0  0  0
 21 24  2  0  0  0  0
 25 26  1  0  0  0  0
 25 32  1  6  0  0  0
 26 27  1  0  0  0  0
 27 28  1  0  0  0  0
 28 29  1  6  0  0  0
 29 30  2  0  0  0  0
 30 31  1  0  0  0  0
M  END
>  <Index>
392

>  <ID>
HT0796

>  <class>
0

>  <apol>
75.719376

>  <ast_fraglike>
0

>  <ast_fraglike_ext>
0

>  <ast_violation>
3

>  <ast_violation_ext>
5

>  <a_acc>
5

>  <a_acid>
0

>  <a_aro>
6

>  <a_base>
0

>  <a_count>
65

>  <a_don>
3

>  <a_donacc>
8

>  <a_heavy>
33

>  <a_hyd>
24

>  <a_IC>
109.90221

>  <a_ICM>
1.6908032

>  <a_nB>
0

>  <a_nBr>
0

>  <a_nC>
23

>  <a_nCl>
2

>  <a_nF>
0

>  <a_nH>
32

>  <a_nI>
0

>  <a_nN>
1

>  <a_nO>
6

>  <a_nP>
1

>  <a_nS>
0

>  <balabanJ>
1.3535819

>  <BCUT_PEOE_0>
-2.8863199

>  <BCUT_PEOE_1>
-0.49868092

>  <BCUT_PEOE_2>
0.49553841

>  <BCUT_PEOE_3>
2.9310105

>  <BCUT_SLOGP_0>
-2.8021767

>  <BCUT_SLOGP_1>
-0.42217013

>  <BCUT_SLOGP_2>
0.55393583

>  <BCUT_SLOGP_3>
3.0113649

>  <BCUT_SMR_0>
-2.630832

>  <BCUT_SMR_1>
-0.34040615

>  <BCUT_SMR_2>
0.64513808

>  <BCUT_SMR_3>
3.1834397

>  <bpol>
51.030624

>  <b_1rotN>
8

>  <b_1rotR>
0.22222222

>  <b_ar>
6

>  <b_count>
68

>  <b_double>
1

>  <b_heavy>
36

>  <b_max1len>
6

>  <b_rotN>
9

>  <b_rotR>
0.25

>  <b_single>
61

>  <b_triple>
0

>  <chi0>
23.802753

>  <chi0v>
21.196581

>  <chi0v_C>
14.612519

>  <chi0_C>
15.311191

>  <chi1>
15.658164

>  <chi1v>
14.213976

>  <chi1v_C>
8.6108255

>  <chi1_C>
9.4384718

>  <chiral>
5

>  <chiral_u>
0

>  <density>
0.82959169

>  <diameter>
17

>  <FCharge>
0

>  <GCUT_PEOE_0>
-0.82474095

>  <GCUT_PEOE_1>
-0.3909989

>  <GCUT_PEOE_2>
-0.0035833314

>  <GCUT_PEOE_3>
3.1957412

>  <GCUT_SLOGP_0>
-1.2941028

>  <GCUT_SLOGP_1>
-0.30994299

>  <GCUT_SLOGP_2>
0.12135862

>  <GCUT_SLOGP_3>
3.2921336

>  <GCUT_SMR_0>
-0.53553516

>  <GCUT_SMR_1>
-0.20564441

>  <GCUT_SMR_2>
0.22095978

>  <GCUT_SMR_3>
3.4332604

>  <Kier1>
26.074074

>  <Kier2>
10.545954

>  <Kier3>
5.5555553

>  <KierA1>
26.575438

>  <KierA2>
10.755253

>  <KierA3>
5.6683054

>  <KierFlex>
8.6613798

>  <lip_acc>
7

>  <lip_don>
2

>  <lip_druglike>
1

>  <lip_violation>
1

>  <logP(o/w)>
4.1539998

>  <logS>
-5.9798698

>  <mr>
13.107212

>  <mutagenic>
1

>  <nmol>
1

>  <opr_brigid>
20

>  <opr_leadlike>
1

>  <opr_nring>
4

>  <opr_nrot>
7

>  <opr_violation>
1

>  <PC+>
0

>  <PC->
0

>  <PEOE_PC+>
2.5860779

>  <PEOE_PC->
-2.5860779

>  <PEOE_RPC+>
0.15903977

>  <PEOE_RPC->
0.12212393

>  <PEOE_VSA+0>
142.24818

>  <PEOE_VSA+1>
47.486538

>  <PEOE_VSA+2>
0

>  <PEOE_VSA+3>
20.648346

>  <PEOE_VSA+4>
0

>  <PEOE_VSA+5>
0

>  <PEOE_VSA+6>
37.912579

>  <PEOE_VSA-0>
81.134766

>  <PEOE_VSA-1>
31.002581

>  <PEOE_VSA-2>
74.893028

>  <PEOE_VSA-3>
0

>  <PEOE_VSA-4>
13.566921

>  <PEOE_VSA-5>
27.02924

>  <PEOE_VSA-6>
0

>  <PEOE_VSA_FHYD>
0.83503872

>  <PEOE_VSA_FNEG>
0.47828519

>  <PEOE_VSA_FPNEG>
0.085299999

>  <PEOE_VSA_FPOL>
0.16496129

>  <PEOE_VSA_FPOS>
0.52171481

>  <PEOE_VSA_FPPOS>
0.079661302

>  <PEOE_VSA_HYD>
397.41345

>  <PEOE_VSA_NEG>
227.62654

>  <PEOE_VSA_PNEG>
40.596161

>  <PEOE_VSA_POL>
78.508743

>  <PEOE_VSA_POS>
248.29564

>  <PEOE_VSA_PPOS>
37.912579

>  <petitjean>
0.47058824

>  <petitjeanSC>
0.8888889

>  <Q_PC+>
0

>  <Q_PC->
0

>  <Q_RPC+>
0

>  <Q_RPC->
0

>  <Q_VSA_FHYD>
1

>  <Q_VSA_FNEG>
0

>  <Q_VSA_FPNEG>
0

>  <Q_VSA_FPOL>
0

>  <Q_VSA_FPOS>
1

>  <Q_VSA_FPPOS>
0

>  <Q_VSA_HYD>
475.92218

>  <Q_VSA_NEG>
0

>  <Q_VSA_PNEG>
0

>  <Q_VSA_POL>
0

>  <Q_VSA_POS>
475.92218

>  <Q_VSA_PPOS>
0

>  <radius>
9

>  <reactive>
1

>  <rings>
4

>  <RPC+>
0

>  <RPC->
0

>  <rsynth>
0.60606062

>  <SlogP>
4.2287698

>  <SlogP_VSA0>
76.047592

>  <SlogP_VSA1>
10.44095

>  <SlogP_VSA2>
13.39028

>  <SlogP_VSA3>
75.246033

>  <SlogP_VSA4>
15.192742

>  <SlogP_VSA5>
18.868406

>  <SlogP_VSA6>
4.4107962

>  <SlogP_VSA7>
52.929554

>  <SlogP_VSA8>
94.342026

>  <SlogP_VSA9>
157.42378

>  <SMR>
12.63266

>  <SMR_VSA0>
53.217613

>  <SMR_VSA1>
56.73814

>  <SMR_VSA2>
8.8215923

>  <SMR_VSA3>
22.494022

>  <SMR_VSA4>
0

>  <SMR_VSA5>
166.13998

>  <SMR_VSA6>
82.562668

>  <SMR_VSA7>
128.31815

>  <TPSA>
96.300003

>  <VAdjEq>
0.3512581

>  <VAdjMa>
6.1699252

>  <VDistEq>
3.8593302

>  <VDistMa>
9.762413

>  <vdw_area>
475.92218

>  <vdw_vol>
627.28448

>  <vsa_acc>
18.232893

>  <vsa_acid>
0

>  <vsa_base>
0

>  <vsa_don>
0

>  <vsa_hyd>
335.64694

>  <vsa_other>
40.416336

>  <vsa_pol>
65.420303

>  <Weight>
520.39001

>  <weinerPath>
3450

>  <weinerPol>
58

>  <zagreb>
180

$$$$