O(CC)c1cc(ccc1OCC)C=C1/NCCc2cc(OCC)c(OCC)cc/12
  MOE2013           2D

 29 31  0  0  0  0  0  0  0  0999 V2000
    0.0000    0.0000    0.0000 O   0  0  0  0  0  0  0  0  0  0  0  0
    0.7590    1.2940    0.0000 C   0  0  0  0  0  0  0  0  0  0  0  0
    0.0180    2.5980    0.0000 C   0  0  0  0  0  0  0  0  0  0  0  0
    0.7410   -1.3040    0.0000 C   0  0  0  0  0  0  0  0  0  0  0  0
    2.2410   -1.3150    0.0000 C   0  0  0  0  0  0  0  0  0  0  0  0
    2.9820   -2.6190    0.0000 C   0  0  0  0  0  0  0  0  0  0  0  0
    2.2220   -3.9130    0.0000 C   0  0  0  0  0  0  0  0  0  0  0  0
    0.7220   -3.9020    0.0000 C   0  0  0  0  0  0  0  0  0  0  0  0
   -0.0180   -2.5980    0.0000 C   0  0  0  0  0  0  0  0  0  0  0  0
   -1.5180   -2.5870    0.0000 O   0  0  0  0  0  0  0  0  0  0  0  0
   -2.2780   -3.8810    0.0000 C   0  0  0  0  0  0  0  0  0  0  0  0
   -3.7770   -3.8700    0.0000 C   0  0  0  0  0  0  0  0  0  0  0  0
    4.4820   -2.6300    0.0000 C   0  0  0  0  0  0  0  0  0  0  0  0
    5.2220   -3.9340    0.0000 C   0  0  0  0  0  0  0  0  0  0  0  0
    4.4630   -5.2280    0.0000 N   0  0  0  0  0  0  0  0  0  0  0  0
    5.2040   -6.5320    0.0000 C   0  0  0  0  0  0  0  0  0  0  0  0
    6.7040   -6.5430    0.0000 C   0  0  0  0  0  0  0  0  0  0  0  0
    7.4630   -5.2490    0.0000 C   0  0  0  0  0  0  0  0  0  0  0  0
    8.9630   -5.2600    0.0000 C   0  0  0  0  0  0  0  0  0  0  0  0
    9.7220   -3.9660    0.0000 C   0  0  0  0  0  0  0  0  0  0  0  0
   11.2220   -3.9770    0.0000 O   0  0  0  0  0  0  0  0  0  0  0  0
   11.9630   -5.2810    0.0000 C   0  0  0  0  0  0  0  0  0  0  0  0
   13.4630   -5.2920    0.0000 C   0  0  0  0  0  0  0  0  0  0  0  0
    8.9810   -2.6620    0.0000 C   0  0  0  0  0  0  0  0  0  0  0  0
    9.7410   -1.3680    0.0000 O   0  0  0  0  0  0  0  0  0  0  0  0
    9.0000   -0.0640    0.0000 C   0  0  0  0  0  0  0  0  0  0  0  0
    9.7590    1.2300    0.0000 C   0  0  0  0  0  0  0  0  0  0  0  0
    7.4810   -2.6510    0.0000 C   0  0  0  0  0  0  0  0  0  0  0  0
    6.7220   -3.9450    0.0000 C   0  0  0  0  0  0  0  0  0  0  0  0
  1  2  1  0  0  0  0
  1  4  1  0  0  0  0
  2  3  1  0  0  0  0
  4  5  1  0  0  0  0
  4  9  2  0  0  0  0
  5  6  2  0  0  0  0
  6  7  1  0  0  0  0
  6 13  1  0  0  0  0
  7  8  2  0  0  0  0
  8  9  1  0  0  0  0
  9 10  1  0  0  0  0
 10 11  1  0  0  0  0
 11 12  1  0  0  0  0
 13 14  2  3  0  0  0
 14 15  1  0  0  0  0
 14 29  1  0  0  0  0
 15 16  1  0  0  0  0
 16 17  1  0  0  0  0
 17 18  1  0  0  0  0
 18 19  2  0  0  0  0
 18 29  1  0  0  0  0
 19 20  1  0  0  0  0
 20 21  1  0  0  0  0
 20 24  2  0  0  0  0
 21 22  1  0  0  0  0
 22 23  1  0  0  0  0
 24 25  1  0  0  0  0
 24 28  1  0  0  0  0
 25 26  1  0  0  0  0
 26 27  1  0  0  0  0
 28 29  2  0  0  0  0
M  END
>  <Index>
355

>  <ID>
HT0729

>  <class>
0

>  <apol>
67.218582

>  <ast_fraglike>
0

>  <ast_fraglike_ext>
0

>  <ast_violation>
3

>  <ast_violation_ext>
4

>  <a_acc>
4

>  <a_acid>
0

>  <a_aro>
12

>  <a_base>
0

>  <a_count>
60

>  <a_don>
1

>  <a_donacc>
5

>  <a_heavy>
29

>  <a_hyd>
24

>  <a_IC>
82.79425

>  <a_ICM>
1.3799042

>  <a_nB>
0

>  <a_nBr>
0

>  <a_nC>
24

>  <a_nCl>
0

>  <a_nF>
0

>  <a_nH>
31

>  <a_nI>
0

>  <a_nN>
1

>  <a_nO>
4

>  <a_nP>
0

>  <a_nS>
0

>  <balabanJ>
1.6033574

>  <BCUT_PEOE_0>
-2.5572472

>  <BCUT_PEOE_1>
-0.51415652

>  <BCUT_PEOE_2>
0.39874378

>  <BCUT_PEOE_3>
2.4965835

>  <BCUT_SLOGP_0>
-2.6363573

>  <BCUT_SLOGP_1>
-0.47777697

>  <BCUT_SLOGP_2>
0.50806844

>  <BCUT_SLOGP_3>
2.5537527

>  <BCUT_SMR_0>
-2.2628658

>  <BCUT_SMR_1>
-0.2735334

>  <BCUT_SMR_2>
0.62702018

>  <BCUT_SMR_3>
2.7971585

>  <bpol>
42.213417

>  <b_1rotN>
9

>  <b_1rotR>
0.29032257

>  <b_ar>
12

>  <b_count>
62

>  <b_double>
1

>  <b_heavy>
31

>  <b_max1len>
3

>  <b_rotN>
9

>  <b_rotR>
0.29032257

>  <b_single>
49

>  <b_triple>
0

>  <chi0>
20.639618

>  <chi0v>
17.839735

>  <chi0v_C>
15.706742

>  <chi0_C>
17.104084

>  <chi1>
14.193733

>  <chi1v>
10.476816

>  <chi1v_C>
7.9020653

>  <chi1_C>
9.6524916

>  <chiral>
0

>  <chiral_u>
0

>  <density>
0.68997586

>  <diameter>
15

>  <FCharge>
0

>  <GCUT_PEOE_0>
-0.82426721

>  <GCUT_PEOE_1>
-0.40472817

>  <GCUT_PEOE_2>
-0.068831883

>  <GCUT_PEOE_3>
2.7124085

>  <GCUT_SLOGP_0>
-1.1196753

>  <GCUT_SLOGP_1>
-0.32473108

>  <GCUT_SLOGP_2>
0.074104503

>  <GCUT_SLOGP_3>
2.8419969

>  <GCUT_SMR_0>
-0.51608485

>  <GCUT_SMR_1>
-0.18916675

>  <GCUT_SMR_2>
0.090864897

>  <GCUT_SMR_3>
3.0006006

>  <Kier1>
23.658689

>  <Kier2>
12.142772

>  <Kier3>
6.2571902

>  <KierA1>
19.014368

>  <KierA2>
9.6783209

>  <KierA3>
4.9567761

>  <KierFlex>
6.3457642

>  <lip_acc>
5

>  <lip_don>
1

>  <lip_druglike>
1

>  <lip_violation>
0

>  <logP(o/w)>
4.9404802

>  <logS>
-5.1588802

>  <mr>
11.596

>  <mutagenic>
0

>  <nmol>
1

>  <opr_brigid>
18

>  <opr_leadlike>
1

>  <opr_nring>
3

>  <opr_nrot>
10

>  <opr_violation>
1

>  <PC+>
0

>  <PC->
0

>  <PEOE_PC+>
2.0764811

>  <PEOE_PC->
-2.0764811

>  <PEOE_RPC+>
0.061494552

>  <PEOE_RPC->
0.16489093

>  <PEOE_VSA+0>
88.138054

>  <PEOE_VSA+1>
119.52058

>  <PEOE_VSA+2>
42.453091

>  <PEOE_VSA+3>
0

>  <PEOE_VSA+4>
0

>  <PEOE_VSA+5>
0

>  <PEOE_VSA+6>
0

>  <PEOE_VSA-0>
151.59216

>  <PEOE_VSA-1>
12.254904

>  <PEOE_VSA-2>
0

>  <PEOE_VSA-3>
0

>  <PEOE_VSA-4>
0

>  <PEOE_VSA-5>
0.13689101

>  <PEOE_VSA-6>
10.015024

>  <PEOE_VSA_FHYD>
0.97606307

>  <PEOE_VSA_FNEG>
0.41026783

>  <PEOE_VSA_FPNEG>
0.023936948

>  <PEOE_VSA_FPOL>
0.023936948

>  <PEOE_VSA_FPOS>
0.58973217

>  <PEOE_VSA_FPPOS>
0

>  <PEOE_VSA_HYD>
413.95877

>  <PEOE_VSA_NEG>
173.99898

>  <PEOE_VSA_PNEG>
10.151916

>  <PEOE_VSA_POL>
10.151916

>  <PEOE_VSA_POS>
250.11172

>  <PEOE_VSA_PPOS>
0

>  <petitjean>
0.46666667

>  <petitjeanSC>
0.875

>  <Q_PC+>
0

>  <Q_PC->
0

>  <Q_RPC+>
0

>  <Q_RPC->
0

>  <Q_VSA_FHYD>
1

>  <Q_VSA_FNEG>
0

>  <Q_VSA_FPNEG>
0

>  <Q_VSA_FPOL>
0

>  <Q_VSA_FPOS>
1

>  <Q_VSA_FPPOS>
0

>  <Q_VSA_HYD>
424.11069

>  <Q_VSA_NEG>
0

>  <Q_VSA_PNEG>
0

>  <Q_VSA_POL>
0

>  <Q_VSA_POS>
424.11069

>  <Q_VSA_PPOS>
0

>  <radius>
8

>  <reactive>
1

>  <rings>
3

>  <RPC+>
0

>  <RPC->
0

>  <rsynth>
1

>  <SlogP>
4.9251699

>  <SlogP_VSA0>
62.010303

>  <SlogP_VSA1>
0

>  <SlogP_VSA2>
0

>  <SlogP_VSA3>
102.14462

>  <SlogP_VSA4>
9.5567245

>  <SlogP_VSA5>
18.868406

>  <SlogP_VSA6>
0

>  <SlogP_VSA7>
90.972672

>  <SlogP_VSA8>
17.643185

>  <SlogP_VSA9>
154.27777

>  <SMR>
11.71377

>  <SMR_VSA0>
0

>  <SMR_VSA1>
43.99955

>  <SMR_VSA2>
18.01075

>  <SMR_VSA3>
30.530437

>  <SMR_VSA4>
2.7567475

>  <SMR_VSA5>
107.08433

>  <SMR_VSA6>
119.7878

>  <SMR_VSA7>
133.30406

>  <TPSA>
48.950001

>  <VAdjEq>
0.3796615

>  <VAdjMa>
5.9541965

>  <VDistEq>
3.6281934

>  <VDistMa>
9.4263477

>  <vdw_area>
424.11069

>  <vdw_vol>
576.12885

>  <vsa_acc>
10.015024

>  <vsa_acid>
0

>  <vsa_base>
0

>  <vsa_don>
5.6825762

>  <vsa_hyd>
383.9859

>  <vsa_other>
0

>  <vsa_pol>
15.6976

>  <Weight>
397.51498

>  <weinerPath>
2364

>  <weinerPol>
46

>  <zagreb>
144

$$$$