S1C[C@H](O[C@H]1CO)N1C=C(F)C(=NC1=O)N
  MOE2013           2D

 16 17  0  0  1  0  0  0  0  0999 V2000
    0.0000    0.0000    0.0000 S   0  0  0  0  0  0  0  0  0  0  0  0
   -1.4700    0.2990    0.0000 C   0  0  0  0  0  0  0  0  0  0  0  0
   -2.2090   -1.0060    0.0000 C   0  0  2  0  0  0  0  0  0  0  0  0
   -1.1960   -2.1120    0.0000 O   0  0  0  0  0  0  0  0  0  0  0  0
    0.1690   -1.4900    0.0000 C   0  0  1  0  0  0  0  0  0  0  0  0
    1.4750   -2.2290    0.0000 C   0  0  0  0  0  0  0  0  0  0  0  0
    2.7670   -1.4680    0.0000 O   0  0  0  0  0  0  0  0  0  0  0  0
   -3.6990   -1.1750    0.0000 N   0  0  0  0  0  0  0  0  0  0  0  0
   -4.2980   -2.5510    0.0000 C   0  0  0  0  0  0  0  0  0  0  0  0
   -5.7880   -2.7200    0.0000 C   0  0  0  0  0  0  0  0  0  0  0  0
   -6.3860   -4.0960    0.0000 F   0  0  0  0  0  0  0  0  0  0  0  0
   -6.6800   -1.5140    0.0000 C   0  0  0  0  0  0  0  0  0  0  0  0
   -6.0820   -0.1390    0.0000 N   0  0  0  0  0  0  0  0  0  0  0  0
   -4.5910    0.0310    0.0000 C   0  0  0  0  0  0  0  0  0  0  0  0
   -3.9930    1.4060    0.0000 O   0  0  0  0  0  0  0  0  0  0  0  0
   -8.1700   -1.6840    0.0000 N   0  0  0  0  0  0  0  0  0  0  0  0
  1  2  1  0  0  0  0
  1  5  1  0  0  0  0
  2  3  1  0  0  0  0
  3  4  1  0  0  0  0
  3  8  1  6  0  0  0
  4  5  1  0  0  0  0
  5  6  1  6  0  0  0
  6  7  1  0  0  0  0
  8  9  1  0  0  0  0
  8 14  1  0  0  0  0
  9 10  2  0  0  0  0
 10 11  1  0  0  0  0
 10 12  1  0  0  0  0
 12 13  2  0  0  0  0
 12 16  1  0  0  0  0
 13 14  1  0  0  0  0
 14 15  2  0  0  0  0
M  END
>  <Index>
368

>  <ID>
HT0752

>  <class>
0

>  <apol>
29.910931

>  <ast_fraglike>
0

>  <ast_fraglike_ext>
0

>  <ast_violation>
1

>  <ast_violation_ext>
1

>  <a_acc>
4

>  <a_acid>
0

>  <a_aro>
0

>  <a_base>
0

>  <a_count>
26

>  <a_don>
2

>  <a_donacc>
6

>  <a_heavy>
16

>  <a_hyd>
7

>  <a_IC>
55.482376

>  <a_ICM>
2.1339376

>  <a_nB>
0

>  <a_nBr>
0

>  <a_nC>
8

>  <a_nCl>
0

>  <a_nF>
1

>  <a_nH>
10

>  <a_nI>
0

>  <a_nN>
3

>  <a_nO>
3

>  <a_nP>
0

>  <a_nS>
1

>  <balabanJ>
1.9447614

>  <BCUT_PEOE_0>
-2.4617057

>  <BCUT_PEOE_1>
-0.56883669

>  <BCUT_PEOE_2>
0.59417433

>  <BCUT_PEOE_3>
2.6466069

>  <BCUT_SLOGP_0>
-2.6170466

>  <BCUT_SLOGP_1>
-0.5275166

>  <BCUT_SLOGP_2>
0.56736737

>  <BCUT_SLOGP_3>
2.587584

>  <BCUT_SMR_0>
-2.2161677

>  <BCUT_SMR_1>
-0.40290219

>  <BCUT_SMR_2>
0.74309391

>  <BCUT_SMR_3>
2.9243753

>  <bpol>
19.92907

>  <b_1rotN>
2

>  <b_1rotR>
0.11764706

>  <b_ar>
0

>  <b_count>
27

>  <b_double>
3

>  <b_heavy>
17

>  <b_max1len>
4

>  <b_rotN>
2

>  <b_rotR>
0.11764706

>  <b_single>
24

>  <b_triple>
0

>  <chi0>
11.706742

>  <chi0v>
8.9844618

>  <chi0v_C>
4.6462646

>  <chi0_C>
5.0080719

>  <chi1>
7.6133924

>  <chi1v>
5.5849357

>  <chi1v_C>
1.3551717

>  <chi1_C>
1.5580782

>  <chiral>
2

>  <chiral_u>
0

>  <density>
0.93815446

>  <diameter>
9

>  <FCharge>
0

>  <GCUT_PEOE_0>
-0.837053

>  <GCUT_PEOE_1>
-0.43125239

>  <GCUT_PEOE_2>
0.13365878

>  <GCUT_PEOE_3>
2.3618736

>  <GCUT_SLOGP_0>
-1.3703717

>  <GCUT_SLOGP_1>
-0.40212283

>  <GCUT_SLOGP_2>
0.17957985

>  <GCUT_SLOGP_3>
2.3321807

>  <GCUT_SMR_0>
-0.51998746

>  <GCUT_SMR_1>
-0.21670437

>  <GCUT_SMR_2>
0.23367903

>  <GCUT_SMR_3>
2.6276424

>  <Kier1>
12.456747

>  <Kier2>
5.1041665

>  <Kier3>
2.6514049

>  <KierA1>
10.695778

>  <KierA2>
4.3348746

>  <KierA3>
2.23333

>  <KierFlex>
2.8978033

>  <lip_acc>
6

>  <lip_don>
3

>  <lip_druglike>
1

>  <lip_violation>
0

>  <logP(o/w)>
-0.51999998

>  <logS>
-1.7393399

>  <mr>
5.551867

>  <mutagenic>
0

>  <nmol>
1

>  <opr_brigid>
11

>  <opr_leadlike>
1

>  <opr_nring>
2

>  <opr_nrot>
3

>  <opr_violation>
0

>  <PC+>
0

>  <PC->
0

>  <PEOE_PC+>
2.122031

>  <PEOE_PC->
-2.122031

>  <PEOE_RPC+>
0.16608618

>  <PEOE_RPC->
0.18453808

>  <PEOE_VSA+0>
19.208147

>  <PEOE_VSA+1>
53.024139

>  <PEOE_VSA+2>
16.27693

>  <PEOE_VSA+3>
37.449432

>  <PEOE_VSA+4>
10.324173

>  <PEOE_VSA+5>
0

>  <PEOE_VSA+6>
17.440542

>  <PEOE_VSA-0>
0

>  <PEOE_VSA-1>
0

>  <PEOE_VSA-2>
19.760618

>  <PEOE_VSA-3>
5.6825762

>  <PEOE_VSA-4>
25.475557

>  <PEOE_VSA-5>
0

>  <PEOE_VSA-6>
16.922417

>  <PEOE_VSA_FHYD>
0.68333071

>  <PEOE_VSA_FNEG>
0.30619144

>  <PEOE_VSA_FPNEG>
0.19135721

>  <PEOE_VSA_FPOL>
0.31666932

>  <PEOE_VSA_FPOS>
0.69380856

>  <PEOE_VSA_FPPOS>
0.12531209

>  <PEOE_VSA_HYD>
151.40184

>  <PEOE_VSA_NEG>
67.841164

>  <PEOE_VSA_PNEG>
42.397972

>  <PEOE_VSA_POL>
70.162689

>  <PEOE_VSA_POS>
153.72336

>  <PEOE_VSA_PPOS>
27.764715

>  <petitjean>
0.44444445

>  <petitjeanSC>
0.80000001

>  <Q_PC+>
0

>  <Q_PC->
0

>  <Q_RPC+>
0

>  <Q_RPC->
0

>  <Q_VSA_FHYD>
1

>  <Q_VSA_FNEG>
0

>  <Q_VSA_FPNEG>
0

>  <Q_VSA_FPOL>
0

>  <Q_VSA_FPOS>
1

>  <Q_VSA_FPPOS>
0

>  <Q_VSA_HYD>
221.56453

>  <Q_VSA_NEG>
0

>  <Q_VSA_PNEG>
0

>  <Q_VSA_POL>
0

>  <Q_VSA_POS>
221.56453

>  <Q_VSA_PPOS>
0

>  <radius>
5

>  <reactive>
1

>  <rings>
2

>  <RPC+>
0

>  <RPC->
0

>  <rsynth>
1

>  <SlogP>
-0.0020000001

>  <SlogP_VSA0>
58.282413

>  <SlogP_VSA1>
10.28219

>  <SlogP_VSA2>
21.873518

>  <SlogP_VSA3>
38.159824

>  <SlogP_VSA4>
0

>  <SlogP_VSA5>
25.906548

>  <SlogP_VSA6>
0

>  <SlogP_VSA7>
17.214357

>  <SlogP_VSA8>
0

>  <SlogP_VSA9>
71.04187

>  <SMR>
5.6254201

>  <SMR_VSA0>
34.862103

>  <SMR_VSA1>
60.255184

>  <SMR_VSA2>
0

>  <SMR_VSA3>
19.994648

>  <SMR_VSA4>
32.897186

>  <SMR_VSA5>
17.214357

>  <SMR_VSA6>
45.317699

>  <SMR_VSA7>
32.21954

>  <TPSA>
88.150002

>  <VAdjEq>
0.56510133

>  <VAdjMa>
5.0874629

>  <VDistEq>
2.8623741

>  <VDistMa>
7.6977053

>  <vdw_area>
221.56453

>  <vdw_vol>
263.54935

>  <vsa_acc>
21.753254

>  <vsa_acid>
0

>  <vsa_base>
0

>  <vsa_don>
17.742489

>  <vsa_hyd>
111.26722

>  <vsa_other>
41.580635

>  <vsa_pol>
53.062664

>  <Weight>
247.25

>  <weinerPath>
433

>  <weinerPol>
23

>  <zagreb>
82

$$$$