O(C(=O)C)[C@H]1Cc2c(N(c3c1cccc3)C(=O)N)cccc2
  MOE2013           2D

 22 24  0  0  1  0  0  0  0  0999 V2000
    0.0000    0.0000    0.0000 O   0  0  0  0  0  0  0  0  0  0  0  0
    0.7590   -1.2940    0.0000 C   0  0  0  0  0  0  0  0  0  0  0  0
    2.2590   -1.2840    0.0000 O   0  0  0  0  0  0  0  0  0  0  0  0
    0.0180   -2.5980    0.0000 C   0  0  0  0  0  0  0  0  0  0  0  0
   -1.5000   -0.0100    0.0000 C   0  0  1  0  0  0  0  0  0  0  0  0
   -2.1420   -1.3660    0.0000 C   0  0  0  0  0  0  0  0  0  0  0  0
   -3.6030   -1.7090    0.0000 C   0  0  0  0  0  0  0  0  0  0  0  0
   -4.7820   -0.7820    0.0000 C   0  0  0  0  0  0  0  0  0  0  0  0
   -4.7930    0.7180    0.0000 N   0  0  0  0  0  0  0  0  0  0  0  0
   -3.6250    1.6600    0.0000 C   0  0  0  0  0  0  0  0  0  0  0  0
   -2.1610    1.3360    0.0000 C   0  0  0  0  0  0  0  0  0  0  0  0
   -1.1480    2.4430    0.0000 C   0  0  0  0  0  0  0  0  0  0  0  0
   -1.6000    3.8730    0.0000 C   0  0  0  0  0  0  0  0  0  0  0  0
   -3.0650    4.1970    0.0000 C   0  0  0  0  0  0  0  0  0  0  0  0
   -4.0780    3.0900    0.0000 C   0  0  0  0  0  0  0  0  0  0  0  0
   -6.1500    1.3590    0.0000 C   0  0  0  0  0  0  0  0  0  0  0  0
   -6.2720    2.8540    0.0000 O   0  0  0  0  0  0  0  0  0  0  0  0
   -7.3830    0.5050    0.0000 N   0  0  0  0  0  0  0  0  0  0  0  0
   -6.1740   -1.3400    0.0000 C   0  0  0  0  0  0  0  0  0  0  0  0
   -6.3870   -2.8250    0.0000 C   0  0  0  0  0  0  0  0  0  0  0  0
   -5.2080   -3.7520    0.0000 C   0  0  0  0  0  0  0  0  0  0  0  0
   -3.8150   -3.1940    0.0000 C   0  0  0  0  0  0  0  0  0  0  0  0
  1  2  1  0  0  0  0
  2  3  2  0  0  0  0
  2  4  1  0  0  0  0
  5  1  1  1  0  0  0
  5  6  1  0  0  0  0
  5 11  1  0  0  0  0
  6  7  1  0  0  0  0
  7  8  2  0  0  0  0
  7 22  1  0  0  0  0
  8  9  1  0  0  0  0
  8 19  1  0  0  0  0
  9 10  1  0  0  0  0
  9 16  1  0  0  0  0
 10 11  2  0  0  0  0
 10 15  1  0  0  0  0
 11 12  1  0  0  0  0
 12 13  2  0  0  0  0
 13 14  1  0  0  0  0
 14 15  2  0  0  0  0
 16 17  2  0  0  0  0
 16 18  1  0  0  0  0
 19 20  2  0  0  0  0
 20 21  1  0  0  0  0
 21 22  2  0  0  0  0
M  END
>  <Index>
389

>  <ID>
HT0786

>  <class>
0

>  <apol>
45.194687

>  <ast_fraglike>
0

>  <ast_fraglike_ext>
0

>  <ast_violation>
1

>  <ast_violation_ext>
1

>  <a_acc>
2

>  <a_acid>
0

>  <a_aro>
12

>  <a_base>
0

>  <a_count>
38

>  <a_don>
1

>  <a_donacc>
3

>  <a_heavy>
22

>  <a_hyd>
15

>  <a_IC>
59.179489

>  <a_ICM>
1.557355

>  <a_nB>
0

>  <a_nBr>
0

>  <a_nC>
17

>  <a_nCl>
0

>  <a_nF>
0

>  <a_nH>
16

>  <a_nI>
0

>  <a_nN>
2

>  <a_nO>
3

>  <a_nP>
0

>  <a_nS>
0

>  <balabanJ>
1.9060693

>  <BCUT_PEOE_0>
-2.4608073

>  <BCUT_PEOE_1>
-0.54480773

>  <BCUT_PEOE_2>
0.59641182

>  <BCUT_PEOE_3>
2.5341649

>  <BCUT_SLOGP_0>
-2.5339248

>  <BCUT_SLOGP_1>
-0.42879036

>  <BCUT_SLOGP_2>
0.72533947

>  <BCUT_SLOGP_3>
2.6351089

>  <BCUT_SMR_0>
-2.2168465

>  <BCUT_SMR_1>
-0.40195554

>  <BCUT_SMR_2>
0.73466158

>  <BCUT_SMR_3>
2.8134797

>  <bpol>
22.643312

>  <b_1rotN>
2

>  <b_1rotR>
0.083333336

>  <b_ar>
12

>  <b_count>
40

>  <b_double>
2

>  <b_heavy>
24

>  <b_max1len>
2

>  <b_rotN>
3

>  <b_rotR>
0.125

>  <b_single>
26

>  <b_triple>
0

>  <chi0>
15.68987

>  <chi0v>
12.152568

>  <chi0v_C>
9.9032593

>  <chi0_C>
11.405413

>  <chi1>
10.575387

>  <chi1v>
7.0127478

>  <chi1v_C>
5.2051773

>  <chi1_C>
7.0268402

>  <chiral>
1

>  <chiral_u>
0

>  <density>
0.74512386

>  <diameter>
8

>  <FCharge>
0

>  <GCUT_PEOE_0>
-0.80053973

>  <GCUT_PEOE_1>
-0.43484434

>  <GCUT_PEOE_2>
0.062052932

>  <GCUT_PEOE_3>
2.6709323

>  <GCUT_SLOGP_0>
-1.3705726

>  <GCUT_SLOGP_1>
-0.30485865

>  <GCUT_SLOGP_2>
0.14188807

>  <GCUT_SLOGP_3>
2.7902043

>  <GCUT_SMR_0>
-0.50261039

>  <GCUT_SMR_1>
-0.19551978

>  <GCUT_SMR_2>
0.176478

>  <GCUT_SMR_3>
2.9634004

>  <Kier1>
16.84375

>  <Kier2>
7.2664361

>  <Kier3>
3.5916824

>  <KierA1>
11.586589

>  <KierA2>
4.9010596

>  <KierA3>
2.3880553

>  <KierFlex>
2.5812073

>  <lip_acc>
5

>  <lip_don>
2

>  <lip_druglike>
1

>  <lip_violation>
0

>  <logP(o/w)>
2.428

>  <logS>
-3.8250101

>  <mr>
8.3174047

>  <mutagenic>
0

>  <nmol>
1

>  <opr_brigid>
17

>  <opr_leadlike>
1

>  <opr_nring>
3

>  <opr_nrot>
1

>  <opr_violation>
0

>  <PC+>
0

>  <PC->
0

>  <PEOE_PC+>
1.8812703

>  <PEOE_PC->
-1.8812703

>  <PEOE_RPC+>
0.17279822

>  <PEOE_RPC->
0.18673599

>  <PEOE_VSA+0>
50.984459

>  <PEOE_VSA+1>
56.692505

>  <PEOE_VSA+2>
0

>  <PEOE_VSA+3>
17.238026

>  <PEOE_VSA+4>
0

>  <PEOE_VSA+5>
14.708499

>  <PEOE_VSA+6>
17.440542

>  <PEOE_VSA-0>
26.718348

>  <PEOE_VSA-1>
73.529427

>  <PEOE_VSA-2>
0

>  <PEOE_VSA-3>
0

>  <PEOE_VSA-4>
13.566921

>  <PEOE_VSA-5>
13.566921

>  <PEOE_VSA-6>
9.1548758

>  <PEOE_VSA_FHYD>
0.76690179

>  <PEOE_VSA_FNEG>
0.4650417

>  <PEOE_VSA_FPNEG>
0.12359896

>  <PEOE_VSA_FPOL>
0.23309822

>  <PEOE_VSA_FPOS>
0.5349583

>  <PEOE_VSA_FPPOS>
0.10949927

>  <PEOE_VSA_HYD>
225.16277

>  <PEOE_VSA_NEG>
136.53648

>  <PEOE_VSA_PNEG>
36.288715

>  <PEOE_VSA_POL>
68.437759

>  <PEOE_VSA_POS>
157.06403

>  <PEOE_VSA_PPOS>
32.14904

>  <petitjean>
0.375

>  <petitjeanSC>
0.60000002

>  <Q_PC+>
0

>  <Q_PC->
0

>  <Q_RPC+>
0

>  <Q_RPC->
0

>  <Q_VSA_FHYD>
1

>  <Q_VSA_FNEG>
0

>  <Q_VSA_FPNEG>
0

>  <Q_VSA_FPOL>
0

>  <Q_VSA_FPOS>
1

>  <Q_VSA_FPPOS>
0

>  <Q_VSA_HYD>
293.60052

>  <Q_VSA_NEG>
0

>  <Q_VSA_PNEG>
0

>  <Q_VSA_POL>
0

>  <Q_VSA_POS>
293.60052

>  <Q_VSA_PPOS>
0

>  <radius>
5

>  <reactive>
0

>  <rings>
3

>  <RPC+>
0

>  <RPC->
0

>  <rsynth>
0.36363637

>  <SlogP>
3.1591699

>  <SlogP_VSA0>
36.0215

>  <SlogP_VSA1>
12.57542

>  <SlogP_VSA2>
34.862103

>  <SlogP_VSA3>
0

>  <SlogP_VSA4>
6.37115

>  <SlogP_VSA5>
18.868406

>  <SlogP_VSA6>
0

>  <SlogP_VSA7>
141.14548

>  <SlogP_VSA8>
6.4686494

>  <SlogP_VSA9>
62.701725

>  <SMR>
8.29284

>  <SMR_VSA0>
58.724319

>  <SMR_VSA1>
0

>  <SMR_VSA2>
3.1243138

>  <SMR_VSA3>
12.839799

>  <SMR_VSA4>
38.410683

>  <SMR_VSA5>
160.01389

>  <SMR_VSA6>
12.57542

>  <SMR_VSA7>
33.326015

>  <TPSA>
72.629997

>  <VAdjEq>
0.46637034

>  <VAdjMa>
5.5849624

>  <VDistEq>
2.8339336

>  <VDistMa>
8.6864662

>  <vdw_area>
293.60052

>  <vdw_vol>
397.68692

>  <vsa_acc>
27.133842

>  <vsa_acid>
0

>  <vsa_base>
0

>  <vsa_don>
17.742489

>  <vsa_hyd>
197.95959

>  <vsa_other>
34.652798

>  <vsa_pol>
44.876331

>  <Weight>
296.32599

>  <weinerPath>
908

>  <weinerPol>
40

>  <zagreb>
116

$$$$