S(C)c1ccc(cc1)C(=O)C=1NC(=O)NC=1C
  MOE2013           2D

 17 18  0  0  0  0  0  0  0  0999 V2000
    0.0000    0.0000    0.0000 S   0  0  0  0  0  0  0  0  0  0  0  0
    0.7540   -1.2970    0.0000 C   0  0  0  0  0  0  0  0  0  0  0  0
   -1.5000   -0.0050    0.0000 C   0  0  0  0  0  0  0  0  0  0  0  0
   -2.2540    1.2920    0.0000 C   0  0  0  0  0  0  0  0  0  0  0  0
   -3.7540    1.2870    0.0000 C   0  0  0  0  0  0  0  0  0  0  0  0
   -4.5000   -0.0140    0.0000 C   0  0  0  0  0  0  0  0  0  0  0  0
   -3.7460   -1.3110    0.0000 C   0  0  0  0  0  0  0  0  0  0  0  0
   -2.2460   -1.3060    0.0000 C   0  0  0  0  0  0  0  0  0  0  0  0
   -6.0000   -0.0190    0.0000 C   0  0  0  0  0  0  0  0  0  0  0  0
   -6.7460   -1.3210    0.0000 O   0  0  0  0  0  0  0  0  0  0  0  0
   -6.7540    1.2770    0.0000 C   0  0  0  0  0  0  0  0  0  0  0  0
   -6.1480    2.6500    0.0000 N   0  0  0  0  0  0  0  0  0  0  0  0
   -7.2660    3.6500    0.0000 C   0  0  0  0  0  0  0  0  0  0  0  0
   -7.1140    5.1420    0.0000 O   0  0  0  0  0  0  0  0  0  0  0  0
   -8.5630    2.8960    0.0000 N   0  0  0  0  0  0  0  0  0  0  0  0
   -8.2460    1.4290    0.0000 C   0  0  0  0  0  0  0  0  0  0  0  0
   -9.2470    0.3110    0.0000 C   0  0  0  0  0  0  0  0  0  0  0  0
  1  2  1  0  0  0  0
  1  3  1  0  0  0  0
  3  4  1  0  0  0  0
  3  8  2  0  0  0  0
  4  5  2  0  0  0  0
  5  6  1  0  0  0  0
  6  7  2  0  0  0  0
  6  9  1  0  0  0  0
  7  8  1  0  0  0  0
  9 10  2  0  0  0  0
  9 11  1  0  0  0  0
 11 12  1  0  0  0  0
 11 16  2  0  0  0  0
 12 13  1  0  0  0  0
 13 14  2  0  0  0  0
 13 15  1  0  0  0  0
 15 16  1  0  0  0  0
 16 17  1  0  0  0  0
M  END
>  <Index>
372

>  <ID>
HT0760

>  <class>
0

>  <apol>
35.825516

>  <ast_fraglike>
1

>  <ast_fraglike_ext>
1

>  <ast_violation>
0

>  <ast_violation_ext>
0

>  <a_acc>
2

>  <a_acid>
0

>  <a_aro>
6

>  <a_base>
0

>  <a_count>
29

>  <a_don>
2

>  <a_donacc>
4

>  <a_heavy>
17

>  <a_hyd>
11

>  <a_IC>
50.84235

>  <a_ICM>
1.7531844

>  <a_nB>
0

>  <a_nBr>
0

>  <a_nC>
12

>  <a_nCl>
0

>  <a_nF>
0

>  <a_nH>
12

>  <a_nI>
0

>  <a_nN>
2

>  <a_nO>
2

>  <a_nP>
0

>  <a_nS>
1

>  <balabanJ>
1.8722589

>  <BCUT_PEOE_0>
-2.2690408

>  <BCUT_PEOE_1>
-0.5092752

>  <BCUT_PEOE_2>
0.53234202

>  <BCUT_PEOE_3>
2.4082103

>  <BCUT_SLOGP_0>
-2.4588256

>  <BCUT_SLOGP_1>
-0.2691544

>  <BCUT_SLOGP_2>
0.75664651

>  <BCUT_SLOGP_3>
2.4058073

>  <BCUT_SMR_0>
-1.9886913

>  <BCUT_SMR_1>
-0.2554616

>  <BCUT_SMR_2>
0.81343025

>  <BCUT_SMR_3>
2.7107453

>  <bpol>
18.634483

>  <b_1rotN>
3

>  <b_1rotR>
0.16666667

>  <b_ar>
6

>  <b_count>
30

>  <b_double>
3

>  <b_heavy>
18

>  <b_max1len>
3

>  <b_rotN>
3

>  <b_rotR>
0.16666667

>  <b_single>
21

>  <b_triple>
0

>  <chi0>
12.413849

>  <chi0v>
10.350642

>  <chi0v_C>
7.309401

>  <chi0_C>
8.2925291

>  <chi1>
8.1133919

>  <chi1v>
6.3167329

>  <chi1v_C>
3.0713673

>  <chi1_C>
4.2103434

>  <chiral>
0

>  <chiral_u>
0

>  <density>
0.79340619

>  <diameter>
10

>  <FCharge>
0

>  <GCUT_PEOE_0>
-0.79990071

>  <GCUT_PEOE_1>
-0.39689997

>  <GCUT_PEOE_2>
0.050083678

>  <GCUT_PEOE_3>
2.3166118

>  <GCUT_SLOGP_0>
-1.1783661

>  <GCUT_SLOGP_1>
-0.26389882

>  <GCUT_SLOGP_2>
0.21671069

>  <GCUT_SLOGP_3>
2.3787081

>  <GCUT_SMR_0>
-0.47870475

>  <GCUT_SMR_1>
-0.19449815

>  <GCUT_SMR_2>
0.24953817

>  <GCUT_SMR_3>
2.6149733

>  <Kier1>
13.432098

>  <Kier2>
5.7600002

>  <Kier3>
3.0625

>  <KierA1>
10.099036

>  <KierA2>
4.2465863

>  <KierA3>
2.2226717

>  <KierFlex>
2.5227313

>  <lip_acc>
4

>  <lip_don>
2

>  <lip_druglike>
1

>  <lip_violation>
0

>  <logP(o/w)>
1.774

>  <logS>
-3.5181

>  <mr>
6.8053622

>  <mutagenic>
0

>  <nmol>
1

>  <opr_brigid>
11

>  <opr_leadlike>
1

>  <opr_nring>
2

>  <opr_nrot>
3

>  <opr_violation>
0

>  <PC+>
0

>  <PC->
0

>  <PEOE_PC+>
1.5042189

>  <PEOE_PC->
-1.5042189

>  <PEOE_RPC+>
0.21593411

>  <PEOE_RPC->
0.20599739

>  <PEOE_VSA+0>
38.685009

>  <PEOE_VSA+1>
17.061544

>  <PEOE_VSA+2>
6.6995511

>  <PEOE_VSA+3>
17.238026

>  <PEOE_VSA+4>
8.458519

>  <PEOE_VSA+5>
0

>  <PEOE_VSA+6>
17.440542

>  <PEOE_VSA-0>
88.491035

>  <PEOE_VSA-1>
0

>  <PEOE_VSA-2>
19.760618

>  <PEOE_VSA-3>
0

>  <PEOE_VSA-4>
13.566921

>  <PEOE_VSA-5>
13.566921

>  <PEOE_VSA-6>
0.27378201

>  <PEOE_VSA_FHYD>
0.77903277

>  <PEOE_VSA_FNEG>
0.56233579

>  <PEOE_VSA_FPNEG>
0.11361028

>  <PEOE_VSA_FPOL>
0.22096726

>  <PEOE_VSA_FPOS>
0.43766421

>  <PEOE_VSA_FPPOS>
0.10735698

>  <PEOE_VSA_HYD>
187.93578

>  <PEOE_VSA_NEG>
135.65927

>  <PEOE_VSA_PNEG>
27.407623

>  <PEOE_VSA_POL>
53.306686

>  <PEOE_VSA_POS>
105.58319

>  <PEOE_VSA_PPOS>
25.899061

>  <petitjean>
0.5

>  <petitjeanSC>
1

>  <Q_PC+>
0

>  <Q_PC->
0

>  <Q_RPC+>
0

>  <Q_RPC->
0

>  <Q_VSA_FHYD>
1

>  <Q_VSA_FNEG>
0

>  <Q_VSA_FPNEG>
0

>  <Q_VSA_FPOL>
0

>  <Q_VSA_FPOS>
1

>  <Q_VSA_FPPOS>
0

>  <Q_VSA_HYD>
241.24246

>  <Q_VSA_NEG>
0

>  <Q_VSA_PNEG>
0

>  <Q_VSA_POL>
0

>  <Q_VSA_POS>
241.24246

>  <Q_VSA_PPOS>
0

>  <radius>
5

>  <reactive>
0

>  <rings>
2

>  <RPC+>
0

>  <RPC->
0

>  <rsynth>
1

>  <SlogP>
2.1355

>  <SlogP_VSA0>
36.0215

>  <SlogP_VSA1>
10.517568

>  <SlogP_VSA2>
0

>  <SlogP_VSA3>
0

>  <SlogP_VSA4>
27.047791

>  <SlogP_VSA5>
38.755402

>  <SlogP_VSA6>
0

>  <SlogP_VSA7>
70.572739

>  <SlogP_VSA8>
0

>  <SlogP_VSA9>
89.407776

>  <SMR>
6.6921902

>  <SMR_VSA0>
47.724434

>  <SMR_VSA1>
0

>  <SMR_VSA2>
37.572235

>  <SMR_VSA3>
8.69907

>  <SMR_VSA4>
0

>  <SMR_VSA5>
70.572739

>  <SMR_VSA6>
10.517568

>  <SMR_VSA7>
97.236732

>  <TPSA>
58.200001

>  <VAdjEq>
0.54234898

>  <VAdjMa>
5.1699252

>  <VDistEq>
3.0302751

>  <VDistMa>
7.8583512

>  <vdw_area>
241.24246

>  <vdw_vol>
312.96201

>  <vsa_acc>
27.133842

>  <vsa_acid>
0

>  <vsa_base>
0

>  <vsa_don>
11.365152

>  <vsa_hyd>
163.5798

>  <vsa_other>
25.899061

>  <vsa_pol>
38.498993

>  <Weight>
248.306

>  <weinerPath>
535

>  <weinerPol>
24

>  <zagreb>
86

$$$$