O=C1N(N=NN1CC)CCN1CCC(N(C(=O)CC)c2ccccc2)(CC1)COC
  MOE2013           2D

 30 32  0  0  0  0  0  0  0  0999 V2000
    0.0000    0.0000    0.0000 O   0  0  0  0  0  0  0  0  0  0  0  0
    0.5760    1.3850    0.0000 C   0  0  0  0  0  0  0  0  0  0  0  0
   -0.2060    2.6650    0.0000 N   0  0  0  0  0  0  0  0  0  0  0  0
    0.7700    3.8040    0.0000 N   0  0  0  0  0  0  0  0  0  0  0  0
    2.1550    3.2280    0.0000 N   0  0  0  0  0  0  0  0  0  0  0  0
    2.0350    1.7330    0.0000 N   0  0  0  0  0  0  0  0  0  0  0  0
    3.1740    0.7570    0.0000 C   0  0  0  0  0  0  0  0  0  0  0  0
    4.5890    1.2560    0.0000 C   0  0  0  0  0  0  0  0  0  0  0  0
   -1.7010    2.7850    0.0000 C   0  0  0  0  0  0  0  0  0  0  0  0
   -2.3450    4.1400    0.0000 C   0  0  0  0  0  0  0  0  0  0  0  0
   -3.8400    4.2600    0.0000 N   0  0  0  0  0  0  0  0  0  0  0  0
   -4.6910    3.0250    0.0000 C   0  0  0  0  0  0  0  0  0  0  0  0
   -6.1870    3.1450    0.0000 C   0  0  0  0  0  0  0  0  0  0  0  0
   -6.8300    4.5000    0.0000 C   0  0  0  0  0  0  0  0  0  0  0  0
   -8.1850    3.8560    0.0000 N   0  0  0  0  0  0  0  0  0  0  0  0
   -9.4200    4.7070    0.0000 C   0  0  0  0  0  0  0  0  0  0  0  0
   -9.3000    6.2030    0.0000 O   0  0  0  0  0  0  0  0  0  0  0  0
  -10.7750    4.0640    0.0000 C   0  0  0  0  0  0  0  0  0  0  0  0
  -12.0100    4.9150    0.0000 C   0  0  0  0  0  0  0  0  0  0  0  0
   -8.3050    2.3610    0.0000 C   0  0  0  0  0  0  0  0  0  0  0  0
   -9.6600    1.7170    0.0000 C   0  0  0  0  0  0  0  0  0  0  0  0
   -9.7800    0.2220    0.0000 C   0  0  0  0  0  0  0  0  0  0  0  0
   -8.5450   -0.6300    0.0000 C   0  0  0  0  0  0  0  0  0  0  0  0
   -7.1900    0.0140    0.0000 C   0  0  0  0  0  0  0  0  0  0  0  0
   -7.0700    1.5090    0.0000 C   0  0  0  0  0  0  0  0  0  0  0  0
   -5.9790    5.7350    0.0000 C   0  0  0  0  0  0  0  0  0  0  0  0
   -4.4840    5.6150    0.0000 C   0  0  0  0  0  0  0  0  0  0  0  0
   -8.0650    5.3510    0.0000 C   0  0  0  0  0  0  0  0  0  0  0  0
   -7.9450    6.8460    0.0000 O   0  0  0  0  0  0  0  0  0  0  0  0
   -9.1800    7.6980    0.0000 C   0  0  0  0  0  0  0  0  0  0  0  0
  1  2  2  0  0  0  0
  2  3  1  0  0  0  0
  2  6  1  0  0  0  0
  3  4  1  0  0  0  0
  3  9  1  0  0  0  0
  4  5  2  0  0  0  0
  5  6  1  0  0  0  0
  6  7  1  0  0  0  0
  7  8  1  0  0  0  0
  9 10  1  0  0  0  0
 10 11  1  0  0  0  0
 11 12  1  0  0  0  0
 11 27  1  0  0  0  0
 12 13  1  0  0  0  0
 13 14  1  0  0  0  0
 14 15  1  0  0  0  0
 14 26  1  0  0  0  0
 14 28  1  0  0  0  0
 15 16  1  0  0  0  0
 15 20  1  0  0  0  0
 16 17  2  0  0  0  0
 16 18  1  0  0  0  0
 18 19  1  0  0  0  0
 20 21  1  0  0  0  0
 20 25  2  0  0  0  0
 21 22  2  0  0  0  0
 22 23  1  0  0  0  0
 23 24  2  0  0  0  0
 24 25  1  0  0  0  0
 26 27  1  0  0  0  0
 28 29  1  0  0  0  0
 29 30  1  0  0  0  0
M  END
>  <Index>
40

>  <ID>
HT0096

>  <class>
0

>  <apol>
67.303375

>  <ast_fraglike>
0

>  <ast_fraglike_ext>
0

>  <ast_violation>
2

>  <ast_violation_ext>
3

>  <a_acc>
6

>  <a_acid>
0

>  <a_aro>
6

>  <a_base>
0

>  <a_count>
62

>  <a_don>
0

>  <a_donacc>
6

>  <a_heavy>
30

>  <a_hyd>
19

>  <a_IC>
96.656845

>  <a_ICM>
1.5589813

>  <a_nB>
0

>  <a_nBr>
0

>  <a_nC>
21

>  <a_nCl>
0

>  <a_nF>
0

>  <a_nH>
32

>  <a_nI>
0

>  <a_nN>
6

>  <a_nO>
3

>  <a_nP>
0

>  <a_nS>
0

>  <balabanJ>
1.5958692

>  <BCUT_PEOE_0>
-2.8285751

>  <BCUT_PEOE_1>
-0.4379676

>  <BCUT_PEOE_2>
0.40748754

>  <BCUT_PEOE_3>
2.7887473

>  <BCUT_SLOGP_0>
-2.9116104

>  <BCUT_SLOGP_1>
-0.28412139

>  <BCUT_SLOGP_2>
0.43630412

>  <BCUT_SLOGP_3>
2.7321353

>  <BCUT_SMR_0>
-2.5636389

>  <BCUT_SMR_1>
-0.20309786

>  <BCUT_SMR_2>
0.64601147

>  <BCUT_SMR_3>
3.0474424

>  <bpol>
45.414623

>  <b_1rotN>
10

>  <b_1rotR>
0.3125

>  <b_ar>
6

>  <b_count>
64

>  <b_double>
3

>  <b_heavy>
32

>  <b_max1len>
5

>  <b_rotN>
10

>  <b_rotR>
0.3125

>  <b_single>
55

>  <b_triple>
0

>  <chi0>
21.562267

>  <chi0v>
18.158739

>  <chi0v_C>
14.250712

>  <chi0_C>
15.131546

>  <chi1>
14.541172

>  <chi1v>
10.643456

>  <chi1v_C>
6.2391109

>  <chi1_C>
7.1996188

>  <chiral>
0

>  <chiral_u>
0

>  <density>
0.72500402

>  <diameter>
15

>  <FCharge>
0

>  <GCUT_PEOE_0>
-0.85434824

>  <GCUT_PEOE_1>
-0.38084456

>  <GCUT_PEOE_2>
-0.07888668

>  <GCUT_PEOE_3>
2.9802449

>  <GCUT_SLOGP_0>
-1.0006793

>  <GCUT_SLOGP_1>
-0.25615373

>  <GCUT_SLOGP_2>
0.0048818486

>  <GCUT_SLOGP_3>
2.9777162

>  <GCUT_SMR_0>
-0.51981956

>  <GCUT_SMR_1>
-0.17006041

>  <GCUT_SMR_2>
0.11443855

>  <GCUT_SMR_3>
3.2247696

>  <Kier1>
24.638672

>  <Kier2>
11.743802

>  <Kier3>
5.8800001

>  <KierA1>
19.434469

>  <KierA2>
9.1827307

>  <KierA3>
4.5693283

>  <KierFlex>
5.9487166

>  <lip_acc>
9

>  <lip_don>
0

>  <lip_druglike>
1

>  <lip_violation>
0

>  <logP(o/w)>
-0.70499998

>  <logS>
-2.8241401

>  <mr>
11.459635

>  <mutagenic>
1

>  <nmol>
1

>  <opr_brigid>
17

>  <opr_leadlike>
0

>  <opr_nring>
3

>  <opr_nrot>
11

>  <opr_violation>
2

>  <PC+>
0

>  <PC->
0

>  <PEOE_PC+>
2.360137

>  <PEOE_PC->
-2.360137

>  <PEOE_RPC+>
0.15428807

>  <PEOE_RPC->
0.16128305

>  <PEOE_VSA+0>
169.94476

>  <PEOE_VSA+1>
87.859024

>  <PEOE_VSA+2>
0

>  <PEOE_VSA+3>
0

>  <PEOE_VSA+4>
12.949531

>  <PEOE_VSA+5>
0

>  <PEOE_VSA+6>
17.440542

>  <PEOE_VSA-0>
86.979118

>  <PEOE_VSA-1>
55.51239

>  <PEOE_VSA-2>
0

>  <PEOE_VSA-3>
0

>  <PEOE_VSA-4>
13.566921

>  <PEOE_VSA-5>
13.566921

>  <PEOE_VSA-6>
2.503756

>  <PEOE_VSA_FHYD>
0.8695966

>  <PEOE_VSA_FNEG>
0.37393117

>  <PEOE_VSA_FPNEG>
0.064384356

>  <PEOE_VSA_FPOL>
0.13040338

>  <PEOE_VSA_FPOS>
0.62606883

>  <PEOE_VSA_FPPOS>
0.066019021

>  <PEOE_VSA_HYD>
400.29529

>  <PEOE_VSA_NEG>
172.1291

>  <PEOE_VSA_PNEG>
29.637598

>  <PEOE_VSA_POL>
60.027672

>  <PEOE_VSA_POS>
288.19388

>  <PEOE_VSA_PPOS>
30.390074

>  <petitjean>
0.46666667

>  <petitjeanSC>
0.875

>  <Q_PC+>
0

>  <Q_PC->
0

>  <Q_RPC+>
0

>  <Q_RPC->
0

>  <Q_VSA_FHYD>
1

>  <Q_VSA_FNEG>
0

>  <Q_VSA_FPNEG>
0

>  <Q_VSA_FPOL>
0

>  <Q_VSA_FPOS>
1

>  <Q_VSA_FPPOS>
0

>  <Q_VSA_HYD>
460.32297

>  <Q_VSA_NEG>
0

>  <Q_VSA_PNEG>
0

>  <Q_VSA_POL>
0

>  <Q_VSA_POS>
460.32297

>  <Q_VSA_PPOS>
0

>  <radius>
8

>  <reactive>
0

>  <rings>
3

>  <RPC+>
0

>  <RPC->
0

>  <rsynth>
1

>  <SlogP>
2.9503

>  <SlogP_VSA0>
3.1243138

>  <SlogP_VSA1>
19.216637

>  <SlogP_VSA2>
34.862103

>  <SlogP_VSA3>
113.12415

>  <SlogP_VSA4>
0

>  <SlogP_VSA5>
68.464836

>  <SlogP_VSA6>
0

>  <SlogP_VSA7>
88.215919

>  <SlogP_VSA8>
56.605217

>  <SlogP_VSA9>
93.270996

>  <SMR>
11.3838

>  <SMR_VSA0>
58.724319

>  <SMR_VSA1>
42.20887

>  <SMR_VSA2>
3.1243138

>  <SMR_VSA3>
0

>  <SMR_VSA4>
2.7567475

>  <SMR_VSA5>
144.82114

>  <SMR_VSA6>
123.21289

>  <SMR_VSA7>
102.0359

>  <TPSA>
81.050003

>  <VAdjEq>
0.37005648

>  <VAdjMa>
6

>  <VDistEq>
3.6520743

>  <VDistMa>
9.5165787

>  <vdw_area>
460.32297

>  <vdw_vol>
574.51544

>  <vsa_acc>
55.956604

>  <vsa_acid>
0

>  <vsa_base>
0

>  <vsa_don>
0

>  <vsa_hyd>
351.19885

>  <vsa_other>
30.390074

>  <vsa_pol>
55.956604

>  <Weight>
416.526

>  <weinerPath>
2599

>  <weinerPol>
49

>  <zagreb>
152

$$$$