O=C1NC(=Nc2n(cnc12)[C@H]1C[C@H](O)[C@@H](CO)C1=C)N
  MOE2013           2D

 20 22  0  0  1  0  0  0  0  0999 V2000
    0.0000    0.0000    0.0000 O   0  0  0  0  0  0  0  0  0  0  0  0
    1.3040   -0.7410    0.0000 C   0  0  0  0  0  0  0  0  0  0  0  0
    1.3150   -2.2410    0.0000 N   0  0  0  0  0  0  0  0  0  0  0  0
    2.6190   -2.9820    0.0000 C   0  0  0  0  0  0  0  0  0  0  0  0
    3.9130   -2.2230    0.0000 N   0  0  0  0  0  0  0  0  0  0  0  0
    3.9020   -0.7230    0.0000 C   0  0  0  0  0  0  0  0  0  0  0  0
    5.0100    0.2880    0.0000 N   0  0  0  0  0  0  0  0  0  0  0  0
    4.3900    1.6540    0.0000 C   0  0  0  0  0  0  0  0  0  0  0  0
    2.9000    1.4870    0.0000 N   0  0  0  0  0  0  0  0  0  0  0  0
    2.5980    0.0180    0.0000 C   0  0  0  0  0  0  0  0  0  0  0  0
    6.4790   -0.0130    0.0000 C   0  0  1  0  0  0  0  0  0  0  0  0
    7.0990   -1.3800    0.0000 C   0  0  0  0  0  0  0  0  0  0  0  0
    8.5900   -1.2120    0.0000 C   0  0  2  0  0  0  0  0  0  0  0  0
    9.6010   -2.3200    0.0000 O   0  0  0  0  0  0  0  0  0  0  0  0
    8.8910    0.2570    0.0000 C   0  0  1  0  0  0  0  0  0  0  0  0
   10.2570    0.8760    0.0000 C   0  0  0  0  0  0  0  0  0  0  0  0
   11.4770    0.0030    0.0000 O   0  0  0  0  0  0  0  0  0  0  0  0
    7.5870    0.9980    0.0000 C   0  0  0  0  0  0  0  0  0  0  0  0
    7.4200    2.4890    0.0000 C   0  0  0  0  0  0  0  0  0  0  0  0
    2.6290   -4.4820    0.0000 N   0  0  0  0  0  0  0  0  0  0  0  0
  1  2  2  0  0  0  0
  2  3  1  0  0  0  0
  2 10  1  0  0  0  0
  3  4  1  0  0  0  0
  4  5  2  0  0  0  0
  4 20  1  0  0  0  0
  5  6  1  0  0  0  0
  6  7  1  0  0  0  0
  6 10  2  0  0  0  0
  7  8  1  0  0  0  0
  8  9  2  0  0  0  0
  9 10  1  0  0  0  0
 11  7  1  6  0  0  0
 11 12  1  0  0  0  0
 11 18  1  0  0  0  0
 12 13  1  0  0  0  0
 13 14  1  1  0  0  0
 13 15  1  0  0  0  0
 15 16  1  6  0  0  0
 15 18  1  0  0  0  0
 16 17  1  0  0  0  0
 18 19  2  0  0  0  0
M  END
>  <Index>
374

>  <ID>
HT0764

>  <class>
0

>  <apol>
39.027897

>  <ast_fraglike>
0

>  <ast_fraglike_ext>
0

>  <ast_violation>
2

>  <ast_violation_ext>
3

>  <a_acc>
5

>  <a_acid>
0

>  <a_aro>
5

>  <a_base>
0

>  <a_count>
35

>  <a_don>
4

>  <a_donacc>
9

>  <a_heavy>
20

>  <a_hyd>
8

>  <a_IC>
61.537468

>  <a_ICM>
1.7582134

>  <a_nB>
0

>  <a_nBr>
0

>  <a_nC>
12

>  <a_nCl>
0

>  <a_nF>
0

>  <a_nH>
15

>  <a_nI>
0

>  <a_nN>
5

>  <a_nO>
3

>  <a_nP>
0

>  <a_nS>
0

>  <balabanJ>
1.754333

>  <BCUT_PEOE_0>
-2.5390406

>  <BCUT_PEOE_1>
-0.61919838

>  <BCUT_PEOE_2>
0.69878906

>  <BCUT_PEOE_3>
2.7507441

>  <BCUT_SLOGP_0>
-2.6353476

>  <BCUT_SLOGP_1>
-0.64928895

>  <BCUT_SLOGP_2>
0.54473811

>  <BCUT_SLOGP_3>
2.7784588

>  <BCUT_SMR_0>
-2.3168266

>  <BCUT_SMR_1>
-0.50968266

>  <BCUT_SMR_2>
0.78844672

>  <BCUT_SMR_3>
2.9890385

>  <bpol>
21.976105

>  <b_1rotN>
2

>  <b_1rotR>
0.090909094

>  <b_ar>
5

>  <b_count>
37

>  <b_double>
3

>  <b_heavy>
22

>  <b_max1len>
4

>  <b_rotN>
2

>  <b_rotR>
0.090909094

>  <b_single>
29

>  <b_triple>
0

>  <chi0>
14.438793

>  <chi0v>
10.652388

>  <chi0v_C>
6.9307213

>  <chi0_C>
7.7401223

>  <chi1>
9.5240755

>  <chi1v>
6.2252316

>  <chi1v_C>
2.988982

>  <chi1_C>
3.4687619

>  <chiral>
3

>  <chiral_u>
0

>  <density>
0.81663889

>  <diameter>
9

>  <FCharge>
0

>  <GCUT_PEOE_0>
-0.82992882

>  <GCUT_PEOE_1>
-0.44677585

>  <GCUT_PEOE_2>
0.15546313

>  <GCUT_PEOE_3>
2.6641293

>  <GCUT_SLOGP_0>
-1.3710524

>  <GCUT_SLOGP_1>
-0.42096695

>  <GCUT_SLOGP_2>
0.050974604

>  <GCUT_SLOGP_3>
2.6919143

>  <GCUT_SMR_0>
-0.5304845

>  <GCUT_SMR_1>
-0.24776764

>  <GCUT_SMR_2>
0.21478833

>  <GCUT_SMR_3>
2.9142568

>  <Kier1>
14.917356

>  <Kier2>
5.6528926

>  <Kier3>
2.4934359

>  <KierA1>
10.878771

>  <KierA2>
4.0479712

>  <KierA3>
1.7617704

>  <KierFlex>
2.2018476

>  <lip_acc>
8

>  <lip_don>
5

>  <lip_druglike>
1

>  <lip_violation>
0

>  <logP(o/w)>
-1.464

>  <logS>
-1.3089

>  <mr>
6.9023557

>  <mutagenic>
0

>  <nmol>
1

>  <opr_brigid>
16

>  <opr_leadlike>
1

>  <opr_nring>
3

>  <opr_nrot>
3

>  <opr_violation>
0

>  <PC+>
0

>  <PC->
0

>  <PEOE_PC+>
2.5868351

>  <PEOE_PC->
-2.5868351

>  <PEOE_RPC+>
0.10841832

>  <PEOE_RPC->
0.15243876

>  <PEOE_VSA+0>
12.796158

>  <PEOE_VSA+1>
69.831429

>  <PEOE_VSA+2>
4.2653861

>  <PEOE_VSA+3>
43.747154

>  <PEOE_VSA+4>
36.329918

>  <PEOE_VSA+5>
12.949531

>  <PEOE_VSA+6>
0

>  <PEOE_VSA-0>
10.909853

>  <PEOE_VSA-1>
22.301268

>  <PEOE_VSA-2>
0

>  <PEOE_VSA-3>
5.6825762

>  <PEOE_VSA-4>
5.6825762

>  <PEOE_VSA-5>
13.703812

>  <PEOE_VSA-6>
22.186199

>  <PEOE_VSA_FHYD>
0.65108687

>  <PEOE_VSA_FNEG>
0.30902711

>  <PEOE_VSA_FPNEG>
0.15965763

>  <PEOE_VSA_FPOL>
0.3489131

>  <PEOE_VSA_FPOS>
0.69097292

>  <PEOE_VSA_FPPOS>
0.18925548

>  <PEOE_VSA_HYD>
169.53381

>  <PEOE_VSA_NEG>
80.466286

>  <PEOE_VSA_PNEG>
41.572586

>  <PEOE_VSA_POL>
90.852036

>  <PEOE_VSA_POS>
179.91957

>  <PEOE_VSA_PPOS>
49.279449

>  <petitjean>
0.44444445

>  <petitjeanSC>
0.80000001

>  <Q_PC+>
0

>  <Q_PC->
0

>  <Q_RPC+>
0

>  <Q_RPC->
0

>  <Q_VSA_FHYD>
1

>  <Q_VSA_FNEG>
0

>  <Q_VSA_FPNEG>
0

>  <Q_VSA_FPOL>
0

>  <Q_VSA_FPOS>
1

>  <Q_VSA_FPPOS>
0

>  <Q_VSA_HYD>
260.38586

>  <Q_VSA_NEG>
0

>  <Q_VSA_PNEG>
0

>  <Q_VSA_POL>
0

>  <Q_VSA_POS>
260.38586

>  <Q_VSA_PPOS>
0

>  <radius>
5

>  <reactive>
0

>  <rings>
3

>  <RPC+>
0

>  <RPC->
0

>  <rsynth>
0.55000001

>  <SlogP>
-0.86140001

>  <SlogP_VSA0>
101.67839

>  <SlogP_VSA1>
25.842499

>  <SlogP_VSA2>
6.4686494

>  <SlogP_VSA3>
20.926258

>  <SlogP_VSA4>
31.02976

>  <SlogP_VSA5>
19.971104

>  <SlogP_VSA6>
0

>  <SlogP_VSA7>
16.78553

>  <SlogP_VSA8>
22.850374

>  <SlogP_VSA9>
34.428715

>  <SMR>
7.04632

>  <SMR_VSA0>
23.862217

>  <SMR_VSA1>
86.240608

>  <SMR_VSA2>
22.421547

>  <SMR_VSA3>
16.392941

>  <SMR_VSA4>
35.225109

>  <SMR_VSA5>
35.653934

>  <SMR_VSA6>
28.084135

>  <SMR_VSA7>
32.100792

>  <TPSA>
125.76

>  <VAdjEq>
0.49991596

>  <VAdjMa>
5.4594316

>  <VDistEq>
2.967952

>  <VDistMa>
8.3672285

>  <vdw_area>
260.38586

>  <vdw_vol>
339.543

>  <vsa_acc>
24.932074

>  <vsa_acid>
0

>  <vsa_base>
0

>  <vsa_don>
23.425066

>  <vsa_hyd>
93.550117

>  <vsa_other>
64.612183

>  <vsa_pol>
75.490982

>  <Weight>
277.284

>  <weinerPath>
752

>  <weinerPol>
34

>  <zagreb>
110

$$$$