S1SCCC(=O)N[C@@H](CCCCNC(N)=N)C(=O)NCC(=O)N[C@@H](CC(O)=O)C(=O)N[C@@H](Cc2c3c([nH]c2)cccc3)C(=O)N2[C@@H](CCC2)C(=O)N[C@@H](C1)C(=O)N
  MOE2013           2D

 57 60  0  0  1  0  0  0  0  0999 V2000
    0.0000    0.0000    0.0000 S   0  0  0  0  0  0  0  0  0  0  0  0
    1.4880    0.2510    0.0000 S   0  0  0  0  0  0  0  0  0  0  0  0
    2.4520   -0.8750    0.0000 C   0  0  0  0  0  0  0  0  0  0  0  0
    1.9980   -2.2970    0.0000 C   0  0  0  0  0  0  0  0  0  0  0  0
    3.0130   -3.4120    0.0000 C   0  0  0  0  0  0  0  0  0  0  0  0
    4.4790   -3.0950    0.0000 O   0  0  0  0  0  0  0  0  0  0  0  0
    2.5540   -4.8330    0.0000 N   0  0  0  0  0  0  0  0  0  0  0  0
    3.5580   -5.9570    0.0000 C   0  0  1  0  0  0  0  0  0  0  0  0
    5.0340   -5.6900    0.0000 C   0  0  0  0  0  0  0  0  0  0  0  0
    6.0030   -6.8350    0.0000 C   0  0  0  0  0  0  0  0  0  0  0  0
    7.4790   -6.5680    0.0000 C   0  0  0  0  0  0  0  0  0  0  0  0
    8.4490   -7.7130    0.0000 C   0  0  0  0  0  0  0  0  0  0  0  0
    9.9250   -7.4460    0.0000 N   0  0  0  0  0  0  0  0  0  0  0  0
   10.8940   -8.5910    0.0000 C   0  0  0  0  0  0  0  0  0  0  0  0
   10.3870  -10.0030    0.0000 N   0  0  0  0  0  0  0  0  0  0  0  0
   12.3700   -8.3240    0.0000 N   0  0  0  0  0  0  0  0  0  0  0  0
    3.0010   -7.3850    0.0000 C   0  0  0  0  0  0  0  0  0  0  0  0
    3.9120   -8.5770    0.0000 O   0  0  0  0  0  0  0  0  0  0  0  0
    1.5110   -7.5440    0.0000 N   0  0  0  0  0  0  0  0  0  0  0  0
    0.8850   -8.9040    0.0000 C   0  0  0  0  0  0  0  0  0  0  0  0
   -0.6440   -8.9790    0.0000 C   0  0  0  0  0  0  0  0  0  0  0  0
   -1.3630  -10.2960    0.0000 O   0  0  0  0  0  0  0  0  0  0  0  0
   -1.3980   -7.6740    0.0000 N   0  0  0  0  0  0  0  0  0  0  0  0
   -2.8890   -7.6640    0.0000 C   0  0  1  0  0  0  0  0  0  0  0  0
   -3.6500   -8.9570    0.0000 C   0  0  0  0  0  0  0  0  0  0  0  0
   -5.1500   -8.9450    0.0000 C   0  0  0  0  0  0  0  0  0  0  0  0
   -5.8890   -7.6400    0.0000 O   0  0  0  0  0  0  0  0  0  0  0  0
   -5.9100  -10.2380    0.0000 O   0  0  0  0  0  0  0  0  0  0  0  0
   -3.6310   -6.3460    0.0000 C   0  0  0  0  0  0  0  0  0  0  0  0
   -2.8690   -5.0540    0.0000 O   0  0  0  0  0  0  0  0  0  0  0  0
   -5.1230   -6.3330    0.0000 N   0  0  0  0  0  0  0  0  0  0  0  0
   -5.9000   -5.0750    0.0000 C   0  0  1  0  0  0  0  0  0  0  0  0
   -7.3990   -5.1340    0.0000 C   0  0  0  0  0  0  0  0  0  0  0  0
   -8.0970   -6.4610    0.0000 C   0  0  0  0  0  0  0  0  0  0  0  0
   -9.5820   -6.6770    0.0000 C   0  0  0  0  0  0  0  0  0  0  0  0
   -9.8360   -8.1550    0.0000 C   0  0  0  0  0  0  0  0  0  0  0  0
   -8.5080   -8.8530    0.0000 N   0  0  0  0  0  0  0  0  0  0  0  0
   -7.4340   -7.8070    0.0000 C   0  0  0  0  0  0  0  0  0  0  0  0
  -11.2430   -8.6740    0.0000 C   0  0  0  0  0  0  0  0  0  0  0  0
  -12.3960   -7.7150    0.0000 C   0  0  0  0  0  0  0  0  0  0  0  0
  -12.1420   -6.2360    0.0000 C   0  0  0  0  0  0  0  0  0  0  0  0
  -10.7350   -5.7170    0.0000 C   0  0  0  0  0  0  0  0  0  0  0  0
   -5.2090   -3.7320    0.0000 C   0  0  0  0  0  0  0  0  0  0  0  0
   -3.7090   -3.7340    0.0000 O   0  0  0  0  0  0  0  0  0  0  0  0
   -5.8430   -2.4860    0.0000 N   0  0  0  0  0  0  0  0  0  0  0  0
   -5.6160   -1.1320    0.0000 C   0  0  1  0  0  0  0  0  0  0  0  0
   -6.9570   -0.3790    0.0000 C   0  0  0  0  0  0  0  0  0  0  0  0
   -8.0240   -1.4490    0.0000 C   0  0  0  0  0  0  0  0  0  0  0  0
   -7.3280   -2.7970    0.0000 C   0  0  0  0  0  0  0  0  0  0  0  0
   -4.6630   -0.1450    0.0000 C   0  0  0  0  0  0  0  0  0  0  0  0
   -5.2240    1.2460    0.0000 O   0  0  0  0  0  0  0  0  0  0  0  0
   -3.1760   -0.2000    0.0000 N   0  0  0  0  0  0  0  0  0  0  0  0
   -2.3790    1.0700    0.0000 C   0  0  1  0  0  0  0  0  0  0  0  0
   -0.9430    1.1520    0.0000 C   0  0  0  0  0  0  0  0  0  0  0  0
   -3.1430    2.3610    0.0000 C   0  0  0  0  0  0  0  0  0  0  0  0
   -2.4060    3.6680    0.0000 O   0  0  0  0  0  0  0  0  0  0  0  0
   -4.6430    2.3450    0.0000 N   0  0  0  0  0  0  0  0  0  0  0  0
  1  2  1  0  0  0  0
  1 54  1  0  0  0  0
  2  3  1  0  0  0  0
  3  4  1  0  0  0  0
  4  5  1  0  0  0  0
  5  6  2  0  0  0  0
  5  7  1  0  0  0  0
  7  8  1  0  0  0  0
  8  9  1  1  0  0  0
  8 17  1  0  0  0  0
  9 10  1  0  0  0  0
 10 11  1  0  0  0  0
 11 12  1  0  0  0  0
 12 13  1  0  0  0  0
 13 14  1  0  0  0  0
 14 15  1  0  0  0  0
 14 16  2  0  0  0  0
 17 18  2  0  0  0  0
 17 19  1  0  0  0  0
 19 20  1  0  0  0  0
 20 21  1  0  0  0  0
 21 22  2  0  0  0  0
 21 23  1  0  0  0  0
 23 24  1  0  0  0  0
 24 25  1  1  0  0  0
 24 29  1  0  0  0  0
 25 26  1  0  0  0  0
 26 27  1  0  0  0  0
 26 28  2  0  0  0  0
 29 30  2  0  0  0  0
 29 31  1  0  0  0  0
 31 32  1  0  0  0  0
 32 33  1  1  0  0  0
 32 43  1  0  0  0  0
 33 34  1  0  0  0  0
 34 35  1  0  0  0  0
 34 38  2  0  0  0  0
 35 36  2  0  0  0  0
 35 42  1  0  0  0  0
 36 37  1  0  0  0  0
 36 39  1  0  0  0  0
 37 38  1  0  0  0  0
 39 40  2  0  0  0  0
 40 41  1  0  0  0  0
 41 42  2  0  0  0  0
 43 44  2  0  0  0  0
 43 45  1  0  0  0  0
 45 46  1  0  0  0  0
 45 49  1  0  0  0  0
 46 47  1  0  0  0  0
 46 50  1  1  0  0  0
 47 48  1  0  0  0  0
 48 49  1  0  0  0  0
 50 51  2  0  0  0  0
 50 52  1  0  0  0  0
 52 53  1  0  0  0  0
 53 54  1  0  0  0  0
 53 55  1  6  0  0  0
 55 56  2  0  0  0  0
 55 57  1  0  0  0  0
M  END
>  <Index>
382

>  <ID>
HT0774

>  <class>
0

>  <apol>
119.39085

>  <ast_fraglike>
0

>  <ast_fraglike_ext>
0

>  <ast_violation>
3

>  <ast_violation_ext>
5

>  <a_acc>
10

>  <a_acid>
0

>  <a_aro>
9

>  <a_base>
0

>  <a_count>
106

>  <a_don>
12

>  <a_donacc>
22

>  <a_heavy>
57

>  <a_hyd>
28

>  <a_IC>
189.9308

>  <a_ICM>
1.7918

>  <a_nB>
0

>  <a_nBr>
0

>  <a_nC>
35

>  <a_nCl>
0

>  <a_nF>
0

>  <a_nH>
49

>  <a_nI>
0

>  <a_nN>
11

>  <a_nO>
9

>  <a_nP>
0

>  <a_nS>
2

>  <balabanJ>
1.5530703

>  <BCUT_PEOE_0>
-2.6630974

>  <BCUT_PEOE_1>
-0.54425973

>  <BCUT_PEOE_2>
0.57305753

>  <BCUT_PEOE_3>
2.7403352

>  <BCUT_SLOGP_0>
-2.8471901

>  <BCUT_SLOGP_1>
-0.5286786

>  <BCUT_SLOGP_2>
0.65730715

>  <BCUT_SLOGP_3>
2.6898122

>  <BCUT_SMR_0>
-2.4104109

>  <BCUT_SMR_1>
-0.32563281

>  <BCUT_SMR_2>
0.71576709

>  <BCUT_SMR_3>
2.9943712

>  <bpol>
68.791145

>  <b_1rotN>
10

>  <b_1rotR>
0.16666667

>  <b_ar>
10

>  <b_count>
109

>  <b_double>
9

>  <b_heavy>
60

>  <b_max1len>
7

>  <b_rotN>
11

>  <b_rotR>
0.18333334

>  <b_single>
90

>  <b_triple>
0

>  <chi0>
41.484188

>  <chi0v>
32.730495

>  <chi0v_C>
20.965891

>  <chi0_C>
22.542877

>  <chi1>
27.226162

>  <chi1v>
20.879374

>  <chi1v_C>
10.264856

>  <chi1_C>
11.732313

>  <chiral>
5

>  <chiral_u>
0

>  <density>
0.81459373

>  <diameter>
22

>  <FCharge>
0

>  <GCUT_PEOE_0>
-0.86281186

>  <GCUT_PEOE_1>
-0.44121116

>  <GCUT_PEOE_2>
0.070422284

>  <GCUT_PEOE_3>
3.0860763

>  <GCUT_SLOGP_0>
-1.37102

>  <GCUT_SLOGP_1>
-0.40667361

>  <GCUT_SLOGP_2>
0.12322918

>  <GCUT_SLOGP_3>
3.0180192

>  <GCUT_SMR_0>
-0.52765417

>  <GCUT_SMR_1>
-0.24415018

>  <GCUT_SMR_2>
0.20494497

>  <GCUT_SMR_3>
3.3371208

>  <Kier1>
49.653332

>  <Kier2>
25.819235

>  <Kier3>
16.661158

>  <KierA1>
38.813129

>  <KierA2>
20.08894

>  <KierA3>
12.921268

>  <KierFlex>
13.679204

>  <lip_acc>
20

>  <lip_don>
13

>  <lip_druglike>
0

>  <lip_violation>
3

>  <logP(o/w)>
-1.122

>  <logS>
-6.4002299

>  <mr>
21.230244

>  <mutagenic>
0

>  <nmol>
1

>  <opr_brigid>
38

>  <opr_leadlike>
0

>  <opr_nring>
3

>  <opr_nrot>
27

>  <opr_violation>
4

>  <PC+>
0

>  <PC->
0

>  <PEOE_PC+>
6.8431816

>  <PEOE_PC->
-6.8431816

>  <PEOE_RPC+>
0.038293459

>  <PEOE_RPC->
0.054087844

>  <PEOE_VSA+0>
193.1653

>  <PEOE_VSA+1>
73.07827

>  <PEOE_VSA+2>
15.729802

>  <PEOE_VSA+3>
119.10973

>  <PEOE_VSA+4>
100.97089

>  <PEOE_VSA+5>
14.708499

>  <PEOE_VSA+6>
0

>  <PEOE_VSA-0>
57.970009

>  <PEOE_VSA-1>
80.238068

>  <PEOE_VSA-2>
0

>  <PEOE_VSA-3>
0

>  <PEOE_VSA-4>
0

>  <PEOE_VSA-5>
120.73217

>  <PEOE_VSA-6>
22.028017

>  <PEOE_VSA_FHYD>
0.67603159

>  <PEOE_VSA_FNEG>
0.35220939

>  <PEOE_VSA_FPNEG>
0.17895786

>  <PEOE_VSA_FPOL>
0.32396841

>  <PEOE_VSA_FPOS>
0.64779061

>  <PEOE_VSA_FPPOS>
0.14501056

>  <PEOE_VSA_HYD>
539.2912

>  <PEOE_VSA_NEG>
280.96826

>  <PEOE_VSA_PNEG>
142.76019

>  <PEOE_VSA_POL>
258.43958

>  <PEOE_VSA_POS>
516.76251

>  <PEOE_VSA_PPOS>
115.67939

>  <petitjean>
0.45454547

>  <petitjeanSC>
0.83333331

>  <Q_PC+>
0

>  <Q_PC->
0

>  <Q_RPC+>
0

>  <Q_RPC->
0

>  <Q_VSA_FHYD>
1

>  <Q_VSA_FNEG>
0

>  <Q_VSA_FPNEG>
0

>  <Q_VSA_FPOL>
0

>  <Q_VSA_FPOS>
1

>  <Q_VSA_FPPOS>
0

>  <Q_VSA_HYD>
797.73077

>  <Q_VSA_NEG>
0

>  <Q_VSA_PNEG>
0

>  <Q_VSA_POL>
0

>  <Q_VSA_POS>
797.73077

>  <Q_VSA_PPOS>
0

>  <radius>
12

>  <reactive>
1

>  <rings>
4

>  <RPC+>
0

>  <RPC->
0

>  <rsynth>
1

>  <SlogP>
-1.8447599

>  <SlogP_VSA0>
173.85887

>  <SlogP_VSA1>
49.580357

>  <SlogP_VSA2>
227.59311

>  <SlogP_VSA3>
115.17109

>  <SlogP_VSA4>
3.185575

>  <SlogP_VSA5>
18.868406

>  <SlogP_VSA6>
0

>  <SlogP_VSA7>
124.17616

>  <SlogP_VSA8>
132.07884

>  <SlogP_VSA9>
60.363499

>  <SMR>
21.222019

>  <SMR_VSA0>
190.89774

>  <SMR_VSA1>
3.1243138

>  <SMR_VSA2>
181.90723

>  <SMR_VSA3>
23.095419

>  <SMR_VSA4>
70.511475

>  <SMR_VSA5>
238.73434

>  <SMR_VSA6>
136.2419

>  <SMR_VSA7>
60.363499

>  <TPSA>
323.89001

>  <VAdjEq>
0.22805569

>  <VAdjMa>
6.9068904

>  <VDistEq>
4.1336951

>  <VDistMa>
11.434902

>  <vdw_area>
797.73077

>  <vdw_vol>
1021.3398

>  <vsa_acc>
94.968445

>  <vsa_acid>
0

>  <vsa_base>
0

>  <vsa_don>
75.263008

>  <vsa_hyd>
394.55682

>  <vsa_other>
121.03679

>  <vsa_pol>
215.10779

>  <Weight>
831.97699

>  <weinerPath>
13901

>  <weinerPol>
86

>  <zagreb>
282

$$$$