S(O)(=O)(=O)c1cc2c(cc1C(C)C)CCC1C(CCCC12C)(C(O)=O)C
  MOE2013           2D

 26 28  0  0  1  0  0  0  0  0999 V2000
    0.0000    0.0000    0.0000 S   0  0  0  0  0  0  0  0  0  0  0  0
   -1.3040    0.7420    0.0000 O   0  0  0  0  0  0  0  0  0  0  0  0
   -0.7420   -1.3040    0.0000 O   0  0  0  0  0  0  0  0  0  0  0  0
    0.7420    1.3040    0.0000 O   0  0  0  0  0  0  0  0  0  0  0  0
    1.3040   -0.7420    0.0000 C   0  0  0  0  0  0  0  0  0  0  0  0
    2.5980    0.0170    0.0000 C   0  0  0  0  0  0  0  0  0  0  0  0
    3.9020   -0.7250    0.0000 C   0  0  0  0  0  0  0  0  0  0  0  0
    3.9120   -2.2250    0.0000 C   0  0  0  0  0  0  0  0  0  0  0  0
    2.6170   -2.9830    0.0000 C   0  0  0  0  0  0  0  0  0  0  0  0
    1.3140   -2.2420    0.0000 C   0  0  0  0  0  0  0  0  0  0  0  0
    0.0190   -3.0000    0.0000 C   0  0  0  0  0  0  0  0  0  0  0  0
   -1.2840   -2.2580    0.0000 C   0  0  0  0  0  0  0  0  0  0  0  0
    0.0290   -4.5000    0.0000 C   0  0  0  0  0  0  0  0  0  0  0  0
    5.2150   -2.9660    0.0000 C   0  0  0  0  0  0  0  0  0  0  0  0
    6.5100   -2.2080    0.0000 C   0  0  0  0  0  0  0  0  0  0  0  0
    6.5000   -0.7080    0.0000 C   0  0  3  0  0  0  0  0  0  0  0  0
    7.7940    0.0500    0.0000 C   0  0  3  0  0  0  0  0  0  0  0  0
    7.7840    1.5500    0.0000 C   0  0  0  0  0  0  0  0  0  0  0  0
    6.4800    2.2920    0.0000 C   0  0  0  0  0  0  0  0  0  0  0  0
    5.1860    1.5340    0.0000 C   0  0  0  0  0  0  0  0  0  0  0  0
    5.1960    0.0340    0.0000 C   0  0  3  0  0  0  0  0  0  0  0  0
    3.8920    0.7750    0.0000 C   0  0  0  0  0  0  0  0  0  0  0  0
    9.2940    0.0600    0.0000 C   0  0  0  0  0  0  0  0  0  0  0  0
   10.0360    1.3640    0.0000 O   0  0  0  0  0  0  0  0  0  0  0  0
   10.0520   -1.2340    0.0000 O   0  0  0  0  0  0  0  0  0  0  0  0
    8.5520   -1.2440    0.0000 C   0  0  0  0  0  0  0  0  0  0  0  0
  1  2  1  0  0  0  0
  1  3  2  0  0  0  0
  1  4  2  0  0  0  0
  1  5  1  0  0  0  0
  5  6  1  0  0  0  0
  5 10  2  0  0  0  0
  6  7  2  0  0  0  0
  7  8  1  0  0  0  0
  7 21  1  0  0  0  0
  8  9  2  0  0  0  0
  8 14  1  0  0  0  0
  9 10  1  0  0  0  0
 10 11  1  0  0  0  0
 11 12  1  0  0  0  0
 11 13  1  0  0  0  0
 14 15  1  0  0  0  0
 15 16  1  0  0  0  0
 16 17  1  0  0  0  0
 16 21  1  0  0  0  0
 17 18  1  0  0  0  0
 17 23  1  0  0  0  0
 17 26  1  0  0  0  0
 18 19  1  0  0  0  0
 19 20  1  0  0  0  0
 20 21  1  0  0  0  0
 21 22  1  0  0  0  0
 23 24  1  0  0  0  0
 23 25  2  0  0  0  0
M  END
>  <Index>
362

>  <ID>
HT0739

>  <class>
0

>  <apol>
60.780205

>  <ast_fraglike>
0

>  <ast_fraglike_ext>
0

>  <ast_violation>
4

>  <ast_violation_ext>
5

>  <a_acc>
5

>  <a_acid>
0

>  <a_aro>
6

>  <a_base>
0

>  <a_count>
54

>  <a_don>
5

>  <a_donacc>
10

>  <a_heavy>
26

>  <a_hyd>
19

>  <a_IC>
78.109787

>  <a_ICM>
1.4464775

>  <a_nB>
0

>  <a_nBr>
0

>  <a_nC>
20

>  <a_nCl>
0

>  <a_nF>
0

>  <a_nH>
28

>  <a_nI>
0

>  <a_nN>
0

>  <a_nO>
5

>  <a_nP>
0

>  <a_nS>
1

>  <balabanJ>
1.9447966

>  <BCUT_PEOE_0>
-2.8857133

>  <BCUT_PEOE_1>
-0.34343016

>  <BCUT_PEOE_2>
0.4300189

>  <BCUT_PEOE_3>
2.8728428

>  <BCUT_SLOGP_0>
-2.8305671

>  <BCUT_SLOGP_1>
-0.38573551

>  <BCUT_SLOGP_2>
0.45379066

>  <BCUT_SLOGP_3>
2.9376128

>  <BCUT_SMR_0>
-2.6374607

>  <BCUT_SMR_1>
-0.20593241

>  <BCUT_SMR_2>
0.56064379

>  <BCUT_SMR_3>
3.1221845

>  <bpol>
38.043797

>  <b_1rotN>
3

>  <b_1rotR>
0.10714286

>  <b_ar>
6

>  <b_count>
56

>  <b_double>
1

>  <b_heavy>
28

>  <b_max1len>
4

>  <b_rotN>
3

>  <b_rotR>
0.10714286

>  <b_single>
49

>  <b_triple>
0

>  <chi0>
19.491199

>  <chi0v>
16.688852

>  <chi0v_C>
13.344935

>  <chi0_C>
13.991199

>  <chi1>
11.909373

>  <chi1v>
10.732161

>  <chi1v_C>
8.1443348

>  <chi1_C>
8.9659977

>  <chiral>
3

>  <chiral_u>
3

>  <density>
0.76139784

>  <diameter>
10

>  <FCharge>
0

>  <GCUT_PEOE_0>
-0.78504884

>  <GCUT_PEOE_1>
-0.39126134

>  <GCUT_PEOE_2>
-0.016102711

>  <GCUT_PEOE_3>
3.1573422

>  <GCUT_SLOGP_0>
-0.88433701

>  <GCUT_SLOGP_1>
-0.33334044

>  <GCUT_SLOGP_2>
0.03022442

>  <GCUT_SLOGP_3>
3.2305274

>  <GCUT_SMR_0>
-0.52583522

>  <GCUT_SMR_1>
-0.15881146

>  <GCUT_SMR_2>
0.10674986

>  <GCUT_SMR_3>
3.3931196

>  <Kier1>
20.727041

>  <Kier2>
6.8052931

>  <Kier3>
3.3378685

>  <KierA1>
19.335295

>  <KierA2>
6.3300009

>  <KierA3>
3.0983343

>  <KierFlex>
4.7074013

>  <lip_acc>
5

>  <lip_don>
2

>  <lip_druglike>
1

>  <lip_violation>
0

>  <logP(o/w)>
3.9059999

>  <logS>
-5.7881298

>  <mr>
10.044687

>  <mutagenic>
0

>  <nmol>
1

>  <opr_brigid>
16

>  <opr_leadlike>
1

>  <opr_nring>
3

>  <opr_nrot>
3

>  <opr_violation>
0

>  <PC+>
0

>  <PC->
0

>  <PEOE_PC+>
1.9041237

>  <PEOE_PC->
-1.9041237

>  <PEOE_RPC+>
0.15800695

>  <PEOE_RPC->
0.17375441

>  <PEOE_VSA+0>
114.62417

>  <PEOE_VSA+1>
21.063484

>  <PEOE_VSA+2>
11.512783

>  <PEOE_VSA+3>
0

>  <PEOE_VSA+4>
10.324173

>  <PEOE_VSA+5>
14.708499

>  <PEOE_VSA+6>
4.1846013

>  <PEOE_VSA-0>
51.477238

>  <PEOE_VSA-1>
83.692024

>  <PEOE_VSA-2>
0

>  <PEOE_VSA-3>
0

>  <PEOE_VSA-4>
32.016521

>  <PEOE_VSA-5>
23.775803

>  <PEOE_VSA-6>
7.7675405

>  <PEOE_VSA_FHYD>
0.75269115

>  <PEOE_VSA_FNEG>
0.52973694

>  <PEOE_VSA_FPNEG>
0.16942663

>  <PEOE_VSA_FPOL>
0.24730887

>  <PEOE_VSA_FPOS>
0.47026309

>  <PEOE_VSA_FPPOS>
0.07788223

>  <PEOE_VSA_HYD>
282.36969

>  <PEOE_VSA_NEG>
198.72913

>  <PEOE_VSA_PNEG>
63.559864

>  <PEOE_VSA_POL>
92.777138

>  <PEOE_VSA_POS>
176.41771

>  <PEOE_VSA_PPOS>
29.217274

>  <petitjean>
0.5

>  <petitjeanSC>
1

>  <Q_PC+>
0

>  <Q_PC->
0

>  <Q_RPC+>
0

>  <Q_RPC->
0

>  <Q_VSA_FHYD>
1

>  <Q_VSA_FNEG>
0

>  <Q_VSA_FPNEG>
0

>  <Q_VSA_FPOL>
0

>  <Q_VSA_FPOS>
1

>  <Q_VSA_FPPOS>
0

>  <Q_VSA_HYD>
375.14682

>  <Q_VSA_NEG>
0

>  <Q_VSA_PNEG>
0

>  <Q_VSA_POL>
0

>  <Q_VSA_POS>
375.14682

>  <Q_VSA_PPOS>
0

>  <radius>
5

>  <reactive>
0

>  <rings>
3

>  <RPC+>
0

>  <RPC->
0

>  <rsynth>
0.15384616

>  <SlogP>
3.58587

>  <SlogP_VSA0>
22.930752

>  <SlogP_VSA1>
55.917152

>  <SlogP_VSA2>
32.445366

>  <SlogP_VSA3>
25.385227

>  <SlogP_VSA4>
13.967521

>  <SlogP_VSA5>
20.41914

>  <SlogP_VSA6>
4.4107962

>  <SlogP_VSA7>
35.286369

>  <SlogP_VSA8>
75.473625

>  <SlogP_VSA9>
133.30406

>  <SMR>
9.8692398

>  <SMR_VSA0>
72.033905

>  <SMR_VSA1>
22.930752

>  <SMR_VSA2>
31.346756

>  <SMR_VSA3>
13.967521

>  <SMR_VSA4>
0

>  <SMR_VSA5>
129.6284

>  <SMR_VSA6>
7.7454643

>  <SMR_VSA7>
141.88721

>  <TPSA>
91.669998

>  <VAdjEq>
0.41210872

>  <VAdjMa>
5.8073549

>  <VDistEq>
3.1157908

>  <VDistMa>
9.1495085

>  <vdw_area>
375.14682

>  <vdw_vol>
499.74533

>  <vsa_acc>
0

>  <vsa_acid>
0

>  <vsa_base>
0

>  <vsa_don>
0

>  <vsa_hyd>
243.52055

>  <vsa_other>
26.221283

>  <vsa_pol>
75.158623

>  <Weight>
380.505

>  <weinerPath>
1438

>  <weinerPol>
54

>  <zagreb>
148

$$$$