O1c2c([C@H]3[C@@H](CCC(=C3)C)C1(C)C)c(O)cc(c2)CCCCC
  MOE2013           2D

 23 25  0  0  1  0  0  0  0  0999 V2000
    0.0000    0.0000    0.0000 O   0  0  0  0  0  0  0  0  0  0  0  0
    1.2970    0.7530    0.0000 C   0  0  0  0  0  0  0  0  0  0  0  0
    1.2940    2.2530    0.0000 C   0  0  0  0  0  0  0  0  0  0  0  0
   -0.0060    3.0000    0.0000 C   0  0  1  0  0  0  0  0  0  0  0  0
   -1.3040    2.2470    0.0000 C   0  0  1  0  0  0  0  0  0  0  0  0
   -2.6040    2.9950    0.0000 C   0  0  0  0  0  0  0  0  0  0  0  0
   -2.6070    4.4950    0.0000 C   0  0  0  0  0  0  0  0  0  0  0  0
   -1.3100    5.2470    0.0000 C   0  0  0  0  0  0  0  0  0  0  0  0
   -0.0090    4.5000    0.0000 C   0  0  0  0  0  0  0  0  0  0  0  0
   -1.3130    6.7470    0.0000 C   0  0  0  0  0  0  0  0  0  0  0  0
   -1.3010    0.7470    0.0000 C   0  0  0  0  0  0  0  0  0  0  0  0
   -2.8010    0.7440    0.0000 C   0  0  0  0  0  0  0  0  0  0  0  0
   -2.0480   -0.5530    0.0000 C   0  0  0  0  0  0  0  0  0  0  0  0
    2.5920    3.0050    0.0000 C   0  0  0  0  0  0  0  0  0  0  0  0
    2.5890    4.5050    0.0000 O   0  0  0  0  0  0  0  0  0  0  0  0
    3.8920    2.2580    0.0000 C   0  0  0  0  0  0  0  0  0  0  0  0
    3.8960    0.7580    0.0000 C   0  0  0  0  0  0  0  0  0  0  0  0
    2.5980    0.0050    0.0000 C   0  0  0  0  0  0  0  0  0  0  0  0
    5.1960    0.0110    0.0000 C   0  0  0  0  0  0  0  0  0  0  0  0
    6.4940    0.7640    0.0000 C   0  0  0  0  0  0  0  0  0  0  0  0
    7.7940    0.0160    0.0000 C   0  0  0  0  0  0  0  0  0  0  0  0
    9.0920    0.7690    0.0000 C   0  0  0  0  0  0  0  0  0  0  0  0
   10.3920    0.0220    0.0000 C   0  0  0  0  0  0  0  0  0  0  0  0
  1  2  1  0  0  0  0
  1 11  1  0  0  0  0
  2  3  2  0  0  0  0
  2 18  1  0  0  0  0
  3 14  1  0  0  0  0
  4  3  1  1  0  0  0
  4  5  1  0  0  0  0
  4  9  1  0  0  0  0
  5  6  1  6  0  0  0
  5 11  1  0  0  0  0
  6  7  1  0  0  0  0
  7  8  1  0  0  0  0
  8  9  2  0  0  0  0
  8 10  1  0  0  0  0
 11 12  1  0  0  0  0
 11 13  1  0  0  0  0
 14 15  1  0  0  0  0
 14 16  2  0  0  0  0
 16 17  1  0  0  0  0
 17 18  2  0  0  0  0
 17 19  1  0  0  0  0
 19 20  1  0  0  0  0
 20 21  1  0  0  0  0
 21 22  1  0  0  0  0
 22 23  1  0  0  0  0
M  END
>  <Index>
350

>  <ID>
HT0724

>  <class>
0

>  <apol>
58.567791

>  <ast_fraglike>
0

>  <ast_fraglike_ext>
0

>  <ast_violation>
2

>  <ast_violation_ext>
3

>  <a_acc>
2

>  <a_acid>
0

>  <a_aro>
6

>  <a_base>
0

>  <a_count>
53

>  <a_don>
1

>  <a_donacc>
3

>  <a_heavy>
23

>  <a_hyd>
21

>  <a_IC>
62.134399

>  <a_ICM>
1.1723472

>  <a_nB>
0

>  <a_nBr>
0

>  <a_nC>
21

>  <a_nCl>
0

>  <a_nF>
0

>  <a_nH>
30

>  <a_nI>
0

>  <a_nN>
0

>  <a_nO>
2

>  <a_nP>
0

>  <a_nS>
0

>  <balabanJ>
1.7230142

>  <BCUT_PEOE_0>
-2.7908635

>  <BCUT_PEOE_1>
-0.20923759

>  <BCUT_PEOE_2>
0.27697945

>  <BCUT_PEOE_3>
2.7728155

>  <BCUT_SLOGP_0>
-2.750674

>  <BCUT_SLOGP_1>
-0.11721742

>  <BCUT_SLOGP_2>
0.29776707

>  <BCUT_SLOGP_3>
2.8501389

>  <BCUT_SMR_0>
-2.5388672

>  <BCUT_SMR_1>
-0.072248161

>  <BCUT_SMR_2>
0.40915841

>  <BCUT_SMR_3>
3.0258715

>  <bpol>
34.712212

>  <b_1rotN>
4

>  <b_1rotR>
0.16

>  <b_ar>
6

>  <b_count>
55

>  <b_double>
1

>  <b_heavy>
25

>  <b_max1len>
6

>  <b_rotN>
4

>  <b_rotR>
0.16

>  <b_single>
48

>  <b_triple>
0

>  <chi0>
16.61252

>  <chi0v>
14.984854

>  <chi0v_C>
14.129392

>  <chi0_C>
14.905413

>  <chi1>
10.919852

>  <chi1v>
9.1417093

>  <chi1v_C>
8.5098543

>  <chi1_C>
9.5806999

>  <chiral>
2

>  <chiral_u>
0

>  <density>
0.65405726

>  <diameter>
12

>  <FCharge>
0

>  <GCUT_PEOE_0>
-0.79875016

>  <GCUT_PEOE_1>
-0.29728782

>  <GCUT_PEOE_2>
-0.077594332

>  <GCUT_PEOE_3>
2.9504712

>  <GCUT_SLOGP_0>
-0.89647192

>  <GCUT_SLOGP_1>
-0.19761272

>  <GCUT_SLOGP_2>
-0.037

>  <GCUT_SLOGP_3>
3.0765262

>  <GCUT_SMR_0>
-0.53147447

>  <GCUT_SMR_1>
-0.12079347

>  <GCUT_SMR_2>
0.051728476

>  <GCUT_SMR_3>
3.2009046

>  <Kier1>
17.811199

>  <Kier2>
7.0869246

>  <Kier3>
3.6651394

>  <KierA1>
15.436004

>  <KierA2>
6.0997062

>  <KierA3>
3.138165

>  <KierFlex>
4.0936995

>  <lip_acc>
2

>  <lip_don>
1

>  <lip_druglike>
1

>  <lip_violation>
1

>  <logP(o/w)>
5.5100002

>  <logS>
-5.77949

>  <mr>
9.4520512

>  <mutagenic>
0

>  <nmol>
1

>  <opr_brigid>
16

>  <opr_leadlike>
1

>  <opr_nring>
3

>  <opr_nrot>
4

>  <opr_violation>
1

>  <PC+>
0

>  <PC->
0

>  <PEOE_PC+>
1.3904408

>  <PEOE_PC->
-1.3904408

>  <PEOE_RPC+>
0.1563004

>  <PEOE_RPC->
0.25851512

>  <PEOE_VSA+0>
113.10857

>  <PEOE_VSA+1>
29.713198

>  <PEOE_VSA+2>
0

>  <PEOE_VSA+3>
0

>  <PEOE_VSA+4>
10.324173

>  <PEOE_VSA+5>
0

>  <PEOE_VSA+6>
0

>  <PEOE_VSA-0>
117.76663

>  <PEOE_VSA-1>
50.613747

>  <PEOE_VSA-2>
0

>  <PEOE_VSA-3>
0

>  <PEOE_VSA-4>
0

>  <PEOE_VSA-5>
0

>  <PEOE_VSA-6>
10.271297

>  <PEOE_VSA_FHYD>
0.9379276

>  <PEOE_VSA_FNEG>
0.5384357

>  <PEOE_VSA_FPNEG>
0.03095651

>  <PEOE_VSA_FPOL>
0.062072381

>  <PEOE_VSA_FPOS>
0.46156433

>  <PEOE_VSA_FPPOS>
0.031115873

>  <PEOE_VSA_HYD>
311.20215

>  <PEOE_VSA_NEG>
178.65167

>  <PEOE_VSA_PNEG>
10.271297

>  <PEOE_VSA_POL>
20.595469

>  <PEOE_VSA_POS>
153.14595

>  <PEOE_VSA_PPOS>
10.324173

>  <petitjean>
0.5

>  <petitjeanSC>
1

>  <Q_PC+>
0

>  <Q_PC->
0

>  <Q_RPC+>
0

>  <Q_RPC->
0

>  <Q_VSA_FHYD>
1

>  <Q_VSA_FNEG>
0

>  <Q_VSA_FPNEG>
0

>  <Q_VSA_FPOL>
0

>  <Q_VSA_FPOS>
1

>  <Q_VSA_FPPOS>
0

>  <Q_VSA_HYD>
331.79761

>  <Q_VSA_NEG>
0

>  <Q_VSA_PNEG>
0

>  <Q_VSA_POL>
0

>  <Q_VSA_POS>
331.79761

>  <Q_VSA_PPOS>
0

>  <radius>
6

>  <reactive>
0

>  <rings>
3

>  <RPC+>
0

>  <RPC->
0

>  <rsynth>
1

>  <SlogP>
5.7357702

>  <SlogP_VSA0>
36.385113

>  <SlogP_VSA1>
0

>  <SlogP_VSA2>
0

>  <SlogP_VSA3>
0

>  <SlogP_VSA4>
10.781946

>  <SlogP_VSA5>
22.05398

>  <SlogP_VSA6>
4.4107962

>  <SlogP_VSA7>
52.929554

>  <SlogP_VSA8>
94.342026

>  <SlogP_VSA9>
143.79091

>  <SMR>
9.5264797

>  <SMR_VSA0>
0

>  <SMR_VSA1>
36.385113

>  <SMR_VSA2>
4.4107962

>  <SMR_VSA3>
24.454376

>  <SMR_VSA4>
0

>  <SMR_VSA5>
166.13998

>  <SMR_VSA6>
0

>  <SMR_VSA7>
133.30406

>  <TPSA>
29.459999

>  <VAdjEq>
0.45137304

>  <VAdjMa>
5.643856

>  <VDistEq>
3.2541862

>  <VDistMa>
8.7517214

>  <vdw_area>
331.79761

>  <vdw_vol>
480.79736

>  <vsa_acc>
2.503756

>  <vsa_acid>
0

>  <vsa_base>
0

>  <vsa_don>
0

>  <vsa_hyd>
287.87

>  <vsa_other>
0

>  <vsa_pol>
16.070677

>  <Weight>
314.46899

>  <weinerPath>
1150

>  <weinerPol>
40

>  <zagreb>
124

$$$$