S1/C(=CC(=Cc2ccccc2)C)/C(=O)N(CC(O)=O)C1=S
  MOE2013           2D

 21 22  0  0  0  0  0  0  0  0999 V2000
    0.0000    0.0000    0.0000 S   0  0  0  0  0  0  0  0  0  0  0  0
   -0.1500    1.4930    0.0000 C   0  0  0  0  0  0  0  0  0  0  0  0
   -1.4450    2.2490    0.0000 C   0  0  0  0  0  0  0  0  0  0  0  0
   -2.7480    1.5050    0.0000 C   0  0  0  0  0  0  0  0  0  0  0  0
   -4.0430    2.2610    0.0000 C   0  0  0  0  0  0  0  0  0  0  0  0
   -5.3460    1.5170    0.0000 C   0  0  0  0  0  0  0  0  0  0  0  0
   -5.3530    0.0170    0.0000 C   0  0  0  0  0  0  0  0  0  0  0  0
   -6.6560   -0.7260    0.0000 C   0  0  0  0  0  0  0  0  0  0  0  0
   -7.9510    0.0300    0.0000 C   0  0  0  0  0  0  0  0  0  0  0  0
   -7.9440    1.5300    0.0000 C   0  0  0  0  0  0  0  0  0  0  0  0
   -6.6410    2.2740    0.0000 C   0  0  0  0  0  0  0  0  0  0  0  0
   -2.7550    0.0050    0.0000 C   0  0  0  0  0  0  0  0  0  0  0  0
    1.2240    2.0960    0.0000 C   0  0  0  0  0  0  0  0  0  0  0  0
    1.5430    3.5620    0.0000 O   0  0  0  0  0  0  0  0  0  0  0  0
    2.2220    0.9770    0.0000 N   0  0  0  0  0  0  0  0  0  0  0  0
    3.7140    1.1260    0.0000 C   0  0  0  0  0  0  0  0  0  0  0  0
    4.5900   -0.0920    0.0000 C   0  0  0  0  0  0  0  0  0  0  0  0
    6.0830    0.0580    0.0000 O   0  0  0  0  0  0  0  0  0  0  0  0
    3.9740   -1.4590    0.0000 O   0  0  0  0  0  0  0  0  0  0  0  0
    1.4660   -0.3190    0.0000 C   0  0  0  0  0  0  0  0  0  0  0  0
    2.0690   -1.6920    0.0000 S   0  0  0  0  0  0  0  0  0  0  0  0
  1  2  1  0  0  0  0
  1 20  1  0  0  0  0
  2  3  2  3  0  0  0
  2 13  1  0  0  0  0
  3  4  1  0  0  0  0
  4  5  2  3  0  0  0
  4 12  1  0  0  0  0
  5  6  1  0  0  0  0
  6  7  1  0  0  0  0
  6 11  2  0  0  0  0
  7  8  2  0  0  0  0
  8  9  1  0  0  0  0
  9 10  2  0  0  0  0
 10 11  1  0  0  0  0
 13 14  2  0  0  0  0
 13 15  1  0  0  0  0
 15 16  1  0  0  0  0
 15 20  1  0  0  0  0
 16 17  1  0  0  0  0
 17 18  1  0  0  0  0
 17 19  2  0  0  0  0
 20 21  2  0  0  0  0
M  END
>  <Index>
376

>  <ID>
HT0766

>  <class>
0

>  <apol>
44.37431

>  <ast_fraglike>
0

>  <ast_fraglike_ext>
0

>  <ast_violation>
2

>  <ast_violation_ext>
4

>  <a_acc>
4

>  <a_acid>
0

>  <a_aro>
6

>  <a_base>
0

>  <a_count>
34

>  <a_don>
2

>  <a_donacc>
6

>  <a_heavy>
21

>  <a_hyd>
13

>  <a_IC>
59.509773

>  <a_ICM>
1.7502874

>  <a_nB>
0

>  <a_nBr>
0

>  <a_nC>
15

>  <a_nCl>
0

>  <a_nF>
0

>  <a_nH>
13

>  <a_nI>
0

>  <a_nN>
1

>  <a_nO>
3

>  <a_nP>
0

>  <a_nS>
2

>  <balabanJ>
1.7956698

>  <BCUT_PEOE_0>
-2.3282771

>  <BCUT_PEOE_1>
-0.52004361

>  <BCUT_PEOE_2>
0.57823217

>  <BCUT_PEOE_3>
2.4447865

>  <BCUT_SLOGP_0>
-2.5304518

>  <BCUT_SLOGP_1>
-0.49597919

>  <BCUT_SLOGP_2>
0.7667473

>  <BCUT_SLOGP_3>
2.4556987

>  <BCUT_SMR_0>
-2.0485532

>  <BCUT_SMR_1>
-0.38633919

>  <BCUT_SMR_2>
0.85431087

>  <BCUT_SMR_3>
2.7950277

>  <bpol>
21.527691

>  <b_1rotN>
4

>  <b_1rotR>
0.18181819

>  <b_ar>
6

>  <b_count>
35

>  <b_double>
5

>  <b_heavy>
22

>  <b_max1len>
2

>  <b_rotN>
4

>  <b_rotR>
0.18181819

>  <b_single>
24

>  <b_triple>
0

>  <chi0>
15.405413

>  <chi0v>
12.908972

>  <chi0v_C>
8.748559

>  <chi0_C>
10.120955

>  <chi1>
9.9692345

>  <chi1v>
7.4013515

>  <chi1v_C>
4.1689377

>  <chi1_C>
5.7684216

>  <chiral>
0

>  <chiral_u>
0

>  <density>
0.82161593

>  <diameter>
12

>  <FCharge>
0

>  <GCUT_PEOE_0>
-0.81147403

>  <GCUT_PEOE_1>
-0.42375034

>  <GCUT_PEOE_2>
0.079686657

>  <GCUT_PEOE_3>
2.3440974

>  <GCUT_SLOGP_0>
-0.97799742

>  <GCUT_SLOGP_1>
-0.29573742

>  <GCUT_SLOGP_2>
0.16445385

>  <GCUT_SLOGP_3>
2.4574928

>  <GCUT_SMR_0>
-0.47660178

>  <GCUT_SMR_1>
-0.20348328

>  <GCUT_SMR_2>
0.22561865

>  <GCUT_SMR_3>
2.6805093

>  <Kier1>
17.355371

>  <Kier2>
8.0222225

>  <Kier3>
5

>  <KierA1>
14.121305

>  <KierA2>
6.4554386

>  <KierA3>
3.9893515

>  <KierFlex>
4.3409152

>  <lip_acc>
4

>  <lip_don>
1

>  <lip_druglike>
1

>  <lip_violation>
0

>  <logP(o/w)>
2.7590001

>  <logS>
-5.38346

>  <mr>
8.6796207

>  <mutagenic>
0

>  <nmol>
1

>  <opr_brigid>
13

>  <opr_leadlike>
1

>  <opr_nring>
2

>  <opr_nrot>
4

>  <opr_violation>
0

>  <PC+>
0

>  <PC->
0

>  <PEOE_PC+>
1.738729

>  <PEOE_PC->
-1.738729

>  <PEOE_RPC+>
0.16081499

>  <PEOE_RPC->
0.18974994

>  <PEOE_VSA+0>
23.447832

>  <PEOE_VSA+1>
42.573074

>  <PEOE_VSA+2>
44.576836

>  <PEOE_VSA+3>
0

>  <PEOE_VSA+4>
10.324173

>  <PEOE_VSA+5>
27.65803

>  <PEOE_VSA+6>
0

>  <PEOE_VSA-0>
35.419662

>  <PEOE_VSA-1>
93.290039

>  <PEOE_VSA-2>
0

>  <PEOE_VSA-3>
0

>  <PEOE_VSA-4>
0

>  <PEOE_VSA-5>
27.133842

>  <PEOE_VSA-6>
7.7675405

>  <PEOE_VSA_FHYD>
0.76654172

>  <PEOE_VSA_FNEG>
0.5240736

>  <PEOE_VSA_FPNEG>
0.11179496

>  <PEOE_VSA_FPOL>
0.2334583

>  <PEOE_VSA_FPOS>
0.47592637

>  <PEOE_VSA_FPPOS>
0.12166334

>  <PEOE_VSA_HYD>
239.30745

>  <PEOE_VSA_NEG>
163.61108

>  <PEOE_VSA_PNEG>
34.901382

>  <PEOE_VSA_POL>
72.883583

>  <PEOE_VSA_POS>
148.57994

>  <PEOE_VSA_PPOS>
37.982204

>  <petitjean>
0.5

>  <petitjeanSC>
1

>  <Q_PC+>
0

>  <Q_PC->
0

>  <Q_RPC+>
0

>  <Q_RPC->
0

>  <Q_VSA_FHYD>
1

>  <Q_VSA_FNEG>
0

>  <Q_VSA_FPNEG>
0

>  <Q_VSA_FPOL>
0

>  <Q_VSA_FPOS>
1

>  <Q_VSA_FPPOS>
0

>  <Q_VSA_HYD>
312.19104

>  <Q_VSA_NEG>
0

>  <Q_VSA_PNEG>
0

>  <Q_VSA_POL>
0

>  <Q_VSA_POS>
312.19104

>  <Q_VSA_PPOS>
0

>  <radius>
6

>  <reactive>
1

>  <rings>
2

>  <RPC+>
0

>  <RPC->
0

>  <rsynth>
1

>  <SlogP>
2.9187

>  <SlogP_VSA0>
0

>  <SlogP_VSA1>
16.128561

>  <SlogP_VSA2>
47.724434

>  <SlogP_VSA3>
43.824806

>  <SlogP_VSA4>
3.185575

>  <SlogP_VSA5>
4.7363091

>  <SlogP_VSA6>
0

>  <SlogP_VSA7>
105.85911

>  <SlogP_VSA8>
17.643185

>  <SlogP_VSA9>
110.73759

>  <SMR>
8.7715797

>  <SMR_VSA0>
47.724434

>  <SMR_VSA1>
3.1243138

>  <SMR_VSA2>
25.385227

>  <SMR_VSA3>
7.9218841

>  <SMR_VSA4>
0

>  <SMR_VSA5>
105.85911

>  <SMR_VSA6>
49.087009

>  <SMR_VSA7>
110.73759

>  <TPSA>
89.699997

>  <VAdjEq>
0.46827638

>  <VAdjMa>
5.4594316

>  <VDistEq>
3.3616798

>  <VDistMa>
8.4687119

>  <vdw_area>
312.19104

>  <vdw_vol>
388.7522

>  <vsa_acc>
44.951431

>  <vsa_acid>
0

>  <vsa_base>
0

>  <vsa_don>
0

>  <vsa_hyd>
188.72972

>  <vsa_other>
38.309704

>  <vsa_pol>
72.085274

>  <Weight>
319.405

>  <weinerPath>
1021

>  <weinerPol>
28

>  <zagreb>
104

$$$$