OC1CC(=C/C=C2/C3CCC(C(C=CC(C(C)C)C)C)C3(CCC/2)C)C(CC1)C
  MOE2013           2D

 29 31  0  0  1  0  0  0  0  0999 V2000
    0.0000    0.0000    0.0000 O   0  0  0  0  0  0  0  0  0  0  0  0
   -0.7530   -1.2970    0.0000 C   0  0  3  0  0  0  0  0  0  0  0  0
   -0.0060   -2.5980    0.0000 C   0  0  0  0  0  0  0  0  0  0  0  0
   -0.7590   -3.8950    0.0000 C   0  0  0  0  0  0  0  0  0  0  0  0
   -0.0120   -5.1960    0.0000 C   0  0  0  0  0  0  0  0  0  0  0  0
    1.4880   -5.2000    0.0000 C   0  0  0  0  0  0  0  0  0  0  0  0
    2.2350   -6.5000    0.0000 C   0  0  0  0  0  0  0  0  0  0  0  0
    3.7350   -6.5040    0.0000 C   0  0  3  0  0  0  0  0  0  0  0  0
    4.7410   -5.3920    0.0000 C   0  0  0  0  0  0  0  0  0  0  0  0
    6.1100   -6.0050    0.0000 C   0  0  0  0  0  0  0  0  0  0  0  0
    5.9500   -7.4960    0.0000 C   0  0  3  0  0  0  0  0  0  0  0  0
    7.0620   -8.5030    0.0000 C   0  0  3  0  0  0  0  0  0  0  0  0
    8.4900   -8.0420    0.0000 C   0  0  0  0  0  0  0  0  0  0  0  0
    9.6020   -9.0490    0.0000 C   0  0  0  0  0  0  0  0  0  0  0  0
   11.0300   -8.5890    0.0000 C   0  0  3  0  0  0  0  0  0  0  0  0
   12.1420   -9.5950    0.0000 C   0  0  0  0  0  0  0  0  0  0  0  0
   13.5700   -9.1350    0.0000 C   0  0  0  0  0  0  0  0  0  0  0  0
   11.8270  -11.0610    0.0000 C   0  0  0  0  0  0  0  0  0  0  0  0
   11.3450   -7.1220    0.0000 C   0  0  0  0  0  0  0  0  0  0  0  0
    6.7470   -9.9690    0.0000 C   0  0  0  0  0  0  0  0  0  0  0  0
    4.4820   -7.8050    0.0000 C   0  0  3  0  0  0  0  0  0  0  0  0
    3.7290   -9.1020    0.0000 C   0  0  0  0  0  0  0  0  0  0  0  0
    2.2290   -9.0990    0.0000 C   0  0  0  0  0  0  0  0  0  0  0  0
    1.4820   -7.7980    0.0000 C   0  0  0  0  0  0  0  0  0  0  0  0
    5.3610   -9.0200    0.0000 C   0  0  0  0  0  0  0  0  0  0  0  0
   -2.2590   -3.8920    0.0000 C   0  0  3  0  0  0  0  0  0  0  0  0
   -3.0060   -2.5910    0.0000 C   0  0  0  0  0  0  0  0  0  0  0  0
   -2.2530   -1.2940    0.0000 C   0  0  0  0  0  0  0  0  0  0  0  0
   -3.0120   -5.1890    0.0000 C   0  0  0  0  0  0  0  0  0  0  0  0
  1  2  1  0  0  0  0
  2  3  1  0  0  0  0
  2 28  1  0  0  0  0
  3  4  1  0  0  0  0
  4  5  2  3  0  0  0
  4 26  1  0  0  0  0
  5  6  1  0  0  0  0
  6  7  2  0  0  0  0
  7  8  1  0  0  0  0
  7 24  1  0  0  0  0
  8  9  1  0  0  0  0
  8 21  1  0  0  0  0
  9 10  1  0  0  0  0
 10 11  1  0  0  0  0
 11 12  1  0  0  0  0
 11 21  1  0  0  0  0
 12 13  1  0  0  0  0
 12 20  1  0  0  0  0
 13 14  2  3  0  0  0
 14 15  1  0  0  0  0
 15 16  1  0  0  0  0
 15 19  1  0  0  0  0
 16 17  1  0  0  0  0
 16 18  1  0  0  0  0
 21 22  1  0  0  0  0
 21 25  1  0  0  0  0
 22 23  1  0  0  0  0
 23 24  1  0  0  0  0
 26 27  1  0  0  0  0
 26 29  1  0  0  0  0
 27 28  1  0  0  0  0
M  END
>  <Index>
327

>  <ID>
HT0670

>  <class>
0

>  <apol>
80.754478

>  <ast_fraglike>
0

>  <ast_fraglike_ext>
0

>  <ast_violation>
2

>  <ast_violation_ext>
3

>  <a_acc>
1

>  <a_acid>
0

>  <a_aro>
0

>  <a_base>
0

>  <a_count>
75

>  <a_don>
1

>  <a_donacc>
2

>  <a_heavy>
29

>  <a_hyd>
28

>  <a_IC>
78.471611

>  <a_ICM>
1.0462881

>  <a_nB>
0

>  <a_nBr>
0

>  <a_nC>
28

>  <a_nCl>
0

>  <a_nF>
0

>  <a_nH>
46

>  <a_nI>
0

>  <a_nN>
0

>  <a_nO>
1

>  <a_nP>
0

>  <a_nS>
0

>  <balabanJ>
1.5616933

>  <BCUT_PEOE_0>
-2.8235493

>  <BCUT_PEOE_1>
-0.44821665

>  <BCUT_PEOE_2>
0.5008356

>  <BCUT_PEOE_3>
2.888988

>  <BCUT_SLOGP_0>
-2.7217119

>  <BCUT_SLOGP_1>
-0.36765125

>  <BCUT_SLOGP_2>
0.50937241

>  <BCUT_SLOGP_3>
2.9956472

>  <BCUT_SMR_0>
-2.5629389

>  <BCUT_SMR_1>
-0.34224081

>  <BCUT_SMR_2>
0.61384529

>  <BCUT_SMR_3>
3.1511648

>  <bpol>
50.287521

>  <b_1rotN>
5

>  <b_1rotR>
0.16129032

>  <b_ar>
0

>  <b_count>
77

>  <b_double>
3

>  <b_heavy>
31

>  <b_max1len>
5

>  <b_rotN>
5

>  <b_rotR>
0.16129032

>  <b_single>
74

>  <b_triple>
0

>  <chi0>
21.181435

>  <chi0v>
19.954922

>  <chi0v_C>
19.507708

>  <chi0_C>
20.181435

>  <chi1>
13.719069

>  <chi1v>
12.478903

>  <chi1v_C>
12.220704

>  <chi1_C>
13.14172

>  <chiral>
7

>  <chiral_u>
7

>  <density>
0.6161502

>  <diameter>
15

>  <FCharge>
0

>  <GCUT_PEOE_0>
-0.80483013

>  <GCUT_PEOE_1>
-0.32095617

>  <GCUT_PEOE_2>
0.025597228

>  <GCUT_PEOE_3>
3.2142656

>  <GCUT_SLOGP_0>
-0.87557125

>  <GCUT_SLOGP_1>
-0.23517622

>  <GCUT_SLOGP_2>
0.029453347

>  <GCUT_SLOGP_3>
3.331182

>  <GCUT_SMR_0>
-0.54114062

>  <GCUT_SMR_1>
-0.18422143

>  <GCUT_SMR_2>
0.12038947

>  <GCUT_SMR_3>
3.4519007

>  <Kier1>
23.658689

>  <Kier2>
10.08

>  <Kier3>
5.4375181

>  <KierA1>
21.757544

>  <KierA2>
9.2412024

>  <KierA3>
4.973639

>  <KierFlex>
6.9333053

>  <lip_acc>
1

>  <lip_don>
1

>  <lip_druglike>
1

>  <lip_violation>
1

>  <logP(o/w)>
6.862

>  <logS>
-10.33425

>  <mr>
12.405832

>  <mutagenic>
0

>  <nmol>
1

>  <opr_brigid>
19

>  <opr_leadlike>
1

>  <opr_nring>
3

>  <opr_nrot>
8

>  <opr_violation>
1

>  <PC+>
0

>  <PC->
0

>  <PEOE_PC+>
1.6447027

>  <PEOE_PC->
-1.6447027

>  <PEOE_RPC+>
0.12755439

>  <PEOE_RPC->
0.23802112

>  <PEOE_VSA+0>
170.61543

>  <PEOE_VSA+1>
26.231859

>  <PEOE_VSA+2>
0

>  <PEOE_VSA+3>
0

>  <PEOE_VSA+4>
10.324173

>  <PEOE_VSA+5>
0

>  <PEOE_VSA+6>
0

>  <PEOE_VSA-0>
69.610504

>  <PEOE_VSA-1>
165.92276

>  <PEOE_VSA-2>
0

>  <PEOE_VSA-3>
0

>  <PEOE_VSA-4>
0

>  <PEOE_VSA-5>
0

>  <PEOE_VSA-6>
7.7675405

>  <PEOE_VSA_FHYD>
0.95983833

>  <PEOE_VSA_FNEG>
0.54010165

>  <PEOE_VSA_FPNEG>
0.017243104

>  <PEOE_VSA_FPOL>
0.040161658

>  <PEOE_VSA_FPOS>
0.45989838

>  <PEOE_VSA_FPPOS>
0.022918552

>  <PEOE_VSA_HYD>
432.38055

>  <PEOE_VSA_NEG>
243.30081

>  <PEOE_VSA_PNEG>
7.7675405

>  <PEOE_VSA_POL>
18.091713

>  <PEOE_VSA_POS>
207.17148

>  <PEOE_VSA_PPOS>
10.324173

>  <petitjean>
0.46666667

>  <petitjeanSC>
0.875

>  <Q_PC+>
0

>  <Q_PC->
0

>  <Q_RPC+>
0

>  <Q_RPC->
0

>  <Q_VSA_FHYD>
1

>  <Q_VSA_FNEG>
0

>  <Q_VSA_FPNEG>
0

>  <Q_VSA_FPOL>
0

>  <Q_VSA_FPOS>
1

>  <Q_VSA_FPPOS>
0

>  <Q_VSA_HYD>
450.47229

>  <Q_VSA_NEG>
0

>  <Q_VSA_PNEG>
0

>  <Q_VSA_POL>
0

>  <Q_VSA_POS>
450.47229

>  <Q_VSA_PPOS>
0

>  <radius>
8

>  <reactive>
0

>  <rings>
3

>  <RPC+>
0

>  <RPC->
0

>  <rsynth>
0

>  <SlogP>
7.7209001

>  <SlogP_VSA0>
25.385227

>  <SlogP_VSA1>
0

>  <SlogP_VSA2>
6.4686494

>  <SlogP_VSA3>
0

>  <SlogP_VSA4>
26.464777

>  <SlogP_VSA5>
6.37115

>  <SlogP_VSA6>
0

>  <SlogP_VSA7>
70.572739

>  <SlogP_VSA8>
150.94725

>  <SlogP_VSA9>
199.95609

>  <SMR>
12.56658

>  <SMR_VSA0>
0

>  <SMR_VSA1>
25.385227

>  <SMR_VSA2>
26.464777

>  <SMR_VSA3>
12.839799

>  <SMR_VSA4>
0

>  <SMR_VSA5>
221.51997

>  <SMR_VSA6>
0

>  <SMR_VSA7>
199.95609

>  <TPSA>
20.23

>  <VAdjEq>
0.3796615

>  <VAdjMa>
5.9541965

>  <VDistEq>
3.6842165

>  <VDistMa>
9.407382

>  <vdw_area>
450.47229

>  <vdw_vol>
647.04193

>  <vsa_acc>
0

>  <vsa_acid>
0

>  <vsa_base>
0

>  <vsa_don>
0

>  <vsa_hyd>
392.27948

>  <vsa_other>
0

>  <vsa_pol>
13.566921

>  <Weight>
398.67499

>  <weinerPath>
2428

>  <weinerPol>
48

>  <zagreb>
152

$$$$