O(CCCC)c1ccc(cc1)C(=O)CCN1CCCCC1
  MOE2013           2D

 21 22  0  0  0  0  0  0  0  0999 V2000
    0.0000    0.0000    0.0000 O   0  0  0  0  0  0  0  0  0  0  0  0
    1.2990    0.7500    0.0000 C   0  0  0  0  0  0  0  0  0  0  0  0
    2.5980    0.0000    0.0000 C   0  0  0  0  0  0  0  0  0  0  0  0
    3.8970    0.7510    0.0000 C   0  0  0  0  0  0  0  0  0  0  0  0
    5.1960    0.0010    0.0000 C   0  0  0  0  0  0  0  0  0  0  0  0
   -1.2990    0.7500    0.0000 C   0  0  0  0  0  0  0  0  0  0  0  0
   -1.2990    2.2500    0.0000 C   0  0  0  0  0  0  0  0  0  0  0  0
   -2.5990    3.0000    0.0000 C   0  0  0  0  0  0  0  0  0  0  0  0
   -3.8980    2.2490    0.0000 C   0  0  0  0  0  0  0  0  0  0  0  0
   -3.8970    0.7490    0.0000 C   0  0  0  0  0  0  0  0  0  0  0  0
   -2.5980    0.0000    0.0000 C   0  0  0  0  0  0  0  0  0  0  0  0
   -5.1970    2.9990    0.0000 C   0  0  0  0  0  0  0  0  0  0  0  0
   -5.1970    4.4990    0.0000 O   0  0  0  0  0  0  0  0  0  0  0  0
   -6.4960    2.2490    0.0000 C   0  0  0  0  0  0  0  0  0  0  0  0
   -7.7950    2.9990    0.0000 C   0  0  0  0  0  0  0  0  0  0  0  0
   -9.0940    2.2480    0.0000 N   0  0  0  0  0  0  0  0  0  0  0  0
  -10.3930    2.9980    0.0000 C   0  0  0  0  0  0  0  0  0  0  0  0
  -11.6920    2.2480    0.0000 C   0  0  0  0  0  0  0  0  0  0  0  0
  -11.6910    0.7480    0.0000 C   0  0  0  0  0  0  0  0  0  0  0  0
  -10.3920   -0.0020    0.0000 C   0  0  0  0  0  0  0  0  0  0  0  0
   -9.0930    0.7480    0.0000 C   0  0  0  0  0  0  0  0  0  0  0  0
  1  2  1  0  0  0  0
  1  6  1  0  0  0  0
  2  3  1  0  0  0  0
  3  4  1  0  0  0  0
  4  5  1  0  0  0  0
  6  7  1  0  0  0  0
  6 11  2  0  0  0  0
  7  8  2  0  0  0  0
  8  9  1  0  0  0  0
  9 10  2  0  0  0  0
  9 12  1  0  0  0  0
 10 11  1  0  0  0  0
 12 13  2  0  0  0  0
 12 14  1  0  0  0  0
 14 15  1  0  0  0  0
 15 16  1  0  0  0  0
 16 17  1  0  0  0  0
 16 21  1  0  0  0  0
 17 18  1  0  0  0  0
 18 19  1  0  0  0  0
 19 20  1  0  0  0  0
 20 21  1  0  0  0  0
M  END
>  <Index>
359

>  <ID>
HT0734

>  <class>
0

>  <apol>
52.387409

>  <ast_fraglike>
0

>  <ast_fraglike_ext>
0

>  <ast_violation>
1

>  <ast_violation_ext>
2

>  <a_acc>
3

>  <a_acid>
0

>  <a_aro>
6

>  <a_base>
0

>  <a_count>
48

>  <a_don>
0

>  <a_donacc>
3

>  <a_heavy>
21

>  <a_hyd>
17

>  <a_IC>
62.637589

>  <a_ICM>
1.3049498

>  <a_nB>
0

>  <a_nBr>
0

>  <a_nC>
18

>  <a_nCl>
0

>  <a_nF>
0

>  <a_nH>
27

>  <a_nI>
0

>  <a_nN>
1

>  <a_nO>
2

>  <a_nP>
0

>  <a_nS>
0

>  <balabanJ>
1.5776426

>  <BCUT_PEOE_0>
-2.7816551

>  <BCUT_PEOE_1>
-0.54848897

>  <BCUT_PEOE_2>
0.5128125

>  <BCUT_PEOE_3>
2.6940036

>  <BCUT_SLOGP_0>
-2.7910297

>  <BCUT_SLOGP_1>
-0.47327551

>  <BCUT_SLOGP_2>
0.60885054

>  <BCUT_SLOGP_3>
2.7425756

>  <BCUT_SMR_0>
-2.5100296

>  <BCUT_SMR_1>
-0.35966182

>  <BCUT_SMR_2>
0.69896227

>  <BCUT_SMR_3>
2.9605243

>  <bpol>
34.37059

>  <b_1rotN>
8

>  <b_1rotR>
0.36363637

>  <b_ar>
6

>  <b_count>
49

>  <b_double>
1

>  <b_heavy>
22

>  <b_max1len>
5

>  <b_rotN>
8

>  <b_rotR>
0.36363637

>  <b_single>
42

>  <b_triple>
0

>  <chi0>
14.916003

>  <chi0v>
13.144179

>  <chi0v_C>
11.880469

>  <chi0_C>
12.631546

>  <chi1>
10.292025

>  <chi1v>
8.2776337

>  <chi1v_C>
6.6320271

>  <chi1_C>
7.5816817

>  <chiral>
0

>  <chiral_u>
0

>  <density>
0.6609745

>  <diameter>
15

>  <FCharge>
0

>  <GCUT_PEOE_0>
-0.85595232

>  <GCUT_PEOE_1>
-0.38549122

>  <GCUT_PEOE_2>
-0.012462813

>  <GCUT_PEOE_3>
2.6207485

>  <GCUT_SLOGP_0>
-0.9521386

>  <GCUT_SLOGP_1>
-0.28872341

>  <GCUT_SLOGP_2>
0.12527135

>  <GCUT_SLOGP_3>
2.6799686

>  <GCUT_SMR_0>
-0.52831972

>  <GCUT_SMR_1>
-0.19658813

>  <GCUT_SMR_2>
0.13471706

>  <GCUT_SMR_3>
2.8661599

>  <Kier1>
17.355371

>  <Kier2>
9.9039783

>  <Kier3>
6.328125

>  <KierA1>
14.732832

>  <KierA2>
8.3343096

>  <KierA3>
5.2895885

>  <KierFlex>
5.8470469

>  <lip_acc>
3

>  <lip_don>
0

>  <lip_druglike>
1

>  <lip_violation>
0

>  <logP(o/w)>
3.925

>  <logS>
-3.31833

>  <mr>
8.7310791

>  <mutagenic>
0

>  <nmol>
1

>  <opr_brigid>
12

>  <opr_leadlike>
1

>  <opr_nring>
2

>  <opr_nrot>
10

>  <opr_violation>
0

>  <PC+>
0

>  <PC->
0

>  <PEOE_PC+>
1.3798079

>  <PEOE_PC->
-1.3798079

>  <PEOE_RPC+>
0.11912952

>  <PEOE_RPC->
0.24981213

>  <PEOE_VSA+0>
113.67529

>  <PEOE_VSA+1>
49.002129

>  <PEOE_VSA+2>
0

>  <PEOE_VSA+3>
8.458519

>  <PEOE_VSA+4>
0

>  <PEOE_VSA+5>
0

>  <PEOE_VSA+6>
0

>  <PEOE_VSA-0>
101.5082

>  <PEOE_VSA-1>
36.150303

>  <PEOE_VSA-2>
0

>  <PEOE_VSA-3>
0

>  <PEOE_VSA-4>
0

>  <PEOE_VSA-5>
13.566921

>  <PEOE_VSA-6>
2.503756

>  <PEOE_VSA_FHYD>
0.95053124

>  <PEOE_VSA_FNEG>
0.47320926

>  <PEOE_VSA_FPNEG>
0.049468767

>  <PEOE_VSA_FPOL>
0.049468767

>  <PEOE_VSA_FPOS>
0.52679074

>  <PEOE_VSA_FPPOS>
0

>  <PEOE_VSA_HYD>
308.79443

>  <PEOE_VSA_NEG>
153.72919

>  <PEOE_VSA_PNEG>
16.070677

>  <PEOE_VSA_POL>
16.070677

>  <PEOE_VSA_POS>
171.13593

>  <PEOE_VSA_PPOS>
0

>  <petitjean>
0.46666667

>  <petitjeanSC>
0.875

>  <Q_PC+>
0

>  <Q_PC->
0

>  <Q_RPC+>
0

>  <Q_RPC->
0

>  <Q_VSA_FHYD>
1

>  <Q_VSA_FNEG>
0

>  <Q_VSA_FPNEG>
0

>  <Q_VSA_FPOL>
0

>  <Q_VSA_FPOS>
1

>  <Q_VSA_FPPOS>
0

>  <Q_VSA_HYD>
324.86511

>  <Q_VSA_NEG>
0

>  <Q_VSA_PNEG>
0

>  <Q_VSA_POL>
0

>  <Q_VSA_POS>
324.86511

>  <Q_VSA_PPOS>
0

>  <radius>
8

>  <reactive>
1

>  <rings>
2

>  <RPC+>
0

>  <RPC->
0

>  <rsynth>
1

>  <SlogP>
3.9242001

>  <SlogP_VSA0>
10.999887

>  <SlogP_VSA1>
8.8119249

>  <SlogP_VSA2>
0

>  <SlogP_VSA3>
76.244995

>  <SlogP_VSA4>
27.047791

>  <SlogP_VSA5>
0

>  <SlogP_VSA6>
0

>  <SlogP_VSA7>
70.572739

>  <SlogP_VSA8>
113.21043

>  <SlogP_VSA9>
38.569443

>  <SMR>
8.6083498

>  <SMR_VSA0>
23.862217

>  <SMR_VSA1>
14.124202

>  <SMR_VSA2>
0

>  <SMR_VSA3>
8.4290028

>  <SMR_VSA4>
0

>  <SMR_VSA5>
183.78317

>  <SMR_VSA6>
81.932602

>  <SMR_VSA7>
33.326015

>  <TPSA>
29.540001

>  <VAdjEq>
0.46827638

>  <VAdjMa>
5.4594316

>  <VDistEq>
3.61764

>  <VDistMa>
8.4291878

>  <vdw_area>
324.86511

>  <vdw_vol>
437.8671

>  <vsa_acc>
16.070677

>  <vsa_acid>
0

>  <vsa_base>
0

>  <vsa_don>
0

>  <vsa_hyd>
281.11746

>  <vsa_other>
8.458519

>  <vsa_pol>
16.070677

>  <Weight>
289.41901

>  <weinerPath>
1156

>  <weinerPol>
26

>  <zagreb>
98

$$$$