OC(=O)CCCCCCCC=C/CCCCCCCC
  MOE2013           2D

 20 19  0  0  0  0  0  0  0  0999 V2000
    0.0000    0.0000    0.0000 O   0  0  0  0  0  0  0  0  0  0  0  0
    1.2990    0.7500    0.0000 C   0  0  0  0  0  0  0  0  0  0  0  0
    1.2990    2.2500    0.0000 O   0  0  0  0  0  0  0  0  0  0  0  0
    2.5980    0.0010    0.0000 C   0  0  0  0  0  0  0  0  0  0  0  0
    3.8970    0.7510    0.0000 C   0  0  0  0  0  0  0  0  0  0  0  0
    5.1960    0.0010    0.0000 C   0  0  0  0  0  0  0  0  0  0  0  0
    6.4950    0.7510    0.0000 C   0  0  0  0  0  0  0  0  0  0  0  0
    7.7940    0.0020    0.0000 C   0  0  0  0  0  0  0  0  0  0  0  0
    9.0930    0.7520    0.0000 C   0  0  0  0  0  0  0  0  0  0  0  0
   10.3920    0.0020    0.0000 C   0  0  0  0  0  0  0  0  0  0  0  0
   11.6910    0.7520    0.0000 C   0  0  0  0  0  0  0  0  0  0  0  0
   12.9900    0.0030    0.0000 C   0  0  0  0  0  0  0  0  0  0  0  0
   14.2890    0.7530    0.0000 C   0  0  0  0  0  0  0  0  0  0  0  0
   15.5880    0.0030    0.0000 C   0  0  0  0  0  0  0  0  0  0  0  0
   16.8870    0.7540    0.0000 C   0  0  0  0  0  0  0  0  0  0  0  0
   18.1870    0.0040    0.0000 C   0  0  0  0  0  0  0  0  0  0  0  0
   19.4850    0.7540    0.0000 C   0  0  0  0  0  0  0  0  0  0  0  0
   20.7850    0.0040    0.0000 C   0  0  0  0  0  0  0  0  0  0  0  0
   22.0830    0.7550    0.0000 C   0  0  0  0  0  0  0  0  0  0  0  0
   23.3830    0.0050    0.0000 C   0  0  0  0  0  0  0  0  0  0  0  0
  1  2  1  0  0  0  0
  2  3  2  0  0  0  0
  2  4  1  0  0  0  0
  4  5  1  0  0  0  0
  5  6  1  0  0  0  0
  6  7  1  0  0  0  0
  7  8  1  0  0  0  0
  8  9  1  0  0  0  0
  9 10  1  0  0  0  0
 10 11  1  0  0  0  0
 11 12  2  3  0  0  0
 12 13  1  0  0  0  0
 13 14  1  0  0  0  0
 14 15  1  0  0  0  0
 15 16  1  0  0  0  0
 16 17  1  0  0  0  0
 17 18  1  0  0  0  0
 18 19  1  0  0  0  0
 19 20  1  0  0  0  0
M  END
>  <Index>
397

>  <ID>
HT0805

>  <class>
0

>  <apol>
55.954964

>  <ast_fraglike>
0

>  <ast_fraglike_ext>
0

>  <ast_violation>
1

>  <ast_violation_ext>
2

>  <a_acc>
2

>  <a_acid>
0

>  <a_aro>
0

>  <a_base>
0

>  <a_count>
54

>  <a_don>
2

>  <a_donacc>
4

>  <a_heavy>
20

>  <a_hyd>
17

>  <a_IC>
60.731537

>  <a_ICM>
1.1246581

>  <a_nB>
0

>  <a_nBr>
0

>  <a_nC>
18

>  <a_nCl>
0

>  <a_nF>
0

>  <a_nH>
34

>  <a_nI>
0

>  <a_nN>
0

>  <a_nO>
2

>  <a_nP>
0

>  <a_nS>
0

>  <balabanJ>
2.9261687

>  <BCUT_PEOE_0>
-2.7009439

>  <BCUT_PEOE_1>
-0.53295308

>  <BCUT_PEOE_2>
0.50062066

>  <BCUT_PEOE_3>
2.6345921

>  <BCUT_SLOGP_0>
-2.529815

>  <BCUT_SLOGP_1>
-0.46283725

>  <BCUT_SLOGP_2>
0.5007109

>  <BCUT_SLOGP_3>
2.8053532

>  <BCUT_SMR_0>
-2.4465506

>  <BCUT_SMR_1>
-0.3462252

>  <BCUT_SMR_2>
0.63615292

>  <BCUT_SMR_3>
2.8895769

>  <bpol>
38.127037

>  <b_1rotN>
15

>  <b_1rotR>
0.78947371

>  <b_ar>
0

>  <b_count>
53

>  <b_double>
2

>  <b_heavy>
19

>  <b_max1len>
10

>  <b_rotN>
15

>  <b_rotR>
0.78947371

>  <b_single>
51

>  <b_triple>
0

>  <chi0>
14.891059

>  <chi0v>
13.409657

>  <chi0v_C>
12.554195

>  <chi0_C>
12.891059

>  <chi1>
9.7700558

>  <chi1v>
8.6382208

>  <chi1v_C>
8.2104902

>  <chi1_C>
8.6153555

>  <chiral>
0

>  <chiral_u>
0

>  <density>
0.61752355

>  <diameter>
18

>  <FCharge>
0

>  <GCUT_PEOE_0>
-0.80316085

>  <GCUT_PEOE_1>
-0.37527344

>  <GCUT_PEOE_2>
0.071948856

>  <GCUT_PEOE_3>
2.6188707

>  <GCUT_SLOGP_0>
-0.87253541

>  <GCUT_SLOGP_1>
-0.24591763

>  <GCUT_SLOGP_2>
0.076701708

>  <GCUT_SLOGP_3>
2.7681553

>  <GCUT_SMR_0>
-0.53378153

>  <GCUT_SMR_1>
-0.19942598

>  <GCUT_SMR_2>
0.18395396

>  <GCUT_SMR_3>
2.8425996

>  <Kier1>
20

>  <Kier2>
17.052631

>  <Kier3>
19.058823

>  <KierA1>
18.310951

>  <KierA2>
15.536267

>  <KierA3>
17.302025

>  <KierFlex>
14.224191

>  <lip_acc>
2

>  <lip_don>
1

>  <lip_druglike>
1

>  <lip_violation>
1

>  <logP(o/w)>
6.0780001

>  <logS>
-6.9863901

>  <mr>
8.8057852

>  <mutagenic>
0

>  <nmol>
1

>  <opr_brigid>
1

>  <opr_leadlike>
0

>  <opr_nring>
0

>  <opr_nrot>
15

>  <opr_violation>
2

>  <PC+>
0

>  <PC->
0

>  <PEOE_PC+>
1.4769187

>  <PEOE_PC->
-1.4769187

>  <PEOE_RPC+>
0.17576297

>  <PEOE_RPC->
0.22429632

>  <PEOE_VSA+0>
140.92828

>  <PEOE_VSA+1>
8.5307722

>  <PEOE_VSA+2>
0

>  <PEOE_VSA+3>
0

>  <PEOE_VSA+4>
10.324173

>  <PEOE_VSA+5>
14.708499

>  <PEOE_VSA+6>
0

>  <PEOE_VSA-0>
43.506565

>  <PEOE_VSA-1>
112.86799

>  <PEOE_VSA-2>
0

>  <PEOE_VSA-3>
0

>  <PEOE_VSA-4>
0

>  <PEOE_VSA-5>
13.566921

>  <PEOE_VSA-6>
7.7675405

>  <PEOE_VSA_FHYD>
0.86835027

>  <PEOE_VSA_FNEG>
0.50456744

>  <PEOE_VSA_FPNEG>
0.060574718

>  <PEOE_VSA_FPOL>
0.13164973

>  <PEOE_VSA_FPOS>
0.49543259

>  <PEOE_VSA_FPPOS>
0.071075015

>  <PEOE_VSA_HYD>
305.83362

>  <PEOE_VSA_NEG>
177.70901

>  <PEOE_VSA_PNEG>
21.334461

>  <PEOE_VSA_POL>
46.367134

>  <PEOE_VSA_POS>
174.49173

>  <PEOE_VSA_PPOS>
25.032671

>  <petitjean>
0.5

>  <petitjeanSC>
1

>  <Q_PC+>
0

>  <Q_PC->
0

>  <Q_RPC+>
0

>  <Q_RPC->
0

>  <Q_VSA_FHYD>
1

>  <Q_VSA_FNEG>
0

>  <Q_VSA_FPNEG>
0

>  <Q_VSA_FPOL>
0

>  <Q_VSA_FPOS>
1

>  <Q_VSA_FPPOS>
0

>  <Q_VSA_HYD>
352.20074

>  <Q_VSA_NEG>
0

>  <Q_VSA_PNEG>
0

>  <Q_VSA_POL>
0

>  <Q_VSA_POS>
352.20074

>  <Q_VSA_PPOS>
0

>  <radius>
9

>  <reactive>
0

>  <rings>
0

>  <RPC+>
0

>  <RPC->
0

>  <rsynth>
1

>  <SlogP>
6.1085

>  <SlogP_VSA0>
0

>  <SlogP_VSA1>
7.7454643

>  <SlogP_VSA2>
23.862217

>  <SlogP_VSA3>
25.385227

>  <SlogP_VSA4>
0

>  <SlogP_VSA5>
0

>  <SlogP_VSA6>
0

>  <SlogP_VSA7>
35.286369

>  <SlogP_VSA8>
264.15768

>  <SlogP_VSA9>
33.326015

>  <SMR>
8.7087803

>  <SMR_VSA0>
23.862217

>  <SMR_VSA1>
0

>  <SMR_VSA2>
25.385227

>  <SMR_VSA3>
0

>  <SMR_VSA4>
0

>  <SMR_VSA5>
299.44403

>  <SMR_VSA6>
7.7454643

>  <SMR_VSA7>
33.326015

>  <TPSA>
37.299999

>  <VAdjEq>
0.45294255

>  <VAdjMa>
5.2479277

>  <VDistEq>
3.9737091

>  <VDistMa>
8.2524881

>  <vdw_area>
352.20074

>  <vdw_vol>
457.42059

>  <vsa_acc>
0

>  <vsa_acid>
0

>  <vsa_base>
0

>  <vsa_don>
0

>  <vsa_hyd>
282.34436

>  <vsa_other>
14.708499

>  <vsa_pol>
27.133842

>  <Weight>
282.46799

>  <weinerPath>
1313

>  <weinerPol>
17

>  <zagreb>
76

$$$$