OCCN(CCO)c1nc(N2CCCCC2)c2nc(nc(N3CCCCC3)c2n1)N(CCO)CCO
  MOE2013           2D

 36 39  0  0  0  0  0  0  0  0999 V2000
    0.0000    0.0000    0.0000 O   0  0  0  0  0  0  0  0  0  0  0  0
   -0.7440   -1.3020    0.0000 C   0  0  0  0  0  0  0  0  0  0  0  0
   -2.2440   -1.3090    0.0000 C   0  0  0  0  0  0  0  0  0  0  0  0
   -2.9890   -2.6110    0.0000 N   0  0  0  0  0  0  0  0  0  0  0  0
   -2.2330   -3.9070    0.0000 C   0  0  0  0  0  0  0  0  0  0  0  0
   -0.7330   -3.9000    0.0000 C   0  0  0  0  0  0  0  0  0  0  0  0
    0.0220   -5.1960    0.0000 O   0  0  0  0  0  0  0  0  0  0  0  0
   -4.4890   -2.6170    0.0000 C   0  0  0  0  0  0  0  0  0  0  0  0
   -5.2330   -3.9200    0.0000 N   0  0  0  0  0  0  0  0  0  0  0  0
   -6.7330   -3.9260    0.0000 C   0  0  0  0  0  0  0  0  0  0  0  0
   -7.4780   -5.2280    0.0000 N   0  0  0  0  0  0  0  0  0  0  0  0
   -6.7220   -6.5240    0.0000 C   0  0  0  0  0  0  0  0  0  0  0  0
   -7.4660   -7.8260    0.0000 C   0  0  0  0  0  0  0  0  0  0  0  0
   -8.9660   -7.8330    0.0000 C   0  0  0  0  0  0  0  0  0  0  0  0
   -9.7220   -6.5370    0.0000 C   0  0  0  0  0  0  0  0  0  0  0  0
   -8.9780   -5.2350    0.0000 C   0  0  0  0  0  0  0  0  0  0  0  0
   -7.4890   -2.6300    0.0000 C   0  0  0  0  0  0  0  0  0  0  0  0
   -8.9890   -2.6370    0.0000 N   0  0  0  0  0  0  0  0  0  0  0  0
   -9.7440   -1.3410    0.0000 C   0  0  0  0  0  0  0  0  0  0  0  0
   -9.0000   -0.0390    0.0000 N   0  0  0  0  0  0  0  0  0  0  0  0
   -7.5000   -0.0320    0.0000 C   0  0  0  0  0  0  0  0  0  0  0  0
   -6.7560    1.2700    0.0000 N   0  0  0  0  0  0  0  0  0  0  0  0
   -5.2560    1.2760    0.0000 C   0  0  0  0  0  0  0  0  0  0  0  0
   -4.5110    2.5790    0.0000 C   0  0  0  0  0  0  0  0  0  0  0  0
   -5.2670    3.8740    0.0000 C   0  0  0  0  0  0  0  0  0  0  0  0
   -6.7670    3.8680    0.0000 C   0  0  0  0  0  0  0  0  0  0  0  0
   -7.5110    2.5660    0.0000 C   0  0  0  0  0  0  0  0  0  0  0  0
   -6.7440   -1.3280    0.0000 C   0  0  0  0  0  0  0  0  0  0  0  0
   -5.2440   -1.3220    0.0000 N   0  0  0  0  0  0  0  0  0  0  0  0
  -11.2440   -1.3470    0.0000 N   0  0  0  0  0  0  0  0  0  0  0  0
  -11.9890   -2.6500    0.0000 C   0  0  0  0  0  0  0  0  0  0  0  0
  -13.4890   -2.6560    0.0000 C   0  0  0  0  0  0  0  0  0  0  0  0
  -14.2330   -3.9580    0.0000 O   0  0  0  0  0  0  0  0  0  0  0  0
  -12.0000   -0.0520    0.0000 C   0  0  0  0  0  0  0  0  0  0  0  0
  -13.5000   -0.0580    0.0000 C   0  0  0  0  0  0  0  0  0  0  0  0
  -14.2550    1.2380    0.0000 O   0  0  0  0  0  0  0  0  0  0  0  0
  1  2  1  0  0  0  0
  2  3  1  0  0  0  0
  3  4  1  0  0  0  0
  4  5  1  0  0  0  0
  4  8  1  0  0  0  0
  5  6  1  0  0  0  0
  6  7  1  0  0  0  0
  8  9  1  0  0  0  0
  8 29  2  0  0  0  0
  9 10  2  0  0  0  0
 10 11  1  0  0  0  0
 10 17  1  0  0  0  0
 11 12  1  0  0  0  0
 11 16  1  0  0  0  0
 12 13  1  0  0  0  0
 13 14  1  0  0  0  0
 14 15  1  0  0  0  0
 15 16  1  0  0  0  0
 17 18  1  0  0  0  0
 17 28  2  0  0  0  0
 18 19  2  0  0  0  0
 19 20  1  0  0  0  0
 19 30  1  0  0  0  0
 20 21  2  0  0  0  0
 21 22  1  0  0  0  0
 21 28  1  0  0  0  0
 22 23  1  0  0  0  0
 22 27  1  0  0  0  0
 23 24  1  0  0  0  0
 24 25  1  0  0  0  0
 25 26  1  0  0  0  0
 26 27  1  0  0  0  0
 28 29  1  0  0  0  0
 30 31  1  0  0  0  0
 30 34  1  0  0  0  0
 31 32  1  0  0  0  0
 32 33  1  0  0  0  0
 34 35  1  0  0  0  0
 35 36  1  0  0  0  0
M  END
>  <Index>
336

>  <ID>
HT0693

>  <class>
0

>  <apol>
80.919724

>  <ast_fraglike>
0

>  <ast_fraglike_ext>
0

>  <ast_violation>
3

>  <ast_violation_ext>
5

>  <a_acc>
8

>  <a_acid>
0

>  <a_aro>
10

>  <a_base>
0

>  <a_count>
76

>  <a_don>
4

>  <a_donacc>
12

>  <a_heavy>
36

>  <a_hyd>
20

>  <a_IC>
119.92627

>  <a_ICM>
1.5779772

>  <a_nB>
0

>  <a_nBr>
0

>  <a_nC>
24

>  <a_nCl>
0

>  <a_nF>
0

>  <a_nH>
40

>  <a_nI>
0

>  <a_nN>
8

>  <a_nO>
4

>  <a_nP>
0

>  <a_nS>
0

>  <balabanJ>
1.6447829

>  <BCUT_PEOE_0>
-2.7415445

>  <BCUT_PEOE_1>
-0.71211189

>  <BCUT_PEOE_2>
0.76911181

>  <BCUT_PEOE_3>
2.6741292

>  <BCUT_SLOGP_0>
-2.7468333

>  <BCUT_SLOGP_1>
-0.71634483

>  <BCUT_SLOGP_2>
0.58252585

>  <BCUT_SLOGP_3>
2.7341735

>  <BCUT_SMR_0>
-2.4690738

>  <BCUT_SMR_1>
-0.56960458

>  <BCUT_SMR_2>
0.85582459

>  <BCUT_SMR_3>
2.9481721

>  <bpol>
56.92828

>  <b_1rotN>
12

>  <b_1rotR>
0.30769232

>  <b_ar>
11

>  <b_count>
79

>  <b_double>
0

>  <b_heavy>
39

>  <b_max1len>
8

>  <b_rotN>
12

>  <b_rotR>
0.30769232

>  <b_single>
68

>  <b_triple>
0

>  <chi0>
25.329851

>  <chi0v>
21.094484

>  <chi0v_C>
15.727922

>  <chi0_C>
16.192024

>  <chi1>
17.693733

>  <chi1v>
13.228015

>  <chi1v_C>
6.75

>  <chi1_C>
7

>  <chiral>
0

>  <chiral_u>
0

>  <density>
0.73969865

>  <diameter>
13

>  <FCharge>
0

>  <GCUT_PEOE_0>
-0.81953233

>  <GCUT_PEOE_1>
-0.41872731

>  <GCUT_PEOE_2>
0.16471931

>  <GCUT_PEOE_3>
3.0106184

>  <GCUT_SLOGP_0>
-0.99308884

>  <GCUT_SLOGP_1>
-0.42861959

>  <GCUT_SLOGP_2>
-0.0014731194

>  <GCUT_SLOGP_3>
3.0385282

>  <GCUT_SMR_0>
-0.52304476

>  <GCUT_SMR_1>
-0.24274038

>  <GCUT_SMR_2>
0.25105235

>  <GCUT_SMR_3>
3.2763433

>  <Kier1>
28.994083

>  <Kier2>
14.963017

>  <Kier3>
7.3587961

>  <KierA1>
24.037697

>  <KierA2>
12.335377

>  <KierA3>
6.0425811

>  <KierFlex>
8.2365017

>  <lip_acc>
12

>  <lip_don>
4

>  <lip_druglike>
0

>  <lip_violation>
2

>  <logP(o/w)>
-0.24141

>  <logS>
-3.2398601

>  <mr>
13.535554

>  <mutagenic>
0

>  <nmol>
1

>  <opr_brigid>
23

>  <opr_leadlike>
0

>  <opr_nring>
4

>  <opr_nrot>
16

>  <opr_violation>
3

>  <PC+>
0

>  <PC->
0

>  <PEOE_PC+>
3.6571543

>  <PEOE_PC->
-3.6571543

>  <PEOE_RPC+>
0.057271544

>  <PEOE_RPC->
0.10766113

>  <PEOE_VSA+0>
224.96941

>  <PEOE_VSA+1>
93.928261

>  <PEOE_VSA+2>
35.780228

>  <PEOE_VSA+3>
0

>  <PEOE_VSA+4>
72.659836

>  <PEOE_VSA+5>
0

>  <PEOE_VSA+6>
0

>  <PEOE_VSA-0>
34.805252

>  <PEOE_VSA-1>
17.402626

>  <PEOE_VSA-2>
0

>  <PEOE_VSA-3>
0

>  <PEOE_VSA-4>
22.730305

>  <PEOE_VSA-5>
0

>  <PEOE_VSA-6>
31.070162

>  <PEOE_VSA_FHYD>
0.7628926

>  <PEOE_VSA_FNEG>
0.1987609

>  <PEOE_VSA_FPNEG>
0.10087346

>  <PEOE_VSA_FPOL>
0.23710741

>  <PEOE_VSA_FPOS>
0.80123913

>  <PEOE_VSA_FPPOS>
0.13623394

>  <PEOE_VSA_HYD>
406.88577

>  <PEOE_VSA_NEG>
106.00835

>  <PEOE_VSA_PNEG>
53.800465

>  <PEOE_VSA_POL>
126.4603

>  <PEOE_VSA_POS>
427.33774

>  <PEOE_VSA_PPOS>
72.659836

>  <petitjean>
0.46153846

>  <petitjeanSC>
0.85714287

>  <Q_PC+>
0

>  <Q_PC->
0

>  <Q_RPC+>
0

>  <Q_RPC->
0

>  <Q_VSA_FHYD>
1

>  <Q_VSA_FNEG>
0

>  <Q_VSA_FPNEG>
0

>  <Q_VSA_FPOL>
0

>  <Q_VSA_FPOS>
1

>  <Q_VSA_FPPOS>
0

>  <Q_VSA_HYD>
533.34607

>  <Q_VSA_NEG>
0

>  <Q_VSA_PNEG>
0

>  <Q_VSA_POL>
0

>  <Q_VSA_POS>
533.34607

>  <Q_VSA_PPOS>
0

>  <radius>
7

>  <reactive>
0

>  <rings>
4

>  <RPC+>
0

>  <RPC->
0

>  <rsynth>
1

>  <SlogP>
-0.0176

>  <SlogP_VSA0>
114.03816

>  <SlogP_VSA1>
67.14212

>  <SlogP_VSA2>
0

>  <SlogP_VSA3>
231.22166

>  <SlogP_VSA4>
0

>  <SlogP_VSA5>
0

>  <SlogP_VSA6>
0

>  <SlogP_VSA7>
4.2882738

>  <SlogP_VSA8>
113.21043

>  <SlogP_VSA9>
8.4540262

>  <SMR>
14.00252

>  <SMR_VSA0>
0

>  <SMR_VSA1>
168.68303

>  <SMR_VSA2>
12.497255

>  <SMR_VSA3>
0

>  <SMR_VSA4>
12.7423

>  <SMR_VSA5>
113.21043

>  <SMR_VSA6>
231.22166

>  <SMR_VSA7>
0

>  <TPSA>
145.44

>  <VAdjEq>
0.3281796

>  <VAdjMa>
6.2854023

>  <VDistEq>
3.453459

>  <VDistMa>
10.117884

>  <vdw_area>
533.34607

>  <vdw_vol>
682.21838

>  <vsa_acc>
22.730305

>  <vsa_acid>
0

>  <vsa_base>
0

>  <vsa_don>
0

>  <vsa_hyd>
358.88

>  <vsa_other>
53.744274

>  <vsa_pol>
76.997986

>  <Weight>
504.63599

>  <weinerPath>
3652

>  <weinerPol>
60

>  <zagreb>
182

$$$$