OCCCCCCCCCCCCCCCCCCCCCC
  MOE2013           2D

 23 22  0  0  0  0  0  0  0  0999 V2000
    0.0000    0.0000    0.0000 O   0  0  0  0  0  0  0  0  0  0  0  0
    1.2990    0.7500    0.0000 C   0  0  0  0  0  0  0  0  0  0  0  0
    2.5980    0.0000    0.0000 C   0  0  0  0  0  0  0  0  0  0  0  0
    3.8970    0.7500    0.0000 C   0  0  0  0  0  0  0  0  0  0  0  0
    5.1960    0.0000    0.0000 C   0  0  0  0  0  0  0  0  0  0  0  0
    6.4950    0.7500    0.0000 C   0  0  0  0  0  0  0  0  0  0  0  0
    7.7940    0.0000    0.0000 C   0  0  0  0  0  0  0  0  0  0  0  0
    9.0930    0.7500    0.0000 C   0  0  0  0  0  0  0  0  0  0  0  0
   10.3920    0.0000    0.0000 C   0  0  0  0  0  0  0  0  0  0  0  0
   11.6910    0.7500    0.0000 C   0  0  0  0  0  0  0  0  0  0  0  0
   12.9900    0.0000    0.0000 C   0  0  0  0  0  0  0  0  0  0  0  0
   14.2890    0.7500    0.0000 C   0  0  0  0  0  0  0  0  0  0  0  0
   15.5880    0.0000    0.0000 C   0  0  0  0  0  0  0  0  0  0  0  0
   16.8870    0.7500    0.0000 C   0  0  0  0  0  0  0  0  0  0  0  0
   18.1870    0.0000    0.0000 C   0  0  0  0  0  0  0  0  0  0  0  0
   19.4860    0.7500    0.0000 C   0  0  0  0  0  0  0  0  0  0  0  0
   20.7850    0.0000    0.0000 C   0  0  0  0  0  0  0  0  0  0  0  0
   22.0840    0.7500    0.0000 C   0  0  0  0  0  0  0  0  0  0  0  0
   23.3830    0.0000    0.0000 C   0  0  0  0  0  0  0  0  0  0  0  0
   24.6820    0.7500    0.0000 C   0  0  0  0  0  0  0  0  0  0  0  0
   25.9810    0.0000    0.0000 C   0  0  0  0  0  0  0  0  0  0  0  0
   27.2800    0.7500    0.0000 C   0  0  0  0  0  0  0  0  0  0  0  0
   28.5790    0.0000    0.0000 C   0  0  0  0  0  0  0  0  0  0  0  0
  1  2  1  0  0  0  0
  2  3  1  0  0  0  0
  3  4  1  0  0  0  0
  4  5  1  0  0  0  0
  5  6  1  0  0  0  0
  6  7  1  0  0  0  0
  7  8  1  0  0  0  0
  8  9  1  0  0  0  0
  9 10  1  0  0  0  0
 10 11  1  0  0  0  0
 11 12  1  0  0  0  0
 12 13  1  0  0  0  0
 13 14  1  0  0  0  0
 14 15  1  0  0  0  0
 15 16  1  0  0  0  0
 16 17  1  0  0  0  0
 17 18  1  0  0  0  0
 18 19  1  0  0  0  0
 19 20  1  0  0  0  0
 20 21  1  0  0  0  0
 21 22  1  0  0  0  0
 22 23  1  0  0  0  0
M  END
>  <Index>
340

>  <ID>
HT0703

>  <class>
0

>  <apol>
70.194481

>  <ast_fraglike>
0

>  <ast_fraglike_ext>
0

>  <ast_violation>
2

>  <ast_violation_ext>
3

>  <a_acc>
1

>  <a_acid>
0

>  <a_aro>
0

>  <a_base>
0

>  <a_count>
69

>  <a_don>
1

>  <a_donacc>
2

>  <a_heavy>
23

>  <a_hyd>
22

>  <a_IC>
69.296844

>  <a_ICM>
1.004302

>  <a_nB>
0

>  <a_nBr>
0

>  <a_nC>
22

>  <a_nCl>
0

>  <a_nF>
0

>  <a_nH>
46

>  <a_nI>
0

>  <a_nN>
0

>  <a_nO>
1

>  <a_nP>
0

>  <a_nS>
0

>  <balabanJ>
2.9219623

>  <BCUT_PEOE_0>
-2.7550571

>  <BCUT_PEOE_1>
-0.21552536

>  <BCUT_PEOE_2>
0.28398031

>  <BCUT_PEOE_3>
2.6835105

>  <BCUT_SLOGP_0>
-2.5837171

>  <BCUT_SLOGP_1>
-0.12090676

>  <BCUT_SLOGP_2>
0.27622572

>  <BCUT_SLOGP_3>
2.8577099

>  <BCUT_SMR_0>
-2.5004914

>  <BCUT_SMR_1>
-0.12170192

>  <BCUT_SMR_2>
0.34986192

>  <BCUT_SMR_3>
2.939368

>  <bpol>
50.287521

>  <b_1rotN>
20

>  <b_1rotR>
0.90909094

>  <b_ar>
0

>  <b_count>
68

>  <b_double>
0

>  <b_heavy>
22

>  <b_max1len>
24

>  <b_rotN>
20

>  <b_rotR>
0.90909094

>  <b_single>
68

>  <b_triple>
0

>  <chi0>
16.849243

>  <chi0v>
16.296455

>  <chi0v_C>
15.849242

>  <chi0_C>
15.849242

>  <chi1>
11.414213

>  <chi1v>
11.023335

>  <chi1v_C>
10.707107

>  <chi1_C>
10.707107

>  <chiral>
0

>  <chiral_u>
0

>  <density>
0.58337599

>  <diameter>
22

>  <FCharge>
0

>  <GCUT_PEOE_0>
-0.80542201

>  <GCUT_PEOE_1>
-0.22421698

>  <GCUT_PEOE_2>
-0.026097281

>  <GCUT_PEOE_3>
2.7779825

>  <GCUT_SLOGP_0>
-0.87370729

>  <GCUT_SLOGP_1>
-0.11328989

>  <GCUT_SLOGP_2>
-0.024761425

>  <GCUT_SLOGP_3>
2.9299252

>  <GCUT_SMR_0>
-0.53611153

>  <GCUT_SMR_1>
-0.11413056

>  <GCUT_SMR_2>
0.042681839

>  <GCUT_SMR_3>
2.9914544

>  <Kier1>
23

>  <Kier2>
22

>  <Kier3>
22

>  <KierA1>
23

>  <KierA2>
22

>  <KierA3>
22

>  <KierFlex>
22

>  <lip_acc>
1

>  <lip_don>
1

>  <lip_druglike>
1

>  <lip_violation>
1

>  <logP(o/w)>
8.9490004

>  <logS>
-9.7061596

>  <mr>
10.564898

>  <mutagenic>
0

>  <nmol>
1

>  <opr_brigid>
0

>  <opr_leadlike>
0

>  <opr_nring>
0

>  <opr_nrot>
20

>  <opr_violation>
2

>  <PC+>
0

>  <PC->
0

>  <PEOE_PC+>
1.4990515

>  <PEOE_PC->
-1.4990515

>  <PEOE_RPC+>
0.13968515

>  <PEOE_RPC->
0.2635043

>  <PEOE_VSA+0>
198.36288

>  <PEOE_VSA+1>
8.5307722

>  <PEOE_VSA+2>
0

>  <PEOE_VSA+3>
0

>  <PEOE_VSA+4>
10.324173

>  <PEOE_VSA+5>
0

>  <PEOE_VSA+6>
0

>  <PEOE_VSA-0>
8.701313

>  <PEOE_VSA-1>
184.07263

>  <PEOE_VSA-2>
0

>  <PEOE_VSA-3>
0

>  <PEOE_VSA-4>
0

>  <PEOE_VSA-5>
0

>  <PEOE_VSA-6>
7.7675405

>  <PEOE_VSA_FHYD>
0.95669347

>  <PEOE_VSA_FNEG>
0.48004073

>  <PEOE_VSA_FPNEG>
0.018593337

>  <PEOE_VSA_FPOL>
0.043306544

>  <PEOE_VSA_FPOS>
0.51995927

>  <PEOE_VSA_FPPOS>
0.024713207

>  <PEOE_VSA_HYD>
399.6676

>  <PEOE_VSA_NEG>
200.54149

>  <PEOE_VSA_PNEG>
7.7675405

>  <PEOE_VSA_POL>
18.091713

>  <PEOE_VSA_POS>
217.21783

>  <PEOE_VSA_PPOS>
10.324173

>  <petitjean>
0.5

>  <petitjeanSC>
1

>  <Q_PC+>
0

>  <Q_PC->
0

>  <Q_RPC+>
0

>  <Q_RPC->
0

>  <Q_VSA_FHYD>
1

>  <Q_VSA_FNEG>
0

>  <Q_VSA_FPNEG>
0

>  <Q_VSA_FPOL>
0

>  <Q_VSA_FPOS>
1

>  <Q_VSA_FPPOS>
0

>  <Q_VSA_HYD>
417.75931

>  <Q_VSA_NEG>
0

>  <Q_VSA_PNEG>
0

>  <Q_VSA_POL>
0

>  <Q_VSA_POS>
417.75931

>  <Q_VSA_PPOS>
0

>  <radius>
11

>  <reactive>
0

>  <rings>
0

>  <RPC+>
0

>  <RPC->
0

>  <rsynth>
1

>  <SlogP>
7.8006001

>  <SlogP_VSA0>
25.385227

>  <SlogP_VSA1>
0

>  <SlogP_VSA2>
0

>  <SlogP_VSA3>
20.926258

>  <SlogP_VSA4>
0

>  <SlogP_VSA5>
0

>  <SlogP_VSA6>
0

>  <SlogP_VSA7>
0

>  <SlogP_VSA8>
377.3681

>  <SlogP_VSA9>
33.326015

>  <SMR>
10.50998

>  <SMR_VSA0>
0

>  <SMR_VSA1>
25.385227

>  <SMR_VSA2>
0

>  <SMR_VSA3>
0

>  <SMR_VSA4>
0

>  <SMR_VSA5>
377.3681

>  <SMR_VSA6>
20.926258

>  <SMR_VSA7>
33.326015

>  <TPSA>
20.23

>  <VAdjEq>
0.41327167

>  <VAdjMa>
5.4594316

>  <VDistEq>
4.210659

>  <VDistMa>
8.6569805

>  <vdw_area>
417.75931

>  <vdw_vol>
559.86017

>  <vsa_acc>
0

>  <vsa_acid>
0

>  <vsa_base>
0

>  <vsa_don>
0

>  <vsa_hyd>
367.63681

>  <vsa_other>
0

>  <vsa_pol>
13.566921

>  <Weight>
326.60898

>  <weinerPath>
2024

>  <weinerPol>
20

>  <zagreb>
86

$$$$