S=C(N)c1cc(ncc1)CC
  MOE2013           2D

 11 11  0  0  0  0  0  0  0  0999 V2000
    0.0000    0.0000    0.0000 S   0  0  0  0  0  0  0  0  0  0  0  0
    1.2950    0.7560    0.0000 C   0  0  0  0  0  0  0  0  0  0  0  0
    1.2880    2.2560    0.0000 N   0  0  0  0  0  0  0  0  0  0  0  0
    2.5980    0.0130    0.0000 C   0  0  0  0  0  0  0  0  0  0  0  0
    3.8930    0.7690    0.0000 C   0  0  0  0  0  0  0  0  0  0  0  0
    5.1960    0.0260    0.0000 C   0  0  0  0  0  0  0  0  0  0  0  0
    5.2030   -1.4740    0.0000 N   0  0  0  0  0  0  0  0  0  0  0  0
    3.9080   -2.2310    0.0000 C   0  0  0  0  0  0  0  0  0  0  0  0
    2.6050   -1.4870    0.0000 C   0  0  0  0  0  0  0  0  0  0  0  0
    6.4910    0.7820    0.0000 C   0  0  0  0  0  0  0  0  0  0  0  0
    7.7940    0.0380    0.0000 C   0  0  0  0  0  0  0  0  0  0  0  0
  1  2  2  0  0  0  0
  2  3  1  0  0  0  0
  2  4  1  0  0  0  0
  4  5  1  0  0  0  0
  4  9  2  0  0  0  0
  5  6  2  0  0  0  0
  6  7  1  0  0  0  0
  6 10  1  0  0  0  0
  7  8  2  0  0  0  0
  8  9  1  0  0  0  0
 10 11  1  0  0  0  0
M  END
>  <Index>
399

>  <ID>
HT0809

>  <class>
0

>  <apol>
25.847931

>  <ast_fraglike>
1

>  <ast_fraglike_ext>
1

>  <ast_violation>
0

>  <ast_violation_ext>
0

>  <a_acc>
2

>  <a_acid>
0

>  <a_aro>
6

>  <a_base>
0

>  <a_count>
21

>  <a_don>
1

>  <a_donacc>
3

>  <a_heavy>
11

>  <a_hyd>
7

>  <a_IC>
33.019386

>  <a_ICM>
1.5723517

>  <a_nB>
0

>  <a_nBr>
0

>  <a_nC>
8

>  <a_nCl>
0

>  <a_nF>
0

>  <a_nH>
10

>  <a_nI>
0

>  <a_nN>
2

>  <a_nO>
0

>  <a_nP>
0

>  <a_nS>
1

>  <balabanJ>
2.3716021

>  <BCUT_PEOE_0>
-2.3994529

>  <BCUT_PEOE_1>
-0.47634202

>  <BCUT_PEOE_2>
0.48869017

>  <BCUT_PEOE_3>
2.3688979

>  <BCUT_SLOGP_0>
-2.4552283

>  <BCUT_SLOGP_1>
-0.43380955

>  <BCUT_SLOGP_2>
0.59118766

>  <BCUT_SLOGP_3>
2.4532566

>  <BCUT_SMR_0>
-2.1517503

>  <BCUT_SMR_1>
-0.24662434

>  <BCUT_SMR_2>
0.74428636

>  <BCUT_SMR_3>
2.6319315

>  <bpol>
12.73207

>  <b_1rotN>
2

>  <b_1rotR>
0.18181819

>  <b_ar>
6

>  <b_count>
21

>  <b_double>
1

>  <b_heavy>
11

>  <b_max1len>
3

>  <b_rotN>
2

>  <b_rotR>
0.18181819

>  <b_single>
14

>  <b_triple>
0

>  <chi0>
8.2675848

>  <chi0v>
7.1884665

>  <chi0v_C>
4.9391575

>  <chi0_C>
5.5604777

>  <chi1>
5.236382

>  <chi1v>
3.8928721

>  <chi1v_C>
2.5100188

>  <chi1_C>
3.1734333

>  <chiral>
0

>  <chiral_u>
0

>  <density>
0.74783158

>  <diameter>
6

>  <FCharge>
0

>  <GCUT_PEOE_0>
-0.82719272

>  <GCUT_PEOE_1>
-0.36299899

>  <GCUT_PEOE_2>
0.032634787

>  <GCUT_PEOE_3>
2.1216404

>  <GCUT_SLOGP_0>
-1.3702534

>  <GCUT_SLOGP_1>
-0.30340391

>  <GCUT_SLOGP_2>
0.13234834

>  <GCUT_SLOGP_3>
2.204917

>  <GCUT_SMR_0>
-0.51294291

>  <GCUT_SMR_1>
-0.12515992

>  <GCUT_SMR_2>
0.21973433

>  <GCUT_SMR_3>
2.4294858

>  <Kier1>
9.090909

>  <Kier2>
4.1326532

>  <Kier3>
2.5

>  <KierA1>
7.2026725

>  <KierA2>
3.1896665

>  <KierA3>
1.884683

>  <KierFlex>
2.0885568

>  <lip_acc>
2

>  <lip_don>
2

>  <lip_druglike>
1

>  <lip_violation>
0

>  <logP(o/w)>
0.61400002

>  <logS>
-1.94741

>  <mr>
4.9146881

>  <mutagenic>
0

>  <nmol>
1

>  <opr_brigid>
6

>  <opr_leadlike>
1

>  <opr_nring>
1

>  <opr_nrot>
2

>  <opr_violation>
0

>  <PC+>
0

>  <PC->
0

>  <PEOE_PC+>
0.77086508

>  <PEOE_PC->
-0.77086508

>  <PEOE_RPC+>
0.15965642

>  <PEOE_RPC->
0.40413529

>  <PEOE_VSA+0>
44.772396

>  <PEOE_VSA+1>
12.796158

>  <PEOE_VSA+2>
48.622536

>  <PEOE_VSA+3>
0

>  <PEOE_VSA+4>
0

>  <PEOE_VSA+5>
0

>  <PEOE_VSA+6>
0

>  <PEOE_VSA-0>
44.095272

>  <PEOE_VSA-1>
18.747677

>  <PEOE_VSA-2>
0

>  <PEOE_VSA-3>
0

>  <PEOE_VSA-4>
0

>  <PEOE_VSA-5>
5.6825762

>  <PEOE_VSA-6>
6.6511192

>  <PEOE_VSA_FHYD>
0.93199623

>  <PEOE_VSA_FNEG>
0.41449845

>  <PEOE_VSA_FPNEG>
0.068003803

>  <PEOE_VSA_FPOL>
0.068003803

>  <PEOE_VSA_FPOS>
0.58550155

>  <PEOE_VSA_FPPOS>
0

>  <PEOE_VSA_HYD>
169.03404

>  <PEOE_VSA_NEG>
75.176643

>  <PEOE_VSA_PNEG>
12.333695

>  <PEOE_VSA_POL>
12.333695

>  <PEOE_VSA_POS>
106.19109

>  <PEOE_VSA_PPOS>
0

>  <petitjean>
0.5

>  <petitjeanSC>
1

>  <Q_PC+>
0

>  <Q_PC->
0

>  <Q_RPC+>
0

>  <Q_RPC->
0

>  <Q_VSA_FHYD>
1

>  <Q_VSA_FNEG>
0

>  <Q_VSA_FPNEG>
0

>  <Q_VSA_FPOL>
0

>  <Q_VSA_FPOS>
1

>  <Q_VSA_FPPOS>
0

>  <Q_VSA_HYD>
181.36774

>  <Q_VSA_NEG>
0

>  <Q_VSA_PNEG>
0

>  <Q_VSA_POL>
0

>  <Q_VSA_POS>
181.36774

>  <Q_VSA_PPOS>
0

>  <radius>
3

>  <reactive>
0

>  <rings>
1

>  <RPC+>
0

>  <RPC->
0

>  <rsynth>
1

>  <SlogP>
1.27817

>  <SlogP_VSA0>
32.897186

>  <SlogP_VSA1>
17.498878

>  <SlogP_VSA2>
0

>  <SlogP_VSA3>
0

>  <SlogP_VSA4>
5.9423227

>  <SlogP_VSA5>
18.868406

>  <SlogP_VSA6>
0

>  <SlogP_VSA7>
52.500725

>  <SlogP_VSA8>
0

>  <SlogP_VSA9>
78.518044

>  <SMR>
4.9503398

>  <SMR_VSA0>
0

>  <SMR_VSA1>
16.78553

>  <SMR_VSA2>
0

>  <SMR_VSA3>
5.9423227

>  <SMR_VSA4>
32.897186

>  <SMR_VSA5>
71.369133

>  <SMR_VSA6>
0.71334887

>  <SMR_VSA7>
78.518044

>  <TPSA>
71

>  <VAdjEq>
0.68403846

>  <VAdjMa>
4.4594316

>  <VDistEq>
2.4086046

>  <VDistMa>
6.6027679

>  <vdw_area>
181.36774

>  <vdw_vol>
222.30675

>  <vsa_acc>
37.067089

>  <vsa_acid>
0

>  <vsa_base>
0

>  <vsa_don>
17.742489

>  <vsa_hyd>
106.04153

>  <vsa_other>
8.6756124

>  <vsa_pol>
54.809578

>  <Weight>
166.248

>  <weinerPath>
156

>  <weinerPol>
13

>  <zagreb>
50

$$$$