Fc1cc2c(nc1N1CCNCC1)N(C=C(C(O)=O)C2=O)CC
  MOE2013           2D

 23 25  0  0  1  0  0  0  0  0999 V2000
    0.0000    0.0000    0.0000 F   0  0  0  0  0  0  0  0  0  0  0  0
   -1.2930    0.7600    0.0000 C   0  0  0  0  0  0  0  0  0  0  0  0
   -2.5980    0.0200    0.0000 C   0  0  0  0  0  0  0  0  0  0  0  0
   -3.8910    0.7800    0.0000 C   0  0  0  0  0  0  0  0  0  0  0  0
   -3.8800    2.2800    0.0000 C   0  0  0  0  0  0  0  0  0  0  0  0
   -2.5750    3.0200    0.0000 N   0  0  0  0  0  0  0  0  0  0  0  0
   -1.2820    2.2600    0.0000 C   0  0  0  0  0  0  0  0  0  0  0  0
    0.0230    3.0000    0.0000 N   0  0  0  0  0  0  0  0  0  0  0  0
    1.3160    2.2400    0.0000 C   0  0  0  0  0  0  0  0  0  0  0  0
    2.6210    2.9800    0.0000 C   0  0  0  0  0  0  0  0  0  0  0  0
    2.6330    4.4800    0.0000 N   0  0  0  0  0  0  0  0  0  0  0  0
    1.3400    5.2400    0.0000 C   0  0  0  0  0  0  0  0  0  0  0  0
    0.0350    4.5000    0.0000 C   0  0  0  0  0  0  0  0  0  0  0  0
   -5.1730    3.0400    0.0000 N   0  0  3  0  0  0  0  0  0  0  0  0
   -6.4780    2.3000    0.0000 C   0  0  0  0  0  0  0  0  0  0  0  0
   -6.4890    0.8000    0.0000 C   0  0  0  0  0  0  0  0  0  0  0  0
   -7.7940    0.0610    0.0000 C   0  0  0  0  0  0  0  0  0  0  0  0
   -9.0870    0.8210    0.0000 O   0  0  0  0  0  0  0  0  0  0  0  0
   -7.8060   -1.4390    0.0000 O   0  0  0  0  0  0  0  0  0  0  0  0
   -5.1960    0.0400    0.0000 C   0  0  0  0  0  0  0  0  0  0  0  0
   -5.2080   -1.4600    0.0000 O   0  0  0  0  0  0  0  0  0  0  0  0
   -5.1610    4.5400    0.0000 C   0  0  0  0  0  0  0  0  0  0  0  0
   -6.4540    5.3000    0.0000 C   0  0  0  0  0  0  0  0  0  0  0  0
  1  2  1  0  0  0  0
  2  3  1  0  0  0  0
  2  7  2  0  0  0  0
  3  4  2  0  0  0  0
  4  5  1  0  0  0  0
  4 20  1  0  0  0  0
  5  6  2  0  0  0  0
  5 14  1  0  0  0  0
  6  7  1  0  0  0  0
  7  8  1  0  0  0  0
  8  9  1  0  0  0  0
  8 13  1  0  0  0  0
  9 10  1  0  0  0  0
 10 11  1  0  0  0  0
 11 12  1  0  0  0  0
 12 13  1  0  0  0  0
 14 15  1  0  0  0  0
 14 22  1  0  0  0  0
 15 16  2  0  0  0  0
 16 17  1  0  0  0  0
 16 20  1  0  0  0  0
 17 18  1  0  0  0  0
 17 19  2  0  0  0  0
 20 21  2  0  0  0  0
 22 23  1  0  0  0  0
M  END
>  <Index>
371

>  <ID>
HT0759

>  <class>
0

>  <apol>
45.09848

>  <ast_fraglike>
0

>  <ast_fraglike_ext>
0

>  <ast_violation>
2

>  <ast_violation_ext>
3

>  <a_acc>
5

>  <a_acid>
0

>  <a_aro>
6

>  <a_base>
0

>  <a_count>
40

>  <a_don>
3

>  <a_donacc>
8

>  <a_heavy>
23

>  <a_hyd>
12

>  <a_IC>
72.032005

>  <a_ICM>
1.8008002

>  <a_nB>
0

>  <a_nBr>
0

>  <a_nC>
15

>  <a_nCl>
0

>  <a_nF>
1

>  <a_nH>
17

>  <a_nI>
0

>  <a_nN>
4

>  <a_nO>
3

>  <a_nP>
0

>  <a_nS>
0

>  <balabanJ>
1.7566913

>  <BCUT_PEOE_0>
-2.7053981

>  <BCUT_PEOE_1>
-0.60710001

>  <BCUT_PEOE_2>
0.60269302

>  <BCUT_PEOE_3>
2.619194

>  <BCUT_SLOGP_0>
-2.8885458

>  <BCUT_SLOGP_1>
-0.57037294

>  <BCUT_SLOGP_2>
0.66803503

>  <BCUT_SLOGP_3>
2.4988666

>  <BCUT_SMR_0>
-2.4136882

>  <BCUT_SMR_1>
-0.39280063

>  <BCUT_SMR_2>
0.75205183

>  <BCUT_SMR_3>
2.9048612

>  <bpol>
27.643518

>  <b_1rotN>
3

>  <b_1rotR>
0.12

>  <b_ar>
6

>  <b_count>
42

>  <b_double>
3

>  <b_heavy>
25

>  <b_max1len>
3

>  <b_rotN>
3

>  <b_rotR>
0.12

>  <b_single>
33

>  <b_triple>
0

>  <chi0>
16.560114

>  <chi0v>
12.67355

>  <chi0v_C>
9.1902342

>  <chi0_C>
9.9911995

>  <chi1>
11.024076

>  <chi1v>
7.4523859

>  <chi1v_C>
3.8231323

>  <chi1_C>
4.5985184

>  <chiral>
0

>  <chiral_u>
0

>  <density>
0.80786401

>  <diameter>
11

>  <FCharge>
0

>  <GCUT_PEOE_0>
-0.84306884

>  <GCUT_PEOE_1>
-0.46010706

>  <GCUT_PEOE_2>
0.12790234

>  <GCUT_PEOE_3>
2.6300197

>  <GCUT_SLOGP_0>
-1.1544342

>  <GCUT_SLOGP_1>
-0.41744474

>  <GCUT_SLOGP_2>
0.19157065

>  <GCUT_SLOGP_3>
2.627773

>  <GCUT_SMR_0>
-0.50766575

>  <GCUT_SMR_1>
-0.2457667

>  <GCUT_SMR_2>
0.19560541

>  <GCUT_SMR_3>
2.9015856

>  <Kier1>
17.811199

>  <Kier2>
7.4861112

>  <Kier3>
3.52

>  <KierA1>
13.28422

>  <KierA2>
5.5030856

>  <KierA3>
2.5592222

>  <KierFlex>
3.1784432

>  <lip_acc>
7

>  <lip_don>
2

>  <lip_druglike>
1

>  <lip_violation>
0

>  <logP(o/w)>
0.266

>  <logS>
-1.8738

>  <mr>
8.105978

>  <mutagenic>
0

>  <nmol>
1

>  <opr_brigid>
17

>  <opr_leadlike>
1

>  <opr_nring>
3

>  <opr_nrot>
5

>  <opr_violation>
0

>  <PC+>
0

>  <PC->
0

>  <PEOE_PC+>
2.1576409

>  <PEOE_PC->
-2.1576409

>  <PEOE_RPC+>
0.13715453

>  <PEOE_RPC->
0.15172784

>  <PEOE_VSA+0>
138.15756

>  <PEOE_VSA+1>
10.739311

>  <PEOE_VSA+2>
33.208679

>  <PEOE_VSA+3>
9.0208454

>  <PEOE_VSA+4>
18.782692

>  <PEOE_VSA+5>
14.708499

>  <PEOE_VSA+6>
0

>  <PEOE_VSA-0>
12.254904

>  <PEOE_VSA-1>
18.747677

>  <PEOE_VSA-2>
0

>  <PEOE_VSA-3>
0

>  <PEOE_VSA-4>
17.591211

>  <PEOE_VSA-5>
27.133842

>  <PEOE_VSA-6>
7.9044313

>  <PEOE_VSA_FHYD>
0.7206139

>  <PEOE_VSA_FNEG>
0.27131277

>  <PEOE_VSA_FPNEG>
0.17073657

>  <PEOE_VSA_FPOL>
0.27938613

>  <PEOE_VSA_FPOS>
0.72868723

>  <PEOE_VSA_FPPOS>
0.10864957

>  <PEOE_VSA_HYD>
222.12897

>  <PEOE_VSA_NEG>
83.632065

>  <PEOE_VSA_PNEG>
52.629486

>  <PEOE_VSA_POL>
86.120674

>  <PEOE_VSA_POS>
224.61758

>  <PEOE_VSA_PPOS>
33.491192

>  <petitjean>
0.45454547

>  <petitjeanSC>
0.83333331

>  <Q_PC+>
0

>  <Q_PC->
0

>  <Q_RPC+>
0

>  <Q_RPC->
0

>  <Q_VSA_FHYD>
1

>  <Q_VSA_FNEG>
0

>  <Q_VSA_FPNEG>
0

>  <Q_VSA_FPOL>
0

>  <Q_VSA_FPOS>
1

>  <Q_VSA_FPPOS>
0

>  <Q_VSA_HYD>
308.24966

>  <Q_VSA_NEG>
0

>  <Q_VSA_PNEG>
0

>  <Q_VSA_POL>
0

>  <Q_VSA_POS>
308.24966

>  <Q_VSA_PPOS>
0

>  <radius>
6

>  <reactive>
0

>  <rings>
3

>  <RPC+>
0

>  <RPC->
0

>  <rsynth>
1

>  <SlogP>
0.6214

>  <SlogP_VSA0>
24.259378

>  <SlogP_VSA1>
30.218605

>  <SlogP_VSA2>
32.983234

>  <SlogP_VSA3>
117.58311

>  <SlogP_VSA4>
27.047791

>  <SlogP_VSA5>
3.185575

>  <SlogP_VSA6>
0

>  <SlogP_VSA7>
34.85754

>  <SlogP_VSA8>
0

>  <SlogP_VSA9>
52.941967

>  <SMR>
8.2347002

>  <SMR_VSA0>
47.724434

>  <SMR_VSA1>
31.745644

>  <SMR_VSA2>
58.765621

>  <SMR_VSA3>
6.37115

>  <SMR_VSA4>
4.6558404

>  <SMR_VSA5>
34.85754

>  <SMR_VSA6>
105.63097

>  <SMR_VSA7>
33.326015

>  <TPSA>
85.769997

>  <VAdjEq>
0.45137304

>  <VAdjMa>
5.643856

>  <VDistEq>
3.1655307

>  <VDistMa>
8.773262

>  <vdw_area>
308.24966

>  <vdw_vol>
396.50729

>  <vsa_acc>
19.249496

>  <vsa_acid>
0

>  <vsa_base>
0

>  <vsa_don>
0

>  <vsa_hyd>
192.36053

>  <vsa_other>
45.548145

>  <vsa_pol>
52.065914

>  <Weight>
320.32401

>  <weinerPath>
1116

>  <weinerPol>
41

>  <zagreb>
122

$$$$