S(=O)(=O)(Nc1cc2c(oc(CCCC)c2C(=O)c2ccc(OCCCN(CCCC)CCCC)cc2)cc1)C
  MOE2013           2D

 39 41  0  0  0  0  0  0  0  0999 V2000
    0.0000    0.0000    0.0000 S   0  0  0  0  0  0  0  0  0  0  0  0
   -0.0100    1.5000    0.0000 O   0  0  0  0  0  0  0  0  0  0  0  0
    0.0100   -1.5000    0.0000 O   0  0  0  0  0  0  0  0  0  0  0  0
    1.5000    0.0100    0.0000 N   0  0  0  0  0  0  0  0  0  0  0  0
    2.2420    1.3140    0.0000 C   0  0  0  0  0  0  0  0  0  0  0  0
    3.7420    1.3230    0.0000 C   0  0  0  0  0  0  0  0  0  0  0  0
    4.4830    2.6270    0.0000 C   0  0  0  0  0  0  0  0  0  0  0  0
    3.7250    3.9210    0.0000 C   0  0  0  0  0  0  0  0  0  0  0  0
    4.7210    5.0430    0.0000 O   0  0  0  0  0  0  0  0  0  0  0  0
    6.0950    4.4410    0.0000 C   0  0  0  0  0  0  0  0  0  0  0  0
    7.3890    5.2000    0.0000 C   0  0  0  0  0  0  0  0  0  0  0  0
    7.3800    6.7000    0.0000 C   0  0  0  0  0  0  0  0  0  0  0  0
    8.6740    7.4580    0.0000 C   0  0  0  0  0  0  0  0  0  0  0  0
    8.6640    8.9580    0.0000 C   0  0  0  0  0  0  0  0  0  0  0  0
    5.9480    2.9490    0.0000 C   0  0  0  0  0  0  0  0  0  0  0  0
    7.0690    1.9520    0.0000 C   0  0  0  0  0  0  0  0  0  0  0  0
    6.7670    0.4830    0.0000 O   0  0  0  0  0  0  0  0  0  0  0  0
    8.4930    2.4250    0.0000 C   0  0  0  0  0  0  0  0  0  0  0  0
    9.6140    1.4280    0.0000 C   0  0  0  0  0  0  0  0  0  0  0  0
   11.0380    1.9010    0.0000 C   0  0  0  0  0  0  0  0  0  0  0  0
   11.3400    3.3700    0.0000 C   0  0  0  0  0  0  0  0  0  0  0  0
   12.7640    3.8430    0.0000 O   0  0  0  0  0  0  0  0  0  0  0  0
   13.8850    2.8470    0.0000 C   0  0  0  0  0  0  0  0  0  0  0  0
   15.3080    3.3190    0.0000 C   0  0  0  0  0  0  0  0  0  0  0  0
   16.4300    2.3230    0.0000 C   0  0  0  0  0  0  0  0  0  0  0  0
   17.8530    2.7960    0.0000 N   0  0  0  0  0  0  0  0  0  0  0  0
   18.1550    4.2650    0.0000 C   0  0  0  0  0  0  0  0  0  0  0  0
   19.5790    4.7380    0.0000 C   0  0  0  0  0  0  0  0  0  0  0  0
   19.8810    6.2070    0.0000 C   0  0  0  0  0  0  0  0  0  0  0  0
   21.3050    6.6800    0.0000 C   0  0  0  0  0  0  0  0  0  0  0  0
   18.9740    1.7990    0.0000 C   0  0  0  0  0  0  0  0  0  0  0  0
   18.6720    0.3300    0.0000 C   0  0  0  0  0  0  0  0  0  0  0  0
   19.7930   -0.6660    0.0000 C   0  0  0  0  0  0  0  0  0  0  0  0
   19.4910   -2.1360    0.0000 C   0  0  0  0  0  0  0  0  0  0  0  0
   10.2190    4.3670    0.0000 C   0  0  0  0  0  0  0  0  0  0  0  0
    8.7950    3.8940    0.0000 C   0  0  0  0  0  0  0  0  0  0  0  0
    2.2250    3.9120    0.0000 C   0  0  0  0  0  0  0  0  0  0  0  0
    1.4830    2.6080    0.0000 C   0  0  0  0  0  0  0  0  0  0  0  0
   -1.5000   -0.0100    0.0000 C   0  0  0  0  0  0  0  0  0  0  0  0
  1  2  2  0  0  0  0
  1  3  2  0  0  0  0
  1  4  1  0  0  0  0
  1 39  1  0  0  0  0
  4  5  1  0  0  0  0
  5  6  1  0  0  0  0
  5 38  2  0  0  0  0
  6  7  2  0  0  0  0
  7  8  1  0  0  0  0
  7 15  1  0  0  0  0
  8  9  1  0  0  0  0
  8 37  2  0  0  0  0
  9 10  1  0  0  0  0
 10 11  1  0  0  0  0
 10 15  2  0  0  0  0
 11 12  1  0  0  0  0
 12 13  1  0  0  0  0
 13 14  1  0  0  0  0
 15 16  1  0  0  0  0
 16 17  2  0  0  0  0
 16 18  1  0  0  0  0
 18 19  1  0  0  0  0
 18 36  2  0  0  0  0
 19 20  2  0  0  0  0
 20 21  1  0  0  0  0
 21 22  1  0  0  0  0
 21 35  2  0  0  0  0
 22 23  1  0  0  0  0
 23 24  1  0  0  0  0
 24 25  1  0  0  0  0
 25 26  1  0  0  0  0
 26 27  1  0  0  0  0
 26 31  1  0  0  0  0
 27 28  1  0  0  0  0
 28 29  1  0  0  0  0
 29 30  1  0  0  0  0
 31 32  1  0  0  0  0
 32 33  1  0  0  0  0
 33 34  1  0  0  0  0
 35 36  1  0  0  0  0
 37 38  1  0  0  0  0
M  END
>  <Index>
351

>  <ID>
HT0725

>  <class>
0

>  <apol>
93.008888

>  <ast_fraglike>
0

>  <ast_fraglike_ext>
0

>  <ast_violation>
3

>  <ast_violation_ext>
4

>  <a_acc>
5

>  <a_acid>
0

>  <a_aro>
15

>  <a_base>
0

>  <a_count>
83

>  <a_don>
1

>  <a_donacc>
6

>  <a_heavy>
39

>  <a_hyd>
28

>  <a_IC>
121.72356

>  <a_ICM>
1.4665489

>  <a_nB>
0

>  <a_nBr>
0

>  <a_nC>
31

>  <a_nCl>
0

>  <a_nF>
0

>  <a_nH>
44

>  <a_nI>
0

>  <a_nN>
2

>  <a_nO>
5

>  <a_nP>
0

>  <a_nS>
1

>  <balabanJ>
1.4731796

>  <BCUT_PEOE_0>
-2.7397752

>  <BCUT_PEOE_1>
-0.54464579

>  <BCUT_PEOE_2>
0.4134832

>  <BCUT_PEOE_3>
2.6454394

>  <BCUT_SLOGP_0>
-2.7625258

>  <BCUT_SLOGP_1>
-0.44834277

>  <BCUT_SLOGP_2>
0.54932195

>  <BCUT_SLOGP_3>
2.6939282

>  <BCUT_SMR_0>
-2.4672267

>  <BCUT_SMR_1>
-0.33471888

>  <BCUT_SMR_2>
0.62597722

>  <BCUT_SMR_3>
2.9112329

>  <bpol>
62.007107

>  <b_1rotN>
18

>  <b_1rotR>
0.43902439

>  <b_ar>
16

>  <b_count>
85

>  <b_double>
1

>  <b_heavy>
41

>  <b_max1len>
10

>  <b_rotN>
18

>  <b_rotR>
0.43902439

>  <b_single>
68

>  <b_triple>
0

>  <chi0>
28.252502

>  <chi0v>
24.739933

>  <chi0v_C>
20.526733

>  <chi0_C>
22.053831

>  <chi1>
18.750864

>  <chi1v>
16.175247

>  <chi1v_C>
11.034275

>  <chi1_C>
12.962222

>  <chiral>
0

>  <chiral_u>
0

>  <density>
0.71057671

>  <diameter>
20

>  <FCharge>
0

>  <GCUT_PEOE_0>
-0.85944903

>  <GCUT_PEOE_1>
-0.40242219

>  <GCUT_PEOE_2>
-0.022661537

>  <GCUT_PEOE_3>
2.8256245

>  <GCUT_SLOGP_0>
-0.95350569

>  <GCUT_SLOGP_1>
-0.30843747

>  <GCUT_SLOGP_2>
0.095156156

>  <GCUT_SLOGP_3>
2.9184568

>  <GCUT_SMR_0>
-0.53123873

>  <GCUT_SMR_1>
-0.18568774

>  <GCUT_SMR_2>
0.12654054

>  <GCUT_SMR_3>
3.0928602

>  <Kier1>
33.501488

>  <Kier2>
17.197355

>  <Kier3>
10.970818

>  <KierA1>
29.023447

>  <KierA2>
14.840044

>  <KierA3>
9.4402838

>  <KierFlex>
11.043827

>  <lip_acc>
7

>  <lip_don>
1

>  <lip_druglike>
0

>  <lip_violation>
2

>  <logP(o/w)>
7.4239998

>  <logS>
-8.5250397

>  <mr>
15.943114

>  <mutagenic>
0

>  <nmol>
1

>  <opr_brigid>
16

>  <opr_leadlike>
0

>  <opr_nring>
3

>  <opr_nrot>
17

>  <opr_violation>
3

>  <PC+>
0

>  <PC->
0

>  <PEOE_PC+>
2.8385003

>  <PEOE_PC->
-2.8385003

>  <PEOE_RPC+>
0.069409125

>  <PEOE_RPC->
0.16168965

>  <PEOE_VSA+0>
168.6433

>  <PEOE_VSA+1>
72.625839

>  <PEOE_VSA+2>
29.713198

>  <PEOE_VSA+3>
29.182259

>  <PEOE_VSA+4>
0

>  <PEOE_VSA+5>
0

>  <PEOE_VSA+6>
0

>  <PEOE_VSA-0>
141.41888

>  <PEOE_VSA-1>
94.601875

>  <PEOE_VSA-2>
0

>  <PEOE_VSA-3>
2.5295215

>  <PEOE_VSA-4>
32.016521

>  <PEOE_VSA-5>
13.566921

>  <PEOE_VSA-6>
5.0075121

>  <PEOE_VSA_FHYD>
0.91415161

>  <PEOE_VSA_FNEG>
0.49064717

>  <PEOE_VSA_FPNEG>
0.085848391

>  <PEOE_VSA_FPOL>
0.085848391

>  <PEOE_VSA_FPOS>
0.5093528

>  <PEOE_VSA_FPPOS>
0

>  <PEOE_VSA_HYD>
538.71484

>  <PEOE_VSA_NEG>
289.14124

>  <PEOE_VSA_PNEG>
50.590958

>  <PEOE_VSA_POL>
50.590958

>  <PEOE_VSA_POS>
300.16458

>  <PEOE_VSA_PPOS>
0

>  <petitjean>
0.5

>  <petitjeanSC>
1

>  <Q_PC+>
0

>  <Q_PC->
0

>  <Q_RPC+>
0

>  <Q_RPC->
0

>  <Q_VSA_FHYD>
1

>  <Q_VSA_FNEG>
0

>  <Q_VSA_FPNEG>
0

>  <Q_VSA_FPOL>
0

>  <Q_VSA_FPOS>
1

>  <Q_VSA_FPPOS>
0

>  <Q_VSA_HYD>
589.30585

>  <Q_VSA_NEG>
0

>  <Q_VSA_PNEG>
0

>  <Q_VSA_POL>
0

>  <Q_VSA_POS>
589.30585

>  <Q_VSA_PPOS>
0

>  <radius>
10

>  <reactive>
1

>  <rings>
3

>  <RPC+>
0

>  <RPC->
0

>  <rsynth>
1

>  <SlogP>
7.0489702

>  <SlogP_VSA0>
10.999887

>  <SlogP_VSA1>
73.388611

>  <SlogP_VSA2>
6.6407428

>  <SlogP_VSA3>
76.244995

>  <SlogP_VSA4>
35.682186

>  <SlogP_VSA5>
60.066925

>  <SlogP_VSA6>
0

>  <SlogP_VSA7>
130.91147

>  <SlogP_VSA8>
132.07884

>  <SlogP_VSA9>
107.97822

>  <SMR>
15.9535

>  <SMR_VSA0>
81.541252

>  <SMR_VSA1>
14.124202

>  <SMR_VSA2>
0

>  <SMR_VSA3>
17.063398

>  <SMR_VSA4>
26.570919

>  <SMR_VSA5>
274.44952

>  <SMR_VSA6>
81.932602

>  <SMR_VSA7>
138.30997

>  <TPSA>
88.849998

>  <VAdjEq>
0.30278754

>  <VAdjMa>
6.3575521

>  <VDistEq>
4.1626649

>  <VDistMa>
10.253942

>  <vdw_area>
589.30585

>  <vdw_vol>
783.54382

>  <vsa_acc>
48.0872

>  <vsa_acid>
0

>  <vsa_base>
0

>  <vsa_don>
8.0752068

>  <vsa_hyd>
461.47797

>  <vsa_other>
37.984924

>  <vsa_pol>
56.162407

>  <Weight>
556.76801

>  <weinerPath>
6050

>  <weinerPol>
56

>  <zagreb>
192

$$$$