ClC(SCC(N)C(O)=O)=C/Cl
  MOE2013           2D

 11 10  0  0  1  0  0  0  0  0999 V2000
    0.0000    0.0000    0.0000 Cl  0  0  0  0  0  0  0  0  0  0  0  0
   -0.7450   -1.3020    0.0000 C   0  0  0  0  0  0  0  0  0  0  0  0
   -2.2450   -1.3080    0.0000 S   0  0  0  0  0  0  0  0  0  0  0  0
   -3.0000   -0.0120    0.0000 C   0  0  0  0  0  0  0  0  0  0  0  0
   -4.5000   -0.0180    0.0000 C   0  0  3  0  0  0  0  0  0  0  0  0
   -5.2450   -1.3200    0.0000 N   0  0  0  0  0  0  0  0  0  0  0  0
   -5.2550    1.2780    0.0000 C   0  0  0  0  0  0  0  0  0  0  0  0
   -6.7550    1.2720    0.0000 O   0  0  0  0  0  0  0  0  0  0  0  0
   -4.5100    2.5800    0.0000 O   0  0  0  0  0  0  0  0  0  0  0  0
    0.0100   -2.5980    0.0000 C   0  0  0  0  0  0  0  0  0  0  0  0
    1.5100   -2.5920    0.0000 Cl  0  0  0  0  0  0  0  0  0  0  0  0
  1  2  1  0  0  0  0
  2  3  1  0  0  0  0
  2 10  2  3  0  0  0
  3  4  1  0  0  0  0
  4  5  1  0  0  0  0
  5  6  1  0  0  0  0
  5  7  1  0  0  0  0
  7  8  1  0  0  0  0
  7  9  2  0  0  0  0
 10 11  1  0  0  0  0
M  END
>  <Index>
312

>  <ID>
HT0645

>  <class>
0

>  <apol>
23.431551

>  <ast_fraglike>
1

>  <ast_fraglike_ext>
0

>  <ast_violation>
0

>  <ast_violation_ext>
1

>  <a_acc>
3

>  <a_acid>
0

>  <a_aro>
0

>  <a_base>
0

>  <a_count>
18

>  <a_don>
3

>  <a_donacc>
6

>  <a_heavy>
11

>  <a_hyd>
7

>  <a_IC>
39.797523

>  <a_ICM>
2.2109735

>  <a_nB>
0

>  <a_nBr>
0

>  <a_nC>
5

>  <a_nCl>
2

>  <a_nF>
0

>  <a_nH>
7

>  <a_nI>
0

>  <a_nN>
1

>  <a_nO>
2

>  <a_nP>
0

>  <a_nS>
1

>  <balabanJ>
3.395473

>  <BCUT_PEOE_0>
-2.4517879

>  <BCUT_PEOE_1>
-0.55295259

>  <BCUT_PEOE_2>
0.53738391

>  <BCUT_PEOE_3>
2.4954562

>  <BCUT_SLOGP_0>
-2.7384419

>  <BCUT_SLOGP_1>
-0.50144041

>  <BCUT_SLOGP_2>
0.63327479

>  <BCUT_SLOGP_3>
2.4236169

>  <BCUT_SMR_0>
-2.1864576

>  <BCUT_SMR_1>
-0.36762553

>  <BCUT_SMR_2>
0.69579852

>  <BCUT_SMR_3>
2.772387

>  <bpol>
11.070449

>  <b_1rotN>
4

>  <b_1rotR>
0.40000001

>  <b_ar>
0

>  <b_count>
17

>  <b_double>
2

>  <b_heavy>
10

>  <b_max1len>
6

>  <b_rotN>
4

>  <b_rotR>
0.40000001

>  <b_single>
15

>  <b_triple>
0

>  <chi0>
8.8533716

>  <chi0v>
7.7871513

>  <chi0v_C>
2.8618073

>  <chi0_C>
3.1462643

>  <chi1>
5.0745859

>  <chi1v>
4.446661

>  <chi1v_C>
0.98559856

>  <chi1_C>
1.1498299

>  <chiral>
1

>  <chiral_u>
1

>  <density>
1.0348675

>  <diameter>
7

>  <FCharge>
0

>  <GCUT_PEOE_0>
-0.80910873

>  <GCUT_PEOE_1>
-0.41771913

>  <GCUT_PEOE_2>
0.090761222

>  <GCUT_PEOE_3>
2.0119703

>  <GCUT_SLOGP_0>
-1.3634299

>  <GCUT_SLOGP_1>
-0.27611345

>  <GCUT_SLOGP_2>
0.26102445

>  <GCUT_SLOGP_3>
2.0403521

>  <GCUT_SMR_0>
-0.48735383

>  <GCUT_SMR_1>
-0.14507763

>  <GCUT_SMR_2>
0.31976515

>  <GCUT_SMR_3>
2.3077004

>  <Kier1>
11

>  <Kier2>
5.625

>  <Kier3>
5.2892561

>  <KierA1>
13.956733

>  <KierA2>
7.3141847

>  <KierA3>
7.0270772

>  <KierFlex>
9.2801924

>  <lip_acc>
3

>  <lip_don>
3

>  <lip_druglike>
1

>  <lip_violation>
0

>  <logP(o/w)>
-1.19673

>  <logS>
-2.1942599

>  <mr>
4.7479544

>  <mutagenic>
0

>  <nmol>
1

>  <opr_brigid>
1

>  <opr_leadlike>
1

>  <opr_nring>
0

>  <opr_nrot>
4

>  <opr_violation>
0

>  <PC+>
0

>  <PC->
0

>  <PEOE_PC+>
1.1878289

>  <PEOE_PC->
-1.1878289

>  <PEOE_RPC+>
0.2335002

>  <PEOE_RPC->
0.27788243

>  <PEOE_VSA+0>
33.774258

>  <PEOE_VSA+1>
15.02658

>  <PEOE_VSA+2>
20.383986

>  <PEOE_VSA+3>
0

>  <PEOE_VSA+4>
10.324173

>  <PEOE_VSA+5>
14.708499

>  <PEOE_VSA+6>
0

>  <PEOE_VSA-0>
0

>  <PEOE_VSA-1>
59.163895

>  <PEOE_VSA-2>
19.760618

>  <PEOE_VSA-3>
0

>  <PEOE_VSA-4>
0

>  <PEOE_VSA-5>
13.566921

>  <PEOE_VSA-6>
14.418659

>  <PEOE_VSA_FHYD>
0.73639494

>  <PEOE_VSA_FNEG>
0.53155357

>  <PEOE_VSA_FPNEG>
0.13914342

>  <PEOE_VSA_FPOL>
0.26360506

>  <PEOE_VSA_FPOS>
0.4684464

>  <PEOE_VSA_FPPOS>
0.12446165

>  <PEOE_VSA_HYD>
148.10933

>  <PEOE_VSA_NEG>
106.9101

>  <PEOE_VSA_PNEG>
27.98558

>  <PEOE_VSA_POL>
53.018253

>  <PEOE_VSA_POS>
94.217499

>  <PEOE_VSA_PPOS>
25.032671

>  <petitjean>
0.42857143

>  <petitjeanSC>
0.75

>  <Q_PC+>
0

>  <Q_PC->
0

>  <Q_RPC+>
0

>  <Q_RPC->
0

>  <Q_VSA_FHYD>
1

>  <Q_VSA_FNEG>
0

>  <Q_VSA_FPNEG>
0

>  <Q_VSA_FPOL>
0

>  <Q_VSA_FPOS>
1

>  <Q_VSA_FPPOS>
0

>  <Q_VSA_HYD>
201.12759

>  <Q_VSA_NEG>
0

>  <Q_VSA_PNEG>
0

>  <Q_VSA_POL>
0

>  <Q_VSA_POS>
201.12759

>  <Q_VSA_PPOS>
0

>  <radius>
4

>  <reactive>
1

>  <rings>
0

>  <RPC+>
0

>  <RPC->
0

>  <rsynth>
1

>  <SlogP>
1.408

>  <SlogP_VSA0>
32.897186

>  <SlogP_VSA1>
7.7454643

>  <SlogP_VSA2>
27.844185

>  <SlogP_VSA3>
42.61879

>  <SlogP_VSA4>
0

>  <SlogP_VSA5>
1.8657656

>  <SlogP_VSA6>
0

>  <SlogP_VSA7>
17.958216

>  <SlogP_VSA8>
0

>  <SlogP_VSA9>
110.51683

>  <SMR>
4.7859201

>  <SMR_VSA0>
23.862217

>  <SMR_VSA1>
0

>  <SMR_VSA2>
25.385227

>  <SMR_VSA3>
5.8477345

>  <SMR_VSA4>
32.897186

>  <SMR_VSA5>
17.958216

>  <SMR_VSA6>
24.979029

>  <SMR_VSA7>
110.51683

>  <TPSA>
63.32

>  <VAdjEq>
0.64681429

>  <VAdjMa>
4.321928

>  <VDistEq>
2.6703539

>  <VDistMa>
6.570004

>  <vdw_area>
201.12759

>  <vdw_vol>
208.8074

>  <vsa_acc>
0

>  <vsa_acid>
0

>  <vsa_base>
0

>  <vsa_don>
0

>  <vsa_hyd>
128.02412

>  <vsa_other>
14.708499

>  <vsa_pol>
44.876331

>  <Weight>
216.088

>  <weinerPath>
180

>  <weinerPol>
11

>  <zagreb>
44

$$$$