O(CC(O)CNC(C)C)c1ccc(cc1)CCC(OC)=O
  MOE2013           2D

 21 21  0  0  1  0  0  0  0  0999 V2000
    0.0000    0.0000    0.0000 O   0  0  0  0  0  0  0  0  0  0  0  0
   -0.7600    1.2930    0.0000 C   0  0  0  0  0  0  0  0  0  0  0  0
   -2.2600    1.2810    0.0000 C   0  0  3  0  0  0  0  0  0  0  0  0
   -3.0000   -0.0240    0.0000 O   0  0  0  0  0  0  0  0  0  0  0  0
   -3.0200    2.5740    0.0000 C   0  0  0  0  0  0  0  0  0  0  0  0
   -4.5200    2.5620    0.0000 N   0  0  0  0  0  0  0  0  0  0  0  0
   -5.2810    3.8550    0.0000 C   0  0  0  0  0  0  0  0  0  0  0  0
   -4.5410    5.1600    0.0000 C   0  0  0  0  0  0  0  0  0  0  0  0
   -6.7810    3.8440    0.0000 C   0  0  0  0  0  0  0  0  0  0  0  0
    1.5000    0.0120    0.0000 C   0  0  0  0  0  0  0  0  0  0  0  0
    2.2400    1.3170    0.0000 C   0  0  0  0  0  0  0  0  0  0  0  0
    3.7400    1.3290    0.0000 C   0  0  0  0  0  0  0  0  0  0  0  0
    4.5000    0.0360    0.0000 C   0  0  0  0  0  0  0  0  0  0  0  0
    3.7600   -1.2690    0.0000 C   0  0  0  0  0  0  0  0  0  0  0  0
    2.2600   -1.2810    0.0000 C   0  0  0  0  0  0  0  0  0  0  0  0
    6.0000    0.0480    0.0000 C   0  0  0  0  0  0  0  0  0  0  0  0
    6.7600   -1.2460    0.0000 C   0  0  0  0  0  0  0  0  0  0  0  0
    8.2600   -1.2340    0.0000 C   0  0  0  0  0  0  0  0  0  0  0  0
    9.0200   -2.5270    0.0000 O   0  0  0  0  0  0  0  0  0  0  0  0
   10.5200   -2.5150    0.0000 C   0  0  0  0  0  0  0  0  0  0  0  0
    9.0000    0.0710    0.0000 O   0  0  0  0  0  0  0  0  0  0  0  0
  1  2  1  0  0  0  0
  1 10  1  0  0  0  0
  2  3  1  0  0  0  0
  3  4  1  0  0  0  0
  3  5  1  0  0  0  0
  5  6  1  0  0  0  0
  6  7  1  0  0  0  0
  7  8  1  0  0  0  0
  7  9  1  0  0  0  0
 10 11  1  0  0  0  0
 10 15  2  0  0  0  0
 11 12  2  0  0  0  0
 12 13  1  0  0  0  0
 13 14  2  0  0  0  0
 13 16  1  0  0  0  0
 14 15  1  0  0  0  0
 16 17  1  0  0  0  0
 17 18  1  0  0  0  0
 18 19  1  0  0  0  0
 18 21  2  0  0  0  0
 19 20  1  0  0  0  0
M  END
>  <Index>
390

>  <ID>
HT0787

>  <class>
0

>  <apol>
49.137825

>  <ast_fraglike>
0

>  <ast_fraglike_ext>
0

>  <ast_violation>
1

>  <ast_violation_ext>
2

>  <a_acc>
4

>  <a_acid>
0

>  <a_aro>
6

>  <a_base>
0

>  <a_count>
46

>  <a_don>
2

>  <a_donacc>
6

>  <a_heavy>
21

>  <a_hyd>
15

>  <a_IC>
65.987442

>  <a_ICM>
1.4345096

>  <a_nB>
0

>  <a_nBr>
0

>  <a_nC>
16

>  <a_nCl>
0

>  <a_nF>
0

>  <a_nH>
25

>  <a_nI>
0

>  <a_nN>
1

>  <a_nO>
4

>  <a_nP>
0

>  <a_nS>
0

>  <balabanJ>
2.0773673

>  <BCUT_PEOE_0>
-2.6557524

>  <BCUT_PEOE_1>
-0.50749278

>  <BCUT_PEOE_2>
0.55656087

>  <BCUT_PEOE_3>
2.5983565

>  <BCUT_SLOGP_0>
-2.8163352

>  <BCUT_SLOGP_1>
-0.49885365

>  <BCUT_SLOGP_2>
0.56602257

>  <BCUT_SLOGP_3>
2.5256412

>  <BCUT_SMR_0>
-2.3944128

>  <BCUT_SMR_1>
-0.38360265

>  <BCUT_SMR_2>
0.65677661

>  <BCUT_SMR_3>
2.8449926

>  <bpol>
32.780174

>  <b_1rotN>
9

>  <b_1rotR>
0.42857143

>  <b_ar>
6

>  <b_count>
46

>  <b_double>
1

>  <b_heavy>
21

>  <b_max1len>
7

>  <b_rotN>
10

>  <b_rotR>
0.47619048

>  <b_single>
39

>  <b_triple>
0

>  <chi0>
15.664926

>  <chi0v>
12.964487

>  <chi0v_C>
10.792529

>  <chi0_C>
11.543606

>  <chi1>
10.007239

>  <chi1v>
7.2093945

>  <chi1v_C>
4.999671

>  <chi1_C>
5.9206867

>  <chiral>
1

>  <chiral_u>
1

>  <density>
0.70249271

>  <diameter>
15

>  <FCharge>
0

>  <GCUT_PEOE_0>
-0.84582675

>  <GCUT_PEOE_1>
-0.38180134

>  <GCUT_PEOE_2>
0.076458752

>  <GCUT_PEOE_3>
2.5061386

>  <GCUT_SLOGP_0>
-1.1534548

>  <GCUT_SLOGP_1>
-0.34816432

>  <GCUT_SLOGP_2>
0.10585039

>  <GCUT_SLOGP_3>
2.5433092

>  <GCUT_SMR_0>
-0.52160484

>  <GCUT_SMR_1>
-0.20348637

>  <GCUT_SMR_2>
0.13872719

>  <GCUT_SMR_3>
2.7489424

>  <Kier1>
19.047619

>  <Kier2>
10.680473

>  <Kier3>
8.8888893

>  <KierA1>
16.169367

>  <KierA2>
8.9877386

>  <KierA3>
7.4300942

>  <KierFlex>
6.9202881

>  <lip_acc>
5

>  <lip_don>
2

>  <lip_druglike>
1

>  <lip_violation>
0

>  <logP(o/w)>
1.818

>  <logS>
-1.9792

>  <mr>
8.3007307

>  <mutagenic>
0

>  <nmol>
1

>  <opr_brigid>
6

>  <opr_leadlike>
1

>  <opr_nring>
1

>  <opr_nrot>
9

>  <opr_violation>
0

>  <PC+>
0

>  <PC->
0

>  <PEOE_PC+>
1.9654649

>  <PEOE_PC->
-1.9654649

>  <PEOE_RPC+>
0.13341303

>  <PEOE_RPC->
0.19752966

>  <PEOE_VSA+0>
105.48727

>  <PEOE_VSA+1>
70.968605

>  <PEOE_VSA+2>
8.6190128

>  <PEOE_VSA+3>
0

>  <PEOE_VSA+4>
10.324173

>  <PEOE_VSA+5>
14.708499

>  <PEOE_VSA+6>
0

>  <PEOE_VSA-0>
72.915016

>  <PEOE_VSA-1>
24.509808

>  <PEOE_VSA-2>
0

>  <PEOE_VSA-3>
0

>  <PEOE_VSA-4>
0

>  <PEOE_VSA-5>
13.566921

>  <PEOE_VSA-6>
12.911943

>  <PEOE_VSA_FHYD>
0.84577906

>  <PEOE_VSA_FNEG>
0.37095663

>  <PEOE_VSA_FPNEG>
0.07927537

>  <PEOE_VSA_FPOL>
0.15422097

>  <PEOE_VSA_FPOS>
0.62904334

>  <PEOE_VSA_FPPOS>
0.074945599

>  <PEOE_VSA_HYD>
282.49973

>  <PEOE_VSA_NEG>
123.90369

>  <PEOE_VSA_PNEG>
26.478865

>  <PEOE_VSA_POL>
51.511536

>  <PEOE_VSA_POS>
210.10756

>  <PEOE_VSA_PPOS>
25.032671

>  <petitjean>
0.46666667

>  <petitjeanSC>
0.875

>  <Q_PC+>
0

>  <Q_PC->
0

>  <Q_RPC+>
0

>  <Q_RPC->
0

>  <Q_VSA_FHYD>
1

>  <Q_VSA_FNEG>
0

>  <Q_VSA_FPNEG>
0

>  <Q_VSA_FPOL>
0

>  <Q_VSA_FPOS>
1

>  <Q_VSA_FPPOS>
0

>  <Q_VSA_HYD>
334.01126

>  <Q_VSA_NEG>
0

>  <Q_VSA_PNEG>
0

>  <Q_VSA_POL>
0

>  <Q_VSA_POS>
334.01126

>  <Q_VSA_PPOS>
0

>  <radius>
8

>  <reactive>
0

>  <rings>
1

>  <RPC+>
0

>  <RPC->
0

>  <rsynth>
1

>  <SlogP>
1.52987

>  <SlogP_VSA0>
54.395866

>  <SlogP_VSA1>
7.7454643

>  <SlogP_VSA2>
45.312721

>  <SlogP_VSA3>
39.365837

>  <SlogP_VSA4>
3.185575

>  <SlogP_VSA5>
54.252274

>  <SlogP_VSA6>
0

>  <SlogP_VSA7>
70.572739

>  <SlogP_VSA8>
18.868406

>  <SlogP_VSA9>
71.895454

>  <SMR>
8.1419497

>  <SMR_VSA0>
34.862103

>  <SMR_VSA1>
36.385113

>  <SMR_VSA2>
18.01075

>  <SMR_VSA3>
18.879622

>  <SMR_VSA4>
0

>  <SMR_VSA5>
108.30955

>  <SMR_VSA6>
47.111301

>  <SMR_VSA7>
102.0359

>  <TPSA>
67.790001

>  <VAdjEq>
0.45371634

>  <VAdjMa>
5.3923173

>  <VDistEq>
3.6828113

>  <VDistMa>
8.4245405

>  <vdw_area>
334.01126

>  <vdw_vol>
420.47266

>  <vsa_acc>
16.070677

>  <vsa_acid>
0

>  <vsa_base>
0

>  <vsa_don>
0

>  <vsa_hyd>
257.5094

>  <vsa_other>
17.212255

>  <vsa_pol>
35.320175

>  <Weight>
295.379

>  <weinerPath>
1212

>  <weinerPol>
24

>  <zagreb>
94

$$$$