Oc1cc2CC[C@H]3[C@@H]4C[C@@H](O)[C@H](O)[C@]4(CC[C@@H]3c2cc1)C
  MOE2013           2D

 21 24  0  0  1  0  0  0  0  0999 V2000
    0.0000    0.0000    0.0000 O   0  0  0  0  0  0  0  0  0  0  0  0
   -1.5000   -0.0010    0.0000 C   0  0  0  0  0  0  0  0  0  0  0  0
   -2.2510    1.2970    0.0000 C   0  0  0  0  0  0  0  0  0  0  0  0
   -3.7510    1.2960    0.0000 C   0  0  0  0  0  0  0  0  0  0  0  0
   -4.5020    2.5950    0.0000 C   0  0  0  0  0  0  0  0  0  0  0  0
   -6.0020    2.5940    0.0000 C   0  0  0  0  0  0  0  0  0  0  0  0
   -6.7510    1.2940    0.0000 C   0  0  1  0  0  0  0  0  0  0  0  0
   -8.2510    1.2930    0.0000 C   0  0  2  0  0  0  0  0  0  0  0  0
   -9.2550    2.4070    0.0000 C   0  0  0  0  0  0  0  0  0  0  0  0
  -10.6250    1.7960    0.0000 C   0  0  1  0  0  0  0  0  0  0  0  0
  -11.9250    2.5450    0.0000 O   0  0  0  0  0  0  0  0  0  0  0  0
  -10.4670    0.3040    0.0000 C   0  0  2  0  0  0  0  0  0  0  0  0
  -11.5810   -0.7000    0.0000 O   0  0  0  0  0  0  0  0  0  0  0  0
   -9.0000   -0.0060    0.0000 C   0  0  1  0  0  0  0  0  0  0  0  0
   -8.2490   -1.3050    0.0000 C   0  0  0  0  0  0  0  0  0  0  0  0
   -6.7490   -1.3040    0.0000 C   0  0  0  0  0  0  0  0  0  0  0  0
   -6.0000   -0.0040    0.0000 C   0  0  2  0  0  0  0  0  0  0  0  0
   -4.5000   -0.0030    0.0000 C   0  0  0  0  0  0  0  0  0  0  0  0
   -3.7490   -1.3020    0.0000 C   0  0  0  0  0  0  0  0  0  0  0  0
   -2.2490   -1.3010    0.0000 C   0  0  0  0  0  0  0  0  0  0  0  0
   -9.8810   -1.2210    0.0000 C   0  0  0  0  0  0  0  0  0  0  0  0
  1  2  1  0  0  0  0
  2  3  1  0  0  0  0
  2 20  2  0  0  0  0
  3  4  2  0  0  0  0
  4  5  1  0  0  0  0
  4 18  1  0  0  0  0
  5  6  1  0  0  0  0
  7  6  1  6  0  0  0
  7  8  1  0  0  0  0
  7 17  1  0  0  0  0
  8  9  1  1  0  0  0
  8 14  1  0  0  0  0
  9 10  1  0  0  0  0
 10 11  1  6  0  0  0
 10 12  1  0  0  0  0
 12 13  1  1  0  0  0
 12 14  1  0  0  0  0
 14 15  1  0  0  0  0
 14 21  1  1  0  0  0
 15 16  1  0  0  0  0
 17 16  1  1  0  0  0
 17 18  1  0  0  0  0
 18 19  2  0  0  0  0
 19 20  1  0  0  0  0
M  END
>  <Index>
393

>  <ID>
HT0797

>  <class>
0

>  <apol>
50.089031

>  <ast_fraglike>
1

>  <ast_fraglike_ext>
1

>  <ast_violation>
0

>  <ast_violation_ext>
0

>  <a_acc>
3

>  <a_acid>
0

>  <a_aro>
6

>  <a_base>
0

>  <a_count>
45

>  <a_don>
3

>  <a_donacc>
6

>  <a_heavy>
21

>  <a_hyd>
18

>  <a_IC>
57.28075

>  <a_ICM>
1.2729056

>  <a_nB>
0

>  <a_nBr>
0

>  <a_nC>
18

>  <a_nCl>
0

>  <a_nF>
0

>  <a_nH>
24

>  <a_nI>
0

>  <a_nN>
0

>  <a_nO>
3

>  <a_nP>
0

>  <a_nS>
0

>  <balabanJ>
1.5780936

>  <BCUT_PEOE_0>
-2.8833909

>  <BCUT_PEOE_1>
-0.56545192

>  <BCUT_PEOE_2>
0.65024519

>  <BCUT_PEOE_3>
2.9386005

>  <BCUT_SLOGP_0>
-2.8056743

>  <BCUT_SLOGP_1>
-0.5525462

>  <BCUT_SLOGP_2>
0.58882391

>  <BCUT_SLOGP_3>
2.99067

>  <BCUT_SMR_0>
-2.630348

>  <BCUT_SMR_1>
-0.44356212

>  <BCUT_SMR_2>
0.76373404

>  <BCUT_SMR_3>
3.1823053

>  <bpol>
26.236967

>  <b_1rotN>
0

>  <b_1rotR>
0

>  <b_ar>
6

>  <b_count>
48

>  <b_double>
0

>  <b_heavy>
24

>  <b_max1len>
3

>  <b_rotN>
0

>  <b_rotR>
0

>  <b_single>
42

>  <b_triple>
0

>  <chi0>
14.775657

>  <chi0v>
12.495976

>  <chi0v_C>
11.154336

>  <chi0_C>
11.775657

>  <chi1>
10.003856

>  <chi1v>
8.184164

>  <chi1v_C>
7.444159

>  <chi1_C>
8.2718048

>  <chiral>
6

>  <chiral_u>
0

>  <density>
0.71049047

>  <diameter>
10

>  <FCharge>
0

>  <GCUT_PEOE_0>
-0.79675961

>  <GCUT_PEOE_1>
-0.38606715

>  <GCUT_PEOE_2>
0.086709164

>  <GCUT_PEOE_3>
3.1268961

>  <GCUT_SLOGP_0>
-0.9300651

>  <GCUT_SLOGP_1>
-0.33904243

>  <GCUT_SLOGP_2>
0.055582512

>  <GCUT_SLOGP_3>
3.2041955

>  <GCUT_SMR_0>
-0.53571004

>  <GCUT_SMR_1>
-0.22952813

>  <GCUT_SMR_2>
0.17230679

>  <GCUT_SMR_3>
3.3582544

>  <Kier1>
14.583333

>  <Kier2>
5

>  <Kier3>
2.0663266

>  <KierA1>
12.967774

>  <KierA2>
4.418582

>  <KierA3>
1.8173711

>  <KierFlex>
2.7285321

>  <lip_acc>
3

>  <lip_don>
3

>  <lip_druglike>
1

>  <lip_violation>
0

>  <logP(o/w)>
2.836

>  <logS>
-3.81408

>  <mr>
8.0435925

>  <mutagenic>
0

>  <nmol>
1

>  <opr_brigid>
20

>  <opr_leadlike>
1

>  <opr_nring>
4

>  <opr_nrot>
0

>  <opr_violation>
0

>  <PC+>
0

>  <PC->
0

>  <PEOE_PC+>
1.6461399

>  <PEOE_PC->
-1.6461399

>  <PEOE_RPC+>
0.13201395

>  <PEOE_RPC->
0.23643886

>  <PEOE_VSA+0>
68.246178

>  <PEOE_VSA+1>
39.595306

>  <PEOE_VSA+2>
0

>  <PEOE_VSA+3>
0

>  <PEOE_VSA+4>
30.972517

>  <PEOE_VSA+5>
0

>  <PEOE_VSA+6>
0

>  <PEOE_VSA-0>
72.433456

>  <PEOE_VSA-1>
31.002581

>  <PEOE_VSA-2>
0

>  <PEOE_VSA-3>
0

>  <PEOE_VSA-4>
0

>  <PEOE_VSA-5>
0

>  <PEOE_VSA-6>
23.30262

>  <PEOE_VSA_FHYD>
0.79561442

>  <PEOE_VSA_FNEG>
0.47726375

>  <PEOE_VSA_FPNEG>
0.087751411

>  <PEOE_VSA_FPOL>
0.20438559

>  <PEOE_VSA_FPOS>
0.52273625

>  <PEOE_VSA_FPPOS>
0.11663418

>  <PEOE_VSA_HYD>
211.27751

>  <PEOE_VSA_NEG>
126.73866

>  <PEOE_VSA_PNEG>
23.30262

>  <PEOE_VSA_POL>
54.275139

>  <PEOE_VSA_POS>
138.814

>  <PEOE_VSA_PPOS>
30.972517

>  <petitjean>
0.5

>  <petitjeanSC>
1

>  <Q_PC+>
0

>  <Q_PC->
0

>  <Q_RPC+>
0

>  <Q_RPC->
0

>  <Q_VSA_FHYD>
1

>  <Q_VSA_FNEG>
0

>  <Q_VSA_FPNEG>
0

>  <Q_VSA_FPOL>
0

>  <Q_VSA_FPOS>
1

>  <Q_VSA_FPPOS>
0

>  <Q_VSA_HYD>
265.55264

>  <Q_VSA_NEG>
0

>  <Q_VSA_PNEG>
0

>  <Q_VSA_POL>
0

>  <Q_VSA_POS>
265.55264

>  <Q_VSA_PPOS>
0

>  <radius>
5

>  <reactive>
0

>  <rings>
4

>  <RPC+>
0

>  <RPC->
0

>  <rsynth>
0.42857143

>  <SlogP>
2.5799699

>  <SlogP_VSA0>
76.155678

>  <SlogP_VSA1>
0

>  <SlogP_VSA2>
12.937299

>  <SlogP_VSA3>
0

>  <SlogP_VSA4>
15.192742

>  <SlogP_VSA5>
18.868406

>  <SlogP_VSA6>
4.4107962

>  <SlogP_VSA7>
52.929554

>  <SlogP_VSA8>
75.473625

>  <SlogP_VSA9>
38.569443

>  <SMR>
8.0120401

>  <SMR_VSA0>
0

>  <SMR_VSA1>
76.155678

>  <SMR_VSA2>
8.8215923

>  <SMR_VSA3>
28.962673

>  <SMR_VSA4>
0

>  <SMR_VSA5>
147.27158

>  <SMR_VSA6>
0

>  <SMR_VSA7>
33.326015

>  <TPSA>
60.689999

>  <VAdjEq>
0.49641782

>  <VAdjMa>
5.5849624

>  <VDistEq>
3.0047233

>  <VDistMa>
8.4995279

>  <vdw_area>
265.55264

>  <vdw_vol>
405.8985

>  <vsa_acc>
0

>  <vsa_acid>
0

>  <vsa_base>
0

>  <vsa_don>
0

>  <vsa_hyd>
192.29466

>  <vsa_other>
0

>  <vsa_pol>
40.700764

>  <Weight>
288.38699

>  <weinerPath>
826

>  <weinerPol>
42

>  <zagreb>
124

$$$$