O=C1C[C@@H]2CC[C@H]3[C@@H]4CC[C@H](OC(=O)CC)[C@]4(CC[C@@H]3[C@]2(C[C@H]1C)C)C
  MOE2013           2D

 26 29  0  0  1  0  0  0  0  0999 V2000
    0.0000    0.0000    0.0000 O   0  0  0  0  0  0  0  0  0  0  0  0
    1.5000   -0.0110    0.0000 C   0  0  0  0  0  0  0  0  0  0  0  0
    2.2410   -1.3150    0.0000 C   0  0  0  0  0  0  0  0  0  0  0  0
    3.7410   -1.3260    0.0000 C   0  0  2  0  0  0  0  0  0  0  0  0
    4.4810   -2.6300    0.0000 C   0  0  0  0  0  0  0  0  0  0  0  0
    5.9810   -2.6410    0.0000 C   0  0  0  0  0  0  0  0  0  0  0  0
    6.7410   -1.3470    0.0000 C   0  0  1  0  0  0  0  0  0  0  0  0
    8.2410   -1.3580    0.0000 C   0  0  2  0  0  0  0  0  0  0  0  0
    9.2360   -2.4790    0.0000 C   0  0  0  0  0  0  0  0  0  0  0  0
   10.6110   -1.8790    0.0000 C   0  0  0  0  0  0  0  0  0  0  0  0
   10.4650   -0.3860    0.0000 C   0  0  2  0  0  0  0  0  0  0  0  0
   11.5870    0.6100    0.0000 O   0  0  0  0  0  0  0  0  0  0  0  0
   13.0100    0.1360    0.0000 C   0  0  0  0  0  0  0  0  0  0  0  0
   13.3110   -1.3330    0.0000 O   0  0  0  0  0  0  0  0  0  0  0  0
   14.1320    1.1320    0.0000 C   0  0  0  0  0  0  0  0  0  0  0  0
   15.5550    0.6580    0.0000 C   0  0  0  0  0  0  0  0  0  0  0  0
    9.0000   -0.0640    0.0000 C   0  0  1  0  0  0  0  0  0  0  0  0
    8.2590    1.2400    0.0000 C   0  0  0  0  0  0  0  0  0  0  0  0
    6.7590    1.2510    0.0000 C   0  0  0  0  0  0  0  0  0  0  0  0
    6.0000   -0.0430    0.0000 C   0  0  2  0  0  0  0  0  0  0  0  0
    4.5000   -0.0320    0.0000 C   0  0  1  0  0  0  0  0  0  0  0  0
    3.7590    1.2720    0.0000 C   0  0  0  0  0  0  0  0  0  0  0  0
    2.2590    1.2830    0.0000 C   0  0  1  0  0  0  0  0  0  0  0  0
    1.5180    2.5870    0.0000 C   0  0  0  0  0  0  0  0  0  0  0  0
    5.2820    1.2480    0.0000 C   0  0  0  0  0  0  0  0  0  0  0  0
    9.8900    1.1430    0.0000 C   0  0  0  0  0  0  0  0  0  0  0  0
  1  2  2  0  0  0  0
  2  3  1  0  0  0  0
  2 23  1  0  0  0  0
  4  3  1  1  0  0  0
  4  5  1  0  0  0  0
  4 21  1  0  0  0  0
  5  6  1  0  0  0  0
  7  6  1  6  0  0  0
  7  8  1  0  0  0  0
  7 20  1  0  0  0  0
  8  9  1  1  0  0  0
  8 17  1  0  0  0  0
  9 10  1  0  0  0  0
 10 11  1  0  0  0  0
 11 12  1  1  0  0  0
 11 17  1  0  0  0  0
 12 13  1  0  0  0  0
 13 14  2  0  0  0  0
 13 15  1  0  0  0  0
 15 16  1  0  0  0  0
 17 18  1  0  0  0  0
 17 26  1  1  0  0  0
 18 19  1  0  0  0  0
 20 19  1  1  0  0  0
 20 21  1  0  0  0  0
 21 22  1  0  0  0  0
 21 25  1  1  0  0  0
 22 23  1  0  0  0  0
 23 24  1  6  0  0  0
M  END
>  <Index>
349

>  <ID>
HT0723

>  <class>
0

>  <apol>
66.890549

>  <ast_fraglike>
0

>  <ast_fraglike_ext>
0

>  <ast_violation>
2

>  <ast_violation_ext>
2

>  <a_acc>
2

>  <a_acid>
0

>  <a_aro>
0

>  <a_base>
0

>  <a_count>
62

>  <a_don>
0

>  <a_donacc>
2

>  <a_heavy>
26

>  <a_hyd>
21

>  <a_IC>
74.246056

>  <a_ICM>
1.197517

>  <a_nB>
0

>  <a_nBr>
0

>  <a_nC>
23

>  <a_nCl>
0

>  <a_nF>
0

>  <a_nH>
36

>  <a_nI>
0

>  <a_nN>
0

>  <a_nO>
3

>  <a_nP>
0

>  <a_nS>
0

>  <balabanJ>
1.5509207

>  <BCUT_PEOE_0>
-2.9869878

>  <BCUT_PEOE_1>
-0.39752507

>  <BCUT_PEOE_2>
0.24617371

>  <BCUT_PEOE_3>
2.9806411

>  <BCUT_SLOGP_0>
-2.9117885

>  <BCUT_SLOGP_1>
-0.2998518

>  <BCUT_SLOGP_2>
0.27315369

>  <BCUT_SLOGP_3>
3.056123

>  <BCUT_SMR_0>
-2.7333546

>  <BCUT_SMR_1>
-0.18176314

>  <BCUT_SMR_2>
0.41207808

>  <BCUT_SMR_3>
3.2330837

>  <bpol>
43.18745

>  <b_1rotN>
2

>  <b_1rotR>
0.068965517

>  <b_ar>
0

>  <b_count>
65

>  <b_double>
2

>  <b_heavy>
29

>  <b_max1len>
3

>  <b_rotN>
3

>  <b_rotR>
0.10344828

>  <b_single>
63

>  <b_triple>
0

>  <chi0>
18.689871

>  <chi0v>
17.052807

>  <chi0v_C>
15.828063

>  <chi0_C>
15.982763

>  <chi1>
12.291697

>  <chi1v>
11.014525

>  <chi1v_C>
10.166451

>  <chi1_C>
10.320499

>  <chiral>
8

>  <chiral_u>
0

>  <density>
0.67617542

>  <diameter>
13

>  <FCharge>
0

>  <GCUT_PEOE_0>
-0.79959857

>  <GCUT_PEOE_1>
-0.38105419

>  <GCUT_PEOE_2>
-0.052725114

>  <GCUT_PEOE_3>
3.4044888

>  <GCUT_SLOGP_0>
-0.85158074

>  <GCUT_SLOGP_1>
-0.28673828

>  <GCUT_SLOGP_2>
-0.017228667

>  <GCUT_SLOGP_3>
3.4838958

>  <GCUT_SMR_0>
-0.5419448

>  <GCUT_SMR_1>
-0.19257933

>  <GCUT_SMR_2>
0.06350448

>  <GCUT_SMR_3>
3.6241426

>  <Kier1>
19.322235

>  <Kier2>
6.8052931

>  <Kier3>
2.9512141

>  <KierA1>
17.981146

>  <KierA2>
6.3140187

>  <KierA3>
2.732311

>  <KierFlex>
4.3666654

>  <lip_acc>
3

>  <lip_don>
0

>  <lip_druglike>
1

>  <lip_violation>
1

>  <logP(o/w)>
5.0879998

>  <logS>
-5.5682201

>  <mr>
10.311576

>  <mutagenic>
0

>  <nmol>
1

>  <opr_brigid>
20

>  <opr_leadlike>
1

>  <opr_nring>
4

>  <opr_nrot>
2

>  <opr_violation>
1

>  <PC+>
0

>  <PC->
0

>  <PEOE_PC+>
1.555882

>  <PEOE_PC->
-1.555882

>  <PEOE_RPC+>
0.16850065

>  <PEOE_RPC->
0.2000982

>  <PEOE_VSA+0>
166.69113

>  <PEOE_VSA+1>
9.1703148

>  <PEOE_VSA+2>
8.458519

>  <PEOE_VSA+3>
0

>  <PEOE_VSA+4>
0

>  <PEOE_VSA+5>
14.708499

>  <PEOE_VSA+6>
0

>  <PEOE_VSA-0>
60.909191

>  <PEOE_VSA-1>
74.990707

>  <PEOE_VSA-2>
0

>  <PEOE_VSA-3>
0

>  <PEOE_VSA-4>
0

>  <PEOE_VSA-5>
27.133842

>  <PEOE_VSA-6>
2.503756

>  <PEOE_VSA_FHYD>
0.8783592

>  <PEOE_VSA_FNEG>
0.45406735

>  <PEOE_VSA_FPNEG>
0.081295565

>  <PEOE_VSA_FPOL>
0.1216408

>  <PEOE_VSA_FPOS>
0.54593265

>  <PEOE_VSA_FPPOS>
0.040345233

>  <PEOE_VSA_HYD>
320.21988

>  <PEOE_VSA_NEG>
165.53751

>  <PEOE_VSA_PNEG>
29.637598

>  <PEOE_VSA_POL>
44.346096

>  <PEOE_VSA_POS>
199.02847

>  <PEOE_VSA_PPOS>
14.708499

>  <petitjean>
0.46153846

>  <petitjeanSC>
0.85714287

>  <Q_PC+>
0

>  <Q_PC->
0

>  <Q_RPC+>
0

>  <Q_RPC->
0

>  <Q_VSA_FHYD>
1

>  <Q_VSA_FNEG>
0

>  <Q_VSA_FPNEG>
0

>  <Q_VSA_FPOL>
0

>  <Q_VSA_FPOS>
1

>  <Q_VSA_FPPOS>
0

>  <Q_VSA_HYD>
364.56598

>  <Q_VSA_NEG>
0

>  <Q_VSA_PNEG>
0

>  <Q_VSA_POL>
0

>  <Q_VSA_POS>
364.56598

>  <Q_VSA_PPOS>
0

>  <radius>
7

>  <reactive>
1

>  <rings>
4

>  <RPC+>
0

>  <RPC->
0

>  <rsynth>
0.15384616

>  <SlogP>
5.1659999

>  <SlogP_VSA0>
0

>  <SlogP_VSA1>
13.433075

>  <SlogP_VSA2>
65.19297

>  <SlogP_VSA3>
0

>  <SlogP_VSA4>
22.05398

>  <SlogP_VSA5>
0

>  <SlogP_VSA6>
0

>  <SlogP_VSA7>
0

>  <SlogP_VSA8>
169.81564

>  <SlogP_VSA9>
133.30406

>  <SMR>
10.1452

>  <SMR_VSA0>
58.724319

>  <SMR_VSA1>
0

>  <SMR_VSA2>
22.05398

>  <SMR_VSA3>
6.4686494

>  <SMR_VSA4>
0

>  <SMR_VSA5>
169.81564

>  <SMR_VSA6>
13.433075

>  <SMR_VSA7>
133.30406

>  <TPSA>
43.369999

>  <VAdjEq>
0.42228913

>  <VAdjMa>
5.8579812

>  <VDistEq>
3.3297336

>  <VDistMa>
9.1084957

>  <vdw_area>
364.56598

>  <vdw_vol>
533.2019

>  <vsa_acc>
27.133842

>  <vsa_acid>
0

>  <vsa_base>
0

>  <vsa_don>
0

>  <vsa_hyd>
279.41147

>  <vsa_other>
25.670774

>  <vsa_pol>
27.133842

>  <Weight>
360.53799

>  <weinerPath>
1542

>  <weinerPol>
53

>  <zagreb>
150

$$$$