O(C(=O)C1(CCN(CC1)CCC(C#N)(c1ccccc1)c1ccccc1)c1ccccc1)CC
  MOE2013           2D

 34 37  0  0  0  0  0  0  0  0999 V2000
    0.0000    0.0000    0.0000 O   0  0  0  0  0  0  0  0  0  0  0  0
    0.2900   -1.4720    0.0000 C   0  0  0  0  0  0  0  0  0  0  0  0
    1.7100   -1.9560    0.0000 O   0  0  0  0  0  0  0  0  0  0  0  0
   -0.8400   -2.4590    0.0000 C   0  0  0  0  0  0  0  0  0  0  0  0
   -1.5630   -3.7720    0.0000 C   0  0  0  0  0  0  0  0  0  0  0  0
   -3.0630   -3.8020    0.0000 C   0  0  0  0  0  0  0  0  0  0  0  0
   -3.8390   -2.5190    0.0000 N   0  0  0  0  0  0  0  0  0  0  0  0
   -3.1150   -1.2050    0.0000 C   0  0  0  0  0  0  0  0  0  0  0  0
   -1.6150   -1.1750    0.0000 C   0  0  0  0  0  0  0  0  0  0  0  0
   -5.3390   -2.5490    0.0000 C   0  0  0  0  0  0  0  0  0  0  0  0
   -6.1150   -1.2650    0.0000 C   0  0  0  0  0  0  0  0  0  0  0  0
   -7.6140   -1.2950    0.0000 C   0  0  0  0  0  0  0  0  0  0  0  0
   -7.5840   -2.7950    0.0000 C   0  0  0  0  0  0  0  0  0  0  0  0
   -7.5540   -4.2940    0.0000 N   0  0  0  0  0  0  0  0  0  0  0  0
   -9.1140   -1.3250    0.0000 C   0  0  0  0  0  0  0  0  0  0  0  0
   -9.8900   -0.0410    0.0000 C   0  0  0  0  0  0  0  0  0  0  0  0
  -11.3890   -0.0710    0.0000 C   0  0  0  0  0  0  0  0  0  0  0  0
  -12.1130   -1.3850    0.0000 C   0  0  0  0  0  0  0  0  0  0  0  0
  -11.3370   -2.6690    0.0000 C   0  0  0  0  0  0  0  0  0  0  0  0
   -9.8380   -2.6390    0.0000 C   0  0  0  0  0  0  0  0  0  0  0  0
   -7.6440    0.2050    0.0000 C   0  0  0  0  0  0  0  0  0  0  0  0
   -8.9580    0.9290    0.0000 C   0  0  0  0  0  0  0  0  0  0  0  0
   -8.9880    2.4280    0.0000 C   0  0  0  0  0  0  0  0  0  0  0  0
   -7.7040    3.2040    0.0000 C   0  0  0  0  0  0  0  0  0  0  0  0
   -6.3900    2.4800    0.0000 C   0  0  0  0  0  0  0  0  0  0  0  0
   -6.3600    0.9810    0.0000 C   0  0  0  0  0  0  0  0  0  0  0  0
    0.1470   -3.5880    0.0000 C   0  0  0  0  0  0  0  0  0  0  0  0
   -0.3370   -5.0080    0.0000 C   0  0  0  0  0  0  0  0  0  0  0  0
    0.6500   -6.1370    0.0000 C   0  0  0  0  0  0  0  0  0  0  0  0
    2.1210   -5.8470    0.0000 C   0  0  0  0  0  0  0  0  0  0  0  0
    2.6060   -4.4280    0.0000 C   0  0  0  0  0  0  0  0  0  0  0  0
    1.6190   -3.2980    0.0000 C   0  0  0  0  0  0  0  0  0  0  0  0
    1.1300    0.9870    0.0000 C   0  0  0  0  0  0  0  0  0  0  0  0
    0.8400    2.4590    0.0000 C   0  0  0  0  0  0  0  0  0  0  0  0
  1  2  1  0  0  0  0
  1 33  1  0  0  0  0
  2  3  2  0  0  0  0
  2  4  1  0  0  0  0
  4  5  1  0  0  0  0
  4  9  1  0  0  0  0
  4 27  1  0  0  0  0
  5  6  1  0  0  0  0
  6  7  1  0  0  0  0
  7  8  1  0  0  0  0
  7 10  1  0  0  0  0
  8  9  1  0  0  0  0
 10 11  1  0  0  0  0
 11 12  1  0  0  0  0
 12 13  1  0  0  0  0
 12 15  1  0  0  0  0
 12 21  1  0  0  0  0
 13 14  3  0  0  0  0
 15 16  1  0  0  0  0
 15 20  2  0  0  0  0
 16 17  2  0  0  0  0
 17 18  1  0  0  0  0
 18 19  2  0  0  0  0
 19 20  1  0  0  0  0
 21 22  1  0  0  0  0
 21 26  2  0  0  0  0
 22 23  2  0  0  0  0
 23 24  1  0  0  0  0
 24 25  2  0  0  0  0
 25 26  1  0  0  0  0
 27 28  1  0  0  0  0
 27 32  2  0  0  0  0
 28 29  2  0  0  0  0
 29 30  1  0  0  0  0
 30 31  2  0  0  0  0
 31 32  1  0  0  0  0
 33 34  1  0  0  0  0
M  END
>  <Index>
334

>  <ID>
HT0688

>  <class>
0

>  <apol>
77.941376

>  <ast_fraglike>
0

>  <ast_fraglike_ext>
0

>  <ast_violation>
2

>  <ast_violation_ext>
3

>  <a_acc>
3

>  <a_acid>
0

>  <a_aro>
18

>  <a_base>
0

>  <a_count>
66

>  <a_don>
0

>  <a_donacc>
3

>  <a_heavy>
34

>  <a_hyd>
28

>  <a_IC>
87.723297

>  <a_ICM>
1.3291408

>  <a_nB>
0

>  <a_nBr>
0

>  <a_nC>
30

>  <a_nCl>
0

>  <a_nF>
0

>  <a_nH>
32

>  <a_nI>
0

>  <a_nN>
2

>  <a_nO>
2

>  <a_nP>
0

>  <a_nS>
0

>  <balabanJ>
1.4132288

>  <BCUT_PEOE_0>
-2.7916937

>  <BCUT_PEOE_1>
-0.58371198

>  <BCUT_PEOE_2>
0.63274097

>  <BCUT_PEOE_3>
2.7636526

>  <BCUT_SLOGP_0>
-2.8382185

>  <BCUT_SLOGP_1>
-0.48134845

>  <BCUT_SLOGP_2>
0.73168617

>  <BCUT_SLOGP_3>
2.7408397

>  <BCUT_SMR_0>
-2.5301015

>  <BCUT_SMR_1>
-0.43808031

>  <BCUT_SMR_2>
0.78561783

>  <BCUT_SMR_3>
3.0158865

>  <bpol>
40.496624

>  <b_1rotN>
8

>  <b_1rotR>
0.21621622

>  <b_ar>
18

>  <b_count>
69

>  <b_double>
1

>  <b_heavy>
37

>  <b_max1len>
4

>  <b_rotN>
10

>  <b_rotR>
0.27027026

>  <b_single>
49

>  <b_triple>
1

>  <chi0>
23.857313

>  <chi0v>
19.820925

>  <chi0v_C>
18.110001

>  <chi0_C>
20.572857

>  <chi1>
16.642962

>  <chi1v>
12.119031

>  <chi1v_C>
10.249818

>  <chi1_C>
13.225511

>  <chiral>
0

>  <chiral_u>
0

>  <density>
0.67671549

>  <diameter>
14

>  <FCharge>
0

>  <GCUT_PEOE_0>
-0.85720557

>  <GCUT_PEOE_1>
-0.38958266

>  <GCUT_PEOE_2>
0.067191362

>  <GCUT_PEOE_3>
3.0009222

>  <GCUT_SLOGP_0>
-0.95357555

>  <GCUT_SLOGP_1>
-0.26569027

>  <GCUT_SLOGP_2>
0.14903161

>  <GCUT_SLOGP_3>
3.044189

>  <GCUT_SMR_0>
-0.52083647

>  <GCUT_SMR_1>
-0.19924568

>  <GCUT_SMR_2>
0.1836745

>  <GCUT_SMR_3>
3.2526844

>  <Kier1>
27.046019

>  <Kier2>
12.991926

>  <Kier3>
6.123457

>  <KierA1>
20.138866

>  <KierA2>
9.5815248

>  <KierA3>
4.4856167

>  <KierFlex>
5.6753249

>  <lip_acc>
4

>  <lip_don>
0

>  <lip_druglike>
1

>  <lip_violation>
1

>  <logP(o/w)>
6.9790001

>  <logS>
-6.28021

>  <mr>
13.840359

>  <mutagenic>
0

>  <nmol>
1

>  <opr_brigid>
24

>  <opr_leadlike>
0

>  <opr_nring>
4

>  <opr_nrot>
11

>  <opr_violation>
3

>  <PC+>
0

>  <PC->
0

>  <PEOE_PC+>
2.147404

>  <PEOE_PC->
-2.147404

>  <PEOE_RPC+>
0.1270484

>  <PEOE_RPC->
0.14659828

>  <PEOE_VSA+0>
103.55776

>  <PEOE_VSA+1>
107.76236

>  <PEOE_VSA+2>
0

>  <PEOE_VSA+3>
0

>  <PEOE_VSA+4>
0

>  <PEOE_VSA+5>
14.708499

>  <PEOE_VSA+6>
0

>  <PEOE_VSA-0>
51.477238

>  <PEOE_VSA-1>
183.82356

>  <PEOE_VSA-2>
0

>  <PEOE_VSA-3>
17.742489

>  <PEOE_VSA-4>
0

>  <PEOE_VSA-5>
13.566921

>  <PEOE_VSA-6>
2.503756

>  <PEOE_VSA_FHYD>
0.93783778

>  <PEOE_VSA_FNEG>
0.54350799

>  <PEOE_VSA_FPNEG>
0.032456666

>  <PEOE_VSA_FPOL>
0.062162247

>  <PEOE_VSA_FPOS>
0.45649198

>  <PEOE_VSA_FPPOS>
0.029705582

>  <PEOE_VSA_HYD>
464.3634

>  <PEOE_VSA_NEG>
269.11395

>  <PEOE_VSA_PNEG>
16.070677

>  <PEOE_VSA_POL>
30.779177

>  <PEOE_VSA_POS>
226.02863

>  <PEOE_VSA_PPOS>
14.708499

>  <petitjean>
0.5

>  <petitjeanSC>
1

>  <Q_PC+>
0

>  <Q_PC->
0

>  <Q_RPC+>
0

>  <Q_RPC->
0

>  <Q_VSA_FHYD>
1

>  <Q_VSA_FNEG>
0

>  <Q_VSA_FPNEG>
0

>  <Q_VSA_FPOL>
0

>  <Q_VSA_FPOS>
1

>  <Q_VSA_FPPOS>
0

>  <Q_VSA_HYD>
495.14258

>  <Q_VSA_NEG>
0

>  <Q_VSA_PNEG>
0

>  <Q_VSA_POL>
0

>  <Q_VSA_POS>
495.14258

>  <Q_VSA_PPOS>
0

>  <radius>
7

>  <reactive>
0

>  <rings>
4

>  <RPC+>
0

>  <RPC->
0

>  <rsynth>
0.32352942

>  <SlogP>
5.483284

>  <SlogP_VSA0>
0

>  <SlogP_VSA1>
10.869778

>  <SlogP_VSA2>
34.862103

>  <SlogP_VSA3>
123.9061

>  <SlogP_VSA4>
9.5567245

>  <SlogP_VSA5>
0

>  <SlogP_VSA6>
0

>  <SlogP_VSA7>
264.64777

>  <SlogP_VSA8>
56.605217

>  <SlogP_VSA9>
33.326015

>  <SMR>
13.4321

>  <SMR_VSA0>
34.862103

>  <SMR_VSA1>
34.18367

>  <SMR_VSA2>
0

>  <SMR_VSA3>
26.158472

>  <SMR_VSA4>
0

>  <SMR_VSA5>
321.25299

>  <SMR_VSA6>
83.990456

>  <SMR_VSA7>
33.326015

>  <TPSA>
53.330002

>  <VAdjEq>
0.34317648

>  <VAdjMa>
6.2094536

>  <VDistEq>
3.66117

>  <VDistMa>
9.8978443

>  <vdw_area>
495.14258

>  <vdw_vol>
668.8158

>  <vsa_acc>
31.30941

>  <vsa_acid>
0

>  <vsa_base>
0

>  <vsa_don>
0

>  <vsa_hyd>
403.54398

>  <vsa_other>
37.511761

>  <vsa_pol>
31.30941

>  <Weight>
452.59799

>  <weinerPath>
3508

>  <weinerPol>
60

>  <zagreb>
176

$$$$