Brc1ccc(S(=O)(=O)NC=NCCSCc2nc(sc2)NC(N)=N)cc1
  MOE2013           2D

 26 27  0  0  0  0  0  0  0  0999 V2000
    0.0000    0.0000    0.0000 Br  0  0  0  0  0  0  0  0  0  0  0  0
    1.5000    0.0050    0.0000 C   0  0  0  0  0  0  0  0  0  0  0  0
    2.2450    1.3070    0.0000 C   0  0  0  0  0  0  0  0  0  0  0  0
    3.7450    1.3130    0.0000 C   0  0  0  0  0  0  0  0  0  0  0  0
    4.5000    0.0160    0.0000 C   0  0  0  0  0  0  0  0  0  0  0  0
    6.0000    0.0220    0.0000 S   0  0  0  0  0  0  0  0  0  0  0  0
    5.9940    1.5220    0.0000 O   0  0  0  0  0  0  0  0  0  0  0  0
    6.0050   -1.4780    0.0000 O   0  0  0  0  0  0  0  0  0  0  0  0
    7.5000    0.0270    0.0000 N   0  0  0  0  0  0  0  0  0  0  0  0
    8.2550   -1.2690    0.0000 C   0  0  0  0  0  0  0  0  0  0  0  0
    9.7550   -1.2630    0.0000 N   0  0  0  0  0  0  0  0  0  0  0  0
   10.5090   -2.5600    0.0000 C   0  0  0  0  0  0  0  0  0  0  0  0
   12.0090   -2.5540    0.0000 C   0  0  0  0  0  0  0  0  0  0  0  0
   12.7640   -3.8500    0.0000 S   0  0  0  0  0  0  0  0  0  0  0  0
   14.2640   -3.8450    0.0000 C   0  0  0  0  0  0  0  0  0  0  0  0
   15.0190   -5.1410    0.0000 C   0  0  0  0  0  0  0  0  0  0  0  0
   16.5110   -5.2930    0.0000 N   0  0  0  0  0  0  0  0  0  0  0  0
   16.8280   -6.7590    0.0000 C   0  0  0  0  0  0  0  0  0  0  0  0
   15.5320   -7.5130    0.0000 S   0  0  0  0  0  0  0  0  0  0  0  0
   14.4140   -6.5140    0.0000 C   0  0  0  0  0  0  0  0  0  0  0  0
   18.2010   -7.3640    0.0000 N   0  0  0  0  0  0  0  0  0  0  0  0
   18.3630   -8.8550    0.0000 C   0  0  0  0  0  0  0  0  0  0  0  0
   19.7360   -9.4600    0.0000 N   0  0  0  0  0  0  0  0  0  0  0  0
   17.1530   -9.7410    0.0000 N   0  0  0  0  0  0  0  0  0  0  0  0
    3.7550   -1.2850    0.0000 C   0  0  0  0  0  0  0  0  0  0  0  0
    2.2550   -1.2910    0.0000 C   0  0  0  0  0  0  0  0  0  0  0  0
  1  2  1  0  0  0  0
  2  3  1  0  0  0  0
  2 26  2  0  0  0  0
  3  4  2  0  0  0  0
  4  5  1  0  0  0  0
  5  6  1  0  0  0  0
  5 25  2  0  0  0  0
  6  7  2  0  0  0  0
  6  8  2  0  0  0  0
  6  9  1  0  0  0  0
  9 10  1  0  0  0  0
 10 11  2  3  0  0  0
 11 12  1  0  0  0  0
 12 13  1  0  0  0  0
 13 14  1  0  0  0  0
 14 15  1  0  0  0  0
 15 16  1  0  0  0  0
 16 17  1  0  0  0  0
 16 20  2  0  0  0  0
 17 18  2  0  0  0  0
 18 19  1  0  0  0  0
 18 21  1  0  0  0  0
 19 20  1  0  0  0  0
 21 22  1  0  0  0  0
 22 23  1  0  0  0  0
 22 24  2  0  0  0  0
 25 26  1  0  0  0  0
M  END
>  <Index>
361

>  <ID>
HT0738

>  <class>
0

>  <apol>
55.929482

>  <ast_fraglike>
0

>  <ast_fraglike_ext>
0

>  <ast_violation>
3

>  <ast_violation_ext>
5

>  <a_acc>
5

>  <a_acid>
0

>  <a_aro>
11

>  <a_base>
0

>  <a_count>
43

>  <a_don>
4

>  <a_donacc>
9

>  <a_heavy>
26

>  <a_hyd>
14

>  <a_IC>
88.274887

>  <a_ICM>
2.0529044

>  <a_nB>
0

>  <a_nBr>
1

>  <a_nC>
14

>  <a_nCl>
0

>  <a_nF>
0

>  <a_nH>
17

>  <a_nI>
0

>  <a_nN>
6

>  <a_nO>
2

>  <a_nP>
0

>  <a_nS>
3

>  <balabanJ>
1.4692712

>  <BCUT_PEOE_0>
-2.4777257

>  <BCUT_PEOE_1>
-0.62403888

>  <BCUT_PEOE_2>
0.64794612

>  <BCUT_PEOE_3>
2.4258935

>  <BCUT_SLOGP_0>
-2.5588307

>  <BCUT_SLOGP_1>
-0.53807992

>  <BCUT_SLOGP_2>
0.7782976

>  <BCUT_SLOGP_3>
2.555783

>  <BCUT_SMR_0>
-2.1364279

>  <BCUT_SMR_1>
-0.45920855

>  <BCUT_SMR_2>
0.85431087

>  <BCUT_SMR_3>
2.775461

>  <bpol>
34.210518

>  <b_1rotN>
8

>  <b_1rotR>
0.2962963

>  <b_ar>
11

>  <b_count>
44

>  <b_double>
2

>  <b_heavy>
27

>  <b_max1len>
5

>  <b_rotN>
10

>  <b_rotR>
0.37037036

>  <b_single>
31

>  <b_triple>
0

>  <chi0>
18.993353

>  <chi0v>
17.511892

>  <chi0v_C>
8.0854216

>  <chi0_C>
9.2507124

>  <chi1>
12.36501

>  <chi1v>
11.570842

>  <chi1v_C>
2.9635956

>  <chi1_C>
3.9494898

>  <chiral>
0

>  <chiral_u>
0

>  <density>
0.97257209

>  <diameter>
18

>  <FCharge>
0

>  <GCUT_PEOE_0>
-0.89241707

>  <GCUT_PEOE_1>
-0.35651234

>  <GCUT_PEOE_2>
0.092572249

>  <GCUT_PEOE_3>
2.3432052

>  <GCUT_SLOGP_0>
-1.3705999

>  <GCUT_SLOGP_1>
-0.4129633

>  <GCUT_SLOGP_2>
0.19506861

>  <GCUT_SLOGP_3>
2.4273195

>  <GCUT_SMR_0>
-0.48507726

>  <GCUT_SMR_1>
-0.19067319

>  <GCUT_SMR_2>
0.2955555

>  <GCUT_SMR_3>
2.6678424

>  <Kier1>
22.29081

>  <Kier2>
11.111111

>  <Kier3>
8.2799997

>  <KierA1>
21.84338

>  <KierA2>
10.878977

>  <KierA3>
8.1021709

>  <KierFlex>
9.1397552

>  <lip_acc>
8

>  <lip_don>
5

>  <lip_druglike>
1

>  <lip_violation>
0

>  <logP(o/w)>
2.5239999

>  <logS>
-5.6256299

>  <mr>
11.025662

>  <mutagenic>
0

>  <nmol>
1

>  <opr_brigid>
13

>  <opr_leadlike>
1

>  <opr_nring>
2

>  <opr_nrot>
9

>  <opr_violation>
1

>  <PC+>
0

>  <PC->
0

>  <PEOE_PC+>
2.5378721

>  <PEOE_PC->
-2.5378721

>  <PEOE_RPC+>
0.1204483

>  <PEOE_RPC->
0.18321314

>  <PEOE_VSA+0>
69.731255

>  <PEOE_VSA+1>
38.758942

>  <PEOE_VSA+2>
8.6190128

>  <PEOE_VSA+3>
80.023849

>  <PEOE_VSA+4>
0

>  <PEOE_VSA+5>
0

>  <PEOE_VSA+6>
4.1846013

>  <PEOE_VSA-0>
69.616432

>  <PEOE_VSA-1>
57.855816

>  <PEOE_VSA-2>
32.016521

>  <PEOE_VSA-3>
19.760618

>  <PEOE_VSA-4>
8.2120972

>  <PEOE_VSA-5>
12.196804

>  <PEOE_VSA-6>
12.470587

>  <PEOE_VSA_FHYD>
0.91035336

>  <PEOE_VSA_FNEG>
0.51307452

>  <PEOE_VSA_FPNEG>
0.079525366

>  <PEOE_VSA_FPOL>
0.08964663

>  <PEOE_VSA_FPOS>
0.48692551

>  <PEOE_VSA_FPPOS>
0.010121264

>  <PEOE_VSA_HYD>
376.38245

>  <PEOE_VSA_NEG>
212.12888

>  <PEOE_VSA_PNEG>
32.87949

>  <PEOE_VSA_POL>
37.064091

>  <PEOE_VSA_POS>
201.31766

>  <PEOE_VSA_PPOS>
4.1846013

>  <petitjean>
0.5

>  <petitjeanSC>
1

>  <Q_PC+>
0

>  <Q_PC->
0

>  <Q_RPC+>
0

>  <Q_RPC->
0

>  <Q_VSA_FHYD>
1

>  <Q_VSA_FNEG>
0

>  <Q_VSA_FPNEG>
0

>  <Q_VSA_FPOL>
0

>  <Q_VSA_FPOS>
1

>  <Q_VSA_FPPOS>
0

>  <Q_VSA_HYD>
413.44653

>  <Q_VSA_NEG>
0

>  <Q_VSA_PNEG>
0

>  <Q_VSA_POL>
0

>  <Q_VSA_POS>
413.44653

>  <Q_VSA_PPOS>
0

>  <radius>
9

>  <reactive>
0

>  <rings>
2

>  <RPC+>
0

>  <RPC->
0

>  <rsynth>
1

>  <SlogP>
2.71737

>  <SlogP_VSA0>
49.302185

>  <SlogP_VSA1>
84.867058

>  <SlogP_VSA2>
23.426271

>  <SlogP_VSA3>
35.673141

>  <SlogP_VSA4>
2.7567475

>  <SlogP_VSA5>
21.391369

>  <SlogP_VSA6>
0

>  <SlogP_VSA7>
118.06071

>  <SlogP_VSA8>
0

>  <SlogP_VSA9>
127.18563

>  <SMR>
11.18413

>  <SMR_VSA0>
48.171688

>  <SMR_VSA1>
33.57106

>  <SMR_VSA2>
52.6828

>  <SMR_VSA3>
2.7567475

>  <SMR_VSA4>
51.408684

>  <SMR_VSA5>
103.62231

>  <SMR_VSA6>
37.572235

>  <SMR_VSA7>
132.87759

>  <TPSA>
133.32001

>  <VAdjEq>
0.40176207

>  <VAdjMa>
5.7548876

>  <VDistEq>
3.955502

>  <VDistMa>
9.0355835

>  <vdw_area>
413.44653

>  <vdw_vol>
490.89627

>  <vsa_acc>
43.381676

>  <vsa_acid>
0

>  <vsa_base>
0

>  <vsa_don>
31.500273

>  <vsa_hyd>
233.1696

>  <vsa_other>
63.744324

>  <vsa_pol>
92.624435

>  <Weight>
477.43201

>  <weinerPath>
2264

>  <weinerPol>
32

>  <zagreb>
126

$$$$