O1c2c(cccc2)C(=O)C(CC=2C(=O)c3c(OC=2O)cccc3)=C1O
  MOE2013           2D

 25 28  0  0  0  0  0  0  0  0999 V2000
    0.0000    0.0000    0.0000 O   0  0  0  0  0  0  0  0  0  0  0  0
    0.7600   -1.2930    0.0000 C   0  0  0  0  0  0  0  0  0  0  0  0
    0.0200   -2.5980    0.0000 C   0  0  0  0  0  0  0  0  0  0  0  0
    0.7800   -3.8910    0.0000 C   0  0  0  0  0  0  0  0  0  0  0  0
    2.2800   -3.8800    0.0000 C   0  0  0  0  0  0  0  0  0  0  0  0
    3.0200   -2.5750    0.0000 C   0  0  0  0  0  0  0  0  0  0  0  0
    2.2600   -1.2820    0.0000 C   0  0  0  0  0  0  0  0  0  0  0  0
   -1.4800   -2.6090    0.0000 C   0  0  0  0  0  0  0  0  0  0  0  0
   -2.2200   -3.9140    0.0000 O   0  0  0  0  0  0  0  0  0  0  0  0
   -2.2400   -1.3160    0.0000 C   0  0  0  0  0  0  0  0  0  0  0  0
   -3.6530   -0.8140    0.0000 C   0  0  0  0  0  0  0  0  0  0  0  0
   -4.7950   -1.7870    0.0000 C   0  0  0  0  0  0  0  0  0  0  0  0
   -5.9520   -0.8310    0.0000 C   0  0  0  0  0  0  0  0  0  0  0  0
   -5.7020    0.6480    0.0000 O   0  0  0  0  0  0  0  0  0  0  0  0
   -7.3570   -1.3550    0.0000 C   0  0  0  0  0  0  0  0  0  0  0  0
   -7.6060   -2.8340    0.0000 C   0  0  0  0  0  0  0  0  0  0  0  0
   -6.4500   -3.7900    0.0000 O   0  0  0  0  0  0  0  0  0  0  0  0
   -5.0440   -3.2660    0.0000 C   0  0  0  0  0  0  0  0  0  0  0  0
   -4.0710   -4.4080    0.0000 O   0  0  0  0  0  0  0  0  0  0  0  0
   -9.0120   -3.3580    0.0000 C   0  0  0  0  0  0  0  0  0  0  0  0
  -10.1680   -2.4020    0.0000 C   0  0  0  0  0  0  0  0  0  0  0  0
   -9.9190   -0.9230    0.0000 C   0  0  0  0  0  0  0  0  0  0  0  0
   -8.5130   -0.4000    0.0000 C   0  0  0  0  0  0  0  0  0  0  0  0
   -1.5000   -0.0110    0.0000 C   0  0  0  0  0  0  0  0  0  0  0  0
   -2.6560    0.9440    0.0000 O   0  0  0  0  0  0  0  0  0  0  0  0
  1  2  1  0  0  0  0
  1 24  1  0  0  0  0
  2  3  1  0  0  0  0
  2  7  2  0  0  0  0
  3  4  2  0  0  0  0
  3  8  1  0  0  0  0
  4  5  1  0  0  0  0
  5  6  2  0  0  0  0
  6  7  1  0  0  0  0
  8  9  2  0  0  0  0
  8 10  1  0  0  0  0
 10 11  1  0  0  0  0
 10 24  2  0  0  0  0
 11 12  1  0  0  0  0
 12 13  1  0  0  0  0
 12 18  2  0  0  0  0
 13 14  2  0  0  0  0
 13 15  1  0  0  0  0
 15 16  1  0  0  0  0
 15 23  2  0  0  0  0
 16 17  1  0  0  0  0
 16 20  2  0  0  0  0
 17 18  1  0  0  0  0
 18 19  1  0  0  0  0
 20 21  1  0  0  0  0
 21 22  2  0  0  0  0
 22 23  1  0  0  0  0
 24 25  1  0  0  0  0
M  END
>  <Index>
314

>  <ID>
HT0650

>  <class>
0

>  <apol>
46.253517

>  <ast_fraglike>
0

>  <ast_fraglike_ext>
0

>  <ast_violation>
4

>  <ast_violation_ext>
4

>  <a_acc>
4

>  <a_acid>
0

>  <a_aro>
12

>  <a_base>
0

>  <a_count>
37

>  <a_don>
4

>  <a_donacc>
8

>  <a_heavy>
25

>  <a_hyd>
15

>  <a_IC>
53.509827

>  <a_ICM>
1.4462116

>  <a_nB>
0

>  <a_nBr>
0

>  <a_nC>
19

>  <a_nCl>
0

>  <a_nF>
0

>  <a_nH>
12

>  <a_nI>
0

>  <a_nN>
0

>  <a_nO>
6

>  <a_nP>
0

>  <a_nS>
0

>  <balabanJ>
1.4660274

>  <BCUT_PEOE_0>
-2.3707066

>  <BCUT_PEOE_1>
-0.78906864

>  <BCUT_PEOE_2>
0.76056069

>  <BCUT_PEOE_3>
2.4567471

>  <BCUT_SLOGP_0>
-2.3473926

>  <BCUT_SLOGP_1>
-0.7159164

>  <BCUT_SLOGP_2>
0.83526707

>  <BCUT_SLOGP_3>
2.5049634

>  <BCUT_SMR_0>
-2.1052098

>  <BCUT_SMR_1>
-0.58645558

>  <BCUT_SMR_2>
0.93889433

>  <BCUT_SMR_3>
2.7252159

>  <bpol>
18.866484

>  <b_1rotN>
2

>  <b_1rotR>
0.071428575

>  <b_ar>
12

>  <b_count>
40

>  <b_double>
4

>  <b_heavy>
28

>  <b_max1len>
2

>  <b_rotN>
2

>  <b_rotR>
0.071428575

>  <b_single>
24

>  <b_triple>
0

>  <chi0>
17.551678

>  <chi0v>
12.85333

>  <chi0v_C>
10.325909

>  <chi0_C>
12.137464

>  <chi1>
12.058551

>  <chi1v>
7.5337658

>  <chi1v_C>
5.8618073

>  <chi1_C>
8.1161566

>  <chiral>
0

>  <chiral_u>
0

>  <density>
0.80845505

>  <diameter>
12

>  <FCharge>
0

>  <GCUT_PEOE_0>
-0.74278212

>  <GCUT_PEOE_1>
-0.52433538

>  <GCUT_PEOE_2>
0.15514979

>  <GCUT_PEOE_3>
2.5260601

>  <GCUT_SLOGP_0>
-0.7898218

>  <GCUT_SLOGP_1>
-0.36961725

>  <GCUT_SLOGP_2>
0.2057059

>  <GCUT_SLOGP_3>
2.607481

>  <GCUT_SMR_0>
-0.46428481

>  <GCUT_SMR_1>
-0.26122829

>  <GCUT_SMR_2>
0.26873621

>  <GCUT_SMR_3>
2.8013463

>  <Kier1>
18.367348

>  <Kier2>
7.5526471

>  <Kier3>
3.453032

>  <KierA1>
12.940544

>  <KierA2>
5.2368112

>  <KierA3>
2.3656225

>  <KierFlex>
2.7106872

>  <lip_acc>
6

>  <lip_don>
2

>  <lip_druglike>
1

>  <lip_violation>
0

>  <logP(o/w)>
2.6659999

>  <logS>
-5.2007198

>  <mr>
8.7257538

>  <mutagenic>
0

>  <nmol>
1

>  <opr_brigid>
22

>  <opr_leadlike>
1

>  <opr_nring>
4

>  <opr_nrot>
2

>  <opr_violation>
0

>  <PC+>
0

>  <PC->
0

>  <PEOE_PC+>
2.2232103

>  <PEOE_PC->
-2.2232103

>  <PEOE_RPC+>
0.0986799

>  <PEOE_RPC->
0.15287662

>  <PEOE_VSA+0>
17.232086

>  <PEOE_VSA+1>
59.874287

>  <PEOE_VSA+2>
0

>  <PEOE_VSA+3>
46.334038

>  <PEOE_VSA+4>
20.648346

>  <PEOE_VSA+5>
0

>  <PEOE_VSA+6>
0

>  <PEOE_VSA-0>
49.019615

>  <PEOE_VSA-1>
49.019615

>  <PEOE_VSA-2>
0

>  <PEOE_VSA-3>
0

>  <PEOE_VSA-4>
0

>  <PEOE_VSA-5>
32.141354

>  <PEOE_VSA-6>
15.535081

>  <PEOE_VSA_FHYD>
0.7642383

>  <PEOE_VSA_FNEG>
0.5028069

>  <PEOE_VSA_FPNEG>
0.16451244

>  <PEOE_VSA_FPOL>
0.23576169

>  <PEOE_VSA_FPOS>
0.4971931

>  <PEOE_VSA_FPPOS>
0.071249239

>  <PEOE_VSA_HYD>
221.47964

>  <PEOE_VSA_NEG>
145.71567

>  <PEOE_VSA_PNEG>
47.676434

>  <PEOE_VSA_POL>
68.324783

>  <PEOE_VSA_POS>
144.08876

>  <PEOE_VSA_PPOS>
20.648346

>  <petitjean>
0.5

>  <petitjeanSC>
1

>  <Q_PC+>
0

>  <Q_PC->
0

>  <Q_RPC+>
0

>  <Q_RPC->
0

>  <Q_VSA_FHYD>
1

>  <Q_VSA_FNEG>
0

>  <Q_VSA_FPNEG>
0

>  <Q_VSA_FPOL>
0

>  <Q_VSA_FPOS>
1

>  <Q_VSA_FPPOS>
0

>  <Q_VSA_HYD>
289.80441

>  <Q_VSA_NEG>
0

>  <Q_VSA_PNEG>
0

>  <Q_VSA_POL>
0

>  <Q_VSA_POS>
289.80441

>  <Q_VSA_PPOS>
0

>  <radius>
6

>  <reactive>
0

>  <rings>
4

>  <RPC+>
0

>  <RPC->
0

>  <rsynth>
1

>  <SlogP>
3.4663

>  <SlogP_VSA0>
21.999775

>  <SlogP_VSA1>
11.375222

>  <SlogP_VSA2>
0

>  <SlogP_VSA3>
50.770454

>  <SlogP_VSA4>
54.095581

>  <SlogP_VSA5>
20.973713

>  <SlogP_VSA6>
0

>  <SlogP_VSA7>
141.14548

>  <SlogP_VSA8>
18.868406

>  <SlogP_VSA9>
10.486856

>  <SMR>
8.67276

>  <SMR_VSA0>
47.724434

>  <SMR_VSA1>
21.999775

>  <SMR_VSA2>
50.770454

>  <SMR_VSA3>
37.831718

>  <SMR_VSA4>
0

>  <SMR_VSA5>
160.01389

>  <SMR_VSA6>
11.375222

>  <SMR_VSA7>
0

>  <TPSA>
93.059998

>  <VAdjEq>
0.43513325

>  <VAdjMa>
5.8073549

>  <VDistEq>
3.2873161

>  <VDistMa>
9.0065184

>  <vdw_area>
289.80441

>  <vdw_vol>
415.97736

>  <vsa_acc>
0

>  <vsa_acid>
0

>  <vsa_base>
0

>  <vsa_don>
0

>  <vsa_hyd>
168.02765

>  <vsa_other>
51.341549

>  <vsa_pol>
54.267685

>  <Weight>
336.29898

>  <weinerPath>
1424

>  <weinerPol>
46

>  <zagreb>
138

$$$$