Clc1c(Cl)c(OCC(O)=O)ccc1C(=O)C(CC)=C
  MOE2013           2D

 19 19  0  0  0  0  0  0  0  0999 V2000
    0.0000    0.0000    0.0000 Cl  0  0  0  0  0  0  0  0  0  0  0  0
   -0.7550   -1.2960    0.0000 C   0  0  0  0  0  0  0  0  0  0  0  0
   -2.2550   -1.2900    0.0000 C   0  0  0  0  0  0  0  0  0  0  0  0
   -3.0000    0.0120    0.0000 Cl  0  0  0  0  0  0  0  0  0  0  0  0
   -3.0100   -2.5860    0.0000 C   0  0  0  0  0  0  0  0  0  0  0  0
   -4.5100   -2.5800    0.0000 O   0  0  0  0  0  0  0  0  0  0  0  0
   -5.2650   -3.8770    0.0000 C   0  0  0  0  0  0  0  0  0  0  0  0
   -6.7650   -3.8710    0.0000 C   0  0  0  0  0  0  0  0  0  0  0  0
   -7.5100   -2.5690    0.0000 O   0  0  0  0  0  0  0  0  0  0  0  0
   -7.5200   -5.1670    0.0000 O   0  0  0  0  0  0  0  0  0  0  0  0
   -2.2650   -3.8880    0.0000 C   0  0  0  0  0  0  0  0  0  0  0  0
   -0.7650   -3.8940    0.0000 C   0  0  0  0  0  0  0  0  0  0  0  0
   -0.0100   -2.5980    0.0000 C   0  0  0  0  0  0  0  0  0  0  0  0
    1.4900   -2.6040    0.0000 C   0  0  0  0  0  0  0  0  0  0  0  0
    2.2450   -1.3080    0.0000 O   0  0  0  0  0  0  0  0  0  0  0  0
    2.2350   -3.9060    0.0000 C   0  0  0  0  0  0  0  0  0  0  0  0
    3.7350   -3.9120    0.0000 C   0  0  0  0  0  0  0  0  0  0  0  0
    4.4800   -5.2140    0.0000 C   0  0  0  0  0  0  0  0  0  0  0  0
    1.4800   -5.2020    0.0000 C   0  0  0  0  0  0  0  0  0  0  0  0
  1  2  1  0  0  0  0
  2  3  1  0  0  0  0
  2 13  2  0  0  0  0
  3  4  1  0  0  0  0
  3  5  2  0  0  0  0
  5  6  1  0  0  0  0
  5 11  1  0  0  0  0
  6  7  1  0  0  0  0
  7  8  1  0  0  0  0
  8  9  1  0  0  0  0
  8 10  2  0  0  0  0
 11 12  2  0  0  0  0
 12 13  1  0  0  0  0
 13 14  1  0  0  0  0
 14 15  2  0  0  0  0
 14 16  1  0  0  0  0
 16 17  1  0  0  0  0
 16 19  2  0  0  0  0
 17 18  1  0  0  0  0
M  END
>  <Index>
395

>  <ID>
HT0802

>  <class>
0

>  <apol>
38.449516

>  <ast_fraglike>
0

>  <ast_fraglike_ext>
0

>  <ast_violation>
3

>  <ast_violation_ext>
4

>  <a_acc>
4

>  <a_acid>
0

>  <a_aro>
6

>  <a_base>
0

>  <a_count>
31

>  <a_don>
2

>  <a_donacc>
6

>  <a_heavy>
19

>  <a_hyd>
13

>  <a_IC>
52.454819

>  <a_ICM>
1.692091

>  <a_nB>
0

>  <a_nBr>
0

>  <a_nC>
13

>  <a_nCl>
2

>  <a_nF>
0

>  <a_nH>
12

>  <a_nI>
0

>  <a_nN>
0

>  <a_nO>
4

>  <a_nP>
0

>  <a_nS>
0

>  <balabanJ>
2.5738518

>  <BCUT_PEOE_0>
-2.4114113

>  <BCUT_PEOE_1>
-0.58148897

>  <BCUT_PEOE_2>
0.49634969

>  <BCUT_PEOE_3>
2.4002433

>  <BCUT_SLOGP_0>
-2.4026496

>  <BCUT_SLOGP_1>
-0.44118223

>  <BCUT_SLOGP_2>
0.65727121

>  <BCUT_SLOGP_3>
2.5277956

>  <BCUT_SMR_0>
-2.1586814

>  <BCUT_SMR_1>
-0.30719596

>  <BCUT_SMR_2>
0.73088056

>  <BCUT_SMR_3>
2.6760573

>  <bpol>
17.790483

>  <b_1rotN>
6

>  <b_1rotR>
0.31578946

>  <b_ar>
6

>  <b_count>
31

>  <b_double>
3

>  <b_heavy>
19

>  <b_max1len>
3

>  <b_rotN>
6

>  <b_rotR>
0.31578946

>  <b_single>
22

>  <b_triple>
0

>  <chi0>
14.576985

>  <chi0v>
11.715766

>  <chi0v_C>
7.776021

>  <chi0_C>
8.8698788

>  <chi1>
8.8791161

>  <chi1v>
6.1869984

>  <chi1v_C>
3.9284506

>  <chi1_C>
5.0841169

>  <chiral>
0

>  <chiral_u>
0

>  <density>
0.87253499

>  <diameter>
11

>  <FCharge>
0

>  <GCUT_PEOE_0>
-0.76559895

>  <GCUT_PEOE_1>
-0.41073805

>  <GCUT_PEOE_2>
0.045085575

>  <GCUT_PEOE_3>
2.3065286

>  <GCUT_SLOGP_0>
-0.94295543

>  <GCUT_SLOGP_1>
-0.31727117

>  <GCUT_SLOGP_2>
0.19295956

>  <GCUT_SLOGP_3>
2.4461639

>  <GCUT_SMR_0>
-0.5120824

>  <GCUT_SMR_1>
-0.18593241

>  <GCUT_SMR_2>
0.22990647

>  <GCUT_SMR_3>
2.598932

>  <Kier1>
17.052631

>  <Kier2>
7.6952662

>  <Kier3>
4.5

>  <KierA1>
15.098949

>  <KierA2>
6.7648678

>  <KierA3>
3.9338264

>  <KierFlex>
5.3759155

>  <lip_acc>
4

>  <lip_don>
1

>  <lip_druglike>
1

>  <lip_violation>
0

>  <logP(o/w)>
3.4530001

>  <logS>
-4.2329898

>  <mr>
7.3985314

>  <mutagenic>
0

>  <nmol>
1

>  <opr_brigid>
7

>  <opr_leadlike>
1

>  <opr_nring>
1

>  <opr_nrot>
6

>  <opr_violation>
0

>  <PC+>
0

>  <PC->
0

>  <PEOE_PC+>
1.6371419

>  <PEOE_PC->
-1.6371419

>  <PEOE_RPC+>
0.17473941

>  <PEOE_RPC->
0.20352693

>  <PEOE_VSA+0>
23.535469

>  <PEOE_VSA+1>
43.090328

>  <PEOE_VSA+2>
14.951293

>  <PEOE_VSA+3>
8.458519

>  <PEOE_VSA+4>
10.324173

>  <PEOE_VSA+5>
14.708499

>  <PEOE_VSA+6>
0

>  <PEOE_VSA-0>
35.419662

>  <PEOE_VSA-1>
100.21284

>  <PEOE_VSA-2>
0

>  <PEOE_VSA-3>
0

>  <PEOE_VSA-4>
0

>  <PEOE_VSA-5>
27.133842

>  <PEOE_VSA-6>
10.271297

>  <PEOE_VSA_FHYD>
0.78328174

>  <PEOE_VSA_FNEG>
0.60060424

>  <PEOE_VSA_FPNEG>
0.12983119

>  <PEOE_VSA_FPOL>
0.21671824

>  <PEOE_VSA_FPOS>
0.39939576

>  <PEOE_VSA_FPPOS>
0.086887047

>  <PEOE_VSA_HYD>
225.66811

>  <PEOE_VSA_NEG>
173.03764

>  <PEOE_VSA_PNEG>
37.40514

>  <PEOE_VSA_POL>
62.437809

>  <PEOE_VSA_POS>
115.06828

>  <PEOE_VSA_PPOS>
25.032671

>  <petitjean>
0.45454547

>  <petitjeanSC>
0.83333331

>  <Q_PC+>
0

>  <Q_PC->
0

>  <Q_RPC+>
0

>  <Q_RPC->
0

>  <Q_VSA_FHYD>
1

>  <Q_VSA_FNEG>
0

>  <Q_VSA_FPNEG>
0

>  <Q_VSA_FPOL>
0

>  <Q_VSA_FPOS>
1

>  <Q_VSA_FPPOS>
0

>  <Q_VSA_HYD>
288.10593

>  <Q_VSA_NEG>
0

>  <Q_VSA_PNEG>
0

>  <Q_VSA_POL>
0

>  <Q_VSA_POS>
288.10593

>  <Q_VSA_PPOS>
0

>  <radius>
6

>  <reactive>
1

>  <rings>
1

>  <RPC+>
0

>  <RPC->
0

>  <rsynth>
1

>  <SlogP>
3.6057

>  <SlogP_VSA0>
10.999887

>  <SlogP_VSA1>
13.433075

>  <SlogP_VSA2>
23.862217

>  <SlogP_VSA3>
46.311485

>  <SlogP_VSA4>
27.047791

>  <SlogP_VSA5>
3.185575

>  <SlogP_VSA6>
7.0012131

>  <SlogP_VSA7>
35.286369

>  <SlogP_VSA8>
18.868406

>  <SlogP_VSA9>
148.96753

>  <SMR>
7.3354301

>  <SMR_VSA0>
47.724434

>  <SMR_VSA1>
10.999887

>  <SMR_VSA2>
25.385227

>  <SMR_VSA3>
18.615791

>  <SMR_VSA4>
0

>  <SMR_VSA5>
54.154774

>  <SMR_VSA6>
34.359333

>  <SMR_VSA7>
143.72409

>  <TPSA>
63.599998

>  <VAdjEq>
0.48546076

>  <VAdjMa>
5.2479277

>  <VDistEq>
3.1837449

>  <VDistMa>
8.1862621

>  <vdw_area>
288.10593

>  <vdw_vol>
347.4256

>  <vsa_acc>
16.070677

>  <vsa_acid>
0

>  <vsa_base>
0

>  <vsa_don>
0

>  <vsa_hyd>
209.37984

>  <vsa_other>
23.167019

>  <vsa_pol>
43.204517

>  <Weight>
303.14099

>  <weinerPath>
744

>  <weinerPol>
29

>  <zagreb>
90

$$$$