O(CCCC)c1nc2c(cccc2)c(c1)C(=O)NCCN(CC)CC
  MOE2013           2D

 25 26  0  0  0  0  0  0  0  0999 V2000
    0.0000    0.0000    0.0000 O   0  0  0  0  0  0  0  0  0  0  0  0
   -1.5000    0.0080    0.0000 C   0  0  0  0  0  0  0  0  0  0  0  0
   -2.2430    1.3110    0.0000 C   0  0  0  0  0  0  0  0  0  0  0  0
   -3.7430    1.3190    0.0000 C   0  0  0  0  0  0  0  0  0  0  0  0
   -4.4860    2.6220    0.0000 C   0  0  0  0  0  0  0  0  0  0  0  0
    0.7430   -1.3030    0.0000 C   0  0  0  0  0  0  0  0  0  0  0  0
   -0.0140   -2.5980    0.0000 N   0  0  0  0  0  0  0  0  0  0  0  0
    0.7290   -3.9010    0.0000 C   0  0  0  0  0  0  0  0  0  0  0  0
    2.2290   -3.9090    0.0000 C   0  0  0  0  0  0  0  0  0  0  0  0
    2.9720   -5.2120    0.0000 C   0  0  0  0  0  0  0  0  0  0  0  0
    2.2150   -6.5070    0.0000 C   0  0  0  0  0  0  0  0  0  0  0  0
    0.7150   -6.4990    0.0000 C   0  0  0  0  0  0  0  0  0  0  0  0
   -0.0280   -5.1960    0.0000 C   0  0  0  0  0  0  0  0  0  0  0  0
    2.9860   -2.6140    0.0000 C   0  0  0  0  0  0  0  0  0  0  0  0
    2.2430   -1.3110    0.0000 C   0  0  0  0  0  0  0  0  0  0  0  0
    4.4860   -2.6220    0.0000 C   0  0  0  0  0  0  0  0  0  0  0  0
    5.2290   -3.9260    0.0000 O   0  0  0  0  0  0  0  0  0  0  0  0
    5.2430   -1.3270    0.0000 N   0  0  0  0  0  0  0  0  0  0  0  0
    6.7430   -1.3360    0.0000 C   0  0  0  0  0  0  0  0  0  0  0  0
    7.5000   -0.0410    0.0000 C   0  0  0  0  0  0  0  0  0  0  0  0
    9.0000   -0.0490    0.0000 N   0  0  0  0  0  0  0  0  0  0  0  0
    9.7430   -1.3520    0.0000 C   0  0  0  0  0  0  0  0  0  0  0  0
   11.2430   -1.3600    0.0000 C   0  0  0  0  0  0  0  0  0  0  0  0
    9.7570    1.2460    0.0000 C   0  0  0  0  0  0  0  0  0  0  0  0
    9.0140    2.5490    0.0000 C   0  0  0  0  0  0  0  0  0  0  0  0
  1  2  1  0  0  0  0
  1  6  1  0  0  0  0
  2  3  1  0  0  0  0
  3  4  1  0  0  0  0
  4  5  1  0  0  0  0
  6  7  2  0  0  0  0
  6 15  1  0  0  0  0
  7  8  1  0  0  0  0
  8  9  1  0  0  0  0
  8 13  2  0  0  0  0
  9 10  2  0  0  0  0
  9 14  1  0  0  0  0
 10 11  1  0  0  0  0
 11 12  2  0  0  0  0
 12 13  1  0  0  0  0
 14 15  2  0  0  0  0
 14 16  1  0  0  0  0
 16 17  2  0  0  0  0
 16 18  1  0  0  0  0
 18 19  1  0  0  0  0
 19 20  1  0  0  0  0
 20 21  1  0  0  0  0
 21 22  1  0  0  0  0
 21 24  1  0  0  0  0
 22 23  1  0  0  0  0
 24 25  1  0  0  0  0
M  END
>  <Index>
309

>  <ID>
HT0640

>  <class>
0

>  <apol>
59.440998

>  <ast_fraglike>
0

>  <ast_fraglike_ext>
0

>  <ast_violation>
2

>  <ast_violation_ext>
3

>  <a_acc>
3

>  <a_acid>
0

>  <a_aro>
10

>  <a_base>
0

>  <a_count>
54

>  <a_don>
1

>  <a_donacc>
4

>  <a_heavy>
25

>  <a_hyd>
18

>  <a_IC>
76.689026

>  <a_ICM>
1.4201672

>  <a_nB>
0

>  <a_nBr>
0

>  <a_nC>
20

>  <a_nCl>
0

>  <a_nF>
0

>  <a_nH>
29

>  <a_nI>
0

>  <a_nN>
3

>  <a_nO>
2

>  <a_nP>
0

>  <a_nS>
0

>  <balabanJ>
1.8720945

>  <BCUT_PEOE_0>
-2.6817255

>  <BCUT_PEOE_1>
-0.51558584

>  <BCUT_PEOE_2>
0.52529049

>  <BCUT_PEOE_3>
2.574573

>  <BCUT_SLOGP_0>
-2.791074

>  <BCUT_SLOGP_1>
-0.43005794

>  <BCUT_SLOGP_2>
0.60312891

>  <BCUT_SLOGP_3>
2.6366537

>  <BCUT_SMR_0>
-2.3992803

>  <BCUT_SMR_1>
-0.32787544

>  <BCUT_SMR_2>
0.6783399

>  <BCUT_SMR_3>
2.8485868

>  <bpol>
38.537003

>  <b_1rotN>
10

>  <b_1rotR>
0.38461539

>  <b_ar>
11

>  <b_count>
55

>  <b_double>
1

>  <b_heavy>
26

>  <b_max1len>
7

>  <b_rotN>
11

>  <b_rotR>
0.42307693

>  <b_single>
43

>  <b_triple>
0

>  <chi0>
18.070704

>  <chi0v>
15.547422

>  <chi0v_C>
13.336499

>  <chi0_C>
14.372033

>  <chi1>
12.189402

>  <chi1v>
9.2223949

>  <chi1v_C>
6.526021

>  <chi1_C>
7.7543135

>  <chiral>
0

>  <chiral_u>
0

>  <density>
0.67804229

>  <diameter>
14

>  <FCharge>
0

>  <GCUT_PEOE_0>
-0.85719514

>  <GCUT_PEOE_1>
-0.37851602

>  <GCUT_PEOE_2>
0.025524581

>  <GCUT_PEOE_3>
2.6200683

>  <GCUT_SLOGP_0>
-1.1614565

>  <GCUT_SLOGP_1>
-0.30260107

>  <GCUT_SLOGP_2>
0.12977228

>  <GCUT_SLOGP_3>
2.6698694

>  <GCUT_SMR_0>
-0.52830899

>  <GCUT_SMR_1>
-0.17878254

>  <GCUT_SMR_2>
0.15769723

>  <GCUT_SMR_3>
2.8877745

>  <Kier1>
21.301775

>  <Kier2>
11.658402

>  <Kier3>
6.5850339

>  <KierA1>
16.891518

>  <KierA2>
9.1493731

>  <KierA3>
5.1278033

>  <KierFlex>
6.1818719

>  <lip_acc>
5

>  <lip_don>
1

>  <lip_druglike>
1

>  <lip_violation>
0

>  <logP(o/w)>
3.7590001

>  <logS>
-4.0777001

>  <mr>
10.239572

>  <mutagenic>
0

>  <nmol>
1

>  <opr_brigid>
11

>  <opr_leadlike>
1

>  <opr_nring>
2

>  <opr_nrot>
10

>  <opr_violation>
0

>  <PC+>
0

>  <PC->
0

>  <PEOE_PC+>
1.9399496

>  <PEOE_PC->
-1.9399496

>  <PEOE_RPC+>
0.13033967

>  <PEOE_RPC->
0.18080138

>  <PEOE_VSA+0>
130.4212

>  <PEOE_VSA+1>
53.717087

>  <PEOE_VSA+2>
0

>  <PEOE_VSA+3>
21.568544

>  <PEOE_VSA+4>
0

>  <PEOE_VSA+5>
12.949531

>  <PEOE_VSA+6>
0

>  <PEOE_VSA-0>
47.340866

>  <PEOE_VSA-1>
101.70906

>  <PEOE_VSA-2>
0

>  <PEOE_VSA-3>
0

>  <PEOE_VSA-4>
5.6825762

>  <PEOE_VSA-5>
13.566921

>  <PEOE_VSA-6>
2.6406472

>  <PEOE_VSA_FHYD>
0.91057497

>  <PEOE_VSA_FNEG>
0.43876189

>  <PEOE_VSA_FPNEG>
0.056186717

>  <PEOE_VSA_FPOL>
0.089425035

>  <PEOE_VSA_FPOS>
0.56123811

>  <PEOE_VSA_FPPOS>
0.033238322

>  <PEOE_VSA_HYD>
354.75674

>  <PEOE_VSA_NEG>
170.94006

>  <PEOE_VSA_PNEG>
21.890144

>  <PEOE_VSA_POL>
34.839676

>  <PEOE_VSA_POS>
218.65636

>  <PEOE_VSA_PPOS>
12.949531

>  <petitjean>
0.5

>  <petitjeanSC>
1

>  <Q_PC+>
0

>  <Q_PC->
0

>  <Q_RPC+>
0

>  <Q_RPC->
0

>  <Q_VSA_FHYD>
1

>  <Q_VSA_FNEG>
0

>  <Q_VSA_FPNEG>
0

>  <Q_VSA_FPOL>
0

>  <Q_VSA_FPOS>
1

>  <Q_VSA_FPPOS>
0

>  <Q_VSA_HYD>
389.59644

>  <Q_VSA_NEG>
0

>  <Q_VSA_PNEG>
0

>  <Q_VSA_POL>
0

>  <Q_VSA_POS>
389.59644

>  <Q_VSA_PPOS>
0

>  <radius>
7

>  <reactive>
0

>  <rings>
2

>  <RPC+>
0

>  <RPC->
0

>  <rsynth>
1

>  <SlogP>
3.4853001

>  <SlogP_VSA0>
29.010639

>  <SlogP_VSA1>
25.168627

>  <SlogP_VSA2>
0

>  <SlogP_VSA3>
94.68457

>  <SlogP_VSA4>
27.047791

>  <SlogP_VSA5>
0

>  <SlogP_VSA6>
0

>  <SlogP_VSA7>
92.933022

>  <SlogP_VSA8>
37.736813

>  <SlogP_VSA9>
104.79265

>  <SMR>
10.22672

>  <SMR_VSA0>
23.862217

>  <SMR_VSA1>
30.909731

>  <SMR_VSA2>
18.01075

>  <SMR_VSA3>
8.0001755

>  <SMR_VSA4>
4.7171016

>  <SMR_VSA5>
125.95274

>  <SMR_VSA6>
99.943352

>  <SMR_VSA7>
99.978043

>  <TPSA>
54.459999

>  <VAdjEq>
0.41335541

>  <VAdjMa>
5.7004399

>  <VDistEq>
3.5395558

>  <VDistMa>
8.9908381

>  <vdw_area>
389.59644

>  <vdw_vol>
506.56277

>  <vsa_acc>
19.249496

>  <vsa_acid>
0

>  <vsa_base>
0

>  <vsa_don>
5.6825762

>  <vsa_hyd>
313.25793

>  <vsa_other>
28.402819

>  <vsa_pol>
24.932074

>  <Weight>
343.47098

>  <weinerPath>
1654

>  <weinerPol>
36

>  <zagreb>
118

$$$$