s1c2S(=O)(=O)[C@H](C[C@H](NCC)c2cc1S(=O)(=O)N)C
  MOE2013           2D

 19 20  0  0  1  0  0  0  0  0999 V2000
    0.0000    0.0000    0.0000 S   0  0  0  0  0  0  0  0  0  0  0  0
   -1.4710   -0.2940    0.0000 C   0  0  0  0  0  0  0  0  0  0  0  0
   -2.6740    0.6020    0.0000 S   0  0  0  0  0  0  0  0  0  0  0  0
   -1.7770    1.8050    0.0000 O   0  0  0  0  0  0  0  0  0  0  0  0
   -3.2670    1.9800    0.0000 O   0  0  0  0  0  0  0  0  0  0  0  0
   -4.0510    0.0090    0.0000 C   0  0  2  0  0  0  0  0  0  0  0  0
   -4.2260   -1.4810    0.0000 C   0  0  0  0  0  0  0  0  0  0  0  0
   -3.0230   -2.3770    0.0000 C   0  0  2  0  0  0  0  0  0  0  0  0
   -3.1980   -3.8670    0.0000 N   0  0  0  0  0  0  0  0  0  0  0  0
   -4.5760   -4.4600    0.0000 C   0  0  0  0  0  0  0  0  0  0  0  0
   -4.7510   -5.9500    0.0000 C   0  0  0  0  0  0  0  0  0  0  0  0
   -1.6460   -1.7840    0.0000 C   0  0  0  0  0  0  0  0  0  0  0  0
   -0.2830   -2.4100    0.0000 C   0  0  0  0  0  0  0  0  0  0  0  0
    0.7340   -1.3080    0.0000 C   0  0  0  0  0  0  0  0  0  0  0  0
    2.2240   -1.4830    0.0000 S   0  0  0  0  0  0  0  0  0  0  0  0
    2.3990    0.0070    0.0000 O   0  0  0  0  0  0  0  0  0  0  0  0
    2.0490   -2.9730    0.0000 O   0  0  0  0  0  0  0  0  0  0  0  0
    3.7140   -1.6580    0.0000 N   0  0  0  0  0  0  0  0  0  0  0  0
   -5.2540    0.9050    0.0000 C   0  0  0  0  0  0  0  0  0  0  0  0
  1  2  1  0  0  0  0
  1 14  1  0  0  0  0
  2  3  1  0  0  0  0
  2 12  2  0  0  0  0
  3  4  2  0  0  0  0
  3  5  2  0  0  0  0
  3  6  1  0  0  0  0
  6  7  1  0  0  0  0
  6 19  1  6  0  0  0
  7  8  1  0  0  0  0
  8  9  1  1  0  0  0
  8 12  1  0  0  0  0
  9 10  1  0  0  0  0
 10 11  1  0  0  0  0
 12 13  1  0  0  0  0
 13 14  2  0  0  0  0
 14 15  1  0  0  0  0
 15 16  2  0  0  0  0
 15 17  2  0  0  0  0
 15 18  1  0  0  0  0
M  END
>  <Index>
346

>  <ID>
HT0711

>  <class>
0

>  <apol>
42.376686

>  <ast_fraglike>
0

>  <ast_fraglike_ext>
0

>  <ast_violation>
2

>  <ast_violation_ext>
4

>  <a_acc>
5

>  <a_acid>
0

>  <a_aro>
5

>  <a_base>
0

>  <a_count>
35

>  <a_don>
2

>  <a_donacc>
7

>  <a_heavy>
19

>  <a_hyd>
11

>  <a_IC>
67.550735

>  <a_ICM>
1.930021

>  <a_nB>
0

>  <a_nBr>
0

>  <a_nC>
10

>  <a_nCl>
0

>  <a_nF>
0

>  <a_nH>
16

>  <a_nI>
0

>  <a_nN>
2

>  <a_nO>
4

>  <a_nP>
0

>  <a_nS>
3

>  <balabanJ>
2.229331

>  <BCUT_PEOE_0>
-2.6886947

>  <BCUT_PEOE_1>
-0.49478897

>  <BCUT_PEOE_2>
0.51760423

>  <BCUT_PEOE_3>
2.75615

>  <BCUT_SLOGP_0>
-2.7325153

>  <BCUT_SLOGP_1>
-0.42167574

>  <BCUT_SLOGP_2>
0.5420059

>  <BCUT_SLOGP_3>
2.7529182

>  <BCUT_SMR_0>
-2.4293625

>  <BCUT_SMR_1>
-0.27073053

>  <BCUT_SMR_2>
0.66009724

>  <BCUT_SMR_3>
3.0260811

>  <bpol>
32.723312

>  <b_1rotN>
3

>  <b_1rotR>
0.15000001

>  <b_ar>
5

>  <b_count>
36

>  <b_double>
0

>  <b_heavy>
20

>  <b_max1len>
5

>  <b_rotN>
3

>  <b_rotR>
0.15000001

>  <b_single>
31

>  <b_triple>
0

>  <chi0>
14.422285

>  <chi0v>
13.030843

>  <chi0v_C>
6.6462646

>  <chi0_C>
7.0080719

>  <chi1>
8.6748867

>  <chi1v>
9.7229109

>  <chi1v_C>
3.216979

>  <chi1_C>
3.5841169

>  <chiral>
2

>  <chiral_u>
0

>  <density>
0.9278481

>  <diameter>
8

>  <FCharge>
0

>  <GCUT_PEOE_0>
-0.89106345

>  <GCUT_PEOE_1>
-0.39474005

>  <GCUT_PEOE_2>
0.025913229

>  <GCUT_PEOE_3>
2.715023

>  <GCUT_SLOGP_0>
-1.3482525

>  <GCUT_SLOGP_1>
-0.40880552

>  <GCUT_SLOGP_2>
0.093487054

>  <GCUT_SLOGP_3>
2.7349105

>  <GCUT_SMR_0>
-0.5145967

>  <GCUT_SMR_1>
-0.14161351

>  <GCUT_SMR_2>
0.14512035

>  <GCUT_SMR_3>
2.9700501

>  <Kier1>
15.39

>  <Kier2>
5.0800781

>  <Kier3>
2.7412255

>  <KierA1>
17.994007

>  <KierA2>
5.9920526

>  <KierA3>
3.2553961

>  <KierFlex>
5.6747918

>  <lip_acc>
6

>  <lip_don>
3

>  <lip_druglike>
1

>  <lip_violation>
0

>  <logP(o/w)>
0.60900003

>  <logS>
-2.7739799

>  <mr>
7.5969605

>  <mutagenic>
0

>  <nmol>
1

>  <opr_brigid>
10

>  <opr_leadlike>
1

>  <opr_nring>
2

>  <opr_nrot>
4

>  <opr_violation>
0

>  <PC+>
0

>  <PC->
0

>  <PEOE_PC+>
2.1083274

>  <PEOE_PC->
-2.1083274

>  <PEOE_RPC+>
0.16358097

>  <PEOE_RPC->
0.22433749

>  <PEOE_VSA+0>
101.00008

>  <PEOE_VSA+1>
22.586586

>  <PEOE_VSA+2>
12.884399

>  <PEOE_VSA+3>
0.63101059

>  <PEOE_VSA+4>
6.1606631

>  <PEOE_VSA+5>
6.1606631

>  <PEOE_VSA+6>
19.760618

>  <PEOE_VSA-0>
13.192325

>  <PEOE_VSA-1>
18.747677

>  <PEOE_VSA-2>
6.5127993

>  <PEOE_VSA-3>
9.0437498

>  <PEOE_VSA-4>
32.016521

>  <PEOE_VSA-5>
0

>  <PEOE_VSA-6>
32.153416

>  <PEOE_VSA_FHYD>
0.65728426

>  <PEOE_VSA_FNEG>
0.39760116

>  <PEOE_VSA_FPNEG>
0.22848432

>  <PEOE_VSA_FPOL>
0.34271571

>  <PEOE_VSA_FPOS>
0.60239881

>  <PEOE_VSA_FPPOS>
0.11423139

>  <PEOE_VSA_HYD>
184.59862

>  <PEOE_VSA_NEG>
111.66649

>  <PEOE_VSA_PNEG>
64.169937

>  <PEOE_VSA_POL>
96.251884

>  <PEOE_VSA_POS>
169.18402

>  <PEOE_VSA_PPOS>
32.081944

>  <petitjean>
0.5

>  <petitjeanSC>
1

>  <Q_PC+>
0

>  <Q_PC->
0

>  <Q_RPC+>
0

>  <Q_RPC->
0

>  <Q_VSA_FHYD>
1

>  <Q_VSA_FNEG>
0

>  <Q_VSA_FPNEG>
0

>  <Q_VSA_FPOL>
0

>  <Q_VSA_FPOS>
1

>  <Q_VSA_FPPOS>
0

>  <Q_VSA_HYD>
280.85049

>  <Q_VSA_NEG>
0

>  <Q_VSA_PNEG>
0

>  <Q_VSA_POL>
0

>  <Q_VSA_POS>
280.85049

>  <Q_VSA_PPOS>
0

>  <radius>
4

>  <reactive>
0

>  <rings>
2

>  <RPC+>
0

>  <RPC->
0

>  <rsynth>
1

>  <SlogP>
0.70749998

>  <SlogP_VSA0>
49.302185

>  <SlogP_VSA1>
96.343376

>  <SlogP_VSA2>
16.295965

>  <SlogP_VSA3>
18.439579

>  <SlogP_VSA4>
3.185575

>  <SlogP_VSA5>
0

>  <SlogP_VSA6>
0

>  <SlogP_VSA7>
17.643185

>  <SlogP_VSA8>
22.850374

>  <SlogP_VSA9>
97.929718

>  <SMR>
7.3485699

>  <SMR_VSA0>
96.343376

>  <SMR_VSA1>
0

>  <SMR_VSA2>
18.01075

>  <SMR_VSA3>
9.9434986

>  <SMR_VSA4>
31.291433

>  <SMR_VSA5>
36.511589

>  <SMR_VSA6>
18.439579

>  <SMR_VSA7>
111.44973

>  <TPSA>
106.33

>  <VAdjEq>
0.5023343

>  <VAdjMa>
5.321928

>  <VDistEq>
2.8025389

>  <VDistMa>
8.2359238

>  <vdw_area>
280.85049

>  <vdw_vol>
349.67578

>  <vsa_acc>
64.033043

>  <vsa_acid>
0

>  <vsa_base>
0

>  <vsa_don>
20.13512

>  <vsa_hyd>
155.90804

>  <vsa_other>
16.618408

>  <vsa_pol>
89.850746

>  <Weight>
324.44601

>  <weinerPath>
634

>  <weinerPol>
33

>  <zagreb>
104

$$$$