O(C(=O)C)c1c2c(cc(c1)C(O)=O)C(=O)c1c(C2=O)c(OC(=O)C)ccc1
  MOE2013           2D

 27 29  0  0  0  0  0  0  0  0999 V2000
    0.0000    0.0000    0.0000 O   0  0  0  0  0  0  0  0  0  0  0  0
    1.2990    0.7510    0.0000 C   0  0  0  0  0  0  0  0  0  0  0  0
    1.2980    2.2510    0.0000 O   0  0  0  0  0  0  0  0  0  0  0  0
    2.5980    0.0020    0.0000 C   0  0  0  0  0  0  0  0  0  0  0  0
    0.0010   -1.5000    0.0000 C   0  0  0  0  0  0  0  0  0  0  0  0
   -1.2980   -2.2510    0.0000 C   0  0  0  0  0  0  0  0  0  0  0  0
   -1.2970   -3.7510    0.0000 C   0  0  0  0  0  0  0  0  0  0  0  0
    0.0030   -4.5000    0.0000 C   0  0  0  0  0  0  0  0  0  0  0  0
    1.3010   -3.7490    0.0000 C   0  0  0  0  0  0  0  0  0  0  0  0
    1.3000   -2.2490    0.0000 C   0  0  0  0  0  0  0  0  0  0  0  0
    2.6010   -4.4980    0.0000 C   0  0  0  0  0  0  0  0  0  0  0  0
    2.6020   -5.9980    0.0000 O   0  0  0  0  0  0  0  0  0  0  0  0
    3.9000   -3.7480    0.0000 O   0  0  0  0  0  0  0  0  0  0  0  0
   -2.5950   -4.5020    0.0000 C   0  0  0  0  0  0  0  0  0  0  0  0
   -2.5940   -6.0020    0.0000 O   0  0  0  0  0  0  0  0  0  0  0  0
   -3.8950   -3.7520    0.0000 C   0  0  0  0  0  0  0  0  0  0  0  0
   -3.8960   -2.2520    0.0000 C   0  0  0  0  0  0  0  0  0  0  0  0
   -2.5970   -1.5020    0.0000 C   0  0  0  0  0  0  0  0  0  0  0  0
   -2.5980   -0.0020    0.0000 O   0  0  0  0  0  0  0  0  0  0  0  0
   -5.1950   -1.5030    0.0000 C   0  0  0  0  0  0  0  0  0  0  0  0
   -5.1960   -0.0030    0.0000 O   0  0  0  0  0  0  0  0  0  0  0  0
   -6.4960    0.7460    0.0000 C   0  0  0  0  0  0  0  0  0  0  0  0
   -7.7940   -0.0050    0.0000 O   0  0  0  0  0  0  0  0  0  0  0  0
   -6.4970    2.2460    0.0000 C   0  0  0  0  0  0  0  0  0  0  0  0
   -6.4940   -2.2540    0.0000 C   0  0  0  0  0  0  0  0  0  0  0  0
   -6.4930   -3.7540    0.0000 C   0  0  0  0  0  0  0  0  0  0  0  0
   -5.1930   -4.5030    0.0000 C   0  0  0  0  0  0  0  0  0  0  0  0
  1  2  1  0  0  0  0
  1  5  1  0  0  0  0
  2  3  2  0  0  0  0
  2  4  1  0  0  0  0
  5  6  1  0  0  0  0
  5 10  2  0  0  0  0
  6  7  2  0  0  0  0
  6 18  1  0  0  0  0
  7  8  1  0  0  0  0
  7 14  1  0  0  0  0
  8  9  2  0  0  0  0
  9 10  1  0  0  0  0
  9 11  1  0  0  0  0
 11 12  1  0  0  0  0
 11 13  2  0  0  0  0
 14 15  2  0  0  0  0
 14 16  1  0  0  0  0
 16 17  1  0  0  0  0
 16 27  2  0  0  0  0
 17 18  1  0  0  0  0
 17 20  2  0  0  0  0
 18 19  2  0  0  0  0
 20 21  1  0  0  0  0
 20 25  1  0  0  0  0
 21 22  1  0  0  0  0
 22 23  2  0  0  0  0
 22 24  1  0  0  0  0
 25 26  2  0  0  0  0
 26 27  1  0  0  0  0
M  END
>  <Index>
308

>  <ID>
HT0633

>  <class>
0

>  <apol>
47.857517

>  <ast_fraglike>
0

>  <ast_fraglike_ext>
0

>  <ast_violation>
2

>  <ast_violation_ext>
3

>  <a_acc>
6

>  <a_acid>
0

>  <a_aro>
12

>  <a_base>
0

>  <a_count>
39

>  <a_don>
2

>  <a_donacc>
8

>  <a_heavy>
27

>  <a_hyd>
14

>  <a_IC>
58.400513

>  <a_ICM>
1.497449

>  <a_nB>
0

>  <a_nBr>
0

>  <a_nC>
19

>  <a_nCl>
0

>  <a_nF>
0

>  <a_nH>
12

>  <a_nI>
0

>  <a_nN>
0

>  <a_nO>
8

>  <a_nP>
0

>  <a_nS>
0

>  <balabanJ>
1.9017117

>  <BCUT_PEOE_0>
-2.2960491

>  <BCUT_PEOE_1>
-0.58235651

>  <BCUT_PEOE_2>
0.61921054

>  <BCUT_PEOE_3>
2.3981094

>  <BCUT_SLOGP_0>
-2.308635

>  <BCUT_SLOGP_1>
-0.4936046

>  <BCUT_SLOGP_2>
0.67013788

>  <BCUT_SLOGP_3>
2.4420485

>  <BCUT_SMR_0>
-2.0036044

>  <BCUT_SMR_1>
-0.39249802

>  <BCUT_SMR_2>
0.7652874

>  <BCUT_SMR_3>
2.698931

>  <bpol>
21.740484

>  <b_1rotN>
3

>  <b_1rotR>
0.10344828

>  <b_ar>
12

>  <b_count>
41

>  <b_double>
5

>  <b_heavy>
29

>  <b_max1len>
2

>  <b_rotN>
5

>  <b_rotR>
0.1724138

>  <b_single>
24

>  <b_triple>
0

>  <chi0>
19.877951

>  <chi0v>
14.191703

>  <chi0v_C>
10.886751

>  <chi0_C>
12.463737

>  <chi1>
12.701285

>  <chi1v>
7.7094417

>  <chi1v_C>
5.6487174

>  <chi1_C>
7.6041903

>  <chiral>
0

>  <chiral_u>
0

>  <density>
0.84338105

>  <diameter>
11

>  <FCharge>
0

>  <GCUT_PEOE_0>
-0.72793895

>  <GCUT_PEOE_1>
-0.49728328

>  <GCUT_PEOE_2>
0.093032449

>  <GCUT_PEOE_3>
2.5700135

>  <GCUT_SLOGP_0>
-0.91190547

>  <GCUT_SLOGP_1>
-0.40995863

>  <GCUT_SLOGP_2>
0.12986082

>  <GCUT_SLOGP_3>
2.6300814

>  <GCUT_SMR_0>
-0.46953854

>  <GCUT_SMR_1>
-0.23272553

>  <GCUT_SMR_2>
0.23537391

>  <GCUT_SMR_3>
2.8582504

>  <Kier1>
21.702734

>  <Kier2>
8.7885342

>  <Kier3>
4.4518433

>  <KierA1>
14.980109

>  <KierA2>
5.972137

>  <KierA3>
2.990135

>  <KierFlex>
3.3134542

>  <lip_acc>
8

>  <lip_don>
1

>  <lip_druglike>
1

>  <lip_violation>
0

>  <logP(o/w)>
2.5769999

>  <logS>
-4.56144

>  <mr>
9.0949068

>  <mutagenic>
0

>  <nmol>
1

>  <opr_brigid>
16

>  <opr_leadlike>
1

>  <opr_nring>
3

>  <opr_nrot>
3

>  <opr_violation>
0

>  <PC+>
0

>  <PC->
0

>  <PEOE_PC+>
2.4377401

>  <PEOE_PC->
-2.4377401

>  <PEOE_RPC+>
0.11951111

>  <PEOE_RPC->
0.13434105

>  <PEOE_VSA+0>
69.713287

>  <PEOE_VSA+1>
42.661049

>  <PEOE_VSA+2>
0

>  <PEOE_VSA+3>
16.917038

>  <PEOE_VSA+4>
10.324173

>  <PEOE_VSA+5>
44.125496

>  <PEOE_VSA+6>
0

>  <PEOE_VSA-0>
36.764713

>  <PEOE_VSA-1>
24.509808

>  <PEOE_VSA-2>
0

>  <PEOE_VSA-3>
0

>  <PEOE_VSA-4>
0

>  <PEOE_VSA-5>
72.842117

>  <PEOE_VSA-6>
7.7675405

>  <PEOE_VSA_FHYD>
0.58523077

>  <PEOE_VSA_FNEG>
0.43572846

>  <PEOE_VSA_FPNEG>
0.24755348

>  <PEOE_VSA_FPOL>
0.41476923

>  <PEOE_VSA_FPOS>
0.56427157

>  <PEOE_VSA_FPPOS>
0.16721576

>  <PEOE_VSA_HYD>
190.5659

>  <PEOE_VSA_NEG>
141.88417

>  <PEOE_VSA_PNEG>
80.609657

>  <PEOE_VSA_POL>
135.05933

>  <PEOE_VSA_POS>
183.74104

>  <PEOE_VSA_PPOS>
54.449669

>  <petitjean>
0.45454547

>  <petitjeanSC>
0.83333331

>  <Q_PC+>
0

>  <Q_PC->
0

>  <Q_RPC+>
0

>  <Q_RPC->
0

>  <Q_VSA_FHYD>
1

>  <Q_VSA_FNEG>
0

>  <Q_VSA_FPNEG>
0

>  <Q_VSA_FPOL>
0

>  <Q_VSA_FPOS>
1

>  <Q_VSA_FPPOS>
0

>  <Q_VSA_HYD>
325.62521

>  <Q_VSA_NEG>
0

>  <Q_VSA_PNEG>
0

>  <Q_VSA_POL>
0

>  <Q_VSA_POS>
325.62521

>  <Q_VSA_PPOS>
0

>  <radius>
6

>  <reactive>
1

>  <rings>
3

>  <RPC+>
0

>  <RPC->
0

>  <rsynth>
1

>  <SlogP>
2.0107999

>  <SlogP_VSA0>
21.999775

>  <SlogP_VSA1>
34.611614

>  <SlogP_VSA2>
47.724434

>  <SlogP_VSA3>
25.385227

>  <SlogP_VSA4>
87.514526

>  <SlogP_VSA5>
0

>  <SlogP_VSA6>
0

>  <SlogP_VSA7>
88.215919

>  <SlogP_VSA8>
0

>  <SlogP_VSA9>
77.138885

>  <SMR>
8.9326296

>  <SMR_VSA0>
119.31108

>  <SMR_VSA1>
21.999775

>  <SMR_VSA2>
25.385227

>  <SMR_VSA3>
26.41473

>  <SMR_VSA4>
0

>  <SMR_VSA5>
88.215919

>  <SMR_VSA6>
34.611614

>  <SMR_VSA7>
66.652031

>  <TPSA>
124.04

>  <VAdjEq>
0.40063059

>  <VAdjMa>
5.8579812

>  <VDistEq>
3.2085834

>  <VDistMa>
9.2629204

>  <vdw_area>
325.62521

>  <vdw_vol>
436.6911

>  <vsa_acc>
54.267685

>  <vsa_acid>
0

>  <vsa_base>
0

>  <vsa_don>
0

>  <vsa_hyd>
165.81911

>  <vsa_other>
66.050049

>  <vsa_pol>
81.401527

>  <Weight>
368.297

>  <weinerPath>
1652

>  <weinerPol>
49

>  <zagreb>
144

$$$$