O=C1N(C)C(=O)N(c2ncn(c12)CC(O)CO)C
  MOE2013           2D

 18 19  0  0  1  0  0  0  0  0999 V2000
    0.0000    0.0000    0.0000 O   0  0  0  0  0  0  0  0  0  0  0  0
   -0.7520    1.2980    0.0000 C   0  0  0  0  0  0  0  0  0  0  0  0
   -2.2520    1.2960    0.0000 N   0  0  0  0  0  0  0  0  0  0  0  0
   -3.0000   -0.0040    0.0000 C   0  0  0  0  0  0  0  0  0  0  0  0
   -3.0040    2.5940    0.0000 C   0  0  0  0  0  0  0  0  0  0  0  0
   -4.5040    2.5910    0.0000 O   0  0  0  0  0  0  0  0  0  0  0  0
   -2.2560    3.8940    0.0000 N   0  0  0  0  0  0  0  0  0  0  0  0
   -0.7560    3.8960    0.0000 C   0  0  0  0  0  0  0  0  0  0  0  0
    0.2460    5.0120    0.0000 N   0  0  0  0  0  0  0  0  0  0  0  0
    1.6180    4.4040    0.0000 C   0  0  0  0  0  0  0  0  0  0  0  0
    1.4630    2.9120    0.0000 N   0  0  0  0  0  0  0  0  0  0  0  0
   -0.0040    2.5980    0.0000 C   0  0  0  0  0  0  0  0  0  0  0  0
    2.5790    1.9100    0.0000 C   0  0  0  0  0  0  0  0  0  0  0  0
    4.0050    2.3760    0.0000 C   0  0  3  0  0  0  0  0  0  0  0  0
    4.3150    3.8430    0.0000 O   0  0  0  0  0  0  0  0  0  0  0  0
    5.1210    1.3740    0.0000 C   0  0  0  0  0  0  0  0  0  0  0  0
    6.5470    1.8390    0.0000 O   0  0  0  0  0  0  0  0  0  0  0  0
   -3.0080    5.1920    0.0000 C   0  0  0  0  0  0  0  0  0  0  0  0
  1  2  2  0  0  0  0
  2  3  1  0  0  0  0
  2 12  1  0  0  0  0
  3  4  1  0  0  0  0
  3  5  1  0  0  0  0
  5  6  2  0  0  0  0
  5  7  1  0  0  0  0
  7  8  1  0  0  0  0
  7 18  1  0  0  0  0
  8  9  1  0  0  0  0
  8 12  2  0  0  0  0
  9 10  2  0  0  0  0
 10 11  1  0  0  0  0
 11 12  1  0  0  0  0
 11 13  1  0  0  0  0
 13 14  1  0  0  0  0
 14 15  1  0  0  0  0
 14 16  1  0  0  0  0
 16 17  1  0  0  0  0
M  END
>  <Index>
360

>  <ID>
HT0736

>  <class>
0

>  <apol>
34.543102

>  <ast_fraglike>
0

>  <ast_fraglike_ext>
0

>  <ast_violation>
1

>  <ast_violation_ext>
1

>  <a_acc>
5

>  <a_acid>
0

>  <a_aro>
5

>  <a_base>
0

>  <a_count>
32

>  <a_don>
2

>  <a_donacc>
7

>  <a_heavy>
18

>  <a_hyd>
6

>  <a_IC>
57.477749

>  <a_ICM>
1.7961797

>  <a_nB>
0

>  <a_nBr>
0

>  <a_nC>
10

>  <a_nCl>
0

>  <a_nF>
0

>  <a_nH>
14

>  <a_nI>
0

>  <a_nN>
4

>  <a_nO>
4

>  <a_nP>
0

>  <a_nS>
0

>  <balabanJ>
2.1187205

>  <BCUT_PEOE_0>
-2.5311573

>  <BCUT_PEOE_1>
-0.42908934

>  <BCUT_PEOE_2>
0.47970513

>  <BCUT_PEOE_3>
2.5573599

>  <BCUT_SLOGP_0>
-2.6446819

>  <BCUT_SLOGP_1>
-0.44416884

>  <BCUT_SLOGP_2>
0.44228184

>  <BCUT_SLOGP_3>
2.4938948

>  <BCUT_SMR_0>
-2.3006351

>  <BCUT_SMR_1>
-0.29188576

>  <BCUT_SMR_2>
0.62930685

>  <BCUT_SMR_3>
2.8064752

>  <bpol>
24.480898

>  <b_1rotN>
3

>  <b_1rotR>
0.15789473

>  <b_ar>
5

>  <b_count>
33

>  <b_double>
2

>  <b_heavy>
19

>  <b_max1len>
5

>  <b_rotN>
3

>  <b_rotR>
0.15789473

>  <b_single>
26

>  <b_triple>
0

>  <chi0>
13.447229

>  <chi0v>
10.068692

>  <chi0v_C>
6.5689139

>  <chi0_C>
7.0080719

>  <chi1>
8.4684334

>  <chi1v>
5.3678651

>  <chi1v_C>
1.3164966

>  <chi1_C>
1.4831632

>  <chiral>
1

>  <chiral_u>
1

>  <density>
0.82801008

>  <diameter>
9

>  <FCharge>
0

>  <GCUT_PEOE_0>
-0.8317942

>  <GCUT_PEOE_1>
-0.4435983

>  <GCUT_PEOE_2>
0.041962612

>  <GCUT_PEOE_3>
2.4998758

>  <GCUT_SLOGP_0>
-1.0014861

>  <GCUT_SLOGP_1>
-0.44314519

>  <GCUT_SLOGP_2>
-0.01814696

>  <GCUT_SLOGP_3>
2.4551485

>  <GCUT_SMR_0>
-0.52251083

>  <GCUT_SMR_1>
-0.19355716

>  <GCUT_SMR_2>
0.14571984

>  <GCUT_SMR_3>
2.7539711

>  <Kier1>
14.409972

>  <Kier2>
5.5510206

>  <Kier3>
2.5246549

>  <KierA1>
10.630735

>  <KierA2>
4.0153046

>  <KierA3>
1.7996718

>  <KierFlex>
2.3714242

>  <lip_acc>
8

>  <lip_don>
2

>  <lip_druglike>
1

>  <lip_violation>
0

>  <logP(o/w)>
-1.8710001

>  <logS>
-0.28325

>  <mr>
6.1167774

>  <mutagenic>
0

>  <nmol>
1

>  <opr_brigid>
10

>  <opr_leadlike>
1

>  <opr_nring>
2

>  <opr_nrot>
3

>  <opr_violation>
0

>  <PC+>
0

>  <PC->
0

>  <PEOE_PC+>
2.3730698

>  <PEOE_PC->
-2.3730698

>  <PEOE_RPC+>
0.14035326

>  <PEOE_RPC->
0.16535765

>  <PEOE_VSA+0>
72.069695

>  <PEOE_VSA+1>
75.612404

>  <PEOE_VSA+2>
4.2653861

>  <PEOE_VSA+3>
17.890114

>  <PEOE_VSA+4>
20.648346

>  <PEOE_VSA+5>
12.949531

>  <PEOE_VSA+6>
17.440542

>  <PEOE_VSA-0>
0

>  <PEOE_VSA-1>
0

>  <PEOE_VSA-2>
0

>  <PEOE_VSA-3>
0

>  <PEOE_VSA-4>
19.249496

>  <PEOE_VSA-5>
13.566921

>  <PEOE_VSA-6>
15.535081

>  <PEOE_VSA_FHYD>
0.63083297

>  <PEOE_VSA_FNEG>
0.17959344

>  <PEOE_VSA_FPNEG>
0.17959344

>  <PEOE_VSA_FPOL>
0.369167

>  <PEOE_VSA_FPOS>
0.82040656

>  <PEOE_VSA_FPPOS>
0.18957356

>  <PEOE_VSA_HYD>
169.8376

>  <PEOE_VSA_NEG>
48.351498

>  <PEOE_VSA_PNEG>
48.351498

>  <PEOE_VSA_POL>
99.389915

>  <PEOE_VSA_POS>
220.87602

>  <PEOE_VSA_PPOS>
51.038418

>  <petitjean>
0.44444445

>  <petitjeanSC>
0.80000001

>  <Q_PC+>
0

>  <Q_PC->
0

>  <Q_RPC+>
0

>  <Q_RPC->
0

>  <Q_VSA_FHYD>
1

>  <Q_VSA_FNEG>
0

>  <Q_VSA_FPNEG>
0

>  <Q_VSA_FPOL>
0

>  <Q_VSA_FPOS>
1

>  <Q_VSA_FPPOS>
0

>  <Q_VSA_HYD>
269.22751

>  <Q_VSA_NEG>
0

>  <Q_VSA_PNEG>
0

>  <Q_VSA_POL>
0

>  <Q_VSA_POS>
269.22751

>  <Q_VSA_PPOS>
0

>  <radius>
5

>  <reactive>
0

>  <rings>
2

>  <RPC+>
0

>  <RPC->
0

>  <rsynth>
1

>  <SlogP>
-0.85549998

>  <SlogP_VSA0>
53.894768

>  <SlogP_VSA1>
31.897676

>  <SlogP_VSA2>
6.4686494

>  <SlogP_VSA3>
20.926258

>  <SlogP_VSA4>
26.618963

>  <SlogP_VSA5>
65.794373

>  <SlogP_VSA6>
0

>  <SlogP_VSA7>
16.78553

>  <SlogP_VSA8>
0

>  <SlogP_VSA9>
44.629715

>  <SMR>
6.1417098

>  <SMR_VSA0>
47.724434

>  <SMR_VSA1>
72.579391

>  <SMR_VSA2>
3.1243138

>  <SMR_VSA3>
9.2253971

>  <SMR_VSA4>
2.3279202

>  <SMR_VSA5>
35.225109

>  <SMR_VSA6>
31.014997

>  <SMR_VSA7>
65.794373

>  <TPSA>
98.900002

>  <VAdjEq>
0.52150291

>  <VAdjMa>
5.2479277

>  <VDistEq>
2.8722646

>  <VDistMa>
8.060564

>  <vdw_area>
269.22751

>  <vdw_vol>
307.05664

>  <vsa_acc>
32.816418

>  <vsa_acid>
0

>  <vsa_base>
0

>  <vsa_don>
0

>  <vsa_hyd>
125.31497

>  <vsa_other>
66.371155

>  <vsa_pol>
59.95026

>  <Weight>
254.246

>  <weinerPath>
568

>  <weinerPol>
31

>  <zagreb>
94

$$$$