Clc1cc2c(-n3c(nnc3)CN=C2c2ccccc2)cc1
  MOE2013           2D

 21 24  0  0  0  0  0  0  0  0999 V2000
    0.0000    0.0000    0.0000 Cl  0  0  0  0  0  0  0  0  0  0  0  0
   -1.1290   -0.9870    0.0000 C   0  0  0  0  0  0  0  0  0  0  0  0
   -0.8390   -2.4590    0.0000 C   0  0  0  0  0  0  0  0  0  0  0  0
   -1.9680   -3.4460    0.0000 C   0  0  0  0  0  0  0  0  0  0  0  0
   -3.3880   -2.9620    0.0000 C   0  0  0  0  0  0  0  0  0  0  0  0
   -4.6510   -3.7710    0.0000 N   0  0  0  0  0  0  0  0  0  0  0  0
   -4.8060   -5.2630    0.0000 C   0  0  0  0  0  0  0  0  0  0  0  0
   -6.2730   -5.5770    0.0000 N   0  0  0  0  0  0  0  0  0  0  0  0
   -7.0240   -4.2790    0.0000 N   0  0  0  0  0  0  0  0  0  0  0  0
   -6.0220   -3.1630    0.0000 C   0  0  0  0  0  0  0  0  0  0  0  0
   -3.7370   -6.3150    0.0000 C   0  0  0  0  0  0  0  0  0  0  0  0
   -2.2480   -6.1350    0.0000 N   0  0  0  0  0  0  0  0  0  0  0  0
   -1.4610   -4.8580    0.0000 C   0  0  0  0  0  0  0  0  0  0  0  0
    0.0310   -5.0130    0.0000 C   0  0  0  0  0  0  0  0  0  0  0  0
    0.6430   -6.3830    0.0000 C   0  0  0  0  0  0  0  0  0  0  0  0
    2.1340   -6.5380    0.0000 C   0  0  0  0  0  0  0  0  0  0  0  0
    3.0150   -5.3230    0.0000 C   0  0  0  0  0  0  0  0  0  0  0  0
    2.4030   -3.9540    0.0000 C   0  0  0  0  0  0  0  0  0  0  0  0
    0.9110   -3.7990    0.0000 C   0  0  0  0  0  0  0  0  0  0  0  0
   -3.6780   -1.4900    0.0000 C   0  0  0  0  0  0  0  0  0  0  0  0
   -2.5490   -0.5030    0.0000 C   0  0  0  0  0  0  0  0  0  0  0  0
  1  2  1  0  0  0  0
  2  3  1  0  0  0  0
  2 21  2  0  0  0  0
  3  4  2  0  0  0  0
  4  5  1  0  0  0  0
  4 13  1  0  0  0  0
  5  6  1  0  0  0  0
  5 20  2  0  0  0  0
  6  7  1  0  0  0  0
  6 10  1  0  0  0  0
  7  8  2  0  0  0  0
  7 11  1  0  0  0  0
  8  9  1  0  0  0  0
  9 10  2  0  0  0  0
 11 12  1  0  0  0  0
 12 13  2  0  0  0  0
 13 14  1  0  0  0  0
 14 15  1  0  0  0  0
 14 19  2  0  0  0  0
 15 16  2  0  0  0  0
 16 17  1  0  0  0  0
 17 18  2  0  0  0  0
 18 19  1  0  0  0  0
 20 21  1  0  0  0  0
M  END
>  <Index>
391

>  <ID>
HT0789

>  <class>
0

>  <apol>
42.074722

>  <ast_fraglike>
0

>  <ast_fraglike_ext>
0

>  <ast_violation>
1

>  <ast_violation_ext>
1

>  <a_acc>
3

>  <a_acid>
0

>  <a_aro>
17

>  <a_base>
0

>  <a_count>
32

>  <a_don>
0

>  <a_donacc>
3

>  <a_heavy>
21

>  <a_hyd>
14

>  <a_IC>
49.946251

>  <a_ICM>
1.5608203

>  <a_nB>
0

>  <a_nBr>
0

>  <a_nC>
16

>  <a_nCl>
1

>  <a_nF>
0

>  <a_nH>
11

>  <a_nI>
0

>  <a_nN>
4

>  <a_nO>
0

>  <a_nP>
0

>  <a_nS>
0

>  <balabanJ>
1.5794548

>  <BCUT_PEOE_0>
-2.2473805

>  <BCUT_PEOE_1>
-0.62530714

>  <BCUT_PEOE_2>
0.6823498

>  <BCUT_PEOE_3>
2.3498998

>  <BCUT_SLOGP_0>
-2.1626194

>  <BCUT_SLOGP_1>
-0.50841528

>  <BCUT_SLOGP_2>
0.80328447

>  <BCUT_SLOGP_3>
2.4406121

>  <BCUT_SMR_0>
-1.9406877

>  <BCUT_SMR_1>
-0.46157157

>  <BCUT_SMR_2>
0.94648963

>  <BCUT_SMR_3>
2.6613288

>  <bpol>
17.065277

>  <b_1rotN>
1

>  <b_1rotR>
0.041666668

>  <b_ar>
17

>  <b_count>
35

>  <b_double>
1

>  <b_heavy>
24

>  <b_max1len>
2

>  <b_rotN>
1

>  <b_rotR>
0.041666668

>  <b_single>
17

>  <b_triple>
0

>  <chi0>
14.23384

>  <chi0v>
11.826007

>  <chi0v_C>
8.9032593

>  <chi0_C>
10.53517

>  <chi1>
10.3265

>  <chi1v>
6.9962702

>  <chi1v_C>
4.5022707

>  <chi1_C>
6.357738

>  <chiral>
0

>  <chiral_u>
0

>  <density>
0.78562868

>  <diameter>
9

>  <FCharge>
0

>  <GCUT_PEOE_0>
-0.79987717

>  <GCUT_PEOE_1>
-0.38551852

>  <GCUT_PEOE_2>
0.072537825

>  <GCUT_PEOE_3>
2.5055282

>  <GCUT_SLOGP_0>
-0.86504239

>  <GCUT_SLOGP_1>
-0.29639915

>  <GCUT_SLOGP_2>
0.16076009

>  <GCUT_SLOGP_3>
2.6154327

>  <GCUT_SMR_0>
-0.46370521

>  <GCUT_SMR_1>
-0.20369317

>  <GCUT_SMR_2>
0.29806334

>  <GCUT_SMR_3>
2.8214846

>  <Kier1>
14.583333

>  <Kier2>
6.2456746

>  <Kier3>
2.8125

>  <KierA1>
10.38568

>  <KierA2>
4.3656497

>  <KierA3>
1.9377798

>  <KierFlex>
2.159059

>  <lip_acc>
4

>  <lip_don>
0

>  <lip_druglike>
1

>  <lip_violation>
0

>  <logP(o/w)>
3.668

>  <logS>
-4.5573401

>  <mr>
8.2598763

>  <mutagenic>
0

>  <nmol>
1

>  <opr_brigid>
22

>  <opr_leadlike>
1

>  <opr_nring>
4

>  <opr_nrot>
1

>  <opr_violation>
0

>  <PC+>
0

>  <PC->
0

>  <PEOE_PC+>
1.3100927

>  <PEOE_PC->
-1.3100927

>  <PEOE_RPC+>
0.12156127

>  <PEOE_RPC->
0.2163541

>  <PEOE_VSA+0>
8.9368258

>  <PEOE_VSA+1>
56.052963

>  <PEOE_VSA+2>
38.694637

>  <PEOE_VSA+3>
11.190562

>  <PEOE_VSA+4>
0

>  <PEOE_VSA+5>
0

>  <PEOE_VSA+6>
0

>  <PEOE_VSA-0>
36.764713

>  <PEOE_VSA-1>
90.856468

>  <PEOE_VSA-2>
18.842079

>  <PEOE_VSA-3>
0

>  <PEOE_VSA-4>
0

>  <PEOE_VSA-5>
5.6825762

>  <PEOE_VSA-6>
0

>  <PEOE_VSA_FHYD>
0.97871858

>  <PEOE_VSA_FNEG>
0.56979012

>  <PEOE_VSA_FPNEG>
0.021281397

>  <PEOE_VSA_FPOL>
0.021281397

>  <PEOE_VSA_FPOS>
0.43020985

>  <PEOE_VSA_FPPOS>
0

>  <PEOE_VSA_HYD>
261.33826

>  <PEOE_VSA_NEG>
152.14583

>  <PEOE_VSA_PNEG>
5.6825762

>  <PEOE_VSA_POL>
5.6825762

>  <PEOE_VSA_POS>
114.87499

>  <PEOE_VSA_PPOS>
0

>  <petitjean>
0.44444445

>  <petitjeanSC>
0.80000001

>  <Q_PC+>
0

>  <Q_PC->
0

>  <Q_RPC+>
0

>  <Q_RPC->
0

>  <Q_VSA_FHYD>
1

>  <Q_VSA_FNEG>
0

>  <Q_VSA_FPNEG>
0

>  <Q_VSA_FPOL>
0

>  <Q_VSA_FPOS>
1

>  <Q_VSA_FPPOS>
0

>  <Q_VSA_HYD>
267.02081

>  <Q_VSA_NEG>
0

>  <Q_VSA_PNEG>
0

>  <Q_VSA_POL>
0

>  <Q_VSA_POS>
267.02081

>  <Q_VSA_PPOS>
0

>  <radius>
5

>  <reactive>
0

>  <rings>
4

>  <RPC+>
0

>  <RPC->
0

>  <rsynth>
1

>  <SlogP>
3.5381

>  <SlogP_VSA0>
0

>  <SlogP_VSA1>
37.981853

>  <SlogP_VSA2>
0

>  <SlogP_VSA3>
0

>  <SlogP_VSA4>
8.69907

>  <SlogP_VSA5>
16.78553

>  <SlogP_VSA6>
3.5006065

>  <SlogP_VSA7>
160.68776

>  <SlogP_VSA8>
0

>  <SlogP_VSA9>
57.588223

>  <SMR>
8.2358999

>  <SMR_VSA0>
0

>  <SMR_VSA1>
52.010635

>  <SMR_VSA2>
0

>  <SMR_VSA3>
12.199677

>  <SMR_VSA4>
2.7567475

>  <SMR_VSA5>
176.37057

>  <SMR_VSA6>
2.7567475

>  <SMR_VSA7>
39.148643

>  <TPSA>
43.07

>  <VAdjEq>
0.49641782

>  <VAdjMa>
5.5849624

>  <VDistEq>
2.900466

>  <VDistMa>
8.5295439

>  <vdw_area>
267.02081

>  <vdw_vol>
375.17087

>  <vsa_acc>
24.524654

>  <vsa_acid>
0

>  <vsa_base>
0

>  <vsa_don>
0

>  <vsa_hyd>
191.98579

>  <vsa_other>
42.68063

>  <vsa_pol>
24.524654

>  <Weight>
294.745

>  <weinerPath>
822

>  <weinerPol>
37

>  <zagreb>
116

$$$$