OC=1[C@]2(O)[C@H]([C@H](N(C)C)C(=O)C=1C(=O)N)[C@@H](O)[C@H]1C(=C2O)C(=O)c2c(cccc2O)[C@@H]1C
  MOE2013           2D

 32 35  0  0  1  0  0  0  0  0999 V2000
    0.0000    0.0000    0.0000 O   0  0  0  0  0  0  0  0  0  0  0  0
   -0.7560    1.2960    0.0000 C   0  0  0  0  0  0  0  0  0  0  0  0
   -0.0120    2.5980    0.0000 C   0  0  2  0  0  0  0  0  0  0  0  0
    0.7440    1.3030    0.0000 O   0  0  0  0  0  0  0  0  0  0  0  0
   -0.7680    3.8940    0.0000 C   0  0  2  0  0  0  0  0  0  0  0  0
   -2.2680    3.8870    0.0000 C   0  0  2  0  0  0  0  0  0  0  0  0
   -3.0240    5.1820    0.0000 N   0  0  0  0  0  0  0  0  0  0  0  0
   -2.2800    6.4850    0.0000 C   0  0  0  0  0  0  0  0  0  0  0  0
   -4.5240    5.1750    0.0000 C   0  0  0  0  0  0  0  0  0  0  0  0
   -3.0120    2.5840    0.0000 C   0  0  0  0  0  0  0  0  0  0  0  0
   -4.5120    2.5770    0.0000 O   0  0  0  0  0  0  0  0  0  0  0  0
   -2.2560    1.2890    0.0000 C   0  0  0  0  0  0  0  0  0  0  0  0
   -3.0000   -0.0140    0.0000 C   0  0  0  0  0  0  0  0  0  0  0  0
   -2.2440   -1.3100    0.0000 O   0  0  0  0  0  0  0  0  0  0  0  0
   -4.5000   -0.0210    0.0000 N   0  0  0  0  0  0  0  0  0  0  0  0
   -0.0240    5.1960    0.0000 C   0  0  1  0  0  0  0  0  0  0  0  0
   -0.7800    6.4920    0.0000 O   0  0  0  0  0  0  0  0  0  0  0  0
    1.4760    5.2030    0.0000 C   0  0  1  0  0  0  0  0  0  0  0  0
    2.2320    3.9080    0.0000 C   0  0  0  0  0  0  0  0  0  0  0  0
    1.4880    2.6050    0.0000 C   0  0  0  0  0  0  0  0  0  0  0  0
    2.2440    1.3100    0.0000 O   0  0  0  0  0  0  0  0  0  0  0  0
    3.7320    3.9150    0.0000 C   0  0  0  0  0  0  0  0  0  0  0  0
    4.4880    2.6190    0.0000 O   0  0  0  0  0  0  0  0  0  0  0  0
    4.4760    5.2170    0.0000 C   0  0  0  0  0  0  0  0  0  0  0  0
    3.7200    6.5130    0.0000 C   0  0  0  0  0  0  0  0  0  0  0  0
    4.4640    7.8150    0.0000 C   0  0  0  0  0  0  0  0  0  0  0  0
    5.9640    7.8220    0.0000 C   0  0  0  0  0  0  0  0  0  0  0  0
    6.7200    6.5270    0.0000 C   0  0  0  0  0  0  0  0  0  0  0  0
    5.9760    5.2240    0.0000 C   0  0  0  0  0  0  0  0  0  0  0  0
    6.7320    3.9290    0.0000 O   0  0  0  0  0  0  0  0  0  0  0  0
    2.2200    6.5060    0.0000 C   0  0  2  0  0  0  0  0  0  0  0  0
    1.4640    7.8010    0.0000 C   0  0  0  0  0  0  0  0  0  0  0  0
  1  2  1  0  0  0  0
  2  3  1  0  0  0  0
  2 12  2  0  0  0  0
  3  4  1  1  0  0  0
  3 20  1  0  0  0  0
  5  3  1  6  0  0  0
  5  6  1  0  0  0  0
  5 16  1  0  0  0  0
  6  7  1  1  0  0  0
  6 10  1  0  0  0  0
  7  8  1  0  0  0  0
  7  9  1  0  0  0  0
 10 11  2  0  0  0  0
 10 12  1  0  0  0  0
 12 13  1  0  0  0  0
 13 14  2  0  0  0  0
 13 15  1  0  0  0  0
 16 17  1  1  0  0  0
 16 18  1  0  0  0  0
 18 19  1  6  0  0  0
 18 31  1  0  0  0  0
 19 20  2  0  0  0  0
 19 22  1  0  0  0  0
 20 21  1  0  0  0  0
 22 23  2  0  0  0  0
 22 24  1  0  0  0  0
 24 25  1  0  0  0  0
 24 29  2  0  0  0  0
 25 26  2  0  0  0  0
 25 31  1  0  0  0  0
 26 27  1  0  0  0  0
 27 28  2  0  0  0  0
 28 29  1  0  0  0  0
 29 30  1  0  0  0  0
 31 32  1  1  0  0  0
M  END
>  <Index>
348

>  <ID>
HT0720

>  <class>
0

>  <apol>
63.339031

>  <ast_fraglike>
0

>  <ast_fraglike_ext>
0

>  <ast_violation>
3

>  <ast_violation_ext>
4

>  <a_acc>
9

>  <a_acid>
0

>  <a_aro>
6

>  <a_base>
0

>  <a_count>
56

>  <a_don>
8

>  <a_donacc>
17

>  <a_heavy>
32

>  <a_hyd>
19

>  <a_IC>
91.065277

>  <a_ICM>
1.6261657

>  <a_nB>
0

>  <a_nBr>
0

>  <a_nC>
22

>  <a_nCl>
0

>  <a_nF>
0

>  <a_nH>
24

>  <a_nI>
0

>  <a_nN>
2

>  <a_nO>
8

>  <a_nP>
0

>  <a_nS>
0

>  <balabanJ>
1.8368248

>  <BCUT_PEOE_0>
-2.780942

>  <BCUT_PEOE_1>
-0.58869094

>  <BCUT_PEOE_2>
0.60747206

>  <BCUT_PEOE_3>
2.8449275

>  <BCUT_SLOGP_0>
-2.8942716

>  <BCUT_SLOGP_1>
-0.62365401

>  <BCUT_SLOGP_2>
0.53363109

>  <BCUT_SLOGP_3>
2.7799692

>  <BCUT_SMR_0>
-2.5519736

>  <BCUT_SMR_1>
-0.41313168

>  <BCUT_SMR_2>
0.75749046

>  <BCUT_SMR_3>
3.0677557

>  <bpol>
30.430967

>  <b_1rotN>
2

>  <b_1rotR>
0.057142857

>  <b_ar>
6

>  <b_count>
59

>  <b_double>
5

>  <b_heavy>
35

>  <b_max1len>
4

>  <b_rotN>
2

>  <b_rotR>
0.057142857

>  <b_single>
48

>  <b_triple>
0

>  <chi0>
23.858925

>  <chi0v>
17.604179

>  <chi0v_C>
13.118802

>  <chi0_C>
14.281574

>  <chi1>
14.866709

>  <chi1v>
10.0157

>  <chi1v_C>
6.809401

>  <chi1_C>
8.2598724

>  <chiral>
6

>  <chiral_u>
0

>  <density>
0.81553572

>  <diameter>
11

>  <FCharge>
0

>  <GCUT_PEOE_0>
-0.84914869

>  <GCUT_PEOE_1>
-0.45160326

>  <GCUT_PEOE_2>
0.089916371

>  <GCUT_PEOE_3>
3.1374452

>  <GCUT_SLOGP_0>
-1.3705221

>  <GCUT_SLOGP_1>
-0.38735965

>  <GCUT_SLOGP_2>
0.056638032

>  <GCUT_SLOGP_3>
3.1106505

>  <GCUT_SMR_0>
-0.52298272

>  <GCUT_SMR_1>
-0.24025637

>  <GCUT_SMR_2>
0.2105241

>  <GCUT_SMR_3>
3.3736348

>  <Kier1>
25.103674

>  <Kier2>
8.5872574

>  <Kier3>
3.3703513

>  <KierA1>
19.826143

>  <KierA2>
6.7271857

>  <KierA3>
2.6252315

>  <KierFlex>
4.167942

>  <lip_acc>
10

>  <lip_don>
7

>  <lip_druglike>
1

>  <lip_violation>
1

>  <logP(o/w)>
-0.833

>  <logS>
-2.6391201

>  <mr>
10.952394

>  <mutagenic>
0

>  <nmol>
1

>  <opr_brigid>
21

>  <opr_leadlike>
0

>  <opr_nring>
4

>  <opr_nrot>
2

>  <opr_violation>
2

>  <PC+>
0

>  <PC->
0

>  <PEOE_PC+>
3.622884

>  <PEOE_PC->
-3.622884

>  <PEOE_RPC+>
0.070448108

>  <PEOE_RPC->
0.10784426

>  <PEOE_VSA+0>
53.393173

>  <PEOE_VSA+1>
48.503399

>  <PEOE_VSA+2>
10.667059

>  <PEOE_VSA+3>
34.155064

>  <PEOE_VSA+4>
51.620865

>  <PEOE_VSA+5>
12.949531

>  <PEOE_VSA+6>
0

>  <PEOE_VSA-0>
60.940823

>  <PEOE_VSA-1>
43.257484

>  <PEOE_VSA-2>
0

>  <PEOE_VSA-3>
0

>  <PEOE_VSA-4>
0

>  <PEOE_VSA-5>
40.700764

>  <PEOE_VSA-6>
45.488819

>  <PEOE_VSA_FHYD>
0.6246736

>  <PEOE_VSA_FNEG>
0.47398257

>  <PEOE_VSA_FPNEG>
0.21457437

>  <PEOE_VSA_FPOL>
0.3753264

>  <PEOE_VSA_FPOS>
0.52601743

>  <PEOE_VSA_FPPOS>
0.16075204

>  <PEOE_VSA_HYD>
250.91701

>  <PEOE_VSA_NEG>
190.38789

>  <PEOE_VSA_PNEG>
86.189583

>  <PEOE_VSA_POL>
150.75998

>  <PEOE_VSA_POS>
211.28909

>  <PEOE_VSA_PPOS>
64.570396

>  <petitjean>
0.45454547

>  <petitjeanSC>
0.83333331

>  <Q_PC+>
0

>  <Q_PC->
0

>  <Q_RPC+>
0

>  <Q_RPC->
0

>  <Q_VSA_FHYD>
1

>  <Q_VSA_FNEG>
0

>  <Q_VSA_FPNEG>
0

>  <Q_VSA_FPOL>
0

>  <Q_VSA_FPOS>
1

>  <Q_VSA_FPPOS>
0

>  <Q_VSA_HYD>
401.67697

>  <Q_VSA_NEG>
0

>  <Q_VSA_PNEG>
0

>  <Q_VSA_POL>
0

>  <Q_VSA_POS>
401.67697

>  <Q_VSA_PPOS>
0

>  <radius>
6

>  <reactive>
0

>  <rings>
4

>  <RPC+>
0

>  <RPC->
0

>  <rsynth>
0.53125

>  <SlogP>
-0.34760001

>  <SlogP_VSA0>
109.05286

>  <SlogP_VSA1>
19.75832

>  <SlogP_VSA2>
58.175049

>  <SlogP_VSA3>
50.770454

>  <SlogP_VSA4>
39.054958

>  <SlogP_VSA5>
82.652382

>  <SlogP_VSA6>
4.4107962

>  <SlogP_VSA7>
52.929554

>  <SlogP_VSA8>
0

>  <SlogP_VSA9>
38.569443

>  <SMR>
10.97749

>  <SMR_VSA0>
71.586647

>  <SMR_VSA1>
79.279991

>  <SMR_VSA2>
59.592045

>  <SMR_VSA3>
43.334

>  <SMR_VSA4>
32.897186

>  <SMR_VSA5>
52.929554

>  <SMR_VSA6>
16.634007

>  <SMR_VSA7>
99.120392

>  <TPSA>
181.62

>  <VAdjEq>
0.3597711

>  <VAdjMa>
6.129283

>  <VDistEq>
3.1767395

>  <VDistMa>
9.7729616

>  <vdw_area>
401.67697

>  <vdw_vol>
544.96692

>  <vsa_acc>
13.566921

>  <vsa_acid>
0

>  <vsa_base>
0

>  <vsa_don>
17.742489

>  <vsa_hyd>
200.62627

>  <vsa_other>
29.86657

>  <vsa_pol>
126.27785

>  <Weight>
444.44

>  <weinerPath>
2336

>  <weinerPol>
76

>  <zagreb>
184

$$$$