O=C(N(CC)CC)N1CCN(CC1)C
  MOE2013           2D

 14 14  0  0  0  0  0  0  0  0999 V2000
    0.0000    0.0000    0.0000 O   0  0  0  0  0  0  0  0  0  0  0  0
    0.7420   -1.3030    0.0000 C   0  0  0  0  0  0  0  0  0  0  0  0
   -0.0150   -2.5980    0.0000 N   0  0  0  0  0  0  0  0  0  0  0  0
    0.7270   -3.9010    0.0000 C   0  0  0  0  0  0  0  0  0  0  0  0
   -0.0300   -5.1960    0.0000 C   0  0  0  0  0  0  0  0  0  0  0  0
   -1.5150   -2.5890    0.0000 C   0  0  0  0  0  0  0  0  0  0  0  0
   -2.2730   -3.8840    0.0000 C   0  0  0  0  0  0  0  0  0  0  0  0
    2.2420   -1.3120    0.0000 N   0  0  0  0  0  0  0  0  0  0  0  0
    2.9850   -2.6150    0.0000 C   0  0  0  0  0  0  0  0  0  0  0  0
    4.4850   -2.6240    0.0000 C   0  0  0  0  0  0  0  0  0  0  0  0
    5.2420   -1.3300    0.0000 N   0  0  0  0  0  0  0  0  0  0  0  0
    4.5000   -0.0260    0.0000 C   0  0  0  0  0  0  0  0  0  0  0  0
    3.0000   -0.0170    0.0000 C   0  0  0  0  0  0  0  0  0  0  0  0
    6.7420   -1.3380    0.0000 C   0  0  0  0  0  0  0  0  0  0  0  0
  1  2  2  0  0  0  0
  2  3  1  0  0  0  0
  2  8  1  0  0  0  0
  3  4  1  0  0  0  0
  3  6  1  0  0  0  0
  4  5  1  0  0  0  0
  6  7  1  0  0  0  0
  8  9  1  0  0  0  0
  8 13  1  0  0  0  0
  9 10  1  0  0  0  0
 10 11  1  0  0  0  0
 11 12  1  0  0  0  0
 11 14  1  0  0  0  0
 12 13  1  0  0  0  0
M  END
>  <Index>
317

>  <ID>
HT0654

>  <class>
0

>  <apol>
35.704655

>  <ast_fraglike>
1

>  <ast_fraglike_ext>
0

>  <ast_violation>
0

>  <ast_violation_ext>
1

>  <a_acc>
2

>  <a_acid>
0

>  <a_aro>
0

>  <a_base>
0

>  <a_count>
35

>  <a_don>
0

>  <a_donacc>
2

>  <a_heavy>
14

>  <a_hyd>
9

>  <a_IC>
49.312073

>  <a_ICM>
1.4089164

>  <a_nB>
0

>  <a_nBr>
0

>  <a_nC>
10

>  <a_nCl>
0

>  <a_nF>
0

>  <a_nH>
21

>  <a_nI>
0

>  <a_nN>
3

>  <a_nO>
1

>  <a_nP>
0

>  <a_nS>
0

>  <balabanJ>
2.4005878

>  <BCUT_PEOE_0>
-2.7528629

>  <BCUT_PEOE_1>
-0.12505665

>  <BCUT_PEOE_2>
0.049650561

>  <BCUT_PEOE_3>
2.6612298

>  <BCUT_SLOGP_0>
-2.8847406

>  <BCUT_SLOGP_1>
-0.0029291487

>  <BCUT_SLOGP_2>
0.123

>  <BCUT_SLOGP_3>
2.5375409

>  <BCUT_SMR_0>
-2.4682844

>  <BCUT_SMR_1>
0.1057

>  <BCUT_SMR_2>
0.12806296

>  <BCUT_SMR_3>
2.9355133

>  <bpol>
29.855347

>  <b_1rotN>
4

>  <b_1rotR>
0.2857143

>  <b_ar>
0

>  <b_count>
35

>  <b_double>
1

>  <b_heavy>
14

>  <b_max1len>
6

>  <b_rotN>
4

>  <b_rotR>
0.2857143

>  <b_single>
34

>  <b_triple>
0

>  <chi0>
10.552042

>  <chi0v>
9.4925299

>  <chi0v_C>
7.7426405

>  <chi0_C>
7.8199911

>  <chi1>
6.6850705

>  <chi1v>
5.4101315

>  <chi1v_C>
2.4142137

>  <chi1_C>
2.4142137

>  <chiral>
0

>  <chiral_u>
0

>  <density>
0.66614908

>  <diameter>
8

>  <FCharge>
0

>  <GCUT_PEOE_0>
-0.85550076

>  <GCUT_PEOE_1>
-0.33689174

>  <GCUT_PEOE_2>
-0.11034944

>  <GCUT_PEOE_3>
2.5627043

>  <GCUT_SLOGP_0>
-0.98201245

>  <GCUT_SLOGP_1>
-0.24277559

>  <GCUT_SLOGP_2>
-0.037

>  <GCUT_SLOGP_3>
2.5008607

>  <GCUT_SMR_0>
-0.52179468

>  <GCUT_SMR_1>
-0.093157388

>  <GCUT_SMR_2>
-0.054299999

>  <GCUT_SMR_3>
2.7994158

>  <Kier1>
12.071428

>  <Kier2>
5.7777777

>  <Kier3>
3.2727273

>  <KierA1>
10.413275

>  <KierA2>
4.9230032

>  <KierA3>
2.7623014

>  <KierFlex>
3.661756

>  <lip_acc>
4

>  <lip_don>
0

>  <lip_druglike>
1

>  <lip_violation>
0

>  <logP(o/w)>
-0.212

>  <logS>
-0.093500003

>  <mr>
5.682539

>  <mutagenic>
0

>  <nmol>
1

>  <opr_brigid>
6

>  <opr_leadlike>
1

>  <opr_nring>
1

>  <opr_nrot>
4

>  <opr_violation>
0

>  <PC+>
0

>  <PC->
0

>  <PEOE_PC+>
1.3032463

>  <PEOE_PC->
-1.3032463

>  <PEOE_RPC+>
0.24660857

>  <PEOE_RPC->
0.24931808

>  <PEOE_VSA+0>
151.66551

>  <PEOE_VSA+1>
17.061544

>  <PEOE_VSA+2>
0

>  <PEOE_VSA+3>
0

>  <PEOE_VSA+4>
0

>  <PEOE_VSA+5>
0

>  <PEOE_VSA+6>
17.440542

>  <PEOE_VSA-0>
60.734043

>  <PEOE_VSA-1>
0

>  <PEOE_VSA-2>
0

>  <PEOE_VSA-3>
0

>  <PEOE_VSA-4>
13.566921

>  <PEOE_VSA-5>
0

>  <PEOE_VSA-6>
0

>  <PEOE_VSA_FHYD>
0.88095504

>  <PEOE_VSA_FNEG>
0.28525886

>  <PEOE_VSA_FPNEG>
0.052086595

>  <PEOE_VSA_FPOL>
0.11904494

>  <PEOE_VSA_FPOS>
0.71474117

>  <PEOE_VSA_FPPOS>
0.066958338

>  <PEOE_VSA_HYD>
229.46111

>  <PEOE_VSA_NEG>
74.300964

>  <PEOE_VSA_PNEG>
13.566921

>  <PEOE_VSA_POL>
31.007463

>  <PEOE_VSA_POS>
186.1676

>  <PEOE_VSA_PPOS>
17.440542

>  <petitjean>
0.5

>  <petitjeanSC>
1

>  <Q_PC+>
0

>  <Q_PC->
0

>  <Q_RPC+>
0

>  <Q_RPC->
0

>  <Q_VSA_FHYD>
1

>  <Q_VSA_FNEG>
0

>  <Q_VSA_FPNEG>
0

>  <Q_VSA_FPOL>
0

>  <Q_VSA_FPOS>
1

>  <Q_VSA_FPPOS>
0

>  <Q_VSA_HYD>
260.46857

>  <Q_VSA_NEG>
0

>  <Q_VSA_PNEG>
0

>  <Q_VSA_POL>
0

>  <Q_VSA_POS>
260.46857

>  <Q_VSA_PPOS>
0

>  <radius>
4

>  <reactive>
0

>  <rings>
1

>  <RPC+>
0

>  <RPC->
0

>  <rsynth>
1

>  <SlogP>
0.69559997

>  <SlogP_VSA0>
0

>  <SlogP_VSA1>
14.202898

>  <SlogP_VSA2>
0

>  <SlogP_VSA3>
110.63747

>  <SlogP_VSA4>
0

>  <SlogP_VSA5>
32.897186

>  <SlogP_VSA6>
0

>  <SlogP_VSA7>
0

>  <SlogP_VSA8>
0

>  <SlogP_VSA9>
90.514244

>  <SMR>
5.7386999

>  <SMR_VSA0>
23.862217

>  <SMR_VSA1>
9.372942

>  <SMR_VSA2>
0

>  <SMR_VSA3>
0

>  <SMR_VSA4>
0

>  <SMR_VSA5>
0

>  <SMR_VSA6>
115.46742

>  <SMR_VSA7>
99.549217

>  <TPSA>
26.790001

>  <VAdjEq>
0.59167278

>  <VAdjMa>
4.8073549

>  <VDistEq>
2.7745051

>  <VDistMa>
7.3050251

>  <vdw_area>
260.46857

>  <vdw_vol>
299.17929

>  <vsa_acc>
13.566921

>  <vsa_acid>
0

>  <vsa_base>
0

>  <vsa_don>
0

>  <vsa_hyd>
214.5134

>  <vsa_other>
17.440542

>  <vsa_pol>
13.566921

>  <Weight>
199.29799

>  <weinerPath>
314

>  <weinerPol>
19

>  <zagreb>
64

$$$$