O1[C@](NC(=O)[C@@H]2C=C3[C@H](N(C2)C)Cc2c4c3cccc4[nH]c2)(C)C(=O)N2[C@@H](Cc3ccccc3)C(=O)N3[C@@H](CCC3)[C@]12O
  MOE2013           2D

 43 50  0  0  1  0  0  0  0  0999 V2000
    0.0000    0.0000    0.0000 O   0  0  0  0  0  0  0  0  0  0  0  0
    1.0100   -1.1090    0.0000 C   0  0  2  0  0  0  0  0  0  0  0  0
    2.1700   -0.1580    0.0000 N   0  0  0  0  0  0  0  0  0  0  0  0
    3.5740   -0.6880    0.0000 C   0  0  0  0  0  0  0  0  0  0  0  0
    3.8170   -2.1680    0.0000 O   0  0  0  0  0  0  0  0  0  0  0  0
    4.7340    0.2630    0.0000 C   0  0  2  0  0  0  0  0  0  0  0  0
    6.1370   -0.2670    0.0000 C   0  0  0  0  0  0  0  0  0  0  0  0
    7.3010    0.7170    0.0000 C   0  0  0  0  0  0  0  0  0  0  0  0
    7.0480    2.1580    0.0000 C   0  0  2  0  0  0  0  0  0  0  0  0
    5.6510    2.6930    0.0000 N   0  0  3  0  0  0  0  0  0  0  0  0
    4.4910    1.7430    0.0000 C   0  0  0  0  0  0  0  0  0  0  0  0
    5.4120    4.1740    0.0000 C   0  0  0  0  0  0  0  0  0  0  0  0
    8.1740    3.0980    0.0000 C   0  0  0  0  0  0  0  0  0  0  0  0
    9.5510    2.5940    0.0000 C   0  0  0  0  0  0  0  0  0  0  0  0
    9.7990    1.1460    0.0000 C   0  0  0  0  0  0  0  0  0  0  0  0
    8.6730    0.2050    0.0000 C   0  0  0  0  0  0  0  0  0  0  0  0
    8.9260   -1.2360    0.0000 C   0  0  0  0  0  0  0  0  0  0  0  0
   10.2960   -1.7470    0.0000 C   0  0  0  0  0  0  0  0  0  0  0  0
   11.4260   -0.8070    0.0000 C   0  0  0  0  0  0  0  0  0  0  0  0
   11.1780    0.6420    0.0000 C   0  0  0  0  0  0  0  0  0  0  0  0
   12.0520    1.8720    0.0000 N   0  0  0  0  0  0  0  0  0  0  0  0
   10.8650    3.3110    0.0000 C   0  0  0  0  0  0  0  0  0  0  0  0
    2.3940   -1.6870    0.0000 C   0  0  0  0  0  0  0  0  0  0  0  0
    0.2670   -2.4120    0.0000 C   0  0  0  0  0  0  0  0  0  0  0  0
    0.8850   -3.7790    0.0000 O   0  0  0  0  0  0  0  0  0  0  0  0
   -1.2020   -2.1090    0.0000 N   0  0  0  0  0  0  0  0  0  0  0  0
   -2.4100   -2.9970    0.0000 C   0  0  1  0  0  0  0  0  0  0  0  0
   -2.2450   -4.4880    0.0000 C   0  0  0  0  0  0  0  0  0  0  0  0
   -3.4530   -5.3770    0.0000 C   0  0  0  0  0  0  0  0  0  0  0  0
   -4.8270   -4.7740    0.0000 C   0  0  0  0  0  0  0  0  0  0  0  0
   -6.0350   -5.6630    0.0000 C   0  0  0  0  0  0  0  0  0  0  0  0
   -5.8700   -7.1540    0.0000 C   0  0  0  0  0  0  0  0  0  0  0  0
   -4.4960   -7.7560    0.0000 C   0  0  0  0  0  0  0  0  0  0  0  0
   -3.2880   -6.8680    0.0000 C   0  0  0  0  0  0  0  0  0  0  0  0
   -3.7840   -2.3950    0.0000 C   0  0  0  0  0  0  0  0  0  0  0  0
   -4.9920   -3.2840    0.0000 O   0  0  0  0  0  0  0  0  0  0  0  0
   -3.9490   -0.9040    0.0000 N   0  0  0  0  0  0  0  0  0  0  0  0
   -2.7410   -0.0160    0.0000 C   0  0  1  0  0  0  0  0  0  0  0  0
   -3.2120    1.4080    0.0000 C   0  0  0  0  0  0  0  0  0  0  0  0
   -4.7120    1.4000    0.0000 C   0  0  0  0  0  0  0  0  0  0  0  0
   -5.1680   -0.0290    0.0000 C   0  0  0  0  0  0  0  0  0  0  0  0
   -1.3670   -0.6180    0.0000 C   0  0  2  0  0  0  0  0  0  0  0  0
   -1.3230    0.8810    0.0000 O   0  0  0  0  0  0  0  0  0  0  0  0
  1  2  1  0  0  0  0
  1 42  1  0  0  0  0
  2  3  1  1  0  0  0
  2 23  1  6  0  0  0
  2 24  1  0  0  0  0
  3  4  1  0  0  0  0
  4  5  2  0  0  0  0
  6  4  1  1  0  0  0
  6  7  1  0  0  0  0
  6 11  1  0  0  0  0
  7  8  2  0  0  0  0
  8 16  1  0  0  0  0
  9  8  1  6  0  0  0
  9 10  1  0  0  0  0
  9 13  1  0  0  0  0
 10 11  1  0  0  0  0
 10 12  1  0  0  0  0
 13 14  1  0  0  0  0
 14 15  1  0  0  0  0
 14 22  2  0  0  0  0
 15 16  1  0  0  0  0
 15 20  2  0  0  0  0
 16 17  2  0  0  0  0
 17 18  1  0  0  0  0
 18 19  2  0  0  0  0
 19 20  1  0  0  0  0
 20 21  1  0  0  0  0
 21 22  1  0  0  0  0
 24 25  2  0  0  0  0
 24 26  1  0  0  0  0
 26 27  1  0  0  0  0
 26 42  1  0  0  0  0
 27 28  1  1  0  0  0
 27 35  1  0  0  0  0
 28 29  1  0  0  0  0
 29 30  1  0  0  0  0
 29 34  2  0  0  0  0
 30 31  2  0  0  0  0
 31 32  1  0  0  0  0
 32 33  2  0  0  0  0
 33 34  1  0  0  0  0
 35 36  2  0  0  0  0
 35 37  1  0  0  0  0
 37 41  1  0  0  0  0
 38 37  1  1  0  0  0
 38 39  1  0  0  0  0
 38 42  1  0  0  0  0
 39 40  1  0  0  0  0
 40 41  1  0  0  0  0
 42 43  1  1  0  0  0
M  END
>  <Index>
385

>  <ID>
HT0779

>  <class>
0

>  <apol>
90.927757

>  <ast_fraglike>
0

>  <ast_fraglike_ext>
0

>  <ast_violation>
2

>  <ast_violation_ext>
4

>  <a_acc>
6

>  <a_acid>
0

>  <a_aro>
15

>  <a_base>
0

>  <a_count>
78

>  <a_don>
3

>  <a_donacc>
9

>  <a_heavy>
43

>  <a_hyd>
28

>  <a_IC>
121.05218

>  <a_ICM>
1.5519511

>  <a_nB>
0

>  <a_nBr>
0

>  <a_nC>
33

>  <a_nCl>
0

>  <a_nF>
0

>  <a_nH>
35

>  <a_nI>
0

>  <a_nN>
5

>  <a_nO>
5

>  <a_nP>
0

>  <a_nS>
0

>  <balabanJ>
1.0188218

>  <BCUT_PEOE_0>
-2.7136195

>  <BCUT_PEOE_1>
-0.60033649

>  <BCUT_PEOE_2>
0.62602562

>  <BCUT_PEOE_3>
2.871814

>  <BCUT_SLOGP_0>
-2.8707566

>  <BCUT_SLOGP_1>
-0.54829687

>  <BCUT_SLOGP_2>
0.68711716

>  <BCUT_SLOGP_3>
2.7466743

>  <BCUT_SMR_0>
-2.438792

>  <BCUT_SMR_1>
-0.42973706

>  <BCUT_SMR_2>
0.77792764

>  <BCUT_SMR_3>
3.0955014

>  <bpol>
50.312244

>  <b_1rotN>
4

>  <b_1rotR>
0.079999998

>  <b_ar>
16

>  <b_count>
85

>  <b_double>
4

>  <b_heavy>
50

>  <b_max1len>
4

>  <b_rotN>
5

>  <b_rotR>
0.1

>  <b_single>
65

>  <b_triple>
0

>  <chi0>
29.672632

>  <chi0v>
24.247393

>  <chi0v_C>
19.825544

>  <chi0_C>
21.819262

>  <chi1>
20.676308

>  <chi1v>
15.118174

>  <chi1v_C>
10.310184

>  <chi1_C>
12.717912

>  <chiral>
6

>  <chiral_u>
0

>  <density>
0.75475329

>  <diameter>
17

>  <FCharge>
0

>  <GCUT_PEOE_0>
-0.86279374

>  <GCUT_PEOE_1>
-0.40685818

>  <GCUT_PEOE_2>
0.06559927

>  <GCUT_PEOE_3>
3.184433

>  <GCUT_SLOGP_0>
-1.1634958

>  <GCUT_SLOGP_1>
-0.35750958

>  <GCUT_SLOGP_2>
0.13907816

>  <GCUT_SLOGP_3>
3.1381326

>  <GCUT_SMR_0>
-0.52944839

>  <GCUT_SMR_1>
-0.22111134

>  <GCUT_SMR_2>
0.17483646

>  <GCUT_SMR_3>
3.4286723

>  <Kier1>
30.340799

>  <Kier2>
11.312611

>  <Kier3>
4.8261995

>  <KierA1>
23.131222

>  <KierA2>
8.5653782

>  <KierA3>
3.6362853

>  <KierFlex>
4.6076202

>  <lip_acc>
10

>  <lip_don>
3

>  <lip_druglike>
1

>  <lip_violation>
1

>  <logP(o/w)>
3.0469999

>  <logS>
-5.5711799

>  <mr>
15.801442

>  <mutagenic>
0

>  <nmol>
1

>  <opr_brigid>
39

>  <opr_leadlike>
0

>  <opr_nring>
8

>  <opr_nrot>
4

>  <opr_violation>
3

>  <PC+>
0

>  <PC->
0

>  <PEOE_PC+>
3.7352467

>  <PEOE_PC->
-3.7352467

>  <PEOE_RPC+>
0.075198114

>  <PEOE_RPC->
0.096473292

>  <PEOE_VSA+0>
144.92827

>  <PEOE_VSA+1>
55.45002

>  <PEOE_VSA+2>
6.2919211

>  <PEOE_VSA+3>
17.238026

>  <PEOE_VSA+4>
36.223236

>  <PEOE_VSA+5>
18.549088

>  <PEOE_VSA+6>
0

>  <PEOE_VSA-0>
89.179367

>  <PEOE_VSA-1>
98.03923

>  <PEOE_VSA-2>
0

>  <PEOE_VSA-3>
0

>  <PEOE_VSA-4>
0

>  <PEOE_VSA-5>
43.204517

>  <PEOE_VSA-6>
8.0413227

>  <PEOE_VSA_FHYD>
0.79499334

>  <PEOE_VSA_FNEG>
0.46111718

>  <PEOE_VSA_FPNEG>
0.099093758

>  <PEOE_VSA_FPOL>
0.20500664

>  <PEOE_VSA_FPOS>
0.53888279

>  <PEOE_VSA_FPPOS>
0.10591289

>  <PEOE_VSA_HYD>
411.12683

>  <PEOE_VSA_NEG>
238.46445

>  <PEOE_VSA_PNEG>
51.245842

>  <PEOE_VSA_POL>
106.01817

>  <PEOE_VSA_POS>
278.68054

>  <PEOE_VSA_PPOS>
54.77232

>  <petitjean>
0.47058824

>  <petitjeanSC>
0.8888889

>  <Q_PC+>
0

>  <Q_PC->
0

>  <Q_RPC+>
0

>  <Q_RPC->
0

>  <Q_VSA_FHYD>
1

>  <Q_VSA_FNEG>
0

>  <Q_VSA_FPNEG>
0

>  <Q_VSA_FPOL>
0

>  <Q_VSA_FPOS>
1

>  <Q_VSA_FPPOS>
0

>  <Q_VSA_HYD>
517.14502

>  <Q_VSA_NEG>
0

>  <Q_VSA_PNEG>
0

>  <Q_VSA_POL>
0

>  <Q_VSA_POS>
517.14502

>  <Q_VSA_PPOS>
0

>  <radius>
9

>  <reactive>
1

>  <rings>
8

>  <RPC+>
0

>  <RPC->
0

>  <rsynth>
1

>  <SlogP>
1.9907399

>  <SlogP_VSA0>
43.395977

>  <SlogP_VSA1>
25.149292

>  <SlogP_VSA2>
111.31797

>  <SlogP_VSA3>
36.879158

>  <SlogP_VSA4>
13.967521

>  <SlogP_VSA5>
70.633995

>  <SlogP_VSA6>
0

>  <SlogP_VSA7>
183.90569

>  <SlogP_VSA8>
37.736813

>  <SlogP_VSA9>
33.326015

>  <SMR>
15.79852

>  <SMR_VSA0>
82.58654

>  <SMR_VSA1>
34.758167

>  <SMR_VSA2>
39.207077

>  <SMR_VSA3>
21.50263

>  <SMR_VSA4>
7.9026761

>  <SMR_VSA5>
251.47664

>  <SMR_VSA6>
52.655506

>  <SMR_VSA7>
66.223206

>  <TPSA>
118.21

>  <VAdjEq>
0.30349553

>  <VAdjMa>
6.643856

>  <VDistEq>
3.8625476

>  <VDistMa>
10.574031

>  <vdw_area>
517.14502

>  <vdw_vol>
770.67963

>  <vsa_acc>
43.204517

>  <vsa_acid>
0

>  <vsa_base>
0

>  <vsa_don>
11.365152

>  <vsa_hyd>
369.7663

>  <vsa_other>
44.448151

>  <vsa_pol>
68.136589

>  <Weight>
581.67297

>  <weinerPath>
6191

>  <weinerPol>
88

>  <zagreb>
258

$$$$