ClC(Cl)C(=O)N(C)c1ccc(OC(=O)c2occc2)cc1
  MOE2013           2D

 21 22  0  0  0  0  0  0  0  0999 V2000
    0.0000    0.0000    0.0000 Cl  0  0  0  0  0  0  0  0  0  0  0  0
    0.7560   -1.2950    0.0000 C   0  0  0  0  0  0  0  0  0  0  0  0
    0.0130   -2.5980    0.0000 Cl  0  0  0  0  0  0  0  0  0  0  0  0
    2.2560   -1.2880    0.0000 C   0  0  0  0  0  0  0  0  0  0  0  0
    3.0130   -2.5830    0.0000 O   0  0  0  0  0  0  0  0  0  0  0  0
    3.0000    0.0150    0.0000 N   0  0  0  0  0  0  0  0  0  0  0  0
    2.2440    1.3100    0.0000 C   0  0  0  0  0  0  0  0  0  0  0  0
    4.5000    0.0220    0.0000 C   0  0  0  0  0  0  0  0  0  0  0  0
    5.2430    1.3250    0.0000 C   0  0  0  0  0  0  0  0  0  0  0  0
    6.7430    1.3330    0.0000 C   0  0  0  0  0  0  0  0  0  0  0  0
    7.5000    0.0370    0.0000 C   0  0  0  0  0  0  0  0  0  0  0  0
    9.0000    0.0450    0.0000 O   0  0  0  0  0  0  0  0  0  0  0  0
    9.7430    1.3480    0.0000 C   0  0  0  0  0  0  0  0  0  0  0  0
    8.9870    2.6430    0.0000 O   0  0  0  0  0  0  0  0  0  0  0  0
   11.2430    1.3550    0.0000 C   0  0  0  0  0  0  0  0  0  0  0  0
   12.1190    2.5730    0.0000 O   0  0  0  0  0  0  0  0  0  0  0  0
   13.5480    2.1160    0.0000 C   0  0  0  0  0  0  0  0  0  0  0  0
   13.5550    0.6160    0.0000 C   0  0  0  0  0  0  0  0  0  0  0  0
   12.1310    0.1460    0.0000 C   0  0  0  0  0  0  0  0  0  0  0  0
    6.7560   -1.2650    0.0000 C   0  0  0  0  0  0  0  0  0  0  0  0
    5.2560   -1.2730    0.0000 C   0  0  0  0  0  0  0  0  0  0  0  0
  1  2  1  0  0  0  0
  2  3  1  0  0  0  0
  2  4  1  0  0  0  0
  4  5  2  0  0  0  0
  4  6  1  0  0  0  0
  6  7  1  0  0  0  0
  6  8  1  0  0  0  0
  8  9  1  0  0  0  0
  8 21  2  0  0  0  0
  9 10  2  0  0  0  0
 10 11  1  0  0  0  0
 11 12  1  0  0  0  0
 11 20  2  0  0  0  0
 12 13  1  0  0  0  0
 13 14  2  0  0  0  0
 13 15  1  0  0  0  0
 15 16  1  0  0  0  0
 15 19  2  0  0  0  0
 16 17  1  0  0  0  0
 17 18  2  0  0  0  0
 18 19  1  0  0  0  0
 20 21  1  0  0  0  0
M  END
>  <Index>
328

>  <ID>
HT0673

>  <class>
0

>  <apol>
40.642723

>  <ast_fraglike>
0

>  <ast_fraglike_ext>
0

>  <ast_violation>
2

>  <ast_violation_ext>
3

>  <a_acc>
2

>  <a_acid>
0

>  <a_aro>
11

>  <a_base>
0

>  <a_count>
32

>  <a_don>
0

>  <a_donacc>
2

>  <a_heavy>
21

>  <a_hyd>
11

>  <a_IC>
58.643284

>  <a_ICM>
1.8326026

>  <a_nB>
0

>  <a_nBr>
0

>  <a_nC>
14

>  <a_nCl>
2

>  <a_nF>
0

>  <a_nH>
11

>  <a_nI>
0

>  <a_nN>
1

>  <a_nO>
4

>  <a_nP>
0

>  <a_nS>
0

>  <balabanJ>
1.7293544

>  <BCUT_PEOE_0>
-2.4047532

>  <BCUT_PEOE_1>
-0.58424121

>  <BCUT_PEOE_2>
0.62631625

>  <BCUT_PEOE_3>
2.391748

>  <BCUT_SLOGP_0>
-2.5193095

>  <BCUT_SLOGP_1>
-0.48713538

>  <BCUT_SLOGP_2>
0.76710987

>  <BCUT_SLOGP_3>
2.4132812

>  <BCUT_SMR_0>
-2.0765691

>  <BCUT_SMR_1>
-0.41497973

>  <BCUT_SMR_2>
0.78195941

>  <BCUT_SMR_3>
2.7021174

>  <bpol>
20.593277

>  <b_1rotN>
5

>  <b_1rotR>
0.22727273

>  <b_ar>
11

>  <b_count>
33

>  <b_double>
2

>  <b_heavy>
22

>  <b_max1len>
2

>  <b_rotN>
6

>  <b_rotR>
0.27272728

>  <b_single>
20

>  <b_triple>
0

>  <chi0>
15.405413

>  <chi0v>
12.466796

>  <chi0v_C>
8.1188021

>  <chi0_C>
9.4138489

>  <chi1>
9.9860706

>  <chi1v>
6.7754416

>  <chi1v_C>
3.3153841

>  <chi1_C>
4.7079082

>  <chiral>
0

>  <chiral_u>
0

>  <density>
0.88189149

>  <diameter>
12

>  <FCharge>
0

>  <GCUT_PEOE_0>
-0.82842761

>  <GCUT_PEOE_1>
-0.42386425

>  <GCUT_PEOE_2>
0.046702564

>  <GCUT_PEOE_3>
2.3068788

>  <GCUT_SLOGP_0>
-0.99963641

>  <GCUT_SLOGP_1>
-0.29914641

>  <GCUT_SLOGP_2>
0.20246729

>  <GCUT_SLOGP_3>
2.4125452

>  <GCUT_SMR_0>
-0.46792886

>  <GCUT_SMR_1>
-0.20194314

>  <GCUT_SMR_2>
0.27884886

>  <GCUT_SMR_3>
2.6019864

>  <Kier1>
17.355371

>  <Kier2>
8.0222225

>  <Kier3>
4.7333822

>  <KierA1>
14.553857

>  <KierA2>
6.6643023

>  <KierA3>
3.9038517

>  <KierFlex>
4.6186333

>  <lip_acc>
5

>  <lip_don>
0

>  <lip_druglike>
1

>  <lip_violation>
0

>  <logP(o/w)>
2.6803601

>  <logS>
-4.7579002

>  <mr>
8.0489578

>  <mutagenic>
1

>  <nmol>
1

>  <opr_brigid>
11

>  <opr_leadlike>
1

>  <opr_nring>
2

>  <opr_nrot>
4

>  <opr_violation>
0

>  <PC+>
0

>  <PC->
0

>  <PEOE_PC+>
1.9188992

>  <PEOE_PC->
-1.9188992

>  <PEOE_RPC+>
0.17420311

>  <PEOE_RPC->
0.23842147

>  <PEOE_VSA+0>
42.734398

>  <PEOE_VSA+1>
56.821106

>  <PEOE_VSA+2>
4.2653861

>  <PEOE_VSA+3>
11.735882

>  <PEOE_VSA+4>
0

>  <PEOE_VSA+5>
12.949531

>  <PEOE_VSA+6>
14.708499

>  <PEOE_VSA-0>
73.529427

>  <PEOE_VSA-1>
59.163895

>  <PEOE_VSA-2>
0

>  <PEOE_VSA-3>
0

>  <PEOE_VSA-4>
0

>  <PEOE_VSA-5>
29.637598

>  <PEOE_VSA-6>
2.503756

>  <PEOE_VSA_FHYD>
0.80587733

>  <PEOE_VSA_FNEG>
0.53509158

>  <PEOE_VSA_FPNEG>
0.10433829

>  <PEOE_VSA_FPOL>
0.19412266

>  <PEOE_VSA_FPOS>
0.46490845

>  <PEOE_VSA_FPPOS>
0.089784376

>  <PEOE_VSA_HYD>
248.25009

>  <PEOE_VSA_NEG>
164.83467

>  <PEOE_VSA_PNEG>
32.141354

>  <PEOE_VSA_POL>
59.799385

>  <PEOE_VSA_POS>
143.2148

>  <PEOE_VSA_PPOS>
27.65803

>  <petitjean>
0.5

>  <petitjeanSC>
1

>  <Q_PC+>
0

>  <Q_PC->
0

>  <Q_RPC+>
0

>  <Q_RPC->
0

>  <Q_VSA_FHYD>
1

>  <Q_VSA_FNEG>
0

>  <Q_VSA_FPNEG>
0

>  <Q_VSA_FPOL>
0

>  <Q_VSA_FPOS>
1

>  <Q_VSA_FPPOS>
0

>  <Q_VSA_HYD>
308.04947

>  <Q_VSA_NEG>
0

>  <Q_VSA_PNEG>
0

>  <Q_VSA_POL>
0

>  <Q_VSA_POS>
308.04947

>  <Q_VSA_PPOS>
0

>  <radius>
6

>  <reactive>
1

>  <rings>
2

>  <RPC+>
0

>  <RPC->
0

>  <rsynth>
1

>  <SlogP>
3.2653

>  <SlogP_VSA0>
14.124202

>  <SlogP_VSA1>
13.004248

>  <SlogP_VSA2>
28.903076

>  <SlogP_VSA3>
0

>  <SlogP_VSA4>
29.311037

>  <SlogP_VSA5>
42.404533

>  <SlogP_VSA6>
0

>  <SlogP_VSA7>
125.76553

>  <SlogP_VSA8>
0

>  <SlogP_VSA9>
86.297462

>  <SMR>
7.9012499

>  <SMR_VSA0>
57.231777

>  <SMR_VSA1>
10.999887

>  <SMR_VSA2>
3.1243138

>  <SMR_VSA3>
15.733109

>  <SMR_VSA4>
2.7567475

>  <SMR_VSA5>
125.76553

>  <SMR_VSA6>
13.004248

>  <SMR_VSA7>
111.19447

>  <TPSA>
59.75

>  <VAdjEq>
0.46827638

>  <VAdjMa>
5.4594316

>  <VDistEq>
3.420975

>  <VDistMa>
8.4490919

>  <vdw_area>
308.04947

>  <vdw_vol>
372.09906

>  <vsa_acc>
27.133842

>  <vsa_acid>
0

>  <vsa_base>
0

>  <vsa_don>
0

>  <vsa_hyd>
203.07239

>  <vsa_other>
70.013489

>  <vsa_pol>
27.133842

>  <Weight>
328.151

>  <weinerPath>
1055

>  <weinerPol>
29

>  <zagreb>
104

$$$$