Oc1cc(ccc1O)CCNC(CCc1ccc(O)cc1)C
  MOE2013           2D

 22 23  0  0  1  0  0  0  0  0999 V2000
    0.0000    0.0000    0.0000 O   0  0  0  0  0  0  0  0  0  0  0  0
    1.2940   -0.7580    0.0000 C   0  0  0  0  0  0  0  0  0  0  0  0
    2.5980   -0.0160    0.0000 C   0  0  0  0  0  0  0  0  0  0  0  0
    3.8920   -0.7750    0.0000 C   0  0  0  0  0  0  0  0  0  0  0  0
    3.8830   -2.2750    0.0000 C   0  0  0  0  0  0  0  0  0  0  0  0
    2.5790   -3.0160    0.0000 C   0  0  0  0  0  0  0  0  0  0  0  0
    1.2850   -2.2580    0.0000 C   0  0  0  0  0  0  0  0  0  0  0  0
   -0.0190   -3.0000    0.0000 O   0  0  0  0  0  0  0  0  0  0  0  0
    5.1960   -0.0330    0.0000 C   0  0  0  0  0  0  0  0  0  0  0  0
    6.4900   -0.7910    0.0000 C   0  0  0  0  0  0  0  0  0  0  0  0
    7.7940   -0.0490    0.0000 N   0  0  0  0  0  0  0  0  0  0  0  0
    9.0880   -0.8070    0.0000 C   0  0  3  0  0  0  0  0  0  0  0  0
   10.3920   -0.0660    0.0000 C   0  0  0  0  0  0  0  0  0  0  0  0
   11.6860   -0.8240    0.0000 C   0  0  0  0  0  0  0  0  0  0  0  0
   12.9900   -0.0820    0.0000 C   0  0  0  0  0  0  0  0  0  0  0  0
   14.2840   -0.8400    0.0000 C   0  0  0  0  0  0  0  0  0  0  0  0
   15.5880   -0.0990    0.0000 C   0  0  0  0  0  0  0  0  0  0  0  0
   15.5980    1.4010    0.0000 C   0  0  0  0  0  0  0  0  0  0  0  0
   16.9010    2.1430    0.0000 O   0  0  0  0  0  0  0  0  0  0  0  0
   14.3030    2.1600    0.0000 C   0  0  0  0  0  0  0  0  0  0  0  0
   13.0000    1.4180    0.0000 C   0  0  0  0  0  0  0  0  0  0  0  0
    9.0790   -2.3070    0.0000 C   0  0  0  0  0  0  0  0  0  0  0  0
  1  2  1  0  0  0  0
  2  3  1  0  0  0  0
  2  7  2  0  0  0  0
  3  4  2  0  0  0  0
  4  5  1  0  0  0  0
  4  9  1  0  0  0  0
  5  6  2  0  0  0  0
  6  7  1  0  0  0  0
  7  8  1  0  0  0  0
  9 10  1  0  0  0  0
 10 11  1  0  0  0  0
 11 12  1  0  0  0  0
 12 13  1  0  0  0  0
 12 22  1  0  0  0  0
 13 14  1  0  0  0  0
 14 15  1  0  0  0  0
 15 16  1  0  0  0  0
 15 21  2  0  0  0  0
 16 17  2  0  0  0  0
 17 18  1  0  0  0  0
 18 19  1  0  0  0  0
 18 20  2  0  0  0  0
 20 21  1  0  0  0  0
M  END
>  <Index>
338

>  <ID>
HT0701

>  <class>
0

>  <apol>
50.52224

>  <ast_fraglike>
0

>  <ast_fraglike_ext>
0

>  <ast_violation>
3

>  <ast_violation_ext>
4

>  <a_acc>
4

>  <a_acid>
0

>  <a_aro>
12

>  <a_base>
0

>  <a_count>
45

>  <a_don>
4

>  <a_donacc>
8

>  <a_heavy>
22

>  <a_hyd>
18

>  <a_IC>
63.277927

>  <a_ICM>
1.4061762

>  <a_nB>
0

>  <a_nBr>
0

>  <a_nC>
18

>  <a_nCl>
0

>  <a_nF>
0

>  <a_nH>
23

>  <a_nI>
0

>  <a_nN>
1

>  <a_nO>
3

>  <a_nP>
0

>  <a_nS>
0

>  <balabanJ>
1.5172908

>  <BCUT_PEOE_0>
-2.68238

>  <BCUT_PEOE_1>
-0.6812095

>  <BCUT_PEOE_2>
0.7353192

>  <BCUT_PEOE_3>
2.6033216

>  <BCUT_SLOGP_0>
-2.7744792

>  <BCUT_SLOGP_1>
-0.58829653

>  <BCUT_SLOGP_2>
0.81089687

>  <BCUT_SLOGP_3>
2.6169548

>  <BCUT_SMR_0>
-2.4099348

>  <BCUT_SMR_1>
-0.53143579

>  <BCUT_SMR_2>
0.88590878

>  <BCUT_SMR_3>
2.8716073

>  <bpol>
25.803761

>  <b_1rotN>
7

>  <b_1rotR>
0.30434781

>  <b_ar>
12

>  <b_count>
46

>  <b_double>
0

>  <b_heavy>
23

>  <b_max1len>
7

>  <b_rotN>
7

>  <b_rotR>
0.30434781

>  <b_single>
34

>  <b_triple>
0

>  <chi0>
15.949383

>  <chi0v>
12.78887

>  <chi0v_C>
10.947229

>  <chi0_C>
12.242276

>  <chi1>
10.541714

>  <chi1v>
7.5651555

>  <chi1v_C>
6.2521062

>  <chi1_C>
7.9014149

>  <chiral>
1

>  <chiral_u>
1

>  <density>
0.6972127

>  <diameter>
15

>  <FCharge>
0

>  <GCUT_PEOE_0>
-0.85025412

>  <GCUT_PEOE_1>
-0.40780544

>  <GCUT_PEOE_2>
0.11148158

>  <GCUT_PEOE_3>
2.5909841

>  <GCUT_SLOGP_0>
-1.1530688

>  <GCUT_SLOGP_1>
-0.31885076

>  <GCUT_SLOGP_2>
0.1647936

>  <GCUT_SLOGP_3>
2.6722684

>  <GCUT_SMR_0>
-0.52314502

>  <GCUT_SMR_1>
-0.22812752

>  <GCUT_SMR_2>
0.22100739

>  <GCUT_SMR_3>
2.847019

>  <Kier1>
18.340265

>  <Kier2>
9.333333

>  <Kier3>
6.5743942

>  <KierA1>
14.602181

>  <KierA2>
7.3447256

>  <KierA3>
5.1299186

>  <KierFlex>
4.8749552

>  <lip_acc>
4

>  <lip_don>
4

>  <lip_druglike>
1

>  <lip_violation>
0

>  <logP(o/w)>
3.6659999

>  <logS>
-2.4593501

>  <mr>
8.7831116

>  <mutagenic>
0

>  <nmol>
1

>  <opr_brigid>
12

>  <opr_leadlike>
1

>  <opr_nring>
2

>  <opr_nrot>
7

>  <opr_violation>
0

>  <PC+>
0

>  <PC->
0

>  <PEOE_PC+>
1.8899834

>  <PEOE_PC->
-1.8899834

>  <PEOE_RPC+>
0.11503892

>  <PEOE_RPC->
0.19038916

>  <PEOE_VSA+0>
67.522919

>  <PEOE_VSA+1>
38.316223

>  <PEOE_VSA+2>
25.536053

>  <PEOE_VSA+3>
0

>  <PEOE_VSA+4>
30.972517

>  <PEOE_VSA+5>
0

>  <PEOE_VSA+6>
0

>  <PEOE_VSA-0>
98.288315

>  <PEOE_VSA-1>
36.764713

>  <PEOE_VSA-2>
0

>  <PEOE_VSA-3>
0

>  <PEOE_VSA-4>
0

>  <PEOE_VSA-5>
0

>  <PEOE_VSA-6>
23.439512

>  <PEOE_VSA_FHYD>
0.83040774

>  <PEOE_VSA_FNEG>
0.49399206

>  <PEOE_VSA_FPNEG>
0.073056646

>  <PEOE_VSA_FPOL>
0.16959228

>  <PEOE_VSA_FPOS>
0.50600791

>  <PEOE_VSA_FPPOS>
0.096535638

>  <PEOE_VSA_HYD>
266.42822

>  <PEOE_VSA_NEG>
158.49254

>  <PEOE_VSA_PNEG>
23.439512

>  <PEOE_VSA_POL>
54.412029

>  <PEOE_VSA_POS>
162.3477

>  <PEOE_VSA_PPOS>
30.972517

>  <petitjean>
0.46666667

>  <petitjeanSC>
0.875

>  <Q_PC+>
0

>  <Q_PC->
0

>  <Q_RPC+>
0

>  <Q_RPC->
0

>  <Q_VSA_FHYD>
1

>  <Q_VSA_FNEG>
0

>  <Q_VSA_FPNEG>
0

>  <Q_VSA_FPOL>
0

>  <Q_VSA_FPOS>
1

>  <Q_VSA_FPPOS>
0

>  <Q_VSA_HYD>
320.84024

>  <Q_VSA_NEG>
0

>  <Q_VSA_PNEG>
0

>  <Q_VSA_POL>
0

>  <Q_VSA_POS>
320.84024

>  <Q_VSA_PPOS>
0

>  <radius>
8

>  <reactive>
0

>  <rings>
2

>  <RPC+>
0

>  <RPC->
0

>  <rsynth>
0.31818181

>  <SlogP>
2.9567399

>  <SlogP_VSA0>
94.166428

>  <SlogP_VSA1>
0

>  <SlogP_VSA2>
3.9819686

>  <SlogP_VSA3>
18.439579

>  <SlogP_VSA4>
6.37115

>  <SlogP_VSA5>
37.736813

>  <SlogP_VSA6>
0

>  <SlogP_VSA7>
123.50229

>  <SlogP_VSA8>
18.868406

>  <SlogP_VSA9>
49.056297

>  <SMR>
8.7368097

>  <SMR_VSA0>
0

>  <SMR_VSA1>
76.155678

>  <SMR_VSA2>
18.01075

>  <SMR_VSA3>
26.083403

>  <SMR_VSA4>
0

>  <SMR_VSA5>
180.10751

>  <SMR_VSA6>
18.439579

>  <SMR_VSA7>
33.326015

>  <TPSA>
72.720001

>  <VAdjEq>
0.4530769

>  <VAdjMa>
5.523562

>  <VDistEq>
3.6737688

>  <VDistMa>
8.5625687

>  <vdw_area>
320.84024

>  <vdw_vol>
432.27264

>  <vsa_acc>
0

>  <vsa_acid>
0

>  <vsa_base>
0

>  <vsa_don>
0

>  <vsa_hyd>
244.2851

>  <vsa_other>
0

>  <vsa_pol>
46.383339

>  <Weight>
301.38599

>  <weinerPath>
1346

>  <weinerPol>
28

>  <zagreb>
106

$$$$