OC1CCC2C3C(CCC12C)C1(CC(C)C(=O)CC1CC3)C
  MOE2013           2D

 22 25  0  0  1  0  0  0  0  0999 V2000
    0.0000    0.0000    0.0000 O   0  0  0  0  0  0  0  0  0  0  0  0
    1.0260   -1.0940    0.0000 C   0  0  3  0  0  0  0  0  0  0  0  0
    0.7440   -2.5670    0.0000 C   0  0  0  0  0  0  0  0  0  0  0  0
    2.0580   -3.2910    0.0000 C   0  0  0  0  0  0  0  0  0  0  0  0
    3.1520   -2.2650    0.0000 C   0  0  3  0  0  0  0  0  0  0  0  0
    4.6460   -2.3920    0.0000 C   0  0  3  0  0  0  0  0  0  0  0  0
    5.5040   -1.1610    0.0000 C   0  0  3  0  0  0  0  0  0  0  0  0
    4.8660    0.1970    0.0000 C   0  0  0  0  0  0  0  0  0  0  0  0
    3.3710    0.3240    0.0000 C   0  0  0  0  0  0  0  0  0  0  0  0
    2.5140   -0.9070    0.0000 C   0  0  3  0  0  0  0  0  0  0  0  0
    1.7610    0.3900    0.0000 C   0  0  0  0  0  0  0  0  0  0  0  0
    6.9980   -1.2880    0.0000 C   0  0  3  0  0  0  0  0  0  0  0  0
    7.8550   -0.0570    0.0000 C   0  0  0  0  0  0  0  0  0  0  0  0
    9.3500   -0.1830    0.0000 C   0  0  3  0  0  0  0  0  0  0  0  0
   10.2070    1.0480    0.0000 C   0  0  0  0  0  0  0  0  0  0  0  0
    9.9870   -1.5410    0.0000 C   0  0  0  0  0  0  0  0  0  0  0  0
   11.4820   -1.6680    0.0000 O   0  0  0  0  0  0  0  0  0  0  0  0
    9.1300   -2.7720    0.0000 C   0  0  0  0  0  0  0  0  0  0  0  0
    7.6360   -2.6450    0.0000 C   0  0  3  0  0  0  0  0  0  0  0  0
    6.7790   -3.8760    0.0000 C   0  0  0  0  0  0  0  0  0  0  0  0
    5.2840   -3.7500    0.0000 C   0  0  0  0  0  0  0  0  0  0  0  0
    8.4930   -1.4140    0.0000 C   0  0  0  0  0  0  0  0  0  0  0  0
  1  2  1  0  0  0  0
  2  3  1  0  0  0  0
  2 10  1  0  0  0  0
  3  4  1  0  0  0  0
  4  5  1  0  0  0  0
  5  6  1  0  0  0  0
  5 10  1  0  0  0  0
  6  7  1  0  0  0  0
  6 21  1  0  0  0  0
  7  8  1  0  0  0  0
  7 12  1  0  0  0  0
  8  9  1  0  0  0  0
  9 10  1  0  0  0  0
 10 11  1  0  0  0  0
 12 13  1  0  0  0  0
 12 19  1  0  0  0  0
 12 22  1  0  0  0  0
 13 14  1  0  0  0  0
 14 15  1  0  0  0  0
 14 16  1  0  0  0  0
 16 17  2  0  0  0  0
 16 18  1  0  0  0  0
 18 19  1  0  0  0  0
 19 20  1  0  0  0  0
 20 21  1  0  0  0  0
M  END
>  <Index>
354

>  <ID>
HT0728

>  <class>
0

>  <apol>
58.141376

>  <ast_fraglike>
0

>  <ast_fraglike_ext>
0

>  <ast_violation>
2

>  <ast_violation_ext>
2

>  <a_acc>
2

>  <a_acid>
0

>  <a_aro>
0

>  <a_base>
0

>  <a_count>
54

>  <a_don>
1

>  <a_donacc>
3

>  <a_heavy>
22

>  <a_hyd>
19

>  <a_IC>
62.325363

>  <a_ICM>
1.1541734

>  <a_nB>
0

>  <a_nBr>
0

>  <a_nC>
20

>  <a_nCl>
0

>  <a_nF>
0

>  <a_nH>
32

>  <a_nI>
0

>  <a_nN>
0

>  <a_nO>
2

>  <a_nP>
0

>  <a_nS>
0

>  <balabanJ>
1.633181

>  <BCUT_PEOE_0>
-2.9871275

>  <BCUT_PEOE_1>
-0.49452356

>  <BCUT_PEOE_2>
0.40832001

>  <BCUT_PEOE_3>
2.978852

>  <BCUT_SLOGP_0>
-2.9120255

>  <BCUT_SLOGP_1>
-0.42232797

>  <BCUT_SLOGP_2>
0.4039031

>  <BCUT_SLOGP_3>
3.0550921

>  <BCUT_SMR_0>
-2.7333138

>  <BCUT_SMR_1>
-0.32408625

>  <BCUT_SMR_2>
0.57559544

>  <BCUT_SMR_3>
3.2320566

>  <bpol>
35.940624

>  <b_1rotN>
0

>  <b_1rotR>
0

>  <b_ar>
0

>  <b_count>
57

>  <b_double>
1

>  <b_heavy>
25

>  <b_max1len>
3

>  <b_rotN>
0

>  <b_rotR>
0

>  <b_single>
56

>  <b_triple>
0

>  <chi0>
15.698306

>  <chi0v>
14.476418

>  <chi0v_C>
13.620955

>  <chi0_C>
13.698306

>  <chi1>
10.359844

>  <chi1v>
9.5681143

>  <chi1v_C>
9.1057911

>  <chi1_C>
9.2051439

>  <chiral>
8

>  <chiral_u>
8

>  <density>
0.66683406

>  <diameter>
10

>  <FCharge>
0

>  <GCUT_PEOE_0>
-0.80509394

>  <GCUT_PEOE_1>
-0.37843996

>  <GCUT_PEOE_2>
-0.0045672804

>  <GCUT_PEOE_3>
3.3618796

>  <GCUT_SLOGP_0>
-0.88367891

>  <GCUT_SLOGP_1>
-0.30345342

>  <GCUT_SLOGP_2>
-0.0072314795

>  <GCUT_SLOGP_3>
3.4427705

>  <GCUT_SMR_0>
-0.54208952

>  <GCUT_SMR_1>
-0.22343026

>  <GCUT_SMR_2>
0.12717149

>  <GCUT_SMR_3>
3.58184

>  <Kier1>
15.5232

>  <Kier2>
4.9970255

>  <Kier3>
2.0424616

>  <KierA1>
14.877172

>  <KierA2>
4.7789783

>  <KierA3>
1.9503583

>  <KierFlex>
3.2317133

>  <lip_acc>
2

>  <lip_don>
1

>  <lip_druglike>
1

>  <lip_violation>
0

>  <logP(o/w)>
4.0240002

>  <logS>
-4.7483802

>  <mr>
8.7877541

>  <mutagenic>
0

>  <nmol>
1

>  <opr_brigid>
20

>  <opr_leadlike>
1

>  <opr_nring>
4

>  <opr_nrot>
0

>  <opr_violation>
0

>  <PC+>
0

>  <PC->
0

>  <PEOE_PC+>
1.31636

>  <PEOE_PC->
-1.31636

>  <PEOE_RPC+>
0.15937893

>  <PEOE_RPC->
0.29721254

>  <PEOE_VSA+0>
136.66289

>  <PEOE_VSA+1>
9.1703148

>  <PEOE_VSA+2>
8.458519

>  <PEOE_VSA+3>
0

>  <PEOE_VSA+4>
10.324173

>  <PEOE_VSA+5>
0

>  <PEOE_VSA+6>
0

>  <PEOE_VSA-0>
60.909191

>  <PEOE_VSA-1>
56.243034

>  <PEOE_VSA-2>
0

>  <PEOE_VSA-3>
0

>  <PEOE_VSA-4>
0

>  <PEOE_VSA-5>
13.566921

>  <PEOE_VSA-6>
7.7675405

>  <PEOE_VSA_FHYD>
0.89555144

>  <PEOE_VSA_FNEG>
0.45689708

>  <PEOE_VSA_FPNEG>
0.070386931

>  <PEOE_VSA_FPOL>
0.10444858

>  <PEOE_VSA_FPOS>
0.54310292

>  <PEOE_VSA_FPPOS>
0.034061644

>  <PEOE_VSA_HYD>
271.44394

>  <PEOE_VSA_NEG>
138.48668

>  <PEOE_VSA_PNEG>
21.334461

>  <PEOE_VSA_POL>
31.658634

>  <PEOE_VSA_POS>
164.61591

>  <PEOE_VSA_PPOS>
10.324173

>  <petitjean>
0.5

>  <petitjeanSC>
1

>  <Q_PC+>
0

>  <Q_PC->
0

>  <Q_RPC+>
0

>  <Q_RPC->
0

>  <Q_VSA_FHYD>
1

>  <Q_VSA_FNEG>
0

>  <Q_VSA_FPNEG>
0

>  <Q_VSA_FPOL>
0

>  <Q_VSA_FPOS>
1

>  <Q_VSA_FPPOS>
0

>  <Q_VSA_HYD>
303.1026

>  <Q_VSA_NEG>
0

>  <Q_VSA_PNEG>
0

>  <Q_VSA_POL>
0

>  <Q_VSA_POS>
303.1026

>  <Q_VSA_PPOS>
0

>  <radius>
5

>  <reactive>
1

>  <rings>
4

>  <RPC+>
0

>  <RPC->
0

>  <rsynth>
0

>  <SlogP>
4.2051001

>  <SlogP_VSA0>
25.385227

>  <SlogP_VSA1>
5.6876111

>  <SlogP_VSA2>
30.330866

>  <SlogP_VSA3>
0

>  <SlogP_VSA4>
22.05398

>  <SlogP_VSA5>
0

>  <SlogP_VSA6>
0

>  <SlogP_VSA7>
0

>  <SlogP_VSA8>
150.94725

>  <SlogP_VSA9>
99.978043

>  <SMR>
8.7287798

>  <SMR_VSA0>
23.862217

>  <SMR_VSA1>
25.385227

>  <SMR_VSA2>
22.05398

>  <SMR_VSA3>
6.4686494

>  <SMR_VSA4>
0

>  <SMR_VSA5>
150.94725

>  <SMR_VSA6>
5.6876111

>  <SMR_VSA7>
99.978043

>  <TPSA>
37.299999

>  <VAdjEq>
0.47938794

>  <VAdjMa>
5.643856

>  <VDistEq>
2.9785144

>  <VDistMa>
8.6476908

>  <vdw_area>
303.1026

>  <vdw_vol>
456.59634

>  <vsa_acc>
13.566921

>  <vsa_acid>
0

>  <vsa_base>
0

>  <vsa_don>
0

>  <vsa_hyd>
234.19452

>  <vsa_other>
8.458519

>  <vsa_pol>
27.133842

>  <Weight>
304.474

>  <weinerPath>
908

>  <weinerPol>
47

>  <zagreb>
132

$$$$