FC12C(C3CCC(OC(=O)CCC)(C(=O)COC(=O)C)C3(CC1O)C)CC(F)C1=CC(=O)C=CC12C
  MOE2013           2D

 36 39  0  0  1  0  0  0  0  0999 V2000
    0.0000    0.0000    0.0000 F   0  0  0  0  0  0  0  0  0  0  0  0
    1.5000   -0.0020    0.0000 C   0  0  3  0  0  0  0  0  0  0  0  0
    0.7520    1.2980    0.0000 C   0  0  3  0  0  0  0  0  0  0  0  0
   -0.7480    1.3000    0.0000 C   0  0  3  0  0  0  0  0  0  0  0  0
   -1.7500    2.4160    0.0000 C   0  0  0  0  0  0  0  0  0  0  0  0
   -3.1210    1.8080    0.0000 C   0  0  0  0  0  0  0  0  0  0  0  0
   -2.9670    0.3160    0.0000 C   0  0  3  0  0  0  0  0  0  0  0  0
   -4.4490    0.0830    0.0000 O   0  0  0  0  0  0  0  0  0  0  0  0
   -5.3910    1.2500    0.0000 C   0  0  0  0  0  0  0  0  0  0  0  0
   -4.8510    2.6500    0.0000 O   0  0  0  0  0  0  0  0  0  0  0  0
   -6.8730    1.0180    0.0000 C   0  0  0  0  0  0  0  0  0  0  0  0
   -7.8150    2.1850    0.0000 C   0  0  0  0  0  0  0  0  0  0  0  0
   -9.2970    1.9520    0.0000 C   0  0  0  0  0  0  0  0  0  0  0  0
   -3.4570   -1.1020    0.0000 C   0  0  0  0  0  0  0  0  0  0  0  0
   -2.4750   -2.2350    0.0000 O   0  0  0  0  0  0  0  0  0  0  0  0
   -4.9300   -1.3860    0.0000 C   0  0  0  0  0  0  0  0  0  0  0  0
   -5.4200   -2.8030    0.0000 O   0  0  0  0  0  0  0  0  0  0  0  0
   -6.8930   -3.0880    0.0000 C   0  0  0  0  0  0  0  0  0  0  0  0
   -7.8760   -1.9540    0.0000 O   0  0  0  0  0  0  0  0  0  0  0  0
   -7.3830   -4.5050    0.0000 C   0  0  0  0  0  0  0  0  0  0  0  0
   -1.5000    0.0020    0.0000 C   0  0  3  0  0  0  0  0  0  0  0  0
   -0.7520   -1.2980    0.0000 C   0  0  0  0  0  0  0  0  0  0  0  0
    0.7480   -1.3000    0.0000 C   0  0  3  0  0  0  0  0  0  0  0  0
    1.4960   -2.6000    0.0000 O   0  0  0  0  0  0  0  0  0  0  0  0
   -2.3620   -1.2250    0.0000 C   0  0  0  0  0  0  0  0  0  0  0  0
    1.5040    2.5960    0.0000 C   0  0  0  0  0  0  0  0  0  0  0  0
    3.0040    2.5940    0.0000 C   0  0  3  0  0  0  0  0  0  0  0  0
    3.7550    3.8920    0.0000 F   0  0  0  0  0  0  0  0  0  0  0  0
    3.7520    1.2940    0.0000 C   0  0  0  0  0  0  0  0  0  0  0  0
    5.2520    1.2920    0.0000 C   0  0  0  0  0  0  0  0  0  0  0  0
    6.0000   -0.0080    0.0000 C   0  0  0  0  0  0  0  0  0  0  0  0
    7.5000   -0.0100    0.0000 O   0  0  0  0  0  0  0  0  0  0  0  0
    5.2480   -1.3060    0.0000 C   0  0  0  0  0  0  0  0  0  0  0  0
    3.7480   -1.3040    0.0000 C   0  0  0  0  0  0  0  0  0  0  0  0
    3.0000   -0.0040    0.0000 C   0  0  3  0  0  0  0  0  0  0  0  0
    2.2480   -1.3020    0.0000 C   0  0  0  0  0  0  0  0  0  0  0  0
  1  2  1  0  0  0  0
  2  3  1  0  0  0  0
  2 23  1  0  0  0  0
  2 35  1  0  0  0  0
  3  4  1  0  0  0  0
  3 26  1  0  0  0  0
  4  5  1  0  0  0  0
  4 21  1  0  0  0  0
  5  6  1  0  0  0  0
  6  7  1  0  0  0  0
  7  8  1  0  0  0  0
  7 14  1  0  0  0  0
  7 21  1  0  0  0  0
  8  9  1  0  0  0  0
  9 10  2  0  0  0  0
  9 11  1  0  0  0  0
 11 12  1  0  0  0  0
 12 13  1  0  0  0  0
 14 15  2  0  0  0  0
 14 16  1  0  0  0  0
 16 17  1  0  0  0  0
 17 18  1  0  0  0  0
 18 19  2  0  0  0  0
 18 20  1  0  0  0  0
 21 22  1  0  0  0  0
 21 25  1  0  0  0  0
 22 23  1  0  0  0  0
 23 24  1  0  0  0  0
 26 27  1  0  0  0  0
 27 28  1  0  0  0  0
 27 29  1  0  0  0  0
 29 30  2  0  0  0  0
 29 35  1  0  0  0  0
 30 31  1  0  0  0  0
 31 32  2  0  0  0  0
 31 33  1  0  0  0  0
 33 34  2  0  0  0  0
 34 35  1  0  0  0  0
 35 36  1  0  0  0  0
M  END
>  <Index>
322

>  <ID>
HT0663

>  <class>
0

>  <apol>
76.918961

>  <ast_fraglike>
0

>  <ast_fraglike_ext>
0

>  <ast_violation>
3

>  <ast_violation_ext>
5

>  <a_acc>
5

>  <a_acid>
0

>  <a_aro>
0

>  <a_base>
0

>  <a_count>
70

>  <a_don>
1

>  <a_donacc>
6

>  <a_heavy>
36

>  <a_hyd>
25

>  <a_IC>
106.04263

>  <a_ICM>
1.5148947

>  <a_nB>
0

>  <a_nBr>
0

>  <a_nC>
27

>  <a_nCl>
0

>  <a_nF>
2

>  <a_nH>
34

>  <a_nI>
0

>  <a_nN>
0

>  <a_nO>
7

>  <a_nP>
0

>  <a_nS>
0

>  <balabanJ>
1.7402693

>  <BCUT_PEOE_0>
-2.8908484

>  <BCUT_PEOE_1>
-0.50145024

>  <BCUT_PEOE_2>
0.36690307

>  <BCUT_PEOE_3>
2.9991372

>  <BCUT_SLOGP_0>
-2.9294662

>  <BCUT_SLOGP_1>
-0.42501152

>  <BCUT_SLOGP_2>
0.48630011

>  <BCUT_SLOGP_3>
2.9895768

>  <BCUT_SMR_0>
-2.6711752

>  <BCUT_SMR_1>
-0.2829299

>  <BCUT_SMR_2>
0.56276333

>  <BCUT_SMR_3>
3.2198644

>  <bpol>
47.239037

>  <b_1rotN>
6

>  <b_1rotR>
0.15384616

>  <b_ar>
0

>  <b_count>
73

>  <b_double>
6

>  <b_heavy>
39

>  <b_max1len>
4

>  <b_rotN>
8

>  <b_rotR>
0.20512821

>  <b_single>
67

>  <b_triple>
0

>  <chi0>
26.681435

>  <chi0v>
21.143831

>  <chi0v_C>
17.491199

>  <chi0_C>
18.26722

>  <chi1>
16.763546

>  <chi1v>
12.613324

>  <chi1v_C>
10.230381

>  <chi1_C>
11.129395

>  <chiral>
8

>  <chiral_u>
8

>  <density>
0.78609651

>  <diameter>
14

>  <FCharge>
0

>  <GCUT_PEOE_0>
-0.78882229

>  <GCUT_PEOE_1>
-0.40877065

>  <GCUT_PEOE_2>
-1.554815e-005

>  <GCUT_PEOE_3>
3.4145193

>  <GCUT_SLOGP_0>
-0.93125314

>  <GCUT_SLOGP_1>
-0.3228066

>  <GCUT_SLOGP_2>
0.027243717

>  <GCUT_SLOGP_3>
3.4279759

>  <GCUT_SMR_0>
-0.53698826

>  <GCUT_SMR_1>
-0.21519853

>  <GCUT_SMR_2>
0.13416722

>  <GCUT_SMR_3>
3.626929

>  <Kier1>
28.994083

>  <Kier2>
10.194003

>  <Kier3>
4.317338

>  <KierA1>
24.700699

>  <KierA2>
8.6429071

>  <KierA3>
3.6481287

>  <KierFlex>
5.9301624

>  <lip_acc>
7

>  <lip_don>
1

>  <lip_druglike>
1

>  <lip_violation>
1

>  <logP(o/w)>
4.0359998

>  <logS>
-5.0588102

>  <mr>
12.730679

>  <mutagenic>
0

>  <nmol>
1

>  <opr_brigid>
20

>  <opr_leadlike>
1

>  <opr_nring>
4

>  <opr_nrot>
6

>  <opr_violation>
1

>  <PC+>
0

>  <PC->
0

>  <PEOE_PC+>
3.0338759

>  <PEOE_PC->
-3.0338759

>  <PEOE_RPC+>
0.08671166

>  <PEOE_RPC->
0.12808058

>  <PEOE_VSA+0>
138.34903

>  <PEOE_VSA+1>
34.76263

>  <PEOE_VSA+2>
20.418549

>  <PEOE_VSA+3>
16.917038

>  <PEOE_VSA+4>
10.324173

>  <PEOE_VSA+5>
29.416998

>  <PEOE_VSA+6>
0

>  <PEOE_VSA-0>
88.972588

>  <PEOE_VSA-1>
49.750259

>  <PEOE_VSA-2>
0

>  <PEOE_VSA-3>
0

>  <PEOE_VSA-4>
23.817272

>  <PEOE_VSA-5>
54.267685

>  <PEOE_VSA-6>
12.775052

>  <PEOE_VSA_FHYD>
0.72778451

>  <PEOE_VSA_FNEG>
0.47852564

>  <PEOE_VSA_FPNEG>
0.18938193

>  <PEOE_VSA_FPOL>
0.27221552

>  <PEOE_VSA_FPOS>
0.52147436

>  <PEOE_VSA_FPPOS>
0.082833581

>  <PEOE_VSA_HYD>
349.1701

>  <PEOE_VSA_NEG>
229.58286

>  <PEOE_VSA_PNEG>
90.860008

>  <PEOE_VSA_POL>
130.60118

>  <PEOE_VSA_POS>
250.18842

>  <PEOE_VSA_PPOS>
39.741173

>  <petitjean>
0.5

>  <petitjeanSC>
1

>  <Q_PC+>
0

>  <Q_PC->
0

>  <Q_RPC+>
0

>  <Q_RPC->
0

>  <Q_VSA_FHYD>
1

>  <Q_VSA_FNEG>
0

>  <Q_VSA_FPNEG>
0

>  <Q_VSA_FPOL>
0

>  <Q_VSA_FPOS>
1

>  <Q_VSA_FPPOS>
0

>  <Q_VSA_HYD>
479.77127

>  <Q_VSA_NEG>
0

>  <Q_VSA_PNEG>
0

>  <Q_VSA_POL>
0

>  <Q_VSA_POS>
479.77127

>  <Q_VSA_PPOS>
0

>  <radius>
7

>  <reactive>
1

>  <rings>
4

>  <RPC+>
0

>  <RPC->
0

>  <rsynth>
0.47222221

>  <SlogP>
3.5195

>  <SlogP_VSA0>
25.385227

>  <SlogP_VSA1>
26.86615

>  <SlogP_VSA2>
134.26353

>  <SlogP_VSA3>
20.926258

>  <SlogP_VSA4>
8.8215923

>  <SlogP_VSA5>
3.185575

>  <SlogP_VSA6>
0

>  <SlogP_VSA7>
52.929554

>  <SlogP_VSA8>
113.21043

>  <SlogP_VSA9>
163.22429

>  <SMR>
12.40048

>  <SMR_VSA0>
117.44864

>  <SMR_VSA1>
55.305454

>  <SMR_VSA2>
8.8215923

>  <SMR_VSA3>
20.000463

>  <SMR_VSA4>
0

>  <SMR_VSA5>
166.13998

>  <SMR_VSA6>
47.792408

>  <SMR_VSA7>
133.30406

>  <TPSA>
106.97

>  <VAdjEq>
0.3281796

>  <VAdjMa>
6.2854023

>  <VDistEq>
3.4957874

>  <VDistMa>
10.089313

>  <vdw_area>
479.77127

>  <vdw_vol>
646.94092

>  <vsa_acc>
54.267685

>  <vsa_acid>
0

>  <vsa_base>
0

>  <vsa_don>
0

>  <vsa_hyd>
329.89099

>  <vsa_other>
51.341549

>  <vsa_pol>
67.834602

>  <Weight>
508.55798

>  <weinerPath>
3483

>  <weinerPol>
80

>  <zagreb>
204

$$$$