S1c2c(N(CCN(C)C)C(=O)[C@H](OC(=O)C)[C@@H]1c1ccc(OC)cc1)cccc2
  MOE2013           2D

 29 31  0  0  1  0  0  0  0  0999 V2000
    0.0000    0.0000    0.0000 S   0  0  0  0  0  0  0  0  0  0  0  0
   -1.4680   -0.3100    0.0000 C   0  0  0  0  0  0  0  0  0  0  0  0
   -2.6250    0.6440    0.0000 C   0  0  0  0  0  0  0  0  0  0  0  0
   -2.6020    2.1440    0.0000 N   0  0  0  0  0  0  0  0  0  0  0  0
   -3.9430    2.8160    0.0000 C   0  0  0  0  0  0  0  0  0  0  0  0
   -5.1960    1.9910    0.0000 C   0  0  0  0  0  0  0  0  0  0  0  0
   -6.5370    2.6630    0.0000 N   0  0  0  0  0  0  0  0  0  0  0  0
   -6.6250    4.1610    0.0000 C   0  0  0  0  0  0  0  0  0  0  0  0
   -7.7900    1.8380    0.0000 C   0  0  0  0  0  0  0  0  0  0  0  0
   -1.4140    3.0590    0.0000 C   0  0  0  0  0  0  0  0  0  0  0  0
   -1.7240    4.5270    0.0000 O   0  0  0  0  0  0  0  0  0  0  0  0
    0.0410    2.7030    0.0000 C   0  0  2  0  0  0  0  0  0  0  0  0
    0.9950    3.8610    0.0000 O   0  0  0  0  0  0  0  0  0  0  0  0
    0.4690    5.2660    0.0000 C   0  0  0  0  0  0  0  0  0  0  0  0
    1.4230    6.4230    0.0000 O   0  0  0  0  0  0  0  0  0  0  0  0
   -1.0100    5.5130    0.0000 C   0  0  0  0  0  0  0  0  0  0  0  0
    0.6710    1.3410    0.0000 C   0  0  2  0  0  0  0  0  0  0  0  0
    2.1710    1.3180    0.0000 C   0  0  0  0  0  0  0  0  0  0  0  0
    2.9010    0.0080    0.0000 C   0  0  0  0  0  0  0  0  0  0  0  0
    4.4010   -0.0150    0.0000 C   0  0  0  0  0  0  0  0  0  0  0  0
    5.1710    1.2720    0.0000 C   0  0  0  0  0  0  0  0  0  0  0  0
    6.6700    1.2490    0.0000 O   0  0  0  0  0  0  0  0  0  0  0  0
    7.4000   -0.0610    0.0000 C   0  0  0  0  0  0  0  0  0  0  0  0
    4.4410    2.5830    0.0000 C   0  0  0  0  0  0  0  0  0  0  0  0
    2.9410    2.6060    0.0000 C   0  0  0  0  0  0  0  0  0  0  0  0
   -4.0300    0.1180    0.0000 C   0  0  0  0  0  0  0  0  0  0  0  0
   -4.2770   -1.3610    0.0000 C   0  0  0  0  0  0  0  0  0  0  0  0
   -3.1190   -2.3150    0.0000 C   0  0  0  0  0  0  0  0  0  0  0  0
   -1.7150   -1.7890    0.0000 C   0  0  0  0  0  0  0  0  0  0  0  0
  1  2  1  0  0  0  0
  1 17  1  0  0  0  0
  2  3  2  0  0  0  0
  2 29  1  0  0  0  0
  3  4  1  0  0  0  0
  3 26  1  0  0  0  0
  4  5  1  0  0  0  0
  4 10  1  0  0  0  0
  5  6  1  0  0  0  0
  6  7  1  0  0  0  0
  7  8  1  0  0  0  0
  7  9  1  0  0  0  0
 10 11  2  0  0  0  0
 10 12  1  0  0  0  0
 12 13  1  6  0  0  0
 12 17  1  0  0  0  0
 13 14  1  0  0  0  0
 14 15  2  0  0  0  0
 14 16  1  0  0  0  0
 17 18  1  6  0  0  0
 18 19  1  0  0  0  0
 18 25  2  0  0  0  0
 19 20  2  0  0  0  0
 20 21  1  0  0  0  0
 21 22  1  0  0  0  0
 21 24  2  0  0  0  0
 22 23  1  0  0  0  0
 24 25  1  0  0  0  0
 26 27  2  0  0  0  0
 27 28  1  0  0  0  0
 28 29  2  0  0  0  0
M  END
>  <Index>
329

>  <ID>
HT0674

>  <class>
0

>  <apol>
64.364616

>  <ast_fraglike>
0

>  <ast_fraglike_ext>
0

>  <ast_violation>
3

>  <ast_violation_ext>
4

>  <a_acc>
4

>  <a_acid>
0

>  <a_aro>
12

>  <a_base>
0

>  <a_count>
55

>  <a_don>
0

>  <a_donacc>
4

>  <a_heavy>
29

>  <a_hyd>
21

>  <a_IC>
87.655853

>  <a_ICM>
1.5937428

>  <a_nB>
0

>  <a_nBr>
0

>  <a_nC>
22

>  <a_nCl>
0

>  <a_nF>
0

>  <a_nH>
26

>  <a_nI>
0

>  <a_nN>
2

>  <a_nO>
4

>  <a_nP>
0

>  <a_nS>
1

>  <balabanJ>
1.8434407

>  <BCUT_PEOE_0>
-2.6268151

>  <BCUT_PEOE_1>
-0.54112113

>  <BCUT_PEOE_2>
0.52408117

>  <BCUT_PEOE_3>
2.6190031

>  <BCUT_SLOGP_0>
-2.7520952

>  <BCUT_SLOGP_1>
-0.44505095

>  <BCUT_SLOGP_2>
0.58780283

>  <BCUT_SLOGP_3>
2.6568346

>  <BCUT_SMR_0>
-2.3389025

>  <BCUT_SMR_1>
-0.36219332

>  <BCUT_SMR_2>
0.70066118

>  <BCUT_SMR_3>
2.9043133

>  <bpol>
40.411381

>  <b_1rotN>
6

>  <b_1rotR>
0.19354838

>  <b_ar>
12

>  <b_count>
57

>  <b_double>
2

>  <b_heavy>
31

>  <b_max1len>
5

>  <b_rotN>
7

>  <b_rotR>
0.22580644

>  <b_single>
43

>  <b_triple>
0

>  <chi0>
20.965891

>  <chi0v>
17.939882

>  <chi0v_C>
14.187716

>  <chi0_C>
15.68987

>  <chi1>
13.901086

>  <chi1v>
10.313424

>  <chi1v_C>
5.559401

>  <chi1_C>
7.3601732

>  <chiral>
2

>  <chiral_u>
0

>  <density>
0.74540472

>  <diameter>
13

>  <FCharge>
0

>  <GCUT_PEOE_0>
-0.86001146

>  <GCUT_PEOE_1>
-0.39191943

>  <GCUT_PEOE_2>
0.020275602

>  <GCUT_PEOE_3>
2.8117566

>  <GCUT_SLOGP_0>
-1.0041566

>  <GCUT_SLOGP_1>
-0.32358044

>  <GCUT_SLOGP_2>
0.11020007

>  <GCUT_SLOGP_3>
2.8868082

>  <GCUT_SMR_0>
-0.51568937

>  <GCUT_SMR_1>
-0.18940938

>  <GCUT_SMR_2>
0.16086869

>  <GCUT_SMR_3>
3.100363

>  <Kier1>
23.658689

>  <Kier2>
11.039481

>  <Kier3>
6.0357141

>  <KierA1>
19.363047

>  <KierA2>
8.966712

>  <KierA3>
4.875071

>  <KierFlex>
5.9869957

>  <lip_acc>
6

>  <lip_don>
0

>  <lip_druglike>
1

>  <lip_violation>
0

>  <logP(o/w)>
3.2639999

>  <logS>
-4.7829199

>  <mr>
11.597378

>  <mutagenic>
0

>  <nmol>
1

>  <opr_brigid>
18

>  <opr_leadlike>
1

>  <opr_nring>
3

>  <opr_nrot>
7

>  <opr_violation>
0

>  <PC+>
0

>  <PC->
0

>  <PEOE_PC+>
2.3435695

>  <PEOE_PC->
-2.3435695

>  <PEOE_RPC+>
0.11085161

>  <PEOE_RPC->
0.14845397

>  <PEOE_VSA+0>
125.49921

>  <PEOE_VSA+1>
75.504486

>  <PEOE_VSA+2>
0

>  <PEOE_VSA+3>
4.9049287

>  <PEOE_VSA+4>
0

>  <PEOE_VSA+5>
27.65803

>  <PEOE_VSA+6>
0

>  <PEOE_VSA-0>
97.705536

>  <PEOE_VSA-1>
49.019615

>  <PEOE_VSA-2>
19.760618

>  <PEOE_VSA-3>
0

>  <PEOE_VSA-4>
0

>  <PEOE_VSA-5>
27.133842

>  <PEOE_VSA-6>
5.0075121

>  <PEOE_VSA_FHYD>
0.86163759

>  <PEOE_VSA_FNEG>
0.45957884

>  <PEOE_VSA_FPNEG>
0.074367926

>  <PEOE_VSA_FPOL>
0.13836244

>  <PEOE_VSA_FPOS>
0.54042113

>  <PEOE_VSA_FPPOS>
0.063994512

>  <PEOE_VSA_HYD>
372.39441

>  <PEOE_VSA_NEG>
198.62712

>  <PEOE_VSA_PNEG>
32.141354

>  <PEOE_VSA_POL>
59.799385

>  <PEOE_VSA_POS>
233.56667

>  <PEOE_VSA_PPOS>
27.65803

>  <petitjean>
0.46153846

>  <petitjeanSC>
0.85714287

>  <Q_PC+>
0

>  <Q_PC->
0

>  <Q_RPC+>
0

>  <Q_RPC->
0

>  <Q_VSA_FHYD>
1

>  <Q_VSA_FNEG>
0

>  <Q_VSA_FPNEG>
0

>  <Q_VSA_FPOL>
0

>  <Q_VSA_FPOS>
1

>  <Q_VSA_FPPOS>
0

>  <Q_VSA_HYD>
432.19379

>  <Q_VSA_NEG>
0

>  <Q_VSA_PNEG>
0

>  <Q_VSA_POL>
0

>  <Q_VSA_POS>
432.19379

>  <Q_VSA_PPOS>
0

>  <radius>
7

>  <reactive>
0

>  <rings>
3

>  <RPC+>
0

>  <RPC->
0

>  <rsynth>
1

>  <SlogP>
3.464

>  <SlogP_VSA0>
14.124202

>  <SlogP_VSA1>
16.128561

>  <SlogP_VSA2>
65.19297

>  <SlogP_VSA3>
36.879158

>  <SlogP_VSA4>
3.185575

>  <SlogP_VSA5>
102.72897

>  <SlogP_VSA6>
0

>  <SlogP_VSA7>
141.14548

>  <SlogP_VSA8>
2.7759552

>  <SlogP_VSA9>
73.545731

>  <SMR>
11.4607

>  <SMR_VSA0>
58.724319

>  <SMR_VSA1>
14.124202

>  <SMR_VSA2>
4.6750479

>  <SMR_VSA3>
17.673607

>  <SMR_VSA4>
2.7567475

>  <SMR_VSA5>
141.14548

>  <SMR_VSA6>
49.883404

>  <SMR_VSA7>
166.7238

>  <TPSA>
59.080002

>  <VAdjEq>
0.3796615

>  <VAdjMa>
5.9541965

>  <VDistEq>
3.3409369

>  <VDistMa>
9.4697104

>  <vdw_area>
432.19379

>  <vdw_vol>
556.10864

>  <vsa_acc>
29.637598

>  <vsa_acid>
0

>  <vsa_base>
0

>  <vsa_don>
0

>  <vsa_hyd>
353.88773

>  <vsa_other>
30.161787

>  <vsa_pol>
29.637598

>  <Weight>
414.526

>  <weinerPath>
2077

>  <weinerPol>
50

>  <zagreb>
148

$$$$