O=C1c2c(cccc2)C(=O)C1C(=O)C(c1ccccc1)c1ccccc1
  MOE2013           2D

 26 29  0  0  0  0  0  0  0  0999 V2000
    0.0000    0.0000    0.0000 O   0  0  0  0  0  0  0  0  0  0  0  0
   -0.9800   -1.1350    0.0000 C   0  0  0  0  0  0  0  0  0  0  0  0
   -2.4750   -1.0100    0.0000 C   0  0  0  0  0  0  0  0  0  0  0  0
   -3.0560   -2.3930    0.0000 C   0  0  0  0  0  0  0  0  0  0  0  0
   -4.5450   -2.5800    0.0000 C   0  0  0  0  0  0  0  0  0  0  0  0
   -5.4510   -1.3860    0.0000 C   0  0  0  0  0  0  0  0  0  0  0  0
   -4.8700   -0.0030    0.0000 C   0  0  0  0  0  0  0  0  0  0  0  0
   -3.3820    0.1850    0.0000 C   0  0  0  0  0  0  0  0  0  0  0  0
   -1.9210   -3.3730    0.0000 C   0  0  0  0  0  0  0  0  0  0  0  0
   -2.5500   -4.7340    0.0000 O   0  0  0  0  0  0  0  0  0  0  0  0
   -0.6380   -2.5960    0.0000 C   0  0  0  0  0  0  0  0  0  0  0  0
    0.4630   -3.6150    0.0000 C   0  0  0  0  0  0  0  0  0  0  0  0
    0.1300   -5.0780    0.0000 O   0  0  0  0  0  0  0  0  0  0  0  0
    1.8960   -3.1720    0.0000 C   0  0  0  0  0  0  0  0  0  0  0  0
    2.2280   -1.7090    0.0000 C   0  0  0  0  0  0  0  0  0  0  0  0
    1.5430   -0.3750    0.0000 C   0  0  0  0  0  0  0  0  0  0  0  0
    2.3550    0.8860    0.0000 C   0  0  0  0  0  0  0  0  0  0  0  0
    3.8530    0.8130    0.0000 C   0  0  0  0  0  0  0  0  0  0  0  0
    4.5390   -0.5220    0.0000 C   0  0  0  0  0  0  0  0  0  0  0  0
    3.7260   -1.7820    0.0000 C   0  0  0  0  0  0  0  0  0  0  0  0
    2.9960   -4.1910    0.0000 C   0  0  0  0  0  0  0  0  0  0  0  0
    4.4290   -3.7470    0.0000 C   0  0  0  0  0  0  0  0  0  0  0  0
    5.5300   -4.7670    0.0000 C   0  0  0  0  0  0  0  0  0  0  0  0
    5.1970   -6.2290    0.0000 C   0  0  0  0  0  0  0  0  0  0  0  0
    3.7640   -6.6730    0.0000 C   0  0  0  0  0  0  0  0  0  0  0  0
    2.6640   -5.6540    0.0000 C   0  0  0  0  0  0  0  0  0  0  0  0
  1  2  2  0  0  0  0
  2  3  1  0  0  0  0
  2 11  1  0  0  0  0
  3  4  1  0  0  0  0
  3  8  2  0  0  0  0
  4  5  2  0  0  0  0
  4  9  1  0  0  0  0
  5  6  1  0  0  0  0
  6  7  2  0  0  0  0
  7  8  1  0  0  0  0
  9 10  2  0  0  0  0
  9 11  1  0  0  0  0
 11 12  1  0  0  0  0
 12 13  2  0  0  0  0
 12 14  1  0  0  0  0
 14 15  1  0  0  0  0
 14 21  1  0  0  0  0
 15 16  1  0  0  0  0
 15 20  2  0  0  0  0
 16 17  2  0  0  0  0
 17 18  1  0  0  0  0
 18 19  2  0  0  0  0
 19 20  1  0  0  0  0
 21 22  1  0  0  0  0
 21 26  2  0  0  0  0
 22 23  2  0  0  0  0
 23 24  1  0  0  0  0
 24 25  2  0  0  0  0
 25 26  1  0  0  0  0
M  END
>  <Index>
333

>  <ID>
HT0686

>  <class>
0

>  <apol>
53.554688

>  <ast_fraglike>
0

>  <ast_fraglike_ext>
0

>  <ast_violation>
2

>  <ast_violation_ext>
3

>  <a_acc>
3

>  <a_acid>
0

>  <a_aro>
18

>  <a_base>
0

>  <a_count>
42

>  <a_don>
0

>  <a_donacc>
3

>  <a_heavy>
26

>  <a_hyd>
20

>  <a_IC>
53.680519

>  <a_ICM>
1.2781076

>  <a_nB>
0

>  <a_nBr>
0

>  <a_nC>
23

>  <a_nCl>
0

>  <a_nF>
0

>  <a_nH>
16

>  <a_nI>
0

>  <a_nN>
0

>  <a_nO>
3

>  <a_nP>
0

>  <a_nS>
0

>  <balabanJ>
1.5568303

>  <BCUT_PEOE_0>
-2.4103324

>  <BCUT_PEOE_1>
-0.64922494

>  <BCUT_PEOE_2>
0.69744855

>  <BCUT_PEOE_3>
2.5973806

>  <BCUT_SLOGP_0>
-2.4747589

>  <BCUT_SLOGP_1>
-0.53807992

>  <BCUT_SLOGP_2>
0.76749754

>  <BCUT_SLOGP_3>
2.533716

>  <BCUT_SMR_0>
-2.1404717

>  <BCUT_SMR_1>
-0.49303889

>  <BCUT_SMR_2>
0.85431087

>  <BCUT_SMR_3>
2.8510551

>  <bpol>
20.365313

>  <b_1rotN>
4

>  <b_1rotR>
0.13793103

>  <b_ar>
18

>  <b_count>
45

>  <b_double>
3

>  <b_heavy>
29

>  <b_max1len>
4

>  <b_rotN>
4

>  <b_rotR>
0.13793103

>  <b_single>
24

>  <b_triple>
0

>  <chi0>
18.095648

>  <chi0v>
13.962349

>  <chi0v_C>
12.737604

>  <chi0_C>
15.095648

>  <chi1>
12.68154

>  <chi1v>
8.4931412

>  <chi1v_C>
7.8807683

>  <chi1_C>
10.94949

>  <chiral>
0

>  <chiral_u>
0

>  <density>
0.72327906

>  <diameter>
10

>  <FCharge>
0

>  <GCUT_PEOE_0>
-0.75821

>  <GCUT_PEOE_1>
-0.40241981

>  <GCUT_PEOE_2>
0.079350889

>  <GCUT_PEOE_3>
2.6790242

>  <GCUT_SLOGP_0>
-0.86975527

>  <GCUT_SLOGP_1>
-0.2926622

>  <GCUT_SLOGP_2>
0.15514676

>  <GCUT_SLOGP_3>
2.735055

>  <GCUT_SMR_0>
-0.44200757

>  <GCUT_SMR_1>
-0.21605732

>  <GCUT_SMR_2>
0.19305076

>  <GCUT_SMR_3>
2.9630508

>  <Kier1>
19.322235

>  <Kier2>
8.56633

>  <Kier3>
3.8058028

>  <KierA1>
12.814275

>  <KierA2>
5.5788655

>  <KierA3>
2.4464571

>  <KierFlex>
2.7495813

>  <lip_acc>
3

>  <lip_don>
0

>  <lip_druglike>
1

>  <lip_violation>
0

>  <logP(o/w)>
4.027

>  <logS>
-5.7031999

>  <mr>
10.097192

>  <mutagenic>
0

>  <nmol>
1

>  <opr_brigid>
22

>  <opr_leadlike>
1

>  <opr_nring>
4

>  <opr_nrot>
4

>  <opr_violation>
0

>  <PC+>
0

>  <PC->
0

>  <PEOE_PC+>
1.7653542

>  <PEOE_PC->
-1.7653542

>  <PEOE_RPC+>
0.10283915

>  <PEOE_RPC->
0.16721469

>  <PEOE_VSA+0>
8.6824656

>  <PEOE_VSA+1>
63.980789

>  <PEOE_VSA+2>
0

>  <PEOE_VSA+3>
25.375559

>  <PEOE_VSA+4>
0

>  <PEOE_VSA+5>
0

>  <PEOE_VSA+6>
0

>  <PEOE_VSA-0>
4.4170794

>  <PEOE_VSA-1>
171.56865

>  <PEOE_VSA-2>
0

>  <PEOE_VSA-3>
0

>  <PEOE_VSA-4>
0

>  <PEOE_VSA-5>
40.700764

>  <PEOE_VSA-6>
0

>  <PEOE_VSA_FHYD>
0.87067848

>  <PEOE_VSA_FNEG>
0.68849403

>  <PEOE_VSA_FPNEG>
0.12932155

>  <PEOE_VSA_FPOL>
0.12932155

>  <PEOE_VSA_FPOS>
0.31150597

>  <PEOE_VSA_FPPOS>
0

>  <PEOE_VSA_HYD>
274.02454

>  <PEOE_VSA_NEG>
216.68649

>  <PEOE_VSA_PNEG>
40.700764

>  <PEOE_VSA_POL>
40.700764

>  <PEOE_VSA_POS>
98.038811

>  <PEOE_VSA_PPOS>
0

>  <petitjean>
0.5

>  <petitjeanSC>
1

>  <Q_PC+>
0

>  <Q_PC->
0

>  <Q_RPC+>
0

>  <Q_RPC->
0

>  <Q_VSA_FHYD>
1

>  <Q_VSA_FNEG>
0

>  <Q_VSA_FPNEG>
0

>  <Q_VSA_FPOL>
0

>  <Q_VSA_FPOS>
1

>  <Q_VSA_FPPOS>
0

>  <Q_VSA_HYD>
314.72531

>  <Q_VSA_NEG>
0

>  <Q_VSA_PNEG>
0

>  <Q_VSA_POL>
0

>  <Q_VSA_POS>
314.72531

>  <Q_VSA_PPOS>
0

>  <radius>
5

>  <reactive>
1

>  <rings>
4

>  <RPC+>
0

>  <RPC->
0

>  <rsynth>
1

>  <SlogP>
4.0830002

>  <SlogP_VSA0>
0

>  <SlogP_VSA1>
17.062834

>  <SlogP_VSA2>
23.862217

>  <SlogP_VSA3>
0

>  <SlogP_VSA4>
64.877525

>  <SlogP_VSA5>
0

>  <SlogP_VSA6>
4.4107962

>  <SlogP_VSA7>
247.00458

>  <SlogP_VSA8>
0

>  <SlogP_VSA9>
0

>  <SMR>
9.8326998

>  <SMR_VSA0>
71.586647

>  <SMR_VSA1>
0

>  <SMR_VSA2>
4.4107962

>  <SMR_VSA3>
17.153095

>  <SMR_VSA4>
0

>  <SMR_VSA5>
247.00458

>  <SMR_VSA6>
17.062834

>  <SMR_VSA7>
0

>  <TPSA>
51.209999

>  <VAdjEq>
0.42228913

>  <VAdjMa>
5.8579812

>  <VDistEq>
3.1490002

>  <VDistMa>
9.155097

>  <vdw_area>
314.72531

>  <vdw_vol>
470.60397

>  <vsa_acc>
40.700764

>  <vsa_acid>
0

>  <vsa_base>
0

>  <vsa_don>
0

>  <vsa_hyd>
234.57016

>  <vsa_other>
25.375559

>  <vsa_pol>
40.700764

>  <Weight>
340.37799

>  <weinerPath>
1510

>  <weinerPol>
45

>  <zagreb>
140

$$$$