Clc1cc2c(NC(O[C@]2(C#CC2CC2)C(F)(F)F)=O)cc1
  MOE2013           2D

 21 23  0  0  1  0  0  0  0  0999 V2000
    0.0000    0.0000    0.0000 Cl  0  0  0  0  0  0  0  0  0  0  0  0
   -1.2930   -0.7600    0.0000 C   0  0  0  0  0  0  0  0  0  0  0  0
   -1.2820   -2.2600    0.0000 C   0  0  0  0  0  0  0  0  0  0  0  0
   -2.5750   -3.0200    0.0000 C   0  0  0  0  0  0  0  0  0  0  0  0
   -3.8800   -2.2800    0.0000 C   0  0  0  0  0  0  0  0  0  0  0  0
   -5.1730   -3.0400    0.0000 N   0  0  0  0  0  0  0  0  0  0  0  0
   -5.1610   -4.5400    0.0000 C   0  0  0  0  0  0  0  0  0  0  0  0
   -3.8560   -5.2800    0.0000 O   0  0  0  0  0  0  0  0  0  0  0  0
   -2.5630   -4.5200    0.0000 C   0  0  1  0  0  0  0  0  0  0  0  0
   -1.0630   -4.5080    0.0000 C   0  0  0  0  0  0  0  0  0  0  0  0
    0.4370   -4.4970    0.0000 C   0  0  0  0  0  0  0  0  0  0  0  0
    1.9370   -4.4850    0.0000 C   0  0  0  0  0  0  0  0  0  0  0  0
    3.2420   -5.2250    0.0000 C   0  0  0  0  0  0  0  0  0  0  0  0
    3.2300   -3.7250    0.0000 C   0  0  0  0  0  0  0  0  0  0  0  0
   -1.8030   -5.8130    0.0000 C   0  0  0  0  0  0  0  0  0  0  0  0
   -0.5100   -5.0530    0.0000 F   0  0  0  0  0  0  0  0  0  0  0  0
   -3.0960   -6.5730    0.0000 F   0  0  0  0  0  0  0  0  0  0  0  0
   -1.0430   -7.1060    0.0000 F   0  0  0  0  0  0  0  0  0  0  0  0
   -6.4540   -5.3000    0.0000 O   0  0  0  0  0  0  0  0  0  0  0  0
   -3.8910   -0.7800    0.0000 C   0  0  0  0  0  0  0  0  0  0  0  0
   -2.5980   -0.0200    0.0000 C   0  0  0  0  0  0  0  0  0  0  0  0
  1  2  1  0  0  0  0
  2  3  1  0  0  0  0
  2 21  2  0  0  0  0
  3  4  2  0  0  0  0
  4  5  1  0  0  0  0
  4  9  1  0  0  0  0
  5  6  1  0  0  0  0
  5 20  2  0  0  0  0
  6  7  1  0  0  0  0
  7  8  1  0  0  0  0
  7 19  2  0  0  0  0
  8  9  1  0  0  0  0
  9 10  1  6  0  0  0
  9 15  1  1  0  0  0
 10 11  3  0  0  0  0
 11 12  1  0  0  0  0
 12 13  1  0  0  0  0
 12 14  1  0  0  0  0
 13 14  1  0  0  0  0
 15 16  1  0  0  0  0
 15 17  1  0  0  0  0
 15 18  1  0  0  0  0
 20 21  1  0  0  0  0
M  END
>  <Index>
366

>  <ID>
HT0746

>  <class>
0

>  <apol>
37.196136

>  <ast_fraglike>
0

>  <ast_fraglike_ext>
0

>  <ast_violation>
2

>  <ast_violation_ext>
2

>  <a_acc>
1

>  <a_acid>
0

>  <a_aro>
6

>  <a_base>
0

>  <a_count>
30

>  <a_don>
1

>  <a_donacc>
2

>  <a_heavy>
21

>  <a_hyd>
17

>  <a_IC>
58.619537

>  <a_ICM>
1.9539845

>  <a_nB>
0

>  <a_nBr>
0

>  <a_nC>
14

>  <a_nCl>
1

>  <a_nF>
3

>  <a_nH>
9

>  <a_nI>
0

>  <a_nN>
1

>  <a_nO>
2

>  <a_nP>
0

>  <a_nS>
0

>  <balabanJ>
1.8878354

>  <BCUT_PEOE_0>
-2.4102862

>  <BCUT_PEOE_1>
-0.58709878

>  <BCUT_PEOE_2>
0.61369461

>  <BCUT_PEOE_3>
2.7286608

>  <BCUT_SLOGP_0>
-2.4588118

>  <BCUT_SLOGP_1>
-0.37684977

>  <BCUT_SLOGP_2>
0.82740438

>  <BCUT_SLOGP_3>
2.8367441

>  <BCUT_SMR_0>
-2.20874

>  <BCUT_SMR_1>
-0.3259837

>  <BCUT_SMR_2>
0.86969155

>  <BCUT_SMR_3>
2.9702547

>  <bpol>
17.401863

>  <b_1rotN>
2

>  <b_1rotR>
0.086956523

>  <b_ar>
6

>  <b_count>
32

>  <b_double>
1

>  <b_heavy>
23

>  <b_max1len>
3

>  <b_rotN>
3

>  <b_rotR>
0.13043478

>  <b_single>
24

>  <b_triple>
1

>  <chi0>
15.250712

>  <chi0v>
11.307899

>  <chi0v_C>
7.7236147

>  <chi0_C>
8.8364992

>  <chi1>
9.8162985

>  <chi1v>
6.5894713

>  <chi1v_C>
4.3432055

>  <chi1_C>
5.5833001

>  <chiral>
1

>  <chiral_u>
0

>  <density>
0.93335712

>  <diameter>
8

>  <FCharge>
0

>  <GCUT_PEOE_0>
-0.78637546

>  <GCUT_PEOE_1>
-0.41251838

>  <GCUT_PEOE_2>
0.054940633

>  <GCUT_PEOE_3>
2.4778147

>  <GCUT_SLOGP_0>
-0.99365526

>  <GCUT_SLOGP_1>
-0.28378189

>  <GCUT_SLOGP_2>
0.26983789

>  <GCUT_SLOGP_3>
2.5680554

>  <GCUT_SMR_0>
-0.49235034

>  <GCUT_SMR_1>
-0.16766736

>  <GCUT_SMR_2>
0.27251366

>  <GCUT_SMR_3>
2.7264199

>  <Kier1>
15.879017

>  <Kier2>
5.5709877

>  <Kier3>
2.8125

>  <KierA1>
12.796671

>  <KierA2>
4.4377546

>  <KierA3>
2.2204711

>  <KierFlex>
2.7042136

>  <lip_acc>
3

>  <lip_don>
1

>  <lip_druglike>
1

>  <lip_violation>
0

>  <logP(o/w)>
4.1027598

>  <logS>
-5.78092

>  <mr>
7.0707598

>  <mutagenic>
0

>  <nmol>
1

>  <opr_brigid>
15

>  <opr_leadlike>
1

>  <opr_nring>
3

>  <opr_nrot>
2

>  <opr_violation>
0

>  <PC+>
0

>  <PC->
0

>  <PEOE_PC+>
1.7228861

>  <PEOE_PC->
-1.7228861

>  <PEOE_RPC+>
0.25238311

>  <PEOE_RPC->
0.17505245

>  <PEOE_VSA+0>
28.055216

>  <PEOE_VSA+1>
19.495708

>  <PEOE_VSA+2>
0

>  <PEOE_VSA+3>
8.6190128

>  <PEOE_VSA+4>
0

>  <PEOE_VSA+5>
0

>  <PEOE_VSA+6>
28.245012

>  <PEOE_VSA-0>
54.167339

>  <PEOE_VSA-1>
61.198936

>  <PEOE_VSA-2>
0

>  <PEOE_VSA-3>
35.725906

>  <PEOE_VSA-4>
13.566921

>  <PEOE_VSA-5>
2.503756

>  <PEOE_VSA-6>
0.13689101

>  <PEOE_VSA_FHYD>
0.82340091

>  <PEOE_VSA_FNEG>
0.66464037

>  <PEOE_VSA_FPNEG>
0.06438864

>  <PEOE_VSA_FPOL>
0.17659907

>  <PEOE_VSA_FPOS>
0.33535963

>  <PEOE_VSA_FPPOS>
0.11221042

>  <PEOE_VSA_HYD>
207.26212

>  <PEOE_VSA_NEG>
167.29974

>  <PEOE_VSA_PNEG>
16.207567

>  <PEOE_VSA_POL>
44.452579

>  <PEOE_VSA_POS>
84.414948

>  <PEOE_VSA_PPOS>
28.245012

>  <petitjean>
0.5

>  <petitjeanSC>
1

>  <Q_PC+>
0

>  <Q_PC->
0

>  <Q_RPC+>
0

>  <Q_RPC->
0

>  <Q_VSA_FHYD>
1

>  <Q_VSA_FNEG>
0

>  <Q_VSA_FPNEG>
0

>  <Q_VSA_FPOL>
0

>  <Q_VSA_FPOS>
1

>  <Q_VSA_FPPOS>
0

>  <Q_VSA_HYD>
251.71471

>  <Q_VSA_NEG>
0

>  <Q_VSA_PNEG>
0

>  <Q_VSA_POL>
0

>  <Q_VSA_POS>
251.71471

>  <Q_VSA_PPOS>
0

>  <radius>
4

>  <reactive>
0

>  <rings>
3

>  <RPC+>
0

>  <RPC->
0

>  <rsynth>
1

>  <SlogP>
4.3846078

>  <SlogP_VSA0>
0

>  <SlogP_VSA1>
33.086903

>  <SlogP_VSA2>
10.999887

>  <SlogP_VSA3>
34.061146

>  <SlogP_VSA4>
7.5963712

>  <SlogP_VSA5>
0

>  <SlogP_VSA6>
3.5006065

>  <SlogP_VSA7>
52.929554

>  <SlogP_VSA8>
37.736813

>  <SlogP_VSA9>
110.64795

>  <SMR>
6.9905701

>  <SMR_VSA0>
34.862103

>  <SMR_VSA1>
44.880341

>  <SMR_VSA2>
12.170312

>  <SMR_VSA3>
40.74733

>  <SMR_VSA4>
20.767498

>  <SMR_VSA5>
90.666367

>  <SMR_VSA6>
7.3166366

>  <SMR_VSA7>
39.148643

>  <TPSA>
38.330002

>  <VAdjEq>
0.48250595

>  <VAdjMa>
5.523562

>  <VDistEq>
2.8077486

>  <VDistMa>
8.5467377

>  <vdw_area>
251.71471

>  <vdw_vol>
338.2178

>  <vsa_acc>
13.566921

>  <vsa_acid>
0

>  <vsa_base>
0

>  <vsa_don>
5.6825762

>  <vsa_hyd>
200.6492

>  <vsa_other>
21.703266

>  <vsa_pol>
19.249496

>  <Weight>
315.67798

>  <weinerPath>
807

>  <weinerPol>
37

>  <zagreb>
118

$$$$