P(O)(O)(=O)C(P(O)(O)=O)(O)CCCN
  MOE2013           2D

 14 13  0  0  0  0  0  0  0  0999 V2000
    0.0000    0.0000    0.0000 P   0  0  0  0  0  0  0  0  0  0  0  0
    1.2970   -0.7540    0.0000 O   0  0  0  0  0  0  0  0  0  0  0  0
   -1.2970    0.7540    0.0000 O   0  0  0  0  0  0  0  0  0  0  0  0
   -0.7540   -1.2970    0.0000 O   0  0  0  0  0  0  0  0  0  0  0  0
    0.7540    1.2970    0.0000 C   0  0  0  0  0  0  0  0  0  0  0  0
    1.5080    2.5940    0.0000 P   0  0  0  0  0  0  0  0  0  0  0  0
    2.2620    3.8900    0.0000 O   0  0  0  0  0  0  0  0  0  0  0  0
    0.2110    3.3470    0.0000 O   0  0  0  0  0  0  0  0  0  0  0  0
    2.8050    1.8400    0.0000 O   0  0  0  0  0  0  0  0  0  0  0  0
   -0.5430    2.0510    0.0000 O   0  0  0  0  0  0  0  0  0  0  0  0
    2.0510    0.5430    0.0000 C   0  0  0  0  0  0  0  0  0  0  0  0
    3.3520    1.2890    0.0000 C   0  0  0  0  0  0  0  0  0  0  0  0
    4.6490    0.5350    0.0000 C   0  0  0  0  0  0  0  0  0  0  0  0
    5.9500    1.2810    0.0000 N   0  0  0  0  0  0  0  0  0  0  0  0
  1  2  1  0  0  0  0
  1  3  1  0  0  0  0
  1  4  2  0  0  0  0
  1  5  1  0  0  0  0
  5  6  1  0  0  0  0
  5 10  1  0  0  0  0
  5 11  1  0  0  0  0
  6  7  1  0  0  0  0
  6  8  1  0  0  0  0
  6  9  2  0  0  0  0
 11 12  1  0  0  0  0
 12 13  1  0  0  0  0
 13 14  1  0  0  0  0
M  END
>  <Index>
38

>  <ID>
HT0094

>  <class>
0

>  <apol>
29.682308

>  <ast_fraglike>
0

>  <ast_fraglike_ext>
0

>  <ast_violation>
2

>  <ast_violation_ext>
4

>  <a_acc>
8

>  <a_acid>
0

>  <a_aro>
0

>  <a_base>
0

>  <a_count>
27

>  <a_don>
8

>  <a_donacc>
16

>  <a_heavy>
14

>  <a_hyd>
4

>  <a_IC>
50.624763

>  <a_ICM>
1.8749912

>  <a_nB>
0

>  <a_nBr>
0

>  <a_nC>
4

>  <a_nCl>
0

>  <a_nF>
0

>  <a_nH>
13

>  <a_nI>
0

>  <a_nN>
1

>  <a_nO>
7

>  <a_nP>
2

>  <a_nS>
0

>  <balabanJ>
4.8737855

>  <BCUT_PEOE_0>
-2.6045997

>  <BCUT_PEOE_1>
-0.6946153

>  <BCUT_PEOE_2>
0.72764653

>  <BCUT_PEOE_3>
2.8304436

>  <BCUT_SLOGP_0>
-2.7086504

>  <BCUT_SLOGP_1>
-1.2129794

>  <BCUT_SLOGP_2>
0.48919466

>  <BCUT_SLOGP_3>
2.8524027

>  <BCUT_SMR_0>
-2.4051628

>  <BCUT_SMR_1>
-0.54677093

>  <BCUT_SMR_2>
0.83503067

>  <BCUT_SMR_3>
3.0173628

>  <bpol>
30.427691

>  <b_1rotN>
5

>  <b_1rotR>
0.38461539

>  <b_ar>
0

>  <b_count>
26

>  <b_double>
0

>  <b_heavy>
13

>  <b_max1len>
8

>  <b_rotN>
5

>  <b_rotR>
0.38461539

>  <b_single>
26

>  <b_triple>
0

>  <chi0>
11.621321

>  <chi0v>
8.9345169

>  <chi0v_C>
2.6213202

>  <chi0_C>
2.6213202

>  <chi1>
6.0606604

>  <chi1v>
6.8224945

>  <chi1v_C>
1.3535534

>  <chi1_C>
1.3535534

>  <chiral>
0

>  <chiral_u>
0

>  <density>
1.0340708

>  <diameter>
6

>  <FCharge>
0

>  <GCUT_PEOE_0>
-0.84052843

>  <GCUT_PEOE_1>
-0.44166055

>  <GCUT_PEOE_2>
0.17957754

>  <GCUT_PEOE_3>
2.4968963

>  <GCUT_SLOGP_0>
-1.3634253

>  <GCUT_SLOGP_1>
-0.65023565

>  <GCUT_SLOGP_2>
0.0067596338

>  <GCUT_SLOGP_3>
2.5089576

>  <GCUT_SMR_0>
-0.52251995

>  <GCUT_SMR_1>
-0.24680202

>  <GCUT_SMR_2>
0.26981887

>  <GCUT_SMR_3>
2.6939368

>  <Kier1>
14

>  <Kier2>
4.2448978

>  <Kier3>
2.994329

>  <KierA1>
17.720049

>  <KierA2>
5.4724298

>  <KierA3>
3.9144378

>  <KierFlex>
6.9265513

>  <lip_acc>
8

>  <lip_don>
7

>  <lip_druglike>
1

>  <lip_violation>
1

>  <logP(o/w)>
-3.425

>  <logS>
1.74422

>  <mr>
5.0083604

>  <mutagenic>
0

>  <nmol>
1

>  <opr_brigid>
0

>  <opr_leadlike>
1

>  <opr_nring>
0

>  <opr_nrot>
5

>  <opr_violation>
1

>  <PC+>
0

>  <PC->
0

>  <PEOE_PC+>
2.4190714

>  <PEOE_PC->
-2.4190714

>  <PEOE_RPC+>
0.14754954

>  <PEOE_RPC->
0.13796534

>  <PEOE_VSA+0>
25.592316

>  <PEOE_VSA+1>
8.701313

>  <PEOE_VSA+2>
58.534718

>  <PEOE_VSA+3>
0

>  <PEOE_VSA+4>
10.324173

>  <PEOE_VSA+5>
0

>  <PEOE_VSA+6>
27.333998

>  <PEOE_VSA-0>
21.893639

>  <PEOE_VSA-1>
0

>  <PEOE_VSA-2>
0

>  <PEOE_VSA-3>
0

>  <PEOE_VSA-4>
31.458273

>  <PEOE_VSA-5>
0

>  <PEOE_VSA-6>
54.137684

>  <PEOE_VSA_FHYD>
0.48207355

>  <PEOE_VSA_FNEG>
0.4516823

>  <PEOE_VSA_FPNEG>
0.35968298

>  <PEOE_VSA_FPOL>
0.51792645

>  <PEOE_VSA_FPOS>
0.54831773

>  <PEOE_VSA_FPPOS>
0.15824349

>  <PEOE_VSA_HYD>
114.72198

>  <PEOE_VSA_NEG>
107.48959

>  <PEOE_VSA_PNEG>
85.595955

>  <PEOE_VSA_POL>
123.25413

>  <PEOE_VSA_POS>
130.48651

>  <PEOE_VSA_PPOS>
37.658169

>  <petitjean>
0.5

>  <petitjeanSC>
1

>  <Q_PC+>
0

>  <Q_PC->
0

>  <Q_RPC+>
0

>  <Q_RPC->
0

>  <Q_VSA_FHYD>
1

>  <Q_VSA_FNEG>
0

>  <Q_VSA_FPNEG>
0

>  <Q_VSA_FPOL>
0

>  <Q_VSA_FPOS>
1

>  <Q_VSA_FPPOS>
0

>  <Q_VSA_HYD>
237.9761

>  <Q_VSA_NEG>
0

>  <Q_VSA_PNEG>
0

>  <Q_VSA_POL>
0

>  <Q_VSA_POS>
237.9761

>  <Q_VSA_PPOS>
0

>  <radius>
3

>  <reactive>
1

>  <rings>
0

>  <RPC+>
0

>  <RPC->
0

>  <rsynth>
1

>  <SlogP>
-3.4136

>  <SlogP_VSA0>
188.37782

>  <SlogP_VSA1>
0

>  <SlogP_VSA2>
0

>  <SlogP_VSA3>
18.439579

>  <SlogP_VSA4>
0

>  <SlogP_VSA5>
0

>  <SlogP_VSA6>
0

>  <SlogP_VSA7>
0

>  <SlogP_VSA8>
37.736813

>  <SlogP_VSA9>
29.598944

>  <SMR>
4.5953398

>  <SMR_VSA0>
44.867531

>  <SMR_VSA1>
110.6131

>  <SMR_VSA2>
0

>  <SMR_VSA3>
0

>  <SMR_VSA4>
32.897186

>  <SMR_VSA5>
37.736813

>  <SMR_VSA6>
18.439579

>  <SMR_VSA7>
29.598944

>  <TPSA>
161.31

>  <VAdjEq>
0.56466961

>  <VAdjMa>
4.7004399

>  <VDistEq>
2.4513547

>  <VDistMa>
7.3518362

>  <vdw_area>
237.9761

>  <vdw_vol>
240.88872

>  <vsa_acc>
0

>  <vsa_acid>
0

>  <vsa_base>
0

>  <vsa_don>
0

>  <vsa_hyd>
51.916496

>  <vsa_other>
27.333998

>  <vsa_pol>
125.68423

>  <Weight>
249.09599

>  <weinerPath>
281

>  <weinerPol>
23

>  <zagreb>
68

$$$$