Fc1ccc(cc1)-c1cc(nc(C(C)C)c1C=CC1OC(=O)CC(O)C1)-c1ccccc1
  MOE2013           2D

 32 35  0  0  1  0  0  0  0  0999 V2000
    0.0000    0.0000    0.0000 F   0  0  0  0  0  0  0  0  0  0  0  0
   -0.7490   -1.2990    0.0000 C   0  0  0  0  0  0  0  0  0  0  0  0
   -2.2490   -1.3000    0.0000 C   0  0  0  0  0  0  0  0  0  0  0  0
   -2.9990   -2.6000    0.0000 C   0  0  0  0  0  0  0  0  0  0  0  0
   -2.2480   -3.8980    0.0000 C   0  0  0  0  0  0  0  0  0  0  0  0
   -0.7480   -3.8980    0.0000 C   0  0  0  0  0  0  0  0  0  0  0  0
    0.0010   -2.5980    0.0000 C   0  0  0  0  0  0  0  0  0  0  0  0
   -2.9970   -5.1980    0.0000 C   0  0  0  0  0  0  0  0  0  0  0  0
   -4.4970   -5.1990    0.0000 C   0  0  0  0  0  0  0  0  0  0  0  0
   -5.2460   -6.4980    0.0000 C   0  0  0  0  0  0  0  0  0  0  0  0
   -4.4960   -7.7970    0.0000 N   0  0  0  0  0  0  0  0  0  0  0  0
   -2.9960   -7.7960    0.0000 C   0  0  0  0  0  0  0  0  0  0  0  0
   -2.2450   -9.0950    0.0000 C   0  0  0  0  0  0  0  0  0  0  0  0
   -0.7450   -9.0940    0.0000 C   0  0  0  0  0  0  0  0  0  0  0  0
   -2.9940  -10.3940    0.0000 C   0  0  0  0  0  0  0  0  0  0  0  0
   -2.2460   -6.4960    0.0000 C   0  0  0  0  0  0  0  0  0  0  0  0
   -0.7460   -6.4960    0.0000 C   0  0  0  0  0  0  0  0  0  0  0  0
    0.0040   -7.7940    0.0000 C   0  0  0  0  0  0  0  0  0  0  0  0
    1.5040   -7.7930    0.0000 C   0  0  3  0  0  0  0  0  0  0  0  0
    2.2550   -9.0920    0.0000 O   0  0  0  0  0  0  0  0  0  0  0  0
    3.7550   -9.0910    0.0000 C   0  0  0  0  0  0  0  0  0  0  0  0
    4.5060  -10.3900    0.0000 O   0  0  0  0  0  0  0  0  0  0  0  0
    4.5040   -7.7920    0.0000 C   0  0  0  0  0  0  0  0  0  0  0  0
    3.7540   -6.4930    0.0000 C   0  0  3  0  0  0  0  0  0  0  0  0
    4.5030   -5.1940    0.0000 O   0  0  0  0  0  0  0  0  0  0  0  0
    2.2540   -6.4940    0.0000 C   0  0  0  0  0  0  0  0  0  0  0  0
   -6.7460   -6.4990    0.0000 C   0  0  0  0  0  0  0  0  0  0  0  0
   -7.4960   -7.7990    0.0000 C   0  0  0  0  0  0  0  0  0  0  0  0
   -8.9960   -7.7990    0.0000 C   0  0  0  0  0  0  0  0  0  0  0  0
   -9.7460   -6.5010    0.0000 C   0  0  0  0  0  0  0  0  0  0  0  0
   -8.9970   -5.2010    0.0000 C   0  0  0  0  0  0  0  0  0  0  0  0
   -7.4970   -5.2000    0.0000 C   0  0  0  0  0  0  0  0  0  0  0  0
  1  2  1  0  0  0  0
  2  3  1  0  0  0  0
  2  7  2  0  0  0  0
  3  4  2  0  0  0  0
  4  5  1  0  0  0  0
  5  6  2  0  0  0  0
  5  8  1  0  0  0  0
  6  7  1  0  0  0  0
  8  9  1  0  0  0  0
  8 16  2  0  0  0  0
  9 10  2  0  0  0  0
 10 11  1  0  0  0  0
 10 27  1  0  0  0  0
 11 12  2  0  0  0  0
 12 13  1  0  0  0  0
 12 16  1  0  0  0  0
 13 14  1  0  0  0  0
 13 15  1  0  0  0  0
 16 17  1  0  0  0  0
 17 18  2  3  0  0  0
 18 19  1  0  0  0  0
 19 20  1  0  0  0  0
 19 26  1  0  0  0  0
 20 21  1  0  0  0  0
 21 22  2  0  0  0  0
 21 23  1  0  0  0  0
 23 24  1  0  0  0  0
 24 25  1  0  0  0  0
 24 26  1  0  0  0  0
 27 28  1  0  0  0  0
 27 32  2  0  0  0  0
 28 29  2  0  0  0  0
 29 30  1  0  0  0  0
 30 31  2  0  0  0  0
 31 32  1  0  0  0  0
M  END
>  <Index>
493

>  <ID>
HT0985

>  <class>
0

>  <apol>
68.919617

>  <ast_fraglike>
0

>  <ast_fraglike_ext>
0

>  <ast_violation>
2

>  <ast_violation_ext>
3

>  <a_acc>
3

>  <a_acid>
0

>  <a_aro>
18

>  <a_base>
0

>  <a_count>
58

>  <a_don>
1

>  <a_donacc>
4

>  <a_heavy>
32

>  <a_hyd>
27

>  <a_IC>
84.414612

>  <a_ICM>
1.4554244

>  <a_nB>
0

>  <a_nBr>
0

>  <a_nC>
27

>  <a_nCl>
0

>  <a_nF>
1

>  <a_nH>
26

>  <a_nI>
0

>  <a_nN>
1

>  <a_nO>
3

>  <a_nP>
0

>  <a_nS>
0

>  <balabanJ>
1.4866956

>  <BCUT_PEOE_0>
-2.6267941

>  <BCUT_PEOE_1>
-0.64110893

>  <BCUT_PEOE_2>
0.6462568

>  <BCUT_PEOE_3>
2.6697948

>  <BCUT_SLOGP_0>
-2.6854649

>  <BCUT_SLOGP_1>
-0.53807992

>  <BCUT_SLOGP_2>
0.79685581

>  <BCUT_SLOGP_3>
2.6459796

>  <BCUT_SMR_0>
-2.404541

>  <BCUT_SMR_1>
-0.44905031

>  <BCUT_SMR_2>
0.82885796

>  <BCUT_SMR_3>
2.8878088

>  <bpol>
33.820381

>  <b_1rotN>
5

>  <b_1rotR>
0.14285715

>  <b_ar>
18

>  <b_count>
61

>  <b_double>
2

>  <b_heavy>
35

>  <b_max1len>
4

>  <b_rotN>
5

>  <b_rotR>
0.14285715

>  <b_single>
41

>  <b_triple>
0

>  <chi0>
22.664562

>  <chi0v>
18.163357

>  <chi0v_C>
16.074467

>  <chi0_C>
18.250347

>  <chi1>
15.401887

>  <chi1v>
10.824762

>  <chi1v_C>
9.286417

>  <chi1_C>
12.036843

>  <chiral>
2

>  <chiral_u>
2

>  <density>
0.72189653

>  <diameter>
13

>  <FCharge>
0

>  <GCUT_PEOE_0>
-0.79312384

>  <GCUT_PEOE_1>
-0.39043185

>  <GCUT_PEOE_2>
0.079847798

>  <GCUT_PEOE_3>
2.793819

>  <GCUT_SLOGP_0>
-0.87565911

>  <GCUT_SLOGP_1>
-0.26386139

>  <GCUT_SLOGP_2>
0.16445385

>  <GCUT_SLOGP_3>
2.9209616

>  <GCUT_SMR_0>
-0.5205707

>  <GCUT_SMR_1>
-0.21605732

>  <GCUT_SMR_2>
0.19305076

>  <GCUT_SMR_3>
3.0803432

>  <Kier1>
25.103674

>  <Kier2>
11.620158

>  <Kier3>
6.5759635

>  <KierA1>
18.562313

>  <KierA2>
8.5025558

>  <KierA3>
4.7761426

>  <KierFlex>
4.932097

>  <lip_acc>
4

>  <lip_don>
1

>  <lip_druglike>
1

>  <lip_violation>
1

>  <logP(o/w)>
6.1560001

>  <logS>
-6.8777499

>  <mr>
12.44544

>  <mutagenic>
0

>  <nmol>
1

>  <opr_brigid>
25

>  <opr_leadlike>
1

>  <opr_nring>
4

>  <opr_nrot>
6

>  <opr_violation>
1

>  <PC+>
0

>  <PC->
0

>  <PEOE_PC+>
2.1409776

>  <PEOE_PC->
-2.1409776

>  <PEOE_RPC+>
0.12385961

>  <PEOE_RPC->
0.18271549

>  <PEOE_VSA+0>
60.03764

>  <PEOE_VSA+1>
91.625679

>  <PEOE_VSA+2>
9.0208454

>  <PEOE_VSA+3>
0

>  <PEOE_VSA+4>
10.324173

>  <PEOE_VSA+5>
14.708499

>  <PEOE_VSA+6>
0

>  <PEOE_VSA-0>
41.181789

>  <PEOE_VSA-1>
147.78949

>  <PEOE_VSA-2>
0

>  <PEOE_VSA-3>
0

>  <PEOE_VSA-4>
11.908636

>  <PEOE_VSA-5>
19.249496

>  <PEOE_VSA-6>
10.271297

>  <PEOE_VSA_FHYD>
0.84028047

>  <PEOE_VSA_FNEG>
0.55369139

>  <PEOE_VSA_FPNEG>
0.09956184

>  <PEOE_VSA_FPOL>
0.15971954

>  <PEOE_VSA_FPOS>
0.44630858

>  <PEOE_VSA_FPPOS>
0.060157694

>  <PEOE_VSA_HYD>
349.65546

>  <PEOE_VSA_NEG>
230.40071

>  <PEOE_VSA_PNEG>
41.429428

>  <PEOE_VSA_POL>
66.462097

>  <PEOE_VSA_POS>
185.71683

>  <PEOE_VSA_PPOS>
25.032671

>  <petitjean>
0.46153846

>  <petitjeanSC>
0.85714287

>  <Q_PC+>
0

>  <Q_PC->
0

>  <Q_RPC+>
0

>  <Q_RPC->
0

>  <Q_VSA_FHYD>
1

>  <Q_VSA_FNEG>
0

>  <Q_VSA_FPNEG>
0

>  <Q_VSA_FPOL>
0

>  <Q_VSA_FPOS>
1

>  <Q_VSA_FPPOS>
0

>  <Q_VSA_HYD>
416.11755

>  <Q_VSA_NEG>
0

>  <Q_VSA_PNEG>
0

>  <Q_VSA_POL>
0

>  <Q_VSA_POS>
416.11755

>  <Q_VSA_PPOS>
0

>  <radius>
7

>  <reactive>
1

>  <rings>
4

>  <RPC+>
0

>  <RPC->
0

>  <rsynth>
0.625

>  <SlogP>
5.7578001

>  <SlogP_VSA0>
25.385227

>  <SlogP_VSA1>
24.530994

>  <SlogP_VSA2>
56.920422

>  <SlogP_VSA3>
0

>  <SlogP_VSA4>
5.9423227

>  <SlogP_VSA5>
0

>  <SlogP_VSA6>
4.4107962

>  <SlogP_VSA7>
206.3885

>  <SlogP_VSA8>
55.379993

>  <SlogP_VSA9>
81.612144

>  <SMR>
12.33108

>  <SMR_VSA0>
34.862103

>  <SMR_VSA1>
57.130871

>  <SMR_VSA2>
9.1210184

>  <SMR_VSA3>
23.290417

>  <SMR_VSA4>
12.313473

>  <SMR_VSA5>
231.81184

>  <SMR_VSA6>
25.388649

>  <SMR_VSA7>
66.652031

>  <TPSA>
59.419998

>  <VAdjEq>
0.3597711

>  <VAdjMa>
6.129283

>  <VDistEq>
3.5055494

>  <VDistMa>
9.748909

>  <vdw_area>
416.11755

>  <vdw_vol>
597.74078

>  <vsa_acc>
19.249496

>  <vsa_acid>
0

>  <vsa_base>
0

>  <vsa_don>
0

>  <vsa_hyd>
342.42413

>  <vsa_other>
17.212255

>  <vsa_pol>
32.816418

>  <Weight>
431.50699

>  <weinerPath>
2851

>  <weinerPol>
51

>  <zagreb>
168

$$$$