Fc1ccc(cc1)C(=O)c1cc2nc([nH]c2cc1)NC(OC)=O
  MOE2013           2D

 23 25  0  0  0  0  0  0  0  0999 V2000
    0.0000    0.0000    0.0000 F   0  0  0  0  0  0  0  0  0  0  0  0
    1.3030   -0.7440    0.0000 C   0  0  0  0  0  0  0  0  0  0  0  0
    1.3100   -2.2440    0.0000 C   0  0  0  0  0  0  0  0  0  0  0  0
    2.6130   -2.9870    0.0000 C   0  0  0  0  0  0  0  0  0  0  0  0
    3.9080   -2.2310    0.0000 C   0  0  0  0  0  0  0  0  0  0  0  0
    3.9010   -0.7310    0.0000 C   0  0  0  0  0  0  0  0  0  0  0  0
    2.5980    0.0130    0.0000 C   0  0  0  0  0  0  0  0  0  0  0  0
    5.2110   -2.9740    0.0000 C   0  0  0  0  0  0  0  0  0  0  0  0
    5.2180   -4.4740    0.0000 O   0  0  0  0  0  0  0  0  0  0  0  0
    6.5060   -2.2180    0.0000 C   0  0  0  0  0  0  0  0  0  0  0  0
    7.8090   -2.9610    0.0000 C   0  0  0  0  0  0  0  0  0  0  0  0
    9.1040   -2.2050    0.0000 C   0  0  0  0  0  0  0  0  0  0  0  0
   10.5330   -2.6610    0.0000 N   0  0  0  0  0  0  0  0  0  0  0  0
   11.4090   -1.4430    0.0000 C   0  0  0  0  0  0  0  0  0  0  0  0
   10.5210   -0.2340    0.0000 N   0  0  0  0  0  0  0  0  0  0  0  0
    9.0970   -0.7050    0.0000 C   0  0  0  0  0  0  0  0  0  0  0  0
    7.7940    0.0390    0.0000 C   0  0  0  0  0  0  0  0  0  0  0  0
    6.4990   -0.7180    0.0000 C   0  0  0  0  0  0  0  0  0  0  0  0
   12.9090   -1.4360    0.0000 N   0  0  0  0  0  0  0  0  0  0  0  0
   13.6520   -0.1330    0.0000 C   0  0  0  0  0  0  0  0  0  0  0  0
   15.1520   -0.1260    0.0000 O   0  0  0  0  0  0  0  0  0  0  0  0
   15.8960    1.1770    0.0000 C   0  0  0  0  0  0  0  0  0  0  0  0
   12.8960    1.1620    0.0000 O   0  0  0  0  0  0  0  0  0  0  0  0
  1  2  1  0  0  0  0
  2  3  1  0  0  0  0
  2  7  2  0  0  0  0
  3  4  2  0  0  0  0
  4  5  1  0  0  0  0
  5  6  2  0  0  0  0
  5  8  1  0  0  0  0
  6  7  1  0  0  0  0
  8  9  2  0  0  0  0
  8 10  1  0  0  0  0
 10 11  1  0  0  0  0
 10 18  2  0  0  0  0
 11 12  2  0  0  0  0
 12 13  1  0  0  0  0
 12 16  1  0  0  0  0
 13 14  2  0  0  0  0
 14 15  1  0  0  0  0
 14 19  1  0  0  0  0
 15 16  1  0  0  0  0
 16 17  2  0  0  0  0
 17 18  1  0  0  0  0
 19 20  1  0  0  0  0
 20 21  1  0  0  0  0
 20 23  2  0  0  0  0
 21 22  1  0  0  0  0
M  END
>  <Index>
435

>  <ID>
HT0887

>  <class>
0

>  <apol>
42.424515

>  <ast_fraglike>
0

>  <ast_fraglike_ext>
0

>  <ast_violation>
3

>  <ast_violation_ext>
3

>  <a_acc>
4

>  <a_acid>
0

>  <a_aro>
15

>  <a_base>
0

>  <a_count>
35

>  <a_don>
3

>  <a_donacc>
7

>  <a_heavy>
23

>  <a_hyd>
14

>  <a_IC>
62.995579

>  <a_ICM>
1.7998737

>  <a_nB>
0

>  <a_nBr>
0

>  <a_nC>
16

>  <a_nCl>
0

>  <a_nF>
1

>  <a_nH>
12

>  <a_nI>
0

>  <a_nN>
3

>  <a_nO>
3

>  <a_nP>
0

>  <a_nS>
0

>  <balabanJ>
1.4994705

>  <BCUT_PEOE_0>
-2.218931

>  <BCUT_PEOE_1>
-0.65665859

>  <BCUT_PEOE_2>
0.68398249

>  <BCUT_PEOE_3>
2.266439

>  <BCUT_SLOGP_0>
-2.3503025

>  <BCUT_SLOGP_1>
-0.582672

>  <BCUT_SLOGP_2>
0.78381002

>  <BCUT_SLOGP_3>
2.3437808

>  <BCUT_SMR_0>
-1.952908

>  <BCUT_SMR_1>
-0.48448578

>  <BCUT_SMR_2>
0.84909821

>  <BCUT_SMR_3>
2.5888243

>  <bpol>
20.793484

>  <b_1rotN>
3

>  <b_1rotR>
0.12

>  <b_ar>
16

>  <b_count>
37

>  <b_double>
2

>  <b_heavy>
25

>  <b_max1len>
2

>  <b_rotN>
5

>  <b_rotR>
0.2

>  <b_single>
19

>  <b_triple>
0

>  <chi0>
16.396976

>  <chi0v>
12.091374

>  <chi0v_C>
9.0414515

>  <chi0_C>
10.568549

>  <chi1>
11.062881

>  <chi1v>
6.7162175

>  <chi1v_C>
4.059401

>  <chi1_C>
5.7659864

>  <chiral>
0

>  <chiral_u>
0

>  <density>
0.81193846

>  <diameter>
14

>  <FCharge>
0

>  <GCUT_PEOE_0>
-0.81436777

>  <GCUT_PEOE_1>
-0.447402

>  <GCUT_PEOE_2>
0.09317863

>  <GCUT_PEOE_3>
2.3919926

>  <GCUT_SLOGP_0>
-0.9933635

>  <GCUT_SLOGP_1>
-0.31057432

>  <GCUT_SLOGP_2>
0.20625439

>  <GCUT_SLOGP_3>
2.4855716

>  <GCUT_SMR_0>
-0.48232988

>  <GCUT_SMR_1>
-0.21932507

>  <GCUT_SMR_2>
0.21425666

>  <GCUT_SMR_3>
2.6988924

>  <Kier1>
17.811199

>  <Kier2>
7.9200001

>  <Kier3>
4.3456788

>  <KierA1>
11.807068

>  <KierA2>
5.1423712

>  <KierA3>
2.7773132

>  <KierFlex>
2.6398404

>  <lip_acc>
6

>  <lip_don>
2

>  <lip_druglike>
1

>  <lip_violation>
0

>  <logP(o/w)>
2.937

>  <logS>
-5.05302

>  <mr>
8.2737169

>  <mutagenic>
0

>  <nmol>
1

>  <opr_brigid>
16

>  <opr_leadlike>
1

>  <opr_nring>
3

>  <opr_nrot>
3

>  <opr_violation>
0

>  <PC+>
0

>  <PC->
0

>  <PEOE_PC+>
2.0953667

>  <PEOE_PC->
-2.0953667

>  <PEOE_RPC+>
0.17513779

>  <PEOE_RPC->
0.15454718

>  <PEOE_VSA+0>
29.414736

>  <PEOE_VSA+1>
56.052963

>  <PEOE_VSA+2>
9.0208454

>  <PEOE_VSA+3>
25.696545

>  <PEOE_VSA+4>
15.681574

>  <PEOE_VSA+5>
0

>  <PEOE_VSA+6>
19.199511

>  <PEOE_VSA-0>
85.784325

>  <PEOE_VSA-1>
0

>  <PEOE_VSA-2>
0

>  <PEOE_VSA-3>
0

>  <PEOE_VSA-4>
31.158133

>  <PEOE_VSA-5>
13.703812

>  <PEOE_VSA-6>
2.6406472

>  <PEOE_VSA_FHYD>
0.71429586

>  <PEOE_VSA_FNEG>
0.46223509

>  <PEOE_VSA_FPNEG>
0.16473758

>  <PEOE_VSA_FPOL>
0.28570417

>  <PEOE_VSA_FPOS>
0.53776491

>  <PEOE_VSA_FPPOS>
0.12096657

>  <PEOE_VSA_HYD>
205.96942

>  <PEOE_VSA_NEG>
133.28693

>  <PEOE_VSA_PNEG>
47.50259

>  <PEOE_VSA_POL>
82.383675

>  <PEOE_VSA_POS>
155.06618

>  <PEOE_VSA_PPOS>
34.881084

>  <petitjean>
0.5

>  <petitjeanSC>
1

>  <Q_PC+>
0

>  <Q_PC->
0

>  <Q_RPC+>
0

>  <Q_RPC->
0

>  <Q_VSA_FHYD>
1

>  <Q_VSA_FNEG>
0

>  <Q_VSA_FPNEG>
0

>  <Q_VSA_FPOL>
0

>  <Q_VSA_FPOS>
1

>  <Q_VSA_FPPOS>
0

>  <Q_VSA_HYD>
288.35309

>  <Q_VSA_NEG>
0

>  <Q_VSA_PNEG>
0

>  <Q_VSA_POL>
0

>  <Q_VSA_POS>
288.35309

>  <Q_VSA_PPOS>
0

>  <radius>
7

>  <reactive>
1

>  <rings>
3

>  <RPC+>
0

>  <RPC->
0

>  <rsynth>
1

>  <SlogP>
3.1113

>  <SlogP_VSA0>
0

>  <SlogP_VSA1>
47.800529

>  <SlogP_VSA2>
36.906437

>  <SlogP_VSA3>
0

>  <SlogP_VSA4>
30.233366

>  <SlogP_VSA5>
35.383869

>  <SlogP_VSA6>
0

>  <SlogP_VSA7>
127.79057

>  <SlogP_VSA8>
0

>  <SlogP_VSA9>
40.721424

>  <SMR>
8.1953897

>  <SMR_VSA0>
58.724319

>  <SMR_VSA1>
31.745644

>  <SMR_VSA2>
25.906548

>  <SMR_VSA3>
6.37115

>  <SMR_VSA4>
24.198118

>  <SMR_VSA5>
123.50229

>  <SMR_VSA6>
13.004248

>  <SMR_VSA7>
35.383869

>  <TPSA>
84.080002

>  <VAdjEq>
0.45137304

>  <VAdjMa>
5.643856

>  <VDistEq>
3.4900389

>  <VDistMa>
8.7205067

>  <vdw_area>
288.35309

>  <vdw_vol>
385.85187

>  <vsa_acc>
27.133842

>  <vsa_acid>
0

>  <vsa_base>
0

>  <vsa_don>
5.6825762

>  <vsa_hyd>
185.06355

>  <vsa_other>
45.843361

>  <vsa_pol>
44.181568

>  <Weight>
313.28799

>  <weinerPath>
1301

>  <weinerPol>
34

>  <zagreb>
120

$$$$