F[C@@]12[C@H]([C@@H]3C[C@H]4OC(O[C@@]4(C(=O)CO)[C@]3(C[C@@H]1O)C)(C)C)C[C@H](F)C1=CC(=O)C=C[C@@]12C
  MOE2013           2D

 32 36  0  0  1  0  0  0  0  0999 V2000
    0.0000    0.0000    0.0000 F   0  0  0  0  0  0  0  0  0  0  0  0
    1.5000    0.0060    0.0000 C   0  0  1  0  0  0  0  0  0  0  0  0
    0.7550   -1.2960    0.0000 C   0  0  2  0  0  0  0  0  0  0  0  0
   -0.7450   -1.3020    0.0000 C   0  0  2  0  0  0  0  0  0  0  0  0
   -1.7440   -2.4210    0.0000 C   0  0  0  0  0  0  0  0  0  0  0  0
   -3.1170   -1.8160    0.0000 C   0  0  1  0  0  0  0  0  0  0  0  0
   -4.5830   -2.1340    0.0000 O   0  0  0  0  0  0  0  0  0  0  0  0
   -5.3380   -0.8380    0.0000 C   0  0  0  0  0  0  0  0  0  0  0  0
   -4.3390    0.2810    0.0000 O   0  0  0  0  0  0  0  0  0  0  0  0
   -2.9660   -0.3240    0.0000 C   0  0  2  0  0  0  0  0  0  0  0  0
   -3.3600    1.1240    0.0000 C   0  0  0  0  0  0  0  0  0  0  0  0
   -2.3030    2.1890    0.0000 O   0  0  0  0  0  0  0  0  0  0  0  0
   -4.8100    1.5060    0.0000 C   0  0  0  0  0  0  0  0  0  0  0  0
   -5.2040    2.9540    0.0000 O   0  0  0  0  0  0  0  0  0  0  0  0
   -1.5000   -0.0060    0.0000 C   0  0  1  0  0  0  0  0  0  0  0  0
   -0.7550    1.2960    0.0000 C   0  0  0  0  0  0  0  0  0  0  0  0
    0.7450    1.3020    0.0000 C   0  0  2  0  0  0  0  0  0  0  0  0
    1.4900    2.6040    0.0000 O   0  0  0  0  0  0  0  0  0  0  0  0
   -1.8940    1.4410    0.0000 C   0  0  0  0  0  0  0  0  0  0  0  0
   -6.5510    0.0450    0.0000 C   0  0  0  0  0  0  0  0  0  0  0  0
   -6.6810   -1.5060    0.0000 C   0  0  0  0  0  0  0  0  0  0  0  0
    1.5100   -2.5920    0.0000 C   0  0  0  0  0  0  0  0  0  0  0  0
    3.0100   -2.5860    0.0000 C   0  0  2  0  0  0  0  0  0  0  0  0
    3.7650   -3.8820    0.0000 F   0  0  0  0  0  0  0  0  0  0  0  0
    3.7550   -1.2840    0.0000 C   0  0  0  0  0  0  0  0  0  0  0  0
    5.2550   -1.2780    0.0000 C   0  0  0  0  0  0  0  0  0  0  0  0
    6.0000    0.0240    0.0000 C   0  0  0  0  0  0  0  0  0  0  0  0
    7.5000    0.0300    0.0000 O   0  0  0  0  0  0  0  0  0  0  0  0
    5.2450    1.3200    0.0000 C   0  0  0  0  0  0  0  0  0  0  0  0
    3.7450    1.3140    0.0000 C   0  0  0  0  0  0  0  0  0  0  0  0
    3.0000    0.0120    0.0000 C   0  0  2  0  0  0  0  0  0  0  0  0
    2.2450    1.3080    0.0000 C   0  0  0  0  0  0  0  0  0  0  0  0
  2  1  1  1  0  0  0
  2  3  1  0  0  0  0
  2 17  1  0  0  0  0
  2 31  1  0  0  0  0
  3  4  1  0  0  0  0
  3 22  1  1  0  0  0
  4  5  1  6  0  0  0
  4 15  1  0  0  0  0
  5  6  1  0  0  0  0
  6  7  1  1  0  0  0
  6 10  1  0  0  0  0
  7  8  1  0  0  0  0
  8  9  1  0  0  0  0
  8 20  1  0  0  0  0
  8 21  1  0  0  0  0
  9 10  1  0  0  0  0
 10 11  1  6  0  0  0
 10 15  1  0  0  0  0
 11 12  2  0  0  0  0
 11 13  1  0  0  0  0
 13 14  1  0  0  0  0
 15 16  1  0  0  0  0
 15 19  1  6  0  0  0
 16 17  1  0  0  0  0
 17 18  1  6  0  0  0
 22 23  1  0  0  0  0
 23 24  1  1  0  0  0
 23 25  1  0  0  0  0
 25 26  2  0  0  0  0
 25 31  1  0  0  0  0
 26 27  1  0  0  0  0
 27 28  2  0  0  0  0
 27 29  1  0  0  0  0
 29 30  2  0  0  0  0
 30 31  1  0  0  0  0
 31 32  1  6  0  0  0
M  END
>  <Index>
444

>  <ID>
HT0904

>  <class>
0

>  <apol>
68.169792

>  <ast_fraglike>
0

>  <ast_fraglike_ext>
0

>  <ast_violation>
2

>  <ast_violation_ext>
2

>  <a_acc>
6

>  <a_acid>
0

>  <a_aro>
0

>  <a_base>
0

>  <a_count>
62

>  <a_don>
2

>  <a_donacc>
8

>  <a_heavy>
32

>  <a_hyd>
23

>  <a_IC>
94.404579

>  <a_ICM>
1.5226545

>  <a_nB>
0

>  <a_nBr>
0

>  <a_nC>
24

>  <a_nCl>
0

>  <a_nF>
2

>  <a_nH>
30

>  <a_nI>
0

>  <a_nN>
0

>  <a_nO>
6

>  <a_nP>
0

>  <a_nS>
0

>  <balabanJ>
1.6103592

>  <BCUT_PEOE_0>
-2.8908291

>  <BCUT_PEOE_1>
-0.50052994

>  <BCUT_PEOE_2>
0.47554109

>  <BCUT_PEOE_3>
3.0216374

>  <BCUT_SLOGP_0>
-2.9299691

>  <BCUT_SLOGP_1>
-0.42635942

>  <BCUT_SLOGP_2>
0.52555704

>  <BCUT_SLOGP_3>
2.9840736

>  <BCUT_SMR_0>
-2.6722867

>  <BCUT_SMR_1>
-0.33520442

>  <BCUT_SMR_2>
0.62908697

>  <BCUT_SMR_3>
3.2368124

>  <bpol>
40.950211

>  <b_1rotN>
2

>  <b_1rotR>
0.055555556

>  <b_ar>
0

>  <b_count>
66

>  <b_double>
4

>  <b_heavy>
36

>  <b_max1len>
4

>  <b_rotN>
2

>  <b_rotR>
0.055555556

>  <b_single>
62

>  <b_triple>
0

>  <chi0>
23.482763

>  <chi0v>
18.730579

>  <chi0v_C>
15.447229

>  <chi0_C>
16.06855

>  <chi1>
14.765475

>  <chi1v>
11.25104

>  <chi1v_C>
9.0130911

>  <chi1_C>
9.7800589

>  <chiral>
9

>  <chiral_u>
0

>  <density>
0.79956973

>  <diameter>
12

>  <FCharge>
0

>  <GCUT_PEOE_0>
-0.78974038

>  <GCUT_PEOE_1>
-0.39758304

>  <GCUT_PEOE_2>
0.010988185

>  <GCUT_PEOE_3>
3.4333372

>  <GCUT_SLOGP_0>
-0.95003903

>  <GCUT_SLOGP_1>
-0.34098864

>  <GCUT_SLOGP_2>
0.017791212

>  <GCUT_SLOGP_3>
3.43223

>  <GCUT_SMR_0>
-0.53675568

>  <GCUT_SMR_1>
-0.21398333

>  <GCUT_SMR_2>
0.14324389

>  <GCUT_SMR_3>
3.6422827

>  <Kier1>
23.728395

>  <Kier2>
7.0294785

>  <Kier3>
2.7176178

>  <KierA1>
21.025633

>  <KierA2>
6.203474

>  <KierA3>
2.3914039

>  <KierFlex>
4.0759993

>  <lip_acc>
6

>  <lip_don>
2

>  <lip_druglike>
1

>  <lip_violation>
0

>  <logP(o/w)>
3.2809999

>  <logS>
-4.2509499

>  <mr>
11.030051

>  <mutagenic>
0

>  <nmol>
1

>  <opr_brigid>
24

>  <opr_leadlike>
0

>  <opr_nring>
5

>  <opr_nrot>
2

>  <opr_violation>
2

>  <PC+>
0

>  <PC->
0

>  <PEOE_PC+>
2.8230321

>  <PEOE_PC->
-2.8230321

>  <PEOE_RPC+>
0.074377269

>  <PEOE_RPC->
0.13764654

>  <PEOE_VSA+0>
85.307716

>  <PEOE_VSA+1>
43.932945

>  <PEOE_VSA+2>
20.418549

>  <PEOE_VSA+3>
18.025583

>  <PEOE_VSA+4>
20.648346

>  <PEOE_VSA+5>
0

>  <PEOE_VSA+6>
0

>  <PEOE_VSA-0>
109.06532

>  <PEOE_VSA-1>
31.002581

>  <PEOE_VSA-2>
0

>  <PEOE_VSA-3>
0

>  <PEOE_VSA-4>
23.817272

>  <PEOE_VSA-5>
27.133842

>  <PEOE_VSA-6>
20.542593

>  <PEOE_VSA_FHYD>
0.76958424

>  <PEOE_VSA_FNEG>
0.5290432

>  <PEOE_VSA_FPNEG>
0.1787813

>  <PEOE_VSA_FPOL>
0.23041576

>  <PEOE_VSA_FPOS>
0.47095677

>  <PEOE_VSA_FPPOS>
0.05163445

>  <PEOE_VSA_HYD>
307.75269

>  <PEOE_VSA_NEG>
211.5616

>  <PEOE_VSA_PNEG>
71.493706

>  <PEOE_VSA_POL>
92.142052

>  <PEOE_VSA_POS>
188.33315

>  <PEOE_VSA_PPOS>
20.648346

>  <petitjean>
0.5

>  <petitjeanSC>
1

>  <Q_PC+>
0

>  <Q_PC->
0

>  <Q_RPC+>
0

>  <Q_RPC->
0

>  <Q_VSA_FHYD>
1

>  <Q_VSA_FNEG>
0

>  <Q_VSA_FPNEG>
0

>  <Q_VSA_FPOL>
0

>  <Q_VSA_FPOS>
1

>  <Q_VSA_FPPOS>
0

>  <Q_VSA_HYD>
399.89474

>  <Q_VSA_NEG>
0

>  <Q_VSA_PNEG>
0

>  <Q_VSA_POL>
0

>  <Q_VSA_POS>
399.89474

>  <Q_VSA_PPOS>
0

>  <radius>
6

>  <reactive>
1

>  <rings>
5

>  <RPC+>
0

>  <RPC->
0

>  <rsynth>
0.375

>  <SlogP>
2.3668001

>  <SlogP_VSA0>
50.770454

>  <SlogP_VSA1>
11.375222

>  <SlogP_VSA2>
93.007744

>  <SlogP_VSA3>
20.926258

>  <SlogP_VSA4>
8.8215923

>  <SlogP_VSA5>
3.185575

>  <SlogP_VSA6>
0

>  <SlogP_VSA7>
52.929554

>  <SlogP_VSA8>
56.605217

>  <SlogP_VSA9>
163.22429

>  <SMR>
10.88776

>  <SMR_VSA0>
69.724205

>  <SMR_VSA1>
80.690681

>  <SMR_VSA2>
8.8215923

>  <SMR_VSA3>
26.469112

>  <SMR_VSA4>
0

>  <SMR_VSA5>
109.53477

>  <SMR_VSA6>
32.301479

>  <SMR_VSA7>
133.30406

>  <TPSA>
93.059998

>  <VAdjEq>
0.36708876

>  <VAdjMa>
6.1699252

>  <VDistEq>
3.2481406

>  <VDistMa>
9.7540874

>  <vdw_area>
399.89474

>  <vdw_vol>
565.92188

>  <vsa_acc>
32.141354

>  <vsa_acid>
0

>  <vsa_base>
0

>  <vsa_don>
0

>  <vsa_hyd>
290.92401

>  <vsa_other>
18.025583

>  <vsa_pol>
59.275196

>  <Weight>
452.49399

>  <weinerPath>
2351

>  <weinerPol>
79

>  <zagreb>
198

$$$$