O(C(=O)C)[C@H]/1C[C@]2([C@@H](C[C@@H](O)[C@@H]3[C@@]2(CC[C@H]2[C@H](C)[C@H](O)CC[C@@]23C)C)C1=C(/CCC=C(C)/C)C(O)=O)C
  MOE2013           2D

 37 40  0  0  1  0  0  0  0  0999 V2000
    0.0000    0.0000    0.0000 O   0  0  0  0  0  0  0  0  0  0  0  0
    0.0130   -1.5000    0.0000 C   0  0  0  0  0  0  0  0  0  0  0  0
   -1.2790   -2.2610    0.0000 O   0  0  0  0  0  0  0  0  0  0  0  0
    1.3190   -2.2380    0.0000 C   0  0  0  0  0  0  0  0  0  0  0  0
    1.2920    0.7610    0.0000 C   0  0  1  0  0  0  0  0  0  0  0  0
    2.6680    0.1630    0.0000 C   0  0  0  0  0  0  0  0  0  0  0  0
    3.6620    1.2870    0.0000 C   0  0  1  0  0  0  0  0  0  0  0  0
    2.9000    2.5790    0.0000 C   0  0  1  0  0  0  0  0  0  0  0  0
    3.6390    3.8850    0.0000 C   0  0  0  0  0  0  0  0  0  0  0  0
    5.1390    3.8980    0.0000 C   0  0  1  0  0  0  0  0  0  0  0  0
    5.8770    5.2040    0.0000 O   0  0  0  0  0  0  0  0  0  0  0  0
    5.9000    2.6060    0.0000 C   0  0  2  0  0  0  0  0  0  0  0  0
    5.1620    1.3000    0.0000 C   0  0  2  0  0  0  0  0  0  0  0  0
    5.9230    0.0080    0.0000 C   0  0  0  0  0  0  0  0  0  0  0  0
    7.4230    0.0210    0.0000 C   0  0  0  0  0  0  0  0  0  0  0  0
    8.1620    1.3270    0.0000 C   0  0  1  0  0  0  0  0  0  0  0  0
    9.6620    1.3400    0.0000 C   0  0  2  0  0  0  0  0  0  0  0  0
   10.4230    0.0480    0.0000 C   0  0  0  0  0  0  0  0  0  0  0  0
   10.4000    2.6460    0.0000 C   0  0  2  0  0  0  0  0  0  0  0  0
   11.9000    2.6590    0.0000 O   0  0  0  0  0  0  0  0  0  0  0  0
    9.6390    3.9380    0.0000 C   0  0  0  0  0  0  0  0  0  0  0  0
    8.1390    3.9250    0.0000 C   0  0  0  0  0  0  0  0  0  0  0  0
    7.4000    2.6190    0.0000 C   0  0  2  0  0  0  0  0  0  0  0  0
    6.6390    3.9110    0.0000 C   0  0  0  0  0  0  0  0  0  0  0  0
    6.6620    1.3130    0.0000 C   0  0  0  0  0  0  0  0  0  0  0  0
    1.4360    2.2550    0.0000 C   0  0  0  0  0  0  0  0  0  0  0  0
    0.3120    3.2480    0.0000 C   0  0  0  0  0  0  0  0  0  0  0  0
    0.6110    4.7180    0.0000 C   0  0  0  0  0  0  0  0  0  0  0  0
   -0.5120    5.7120    0.0000 C   0  0  0  0  0  0  0  0  0  0  0  0
   -0.2130    7.1820    0.0000 C   0  0  0  0  0  0  0  0  0  0  0  0
   -1.3370    8.1760    0.0000 C   0  0  0  0  0  0  0  0  0  0  0  0
   -1.0380    9.6460    0.0000 C   0  0  0  0  0  0  0  0  0  0  0  0
   -2.7590    7.7000    0.0000 C   0  0  0  0  0  0  0  0  0  0  0  0
   -1.1100    2.7720    0.0000 C   0  0  0  0  0  0  0  0  0  0  0  0
   -2.2340    3.7660    0.0000 O   0  0  0  0  0  0  0  0  0  0  0  0
   -1.4090    1.3020    0.0000 O   0  0  0  0  0  0  0  0  0  0  0  0
    4.3080   -0.0670    0.0000 C   0  0  0  0  0  0  0  0  0  0  0  0
  1  2  1  0  0  0  0
  2  3  2  0  0  0  0
  2  4  1  0  0  0  0
  5  1  1  6  0  0  0
  5  6  1  0  0  0  0
  5 26  1  0  0  0  0
  6  7  1  0  0  0  0
  7  8  1  0  0  0  0
  7 13  1  0  0  0  0
  7 37  1  6  0  0  0
  8  9  1  6  0  0  0
  8 26  1  0  0  0  0
  9 10  1  0  0  0  0
 10 11  1  1  0  0  0
 12 10  1  1  0  0  0
 12 13  1  0  0  0  0
 12 23  1  0  0  0  0
 13 14  1  0  0  0  0
 13 25  1  1  0  0  0
 14 15  1  0  0  0  0
 16 15  1  6  0  0  0
 16 17  1  0  0  0  0
 16 23  1  0  0  0  0
 17 18  1  1  0  0  0
 17 19  1  0  0  0  0
 19 20  1  1  0  0  0
 19 21  1  0  0  0  0
 21 22  1  0  0  0  0
 22 23  1  0  0  0  0
 23 24  1  6  0  0  0
 26 27  2  0  0  0  0
 27 28  1  0  0  0  0
 27 34  1  0  0  0  0
 28 29  1  0  0  0  0
 29 30  1  0  0  0  0
 30 31  2  3  0  0  0
 31 32  1  0  0  0  0
 31 33  1  0  0  0  0
 34 35  1  0  0  0  0
 34 36  2  0  0  0  0
M  END
>  <Index>
467

>  <ID>
HT0946

>  <class>
0

>  <apol>
91.378067

>  <ast_fraglike>
0

>  <ast_fraglike_ext>
0

>  <ast_violation>
4

>  <ast_violation_ext>
6

>  <a_acc>
5

>  <a_acid>
0

>  <a_aro>
0

>  <a_base>
0

>  <a_count>
85

>  <a_don>
4

>  <a_donacc>
9

>  <a_heavy>
37

>  <a_hyd>
29

>  <a_IC>
107.63017

>  <a_ICM>
1.2662373

>  <a_nB>
0

>  <a_nBr>
0

>  <a_nC>
31

>  <a_nCl>
0

>  <a_nF>
0

>  <a_nH>
48

>  <a_nI>
0

>  <a_nN>
0

>  <a_nO>
6

>  <a_nP>
0

>  <a_nS>
0

>  <balabanJ>
1.7225339

>  <BCUT_PEOE_0>
-3.0153515

>  <BCUT_PEOE_1>
-0.38320786

>  <BCUT_PEOE_2>
0.37167695

>  <BCUT_PEOE_3>
3.0036783

>  <BCUT_SLOGP_0>
-2.9662585

>  <BCUT_SLOGP_1>
-0.31593177

>  <BCUT_SLOGP_2>
0.42759013

>  <BCUT_SLOGP_3>
3.0603373

>  <BCUT_SMR_0>
-2.7661998

>  <BCUT_SMR_1>
-0.21481711

>  <BCUT_SMR_2>
0.51737589

>  <BCUT_SMR_3>
3.2531798

>  <bpol>
56.305935

>  <b_1rotN>
5

>  <b_1rotR>
0.125

>  <b_ar>
0

>  <b_count>
88

>  <b_double>
4

>  <b_heavy>
40

>  <b_max1len>
4

>  <b_rotN>
6

>  <b_rotR>
0.15000001

>  <b_single>
84

>  <b_triple>
0

>  <chi0>
27.499271

>  <chi0v>
23.842043

>  <chi0v_C>
21.275656

>  <chi0_C>
21.792164

>  <chi1>
17.169081

>  <chi1v>
14.299859

>  <chi1v_C>
12.71178

>  <chi1_C>
13.465833

>  <chiral>
10

>  <chiral_u>
0

>  <density>
0.69601297

>  <diameter>
15

>  <FCharge>
0

>  <GCUT_PEOE_0>
-0.803819

>  <GCUT_PEOE_1>
-0.33745265

>  <GCUT_PEOE_2>
-0.095611088

>  <GCUT_PEOE_3>
3.6200526

>  <GCUT_SLOGP_0>
-0.88575101

>  <GCUT_SLOGP_1>
-0.29433838

>  <GCUT_SLOGP_2>
-0.023281291

>  <GCUT_SLOGP_3>
3.6831336

>  <GCUT_SMR_0>
-0.54270571

>  <GCUT_SMR_1>
-0.19279113

>  <GCUT_SMR_2>
0.089344427

>  <GCUT_SMR_3>
3.8411987

>  <Kier1>
29.969999

>  <Kier2>
10.766602

>  <Kier3>
4.9168243

>  <KierA1>
27.282578

>  <KierA2>
9.7746973

>  <KierA3>
4.4551716

>  <KierFlex>
7.2075391

>  <lip_acc>
6

>  <lip_don>
3

>  <lip_druglike>
0

>  <lip_violation>
2

>  <logP(o/w)>
4.8860002

>  <logS>
-6.5032601

>  <mr>
14.292867

>  <mutagenic>
0

>  <nmol>
1

>  <opr_brigid>
22

>  <opr_leadlike>
0

>  <opr_nring>
4

>  <opr_nrot>
5

>  <opr_violation>
2

>  <PC+>
0

>  <PC->
0

>  <PEOE_PC+>
2.8270686

>  <PEOE_PC->
-2.8270686

>  <PEOE_RPC+>
0.10161488

>  <PEOE_RPC->
0.13848718

>  <PEOE_VSA+0>
195.83704

>  <PEOE_VSA+1>
31.776331

>  <PEOE_VSA+2>
0

>  <PEOE_VSA+3>
0

>  <PEOE_VSA+4>
30.972517

>  <PEOE_VSA+5>
29.416998

>  <PEOE_VSA+6>
0

>  <PEOE_VSA-0>
109.3144

>  <PEOE_VSA-1>
89.454155

>  <PEOE_VSA-2>
0

>  <PEOE_VSA-3>
0

>  <PEOE_VSA-4>
0

>  <PEOE_VSA-5>
27.133842

>  <PEOE_VSA-6>
25.806377

>  <PEOE_VSA_FHYD>
0.79001802

>  <PEOE_VSA_FNEG>
0.46637639

>  <PEOE_VSA_FPNEG>
0.098089814

>  <PEOE_VSA_FPOL>
0.20998201

>  <PEOE_VSA_FPOS>
0.53362364

>  <PEOE_VSA_FPPOS>
0.11189219

>  <PEOE_VSA_HYD>
426.38193

>  <PEOE_VSA_NEG>
251.70877

>  <PEOE_VSA_PNEG>
52.94022

>  <PEOE_VSA_POL>
113.32973

>  <PEOE_VSA_POS>
288.0029

>  <PEOE_VSA_PPOS>
60.389515

>  <petitjean>
0.46666667

>  <petitjeanSC>
0.875

>  <Q_PC+>
0

>  <Q_PC->
0

>  <Q_RPC+>
0

>  <Q_RPC->
0

>  <Q_VSA_FHYD>
1

>  <Q_VSA_FNEG>
0

>  <Q_VSA_FPNEG>
0

>  <Q_VSA_FPOL>
0

>  <Q_VSA_FPOS>
1

>  <Q_VSA_FPPOS>
0

>  <Q_VSA_HYD>
539.71167

>  <Q_VSA_NEG>
0

>  <Q_VSA_PNEG>
0

>  <Q_VSA_POL>
0

>  <Q_VSA_POS>
539.71167

>  <Q_VSA_PPOS>
0

>  <radius>
8

>  <reactive>
0

>  <rings>
4

>  <RPC+>
0

>  <RPC->
0

>  <rsynth>
0.35135135

>  <SlogP>
5.6661

>  <SlogP_VSA0>
50.770454

>  <SlogP_VSA1>
15.490929

>  <SlogP_VSA2>
78.130272

>  <SlogP_VSA3>
25.385227

>  <SlogP_VSA4>
17.643185

>  <SlogP_VSA5>
9.5567245

>  <SlogP_VSA6>
0

>  <SlogP_VSA7>
17.643185

>  <SlogP_VSA8>
150.94725

>  <SlogP_VSA9>
233.2821

>  <SMR>
14.25514

>  <SMR_VSA0>
58.724319

>  <SMR_VSA1>
50.770454

>  <SMR_VSA2>
43.028412

>  <SMR_VSA3>
28.962673

>  <SMR_VSA4>
0

>  <SMR_VSA5>
168.59042

>  <SMR_VSA6>
15.490929

>  <SMR_VSA7>
233.2821

>  <TPSA>
104.06

>  <VAdjEq>
0.32120815

>  <VAdjMa>
6.321928

>  <VDistEq>
3.5528674

>  <VDistMa>
10.167597

>  <vdw_area>
539.71167

>  <vdw_vol>
742.39856

>  <vsa_acc>
13.566921

>  <vsa_acid>
0

>  <vsa_base>
0

>  <vsa_don>
0

>  <vsa_hyd>
388.97095

>  <vsa_other>
31.920755

>  <vsa_pol>
67.834602

>  <Weight>
516.71899

>  <weinerPath>
3804

>  <weinerPol>
78

>  <zagreb>
208

$$$$