s1c2cc(OCC)ccc2nc1S(=O)(=O)N
  MOE2013           2D

 16 17  0  0  0  0  0  0  0  0999 V2000
    0.0000    0.0000    0.0000 S   0  0  0  0  0  0  0  0  0  0  0  0
    1.4690    0.3010    0.0000 C   0  0  0  0  0  0  0  0  0  0  0  0
    2.6760   -0.5900    0.0000 C   0  0  0  0  0  0  0  0  0  0  0  0
    4.0510    0.0100    0.0000 C   0  0  0  0  0  0  0  0  0  0  0  0
    5.2580   -0.8800    0.0000 O   0  0  0  0  0  0  0  0  0  0  0  0
    6.6330   -0.2800    0.0000 C   0  0  0  0  0  0  0  0  0  0  0  0
    7.8400   -1.1710    0.0000 C   0  0  0  0  0  0  0  0  0  0  0  0
    4.2190    1.5010    0.0000 C   0  0  0  0  0  0  0  0  0  0  0  0
    3.0120    2.3910    0.0000 C   0  0  0  0  0  0  0  0  0  0  0  0
    1.6370    1.7920    0.0000 C   0  0  0  0  0  0  0  0  0  0  0  0
    0.2720    2.4120    0.0000 N   0  0  0  0  0  0  0  0  0  0  0  0
   -0.7400    1.3050    0.0000 C   0  0  0  0  0  0  0  0  0  0  0  0
   -2.2310    1.4720    0.0000 S   0  0  0  0  0  0  0  0  0  0  0  0
   -2.3990   -0.0180    0.0000 O   0  0  0  0  0  0  0  0  0  0  0  0
   -2.0630    2.9630    0.0000 O   0  0  0  0  0  0  0  0  0  0  0  0
   -3.7220    1.6400    0.0000 N   0  0  0  0  0  0  0  0  0  0  0  0
  1  2  1  0  0  0  0
  1 12  1  0  0  0  0
  2  3  1  0  0  0  0
  2 10  2  0  0  0  0
  3  4  2  0  0  0  0
  4  5  1  0  0  0  0
  4  8  1  0  0  0  0
  5  6  1  0  0  0  0
  6  7  1  0  0  0  0
  8  9  2  0  0  0  0
  9 10  1  0  0  0  0
 10 11  1  0  0  0  0
 11 12  2  0  0  0  0
 12 13  1  0  0  0  0
 13 14  2  0  0  0  0
 13 15  2  0  0  0  0
 13 16  1  0  0  0  0
M  END
>  <Index>
402

>  <ID>
HT0813

>  <class>
0

>  <apol>
32.913929

>  <ast_fraglike>
0

>  <ast_fraglike_ext>
0

>  <ast_violation>
1

>  <ast_violation_ext>
2

>  <a_acc>
4

>  <a_acid>
0

>  <a_aro>
9

>  <a_base>
0

>  <a_count>
26

>  <a_don>
1

>  <a_donacc>
5

>  <a_heavy>
16

>  <a_hyd>
10

>  <a_IC>
51.707939

>  <a_ICM>
1.9887669

>  <a_nB>
0

>  <a_nBr>
0

>  <a_nC>
9

>  <a_nCl>
0

>  <a_nF>
0

>  <a_nH>
10

>  <a_nI>
0

>  <a_nN>
2

>  <a_nO>
3

>  <a_nP>
0

>  <a_nS>
2

>  <balabanJ>
1.9243464

>  <BCUT_PEOE_0>
-2.3875113

>  <BCUT_PEOE_1>
-0.56908441

>  <BCUT_PEOE_2>
0.49156591

>  <BCUT_PEOE_3>
2.3578882

>  <BCUT_SLOGP_0>
-2.564368

>  <BCUT_SLOGP_1>
-0.46930376

>  <BCUT_SLOGP_2>
0.60984367

>  <BCUT_SLOGP_3>
2.4309118

>  <BCUT_SMR_0>
-2.1467347

>  <BCUT_SMR_1>
-0.37030727

>  <BCUT_SMR_2>
0.77318418

>  <BCUT_SMR_3>
2.7108369

>  <bpol>
22.264071

>  <b_1rotN>
3

>  <b_1rotR>
0.17647059

>  <b_ar>
10

>  <b_count>
27

>  <b_double>
0

>  <b_heavy>
17

>  <b_max1len>
3

>  <b_rotN>
3

>  <b_rotR>
0.17647059

>  <b_single>
17

>  <b_triple>
0

>  <chi0>
11.759149

>  <chi0v>
10.137956

>  <chi0v_C>
5.4391575

>  <chi0_C>
6.1378284

>  <chi1>
7.5033498

>  <chi1v>
6.9293776

>  <chi1v_C>
2.4451406

>  <chi1_C>
3.1734333

>  <chiral>
0

>  <chiral_u>
0

>  <density>
0.90932596

>  <diameter>
9

>  <FCharge>
0

>  <GCUT_PEOE_0>
-0.79197359

>  <GCUT_PEOE_1>
-0.40028057

>  <GCUT_PEOE_2>
-0.0098008821

>  <GCUT_PEOE_3>
2.2675459

>  <GCUT_SLOGP_0>
-1.3481627

>  <GCUT_SLOGP_1>
-0.39051417

>  <GCUT_SLOGP_2>
0.11136231

>  <GCUT_SLOGP_3>
2.3977661

>  <GCUT_SMR_0>
-0.51343924

>  <GCUT_SMR_1>
-0.17152362

>  <GCUT_SMR_2>
0.21870907

>  <GCUT_SMR_3>
2.5813005

>  <Kier1>
12.456747

>  <Kier2>
4.704

>  <Kier3>
2.8311112

>  <KierA1>
12.262609

>  <KierA2>
4.6255913

>  <KierA3>
2.7816243

>  <KierFlex>
3.5451136

>  <lip_acc>
5

>  <lip_don>
2

>  <lip_druglike>
1

>  <lip_violation>
0

>  <logP(o/w)>
1.295

>  <logS>
-3.2759299

>  <mr>
6.3734412

>  <mutagenic>
0

>  <nmol>
1

>  <opr_brigid>
10

>  <opr_leadlike>
1

>  <opr_nring>
2

>  <opr_nrot>
3

>  <opr_violation>
0

>  <PC+>
0

>  <PC->
0

>  <PEOE_PC+>
1.3479786

>  <PEOE_PC->
-1.3479786

>  <PEOE_RPC+>
0.2581217

>  <PEOE_RPC->
0.25591898

>  <PEOE_VSA+0>
30.034184

>  <PEOE_VSA+1>
61.541901

>  <PEOE_VSA+2>
0

>  <PEOE_VSA+3>
0

>  <PEOE_VSA+4>
0

>  <PEOE_VSA+5>
19.760618

>  <PEOE_VSA+6>
10.651674

>  <PEOE_VSA-0>
59.696991

>  <PEOE_VSA-1>
0

>  <PEOE_VSA-2>
0

>  <PEOE_VSA-3>
14.726326

>  <PEOE_VSA-4>
32.016521

>  <PEOE_VSA-5>
0

>  <PEOE_VSA-6>
2.503756

>  <PEOE_VSA_FHYD>
0.71882379

>  <PEOE_VSA_FNEG>
0.47175622

>  <PEOE_VSA_FPNEG>
0.14948246

>  <PEOE_VSA_FPOL>
0.28117618

>  <PEOE_VSA_FPOS>
0.52824378

>  <PEOE_VSA_FPPOS>
0.13169372

>  <PEOE_VSA_HYD>
165.9994

>  <PEOE_VSA_NEG>
108.9436

>  <PEOE_VSA_PNEG>
34.520279

>  <PEOE_VSA_POL>
64.932571

>  <PEOE_VSA_POS>
121.98838

>  <PEOE_VSA_PPOS>
30.412292

>  <petitjean>
0.44444445

>  <petitjeanSC>
0.80000001

>  <Q_PC+>
0

>  <Q_PC->
0

>  <Q_RPC+>
0

>  <Q_RPC->
0

>  <Q_VSA_FHYD>
1

>  <Q_VSA_FNEG>
0

>  <Q_VSA_FPNEG>
0

>  <Q_VSA_FPOL>
0

>  <Q_VSA_FPOS>
1

>  <Q_VSA_FPPOS>
0

>  <Q_VSA_HYD>
230.93198

>  <Q_VSA_NEG>
0

>  <Q_VSA_PNEG>
0

>  <Q_VSA_POL>
0

>  <Q_VSA_POS>
230.93198

>  <Q_VSA_PPOS>
0

>  <radius>
5

>  <reactive>
0

>  <rings>
2

>  <RPC+>
0

>  <RPC->
0

>  <rsynth>
1

>  <SlogP>
1.3424

>  <SlogP_VSA0>
42.291321

>  <SlogP_VSA1>
64.957214

>  <SlogP_VSA2>
6.6407428

>  <SlogP_VSA3>
20.926258

>  <SlogP_VSA4>
0

>  <SlogP_VSA5>
0

>  <SlogP_VSA6>
0

>  <SlogP_VSA7>
55.819481

>  <SlogP_VSA8>
0

>  <SlogP_VSA9>
69.84713

>  <SMR>
6.2162199

>  <SMR_VSA0>
48.171688

>  <SMR_VSA1>
27.785418

>  <SMR_VSA2>
0

>  <SMR_VSA3>
5.2434282

>  <SMR_VSA4>
34.181362

>  <SMR_VSA5>
52.929554

>  <SMR_VSA6>
20.926258

>  <SMR_VSA7>
71.244446

>  <TPSA>
82.279999

>  <VAdjEq>
0.56510133

>  <VAdjMa>
5.0874629

>  <VDistEq>
2.9204674

>  <VDistMa>
7.6810093

>  <vdw_area>
230.93198

>  <vdw_vol>
284.08075

>  <vsa_acc>
40.202854

>  <vsa_acid>
0

>  <vsa_base>
0

>  <vsa_don>
20.13512

>  <vsa_hyd>
148.64737

>  <vsa_other>
10.105608

>  <vsa_pol>
60.337975

>  <Weight>
258.32199

>  <weinerPath>
442

>  <weinerPol>
22

>  <zagreb>
84

$$$$