F[C@@]12[C@H]([C@@H]3CC[C@](O)(C(=O)COC(=O)C)[C@]3(C[C@@H]1O)C)CCC1=CC(=O)CC[C@@]12C
  MOE2013           2D

 30 33  0  0  1  0  0  0  0  0999 V2000
    0.0000    0.0000    0.0000 F   0  0  0  0  0  0  0  0  0  0  0  0
   -1.5000    0.0020    0.0000 C   0  0  1  0  0  0  0  0  0  0  0  0
   -0.7520   -1.2980    0.0000 C   0  0  2  0  0  0  0  0  0  0  0  0
    0.7480   -1.3000    0.0000 C   0  0  2  0  0  0  0  0  0  0  0  0
    1.7500   -2.4160    0.0000 C   0  0  0  0  0  0  0  0  0  0  0  0
    3.1210   -1.8080    0.0000 C   0  0  0  0  0  0  0  0  0  0  0  0
    2.9670   -0.3160    0.0000 C   0  0  2  0  0  0  0  0  0  0  0  0
    3.4570    1.1020    0.0000 O   0  0  0  0  0  0  0  0  0  0  0  0
    4.4490   -0.0830    0.0000 C   0  0  0  0  0  0  0  0  0  0  0  0
    4.9880    1.3160    0.0000 O   0  0  0  0  0  0  0  0  0  0  0  0
    5.3910   -1.2500    0.0000 C   0  0  0  0  0  0  0  0  0  0  0  0
    6.8730   -1.0180    0.0000 O   0  0  0  0  0  0  0  0  0  0  0  0
    7.8150   -2.1850    0.0000 C   0  0  0  0  0  0  0  0  0  0  0  0
    9.2970   -1.9520    0.0000 O   0  0  0  0  0  0  0  0  0  0  0  0
    7.2760   -3.5850    0.0000 C   0  0  0  0  0  0  0  0  0  0  0  0
    1.5000   -0.0020    0.0000 C   0  0  1  0  0  0  0  0  0  0  0  0
    0.7520    1.2980    0.0000 C   0  0  0  0  0  0  0  0  0  0  0  0
   -0.7480    1.3000    0.0000 C   0  0  2  0  0  0  0  0  0  0  0  0
   -1.4960    2.6000    0.0000 O   0  0  0  0  0  0  0  0  0  0  0  0
    2.3620    1.2250    0.0000 C   0  0  0  0  0  0  0  0  0  0  0  0
   -1.5040   -2.5960    0.0000 C   0  0  0  0  0  0  0  0  0  0  0  0
   -3.0040   -2.5940    0.0000 C   0  0  0  0  0  0  0  0  0  0  0  0
   -3.7520   -1.2940    0.0000 C   0  0  0  0  0  0  0  0  0  0  0  0
   -5.2520   -1.2920    0.0000 C   0  0  0  0  0  0  0  0  0  0  0  0
   -6.0000    0.0080    0.0000 C   0  0  0  0  0  0  0  0  0  0  0  0
   -7.5000    0.0100    0.0000 O   0  0  0  0  0  0  0  0  0  0  0  0
   -5.2480    1.3060    0.0000 C   0  0  0  0  0  0  0  0  0  0  0  0
   -3.7480    1.3040    0.0000 C   0  0  0  0  0  0  0  0  0  0  0  0
   -3.0000    0.0040    0.0000 C   0  0  2  0  0  0  0  0  0  0  0  0
   -2.2480    1.3020    0.0000 C   0  0  0  0  0  0  0  0  0  0  0  0
  2  1  1  6  0  0  0
  2  3  1  0  0  0  0
  2 18  1  0  0  0  0
  2 29  1  0  0  0  0
  3  4  1  0  0  0  0
  3 21  1  6  0  0  0
  4  5  1  1  0  0  0
  4 16  1  0  0  0  0
  5  6  1  0  0  0  0
  6  7  1  0  0  0  0
  7  8  1  6  0  0  0
  7  9  1  1  0  0  0
  7 16  1  0  0  0  0
  9 10  2  0  0  0  0
  9 11  1  0  0  0  0
 11 12  1  0  0  0  0
 12 13  1  0  0  0  0
 13 14  2  0  0  0  0
 13 15  1  0  0  0  0
 16 17  1  0  0  0  0
 16 20  1  1  0  0  0
 17 18  1  0  0  0  0
 18 19  1  1  0  0  0
 21 22  1  0  0  0  0
 22 23  1  0  0  0  0
 23 24  2  0  0  0  0
 23 29  1  0  0  0  0
 24 25  1  0  0  0  0
 25 26  2  0  0  0  0
 25 27  1  0  0  0  0
 27 28  1  0  0  0  0
 28 29  1  0  0  0  0
 29 30  1  1  0  0  0
M  END
>  <Index>
440

>  <ID>
HT0894

>  <class>
0

>  <apol>
66.519585

>  <ast_fraglike>
0

>  <ast_fraglike_ext>
0

>  <ast_violation>
2

>  <ast_violation_ext>
3

>  <a_acc>
5

>  <a_acid>
0

>  <a_aro>
0

>  <a_base>
0

>  <a_count>
61

>  <a_don>
2

>  <a_donacc>
7

>  <a_heavy>
30

>  <a_hyd>
21

>  <a_IC>
88.643188

>  <a_ICM>
1.4531671

>  <a_nB>
0

>  <a_nBr>
0

>  <a_nC>
23

>  <a_nCl>
0

>  <a_nF>
1

>  <a_nH>
31

>  <a_nI>
0

>  <a_nN>
0

>  <a_nO>
6

>  <a_nP>
0

>  <a_nS>
0

>  <balabanJ>
1.6577291

>  <BCUT_PEOE_0>
-2.9155955

>  <BCUT_PEOE_1>
-0.50141317

>  <BCUT_PEOE_2>
0.40322748

>  <BCUT_PEOE_3>
2.9984026

>  <BCUT_SLOGP_0>
-2.9331517

>  <BCUT_SLOGP_1>
-0.45853317

>  <BCUT_SLOGP_2>
0.48618624

>  <BCUT_SLOGP_3>
3.0040329

>  <BCUT_SMR_0>
-2.687875

>  <BCUT_SMR_1>
-0.32495046

>  <BCUT_SMR_2>
0.61196703

>  <BCUT_SMR_3>
3.2245557

>  <bpol>
39.882416

>  <b_1rotN>
3

>  <b_1rotR>
0.090909094

>  <b_ar>
0

>  <b_count>
64

>  <b_double>
4

>  <b_heavy>
33

>  <b_max1len>
5

>  <b_rotN>
4

>  <b_rotR>
0.12121212

>  <b_single>
60

>  <b_triple>
0

>  <chi0>
22.11252

>  <chi0v>
17.871639

>  <chi0v_C>
14.966255

>  <chi0_C>
15.405413

>  <chi1>
13.898355

>  <chi1v>
10.898734

>  <chi1v_C>
9.1227741

>  <chi1_C>
9.680706

>  <chiral>
7

>  <chiral_u>
0

>  <density>
0.77003723

>  <diameter>
14

>  <FCharge>
0

>  <GCUT_PEOE_0>
-0.7904442

>  <GCUT_PEOE_1>
-0.38171908

>  <GCUT_PEOE_2>
0.0029151263

>  <GCUT_PEOE_3>
3.38395

>  <GCUT_SLOGP_0>
-0.9414736

>  <GCUT_SLOGP_1>
-0.33855796

>  <GCUT_SLOGP_2>
-0.0080387061

>  <GCUT_SLOGP_3>
3.4115119

>  <GCUT_SMR_0>
-0.53903461

>  <GCUT_SMR_1>
-0.22471893

>  <GCUT_SMR_2>
0.13697131

>  <GCUT_SMR_3>
3.5969901

>  <Kier1>
23.168043

>  <Kier2>
7.5160332

>  <Kier3>
3.0727246

>  <KierA1>
20.397734

>  <KierA2>
6.5869527

>  <KierA3>
2.6841443

>  <KierFlex>
4.4786305

>  <lip_acc>
6

>  <lip_don>
2

>  <lip_druglike>
1

>  <lip_violation>
0

>  <logP(o/w)>
1.618

>  <logS>
-3.1733

>  <mr>
10.728205

>  <mutagenic>
0

>  <nmol>
1

>  <opr_brigid>
20

>  <opr_leadlike>
1

>  <opr_nring>
4

>  <opr_nrot>
3

>  <opr_violation>
0

>  <PC+>
0

>  <PC->
0

>  <PEOE_PC+>
2.5616698

>  <PEOE_PC->
-2.5616698

>  <PEOE_RPC+>
0.10127395

>  <PEOE_RPC->
0.15169461

>  <PEOE_VSA+0>
134.08363

>  <PEOE_VSA+1>
21.966473

>  <PEOE_VSA+2>
14.951293

>  <PEOE_VSA+3>
16.917038

>  <PEOE_VSA+4>
20.648346

>  <PEOE_VSA+5>
14.708499

>  <PEOE_VSA+6>
0

>  <PEOE_VSA-0>
64.462784

>  <PEOE_VSA-1>
39.703896

>  <PEOE_VSA-2>
0

>  <PEOE_VSA-3>
0

>  <PEOE_VSA-4>
11.908636

>  <PEOE_VSA-5>
40.700764

>  <PEOE_VSA-6>
18.038837

>  <PEOE_VSA_FHYD>
0.73371595

>  <PEOE_VSA_FNEG>
0.43913391

>  <PEOE_VSA_FPNEG>
0.17746791

>  <PEOE_VSA_FPOL>
0.26628408

>  <PEOE_VSA_FPOS>
0.56086606

>  <PEOE_VSA_FPPOS>
0.088816166

>  <PEOE_VSA_HYD>
292.08511

>  <PEOE_VSA_NEG>
174.81491

>  <PEOE_VSA_PNEG>
70.648232

>  <PEOE_VSA_POL>
106.00508

>  <PEOE_VSA_POS>
223.27528

>  <PEOE_VSA_PPOS>
35.356846

>  <petitjean>
0.5

>  <petitjeanSC>
1

>  <Q_PC+>
0

>  <Q_PC->
0

>  <Q_RPC+>
0

>  <Q_RPC->
0

>  <Q_VSA_FHYD>
1

>  <Q_VSA_FNEG>
0

>  <Q_VSA_FPNEG>
0

>  <Q_VSA_FPOL>
0

>  <Q_VSA_FPOS>
1

>  <Q_VSA_FPPOS>
0

>  <Q_VSA_HYD>
398.09021

>  <Q_VSA_NEG>
0

>  <Q_VSA_PNEG>
0

>  <Q_VSA_POL>
0

>  <Q_VSA_POS>
398.09021

>  <Q_VSA_PPOS>
0

>  <radius>
7

>  <reactive>
1

>  <rings>
4

>  <RPC+>
0

>  <RPC->
0

>  <rsynth>
0.13333334

>  <SlogP>
2.4445

>  <SlogP_VSA0>
50.770454

>  <SlogP_VSA1>
19.120686

>  <SlogP_VSA2>
89.055183

>  <SlogP_VSA3>
20.926258

>  <SlogP_VSA4>
8.8215923

>  <SlogP_VSA5>
3.185575

>  <SlogP_VSA6>
0

>  <SlogP_VSA7>
17.643185

>  <SlogP_VSA8>
132.07884

>  <SlogP_VSA9>
114.93816

>  <SMR>
10.50386

>  <SMR_VSA0>
82.58654

>  <SMR_VSA1>
65.730568

>  <SMR_VSA2>
8.8215923

>  <SMR_VSA3>
9.6542244

>  <SMR_VSA4>
0

>  <SMR_VSA5>
149.72202

>  <SMR_VSA6>
40.046944

>  <SMR_VSA7>
99.978043

>  <TPSA>
100.9

>  <VAdjEq>
0.37824166

>  <VAdjMa>
6.044394

>  <VDistEq>
3.4021592

>  <VDistMa>
9.533782

>  <vdw_area>
398.09021

>  <vdw_vol>
548.66565

>  <vsa_acc>
40.700764

>  <vsa_acid>
0

>  <vsa_base>
0

>  <vsa_don>
0

>  <vsa_hyd>
263.74457

>  <vsa_other>
34.129295

>  <vsa_pol>
67.834602

>  <Weight>
422.49298

>  <weinerPath>
2176

>  <weinerPol>
69

>  <zagreb>
176

$$$$