FC(F)Oc1c2N(C=C(C(O)=O)C(=O)c2ccc1-c1cc2c(cc1)[C@H](NC2)C)C1CC1
  MOE2013           2D

 31 35  0  0  1  0  0  0  0  0999 V2000
    0.0000    0.0000    0.0000 F   0  0  0  0  0  0  0  0  0  0  0  0
   -1.2340    0.8530    0.0000 C   0  0  0  0  0  0  0  0  0  0  0  0
   -1.1120    2.3480    0.0000 F   0  0  0  0  0  0  0  0  0  0  0  0
   -2.5900    0.2110    0.0000 O   0  0  0  0  0  0  0  0  0  0  0  0
   -2.7110   -1.2840    0.0000 C   0  0  0  0  0  0  0  0  0  0  0  0
   -3.9350   -2.1520    0.0000 C   0  0  0  0  0  0  0  0  0  0  0  0
   -5.2980   -1.5270    0.0000 N   0  0  3  0  0  0  0  0  0  0  0  0
   -6.5210   -2.3950    0.0000 C   0  0  0  0  0  0  0  0  0  0  0  0
   -6.3810   -3.8880    0.0000 C   0  0  0  0  0  0  0  0  0  0  0  0
   -7.6050   -4.7560    0.0000 C   0  0  0  0  0  0  0  0  0  0  0  0
   -7.4650   -6.2490    0.0000 O   0  0  0  0  0  0  0  0  0  0  0  0
   -8.9680   -4.1300    0.0000 O   0  0  0  0  0  0  0  0  0  0  0  0
   -5.0180   -4.5140    0.0000 C   0  0  0  0  0  0  0  0  0  0  0  0
   -4.8780   -6.0070    0.0000 O   0  0  0  0  0  0  0  0  0  0  0  0
   -3.7950   -3.6460    0.0000 C   0  0  0  0  0  0  0  0  0  0  0  0
   -2.4310   -4.2710    0.0000 C   0  0  0  0  0  0  0  0  0  0  0  0
   -1.2080   -3.4040    0.0000 C   0  0  0  0  0  0  0  0  0  0  0  0
   -1.3480   -1.9100    0.0000 C   0  0  0  0  0  0  0  0  0  0  0  0
    0.0990   -1.5130    0.0000 C   0  0  0  0  0  0  0  0  0  0  0  0
    0.9670   -2.7360    0.0000 C   0  0  0  0  0  0  0  0  0  0  0  0
    2.4600   -2.5970    0.0000 C   0  0  0  0  0  0  0  0  0  0  0  0
    3.0860   -1.2330    0.0000 C   0  0  0  0  0  0  0  0  0  0  0  0
    2.2180   -0.0100    0.0000 C   0  0  0  0  0  0  0  0  0  0  0  0
    0.7240   -0.1500    0.0000 C   0  0  0  0  0  0  0  0  0  0  0  0
    4.5760   -1.4070    0.0000 C   0  0  2  0  0  0  0  0  0  0  0  0
    4.8710   -2.8780    0.0000 N   0  0  0  0  0  0  0  0  0  0  0  0
    3.5630   -3.6130    0.0000 C   0  0  0  0  0  0  0  0  0  0  0  0
    5.5920   -0.3040    0.0000 C   0  0  0  0  0  0  0  0  0  0  0  0
   -5.4380   -0.0330    0.0000 C   0  0  0  0  0  0  0  0  0  0  0  0
   -6.3060    1.1900    0.0000 C   0  0  0  0  0  0  0  0  0  0  0  0
   -4.8120    1.3300    0.0000 C   0  0  0  0  0  0  0  0  0  0  0  0
  1  2  1  0  0  0  0
  2  3  1  0  0  0  0
  2  4  1  0  0  0  0
  4  5  1  0  0  0  0
  5  6  2  0  0  0  0
  5 18  1  0  0  0  0
  6  7  1  0  0  0  0
  6 15  1  0  0  0  0
  7  8  1  0  0  0  0
  7 29  1  0  0  0  0
  8  9  2  0  0  0  0
  9 10  1  0  0  0  0
  9 13  1  0  0  0  0
 10 11  1  0  0  0  0
 10 12  2  0  0  0  0
 13 14  2  0  0  0  0
 13 15  1  0  0  0  0
 15 16  2  0  0  0  0
 16 17  1  0  0  0  0
 17 18  2  0  0  0  0
 18 19  1  0  0  0  0
 19 20  1  0  0  0  0
 19 24  2  0  0  0  0
 20 21  2  0  0  0  0
 21 22  1  0  0  0  0
 21 27  1  0  0  0  0
 22 23  2  0  0  0  0
 22 25  1  0  0  0  0
 23 24  1  0  0  0  0
 25 26  1  0  0  0  0
 25 28  1  1  0  0  0
 26 27  1  0  0  0  0
 29 30  1  0  0  0  0
 29 31  1  0  0  0  0
 30 31  1  0  0  0  0
M  END
>  <Index>
479

>  <ID>
HT0966

>  <class>
0

>  <apol>
60.33786

>  <ast_fraglike>
0

>  <ast_fraglike_ext>
0

>  <ast_violation>
3

>  <ast_violation_ext>
4

>  <a_acc>
5

>  <a_acid>
0

>  <a_aro>
12

>  <a_base>
0

>  <a_count>
51

>  <a_don>
3

>  <a_donacc>
8

>  <a_heavy>
31

>  <a_hyd>
23

>  <a_IC>
86.813202

>  <a_ICM>
1.7022197

>  <a_nB>
0

>  <a_nBr>
0

>  <a_nC>
23

>  <a_nCl>
0

>  <a_nF>
2

>  <a_nH>
20

>  <a_nI>
0

>  <a_nN>
2

>  <a_nO>
4

>  <a_nP>
0

>  <a_nS>
0

>  <balabanJ>
1.4011019

>  <BCUT_PEOE_0>
-2.4848192

>  <BCUT_PEOE_1>
-0.59111887

>  <BCUT_PEOE_2>
0.63953602

>  <BCUT_PEOE_3>
2.7640231

>  <BCUT_SLOGP_0>
-2.477586

>  <BCUT_SLOGP_1>
-0.54748917

>  <BCUT_SLOGP_2>
0.68710142

>  <BCUT_SLOGP_3>
2.8124628

>  <BCUT_SMR_0>
-2.2105651

>  <BCUT_SMR_1>
-0.4252485

>  <BCUT_SMR_2>
0.78421158

>  <BCUT_SMR_3>
3.0313554

>  <bpol>
30.74214

>  <b_1rotN>
5

>  <b_1rotR>
0.14285715

>  <b_ar>
12

>  <b_count>
55

>  <b_double>
3

>  <b_heavy>
35

>  <b_max1len>
3

>  <b_rotN>
5

>  <b_rotR>
0.14285715

>  <b_single>
40

>  <b_triple>
0

>  <chi0>
21.861078

>  <chi0v>
16.692574

>  <chi0v_C>
13.317472

>  <chi0_C>
14.869514

>  <chi1>
14.846245

>  <chi1v>
10.113818

>  <chi1v_C>
7.2234678

>  <chi1_C>
9.159833

>  <chiral>
1

>  <chiral_u>
0

>  <density>
0.80915862

>  <diameter>
13

>  <FCharge>
0

>  <GCUT_PEOE_0>
-0.84242016

>  <GCUT_PEOE_1>
-0.43624902

>  <GCUT_PEOE_2>
0.10664079

>  <GCUT_PEOE_3>
2.7891333

>  <GCUT_SLOGP_0>
-1.0780987

>  <GCUT_SLOGP_1>
-0.32169667

>  <GCUT_SLOGP_2>
0.18473251

>  <GCUT_SLOGP_3>
2.9122889

>  <GCUT_SMR_0>
-0.51408869

>  <GCUT_SMR_1>
-0.23931044

>  <GCUT_SMR_2>
0.20784277

>  <GCUT_SMR_3>
3.0810099

>  <Kier1>
22.775511

>  <Kier2>
8.9818439

>  <Kier3>
4.072022

>  <KierA1>
17.203426

>  <KierA2>
6.7165794

>  <KierA3>
3.0226805

>  <KierFlex>
3.7273602

>  <lip_acc>
6

>  <lip_don>
2

>  <lip_druglike>
1

>  <lip_violation>
0

>  <logP(o/w)>
4.2639198

>  <logS>
-5.3471599

>  <mr>
10.922935

>  <mutagenic>
0

>  <nmol>
1

>  <opr_brigid>
24

>  <opr_leadlike>
0

>  <opr_nring>
5

>  <opr_nrot>
5

>  <opr_violation>
2

>  <PC+>
0

>  <PC->
0

>  <PEOE_PC+>
2.5053124

>  <PEOE_PC->
-2.5053124

>  <PEOE_RPC+>
0.14019556

>  <PEOE_RPC->
0.13067201

>  <PEOE_VSA+0>
83.301102

>  <PEOE_VSA+1>
36.557255

>  <PEOE_VSA+2>
23.551458

>  <PEOE_VSA+3>
0

>  <PEOE_VSA+4>
18.782692

>  <PEOE_VSA+5>
14.708499

>  <PEOE_VSA+6>
18.529541

>  <PEOE_VSA-0>
67.285728

>  <PEOE_VSA-1>
36.764713

>  <PEOE_VSA-2>
0

>  <PEOE_VSA-3>
23.817272

>  <PEOE_VSA-4>
0

>  <PEOE_VSA-5>
29.637598

>  <PEOE_VSA-6>
7.9044313

>  <PEOE_VSA_FHYD>
0.75179392

>  <PEOE_VSA_FNEG>
0.45840153

>  <PEOE_VSA_FPNEG>
0.10404057

>  <PEOE_VSA_FPOL>
0.24820611

>  <PEOE_VSA_FPOS>
0.54159844

>  <PEOE_VSA_FPPOS>
0.14416553

>  <PEOE_VSA_HYD>
271.27753

>  <PEOE_VSA_NEG>
165.40974

>  <PEOE_VSA_PNEG>
37.54203

>  <PEOE_VSA_POL>
89.562759

>  <PEOE_VSA_POS>
195.43054

>  <PEOE_VSA_PPOS>
52.020733

>  <petitjean>
0.46153846

>  <petitjeanSC>
0.85714287

>  <Q_PC+>
0

>  <Q_PC->
0

>  <Q_RPC+>
0

>  <Q_RPC->
0

>  <Q_VSA_FHYD>
1

>  <Q_VSA_FNEG>
0

>  <Q_VSA_FPNEG>
0

>  <Q_VSA_FPOL>
0

>  <Q_VSA_FPOS>
1

>  <Q_VSA_FPPOS>
0

>  <Q_VSA_HYD>
360.8403

>  <Q_VSA_NEG>
0

>  <Q_VSA_PNEG>
0

>  <Q_VSA_POL>
0

>  <Q_VSA_POS>
360.8403

>  <Q_VSA_PPOS>
0

>  <radius>
7

>  <reactive>
0

>  <rings>
5

>  <RPC+>
0

>  <RPC->
0

>  <rsynth>
0.38709676

>  <SlogP>
4.6146998

>  <SlogP_VSA0>
32.134953

>  <SlogP_VSA1>
13.433075

>  <SlogP_VSA2>
46.18372

>  <SlogP_VSA3>
25.385227

>  <SlogP_VSA4>
33.418941

>  <SlogP_VSA5>
3.185575

>  <SlogP_VSA6>
0

>  <SlogP_VSA7>
111.80143

>  <SlogP_VSA8>
41.718781

>  <SlogP_VSA9>
89.685997

>  <SMR>
10.9631

>  <SMR_VSA0>
47.724434

>  <SMR_VSA1>
40.920113

>  <SMR_VSA2>
46.52029

>  <SMR_VSA3>
44.2892

>  <SMR_VSA4>
9.1278973

>  <SMR_VSA5>
161.60667

>  <SMR_VSA6>
13.433075

>  <SMR_VSA7>
33.326015

>  <TPSA>
78.870003

>  <VAdjEq>
0.37643659

>  <VAdjMa>
6.129283

>  <VDistEq>
3.4082968

>  <VDistMa>
9.6546364

>  <vdw_area>
360.8403

>  <vdw_vol>
526.9906

>  <vsa_acc>
16.070677

>  <vsa_acid>
0

>  <vsa_base>
0

>  <vsa_don>
0

>  <vsa_hyd>
268.37573

>  <vsa_other>
23.167019

>  <vsa_pol>
48.887096

>  <Weight>
426.41898

>  <weinerPath>
2446

>  <weinerPol>
57

>  <zagreb>
176

$$$$