P(OCC1OC(n2c3nc(F)nc(N)c3nc2)C(O)C1O)(O)(O)=O
  MOE2013           2D

 24 26  0  0  1  0  0  0  0  0999 V2000
    0.0000    0.0000    0.0000 P   0  0  0  0  0  0  0  0  0  0  0  0
   -1.3050   -0.7400    0.0000 O   0  0  0  0  0  0  0  0  0  0  0  0
   -2.5980    0.0190    0.0000 C   0  0  0  0  0  0  0  0  0  0  0  0
   -3.9030   -0.7210    0.0000 C   0  0  3  0  0  0  0  0  0  0  0  0
   -5.2680   -0.1010    0.0000 O   0  0  0  0  0  0  0  0  0  0  0  0
   -6.2800   -1.2080    0.0000 C   0  0  3  0  0  0  0  0  0  0  0  0
   -7.7710   -1.0410    0.0000 N   0  0  0  0  0  0  0  0  0  0  0  0
   -8.5110    0.2640    0.0000 C   0  0  0  0  0  0  0  0  0  0  0  0
   -8.0370    1.6870    0.0000 N   0  0  0  0  0  0  0  0  0  0  0  0
   -9.0330    2.8090    0.0000 C   0  0  0  0  0  0  0  0  0  0  0  0
   -8.5590    4.2320    0.0000 F   0  0  0  0  0  0  0  0  0  0  0  0
  -10.5020    2.5080    0.0000 N   0  0  0  0  0  0  0  0  0  0  0  0
  -10.9760    1.0850    0.0000 C   0  0  0  0  0  0  0  0  0  0  0  0
  -12.4460    0.7840    0.0000 N   0  0  0  0  0  0  0  0  0  0  0  0
   -9.9810   -0.0370    0.0000 C   0  0  0  0  0  0  0  0  0  0  0  0
  -10.1480   -1.5280    0.0000 N   0  0  0  0  0  0  0  0  0  0  0  0
   -8.7830   -2.1480    0.0000 C   0  0  0  0  0  0  0  0  0  0  0  0
   -5.5400   -2.5130    0.0000 C   0  0  3  0  0  0  0  0  0  0  0  0
   -6.1600   -3.8790    0.0000 O   0  0  0  0  0  0  0  0  0  0  0  0
   -4.0700   -2.2120    0.0000 C   0  0  3  0  0  0  0  0  0  0  0  0
   -2.9630   -3.2240    0.0000 O   0  0  0  0  0  0  0  0  0  0  0  0
   -0.7400    1.3050    0.0000 O   0  0  0  0  0  0  0  0  0  0  0  0
    0.7400   -1.3050    0.0000 O   0  0  0  0  0  0  0  0  0  0  0  0
    1.3050    0.7400    0.0000 O   0  0  0  0  0  0  0  0  0  0  0  0
  1  2  1  0  0  0  0
  1 22  1  0  0  0  0
  1 23  1  0  0  0  0
  1 24  2  0  0  0  0
  2  3  1  0  0  0  0
  3  4  1  0  0  0  0
  4  5  1  0  0  0  0
  4 20  1  0  0  0  0
  5  6  1  0  0  0  0
  6  7  1  0  0  0  0
  6 18  1  0  0  0  0
  7  8  1  0  0  0  0
  7 17  1  0  0  0  0
  8  9  1  0  0  0  0
  8 15  2  0  0  0  0
  9 10  2  0  0  0  0
 10 11  1  0  0  0  0
 10 12  1  0  0  0  0
 12 13  2  0  0  0  0
 13 14  1  0  0  0  0
 13 15  1  0  0  0  0
 15 16  1  0  0  0  0
 16 17  2  0  0  0  0
 18 19  1  0  0  0  0
 18 20  1  0  0  0  0
 20 21  1  0  0  0  0
M  END
>  <Index>
437

>  <ID>
HT0891

>  <class>
0

>  <apol>
41.569309

>  <ast_fraglike>
0

>  <ast_fraglike_ext>
0

>  <ast_violation>
3

>  <ast_violation_ext>
5

>  <a_acc>
10

>  <a_acid>
0

>  <a_aro>
9

>  <a_base>
0

>  <a_count>
37

>  <a_don>
6

>  <a_donacc>
16

>  <a_heavy>
24

>  <a_hyd>
6

>  <a_IC>
80.163651

>  <a_ICM>
2.1665852

>  <a_nB>
0

>  <a_nBr>
0

>  <a_nC>
10

>  <a_nCl>
0

>  <a_nF>
1

>  <a_nH>
13

>  <a_nI>
0

>  <a_nN>
5

>  <a_nO>
7

>  <a_nP>
1

>  <a_nS>
0

>  <balabanJ>
1.6648624

>  <BCUT_PEOE_0>
-2.5205259

>  <BCUT_PEOE_1>
-0.63365245

>  <BCUT_PEOE_2>
0.75035578

>  <BCUT_PEOE_3>
2.7750158

>  <BCUT_SLOGP_0>
-2.7074006

>  <BCUT_SLOGP_1>
-0.75786173

>  <BCUT_SLOGP_2>
0.54076505

>  <BCUT_SLOGP_3>
2.6563773

>  <BCUT_SMR_0>
-2.3260815

>  <BCUT_SMR_1>
-0.47460255

>  <BCUT_SMR_2>
0.84285092

>  <BCUT_SMR_3>
2.9656069

>  <bpol>
32.964691

>  <b_1rotN>
4

>  <b_1rotR>
0.15384616

>  <b_ar>
10

>  <b_count>
39

>  <b_double>
0

>  <b_heavy>
26

>  <b_max1len>
6

>  <b_rotN>
4

>  <b_rotR>
0.15384616

>  <b_single>
29

>  <b_triple>
0

>  <chi0>
17.645901

>  <chi0v>
12.693267

>  <chi0v_C>
5.5938582

>  <chi0_C>
6.0330157

>  <chi1>
11.170523

>  <chi1v>
8.0740652

>  <chi1v_C>
1.9082483

>  <chi1_C>
2.0749149

>  <chiral>
4

>  <chiral_u>
4

>  <density>
0.99914175

>  <diameter>
11

>  <FCharge>
0

>  <GCUT_PEOE_0>
-0.80400145

>  <GCUT_PEOE_1>
-0.42844236

>  <GCUT_PEOE_2>
0.16429578

>  <GCUT_PEOE_3>
2.6337681

>  <GCUT_SLOGP_0>
-1.3347228

>  <GCUT_SLOGP_1>
-0.63012272

>  <GCUT_SLOGP_2>
0.013531865

>  <GCUT_SLOGP_3>
2.59251

>  <GCUT_SMR_0>
-0.52579784

>  <GCUT_SMR_1>
-0.23583458

>  <GCUT_SMR_2>
0.24837871

>  <GCUT_SMR_3>
2.8566537

>  <Kier1>
18.781065

>  <Kier2>
6.9575

>  <Kier3>
3.9077277

>  <KierA1>
16.434933

>  <KierA2>
6.0512128

>  <KierA3>
3.3837659

>  <KierFlex>
4.1438031

>  <lip_acc>
12

>  <lip_don>
6

>  <lip_druglike>
0

>  <lip_violation>
2

>  <logP(o/w)>
-2.68594

>  <logS>
-1.64698

>  <mr>
7.6338677

>  <mutagenic>
1

>  <nmol>
1

>  <opr_brigid>
15

>  <opr_leadlike>
0

>  <opr_nring>
3

>  <opr_nrot>
5

>  <opr_violation>
2

>  <PC+>
0

>  <PC->
0

>  <PEOE_PC+>
3.3952866

>  <PEOE_PC->
-3.3952866

>  <PEOE_RPC+>
0.12107433

>  <PEOE_RPC->
0.11382291

>  <PEOE_VSA+0>
8.5307722

>  <PEOE_VSA+1>
32.012836

>  <PEOE_VSA+2>
75.345238

>  <PEOE_VSA+3>
41.234848

>  <PEOE_VSA+4>
20.648346

>  <PEOE_VSA+5>
0

>  <PEOE_VSA+6>
36.715939

>  <PEOE_VSA-0>
0

>  <PEOE_VSA-1>
0

>  <PEOE_VSA-2>
15.729136

>  <PEOE_VSA-3>
23.273788

>  <PEOE_VSA-4>
5.6825762

>  <PEOE_VSA-5>
31.176603

>  <PEOE_VSA-6>
18.038837

>  <PEOE_VSA_FHYD>
0.63597167

>  <PEOE_VSA_FNEG>
0.30448869

>  <PEOE_VSA_FPNEG>
0.17801553

>  <PEOE_VSA_FPOL>
0.3640283

>  <PEOE_VSA_FPOS>
0.69551128

>  <PEOE_VSA_FPPOS>
0.18601279

>  <PEOE_VSA_HYD>
196.12662

>  <PEOE_VSA_NEG>
93.90094

>  <PEOE_VSA_PNEG>
54.898014

>  <PEOE_VSA_POL>
112.2623

>  <PEOE_VSA_POS>
214.48798

>  <PEOE_VSA_PPOS>
57.364281

>  <petitjean>
0.45454547

>  <petitjeanSC>
0.83333331

>  <Q_PC+>
0

>  <Q_PC->
0

>  <Q_RPC+>
0

>  <Q_RPC->
0

>  <Q_VSA_FHYD>
1

>  <Q_VSA_FNEG>
0

>  <Q_VSA_FPNEG>
0

>  <Q_VSA_FPOL>
0

>  <Q_VSA_FPOS>
1

>  <Q_VSA_FPPOS>
0

>  <Q_VSA_HYD>
308.38892

>  <Q_VSA_NEG>
0

>  <Q_VSA_PNEG>
0

>  <Q_VSA_POL>
0

>  <Q_VSA_POS>
308.38892

>  <Q_VSA_PPOS>
0

>  <radius>
6

>  <reactive>
1

>  <rings>
3

>  <RPC+>
0

>  <RPC->
0

>  <rsynth>
1

>  <SlogP>
-2.6986001

>  <SlogP_VSA0>
148.71535

>  <SlogP_VSA1>
52.25568

>  <SlogP_VSA2>
45.590828

>  <SlogP_VSA3>
20.926258

>  <SlogP_VSA4>
0

>  <SlogP_VSA5>
0

>  <SlogP_VSA6>
0

>  <SlogP_VSA7>
20.644976

>  <SlogP_VSA8>
6.0398216

>  <SlogP_VSA9>
33.982876

>  <SMR>
7.3037601

>  <SMR_VSA0>
40.355282

>  <SMR_VSA1>
160.60019

>  <SMR_VSA2>
8.2633629

>  <SMR_VSA3>
25.44577

>  <SMR_VSA4>
6.187367

>  <SMR_VSA5>
49.682716

>  <SMR_VSA6>
20.926258

>  <SMR_VSA7>
16.694841

>  <TPSA>
186.07001

>  <VAdjEq>
0.43739632

>  <VAdjMa>
5.7004399

>  <VDistEq>
3.3115411

>  <VDistMa>
8.8771276

>  <vdw_area>
308.38892

>  <vdw_vol>
365.52771

>  <vsa_acc>
24.217457

>  <vsa_acid>
0

>  <vsa_base>
0

>  <vsa_don>
17.742489

>  <vsa_hyd>
66.042221

>  <vsa_other>
96.837112

>  <vsa_pol>
116.2812

>  <Weight>
365.21399

>  <weinerPath>
1330

>  <weinerPol>
38

>  <zagreb>
132

$$$$