O1C2(c3c(cccc3)C1=O)c1c(Oc3c2ccc(O)c3)cc(O)cc1
  MOE2013           2D

 25 29  0  0  0  0  0  0  0  0999 V2000
    0.0000    0.0000    0.0000 O   0  0  0  0  0  0  0  0  0  0  0  0
   -1.2060    0.8910    0.0000 C   0  0  0  0  0  0  0  0  0  0  0  0
   -2.4270    0.0200    0.0000 C   0  0  0  0  0  0  0  0  0  0  0  0
   -1.9750   -1.4110    0.0000 C   0  0  0  0  0  0  0  0  0  0  0  0
   -2.9880   -2.5170    0.0000 C   0  0  0  0  0  0  0  0  0  0  0  0
   -4.4520   -2.1940    0.0000 C   0  0  0  0  0  0  0  0  0  0  0  0
   -4.9040   -0.7630    0.0000 C   0  0  0  0  0  0  0  0  0  0  0  0
   -3.8920    0.3430    0.0000 C   0  0  0  0  0  0  0  0  0  0  0  0
   -0.4750   -1.4230    0.0000 C   0  0  0  0  0  0  0  0  0  0  0  0
    0.3970   -2.6430    0.0000 O   0  0  0  0  0  0  0  0  0  0  0  0
    0.2680    1.1660    0.0000 C   0  0  0  0  0  0  0  0  0  0  0  0
    0.7680    2.5800    0.0000 C   0  0  0  0  0  0  0  0  0  0  0  0
   -0.2070    3.7200    0.0000 O   0  0  0  0  0  0  0  0  0  0  0  0
   -1.6820    3.4460    0.0000 C   0  0  0  0  0  0  0  0  0  0  0  0
   -2.1810    2.0310    0.0000 C   0  0  0  0  0  0  0  0  0  0  0  0
   -3.6560    1.7570    0.0000 C   0  0  0  0  0  0  0  0  0  0  0  0
   -4.6310    2.8970    0.0000 C   0  0  0  0  0  0  0  0  0  0  0  0
   -4.1310    4.3110    0.0000 C   0  0  0  0  0  0  0  0  0  0  0  0
   -5.1060    5.4510    0.0000 O   0  0  0  0  0  0  0  0  0  0  0  0
   -2.6570    4.5860    0.0000 C   0  0  0  0  0  0  0  0  0  0  0  0
    2.2430    2.8540    0.0000 C   0  0  0  0  0  0  0  0  0  0  0  0
    3.2180    1.7150    0.0000 C   0  0  0  0  0  0  0  0  0  0  0  0
    4.6920    1.9890    0.0000 O   0  0  0  0  0  0  0  0  0  0  0  0
    2.7180    0.3000    0.0000 C   0  0  0  0  0  0  0  0  0  0  0  0
    1.2430    0.0260    0.0000 C   0  0  0  0  0  0  0  0  0  0  0  0
  1  2  1  0  0  0  0
  1  9  1  0  0  0  0
  2  3  1  0  0  0  0
  2 11  1  0  0  0  0
  2 15  1  0  0  0  0
  3  4  1  0  0  0  0
  3  8  2  0  0  0  0
  4  5  2  0  0  0  0
  4  9  1  0  0  0  0
  5  6  1  0  0  0  0
  6  7  2  0  0  0  0
  7  8  1  0  0  0  0
  9 10  2  0  0  0  0
 11 12  1  0  0  0  0
 11 25  2  0  0  0  0
 12 13  1  0  0  0  0
 12 21  2  0  0  0  0
 13 14  1  0  0  0  0
 14 15  1  0  0  0  0
 14 20  2  0  0  0  0
 15 16  2  0  0  0  0
 16 17  1  0  0  0  0
 17 18  2  0  0  0  0
 18 19  1  0  0  0  0
 18 20  1  0  0  0  0
 21 22  1  0  0  0  0
 22 23  1  0  0  0  0
 22 24  2  0  0  0  0
 24 25  1  0  0  0  0
M  END
>  <Index>
446

>  <ID>
HT0906

>  <class>
0

>  <apol>
47.211517

>  <ast_fraglike>
0

>  <ast_fraglike_ext>
0

>  <ast_violation>
2

>  <ast_violation_ext>
2

>  <a_acc>
3

>  <a_acid>
0

>  <a_aro>
18

>  <a_base>
0

>  <a_count>
37

>  <a_don>
2

>  <a_donacc>
5

>  <a_heavy>
25

>  <a_hyd>
19

>  <a_IC>
51.682022

>  <a_ICM>
1.3968114

>  <a_nB>
0

>  <a_nBr>
0

>  <a_nC>
20

>  <a_nCl>
0

>  <a_nF>
0

>  <a_nH>
12

>  <a_nI>
0

>  <a_nN>
0

>  <a_nO>
5

>  <a_nP>
0

>  <a_nS>
0

>  <balabanJ>
1.5624003

>  <BCUT_PEOE_0>
-2.4221537

>  <BCUT_PEOE_1>
-0.81706285

>  <BCUT_PEOE_2>
0.84670311

>  <BCUT_PEOE_3>
2.5480754

>  <BCUT_SLOGP_0>
-2.2765734

>  <BCUT_SLOGP_1>
-0.74577343

>  <BCUT_SLOGP_2>
0.85732359

>  <BCUT_SLOGP_3>
2.6739118

>  <BCUT_SMR_0>
-2.1396189

>  <BCUT_SMR_1>
-0.59893757

>  <BCUT_SMR_2>
1.0461686

>  <BCUT_SMR_3>
2.8208454

>  <bpol>
17.908484

>  <b_1rotN>
0

>  <b_1rotR>
0

>  <b_ar>
18

>  <b_count>
41

>  <b_double>
1

>  <b_heavy>
29

>  <b_max1len>
1

>  <b_rotN>
0

>  <b_rotR>
0

>  <b_single>
22

>  <b_triple>
0

>  <chi0>
17.181435

>  <chi0v>
12.892674

>  <chi0v_C>
10.773502

>  <chi0_C>
12.76722

>  <chi1>
12.092191

>  <chi1v>
7.7712522

>  <chi1v_C>
6.3034182

>  <chi1_C>
8.7818413

>  <chiral>
0

>  <chiral_u>
0

>  <density>
0.79229206

>  <diameter>
9

>  <FCharge>
0

>  <GCUT_PEOE_0>
-0.76424187

>  <GCUT_PEOE_1>
-0.52688414

>  <GCUT_PEOE_2>
0.12325176

>  <GCUT_PEOE_3>
2.7090364

>  <GCUT_SLOGP_0>
-0.80718154

>  <GCUT_SLOGP_1>
-0.37464467

>  <GCUT_SLOGP_2>
0.16758168

>  <GCUT_SLOGP_3>
2.8658063

>  <GCUT_SMR_0>
-0.46202609

>  <GCUT_SMR_1>
-0.26257804

>  <GCUT_SMR_2>
0.30166456

>  <GCUT_SMR_3>
2.9962394

>  <Kier1>
17.122473

>  <Kier2>
6.2696295

>  <Kier3>
2.5121107

>  <KierA1>
12.130488

>  <KierA2>
4.3725195

>  <KierA3>
1.7313869

>  <KierFlex>
2.1216321

>  <lip_acc>
5

>  <lip_don>
2

>  <lip_druglike>
1

>  <lip_violation>
0

>  <logP(o/w)>
4.1259999

>  <logS>
-5.2498598

>  <mr>
8.8707466

>  <mutagenic>
0

>  <nmol>
1

>  <opr_brigid>
26

>  <opr_leadlike>
1

>  <opr_nring>
5

>  <opr_nrot>
0

>  <opr_violation>
1

>  <PC+>
0

>  <PC->
0

>  <PEOE_PC+>
1.967851

>  <PEOE_PC->
-1.967851

>  <PEOE_RPC+>
0.15023245

>  <PEOE_RPC->
0.18281336

>  <PEOE_VSA+0>
6.6256189

>  <PEOE_VSA+1>
78.69648

>  <PEOE_VSA+2>
0

>  <PEOE_VSA+3>
0

>  <PEOE_VSA+4>
20.648346

>  <PEOE_VSA+5>
14.708499

>  <PEOE_VSA+6>
0

>  <PEOE_VSA-0>
61.274521

>  <PEOE_VSA-1>
61.274521

>  <PEOE_VSA-2>
0

>  <PEOE_VSA-3>
0

>  <PEOE_VSA-4>
0

>  <PEOE_VSA-5>
16.070677

>  <PEOE_VSA-6>
18.038837

>  <PEOE_VSA_FHYD>
0.74952412

>  <PEOE_VSA_FNEG>
0.56486613

>  <PEOE_VSA_FPNEG>
0.12298919

>  <PEOE_VSA_FPOL>
0.25047591

>  <PEOE_VSA_FPOS>
0.43513387

>  <PEOE_VSA_FPPOS>
0.12748671

>  <PEOE_VSA_HYD>
207.87114

>  <PEOE_VSA_NEG>
156.65855

>  <PEOE_VSA_PNEG>
34.109512

>  <PEOE_VSA_POL>
69.466354

>  <PEOE_VSA_POS>
120.67894

>  <PEOE_VSA_PPOS>
35.356846

>  <petitjean>
0.44444445

>  <petitjeanSC>
0.80000001

>  <Q_PC+>
0

>  <Q_PC->
0

>  <Q_RPC+>
0

>  <Q_RPC->
0

>  <Q_VSA_FHYD>
1

>  <Q_VSA_FNEG>
0

>  <Q_VSA_FPNEG>
0

>  <Q_VSA_FPOL>
0

>  <Q_VSA_FPOS>
1

>  <Q_VSA_FPPOS>
0

>  <Q_VSA_HYD>
277.33749

>  <Q_VSA_NEG>
0

>  <Q_VSA_PNEG>
0

>  <Q_VSA_POL>
0

>  <Q_VSA_POS>
277.33749

>  <Q_VSA_PPOS>
0

>  <radius>
5

>  <reactive>
1

>  <rings>
5

>  <RPC+>
0

>  <RPC->
0

>  <rsynth>
0.039999999

>  <SlogP>
3.9772999

>  <SlogP_VSA0>
61.77034

>  <SlogP_VSA1>
7.7454643

>  <SlogP_VSA2>
10.999887

>  <SlogP_VSA3>
0

>  <SlogP_VSA4>
36.604515

>  <SlogP_VSA5>
0

>  <SlogP_VSA6>
0

>  <SlogP_VSA7>
176.43184

>  <SlogP_VSA8>
0

>  <SlogP_VSA9>
20.973713

>  <SMR>
8.8144102

>  <SMR_VSA0>
34.862103

>  <SMR_VSA1>
61.77034

>  <SMR_VSA2>
0

>  <SMR_VSA3>
33.716011

>  <SMR_VSA4>
0

>  <SMR_VSA5>
176.43184

>  <SMR_VSA6>
7.7454643

>  <SMR_VSA7>
0

>  <TPSA>
75.989998

>  <VAdjEq>
0.44574744

>  <VAdjMa>
5.8579812

>  <VDistEq>
2.9220321

>  <VDistMa>
9.0559063

>  <vdw_area>
277.33749

>  <vdw_vol>
419.42993

>  <vsa_acc>
13.566921

>  <vsa_acid>
0

>  <vsa_base>
0

>  <vsa_don>
0

>  <vsa_hyd>
200.75319

>  <vsa_other>
19.716011

>  <vsa_pol>
40.700764

>  <Weight>
332.311

>  <weinerPath>
1221

>  <weinerPol>
51

>  <zagreb>
148

$$$$