Clc1c2c(cc(O)c1O)C(CNCC2)c1ccc(O)cc1
  MOE2013           2D

 21 23  0  0  1  0  0  0  0  0999 V2000
    0.0000    0.0000    0.0000 Cl  0  0  0  0  0  0  0  0  0  0  0  0
    1.5000   -0.0040    0.0000 C   0  0  0  0  0  0  0  0  0  0  0  0
    2.2540    1.2930    0.0000 C   0  0  0  0  0  0  0  0  0  0  0  0
    3.7540    1.2890    0.0000 C   0  0  0  0  0  0  0  0  0  0  0  0
    4.5000   -0.0130    0.0000 C   0  0  0  0  0  0  0  0  0  0  0  0
    3.7460   -1.3090    0.0000 C   0  0  0  0  0  0  0  0  0  0  0  0
    4.4930   -2.6110    0.0000 O   0  0  0  0  0  0  0  0  0  0  0  0
    2.2460   -1.3050    0.0000 C   0  0  0  0  0  0  0  0  0  0  0  0
    1.4930   -2.6020    0.0000 O   0  0  0  0  0  0  0  0  0  0  0  0
    4.6910    2.4600    0.0000 C   0  0  3  0  0  0  0  0  0  0  0  0
    4.3600    3.9230    0.0000 C   0  0  0  0  0  0  0  0  0  0  0  0
    3.0100    4.5770    0.0000 N   0  0  0  0  0  0  0  0  0  0  0  0
    1.6570    3.9290    0.0000 C   0  0  0  0  0  0  0  0  0  0  0  0
    1.3210    2.4680    0.0000 C   0  0  0  0  0  0  0  0  0  0  0  0
    6.1520    2.1230    0.0000 C   0  0  0  0  0  0  0  0  0  0  0  0
    6.5920    0.6890    0.0000 C   0  0  0  0  0  0  0  0  0  0  0  0
    8.0540    0.3530    0.0000 C   0  0  0  0  0  0  0  0  0  0  0  0
    9.0760    1.4510    0.0000 C   0  0  0  0  0  0  0  0  0  0  0  0
   10.5380    1.1140    0.0000 O   0  0  0  0  0  0  0  0  0  0  0  0
    8.6360    2.8850    0.0000 C   0  0  0  0  0  0  0  0  0  0  0  0
    7.1750    3.2210    0.0000 C   0  0  0  0  0  0  0  0  0  0  0  0
  1  2  1  0  0  0  0
  2  3  1  0  0  0  0
  2  8  2  0  0  0  0
  3  4  2  0  0  0  0
  3 14  1  0  0  0  0
  4  5  1  0  0  0  0
  4 10  1  0  0  0  0
  5  6  2  0  0  0  0
  6  7  1  0  0  0  0
  6  8  1  0  0  0  0
  8  9  1  0  0  0  0
 10 11  1  0  0  0  0
 10 15  1  0  0  0  0
 11 12  1  0  0  0  0
 12 13  1  0  0  0  0
 13 14  1  0  0  0  0
 15 16  1  0  0  0  0
 15 21  2  0  0  0  0
 16 17  2  0  0  0  0
 17 18  1  0  0  0  0
 18 19  1  0  0  0  0
 18 20  2  0  0  0  0
 20 21  1  0  0  0  0
M  END
>  <Index>
426

>  <ID>
HT0861

>  <class>
0

>  <apol>
44.514687

>  <ast_fraglike>
0

>  <ast_fraglike_ext>
0

>  <ast_violation>
3

>  <ast_violation_ext>
3

>  <a_acc>
4

>  <a_acid>
0

>  <a_aro>
12

>  <a_base>
0

>  <a_count>
37

>  <a_don>
4

>  <a_donacc>
8

>  <a_heavy>
21

>  <a_hyd>
17

>  <a_IC>
59.994888

>  <a_ICM>
1.6214834

>  <a_nB>
0

>  <a_nBr>
0

>  <a_nC>
16

>  <a_nCl>
1

>  <a_nF>
0

>  <a_nH>
16

>  <a_nI>
0

>  <a_nN>
1

>  <a_nO>
3

>  <a_nP>
0

>  <a_nS>
0

>  <balabanJ>
1.766874

>  <BCUT_PEOE_0>
-2.5649371

>  <BCUT_PEOE_1>
-0.64298338

>  <BCUT_PEOE_2>
0.70295405

>  <BCUT_PEOE_3>
2.5869062

>  <BCUT_SLOGP_0>
-2.7083733

>  <BCUT_SLOGP_1>
-0.63201326

>  <BCUT_SLOGP_2>
0.80591482

>  <BCUT_SLOGP_3>
2.623982

>  <BCUT_SMR_0>
-2.2833622

>  <BCUT_SMR_1>
-0.49986199

>  <BCUT_SMR_2>
0.85431087

>  <BCUT_SMR_3>
2.8710115

>  <bpol>
18.571312

>  <b_1rotN>
1

>  <b_1rotR>
0.043478262

>  <b_ar>
12

>  <b_count>
39

>  <b_double>
0

>  <b_heavy>
23

>  <b_max1len>
2

>  <b_rotN>
1

>  <b_rotR>
0.043478262

>  <b_single>
27

>  <b_triple>
0

>  <chi0>
14.982763

>  <chi0v>
12.060956

>  <chi0v_C>
9.0854216

>  <chi0_C>
10.275657

>  <chi1>
10.075387

>  <chi1v>
7.1827431

>  <chi1v_C>
5.2378693

>  <chi1_C>
6.7659864

>  <chiral>
1

>  <chiral_u>
1

>  <density>
0.79320753

>  <diameter>
10

>  <FCharge>
0

>  <GCUT_PEOE_0>
-0.84757537

>  <GCUT_PEOE_1>
-0.40934324

>  <GCUT_PEOE_2>
0.12590022

>  <GCUT_PEOE_3>
2.6835265

>  <GCUT_SLOGP_0>
-1.1527297

>  <GCUT_SLOGP_1>
-0.34165427

>  <GCUT_SLOGP_2>
0.16489726

>  <GCUT_SLOGP_3>
2.7988718

>  <GCUT_SMR_0>
-0.51180375

>  <GCUT_SMR_1>
-0.24260469

>  <GCUT_SMR_2>
0.23183091

>  <GCUT_SMR_3>
2.9646082

>  <Kier1>
15.879017

>  <Kier2>
6.6299357

>  <Kier3>
3.2

>  <KierA1>
13.428945

>  <KierA2>
5.5570655

>  <KierA3>
2.6638141

>  <KierFlex>
3.5535965

>  <lip_acc>
4

>  <lip_don>
4

>  <lip_druglike>
1

>  <lip_violation>
0

>  <logP(o/w)>
3.0250001

>  <logS>
-2.6616199

>  <mr>
8.1529331

>  <mutagenic>
0

>  <nmol>
1

>  <opr_brigid>
18

>  <opr_leadlike>
1

>  <opr_nring>
3

>  <opr_nrot>
3

>  <opr_violation>
0

>  <PC+>
0

>  <PC->
0

>  <PEOE_PC+>
1.7731049

>  <PEOE_PC->
-1.7731049

>  <PEOE_RPC+>
0.12264774

>  <PEOE_RPC->
0.20293912

>  <PEOE_VSA+0>
43.050026

>  <PEOE_VSA+1>
34.305195

>  <PEOE_VSA+2>
25.536053

>  <PEOE_VSA+3>
0

>  <PEOE_VSA+4>
30.972517

>  <PEOE_VSA+5>
0

>  <PEOE_VSA+6>
0

>  <PEOE_VSA-0>
65.283966

>  <PEOE_VSA-1>
54.091755

>  <PEOE_VSA-2>
0

>  <PEOE_VSA-3>
0

>  <PEOE_VSA-4>
0

>  <PEOE_VSA-5>
0

>  <PEOE_VSA-6>
23.439512

>  <PEOE_VSA_FHYD>
0.80333883

>  <PEOE_VSA_FNEG>
0.51617658

>  <PEOE_VSA_FPNEG>
0.084717341

>  <PEOE_VSA_FPOL>
0.1966612

>  <PEOE_VSA_FPOS>
0.48382342

>  <PEOE_VSA_FPPOS>
0.11194386

>  <PEOE_VSA_HYD>
222.267

>  <PEOE_VSA_NEG>
142.81523

>  <PEOE_VSA_PNEG>
23.439512

>  <PEOE_VSA_POL>
54.412029

>  <PEOE_VSA_POS>
133.8638

>  <PEOE_VSA_PPOS>
30.972517

>  <petitjean>
0.5

>  <petitjeanSC>
1

>  <Q_PC+>
0

>  <Q_PC->
0

>  <Q_RPC+>
0

>  <Q_RPC->
0

>  <Q_VSA_FHYD>
1

>  <Q_VSA_FNEG>
0

>  <Q_VSA_FPNEG>
0

>  <Q_VSA_FPOL>
0

>  <Q_VSA_FPOS>
1

>  <Q_VSA_FPPOS>
0

>  <Q_VSA_HYD>
276.67902

>  <Q_VSA_NEG>
0

>  <Q_VSA_PNEG>
0

>  <Q_VSA_POL>
0

>  <Q_VSA_POS>
276.67902

>  <Q_VSA_PPOS>
0

>  <radius>
5

>  <reactive>
0

>  <rings>
3

>  <RPC+>
0

>  <RPC->
0

>  <rsynth>
0

>  <SlogP>
2.73437

>  <SlogP_VSA0>
94.166428

>  <SlogP_VSA1>
0

>  <SlogP_VSA2>
0

>  <SlogP_VSA3>
36.879158

>  <SlogP_VSA4>
9.5567245

>  <SlogP_VSA5>
18.868406

>  <SlogP_VSA6>
7.9114027

>  <SlogP_VSA7>
88.215919

>  <SlogP_VSA8>
0

>  <SlogP_VSA9>
54.878929

>  <SMR>
8.1305103

>  <SMR_VSA0>
0

>  <SMR_VSA1>
76.155678

>  <SMR_VSA2>
18.01075

>  <SMR_VSA3>
33.19841

>  <SMR_VSA4>
0

>  <SMR_VSA5>
107.08433

>  <SMR_VSA6>
36.879158

>  <SMR_VSA7>
39.148643

>  <TPSA>
72.720001

>  <VAdjEq>
0.48250595

>  <VAdjMa>
5.523562

>  <VDistEq>
3.0046449

>  <VDistMa>
8.5167131

>  <vdw_area>
276.67902

>  <vdw_vol>
385.47415

>  <vsa_acc>
0

>  <vsa_acid>
0

>  <vsa_base>
0

>  <vsa_don>
0

>  <vsa_hyd>
203.76138

>  <vsa_other>
0

>  <vsa_pol>
46.383339

>  <Weight>
305.76099

>  <weinerPath>
851

>  <weinerPol>
39

>  <zagreb>
112

$$$$