O=C1N(CCc2n(c3c(c12)cccc3)C)Cc1nc[nH]c1C
  MOE2013           2D

 22 25  0  0  0  0  0  0  0  0999 V2000
    0.0000    0.0000    0.0000 O   0  0  0  0  0  0  0  0  0  0  0  0
    0.0090    1.5000    0.0000 C   0  0  0  0  0  0  0  0  0  0  0  0
    1.3130    2.2420    0.0000 N   0  0  0  0  0  0  0  0  0  0  0  0
    1.3220    3.7420    0.0000 C   0  0  0  0  0  0  0  0  0  0  0  0
    0.0280    4.5000    0.0000 C   0  0  0  0  0  0  0  0  0  0  0  0
   -1.2760    3.7580    0.0000 C   0  0  0  0  0  0  0  0  0  0  0  0
   -2.7000    4.2300    0.0000 N   0  0  0  0  0  0  0  0  0  0  0  0
   -3.5890    3.0220    0.0000 C   0  0  0  0  0  0  0  0  0  0  0  0
   -2.7150    1.8030    0.0000 C   0  0  0  0  0  0  0  0  0  0  0  0
   -1.2850    2.2580    0.0000 C   0  0  0  0  0  0  0  0  0  0  0  0
   -3.3330    0.4370    0.0000 C   0  0  0  0  0  0  0  0  0  0  0  0
   -4.8260    0.2890    0.0000 C   0  0  0  0  0  0  0  0  0  0  0  0
   -5.7000    1.5080    0.0000 C   0  0  0  0  0  0  0  0  0  0  0  0
   -5.0810    2.8750    0.0000 C   0  0  0  0  0  0  0  0  0  0  0  0
   -3.1540    5.6600    0.0000 C   0  0  0  0  0  0  0  0  0  0  0  0
    2.6070    1.4840    0.0000 C   0  0  0  0  0  0  0  0  0  0  0  0
    3.9110    2.2260    0.0000 C   0  0  0  0  0  0  0  0  0  0  0  0
    4.0770    3.7170    0.0000 N   0  0  0  0  0  0  0  0  0  0  0  0
    5.5460    4.0200    0.0000 C   0  0  0  0  0  0  0  0  0  0  0  0
    6.2880    2.7160    0.0000 N   0  0  0  0  0  0  0  0  0  0  0  0
    5.2770    1.6070    0.0000 C   0  0  0  0  0  0  0  0  0  0  0  0
    5.5800    0.1380    0.0000 C   0  0  0  0  0  0  0  0  0  0  0  0
  1  2  2  0  0  0  0
  2  3  1  0  0  0  0
  2 10  1  0  0  0  0
  3  4  1  0  0  0  0
  3 16  1  0  0  0  0
  4  5  1  0  0  0  0
  5  6  1  0  0  0  0
  6  7  1  0  0  0  0
  6 10  2  0  0  0  0
  7  8  1  0  0  0  0
  7 15  1  0  0  0  0
  8  9  1  0  0  0  0
  8 14  2  0  0  0  0
  9 10  1  0  0  0  0
  9 11  2  0  0  0  0
 11 12  1  0  0  0  0
 12 13  2  0  0  0  0
 13 14  1  0  0  0  0
 16 17  1  0  0  0  0
 17 18  1  0  0  0  0
 17 21  2  0  0  0  0
 18 19  2  0  0  0  0
 19 20  1  0  0  0  0
 20 21  1  0  0  0  0
 21 22  1  0  0  0  0
M  END
>  <Index>
50

>  <ID>
HT0110

>  <class>
0

>  <apol>
47.124275

>  <ast_fraglike>
0

>  <ast_fraglike_ext>
0

>  <ast_violation>
1

>  <ast_violation_ext>
1

>  <a_acc>
3

>  <a_acid>
0

>  <a_aro>
14

>  <a_base>
0

>  <a_count>
40

>  <a_don>
2

>  <a_donacc>
5

>  <a_heavy>
22

>  <a_hyd>
15

>  <a_IC>
60.331604

>  <a_ICM>
1.5082902

>  <a_nB>
0

>  <a_nBr>
0

>  <a_nC>
17

>  <a_nCl>
0

>  <a_nF>
0

>  <a_nH>
18

>  <a_nI>
0

>  <a_nN>
4

>  <a_nO>
1

>  <a_nP>
0

>  <a_nS>
0

>  <balabanJ>
1.481707

>  <BCUT_PEOE_0>
-2.5867288

>  <BCUT_PEOE_1>
-0.51947176

>  <BCUT_PEOE_2>
0.60506994

>  <BCUT_PEOE_3>
2.5720351

>  <BCUT_SLOGP_0>
-2.6422148

>  <BCUT_SLOGP_1>
-0.42564571

>  <BCUT_SLOGP_2>
0.69889748

>  <BCUT_SLOGP_3>
2.5649085

>  <BCUT_SMR_0>
-2.3110301

>  <BCUT_SMR_1>
-0.36069635

>  <BCUT_SMR_2>
0.75868237

>  <BCUT_SMR_3>
2.8514066

>  <bpol>
26.575726

>  <b_1rotN>
2

>  <b_1rotR>
0.079999998

>  <b_ar>
15

>  <b_count>
43

>  <b_double>
1

>  <b_heavy>
25

>  <b_max1len>
2

>  <b_rotN>
2

>  <b_rotR>
0.079999998

>  <b_single>
27

>  <b_triple>
0

>  <chi0>
15.26722

>  <chi0v>
12.75796

>  <chi0v_C>
10.508072

>  <chi0_C>
11.698306

>  <chi1>
10.664703

>  <chi1v>
7.5095515

>  <chi1v_C>
4.5344572

>  <chi1_C>
5.8770099

>  <chiral>
0

>  <chiral_u>
0

>  <density>
0.72355318

>  <diameter>
10

>  <FCharge>
0

>  <GCUT_PEOE_0>
-0.86958194

>  <GCUT_PEOE_1>
-0.37464997

>  <GCUT_PEOE_2>
0.062403172

>  <GCUT_PEOE_3>
2.6861634

>  <GCUT_SLOGP_0>
-0.93164653

>  <GCUT_SLOGP_1>
-0.27800554

>  <GCUT_SLOGP_2>
0.1435125

>  <GCUT_SLOGP_3>
2.7519431

>  <GCUT_SMR_0>
-0.50704581

>  <GCUT_SMR_1>
-0.18970408

>  <GCUT_SMR_2>
0.17352395

>  <GCUT_SMR_3>
2.9729731

>  <Kier1>
15.5232

>  <Kier2>
6.1358657

>  <Kier3>
2.6063101

>  <KierA1>
10.832113

>  <KierA2>
4.2015314

>  <KierA3>
1.7603157

>  <KierFlex>
2.0687029

>  <lip_acc>
5

>  <lip_don>
1

>  <lip_druglike>
1

>  <lip_violation>
0

>  <logP(o/w)>
1.768

>  <logS>
-2.7841499

>  <mr>
8.5207615

>  <mutagenic>
0

>  <nmol>
1

>  <opr_brigid>
20

>  <opr_leadlike>
1

>  <opr_nring>
4

>  <opr_nrot>
2

>  <opr_violation>
0

>  <PC+>
0

>  <PC->
0

>  <PEOE_PC+>
1.7652547

>  <PEOE_PC->
-1.7652547

>  <PEOE_RPC+>
0.14571537

>  <PEOE_RPC->
0.19721332

>  <PEOE_VSA+0>
110.09338

>  <PEOE_VSA+1>
68.929657

>  <PEOE_VSA+2>
4.2653861

>  <PEOE_VSA+3>
8.6190128

>  <PEOE_VSA+4>
0

>  <PEOE_VSA+5>
12.949531

>  <PEOE_VSA+6>
0

>  <PEOE_VSA-0>
31.002581

>  <PEOE_VSA-1>
36.764713

>  <PEOE_VSA-2>
0

>  <PEOE_VSA-3>
0

>  <PEOE_VSA-4>
5.6825762

>  <PEOE_VSA-5>
13.566921

>  <PEOE_VSA-6>
0.13689101

>  <PEOE_VSA_FHYD>
0.88926458

>  <PEOE_VSA_FNEG>
0.29846063

>  <PEOE_VSA_FPNEG>
0.066389315

>  <PEOE_VSA_FPOL>
0.11073541

>  <PEOE_VSA_FPOS>
0.7015394

>  <PEOE_VSA_FPPOS>
0.04434609

>  <PEOE_VSA_HYD>
259.67474

>  <PEOE_VSA_NEG>
87.153679

>  <PEOE_VSA_PNEG>
19.386389

>  <PEOE_VSA_POL>
32.335918

>  <PEOE_VSA_POS>
204.85696

>  <PEOE_VSA_PPOS>
12.949531

>  <petitjean>
0.5

>  <petitjeanSC>
1

>  <Q_PC+>
0

>  <Q_PC->
0

>  <Q_RPC+>
0

>  <Q_RPC->
0

>  <Q_VSA_FHYD>
1

>  <Q_VSA_FNEG>
0

>  <Q_VSA_FPNEG>
0

>  <Q_VSA_FPOL>
0

>  <Q_VSA_FPOS>
1

>  <Q_VSA_FPPOS>
0

>  <Q_VSA_HYD>
292.01065

>  <Q_VSA_NEG>
0

>  <Q_VSA_PNEG>
0

>  <Q_VSA_POL>
0

>  <Q_VSA_POS>
292.01065

>  <Q_VSA_PPOS>
0

>  <radius>
5

>  <reactive>
0

>  <rings>
4

>  <RPC+>
0

>  <RPC->
0

>  <rsynth>
1

>  <SlogP>
3.03389

>  <SlogP_VSA0>
0

>  <SlogP_VSA1>
27.06772

>  <SlogP_VSA2>
16.78553

>  <SlogP_VSA3>
18.439579

>  <SlogP_VSA4>
35.318035

>  <SlogP_VSA5>
18.868406

>  <SlogP_VSA6>
0

>  <SlogP_VSA7>
92.075371

>  <SlogP_VSA8>
0

>  <SlogP_VSA9>
84.662781

>  <SMR>
8.5174198

>  <SMR_VSA0>
23.862217

>  <SMR_VSA1>
21.808937

>  <SMR_VSA2>
16.78553

>  <SMR_VSA3>
11.455817

>  <SMR_VSA4>
4.7171016

>  <SMR_VSA5>
124.66625

>  <SMR_VSA6>
23.698362

>  <SMR_VSA7>
66.223206

>  <TPSA>
53.919998

>  <VAdjEq>
0.47938794

>  <VAdjMa>
5.643856

>  <VDistEq>
3.1311238

>  <VDistMa>
8.6304626

>  <vdw_area>
292.01065

>  <vdw_vol>
406.82291

>  <vsa_acc>
13.566921

>  <vsa_acid>
0

>  <vsa_base>
0

>  <vsa_don>
0

>  <vsa_hyd>
214.16467

>  <vsa_other>
37.740047

>  <vsa_pol>
24.932074

>  <Weight>
294.358

>  <weinerPath>
997

>  <weinerPol>
38

>  <zagreb>
124

$$$$