Fc1cc2c(N(C=C(C(O)=O)C2=O)C2CC2)c(OC)c1N1CC(NCC1)C
  MOE2013           2D

 27 30  0  0  1  0  0  0  0  0999 V2000
    0.0000    0.0000    0.0000 F   0  0  0  0  0  0  0  0  0  0  0  0
   -1.3050    0.7390    0.0000 C   0  0  0  0  0  0  0  0  0  0  0  0
   -2.5980   -0.0210    0.0000 C   0  0  0  0  0  0  0  0  0  0  0  0
   -3.9030    0.7180    0.0000 C   0  0  0  0  0  0  0  0  0  0  0  0
   -3.9150    2.2180    0.0000 C   0  0  0  0  0  0  0  0  0  0  0  0
   -5.2200    2.9580    0.0000 N   0  0  3  0  0  0  0  0  0  0  0  0
   -6.5130    2.1970    0.0000 C   0  0  0  0  0  0  0  0  0  0  0  0
   -6.5010    0.6970    0.0000 C   0  0  0  0  0  0  0  0  0  0  0  0
   -7.7940   -0.0630    0.0000 C   0  0  0  0  0  0  0  0  0  0  0  0
   -9.0990    0.6760    0.0000 O   0  0  0  0  0  0  0  0  0  0  0  0
   -7.7820   -1.5630    0.0000 O   0  0  0  0  0  0  0  0  0  0  0  0
   -5.1960   -0.0420    0.0000 C   0  0  0  0  0  0  0  0  0  0  0  0
   -5.1840   -1.5420    0.0000 O   0  0  0  0  0  0  0  0  0  0  0  0
   -5.2330    4.4580    0.0000 C   0  0  0  0  0  0  0  0  0  0  0  0
   -4.4930    5.7630    0.0000 C   0  0  0  0  0  0  0  0  0  0  0  0
   -5.9930    5.7510    0.0000 C   0  0  0  0  0  0  0  0  0  0  0  0
   -2.6220    2.9790    0.0000 C   0  0  0  0  0  0  0  0  0  0  0  0
   -2.6350    4.4790    0.0000 O   0  0  0  0  0  0  0  0  0  0  0  0
   -1.3420    5.2390    0.0000 C   0  0  0  0  0  0  0  0  0  0  0  0
   -1.3170    2.2390    0.0000 C   0  0  0  0  0  0  0  0  0  0  0  0
   -0.0240    3.0000    0.0000 N   0  0  3  0  0  0  0  0  0  0  0  0
    1.2810    2.2600    0.0000 C   0  0  0  0  0  0  0  0  0  0  0  0
    2.5740    3.0210    0.0000 C   0  0  3  0  0  0  0  0  0  0  0  0
    2.5610    4.5210    0.0000 N   0  0  0  0  0  0  0  0  0  0  0  0
    1.2560    5.2600    0.0000 C   0  0  0  0  0  0  0  0  0  0  0  0
   -0.0370    4.5000    0.0000 C   0  0  0  0  0  0  0  0  0  0  0  0
    3.8790    2.2820    0.0000 C   0  0  0  0  0  0  0  0  0  0  0  0
  1  2  1  0  0  0  0
  2  3  1  0  0  0  0
  2 20  2  0  0  0  0
  3  4  2  0  0  0  0
  4  5  1  0  0  0  0
  4 12  1  0  0  0  0
  5  6  1  0  0  0  0
  5 17  2  0  0  0  0
  6  7  1  0  0  0  0
  6 14  1  0  0  0  0
  7  8  2  0  0  0  0
  8  9  1  0  0  0  0
  8 12  1  0  0  0  0
  9 10  1  0  0  0  0
  9 11  2  0  0  0  0
 12 13  2  0  0  0  0
 14 15  1  0  0  0  0
 14 16  1  0  0  0  0
 15 16  1  0  0  0  0
 17 18  1  0  0  0  0
 17 20  1  0  0  0  0
 18 19  1  0  0  0  0
 20 21  1  0  0  0  0
 21 22  1  0  0  0  0
 21 26  1  0  0  0  0
 22 23  1  0  0  0  0
 23 24  1  0  0  0  0
 23 27  1  0  0  0  0
 24 25  1  0  0  0  0
 25 26  1  0  0  0  0
M  END
>  <Index>
480

>  <ID>
HT0967

>  <class>
0

>  <apol>
55.174446

>  <ast_fraglike>
0

>  <ast_fraglike_ext>
0

>  <ast_violation>
2

>  <ast_violation_ext>
3

>  <a_acc>
5

>  <a_acid>
0

>  <a_aro>
6

>  <a_base>
0

>  <a_count>
49

>  <a_don>
3

>  <a_donacc>
8

>  <a_heavy>
27

>  <a_hyd>
18

>  <a_IC>
83.547775

>  <a_ICM>
1.7050567

>  <a_nB>
0

>  <a_nBr>
0

>  <a_nC>
19

>  <a_nCl>
0

>  <a_nF>
1

>  <a_nH>
22

>  <a_nI>
0

>  <a_nN>
3

>  <a_nO>
4

>  <a_nP>
0

>  <a_nS>
0

>  <balabanJ>
1.6296389

>  <BCUT_PEOE_0>
-2.7472835

>  <BCUT_PEOE_1>
-0.56379443

>  <BCUT_PEOE_2>
0.57151586

>  <BCUT_PEOE_3>
2.7644916

>  <BCUT_SLOGP_0>
-2.9124343

>  <BCUT_SLOGP_1>
-0.52387953

>  <BCUT_SLOGP_2>
0.60201746

>  <BCUT_SLOGP_3>
2.8126414

>  <BCUT_SMR_0>
-2.4566388

>  <BCUT_SMR_1>
-0.40492925

>  <BCUT_SMR_2>
0.71549726

>  <BCUT_SMR_3>
3.0323105

>  <bpol>
33.705555

>  <b_1rotN>
4

>  <b_1rotR>
0.13333334

>  <b_ar>
6

>  <b_count>
52

>  <b_double>
3

>  <b_heavy>
30

>  <b_max1len>
3

>  <b_rotN>
4

>  <b_rotR>
0.13333334

>  <b_single>
43

>  <b_triple>
0

>  <chi0>
19.292164

>  <chi0v>
15.289285

>  <chi0v_C>
11.844935

>  <chi0_C>
12.72325

>  <chi1>
12.917923

>  <chi1v>
9.0896254

>  <chi1v_C>
5.4181204

>  <chi1_C>
6.3601732

>  <chiral>
1

>  <chiral_u>
1

>  <density>
0.78925949

>  <diameter>
11

>  <FCharge>
0

>  <GCUT_PEOE_0>
-0.8426441

>  <GCUT_PEOE_1>
-0.44551647

>  <GCUT_PEOE_2>
0.076328345

>  <GCUT_PEOE_3>
2.8187189

>  <GCUT_SLOGP_0>
-1.1546149

>  <GCUT_SLOGP_1>
-0.3579689

>  <GCUT_SLOGP_2>
0.13412796

>  <GCUT_SLOGP_3>
2.8639123

>  <GCUT_SMR_0>
-0.5132708

>  <GCUT_SMR_1>
-0.21634777

>  <GCUT_SMR_2>
0.14486186

>  <GCUT_SMR_3>
3.0916991

>  <Kier1>
20.280001

>  <Kier2>
8.0246916

>  <Kier3>
3.5446153

>  <KierA1>
15.923511

>  <KierA2>
6.2383738

>  <KierA3>
2.7352223

>  <KierFlex>
3.679141

>  <lip_acc>
7

>  <lip_don>
2

>  <lip_druglike>
1

>  <lip_violation>
0

>  <logP(o/w)>
1.414

>  <logS>
-3.11218

>  <mr>
9.6304636

>  <mutagenic>
0

>  <nmol>
1

>  <opr_brigid>
20

>  <opr_leadlike>
1

>  <opr_nring>
4

>  <opr_nrot>
6

>  <opr_violation>
0

>  <PC+>
0

>  <PC->
0

>  <PEOE_PC+>
2.3747907

>  <PEOE_PC->
-2.3747907

>  <PEOE_RPC+>
0.12461272

>  <PEOE_RPC->
0.1451299

>  <PEOE_VSA+0>
153.8018

>  <PEOE_VSA+1>
34.726032

>  <PEOE_VSA+2>
28.306917

>  <PEOE_VSA+3>
0

>  <PEOE_VSA+4>
18.782692

>  <PEOE_VSA+5>
14.708499

>  <PEOE_VSA+6>
0

>  <PEOE_VSA-0>
48.405209

>  <PEOE_VSA-1>
0

>  <PEOE_VSA-2>
0

>  <PEOE_VSA-3>
0

>  <PEOE_VSA-4>
11.908636

>  <PEOE_VSA-5>
27.133842

>  <PEOE_VSA-6>
10.408187

>  <PEOE_VSA_FHYD>
0.76178581

>  <PEOE_VSA_FNEG>
0.28104821

>  <PEOE_VSA_FPNEG>
0.14202541

>  <PEOE_VSA_FPOL>
0.23821421

>  <PEOE_VSA_FPOS>
0.71895182

>  <PEOE_VSA_FPPOS>
0.096188799

>  <PEOE_VSA_HYD>
265.23996

>  <PEOE_VSA_NEG>
97.855873

>  <PEOE_VSA_PNEG>
49.450665

>  <PEOE_VSA_POL>
82.941856

>  <PEOE_VSA_POS>
250.32594

>  <PEOE_VSA_PPOS>
33.491192

>  <petitjean>
0.45454547

>  <petitjeanSC>
0.83333331

>  <Q_PC+>
0

>  <Q_PC->
0

>  <Q_RPC+>
0

>  <Q_RPC->
0

>  <Q_VSA_FHYD>
1

>  <Q_VSA_FNEG>
0

>  <Q_VSA_FPNEG>
0

>  <Q_VSA_FPOL>
0

>  <Q_VSA_FPOS>
1

>  <Q_VSA_FPPOS>
0

>  <Q_VSA_HYD>
348.18182

>  <Q_VSA_NEG>
0

>  <Q_VSA_PNEG>
0

>  <Q_VSA_POL>
0

>  <Q_VSA_POS>
348.18182

>  <Q_VSA_PPOS>
0

>  <radius>
6

>  <reactive>
0

>  <rings>
4

>  <RPC+>
0

>  <RPC->
0

>  <rsynth>
1

>  <SlogP>
1.766

>  <SlogP_VSA0>
35.259266

>  <SlogP_VSA1>
13.433075

>  <SlogP_VSA2>
40.94717

>  <SlogP_VSA3>
80.703964

>  <SlogP_VSA4>
27.047791

>  <SlogP_VSA5>
38.569443

>  <SlogP_VSA6>
0

>  <SlogP_VSA7>
34.85754

>  <SlogP_VSA8>
37.736813

>  <SlogP_VSA9>
59.043053

>  <SMR>
9.8179998

>  <SMR_VSA0>
47.724434

>  <SMR_VSA1>
25.960001

>  <SMR_VSA2>
58.765621

>  <SMR_VSA3>
19.578516

>  <SMR_VSA4>
5.513495

>  <SMR_VSA5>
72.594353

>  <SMR_VSA6>
68.751808

>  <SMR_VSA7>
68.709885

>  <TPSA>
82.110001

>  <VAdjEq>
0.41024774

>  <VAdjMa>
5.9068904

>  <VDistEq>
3.1866438

>  <VDistMa>
9.2636681

>  <vdw_area>
348.18182

>  <vdw_vol>
475.63571

>  <vsa_acc>
16.070677

>  <vsa_acid>
0

>  <vsa_base>
0

>  <vsa_don>
0

>  <vsa_hyd>
254.29367

>  <vsa_other>
23.167019

>  <vsa_pol>
48.887096

>  <Weight>
375.39999

>  <weinerPath>
1627

>  <weinerPol>
51

>  <zagreb>
150

$$$$