O1C2CC34C56C(OC(=O)C5O)OC3(C2(O)C(C)C1=O)C(OC4C(O)C6C(C)(C)C)=O
  MOE2013           2D

 30 35  0  0  1  0  0  0  0  0999 V2000
    0.0290    0.0380    0.0000 O   0  0  0  0  0  0  0  0  0  0  0  0
   -1.4220    0.4090    0.0000 C   0  0  3  0  0  0  0  0  0  0  0  0
   -2.8960    0.0220    0.0000 C   0  0  0  0  0  0  0  0  0  0  0  0
   -3.7860    1.3090    0.0000 C   0  0  3  0  0  0  0  0  0  0  0  0
   -5.1670    1.8360    0.0000 C   0  0  3  0  0  0  0  0  0  0  0  0
   -4.9470    3.3620    0.0000 C   0  0  3  0  0  0  0  0  0  0  0  0
   -6.2980    4.0070    0.0000 O   0  0  0  0  0  0  0  0  0  0  0  0
   -7.3340    2.8960    0.0000 C   0  0  0  0  0  0  0  0  0  0  0  0
   -8.8280    3.1700    0.0000 O   0  0  0  0  0  0  0  0  0  0  0  0
   -6.6310    1.6150    0.0000 C   0  0  3  0  0  0  0  0  0  0  0  0
   -6.7340    0.0420    0.0000 O   0  0  0  0  0  0  0  0  0  0  0  0
   -3.4780    3.6360    0.0000 O   0  0  0  0  0  0  0  0  0  0  0  0
   -2.7360    2.2840    0.0000 C   0  0  3  0  0  0  0  0  0  0  0  0
   -1.3360    1.9320    0.0000 C   0  0  3  0  0  0  0  0  0  0  0  0
   -1.3810    3.4470    0.0000 O   0  0  0  0  0  0  0  0  0  0  0  0
    0.0990    2.4280    0.0000 C   0  0  3  0  0  0  0  0  0  0  0  0
    0.5790    3.8400    0.0000 C   0  0  0  0  0  0  0  0  0  0  0  0
    0.9990    1.1950    0.0000 C   0  0  0  0  0  0  0  0  0  0  0  0
    2.4860    1.1580    0.0000 O   0  0  0  0  0  0  0  0  0  0  0  0
   -1.5850    1.1940    0.0000 C   0  0  0  0  0  0  0  0  0  0  0  0
   -2.1490   -0.2240    0.0000 O   0  0  0  0  0  0  0  0  0  0  0  0
   -3.6810   -0.0890    0.0000 C   0  0  3  0  0  0  0  0  0  0  0  0
   -5.1440   -0.6120    0.0000 C   0  0  3  0  0  0  0  0  0  0  0  0
   -5.5370   -2.0620    0.0000 O   0  0  0  0  0  0  0  0  0  0  0  0
   -6.0610    0.6010    0.0000 C   0  0  3  0  0  0  0  0  0  0  0  0
   -7.5830    0.2260    0.0000 C   0  0  0  0  0  0  0  0  0  0  0  0
   -7.1280   -1.2830    0.0000 C   0  0  0  0  0  0  0  0  0  0  0  0
   -8.0270    1.5810    0.0000 C   0  0  0  0  0  0  0  0  0  0  0  0
   -8.9790   -0.2930    0.0000 C   0  0  0  0  0  0  0  0  0  0  0  0
   -0.1150    1.4150    0.0000 O   0  0  0  0  0  0  0  0  0  0  0  0
  1  2  1  0  0  0  0
  1 18  1  0  0  0  0
  2  3  1  0  0  0  0
  2 14  1  0  0  0  0
  3  4  1  0  0  0  0
  4  5  1  0  0  0  0
  4 13  1  0  0  0  0
  4 22  1  0  0  0  0
  5  6  1  0  0  0  0
  5 10  1  0  0  0  0
  5 25  1  0  0  0  0
  6  7  1  0  0  0  0
  6 12  1  0  0  0  0
  7  8  1  0  0  0  0
  8  9  2  0  0  0  0
  8 10  1  0  0  0  0
 10 11  1  0  0  0  0
 12 13  1  0  0  0  0
 13 14  1  0  0  0  0
 13 20  1  0  0  0  0
 14 15  1  0  0  0  0
 14 16  1  0  0  0  0
 16 17  1  0  0  0  0
 16 18  1  0  0  0  0
 18 19  2  0  0  0  0
 20 21  1  0  0  0  0
 20 30  2  0  0  0  0
 21 22  1  0  0  0  0
 22 23  1  0  0  0  0
 23 24  1  0  0  0  0
 23 25  1  0  0  0  0
 25 26  1  0  0  0  0
 26 27  1  0  0  0  0
 26 28  1  0  0  0  0
 26 29  1  0  0  0  0
M  END
>  <Index>
488

>  <ID>
HT0978

>  <class>
0

>  <apol>
59.223034

>  <ast_fraglike>
0

>  <ast_fraglike_ext>
0

>  <ast_violation>
2

>  <ast_violation_ext>
3

>  <a_acc>
7

>  <a_acid>
0

>  <a_aro>
0

>  <a_base>
0

>  <a_count>
54

>  <a_don>
3

>  <a_donacc>
10

>  <a_heavy>
30

>  <a_hyd>
16

>  <a_IC>
81.066978

>  <a_ICM>
1.5012404

>  <a_nB>
0

>  <a_nBr>
0

>  <a_nC>
20

>  <a_nCl>
0

>  <a_nF>
0

>  <a_nH>
24

>  <a_nI>
0

>  <a_nN>
0

>  <a_nO>
10

>  <a_nP>
0

>  <a_nS>
0

>  <balabanJ>
1.6782809

>  <BCUT_PEOE_0>
-2.7662859

>  <BCUT_PEOE_1>
-0.4689593

>  <BCUT_PEOE_2>
0.599702

>  <BCUT_PEOE_3>
3.138797

>  <BCUT_SLOGP_0>
-2.7867882

>  <BCUT_SLOGP_1>
-0.53136605

>  <BCUT_SLOGP_2>
0.48508143

>  <BCUT_SLOGP_3>
3.0056431

>  <BCUT_SMR_0>
-2.5421462

>  <BCUT_SMR_1>
-0.35358712

>  <BCUT_SMR_2>
0.70056969

>  <BCUT_SMR_3>
3.3233752

>  <bpol>
36.774967

>  <b_1rotN>
0

>  <b_1rotR>
0

>  <b_ar>
0

>  <b_count>
59

>  <b_double>
3

>  <b_heavy>
35

>  <b_max1len>
4

>  <b_rotN>
1

>  <b_rotR>
0.028571429

>  <b_single>
56

>  <b_triple>
0

>  <chi0>
21.809036

>  <chi0v>
16.947937

>  <chi0v_C>
12.748559

>  <chi0_C>
12.98061

>  <chi1>
13.829929

>  <chi1v>
10.215577

>  <chi1v_C>
7.1038947

>  <chi1_C>
7.2318864

>  <chiral>
11

>  <chiral_u>
11

>  <density>
0.86462343

>  <diameter>
9

>  <FCharge>
0

>  <GCUT_PEOE_0>
-0.7990185

>  <GCUT_PEOE_1>
-0.42243525

>  <GCUT_PEOE_2>
0.069277346

>  <GCUT_PEOE_3>
3.4716818

>  <GCUT_SLOGP_0>
-0.96096903

>  <GCUT_SLOGP_1>
-0.45317519

>  <GCUT_SLOGP_2>
-0.0097125955

>  <GCUT_SLOGP_3>
3.3855367

>  <GCUT_SMR_0>
-0.54283172

>  <GCUT_SMR_1>
-0.2310833

>  <GCUT_SMR_2>
0.15531914

>  <GCUT_SMR_3>
3.6618776

>  <Kier1>
20.595919

>  <Kier2>
5.3813019

>  <Kier3>
1.6577649

>  <KierA1>
18.757267

>  <KierA2>
4.8844786

>  <KierA3>
1.5011435

>  <KierFlex>
3.053982

>  <lip_acc>
10

>  <lip_don>
3

>  <lip_druglike>
1

>  <lip_violation>
0

>  <logP(o/w)>
-0.37799999

>  <logS>
-3.2602799

>  <mr>
9.4070663

>  <mutagenic>
0

>  <nmol>
1

>  <opr_brigid>
24

>  <opr_leadlike>
0

>  <opr_nring>
6

>  <opr_nrot>
1

>  <opr_violation>
2

>  <PC+>
0

>  <PC->
0

>  <PEOE_PC+>
3.4390926

>  <PEOE_PC->
-3.4390926

>  <PEOE_RPC+>
0.086799495

>  <PEOE_RPC->
0.11307523

>  <PEOE_VSA+0>
68.246178

>  <PEOE_VSA+1>
26.231859

>  <PEOE_VSA+2>
9.8098574

>  <PEOE_VSA+3>
16.059837

>  <PEOE_VSA+4>
30.972517

>  <PEOE_VSA+5>
44.125496

>  <PEOE_VSA+6>
0

>  <PEOE_VSA-0>
8.701313

>  <PEOE_VSA-1>
74.990707

>  <PEOE_VSA-2>
0

>  <PEOE_VSA-3>
0

>  <PEOE_VSA-4>
0

>  <PEOE_VSA-5>
43.204517

>  <PEOE_VSA-6>
30.813889

>  <PEOE_VSA_FHYD>
0.5777607

>  <PEOE_VSA_FNEG>
0.44657418

>  <PEOE_VSA_FPNEG>
0.20959115

>  <PEOE_VSA_FPOL>
0.42223933

>  <PEOE_VSA_FPOS>
0.55342579

>  <PEOE_VSA_FPPOS>
0.21264817

>  <PEOE_VSA_HYD>
204.03975

>  <PEOE_VSA_NEG>
157.71043

>  <PEOE_VSA_PNEG>
74.01841

>  <PEOE_VSA_POL>
149.11642

>  <PEOE_VSA_POS>
195.44574

>  <PEOE_VSA_PPOS>
75.098015

>  <petitjean>
0.44444445

>  <petitjeanSC>
0.80000001

>  <Q_PC+>
0

>  <Q_PC->
0

>  <Q_RPC+>
0

>  <Q_RPC->
0

>  <Q_VSA_FHYD>
1

>  <Q_VSA_FNEG>
0

>  <Q_VSA_FPNEG>
0

>  <Q_VSA_FPOL>
0

>  <Q_VSA_FPOS>
1

>  <Q_VSA_FPPOS>
0

>  <Q_VSA_HYD>
353.15619

>  <Q_VSA_NEG>
0

>  <Q_VSA_PNEG>
0

>  <Q_VSA_POL>
0

>  <Q_VSA_POS>
353.15619

>  <Q_VSA_PPOS>
0

>  <radius>
5

>  <reactive>
1

>  <rings>
6

>  <RPC+>
0

>  <RPC->
0

>  <rsynth>
0.33333334

>  <SlogP>
-1.3695

>  <SlogP_VSA0>
76.155678

>  <SlogP_VSA1>
23.236393

>  <SlogP_VSA2>
149.9873

>  <SlogP_VSA3>
0

>  <SlogP_VSA4>
8.8215923

>  <SlogP_VSA5>
0

>  <SlogP_VSA6>
0

>  <SlogP_VSA7>
0

>  <SlogP_VSA8>
18.868406

>  <SlogP_VSA9>
133.30406

>  <SMR>
9.2011404

>  <SMR_VSA0>
115.5862

>  <SMR_VSA1>
76.155678

>  <SMR_VSA2>
8.8215923

>  <SMR_VSA3>
34.4011

>  <SMR_VSA4>
0

>  <SMR_VSA5>
18.868406

>  <SMR_VSA6>
23.236393

>  <SMR_VSA7>
133.30406

>  <TPSA>
148.82001

>  <VAdjEq>
0.39430025

>  <VAdjMa>
6.129283

>  <VDistEq>
2.8629918

>  <VDistMa>
9.6076326

>  <vdw_area>
353.15619

>  <vdw_vol>
490.85181

>  <vsa_acc>
43.204517

>  <vsa_acid>
0

>  <vsa_base>
0

>  <vsa_don>
0

>  <vsa_hyd>
171.69345

>  <vsa_other>
66.345268

>  <vsa_pol>
83.905281

>  <Weight>
424.40198

>  <weinerPath>
1742

>  <weinerPol>
83

>  <zagreb>
200

$$$$