OC(=O)CCCCCCC=CCC=CCC=CCCCCC
  MOE2013           2D

 22 21  0  0  0  0  0  0  0  0999 V2000
    0.0000    0.0000    0.0000 O   0  0  0  0  0  0  0  0  0  0  0  0
    0.7470   -1.3010    0.0000 C   0  0  0  0  0  0  0  0  0  0  0  0
   -0.0070   -2.5980    0.0000 O   0  0  0  0  0  0  0  0  0  0  0  0
    2.2470   -1.3050    0.0000 C   0  0  0  0  0  0  0  0  0  0  0  0
    3.0000   -0.0080    0.0000 C   0  0  0  0  0  0  0  0  0  0  0  0
    4.5000   -0.0120    0.0000 C   0  0  0  0  0  0  0  0  0  0  0  0
    5.2530    1.2850    0.0000 C   0  0  0  0  0  0  0  0  0  0  0  0
    6.7530    1.2810    0.0000 C   0  0  0  0  0  0  0  0  0  0  0  0
    7.5070    2.5780    0.0000 C   0  0  0  0  0  0  0  0  0  0  0  0
    9.0070    2.5750    0.0000 C   0  0  0  0  0  0  0  0  0  0  0  0
    9.7600    3.8720    0.0000 C   0  0  0  0  0  0  0  0  0  0  0  0
   11.2600    3.8680    0.0000 C   0  0  0  0  0  0  0  0  0  0  0  0
   12.0140    5.1650    0.0000 C   0  0  0  0  0  0  0  0  0  0  0  0
   13.5140    5.1610    0.0000 C   0  0  0  0  0  0  0  0  0  0  0  0
   14.2670    6.4580    0.0000 C   0  0  0  0  0  0  0  0  0  0  0  0
   15.7670    6.4540    0.0000 C   0  0  0  0  0  0  0  0  0  0  0  0
   16.5200    7.7510    0.0000 C   0  0  0  0  0  0  0  0  0  0  0  0
   18.0200    7.7470    0.0000 C   0  0  0  0  0  0  0  0  0  0  0  0
   18.7740    9.0440    0.0000 C   0  0  0  0  0  0  0  0  0  0  0  0
   20.2740    9.0400    0.0000 C   0  0  0  0  0  0  0  0  0  0  0  0
   21.0270   10.3370    0.0000 C   0  0  0  0  0  0  0  0  0  0  0  0
   22.5270   10.3330    0.0000 C   0  0  0  0  0  0  0  0  0  0  0  0
  1  2  1  0  0  0  0
  2  3  2  0  0  0  0
  2  4  1  0  0  0  0
  4  5  1  0  0  0  0
  5  6  1  0  0  0  0
  6  7  1  0  0  0  0
  7  8  1  0  0  0  0
  8  9  1  0  0  0  0
  9 10  1  0  0  0  0
 10 11  2  3  0  0  0
 11 12  1  0  0  0  0
 12 13  1  0  0  0  0
 13 14  2  3  0  0  0
 14 15  1  0  0  0  0
 15 16  1  0  0  0  0
 16 17  2  3  0  0  0
 17 18  1  0  0  0  0
 18 19  1  0  0  0  0
 19 20  1  0  0  0  0
 20 21  1  0  0  0  0
 21 22  1  0  0  0  0
M  END
>  <Index>
478

>  <ID>
HT0963

>  <class>
0

>  <apol>
59.47496

>  <ast_fraglike>
0

>  <ast_fraglike_ext>
0

>  <ast_violation>
2

>  <ast_violation_ext>
3

>  <a_acc>
2

>  <a_acid>
0

>  <a_aro>
0

>  <a_base>
0

>  <a_count>
56

>  <a_don>
2

>  <a_donacc>
4

>  <a_heavy>
22

>  <a_hyd>
19

>  <a_IC>
63.799576

>  <a_ICM>
1.1392782

>  <a_nB>
0

>  <a_nBr>
0

>  <a_nC>
20

>  <a_nCl>
0

>  <a_nF>
0

>  <a_nH>
34

>  <a_nI>
0

>  <a_nN>
0

>  <a_nO>
2

>  <a_nP>
0

>  <a_nS>
0

>  <balabanJ>
2.9446285

>  <BCUT_PEOE_0>
-2.6593299

>  <BCUT_PEOE_1>
-0.5499025

>  <BCUT_PEOE_2>
0.59534955

>  <BCUT_PEOE_3>
2.613802

>  <BCUT_SLOGP_0>
-2.5092652

>  <BCUT_SLOGP_1>
-0.46892652

>  <BCUT_SLOGP_2>
0.70114827

>  <BCUT_SLOGP_3>
2.7678635

>  <BCUT_SMR_0>
-2.4115133

>  <BCUT_SMR_1>
-0.41807273

>  <BCUT_SMR_2>
0.7302646

>  <BCUT_SMR_3>
2.8613782

>  <bpol>
38.127037

>  <b_1rotN>
15

>  <b_1rotR>
0.71428573

>  <b_ar>
0

>  <b_count>
55

>  <b_double>
4

>  <b_heavy>
21

>  <b_max1len>
8

>  <b_rotN>
15

>  <b_rotR>
0.71428573

>  <b_single>
51

>  <b_triple>
0

>  <chi0>
16.305273

>  <chi0v>
14.304845

>  <chi0v_C>
13.449383

>  <chi0_C>
14.305272

>  <chi1>
10.770056

>  <chi1v>
8.9378805

>  <chi1v_C>
8.51015

>  <chi1_C>
9.6153555

>  <chiral>
0

>  <chiral_u>
0

>  <density>
0.6198284

>  <diameter>
20

>  <FCharge>
0

>  <GCUT_PEOE_0>
-0.79923314

>  <GCUT_PEOE_1>
-0.37430611

>  <GCUT_PEOE_2>
0.073478721

>  <GCUT_PEOE_3>
2.5284309

>  <GCUT_SLOGP_0>
-0.87253523

>  <GCUT_SLOGP_1>
-0.24455732

>  <GCUT_SLOGP_2>
0.15055314

>  <GCUT_SLOGP_3>
2.6773982

>  <GCUT_SMR_0>
-0.53111768

>  <GCUT_SMR_1>
-0.19950728

>  <GCUT_SMR_2>
0.19054683

>  <GCUT_SMR_3>
2.7678087

>  <Kier1>
22

>  <Kier2>
19.047619

>  <Kier3>
21.052631

>  <KierA1>
18.823561

>  <KierA2>
16.169367

>  <KierA3>
17.769413

>  <KierFlex>
13.834775

>  <lip_acc>
2

>  <lip_don>
1

>  <lip_druglike>
1

>  <lip_violation>
1

>  <logP(o/w)>
5.7740002

>  <logS>
-7.5816898

>  <mr>
9.6632843

>  <mutagenic>
0

>  <nmol>
1

>  <opr_brigid>
3

>  <opr_leadlike>
0

>  <opr_nring>
0

>  <opr_nrot>
15

>  <opr_violation>
2

>  <PC+>
0

>  <PC->
0

>  <PEOE_PC+>
1.6333861

>  <PEOE_PC->
-1.6333861

>  <PEOE_RPC+>
0.15892605

>  <PEOE_RPC->
0.20281023

>  <PEOE_VSA+0>
123.86674

>  <PEOE_VSA+1>
25.592316

>  <PEOE_VSA+2>
0

>  <PEOE_VSA+3>
0

>  <PEOE_VSA+4>
10.324173

>  <PEOE_VSA+5>
14.708499

>  <PEOE_VSA+6>
0

>  <PEOE_VSA-0>
60.909191

>  <PEOE_VSA-1>
127.08235

>  <PEOE_VSA-2>
0

>  <PEOE_VSA-3>
0

>  <PEOE_VSA-4>
0

>  <PEOE_VSA-5>
13.566921

>  <PEOE_VSA-6>
7.7675405

>  <PEOE_VSA_FHYD>
0.87919492

>  <PEOE_VSA_FNEG>
0.54537868

>  <PEOE_VSA_FPNEG>
0.055584878

>  <PEOE_VSA_FPOL>
0.12080508

>  <PEOE_VSA_FPOS>
0.45462132

>  <PEOE_VSA_FPPOS>
0.065220207

>  <PEOE_VSA_HYD>
337.45059

>  <PEOE_VSA_NEG>
209.326

>  <PEOE_VSA_PNEG>
21.334461

>  <PEOE_VSA_POL>
46.367134

>  <PEOE_VSA_POS>
174.49173

>  <PEOE_VSA_PPOS>
25.032671

>  <petitjean>
0.5

>  <petitjeanSC>
1

>  <Q_PC+>
0

>  <Q_PC->
0

>  <Q_RPC+>
0

>  <Q_RPC->
0

>  <Q_VSA_FHYD>
1

>  <Q_VSA_FNEG>
0

>  <Q_VSA_FPNEG>
0

>  <Q_VSA_FPOL>
0

>  <Q_VSA_FPOS>
1

>  <Q_VSA_FPPOS>
0

>  <Q_VSA_HYD>
383.81772

>  <Q_VSA_NEG>
0

>  <Q_VSA_PNEG>
0

>  <Q_VSA_POL>
0

>  <Q_VSA_POS>
383.81772

>  <Q_VSA_PPOS>
0

>  <radius>
10

>  <reactive>
0

>  <rings>
0

>  <RPC+>
0

>  <RPC->
0

>  <rsynth>
0

>  <SlogP>
6.4407001

>  <SlogP_VSA0>
0

>  <SlogP_VSA1>
7.7454643

>  <SlogP_VSA2>
23.862217

>  <SlogP_VSA3>
25.385227

>  <SlogP_VSA4>
0

>  <SlogP_VSA5>
0

>  <SlogP_VSA6>
0

>  <SlogP_VSA7>
105.85911

>  <SlogP_VSA8>
226.42087

>  <SlogP_VSA9>
33.326015

>  <SMR>
9.6133804

>  <SMR_VSA0>
23.862217

>  <SMR_VSA1>
0

>  <SMR_VSA2>
25.385227

>  <SMR_VSA3>
0

>  <SMR_VSA4>
0

>  <SMR_VSA5>
332.27997

>  <SMR_VSA6>
7.7454643

>  <SMR_VSA7>
33.326015

>  <TPSA>
37.299999

>  <VAdjEq>
0.42561889

>  <VAdjMa>
5.3923173

>  <VDistEq>
4.1197438

>  <VDistMa>
8.5286617

>  <vdw_area>
383.81772

>  <vdw_vol>
494.47556

>  <vsa_acc>
0

>  <vsa_acid>
0

>  <vsa_base>
0

>  <vsa_don>
0

>  <vsa_hyd>
313.96136

>  <vsa_other>
14.708499

>  <vsa_pol>
27.133842

>  <Weight>
306.48999

>  <weinerPath>
1752

>  <weinerPol>
19

>  <zagreb>
84

$$$$