OC(CO)CO
  MOE2013           2D

  6  5  0  0  0  0  0  0  0  0999 V2000
    0.0000    0.0000    0.0000 O   0  0  0  0  0  0  0  0  0  0  0  0
    0.0000   -1.5000    0.0000 C   0  0  0  0  0  0  0  0  0  0  0  0
   -1.2990   -2.2500    0.0000 C   0  0  0  0  0  0  0  0  0  0  0  0
   -2.5980   -1.5000    0.0000 O   0  0  0  0  0  0  0  0  0  0  0  0
    1.2990   -2.2500    0.0000 C   0  0  0  0  0  0  0  0  0  0  0  0
    2.5980   -1.5000    0.0000 O   0  0  0  0  0  0  0  0  0  0  0  0
  1  2  1  0  0  0  0
  2  3  1  0  0  0  0
  2  5  1  0  0  0  0
  3  4  1  0  0  0  0
  5  6  1  0  0  0  0
M  END
>  <Index>
498

>  <ID>
HT0996

>  <class>
0

>  <apol>
13.020344

>  <ast_fraglike>
1

>  <ast_fraglike_ext>
1

>  <ast_violation>
0

>  <ast_violation_ext>
0

>  <a_acc>
3

>  <a_acid>
0

>  <a_aro>
0

>  <a_base>
0

>  <a_count>
14

>  <a_don>
3

>  <a_donacc>
6

>  <a_heavy>
6

>  <a_hyd>
3

>  <a_IC>
19.793194

>  <a_ICM>
1.4137995

>  <a_nB>
0

>  <a_nBr>
0

>  <a_nC>
3

>  <a_nCl>
0

>  <a_nF>
0

>  <a_nH>
8

>  <a_nI>
0

>  <a_nN>
0

>  <a_nO>
3

>  <a_nP>
0

>  <a_nS>
0

>  <balabanJ>
2.7541847

>  <BCUT_PEOE_0>
-2.5021036

>  <BCUT_PEOE_1>
-0.66366398

>  <BCUT_PEOE_2>
0.73062813

>  <BCUT_PEOE_3>
2.5247395

>  <BCUT_SLOGP_0>
-2.6738641

>  <BCUT_SLOGP_1>
-0.80417728

>  <BCUT_SLOGP_2>
0.54913127

>  <BCUT_SLOGP_3>
2.3463166

>  <BCUT_SMR_0>
-2.2908211

>  <BCUT_SMR_1>
-0.55251282

>  <BCUT_SMR_2>
0.81026459

>  <BCUT_SMR_3>
2.7197444

>  <bpol>
8.745656

>  <b_1rotN>
2

>  <b_1rotR>
0.40000001

>  <b_ar>
0

>  <b_count>
13

>  <b_double>
0

>  <b_heavy>
5

>  <b_max1len>
6

>  <b_rotN>
2

>  <b_rotR>
0.40000001

>  <b_single>
13

>  <b_triple>
0

>  <chi0>
4.9915638

>  <chi0v>
3.3332045

>  <chi0v_C>
1.9915638

>  <chi0_C>
1.9915638

>  <chi1>
2.8080604

>  <chi1v>
1.7071511

>  <chi1v_C>
0.81649661

>  <chi1_C>
0.81649661

>  <chiral>
0

>  <chiral_u>
0

>  <density>
0.81679636

>  <diameter>
4

>  <FCharge>
0

>  <GCUT_PEOE_0>
-0.79251689

>  <GCUT_PEOE_1>
-0.40452251

>  <GCUT_PEOE_2>
0.19630694

>  <GCUT_PEOE_3>
1.925034

>  <GCUT_SLOGP_0>
-0.94401312

>  <GCUT_SLOGP_1>
-0.55983686

>  <GCUT_SLOGP_2>
-0.0045955922

>  <GCUT_SLOGP_3>
1.7875863

>  <GCUT_SMR_0>
-0.52463347

>  <GCUT_SMR_1>
-0.26866773

>  <GCUT_SMR_2>
0.23093501

>  <GCUT_SMR_3>
2.1049376

>  <Kier1>
6

>  <Kier2>
3.2

>  <Kier3>
3

>  <KierA1>
6

>  <KierA2>
3.2

>  <KierA3>
3

>  <KierFlex>
3.2

>  <lip_acc>
3

>  <lip_don>
3

>  <lip_druglike>
1

>  <lip_violation>
0

>  <logP(o/w)>
-1.671

>  <logS>
1.0170799

>  <mr>
2.0658712

>  <mutagenic>
0

>  <nmol>
1

>  <opr_brigid>
0

>  <opr_leadlike>
1

>  <opr_nring>
0

>  <opr_nrot>
2

>  <opr_violation>
0

>  <PC+>
0

>  <PC->
0

>  <PEOE_PC+>
1.1720265

>  <PEOE_PC->
-1.1720265

>  <PEOE_RPC+>
0.17915541

>  <PEOE_RPC->
0.33479419

>  <PEOE_VSA+0>
0

>  <PEOE_VSA+1>
51.229515

>  <PEOE_VSA+2>
4.9049287

>  <PEOE_VSA+3>
0

>  <PEOE_VSA+4>
30.972517

>  <PEOE_VSA+5>
0

>  <PEOE_VSA+6>
0

>  <PEOE_VSA-0>
0

>  <PEOE_VSA-1>
0

>  <PEOE_VSA-2>
0

>  <PEOE_VSA-3>
0

>  <PEOE_VSA-4>
0

>  <PEOE_VSA-5>
0

>  <PEOE_VSA-6>
23.30262

>  <PEOE_VSA_FHYD>
0.50842005

>  <PEOE_VSA_FNEG>
0.21105614

>  <PEOE_VSA_FPNEG>
0.21105614

>  <PEOE_VSA_FPOL>
0.49157995

>  <PEOE_VSA_FPOS>
0.78894389

>  <PEOE_VSA_FPPOS>
0.28052381

>  <PEOE_VSA_HYD>
56.134445

>  <PEOE_VSA_NEG>
23.30262

>  <PEOE_VSA_PNEG>
23.30262

>  <PEOE_VSA_POL>
54.275139

>  <PEOE_VSA_POS>
87.106964

>  <PEOE_VSA_PPOS>
30.972517

>  <petitjean>
0.5

>  <petitjeanSC>
1

>  <Q_PC+>
0

>  <Q_PC->
0

>  <Q_RPC+>
0

>  <Q_RPC->
0

>  <Q_VSA_FHYD>
1

>  <Q_VSA_FNEG>
0

>  <Q_VSA_FPNEG>
0

>  <Q_VSA_FPOL>
0

>  <Q_VSA_FPOS>
1

>  <Q_VSA_FPPOS>
0

>  <Q_VSA_HYD>
110.40958

>  <Q_VSA_NEG>
0

>  <Q_VSA_PNEG>
0

>  <Q_VSA_POL>
0

>  <Q_VSA_POS>
110.40958

>  <Q_VSA_PPOS>
0

>  <radius>
2

>  <reactive>
0

>  <rings>
0

>  <RPC+>
0

>  <RPC->
0

>  <rsynth>
1

>  <SlogP>
-1.6681

>  <SlogP_VSA0>
76.155678

>  <SlogP_VSA1>
0

>  <SlogP_VSA2>
6.4686494

>  <SlogP_VSA3>
41.852516

>  <SlogP_VSA4>
0

>  <SlogP_VSA5>
0

>  <SlogP_VSA6>
0

>  <SlogP_VSA7>
0

>  <SlogP_VSA8>
0

>  <SlogP_VSA9>
0

>  <SMR>
2.0178399

>  <SMR_VSA0>
0

>  <SMR_VSA1>
76.155678

>  <SMR_VSA2>
0

>  <SMR_VSA3>
6.4686494

>  <SMR_VSA4>
0

>  <SMR_VSA5>
0

>  <SMR_VSA6>
41.852516

>  <SMR_VSA7>
0

>  <TPSA>
60.689999

>  <VAdjEq>
0.85240519

>  <VAdjMa>
3.321928

>  <VDistEq>
1.8256052

>  <VDistMa>
4.7600174

>  <vdw_area>
110.40958

>  <vdw_vol>
112.75025

>  <vsa_acc>
0

>  <vsa_acid>
0

>  <vsa_base>
0

>  <vsa_don>
0

>  <vsa_hyd>
52.57547

>  <vsa_other>
0

>  <vsa_pol>
40.700764

>  <Weight>
92.093994

>  <weinerPath>
31

>  <weinerPol>
4

>  <zagreb>
20

$$$$