O1C(CO)C(O)C(O)C(O)C1OC1C2C(C3CC(O)C4C(CCC4C(OC4OC(CO)C(O)C(O)C4O)(CCC=C(C)/C)C)(C)C3(C1)C)C(CC(O)C2(C)C)C
  MOE2013           2D

 56 61  0  0  1  0  0  0  0  0999 V2000
    0.0000    0.0000    0.0000 O   0  0  0  0  0  0  0  0  0  0  0  0
   -0.7580    1.2940    0.0000 C   0  0  3  0  0  0  0  0  0  0  0  0
   -0.0160    2.5980    0.0000 C   0  0  0  0  0  0  0  0  0  0  0  0
   -0.7740    3.8920    0.0000 O   0  0  0  0  0  0  0  0  0  0  0  0
   -2.2580    1.2850    0.0000 C   0  0  3  0  0  0  0  0  0  0  0  0
   -3.0160    2.5800    0.0000 O   0  0  0  0  0  0  0  0  0  0  0  0
   -3.0000   -0.0180    0.0000 C   0  0  3  0  0  0  0  0  0  0  0  0
   -4.5000   -0.0270    0.0000 O   0  0  0  0  0  0  0  0  0  0  0  0
   -2.2420   -1.3130    0.0000 C   0  0  3  0  0  0  0  0  0  0  0  0
   -2.9840   -2.6160    0.0000 O   0  0  0  0  0  0  0  0  0  0  0  0
   -0.7420   -1.3040    0.0000 C   0  0  3  0  0  0  0  0  0  0  0  0
    0.0160   -2.5980    0.0000 O   0  0  0  0  0  0  0  0  0  0  0  0
    1.5160   -2.5890    0.0000 C   0  0  3  0  0  0  0  0  0  0  0  0
    2.2740   -3.8830    0.0000 C   0  0  3  0  0  0  0  0  0  0  0  0
    3.7740   -3.8740    0.0000 C   0  0  3  0  0  0  0  0  0  0  0  0
    4.5160   -2.5710    0.0000 C   0  0  3  0  0  0  0  0  0  0  0  0
    6.0160   -2.5620    0.0000 C   0  0  0  0  0  0  0  0  0  0  0  0
    6.7580   -1.2580    0.0000 C   0  0  3  0  0  0  0  0  0  0  0  0
    8.2580   -1.2490    0.0000 O   0  0  0  0  0  0  0  0  0  0  0  0
    6.0000    0.0360    0.0000 C   0  0  3  0  0  0  0  0  0  0  0  0
    4.5000    0.0270    0.0000 C   0  0  3  0  0  0  0  0  0  0  0  0
    4.0280    1.4510    0.0000 C   0  0  0  0  0  0  0  0  0  0  0  0
    5.2360    2.3400    0.0000 C   0  0  0  0  0  0  0  0  0  0  0  0
    6.4550    1.4660    0.0000 C   0  0  3  0  0  0  0  0  0  0  0  0
    7.8780    1.9380    0.0000 C   0  0  3  0  0  0  0  0  0  0  0  0
    8.3510    0.5140    0.0000 O   0  0  0  0  0  0  0  0  0  0  0  0
    9.8200    0.2110    0.0000 C   0  0  3  0  0  0  0  0  0  0  0  0
   10.8170    1.3320    0.0000 O   0  0  0  0  0  0  0  0  0  0  0  0
   12.2860    1.0290    0.0000 C   0  0  3  0  0  0  0  0  0  0  0  0
   13.2830    2.1500    0.0000 C   0  0  0  0  0  0  0  0  0  0  0  0
   14.7520    1.8470    0.0000 O   0  0  0  0  0  0  0  0  0  0  0  0
   12.7580   -0.3950    0.0000 C   0  0  3  0  0  0  0  0  0  0  0  0
   14.2270   -0.6980    0.0000 O   0  0  0  0  0  0  0  0  0  0  0  0
   11.7610   -1.5150    0.0000 C   0  0  3  0  0  0  0  0  0  0  0  0
   12.2330   -2.9390    0.0000 O   0  0  0  0  0  0  0  0  0  0  0  0
   10.2920   -1.2120    0.0000 C   0  0  3  0  0  0  0  0  0  0  0  0
    9.2950   -2.3330    0.0000 O   0  0  0  0  0  0  0  0  0  0  0  0
    7.4060    3.3620    0.0000 C   0  0  0  0  0  0  0  0  0  0  0  0
    8.4030    4.4820    0.0000 C   0  0  0  0  0  0  0  0  0  0  0  0
    7.9310    5.9060    0.0000 C   0  0  0  0  0  0  0  0  0  0  0  0
    8.9280    7.0270    0.0000 C   0  0  0  0  0  0  0  0  0  0  0  0
    8.4560    8.4510    0.0000 C   0  0  0  0  0  0  0  0  0  0  0  0
   10.3970    6.7240    0.0000 C   0  0  0  0  0  0  0  0  0  0  0  0
    9.3020    2.4100    0.0000 C   0  0  0  0  0  0  0  0  0  0  0  0
    3.1590    0.7000    0.0000 C   0  0  0  0  0  0  0  0  0  0  0  0
    3.7580   -1.2760    0.0000 C   0  0  3  0  0  0  0  0  0  0  0  0
    2.2580   -1.2850    0.0000 C   0  0  0  0  0  0  0  0  0  0  0  0
    2.6370   -0.2790    0.0000 C   0  0  0  0  0  0  0  0  0  0  0  0
    4.5310   -5.1690    0.0000 C   0  0  3  0  0  0  0  0  0  0  0  0
    3.7890   -6.4720    0.0000 C   0  0  0  0  0  0  0  0  0  0  0  0
    2.2890   -6.4810    0.0000 C   0  0  3  0  0  0  0  0  0  0  0  0
    1.5470   -7.7850    0.0000 O   0  0  0  0  0  0  0  0  0  0  0  0
    1.5320   -5.1870    0.0000 C   0  0  0  0  0  0  0  0  0  0  0  0
    0.2480   -4.4110    0.0000 C   0  0  0  0  0  0  0  0  0  0  0  0
    0.2050   -5.8880    0.0000 C   0  0  0  0  0  0  0  0  0  0  0  0
    6.0310   -5.1600    0.0000 C   0  0  0  0  0  0  0  0  0  0  0  0
  1  2  1  0  0  0  0
  1 11  1  0  0  0  0
  2  3  1  0  0  0  0
  2  5  1  0  0  0  0
  3  4  1  0  0  0  0
  5  6  1  0  0  0  0
  5  7  1  0  0  0  0
  7  8  1  0  0  0  0
  7  9  1  0  0  0  0
  9 10  1  0  0  0  0
  9 11  1  0  0  0  0
 11 12  1  0  0  0  0
 12 13  1  0  0  0  0
 13 14  1  0  0  0  0
 13 47  1  0  0  0  0
 14 15  1  0  0  0  0
 14 53  1  0  0  0  0
 15 16  1  0  0  0  0
 15 49  1  0  0  0  0
 16 17  1  0  0  0  0
 16 46  1  0  0  0  0
 17 18  1  0  0  0  0
 18 19  1  0  0  0  0
 18 20  1  0  0  0  0
 20 21  1  0  0  0  0
 20 24  1  0  0  0  0
 21 22  1  0  0  0  0
 21 45  1  0  0  0  0
 21 46  1  0  0  0  0
 22 23  1  0  0  0  0
 23 24  1  0  0  0  0
 24 25  1  0  0  0  0
 25 26  1  0  0  0  0
 25 38  1  0  0  0  0
 25 44  1  0  0  0  0
 26 27  1  0  0  0  0
 27 28  1  0  0  0  0
 27 36  1  0  0  0  0
 28 29  1  0  0  0  0
 29 30  1  0  0  0  0
 29 32  1  0  0  0  0
 30 31  1  0  0  0  0
 32 33  1  0  0  0  0
 32 34  1  0  0  0  0
 34 35  1  0  0  0  0
 34 36  1  0  0  0  0
 36 37  1  0  0  0  0
 38 39  1  0  0  0  0
 39 40  1  0  0  0  0
 40 41  2  3  0  0  0
 41 42  1  0  0  0  0
 41 43  1  0  0  0  0
 46 47  1  0  0  0  0
 46 48  1  0  0  0  0
 49 50  1  0  0  0  0
 49 56  1  0  0  0  0
 50 51  1  0  0  0  0
 51 52  1  0  0  0  0
 51 53  1  0  0  0  0
 53 54  1  0  0  0  0
 53 55  1  0  0  0  0
M  END
>  <Index>
492

>  <ID>
HT0982

>  <class>
0

>  <apol>
133.15709

>  <ast_fraglike>
0

>  <ast_fraglike_ext>
0

>  <ast_violation>
3

>  <ast_violation_ext>
5

>  <a_acc>
14

>  <a_acid>
0

>  <a_aro>
0

>  <a_base>
0

>  <a_count>
128

>  <a_don>
10

>  <a_donacc>
24

>  <a_heavy>
56

>  <a_hyd>
40

>  <a_IC>
171.98509

>  <a_ICM>
1.3436335

>  <a_nB>
0

>  <a_nBr>
0

>  <a_nC>
42

>  <a_nCl>
0

>  <a_nF>
0

>  <a_nH>
72

>  <a_nI>
0

>  <a_nN>
0

>  <a_nO>
14

>  <a_nP>
0

>  <a_nS>
0

>  <balabanJ>
1.375695

>  <BCUT_PEOE_0>
-3.0172846

>  <BCUT_PEOE_1>
-0.48590535

>  <BCUT_PEOE_2>
0.59218645

>  <BCUT_PEOE_3>
3.0243666

>  <BCUT_SLOGP_0>
-2.9977458

>  <BCUT_SLOGP_1>
-0.51414388

>  <BCUT_SLOGP_2>
0.49067566

>  <BCUT_SLOGP_3>
3.0655093

>  <BCUT_SMR_0>
-2.7724581

>  <BCUT_SMR_1>
-0.38928145

>  <BCUT_SMR_2>
0.66525114

>  <BCUT_SMR_3>
3.2694287

>  <bpol>
86.374901

>  <b_1rotN>
10

>  <b_1rotR>
0.16393442

>  <b_ar>
0

>  <b_count>
133

>  <b_double>
1

>  <b_heavy>
61

>  <b_max1len>
7

>  <b_rotN>
10

>  <b_rotR>
0.16393442

>  <b_single>
132

>  <b_triple>
0

>  <chi0>
41.446499

>  <chi0v>
34.516094

>  <chi0v_C>
28.410967

>  <chi0_C>
28.618073

>  <chi1>
26.071295

>  <chi1v>
21.01305

>  <chi1v_C>
16.460962

>  <chi1_C>
16.826988

>  <chiral>
22

>  <chiral_u>
22

>  <density>
0.7427128

>  <diameter>
18

>  <FCharge>
0

>  <GCUT_PEOE_0>
-0.80483705

>  <GCUT_PEOE_1>
-0.3681339

>  <GCUT_PEOE_2>
0.070577264

>  <GCUT_PEOE_3>
3.8899624

>  <GCUT_SLOGP_0>
-0.95285219

>  <GCUT_SLOGP_1>
-0.38607073

>  <GCUT_SLOGP_2>
-0.0091772266

>  <GCUT_SLOGP_3>
3.9223554

>  <GCUT_SMR_0>
-0.54289258

>  <GCUT_SMR_1>
-0.22958626

>  <GCUT_SMR_2>
0.13389982

>  <GCUT_SMR_3>
4.0993934

>  <Kier1>
45.525398

>  <Kier2>
16.699291

>  <Kier3>
7.6645508

>  <KierA1>
44.886616

>  <KierA2>
16.460688

>  <KierA3>
7.5536833

>  <KierFlex>
13.194011

>  <lip_acc>
14

>  <lip_don>
10

>  <lip_druglike>
0

>  <lip_violation>
3

>  <logP(o/w)>
1.525

>  <logS>
-5.1943798

>  <mr>
20.242292

>  <mutagenic>
0

>  <nmol>
1

>  <opr_brigid>
33

>  <opr_leadlike>
0

>  <opr_nring>
6

>  <opr_nrot>
14

>  <opr_violation>
5

>  <PC+>
0

>  <PC->
0

>  <PEOE_PC+>
6.1988735

>  <PEOE_PC->
-6.1988735

>  <PEOE_RPC+>
0.033894945

>  <PEOE_RPC->
0.06329637

>  <PEOE_VSA+0>
187.67699

>  <PEOE_VSA+1>
121.39432

>  <PEOE_VSA+2>
39.239429

>  <PEOE_VSA+3>
22.309816

>  <PEOE_VSA+4>
103.24173

>  <PEOE_VSA+5>
0

>  <PEOE_VSA+6>
0

>  <PEOE_VSA-0>
117.15222

>  <PEOE_VSA-1>
108.20183

>  <PEOE_VSA-2>
0

>  <PEOE_VSA-3>
0

>  <PEOE_VSA-4>
0

>  <PEOE_VSA-5>
0

>  <PEOE_VSA-6>
87.69043

>  <PEOE_VSA_FHYD>
0.75736368

>  <PEOE_VSA_FNEG>
0.39781648

>  <PEOE_VSA_FPNEG>
0.11143687

>  <PEOE_VSA_FPOL>
0.24263631

>  <PEOE_VSA_FPOS>
0.60218352

>  <PEOE_VSA_FPPOS>
0.13119943

>  <PEOE_VSA_HYD>
595.97461

>  <PEOE_VSA_NEG>
313.04449

>  <PEOE_VSA_PNEG>
87.69043

>  <PEOE_VSA_POL>
190.93216

>  <PEOE_VSA_POS>
473.86227

>  <PEOE_VSA_PPOS>
103.24173

>  <petitjean>
0.5

>  <petitjeanSC>
1

>  <Q_PC+>
0

>  <Q_PC->
0

>  <Q_RPC+>
0

>  <Q_RPC->
0

>  <Q_VSA_FHYD>
1

>  <Q_VSA_FNEG>
0

>  <Q_VSA_FPNEG>
0

>  <Q_VSA_FPOL>
0

>  <Q_VSA_FPOS>
1

>  <Q_VSA_FPPOS>
0

>  <Q_VSA_HYD>
786.90674

>  <Q_VSA_NEG>
0

>  <Q_VSA_PNEG>
0

>  <Q_VSA_POL>
0

>  <Q_VSA_POS>
786.90674

>  <Q_VSA_PPOS>
0

>  <radius>
9

>  <reactive>
1

>  <rings>
6

>  <RPC+>
0

>  <RPC->
0

>  <rsynth>
0.39285713

>  <SlogP>
0.97570002

>  <SlogP_VSA0>
253.85226

>  <SlogP_VSA1>
0

>  <SlogP_VSA2>
132.2077

>  <SlogP_VSA3>
41.852516

>  <SlogP_VSA4>
26.464777

>  <SlogP_VSA5>
3.185575

>  <SlogP_VSA6>
0

>  <SlogP_VSA7>
17.643185

>  <SlogP_VSA8>
132.07884

>  <SlogP_VSA9>
266.60812

>  <SMR>
20.226999

>  <SMR_VSA0>
43.99955

>  <SMR_VSA1>
253.85226

>  <SMR_VSA2>
26.464777

>  <SMR_VSA3>
91.393723

>  <SMR_VSA4>
0

>  <SMR_VSA5>
149.72202

>  <SMR_VSA6>
41.852516

>  <SMR_VSA7>
266.60812

>  <TPSA>
239.22

>  <VAdjEq>
0.23723996

>  <VAdjMa>
6.9307375

>  <VDistEq>
3.9597044

>  <VDistMa>
11.372984

>  <vdw_area>
786.90674

>  <vdw_vol>
1078.5111

>  <vsa_acc>
10.015024

>  <vsa_acid>
0

>  <vsa_base>
0

>  <vsa_don>
0

>  <vsa_hyd>
514.35602

>  <vsa_other>
29.416998

>  <vsa_pol>
145.68423

>  <Weight>
801.02399

>  <weinerPath>
11771

>  <weinerPol>
122

>  <zagreb>
318

$$$$