O1C(CO)C(O)C(O)C(OC2OC(CO)C(O)C(O)C2O)C1OC1CC(C2C(CCC3(C2CC(O)C2C3(CCC2C(OC2OC(COC3OC(CO)C(O)C(O)C3O)C(O)C(O)C2O)(CCC=C(C)/C)C)C)C)C1(C)C)C
  MOE2013           2D

 77 84  0  0  1  0  0  0  0  0999 V2000
    0.0000    0.0000    0.0000 O   0  0  0  0  0  0  0  0  0  0  0  0
    0.7600   -1.2930    0.0000 C   0  0  3  0  0  0  0  0  0  0  0  0
    0.0200   -2.5980    0.0000 C   0  0  0  0  0  0  0  0  0  0  0  0
    0.7800   -3.8910    0.0000 O   0  0  0  0  0  0  0  0  0  0  0  0
    2.2600   -1.2820    0.0000 C   0  0  3  0  0  0  0  0  0  0  0  0
    3.0200   -2.5750    0.0000 O   0  0  0  0  0  0  0  0  0  0  0  0
    3.0000    0.0230    0.0000 C   0  0  3  0  0  0  0  0  0  0  0  0
    4.5000    0.0350    0.0000 O   0  0  0  0  0  0  0  0  0  0  0  0
    2.2400    1.3160    0.0000 C   0  0  3  0  0  0  0  0  0  0  0  0
    2.9800    2.6210    0.0000 O   0  0  0  0  0  0  0  0  0  0  0  0
    4.4800    2.6330    0.0000 C   0  0  3  0  0  0  0  0  0  0  0  0
    5.2400    1.3400    0.0000 O   0  0  0  0  0  0  0  0  0  0  0  0
    6.7400    1.3510    0.0000 C   0  0  3  0  0  0  0  0  0  0  0  0
    7.5000    0.0580    0.0000 C   0  0  0  0  0  0  0  0  0  0  0  0
    9.0000    0.0700    0.0000 O   0  0  0  0  0  0  0  0  0  0  0  0
    7.4800    2.6560    0.0000 C   0  0  3  0  0  0  0  0  0  0  0  0
    8.9800    2.6680    0.0000 O   0  0  0  0  0  0  0  0  0  0  0  0
    6.7200    3.9490    0.0000 C   0  0  3  0  0  0  0  0  0  0  0  0
    7.4590    5.2540    0.0000 O   0  0  0  0  0  0  0  0  0  0  0  0
    5.2200    3.9380    0.0000 C   0  0  3  0  0  0  0  0  0  0  0  0
    4.4600    5.2310    0.0000 O   0  0  0  0  0  0  0  0  0  0  0  0
    0.7400    1.3050    0.0000 C   0  0  3  0  0  0  0  0  0  0  0  0
   -0.0200    2.5980    0.0000 O   0  0  0  0  0  0  0  0  0  0  0  0
   -1.5200    2.5860    0.0000 C   0  0  3  0  0  0  0  0  0  0  0  0
   -2.2600    1.2820    0.0000 C   0  0  0  0  0  0  0  0  0  0  0  0
   -3.7600    1.2700    0.0000 C   0  0  3  0  0  0  0  0  0  0  0  0
   -4.5200    2.5630    0.0000 C   0  0  3  0  0  0  0  0  0  0  0  0
   -3.7800    3.8680    0.0000 C   0  0  3  0  0  0  0  0  0  0  0  0
   -4.5400    5.1610    0.0000 C   0  0  0  0  0  0  0  0  0  0  0  0
   -6.0400    5.1490    0.0000 C   0  0  0  0  0  0  0  0  0  0  0  0
   -6.7800    3.8450    0.0000 C   0  0  3  0  0  0  0  0  0  0  0  0
   -6.0200    2.5510    0.0000 C   0  0  3  0  0  0  0  0  0  0  0  0
   -6.7600    1.2470    0.0000 C   0  0  0  0  0  0  0  0  0  0  0  0
   -8.2600    1.2350    0.0000 C   0  0  3  0  0  0  0  0  0  0  0  0
   -9.0000   -0.0700    0.0000 O   0  0  0  0  0  0  0  0  0  0  0  0
   -9.0200    2.5280    0.0000 C   0  0  3  0  0  0  0  0  0  0  0  0
   -8.2800    3.8330    0.0000 C   0  0  3  0  0  0  0  0  0  0  0  0
   -9.2920    4.9400    0.0000 C   0  0  0  0  0  0  0  0  0  0  0  0
  -10.6580    4.3190    0.0000 C   0  0  0  0  0  0  0  0  0  0  0  0
  -10.4890    2.8290    0.0000 C   0  0  3  0  0  0  0  0  0  0  0  0
  -11.5960    1.8160    0.0000 C   0  0  3  0  0  0  0  0  0  0  0  0
  -10.5840    0.7090    0.0000 O   0  0  0  0  0  0  0  0  0  0  0  0
  -11.0370   -0.7210    0.0000 C   0  0  3  0  0  0  0  0  0  0  0  0
  -12.5010   -1.0440    0.0000 O   0  0  0  0  0  0  0  0  0  0  0  0
  -12.9540   -2.4740    0.0000 C   0  0  3  0  0  0  0  0  0  0  0  0
  -14.4180   -2.7970    0.0000 C   0  0  0  0  0  0  0  0  0  0  0  0
  -14.8710   -4.2270    0.0000 O   0  0  0  0  0  0  0  0  0  0  0  0
  -16.3360   -4.5510    0.0000 C   0  0  3  0  0  0  0  0  0  0  0  0
  -17.3480   -3.4440    0.0000 O   0  0  0  0  0  0  0  0  0  0  0  0
  -18.8130   -3.7670    0.0000 C   0  0  3  0  0  0  0  0  0  0  0  0
  -19.8250   -2.6600    0.0000 C   0  0  0  0  0  0  0  0  0  0  0  0
  -21.2900   -2.9830    0.0000 O   0  0  0  0  0  0  0  0  0  0  0  0
  -19.2650   -5.1970    0.0000 C   0  0  3  0  0  0  0  0  0  0  0  0
  -20.7300   -5.5200    0.0000 O   0  0  0  0  0  0  0  0  0  0  0  0
  -18.2530   -6.3040    0.0000 C   0  0  3  0  0  0  0  0  0  0  0  0
  -18.7050   -7.7340    0.0000 O   0  0  0  0  0  0  0  0  0  0  0  0
  -16.7880   -5.9810    0.0000 C   0  0  3  0  0  0  0  0  0  0  0  0
  -15.7760   -7.0880    0.0000 O   0  0  0  0  0  0  0  0  0  0  0  0
  -11.9410   -3.5810    0.0000 C   0  0  3  0  0  0  0  0  0  0  0  0
  -12.3940   -5.0110    0.0000 O   0  0  0  0  0  0  0  0  0  0  0  0
  -10.4770   -3.2580    0.0000 C   0  0  3  0  0  0  0  0  0  0  0  0
   -9.4640   -4.3650    0.0000 O   0  0  0  0  0  0  0  0  0  0  0  0
  -10.0240   -1.8280    0.0000 C   0  0  3  0  0  0  0  0  0  0  0  0
   -8.5590   -1.5040    0.0000 O   0  0  0  0  0  0  0  0  0  0  0  0
  -12.6090    2.9230    0.0000 C   0  0  0  0  0  0  0  0  0  0  0  0
  -14.0730    2.6000    0.0000 C   0  0  0  0  0  0  0  0  0  0  0  0
  -15.0860    3.7070    0.0000 C   0  0  0  0  0  0  0  0  0  0  0  0
  -16.5510    3.3840    0.0000 C   0  0  0  0  0  0  0  0  0  0  0  0
  -17.0030    1.9530    0.0000 C   0  0  0  0  0  0  0  0  0  0  0  0
  -17.5630    4.4910    0.0000 C   0  0  0  0  0  0  0  0  0  0  0  0
  -12.7030    0.8040    0.0000 C   0  0  0  0  0  0  0  0  0  0  0  0
   -7.9540    5.2970    0.0000 C   0  0  0  0  0  0  0  0  0  0  0  0
   -7.3530    5.2310    0.0000 C   0  0  0  0  0  0  0  0  0  0  0  0
   -2.2800    3.8800    0.0000 C   0  0  0  0  0  0  0  0  0  0  0  0
   -2.3310    5.3790    0.0000 C   0  0  0  0  0  0  0  0  0  0  0  0
   -1.0210    4.6950    0.0000 C   0  0  0  0  0  0  0  0  0  0  0  0
   -4.5000   -0.0350    0.0000 C   0  0  0  0  0  0  0  0  0  0  0  0
  1  2  1  0  0  0  0
  1 22  1  0  0  0  0
  2  3  1  0  0  0  0
  2  5  1  0  0  0  0
  3  4  1  0  0  0  0
  5  6  1  0  0  0  0
  5  7  1  0  0  0  0
  7  8  1  0  0  0  0
  7  9  1  0  0  0  0
  9 10  1  0  0  0  0
  9 22  1  0  0  0  0
 10 11  1  0  0  0  0
 11 12  1  0  0  0  0
 11 20  1  0  0  0  0
 12 13  1  0  0  0  0
 13 14  1  0  0  0  0
 13 16  1  0  0  0  0
 14 15  1  0  0  0  0
 16 17  1  0  0  0  0
 16 18  1  0  0  0  0
 18 19  1  0  0  0  0
 18 20  1  0  0  0  0
 20 21  1  0  0  0  0
 22 23  1  0  0  0  0
 23 24  1  0  0  0  0
 24 25  1  0  0  0  0
 24 74  1  0  0  0  0
 25 26  1  0  0  0  0
 26 27  1  0  0  0  0
 26 77  1  0  0  0  0
 27 28  1  0  0  0  0
 27 32  1  0  0  0  0
 28 29  1  0  0  0  0
 28 74  1  0  0  0  0
 29 30  1  0  0  0  0
 30 31  1  0  0  0  0
 31 32  1  0  0  0  0
 31 37  1  0  0  0  0
 31 73  1  0  0  0  0
 32 33  1  0  0  0  0
 33 34  1  0  0  0  0
 34 35  1  0  0  0  0
 34 36  1  0  0  0  0
 36 37  1  0  0  0  0
 36 40  1  0  0  0  0
 37 38  1  0  0  0  0
 37 72  1  0  0  0  0
 38 39  1  0  0  0  0
 39 40  1  0  0  0  0
 40 41  1  0  0  0  0
 41 42  1  0  0  0  0
 41 65  1  0  0  0  0
 41 71  1  0  0  0  0
 42 43  1  0  0  0  0
 43 44  1  0  0  0  0
 43 63  1  0  0  0  0
 44 45  1  0  0  0  0
 45 46  1  0  0  0  0
 45 59  1  0  0  0  0
 46 47  1  0  0  0  0
 47 48  1  0  0  0  0
 48 49  1  0  0  0  0
 48 57  1  0  0  0  0
 49 50  1  0  0  0  0
 50 51  1  0  0  0  0
 50 53  1  0  0  0  0
 51 52  1  0  0  0  0
 53 54  1  0  0  0  0
 53 55  1  0  0  0  0
 55 56  1  0  0  0  0
 55 57  1  0  0  0  0
 57 58  1  0  0  0  0
 59 60  1  0  0  0  0
 59 61  1  0  0  0  0
 61 62  1  0  0  0  0
 61 63  1  0  0  0  0
 63 64  1  0  0  0  0
 65 66  1  0  0  0  0
 66 67  1  0  0  0  0
 67 68  2  3  0  0  0
 68 69  1  0  0  0  0
 68 70  1  0  0  0  0
 74 75  1  0  0  0  0
 74 76  1  0  0  0  0
M  END
>  <Index>
491

>  <ID>
HT0981

>  <class>
0

>  <apol>
174.83096

>  <ast_fraglike>
0

>  <ast_fraglike_ext>
0

>  <ast_violation>
3

>  <ast_violation_ext>
5

>  <a_acc>
23

>  <a_acid>
0

>  <a_aro>
0

>  <a_base>
0

>  <a_count>
169

>  <a_don>
15

>  <a_donacc>
38

>  <a_heavy>
77

>  <a_hyd>
50

>  <a_IC>
235.77507

>  <a_ICM>
1.3951188

>  <a_nB>
0

>  <a_nBr>
0

>  <a_nC>
54

>  <a_nCl>
0

>  <a_nF>
0

>  <a_nH>
92

>  <a_nI>
0

>  <a_nN>
0

>  <a_nO>
23

>  <a_nP>
0

>  <a_nS>
0

>  <balabanJ>
1.004824

>  <BCUT_PEOE_0>
-3.0210783

>  <BCUT_PEOE_1>
-0.5040704

>  <BCUT_PEOE_2>
0.61038297

>  <BCUT_PEOE_3>
3.0172219

>  <BCUT_SLOGP_0>
-2.9776266

>  <BCUT_SLOGP_1>
-0.56346589

>  <BCUT_SLOGP_2>
0.49762845

>  <BCUT_SLOGP_3>
3.0760119

>  <BCUT_SMR_0>
-2.7702971

>  <BCUT_SMR_1>
-0.39525706

>  <BCUT_SMR_2>
0.67119467

>  <BCUT_SMR_3>
3.26686

>  <bpol>
115.90305

>  <b_1rotN>
16

>  <b_1rotR>
0.19047619

>  <b_ar>
0

>  <b_count>
176

>  <b_double>
1

>  <b_heavy>
84

>  <b_max1len>
7

>  <b_rotN>
16

>  <b_rotR>
0.19047619

>  <b_single>
175

>  <b_triple>
0

>  <chi0>
56.5924

>  <chi0v>
45.702629

>  <chi0v_C>
35.728439

>  <chi0_C>
35.935547

>  <chi1>
36.095371

>  <chi1v>
27.950493

>  <chi1v_C>
20.110792

>  <chi1_C>
20.476818

>  <chiral>
31

>  <chiral_u>
31

>  <density>
0.77621377

>  <diameter>
29

>  <FCharge>
0

>  <GCUT_PEOE_0>
-0.80551267

>  <GCUT_PEOE_1>
-0.38944477

>  <GCUT_PEOE_2>
0.092554666

>  <GCUT_PEOE_3>
3.9097862

>  <GCUT_SLOGP_0>
-0.95593905

>  <GCUT_SLOGP_1>
-0.39707467

>  <GCUT_SLOGP_2>
-0.0081948936

>  <GCUT_SLOGP_3>
3.9474823

>  <GCUT_SMR_0>
-0.54316628

>  <GCUT_SMR_1>
-0.23302236

>  <GCUT_SMR_2>
0.13768837

>  <GCUT_SMR_3>
4.1189151

>  <Kier1>
63.031746

>  <Kier2>
24.535124

>  <Kier3>
11.528421

>  <KierA1>
62.389832

>  <KierA2>
24.281954

>  <KierA3>
11.40839

>  <KierFlex>
19.674637

>  <lip_acc>
23

>  <lip_don>
15

>  <lip_druglike>
0

>  <lip_violation>
3

>  <logP(o/w)>
-1.54026

>  <logS>
-6.2669501

>  <mr>
26.718407

>  <mutagenic>
0

>  <nmol>
1

>  <opr_brigid>
45

>  <opr_leadlike>
0

>  <opr_nring>
8

>  <opr_nrot>
24

>  <opr_violation>
5

>  <PC+>
0

>  <PC->
0

>  <PEOE_PC+>
9.6031485

>  <PEOE_PC->
-9.6031485

>  <PEOE_RPC+>
0.021879332

>  <PEOE_RPC->
0.040858079

>  <PEOE_VSA+0>
196.20776

>  <PEOE_VSA+1>
201.842

>  <PEOE_VSA+2>
78.478859

>  <PEOE_VSA+3>
44.619633

>  <PEOE_VSA+4>
154.86259

>  <PEOE_VSA+5>
0

>  <PEOE_VSA+6>
0

>  <PEOE_VSA-0>
125.85354

>  <PEOE_VSA-1>
108.20183

>  <PEOE_VSA-2>
0

>  <PEOE_VSA-3>
0

>  <PEOE_VSA-4>
0

>  <PEOE_VSA-5>
0

>  <PEOE_VSA-6>
136.54315

>  <PEOE_VSA_FHYD>
0.72157162

>  <PEOE_VSA_FNEG>
0.35409442

>  <PEOE_VSA_FPNEG>
0.13046238

>  <PEOE_VSA_FPOL>
0.27842838

>  <PEOE_VSA_FPOS>
0.64590561

>  <PEOE_VSA_FPPOS>
0.14796598

>  <PEOE_VSA_HYD>
755.20361

>  <PEOE_VSA_NEG>
370.59851

>  <PEOE_VSA_PNEG>
136.54315

>  <PEOE_VSA_POL>
291.40573

>  <PEOE_VSA_POS>
676.01086

>  <PEOE_VSA_PPOS>
154.86259

>  <petitjean>
0.48275861

>  <petitjeanSC>
0.93333334

>  <Q_PC+>
0

>  <Q_PC->
0

>  <Q_RPC+>
0

>  <Q_RPC->
0

>  <Q_VSA_FHYD>
1

>  <Q_VSA_FNEG>
0

>  <Q_VSA_FPNEG>
0

>  <Q_VSA_FPOL>
0

>  <Q_VSA_FPOS>
1

>  <Q_VSA_FPPOS>
0

>  <Q_VSA_HYD>
1046.6094

>  <Q_VSA_NEG>
0

>  <Q_VSA_PNEG>
0

>  <Q_VSA_POL>
0

>  <Q_VSA_POS>
1046.6094

>  <Q_VSA_PPOS>
0

>  <radius>
15

>  <reactive>
1

>  <rings>
8

>  <RPC+>
0

>  <RPC->
0

>  <rsynth>
0.5714286

>  <SlogP>
-2.3467

>  <SlogP_VSA0>
380.77838

>  <SlogP_VSA1>
0

>  <SlogP_VSA2>
238.5408

>  <SlogP_VSA3>
83.705032

>  <SlogP_VSA4>
26.464777

>  <SlogP_VSA5>
3.185575

>  <SlogP_VSA6>
0

>  <SlogP_VSA7>
17.643185

>  <SlogP_VSA8>
150.94725

>  <SlogP_VSA9>
266.60812

>  <SMR>
26.6147

>  <SMR_VSA0>
87.9991

>  <SMR_VSA1>
380.77838

>  <SMR_VSA2>
26.464777

>  <SMR_VSA3>
153.72726

>  <SMR_VSA4>
0

>  <SMR_VSA5>
168.59042

>  <SMR_VSA6>
83.705032

>  <SMR_VSA7>
266.60812

>  <TPSA>
377.29001

>  <VAdjEq>
0.18597351

>  <VAdjMa>
7.3923173

>  <VDistEq>
4.6180377

>  <VDistMa>
12.245596

>  <vdw_area>
1046.6094

>  <vdw_vol>
1429.1256

>  <vsa_acc>
20.030048

>  <vsa_acid>
0

>  <vsa_base>
0

>  <vsa_don>
0

>  <vsa_hyd>
633.49109

>  <vsa_other>
58.833996

>  <vsa_pol>
223.53386

>  <Weight>
1109.307

>  <weinerPath>
32352

>  <weinerPol>
164

>  <zagreb>
432

$$$$