O(CCNC(=O)CN(CCN(CCN(CC(=O)NCCOC)CC(O)=O)CC(O)=O)CC(O)=O)C
  MOE2013           2D

 35 34  0  0  1  0  0  0  0  0999 V2000
    0.0000    0.0000    0.0000 O   0  0  0  0  0  0  0  0  0  0  0  0
   -1.3020    0.7450    0.0000 C   0  0  0  0  0  0  0  0  0  0  0  0
   -2.5980   -0.0090    0.0000 C   0  0  0  0  0  0  0  0  0  0  0  0
   -3.9000    0.7360    0.0000 N   0  0  0  0  0  0  0  0  0  0  0  0
   -5.1960   -0.0180    0.0000 C   0  0  0  0  0  0  0  0  0  0  0  0
   -6.4980    0.7270    0.0000 O   0  0  0  0  0  0  0  0  0  0  0  0
   -5.1910   -1.5180    0.0000 C   0  0  0  0  0  0  0  0  0  0  0  0
   -6.4870   -2.2730    0.0000 N   0  0  3  0  0  0  0  0  0  0  0  0
   -7.7890   -1.5280    0.0000 C   0  0  0  0  0  0  0  0  0  0  0  0
   -9.0850   -2.2820    0.0000 C   0  0  0  0  0  0  0  0  0  0  0  0
  -10.3870   -1.5370    0.0000 N   0  0  0  0  0  0  0  0  0  0  0  0
  -11.6830   -2.2910    0.0000 C   0  0  0  0  0  0  0  0  0  0  0  0
  -12.9850   -1.5460    0.0000 C   0  0  0  0  0  0  0  0  0  0  0  0
  -14.2810   -2.3010    0.0000 N   0  0  3  0  0  0  0  0  0  0  0  0
  -14.2760   -3.8010    0.0000 C   0  0  0  0  0  0  0  0  0  0  0  0
  -15.5720   -4.5550    0.0000 C   0  0  0  0  0  0  0  0  0  0  0  0
  -16.8740   -3.8100    0.0000 O   0  0  0  0  0  0  0  0  0  0  0  0
  -15.5670   -6.0550    0.0000 N   0  0  0  0  0  0  0  0  0  0  0  0
  -16.8630   -6.8100    0.0000 C   0  0  0  0  0  0  0  0  0  0  0  0
  -16.8580   -8.3100    0.0000 C   0  0  0  0  0  0  0  0  0  0  0  0
  -18.1550   -9.0640    0.0000 O   0  0  0  0  0  0  0  0  0  0  0  0
  -18.1490  -10.5640    0.0000 C   0  0  0  0  0  0  0  0  0  0  0  0
  -15.5830   -1.5550    0.0000 C   0  0  0  0  0  0  0  0  0  0  0  0
  -15.5880   -0.0550    0.0000 C   0  0  0  0  0  0  0  0  0  0  0  0
  -16.8900    0.6900    0.0000 O   0  0  0  0  0  0  0  0  0  0  0  0
  -14.2920    0.6990    0.0000 O   0  0  0  0  0  0  0  0  0  0  0  0
  -10.3920   -0.0370    0.0000 C   0  0  0  0  0  0  0  0  0  0  0  0
  -11.6940    0.7090    0.0000 C   0  0  0  0  0  0  0  0  0  0  0  0
  -11.6990    2.2090    0.0000 O   0  0  0  0  0  0  0  0  0  0  0  0
  -12.9900   -0.0460    0.0000 O   0  0  0  0  0  0  0  0  0  0  0  0
   -6.4820   -3.7730    0.0000 C   0  0  0  0  0  0  0  0  0  0  0  0
   -5.1800   -4.5180    0.0000 C   0  0  0  0  0  0  0  0  0  0  0  0
   -3.8840   -3.7640    0.0000 O   0  0  0  0  0  0  0  0  0  0  0  0
   -5.1750   -6.0180    0.0000 O   0  0  0  0  0  0  0  0  0  0  0  0
    1.2960    0.7550    0.0000 C   0  0  0  0  0  0  0  0  0  0  0  0
  1  2  1  0  0  0  0
  1 35  1  0  0  0  0
  2  3  1  0  0  0  0
  3  4  1  0  0  0  0
  4  5  1  0  0  0  0
  5  6  2  0  0  0  0
  5  7  1  0  0  0  0
  7  8  1  0  0  0  0
  8  9  1  0  0  0  0
  8 31  1  0  0  0  0
  9 10  1  0  0  0  0
 10 11  1  0  0  0  0
 11 12  1  0  0  0  0
 11 27  1  0  0  0  0
 12 13  1  0  0  0  0
 13 14  1  0  0  0  0
 14 15  1  0  0  0  0
 14 23  1  0  0  0  0
 15 16  1  0  0  0  0
 16 17  2  0  0  0  0
 16 18  1  0  0  0  0
 18 19  1  0  0  0  0
 19 20  1  0  0  0  0
 20 21  1  0  0  0  0
 21 22  1  0  0  0  0
 23 24  1  0  0  0  0
 24 25  1  0  0  0  0
 24 26  2  0  0  0  0
 27 28  1  0  0  0  0
 28 29  1  0  0  0  0
 28 30  2  0  0  0  0
 31 32  1  0  0  0  0
 32 33  1  0  0  0  0
 32 34  2  0  0  0  0
M  END
>  <Index>
474

>  <ID>
HT0957

>  <class>
0

>  <apol>
73.391342

>  <ast_fraglike>
0

>  <ast_fraglike_ext>
0

>  <ast_violation>
3

>  <ast_violation_ext>
5

>  <a_acc>
13

>  <a_acid>
0

>  <a_aro>
0

>  <a_base>
0

>  <a_count>
72

>  <a_don>
8

>  <a_donacc>
21

>  <a_heavy>
35

>  <a_hyd>
15

>  <a_IC>
120.21734

>  <a_ICM>
1.6696854

>  <a_nB>
0

>  <a_nBr>
0

>  <a_nC>
20

>  <a_nCl>
0

>  <a_nF>
0

>  <a_nH>
37

>  <a_nI>
0

>  <a_nN>
5

>  <a_nO>
10

>  <a_nP>
0

>  <a_nS>
0

>  <balabanJ>
4.9297757

>  <BCUT_PEOE_0>
-2.7070291

>  <BCUT_PEOE_1>
-0.51173711

>  <BCUT_PEOE_2>
0.42472884

>  <BCUT_PEOE_3>
2.6453743

>  <BCUT_SLOGP_0>
-2.8634243

>  <BCUT_SLOGP_1>
-0.49560514

>  <BCUT_SLOGP_2>
0.36946857

>  <BCUT_SLOGP_3>
2.4929662

>  <BCUT_SMR_0>
-2.4347782

>  <BCUT_SMR_1>
-0.30619758

>  <BCUT_SMR_2>
0.5578956

>  <BCUT_SMR_3>
2.9068768

>  <bpol>
56.330658

>  <b_1rotN>
22

>  <b_1rotR>
0.64705884

>  <b_ar>
0

>  <b_count>
71

>  <b_double>
5

>  <b_heavy>
34

>  <b_max1len>
10

>  <b_rotN>
24

>  <b_rotR>
0.70588237

>  <b_single>
66

>  <b_triple>
0

>  <chi0>
26.639618

>  <chi0v>
20.233408

>  <chi0v_C>
13.692389

>  <chi0_C>
14.07914

>  <chi1>
16.564989

>  <chi1v>
10.906212

>  <chi1v_C>
3.767767

>  <chi1_C>
4.0412416

>  <chiral>
0

>  <chiral_u>
0

>  <density>
0.79112166

>  <diameter>
20

>  <FCharge>
0

>  <GCUT_PEOE_0>
-0.84014922

>  <GCUT_PEOE_1>
-0.46091339

>  <GCUT_PEOE_2>
0.069550768

>  <GCUT_PEOE_3>
2.8090372

>  <GCUT_SLOGP_0>
-1.16337

>  <GCUT_SLOGP_1>
-0.48175114

>  <GCUT_SLOGP_2>
0.01594821

>  <GCUT_SLOGP_3>
2.6847816

>  <GCUT_SMR_0>
-0.51857203

>  <GCUT_SMR_1>
-0.23267587

>  <GCUT_SMR_2>
0.15769638

>  <GCUT_SMR_3>
3.0342886

>  <Kier1>
35

>  <Kier2>
22.026175

>  <Kier3>
21.76

>  <KierA1>
29.668034

>  <KierA2>
18.575617

>  <KierA3>
18.283474

>  <KierFlex>
15.745771

>  <lip_acc>
15

>  <lip_don>
5

>  <lip_druglike>
0

>  <lip_violation>
2

>  <logP(o/w)>
-3.474

>  <logS>
0.097850002

>  <mr>
12.371681

>  <mutagenic>
0

>  <nmol>
1

>  <opr_brigid>
0

>  <opr_leadlike>
0

>  <opr_nring>
0

>  <opr_nrot>
22

>  <opr_violation>
3

>  <PC+>
0

>  <PC->
0

>  <PEOE_PC+>
4.6517181

>  <PEOE_PC->
-4.6517181

>  <PEOE_RPC+>
0.058857579

>  <PEOE_RPC->
0.08195664

>  <PEOE_VSA+0>
163.27235

>  <PEOE_VSA+1>
198.23347

>  <PEOE_VSA+2>
0

>  <PEOE_VSA+3>
17.238026

>  <PEOE_VSA+4>
56.871578

>  <PEOE_VSA+5>
44.125496

>  <PEOE_VSA+6>
0

>  <PEOE_VSA-0>
0

>  <PEOE_VSA-1>
0

>  <PEOE_VSA-2>
0

>  <PEOE_VSA-3>
0

>  <PEOE_VSA-4>
0

>  <PEOE_VSA-5>
67.834602

>  <PEOE_VSA-6>
28.583916

>  <PEOE_VSA_FHYD>
0.65735942

>  <PEOE_VSA_FNEG>
0.16734694

>  <PEOE_VSA_FPNEG>
0.16734694

>  <PEOE_VSA_FPOL>
0.34264055

>  <PEOE_VSA_FPOS>
0.83265305

>  <PEOE_VSA_FPPOS>
0.17529362

>  <PEOE_VSA_HYD>
378.74387

>  <PEOE_VSA_NEG>
96.418518

>  <PEOE_VSA_PNEG>
96.418518

>  <PEOE_VSA_POL>
197.4156

>  <PEOE_VSA_POS>
479.74094

>  <PEOE_VSA_PPOS>
100.99708

>  <petitjean>
0.5

>  <petitjeanSC>
1

>  <Q_PC+>
0

>  <Q_PC->
0

>  <Q_RPC+>
0

>  <Q_RPC->
0

>  <Q_VSA_FHYD>
1

>  <Q_VSA_FNEG>
0

>  <Q_VSA_FPNEG>
0

>  <Q_VSA_FPOL>
0

>  <Q_VSA_FPOS>
1

>  <Q_VSA_FPPOS>
0

>  <Q_VSA_HYD>
576.15942

>  <Q_VSA_NEG>
0

>  <Q_VSA_PNEG>
0

>  <Q_VSA_POL>
0

>  <Q_VSA_POS>
576.15942

>  <Q_VSA_PPOS>
0

>  <radius>
10

>  <reactive>
0

>  <rings>
0

>  <RPC+>
0

>  <RPC->
0

>  <rsynth>
1

>  <SlogP>
-3.3285999

>  <SlogP_VSA0>
36.0215

>  <SlogP_VSA1>
43.1269

>  <SlogP_VSA2>
141.31085

>  <SlogP_VSA3>
320.84357

>  <SlogP_VSA4>
0

>  <SlogP_VSA5>
70.767738

>  <SlogP_VSA6>
0

>  <SlogP_VSA7>
0

>  <SlogP_VSA8>
0

>  <SlogP_VSA9>
0

>  <SMR>
12.19988

>  <SMR_VSA0>
141.31085

>  <SMR_VSA1>
9.372942

>  <SMR_VSA2>
112.17718

>  <SMR_VSA3>
0

>  <SMR_VSA4>
0

>  <SMR_VSA5>
0

>  <SMR_VSA6>
278.44183

>  <SMR_VSA7>
70.767738

>  <TPSA>
198.28

>  <VAdjEq>
0.30935803

>  <VAdjMa>
6.0874629

>  <VDistEq>
3.977608

>  <VDistMa>
9.9864416

>  <vdw_area>
576.15942

>  <vdw_vol>
641.54608

>  <vsa_acc>
32.141354

>  <vsa_acid>
0

>  <vsa_base>
0

>  <vsa_don>
11.365152

>  <vsa_hyd>
338.72836

>  <vsa_other>
70.024559

>  <vsa_pol>
124.90803

>  <Weight>
507.54099

>  <weinerPath>
4456

>  <weinerPol>
40

>  <zagreb>
150

$$$$