O=C(N)c1cc2c3C[C@H](NC)CCc3[nH]c2cc1
  MOE2013           2D

 18 20  0  0  1  0  0  0  0  0999 V2000
    0.0000    0.0000    0.0000 O   0  0  0  0  0  0  0  0  0  0  0  0
   -0.0100   -1.5000    0.0000 C   0  0  0  0  0  0  0  0  0  0  0  0
   -1.3140   -2.2410    0.0000 N   0  0  0  0  0  0  0  0  0  0  0  0
    1.2840   -2.2590    0.0000 C   0  0  0  0  0  0  0  0  0  0  0  0
    2.5880   -1.5180    0.0000 C   0  0  0  0  0  0  0  0  0  0  0  0
    3.8820   -2.2760    0.0000 C   0  0  0  0  0  0  0  0  0  0  0  0
    5.3120   -1.8220    0.0000 C   0  0  0  0  0  0  0  0  0  0  0  0
    5.9310   -0.4560    0.0000 C   0  0  0  0  0  0  0  0  0  0  0  0
    7.4240   -0.3090    0.0000 C   0  0  2  0  0  0  0  0  0  0  0  0
    8.0430    1.0570    0.0000 N   0  0  0  0  0  0  0  0  0  0  0  0
    9.5360    1.2030    0.0000 C   0  0  0  0  0  0  0  0  0  0  0  0
    8.2970   -1.5290    0.0000 C   0  0  0  0  0  0  0  0  0  0  0  0
    7.6780   -2.8950    0.0000 C   0  0  0  0  0  0  0  0  0  0  0  0
    6.1850   -3.0420    0.0000 C   0  0  0  0  0  0  0  0  0  0  0  0
    5.2950   -4.2490    0.0000 N   0  0  0  0  0  0  0  0  0  0  0  0
    3.8720   -3.7760    0.0000 C   0  0  0  0  0  0  0  0  0  0  0  0
    2.5680   -4.5170    0.0000 C   0  0  0  0  0  0  0  0  0  0  0  0
    1.2740   -3.7590    0.0000 C   0  0  0  0  0  0  0  0  0  0  0  0
  1  2  2  0  0  0  0
  2  3  1  0  0  0  0
  2  4  1  0  0  0  0
  4  5  1  0  0  0  0
  4 18  2  0  0  0  0
  5  6  2  0  0  0  0
  6  7  1  0  0  0  0
  6 16  1  0  0  0  0
  7  8  1  0  0  0  0
  7 14  2  0  0  0  0
  8  9  1  0  0  0  0
  9 10  1  6  0  0  0
  9 12  1  0  0  0  0
 10 11  1  0  0  0  0
 12 13  1  0  0  0  0
 13 14  1  0  0  0  0
 14 15  1  0  0  0  0
 15 16  1  0  0  0  0
 16 17  2  0  0  0  0
 17 18  1  0  0  0  0
M  END
>  <Index>
466

>  <ID>
HT0942

>  <class>
0

>  <apol>
40.07748

>  <ast_fraglike>
1

>  <ast_fraglike_ext>
1

>  <ast_violation>
0

>  <ast_violation_ext>
0

>  <a_acc>
2

>  <a_acid>
0

>  <a_aro>
9

>  <a_base>
0

>  <a_count>
35

>  <a_don>
3

>  <a_donacc>
5

>  <a_heavy>
18

>  <a_hyd>
13

>  <a_IC>
51.980183

>  <a_ICM>
1.4851481

>  <a_nB>
0

>  <a_nBr>
0

>  <a_nC>
14

>  <a_nCl>
0

>  <a_nF>
0

>  <a_nH>
17

>  <a_nI>
0

>  <a_nN>
3

>  <a_nO>
1

>  <a_nP>
0

>  <a_nS>
0

>  <balabanJ>
1.7018348

>  <BCUT_PEOE_0>
-2.6932085

>  <BCUT_PEOE_1>
-0.57671738

>  <BCUT_PEOE_2>
0.60573977

>  <BCUT_PEOE_3>
2.6507099

>  <BCUT_SLOGP_0>
-2.7777812

>  <BCUT_SLOGP_1>
-0.50298482

>  <BCUT_SLOGP_2>
0.65235573

>  <BCUT_SLOGP_3>
2.6606841

>  <BCUT_SMR_0>
-2.4260874

>  <BCUT_SMR_1>
-0.42016336

>  <BCUT_SMR_2>
0.76863873

>  <BCUT_SMR_3>
2.9203413

>  <bpol>
20.202518

>  <b_1rotN>
2

>  <b_1rotR>
0.1

>  <b_ar>
10

>  <b_count>
37

>  <b_double>
1

>  <b_heavy>
20

>  <b_max1len>
4

>  <b_rotN>
2

>  <b_rotR>
0.1

>  <b_single>
26

>  <b_triple>
0

>  <chi0>
12.698306

>  <chi0v>
10.41632

>  <chi0v_C>
8.4307213

>  <chi0_C>
9.2840929

>  <chi1>
8.6858721

>  <chi1v>
6.2931118

>  <chi1v_C>
4.5116372

>  <chi1_C>
5.5993195

>  <chiral>
1

>  <chiral_u>
0

>  <density>
0.71765679

>  <diameter>
9

>  <FCharge>
0

>  <GCUT_PEOE_0>
-0.86115789

>  <GCUT_PEOE_1>
-0.39727476

>  <GCUT_PEOE_2>
0.064758927

>  <GCUT_PEOE_3>
2.6547585

>  <GCUT_SLOGP_0>
-1.3703454

>  <GCUT_SLOGP_1>
-0.32365277

>  <GCUT_SLOGP_2>
0.14848812

>  <GCUT_SLOGP_3>
2.7214043

>  <GCUT_SMR_0>
-0.51725954

>  <GCUT_SMR_1>
-0.21140604

>  <GCUT_SMR_2>
0.19090676

>  <GCUT_SMR_3>
2.9389563

>  <Kier1>
13.005

>  <Kier2>
5.1747918

>  <Kier3>
2.4000001

>  <KierA1>
9.5758581

>  <KierA2>
3.7355006

>  <KierA3>
1.7071445

>  <KierFlex>
1.9872568

>  <lip_acc>
4

>  <lip_don>
4

>  <lip_druglike>
1

>  <lip_violation>
0

>  <logP(o/w)>
1.552

>  <logS>
-2.2674301

>  <mr>
7.0519357

>  <mutagenic>
0

>  <nmol>
1

>  <opr_brigid>
15

>  <opr_leadlike>
1

>  <opr_nring>
3

>  <opr_nrot>
2

>  <opr_violation>
0

>  <PC+>
0

>  <PC->
0

>  <PEOE_PC+>
1.5176464

>  <PEOE_PC->
-1.5176464

>  <PEOE_RPC+>
0.16441372

>  <PEOE_RPC->
0.24106967

>  <PEOE_VSA+0>
63.616001

>  <PEOE_VSA+1>
12.796158

>  <PEOE_VSA+2>
8.6190128

>  <PEOE_VSA+3>
25.857038

>  <PEOE_VSA+4>
12.949531

>  <PEOE_VSA+5>
0

>  <PEOE_VSA+6>
0

>  <PEOE_VSA-0>
88.31588

>  <PEOE_VSA-1>
0

>  <PEOE_VSA-2>
0

>  <PEOE_VSA-3>
0

>  <PEOE_VSA-4>
0

>  <PEOE_VSA-5>
13.566921

>  <PEOE_VSA-6>
6.9249015

>  <PEOE_VSA_FHYD>
0.85625613

>  <PEOE_VSA_FNEG>
0.46769753

>  <PEOE_VSA_FPNEG>
0.08808177

>  <PEOE_VSA_FPOL>
0.14374386

>  <PEOE_VSA_FPOS>
0.53230244

>  <PEOE_VSA_FPPOS>
0.055662088

>  <PEOE_VSA_HYD>
199.20409

>  <PEOE_VSA_NEG>
108.8077

>  <PEOE_VSA_PNEG>
20.491823

>  <PEOE_VSA_POL>
33.441353

>  <PEOE_VSA_POS>
123.83775

>  <PEOE_VSA_PPOS>
12.949531

>  <petitjean>
0.44444445

>  <petitjeanSC>
0.80000001

>  <Q_PC+>
0

>  <Q_PC->
0

>  <Q_RPC+>
0

>  <Q_RPC->
0

>  <Q_VSA_FHYD>
1

>  <Q_VSA_FNEG>
0

>  <Q_VSA_FPNEG>
0

>  <Q_VSA_FPOL>
0

>  <Q_VSA_FPOS>
1

>  <Q_VSA_FPPOS>
0

>  <Q_VSA_HYD>
232.64545

>  <Q_VSA_NEG>
0

>  <Q_VSA_PNEG>
0

>  <Q_VSA_POL>
0

>  <Q_VSA_POS>
232.64545

>  <Q_VSA_PPOS>
0

>  <radius>
5

>  <reactive>
0

>  <rings>
3

>  <RPC+>
0

>  <RPC->
0

>  <rsynth>
0.55555558

>  <SlogP>
1.3434401

>  <SlogP_VSA0>
50.90794

>  <SlogP_VSA1>
5.2587838

>  <SlogP_VSA2>
20.767498

>  <SlogP_VSA3>
0

>  <SlogP_VSA4>
32.990112

>  <SlogP_VSA5>
70.633995

>  <SlogP_VSA6>
0

>  <SlogP_VSA7>
57.646656

>  <SlogP_VSA8>
18.868406

>  <SlogP_VSA9>
0

>  <SMR>
7.1689301

>  <SMR_VSA0>
23.862217

>  <SMR_VSA1>
0

>  <SMR_VSA2>
34.79628

>  <SMR_VSA3>
13.109866

>  <SMR_VSA4>
37.614288

>  <SMR_VSA5>
109.53477

>  <SMR_VSA6>
5.2587838

>  <SMR_VSA7>
32.897186

>  <TPSA>
70.910004

>  <VAdjEq>
0.53921634

>  <VAdjMa>
5.321928

>  <VDistEq>
2.9240994

>  <VDistMa>
8.0466852

>  <vdw_area>
232.64545

>  <vdw_vol>
339.03391

>  <vsa_acc>
13.566921

>  <vsa_acid>
0

>  <vsa_base>
0

>  <vsa_don>
23.425066

>  <vsa_hyd>
155.4747

>  <vsa_other>
12.949531

>  <vsa_pol>
42.674564

>  <Weight>
243.31

>  <weinerPath>
577

>  <weinerPol>
29

>  <zagreb>
98

$$$$