P(Oc1c(OC)cc(cc1OC)C1C2C(COC2=O)C(OC2OC3C(OC(OC3)C)C(O)C2O)c2c1cc1OCOc1c2)(O)(O)=O
  MOE2013           2D

 46 52  0  0  1  0  0  0  0  0999 V2000
    0.0000    0.0000    0.0000 P   0  0  0  0  0  0  0  0  0  0  0  0
   -1.2980   -0.7510    0.0000 O   0  0  0  0  0  0  0  0  0  0  0  0
   -2.5980   -0.0020    0.0000 C   0  0  0  0  0  0  0  0  0  0  0  0
   -2.5990    1.4980    0.0000 C   0  0  0  0  0  0  0  0  0  0  0  0
   -1.3010    2.2490    0.0000 O   0  0  0  0  0  0  0  0  0  0  0  0
   -1.3020    3.7490    0.0000 C   0  0  0  0  0  0  0  0  0  0  0  0
   -3.8990    2.2460    0.0000 C   0  0  0  0  0  0  0  0  0  0  0  0
   -5.1980    1.4950    0.0000 C   0  0  0  0  0  0  0  0  0  0  0  0
   -5.1960   -0.0050    0.0000 C   0  0  0  0  0  0  0  0  0  0  0  0
   -3.8960   -0.7540    0.0000 C   0  0  0  0  0  0  0  0  0  0  0  0
   -3.8950   -2.2540    0.0000 O   0  0  0  0  0  0  0  0  0  0  0  0
   -2.5950   -3.0020    0.0000 C   0  0  0  0  0  0  0  0  0  0  0  0
   -6.4970    2.2440    0.0000 C   0  0  3  0  0  0  0  0  0  0  0  0
   -7.7960    1.4930    0.0000 C   0  0  3  0  0  0  0  0  0  0  0  0
   -9.0950    2.2420    0.0000 C   0  0  3  0  0  0  0  0  0  0  0  0
  -10.2090    1.2370    0.0000 C   0  0  0  0  0  0  0  0  0  0  0  0
   -9.5980   -0.1330    0.0000 O   0  0  0  0  0  0  0  0  0  0  0  0
   -8.1060    0.0250    0.0000 C   0  0  0  0  0  0  0  0  0  0  0  0
   -7.1010   -1.0880    0.0000 O   0  0  0  0  0  0  0  0  0  0  0  0
   -9.0970    3.7420    0.0000 C   0  0  3  0  0  0  0  0  0  0  0  0
  -10.3960    4.4910    0.0000 O   0  0  0  0  0  0  0  0  0  0  0  0
  -11.6950    3.7390    0.0000 C   0  0  3  0  0  0  0  0  0  0  0  0
  -11.6930    2.2390    0.0000 O   0  0  0  0  0  0  0  0  0  0  0  0
  -12.9920    1.4880    0.0000 C   0  0  3  0  0  0  0  0  0  0  0  0
  -14.2910    2.2370    0.0000 C   0  0  3  0  0  0  0  0  0  0  0  0
  -15.5900    1.4860    0.0000 O   0  0  0  0  0  0  0  0  0  0  0  0
  -15.5880   -0.0140    0.0000 C   0  0  3  0  0  0  0  0  0  0  0  0
  -14.2890   -0.7630    0.0000 O   0  0  0  0  0  0  0  0  0  0  0  0
  -12.9900   -0.0120    0.0000 C   0  0  0  0  0  0  0  0  0  0  0  0
  -16.8870   -0.7650    0.0000 C   0  0  0  0  0  0  0  0  0  0  0  0
  -14.2930    3.7370    0.0000 C   0  0  3  0  0  0  0  0  0  0  0  0
  -15.5930    4.4860    0.0000 O   0  0  0  0  0  0  0  0  0  0  0  0
  -12.9940    4.4880    0.0000 C   0  0  3  0  0  0  0  0  0  0  0  0
  -12.9960    5.9880    0.0000 O   0  0  0  0  0  0  0  0  0  0  0  0
   -7.7980    4.4930    0.0000 C   0  0  0  0  0  0  0  0  0  0  0  0
   -6.4990    3.7440    0.0000 C   0  0  0  0  0  0  0  0  0  0  0  0
   -5.2000    4.4950    0.0000 C   0  0  0  0  0  0  0  0  0  0  0  0
   -5.2020    5.9950    0.0000 C   0  0  0  0  0  0  0  0  0  0  0  0
   -4.0880    7.0000    0.0000 O   0  0  0  0  0  0  0  0  0  0  0  0
   -4.6990    8.3700    0.0000 C   0  0  0  0  0  0  0  0  0  0  0  0
   -6.1910    8.2120    0.0000 O   0  0  0  0  0  0  0  0  0  0  0  0
   -6.5010    6.7440    0.0000 C   0  0  0  0  0  0  0  0  0  0  0  0
   -7.8000    5.9930    0.0000 C   0  0  0  0  0  0  0  0  0  0  0  0
    0.7510   -1.2980    0.0000 O   0  0  0  0  0  0  0  0  0  0  0  0
   -0.7510    1.2980    0.0000 O   0  0  0  0  0  0  0  0  0  0  0  0
    1.2980    0.7510    0.0000 O   0  0  0  0  0  0  0  0  0  0  0  0
  1  2  1  0  0  0  0
  1 44  1  0  0  0  0
  1 45  1  0  0  0  0
  1 46  2  0  0  0  0
  2  3  1  0  0  0  0
  3  4  1  0  0  0  0
  3 10  2  0  0  0  0
  4  5  1  0  0  0  0
  4  7  2  0  0  0  0
  5  6  1  0  0  0  0
  7  8  1  0  0  0  0
  8  9  2  0  0  0  0
  8 13  1  0  0  0  0
  9 10  1  0  0  0  0
 10 11  1  0  0  0  0
 11 12  1  0  0  0  0
 13 14  1  0  0  0  0
 13 36  1  0  0  0  0
 14 15  1  0  0  0  0
 14 18  1  0  0  0  0
 15 16  1  0  0  0  0
 15 20  1  0  0  0  0
 16 17  1  0  0  0  0
 17 18  1  0  0  0  0
 18 19  2  0  0  0  0
 20 21  1  0  0  0  0
 20 35  1  0  0  0  0
 21 22  1  0  0  0  0
 22 23  1  0  0  0  0
 22 33  1  0  0  0  0
 23 24  1  0  0  0  0
 24 25  1  0  0  0  0
 24 29  1  0  0  0  0
 25 26  1  0  0  0  0
 25 31  1  0  0  0  0
 26 27  1  0  0  0  0
 27 28  1  0  0  0  0
 27 30  1  0  0  0  0
 28 29  1  0  0  0  0
 31 32  1  0  0  0  0
 31 33  1  0  0  0  0
 33 34  1  0  0  0  0
 35 36  1  0  0  0  0
 35 43  2  0  0  0  0
 36 37  2  0  0  0  0
 37 38  1  0  0  0  0
 38 39  1  0  0  0  0
 38 42  2  0  0  0  0
 39 40  1  0  0  0  0
 40 41  1  0  0  0  0
 41 42  1  0  0  0  0
 42 43  1  0  0  0  0
M  END
>  <Index>
411

>  <ID>
HT0832

>  <class>
0

>  <apol>
89.506172

>  <ast_fraglike>
0

>  <ast_fraglike_ext>
0

>  <ast_violation>
3

>  <ast_violation_ext>
5

>  <a_acc>
15

>  <a_acid>
0

>  <a_aro>
12

>  <a_base>
0

>  <a_count>
79

>  <a_don>
5

>  <a_donacc>
20

>  <a_heavy>
46

>  <a_hyd>
25

>  <a_IC>
126.65222

>  <a_ICM>
1.6031927

>  <a_nB>
0

>  <a_nBr>
0

>  <a_nC>
29

>  <a_nCl>
0

>  <a_nF>
0

>  <a_nH>
33

>  <a_nI>
0

>  <a_nN>
0

>  <a_nO>
16

>  <a_nP>
1

>  <a_nS>
0

>  <balabanJ>
1.1845394

>  <BCUT_PEOE_0>
-2.7648342

>  <BCUT_PEOE_1>
-0.58112448

>  <BCUT_PEOE_2>
0.55767608

>  <BCUT_PEOE_3>
2.8345957

>  <BCUT_SLOGP_0>
-2.9285936

>  <BCUT_SLOGP_1>
-0.60970563

>  <BCUT_SLOGP_2>
0.53012896

>  <BCUT_SLOGP_3>
2.8157995

>  <BCUT_SMR_0>
-2.5589371

>  <BCUT_SMR_1>
-0.41487819

>  <BCUT_SMR_2>
0.75785577

>  <BCUT_SMR_3>
3.0419252

>  <bpol>
64.631828

>  <b_1rotN>
7

>  <b_1rotR>
0.13461539

>  <b_ar>
12

>  <b_count>
85

>  <b_double>
1

>  <b_heavy>
52

>  <b_max1len>
4

>  <b_rotN>
7

>  <b_rotR>
0.13461539

>  <b_single>
72

>  <b_triple>
0

>  <chi0>
32.490471

>  <chi0v>
25.733698

>  <chi0v_C>
17.704224

>  <chi0_C>
18.919403

>  <chi1>
21.966879

>  <chi1v>
16.053106

>  <chi1v_C>
8.1912823

>  <chi1_C>
9.659833

>  <chiral>
10

>  <chiral_u>
10

>  <density>
0.87164581

>  <diameter>
18

>  <FCharge>
0

>  <GCUT_PEOE_0>
-0.78870732

>  <GCUT_PEOE_1>
-0.44318688

>  <GCUT_PEOE_2>
0.071221747

>  <GCUT_PEOE_3>
3.1840591

>  <GCUT_SLOGP_0>
-1.2951523

>  <GCUT_SLOGP_1>
-0.42018697

>  <GCUT_SLOGP_2>
0.027249623

>  <GCUT_SLOGP_3>
3.2279029

>  <GCUT_SMR_0>
-0.52788103

>  <GCUT_SMR_1>
-0.21964887

>  <GCUT_SMR_2>
0.14167304

>  <GCUT_SMR_3>
3.4165227

>  <Kier1>
34.448963

>  <Kier2>
13.6125

>  <Kier3>
6.5195394

>  <KierA1>
31.535057

>  <KierA2>
12.435871

>  <KierA3>
5.9476628

>  <KierFlex>
8.5253458

>  <lip_acc>
16

>  <lip_don>
4

>  <lip_druglike>
0

>  <lip_violation>
2

>  <logP(o/w)>
-0.11552

>  <logS>
-3.67506

>  <mr>
15.341662

>  <mutagenic>
0

>  <nmol>
1

>  <opr_brigid>
36

>  <opr_leadlike>
0

>  <opr_nring>
7

>  <opr_nrot>
9

>  <opr_violation>
3

>  <PC+>
0

>  <PC->
0

>  <PEOE_PC+>
5.1418753

>  <PEOE_PC->
-5.1418753

>  <PEOE_RPC+>
0.08094418

>  <PEOE_RPC->
0.075145893

>  <PEOE_VSA+0>
75.587631

>  <PEOE_VSA+1>
132.91139

>  <PEOE_VSA+2>
61.912312

>  <PEOE_VSA+3>
64.159439

>  <PEOE_VSA+4>
20.648346

>  <PEOE_VSA+5>
14.708499

>  <PEOE_VSA+6>
18.713068

>  <PEOE_VSA-0>
74.392914

>  <PEOE_VSA-1>
0

>  <PEOE_VSA-2>
15.729136

>  <PEOE_VSA-3>
0

>  <PEOE_VSA-4>
4.6659718

>  <PEOE_VSA-5>
33.426434

>  <PEOE_VSA-6>
38.068886

>  <PEOE_VSA_FHYD>
0.76531708

>  <PEOE_VSA_FNEG>
0.29965064

>  <PEOE_VSA_FPNEG>
0.13724634

>  <PEOE_VSA_FPOL>
0.23468295

>  <PEOE_VSA_FPOS>
0.70034933

>  <PEOE_VSA_FPPOS>
0.097436607

>  <PEOE_VSA_HYD>
424.69281

>  <PEOE_VSA_NEG>
166.28334

>  <PEOE_VSA_PNEG>
76.161293

>  <PEOE_VSA_POL>
130.2312

>  <PEOE_VSA_POS>
388.64069

>  <PEOE_VSA_PPOS>
54.069912

>  <petitjean>
0.5

>  <petitjeanSC>
1

>  <Q_PC+>
0

>  <Q_PC->
0

>  <Q_RPC+>
0

>  <Q_RPC->
0

>  <Q_VSA_FHYD>
1

>  <Q_VSA_FNEG>
0

>  <Q_VSA_FPNEG>
0

>  <Q_VSA_FPOL>
0

>  <Q_VSA_FPOS>
1

>  <Q_VSA_FPPOS>
0

>  <Q_VSA_HYD>
554.92401

>  <Q_VSA_NEG>
0

>  <Q_VSA_PNEG>
0

>  <Q_VSA_POL>
0

>  <Q_VSA_POS>
554.92401

>  <Q_VSA_PPOS>
0

>  <radius>
9

>  <reactive>
1

>  <rings>
7

>  <RPC+>
0

>  <RPC->
0

>  <rsynth>
0.67391306

>  <SlogP>
0.12980001

>  <SlogP_VSA0>
166.73933

>  <SlogP_VSA1>
7.7454643

>  <SlogP_VSA2>
121.78926

>  <SlogP_VSA3>
64.836632

>  <SlogP_VSA4>
18.378317

>  <SlogP_VSA5>
70.767738

>  <SlogP_VSA6>
4.4107962

>  <SlogP_VSA7>
70.572739

>  <SlogP_VSA8>
6.4686494

>  <SlogP_VSA9>
76.237999

>  <SMR>
14.87772

>  <SMR_VSA0>
101.29542

>  <SMR_VSA1>
144.30557

>  <SMR_VSA2>
8.8215923

>  <SMR_VSA3>
89.58091

>  <SMR_VSA4>
0

>  <SMR_VSA5>
70.572739

>  <SMR_VSA6>
72.582092

>  <SMR_VSA7>
120.78859

>  <TPSA>
207.36

>  <VAdjEq>
0.28277236

>  <VAdjMa>
6.7004399

>  <VDistEq>
3.8403685

>  <VDistMa>
10.794762

>  <vdw_area>
554.92401

>  <vdw_vol>
766.98694

>  <vsa_acc>
38.262943

>  <vsa_acid>
0

>  <vsa_base>
0

>  <vsa_don>
0

>  <vsa_hyd>
305.91266

>  <vsa_other>
93.65078

>  <vsa_pol>
112.58419

>  <Weight>
668.54102

>  <weinerPath>
7107

>  <weinerPol>
88

>  <zagreb>
264

$$$$