O(Cc1ccccc1)CC(N(CCN(CCN(CC(O)=O)CC(O)=O)CC(O)=O)CC(O)=O)C(O)=O
  MOE2013           2D

 36 36  0  0  1  0  0  0  0  0999 V2000
    0.0000    0.0000    0.0000 O   0  0  0  0  0  0  0  0  0  0  0  0
    0.7430    1.3030    0.0000 C   0  0  0  0  0  0  0  0  0  0  0  0
    2.2430    1.3110    0.0000 C   0  0  0  0  0  0  0  0  0  0  0  0
    3.0000    0.0160    0.0000 C   0  0  0  0  0  0  0  0  0  0  0  0
    4.5000    0.0230    0.0000 C   0  0  0  0  0  0  0  0  0  0  0  0
    5.2430    1.3260    0.0000 C   0  0  0  0  0  0  0  0  0  0  0  0
    4.4860    2.6220    0.0000 C   0  0  0  0  0  0  0  0  0  0  0  0
    2.9860    2.6140    0.0000 C   0  0  0  0  0  0  0  0  0  0  0  0
   -1.5000   -0.0080    0.0000 C   0  0  0  0  0  0  0  0  0  0  0  0
   -2.2430   -1.3110    0.0000 C   0  0  3  0  0  0  0  0  0  0  0  0
   -3.7430   -1.3190    0.0000 N   0  0  3  0  0  0  0  0  0  0  0  0
   -4.4860   -2.6220    0.0000 C   0  0  0  0  0  0  0  0  0  0  0  0
   -5.9860   -2.6290    0.0000 C   0  0  0  0  0  0  0  0  0  0  0  0
   -6.7300   -3.9320    0.0000 N   0  0  3  0  0  0  0  0  0  0  0  0
   -8.2300   -3.9400    0.0000 C   0  0  0  0  0  0  0  0  0  0  0  0
   -8.9860   -2.6450    0.0000 C   0  0  0  0  0  0  0  0  0  0  0  0
  -10.4860   -2.6530    0.0000 N   0  0  0  0  0  0  0  0  0  0  0  0
  -11.2430   -1.3580    0.0000 C   0  0  0  0  0  0  0  0  0  0  0  0
  -10.5000   -0.0550    0.0000 C   0  0  0  0  0  0  0  0  0  0  0  0
  -11.2570    1.2400    0.0000 O   0  0  0  0  0  0  0  0  0  0  0  0
   -9.0000   -0.0470    0.0000 O   0  0  0  0  0  0  0  0  0  0  0  0
  -11.2300   -3.9560    0.0000 C   0  0  0  0  0  0  0  0  0  0  0  0
  -12.7300   -3.9640    0.0000 C   0  0  0  0  0  0  0  0  0  0  0  0
  -13.4730   -5.2660    0.0000 O   0  0  0  0  0  0  0  0  0  0  0  0
  -13.4860   -2.6680    0.0000 O   0  0  0  0  0  0  0  0  0  0  0  0
   -5.9730   -5.2270    0.0000 C   0  0  0  0  0  0  0  0  0  0  0  0
   -6.7160   -6.5300    0.0000 C   0  0  0  0  0  0  0  0  0  0  0  0
   -8.2160   -6.5380    0.0000 O   0  0  0  0  0  0  0  0  0  0  0  0
   -5.9590   -7.8250    0.0000 O   0  0  0  0  0  0  0  0  0  0  0  0
   -4.5000   -0.0230    0.0000 C   0  0  0  0  0  0  0  0  0  0  0  0
   -3.7570    1.2790    0.0000 C   0  0  0  0  0  0  0  0  0  0  0  0
   -2.2570    1.2870    0.0000 O   0  0  0  0  0  0  0  0  0  0  0  0
   -4.5130    2.5750    0.0000 O   0  0  0  0  0  0  0  0  0  0  0  0
   -1.4860   -2.6060    0.0000 C   0  0  0  0  0  0  0  0  0  0  0  0
    0.0140   -2.5980    0.0000 O   0  0  0  0  0  0  0  0  0  0  0  0
   -2.2300   -3.9090    0.0000 O   0  0  0  0  0  0  0  0  0  0  0  0
  1  2  1  0  0  0  0
  1  9  1  0  0  0  0
  2  3  1  0  0  0  0
  3  4  1  0  0  0  0
  3  8  2  0  0  0  0
  4  5  2  0  0  0  0
  5  6  1  0  0  0  0
  6  7  2  0  0  0  0
  7  8  1  0  0  0  0
  9 10  1  0  0  0  0
 10 11  1  0  0  0  0
 10 34  1  0  0  0  0
 11 12  1  0  0  0  0
 11 30  1  0  0  0  0
 12 13  1  0  0  0  0
 13 14  1  0  0  0  0
 14 15  1  0  0  0  0
 14 26  1  0  0  0  0
 15 16  1  0  0  0  0
 16 17  1  0  0  0  0
 17 18  1  0  0  0  0
 17 22  1  0  0  0  0
 18 19  1  0  0  0  0
 19 20  1  0  0  0  0
 19 21  2  0  0  0  0
 22 23  1  0  0  0  0
 23 24  1  0  0  0  0
 23 25  2  0  0  0  0
 26 27  1  0  0  0  0
 27 28  1  0  0  0  0
 27 29  2  0  0  0  0
 30 31  1  0  0  0  0
 31 32  1  0  0  0  0
 31 33  2  0  0  0  0
 34 35  1  0  0  0  0
 34 36  2  0  0  0  0
M  END
>  <Index>
469

>  <ID>
HT0950

>  <class>
0

>  <apol>
71.512581

>  <ast_fraglike>
0

>  <ast_fraglike_ext>
0

>  <ast_violation>
3

>  <ast_violation_ext>
5

>  <a_acc>
14

>  <a_acid>
0

>  <a_aro>
6

>  <a_base>
0

>  <a_count>
67

>  <a_don>
10

>  <a_donacc>
24

>  <a_heavy>
36

>  <a_hyd>
17

>  <a_IC>
111.93176

>  <a_ICM>
1.6706233

>  <a_nB>
0

>  <a_nBr>
0

>  <a_nC>
22

>  <a_nCl>
0

>  <a_nF>
0

>  <a_nH>
31

>  <a_nI>
0

>  <a_nN>
3

>  <a_nO>
11

>  <a_nP>
0

>  <a_nS>
0

>  <balabanJ>
2.7580431

>  <BCUT_PEOE_0>
-2.7115965

>  <BCUT_PEOE_1>
-0.52339226

>  <BCUT_PEOE_2>
0.47013798

>  <BCUT_PEOE_3>
2.6675718

>  <BCUT_SLOGP_0>
-2.8663282

>  <BCUT_SLOGP_1>
-0.50038129

>  <BCUT_SLOGP_2>
0.39839441

>  <BCUT_SLOGP_3>
2.5179021

>  <BCUT_SMR_0>
-2.4450612

>  <BCUT_SMR_1>
-0.31382781

>  <BCUT_SMR_2>
0.60584694

>  <BCUT_SMR_3>
2.9180393

>  <bpol>
46.535416

>  <b_1rotN>
20

>  <b_1rotR>
0.55555558

>  <b_ar>
6

>  <b_count>
67

>  <b_double>
5

>  <b_heavy>
36

>  <b_max1len>
13

>  <b_rotN>
20

>  <b_rotR>
0.55555558

>  <b_single>
56

>  <b_triple>
0

>  <chi0>
27.087212

>  <chi0v>
19.562368

>  <chi0v_C>
13.53517

>  <chi0_C>
14.648053

>  <chi1>
16.972141

>  <chi1v>
10.8794

>  <chi1v_C>
5.3753738

>  <chi1_C>
6.5993195

>  <chiral>
1

>  <chiral_u>
1

>  <density>
0.81171387

>  <diameter>
17

>  <FCharge>
0

>  <GCUT_PEOE_0>
-0.83821493

>  <GCUT_PEOE_1>
-0.48056766

>  <GCUT_PEOE_2>
0.1024851

>  <GCUT_PEOE_3>
2.8331523

>  <GCUT_SLOGP_0>
-0.97929126

>  <GCUT_SLOGP_1>
-0.47256371

>  <GCUT_SLOGP_2>
0.037762426

>  <GCUT_SLOGP_3>
2.7443023

>  <GCUT_SMR_0>
-0.51719385

>  <GCUT_SMR_1>
-0.23988429

>  <GCUT_SMR_2>
0.21082792

>  <GCUT_SMR_3>
3.0573852

>  <Kier1>
34.027779

>  <Kier2>
19.120983

>  <Kier3>
16.557291

>  <KierA1>
27.855385

>  <KierA2>
15.558366

>  <KierA3>
13.415445

>  <KierFlex>
12.038452

>  <lip_acc>
14

>  <lip_don>
5

>  <lip_druglike>
0

>  <lip_violation>
2

>  <logP(o/w)>
-0.727

>  <logS>
-1.17395

>  <mr>
12.486258

>  <mutagenic>
0

>  <nmol>
1

>  <opr_brigid>
6

>  <opr_leadlike>
0

>  <opr_nring>
1

>  <opr_nrot>
20

>  <opr_violation>
3

>  <PC+>
0

>  <PC->
0

>  <PEOE_PC+>
4.5146952

>  <PEOE_PC->
-4.5146952

>  <PEOE_RPC+>
0.0618513

>  <PEOE_RPC->
0.082647517

>  <PEOE_VSA+0>
86.892387

>  <PEOE_VSA+1>
159.44884

>  <PEOE_VSA+2>
3.1459606

>  <PEOE_VSA+3>
0

>  <PEOE_VSA+4>
51.620865

>  <PEOE_VSA+5>
73.542496

>  <PEOE_VSA+6>
0

>  <PEOE_VSA-0>
2.2085397

>  <PEOE_VSA-1>
61.274521

>  <PEOE_VSA-2>
0

>  <PEOE_VSA-3>
0

>  <PEOE_VSA-4>
0

>  <PEOE_VSA-5>
67.834602

>  <PEOE_VSA-6>
41.341457

>  <PEOE_VSA_FHYD>
0.57183397

>  <PEOE_VSA_FNEG>
0.31546879

>  <PEOE_VSA_FPNEG>
0.19947769

>  <PEOE_VSA_FPOL>
0.42816606

>  <PEOE_VSA_FPOS>
0.68453121

>  <PEOE_VSA_FPPOS>
0.22868837

>  <PEOE_VSA_HYD>
312.97025

>  <PEOE_VSA_NEG>
172.65912

>  <PEOE_VSA_PNEG>
109.17606

>  <PEOE_VSA_POL>
234.33942

>  <PEOE_VSA_POS>
374.65054

>  <PEOE_VSA_PPOS>
125.16336

>  <petitjean>
0.47058824

>  <petitjeanSC>
0.8888889

>  <Q_PC+>
0

>  <Q_PC->
0

>  <Q_RPC+>
0

>  <Q_RPC->
0

>  <Q_VSA_FHYD>
1

>  <Q_VSA_FNEG>
0

>  <Q_VSA_FPNEG>
0

>  <Q_VSA_FPOL>
0

>  <Q_VSA_FPOS>
1

>  <Q_VSA_FPPOS>
0

>  <Q_VSA_HYD>
547.30963

>  <Q_VSA_NEG>
0

>  <Q_VSA_PNEG>
0

>  <Q_VSA_POL>
0

>  <Q_VSA_POS>
547.30963

>  <Q_VSA_PPOS>
0

>  <radius>
9

>  <reactive>
0

>  <rings>
1

>  <RPC+>
0

>  <RPC->
0

>  <rsynth>
1

>  <SlogP>
-0.83279997

>  <SlogP_VSA0>
0

>  <SlogP_VSA1>
48.100262

>  <SlogP_VSA2>
134.29294

>  <SlogP_VSA3>
295.36902

>  <SlogP_VSA4>
3.185575

>  <SlogP_VSA5>
0

>  <SlogP_VSA6>
0

>  <SlogP_VSA7>
88.215919

>  <SlogP_VSA8>
0

>  <SlogP_VSA9>
20.926258

>  <SMR>
12.2723

>  <SMR_VSA0>
130.31097

>  <SMR_VSA1>
9.372942

>  <SMR_VSA2>
126.92613

>  <SMR_VSA3>
7.1675434

>  <SMR_VSA4>
0

>  <SMR_VSA5>
109.14218

>  <SMR_VSA6>
207.1702

>  <SMR_VSA7>
0

>  <TPSA>
205.45

>  <VAdjEq>
0.30954343

>  <VAdjMa>
6.1699252

>  <VDistEq>
3.8907034

>  <VDistMa>
10.076218

>  <vdw_area>
547.30963

>  <vdw_vol>
632.61206

>  <vsa_acc>
2.503756

>  <vsa_acid>
0

>  <vsa_base>
0

>  <vsa_don>
0

>  <vsa_hyd>
294.46356

>  <vsa_other>
73.542496

>  <vsa_pol>
138.17296

>  <Weight>
513.5

>  <weinerPath>
4548

>  <weinerPol>
45

>  <zagreb>
164

$$$$