OC(=O)CN(CCN(CC(O)=O)CC(O)=O)CCN(CC(O)=O)CC(O)=O
  MOE2013           2D

 27 26  0  0  0  0  0  0  0  0999 V2000
    0.0000    0.0000    0.0000 O   0  0  0  0  0  0  0  0  0  0  0  0
    1.5000    0.0080    0.0000 C   0  0  0  0  0  0  0  0  0  0  0  0
    2.2430    1.3110    0.0000 O   0  0  0  0  0  0  0  0  0  0  0  0
    2.2570   -1.2870    0.0000 C   0  0  0  0  0  0  0  0  0  0  0  0
    1.5130   -2.5900    0.0000 N   0  0  0  0  0  0  0  0  0  0  0  0
    2.2700   -3.8860    0.0000 C   0  0  0  0  0  0  0  0  0  0  0  0
    3.7700   -3.8780    0.0000 C   0  0  0  0  0  0  0  0  0  0  0  0
    4.5270   -5.1730    0.0000 N   0  0  0  0  0  0  0  0  0  0  0  0
    6.0270   -5.1650    0.0000 C   0  0  0  0  0  0  0  0  0  0  0  0
    6.7700   -3.8620    0.0000 C   0  0  0  0  0  0  0  0  0  0  0  0
    6.0130   -2.5670    0.0000 O   0  0  0  0  0  0  0  0  0  0  0  0
    8.2700   -3.8550    0.0000 O   0  0  0  0  0  0  0  0  0  0  0  0
    3.7830   -6.4760    0.0000 C   0  0  0  0  0  0  0  0  0  0  0  0
    4.5400   -7.7710    0.0000 C   0  0  0  0  0  0  0  0  0  0  0  0
    3.7970   -9.0740    0.0000 O   0  0  0  0  0  0  0  0  0  0  0  0
    6.0400   -7.7630    0.0000 O   0  0  0  0  0  0  0  0  0  0  0  0
    0.0130   -2.5980    0.0000 C   0  0  0  0  0  0  0  0  0  0  0  0
   -0.7300   -3.9010    0.0000 C   0  0  0  0  0  0  0  0  0  0  0  0
   -2.2300   -3.9090    0.0000 N   0  0  0  0  0  0  0  0  0  0  0  0
   -2.9730   -5.2110    0.0000 C   0  0  0  0  0  0  0  0  0  0  0  0
   -2.2170   -6.5070    0.0000 C   0  0  0  0  0  0  0  0  0  0  0  0
   -0.7170   -6.4990    0.0000 O   0  0  0  0  0  0  0  0  0  0  0  0
   -2.9600   -7.8100    0.0000 O   0  0  0  0  0  0  0  0  0  0  0  0
   -2.9870   -2.6130    0.0000 C   0  0  0  0  0  0  0  0  0  0  0  0
   -4.4870   -2.6210    0.0000 C   0  0  0  0  0  0  0  0  0  0  0  0
   -5.2300   -3.9240    0.0000 O   0  0  0  0  0  0  0  0  0  0  0  0
   -5.2430   -1.3260    0.0000 O   0  0  0  0  0  0  0  0  0  0  0  0
  1  2  1  0  0  0  0
  2  3  2  0  0  0  0
  2  4  1  0  0  0  0
  4  5  1  0  0  0  0
  5  6  1  0  0  0  0
  5 17  1  0  0  0  0
  6  7  1  0  0  0  0
  7  8  1  0  0  0  0
  8  9  1  0  0  0  0
  8 13  1  0  0  0  0
  9 10  1  0  0  0  0
 10 11  1  0  0  0  0
 10 12  2  0  0  0  0
 13 14  1  0  0  0  0
 14 15  1  0  0  0  0
 14 16  2  0  0  0  0
 17 18  1  0  0  0  0
 18 19  1  0  0  0  0
 19 20  1  0  0  0  0
 19 24  1  0  0  0  0
 20 21  1  0  0  0  0
 21 22  1  0  0  0  0
 21 23  2  0  0  0  0
 24 25  1  0  0  0  0
 25 26  1  0  0  0  0
 25 27  2  0  0  0  0
M  END
>  <Index>
472

>  <ID>
HT0955

>  <class>
0

>  <apol>
51.296238

>  <ast_fraglike>
0

>  <ast_fraglike_ext>
0

>  <ast_violation>
3

>  <ast_violation_ext>
5

>  <a_acc>
13

>  <a_acid>
0

>  <a_aro>
0

>  <a_base>
0

>  <a_count>
50

>  <a_don>
10

>  <a_donacc>
23

>  <a_heavy>
27

>  <a_hyd>
9

>  <a_IC>
86.873749

>  <a_ICM>
1.7374749

>  <a_nB>
0

>  <a_nBr>
0

>  <a_nC>
14

>  <a_nCl>
0

>  <a_nF>
0

>  <a_nH>
23

>  <a_nI>
0

>  <a_nN>
3

>  <a_nO>
10

>  <a_nP>
0

>  <a_nS>
0

>  <balabanJ>
4.7360501

>  <BCUT_PEOE_0>
-2.7027552

>  <BCUT_PEOE_1>
-0.5208624

>  <BCUT_PEOE_2>
0.46263742

>  <BCUT_PEOE_3>
2.6421425

>  <BCUT_SLOGP_0>
-2.8519955

>  <BCUT_SLOGP_1>
-0.49690339

>  <BCUT_SLOGP_2>
0.3951093

>  <BCUT_SLOGP_3>
2.4916701

>  <BCUT_SMR_0>
-2.4320912

>  <BCUT_SMR_1>
-0.30869132

>  <BCUT_SMR_2>
0.59335142

>  <BCUT_SMR_3>
2.9011891

>  <bpol>
35.87376

>  <b_1rotN>
16

>  <b_1rotR>
0.61538464

>  <b_ar>
0

>  <b_count>
49

>  <b_double>
5

>  <b_heavy>
26

>  <b_max1len>
10

>  <b_rotN>
16

>  <b_rotR>
0.61538464

>  <b_single>
44

>  <b_triple>
0

>  <chi0>
20.982763

>  <chi0v>
14.482911

>  <chi0v_C>
8.8639612

>  <chi0_C>
9.2507124

>  <chi1>
12.488978

>  <chi1v>
7.7524714

>  <chi1v_C>
2.767767

>  <chi1_C>
3.0412414

>  <chiral>
0

>  <chiral_u>
0

>  <density>
0.85861856

>  <diameter>
12

>  <FCharge>
0

>  <GCUT_PEOE_0>
-0.83810318

>  <GCUT_PEOE_1>
-0.48130116

>  <GCUT_PEOE_2>
0.10565539

>  <GCUT_PEOE_3>
2.6920006

>  <GCUT_SLOGP_0>
-0.97572953

>  <GCUT_SLOGP_1>
-0.48070505

>  <GCUT_SLOGP_2>
0.037021007

>  <GCUT_SLOGP_3>
2.5696602

>  <GCUT_SMR_0>
-0.51666647

>  <GCUT_SMR_1>
-0.24192245

>  <GCUT_SMR_2>
0.21457507

>  <GCUT_SMR_3>
2.9143496

>  <Kier1>
27

>  <Kier2>
14.921947

>  <Kier3>
16.639999

>  <KierA1>
22.642567

>  <KierA2>
12.424357

>  <KierA3>
13.78125

>  <KierFlex>
10.419234

>  <lip_acc>
13

>  <lip_don>
5

>  <lip_druglike>
1

>  <lip_violation>
1

>  <logP(o/w)>
-2.5539999

>  <logS>
0.73659003

>  <mr>
8.8270435

>  <mutagenic>
0

>  <nmol>
1

>  <opr_brigid>
0

>  <opr_leadlike>
0

>  <opr_nring>
0

>  <opr_nrot>
16

>  <opr_violation>
2

>  <PC+>
0

>  <PC->
0

>  <PEOE_PC+>
3.8273358

>  <PEOE_PC->
-3.8273358

>  <PEOE_RPC+>
0.071535155

>  <PEOE_RPC->
0.086300857

>  <PEOE_VSA+0>
86.892387

>  <PEOE_VSA+1>
108.61549

>  <PEOE_VSA+2>
0

>  <PEOE_VSA+3>
0

>  <PEOE_VSA+4>
51.620865

>  <PEOE_VSA+5>
73.542496

>  <PEOE_VSA+6>
0

>  <PEOE_VSA-0>
0

>  <PEOE_VSA-1>
0

>  <PEOE_VSA-2>
0

>  <PEOE_VSA-3>
0

>  <PEOE_VSA-4>
0

>  <PEOE_VSA-5>
67.834602

>  <PEOE_VSA-6>
38.8377

>  <PEOE_VSA_FHYD>
0.45749581

>  <PEOE_VSA_FNEG>
0.24961722

>  <PEOE_VSA_FPNEG>
0.24961722

>  <PEOE_VSA_FPOL>
0.54250419

>  <PEOE_VSA_FPOS>
0.75038278

>  <PEOE_VSA_FPPOS>
0.29288697

>  <PEOE_VSA_HYD>
195.50787

>  <PEOE_VSA_NEG>
106.6723

>  <PEOE_VSA_PNEG>
106.6723

>  <PEOE_VSA_POL>
231.83566

>  <PEOE_VSA_POS>
320.67123

>  <PEOE_VSA_PPOS>
125.16336

>  <petitjean>
0.5

>  <petitjeanSC>
1

>  <Q_PC+>
0

>  <Q_PC->
0

>  <Q_RPC+>
0

>  <Q_RPC->
0

>  <Q_VSA_FHYD>
1

>  <Q_VSA_FNEG>
0

>  <Q_VSA_FPNEG>
0

>  <Q_VSA_FPOL>
0

>  <Q_VSA_FPOS>
1

>  <Q_VSA_FPPOS>
0

>  <Q_VSA_HYD>
427.34354

>  <Q_VSA_NEG>
0

>  <Q_VSA_PNEG>
0

>  <Q_VSA_POL>
0

>  <Q_VSA_POS>
427.34354

>  <Q_VSA_PPOS>
0

>  <radius>
6

>  <reactive>
0

>  <rings>
0

>  <RPC+>
0

>  <RPC->
0

>  <rsynth>
1

>  <SlogP>
-2.6846001

>  <SlogP_VSA0>
0

>  <SlogP_VSA1>
48.100262

>  <SlogP_VSA2>
119.31108

>  <SlogP_VSA3>
292.88232

>  <SlogP_VSA4>
0

>  <SlogP_VSA5>
0

>  <SlogP_VSA6>
0

>  <SlogP_VSA7>
0

>  <SlogP_VSA8>
0

>  <SlogP_VSA9>
0

>  <SMR>
8.7498999

>  <SMR_VSA0>
119.31108

>  <SMR_VSA1>
9.372942

>  <SMR_VSA2>
126.92613

>  <SMR_VSA3>
0

>  <SMR_VSA4>
0

>  <SMR_VSA5>
0

>  <SMR_VSA6>
204.68352

>  <SMR_VSA7>
0

>  <TPSA>
196.22

>  <VAdjEq>
0.37086964

>  <VAdjMa>
5.7004399

>  <VDistEq>
3.5320911

>  <VDistMa>
9.2441072

>  <vdw_area>
427.34354

>  <vdw_vol>
458.11844

>  <vsa_acc>
0

>  <vsa_acid>
0

>  <vsa_base>
0

>  <vsa_don>
0

>  <vsa_hyd>
182.69556

>  <vsa_other>
73.542496

>  <vsa_pol>
135.6692

>  <Weight>
393.349

>  <weinerPath>
2096

>  <weinerPol>
30

>  <zagreb>
118

$$$$