F[C@@]12[C@H]([C@@H]3C[C@H]4OC(O[C@@]4(C(=O)COC(=O)C)[C@]3(C[C@@H]1O)C)(C)C)C[C@H](F)C1=CC(=O)C=C[C@@]12C
  MOE2013           2D

 35 39  0  0  1  0  0  0  0  0999 V2000
    0.0000    0.0000    0.0000 F   0  0  0  0  0  0  0  0  0  0  0  0
    1.5000   -0.0090    0.0000 C   0  0  1  0  0  0  0  0  0  0  0  0
    0.7570    1.2950    0.0000 C   0  0  2  0  0  0  0  0  0  0  0  0
   -0.7420    1.3030    0.0000 C   0  0  2  0  0  0  0  0  0  0  0  0
   -1.7400    2.4240    0.0000 C   0  0  0  0  0  0  0  0  0  0  0  0
   -3.1140    1.8220    0.0000 C   0  0  1  0  0  0  0  0  0  0  0  0
   -4.5790    2.1420    0.0000 O   0  0  0  0  0  0  0  0  0  0  0  0
   -5.3360    0.8470    0.0000 C   0  0  0  0  0  0  0  0  0  0  0  0
   -4.3390   -0.2730    0.0000 O   0  0  0  0  0  0  0  0  0  0  0  0
   -2.9650    0.3290    0.0000 C   0  0  2  0  0  0  0  0  0  0  0  0
   -3.3620   -1.1180    0.0000 C   0  0  0  0  0  0  0  0  0  0  0  0
   -2.3070   -2.1840    0.0000 O   0  0  0  0  0  0  0  0  0  0  0  0
   -4.8130   -1.4970    0.0000 C   0  0  0  0  0  0  0  0  0  0  0  0
   -5.2100   -2.9440    0.0000 O   0  0  0  0  0  0  0  0  0  0  0  0
   -6.6610   -3.3240    0.0000 C   0  0  0  0  0  0  0  0  0  0  0  0
   -7.7150   -2.2570    0.0000 O   0  0  0  0  0  0  0  0  0  0  0  0
   -7.0570   -4.7710    0.0000 C   0  0  0  0  0  0  0  0  0  0  0  0
   -1.5000    0.0090    0.0000 C   0  0  1  0  0  0  0  0  0  0  0  0
   -0.7570   -1.2950    0.0000 C   0  0  0  0  0  0  0  0  0  0  0  0
    0.7420   -1.3030    0.0000 C   0  0  2  0  0  0  0  0  0  0  0  0
    1.4850   -2.6070    0.0000 O   0  0  0  0  0  0  0  0  0  0  0  0
   -1.8970   -1.4380    0.0000 C   0  0  0  0  0  0  0  0  0  0  0  0
   -6.6780    1.5190    0.0000 C   0  0  0  0  0  0  0  0  0  0  0  0
   -6.5510   -0.0330    0.0000 C   0  0  0  0  0  0  0  0  0  0  0  0
    1.5150    2.5890    0.0000 C   0  0  0  0  0  0  0  0  0  0  0  0
    3.0150    2.5810    0.0000 C   0  0  2  0  0  0  0  0  0  0  0  0
    3.7720    3.8750    0.0000 F   0  0  0  0  0  0  0  0  0  0  0  0
    3.7570    1.2770    0.0000 C   0  0  0  0  0  0  0  0  0  0  0  0
    5.2570    1.2690    0.0000 C   0  0  0  0  0  0  0  0  0  0  0  0
    6.0000   -0.0350    0.0000 C   0  0  0  0  0  0  0  0  0  0  0  0
    7.5000   -0.0430    0.0000 O   0  0  0  0  0  0  0  0  0  0  0  0
    5.2420   -1.3290    0.0000 C   0  0  0  0  0  0  0  0  0  0  0  0
    3.7420   -1.3210    0.0000 C   0  0  0  0  0  0  0  0  0  0  0  0
    3.0000   -0.0170    0.0000 C   0  0  2  0  0  0  0  0  0  0  0  0
    2.2420   -1.3120    0.0000 C   0  0  0  0  0  0  0  0  0  0  0  0
  2  1  1  6  0  0  0
  2  3  1  0  0  0  0
  2 20  1  0  0  0  0
  2 34  1  0  0  0  0
  3  4  1  0  0  0  0
  3 25  1  6  0  0  0
  4  5  1  1  0  0  0
  4 18  1  0  0  0  0
  5  6  1  0  0  0  0
  6  7  1  6  0  0  0
  6 10  1  0  0  0  0
  7  8  1  0  0  0  0
  8  9  1  0  0  0  0
  8 23  1  0  0  0  0
  8 24  1  0  0  0  0
  9 10  1  0  0  0  0
 10 11  1  1  0  0  0
 10 18  1  0  0  0  0
 11 12  2  0  0  0  0
 11 13  1  0  0  0  0
 13 14  1  0  0  0  0
 14 15  1  0  0  0  0
 15 16  2  0  0  0  0
 15 17  1  0  0  0  0
 18 19  1  0  0  0  0
 18 22  1  1  0  0  0
 19 20  1  0  0  0  0
 20 21  1  1  0  0  0
 25 26  1  0  0  0  0
 26 27  1  6  0  0  0
 26 28  1  0  0  0  0
 28 29  2  0  0  0  0
 28 34  1  0  0  0  0
 29 30  1  0  0  0  0
 30 31  2  0  0  0  0
 30 32  1  0  0  0  0
 32 33  2  0  0  0  0
 33 34  1  0  0  0  0
 34 35  1  1  0  0  0
M  END
>  <Index>
445

>  <ID>
HT0905

>  <class>
0

>  <apol>
73.825378

>  <ast_fraglike>
0

>  <ast_fraglike_ext>
0

>  <ast_violation>
2

>  <ast_violation_ext>
2

>  <a_acc>
6

>  <a_acid>
0

>  <a_aro>
0

>  <a_base>
0

>  <a_count>
67

>  <a_don>
1

>  <a_donacc>
7

>  <a_heavy>
35

>  <a_hyd>
24

>  <a_IC>
102.56506

>  <a_ICM>
1.5308218

>  <a_nB>
0

>  <a_nBr>
0

>  <a_nC>
26

>  <a_nCl>
0

>  <a_nF>
2

>  <a_nH>
32

>  <a_nI>
0

>  <a_nN>
0

>  <a_nO>
7

>  <a_nP>
0

>  <a_nS>
0

>  <balabanJ>
1.5719695

>  <BCUT_PEOE_0>
-2.8908143

>  <BCUT_PEOE_1>
-0.49175406

>  <BCUT_PEOE_2>
0.36713579

>  <BCUT_PEOE_3>
3.0218537

>  <BCUT_SLOGP_0>
-2.9298999

>  <BCUT_SLOGP_1>
-0.40766487

>  <BCUT_SLOGP_2>
0.48632964

>  <BCUT_SLOGP_3>
2.9841428

>  <BCUT_SMR_0>
-2.672292

>  <BCUT_SMR_1>
-0.28289172

>  <BCUT_SMR_2>
0.56614685

>  <BCUT_SMR_3>
3.236939

>  <bpol>
46.010624

>  <b_1rotN>
3

>  <b_1rotR>
0.07692308

>  <b_ar>
0

>  <b_count>
71

>  <b_double>
5

>  <b_heavy>
39

>  <b_max1len>
4

>  <b_rotN>
4

>  <b_rotR>
0.1025641

>  <b_single>
66

>  <b_triple>
0

>  <chi0>
25.76722

>  <chi0v>
20.599861

>  <chi0v_C>
16.947229

>  <chi0_C>
17.645901

>  <chi1>
16.121317

>  <chi1v>
12.131737

>  <chi1v_C>
9.5130911

>  <chi1_C>
10.357409

>  <chiral>
9

>  <chiral_u>
0

>  <density>
0.80008477

>  <diameter>
14

>  <FCharge>
0

>  <GCUT_PEOE_0>
-0.78956193

>  <GCUT_PEOE_1>
-0.38157138

>  <GCUT_PEOE_2>
-7.908744e-005

>  <GCUT_PEOE_3>
3.4523339

>  <GCUT_SLOGP_0>
-0.94637495

>  <GCUT_SLOGP_1>
-0.3263211

>  <GCUT_SLOGP_2>
0.027032735

>  <GCUT_SLOGP_3>
3.4505126

>  <GCUT_SMR_0>
-0.5367049

>  <GCUT_SMR_1>
-0.20321625

>  <GCUT_SMR_2>
0.13263039

>  <GCUT_SMR_3>
3.6613159

>  <Kier1>
26.60092

>  <Kier2>
8.2481623

>  <Kier3>
3.4129987

>  <KierA1>
23.183941

>  <KierA2>
7.1583476

>  <KierA3>
2.9530046

>  <KierFlex>
4.7416773

>  <lip_acc>
7

>  <lip_don>
1

>  <lip_druglike>
1

>  <lip_violation>
0

>  <logP(o/w)>
3.8699999

>  <logS>
-4.86902

>  <mr>
12.064408

>  <mutagenic>
0

>  <nmol>
1

>  <opr_brigid>
24

>  <opr_leadlike>
0

>  <opr_nring>
5

>  <opr_nrot>
3

>  <opr_violation>
2

>  <PC+>
0

>  <PC->
0

>  <PEOE_PC+>
3.0085096

>  <PEOE_PC->
-3.0085096

>  <PEOE_RPC+>
0.086232208

>  <PEOE_RPC->
0.12916049

>  <PEOE_VSA+0>
116.85155

>  <PEOE_VSA+1>
43.932945

>  <PEOE_VSA+2>
20.418549

>  <PEOE_VSA+3>
18.025583

>  <PEOE_VSA+4>
10.324173

>  <PEOE_VSA+5>
14.708499

>  <PEOE_VSA+6>
0

>  <PEOE_VSA-0>
109.06532

>  <PEOE_VSA-1>
31.002581

>  <PEOE_VSA-2>
0

>  <PEOE_VSA-3>
0

>  <PEOE_VSA-4>
23.817272

>  <PEOE_VSA-5>
40.700764

>  <PEOE_VSA-6>
15.278809

>  <PEOE_VSA_FHYD>
0.76396447

>  <PEOE_VSA_FNEG>
0.49505031

>  <PEOE_VSA_FPNEG>
0.17967162

>  <PEOE_VSA_FPOL>
0.2360355

>  <PEOE_VSA_FPOS>
0.50494969

>  <PEOE_VSA_FPPOS>
0.056363892

>  <PEOE_VSA_HYD>
339.29654

>  <PEOE_VSA_NEG>
219.86475

>  <PEOE_VSA_PNEG>
79.796844

>  <PEOE_VSA_POL>
104.82951

>  <PEOE_VSA_POS>
224.26131

>  <PEOE_VSA_PPOS>
25.032671

>  <petitjean>
0.5

>  <petitjeanSC>
1

>  <Q_PC+>
0

>  <Q_PC->
0

>  <Q_RPC+>
0

>  <Q_RPC->
0

>  <Q_VSA_FHYD>
1

>  <Q_VSA_FNEG>
0

>  <Q_VSA_FPNEG>
0

>  <Q_VSA_FPOL>
0

>  <Q_VSA_FPOS>
1

>  <Q_VSA_FPPOS>
0

>  <Q_VSA_HYD>
444.12604

>  <Q_VSA_NEG>
0

>  <Q_VSA_PNEG>
0

>  <Q_VSA_POL>
0

>  <Q_VSA_POS>
444.12604

>  <Q_VSA_PPOS>
0

>  <radius>
7

>  <reactive>
1

>  <rings>
5

>  <RPC+>
0

>  <RPC->
0

>  <rsynth>
0.42857143

>  <SlogP>
2.9375999

>  <SlogP_VSA0>
25.385227

>  <SlogP_VSA1>
19.120686

>  <SlogP_VSA2>
127.86985

>  <SlogP_VSA3>
20.926258

>  <SlogP_VSA4>
8.8215923

>  <SlogP_VSA5>
3.185575

>  <SlogP_VSA6>
0

>  <SlogP_VSA7>
52.929554

>  <SlogP_VSA8>
56.605217

>  <SlogP_VSA9>
196.55031

>  <SMR>
11.84248

>  <SMR_VSA0>
104.58631

>  <SMR_VSA1>
55.305454

>  <SMR_VSA2>
8.8215923

>  <SMR_VSA3>
26.469112

>  <SMR_VSA4>
0

>  <SMR_VSA5>
109.53477

>  <SMR_VSA6>
40.046944

>  <SMR_VSA7>
166.63008

>  <TPSA>
99.129997

>  <VAdjEq>
0.34185782

>  <VAdjMa>
6.2854023

>  <VDistEq>
3.422838

>  <VDistMa>
10.006031

>  <vdw_area>
444.12604

>  <vdw_vol>
618.09821

>  <vsa_acc>
45.708275

>  <vsa_acid>
0

>  <vsa_base>
0

>  <vsa_don>
0

>  <vsa_hyd>
320.33246

>  <vsa_other>
35.237839

>  <vsa_pol>
59.275196

>  <Weight>
494.53098

>  <weinerPath>
3112

>  <weinerPol>
82

>  <zagreb>
212

$$$$