Fc1cc2nc3C=4N(Cc3c3c2c(CC[C@@H]3N)c1C)C(=O)C1=C(C=4)[C@](CC)(C)C(OC1)=O
  MOE2013           2D

 32 37  0  0  1  0  0  0  0  0999 V2000
    0.0000    0.0000    0.0000 F   0  0  0  0  0  0  0  0  0  0  0  0
    1.2940   -0.7590    0.0000 C   0  0  0  0  0  0  0  0  0  0  0  0
    2.6000   -0.0170    0.0000 C   0  0  0  0  0  0  0  0  0  0  0  0
    3.8960   -0.7740    0.0000 C   0  0  0  0  0  0  0  0  0  0  0  0
    5.1980   -0.0380    0.0000 N   0  0  0  0  0  0  0  0  0  0  0  0
    6.4910   -0.7970    0.0000 C   0  0  0  0  0  0  0  0  0  0  0  0
    7.9190   -0.3390    0.0000 C   0  0  0  0  0  0  0  0  0  0  0  0
    8.7960   -1.5560    0.0000 N   0  0  0  0  0  0  0  0  0  0  0  0
    7.9100   -2.7660    0.0000 C   0  0  0  0  0  0  0  0  0  0  0  0
    6.4830   -2.2950    0.0000 C   0  0  0  0  0  0  0  0  0  0  0  0
    5.1760   -3.0370    0.0000 C   0  0  0  0  0  0  0  0  0  0  0  0
    3.8840   -2.2780    0.0000 C   0  0  0  0  0  0  0  0  0  0  0  0
    2.5770   -3.0210    0.0000 C   0  0  0  0  0  0  0  0  0  0  0  0
    2.5690   -4.5160    0.0000 C   0  0  0  0  0  0  0  0  0  0  0  0
    3.8630   -5.2760    0.0000 C   0  0  0  0  0  0  0  0  0  0  0  0
    5.1650   -4.5390    0.0000 C   0  0  2  0  0  0  0  0  0  0  0  0
    6.4580   -5.2990    0.0000 N   0  0  0  0  0  0  0  0  0  0  0  0
    1.2830   -2.2620    0.0000 C   0  0  0  0  0  0  0  0  0  0  0  0
   -0.0210   -3.0030    0.0000 C   0  0  0  0  0  0  0  0  0  0  0  0
   10.2890   -1.4040    0.0000 C   0  0  0  0  0  0  0  0  0  0  0  0
   11.1660   -2.6210    0.0000 O   0  0  0  0  0  0  0  0  0  0  0  0
   10.9040   -0.0360    0.0000 C   0  0  0  0  0  0  0  0  0  0  0  0
   10.0260    1.1810    0.0000 C   0  0  0  0  0  0  0  0  0  0  0  0
    8.5340    1.0290    0.0000 C   0  0  0  0  0  0  0  0  0  0  0  0
   10.6410    2.5490    0.0000 C   0  0  2  0  0  0  0  0  0  0  0  0
    9.2920    3.2050    0.0000 C   0  0  0  0  0  0  0  0  0  0  0  0
    9.1860    4.7020    0.0000 C   0  0  0  0  0  0  0  0  0  0  0  0
   10.5170    4.0440    0.0000 C   0  0  0  0  0  0  0  0  0  0  0  0
   12.1330    2.7000    0.0000 C   0  0  0  0  0  0  0  0  0  0  0  0
   13.0110    1.4840    0.0000 O   0  0  0  0  0  0  0  0  0  0  0  0
   12.3960    0.1160    0.0000 C   0  0  0  0  0  0  0  0  0  0  0  0
   12.7480    4.0690    0.0000 O   0  0  0  0  0  0  0  0  0  0  0  0
  1  2  1  0  0  0  0
  2  3  1  0  0  0  0
  2 18  2  0  0  0  0
  3  4  2  0  0  0  0
  4  5  1  0  0  0  0
  4 12  1  0  0  0  0
  5  6  2  0  0  0  0
  6  7  1  0  0  0  0
  6 10  1  0  0  0  0
  7  8  1  0  0  0  0
  7 24  2  0  0  0  0
  8  9  1  0  0  0  0
  8 20  1  0  0  0  0
  9 10  1  0  0  0  0
 10 11  2  0  0  0  0
 11 12  1  0  0  0  0
 11 16  1  0  0  0  0
 12 13  2  0  0  0  0
 13 14  1  0  0  0  0
 13 18  1  0  0  0  0
 14 15  1  0  0  0  0
 15 16  1  0  0  0  0
 16 17  1  1  0  0  0
 18 19  1  0  0  0  0
 20 21  2  0  0  0  0
 20 22  1  0  0  0  0
 22 23  2  0  0  0  0
 22 31  1  0  0  0  0
 23 24  1  0  0  0  0
 23 25  1  0  0  0  0
 25 26  1  1  0  0  0
 25 28  1  6  0  0  0
 25 29  1  0  0  0  0
 26 27  1  0  0  0  0
 29 30  1  0  0  0  0
 29 32  2  0  0  0  0
 30 31  1  0  0  0  0
M  END
>  <Index>
415

>  <ID>
HT0839

>  <class>
0

>  <apol>
66.266029

>  <ast_fraglike>
0

>  <ast_fraglike_ext>
0

>  <ast_violation>
3

>  <ast_violation_ext>
3

>  <a_acc>
4

>  <a_acid>
0

>  <a_aro>
10

>  <a_base>
0

>  <a_count>
56

>  <a_don>
1

>  <a_donacc>
5

>  <a_heavy>
32

>  <a_hyd>
24

>  <a_IC>
89.566597

>  <a_ICM>
1.5994035

>  <a_nB>
0

>  <a_nBr>
0

>  <a_nC>
25

>  <a_nCl>
0

>  <a_nF>
1

>  <a_nH>
24

>  <a_nI>
0

>  <a_nN>
3

>  <a_nO>
3

>  <a_nP>
0

>  <a_nS>
0

>  <balabanJ>
1.3414313

>  <BCUT_PEOE_0>
-2.6328802

>  <BCUT_PEOE_1>
-0.44388217

>  <BCUT_PEOE_2>
0.42983338

>  <BCUT_PEOE_3>
2.6799512

>  <BCUT_SLOGP_0>
-2.6224365

>  <BCUT_SLOGP_1>
-0.3497881

>  <BCUT_SLOGP_2>
0.54951793

>  <BCUT_SLOGP_3>
2.7280571

>  <BCUT_SMR_0>
-2.3909795

>  <BCUT_SMR_1>
-0.22607654

>  <BCUT_SMR_2>
0.6383062

>  <BCUT_SMR_3>
2.9386687

>  <bpol>
33.911968

>  <b_1rotN>
1

>  <b_1rotR>
0.027027028

>  <b_ar>
11

>  <b_count>
61

>  <b_double>
4

>  <b_heavy>
37

>  <b_max1len>
5

>  <b_rotN>
1

>  <b_rotR>
0.027027028

>  <b_single>
46

>  <b_triple>
0

>  <chi0>
22.524216

>  <chi0v>
18.342072

>  <chi0v_C>
15.267585

>  <chi0_C>
16.532652

>  <chi1>
15.257074

>  <chi1v>
11.106962

>  <chi1v_C>
8.4729443

>  <chi1_C>
10.148014

>  <chiral>
2

>  <chiral_u>
0

>  <density>
0.76855111

>  <diameter>
12

>  <FCharge>
0

>  <GCUT_PEOE_0>
-0.83000749

>  <GCUT_PEOE_1>
-0.41955417

>  <GCUT_PEOE_2>
-0.032085411

>  <GCUT_PEOE_3>
3.0039098

>  <GCUT_SLOGP_0>
-1.3371831

>  <GCUT_SLOGP_1>
-0.30400914

>  <GCUT_SLOGP_2>
0.094572514

>  <GCUT_SLOGP_3>
3.0808265

>  <GCUT_SMR_0>
-0.52442795

>  <GCUT_SMR_1>
-0.18366306

>  <GCUT_SMR_2>
0.13830528

>  <GCUT_SMR_3>
3.2817266

>  <Kier1>
22.463112

>  <Kier2>
7.75

>  <Kier3>
3.0176899

>  <KierA1>
17.161119

>  <KierA2>
5.8659215

>  <KierA3>
2.2691081

>  <KierFlex>
3.1458056

>  <lip_acc>
6

>  <lip_don>
2

>  <lip_druglike>
1

>  <lip_violation>
0

>  <logP(o/w)>
3.9300001

>  <logS>
-5.39779

>  <mr>
11.692802

>  <mutagenic>
0

>  <nmol>
1

>  <opr_brigid>
29

>  <opr_leadlike>
1

>  <opr_nring>
6

>  <opr_nrot>
1

>  <opr_violation>
1

>  <PC+>
0

>  <PC->
0

>  <PEOE_PC+>
2.2640748

>  <PEOE_PC->
-2.2640748

>  <PEOE_RPC+>
0.12048577

>  <PEOE_RPC->
0.1429003

>  <PEOE_VSA+0>
73.752373

>  <PEOE_VSA+1>
78.099976

>  <PEOE_VSA+2>
26.258871

>  <PEOE_VSA+3>
0

>  <PEOE_VSA+4>
0

>  <PEOE_VSA+5>
27.65803

>  <PEOE_VSA+6>
0

>  <PEOE_VSA-0>
96.94326

>  <PEOE_VSA-1>
18.747677

>  <PEOE_VSA-2>
0

>  <PEOE_VSA-3>
0

>  <PEOE_VSA-4>
17.591211

>  <PEOE_VSA-5>
27.133842

>  <PEOE_VSA-6>
9.1548758

>  <PEOE_VSA_FHYD>
0.78276247

>  <PEOE_VSA_FNEG>
0.45177925

>  <PEOE_VSA_FPNEG>
0.14354962

>  <PEOE_VSA_FPOL>
0.21723753

>  <PEOE_VSA_FPOS>
0.54822075

>  <PEOE_VSA_FPPOS>
0.073687918

>  <PEOE_VSA_HYD>
293.80215

>  <PEOE_VSA_NEG>
169.57086

>  <PEOE_VSA_PNEG>
53.879929

>  <PEOE_VSA_POL>
81.537956

>  <PEOE_VSA_POS>
205.76924

>  <PEOE_VSA_PPOS>
27.65803

>  <petitjean>
0.5

>  <petitjeanSC>
1

>  <Q_PC+>
0

>  <Q_PC->
0

>  <Q_RPC+>
0

>  <Q_RPC->
0

>  <Q_VSA_FHYD>
1

>  <Q_VSA_FNEG>
0

>  <Q_VSA_FPNEG>
0

>  <Q_VSA_FPOL>
0

>  <Q_VSA_FPOS>
1

>  <Q_VSA_FPPOS>
0

>  <Q_VSA_HYD>
375.34012

>  <Q_VSA_NEG>
0

>  <Q_VSA_PNEG>
0

>  <Q_VSA_POL>
0

>  <Q_VSA_POS>
375.34012

>  <Q_VSA_PPOS>
0

>  <radius>
6

>  <reactive>
1

>  <rings>
6

>  <RPC+>
0

>  <RPC->
0

>  <rsynth>
0.59375

>  <SlogP>
3.9565899

>  <SlogP_VSA0>
32.897186

>  <SlogP_VSA1>
32.914093

>  <SlogP_VSA2>
67.845337

>  <SlogP_VSA3>
20.926258

>  <SlogP_VSA4>
15.499047

>  <SlogP_VSA5>
25.239555

>  <SlogP_VSA6>
0

>  <SlogP_VSA7>
42.760216

>  <SlogP_VSA8>
41.718781

>  <SlogP_VSA9>
133.37773

>  <SMR>
11.69134

>  <SMR_VSA0>
58.724319

>  <SMR_VSA1>
34.869957

>  <SMR_VSA2>
9.1210184

>  <SMR_VSA3>
25.852165

>  <SMR_VSA4>
40.371037

>  <SMR_VSA5>
110.33116

>  <SMR_VSA6>
33.930508

>  <SMR_VSA7>
99.978043

>  <TPSA>
85.519997

>  <VAdjEq>
0.37432221

>  <VAdjMa>
6.2094536

>  <VDistEq>
3.3506784

>  <VDistMa>
9.741189

>  <vdw_area>
375.34012

>  <vdw_vol>
564.02625

>  <vsa_acc>
32.816418

>  <vsa_acid>
0

>  <vsa_base>
0

>  <vsa_don>
0

>  <vsa_hyd>
272.81326

>  <vsa_other>
30.161787

>  <vsa_pol>
50.558907

>  <Weight>
433.483

>  <weinerPath>
2510

>  <weinerPol>
73

>  <zagreb>
194

$$$$