OC(C(N1CCN(CCN(CCN(CC1)CC(O)=O)CC(O)=O)CC(O)=O)CO)CO
  MOE2013           2D

 31 31  0  0  1  0  0  0  0  0999 V2000
    0.0000    0.0000    0.0000 O   0  0  0  0  0  0  0  0  0  0  0  0
   -0.7590    1.2940    0.0000 C   0  0  3  0  0  0  0  0  0  0  0  0
   -2.2590    1.2830    0.0000 C   0  0  3  0  0  0  0  0  0  0  0  0
   -3.0000   -0.0210    0.0000 N   0  0  0  0  0  0  0  0  0  0  0  0
   -2.2410   -1.3150    0.0000 C   0  0  0  0  0  0  0  0  0  0  0  0
   -2.9820   -2.6190    0.0000 C   0  0  0  0  0  0  0  0  0  0  0  0
   -2.2230   -3.9130    0.0000 N   0  0  3  0  0  0  0  0  0  0  0  0
   -2.9630   -5.2170    0.0000 C   0  0  0  0  0  0  0  0  0  0  0  0
   -4.4630   -5.2280    0.0000 C   0  0  0  0  0  0  0  0  0  0  0  0
   -5.2230   -3.9340    0.0000 N   0  0  0  0  0  0  0  0  0  0  0  0
   -6.7220   -3.9440    0.0000 C   0  0  0  0  0  0  0  0  0  0  0  0
   -7.4820   -2.6510    0.0000 C   0  0  0  0  0  0  0  0  0  0  0  0
   -6.7410   -1.3460    0.0000 N   0  0  3  0  0  0  0  0  0  0  0  0
   -5.2410   -1.3360    0.0000 C   0  0  0  0  0  0  0  0  0  0  0  0
   -4.5000   -0.0320    0.0000 C   0  0  0  0  0  0  0  0  0  0  0  0
   -7.5000   -0.0530    0.0000 C   0  0  0  0  0  0  0  0  0  0  0  0
   -9.0000   -0.0630    0.0000 C   0  0  0  0  0  0  0  0  0  0  0  0
   -9.7590    1.2300    0.0000 O   0  0  0  0  0  0  0  0  0  0  0  0
   -9.7410   -1.3680    0.0000 O   0  0  0  0  0  0  0  0  0  0  0  0
   -5.9630   -5.2380    0.0000 C   0  0  0  0  0  0  0  0  0  0  0  0
   -7.4630   -5.2490    0.0000 C   0  0  0  0  0  0  0  0  0  0  0  0
   -8.2040   -6.5530    0.0000 O   0  0  0  0  0  0  0  0  0  0  0  0
   -8.2220   -3.9550    0.0000 O   0  0  0  0  0  0  0  0  0  0  0  0
   -0.7230   -3.9020    0.0000 C   0  0  0  0  0  0  0  0  0  0  0  0
    0.0370   -5.1960    0.0000 C   0  0  0  0  0  0  0  0  0  0  0  0
   -0.7040   -6.5000    0.0000 O   0  0  0  0  0  0  0  0  0  0  0  0
    1.5370   -5.1850    0.0000 O   0  0  0  0  0  0  0  0  0  0  0  0
   -3.0180    2.5770    0.0000 C   0  0  0  0  0  0  0  0  0  0  0  0
   -2.2770    3.8810    0.0000 O   0  0  0  0  0  0  0  0  0  0  0  0
   -0.0180    2.5980    0.0000 C   0  0  0  0  0  0  0  0  0  0  0  0
    1.4820    2.6090    0.0000 O   0  0  0  0  0  0  0  0  0  0  0  0
  1  2  1  0  0  0  0
  2  3  1  0  0  0  0
  2 30  1  0  0  0  0
  3  4  1  0  0  0  0
  3 28  1  0  0  0  0
  4  5  1  0  0  0  0
  4 15  1  0  0  0  0
  5  6  1  0  0  0  0
  6  7  1  0  0  0  0
  7  8  1  0  0  0  0
  7 24  1  0  0  0  0
  8  9  1  0  0  0  0
  9 10  1  0  0  0  0
 10 11  1  0  0  0  0
 10 20  1  0  0  0  0
 11 12  1  0  0  0  0
 12 13  1  0  0  0  0
 13 14  1  0  0  0  0
 13 16  1  0  0  0  0
 14 15  1  0  0  0  0
 16 17  1  0  0  0  0
 17 18  1  0  0  0  0
 17 19  2  0  0  0  0
 20 21  1  0  0  0  0
 21 22  1  0  0  0  0
 21 23  2  0  0  0  0
 24 25  1  0  0  0  0
 25 26  1  0  0  0  0
 25 27  2  0  0  0  0
 28 29  1  0  0  0  0
 30 31  1  0  0  0  0
M  END
>  <Index>
470

>  <ID>
HT0951

>  <class>
0

>  <apol>
65.968964

>  <ast_fraglike>
0

>  <ast_fraglike_ext>
0

>  <ast_violation>
3

>  <ast_violation_ext>
5

>  <a_acc>
13

>  <a_acid>
0

>  <a_aro>
0

>  <a_base>
0

>  <a_count>
65

>  <a_don>
9

>  <a_donacc>
22

>  <a_heavy>
31

>  <a_hyd>
15

>  <a_IC>
106.8922

>  <a_ICM>
1.6444954

>  <a_nB>
0

>  <a_nBr>
0

>  <a_nC>
18

>  <a_nCl>
0

>  <a_nF>
0

>  <a_nH>
34

>  <a_nI>
0

>  <a_nN>
4

>  <a_nO>
9

>  <a_nP>
0

>  <a_nS>
0

>  <balabanJ>
3.0154235

>  <BCUT_PEOE_0>
-2.785006

>  <BCUT_PEOE_1>
-0.52329075

>  <BCUT_PEOE_2>
0.4656772

>  <BCUT_PEOE_3>
2.7191396

>  <BCUT_SLOGP_0>
-2.9308701

>  <BCUT_SLOGP_1>
-0.50179595

>  <BCUT_SLOGP_2>
0.39662033

>  <BCUT_SLOGP_3>
2.5687482

>  <BCUT_SMR_0>
-2.5149941

>  <BCUT_SMR_1>
-0.31067979

>  <BCUT_SMR_2>
0.59797531

>  <BCUT_SMR_3>
2.974371

>  <bpol>
47.963039

>  <b_1rotN>
10

>  <b_1rotR>
0.32258064

>  <b_ar>
0

>  <b_count>
65

>  <b_double>
3

>  <b_heavy>
31

>  <b_max1len>
7

>  <b_rotN>
10

>  <b_rotR>
0.32258064

>  <b_single>
62

>  <b_triple>
0

>  <chi0>
23.38854

>  <chi0v>
17.54397

>  <chi0v_C>
11.847089

>  <chi0_C>
12.07914

>  <chi1>
14.654305

>  <chi1v>
10.121041

>  <chi1v_C>
4.2104902

>  <chi1_C>
4.3745747

>  <chiral>
2

>  <chiral_u>
2

>  <density>
0.7959078

>  <diameter>
13

>  <FCharge>
0

>  <GCUT_PEOE_0>
-0.84259653

>  <GCUT_PEOE_1>
-0.46194521

>  <GCUT_PEOE_2>
0.10716726

>  <GCUT_PEOE_3>
3.0378981

>  <GCUT_SLOGP_0>
-0.97636247

>  <GCUT_SLOGP_1>
-0.48259351

>  <GCUT_SLOGP_2>
0.00024152953

>  <GCUT_SLOGP_3>
2.9304724

>  <GCUT_SMR_0>
-0.52563202

>  <GCUT_SMR_1>
-0.24157779

>  <GCUT_SMR_2>
0.21640514

>  <GCUT_SMR_3>
3.2600725

>  <Kier1>
29.032259

>  <Kier2>
15.76875

>  <Kier3>
12.148761

>  <KierA1>
26.523394

>  <KierA2>
14.361032

>  <KierA3>
11.038911

>  <KierFlex>
12.287203

>  <lip_acc>
13

>  <lip_don>
6

>  <lip_druglike>
0

>  <lip_violation>
2

>  <logP(o/w)>
-3.8789999

>  <logS>
1.28916

>  <mr>
10.808066

>  <mutagenic>
0

>  <nmol>
1

>  <opr_brigid>
12

>  <opr_leadlike>
0

>  <opr_nring>
0

>  <opr_nrot>
22

>  <opr_violation>
5

>  <PC+>
0

>  <PC->
0

>  <PEOE_PC+>
4.1211305

>  <PEOE_PC->
-4.1211305

>  <PEOE_RPC+>
0.066432916

>  <PEOE_RPC->
0.095453739

>  <PEOE_VSA+0>
173.78477

>  <PEOE_VSA+1>
128.71509

>  <PEOE_VSA+2>
0

>  <PEOE_VSA+3>
0

>  <PEOE_VSA+4>
61.945034

>  <PEOE_VSA+5>
44.125496

>  <PEOE_VSA+6>
0

>  <PEOE_VSA-0>
0

>  <PEOE_VSA-1>
0

>  <PEOE_VSA-2>
0

>  <PEOE_VSA-3>
0

>  <PEOE_VSA-4>
0

>  <PEOE_VSA-5>
40.700764

>  <PEOE_VSA-6>
46.60524

>  <PEOE_VSA_FHYD>
0.61003077

>  <PEOE_VSA_FNEG>
0.17606404

>  <PEOE_VSA_FPNEG>
0.17606404

>  <PEOE_VSA_FPOL>
0.38996923

>  <PEOE_VSA_FPOS>
0.82393593

>  <PEOE_VSA_FPPOS>
0.21390519

>  <PEOE_VSA_HYD>
302.49985

>  <PEOE_VSA_NEG>
87.306007

>  <PEOE_VSA_PNEG>
87.306007

>  <PEOE_VSA_POL>
193.37654

>  <PEOE_VSA_POS>
408.5704

>  <PEOE_VSA_PPOS>
106.07053

>  <petitjean>
0.38461539

>  <petitjeanSC>
0.625

>  <Q_PC+>
0

>  <Q_PC->
0

>  <Q_RPC+>
0

>  <Q_RPC->
0

>  <Q_VSA_FHYD>
1

>  <Q_VSA_FNEG>
0

>  <Q_VSA_FPNEG>
0

>  <Q_VSA_FPOL>
0

>  <Q_VSA_FPOS>
1

>  <Q_VSA_FPPOS>
0

>  <Q_VSA_HYD>
495.8764

>  <Q_VSA_NEG>
0

>  <Q_VSA_PNEG>
0

>  <Q_VSA_POL>
0

>  <Q_VSA_POS>
495.8764

>  <Q_VSA_PPOS>
0

>  <radius>
8

>  <reactive>
0

>  <rings>
1

>  <RPC+>
0

>  <RPC->
0

>  <rsynth>
0.74193549

>  <SlogP>
-3.8241

>  <SlogP_VSA0>
76.155678

>  <SlogP_VSA1>
35.733646

>  <SlogP_VSA2>
82.03727

>  <SlogP_VSA3>
320.84357

>  <SlogP_VSA4>
0

>  <SlogP_VSA5>
0

>  <SlogP_VSA6>
0

>  <SlogP_VSA7>
0

>  <SlogP_VSA8>
0

>  <SlogP_VSA9>
0

>  <SMR>
10.77668

>  <SMR_VSA0>
71.586647

>  <SMR_VSA1>
88.652931

>  <SMR_VSA2>
76.155678

>  <SMR_VSA3>
10.450618

>  <SMR_VSA4>
0

>  <SMR_VSA5>
0

>  <SMR_VSA6>
267.92426

>  <SMR_VSA7>
0

>  <TPSA>
185.55

>  <VAdjEq>
0.3451173

>  <VAdjMa>
5.9541965

>  <VDistEq>
3.4570615

>  <VDistMa>
9.6722946

>  <vdw_area>
495.8764

>  <vdw_vol>
566.00653

>  <vsa_acc>
0

>  <vsa_acid>
0

>  <vsa_base>
0

>  <vsa_don>
0

>  <vsa_hyd>
282.56958

>  <vsa_other>
44.125496

>  <vsa_pol>
122.10229

>  <Weight>
450.48898

>  <weinerPath>
2666

>  <weinerPol>
44

>  <zagreb>
142

$$$$