FC1(F)[C@H](O)[C@H](O[C@H]1N1C=CC(=NC1=O)N)CO
  MOE2013           2D

 18 19  0  0  1  0  0  0  0  0999 V2000
    0.0000    0.0000    0.0000 F   0  0  0  0  0  0  0  0  0  0  0  0
   -1.1580    0.9530    0.0000 C   0  0  0  0  0  0  0  0  0  0  0  0
   -1.4560   -0.5170    0.0000 F   0  0  0  0  0  0  0  0  0  0  0  0
   -2.5810    1.4290    0.0000 C   0  0  2  0  0  0  0  0  0  0  0  0
   -3.8010    0.5570    0.0000 O   0  0  0  0  0  0  0  0  0  0  0  0
   -2.5680    2.9290    0.0000 C   0  0  2  0  0  0  0  0  0  0  0  0
   -1.1380    3.3800    0.0000 O   0  0  0  0  0  0  0  0  0  0  0  0
   -0.2660    2.1600    0.0000 C   0  0  1  0  0  0  0  0  0  0  0  0
    1.2340    2.1480    0.0000 N   0  0  0  0  0  0  0  0  0  0  0  0
    1.9730    0.8420    0.0000 C   0  0  0  0  0  0  0  0  0  0  0  0
    3.4730    0.8300    0.0000 C   0  0  0  0  0  0  0  0  0  0  0  0
    4.2330    2.1230    0.0000 C   0  0  0  0  0  0  0  0  0  0  0  0
    3.4940    3.4280    0.0000 N   0  0  0  0  0  0  0  0  0  0  0  0
    1.9940    3.4400    0.0000 C   0  0  0  0  0  0  0  0  0  0  0  0
    1.2550    4.7450    0.0000 O   0  0  0  0  0  0  0  0  0  0  0  0
    5.7330    2.1110    0.0000 N   0  0  0  0  0  0  0  0  0  0  0  0
   -3.7750    3.8200    0.0000 C   0  0  0  0  0  0  0  0  0  0  0  0
   -3.6060    5.3110    0.0000 O   0  0  0  0  0  0  0  0  0  0  0  0
  1  2  1  0  0  0  0
  2  3  1  0  0  0  0
  2  4  1  0  0  0  0
  2  8  1  0  0  0  0
  4  5  1  6  0  0  0
  4  6  1  0  0  0  0
  6  7  1  0  0  0  0
  6 17  1  1  0  0  0
  7  8  1  0  0  0  0
  8  9  1  1  0  0  0
  9 10  1  0  0  0  0
  9 14  1  0  0  0  0
 10 11  2  0  0  0  0
 11 12  1  0  0  0  0
 12 13  2  0  0  0  0
 12 16  1  0  0  0  0
 13 14  1  0  0  0  0
 14 15  2  0  0  0  0
 17 18  1  0  0  0  0
M  END
>  <Index>
482

>  <ID>
HT0969

>  <class>
0

>  <apol>
30.796722

>  <ast_fraglike>
0

>  <ast_fraglike_ext>
0

>  <ast_violation>
1

>  <ast_violation_ext>
2

>  <a_acc>
5

>  <a_acid>
0

>  <a_aro>
0

>  <a_base>
0

>  <a_count>
29

>  <a_don>
3

>  <a_donacc>
8

>  <a_heavy>
18

>  <a_hyd>
8

>  <a_IC>
59.543488

>  <a_ICM>
2.0532238

>  <a_nB>
0

>  <a_nBr>
0

>  <a_nC>
9

>  <a_nCl>
0

>  <a_nF>
2

>  <a_nH>
11

>  <a_nI>
0

>  <a_nN>
3

>  <a_nO>
4

>  <a_nP>
0

>  <a_nS>
0

>  <balabanJ>
2.1339087

>  <BCUT_PEOE_0>
-2.4772916

>  <BCUT_PEOE_1>
-0.60919106

>  <BCUT_PEOE_2>
0.70029688

>  <BCUT_PEOE_3>
2.8188698

>  <BCUT_SLOGP_0>
-2.6965969

>  <BCUT_SLOGP_1>
-0.64482731

>  <BCUT_SLOGP_2>
0.5534302

>  <BCUT_SLOGP_3>
2.5963464

>  <BCUT_SMR_0>
-2.3108914

>  <BCUT_SMR_1>
-0.50442719

>  <BCUT_SMR_2>
0.78222293

>  <BCUT_SMR_3>
2.9641638

>  <bpol>
19.945276

>  <b_1rotN>
2

>  <b_1rotR>
0.10526316

>  <b_ar>
0

>  <b_count>
30

>  <b_double>
3

>  <b_heavy>
19

>  <b_max1len>
4

>  <b_rotN>
2

>  <b_rotR>
0.10526316

>  <b_single>
27

>  <b_triple>
0

>  <chi0>
13.499636

>  <chi0v>
9.0324879

>  <chi0v_C>
5.0938582

>  <chi0_C>
5.5080719

>  <chi1>
8.3742456

>  <chi1v>
5.0447536

>  <chi1v_C>
1.9409404

>  <chi1_C>
2.2271802

>  <chiral>
3

>  <chiral_u>
0

>  <density>
0.94928914

>  <diameter>
9

>  <FCharge>
0

>  <GCUT_PEOE_0>
-0.84310907

>  <GCUT_PEOE_1>
-0.4299098

>  <GCUT_PEOE_2>
0.16252016

>  <GCUT_PEOE_3>
2.5306525

>  <GCUT_SLOGP_0>
-1.370375

>  <GCUT_SLOGP_1>
-0.46195138

>  <GCUT_SLOGP_2>
0.17666905

>  <GCUT_SLOGP_3>
2.417428

>  <GCUT_SMR_0>
-0.52494383

>  <GCUT_SMR_1>
-0.24323295

>  <GCUT_SMR_2>
0.21016844

>  <GCUT_SMR_3>
2.7224405

>  <Kier1>
14.409972

>  <Kier2>
5.1747918

>  <Kier3>
2.5246549

>  <KierA1>
11.365081

>  <KierA2>
4.0198193

>  <KierA3>
1.9392012

>  <KierFlex>
2.5380874

>  <lip_acc>
7

>  <lip_don>
4

>  <lip_druglike>
1

>  <lip_violation>
0

>  <logP(o/w)>
-0.93808001

>  <logS>
-0.97829002

>  <mr>
5.4401073

>  <mutagenic>
0

>  <nmol>
1

>  <opr_brigid>
11

>  <opr_leadlike>
1

>  <opr_nring>
2

>  <opr_nrot>
3

>  <opr_violation>
0

>  <PC+>
0

>  <PC->
0

>  <PEOE_PC+>
2.5874746

>  <PEOE_PC->
-2.5874746

>  <PEOE_RPC+>
0.13619828

>  <PEOE_RPC->
0.15164007

>  <PEOE_VSA+0>
16.745916

>  <PEOE_VSA+1>
44.808994

>  <PEOE_VSA+2>
16.095491

>  <PEOE_VSA+3>
22.142954

>  <PEOE_VSA+4>
30.044285

>  <PEOE_VSA+5>
0

>  <PEOE_VSA+6>
19.673738

>  <PEOE_VSA-0>
12.254904

>  <PEOE_VSA-1>
0

>  <PEOE_VSA-2>
0

>  <PEOE_VSA-3>
29.499847

>  <PEOE_VSA-4>
13.566921

>  <PEOE_VSA-5>
0

>  <PEOE_VSA-6>
24.689957

>  <PEOE_VSA_FHYD>
0.61670554

>  <PEOE_VSA_FNEG>
0.34859958

>  <PEOE_VSA_FPNEG>
0.16667992

>  <PEOE_VSA_FPOL>
0.38329446

>  <PEOE_VSA_FPOS>
0.65140039

>  <PEOE_VSA_FPPOS>
0.21661456

>  <PEOE_VSA_HYD>
141.54811

>  <PEOE_VSA_NEG>
80.011627

>  <PEOE_VSA_PNEG>
38.256878

>  <PEOE_VSA_POL>
87.974899

>  <PEOE_VSA_POS>
149.51138

>  <PEOE_VSA_PPOS>
49.718025

>  <petitjean>
0.44444445

>  <petitjeanSC>
0.80000001

>  <Q_PC+>
0

>  <Q_PC->
0

>  <Q_RPC+>
0

>  <Q_RPC->
0

>  <Q_VSA_FHYD>
1

>  <Q_VSA_FNEG>
0

>  <Q_VSA_FPNEG>
0

>  <Q_VSA_FPOL>
0

>  <Q_VSA_FPOS>
1

>  <Q_VSA_FPPOS>
0

>  <Q_VSA_HYD>
229.52301

>  <Q_VSA_NEG>
0

>  <Q_VSA_PNEG>
0

>  <Q_VSA_POL>
0

>  <Q_VSA_POS>
229.52301

>  <Q_VSA_PPOS>
0

>  <radius>
5

>  <reactive>
0

>  <rings>
2

>  <RPC+>
0

>  <RPC->
0

>  <rsynth>
1

>  <SlogP>
-0.99370003

>  <SlogP_VSA0>
83.667641

>  <SlogP_VSA1>
12.106263

>  <SlogP_VSA2>
29.977009

>  <SlogP_VSA3>
20.926258

>  <SlogP_VSA4>
0

>  <SlogP_VSA5>
16.78553

>  <SlogP_VSA6>
0

>  <SlogP_VSA7>
34.85754

>  <SlogP_VSA8>
0

>  <SlogP_VSA9>
53.782444

>  <SMR>
5.4698

>  <SMR_VSA0>
34.862103

>  <SMR_VSA1>
100.60052

>  <SMR_VSA2>
1.824073

>  <SMR_VSA3>
18.977119

>  <SMR_VSA4>
32.897186

>  <SMR_VSA5>
34.85754

>  <SMR_VSA6>
28.084135

>  <SMR_VSA7>
0

>  <TPSA>
108.38

>  <VAdjEq>
0.52150291

>  <VAdjMa>
5.2479277

>  <VDistEq>
2.8393276

>  <VDistMa>
8.0661707

>  <vdw_area>
229.52301

>  <vdw_vol>
277.2601

>  <vsa_acc>
21.753254

>  <vsa_acid>
0

>  <vsa_base>
0

>  <vsa_don>
17.742489

>  <vsa_hyd>
101.13398

>  <vsa_other>
41.580635

>  <vsa_pol>
66.629585

>  <Weight>
263.19998

>  <weinerPath>
560

>  <weinerPol>
31

>  <zagreb>
96

$$$$