S(C(=O)[C@]1(OC(=O)CC)[C@@]2([C@H]([C@@H]3C[C@H](F)C4=CC(=O)C=C[C@]4(C)[C@@]3(F)[C@@H](O)C2)C[C@H]1C)C)CF
  MOE2013           2D

 34 37  0  0  1  0  0  0  0  0999 V2000
    0.0000    0.0000    0.0000 S   0  0  0  0  0  0  0  0  0  0  0  0
    0.9390    1.1690    0.0000 C   0  0  0  0  0  0  0  0  0  0  0  0
    0.3970    2.5680    0.0000 O   0  0  0  0  0  0  0  0  0  0  0  0
    2.4220    0.9400    0.0000 C   0  0  2  0  0  0  0  0  0  0  0  0
    1.9280    2.3570    0.0000 O   0  0  0  0  0  0  0  0  0  0  0  0
    2.9080    3.4930    0.0000 C   0  0  0  0  0  0  0  0  0  0  0  0
    4.3810    3.2120    0.0000 O   0  0  0  0  0  0  0  0  0  0  0  0
    2.4140    4.9090    0.0000 C   0  0  0  0  0  0  0  0  0  0  0  0
    3.3940    6.0450    0.0000 C   0  0  0  0  0  0  0  0  0  0  0  0
    3.8880    1.2580    0.0000 C   0  0  2  0  0  0  0  0  0  0  0  0
    4.6430   -0.0380    0.0000 C   0  0  2  0  0  0  0  0  0  0  0  0
    6.1430   -0.0320    0.0000 C   0  0  2  0  0  0  0  0  0  0  0  0
    6.8980   -1.3290    0.0000 C   0  0  0  0  0  0  0  0  0  0  0  0
    8.3980   -1.3230    0.0000 C   0  0  2  0  0  0  0  0  0  0  0  0
    9.1530   -2.6190    0.0000 F   0  0  0  0  0  0  0  0  0  0  0  0
    9.1430   -0.0210    0.0000 C   0  0  0  0  0  0  0  0  0  0  0  0
   10.6430   -0.0150    0.0000 C   0  0  0  0  0  0  0  0  0  0  0  0
   11.3880    1.2870    0.0000 C   0  0  0  0  0  0  0  0  0  0  0  0
   12.8880    1.2930    0.0000 O   0  0  0  0  0  0  0  0  0  0  0  0
   10.6330    2.5830    0.0000 C   0  0  0  0  0  0  0  0  0  0  0  0
    9.1330    2.5770    0.0000 C   0  0  0  0  0  0  0  0  0  0  0  0
    8.3880    1.2750    0.0000 C   0  0  1  0  0  0  0  0  0  0  0  0
    7.6330    2.5710    0.0000 C   0  0  0  0  0  0  0  0  0  0  0  0
    6.8880    1.2700    0.0000 C   0  0  2  0  0  0  0  0  0  0  0  0
    5.3880    1.2640    0.0000 F   0  0  0  0  0  0  0  0  0  0  0  0
    6.1330    2.5660    0.0000 C   0  0  1  0  0  0  0  0  0  0  0  0
    6.8780    3.8680    0.0000 O   0  0  0  0  0  0  0  0  0  0  0  0
    4.6330    2.5600    0.0000 C   0  0  0  0  0  0  0  0  0  0  0  0
    3.6440   -1.1570    0.0000 C   0  0  0  0  0  0  0  0  0  0  0  0
    2.2710   -0.5520    0.0000 C   0  0  1  0  0  0  0  0  0  0  0  0
    0.9750   -1.3070    0.0000 C   0  0  0  0  0  0  0  0  0  0  0  0
    3.0230    2.4830    0.0000 C   0  0  0  0  0  0  0  0  0  0  0  0
   -1.4820    0.2290    0.0000 C   0  0  0  0  0  0  0  0  0  0  0  0
   -2.4220   -0.9400    0.0000 F   0  0  0  0  0  0  0  0  0  0  0  0
  1  2  1  0  0  0  0
  1 33  1  0  0  0  0
  2  3  2  0  0  0  0
  4  2  1  6  0  0  0
  4  5  1  1  0  0  0
  4 10  1  0  0  0  0
  4 30  1  0  0  0  0
  5  6  1  0  0  0  0
  6  7  2  0  0  0  0
  6  8  1  0  0  0  0
  8  9  1  0  0  0  0
 10 11  1  0  0  0  0
 10 28  1  0  0  0  0
 10 32  1  6  0  0  0
 11 12  1  0  0  0  0
 11 29  1  6  0  0  0
 12 13  1  1  0  0  0
 12 24  1  0  0  0  0
 13 14  1  0  0  0  0
 14 15  1  1  0  0  0
 14 16  1  0  0  0  0
 16 17  2  0  0  0  0
 16 22  1  0  0  0  0
 17 18  1  0  0  0  0
 18 19  2  0  0  0  0
 18 20  1  0  0  0  0
 20 21  2  0  0  0  0
 21 22  1  0  0  0  0
 22 23  1  6  0  0  0
 22 24  1  0  0  0  0
 24 25  1  1  0  0  0
 24 26  1  0  0  0  0
 26 27  1  6  0  0  0
 26 28  1  0  0  0  0
 29 30  1  0  0  0  0
 30 31  1  1  0  0  0
 33 34  1  0  0  0  0
M  END
>  <Index>
454

>  <ID>
HT0925

>  <class>
0

>  <apol>
73.251579

>  <ast_fraglike>
0

>  <ast_fraglike_ext>
0

>  <ast_violation>
3

>  <ast_violation_ext>
4

>  <a_acc>
4

>  <a_acid>
0

>  <a_aro>
0

>  <a_base>
0

>  <a_count>
65

>  <a_don>
1

>  <a_donacc>
5

>  <a_heavy>
34

>  <a_hyd>
26

>  <a_IC>
105.41289

>  <a_ICM>
1.6217368

>  <a_nB>
0

>  <a_nBr>
0

>  <a_nC>
25

>  <a_nCl>
0

>  <a_nF>
3

>  <a_nH>
31

>  <a_nI>
0

>  <a_nN>
0

>  <a_nO>
5

>  <a_nP>
0

>  <a_nS>
1

>  <balabanJ>
1.8140275

>  <BCUT_PEOE_0>
-2.8899601

>  <BCUT_PEOE_1>
-0.4859558

>  <BCUT_PEOE_2>
0.37664527

>  <BCUT_PEOE_3>
3.006429

>  <BCUT_SLOGP_0>
-2.9274673

>  <BCUT_SLOGP_1>
-0.40777236

>  <BCUT_SLOGP_2>
0.46840408

>  <BCUT_SLOGP_3>
2.9937818

>  <BCUT_SMR_0>
-2.6704919

>  <BCUT_SMR_1>
-0.27249122

>  <BCUT_SMR_2>
0.5620634

>  <BCUT_SMR_3>
3.2285907

>  <bpol>
44.568417

>  <b_1rotN>
4

>  <b_1rotR>
0.10810811

>  <b_ar>
0

>  <b_count>
68

>  <b_double>
5

>  <b_heavy>
37

>  <b_max1len>
3

>  <b_rotN>
6

>  <b_rotR>
0.16216215

>  <b_single>
63

>  <b_triple>
0

>  <chi0>
25.26722

>  <chi0v>
20.593182

>  <chi0v_C>
16.154337

>  <chi0_C>
16.853006

>  <chi1>
15.828424

>  <chi1v>
12.729227

>  <chi1v_C>
9.2975483

>  <chi1_C>
10.064516

>  <chiral>
9

>  <chiral_u>
0

>  <density>
0.81824875

>  <diameter>
13

>  <FCharge>
0

>  <GCUT_PEOE_0>
-0.78931576

>  <GCUT_PEOE_1>
-0.38947815

>  <GCUT_PEOE_2>
-0.017721392

>  <GCUT_PEOE_3>
3.4255245

>  <GCUT_SLOGP_0>
-0.91430509

>  <GCUT_SLOGP_1>
-0.30488566

>  <GCUT_SLOGP_2>
0.079303294

>  <GCUT_SLOGP_3>
3.4473379

>  <GCUT_SMR_0>
-0.53789502

>  <GCUT_SMR_1>
-0.21001421

>  <GCUT_SMR_2>
0.1449265

>  <GCUT_SMR_3>
3.6433949

>  <Kier1>
27.046019

>  <Kier2>
9.0814295

>  <Kier3>
3.5173407

>  <KierA1>
24.463383

>  <KierA2>
8.1883278

>  <KierA3>
3.1644001

>  <KierFlex>
5.8915939

>  <lip_acc>
5

>  <lip_don>
1

>  <lip_druglike>
1

>  <lip_violation>
1

>  <logP(o/w)>
5.132

>  <logS>
-5.4068599

>  <mr>
12.340049

>  <mutagenic>
0

>  <nmol>
1

>  <opr_brigid>
20

>  <opr_leadlike>
1

>  <opr_nring>
4

>  <opr_nrot>
5

>  <opr_violation>
1

>  <PC+>
0

>  <PC->
0

>  <PEOE_PC+>
2.7297459

>  <PEOE_PC->
-2.7297459

>  <PEOE_RPC+>
0.096291453

>  <PEOE_RPC->
0.14235047

>  <PEOE_VSA+0>
106.80519

>  <PEOE_VSA+1>
34.76263

>  <PEOE_VSA+2>
22.956936

>  <PEOE_VSA+3>
8.458519

>  <PEOE_VSA+4>
20.758753

>  <PEOE_VSA+5>
14.708499

>  <PEOE_VSA+6>
0

>  <PEOE_VSA-0>
71.569962

>  <PEOE_VSA-1>
88.258553

>  <PEOE_VSA-2>
0

>  <PEOE_VSA-3>
0

>  <PEOE_VSA-4>
35.725906

>  <PEOE_VSA-5>
43.204517

>  <PEOE_VSA-6>
7.7675405

>  <PEOE_VSA_FHYD>
0.73149145

>  <PEOE_VSA_FNEG>
0.54184383

>  <PEOE_VSA_FPNEG>
0.1905546

>  <PEOE_VSA_FPOL>
0.26850855

>  <PEOE_VSA_FPOS>
0.45815617

>  <PEOE_VSA_FPPOS>
0.077953942

>  <PEOE_VSA_HYD>
332.8118

>  <PEOE_VSA_NEG>
246.52649

>  <PEOE_VSA_PNEG>
86.697968

>  <PEOE_VSA_POL>
122.16522

>  <PEOE_VSA_POS>
208.45053

>  <PEOE_VSA_PPOS>
35.467255

>  <petitjean>
0.46153846

>  <petitjeanSC>
0.85714287

>  <Q_PC+>
0

>  <Q_PC->
0

>  <Q_RPC+>
0

>  <Q_RPC->
0

>  <Q_VSA_FHYD>
1

>  <Q_VSA_FNEG>
0

>  <Q_VSA_FPNEG>
0

>  <Q_VSA_FPOL>
0

>  <Q_VSA_FPOS>
1

>  <Q_VSA_FPPOS>
0

>  <Q_VSA_HYD>
454.97702

>  <Q_VSA_NEG>
0

>  <Q_VSA_PNEG>
0

>  <Q_VSA_POL>
0

>  <Q_VSA_POS>
454.97702

>  <Q_VSA_PPOS>
0

>  <radius>
7

>  <reactive>
0

>  <rings>
4

>  <RPC+>
0

>  <RPC->
0

>  <rsynth>
0.44117647

>  <SlogP>
4.4299998

>  <SlogP_VSA0>
25.385227

>  <SlogP_VSA1>
17.485846

>  <SlogP_VSA2>
99.401428

>  <SlogP_VSA3>
23.169008

>  <SlogP_VSA4>
13.232388

>  <SlogP_VSA5>
3.185575

>  <SlogP_VSA6>
0

>  <SlogP_VSA7>
52.929554

>  <SlogP_VSA8>
75.473625

>  <SlogP_VSA9>
210.40395

>  <SMR>
12.08688

>  <SMR_VSA0>
82.58654

>  <SMR_VSA1>
70.265564

>  <SMR_VSA2>
13.232388

>  <SMR_VSA3>
20.000463

>  <SMR_VSA4>
0

>  <SMR_VSA5>
128.40317

>  <SMR_VSA6>
40.654854

>  <SMR_VSA7>
165.52361

>  <TPSA>
80.669998

>  <VAdjEq>
0.34317648

>  <VAdjMa>
6.2094536

>  <VDistEq>
3.3394637

>  <VDistMa>
9.9335718

>  <vdw_area>
454.97702

>  <vdw_vol>
611.76746

>  <vsa_acc>
40.700764

>  <vsa_acid>
0

>  <vsa_base>
0

>  <vsa_don>
0

>  <vsa_hyd>
334.69019

>  <vsa_other>
36.105354

>  <vsa_pol>
54.267685

>  <Weight>
500.578

>  <weinerPath>
2835

>  <weinerPol>
81

>  <zagreb>
196

$$$$