F[C@@H]1C2=CC(=O)C=C[C@@]2([C@@H]2[C@H]([C@@H]3CC[C@](O)(C(=O)CO)[C@]3(C[C@@H]2O)C)C1)C
  MOE2013           2D

 27 30  0  0  1  0  0  0  0  0999 V2000
    0.0000    0.0000    0.0000 F   0  0  0  0  0  0  0  0  0  0  0  0
    0.7400   -1.3050    0.0000 C   0  0  2  0  0  0  0  0  0  0  0  0
   -0.0200   -2.5980    0.0000 C   0  0  0  0  0  0  0  0  0  0  0  0
   -1.5200   -2.5860    0.0000 C   0  0  0  0  0  0  0  0  0  0  0  0
   -2.2800   -3.8800    0.0000 C   0  0  0  0  0  0  0  0  0  0  0  0
   -3.7800   -3.8680    0.0000 O   0  0  0  0  0  0  0  0  0  0  0  0
   -1.5400   -5.1840    0.0000 C   0  0  0  0  0  0  0  0  0  0  0  0
   -0.0400   -5.1960    0.0000 C   0  0  0  0  0  0  0  0  0  0  0  0
    0.7200   -3.9030    0.0000 C   0  0  2  0  0  0  0  0  0  0  0  0
    2.2200   -3.9140    0.0000 C   0  0  2  0  0  0  0  0  0  0  0  0
    2.9800   -2.6210    0.0000 C   0  0  2  0  0  0  0  0  0  0  0  0
    4.4800   -2.6330    0.0000 C   0  0  2  0  0  0  0  0  0  0  0  0
    5.4920   -1.5260    0.0000 C   0  0  0  0  0  0  0  0  0  0  0  0
    6.8580   -2.1460    0.0000 C   0  0  0  0  0  0  0  0  0  0  0  0
    6.6890   -3.6370    0.0000 C   0  0  2  0  0  0  0  0  0  0  0  0
    7.0660   -5.0890    0.0000 O   0  0  0  0  0  0  0  0  0  0  0  0
    8.1480   -3.9860    0.0000 C   0  0  0  0  0  0  0  0  0  0  0  0
    8.5760   -5.4240    0.0000 O   0  0  0  0  0  0  0  0  0  0  0  0
    9.1800   -2.8970    0.0000 C   0  0  0  0  0  0  0  0  0  0  0  0
   10.6390   -3.2450    0.0000 O   0  0  0  0  0  0  0  0  0  0  0  0
    5.2200   -3.9380    0.0000 C   0  0  1  0  0  0  0  0  0  0  0  0
    4.4600   -5.2310    0.0000 C   0  0  0  0  0  0  0  0  0  0  0  0
    2.9600   -5.2190    0.0000 C   0  0  2  0  0  0  0  0  0  0  0  0
    2.2000   -6.5120    0.0000 O   0  0  0  0  0  0  0  0  0  0  0  0
    6.0920   -5.1580    0.0000 C   0  0  0  0  0  0  0  0  0  0  0  0
    2.2400   -1.3160    0.0000 C   0  0  0  0  0  0  0  0  0  0  0  0
    1.4820   -5.1940    0.0000 C   0  0  0  0  0  0  0  0  0  0  0  0
  2  1  1  1  0  0  0
  2  3  1  0  0  0  0
  2 26  1  0  0  0  0
  3  4  2  0  0  0  0
  3  9  1  0  0  0  0
  4  5  1  0  0  0  0
  5  6  2  0  0  0  0
  5  7  1  0  0  0  0
  7  8  2  0  0  0  0
  8  9  1  0  0  0  0
  9 27  1  6  0  0  0
 10  9  1  6  0  0  0
 10 11  1  0  0  0  0
 10 23  1  0  0  0  0
 11 12  1  0  0  0  0
 11 26  1  1  0  0  0
 12 13  1  6  0  0  0
 12 21  1  0  0  0  0
 13 14  1  0  0  0  0
 14 15  1  0  0  0  0
 15 16  1  1  0  0  0
 15 17  1  6  0  0  0
 15 21  1  0  0  0  0
 17 18  2  0  0  0  0
 17 19  1  0  0  0  0
 19 20  1  0  0  0  0
 21 22  1  0  0  0  0
 21 25  1  6  0  0  0
 22 23  1  0  0  0  0
 23 24  1  6  0  0  0
M  END
>  <Index>
450

>  <ID>
HT0916

>  <class>
0

>  <apol>
59.530411

>  <ast_fraglike>
0

>  <ast_fraglike_ext>
0

>  <ast_violation>
2

>  <ast_violation_ext>
3

>  <a_acc>
5

>  <a_acid>
0

>  <a_aro>
0

>  <a_base>
0

>  <a_count>
54

>  <a_don>
3

>  <a_donacc>
8

>  <a_heavy>
27

>  <a_hyd>
20

>  <a_IC>
78.533653

>  <a_ICM>
1.454327

>  <a_nB>
0

>  <a_nBr>
0

>  <a_nC>
21

>  <a_nCl>
0

>  <a_nF>
1

>  <a_nH>
27

>  <a_nI>
0

>  <a_nN>
0

>  <a_nO>
5

>  <a_nP>
0

>  <a_nS>
0

>  <balabanJ>
1.7132298

>  <BCUT_PEOE_0>
-2.913609

>  <BCUT_PEOE_1>
-0.5182392

>  <BCUT_PEOE_2>
0.56161153

>  <BCUT_PEOE_3>
2.9790573

>  <BCUT_SLOGP_0>
-2.9070668

>  <BCUT_SLOGP_1>
-0.48139793

>  <BCUT_SLOGP_2>
0.51243126

>  <BCUT_SLOGP_3>
2.99827

>  <BCUT_SMR_0>
-2.6746173

>  <BCUT_SMR_1>
-0.38488686

>  <BCUT_SMR_2>
0.67471337

>  <BCUT_SMR_3>
3.2153637

>  <bpol>
32.63559

>  <b_1rotN>
2

>  <b_1rotR>
0.06666667

>  <b_ar>
0

>  <b_count>
57

>  <b_double>
4

>  <b_heavy>
30

>  <b_max1len>
6

>  <b_rotN>
2

>  <b_rotR>
0.06666667

>  <b_single>
53

>  <b_triple>
0

>  <chi0>
19.775656

>  <chi0v>
15.690438

>  <chi0v_C>
13.154336

>  <chi0_C>
13.775657

>  <chi1>
12.581188

>  <chi1v>
9.7222118

>  <chi1v_C>
8.2977123

>  <chi1_C>
9.0646801

>  <chiral>
8

>  <chiral_u>
0

>  <density>
0.77140146

>  <diameter>
12

>  <FCharge>
0

>  <GCUT_PEOE_0>
-0.79953265

>  <GCUT_PEOE_1>
-0.40558317

>  <GCUT_PEOE_2>
0.044244189

>  <GCUT_PEOE_3>
3.3183448

>  <GCUT_SLOGP_0>
-0.94576776

>  <GCUT_SLOGP_1>
-0.35758168

>  <GCUT_SLOGP_2>
0.0084342742

>  <GCUT_SLOGP_3>
3.3466668

>  <GCUT_SMR_0>
-0.53696597

>  <GCUT_SMR_1>
-0.22647493

>  <GCUT_SMR_2>
0.15360515

>  <GCUT_SMR_3>
3.5388229

>  <Kier1>
20.280001

>  <Kier2>
6.5

>  <Kier3>
2.5927978

>  <KierA1>
17.675766

>  <KierA2>
5.6338954

>  <KierA3>
2.2380574

>  <KierFlex>
3.6882746

>  <lip_acc>
5

>  <lip_don>
3

>  <lip_druglike>
1

>  <lip_violation>
0

>  <logP(o/w)>
1.926

>  <logS>
-3.1717701

>  <mr>
9.6605406

>  <mutagenic>
0

>  <nmol>
1

>  <opr_brigid>
20

>  <opr_leadlike>
1

>  <opr_nring>
4

>  <opr_nrot>
2

>  <opr_violation>
0

>  <PC+>
0

>  <PC->
0

>  <PEOE_PC+>
2.3629653

>  <PEOE_PC->
-2.3629653

>  <PEOE_RPC+>
0.089194275

>  <PEOE_RPC->
0.16565855

>  <PEOE_VSA+0>
72.511559

>  <PEOE_VSA+1>
34.76263

>  <PEOE_VSA+2>
20.418549

>  <PEOE_VSA+3>
16.917038

>  <PEOE_VSA+4>
30.972517

>  <PEOE_VSA+5>
0

>  <PEOE_VSA+6>
0

>  <PEOE_VSA-0>
61.523602

>  <PEOE_VSA-1>
49.750259

>  <PEOE_VSA-2>
0

>  <PEOE_VSA-3>
0

>  <PEOE_VSA-4>
11.908636

>  <PEOE_VSA-5>
27.133842

>  <PEOE_VSA-6>
23.30262

>  <PEOE_VSA_FHYD>
0.73276836

>  <PEOE_VSA_FNEG>
0.49718881

>  <PEOE_VSA_FPNEG>
0.1785363

>  <PEOE_VSA_FPOL>
0.26723161

>  <PEOE_VSA_FPOS>
0.50281119

>  <PEOE_VSA_FPPOS>
0.088695325

>  <PEOE_VSA_HYD>
255.88364

>  <PEOE_VSA_NEG>
173.61896

>  <PEOE_VSA_PNEG>
62.345097

>  <PEOE_VSA_POL>
93.317619

>  <PEOE_VSA_POS>
175.58229

>  <PEOE_VSA_PPOS>
30.972517

>  <petitjean>
0.5

>  <petitjeanSC>
1

>  <Q_PC+>
0

>  <Q_PC->
0

>  <Q_RPC+>
0

>  <Q_RPC->
0

>  <Q_VSA_FHYD>
1

>  <Q_VSA_FNEG>
0

>  <Q_VSA_FPNEG>
0

>  <Q_VSA_FPOL>
0

>  <Q_VSA_FPOS>
1

>  <Q_VSA_FPPOS>
0

>  <Q_VSA_HYD>
349.20126

>  <Q_VSA_NEG>
0

>  <Q_VSA_PNEG>
0

>  <Q_VSA_POL>
0

>  <Q_VSA_POS>
349.20126

>  <Q_VSA_PPOS>
0

>  <radius>
6

>  <reactive>
1

>  <rings>
4

>  <RPC+>
0

>  <RPC->
0

>  <rsynth>
0.33333334

>  <SlogP>
1.5056

>  <SlogP_VSA0>
76.155678

>  <SlogP_VSA1>
11.375222

>  <SlogP_VSA2>
64.539322

>  <SlogP_VSA3>
20.926258

>  <SlogP_VSA4>
13.232388

>  <SlogP_VSA5>
3.185575

>  <SlogP_VSA6>
0

>  <SlogP_VSA7>
52.929554

>  <SlogP_VSA8>
75.473625

>  <SlogP_VSA9>
81.612144

>  <SMR>
9.5327396

>  <SMR_VSA0>
47.724434

>  <SMR_VSA1>
91.115791

>  <SMR_VSA2>
13.232388

>  <SMR_VSA3>
20.000463

>  <SMR_VSA4>
0

>  <SMR_VSA5>
128.40317

>  <SMR_VSA6>
32.301479

>  <SMR_VSA7>
66.652031

>  <TPSA>
94.830002

>  <VAdjEq>
0.41024774

>  <VAdjMa>
5.9068904

>  <VDistEq>
3.1632514

>  <VDistMa>
9.2508001

>  <vdw_area>
349.20126

>  <vdw_vol>
490.58762

>  <vsa_acc>
27.133842

>  <vsa_acid>
0

>  <vsa_base>
0

>  <vsa_don>
0

>  <vsa_hyd>
229.75699

>  <vsa_other>
16.917038

>  <vsa_pol>
67.834602

>  <Weight>
378.44

>  <weinerPath>
1553

>  <weinerPol>
62

>  <zagreb>
160

$$$$