Clc1cc2c(N(C)C(=O)CN=C2c2ccccc2F)cc1
  MOE2013           2D

 21 23  0  0  0  0  0  0  0  0999 V2000
    0.0000    0.0000    0.0000 Cl  0  0  0  0  0  0  0  0  0  0  0  0
    0.8990   -1.2010    0.0000 C   0  0  0  0  0  0  0  0  0  0  0  0
    0.3080   -2.5800    0.0000 C   0  0  0  0  0  0  0  0  0  0  0  0
    1.2070   -3.7800    0.0000 C   0  0  0  0  0  0  0  0  0  0  0  0
    2.6970   -3.6020    0.0000 C   0  0  0  0  0  0  0  0  0  0  0  0
    3.7630   -4.6570    0.0000 N   0  0  0  0  0  0  0  0  0  0  0  0
    5.1760   -4.1530    0.0000 C   0  0  0  0  0  0  0  0  0  0  0  0
    3.6040   -6.1490    0.0000 C   0  0  0  0  0  0  0  0  0  0  0  0
    4.8800   -6.9390    0.0000 O   0  0  0  0  0  0  0  0  0  0  0  0
    2.3400   -6.9550    0.0000 C   0  0  0  0  0  0  0  0  0  0  0  0
    0.9210   -6.4690    0.0000 N   0  0  0  0  0  0  0  0  0  0  0  0
    0.4170   -5.0560    0.0000 C   0  0  0  0  0  0  0  0  0  0  0  0
   -1.0740   -4.8970    0.0000 C   0  0  0  0  0  0  0  0  0  0  0  0
   -1.6820   -3.5260    0.0000 C   0  0  0  0  0  0  0  0  0  0  0  0
   -3.1740   -3.3670    0.0000 C   0  0  0  0  0  0  0  0  0  0  0  0
   -4.0570   -4.5790    0.0000 C   0  0  0  0  0  0  0  0  0  0  0  0
   -3.4490   -5.9500    0.0000 C   0  0  0  0  0  0  0  0  0  0  0  0
   -1.9580   -6.1090    0.0000 C   0  0  0  0  0  0  0  0  0  0  0  0
   -1.3490   -7.4800    0.0000 F   0  0  0  0  0  0  0  0  0  0  0  0
    3.2870   -2.2230    0.0000 C   0  0  0  0  0  0  0  0  0  0  0  0
    2.3880   -1.0230    0.0000 C   0  0  0  0  0  0  0  0  0  0  0  0
  1  2  1  0  0  0  0
  2  3  1  0  0  0  0
  2 21  2  0  0  0  0
  3  4  2  0  0  0  0
  4  5  1  0  0  0  0
  4 12  1  0  0  0  0
  5  6  1  0  0  0  0
  5 20  2  0  0  0  0
  6  7  1  0  0  0  0
  6  8  1  0  0  0  0
  8  9  2  0  0  0  0
  8 10  1  0  0  0  0
 10 11  1  0  0  0  0
 11 12  2  0  0  0  0
 12 13  1  0  0  0  0
 13 14  1  0  0  0  0
 13 18  2  0  0  0  0
 14 15  2  0  0  0  0
 15 16  1  0  0  0  0
 16 17  2  0  0  0  0
 17 18  1  0  0  0  0
 18 19  1  0  0  0  0
 20 21  1  0  0  0  0
M  END
>  <Index>
438

>  <ID>
HT0892

>  <class>
0

>  <apol>
41.900517

>  <ast_fraglike>
0

>  <ast_fraglike_ext>
0

>  <ast_violation>
2

>  <ast_violation_ext>
2

>  <a_acc>
2

>  <a_acid>
0

>  <a_aro>
12

>  <a_base>
0

>  <a_count>
33

>  <a_don>
0

>  <a_donacc>
2

>  <a_heavy>
21

>  <a_hyd>
16

>  <a_IC>
57.445457

>  <a_ICM>
1.7407714

>  <a_nB>
0

>  <a_nBr>
0

>  <a_nC>
16

>  <a_nCl>
1

>  <a_nF>
1

>  <a_nH>
12

>  <a_nI>
0

>  <a_nN>
2

>  <a_nO>
1

>  <a_nP>
0

>  <a_nS>
0

>  <balabanJ>
1.8384368

>  <BCUT_PEOE_0>
-2.3991022

>  <BCUT_PEOE_1>
-0.61090261

>  <BCUT_PEOE_2>
0.61317712

>  <BCUT_PEOE_3>
2.4268844

>  <BCUT_SLOGP_0>
-2.5308397

>  <BCUT_SLOGP_1>
-0.45286289

>  <BCUT_SLOGP_2>
0.79974568

>  <BCUT_SLOGP_3>
2.4304402

>  <BCUT_SMR_0>
-2.0784144

>  <BCUT_SMR_1>
-0.42136347

>  <BCUT_SMR_2>
0.86350071

>  <BCUT_SMR_3>
2.7445943

>  <bpol>
18.999483

>  <b_1rotN>
1

>  <b_1rotR>
0.043478262

>  <b_ar>
12

>  <b_count>
35

>  <b_double>
2

>  <b_heavy>
23

>  <b_max1len>
2

>  <b_rotN>
1

>  <b_rotR>
0.043478262

>  <b_single>
21

>  <b_triple>
0

>  <chi0>
14.982763

>  <chi0v>
12.063092

>  <chi0v_C>
9.248559

>  <chi0_C>
10.698306

>  <chi1>
10.075387

>  <chi1v>
6.8132524

>  <chi1v_C>
4.4189377

>  <chi1_C>
6.1910715

>  <chiral>
0

>  <chiral_u>
0

>  <density>
0.80665869

>  <diameter>
8

>  <FCharge>
0

>  <GCUT_PEOE_0>
-0.8264181

>  <GCUT_PEOE_1>
-0.43674496

>  <GCUT_PEOE_2>
0.050386537

>  <GCUT_PEOE_3>
2.5166414

>  <GCUT_SLOGP_0>
-1.0001423

>  <GCUT_SLOGP_1>
-0.28044274

>  <GCUT_SLOGP_2>
0.16770859

>  <GCUT_SLOGP_3>
2.5961175

>  <GCUT_SMR_0>
-0.46826234

>  <GCUT_SMR_1>
-0.1931365

>  <GCUT_SMR_2>
0.22610773

>  <GCUT_SMR_3>
2.8292694

>  <Kier1>
15.879017

>  <Kier2>
6.6299357

>  <Kier3>
3.2

>  <KierA1>
11.765299

>  <KierA2>
4.8325567

>  <KierA3>
2.3032188

>  <KierFlex>
2.7074509

>  <lip_acc>
3

>  <lip_don>
0

>  <lip_druglike>
1

>  <lip_violation>
0

>  <logP(o/w)>
3.26

>  <logS>
-4.8266702

>  <mr>
8.1219959

>  <mutagenic>
0

>  <nmol>
1

>  <opr_brigid>
18

>  <opr_leadlike>
1

>  <opr_nring>
3

>  <opr_nrot>
1

>  <opr_violation>
0

>  <PC+>
0

>  <PC->
0

>  <PEOE_PC+>
1.4503639

>  <PEOE_PC->
-1.4503639

>  <PEOE_RPC+>
0.17167661

>  <PEOE_RPC->
0.21584541

>  <PEOE_VSA+0>
44.971672

>  <PEOE_VSA+1>
51.787575

>  <PEOE_VSA+2>
22.213171

>  <PEOE_VSA+3>
0

>  <PEOE_VSA+4>
12.949531

>  <PEOE_VSA+5>
0

>  <PEOE_VSA+6>
0

>  <PEOE_VSA-0>
61.274521

>  <PEOE_VSA-1>
54.091755

>  <PEOE_VSA-2>
0

>  <PEOE_VSA-3>
0

>  <PEOE_VSA-4>
11.908636

>  <PEOE_VSA-5>
19.249496

>  <PEOE_VSA-6>
0

>  <PEOE_VSA_FHYD>
0.84159368

>  <PEOE_VSA_FNEG>
0.52622133

>  <PEOE_VSA_FPNEG>
0.11189995

>  <PEOE_VSA_FPOL>
0.15840632

>  <PEOE_VSA_FPOS>
0.47377869

>  <PEOE_VSA_FPPOS>
0.046506375

>  <PEOE_VSA_HYD>
234.3387

>  <PEOE_VSA_NEG>
146.52441

>  <PEOE_VSA_PNEG>
31.158133

>  <PEOE_VSA_POL>
44.107662

>  <PEOE_VSA_POS>
131.92195

>  <PEOE_VSA_PPOS>
12.949531

>  <petitjean>
0.5

>  <petitjeanSC>
1

>  <Q_PC+>
0

>  <Q_PC->
0

>  <Q_RPC+>
0

>  <Q_RPC->
0

>  <Q_VSA_FHYD>
1

>  <Q_VSA_FNEG>
0

>  <Q_VSA_FPNEG>
0

>  <Q_VSA_FPOL>
0

>  <Q_VSA_FPOS>
1

>  <Q_VSA_FPPOS>
0

>  <Q_VSA_HYD>
278.44635

>  <Q_VSA_NEG>
0

>  <Q_VSA_PNEG>
0

>  <Q_VSA_POL>
0

>  <Q_VSA_POS>
278.44635

>  <Q_VSA_PPOS>
0

>  <radius>
4

>  <reactive>
0

>  <rings>
3

>  <RPC+>
0

>  <RPC->
0

>  <rsynth>
1

>  <SlogP>
3.2929001

>  <SlogP_VSA0>
3.1243138

>  <SlogP_VSA1>
8.0155315

>  <SlogP_VSA2>
32.983234

>  <SlogP_VSA3>
18.439579

>  <SlogP_VSA4>
6.37115

>  <SlogP_VSA5>
49.682716

>  <SlogP_VSA6>
3.5006065

>  <SlogP_VSA7>
123.50229

>  <SlogP_VSA8>
0

>  <SlogP_VSA9>
56.865505

>  <SMR>
8.1767998

>  <SMR_VSA0>
23.862217

>  <SMR_VSA1>
31.745644

>  <SMR_VSA2>
12.245332

>  <SMR_VSA3>
9.8717566

>  <SMR_VSA4>
2.7567475

>  <SMR_VSA5>
123.50229

>  <SMR_VSA6>
26.455109

>  <SMR_VSA7>
72.04583

>  <TPSA>
32.669998

>  <VAdjEq>
0.48250595

>  <VAdjMa>
5.523562

>  <VDistEq>
2.8474295

>  <VDistMa>
8.538784

>  <vdw_area>
278.44635

>  <vdw_vol>
375.29626

>  <vsa_acc>
19.249496

>  <vsa_acid>
0

>  <vsa_base>
0

>  <vsa_don>
0

>  <vsa_hyd>
231.00624

>  <vsa_other>
19.649082

>  <vsa_pol>
19.249496

>  <Weight>
302.73599

>  <weinerPath>
819

>  <weinerPol>
39

>  <zagreb>
112

$$$$