OC1(CCC2C3C(C4C(CC3)=CCCC4)CCC12C)CC=C
  MOE2013           2D

 22 25  0  0  1  0  0  0  0  0999 V2000
    0.0000    0.0000    0.0000 O   0  0  0  0  0  0  0  0  0  0  0  0
   -0.4480    1.4310    0.0000 C   0  0  3  0  0  0  0  0  0  0  0  0
   -0.2500    2.9180    0.0000 C   0  0  0  0  0  0  0  0  0  0  0  0
   -1.6030    3.5660    0.0000 C   0  0  0  0  0  0  0  0  0  0  0  0
   -2.6370    2.4800    0.0000 C   0  0  3  0  0  0  0  0  0  0  0  0
   -4.1370    2.5220    0.0000 C   0  0  3  0  0  0  0  0  0  0  0  0
   -4.9230    1.2450    0.0000 C   0  0  3  0  0  0  0  0  0  0  0  0
   -6.4220    1.2870    0.0000 C   0  0  3  0  0  0  0  0  0  0  0  0
   -7.1350    2.6060    0.0000 C   0  0  0  0  0  0  0  0  0  0  0  0
   -6.3490    3.8840    0.0000 C   0  0  0  0  0  0  0  0  0  0  0  0
   -4.8500    3.8420    0.0000 C   0  0  0  0  0  0  0  0  0  0  0  0
   -8.6350    2.6480    0.0000 C   0  0  0  0  0  0  0  0  0  0  0  0
   -9.4210    1.3710    0.0000 C   0  0  0  0  0  0  0  0  0  0  0  0
   -8.7080    0.0510    0.0000 C   0  0  0  0  0  0  0  0  0  0  0  0
   -7.2080    0.0090    0.0000 C   0  0  0  0  0  0  0  0  0  0  0  0
   -4.2090   -0.0750    0.0000 C   0  0  0  0  0  0  0  0  0  0  0  0
   -2.7100   -0.1170    0.0000 C   0  0  0  0  0  0  0  0  0  0  0  0
   -1.9240    1.1610    0.0000 C   0  0  3  0  0  0  0  0  0  0  0  0
   -1.0980   -0.0920    0.0000 C   0  0  0  0  0  0  0  0  0  0  0  0
    1.0260    1.1550    0.0000 C   0  0  0  0  0  0  0  0  0  0  0  0
    2.0020    2.2940    0.0000 C   0  0  0  0  0  0  0  0  0  0  0  0
    3.4770    2.0180    0.0000 C   0  0  0  0  0  0  0  0  0  0  0  0
  1  2  1  0  0  0  0
  2  3  1  0  0  0  0
  2 18  1  0  0  0  0
  2 20  1  0  0  0  0
  3  4  1  0  0  0  0
  4  5  1  0  0  0  0
  5  6  1  0  0  0  0
  5 18  1  0  0  0  0
  6  7  1  0  0  0  0
  6 11  1  0  0  0  0
  7  8  1  0  0  0  0
  7 16  1  0  0  0  0
  8  9  1  0  0  0  0
  8 15  1  0  0  0  0
  9 10  1  0  0  0  0
  9 12  2  0  0  0  0
 10 11  1  0  0  0  0
 12 13  1  0  0  0  0
 13 14  1  0  0  0  0
 14 15  1  0  0  0  0
 16 17  1  0  0  0  0
 17 18  1  0  0  0  0
 18 19  1  0  0  0  0
 20 21  1  0  0  0  0
 21 22  2  0  0  0  0
M  END
>  <Index>
48

>  <ID>
HT0107

>  <class>
0

>  <apol>
59.099377

>  <ast_fraglike>
0

>  <ast_fraglike_ext>
0

>  <ast_violation>
2

>  <ast_violation_ext>
2

>  <a_acc>
1

>  <a_acid>
0

>  <a_aro>
0

>  <a_base>
0

>  <a_count>
54

>  <a_don>
1

>  <a_donacc>
2

>  <a_heavy>
22

>  <a_hyd>
21

>  <a_IC>
58.525261

>  <a_ICM>
1.0838012

>  <a_nB>
0

>  <a_nBr>
0

>  <a_nC>
21

>  <a_nCl>
0

>  <a_nF>
0

>  <a_nH>
32

>  <a_nI>
0

>  <a_nN>
0

>  <a_nO>
1

>  <a_nP>
0

>  <a_nS>
0

>  <balabanJ>
1.582684

>  <BCUT_PEOE_0>
-2.9387085

>  <BCUT_PEOE_1>
-0.52740645

>  <BCUT_PEOE_2>
0.56696939

>  <BCUT_PEOE_3>
2.9625087

>  <BCUT_SLOGP_0>
-2.8591108

>  <BCUT_SLOGP_1>
-0.45596284

>  <BCUT_SLOGP_2>
0.64059013

>  <BCUT_SLOGP_3>
3.0367932

>  <BCUT_SMR_0>
-2.6822019

>  <BCUT_SMR_1>
-0.40533653

>  <BCUT_SMR_2>
0.69130439

>  <BCUT_SMR_3>
3.2145936

>  <bpol>
34.982624

>  <b_1rotN>
2

>  <b_1rotR>
0.079999998

>  <b_ar>
0

>  <b_count>
57

>  <b_double>
2

>  <b_heavy>
25

>  <b_max1len>
5

>  <b_rotN>
2

>  <b_rotR>
0.079999998

>  <b_single>
55

>  <b_triple>
0

>  <chi0>
15.372033

>  <chi0v>
14.189489

>  <chi0v_C>
13.742276

>  <chi0_C>
14.372033

>  <chi1>
10.589265

>  <chi1v>
9.6115837

>  <chi1v_C>
9.3879766

>  <chi1_C>
10.089265

>  <chiral>
6

>  <chiral_u>
6

>  <density>
0.64200473

>  <diameter>
11

>  <FCharge>
0

>  <GCUT_PEOE_0>
-0.80187225

>  <GCUT_PEOE_1>
-0.3818728

>  <GCUT_PEOE_2>
0.031517427

>  <GCUT_PEOE_3>
3.2958021

>  <GCUT_SLOGP_0>
-0.88383275

>  <GCUT_SLOGP_1>
-0.28375071

>  <GCUT_SLOGP_2>
0.11391661

>  <GCUT_SLOGP_3>
3.3904672

>  <GCUT_SMR_0>
-0.53830892

>  <GCUT_SMR_1>
-0.21221668

>  <GCUT_SMR_2>
0.13411279

>  <GCUT_SMR_3>
3.5230758

>  <Kier1>
15.5232

>  <Kier2>
5.5226827

>  <Kier3>
2.1832807

>  <KierA1>
14.414984

>  <KierA2>
5.1095028

>  <KierA3>
2.0145397

>  <KierFlex>
3.3478818

>  <lip_acc>
1

>  <lip_don>
1

>  <lip_druglike>
1

>  <lip_violation>
1

>  <logP(o/w)>
4.4489999

>  <logS>
-5.45122

>  <mr>
9.0784588

>  <mutagenic>
0

>  <nmol>
1

>  <opr_brigid>
21

>  <opr_leadlike>
1

>  <opr_nring>
4

>  <opr_nrot>
2

>  <opr_violation>
1

>  <PC+>
0

>  <PC->
0

>  <PEOE_PC+>
1.2769681

>  <PEOE_PC->
-1.2769681

>  <PEOE_RPC+>
0.16460511

>  <PEOE_RPC->
0.30362612

>  <PEOE_VSA+0>
115.16542

>  <PEOE_VSA+1>
17.061544

>  <PEOE_VSA+2>
0

>  <PEOE_VSA+3>
0

>  <PEOE_VSA+4>
10.324173

>  <PEOE_VSA+5>
0

>  <PEOE_VSA+6>
0

>  <PEOE_VSA-0>
87.01313

>  <PEOE_VSA-1>
45.466026

>  <PEOE_VSA-2>
22.301268

>  <PEOE_VSA-3>
0

>  <PEOE_VSA-4>
0

>  <PEOE_VSA-5>
0

>  <PEOE_VSA-6>
7.7675405

>  <PEOE_VSA_FHYD>
0.9407022

>  <PEOE_VSA_FNEG>
0.53277105

>  <PEOE_VSA_FPNEG>
0.025459073

>  <PEOE_VSA_FPOL>
0.059297822

>  <PEOE_VSA_FPOS>
0.46722898

>  <PEOE_VSA_FPPOS>
0.033838753

>  <PEOE_VSA_HYD>
287.00739

>  <PEOE_VSA_NEG>
162.54797

>  <PEOE_VSA_PNEG>
7.7675405

>  <PEOE_VSA_POL>
18.091713

>  <PEOE_VSA_POS>
142.55113

>  <PEOE_VSA_PPOS>
10.324173

>  <petitjean>
0.45454547

>  <petitjeanSC>
0.83333331

>  <Q_PC+>
0

>  <Q_PC->
0

>  <Q_RPC+>
0

>  <Q_RPC->
0

>  <Q_VSA_FHYD>
1

>  <Q_VSA_FNEG>
0

>  <Q_VSA_FPNEG>
0

>  <Q_VSA_FPOL>
0

>  <Q_VSA_FPOS>
1

>  <Q_VSA_FPPOS>
0

>  <Q_VSA_HYD>
305.09909

>  <Q_VSA_NEG>
0

>  <Q_VSA_PNEG>
0

>  <Q_VSA_POL>
0

>  <Q_VSA_POS>
305.09909

>  <Q_VSA_PPOS>
0

>  <radius>
6

>  <reactive>
0

>  <rings>
4

>  <RPC+>
0

>  <RPC->
0

>  <rsynth>
0

>  <SlogP>
5.2564001

>  <SlogP_VSA0>
25.385227

>  <SlogP_VSA1>
0

>  <SlogP_VSA2>
0

>  <SlogP_VSA3>
0

>  <SlogP_VSA4>
17.643185

>  <SlogP_VSA5>
3.185575

>  <SlogP_VSA6>
0

>  <SlogP_VSA7>
35.286369

>  <SlogP_VSA8>
188.68405

>  <SlogP_VSA9>
65.426811

>  <SMR>
9.1466799

>  <SMR_VSA0>
0

>  <SMR_VSA1>
25.385227

>  <SMR_VSA2>
17.643185

>  <SMR_VSA3>
3.185575

>  <SMR_VSA4>
0

>  <SMR_VSA5>
223.97043

>  <SMR_VSA6>
0

>  <SMR_VSA7>
65.426811

>  <TPSA>
20.23

>  <VAdjEq>
0.47938794

>  <VAdjMa>
5.643856

>  <VDistEq>
3.0661509

>  <VDistMa>
8.6351748

>  <vdw_area>
305.09909

>  <vdw_vol>
468.0433

>  <vsa_acc>
0

>  <vsa_acid>
0

>  <vsa_base>
0

>  <vsa_don>
0

>  <vsa_hyd>
259.56152

>  <vsa_other>
0

>  <vsa_pol>
13.566921

>  <Weight>
300.48599

>  <weinerPath>
941

>  <weinerPol>
45

>  <zagreb>
128

$$$$