O=C1NC(=Nc2ncc(nc12)CNc1ccc(cc1)C(=O)N[C@@H](CCC(O)=O)C(O)=O)N
  MOE2013           2D

 32 34  0  0  1  0  0  0  0  0999 V2000
    0.0000    0.0000    0.0000 O   0  0  0  0  0  0  0  0  0  0  0  0
    0.0130   -1.5000    0.0000 C   0  0  0  0  0  0  0  0  0  0  0  0
    1.3180   -2.2390    0.0000 N   0  0  0  0  0  0  0  0  0  0  0  0
    1.3310   -3.7390    0.0000 C   0  0  0  0  0  0  0  0  0  0  0  0
    0.0390   -4.5000    0.0000 N   0  0  0  0  0  0  0  0  0  0  0  0
   -1.2670   -3.7610    0.0000 C   0  0  0  0  0  0  0  0  0  0  0  0
   -2.5590   -4.5220    0.0000 N   0  0  0  0  0  0  0  0  0  0  0  0
   -3.8650   -3.7830    0.0000 C   0  0  0  0  0  0  0  0  0  0  0  0
   -3.8780   -2.2830    0.0000 C   0  0  0  0  0  0  0  0  0  0  0  0
   -2.5850   -1.5220    0.0000 N   0  0  0  0  0  0  0  0  0  0  0  0
   -1.2800   -2.2610    0.0000 C   0  0  0  0  0  0  0  0  0  0  0  0
   -5.1830   -1.5450    0.0000 C   0  0  0  0  0  0  0  0  0  0  0  0
   -6.4760   -2.3060    0.0000 N   0  0  0  0  0  0  0  0  0  0  0  0
   -7.7810   -1.5670    0.0000 C   0  0  0  0  0  0  0  0  0  0  0  0
   -9.0740   -2.3280    0.0000 C   0  0  0  0  0  0  0  0  0  0  0  0
  -10.3790   -1.5890    0.0000 C   0  0  0  0  0  0  0  0  0  0  0  0
  -10.3920   -0.0890    0.0000 C   0  0  0  0  0  0  0  0  0  0  0  0
   -9.0990    0.6720    0.0000 C   0  0  0  0  0  0  0  0  0  0  0  0
   -7.7940   -0.0670    0.0000 C   0  0  0  0  0  0  0  0  0  0  0  0
  -11.6970    0.6500    0.0000 C   0  0  0  0  0  0  0  0  0  0  0  0
  -11.7100    2.1500    0.0000 O   0  0  0  0  0  0  0  0  0  0  0  0
  -12.9900   -0.1110    0.0000 N   0  0  0  0  0  0  0  0  0  0  0  0
  -14.2950    0.6270    0.0000 C   0  0  1  0  0  0  0  0  0  0  0  0
  -14.3080    2.1270    0.0000 C   0  0  0  0  0  0  0  0  0  0  0  0
  -15.6140    2.8660    0.0000 C   0  0  0  0  0  0  0  0  0  0  0  0
  -15.6260    4.3660    0.0000 C   0  0  0  0  0  0  0  0  0  0  0  0
  -16.9320    5.1050    0.0000 O   0  0  0  0  0  0  0  0  0  0  0  0
  -14.3340    5.1270    0.0000 O   0  0  0  0  0  0  0  0  0  0  0  0
  -15.5880   -0.1340    0.0000 C   0  0  0  0  0  0  0  0  0  0  0  0
  -16.8930    0.6050    0.0000 O   0  0  0  0  0  0  0  0  0  0  0  0
  -15.5750   -1.6340    0.0000 O   0  0  0  0  0  0  0  0  0  0  0  0
    2.6370   -4.4780    0.0000 N   0  0  0  0  0  0  0  0  0  0  0  0
  1  2  2  0  0  0  0
  2  3  1  0  0  0  0
  2 11  1  0  0  0  0
  3  4  1  0  0  0  0
  4  5  2  0  0  0  0
  4 32  1  0  0  0  0
  5  6  1  0  0  0  0
  6  7  2  0  0  0  0
  6 11  1  0  0  0  0
  7  8  1  0  0  0  0
  8  9  2  0  0  0  0
  9 10  1  0  0  0  0
  9 12  1  0  0  0  0
 10 11  2  0  0  0  0
 12 13  1  0  0  0  0
 13 14  1  0  0  0  0
 14 15  1  0  0  0  0
 14 19  2  0  0  0  0
 15 16  2  0  0  0  0
 16 17  1  0  0  0  0
 17 18  2  0  0  0  0
 17 20  1  0  0  0  0
 18 19  1  0  0  0  0
 20 21  2  0  0  0  0
 20 22  1  0  0  0  0
 23 22  1  6  0  0  0
 23 24  1  0  0  0  0
 23 29  1  0  0  0  0
 24 25  1  0  0  0  0
 25 26  1  0  0  0  0
 26 27  1  0  0  0  0
 26 28  2  0  0  0  0
 29 30  1  0  0  0  0
 29 31  2  0  0  0  0
M  END
>  <Index>
456

>  <ID>
HT0928

>  <class>
0

>  <apol>
58.621067

>  <ast_fraglike>
0

>  <ast_fraglike_ext>
0

>  <ast_violation>
3

>  <ast_violation_ext>
5

>  <a_acc>
9

>  <a_acid>
0

>  <a_aro>
12

>  <a_base>
0

>  <a_count>
51

>  <a_don>
8

>  <a_donacc>
17

>  <a_heavy>
32

>  <a_hyd>
13

>  <a_IC>
92.711189

>  <a_ICM>
1.8178664

>  <a_nB>
0

>  <a_nBr>
0

>  <a_nC>
19

>  <a_nCl>
0

>  <a_nF>
0

>  <a_nH>
19

>  <a_nI>
0

>  <a_nN>
7

>  <a_nO>
6

>  <a_nP>
0

>  <a_nS>
0

>  <balabanJ>
1.3585092

>  <BCUT_PEOE_0>
-2.5364006

>  <BCUT_PEOE_1>
-0.64237922

>  <BCUT_PEOE_2>
0.62289441

>  <BCUT_PEOE_3>
2.5976453

>  <BCUT_SLOGP_0>
-2.7051673

>  <BCUT_SLOGP_1>
-0.58074826

>  <BCUT_SLOGP_2>
0.65904099

>  <BCUT_SLOGP_3>
2.545783

>  <BCUT_SMR_0>
-2.3082786

>  <BCUT_SMR_1>
-0.42394635

>  <BCUT_SMR_2>
0.818156

>  <BCUT_SMR_3>
2.8206985

>  <bpol>
29.882933

>  <b_1rotN>
9

>  <b_1rotR>
0.2647059

>  <b_ar>
12

>  <b_count>
53

>  <b_double>
5

>  <b_heavy>
34

>  <b_max1len>
5

>  <b_rotN>
10

>  <b_rotR>
0.29411766

>  <b_single>
36

>  <b_triple>
0

>  <chi0>
23.250347

>  <chi0v>
16.531834

>  <chi0v_C>
10.585422

>  <chi0_C>
12.007708

>  <chi1>
15.223254

>  <chi1v>
9.334919

>  <chi1v_C>
4.7640724

>  <chi1_C>
6.0993195

>  <chiral>
1

>  <chiral_u>
0

>  <density>
0.8385278

>  <diameter>
19

>  <FCharge>
0

>  <GCUT_PEOE_0>
-0.82661998

>  <GCUT_PEOE_1>
-0.49047202

>  <GCUT_PEOE_2>
0.10065842

>  <GCUT_PEOE_3>
2.5359912

>  <GCUT_SLOGP_0>
-1.3710402

>  <GCUT_SLOGP_1>
-0.42563128

>  <GCUT_SLOGP_2>
0.16246964

>  <GCUT_SLOGP_3>
2.5615771

>  <GCUT_SMR_0>
-0.51216185

>  <GCUT_SMR_1>
-0.2403

>  <GCUT_SMR_2>
0.2380691

>  <GCUT_SMR_3>
2.8062141

>  <Kier1>
26.602076

>  <Kier2>
12.63015

>  <Kier3>
8.0332413

>  <KierA1>
18.008688

>  <KierA2>
8.4332123

>  <KierA3>
5.3118439

>  <KierFlex>
4.7459712

>  <lip_acc>
13

>  <lip_don>
7

>  <lip_druglike>
0

>  <lip_violation>
2

>  <logP(o/w)>
-0.97246999

>  <logS>
-2.0253401

>  <mr>
10.950717

>  <mutagenic>
0

>  <nmol>
1

>  <opr_brigid>
17

>  <opr_leadlike>
0

>  <opr_nring>
3

>  <opr_nrot>
9

>  <opr_violation>
2

>  <PC+>
0

>  <PC->
0

>  <PEOE_PC+>
3.8671057

>  <PEOE_PC->
-3.8671057

>  <PEOE_RPC+>
0.072973758

>  <PEOE_RPC->
0.095498875

>  <PEOE_VSA+0>
56.394047

>  <PEOE_VSA+1>
49.037785

>  <PEOE_VSA+2>
11.764974

>  <PEOE_VSA+3>
52.366165

>  <PEOE_VSA+4>
36.329918

>  <PEOE_VSA+5>
55.316059

>  <PEOE_VSA+6>
0

>  <PEOE_VSA-0>
57.720928

>  <PEOE_VSA-1>
0

>  <PEOE_VSA-2>
0

>  <PEOE_VSA-3>
5.6825762

>  <PEOE_VSA-4>
11.365152

>  <PEOE_VSA-5>
54.541466

>  <PEOE_VSA-6>
22.323092

>  <PEOE_VSA_FHYD>
0.56429911

>  <PEOE_VSA_FNEG>
0.367291

>  <PEOE_VSA_FPNEG>
0.21371293

>  <PEOE_VSA_FPOL>
0.43570086

>  <PEOE_VSA_FPOS>
0.63270897

>  <PEOE_VSA_FPPOS>
0.22198793

>  <PEOE_VSA_HYD>
232.96648

>  <PEOE_VSA_NEG>
151.63321

>  <PEOE_VSA_PNEG>
88.229706

>  <PEOE_VSA_POL>
179.87569

>  <PEOE_VSA_POS>
261.20895

>  <PEOE_VSA_PPOS>
91.645981

>  <petitjean>
0.47368422

>  <petitjeanSC>
0.89999998

>  <Q_PC+>
0

>  <Q_PC->
0

>  <Q_RPC+>
0

>  <Q_RPC->
0

>  <Q_VSA_FHYD>
1

>  <Q_VSA_FNEG>
0

>  <Q_VSA_FPNEG>
0

>  <Q_VSA_FPOL>
0

>  <Q_VSA_FPOS>
1

>  <Q_VSA_FPPOS>
0

>  <Q_VSA_HYD>
412.84216

>  <Q_VSA_NEG>
0

>  <Q_VSA_PNEG>
0

>  <Q_VSA_POL>
0

>  <Q_VSA_POS>
412.84216

>  <Q_VSA_PPOS>
0

>  <radius>
10

>  <reactive>
0

>  <rings>
3

>  <RPC+>
0

>  <RPC->
0

>  <rsynth>
1

>  <SlogP>
0.092500001

>  <SlogP_VSA0>
68.918686

>  <SlogP_VSA1>
79.489395

>  <SlogP_VSA2>
51.706402

>  <SlogP_VSA3>
50.770454

>  <SlogP_VSA4>
56.423504

>  <SlogP_VSA5>
16.78553

>  <SlogP_VSA6>
0

>  <SlogP_VSA7>
87.787094

>  <SlogP_VSA8>
37.736813

>  <SlogP_VSA9>
23.524246

>  <SMR>
11.05141

>  <SMR_VSA0>
95.448868

>  <SMR_VSA1>
50.35659

>  <SMR_VSA2>
86.791954

>  <SMR_VSA3>
12.681039

>  <SMR_VSA4>
55.992607

>  <SMR_VSA5>
143.96349

>  <SMR_VSA6>
27.907589

>  <SMR_VSA7>
0

>  <TPSA>
208.99001

>  <VAdjEq>
0.35236704

>  <VAdjMa>
6.0874629

>  <VDistEq>
4.0232964

>  <VDistMa>
9.6594086

>  <vdw_area>
412.84216

>  <vdw_vol>
526.40356

>  <vsa_acc>
44.181568

>  <vsa_acid>
0

>  <vsa_base>
0

>  <vsa_don>
34.790218

>  <vsa_hyd>
164.45673

>  <vsa_other>
82.188194

>  <vsa_pol>
133.23947

>  <Weight>
441.40399

>  <weinerPath>
3626

>  <weinerPol>
48

>  <zagreb>
162

$$$$