FC12C(C3CC(C)C(O)(C(=O)COC(=O)C(C)(C)C)C3(CC1O)C)CC(F)C1=CC(=O)C=CC12C
  MOE2013           2D

 35 38  0  0  1  0  0  0  0  0999 V2000
    0.0000    0.0000    0.0000 F   0  0  0  0  0  0  0  0  0  0  0  0
   -1.5000   -0.0020    0.0000 C   0  0  3  0  0  0  0  0  0  0  0  0
   -0.7480   -1.3000    0.0000 C   0  0  3  0  0  0  0  0  0  0  0  0
    0.7520   -1.2980    0.0000 C   0  0  3  0  0  0  0  0  0  0  0  0
    1.7570   -2.4110    0.0000 C   0  0  0  0  0  0  0  0  0  0  0  0
    3.1260   -1.7990    0.0000 C   0  0  3  0  0  0  0  0  0  0  0  0
    4.4270   -2.5480    0.0000 C   0  0  0  0  0  0  0  0  0  0  0  0
    2.9680   -0.3080    0.0000 C   0  0  3  0  0  0  0  0  0  0  0  0
    3.4540    1.1110    0.0000 O   0  0  0  0  0  0  0  0  0  0  0  0
    4.4490   -0.0710    0.0000 C   0  0  0  0  0  0  0  0  0  0  0  0
    5.3940   -1.2360    0.0000 O   0  0  0  0  0  0  0  0  0  0  0  0
    4.9850    1.3300    0.0000 C   0  0  0  0  0  0  0  0  0  0  0  0
    6.4660    1.5670    0.0000 O   0  0  0  0  0  0  0  0  0  0  0  0
    7.0010    2.9680    0.0000 C   0  0  0  0  0  0  0  0  0  0  0  0
    6.0560    4.1320    0.0000 O   0  0  0  0  0  0  0  0  0  0  0  0
    8.4830    3.2040    0.0000 C   0  0  0  0  0  0  0  0  0  0  0  0
    9.9640    3.4410    0.0000 C   0  0  0  0  0  0  0  0  0  0  0  0
    8.2460    4.6860    0.0000 C   0  0  0  0  0  0  0  0  0  0  0  0
    8.7190    1.7230    0.0000 C   0  0  0  0  0  0  0  0  0  0  0  0
    1.5000    0.0020    0.0000 C   0  0  3  0  0  0  0  0  0  0  0  0
    0.7480    1.3000    0.0000 C   0  0  0  0  0  0  0  0  0  0  0  0
   -0.7520    1.2980    0.0000 C   0  0  3  0  0  0  0  0  0  0  0  0
   -1.5040    2.5960    0.0000 O   0  0  0  0  0  0  0  0  0  0  0  0
    2.3590    1.2320    0.0000 C   0  0  0  0  0  0  0  0  0  0  0  0
   -1.4960   -2.6000    0.0000 C   0  0  0  0  0  0  0  0  0  0  0  0
   -2.9960   -2.6020    0.0000 C   0  0  3  0  0  0  0  0  0  0  0  0
   -3.7450   -3.9020    0.0000 F   0  0  0  0  0  0  0  0  0  0  0  0
   -3.7480   -1.3040    0.0000 C   0  0  0  0  0  0  0  0  0  0  0  0
   -5.2480   -1.3060    0.0000 C   0  0  0  0  0  0  0  0  0  0  0  0
   -6.0000   -0.0080    0.0000 C   0  0  0  0  0  0  0  0  0  0  0  0
   -7.5000   -0.0100    0.0000 O   0  0  0  0  0  0  0  0  0  0  0  0
   -5.2520    1.2920    0.0000 C   0  0  0  0  0  0  0  0  0  0  0  0
   -3.7520    1.2940    0.0000 C   0  0  0  0  0  0  0  0  0  0  0  0
   -3.0000   -0.0040    0.0000 C   0  0  3  0  0  0  0  0  0  0  0  0
   -2.2520    1.2960    0.0000 C   0  0  0  0  0  0  0  0  0  0  0  0
  1  2  1  0  0  0  0
  2  3  1  0  0  0  0
  2 22  1  0  0  0  0
  2 34  1  0  0  0  0
  3  4  1  0  0  0  0
  3 25  1  0  0  0  0
  4  5  1  0  0  0  0
  4 20  1  0  0  0  0
  5  6  1  0  0  0  0
  6  7  1  0  0  0  0
  6  8  1  0  0  0  0
  8  9  1  0  0  0  0
  8 10  1  0  0  0  0
  8 20  1  0  0  0  0
 10 11  2  0  0  0  0
 10 12  1  0  0  0  0
 12 13  1  0  0  0  0
 13 14  1  0  0  0  0
 14 15  2  0  0  0  0
 14 16  1  0  0  0  0
 16 17  1  0  0  0  0
 16 18  1  0  0  0  0
 16 19  1  0  0  0  0
 20 21  1  0  0  0  0
 20 24  1  0  0  0  0
 21 22  1  0  0  0  0
 22 23  1  0  0  0  0
 25 26  1  0  0  0  0
 26 27  1  0  0  0  0
 26 28  1  0  0  0  0
 28 29  2  0  0  0  0
 28 34  1  0  0  0  0
 29 30  1  0  0  0  0
 30 31  2  0  0  0  0
 30 32  1  0  0  0  0
 32 33  2  0  0  0  0
 33 34  1  0  0  0  0
 34 35  1  0  0  0  0
M  END
>  <Index>
442

>  <ID>
HT0899

>  <class>
0

>  <apol>
77.450546

>  <ast_fraglike>
0

>  <ast_fraglike_ext>
0

>  <ast_violation>
3

>  <ast_violation_ext>
5

>  <a_acc>
5

>  <a_acid>
0

>  <a_aro>
0

>  <a_base>
0

>  <a_count>
71

>  <a_don>
2

>  <a_donacc>
7

>  <a_heavy>
35

>  <a_hyd>
26

>  <a_IC>
104.62301

>  <a_ICM>
1.4735634

>  <a_nB>
0

>  <a_nBr>
0

>  <a_nC>
27

>  <a_nCl>
0

>  <a_nF>
2

>  <a_nH>
36

>  <a_nI>
0

>  <a_nN>
0

>  <a_nO>
6

>  <a_nP>
0

>  <a_nS>
0

>  <balabanJ>
1.6705465

>  <BCUT_PEOE_0>
-2.890944

>  <BCUT_PEOE_1>
-0.45426649

>  <BCUT_PEOE_2>
0.34327787

>  <BCUT_PEOE_3>
3.0044193

>  <BCUT_SLOGP_0>
-2.9306364

>  <BCUT_SLOGP_1>
-0.36390296

>  <BCUT_SLOGP_2>
0.43360049

>  <BCUT_SLOGP_3>
2.990947

>  <BCUT_SMR_0>
-2.6710286

>  <BCUT_SMR_1>
-0.24272464

>  <BCUT_SMR_2>
0.53563631

>  <BCUT_SMR_3>
3.2267509

>  <bpol>
46.551453

>  <b_1rotN>
3

>  <b_1rotR>
0.078947365

>  <b_ar>
0

>  <b_count>
74

>  <b_double>
5

>  <b_heavy>
38

>  <b_max1len>
5

>  <b_rotN>
5

>  <b_rotR>
0.13157895

>  <b_single>
69

>  <b_triple>
0

>  <chi0>
26.353006

>  <chi0v>
21.230579

>  <chi0v_C>
17.947229

>  <chi0_C>
18.645901

>  <chi1>
15.941084

>  <chi1v>
12.334619

>  <chi1v_C>
10.340442

>  <chi1_C>
11.146084

>  <chiral>
9

>  <chiral_u>
9

>  <density>
0.7684235

>  <diameter>
15

>  <FCharge>
0

>  <GCUT_PEOE_0>
-0.78958988

>  <GCUT_PEOE_1>
-0.37249291

>  <GCUT_PEOE_2>
-0.031805102

>  <GCUT_PEOE_3>
3.4247575

>  <GCUT_SLOGP_0>
-0.94447434

>  <GCUT_SLOGP_1>
-0.2972227

>  <GCUT_SLOGP_2>
3.6455855e-005

>  <GCUT_SLOGP_3>
3.4356747

>  <GCUT_SMR_0>
-0.53789502

>  <GCUT_SMR_1>
-0.19212919

>  <GCUT_SMR_2>
0.10833603

>  <GCUT_SMR_3>
3.6366484

>  <Kier1>
28.01939

>  <Kier2>
8.7635508

>  <Kier3>
3.7777777

>  <KierA1>
24.420202

>  <KierA2>
7.6056385

>  <KierA3>
3.2686198

>  <KierFlex>
5.3066068

>  <lip_acc>
6

>  <lip_don>
2

>  <lip_druglike>
1

>  <lip_violation>
0

>  <logP(o/w)>
4.0890002

>  <logS>
-4.5308299

>  <mr>
12.519915

>  <mutagenic>
0

>  <nmol>
1

>  <opr_brigid>
20

>  <opr_leadlike>
1

>  <opr_nring>
4

>  <opr_nrot>
4

>  <opr_violation>
1

>  <PC+>
0

>  <PC->
0

>  <PEOE_PC+>
2.9370949

>  <PEOE_PC->
-2.9370949

>  <PEOE_RPC+>
0.091236591

>  <PEOE_RPC->
0.132301

>  <PEOE_VSA+0>
115.16542

>  <PEOE_VSA+1>
34.76263

>  <PEOE_VSA+2>
20.418549

>  <PEOE_VSA+3>
16.917038

>  <PEOE_VSA+4>
20.648346

>  <PEOE_VSA+5>
14.708499

>  <PEOE_VSA+6>
0

>  <PEOE_VSA-0>
71.569962

>  <PEOE_VSA-1>
105.99329

>  <PEOE_VSA-2>
0

>  <PEOE_VSA-3>
0

>  <PEOE_VSA-4>
23.817272

>  <PEOE_VSA-5>
40.700764

>  <PEOE_VSA-6>
18.038837

>  <PEOE_VSA_FHYD>
0.75574106

>  <PEOE_VSA_FNEG>
0.53884035

>  <PEOE_VSA_FPNEG>
0.17101704

>  <PEOE_VSA_FPOL>
0.24425896

>  <PEOE_VSA_FPOS>
0.46115965

>  <PEOE_VSA_FPPOS>
0.073241912

>  <PEOE_VSA_HYD>
364.8269

>  <PEOE_VSA_NEG>
260.12012

>  <PEOE_VSA_PNEG>
82.55687

>  <PEOE_VSA_POL>
117.91371

>  <PEOE_VSA_POS>
222.62048

>  <PEOE_VSA_PPOS>
35.356846

>  <petitjean>
0.46666667

>  <petitjeanSC>
0.875

>  <Q_PC+>
0

>  <Q_PC->
0

>  <Q_RPC+>
0

>  <Q_RPC->
0

>  <Q_VSA_FHYD>
1

>  <Q_VSA_FNEG>
0

>  <Q_VSA_FPNEG>
0

>  <Q_VSA_FPOL>
0

>  <Q_VSA_FPOS>
1

>  <Q_VSA_FPPOS>
0

>  <Q_VSA_HYD>
482.7406

>  <Q_VSA_NEG>
0

>  <Q_VSA_PNEG>
0

>  <Q_VSA_POL>
0

>  <Q_VSA_POS>
482.7406

>  <Q_VSA_PPOS>
0

>  <radius>
8

>  <reactive>
1

>  <rings>
4

>  <RPC+>
0

>  <RPC->
0

>  <rsynth>
0.42857143

>  <SlogP>
3.4407001

>  <SlogP_VSA0>
50.770454

>  <SlogP_VSA1>
19.120686

>  <SlogP_VSA2>
99.401428

>  <SlogP_VSA3>
20.926258

>  <SlogP_VSA4>
13.232388

>  <SlogP_VSA5>
3.185575

>  <SlogP_VSA6>
0

>  <SlogP_VSA7>
52.929554

>  <SlogP_VSA8>
56.605217

>  <SlogP_VSA9>
229.87631

>  <SMR>
12.35516

>  <SMR_VSA0>
82.58654

>  <SMR_VSA1>
80.690681

>  <SMR_VSA2>
13.232388

>  <SMR_VSA3>
20.000463

>  <SMR_VSA4>
0

>  <SMR_VSA5>
109.53477

>  <SMR_VSA6>
40.046944

>  <SMR_VSA7>
199.95609

>  <TPSA>
100.9

>  <VAdjEq>
0.33549348

>  <VAdjMa>
6.2479277

>  <VDistEq>
3.5730643

>  <VDistMa>
9.9807005

>  <vdw_area>
482.7406

>  <vdw_vol>
643.62292

>  <vsa_acc>
40.700764

>  <vsa_acid>
0

>  <vsa_base>
0

>  <vsa_don>
0

>  <vsa_hyd>
343.49094

>  <vsa_other>
34.129295

>  <vsa_pol>
67.834602

>  <Weight>
494.57498

>  <weinerPath>
3336

>  <weinerPol>
82

>  <zagreb>
206

$$$$