FC(F)(F)c1cc(ccc1)C[C@@H](NCC)C
  MOE2013           2D

 16 16  0  0  1  0  0  0  0  0999 V2000
    0.0000    0.0000    0.0000 F   0  0  0  0  0  0  0  0  0  0  0  0
    0.7430    1.3030    0.0000 C   0  0  0  0  0  0  0  0  0  0  0  0
    1.4850    2.6070    0.0000 F   0  0  0  0  0  0  0  0  0  0  0  0
   -0.5610    2.0460    0.0000 F   0  0  0  0  0  0  0  0  0  0  0  0
    2.0460    0.5610    0.0000 C   0  0  0  0  0  0  0  0  0  0  0  0
    3.3410    1.3180    0.0000 C   0  0  0  0  0  0  0  0  0  0  0  0
    4.6440    0.5750    0.0000 C   0  0  0  0  0  0  0  0  0  0  0  0
    4.6520   -0.9250    0.0000 C   0  0  0  0  0  0  0  0  0  0  0  0
    3.3580   -1.6820    0.0000 C   0  0  0  0  0  0  0  0  0  0  0  0
    2.0540   -0.9390    0.0000 C   0  0  0  0  0  0  0  0  0  0  0  0
    5.9390    1.3330    0.0000 C   0  0  0  0  0  0  0  0  0  0  0  0
    7.2420    0.5900    0.0000 C   0  0  1  0  0  0  0  0  0  0  0  0
    8.5370    1.3480    0.0000 N   0  0  0  0  0  0  0  0  0  0  0  0
    9.8400    0.6050    0.0000 C   0  0  0  0  0  0  0  0  0  0  0  0
   11.1350    1.3620    0.0000 C   0  0  0  0  0  0  0  0  0  0  0  0
    7.2500   -0.9100    0.0000 C   0  0  0  0  0  0  0  0  0  0  0  0
  1  2  1  0  0  0  0
  2  3  1  0  0  0  0
  2  4  1  0  0  0  0
  2  5  1  0  0  0  0
  5  6  2  0  0  0  0
  5 10  1  0  0  0  0
  6  7  1  0  0  0  0
  7  8  2  0  0  0  0
  7 11  1  0  0  0  0
  8  9  1  0  0  0  0
  9 10  2  0  0  0  0
 11 12  1  0  0  0  0
 12 13  1  0  0  0  0
 12 16  1  1  0  0  0
 13 14  1  0  0  0  0
 14 15  1  0  0  0  0
M  END
>  <Index>
423

>  <ID>
HT0858

>  <class>
0

>  <apol>
34.559689

>  <ast_fraglike>
0

>  <ast_fraglike_ext>
0

>  <ast_violation>
1

>  <ast_violation_ext>
2

>  <a_acc>
1

>  <a_acid>
0

>  <a_aro>
6

>  <a_base>
0

>  <a_count>
32

>  <a_don>
1

>  <a_donacc>
2

>  <a_heavy>
16

>  <a_hyd>
15

>  <a_IC>
48.225563

>  <a_ICM>
1.5070488

>  <a_nB>
0

>  <a_nBr>
0

>  <a_nC>
12

>  <a_nCl>
0

>  <a_nF>
3

>  <a_nH>
16

>  <a_nI>
0

>  <a_nN>
1

>  <a_nO>
0

>  <a_nP>
0

>  <a_nS>
0

>  <balabanJ>
2.3983953

>  <BCUT_PEOE_0>
-2.6475723

>  <BCUT_PEOE_1>
-0.38561302

>  <BCUT_PEOE_2>
0.3881312

>  <BCUT_PEOE_3>
2.5637274

>  <BCUT_SLOGP_0>
-2.7607374

>  <BCUT_SLOGP_1>
-0.27556077

>  <BCUT_SLOGP_2>
0.53398067

>  <BCUT_SLOGP_3>
2.5510147

>  <BCUT_SMR_0>
-2.3709493

>  <BCUT_SMR_1>
-0.22666079

>  <BCUT_SMR_2>
0.51291394

>  <BCUT_SMR_3>
2.8343377

>  <bpol>
21.760311

>  <b_1rotN>
4

>  <b_1rotR>
0.25

>  <b_ar>
6

>  <b_count>
32

>  <b_double>
0

>  <b_heavy>
16

>  <b_max1len>
6

>  <b_rotN>
5

>  <b_rotR>
0.3125

>  <b_single>
26

>  <b_triple>
0

>  <chi0>
12.181798

>  <chi0v>
9.4348583

>  <chi0v_C>
7.8009648

>  <chi0_C>
8.4746914

>  <chi1>
7.4308701

>  <chi1v>
5.3268013

>  <chi1v_C>
4.1176257

>  <chi1_C>
5.0226221

>  <chiral>
1

>  <chiral_u>
0

>  <density>
0.76790363

>  <diameter>
9

>  <FCharge>
0

>  <GCUT_PEOE_0>
-0.85099548

>  <GCUT_PEOE_1>
-0.34520048

>  <GCUT_PEOE_2>
0.0070003141

>  <GCUT_PEOE_3>
2.4547694

>  <GCUT_SLOGP_0>
-1.1528993

>  <GCUT_SLOGP_1>
-0.19520533

>  <GCUT_SLOGP_2>
0.21479674

>  <GCUT_SLOGP_3>
2.5263612

>  <GCUT_SMR_0>
-0.51889372

>  <GCUT_SMR_1>
-0.15135905

>  <GCUT_SMR_2>
0.089263454

>  <GCUT_SMR_3>
2.7020729

>  <Kier1>
14.0625

>  <Kier2>
6.0743804

>  <Kier3>
4.8166351

>  <KierA1>
11.589436

>  <KierA2>
4.936523

>  <KierA3>
3.8733642

>  <KierFlex>
3.5757196

>  <lip_acc>
1

>  <lip_don>
1

>  <lip_druglike>
1

>  <lip_violation>
0

>  <logP(o/w)>
3.5497601

>  <logS>
-2.89782

>  <mr>
5.9204245

>  <mutagenic>
0

>  <nmol>
1

>  <opr_brigid>
6

>  <opr_leadlike>
1

>  <opr_nring>
1

>  <opr_nrot>
4

>  <opr_violation>
0

>  <PC+>
0

>  <PC->
0

>  <PEOE_PC+>
1.1941161

>  <PEOE_PC->
-1.1941161

>  <PEOE_RPC+>
0.34957173

>  <PEOE_RPC->
0.26250067

>  <PEOE_VSA+0>
50.065208

>  <PEOE_VSA+1>
19.270084

>  <PEOE_VSA+2>
8.6190128

>  <PEOE_VSA+3>
0

>  <PEOE_VSA+4>
0

>  <PEOE_VSA+5>
0

>  <PEOE_VSA+6>
9.0455017

>  <PEOE_VSA-0>
55.104759

>  <PEOE_VSA-1>
55.51239

>  <PEOE_VSA-2>
0

>  <PEOE_VSA-3>
35.725906

>  <PEOE_VSA-4>
0

>  <PEOE_VSA-5>
0

>  <PEOE_VSA-6>
0.13689101

>  <PEOE_VSA_FHYD>
0.96067154

>  <PEOE_VSA_FNEG>
0.62737751

>  <PEOE_VSA_FPNEG>
0.00058630784

>  <PEOE_VSA_FPOL>
0.039328434

>  <PEOE_VSA_FPOS>
0.37262249

>  <PEOE_VSA_FPPOS>
0.038742125

>  <PEOE_VSA_HYD>
224.29736

>  <PEOE_VSA_NEG>
146.47995

>  <PEOE_VSA_PNEG>
0.13689101

>  <PEOE_VSA_POL>
9.1823931

>  <PEOE_VSA_POS>
86.999802

>  <PEOE_VSA_PPOS>
9.0455017

>  <petitjean>
0.44444445

>  <petitjeanSC>
0.80000001

>  <Q_PC+>
0

>  <Q_PC->
0

>  <Q_RPC+>
0

>  <Q_RPC->
0

>  <Q_VSA_FHYD>
1

>  <Q_VSA_FNEG>
0

>  <Q_VSA_FPNEG>
0

>  <Q_VSA_FPOL>
0

>  <Q_VSA_FPOS>
1

>  <Q_VSA_FPPOS>
0

>  <Q_VSA_HYD>
233.47975

>  <Q_VSA_NEG>
0

>  <Q_VSA_PNEG>
0

>  <Q_VSA_POL>
0

>  <Q_VSA_POS>
233.47975

>  <Q_VSA_PPOS>
0

>  <radius>
5

>  <reactive>
0

>  <rings>
1

>  <RPC+>
0

>  <RPC->
0

>  <rsynth>
0

>  <SlogP>
3.5573699

>  <SlogP_VSA0>
18.01075

>  <SlogP_VSA1>
0

>  <SlogP_VSA2>
3.9819686

>  <SlogP_VSA3>
18.439579

>  <SlogP_VSA4>
6.37115

>  <SlogP_VSA5>
18.868406

>  <SlogP_VSA6>
7.7595162

>  <SlogP_VSA7>
70.572739

>  <SlogP_VSA8>
0

>  <SlogP_VSA9>
111.53237

>  <SMR>
5.8403702

>  <SMR_VSA0>
0

>  <SMR_VSA1>
44.880341

>  <SMR_VSA2>
25.770267

>  <SMR_VSA3>
10.353119

>  <SMR_VSA4>
0

>  <SMR_VSA5>
89.441139

>  <SMR_VSA6>
18.439579

>  <SMR_VSA7>
66.652031

>  <TPSA>
12.03

>  <VAdjEq>
0.54356444

>  <VAdjMa>
5

>  <VDistEq>
2.9915104

>  <VDistMa>
7.6851282

>  <vdw_area>
233.47975

>  <vdw_vol>
301.15887

>  <vsa_acc>
0

>  <vsa_acid>
0

>  <vsa_base>
0

>  <vsa_don>
0

>  <vsa_hyd>
214.04692

>  <vsa_other>
0

>  <vsa_pol>
5.6825762

>  <Weight>
231.26099

>  <weinerPath>
470

>  <weinerPol>
20

>  <zagreb>
76

$$$$