O=C1C(=O)NC(=O)NC1=O
  MOE2013           2D

 10 10  0  0  0  0  0  0  0  0999 V2000
    0.0000    0.0000    0.0000 O   0  0  0  0  0  0  0  0  0  0  0  0
    1.5000    0.0000    0.0000 C   0  0  0  0  0  0  0  0  0  0  0  0
    2.2500   -1.2990    0.0000 C   0  0  0  0  0  0  0  0  0  0  0  0
    1.5000   -2.5980    0.0000 O   0  0  0  0  0  0  0  0  0  0  0  0
    3.7500   -1.2990    0.0000 N   0  0  0  0  0  0  0  0  0  0  0  0
    4.5000    0.0000    0.0000 C   0  0  0  0  0  0  0  0  0  0  0  0
    6.0000    0.0000    0.0000 O   0  0  0  0  0  0  0  0  0  0  0  0
    3.7500    1.2990    0.0000 N   0  0  0  0  0  0  0  0  0  0  0  0
    2.2500    1.2990    0.0000 C   0  0  0  0  0  0  0  0  0  0  0  0
    1.5000    2.5980    0.0000 O   0  0  0  0  0  0  0  0  0  0  0  0
  1  2  2  0  0  0  0
  2  3  1  0  0  0  0
  2  9  1  0  0  0  0
  3  4  2  0  0  0  0
  3  5  1  0  0  0  0
  5  6  1  0  0  0  0
  6  7  2  0  0  0  0
  6  8  1  0  0  0  0
  8  9  1  0  0  0  0
  9 10  2  0  0  0  0
M  END
>  <Index>
47

>  <ID>
HT0104

>  <class>
0

>  <apol>
13.781586

>  <ast_fraglike>
0

>  <ast_fraglike_ext>
0

>  <ast_violation>
1

>  <ast_violation_ext>
2

>  <a_acc>
4

>  <a_acid>
0

>  <a_aro>
0

>  <a_base>
0

>  <a_count>
12

>  <a_don>
2

>  <a_donacc>
6

>  <a_heavy>
10

>  <a_hyd>
0

>  <a_IC>
23.01955

>  <a_ICM>
1.9182959

>  <a_nB>
0

>  <a_nBr>
0

>  <a_nC>
4

>  <a_nCl>
0

>  <a_nF>
0

>  <a_nH>
2

>  <a_nI>
0

>  <a_nN>
2

>  <a_nO>
4

>  <a_nP>
0

>  <a_nS>
0

>  <balabanJ>
2.5383091

>  <BCUT_PEOE_0>
-2.2455697

>  <BCUT_PEOE_1>
-0.54004377

>  <BCUT_PEOE_2>
0.46547952

>  <BCUT_PEOE_3>
2.4013433

>  <BCUT_SLOGP_0>
-2.6956666

>  <BCUT_SLOGP_1>
-0.52490205

>  <BCUT_SLOGP_2>
0.47816849

>  <BCUT_SLOGP_3>
1.9475101

>  <BCUT_SMR_0>
-1.9538554

>  <BCUT_SMR_1>
-0.31163144

>  <BCUT_SMR_2>
0.59108782

>  <BCUT_SMR_3>
2.6624517

>  <bpol>
7.3384142

>  <b_1rotN>
0

>  <b_1rotR>
0

>  <b_ar>
0

>  <b_count>
12

>  <b_double>
4

>  <b_heavy>
10

>  <b_max1len>
1

>  <b_rotN>
0

>  <b_rotR>
0

>  <b_single>
8

>  <b_triple>
0

>  <chi0>
7.7236147

>  <chi0v>
4.6329932

>  <chi0v_C>
2

>  <chi0_C>
2.309401

>  <chi1>
4.6090608

>  <chi1v>
2.3164966

>  <chi1v_C>
0.5

>  <chi1_C>
0.66666669

>  <chiral>
0

>  <chiral_u>
0

>  <density>
1.0523217

>  <diameter>
5

>  <FCharge>
0

>  <GCUT_PEOE_0>
-0.73333418

>  <GCUT_PEOE_1>
-0.49926007

>  <GCUT_PEOE_2>
0.10289921

>  <GCUT_PEOE_3>
1.9145762

>  <GCUT_SLOGP_0>
-1.1839677

>  <GCUT_SLOGP_1>
-0.58943295

>  <GCUT_SLOGP_2>
0.095076457

>  <GCUT_SLOGP_3>
1.5806141

>  <GCUT_SMR_0>
-0.40514889

>  <GCUT_SMR_1>
-0.24707565

>  <GCUT_SMR_2>
0.18049154

>  <GCUT_SMR_3>
2.154969

>  <Kier1>
8.1000004

>  <Kier2>
2.9387755

>  <Kier3>
1.75

>  <KierA1>
4.7081256

>  <KierA2>
1.5883558

>  <KierA3>
0.89005679

>  <KierFlex>
0.74781781

>  <lip_acc>
6

>  <lip_don>
2

>  <lip_druglike>
1

>  <lip_violation>
0

>  <logP(o/w)>
-1.908

>  <logS>
-0.85913998

>  <mr>
2.7783096

>  <mutagenic>
0

>  <nmol>
1

>  <opr_brigid>
6

>  <opr_leadlike>
1

>  <opr_nring>
1

>  <opr_nrot>
0

>  <opr_violation>
0

>  <PC+>
0

>  <PC->
0

>  <PEOE_PC+>
1.5931786

>  <PEOE_PC->
-1.5931786

>  <PEOE_RPC+>
0.2069003

>  <PEOE_RPC->
0.17343102

>  <PEOE_VSA+0>
0

>  <PEOE_VSA+1>
0

>  <PEOE_VSA+2>
0

>  <PEOE_VSA+3>
17.238026

>  <PEOE_VSA+4>
0

>  <PEOE_VSA+5>
0

>  <PEOE_VSA+6>
51.798122

>  <PEOE_VSA-0>
0

>  <PEOE_VSA-1>
0

>  <PEOE_VSA-2>
0

>  <PEOE_VSA-3>
0

>  <PEOE_VSA-4>
13.566921

>  <PEOE_VSA-5>
40.974545

>  <PEOE_VSA-6>
0

>  <PEOE_VSA_FHYD>
0.1394915

>  <PEOE_VSA_FNEG>
0.44135392

>  <PEOE_VSA_FPNEG>
0.44135392

>  <PEOE_VSA_FPOL>
0.8605085

>  <PEOE_VSA_FPOS>
0.55864608

>  <PEOE_VSA_FPPOS>
0.41915458

>  <PEOE_VSA_HYD>
17.238026

>  <PEOE_VSA_NEG>
54.541466

>  <PEOE_VSA_PNEG>
54.541466

>  <PEOE_VSA_POL>
106.33959

>  <PEOE_VSA_POS>
69.036148

>  <PEOE_VSA_PPOS>
51.798122

>  <petitjean>
0.40000001

>  <petitjeanSC>
0.66666669

>  <Q_PC+>
0

>  <Q_PC->
0

>  <Q_RPC+>
0

>  <Q_RPC->
0

>  <Q_VSA_FHYD>
1

>  <Q_VSA_FNEG>
0

>  <Q_VSA_FPNEG>
0

>  <Q_VSA_FPOL>
0

>  <Q_VSA_FPOS>
1

>  <Q_VSA_FPPOS>
0

>  <Q_VSA_HYD>
123.57761

>  <Q_VSA_NEG>
0

>  <Q_VSA_PNEG>
0

>  <Q_VSA_POL>
0

>  <Q_VSA_POS>
123.57761

>  <Q_VSA_PPOS>
0

>  <radius>
3

>  <reactive>
0

>  <rings>
1

>  <RPC+>
0

>  <RPC->
0

>  <rsynth>
1

>  <SlogP>
-2.0785

>  <SlogP_VSA0>
36.0215

>  <SlogP_VSA1>
21.035135

>  <SlogP_VSA2>
71.586647

>  <SlogP_VSA3>
0

>  <SlogP_VSA4>
0

>  <SlogP_VSA5>
0

>  <SlogP_VSA6>
0

>  <SlogP_VSA7>
0

>  <SlogP_VSA8>
0

>  <SlogP_VSA9>
23.862217

>  <SMR>
2.6688399

>  <SMR_VSA0>
95.448868

>  <SMR_VSA1>
0

>  <SMR_VSA2>
36.0215

>  <SMR_VSA3>
0

>  <SMR_VSA4>
0

>  <SMR_VSA5>
0

>  <SMR_VSA6>
21.035135

>  <SMR_VSA7>
0

>  <TPSA>
92.339996

>  <VAdjEq>
0.72192812

>  <VAdjMa>
4.321928

>  <VDistEq>
2.0634208

>  <VDistMa>
6.3502398

>  <vdw_area>
123.57761

>  <vdw_vol>
135.00624

>  <vsa_acc>
54.267685

>  <vsa_acid>
0

>  <vsa_base>
0

>  <vsa_don>
11.365152

>  <vsa_hyd>
0

>  <vsa_other>
51.798122

>  <vsa_pol>
65.632835

>  <Weight>
142.06999

>  <weinerPath>
110

>  <weinerPol>
13

>  <zagreb>
48

$$$$