O(C(OC(=O)NCC1(CCCCC1)CC(O)=O)C)C(=O)C(C)C
  MOE2013           2D

 23 23  0  0  1  0  0  0  0  0999 V2000
    0.0000    0.0000    0.0000 O   0  0  0  0  0  0  0  0  0  0  0  0
   -1.3040    0.7410    0.0000 C   0  0  3  0  0  0  0  0  0  0  0  0
   -2.5980   -0.0180    0.0000 O   0  0  0  0  0  0  0  0  0  0  0  0
   -3.9020    0.7230    0.0000 C   0  0  0  0  0  0  0  0  0  0  0  0
   -3.9130    2.2230    0.0000 O   0  0  0  0  0  0  0  0  0  0  0  0
   -5.1960   -0.0360    0.0000 N   0  0  0  0  0  0  0  0  0  0  0  0
   -6.5000    0.7050    0.0000 C   0  0  0  0  0  0  0  0  0  0  0  0
   -7.7940   -0.0540    0.0000 C   0  0  0  0  0  0  0  0  0  0  0  0
   -7.0350   -1.3480    0.0000 C   0  0  0  0  0  0  0  0  0  0  0  0
   -7.7760   -2.6520    0.0000 C   0  0  0  0  0  0  0  0  0  0  0  0
   -9.2760   -2.6630    0.0000 C   0  0  0  0  0  0  0  0  0  0  0  0
  -10.0350   -1.3690    0.0000 C   0  0  0  0  0  0  0  0  0  0  0  0
   -9.2940   -0.0650    0.0000 C   0  0  0  0  0  0  0  0  0  0  0  0
   -7.8040    1.4460    0.0000 C   0  0  0  0  0  0  0  0  0  0  0  0
   -9.1090    2.1870    0.0000 C   0  0  0  0  0  0  0  0  0  0  0  0
  -10.4020    1.4280    0.0000 O   0  0  0  0  0  0  0  0  0  0  0  0
   -9.1190    3.6870    0.0000 O   0  0  0  0  0  0  0  0  0  0  0  0
   -1.3150    2.2410    0.0000 C   0  0  0  0  0  0  0  0  0  0  0  0
    1.2940    0.7590    0.0000 C   0  0  0  0  0  0  0  0  0  0  0  0
    1.2830    2.2590    0.0000 O   0  0  0  0  0  0  0  0  0  0  0  0
    2.5980    0.0180    0.0000 C   0  0  0  0  0  0  0  0  0  0  0  0
    3.8920    0.7770    0.0000 C   0  0  0  0  0  0  0  0  0  0  0  0
    2.6080   -1.4820    0.0000 C   0  0  0  0  0  0  0  0  0  0  0  0
  1  2  1  0  0  0  0
  1 19  1  0  0  0  0
  2  3  1  0  0  0  0
  2 18  1  0  0  0  0
  3  4  1  0  0  0  0
  4  5  2  0  0  0  0
  4  6  1  0  0  0  0
  6  7  1  0  0  0  0
  7  8  1  0  0  0  0
  8  9  1  0  0  0  0
  8 13  1  0  0  0  0
  8 14  1  0  0  0  0
  9 10  1  0  0  0  0
 10 11  1  0  0  0  0
 11 12  1  0  0  0  0
 12 13  1  0  0  0  0
 14 15  1  0  0  0  0
 15 16  1  0  0  0  0
 15 17  2  0  0  0  0
 19 20  2  0  0  0  0
 19 21  1  0  0  0  0
 21 22  1  0  0  0  0
 21 23  1  0  0  0  0
M  END
>  <Index>
468

>  <ID>
HT0948

>  <class>
0

>  <apol>
52.075413

>  <ast_fraglike>
0

>  <ast_fraglike_ext>
0

>  <ast_violation>
2

>  <ast_violation_ext>
3

>  <a_acc>
4

>  <a_acid>
0

>  <a_aro>
0

>  <a_base>
0

>  <a_count>
50

>  <a_don>
3

>  <a_donacc>
7

>  <a_heavy>
23

>  <a_hyd>
12

>  <a_IC>
74.301071

>  <a_ICM>
1.4860214

>  <a_nB>
0

>  <a_nBr>
0

>  <a_nC>
16

>  <a_nCl>
0

>  <a_nF>
0

>  <a_nH>
27

>  <a_nI>
0

>  <a_nN>
1

>  <a_nO>
6

>  <a_nP>
0

>  <a_nS>
0

>  <balabanJ>
2.4101965

>  <BCUT_PEOE_0>
-2.8388877

>  <BCUT_PEOE_1>
-0.43539685

>  <BCUT_PEOE_2>
0.32280406

>  <BCUT_PEOE_3>
2.8056393

>  <BCUT_SLOGP_0>
-2.7999897

>  <BCUT_SLOGP_1>
-0.35064343

>  <BCUT_SLOGP_2>
0.34202403

>  <BCUT_SLOGP_3>
2.9053307

>  <BCUT_SMR_0>
-2.5907094

>  <BCUT_SMR_1>
-0.19078976

>  <BCUT_SMR_2>
0.44696268

>  <BCUT_SMR_3>
3.0523827

>  <bpol>
36.882587

>  <b_1rotN>
7

>  <b_1rotR>
0.30434781

>  <b_ar>
0

>  <b_count>
50

>  <b_double>
3

>  <b_heavy>
23

>  <b_max1len>
5

>  <b_rotN>
10

>  <b_rotR>
0.43478259

>  <b_single>
47

>  <b_triple>
0

>  <chi0>
17.457819

>  <chi0v>
14.092903

>  <chi0v_C>
11.104448

>  <chi0_C>
11.336499

>  <chi1>
10.738488

>  <chi1v>
8.1076784

>  <chi1v_C>
5.7884927

>  <chi1_C>
5.887846

>  <chiral>
1

>  <chiral_u>
1

>  <density>
0.74771059

>  <diameter>
12

>  <FCharge>
0

>  <GCUT_PEOE_0>
-0.81861401

>  <GCUT_PEOE_1>
-0.43243614

>  <GCUT_PEOE_2>
0.0012919209

>  <GCUT_PEOE_3>
2.7842884

>  <GCUT_SLOGP_0>
-1.1611955

>  <GCUT_SLOGP_1>
-0.30644274

>  <GCUT_SLOGP_2>
0.013331243

>  <GCUT_SLOGP_3>
2.8315759

>  <GCUT_SMR_0>
-0.52920836

>  <GCUT_SMR_1>
-0.2046303

>  <GCUT_SMR_2>
0.095142566

>  <GCUT_SMR_3>
2.9994287

>  <Kier1>
21.043478

>  <Kier2>
10.095734

>  <Kier3>
8.0808077

>  <KierA1>
18.160233

>  <KierA2>
8.6508827

>  <KierA3>
6.887198

>  <KierFlex>
6.830524

>  <lip_acc>
7

>  <lip_don>
2

>  <lip_druglike>
1

>  <lip_violation>
0

>  <logP(o/w)>
2.7320001

>  <logS>
-2.7936299

>  <mr>
8.5158825

>  <mutagenic>
0

>  <nmol>
1

>  <opr_brigid>
6

>  <opr_leadlike>
1

>  <opr_nring>
1

>  <opr_nrot>
9

>  <opr_violation>
0

>  <PC+>
0

>  <PC->
0

>  <PEOE_PC+>
2.3540616

>  <PEOE_PC->
-2.3540616

>  <PEOE_RPC+>
0.15418401

>  <PEOE_RPC->
0.14077462

>  <PEOE_VSA+0>
124.2629

>  <PEOE_VSA+1>
4.2653861

>  <PEOE_VSA+2>
0

>  <PEOE_VSA+3>
19.773922

>  <PEOE_VSA+4>
10.324173

>  <PEOE_VSA+5>
29.416998

>  <PEOE_VSA+6>
19.199511

>  <PEOE_VSA-0>
36.150303

>  <PEOE_VSA-1>
63.599297

>  <PEOE_VSA-2>
0

>  <PEOE_VSA-3>
0

>  <PEOE_VSA-4>
13.566921

>  <PEOE_VSA-5>
32.141354

>  <PEOE_VSA-6>
7.9044313

>  <PEOE_VSA_FHYD>
0.6878764

>  <PEOE_VSA_FNEG>
0.42529145

>  <PEOE_VSA_FPNEG>
0.14867425

>  <PEOE_VSA_FPOL>
0.3121236

>  <PEOE_VSA_FPOS>
0.57470858

>  <PEOE_VSA_FPPOS>
0.16344935

>  <PEOE_VSA_HYD>
248.0518

>  <PEOE_VSA_NEG>
153.3623

>  <PEOE_VSA_PNEG>
53.612705

>  <PEOE_VSA_POL>
112.55339

>  <PEOE_VSA_POS>
207.24289

>  <PEOE_VSA_PPOS>
58.940681

>  <petitjean>
0.5

>  <petitjeanSC>
1

>  <Q_PC+>
0

>  <Q_PC->
0

>  <Q_RPC+>
0

>  <Q_RPC->
0

>  <Q_VSA_FHYD>
1

>  <Q_VSA_FNEG>
0

>  <Q_VSA_FPNEG>
0

>  <Q_VSA_FPOL>
0

>  <Q_VSA_FPOS>
1

>  <Q_VSA_FPPOS>
0

>  <Q_VSA_HYD>
360.60519

>  <Q_VSA_NEG>
0

>  <Q_VSA_PNEG>
0

>  <Q_VSA_POL>
0

>  <Q_VSA_POS>
360.60519

>  <Q_VSA_PPOS>
0

>  <radius>
6

>  <reactive>
0

>  <rings>
1

>  <RPC+>
0

>  <RPC->
0

>  <rsynth>
0.47826087

>  <SlogP>
2.6830001

>  <SlogP_VSA0>
18.01075

>  <SlogP_VSA1>
22.807566

>  <SlogP_VSA2>
78.25071

>  <SlogP_VSA3>
43.824806

>  <SlogP_VSA4>
4.4107962

>  <SlogP_VSA5>
0

>  <SlogP_VSA6>
0

>  <SlogP_VSA7>
0

>  <SlogP_VSA8>
113.21043

>  <SlogP_VSA9>
123.84026

>  <SMR>
8.2646503

>  <SMR_VSA0>
93.586426

>  <SMR_VSA1>
0

>  <SMR_VSA2>
47.806774

>  <SMR_VSA3>
8.5265026

>  <SMR_VSA4>
0

>  <SMR_VSA5>
113.21043

>  <SMR_VSA6>
41.247143

>  <SMR_VSA7>
99.978043

>  <TPSA>
101.93

>  <VAdjEq>
0.42622864

>  <VAdjMa>
5.523562

>  <VDistEq>
3.4793954

>  <VDistMa>
8.7383652

>  <vdw_area>
360.60519

>  <vdw_vol>
440.53543

>  <vsa_acc>
27.133842

>  <vsa_acid>
0

>  <vsa_base>
0

>  <vsa_don>
5.6825762

>  <vsa_hyd>
205.58437

>  <vsa_other>
68.33252

>  <vsa_pol>
59.95026

>  <Weight>
329.39301

>  <weinerPath>
1362

>  <weinerPol>
30

>  <zagreb>
108

$$$$