O1C2C(O)(C34OC5OC(=O)C(O)C56C3(C(OC4=O)CC6C(C)(C)C)C2O)C(C)C1=O
  MOE2013           2D

 30 35  0  0  1  0  0  0  0  0999 V2000
    0.0510    0.0450    0.0000 O   0  0  0  0  0  0  0  0  0  0  0  0
   -1.3740    0.5240    0.0000 C   0  0  3  0  0  0  0  0  0  0  0  0
   -1.1850    2.0380    0.0000 C   0  0  3  0  0  0  0  0  0  0  0  0
   -1.1310    3.5530    0.0000 O   0  0  0  0  0  0  0  0  0  0  0  0
   -2.5640    2.4860    0.0000 C   0  0  3  0  0  0  0  0  0  0  0  0
   -3.2120    3.8800    0.0000 O   0  0  0  0  0  0  0  0  0  0  0  0
   -4.6940    3.7150    0.0000 C   0  0  3  0  0  0  0  0  0  0  0  0
   -6.0030    4.4480    0.0000 O   0  0  0  0  0  0  0  0  0  0  0  0
   -7.1130    3.4050    0.0000 C   0  0  0  0  0  0  0  0  0  0  0  0
   -8.5840    3.7840    0.0000 O   0  0  0  0  0  0  0  0  0  0  0  0
   -6.4990    2.0870    0.0000 C   0  0  3  0  0  0  0  0  0  0  0  0
   -6.6730    0.5220    0.0000 O   0  0  0  0  0  0  0  0  0  0  0  0
   -5.0200    2.2110    0.0000 C   0  0  3  0  0  0  0  0  0  0  0  0
   -3.6840    1.5710    0.0000 C   0  0  3  0  0  0  0  0  0  0  0  0
   -3.6970    0.1990    0.0000 C   0  0  3  0  0  0  0  0  0  0  0  0
   -2.1800   -0.0640    0.0000 O   0  0  0  0  0  0  0  0  0  0  0  0
   -1.4990    1.3110    0.0000 C   0  0  0  0  0  0  0  0  0  0  0  0
   -0.0320    1.3850    0.0000 O   0  0  0  0  0  0  0  0  0  0  0  0
   -5.2000   -0.2260    0.0000 C   0  0  0  0  0  0  0  0  0  0  0  0
   -6.0200    1.0700    0.0000 C   0  0  3  0  0  0  0  0  0  0  0  0
   -7.5110    0.5590    0.0000 C   0  0  0  0  0  0  0  0  0  0  0  0
   -6.9350   -0.8920    0.0000 C   0  0  0  0  0  0  0  0  0  0  0  0
   -8.0420    1.9020    0.0000 C   0  0  0  0  0  0  0  0  0  0  0  0
   -8.8600   -0.0400    0.0000 C   0  0  0  0  0  0  0  0  0  0  0  0
   -2.8720    0.2380    0.0000 C   0  0  3  0  0  0  0  0  0  0  0  0
   -3.4230   -1.1930    0.0000 O   0  0  0  0  0  0  0  0  0  0  0  0
    0.2820    2.4160    0.0000 C   0  0  3  0  0  0  0  0  0  0  0  0
    0.8640    3.7930    0.0000 C   0  0  0  0  0  0  0  0  0  0  0  0
    1.0990    1.1300    0.0000 C   0  0  0  0  0  0  0  0  0  0  0  0
    2.5820    0.9920    0.0000 O   0  0  0  0  0  0  0  0  0  0  0  0
  1  2  1  0  0  0  0
  1 29  1  0  0  0  0
  2  3  1  0  0  0  0
  2 25  1  0  0  0  0
  3  4  1  0  0  0  0
  3  5  1  0  0  0  0
  3 27  1  0  0  0  0
  5  6  1  0  0  0  0
  5 14  1  0  0  0  0
  5 17  1  0  0  0  0
  6  7  1  0  0  0  0
  7  8  1  0  0  0  0
  7 13  1  0  0  0  0
  8  9  1  0  0  0  0
  9 10  2  0  0  0  0
  9 11  1  0  0  0  0
 11 12  1  0  0  0  0
 11 13  1  0  0  0  0
 13 14  1  0  0  0  0
 13 20  1  0  0  0  0
 14 15  1  0  0  0  0
 14 25  1  0  0  0  0
 15 16  1  0  0  0  0
 15 19  1  0  0  0  0
 16 17  1  0  0  0  0
 17 18  2  0  0  0  0
 19 20  1  0  0  0  0
 20 21  1  0  0  0  0
 21 22  1  0  0  0  0
 21 23  1  0  0  0  0
 21 24  1  0  0  0  0
 25 26  1  0  0  0  0
 27 28  1  0  0  0  0
 27 29  1  0  0  0  0
 29 30  2  0  0  0  0
M  END
>  <Index>
486

>  <ID>
HT0976

>  <class>
0

>  <apol>
59.223034

>  <ast_fraglike>
0

>  <ast_fraglike_ext>
0

>  <ast_violation>
2

>  <ast_violation_ext>
3

>  <a_acc>
7

>  <a_acid>
0

>  <a_aro>
0

>  <a_base>
0

>  <a_count>
54

>  <a_don>
3

>  <a_donacc>
10

>  <a_heavy>
30

>  <a_hyd>
16

>  <a_IC>
81.066978

>  <a_ICM>
1.5012404

>  <a_nB>
0

>  <a_nBr>
0

>  <a_nC>
20

>  <a_nCl>
0

>  <a_nF>
0

>  <a_nH>
24

>  <a_nI>
0

>  <a_nN>
0

>  <a_nO>
10

>  <a_nP>
0

>  <a_nS>
0

>  <balabanJ>
1.690239

>  <BCUT_PEOE_0>
-2.7699971

>  <BCUT_PEOE_1>
-0.49713752

>  <BCUT_PEOE_2>
0.62279159

>  <BCUT_PEOE_3>
3.1427929

>  <BCUT_SLOGP_0>
-2.796598

>  <BCUT_SLOGP_1>
-0.55458295

>  <BCUT_SLOGP_2>
0.4901475

>  <BCUT_SLOGP_3>
3.007149

>  <BCUT_SMR_0>
-2.5408397

>  <BCUT_SMR_1>
-0.35721213

>  <BCUT_SMR_2>
0.73219627

>  <BCUT_SMR_3>
3.3241122

>  <bpol>
36.774967

>  <b_1rotN>
0

>  <b_1rotR>
0

>  <b_ar>
0

>  <b_count>
59

>  <b_double>
3

>  <b_heavy>
35

>  <b_max1len>
4

>  <b_rotN>
1

>  <b_rotR>
0.028571429

>  <b_single>
56

>  <b_triple>
0

>  <chi0>
21.809036

>  <chi0v>
16.947937

>  <chi0v_C>
12.748559

>  <chi0_C>
12.98061

>  <chi1>
13.839966

>  <chi1v>
10.225615

>  <chi1v_C>
7.1139317

>  <chi1_C>
7.2419229

>  <chiral>
11

>  <chiral_u>
11

>  <density>
0.86462343

>  <diameter>
9

>  <FCharge>
0

>  <GCUT_PEOE_0>
-0.80316913

>  <GCUT_PEOE_1>
-0.43851048

>  <GCUT_PEOE_2>
0.078135252

>  <GCUT_PEOE_3>
3.4734013

>  <GCUT_SLOGP_0>
-0.96452284

>  <GCUT_SLOGP_1>
-0.42427883

>  <GCUT_SLOGP_2>
-0.011113126

>  <GCUT_SLOGP_3>
3.3855011

>  <GCUT_SMR_0>
-0.54176819

>  <GCUT_SMR_1>
-0.24206446

>  <GCUT_SMR_2>
0.17357628

>  <GCUT_SMR_3>
3.6630354

>  <Kier1>
20.595919

>  <Kier2>
5.3813019

>  <Kier3>
1.6288089

>  <KierA1>
18.757267

>  <KierA2>
4.8844786

>  <KierA3>
1.4749231

>  <KierFlex>
3.053982

>  <lip_acc>
10

>  <lip_don>
3

>  <lip_druglike>
1

>  <lip_violation>
0

>  <logP(o/w)>
-0.37799999

>  <logS>
-3.57373

>  <mr>
9.4089098

>  <mutagenic>
0

>  <nmol>
1

>  <opr_brigid>
24

>  <opr_leadlike>
0

>  <opr_nring>
6

>  <opr_nrot>
1

>  <opr_violation>
2

>  <PC+>
0

>  <PC->
0

>  <PEOE_PC+>
3.4708009

>  <PEOE_PC->
-3.4708009

>  <PEOE_RPC+>
0.086010724

>  <PEOE_RPC->
0.11188572

>  <PEOE_VSA+0>
68.246178

>  <PEOE_VSA+1>
31.136787

>  <PEOE_VSA+2>
4.9049287

>  <PEOE_VSA+3>
16.059837

>  <PEOE_VSA+4>
30.972517

>  <PEOE_VSA+5>
44.125496

>  <PEOE_VSA+6>
0

>  <PEOE_VSA-0>
8.701313

>  <PEOE_VSA-1>
74.990707

>  <PEOE_VSA-2>
0

>  <PEOE_VSA-3>
0

>  <PEOE_VSA-4>
0

>  <PEOE_VSA-5>
43.204517

>  <PEOE_VSA-6>
30.813889

>  <PEOE_VSA_FHYD>
0.5777607

>  <PEOE_VSA_FNEG>
0.44657418

>  <PEOE_VSA_FPNEG>
0.20959115

>  <PEOE_VSA_FPOL>
0.42223933

>  <PEOE_VSA_FPOS>
0.55342579

>  <PEOE_VSA_FPPOS>
0.21264817

>  <PEOE_VSA_HYD>
204.03975

>  <PEOE_VSA_NEG>
157.71043

>  <PEOE_VSA_PNEG>
74.01841

>  <PEOE_VSA_POL>
149.11642

>  <PEOE_VSA_POS>
195.44574

>  <PEOE_VSA_PPOS>
75.098015

>  <petitjean>
0.44444445

>  <petitjeanSC>
0.80000001

>  <Q_PC+>
0

>  <Q_PC->
0

>  <Q_RPC+>
0

>  <Q_RPC->
0

>  <Q_VSA_FHYD>
1

>  <Q_VSA_FNEG>
0

>  <Q_VSA_FPNEG>
0

>  <Q_VSA_FPOL>
0

>  <Q_VSA_FPOS>
1

>  <Q_VSA_FPPOS>
0

>  <Q_VSA_HYD>
353.15619

>  <Q_VSA_NEG>
0

>  <Q_VSA_PNEG>
0

>  <Q_VSA_POL>
0

>  <Q_VSA_POS>
353.15619

>  <Q_VSA_PPOS>
0

>  <radius>
5

>  <reactive>
1

>  <rings>
6

>  <RPC+>
0

>  <RPC->
0

>  <rsynth>
0.16666667

>  <SlogP>
-1.3695

>  <SlogP_VSA0>
76.155678

>  <SlogP_VSA1>
23.236393

>  <SlogP_VSA2>
149.9873

>  <SlogP_VSA3>
0

>  <SlogP_VSA4>
8.8215923

>  <SlogP_VSA5>
0

>  <SlogP_VSA6>
0

>  <SlogP_VSA7>
0

>  <SlogP_VSA8>
18.868406

>  <SlogP_VSA9>
133.30406

>  <SMR>
9.2011404

>  <SMR_VSA0>
115.5862

>  <SMR_VSA1>
76.155678

>  <SMR_VSA2>
8.8215923

>  <SMR_VSA3>
34.4011

>  <SMR_VSA4>
0

>  <SMR_VSA5>
18.868406

>  <SMR_VSA6>
23.236393

>  <SMR_VSA7>
133.30406

>  <TPSA>
148.82001

>  <VAdjEq>
0.39430025

>  <VAdjMa>
6.129283

>  <VDistEq>
2.8486533

>  <VDistMa>
9.609355

>  <vdw_area>
353.15619

>  <vdw_vol>
490.85181

>  <vsa_acc>
43.204517

>  <vsa_acid>
0

>  <vsa_base>
0

>  <vsa_don>
0

>  <vsa_hyd>
171.69345

>  <vsa_other>
66.345268

>  <vsa_pol>
83.905281

>  <Weight>
424.40198

>  <weinerPath>
1731

>  <weinerPol>
84

>  <zagreb>
200

$$$$