OC1=C2CCC3C4CCC(=O)C4(CCC3C2(CCC1=O)C)C
  MOE2013           2D

 22 25  0  0  1  0  0  0  0  0999 V2000
    0.0000    0.0000    0.0000 O   0  0  0  0  0  0  0  0  0  0  0  0
   -0.7420    1.3030    0.0000 C   0  0  0  0  0  0  0  0  0  0  0  0
   -2.2420    1.3120    0.0000 C   0  0  0  0  0  0  0  0  0  0  0  0
   -3.0000    0.0180    0.0000 C   0  0  0  0  0  0  0  0  0  0  0  0
   -4.5000    0.0270    0.0000 C   0  0  0  0  0  0  0  0  0  0  0  0
   -5.2420    1.3300    0.0000 C   0  0  3  0  0  0  0  0  0  0  0  0
   -6.7420    1.3390    0.0000 C   0  0  3  0  0  0  0  0  0  0  0  0
   -7.7520    0.2300    0.0000 C   0  0  0  0  0  0  0  0  0  0  0  0
   -9.1190    0.8480    0.0000 C   0  0  0  0  0  0  0  0  0  0  0  0
   -8.9540    2.3390    0.0000 C   0  0  0  0  0  0  0  0  0  0  0  0
  -10.0620    3.3490    0.0000 O   0  0  0  0  0  0  0  0  0  0  0  0
   -7.4840    2.6420    0.0000 C   0  0  3  0  0  0  0  0  0  0  0  0
   -6.7270    3.9370    0.0000 C   0  0  0  0  0  0  0  0  0  0  0  0
   -5.2270    3.9280    0.0000 C   0  0  0  0  0  0  0  0  0  0  0  0
   -4.4850    2.6250    0.0000 C   0  0  3  0  0  0  0  0  0  0  0  0
   -2.9850    2.6160    0.0000 C   0  0  3  0  0  0  0  0  0  0  0  0
   -2.2270    3.9100    0.0000 C   0  0  0  0  0  0  0  0  0  0  0  0
   -0.7270    3.9010    0.0000 C   0  0  0  0  0  0  0  0  0  0  0  0
    0.0150    2.5980    0.0000 C   0  0  0  0  0  0  0  0  0  0  0  0
    1.5150    2.5890    0.0000 O   0  0  0  0  0  0  0  0  0  0  0  0
   -3.7500    3.9060    0.0000 C   0  0  0  0  0  0  0  0  0  0  0  0
   -8.3590    3.8610    0.0000 C   0  0  0  0  0  0  0  0  0  0  0  0
  1  2  1  0  0  0  0
  2  3  2  0  0  0  0
  2 19  1  0  0  0  0
  3  4  1  0  0  0  0
  3 16  1  0  0  0  0
  4  5  1  0  0  0  0
  5  6  1  0  0  0  0
  6  7  1  0  0  0  0
  6 15  1  0  0  0  0
  7  8  1  0  0  0  0
  7 12  1  0  0  0  0
  8  9  1  0  0  0  0
  9 10  1  0  0  0  0
 10 11  2  0  0  0  0
 10 12  1  0  0  0  0
 12 13  1  0  0  0  0
 12 22  1  0  0  0  0
 13 14  1  0  0  0  0
 14 15  1  0  0  0  0
 15 16  1  0  0  0  0
 16 17  1  0  0  0  0
 16 21  1  0  0  0  0
 17 18  1  0  0  0  0
 18 19  1  0  0  0  0
 19 20  2  0  0  0  0
M  END
>  <Index>
460

>  <ID>
HT0933

>  <class>
0

>  <apol>
53.182617

>  <ast_fraglike>
0

>  <ast_fraglike_ext>
0

>  <ast_violation>
2

>  <ast_violation_ext>
2

>  <a_acc>
3

>  <a_acid>
0

>  <a_aro>
0

>  <a_base>
0

>  <a_count>
48

>  <a_don>
1

>  <a_donacc>
4

>  <a_heavy>
22

>  <a_hyd>
17

>  <a_IC>
60.401257

>  <a_ICM>
1.2583596

>  <a_nB>
0

>  <a_nBr>
0

>  <a_nC>
19

>  <a_nCl>
0

>  <a_nF>
0

>  <a_nH>
26

>  <a_nI>
0

>  <a_nN>
0

>  <a_nO>
3

>  <a_nP>
0

>  <a_nS>
0

>  <balabanJ>
1.6425592

>  <BCUT_PEOE_0>
-2.9341698

>  <BCUT_PEOE_1>
-0.47696462

>  <BCUT_PEOE_2>
0.45644331

>  <BCUT_PEOE_3>
2.9416389

>  <BCUT_SLOGP_0>
-2.8536878

>  <BCUT_SLOGP_1>
-0.38291791

>  <BCUT_SLOGP_2>
0.50934112

>  <BCUT_SLOGP_3>
3.0174012

>  <BCUT_SMR_0>
-2.6814055

>  <BCUT_SMR_1>
-0.30815533

>  <BCUT_SMR_2>
0.61805815

>  <BCUT_SMR_3>
3.1957469

>  <bpol>
30.339382

>  <b_1rotN>
0

>  <b_1rotR>
0

>  <b_ar>
0

>  <b_count>
51

>  <b_double>
3

>  <b_heavy>
25

>  <b_max1len>
2

>  <b_rotN>
0

>  <b_rotR>
0

>  <b_single>
48

>  <b_triple>
0

>  <chi0>
15.698306

>  <chi0v>
13.652616

>  <chi0v_C>
12.388906

>  <chi0_C>
12.698306

>  <chi1>
10.376681

>  <chi1v>
8.8683834

>  <chi1v_C>
8.2365284

>  <chi1_C>
8.6446304

>  <chiral>
5

>  <chiral_u>
5

>  <density>
0.70749336

>  <diameter>
10

>  <FCharge>
0

>  <GCUT_PEOE_0>
-0.78994936

>  <GCUT_PEOE_1>
-0.39485332

>  <GCUT_PEOE_2>
-0.012294462

>  <GCUT_PEOE_3>
3.2314599

>  <GCUT_SLOGP_0>
-0.83790076

>  <GCUT_SLOGP_1>
-0.30178821

>  <GCUT_SLOGP_2>
0.0385882

>  <GCUT_SLOGP_3>
3.3126075

>  <GCUT_SMR_0>
-0.53861588

>  <GCUT_SMR_1>
-0.20843467

>  <GCUT_SMR_2>
0.13237394

>  <GCUT_SMR_3>
3.4589589

>  <Kier1>
15.5232

>  <Kier2>
4.9970255

>  <Kier3>
1.9771072

>  <KierA1>
13.719677

>  <KierA2>
4.3891015

>  <KierA3>
1.7287722

>  <KierFlex>
2.737139

>  <lip_acc>
3

>  <lip_don>
1

>  <lip_druglike>
1

>  <lip_violation>
0

>  <logP(o/w)>
2.3269999

>  <logS>
-3.4054401

>  <mr>
8.4240799

>  <mutagenic>
0

>  <nmol>
1

>  <opr_brigid>
20

>  <opr_leadlike>
1

>  <opr_nring>
4

>  <opr_nrot>
0

>  <opr_violation>
0

>  <PC+>
0

>  <PC->
0

>  <PEOE_PC+>
1.4154713

>  <PEOE_PC->
-1.4154713

>  <PEOE_RPC+>
0.15362327

>  <PEOE_RPC->
0.25192609

>  <PEOE_VSA+0>
124.03728

>  <PEOE_VSA+1>
0

>  <PEOE_VSA+2>
16.917038

>  <PEOE_VSA+3>
8.458519

>  <PEOE_VSA+4>
10.324173

>  <PEOE_VSA+5>
0

>  <PEOE_VSA+6>
0

>  <PEOE_VSA-0>
54.41642

>  <PEOE_VSA-1>
37.495354

>  <PEOE_VSA-2>
0

>  <PEOE_VSA-3>
0

>  <PEOE_VSA-4>
0

>  <PEOE_VSA-5>
27.133842

>  <PEOE_VSA-6>
7.7675405

>  <PEOE_VSA_FHYD>
0.84217232

>  <PEOE_VSA_FNEG>
0.44255134

>  <PEOE_VSA_FPNEG>
0.12179851

>  <PEOE_VSA_FPOL>
0.15782771

>  <PEOE_VSA_FPOS>
0.55744869

>  <PEOE_VSA_FPPOS>
0.036029197

>  <PEOE_VSA_HYD>
241.32462

>  <PEOE_VSA_NEG>
126.81316

>  <PEOE_VSA_PNEG>
34.901382

>  <PEOE_VSA_POL>
45.225555

>  <PEOE_VSA_POS>
159.73701

>  <PEOE_VSA_PPOS>
10.324173

>  <petitjean>
0.5

>  <petitjeanSC>
1

>  <Q_PC+>
0

>  <Q_PC->
0

>  <Q_RPC+>
0

>  <Q_RPC->
0

>  <Q_VSA_FHYD>
1

>  <Q_VSA_FNEG>
0

>  <Q_VSA_FPNEG>
0

>  <Q_VSA_FPOL>
0

>  <Q_VSA_FPOS>
1

>  <Q_VSA_FPPOS>
0

>  <Q_VSA_HYD>
286.55017

>  <Q_VSA_NEG>
0

>  <Q_VSA_PNEG>
0

>  <Q_VSA_POL>
0

>  <Q_VSA_POS>
286.55017

>  <Q_VSA_PPOS>
0

>  <radius>
5

>  <reactive>
1

>  <rings>
4

>  <RPC+>
0

>  <RPC->
0

>  <rsynth>
0

>  <SlogP>
3.9730999

>  <SlogP_VSA0>
0

>  <SlogP_VSA1>
11.375222

>  <SlogP_VSA2>
47.724434

>  <SlogP_VSA3>
25.385227

>  <SlogP_VSA4>
13.232388

>  <SlogP_VSA5>
8.4290028

>  <SlogP_VSA6>
0

>  <SlogP_VSA7>
0

>  <SlogP_VSA8>
150.94725

>  <SlogP_VSA9>
66.652031

>  <SMR>
8.3288803

>  <SMR_VSA0>
47.724434

>  <SMR_VSA1>
0

>  <SMR_VSA2>
38.617615

>  <SMR_VSA3>
8.4290028

>  <SMR_VSA4>
0

>  <SMR_VSA5>
150.94725

>  <SMR_VSA6>
11.375222

>  <SMR_VSA7>
66.652031

>  <TPSA>
54.369999

>  <VAdjEq>
0.47938794

>  <VAdjMa>
5.643856

>  <VDistEq>
2.971626

>  <VDistMa>
8.6475706

>  <vdw_area>
286.55017

>  <vdw_vol>
427.44427

>  <vsa_acc>
27.133842

>  <vsa_acid>
0

>  <vsa_base>
0

>  <vsa_don>
0

>  <vsa_hyd>
202.57753

>  <vsa_other>
16.917038

>  <vsa_pol>
40.700764

>  <Weight>
302.414

>  <weinerPath>
904

>  <weinerPol>
48

>  <zagreb>
132

$$$$