Fc1ccc(cc1)C1C(=O)c2c(cccc2)C1=O
  MOE2013           2D

 18 20  0  0  0  0  0  0  0  0999 V2000
    0.0000    0.0000    0.0000 F   0  0  0  0  0  0  0  0  0  0  0  0
   -1.5000    0.0000    0.0000 C   0  0  0  0  0  0  0  0  0  0  0  0
   -2.2500    1.2990    0.0000 C   0  0  0  0  0  0  0  0  0  0  0  0
   -3.7500    1.2990    0.0000 C   0  0  0  0  0  0  0  0  0  0  0  0
   -4.5000    0.0000    0.0000 C   0  0  0  0  0  0  0  0  0  0  0  0
   -3.7500   -1.2990    0.0000 C   0  0  0  0  0  0  0  0  0  0  0  0
   -2.2500   -1.2990    0.0000 C   0  0  0  0  0  0  0  0  0  0  0  0
   -6.0000    0.0000    0.0000 C   0  0  0  0  0  0  0  0  0  0  0  0
   -6.8820   -1.2140    0.0000 C   0  0  0  0  0  0  0  0  0  0  0  0
   -6.4180   -2.6400    0.0000 O   0  0  0  0  0  0  0  0  0  0  0  0
   -8.3080   -0.7500    0.0000 C   0  0  0  0  0  0  0  0  0  0  0  0
   -8.3080    0.7500    0.0000 C   0  0  0  0  0  0  0  0  0  0  0  0
   -9.6070    1.5000    0.0000 C   0  0  0  0  0  0  0  0  0  0  0  0
  -10.9060    0.7500    0.0000 C   0  0  0  0  0  0  0  0  0  0  0  0
  -10.9060   -0.7500    0.0000 C   0  0  0  0  0  0  0  0  0  0  0  0
   -9.6070   -1.5000    0.0000 C   0  0  0  0  0  0  0  0  0  0  0  0
   -6.8820    1.2140    0.0000 C   0  0  0  0  0  0  0  0  0  0  0  0
   -6.4180    2.6400    0.0000 O   0  0  0  0  0  0  0  0  0  0  0  0
  1  2  1  0  0  0  0
  2  3  1  0  0  0  0
  2  7  2  0  0  0  0
  3  4  2  0  0  0  0
  4  5  1  0  0  0  0
  5  6  2  0  0  0  0
  5  8  1  0  0  0  0
  6  7  1  0  0  0  0
  8  9  1  0  0  0  0
  8 17  1  0  0  0  0
  9 10  2  0  0  0  0
  9 11  1  0  0  0  0
 11 12  1  0  0  0  0
 11 16  2  0  0  0  0
 12 13  2  0  0  0  0
 12 17  1  0  0  0  0
 13 14  1  0  0  0  0
 14 15  2  0  0  0  0
 15 16  1  0  0  0  0
 17 18  2  0  0  0  0
M  END
>  <Index>
441

>  <ID>
HT0896

>  <class>
0

>  <apol>
34.562138

>  <ast_fraglike>
1

>  <ast_fraglike_ext>
1

>  <ast_violation>
0

>  <ast_violation_ext>
0

>  <a_acc>
2

>  <a_acid>
0

>  <a_aro>
12

>  <a_base>
0

>  <a_count>
27

>  <a_don>
0

>  <a_donacc>
2

>  <a_heavy>
18

>  <a_hyd>
14

>  <a_IC>
39.249279

>  <a_ICM>
1.4536769

>  <a_nB>
0

>  <a_nBr>
0

>  <a_nC>
15

>  <a_nCl>
0

>  <a_nF>
1

>  <a_nH>
9

>  <a_nI>
0

>  <a_nN>
0

>  <a_nO>
2

>  <a_nP>
0

>  <a_nS>
0

>  <balabanJ>
1.7263159

>  <BCUT_PEOE_0>
-2.2796977

>  <BCUT_PEOE_1>
-0.64757556

>  <BCUT_PEOE_2>
0.67229968

>  <BCUT_PEOE_3>
2.5222542

>  <BCUT_SLOGP_0>
-2.296725

>  <BCUT_SLOGP_1>
-0.52167195

>  <BCUT_SLOGP_2>
0.79701895

>  <BCUT_SLOGP_3>
2.4986758

>  <BCUT_SMR_0>
-2.0117278

>  <BCUT_SMR_1>
-0.45928848

>  <BCUT_SMR_2>
0.84116495

>  <BCUT_SMR_3>
2.7974977

>  <bpol>
12.957863

>  <b_1rotN>
1

>  <b_1rotR>
0.050000001

>  <b_ar>
12

>  <b_count>
29

>  <b_double>
2

>  <b_heavy>
20

>  <b_max1len>
2

>  <b_rotN>
1

>  <b_rotR>
0.050000001

>  <b_single>
15

>  <b_triple>
0

>  <chi0>
12.698306

>  <chi0v>
9.3906136

>  <chi0v_C>
8.1961527

>  <chi0_C>
9.6983061

>  <chi1>
8.6815405

>  <chi1v>
5.6119733

>  <chi1v_C>
5.0147429

>  <chi1_C>
6.9494896

>  <chiral>
0

>  <chiral_u>
0

>  <density>
0.77811998

>  <diameter>
9

>  <FCharge>
0

>  <GCUT_PEOE_0>
-0.74078649

>  <GCUT_PEOE_1>
-0.42954367

>  <GCUT_PEOE_2>
0.068058215

>  <GCUT_PEOE_3>
2.4407952

>  <GCUT_SLOGP_0>
-0.81137472

>  <GCUT_SLOGP_1>
-0.28942785

>  <GCUT_SLOGP_2>
0.19582245

>  <GCUT_SLOGP_3>
2.504988

>  <GCUT_SMR_0>
-0.43210426

>  <GCUT_SMR_1>
-0.2202083

>  <GCUT_SMR_2>
0.19512731

>  <GCUT_SMR_3>
2.7286818

>  <Kier1>
13.005

>  <Kier2>
5.1747918

>  <Kier3>
2.2843544

>  <KierA1>
8.6198044

>  <KierA2>
3.3379943

>  <KierA3>
1.4440283

>  <KierFlex>
1.598492

>  <lip_acc>
2

>  <lip_don>
0

>  <lip_druglike>
1

>  <lip_violation>
0

>  <logP(o/w)>
2.892

>  <logS>
-4.1424499

>  <mr>
6.6482487

>  <mutagenic>
0

>  <nmol>
1

>  <opr_brigid>
16

>  <opr_leadlike>
1

>  <opr_nring>
3

>  <opr_nrot>
1

>  <opr_violation>
0

>  <PC+>
0

>  <PC->
0

>  <PEOE_PC+>
1.2016028

>  <PEOE_PC->
-1.2016028

>  <PEOE_RPC+>
0.14867751

>  <PEOE_RPC->
0.24211201

>  <PEOE_VSA+0>
4.4170794

>  <PEOE_VSA+1>
38.388474

>  <PEOE_VSA+2>
9.0208454

>  <PEOE_VSA+3>
16.917038

>  <PEOE_VSA+4>
0

>  <PEOE_VSA+5>
0

>  <PEOE_VSA+6>
0

>  <PEOE_VSA-0>
26.718348

>  <PEOE_VSA-1>
73.529427

>  <PEOE_VSA-2>
0

>  <PEOE_VSA-3>
0

>  <PEOE_VSA-4>
11.908636

>  <PEOE_VSA-5>
27.133842

>  <PEOE_VSA-6>
0

>  <PEOE_VSA_FHYD>
0.81232619

>  <PEOE_VSA_FNEG>
0.6695562

>  <PEOE_VSA_FPNEG>
0.18767382

>  <PEOE_VSA_FPOL>
0.18767382

>  <PEOE_VSA_FPOS>
0.33044377

>  <PEOE_VSA_FPPOS>
0

>  <PEOE_VSA_HYD>
168.99121

>  <PEOE_VSA_NEG>
139.29025

>  <PEOE_VSA_PNEG>
39.042477

>  <PEOE_VSA_POL>
39.042477

>  <PEOE_VSA_POS>
68.743439

>  <PEOE_VSA_PPOS>
0

>  <petitjean>
0.44444445

>  <petitjeanSC>
0.80000001

>  <Q_PC+>
0

>  <Q_PC->
0

>  <Q_RPC+>
0

>  <Q_RPC->
0

>  <Q_VSA_FHYD>
1

>  <Q_VSA_FNEG>
0

>  <Q_VSA_FPNEG>
0

>  <Q_VSA_FPOL>
0

>  <Q_VSA_FPOS>
1

>  <Q_VSA_FPPOS>
0

>  <Q_VSA_HYD>
208.03369

>  <Q_VSA_NEG>
0

>  <Q_VSA_PNEG>
0

>  <Q_VSA_POL>
0

>  <Q_VSA_POS>
208.03369

>  <Q_VSA_PPOS>
0

>  <radius>
5

>  <reactive>
1

>  <rings>
3

>  <RPC+>
0

>  <RPC->
0

>  <rsynth>
1

>  <SlogP>
2.9885001

>  <SlogP_VSA0>
0

>  <SlogP_VSA1>
11.375222

>  <SlogP_VSA2>
9.1210184

>  <SlogP_VSA3>
0

>  <SlogP_VSA4>
57.281158

>  <SlogP_VSA5>
0

>  <SlogP_VSA6>
4.4107962

>  <SlogP_VSA7>
141.14548

>  <SlogP_VSA8>
0

>  <SlogP_VSA9>
14.960114

>  <SMR>
6.4243999

>  <SMR_VSA0>
47.724434

>  <SMR_VSA1>
14.960114

>  <SMR_VSA2>
9.1210184

>  <SMR_VSA3>
13.967521

>  <SMR_VSA4>
0

>  <SMR_VSA5>
141.14548

>  <SMR_VSA6>
11.375222

>  <SMR_VSA7>
0

>  <TPSA>
34.139999

>  <VAdjEq>
0.53921634

>  <VAdjMa>
5.321928

>  <VDistEq>
2.8923159

>  <VDistMa>
8.0520725

>  <vdw_area>
208.03369

>  <vdw_vol>
308.73517

>  <vsa_acc>
27.133842

>  <vsa_acid>
0

>  <vsa_base>
0

>  <vsa_don>
0

>  <vsa_hyd>
156.2316

>  <vsa_other>
16.917038

>  <vsa_pol>
27.133842

>  <Weight>
240.23299

>  <weinerPath>
567

>  <weinerPol>
30

>  <zagreb>
98

$$$$