Clc1ccc(OC(C(OCCOC(=O)c2cccnc2)=O)(C)C)cc1
  MOE2013           2D

 25 26  0  0  0  0  0  0  0  0999 V2000
    0.0000    0.0000    0.0000 Cl  0  0  0  0  0  0  0  0  0  0  0  0
   -1.3010   -0.7470    0.0000 C   0  0  0  0  0  0  0  0  0  0  0  0
   -2.5980    0.0070    0.0000 C   0  0  0  0  0  0  0  0  0  0  0  0
   -3.8990   -0.7400    0.0000 C   0  0  0  0  0  0  0  0  0  0  0  0
   -3.9030   -2.2400    0.0000 C   0  0  0  0  0  0  0  0  0  0  0  0
   -5.2040   -2.9860    0.0000 O   0  0  0  0  0  0  0  0  0  0  0  0
   -6.5010   -2.2330    0.0000 C   0  0  0  0  0  0  0  0  0  0  0  0
   -7.7980   -1.4790    0.0000 C   0  0  0  0  0  0  0  0  0  0  0  0
   -9.0990   -2.2260    0.0000 O   0  0  0  0  0  0  0  0  0  0  0  0
  -10.3960   -1.4720    0.0000 C   0  0  0  0  0  0  0  0  0  0  0  0
  -11.6970   -2.2190    0.0000 C   0  0  0  0  0  0  0  0  0  0  0  0
  -12.9940   -1.4650    0.0000 O   0  0  0  0  0  0  0  0  0  0  0  0
  -14.2950   -2.2120    0.0000 C   0  0  0  0  0  0  0  0  0  0  0  0
  -14.2990   -3.7120    0.0000 O   0  0  0  0  0  0  0  0  0  0  0  0
  -15.5920   -1.4580    0.0000 C   0  0  0  0  0  0  0  0  0  0  0  0
  -16.8930   -2.2050    0.0000 C   0  0  0  0  0  0  0  0  0  0  0  0
  -18.1900   -1.4520    0.0000 C   0  0  0  0  0  0  0  0  0  0  0  0
  -18.1860    0.0480    0.0000 C   0  0  0  0  0  0  0  0  0  0  0  0
  -16.8850    0.7950    0.0000 N   0  0  0  0  0  0  0  0  0  0  0  0
  -15.5880    0.0420    0.0000 C   0  0  0  0  0  0  0  0  0  0  0  0
   -7.7940    0.0210    0.0000 O   0  0  0  0  0  0  0  0  0  0  0  0
   -5.7480   -0.9360    0.0000 C   0  0  0  0  0  0  0  0  0  0  0  0
   -7.2550   -3.5300    0.0000 C   0  0  0  0  0  0  0  0  0  0  0  0
   -2.6060   -2.9930    0.0000 C   0  0  0  0  0  0  0  0  0  0  0  0
   -1.3050   -2.2470    0.0000 C   0  0  0  0  0  0  0  0  0  0  0  0
  1  2  1  0  0  0  0
  2  3  1  0  0  0  0
  2 25  2  0  0  0  0
  3  4  2  0  0  0  0
  4  5  1  0  0  0  0
  5  6  1  0  0  0  0
  5 24  2  0  0  0  0
  6  7  1  0  0  0  0
  7  8  1  0  0  0  0
  7 22  1  0  0  0  0
  7 23  1  0  0  0  0
  8  9  1  0  0  0  0
  8 21  2  0  0  0  0
  9 10  1  0  0  0  0
 10 11  1  0  0  0  0
 11 12  1  0  0  0  0
 12 13  1  0  0  0  0
 13 14  2  0  0  0  0
 13 15  1  0  0  0  0
 15 16  1  0  0  0  0
 15 20  2  0  0  0  0
 16 17  2  0  0  0  0
 17 18  1  0  0  0  0
 18 19  2  0  0  0  0
 19 20  1  0  0  0  0
 24 25  1  0  0  0  0
M  END
>  <Index>
408

>  <ID>
HT0828

>  <class>
0

>  <apol>
50.972275

>  <ast_fraglike>
0

>  <ast_fraglike_ext>
0

>  <ast_violation>
3

>  <ast_violation_ext>
4

>  <a_acc>
4

>  <a_acid>
0

>  <a_aro>
12

>  <a_base>
0

>  <a_count>
43

>  <a_don>
0

>  <a_donacc>
4

>  <a_heavy>
25

>  <a_hyd>
17

>  <a_IC>
71.602448

>  <a_ICM>
1.6651732

>  <a_nB>
0

>  <a_nBr>
0

>  <a_nC>
18

>  <a_nCl>
1

>  <a_nF>
0

>  <a_nH>
18

>  <a_nI>
0

>  <a_nN>
1

>  <a_nO>
5

>  <a_nP>
0

>  <a_nS>
0

>  <balabanJ>
1.6187357

>  <BCUT_PEOE_0>
-2.5245926

>  <BCUT_PEOE_1>
-0.57730734

>  <BCUT_PEOE_2>
0.65278631

>  <BCUT_PEOE_3>
2.5921483

>  <BCUT_SLOGP_0>
-2.6324542

>  <BCUT_SLOGP_1>
-0.48906347

>  <BCUT_SLOGP_2>
0.73887229

>  <BCUT_SLOGP_3>
2.5325201

>  <BCUT_SMR_0>
-2.307893

>  <BCUT_SMR_1>
-0.44854301

>  <BCUT_SMR_2>
0.7889238

>  <BCUT_SMR_3>
2.801353

>  <bpol>
29.081726

>  <b_1rotN>
7

>  <b_1rotR>
0.26923078

>  <b_ar>
12

>  <b_count>
44

>  <b_double>
2

>  <b_heavy>
26

>  <b_max1len>
4

>  <b_rotN>
9

>  <b_rotR>
0.34615386

>  <b_single>
30

>  <b_triple>
0

>  <chi0>
18.286245

>  <chi0v>
14.655364

>  <chi0v_C>
11.033015

>  <chi0_C>
12.457819

>  <chi1>
11.881847

>  <chi1v>
7.9508238

>  <chi1v_C>
5.0653839

>  <chi1_C>
6.5714984

>  <chiral>
0

>  <chiral_u>
0

>  <density>
0.79767752

>  <diameter>
16

>  <FCharge>
0

>  <GCUT_PEOE_0>
-0.76439512

>  <GCUT_PEOE_1>
-0.37800694

>  <GCUT_PEOE_2>
0.018902492

>  <GCUT_PEOE_3>
2.4583836

>  <GCUT_SLOGP_0>
-0.93327093

>  <GCUT_SLOGP_1>
-0.26386139

>  <GCUT_SLOGP_2>
0.15114018

>  <GCUT_SLOGP_3>
2.4929698

>  <GCUT_SMR_0>
-0.5167883

>  <GCUT_SMR_1>
-0.20017628

>  <GCUT_SMR_2>
0.19305076

>  <GCUT_SMR_3>
2.6966491

>  <Kier1>
21.301775

>  <Kier2>
10.364081

>  <Kier3>
7.2600002

>  <KierA1>
17.040241

>  <KierA2>
8.2085609

>  <KierA3>
5.7072535

>  <KierFlex>
5.5950341

>  <lip_acc>
6

>  <lip_don>
0

>  <lip_druglike>
1

>  <lip_violation>
0

>  <logP(o/w)>
2.9194801

>  <logS>
-4.1500702

>  <mr>
9.5503817

>  <mutagenic>
0

>  <nmol>
1

>  <opr_brigid>
12

>  <opr_leadlike>
1

>  <opr_nring>
2

>  <opr_nrot>
7

>  <opr_violation>
0

>  <PC+>
0

>  <PC->
0

>  <PEOE_PC+>
2.0991764

>  <PEOE_PC->
-2.0991764

>  <PEOE_RPC+>
0.14069739

>  <PEOE_RPC->
0.15663265

>  <PEOE_VSA+0>
63.603893

>  <PEOE_VSA+1>
91.75428

>  <PEOE_VSA+2>
0

>  <PEOE_VSA+3>
0

>  <PEOE_VSA+4>
0

>  <PEOE_VSA+5>
29.416998

>  <PEOE_VSA+6>
0

>  <PEOE_VSA-0>
111.02478

>  <PEOE_VSA-1>
29.581947

>  <PEOE_VSA-2>
0

>  <PEOE_VSA-3>
0

>  <PEOE_VSA-4>
0

>  <PEOE_VSA-5>
32.816418

>  <PEOE_VSA-6>
7.5112681

>  <PEOE_VSA_FHYD>
0.8092894

>  <PEOE_VSA_FNEG>
0.49474889

>  <PEOE_VSA_FPNEG>
0.11027244

>  <PEOE_VSA_FPOL>
0.19071057

>  <PEOE_VSA_FPOS>
0.50525111

>  <PEOE_VSA_FPPOS>
0.080438137

>  <PEOE_VSA_HYD>
295.9649

>  <PEOE_VSA_NEG>
180.93442

>  <PEOE_VSA_PNEG>
40.327686

>  <PEOE_VSA_POL>
69.744682

>  <PEOE_VSA_POS>
184.77516

>  <PEOE_VSA_PPOS>
29.416998

>  <petitjean>
0.5

>  <petitjeanSC>
1

>  <Q_PC+>
0

>  <Q_PC->
0

>  <Q_RPC+>
0

>  <Q_RPC->
0

>  <Q_VSA_FHYD>
1

>  <Q_VSA_FNEG>
0

>  <Q_VSA_FPNEG>
0

>  <Q_VSA_FPOL>
0

>  <Q_VSA_FPOS>
1

>  <Q_VSA_FPPOS>
0

>  <Q_VSA_HYD>
365.70959

>  <Q_VSA_NEG>
0

>  <Q_VSA_PNEG>
0

>  <Q_VSA_POL>
0

>  <Q_VSA_POS>
365.70959

>  <Q_VSA_PPOS>
0

>  <radius>
8

>  <reactive>
0

>  <rings>
2

>  <RPC+>
0

>  <RPC->
0

>  <rsynth>
1

>  <SlogP>
3.2925999

>  <SlogP_VSA0>
10.999887

>  <SlogP_VSA1>
32.276459

>  <SlogP_VSA2>
45.861992

>  <SlogP_VSA3>
41.852516

>  <SlogP_VSA4>
27.047791

>  <SlogP_VSA5>
0

>  <SlogP_VSA6>
3.5006065

>  <SlogP_VSA7>
140.28783

>  <SlogP_VSA8>
0

>  <SlogP_VSA9>
111.04411

>  <SMR>
9.1637497

>  <SMR_VSA0>
69.724205

>  <SMR_VSA1>
27.785418

>  <SMR_VSA2>
0

>  <SMR_VSA3>
11.929609

>  <SMR_VSA4>
0

>  <SMR_VSA5>
140.28783

>  <SMR_VSA6>
57.343445

>  <SMR_VSA7>
105.80067

>  <TPSA>
74.720001

>  <VAdjEq>
0.41335541

>  <VAdjMa>
5.7004399

>  <VDistEq>
3.7522781

>  <VDistMa>
8.9487972

>  <vdw_area>
365.70959

>  <vdw_vol>
456.07025

>  <vsa_acc>
35.320175

>  <vsa_acid>
0

>  <vsa_base>
0

>  <vsa_don>
0

>  <vsa_hyd>
283.15259

>  <vsa_other>
34.424511

>  <vsa_pol>
35.320175

>  <Weight>
363.797

>  <weinerPath>
1840

>  <weinerPol>
34

>  <zagreb>
122

$$$$