Oc1cc(cc(O)c1)C(O)CNC(Cc1ccc(O)cc1)C
  MOE2013           2D

 22 23  0  0  1  0  0  0  0  0999 V2000
    0.0000    0.0000    0.0000 O   0  0  0  0  0  0  0  0  0  0  0  0
    0.0040   -1.5000    0.0000 C   0  0  0  0  0  0  0  0  0  0  0  0
    1.3050   -2.2460    0.0000 C   0  0  0  0  0  0  0  0  0  0  0  0
    1.3090   -3.7460    0.0000 C   0  0  0  0  0  0  0  0  0  0  0  0
    0.0120   -4.5000    0.0000 C   0  0  0  0  0  0  0  0  0  0  0  0
   -1.2890   -3.7540    0.0000 C   0  0  0  0  0  0  0  0  0  0  0  0
   -2.5860   -4.5070    0.0000 O   0  0  0  0  0  0  0  0  0  0  0  0
   -1.2930   -2.2540    0.0000 C   0  0  0  0  0  0  0  0  0  0  0  0
    2.6100   -4.4930    0.0000 C   0  0  3  0  0  0  0  0  0  0  0  0
    2.6150   -5.9930    0.0000 O   0  0  0  0  0  0  0  0  0  0  0  0
    3.9070   -3.7390    0.0000 C   0  0  0  0  0  0  0  0  0  0  0  0
    5.2090   -4.4860    0.0000 N   0  0  0  0  0  0  0  0  0  0  0  0
    6.5050   -3.7320    0.0000 C   0  0  3  0  0  0  0  0  0  0  0  0
    7.8070   -4.4790    0.0000 C   0  0  0  0  0  0  0  0  0  0  0  0
    9.1040   -3.7250    0.0000 C   0  0  0  0  0  0  0  0  0  0  0  0
   10.4050   -4.4710    0.0000 C   0  0  0  0  0  0  0  0  0  0  0  0
   11.7020   -3.7180    0.0000 C   0  0  0  0  0  0  0  0  0  0  0  0
   11.6970   -2.2180    0.0000 C   0  0  0  0  0  0  0  0  0  0  0  0
   12.9940   -1.4640    0.0000 O   0  0  0  0  0  0  0  0  0  0  0  0
   10.3960   -1.4710    0.0000 C   0  0  0  0  0  0  0  0  0  0  0  0
    9.0990   -2.2250    0.0000 C   0  0  0  0  0  0  0  0  0  0  0  0
    6.5010   -2.2320    0.0000 C   0  0  0  0  0  0  0  0  0  0  0  0
  1  2  1  0  0  0  0
  2  3  1  0  0  0  0
  2  8  2  0  0  0  0
  3  4  2  0  0  0  0
  4  5  1  0  0  0  0
  4  9  1  0  0  0  0
  5  6  2  0  0  0  0
  6  7  1  0  0  0  0
  6  8  1  0  0  0  0
  9 10  1  0  0  0  0
  9 11  1  0  0  0  0
 11 12  1  0  0  0  0
 12 13  1  0  0  0  0
 13 14  1  0  0  0  0
 13 22  1  0  0  0  0
 14 15  1  0  0  0  0
 15 16  1  0  0  0  0
 15 21  2  0  0  0  0
 16 17  2  0  0  0  0
 17 18  1  0  0  0  0
 18 19  1  0  0  0  0
 18 20  2  0  0  0  0
 20 21  1  0  0  0  0
M  END
>  <Index>
427

>  <ID>
HT0863

>  <class>
0

>  <apol>
48.230652

>  <ast_fraglike>
0

>  <ast_fraglike_ext>
0

>  <ast_violation>
3

>  <ast_violation_ext>
4

>  <a_acc>
5

>  <a_acid>
0

>  <a_aro>
12

>  <a_base>
0

>  <a_count>
43

>  <a_don>
5

>  <a_donacc>
10

>  <a_heavy>
22

>  <a_hyd>
17

>  <a_IC>
63.603851

>  <a_ICM>
1.4791594

>  <a_nB>
0

>  <a_nBr>
0

>  <a_nC>
17

>  <a_nCl>
0

>  <a_nF>
0

>  <a_nH>
21

>  <a_nI>
0

>  <a_nN>
1

>  <a_nO>
4

>  <a_nP>
0

>  <a_nS>
0

>  <balabanJ>
1.6591135

>  <BCUT_PEOE_0>
-2.651485

>  <BCUT_PEOE_1>
-0.64308631

>  <BCUT_PEOE_2>
0.7033931

>  <BCUT_PEOE_3>
2.5844615

>  <BCUT_SLOGP_0>
-2.7674119

>  <BCUT_SLOGP_1>
-0.6331234

>  <BCUT_SLOGP_2>
0.80591482

>  <BCUT_SLOGP_3>
2.5684476

>  <BCUT_SMR_0>
-2.3797829

>  <BCUT_SMR_1>
-0.49986199

>  <BCUT_SMR_2>
0.85431087

>  <BCUT_SMR_3>
2.8501823

>  <bpol>
23.617348

>  <b_1rotN>
6

>  <b_1rotR>
0.26086956

>  <b_ar>
12

>  <b_count>
44

>  <b_double>
0

>  <b_heavy>
23

>  <b_max1len>
7

>  <b_rotN>
6

>  <b_rotR>
0.26086956

>  <b_single>
32

>  <b_triple>
0

>  <chi0>
16.11252

>  <chi0v>
12.39922

>  <chi0v_C>
10.110366

>  <chi0_C>
11.405413

>  <chi1>
10.435561

>  <chi1v>
7.1607413

>  <chi1v_C>
5.5894933

>  <chi1_C>
7.2179112

>  <chiral>
2

>  <chiral_u>
2

>  <density>
0.72858548

>  <diameter>
13

>  <FCharge>
0

>  <GCUT_PEOE_0>
-0.84279567

>  <GCUT_PEOE_1>
-0.39273036

>  <GCUT_PEOE_2>
0.14097497

>  <GCUT_PEOE_3>
2.5805583

>  <GCUT_SLOGP_0>
-1.1530255

>  <GCUT_SLOGP_1>
-0.36022308

>  <GCUT_SLOGP_2>
0.16445385

>  <GCUT_SLOGP_3>
2.6576681

>  <GCUT_SMR_0>
-0.51852894

>  <GCUT_SMR_1>
-0.25090718

>  <GCUT_SMR_2>
0.20119779

>  <GCUT_SMR_3>
2.8374567

>  <Kier1>
18.340265

>  <Kier2>
8.7408953

>  <Kier3>
6.2040815

>  <KierA1>
14.602181

>  <KierA2>
6.8785152

>  <KierA3>
4.8409681

>  <KierFlex>
4.565515

>  <lip_acc>
5

>  <lip_don>
5

>  <lip_druglike>
1

>  <lip_violation>
0

>  <logP(o/w)>
2.6389999

>  <logS>
-1.99357

>  <mr>
8.4460192

>  <mutagenic>
0

>  <nmol>
1

>  <opr_brigid>
12

>  <opr_leadlike>
1

>  <opr_nring>
2

>  <opr_nrot>
6

>  <opr_violation>
0

>  <PC+>
0

>  <PC->
0

>  <PEOE_PC+>
2.126256

>  <PEOE_PC->
-2.126256

>  <PEOE_RPC+>
0.10220536

>  <PEOE_RPC->
0.18149905

>  <PEOE_VSA+0>
50.461372

>  <PEOE_VSA+1>
64.403572

>  <PEOE_VSA+2>
8.6190128

>  <PEOE_VSA+3>
0

>  <PEOE_VSA+4>
41.296692

>  <PEOE_VSA+5>
0

>  <PEOE_VSA+6>
0

>  <PEOE_VSA-0>
93.140587

>  <PEOE_VSA-1>
24.509808

>  <PEOE_VSA-2>
0

>  <PEOE_VSA-3>
0

>  <PEOE_VSA-4>
0

>  <PEOE_VSA-5>
0

>  <PEOE_VSA-6>
31.207052

>  <PEOE_VSA_FHYD>
0.76882994

>  <PEOE_VSA_FNEG>
0.47461534

>  <PEOE_VSA_FPNEG>
0.099500194

>  <PEOE_VSA_FPOL>
0.23117007

>  <PEOE_VSA_FPOS>
0.52538466

>  <PEOE_VSA_FPPOS>
0.13166988

>  <PEOE_VSA_HYD>
241.13435

>  <PEOE_VSA_NEG>
148.85745

>  <PEOE_VSA_PNEG>
31.207052

>  <PEOE_VSA_POL>
72.503746

>  <PEOE_VSA_POS>
164.78065

>  <PEOE_VSA_PPOS>
41.296692

>  <petitjean>
0.46153846

>  <petitjeanSC>
0.85714287

>  <Q_PC+>
0

>  <Q_PC->
0

>  <Q_RPC+>
0

>  <Q_RPC->
0

>  <Q_VSA_FHYD>
1

>  <Q_VSA_FNEG>
0

>  <Q_VSA_FPNEG>
0

>  <Q_VSA_FPOL>
0

>  <Q_VSA_FPOS>
1

>  <Q_VSA_FPPOS>
0

>  <Q_VSA_HYD>
313.63809

>  <Q_VSA_NEG>
0

>  <Q_VSA_PNEG>
0

>  <Q_VSA_POL>
0

>  <Q_VSA_POS>
313.63809

>  <Q_VSA_PPOS>
0

>  <radius>
7

>  <reactive>
0

>  <rings>
2

>  <RPC+>
0

>  <RPC->
0

>  <rsynth>
1

>  <SlogP>
2.15307

>  <SlogP_VSA0>
119.55166

>  <SlogP_VSA1>
0

>  <SlogP_VSA2>
3.9819686

>  <SlogP_VSA3>
18.439579

>  <SlogP_VSA4>
6.37115

>  <SlogP_VSA5>
18.868406

>  <SlogP_VSA6>
0

>  <SlogP_VSA7>
123.50229

>  <SlogP_VSA8>
6.4686494

>  <SlogP_VSA9>
49.056297

>  <SMR>
8.4117899

>  <SMR_VSA0>
0

>  <SMR_VSA1>
101.54091

>  <SMR_VSA2>
18.01075

>  <SMR_VSA3>
32.552052

>  <SMR_VSA4>
0

>  <SMR_VSA5>
142.3707

>  <SMR_VSA6>
18.439579

>  <SMR_VSA7>
33.326015

>  <TPSA>
92.949997

>  <VAdjEq>
0.4530769

>  <VAdjMa>
5.523562

>  <VDistEq>
3.5227122

>  <VDistMa>
8.5856009

>  <vdw_area>
313.63809

>  <vdw_vol>
416.36569

>  <vsa_acc>
0

>  <vsa_acid>
0

>  <vsa_base>
0

>  <vsa_don>
0

>  <vsa_hyd>
221.12662

>  <vsa_other>
0

>  <vsa_pol>
59.95026

>  <Weight>
303.358

>  <weinerPath>
1240

>  <weinerPol>
29

>  <zagreb>
108

$$$$