Clc1ccc(cc1)-c1nc(sc1CC(O)=O)-c1ccccc1
  MOE2013           2D

 22 24  0  0  0  0  0  0  0  0999 V2000
    0.0000    0.0000    0.0000 Cl  0  0  0  0  0  0  0  0  0  0  0  0
    1.5000    0.0090    0.0000 C   0  0  0  0  0  0  0  0  0  0  0  0
    2.2580   -1.2850    0.0000 C   0  0  0  0  0  0  0  0  0  0  0  0
    3.7580   -1.2760    0.0000 C   0  0  0  0  0  0  0  0  0  0  0  0
    4.5000    0.0280    0.0000 C   0  0  0  0  0  0  0  0  0  0  0  0
    3.7420    1.3220    0.0000 C   0  0  0  0  0  0  0  0  0  0  0  0
    2.2420    1.3130    0.0000 C   0  0  0  0  0  0  0  0  0  0  0  0
    6.0000    0.0370    0.0000 C   0  0  0  0  0  0  0  0  0  0  0  0
    6.8890   -1.1710    0.0000 N   0  0  0  0  0  0  0  0  0  0  0  0
    8.3130   -0.6980    0.0000 C   0  0  0  0  0  0  0  0  0  0  0  0
    8.3030    0.8020    0.0000 S   0  0  0  0  0  0  0  0  0  0  0  0
    6.8740    1.2560    0.0000 C   0  0  0  0  0  0  0  0  0  0  0  0
    6.4020    2.6800    0.0000 C   0  0  0  0  0  0  0  0  0  0  0  0
    7.3980    3.8010    0.0000 C   0  0  0  0  0  0  0  0  0  0  0  0
    6.9260    5.2250    0.0000 O   0  0  0  0  0  0  0  0  0  0  0  0
    8.8680    3.4980    0.0000 O   0  0  0  0  0  0  0  0  0  0  0  0
    9.5320   -1.5730    0.0000 C   0  0  0  0  0  0  0  0  0  0  0  0
    9.3840   -3.0650    0.0000 C   0  0  0  0  0  0  0  0  0  0  0  0
   10.6030   -3.9390    0.0000 C   0  0  0  0  0  0  0  0  0  0  0  0
   11.9700   -3.3210    0.0000 C   0  0  0  0  0  0  0  0  0  0  0  0
   12.1170   -1.8280    0.0000 C   0  0  0  0  0  0  0  0  0  0  0  0
   10.8980   -0.9540    0.0000 C   0  0  0  0  0  0  0  0  0  0  0  0
  1  2  1  0  0  0  0
  2  3  1  0  0  0  0
  2  7  2  0  0  0  0
  3  4  2  0  0  0  0
  4  5  1  0  0  0  0
  5  6  2  0  0  0  0
  5  8  1  0  0  0  0
  6  7  1  0  0  0  0
  8  9  1  0  0  0  0
  8 12  2  0  0  0  0
  9 10  2  0  0  0  0
 10 11  1  0  0  0  0
 10 17  1  0  0  0  0
 11 12  1  0  0  0  0
 12 13  1  0  0  0  0
 13 14  1  0  0  0  0
 14 15  1  0  0  0  0
 14 16  2  0  0  0  0
 17 18  1  0  0  0  0
 17 22  2  0  0  0  0
 18 19  2  0  0  0  0
 19 20  1  0  0  0  0
 20 21  2  0  0  0  0
 21 22  1  0  0  0  0
M  END
>  <Index>
428

>  <ID>
HT0866

>  <class>
0

>  <apol>
45.705517

>  <ast_fraglike>
0

>  <ast_fraglike_ext>
0

>  <ast_violation>
2

>  <ast_violation_ext>
3

>  <a_acc>
3

>  <a_acid>
0

>  <a_aro>
17

>  <a_base>
0

>  <a_count>
34

>  <a_don>
2

>  <a_donacc>
5

>  <a_heavy>
22

>  <a_hyd>
18

>  <a_IC>
58.467319

>  <a_ICM>
1.719627

>  <a_nB>
0

>  <a_nBr>
0

>  <a_nC>
17

>  <a_nCl>
1

>  <a_nF>
0

>  <a_nH>
12

>  <a_nI>
0

>  <a_nN>
1

>  <a_nO>
2

>  <a_nP>
0

>  <a_nS>
1

>  <balabanJ>
1.6344405

>  <BCUT_PEOE_0>
-2.2456243

>  <BCUT_PEOE_1>
-0.64440912

>  <BCUT_PEOE_2>
0.69820029

>  <BCUT_PEOE_3>
2.3441823

>  <BCUT_SLOGP_0>
-2.2944806

>  <BCUT_SLOGP_1>
-0.53807992

>  <BCUT_SLOGP_2>
0.80591482

>  <BCUT_SLOGP_3>
2.455487

>  <BCUT_SMR_0>
-1.9777741

>  <BCUT_SMR_1>
-0.49986199

>  <BCUT_SMR_2>
0.85431087

>  <BCUT_SMR_3>
2.6473958

>  <bpol>
18.096483

>  <b_1rotN>
4

>  <b_1rotR>
0.16666667

>  <b_ar>
17

>  <b_count>
36

>  <b_double>
1

>  <b_heavy>
24

>  <b_max1len>
2

>  <b_rotN>
4

>  <b_rotR>
0.16666667

>  <b_single>
18

>  <b_triple>
0

>  <chi0>
15.526733

>  <chi0v>
13.064573

>  <chi0v_C>
9.4032593

>  <chi0_C>
11.112519

>  <chi1>
10.63103

>  <chi1v>
7.8557935

>  <chi1v_C>
5.1891575

>  <chi1_C>
7.2659864

>  <chiral>
0

>  <chiral_u>
0

>  <density>
0.81699359

>  <diameter>
11

>  <FCharge>
0

>  <GCUT_PEOE_0>
-0.75894892

>  <GCUT_PEOE_1>
-0.38868254

>  <GCUT_PEOE_2>
0.081771791

>  <GCUT_PEOE_3>
2.4028196

>  <GCUT_SLOGP_0>
-0.88936949

>  <GCUT_SLOGP_1>
-0.26386139

>  <GCUT_SLOGP_2>
0.16445385

>  <GCUT_SLOGP_3>
2.5766587

>  <GCUT_SMR_0>
-0.45746046

>  <GCUT_SMR_1>
-0.21605732

>  <GCUT_SMR_2>
0.27267331

>  <GCUT_SMR_3>
2.7364001

>  <Kier1>
16.84375

>  <Kier2>
7.7134986

>  <Kier3>
4.3083901

>  <KierA1>
13.60683

>  <KierA2>
6.1635609

>  <KierA3>
3.4155099

>  <KierFlex>
3.8121145

>  <lip_acc>
3

>  <lip_don>
1

>  <lip_druglike>
1

>  <lip_violation>
0

>  <logP(o/w)>
4.6690001

>  <logS>
-6.2534299

>  <mr>
9.1285906

>  <mutagenic>
0

>  <nmol>
1

>  <opr_brigid>
17

>  <opr_leadlike>
1

>  <opr_nring>
3

>  <opr_nrot>
4

>  <opr_violation>
1

>  <PC+>
0

>  <PC->
0

>  <PEOE_PC+>
1.4881684

>  <PEOE_PC->
-1.4881684

>  <PEOE_RPC+>
0.17680459

>  <PEOE_RPC->
0.22245057

>  <PEOE_VSA+0>
21.726131

>  <PEOE_VSA+1>
53.789337

>  <PEOE_VSA+2>
0

>  <PEOE_VSA+3>
19.760618

>  <PEOE_VSA+4>
10.324173

>  <PEOE_VSA+5>
14.708499

>  <PEOE_VSA+6>
0

>  <PEOE_VSA-0>
28.926888

>  <PEOE_VSA-1>
119.55087

>  <PEOE_VSA-2>
0

>  <PEOE_VSA-3>
0

>  <PEOE_VSA-4>
0

>  <PEOE_VSA-5>
19.249496

>  <PEOE_VSA-6>
7.7675405

>  <PEOE_VSA_FHYD>
0.82403964

>  <PEOE_VSA_FNEG>
0.59328157

>  <PEOE_VSA_FPNEG>
0.091334388

>  <PEOE_VSA_FPOL>
0.17596039

>  <PEOE_VSA_FPOS>
0.40671843

>  <PEOE_VSA_FPPOS>
0.084625997

>  <PEOE_VSA_HYD>
243.75385

>  <PEOE_VSA_NEG>
175.4948

>  <PEOE_VSA_PNEG>
27.017036

>  <PEOE_VSA_POL>
52.049709

>  <PEOE_VSA_POS>
120.30876

>  <PEOE_VSA_PPOS>
25.032671

>  <petitjean>
0.45454547

>  <petitjeanSC>
0.83333331

>  <Q_PC+>
0

>  <Q_PC->
0

>  <Q_RPC+>
0

>  <Q_RPC->
0

>  <Q_VSA_FHYD>
1

>  <Q_VSA_FNEG>
0

>  <Q_VSA_FPNEG>
0

>  <Q_VSA_FPOL>
0

>  <Q_VSA_FPOS>
1

>  <Q_VSA_FPPOS>
0

>  <Q_VSA_HYD>
295.80356

>  <Q_VSA_NEG>
0

>  <Q_VSA_PNEG>
0

>  <Q_VSA_POL>
0

>  <Q_VSA_POS>
295.80356

>  <Q_VSA_PPOS>
0

>  <radius>
6

>  <reactive>
0

>  <rings>
3

>  <RPC+>
0

>  <RPC->
0

>  <rsynth>
1

>  <SlogP>
4.7575698

>  <SlogP_VSA0>
0

>  <SlogP_VSA1>
24.530994

>  <SlogP_VSA2>
23.862217

>  <SlogP_VSA3>
25.385227

>  <SlogP_VSA4>
1.3584013

>  <SlogP_VSA5>
18.868406

>  <SlogP_VSA6>
3.5006065

>  <SlogP_VSA7>
168.84613

>  <SlogP_VSA8>
0

>  <SlogP_VSA9>
70.426331

>  <SMR>
8.9335804

>  <SMR_VSA0>
23.862217

>  <SMR_VSA1>
16.78553

>  <SMR_VSA2>
25.385227

>  <SMR_VSA3>
4.8590078

>  <SMR_VSA4>
10.057471

>  <SMR_VSA5>
177.65706

>  <SMR_VSA6>
7.7454643

>  <SMR_VSA7>
70.426331

>  <TPSA>
50.189999

>  <VAdjEq>
0.46637034

>  <VAdjMa>
5.5849624

>  <VDistEq>
3.1918485

>  <VDistMa>
8.6401339

>  <vdw_area>
295.80356

>  <vdw_vol>
403.68369

>  <vsa_acc>
5.6825762

>  <vsa_acid>
0

>  <vsa_base>
0

>  <vsa_don>
0

>  <vsa_hyd>
235.9241

>  <vsa_other>
14.708499

>  <vsa_pol>
32.816418

>  <Weight>
329.80701

>  <weinerPath>
1057

>  <weinerPol>
31

>  <zagreb>
114

$$$$