O(C)c1cc2[nH]nnc2cc1C(=O)NCC1N(CCC1)CC=C
  MOE2013           2D

 23 25  0  0  1  0  0  0  0  0999 V2000
    0.0000    0.0000    0.0000 O   0  0  0  0  0  0  0  0  0  0  0  0
   -0.7610   -1.2930    0.0000 C   0  0  0  0  0  0  0  0  0  0  0  0
   -0.7390    1.3050    0.0000 C   0  0  0  0  0  0  0  0  0  0  0  0
   -2.2390    1.3180    0.0000 C   0  0  0  0  0  0  0  0  0  0  0  0
   -2.9780    2.6230    0.0000 C   0  0  0  0  0  0  0  0  0  0  0  0
   -4.4420    2.9480    0.0000 N   0  0  0  0  0  0  0  0  0  0  0  0
   -4.5870    4.4410    0.0000 N   0  0  0  0  0  0  0  0  0  0  0  0
   -3.2110    5.0390    0.0000 N   0  0  0  0  0  0  0  0  0  0  0  0
   -2.2170    3.9160    0.0000 C   0  0  0  0  0  0  0  0  0  0  0  0
   -0.7170    3.9030    0.0000 C   0  0  0  0  0  0  0  0  0  0  0  0
    0.0220    2.5980    0.0000 C   0  0  0  0  0  0  0  0  0  0  0  0
    1.5220    2.5850    0.0000 C   0  0  0  0  0  0  0  0  0  0  0  0
    2.2610    1.2800    0.0000 O   0  0  0  0  0  0  0  0  0  0  0  0
    2.2830    3.8780    0.0000 N   0  0  0  0  0  0  0  0  0  0  0  0
    3.7830    3.8650    0.0000 C   0  0  0  0  0  0  0  0  0  0  0  0
    4.5440    5.1580    0.0000 C   0  0  3  0  0  0  0  0  0  0  0  0
    6.0370    5.3020    0.0000 N   0  0  3  0  0  0  0  0  0  0  0  0
    6.3610    6.7660    0.0000 C   0  0  0  0  0  0  0  0  0  0  0  0
    5.0690    7.5270    0.0000 C   0  0  0  0  0  0  0  0  0  0  0  0
    3.9450    6.5330    0.0000 C   0  0  0  0  0  0  0  0  0  0  0  0
    7.0310    4.1790    0.0000 C   0  0  0  0  0  0  0  0  0  0  0  0
    8.5010    4.4780    0.0000 C   0  0  0  0  0  0  0  0  0  0  0  0
    9.4950    3.3550    0.0000 C   0  0  0  0  0  0  0  0  0  0  0  0
  1  2  1  0  0  0  0
  1  3  1  0  0  0  0
  3  4  1  0  0  0  0
  3 11  2  0  0  0  0
  4  5  2  0  0  0  0
  5  6  1  0  0  0  0
  5  9  1  0  0  0  0
  6  7  1  0  0  0  0
  7  8  2  0  0  0  0
  8  9  1  0  0  0  0
  9 10  2  0  0  0  0
 10 11  1  0  0  0  0
 11 12  1  0  0  0  0
 12 13  2  0  0  0  0
 12 14  1  0  0  0  0
 14 15  1  0  0  0  0
 15 16  1  0  0  0  0
 16 17  1  0  0  0  0
 16 20  1  0  0  0  0
 17 18  1  0  0  0  0
 17 21  1  0  0  0  0
 18 19  1  0  0  0  0
 19 20  1  0  0  0  0
 21 22  1  0  0  0  0
 22 23  2  0  0  0  0
M  END
>  <Index>
44

>  <ID>
HT0100

>  <class>
0

>  <apol>
49.266651

>  <ast_fraglike>
0

>  <ast_fraglike_ext>
0

>  <ast_violation>
2

>  <ast_violation_ext>
3

>  <a_acc>
6

>  <a_acid>
0

>  <a_aro>
9

>  <a_base>
0

>  <a_count>
44

>  <a_don>
3

>  <a_donacc>
9

>  <a_heavy>
23

>  <a_hyd>
15

>  <a_IC>
70.366684

>  <a_ICM>
1.5992428

>  <a_nB>
0

>  <a_nBr>
0

>  <a_nC>
16

>  <a_nCl>
0

>  <a_nF>
0

>  <a_nH>
21

>  <a_nI>
0

>  <a_nN>
5

>  <a_nO>
2

>  <a_nP>
0

>  <a_nS>
0

>  <balabanJ>
1.5124726

>  <BCUT_PEOE_0>
-2.6306486

>  <BCUT_PEOE_1>
-0.63548887

>  <BCUT_PEOE_2>
0.64470905

>  <BCUT_PEOE_3>
2.7356088

>  <BCUT_SLOGP_0>
-2.7714522

>  <BCUT_SLOGP_1>
-0.57872415

>  <BCUT_SLOGP_2>
0.66507256

>  <BCUT_SLOGP_3>
2.7217853

>  <BCUT_SMR_0>
-2.3522925

>  <BCUT_SMR_1>
-0.44448701

>  <BCUT_SMR_2>
0.78749257

>  <BCUT_SMR_3>
3.0022991

>  <bpol>
29.131348

>  <b_1rotN>
6

>  <b_1rotR>
0.23999999

>  <b_ar>
10

>  <b_count>
46

>  <b_double>
2

>  <b_heavy>
25

>  <b_max1len>
4

>  <b_rotN>
7

>  <b_rotR>
0.28

>  <b_single>
34

>  <b_triple>
0

>  <chi0>
16.233841

>  <chi0v>
13.210179

>  <chi0v_C>
10.052042

>  <chi0_C>
11.120955

>  <chi1>
11.223877

>  <chi1v>
7.7456117

>  <chi1v_C>
4.5376935

>  <chi1_C>
5.6565967

>  <chiral>
1

>  <chiral_u>
1

>  <density>
0.74212182

>  <diameter>
12

>  <FCharge>
0

>  <GCUT_PEOE_0>
-0.85423058

>  <GCUT_PEOE_1>
-0.4293254

>  <GCUT_PEOE_2>
0.077778257

>  <GCUT_PEOE_3>
2.6585882

>  <GCUT_SLOGP_0>
-1.161581

>  <GCUT_SLOGP_1>
-0.3605994

>  <GCUT_SLOGP_2>
0.14677164

>  <GCUT_SLOGP_3>
2.664506

>  <GCUT_SMR_0>
-0.52641839

>  <GCUT_SMR_1>
-0.22459526

>  <GCUT_SMR_2>
0.2031434

>  <GCUT_SMR_3>
2.9128497

>  <Kier1>
17.811199

>  <Kier2>
8.3927336

>  <Kier3>
4.1587901

>  <KierA1>
13.400359

>  <KierA2>
6.2263002

>  <KierA3>
3.0525248

>  <KierFlex>
3.627594

>  <lip_acc>
7

>  <lip_don>
2

>  <lip_druglike>
1

>  <lip_violation>
0

>  <logP(o/w)>
2.0109999

>  <logS>
-2.29967

>  <mr>
8.7501602

>  <mutagenic>
0

>  <nmol>
1

>  <opr_brigid>
16

>  <opr_leadlike>
1

>  <opr_nring>
3

>  <opr_nrot>
7

>  <opr_violation>
0

>  <PC+>
0

>  <PC->
0

>  <PEOE_PC+>
1.9869851

>  <PEOE_PC->
-1.9869851

>  <PEOE_RPC+>
0.12816255

>  <PEOE_RPC->
0.17635819

>  <PEOE_VSA+0>
92.91674

>  <PEOE_VSA+1>
60.02047

>  <PEOE_VSA+2>
6.6995511

>  <PEOE_VSA+3>
17.238026

>  <PEOE_VSA+4>
0

>  <PEOE_VSA+5>
12.949531

>  <PEOE_VSA+6>
0

>  <PEOE_VSA-0>
55.104759

>  <PEOE_VSA-1>
25.414408

>  <PEOE_VSA-2>
31.722307

>  <PEOE_VSA-3>
0

>  <PEOE_VSA-4>
0

>  <PEOE_VSA-5>
17.442276

>  <PEOE_VSA-6>
2.6406472

>  <PEOE_VSA_FHYD>
0.89746207

>  <PEOE_VSA_FNEG>
0.41075563

>  <PEOE_VSA_FPNEG>
0.062340531

>  <PEOE_VSA_FPOL>
0.1025379

>  <PEOE_VSA_FPOS>
0.58924437

>  <PEOE_VSA_FPPOS>
0.040197369

>  <PEOE_VSA_HYD>
289.11627

>  <PEOE_VSA_NEG>
132.3244

>  <PEOE_VSA_PNEG>
20.082922

>  <PEOE_VSA_POL>
33.032452

>  <PEOE_VSA_POS>
189.82433

>  <PEOE_VSA_PPOS>
12.949531

>  <petitjean>
0.5

>  <petitjeanSC>
1

>  <Q_PC+>
0

>  <Q_PC->
0

>  <Q_RPC+>
0

>  <Q_RPC->
0

>  <Q_VSA_FHYD>
1

>  <Q_VSA_FNEG>
0

>  <Q_VSA_FPNEG>
0

>  <Q_VSA_FPOL>
0

>  <Q_VSA_FPOS>
1

>  <Q_VSA_FPPOS>
0

>  <Q_VSA_HYD>
322.14871

>  <Q_VSA_NEG>
0

>  <Q_VSA_PNEG>
0

>  <Q_VSA_POL>
0

>  <Q_VSA_POS>
322.14871

>  <Q_VSA_PPOS>
0

>  <radius>
6

>  <reactive>
0

>  <rings>
3

>  <RPC+>
0

>  <RPC->
0

>  <rsynth>
0.60869563

>  <SlogP>
1.3467

>  <SlogP_VSA0>
29.010639

>  <SlogP_VSA1>
41.58659

>  <SlogP_VSA2>
20.644976

>  <SlogP_VSA3>
55.318733

>  <SlogP_VSA4>
27.047791

>  <SlogP_VSA5>
35.383869

>  <SlogP_VSA6>
0

>  <SlogP_VSA7>
57.217827

>  <SlogP_VSA8>
37.736813

>  <SlogP_VSA9>
37.344223

>  <SMR>
8.7565899

>  <SMR_VSA0>
23.862217

>  <SMR_VSA1>
47.327694

>  <SMR_VSA2>
34.673759

>  <SMR_VSA3>
12.410972

>  <SMR_VSA4>
4.2882738

>  <SMR_VSA5>
90.666367

>  <SMR_VSA6>
60.577518

>  <SMR_VSA7>
67.484665

>  <TPSA>
83.139999

>  <VAdjEq>
0.45137304

>  <VAdjMa>
5.643856

>  <VDistEq>
3.3817077

>  <VDistMa>
8.7439032

>  <vdw_area>
322.14871

>  <vdw_vol>
424.96661

>  <vsa_acc>
29.230181

>  <vsa_acid>
0

>  <vsa_base>
0

>  <vsa_don>
5.6825762

>  <vsa_hyd>
235.77359

>  <vsa_other>
12.949531

>  <vsa_pol>
53.754837

>  <Weight>
315.37698

>  <weinerPath>
1269

>  <weinerPol>
33

>  <zagreb>
118

$$$$