P(OCN1C(=O)C(NC1=O)(c1ccccc1)c1ccccc1)(O)(O)=O
  MOE2013           2D

 25 27  0  0  0  0  0  0  0  0999 V2000
    0.0000    0.0000    0.0000 P   0  0  0  0  0  0  0  0  0  0  0  0
   -1.3000   -0.7490    0.0000 O   0  0  0  0  0  0  0  0  0  0  0  0
   -2.5980    0.0030    0.0000 C   0  0  0  0  0  0  0  0  0  0  0  0
   -3.8980   -0.7460    0.0000 N   0  0  0  0  0  0  0  0  0  0  0  0
   -5.2680   -0.1350    0.0000 C   0  0  0  0  0  0  0  0  0  0  0  0
   -5.5780    1.3330    0.0000 O   0  0  0  0  0  0  0  0  0  0  0  0
   -6.2720   -1.2480    0.0000 C   0  0  0  0  0  0  0  0  0  0  0  0
   -5.5240   -2.5480    0.0000 N   0  0  0  0  0  0  0  0  0  0  0  0
   -4.0560   -2.2380    0.0000 C   0  0  0  0  0  0  0  0  0  0  0  0
   -2.9420   -3.2420    0.0000 O   0  0  0  0  0  0  0  0  0  0  0  0
   -7.2700   -0.1280    0.0000 C   0  0  0  0  0  0  0  0  0  0  0  0
   -7.0530    1.3560    0.0000 C   0  0  0  0  0  0  0  0  0  0  0  0
   -8.2300    2.2860    0.0000 C   0  0  0  0  0  0  0  0  0  0  0  0
   -9.6240    1.7320    0.0000 C   0  0  0  0  0  0  0  0  0  0  0  0
   -9.8410    0.2470    0.0000 C   0  0  0  0  0  0  0  0  0  0  0  0
   -8.6640   -0.6830    0.0000 C   0  0  0  0  0  0  0  0  0  0  0  0
   -7.3480   -2.2940    0.0000 C   0  0  0  0  0  0  0  0  0  0  0  0
   -6.9800   -3.7480    0.0000 C   0  0  0  0  0  0  0  0  0  0  0  0
   -8.0560   -4.7940    0.0000 C   0  0  0  0  0  0  0  0  0  0  0  0
   -9.4990   -4.3850    0.0000 C   0  0  0  0  0  0  0  0  0  0  0  0
   -9.8670   -2.9310    0.0000 C   0  0  0  0  0  0  0  0  0  0  0  0
   -8.7910   -1.8850    0.0000 C   0  0  0  0  0  0  0  0  0  0  0  0
    1.3000    0.7490    0.0000 O   0  0  0  0  0  0  0  0  0  0  0  0
    0.7490   -1.3000    0.0000 O   0  0  0  0  0  0  0  0  0  0  0  0
   -0.7490    1.3000    0.0000 O   0  0  0  0  0  0  0  0  0  0  0  0
  1  2  1  0  0  0  0
  1 23  1  0  0  0  0
  1 24  1  0  0  0  0
  1 25  2  0  0  0  0
  2  3  1  0  0  0  0
  3  4  1  0  0  0  0
  4  5  1  0  0  0  0
  4  9  1  0  0  0  0
  5  6  2  0  0  0  0
  5  7  1  0  0  0  0
  7  8  1  0  0  0  0
  7 11  1  0  0  0  0
  7 17  1  0  0  0  0
  8  9  1  0  0  0  0
  9 10  2  0  0  0  0
 11 12  1  0  0  0  0
 11 16  2  0  0  0  0
 12 13  2  0  0  0  0
 13 14  1  0  0  0  0
 14 15  2  0  0  0  0
 15 16  1  0  0  0  0
 17 18  1  0  0  0  0
 17 22  2  0  0  0  0
 18 19  2  0  0  0  0
 19 20  1  0  0  0  0
 20 21  2  0  0  0  0
 21 22  1  0  0  0  0
M  END
>  <Index>
464

>  <ID>
HT0939

>  <class>
0

>  <apol>
48.803894

>  <ast_fraglike>
0

>  <ast_fraglike_ext>
0

>  <ast_violation>
3

>  <ast_violation_ext>
5

>  <a_acc>
6

>  <a_acid>
0

>  <a_aro>
12

>  <a_base>
0

>  <a_count>
40

>  <a_don>
4

>  <a_donacc>
10

>  <a_heavy>
25

>  <a_hyd>
13

>  <a_IC>
72.763992

>  <a_ICM>
1.8190998

>  <a_nB>
0

>  <a_nBr>
0

>  <a_nC>
16

>  <a_nCl>
0

>  <a_nF>
0

>  <a_nH>
15

>  <a_nI>
0

>  <a_nN>
2

>  <a_nO>
6

>  <a_nP>
1

>  <a_nS>
0

>  <balabanJ>
1.8338339

>  <BCUT_PEOE_0>
-2.4286509

>  <BCUT_PEOE_1>
-0.64894301

>  <BCUT_PEOE_2>
0.69769239

>  <BCUT_PEOE_3>
2.5994909

>  <BCUT_SLOGP_0>
-2.5233641

>  <BCUT_SLOGP_1>
-0.53807992

>  <BCUT_SLOGP_2>
0.72155833

>  <BCUT_SLOGP_3>
2.5640759

>  <BCUT_SMR_0>
-2.1419122

>  <BCUT_SMR_1>
-0.49109584

>  <BCUT_SMR_2>
0.85431087

>  <BCUT_SMR_3>
2.8883169

>  <bpol>
31.308105

>  <b_1rotN>
5

>  <b_1rotR>
0.18518518

>  <b_ar>
12

>  <b_count>
42

>  <b_double>
2

>  <b_heavy>
27

>  <b_max1len>
5

>  <b_rotN>
5

>  <b_rotR>
0.18518518

>  <b_single>
28

>  <b_triple>
0

>  <chi0>
18.07914

>  <chi0v>
13.796885

>  <chi0v_C>
8.9806099

>  <chi0_C>
10.587576

>  <chi1>
11.843989

>  <chi1v>
8.827177

>  <chi1v_C>
4.5713673

>  <chi1_C>
6.4990187

>  <chiral>
0

>  <chiral_u>
0

>  <density>
0.84770381

>  <diameter>
10

>  <FCharge>
0

>  <GCUT_PEOE_0>
-0.82498747

>  <GCUT_PEOE_1>
-0.41388425

>  <GCUT_PEOE_2>
0.079473063

>  <GCUT_PEOE_3>
2.6433928

>  <GCUT_SLOGP_0>
-1.2939718

>  <GCUT_SLOGP_1>
-0.32662174

>  <GCUT_SLOGP_2>
0.13977735

>  <GCUT_SLOGP_3>
2.6918833

>  <GCUT_SMR_0>
-0.48797593

>  <GCUT_SMR_1>
-0.21605732

>  <GCUT_SMR_2>
0.19305076

>  <GCUT_SMR_3>
2.9325409

>  <Kier1>
19.753086

>  <Kier2>
7.9349999

>  <Kier3>
4.1352797

>  <KierA1>
15.360947

>  <KierA2>
6.1014657

>  <KierA3>
3.1529338

>  <KierFlex>
3.7489717

>  <lip_acc>
8

>  <lip_don>
3

>  <lip_druglike>
1

>  <lip_violation>
0

>  <logP(o/w)>
1.175

>  <logS>
-2.8608301

>  <mr>
9.1886044

>  <mutagenic>
0

>  <nmol>
1

>  <opr_brigid>
17

>  <opr_leadlike>
1

>  <opr_nring>
3

>  <opr_nrot>
5

>  <opr_violation>
0

>  <PC+>
0

>  <PC->
0

>  <PEOE_PC+>
2.5789428

>  <PEOE_PC->
-2.5789428

>  <PEOE_RPC+>
0.18812923

>  <PEOE_RPC->
0.13595429

>  <PEOE_VSA+0>
0

>  <PEOE_VSA+1>
51.184631

>  <PEOE_VSA+2>
28.061317

>  <PEOE_VSA+3>
0

>  <PEOE_VSA+4>
51.038418

>  <PEOE_VSA+5>
0

>  <PEOE_VSA+6>
18.713068

>  <PEOE_VSA-0>
20.146215

>  <PEOE_VSA-1>
122.54904

>  <PEOE_VSA-2>
0

>  <PEOE_VSA-3>
4.6659718

>  <PEOE_VSA-4>
19.859512

>  <PEOE_VSA-5>
0

>  <PEOE_VSA-6>
27.270733

>  <PEOE_VSA_FHYD>
0.65972197

>  <PEOE_VSA_FNEG>
0.56622344

>  <PEOE_VSA_FPNEG>
0.13721038

>  <PEOE_VSA_FPOL>
0.34027803

>  <PEOE_VSA_FPOS>
0.43377656

>  <PEOE_VSA_FPPOS>
0.20306766

>  <PEOE_VSA_HYD>
226.60718

>  <PEOE_VSA_NEG>
194.49147

>  <PEOE_VSA_PNEG>
47.130245

>  <PEOE_VSA_POL>
116.88173

>  <PEOE_VSA_POS>
148.99744

>  <PEOE_VSA_PPOS>
69.751488

>  <petitjean>
0.5

>  <petitjeanSC>
1

>  <Q_PC+>
0

>  <Q_PC->
0

>  <Q_RPC+>
0

>  <Q_RPC->
0

>  <Q_VSA_FHYD>
1

>  <Q_VSA_FNEG>
0

>  <Q_VSA_FPNEG>
0

>  <Q_VSA_FPOL>
0

>  <Q_VSA_FPOS>
1

>  <Q_VSA_FPPOS>
0

>  <Q_VSA_HYD>
343.48892

>  <Q_VSA_NEG>
0

>  <Q_VSA_PNEG>
0

>  <Q_VSA_POL>
0

>  <Q_VSA_POS>
343.48892

>  <Q_VSA_PPOS>
0

>  <radius>
5

>  <reactive>
1

>  <rings>
3

>  <RPC+>
0

>  <RPC->
0

>  <rsynth>
1

>  <SlogP>
0.79009998

>  <SlogP_VSA0>
83.058456

>  <SlogP_VSA1>
13.213054

>  <SlogP_VSA2>
30.783846

>  <SlogP_VSA3>
20.497431

>  <SlogP_VSA4>
6.37115

>  <SlogP_VSA5>
0

>  <SlogP_VSA6>
0

>  <SlogP_VSA7>
176.43184

>  <SlogP_VSA8>
0

>  <SlogP_VSA9>
40.557056

>  <SMR>
8.6468296

>  <SMR_VSA0>
77.079826

>  <SMR_VSA1>
45.738251

>  <SMR_VSA2>
18.01075

>  <SMR_VSA3>
6.37115

>  <SMR_VSA4>
0

>  <SMR_VSA5>
176.43184

>  <SMR_VSA6>
30.58617

>  <SMR_VSA7>
16.694841

>  <TPSA>
116.17

>  <VAdjEq>
0.42433795

>  <VAdjMa>
5.7548876

>  <VDistEq>
3.1536746

>  <VDistMa>
9.0335598

>  <vdw_area>
343.48892

>  <vdw_vol>
427.36389

>  <vsa_acc>
31.799814

>  <vsa_acid>
0

>  <vsa_base>
0

>  <vsa_don>
5.6825762

>  <vsa_hyd>
162.50203

>  <vsa_other>
75.652626

>  <vsa_pol>
84.6698

>  <Weight>
362.27798

>  <weinerPath>
1371

>  <weinerPol>
42

>  <zagreb>
134

$$$$