O1C2=CC(=O)C=CC2=C(c2c1cc(O)cc2)c1ccccc1C(O)=O
  MOE2013           2D

 25 28  0  0  0  0  0  0  0  0999 V2000
    0.0000    0.0000    0.0000 O   0  0  0  0  0  0  0  0  0  0  0  0
   -1.2930   -0.7600    0.0000 C   0  0  0  0  0  0  0  0  0  0  0  0
   -2.5980   -0.0190    0.0000 C   0  0  0  0  0  0  0  0  0  0  0  0
   -3.8910   -0.7790    0.0000 C   0  0  0  0  0  0  0  0  0  0  0  0
   -5.1960   -0.0390    0.0000 O   0  0  0  0  0  0  0  0  0  0  0  0
   -3.8800   -2.2790    0.0000 C   0  0  0  0  0  0  0  0  0  0  0  0
   -2.5760   -3.0190    0.0000 C   0  0  0  0  0  0  0  0  0  0  0  0
   -1.2820   -2.2600    0.0000 C   0  0  0  0  0  0  0  0  0  0  0  0
    0.0220   -3.0000    0.0000 C   0  0  0  0  0  0  0  0  0  0  0  0
    1.3160   -2.2400    0.0000 C   0  0  0  0  0  0  0  0  0  0  0  0
    1.3050   -0.7400    0.0000 C   0  0  0  0  0  0  0  0  0  0  0  0
    2.5980    0.0190    0.0000 C   0  0  0  0  0  0  0  0  0  0  0  0
    3.9030   -0.7210    0.0000 C   0  0  0  0  0  0  0  0  0  0  0  0
    5.1960    0.0390    0.0000 O   0  0  0  0  0  0  0  0  0  0  0  0
    3.9140   -2.2210    0.0000 C   0  0  0  0  0  0  0  0  0  0  0  0
    2.6200   -2.9810    0.0000 C   0  0  0  0  0  0  0  0  0  0  0  0
    0.2940   -4.4750    0.0000 C   0  0  0  0  0  0  0  0  0  0  0  0
    1.7940   -4.4640    0.0000 C   0  0  0  0  0  0  0  0  0  0  0  0
    2.5540   -5.7570    0.0000 C   0  0  0  0  0  0  0  0  0  0  0  0
    1.8130   -7.0620    0.0000 C   0  0  0  0  0  0  0  0  0  0  0  0
    0.3130   -7.0730    0.0000 C   0  0  0  0  0  0  0  0  0  0  0  0
   -0.4460   -5.7800    0.0000 C   0  0  0  0  0  0  0  0  0  0  0  0
   -1.9220   -6.0510    0.0000 C   0  0  0  0  0  0  0  0  0  0  0  0
   -2.8940   -4.9090    0.0000 O   0  0  0  0  0  0  0  0  0  0  0  0
   -2.4240   -7.4650    0.0000 O   0  0  0  0  0  0  0  0  0  0  0  0
  1  2  1  0  0  0  0
  1 11  1  0  0  0  0
  2  3  2  0  0  0  0
  2  8  1  0  0  0  0
  3  4  1  0  0  0  0
  4  5  2  0  0  0  0
  4  6  1  0  0  0  0
  6  7  2  0  0  0  0
  7  8  1  0  0  0  0
  8  9  2  0  0  0  0
  9 10  1  0  0  0  0
  9 17  1  0  0  0  0
 10 11  1  0  0  0  0
 10 16  2  0  0  0  0
 11 12  2  0  0  0  0
 12 13  1  0  0  0  0
 13 14  1  0  0  0  0
 13 15  2  0  0  0  0
 15 16  1  0  0  0  0
 17 18  1  0  0  0  0
 17 22  2  0  0  0  0
 18 19  2  0  0  0  0
 19 20  1  0  0  0  0
 20 21  2  0  0  0  0
 21 22  1  0  0  0  0
 22 23  1  0  0  0  0
 23 24  1  0  0  0  0
 23 25  2  0  0  0  0
M  END
>  <Index>
447

>  <ID>
HT0907

>  <class>
0

>  <apol>
47.211517

>  <ast_fraglike>
0

>  <ast_fraglike_ext>
0

>  <ast_violation>
3

>  <ast_violation_ext>
3

>  <a_acc>
4

>  <a_acid>
0

>  <a_aro>
12

>  <a_base>
0

>  <a_count>
37

>  <a_don>
3

>  <a_donacc>
7

>  <a_heavy>
25

>  <a_hyd>
18

>  <a_IC>
51.682022

>  <a_ICM>
1.3968114

>  <a_nB>
0

>  <a_nBr>
0

>  <a_nC>
20

>  <a_nCl>
0

>  <a_nF>
0

>  <a_nH>
12

>  <a_nI>
0

>  <a_nN>
0

>  <a_nO>
5

>  <a_nP>
0

>  <a_nS>
0

>  <balabanJ>
1.6354841

>  <BCUT_PEOE_0>
-2.3540449

>  <BCUT_PEOE_1>
-0.68145812

>  <BCUT_PEOE_2>
0.73204881

>  <BCUT_PEOE_3>
2.3617067

>  <BCUT_SLOGP_0>
-2.2600443

>  <BCUT_SLOGP_1>
-0.58438081

>  <BCUT_SLOGP_2>
0.7990362

>  <BCUT_SLOGP_3>
2.4989784

>  <BCUT_SMR_0>
-2.0301814

>  <BCUT_SMR_1>
-0.51336837

>  <BCUT_SMR_2>
0.90327805

>  <BCUT_SMR_3>
2.6831954

>  <bpol>
16.950483

>  <b_1rotN>
2

>  <b_1rotR>
0.071428575

>  <b_ar>
12

>  <b_count>
40

>  <b_double>
5

>  <b_heavy>
28

>  <b_max1len>
1

>  <b_rotN>
2

>  <b_rotR>
0.071428575

>  <b_single>
23

>  <b_triple>
0

>  <chi0>
17.551678

>  <chi0v>
12.892674

>  <chi0v_C>
10.773502

>  <chi0_C>
12.84457

>  <chi1>
12.041714

>  <chi1v>
7.5671282

>  <chi1v_C>
6.3034182

>  <chi1_C>
8.9158163

>  <chiral>
0

>  <chiral_u>
0

>  <density>
0.78404182

>  <diameter>
9

>  <FCharge>
0

>  <GCUT_PEOE_0>
-0.76355332

>  <GCUT_PEOE_1>
-0.49433446

>  <GCUT_PEOE_2>
0.085516661

>  <GCUT_PEOE_3>
2.5854466

>  <GCUT_SLOGP_0>
-0.85422516

>  <GCUT_SLOGP_1>
-0.38885152

>  <GCUT_SLOGP_2>
0.16448365

>  <GCUT_SLOGP_3>
2.7123389

>  <GCUT_SMR_0>
-0.42970988

>  <GCUT_SMR_1>
-0.23905662

>  <GCUT_SMR_2>
0.2547783

>  <GCUT_SMR_3>
2.8898625

>  <Kier1>
18.367348

>  <Kier2>
7.5526471

>  <Kier3>
3.575254

>  <KierA1>
12.479758

>  <KierA2>
5.0414157

>  <KierA3>
2.3548024

>  <KierFlex>
2.5166261

>  <lip_acc>
5

>  <lip_don>
2

>  <lip_druglike>
1

>  <lip_violation>
0

>  <logP(o/w)>
4.0900002

>  <logS>
-5.3355999

>  <mr>
8.9733257

>  <mutagenic>
0

>  <nmol>
1

>  <opr_brigid>
22

>  <opr_leadlike>
1

>  <opr_nring>
4

>  <opr_nrot>
2

>  <opr_violation>
0

>  <PC+>
0

>  <PC->
0

>  <PEOE_PC+>
1.9129168

>  <PEOE_PC->
-1.9129168

>  <PEOE_RPC+>
0.15255566

>  <PEOE_RPC->
0.18806317

>  <PEOE_VSA+0>
18.880524

>  <PEOE_VSA+1>
70.237961

>  <PEOE_VSA+2>
0

>  <PEOE_VSA+3>
8.458519

>  <PEOE_VSA+4>
20.648346

>  <PEOE_VSA+5>
14.708499

>  <PEOE_VSA+6>
0

>  <PEOE_VSA-0>
75.737961

>  <PEOE_VSA-1>
36.764713

>  <PEOE_VSA-2>
0

>  <PEOE_VSA-3>
0

>  <PEOE_VSA-4>
0

>  <PEOE_VSA-5>
27.133842

>  <PEOE_VSA-6>
18.038837

>  <PEOE_VSA_FHYD>
0.72289407

>  <PEOE_VSA_FNEG>
0.54256833

>  <PEOE_VSA_FPNEG>
0.15544133

>  <PEOE_VSA_FPOL>
0.2771059

>  <PEOE_VSA_FPOS>
0.45743164

>  <PEOE_VSA_FPPOS>
0.12166458

>  <PEOE_VSA_HYD>
210.07968

>  <PEOE_VSA_NEG>
157.67535

>  <PEOE_VSA_PNEG>
45.17268

>  <PEOE_VSA_POL>
80.529526

>  <PEOE_VSA_POS>
132.93384

>  <PEOE_VSA_PPOS>
35.356846

>  <petitjean>
0.44444445

>  <petitjeanSC>
0.80000001

>  <Q_PC+>
0

>  <Q_PC->
0

>  <Q_RPC+>
0

>  <Q_RPC->
0

>  <Q_VSA_FHYD>
1

>  <Q_VSA_FNEG>
0

>  <Q_VSA_FPNEG>
0

>  <Q_VSA_FPOL>
0

>  <Q_VSA_FPOS>
1

>  <Q_VSA_FPPOS>
0

>  <Q_VSA_HYD>
290.60919

>  <Q_VSA_NEG>
0

>  <Q_VSA_PNEG>
0

>  <Q_VSA_POL>
0

>  <Q_VSA_POS>
290.60919

>  <Q_VSA_PPOS>
0

>  <radius>
5

>  <reactive>
0

>  <rings>
4

>  <RPC+>
0

>  <RPC->
0

>  <rsynth>
1

>  <SlogP>
3.12479

>  <SlogP_VSA0>
36.385113

>  <SlogP_VSA1>
13.433075

>  <SlogP_VSA2>
23.862217

>  <SlogP_VSA3>
28.570801

>  <SlogP_VSA4>
33.418941

>  <SlogP_VSA5>
8.4290028

>  <SlogP_VSA6>
0

>  <SlogP_VSA7>
176.43184

>  <SlogP_VSA8>
0

>  <SlogP_VSA9>
10.486856

>  <SMR>
8.9326096

>  <SMR_VSA0>
47.724434

>  <SMR_VSA1>
36.385113

>  <SMR_VSA2>
28.570801

>  <SMR_VSA3>
28.472584

>  <SMR_VSA4>
0

>  <SMR_VSA5>
176.43184

>  <SMR_VSA6>
13.433075

>  <SMR_VSA7>
0

>  <TPSA>
83.830002

>  <VAdjEq>
0.43513325

>  <VAdjMa>
5.8073549

>  <VDistEq>
3.0166893

>  <VDistMa>
9.0501804

>  <vdw_area>
290.60919

>  <vdw_vol>
423.84344

>  <vsa_acc>
13.566921

>  <vsa_acid>
0

>  <vsa_base>
0

>  <vsa_don>
0

>  <vsa_hyd>
194.5032

>  <vsa_other>
25.670774

>  <vsa_pol>
54.267685

>  <Weight>
332.311

>  <weinerPath>
1304

>  <weinerPol>
45

>  <zagreb>
138

$$$$