O(CCCOC)c1cc(ccc1OC)CC(C(C)C)CC(N)C(O)CC(C(C)C)C(=O)NCC(C(=O)N)(C)C
  MOE2013           2D

 39 39  0  0  1  0  0  0  0  0999 V2000
    0.0000    0.0000    0.0000 O   0  0  0  0  0  0  0  0  0  0  0  0
   -0.7490    1.2990    0.0000 C   0  0  0  0  0  0  0  0  0  0  0  0
    0.0010    2.5980    0.0000 C   0  0  0  0  0  0  0  0  0  0  0  0
   -0.7480    3.8970    0.0000 C   0  0  0  0  0  0  0  0  0  0  0  0
    0.0020    5.1960    0.0000 O   0  0  0  0  0  0  0  0  0  0  0  0
   -0.7470    6.4960    0.0000 C   0  0  0  0  0  0  0  0  0  0  0  0
   -0.7510   -1.2990    0.0000 C   0  0  0  0  0  0  0  0  0  0  0  0
   -2.2510   -1.2980    0.0000 C   0  0  0  0  0  0  0  0  0  0  0  0
   -3.0010   -2.5970    0.0000 C   0  0  0  0  0  0  0  0  0  0  0  0
   -2.2520   -3.8960    0.0000 C   0  0  0  0  0  0  0  0  0  0  0  0
   -0.7520   -3.8970    0.0000 C   0  0  0  0  0  0  0  0  0  0  0  0
   -0.0010   -2.5980    0.0000 C   0  0  0  0  0  0  0  0  0  0  0  0
    1.4990   -2.5990    0.0000 O   0  0  0  0  0  0  0  0  0  0  0  0
    2.2480   -3.8980    0.0000 C   0  0  0  0  0  0  0  0  0  0  0  0
   -4.5010   -2.5960    0.0000 C   0  0  0  0  0  0  0  0  0  0  0  0
   -5.2520   -3.8950    0.0000 C   0  0  3  0  0  0  0  0  0  0  0  0
   -4.5020   -5.1940    0.0000 C   0  0  0  0  0  0  0  0  0  0  0  0
   -5.2530   -6.4930    0.0000 C   0  0  0  0  0  0  0  0  0  0  0  0
   -3.0020   -5.1950    0.0000 C   0  0  0  0  0  0  0  0  0  0  0  0
   -6.7520   -3.8940    0.0000 C   0  0  0  0  0  0  0  0  0  0  0  0
   -7.5010   -2.5950    0.0000 C   0  0  3  0  0  0  0  0  0  0  0  0
   -6.7510   -1.2960    0.0000 N   0  0  0  0  0  0  0  0  0  0  0  0
   -9.0010   -2.5940    0.0000 C   0  0  3  0  0  0  0  0  0  0  0  0
   -9.7520   -3.8930    0.0000 O   0  0  0  0  0  0  0  0  0  0  0  0
   -9.7510   -1.2950    0.0000 C   0  0  0  0  0  0  0  0  0  0  0  0
  -11.2510   -1.2940    0.0000 C   0  0  3  0  0  0  0  0  0  0  0  0
  -12.0010   -2.5930    0.0000 C   0  0  0  0  0  0  0  0  0  0  0  0
  -13.5010   -2.5920    0.0000 C   0  0  0  0  0  0  0  0  0  0  0  0
  -11.2520   -3.8920    0.0000 C   0  0  0  0  0  0  0  0  0  0  0  0
  -12.0000    0.0050    0.0000 C   0  0  0  0  0  0  0  0  0  0  0  0
  -11.2490    1.3040    0.0000 O   0  0  0  0  0  0  0  0  0  0  0  0
  -13.5000    0.0060    0.0000 N   0  0  0  0  0  0  0  0  0  0  0  0
  -14.2490    1.3050    0.0000 C   0  0  0  0  0  0  0  0  0  0  0  0
  -15.7490    1.3060    0.0000 C   0  0  0  0  0  0  0  0  0  0  0  0
  -17.2490    1.3070    0.0000 C   0  0  0  0  0  0  0  0  0  0  0  0
  -18.0000    0.0080    0.0000 O   0  0  0  0  0  0  0  0  0  0  0  0
  -17.9990    2.6060    0.0000 N   0  0  0  0  0  0  0  0  0  0  0  0
  -15.7490    2.8060    0.0000 C   0  0  0  0  0  0  0  0  0  0  0  0
  -15.7500   -0.1940    0.0000 C   0  0  0  0  0  0  0  0  0  0  0  0
  1  2  1  0  0  0  0
  1  7  1  0  0  0  0
  2  3  1  0  0  0  0
  3  4  1  0  0  0  0
  4  5  1  0  0  0  0
  5  6  1  0  0  0  0
  7  8  1  0  0  0  0
  7 12  2  0  0  0  0
  8  9  2  0  0  0  0
  9 10  1  0  0  0  0
  9 15  1  0  0  0  0
 10 11  2  0  0  0  0
 11 12  1  0  0  0  0
 12 13  1  0  0  0  0
 13 14  1  0  0  0  0
 15 16  1  0  0  0  0
 16 17  1  0  0  0  0
 16 20  1  0  0  0  0
 17 18  1  0  0  0  0
 17 19  1  0  0  0  0
 20 21  1  0  0  0  0
 21 22  1  0  0  0  0
 21 23  1  0  0  0  0
 23 24  1  0  0  0  0
 23 25  1  0  0  0  0
 25 26  1  0  0  0  0
 26 27  1  0  0  0  0
 26 30  1  0  0  0  0
 27 28  1  0  0  0  0
 27 29  1  0  0  0  0
 30 31  2  0  0  0  0
 30 32  1  0  0  0  0
 32 33  1  0  0  0  0
 33 34  1  0  0  0  0
 34 35  1  0  0  0  0
 34 38  1  0  0  0  0
 34 39  1  0  0  0  0
 35 36  2  0  0  0  0
 35 37  1  0  0  0  0
M  END
>  <Index>
42

>  <ID>
HT0098

>  <class>
0

>  <apol>
96.252029

>  <ast_fraglike>
0

>  <ast_fraglike_ext>
0

>  <ast_violation>
4

>  <ast_violation_ext>
6

>  <a_acc>
7

>  <a_acid>
0

>  <a_aro>
6

>  <a_base>
0

>  <a_count>
92

>  <a_don>
4

>  <a_donacc>
11

>  <a_heavy>
39

>  <a_hyd>
28

>  <a_IC>
129.11653

>  <a_ICM>
1.4034406

>  <a_nB>
0

>  <a_nBr>
0

>  <a_nC>
30

>  <a_nCl>
0

>  <a_nF>
0

>  <a_nH>
53

>  <a_nI>
0

>  <a_nN>
3

>  <a_nO>
6

>  <a_nP>
0

>  <a_nS>
0

>  <balabanJ>
2.7220669

>  <BCUT_PEOE_0>
-2.7861774

>  <BCUT_PEOE_1>
-0.42931068

>  <BCUT_PEOE_2>
0.35022789

>  <BCUT_PEOE_3>
2.7599976

>  <BCUT_SLOGP_0>
-2.8625858

>  <BCUT_SLOGP_1>
-0.38209993

>  <BCUT_SLOGP_2>
0.41985911

>  <BCUT_SLOGP_3>
2.7822731

>  <BCUT_SMR_0>
-2.5390642

>  <BCUT_SMR_1>
-0.26921642

>  <BCUT_SMR_2>
0.55314684

>  <BCUT_SMR_3>
3.002692

>  <bpol>
64.94397

>  <b_1rotN>
19

>  <b_1rotR>
0.48717949

>  <b_ar>
6

>  <b_count>
92

>  <b_double>
2

>  <b_heavy>
39

>  <b_max1len>
11

>  <b_rotN>
20

>  <b_rotR>
0.51282054

>  <b_single>
84

>  <b_triple>
0

>  <chi0>
29.750347

>  <chi0v>
25.289055

>  <chi0v_C>
21.145901

>  <chi0_C>
21.921921

>  <chi1>
18.226488

>  <chi1v>
14.028563

>  <chi1v_C>
10.334458

>  <chi1_C>
11.200779

>  <chiral>
4

>  <chiral_u>
4

>  <density>
0.68656671

>  <diameter>
21

>  <FCharge>
0

>  <GCUT_PEOE_0>
-0.83945233

>  <GCUT_PEOE_1>
-0.34922618

>  <GCUT_PEOE_2>
0.0031674064

>  <GCUT_PEOE_3>
3.0913119

>  <GCUT_SLOGP_0>
-1.3708283

>  <GCUT_SLOGP_1>
-0.27094388

>  <GCUT_SLOGP_2>
0.054200001

>  <GCUT_SLOGP_3>
3.1229508

>  <GCUT_SMR_0>
-0.53819609

>  <GCUT_SMR_1>
-0.18863386

>  <GCUT_SMR_2>
0.094489425

>  <GCUT_SMR_3>
3.3158

>  <Kier1>
37.025642

>  <Kier2>
18.519758

>  <Kier3>
13.235152

>  <KierA1>
32.261253

>  <KierA2>
16.075804

>  <KierA3>
11.457483

>  <KierFlex>
13.298092

>  <lip_acc>
9

>  <lip_don>
6

>  <lip_druglike>
0

>  <lip_violation>
2

>  <logP(o/w)>
3.31074

>  <logS>
-5.6690402

>  <mr>
15.548096

>  <mutagenic>
0

>  <nmol>
1

>  <opr_brigid>
6

>  <opr_leadlike>
0

>  <opr_nring>
1

>  <opr_nrot>
19

>  <opr_violation>
4

>  <PC+>
0

>  <PC->
0

>  <PEOE_PC+>
3.7466793

>  <PEOE_PC->
-3.7466793

>  <PEOE_RPC+>
0.060255259

>  <PEOE_RPC->
0.10415471

>  <PEOE_VSA+0>
222.04263

>  <PEOE_VSA+1>
79.571625

>  <PEOE_VSA+2>
34.155064

>  <PEOE_VSA+3>
25.857038

>  <PEOE_VSA+4>
36.223236

>  <PEOE_VSA+5>
0

>  <PEOE_VSA+6>
0

>  <PEOE_VSA-0>
99.018959

>  <PEOE_VSA-1>
87.245613

>  <PEOE_VSA-2>
0

>  <PEOE_VSA-3>
0

>  <PEOE_VSA-4>
0

>  <PEOE_VSA-5>
27.133842

>  <PEOE_VSA-6>
28.717939

>  <PEOE_VSA_FHYD>
0.85612512

>  <PEOE_VSA_FNEG>
0.37832692

>  <PEOE_VSA_FPNEG>
0.087273054

>  <PEOE_VSA_FPOL>
0.14387487

>  <PEOE_VSA_FPOS>
0.62167305

>  <PEOE_VSA_FPPOS>
0.056601815

>  <PEOE_VSA_HYD>
547.89093

>  <PEOE_VSA_NEG>
242.11635

>  <PEOE_VSA_PNEG>
55.85178

>  <PEOE_VSA_POL>
92.075012

>  <PEOE_VSA_POS>
397.84961

>  <PEOE_VSA_PPOS>
36.223236

>  <petitjean>
0.47619048

>  <petitjeanSC>
0.90909094

>  <Q_PC+>
0

>  <Q_PC->
0

>  <Q_RPC+>
0

>  <Q_RPC->
0

>  <Q_VSA_FHYD>
1

>  <Q_VSA_FNEG>
0

>  <Q_VSA_FPNEG>
0

>  <Q_VSA_FPOL>
0

>  <Q_VSA_FPOS>
1

>  <Q_VSA_FPPOS>
0

>  <Q_VSA_HYD>
639.96594

>  <Q_VSA_NEG>
0

>  <Q_VSA_PNEG>
0

>  <Q_VSA_POL>
0

>  <Q_VSA_POS>
639.96594

>  <Q_VSA_PPOS>
0

>  <radius>
11

>  <reactive>
0

>  <rings>
1

>  <RPC+>
0

>  <RPC->
0

>  <rsynth>
0.61538464

>  <SlogP>
3.2934699

>  <SlogP_VSA0>
131.19012

>  <SlogP_VSA1>
10.517568

>  <SlogP_VSA2>
69.174942

>  <SlogP_VSA3>
60.292095

>  <SlogP_VSA4>
20.82876

>  <SlogP_VSA5>
89.636139

>  <SlogP_VSA6>
0

>  <SlogP_VSA7>
52.929554

>  <SlogP_VSA8>
56.605217

>  <SlogP_VSA9>
210.44295

>  <SMR>
15.45433

>  <SMR_VSA0>
58.724319

>  <SMR_VSA1>
47.385002

>  <SMR_VSA2>
35.653934

>  <SMR_VSA3>
24.123049

>  <SMR_VSA4>
65.794373

>  <SMR_VSA5>
128.40317

>  <SMR_VSA6>
70.809662

>  <SMR_VSA7>
270.72382

>  <TPSA>
146.13

>  <VAdjEq>
0.29181826

>  <VAdjMa>
6.2854023

>  <VDistEq>
4.1219673

>  <VDistMa>
10.274205

>  <vdw_area>
639.96594

>  <vdw_vol>
803.66406

>  <vsa_acc>
34.645111

>  <vsa_acid>
0

>  <vsa_base>
0

>  <vsa_don>
23.425066

>  <vsa_hyd>
465.96127

>  <vsa_other>
25.899061

>  <vsa_pol>
89.379585

>  <Weight>
551.76898

>  <weinerPath>
5882

>  <weinerPol>
58

>  <zagreb>
184

$$$$