P(O)(O)(=O)N1N=C(NC1=O)CN1CCO[C@H](O[C@H](C)c2cc(cc(c2)C(F)(F)F)C(F)(F)F)[C@@H]1c1ccc(F)cc1
  MOE2013           2D

 41 44  0  0  1  0  0  0  0  0999 V2000
    0.0000    0.0000    0.0000 P   0  0  0  0  0  0  0  0  0  0  0  0
    1.4870    0.1940    0.0000 O   0  0  0  0  0  0  0  0  0  0  0  0
   -0.1940    1.4870    0.0000 O   0  0  0  0  0  0  0  0  0  0  0  0
    0.1940   -1.4870    0.0000 O   0  0  0  0  0  0  0  0  0  0  0  0
   -1.4870   -0.1940    0.0000 N   0  0  0  0  0  0  0  0  0  0  0  0
   -2.5180    0.8960    0.0000 N   0  0  0  0  0  0  0  0  0  0  0  0
   -3.8730    0.2520    0.0000 C   0  0  0  0  0  0  0  0  0  0  0  0
   -3.6800   -1.2360    0.0000 N   0  0  0  0  0  0  0  0  0  0  0  0
   -2.2050   -1.5110    0.0000 C   0  0  0  0  0  0  0  0  0  0  0  0
   -1.5610   -2.8660    0.0000 O   0  0  0  0  0  0  0  0  0  0  0  0
   -5.1900    0.9690    0.0000 C   0  0  0  0  0  0  0  0  0  0  0  0
   -6.4710    0.1880    0.0000 N   0  0  3  0  0  0  0  0  0  0  0  0
   -6.4330   -1.3120    0.0000 C   0  0  0  0  0  0  0  0  0  0  0  0
   -7.7130   -2.0940    0.0000 C   0  0  0  0  0  0  0  0  0  0  0  0
   -9.0310   -1.3760    0.0000 O   0  0  0  0  0  0  0  0  0  0  0  0
   -9.0680    0.1230    0.0000 C   0  0  2  0  0  0  0  0  0  0  0  0
  -10.3850    0.8410    0.0000 O   0  0  0  0  0  0  0  0  0  0  0  0
  -11.6650    0.0590    0.0000 C   0  0  2  0  0  0  0  0  0  0  0  0
  -11.6280   -1.4410    0.0000 C   0  0  0  0  0  0  0  0  0  0  0  0
  -12.9820    0.7760    0.0000 C   0  0  0  0  0  0  0  0  0  0  0  0
  -14.2620   -0.0060    0.0000 C   0  0  0  0  0  0  0  0  0  0  0  0
  -15.5800    0.7120    0.0000 C   0  0  0  0  0  0  0  0  0  0  0  0
  -15.6170    2.2110    0.0000 C   0  0  0  0  0  0  0  0  0  0  0  0
  -14.3370    2.9930    0.0000 C   0  0  0  0  0  0  0  0  0  0  0  0
  -13.0190    2.2760    0.0000 C   0  0  0  0  0  0  0  0  0  0  0  0
  -14.3740    4.4930    0.0000 C   0  0  0  0  0  0  0  0  0  0  0  0
  -12.8740    4.5300    0.0000 F   0  0  0  0  0  0  0  0  0  0  0  0
  -15.8730    4.4560    0.0000 F   0  0  0  0  0  0  0  0  0  0  0  0
  -14.4110    5.9930    0.0000 F   0  0  0  0  0  0  0  0  0  0  0  0
  -16.8600   -0.0700    0.0000 C   0  0  0  0  0  0  0  0  0  0  0  0
  -18.1400   -0.8520    0.0000 F   0  0  0  0  0  0  0  0  0  0  0  0
  -17.6420    1.2100    0.0000 F   0  0  0  0  0  0  0  0  0  0  0  0
  -16.0780   -1.3500    0.0000 F   0  0  0  0  0  0  0  0  0  0  0  0
   -7.7880    0.9050    0.0000 C   0  0  2  0  0  0  0  0  0  0  0  0
   -7.8250    2.4050    0.0000 C   0  0  0  0  0  0  0  0  0  0  0  0
   -6.5450    3.1870    0.0000 C   0  0  0  0  0  0  0  0  0  0  0  0
   -6.5820    4.6860    0.0000 C   0  0  0  0  0  0  0  0  0  0  0  0
   -7.8990    5.4040    0.0000 C   0  0  0  0  0  0  0  0  0  0  0  0
   -7.9360    6.9030    0.0000 F   0  0  0  0  0  0  0  0  0  0  0  0
   -9.1790    4.6220    0.0000 C   0  0  0  0  0  0  0  0  0  0  0  0
   -9.1420    3.1220    0.0000 C   0  0  0  0  0  0  0  0  0  0  0  0
  1  2  1  0  0  0  0
  1  3  1  0  0  0  0
  1  4  2  0  0  0  0
  1  5  1  0  0  0  0
  5  6  1  0  0  0  0
  5  9  1  0  0  0  0
  6  7  2  0  0  0  0
  7  8  1  0  0  0  0
  7 11  1  0  0  0  0
  8  9  1  0  0  0  0
  9 10  2  0  0  0  0
 11 12  1  0  0  0  0
 12 13  1  0  0  0  0
 12 34  1  0  0  0  0
 13 14  1  0  0  0  0
 14 15  1  0  0  0  0
 15 16  1  0  0  0  0
 16 17  1  6  0  0  0
 16 34  1  0  0  0  0
 17 18  1  0  0  0  0
 18 19  1  6  0  0  0
 18 20  1  0  0  0  0
 20 21  2  0  0  0  0
 20 25  1  0  0  0  0
 21 22  1  0  0  0  0
 22 23  2  0  0  0  0
 22 30  1  0  0  0  0
 23 24  1  0  0  0  0
 24 25  2  0  0  0  0
 24 26  1  0  0  0  0
 26 27  1  0  0  0  0
 26 28  1  0  0  0  0
 26 29  1  0  0  0  0
 30 31  1  0  0  0  0
 30 32  1  0  0  0  0
 30 33  1  0  0  0  0
 34 35  1  6  0  0  0
 35 36  1  0  0  0  0
 35 41  2  0  0  0  0
 36 37  2  0  0  0  0
 37 38  1  0  0  0  0
 38 39  1  0  0  0  0
 38 40  2  0  0  0  0
 40 41  1  0  0  0  0
M  END
>  <Index>
462

>  <ID>
HT0935

>  <class>
0

>  <apol>
71.89045

>  <ast_fraglike>
0

>  <ast_fraglike_ext>
0

>  <ast_violation>
4

>  <ast_violation_ext>
6

>  <a_acc>
8

>  <a_acid>
0

>  <a_aro>
12

>  <a_base>
0

>  <a_count>
63

>  <a_don>
4

>  <a_donacc>
12

>  <a_heavy>
41

>  <a_hyd>
27

>  <a_IC>
131.25795

>  <a_ICM>
2.0834596

>  <a_nB>
0

>  <a_nBr>
0

>  <a_nC>
23

>  <a_nCl>
0

>  <a_nF>
7

>  <a_nH>
22

>  <a_nI>
0

>  <a_nN>
4

>  <a_nO>
6

>  <a_nP>
1

>  <a_nS>
0

>  <balabanJ>
1.5013655

>  <BCUT_PEOE_0>
-2.7214074

>  <BCUT_PEOE_1>
-0.57800841

>  <BCUT_PEOE_2>
0.5862022

>  <BCUT_PEOE_3>
2.6928561

>  <BCUT_SLOGP_0>
-2.8003929

>  <BCUT_SLOGP_1>
-0.41275486

>  <BCUT_SLOGP_2>
0.73291844

>  <BCUT_SLOGP_3>
2.6757712

>  <BCUT_SMR_0>
-2.4659097

>  <BCUT_SMR_1>
-0.38979539

>  <BCUT_SMR_2>
0.7570377

>  <BCUT_SMR_3>
2.941081

>  <bpol>
50.319553

>  <b_1rotN>
7

>  <b_1rotR>
0.15909091

>  <b_ar>
12

>  <b_count>
66

>  <b_double>
2

>  <b_heavy>
44

>  <b_max1len>
5

>  <b_rotN>
9

>  <b_rotR>
0.20454545

>  <b_single>
52

>  <b_triple>
0

>  <chi0>
30.327698

>  <chi0v>
21.751276

>  <chi0v_C>
13.394823

>  <chi0_C>
14.84457

>  <chi1>
18.929708

>  <chi1v>
13.303377

>  <chi1v_C>
6.3950052

>  <chi1_C>
8.1454315

>  <chiral>
3

>  <chiral_u>
0

>  <density>
0.9560107

>  <diameter>
15

>  <FCharge>
0

>  <GCUT_PEOE_0>
-0.82613081

>  <GCUT_PEOE_1>
-0.38987368

>  <GCUT_PEOE_2>
0.074682653

>  <GCUT_PEOE_3>
2.9056251

>  <GCUT_SLOGP_0>
-1.2948557

>  <GCUT_SLOGP_1>
-0.36070585

>  <GCUT_SLOGP_2>
0.26019999

>  <GCUT_SLOGP_3>
2.9539869

>  <GCUT_SMR_0>
-0.51689583

>  <GCUT_SMR_1>
-0.20284498

>  <GCUT_SMR_2>
0.19533977

>  <GCUT_SMR_3>
3.1496353

>  <Kier1>
33.884296

>  <Kier2>
13.157439

>  <Kier3>
8.5901251

>  <KierA1>
28.259766

>  <KierA2>
10.92127

>  <KierA3>
7.1059585

>  <KierFlex>
7.5276227

>  <lip_acc>
10

>  <lip_don>
3

>  <lip_druglike>
1

>  <lip_violation>
1

>  <logP(o/w)>
4.3545198

>  <logS>
-6.1674099

>  <mr>
13.130369

>  <mutagenic>
0

>  <nmol>
1

>  <opr_brigid>
23

>  <opr_leadlike>
0

>  <opr_nring>
4

>  <opr_nrot>
9

>  <opr_violation>
3

>  <PC+>
0

>  <PC->
0

>  <PEOE_PC+>
4.0108151

>  <PEOE_PC->
-4.0108151

>  <PEOE_RPC+>
0.11541227

>  <PEOE_RPC->
0.086789645

>  <PEOE_VSA+0>
56.242352

>  <PEOE_VSA+1>
89.794456

>  <PEOE_VSA+2>
17.639858

>  <PEOE_VSA+3>
11.154908

>  <PEOE_VSA+4>
20.648346

>  <PEOE_VSA+5>
17.440542

>  <PEOE_VSA+6>
35.383926

>  <PEOE_VSA-0>
100.16841

>  <PEOE_VSA-1>
24.509808

>  <PEOE_VSA-2>
0

>  <PEOE_VSA-3>
80.872856

>  <PEOE_VSA-4>
31.768148

>  <PEOE_VSA-5>
0

>  <PEOE_VSA-6>
18.711325

>  <PEOE_VSA_FHYD>
0.75422627

>  <PEOE_VSA_FNEG>
0.50765973

>  <PEOE_VSA_FPNEG>
0.10009117

>  <PEOE_VSA_FPOL>
0.24577375

>  <PEOE_VSA_FPOS>
0.49234027

>  <PEOE_VSA_FPPOS>
0.14568259

>  <PEOE_VSA_HYD>
380.38266

>  <PEOE_VSA_NEG>
256.03055

>  <PEOE_VSA_PNEG>
50.479473

>  <PEOE_VSA_POL>
123.95229

>  <PEOE_VSA_POS>
248.3044

>  <PEOE_VSA_PPOS>
73.472816

>  <petitjean>
0.46666667

>  <petitjeanSC>
0.875

>  <Q_PC+>
0

>  <Q_PC->
0

>  <Q_RPC+>
0

>  <Q_RPC->
0

>  <Q_VSA_FHYD>
1

>  <Q_VSA_FNEG>
0

>  <Q_VSA_FPNEG>
0

>  <Q_VSA_FPOL>
0

>  <Q_VSA_FPOS>
1

>  <Q_VSA_FPPOS>
0

>  <Q_VSA_HYD>
504.33493

>  <Q_VSA_NEG>
0

>  <Q_VSA_PNEG>
0

>  <Q_VSA_POL>
0

>  <Q_VSA_POS>
504.33493

>  <Q_VSA_PPOS>
0

>  <radius>
8

>  <reactive>
1

>  <rings>
4

>  <RPC+>
0

>  <RPC->
0

>  <rsynth>
1

>  <SlogP>
4.5156999

>  <SlogP_VSA0>
83.058456

>  <SlogP_VSA1>
10.28219

>  <SlogP_VSA2>
39.647297

>  <SlogP_VSA3>
57.805416

>  <SlogP_VSA4>
12.7423

>  <SlogP_VSA5>
16.663008

>  <SlogP_VSA6>
15.519032

>  <SlogP_VSA7>
123.50229

>  <SlogP_VSA8>
10.450618

>  <SlogP_VSA9>
176.04822

>  <SMR>
12.60193

>  <SMR_VSA0>
68.295753

>  <SMR_VSA1>
167.12206

>  <SMR_VSA2>
42.650803

>  <SMR_VSA3>
31.719419

>  <SMR_VSA4>
0

>  <SMR_VSA5>
123.50229

>  <SMR_VSA6>
64.963287

>  <SMR_VSA7>
47.465206

>  <TPSA>
123.93

>  <VAdjEq>
0.29629606

>  <VAdjMa>
6.4594316

>  <VDistEq>
3.8071792

>  <VDistMa>
10.458673

>  <vdw_area>
504.33493

>  <vdw_vol>
642.68213

>  <vsa_acc>
27.995472

>  <vsa_acid>
0

>  <vsa_base>
0

>  <vsa_don>
5.6825762

>  <vsa_hyd>
337.18994

>  <vsa_other>
60.632526

>  <vsa_pol>
80.865456

>  <Weight>
614.41101

>  <weinerPath>
5695

>  <weinerPol>
68

>  <zagreb>
224

$$$$