P(OCOc1c(cccc1C(C)C)C(C)C)(O)(O)=O
  MOE2013           2D

 19 19  0  0  0  0  0  0  0  0999 V2000
    0.0000    0.0000    0.0000 P   0  0  0  0  0  0  0  0  0  0  0  0
   -1.2990    0.7500    0.0000 O   0  0  0  0  0  0  0  0  0  0  0  0
   -2.5980    0.0000    0.0000 C   0  0  0  0  0  0  0  0  0  0  0  0
   -3.8970    0.7500    0.0000 O   0  0  0  0  0  0  0  0  0  0  0  0
   -5.1960    0.0000    0.0000 C   0  0  0  0  0  0  0  0  0  0  0  0
   -6.4950    0.7500    0.0000 C   0  0  0  0  0  0  0  0  0  0  0  0
   -7.7940    0.0000    0.0000 C   0  0  0  0  0  0  0  0  0  0  0  0
   -7.7940   -1.5000    0.0000 C   0  0  0  0  0  0  0  0  0  0  0  0
   -6.4950   -2.2500    0.0000 C   0  0  0  0  0  0  0  0  0  0  0  0
   -5.1960   -1.5000    0.0000 C   0  0  0  0  0  0  0  0  0  0  0  0
   -3.8970   -2.2500    0.0000 C   0  0  0  0  0  0  0  0  0  0  0  0
   -2.5980   -1.5000    0.0000 C   0  0  0  0  0  0  0  0  0  0  0  0
   -3.8970   -3.7500    0.0000 C   0  0  0  0  0  0  0  0  0  0  0  0
   -6.4950    2.2500    0.0000 C   0  0  0  0  0  0  0  0  0  0  0  0
   -5.1960    3.0000    0.0000 C   0  0  0  0  0  0  0  0  0  0  0  0
   -7.7940    3.0000    0.0000 C   0  0  0  0  0  0  0  0  0  0  0  0
   -0.7500   -1.2990    0.0000 O   0  0  0  0  0  0  0  0  0  0  0  0
    0.7500    1.2990    0.0000 O   0  0  0  0  0  0  0  0  0  0  0  0
    1.2990   -0.7500    0.0000 O   0  0  0  0  0  0  0  0  0  0  0  0
  1  2  1  0  0  0  0
  1 17  1  0  0  0  0
  1 18  1  0  0  0  0
  1 19  2  0  0  0  0
  2  3  1  0  0  0  0
  3  4  1  0  0  0  0
  4  5  1  0  0  0  0
  5  6  1  0  0  0  0
  5 10  2  0  0  0  0
  6  7  2  0  0  0  0
  6 14  1  0  0  0  0
  7  8  1  0  0  0  0
  8  9  2  0  0  0  0
  9 10  1  0  0  0  0
 10 11  1  0  0  0  0
 11 12  1  0  0  0  0
 11 13  1  0  0  0  0
 14 15  1  0  0  0  0
 14 16  1  0  0  0  0
M  END
>  <Index>
465

>  <ID>
HT0940

>  <class>
0

>  <apol>
44.522652

>  <ast_fraglike>
0

>  <ast_fraglike_ext>
0

>  <ast_violation>
1

>  <ast_violation_ext>
2

>  <a_acc>
5

>  <a_acid>
0

>  <a_aro>
6

>  <a_base>
0

>  <a_count>
40

>  <a_don>
3

>  <a_donacc>
8

>  <a_heavy>
19

>  <a_hyd>
12

>  <a_IC>
60.9231

>  <a_ICM>
1.5230775

>  <a_nB>
0

>  <a_nBr>
0

>  <a_nC>
13

>  <a_nCl>
0

>  <a_nF>
0

>  <a_nH>
21

>  <a_nI>
0

>  <a_nN>
0

>  <a_nO>
5

>  <a_nP>
1

>  <a_nS>
0

>  <balabanJ>
2.6408751

>  <BCUT_PEOE_0>
-2.5752623

>  <BCUT_PEOE_1>
-0.56242639

>  <BCUT_PEOE_2>
0.61811042

>  <BCUT_PEOE_3>
2.5242169

>  <BCUT_SLOGP_0>
-2.4313927

>  <BCUT_SLOGP_1>
-0.47813964

>  <BCUT_SLOGP_2>
0.4170168

>  <BCUT_SLOGP_3>
2.6936281

>  <BCUT_SMR_0>
-2.3058667

>  <BCUT_SMR_1>
-0.42815813

>  <BCUT_SMR_2>
0.75426656

>  <BCUT_SMR_3>
2.8015075

>  <bpol>
35.227348

>  <b_1rotN>
6

>  <b_1rotR>
0.31578946

>  <b_ar>
6

>  <b_count>
40

>  <b_double>
0

>  <b_heavy>
19

>  <b_max1len>
5

>  <b_rotN>
6

>  <b_rotR>
0.31578946

>  <b_single>
34

>  <b_triple>
0

>  <chi0>
14.629392

>  <chi0v>
12.554671

>  <chi0v_C>
9.0938578

>  <chi0_C>
9.7151785

>  <chi1>
8.7210331

>  <chi1v>
7.7076879

>  <chi1v_C>
4.6307683

>  <chi1_C>
5.4592309

>  <chiral>
0

>  <chiral_u>
0

>  <density>
0.771447

>  <diameter>
8

>  <FCharge>
0

>  <GCUT_PEOE_0>
-0.7998293

>  <GCUT_PEOE_1>
-0.36219448

>  <GCUT_PEOE_2>
0.049705971

>  <GCUT_PEOE_3>
2.5788219

>  <GCUT_SLOGP_0>
-1.2939762

>  <GCUT_SLOGP_1>
-0.27039984

>  <GCUT_SLOGP_2>
-0.030362204

>  <GCUT_SLOGP_3>
2.7357676

>  <GCUT_SMR_0>
-0.52217674

>  <GCUT_SMR_1>
-0.19982128

>  <GCUT_SMR_2>
0.16869357

>  <GCUT_SMR_3>
2.8462472

>  <Kier1>
17.052631

>  <Kier2>
7.1358023

>  <Kier3>
5.4791913

>  <KierA1>
16.402431

>  <KierA2>
6.848217

>  <KierA3>
5.2491255

>  <KierFlex>
5.9119687

>  <lip_acc>
5

>  <lip_don>
2

>  <lip_druglike>
1

>  <lip_violation>
0

>  <logP(o/w)>
2.6730001

>  <logS>
-3.10762

>  <mr>
7.6006041

>  <mutagenic>
0

>  <nmol>
1

>  <opr_brigid>
6

>  <opr_leadlike>
1

>  <opr_nring>
1

>  <opr_nrot>
6

>  <opr_violation>
0

>  <PC+>
0

>  <PC->
0

>  <PEOE_PC+>
1.6985035

>  <PEOE_PC->
-1.6985035

>  <PEOE_RPC+>
0.26024589

>  <PEOE_RPC->
0.22330508

>  <PEOE_VSA+0>
68.173927

>  <PEOE_VSA+1>
21.326929

>  <PEOE_VSA+2>
21.201273

>  <PEOE_VSA+3>
0

>  <PEOE_VSA+4>
20.648346

>  <PEOE_VSA+5>
0

>  <PEOE_VSA+6>
18.713068

>  <PEOE_VSA-0>
4.4170794

>  <PEOE_VSA-1>
127.48456

>  <PEOE_VSA-2>
0

>  <PEOE_VSA-3>
0

>  <PEOE_VSA-4>
4.6659718

>  <PEOE_VSA-5>
19.859512

>  <PEOE_VSA-6>
2.503756

>  <PEOE_VSA_FHYD>
0.78513962

>  <PEOE_VSA_FNEG>
0.51434869

>  <PEOE_VSA_FPNEG>
0.087474845

>  <PEOE_VSA_FPOL>
0.21486036

>  <PEOE_VSA_FPOS>
0.48565128

>  <PEOE_VSA_FPPOS>
0.12738551

>  <PEOE_VSA_HYD>
242.60376

>  <PEOE_VSA_NEG>
158.93088

>  <PEOE_VSA_PNEG>
27.02924

>  <PEOE_VSA_POL>
66.390656

>  <PEOE_VSA_POS>
150.06354

>  <PEOE_VSA_PPOS>
39.361416

>  <petitjean>
0.5

>  <petitjeanSC>
1

>  <Q_PC+>
0

>  <Q_PC->
0

>  <Q_RPC+>
0

>  <Q_RPC->
0

>  <Q_VSA_FHYD>
1

>  <Q_VSA_FNEG>
0

>  <Q_VSA_FPNEG>
0

>  <Q_VSA_FPOL>
0

>  <Q_VSA_FPOS>
1

>  <Q_VSA_FPPOS>
0

>  <Q_VSA_HYD>
308.99442

>  <Q_VSA_NEG>
0

>  <Q_VSA_PNEG>
0

>  <Q_VSA_POL>
0

>  <Q_VSA_POS>
308.99442

>  <Q_VSA_PPOS>
0

>  <radius>
4

>  <reactive>
1

>  <rings>
1

>  <RPC+>
0

>  <RPC->
0

>  <rsynth>
1

>  <SlogP>
2.3088

>  <SlogP_VSA0>
76.047592

>  <SlogP_VSA1>
0

>  <SlogP_VSA2>
6.9216304

>  <SlogP_VSA3>
22.984112

>  <SlogP_VSA4>
6.37115

>  <SlogP_VSA5>
0

>  <SlogP_VSA6>
8.8215923

>  <SlogP_VSA7>
52.929554

>  <SlogP_VSA8>
0

>  <SlogP_VSA9>
155.24232

>  <SMR>
7.2557602

>  <SMR_VSA0>
29.355396

>  <SMR_VSA1>
53.613827

>  <SMR_VSA2>
0

>  <SMR_VSA3>
20.436171

>  <SMR_VSA4>
0

>  <SMR_VSA5>
52.929554

>  <SMR_VSA6>
22.984112

>  <SMR_VSA7>
149.9989

>  <TPSA>
75.989998

>  <VAdjEq>
0.48546076

>  <VAdjMa>
5.2479277

>  <VDistEq>
2.9709296

>  <VDistMa>
8.2179232

>  <vdw_area>
308.99442

>  <vdw_vol>
373.68735

>  <vsa_acc>
7.1697278

>  <vsa_acid>
0

>  <vsa_base>
0

>  <vsa_don>
0

>  <vsa_hyd>
182.35196

>  <vsa_other>
47.021523

>  <vsa_pol>
54.357136

>  <Weight>
288.28

>  <weinerPath>
718

>  <weinerPol>
26

>  <zagreb>
92

$$$$