S(=O)(C)C1=CN(c2c(ccc(F)c2)C1=O)C
  MOE2013           2D

 16 17  0  0  1  0  0  0  0  0999 V2000
    0.0000    0.0000    0.0000 S   0  0  3  0  0  0  0  0  0  0  0  0
   -0.7450   -1.3020    0.0000 O   0  0  0  0  0  0  0  0  0  0  0  0
   -0.7550    1.2960    0.0000 C   0  0  0  0  0  0  0  0  0  0  0  0
    1.5000    0.0060    0.0000 C   0  0  0  0  0  0  0  0  0  0  0  0
    2.2550   -1.2900    0.0000 C   0  0  0  0  0  0  0  0  0  0  0  0
    3.7550   -1.2850    0.0000 N   0  0  3  0  0  0  0  0  0  0  0  0
    4.5000    0.0170    0.0000 C   0  0  0  0  0  0  0  0  0  0  0  0
    3.7450    1.3130    0.0000 C   0  0  0  0  0  0  0  0  0  0  0  0
    4.4900    2.6150    0.0000 C   0  0  0  0  0  0  0  0  0  0  0  0
    5.9900    2.6210    0.0000 C   0  0  0  0  0  0  0  0  0  0  0  0
    6.7450    1.3250    0.0000 C   0  0  0  0  0  0  0  0  0  0  0  0
    8.2450    1.3310    0.0000 F   0  0  0  0  0  0  0  0  0  0  0  0
    6.0000    0.0230    0.0000 C   0  0  0  0  0  0  0  0  0  0  0  0
    2.2450    1.3080    0.0000 C   0  0  0  0  0  0  0  0  0  0  0  0
    1.4900    2.6040    0.0000 O   0  0  0  0  0  0  0  0  0  0  0  0
    4.5100   -2.5810    0.0000 C   0  0  0  0  0  0  0  0  0  0  0  0
  1  2  2  0  0  0  0
  1  3  1  0  0  0  0
  1  4  1  0  0  0  0
  4  5  2  0  0  0  0
  4 14  1  0  0  0  0
  5  6  1  0  0  0  0
  6  7  1  0  0  0  0
  6 16  1  0  0  0  0
  7  8  1  0  0  0  0
  7 13  2  0  0  0  0
  8  9  2  0  0  0  0
  8 14  1  0  0  0  0
  9 10  1  0  0  0  0
 10 11  2  0  0  0  0
 11 12  1  0  0  0  0
 11 13  1  0  0  0  0
 14 15  2  0  0  0  0
M  END
>  <Index>
434

>  <ID>
HT0885

>  <class>
0

>  <apol>
32.188931

>  <ast_fraglike>
1

>  <ast_fraglike_ext>
1

>  <ast_violation>
0

>  <ast_violation_ext>
0

>  <a_acc>
2

>  <a_acid>
0

>  <a_aro>
6

>  <a_base>
0

>  <a_count>
26

>  <a_don>
0

>  <a_donacc>
2

>  <a_heavy>
16

>  <a_hyd>
11

>  <a_IC>
48.938404

>  <a_ICM>
1.8822463

>  <a_nB>
0

>  <a_nBr>
0

>  <a_nC>
11

>  <a_nCl>
0

>  <a_nF>
1

>  <a_nH>
10

>  <a_nI>
0

>  <a_nN>
1

>  <a_nO>
2

>  <a_nP>
0

>  <a_nS>
1

>  <balabanJ>
2.1303809

>  <BCUT_PEOE_0>
-2.4249225

>  <BCUT_PEOE_1>
-0.57576567

>  <BCUT_PEOE_2>
0.55406344

>  <BCUT_PEOE_3>
2.4445131

>  <BCUT_SLOGP_0>
-2.4713619

>  <BCUT_SLOGP_1>
-0.42788741

>  <BCUT_SLOGP_2>
0.71456289

>  <BCUT_SLOGP_3>
2.4423349

>  <BCUT_SMR_0>
-2.0982625

>  <BCUT_SMR_1>
-0.38052592

>  <BCUT_SMR_2>
0.75645638

>  <BCUT_SMR_3>
2.7747188

>  <bpol>
19.451071

>  <b_1rotN>
1

>  <b_1rotR>
0.05882353

>  <b_ar>
6

>  <b_count>
27

>  <b_double>
2

>  <b_heavy>
17

>  <b_max1len>
3

>  <b_rotN>
1

>  <b_rotR>
0.05882353

>  <b_single>
19

>  <b_triple>
0

>  <chi0>
11.869879

>  <chi0v>
9.6758204

>  <chi0v_C>
6.809401

>  <chi0_C>
7.7151785

>  <chi1>
7.5029078

>  <chi1v>
6.1859522

>  <chi1v_C>
2.5267091

>  <chi1_C>
3.5412414

>  <chiral>
0

>  <chiral_u>
0

>  <density>
0.84197044

>  <diameter>
8

>  <FCharge>
0

>  <GCUT_PEOE_0>
-0.86355132

>  <GCUT_PEOE_1>
-0.41832665

>  <GCUT_PEOE_2>
-0.0021193665

>  <GCUT_PEOE_3>
2.3824346

>  <GCUT_SLOGP_0>
-0.94445282

>  <GCUT_SLOGP_1>
-0.28041321

>  <GCUT_SLOGP_2>
0.13450359

>  <GCUT_SLOGP_3>
2.4296088

>  <GCUT_SMR_0>
-0.47011149

>  <GCUT_SMR_1>
-0.17447159

>  <GCUT_SMR_2>
0.16606222

>  <GCUT_SMR_3>
2.6820159

>  <Kier1>
12.456747

>  <Kier2>
4.704

>  <Kier3>
2.3397613

>  <KierA1>
10.027018

>  <KierA2>
3.7272098

>  <KierA3>
1.8320253

>  <KierFlex>
2.3357999

>  <lip_acc>
3

>  <lip_don>
0

>  <lip_druglike>
1

>  <lip_violation>
0

>  <logP(o/w)>
0.43799999

>  <logS>
-2.65979

>  <mr>
6.1161022

>  <mutagenic>
0

>  <nmol>
1

>  <opr_brigid>
11

>  <opr_leadlike>
1

>  <opr_nring>
2

>  <opr_nrot>
1

>  <opr_violation>
0

>  <PC+>
0

>  <PC->
0

>  <PEOE_PC+>
1.4434111

>  <PEOE_PC->
-1.4434111

>  <PEOE_RPC+>
0.1681554

>  <PEOE_RPC->
0.42487627

>  <PEOE_VSA+0>
38.450165

>  <PEOE_VSA+1>
29.857702

>  <PEOE_VSA+2>
29.744585

>  <PEOE_VSA+3>
0

>  <PEOE_VSA+4>
12.643121

>  <PEOE_VSA+5>
0

>  <PEOE_VSA+6>
0

>  <PEOE_VSA-0>
73.140106

>  <PEOE_VSA-1>
0

>  <PEOE_VSA-2>
0

>  <PEOE_VSA-3>
0

>  <PEOE_VSA-4>
11.908636

>  <PEOE_VSA-5>
13.566921

>  <PEOE_VSA-6>
16.008261

>  <PEOE_VSA_FHYD>
0.75977695

>  <PEOE_VSA_FNEG>
0.5087173

>  <PEOE_VSA_FPNEG>
0.18411109

>  <PEOE_VSA_FPOL>
0.24022305

>  <PEOE_VSA_FPOS>
0.4912827

>  <PEOE_VSA_FPPOS>
0.056111969

>  <PEOE_VSA_HYD>
171.19257

>  <PEOE_VSA_NEG>
114.62392

>  <PEOE_VSA_PNEG>
41.483818

>  <PEOE_VSA_POL>
54.126938

>  <PEOE_VSA_POS>
110.69557

>  <PEOE_VSA_PPOS>
12.643121

>  <petitjean>
0.5

>  <petitjeanSC>
1

>  <Q_PC+>
0

>  <Q_PC->
0

>  <Q_RPC+>
0

>  <Q_RPC->
0

>  <Q_VSA_FHYD>
1

>  <Q_VSA_FNEG>
0

>  <Q_VSA_FPNEG>
0

>  <Q_VSA_FPOL>
0

>  <Q_VSA_FPOS>
1

>  <Q_VSA_FPPOS>
0

>  <Q_VSA_HYD>
225.3195

>  <Q_VSA_NEG>
0

>  <Q_VSA_PNEG>
0

>  <Q_VSA_POL>
0

>  <Q_VSA_POS>
225.3195

>  <Q_VSA_PPOS>
0

>  <radius>
4

>  <reactive>
0

>  <rings>
2

>  <RPC+>
0

>  <RPC->
0

>  <rsynth>
1

>  <SlogP>
1.6781

>  <SlogP_VSA0>
3.1243138

>  <SlogP_VSA1>
29.773455

>  <SlogP_VSA2>
28.670422

>  <SlogP_VSA3>
0

>  <SlogP_VSA4>
27.047791

>  <SlogP_VSA5>
66.139099

>  <SlogP_VSA6>
0

>  <SlogP_VSA7>
70.143913

>  <SlogP_VSA8>
0

>  <SlogP_VSA9>
17.716862

>  <SMR>
6.1282902

>  <SMR_VSA0>
47.948059

>  <SMR_VSA1>
14.960114

>  <SMR_VSA2>
12.245332

>  <SMR_VSA3>
4.7363091

>  <SMR_VSA4>
2.7567475

>  <SMR_VSA5>
70.143913

>  <SMR_VSA6>
5.6876111

>  <SMR_VSA7>
84.137764

>  <TPSA>
56.59

>  <VAdjEq>
0.56510133

>  <VAdjMa>
5.0874629

>  <VDistEq>
2.6701112

>  <VDistMa>
7.7263122

>  <vdw_area>
225.3195

>  <vdw_vol>
284.17862

>  <vsa_acc>
29.575182

>  <vsa_acid>
0

>  <vsa_base>
0

>  <vsa_don>
0

>  <vsa_hyd>
167.03113

>  <vsa_other>
21.595228

>  <vsa_pol>
29.575182

>  <Weight>
239.27

>  <weinerPath>
399

>  <weinerPol>
27

>  <zagreb>
84

$$$$