F[C@@]12[C@H]([C@@H]3CC[C@](O)(C(=O)CO)[C@]3(C[C@@H]1O)C)CCC1=CC(=O)CC[C@@]12C
  MOE2013           2D

 27 30  0  0  1  0  0  0  0  0999 V2000
    0.0000    0.0000    0.0000 F   0  0  0  0  0  0  0  0  0  0  0  0
   -1.5000   -0.0110    0.0000 C   0  0  1  0  0  0  0  0  0  0  0  0
   -0.7410   -1.3040    0.0000 C   0  0  2  0  0  0  0  0  0  0  0  0
    0.7590   -1.2940    0.0000 C   0  0  2  0  0  0  0  0  0  0  0  0
    1.7710   -2.4010    0.0000 C   0  0  0  0  0  0  0  0  0  0  0  0
    3.1370   -1.7810    0.0000 C   0  0  0  0  0  0  0  0  0  0  0  0
    2.9690   -0.2910    0.0000 C   0  0  2  0  0  0  0  0  0  0  0  0
    3.4480    1.1310    0.0000 O   0  0  0  0  0  0  0  0  0  0  0  0
    4.4490   -0.0450    0.0000 C   0  0  0  0  0  0  0  0  0  0  0  0
    4.9770    1.3590    0.0000 O   0  0  0  0  0  0  0  0  0  0  0  0
    5.4010   -1.2040    0.0000 C   0  0  0  0  0  0  0  0  0  0  0  0
    6.8810   -0.9590    0.0000 O   0  0  0  0  0  0  0  0  0  0  0  0
    1.5000    0.0110    0.0000 C   0  0  1  0  0  0  0  0  0  0  0  0
    0.7410    1.3040    0.0000 C   0  0  0  0  0  0  0  0  0  0  0  0
   -0.7590    1.2940    0.0000 C   0  0  2  0  0  0  0  0  0  0  0  0
   -1.5190    2.5870    0.0000 O   0  0  0  0  0  0  0  0  0  0  0  0
    2.3520    1.2460    0.0000 C   0  0  0  0  0  0  0  0  0  0  0  0
   -1.4810   -2.6090    0.0000 C   0  0  0  0  0  0  0  0  0  0  0  0
   -2.9810   -2.6190    0.0000 C   0  0  0  0  0  0  0  0  0  0  0  0
   -3.7410   -1.3260    0.0000 C   0  0  0  0  0  0  0  0  0  0  0  0
   -5.2410   -1.3370    0.0000 C   0  0  0  0  0  0  0  0  0  0  0  0
   -6.0000   -0.0430    0.0000 C   0  0  0  0  0  0  0  0  0  0  0  0
   -7.5000   -0.0540    0.0000 O   0  0  0  0  0  0  0  0  0  0  0  0
   -5.2590    1.2610    0.0000 C   0  0  0  0  0  0  0  0  0  0  0  0
   -3.7590    1.2720    0.0000 C   0  0  0  0  0  0  0  0  0  0  0  0
   -3.0000   -0.0210    0.0000 C   0  0  2  0  0  0  0  0  0  0  0  0
   -2.2590    1.2830    0.0000 C   0  0  0  0  0  0  0  0  0  0  0  0
  2  1  1  6  0  0  0
  2  3  1  0  0  0  0
  2 15  1  0  0  0  0
  2 26  1  0  0  0  0
  3  4  1  0  0  0  0
  3 18  1  6  0  0  0
  4  5  1  1  0  0  0
  4 13  1  0  0  0  0
  5  6  1  0  0  0  0
  6  7  1  0  0  0  0
  7  8  1  6  0  0  0
  7  9  1  1  0  0  0
  7 13  1  0  0  0  0
  9 10  2  0  0  0  0
  9 11  1  0  0  0  0
 11 12  1  0  0  0  0
 13 14  1  0  0  0  0
 13 17  1  1  0  0  0
 14 15  1  0  0  0  0
 15 16  1  1  0  0  0
 18 19  1  0  0  0  0
 19 20  1  0  0  0  0
 20 21  2  0  0  0  0
 20 26  1  0  0  0  0
 21 22  1  0  0  0  0
 22 23  2  0  0  0  0
 22 24  1  0  0  0  0
 24 25  1  0  0  0  0
 25 26  1  0  0  0  0
 26 27  1  1  0  0  0
M  END
>  <Index>
439

>  <ID>
HT0893

>  <class>
0

>  <apol>
60.863998

>  <ast_fraglike>
0

>  <ast_fraglike_ext>
0

>  <ast_violation>
2

>  <ast_violation_ext>
3

>  <a_acc>
5

>  <a_acid>
0

>  <a_aro>
0

>  <a_base>
0

>  <a_count>
56

>  <a_don>
3

>  <a_donacc>
8

>  <a_heavy>
27

>  <a_hyd>
20

>  <a_IC>
80.482117

>  <a_ICM>
1.4371808

>  <a_nB>
0

>  <a_nBr>
0

>  <a_nC>
21

>  <a_nCl>
0

>  <a_nF>
1

>  <a_nH>
29

>  <a_nI>
0

>  <a_nN>
0

>  <a_nO>
5

>  <a_nP>
0

>  <a_nS>
0

>  <balabanJ>
1.7400346

>  <BCUT_PEOE_0>
-2.9156072

>  <BCUT_PEOE_1>
-0.5331412

>  <BCUT_PEOE_2>
0.51035506

>  <BCUT_PEOE_3>
2.9982309

>  <BCUT_SLOGP_0>
-2.9332187

>  <BCUT_SLOGP_1>
-0.48921025

>  <BCUT_SLOGP_2>
0.4999325

>  <BCUT_SLOGP_3>
3.0039814

>  <BCUT_SMR_0>
-2.6878712

>  <BCUT_SMR_1>
-0.37160143

>  <BCUT_SMR_2>
0.67292124

>  <BCUT_SMR_3>
3.2244546

>  <bpol>
34.822002

>  <b_1rotN>
2

>  <b_1rotR>
0.06666667

>  <b_ar>
0

>  <b_count>
59

>  <b_double>
3

>  <b_heavy>
30

>  <b_max1len>
6

>  <b_rotN>
2

>  <b_rotR>
0.06666667

>  <b_single>
56

>  <b_triple>
0

>  <chi0>
19.828062

>  <chi0v>
16.002357

>  <chi0v_C>
13.466255

>  <chi0_C>
13.828063

>  <chi1>
12.542513

>  <chi1v>
10.018038

>  <chi1v_C>
8.6227741

>  <chi1_C>
9.1033554

>  <chiral>
7

>  <chiral_u>
0

>  <density>
0.76629239

>  <diameter>
12

>  <FCharge>
0

>  <GCUT_PEOE_0>
-0.79045099

>  <GCUT_PEOE_1>
-0.40177894

>  <GCUT_PEOE_2>
0.019585112

>  <GCUT_PEOE_3>
3.3670671

>  <GCUT_SLOGP_0>
-0.94637102

>  <GCUT_SLOGP_1>
-0.36151403

>  <GCUT_SLOGP_2>
-0.0054218117

>  <GCUT_SLOGP_3>
3.3958008

>  <GCUT_SMR_0>
-0.53906089

>  <GCUT_SMR_1>
-0.2335148

>  <GCUT_SMR_2>
0.14585194

>  <GCUT_SMR_3>
3.5801411

>  <Kier1>
20.280001

>  <Kier2>
6.2475972

>  <Kier3>
2.3399999

>  <KierA1>
18.22974

>  <KierA2>
5.5919456

>  <KierA3>
2.0877755

>  <KierFlex>
3.7755451

>  <lip_acc>
5

>  <lip_don>
3

>  <lip_druglike>
1

>  <lip_violation>
0

>  <logP(o/w)>
1.029

>  <logS>
-2.5552299

>  <mr>
9.6938372

>  <mutagenic>
0

>  <nmol>
1

>  <opr_brigid>
20

>  <opr_leadlike>
1

>  <opr_nring>
4

>  <opr_nrot>
2

>  <opr_violation>
0

>  <PC+>
0

>  <PC->
0

>  <PEOE_PC+>
2.3761928

>  <PEOE_PC->
-2.3761928

>  <PEOE_RPC+>
0.088697761

>  <PEOE_RPC->
0.16353536

>  <PEOE_VSA+0>
102.5398

>  <PEOE_VSA+1>
21.966473

>  <PEOE_VSA+2>
14.951293

>  <PEOE_VSA+3>
16.917038

>  <PEOE_VSA+4>
30.972517

>  <PEOE_VSA+5>
0

>  <PEOE_VSA+6>
0

>  <PEOE_VSA-0>
64.462784

>  <PEOE_VSA-1>
39.703896

>  <PEOE_VSA-2>
0

>  <PEOE_VSA-3>
0

>  <PEOE_VSA-4>
11.908636

>  <PEOE_VSA-5>
27.133842

>  <PEOE_VSA-6>
23.30262

>  <PEOE_VSA_FHYD>
0.73628581

>  <PEOE_VSA_FNEG>
0.47055981

>  <PEOE_VSA_FPNEG>
0.17618632

>  <PEOE_VSA_FPOL>
0.26371419

>  <PEOE_VSA_FPOS>
0.52944022

>  <PEOE_VSA_FPPOS>
0.087527879

>  <PEOE_VSA_HYD>
260.54129

>  <PEOE_VSA_NEG>
166.51178

>  <PEOE_VSA_PNEG>
62.345097

>  <PEOE_VSA_POL>
93.317619

>  <PEOE_VSA_POS>
187.34712

>  <PEOE_VSA_PPOS>
30.972517

>  <petitjean>
0.5

>  <petitjeanSC>
1

>  <Q_PC+>
0

>  <Q_PC->
0

>  <Q_RPC+>
0

>  <Q_RPC->
0

>  <Q_VSA_FHYD>
1

>  <Q_VSA_FNEG>
0

>  <Q_VSA_FPNEG>
0

>  <Q_VSA_FPOL>
0

>  <Q_VSA_FPOS>
1

>  <Q_VSA_FPPOS>
0

>  <Q_VSA_HYD>
353.85892

>  <Q_VSA_NEG>
0

>  <Q_VSA_PNEG>
0

>  <Q_VSA_POL>
0

>  <Q_VSA_POS>
353.85892

>  <Q_VSA_PPOS>
0

>  <radius>
6

>  <reactive>
1

>  <rings>
4

>  <RPC+>
0

>  <RPC->
0

>  <rsynth>
0.037037037

>  <SlogP>
1.8737

>  <SlogP_VSA0>
76.155678

>  <SlogP_VSA1>
11.375222

>  <SlogP_VSA2>
54.193081

>  <SlogP_VSA3>
20.926258

>  <SlogP_VSA4>
8.8215923

>  <SlogP_VSA5>
3.185575

>  <SlogP_VSA6>
0

>  <SlogP_VSA7>
17.643185

>  <SlogP_VSA8>
132.07884

>  <SlogP_VSA9>
81.612144

>  <SMR>
9.54914

>  <SMR_VSA0>
47.724434

>  <SMR_VSA1>
91.115791

>  <SMR_VSA2>
8.8215923

>  <SMR_VSA3>
9.6542244

>  <SMR_VSA4>
0

>  <SMR_VSA5>
149.72202

>  <SMR_VSA6>
32.301479

>  <SMR_VSA7>
66.652031

>  <TPSA>
94.830002

>  <VAdjEq>
0.41024774

>  <VAdjMa>
5.9068904

>  <VDistEq>
3.1458983

>  <VDistMa>
9.2498026

>  <vdw_area>
353.85892

>  <vdw_vol>
496.48932

>  <vsa_acc>
27.133842

>  <vsa_acid>
0

>  <vsa_base>
0

>  <vsa_don>
0

>  <vsa_hyd>
234.33611

>  <vsa_other>
16.917038

>  <vsa_pol>
67.834602

>  <Weight>
380.45599

>  <weinerPath>
1533

>  <weinerPol>
66

>  <zagreb>
162

$$$$