O1C2C(C34OC5OC(=O)C(O)C56C3(C(OC4=O)C(O)C6C(C)(C)C)C2O)C(C)C1=O
  MOE2013           2D

 30 35  0  0  1  0  0  0  0  0999 V2000
    0.0620    0.0560    0.0000 O   0  0  0  0  0  0  0  0  0  0  0  0
   -1.3860    0.4500    0.0000 C   0  0  3  0  0  0  0  0  0  0  0  0
   -1.2850    1.9660    0.0000 C   0  0  3  0  0  0  0  0  0  0  0  0
   -2.6820    2.3500    0.0000 C   0  0  3  0  0  0  0  0  0  0  0  0
   -3.3870    3.7130    0.0000 O   0  0  0  0  0  0  0  0  0  0  0  0
   -4.8610    3.4760    0.0000 C   0  0  3  0  0  0  0  0  0  0  0  0
   -6.1960    4.1600    0.0000 O   0  0  0  0  0  0  0  0  0  0  0  0
   -7.2610    3.0800    0.0000 C   0  0  0  0  0  0  0  0  0  0  0  0
   -8.7470    3.3920    0.0000 O   0  0  0  0  0  0  0  0  0  0  0  0
   -6.5890    1.7790    0.0000 C   0  0  3  0  0  0  0  0  0  0  0  0
   -6.7460    0.2100    0.0000 O   0  0  0  0  0  0  0  0  0  0  0  0
   -5.1240    1.9610    0.0000 C   0  0  3  0  0  0  0  0  0  0  0  0
   -3.7530    1.3820    0.0000 C   0  0  3  0  0  0  0  0  0  0  0  0
   -3.6990    0.0140    0.0000 C   0  0  3  0  0  0  0  0  0  0  0  0
   -2.1660   -0.1730    0.0000 O   0  0  0  0  0  0  0  0  0  0  0  0
   -1.5540    1.2340    0.0000 C   0  0  0  0  0  0  0  0  0  0  0  0
   -0.0960    1.3960    0.0000 O   0  0  0  0  0  0  0  0  0  0  0  0
   -5.1770   -0.4830    0.0000 C   0  0  3  0  0  0  0  0  0  0  0  0
   -5.6080   -1.9140    0.0000 O   0  0  0  0  0  0  0  0  0  0  0  0
   -6.0660    0.7600    0.0000 C   0  0  3  0  0  0  0  0  0  0  0  0
   -7.5920    0.4340    0.0000 C   0  0  0  0  0  0  0  0  0  0  0  0
   -7.1950   -1.0900    0.0000 C   0  0  0  0  0  0  0  0  0  0  0  0
   -7.9980    1.8040    0.0000 C   0  0  0  0  0  0  0  0  0  0  0  0
   -9.0120   -0.0370    0.0000 C   0  0  0  0  0  0  0  0  0  0  0  0
   -2.8720    0.0940    0.0000 C   0  0  3  0  0  0  0  0  0  0  0  0
   -3.3340   -1.3650    0.0000 O   0  0  0  0  0  0  0  0  0  0  0  0
    0.1610    2.4370    0.0000 C   0  0  3  0  0  0  0  0  0  0  0  0
    0.6330    3.8510    0.0000 C   0  0  0  0  0  0  0  0  0  0  0  0
    1.0480    1.2060    0.0000 C   0  0  0  0  0  0  0  0  0  0  0  0
    2.5360    1.1430    0.0000 O   0  0  0  0  0  0  0  0  0  0  0  0
  1  2  1  0  0  0  0
  1 29  1  0  0  0  0
  2  3  1  0  0  0  0
  2 25  1  0  0  0  0
  3  4  1  0  0  0  0
  3 27  1  0  0  0  0
  4  5  1  0  0  0  0
  4 13  1  0  0  0  0
  4 16  1  0  0  0  0
  5  6  1  0  0  0  0
  6  7  1  0  0  0  0
  6 12  1  0  0  0  0
  7  8  1  0  0  0  0
  8  9  2  0  0  0  0
  8 10  1  0  0  0  0
 10 11  1  0  0  0  0
 10 12  1  0  0  0  0
 12 13  1  0  0  0  0
 12 20  1  0  0  0  0
 13 14  1  0  0  0  0
 13 25  1  0  0  0  0
 14 15  1  0  0  0  0
 14 18  1  0  0  0  0
 15 16  1  0  0  0  0
 16 17  2  0  0  0  0
 18 19  1  0  0  0  0
 18 20  1  0  0  0  0
 20 21  1  0  0  0  0
 21 22  1  0  0  0  0
 21 23  1  0  0  0  0
 21 24  1  0  0  0  0
 25 26  1  0  0  0  0
 27 28  1  0  0  0  0
 27 29  1  0  0  0  0
 29 30  2  0  0  0  0
M  END
>  <Index>
489

>  <ID>
HT0979

>  <class>
0

>  <apol>
59.223034

>  <ast_fraglike>
0

>  <ast_fraglike_ext>
0

>  <ast_violation>
2

>  <ast_violation_ext>
3

>  <a_acc>
7

>  <a_acid>
0

>  <a_aro>
0

>  <a_base>
0

>  <a_count>
54

>  <a_don>
3

>  <a_donacc>
10

>  <a_heavy>
30

>  <a_hyd>
16

>  <a_IC>
81.066978

>  <a_ICM>
1.5012404

>  <a_nB>
0

>  <a_nBr>
0

>  <a_nC>
20

>  <a_nCl>
0

>  <a_nF>
0

>  <a_nH>
24

>  <a_nI>
0

>  <a_nN>
0

>  <a_nO>
10

>  <a_nP>
0

>  <a_nS>
0

>  <balabanJ>
1.6832694

>  <BCUT_PEOE_0>
-2.7658484

>  <BCUT_PEOE_1>
-0.49458593

>  <BCUT_PEOE_2>
0.59026855

>  <BCUT_PEOE_3>
3.1393614

>  <BCUT_SLOGP_0>
-2.8014047

>  <BCUT_SLOGP_1>
-0.54228103

>  <BCUT_SLOGP_2>
0.48386168

>  <BCUT_SLOGP_3>
2.9954588

>  <BCUT_SMR_0>
-2.5427773

>  <BCUT_SMR_1>
-0.38248214

>  <BCUT_SMR_2>
0.68603057

>  <BCUT_SMR_3>
3.3229127

>  <bpol>
36.774967

>  <b_1rotN>
0

>  <b_1rotR>
0

>  <b_ar>
0

>  <b_count>
59

>  <b_double>
3

>  <b_heavy>
35

>  <b_max1len>
4

>  <b_rotN>
1

>  <b_rotR>
0.028571429

>  <b_single>
56

>  <b_triple>
0

>  <chi0>
21.75663

>  <chi0v>
16.895531

>  <chi0v_C>
12.696153

>  <chi0_C>
12.928204

>  <chi1>
13.895477

>  <chi1v>
10.238368

>  <chi1v_C>
7.092093

>  <chi1_C>
7.2200847

>  <chiral>
12

>  <chiral_u>
12

>  <density>
0.86462343

>  <diameter>
9

>  <FCharge>
0

>  <GCUT_PEOE_0>
-0.799362

>  <GCUT_PEOE_1>
-0.414249

>  <GCUT_PEOE_2>
0.063905254

>  <GCUT_PEOE_3>
3.4721916

>  <GCUT_SLOGP_0>
-0.93401384

>  <GCUT_SLOGP_1>
-0.45373628

>  <GCUT_SLOGP_2>
-0.0089798467

>  <GCUT_SLOGP_3>
3.3799345

>  <GCUT_SMR_0>
-0.54175395

>  <GCUT_SMR_1>
-0.23285502

>  <GCUT_SMR_2>
0.15058528

>  <GCUT_SMR_3>
3.6621268

>  <Kier1>
20.595919

>  <Kier2>
5.5507812

>  <Kier3>
1.7180424

>  <KierA1>
18.757267

>  <KierA2>
5.038311

>  <KierA3>
1.5557261

>  <KierFlex>
3.1501646

>  <lip_acc>
10

>  <lip_don>
3

>  <lip_druglike>
1

>  <lip_violation>
0

>  <logP(o/w)>
-0.59899998

>  <logS>
-3.13484

>  <mr>
9.4239979

>  <mutagenic>
0

>  <nmol>
1

>  <opr_brigid>
24

>  <opr_leadlike>
0

>  <opr_nring>
6

>  <opr_nrot>
1

>  <opr_violation>
2

>  <PC+>
0

>  <PC->
0

>  <PEOE_PC+>
3.4399817

>  <PEOE_PC->
-3.4399817

>  <PEOE_RPC+>
0.086045146

>  <PEOE_RPC->
0.11304565

>  <PEOE_VSA+0>
63.980789

>  <PEOE_VSA+1>
35.402172

>  <PEOE_VSA+2>
9.8098574

>  <PEOE_VSA+3>
16.059837

>  <PEOE_VSA+4>
30.972517

>  <PEOE_VSA+5>
44.125496

>  <PEOE_VSA+6>
0

>  <PEOE_VSA-0>
0

>  <PEOE_VSA-1>
74.990707

>  <PEOE_VSA-2>
0

>  <PEOE_VSA-3>
0

>  <PEOE_VSA-4>
0

>  <PEOE_VSA-5>
43.204517

>  <PEOE_VSA-6>
30.813889

>  <PEOE_VSA_FHYD>
0.57317233

>  <PEOE_VSA_FNEG>
0.42652053

>  <PEOE_VSA_FPNEG>
0.2118687

>  <PEOE_VSA_FPOL>
0.42682767

>  <PEOE_VSA_FPOS>
0.57347947

>  <PEOE_VSA_FPPOS>
0.21495895

>  <PEOE_VSA_HYD>
200.24336

>  <PEOE_VSA_NEG>
149.00912

>  <PEOE_VSA_PNEG>
74.01841

>  <PEOE_VSA_POL>
149.11642

>  <PEOE_VSA_POS>
200.35068

>  <PEOE_VSA_PPOS>
75.098015

>  <petitjean>
0.44444445

>  <petitjeanSC>
0.80000001

>  <Q_PC+>
0

>  <Q_PC->
0

>  <Q_RPC+>
0

>  <Q_RPC->
0

>  <Q_VSA_FHYD>
1

>  <Q_VSA_FNEG>
0

>  <Q_VSA_FPNEG>
0

>  <Q_VSA_FPOL>
0

>  <Q_VSA_FPOS>
1

>  <Q_VSA_FPPOS>
0

>  <Q_VSA_HYD>
349.3598

>  <Q_VSA_NEG>
0

>  <Q_VSA_PNEG>
0

>  <Q_VSA_POL>
0

>  <Q_VSA_POS>
349.3598

>  <Q_VSA_PPOS>
0

>  <radius>
5

>  <reactive>
1

>  <rings>
6

>  <RPC+>
0

>  <RPC->
0

>  <rsynth>
0.06666667

>  <SlogP>
-1.5136

>  <SlogP_VSA0>
76.155678

>  <SlogP_VSA1>
23.236393

>  <SlogP_VSA2>
156.45595

>  <SlogP_VSA3>
0

>  <SlogP_VSA4>
13.232388

>  <SlogP_VSA5>
0

>  <SlogP_VSA6>
0

>  <SlogP_VSA7>
0

>  <SlogP_VSA8>
0

>  <SlogP_VSA9>
133.30406

>  <SMR>
9.1941404

>  <SMR_VSA0>
115.5862

>  <SMR_VSA1>
76.155678

>  <SMR_VSA2>
13.232388

>  <SMR_VSA3>
40.869747

>  <SMR_VSA4>
0

>  <SMR_VSA5>
0

>  <SMR_VSA6>
23.236393

>  <SMR_VSA7>
133.30406

>  <TPSA>
148.82001

>  <VAdjEq>
0.39430025

>  <VAdjMa>
6.129283

>  <VDistEq>
2.8469641

>  <VDistMa>
9.6106691

>  <vdw_area>
349.3598

>  <vdw_vol>
490.85181

>  <vsa_acc>
43.204517

>  <vsa_acid>
0

>  <vsa_base>
0

>  <vsa_don>
0

>  <vsa_hyd>
166.55202

>  <vsa_other>
66.345268

>  <vsa_pol>
83.905281

>  <Weight>
424.40198

>  <weinerPath>
1738

>  <weinerPol>
81

>  <zagreb>
198

$$$$