O=C1NC(=O)NC1NC(=O)N
  MOE2013           2D

 11 11  0  0  1  0  0  0  0  0999 V2000
    0.0000    0.0000    0.0000 O   0  0  0  0  0  0  0  0  0  0  0  0
   -0.0770    1.4980    0.0000 C   0  0  0  0  0  0  0  0  0  0  0  0
   -1.3340    2.3160    0.0000 N   0  0  0  0  0  0  0  0  0  0  0  0
   -0.9440    3.7650    0.0000 C   0  0  0  0  0  0  0  0  0  0  0  0
   -1.8870    4.9320    0.0000 O   0  0  0  0  0  0  0  0  0  0  0  0
    0.5540    3.8420    0.0000 N   0  0  0  0  0  0  0  0  0  0  0  0
    1.0900    2.4410    0.0000 C   0  0  3  0  0  0  0  0  0  0  0  0
    2.5380    2.0510    0.0000 N   0  0  0  0  0  0  0  0  0  0  0  0
    3.6000    3.1100    0.0000 C   0  0  0  0  0  0  0  0  0  0  0  0
    3.2140    4.5600    0.0000 O   0  0  0  0  0  0  0  0  0  0  0  0
    5.0490    2.7200    0.0000 N   0  0  0  0  0  0  0  0  0  0  0  0
  1  2  2  0  0  0  0
  2  3  1  0  0  0  0
  2  7  1  0  0  0  0
  3  4  1  0  0  0  0
  4  5  2  0  0  0  0
  4  6  1  0  0  0  0
  6  7  1  0  0  0  0
  7  8  1  0  0  0  0
  8  9  1  0  0  0  0
  9 10  2  0  0  0  0
  9 11  1  0  0  0  0
M  END
>  <Index>
45

>  <ID>
HT0101

>  <class>
0

>  <apol>
17.846758

>  <ast_fraglike>
0

>  <ast_fraglike_ext>
0

>  <ast_violation>
1

>  <ast_violation_ext>
2

>  <a_acc>
3

>  <a_acid>
0

>  <a_aro>
0

>  <a_base>
0

>  <a_count>
17

>  <a_don>
4

>  <a_donacc>
7

>  <a_heavy>
11

>  <a_hyd>
0

>  <a_IC>
33.222206

>  <a_ICM>
1.9542474

>  <a_nB>
0

>  <a_nBr>
0

>  <a_nC>
4

>  <a_nCl>
0

>  <a_nF>
0

>  <a_nH>
6

>  <a_nI>
0

>  <a_nN>
4

>  <a_nO>
3

>  <a_nP>
0

>  <a_nS>
0

>  <balabanJ>
2.3642297

>  <BCUT_PEOE_0>
-2.3756876

>  <BCUT_PEOE_1>
-0.56092888

>  <BCUT_PEOE_2>
0.46151444

>  <BCUT_PEOE_3>
2.5456412

>  <BCUT_SLOGP_0>
-2.7662086

>  <BCUT_SLOGP_1>
-0.47568557

>  <BCUT_SLOGP_2>
0.64728093

>  <BCUT_SLOGP_3>
2.1717365

>  <BCUT_SMR_0>
-2.1033831

>  <BCUT_SMR_1>
-0.34400934

>  <BCUT_SMR_2>
0.5715459

>  <BCUT_SMR_3>
2.8019111

>  <bpol>
10.753242

>  <b_1rotN>
1

>  <b_1rotR>
0.090909094

>  <b_ar>
0

>  <b_count>
17

>  <b_double>
3

>  <b_heavy>
11

>  <b_max1len>
3

>  <b_rotN>
2

>  <b_rotR>
0.18181819

>  <b_single>
14

>  <b_triple>
0

>  <chi0>
8.4307213

>  <chi0v>
5.3794456

>  <chi0v_C>
2.0773504

>  <chi0_C>
2.309401

>  <chi1>
5.0922241

>  <chi1v>
2.7670729

>  <chi1v_C>
0.28867513

>  <chi1_C>
0.33333334

>  <chiral>
1

>  <chiral_u>
1

>  <density>
0.95953

>  <diameter>
6

>  <FCharge>
0

>  <GCUT_PEOE_0>
-0.80227393

>  <GCUT_PEOE_1>
-0.47831032

>  <GCUT_PEOE_2>
0.10542206

>  <GCUT_PEOE_3>
2.0919511

>  <GCUT_SLOGP_0>
-1.371049

>  <GCUT_SLOGP_1>
-0.50790238

>  <GCUT_SLOGP_2>
0.24031267

>  <GCUT_SLOGP_3>
1.8259977

>  <GCUT_SMR_0>
-0.48186153

>  <GCUT_SMR_1>
-0.24005984

>  <GCUT_SMR_2>
0.17401481

>  <GCUT_SMR_3>
2.3311143

>  <Kier1>
9.090909

>  <Kier2>
3.5999999

>  <Kier3>
2.5

>  <KierA1>
5.5193725

>  <KierA2>
2.0603328

>  <KierA3>
1.3556331

>  <KierFlex>
1.033795

>  <lip_acc>
7

>  <lip_don>
5

>  <lip_druglike>
1

>  <lip_violation>
0

>  <logP(o/w)>
-2.575

>  <logS>
-0.14099

>  <mr>
3.2798557

>  <mutagenic>
0

>  <nmol>
1

>  <opr_brigid>
5

>  <opr_leadlike>
1

>  <opr_nring>
1

>  <opr_nrot>
1

>  <opr_violation>
0

>  <PC+>
0

>  <PC->
0

>  <PEOE_PC+>
2.0110414

>  <PEOE_PC->
-2.0110414

>  <PEOE_RPC+>
0.16138412

>  <PEOE_RPC->
0.17502266

>  <PEOE_VSA+0>
0

>  <PEOE_VSA+1>
4.2653861

>  <PEOE_VSA+2>
0

>  <PEOE_VSA+3>
50.732037

>  <PEOE_VSA+4>
0

>  <PEOE_VSA+5>
12.949531

>  <PEOE_VSA+6>
34.881084

>  <PEOE_VSA-0>
0

>  <PEOE_VSA-1>
0

>  <PEOE_VSA-2>
0

>  <PEOE_VSA-3>
0

>  <PEOE_VSA-4>
27.133842

>  <PEOE_VSA-5>
13.703812

>  <PEOE_VSA-6>
6.9249015

>  <PEOE_VSA_FHYD>
0.36521155

>  <PEOE_VSA_FNEG>
0.31716824

>  <PEOE_VSA_FPNEG>
0.31716824

>  <PEOE_VSA_FPOL>
0.63478845

>  <PEOE_VSA_FPOS>
0.68283176

>  <PEOE_VSA_FPPOS>
0.31762022

>  <PEOE_VSA_HYD>
54.997421

>  <PEOE_VSA_NEG>
47.762554

>  <PEOE_VSA_PNEG>
47.762554

>  <PEOE_VSA_POL>
95.59317

>  <PEOE_VSA_POS>
102.82804

>  <PEOE_VSA_PPOS>
47.830616

>  <petitjean>
0.5

>  <petitjeanSC>
1

>  <Q_PC+>
0

>  <Q_PC->
0

>  <Q_RPC+>
0

>  <Q_RPC->
0

>  <Q_VSA_FHYD>
1

>  <Q_VSA_FNEG>
0

>  <Q_VSA_FPNEG>
0

>  <Q_VSA_FPOL>
0

>  <Q_VSA_FPOS>
1

>  <Q_VSA_FPPOS>
0

>  <Q_VSA_HYD>
150.59059

>  <Q_VSA_NEG>
0

>  <Q_VSA_PNEG>
0

>  <Q_VSA_POL>
0

>  <Q_VSA_POS>
150.59059

>  <Q_VSA_PPOS>
0

>  <radius>
3

>  <reactive>
0

>  <rings>
1

>  <RPC+>
0

>  <RPC->
0

>  <rsynth>
1

>  <SlogP>
-2.1798

>  <SlogP_VSA0>
86.929436

>  <SlogP_VSA1>
14.918696

>  <SlogP_VSA2>
27.415358

>  <SlogP_VSA3>
0

>  <SlogP_VSA4>
0

>  <SlogP_VSA5>
0

>  <SlogP_VSA6>
0

>  <SlogP_VSA7>
0

>  <SlogP_VSA8>
0

>  <SlogP_VSA9>
47.724434

>  <SMR>
3.31815

>  <SMR_VSA0>
71.586647

>  <SMR_VSA1>
0

>  <SMR_VSA2>
54.032253

>  <SMR_VSA3>
3.5531414

>  <SMR_VSA4>
32.897186

>  <SMR_VSA5>
0

>  <SMR_VSA6>
14.918696

>  <SMR_VSA7>
0

>  <TPSA>
113.32

>  <VAdjEq>
0.68403846

>  <VAdjMa>
4.4594316

>  <VDistEq>
2.419693

>  <VDistMa>
6.59659

>  <vdw_area>
150.59059

>  <vdw_vol>
164.78589

>  <vsa_acc>
40.700764

>  <vsa_acid>
0

>  <vsa_base>
0

>  <vsa_don>
34.790218

>  <vsa_hyd>
0

>  <vsa_other>
59.021179

>  <vsa_pol>
75.490982

>  <Weight>
158.117

>  <weinerPath>
157

>  <weinerPol>
11

>  <zagreb>
52

$$$$