Brc1c(nc(nc1Oc1c(cc(cc1C)C#N)C)Nc1ccc(cc1)C#N)N
  MOE2013           2D

 28 30  0  0  0  0  0  0  0  0999 V2000
    0.0000    0.0000    0.0000 Br  0  0  0  0  0  0  0  0  0  0  0  0
    0.7440   -1.3020    0.0000 C   0  0  0  0  0  0  0  0  0  0  0  0
    2.2440   -1.3090    0.0000 C   0  0  0  0  0  0  0  0  0  0  0  0
    2.9890   -2.6110    0.0000 N   0  0  0  0  0  0  0  0  0  0  0  0
    2.2330   -3.9070    0.0000 C   0  0  0  0  0  0  0  0  0  0  0  0
    0.7330   -3.9000    0.0000 N   0  0  0  0  0  0  0  0  0  0  0  0
   -0.0110   -2.5980    0.0000 C   0  0  0  0  0  0  0  0  0  0  0  0
   -1.5110   -2.5920    0.0000 O   0  0  0  0  0  0  0  0  0  0  0  0
   -2.2670   -3.8870    0.0000 C   0  0  0  0  0  0  0  0  0  0  0  0
   -3.7670   -3.8810    0.0000 C   0  0  0  0  0  0  0  0  0  0  0  0
   -4.5220   -5.1770    0.0000 C   0  0  0  0  0  0  0  0  0  0  0  0
   -3.7780   -6.4790    0.0000 C   0  0  0  0  0  0  0  0  0  0  0  0
   -2.2780   -6.4850    0.0000 C   0  0  0  0  0  0  0  0  0  0  0  0
   -1.5220   -5.1900    0.0000 C   0  0  0  0  0  0  0  0  0  0  0  0
   -0.0220   -5.1960    0.0000 C   0  0  0  0  0  0  0  0  0  0  0  0
   -4.5330   -7.7750    0.0000 C   0  0  0  0  0  0  0  0  0  0  0  0
   -5.2890   -9.0710    0.0000 N   0  0  0  0  0  0  0  0  0  0  0  0
   -4.5110   -2.5790    0.0000 C   0  0  0  0  0  0  0  0  0  0  0  0
    2.9780   -5.2090    0.0000 N   0  0  0  0  0  0  0  0  0  0  0  0
    4.4780   -5.2150    0.0000 C   0  0  0  0  0  0  0  0  0  0  0  0
    5.2330   -3.9200    0.0000 C   0  0  0  0  0  0  0  0  0  0  0  0
    6.7330   -3.9260    0.0000 C   0  0  0  0  0  0  0  0  0  0  0  0
    7.4780   -5.2280    0.0000 C   0  0  0  0  0  0  0  0  0  0  0  0
    6.7220   -6.5240    0.0000 C   0  0  0  0  0  0  0  0  0  0  0  0
    5.2220   -6.5180    0.0000 C   0  0  0  0  0  0  0  0  0  0  0  0
    8.9780   -5.2350    0.0000 C   0  0  0  0  0  0  0  0  0  0  0  0
   10.4780   -5.2410    0.0000 N   0  0  0  0  0  0  0  0  0  0  0  0
    3.0000   -0.0130    0.0000 N   0  0  0  0  0  0  0  0  0  0  0  0
  1  2  1  0  0  0  0
  2  3  1  0  0  0  0
  2  7  2  0  0  0  0
  3  4  2  0  0  0  0
  3 28  1  0  0  0  0
  4  5  1  0  0  0  0
  5  6  2  0  0  0  0
  5 19  1  0  0  0  0
  6  7  1  0  0  0  0
  7  8  1  0  0  0  0
  8  9  1  0  0  0  0
  9 10  1  0  0  0  0
  9 14  2  0  0  0  0
 10 11  2  0  0  0  0
 10 18  1  0  0  0  0
 11 12  1  0  0  0  0
 12 13  2  0  0  0  0
 12 16  1  0  0  0  0
 13 14  1  0  0  0  0
 14 15  1  0  0  0  0
 16 17  3  0  0  0  0
 19 20  1  0  0  0  0
 20 21  1  0  0  0  0
 20 25  2  0  0  0  0
 21 22  2  0  0  0  0
 22 23  1  0  0  0  0
 23 24  2  0  0  0  0
 23 26  1  0  0  0  0
 24 25  1  0  0  0  0
 26 27  3  0  0  0  0
M  END
>  <Index>
413

>  <ID>
HT0834

>  <class>
0

>  <apol>
55.653896

>  <ast_fraglike>
0

>  <ast_fraglike_ext>
0

>  <ast_violation>
3

>  <ast_violation_ext>
5

>  <a_acc>
4

>  <a_acid>
0

>  <a_aro>
18

>  <a_base>
0

>  <a_count>
43

>  <a_don>
2

>  <a_donacc>
6

>  <a_heavy>
28

>  <a_hyd>
16

>  <a_IC>
72.777687

>  <a_ICM>
1.6925044

>  <a_nB>
0

>  <a_nBr>
1

>  <a_nC>
20

>  <a_nCl>
0

>  <a_nF>
0

>  <a_nH>
15

>  <a_nI>
0

>  <a_nN>
6

>  <a_nO>
1

>  <a_nP>
0

>  <a_nS>
0

>  <balabanJ>
1.5537891

>  <BCUT_PEOE_0>
-2.3332367

>  <BCUT_PEOE_1>
-0.68298334

>  <BCUT_PEOE_2>
0.70084441

>  <BCUT_PEOE_3>
2.3173604

>  <BCUT_SLOGP_0>
-2.3306668

>  <BCUT_SLOGP_1>
-0.59841186

>  <BCUT_SLOGP_2>
0.80591482

>  <BCUT_SLOGP_3>
2.4907336

>  <BCUT_SMR_0>
-2.0476351

>  <BCUT_SMR_1>
-0.44523856

>  <BCUT_SMR_2>
0.91269302

>  <BCUT_SMR_3>
2.6156757

>  <bpol>
23.564104

>  <b_1rotN>
4

>  <b_1rotR>
0.13333334

>  <b_ar>
18

>  <b_count>
45

>  <b_double>
0

>  <b_heavy>
30

>  <b_max1len>
2

>  <b_rotN>
6

>  <b_rotR>
0.2

>  <b_single>
25

>  <b_triple>
2

>  <chi0>
20.258783

>  <chi0v>
16.702515

>  <chi0v_C>
11.464102

>  <chi0_C>
13.430357

>  <chi1>
13.405417

>  <chi1v>
8.9966125

>  <chi1v_C>
5.4760675

>  <chi1_C>
7.5705166

>  <chiral>
0

>  <chiral_u>
0

>  <density>
0.85184222

>  <diameter>
16

>  <FCharge>
0

>  <GCUT_PEOE_0>
-0.78349084

>  <GCUT_PEOE_1>
-0.50417936

>  <GCUT_PEOE_2>
0.10880985

>  <GCUT_PEOE_3>
2.456228

>  <GCUT_SLOGP_0>
-1.3347977

>  <GCUT_SLOGP_1>
-0.30003089

>  <GCUT_SLOGP_2>
0.27177647

>  <GCUT_SLOGP_3>
2.6170957

>  <GCUT_SMR_0>
-0.4846575

>  <GCUT_SMR_1>
-0.21605732

>  <GCUT_SMR_2>
0.34094691

>  <GCUT_SMR_3>
2.7603142

>  <Kier1>
22.68

>  <Kier2>
10.346939

>  <Kier3>
5.7956104

>  <KierA1>
16.117525

>  <KierA2>
7.252419

>  <KierA3>
4.022563

>  <KierFlex>
4.1746802

>  <lip_acc>
7

>  <lip_don>
3

>  <lip_druglike>
1

>  <lip_violation>
0

>  <logP(o/w)>
3.8069999

>  <logS>
-6.7491002

>  <mr>
10.978179

>  <mutagenic>
1

>  <nmol>
1

>  <opr_brigid>
18

>  <opr_leadlike>
1

>  <opr_nring>
3

>  <opr_nrot>
6

>  <opr_violation>
1

>  <PC+>
0

>  <PC->
0

>  <PEOE_PC+>
1.981679

>  <PEOE_PC->
-1.981679

>  <PEOE_RPC+>
0.10582109

>  <PEOE_RPC->
0.14595668

>  <PEOE_VSA+0>
32.291866

>  <PEOE_VSA+1>
79.066925

>  <PEOE_VSA+2>
39.299809

>  <PEOE_VSA+3>
12.949531

>  <PEOE_VSA+4>
15.681574

>  <PEOE_VSA+5>
0

>  <PEOE_VSA+6>
0

>  <PEOE_VSA-0>
159.06671

>  <PEOE_VSA-1>
0

>  <PEOE_VSA-2>
0

>  <PEOE_VSA-3>
41.167557

>  <PEOE_VSA-4>
5.8194671

>  <PEOE_VSA-5>
9.1548758

>  <PEOE_VSA-6>
0

>  <PEOE_VSA_FHYD>
0.9222914

>  <PEOE_VSA_FNEG>
0.54552478

>  <PEOE_VSA_FPNEG>
0.037957937

>  <PEOE_VSA_FPOL>
0.077708617

>  <PEOE_VSA_FPOS>
0.45447522

>  <PEOE_VSA_FPPOS>
0.039750677

>  <PEOE_VSA_HYD>
363.84241

>  <PEOE_VSA_NEG>
215.2086

>  <PEOE_VSA_PNEG>
14.974342

>  <PEOE_VSA_POL>
30.655916

>  <PEOE_VSA_POS>
179.2897

>  <PEOE_VSA_PPOS>
15.681574

>  <petitjean>
0.5

>  <petitjeanSC>
1

>  <Q_PC+>
0

>  <Q_PC->
0

>  <Q_RPC+>
0

>  <Q_RPC->
0

>  <Q_VSA_FHYD>
1

>  <Q_VSA_FNEG>
0

>  <Q_VSA_FPNEG>
0

>  <Q_VSA_FPOL>
0

>  <Q_VSA_FPOS>
1

>  <Q_VSA_FPPOS>
0

>  <Q_VSA_HYD>
394.49832

>  <Q_VSA_NEG>
0

>  <Q_VSA_PNEG>
0

>  <Q_VSA_POL>
0

>  <Q_VSA_POS>
394.49832

>  <Q_VSA_PPOS>
0

>  <radius>
8

>  <reactive>
0

>  <rings>
3

>  <RPC+>
0

>  <RPC->
0

>  <rsynth>
0.64285713

>  <SlogP>
4.7174082

>  <SlogP_VSA0>
43.897076

>  <SlogP_VSA1>
51.58181

>  <SlogP_VSA2>
0

>  <SlogP_VSA3>
95.322205

>  <SlogP_VSA4>
12.7423

>  <SlogP_VSA5>
3.0551045

>  <SlogP_VSA6>
0

>  <SlogP_VSA7>
105.85911

>  <SlogP_VSA8>
0

>  <SlogP_VSA9>
129.64792

>  <SMR>
10.92891

>  <SMR_VSA0>
0

>  <SMR_VSA1>
106.68966

>  <SMR_VSA2>
3.0551045

>  <SMR_VSA3>
56.003822

>  <SMR_VSA4>
24.994511

>  <SMR_VSA5>
138.75629

>  <SMR_VSA6>
0

>  <SMR_VSA7>
112.60612

>  <TPSA>
120.64

>  <VAdjEq>
0.38983503

>  <VAdjMa>
5.9068904

>  <VDistEq>
3.6458654

>  <VDistMa>
9.3122663

>  <vdw_area>
394.49832

>  <vdw_vol>
510.99252

>  <vsa_acc>
46.850132

>  <vsa_acid>
0

>  <vsa_base>
0

>  <vsa_don>
23.425066

>  <vsa_hyd>
223.53716

>  <vsa_other>
82.924438

>  <vsa_pol>
70.2752

>  <Weight>
435.285

>  <weinerPath>
2190

>  <weinerPol>
45

>  <zagreb>
144

$$$$