S(C(=O)[C@]1(O)[C@@]2([C@H]([C@@H]3C[C@H](F)C4=CC(=O)C=C[C@]4(C)[C@@]3(F)[C@@H](O)C2)C[C@H]1C)C)CF
  MOE2013           2D

 30 33  0  0  1  0  0  0  0  0999 V2000
    0.0000    0.0000    0.0000 S   0  0  0  0  0  0  0  0  0  0  0  0
    0.5460    1.3970    0.0000 C   0  0  0  0  0  0  0  0  0  0  0  0
   -0.3910    2.5690    0.0000 O   0  0  0  0  0  0  0  0  0  0  0  0
    2.0290    1.6230    0.0000 C   0  0  2  0  0  0  0  0  0  0  0  0
    1.5320    0.2070    0.0000 O   0  0  0  0  0  0  0  0  0  0  0  0
    3.4940    1.3020    0.0000 C   0  0  2  0  0  0  0  0  0  0  0  0
    4.2520    2.5960    0.0000 C   0  0  2  0  0  0  0  0  0  0  0  0
    5.7520    2.5870    0.0000 C   0  0  2  0  0  0  0  0  0  0  0  0
    6.5100    3.8820    0.0000 C   0  0  0  0  0  0  0  0  0  0  0  0
    8.0100    3.8720    0.0000 C   0  0  2  0  0  0  0  0  0  0  0  0
    8.7680    5.1670    0.0000 F   0  0  0  0  0  0  0  0  0  0  0  0
    8.7520    2.5690    0.0000 C   0  0  0  0  0  0  0  0  0  0  0  0
   10.2520    2.5600    0.0000 C   0  0  0  0  0  0  0  0  0  0  0  0
   10.9940    1.2560    0.0000 C   0  0  0  0  0  0  0  0  0  0  0  0
   12.4940    1.2470    0.0000 O   0  0  0  0  0  0  0  0  0  0  0  0
   10.2360   -0.0380    0.0000 C   0  0  0  0  0  0  0  0  0  0  0  0
    8.7360   -0.0290    0.0000 C   0  0  0  0  0  0  0  0  0  0  0  0
    7.9940    1.2740    0.0000 C   0  0  1  0  0  0  0  0  0  0  0  0
    7.2360   -0.0200    0.0000 C   0  0  0  0  0  0  0  0  0  0  0  0
    6.4940    1.2840    0.0000 C   0  0  2  0  0  0  0  0  0  0  0  0
    4.9940    1.2930    0.0000 F   0  0  0  0  0  0  0  0  0  0  0  0
    5.7360   -0.0110    0.0000 C   0  0  1  0  0  0  0  0  0  0  0  0
    6.4780   -1.3140    0.0000 O   0  0  0  0  0  0  0  0  0  0  0  0
    4.2360   -0.0020    0.0000 C   0  0  0  0  0  0  0  0  0  0  0  0
    3.2550    3.7170    0.0000 C   0  0  0  0  0  0  0  0  0  0  0  0
    1.8810    3.1150    0.0000 C   0  0  1  0  0  0  0  0  0  0  0  0
    0.5870    3.8730    0.0000 C   0  0  0  0  0  0  0  0  0  0  0  0
    2.6260    0.0780    0.0000 C   0  0  0  0  0  0  0  0  0  0  0  0
   -1.4830   -0.2260    0.0000 C   0  0  0  0  0  0  0  0  0  0  0  0
   -2.0290   -1.6230    0.0000 F   0  0  0  0  0  0  0  0  0  0  0  0
  1  2  1  0  0  0  0
  1 29  1  0  0  0  0
  2  3  2  0  0  0  0
  4  2  1  1  0  0  0
  4  5  1  6  0  0  0
  4  6  1  0  0  0  0
  4 26  1  0  0  0  0
  6  7  1  0  0  0  0
  6 24  1  0  0  0  0
  6 28  1  1  0  0  0
  7  8  1  0  0  0  0
  7 25  1  1  0  0  0
  8  9  1  6  0  0  0
  8 20  1  0  0  0  0
  9 10  1  0  0  0  0
 10 11  1  6  0  0  0
 10 12  1  0  0  0  0
 12 13  2  0  0  0  0
 12 18  1  0  0  0  0
 13 14  1  0  0  0  0
 14 15  2  0  0  0  0
 14 16  1  0  0  0  0
 16 17  2  0  0  0  0
 17 18  1  0  0  0  0
 18 19  1  1  0  0  0
 18 20  1  0  0  0  0
 20 21  1  6  0  0  0
 20 22  1  0  0  0  0
 22 23  1  1  0  0  0
 22 24  1  0  0  0  0
 25 26  1  0  0  0  0
 26 27  1  6  0  0  0
 29 30  1  0  0  0  0
M  END
>  <Index>
453

>  <ID>
HT0923

>  <class>
0

>  <apol>
64.502411

>  <ast_fraglike>
0

>  <ast_fraglike_ext>
0

>  <ast_violation>
3

>  <ast_violation_ext>
3

>  <a_acc>
4

>  <a_acid>
0

>  <a_aro>
0

>  <a_base>
0

>  <a_count>
57

>  <a_don>
2

>  <a_donacc>
6

>  <a_heavy>
30

>  <a_hyd>
24

>  <a_IC>
93.230385

>  <a_ICM>
1.6356208

>  <a_nB>
0

>  <a_nBr>
0

>  <a_nC>
22

>  <a_nCl>
0

>  <a_nF>
3

>  <a_nH>
27

>  <a_nI>
0

>  <a_nN>
0

>  <a_nO>
4

>  <a_nP>
0

>  <a_nS>
1

>  <balabanJ>
1.7820674

>  <BCUT_PEOE_0>
-2.8902161

>  <BCUT_PEOE_1>
-0.49678874

>  <BCUT_PEOE_2>
0.42574725

>  <BCUT_PEOE_3>
3.0033913

>  <BCUT_SLOGP_0>
-2.9280093

>  <BCUT_SLOGP_1>
-0.41830462

>  <BCUT_SLOGP_2>
0.50640702

>  <BCUT_SLOGP_3>
2.9914696

>  <BCUT_SMR_0>
-2.6703584

>  <BCUT_SMR_1>
-0.31001094

>  <BCUT_SMR_2>
0.59720081

>  <BCUT_SMR_3>
3.2265606

>  <bpol>
37.32159

>  <b_1rotN>
2

>  <b_1rotR>
0.060606062

>  <b_ar>
0

>  <b_count>
60

>  <b_double>
4

>  <b_heavy>
33

>  <b_max1len>
3

>  <b_rotN>
3

>  <b_rotR>
0.090909094

>  <b_single>
56

>  <b_triple>
0

>  <chi0>
22.275656

>  <chi0v>
18.01679

>  <chi0v_C>
13.947229

>  <chi0_C>
14.568549

>  <chi1>
13.873917

>  <chi1v>
11.279801

>  <chi1v_C>
8.2368879

>  <chi1_C>
8.9491606

>  <chiral>
9

>  <chiral_u>
0

>  <density>
0.83061582

>  <diameter>
13

>  <FCharge>
0

>  <GCUT_PEOE_0>
-0.78945541

>  <GCUT_PEOE_1>
-0.38193783

>  <GCUT_PEOE_2>
0.0059509766

>  <GCUT_PEOE_3>
3.3677945

>  <GCUT_SLOGP_0>
-0.92793918

>  <GCUT_SLOGP_1>
-0.31479967

>  <GCUT_SLOGP_2>
0.11051852

>  <GCUT_SLOGP_3>
3.3895104

>  <GCUT_SMR_0>
-0.53789371

>  <GCUT_SMR_1>
-0.20814855

>  <GCUT_SMR_2>
0.15365586

>  <GCUT_SMR_3>
3.5855408

>  <Kier1>
23.168043

>  <Kier2>
7.25

>  <Kier3>
2.7334712

>  <KierA1>
21.331156

>  <KierA2>
6.6554575

>  <KierA3>
2.5040612

>  <KierFlex>
4.7322865

>  <lip_acc>
4

>  <lip_don>
2

>  <lip_druglike>
1

>  <lip_violation>
0

>  <logP(o/w)>
4.0679998

>  <logS>
-4.5870199

>  <mr>
10.806813

>  <mutagenic>
0

>  <nmol>
1

>  <opr_brigid>
20

>  <opr_leadlike>
1

>  <opr_nring>
4

>  <opr_nrot>
3

>  <opr_violation>
0

>  <PC+>
0

>  <PC->
0

>  <PEOE_PC+>
2.4897821

>  <PEOE_PC->
-2.4897821

>  <PEOE_RPC+>
0.089904673

>  <PEOE_RPC->
0.15607013

>  <PEOE_VSA+0>
76.776947

>  <PEOE_VSA+1>
34.76263

>  <PEOE_VSA+2>
22.956936

>  <PEOE_VSA+3>
8.458519

>  <PEOE_VSA+4>
31.082926

>  <PEOE_VSA+5>
0

>  <PEOE_VSA+6>
0

>  <PEOE_VSA-0>
71.569962

>  <PEOE_VSA-1>
69.51088

>  <PEOE_VSA-2>
0

>  <PEOE_VSA-3>
0

>  <PEOE_VSA-4>
35.725906

>  <PEOE_VSA-5>
27.133842

>  <PEOE_VSA-6>
15.535081

>  <PEOE_VSA_FHYD>
0.72179425

>  <PEOE_VSA_FNEG>
0.55773336

>  <PEOE_VSA_FPNEG>
0.19921757

>  <PEOE_VSA_FPOL>
0.27820575

>  <PEOE_VSA_FPOS>
0.44226667

>  <PEOE_VSA_FPPOS>
0.07898818

>  <PEOE_VSA_HYD>
284.03589

>  <PEOE_VSA_NEG>
219.47568

>  <PEOE_VSA_PNEG>
78.394829

>  <PEOE_VSA_POL>
109.47775

>  <PEOE_VSA_POS>
174.03796

>  <PEOE_VSA_PPOS>
31.082926

>  <petitjean>
0.46153846

>  <petitjeanSC>
0.85714287

>  <Q_PC+>
0

>  <Q_PC->
0

>  <Q_RPC+>
0

>  <Q_RPC->
0

>  <Q_VSA_FHYD>
1

>  <Q_VSA_FNEG>
0

>  <Q_VSA_FPNEG>
0

>  <Q_VSA_FPOL>
0

>  <Q_VSA_FPOS>
1

>  <Q_VSA_FPPOS>
0

>  <Q_VSA_HYD>
393.51364

>  <Q_VSA_NEG>
0

>  <Q_VSA_PNEG>
0

>  <Q_VSA_POL>
0

>  <Q_VSA_POS>
393.51364

>  <Q_VSA_PPOS>
0

>  <radius>
7

>  <reactive>
0

>  <rings>
4

>  <RPC+>
0

>  <RPC->
0

>  <rsynth>
0.36666667

>  <SlogP>
3.4691

>  <SlogP_VSA0>
50.770454

>  <SlogP_VSA1>
9.7403812

>  <SlogP_VSA2>
64.539322

>  <SlogP_VSA3>
23.169008

>  <SlogP_VSA4>
13.232388

>  <SlogP_VSA5>
3.185575

>  <SlogP_VSA6>
0

>  <SlogP_VSA7>
52.929554

>  <SlogP_VSA8>
56.605217

>  <SlogP_VSA9>
177.07793

>  <SMR>
10.67046

>  <SMR_VSA0>
47.724434

>  <SMR_VSA1>
95.650795

>  <SMR_VSA2>
13.232388

>  <SMR_VSA3>
20.000463

>  <SMR_VSA4>
0

>  <SMR_VSA5>
109.53477

>  <SMR_VSA6>
32.909389

>  <SMR_VSA7>
132.19759

>  <TPSA>
74.599998

>  <VAdjEq>
0.37824166

>  <VAdjMa>
6.044394

>  <VDistEq>
3.2334452

>  <VDistMa>
9.5618706

>  <vdw_area>
393.51364

>  <vdw_vol>
535.16193

>  <vsa_acc>
27.133842

>  <vsa_acid>
0

>  <vsa_base>
0

>  <vsa_don>
0

>  <vsa_hyd>
289.47324

>  <vsa_other>
18.893101

>  <vsa_pol>
54.267685

>  <Weight>
444.51398

>  <weinerPath>
2021

>  <weinerPol>
74

>  <zagreb>
178

$$$$