OC(=O)CCCN
  MOE2013           2D

  7  6  0  0  0  0  0  0  0  0999 V2000
    0.0000    0.0000    0.0000 O   0  0  0  0  0  0  0  0  0  0  0  0
    1.2950   -0.7570    0.0000 C   0  0  0  0  0  0  0  0  0  0  0  0
    1.2870   -2.2570    0.0000 O   0  0  0  0  0  0  0  0  0  0  0  0
    2.5980   -0.0130    0.0000 C   0  0  0  0  0  0  0  0  0  0  0  0
    3.8930   -0.7700    0.0000 C   0  0  0  0  0  0  0  0  0  0  0  0
    5.1960   -0.0270    0.0000 C   0  0  0  0  0  0  0  0  0  0  0  0
    6.4910   -0.7830    0.0000 N   0  0  0  0  0  0  0  0  0  0  0  0
  1  2  1  0  0  0  0
  2  3  2  0  0  0  0
  2  4  1  0  0  0  0
  4  5  1  0  0  0  0
  5  6  1  0  0  0  0
  6  7  1  0  0  0  0
M  END
>  <Index>
477

>  <ID>
HT0962

>  <class>
0

>  <apol>
15.745137

>  <ast_fraglike>
1

>  <ast_fraglike_ext>
1

>  <ast_violation>
0

>  <ast_violation_ext>
0

>  <a_acc>
3

>  <a_acid>
0

>  <a_aro>
0

>  <a_base>
0

>  <a_count>
16

>  <a_don>
3

>  <a_donacc>
6

>  <a_heavy>
7

>  <a_hyd>
3

>  <a_IC>
25.470675

>  <a_ICM>
1.5919172

>  <a_nB>
0

>  <a_nBr>
0

>  <a_nC>
4

>  <a_nCl>
0

>  <a_nF>
0

>  <a_nH>
9

>  <a_nI>
0

>  <a_nN>
1

>  <a_nO>
2

>  <a_nP>
0

>  <a_nS>
0

>  <balabanJ>
2.7140133

>  <BCUT_PEOE_0>
-2.5317497

>  <BCUT_PEOE_1>
-0.51578438

>  <BCUT_PEOE_2>
0.44747528

>  <BCUT_PEOE_3>
2.5184007

>  <BCUT_SLOGP_0>
-2.667258

>  <BCUT_SLOGP_1>
-0.47683123

>  <BCUT_SLOGP_2>
0.39322683

>  <BCUT_SLOGP_3>
2.5321686

>  <BCUT_SMR_0>
-2.2887008

>  <BCUT_SMR_1>
-0.30388924

>  <BCUT_SMR_2>
0.58139825

>  <BCUT_SMR_3>
2.7523122

>  <bpol>
10.136863

>  <b_1rotN>
3

>  <b_1rotR>
0.5

>  <b_ar>
0

>  <b_count>
15

>  <b_double>
1

>  <b_heavy>
6

>  <b_max1len>
5

>  <b_rotN>
3

>  <b_rotR>
0.5

>  <b_single>
14

>  <b_triple>
0

>  <chi0>
5.6986704

>  <chi0v>
4.0541325

>  <chi0v_C>
2.6213202

>  <chi0_C>
2.6986706

>  <chi1>
3.2700555

>  <chi1v>
2.1895325

>  <chi1v_C>
1.3535534

>  <chi1_C>
1.4082483

>  <chiral>
0

>  <chiral_u>
0

>  <density>
0.75832528

>  <diameter>
5

>  <FCharge>
0

>  <GCUT_PEOE_0>
-0.84060949

>  <GCUT_PEOE_1>
-0.43268961

>  <GCUT_PEOE_2>
0.087832816

>  <GCUT_PEOE_3>
2.0006061

>  <GCUT_SLOGP_0>
-1.3632634

>  <GCUT_SLOGP_1>
-0.3460896

>  <GCUT_SLOGP_2>
0.054200001

>  <GCUT_SLOGP_3>
1.9921379

>  <GCUT_SMR_0>
-0.517699

>  <GCUT_SMR_1>
-0.23334755

>  <GCUT_SMR_2>
0.20350711

>  <GCUT_SMR_3>
2.2111833

>  <Kier1>
7

>  <Kier2>
4.1666665

>  <Kier3>
6

>  <KierA1>
6.0467501

>  <KierA2>
3.4975834

>  <KierA3>
4.8770623

>  <KierFlex>
3.0212874

>  <lip_acc>
3

>  <lip_don>
3

>  <lip_druglike>
1

>  <lip_violation>
0

>  <logP(o/w)>
-0.59100002

>  <logS>
0.63857001

>  <mr>
2.6521668

>  <mutagenic>
0

>  <nmol>
1

>  <opr_brigid>
0

>  <opr_leadlike>
1

>  <opr_nring>
0

>  <opr_nrot>
3

>  <opr_violation>
0

>  <PC+>
0

>  <PC->
0

>  <PEOE_PC+>
0.96451247

>  <PEOE_PC->
-0.96451247

>  <PEOE_RPC+>
0.26918179

>  <PEOE_RPC->
0.3434554

>  <PEOE_VSA+0>
34.293629

>  <PEOE_VSA+1>
0

>  <PEOE_VSA+2>
17.238026

>  <PEOE_VSA+3>
0

>  <PEOE_VSA+4>
10.324173

>  <PEOE_VSA+5>
14.708499

>  <PEOE_VSA+6>
0

>  <PEOE_VSA-0>
21.893639

>  <PEOE_VSA-1>
0

>  <PEOE_VSA-2>
0

>  <PEOE_VSA-3>
0

>  <PEOE_VSA-4>
0

>  <PEOE_VSA-5>
13.566921

>  <PEOE_VSA-6>
14.418659

>  <PEOE_VSA_FHYD>
0.58069623

>  <PEOE_VSA_FNEG>
0.39447817

>  <PEOE_VSA_FPNEG>
0.22132866

>  <PEOE_VSA_FPOL>
0.41930375

>  <PEOE_VSA_FPOS>
0.60552186

>  <PEOE_VSA_FPPOS>
0.19797508

>  <PEOE_VSA_HYD>
73.425293

>  <PEOE_VSA_NEG>
49.879219

>  <PEOE_VSA_PNEG>
27.98558

>  <PEOE_VSA_POL>
53.018253

>  <PEOE_VSA_POS>
76.564323

>  <PEOE_VSA_PPOS>
25.032671

>  <petitjean>
0.40000001

>  <petitjeanSC>
0.66666669

>  <Q_PC+>
0

>  <Q_PC->
0

>  <Q_RPC+>
0

>  <Q_RPC->
0

>  <Q_VSA_FHYD>
1

>  <Q_VSA_FNEG>
0

>  <Q_VSA_FPNEG>
0

>  <Q_VSA_FPOL>
0

>  <Q_VSA_FPOS>
1

>  <Q_VSA_FPPOS>
0

>  <Q_VSA_HYD>
126.44354

>  <Q_VSA_NEG>
0

>  <Q_VSA_PNEG>
0

>  <Q_VSA_POL>
0

>  <Q_VSA_POS>
126.44354

>  <Q_VSA_PPOS>
0

>  <radius>
3

>  <reactive>
0

>  <rings>
0

>  <RPC+>
0

>  <RPC->
0

>  <rsynth>
1

>  <SlogP>
-0.1901

>  <SlogP_VSA0>
32.897186

>  <SlogP_VSA1>
7.7454643

>  <SlogP_VSA2>
23.862217

>  <SlogP_VSA3>
43.824806

>  <SlogP_VSA4>
0

>  <SlogP_VSA5>
0

>  <SlogP_VSA6>
0

>  <SlogP_VSA7>
0

>  <SlogP_VSA8>
37.736813

>  <SlogP_VSA9>
0

>  <SMR>
2.5924201

>  <SMR_VSA0>
23.862217

>  <SMR_VSA1>
0

>  <SMR_VSA2>
25.385227

>  <SMR_VSA3>
0

>  <SMR_VSA4>
32.897186

>  <SMR_VSA5>
37.736813

>  <SMR_VSA6>
26.185041

>  <SMR_VSA7>
0

>  <TPSA>
63.32

>  <VAdjEq>
0.80309099

>  <VAdjMa>
3.5849626

>  <VDistEq>
2.2125823

>  <VDistMa>
5.195847

>  <vdw_area>
126.44354

>  <vdw_vol>
135.98517

>  <vsa_acc>
0

>  <vsa_acid>
0

>  <vsa_base>
0

>  <vsa_don>
0

>  <vsa_hyd>
51.916496

>  <vsa_other>
14.708499

>  <vsa_pol>
44.876331

>  <Weight>
103.12099

>  <weinerPath>
52

>  <weinerPol>
4

>  <zagreb>
24

$$$$