FC(F)(F)c1ccc(cc1)/C(=N/OCCN)/CCCCOC
  MOE2013           2D

 22 22  0  0  0  0  0  0  0  0999 V2000
    0.0000    0.0000    0.0000 F   0  0  0  0  0  0  0  0  0  0  0  0
   -1.5000    0.0020    0.0000 C   0  0  0  0  0  0  0  0  0  0  0  0
   -1.4980    1.5020    0.0000 F   0  0  0  0  0  0  0  0  0  0  0  0
   -1.5020   -1.4980    0.0000 F   0  0  0  0  0  0  0  0  0  0  0  0
   -3.0000    0.0040    0.0000 C   0  0  0  0  0  0  0  0  0  0  0  0
   -3.7520   -1.2940    0.0000 C   0  0  0  0  0  0  0  0  0  0  0  0
   -5.2520   -1.2920    0.0000 C   0  0  0  0  0  0  0  0  0  0  0  0
   -6.0000    0.0080    0.0000 C   0  0  0  0  0  0  0  0  0  0  0  0
   -5.2480    1.3060    0.0000 C   0  0  0  0  0  0  0  0  0  0  0  0
   -3.7480    1.3040    0.0000 C   0  0  0  0  0  0  0  0  0  0  0  0
   -7.5000    0.0100    0.0000 C   0  0  0  0  0  0  0  0  0  0  0  0
   -8.2480    1.3100    0.0000 N   0  0  0  0  0  0  0  0  0  0  0  0
   -9.7480    1.3120    0.0000 O   0  0  0  0  0  0  0  0  0  0  0  0
  -10.4970    2.6120    0.0000 C   0  0  0  0  0  0  0  0  0  0  0  0
  -11.9970    2.6140    0.0000 C   0  0  0  0  0  0  0  0  0  0  0  0
  -12.7450    3.9140    0.0000 N   0  0  0  0  0  0  0  0  0  0  0  0
   -8.2520   -1.2880    0.0000 C   0  0  0  0  0  0  0  0  0  0  0  0
   -9.7520   -1.2860    0.0000 C   0  0  0  0  0  0  0  0  0  0  0  0
  -10.5030   -2.5840    0.0000 C   0  0  0  0  0  0  0  0  0  0  0  0
  -12.0030   -2.5830    0.0000 C   0  0  0  0  0  0  0  0  0  0  0  0
  -12.7550   -3.8810    0.0000 O   0  0  0  0  0  0  0  0  0  0  0  0
  -14.2550   -3.8790    0.0000 C   0  0  0  0  0  0  0  0  0  0  0  0
  1  2  1  0  0  0  0
  2  3  1  0  0  0  0
  2  4  1  0  0  0  0
  2  5  1  0  0  0  0
  5  6  1  0  0  0  0
  5 10  2  0  0  0  0
  6  7  2  0  0  0  0
  7  8  1  0  0  0  0
  8  9  2  0  0  0  0
  8 11  1  0  0  0  0
  9 10  1  0  0  0  0
 11 12  2  0  0  0  0
 11 17  1  0  0  0  0
 12 13  1  0  0  0  0
 13 14  1  0  0  0  0
 14 15  1  0  0  0  0
 15 16  1  0  0  0  0
 17 18  1  0  0  0  0
 18 19  1  0  0  0  0
 19 20  1  0  0  0  0
 20 21  1  0  0  0  0
 21 22  1  0  0  0  0
M  END
>  <Index>
455

>  <ID>
HT0927

>  <class>
0

>  <apol>
45.877651

>  <ast_fraglike>
0

>  <ast_fraglike_ext>
0

>  <ast_violation>
2

>  <ast_violation_ext>
3

>  <a_acc>
3

>  <a_acid>
0

>  <a_aro>
6

>  <a_base>
0

>  <a_count>
43

>  <a_don>
1

>  <a_donacc>
4

>  <a_heavy>
22

>  <a_hyd>
17

>  <a_IC>
73.732475

>  <a_ICM>
1.7147087

>  <a_nB>
0

>  <a_nBr>
0

>  <a_nC>
15

>  <a_nCl>
0

>  <a_nF>
3

>  <a_nH>
21

>  <a_nI>
0

>  <a_nN>
2

>  <a_nO>
2

>  <a_nP>
0

>  <a_nS>
0

>  <balabanJ>
2.4181554

>  <BCUT_PEOE_0>
-2.5941327

>  <BCUT_PEOE_1>
-0.3767643

>  <BCUT_PEOE_2>
0.37260735

>  <BCUT_PEOE_3>
2.5651147

>  <BCUT_SLOGP_0>
-2.6892684

>  <BCUT_SLOGP_1>
-0.3424508

>  <BCUT_SLOGP_2>
0.43591306

>  <BCUT_SLOGP_3>
2.6544309

>  <BCUT_SMR_0>
-2.3503828

>  <BCUT_SMR_1>
-0.16288504

>  <BCUT_SMR_2>
0.59963602

>  <BCUT_SMR_3>
2.814158

>  <bpol>
29.738346

>  <b_1rotN>
9

>  <b_1rotR>
0.40909091

>  <b_ar>
6

>  <b_count>
43

>  <b_double>
1

>  <b_heavy>
22

>  <b_max1len>
7

>  <b_rotN>
10

>  <b_rotR>
0.45454547

>  <b_single>
36

>  <b_triple>
0

>  <chi0>
16.424438

>  <chi0v>
12.526996

>  <chi0v_C>
9.552042

>  <chi0_C>
10.303119

>  <chi1>
10.485712

>  <chi1v>
7.0418949

>  <chi1v_C>
4.6749206

>  <chi1_C>
5.66325

>  <chiral>
0

>  <chiral_u>
0

>  <density>
0.79095304

>  <diameter>
12

>  <FCharge>
0

>  <GCUT_PEOE_0>
-0.83080828

>  <GCUT_PEOE_1>
-0.34616885

>  <GCUT_PEOE_2>
-0.041709594

>  <GCUT_PEOE_3>
2.5044334

>  <GCUT_SLOGP_0>
-1.3632065

>  <GCUT_SLOGP_1>
-0.26386139

>  <GCUT_SLOGP_2>
0.23353443

>  <GCUT_SLOGP_3>
2.5885978

>  <GCUT_SMR_0>
-0.52651674

>  <GCUT_SMR_1>
-0.10494858

>  <GCUT_SMR_2>
0.09057238

>  <GCUT_SMR_3>
2.7579124

>  <Kier1>
20.045454

>  <Kier2>
10.714286

>  <Kier3>
7.9084287

>  <KierA1>
16.706554

>  <KierA2>
8.8473148

>  <KierA3>
6.4866333

>  <KierFlex>
6.7185516

>  <lip_acc>
4

>  <lip_don>
2

>  <lip_druglike>
1

>  <lip_violation>
0

>  <logP(o/w)>
3.2307601

>  <logS>
-3.0933499

>  <mr>
8.0322561

>  <mutagenic>
0

>  <nmol>
1

>  <opr_brigid>
7

>  <opr_leadlike>
1

>  <opr_nring>
1

>  <opr_nrot>
9

>  <opr_violation>
0

>  <PC+>
0

>  <PC->
0

>  <PEOE_PC+>
1.8818218

>  <PEOE_PC->
-1.8818218

>  <PEOE_RPC+>
0.2218177

>  <PEOE_RPC->
0.20351018

>  <PEOE_VSA+0>
87.264366

>  <PEOE_VSA+1>
70.778633

>  <PEOE_VSA+2>
17.238026

>  <PEOE_VSA+3>
0

>  <PEOE_VSA+4>
0

>  <PEOE_VSA+5>
0

>  <PEOE_VSA+6>
9.0455017

>  <PEOE_VSA-0>
52.822289

>  <PEOE_VSA-1>
24.509808

>  <PEOE_VSA-2>
10.885262

>  <PEOE_VSA-3>
35.725906

>  <PEOE_VSA-4>
5.9023595

>  <PEOE_VSA-5>
0

>  <PEOE_VSA-6>
9.1548758

>  <PEOE_VSA_FHYD>
0.92545402

>  <PEOE_VSA_FNEG>
0.42990685

>  <PEOE_VSA_FPNEG>
0.046569675

>  <PEOE_VSA_FPOL>
0.074546002

>  <PEOE_VSA_FPOS>
0.57009315

>  <PEOE_VSA_FPPOS>
0.027976325

>  <PEOE_VSA_HYD>
299.22427

>  <PEOE_VSA_NEG>
139.0005

>  <PEOE_VSA_PNEG>
15.057235

>  <PEOE_VSA_POL>
24.102737

>  <PEOE_VSA_POS>
184.32652

>  <PEOE_VSA_PPOS>
9.0455017

>  <petitjean>
0.5

>  <petitjeanSC>
1

>  <Q_PC+>
0

>  <Q_PC->
0

>  <Q_RPC+>
0

>  <Q_RPC->
0

>  <Q_VSA_FHYD>
1

>  <Q_VSA_FNEG>
0

>  <Q_VSA_FPNEG>
0

>  <Q_VSA_FPOL>
0

>  <Q_VSA_FPOS>
1

>  <Q_VSA_FPPOS>
0

>  <Q_VSA_HYD>
323.32703

>  <Q_VSA_NEG>
0

>  <Q_VSA_PNEG>
0

>  <Q_VSA_POL>
0

>  <Q_VSA_POS>
323.32703

>  <Q_VSA_PPOS>
0

>  <radius>
6

>  <reactive>
1

>  <rings>
1

>  <RPC+>
0

>  <RPC->
0

>  <rsynth>
0.22727273

>  <SlogP>
3.513

>  <SlogP_VSA0>
32.897186

>  <SlogP_VSA1>
2.7567475

>  <SlogP_VSA2>
22.218651

>  <SlogP_VSA3>
60.292095

>  <SlogP_VSA4>
6.37115

>  <SlogP_VSA5>
54.78373

>  <SlogP_VSA6>
7.7595162

>  <SlogP_VSA7>
70.572739

>  <SlogP_VSA8>
56.605217

>  <SlogP_VSA9>
44.880341

>  <SMR>
7.8831401

>  <SMR_VSA0>
22.218651

>  <SMR_VSA1>
64.280205

>  <SMR_VSA2>
7.7595162

>  <SMR_VSA3>
6.37115

>  <SMR_VSA4>
32.897186

>  <SMR_VSA5>
127.17796

>  <SMR_VSA6>
63.048843

>  <SMR_VSA7>
35.383869

>  <TPSA>
56.84

>  <VAdjEq>
0.43949699

>  <VAdjMa>
5.4594316

>  <VDistEq>
3.4383104

>  <VDistMa>
8.6168756

>  <vdw_area>
323.32703

>  <vdw_vol>
402.47522

>  <vsa_acc>
13.389018

>  <vsa_acid>
0

>  <vsa_base>
0

>  <vsa_don>
0

>  <vsa_hyd>
259.92282

>  <vsa_other>
12.601911

>  <vsa_pol>
31.131508

>  <Weight>
318.33899

>  <weinerPath>
1216

>  <weinerPol>
28

>  <zagreb>
100

$$$$