P(O)(O)(=O)C(O)=O
  MOE2013           2D

  7  6  0  0  0  0  0  0  0  0999 V2000
    0.0000    0.0000    0.0000 P   0  0  0  0  0  0  0  0  0  0  0  0
    0.0000    1.5000    0.0000 O   0  0  0  0  0  0  0  0  0  0  0  0
    0.0000   -1.5000    0.0000 O   0  0  0  0  0  0  0  0  0  0  0  0
    1.5000    0.0000    0.0000 O   0  0  0  0  0  0  0  0  0  0  0  0
   -1.5000    0.0000    0.0000 C   0  0  0  0  0  0  0  0  0  0  0  0
   -2.2500    1.2990    0.0000 O   0  0  0  0  0  0  0  0  0  0  0  0
   -2.2500   -1.2990    0.0000 O   0  0  0  0  0  0  0  0  0  0  0  0
  1  2  1  0  0  0  0
  1  3  1  0  0  0  0
  1  4  2  0  0  0  0
  1  5  1  0  0  0  0
  5  6  1  0  0  0  0
  5  7  2  0  0  0  0
M  END
>  <Index>
463

>  <ID>
HT0936

>  <class>
0

>  <apol>
11.400379

>  <ast_fraglike>
0

>  <ast_fraglike_ext>
0

>  <ast_violation>
2

>  <ast_violation_ext>
3

>  <a_acc>
5

>  <a_acid>
0

>  <a_aro>
0

>  <a_base>
0

>  <a_count>
10

>  <a_don>
5

>  <a_donacc>
10

>  <a_heavy>
7

>  <a_hyd>
0

>  <a_IC>
16.854753

>  <a_ICM>
1.6854753

>  <a_nB>
0

>  <a_nBr>
0

>  <a_nC>
1

>  <a_nCl>
0

>  <a_nF>
0

>  <a_nH>
3

>  <a_nI>
0

>  <a_nN>
0

>  <a_nO>
5

>  <a_nP>
1

>  <a_nS>
0

>  <balabanJ>
3.6027832

>  <BCUT_PEOE_0>
-2.16275

>  <BCUT_PEOE_1>
-0.6419459

>  <BCUT_PEOE_2>
0.69892079

>  <BCUT_PEOE_3>
2.4002545

>  <BCUT_SLOGP_0>
-2.2676322

>  <BCUT_SLOGP_1>
-1.2316056

>  <BCUT_SLOGP_2>
0.72155833

>  <BCUT_SLOGP_3>
2.4616144

>  <BCUT_SMR_0>
-1.8849291

>  <BCUT_SMR_1>
-0.47695038

>  <BCUT_SMR_2>
0.7979427

>  <BCUT_SMR_3>
2.6545124

>  <bpol>
12.675621

>  <b_1rotN>
0

>  <b_1rotR>
0

>  <b_ar>
0

>  <b_count>
9

>  <b_double>
1

>  <b_heavy>
6

>  <b_max1len>
4

>  <b_rotN>
1

>  <b_rotR>
0.16666667

>  <b_single>
8

>  <b_triple>
0

>  <chi0>
6.0773501

>  <chi0v>
3.9997783

>  <chi0v_C>
0.5

>  <chi0_C>
0.57735026

>  <chi1>
2.9433756

>  <chi1v>
2.8462739

>  <chi1v_C>
0

>  <chi1_C>
0

>  <chiral>
0

>  <chiral_u>
0

>  <density>
1.2467314

>  <diameter>
3

>  <FCharge>
0

>  <GCUT_PEOE_0>
-0.70935625

>  <GCUT_PEOE_1>
-0.44398901

>  <GCUT_PEOE_2>
0.24014676

>  <GCUT_PEOE_3>
1.7075473

>  <GCUT_SLOGP_0>
-1.2940823

>  <GCUT_SLOGP_1>
-0.74014181

>  <GCUT_SLOGP_2>
0.0067596338

>  <GCUT_SLOGP_3>
1.7498418

>  <GCUT_SMR_0>
-0.40096727

>  <GCUT_SMR_1>
-0.23812246

>  <GCUT_SMR_2>
0.29198533

>  <GCUT_SMR_3>
1.9334921

>  <Kier1>
7

>  <Kier2>
1.8518518

>  <Kier3>
2.6666667

>  <KierA1>
7.8455815

>  <KierA2>
2.1199758

>  <KierA3>
3.1242328

>  <KierFlex>
2.3760631

>  <lip_acc>
5

>  <lip_don>
3

>  <lip_druglike>
1

>  <lip_violation>
0

>  <logP(o/w)>
-1.434

>  <logS>
1.02718

>  <mr>
2.0933831

>  <mutagenic>
0

>  <nmol>
1

>  <opr_brigid>
0

>  <opr_leadlike>
1

>  <opr_nring>
0

>  <opr_nrot>
1

>  <opr_violation>
0

>  <PC+>
0

>  <PC->
0

>  <PEOE_PC+>
1.3576859

>  <PEOE_PC->
-1.3576859

>  <PEOE_RPC+>
0.33913928

>  <PEOE_RPC->
0.24372622

>  <PEOE_VSA+0>
0

>  <PEOE_VSA+1>
0

>  <PEOE_VSA+2>
20.648346

>  <PEOE_VSA+3>
0

>  <PEOE_VSA+4>
10.324173

>  <PEOE_VSA+5>
0

>  <PEOE_VSA+6>
29.896011

>  <PEOE_VSA-0>
0

>  <PEOE_VSA-1>
0

>  <PEOE_VSA-2>
0

>  <PEOE_VSA-3>
0

>  <PEOE_VSA-4>
29.296057

>  <PEOE_VSA-5>
7.7675405

>  <PEOE_VSA-6>
19.859512

>  <PEOE_VSA_FHYD>
0.17529552

>  <PEOE_VSA_FNEG>
0.48325256

>  <PEOE_VSA_FPNEG>
0.48325256

>  <PEOE_VSA_FPOL>
0.82470447

>  <PEOE_VSA_FPOS>
0.51674747

>  <PEOE_VSA_FPPOS>
0.34145194

>  <PEOE_VSA_HYD>
20.648346

>  <PEOE_VSA_NEG>
56.923111

>  <PEOE_VSA_PNEG>
56.923111

>  <PEOE_VSA_POL>
97.143295

>  <PEOE_VSA_POS>
60.86853

>  <PEOE_VSA_PPOS>
40.220184

>  <petitjean>
0.33333334

>  <petitjeanSC>
0.5

>  <Q_PC+>
0

>  <Q_PC->
0

>  <Q_RPC+>
0

>  <Q_RPC->
0

>  <Q_VSA_FHYD>
1

>  <Q_VSA_FNEG>
0

>  <Q_VSA_FPNEG>
0

>  <Q_VSA_FPOL>
0

>  <Q_VSA_FPOS>
1

>  <Q_VSA_FPPOS>
0

>  <Q_VSA_HYD>
117.79164

>  <Q_VSA_NEG>
0

>  <Q_VSA_PNEG>
0

>  <Q_VSA_POL>
0

>  <Q_VSA_POS>
117.79164

>  <Q_VSA_PPOS>
0

>  <radius>
2

>  <reactive>
1

>  <rings>
0

>  <RPC+>
0

>  <RPC->
0

>  <rsynth>
1

>  <SlogP>
-1.2280999

>  <SlogP_VSA0>
65.047699

>  <SlogP_VSA1>
4.9162993

>  <SlogP_VSA2>
0

>  <SlogP_VSA3>
25.385227

>  <SlogP_VSA4>
0

>  <SlogP_VSA5>
0

>  <SlogP_VSA6>
0

>  <SlogP_VSA7>
0

>  <SlogP_VSA8>
0

>  <SlogP_VSA9>
38.661686

>  <SMR>
1.9382401

>  <SMR_VSA0>
46.295982

>  <SMR_VSA1>
42.613937

>  <SMR_VSA2>
25.385227

>  <SMR_VSA3>
0

>  <SMR_VSA4>
0

>  <SMR_VSA5>
0

>  <SMR_VSA6>
4.9162993

>  <SMR_VSA7>
14.799472

>  <TPSA>
94.830002

>  <VAdjEq>
0.80309099

>  <VAdjMa>
3.5849626

>  <VDistEq>
1.5566567

>  <VDistMa>
5.2844763

>  <vdw_area>
117.79164

>  <vdw_vol>
101.06747

>  <vsa_acc>
0

>  <vsa_acid>
0

>  <vsa_base>
0

>  <vsa_don>
0

>  <vsa_hyd>
0

>  <vsa_other>
29.896011

>  <vsa_pol>
74.321251

>  <Weight>
126.004

>  <weinerPath>
42

>  <weinerPol>
6

>  <zagreb>
30

$$$$