S1c2c(cc(cc2)C(F)(F)F)C(c2c1cccc2)=CCCN1CCN(CC1)CCO
  MOE2013           2D

 30 33  0  0  0  0  0  0  0  0999 V2000
    0.0000    0.0000    0.0000 S   0  0  0  0  0  0  0  0  0  0  0  0
   -0.7390   -1.3050    0.0000 C   0  0  0  0  0  0  0  0  0  0  0  0
    0.0220   -2.5980    0.0000 C   0  0  0  0  0  0  0  0  0  0  0  0
   -0.7170   -3.9030    0.0000 C   0  0  0  0  0  0  0  0  0  0  0  0
   -2.2170   -3.9160    0.0000 C   0  0  0  0  0  0  0  0  0  0  0  0
   -2.9780   -2.6230    0.0000 C   0  0  0  0  0  0  0  0  0  0  0  0
   -2.2390   -1.3180    0.0000 C   0  0  0  0  0  0  0  0  0  0  0  0
   -2.9560   -5.2210    0.0000 C   0  0  0  0  0  0  0  0  0  0  0  0
   -1.6510   -5.9600    0.0000 F   0  0  0  0  0  0  0  0  0  0  0  0
   -4.2620   -4.4820    0.0000 F   0  0  0  0  0  0  0  0  0  0  0  0
   -3.6960   -6.5260    0.0000 F   0  0  0  0  0  0  0  0  0  0  0  0
    1.5220   -2.5850    0.0000 C   0  0  0  0  0  0  0  0  0  0  0  0
    2.2610   -1.2800    0.0000 C   0  0  0  0  0  0  0  0  0  0  0  0
    1.5000    0.0130    0.0000 C   0  0  0  0  0  0  0  0  0  0  0  0
    2.2390    1.3180    0.0000 C   0  0  0  0  0  0  0  0  0  0  0  0
    3.7390    1.3300    0.0000 C   0  0  0  0  0  0  0  0  0  0  0  0
    4.5000    0.0380    0.0000 C   0  0  0  0  0  0  0  0  0  0  0  0
    3.7610   -1.2680    0.0000 C   0  0  0  0  0  0  0  0  0  0  0  0
    2.2830   -3.8780    0.0000 C   0  0  0  0  0  0  0  0  0  0  0  0
    3.7820   -3.8660    0.0000 C   0  0  0  0  0  0  0  0  0  0  0  0
    4.5430   -5.1580    0.0000 C   0  0  0  0  0  0  0  0  0  0  0  0
    6.0430   -5.1460    0.0000 N   0  0  0  0  0  0  0  0  0  0  0  0
    6.8040   -6.4380    0.0000 C   0  0  0  0  0  0  0  0  0  0  0  0
    8.3040   -6.4260    0.0000 C   0  0  0  0  0  0  0  0  0  0  0  0
    9.0430   -5.1210    0.0000 N   0  0  0  0  0  0  0  0  0  0  0  0
    8.2820   -3.8280    0.0000 C   0  0  0  0  0  0  0  0  0  0  0  0
    6.7820   -3.8410    0.0000 C   0  0  0  0  0  0  0  0  0  0  0  0
   10.5430   -5.1080    0.0000 C   0  0  0  0  0  0  0  0  0  0  0  0
   11.3040   -6.4010    0.0000 C   0  0  0  0  0  0  0  0  0  0  0  0
   12.8040   -6.3880    0.0000 O   0  0  0  0  0  0  0  0  0  0  0  0
  1  2  1  0  0  0  0
  1 14  1  0  0  0  0
  2  3  1  0  0  0  0
  2  7  2  0  0  0  0
  3  4  2  0  0  0  0
  3 12  1  0  0  0  0
  4  5  1  0  0  0  0
  5  6  2  0  0  0  0
  5  8  1  0  0  0  0
  6  7  1  0  0  0  0
  8  9  1  0  0  0  0
  8 10  1  0  0  0  0
  8 11  1  0  0  0  0
 12 13  1  0  0  0  0
 12 19  2  3  0  0  0
 13 14  1  0  0  0  0
 13 18  2  0  0  0  0
 14 15  2  0  0  0  0
 15 16  1  0  0  0  0
 16 17  2  0  0  0  0
 17 18  1  0  0  0  0
 19 20  1  0  0  0  0
 20 21  1  0  0  0  0
 21 22  1  0  0  0  0
 22 23  1  0  0  0  0
 22 27  1  0  0  0  0
 23 24  1  0  0  0  0
 24 25  1  0  0  0  0
 25 26  1  0  0  0  0
 25 28  1  0  0  0  0
 26 27  1  0  0  0  0
 28 29  1  0  0  0  0
 29 30  1  0  0  0  0
M  END
>  <Index>
449

>  <ID>
HT0912

>  <class>
0

>  <apol>
64.722824

>  <ast_fraglike>
0

>  <ast_fraglike_ext>
0

>  <ast_violation>
2

>  <ast_violation_ext>
3

>  <a_acc>
3

>  <a_acid>
0

>  <a_aro>
12

>  <a_base>
0

>  <a_count>
55

>  <a_don>
1

>  <a_donacc>
4

>  <a_heavy>
30

>  <a_hyd>
27

>  <a_IC>
91.081566

>  <a_ICM>
1.6560285

>  <a_nB>
0

>  <a_nBr>
0

>  <a_nC>
23

>  <a_nCl>
0

>  <a_nF>
3

>  <a_nH>
25

>  <a_nI>
0

>  <a_nN>
2

>  <a_nO>
1

>  <a_nP>
0

>  <a_nS>
1

>  <balabanJ>
1.3469099

>  <BCUT_PEOE_0>
-2.7925243

>  <BCUT_PEOE_1>
-0.61531109

>  <BCUT_PEOE_2>
0.6543017

>  <BCUT_PEOE_3>
2.6860998

>  <BCUT_SLOGP_0>
-2.9085729

>  <BCUT_SLOGP_1>
-0.49163741

>  <BCUT_SLOGP_2>
0.66942269

>  <BCUT_SLOGP_3>
2.5976768

>  <BCUT_SMR_0>
-2.5080178

>  <BCUT_SMR_1>
-0.43848509

>  <BCUT_SMR_2>
0.82506388

>  <BCUT_SMR_3>
2.9614282

>  <bpol>
37.179176

>  <b_1rotN>
5

>  <b_1rotR>
0.15151516

>  <b_ar>
12

>  <b_count>
58

>  <b_double>
1

>  <b_heavy>
33

>  <b_max1len>
4

>  <b_rotN>
6

>  <b_rotR>
0.18181819

>  <b_single>
45

>  <b_triple>
0

>  <chi0>
21.139618

>  <chi0v>
17.475935

>  <chi0v_C>
13.775657

>  <chi0_C>
15.27781

>  <chi1>
14.45284

>  <chi1v>
11.017593

>  <chi1v_C>
7.0123076

>  <chi1_C>
8.9797468

>  <chiral>
0

>  <chiral_u>
0

>  <density>
0.78291768

>  <diameter>
15

>  <FCharge>
0

>  <GCUT_PEOE_0>
-0.85782111

>  <GCUT_PEOE_1>
-0.38509151

>  <GCUT_PEOE_2>
0.062026951

>  <GCUT_PEOE_3>
2.7875881

>  <GCUT_SLOGP_0>
-0.96531403

>  <GCUT_SLOGP_1>
-0.27629101

>  <GCUT_SLOGP_2>
0.23910521

>  <GCUT_SLOGP_3>
2.8657773

>  <GCUT_SMR_0>
-0.52058583

>  <GCUT_SMR_1>
-0.18534423

>  <GCUT_SMR_2>
0.17925389

>  <GCUT_SMR_3>
3.0591166

>  <Kier1>
23.168043

>  <Kier2>
10.29244

>  <Kier3>
5.6887932

>  <KierA1>
19.799198

>  <KierA2>
8.7458115

>  <KierA3>
4.814465

>  <KierFlex>
5.7720022

>  <lip_acc>
3

>  <lip_don>
1

>  <lip_druglike>
1

>  <lip_violation>
0

>  <logP(o/w)>
4.2507601

>  <logS>
-4.9263501

>  <mr>
11.581231

>  <mutagenic>
0

>  <nmol>
1

>  <opr_brigid>
23

>  <opr_leadlike>
1

>  <opr_nring>
4

>  <opr_nrot>
7

>  <opr_violation>
1

>  <PC+>
0

>  <PC->
0

>  <PEOE_PC+>
2.0515728

>  <PEOE_PC->
-2.0515728

>  <PEOE_RPC+>
0.20347306

>  <PEOE_RPC->
0.19192454

>  <PEOE_VSA+0>
147.23856

>  <PEOE_VSA+1>
59.813694

>  <PEOE_VSA+2>
0

>  <PEOE_VSA+3>
0

>  <PEOE_VSA+4>
10.324173

>  <PEOE_VSA+5>
0

>  <PEOE_VSA+6>
9.0455017

>  <PEOE_VSA-0>
64.34655

>  <PEOE_VSA-1>
68.780235

>  <PEOE_VSA-2>
0

>  <PEOE_VSA-3>
35.725906

>  <PEOE_VSA-4>
0

>  <PEOE_VSA-5>
0

>  <PEOE_VSA-6>
7.7675405

>  <PEOE_VSA_FHYD>
0.93266904

>  <PEOE_VSA_FNEG>
0.43821776

>  <PEOE_VSA_FPNEG>
0.019272277

>  <PEOE_VSA_FPOL>
0.067330956

>  <PEOE_VSA_FPOS>
0.56178224

>  <PEOE_VSA_FPPOS>
0.048058681

>  <PEOE_VSA_HYD>
375.90494

>  <PEOE_VSA_NEG>
176.62022

>  <PEOE_VSA_PNEG>
7.7675405

>  <PEOE_VSA_POL>
27.137215

>  <PEOE_VSA_POS>
226.42192

>  <PEOE_VSA_PPOS>
19.369675

>  <petitjean>
0.46666667

>  <petitjeanSC>
0.875

>  <Q_PC+>
0

>  <Q_PC->
0

>  <Q_RPC+>
0

>  <Q_RPC->
0

>  <Q_VSA_FHYD>
1

>  <Q_VSA_FNEG>
0

>  <Q_VSA_FPNEG>
0

>  <Q_VSA_FPOL>
0

>  <Q_VSA_FPOS>
1

>  <Q_VSA_FPPOS>
0

>  <Q_VSA_HYD>
403.04214

>  <Q_VSA_NEG>
0

>  <Q_VSA_PNEG>
0

>  <Q_VSA_POL>
0

>  <Q_VSA_POS>
403.04214

>  <Q_VSA_PPOS>
0

>  <radius>
8

>  <reactive>
0

>  <rings>
4

>  <RPC+>
0

>  <RPC->
0

>  <rsynth>
0.30000001

>  <SlogP>
4.7304902

>  <SlogP_VSA0>
25.385227

>  <SlogP_VSA1>
6.2486277

>  <SlogP_VSA2>
0

>  <SlogP_VSA3>
134.7493

>  <SlogP_VSA4>
9.5567245

>  <SlogP_VSA5>
3.1014678

>  <SlogP_VSA6>
7.7595162

>  <SlogP_VSA7>
141.14548

>  <SlogP_VSA8>
18.868406

>  <SlogP_VSA9>
77.099884

>  <SMR>
11.27268

>  <SMR_VSA0>
0

>  <SMR_VSA1>
76.514191

>  <SMR_VSA2>
14.046559

>  <SMR_VSA3>
9.5567245

>  <SMR_VSA4>
0

>  <SMR_VSA5>
160.01389

>  <SMR_VSA6>
131.56372

>  <SMR_VSA7>
32.21954

>  <TPSA>
26.709999

>  <VAdjEq>
0.37824166

>  <VAdjMa>
6.044394

>  <VDistEq>
3.6887107

>  <VDistMa>
9.5141916

>  <vdw_area>
403.04214

>  <vdw_vol>
555.00854

>  <vsa_acc>
0

>  <vsa_acid>
0

>  <vsa_base>
0

>  <vsa_don>
0

>  <vsa_hyd>
367.86734

>  <vsa_other>
0

>  <vsa_pol>
13.566921

>  <Weight>
434.526

>  <weinerPath>
2618

>  <weinerPol>
49

>  <zagreb>
160

$$$$