O1C2C34C(C(N(CC3)C)Cc3c4c1c(OCC)cc3)C=CC2O
  MOE2013           2D

 23 27  0  0  1  0  0  0  0  0999 V2000
    0.0000    0.0000    0.0000 O   0  0  0  0  0  0  0  0  0  0  0  0
   -1.7000    0.4990    0.0000 C   0  0  3  0  0  0  0  0  0  0  0  0
   -1.4730    1.9070    0.0000 C   0  0  3  0  0  0  0  0  0  0  0  0
   -2.5860    2.8130    0.0000 C   0  0  3  0  0  0  0  0  0  0  0  0
   -2.3540    4.2380    0.0000 C   0  0  3  0  0  0  0  0  0  0  0  0
   -3.1830    5.4220    0.0000 N   0  0  3  0  0  0  0  0  0  0  0  0
   -1.7630    5.1880    0.0000 C   0  0  0  0  0  0  0  0  0  0  0  0
   -0.8650    3.2320    0.0000 C   0  0  0  0  0  0  0  0  0  0  0  0
   -4.4530    6.2200    0.0000 C   0  0  0  0  0  0  0  0  0  0  0  0
   -1.0070    4.7380    0.0000 C   0  0  0  0  0  0  0  0  0  0  0  0
    0.1080    3.8260    0.0000 C   0  0  0  0  0  0  0  0  0  0  0  0
   -0.1250    2.4130    0.0000 C   0  0  0  0  0  0  0  0  0  0  0  0
    0.9770    1.5020    0.0000 C   0  0  0  0  0  0  0  0  0  0  0  0
    2.3200    2.0110    0.0000 C   0  0  0  0  0  0  0  0  0  0  0  0
    3.4810    1.0610    0.0000 O   0  0  0  0  0  0  0  0  0  0  0  0
    4.8840    1.5910    0.0000 C   0  0  0  0  0  0  0  0  0  0  0  0
    6.0450    0.6410    0.0000 C   0  0  0  0  0  0  0  0  0  0  0  0
    2.5530    3.4240    0.0000 C   0  0  0  0  0  0  0  0  0  0  0  0
    1.4410    4.3280    0.0000 C   0  0  0  0  0  0  0  0  0  0  0  0
   -3.9250    2.3110    0.0000 C   0  0  0  0  0  0  0  0  0  0  0  0
   -4.1510    0.8930    0.0000 C   0  0  0  0  0  0  0  0  0  0  0  0
   -3.0380   -0.0130    0.0000 C   0  0  3  0  0  0  0  0  0  0  0  0
   -3.2750   -1.4940    0.0000 O   0  0  0  0  0  0  0  0  0  0  0  0
  1  2  1  0  0  0  0
  1 13  1  0  0  0  0
  2  3  1  0  0  0  0
  2 22  1  0  0  0  0
  3  4  1  0  0  0  0
  3  8  1  0  0  0  0
  3 12  1  0  0  0  0
  4  5  1  0  0  0  0
  4 20  1  0  0  0  0
  5  6  1  0  0  0  0
  5 10  1  0  0  0  0
  6  7  1  0  0  0  0
  6  9  1  0  0  0  0
  7  8  1  0  0  0  0
 10 11  1  0  0  0  0
 11 12  1  0  0  0  0
 11 19  2  0  0  0  0
 12 13  2  0  0  0  0
 13 14  1  0  0  0  0
 14 15  1  0  0  0  0
 14 18  2  0  0  0  0
 15 16  1  0  0  0  0
 16 17  1  0  0  0  0
 18 19  1  0  0  0  0
 20 21  2  0  0  0  0
 21 22  1  0  0  0  0
 22 23  1  0  0  0  0
M  END
>  <Index>
404

>  <ID>
HT0822

>  <class>
0

>  <apol>
52.282238

>  <ast_fraglike>
0

>  <ast_fraglike_ext>
0

>  <ast_violation>
2

>  <ast_violation_ext>
2

>  <a_acc>
4

>  <a_acid>
0

>  <a_aro>
6

>  <a_base>
0

>  <a_count>
46

>  <a_don>
1

>  <a_donacc>
5

>  <a_heavy>
23

>  <a_hyd>
19

>  <a_IC>
64.576416

>  <a_ICM>
1.4038351

>  <a_nB>
0

>  <a_nBr>
0

>  <a_nC>
19

>  <a_nCl>
0

>  <a_nF>
0

>  <a_nH>
23

>  <a_nI>
0

>  <a_nN>
1

>  <a_nO>
3

>  <a_nP>
0

>  <a_nS>
0

>  <balabanJ>
1.5929326

>  <BCUT_PEOE_0>
-2.8698323

>  <BCUT_PEOE_1>
-0.50504321

>  <BCUT_PEOE_2>
0.55603522

>  <BCUT_PEOE_3>
2.882899

>  <BCUT_SLOGP_0>
-2.9332702

>  <BCUT_SLOGP_1>
-0.47490478

>  <BCUT_SLOGP_2>
0.6003617

>  <BCUT_SLOGP_3>
2.8520625

>  <BCUT_SMR_0>
-2.6109042

>  <BCUT_SMR_1>
-0.36649427

>  <BCUT_SMR_2>
0.68184572

>  <BCUT_SMR_3>
3.1369278

>  <bpol>
30.955761

>  <b_1rotN>
2

>  <b_1rotR>
0.074074075

>  <b_ar>
6

>  <b_count>
50

>  <b_double>
1

>  <b_heavy>
27

>  <b_max1len>
3

>  <b_rotN>
2

>  <b_rotR>
0.074074075

>  <b_single>
43

>  <b_triple>
0

>  <chi0>
15.76722

>  <chi0v>
13.658153

>  <chi0v_C>
11.947229

>  <chi0_C>
12.775657

>  <chi1>
11.163869

>  <chi1v>
8.6896276

>  <chi1v_C>
6.4771624

>  <chi1_C>
7.5428419

>  <chiral>
5

>  <chiral_u>
5

>  <density>
0.72426379

>  <diameter>
10

>  <FCharge>
0

>  <GCUT_PEOE_0>
-0.85621524

>  <GCUT_PEOE_1>
-0.38851991

>  <GCUT_PEOE_2>
0.048047218

>  <GCUT_PEOE_3>
3.0998762

>  <GCUT_SLOGP_0>
-0.96094459

>  <GCUT_SLOGP_1>
-0.34930032

>  <GCUT_SLOGP_2>
0.10224153

>  <GCUT_SLOGP_3>
3.1311255

>  <GCUT_SMR_0>
-0.52268028

>  <GCUT_SMR_1>
-0.19517392

>  <GCUT_SMR_2>
0.13181645

>  <GCUT_SMR_3>
3.349818

>  <Kier1>
15.270233

>  <Kier2>
5.2471604

>  <Kier3>
1.8483512

>  <KierA1>
13.233885

>  <KierA2>
4.5162234

>  <KierA3>
1.5825949

>  <KierFlex>
2.5985732

>  <lip_acc>
4

>  <lip_don>
1

>  <lip_druglike>
1

>  <lip_violation>
0

>  <logP(o/w)>
1.5420001

>  <logS>
-2.3868101

>  <mr>
8.6761703

>  <mutagenic>
0

>  <nmol>
1

>  <opr_brigid>
22

>  <opr_leadlike>
1

>  <opr_nring>
5

>  <opr_nrot>
2

>  <opr_violation>
1

>  <PC+>
0

>  <PC->
0

>  <PEOE_PC+>
1.7190965

>  <PEOE_PC->
-1.7190965

>  <PEOE_RPC+>
0.12234326

>  <PEOE_RPC->
0.22404085

>  <PEOE_VSA+0>
62.861366

>  <PEOE_VSA+1>
49.074383

>  <PEOE_VSA+2>
26.726896

>  <PEOE_VSA+3>
0

>  <PEOE_VSA+4>
10.324173

>  <PEOE_VSA+5>
0

>  <PEOE_VSA+6>
0

>  <PEOE_VSA-0>
89.253304

>  <PEOE_VSA-1>
36.764713

>  <PEOE_VSA-2>
0

>  <PEOE_VSA-3>
0

>  <PEOE_VSA-4>
0

>  <PEOE_VSA-5>
0

>  <PEOE_VSA-6>
12.775052

>  <PEOE_VSA_FHYD>
0.91973299

>  <PEOE_VSA_FNEG>
0.48228899

>  <PEOE_VSA_FPNEG>
0.044391751

>  <PEOE_VSA_FPOL>
0.08026699

>  <PEOE_VSA_FPOS>
0.51771104

>  <PEOE_VSA_FPPOS>
0.035875242

>  <PEOE_VSA_HYD>
264.68066

>  <PEOE_VSA_NEG>
138.79306

>  <PEOE_VSA_PNEG>
12.775052

>  <PEOE_VSA_POL>
23.099226

>  <PEOE_VSA_POS>
148.98682

>  <PEOE_VSA_PPOS>
10.324173

>  <petitjean>
0.5

>  <petitjeanSC>
1

>  <Q_PC+>
0

>  <Q_PC->
0

>  <Q_RPC+>
0

>  <Q_RPC->
0

>  <Q_VSA_FHYD>
1

>  <Q_VSA_FNEG>
0

>  <Q_VSA_FPNEG>
0

>  <Q_VSA_FPOL>
0

>  <Q_VSA_FPOS>
1

>  <Q_VSA_FPPOS>
0

>  <Q_VSA_HYD>
287.77988

>  <Q_VSA_NEG>
0

>  <Q_VSA_PNEG>
0

>  <Q_VSA_POL>
0

>  <Q_VSA_POS>
287.77988

>  <Q_VSA_PPOS>
0

>  <radius>
5

>  <reactive>
0

>  <rings>
5

>  <RPC+>
0

>  <RPC->
0

>  <rsynth>
0.13043478

>  <SlogP>
1.89117

>  <SlogP_VSA0>
47.385002

>  <SlogP_VSA1>
3.1243138

>  <SlogP_VSA2>
16.919268

>  <SlogP_VSA3>
39.365837

>  <SlogP_VSA4>
10.781946

>  <SlogP_VSA5>
51.765594

>  <SlogP_VSA6>
0

>  <SlogP_VSA7>
70.572739

>  <SlogP_VSA8>
18.868406

>  <SlogP_VSA9>
43.81287

>  <SMR>
8.7080803

>  <SMR_VSA0>
0

>  <SMR_VSA1>
50.509315

>  <SMR_VSA2>
4.4107962

>  <SMR_VSA3>
33.777275

>  <SMR_VSA4>
0

>  <SMR_VSA5>
108.30955

>  <SMR_VSA6>
39.365837

>  <SMR_VSA7>
66.223206

>  <TPSA>
41.93

>  <VAdjEq>
0.47555268

>  <VAdjMa>
5.7548876

>  <VDistEq>
2.8701582

>  <VDistMa>
8.8021784

>  <vdw_area>
287.77988

>  <vdw_vol>
432.71112

>  <vsa_acc>
5.0075121

>  <vsa_acid>
0

>  <vsa_base>
0

>  <vsa_don>
0

>  <vsa_hyd>
247.6761

>  <vsa_other>
0

>  <vsa_pol>
18.574432

>  <Weight>
313.397

>  <weinerPath>
958

>  <weinerPol>
52

>  <zagreb>
140

$$$$