Clc1ccc(cc1)C(=O)c1ccc(OC(C(OC(C)C)=O)(C)C)cc1
  MOE2013           2D

 25 26  0  0  0  0  0  0  0  0999 V2000
    0.0000    0.0000    0.0000 Cl  0  0  0  0  0  0  0  0  0  0  0  0
    1.2940    0.7590    0.0000 C   0  0  0  0  0  0  0  0  0  0  0  0
    1.2830    2.2590    0.0000 C   0  0  0  0  0  0  0  0  0  0  0  0
    2.5760    3.0190    0.0000 C   0  0  0  0  0  0  0  0  0  0  0  0
    3.8810    2.2780    0.0000 C   0  0  0  0  0  0  0  0  0  0  0  0
    3.8920    0.7780    0.0000 C   0  0  0  0  0  0  0  0  0  0  0  0
    2.5980    0.0190    0.0000 C   0  0  0  0  0  0  0  0  0  0  0  0
    5.1740    3.0380    0.0000 C   0  0  0  0  0  0  0  0  0  0  0  0
    5.1630    4.5380    0.0000 O   0  0  0  0  0  0  0  0  0  0  0  0
    6.4790    2.2970    0.0000 C   0  0  0  0  0  0  0  0  0  0  0  0
    6.4900    0.7970    0.0000 C   0  0  0  0  0  0  0  0  0  0  0  0
    7.7940    0.0570    0.0000 C   0  0  0  0  0  0  0  0  0  0  0  0
    9.0880    0.8160    0.0000 C   0  0  0  0  0  0  0  0  0  0  0  0
   10.3920    0.0760    0.0000 O   0  0  0  0  0  0  0  0  0  0  0  0
   11.6860    0.8350    0.0000 C   0  0  0  0  0  0  0  0  0  0  0  0
   12.4450   -0.4580    0.0000 C   0  0  0  0  0  0  0  0  0  0  0  0
   13.9450   -0.4470    0.0000 O   0  0  0  0  0  0  0  0  0  0  0  0
   14.7040   -1.7410    0.0000 C   0  0  0  0  0  0  0  0  0  0  0  0
   16.2040   -1.7300    0.0000 C   0  0  0  0  0  0  0  0  0  0  0  0
   13.9640   -3.0450    0.0000 C   0  0  0  0  0  0  0  0  0  0  0  0
   11.7050   -1.7630    0.0000 O   0  0  0  0  0  0  0  0  0  0  0  0
   12.9790    1.5950    0.0000 C   0  0  0  0  0  0  0  0  0  0  0  0
   10.9260    2.1290    0.0000 C   0  0  0  0  0  0  0  0  0  0  0  0
    9.0770    2.3160    0.0000 C   0  0  0  0  0  0  0  0  0  0  0  0
    7.7720    3.0570    0.0000 C   0  0  0  0  0  0  0  0  0  0  0  0
  1  2  1  0  0  0  0
  2  3  1  0  0  0  0
  2  7  2  0  0  0  0
  3  4  2  0  0  0  0
  4  5  1  0  0  0  0
  5  6  2  0  0  0  0
  5  8  1  0  0  0  0
  6  7  1  0  0  0  0
  8  9  2  0  0  0  0
  8 10  1  0  0  0  0
 10 11  1  0  0  0  0
 10 25  2  0  0  0  0
 11 12  2  0  0  0  0
 12 13  1  0  0  0  0
 13 14  1  0  0  0  0
 13 24  2  0  0  0  0
 14 15  1  0  0  0  0
 15 16  1  0  0  0  0
 15 22  1  0  0  0  0
 15 23  1  0  0  0  0
 16 17  1  0  0  0  0
 16 21  2  0  0  0  0
 17 18  1  0  0  0  0
 18 19  1  0  0  0  0
 18 20  1  0  0  0  0
 24 25  1  0  0  0  0
M  END
>  <Index>
425

>  <ID>
HT0860

>  <class>
0

>  <apol>
54.590652

>  <ast_fraglike>
0

>  <ast_fraglike_ext>
0

>  <ast_violation>
2

>  <ast_violation_ext>
3

>  <a_acc>
3

>  <a_acid>
0

>  <a_aro>
12

>  <a_base>
0

>  <a_count>
46

>  <a_don>
0

>  <a_donacc>
3

>  <a_heavy>
25

>  <a_hyd>
19

>  <a_IC>
67.406624

>  <a_ICM>
1.4653614

>  <a_nB>
0

>  <a_nBr>
0

>  <a_nC>
20

>  <a_nCl>
1

>  <a_nF>
0

>  <a_nH>
21

>  <a_nI>
0

>  <a_nN>
0

>  <a_nO>
4

>  <a_nP>
0

>  <a_nS>
0

>  <balabanJ>
1.773384

>  <BCUT_PEOE_0>
-2.5537808

>  <BCUT_PEOE_1>
-0.64157093

>  <BCUT_PEOE_2>
0.60713971

>  <BCUT_PEOE_3>
2.6010065

>  <BCUT_SLOGP_0>
-2.6315522

>  <BCUT_SLOGP_1>
-0.53807992

>  <BCUT_SLOGP_2>
0.79600388

>  <BCUT_SLOGP_3>
2.5551758

>  <BCUT_SMR_0>
-2.3302884

>  <BCUT_SMR_1>
-0.46928793

>  <BCUT_SMR_2>
0.85431087

>  <BCUT_SMR_3>
2.8153791

>  <bpol>
29.125347

>  <b_1rotN>
6

>  <b_1rotR>
0.23076923

>  <b_ar>
12

>  <b_count>
47

>  <b_double>
2

>  <b_heavy>
26

>  <b_max1len>
4

>  <b_rotN>
7

>  <b_rotR>
0.26923078

>  <b_single>
33

>  <b_triple>
0

>  <chi0>
18.61252

>  <chi0v>
15.463039

>  <chi0v_C>
12.696153

>  <chi0_C>
14.198306

>  <chi1>
11.686378

>  <chi1v>
8.3707047

>  <chi1v_C>
6.5474348

>  <chi1_C>
8.376029

>  <chiral>
0

>  <chiral_u>
0

>  <density>
0.75344902

>  <diameter>
15

>  <FCharge>
0

>  <GCUT_PEOE_0>
-0.77253032

>  <GCUT_PEOE_1>
-0.37997836

>  <GCUT_PEOE_2>
0.017632075

>  <GCUT_PEOE_3>
2.5382807

>  <GCUT_SLOGP_0>
-0.93328714

>  <GCUT_SLOGP_1>
-0.26386139

>  <GCUT_SLOGP_2>
0.16445385

>  <GCUT_SLOGP_3>
2.6072037

>  <GCUT_SMR_0>
-0.52471417

>  <GCUT_SMR_1>
-0.21605732

>  <GCUT_SMR_2>
0.19305076

>  <GCUT_SMR_3>
2.795193

>  <Kier1>
21.301775

>  <Kier2>
9.2739229

>  <Kier3>
6.2823148

>  <KierA1>
17.130964

>  <KierA2>
7.386054

>  <KierA3>
4.9671082

>  <KierFlex>
5.0612092

>  <lip_acc>
4

>  <lip_don>
0

>  <lip_druglike>
1

>  <lip_violation>
0

>  <logP(o/w)>
5.1617398

>  <logS>
-5.9593701

>  <mr>
9.9162531

>  <mutagenic>
0

>  <nmol>
1

>  <opr_brigid>
12

>  <opr_leadlike>
1

>  <opr_nring>
2

>  <opr_nrot>
6

>  <opr_violation>
1

>  <PC+>
0

>  <PC->
0

>  <PEOE_PC+>
1.7435009

>  <PEOE_PC->
-1.7435009

>  <PEOE_RPC+>
0.16896594

>  <PEOE_RPC->
0.1885861

>  <PEOE_VSA+0>
60.121456

>  <PEOE_VSA+1>
51.751923

>  <PEOE_VSA+2>
0

>  <PEOE_VSA+3>
8.458519

>  <PEOE_VSA+4>
0

>  <PEOE_VSA+5>
14.708499

>  <PEOE_VSA+6>
0

>  <PEOE_VSA-0>
173.02994

>  <PEOE_VSA-1>
29.581947

>  <PEOE_VSA-2>
0

>  <PEOE_VSA-3>
0

>  <PEOE_VSA-4>
0

>  <PEOE_VSA-5>
27.133842

>  <PEOE_VSA-6>
5.0075121

>  <PEOE_VSA_FHYD>
0.87330812

>  <PEOE_VSA_FNEG>
0.63482231

>  <PEOE_VSA_FPNEG>
0.086916998

>  <PEOE_VSA_FPOL>
0.12669188

>  <PEOE_VSA_FPOS>
0.36517772

>  <PEOE_VSA_FPPOS>
0.039774884

>  <PEOE_VSA_HYD>
322.94379

>  <PEOE_VSA_NEG>
234.75325

>  <PEOE_VSA_PNEG>
32.141354

>  <PEOE_VSA_POL>
46.849854

>  <PEOE_VSA_POS>
135.04041

>  <PEOE_VSA_PPOS>
14.708499

>  <petitjean>
0.46666667

>  <petitjeanSC>
0.875

>  <Q_PC+>
0

>  <Q_PC->
0

>  <Q_RPC+>
0

>  <Q_RPC->
0

>  <Q_VSA_FHYD>
1

>  <Q_VSA_FNEG>
0

>  <Q_VSA_FPNEG>
0

>  <Q_VSA_FPOL>
0

>  <Q_VSA_FPOS>
1

>  <Q_VSA_FPPOS>
0

>  <Q_VSA_HYD>
369.79364

>  <Q_VSA_NEG>
0

>  <Q_VSA_PNEG>
0

>  <Q_VSA_POL>
0

>  <Q_VSA_POS>
369.79364

>  <Q_VSA_PPOS>
0

>  <radius>
8

>  <reactive>
1

>  <rings>
2

>  <RPC+>
0

>  <RPC->
0

>  <rsynth>
1

>  <SlogP>
4.6799998

>  <SlogP_VSA0>
10.999887

>  <SlogP_VSA1>
13.433075

>  <SlogP_VSA2>
41.330753

>  <SlogP_VSA3>
0

>  <SlogP_VSA4>
30.233366

>  <SlogP_VSA5>
0

>  <SlogP_VSA6>
3.5006065

>  <SlogP_VSA7>
141.14548

>  <SlogP_VSA8>
0

>  <SlogP_VSA9>
177.69614

>  <SMR>
9.7261496

>  <SMR_VSA0>
58.724319

>  <SMR_VSA1>
10.999887

>  <SMR_VSA2>
0

>  <SMR_VSA3>
21.583834

>  <SMR_VSA4>
0

>  <SMR_VSA5>
141.14548

>  <SMR_VSA6>
13.433075

>  <SMR_VSA7>
172.4527

>  <TPSA>
52.599998

>  <VAdjEq>
0.41335541

>  <VAdjMa>
5.7004399

>  <VDistEq>
3.6483445

>  <VDistMa>
8.95539

>  <vdw_area>
369.79364

>  <vdw_vol>
478.9136

>  <vsa_acc>
29.637598

>  <vsa_acid>
0

>  <vsa_base>
0

>  <vsa_don>
0

>  <vsa_hyd>
299.53757

>  <vsa_other>
25.670774

>  <vsa_pol>
29.637598

>  <Weight>
360.83701

>  <weinerPath>
1716

>  <weinerPol>
37

>  <zagreb>
126

$$$$