O(C(=O)C)[C@]1(CC[C@H]2[C@H]3[C@@H]([C@@H]4C(=C[C@@H](OC(=O)C)CC4)CC3)CC[C@]12C)C#C
  MOE2013           2D

 28 31  0  0  1  0  0  0  0  0999 V2000
    0.0000    0.0000    0.0000 O   0  0  0  0  0  0  0  0  0  0  0  0
   -0.9490    1.1620    0.0000 C   0  0  0  0  0  0  0  0  0  0  0  0
   -2.4290    0.9210    0.0000 O   0  0  0  0  0  0  0  0  0  0  0  0
   -0.4170    2.5640    0.0000 C   0  0  0  0  0  0  0  0  0  0  0  0
    1.4810    0.2410    0.0000 C   0  0  1  0  0  0  0  0  0  0  0  0
    1.3180    1.7320    0.0000 C   0  0  0  0  0  0  0  0  0  0  0  0
    2.6850    2.3480    0.0000 C   0  0  0  0  0  0  0  0  0  0  0  0
    3.6940    1.2370    0.0000 C   0  0  1  0  0  0  0  0  0  0  0  0
    5.1940    1.2430    0.0000 C   0  0  1  0  0  0  0  0  0  0  0  0
    5.9490   -0.0530    0.0000 C   0  0  1  0  0  0  0  0  0  0  0  0
    7.4490   -0.0470    0.0000 C   0  0  2  0  0  0  0  0  0  0  0  0
    8.1940    1.2550    0.0000 C   0  0  0  0  0  0  0  0  0  0  0  0
    9.6940    1.2620    0.0000 C   0  0  0  0  0  0  0  0  0  0  0  0
   10.4490   -0.0340    0.0000 C   0  0  1  0  0  0  0  0  0  0  0  0
   11.9490   -0.0280    0.0000 O   0  0  0  0  0  0  0  0  0  0  0  0
   12.7040   -1.3240    0.0000 C   0  0  0  0  0  0  0  0  0  0  0  0
   14.2040   -1.3180    0.0000 O   0  0  0  0  0  0  0  0  0  0  0  0
   11.9600   -2.6260    0.0000 C   0  0  0  0  0  0  0  0  0  0  0  0
    9.7040   -1.3370    0.0000 C   0  0  0  0  0  0  0  0  0  0  0  0
    8.2040   -1.3430    0.0000 C   0  0  0  0  0  0  0  0  0  0  0  0
    7.4380    2.5510    0.0000 C   0  0  0  0  0  0  0  0  0  0  0  0
    5.9380    2.5450    0.0000 C   0  0  0  0  0  0  0  0  0  0  0  0
    5.2040   -1.3550    0.0000 C   0  0  0  0  0  0  0  0  0  0  0  0
    3.7040   -1.3610    0.0000 C   0  0  0  0  0  0  0  0  0  0  0  0
    2.9490   -0.0650    0.0000 C   0  0  2  0  0  0  0  0  0  0  0  0
    2.0940   -1.2970    0.0000 C   0  0  0  0  0  0  0  0  0  0  0  0
    0.9980   -1.1800    0.0000 C   0  0  0  0  0  0  0  0  0  0  0  0
    0.5150   -2.6000    0.0000 C   0  0  0  0  0  0  0  0  0  0  0  0
  1  2  1  0  0  0  0
  2  3  2  0  0  0  0
  2  4  1  0  0  0  0
  5  1  1  1  0  0  0
  5  6  1  0  0  0  0
  5 25  1  0  0  0  0
  5 27  1  6  0  0  0
  6  7  1  0  0  0  0
  8  7  1  1  0  0  0
  8  9  1  0  0  0  0
  8 25  1  0  0  0  0
  9 10  1  0  0  0  0
  9 22  1  6  0  0  0
 10 11  1  0  0  0  0
 10 23  1  1  0  0  0
 11 12  1  0  0  0  0
 11 20  1  6  0  0  0
 12 13  2  0  0  0  0
 12 21  1  0  0  0  0
 13 14  1  0  0  0  0
 14 15  1  1  0  0  0
 14 19  1  0  0  0  0
 15 16  1  0  0  0  0
 16 17  2  0  0  0  0
 16 18  1  0  0  0  0
 19 20  1  0  0  0  0
 21 22  1  0  0  0  0
 23 24  1  0  0  0  0
 24 25  1  0  0  0  0
 25 26  1  1  0  0  0
 27 28  3  0  0  0  0
M  END
>  <Index>
405

>  <ID>
HT0823

>  <class>
0

>  <apol>
66.785378

>  <ast_fraglike>
0

>  <ast_fraglike_ext>
0

>  <ast_violation>
2

>  <ast_violation_ext>
2

>  <a_acc>
2

>  <a_acid>
0

>  <a_aro>
0

>  <a_base>
0

>  <a_count>
60

>  <a_don>
0

>  <a_donacc>
2

>  <a_heavy>
28

>  <a_hyd>
22

>  <a_IC>
76.374336

>  <a_ICM>
1.2729056

>  <a_nB>
0

>  <a_nBr>
0

>  <a_nC>
24

>  <a_nCl>
0

>  <a_nF>
0

>  <a_nH>
32

>  <a_nI>
0

>  <a_nN>
0

>  <a_nO>
4

>  <a_nP>
0

>  <a_nS>
0

>  <balabanJ>
1.4935424

>  <BCUT_PEOE_0>
-2.9322979

>  <BCUT_PEOE_1>
-0.4977226

>  <BCUT_PEOE_2>
0.52830786

>  <BCUT_PEOE_3>
2.9583266

>  <BCUT_SLOGP_0>
-2.8549547

>  <BCUT_SLOGP_1>
-0.4270702

>  <BCUT_SLOGP_2>
0.56704211

>  <BCUT_SLOGP_3>
3.0265865

>  <BCUT_SMR_0>
-2.6783357

>  <BCUT_SMR_1>
-0.36659122

>  <BCUT_SMR_2>
0.65387684

>  <BCUT_SMR_3>
3.2054956

>  <bpol>
40.730625

>  <b_1rotN>
2

>  <b_1rotR>
0.064516127

>  <b_ar>
0

>  <b_count>
63

>  <b_double>
3

>  <b_heavy>
31

>  <b_max1len>
2

>  <b_rotN>
5

>  <b_rotR>
0.16129032

>  <b_single>
59

>  <b_triple>
1

>  <chi0>
20.104084

>  <chi0v>
17.331299

>  <chi0v_C>
15.698306

>  <chi0_C>
16.689871

>  <chi1>
13.293461

>  <chi1v>
10.846258

>  <chi1v_C>
9.5899353

>  <chi1_C>
10.560462

>  <chiral>
7

>  <chiral_u>
0

>  <density>
0.69837421

>  <diameter>
14

>  <FCharge>
0

>  <GCUT_PEOE_0>
-0.79362041

>  <GCUT_PEOE_1>
-0.38719267

>  <GCUT_PEOE_2>
0.023227332

>  <GCUT_PEOE_3>
3.2989895

>  <GCUT_SLOGP_0>
-0.855349

>  <GCUT_SLOGP_1>
-0.29274443

>  <GCUT_SLOGP_2>
0.049404081

>  <GCUT_SLOGP_3>
3.377079

>  <GCUT_SMR_0>
-0.53792942

>  <GCUT_SMR_1>
-0.2138187

>  <GCUT_SMR_2>
0.12728286

>  <GCUT_SMR_3>
3.5259688

>  <Kier1>
21.240376

>  <Kier2>
7.921875

>  <Kier3>
3.5496745

>  <KierA1>
18.350763

>  <KierA2>
6.8052573

>  <KierA3>
3.0369949

>  <KierFlex>
4.4600596

>  <lip_acc>
4

>  <lip_don>
0

>  <lip_druglike>
1

>  <lip_violation>
0

>  <logP(o/w)>
4.5219998

>  <logS>
-5.8895998

>  <mr>
10.787339

>  <mutagenic>
0

>  <nmol>
1

>  <opr_brigid>
21

>  <opr_leadlike>
1

>  <opr_nring>
4

>  <opr_nrot>
3

>  <opr_violation>
0

>  <PC+>
0

>  <PC->
0

>  <PEOE_PC+>
1.9009826

>  <PEOE_PC->
-1.9009826

>  <PEOE_RPC+>
0.13701019

>  <PEOE_RPC->
0.16199207

>  <PEOE_VSA+0>
161.19154

>  <PEOE_VSA+1>
13.4357

>  <PEOE_VSA+2>
4.2653861

>  <PEOE_VSA+3>
0

>  <PEOE_VSA+4>
0

>  <PEOE_VSA+5>
29.416998

>  <PEOE_VSA+6>
0

>  <PEOE_VSA-0>
69.610504

>  <PEOE_VSA-1>
49.019615

>  <PEOE_VSA-2>
25.854858

>  <PEOE_VSA-3>
0

>  <PEOE_VSA-4>
0

>  <PEOE_VSA-5>
29.637598

>  <PEOE_VSA-6>
2.503756

>  <PEOE_VSA_FHYD>
0.84008157

>  <PEOE_VSA_FNEG>
0.458846

>  <PEOE_VSA_FPNEG>
0.083497927

>  <PEOE_VSA_FPOL>
0.15991843

>  <PEOE_VSA_FPOS>
0.54115397

>  <PEOE_VSA_FPPOS>
0.076420501

>  <PEOE_VSA_HYD>
323.37762

>  <PEOE_VSA_NEG>
176.62633

>  <PEOE_VSA_PNEG>
32.141354

>  <PEOE_VSA_POL>
61.558353

>  <PEOE_VSA_POS>
208.30963

>  <PEOE_VSA_PPOS>
29.416998

>  <petitjean>
0.5

>  <petitjeanSC>
1

>  <Q_PC+>
0

>  <Q_PC->
0

>  <Q_RPC+>
0

>  <Q_RPC->
0

>  <Q_VSA_FHYD>
1

>  <Q_VSA_FNEG>
0

>  <Q_VSA_FPNEG>
0

>  <Q_VSA_FPOL>
0

>  <Q_VSA_FPOS>
1

>  <Q_VSA_FPPOS>
0

>  <Q_VSA_HYD>
384.93597

>  <Q_VSA_NEG>
0

>  <Q_VSA_PNEG>
0

>  <Q_VSA_POL>
0

>  <Q_VSA_POS>
384.93597

>  <Q_VSA_PPOS>
0

>  <radius>
7

>  <reactive>
0

>  <rings>
4

>  <RPC+>
0

>  <RPC->
0

>  <rsynth>
0.21428572

>  <SlogP>
4.4259081

>  <SlogP_VSA0>
0

>  <SlogP_VSA1>
15.490929

>  <SlogP_VSA2>
76.192856

>  <SlogP_VSA3>
17.030573

>  <SlogP_VSA4>
49.131367

>  <SlogP_VSA5>
3.185575

>  <SlogP_VSA6>
0

>  <SlogP_VSA7>
17.643185

>  <SlogP_VSA8>
150.94725

>  <SlogP_VSA9>
99.978043

>  <SMR>
10.597

>  <SMR_VSA0>
69.724205

>  <SMR_VSA1>
0

>  <SMR_VSA2>
17.643185

>  <SMR_VSA3>
26.684797

>  <SMR_VSA4>
0

>  <SMR_VSA5>
168.59042

>  <SMR_VSA6>
46.979111

>  <SMR_VSA7>
99.978043

>  <TPSA>
52.599998

>  <VAdjEq>
0.39893496

>  <VAdjMa>
5.9541965

>  <VDistEq>
3.5042555

>  <VDistMa>
9.3058405

>  <vdw_area>
384.93597

>  <vdw_vol>
550.58734

>  <vsa_acc>
27.133842

>  <vsa_acid>
0

>  <vsa_base>
0

>  <vsa_don>
0

>  <vsa_hyd>
295.21997

>  <vsa_other>
34.424511

>  <vsa_pol>
27.133842

>  <Weight>
384.51599

>  <weinerPath>
1979

>  <weinerPol>
55

>  <zagreb>
158

$$$$