S(=O)(=O)(N1CCCC1)Cc1cc2c([nH]cc2CCN(C)C)cc1
  MOE2013           2D

 23 25  0  0  0  0  0  0  0  0999 V2000
    0.0000    0.0000    0.0000 S   0  0  0  0  0  0  0  0  0  0  0  0
   -0.0080    1.5000    0.0000 O   0  0  0  0  0  0  0  0  0  0  0  0
    0.0080   -1.5000    0.0000 O   0  0  0  0  0  0  0  0  0  0  0  0
   -1.5000   -0.0080    0.0000 N   0  0  0  0  0  0  0  0  0  0  0  0
   -2.3750   -1.2270    0.0000 C   0  0  0  0  0  0  0  0  0  0  0  0
   -3.8040   -0.7710    0.0000 C   0  0  0  0  0  0  0  0  0  0  0  0
   -3.8120    0.7290    0.0000 C   0  0  0  0  0  0  0  0  0  0  0  0
   -2.3880    1.2000    0.0000 C   0  0  0  0  0  0  0  0  0  0  0  0
    1.5000    0.0080    0.0000 C   0  0  0  0  0  0  0  0  0  0  0  0
    2.2430    1.3120    0.0000 C   0  0  0  0  0  0  0  0  0  0  0  0
    3.7430    1.3200    0.0000 C   0  0  0  0  0  0  0  0  0  0  0  0
    4.4850    2.6230    0.0000 C   0  0  0  0  0  0  0  0  0  0  0  0
    3.7280    3.9180    0.0000 C   0  0  0  0  0  0  0  0  0  0  0  0
    4.7250    5.0380    0.0000 N   0  0  0  0  0  0  0  0  0  0  0  0
    6.0990    4.4360    0.0000 C   0  0  0  0  0  0  0  0  0  0  0  0
    5.9510    2.9430    0.0000 C   0  0  0  0  0  0  0  0  0  0  0  0
    7.0710    1.9460    0.0000 C   0  0  0  0  0  0  0  0  0  0  0  0
    8.4950    2.4180    0.0000 C   0  0  0  0  0  0  0  0  0  0  0  0
    9.6150    1.4200    0.0000 N   0  0  0  0  0  0  0  0  0  0  0  0
   11.0390    1.8920    0.0000 C   0  0  0  0  0  0  0  0  0  0  0  0
    9.3120   -0.0490    0.0000 C   0  0  0  0  0  0  0  0  0  0  0  0
    2.2280    3.9100    0.0000 C   0  0  0  0  0  0  0  0  0  0  0  0
    1.4850    2.6060    0.0000 C   0  0  0  0  0  0  0  0  0  0  0  0
  1  2  2  0  0  0  0
  1  3  2  0  0  0  0
  1  4  1  0  0  0  0
  1  9  1  0  0  0  0
  4  5  1  0  0  0  0
  4  8  1  0  0  0  0
  5  6  1  0  0  0  0
  6  7  1  0  0  0  0
  7  8  1  0  0  0  0
  9 10  1  0  0  0  0
 10 11  1  0  0  0  0
 10 23  2  0  0  0  0
 11 12  2  0  0  0  0
 12 13  1  0  0  0  0
 12 16  1  0  0  0  0
 13 14  1  0  0  0  0
 13 22  2  0  0  0  0
 14 15  1  0  0  0  0
 15 16  2  0  0  0  0
 16 17  1  0  0  0  0
 17 18  1  0  0  0  0
 18 19  1  0  0  0  0
 19 20  1  0  0  0  0
 19 21  1  0  0  0  0
 22 23  1  0  0  0  0
M  END
>  <Index>
49

>  <ID>
HT0109

>  <class>
0

>  <apol>
54.393826

>  <ast_fraglike>
0

>  <ast_fraglike_ext>
0

>  <ast_violation>
1

>  <ast_violation_ext>
2

>  <a_acc>
3

>  <a_acid>
0

>  <a_aro>
9

>  <a_base>
0

>  <a_count>
48

>  <a_don>
1

>  <a_donacc>
4

>  <a_heavy>
23

>  <a_hyd>
17

>  <a_IC>
75.740036

>  <a_ICM>
1.5779175

>  <a_nB>
0

>  <a_nBr>
0

>  <a_nC>
17

>  <a_nCl>
0

>  <a_nF>
0

>  <a_nH>
25

>  <a_nI>
0

>  <a_nN>
3

>  <a_nO>
2

>  <a_nP>
0

>  <a_nS>
1

>  <balabanJ>
1.5430973

>  <BCUT_PEOE_0>
-2.6035964

>  <BCUT_PEOE_1>
-0.30463639

>  <BCUT_PEOE_2>
0.28442964

>  <BCUT_PEOE_3>
2.704706

>  <BCUT_SLOGP_0>
-2.6762838

>  <BCUT_SLOGP_1>
-0.31679422

>  <BCUT_SLOGP_2>
0.34840551

>  <BCUT_SLOGP_3>
2.717509

>  <BCUT_SMR_0>
-2.3194895

>  <BCUT_SMR_1>
-0.033859506

>  <BCUT_SMR_2>
0.40248325

>  <BCUT_SMR_3>
3.014678

>  <bpol>
38.426174

>  <b_1rotN>
6

>  <b_1rotR>
0.23999999

>  <b_ar>
10

>  <b_count>
50

>  <b_double>
0

>  <b_heavy>
25

>  <b_max1len>
5

>  <b_rotN>
6

>  <b_rotR>
0.23999999

>  <b_single>
40

>  <b_triple>
0

>  <chi0>
16.449383

>  <chi0v>
14.694818

>  <chi0v_C>
11.259149

>  <chi0_C>
12.087576

>  <chi1>
10.954327

>  <chi1v>
9.7793493

>  <chi1v_C>
4.9838157

>  <chi1_C>
6.0244045

>  <chiral>
0

>  <chiral_u>
0

>  <density>
0.73788208

>  <diameter>
12

>  <FCharge>
0

>  <GCUT_PEOE_0>
-0.8647151

>  <GCUT_PEOE_1>
-0.36066398

>  <GCUT_PEOE_2>
-0.0025434168

>  <GCUT_PEOE_3>
2.7114198

>  <GCUT_SLOGP_0>
-0.95487744

>  <GCUT_SLOGP_1>
-0.32219842

>  <GCUT_SLOGP_2>
0.017949149

>  <GCUT_SLOGP_3>
2.7765727

>  <GCUT_SMR_0>
-0.52623183

>  <GCUT_SMR_1>
-0.10821228

>  <GCUT_SMR_2>
0.052272346

>  <GCUT_SMR_3>
2.9953139

>  <Kier1>
17.811199

>  <Kier2>
7.4861112

>  <Kier3>
4.3456788

>  <KierA1>
16.165211

>  <KierA2>
6.762928

>  <KierA3>
3.9121463

>  <KierFlex>
4.7532239

>  <lip_acc>
5

>  <lip_don>
1

>  <lip_druglike>
1

>  <lip_violation>
0

>  <logP(o/w)>
1.858

>  <logS>
-2.0176799

>  <mr>
9.3606081

>  <mutagenic>
0

>  <nmol>
1

>  <opr_brigid>
15

>  <opr_leadlike>
1

>  <opr_nring>
3

>  <opr_nrot>
6

>  <opr_violation>
0

>  <PC+>
0

>  <PC->
0

>  <PEOE_PC+>
1.6464536

>  <PEOE_PC->
-1.6464536

>  <PEOE_RPC+>
0.13333635

>  <PEOE_RPC->
0.21887438

>  <PEOE_VSA+0>
127.93742

>  <PEOE_VSA+1>
17.061544

>  <PEOE_VSA+2>
8.5307722

>  <PEOE_VSA+3>
8.6190128

>  <PEOE_VSA+4>
10.677375

>  <PEOE_VSA+5>
0

>  <PEOE_VSA+6>
0

>  <PEOE_VSA-0>
120.53659

>  <PEOE_VSA-1>
17.402626

>  <PEOE_VSA-2>
0

>  <PEOE_VSA-3>
0

>  <PEOE_VSA-4>
32.016521

>  <PEOE_VSA-5>
0

>  <PEOE_VSA-6>
0.13689101

>  <PEOE_VSA_FHYD>
0.8750993

>  <PEOE_VSA_FNEG>
0.49601436

>  <PEOE_VSA_FPNEG>
0.09376394

>  <PEOE_VSA_FPOL>
0.12490068

>  <PEOE_VSA_FPOS>
0.50398564

>  <PEOE_VSA_FPPOS>
0.031136747

>  <PEOE_VSA_HYD>
300.08798

>  <PEOE_VSA_NEG>
170.09264

>  <PEOE_VSA_PNEG>
32.153416

>  <PEOE_VSA_POL>
42.830788

>  <PEOE_VSA_POS>
172.82613

>  <PEOE_VSA_PPOS>
10.677375

>  <petitjean>
0.5

>  <petitjeanSC>
1

>  <Q_PC+>
0

>  <Q_PC->
0

>  <Q_RPC+>
0

>  <Q_RPC->
0

>  <Q_VSA_FHYD>
1

>  <Q_VSA_FNEG>
0

>  <Q_VSA_FPNEG>
0

>  <Q_VSA_FPOL>
0

>  <Q_VSA_FPOS>
1

>  <Q_VSA_FPPOS>
0

>  <Q_VSA_HYD>
342.91876

>  <Q_VSA_NEG>
0

>  <Q_VSA_PNEG>
0

>  <Q_VSA_POL>
0

>  <Q_VSA_POS>
342.91876

>  <Q_VSA_PPOS>
0

>  <radius>
6

>  <reactive>
0

>  <rings>
3

>  <RPC+>
0

>  <RPC->
0

>  <rsynth>
0.65217394

>  <SlogP>
2.4639699

>  <SlogP_VSA0>
0

>  <SlogP_VSA1>
52.814564

>  <SlogP_VSA2>
23.426271

>  <SlogP_VSA3>
55.318733

>  <SlogP_VSA4>
6.37115

>  <SlogP_VSA5>
84.662781

>  <SlogP_VSA6>
0

>  <SlogP_VSA7>
74.861008

>  <SlogP_VSA8>
37.736813

>  <SlogP_VSA9>
17.233564

>  <SMR>
9.4192495

>  <SMR_VSA0>
48.171688

>  <SMR_VSA1>
4.6428747

>  <SMR_VSA2>
16.78553

>  <SMR_VSA3>
6.37115

>  <SMR_VSA4>
4.7171016

>  <SMR_VSA5>
143.9827

>  <SMR_VSA6>
55.318733

>  <SMR_VSA7>
72.43512

>  <TPSA>
56.41

>  <VAdjEq>
0.45137304

>  <VAdjMa>
5.643856

>  <VDistEq>
3.3881705

>  <VDistMa>
8.7408838

>  <vdw_area>
342.91876

>  <vdw_vol>
454.64175

>  <vsa_acc>
32.016521

>  <vsa_acid>
0

>  <vsa_base>
0

>  <vsa_don>
5.6825762

>  <vsa_hyd>
274.95764

>  <vsa_other>
10.105608

>  <vsa_pol>
37.6991

>  <Weight>
335.47198

>  <weinerPath>
1257

>  <weinerPol>
32

>  <zagreb>
122

$$$$