OC(CN1CCN(CCN(CCN(CC1)CC(O)=O)CC(O)=O)CC(O)=O)C
  MOE2013           2D

 28 28  0  0  1  0  0  0  0  0999 V2000
    0.0000    0.0000    0.0000 O   0  0  0  0  0  0  0  0  0  0  0  0
   -0.0070   -1.5000    0.0000 C   0  0  3  0  0  0  0  0  0  0  0  0
    1.2890   -2.2560    0.0000 C   0  0  0  0  0  0  0  0  0  0  0  0
    1.2830   -3.7560    0.0000 N   0  0  0  0  0  0  0  0  0  0  0  0
   -0.0200   -4.5000    0.0000 C   0  0  0  0  0  0  0  0  0  0  0  0
   -0.0260   -6.0000    0.0000 C   0  0  0  0  0  0  0  0  0  0  0  0
   -1.3290   -6.7440    0.0000 N   0  0  3  0  0  0  0  0  0  0  0  0
   -1.3350   -8.2440    0.0000 C   0  0  0  0  0  0  0  0  0  0  0  0
   -0.0390   -9.0000    0.0000 C   0  0  0  0  0  0  0  0  0  0  0  0
    1.2630   -8.2560    0.0000 N   0  0  0  0  0  0  0  0  0  0  0  0
    2.5590   -9.0110    0.0000 C   0  0  0  0  0  0  0  0  0  0  0  0
    3.8610   -8.2670    0.0000 C   0  0  0  0  0  0  0  0  0  0  0  0
    3.8680   -6.7670    0.0000 N   0  0  3  0  0  0  0  0  0  0  0  0
    2.5720   -6.0110    0.0000 C   0  0  0  0  0  0  0  0  0  0  0  0
    2.5780   -4.5110    0.0000 C   0  0  0  0  0  0  0  0  0  0  0  0
    5.1700   -6.0230    0.0000 C   0  0  0  0  0  0  0  0  0  0  0  0
    6.4660   -6.7780    0.0000 C   0  0  0  0  0  0  0  0  0  0  0  0
    6.4590   -8.2780    0.0000 O   0  0  0  0  0  0  0  0  0  0  0  0
    7.7680   -6.0340    0.0000 O   0  0  0  0  0  0  0  0  0  0  0  0
    1.2560   -9.7560    0.0000 C   0  0  0  0  0  0  0  0  0  0  0  0
    2.5520  -10.5110    0.0000 C   0  0  0  0  0  0  0  0  0  0  0  0
    3.8550   -9.7670    0.0000 O   0  0  0  0  0  0  0  0  0  0  0  0
    2.5460  -12.0110    0.0000 O   0  0  0  0  0  0  0  0  0  0  0  0
   -2.6240   -5.9890    0.0000 C   0  0  0  0  0  0  0  0  0  0  0  0
   -3.9270   -6.7330    0.0000 C   0  0  0  0  0  0  0  0  0  0  0  0
   -3.9330   -8.2330    0.0000 O   0  0  0  0  0  0  0  0  0  0  0  0
   -5.2220   -5.9770    0.0000 O   0  0  0  0  0  0  0  0  0  0  0  0
   -1.3090   -2.2440    0.0000 C   0  0  0  0  0  0  0  0  0  0  0  0
  1  2  1  0  0  0  0
  2  3  1  0  0  0  0
  2 28  1  0  0  0  0
  3  4  1  0  0  0  0
  4  5  1  0  0  0  0
  4 15  1  0  0  0  0
  5  6  1  0  0  0  0
  6  7  1  0  0  0  0
  7  8  1  0  0  0  0
  7 24  1  0  0  0  0
  8  9  1  0  0  0  0
  9 10  1  0  0  0  0
 10 11  1  0  0  0  0
 10 20  1  0  0  0  0
 11 12  1  0  0  0  0
 12 13  1  0  0  0  0
 13 14  1  0  0  0  0
 13 16  1  0  0  0  0
 14 15  1  0  0  0  0
 16 17  1  0  0  0  0
 17 18  1  0  0  0  0
 17 19  2  0  0  0  0
 20 21  1  0  0  0  0
 21 22  1  0  0  0  0
 21 23  2  0  0  0  0
 24 25  1  0  0  0  0
 25 26  1  0  0  0  0
 25 27  2  0  0  0  0
M  END
>  <Index>
473

>  <ID>
HT0956

>  <class>
0

>  <apol>
61.271378

>  <ast_fraglike>
0

>  <ast_fraglike_ext>
0

>  <ast_violation>
3

>  <ast_violation_ext>
5

>  <a_acc>
11

>  <a_acid>
0

>  <a_aro>
0

>  <a_base>
0

>  <a_count>
60

>  <a_don>
7

>  <a_donacc>
18

>  <a_heavy>
28

>  <a_hyd>
14

>  <a_IC>
97.275085

>  <a_ICM>
1.6212513

>  <a_nB>
0

>  <a_nBr>
0

>  <a_nC>
17

>  <a_nCl>
0

>  <a_nF>
0

>  <a_nH>
32

>  <a_nI>
0

>  <a_nN>
4

>  <a_nO>
7

>  <a_nP>
0

>  <a_nS>
0

>  <balabanJ>
2.8471687

>  <BCUT_PEOE_0>
-2.7737832

>  <BCUT_PEOE_1>
-0.50996113

>  <BCUT_PEOE_2>
0.46506578

>  <BCUT_PEOE_3>
2.6878746

>  <BCUT_SLOGP_0>
-2.9072528

>  <BCUT_SLOGP_1>
-0.49978817

>  <BCUT_SLOGP_2>
0.39645952

>  <BCUT_SLOGP_3>
2.5609107

>  <BCUT_SMR_0>
-2.4963095

>  <BCUT_SMR_1>
-0.31020144

>  <BCUT_SMR_2>
0.59662825

>  <BCUT_SMR_3>
2.9550707

>  <bpol>
45.776623

>  <b_1rotN>
8

>  <b_1rotR>
0.2857143

>  <b_ar>
0

>  <b_count>
60

>  <b_double>
3

>  <b_heavy>
28

>  <b_max1len>
4

>  <b_rotN>
8

>  <b_rotR>
0.2857143

>  <b_single>
57

>  <b_triple>
0

>  <chi0>
21.104084

>  <chi0v>
16.365086

>  <chi0v_C>
11.562632

>  <chi0_C>
11.794683

>  <chi1>
13.150775

>  <chi1v>
9.3823833

>  <chi1v_C>
4.0462589

>  <chi1_C>
4.2103434

>  <chiral>
1

>  <chiral_u>
1

>  <density>
0.77109361

>  <diameter>
12

>  <FCharge>
0

>  <GCUT_PEOE_0>
-0.84860909

>  <GCUT_PEOE_1>
-0.4030104

>  <GCUT_PEOE_2>
0.10692289

>  <GCUT_PEOE_3>
2.9610901

>  <GCUT_SLOGP_0>
-0.9734019

>  <GCUT_SLOGP_1>
-0.4460167

>  <GCUT_SLOGP_2>
0.0068512144

>  <GCUT_SLOGP_3>
2.8672771

>  <GCUT_SMR_0>
-0.5250715

>  <GCUT_SMR_1>
-0.23160301

>  <GCUT_SMR_2>
0.18138236

>  <GCUT_SMR_3>
3.1871295

>  <Kier1>
26.035715

>  <Kier2>
14.083333

>  <Kier3>
13.040123

>  <KierA1>
23.546926

>  <KierA2>
12.687701

>  <KierA3>
11.715464

>  <KierFlex>
10.66987

>  <lip_acc>
11

>  <lip_don>
4

>  <lip_druglike>
1

>  <lip_violation>
1

>  <logP(o/w)>
-2.2709999

>  <logS>
0.55686998

>  <mr>
10.036721

>  <mutagenic>
0

>  <nmol>
1

>  <opr_brigid>
12

>  <opr_leadlike>
0

>  <opr_nring>
0

>  <opr_nrot>
20

>  <opr_violation>
2

>  <PC+>
0

>  <PC->
0

>  <PEOE_PC+>
3.3810718

>  <PEOE_PC->
-3.3810718

>  <PEOE_RPC+>
0.080973938

>  <PEOE_RPC->
0.11558353

>  <PEOE_VSA+0>
208.30403

>  <PEOE_VSA+1>
74.339607

>  <PEOE_VSA+2>
0

>  <PEOE_VSA+3>
0

>  <PEOE_VSA+4>
41.296692

>  <PEOE_VSA+5>
44.125496

>  <PEOE_VSA+6>
0

>  <PEOE_VSA-0>
18.747677

>  <PEOE_VSA-1>
0

>  <PEOE_VSA-2>
0

>  <PEOE_VSA-3>
0

>  <PEOE_VSA-4>
0

>  <PEOE_VSA-5>
40.700764

>  <PEOE_VSA-6>
31.070162

>  <PEOE_VSA_FHYD>
0.65722102

>  <PEOE_VSA_FNEG>
0.19738699

>  <PEOE_VSA_FPNEG>
0.15650536

>  <PEOE_VSA_FPOL>
0.34277901

>  <PEOE_VSA_FPOS>
0.80261302

>  <PEOE_VSA_FPPOS>
0.18627363

>  <PEOE_VSA_HYD>
301.39133

>  <PEOE_VSA_NEG>
90.5186

>  <PEOE_VSA_PNEG>
71.77092

>  <PEOE_VSA_POL>
157.19312

>  <PEOE_VSA_POS>
368.06583

>  <PEOE_VSA_PPOS>
85.422188

>  <petitjean>
0.33333334

>  <petitjeanSC>
0.5

>  <Q_PC+>
0

>  <Q_PC->
0

>  <Q_RPC+>
0

>  <Q_RPC->
0

>  <Q_VSA_FHYD>
1

>  <Q_VSA_FNEG>
0

>  <Q_VSA_FPNEG>
0

>  <Q_VSA_FPOL>
0

>  <Q_VSA_FPOS>
1

>  <Q_VSA_FPPOS>
0

>  <Q_VSA_HYD>
458.58441

>  <Q_VSA_NEG>
0

>  <Q_VSA_PNEG>
0

>  <Q_VSA_POL>
0

>  <Q_VSA_POS>
458.58441

>  <Q_VSA_PPOS>
0

>  <radius>
8

>  <reactive>
0

>  <rings>
1

>  <RPC+>
0

>  <RPC->
0

>  <rsynth>
1

>  <SlogP>
-2.1573999

>  <SlogP_VSA0>
25.385227

>  <SlogP_VSA1>
35.733646

>  <SlogP_VSA2>
78.055298

>  <SlogP_VSA3>
297.4306

>  <SlogP_VSA4>
0

>  <SlogP_VSA5>
0

>  <SlogP_VSA6>
0

>  <SlogP_VSA7>
0

>  <SlogP_VSA8>
0

>  <SlogP_VSA9>
33.326015

>  <SMR>
10.03482

>  <SMR_VSA0>
71.586647

>  <SMR_VSA1>
37.882481

>  <SMR_VSA2>
76.155678

>  <SMR_VSA3>
6.4686494

>  <SMR_VSA4>
0

>  <SMR_VSA5>
0

>  <SMR_VSA6>
244.51132

>  <SMR_VSA7>
33.326015

>  <TPSA>
145.09

>  <VAdjEq>
0.37123233

>  <VAdjMa>
5.8073549

>  <VDistEq>
3.3967867

>  <VDistMa>
9.3698988

>  <vdw_area>
458.58441

>  <vdw_vol>
524.5329

>  <vsa_acc>
0

>  <vsa_acid>
0

>  <vsa_base>
0

>  <vsa_don>
0

>  <vsa_hyd>
281.46103

>  <vsa_other>
44.125496

>  <vsa_pol>
94.968445

>  <Weight>
404.46399

>  <weinerPath>
2076

>  <weinerPol>
36

>  <zagreb>
128

$$$$