O1c2c(cccc2C(OCCN2CCCCC2)=O)C(=O)C(C)=C1c1ccccc1
  MOE2013           2D

 29 32  0  0  0  0  0  0  0  0999 V2000
    0.0000    0.0000    0.0000 O   0  0  0  0  0  0  0  0  0  0  0  0
    0.7490   -1.3000    0.0000 C   0  0  0  0  0  0  0  0  0  0  0  0
   -0.0020   -2.5980    0.0000 C   0  0  0  0  0  0  0  0  0  0  0  0
    0.7470   -3.8980    0.0000 C   0  0  0  0  0  0  0  0  0  0  0  0
    2.2470   -3.8990    0.0000 C   0  0  0  0  0  0  0  0  0  0  0  0
    2.9980   -2.6000    0.0000 C   0  0  0  0  0  0  0  0  0  0  0  0
    2.2490   -1.3010    0.0000 C   0  0  0  0  0  0  0  0  0  0  0  0
    3.0000   -0.0020    0.0000 C   0  0  0  0  0  0  0  0  0  0  0  0
    4.5000   -0.0030    0.0000 O   0  0  0  0  0  0  0  0  0  0  0  0
    5.2510    1.2950    0.0000 C   0  0  0  0  0  0  0  0  0  0  0  0
    6.7510    1.2940    0.0000 C   0  0  0  0  0  0  0  0  0  0  0  0
    7.5020    2.5930    0.0000 N   0  0  0  0  0  0  0  0  0  0  0  0
    6.7530    3.8930    0.0000 C   0  0  0  0  0  0  0  0  0  0  0  0
    7.5040    5.1910    0.0000 C   0  0  0  0  0  0  0  0  0  0  0  0
    9.0040    5.1900    0.0000 C   0  0  0  0  0  0  0  0  0  0  0  0
    9.7530    3.8910    0.0000 C   0  0  0  0  0  0  0  0  0  0  0  0
    9.0020    2.5920    0.0000 C   0  0  0  0  0  0  0  0  0  0  0  0
    2.2510    1.2980    0.0000 O   0  0  0  0  0  0  0  0  0  0  0  0
   -1.5020   -2.5970    0.0000 C   0  0  0  0  0  0  0  0  0  0  0  0
   -2.2530   -3.8960    0.0000 O   0  0  0  0  0  0  0  0  0  0  0  0
   -2.2510   -1.2980    0.0000 C   0  0  0  0  0  0  0  0  0  0  0  0
   -3.7510   -1.2970    0.0000 C   0  0  0  0  0  0  0  0  0  0  0  0
   -1.5000    0.0010    0.0000 C   0  0  0  0  0  0  0  0  0  0  0  0
   -2.2490    1.3010    0.0000 C   0  0  0  0  0  0  0  0  0  0  0  0
   -1.4980    2.5990    0.0000 C   0  0  0  0  0  0  0  0  0  0  0  0
   -2.2470    3.8990    0.0000 C   0  0  0  0  0  0  0  0  0  0  0  0
   -3.7470    3.9000    0.0000 C   0  0  0  0  0  0  0  0  0  0  0  0
   -4.4980    2.6010    0.0000 C   0  0  0  0  0  0  0  0  0  0  0  0
   -3.7490    1.3020    0.0000 C   0  0  0  0  0  0  0  0  0  0  0  0
  1  2  1  0  0  0  0
  1 23  1  0  0  0  0
  2  3  1  0  0  0  0
  2  7  2  0  0  0  0
  3  4  2  0  0  0  0
  3 19  1  0  0  0  0
  4  5  1  0  0  0  0
  5  6  2  0  0  0  0
  6  7  1  0  0  0  0
  7  8  1  0  0  0  0
  8  9  1  0  0  0  0
  8 18  2  0  0  0  0
  9 10  1  0  0  0  0
 10 11  1  0  0  0  0
 11 12  1  0  0  0  0
 12 13  1  0  0  0  0
 12 17  1  0  0  0  0
 13 14  1  0  0  0  0
 14 15  1  0  0  0  0
 15 16  1  0  0  0  0
 16 17  1  0  0  0  0
 19 20  2  0  0  0  0
 19 21  1  0  0  0  0
 21 22  1  0  0  0  0
 21 23  2  0  0  0  0
 23 24  1  0  0  0  0
 24 25  1  0  0  0  0
 24 29  2  0  0  0  0
 25 26  2  0  0  0  0
 26 27  1  0  0  0  0
 27 28  2  0  0  0  0
 28 29  1  0  0  0  0
M  END
>  <Index>
433

>  <ID>
HT0879

>  <class>
0

>  <apol>
63.217827

>  <ast_fraglike>
0

>  <ast_fraglike_ext>
0

>  <ast_violation>
2

>  <ast_violation_ext>
3

>  <a_acc>
3

>  <a_acid>
0

>  <a_aro>
12

>  <a_base>
0

>  <a_count>
54

>  <a_don>
0

>  <a_donacc>
3

>  <a_heavy>
29

>  <a_hyd>
22

>  <a_IC>
76.628418

>  <a_ICM>
1.4190449

>  <a_nB>
0

>  <a_nBr>
0

>  <a_nC>
24

>  <a_nCl>
0

>  <a_nF>
0

>  <a_nH>
25

>  <a_nI>
0

>  <a_nN>
1

>  <a_nO>
4

>  <a_nP>
0

>  <a_nS>
0

>  <balabanJ>
1.3527216

>  <BCUT_PEOE_0>
-2.7800403

>  <BCUT_PEOE_1>
-0.58654606

>  <BCUT_PEOE_2>
0.6417774

>  <BCUT_PEOE_3>
2.6930499

>  <BCUT_SLOGP_0>
-2.8040004

>  <BCUT_SLOGP_1>
-0.47890571

>  <BCUT_SLOGP_2>
0.74749184

>  <BCUT_SLOGP_3>
2.7387633

>  <BCUT_SMR_0>
-2.5102232

>  <BCUT_SMR_1>
-0.44100392

>  <BCUT_SMR_2>
0.79259014

>  <BCUT_SMR_3>
2.9572663

>  <bpol>
35.058174

>  <b_1rotN>
5

>  <b_1rotR>
0.15625

>  <b_ar>
12

>  <b_count>
57

>  <b_double>
3

>  <b_heavy>
32

>  <b_max1len>
3

>  <b_rotN>
6

>  <b_rotR>
0.1875

>  <b_single>
42

>  <b_triple>
0

>  <chi0>
20.216969

>  <chi0v>
16.648756

>  <chi0v_C>
14.568549

>  <chi0_C>
16.225405

>  <chi1>
14.147867

>  <chi1v>
10.16268

>  <chi1v_C>
7.9047008

>  <chi1_C>
10.043676

>  <chiral>
0

>  <chiral_u>
0

>  <density>
0.71844172

>  <diameter>
15

>  <FCharge>
0

>  <GCUT_PEOE_0>
-0.85221255

>  <GCUT_PEOE_1>
-0.39548284

>  <GCUT_PEOE_2>
0.066208795

>  <GCUT_PEOE_3>
2.6861117

>  <GCUT_SLOGP_0>
-0.95823604

>  <GCUT_SLOGP_1>
-0.26713726

>  <GCUT_SLOGP_2>
0.15276486

>  <GCUT_SLOGP_3>
2.7488825

>  <GCUT_SMR_0>
-0.52420789

>  <GCUT_SMR_1>
-0.19771065

>  <GCUT_SMR_2>
0.17482449

>  <GCUT_SMR_3>
2.9511306

>  <Kier1>
22.203125

>  <Kier2>
10.543388

>  <Kier3>
5.2577777

>  <KierA1>
16.984631

>  <KierA2>
7.9828677

>  <KierA3>
3.9508054

>  <KierFlex>
4.6753812

>  <lip_acc>
5

>  <lip_don>
0

>  <lip_druglike>
1

>  <lip_violation>
0

>  <logP(o/w)>
4.2849998

>  <logS>
-5.5992098

>  <mr>
11.23357

>  <mutagenic>
0

>  <nmol>
1

>  <opr_brigid>
23

>  <opr_leadlike>
1

>  <opr_nring>
4

>  <opr_nrot>
7

>  <opr_violation>
0

>  <PC+>
0

>  <PC->
0

>  <PEOE_PC+>
2.0727506

>  <PEOE_PC->
-2.0727506

>  <PEOE_RPC+>
0.14299349

>  <PEOE_RPC->
0.1496041

>  <PEOE_VSA+0>
81.590195

>  <PEOE_VSA+1>
70.480751

>  <PEOE_VSA+2>
8.458519

>  <PEOE_VSA+3>
8.458519

>  <PEOE_VSA+4>
0

>  <PEOE_VSA+5>
14.708499

>  <PEOE_VSA+6>
0

>  <PEOE_VSA-0>
87.044762

>  <PEOE_VSA-1>
82.230736

>  <PEOE_VSA-2>
0

>  <PEOE_VSA-3>
0

>  <PEOE_VSA-4>
0

>  <PEOE_VSA-5>
27.133842

>  <PEOE_VSA-6>
5.0075121

>  <PEOE_VSA_FHYD>
0.87834787

>  <PEOE_VSA_FNEG>
0.52300668

>  <PEOE_VSA_FPNEG>
0.083459467

>  <PEOE_VSA_FPOL>
0.12165212

>  <PEOE_VSA_FPOS>
0.47699332

>  <PEOE_VSA_FPPOS>
0.038192652

>  <PEOE_VSA_HYD>
338.26349

>  <PEOE_VSA_NEG>
201.41685

>  <PEOE_VSA_PNEG>
32.141354

>  <PEOE_VSA_POL>
46.849854

>  <PEOE_VSA_POS>
183.69649

>  <PEOE_VSA_PPOS>
14.708499

>  <petitjean>
0.46666667

>  <petitjeanSC>
0.875

>  <Q_PC+>
0

>  <Q_PC->
0

>  <Q_RPC+>
0

>  <Q_RPC->
0

>  <Q_VSA_FHYD>
1

>  <Q_VSA_FNEG>
0

>  <Q_VSA_FPNEG>
0

>  <Q_VSA_FPOL>
0

>  <Q_VSA_FPOS>
1

>  <Q_VSA_FPPOS>
0

>  <Q_VSA_HYD>
385.11334

>  <Q_VSA_NEG>
0

>  <Q_VSA_PNEG>
0

>  <Q_VSA_POL>
0

>  <Q_VSA_POS>
385.11334

>  <Q_VSA_PPOS>
0

>  <radius>
8

>  <reactive>
0

>  <rings>
4

>  <RPC+>
0

>  <RPC->
0

>  <rsynth>
1

>  <SlogP>
4.3355999

>  <SlogP_VSA0>
10.999887

>  <SlogP_VSA1>
16.557388

>  <SlogP_VSA2>
10.999887

>  <SlogP_VSA3>
76.244995

>  <SlogP_VSA4>
57.281158

>  <SlogP_VSA5>
3.185575

>  <SlogP_VSA6>
0

>  <SlogP_VSA7>
146.3889

>  <SlogP_VSA8>
56.605217

>  <SlogP_VSA9>
38.569443

>  <SMR>
11.101

>  <SMR_VSA0>
58.724319

>  <SMR_VSA1>
14.124202

>  <SMR_VSA2>
0

>  <SMR_VSA3>
17.985727

>  <SMR_VSA4>
5.2434282

>  <SMR_VSA5>
197.75069

>  <SMR_VSA6>
89.67807

>  <SMR_VSA7>
33.326015

>  <TPSA>
55.84

>  <VAdjEq>
0.38828552

>  <VAdjMa>
6

>  <VDistEq>
3.6380606

>  <VDistMa>
9.4165077

>  <vdw_area>
385.11334

>  <vdw_vol>
544.88342

>  <vsa_acc>
27.133842

>  <vsa_acid>
0

>  <vsa_base>
0

>  <vsa_don>
0

>  <vsa_hyd>
312.01007

>  <vsa_other>
28.17453

>  <vsa_pol>
27.133842

>  <Weight>
391.46698

>  <weinerPath>
2358

>  <weinerPol>
48

>  <zagreb>
152

$$$$