O1C[C@H]2[C@@H]([C@@H](c3c(cc4OCOc4c3)[C@H]2O[C@@H]2O[C@H]3[C@@H](O[C@@H](OC3)C)[C@H](O)[C@H]2O)c2cc(OC)c(O)c(OC)c2)C1=O
  MOE2013           2D

 42 48  0  0  1  0  0  0  0  0999 V2000
    0.0000    0.0000    0.0000 O   0  0  0  0  0  0  0  0  0  0  0  0
   -0.6460    1.3540    0.0000 C   0  0  0  0  0  0  0  0  0  0  0  0
    0.4430    2.3860    0.0000 C   0  0  1  0  0  0  0  0  0  0  0  0
    1.7610    1.6700    0.0000 C   0  0  1  0  0  0  0  0  0  0  0  0
    3.0400    2.4540    0.0000 C   0  0  1  0  0  0  0  0  0  0  0  0
    3.0010    3.9530    0.0000 C   0  0  0  0  0  0  0  0  0  0  0  0
    1.6830    4.6690    0.0000 C   0  0  0  0  0  0  0  0  0  0  0  0
    1.6440    6.1690    0.0000 C   0  0  0  0  0  0  0  0  0  0  0  0
    2.9230    6.9520    0.0000 C   0  0  0  0  0  0  0  0  0  0  0  0
    3.1960    8.4270    0.0000 O   0  0  0  0  0  0  0  0  0  0  0  0
    4.6830    8.6230    0.0000 C   0  0  0  0  0  0  0  0  0  0  0  0
    5.3290    7.2690    0.0000 O   0  0  0  0  0  0  0  0  0  0  0  0
    4.2410    6.2370    0.0000 C   0  0  0  0  0  0  0  0  0  0  0  0
    4.2800    4.7370    0.0000 C   0  0  0  0  0  0  0  0  0  0  0  0
    0.4040    3.8860    0.0000 C   0  0  1  0  0  0  0  0  0  0  0  0
   -0.9150    4.6020    0.0000 O   0  0  0  0  0  0  0  0  0  0  0  0
   -2.1940    3.8180    0.0000 C   0  0  2  0  0  0  0  0  0  0  0  0
   -2.1550    2.3190    0.0000 O   0  0  0  0  0  0  0  0  0  0  0  0
   -3.4340    1.5350    0.0000 C   0  0  1  0  0  0  0  0  0  0  0  0
   -4.7520    2.2510    0.0000 C   0  0  1  0  0  0  0  0  0  0  0  0
   -6.0310    1.4680    0.0000 O   0  0  0  0  0  0  0  0  0  0  0  0
   -5.9920   -0.0320    0.0000 C   0  0  1  0  0  0  0  0  0  0  0  0
   -4.6740   -0.7480    0.0000 O   0  0  0  0  0  0  0  0  0  0  0  0
   -3.3950    0.0360    0.0000 C   0  0  0  0  0  0  0  0  0  0  0  0
   -7.2710   -0.8160    0.0000 C   0  0  0  0  0  0  0  0  0  0  0  0
   -4.7910    3.7510    0.0000 C   0  0  2  0  0  0  0  0  0  0  0  0
   -6.1090    4.4670    0.0000 O   0  0  0  0  0  0  0  0  0  0  0  0
   -3.5120    4.5340    0.0000 C   0  0  1  0  0  0  0  0  0  0  0  0
   -3.5510    6.0340    0.0000 O   0  0  0  0  0  0  0  0  0  0  0  0
    4.3580    1.7380    0.0000 C   0  0  0  0  0  0  0  0  0  0  0  0
    5.6370    2.5220    0.0000 C   0  0  0  0  0  0  0  0  0  0  0  0
    6.9550    1.8060    0.0000 C   0  0  0  0  0  0  0  0  0  0  0  0
    8.2340    2.5890    0.0000 O   0  0  0  0  0  0  0  0  0  0  0  0
    9.5520    1.8730    0.0000 C   0  0  0  0  0  0  0  0  0  0  0  0
    6.9940    0.3060    0.0000 C   0  0  0  0  0  0  0  0  0  0  0  0
    8.3120   -0.4100    0.0000 O   0  0  0  0  0  0  0  0  0  0  0  0
    5.7150   -0.4770    0.0000 C   0  0  0  0  0  0  0  0  0  0  0  0
    5.7540   -1.9770    0.0000 O   0  0  0  0  0  0  0  0  0  0  0  0
    7.0720   -2.6930    0.0000 C   0  0  0  0  0  0  0  0  0  0  0  0
    4.3970    0.2390    0.0000 C   0  0  0  0  0  0  0  0  0  0  0  0
    1.4870    0.1960    0.0000 C   0  0  0  0  0  0  0  0  0  0  0  0
    2.5200   -0.8930    0.0000 O   0  0  0  0  0  0  0  0  0  0  0  0
  1  2  1  0  0  0  0
  1 41  1  0  0  0  0
  3  2  1  6  0  0  0
  3  4  1  0  0  0  0
  3 15  1  0  0  0  0
  4  5  1  0  0  0  0
  4 41  1  1  0  0  0
  5  6  1  0  0  0  0
  5 30  1  1  0  0  0
  6  7  2  0  0  0  0
  6 14  1  0  0  0  0
  7  8  1  0  0  0  0
  7 15  1  0  0  0  0
  8  9  2  0  0  0  0
  9 10  1  0  0  0  0
  9 13  1  0  0  0  0
 10 11  1  0  0  0  0
 11 12  1  0  0  0  0
 12 13  1  0  0  0  0
 13 14  2  0  0  0  0
 15 16  1  6  0  0  0
 17 16  1  6  0  0  0
 17 18  1  0  0  0  0
 17 28  1  0  0  0  0
 18 19  1  0  0  0  0
 19 20  1  0  0  0  0
 19 24  1  6  0  0  0
 20 21  1  1  0  0  0
 20 26  1  0  0  0  0
 21 22  1  0  0  0  0
 22 23  1  0  0  0  0
 22 25  1  1  0  0  0
 23 24  1  0  0  0  0
 26 27  1  6  0  0  0
 26 28  1  0  0  0  0
 28 29  1  1  0  0  0
 30 31  2  0  0  0  0
 30 40  1  0  0  0  0
 31 32  1  0  0  0  0
 32 33  1  0  0  0  0
 32 35  2  0  0  0  0
 33 34  1  0  0  0  0
 35 36  1  0  0  0  0
 35 37  1  0  0  0  0
 37 38  1  0  0  0  0
 37 40  2  0  0  0  0
 38 39  1  0  0  0  0
 41 42  2  0  0  0  0
M  END
>  <Index>
410

>  <ID>
HT0831

>  <class>
0

>  <apol>
82.803375

>  <ast_fraglike>
0

>  <ast_fraglike_ext>
0

>  <ast_violation>
2

>  <ast_violation_ext>
4

>  <a_acc>
12

>  <a_acid>
0

>  <a_aro>
12

>  <a_base>
0

>  <a_count>
74

>  <a_don>
3

>  <a_donacc>
15

>  <a_heavy>
42

>  <a_hyd>
25

>  <a_IC>
110.51238

>  <a_ICM>
1.4934106

>  <a_nB>
0

>  <a_nBr>
0

>  <a_nC>
29

>  <a_nCl>
0

>  <a_nF>
0

>  <a_nH>
32

>  <a_nI>
0

>  <a_nN>
0

>  <a_nO>
13

>  <a_nP>
0

>  <a_nS>
0

>  <balabanJ>
1.1944246

>  <BCUT_PEOE_0>
-2.7648318

>  <BCUT_PEOE_1>
-0.54594517

>  <BCUT_PEOE_2>
0.5486744

>  <BCUT_PEOE_3>
2.8345935

>  <BCUT_SLOGP_0>
-2.9285936

>  <BCUT_SLOGP_1>
-0.55429482

>  <BCUT_SLOGP_2>
0.53095204

>  <BCUT_SLOGP_3>
2.8155744

>  <BCUT_SMR_0>
-2.5589368

>  <BCUT_SMR_1>
-0.395872

>  <BCUT_SMR_2>
0.75291157

>  <BCUT_SMR_3>
3.0418901

>  <bpol>
53.184624

>  <b_1rotN>
5

>  <b_1rotR>
0.10416666

>  <b_ar>
12

>  <b_count>
80

>  <b_double>
1

>  <b_heavy>
48

>  <b_max1len>
4

>  <b_rotN>
5

>  <b_rotR>
0.10416666

>  <b_single>
67

>  <b_triple>
0

>  <chi0>
29.283363

>  <chi0v>
23.128347

>  <chi0v_C>
17.704224

>  <chi0_C>
18.919403

>  <chi1>
20.282427

>  <chi1v>
13.777144

>  <chi1v_C>
8.1912823

>  <chi1_C>
9.659833

>  <chiral>
10

>  <chiral_u>
0

>  <density>
0.82621723

>  <diameter>
16

>  <FCharge>
0

>  <GCUT_PEOE_0>
-0.78698456

>  <GCUT_PEOE_1>
-0.42686015

>  <GCUT_PEOE_2>
0.053126842

>  <GCUT_PEOE_3>
3.1662984

>  <GCUT_SLOGP_0>
-0.94859624

>  <GCUT_SLOGP_1>
-0.39393038

>  <GCUT_SLOGP_2>
0.072853506

>  <GCUT_SLOGP_3>
3.2064514

>  <GCUT_SMR_0>
-0.52788329

>  <GCUT_SMR_1>
-0.21748017

>  <GCUT_SMR_2>
0.13692473

>  <GCUT_SMR_3>
3.3969946

>  <Kier1>
30.643229

>  <Kier2>
12.310002

>  <Kier3>
5.3497944

>  <KierA1>
26.68926

>  <KierA2>
10.684064

>  <KierA3>
4.6318636

>  <KierFlex>
6.7892799

>  <lip_acc>
13

>  <lip_don>
3

>  <lip_druglike>
0

>  <lip_violation>
2

>  <logP(o/w)>
1.6160001

>  <logS>
-3.8203299

>  <mr>
14.026952

>  <mutagenic>
0

>  <nmol>
1

>  <opr_brigid>
36

>  <opr_leadlike>
0

>  <opr_nring>
7

>  <opr_nrot>
7

>  <opr_violation>
3

>  <PC+>
0

>  <PC->
0

>  <PEOE_PC+>
4.5877738

>  <PEOE_PC->
-4.5877738

>  <PEOE_RPC+>
0.058115941

>  <PEOE_RPC->
0.084221847

>  <PEOE_VSA+0>
75.587631

>  <PEOE_VSA+1>
132.91139

>  <PEOE_VSA+2>
61.912312

>  <PEOE_VSA+3>
43.511089

>  <PEOE_VSA+4>
30.972517

>  <PEOE_VSA+5>
14.708499

>  <PEOE_VSA+6>
0

>  <PEOE_VSA-0>
74.392914

>  <PEOE_VSA-1>
0

>  <PEOE_VSA-2>
0

>  <PEOE_VSA-3>
0

>  <PEOE_VSA-4>
0

>  <PEOE_VSA-5>
13.566921

>  <PEOE_VSA-6>
45.836426

>  <PEOE_VSA_FHYD>
0.78701979

>  <PEOE_VSA_FNEG>
0.27117217

>  <PEOE_VSA_FPNEG>
0.120396

>  <PEOE_VSA_FPOL>
0.2129802

>  <PEOE_VSA_FPOS>
0.72882783

>  <PEOE_VSA_FPPOS>
0.0925842

>  <PEOE_VSA_HYD>
388.31534

>  <PEOE_VSA_NEG>
133.79626

>  <PEOE_VSA_PNEG>
59.403347

>  <PEOE_VSA_POL>
105.08437

>  <PEOE_VSA_POS>
359.60345

>  <PEOE_VSA_PPOS>
45.681019

>  <petitjean>
0.5

>  <petitjeanSC>
1

>  <Q_PC+>
0

>  <Q_PC->
0

>  <Q_RPC+>
0

>  <Q_RPC->
0

>  <Q_VSA_FHYD>
1

>  <Q_VSA_FNEG>
0

>  <Q_VSA_FPNEG>
0

>  <Q_VSA_FPOL>
0

>  <Q_VSA_FPOS>
1

>  <Q_VSA_FPPOS>
0

>  <Q_VSA_HYD>
493.39969

>  <Q_VSA_NEG>
0

>  <Q_VSA_PNEG>
0

>  <Q_VSA_POL>
0

>  <Q_VSA_POS>
493.39969

>  <Q_VSA_PPOS>
0

>  <radius>
8

>  <reactive>
1

>  <rings>
7

>  <RPC+>
0

>  <RPC->
0

>  <rsynth>
0.40476191

>  <SlogP>
1.4341

>  <SlogP_VSA0>
120.15523

>  <SlogP_VSA1>
7.7454643

>  <SlogP_VSA2>
121.78926

>  <SlogP_VSA3>
64.836632

>  <SlogP_VSA4>
18.378317

>  <SlogP_VSA5>
70.767738

>  <SlogP_VSA6>
4.4107962

>  <SlogP_VSA7>
70.572739

>  <SlogP_VSA8>
6.4686494

>  <SlogP_VSA9>
59.543156

>  <SMR>
13.84564

>  <SMR_VSA0>
78.861656

>  <SMR_VSA1>
120.15523

>  <SMR_VSA2>
8.8215923

>  <SMR_VSA3>
89.58091

>  <SMR_VSA4>
0

>  <SMR_VSA5>
70.572739

>  <SMR_VSA6>
72.582092

>  <SMR_VSA7>
104.09375

>  <TPSA>
160.83

>  <VAdjEq>
0.30489132

>  <VAdjMa>
6.5849624

>  <VDistEq>
3.7000015

>  <VDistMa>
10.537218

>  <vdw_area>
493.39969

>  <vdw_vol>
712.35742

>  <vsa_acc>
33.59697

>  <vsa_acid>
0

>  <vsa_base>
0

>  <vsa_don>
0

>  <vsa_hyd>
305.91266

>  <vsa_other>
74.937706

>  <vsa_pol>
74.297729

>  <Weight>
588.56201

>  <weinerPath>
5464

>  <weinerPol>
83

>  <zagreb>
242

$$$$