OC(=O)CN
  MOE2013           2D

  5  4  0  0  0  0  0  0  0  0999 V2000
    0.0000    0.0000    0.0000 O   0  0  0  0  0  0  0  0  0  0  0  0
   -1.2990    0.7500    0.0000 C   0  0  0  0  0  0  0  0  0  0  0  0
   -1.2990    2.2500    0.0000 O   0  0  0  0  0  0  0  0  0  0  0  0
   -2.5980    0.0000    0.0000 C   0  0  0  0  0  0  0  0  0  0  0  0
   -3.8970    0.7500    0.0000 N   0  0  0  0  0  0  0  0  0  0  0  0
  1  2  1  0  0  0  0
  2  3  2  0  0  0  0
  2  4  1  0  0  0  0
  4  5  1  0  0  0  0
M  END
>  <Index>
499

>  <ID>
HT0997

>  <class>
0

>  <apol>
9.5579653

>  <ast_fraglike>
1

>  <ast_fraglike_ext>
1

>  <ast_violation>
0

>  <ast_violation_ext>
0

>  <a_acc>
3

>  <a_acid>
0

>  <a_aro>
0

>  <a_base>
0

>  <a_count>
10

>  <a_don>
3

>  <a_donacc>
6

>  <a_heavy>
5

>  <a_hyd>
1

>  <a_IC>
17.60964

>  <a_ICM>
1.760964

>  <a_nB>
0

>  <a_nBr>
0

>  <a_nC>
2

>  <a_nCl>
0

>  <a_nF>
0

>  <a_nH>
5

>  <a_nI>
0

>  <a_nN>
1

>  <a_nO>
2

>  <a_nP>
0

>  <a_nS>
0

>  <balabanJ>
2.6693285

>  <BCUT_PEOE_0>
-2.2764714

>  <BCUT_PEOE_1>
-0.51214796

>  <BCUT_PEOE_2>
0.45476073

>  <BCUT_PEOE_3>
2.2954617

>  <BCUT_SLOGP_0>
-2.6323569

>  <BCUT_SLOGP_1>
-0.48549107

>  <BCUT_SLOGP_2>
0.39176726

>  <BCUT_SLOGP_3>
2.0274134

>  <BCUT_SMR_0>
-2.0249918

>  <BCUT_SMR_1>
-0.30386326

>  <BCUT_SMR_2>
0.58196235

>  <BCUT_SMR_3>
2.5273945

>  <bpol>
5.7640352

>  <b_1rotN>
1

>  <b_1rotR>
0.25

>  <b_ar>
0

>  <b_count>
9

>  <b_double>
1

>  <b_heavy>
4

>  <b_max1len>
3

>  <b_rotN>
1

>  <b_rotR>
0.25

>  <b_single>
8

>  <b_triple>
0

>  <chi0>
4.2844572

>  <chi0v>
2.639919

>  <chi0v_C>
1.2071068

>  <chi0_C>
1.2844571

>  <chi1>
2.2700555

>  <chi1v>
1.1895326

>  <chi1v_C>
0.35355338

>  <chi1_C>
0.40824831

>  <chiral>
0

>  <chiral_u>
0

>  <density>
0.86158317

>  <diameter>
3

>  <FCharge>
0

>  <GCUT_PEOE_0>
-0.81376284

>  <GCUT_PEOE_1>
-0.45984453

>  <GCUT_PEOE_2>
0.10003087

>  <GCUT_PEOE_3>
1.6371068

>  <GCUT_SLOGP_0>
-1.3631796

>  <GCUT_SLOGP_1>
-0.47156569

>  <GCUT_SLOGP_2>
0.054200001

>  <GCUT_SLOGP_3>
1.448378

>  <GCUT_SMR_0>
-0.48159593

>  <GCUT_SMR_1>
-0.23528522

>  <GCUT_SMR_2>
0.20592061

>  <GCUT_SMR_3>
1.8489126

>  <Kier1>
5

>  <Kier2>
2.25

>  <Kier3>
4

>  <KierA1>
4.0214376

>  <KierA2>
1.6858125

>  <KierA3>
2.67325

>  <KierFlex>
1.3558779

>  <lip_acc>
3

>  <lip_don>
3

>  <lip_druglike>
1

>  <lip_violation>
0

>  <logP(o/w)>
-3.5197301

>  <logS>
0.72226

>  <mr>
1.6970668

>  <mutagenic>
0

>  <nmol>
1

>  <opr_brigid>
0

>  <opr_leadlike>
1

>  <opr_nring>
0

>  <opr_nrot>
1

>  <opr_violation>
0

>  <PC+>
0

>  <PC->
0

>  <PEOE_PC+>
0.91593093

>  <PEOE_PC->
-0.91593093

>  <PEOE_RPC+>
0.29845288

>  <PEOE_RPC->
0.36063033

>  <PEOE_VSA+0>
0

>  <PEOE_VSA+1>
21.723097

>  <PEOE_VSA+2>
17.238026

>  <PEOE_VSA+3>
0

>  <PEOE_VSA+4>
10.324173

>  <PEOE_VSA+5>
14.708499

>  <PEOE_VSA+6>
0

>  <PEOE_VSA-0>
0

>  <PEOE_VSA-1>
0

>  <PEOE_VSA-2>
0

>  <PEOE_VSA-3>
0

>  <PEOE_VSA-4>
0

>  <PEOE_VSA-5>
13.566921

>  <PEOE_VSA-6>
14.418659

>  <PEOE_VSA_FHYD>
0.42358541

>  <PEOE_VSA_FNEG>
0.3042593

>  <PEOE_VSA_FPNEG>
0.3042593

>  <PEOE_VSA_FPOL>
0.57641459

>  <PEOE_VSA_FPOS>
0.6957407

>  <PEOE_VSA_FPPOS>
0.27215528

>  <PEOE_VSA_HYD>
38.961124

>  <PEOE_VSA_NEG>
27.98558

>  <PEOE_VSA_PNEG>
27.98558

>  <PEOE_VSA_POL>
53.018253

>  <PEOE_VSA_POS>
63.993793

>  <PEOE_VSA_PPOS>
25.032671

>  <petitjean>
0.33333334

>  <petitjeanSC>
0.5

>  <Q_PC+>
0

>  <Q_PC->
0

>  <Q_RPC+>
0

>  <Q_RPC->
0

>  <Q_VSA_FHYD>
1

>  <Q_VSA_FNEG>
0

>  <Q_VSA_FPNEG>
0

>  <Q_VSA_FPOL>
0

>  <Q_VSA_FPOS>
1

>  <Q_VSA_FPPOS>
0

>  <Q_VSA_HYD>
91.979378

>  <Q_VSA_NEG>
0

>  <Q_VSA_PNEG>
0

>  <Q_VSA_POL>
0

>  <Q_VSA_POS>
91.979378

>  <Q_VSA_PPOS>
0

>  <radius>
2

>  <reactive>
0

>  <rings>
0

>  <RPC+>
0

>  <RPC->
0

>  <rsynth>
1

>  <SlogP>
-0.97030002

>  <SlogP_VSA0>
32.897186

>  <SlogP_VSA1>
7.7454643

>  <SlogP_VSA2>
23.862217

>  <SlogP_VSA3>
43.824806

>  <SlogP_VSA4>
0

>  <SlogP_VSA5>
0

>  <SlogP_VSA6>
0

>  <SlogP_VSA7>
0

>  <SlogP_VSA8>
0

>  <SlogP_VSA9>
0

>  <SMR>
1.6690201

>  <SMR_VSA0>
23.862217

>  <SMR_VSA1>
0

>  <SMR_VSA2>
25.385227

>  <SMR_VSA3>
0

>  <SMR_VSA4>
32.897186

>  <SMR_VSA5>
0

>  <SMR_VSA6>
26.185041

>  <SMR_VSA7>
0

>  <TPSA>
63.32

>  <VAdjEq>
0.90438145

>  <VAdjMa>
3

>  <VDistEq>
1.5219281

>  <VDistMa>
4.1971598

>  <vdw_area>
91.979378

>  <vdw_vol>
87.126816

>  <vsa_acc>
0

>  <vsa_acid>
0

>  <vsa_base>
0

>  <vsa_don>
0

>  <vsa_hyd>
20.299505

>  <vsa_other>
14.708499

>  <vsa_pol>
44.876331

>  <Weight>
75.067001

>  <weinerPath>
18

>  <weinerPol>
2

>  <zagreb>
16

$$$$