O1CC1
  MOE2013           2D

  3  3  0  0  0  0  0  0  0  0999 V2000
    0.0000    0.0000    0.0000 O   0  0  0  0  0  0  0  0  0  0  0  0
    0.7550    1.2960    0.0000 C   0  0  0  0  0  0  0  0  0  0  0  0
   -0.7450    1.3020    0.0000 C   0  0  0  0  0  0  0  0  0  0  0  0
  1  2  1  0  0  0  0
  1  3  1  0  0  0  0
  2  3  1  0  0  0  0
M  END
>  <Index>
403

>  <ID>
HT0819

>  <class>
0

>  <apol>
6.989172

>  <ast_fraglike>
1

>  <ast_fraglike_ext>
1

>  <ast_violation>
0

>  <ast_violation_ext>
0

>  <a_acc>
1

>  <a_acid>
0

>  <a_aro>
0

>  <a_base>
0

>  <a_count>
7

>  <a_don>
0

>  <a_donacc>
1

>  <a_heavy>
3

>  <a_hyd>
2

>  <a_IC>
9.6514845

>  <a_ICM>
1.3787835

>  <a_nB>
0

>  <a_nBr>
0

>  <a_nC>
2

>  <a_nCl>
0

>  <a_nF>
0

>  <a_nH>
4

>  <a_nI>
0

>  <a_nN>
0

>  <a_nO>
1

>  <a_nP>
0

>  <a_nS>
0

>  <balabanJ>
2.25

>  <BCUT_PEOE_0>
-1.933192

>  <BCUT_PEOE_1>
-0.14427702

>  <BCUT_PEOE_2>
0.058260176

>  <BCUT_PEOE_3>
2.5547957

>  <BCUT_SLOGP_0>
-2.1022682

>  <BCUT_SLOGP_1>
0.029056564

>  <BCUT_SLOGP_2>
0.123

>  <BCUT_SLOGP_3>
2.4500775

>  <BCUT_SMR_0>
-1.7834033

>  <BCUT_SMR_1>
0.1057

>  <BCUT_SMR_2>
0.10710057

>  <BCUT_SMR_3>
2.7747483

>  <bpol>
6.2888279

>  <b_1rotN>
0

>  <b_1rotR>
0

>  <b_ar>
0

>  <b_count>
7

>  <b_double>
0

>  <b_heavy>
3

>  <b_max1len>
2

>  <b_rotN>
0

>  <b_rotR>
0

>  <b_single>
7

>  <b_triple>
0

>  <chi0>
2.1213202

>  <chi0v>
1.8224618

>  <chi0v_C>
1.4142135

>  <chi0_C>
1.4142135

>  <chi1>
1.5

>  <chi1v>
1.0773503

>  <chi1v_C>
0.5

>  <chi1_C>
0.5

>  <chiral>
0

>  <chiral_u>
0

>  <density>
0.74014091

>  <diameter>
1

>  <FCharge>
0

>  <GCUT_PEOE_0>
-0.7216987

>  <GCUT_PEOE_1>
-0.32423845

>  <GCUT_PEOE_2>
-0.10173982

>  <GCUT_PEOE_3>
1.5359933

>  <GCUT_SLOGP_0>
-0.81531471

>  <GCUT_SLOGP_1>
-0.19447601

>  <GCUT_SLOGP_2>
-0.037

>  <GCUT_SLOGP_3>
1.4741932

>  <GCUT_SMR_0>
-0.44737878

>  <GCUT_SMR_1>
-0.093036972

>  <GCUT_SMR_2>
-0.054299999

>  <GCUT_SMR_3>
1.7236756

>  <Kier1>
1.3333334

>  <Kier2>
0.22222222

>  <Kier3>
0

>  <KierA1>
1.3333334

>  <KierA2>
0.22222222

>  <KierA3>
0

>  <KierFlex>
0.098765433

>  <lip_acc>
1

>  <lip_don>
0

>  <lip_druglike>
1

>  <lip_violation>
0

>  <logP(o/w)>
-0.14399999

>  <logS>
0.11798

>  <mr>
1.1625201

>  <mutagenic>
1

>  <nmol>
1

>  <opr_brigid>
3

>  <opr_leadlike>
1

>  <opr_nring>
1

>  <opr_nrot>
0

>  <opr_violation>
0

>  <PC+>
0

>  <PC->
0

>  <PEOE_PC+>
0.37524119

>  <PEOE_PC->
-0.37524119

>  <PEOE_RPC+>
0.18947878

>  <PEOE_RPC->
1

>  <PEOE_VSA+0>
0

>  <PEOE_VSA+1>
46.96413

>  <PEOE_VSA+2>
0

>  <PEOE_VSA+3>
0

>  <PEOE_VSA+4>
0

>  <PEOE_VSA+5>
0

>  <PEOE_VSA+6>
0

>  <PEOE_VSA-0>
0

>  <PEOE_VSA-1>
0

>  <PEOE_VSA-2>
0

>  <PEOE_VSA-3>
0

>  <PEOE_VSA-4>
0

>  <PEOE_VSA-5>
0

>  <PEOE_VSA-6>
2.503756

>  <PEOE_VSA_FHYD>
0.94938624

>  <PEOE_VSA_FNEG>
0.050613768

>  <PEOE_VSA_FPNEG>
0.050613768

>  <PEOE_VSA_FPOL>
0.050613768

>  <PEOE_VSA_FPOS>
0.94938624

>  <PEOE_VSA_FPPOS>
0

>  <PEOE_VSA_HYD>
46.96413

>  <PEOE_VSA_NEG>
2.503756

>  <PEOE_VSA_PNEG>
2.503756

>  <PEOE_VSA_POL>
2.503756

>  <PEOE_VSA_POS>
46.96413

>  <PEOE_VSA_PPOS>
0

>  <petitjean>
0

>  <petitjeanSC>
0

>  <Q_PC+>
0

>  <Q_PC->
0

>  <Q_RPC+>
0

>  <Q_RPC->
0

>  <Q_VSA_FHYD>
1

>  <Q_VSA_FNEG>
0

>  <Q_VSA_FPNEG>
0

>  <Q_VSA_FPOL>
0

>  <Q_VSA_FPOS>
1

>  <Q_VSA_FPPOS>
0

>  <Q_VSA_HYD>
49.467888

>  <Q_VSA_NEG>
0

>  <Q_VSA_PNEG>
0

>  <Q_VSA_POL>
0

>  <Q_VSA_POS>
49.467888

>  <Q_VSA_PPOS>
0

>  <radius>
1

>  <reactive>
1

>  <rings>
1

>  <RPC+>
0

>  <RPC->
0

>  <rsynth>
0

>  <SlogP>
0.0166

>  <SlogP_VSA0>
0

>  <SlogP_VSA1>
0

>  <SlogP_VSA2>
10.999887

>  <SlogP_VSA3>
41.852516

>  <SlogP_VSA4>
0

>  <SlogP_VSA5>
0

>  <SlogP_VSA6>
0

>  <SlogP_VSA7>
0

>  <SlogP_VSA8>
0

>  <SlogP_VSA9>
0

>  <SMR>
1.0819

>  <SMR_VSA0>
10.999887

>  <SMR_VSA1>
0

>  <SMR_VSA2>
0

>  <SMR_VSA3>
0

>  <SMR_VSA4>
0

>  <SMR_VSA5>
0

>  <SMR_VSA6>
41.852516

>  <SMR_VSA7>
0

>  <TPSA>
12.53

>  <VAdjEq>
0.91829586

>  <VAdjMa>
2.5849626

>  <VDistEq>
-0

>  <VDistMa>
2.5849626

>  <vdw_area>
49.467888

>  <vdw_vol>
59.519745

>  <vsa_acc>
2.503756

>  <vsa_acid>
0

>  <vsa_base>
0

>  <vsa_don>
0

>  <vsa_hyd>
44.116947

>  <vsa_other>
0

>  <vsa_pol>
2.503756

>  <Weight>
44.052998

>  <weinerPath>
3

>  <weinerPol>
0

>  <zagreb>
12

$$$$