OC(CC#N)C=C
  MOE2013           2D

  7  6  0  0  1  0  0  0  0  0999 V2000
    0.0000    0.0000    0.0000 O   0  0  0  0  0  0  0  0  0  0  0  0
    0.7600   -1.2930    0.0000 C   0  0  3  0  0  0  0  0  0  0  0  0
    0.0200   -2.5980    0.0000 C   0  0  0  0  0  0  0  0  0  0  0  0
   -1.4800   -2.6100    0.0000 C   0  0  0  0  0  0  0  0  0  0  0  0
   -2.9800   -2.6210    0.0000 N   0  0  0  0  0  0  0  0  0  0  0  0
    2.2600   -1.2810    0.0000 C   0  0  0  0  0  0  0  0  0  0  0  0
    3.0000    0.0230    0.0000 C   0  0  0  0  0  0  0  0  0  0  0  0
  1  2  1  0  0  0  0
  2  3  1  0  0  0  0
  2  6  1  0  0  0  0
  3  4  1  0  0  0  0
  4  5  3  0  0  0  0
  6  7  2  0  0  0  0
M  END
>  <Index>
5

>  <ID>
HT0026

>  <class>
0

>  <apol>
15.369551

>  <ast_fraglike>
1

>  <ast_fraglike_ext>
1

>  <ast_violation>
0

>  <ast_violation_ext>
0

>  <a_acc>
2

>  <a_acid>
0

>  <a_aro>
0

>  <a_base>
0

>  <a_count>
14

>  <a_don>
1

>  <a_donacc>
3

>  <a_heavy>
7

>  <a_hyd>
4

>  <a_IC>
22.041843

>  <a_ICM>
1.5744175

>  <a_nB>
0

>  <a_nBr>
0

>  <a_nC>
5

>  <a_nCl>
0

>  <a_nF>
0

>  <a_nH>
7

>  <a_nI>
0

>  <a_nN>
1

>  <a_nO>
1

>  <a_nP>
0

>  <a_nS>
0

>  <balabanJ>
2.8835008

>  <BCUT_PEOE_0>
-2.3951018

>  <BCUT_PEOE_1>
-0.5142169

>  <BCUT_PEOE_2>
0.51706421

>  <BCUT_PEOE_3>
2.4270115

>  <BCUT_SLOGP_0>
-2.4381857

>  <BCUT_SLOGP_1>
-0.4610509

>  <BCUT_SLOGP_2>
0.49282691

>  <BCUT_SLOGP_3>
2.4077077

>  <BCUT_SMR_0>
-2.1685779

>  <BCUT_SMR_1>
-0.31789297

>  <BCUT_SMR_2>
0.6874404

>  <BCUT_SMR_3>
2.6457658

>  <bpol>
8.3124495

>  <b_1rotN>
2

>  <b_1rotR>
0.33333334

>  <b_ar>
0

>  <b_count>
13

>  <b_double>
1

>  <b_heavy>
6

>  <b_max1len>
4

>  <b_rotN>
3

>  <b_rotR>
0.5

>  <b_single>
11

>  <b_triple>
1

>  <chi0>
5.6986704

>  <chi0v>
3.9633412

>  <chi0v_C>
3.0689142

>  <chi0_C>
3.6986706

>  <chi1>
3.3080604

>  <chi1v>
1.985189

>  <chi1v_C>
1.5033833

>  <chi1_C>
2.0236034

>  <chiral>
1

>  <chiral_u>
1

>  <density>
0.69536471

>  <diameter>
5

>  <FCharge>
0

>  <GCUT_PEOE_0>
-0.78588641

>  <GCUT_PEOE_1>
-0.41215536

>  <GCUT_PEOE_2>
0.10025649

>  <GCUT_PEOE_3>
1.8810176

>  <GCUT_SLOGP_0>
-0.87395614

>  <GCUT_SLOGP_1>
-0.32739279

>  <GCUT_SLOGP_2>
0.11680021

>  <GCUT_SLOGP_3>
1.9052135

>  <GCUT_SMR_0>
-0.50747335

>  <GCUT_SMR_1>
-0.18832147

>  <GCUT_SMR_2>
0.2573016

>  <GCUT_SMR_3>
2.1067221

>  <Kier1>
7

>  <Kier2>
4.1666665

>  <Kier3>
3.8399999

>  <KierA1>
4.8110881

>  <KierA2>
2.651566

>  <KierA3>
2.236047

>  <KierFlex>
1.8224169

>  <lip_acc>
2

>  <lip_don>
1

>  <lip_druglike>
1

>  <lip_violation>
0

>  <logP(o/w)>
-0.045000002

>  <logS>
-0.14352

>  <mr>
2.8351529

>  <mutagenic>
0

>  <nmol>
1

>  <opr_brigid>
1

>  <opr_leadlike>
1

>  <opr_nring>
0

>  <opr_nrot>
3

>  <opr_violation>
0

>  <PC+>
0

>  <PC->
0

>  <PEOE_PC+>
0.74548835

>  <PEOE_PC->
-0.74548835

>  <PEOE_RPC+>
0.28202495

>  <PEOE_RPC->
0.51882267

>  <PEOE_VSA+0>
8.5307722

>  <PEOE_VSA+1>
50.967293

>  <PEOE_VSA+2>
0

>  <PEOE_VSA+3>
0

>  <PEOE_VSA+4>
10.324173

>  <PEOE_VSA+5>
0

>  <PEOE_VSA+6>
0

>  <PEOE_VSA-0>
0

>  <PEOE_VSA-1>
12.254904

>  <PEOE_VSA-2>
22.301268

>  <PEOE_VSA-3>
17.742489

>  <PEOE_VSA-4>
0

>  <PEOE_VSA-5>
0

>  <PEOE_VSA-6>
7.7675405

>  <PEOE_VSA_FHYD>
0.86071342

>  <PEOE_VSA_FNEG>
0.46244457

>  <PEOE_VSA_FPNEG>
0.059801631

>  <PEOE_VSA_FPOL>
0.13928655

>  <PEOE_VSA_FPOS>
0.53755546

>  <PEOE_VSA_FPPOS>
0.079484925

>  <PEOE_VSA_HYD>
111.79672

>  <PEOE_VSA_NEG>
60.0662

>  <PEOE_VSA_PNEG>
7.7675405

>  <PEOE_VSA_POL>
18.091713

>  <PEOE_VSA_POS>
69.822235

>  <PEOE_VSA_PPOS>
10.324173

>  <petitjean>
0.40000001

>  <petitjeanSC>
0.66666669

>  <Q_PC+>
0

>  <Q_PC->
0

>  <Q_RPC+>
0

>  <Q_RPC->
0

>  <Q_VSA_FHYD>
1

>  <Q_VSA_FNEG>
0

>  <Q_VSA_FPNEG>
0

>  <Q_VSA_FPOL>
0

>  <Q_VSA_FPOS>
1

>  <Q_VSA_FPPOS>
0

>  <Q_VSA_HYD>
129.88844

>  <Q_VSA_NEG>
0

>  <Q_VSA_PNEG>
0

>  <Q_VSA_POL>
0

>  <Q_VSA_POS>
129.88844

>  <Q_VSA_PPOS>
0

>  <radius>
3

>  <reactive>
0

>  <rings>
0

>  <RPC+>
0

>  <RPC->
0

>  <rsynth>
0

>  <SlogP>
0.44698399

>  <SlogP_VSA0>
25.385227

>  <SlogP_VSA1>
0

>  <SlogP_VSA2>
6.4686494

>  <SlogP_VSA3>
47.661102

>  <SlogP_VSA4>
0

>  <SlogP_VSA5>
0

>  <SlogP_VSA6>
0

>  <SlogP_VSA7>
17.643185

>  <SlogP_VSA8>
18.868406

>  <SlogP_VSA9>
32.100792

>  <SMR>
2.6433799

>  <SMR_VSA0>
0

>  <SMR_VSA1>
56.444584

>  <SMR_VSA2>
0

>  <SMR_VSA3>
23.070396

>  <SMR_VSA4>
0

>  <SMR_VSA5>
36.511589

>  <SMR_VSA6>
0

>  <SMR_VSA7>
32.100792

>  <TPSA>
44.02

>  <VAdjEq>
0.80309099

>  <VAdjMa>
3.5849626

>  <VDistEq>
2.1359327

>  <VDistMa>
5.2161746

>  <vdw_area>
129.88844

>  <vdw_vol>
139.66339

>  <vsa_acc>
17.742489

>  <vsa_acid>
0

>  <vsa_base>
0

>  <vsa_don>
0

>  <vsa_hyd>
69.483955

>  <vsa_other>
20.299505

>  <vsa_pol>
31.30941

>  <Weight>
97.116997

>  <weinerPath>
50

>  <weinerPol>
5

>  <zagreb>
24

$$$$