O1[C@@H]2[C@@]3(CCN(Cc4c3c1c(OC)cc4)C)C=C[C@H](O)C2
  MOE2013           2D

 21 24  0  0  1  0  0  0  0  0999 V2000
    0.0000    0.0000    0.0000 O   0  0  0  0  0  0  0  0  0  0  0  0
   -1.3380    0.6190    0.0000 C   0  0  2  0  0  0  0  0  0  0  0  0
   -1.2530    2.1290    0.0000 C   0  0  2  0  0  0  0  0  0  0  0  0
   -2.0740    3.4480    0.0000 C   0  0  0  0  0  0  0  0  0  0  0  0
   -1.8940    4.8560    0.0000 C   0  0  0  0  0  0  0  0  0  0  0  0
   -0.6620    5.7450    0.0000 N   0  0  3  0  0  0  0  0  0  0  0  0
    0.7390    5.1230    0.0000 C   0  0  0  0  0  0  0  0  0  0  0  0
    1.0320    3.6830    0.0000 C   0  0  0  0  0  0  0  0  0  0  0  0
    0.2710    2.4030    0.0000 C   0  0  0  0  0  0  0  0  0  0  0  0
    1.0040    1.0990    0.0000 C   0  0  0  0  0  0  0  0  0  0  0  0
    2.5060    1.0750    0.0000 C   0  0  0  0  0  0  0  0  0  0  0  0
    3.2380   -0.2340    0.0000 O   0  0  0  0  0  0  0  0  0  0  0  0
    4.7380   -0.2540    0.0000 C   0  0  0  0  0  0  0  0  0  0  0  0
    3.2700    2.3670    0.0000 C   0  0  0  0  0  0  0  0  0  0  0  0
    2.5360    3.6750    0.0000 C   0  0  0  0  0  0  0  0  0  0  0  0
   -0.8180    7.2360    0.0000 C   0  0  0  0  0  0  0  0  0  0  0  0
   -2.5510    2.9060    0.0000 C   0  0  0  0  0  0  0  0  0  0  0  0
   -3.8670    2.2150    0.0000 C   0  0  0  0  0  0  0  0  0  0  0  0
   -3.9200    0.7170    0.0000 C   0  0  2  0  0  0  0  0  0  0  0  0
   -5.2460    0.0150    0.0000 O   0  0  0  0  0  0  0  0  0  0  0  0
   -2.6520   -0.0830    0.0000 C   0  0  0  0  0  0  0  0  0  0  0  0
  1 10  1  0  0  0  0
  2  1  1  1  0  0  0
  2  3  1  0  0  0  0
  2 21  1  0  0  0  0
  3  4  1  6  0  0  0
  3  9  1  1  0  0  0
  3 17  1  0  0  0  0
  4  5  1  0  0  0  0
  5  6  1  0  0  0  0
  6  7  1  0  0  0  0
  6 16  1  0  0  0  0
  7  8  1  0  0  0  0
  8  9  1  0  0  0  0
  8 15  2  0  0  0  0
  9 10  2  0  0  0  0
 10 11  1  0  0  0  0
 11 12  1  0  0  0  0
 11 14  2  0  0  0  0
 12 13  1  0  0  0  0
 14 15  1  0  0  0  0
 17 18  2  0  0  0  0
 18 19  1  0  0  0  0
 19 20  1  1  0  0  0
 19 21  1  0  0  0  0
M  END
>  <Index>
476

>  <ID>
HT0959

>  <class>
0

>  <apol>
47.428654

>  <ast_fraglike>
0

>  <ast_fraglike_ext>
0

>  <ast_violation>
1

>  <ast_violation_ext>
1

>  <a_acc>
4

>  <a_acid>
0

>  <a_aro>
6

>  <a_base>
0

>  <a_count>
42

>  <a_don>
1

>  <a_donacc>
5

>  <a_heavy>
21

>  <a_hyd>
17

>  <a_IC>
59.99691

>  <a_ICM>
1.4284979

>  <a_nB>
0

>  <a_nBr>
0

>  <a_nC>
17

>  <a_nCl>
0

>  <a_nF>
0

>  <a_nH>
21

>  <a_nI>
0

>  <a_nN>
1

>  <a_nO>
3

>  <a_nP>
0

>  <a_nS>
0

>  <balabanJ>
1.7225293

>  <BCUT_PEOE_0>
-2.7041597

>  <BCUT_PEOE_1>
-0.47642598

>  <BCUT_PEOE_2>
0.54436255

>  <BCUT_PEOE_3>
2.7775531

>  <BCUT_SLOGP_0>
-2.7477052

>  <BCUT_SLOGP_1>
-0.46507743

>  <BCUT_SLOGP_2>
0.52923244

>  <BCUT_SLOGP_3>
2.7859082

>  <BCUT_SMR_0>
-2.4587169

>  <BCUT_SMR_1>
-0.34871536

>  <BCUT_SMR_2>
0.65851974

>  <BCUT_SMR_3>
3.0322688

>  <bpol>
28.769346

>  <b_1rotN>
1

>  <b_1rotR>
0.041666668

>  <b_ar>
6

>  <b_count>
45

>  <b_double>
1

>  <b_heavy>
24

>  <b_max1len>
3

>  <b_rotN>
1

>  <b_rotR>
0.041666668

>  <b_single>
38

>  <b_triple>
0

>  <chi0>
14.612519

>  <chi0v>
12.503452

>  <chi0v_C>
10.792529

>  <chi0_C>
11.620955

>  <chi1>
10.136995

>  <chi1v>
7.5683708

>  <chi1v_C>
5.1783037

>  <chi1_C>
6.2339468

>  <chiral>
3

>  <chiral_u>
0

>  <density>
0.72246343

>  <diameter>
8

>  <FCharge>
0

>  <GCUT_PEOE_0>
-0.85544312

>  <GCUT_PEOE_1>
-0.37100273

>  <GCUT_PEOE_2>
0.018784031

>  <GCUT_PEOE_3>
2.9391599

>  <GCUT_SLOGP_0>
-0.92627329

>  <GCUT_SLOGP_1>
-0.3119356

>  <GCUT_SLOGP_2>
0.045338798

>  <GCUT_SLOGP_3>
3.0084636

>  <GCUT_SMR_0>
-0.52130651

>  <GCUT_SMR_1>
-0.19173624

>  <GCUT_SMR_2>
0.13663431

>  <GCUT_SMR_3>
3.1943612

>  <Kier1>
14.583333

>  <Kier2>
5.2739224

>  <Kier3>
2.1421487

>  <KierA1>
12.457036

>  <KierA2>
4.4673252

>  <KierA3>
1.802871

>  <KierFlex>
2.6499822

>  <lip_acc>
4

>  <lip_don>
1

>  <lip_druglike>
1

>  <lip_violation>
0

>  <logP(o/w)>
2.4909999

>  <logS>
-2.29458

>  <mr>
7.9711399

>  <mutagenic>
0

>  <nmol>
1

>  <opr_brigid>
20

>  <opr_leadlike>
1

>  <opr_nring>
4

>  <opr_nrot>
1

>  <opr_violation>
0

>  <PC+>
0

>  <PC->
0

>  <PEOE_PC+>
1.6497313

>  <PEOE_PC->
-1.6497313

>  <PEOE_RPC+>
0.12741938

>  <PEOE_RPC->
0.23499697

>  <PEOE_VSA+0>
109.2114

>  <PEOE_VSA+1>
48.19833

>  <PEOE_VSA+2>
16.917038

>  <PEOE_VSA+3>
0

>  <PEOE_VSA+4>
10.324173

>  <PEOE_VSA+5>
0

>  <PEOE_VSA+6>
0

>  <PEOE_VSA-0>
46.403446

>  <PEOE_VSA-1>
36.764713

>  <PEOE_VSA-2>
0

>  <PEOE_VSA-3>
0

>  <PEOE_VSA-4>
0

>  <PEOE_VSA-5>
0

>  <PEOE_VSA-6>
12.775052

>  <PEOE_VSA_FHYD>
0.91767746

>  <PEOE_VSA_FNEG>
0.34192875

>  <PEOE_VSA_FPNEG>
0.045528576

>  <PEOE_VSA_FPOL>
0.082322545

>  <PEOE_VSA_FPOS>
0.65807128

>  <PEOE_VSA_FPPOS>
0.03679397

>  <PEOE_VSA_HYD>
257.49493

>  <PEOE_VSA_NEG>
95.943207

>  <PEOE_VSA_PNEG>
12.775052

>  <PEOE_VSA_POL>
23.099226

>  <PEOE_VSA_POS>
184.65096

>  <PEOE_VSA_PPOS>
10.324173

>  <petitjean>
0.375

>  <petitjeanSC>
0.60000002

>  <Q_PC+>
0

>  <Q_PC->
0

>  <Q_RPC+>
0

>  <Q_RPC->
0

>  <Q_VSA_FHYD>
1

>  <Q_VSA_FNEG>
0

>  <Q_VSA_FPNEG>
0

>  <Q_VSA_FPOL>
0

>  <Q_VSA_FPOS>
1

>  <Q_VSA_FPPOS>
0

>  <Q_VSA_HYD>
280.59415

>  <Q_VSA_NEG>
0

>  <Q_VSA_PNEG>
0

>  <Q_VSA_POL>
0

>  <Q_VSA_POS>
280.59415

>  <Q_VSA_PPOS>
0

>  <radius>
5

>  <reactive>
0

>  <rings>
4

>  <RPC+>
0

>  <RPC->
0

>  <rsynth>
1

>  <SlogP>
2.1166999

>  <SlogP_VSA0>
47.385002

>  <SlogP_VSA1>
3.1243138

>  <SlogP_VSA2>
12.937299

>  <SlogP_VSA3>
18.439579

>  <SlogP_VSA4>
6.37115

>  <SlogP_VSA5>
68.281059

>  <SlogP_VSA6>
0

>  <SlogP_VSA7>
70.572739

>  <SlogP_VSA8>
37.736813

>  <SlogP_VSA9>
28.926434

>  <SMR>
8.0007801

>  <SMR_VSA0>
0

>  <SMR_VSA1>
50.509315

>  <SMR_VSA2>
0

>  <SMR_VSA3>
29.795305

>  <SMR_VSA4>
0

>  <SMR_VSA5>
126.74912

>  <SMR_VSA6>
18.439579

>  <SMR_VSA7>
68.281059

>  <TPSA>
41.93

>  <VAdjEq>
0.49641782

>  <VAdjMa>
5.5849624

>  <VDistEq>
2.7680156

>  <VDistMa>
8.5427208

>  <vdw_area>
280.59415

>  <vdw_vol>
397.74884

>  <vsa_acc>
5.0075121

>  <vsa_acid>
0

>  <vsa_base>
0

>  <vsa_don>
0

>  <vsa_hyd>
243.25903

>  <vsa_other>
0

>  <vsa_pol>
18.574432

>  <Weight>
287.35898

>  <weinerPath>
766

>  <weinerPol>
44

>  <zagreb>
122

$$$$