SCC(NC(=O)CCC(N)C(O)=O)C(=O)NCC(O)=O
  MOE2013           2D

 20 19  0  0  1  0  0  0  0  0999 V2000
    0.0000    0.0000    0.0000 S   0  0  0  0  0  0  0  0  0  0  0  0
   -0.7430   -1.3030    0.0000 C   0  0  0  0  0  0  0  0  0  0  0  0
    0.0140   -2.5980    0.0000 C   0  0  3  0  0  0  0  0  0  0  0  0
   -0.7290   -3.9010    0.0000 N   0  0  0  0  0  0  0  0  0  0  0  0
   -2.2290   -3.9090    0.0000 C   0  0  0  0  0  0  0  0  0  0  0  0
   -2.9860   -2.6140    0.0000 O   0  0  0  0  0  0  0  0  0  0  0  0
   -2.9720   -5.2120    0.0000 C   0  0  0  0  0  0  0  0  0  0  0  0
   -4.4720   -5.2200    0.0000 C   0  0  0  0  0  0  0  0  0  0  0  0
   -5.2150   -6.5230    0.0000 C   0  0  3  0  0  0  0  0  0  0  0  0
   -4.4580   -7.8180    0.0000 N   0  0  0  0  0  0  0  0  0  0  0  0
   -6.7150   -6.5310    0.0000 C   0  0  0  0  0  0  0  0  0  0  0  0
   -7.4720   -5.2360    0.0000 O   0  0  0  0  0  0  0  0  0  0  0  0
   -7.4580   -7.8340    0.0000 O   0  0  0  0  0  0  0  0  0  0  0  0
    1.5140   -2.5900    0.0000 C   0  0  0  0  0  0  0  0  0  0  0  0
    2.2570   -1.2870    0.0000 O   0  0  0  0  0  0  0  0  0  0  0  0
    2.2710   -3.8850    0.0000 N   0  0  0  0  0  0  0  0  0  0  0  0
    3.7710   -3.8770    0.0000 C   0  0  0  0  0  0  0  0  0  0  0  0
    4.5280   -5.1720    0.0000 C   0  0  0  0  0  0  0  0  0  0  0  0
    3.7850   -6.4750    0.0000 O   0  0  0  0  0  0  0  0  0  0  0  0
    6.0280   -5.1640    0.0000 O   0  0  0  0  0  0  0  0  0  0  0  0
  1  2  1  0  0  0  0
  2  3  1  0  0  0  0
  3  4  1  0  0  0  0
  3 14  1  0  0  0  0
  4  5  1  0  0  0  0
  5  6  2  0  0  0  0
  5  7  1  0  0  0  0
  7  8  1  0  0  0  0
  8  9  1  0  0  0  0
  9 10  1  0  0  0  0
  9 11  1  0  0  0  0
 11 12  1  0  0  0  0
 11 13  2  0  0  0  0
 14 15  2  0  0  0  0
 14 16  1  0  0  0  0
 16 17  1  0  0  0  0
 17 18  1  0  0  0  0
 18 19  1  0  0  0  0
 18 20  2  0  0  0  0
M  END
>  <Index>
496

>  <ID>
HT0993

>  <class>
0

>  <apol>
39.947479

>  <ast_fraglike>
0

>  <ast_fraglike_ext>
0

>  <ast_violation>
3

>  <ast_violation_ext>
5

>  <a_acc>
7

>  <a_acid>
0

>  <a_aro>
0

>  <a_base>
0

>  <a_count>
37

>  <a_don>
7

>  <a_donacc>
14

>  <a_heavy>
20

>  <a_hyd>
6

>  <a_IC>
69.778961

>  <a_ICM>
1.8859179

>  <a_nB>
0

>  <a_nBr>
0

>  <a_nC>
10

>  <a_nCl>
0

>  <a_nF>
0

>  <a_nH>
17

>  <a_nI>
0

>  <a_nN>
3

>  <a_nO>
6

>  <a_nP>
0

>  <a_nS>
1

>  <balabanJ>
4.0822077

>  <BCUT_PEOE_0>
-2.5699883

>  <BCUT_PEOE_1>
-0.54507238

>  <BCUT_PEOE_2>
0.46013001

>  <BCUT_PEOE_3>
2.6069305

>  <BCUT_SLOGP_0>
-2.8005908

>  <BCUT_SLOGP_1>
-0.53931171

>  <BCUT_SLOGP_2>
0.39200881

>  <BCUT_SLOGP_3>
2.5425394

>  <BCUT_SMR_0>
-2.3240871

>  <BCUT_SMR_1>
-0.32326776

>  <BCUT_SMR_2>
0.59861171

>  <BCUT_SMR_3>
2.8548388

>  <bpol>
25.35652

>  <b_1rotN>
9

>  <b_1rotR>
0.47368422

>  <b_ar>
0

>  <b_count>
36

>  <b_double>
4

>  <b_heavy>
19

>  <b_max1len>
5

>  <b_rotN>
11

>  <b_rotR>
0.57894737

>  <b_single>
32

>  <b_triple>
0

>  <chi0>
15.706742

>  <chi0v>
11.429539

>  <chi0v_C>
5.9831276

>  <chi0_C>
6.2925286

>  <chi1>
9.2729635

>  <chi1v>
6.288909

>  <chi1v_C>
2.6009536

>  <chi1_C>
2.7996597

>  <chiral>
2

>  <chiral_u>
2

>  <density>
0.88182038

>  <diameter>
12

>  <FCharge>
0

>  <GCUT_PEOE_0>
-0.81883186

>  <GCUT_PEOE_1>
-0.47027901

>  <GCUT_PEOE_2>
0.10231402

>  <GCUT_PEOE_3>
2.449712

>  <GCUT_SLOGP_0>
-1.3635315

>  <GCUT_SLOGP_1>
-0.45444751

>  <GCUT_SLOGP_2>
0.054200001

>  <GCUT_SLOGP_3>
2.3381529

>  <GCUT_SMR_0>
-0.51367706

>  <GCUT_SMR_1>
-0.23356244

>  <GCUT_SMR_2>
0.21373516

>  <GCUT_SMR_3>
2.6880689

>  <Kier1>
20

>  <Kier2>
10.6875

>  <Kier3>
9.5625

>  <KierA1>
16.941185

>  <KierA2>
8.9688244

>  <KierA3>
7.9700694

>  <KierFlex>
7.597126

>  <lip_acc>
9

>  <lip_don>
6

>  <lip_druglike>
1

>  <lip_violation>
1

>  <logP(o/w)>
-4.5377302

>  <logS>
-0.69086999

>  <mr>
7.177691

>  <mutagenic>
0

>  <nmol>
1

>  <opr_brigid>
0

>  <opr_leadlike>
0

>  <opr_nring>
0

>  <opr_nrot>
9

>  <opr_violation>
2

>  <PC+>
0

>  <PC->
0

>  <PEOE_PC+>
2.9347806

>  <PEOE_PC->
-2.9347806

>  <PEOE_RPC+>
0.095064193

>  <PEOE_RPC->
0.11755705

>  <PEOE_VSA+0>
44.971004

>  <PEOE_VSA+1>
20.207504

>  <PEOE_VSA+2>
41.35741

>  <PEOE_VSA+3>
17.238026

>  <PEOE_VSA+4>
46.547409

>  <PEOE_VSA+5>
29.416998

>  <PEOE_VSA+6>
0

>  <PEOE_VSA-0>
8.701313

>  <PEOE_VSA-1>
0

>  <PEOE_VSA-2>
0

>  <PEOE_VSA-3>
26.362989

>  <PEOE_VSA-4>
0

>  <PEOE_VSA-5>
54.267685

>  <PEOE_VSA-6>
22.459982

>  <PEOE_VSA_FHYD>
0.50986451

>  <PEOE_VSA_FNEG>
0.3588478

>  <PEOE_VSA_FPNEG>
0.24629277

>  <PEOE_VSA_FPOL>
0.49013552

>  <PEOE_VSA_FPOS>
0.6411522

>  <PEOE_VSA_FPPOS>
0.24384274

>  <PEOE_VSA_HYD>
158.83824

>  <PEOE_VSA_NEG>
111.79197

>  <PEOE_VSA_PNEG>
76.727669

>  <PEOE_VSA_POL>
152.69208

>  <PEOE_VSA_POS>
199.73834

>  <PEOE_VSA_PPOS>
75.964409

>  <petitjean>
0.5

>  <petitjeanSC>
1

>  <Q_PC+>
0

>  <Q_PC->
0

>  <Q_RPC+>
0

>  <Q_RPC->
0

>  <Q_VSA_FHYD>
1

>  <Q_VSA_FNEG>
0

>  <Q_VSA_FPNEG>
0

>  <Q_VSA_FPOL>
0

>  <Q_VSA_FPOS>
1

>  <Q_VSA_FPPOS>
0

>  <Q_VSA_HYD>
311.5303

>  <Q_VSA_NEG>
0

>  <Q_VSA_PNEG>
0

>  <Q_VSA_POL>
0

>  <Q_VSA_POS>
311.5303

>  <Q_VSA_PPOS>
0

>  <radius>
6

>  <reactive>
1

>  <rings>
0

>  <RPC+>
0

>  <RPC->
0

>  <rsynth>
1

>  <SlogP>
-2.2061

>  <SlogP_VSA0>
68.918686

>  <SlogP_VSA1>
26.008495

>  <SlogP_VSA2>
103.4128

>  <SlogP_VSA3>
86.443596

>  <SlogP_VSA4>
0

>  <SlogP_VSA5>
0

>  <SlogP_VSA6>
0

>  <SlogP_VSA7>
0

>  <SlogP_VSA8>
83.843925

>  <SlogP_VSA9>
0

>  <SMR>
7.1275401

>  <SMR_VSA0>
95.448868

>  <SMR_VSA1>
0

>  <SMR_VSA2>
86.791954

>  <SMR_VSA3>
7.9639373

>  <SMR_VSA4>
32.897186

>  <SMR_VSA5>
37.736813

>  <SMR_VSA6>
61.681637

>  <SMR_VSA7>
46.107109

>  <TPSA>
197.62

>  <VAdjEq>
0.45294255

>  <VAdjMa>
5.2479277

>  <VDistEq>
3.4186864

>  <VDistMa>
8.3282089

>  <vdw_area>
311.5303

>  <vdw_vol>
348.51428

>  <vsa_acc>
27.133842

>  <vsa_acid>
0

>  <vsa_base>
0

>  <vsa_don>
11.365152

>  <vsa_hyd>
83.100151

>  <vsa_other>
86.700569

>  <vsa_pol>
110.50917

>  <Weight>
307.327

>  <weinerPath>
969

>  <weinerPol>
24

>  <zagreb>
86

$$$$