F[C@@H]1C2=CC(=O)CCC2([C@@H]2C([C@@H]3C[C@H]4OC(O[C@@]4(C(=O)CO)C3(CC2O)C)(C)C)C1)C
  MOE2013           2D

 31 35  0  0  1  0  0  0  0  0999 V2000
    0.0000    0.0000    0.0000 F   0  0  0  0  0  0  0  0  0  0  0  0
   -0.7560    1.2960    0.0000 C   0  0  2  0  0  0  0  0  0  0  0  0
   -0.0110    2.5980    0.0000 C   0  0  0  0  0  0  0  0  0  0  0  0
    1.4880    2.6050    0.0000 C   0  0  0  0  0  0  0  0  0  0  0  0
    2.2330    3.9070    0.0000 C   0  0  0  0  0  0  0  0  0  0  0  0
    3.7330    3.9140    0.0000 O   0  0  0  0  0  0  0  0  0  0  0  0
    1.4770    5.2030    0.0000 C   0  0  0  0  0  0  0  0  0  0  0  0
   -0.0230    5.1960    0.0000 C   0  0  0  0  0  0  0  0  0  0  0  0
   -0.7670    3.8940    0.0000 C   0  0  3  0  0  0  0  0  0  0  0  0
   -2.2670    3.8870    0.0000 C   0  0  2  0  0  0  0  0  0  0  0  0
   -3.0110    2.5850    0.0000 C   0  0  3  0  0  0  0  0  0  0  0  0
   -4.5110    2.5780    0.0000 C   0  0  2  0  0  0  0  0  0  0  0  0
   -5.5100    1.4590    0.0000 C   0  0  0  0  0  0  0  0  0  0  0  0
   -6.8830    2.0630    0.0000 C   0  0  1  0  0  0  0  0  0  0  0  0
   -8.3490    1.7450    0.0000 O   0  0  0  0  0  0  0  0  0  0  0  0
   -9.1050    3.0400    0.0000 C   0  0  0  0  0  0  0  0  0  0  0  0
   -8.1060    4.1600    0.0000 O   0  0  0  0  0  0  0  0  0  0  0  0
   -6.7330    3.5560    0.0000 C   0  0  2  0  0  0  0  0  0  0  0  0
   -7.1280    5.0030    0.0000 C   0  0  0  0  0  0  0  0  0  0  0  0
   -6.0720    6.0680    0.0000 O   0  0  0  0  0  0  0  0  0  0  0  0
   -8.5780    5.3840    0.0000 C   0  0  0  0  0  0  0  0  0  0  0  0
   -8.9730    6.8320    0.0000 O   0  0  0  0  0  0  0  0  0  0  0  0
   -5.2670    3.8740    0.0000 C   0  0  3  0  0  0  0  0  0  0  0  0
   -4.5230    5.1760    0.0000 C   0  0  0  0  0  0  0  0  0  0  0  0
   -3.0230    5.1830    0.0000 C   0  0  3  0  0  0  0  0  0  0  0  0
   -2.2790    6.4850    0.0000 O   0  0  0  0  0  0  0  0  0  0  0  0
   -5.9070    5.2310    0.0000 C   0  0  0  0  0  0  0  0  0  0  0  0
  -10.3180    3.9220    0.0000 C   0  0  0  0  0  0  0  0  0  0  0  0
  -10.4470    2.3710    0.0000 C   0  0  0  0  0  0  0  0  0  0  0  0
   -2.2560    1.2890    0.0000 C   0  0  0  0  0  0  0  0  0  0  0  0
   -1.5230    5.1890    0.0000 C   0  0  0  0  0  0  0  0  0  0  0  0
  2  1  1  1  0  0  0
  2  3  1  0  0  0  0
  2 30  1  0  0  0  0
  3  4  2  0  0  0  0
  3  9  1  0  0  0  0
  4  5  1  0  0  0  0
  5  6  2  0  0  0  0
  5  7  1  0  0  0  0
  7  8  1  0  0  0  0
  8  9  1  0  0  0  0
  9 31  1  0  0  0  0
 10  9  1  6  0  0  0
 10 11  1  0  0  0  0
 10 25  1  0  0  0  0
 11 30  1  0  0  0  0
 12 11  1  6  0  0  0
 12 13  1  0  0  0  0
 12 23  1  0  0  0  0
 13 14  1  0  0  0  0
 14 15  1  1  0  0  0
 14 18  1  0  0  0  0
 15 16  1  0  0  0  0
 16 17  1  0  0  0  0
 16 28  1  0  0  0  0
 16 29  1  0  0  0  0
 17 18  1  0  0  0  0
 18 19  1  6  0  0  0
 18 23  1  0  0  0  0
 19 20  2  0  0  0  0
 19 21  1  0  0  0  0
 21 22  1  0  0  0  0
 23 24  1  0  0  0  0
 23 27  1  0  0  0  0
 24 25  1  0  0  0  0
 25 26  1  0  0  0  0
M  END
>  <Index>
452

>  <ID>
HT0918

>  <class>
0

>  <apol>
69.613167

>  <ast_fraglike>
0

>  <ast_fraglike_ext>
0

>  <ast_violation>
2

>  <ast_violation_ext>
2

>  <a_acc>
6

>  <a_acid>
0

>  <a_aro>
0

>  <a_base>
0

>  <a_count>
64

>  <a_don>
2

>  <a_donacc>
8

>  <a_heavy>
31

>  <a_hyd>
22

>  <a_IC>
91.986122

>  <a_ICM>
1.4372832

>  <a_nB>
0

>  <a_nBr>
0

>  <a_nC>
24

>  <a_nCl>
0

>  <a_nF>
1

>  <a_nH>
33

>  <a_nI>
0

>  <a_nN>
0

>  <a_nO>
6

>  <a_nP>
0

>  <a_nS>
0

>  <balabanJ>
1.5657134

>  <BCUT_PEOE_0>
-2.9303639

>  <BCUT_PEOE_1>
-0.50066108

>  <BCUT_PEOE_2>
0.42656714

>  <BCUT_PEOE_3>
3.0123408

>  <BCUT_SLOGP_0>
-2.9175422

>  <BCUT_SLOGP_1>
-0.45095456

>  <BCUT_SLOGP_2>
0.45591548

>  <BCUT_SLOGP_3>
3.005326

>  <BCUT_SMR_0>
-2.6917653

>  <BCUT_SMR_1>
-0.32519579

>  <BCUT_SMR_2>
0.61249268

>  <BCUT_SMR_3>
3.2400818

>  <bpol>
43.026833

>  <b_1rotN>
2

>  <b_1rotR>
0.057142857

>  <b_ar>
0

>  <b_count>
68

>  <b_double>
3

>  <b_heavy>
35

>  <b_max1len>
4

>  <b_rotN>
2

>  <b_rotR>
0.057142857

>  <b_single>
65

>  <b_triple>
0

>  <chi0>
22.560114

>  <chi0v>
18.689478

>  <chi0v_C>
15.784093

>  <chi0_C>
16.145901

>  <chi1>
14.393467

>  <chi1v>
11.486473

>  <chi1v_C>
9.4375057

>  <chi1_C>
9.9080505

>  <chiral>
9

>  <chiral_u>
4

>  <density>
0.76760036

>  <diameter>
12

>  <FCharge>
0

>  <GCUT_PEOE_0>
-0.79942775

>  <GCUT_PEOE_1>
-0.37701026

>  <GCUT_PEOE_2>
0.010392814

>  <GCUT_PEOE_3>
3.4629412

>  <GCUT_SLOGP_0>
-0.94960451

>  <GCUT_SLOGP_1>
-0.34623179

>  <GCUT_SLOGP_2>
-0.00086134707

>  <GCUT_SLOGP_3>
3.4783351

>  <GCUT_SMR_0>
-0.53901321

>  <GCUT_SMR_1>
-0.22419126

>  <GCUT_SMR_2>
0.13630015

>  <GCUT_SMR_3>
3.6757667

>  <Kier1>
22.775511

>  <Kier2>
7.0083332

>  <Kier3>
2.8402367

>  <KierA1>
20.767426

>  <KierA2>
6.3700094

>  <KierA3>
2.575516

>  <KierFlex>
4.2673774

>  <lip_acc>
6

>  <lip_don>
2

>  <lip_druglike>
1

>  <lip_violation>
0

>  <logP(o/w)>
2.5020001

>  <logS>
-3.8949101

>  <mr>
11.03242

>  <mutagenic>
0

>  <nmol>
1

>  <opr_brigid>
24

>  <opr_leadlike>
1

>  <opr_nring>
5

>  <opr_nrot>
2

>  <opr_violation>
1

>  <PC+>
0

>  <PC->
0

>  <PEOE_PC+>
2.6033657

>  <PEOE_PC->
-2.6033657

>  <PEOE_RPC+>
0.080653064

>  <PEOE_RPC->
0.15036517

>  <PEOE_VSA+0>
115.33596

>  <PEOE_VSA+1>
35.402172

>  <PEOE_VSA+2>
20.418549

>  <PEOE_VSA+3>
18.025583

>  <PEOE_VSA+4>
20.648346

>  <PEOE_VSA+5>
0

>  <PEOE_VSA+6>
0

>  <PEOE_VSA-0>
86.764053

>  <PEOE_VSA-1>
37.495354

>  <PEOE_VSA-2>
0

>  <PEOE_VSA-3>
0

>  <PEOE_VSA-4>
11.908636

>  <PEOE_VSA-5>
27.133842

>  <PEOE_VSA-6>
20.542593

>  <PEOE_VSA_FHYD>
0.79619384

>  <PEOE_VSA_FNEG>
0.46699545

>  <PEOE_VSA_FPNEG>
0.15135595

>  <PEOE_VSA_FPOL>
0.20380618

>  <PEOE_VSA_FPOS>
0.53300452

>  <PEOE_VSA_FPPOS>
0.052450221

>  <PEOE_VSA_HYD>
313.44168

>  <PEOE_VSA_NEG>
183.84448

>  <PEOE_VSA_PNEG>
59.585072

>  <PEOE_VSA_POL>
80.233414

>  <PEOE_VSA_POS>
209.83061

>  <PEOE_VSA_PPOS>
20.648346

>  <petitjean>
0.5

>  <petitjeanSC>
1

>  <Q_PC+>
0

>  <Q_PC->
0

>  <Q_RPC+>
0

>  <Q_RPC->
0

>  <Q_VSA_FHYD>
1

>  <Q_VSA_FNEG>
0

>  <Q_VSA_FPNEG>
0

>  <Q_VSA_FPOL>
0

>  <Q_VSA_FPOS>
1

>  <Q_VSA_FPPOS>
0

>  <Q_VSA_HYD>
393.67508

>  <Q_VSA_NEG>
0

>  <Q_VSA_PNEG>
0

>  <Q_VSA_POL>
0

>  <Q_VSA_POS>
393.67508

>  <Q_VSA_PPOS>
0

>  <radius>
6

>  <reactive>
1

>  <rings>
5

>  <RPC+>
0

>  <RPC->
0

>  <rsynth>
0.12903225

>  <SlogP>
2.4986999

>  <SlogP_VSA0>
50.770454

>  <SlogP_VSA1>
11.375222

>  <SlogP_VSA2>
93.007744

>  <SlogP_VSA3>
20.926258

>  <SlogP_VSA4>
13.232388

>  <SlogP_VSA5>
3.185575

>  <SlogP_VSA6>
0

>  <SlogP_VSA7>
17.643185

>  <SlogP_VSA8>
94.342026

>  <SlogP_VSA9>
148.26418

>  <SMR>
10.86226

>  <SMR_VSA0>
69.724205

>  <SMR_VSA1>
65.730568

>  <SMR_VSA2>
13.232388

>  <SMR_VSA3>
26.469112

>  <SMR_VSA4>
0

>  <SMR_VSA5>
111.98521

>  <SMR_VSA6>
32.301479

>  <SMR_VSA7>
133.30406

>  <TPSA>
93.059998

>  <VAdjEq>
0.37643659

>  <VAdjMa>
6.129283

>  <VDistEq>
3.2610309

>  <VDistMa>
9.6565742

>  <vdw_area>
393.67508

>  <vdw_vol>
568.68134

>  <vsa_acc>
32.141354

>  <vsa_acid>
0

>  <vsa_base>
0

>  <vsa_don>
0

>  <vsa_hyd>
281.22391

>  <vsa_other>
18.025583

>  <vsa_pol>
59.275196

>  <Weight>
436.51999

>  <weinerPath>
2209

>  <weinerPol>
72

>  <zagreb>
190

$$$$