O=C1NC(=O)CCC1(CC)c1ccccc1
  MOE2013           2D

 16 17  0  0  1  0  0  0  0  0999 V2000
    0.0000    0.0000    0.0000 O   0  0  0  0  0  0  0  0  0  0  0  0
    0.0010   -1.5000    0.0000 C   0  0  0  0  0  0  0  0  0  0  0  0
    1.3010   -2.2490    0.0000 N   0  0  0  0  0  0  0  0  0  0  0  0
    1.3030   -3.7490    0.0000 C   0  0  0  0  0  0  0  0  0  0  0  0
    2.6020   -4.4980    0.0000 O   0  0  0  0  0  0  0  0  0  0  0  0
    0.0040   -4.5000    0.0000 C   0  0  0  0  0  0  0  0  0  0  0  0
   -1.2950   -3.7510    0.0000 C   0  0  0  0  0  0  0  0  0  0  0  0
   -1.2970   -2.2510    0.0000 C   0  0  3  0  0  0  0  0  0  0  0  0
   -2.0480   -0.9530    0.0000 C   0  0  0  0  0  0  0  0  0  0  0  0
   -1.2990    0.3470    0.0000 C   0  0  0  0  0  0  0  0  0  0  0  0
   -2.7970   -2.2530    0.0000 C   0  0  0  0  0  0  0  0  0  0  0  0
   -3.5460   -3.5520    0.0000 C   0  0  0  0  0  0  0  0  0  0  0  0
   -5.0460   -3.5540    0.0000 C   0  0  0  0  0  0  0  0  0  0  0  0
   -5.7970   -2.2560    0.0000 C   0  0  0  0  0  0  0  0  0  0  0  0
   -5.0480   -0.9560    0.0000 C   0  0  0  0  0  0  0  0  0  0  0  0
   -3.5480   -0.9540    0.0000 C   0  0  0  0  0  0  0  0  0  0  0  0
  1  2  2  0  0  0  0
  2  3  1  0  0  0  0
  2  8  1  0  0  0  0
  3  4  1  0  0  0  0
  4  5  2  0  0  0  0
  4  6  1  0  0  0  0
  6  7  1  0  0  0  0
  7  8  1  0  0  0  0
  8  9  1  0  0  0  0
  8 11  1  0  0  0  0
  9 10  1  0  0  0  0
 11 12  1  0  0  0  0
 11 16  2  0  0  0  0
 12 13  2  0  0  0  0
 13 14  1  0  0  0  0
 14 15  2  0  0  0  0
 15 16  1  0  0  0  0
M  END
>  <Index>
497

>  <ID>
HT0994

>  <class>
0

>  <apol>
35.585896

>  <ast_fraglike>
1

>  <ast_fraglike_ext>
1

>  <ast_violation>
0

>  <ast_violation_ext>
0

>  <a_acc>
2

>  <a_acid>
0

>  <a_aro>
6

>  <a_base>
0

>  <a_count>
31

>  <a_don>
1

>  <a_donacc>
3

>  <a_heavy>
16

>  <a_hyd>
11

>  <a_IC>
44.87101

>  <a_ICM>
1.4474519

>  <a_nB>
0

>  <a_nBr>
0

>  <a_nC>
13

>  <a_nCl>
0

>  <a_nF>
0

>  <a_nH>
15

>  <a_nI>
0

>  <a_nN>
1

>  <a_nO>
2

>  <a_nP>
0

>  <a_nS>
0

>  <balabanJ>
2.1144831

>  <BCUT_PEOE_0>
-2.6742945

>  <BCUT_PEOE_1>
-0.5581457

>  <BCUT_PEOE_2>
0.58944309

>  <BCUT_PEOE_3>
2.7142646

>  <BCUT_SLOGP_0>
-2.7415445

>  <BCUT_SLOGP_1>
-0.51960087

>  <BCUT_SLOGP_2>
0.64356232

>  <BCUT_SLOGP_3>
2.7272871

>  <BCUT_SMR_0>
-2.4314339

>  <BCUT_SMR_1>
-0.40066063

>  <BCUT_SMR_2>
0.74137938

>  <BCUT_SMR_3>
2.9608591

>  <bpol>
18.974106

>  <b_1rotN>
2

>  <b_1rotR>
0.11764706

>  <b_ar>
6

>  <b_count>
32

>  <b_double>
2

>  <b_heavy>
17

>  <b_max1len>
4

>  <b_rotN>
2

>  <b_rotR>
0.11764706

>  <b_single>
24

>  <b_triple>
0

>  <chi0>
11.596012

>  <chi0v>
9.3245678

>  <chi0v_C>
8.0080719

>  <chi0_C>
8.8889055

>  <chi1>
7.6875057

>  <chi1v>
5.586699

>  <chi1v_C>
4.6784506

>  <chi1_C>
5.7163086

>  <chiral>
1

>  <chiral_u>
1

>  <density>
0.71323597

>  <diameter>
8

>  <FCharge>
0

>  <GCUT_PEOE_0>
-0.77419585

>  <GCUT_PEOE_1>
-0.38978377

>  <GCUT_PEOE_2>
0.063597366

>  <GCUT_PEOE_3>
2.6217828

>  <GCUT_SLOGP_0>
-1.1706184

>  <GCUT_SLOGP_1>
-0.28222266

>  <GCUT_SLOGP_2>
0.10910928

>  <GCUT_SLOGP_3>
2.6616652

>  <GCUT_SMR_0>
-0.52084553

>  <GCUT_SMR_1>
-0.21605732

>  <GCUT_SMR_2>
0.16579963

>  <GCUT_SMR_3>
2.8720889

>  <Kier1>
12.456747

>  <Kier2>
5.1041665

>  <Kier3>
2.3397613

>  <KierA1>
9.045125

>  <KierA2>
3.619416

>  <KierA3>
1.6297325

>  <KierFlex>
2.0461295

>  <lip_acc>
3

>  <lip_don>
1

>  <lip_druglike>
1

>  <lip_violation>
0

>  <logP(o/w)>
2.6270001

>  <logS>
-2.80387

>  <mr>
6.2990909

>  <mutagenic>
0

>  <nmol>
1

>  <opr_brigid>
12

>  <opr_leadlike>
1

>  <opr_nring>
2

>  <opr_nrot>
2

>  <opr_violation>
0

>  <PC+>
0

>  <PC->
0

>  <PEOE_PC+>
1.301025

>  <PEOE_PC->
-1.301025

>  <PEOE_RPC+>
0.18275982

>  <PEOE_RPC->
0.22775306

>  <PEOE_VSA+0>
47.089787

>  <PEOE_VSA+1>
21.326929

>  <PEOE_VSA+2>
0

>  <PEOE_VSA+3>
8.6190128

>  <PEOE_VSA+4>
25.899061

>  <PEOE_VSA+5>
0

>  <PEOE_VSA+6>
0

>  <PEOE_VSA-0>
19.611166

>  <PEOE_VSA-1>
80.022194

>  <PEOE_VSA-2>
0

>  <PEOE_VSA-3>
0

>  <PEOE_VSA-4>
0

>  <PEOE_VSA-5>
27.270733

>  <PEOE_VSA-6>
0

>  <PEOE_VSA_FHYD>
0.76866496

>  <PEOE_VSA_FNEG>
0.55214369

>  <PEOE_VSA_FPNEG>
0.11865152

>  <PEOE_VSA_FPOL>
0.23133507

>  <PEOE_VSA_FPOS>
0.44785628

>  <PEOE_VSA_FPPOS>
0.11268355

>  <PEOE_VSA_HYD>
176.6691

>  <PEOE_VSA_NEG>
126.9041

>  <PEOE_VSA_PNEG>
27.270733

>  <PEOE_VSA_POL>
53.169796

>  <PEOE_VSA_POS>
102.93479

>  <PEOE_VSA_PPOS>
25.899061

>  <petitjean>
0.5

>  <petitjeanSC>
1

>  <Q_PC+>
0

>  <Q_PC->
0

>  <Q_RPC+>
0

>  <Q_RPC->
0

>  <Q_VSA_FHYD>
1

>  <Q_VSA_FNEG>
0

>  <Q_VSA_FPNEG>
0

>  <Q_VSA_FPOL>
0

>  <Q_VSA_FPOS>
1

>  <Q_VSA_FPPOS>
0

>  <Q_VSA_HYD>
229.83888

>  <Q_VSA_NEG>
0

>  <Q_VSA_PNEG>
0

>  <Q_VSA_POL>
0

>  <Q_VSA_POS>
229.83888

>  <Q_VSA_PPOS>
0

>  <radius>
4

>  <reactive>
0

>  <rings>
2

>  <RPC+>
0

>  <RPC->
0

>  <rsynth>
1

>  <SlogP>
1.771

>  <SlogP_VSA0>
18.01075

>  <SlogP_VSA1>
10.517568

>  <SlogP_VSA2>
47.724434

>  <SlogP_VSA3>
0

>  <SlogP_VSA4>
3.185575

>  <SlogP_VSA5>
0

>  <SlogP_VSA6>
0

>  <SlogP_VSA7>
88.215919

>  <SlogP_VSA8>
56.605217

>  <SlogP_VSA9>
33.326015

>  <SMR>
6.0794702

>  <SMR_VSA0>
47.724434

>  <SMR_VSA1>
0

>  <SMR_VSA2>
18.01075

>  <SMR_VSA3>
3.185575

>  <SMR_VSA4>
0

>  <SMR_VSA5>
144.82114

>  <SMR_VSA6>
10.517568

>  <SMR_VSA7>
33.326015

>  <TPSA>
46.169998

>  <VAdjEq>
0.56510133

>  <VAdjMa>
5.0874629

>  <VDistEq>
2.6632733

>  <VDistMa>
7.7305541

>  <vdw_area>
229.83888

>  <vdw_vol>
304.62289

>  <vsa_acc>
27.133842

>  <vsa_acid>
0

>  <vsa_base>
0

>  <vsa_don>
5.6825762

>  <vsa_hyd>
158.08495

>  <vsa_other>
25.899061

>  <vsa_pol>
32.816418

>  <Weight>
217.26799

>  <weinerPath>
401

>  <weinerPol>
27

>  <zagreb>
82

$$$$