S(=O)(=O)(N(CC(C)C)C[C@@H](OP(O)(O)=O)[C@@H](NC(O[C@H]1CCOC1)=O)Cc1ccccc1)c1ccc(N)cc1
  MOE2013           2D

 39 41  0  0  1  0  0  0  0  0999 V2000
    0.0000    0.0000    0.0000 S   0  0  0  0  0  0  0  0  0  0  0  0
    0.7530    1.2970    0.0000 O   0  0  0  0  0  0  0  0  0  0  0  0
   -0.7530   -1.2970    0.0000 O   0  0  0  0  0  0  0  0  0  0  0  0
   -1.2970    0.7530    0.0000 N   0  0  3  0  0  0  0  0  0  0  0  0
   -1.2940    2.2530    0.0000 C   0  0  0  0  0  0  0  0  0  0  0  0
    0.0060    3.0000    0.0000 C   0  0  0  0  0  0  0  0  0  0  0  0
    0.0090    4.5000    0.0000 C   0  0  0  0  0  0  0  0  0  0  0  0
    1.3040    2.2470    0.0000 C   0  0  0  0  0  0  0  0  0  0  0  0
   -2.5980    0.0050    0.0000 C   0  0  0  0  0  0  0  0  0  0  0  0
   -3.8960    0.7580    0.0000 C   0  0  1  0  0  0  0  0  0  0  0  0
   -5.1960    0.0110    0.0000 O   0  0  0  0  0  0  0  0  0  0  0  0
   -5.1990   -1.4890    0.0000 P   0  0  0  0  0  0  0  0  0  0  0  0
   -3.6990   -1.4920    0.0000 O   0  0  0  0  0  0  0  0  0  0  0  0
   -5.2020   -2.9890    0.0000 O   0  0  0  0  0  0  0  0  0  0  0  0
   -6.6990   -1.4860    0.0000 O   0  0  0  0  0  0  0  0  0  0  0  0
   -3.8920    2.2580    0.0000 C   0  0  1  0  0  0  0  0  0  0  0  0
   -5.1900    3.0110    0.0000 N   0  0  0  0  0  0  0  0  0  0  0  0
   -6.4900    2.2640    0.0000 C   0  0  0  0  0  0  0  0  0  0  0  0
   -7.7880    3.0160    0.0000 O   0  0  0  0  0  0  0  0  0  0  0  0
   -9.0890    2.2690    0.0000 C   0  0  1  0  0  0  0  0  0  0  0  0
   -9.2480    0.7780    0.0000 C   0  0  0  0  0  0  0  0  0  0  0  0
  -10.7160    0.4690    0.0000 C   0  0  0  0  0  0  0  0  0  0  0  0
  -11.4640    1.7700    0.0000 O   0  0  0  0  0  0  0  0  0  0  0  0
  -10.4580    2.8820    0.0000 C   0  0  0  0  0  0  0  0  0  0  0  0
   -6.4940    0.7640    0.0000 O   0  0  0  0  0  0  0  0  0  0  0  0
   -2.5920    3.0050    0.0000 C   0  0  0  0  0  0  0  0  0  0  0  0
   -2.5890    4.5050    0.0000 C   0  0  0  0  0  0  0  0  0  0  0  0
   -3.8860    5.2580    0.0000 C   0  0  0  0  0  0  0  0  0  0  0  0
   -3.8830    6.7580    0.0000 C   0  0  0  0  0  0  0  0  0  0  0  0
   -2.5820    7.5050    0.0000 C   0  0  0  0  0  0  0  0  0  0  0  0
   -1.2850    6.7530    0.0000 C   0  0  0  0  0  0  0  0  0  0  0  0
   -1.2880    5.2530    0.0000 C   0  0  0  0  0  0  0  0  0  0  0  0
    1.2970   -0.7530    0.0000 C   0  0  0  0  0  0  0  0  0  0  0  0
    2.5980   -0.0050    0.0000 C   0  0  0  0  0  0  0  0  0  0  0  0
    3.8960   -0.7580    0.0000 C   0  0  0  0  0  0  0  0  0  0  0  0
    3.8920   -2.2580    0.0000 C   0  0  0  0  0  0  0  0  0  0  0  0
    5.1900   -3.0110    0.0000 N   0  0  0  0  0  0  0  0  0  0  0  0
    2.5920   -3.0050    0.0000 C   0  0  0  0  0  0  0  0  0  0  0  0
    1.2940   -2.2530    0.0000 C   0  0  0  0  0  0  0  0  0  0  0  0
  1  2  2  0  0  0  0
  1  3  2  0  0  0  0
  1  4  1  0  0  0  0
  1 33  1  0  0  0  0
  4  5  1  0  0  0  0
  4  9  1  0  0  0  0
  5  6  1  0  0  0  0
  6  7  1  0  0  0  0
  6  8  1  0  0  0  0
 10  9  1  1  0  0  0
 10 11  1  0  0  0  0
 10 16  1  0  0  0  0
 11 12  1  0  0  0  0
 12 13  1  0  0  0  0
 12 14  1  0  0  0  0
 12 15  2  0  0  0  0
 16 17  1  0  0  0  0
 16 26  1  1  0  0  0
 17 18  1  0  0  0  0
 18 19  1  0  0  0  0
 18 25  2  0  0  0  0
 20 19  1  1  0  0  0
 20 21  1  0  0  0  0
 20 24  1  0  0  0  0
 21 22  1  0  0  0  0
 22 23  1  0  0  0  0
 23 24  1  0  0  0  0
 26 27  1  0  0  0  0
 27 28  1  0  0  0  0
 27 32  2  0  0  0  0
 28 29  2  0  0  0  0
 29 30  1  0  0  0  0
 30 31  2  0  0  0  0
 31 32  1  0  0  0  0
 33 34  1  0  0  0  0
 33 39  2  0  0  0  0
 34 35  2  0  0  0  0
 35 36  1  0  0  0  0
 36 37  1  0  0  0  0
 36 38  2  0  0  0  0
 38 39  1  0  0  0  0
M  END
>  <Index>
461

>  <ID>
HT0934

>  <class>
0

>  <apol>
85.052551

>  <ast_fraglike>
0

>  <ast_fraglike_ext>
0

>  <ast_violation>
3

>  <ast_violation_ext>
5

>  <a_acc>
8

>  <a_acid>
0

>  <a_aro>
12

>  <a_base>
0

>  <a_count>
75

>  <a_don>
5

>  <a_donacc>
13

>  <a_heavy>
39

>  <a_hyd>
24

>  <a_IC>
131.66348

>  <a_ICM>
1.7555131

>  <a_nB>
0

>  <a_nBr>
0

>  <a_nC>
25

>  <a_nCl>
0

>  <a_nF>
0

>  <a_nH>
36

>  <a_nI>
0

>  <a_nN>
3

>  <a_nO>
9

>  <a_nP>
1

>  <a_nS>
1

>  <balabanJ>
1.8400941

>  <BCUT_PEOE_0>
-2.7273211

>  <BCUT_PEOE_1>
-0.58589822

>  <BCUT_PEOE_2>
0.64291197

>  <BCUT_PEOE_3>
2.7091992

>  <BCUT_SLOGP_0>
-2.8611052

>  <BCUT_SLOGP_1>
-0.53807992

>  <BCUT_SLOGP_2>
0.69297487

>  <BCUT_SLOGP_3>
2.657655

>  <BCUT_SMR_0>
-2.461127

>  <BCUT_SMR_1>
-0.45479009

>  <BCUT_SMR_2>
0.75170672

>  <BCUT_SMR_3>
2.9795253

>  <bpol>
62.955452

>  <b_1rotN>
13

>  <b_1rotR>
0.31707317

>  <b_ar>
12

>  <b_count>
77

>  <b_double>
1

>  <b_heavy>
41

>  <b_max1len>
10

>  <b_rotN>
15

>  <b_rotR>
0.36585367

>  <b_single>
64

>  <b_triple>
0

>  <chi0>
28.631182

>  <chi0v>
23.591309

>  <chi0v_C>
15.748194

>  <chi0_C>
17.225405

>  <chi1>
18.330355

>  <chi1v>
15.487228

>  <chi1v_C>
8.1148796

>  <chi1_C>
9.8870134

>  <chiral>
3

>  <chiral_u>
0

>  <density>
0.81257141

>  <diameter>
15

>  <FCharge>
0

>  <GCUT_PEOE_0>
-0.81483471

>  <GCUT_PEOE_1>
-0.39212355

>  <GCUT_PEOE_2>
0.076535776

>  <GCUT_PEOE_3>
2.9911656

>  <GCUT_SLOGP_0>
-1.3343118

>  <GCUT_SLOGP_1>
-0.38738593

>  <GCUT_SLOGP_2>
0.12526123

>  <GCUT_SLOGP_3>
2.9813216

>  <GCUT_SMR_0>
-0.53040308

>  <GCUT_SMR_1>
-0.21605732

>  <GCUT_SMR_2>
0.19169442

>  <GCUT_SMR_3>
3.2411549

>  <Kier1>
33.501488

>  <Kier2>
15.464328

>  <Kier3>
11.305785

>  <KierA1>
30.560959

>  <KierA2>
14.071745

>  <KierA3>
10.269262

>  <KierFlex>
11.026821

>  <lip_acc>
12

>  <lip_don>
5

>  <lip_druglike>
0

>  <lip_violation>
2

>  <logP(o/w)>
1.498

>  <logS>
-3.90712

>  <mr>
14.912287

>  <mutagenic>
1

>  <nmol>
1

>  <opr_brigid>
17

>  <opr_leadlike>
0

>  <opr_nring>
3

>  <opr_nrot>
13

>  <opr_violation>
3

>  <PC+>
0

>  <PC->
0

>  <PEOE_PC+>
3.7264609

>  <PEOE_PC->
-3.7264609

>  <PEOE_RPC+>
0.11037605

>  <PEOE_RPC->
0.10119714

>  <PEOE_VSA+0>
118.48808

>  <PEOE_VSA+1>
111.10458

>  <PEOE_VSA+2>
17.238026

>  <PEOE_VSA+3>
29.267359

>  <PEOE_VSA+4>
0

>  <PEOE_VSA+5>
4.1846013

>  <PEOE_VSA+6>
37.912579

>  <PEOE_VSA-0>
57.313297

>  <PEOE_VSA-1>
98.769875

>  <PEOE_VSA-2>
15.729136

>  <PEOE_VSA-3>
0

>  <PEOE_VSA-4>
45.583443

>  <PEOE_VSA-5>
27.02924

>  <PEOE_VSA-6>
9.2917662

>  <PEOE_VSA_FHYD>
0.78318059

>  <PEOE_VSA_FNEG>
0.44362903

>  <PEOE_VSA_FPNEG>
0.14321163

>  <PEOE_VSA_FPOL>
0.21681944

>  <PEOE_VSA_FPOS>
0.55637097

>  <PEOE_VSA_FPPOS>
0.073607795

>  <PEOE_VSA_HYD>
447.91037

>  <PEOE_VSA_NEG>
253.71677

>  <PEOE_VSA_PNEG>
81.904449

>  <PEOE_VSA_POL>
124.00163

>  <PEOE_VSA_POS>
318.19522

>  <PEOE_VSA_PPOS>
42.097179

>  <petitjean>
0.46666667

>  <petitjeanSC>
0.875

>  <Q_PC+>
0

>  <Q_PC->
0

>  <Q_RPC+>
0

>  <Q_RPC->
0

>  <Q_VSA_FHYD>
1

>  <Q_VSA_FNEG>
0

>  <Q_VSA_FPNEG>
0

>  <Q_VSA_FPOL>
0

>  <Q_VSA_FPOS>
1

>  <Q_VSA_FPPOS>
0

>  <Q_VSA_HYD>
571.91199

>  <Q_VSA_NEG>
0

>  <Q_VSA_PNEG>
0

>  <Q_VSA_POL>
0

>  <Q_VSA_POS>
571.91199

>  <Q_VSA_PPOS>
0

>  <radius>
8

>  <reactive>
1

>  <rings>
3

>  <RPC+>
0

>  <RPC->
0

>  <rsynth>
1

>  <SlogP>
1.4495699

>  <SlogP_VSA0>
115.95564

>  <SlogP_VSA1>
57.006886

>  <SlogP_VSA2>
52.481415

>  <SlogP_VSA3>
78.731674

>  <SlogP_VSA4>
7.5963712

>  <SlogP_VSA5>
20.41914

>  <SlogP_VSA6>
0

>  <SlogP_VSA7>
158.78867

>  <SlogP_VSA8>
18.868406

>  <SlogP_VSA9>
109.96584

>  <SMR>
14.34565

>  <SMR_VSA0>
123.38908

>  <SMR_VSA1>
44.1325

>  <SMR_VSA2>
23.972281

>  <SMR_VSA3>
20.104841

>  <SMR_VSA4>
2.7567475

>  <SMR_VSA5>
229.42265

>  <SMR_VSA6>
86.048309

>  <SMR_VSA7>
89.98761

>  <TPSA>
177.72

>  <VAdjEq>
0.30278754

>  <VAdjMa>
6.3575521

>  <VDistEq>
3.6115711

>  <VDistMa>
10.348104

>  <vdw_area>
571.91199

>  <vdw_vol>
720.6936

>  <vsa_acc>
52.753174

>  <vsa_acid>
0

>  <vsa_base>
0

>  <vsa_don>
23.425066

>  <vsa_hyd>
356.34412

>  <vsa_other>
50.521946

>  <vsa_pol>
123.36565

>  <Weight>
585.61499

>  <weinerPath>
4787

>  <weinerPol>
55

>  <zagreb>
198

$$$$