P(OC1CCC(CC1)(c1ccccc1)c1ccccc1)(OC[C@H](N(CC(O)=O)CC(O)=O)CN(CCN(CC(O)=O)CC(O)=O)CC(O)=O)(O)=O
  MOE2013           2D

 51 53  0  0  1  0  0  0  0  0999 V2000
    0.0000    0.0000    0.0000 P   0  0  3  0  0  0  0  0  0  0  0  0
   -0.7480   -1.3000    0.0000 O   0  0  0  0  0  0  0  0  0  0  0  0
   -2.2480   -1.3030    0.0000 C   0  0  0  0  0  0  0  0  0  0  0  0
   -2.9960   -2.6030    0.0000 C   0  0  0  0  0  0  0  0  0  0  0  0
   -4.4960   -2.6050    0.0000 C   0  0  0  0  0  0  0  0  0  0  0  0
   -5.2480   -1.3070    0.0000 C   0  0  0  0  0  0  0  0  0  0  0  0
   -4.5000   -0.0070    0.0000 C   0  0  0  0  0  0  0  0  0  0  0  0
   -3.0000   -0.0050    0.0000 C   0  0  0  0  0  0  0  0  0  0  0  0
   -6.2140   -0.1600    0.0000 C   0  0  0  0  0  0  0  0  0  0  0  0
   -7.6910   -0.4230    0.0000 C   0  0  0  0  0  0  0  0  0  0  0  0
   -8.6570    0.7250    0.0000 C   0  0  0  0  0  0  0  0  0  0  0  0
   -8.1460    2.1350    0.0000 C   0  0  0  0  0  0  0  0  0  0  0  0
   -6.6690    2.3980    0.0000 C   0  0  0  0  0  0  0  0  0  0  0  0
   -5.7030    1.2510    0.0000 C   0  0  0  0  0  0  0  0  0  0  0  0
   -6.3950   -2.2730    0.0000 C   0  0  0  0  0  0  0  0  0  0  0  0
   -7.8730   -2.0150    0.0000 C   0  0  0  0  0  0  0  0  0  0  0  0
   -8.8350   -3.1660    0.0000 C   0  0  0  0  0  0  0  0  0  0  0  0
   -8.3200   -4.5750    0.0000 C   0  0  0  0  0  0  0  0  0  0  0  0
   -6.8430   -4.8330    0.0000 C   0  0  0  0  0  0  0  0  0  0  0  0
   -5.8800   -3.6820    0.0000 C   0  0  0  0  0  0  0  0  0  0  0  0
    1.3000   -0.7480    0.0000 O   0  0  0  0  0  0  0  0  0  0  0  0
    2.5980    0.0040    0.0000 C   0  0  0  0  0  0  0  0  0  0  0  0
    3.8980   -0.7440    0.0000 C   0  0  2  0  0  0  0  0  0  0  0  0
    3.9010   -2.2440    0.0000 N   0  0  0  0  0  0  0  0  0  0  0  0
    5.2010   -2.9920    0.0000 C   0  0  0  0  0  0  0  0  0  0  0  0
    6.4990   -2.2400    0.0000 C   0  0  0  0  0  0  0  0  0  0  0  0
    7.7990   -2.9880    0.0000 O   0  0  0  0  0  0  0  0  0  0  0  0
    6.4960   -0.7400    0.0000 O   0  0  0  0  0  0  0  0  0  0  0  0
    2.6030   -2.9960    0.0000 C   0  0  0  0  0  0  0  0  0  0  0  0
    2.6050   -4.4960    0.0000 C   0  0  0  0  0  0  0  0  0  0  0  0
    1.3070   -5.2480    0.0000 O   0  0  0  0  0  0  0  0  0  0  0  0
    3.9050   -5.2440    0.0000 O   0  0  0  0  0  0  0  0  0  0  0  0
    5.1960    0.0080    0.0000 C   0  0  0  0  0  0  0  0  0  0  0  0
    5.1940    1.5080    0.0000 N   0  0  3  0  0  0  0  0  0  0  0  0
    6.4920    2.2600    0.0000 C   0  0  0  0  0  0  0  0  0  0  0  0
    7.7920    1.5120    0.0000 C   0  0  0  0  0  0  0  0  0  0  0  0
    9.0900    2.2640    0.0000 N   0  0  0  0  0  0  0  0  0  0  0  0
    9.0870    3.7640    0.0000 C   0  0  0  0  0  0  0  0  0  0  0  0
   10.3850    4.5160    0.0000 C   0  0  0  0  0  0  0  0  0  0  0  0
   11.6850    3.7680    0.0000 O   0  0  0  0  0  0  0  0  0  0  0  0
   10.3830    6.0160    0.0000 O   0  0  0  0  0  0  0  0  0  0  0  0
   10.3900    1.5160    0.0000 C   0  0  0  0  0  0  0  0  0  0  0  0
   10.3920    0.0160    0.0000 C   0  0  0  0  0  0  0  0  0  0  0  0
   11.6930   -0.7320    0.0000 O   0  0  0  0  0  0  0  0  0  0  0  0
    9.0940   -0.7360    0.0000 O   0  0  0  0  0  0  0  0  0  0  0  0
    3.8940    2.2560    0.0000 C   0  0  0  0  0  0  0  0  0  0  0  0
    3.8910    3.7560    0.0000 C   0  0  0  0  0  0  0  0  0  0  0  0
    5.1890    4.5080    0.0000 O   0  0  0  0  0  0  0  0  0  0  0  0
    2.5910    4.5040    0.0000 O   0  0  0  0  0  0  0  0  0  0  0  0
   -1.3000    0.7480    0.0000 O   0  0  0  0  0  0  0  0  0  0  0  0
    0.7480    1.3000    0.0000 O   0  0  0  0  0  0  0  0  0  0  0  0
  1  2  1  0  0  0  0
  1 21  1  0  0  0  0
  1 50  1  0  0  0  0
  1 51  2  0  0  0  0
  2  3  1  0  0  0  0
  3  4  1  0  0  0  0
  3  8  1  0  0  0  0
  4  5  1  0  0  0  0
  5  6  1  0  0  0  0
  6  7  1  0  0  0  0
  6  9  1  0  0  0  0
  6 15  1  0  0  0  0
  7  8  1  0  0  0  0
  9 10  1  0  0  0  0
  9 14  2  0  0  0  0
 10 11  2  0  0  0  0
 11 12  1  0  0  0  0
 12 13  2  0  0  0  0
 13 14  1  0  0  0  0
 15 16  1  0  0  0  0
 15 20  2  0  0  0  0
 16 17  2  0  0  0  0
 17 18  1  0  0  0  0
 18 19  2  0  0  0  0
 19 20  1  0  0  0  0
 21 22  1  0  0  0  0
 23 22  1  1  0  0  0
 23 24  1  0  0  0  0
 23 33  1  0  0  0  0
 24 25  1  0  0  0  0
 24 29  1  0  0  0  0
 25 26  1  0  0  0  0
 26 27  1  0  0  0  0
 26 28  2  0  0  0  0
 29 30  1  0  0  0  0
 30 31  1  0  0  0  0
 30 32  2  0  0  0  0
 33 34  1  0  0  0  0
 34 35  1  0  0  0  0
 34 46  1  0  0  0  0
 35 36  1  0  0  0  0
 36 37  1  0  0  0  0
 37 38  1  0  0  0  0
 37 42  1  0  0  0  0
 38 39  1  0  0  0  0
 39 40  1  0  0  0  0
 39 41  2  0  0  0  0
 42 43  1  0  0  0  0
 43 44  1  0  0  0  0
 43 45  2  0  0  0  0
 46 47  1  0  0  0  0
 47 48  1  0  0  0  0
 47 49  2  0  0  0  0
M  END
>  <Index>
471

>  <ID>
HT0953

>  <class>
0

>  <apol>
105.57689

>  <ast_fraglike>
0

>  <ast_fraglike_ext>
0

>  <ast_violation>
3

>  <ast_violation_ext>
5

>  <a_acc>
17

>  <a_acid>
0

>  <a_aro>
12

>  <a_base>
0

>  <a_count>
95

>  <a_don>
12

>  <a_donacc>
29

>  <a_heavy>
51

>  <a_hyd>
28

>  <a_IC>
159.39842

>  <a_ICM>
1.6778783

>  <a_nB>
0

>  <a_nBr>
0

>  <a_nC>
33

>  <a_nCl>
0

>  <a_nF>
0

>  <a_nH>
44

>  <a_nI>
0

>  <a_nN>
3

>  <a_nO>
14

>  <a_nP>
1

>  <a_nS>
0

>  <balabanJ>
1.7076483

>  <BCUT_PEOE_0>
-2.7885487

>  <BCUT_PEOE_1>
-0.53055304

>  <BCUT_PEOE_2>
0.5580135

>  <BCUT_PEOE_3>
2.7719684

>  <BCUT_SLOGP_0>
-2.8865249

>  <BCUT_SLOGP_1>
-0.51121676

>  <BCUT_SLOGP_2>
0.57007891

>  <BCUT_SLOGP_3>
2.8512199

>  <BCUT_SMR_0>
-2.5389812

>  <BCUT_SMR_1>
-0.36844611

>  <BCUT_SMR_2>
0.69227701

>  <BCUT_SMR_3>
3.0248115

>  <bpol>
71.101105

>  <b_1rotN>
23

>  <b_1rotR>
0.43396226

>  <b_ar>
12

>  <b_count>
97

>  <b_double>
5

>  <b_heavy>
53

>  <b_max1len>
13

>  <b_rotN>
23

>  <b_rotR>
0.43396226

>  <b_single>
80

>  <b_triple>
0

>  <chi0>
37.605873

>  <chi0v>
28.753141

>  <chi0v_C>
20.120592

>  <chi0_C>
21.959608

>  <chi1>
24.079863

>  <chi1v>
17.623455

>  <chi1v_C>
9.9292345

>  <chi1_C>
12.091685

>  <chiral>
2

>  <chiral_u>
1

>  <density>
0.81024063

>  <diameter>
20

>  <FCharge>
0

>  <GCUT_PEOE_0>
-0.83702707

>  <GCUT_PEOE_1>
-0.45730177

>  <GCUT_PEOE_2>
0.1024918

>  <GCUT_PEOE_3>
3.1034791

>  <GCUT_SLOGP_0>
-1.2940322

>  <GCUT_SLOGP_1>
-0.40445459

>  <GCUT_SLOGP_2>
0.048024874

>  <GCUT_SLOGP_3>
3.1334243

>  <GCUT_SMR_0>
-0.52513832

>  <GCUT_SMR_1>
-0.24036871

>  <GCUT_SMR_2>
0.21060884

>  <GCUT_SMR_3>
3.3423316

>  <Kier1>
45.38982

>  <Kier2>
22.527679

>  <Kier3>
16.32653

>  <KierA1>
38.917461

>  <KierA2>
19.253595

>  <KierA3>
13.922247

>  <KierFlex>
14.692177

>  <lip_acc>
17

>  <lip_don>
6

>  <lip_druglike>
0

>  <lip_violation>
3

>  <logP(o/w)>
1.98

>  <logS>
-3.8093901

>  <mr>
18.469461

>  <mutagenic>
0

>  <nmol>
1

>  <opr_brigid>
18

>  <opr_leadlike>
0

>  <opr_nring>
3

>  <opr_nrot>
25

>  <opr_violation>
4

>  <PC+>
0

>  <PC->
0

>  <PEOE_PC+>
5.5643554

>  <PEOE_PC->
-5.5643554

>  <PEOE_RPC+>
0.07442081

>  <PEOE_RPC->
0.059360404

>  <PEOE_VSA+0>
119.49989

>  <PEOE_VSA+1>
171.12556

>  <PEOE_VSA+2>
0

>  <PEOE_VSA+3>
10.324173

>  <PEOE_VSA+4>
51.620865

>  <PEOE_VSA+5>
73.542496

>  <PEOE_VSA+6>
18.713068

>  <PEOE_VSA-0>
39.222332

>  <PEOE_VSA-1>
122.54904

>  <PEOE_VSA-2>
15.729136

>  <PEOE_VSA-3>
0

>  <PEOE_VSA-4>
0

>  <PEOE_VSA-5>
87.096306

>  <PEOE_VSA-6>
38.8377

>  <PEOE_VSA_FHYD>
0.63941646

>  <PEOE_VSA_FNEG>
0.40551984

>  <PEOE_VSA_FPNEG>
0.16830234

>  <PEOE_VSA_FPOL>
0.36058351

>  <PEOE_VSA_FPOS>
0.59448016

>  <PEOE_VSA_FPPOS>
0.19228119

>  <PEOE_VSA_HYD>
478.45013

>  <PEOE_VSA_NEG>
303.43451

>  <PEOE_VSA_PNEG>
125.93401

>  <PEOE_VSA_POL>
269.81042

>  <PEOE_VSA_POS>
444.82605

>  <PEOE_VSA_PPOS>
143.87643

>  <petitjean>
0.5

>  <petitjeanSC>
1

>  <Q_PC+>
0

>  <Q_PC->
0

>  <Q_RPC+>
0

>  <Q_RPC->
0

>  <Q_VSA_FHYD>
1

>  <Q_VSA_FNEG>
0

>  <Q_VSA_FPNEG>
0

>  <Q_VSA_FPOL>
0

>  <Q_VSA_FPOS>
1

>  <Q_VSA_FPPOS>
0

>  <Q_VSA_HYD>
748.26056

>  <Q_VSA_NEG>
0

>  <Q_VSA_PNEG>
0

>  <Q_VSA_POL>
0

>  <Q_VSA_POS>
748.26056

>  <Q_VSA_PPOS>
0

>  <radius>
10

>  <reactive>
0

>  <rings>
3

>  <RPC+>
0

>  <RPC->
0

>  <rsynth>
1

>  <SlogP>
0.67629999

>  <SlogP_VSA0>
43.740734

>  <SlogP_VSA1>
48.100262

>  <SlogP_VSA2>
143.60497

>  <SlogP_VSA3>
295.36902

>  <SlogP_VSA4>
6.37115

>  <SlogP_VSA5>
0

>  <SlogP_VSA6>
0

>  <SlogP_VSA7>
176.43184

>  <SlogP_VSA8>
75.473625

>  <SlogP_VSA9>
16.694841

>  <SMR>
17.85158

>  <SMR_VSA0>
155.5881

>  <SMR_VSA1>
30.679911

>  <SMR_VSA2>
126.92613

>  <SMR_VSA3>
16.821768

>  <SMR_VSA4>
0

>  <SMR_VSA5>
251.90547

>  <SMR_VSA6>
207.1702

>  <SMR_VSA7>
16.694841

>  <TPSA>
251.98

>  <VAdjEq>
0.24573661

>  <VAdjMa>
6.7279205

>  <VDistEq>
4.1814842

>  <VDistMa>
11.08436

>  <vdw_area>
748.26056

>  <vdw_vol>
910.46527

>  <vsa_acc>
9.3319435

>  <vsa_acid>
0

>  <vsa_base>
0

>  <vsa_don>
0

>  <vsa_hyd>
425.3486

>  <vsa_other>
92.255562

>  <vsa_pol>
176.45943

>  <Weight>
737.69598

>  <weinerPath>
11160

>  <weinerPol>
75

>  <zagreb>
252

$$$$