O(CC)c1ccc(cc1)CC(N(CC(O)=O)CC(O)=O)CN(CCN(CC(O)=O)CC(O)=O)CC(O)=O
  MOE2013           2D

 37 37  0  0  1  0  0  0  0  0999 V2000
    0.0000    0.0000    0.0000 O   0  0  0  0  0  0  0  0  0  0  0  0
    0.7570    1.2950    0.0000 C   0  0  0  0  0  0  0  0  0  0  0  0
    2.2570    1.2860    0.0000 C   0  0  0  0  0  0  0  0  0  0  0  0
   -1.5000    0.0080    0.0000 C   0  0  0  0  0  0  0  0  0  0  0  0
   -2.2570   -1.2860    0.0000 C   0  0  0  0  0  0  0  0  0  0  0  0
   -3.7570   -1.2780    0.0000 C   0  0  0  0  0  0  0  0  0  0  0  0
   -4.5000    0.0250    0.0000 C   0  0  0  0  0  0  0  0  0  0  0  0
   -3.7430    1.3200    0.0000 C   0  0  0  0  0  0  0  0  0  0  0  0
   -2.2430    1.3120    0.0000 C   0  0  0  0  0  0  0  0  0  0  0  0
   -6.0000    0.0340    0.0000 C   0  0  0  0  0  0  0  0  0  0  0  0
   -6.7570   -1.2610    0.0000 C   0  0  3  0  0  0  0  0  0  0  0  0
   -6.0140   -2.5650    0.0000 N   0  0  0  0  0  0  0  0  0  0  0  0
   -6.7720   -3.8590    0.0000 C   0  0  0  0  0  0  0  0  0  0  0  0
   -8.2720   -3.8510    0.0000 C   0  0  0  0  0  0  0  0  0  0  0  0
   -9.0290   -5.1460    0.0000 O   0  0  0  0  0  0  0  0  0  0  0  0
   -9.0140   -2.5480    0.0000 O   0  0  0  0  0  0  0  0  0  0  0  0
   -4.5140   -2.5730    0.0000 C   0  0  0  0  0  0  0  0  0  0  0  0
   -3.7720   -3.8760    0.0000 C   0  0  0  0  0  0  0  0  0  0  0  0
   -4.5290   -5.1710    0.0000 O   0  0  0  0  0  0  0  0  0  0  0  0
   -2.2720   -3.8840    0.0000 O   0  0  0  0  0  0  0  0  0  0  0  0
   -8.2570   -1.2530    0.0000 C   0  0  0  0  0  0  0  0  0  0  0  0
   -9.0000    0.0500    0.0000 N   0  0  3  0  0  0  0  0  0  0  0  0
  -10.5000    0.0590    0.0000 C   0  0  0  0  0  0  0  0  0  0  0  0
  -11.2570   -1.2360    0.0000 C   0  0  0  0  0  0  0  0  0  0  0  0
  -12.7570   -1.2280    0.0000 N   0  0  0  0  0  0  0  0  0  0  0  0
  -13.5140   -2.5230    0.0000 C   0  0  0  0  0  0  0  0  0  0  0  0
  -12.7720   -3.8260    0.0000 C   0  0  0  0  0  0  0  0  0  0  0  0
  -13.5290   -5.1210    0.0000 O   0  0  0  0  0  0  0  0  0  0  0  0
  -11.2720   -3.8340    0.0000 O   0  0  0  0  0  0  0  0  0  0  0  0
  -13.5000    0.0750    0.0000 C   0  0  0  0  0  0  0  0  0  0  0  0
  -15.0000    0.0840    0.0000 C   0  0  0  0  0  0  0  0  0  0  0  0
  -15.7420    1.3870    0.0000 O   0  0  0  0  0  0  0  0  0  0  0  0
  -15.7570   -1.2110    0.0000 O   0  0  0  0  0  0  0  0  0  0  0  0
   -8.2430    1.3450    0.0000 C   0  0  0  0  0  0  0  0  0  0  0  0
   -8.9850    2.6480    0.0000 C   0  0  0  0  0  0  0  0  0  0  0  0
  -10.4850    2.6570    0.0000 O   0  0  0  0  0  0  0  0  0  0  0  0
   -8.2280    3.9430    0.0000 O   0  0  0  0  0  0  0  0  0  0  0  0
  1  2  1  0  0  0  0
  1  4  1  0  0  0  0
  2  3  1  0  0  0  0
  4  5  1  0  0  0  0
  4  9  2  0  0  0  0
  5  6  2  0  0  0  0
  6  7  1  0  0  0  0
  7  8  2  0  0  0  0
  7 10  1  0  0  0  0
  8  9  1  0  0  0  0
 10 11  1  0  0  0  0
 11 12  1  0  0  0  0
 11 21  1  0  0  0  0
 12 13  1  0  0  0  0
 12 17  1  0  0  0  0
 13 14  1  0  0  0  0
 14 15  1  0  0  0  0
 14 16  2  0  0  0  0
 17 18  1  0  0  0  0
 18 19  1  0  0  0  0
 18 20  2  0  0  0  0
 21 22  1  0  0  0  0
 22 23  1  0  0  0  0
 22 34  1  0  0  0  0
 23 24  1  0  0  0  0
 24 25  1  0  0  0  0
 25 26  1  0  0  0  0
 25 30  1  0  0  0  0
 26 27  1  0  0  0  0
 27 28  1  0  0  0  0
 27 29  2  0  0  0  0
 30 31  1  0  0  0  0
 31 32  1  0  0  0  0
 31 33  2  0  0  0  0
 34 35  1  0  0  0  0
 35 36  1  0  0  0  0
 35 37  2  0  0  0  0
M  END
>  <Index>
475

>  <ID>
HT0958

>  <class>
0

>  <apol>
74.606171

>  <ast_fraglike>
0

>  <ast_fraglike_ext>
0

>  <ast_violation>
3

>  <ast_violation_ext>
5

>  <a_acc>
14

>  <a_acid>
0

>  <a_aro>
6

>  <a_base>
0

>  <a_count>
70

>  <a_don>
10

>  <a_donacc>
24

>  <a_heavy>
37

>  <a_hyd>
18

>  <a_IC>
115.73425

>  <a_ICM>
1.6533463

>  <a_nB>
0

>  <a_nBr>
0

>  <a_nC>
23

>  <a_nCl>
0

>  <a_nF>
0

>  <a_nH>
33

>  <a_nI>
0

>  <a_nN>
3

>  <a_nO>
11

>  <a_nP>
0

>  <a_nS>
0

>  <balabanJ>
3.0296957

>  <BCUT_PEOE_0>
-2.7356505

>  <BCUT_PEOE_1>
-0.52208936

>  <BCUT_PEOE_2>
0.46511507

>  <BCUT_PEOE_3>
2.683141

>  <BCUT_SLOGP_0>
-2.8781896

>  <BCUT_SLOGP_1>
-0.49831939

>  <BCUT_SLOGP_2>
0.39970621

>  <BCUT_SLOGP_3>
2.5637102

>  <BCUT_SMR_0>
-2.4668047

>  <BCUT_SMR_1>
-0.31018138

>  <BCUT_SMR_2>
0.60306364

>  <BCUT_SMR_3>
2.9427021

>  <bpol>
48.721832

>  <b_1rotN>
20

>  <b_1rotR>
0.54054052

>  <b_ar>
6

>  <b_count>
70

>  <b_double>
5

>  <b_heavy>
37

>  <b_max1len>
10

>  <b_rotN>
20

>  <b_rotR>
0.54054052

>  <b_single>
59

>  <b_triple>
0

>  <chi0>
27.957455

>  <chi0v>
20.485018

>  <chi0v_C>
14.457819

>  <chi0_C>
15.518297

>  <chi1>
17.387157

>  <chi1v>
11.385766

>  <chi1v_C>
5.966291

>  <chi1_C>
7.1060863

>  <chiral>
1

>  <chiral_u>
1

>  <density>
0.80288261

>  <diameter>
16

>  <FCharge>
0

>  <GCUT_PEOE_0>
-0.83742046

>  <GCUT_PEOE_1>
-0.48127198

>  <GCUT_PEOE_2>
0.10249441

>  <GCUT_PEOE_3>
2.9275744

>  <GCUT_SLOGP_0>
-0.97658724

>  <GCUT_SLOGP_1>
-0.47149578

>  <GCUT_SLOGP_2>
0.038570143

>  <GCUT_SLOGP_3>
2.8717406

>  <GCUT_SMR_0>
-0.5190537

>  <GCUT_SMR_1>
-0.24180149

>  <GCUT_SMR_2>
0.21082792

>  <GCUT_SMR_3>
3.1625257

>  <Kier1>
35.027027

>  <Kier2>
19.140625

>  <Kier3>
16.6464

>  <KierA1>
28.837088

>  <KierA2>
15.668653

>  <KierA3>
13.571065

>  <KierFlex>
12.211847

>  <lip_acc>
14

>  <lip_don>
5

>  <lip_druglike>
0

>  <lip_violation>
2

>  <logP(o/w)>
-0.25999999

>  <logS>
-1.4703701

>  <mr>
12.937316

>  <mutagenic>
0

>  <nmol>
1

>  <opr_brigid>
6

>  <opr_leadlike>
0

>  <opr_nring>
1

>  <opr_nrot>
20

>  <opr_violation>
3

>  <PC+>
0

>  <PC->
0

>  <PEOE_PC+>
4.4412279

>  <PEOE_PC->
-4.4412279

>  <PEOE_RPC+>
0.061649013

>  <PEOE_RPC->
0.07767313

>  <PEOE_VSA+0>
93.90757

>  <PEOE_VSA+1>
157.61761

>  <PEOE_VSA+2>
0

>  <PEOE_VSA+3>
0

>  <PEOE_VSA+4>
51.620865

>  <PEOE_VSA+5>
73.542496

>  <PEOE_VSA+6>
0

>  <PEOE_VSA-0>
54.167339

>  <PEOE_VSA-1>
24.509808

>  <PEOE_VSA-2>
0

>  <PEOE_VSA-3>
0

>  <PEOE_VSA-4>
0

>  <PEOE_VSA-5>
67.834602

>  <PEOE_VSA-6>
41.341457

>  <PEOE_VSA_FHYD>
0.5849033

>  <PEOE_VSA_FNEG>
0.33275345

>  <PEOE_VSA_FPNEG>
0.19338882

>  <PEOE_VSA_FPOL>
0.4150967

>  <PEOE_VSA_FPOS>
0.66724658

>  <PEOE_VSA_FPPOS>
0.2217079

>  <PEOE_VSA_HYD>
330.20233

>  <PEOE_VSA_NEG>
187.85321

>  <PEOE_VSA_PNEG>
109.17606

>  <PEOE_VSA_POL>
234.33942

>  <PEOE_VSA_POS>
376.68854

>  <PEOE_VSA_PPOS>
125.16336

>  <petitjean>
0.5

>  <petitjeanSC>
1

>  <Q_PC+>
0

>  <Q_PC->
0

>  <Q_RPC+>
0

>  <Q_RPC->
0

>  <Q_VSA_FHYD>
1

>  <Q_VSA_FNEG>
0

>  <Q_VSA_FPNEG>
0

>  <Q_VSA_FPOL>
0

>  <Q_VSA_FPOS>
1

>  <Q_VSA_FPPOS>
0

>  <Q_VSA_HYD>
564.54175

>  <Q_VSA_NEG>
0

>  <Q_VSA_PNEG>
0

>  <Q_VSA_POL>
0

>  <Q_VSA_POS>
564.54175

>  <Q_VSA_PPOS>
0

>  <radius>
8

>  <reactive>
0

>  <rings>
1

>  <RPC+>
0

>  <RPC->
0

>  <rsynth>
1

>  <SlogP>
-0.67462999

>  <SlogP_VSA0>
10.999887

>  <SlogP_VSA1>
48.100262

>  <SlogP_VSA2>
123.29305

>  <SlogP_VSA3>
295.36902

>  <SlogP_VSA4>
3.185575

>  <SlogP_VSA5>
18.868406

>  <SlogP_VSA6>
0

>  <SlogP_VSA7>
70.572739

>  <SlogP_VSA8>
0

>  <SlogP_VSA9>
38.569443

>  <SMR>
12.7735

>  <SMR_VSA0>
119.31108

>  <SMR_VSA1>
20.372829

>  <SMR_VSA2>
126.92613

>  <SMR_VSA3>
12.410972

>  <SMR_VSA4>
0

>  <SMR_VSA5>
89.441139

>  <SMR_VSA6>
207.1702

>  <SMR_VSA7>
33.326015

>  <TPSA>
205.45

>  <VAdjEq>
0.30337483

>  <VAdjMa>
6.2094536

>  <VDistEq>
3.7418838

>  <VDistMa>
10.17988

>  <vdw_area>
564.54175

>  <vdw_vol>
657.0412

>  <vsa_acc>
2.503756

>  <vsa_acid>
0

>  <vsa_base>
0

>  <vsa_don>
0

>  <vsa_hyd>
310.27206

>  <vsa_other>
73.542496

>  <vsa_pol>
138.17296

>  <Weight>
527.52698

>  <weinerPath>
4554

>  <weinerPol>
47

>  <zagreb>
170

$$$$