S(=O)(=O)(NC(=O)NC1CCCCC1)c1ccc(cc1)CCN1C(=O)C(c2c(cc(OC)cc2)C1=O)(C)C
  MOE2013           2D

 37 40  0  0  0  0  0  0  0  0999 V2000
    0.0000    0.0000    0.0000 S   0  0  0  0  0  0  0  0  0  0  0  0
    0.7550   -1.2960    0.0000 O   0  0  0  0  0  0  0  0  0  0  0  0
   -0.7550    1.2960    0.0000 O   0  0  0  0  0  0  0  0  0  0  0  0
   -1.2960   -0.7550    0.0000 N   0  0  0  0  0  0  0  0  0  0  0  0
   -2.5980   -0.0100    0.0000 C   0  0  0  0  0  0  0  0  0  0  0  0
   -2.6040    1.4900    0.0000 O   0  0  0  0  0  0  0  0  0  0  0  0
   -3.8940   -0.7640    0.0000 N   0  0  0  0  0  0  0  0  0  0  0  0
   -5.1960   -0.0190    0.0000 C   0  0  0  0  0  0  0  0  0  0  0  0
   -5.2020    1.4810    0.0000 C   0  0  0  0  0  0  0  0  0  0  0  0
   -6.5030    2.2260    0.0000 C   0  0  0  0  0  0  0  0  0  0  0  0
   -7.8000    1.4710    0.0000 C   0  0  0  0  0  0  0  0  0  0  0  0
   -7.7940   -0.0290    0.0000 C   0  0  0  0  0  0  0  0  0  0  0  0
   -6.4920   -0.7740    0.0000 C   0  0  0  0  0  0  0  0  0  0  0  0
    1.2960    0.7550    0.0000 C   0  0  0  0  0  0  0  0  0  0  0  0
    2.5980    0.0100    0.0000 C   0  0  0  0  0  0  0  0  0  0  0  0
    3.8940    0.7640    0.0000 C   0  0  0  0  0  0  0  0  0  0  0  0
    3.8890    2.2640    0.0000 C   0  0  0  0  0  0  0  0  0  0  0  0
    2.5870    3.0100    0.0000 C   0  0  0  0  0  0  0  0  0  0  0  0
    1.2910    2.2550    0.0000 C   0  0  0  0  0  0  0  0  0  0  0  0
    5.1850    3.0190    0.0000 C   0  0  0  0  0  0  0  0  0  0  0  0
    6.4870    2.2740    0.0000 C   0  0  0  0  0  0  0  0  0  0  0  0
    7.7830    3.0290    0.0000 N   0  0  0  0  0  0  0  0  0  0  0  0
    7.7770    4.5290    0.0000 C   0  0  0  0  0  0  0  0  0  0  0  0
    6.4760    5.2740    0.0000 O   0  0  0  0  0  0  0  0  0  0  0  0
    9.0740    5.2840    0.0000 C   0  0  0  0  0  0  0  0  0  0  0  0
   10.3760    4.5390    0.0000 C   0  0  0  0  0  0  0  0  0  0  0  0
   10.3810    3.0390    0.0000 C   0  0  0  0  0  0  0  0  0  0  0  0
   11.6830    2.2930    0.0000 C   0  0  0  0  0  0  0  0  0  0  0  0
   12.9790    3.0480    0.0000 C   0  0  0  0  0  0  0  0  0  0  0  0
   14.2810    2.3030    0.0000 O   0  0  0  0  0  0  0  0  0  0  0  0
   15.5770    3.0580    0.0000 C   0  0  0  0  0  0  0  0  0  0  0  0
   12.9740    4.5480    0.0000 C   0  0  0  0  0  0  0  0  0  0  0  0
   11.6720    5.2930    0.0000 C   0  0  0  0  0  0  0  0  0  0  0  0
    9.0850    2.2840    0.0000 C   0  0  0  0  0  0  0  0  0  0  0  0
    9.0900    0.7840    0.0000 O   0  0  0  0  0  0  0  0  0  0  0  0
    8.3190    6.5800    0.0000 C   0  0  0  0  0  0  0  0  0  0  0  0
    9.8190    6.5860    0.0000 C   0  0  0  0  0  0  0  0  0  0  0  0
  1  2  2  0  0  0  0
  1  3  2  0  0  0  0
  1  4  1  0  0  0  0
  1 14  1  0  0  0  0
  4  5  1  0  0  0  0
  5  6  2  0  0  0  0
  5  7  1  0  0  0  0
  7  8  1  0  0  0  0
  8  9  1  0  0  0  0
  8 13  1  0  0  0  0
  9 10  1  0  0  0  0
 10 11  1  0  0  0  0
 11 12  1  0  0  0  0
 12 13  1  0  0  0  0
 14 15  1  0  0  0  0
 14 19  2  0  0  0  0
 15 16  2  0  0  0  0
 16 17  1  0  0  0  0
 17 18  2  0  0  0  0
 17 20  1  0  0  0  0
 18 19  1  0  0  0  0
 20 21  1  0  0  0  0
 21 22  1  0  0  0  0
 22 23  1  0  0  0  0
 22 34  1  0  0  0  0
 23 24  2  0  0  0  0
 23 25  1  0  0  0  0
 25 26  1  0  0  0  0
 25 36  1  0  0  0  0
 25 37  1  0  0  0  0
 26 27  1  0  0  0  0
 26 33  2  0  0  0  0
 27 28  2  0  0  0  0
 27 34  1  0  0  0  0
 28 29  1  0  0  0  0
 29 30  1  0  0  0  0
 29 32  2  0  0  0  0
 30 31  1  0  0  0  0
 32 33  1  0  0  0  0
 34 35  2  0  0  0  0
M  END
>  <Index>
494

>  <ID>
HT0989

>  <class>
0

>  <apol>
80.536171

>  <ast_fraglike>
0

>  <ast_fraglike_ext>
0

>  <ast_violation>
3

>  <ast_violation_ext>
5

>  <a_acc>
6

>  <a_acid>
0

>  <a_aro>
12

>  <a_base>
0

>  <a_count>
70

>  <a_don>
2

>  <a_donacc>
8

>  <a_heavy>
37

>  <a_hyd>
24

>  <a_IC>
113.93818

>  <a_ICM>
1.6276883

>  <a_nB>
0

>  <a_nBr>
0

>  <a_nC>
27

>  <a_nCl>
0

>  <a_nF>
0

>  <a_nH>
33

>  <a_nI>
0

>  <a_nN>
3

>  <a_nO>
6

>  <a_nP>
0

>  <a_nS>
1

>  <balabanJ>
1.2508949

>  <BCUT_PEOE_0>
-2.8065374

>  <BCUT_PEOE_1>
-0.58825821

>  <BCUT_PEOE_2>
0.54497325

>  <BCUT_PEOE_3>
2.7123113

>  <BCUT_SLOGP_0>
-2.7951717

>  <BCUT_SLOGP_1>
-0.50877786

>  <BCUT_SLOGP_2>
0.60385817

>  <BCUT_SLOGP_3>
2.8320704

>  <BCUT_SMR_0>
-2.5291383

>  <BCUT_SMR_1>
-0.34230131

>  <BCUT_SMR_2>
0.71188927

>  <BCUT_SMR_3>
2.9867795

>  <bpol>
50.64183

>  <b_1rotN>
7

>  <b_1rotR>
0.175

>  <b_ar>
12

>  <b_count>
73

>  <b_double>
3

>  <b_heavy>
40

>  <b_max1len>
4

>  <b_rotN>
9

>  <b_rotR>
0.22499999

>  <b_single>
58

>  <b_triple>
0

>  <chi0>
26.794317

>  <chi0v>
22.189999

>  <chi0v_C>
17.06855

>  <chi0_C>
18.595648

>  <chi1>
17.524042

>  <chi1v>
13.981057

>  <chi1v_C>
8.9794512

>  <chi1_C>
10.734748

>  <chiral>
0

>  <chiral_u>
0

>  <density>
0.76936364

>  <diameter>
20

>  <FCharge>
0

>  <GCUT_PEOE_0>
-0.91882563

>  <GCUT_PEOE_1>
-0.39629653

>  <GCUT_PEOE_2>
-0.0015914531

>  <GCUT_PEOE_3>
2.8484724

>  <GCUT_SLOGP_0>
-1.1809591

>  <GCUT_SLOGP_1>
-0.35169083

>  <GCUT_SLOGP_2>
0.13178591

>  <GCUT_SLOGP_3>
2.8698418

>  <GCUT_SMR_0>
-0.52668732

>  <GCUT_SMR_1>
-0.20670395

>  <GCUT_SMR_2>
0.14463663

>  <GCUT_SMR_3>
3.1061628

>  <Kier1>
29.969999

>  <Kier2>
12.668774

>  <Kier3>
7.0190587

>  <KierA1>
24.262955

>  <KierA2>
10.192898

>  <KierA3>
5.6221189

>  <KierFlex>
6.6840491

>  <lip_acc>
9

>  <lip_don>
2

>  <lip_druglike>
1

>  <lip_violation>
1

>  <logP(o/w)>
4.8759999

>  <logS>
-6.0170298

>  <mr>
14.142973

>  <mutagenic>
0

>  <nmol>
1

>  <opr_brigid>
23

>  <opr_leadlike>
0

>  <opr_nring>
4

>  <opr_nrot>
8

>  <opr_violation>
2

>  <PC+>
0

>  <PC->
0

>  <PEOE_PC+>
2.9836845

>  <PEOE_PC->
-2.9836845

>  <PEOE_RPC+>
0.10609256

>  <PEOE_RPC->
0.16556945

>  <PEOE_VSA+0>
154.48143

>  <PEOE_VSA+1>
59.731392

>  <PEOE_VSA+2>
17.440542

>  <PEOE_VSA+3>
8.6190128

>  <PEOE_VSA+4>
23.05514

>  <PEOE_VSA+5>
12.949531

>  <PEOE_VSA+6>
4.1846013

>  <PEOE_VSA-0>
152.19847

>  <PEOE_VSA-1>
38.358845

>  <PEOE_VSA-2>
0

>  <PEOE_VSA-3>
2.5295215

>  <PEOE_VSA-4>
0

>  <PEOE_VSA-5>
27.133842

>  <PEOE_VSA-6>
16.207567

>  <PEOE_VSA_FHYD>
0.83839756

>  <PEOE_VSA_FNEG>
0.45740542

>  <PEOE_VSA_FPNEG>
0.083850369

>  <PEOE_VSA_FPOL>
0.16160247

>  <PEOE_VSA_FPOS>
0.54259455

>  <PEOE_VSA_FPPOS>
0.077752091

>  <PEOE_VSA_HYD>
433.35922

>  <PEOE_VSA_NEG>
236.42825

>  <PEOE_VSA_PNEG>
43.341408

>  <PEOE_VSA_POL>
83.530678

>  <PEOE_VSA_POS>
280.46167

>  <PEOE_VSA_PPOS>
40.18927

>  <petitjean>
0.5

>  <petitjeanSC>
1

>  <Q_PC+>
0

>  <Q_PC->
0

>  <Q_RPC+>
0

>  <Q_RPC->
0

>  <Q_VSA_FHYD>
1

>  <Q_VSA_FNEG>
0

>  <Q_VSA_FPNEG>
0

>  <Q_VSA_FPOL>
0

>  <Q_VSA_FPOS>
1

>  <Q_VSA_FPPOS>
0

>  <Q_VSA_HYD>
516.88989

>  <Q_VSA_NEG>
0

>  <Q_VSA_PNEG>
0

>  <Q_VSA_POL>
0

>  <Q_VSA_POS>
516.88989

>  <Q_VSA_PPOS>
0

>  <radius>
10

>  <reactive>
0

>  <rings>
4

>  <RPC+>
0

>  <RPC->
0

>  <rsynth>
1

>  <SlogP>
3.51847

>  <SlogP_VSA0>
45.415634

>  <SlogP_VSA1>
66.643524

>  <SlogP_VSA2>
34.484928

>  <SlogP_VSA3>
18.439579

>  <SlogP_VSA4>
33.418941

>  <SlogP_VSA5>
55.803009

>  <SlogP_VSA6>
0

>  <SlogP_VSA7>
123.50229

>  <SlogP_VSA8>
94.342026

>  <SlogP_VSA9>
95.757675

>  <SMR>
13.79357

>  <SMR_VSA0>
119.75834

>  <SMR_VSA1>
14.124202

>  <SMR_VSA2>
35.96648

>  <SMR_VSA3>
18.782122

>  <SMR_VSA4>
0

>  <SMR_VSA5>
236.71272

>  <SMR_VSA6>
33.787102

>  <SMR_VSA7>
108.67664

>  <TPSA>
121.88

>  <VAdjEq>
0.32120815

>  <VAdjMa>
6.321928

>  <VDistEq>
4.06813

>  <VDistMa>
10.090274

>  <vdw_area>
516.88989

>  <vdw_vol>
685.8161

>  <vsa_acc>
75.221039

>  <vsa_acid>
0

>  <vsa_base>
0

>  <vsa_don>
13.757783

>  <vsa_hyd>
346.25357

>  <vsa_other>
53.445213

>  <vsa_pol>
88.978821

>  <Weight>
527.64197

>  <weinerPath>
5028

>  <weinerPol>
65

>  <zagreb>
198

$$$$