F[C@@H]1C2=CC(=O)C=C[C@@]2([C@@H]2[C@H]([C@@H]3C[C@H]4OC(O[C@@]4(C(=O)CO)[C@]3(C[C@@H]2O)C)(C)C)C1)C
  MOE2013           2D

 31 35  0  0  1  0  0  0  0  0999 V2000
    0.0000    0.0000    0.0000 F   0  0  0  0  0  0  0  0  0  0  0  0
   -0.7560    1.2960    0.0000 C   0  0  2  0  0  0  0  0  0  0  0  0
   -0.0110    2.5980    0.0000 C   0  0  0  0  0  0  0  0  0  0  0  0
    1.4880    2.6050    0.0000 C   0  0  0  0  0  0  0  0  0  0  0  0
    2.2330    3.9070    0.0000 C   0  0  0  0  0  0  0  0  0  0  0  0
    3.7330    3.9140    0.0000 O   0  0  0  0  0  0  0  0  0  0  0  0
    1.4770    5.2030    0.0000 C   0  0  0  0  0  0  0  0  0  0  0  0
   -0.0230    5.1960    0.0000 C   0  0  0  0  0  0  0  0  0  0  0  0
   -0.7670    3.8940    0.0000 C   0  0  2  0  0  0  0  0  0  0  0  0
   -2.2670    3.8870    0.0000 C   0  0  2  0  0  0  0  0  0  0  0  0
   -3.0110    2.5850    0.0000 C   0  0  2  0  0  0  0  0  0  0  0  0
   -4.5110    2.5780    0.0000 C   0  0  2  0  0  0  0  0  0  0  0  0
   -5.5100    1.4590    0.0000 C   0  0  0  0  0  0  0  0  0  0  0  0
   -6.8830    2.0630    0.0000 C   0  0  1  0  0  0  0  0  0  0  0  0
   -8.3490    1.7450    0.0000 O   0  0  0  0  0  0  0  0  0  0  0  0
   -9.1050    3.0400    0.0000 C   0  0  0  0  0  0  0  0  0  0  0  0
   -8.1060    4.1600    0.0000 O   0  0  0  0  0  0  0  0  0  0  0  0
   -6.7330    3.5560    0.0000 C   0  0  2  0  0  0  0  0  0  0  0  0
   -7.1280    5.0030    0.0000 C   0  0  0  0  0  0  0  0  0  0  0  0
   -6.0720    6.0680    0.0000 O   0  0  0  0  0  0  0  0  0  0  0  0
   -8.5780    5.3840    0.0000 C   0  0  0  0  0  0  0  0  0  0  0  0
   -8.9730    6.8320    0.0000 O   0  0  0  0  0  0  0  0  0  0  0  0
   -5.2670    3.8740    0.0000 C   0  0  1  0  0  0  0  0  0  0  0  0
   -4.5230    5.1760    0.0000 C   0  0  0  0  0  0  0  0  0  0  0  0
   -3.0230    5.1830    0.0000 C   0  0  2  0  0  0  0  0  0  0  0  0
   -2.2790    6.4850    0.0000 O   0  0  0  0  0  0  0  0  0  0  0  0
   -5.9070    5.2310    0.0000 C   0  0  0  0  0  0  0  0  0  0  0  0
  -10.3180    3.9220    0.0000 C   0  0  0  0  0  0  0  0  0  0  0  0
  -10.4470    2.3710    0.0000 C   0  0  0  0  0  0  0  0  0  0  0  0
   -2.2560    1.2890    0.0000 C   0  0  0  0  0  0  0  0  0  0  0  0
   -1.5230    5.1890    0.0000 C   0  0  0  0  0  0  0  0  0  0  0  0
  2  1  1  1  0  0  0
  2  3  1  0  0  0  0
  2 30  1  0  0  0  0
  3  4  2  0  0  0  0
  3  9  1  0  0  0  0
  4  5  1  0  0  0  0
  5  6  2  0  0  0  0
  5  7  1  0  0  0  0
  7  8  2  0  0  0  0
  8  9  1  0  0  0  0
  9 31  1  6  0  0  0
 10  9  1  6  0  0  0
 10 11  1  0  0  0  0
 10 25  1  0  0  0  0
 11 12  1  0  0  0  0
 11 30  1  1  0  0  0
 12 13  1  6  0  0  0
 12 23  1  0  0  0  0
 13 14  1  0  0  0  0
 14 15  1  1  0  0  0
 14 18  1  0  0  0  0
 15 16  1  0  0  0  0
 16 17  1  0  0  0  0
 16 28  1  0  0  0  0
 16 29  1  0  0  0  0
 17 18  1  0  0  0  0
 18 19  1  6  0  0  0
 18 23  1  0  0  0  0
 19 20  2  0  0  0  0
 19 21  1  0  0  0  0
 21 22  1  0  0  0  0
 23 24  1  0  0  0  0
 23 27  1  6  0  0  0
 24 25  1  0  0  0  0
 25 26  1  6  0  0  0
M  END
>  <Index>
443

>  <ID>
HT0901

>  <class>
0

>  <apol>
68.279587

>  <ast_fraglike>
0

>  <ast_fraglike_ext>
0

>  <ast_violation>
2

>  <ast_violation_ext>
2

>  <a_acc>
6

>  <a_acid>
0

>  <a_aro>
0

>  <a_base>
0

>  <a_count>
62

>  <a_don>
2

>  <a_donacc>
8

>  <a_heavy>
31

>  <a_hyd>
22

>  <a_IC>
90.031212

>  <a_ICM>
1.4521163

>  <a_nB>
0

>  <a_nBr>
0

>  <a_nC>
24

>  <a_nCl>
0

>  <a_nF>
1

>  <a_nH>
31

>  <a_nI>
0

>  <a_nN>
0

>  <a_nO>
6

>  <a_nP>
0

>  <a_nS>
0

>  <balabanJ>
1.5659591

>  <BCUT_PEOE_0>
-2.9132485

>  <BCUT_PEOE_1>
-0.49520126

>  <BCUT_PEOE_2>
0.48786283

>  <BCUT_PEOE_3>
3.0082793

>  <BCUT_SLOGP_0>
-2.9069464

>  <BCUT_SLOGP_1>
-0.43322834

>  <BCUT_SLOGP_2>
0.49939454

>  <BCUT_SLOGP_3>
2.9951327

>  <BCUT_SMR_0>
-2.6758537

>  <BCUT_SMR_1>
-0.33611858

>  <BCUT_SMR_2>
0.6284036

>  <BCUT_SMR_3>
3.2348301

>  <bpol>
40.840416

>  <b_1rotN>
2

>  <b_1rotR>
0.057142857

>  <b_ar>
0

>  <b_count>
66

>  <b_double>
4

>  <b_heavy>
35

>  <b_max1len>
4

>  <b_rotN>
2

>  <b_rotR>
0.057142857

>  <b_single>
62

>  <b_triple>
0

>  <chi0>
22.560114

>  <chi0v>
18.429964

>  <chi0v_C>
15.52458

>  <chi0_C>
16.145901

>  <chi1>
14.393467

>  <chi1v>
11.19005

>  <chi1v_C>
9.1410828

>  <chi1_C>
9.9080505

>  <chiral>
9

>  <chiral_u>
0

>  <density>
0.77206773

>  <diameter>
12

>  <FCharge>
0

>  <GCUT_PEOE_0>
-0.79905236

>  <GCUT_PEOE_1>
-0.37961552

>  <GCUT_PEOE_2>
0.019583717

>  <GCUT_PEOE_3>
3.425142

>  <GCUT_SLOGP_0>
-0.94960445

>  <GCUT_SLOGP_1>
-0.34088832

>  <GCUT_SLOGP_2>
0.0047307014

>  <GCUT_SLOGP_3>
3.4364688

>  <GCUT_SMR_0>
-0.53677213

>  <GCUT_SMR_1>
-0.21480526

>  <GCUT_SMR_2>
0.1426997

>  <GCUT_SMR_3>
3.6407869

>  <Kier1>
22.775511

>  <Kier2>
7.0083332

>  <Kier3>
2.8402367

>  <KierA1>
20.221441

>  <KierA2>
6.1966958

>  <KierA3>
2.5037131

>  <KierFlex>
4.0421329

>  <lip_acc>
6

>  <lip_don>
2

>  <lip_druglike>
1

>  <lip_violation>
0

>  <logP(o/w)>
3.266

>  <logS>
-4.31704

>  <mr>
10.987306

>  <mutagenic>
0

>  <nmol>
1

>  <opr_brigid>
24

>  <opr_leadlike>
1

>  <opr_nring>
5

>  <opr_nrot>
2

>  <opr_violation>
1

>  <PC+>
0

>  <PC->
0

>  <PEOE_PC+>
2.6330028

>  <PEOE_PC->
-2.6330028

>  <PEOE_RPC+>
0.079745233

>  <PEOE_RPC->
0.14866881

>  <PEOE_VSA+0>
89.573105

>  <PEOE_VSA+1>
43.932945

>  <PEOE_VSA+2>
20.418549

>  <PEOE_VSA+3>
18.025583

>  <PEOE_VSA+4>
20.648346

>  <PEOE_VSA+5>
0

>  <PEOE_VSA+6>
0

>  <PEOE_VSA-0>
90.317642

>  <PEOE_VSA-1>
49.750259

>  <PEOE_VSA-2>
0

>  <PEOE_VSA-3>
0

>  <PEOE_VSA-4>
11.908636

>  <PEOE_VSA-5>
27.133842

>  <PEOE_VSA-6>
20.542593

>  <PEOE_VSA_FHYD>
0.79545414

>  <PEOE_VSA_FNEG>
0.50899225

>  <PEOE_VSA_FPNEG>
0.15190527

>  <PEOE_VSA_FPOL>
0.20454584

>  <PEOE_VSA_FPOS>
0.49100775

>  <PEOE_VSA_FPPOS>
0.052640576

>  <PEOE_VSA_HYD>
312.0181

>  <PEOE_VSA_NEG>
199.65297

>  <PEOE_VSA_PNEG>
59.585072

>  <PEOE_VSA_POL>
80.233414

>  <PEOE_VSA_POS>
192.59853

>  <PEOE_VSA_PPOS>
20.648346

>  <petitjean>
0.5

>  <petitjeanSC>
1

>  <Q_PC+>
0

>  <Q_PC->
0

>  <Q_RPC+>
0

>  <Q_RPC->
0

>  <Q_VSA_FHYD>
1

>  <Q_VSA_FNEG>
0

>  <Q_VSA_FPNEG>
0

>  <Q_VSA_FPOL>
0

>  <Q_VSA_FPOS>
1

>  <Q_VSA_FPPOS>
0

>  <Q_VSA_HYD>
392.2515

>  <Q_VSA_NEG>
0

>  <Q_VSA_PNEG>
0

>  <Q_VSA_POL>
0

>  <Q_VSA_POS>
392.2515

>  <Q_VSA_PPOS>
0

>  <radius>
6

>  <reactive>
1

>  <rings>
5

>  <RPC+>
0

>  <RPC->
0

>  <rsynth>
0.38709676

>  <SlogP>
2.2746999

>  <SlogP_VSA0>
50.770454

>  <SlogP_VSA1>
11.375222

>  <SlogP_VSA2>
93.007744

>  <SlogP_VSA3>
20.926258

>  <SlogP_VSA4>
13.232388

>  <SlogP_VSA5>
3.185575

>  <SlogP_VSA6>
0

>  <SlogP_VSA7>
52.929554

>  <SlogP_VSA8>
56.605217

>  <SlogP_VSA9>
148.26418

>  <SMR>
10.85286

>  <SMR_VSA0>
69.724205

>  <SMR_VSA1>
65.730568

>  <SMR_VSA2>
13.232388

>  <SMR_VSA3>
26.469112

>  <SMR_VSA4>
0

>  <SMR_VSA5>
109.53477

>  <SMR_VSA6>
32.301479

>  <SMR_VSA7>
133.30406

>  <TPSA>
93.059998

>  <VAdjEq>
0.37643659

>  <VAdjMa>
6.129283

>  <VDistEq>
3.2610309

>  <VDistMa>
9.6565742

>  <vdw_area>
392.2515

>  <vdw_vol>
562.7796

>  <vsa_acc>
32.141354

>  <vsa_acid>
0

>  <vsa_base>
0

>  <vsa_don>
0

>  <vsa_hyd>
281.22391

>  <vsa_other>
18.025583

>  <vsa_pol>
59.275196

>  <Weight>
434.504

>  <weinerPath>
2209

>  <weinerPol>
72

>  <zagreb>
190

$$$$