S(=O)(=O)(Nc1ncc(OCCOC)cn1)c1ccccc1
  MOE2013           2D

 21 22  0  0  0  0  0  0  0  0999 V2000
    0.0000    0.0000    0.0000 S   0  0  0  0  0  0  0  0  0  0  0  0
    0.7400   -1.3050    0.0000 O   0  0  0  0  0  0  0  0  0  0  0  0
   -0.7400    1.3050    0.0000 O   0  0  0  0  0  0  0  0  0  0  0  0
    1.3050    0.7400    0.0000 N   0  0  0  0  0  0  0  0  0  0  0  0
    2.5980   -0.0200    0.0000 C   0  0  0  0  0  0  0  0  0  0  0  0
    3.9030    0.7190    0.0000 N   0  0  0  0  0  0  0  0  0  0  0  0
    5.1960   -0.0410    0.0000 C   0  0  0  0  0  0  0  0  0  0  0  0
    5.1840   -1.5410    0.0000 C   0  0  0  0  0  0  0  0  0  0  0  0
    6.4770   -2.3010    0.0000 O   0  0  0  0  0  0  0  0  0  0  0  0
    7.7820   -1.5610    0.0000 C   0  0  0  0  0  0  0  0  0  0  0  0
    9.0750   -2.3210    0.0000 C   0  0  0  0  0  0  0  0  0  0  0  0
   10.3800   -1.5810    0.0000 O   0  0  0  0  0  0  0  0  0  0  0  0
   11.6730   -2.3420    0.0000 C   0  0  0  0  0  0  0  0  0  0  0  0
    3.8790   -2.2800    0.0000 C   0  0  0  0  0  0  0  0  0  0  0  0
    2.5860   -1.5200    0.0000 N   0  0  0  0  0  0  0  0  0  0  0  0
   -1.3050   -0.7400    0.0000 C   0  0  0  0  0  0  0  0  0  0  0  0
   -1.3170   -2.2400    0.0000 C   0  0  0  0  0  0  0  0  0  0  0  0
   -2.6210   -2.9800    0.0000 C   0  0  0  0  0  0  0  0  0  0  0  0
   -3.9150   -2.2190    0.0000 C   0  0  0  0  0  0  0  0  0  0  0  0
   -3.9030   -0.7190    0.0000 C   0  0  0  0  0  0  0  0  0  0  0  0
   -2.5980    0.0200    0.0000 C   0  0  0  0  0  0  0  0  0  0  0  0
  1  2  2  0  0  0  0
  1  3  2  0  0  0  0
  1  4  1  0  0  0  0
  1 16  1  0  0  0  0
  4  5  1  0  0  0  0
  5  6  1  0  0  0  0
  5 15  2  0  0  0  0
  6  7  2  0  0  0  0
  7  8  1  0  0  0  0
  8  9  1  0  0  0  0
  8 14  2  0  0  0  0
  9 10  1  0  0  0  0
 10 11  1  0  0  0  0
 11 12  1  0  0  0  0
 12 13  1  0  0  0  0
 14 15  1  0  0  0  0
 16 17  1  0  0  0  0
 16 21  2  0  0  0  0
 17 18  2  0  0  0  0
 18 19  1  0  0  0  0
 19 20  2  0  0  0  0
 20 21  1  0  0  0  0
M  END
>  <Index>
500

>  <ID>
HT0998

>  <class>
0

>  <apol>
42.289894

>  <ast_fraglike>
0

>  <ast_fraglike_ext>
0

>  <ast_violation>
2

>  <ast_violation_ext>
3

>  <a_acc>
6

>  <a_acid>
0

>  <a_aro>
12

>  <a_base>
0

>  <a_count>
36

>  <a_don>
1

>  <a_donacc>
7

>  <a_heavy>
21

>  <a_hyd>
12

>  <a_IC>
66.653336

>  <a_ICM>
1.8514816

>  <a_nB>
0

>  <a_nBr>
0

>  <a_nC>
13

>  <a_nCl>
0

>  <a_nF>
0

>  <a_nH>
15

>  <a_nI>
0

>  <a_nN>
3

>  <a_nO>
4

>  <a_nP>
0

>  <a_nS>
1

>  <balabanJ>
1.6978515

>  <BCUT_PEOE_0>
-2.448072

>  <BCUT_PEOE_1>
-0.54751891

>  <BCUT_PEOE_2>
0.59632266

>  <BCUT_PEOE_3>
2.4520979

>  <BCUT_SLOGP_0>
-2.5469325

>  <BCUT_SLOGP_1>
-0.45989066

>  <BCUT_SLOGP_2>
0.67261243

>  <BCUT_SLOGP_3>
2.3785086

>  <BCUT_SMR_0>
-2.209636

>  <BCUT_SMR_1>
-0.41447839

>  <BCUT_SMR_2>
0.75869858

>  <BCUT_SMR_3>
2.759964

>  <bpol>
30.006105

>  <b_1rotN>
7

>  <b_1rotR>
0.31818181

>  <b_ar>
12

>  <b_count>
37

>  <b_double>
0

>  <b_heavy>
22

>  <b_max1len>
5

>  <b_rotN>
7

>  <b_rotR>
0.31818181

>  <b_single>
25

>  <b_triple>
0

>  <chi0>
15.131546

>  <chi0v>
12.20783

>  <chi0v_C>
7.9556656

>  <chi0_C>
9.0960121

>  <chi1>
10.115321

>  <chi1v>
7.6161127

>  <chi1v_C>
2.9880338

>  <chi1_C>
4.1329932

>  <chiral>
0

>  <chiral_u>
0

>  <density>
0.82439083

>  <diameter>
14

>  <FCharge>
0

>  <GCUT_PEOE_0>
-0.83962661

>  <GCUT_PEOE_1>
-0.37439811

>  <GCUT_PEOE_2>
0.061919551

>  <GCUT_PEOE_3>
2.3274739

>  <GCUT_SLOGP_0>
-0.94353896

>  <GCUT_SLOGP_1>
-0.38074651

>  <GCUT_SLOGP_2>
0.14346558

>  <GCUT_SLOGP_3>
2.3678596

>  <GCUT_SMR_0>
-0.51322156

>  <GCUT_SMR_1>
-0.18824485

>  <GCUT_SMR_2>
0.16882332

>  <GCUT_SMR_3>
2.6094499

>  <Kier1>
17.355371

>  <Kier2>
8.5850182

>  <Kier3>
5.6055365

>  <KierA1>
14.210814

>  <KierA2>
6.9545488

>  <KierA3>
4.5036449

>  <KierFlex>
4.706181

>  <lip_acc>
7

>  <lip_don>
1

>  <lip_druglike>
1

>  <lip_violation>
0

>  <logP(o/w)>
0.26973999

>  <logS>
-2.7443399

>  <mr>
7.975368

>  <mutagenic>
0

>  <nmol>
1

>  <opr_brigid>
12

>  <opr_leadlike>
1

>  <opr_nring>
2

>  <opr_nrot>
6

>  <opr_violation>
0

>  <PC+>
0

>  <PC->
0

>  <PEOE_PC+>
1.8967525

>  <PEOE_PC->
-1.8967525

>  <PEOE_RPC+>
0.16352919

>  <PEOE_RPC->
0.20688845

>  <PEOE_VSA+0>
65.189041

>  <PEOE_VSA+1>
98.076508

>  <PEOE_VSA+2>
8.6190128

>  <PEOE_VSA+3>
0

>  <PEOE_VSA+4>
10.105608

>  <PEOE_VSA+5>
0

>  <PEOE_VSA+6>
4.1846013

>  <PEOE_VSA-0>
65.508354

>  <PEOE_VSA-1>
39.294231

>  <PEOE_VSA-2>
0

>  <PEOE_VSA-3>
0

>  <PEOE_VSA-4>
0

>  <PEOE_VSA-5>
0

>  <PEOE_VSA-6>
16.372663

>  <PEOE_VSA_FHYD>
0.9002347

>  <PEOE_VSA_FNEG>
0.39425814

>  <PEOE_VSA_FPNEG>
0.053270418

>  <PEOE_VSA_FPOL>
0.099765323

>  <PEOE_VSA_FPOS>
0.60574186

>  <PEOE_VSA_FPPOS>
0.046494905

>  <PEOE_VSA_HYD>
276.68716

>  <PEOE_VSA_NEG>
121.17525

>  <PEOE_VSA_PNEG>
16.372663

>  <PEOE_VSA_POL>
30.662874

>  <PEOE_VSA_POS>
186.17477

>  <PEOE_VSA_PPOS>
14.29021

>  <petitjean>
0.5

>  <petitjeanSC>
1

>  <Q_PC+>
0

>  <Q_PC->
0

>  <Q_RPC+>
0

>  <Q_RPC->
0

>  <Q_VSA_FHYD>
1

>  <Q_VSA_FNEG>
0

>  <Q_VSA_FPNEG>
0

>  <Q_VSA_FPOL>
0

>  <Q_VSA_FPOS>
1

>  <Q_VSA_FPPOS>
0

>  <Q_VSA_HYD>
307.35004

>  <Q_VSA_NEG>
0

>  <Q_VSA_PNEG>
0

>  <Q_VSA_POL>
0

>  <Q_VSA_POS>
307.35004

>  <Q_VSA_PPOS>
0

>  <radius>
7

>  <reactive>
0

>  <rings>
2

>  <RPC+>
0

>  <RPC->
0

>  <rsynth>
1

>  <SlogP>
1.3026

>  <SlogP_VSA0>
10.999887

>  <SlogP_VSA1>
98.147743

>  <SlogP_VSA2>
17.640631

>  <SlogP_VSA3>
41.852516

>  <SlogP_VSA4>
0

>  <SlogP_VSA5>
36.934601

>  <SlogP_VSA6>
0

>  <SlogP_VSA7>
122.64464

>  <SlogP_VSA8>
0

>  <SlogP_VSA9>
7.1425209

>  <SMR>
7.66535

>  <SMR_VSA0>
59.171577

>  <SMR_VSA1>
44.570946

>  <SMR_VSA2>
1.5507339

>  <SMR_VSA3>
5.2434282

>  <SMR_VSA4>
18.30409

>  <SMR_VSA5>
122.64464

>  <SMR_VSA6>
41.852516

>  <SMR_VSA7>
42.024612

>  <TPSA>
90.410004

>  <VAdjEq>
0.46827638

>  <VAdjMa>
5.4594316

>  <VDistEq>
3.5067382

>  <VDistMa>
8.4392977

>  <vdw_area>
307.35004

>  <vdw_vol>
375.24194

>  <vsa_acc>
48.389187

>  <vsa_acid>
0

>  <vsa_base>
0

>  <vsa_don>
8.0752068

>  <vsa_hyd>
212.05998

>  <vsa_other>
25.787182

>  <vsa_pol>
56.464394

>  <Weight>
309.34601

>  <weinerPath>
1082

>  <weinerPol>
28

>  <zagreb>
102

$$$$