FC=1C=NC(=O)NC=1N
  MOE2013           2D

  9  9  0  0  0  0  0  0  0  0999 V2000
    0.0000    0.0000    0.0000 F   0  0  0  0  0  0  0  0  0  0  0  0
    1.5000    0.0040    0.0000 C   0  0  0  0  0  0  0  0  0  0  0  0
    2.2540   -1.2930    0.0000 C   0  0  0  0  0  0  0  0  0  0  0  0
    3.7540   -1.2880    0.0000 N   0  0  0  0  0  0  0  0  0  0  0  0
    4.5000    0.0130    0.0000 C   0  0  0  0  0  0  0  0  0  0  0  0
    6.0000    0.0170    0.0000 O   0  0  0  0  0  0  0  0  0  0  0  0
    3.7460    1.3100    0.0000 N   0  0  0  0  0  0  0  0  0  0  0  0
    2.2460    1.3060    0.0000 C   0  0  0  0  0  0  0  0  0  0  0  0
    1.4930    2.6020    0.0000 N   0  0  0  0  0  0  0  0  0  0  0  0
  1  2  1  0  0  0  0
  2  3  1  0  0  0  0
  2  8  2  0  0  0  0
  3  4  2  0  0  0  0
  4  5  1  0  0  0  0
  5  6  2  0  0  0  0
  5  7  1  0  0  0  0
  7  8  1  0  0  0  0
  8  9  1  0  0  0  0
M  END
>  <Index>
436

>  <ID>
HT0890

>  <class>
0

>  <apol>
14.366172

>  <ast_fraglike>
1

>  <ast_fraglike_ext>
1

>  <ast_violation>
0

>  <ast_violation_ext>
0

>  <a_acc>
2

>  <a_acid>
0

>  <a_aro>
0

>  <a_base>
0

>  <a_count>
13

>  <a_don>
2

>  <a_donacc>
4

>  <a_heavy>
9

>  <a_hyd>
2

>  <a_IC>
27.350828

>  <a_ICM>
2.10391

>  <a_nB>
0

>  <a_nBr>
0

>  <a_nC>
4

>  <a_nCl>
0

>  <a_nF>
1

>  <a_nH>
4

>  <a_nI>
0

>  <a_nN>
3

>  <a_nO>
1

>  <a_nP>
0

>  <a_nS>
0

>  <balabanJ>
2.4024007

>  <BCUT_PEOE_0>
-2.2627666

>  <BCUT_PEOE_1>
-0.59460437

>  <BCUT_PEOE_2>
0.59763485

>  <BCUT_PEOE_3>
2.2528608

>  <BCUT_SLOGP_0>
-2.5544479

>  <BCUT_SLOGP_1>
-0.44080564

>  <BCUT_SLOGP_2>
0.74261177

>  <BCUT_SLOGP_3>
2.1218593

>  <BCUT_SMR_0>
-1.9492327

>  <BCUT_SMR_1>
-0.39378414

>  <BCUT_SMR_2>
0.76092845

>  <BCUT_SMR_3>
2.5491393

>  <bpol>
7.853828

>  <b_1rotN>
0

>  <b_1rotR>
0

>  <b_ar>
0

>  <b_count>
13

>  <b_double>
3

>  <b_heavy>
9

>  <b_max1len>
2

>  <b_rotN>
0

>  <b_rotR>
0

>  <b_single>
10

>  <b_triple>
0

>  <chi0>
6.8533711

>  <chi0v>
4.3881269

>  <chi0v_C>
2.0773504

>  <chi0_C>
2.4391575

>  <chi1>
4.1983771

>  <chi1v>
2.2022624

>  <chi1v_C>
0.53867513

>  <chi1_C>
0.74158162

>  <chiral>
0

>  <chiral_u>
0

>  <density>
0.94542187

>  <diameter>
5

>  <FCharge>
0

>  <GCUT_PEOE_0>
-0.79685509

>  <GCUT_PEOE_1>
-0.46769777

>  <GCUT_PEOE_2>
0.096525177

>  <GCUT_PEOE_3>
1.8722513

>  <GCUT_SLOGP_0>
-1.3399937

>  <GCUT_SLOGP_1>
-0.31054565

>  <GCUT_SLOGP_2>
0.309282

>  <GCUT_SLOGP_3>
1.8093666

>  <GCUT_SMR_0>
-0.44758856

>  <GCUT_SMR_1>
-0.20656486

>  <GCUT_SMR_2>
0.20139021

>  <GCUT_SMR_3>
2.1449308

>  <Kier1>
7.1111112

>  <Kier2>
2.7222223

>  <Kier3>
1.704142

>  <KierA1>
4.3430352

>  <KierA2>
1.5430322

>  <KierA3>
0.89664644

>  <KierFlex>
0.74460477

>  <lip_acc>
4

>  <lip_don>
3

>  <lip_druglike>
1

>  <lip_violation>
0

>  <logP(o/w)>
0.101

>  <logS>
-0.80316001

>  <mr>
2.8003473

>  <mutagenic>
0

>  <nmol>
1

>  <opr_brigid>
6

>  <opr_leadlike>
1

>  <opr_nring>
1

>  <opr_nrot>
0

>  <opr_violation>
0

>  <PC+>
0

>  <PC->
0

>  <PEOE_PC+>
1.2247645

>  <PEOE_PC->
-1.2247645

>  <PEOE_RPC+>
0.28337857

>  <PEOE_RPC->
0.24086329

>  <PEOE_VSA+0>
0

>  <PEOE_VSA+1>
21.011301

>  <PEOE_VSA+2>
28.428589

>  <PEOE_VSA+3>
17.639858

>  <PEOE_VSA+4>
0

>  <PEOE_VSA+5>
0

>  <PEOE_VSA+6>
17.440542

>  <PEOE_VSA-0>
0

>  <PEOE_VSA-1>
0

>  <PEOE_VSA-2>
0

>  <PEOE_VSA-3>
5.6825762

>  <PEOE_VSA-4>
25.475557

>  <PEOE_VSA-5>
6.7880106

>  <PEOE_VSA-6>
0

>  <PEOE_VSA_FHYD>
0.59414095

>  <PEOE_VSA_FNEG>
0.30984932

>  <PEOE_VSA_FPNEG>
0.26344824

>  <PEOE_VSA_FPOL>
0.40585905

>  <PEOE_VSA_FPOS>
0.69015068

>  <PEOE_VSA_FPPOS>
0.1424108

>  <PEOE_VSA_HYD>
72.762321

>  <PEOE_VSA_NEG>
37.946144

>  <PEOE_VSA_PNEG>
32.263565

>  <PEOE_VSA_POL>
49.704109

>  <PEOE_VSA_POS>
84.520294

>  <PEOE_VSA_PPOS>
17.440542

>  <petitjean>
0.40000001

>  <petitjeanSC>
0.66666669

>  <Q_PC+>
0

>  <Q_PC->
0

>  <Q_RPC+>
0

>  <Q_RPC->
0

>  <Q_VSA_FHYD>
1

>  <Q_VSA_FNEG>
0

>  <Q_VSA_FPNEG>
0

>  <Q_VSA_FPOL>
0

>  <Q_VSA_FPOS>
1

>  <Q_VSA_FPPOS>
0

>  <Q_VSA_HYD>
122.46643

>  <Q_VSA_NEG>
0

>  <Q_VSA_PNEG>
0

>  <Q_VSA_POL>
0

>  <Q_VSA_POS>
122.46643

>  <Q_VSA_PPOS>
0

>  <radius>
3

>  <reactive>
0

>  <rings>
1

>  <RPC+>
0

>  <RPC->
0

>  <rsynth>
1

>  <SlogP>
-0.1223

>  <SlogP_VSA0>
50.90794

>  <SlogP_VSA1>
4.8299561

>  <SlogP_VSA2>
17.214357

>  <SlogP_VSA3>
0

>  <SlogP_VSA4>
0

>  <SlogP_VSA5>
28.234468

>  <SlogP_VSA6>
0

>  <SlogP_VSA7>
0

>  <SlogP_VSA8>
0

>  <SlogP_VSA9>
38.82233

>  <SMR>
2.93451

>  <SMR_VSA0>
23.862217

>  <SMR_VSA1>
31.745644

>  <SMR_VSA2>
18.01075

>  <SMR_VSA3>
11.448938

>  <SMR_VSA4>
32.897186

>  <SMR_VSA5>
0

>  <SMR_VSA6>
4.8299561

>  <SMR_VSA7>
17.214357

>  <TPSA>
67.480003

>  <VAdjEq>
0.7642045

>  <VAdjMa>
4.1699252

>  <VDistEq>
2.0374763

>  <VDistMa>
6.0213828

>  <vdw_area>
122.46643

>  <vdw_vol>
136.54645

>  <vsa_acc>
19.249496

>  <vsa_acid>
0

>  <vsa_base>
0

>  <vsa_don>
23.425066

>  <vsa_hyd>
20.929482

>  <vsa_other>
48.930611

>  <vsa_pol>
42.674564

>  <Weight>
129.09399

>  <weinerPath>
84

>  <weinerPol>
10

>  <zagreb>
42

$$$$