O(C(=O)C(C)C)c1ccc(cc1[C@H](CCN(C(C)C)C(C)C)c1ccccc1)CO
  MOE2013           2D

 30 31  0  0  1  0  0  0  0  0999 V2000
    0.0000    0.0000    0.0000 O   0  0  0  0  0  0  0  0  0  0  0  0
    0.7420    1.3040    0.0000 C   0  0  0  0  0  0  0  0  0  0  0  0
   -0.0160    2.5980    0.0000 O   0  0  0  0  0  0  0  0  0  0  0  0
    2.2420    1.3130    0.0000 C   0  0  0  0  0  0  0  0  0  0  0  0
    3.0000    0.0190    0.0000 C   0  0  0  0  0  0  0  0  0  0  0  0
    2.9840    2.6170    0.0000 C   0  0  0  0  0  0  0  0  0  0  0  0
    0.7580   -1.2940    0.0000 C   0  0  0  0  0  0  0  0  0  0  0  0
    2.2580   -1.2850    0.0000 C   0  0  0  0  0  0  0  0  0  0  0  0
    3.0160   -2.5790    0.0000 C   0  0  0  0  0  0  0  0  0  0  0  0
    2.2740   -3.8830    0.0000 C   0  0  0  0  0  0  0  0  0  0  0  0
    0.7740   -3.8920    0.0000 C   0  0  0  0  0  0  0  0  0  0  0  0
    0.0160   -2.5980    0.0000 C   0  0  0  0  0  0  0  0  0  0  0  0
   -1.4840   -2.6070    0.0000 C   0  0  2  0  0  0  0  0  0  0  0  0
   -2.2420   -1.3130    0.0000 C   0  0  0  0  0  0  0  0  0  0  0  0
   -3.7420   -1.3220    0.0000 C   0  0  0  0  0  0  0  0  0  0  0  0
   -4.5000   -0.0280    0.0000 N   0  0  0  0  0  0  0  0  0  0  0  0
   -6.0000   -0.0370    0.0000 C   0  0  0  0  0  0  0  0  0  0  0  0
   -6.7420   -1.3410    0.0000 C   0  0  0  0  0  0  0  0  0  0  0  0
   -6.7580    1.2570    0.0000 C   0  0  0  0  0  0  0  0  0  0  0  0
   -3.7580    1.2760    0.0000 C   0  0  0  0  0  0  0  0  0  0  0  0
   -4.5160    2.5700    0.0000 C   0  0  0  0  0  0  0  0  0  0  0  0
   -2.2580    1.2850    0.0000 C   0  0  0  0  0  0  0  0  0  0  0  0
   -2.2260   -3.9110    0.0000 C   0  0  0  0  0  0  0  0  0  0  0  0
   -3.7260   -3.9200    0.0000 C   0  0  0  0  0  0  0  0  0  0  0  0
   -4.4680   -5.2240    0.0000 C   0  0  0  0  0  0  0  0  0  0  0  0
   -3.7100   -6.5180    0.0000 C   0  0  0  0  0  0  0  0  0  0  0  0
   -2.2100   -6.5090    0.0000 C   0  0  0  0  0  0  0  0  0  0  0  0
   -1.4680   -5.2050    0.0000 C   0  0  0  0  0  0  0  0  0  0  0  0
    3.0320   -5.1780    0.0000 C   0  0  0  0  0  0  0  0  0  0  0  0
    4.5320   -5.1680    0.0000 O   0  0  0  0  0  0  0  0  0  0  0  0
  1  2  1  0  0  0  0
  1  7  1  0  0  0  0
  2  3  2  0  0  0  0
  2  4  1  0  0  0  0
  4  5  1  0  0  0  0
  4  6  1  0  0  0  0
  7  8  1  0  0  0  0
  7 12  2  0  0  0  0
  8  9  2  0  0  0  0
  9 10  1  0  0  0  0
 10 11  2  0  0  0  0
 10 29  1  0  0  0  0
 11 12  1  0  0  0  0
 13 12  1  1  0  0  0
 13 14  1  0  0  0  0
 13 23  1  0  0  0  0
 14 15  1  0  0  0  0
 15 16  1  0  0  0  0
 16 17  1  0  0  0  0
 16 20  1  0  0  0  0
 17 18  1  0  0  0  0
 17 19  1  0  0  0  0
 20 21  1  0  0  0  0
 20 22  1  0  0  0  0
 23 24  1  0  0  0  0
 23 28  2  0  0  0  0
 24 25  2  0  0  0  0
 25 26  1  0  0  0  0
 26 27  2  0  0  0  0
 27 28  1  0  0  0  0
 29 30  1  0  0  0  0
M  END
>  <Index>
429

>  <ID>
HT0870

>  <class>
0

>  <apol>
73.93734

>  <ast_fraglike>
0

>  <ast_fraglike_ext>
0

>  <ast_violation>
2

>  <ast_violation_ext>
3

>  <a_acc>
3

>  <a_acid>
0

>  <a_aro>
12

>  <a_base>
0

>  <a_count>
67

>  <a_don>
1

>  <a_donacc>
4

>  <a_heavy>
30

>  <a_hyd>
25

>  <a_IC>
86.711884

>  <a_ICM>
1.2942072

>  <a_nB>
0

>  <a_nBr>
0

>  <a_nC>
26

>  <a_nCl>
0

>  <a_nF>
0

>  <a_nH>
37

>  <a_nI>
0

>  <a_nN>
1

>  <a_nO>
3

>  <a_nP>
0

>  <a_nS>
0

>  <balabanJ>
2.2152493

>  <BCUT_PEOE_0>
-2.7604547

>  <BCUT_PEOE_1>
-0.51562256

>  <BCUT_PEOE_2>
0.57855481

>  <BCUT_PEOE_3>
2.6638467

>  <BCUT_SLOGP_0>
-2.7852411

>  <BCUT_SLOGP_1>
-0.41662946

>  <BCUT_SLOGP_2>
0.61542183

>  <BCUT_SLOGP_3>
2.6976216

>  <BCUT_SMR_0>
-2.4812756

>  <BCUT_SMR_1>
-0.38819519

>  <BCUT_SMR_2>
0.71237552

>  <BCUT_SMR_3>
2.9375494

>  <bpol>
45.302658

>  <b_1rotN>
10

>  <b_1rotR>
0.32258064

>  <b_ar>
12

>  <b_count>
68

>  <b_double>
1

>  <b_heavy>
31

>  <b_max1len>
7

>  <b_rotN>
11

>  <b_rotR>
0.3548387

>  <b_single>
55

>  <b_triple>
0

>  <chi0>
22.258783

>  <chi0v>
19.260447

>  <chi0v_C>
17.549524

>  <chi0_C>
18.974327

>  <chi1>
14.23929

>  <chi1v>
11.001872

>  <chi1v_C>
9.2406464

>  <chi1_C>
11.063421

>  <chiral>
1

>  <chiral_u>
0

>  <density>
0.65946859

>  <diameter>
11

>  <FCharge>
0

>  <GCUT_PEOE_0>
-0.85778821

>  <GCUT_PEOE_1>
-0.38988513

>  <GCUT_PEOE_2>
0.058319159

>  <GCUT_PEOE_3>
2.9381552

>  <GCUT_SLOGP_0>
-0.95324582

>  <GCUT_SLOGP_1>
-0.26386139

>  <GCUT_SLOGP_2>
0.053478174

>  <GCUT_SLOGP_3>
3.0325797

>  <GCUT_SMR_0>
-0.52524489

>  <GCUT_SMR_1>
-0.20245744

>  <GCUT_SMR_2>
0.15663917

>  <GCUT_SMR_3>
3.1941016

>  <Kier1>
26.253902

>  <Kier2>
12.888889

>  <Kier3>
7.8284025

>  <KierA1>
21.568521

>  <KierA2>
10.512897

>  <KierA3>
6.3528666

>  <KierFlex>
7.5582557

>  <lip_acc>
4

>  <lip_don>
1

>  <lip_druglike>
1

>  <lip_violation>
1

>  <logP(o/w)>
6.027

>  <logS>
-4.99895

>  <mr>
12.408121

>  <mutagenic>
0

>  <nmol>
1

>  <opr_brigid>
12

>  <opr_leadlike>
1

>  <opr_nring>
2

>  <opr_nrot>
10

>  <opr_violation>
1

>  <PC+>
0

>  <PC->
0

>  <PEOE_PC+>
2.0706339

>  <PEOE_PC->
-2.0706339

>  <PEOE_RPC+>
0.13025191

>  <PEOE_RPC->
0.18854915

>  <PEOE_VSA+0>
130.38428

>  <PEOE_VSA+1>
66.063675

>  <PEOE_VSA+2>
0

>  <PEOE_VSA+3>
0

>  <PEOE_VSA+4>
10.324173

>  <PEOE_VSA+5>
14.708499

>  <PEOE_VSA+6>
0

>  <PEOE_VSA-0>
102.57255

>  <PEOE_VSA-1>
123.27969

>  <PEOE_VSA-2>
0

>  <PEOE_VSA-3>
0

>  <PEOE_VSA-4>
0

>  <PEOE_VSA-5>
16.070677

>  <PEOE_VSA-6>
7.7675405

>  <PEOE_VSA_FHYD>
0.89627784

>  <PEOE_VSA_FNEG>
0.52993584

>  <PEOE_VSA_FPNEG>
0.050593551

>  <PEOE_VSA_FPOL>
0.10372218

>  <PEOE_VSA_FPOS>
0.47006413

>  <PEOE_VSA_FPPOS>
0.053128626

>  <PEOE_VSA_HYD>
422.30017

>  <PEOE_VSA_NEG>
249.69044

>  <PEOE_VSA_PNEG>
23.838217

>  <PEOE_VSA_POL>
48.870888

>  <PEOE_VSA_POS>
221.48062

>  <PEOE_VSA_PPOS>
25.032671

>  <petitjean>
0.45454547

>  <petitjeanSC>
0.83333331

>  <Q_PC+>
0

>  <Q_PC->
0

>  <Q_RPC+>
0

>  <Q_RPC->
0

>  <Q_VSA_FHYD>
1

>  <Q_VSA_FNEG>
0

>  <Q_VSA_FPNEG>
0

>  <Q_VSA_FPOL>
0

>  <Q_VSA_FPOS>
1

>  <Q_VSA_FPPOS>
0

>  <Q_VSA_HYD>
471.17108

>  <Q_VSA_NEG>
0

>  <Q_VSA_PNEG>
0

>  <Q_VSA_POL>
0

>  <Q_VSA_POS>
471.17108

>  <Q_VSA_PPOS>
0

>  <radius>
6

>  <reactive>
0

>  <rings>
2

>  <RPC+>
0

>  <RPC->
0

>  <rsynth>
1

>  <SlogP>
5.6475

>  <SlogP_VSA0>
36.385113

>  <SlogP_VSA1>
10.869778

>  <SlogP_VSA2>
31.826153

>  <SlogP_VSA3>
18.439579

>  <SlogP_VSA4>
13.967521

>  <SlogP_VSA5>
0

>  <SlogP_VSA6>
4.4107962

>  <SlogP_VSA7>
141.14548

>  <SlogP_VSA8>
18.868406

>  <SlogP_VSA9>
226.12578

>  <SMR>
12.29228

>  <SMR_VSA0>
23.862217

>  <SMR_VSA1>
39.50943

>  <SMR_VSA2>
4.4107962

>  <SMR_VSA3>
27.174887

>  <SMR_VSA4>
0

>  <SMR_VSA5>
180.94014

>  <SMR_VSA6>
26.185041

>  <SMR_VSA7>
199.95609

>  <TPSA>
49.77

>  <VAdjEq>
0.36176345

>  <VAdjMa>
5.9541965

>  <VDistEq>
3.3361087

>  <VDistMa>
9.5810642

>  <vdw_area>
471.17108

>  <vdw_vol>
624.11761

>  <vsa_acc>
13.566921

>  <vsa_acid>
0

>  <vsa_base>
0

>  <vsa_don>
0

>  <vsa_hyd>
393.98544

>  <vsa_other>
17.212255

>  <vsa_pol>
27.133842

>  <Weight>
411.586

>  <weinerPath>
2376

>  <weinerPol>
46

>  <zagreb>
146

$$$$