O=C(Nc1c(cccc1C)C)C(N(CCC)CC)CC
  MOE2013           2D

 20 20  0  0  1  0  0  0  0  0999 V2000
    0.0000    0.0000    0.0000 O   0  0  0  0  0  0  0  0  0  0  0  0
    0.0040   -1.5000    0.0000 C   0  0  0  0  0  0  0  0  0  0  0  0
   -1.2940   -2.2530    0.0000 N   0  0  0  0  0  0  0  0  0  0  0  0
   -2.5950   -1.5060    0.0000 C   0  0  0  0  0  0  0  0  0  0  0  0
   -3.8920   -2.2590    0.0000 C   0  0  0  0  0  0  0  0  0  0  0  0
   -5.1930   -1.5120    0.0000 C   0  0  0  0  0  0  0  0  0  0  0  0
   -5.1960   -0.0120    0.0000 C   0  0  0  0  0  0  0  0  0  0  0  0
   -3.8990    0.7410    0.0000 C   0  0  0  0  0  0  0  0  0  0  0  0
   -2.5980   -0.0060    0.0000 C   0  0  0  0  0  0  0  0  0  0  0  0
   -1.3010    0.7470    0.0000 C   0  0  0  0  0  0  0  0  0  0  0  0
   -3.8880   -3.7590    0.0000 C   0  0  0  0  0  0  0  0  0  0  0  0
    1.3040   -2.2470    0.0000 C   0  0  3  0  0  0  0  0  0  0  0  0
    2.6020   -1.4940    0.0000 N   0  0  3  0  0  0  0  0  0  0  0  0
    3.9020   -2.2410    0.0000 C   0  0  0  0  0  0  0  0  0  0  0  0
    5.2000   -1.4880    0.0000 C   0  0  0  0  0  0  0  0  0  0  0  0
    6.5000   -2.2350    0.0000 C   0  0  0  0  0  0  0  0  0  0  0  0
    2.5980    0.0060    0.0000 C   0  0  0  0  0  0  0  0  0  0  0  0
    3.8950    0.7590    0.0000 C   0  0  0  0  0  0  0  0  0  0  0  0
    1.3080   -3.7470    0.0000 C   0  0  0  0  0  0  0  0  0  0  0  0
    2.6090   -4.4940    0.0000 C   0  0  0  0  0  0  0  0  0  0  0  0
  1  2  2  0  0  0  0
  2  3  1  0  0  0  0
  2 12  1  0  0  0  0
  3  4  1  0  0  0  0
  4  5  1  0  0  0  0
  4  9  2  0  0  0  0
  5  6  2  0  0  0  0
  5 11  1  0  0  0  0
  6  7  1  0  0  0  0
  7  8  2  0  0  0  0
  8  9  1  0  0  0  0
  9 10  1  0  0  0  0
 12 13  1  0  0  0  0
 12 19  1  0  0  0  0
 13 14  1  0  0  0  0
 13 17  1  0  0  0  0
 14 15  1  0  0  0  0
 15 16  1  0  0  0  0
 17 18  1  0  0  0  0
 19 20  1  0  0  0  0
M  END
>  <Index>
406

>  <ID>
HT0824

>  <class>
0

>  <apol>
51.592205

>  <ast_fraglike>
0

>  <ast_fraglike_ext>
0

>  <ast_violation>
1

>  <ast_violation_ext>
2

>  <a_acc>
2

>  <a_acid>
0

>  <a_aro>
6

>  <a_base>
0

>  <a_count>
48

>  <a_don>
1

>  <a_donacc>
3

>  <a_heavy>
20

>  <a_hyd>
16

>  <a_IC>
61.985394

>  <a_ICM>
1.2913624

>  <a_nB>
0

>  <a_nBr>
0

>  <a_nC>
17

>  <a_nCl>
0

>  <a_nF>
0

>  <a_nH>
28

>  <a_nI>
0

>  <a_nN>
2

>  <a_nO>
1

>  <a_nP>
0

>  <a_nS>
0

>  <balabanJ>
2.6362426

>  <BCUT_PEOE_0>
-2.70908

>  <BCUT_PEOE_1>
-0.17598566

>  <BCUT_PEOE_2>
0.15738983

>  <BCUT_PEOE_3>
2.6476793

>  <BCUT_SLOGP_0>
-2.7803922

>  <BCUT_SLOGP_1>
-0.11309246

>  <BCUT_SLOGP_2>
0.202822

>  <BCUT_SLOGP_3>
2.6333888

>  <BCUT_SMR_0>
-2.439311

>  <BCUT_SMR_1>
-0.0069295992

>  <BCUT_SMR_2>
0.32550392

>  <BCUT_SMR_3>
2.9114509

>  <bpol>
34.207794

>  <b_1rotN>
7

>  <b_1rotR>
0.34999999

>  <b_ar>
6

>  <b_count>
48

>  <b_double>
1

>  <b_heavy>
20

>  <b_max1len>
8

>  <b_rotN>
8

>  <b_rotR>
0.40000001

>  <b_single>
41

>  <b_triple>
0

>  <chi0>
15.120955

>  <chi0v>
13.49329

>  <chi0v_C>
12.137828

>  <chi0_C>
12.836499

>  <chi1>
9.5444422

>  <chi1v>
7.6570392

>  <chi1v_C>
6.0622606

>  <chi1_C>
7.0007658

>  <chiral>
1

>  <chiral_u>
1

>  <density>
0.63845193

>  <diameter>
10

>  <FCharge>
0

>  <GCUT_PEOE_0>
-0.84512806

>  <GCUT_PEOE_1>
-0.28510147

>  <GCUT_PEOE_2>
-0.067045391

>  <GCUT_PEOE_3>
2.7038987

>  <GCUT_SLOGP_0>
-1.0099503

>  <GCUT_SLOGP_1>
-0.21212612

>  <GCUT_SLOGP_2>
-0.021813629

>  <GCUT_SLOGP_3>
2.7450957

>  <GCUT_SMR_0>
-0.52467501

>  <GCUT_SMR_1>
-0.1042434

>  <GCUT_SMR_2>
0.025971536

>  <GCUT_SMR_3>
2.9578986

>  <Kier1>
18.049999

>  <Kier2>
9.1065092

>  <Kier3>
5.0578513

>  <KierA1>
14.768555

>  <KierA2>
7.3668408

>  <KierA3>
4.0577221

>  <KierFlex>
5.4398794

>  <lip_acc>
3

>  <lip_don>
1

>  <lip_druglike>
1

>  <lip_violation>
0

>  <logP(o/w)>
3.9119999

>  <logS>
-3.1909699

>  <mr>
8.5330629

>  <mutagenic>
0

>  <nmol>
1

>  <opr_brigid>
6

>  <opr_leadlike>
1

>  <opr_nring>
1

>  <opr_nrot>
7

>  <opr_violation>
0

>  <PC+>
0

>  <PC->
0

>  <PEOE_PC+>
1.4494053

>  <PEOE_PC->
-1.4494053

>  <PEOE_RPC+>
0.16729087

>  <PEOE_RPC->
0.22380595

>  <PEOE_VSA+0>
104.80343

>  <PEOE_VSA+1>
20.207504

>  <PEOE_VSA+2>
0

>  <PEOE_VSA+3>
8.6190128

>  <PEOE_VSA+4>
12.949531

>  <PEOE_VSA+5>
0

>  <PEOE_VSA+6>
0

>  <PEOE_VSA-0>
85.699707

>  <PEOE_VSA-1>
93.007744

>  <PEOE_VSA-2>
0

>  <PEOE_VSA-3>
0

>  <PEOE_VSA-4>
0

>  <PEOE_VSA-5>
13.566921

>  <PEOE_VSA-6>
0.13689101

>  <PEOE_VSA_FHYD>
0.92137444

>  <PEOE_VSA_FNEG>
0.56760037

>  <PEOE_VSA_FPNEG>
0.040425327

>  <PEOE_VSA_FPOL>
0.078625575

>  <PEOE_VSA_FPOS>
0.43239966

>  <PEOE_VSA_FPPOS>
0.038200248

>  <PEOE_VSA_HYD>
312.3374

>  <PEOE_VSA_NEG>
192.41127

>  <PEOE_VSA_PNEG>
13.703812

>  <PEOE_VSA_POL>
26.653343

>  <PEOE_VSA_POS>
146.57948

>  <PEOE_VSA_PPOS>
12.949531

>  <petitjean>
0.5

>  <petitjeanSC>
1

>  <Q_PC+>
0

>  <Q_PC->
0

>  <Q_RPC+>
0

>  <Q_RPC->
0

>  <Q_VSA_FHYD>
1

>  <Q_VSA_FNEG>
0

>  <Q_VSA_FPNEG>
0

>  <Q_VSA_FPOL>
0

>  <Q_VSA_FPOS>
1

>  <Q_VSA_FPPOS>
0

>  <Q_VSA_HYD>
338.99075

>  <Q_VSA_NEG>
0

>  <Q_VSA_PNEG>
0

>  <Q_VSA_POL>
0

>  <Q_VSA_POS>
338.99075

>  <Q_VSA_PPOS>
0

>  <radius>
5

>  <reactive>
0

>  <rings>
1

>  <RPC+>
0

>  <RPC->
0

>  <rsynth>
0.44999999

>  <SlogP>
3.75244

>  <SlogP_VSA0>
0

>  <SlogP_VSA1>
26.393848

>  <SlogP_VSA2>
27.844185

>  <SlogP_VSA3>
36.879158

>  <SlogP_VSA4>
6.37115

>  <SlogP_VSA5>
0

>  <SlogP_VSA6>
0

>  <SlogP_VSA7>
52.929554

>  <SlogP_VSA8>
37.736813

>  <SlogP_VSA9>
169.38683

>  <SMR>
8.6162701

>  <SMR_VSA0>
23.862217

>  <SMR_VSA1>
3.1243138

>  <SMR_VSA2>
0

>  <SMR_VSA3>
10.353119

>  <SMR_VSA4>
20.767498

>  <SMR_VSA5>
90.666367

>  <SMR_VSA6>
42.137939

>  <SMR_VSA7>
166.63008

>  <TPSA>
32.34

>  <VAdjEq>
0.4689956

>  <VAdjMa>
5.321928

>  <VDistEq>
3.0993328

>  <VDistMa>
8.3688154

>  <vdw_area>
338.99075

>  <vdw_vol>
432.95975

>  <vsa_acc>
13.566921

>  <vsa_acid>
0

>  <vsa_base>
0

>  <vsa_don>
5.6825762

>  <vsa_hyd>
284.49991

>  <vsa_other>
12.949531

>  <vsa_pol>
19.249496

>  <Weight>
276.42398

>  <weinerPath>
830

>  <weinerPol>
30

>  <zagreb>
92

$$$$