O1[C@H](O[C@H]2[C@H](O)[C@@H](O[C@H]3OC[C@@](O)(C)[C@H](NC)[C@H]3O)[C@H](N)C[C@@H]2N)[C@H](N)CC[C@H]1[C@H](NC)C
  MOE2013           2D

 33 35  0  0  1  0  0  0  0  0999 V2000
    0.0000    0.0000    0.0000 O   0  0  0  0  0  0  0  0  0  0  0  0
   -0.0030   -1.5000    0.0000 C   0  0  2  0  0  0  0  0  0  0  0  0
    1.2940   -2.2530    0.0000 O   0  0  0  0  0  0  0  0  0  0  0  0
    2.5950   -1.5060    0.0000 C   0  0  1  0  0  0  0  0  0  0  0  0
    3.8920   -2.2590    0.0000 C   0  0  2  0  0  0  0  0  0  0  0  0
    3.8890   -3.7590    0.0000 O   0  0  0  0  0  0  0  0  0  0  0  0
    5.1930   -1.5110    0.0000 C   0  0  1  0  0  0  0  0  0  0  0  0
    6.4900   -2.2640    0.0000 O   0  0  0  0  0  0  0  0  0  0  0  0
    7.7910   -1.5170    0.0000 C   0  0  1  0  0  0  0  0  0  0  0  0
    7.7940   -0.0170    0.0000 O   0  0  0  0  0  0  0  0  0  0  0  0
    9.0950    0.7300    0.0000 C   0  0  0  0  0  0  0  0  0  0  0  0
   10.3920   -0.0230    0.0000 C   0  0  1  0  0  0  0  0  0  0  0  0
   11.8920   -0.0260    0.0000 O   0  0  0  0  0  0  0  0  0  0  0  0
   11.1450    1.2750    0.0000 C   0  0  0  0  0  0  0  0  0  0  0  0
   10.3890   -1.5230    0.0000 C   0  0  2  0  0  0  0  0  0  0  0  0
   11.6860   -2.2760    0.0000 N   0  0  0  0  0  0  0  0  0  0  0  0
   11.6830   -3.7760    0.0000 C   0  0  0  0  0  0  0  0  0  0  0  0
    9.0880   -2.2700    0.0000 C   0  0  1  0  0  0  0  0  0  0  0  0
    9.0850   -3.7700    0.0000 O   0  0  0  0  0  0  0  0  0  0  0  0
    5.1960   -0.0110    0.0000 C   0  0  2  0  0  0  0  0  0  0  0  0
    6.4970    0.7360    0.0000 N   0  0  0  0  0  0  0  0  0  0  0  0
    3.8990    0.7410    0.0000 C   0  0  0  0  0  0  0  0  0  0  0  0
    2.5980   -0.0060    0.0000 C   0  0  2  0  0  0  0  0  0  0  0  0
    1.3010    0.7470    0.0000 N   0  0  0  0  0  0  0  0  0  0  0  0
   -1.3040   -2.2470    0.0000 C   0  0  2  0  0  0  0  0  0  0  0  0
   -1.3070   -3.7470    0.0000 N   0  0  0  0  0  0  0  0  0  0  0  0
   -2.6010   -1.4940    0.0000 C   0  0  0  0  0  0  0  0  0  0  0  0
   -2.5980    0.0060    0.0000 C   0  0  0  0  0  0  0  0  0  0  0  0
   -1.2970    0.7530    0.0000 C   0  0  1  0  0  0  0  0  0  0  0  0
   -1.2940    2.2530    0.0000 C   0  0  2  0  0  0  0  0  0  0  0  0
   -2.5920    3.0060    0.0000 N   0  0  0  0  0  0  0  0  0  0  0  0
   -2.5880    4.5060    0.0000 C   0  0  0  0  0  0  0  0  0  0  0  0
    0.0070    3.0000    0.0000 C   0  0  0  0  0  0  0  0  0  0  0  0
  1  2  1  0  0  0  0
  1 29  1  0  0  0  0
  2  3  1  6  0  0  0
  2 25  1  0  0  0  0
  4  3  1  6  0  0  0
  4  5  1  0  0  0  0
  4 23  1  0  0  0  0
  5  6  1  1  0  0  0
  5  7  1  0  0  0  0
  7  8  1  6  0  0  0
  7 20  1  0  0  0  0
  9  8  1  1  0  0  0
  9 10  1  0  0  0  0
  9 18  1  0  0  0  0
 10 11  1  0  0  0  0
 11 12  1  0  0  0  0
 12 13  1  6  0  0  0
 12 14  1  1  0  0  0
 12 15  1  0  0  0  0
 15 16  1  6  0  0  0
 15 18  1  0  0  0  0
 16 17  1  0  0  0  0
 18 19  1  1  0  0  0
 20 21  1  1  0  0  0
 20 22  1  0  0  0  0
 22 23  1  0  0  0  0
 23 24  1  1  0  0  0
 25 26  1  6  0  0  0
 25 27  1  0  0  0  0
 27 28  1  0  0  0  0
 29 28  1  1  0  0  0
 29 30  1  0  0  0  0
 30 31  1  0  0  0  0
 30 33  1  6  0  0  0
 31 32  1  0  0  0  0
M  END
>  <Index>
484

>  <ID>
HT0972

>  <class>
0

>  <apol>
76.746101

>  <ast_fraglike>
0

>  <ast_fraglike_ext>
0

>  <ast_violation>
3

>  <ast_violation_ext>
5

>  <a_acc>
12

>  <a_acid>
0

>  <a_aro>
0

>  <a_base>
0

>  <a_count>
76

>  <a_don>
8

>  <a_donacc>
20

>  <a_heavy>
33

>  <a_hyd>
19

>  <a_IC>
118.01331

>  <a_ICM>
1.5528067

>  <a_nB>
0

>  <a_nBr>
0

>  <a_nC>
21

>  <a_nCl>
0

>  <a_nF>
0

>  <a_nH>
43

>  <a_nI>
0

>  <a_nN>
5

>  <a_nO>
7

>  <a_nP>
0

>  <a_nS>
0

>  <balabanJ>
1.6847405

>  <BCUT_PEOE_0>
-2.8263819

>  <BCUT_PEOE_1>
-0.50204372

>  <BCUT_PEOE_2>
0.56041932

>  <BCUT_PEOE_3>
2.8447344

>  <BCUT_SLOGP_0>
-3.0173688

>  <BCUT_SLOGP_1>
-0.50834566

>  <BCUT_SLOGP_2>
0.57247943

>  <BCUT_SLOGP_3>
2.7192833

>  <BCUT_SMR_0>
-2.5973866

>  <BCUT_SMR_1>
-0.38345748

>  <BCUT_SMR_2>
0.64844215

>  <BCUT_SMR_3>
3.0594666

>  <bpol>
54.011902

>  <b_1rotN>
7

>  <b_1rotR>
0.2

>  <b_ar>
0

>  <b_count>
78

>  <b_double>
0

>  <b_heavy>
35

>  <b_max1len>
5

>  <b_rotN>
7

>  <b_rotR>
0.2

>  <b_single>
78

>  <b_triple>
0

>  <chi0>
24.499271

>  <chi0v>
19.963316

>  <chi0v_C>
14.25663

>  <chi0_C>
14.25663

>  <chi1>
15.494438

>  <chi1v>
11.775185

>  <chi1v_C>
6.5192385

>  <chi1_C>
6.5192385

>  <chiral>
13

>  <chiral_u>
0

>  <density>
0.75807464

>  <diameter>
15

>  <FCharge>
0

>  <GCUT_PEOE_0>
-0.84674937

>  <GCUT_PEOE_1>
-0.36675128

>  <GCUT_PEOE_2>
0.074446917

>  <GCUT_PEOE_3>
3.1390638

>  <GCUT_SLOGP_0>
-1.3699731

>  <GCUT_SLOGP_1>
-0.37790757

>  <GCUT_SLOGP_2>
0.1039654

>  <GCUT_SLOGP_3>
3.042541

>  <GCUT_SMR_0>
-0.52573681

>  <GCUT_SMR_1>
-0.2176668

>  <GCUT_SMR_2>
0.13442099

>  <GCUT_SMR_3>
3.3424273

>  <Kier1>
27.585306

>  <Kier2>
11.372781

>  <Kier3>
6.0491495

>  <KierA1>
27.585306

>  <KierA2>
11.372781

>  <KierA3>
6.0491495

>  <KierFlex>
9.5067167

>  <lip_acc>
12

>  <lip_don>
11

>  <lip_druglike>
0

>  <lip_violation>
2

>  <logP(o/w)>
-2.905

>  <logS>
0.37085

>  <mr>
11.860297

>  <mutagenic>
0

>  <nmol>
1

>  <opr_brigid>
18

>  <opr_leadlike>
0

>  <opr_nring>
3

>  <opr_nrot>
13

>  <opr_violation>
4

>  <PC+>
0

>  <PC->
0

>  <PEOE_PC+>
4.311923

>  <PEOE_PC->
-4.311923

>  <PEOE_RPC+>
0.048775557

>  <PEOE_RPC->
0.089644998

>  <PEOE_VSA+0>
99.010986

>  <PEOE_VSA+1>
73.06739

>  <PEOE_VSA+2>
88.571815

>  <PEOE_VSA+3>
22.309816

>  <PEOE_VSA+4>
30.972517

>  <PEOE_VSA+5>
0

>  <PEOE_VSA+6>
0

>  <PEOE_VSA-0>
110.07668

>  <PEOE_VSA-1>
0

>  <PEOE_VSA-2>
0

>  <PEOE_VSA-3>
0

>  <PEOE_VSA-4>
0

>  <PEOE_VSA-5>
0

>  <PEOE_VSA-6>
53.544785

>  <PEOE_VSA_FHYD>
0.8230204

>  <PEOE_VSA_FNEG>
0.34262401

>  <PEOE_VSA_FPNEG>
0.112123

>  <PEOE_VSA_FPOL>
0.17697957

>  <PEOE_VSA_FPOS>
0.65737599

>  <PEOE_VSA_FPPOS>
0.064856581

>  <PEOE_VSA_HYD>
393.03668

>  <PEOE_VSA_NEG>
163.62146

>  <PEOE_VSA_PNEG>
53.544785

>  <PEOE_VSA_POL>
84.517303

>  <PEOE_VSA_POS>
313.93253

>  <PEOE_VSA_PPOS>
30.972517

>  <petitjean>
0.46666667

>  <petitjeanSC>
0.875

>  <Q_PC+>
0

>  <Q_PC->
0

>  <Q_RPC+>
0

>  <Q_RPC->
0

>  <Q_VSA_FHYD>
1

>  <Q_VSA_FNEG>
0

>  <Q_VSA_FPNEG>
0

>  <Q_VSA_FPOL>
0

>  <Q_VSA_FPOS>
1

>  <Q_VSA_FPPOS>
0

>  <Q_VSA_HYD>
477.55399

>  <Q_VSA_NEG>
0

>  <Q_VSA_PNEG>
0

>  <Q_VSA_POL>
0

>  <Q_VSA_POS>
477.55399

>  <Q_VSA_PPOS>
0

>  <radius>
8

>  <reactive>
1

>  <rings>
3

>  <RPC+>
0

>  <RPC->
0

>  <rsynth>
0.42424244

>  <SlogP>
-3.3275001

>  <SlogP_VSA0>
210.86874

>  <SlogP_VSA1>
0

>  <SlogP_VSA2>
113.30565

>  <SlogP_VSA3>
20.926258

>  <SlogP_VSA4>
0

>  <SlogP_VSA5>
65.794373

>  <SlogP_VSA6>
0

>  <SlogP_VSA7>
0

>  <SlogP_VSA8>
56.605217

>  <SlogP_VSA9>
66.652031

>  <SMR>
11.9931

>  <SMR_VSA0>
43.99955

>  <SMR_VSA1>
76.155678

>  <SMR_VSA2>
36.0215

>  <SMR_VSA3>
69.306091

>  <SMR_VSA4>
98.691559

>  <SMR_VSA5>
56.605217

>  <SMR_VSA6>
20.926258

>  <SMR_VSA7>
132.44641

>  <TPSA>
199.73

>  <VAdjEq>
0.3442024

>  <VAdjMa>
6.129283

>  <VDistEq>
3.6886661

>  <VDistMa>
9.8076477

>  <vdw_area>
477.55399

>  <vdw_vol>
630.02106

>  <vsa_acc>
10.015024

>  <vsa_acid>
0

>  <vsa_base>
0

>  <vsa_don>
0

>  <vsa_hyd>
271.89014

>  <vsa_other>
29.416998

>  <vsa_pol>
115.30841

>  <Weight>
477.603

>  <weinerPath>
3234

>  <weinerPol>
60

>  <zagreb>
174

$$$$