OCC(N)(CCc1ccc(cc1)CCCCCCCC)CO
  MOE2013           2D

 22 22  0  0  0  0  0  0  0  0999 V2000
    0.0000    0.0000    0.0000 O   0  0  0  0  0  0  0  0  0  0  0  0
    0.7490   -1.2990    0.0000 C   0  0  0  0  0  0  0  0  0  0  0  0
   -0.0010   -2.5980    0.0000 C   0  0  0  0  0  0  0  0  0  0  0  0
   -1.3000   -1.8470    0.0000 N   0  0  0  0  0  0  0  0  0  0  0  0
    1.2970   -3.3490    0.0000 C   0  0  0  0  0  0  0  0  0  0  0  0
    2.5970   -2.6000    0.0000 C   0  0  0  0  0  0  0  0  0  0  0  0
    3.8950   -3.3500    0.0000 C   0  0  0  0  0  0  0  0  0  0  0  0
    3.8940   -4.8500    0.0000 C   0  0  0  0  0  0  0  0  0  0  0  0
    5.1930   -5.6010    0.0000 C   0  0  0  0  0  0  0  0  0  0  0  0
    6.4930   -4.8520    0.0000 C   0  0  0  0  0  0  0  0  0  0  0  0
    6.4930   -3.3520    0.0000 C   0  0  0  0  0  0  0  0  0  0  0  0
    5.1950   -2.6010    0.0000 C   0  0  0  0  0  0  0  0  0  0  0  0
    7.7910   -5.6020    0.0000 C   0  0  0  0  0  0  0  0  0  0  0  0
    9.0910   -4.8530    0.0000 C   0  0  0  0  0  0  0  0  0  0  0  0
   10.3890   -5.6040    0.0000 C   0  0  0  0  0  0  0  0  0  0  0  0
   11.6890   -4.8540    0.0000 C   0  0  0  0  0  0  0  0  0  0  0  0
   12.9870   -5.6050    0.0000 C   0  0  0  0  0  0  0  0  0  0  0  0
   14.2870   -4.8560    0.0000 C   0  0  0  0  0  0  0  0  0  0  0  0
   15.5850   -5.6070    0.0000 C   0  0  0  0  0  0  0  0  0  0  0  0
   16.8850   -4.8570    0.0000 C   0  0  0  0  0  0  0  0  0  0  0  0
   -0.7520   -3.8970    0.0000 C   0  0  0  0  0  0  0  0  0  0  0  0
   -2.2520   -3.8960    0.0000 O   0  0  0  0  0  0  0  0  0  0  0  0
  1  2  1  0  0  0  0
  2  3  1  0  0  0  0
  3  4  1  0  0  0  0
  3  5  1  0  0  0  0
  3 21  1  0  0  0  0
  5  6  1  0  0  0  0
  6  7  1  0  0  0  0
  7  8  1  0  0  0  0
  7 12  2  0  0  0  0
  8  9  2  0  0  0  0
  9 10  1  0  0  0  0
 10 11  2  0  0  0  0
 10 13  1  0  0  0  0
 11 12  1  0  0  0  0
 13 14  1  0  0  0  0
 14 15  1  0  0  0  0
 15 16  1  0  0  0  0
 16 17  1  0  0  0  0
 17 18  1  0  0  0  0
 18 19  1  0  0  0  0
 19 20  1  0  0  0  0
 21 22  1  0  0  0  0
M  END
>  <Index>
432

>  <ID>
HT0877

>  <class>
0

>  <apol>
58.14817

>  <ast_fraglike>
0

>  <ast_fraglike_ext>
0

>  <ast_violation>
2

>  <ast_violation_ext>
3

>  <a_acc>
3

>  <a_acid>
0

>  <a_aro>
6

>  <a_base>
0

>  <a_count>
55

>  <a_don>
3

>  <a_donacc>
6

>  <a_heavy>
22

>  <a_hyd>
19

>  <a_IC>
68.799156

>  <a_ICM>
1.2508937

>  <a_nB>
0

>  <a_nBr>
0

>  <a_nC>
19

>  <a_nCl>
0

>  <a_nF>
0

>  <a_nH>
33

>  <a_nI>
0

>  <a_nN>
1

>  <a_nO>
2

>  <a_nP>
0

>  <a_nS>
0

>  <balabanJ>
2.0601821

>  <BCUT_PEOE_0>
-2.6988614

>  <BCUT_PEOE_1>
-0.6487366

>  <BCUT_PEOE_2>
0.69788677

>  <BCUT_PEOE_3>
2.6738605

>  <BCUT_SLOGP_0>
-2.8776248

>  <BCUT_SLOGP_1>
-0.53807992

>  <BCUT_SLOGP_2>
0.59000206

>  <BCUT_SLOGP_3>
2.7950583

>  <BCUT_SMR_0>
-2.446631

>  <BCUT_SMR_1>
-0.49986199

>  <BCUT_SMR_2>
0.85431087

>  <BCUT_SMR_3>
2.9114611

>  <bpol>
35.415833

>  <b_1rotN>
12

>  <b_1rotR>
0.54545456

>  <b_ar>
6

>  <b_count>
55

>  <b_double>
0

>  <b_heavy>
22

>  <b_max1len>
9

>  <b_rotN>
12

>  <b_rotR>
0.54545456

>  <b_single>
49

>  <b_triple>
0

>  <chi0>
16.261303

>  <chi0v>
14.059353

>  <chi0v_C>
12.587576

>  <chi0_C>
13.261302

>  <chi1>
10.631471

>  <chi1v>
8.7173719

>  <chi1v_C>
7.7962408

>  <chi1_C>
8.7172565

>  <chiral>
0

>  <chiral_u>
0

>  <density>
0.64303738

>  <diameter>
16

>  <FCharge>
0

>  <GCUT_PEOE_0>
-0.82163012

>  <GCUT_PEOE_1>
-0.38917574

>  <GCUT_PEOE_2>
0.0796142

>  <GCUT_PEOE_3>
2.6999393

>  <GCUT_SLOGP_0>
-1.3636477

>  <GCUT_SLOGP_1>
-0.26386139

>  <GCUT_SLOGP_2>
0.0024112836

>  <GCUT_SLOGP_3>
2.7902751

>  <GCUT_SMR_0>
-0.53190523

>  <GCUT_SMR_1>
-0.21605732

>  <GCUT_SMR_2>
0.19305076

>  <GCUT_SMR_3>
2.9420099

>  <Kier1>
20.045454

>  <Kier2>
11.522634

>  <Kier3>
8.4444447

>  <KierA1>
17.925131

>  <KierA2>
10.246142

>  <KierA3>
7.4784679

>  <KierFlex>
8.3483381

>  <lip_acc>
3

>  <lip_don>
4

>  <lip_druglike>
1

>  <lip_violation>
0

>  <logP(o/w)>
3.9159999

>  <logS>
-4.98842

>  <mr>
9.3706961

>  <mutagenic>
0

>  <nmol>
1

>  <opr_brigid>
6

>  <opr_leadlike>
1

>  <opr_nring>
1

>  <opr_nrot>
12

>  <opr_violation>
1

>  <PC+>
0

>  <PC->
0

>  <PEOE_PC+>
1.8977175

>  <PEOE_PC->
-1.8977175

>  <PEOE_RPC+>
0.1103834

>  <PEOE_RPC->
0.20715337

>  <PEOE_VSA+0>
89.573105

>  <PEOE_VSA+1>
64.025673

>  <PEOE_VSA+2>
17.238026

>  <PEOE_VSA+3>
0

>  <PEOE_VSA+4>
20.648346

>  <PEOE_VSA+5>
0

>  <PEOE_VSA+6>
0

>  <PEOE_VSA-0>
39.222332

>  <PEOE_VSA-1>
111.27386

>  <PEOE_VSA-2>
0

>  <PEOE_VSA-3>
0

>  <PEOE_VSA-4>
0

>  <PEOE_VSA-5>
0

>  <PEOE_VSA-6>
22.186199

>  <PEOE_VSA_FHYD>
0.88237679

>  <PEOE_VSA_FNEG>
0.47418392

>  <PEOE_VSA_FPNEG>
0.060923059

>  <PEOE_VSA_FPOL>
0.11762318

>  <PEOE_VSA_FPOS>
0.52581608

>  <PEOE_VSA_FPPOS>
0.056700125

>  <PEOE_VSA_HYD>
321.33301

>  <PEOE_VSA_NEG>
172.68239

>  <PEOE_VSA_PNEG>
22.186199

>  <PEOE_VSA_POL>
42.834545

>  <PEOE_VSA_POS>
191.48515

>  <PEOE_VSA_PPOS>
20.648346

>  <petitjean>
0.5

>  <petitjeanSC>
1

>  <Q_PC+>
0

>  <Q_PC->
0

>  <Q_RPC+>
0

>  <Q_RPC->
0

>  <Q_VSA_FHYD>
1

>  <Q_VSA_FNEG>
0

>  <Q_VSA_FPNEG>
0

>  <Q_VSA_FPOL>
0

>  <Q_VSA_FPOS>
1

>  <Q_VSA_FPPOS>
0

>  <Q_VSA_HYD>
364.16754

>  <Q_VSA_NEG>
0

>  <Q_VSA_PNEG>
0

>  <Q_VSA_POL>
0

>  <Q_VSA_POS>
364.16754

>  <Q_VSA_PPOS>
0

>  <radius>
8

>  <reactive>
0

>  <rings>
1

>  <RPC+>
0

>  <RPC->
0

>  <rsynth>
0.63636363

>  <SlogP>
3.2042401

>  <SlogP_VSA0>
83.667641

>  <SlogP_VSA1>
0

>  <SlogP_VSA2>
0

>  <SlogP_VSA3>
41.852516

>  <SlogP_VSA4>
6.37115

>  <SlogP_VSA5>
37.736813

>  <SlogP_VSA6>
0

>  <SlogP_VSA7>
70.572739

>  <SlogP_VSA8>
132.07884

>  <SlogP_VSA9>
33.326015

>  <SMR>
9.2932997

>  <SMR_VSA0>
0

>  <SMR_VSA1>
50.770454

>  <SMR_VSA2>
0

>  <SMR_VSA3>
6.37115

>  <SMR_VSA4>
32.897186

>  <SMR_VSA5>
240.38838

>  <SMR_VSA6>
41.852516

>  <SMR_VSA7>
33.326015

>  <TPSA>
66.480003

>  <VAdjEq>
0.43949699

>  <VAdjMa>
5.4594316

>  <VDistEq>
3.7745328

>  <VDistMa>
8.5511761

>  <vdw_area>
364.16754

>  <vdw_vol>
478.16504

>  <vsa_acc>
0

>  <vsa_acid>
0

>  <vsa_base>
0

>  <vsa_don>
0

>  <vsa_hyd>
283.45291

>  <vsa_other>
0

>  <vsa_pol>
44.876331

>  <Weight>
307.478

>  <weinerPath>
1407

>  <weinerPol>
27

>  <zagreb>
98

$$$$