O1C2CC34C56C(OC(=O)C5O)OC3(C2(O)C(C)C1=O)C(OC4CC6C(C)(C)C)=O
  MOE2013           2D

 29 34  0  0  1  0  0  0  0  0999 V2000
    0.0300    0.0370    0.0000 O   0  0  0  0  0  0  0  0  0  0  0  0
   -1.3890    0.5170    0.0000 C   0  0  3  0  0  0  0  0  0  0  0  0
   -2.8880    0.2430    0.0000 C   0  0  0  0  0  0  0  0  0  0  0  0
   -3.6760    1.5970    0.0000 C   0  0  3  0  0  0  0  0  0  0  0  0
   -5.0090    2.2270    0.0000 C   0  0  3  0  0  0  0  0  0  0  0  0
   -4.6800    3.7350    0.0000 C   0  0  3  0  0  0  0  0  0  0  0  0
   -5.9830    4.4700    0.0000 O   0  0  0  0  0  0  0  0  0  0  0  0
   -7.0960    3.4290    0.0000 C   0  0  0  0  0  0  0  0  0  0  0  0
   -8.5660    3.8140    0.0000 O   0  0  0  0  0  0  0  0  0  0  0  0
   -6.4900    2.1090    0.0000 C   0  0  3  0  0  0  0  0  0  0  0  0
   -6.6600    0.5470    0.0000 O   0  0  0  0  0  0  0  0  0  0  0  0
   -3.1930    3.8940    0.0000 O   0  0  0  0  0  0  0  0  0  0  0  0
   -2.5570    2.4870    0.0000 C   0  0  3  0  0  0  0  0  0  0  0  0
   -1.1880    2.0300    0.0000 C   0  0  3  0  0  0  0  0  0  0  0  0
   -1.1170    3.5430    0.0000 O   0  0  0  0  0  0  0  0  0  0  0  0
    0.2820    2.4140    0.0000 C   0  0  3  0  0  0  0  0  0  0  0  0
    0.8670    3.7860    0.0000 C   0  0  0  0  0  0  0  0  0  0  0  0
    1.0850    1.1170    0.0000 C   0  0  0  0  0  0  0  0  0  0  0  0
    2.5650    0.9670    0.0000 O   0  0  0  0  0  0  0  0  0  0  0  0
   -1.4930    1.3130    0.0000 C   0  0  0  0  0  0  0  0  0  0  0  0
   -2.1630   -0.0590    0.0000 O   0  0  0  0  0  0  0  0  0  0  0  0
   -3.6820    0.1900    0.0000 C   0  0  3  0  0  0  0  0  0  0  0  0
   -5.1790   -0.2130    0.0000 C   0  0  0  0  0  0  0  0  0  0  0  0
   -5.9940    1.0770    0.0000 C   0  0  3  0  0  0  0  0  0  0  0  0
   -7.4910    0.5570    0.0000 C   0  0  0  0  0  0  0  0  0  0  0  0
   -6.8960   -0.8880    0.0000 C   0  0  0  0  0  0  0  0  0  0  0  0
   -8.0200    1.8990    0.0000 C   0  0  0  0  0  0  0  0  0  0  0  0
   -8.8280   -0.0480    0.0000 C   0  0  0  0  0  0  0  0  0  0  0  0
   -0.0100    1.4200    0.0000 O   0  0  0  0  0  0  0  0  0  0  0  0
  1  2  1  0  0  0  0
  1 18  1  0  0  0  0
  2  3  1  0  0  0  0
  2 14  1  0  0  0  0
  3  4  1  0  0  0  0
  4  5  1  0  0  0  0
  4 13  1  0  0  0  0
  4 22  1  0  0  0  0
  5  6  1  0  0  0  0
  5 10  1  0  0  0  0
  5 24  1  0  0  0  0
  6  7  1  0  0  0  0
  6 12  1  0  0  0  0
  7  8  1  0  0  0  0
  8  9  2  0  0  0  0
  8 10  1  0  0  0  0
 10 11  1  0  0  0  0
 12 13  1  0  0  0  0
 13 14  1  0  0  0  0
 13 20  1  0  0  0  0
 14 15  1  0  0  0  0
 14 16  1  0  0  0  0
 16 17  1  0  0  0  0
 16 18  1  0  0  0  0
 18 19  2  0  0  0  0
 20 21  1  0  0  0  0
 20 29  2  0  0  0  0
 21 22  1  0  0  0  0
 22 23  1  0  0  0  0
 23 24  1  0  0  0  0
 24 25  1  0  0  0  0
 25 26  1  0  0  0  0
 25 27  1  0  0  0  0
 25 28  1  0  0  0  0
M  END
>  <Index>
485

>  <ID>
HT0975

>  <class>
0

>  <apol>
58.421032

>  <ast_fraglike>
0

>  <ast_fraglike_ext>
0

>  <ast_violation>
2

>  <ast_violation_ext>
3

>  <a_acc>
6

>  <a_acid>
0

>  <a_aro>
0

>  <a_base>
0

>  <a_count>
53

>  <a_don>
2

>  <a_donacc>
8

>  <a_heavy>
29

>  <a_hyd>
16

>  <a_IC>
78.5728

>  <a_ICM>
1.4825056

>  <a_nB>
0

>  <a_nBr>
0

>  <a_nC>
20

>  <a_nCl>
0

>  <a_nF>
0

>  <a_nH>
24

>  <a_nI>
0

>  <a_nN>
0

>  <a_nO>
9

>  <a_nP>
0

>  <a_nS>
0

>  <balabanJ>
1.6526856

>  <BCUT_PEOE_0>
-2.7706151

>  <BCUT_PEOE_1>
-0.42571846

>  <BCUT_PEOE_2>
0.51292104

>  <BCUT_PEOE_3>
3.1307683

>  <BCUT_SLOGP_0>
-2.775774

>  <BCUT_SLOGP_1>
-0.45020312

>  <BCUT_SLOGP_2>
0.44121477

>  <BCUT_SLOGP_3>
3.0251298

>  <BCUT_SMR_0>
-2.5401566

>  <BCUT_SMR_1>
-0.26975459

>  <BCUT_SMR_2>
0.64231175

>  <BCUT_SMR_3>
3.3209953

>  <bpol>
36.774967

>  <b_1rotN>
0

>  <b_1rotR>
0

>  <b_ar>
0

>  <b_count>
58

>  <b_double>
3

>  <b_heavy>
34

>  <b_max1len>
4

>  <b_rotN>
1

>  <b_rotR>
0.029411765

>  <b_single>
55

>  <b_triple>
0

>  <chi0>
20.938793

>  <chi0v>
16.63048

>  <chi0v_C>
12.878315

>  <chi0_C>
13.110366

>  <chi1>
13.402409

>  <chi1v>
10.107208

>  <chi1v_C>
7.2537246

>  <chi1_C>
7.3817163

>  <chiral>
10

>  <chiral_u>
10

>  <density>
0.84673011

>  <diameter>
9

>  <FCharge>
0

>  <GCUT_PEOE_0>
-0.80296159

>  <GCUT_PEOE_1>
-0.43669012

>  <GCUT_PEOE_2>
0.014555142

>  <GCUT_PEOE_3>
3.4510126

>  <GCUT_SLOGP_0>
-0.9609614

>  <GCUT_SLOGP_1>
-0.38406205

>  <GCUT_SLOGP_2>
-0.019045057

>  <GCUT_SLOGP_3>
3.3877614

>  <GCUT_SMR_0>
-0.54283631

>  <GCUT_SMR_1>
-0.22169012

>  <GCUT_SMR_2>
0.1250696

>  <GCUT_SMR_3>
3.6445217

>  <Kier1>
19.66782

>  <Kier2>
5.1428571

>  <Kier3>
1.5931319

>  <KierA1>
17.852007

>  <KierA2>
4.6512451

>  <KierA3>
1.437023

>  <KierFlex>
2.8632433

>  <lip_acc>
9

>  <lip_don>
2

>  <lip_druglike>
1

>  <lip_violation>
0

>  <logP(o/w)>
0.63700002

>  <logS>
-3.97804

>  <mr>
9.2866716

>  <mutagenic>
0

>  <nmol>
1

>  <opr_brigid>
24

>  <opr_leadlike>
0

>  <opr_nring>
6

>  <opr_nrot>
1

>  <opr_violation>
2

>  <PC+>
0

>  <PC->
0

>  <PEOE_PC+>
3.0966218

>  <PEOE_PC->
-3.0966218

>  <PEOE_RPC+>
0.096373402

>  <PEOE_RPC->
0.12328686

>  <PEOE_VSA+0>
76.776947

>  <PEOE_VSA+1>
21.966473

>  <PEOE_VSA+2>
4.9049287

>  <PEOE_VSA+3>
16.059837

>  <PEOE_VSA+4>
20.648346

>  <PEOE_VSA+5>
44.125496

>  <PEOE_VSA+6>
0

>  <PEOE_VSA-0>
17.402626

>  <PEOE_VSA-1>
74.990707

>  <PEOE_VSA-2>
0

>  <PEOE_VSA-3>
0

>  <PEOE_VSA-4>
0

>  <PEOE_VSA-5>
43.204517

>  <PEOE_VSA-6>
23.046349

>  <PEOE_VSA_FHYD>
0.61814427

>  <PEOE_VSA_FNEG>
0.46234939

>  <PEOE_VSA_FPNEG>
0.19308016

>  <PEOE_VSA_FPOL>
0.3818557

>  <PEOE_VSA_FPOS>
0.53765059

>  <PEOE_VSA_FPPOS>
0.18877555

>  <PEOE_VSA_HYD>
212.10152

>  <PEOE_VSA_NEG>
158.64421

>  <PEOE_VSA_PNEG>
66.25087

>  <PEOE_VSA_POL>
131.0247

>  <PEOE_VSA_POS>
184.48203

>  <PEOE_VSA_PPOS>
64.773842

>  <petitjean>
0.44444445

>  <petitjeanSC>
0.80000001

>  <Q_PC+>
0

>  <Q_PC->
0

>  <Q_RPC+>
0

>  <Q_RPC->
0

>  <Q_VSA_FHYD>
1

>  <Q_VSA_FNEG>
0

>  <Q_VSA_FPNEG>
0

>  <Q_VSA_FPOL>
0

>  <Q_VSA_FPOS>
1

>  <Q_VSA_FPPOS>
0

>  <Q_VSA_HYD>
343.12622

>  <Q_VSA_NEG>
0

>  <Q_VSA_PNEG>
0

>  <Q_VSA_POL>
0

>  <Q_VSA_POS>
343.12622

>  <Q_VSA_PPOS>
0

>  <radius>
5

>  <reactive>
1

>  <rings>
6

>  <RPC+>
0

>  <RPC->
0

>  <rsynth>
0.13793103

>  <SlogP>
-0.34029999

>  <SlogP_VSA0>
50.770454

>  <SlogP_VSA1>
23.236393

>  <SlogP_VSA2>
143.51865

>  <SlogP_VSA3>
0

>  <SlogP_VSA4>
8.8215923

>  <SlogP_VSA5>
0

>  <SlogP_VSA6>
0

>  <SlogP_VSA7>
0

>  <SlogP_VSA8>
37.736813

>  <SlogP_VSA9>
133.30406

>  <SMR>
9.0621595

>  <SMR_VSA0>
115.5862

>  <SMR_VSA1>
50.770454

>  <SMR_VSA2>
8.8215923

>  <SMR_VSA3>
27.932449

>  <SMR_VSA4>
0

>  <SMR_VSA5>
37.736813

>  <SMR_VSA6>
23.236393

>  <SMR_VSA7>
133.30406

>  <TPSA>
128.59

>  <VAdjEq>
0.40518862

>  <VAdjMa>
6.0874629

>  <VDistEq>
2.8672247

>  <VDistMa>
9.503788

>  <vdw_area>
343.12622

>  <vdw_vol>
482.32959

>  <vsa_acc>
43.204517

>  <vsa_acid>
0

>  <vsa_base>
0

>  <vsa_don>
0

>  <vsa_hyd>
179.04343

>  <vsa_other>
66.345268

>  <vsa_pol>
70.338364

>  <Weight>
408.40298

>  <weinerPath>
1612

>  <weinerPol>
79

>  <zagreb>
194

$$$$