O1C(CO)C(O)C(O)C(OC2OC(CO)C(O)C(O)C2O)C1OC1CCC2(C(CCC3(C2CC(O)C2C3(CCC2C(OC2OC(COC3OCC(O)C(O)C3O)C(O)C(O)C2O)(CCC=C(C)/C)C)C)C)C1(C)C)C
  MOE2013           2D

 75 82  0  0  1  0  0  0  0  0999 V2000
    0.0000    0.0000    0.0000 O   0  0  0  0  0  0  0  0  0  0  0  0
    0.7390   -1.3050    0.0000 C   0  0  3  0  0  0  0  0  0  0  0  0
   -0.0230   -2.5980    0.0000 C   0  0  0  0  0  0  0  0  0  0  0  0
    0.7160   -3.9030    0.0000 O   0  0  0  0  0  0  0  0  0  0  0  0
    2.2390   -1.3180    0.0000 C   0  0  3  0  0  0  0  0  0  0  0  0
    2.9770   -2.6240    0.0000 O   0  0  0  0  0  0  0  0  0  0  0  0
    3.0000   -0.0260    0.0000 C   0  0  3  0  0  0  0  0  0  0  0  0
    4.5000   -0.0390    0.0000 O   0  0  0  0  0  0  0  0  0  0  0  0
    2.2610    1.2800    0.0000 C   0  0  3  0  0  0  0  0  0  0  0  0
    3.0220    2.5720    0.0000 O   0  0  0  0  0  0  0  0  0  0  0  0
    4.5220    2.5590    0.0000 C   0  0  3  0  0  0  0  0  0  0  0  0
    5.2610    1.2540    0.0000 O   0  0  0  0  0  0  0  0  0  0  0  0
    6.7610    1.2410    0.0000 C   0  0  3  0  0  0  0  0  0  0  0  0
    7.5000   -0.0650    0.0000 C   0  0  0  0  0  0  0  0  0  0  0  0
    9.0000   -0.0780    0.0000 O   0  0  0  0  0  0  0  0  0  0  0  0
    7.5220    2.5330    0.0000 C   0  0  3  0  0  0  0  0  0  0  0  0
    9.0220    2.5200    0.0000 O   0  0  0  0  0  0  0  0  0  0  0  0
    6.7840    3.8390    0.0000 C   0  0  3  0  0  0  0  0  0  0  0  0
    7.5450    5.1310    0.0000 O   0  0  0  0  0  0  0  0  0  0  0  0
    5.2840    3.8510    0.0000 C   0  0  3  0  0  0  0  0  0  0  0  0
    4.5450    5.1570    0.0000 O   0  0  0  0  0  0  0  0  0  0  0  0
    0.7610    1.2920    0.0000 C   0  0  3  0  0  0  0  0  0  0  0  0
    0.0230    2.5980    0.0000 O   0  0  0  0  0  0  0  0  0  0  0  0
   -1.4770    2.6110    0.0000 C   0  0  3  0  0  0  0  0  0  0  0  0
   -2.2390    1.3180    0.0000 C   0  0  0  0  0  0  0  0  0  0  0  0
   -3.7390    1.3310    0.0000 C   0  0  0  0  0  0  0  0  0  0  0  0
   -4.4770    2.6370    0.0000 C   0  0  3  0  0  0  0  0  0  0  0  0
   -3.7160    3.9290    0.0000 C   0  0  3  0  0  0  0  0  0  0  0  0
   -4.4550    5.2350    0.0000 C   0  0  0  0  0  0  0  0  0  0  0  0
   -5.9550    5.2480    0.0000 C   0  0  0  0  0  0  0  0  0  0  0  0
   -6.7160    3.9550    0.0000 C   0  0  3  0  0  0  0  0  0  0  0  0
   -5.9770    2.6500    0.0000 C   0  0  3  0  0  0  0  0  0  0  0  0
   -6.7380    1.3570    0.0000 C   0  0  0  0  0  0  0  0  0  0  0  0
   -8.2380    1.3700    0.0000 C   0  0  3  0  0  0  0  0  0  0  0  0
   -9.0000    0.0780    0.0000 O   0  0  0  0  0  0  0  0  0  0  0  0
   -8.9770    2.6760    0.0000 C   0  0  3  0  0  0  0  0  0  0  0  0
   -8.2160    3.9680    0.0000 C   0  0  3  0  0  0  0  0  0  0  0  0
   -9.2100    5.0920    0.0000 C   0  0  0  0  0  0  0  0  0  0  0  0
  -10.5850    4.4940    0.0000 C   0  0  0  0  0  0  0  0  0  0  0  0
  -10.4420    3.0000    0.0000 C   0  0  3  0  0  0  0  0  0  0  0  0
  -11.5650    2.0060    0.0000 C   0  0  3  0  0  0  0  0  0  0  0  0
  -12.6880    1.0120    0.0000 O   0  0  0  0  0  0  0  0  0  0  0  0
  -14.1110    1.4880    0.0000 C   0  0  3  0  0  0  0  0  0  0  0  0
  -14.4100    2.9580    0.0000 O   0  0  0  0  0  0  0  0  0  0  0  0
  -15.8330    3.4340    0.0000 C   0  0  3  0  0  0  0  0  0  0  0  0
  -16.1320    4.9040    0.0000 C   0  0  0  0  0  0  0  0  0  0  0  0
  -17.5540    5.3800    0.0000 O   0  0  0  0  0  0  0  0  0  0  0  0
  -17.8530    6.8500    0.0000 C   0  0  3  0  0  0  0  0  0  0  0  0
  -16.7300    7.8440    0.0000 O   0  0  0  0  0  0  0  0  0  0  0  0
  -17.0290    9.3140    0.0000 C   0  0  0  0  0  0  0  0  0  0  0  0
  -18.4520    9.7890    0.0000 C   0  0  3  0  0  0  0  0  0  0  0  0
  -18.7510   11.2590    0.0000 O   0  0  0  0  0  0  0  0  0  0  0  0
  -19.5750    8.7950    0.0000 C   0  0  3  0  0  0  0  0  0  0  0  0
  -20.9980    9.2710    0.0000 O   0  0  0  0  0  0  0  0  0  0  0  0
  -19.2760    7.3260    0.0000 C   0  0  3  0  0  0  0  0  0  0  0  0
  -20.3990    6.3320    0.0000 O   0  0  0  0  0  0  0  0  0  0  0  0
  -16.9560    2.4400    0.0000 C   0  0  3  0  0  0  0  0  0  0  0  0
  -18.3780    2.9160    0.0000 O   0  0  0  0  0  0  0  0  0  0  0  0
  -16.6570    0.9700    0.0000 C   0  0  3  0  0  0  0  0  0  0  0  0
  -17.7800   -0.0240    0.0000 O   0  0  0  0  0  0  0  0  0  0  0  0
  -15.2340    0.4940    0.0000 C   0  0  3  0  0  0  0  0  0  0  0  0
  -14.9350   -0.9760    0.0000 O   0  0  0  0  0  0  0  0  0  0  0  0
  -10.5710    0.8830    0.0000 C   0  0  0  0  0  0  0  0  0  0  0  0
  -11.0470   -0.5390    0.0000 C   0  0  0  0  0  0  0  0  0  0  0  0
  -10.0530   -1.6630    0.0000 C   0  0  0  0  0  0  0  0  0  0  0  0
  -10.5290   -3.0850    0.0000 C   0  0  0  0  0  0  0  0  0  0  0  0
   -9.5350   -4.2090    0.0000 C   0  0  0  0  0  0  0  0  0  0  0  0
  -11.9990   -3.3840    0.0000 C   0  0  0  0  0  0  0  0  0  0  0  0
  -12.5590    3.1300    0.0000 C   0  0  0  0  0  0  0  0  0  0  0  0
   -7.8660    5.4270    0.0000 C   0  0  0  0  0  0  0  0  0  0  0  0
   -7.2660    5.3510    0.0000 C   0  0  0  0  0  0  0  0  0  0  0  0
   -2.2160    3.9160    0.0000 C   0  0  0  0  0  0  0  0  0  0  0  0
   -2.2420    5.4160    0.0000 C   0  0  0  0  0  0  0  0  0  0  0  0
   -0.9440    4.7110    0.0000 C   0  0  0  0  0  0  0  0  0  0  0  0
   -2.9780    2.6760    0.0000 C   0  0  0  0  0  0  0  0  0  0  0  0
  1  2  1  0  0  0  0
  1 22  1  0  0  0  0
  2  3  1  0  0  0  0
  2  5  1  0  0  0  0
  3  4  1  0  0  0  0
  5  6  1  0  0  0  0
  5  7  1  0  0  0  0
  7  8  1  0  0  0  0
  7  9  1  0  0  0  0
  9 10  1  0  0  0  0
  9 22  1  0  0  0  0
 10 11  1  0  0  0  0
 11 12  1  0  0  0  0
 11 20  1  0  0  0  0
 12 13  1  0  0  0  0
 13 14  1  0  0  0  0
 13 16  1  0  0  0  0
 14 15  1  0  0  0  0
 16 17  1  0  0  0  0
 16 18  1  0  0  0  0
 18 19  1  0  0  0  0
 18 20  1  0  0  0  0
 20 21  1  0  0  0  0
 22 23  1  0  0  0  0
 23 24  1  0  0  0  0
 24 25  1  0  0  0  0
 24 72  1  0  0  0  0
 25 26  1  0  0  0  0
 26 27  1  0  0  0  0
 27 28  1  0  0  0  0
 27 32  1  0  0  0  0
 27 75  1  0  0  0  0
 28 29  1  0  0  0  0
 28 72  1  0  0  0  0
 29 30  1  0  0  0  0
 30 31  1  0  0  0  0
 31 32  1  0  0  0  0
 31 37  1  0  0  0  0
 31 71  1  0  0  0  0
 32 33  1  0  0  0  0
 33 34  1  0  0  0  0
 34 35  1  0  0  0  0
 34 36  1  0  0  0  0
 36 37  1  0  0  0  0
 36 40  1  0  0  0  0
 37 38  1  0  0  0  0
 37 70  1  0  0  0  0
 38 39  1  0  0  0  0
 39 40  1  0  0  0  0
 40 41  1  0  0  0  0
 41 42  1  0  0  0  0
 41 63  1  0  0  0  0
 41 69  1  0  0  0  0
 42 43  1  0  0  0  0
 43 44  1  0  0  0  0
 43 61  1  0  0  0  0
 44 45  1  0  0  0  0
 45 46  1  0  0  0  0
 45 57  1  0  0  0  0
 46 47  1  0  0  0  0
 47 48  1  0  0  0  0
 48 49  1  0  0  0  0
 48 55  1  0  0  0  0
 49 50  1  0  0  0  0
 50 51  1  0  0  0  0
 51 52  1  0  0  0  0
 51 53  1  0  0  0  0
 53 54  1  0  0  0  0
 53 55  1  0  0  0  0
 55 56  1  0  0  0  0
 57 58  1  0  0  0  0
 57 59  1  0  0  0  0
 59 60  1  0  0  0  0
 59 61  1  0  0  0  0
 61 62  1  0  0  0  0
 63 64  1  0  0  0  0
 64 65  1  0  0  0  0
 65 66  2  3  0  0  0
 66 67  1  0  0  0  0
 66 68  1  0  0  0  0
 72 73  1  0  0  0  0
 72 74  1  0  0  0  0
M  END
>  <Index>
490

>  <ID>
HT0980

>  <class>
0

>  <apol>
170.93536

>  <ast_fraglike>
0

>  <ast_fraglike_ext>
0

>  <ast_violation>
3

>  <ast_violation_ext>
5

>  <a_acc>
22

>  <a_acid>
0

>  <a_aro>
0

>  <a_base>
0

>  <a_count>
165

>  <a_don>
14

>  <a_donacc>
36

>  <a_heavy>
75

>  <a_hyd>
49

>  <a_IC>
229.48911

>  <a_ICM>
1.390843

>  <a_nB>
0

>  <a_nBr>
0

>  <a_nC>
53

>  <a_nCl>
0

>  <a_nF>
0

>  <a_nH>
90

>  <a_nI>
0

>  <a_nN>
0

>  <a_nO>
22

>  <a_nP>
0

>  <a_nS>
0

>  <balabanJ>
1.0069938

>  <BCUT_PEOE_0>
-3.0295558

>  <BCUT_PEOE_1>
-0.48321953

>  <BCUT_PEOE_2>
0.61266834

>  <BCUT_PEOE_3>
3.0229614

>  <BCUT_SLOGP_0>
-2.9785066

>  <BCUT_SLOGP_1>
-0.56147081

>  <BCUT_SLOGP_2>
0.48586762

>  <BCUT_SLOGP_3>
3.0865972

>  <BCUT_SMR_0>
-2.7778199

>  <BCUT_SMR_1>
-0.3982532

>  <BCUT_SMR_2>
0.67238241

>  <BCUT_SMR_3>
3.2733557

>  <bpol>
113.71663

>  <b_1rotN>
15

>  <b_1rotR>
0.18292683

>  <b_ar>
0

>  <b_count>
172

>  <b_double>
1

>  <b_heavy>
82

>  <b_max1len>
7

>  <b_rotN>
15

>  <b_rotR>
0.18292683

>  <b_single>
171

>  <b_triple>
0

>  <chi0>
55.067455

>  <chi0v>
44.730473

>  <chi0v_C>
35.203495

>  <chi0_C>
35.410603

>  <chi1>
35.091988

>  <chi1v>
27.29921

>  <chi1v_C>
19.722765

>  <chi1_C>
20.088789

>  <chiral>
29

>  <chiral_u>
29

>  <density>
0.77302742

>  <diameter>
29

>  <FCharge>
0

>  <GCUT_PEOE_0>
-0.80555689

>  <GCUT_PEOE_1>
-0.38709065

>  <GCUT_PEOE_2>
0.093327083

>  <GCUT_PEOE_3>
3.9204051

>  <GCUT_SLOGP_0>
-0.9559384

>  <GCUT_SLOGP_1>
-0.39468902

>  <GCUT_SLOGP_2>
-0.010173

>  <GCUT_SLOGP_3>
3.9635456

>  <GCUT_SMR_0>
-0.54324985

>  <GCUT_SMR_1>
-0.22999316

>  <GCUT_SMR_2>
0.13879423

>  <GCUT_SMR_3>
4.1302733

>  <Kier1>
61.079716

>  <Kier2>
23.334084

>  <Kier3>
10.970174

>  <KierA1>
60.441002

>  <KierA2>
23.086761

>  <KierA3>
10.852821

>  <KierFlex>
18.60516

>  <lip_acc>
22

>  <lip_don>
14

>  <lip_druglike>
0

>  <lip_violation>
3

>  <logP(o/w)>
-0.92625999

>  <logS>
-6.4694901

>  <mr>
26.104385

>  <mutagenic>
0

>  <nmol>
1

>  <opr_brigid>
45

>  <opr_leadlike>
0

>  <opr_nring>
8

>  <opr_nrot>
23

>  <opr_violation>
5

>  <PC+>
0

>  <PC->
0

>  <PEOE_PC+>
9.2105618

>  <PEOE_PC->
-9.2105618

>  <PEOE_RPC+>
0.022811906

>  <PEOE_RPC->
0.042599592

>  <PEOE_VSA+0>
196.20776

>  <PEOE_VSA+1>
197.57661

>  <PEOE_VSA+2>
73.573929

>  <PEOE_VSA+3>
44.619633

>  <PEOE_VSA+4>
144.53842

>  <PEOE_VSA+5>
0

>  <PEOE_VSA+6>
0

>  <PEOE_VSA-0>
134.55486

>  <PEOE_VSA-1>
108.20183

>  <PEOE_VSA-2>
0

>  <PEOE_VSA-3>
0

>  <PEOE_VSA-4>
0

>  <PEOE_VSA-5>
0

>  <PEOE_VSA-6>
128.77562

>  <PEOE_VSA_FHYD>
0.7341429

>  <PEOE_VSA_FNEG>
0.36139563

>  <PEOE_VSA_FPNEG>
0.12526217

>  <PEOE_VSA_FPOL>
0.2658571

>  <PEOE_VSA_FPOS>
0.63860434

>  <PEOE_VSA_FPPOS>
0.14059491

>  <PEOE_VSA_HYD>
754.73462

>  <PEOE_VSA_NEG>
371.53229

>  <PEOE_VSA_PNEG>
128.77562

>  <PEOE_VSA_POL>
273.31403

>  <PEOE_VSA_POS>
656.51636

>  <PEOE_VSA_PPOS>
144.53842

>  <petitjean>
0.48275861

>  <petitjeanSC>
0.93333334

>  <Q_PC+>
0

>  <Q_PC->
0

>  <Q_RPC+>
0

>  <Q_RPC->
0

>  <Q_VSA_FHYD>
1

>  <Q_VSA_FNEG>
0

>  <Q_VSA_FPNEG>
0

>  <Q_VSA_FPOL>
0

>  <Q_VSA_FPOS>
1

>  <Q_VSA_FPPOS>
0

>  <Q_VSA_HYD>
1028.0487

>  <Q_VSA_NEG>
0

>  <Q_VSA_PNEG>
0

>  <Q_VSA_POL>
0

>  <Q_VSA_POS>
1028.0487

>  <Q_VSA_PPOS>
0

>  <radius>
15

>  <reactive>
1

>  <rings>
8

>  <RPC+>
0

>  <RPC->
0

>  <rsynth>
0.56

>  <SlogP>
-1.5635

>  <SlogP_VSA0>
355.39316

>  <SlogP_VSA1>
0

>  <SlogP_VSA2>
232.07214

>  <SlogP_VSA3>
83.705032

>  <SlogP_VSA4>
17.643185

>  <SlogP_VSA5>
3.185575

>  <SlogP_VSA6>
0

>  <SlogP_VSA7>
17.643185

>  <SlogP_VSA8>
169.81564

>  <SlogP_VSA9>
266.60812

>  <SMR>
26.021021

>  <SMR_VSA0>
87.9991

>  <SMR_VSA1>
355.39316

>  <SMR_VSA2>
17.643185

>  <SMR_VSA3>
147.25862

>  <SMR_VSA4>
0

>  <SMR_VSA5>
187.45883

>  <SMR_VSA6>
83.705032

>  <SMR_VSA7>
266.60812

>  <TPSA>
357.06

>  <VAdjEq>
0.19013917

>  <VAdjMa>
7.3575521

>  <VDistEq>
4.5855308

>  <VDistMa>
12.16969

>  <vdw_area>
1028.0487

>  <vdw_vol>
1396.1742

>  <vsa_acc>
20.030048

>  <vsa_acid>
0

>  <vsa_base>
0

>  <vsa_don>
0

>  <vsa_hyd>
636.42395

>  <vsa_other>
58.833996

>  <vsa_pol>
209.96693

>  <Weight>
1079.281

>  <weinerPath>
29984

>  <weinerPol>
161

>  <zagreb>
424

$$$$