Clc1cc(Nc2ncnc3c2cc(OCCCN2CCOCC2)c(OC)c3)ccc1F
  MOE2013           2D

 31 34  0  0  0  0  0  0  0  0999 V2000
    0.0000    0.0000    0.0000 Cl  0  0  0  0  0  0  0  0  0  0  0  0
    0.0110    1.5000    0.0000 C   0  0  0  0  0  0  0  0  0  0  0  0
    1.3150    2.2410    0.0000 C   0  0  0  0  0  0  0  0  0  0  0  0
    1.3250    3.7410    0.0000 C   0  0  0  0  0  0  0  0  0  0  0  0
    2.6300    4.4820    0.0000 N   0  0  0  0  0  0  0  0  0  0  0  0
    2.6400    5.9820    0.0000 C   0  0  0  0  0  0  0  0  0  0  0  0
    1.3460    6.7410    0.0000 N   0  0  0  0  0  0  0  0  0  0  0  0
    1.3570    8.2410    0.0000 C   0  0  0  0  0  0  0  0  0  0  0  0
    2.6610    8.9820    0.0000 N   0  0  0  0  0  0  0  0  0  0  0  0
    3.9550    8.2220    0.0000 C   0  0  0  0  0  0  0  0  0  0  0  0
    3.9440    6.7220    0.0000 C   0  0  0  0  0  0  0  0  0  0  0  0
    5.2380    5.9630    0.0000 C   0  0  0  0  0  0  0  0  0  0  0  0
    6.5420    6.7040    0.0000 C   0  0  0  0  0  0  0  0  0  0  0  0
    7.8360    5.9450    0.0000 O   0  0  0  0  0  0  0  0  0  0  0  0
    9.1400    6.6860    0.0000 C   0  0  0  0  0  0  0  0  0  0  0  0
   10.4340    5.9270    0.0000 C   0  0  0  0  0  0  0  0  0  0  0  0
   11.7380    6.6680    0.0000 C   0  0  0  0  0  0  0  0  0  0  0  0
   13.0320    5.9090    0.0000 N   0  0  0  0  0  0  0  0  0  0  0  0
   13.0220    4.4090    0.0000 C   0  0  0  0  0  0  0  0  0  0  0  0
   14.3150    3.6500    0.0000 C   0  0  0  0  0  0  0  0  0  0  0  0
   15.6200    4.3900    0.0000 O   0  0  0  0  0  0  0  0  0  0  0  0
   15.6300    5.8900    0.0000 C   0  0  0  0  0  0  0  0  0  0  0  0
   14.3360    6.6500    0.0000 C   0  0  0  0  0  0  0  0  0  0  0  0
    6.5530    8.2040    0.0000 C   0  0  0  0  0  0  0  0  0  0  0  0
    7.8570    8.9450    0.0000 O   0  0  0  0  0  0  0  0  0  0  0  0
    7.8680   10.4450    0.0000 C   0  0  0  0  0  0  0  0  0  0  0  0
    5.2590    8.9630    0.0000 C   0  0  0  0  0  0  0  0  0  0  0  0
    0.0320    4.5000    0.0000 C   0  0  0  0  0  0  0  0  0  0  0  0
   -1.2730    3.7590    0.0000 C   0  0  0  0  0  0  0  0  0  0  0  0
   -1.2830    2.2590    0.0000 C   0  0  0  0  0  0  0  0  0  0  0  0
   -2.5870    1.5180    0.0000 F   0  0  0  0  0  0  0  0  0  0  0  0
  1  2  1  0  0  0  0
  2  3  1  0  0  0  0
  2 30  2  0  0  0  0
  3  4  2  0  0  0  0
  4  5  1  0  0  0  0
  4 28  1  0  0  0  0
  5  6  1  0  0  0  0
  6  7  2  0  0  0  0
  6 11  1  0  0  0  0
  7  8  1  0  0  0  0
  8  9  2  0  0  0  0
  9 10  1  0  0  0  0
 10 11  1  0  0  0  0
 10 27  2  0  0  0  0
 11 12  2  0  0  0  0
 12 13  1  0  0  0  0
 13 14  1  0  0  0  0
 13 24  2  0  0  0  0
 14 15  1  0  0  0  0
 15 16  1  0  0  0  0
 16 17  1  0  0  0  0
 17 18  1  0  0  0  0
 18 19  1  0  0  0  0
 18 23  1  0  0  0  0
 19 20  1  0  0  0  0
 20 21  1  0  0  0  0
 21 22  1  0  0  0  0
 22 23  1  0  0  0  0
 24 25  1  0  0  0  0
 24 27  1  0  0  0  0
 25 26  1  0  0  0  0
 28 29  2  0  0  0  0
 29 30  1  0  0  0  0
 30 31  1  0  0  0  0
M  END
>  <Index>
481

>  <ID>
HT0968

>  <class>
0

>  <apol>
64.266029

>  <ast_fraglike>
0

>  <ast_fraglike_ext>
0

>  <ast_violation>
3

>  <ast_violation_ext>
4

>  <a_acc>
6

>  <a_acid>
0

>  <a_aro>
16

>  <a_base>
0

>  <a_count>
55

>  <a_don>
1

>  <a_donacc>
7

>  <a_heavy>
31

>  <a_hyd>
22

>  <a_IC>
97.073303

>  <a_ICM>
1.7649691

>  <a_nB>
0

>  <a_nBr>
0

>  <a_nC>
22

>  <a_nCl>
1

>  <a_nF>
1

>  <a_nH>
24

>  <a_nI>
0

>  <a_nN>
4

>  <a_nO>
3

>  <a_nP>
0

>  <a_nS>
0

>  <balabanJ>
1.2737107

>  <BCUT_PEOE_0>
-2.7310305

>  <BCUT_PEOE_1>
-0.58295596

>  <BCUT_PEOE_2>
0.53864491

>  <BCUT_PEOE_3>
2.652065

>  <BCUT_SLOGP_0>
-2.8311343

>  <BCUT_SLOGP_1>
-0.48458341

>  <BCUT_SLOGP_2>
0.71701378

>  <BCUT_SLOGP_3>
2.5754693

>  <BCUT_SMR_0>
-2.463758

>  <BCUT_SMR_1>
-0.33673742

>  <BCUT_SMR_2>
0.7602613

>  <BCUT_SMR_3>
2.908016

>  <bpol>
38.887966

>  <b_1rotN>
8

>  <b_1rotR>
0.23529412

>  <b_ar>
17

>  <b_count>
58

>  <b_double>
0

>  <b_heavy>
34

>  <b_max1len>
4

>  <b_rotN>
8

>  <b_rotR>
0.23529412

>  <b_single>
41

>  <b_triple>
0

>  <chi0>
21.631182

>  <chi0v>
17.992092

>  <chi0v_C>
13.413849

>  <chi0_C>
14.811191

>  <chi1>
15.135362

>  <chi1v>
10.49348

>  <chi1v_C>
5.6427345

>  <chi1_C>
7.0993195

>  <chiral>
0

>  <chiral_u>
0

>  <density>
0.79166424

>  <diameter>
17

>  <FCharge>
0

>  <GCUT_PEOE_0>
-0.84910798

>  <GCUT_PEOE_1>
-0.4196406

>  <GCUT_PEOE_2>
-0.0027670071

>  <GCUT_PEOE_3>
2.654614

>  <GCUT_SLOGP_0>
-0.95864463

>  <GCUT_SLOGP_1>
-0.28937417

>  <GCUT_SLOGP_2>
0.19174151

>  <GCUT_SLOGP_3>
2.7486482

>  <GCUT_SMR_0>
-0.52042389

>  <GCUT_SMR_1>
-0.19208248

>  <GCUT_SMR_2>
0.17482136

>  <GCUT_SMR_3>
2.9237218

>  <Kier1>
24.134949

>  <Kier2>
11.92344

>  <Kier3>
6.5333333

>  <KierA1>
19.807837

>  <KierA2>
9.7176971

>  <KierA3>
5.2975917

>  <KierFlex>
6.2092443

>  <lip_acc>
7

>  <lip_don>
1

>  <lip_druglike>
1

>  <lip_violation>
0

>  <logP(o/w)>
3.14974

>  <logS>
-5.5871701

>  <mr>
11.849739

>  <mutagenic>
0

>  <nmol>
1

>  <opr_brigid>
23

>  <opr_leadlike>
1

>  <opr_nring>
4

>  <opr_nrot>
10

>  <opr_violation>
0

>  <PC+>
0

>  <PC->
0

>  <PEOE_PC+>
2.4704924

>  <PEOE_PC->
-2.4704924

>  <PEOE_RPC+>
0.057362981

>  <PEOE_RPC->
0.15269932

>  <PEOE_VSA+0>
107.60581

>  <PEOE_VSA+1>
115.78858

>  <PEOE_VSA+2>
71.249771

>  <PEOE_VSA+3>
0

>  <PEOE_VSA+4>
0

>  <PEOE_VSA+5>
0

>  <PEOE_VSA+6>
0

>  <PEOE_VSA-0>
69.97583

>  <PEOE_VSA-1>
29.581947

>  <PEOE_VSA-2>
0

>  <PEOE_VSA-3>
0

>  <PEOE_VSA-4>
23.410679

>  <PEOE_VSA-5>
0

>  <PEOE_VSA-6>
7.5112681

>  <PEOE_VSA_FHYD>
0.92726368

>  <PEOE_VSA_FNEG>
0.30692166

>  <PEOE_VSA_FPNEG>
0.072736323

>  <PEOE_VSA_FPOL>
0.072736323

>  <PEOE_VSA_FPOS>
0.69307834

>  <PEOE_VSA_FPPOS>
0

>  <PEOE_VSA_HYD>
394.20193

>  <PEOE_VSA_NEG>
130.47972

>  <PEOE_VSA_PNEG>
30.921947

>  <PEOE_VSA_POL>
30.921947

>  <PEOE_VSA_POS>
294.64417

>  <PEOE_VSA_PPOS>
0

>  <petitjean>
0.47058824

>  <petitjeanSC>
0.8888889

>  <Q_PC+>
0

>  <Q_PC->
0

>  <Q_RPC+>
0

>  <Q_RPC->
0

>  <Q_VSA_FHYD>
1

>  <Q_VSA_FNEG>
0

>  <Q_VSA_FPNEG>
0

>  <Q_VSA_FPOL>
0

>  <Q_VSA_FPOS>
1

>  <Q_VSA_FPPOS>
0

>  <Q_VSA_HYD>
425.1239

>  <Q_VSA_NEG>
0

>  <Q_VSA_PNEG>
0

>  <Q_VSA_POL>
0

>  <Q_VSA_POS>
425.1239

>  <Q_VSA_PPOS>
0

>  <radius>
9

>  <reactive>
0

>  <rings>
4

>  <RPC+>
0

>  <RPC->
0

>  <rsynth>
1

>  <SlogP>
4.2756

>  <SlogP_VSA0>
21.999775

>  <SlogP_VSA1>
54.706123

>  <SlogP_VSA2>
20.120907

>  <SlogP_VSA3>
118.09751

>  <SlogP_VSA4>
0

>  <SlogP_VSA5>
35.383869

>  <SlogP_VSA6>
3.5006065

>  <SlogP_VSA7>
109.71855

>  <SlogP_VSA8>
18.868406

>  <SlogP_VSA9>
69.680283

>  <SMR>
11.81537

>  <SMR_VSA0>
10.999887

>  <SMR_VSA1>
73.655266

>  <SMR_VSA2>
9.1210184

>  <SMR_VSA3>
13.987463

>  <SMR_VSA4>
27.812519

>  <SMR_VSA5>
123.86986

>  <SMR_VSA6>
118.09751

>  <SMR_VSA7>
74.532509

>  <TPSA>
68.739998

>  <VAdjEq>
0.36875206

>  <VAdjMa>
6.0874629

>  <VDistEq>
3.8181329

>  <VDistMa>
9.6022654

>  <vdw_area>
425.1239

>  <vdw_vol>
564.51959

>  <vsa_acc>
18.876421

>  <vsa_acid>
0

>  <vsa_base>
0

>  <vsa_don>
5.6825762

>  <vsa_hyd>
345.13919

>  <vsa_other>
35.981079

>  <vsa_pol>
24.558996

>  <Weight>
446.91

>  <weinerPath>
3020

>  <weinerPol>
48

>  <zagreb>
160

$$$$