F[C@@]12[C@H]([C@@H]3CC[C@](O)(C(=O)C)[C@]3(C[C@@H]1O)C)C[C@@H](C1=CC(=O)C=C[C@@]12C)C
  MOE2013           2D

 27 30  0  0  1  0  0  0  0  0999 V2000
    0.0000    0.0000    0.0000 F   0  0  0  0  0  0  0  0  0  0  0  0
    1.5000   -0.0050    0.0000 C   0  0  1  0  0  0  0  0  0  0  0  0
    0.7550    1.2960    0.0000 C   0  0  2  0  0  0  0  0  0  0  0  0
   -0.7450    1.3020    0.0000 C   0  0  2  0  0  0  0  0  0  0  0  0
   -1.7450    2.4200    0.0000 C   0  0  0  0  0  0  0  0  0  0  0  0
   -3.1180    1.8150    0.0000 C   0  0  0  0  0  0  0  0  0  0  0  0
   -2.9660    0.3220    0.0000 C   0  0  2  0  0  0  0  0  0  0  0  0
   -3.4590   -1.0940    0.0000 O   0  0  0  0  0  0  0  0  0  0  0  0
   -4.4480    0.0930    0.0000 C   0  0  0  0  0  0  0  0  0  0  0  0
   -5.3880    1.2620    0.0000 O   0  0  0  0  0  0  0  0  0  0  0  0
   -4.9910   -1.3060    0.0000 C   0  0  0  0  0  0  0  0  0  0  0  0
   -1.5000    0.0050    0.0000 C   0  0  1  0  0  0  0  0  0  0  0  0
   -0.7550   -1.2960    0.0000 C   0  0  0  0  0  0  0  0  0  0  0  0
    0.7450   -1.3020    0.0000 C   0  0  2  0  0  0  0  0  0  0  0  0
    1.4910   -2.6030    0.0000 O   0  0  0  0  0  0  0  0  0  0  0  0
   -2.3650   -1.2200    0.0000 C   0  0  0  0  0  0  0  0  0  0  0  0
    1.5090    2.5930    0.0000 C   0  0  0  0  0  0  0  0  0  0  0  0
    3.0090    2.5880    0.0000 C   0  0  1  0  0  0  0  0  0  0  0  0
    3.7550    1.2860    0.0000 C   0  0  0  0  0  0  0  0  0  0  0  0
    5.2550    1.2810    0.0000 C   0  0  0  0  0  0  0  0  0  0  0  0
    6.0000   -0.0210    0.0000 C   0  0  0  0  0  0  0  0  0  0  0  0
    7.5000   -0.0260    0.0000 O   0  0  0  0  0  0  0  0  0  0  0  0
    5.2450   -1.3170    0.0000 C   0  0  0  0  0  0  0  0  0  0  0  0
    3.7450   -1.3120    0.0000 C   0  0  0  0  0  0  0  0  0  0  0  0
    3.0000   -0.0100    0.0000 C   0  0  2  0  0  0  0  0  0  0  0  0
    2.2450   -1.3070    0.0000 C   0  0  0  0  0  0  0  0  0  0  0  0
    3.7640    3.8840    0.0000 C   0  0  0  0  0  0  0  0  0  0  0  0
  2  1  1  6  0  0  0
  2  3  1  0  0  0  0
  2 14  1  0  0  0  0
  2 25  1  0  0  0  0
  3  4  1  0  0  0  0
  3 17  1  6  0  0  0
  4  5  1  1  0  0  0
  4 12  1  0  0  0  0
  5  6  1  0  0  0  0
  6  7  1  0  0  0  0
  7  8  1  6  0  0  0
  7  9  1  1  0  0  0
  7 12  1  0  0  0  0
  9 10  2  0  0  0  0
  9 11  1  0  0  0  0
 12 13  1  0  0  0  0
 12 16  1  1  0  0  0
 13 14  1  0  0  0  0
 14 15  1  1  0  0  0
 17 18  1  0  0  0  0
 18 19  1  0  0  0  0
 18 27  1  6  0  0  0
 19 20  2  0  0  0  0
 19 25  1  0  0  0  0
 20 21  1  0  0  0  0
 21 22  2  0  0  0  0
 21 23  1  0  0  0  0
 23 24  2  0  0  0  0
 24 25  1  0  0  0  0
 25 26  1  1  0  0  0
M  END
>  <Index>
448

>  <ID>
HT0908

>  <class>
0

>  <apol>
61.821999

>  <ast_fraglike>
0

>  <ast_fraglike_ext>
0

>  <ast_violation>
2

>  <ast_violation_ext>
2

>  <a_acc>
4

>  <a_acid>
0

>  <a_aro>
0

>  <a_base>
0

>  <a_count>
56

>  <a_don>
2

>  <a_donacc>
6

>  <a_heavy>
27

>  <a_hyd>
21

>  <a_IC>
78.222931

>  <a_ICM>
1.3968381

>  <a_nB>
0

>  <a_nBr>
0

>  <a_nC>
22

>  <a_nCl>
0

>  <a_nF>
1

>  <a_nH>
29

>  <a_nI>
0

>  <a_nN>
0

>  <a_nO>
4

>  <a_nP>
0

>  <a_nS>
0

>  <balabanJ>
1.7897131

>  <BCUT_PEOE_0>
-2.9071796

>  <BCUT_PEOE_1>
-0.49725643

>  <BCUT_PEOE_2>
0.46121866

>  <BCUT_PEOE_3>
2.9936748

>  <BCUT_SLOGP_0>
-2.9280477

>  <BCUT_SLOGP_1>
-0.42894661

>  <BCUT_SLOGP_2>
0.48159009

>  <BCUT_SLOGP_3>
2.9967043

>  <BCUT_SMR_0>
-2.6787145

>  <BCUT_SMR_1>
-0.33027431

>  <BCUT_SMR_2>
0.60754699

>  <BCUT_SMR_3>
3.2208338

>  <bpol>
34.822002

>  <b_1rotN>
1

>  <b_1rotR>
0.033333335

>  <b_ar>
0

>  <b_count>
59

>  <b_double>
4

>  <b_heavy>
30

>  <b_max1len>
5

>  <b_rotN>
1

>  <b_rotR>
0.033333335

>  <b_single>
55

>  <b_triple>
0

>  <chi0>
19.991199

>  <chi0v>
16.458767

>  <chi0v_C>
14.369879

>  <chi0_C>
14.991199

>  <chi1>
12.415192

>  <chi1v>
9.9725542

>  <chi1v_C>
8.8935175

>  <chi1_C>
9.6831408

>  <chiral>
8

>  <chiral_u>
0

>  <density>
0.74328136

>  <diameter>
11

>  <FCharge>
0

>  <GCUT_PEOE_0>
-0.79051226

>  <GCUT_PEOE_1>
-0.38913175

>  <GCUT_PEOE_2>
0.0079044383

>  <GCUT_PEOE_3>
3.3627315

>  <GCUT_SLOGP_0>
-0.9265697

>  <GCUT_SLOGP_1>
-0.33123085

>  <GCUT_SLOGP_2>
0.0012900881

>  <GCUT_SLOGP_3>
3.395093

>  <GCUT_SMR_0>
-0.53712922

>  <GCUT_SMR_1>
-0.21431421

>  <GCUT_SMR_2>
0.1420214

>  <GCUT_SMR_3>
3.5810721

>  <Kier1>
20.280001

>  <Kier2>
6.0096154

>  <Kier3>
2.2825789

>  <KierA1>
17.675766

>  <KierA2>
5.2088528

>  <KierA3>
1.970282

>  <KierFlex>
3.4100173

>  <lip_acc>
4

>  <lip_don>
2

>  <lip_druglike>
1

>  <lip_violation>
0

>  <logP(o/w)>
2.983

>  <logS>
-3.7024801

>  <mr>
9.9239044

>  <mutagenic>
0

>  <nmol>
1

>  <opr_brigid>
20

>  <opr_leadlike>
1

>  <opr_nring>
4

>  <opr_nrot>
1

>  <opr_violation>
0

>  <PC+>
0

>  <PC->
0

>  <PEOE_PC+>
2.0727062

>  <PEOE_PC->
-2.0727062

>  <PEOE_RPC+>
0.10168417

>  <PEOE_RPC->
0.18747501

>  <PEOE_VSA+0>
98.103882

>  <PEOE_VSA+1>
21.966473

>  <PEOE_VSA+2>
0

>  <PEOE_VSA+3>
16.917038

>  <PEOE_VSA+4>
20.648346

>  <PEOE_VSA+5>
0

>  <PEOE_VSA+6>
0

>  <PEOE_VSA-0>
96.810417

>  <PEOE_VSA-1>
51.958797

>  <PEOE_VSA-2>
0

>  <PEOE_VSA-3>
0

>  <PEOE_VSA-4>
11.908636

>  <PEOE_VSA-5>
27.133842

>  <PEOE_VSA-6>
15.535081

>  <PEOE_VSA_FHYD>
0.79160792

>  <PEOE_VSA_FNEG>
0.56331474

>  <PEOE_VSA_FPNEG>
0.1511917

>  <PEOE_VSA_FPOL>
0.2083921

>  <PEOE_VSA_FPOS>
0.43668523

>  <PEOE_VSA_FPPOS>
0.057200406

>  <PEOE_VSA_HYD>
285.75659

>  <PEOE_VSA_NEG>
203.34677

>  <PEOE_VSA_PNEG>
54.577557

>  <PEOE_VSA_POL>
75.225906

>  <PEOE_VSA_POS>
157.63574

>  <PEOE_VSA_PPOS>
20.648346

>  <petitjean>
0.45454547

>  <petitjeanSC>
0.83333331

>  <Q_PC+>
0

>  <Q_PC->
0

>  <Q_RPC+>
0

>  <Q_RPC->
0

>  <Q_VSA_FHYD>
1

>  <Q_VSA_FNEG>
0

>  <Q_VSA_FPNEG>
0

>  <Q_VSA_FPOL>
0

>  <Q_VSA_FPOS>
1

>  <Q_VSA_FPPOS>
0

>  <Q_VSA_HYD>
360.98251

>  <Q_VSA_NEG>
0

>  <Q_VSA_PNEG>
0

>  <Q_VSA_POL>
0

>  <Q_VSA_POS>
360.98251

>  <Q_VSA_PPOS>
0

>  <radius>
6

>  <reactive>
1

>  <rings>
4

>  <RPC+>
0

>  <RPC->
0

>  <rsynth>
0.2962963

>  <SlogP>
2.9233

>  <SlogP_VSA0>
50.770454

>  <SlogP_VSA1>
11.375222

>  <SlogP_VSA2>
54.193081

>  <SlogP_VSA3>
0

>  <SlogP_VSA4>
13.232388

>  <SlogP_VSA5>
3.185575

>  <SlogP_VSA6>
0

>  <SlogP_VSA7>
52.929554

>  <SlogP_VSA8>
75.473625

>  <SlogP_VSA9>
148.26418

>  <SMR>
9.85326

>  <SMR_VSA0>
47.724434

>  <SMR_VSA1>
65.730568

>  <SMR_VSA2>
13.232388

>  <SMR_VSA3>
9.6542244

>  <SMR_VSA4>
0

>  <SMR_VSA5>
128.40317

>  <SMR_VSA6>
11.375222

>  <SMR_VSA7>
133.30406

>  <TPSA>
74.599998

>  <VAdjEq>
0.41024774

>  <VAdjMa>
5.9068904

>  <VDistEq>
3.0703111

>  <VDistMa>
9.2626076

>  <vdw_area>
360.98251

>  <vdw_vol>
506.49457

>  <vsa_acc>
27.133842

>  <vsa_acid>
0

>  <vsa_base>
0

>  <vsa_don>
0

>  <vsa_hyd>
257.49457

>  <vsa_other>
16.917038

>  <vsa_pol>
54.267685

>  <Weight>
376.46799

>  <weinerPath>
1489

>  <weinerPol>
67

>  <zagreb>
164

$$$$