Fc1cc2c(O[C@@H](C[C@]23NC(=O)NC3=O)C(=O)N)cc1
  MOE2013           2D

 20 22  0  0  1  0  0  0  0  0999 V2000
    0.0000    0.0000    0.0000 F   0  0  0  0  0  0  0  0  0  0  0  0
   -1.5000   -0.0030    0.0000 C   0  0  0  0  0  0  0  0  0  0  0  0
   -2.2530    1.2940    0.0000 C   0  0  0  0  0  0  0  0  0  0  0  0
   -3.7530    1.2910    0.0000 C   0  0  0  0  0  0  0  0  0  0  0  0
   -4.5000   -0.0090    0.0000 C   0  0  0  0  0  0  0  0  0  0  0  0
   -6.0000   -0.0130    0.0000 O   0  0  0  0  0  0  0  0  0  0  0  0
   -6.7530    1.2850    0.0000 C   0  0  1  0  0  0  0  0  0  0  0  0
   -6.0050    2.5860    0.0000 C   0  0  0  0  0  0  0  0  0  0  0  0
   -4.5050    2.5890    0.0000 C   0  0  2  0  0  0  0  0  0  0  0  0
   -5.3680    3.8160    0.0000 N   0  0  0  0  0  0  0  0  0  0  0  0
   -4.4680    5.0150    0.0000 C   0  0  0  0  0  0  0  0  0  0  0  0
   -4.9100    6.4490    0.0000 O   0  0  0  0  0  0  0  0  0  0  0  0
   -3.0490    4.5300    0.0000 N   0  0  0  0  0  0  0  0  0  0  0  0
   -3.0720    3.0300    0.0000 C   0  0  0  0  0  0  0  0  0  0  0  0
   -1.8720    2.1300    0.0000 O   0  0  0  0  0  0  0  0  0  0  0  0
   -8.2530    1.2820    0.0000 C   0  0  0  0  0  0  0  0  0  0  0  0
   -9.0000   -0.0190    0.0000 O   0  0  0  0  0  0  0  0  0  0  0  0
   -9.0050    2.5790    0.0000 N   0  0  0  0  0  0  0  0  0  0  0  0
   -3.7470   -1.3070    0.0000 C   0  0  0  0  0  0  0  0  0  0  0  0
   -2.2470   -1.3040    0.0000 C   0  0  0  0  0  0  0  0  0  0  0  0
  1  2  1  0  0  0  0
  2  3  1  0  0  0  0
  2 20  2  0  0  0  0
  3  4  2  0  0  0  0
  4  5  1  0  0  0  0
  4  9  1  0  0  0  0
  5  6  1  0  0  0  0
  5 19  2  0  0  0  0
  6  7  1  0  0  0  0
  7  8  1  0  0  0  0
  7 16  1  6  0  0  0
  8  9  1  0  0  0  0
  9 10  1  6  0  0  0
  9 14  1  1  0  0  0
 10 11  1  0  0  0  0
 11 12  2  0  0  0  0
 11 13  1  0  0  0  0
 13 14  1  0  0  0  0
 14 15  2  0  0  0  0
 16 17  2  0  0  0  0
 16 18  1  0  0  0  0
 19 20  1  0  0  0  0
M  END
>  <Index>
430

>  <ID>
HT0873

>  <class>
0

>  <apol>
34.852928

>  <ast_fraglike>
0

>  <ast_fraglike_ext>
0

>  <ast_violation>
1

>  <ast_violation_ext>
2

>  <a_acc>
4

>  <a_acid>
0

>  <a_aro>
6

>  <a_base>
0

>  <a_count>
30

>  <a_don>
3

>  <a_donacc>
7

>  <a_heavy>
20

>  <a_hyd>
10

>  <a_IC>
58.213001

>  <a_ICM>
1.9404333

>  <a_nB>
0

>  <a_nBr>
0

>  <a_nC>
12

>  <a_nCl>
0

>  <a_nF>
1

>  <a_nH>
10

>  <a_nI>
0

>  <a_nN>
3

>  <a_nO>
4

>  <a_nP>
0

>  <a_nS>
0

>  <balabanJ>
1.9150246

>  <BCUT_PEOE_0>
-2.5815029

>  <BCUT_PEOE_1>
-0.60367221

>  <BCUT_PEOE_2>
0.57751846

>  <BCUT_PEOE_3>
2.7248175

>  <BCUT_SLOGP_0>
-2.7136774

>  <BCUT_SLOGP_1>
-0.53635097

>  <BCUT_SLOGP_2>
0.7345807

>  <BCUT_SLOGP_3>
2.6764722

>  <BCUT_SMR_0>
-2.3541963

>  <BCUT_SMR_1>
-0.41679996

>  <BCUT_SMR_2>
0.76276714

>  <BCUT_SMR_3>
2.9570541

>  <bpol>
17.58507

>  <b_1rotN>
1

>  <b_1rotR>
0.045454547

>  <b_ar>
6

>  <b_count>
32

>  <b_double>
3

>  <b_heavy>
22

>  <b_max1len>
2

>  <b_rotN>
1

>  <b_rotR>
0.045454547

>  <b_single>
23

>  <b_triple>
0

>  <chi0>
14.491199

>  <chi0v>
10.104815

>  <chi0v_C>
6.5165076

>  <chi0_C>
7.3698792

>  <chi1>
9.4203577

>  <chi1v>
5.818367

>  <chi1v_C>
3.2885108

>  <chi1_C>
4.1388116

>  <chiral>
2

>  <chiral_u>
0

>  <density>
0.89427459

>  <diameter>
8

>  <FCharge>
0

>  <GCUT_PEOE_0>
-0.81843114

>  <GCUT_PEOE_1>
-0.48671192

>  <GCUT_PEOE_2>
0.075763084

>  <GCUT_PEOE_3>
2.6307116

>  <GCUT_SLOGP_0>
-1.3705411

>  <GCUT_SLOGP_1>
-0.40314132

>  <GCUT_SLOGP_2>
0.19410622

>  <GCUT_SLOGP_3>
2.6196191

>  <GCUT_SMR_0>
-0.50320345

>  <GCUT_SMR_1>
-0.23314889

>  <GCUT_SMR_2>
0.18476123

>  <GCUT_SMR_3>
2.8748441

>  <Kier1>
14.917356

>  <Kier2>
5.3252597

>  <Kier3>
2.4934359

>  <KierA1>
10.291351

>  <KierA2>
3.5951207

>  <KierA3>
1.6567498

>  <KierFlex>
1.8499326

>  <lip_acc>
7

>  <lip_don>
4

>  <lip_druglike>
1

>  <lip_violation>
0

>  <logP(o/w)>
-0.213

>  <logS>
-2.88291

>  <mr>
6.4834657

>  <mutagenic>
0

>  <nmol>
1

>  <opr_brigid>
16

>  <opr_leadlike>
1

>  <opr_nring>
3

>  <opr_nrot>
1

>  <opr_violation>
0

>  <PC+>
0

>  <PC->
0

>  <PEOE_PC+>
2.3593681

>  <PEOE_PC->
-2.3593681

>  <PEOE_RPC+>
0.13719042

>  <PEOE_RPC->
0.1558414

>  <PEOE_VSA+0>
19.440624

>  <PEOE_VSA+1>
25.520063

>  <PEOE_VSA+2>
13.925775

>  <PEOE_VSA+3>
34.476051

>  <PEOE_VSA+4>
12.949531

>  <PEOE_VSA+5>
12.949531

>  <PEOE_VSA+6>
17.440542

>  <PEOE_VSA-0>
36.764713

>  <PEOE_VSA-1>
0

>  <PEOE_VSA-2>
0

>  <PEOE_VSA-3>
0

>  <PEOE_VSA-4>
25.475557

>  <PEOE_VSA-5>
27.270733

>  <PEOE_VSA-6>
9.2917662

>  <PEOE_VSA_FHYD>
0.55254579

>  <PEOE_VSA_FNEG>
0.41953596

>  <PEOE_VSA_FPNEG>
0.26342577

>  <PEOE_VSA_FPOL>
0.44745424

>  <PEOE_VSA_FPOS>
0.58046407

>  <PEOE_VSA_FPPOS>
0.18402848

>  <PEOE_VSA_HYD>
130.12723

>  <PEOE_VSA_NEG>
98.802765

>  <PEOE_VSA_PNEG>
62.038055

>  <PEOE_VSA_POL>
105.37766

>  <PEOE_VSA_POS>
136.70212

>  <PEOE_VSA_PPOS>
43.339603

>  <petitjean>
0.5

>  <petitjeanSC>
1

>  <Q_PC+>
0

>  <Q_PC->
0

>  <Q_RPC+>
0

>  <Q_RPC->
0

>  <Q_VSA_FHYD>
1

>  <Q_VSA_FNEG>
0

>  <Q_VSA_FPNEG>
0

>  <Q_VSA_FPOL>
0

>  <Q_VSA_FPOS>
1

>  <Q_VSA_FPPOS>
0

>  <Q_VSA_HYD>
235.50488

>  <Q_VSA_NEG>
0

>  <Q_VSA_PNEG>
0

>  <Q_VSA_POL>
0

>  <Q_VSA_POS>
235.50488

>  <Q_VSA_PPOS>
0

>  <radius>
4

>  <reactive>
0

>  <rings>
3

>  <RPC+>
0

>  <RPC->
0

>  <rsynth>
1

>  <SlogP>
-0.1917

>  <SlogP_VSA0>
79.918579

>  <SlogP_VSA1>
15.347524

>  <SlogP_VSA2>
63.314098

>  <SlogP_VSA3>
0

>  <SlogP_VSA4>
3.185575

>  <SlogP_VSA5>
0

>  <SlogP_VSA6>
0

>  <SlogP_VSA7>
52.929554

>  <SlogP_VSA8>
18.868406

>  <SlogP_VSA9>
44.065758

>  <SMR>
6.30968

>  <SMR_VSA0>
71.586647

>  <SMR_VSA1>
25.960001

>  <SMR_VSA2>
45.142521

>  <SMR_VSA3>
14.897653

>  <SMR_VSA4>
32.897186

>  <SMR_VSA5>
71.797958

>  <SMR_VSA6>
15.347524

>  <SMR_VSA7>
0

>  <TPSA>
110.52

>  <VAdjEq>
0.49991596

>  <VAdjMa>
5.4594316

>  <VDistEq>
2.7467175

>  <VDistMa>
8.4011774

>  <vdw_area>
235.50488

>  <vdw_vol>
312.23856

>  <vsa_acc>
43.204517

>  <vsa_acid>
0

>  <vsa_base>
0

>  <vsa_don>
29.107641

>  <vsa_hyd>
103.28904

>  <vsa_other>
43.339603

>  <vsa_pol>
72.312157

>  <Weight>
279.22699

>  <weinerPath>
696

>  <weinerPol>
36

>  <zagreb>
112

$$$$