Fc1cc2c(nc1N1CC(CN)/C(=N/OC)/C1)N(C=C(C(O)=O)C2=O)C1CC1
  MOE2013           2D

 28 31  0  0  1  0  0  0  0  0999 V2000
    0.0000    0.0000    0.0000 F   0  0  0  0  0  0  0  0  0  0  0  0
   -1.3020    0.7450    0.0000 C   0  0  0  0  0  0  0  0  0  0  0  0
   -2.5980   -0.0100    0.0000 C   0  0  0  0  0  0  0  0  0  0  0  0
   -3.9000    0.7340    0.0000 C   0  0  0  0  0  0  0  0  0  0  0  0
   -3.9060    2.2340    0.0000 C   0  0  0  0  0  0  0  0  0  0  0  0
   -2.6100    2.9900    0.0000 N   0  0  0  0  0  0  0  0  0  0  0  0
   -1.3080    2.2450    0.0000 C   0  0  0  0  0  0  0  0  0  0  0  0
   -0.0120    3.0000    0.0000 N   0  0  3  0  0  0  0  0  0  0  0  0
    0.1390    4.4920    0.0000 C   0  0  0  0  0  0  0  0  0  0  0  0
    1.6050    4.8100    0.0000 C   0  0  3  0  0  0  0  0  0  0  0  0
    2.2100    6.1830    0.0000 C   0  0  0  0  0  0  0  0  0  0  0  0
    1.3230    7.3930    0.0000 N   0  0  0  0  0  0  0  0  0  0  0  0
    2.3600    3.5140    0.0000 C   0  0  0  0  0  0  0  0  0  0  0  0
    3.8520    3.3630    0.0000 N   0  0  0  0  0  0  0  0  0  0  0  0
    4.4680    1.9950    0.0000 O   0  0  0  0  0  0  0  0  0  0  0  0
    5.9600    1.8440    0.0000 C   0  0  0  0  0  0  0  0  0  0  0  0
    1.3610    2.3950    0.0000 C   0  0  0  0  0  0  0  0  0  0  0  0
   -5.2080    2.9790    0.0000 N   0  0  3  0  0  0  0  0  0  0  0  0
   -6.5040    2.2240    0.0000 C   0  0  0  0  0  0  0  0  0  0  0  0
   -6.4980    0.7240    0.0000 C   0  0  0  0  0  0  0  0  0  0  0  0
   -7.7940   -0.0310    0.0000 C   0  0  0  0  0  0  0  0  0  0  0  0
   -9.0960    0.7140    0.0000 O   0  0  0  0  0  0  0  0  0  0  0  0
   -7.7880   -1.5310    0.0000 O   0  0  0  0  0  0  0  0  0  0  0  0
   -5.1960   -0.0210    0.0000 C   0  0  0  0  0  0  0  0  0  0  0  0
   -5.1900   -1.5210    0.0000 O   0  0  0  0  0  0  0  0  0  0  0  0
   -5.2140    4.4790    0.0000 C   0  0  0  0  0  0  0  0  0  0  0  0
   -5.9690    5.7750    0.0000 C   0  0  0  0  0  0  0  0  0  0  0  0
   -4.4690    5.7810    0.0000 C   0  0  0  0  0  0  0  0  0  0  0  0
  1  2  1  0  0  0  0
  2  3  1  0  0  0  0
  2  7  2  0  0  0  0
  3  4  2  0  0  0  0
  4  5  1  0  0  0  0
  4 24  1  0  0  0  0
  5  6  2  0  0  0  0
  5 18  1  0  0  0  0
  6  7  1  0  0  0  0
  7  8  1  0  0  0  0
  8  9  1  0  0  0  0
  8 17  1  0  0  0  0
  9 10  1  0  0  0  0
 10 11  1  0  0  0  0
 10 13  1  0  0  0  0
 11 12  1  0  0  0  0
 13 14  2  0  0  0  0
 13 17  1  0  0  0  0
 14 15  1  0  0  0  0
 15 16  1  0  0  0  0
 18 19  1  0  0  0  0
 18 26  1  0  0  0  0
 19 20  2  0  0  0  0
 20 21  1  0  0  0  0
 20 24  1  0  0  0  0
 21 22  1  0  0  0  0
 21 23  2  0  0  0  0
 24 25  2  0  0  0  0
 26 27  1  0  0  0  0
 26 28  1  0  0  0  0
 27 28  1  0  0  0  0
M  END
>  <Index>
483

>  <ID>
HT0971

>  <class>
0

>  <apol>
54.280861

>  <ast_fraglike>
0

>  <ast_fraglike_ext>
0

>  <ast_violation>
2

>  <ast_violation_ext>
4

>  <a_acc>
6

>  <a_acid>
0

>  <a_aro>
6

>  <a_base>
0

>  <a_count>
48

>  <a_don>
3

>  <a_donacc>
9

>  <a_heavy>
28

>  <a_hyd>
14

>  <a_IC>
86.971344

>  <a_ICM>
1.8119031

>  <a_nB>
0

>  <a_nBr>
0

>  <a_nC>
18

>  <a_nCl>
0

>  <a_nF>
1

>  <a_nH>
20

>  <a_nI>
0

>  <a_nN>
5

>  <a_nO>
4

>  <a_nP>
0

>  <a_nS>
0

>  <balabanJ>
1.5020827

>  <BCUT_PEOE_0>
-2.5401087

>  <BCUT_PEOE_1>
-0.61438704

>  <BCUT_PEOE_2>
0.63373166

>  <BCUT_PEOE_3>
2.7650399

>  <BCUT_SLOGP_0>
-2.73138

>  <BCUT_SLOGP_1>
-0.5617283

>  <BCUT_SLOGP_2>
0.73758173

>  <BCUT_SLOGP_3>
2.8082638

>  <BCUT_SMR_0>
-2.2804697

>  <BCUT_SMR_1>
-0.42464551

>  <BCUT_SMR_2>
0.8003996

>  <BCUT_SMR_3>
3.0296488

>  <bpol>
31.51914

>  <b_1rotN>
5

>  <b_1rotR>
0.16129032

>  <b_ar>
6

>  <b_count>
51

>  <b_double>
4

>  <b_heavy>
31

>  <b_max1len>
4

>  <b_rotN>
5

>  <b_rotR>
0.16129032

>  <b_single>
41

>  <b_triple>
0

>  <chi0>
19.999271

>  <chi0v>
15.261063

>  <chi0v_C>
10.844935

>  <chi0_C>
11.72325

>  <chi1>
13.439091

>  <chi1v>
8.9780426

>  <chi1v_C>
4.8912473

>  <chi1_C>
5.7659864

>  <chiral>
1

>  <chiral_u>
1

>  <density>
0.82276529

>  <diameter>
13

>  <FCharge>
0

>  <GCUT_PEOE_0>
-0.8366589

>  <GCUT_PEOE_1>
-0.44021156

>  <GCUT_PEOE_2>
0.079573773

>  <GCUT_PEOE_3>
2.7363815

>  <GCUT_SLOGP_0>
-1.3634163

>  <GCUT_SLOGP_1>
-0.40123454

>  <GCUT_SLOGP_2>
0.17222063

>  <GCUT_SLOGP_3>
2.7325711

>  <GCUT_SMR_0>
-0.512312

>  <GCUT_SMR_1>
-0.25207293

>  <GCUT_SMR_2>
0.23306699

>  <GCUT_SMR_3>
3.0083153

>  <Kier1>
21.240376

>  <Kier2>
8.6257086

>  <Kier3>
3.8797061

>  <KierA1>
16.161932

>  <KierA2>
6.4922643

>  <KierA3>
2.8975461

>  <KierFlex>
3.747412

>  <lip_acc>
9

>  <lip_don>
3

>  <lip_druglike>
1

>  <lip_violation>
0

>  <logP(o/w)>
0.242

>  <logS>
-2.3387699

>  <mr>
9.6931658

>  <mutagenic>
0

>  <nmol>
1

>  <opr_brigid>
20

>  <opr_leadlike>
1

>  <opr_nring>
4

>  <opr_nrot>
6

>  <opr_violation>
1

>  <PC+>
0

>  <PC->
0

>  <PEOE_PC+>
2.5794187

>  <PEOE_PC->
-2.5794187

>  <PEOE_RPC+>
0.11472755

>  <PEOE_RPC->
0.12767394

>  <PEOE_VSA+0>
110.65348

>  <PEOE_VSA+1>
55.232677

>  <PEOE_VSA+2>
41.82769

>  <PEOE_VSA+3>
9.0208454

>  <PEOE_VSA+4>
18.782692

>  <PEOE_VSA+5>
14.708499

>  <PEOE_VSA+6>
0

>  <PEOE_VSA-0>
29.65753

>  <PEOE_VSA-1>
0

>  <PEOE_VSA-2>
10.885262

>  <PEOE_VSA-3>
0

>  <PEOE_VSA-4>
17.591211

>  <PEOE_VSA-5>
33.036201

>  <PEOE_VSA-6>
14.418659

>  <PEOE_VSA_FHYD>
0.72306585

>  <PEOE_VSA_FNEG>
0.29675236

>  <PEOE_VSA_FPNEG>
0.18280882

>  <PEOE_VSA_FPOL>
0.27693418

>  <PEOE_VSA_FPOS>
0.70324767

>  <PEOE_VSA_FPPOS>
0.09412536

>  <PEOE_VSA_HYD>
257.2775

>  <PEOE_VSA_NEG>
105.58887

>  <PEOE_VSA_PNEG>
65.046074

>  <PEOE_VSA_POL>
98.537262

>  <PEOE_VSA_POS>
250.22589

>  <PEOE_VSA_PPOS>
33.491192

>  <petitjean>
0.46153846

>  <petitjeanSC>
0.85714287

>  <Q_PC+>
0

>  <Q_PC->
0

>  <Q_RPC+>
0

>  <Q_RPC->
0

>  <Q_VSA_FHYD>
1

>  <Q_VSA_FNEG>
0

>  <Q_VSA_FPNEG>
0

>  <Q_VSA_FPOL>
0

>  <Q_VSA_FPOS>
1

>  <Q_VSA_FPPOS>
0

>  <Q_VSA_HYD>
355.81476

>  <Q_VSA_NEG>
0

>  <Q_VSA_PNEG>
0

>  <Q_VSA_POL>
0

>  <Q_VSA_POS>
355.81476

>  <Q_VSA_PPOS>
0

>  <radius>
7

>  <reactive>
1

>  <rings>
4

>  <RPC+>
0

>  <RPC->
0

>  <rsynth>
0.75

>  <SlogP>
0.75160003

>  <SlogP_VSA0>
39.145817

>  <SlogP_VSA1>
32.975353

>  <SlogP_VSA2>
48.183968

>  <SlogP_VSA3>
80.703964

>  <SlogP_VSA4>
31.458588

>  <SlogP_VSA5>
57.969303

>  <SlogP_VSA6>
0

>  <SlogP_VSA7>
34.85754

>  <SlogP_VSA8>
37.736813

>  <SlogP_VSA9>
19.615953

>  <SMR>
9.8946695

>  <SMR_VSA0>
58.943195

>  <SMR_VSA1>
51.145504

>  <SMR_VSA2>
45.165668

>  <SMR_VSA3>
10.353119

>  <SMR_VSA4>
37.553028

>  <SMR_VSA5>
72.594353

>  <SMR_VSA6>
71.50856

>  <SMR_VSA7>
35.383869

>  <TPSA>
121.35

>  <VAdjEq>
0.39893496

>  <VAdjMa>
5.9541965

>  <VDistEq>
3.4222326

>  <VDistMa>
9.3398085

>  <vdw_area>
355.81476

>  <vdw_vol>
473.26617

>  <vsa_acc>
30.134758

>  <vsa_acid>
0

>  <vsa_base>
0

>  <vsa_don>
0

>  <vsa_hyd>
198.53659

>  <vsa_other>
58.150055

>  <vsa_pol>
75.011093

>  <Weight>
389.38699

>  <weinerPath>
1953

>  <weinerPol>
50

>  <zagreb>
154

$$$$