s1c(nc(C)c1C(O)=O)-c1cc(C#N)c(OCC(C)C)cc1
  MOE2013           2D

 22 23  0  0  0  0  0  0  0  0999 V2000
    0.0000    0.0000    0.0000 S   0  0  0  0  0  0  0  0  0  0  0  0
   -0.8770    1.2170    0.0000 C   0  0  0  0  0  0  0  0  0  0  0  0
    0.0090    2.4270    0.0000 N   0  0  0  0  0  0  0  0  0  0  0  0
    1.4340    1.9580    0.0000 C   0  0  0  0  0  0  0  0  0  0  0  0
    2.6510    2.8350    0.0000 C   0  0  0  0  0  0  0  0  0  0  0  0
    1.4280    0.4580    0.0000 C   0  0  0  0  0  0  0  0  0  0  0  0
    2.6380   -0.4280    0.0000 C   0  0  0  0  0  0  0  0  0  0  0  0
    2.4760   -1.9190    0.0000 O   0  0  0  0  0  0  0  0  0  0  0  0
    4.0110    0.1770    0.0000 O   0  0  0  0  0  0  0  0  0  0  0  0
   -2.3770    1.2230    0.0000 C   0  0  0  0  0  0  0  0  0  0  0  0
   -3.1220    2.5250    0.0000 C   0  0  0  0  0  0  0  0  0  0  0  0
   -4.6220    2.5300    0.0000 C   0  0  0  0  0  0  0  0  0  0  0  0
   -5.3670    3.8320    0.0000 C   0  0  0  0  0  0  0  0  0  0  0  0
   -6.1120    5.1340    0.0000 N   0  0  0  0  0  0  0  0  0  0  0  0
   -5.3770    1.2340    0.0000 C   0  0  0  0  0  0  0  0  0  0  0  0
   -6.8770    1.2400    0.0000 O   0  0  0  0  0  0  0  0  0  0  0  0
   -7.6320   -0.0560    0.0000 C   0  0  0  0  0  0  0  0  0  0  0  0
   -9.1320   -0.0500    0.0000 C   0  0  0  0  0  0  0  0  0  0  0  0
   -9.8770    1.2510    0.0000 C   0  0  0  0  0  0  0  0  0  0  0  0
   -9.8870   -1.3470    0.0000 C   0  0  0  0  0  0  0  0  0  0  0  0
   -4.6320   -0.0680    0.0000 C   0  0  0  0  0  0  0  0  0  0  0  0
   -3.1320   -0.0730    0.0000 C   0  0  0  0  0  0  0  0  0  0  0  0
  1  2  1  0  0  0  0
  1  6  1  0  0  0  0
  2  3  2  0  0  0  0
  2 10  1  0  0  0  0
  3  4  1  0  0  0  0
  4  5  1  0  0  0  0
  4  6  2  0  0  0  0
  6  7  1  0  0  0  0
  7  8  1  0  0  0  0
  7  9  2  0  0  0  0
 10 11  1  0  0  0  0
 10 22  2  0  0  0  0
 11 12  2  0  0  0  0
 12 13  1  0  0  0  0
 12 15  1  0  0  0  0
 13 14  3  0  0  0  0
 15 16  1  0  0  0  0
 15 21  2  0  0  0  0
 16 17  1  0  0  0  0
 17 18  1  0  0  0  0
 18 19  1  0  0  0  0
 18 20  1  0  0  0  0
 21 22  1  0  0  0  0
M  END
>  <Index>
419

>  <ID>
HT0850

>  <class>
0

>  <apol>
46.334686

>  <ast_fraglike>
0

>  <ast_fraglike_ext>
0

>  <ast_violation>
3

>  <ast_violation_ext>
4

>  <a_acc>
4

>  <a_acid>
0

>  <a_aro>
11

>  <a_base>
0

>  <a_count>
38

>  <a_don>
2

>  <a_donacc>
6

>  <a_heavy>
22

>  <a_hyd>
15

>  <a_IC>
64.666359

>  <a_ICM>
1.7017462

>  <a_nB>
0

>  <a_nBr>
0

>  <a_nC>
16

>  <a_nCl>
0

>  <a_nF>
0

>  <a_nH>
16

>  <a_nI>
0

>  <a_nN>
2

>  <a_nO>
3

>  <a_nP>
0

>  <a_nS>
1

>  <balabanJ>
1.8874654

>  <BCUT_PEOE_0>
-2.5963585

>  <BCUT_PEOE_1>
-0.5369525

>  <BCUT_PEOE_2>
0.51147532

>  <BCUT_PEOE_3>
2.5573764

>  <BCUT_SLOGP_0>
-2.5712273

>  <BCUT_SLOGP_1>
-0.43843779

>  <BCUT_SLOGP_2>
0.62959152

>  <BCUT_SLOGP_3>
2.6162455

>  <BCUT_SMR_0>
-2.3583467

>  <BCUT_SMR_1>
-0.32339951

>  <BCUT_SMR_2>
0.78825003

>  <BCUT_SMR_3>
2.7946112

>  <bpol>
24.625313

>  <b_1rotN>
5

>  <b_1rotR>
0.2173913

>  <b_ar>
11

>  <b_count>
39

>  <b_double>
1

>  <b_heavy>
23

>  <b_max1len>
4

>  <b_rotN>
6

>  <b_rotR>
0.26086956

>  <b_single>
26

>  <b_triple>
1

>  <chi0>
16.275656

>  <chi0v>
13.39939

>  <chi0v_C>
10.016508

>  <chi0_C>
11.154336

>  <chi1>
10.417923

>  <chi1v>
7.6170783

>  <chi1v_C>
4.8009825

>  <chi1_C>
6.014874

>  <chiral>
0

>  <chiral_u>
0

>  <density>
0.7781862

>  <diameter>
12

>  <FCharge>
0

>  <GCUT_PEOE_0>
-0.79121184

>  <GCUT_PEOE_1>
-0.42975137

>  <GCUT_PEOE_2>
0.0007836633

>  <GCUT_PEOE_3>
2.4225407

>  <GCUT_SLOGP_0>
-0.89463288

>  <GCUT_SLOGP_1>
-0.31244332

>  <GCUT_SLOGP_2>
0.15632199

>  <GCUT_SLOGP_3>
2.5523379

>  <GCUT_SMR_0>
-0.52978361

>  <GCUT_SMR_1>
-0.19923063

>  <GCUT_SMR_2>
0.19246283

>  <GCUT_SMR_3>
2.7109051

>  <Kier1>
18.340265

>  <Kier2>
8.203125

>  <Kier3>
4.75

>  <KierA1>
14.469584

>  <KierA2>
6.3935905

>  <KierA3>
3.6696174

>  <KierFlex>
4.2051182

>  <lip_acc>
5

>  <lip_don>
1

>  <lip_druglike>
1

>  <lip_violation>
0

>  <logP(o/w)>
3.2909999

>  <logS>
-4.5079398

>  <mr>
8.7524347

>  <mutagenic>
0

>  <nmol>
1

>  <opr_brigid>
11

>  <opr_leadlike>
1

>  <opr_nring>
2

>  <opr_nrot>
6

>  <opr_violation>
0

>  <PC+>
0

>  <PC->
0

>  <PEOE_PC+>
1.6756188

>  <PEOE_PC->
-1.6756188

>  <PEOE_RPC+>
0.16839375

>  <PEOE_RPC->
0.20479408

>  <PEOE_VSA+0>
62.213627

>  <PEOE_VSA+1>
46.945282

>  <PEOE_VSA+2>
20.299505

>  <PEOE_VSA+3>
19.760618

>  <PEOE_VSA+4>
10.324173

>  <PEOE_VSA+5>
14.708499

>  <PEOE_VSA+6>
0

>  <PEOE_VSA-0>
45.466026

>  <PEOE_VSA-1>
49.750259

>  <PEOE_VSA-2>
0

>  <PEOE_VSA-3>
17.742489

>  <PEOE_VSA-4>
0

>  <PEOE_VSA-5>
19.249496

>  <PEOE_VSA-6>
10.271297

>  <PEOE_VSA_FHYD>
0.82776105

>  <PEOE_VSA_FNEG>
0.4498437

>  <PEOE_VSA_FPNEG>
0.093204543

>  <PEOE_VSA_FPOL>
0.17223896

>  <PEOE_VSA_FPOS>
0.5501563

>  <PEOE_VSA_FPPOS>
0.079034418

>  <PEOE_VSA_HYD>
262.1778

>  <PEOE_VSA_NEG>
142.47957

>  <PEOE_VSA_PNEG>
29.520794

>  <PEOE_VSA_POL>
54.553467

>  <PEOE_VSA_POS>
174.25171

>  <PEOE_VSA_PPOS>
25.032671

>  <petitjean>
0.5

>  <petitjeanSC>
1

>  <Q_PC+>
0

>  <Q_PC->
0

>  <Q_RPC+>
0

>  <Q_RPC->
0

>  <Q_VSA_FHYD>
1

>  <Q_VSA_FNEG>
0

>  <Q_VSA_FPNEG>
0

>  <Q_VSA_FPOL>
0

>  <Q_VSA_FPOS>
1

>  <Q_VSA_FPPOS>
0

>  <Q_VSA_HYD>
316.73126

>  <Q_VSA_NEG>
0

>  <Q_VSA_PNEG>
0

>  <Q_VSA_POL>
0

>  <Q_VSA_POS>
316.73126

>  <Q_VSA_PPOS>
0

>  <radius>
6

>  <reactive>
0

>  <rings>
2

>  <RPC+>
0

>  <RPC->
0

>  <rsynth>
1

>  <SlogP>
3.7232039

>  <SlogP_VSA0>
10.999887

>  <SlogP_VSA1>
24.530994

>  <SlogP_VSA2>
0

>  <SlogP_VSA3>
93.972588

>  <SlogP_VSA4>
35.573734

>  <SlogP_VSA5>
0

>  <SlogP_VSA6>
0

>  <SlogP_VSA7>
57.044701

>  <SlogP_VSA8>
0

>  <SlogP_VSA9>
136.49916

>  <SMR>
8.42943

>  <SMR_VSA0>
23.862217

>  <SMR_VSA1>
58.844772

>  <SMR_VSA2>
29.796022

>  <SMR_VSA3>
29.145899

>  <SMR_VSA4>
4.115149

>  <SMR_VSA5>
52.929554

>  <SMR_VSA6>
28.671722

>  <SMR_VSA7>
131.25574

>  <TPSA>
83.209999

>  <VAdjEq>
0.4530769

>  <VAdjMa>
5.523562

>  <VDistEq>
3.3751283

>  <VDistMa>
8.6079159

>  <vdw_area>
316.73126

>  <vdw_vol>
406.56207

>  <vsa_acc>
23.425066

>  <vsa_acid>
0

>  <vsa_base>
0

>  <vsa_don>
0

>  <vsa_hyd>
212.11383

>  <vsa_other>
37.511761

>  <vsa_pol>
50.558907

>  <Weight>
316.38098

>  <weinerPath>
1130

>  <weinerPol>
32

>  <zagreb>
110

$$$$