N(CC)C1C2CC(CC2)C1c1ccccc1
  MOE2013           2D

 16 18  0  0  1  0  0  0  0  0999 V2000
    0.0000    0.0000    0.0000 N   0  0  0  0  0  0  0  0  0  0  0  0
   -1.4560   -0.3620    0.0000 C   0  0  0  0  0  0  0  0  0  0  0  0
   -1.8690   -1.8040    0.0000 C   0  0  0  0  0  0  0  0  0  0  0  0
    0.4140    1.4420    0.0000 C   0  0  3  0  0  0  0  0  0  0  0  0
   -0.3880    2.7490    0.0000 C   0  0  3  0  0  0  0  0  0  0  0  0
   -1.7510    2.9840    0.0000 C   0  0  0  0  0  0  0  0  0  0  0  0
    0.7990    3.1630    0.0000 C   0  0  3  0  0  0  0  0  0  0  0  0
    1.4240    4.4630    0.0000 C   0  0  0  0  0  0  0  0  0  0  0  0
    0.3390    3.8330    0.0000 C   0  0  0  0  0  0  0  0  0  0  0  0
    1.4490    1.9560    0.0000 C   0  0  3  0  0  0  0  0  0  0  0  0
    2.8790    1.5020    0.0000 C   0  0  0  0  0  0  0  0  0  0  0  0
    3.9870    2.5130    0.0000 C   0  0  0  0  0  0  0  0  0  0  0  0
    5.4170    2.0590    0.0000 C   0  0  0  0  0  0  0  0  0  0  0  0
    5.7380    0.5940    0.0000 C   0  0  0  0  0  0  0  0  0  0  0  0
    4.6300   -0.4170    0.0000 C   0  0  0  0  0  0  0  0  0  0  0  0
    3.2010    0.0370    0.0000 C   0  0  0  0  0  0  0  0  0  0  0  0
  1  2  1  0  0  0  0
  1  4  1  0  0  0  0
  2  3  1  0  0  0  0
  4  5  1  0  0  0  0
  4 10  1  0  0  0  0
  5  6  1  0  0  0  0
  5  9  1  0  0  0  0
  6  7  1  0  0  0  0
  7  8  1  0  0  0  0
  7 10  1  0  0  0  0
  8  9  1  0  0  0  0
 10 11  1  0  0  0  0
 11 12  1  0  0  0  0
 11 16  2  0  0  0  0
 12 13  2  0  0  0  0
 13 14  1  0  0  0  0
 14 15  2  0  0  0  0
 15 16  1  0  0  0  0
M  END
>  <Index>
422

>  <ID>
HT0855

>  <class>
0

>  <apol>
41.502651

>  <ast_fraglike>
0

>  <ast_fraglike_ext>
0

>  <ast_violation>
1

>  <ast_violation_ext>
2

>  <a_acc>
1

>  <a_acid>
0

>  <a_aro>
6

>  <a_base>
0

>  <a_count>
37

>  <a_don>
1

>  <a_donacc>
2

>  <a_heavy>
16

>  <a_hyd>
15

>  <a_IC>
41.907749

>  <a_ICM>
1.1326419

>  <a_nB>
0

>  <a_nBr>
0

>  <a_nC>
15

>  <a_nCl>
0

>  <a_nF>
0

>  <a_nH>
21

>  <a_nI>
0

>  <a_nN>
1

>  <a_nO>
0

>  <a_nP>
0

>  <a_nS>
0

>  <balabanJ>
1.7109843

>  <BCUT_PEOE_0>
-2.7374821

>  <BCUT_PEOE_1>
-0.59147477

>  <BCUT_PEOE_2>
0.5991798

>  <BCUT_PEOE_3>
2.9031026

>  <BCUT_SLOGP_0>
-2.7926278

>  <BCUT_SLOGP_1>
-0.53807992

>  <BCUT_SLOGP_2>
0.69557393

>  <BCUT_SLOGP_3>
2.9755609

>  <BCUT_SMR_0>
-2.4703066

>  <BCUT_SMR_1>
-0.46810639

>  <BCUT_SMR_2>
0.73652303

>  <BCUT_SMR_3>
3.1627877

>  <bpol>
23.617348

>  <b_1rotN>
3

>  <b_1rotR>
0.16666667

>  <b_ar>
6

>  <b_count>
39

>  <b_double>
0

>  <b_heavy>
18

>  <b_max1len>
5

>  <b_rotN>
3

>  <b_rotR>
0.16666667

>  <b_single>
33

>  <b_triple>
0

>  <chi0>
10.957819

>  <chi0v>
10.02458

>  <chi0v_C>
9.52458

>  <chi0_C>
10.250712

>  <chi1>
7.8981781

>  <chi1v>
6.6816874

>  <chi1v_C>
6.0394588

>  <chi1_C>
6.9899297

>  <chiral>
4

>  <chiral_u>
4

>  <density>
0.63856

>  <diameter>
8

>  <FCharge>
0

>  <GCUT_PEOE_0>
-0.84938091

>  <GCUT_PEOE_1>
-0.38994849

>  <GCUT_PEOE_2>
0.059445135

>  <GCUT_PEOE_3>
2.8462276

>  <GCUT_SLOGP_0>
-1.15318

>  <GCUT_SLOGP_1>
-0.26386139

>  <GCUT_SLOGP_2>
0.13959618

>  <GCUT_SLOGP_3>
2.9217927

>  <GCUT_SMR_0>
-0.53810304

>  <GCUT_SMR_1>
-0.21605732

>  <GCUT_SMR_2>
0.15967502

>  <GCUT_SMR_3>
3.0919979

>  <Kier1>
11.111111

>  <Kier2>
4.704

>  <Kier3>
1.9660494

>  <KierA1>
9.4988022

>  <KierA2>
3.9763305

>  <KierA3>
1.6478934

>  <KierFlex>
2.3606486

>  <lip_acc>
1

>  <lip_don>
1

>  <lip_druglike>
1

>  <lip_violation>
0

>  <logP(o/w)>
3.29

>  <logS>
-2.75772

>  <mr>
6.7673965

>  <mutagenic>
0

>  <nmol>
1

>  <opr_brigid>
14

>  <opr_leadlike>
1

>  <opr_nring>
3

>  <opr_nrot>
5

>  <opr_violation>
0

>  <PC+>
0

>  <PC->
0

>  <PEOE_PC+>
0.91603351

>  <PEOE_PC->
-0.91603351

>  <PEOE_RPC+>
0.13341796

>  <PEOE_RPC->
0.34131989

>  <PEOE_VSA+0>
67.126747

>  <PEOE_VSA+1>
21.326929

>  <PEOE_VSA+2>
8.6190128

>  <PEOE_VSA+3>
0

>  <PEOE_VSA+4>
0

>  <PEOE_VSA+5>
0

>  <PEOE_VSA+6>
0

>  <PEOE_VSA-0>
41.504803

>  <PEOE_VSA-1>
80.022194

>  <PEOE_VSA-2>
0

>  <PEOE_VSA-3>
0

>  <PEOE_VSA-4>
0

>  <PEOE_VSA-5>
0

>  <PEOE_VSA-6>
0.13689101

>  <PEOE_VSA_FHYD>
0.99937415

>  <PEOE_VSA_FNEG>
0.55621189

>  <PEOE_VSA_FPNEG>
0.00062582584

>  <PEOE_VSA_FPOL>
0.00062582584

>  <PEOE_VSA_FPOS>
0.44378811

>  <PEOE_VSA_FPPOS>
0

>  <PEOE_VSA_HYD>
218.5997

>  <PEOE_VSA_NEG>
121.66389

>  <PEOE_VSA_PNEG>
0.13689101

>  <PEOE_VSA_POL>
0.13689101

>  <PEOE_VSA_POS>
97.072693

>  <PEOE_VSA_PPOS>
0

>  <petitjean>
0.5

>  <petitjeanSC>
1

>  <Q_PC+>
0

>  <Q_PC->
0

>  <Q_RPC+>
0

>  <Q_RPC->
0

>  <Q_VSA_FHYD>
1

>  <Q_VSA_FNEG>
0

>  <Q_VSA_FPNEG>
0

>  <Q_VSA_FPOL>
0

>  <Q_VSA_FPOS>
1

>  <Q_VSA_FPPOS>
0

>  <Q_VSA_HYD>
218.73659

>  <Q_VSA_NEG>
0

>  <Q_VSA_PNEG>
0

>  <Q_VSA_POL>
0

>  <Q_VSA_POS>
218.73659

>  <Q_VSA_PPOS>
0

>  <radius>
4

>  <reactive>
0

>  <rings>
3

>  <RPC+>
0

>  <RPC->
0

>  <rsynth>
0

>  <SlogP>
3.1782

>  <SlogP_VSA0>
18.01075

>  <SlogP_VSA1>
0

>  <SlogP_VSA2>
3.9819686

>  <SlogP_VSA3>
18.439579

>  <SlogP_VSA4>
12.007167

>  <SlogP_VSA5>
0

>  <SlogP_VSA6>
4.4107962

>  <SlogP_VSA7>
88.215919

>  <SlogP_VSA8>
56.605217

>  <SlogP_VSA9>
33.326015

>  <SMR>
6.74787

>  <SMR_VSA0>
0

>  <SMR_VSA1>
0

>  <SMR_VSA2>
26.832342

>  <SMR_VSA3>
11.57834

>  <SMR_VSA4>
0

>  <SMR_VSA5>
144.82114

>  <SMR_VSA6>
18.439579

>  <SMR_VSA7>
33.326015

>  <TPSA>
12.03

>  <VAdjEq>
0.58587331

>  <VAdjMa>
5.1699252

>  <VDistEq>
2.7202508

>  <VDistMa>
7.7164779

>  <vdw_area>
218.73659

>  <vdw_vol>
337.22751

>  <vsa_acc>
0

>  <vsa_acid>
0

>  <vsa_base>
0

>  <vsa_don>
0

>  <vsa_hyd>
191.70963

>  <vsa_other>
0

>  <vsa_pol>
5.6825762

>  <Weight>
215.34

>  <weinerPath>
412

>  <weinerPol>
21

>  <zagreb>
86

$$$$