S(O)(=O)(=O)c1cc(S(O)(=O)=O)c2c(c1N)c(O)c(N=Nc1ccc(cc1C)-c1cc(C)c(N=Nc3ccc4c(c(N)c(S(O)(=O)=O)cc4S(O)(=O)=O)c3O)cc1)cc2
  MOE2013           2D

 58 63  0  0  0  0  0  0  0  0999 V2000
    0.0000    0.0000    0.0000 S   0  0  0  0  0  0  0  0  0  0  0  0
   -0.7500    1.2990    0.0000 O   0  0  0  0  0  0  0  0  0  0  0  0
   -1.2990   -0.7500    0.0000 O   0  0  0  0  0  0  0  0  0  0  0  0
    1.2990    0.7500    0.0000 O   0  0  0  0  0  0  0  0  0  0  0  0
    0.7500   -1.2990    0.0000 C   0  0  0  0  0  0  0  0  0  0  0  0
    0.0000   -2.5980    0.0000 C   0  0  0  0  0  0  0  0  0  0  0  0
    0.7500   -3.8970    0.0000 C   0  0  0  0  0  0  0  0  0  0  0  0
    0.0000   -5.1960    0.0000 S   0  0  0  0  0  0  0  0  0  0  0  0
   -0.7500   -6.4950    0.0000 O   0  0  0  0  0  0  0  0  0  0  0  0
    1.2990   -5.9460    0.0000 O   0  0  0  0  0  0  0  0  0  0  0  0
   -1.2990   -4.4460    0.0000 O   0  0  0  0  0  0  0  0  0  0  0  0
    2.2500   -3.8970    0.0000 C   0  0  0  0  0  0  0  0  0  0  0  0
    3.0000   -2.5980    0.0000 C   0  0  0  0  0  0  0  0  0  0  0  0
    2.2500   -1.2990    0.0000 C   0  0  0  0  0  0  0  0  0  0  0  0
    3.0000    0.0000    0.0000 N   0  0  0  0  0  0  0  0  0  0  0  0
    4.5000   -2.5980    0.0000 C   0  0  0  0  0  0  0  0  0  0  0  0
    5.2500   -1.2990    0.0000 O   0  0  0  0  0  0  0  0  0  0  0  0
    5.2500   -3.8970    0.0000 C   0  0  0  0  0  0  0  0  0  0  0  0
    6.7500   -3.8970    0.0000 N   0  0  0  0  0  0  0  0  0  0  0  0
    7.5000   -5.1960    0.0000 N   0  0  0  0  0  0  0  0  0  0  0  0
    9.0000   -5.1960    0.0000 C   0  0  0  0  0  0  0  0  0  0  0  0
    9.7500   -3.8970    0.0000 C   0  0  0  0  0  0  0  0  0  0  0  0
   11.2500   -3.8970    0.0000 C   0  0  0  0  0  0  0  0  0  0  0  0
   12.0000   -5.1960    0.0000 C   0  0  0  0  0  0  0  0  0  0  0  0
   11.2500   -6.4950    0.0000 C   0  0  0  0  0  0  0  0  0  0  0  0
    9.7500   -6.4950    0.0000 C   0  0  0  0  0  0  0  0  0  0  0  0
    9.0000   -7.7940    0.0000 C   0  0  0  0  0  0  0  0  0  0  0  0
   13.5000   -5.1960    0.0000 C   0  0  0  0  0  0  0  0  0  0  0  0
   14.2500   -6.4950    0.0000 C   0  0  0  0  0  0  0  0  0  0  0  0
   15.7500   -6.4950    0.0000 C   0  0  0  0  0  0  0  0  0  0  0  0
   16.5000   -7.7940    0.0000 C   0  0  0  0  0  0  0  0  0  0  0  0
   16.5000   -5.1960    0.0000 C   0  0  0  0  0  0  0  0  0  0  0  0
   18.0000   -5.1960    0.0000 N   0  0  0  0  0  0  0  0  0  0  0  0
   18.7500   -3.8970    0.0000 N   0  0  0  0  0  0  0  0  0  0  0  0
   20.2500   -3.8970    0.0000 C   0  0  0  0  0  0  0  0  0  0  0  0
   21.0000   -5.1960    0.0000 C   0  0  0  0  0  0  0  0  0  0  0  0
   22.5000   -5.1960    0.0000 C   0  0  0  0  0  0  0  0  0  0  0  0
   23.2500   -3.8970    0.0000 C   0  0  0  0  0  0  0  0  0  0  0  0
   22.5000   -2.5980    0.0000 C   0  0  0  0  0  0  0  0  0  0  0  0
   23.2500   -1.2990    0.0000 C   0  0  0  0  0  0  0  0  0  0  0  0
   22.5000    0.0000    0.0000 N   0  0  0  0  0  0  0  0  0  0  0  0
   24.7500   -1.2990    0.0000 C   0  0  0  0  0  0  0  0  0  0  0  0
   25.5000    0.0000    0.0000 S   0  0  0  0  0  0  0  0  0  0  0  0
   26.2500    1.2990    0.0000 O   0  0  0  0  0  0  0  0  0  0  0  0
   24.2010    0.7500    0.0000 O   0  0  0  0  0  0  0  0  0  0  0  0
   26.7990   -0.7500    0.0000 O   0  0  0  0  0  0  0  0  0  0  0  0
   25.5000   -2.5980    0.0000 C   0  0  0  0  0  0  0  0  0  0  0  0
   24.7500   -3.8970    0.0000 C   0  0  0  0  0  0  0  0  0  0  0  0
   25.5000   -5.1960    0.0000 S   0  0  0  0  0  0  0  0  0  0  0  0
   26.2500   -6.4950    0.0000 O   0  0  0  0  0  0  0  0  0  0  0  0
   26.7990   -4.4460    0.0000 O   0  0  0  0  0  0  0  0  0  0  0  0
   24.2010   -5.9460    0.0000 O   0  0  0  0  0  0  0  0  0  0  0  0
   21.0000   -2.5980    0.0000 C   0  0  0  0  0  0  0  0  0  0  0  0
   20.2500   -1.2990    0.0000 O   0  0  0  0  0  0  0  0  0  0  0  0
   15.7500   -3.8970    0.0000 C   0  0  0  0  0  0  0  0  0  0  0  0
   14.2500   -3.8970    0.0000 C   0  0  0  0  0  0  0  0  0  0  0  0
    4.5000   -5.1960    0.0000 C   0  0  0  0  0  0  0  0  0  0  0  0
    3.0000   -5.1960    0.0000 C   0  0  0  0  0  0  0  0  0  0  0  0
  1  2  1  0  0  0  0
  1  3  2  0  0  0  0
  1  4  2  0  0  0  0
  1  5  1  0  0  0  0
  5  6  1  0  0  0  0
  5 14  2  0  0  0  0
  6  7  2  0  0  0  0
  7  8  1  0  0  0  0
  7 12  1  0  0  0  0
  8  9  1  0  0  0  0
  8 10  2  0  0  0  0
  8 11  2  0  0  0  0
 12 13  1  0  0  0  0
 12 58  2  0  0  0  0
 13 14  1  0  0  0  0
 13 16  2  0  0  0  0
 14 15  1  0  0  0  0
 16 17  1  0  0  0  0
 16 18  1  0  0  0  0
 18 19  1  0  0  0  0
 18 57  2  0  0  0  0
 19 20  2  3  0  0  0
 20 21  1  0  0  0  0
 21 22  1  0  0  0  0
 21 26  2  0  0  0  0
 22 23  2  0  0  0  0
 23 24  1  0  0  0  0
 24 25  2  0  0  0  0
 24 28  1  0  0  0  0
 25 26  1  0  0  0  0
 26 27  1  0  0  0  0
 28 29  1  0  0  0  0
 28 56  2  0  0  0  0
 29 30  2  0  0  0  0
 30 31  1  0  0  0  0
 30 32  1  0  0  0  0
 32 33  1  0  0  0  0
 32 55  2  0  0  0  0
 33 34  2  3  0  0  0
 34 35  1  0  0  0  0
 35 36  1  0  0  0  0
 35 53  2  0  0  0  0
 36 37  2  0  0  0  0
 37 38  1  0  0  0  0
 38 39  1  0  0  0  0
 38 48  2  0  0  0  0
 39 40  2  0  0  0  0
 39 53  1  0  0  0  0
 40 41  1  0  0  0  0
 40 42  1  0  0  0  0
 42 43  1  0  0  0  0
 42 47  2  0  0  0  0
 43 44  1  0  0  0  0
 43 45  2  0  0  0  0
 43 46  2  0  0  0  0
 47 48  1  0  0  0  0
 48 49  1  0  0  0  0
 49 50  1  0  0  0  0
 49 51  2  0  0  0  0
 49 52  2  0  0  0  0
 53 54  1  0  0  0  0
 55 56  1  0  0  0  0
 57 58  1  0  0  0  0
M  END
>  <Index>
414

>  <ID>
HT0837

>  <class>
0

>  <apol>
107.9382

>  <ast_fraglike>
0

>  <ast_fraglike_ext>
0

>  <ast_violation>
4

>  <ast_violation_ext>
6

>  <a_acc>
18

>  <a_acid>
0

>  <a_aro>
32

>  <a_base>
0

>  <a_count>
86

>  <a_don>
16

>  <a_donacc>
34

>  <a_heavy>
58

>  <a_hyd>
34

>  <a_IC>
168.26636

>  <a_ICM>
1.9565855

>  <a_nB>
0

>  <a_nBr>
0

>  <a_nC>
34

>  <a_nCl>
0

>  <a_nF>
0

>  <a_nH>
28

>  <a_nI>
0

>  <a_nN>
6

>  <a_nO>
14

>  <a_nP>
0

>  <a_nS>
4

>  <balabanJ>
0.97313392

>  <BCUT_PEOE_0>
-2.3216863

>  <BCUT_PEOE_1>
-0.73523521

>  <BCUT_PEOE_2>
0.72616851

>  <BCUT_PEOE_3>
2.4551253

>  <BCUT_SLOGP_0>
-2.3866453

>  <BCUT_SLOGP_1>
-0.59586394

>  <BCUT_SLOGP_2>
0.81272471

>  <BCUT_SLOGP_3>
2.520649

>  <BCUT_SMR_0>
-2.0133953

>  <BCUT_SMR_1>
-0.52630228

>  <BCUT_SMR_2>
0.94193643

>  <BCUT_SMR_3>
2.7506502

>  <bpol>
57.833797

>  <b_1rotN>
9

>  <b_1rotR>
0.14285715

>  <b_ar>
34

>  <b_count>
91

>  <b_double>
2

>  <b_heavy>
63

>  <b_max1len>
3

>  <b_rotN>
9

>  <b_rotR>
0.14285715

>  <b_single>
55

>  <b_triple>
0

>  <chi0>
42.860714

>  <chi0v>
32.720005

>  <chi0v_C>
18.928204

>  <chi0_C>
22.032288

>  <chi1>
26.783768

>  <chi1v>
21.661507

>  <chi1v_C>
10.702135

>  <chi1_C>
14.686673

>  <chiral>
0

>  <chiral_u>
0

>  <density>
0.91990596

>  <diameter>
25

>  <FCharge>
0

>  <GCUT_PEOE_0>
-0.78456497

>  <GCUT_PEOE_1>
-0.46568185

>  <GCUT_PEOE_2>
0.10135976

>  <GCUT_PEOE_3>
2.7928898

>  <GCUT_SLOGP_0>
-1.3346497

>  <GCUT_SLOGP_1>
-0.38217834

>  <GCUT_SLOGP_2>
0.19497612

>  <GCUT_SLOGP_3>
2.9475102

>  <GCUT_SMR_0>
-0.47889221

>  <GCUT_SMR_1>
-0.19468033

>  <GCUT_SMR_2>
0.30098736

>  <GCUT_SMR_3>
3.0830281

>  <Kier1>
47.478458

>  <Kier2>
17.8752

>  <Kier3>
10.205917

>  <KierA1>
40.007858

>  <KierA2>
15.015524

>  <KierA3>
8.5547533

>  <KierFlex>
10.357568

>  <lip_acc>
20

>  <lip_don>
10

>  <lip_druglike>
0

>  <lip_violation>
4

>  <logP(o/w)>
4.6700001

>  <logS>
-10.5917

>  <mr>
20.580147

>  <mutagenic>
1

>  <nmol>
1

>  <opr_brigid>
36

>  <opr_leadlike>
0

>  <opr_nring>
6

>  <opr_nrot>
9

>  <opr_violation>
5

>  <PC+>
0

>  <PC->
0

>  <PEOE_PC+>
5.4009323

>  <PEOE_PC->
-5.4009323

>  <PEOE_RPC+>
0.060185634

>  <PEOE_RPC->
0.066112243

>  <PEOE_VSA+0>
25.592316

>  <PEOE_VSA+1>
114.71458

>  <PEOE_VSA+2>
124.24243

>  <PEOE_VSA+3>
24.509808

>  <PEOE_VSA+4>
20.648346

>  <PEOE_VSA+5>
0

>  <PEOE_VSA+6>
16.738405

>  <PEOE_VSA-0>
144.36874

>  <PEOE_VSA-1>
24.509808

>  <PEOE_VSA-2>
37.684158

>  <PEOE_VSA-3>
0

>  <PEOE_VSA-4>
128.06609

>  <PEOE_VSA-5>
54.137764

>  <PEOE_VSA-6>
15.535081

>  <PEOE_VSA_FHYD>
0.67823952

>  <PEOE_VSA_FNEG>
0.55327129

>  <PEOE_VSA_FPNEG>
0.27059814

>  <PEOE_VSA_FPOL>
0.32176051

>  <PEOE_VSA_FPOS>
0.44672868

>  <PEOE_VSA_FPPOS>
0.051162336

>  <PEOE_VSA_HYD>
495.62186

>  <PEOE_VSA_NEG>
404.30164

>  <PEOE_VSA_PNEG>
197.73894

>  <PEOE_VSA_POL>
235.12569

>  <PEOE_VSA_POS>
326.44589

>  <PEOE_VSA_PPOS>
37.386749

>  <petitjean>
0.47999999

>  <petitjeanSC>
0.92307693

>  <Q_PC+>
0

>  <Q_PC->
0

>  <Q_RPC+>
0

>  <Q_RPC->
0

>  <Q_VSA_FHYD>
1

>  <Q_VSA_FNEG>
0

>  <Q_VSA_FPNEG>
0

>  <Q_VSA_FPOL>
0

>  <Q_VSA_FPOS>
1

>  <Q_VSA_FPPOS>
0

>  <Q_VSA_HYD>
730.74756

>  <Q_VSA_NEG>
0

>  <Q_VSA_PNEG>
0

>  <Q_VSA_POL>
0

>  <Q_VSA_POS>
730.74756

>  <Q_VSA_PPOS>
0

>  <radius>
13

>  <reactive>
1

>  <rings>
6

>  <RPC+>
0

>  <RPC->
0

>  <rsynth>
1

>  <SlogP>
4.4072399

>  <SlogP_VSA0>
208.28784

>  <SlogP_VSA1>
192.68675

>  <SlogP_VSA2>
34.332596

>  <SlogP_VSA3>
0

>  <SlogP_VSA4>
6.37115

>  <SlogP_VSA5>
72.854965

>  <SlogP_VSA6>
0

>  <SlogP_VSA7>
228.38123

>  <SlogP_VSA8>
0

>  <SlogP_VSA9>
93.679375

>  <SMR>
20.73728

>  <SMR_VSA0>
192.68675

>  <SMR_VSA1>
209.14549

>  <SMR_VSA2>
6.2029357

>  <SMR_VSA3>
16.858006

>  <SMR_VSA4>
33.203491

>  <SMR_VSA5>
277.51257

>  <SMR_VSA6>
0

>  <SMR_VSA7>
100.98463

>  <TPSA>
359.42001

>  <VAdjEq>
0.23050116

>  <VAdjMa>
6.9772801

>  <VDistEq>
4.5500283

>  <VDistMa>
11.376061

>  <vdw_area>
730.74756

>  <vdw_vol>
948.89044

>  <vsa_acc>
37.684158

>  <vsa_acid>
0

>  <vsa_base>
0

>  <vsa_don>
35.484978

>  <vsa_hyd>
340.03992

>  <vsa_other>
46.051132

>  <vsa_pol>
292.40213

>  <Weight>
872.89001

>  <weinerPath>
17821

>  <weinerPol>
112

>  <zagreb>
326

$$$$