O(CC(COC(=O)N)c1ccccc1)C(=O)N
  MOE2013           2D

 17 17  0  0  0  0  0  0  0  0999 V2000
    0.0000    0.0000    0.0000 O   0  0  0  0  0  0  0  0  0  0  0  0
   -0.7450    1.3020    0.0000 C   0  0  0  0  0  0  0  0  0  0  0  0
   -2.2450    1.3080    0.0000 C   0  0  0  0  0  0  0  0  0  0  0  0
   -3.0000    0.0110    0.0000 C   0  0  0  0  0  0  0  0  0  0  0  0
   -4.5000    0.0170    0.0000 O   0  0  0  0  0  0  0  0  0  0  0  0
   -5.2550   -1.2790    0.0000 C   0  0  0  0  0  0  0  0  0  0  0  0
   -4.5100   -2.5810    0.0000 O   0  0  0  0  0  0  0  0  0  0  0  0
   -6.7550   -1.2730    0.0000 N   0  0  0  0  0  0  0  0  0  0  0  0
   -2.9900    2.6100    0.0000 C   0  0  0  0  0  0  0  0  0  0  0  0
   -2.2350    3.9060    0.0000 C   0  0  0  0  0  0  0  0  0  0  0  0
   -2.9800    5.2080    0.0000 C   0  0  0  0  0  0  0  0  0  0  0  0
   -4.4800    5.2130    0.0000 C   0  0  0  0  0  0  0  0  0  0  0  0
   -5.2350    3.9170    0.0000 C   0  0  0  0  0  0  0  0  0  0  0  0
   -4.4900    2.6150    0.0000 C   0  0  0  0  0  0  0  0  0  0  0  0
    1.5000   -0.0060    0.0000 C   0  0  0  0  0  0  0  0  0  0  0  0
    2.2550    1.2900    0.0000 O   0  0  0  0  0  0  0  0  0  0  0  0
    2.2450   -1.3080    0.0000 N   0  0  0  0  0  0  0  0  0  0  0  0
  1  2  1  0  0  0  0
  1 15  1  0  0  0  0
  2  3  1  0  0  0  0
  3  4  1  0  0  0  0
  3  9  1  0  0  0  0
  4  5  1  0  0  0  0
  5  6  1  0  0  0  0
  6  7  2  0  0  0  0
  6  8  1  0  0  0  0
  9 10  1  0  0  0  0
  9 14  2  0  0  0  0
 10 11  2  0  0  0  0
 11 12  1  0  0  0  0
 12 13  2  0  0  0  0
 13 14  1  0  0  0  0
 15 16  2  0  0  0  0
 15 17  1  0  0  0  0
M  END
>  <Index>
420

>  <ID>
HT0851

>  <class>
0

>  <apol>
34.103104

>  <ast_fraglike>
1

>  <ast_fraglike_ext>
0

>  <ast_violation>
0

>  <ast_violation_ext>
2

>  <a_acc>
2

>  <a_acid>
0

>  <a_aro>
6

>  <a_base>
0

>  <a_count>
31

>  <a_don>
2

>  <a_donacc>
4

>  <a_heavy>
17

>  <a_hyd>
9

>  <a_IC>
52.22337

>  <a_ICM>
1.6846248

>  <a_nB>
0

>  <a_nBr>
0

>  <a_nC>
11

>  <a_nCl>
0

>  <a_nF>
0

>  <a_nH>
14

>  <a_nI>
0

>  <a_nN>
2

>  <a_nO>
4

>  <a_nP>
0

>  <a_nS>
0

>  <balabanJ>
2.3925843

>  <BCUT_PEOE_0>
-2.5378742

>  <BCUT_PEOE_1>
-0.64933169

>  <BCUT_PEOE_2>
0.69735616

>  <BCUT_PEOE_3>
2.5649433

>  <BCUT_SLOGP_0>
-2.6157649

>  <BCUT_SLOGP_1>
-0.53807992

>  <BCUT_SLOGP_2>
0.80591482

>  <BCUT_SLOGP_3>
2.5520563

>  <BCUT_SMR_0>
-2.3050883

>  <BCUT_SMR_1>
-0.49986199

>  <BCUT_SMR_2>
0.85431087

>  <BCUT_SMR_3>
2.7959194

>  <bpol>
19.732899

>  <b_1rotN>
5

>  <b_1rotR>
0.29411766

>  <b_ar>
6

>  <b_count>
31

>  <b_double>
2

>  <b_heavy>
17

>  <b_max1len>
4

>  <b_rotN>
7

>  <b_rotR>
0.41176471

>  <b_single>
23

>  <b_triple>
0

>  <chi0>
12.673362

>  <chi0v>
9.1660089

>  <chi0v_C>
6.378315

>  <chi0_C>
7.2591486

>  <chi1>
8.0922241

>  <chi1v>
4.9870524

>  <chi1v_C>
3.0158553

>  <chi1_C>
3.9663265

>  <chiral>
0

>  <chiral_u>
0

>  <density>
0.78359365

>  <diameter>
8

>  <FCharge>
0

>  <GCUT_PEOE_0>
-0.79350585

>  <GCUT_PEOE_1>
-0.38992777

>  <GCUT_PEOE_2>
0.079304665

>  <GCUT_PEOE_3>
2.3941097

>  <GCUT_SLOGP_0>
-1.3710597

>  <GCUT_SLOGP_1>
-0.26386139

>  <GCUT_SLOGP_2>
0.16445385

>  <GCUT_SLOGP_3>
2.44134

>  <GCUT_SMR_0>
-0.51052493

>  <GCUT_SMR_1>
-0.21605732

>  <GCUT_SMR_2>
0.19305076

>  <GCUT_SMR_3>
2.6444216

>  <Kier1>
15.058824

>  <Kier2>
8.1632652

>  <Kier3>
6.4793386

>  <KierA1>
10.781568

>  <KierA2>
5.7106528

>  <KierA3>
4.4491758

>  <KierFlex>
3.6217525

>  <lip_acc>
6

>  <lip_don>
4

>  <lip_druglike>
1

>  <lip_violation>
0

>  <logP(o/w)>
0.389

>  <logS>
-2.0052299

>  <mr>
6.1990976

>  <mutagenic>
0

>  <nmol>
1

>  <opr_brigid>
6

>  <opr_leadlike>
1

>  <opr_nring>
1

>  <opr_nrot>
5

>  <opr_violation>
0

>  <PC+>
0

>  <PC->
0

>  <PEOE_PC+>
2.1053524

>  <PEOE_PC->
-2.1053524

>  <PEOE_RPC+>
0.17009667

>  <PEOE_RPC->
0.16424641

>  <PEOE_VSA+0>
4.2653861

>  <PEOE_VSA+1>
68.291061

>  <PEOE_VSA+2>
0

>  <PEOE_VSA+3>
34.476051

>  <PEOE_VSA+4>
0

>  <PEOE_VSA+5>
0

>  <PEOE_VSA+6>
38.399021

>  <PEOE_VSA-0>
2.2085397

>  <PEOE_VSA-1>
61.274521

>  <PEOE_VSA-2>
0

>  <PEOE_VSA-3>
0

>  <PEOE_VSA-4>
27.133842

>  <PEOE_VSA-5>
5.0075121

>  <PEOE_VSA-6>
13.302238

>  <PEOE_VSA_FHYD>
0.67037576

>  <PEOE_VSA_FNEG>
0.42824122

>  <PEOE_VSA_FPNEG>
0.17865986

>  <PEOE_VSA_FPOL>
0.32962424

>  <PEOE_VSA_FPOS>
0.57175881

>  <PEOE_VSA_FPPOS>
0.15096436

>  <PEOE_VSA_HYD>
170.51556

>  <PEOE_VSA_NEG>
108.92665

>  <PEOE_VSA_PNEG>
45.443592

>  <PEOE_VSA_POL>
83.842613

>  <PEOE_VSA_POS>
145.43152

>  <PEOE_VSA_PPOS>
38.399021

>  <petitjean>
0.5

>  <petitjeanSC>
1

>  <Q_PC+>
0

>  <Q_PC->
0

>  <Q_RPC+>
0

>  <Q_RPC->
0

>  <Q_VSA_FHYD>
1

>  <Q_VSA_FNEG>
0

>  <Q_VSA_FPNEG>
0

>  <Q_VSA_FPOL>
0

>  <Q_VSA_FPOS>
1

>  <Q_VSA_FPPOS>
0

>  <Q_VSA_HYD>
254.35817

>  <Q_VSA_NEG>
0

>  <Q_VSA_PNEG>
0

>  <Q_VSA_POL>
0

>  <Q_VSA_POS>
254.35817

>  <Q_VSA_PPOS>
0

>  <radius>
4

>  <reactive>
0

>  <rings>
1

>  <RPC+>
0

>  <RPC->
0

>  <rsynth>
1

>  <SlogP>
0.96079999

>  <SlogP_VSA0>
65.794373

>  <SlogP_VSA1>
14.633273

>  <SlogP_VSA2>
21.999775

>  <SlogP_VSA3>
41.852516

>  <SlogP_VSA4>
3.185575

>  <SlogP_VSA5>
0

>  <SlogP_VSA6>
4.4107962

>  <SlogP_VSA7>
88.215919

>  <SlogP_VSA8>
0

>  <SlogP_VSA9>
47.724434

>  <SMR>
6.0253801

>  <SMR_VSA0>
69.724205

>  <SMR_VSA1>
0

>  <SMR_VSA2>
0

>  <SMR_VSA3>
7.5963712

>  <SMR_VSA4>
65.794373

>  <SMR_VSA5>
88.215919

>  <SMR_VSA6>
56.48579

>  <SMR_VSA7>
0

>  <TPSA>
104.64

>  <VAdjEq>
0.52255934

>  <VAdjMa>
5.0874629

>  <VDistEq>
2.9554999

>  <VDistMa>
7.8871717

>  <vdw_area>
254.35817

>  <vdw_vol>
304.03897

>  <vsa_acc>
27.133842

>  <vsa_acid>
0

>  <vsa_base>
0

>  <vsa_don>
35.484978

>  <vsa_hyd>
127.5765

>  <vsa_other>
43.406532

>  <vsa_pol>
62.61882

>  <Weight>
238.243

>  <weinerPath>
564

>  <weinerPol>
19

>  <zagreb>
76

$$$$