Clc1c(CC)c(C(O[C@H]2[C@H](O)[C@H](OC)[C@@H](O[C@@H]2C)OCC2=C/C=C/C[C@H](O)/C(=C/[C@H](CC)[C@@H](O[C@@H]3OC(C)(C)[C@@H](OC(=O)C(C)C)[C@H](O)[C@@H]3O)/C(=C/C(=CC[C@H](OC/2=O)[C@H](O)C)/C)/C)/C)=O)c(O)c(Cl)c1O
  MOE2013           2D

 72 75  0  0  1  0  0  0  0  0999 V2000
    0.0000    0.0000    0.0000 Cl  0  0  0  0  0  0  0  0  0  0  0  0
    0.0070    1.5000    0.0000 C   0  0  0  0  0  0  0  0  0  0  0  0
   -1.2890    2.2560    0.0000 C   0  0  0  0  0  0  0  0  0  0  0  0
   -2.5910    1.5120    0.0000 C   0  0  0  0  0  0  0  0  0  0  0  0
   -2.5980    0.0120    0.0000 C   0  0  0  0  0  0  0  0  0  0  0  0
   -1.2820    3.7560    0.0000 C   0  0  0  0  0  0  0  0  0  0  0  0
   -2.5770    4.5120    0.0000 C   0  0  0  0  0  0  0  0  0  0  0  0
   -2.5700    6.0120    0.0000 O   0  0  0  0  0  0  0  0  0  0  0  0
   -3.8660    6.7680    0.0000 C   0  0  1  0  0  0  0  0  0  0  0  0
   -3.8590    8.2680    0.0000 C   0  0  2  0  0  0  0  0  0  0  0  0
   -2.5560    9.0120    0.0000 O   0  0  0  0  0  0  0  0  0  0  0  0
   -5.1540    9.0240    0.0000 C   0  0  2  0  0  0  0  0  0  0  0  0
   -5.1470   10.5240    0.0000 O   0  0  0  0  0  0  0  0  0  0  0  0
   -3.8450   11.2680    0.0000 C   0  0  0  0  0  0  0  0  0  0  0  0
   -6.4570    8.2800    0.0000 C   0  0  1  0  0  0  0  0  0  0  0  0
   -6.4640    6.7800    0.0000 O   0  0  0  0  0  0  0  0  0  0  0  0
   -5.1680    6.0240    0.0000 C   0  0  2  0  0  0  0  0  0  0  0  0
   -5.1750    4.5240    0.0000 C   0  0  0  0  0  0  0  0  0  0  0  0
   -7.7520    9.0360    0.0000 O   0  0  0  0  0  0  0  0  0  0  0  0
   -9.0550    8.2920    0.0000 C   0  0  0  0  0  0  0  0  0  0  0  0
  -10.3500    9.0480    0.0000 C   0  0  0  0  0  0  0  0  0  0  0  0
  -10.7790   10.4660    0.0000 C   0  0  0  0  0  0  0  0  0  0  0  0
  -10.1520   12.2430    0.0000 C   0  0  0  0  0  0  0  0  0  0  0  0
  -11.6500   12.1790    0.0000 C   0  0  0  0  0  0  0  0  0  0  0  0
  -12.8990   13.2440    0.0000 C   0  0  0  0  0  0  0  0  0  0  0  0
  -14.0100   14.2790    0.0000 C   0  0  2  0  0  0  0  0  0  0  0  0
  -13.7220   15.7520    0.0000 O   0  0  0  0  0  0  0  0  0  0  0  0
  -15.4430   13.7340    0.0000 C   0  0  0  0  0  0  0  0  0  0  0  0
  -15.6000   12.2370    0.0000 C   0  0  0  0  0  0  0  0  0  0  0  0
  -16.9590   11.6170    0.0000 C   0  0  2  0  0  0  0  0  0  0  0  0
  -18.1840   12.4820    0.0000 C   0  0  0  0  0  0  0  0  0  0  0  0
  -18.0480   13.9750    0.0000 C   0  0  0  0  0  0  0  0  0  0  0  0
  -17.0890   10.1150    0.0000 C   0  0  1  0  0  0  0  0  0  0  0  0
  -16.2280    8.8870    0.0000 O   0  0  0  0  0  0  0  0  0  0  0  0
  -16.8610    7.5270    0.0000 C   0  0  2  0  0  0  0  0  0  0  0  0
  -16.2260    6.1680    0.0000 O   0  0  0  0  0  0  0  0  0  0  0  0
  -17.0860    4.9390    0.0000 C   0  0  0  0  0  0  0  0  0  0  0  0
  -17.2160    3.4450    0.0000 C   0  0  0  0  0  0  0  0  0  0  0  0
  -15.8570    4.0790    0.0000 C   0  0  0  0  0  0  0  0  0  0  0  0
  -18.5800    5.0690    0.0000 C   0  0  1  0  0  0  0  0  0  0  0  0
  -19.4400    3.8400    0.0000 O   0  0  0  0  0  0  0  0  0  0  0  0
  -20.9340    3.9690    0.0000 C   0  0  0  0  0  0  0  0  0  0  0  0
  -21.5690    5.3280    0.0000 O   0  0  0  0  0  0  0  0  0  0  0  0
  -21.7940    2.7400    0.0000 C   0  0  0  0  0  0  0  0  0  0  0  0
  -23.2880    2.8700    0.0000 C   0  0  0  0  0  0  0  0  0  0  0  0
  -21.1590    1.3810    0.0000 C   0  0  0  0  0  0  0  0  0  0  0  0
  -19.2150    6.4280    0.0000 C   0  0  2  0  0  0  0  0  0  0  0  0
  -20.6640    6.8150    0.0000 O   0  0  0  0  0  0  0  0  0  0  0  0
  -18.3560    7.6570    0.0000 C   0  0  2  0  0  0  0  0  0  0  0  0
  -19.4170    8.7170    0.0000 O   0  0  0  0  0  0  0  0  0  0  0  0
  -18.4440    9.4830    0.0000 C   0  0  0  0  0  0  0  0  0  0  0  0
  -18.5990    8.0020    0.0000 C   0  0  0  0  0  0  0  0  0  0  0  0
  -17.4650    7.0720    0.0000 C   0  0  0  0  0  0  0  0  0  0  0  0
  -16.0310    7.5440    0.0000 C   0  0  0  0  0  0  0  0  0  0  0  0
  -14.9290    6.5530    0.0000 C   0  0  0  0  0  0  0  0  0  0  0  0
  -13.5430    6.7340    0.0000 C   0  0  2  0  0  0  0  0  0  0  0  0
  -12.7300    7.9730    0.0000 O   0  0  0  0  0  0  0  0  0  0  0  0
  -11.2310    7.8950    0.0000 C   0  0  0  0  0  0  0  0  0  0  0  0
  -10.3740    6.6640    0.0000 O   0  0  0  0  0  0  0  0  0  0  0  0
  -12.9790    5.3440    0.0000 C   0  0  2  0  0  0  0  0  0  0  0  0
  -13.9010    4.1610    0.0000 O   0  0  0  0  0  0  0  0  0  0  0  0
  -11.4940    5.1370    0.0000 C   0  0  0  0  0  0  0  0  0  0  0  0
  -17.9920    5.6670    0.0000 C   0  0  0  0  0  0  0  0  0  0  0  0
  -19.7980   10.1270    0.0000 C   0  0  0  0  0  0  0  0  0  0  0  0
  -16.6320   14.6480    0.0000 C   0  0  0  0  0  0  0  0  0  0  0  0
   -3.8800    3.7680    0.0000 O   0  0  0  0  0  0  0  0  0  0  0  0
    0.0210    4.5000    0.0000 C   0  0  0  0  0  0  0  0  0  0  0  0
    0.0280    6.0000    0.0000 O   0  0  0  0  0  0  0  0  0  0  0  0
    1.3160    3.7440    0.0000 C   0  0  0  0  0  0  0  0  0  0  0  0
    2.6190    4.4880    0.0000 Cl  0  0  0  0  0  0  0  0  0  0  0  0
    1.3090    2.2440    0.0000 C   0  0  0  0  0  0  0  0  0  0  0  0
    2.6050    1.4880    0.0000 O   0  0  0  0  0  0  0  0  0  0  0  0
  1  2  1  0  0  0  0
  2  3  1  0  0  0  0
  2 71  2  0  0  0  0
  3  4  1  0  0  0  0
  3  6  2  0  0  0  0
  4  5  1  0  0  0  0
  6  7  1  0  0  0  0
  6 67  1  0  0  0  0
  7  8  1  0  0  0  0
  7 66  2  0  0  0  0
  9  8  1  6  0  0  0
  9 10  1  0  0  0  0
  9 17  1  0  0  0  0
 10 11  1  1  0  0  0
 10 12  1  0  0  0  0
 12 13  1  1  0  0  0
 12 15  1  0  0  0  0
 13 14  1  0  0  0  0
 15 16  1  0  0  0  0
 15 19  1  1  0  0  0
 16 17  1  0  0  0  0
 17 18  1  1  0  0  0
 19 20  1  0  0  0  0
 20 21  1  0  0  0  0
 21 22  2  0  0  0  0
 21 58  1  0  0  0  0
 22 23  1  0  0  0  0
 23 24  2  0  0  0  0
 24 25  1  0  0  0  0
 25 26  1  0  0  0  0
 26 27  1  1  0  0  0
 26 28  1  0  0  0  0
 28 29  2  0  0  0  0
 28 65  1  0  0  0  0
 29 30  1  0  0  0  0
 30 31  1  1  0  0  0
 30 33  1  0  0  0  0
 31 32  1  0  0  0  0
 33 34  1  1  0  0  0
 33 51  1  0  0  0  0
 35 34  1  6  0  0  0
 35 36  1  0  0  0  0
 35 49  1  0  0  0  0
 36 37  1  0  0  0  0
 37 38  1  0  0  0  0
 37 39  1  0  0  0  0
 37 40  1  0  0  0  0
 40 41  1  1  0  0  0
 40 47  1  0  0  0  0
 41 42  1  0  0  0  0
 42 43  2  0  0  0  0
 42 44  1  0  0  0  0
 44 45  1  0  0  0  0
 44 46  1  0  0  0  0
 47 48  1  6  0  0  0
 47 49  1  0  0  0  0
 49 50  1  6  0  0  0
 51 52  2  0  0  0  0
 51 64  1  0  0  0  0
 52 53  1  0  0  0  0
 53 54  2  3  0  0  0
 53 63  1  0  0  0  0
 54 55  1  0  0  0  0
 56 55  1  6  0  0  0
 56 57  1  0  0  0  0
 56 60  1  0  0  0  0
 57 58  1  0  0  0  0
 58 59  2  0  0  0  0
 60 61  1  1  0  0  0
 60 62  1  0  0  0  0
 67 68  1  0  0  0  0
 67 69  2  0  0  0  0
 69 70  1  0  0  0  0
 69 71  1  0  0  0  0
 71 72  1  0  0  0  0
M  END
>  <Index>
431

>  <ID>
HT0874

>  <class>
0

>  <apol>
159.65868

>  <ast_fraglike>
0

>  <ast_fraglike_ext>
0

>  <ast_violation>
4

>  <ast_violation_ext>
6

>  <a_acc>
15

>  <a_acid>
0

>  <a_aro>
6

>  <a_base>
0

>  <a_count>
146

>  <a_don>
7

>  <a_donacc>
22

>  <a_heavy>
72

>  <a_hyd>
49

>  <a_IC>
216.73332

>  <a_ICM>
1.4844748

>  <a_nB>
0

>  <a_nBr>
0

>  <a_nC>
52

>  <a_nCl>
2

>  <a_nF>
0

>  <a_nH>
74

>  <a_nI>
0

>  <a_nN>
0

>  <a_nO>
18

>  <a_nP>
0

>  <a_nS>
0

>  <balabanJ>
1.4802314

>  <BCUT_PEOE_0>
-2.7617397

>  <BCUT_PEOE_1>
-0.46772626

>  <BCUT_PEOE_2>
0.55124295

>  <BCUT_PEOE_3>
2.8175702

>  <BCUT_SLOGP_0>
-2.9111214

>  <BCUT_SLOGP_1>
-0.43522272

>  <BCUT_SLOGP_2>
0.46859175

>  <BCUT_SLOGP_3>
2.7079008

>  <BCUT_SMR_0>
-2.5525124

>  <BCUT_SMR_1>
-0.35002765

>  <BCUT_SMR_2>
0.63855743

>  <BCUT_SMR_3>
3.0112867

>  <bpol>
99.939316

>  <b_1rotN>
13

>  <b_1rotR>
0.17333333

>  <b_ar>
6

>  <b_count>
149

>  <b_double>
8

>  <b_heavy>
75

>  <b_max1len>
4

>  <b_rotN>
15

>  <b_rotR>
0.2

>  <b_single>
135

>  <b_triple>
0

>  <chi0>
54.100838

>  <chi0v>
44.548904

>  <chi0v_C>
34.659889

>  <chi0_C>
36.443981

>  <chi1>
33.69783

>  <chi1v>
24.924955

>  <chi1v_C>
17.57004

>  <chi1_C>
19.901739

>  <chiral>
14

>  <chiral_u>
0

>  <density>
0.77694517

>  <diameter>
31

>  <FCharge>
0

>  <GCUT_PEOE_0>
-0.79656368

>  <GCUT_PEOE_1>
-0.39799541

>  <GCUT_PEOE_2>
0.05472897

>  <GCUT_PEOE_3>
3.2906661

>  <GCUT_SLOGP_0>
-0.94824994

>  <GCUT_SLOGP_1>
-0.29359028

>  <GCUT_SLOGP_2>
-0.0084586814

>  <GCUT_SLOGP_3>
3.3058155

>  <GCUT_SMR_0>
-0.52921689

>  <GCUT_SMR_1>
-0.20563829

>  <GCUT_SMR_2>
0.14782

>  <GCUT_SMR_3>
3.5128751

>  <Kier1>
64.524803

>  <Kier2>
29.282047

>  <Kier3>
16.767506

>  <KierA1>
59.073235

>  <KierA2>
26.773933

>  <KierA3>
15.317976

>  <KierFlex>
21.966986

>  <lip_acc>
18

>  <lip_don>
7

>  <lip_druglike>
0

>  <lip_violation>
4

>  <logP(o/w)>
6.1247401

>  <logS>
-8.8972797

>  <mr>
26.701441

>  <mutagenic>
0

>  <nmol>
1

>  <opr_brigid>
36

>  <opr_leadlike>
0

>  <opr_nring>
3

>  <opr_nrot>
29

>  <opr_violation>
5

>  <PC+>
0

>  <PC->
0

>  <PEOE_PC+>
7.3901882

>  <PEOE_PC->
-7.3901882

>  <PEOE_RPC+>
0.040199116

>  <PEOE_RPC->
0.05270192

>  <PEOE_VSA+0>
210.6178

>  <PEOE_VSA+1>
148.57349

>  <PEOE_VSA+2>
50.86636

>  <PEOE_VSA+3>
22.309816

>  <PEOE_VSA+4>
72.269211

>  <PEOE_VSA+5>
44.125496

>  <PEOE_VSA+6>
0

>  <PEOE_VSA-0>
172.66461

>  <PEOE_VSA-1>
209.89256

>  <PEOE_VSA-2>
0

>  <PEOE_VSA-3>
0

>  <PEOE_VSA-4>
0

>  <PEOE_VSA-5>
40.700764

>  <PEOE_VSA-6>
74.402832

>  <PEOE_VSA_FHYD>
0.77877176

>  <PEOE_VSA_FNEG>
0.47558281

>  <PEOE_VSA_FPNEG>
0.1099972

>  <PEOE_VSA_FPOL>
0.22122824

>  <PEOE_VSA_FPOS>
0.52441716

>  <PEOE_VSA_FPPOS>
0.11123104

>  <PEOE_VSA_HYD>
814.92462

>  <PEOE_VSA_NEG>
497.66077

>  <PEOE_VSA_PNEG>
115.10359

>  <PEOE_VSA_POL>
231.49831

>  <PEOE_VSA_POS>
548.76215

>  <PEOE_VSA_PPOS>
116.39471

>  <petitjean>
0.48387095

>  <petitjeanSC>
0.9375

>  <Q_PC+>
0

>  <Q_PC->
0

>  <Q_RPC+>
0

>  <Q_RPC->
0

>  <Q_VSA_FHYD>
1

>  <Q_VSA_FNEG>
0

>  <Q_VSA_FPNEG>
0

>  <Q_VSA_FPOL>
0

>  <Q_VSA_FPOS>
1

>  <Q_VSA_FPPOS>
0

>  <Q_VSA_HYD>
1046.423

>  <Q_VSA_NEG>
0

>  <Q_VSA_PNEG>
0

>  <Q_VSA_POL>
0

>  <Q_VSA_POS>
1046.423

>  <Q_VSA_PPOS>
0

>  <radius>
16

>  <reactive>
1

>  <rings>
4

>  <RPC+>
0

>  <RPC->
0

>  <rsynth>
0.41666666

>  <SlogP>
6.2343702

>  <SlogP_VSA0>
177.69658

>  <SlogP_VSA1>
23.236393

>  <SlogP_VSA2>
223.93169

>  <SlogP_VSA3>
20.926258

>  <SlogP_VSA4>
39.054958

>  <SlogP_VSA5>
66.994576

>  <SlogP_VSA6>
7.0012131

>  <SlogP_VSA7>
105.85911

>  <SlogP_VSA8>
56.605217

>  <SlogP_VSA9>
455.3703

>  <SMR>
26.50971

>  <SMR_VSA0>
159.58575

>  <SMR_VSA1>
177.69658

>  <SMR_VSA2>
8.8215923

>  <SMR_VSA3>
124.80966

>  <SMR_VSA4>
0

>  <SMR_VSA5>
181.33273

>  <SMR_VSA6>
44.162651

>  <SMR_VSA7>
480.26733

>  <TPSA>
266.66

>  <VAdjEq>
0.18902344

>  <VAdjMa>
7.2288189

>  <VDistEq>
4.6759725

>  <VDistMa>
12.041765

>  <vdw_area>
1046.423

>  <vdw_vol>
1361.8103

>  <vsa_acc>
53.219543

>  <vsa_acid>
0

>  <vsa_base>
0

>  <vsa_don>
0

>  <vsa_hyd>
735.12726

>  <vsa_other>
81.053764

>  <vsa_pol>
148.18799

>  <Weight>
1058.052

>  <weinerPath>
28987

>  <weinerPol>
133

>  <zagreb>
368

$$$$