O=C1CC[C@H]2[C@H]3[C@H](CC[C@]12C)[C@@]1(C(=CC(=O)C=C1)C(C3)=C)C
  MOE2013           2D

 22 25  0  0  1  0  0  0  0  0999 V2000
    0.0000    0.0000    0.0000 O   0  0  0  0  0  0  0  0  0  0  0  0
    0.9890    1.1280    0.0000 C   0  0  0  0  0  0  0  0  0  0  0  0
    0.6580    2.5910    0.0000 C   0  0  0  0  0  0  0  0  0  0  0  0
    1.9480    3.3570    0.0000 C   0  0  0  0  0  0  0  0  0  0  0  0
    3.0750    2.3680    0.0000 C   0  0  1  0  0  0  0  0  0  0  0  0
    4.5650    2.5440    0.0000 C   0  0  1  0  0  0  0  0  0  0  0  0
    5.4620    1.3420    0.0000 C   0  0  2  0  0  0  0  0  0  0  0  0
    4.8700   -0.0360    0.0000 C   0  0  0  0  0  0  0  0  0  0  0  0
    3.3800   -0.2120    0.0000 C   0  0  0  0  0  0  0  0  0  0  0  0
    2.4830    0.9900    0.0000 C   0  0  2  0  0  0  0  0  0  0  0  0
    1.7730   -0.3310    0.0000 C   0  0  0  0  0  0  0  0  0  0  0  0
    6.9520    1.5180    0.0000 C   0  0  2  0  0  0  0  0  0  0  0  0
    7.5440    2.8970    0.0000 C   0  0  0  0  0  0  0  0  0  0  0  0
    9.0340    3.0730    0.0000 C   0  0  0  0  0  0  0  0  0  0  0  0
    9.9310    1.8710    0.0000 C   0  0  0  0  0  0  0  0  0  0  0  0
   11.4210    2.0470    0.0000 O   0  0  0  0  0  0  0  0  0  0  0  0
    9.3390    0.4920    0.0000 C   0  0  0  0  0  0  0  0  0  0  0  0
    7.8490    0.3160    0.0000 C   0  0  0  0  0  0  0  0  0  0  0  0
    6.6470    4.0990    0.0000 C   0  0  0  0  0  0  0  0  0  0  0  0
    5.1570    3.9220    0.0000 C   0  0  0  0  0  0  0  0  0  0  0  0
    7.2390    5.4770    0.0000 C   0  0  0  0  0  0  0  0  0  0  0  0
    6.3590    0.1400    0.0000 C   0  0  0  0  0  0  0  0  0  0  0  0
  1  2  2  0  0  0  0
  2  3  1  0  0  0  0
  2 10  1  0  0  0  0
  3  4  1  0  0  0  0
  5  4  1  1  0  0  0
  5  6  1  0  0  0  0
  5 10  1  0  0  0  0
  6  7  1  0  0  0  0
  6 20  1  6  0  0  0
  7  8  1  1  0  0  0
  7 12  1  0  0  0  0
  8  9  1  0  0  0  0
  9 10  1  0  0  0  0
 10 11  1  1  0  0  0
 12 13  1  0  0  0  0
 12 18  1  0  0  0  0
 12 22  1  1  0  0  0
 13 14  2  0  0  0  0
 13 19  1  0  0  0  0
 14 15  1  0  0  0  0
 15 16  2  0  0  0  0
 15 17  1  0  0  0  0
 17 18  2  0  0  0  0
 19 20  1  0  0  0  0
 19 21  2  0  0  0  0
M  END
>  <Index>
416

>  <ID>
HT0840

>  <class>
0

>  <apol>
52.807034

>  <ast_fraglike>
0

>  <ast_fraglike_ext>
0

>  <ast_violation>
1

>  <ast_violation_ext>
1

>  <a_acc>
2

>  <a_acid>
0

>  <a_aro>
0

>  <a_base>
0

>  <a_count>
46

>  <a_don>
0

>  <a_donacc>
2

>  <a_heavy>
22

>  <a_hyd>
18

>  <a_IC>
55.60619

>  <a_ICM>
1.2088301

>  <a_nB>
0

>  <a_nBr>
0

>  <a_nC>
20

>  <a_nCl>
0

>  <a_nF>
0

>  <a_nH>
24

>  <a_nI>
0

>  <a_nN>
0

>  <a_nO>
2

>  <a_nP>
0

>  <a_nS>
0

>  <balabanJ>
1.6677493

>  <BCUT_PEOE_0>
-2.9009087

>  <BCUT_PEOE_1>
-0.5095681

>  <BCUT_PEOE_2>
0.47769019

>  <BCUT_PEOE_3>
2.9238601

>  <BCUT_SLOGP_0>
-2.8259344

>  <BCUT_SLOGP_1>
-0.43265703

>  <BCUT_SLOGP_2>
0.53733492

>  <BCUT_SLOGP_3>
2.9931238

>  <BCUT_SMR_0>
-2.6472309

>  <BCUT_SMR_1>
-0.33399874

>  <BCUT_SMR_2>
0.61045682

>  <BCUT_SMR_3>
3.1787531

>  <bpol>
28.152967

>  <b_1rotN>
0

>  <b_1rotR>
0

>  <b_ar>
0

>  <b_count>
49

>  <b_double>
5

>  <b_heavy>
25

>  <b_max1len>
2

>  <b_rotN>
0

>  <b_rotR>
0

>  <b_single>
44

>  <b_triple>
0

>  <chi0>
15.698306

>  <chi0v>
13.523239

>  <chi0v_C>
12.706742

>  <chi0_C>
13.698306

>  <chi1>
10.359844

>  <chi1v>
8.5292578

>  <chi1v_C>
8.1210089

>  <chi1_C>
9.2051439

>  <chiral>
5

>  <chiral_u>
0

>  <density>
0.68685317

>  <diameter>
10

>  <FCharge>
0

>  <GCUT_PEOE_0>
-0.78661788

>  <GCUT_PEOE_1>
-0.38930666

>  <GCUT_PEOE_2>
0.0075099119

>  <GCUT_PEOE_3>
3.1633697

>  <GCUT_SLOGP_0>
-0.83789444

>  <GCUT_SLOGP_1>
-0.28707808

>  <GCUT_SLOGP_2>
0.077225104

>  <GCUT_SLOGP_3>
3.2479892

>  <GCUT_SMR_0>
-0.5364213

>  <GCUT_SMR_1>
-0.2063548

>  <GCUT_SMR_2>
0.15553752

>  <GCUT_SMR_3>
3.4043806

>  <Kier1>
15.5232

>  <Kier2>
4.9970255

>  <Kier3>
2.0424616

>  <KierA1>
12.700086

>  <KierA2>
4.0466032

>  <KierA3>
1.6417446

>  <KierFlex>
2.3360095

>  <lip_acc>
2

>  <lip_don>
0

>  <lip_druglike>
1

>  <lip_violation>
0

>  <logP(o/w)>
3.3929999

>  <logS>
-5.0844402

>  <mr>
8.6219645

>  <mutagenic>
0

>  <nmol>
1

>  <opr_brigid>
21

>  <opr_leadlike>
1

>  <opr_nring>
4

>  <opr_nrot>
0

>  <opr_violation>
0

>  <PC+>
0

>  <PC->
0

>  <PEOE_PC+>
1.1986547

>  <PEOE_PC->
-1.1986547

>  <PEOE_RPC+>
0.14933747

>  <PEOE_RPC->
0.24762776

>  <PEOE_VSA+0>
89.743645

>  <PEOE_VSA+1>
21.326929

>  <PEOE_VSA+2>
8.458519

>  <PEOE_VSA+3>
8.458519

>  <PEOE_VSA+4>
0

>  <PEOE_VSA+5>
0

>  <PEOE_VSA+6>
0

>  <PEOE_VSA-0>
61.523602

>  <PEOE_VSA-1>
74.260063

>  <PEOE_VSA-2>
0

>  <PEOE_VSA-3>
0

>  <PEOE_VSA-4>
0

>  <PEOE_VSA-5>
27.133842

>  <PEOE_VSA-6>
0

>  <PEOE_VSA_FHYD>
0.90672612

>  <PEOE_VSA_FNEG>
0.5600366

>  <PEOE_VSA_FPNEG>
0.093273856

>  <PEOE_VSA_FPOL>
0.093273856

>  <PEOE_VSA_FPOS>
0.43996343

>  <PEOE_VSA_FPPOS>
0

>  <PEOE_VSA_HYD>
263.77127

>  <PEOE_VSA_NEG>
162.91751

>  <PEOE_VSA_PNEG>
27.133842

>  <PEOE_VSA_POL>
27.133842

>  <PEOE_VSA_POS>
127.98762

>  <PEOE_VSA_PPOS>
0

>  <petitjean>
0.5

>  <petitjeanSC>
1

>  <Q_PC+>
0

>  <Q_PC->
0

>  <Q_RPC+>
0

>  <Q_RPC->
0

>  <Q_VSA_FHYD>
1

>  <Q_VSA_FNEG>
0

>  <Q_VSA_FPNEG>
0

>  <Q_VSA_FPOL>
0

>  <Q_VSA_FPOS>
1

>  <Q_VSA_FPPOS>
0

>  <Q_VSA_HYD>
290.90512

>  <Q_VSA_NEG>
0

>  <Q_VSA_PNEG>
0

>  <Q_VSA_POL>
0

>  <Q_VSA_POS>
290.90512

>  <Q_VSA_PPOS>
0

>  <radius>
5

>  <reactive>
1

>  <rings>
4

>  <RPC+>
0

>  <RPC->
0

>  <rsynth>
0

>  <SlogP>
4.0295

>  <SlogP_VSA0>
0

>  <SlogP_VSA1>
11.375222

>  <SlogP_VSA2>
47.724434

>  <SlogP_VSA3>
0

>  <SlogP_VSA4>
13.232388

>  <SlogP_VSA5>
6.37115

>  <SlogP_VSA6>
0

>  <SlogP_VSA7>
52.929554

>  <SlogP_VSA8>
94.342026

>  <SlogP_VSA9>
98.752823

>  <SMR>
8.6146002

>  <SMR_VSA0>
47.724434

>  <SMR_VSA1>
0

>  <SMR_VSA2>
13.232388

>  <SMR_VSA3>
6.37115

>  <SMR_VSA4>
0

>  <SMR_VSA5>
147.27158

>  <SMR_VSA6>
11.375222

>  <SMR_VSA7>
98.752823

>  <TPSA>
34.139999

>  <VAdjEq>
0.47938794

>  <VAdjMa>
5.643856

>  <VDistEq>
2.9376559

>  <VDistMa>
8.6563358

>  <vdw_area>
290.90512

>  <vdw_vol>
431.54785

>  <vsa_acc>
27.133842

>  <vsa_acid>
0

>  <vsa_base>
0

>  <vsa_don>
0

>  <vsa_hyd>
225.73601

>  <vsa_other>
16.917038

>  <vsa_pol>
27.133842

>  <Weight>
296.41

>  <weinerPath>
892

>  <weinerPol>
47

>  <zagreb>
132

$$$$