ClCCC(=C(c1ccc(OCCN(C)C)cc1)/c1ccccc1)c1ccccc1
  MOE2013           2D

 29 31  0  0  0  0  0  0  0  0999 V2000
    0.0000    0.0000    0.0000 Cl  0  0  0  0  0  0  0  0  0  0  0  0
   -0.7480   -1.3000    0.0000 C   0  0  0  0  0  0  0  0  0  0  0  0
    0.0030   -2.5980    0.0000 C   0  0  0  0  0  0  0  0  0  0  0  0
   -0.7450   -3.8980    0.0000 C   0  0  0  0  0  0  0  0  0  0  0  0
    0.0060   -5.1960    0.0000 C   0  0  0  0  0  0  0  0  0  0  0  0
    1.5060   -5.1940    0.0000 C   0  0  0  0  0  0  0  0  0  0  0  0
    2.2550   -3.8940    0.0000 C   0  0  0  0  0  0  0  0  0  0  0  0
    3.7550   -3.8930    0.0000 C   0  0  0  0  0  0  0  0  0  0  0  0
    4.5060   -5.1910    0.0000 C   0  0  0  0  0  0  0  0  0  0  0  0
    6.0060   -5.1890    0.0000 O   0  0  0  0  0  0  0  0  0  0  0  0
    6.7580   -6.4870    0.0000 C   0  0  0  0  0  0  0  0  0  0  0  0
    8.2580   -6.4860    0.0000 C   0  0  0  0  0  0  0  0  0  0  0  0
    9.0090   -7.7840    0.0000 N   0  0  0  0  0  0  0  0  0  0  0  0
   10.5090   -7.7820    0.0000 C   0  0  0  0  0  0  0  0  0  0  0  0
    8.2610   -9.0840    0.0000 C   0  0  0  0  0  0  0  0  0  0  0  0
    3.7580   -6.4910    0.0000 C   0  0  0  0  0  0  0  0  0  0  0  0
    2.2580   -6.4930    0.0000 C   0  0  0  0  0  0  0  0  0  0  0  0
   -0.7420   -6.4960    0.0000 C   0  0  0  0  0  0  0  0  0  0  0  0
    0.0090   -7.7940    0.0000 C   0  0  0  0  0  0  0  0  0  0  0  0
   -0.7390   -9.0940    0.0000 C   0  0  0  0  0  0  0  0  0  0  0  0
   -2.2390   -9.0960    0.0000 C   0  0  0  0  0  0  0  0  0  0  0  0
   -2.9910   -7.7980    0.0000 C   0  0  0  0  0  0  0  0  0  0  0  0
   -2.2420   -6.4980    0.0000 C   0  0  0  0  0  0  0  0  0  0  0  0
   -2.2450   -3.9000    0.0000 C   0  0  0  0  0  0  0  0  0  0  0  0
   -2.9940   -5.2000    0.0000 C   0  0  0  0  0  0  0  0  0  0  0  0
   -4.4940   -5.2010    0.0000 C   0  0  0  0  0  0  0  0  0  0  0  0
   -5.2450   -3.9030    0.0000 C   0  0  0  0  0  0  0  0  0  0  0  0
   -4.4970   -2.6030    0.0000 C   0  0  0  0  0  0  0  0  0  0  0  0
   -2.9970   -2.6020    0.0000 C   0  0  0  0  0  0  0  0  0  0  0  0
  1  2  1  0  0  0  0
  2  3  1  0  0  0  0
  3  4  1  0  0  0  0
  4  5  2  3  0  0  0
  4 24  1  0  0  0  0
  5  6  1  0  0  0  0
  5 18  1  0  0  0  0
  6  7  1  0  0  0  0
  6 17  2  0  0  0  0
  7  8  2  0  0  0  0
  8  9  1  0  0  0  0
  9 10  1  0  0  0  0
  9 16  2  0  0  0  0
 10 11  1  0  0  0  0
 11 12  1  0  0  0  0
 12 13  1  0  0  0  0
 13 14  1  0  0  0  0
 13 15  1  0  0  0  0
 16 17  1  0  0  0  0
 18 19  1  0  0  0  0
 18 23  2  0  0  0  0
 19 20  2  0  0  0  0
 20 21  1  0  0  0  0
 21 22  2  0  0  0  0
 22 23  1  0  0  0  0
 24 25  1  0  0  0  0
 24 29  2  0  0  0  0
 25 26  2  0  0  0  0
 26 27  1  0  0  0  0
 27 28  2  0  0  0  0
 28 29  1  0  0  0  0
M  END
>  <Index>
418

>  <ID>
HT0848

>  <class>
0

>  <apol>
68.512207

>  <ast_fraglike>
0

>  <ast_fraglike_ext>
0

>  <ast_violation>
2

>  <ast_violation_ext>
3

>  <a_acc>
2

>  <a_acid>
0

>  <a_aro>
18

>  <a_base>
0

>  <a_count>
57

>  <a_don>
0

>  <a_donacc>
2

>  <a_heavy>
29

>  <a_hyd>
27

>  <a_IC>
75.657364

>  <a_ICM>
1.3273221

>  <a_nB>
0

>  <a_nBr>
0

>  <a_nC>
26

>  <a_nCl>
1

>  <a_nF>
0

>  <a_nH>
28

>  <a_nI>
0

>  <a_nN>
1

>  <a_nO>
1

>  <a_nP>
0

>  <a_nS>
0

>  <balabanJ>
1.6359218

>  <BCUT_PEOE_0>
-2.5950823

>  <BCUT_PEOE_1>
-0.59352416

>  <BCUT_PEOE_2>
0.64235342

>  <BCUT_PEOE_3>
2.4975023

>  <BCUT_SLOGP_0>
-2.7039783

>  <BCUT_SLOGP_1>
-0.49121362

>  <BCUT_SLOGP_2>
0.7527824

>  <BCUT_SLOGP_3>
2.5475383

>  <BCUT_SMR_0>
-2.3192661

>  <BCUT_SMR_1>
-0.44180006

>  <BCUT_SMR_2>
0.81088835

>  <BCUT_SMR_3>
2.7595756

>  <bpol>
34.925797

>  <b_1rotN>
9

>  <b_1rotR>
0.29032257

>  <b_ar>
18

>  <b_count>
59

>  <b_double>
1

>  <b_heavy>
31

>  <b_max1len>
5

>  <b_rotN>
9

>  <b_rotR>
0.29032257

>  <b_single>
40

>  <b_triple>
0

>  <chi0>
20.47648

>  <chi0v>
17.900686

>  <chi0v_C>
15.911331

>  <chi0_C>
18.192024

>  <chi1>
14.185872

>  <chi1v>
10.501526

>  <chi1v_C>
7.9962878

>  <chi1_C>
11.007568

>  <chiral>
0

>  <chiral_u>
0

>  <density>
0.68475252

>  <diameter>
14

>  <FCharge>
0

>  <GCUT_PEOE_0>
-0.85876018

>  <GCUT_PEOE_1>
-0.38339546

>  <GCUT_PEOE_2>
0.066539183

>  <GCUT_PEOE_3>
2.6936605

>  <GCUT_SLOGP_0>
-0.96180809

>  <GCUT_SLOGP_1>
-0.26386139

>  <GCUT_SLOGP_2>
0.16445385

>  <GCUT_SLOGP_3>
2.8419585

>  <GCUT_SMR_0>
-0.51691067

>  <GCUT_SMR_1>
-0.19679779

>  <GCUT_SMR_2>
0.19305076

>  <GCUT_SMR_3>
2.9986987

>  <Kier1>
23.658689

>  <Kier2>
12.7575

>  <Kier3>
7.2772012

>  <KierA1>
18.682489

>  <KierA2>
9.9838428

>  <KierA3>
5.65731

>  <KierFlex>
6.4318295

>  <lip_acc>
2

>  <lip_don>
0

>  <lip_druglike>
1

>  <lip_violation>
1

>  <logP(o/w)>
6.7389998

>  <logS>
-6.3281598

>  <mr>
12.409698

>  <mutagenic>
1

>  <nmol>
1

>  <opr_brigid>
19

>  <opr_leadlike>
1

>  <opr_nring>
3

>  <opr_nrot>
9

>  <opr_violation>
1

>  <PC+>
0

>  <PC->
0

>  <PEOE_PC+>
1.6568152

>  <PEOE_PC->
-1.6568152

>  <PEOE_RPC+>
0.046031296

>  <PEOE_RPC->
0.20728469

>  <PEOE_VSA+0>
75.389481

>  <PEOE_VSA+1>
91.655991

>  <PEOE_VSA+2>
0

>  <PEOE_VSA+3>
0

>  <PEOE_VSA+4>
0

>  <PEOE_VSA+5>
0

>  <PEOE_VSA+6>
0

>  <PEOE_VSA-0>
90.731201

>  <PEOE_VSA-1>
147.05885

>  <PEOE_VSA-2>
29.581947

>  <PEOE_VSA-3>
0

>  <PEOE_VSA-4>
0

>  <PEOE_VSA-5>
0

>  <PEOE_VSA-6>
2.503756

>  <PEOE_VSA_FHYD>
0.99426955

>  <PEOE_VSA_FNEG>
0.61767602

>  <PEOE_VSA_FPNEG>
0.005730452

>  <PEOE_VSA_FPOL>
0.005730452

>  <PEOE_VSA_FPOS>
0.38232401

>  <PEOE_VSA_FPPOS>
0

>  <PEOE_VSA_HYD>
434.41745

>  <PEOE_VSA_NEG>
269.87573

>  <PEOE_VSA_PNEG>
2.503756

>  <PEOE_VSA_POL>
2.503756

>  <PEOE_VSA_POS>
167.04547

>  <PEOE_VSA_PPOS>
0

>  <petitjean>
0.5

>  <petitjeanSC>
1

>  <Q_PC+>
0

>  <Q_PC->
0

>  <Q_RPC+>
0

>  <Q_RPC->
0

>  <Q_VSA_FHYD>
1

>  <Q_VSA_FNEG>
0

>  <Q_VSA_FPNEG>
0

>  <Q_VSA_FPOL>
0

>  <Q_VSA_FPOS>
1

>  <Q_VSA_FPPOS>
0

>  <Q_VSA_HYD>
436.9212

>  <Q_VSA_NEG>
0

>  <Q_VSA_PNEG>
0

>  <Q_VSA_POL>
0

>  <Q_VSA_POS>
436.9212

>  <Q_VSA_PPOS>
0

>  <radius>
7

>  <reactive>
1

>  <rings>
3

>  <RPC+>
0

>  <RPC->
0

>  <rsynth>
0.1724138

>  <SlogP>
6.03229

>  <SlogP_VSA0>
10.999887

>  <SlogP_VSA1>
3.1243138

>  <SlogP_VSA2>
0

>  <SlogP_VSA3>
61.734848

>  <SlogP_VSA4>
9.5567245

>  <SlogP_VSA5>
65.794373

>  <SlogP_VSA6>
0

>  <SlogP_VSA7>
250.19016

>  <SlogP_VSA8>
18.868406

>  <SlogP_VSA9>
44.392071

>  <SMR>
12.3566

>  <SMR_VSA0>
0

>  <SMR_VSA1>
14.124202

>  <SMR_VSA2>
3.185575

>  <SMR_VSA3>
14.800153

>  <SMR_VSA4>
3.185575

>  <SMR_VSA5>
265.87299

>  <SMR_VSA6>
58.549274

>  <SMR_VSA7>
104.94302

>  <TPSA>
12.47

>  <VAdjEq>
0.3796615

>  <VAdjMa>
5.9541965

>  <VDistEq>
3.5718083

>  <VDistMa>
9.4347687

>  <vdw_area>
436.9212

>  <vdw_vol>
592.86963

>  <vsa_acc>
2.503756

>  <vsa_acid>
0

>  <vsa_base>
0

>  <vsa_don>
0

>  <vsa_hyd>
414.48718

>  <vsa_other>
0

>  <vsa_pol>
2.503756

>  <Weight>
405.96899

>  <weinerPath>
2330

>  <weinerPol>
42

>  <zagreb>
142

$$$$