Fc1ccc(cc1)[C@@H](O)CC[C@@H]1[C@H](N(C1=O)c1ccc(F)cc1)c1ccc(O)cc1
  MOE2013           2D

 30 33  0  0  1  0  0  0  0  0999 V2000
    0.0000    0.0000    0.0000 F   0  0  0  0  0  0  0  0  0  0  0  0
   -1.5000   -0.0040    0.0000 C   0  0  0  0  0  0  0  0  0  0  0  0
   -2.2530    1.2940    0.0000 C   0  0  0  0  0  0  0  0  0  0  0  0
   -3.7530    1.2900    0.0000 C   0  0  0  0  0  0  0  0  0  0  0  0
   -4.5000   -0.0110    0.0000 C   0  0  0  0  0  0  0  0  0  0  0  0
   -3.7470   -1.3080    0.0000 C   0  0  0  0  0  0  0  0  0  0  0  0
   -2.2470   -1.3040    0.0000 C   0  0  0  0  0  0  0  0  0  0  0  0
   -6.0000   -0.0140    0.0000 C   0  0  1  0  0  0  0  0  0  0  0  0
   -6.7530    1.2830    0.0000 O   0  0  0  0  0  0  0  0  0  0  0  0
   -6.7470   -1.3150    0.0000 C   0  0  0  0  0  0  0  0  0  0  0  0
   -8.2470   -1.3190    0.0000 C   0  0  0  0  0  0  0  0  0  0  0  0
   -8.9940   -2.6190    0.0000 C   0  0  2  0  0  0  0  0  0  0  0  0
  -10.4420   -3.0110    0.0000 C   0  0  2  0  0  0  0  0  0  0  0  0
  -10.0500   -4.4590    0.0000 N   0  0  0  0  0  0  0  0  0  0  0  0
   -8.6020   -4.0670    0.0000 C   0  0  0  0  0  0  0  0  0  0  0  0
   -7.3010   -4.8140    0.0000 O   0  0  0  0  0  0  0  0  0  0  0  0
  -10.7970   -5.7600    0.0000 C   0  0  0  0  0  0  0  0  0  0  0  0
  -12.2970   -5.7630    0.0000 C   0  0  0  0  0  0  0  0  0  0  0  0
  -13.0440   -7.0640    0.0000 C   0  0  0  0  0  0  0  0  0  0  0  0
  -12.2910   -8.3620    0.0000 C   0  0  0  0  0  0  0  0  0  0  0  0
  -13.0380   -9.6620    0.0000 F   0  0  0  0  0  0  0  0  0  0  0  0
  -10.7910   -8.3580    0.0000 C   0  0  0  0  0  0  0  0  0  0  0  0
  -10.0440   -7.0570    0.0000 C   0  0  0  0  0  0  0  0  0  0  0  0
  -11.7430   -2.2640    0.0000 C   0  0  0  0  0  0  0  0  0  0  0  0
  -11.7460   -0.7640    0.0000 C   0  0  0  0  0  0  0  0  0  0  0  0
  -13.0470   -0.0170    0.0000 C   0  0  0  0  0  0  0  0  0  0  0  0
  -14.3440   -0.7700    0.0000 C   0  0  0  0  0  0  0  0  0  0  0  0
  -15.6450   -0.0230    0.0000 O   0  0  0  0  0  0  0  0  0  0  0  0
  -14.3410   -2.2700    0.0000 C   0  0  0  0  0  0  0  0  0  0  0  0
  -13.0400   -3.0170    0.0000 C   0  0  0  0  0  0  0  0  0  0  0  0
  1  2  1  0  0  0  0
  2  3  1  0  0  0  0
  2  7  2  0  0  0  0
  3  4  2  0  0  0  0
  4  5  1  0  0  0  0
  5  6  2  0  0  0  0
  5  8  1  0  0  0  0
  6  7  1  0  0  0  0
  8  9  1  6  0  0  0
  8 10  1  0  0  0  0
 10 11  1  0  0  0  0
 12 11  1  1  0  0  0
 12 13  1  0  0  0  0
 12 15  1  0  0  0  0
 13 14  1  0  0  0  0
 13 24  1  6  0  0  0
 14 15  1  0  0  0  0
 14 17  1  0  0  0  0
 15 16  2  0  0  0  0
 17 18  1  0  0  0  0
 17 23  2  0  0  0  0
 18 19  2  0  0  0  0
 19 20  1  0  0  0  0
 20 21  1  0  0  0  0
 20 22  2  0  0  0  0
 22 23  1  0  0  0  0
 24 25  1  0  0  0  0
 24 30  2  0  0  0  0
 25 26  2  0  0  0  0
 26 27  1  0  0  0  0
 27 28  1  0  0  0  0
 27 29  2  0  0  0  0
 29 30  1  0  0  0  0
M  END
>  <Index>
417

>  <ID>
HT0843

>  <class>
0

>  <apol>
60.862652

>  <ast_fraglike>
0

>  <ast_fraglike_ext>
0

>  <ast_violation>
2

>  <ast_violation_ext>
3

>  <a_acc>
3

>  <a_acid>
0

>  <a_aro>
18

>  <a_base>
0

>  <a_count>
51

>  <a_don>
2

>  <a_donacc>
5

>  <a_heavy>
30

>  <a_hyd>
25

>  <a_IC>
80.26104

>  <a_ICM>
1.5737458

>  <a_nB>
0

>  <a_nBr>
0

>  <a_nC>
24

>  <a_nCl>
0

>  <a_nF>
2

>  <a_nH>
21

>  <a_nI>
0

>  <a_nN>
1

>  <a_nO>
3

>  <a_nP>
0

>  <a_nS>
0

>  <balabanJ>
1.3668586

>  <BCUT_PEOE_0>
-2.7282987

>  <BCUT_PEOE_1>
-0.64742291

>  <BCUT_PEOE_2>
0.70536113

>  <BCUT_PEOE_3>
2.7509255

>  <BCUT_SLOGP_0>
-2.732204

>  <BCUT_SLOGP_1>
-0.55207789

>  <BCUT_SLOGP_2>
0.80591482

>  <BCUT_SLOGP_3>
2.7956665

>  <BCUT_SMR_0>
-2.4705095

>  <BCUT_SMR_1>
-0.49986199

>  <BCUT_SMR_2>
0.85431087

>  <BCUT_SMR_3>
3.0098517

>  <bpol>
28.301348

>  <b_1rotN>
6

>  <b_1rotR>
0.18181819

>  <b_ar>
18

>  <b_count>
54

>  <b_double>
1

>  <b_heavy>
33

>  <b_max1len>
6

>  <b_rotN>
6

>  <b_rotR>
0.18181819

>  <b_single>
35

>  <b_triple>
0

>  <chi0>
21.250347

>  <chi0v>
16.080286

>  <chi0v_C>
13.574468

>  <chi0_C>
15.672997

>  <chi1>
14.435561

>  <chi1v>
9.7492638

>  <chi1v_C>
7.9799571

>  <chi1_C>
10.548809

>  <chiral>
3

>  <chiral_u>
0

>  <density>
0.76685965

>  <diameter>
15

>  <FCharge>
0

>  <GCUT_PEOE_0>
-0.84586596

>  <GCUT_PEOE_1>
-0.4099378

>  <GCUT_PEOE_2>
0.083894789

>  <GCUT_PEOE_3>
2.7660964

>  <GCUT_SLOGP_0>
-0.99514651

>  <GCUT_SLOGP_1>
-0.27983469

>  <GCUT_SLOGP_2>
0.16467921

>  <GCUT_SLOGP_3>
2.8688304

>  <GCUT_SMR_0>
-0.53411663

>  <GCUT_SMR_1>
-0.2210601

>  <GCUT_SMR_2>
0.19490634

>  <GCUT_SMR_3>
3.0294585

>  <Kier1>
23.168043

>  <Kier2>
10.29244

>  <Kier3>
5.3333335

>  <KierA1>
17.227501

>  <KierA2>
7.5694919

>  <KierA3>
3.8918252

>  <KierFlex>
4.3467808

>  <lip_acc>
4

>  <lip_don>
2

>  <lip_druglike>
1

>  <lip_violation>
1

>  <logP(o/w)>
4.8670001

>  <logS>
-5.35111

>  <mr>
11.143492

>  <mutagenic>
0

>  <nmol>
1

>  <opr_brigid>
22

>  <opr_leadlike>
1

>  <opr_nring>
4

>  <opr_nrot>
6

>  <opr_violation>
1

>  <PC+>
0

>  <PC->
0

>  <PEOE_PC+>
2.2857597

>  <PEOE_PC->
-2.2857597

>  <PEOE_RPC+>
0.10227104

>  <PEOE_RPC->
0.1693887

>  <PEOE_VSA+0>
28.026482

>  <PEOE_VSA+1>
76.224815

>  <PEOE_VSA+2>
18.041691

>  <PEOE_VSA+3>
0

>  <PEOE_VSA+4>
33.597878

>  <PEOE_VSA+5>
0

>  <PEOE_VSA+6>
0

>  <PEOE_VSA-0>
119.85894

>  <PEOE_VSA-1>
49.019615

>  <PEOE_VSA-2>
0

>  <PEOE_VSA-3>
0

>  <PEOE_VSA-4>
23.817272

>  <PEOE_VSA-5>
13.566921

>  <PEOE_VSA-6>
15.535081

>  <PEOE_VSA_FHYD>
0.77092999

>  <PEOE_VSA_FNEG>
0.58725041

>  <PEOE_VSA_FPNEG>
0.14011347

>  <PEOE_VSA_FPOL>
0.22907001

>  <PEOE_VSA_FPOS>
0.41274962

>  <PEOE_VSA_FPPOS>
0.088956535

>  <PEOE_VSA_HYD>
291.17154

>  <PEOE_VSA_NEG>
221.79782

>  <PEOE_VSA_PNEG>
52.919273

>  <PEOE_VSA_POL>
86.517151

>  <PEOE_VSA_POS>
155.89085

>  <PEOE_VSA_PPOS>
33.597878

>  <petitjean>
0.46666667

>  <petitjeanSC>
0.875

>  <Q_PC+>
0

>  <Q_PC->
0

>  <Q_RPC+>
0

>  <Q_RPC->
0

>  <Q_VSA_FHYD>
1

>  <Q_VSA_FNEG>
0

>  <Q_VSA_FPNEG>
0

>  <Q_VSA_FPOL>
0

>  <Q_VSA_FPOS>
1

>  <Q_VSA_FPPOS>
0

>  <Q_VSA_HYD>
377.68869

>  <Q_VSA_NEG>
0

>  <Q_VSA_PNEG>
0

>  <Q_VSA_POL>
0

>  <Q_VSA_POS>
377.68869

>  <Q_VSA_PPOS>
0

>  <radius>
8

>  <reactive>
0

>  <rings>
4

>  <RPC+>
0

>  <RPC->
0

>  <rsynth>
0.26666668

>  <SlogP>
5.0792999

>  <SlogP_VSA0>
53.894768

>  <SlogP_VSA1>
5.2587838

>  <SlogP_VSA2>
42.104252

>  <SlogP_VSA3>
0

>  <SlogP_VSA4>
10.781946

>  <SlogP_VSA5>
0

>  <SlogP_VSA6>
0

>  <SlogP_VSA7>
211.71822

>  <SlogP_VSA8>
48.187428

>  <SlogP_VSA9>
37.920403

>  <SMR>
10.90396

>  <SMR_VSA0>
23.862217

>  <SMR_VSA1>
80.690681

>  <SMR_VSA2>
25.777145

>  <SMR_VSA3>
22.065195

>  <SMR_VSA4>
2.7567475

>  <SMR_VSA5>
249.45502

>  <SMR_VSA6>
5.2587838

>  <SMR_VSA7>
0

>  <TPSA>
60.77

>  <VAdjEq>
0.37824166

>  <VAdjMa>
6.044394

>  <VDistEq>
3.6297803

>  <VDistMa>
9.5329294

>  <vdw_area>
377.68869

>  <vdw_vol>
533.90729

>  <vsa_acc>
13.566921

>  <vsa_acid>
0

>  <vsa_base>
0

>  <vsa_don>
0

>  <vsa_hyd>
300.11966

>  <vsa_other>
12.949531

>  <vsa_pol>
40.700764

>  <Weight>
409.43198

>  <weinerPath>
2586

>  <weinerPol>
46

>  <zagreb>
160

$$$$