O=C1NC(=O)NC(=O)C1(CC=C)CC=C
  MOE2013           2D

 15 15  0  0  0  0  0  0  0  0999 V2000
    0.0000    0.0000    0.0000 O   0  0  0  0  0  0  0  0  0  0  0  0
    0.0020   -1.5000    0.0000 C   0  0  0  0  0  0  0  0  0  0  0  0
    1.3010   -2.2490    0.0000 N   0  0  0  0  0  0  0  0  0  0  0  0
    1.3030   -3.7490    0.0000 C   0  0  0  0  0  0  0  0  0  0  0  0
    2.6030   -4.4970    0.0000 O   0  0  0  0  0  0  0  0  0  0  0  0
    0.0050   -4.5000    0.0000 N   0  0  0  0  0  0  0  0  0  0  0  0
   -1.2950   -3.7510    0.0000 C   0  0  0  0  0  0  0  0  0  0  0  0
   -2.5930   -4.5030    0.0000 O   0  0  0  0  0  0  0  0  0  0  0  0
   -1.2970   -2.2510    0.0000 C   0  0  0  0  0  0  0  0  0  0  0  0
   -2.0480   -0.9530    0.0000 C   0  0  0  0  0  0  0  0  0  0  0  0
   -3.5480   -0.9550    0.0000 C   0  0  0  0  0  0  0  0  0  0  0  0
   -4.2990    0.3430    0.0000 C   0  0  0  0  0  0  0  0  0  0  0  0
   -2.7970   -2.2530    0.0000 C   0  0  0  0  0  0  0  0  0  0  0  0
   -3.5450   -3.5530    0.0000 C   0  0  0  0  0  0  0  0  0  0  0  0
   -5.0450   -3.5540    0.0000 C   0  0  0  0  0  0  0  0  0  0  0  0
  1  2  2  0  0  0  0
  2  3  1  0  0  0  0
  2  9  1  0  0  0  0
  3  4  1  0  0  0  0
  4  5  2  0  0  0  0
  4  6  1  0  0  0  0
  6  7  1  0  0  0  0
  7  8  2  0  0  0  0
  7  9  1  0  0  0  0
  9 10  1  0  0  0  0
  9 13  1  0  0  0  0
 10 11  1  0  0  0  0
 11 12  2  0  0  0  0
 13 14  1  0  0  0  0
 14 15  2  0  0  0  0
M  END
>  <Index>
46

>  <ID>
HT0102

>  <class>
0

>  <apol>
30.207516

>  <ast_fraglike>
1

>  <ast_fraglike_ext>
0

>  <ast_violation>
0

>  <ast_violation_ext>
1

>  <a_acc>
3

>  <a_acid>
0

>  <a_aro>
0

>  <a_base>
0

>  <a_count>
27

>  <a_don>
2

>  <a_donacc>
5

>  <a_heavy>
15

>  <a_hyd>
7

>  <a_IC>
45.388245

>  <a_ICM>
1.6810461

>  <a_nB>
0

>  <a_nBr>
0

>  <a_nC>
10

>  <a_nCl>
0

>  <a_nF>
0

>  <a_nH>
12

>  <a_nI>
0

>  <a_nN>
2

>  <a_nO>
3

>  <a_nP>
0

>  <a_nS>
0

>  <balabanJ>
2.8346162

>  <BCUT_PEOE_0>
-2.5822709

>  <BCUT_PEOE_1>
-0.60541105

>  <BCUT_PEOE_2>
0.56588227

>  <BCUT_PEOE_3>
2.6861722

>  <BCUT_SLOGP_0>
-2.782685

>  <BCUT_SLOGP_1>
-0.58447987

>  <BCUT_SLOGP_2>
0.67082673

>  <BCUT_SLOGP_3>
2.6365445

>  <BCUT_SMR_0>
-2.3481872

>  <BCUT_SMR_1>
-0.40903735

>  <BCUT_SMR_2>
0.71083009

>  <BCUT_SMR_3>
2.9169846

>  <bpol>
17.312485

>  <b_1rotN>
4

>  <b_1rotR>
0.26666668

>  <b_ar>
0

>  <b_count>
27

>  <b_double>
5

>  <b_heavy>
15

>  <b_max1len>
6

>  <b_rotN>
4

>  <b_rotR>
0.26666668

>  <b_single>
22

>  <b_triple>
0

>  <chi0>
11.474691

>  <chi0v>
8.2078724

>  <chi0v_C>
5.9831276

>  <chi0_C>
7.0604777

>  <chi1>
7.0637145

>  <chi1v>
4.4524722

>  <chi1v_C>
2.8401

>  <chi1_C>
3.6986706

>  <chiral>
0

>  <chiral_u>
0

>  <density>
0.77519625

>  <diameter>
7

>  <FCharge>
0

>  <GCUT_PEOE_0>
-0.76224947

>  <GCUT_PEOE_1>
-0.44369668

>  <GCUT_PEOE_2>
0.099935003

>  <GCUT_PEOE_3>
2.4699306

>  <GCUT_SLOGP_0>
-1.1838971

>  <GCUT_SLOGP_1>
-0.3357048

>  <GCUT_SLOGP_2>
0.17363344

>  <GCUT_SLOGP_3>
2.4306438

>  <GCUT_SMR_0>
-0.50226879

>  <GCUT_SMR_1>
-0.22294788

>  <GCUT_SMR_2>
0.19347362

>  <GCUT_SMR_3>
2.7080688

>  <Kier1>
13.066667

>  <Kier2>
5.3650794

>  <Kier3>
2.5714285

>  <KierA1>
8.8159332

>  <KierA2>
3.5065129

>  <KierA3>
1.6370625

>  <KierFlex>
2.060879

>  <lip_acc>
5

>  <lip_don>
2

>  <lip_druglike>
1

>  <lip_violation>
0

>  <logP(o/w)>
0.47499999

>  <logS>
-2.1689301

>  <mr>
5.4757371

>  <mutagenic>
0

>  <nmol>
1

>  <opr_brigid>
8

>  <opr_leadlike>
1

>  <opr_nring>
1

>  <opr_nrot>
4

>  <opr_violation>
0

>  <PC+>
0

>  <PC->
0

>  <PEOE_PC+>
1.753443

>  <PEOE_PC->
-1.753443

>  <PEOE_RPC+>
0.1876341

>  <PEOE_RPC->
0.15838839

>  <PEOE_VSA+0>
17.061544

>  <PEOE_VSA+1>
25.592316

>  <PEOE_VSA+2>
0

>  <PEOE_VSA+3>
17.238026

>  <PEOE_VSA+4>
25.899061

>  <PEOE_VSA+5>
0

>  <PEOE_VSA+6>
17.440542

>  <PEOE_VSA-0>
17.402626

>  <PEOE_VSA-1>
24.509808

>  <PEOE_VSA-2>
44.602535

>  <PEOE_VSA-3>
0

>  <PEOE_VSA-4>
13.566921

>  <PEOE_VSA-5>
27.407623

>  <PEOE_VSA-6>
0

>  <PEOE_VSA_FHYD>
0.63456231

>  <PEOE_VSA_FNEG>
0.55257004

>  <PEOE_VSA_FPNEG>
0.17759347

>  <PEOE_VSA_FPOL>
0.36543769

>  <PEOE_VSA_FPOS>
0.44742996

>  <PEOE_VSA_FPPOS>
0.1878442

>  <PEOE_VSA_HYD>
146.40686

>  <PEOE_VSA_NEG>
127.48952

>  <PEOE_VSA_PNEG>
40.974545

>  <PEOE_VSA_POL>
84.314148

>  <PEOE_VSA_POS>
103.23149

>  <PEOE_VSA_PPOS>
43.339603

>  <petitjean>
0.42857143

>  <petitjeanSC>
0.75

>  <Q_PC+>
0

>  <Q_PC->
0

>  <Q_RPC+>
0

>  <Q_RPC->
0

>  <Q_VSA_FHYD>
1

>  <Q_VSA_FNEG>
0

>  <Q_VSA_FPNEG>
0

>  <Q_VSA_FPOL>
0

>  <Q_VSA_FPOS>
1

>  <Q_VSA_FPPOS>
0

>  <Q_VSA_HYD>
230.72101

>  <Q_VSA_NEG>
0

>  <Q_VSA_PNEG>
0

>  <Q_VSA_POL>
0

>  <Q_VSA_POS>
230.72101

>  <Q_VSA_PPOS>
0

>  <radius>
4

>  <reactive>
0

>  <rings>
1

>  <RPC+>
0

>  <RPC->
0

>  <rsynth>
1

>  <SlogP>
0.491

>  <SlogP_VSA0>
36.0215

>  <SlogP_VSA1>
15.347524

>  <SlogP_VSA2>
47.724434

>  <SlogP_VSA3>
0

>  <SlogP_VSA4>
0

>  <SlogP_VSA5>
0

>  <SlogP_VSA6>
0

>  <SlogP_VSA7>
35.286369

>  <SlogP_VSA8>
37.736813

>  <SlogP_VSA9>
88.063805

>  <SMR>
5.3742399

>  <SMR_VSA0>
71.586647

>  <SMR_VSA1>
0

>  <SMR_VSA2>
36.0215

>  <SMR_VSA3>
0

>  <SMR_VSA4>
0

>  <SMR_VSA5>
73.023178

>  <SMR_VSA6>
15.347524

>  <SMR_VSA7>
64.201584

>  <TPSA>
75.269997

>  <VAdjEq>
0.56650949

>  <VAdjMa>
4.9068904

>  <VDistEq>
2.5438364

>  <VDistMa>
7.5539594

>  <vdw_area>
230.72101

>  <vdw_vol>
268.59906

>  <vsa_acc>
40.700764

>  <vsa_acid>
0

>  <vsa_base>
0

>  <vsa_don>
11.365152

>  <vsa_hyd>
122.05088

>  <vsa_other>
43.339603

>  <vsa_pol>
52.065914

>  <Weight>
208.217

>  <weinerPath>
338

>  <weinerPol>
25

>  <zagreb>
72

$$$$