[nH]1nc(nn1)-c1ccccc1-c1ncc(cc1)Cn1nc(nc1CCCC)CCCC
  MOE2013           2D

 31 34  0  0  0  0  0  0  0  0999 V2000
    0.0000    0.0000    0.0000 N   0  0  0  0  0  0  0  0  0  0  0  0
   -0.3670   -1.4540    0.0000 N   0  0  0  0  0  0  0  0  0  0  0  0
   -1.8640   -1.5550    0.0000 C   0  0  0  0  0  0  0  0  0  0  0  0
   -2.4220   -0.1630    0.0000 N   0  0  0  0  0  0  0  0  0  0  0  0
   -1.2700    0.7980    0.0000 N   0  0  0  0  0  0  0  0  0  0  0  0
   -2.6620   -2.8250    0.0000 C   0  0  0  0  0  0  0  0  0  0  0  0
   -4.1610   -2.7680    0.0000 C   0  0  0  0  0  0  0  0  0  0  0  0
   -4.9590   -4.0380    0.0000 C   0  0  0  0  0  0  0  0  0  0  0  0
   -4.2590   -5.3640    0.0000 C   0  0  0  0  0  0  0  0  0  0  0  0
   -2.7600   -5.4210    0.0000 C   0  0  0  0  0  0  0  0  0  0  0  0
   -1.9620   -4.1510    0.0000 C   0  0  0  0  0  0  0  0  0  0  0  0
   -0.4630   -4.2080    0.0000 C   0  0  0  0  0  0  0  0  0  0  0  0
    0.3360   -2.9380    0.0000 N   0  0  0  0  0  0  0  0  0  0  0  0
    1.8350   -2.9940    0.0000 C   0  0  0  0  0  0  0  0  0  0  0  0
    2.5350   -4.3210    0.0000 C   0  0  0  0  0  0  0  0  0  0  0  0
    1.7370   -5.5910    0.0000 C   0  0  0  0  0  0  0  0  0  0  0  0
    0.2380   -5.5340    0.0000 C   0  0  0  0  0  0  0  0  0  0  0  0
    4.0340   -4.3770    0.0000 C   0  0  0  0  0  0  0  0  0  0  0  0
    4.7350   -5.7040    0.0000 N   0  0  0  0  0  0  0  0  0  0  0  0
    4.0730   -7.0500    0.0000 N   0  0  0  0  0  0  0  0  0  0  0  0
    5.1490   -8.0950    0.0000 C   0  0  0  0  0  0  0  0  0  0  0  0
    6.4760   -7.3950    0.0000 N   0  0  0  0  0  0  0  0  0  0  0  0
    6.2190   -5.9170    0.0000 C   0  0  0  0  0  0  0  0  0  0  0  0
    7.2640   -4.8410    0.0000 C   0  0  0  0  0  0  0  0  0  0  0  0
    8.7190   -5.2070    0.0000 C   0  0  0  0  0  0  0  0  0  0  0  0
    9.7640   -4.1310    0.0000 C   0  0  0  0  0  0  0  0  0  0  0  0
   11.2180   -4.4980    0.0000 C   0  0  0  0  0  0  0  0  0  0  0  0
    4.9360   -9.5800    0.0000 C   0  0  0  0  0  0  0  0  0  0  0  0
    6.1160  -10.5070    0.0000 C   0  0  0  0  0  0  0  0  0  0  0  0
    5.9030  -11.9910    0.0000 C   0  0  0  0  0  0  0  0  0  0  0  0
    7.0820  -12.9180    0.0000 C   0  0  0  0  0  0  0  0  0  0  0  0
  1  2  1  0  0  0  0
  1  5  1  0  0  0  0
  2  3  2  0  0  0  0
  3  4  1  0  0  0  0
  3  6  1  0  0  0  0
  4  5  2  0  0  0  0
  6  7  1  0  0  0  0
  6 11  2  0  0  0  0
  7  8  2  0  0  0  0
  8  9  1  0  0  0  0
  9 10  2  0  0  0  0
 10 11  1  0  0  0  0
 11 12  1  0  0  0  0
 12 13  1  0  0  0  0
 12 17  2  0  0  0  0
 13 14  2  0  0  0  0
 14 15  1  0  0  0  0
 15 16  2  0  0  0  0
 15 18  1  0  0  0  0
 16 17  1  0  0  0  0
 18 19  1  0  0  0  0
 19 20  1  0  0  0  0
 19 23  1  0  0  0  0
 20 21  2  0  0  0  0
 21 22  1  0  0  0  0
 21 28  1  0  0  0  0
 22 23  2  0  0  0  0
 23 24  1  0  0  0  0
 24 25  1  0  0  0  0
 25 26  1  0  0  0  0
 26 27  1  0  0  0  0
 28 29  1  0  0  0  0
 29 30  1  0  0  0  0
 30 31  1  0  0  0  0
M  END
>  <Index>
458

>  <ID>
HT0931

>  <class>
0

>  <apol>
67.950203

>  <ast_fraglike>
0

>  <ast_fraglike_ext>
0

>  <ast_violation>
3

>  <ast_violation_ext>
5

>  <a_acc>
7

>  <a_acid>
0

>  <a_aro>
22

>  <a_base>
0

>  <a_count>
59

>  <a_don>
2

>  <a_donacc>
9

>  <a_heavy>
31

>  <a_hyd>
20

>  <a_IC>
84.428078

>  <a_ICM>
1.4309844

>  <a_nB>
0

>  <a_nBr>
0

>  <a_nC>
23

>  <a_nCl>
0

>  <a_nF>
0

>  <a_nH>
28

>  <a_nI>
0

>  <a_nN>
8

>  <a_nO>
0

>  <a_nP>
0

>  <a_nS>
0

>  <balabanJ>
1.2644099

>  <BCUT_PEOE_0>
-2.5772185

>  <BCUT_PEOE_1>
-0.55200666

>  <BCUT_PEOE_2>
0.56477034

>  <BCUT_PEOE_3>
2.557471

>  <BCUT_SLOGP_0>
-2.465071

>  <BCUT_SLOGP_1>
-0.45692983

>  <BCUT_SLOGP_2>
0.57956356

>  <BCUT_SLOGP_3>
2.6712308

>  <BCUT_SMR_0>
-2.3376026

>  <BCUT_SMR_1>
-0.40456054

>  <BCUT_SMR_2>
0.75597924

>  <BCUT_SMR_3>
2.8008876

>  <bpol>
35.889797

>  <b_1rotN>
10

>  <b_1rotR>
0.29411766

>  <b_ar>
22

>  <b_count>
62

>  <b_double>
0

>  <b_heavy>
34

>  <b_max1len>
5

>  <b_rotN>
10

>  <b_rotR>
0.29411766

>  <b_single>
40

>  <b_triple>
0

>  <chi0>
21.468044

>  <chi0v>
18.121695

>  <chi0v_C>
14.491199

>  <chi0_C>
15.940947

>  <chi1>
15.279519

>  <chi1v>
10.988471

>  <chi1v_C>
8.0015831

>  <chi1_C>
9.6801996

>  <chiral>
0

>  <chiral_u>
0

>  <density>
0.71296155

>  <diameter>
16

>  <FCharge>
0

>  <GCUT_PEOE_0>
-0.81940299

>  <GCUT_PEOE_1>
-0.3574613

>  <GCUT_PEOE_2>
0.024396492

>  <GCUT_PEOE_3>
2.6757092

>  <GCUT_SLOGP_0>
-0.96363854

>  <GCUT_SLOGP_1>
-0.30580246

>  <GCUT_SLOGP_2>
0.077220589

>  <GCUT_SLOGP_3>
2.7649872

>  <GCUT_SMR_0>
-0.53142709

>  <GCUT_SMR_1>
-0.18357268

>  <GCUT_SMR_2>
0.17627865

>  <GCUT_SMR_3>
2.9389887

>  <Kier1>
24.134949

>  <Kier2>
12.459259

>  <Kier3>
6.5333333

>  <KierA1>
17.310787

>  <KierA2>
8.8297052

>  <KierA3>
4.5894413

>  <KierFlex>
4.9306183

>  <lip_acc>
8

>  <lip_don>
1

>  <lip_druglike>
1

>  <lip_violation>
0

>  <logP(o/w)>
4.1430001

>  <logS>
-5.8675699

>  <mr>
12.203989

>  <mutagenic>
0

>  <nmol>
1

>  <opr_brigid>
22

>  <opr_leadlike>
1

>  <opr_nring>
4

>  <opr_nrot>
10

>  <opr_violation>
1

>  <PC+>
0

>  <PC->
0

>  <PEOE_PC+>
1.9906149

>  <PEOE_PC->
-1.9906149

>  <PEOE_RPC+>
0.1076574

>  <PEOE_RPC->
0.1279137

>  <PEOE_VSA+0>
115.34257

>  <PEOE_VSA+1>
58.28035

>  <PEOE_VSA+2>
11.190562

>  <PEOE_VSA+3>
11.190562

>  <PEOE_VSA+4>
19.809576

>  <PEOE_VSA+5>
0

>  <PEOE_VSA+6>
0

>  <PEOE_VSA-0>
45.025574

>  <PEOE_VSA-1>
116.1725

>  <PEOE_VSA-2>
18.842079

>  <PEOE_VSA-3>
17.034857

>  <PEOE_VSA-4>
5.6825762

>  <PEOE_VSA-5>
5.6825762

>  <PEOE_VSA-6>
0

>  <PEOE_VSA_FHYD>
0.92651868

>  <PEOE_VSA_FNEG>
0.49131009

>  <PEOE_VSA_FPNEG>
0.02678857

>  <PEOE_VSA_FPOL>
0.073481321

>  <PEOE_VSA_FPOS>
0.50868994

>  <PEOE_VSA_FPPOS>
0.046692751

>  <PEOE_VSA_HYD>
393.07907

>  <PEOE_VSA_NEG>
208.44017

>  <PEOE_VSA_PNEG>
11.365152

>  <PEOE_VSA_POL>
31.174728

>  <PEOE_VSA_POS>
215.81361

>  <PEOE_VSA_PPOS>
19.809576

>  <petitjean>
0.5

>  <petitjeanSC>
1

>  <Q_PC+>
0

>  <Q_PC->
0

>  <Q_RPC+>
0

>  <Q_RPC->
0

>  <Q_VSA_FHYD>
1

>  <Q_VSA_FNEG>
0

>  <Q_VSA_FPNEG>
0

>  <Q_VSA_FPOL>
0

>  <Q_VSA_FPOS>
1

>  <Q_VSA_FPPOS>
0

>  <Q_VSA_HYD>
424.25378

>  <Q_VSA_NEG>
0

>  <Q_VSA_PNEG>
0

>  <Q_VSA_POL>
0

>  <Q_VSA_POS>
424.25378

>  <Q_VSA_PPOS>
0

>  <radius>
8

>  <reactive>
0

>  <rings>
4

>  <RPC+>
0

>  <RPC->
0

>  <rsynth>
1

>  <SlogP>
4.52004

>  <SlogP_VSA0>
0

>  <SlogP_VSA1>
101.87714

>  <SlogP_VSA2>
16.540485

>  <SlogP_VSA3>
0

>  <SlogP_VSA4>
7.8414154

>  <SlogP_VSA5>
37.736813

>  <SlogP_VSA6>
0

>  <SlogP_VSA7>
134.52928

>  <SlogP_VSA8>
75.473625

>  <SlogP_VSA9>
85.091606

>  <SMR>
11.93977

>  <SMR_VSA0>
0

>  <SMR_VSA1>
101.87714

>  <SMR_VSA2>
16.540485

>  <SMR_VSA3>
7.8414154

>  <SMR_VSA4>
11.455817

>  <SMR_VSA5>
254.72348

>  <SMR_VSA6>
0

>  <SMR_VSA7>
66.652031

>  <TPSA>
98.059998

>  <VAdjEq>
0.36875206

>  <VAdjMa>
6.0874629

>  <VDistEq>
3.8082228

>  <VDistMa>
9.6002989

>  <vdw_area>
424.25378

>  <vdw_vol>
584.22925

>  <vsa_acc>
43.366734

>  <vsa_acid>
0

>  <vsa_base>
0

>  <vsa_don>
0

>  <vsa_hyd>
302.44302

>  <vsa_other>
33.57169

>  <vsa_pol>
65.947281

>  <Weight>
416.53299

>  <weinerPath>
3038

>  <weinerPol>
44

>  <zagreb>
158

$$$$