Clc1cc(c(nc1)-c1ccc(nc1)C)-c1ccc(S(=O)(=O)C)cc1
  MOE2013           2D

 24 26  0  0  0  0  0  0  0  0999 V2000
    0.0000    0.0000    0.0000 Cl  0  0  0  0  0  0  0  0  0  0  0  0
    0.7570   -1.2950    0.0000 C   0  0  0  0  0  0  0  0  0  0  0  0
    2.2570   -1.2870    0.0000 C   0  0  0  0  0  0  0  0  0  0  0  0
    3.0130   -2.5820    0.0000 C   0  0  0  0  0  0  0  0  0  0  0  0
    2.2700   -3.8850    0.0000 C   0  0  0  0  0  0  0  0  0  0  0  0
    0.7700   -3.8930    0.0000 N   0  0  0  0  0  0  0  0  0  0  0  0
    0.0140   -2.5980    0.0000 C   0  0  0  0  0  0  0  0  0  0  0  0
    3.0270   -5.1800    0.0000 C   0  0  0  0  0  0  0  0  0  0  0  0
    4.5270   -5.1730    0.0000 C   0  0  0  0  0  0  0  0  0  0  0  0
    5.2840   -6.4680    0.0000 C   0  0  0  0  0  0  0  0  0  0  0  0
    4.5400   -7.7710    0.0000 C   0  0  0  0  0  0  0  0  0  0  0  0
    3.0410   -7.7790    0.0000 N   0  0  0  0  0  0  0  0  0  0  0  0
    2.2840   -6.4830    0.0000 C   0  0  0  0  0  0  0  0  0  0  0  0
    5.2970   -9.0660    0.0000 C   0  0  0  0  0  0  0  0  0  0  0  0
    4.5130   -2.5750    0.0000 C   0  0  0  0  0  0  0  0  0  0  0  0
    5.2570   -1.2720    0.0000 C   0  0  0  0  0  0  0  0  0  0  0  0
    6.7570   -1.2640    0.0000 C   0  0  0  0  0  0  0  0  0  0  0  0
    7.5130   -2.5590    0.0000 C   0  0  0  0  0  0  0  0  0  0  0  0
    9.0130   -2.5510    0.0000 S   0  0  0  0  0  0  0  0  0  0  0  0
    9.0210   -4.0510    0.0000 O   0  0  0  0  0  0  0  0  0  0  0  0
    9.0060   -1.0510    0.0000 O   0  0  0  0  0  0  0  0  0  0  0  0
   10.5130   -2.5430    0.0000 C   0  0  0  0  0  0  0  0  0  0  0  0
    6.7700   -3.8620    0.0000 C   0  0  0  0  0  0  0  0  0  0  0  0
    5.2700   -3.8700    0.0000 C   0  0  0  0  0  0  0  0  0  0  0  0
  1  2  1  0  0  0  0
  2  3  1  0  0  0  0
  2  7  2  0  0  0  0
  3  4  2  0  0  0  0
  4  5  1  0  0  0  0
  4 15  1  0  0  0  0
  5  6  2  0  0  0  0
  5  8  1  0  0  0  0
  6  7  1  0  0  0  0
  8  9  1  0  0  0  0
  8 13  2  0  0  0  0
  9 10  2  0  0  0  0
 10 11  1  0  0  0  0
 11 12  2  0  0  0  0
 11 14  1  0  0  0  0
 12 13  1  0  0  0  0
 15 16  1  0  0  0  0
 15 24  2  0  0  0  0
 16 17  2  0  0  0  0
 17 18  1  0  0  0  0
 18 19  1  0  0  0  0
 18 23  2  0  0  0  0
 19 20  2  0  0  0  0
 19 21  2  0  0  0  0
 19 22  1  0  0  0  0
 23 24  1  0  0  0  0
M  END
>  <Index>
412

>  <ID>
HT0833

>  <class>
0

>  <apol>
50.565895

>  <ast_fraglike>
0

>  <ast_fraglike_ext>
0

>  <ast_violation>
3

>  <ast_violation_ext>
3

>  <a_acc>
4

>  <a_acid>
0

>  <a_aro>
18

>  <a_base>
0

>  <a_count>
39

>  <a_don>
0

>  <a_donacc>
4

>  <a_heavy>
24

>  <a_hyd>
19

>  <a_IC>
68.468681

>  <a_ICM>
1.7556071

>  <a_nB>
0

>  <a_nBr>
0

>  <a_nC>
18

>  <a_nCl>
1

>  <a_nF>
0

>  <a_nH>
15

>  <a_nI>
0

>  <a_nN>
2

>  <a_nO>
2

>  <a_nP>
0

>  <a_nS>
1

>  <balabanJ>
1.6316235

>  <BCUT_PEOE_0>
-2.4193125

>  <BCUT_PEOE_1>
-0.58426303

>  <BCUT_PEOE_2>
0.63260508

>  <BCUT_PEOE_3>
2.4241354

>  <BCUT_SLOGP_0>
-2.4339447

>  <BCUT_SLOGP_1>
-0.43346015

>  <BCUT_SLOGP_2>
0.82862252

>  <BCUT_SLOGP_3>
2.4654789

>  <BCUT_SMR_0>
-2.0454741

>  <BCUT_SMR_1>
-0.33770853

>  <BCUT_SMR_2>
0.87147957

>  <BCUT_SMR_3>
2.7885842

>  <bpol>
25.934105

>  <b_1rotN>
3

>  <b_1rotR>
0.11538462

>  <b_ar>
18

>  <b_count>
41

>  <b_double>
0

>  <b_heavy>
26

>  <b_max1len>
3

>  <b_rotN>
3

>  <b_rotR>
0.11538462

>  <b_single>
23

>  <b_triple>
0

>  <chi0>
17.319626

>  <chi0v>
14.765715

>  <chi0v_C>
10.696153

>  <chi0_C>
12.405413

>  <chi1>
11.342355

>  <chi1v>
9.504427

>  <chi1v_C>
5.1367512

>  <chi1_C>
7.159833

>  <chiral>
0

>  <chiral_u>
0

>  <density>
0.80718011

>  <diameter>
12

>  <FCharge>
0

>  <GCUT_PEOE_0>
-0.88748133

>  <GCUT_PEOE_1>
-0.41155609

>  <GCUT_PEOE_2>
0.046692949

>  <GCUT_PEOE_3>
2.5013931

>  <GCUT_SLOGP_0>
-0.83006656

>  <GCUT_SLOGP_1>
-0.3034296

>  <GCUT_SLOGP_2>
0.17667967

>  <GCUT_SLOGP_3>
2.6440954

>  <GCUT_SMR_0>
-0.47973853

>  <GCUT_SMR_1>
-0.17273574

>  <GCUT_SMR_2>
0.24027483

>  <GCUT_SMR_3>
2.8124192

>  <Kier1>
18.781065

>  <Kier2>
7.7091413

>  <Kier3>
4.6011772

>  <KierA1>
15.461556

>  <KierA2>
6.289588

>  <KierA3>
3.7296154

>  <KierFlex>
4.0519509

>  <lip_acc>
4

>  <lip_don>
0

>  <lip_druglike>
1

>  <lip_violation>
0

>  <logP(o/w)>
3.405

>  <logS>
-4.87853

>  <mr>
9.7800713

>  <mutagenic>
0

>  <nmol>
1

>  <opr_brigid>
18

>  <opr_leadlike>
1

>  <opr_nring>
3

>  <opr_nrot>
3

>  <opr_violation>
0

>  <PC+>
0

>  <PC->
0

>  <PEOE_PC+>
1.9111128

>  <PEOE_PC->
-1.9111128

>  <PEOE_RPC+>
0.13271523

>  <PEOE_RPC->
0.24735813

>  <PEOE_VSA+0>
81.914429

>  <PEOE_VSA+1>
49.607773

>  <PEOE_VSA+2>
12.796158

>  <PEOE_VSA+3>
20.72374

>  <PEOE_VSA+4>
0

>  <PEOE_VSA+5>
4.1846013

>  <PEOE_VSA+6>
0

>  <PEOE_VSA-0>
82.230736

>  <PEOE_VSA-1>
29.581947

>  <PEOE_VSA-2>
6.5127993

>  <PEOE_VSA-3>
0

>  <PEOE_VSA-4>
0

>  <PEOE_VSA-5>
11.365152

>  <PEOE_VSA-6>
32.016521

>  <PEOE_VSA_FHYD>
0.8562665

>  <PEOE_VSA_FNEG>
0.48863891

>  <PEOE_VSA_FPNEG>
0.13108866

>  <PEOE_VSA_FPOL>
0.14373349

>  <PEOE_VSA_FPOS>
0.51136106

>  <PEOE_VSA_FPPOS>
0.012644826

>  <PEOE_VSA_HYD>
283.36758

>  <PEOE_VSA_NEG>
161.70715

>  <PEOE_VSA_PNEG>
43.381676

>  <PEOE_VSA_POL>
47.566277

>  <PEOE_VSA_POS>
169.2267

>  <PEOE_VSA_PPOS>
4.1846013

>  <petitjean>
0.5

>  <petitjeanSC>
1

>  <Q_PC+>
0

>  <Q_PC->
0

>  <Q_RPC+>
0

>  <Q_RPC->
0

>  <Q_VSA_FHYD>
1

>  <Q_VSA_FNEG>
0

>  <Q_VSA_FPNEG>
0

>  <Q_VSA_FPOL>
0

>  <Q_VSA_FPOS>
1

>  <Q_VSA_FPPOS>
0

>  <Q_VSA_HYD>
330.93387

>  <Q_VSA_NEG>
0

>  <Q_VSA_PNEG>
0

>  <Q_VSA_POL>
0

>  <Q_VSA_POS>
330.93387

>  <Q_VSA_PPOS>
0

>  <radius>
6

>  <reactive>
0

>  <rings>
3

>  <RPC+>
0

>  <RPC->
0

>  <rsynth>
1

>  <SlogP>
4.17592

>  <SlogP_VSA0>
0

>  <SlogP_VSA1>
81.742744

>  <SlogP_VSA2>
6.8792672

>  <SlogP_VSA3>
0

>  <SlogP_VSA4>
2.7567475

>  <SlogP_VSA5>
33.241909

>  <SlogP_VSA6>
3.5006065

>  <SlogP_VSA7>
170.24448

>  <SlogP_VSA8>
0

>  <SlogP_VSA9>
72.474655

>  <SMR>
9.5760803

>  <SMR_VSA0>
48.171688

>  <SMR_VSA1>
33.57106

>  <SMR_VSA2>
1.5507339

>  <SMR_VSA3>
6.2573543

>  <SMR_VSA4>
12.313473

>  <SMR_VSA5>
157.931

>  <SMR_VSA6>
0

>  <SMR_VSA7>
111.0451

>  <TPSA>
59.919998

>  <VAdjEq>
0.43739632

>  <VAdjMa>
5.7004399

>  <VDistEq>
3.3438225

>  <VDistMa>
8.878849

>  <vdw_area>
330.93387

>  <vdw_vol>
444.57117

>  <vsa_acc>
43.381676

>  <vsa_acid>
0

>  <vsa_base>
0

>  <vsa_don>
0

>  <vsa_hyd>
270.36246

>  <vsa_other>
6.5127993

>  <vsa_pol>
43.381676

>  <Weight>
358.849

>  <weinerPath>
1351

>  <weinerPol>
38

>  <zagreb>
128

$$$$