S(=O)(=O)(NC(=O)NN1CCCCCC1)c1ccc(cc1)CCNC(=O)c1noc(c1)C
  MOE2013           2D

 31 33  0  0  0  0  0  0  0  0999 V2000
    0.0000    0.0000    0.0000 S   0  0  0  0  0  0  0  0  0  0  0  0
   -0.7530   -1.2970    0.0000 O   0  0  0  0  0  0  0  0  0  0  0  0
    0.7530    1.2970    0.0000 O   0  0  0  0  0  0  0  0  0  0  0  0
   -1.2970    0.7530    0.0000 N   0  0  0  0  0  0  0  0  0  0  0  0
   -2.5980    0.0060    0.0000 C   0  0  0  0  0  0  0  0  0  0  0  0
   -2.6020   -1.4940    0.0000 O   0  0  0  0  0  0  0  0  0  0  0  0
   -3.8950    0.7590    0.0000 N   0  0  0  0  0  0  0  0  0  0  0  0
   -5.1960    0.0120    0.0000 N   0  0  0  0  0  0  0  0  0  0  0  0
   -5.0870   -1.4840    0.0000 C   0  0  0  0  0  0  0  0  0  0  0  0
   -6.1900   -2.5010    0.0000 C   0  0  0  0  0  0  0  0  0  0  0  0
   -7.6730   -2.2730    0.0000 C   0  0  0  0  0  0  0  0  0  0  0  0
   -8.4200   -0.9720    0.0000 C   0  0  0  0  0  0  0  0  0  0  0  0
   -7.8680    0.4220    0.0000 C   0  0  0  0  0  0  0  0  0  0  0  0
   -6.4330    0.8600    0.0000 C   0  0  0  0  0  0  0  0  0  0  0  0
    1.2970   -0.7530    0.0000 C   0  0  0  0  0  0  0  0  0  0  0  0
    1.2940   -2.2530    0.0000 C   0  0  0  0  0  0  0  0  0  0  0  0
    2.5910   -3.0060    0.0000 C   0  0  0  0  0  0  0  0  0  0  0  0
    3.8920   -2.2590    0.0000 C   0  0  0  0  0  0  0  0  0  0  0  0
    3.8950   -0.7590    0.0000 C   0  0  0  0  0  0  0  0  0  0  0  0
    2.5980   -0.0060    0.0000 C   0  0  0  0  0  0  0  0  0  0  0  0
    5.1890   -3.0120    0.0000 C   0  0  0  0  0  0  0  0  0  0  0  0
    6.4900   -2.2650    0.0000 C   0  0  0  0  0  0  0  0  0  0  0  0
    7.7870   -3.0180    0.0000 N   0  0  0  0  0  0  0  0  0  0  0  0
    9.0880   -2.2710    0.0000 C   0  0  0  0  0  0  0  0  0  0  0  0
    9.0920   -0.7710    0.0000 O   0  0  0  0  0  0  0  0  0  0  0  0
   10.3850   -3.0240    0.0000 C   0  0  0  0  0  0  0  0  0  0  0  0
   10.5390   -4.5160    0.0000 N   0  0  0  0  0  0  0  0  0  0  0  0
   12.0050   -4.8310    0.0000 O   0  0  0  0  0  0  0  0  0  0  0  0
   12.7580   -3.5340    0.0000 C   0  0  0  0  0  0  0  0  0  0  0  0
   11.7570   -2.4170    0.0000 C   0  0  0  0  0  0  0  0  0  0  0  0
   14.2500   -3.3810    0.0000 C   0  0  0  0  0  0  0  0  0  0  0  0
  1  2  2  0  0  0  0
  1  3  2  0  0  0  0
  1  4  1  0  0  0  0
  1 15  1  0  0  0  0
  4  5  1  0  0  0  0
  5  6  2  0  0  0  0
  5  7  1  0  0  0  0
  7  8  1  0  0  0  0
  8  9  1  0  0  0  0
  8 14  1  0  0  0  0
  9 10  1  0  0  0  0
 10 11  1  0  0  0  0
 11 12  1  0  0  0  0
 12 13  1  0  0  0  0
 13 14  1  0  0  0  0
 15 16  1  0  0  0  0
 15 20  2  0  0  0  0
 16 17  2  0  0  0  0
 17 18  1  0  0  0  0
 18 19  2  0  0  0  0
 18 21  1  0  0  0  0
 19 20  1  0  0  0  0
 21 22  1  0  0  0  0
 22 23  1  0  0  0  0
 23 24  1  0  0  0  0
 24 25  2  0  0  0  0
 24 26  1  0  0  0  0
 26 27  2  0  0  0  0
 26 30  1  0  0  0  0
 27 28  1  0  0  0  0
 28 29  1  0  0  0  0
 29 30  2  0  0  0  0
 29 31  1  0  0  0  0
M  END
>  <Index>
495

>  <ID>
HT0990

>  <class>
0

>  <apol>
65.613411

>  <ast_fraglike>
0

>  <ast_fraglike_ext>
0

>  <ast_violation>
2

>  <ast_violation_ext>
4

>  <a_acc>
6

>  <a_acid>
0

>  <a_aro>
11

>  <a_base>
0

>  <a_count>
58

>  <a_don>
3

>  <a_donacc>
9

>  <a_heavy>
31

>  <a_hyd>
17

>  <a_IC>
101.72309

>  <a_ICM>
1.7538464

>  <a_nB>
0

>  <a_nBr>
0

>  <a_nC>
20

>  <a_nCl>
0

>  <a_nF>
0

>  <a_nH>
27

>  <a_nI>
0

>  <a_nN>
5

>  <a_nO>
5

>  <a_nP>
0

>  <a_nS>
1

>  <balabanJ>
1.3189862

>  <BCUT_PEOE_0>
-2.6392949

>  <BCUT_PEOE_1>
-0.62590206

>  <BCUT_PEOE_2>
0.65250123

>  <BCUT_PEOE_3>
2.6694553

>  <BCUT_SLOGP_0>
-2.7730489

>  <BCUT_SLOGP_1>
-0.53807992

>  <BCUT_SLOGP_2>
0.67804134

>  <BCUT_SLOGP_3>
2.75771

>  <BCUT_SMR_0>
-2.3600838

>  <BCUT_SMR_1>
-0.38939628

>  <BCUT_SMR_2>
0.81436753

>  <BCUT_SMR_3>
2.9387493

>  <bpol>
42.464588

>  <b_1rotN>
7

>  <b_1rotR>
0.21212122

>  <b_ar>
11

>  <b_count>
60

>  <b_double>
2

>  <b_heavy>
33

>  <b_max1len>
4

>  <b_rotN>
10

>  <b_rotR>
0.30303031

>  <b_single>
47

>  <b_triple>
0

>  <chi0>
22.269375

>  <chi0v>
18.20402

>  <chi0v_C>
12.543606

>  <chi0_C>
13.656489

>  <chi1>
14.831337

>  <chi1v>
11.705185

>  <chi1v_C>
6.5022707

>  <chi1_C>
7.7684216

>  <chiral>
0

>  <chiral_u>
0

>  <density>
0.79827476

>  <diameter>
19

>  <FCharge>
0

>  <GCUT_PEOE_0>
-0.94078672

>  <GCUT_PEOE_1>
-0.42557526

>  <GCUT_PEOE_2>
0.091392696

>  <GCUT_PEOE_3>
2.6622615

>  <GCUT_SLOGP_0>
-1.1900257

>  <GCUT_SLOGP_1>
-0.3848812

>  <GCUT_SLOGP_2>
0.16445385

>  <GCUT_SLOGP_3>
2.6708403

>  <GCUT_SMR_0>
-0.53036267

>  <GCUT_SMR_1>
-0.21605732

>  <GCUT_SMR_2>
0.19305076

>  <GCUT_SMR_3>
2.9165201

>  <Kier1>
25.619835

>  <Kier2>
12.459259

>  <Kier3>
8.3730869

>  <KierA1>
20.988625

>  <KierA2>
10.135434

>  <KierA3>
6.7763619

>  <KierFlex>
6.8622203

>  <lip_acc>
10

>  <lip_don>
3

>  <lip_druglike>
1

>  <lip_violation>
0

>  <logP(o/w)>
1.0420001

>  <logS>
-3.46823

>  <mr>
11.700147

>  <mutagenic>
0

>  <nmol>
1

>  <opr_brigid>
18

>  <opr_leadlike>
1

>  <opr_nring>
3

>  <opr_nrot>
9

>  <opr_violation>
1

>  <PC+>
0

>  <PC->
0

>  <PEOE_PC+>
2.7780762

>  <PEOE_PC->
-2.7780762

>  <PEOE_RPC+>
0.11394472

>  <PEOE_RPC->
0.17746913

>  <PEOE_VSA+0>
157.38402

>  <PEOE_VSA+1>
29.945944

>  <PEOE_VSA+2>
25.899061

>  <PEOE_VSA+3>
23.937576

>  <PEOE_VSA+4>
10.105608

>  <PEOE_VSA+5>
12.949531

>  <PEOE_VSA+6>
4.1846013

>  <PEOE_VSA-0>
103.58649

>  <PEOE_VSA-1>
28.287888

>  <PEOE_VSA-2>
0

>  <PEOE_VSA-3>
2.5295215

>  <PEOE_VSA-4>
0

>  <PEOE_VSA-5>
13.566921

>  <PEOE_VSA-6>
23.481525

>  <PEOE_VSA_FHYD>
0.85250223

>  <PEOE_VSA_FNEG>
0.39336681

>  <PEOE_VSA_FPNEG>
0.085001051

>  <PEOE_VSA_FPOL>
0.14749777

>  <PEOE_VSA_FPOS>
0.60663319

>  <PEOE_VSA_FPPOS>
0.062496725

>  <PEOE_VSA_HYD>
371.5705

>  <PEOE_VSA_NEG>
171.45235

>  <PEOE_VSA_PNEG>
37.048447

>  <PEOE_VSA_POL>
64.288185

>  <PEOE_VSA_POS>
264.40634

>  <PEOE_VSA_PPOS>
27.23974

>  <petitjean>
0.47368422

>  <petitjeanSC>
0.89999998

>  <Q_PC+>
0

>  <Q_PC->
0

>  <Q_RPC+>
0

>  <Q_RPC->
0

>  <Q_VSA_FHYD>
1

>  <Q_VSA_FNEG>
0

>  <Q_VSA_FPNEG>
0

>  <Q_VSA_FPOL>
0

>  <Q_VSA_FPOS>
1

>  <Q_VSA_FPPOS>
0

>  <Q_VSA_HYD>
435.85867

>  <Q_VSA_NEG>
0

>  <Q_VSA_PNEG>
0

>  <Q_VSA_POL>
0

>  <Q_VSA_POS>
435.85867

>  <Q_VSA_PPOS>
0

>  <radius>
10

>  <reactive>
1

>  <rings>
3

>  <RPC+>
0

>  <RPC->
0

>  <rsynth>
1

>  <SlogP>
1.73439

>  <SlogP_VSA0>
52.303978

>  <SlogP_VSA1>
80.858818

>  <SlogP_VSA2>
6.6407428

>  <SlogP_VSA3>
55.318733

>  <SlogP_VSA4>
35.253361

>  <SlogP_VSA5>
30.153261

>  <SlogP_VSA6>
0

>  <SlogP_VSA7>
88.215919

>  <SlogP_VSA8>
75.473625

>  <SlogP_VSA9>
57.188232

>  <SMR>
11.26134

>  <SMR_VSA0>
105.63024

>  <SMR_VSA1>
22.598389

>  <SMR_VSA2>
53.85471

>  <SMR_VSA3>
11.391144

>  <SMR_VSA4>
0

>  <SMR_VSA5>
182.55795

>  <SMR_VSA6>
65.407471

>  <SMR_VSA7>
39.966759

>  <TPSA>
133.64

>  <VAdjEq>
0.36097246

>  <VAdjMa>
6.044394

>  <VDistEq>
4.0356736

>  <VDistMa>
9.5626945

>  <vdw_area>
435.85867

>  <vdw_vol>
563.12939

>  <vsa_acc>
70.035629

>  <vsa_acid>
0

>  <vsa_base>
0

>  <vsa_don>
23.178822

>  <vsa_hyd>
261.48462

>  <vsa_other>
54.85656

>  <vsa_pol>
93.214447

>  <Weight>
449.53198

>  <weinerPath>
3397

>  <weinerPol>
45

>  <zagreb>
156

$$$$