O=C1N(CC)C(=O)NC1c1ccccc1
  MOE2013           2D

 15 16  0  0  1  0  0  0  0  0999 V2000
    0.0000    0.0000    0.0000 O   0  0  0  0  0  0  0  0  0  0  0  0
    0.3770   -1.4520    0.0000 C   0  0  0  0  0  0  0  0  0  0  0  0
    1.7740   -2.0000    0.0000 N   0  0  0  0  0  0  0  0  0  0  0  0
    3.0380   -1.1920    0.0000 C   0  0  0  0  0  0  0  0  0  0  0  0
    4.3690   -1.8830    0.0000 C   0  0  0  0  0  0  0  0  0  0  0  0
    1.6840   -3.4970    0.0000 C   0  0  0  0  0  0  0  0  0  0  0  0
    2.8430   -4.4500    0.0000 O   0  0  0  0  0  0  0  0  0  0  0  0
    0.2320   -3.8740    0.0000 N   0  0  0  0  0  0  0  0  0  0  0  0
   -0.5750   -2.6100    0.0000 C   0  0  3  0  0  0  0  0  0  0  0  0
   -2.0720   -2.5210    0.0000 C   0  0  0  0  0  0  0  0  0  0  0  0
   -2.8990   -3.7730    0.0000 C   0  0  0  0  0  0  0  0  0  0  0  0
   -4.3960   -3.6830    0.0000 C   0  0  0  0  0  0  0  0  0  0  0  0
   -5.0670   -2.3410    0.0000 C   0  0  0  0  0  0  0  0  0  0  0  0
   -4.2410   -1.0900    0.0000 C   0  0  0  0  0  0  0  0  0  0  0  0
   -2.7440   -1.1790    0.0000 C   0  0  0  0  0  0  0  0  0  0  0  0
  1  2  2  0  0  0  0
  2  3  1  0  0  0  0
  2  9  1  0  0  0  0
  3  4  1  0  0  0  0
  3  6  1  0  0  0  0
  4  5  1  0  0  0  0
  6  7  2  0  0  0  0
  6  8  1  0  0  0  0
  8  9  1  0  0  0  0
  9 10  1  0  0  0  0
 10 11  1  0  0  0  0
 10 15  2  0  0  0  0
 11 12  2  0  0  0  0
 12 13  1  0  0  0  0
 13 14  2  0  0  0  0
 14 15  1  0  0  0  0
M  END
>  <Index>
401

>  <ID>
HT0812

>  <class>
0

>  <apol>
31.165516

>  <ast_fraglike>
1

>  <ast_fraglike_ext>
1

>  <ast_violation>
0

>  <ast_violation_ext>
0

>  <a_acc>
2

>  <a_acid>
0

>  <a_aro>
6

>  <a_base>
0

>  <a_count>
27

>  <a_don>
1

>  <a_donacc>
3

>  <a_heavy>
15

>  <a_hyd>
9

>  <a_IC>
43.308666

>  <a_ICM>
1.6040246

>  <a_nB>
0

>  <a_nBr>
0

>  <a_nC>
11

>  <a_nCl>
0

>  <a_nF>
0

>  <a_nH>
12

>  <a_nI>
0

>  <a_nN>
2

>  <a_nO>
2

>  <a_nP>
0

>  <a_nS>
0

>  <balabanJ>
1.9888672

>  <BCUT_PEOE_0>
-2.440069

>  <BCUT_PEOE_1>
-0.59922302

>  <BCUT_PEOE_2>
0.62299931

>  <BCUT_PEOE_3>
2.5874619

>  <BCUT_SLOGP_0>
-2.5480576

>  <BCUT_SLOGP_1>
-0.54707974

>  <BCUT_SLOGP_2>
0.72484207

>  <BCUT_SLOGP_3>
2.4981935

>  <BCUT_SMR_0>
-2.1902475

>  <BCUT_SMR_1>
-0.4048495

>  <BCUT_SMR_2>
0.76698947

>  <BCUT_SMR_3>
2.8552177

>  <bpol>
17.674484

>  <b_1rotN>
2

>  <b_1rotR>
0.125

>  <b_ar>
6

>  <b_count>
28

>  <b_double>
2

>  <b_heavy>
16

>  <b_max1len>
3

>  <b_rotN>
2

>  <b_rotR>
0.125

>  <b_single>
20

>  <b_triple>
0

>  <chi0>
10.836499

>  <chi0v>
8.4349184

>  <chi0v_C>
6.6712084

>  <chi0_C>
7.5520415

>  <chi1>
7.236382

>  <chi1v>
4.9055057

>  <chi1v_C>
3.1951406

>  <chi1_C>
4.1902699

>  <chiral>
1

>  <chiral_u>
1

>  <density>
0.74626714

>  <diameter>
8

>  <FCharge>
0

>  <GCUT_PEOE_0>
-0.7969687

>  <GCUT_PEOE_1>
-0.4006483

>  <GCUT_PEOE_2>
0.075032063

>  <GCUT_PEOE_3>
2.3962216

>  <GCUT_SLOGP_0>
-1.1376017

>  <GCUT_SLOGP_1>
-0.28999418

>  <GCUT_SLOGP_2>
0.14754803

>  <GCUT_SLOGP_3>
2.4031518

>  <GCUT_SMR_0>
-0.51144183

>  <GCUT_SMR_1>
-0.22325619

>  <GCUT_SMR_2>
0.17276844

>  <GCUT_SMR_3>
2.6597929

>  <Kier1>
11.484375

>  <Kier2>
4.8884296

>  <Kier3>
2.24

>  <KierA1>
7.8226671

>  <KierA2>
3.2282801

>  <KierA3>
1.441923

>  <KierFlex>
1.683584

>  <lip_acc>
4

>  <lip_don>
1

>  <lip_druglike>
1

>  <lip_violation>
0

>  <logP(o/w)>
1.133

>  <logS>
-2.1296

>  <mr>
5.6833282

>  <mutagenic>
0

>  <nmol>
1

>  <opr_brigid>
11

>  <opr_leadlike>
1

>  <opr_nring>
2

>  <opr_nrot>
2

>  <opr_violation>
0

>  <PC+>
0

>  <PC->
0

>  <PEOE_PC+>
1.4619944

>  <PEOE_PC->
-1.4619944

>  <PEOE_RPC+>
0.22303768

>  <PEOE_RPC->
0.22048542

>  <PEOE_VSA+0>
34.519257

>  <PEOE_VSA+1>
25.592316

>  <PEOE_VSA+2>
3.1459606

>  <PEOE_VSA+3>
8.6190128

>  <PEOE_VSA+4>
0

>  <PEOE_VSA+5>
12.949531

>  <PEOE_VSA+6>
17.440542

>  <PEOE_VSA-0>
20.956217

>  <PEOE_VSA-1>
61.274521

>  <PEOE_VSA-2>
0

>  <PEOE_VSA-3>
0

>  <PEOE_VSA-4>
13.566921

>  <PEOE_VSA-5>
13.566921

>  <PEOE_VSA-6>
0.13689101

>  <PEOE_VSA_FHYD>
0.72771722

>  <PEOE_VSA_FNEG>
0.51708204

>  <PEOE_VSA_FPNEG>
0.1287764

>  <PEOE_VSA_FPOL>
0.27228278

>  <PEOE_VSA_FPOS>
0.48291799

>  <PEOE_VSA_FPPOS>
0.14350639

>  <PEOE_VSA_HYD>
154.10728

>  <PEOE_VSA_NEG>
109.50147

>  <PEOE_VSA_PNEG>
27.270733

>  <PEOE_VSA_POL>
57.660805

>  <PEOE_VSA_POS>
102.26662

>  <PEOE_VSA_PPOS>
30.390074

>  <petitjean>
0.5

>  <petitjeanSC>
1

>  <Q_PC+>
0

>  <Q_PC->
0

>  <Q_RPC+>
0

>  <Q_RPC->
0

>  <Q_VSA_FHYD>
1

>  <Q_VSA_FNEG>
0

>  <Q_VSA_FPNEG>
0

>  <Q_VSA_FPOL>
0

>  <Q_VSA_FPOS>
1

>  <Q_VSA_FPPOS>
0

>  <Q_VSA_HYD>
211.76808

>  <Q_VSA_NEG>
0

>  <Q_VSA_PNEG>
0

>  <Q_VSA_POL>
0

>  <Q_VSA_POS>
211.76808

>  <Q_VSA_PPOS>
0

>  <radius>
4

>  <reactive>
0

>  <rings>
2

>  <RPC+>
0

>  <RPC->
0

>  <rsynth>
1

>  <SlogP>
1.3949

>  <SlogP_VSA0>
18.01075

>  <SlogP_VSA1>
13.213054

>  <SlogP_VSA2>
23.862217

>  <SlogP_VSA3>
18.439579

>  <SlogP_VSA4>
3.185575

>  <SlogP_VSA5>
0

>  <SlogP_VSA6>
0

>  <SlogP_VSA7>
88.215919

>  <SlogP_VSA8>
3.9819686

>  <SlogP_VSA9>
57.188232

>  <SMR>
5.5212698

>  <SMR_VSA0>
47.724434

>  <SMR_VSA1>
3.1243138

>  <SMR_VSA2>
18.01075

>  <SMR_VSA3>
7.1675434

>  <SMR_VSA4>
0

>  <SMR_VSA5>
88.215919

>  <SMR_VSA6>
28.528318

>  <SMR_VSA7>
33.326015

>  <TPSA>
49.41

>  <VAdjEq>
0.59002918

>  <VAdjMa>
5

>  <VDistEq>
2.7151153

>  <VDistMa>
7.5209556

>  <vdw_area>
211.76808

>  <vdw_vol>
273.66742

>  <vsa_acc>
27.133842

>  <vsa_acid>
0

>  <vsa_base>
0

>  <vsa_don>
5.6825762

>  <vsa_hyd>
137.65852

>  <vsa_other>
30.390074

>  <vsa_pol>
32.816418

>  <Weight>
204.22899

>  <weinerPath>
353

>  <weinerPol>
22

>  <zagreb>
76

$$$$