O1CCCC1C(=O)NCCCN(C)c1nc(N)c2cc(OC)c(OC)cc2n1
  MOE2013           2D

 28 30  0  0  1  0  0  0  0  0999 V2000
    0.0000    0.0000    0.0000 O   0  0  0  0  0  0  0  0  0  0  0  0
    1.4910    0.1660    0.0000 C   0  0  0  0  0  0  0  0  0  0  0  0
    1.7930    1.6350    0.0000 C   0  0  0  0  0  0  0  0  0  0  0  0
    0.4890    2.3770    0.0000 C   0  0  0  0  0  0  0  0  0  0  0  0
   -0.6190    1.3660    0.0000 C   0  0  3  0  0  0  0  0  0  0  0  0
   -2.0880    1.6690    0.0000 C   0  0  0  0  0  0  0  0  0  0  0  0
   -2.5610    3.0920    0.0000 O   0  0  0  0  0  0  0  0  0  0  0  0
   -3.0850    0.5480    0.0000 N   0  0  0  0  0  0  0  0  0  0  0  0
   -4.5540    0.8500    0.0000 C   0  0  0  0  0  0  0  0  0  0  0  0
   -5.5500   -0.2710    0.0000 C   0  0  0  0  0  0  0  0  0  0  0  0
   -7.0200    0.0320    0.0000 C   0  0  0  0  0  0  0  0  0  0  0  0
   -8.0160   -1.0890    0.0000 N   0  0  3  0  0  0  0  0  0  0  0  0
   -7.5430   -2.5130    0.0000 C   0  0  0  0  0  0  0  0  0  0  0  0
   -9.4850   -0.7870    0.0000 C   0  0  0  0  0  0  0  0  0  0  0  0
  -10.4820   -1.9080    0.0000 N   0  0  0  0  0  0  0  0  0  0  0  0
  -11.9510   -1.6060    0.0000 C   0  0  0  0  0  0  0  0  0  0  0  0
  -12.9480   -2.7270    0.0000 N   0  0  0  0  0  0  0  0  0  0  0  0
  -12.4240   -0.1820    0.0000 C   0  0  0  0  0  0  0  0  0  0  0  0
  -13.8930    0.1210    0.0000 C   0  0  0  0  0  0  0  0  0  0  0  0
  -14.3650    1.5440    0.0000 C   0  0  0  0  0  0  0  0  0  0  0  0
  -15.8350    1.8470    0.0000 O   0  0  0  0  0  0  0  0  0  0  0  0
  -16.8310    0.7260    0.0000 C   0  0  0  0  0  0  0  0  0  0  0  0
  -13.3690    2.6650    0.0000 C   0  0  0  0  0  0  0  0  0  0  0  0
  -13.8410    4.0890    0.0000 O   0  0  0  0  0  0  0  0  0  0  0  0
  -12.8450    5.2100    0.0000 C   0  0  0  0  0  0  0  0  0  0  0  0
  -11.9000    2.3630    0.0000 C   0  0  0  0  0  0  0  0  0  0  0  0
  -11.4270    0.9390    0.0000 C   0  0  0  0  0  0  0  0  0  0  0  0
   -9.9580    0.6370    0.0000 N   0  0  0  0  0  0  0  0  0  0  0  0
  1  2  1  0  0  0  0
  1  5  1  0  0  0  0
  2  3  1  0  0  0  0
  3  4  1  0  0  0  0
  4  5  1  0  0  0  0
  5  6  1  0  0  0  0
  6  7  2  0  0  0  0
  6  8  1  0  0  0  0
  8  9  1  0  0  0  0
  9 10  1  0  0  0  0
 10 11  1  0  0  0  0
 11 12  1  0  0  0  0
 12 13  1  0  0  0  0
 12 14  1  0  0  0  0
 14 15  1  0  0  0  0
 14 28  2  0  0  0  0
 15 16  2  0  0  0  0
 16 17  1  0  0  0  0
 16 18  1  0  0  0  0
 18 19  1  0  0  0  0
 18 27  2  0  0  0  0
 19 20  2  0  0  0  0
 20 21  1  0  0  0  0
 20 23  1  0  0  0  0
 21 22  1  0  0  0  0
 23 24  1  0  0  0  0
 23 26  2  0  0  0  0
 24 25  1  0  0  0  0
 26 27  1  0  0  0  0
 27 28  1  0  0  0  0
M  END
>  <Index>
41

>  <ID>
HT0097

>  <class>
0

>  <apol>
60.151409

>  <ast_fraglike>
0

>  <ast_fraglike_ext>
0

>  <ast_violation>
2

>  <ast_violation_ext>
3

>  <a_acc>
6

>  <a_acid>
0

>  <a_aro>
10

>  <a_base>
0

>  <a_count>
55

>  <a_don>
2

>  <a_donacc>
8

>  <a_heavy>
28

>  <a_hyd>
16

>  <a_IC>
89.27256

>  <a_ICM>
1.6231375

>  <a_nB>
0

>  <a_nBr>
0

>  <a_nC>
19

>  <a_nCl>
0

>  <a_nF>
0

>  <a_nH>
27

>  <a_nI>
0

>  <a_nN>
5

>  <a_nO>
4

>  <a_nP>
0

>  <a_nS>
0

>  <balabanJ>
1.4146559

>  <BCUT_PEOE_0>
-2.6128495

>  <BCUT_PEOE_1>
-0.53028107

>  <BCUT_PEOE_2>
0.4019188

>  <BCUT_PEOE_3>
2.6842105

>  <BCUT_SLOGP_0>
-2.737709

>  <BCUT_SLOGP_1>
-0.49399382

>  <BCUT_SLOGP_2>
0.46799824

>  <BCUT_SLOGP_3>
2.6731386

>  <BCUT_SMR_0>
-2.3429291

>  <BCUT_SMR_1>
-0.29890853

>  <BCUT_SMR_2>
0.62972438

>  <BCUT_SMR_3>
2.9143856

>  <bpol>
40.84259

>  <b_1rotN>
8

>  <b_1rotR>
0.26666668

>  <b_ar>
11

>  <b_count>
57

>  <b_double>
1

>  <b_heavy>
30

>  <b_max1len>
7

>  <b_rotN>
9

>  <b_rotR>
0.30000001

>  <b_single>
45

>  <b_triple>
0

>  <chi0>
20.095648

>  <chi0v>
16.526676

>  <chi0v_C>
12.474691

>  <chi0_C>
13.275657

>  <chi1>
13.528407

>  <chi1v>
9.3285742

>  <chi1v_C>
4.601624

>  <chi1_C>
5.3745747

>  <chiral>
1

>  <chiral_u>
1

>  <density>
0.74955165

>  <diameter>
16

>  <FCharge>
0

>  <GCUT_PEOE_0>
-0.83940476

>  <GCUT_PEOE_1>
-0.44444868

>  <GCUT_PEOE_2>
-0.0048319972

>  <GCUT_PEOE_3>
2.6416206

>  <GCUT_SLOGP_0>
-1.3348348

>  <GCUT_SLOGP_1>
-0.36769706

>  <GCUT_SLOGP_2>
0.058724187

>  <GCUT_SLOGP_3>
2.6898134

>  <GCUT_SMR_0>
-0.52560598

>  <GCUT_SMR_1>
-0.19770561

>  <GCUT_SMR_2>
0.14438179

>  <GCUT_SMR_3>
2.9065347

>  <Kier1>
22.68

>  <Kier2>
10.857822

>  <Kier3>
5.7956104

>  <KierA1>
17.652208

>  <KierA2>
8.3671551

>  <KierA3>
4.4346213

>  <KierFlex>
5.2749557

>  <lip_acc>
9

>  <lip_don>
3

>  <lip_druglike>
1

>  <lip_violation>
0

>  <logP(o/w)>
0.85273999

>  <logS>
-3.8658299

>  <mr>
10.479886

>  <mutagenic>
1

>  <nmol>
1

>  <opr_brigid>
16

>  <opr_leadlike>
1

>  <opr_nring>
3

>  <opr_nrot>
9

>  <opr_violation>
1

>  <PC+>
0

>  <PC->
0

>  <PEOE_PC+>
2.7258797

>  <PEOE_PC->
-2.7258797

>  <PEOE_RPC+>
0.091660693

>  <PEOE_RPC->
0.13468872

>  <PEOE_VSA+0>
148.98982

>  <PEOE_VSA+1>
53.618797

>  <PEOE_VSA+2>
50.250557

>  <PEOE_VSA+3>
8.6190128

>  <PEOE_VSA+4>
28.631105

>  <PEOE_VSA+5>
0

>  <PEOE_VSA+6>
0

>  <PEOE_VSA-0>
73.85244

>  <PEOE_VSA-1>
0

>  <PEOE_VSA-2>
0

>  <PEOE_VSA-3>
0

>  <PEOE_VSA-4>
11.365152

>  <PEOE_VSA-5>
20.21804

>  <PEOE_VSA-6>
7.6481595

>  <PEOE_VSA_FHYD>
0.83168745

>  <PEOE_VSA_FNEG>
0.28047055

>  <PEOE_VSA_FPNEG>
0.097301647

>  <PEOE_VSA_FPOL>
0.16831255

>  <PEOE_VSA_FPOS>
0.71952945

>  <PEOE_VSA_FPPOS>
0.071010903

>  <PEOE_VSA_HYD>
335.33063

>  <PEOE_VSA_NEG>
113.08379

>  <PEOE_VSA_PNEG>
39.23135

>  <PEOE_VSA_POL>
67.862457

>  <PEOE_VSA_POS>
290.10928

>  <PEOE_VSA_PPOS>
28.631105

>  <petitjean>
0.5

>  <petitjeanSC>
1

>  <Q_PC+>
0

>  <Q_PC->
0

>  <Q_RPC+>
0

>  <Q_RPC->
0

>  <Q_VSA_FHYD>
1

>  <Q_VSA_FNEG>
0

>  <Q_VSA_FPNEG>
0

>  <Q_VSA_FPOL>
0

>  <Q_VSA_FPOS>
1

>  <Q_VSA_FPPOS>
0

>  <Q_VSA_HYD>
403.19308

>  <Q_VSA_NEG>
0

>  <Q_VSA_PNEG>
0

>  <Q_VSA_POL>
0

>  <Q_VSA_POS>
403.19308

>  <Q_VSA_PPOS>
0

>  <radius>
8

>  <reactive>
0

>  <rings>
3

>  <RPC+>
0

>  <RPC->
0

>  <rsynth>
1

>  <SlogP>
1.3507

>  <SlogP_VSA0>
76.032028

>  <SlogP_VSA1>
38.829842

>  <SlogP_VSA2>
41.330753

>  <SlogP_VSA3>
57.805416

>  <SlogP_VSA4>
0

>  <SlogP_VSA5>
103.66492

>  <SlogP_VSA6>
0

>  <SlogP_VSA7>
40.003471

>  <SlogP_VSA8>
56.605217

>  <SlogP_VSA9>
14.713869

>  <SMR>
10.69251

>  <SMR_VSA0>
34.862103

>  <SMR_VSA1>
55.570835

>  <SMR_VSA2>
21.135065

>  <SMR_VSA3>
16.955505

>  <SMR_VSA4>
8.9441147

>  <SMR_VSA5>
124.78877

>  <SMR_VSA6>
63.064198

>  <SMR_VSA7>
103.66492

>  <TPSA>
111.83

>  <VAdjEq>
0.38983503

>  <VAdjMa>
5.9068904

>  <VDistEq>
3.7884555

>  <VDistMa>
9.2822638

>  <vdw_area>
403.19308

>  <vdw_vol>
519.58527

>  <vsa_acc>
32.44334

>  <vsa_acid>
0

>  <vsa_base>
0

>  <vsa_don>
23.425066

>  <vsa_hyd>
281.19992

>  <vsa_other>
39.821667

>  <vsa_pol>
55.868408

>  <Weight>
389.45599

>  <weinerPath>
2380

>  <weinerPol>
43

>  <zagreb>
142

$$$$