OC1(CCC2C3C(C4C(=CC(=O)CC4)CC3)C(CC12CC)=C)C#C
  MOE2013           2D

 24 27  0  0  1  0  0  0  0  0999 V2000
    0.0000    0.0000    0.0000 O   0  0  0  0  0  0  0  0  0  0  0  0
    1.1280   -0.9880    0.0000 C   0  0  3  0  0  0  0  0  0  0  0  0
    1.7330   -2.3610    0.0000 C   0  0  0  0  0  0  0  0  0  0  0  0
    3.2250   -2.2100    0.0000 C   0  0  0  0  0  0  0  0  0  0  0  0
    3.5430   -0.7440    0.0000 C   0  0  3  0  0  0  0  0  0  0  0  0
    4.8450    0.0010    0.0000 C   0  0  3  0  0  0  0  0  0  0  0  0
    4.8510    1.5010    0.0000 C   0  0  3  0  0  0  0  0  0  0  0  0
    6.1530    2.2460    0.0000 C   0  0  3  0  0  0  0  0  0  0  0  0
    7.4490    1.4910    0.0000 C   0  0  0  0  0  0  0  0  0  0  0  0
    8.7510    2.2360    0.0000 C   0  0  0  0  0  0  0  0  0  0  0  0
    8.7560    3.7360    0.0000 C   0  0  0  0  0  0  0  0  0  0  0  0
   10.0580    4.4810    0.0000 O   0  0  0  0  0  0  0  0  0  0  0  0
    7.4600    4.4910    0.0000 C   0  0  0  0  0  0  0  0  0  0  0  0
    6.1580    3.7460    0.0000 C   0  0  0  0  0  0  0  0  0  0  0  0
    7.4430   -0.0090    0.0000 C   0  0  0  0  0  0  0  0  0  0  0  0
    6.1410   -0.7540    0.0000 C   0  0  0  0  0  0  0  0  0  0  0  0
    3.5550    2.2560    0.0000 C   0  0  0  0  0  0  0  0  0  0  0  0
    2.2530    1.5110    0.0000 C   0  0  0  0  0  0  0  0  0  0  0  0
    2.2470    0.0110    0.0000 C   0  0  3  0  0  0  0  0  0  0  0  0
    0.8900    0.6500    0.0000 C   0  0  0  0  0  0  0  0  0  0  0  0
    0.7650    2.1450    0.0000 C   0  0  0  0  0  0  0  0  0  0  0  0
    3.5600    3.7560    0.0000 C   0  0  0  0  0  0  0  0  0  0  0  0
   -0.2740   -1.5210    0.0000 C   0  0  0  0  0  0  0  0  0  0  0  0
   -1.6770   -2.0530    0.0000 C   0  0  0  0  0  0  0  0  0  0  0  0
  1  2  1  0  0  0  0
  2  3  1  0  0  0  0
  2 19  1  0  0  0  0
  2 23  1  0  0  0  0
  3  4  1  0  0  0  0
  4  5  1  0  0  0  0
  5  6  1  0  0  0  0
  5 19  1  0  0  0  0
  6  7  1  0  0  0  0
  6 16  1  0  0  0  0
  7  8  1  0  0  0  0
  7 17  1  0  0  0  0
  8  9  1  0  0  0  0
  8 14  1  0  0  0  0
  9 10  2  0  0  0  0
  9 15  1  0  0  0  0
 10 11  1  0  0  0  0
 11 12  2  0  0  0  0
 11 13  1  0  0  0  0
 13 14  1  0  0  0  0
 15 16  1  0  0  0  0
 17 18  1  0  0  0  0
 17 22  2  0  0  0  0
 18 19  1  0  0  0  0
 19 20  1  0  0  0  0
 20 21  1  0  0  0  0
 23 24  3  0  0  0  0
M  END
>  <Index>
409

>  <ID>
HT0830

>  <class>
0

>  <apol>
58.994205

>  <ast_fraglike>
0

>  <ast_fraglike_ext>
0

>  <ast_violation>
2

>  <ast_violation_ext>
2

>  <a_acc>
2

>  <a_acid>
0

>  <a_aro>
0

>  <a_base>
0

>  <a_count>
52

>  <a_don>
1

>  <a_donacc>
3

>  <a_heavy>
24

>  <a_hyd>
21

>  <a_IC>
61.709431

>  <a_ICM>
1.1867199

>  <a_nB>
0

>  <a_nBr>
0

>  <a_nC>
22

>  <a_nCl>
0

>  <a_nF>
0

>  <a_nH>
28

>  <a_nI>
0

>  <a_nN>
0

>  <a_nO>
2

>  <a_nP>
0

>  <a_nS>
0

>  <balabanJ>
1.6577871

>  <BCUT_PEOE_0>
-2.9025264

>  <BCUT_PEOE_1>
-0.54476672

>  <BCUT_PEOE_2>
0.51252949

>  <BCUT_PEOE_3>
2.9454021

>  <BCUT_SLOGP_0>
-2.8324864

>  <BCUT_SLOGP_1>
-0.4995037

>  <BCUT_SLOGP_2>
0.45929402

>  <BCUT_SLOGP_3>
3.0084217

>  <BCUT_SMR_0>
-2.6461511

>  <BCUT_SMR_1>
-0.33754945

>  <BCUT_SMR_2>
0.64645016

>  <BCUT_SMR_3>
3.1946733

>  <bpol>
31.567797

>  <b_1rotN>
1

>  <b_1rotR>
0.037037037

>  <b_ar>
0

>  <b_count>
55

>  <b_double>
3

>  <b_heavy>
27

>  <b_max1len>
3

>  <b_rotN>
2

>  <b_rotR>
0.074074075

>  <b_single>
51

>  <b_triple>
1

>  <chi0>
17.11252

>  <chi0v>
14.683524

>  <chi0v_C>
13.828063

>  <chi0_C>
15.112519

>  <chi1>
11.454455

>  <chi1v>
9.5665073

>  <chi1v_C>
9.1387758

>  <chi1_C>
10.377106

>  <chiral>
6

>  <chiral_u>
6

>  <density>
0.6733743

>  <diameter>
11

>  <FCharge>
0

>  <GCUT_PEOE_0>
-0.79100424

>  <GCUT_PEOE_1>
-0.38271341

>  <GCUT_PEOE_2>
0.017459435

>  <GCUT_PEOE_3>
3.2597957

>  <GCUT_SLOGP_0>
-0.88832462

>  <GCUT_SLOGP_1>
-0.32998314

>  <GCUT_SLOGP_2>
-0.0092158355

>  <GCUT_SLOGP_3>
3.3410428

>  <GCUT_SMR_0>
-0.5377267

>  <GCUT_SMR_1>
-0.22297211

>  <GCUT_SMR_2>
0.16887271

>  <GCUT_SMR_3>
3.4946043

>  <Kier1>
17.415638

>  <Kier2>
6.0205517

>  <Kier3>
2.3333333

>  <KierA1>
14.742869

>  <KierA2>
5.0575495

>  <KierA3>
1.9492915

>  <KierFlex>
3.1067829

>  <lip_acc>
2

>  <lip_don>
1

>  <lip_druglike>
1

>  <lip_violation>
0

>  <logP(o/w)>
3.0020001

>  <logS>
-5.04707

>  <mr>
9.5073719

>  <mutagenic>
0

>  <nmol>
1

>  <opr_brigid>
22

>  <opr_leadlike>
1

>  <opr_nring>
4

>  <opr_nrot>
2

>  <opr_violation>
0

>  <PC+>
0

>  <PC->
0

>  <PEOE_PC+>
1.4959366

>  <PEOE_PC->
-1.4959366

>  <PEOE_RPC+>
0.14132093

>  <PEOE_RPC->
0.25132614

>  <PEOE_VSA+0>
106.80519

>  <PEOE_VSA+1>
12.796158

>  <PEOE_VSA+2>
4.2653861

>  <PEOE_VSA+3>
8.458519

>  <PEOE_VSA+4>
10.324173

>  <PEOE_VSA+5>
0

>  <PEOE_VSA+6>
0

>  <PEOE_VSA-0>
73.164093

>  <PEOE_VSA-1>
61.274521

>  <PEOE_VSA-2>
25.854858

>  <PEOE_VSA-3>
0

>  <PEOE_VSA-4>
0

>  <PEOE_VSA-5>
13.566921

>  <PEOE_VSA-6>
7.7675405

>  <PEOE_VSA_FHYD>
0.90237176

>  <PEOE_VSA_FNEG>
0.56010056

>  <PEOE_VSA_FPNEG>
0.06579078

>  <PEOE_VSA_FPOL>
0.097628258

>  <PEOE_VSA_FPOS>
0.43989944

>  <PEOE_VSA_FPPOS>
0.031837475

>  <PEOE_VSA_HYD>
292.61874

>  <PEOE_VSA_NEG>
181.62793

>  <PEOE_VSA_PNEG>
21.334461

>  <PEOE_VSA_POL>
31.658634

>  <PEOE_VSA_POS>
142.64943

>  <PEOE_VSA_PPOS>
10.324173

>  <petitjean>
0.45454547

>  <petitjeanSC>
0.83333331

>  <Q_PC+>
0

>  <Q_PC->
0

>  <Q_RPC+>
0

>  <Q_RPC->
0

>  <Q_VSA_FHYD>
1

>  <Q_VSA_FNEG>
0

>  <Q_VSA_FPNEG>
0

>  <Q_VSA_FPOL>
0

>  <Q_VSA_FPOS>
1

>  <Q_VSA_FPPOS>
0

>  <Q_VSA_HYD>
324.27737

>  <Q_VSA_NEG>
0

>  <Q_VSA_PNEG>
0

>  <Q_VSA_POL>
0

>  <Q_VSA_POS>
324.27737

>  <Q_VSA_PPOS>
0

>  <radius>
6

>  <reactive>
1

>  <rings>
4

>  <RPC+>
0

>  <RPC->
0

>  <rsynth>
0

>  <SlogP>
4.048708

>  <SlogP_VSA0>
25.385227

>  <SlogP_VSA1>
5.6876111

>  <SlogP_VSA2>
23.862217

>  <SlogP_VSA3>
17.030573

>  <SlogP_VSA4>
49.131367

>  <SlogP_VSA5>
6.37115

>  <SlogP_VSA6>
0

>  <SlogP_VSA7>
17.643185

>  <SlogP_VSA8>
150.94725

>  <SlogP_VSA9>
65.426811

>  <SMR>
9.5015802

>  <SMR_VSA0>
23.862217

>  <SMR_VSA1>
25.385227

>  <SMR_VSA2>
17.643185

>  <SMR_VSA3>
23.401724

>  <SMR_VSA4>
0

>  <SMR_VSA5>
168.59042

>  <SMR_VSA6>
37.175793

>  <SMR_VSA7>
65.426811

>  <TPSA>
37.299999

>  <VAdjEq>
0.44886449

>  <VAdjMa>
5.7548876

>  <VDistEq>
3.0729535

>  <VDistMa>
8.9034281

>  <vdw_area>
324.27737

>  <vdw_vol>
481.84787

>  <vsa_acc>
13.566921

>  <vsa_acid>
0

>  <vsa_base>
0

>  <vsa_don>
0

>  <vsa_hyd>
259.56152

>  <vsa_other>
8.458519

>  <vsa_pol>
27.133842

>  <Weight>
324.46399

>  <weinerPath>
1150

>  <weinerPol>
52

>  <zagreb>
140

$$$$