Clc1ccc(cc1)C(O)c1ccc(OC(C(O)=O)(C)C)cc1
  MOE2013           2D

 22 23  0  0  1  0  0  0  0  0999 V2000
    0.0000    0.0000    0.0000 Cl  0  0  0  0  0  0  0  0  0  0  0  0
    1.3010    0.7470    0.0000 C   0  0  0  0  0  0  0  0  0  0  0  0
    2.5980   -0.0050    0.0000 C   0  0  0  0  0  0  0  0  0  0  0  0
    3.8990    0.7420    0.0000 C   0  0  0  0  0  0  0  0  0  0  0  0
    3.9020    2.2420    0.0000 C   0  0  0  0  0  0  0  0  0  0  0  0
    2.6040    2.9950    0.0000 C   0  0  0  0  0  0  0  0  0  0  0  0
    1.3030    2.2470    0.0000 C   0  0  0  0  0  0  0  0  0  0  0  0
    5.2020    2.9900    0.0000 C   0  0  3  0  0  0  0  0  0  0  0  0
    5.2050    4.4900    0.0000 O   0  0  0  0  0  0  0  0  0  0  0  0
    6.5000    2.2370    0.0000 C   0  0  0  0  0  0  0  0  0  0  0  0
    6.4970    0.7370    0.0000 C   0  0  0  0  0  0  0  0  0  0  0  0
    7.7940   -0.0150    0.0000 C   0  0  0  0  0  0  0  0  0  0  0  0
    9.0950    0.7320    0.0000 C   0  0  0  0  0  0  0  0  0  0  0  0
   10.3920   -0.0210    0.0000 O   0  0  0  0  0  0  0  0  0  0  0  0
   11.6930    0.7270    0.0000 C   0  0  0  0  0  0  0  0  0  0  0  0
   12.9930    1.4740    0.0000 C   0  0  0  0  0  0  0  0  0  0  0  0
   14.2910    0.7220    0.0000 O   0  0  0  0  0  0  0  0  0  0  0  0
   12.9960    2.9740    0.0000 O   0  0  0  0  0  0  0  0  0  0  0  0
   12.4400   -0.5740    0.0000 C   0  0  0  0  0  0  0  0  0  0  0  0
   10.9450    2.0270    0.0000 C   0  0  0  0  0  0  0  0  0  0  0  0
    9.0980    2.2320    0.0000 C   0  0  0  0  0  0  0  0  0  0  0  0
    7.8000    2.9850    0.0000 C   0  0  0  0  0  0  0  0  0  0  0  0
  1  2  1  0  0  0  0
  2  3  1  0  0  0  0
  2  7  2  0  0  0  0
  3  4  2  0  0  0  0
  4  5  1  0  0  0  0
  5  6  2  0  0  0  0
  5  8  1  0  0  0  0
  6  7  1  0  0  0  0
  8  9  1  0  0  0  0
  8 10  1  0  0  0  0
 10 11  1  0  0  0  0
 10 22  2  0  0  0  0
 11 12  2  0  0  0  0
 12 13  1  0  0  0  0
 13 14  1  0  0  0  0
 13 21  2  0  0  0  0
 14 15  1  0  0  0  0
 15 16  1  0  0  0  0
 15 19  1  0  0  0  0
 15 20  1  0  0  0  0
 16 17  1  0  0  0  0
 16 18  2  0  0  0  0
 21 22  1  0  0  0  0
M  END
>  <Index>
424

>  <ID>
HT0859

>  <class>
0

>  <apol>
46.643482

>  <ast_fraglike>
0

>  <ast_fraglike_ext>
0

>  <ast_violation>
3

>  <ast_violation_ext>
4

>  <a_acc>
4

>  <a_acid>
0

>  <a_aro>
12

>  <a_base>
0

>  <a_count>
39

>  <a_don>
3

>  <a_donacc>
7

>  <a_heavy>
22

>  <a_hyd>
17

>  <a_IC>
59.156948

>  <a_ICM>
1.5168449

>  <a_nB>
0

>  <a_nBr>
0

>  <a_nC>
17

>  <a_nCl>
1

>  <a_nF>
0

>  <a_nH>
17

>  <a_nI>
0

>  <a_nN>
0

>  <a_nO>
4

>  <a_nP>
0

>  <a_nS>
0

>  <balabanJ>
1.7741249

>  <BCUT_PEOE_0>
-2.5075564

>  <BCUT_PEOE_1>
-0.64338851

>  <BCUT_PEOE_2>
0.70185864

>  <BCUT_PEOE_3>
2.5751817

>  <BCUT_SLOGP_0>
-2.6024232

>  <BCUT_SLOGP_1>
-0.54067415

>  <BCUT_SLOGP_2>
0.80591482

>  <BCUT_SLOGP_3>
2.5388567

>  <BCUT_SMR_0>
-2.2912903

>  <BCUT_SMR_1>
-0.49986199

>  <BCUT_SMR_2>
0.85431087

>  <BCUT_SMR_3>
2.783999

>  <bpol>
21.878519

>  <b_1rotN>
5

>  <b_1rotR>
0.2173913

>  <b_ar>
12

>  <b_count>
40

>  <b_double>
1

>  <b_heavy>
23

>  <b_max1len>
4

>  <b_rotN>
5

>  <b_rotR>
0.2173913

>  <b_single>
27

>  <b_triple>
0

>  <chi0>
16.328062

>  <chi0v>
13.04097

>  <chi0v_C>
10.196153

>  <chi0_C>
11.620955

>  <chi1>
10.292531

>  <chi1v>
7.1312094

>  <chi1v_C>
5.4700847

>  <chi1_C>
7.2213283

>  <chiral>
1

>  <chiral_u>
1

>  <density>
0.78078955

>  <diameter>
13

>  <FCharge>
0

>  <GCUT_PEOE_0>
-0.77885783

>  <GCUT_PEOE_1>
-0.4005104

>  <GCUT_PEOE_2>
0.081856623

>  <GCUT_PEOE_3>
2.4924662

>  <GCUT_SLOGP_0>
-0.94324654

>  <GCUT_SLOGP_1>
-0.28853008

>  <GCUT_SLOGP_2>
0.16445385

>  <GCUT_SLOGP_3>
2.611222

>  <GCUT_SMR_0>
-0.51279765

>  <GCUT_SMR_1>
-0.22119763

>  <GCUT_SMR_2>
0.2065358

>  <GCUT_SMR_3>
2.7628777

>  <Kier1>
18.340265

>  <Kier2>
7.7134986

>  <Kier3>
4.9967127

>  <KierA1>
14.950454

>  <KierA2>
6.2225804

>  <KierA3>
4.0005107

>  <KierFlex>
4.2286549

>  <lip_acc>
4

>  <lip_don>
2

>  <lip_druglike>
1

>  <lip_violation>
0

>  <logP(o/w)>
4.2150002

>  <logS>
-4.3587298

>  <mr>
8.5594893

>  <mutagenic>
0

>  <nmol>
1

>  <opr_brigid>
12

>  <opr_leadlike>
1

>  <opr_nring>
2

>  <opr_nrot>
5

>  <opr_violation>
0

>  <PC+>
0

>  <PC->
0

>  <PEOE_PC+>
1.8318304

>  <PEOE_PC->
-1.8318304

>  <PEOE_RPC+>
0.15928656

>  <PEOE_RPC->
0.20882319

>  <PEOE_VSA+0>
30.112062

>  <PEOE_VSA+1>
46.846992

>  <PEOE_VSA+2>
4.9049287

>  <PEOE_VSA+3>
0

>  <PEOE_VSA+4>
20.648346

>  <PEOE_VSA+5>
14.708499

>  <PEOE_VSA+6>
0

>  <PEOE_VSA-0>
90.932053

>  <PEOE_VSA-1>
78.601562

>  <PEOE_VSA-2>
0

>  <PEOE_VSA-3>
0

>  <PEOE_VSA-4>
0

>  <PEOE_VSA-5>
13.566921

>  <PEOE_VSA-6>
18.038837

>  <PEOE_VSA_FHYD>
0.78966403

>  <PEOE_VSA_FNEG>
0.63179809

>  <PEOE_VSA_FPNEG>
0.099276721

>  <PEOE_VSA_FPOL>
0.21033597

>  <PEOE_VSA_FPOS>
0.36820191

>  <PEOE_VSA_FPPOS>
0.11105925

>  <PEOE_VSA_HYD>
251.3976

>  <PEOE_VSA_NEG>
201.13937

>  <PEOE_VSA_PNEG>
31.605757

>  <PEOE_VSA_POL>
66.962601

>  <PEOE_VSA_POS>
117.22083

>  <PEOE_VSA_PPOS>
35.356846

>  <petitjean>
0.46153846

>  <petitjeanSC>
0.85714287

>  <Q_PC+>
0

>  <Q_PC->
0

>  <Q_RPC+>
0

>  <Q_RPC->
0

>  <Q_VSA_FHYD>
1

>  <Q_VSA_FNEG>
0

>  <Q_VSA_FPNEG>
0

>  <Q_VSA_FPOL>
0

>  <Q_VSA_FPOS>
1

>  <Q_VSA_FPPOS>
0

>  <Q_VSA_HYD>
318.3602

>  <Q_VSA_NEG>
0

>  <Q_VSA_PNEG>
0

>  <Q_VSA_POL>
0

>  <Q_VSA_POS>
318.3602

>  <Q_VSA_PPOS>
0

>  <radius>
7

>  <reactive>
0

>  <rings>
2

>  <RPC+>
0

>  <RPC->
0

>  <rsynth>
1

>  <SlogP>
3.7592001

>  <SlogP_VSA0>
36.385113

>  <SlogP_VSA1>
7.7454643

>  <SlogP_VSA2>
23.862217

>  <SlogP_VSA3>
25.385227

>  <SlogP_VSA4>
6.37115

>  <SlogP_VSA5>
0

>  <SlogP_VSA6>
3.5006065

>  <SlogP_VSA7>
141.14548

>  <SlogP_VSA8>
6.4686494

>  <SlogP_VSA9>
111.04411

>  <SMR>
8.4409599

>  <SMR_VSA0>
23.862217

>  <SMR_VSA1>
36.385113

>  <SMR_VSA2>
25.385227

>  <SMR_VSA3>
21.583834

>  <SMR_VSA4>
0

>  <SMR_VSA5>
141.14548

>  <SMR_VSA6>
7.7454643

>  <SMR_VSA7>
105.80067

>  <TPSA>
66.760002

>  <VAdjEq>
0.4530769

>  <VAdjMa>
5.523562

>  <VDistEq>
3.4670858

>  <VDistMa>
8.584425

>  <vdw_area>
318.3602

>  <vdw_vol>
410.83029

>  <vsa_acc>
2.503756

>  <vsa_acid>
0

>  <vsa_base>
0

>  <vsa_don>
0

>  <vsa_hyd>
240.72067

>  <vsa_other>
14.708499

>  <vsa_pol>
43.204517

>  <Weight>
320.772

>  <weinerPath>
1182

>  <weinerPol>
33

>  <zagreb>
112

$$$$