O1C2C(O)(C34OC5OC(=O)C(O)C56C3(C(OC4=O)C(O)C6C(C)(C)C)C2O)C(C)C1=O
  MOE2013           2D

 31 36  0  0  1  0  0  0  0  0999 V2000
    0.0550    0.0560    0.0000 O   0  0  0  0  0  0  0  0  0  0  0  0
   -1.4020    0.4210    0.0000 C   0  0  3  0  0  0  0  0  0  0  0  0
   -1.3350    1.9430    0.0000 C   0  0  3  0  0  0  0  0  0  0  0  0
   -1.4030    3.4590    0.0000 O   0  0  0  0  0  0  0  0  0  0  0  0
   -2.7450    2.2790    0.0000 C   0  0  3  0  0  0  0  0  0  0  0  0
   -3.4960    3.6170    0.0000 O   0  0  0  0  0  0  0  0  0  0  0  0
   -4.9610    3.3380    0.0000 C   0  0  3  0  0  0  0  0  0  0  0  0
   -6.3160    3.9850    0.0000 O   0  0  0  0  0  0  0  0  0  0  0  0
   -7.3500    2.8750    0.0000 C   0  0  0  0  0  0  0  0  0  0  0  0
   -8.8450    3.1430    0.0000 O   0  0  0  0  0  0  0  0  0  0  0  0
   -6.6400    1.5930    0.0000 C   0  0  3  0  0  0  0  0  0  0  0  0
   -6.7540    0.0210    0.0000 O   0  0  0  0  0  0  0  0  0  0  0  0
   -5.1800    1.8170    0.0000 C   0  0  3  0  0  0  0  0  0  0  0  0
   -3.7930    1.2780    0.0000 C   0  0  3  0  0  0  0  0  0  0  0  0
   -3.7020   -0.0870    0.0000 C   0  0  3  0  0  0  0  0  0  0  0  0
   -2.1670   -0.2330    0.0000 O   0  0  0  0  0  0  0  0  0  0  0  0
   -1.5930    1.1870    0.0000 C   0  0  0  0  0  0  0  0  0  0  0  0
   -0.1360    1.3810    0.0000 O   0  0  0  0  0  0  0  0  0  0  0  0
   -5.1670   -0.6270    0.0000 C   0  0  3  0  0  0  0  0  0  0  0  0
   -5.5560   -2.0690    0.0000 O   0  0  0  0  0  0  0  0  0  0  0  0
   -6.0890    0.5910    0.0000 C   0  0  3  0  0  0  0  0  0  0  0  0
   -7.6050    0.2230    0.0000 C   0  0  0  0  0  0  0  0  0  0  0  0
   -7.1690   -1.2900    0.0000 C   0  0  0  0  0  0  0  0  0  0  0  0
   -8.0490    1.5810    0.0000 C   0  0  0  0  0  0  0  0  0  0  0  0
   -9.0130   -0.2860    0.0000 C   0  0  0  0  0  0  0  0  0  0  0  0
   -2.8760    0.0190    0.0000 C   0  0  3  0  0  0  0  0  0  0  0  0
   -3.2930   -1.4550    0.0000 O   0  0  0  0  0  0  0  0  0  0  0  0
    0.0970    2.4390    0.0000 C   0  0  3  0  0  0  0  0  0  0  0  0
    0.5660    3.8580    0.0000 C   0  0  0  0  0  0  0  0  0  0  0  0
    1.0140    1.2220    0.0000 C   0  0  0  0  0  0  0  0  0  0  0  0
    2.5030    1.2010    0.0000 O   0  0  0  0  0  0  0  0  0  0  0  0
  1  2  1  0  0  0  0
  1 30  1  0  0  0  0
  2  3  1  0  0  0  0
  2 26  1  0  0  0  0
  3  4  1  0  0  0  0
  3  5  1  0  0  0  0
  3 28  1  0  0  0  0
  5  6  1  0  0  0  0
  5 14  1  0  0  0  0
  5 17  1  0  0  0  0
  6  7  1  0  0  0  0
  7  8  1  0  0  0  0
  7 13  1  0  0  0  0
  8  9  1  0  0  0  0
  9 10  2  0  0  0  0
  9 11  1  0  0  0  0
 11 12  1  0  0  0  0
 11 13  1  0  0  0  0
 13 14  1  0  0  0  0
 13 21  1  0  0  0  0
 14 15  1  0  0  0  0
 14 26  1  0  0  0  0
 15 16  1  0  0  0  0
 15 19  1  0  0  0  0
 16 17  1  0  0  0  0
 17 18  2  0  0  0  0
 19 20  1  0  0  0  0
 19 21  1  0  0  0  0
 21 22  1  0  0  0  0
 22 23  1  0  0  0  0
 22 24  1  0  0  0  0
 22 25  1  0  0  0  0
 26 27  1  0  0  0  0
 28 29  1  0  0  0  0
 28 30  1  0  0  0  0
 30 31  2  0  0  0  0
M  END
>  <Index>
487

>  <ID>
HT0977

>  <class>
0

>  <apol>
60.025032

>  <ast_fraglike>
0

>  <ast_fraglike_ext>
0

>  <ast_violation>
3

>  <ast_violation_ext>
4

>  <a_acc>
8

>  <a_acid>
0

>  <a_aro>
0

>  <a_base>
0

>  <a_count>
55

>  <a_don>
4

>  <a_donacc>
12

>  <a_heavy>
31

>  <a_hyd>
16

>  <a_IC>
83.443375

>  <a_ICM>
1.5171523

>  <a_nB>
0

>  <a_nBr>
0

>  <a_nC>
20

>  <a_nCl>
0

>  <a_nF>
0

>  <a_nH>
24

>  <a_nI>
0

>  <a_nN>
0

>  <a_nO>
11

>  <a_nP>
0

>  <a_nS>
0

>  <balabanJ>
1.71565

>  <BCUT_PEOE_0>
-2.7656834

>  <BCUT_PEOE_1>
-0.50348961

>  <BCUT_PEOE_2>
0.62585092

>  <BCUT_PEOE_3>
3.1505783

>  <BCUT_SLOGP_0>
-2.8014638

>  <BCUT_SLOGP_1>
-0.56849527

>  <BCUT_SLOGP_2>
0.49474356

>  <BCUT_SLOGP_3>
2.9859612

>  <BCUT_SMR_0>
-2.542778

>  <BCUT_SMR_1>
-0.38036704

>  <BCUT_SMR_2>
0.74519712

>  <BCUT_SMR_3>
3.3264525

>  <bpol>
36.774967

>  <b_1rotN>
0

>  <b_1rotR>
0

>  <b_ar>
0

>  <b_count>
60

>  <b_double>
3

>  <b_heavy>
36

>  <b_max1len>
4

>  <b_rotN>
1

>  <b_rotR>
0.027777778

>  <b_single>
57

>  <b_triple>
0

>  <chi0>
22.679279

>  <chi0v>
17.265394

>  <chi0v_C>
12.618802

>  <chi0_C>
12.850853

>  <chi1>
14.267487

>  <chi1v>
10.333983

>  <chi1v_C>
6.9641018

>  <chi1_C>
7.092093

>  <chiral>
12

>  <chiral_u>
12

>  <density>
0.88190609

>  <diameter>
9

>  <FCharge>
0

>  <GCUT_PEOE_0>
-0.79936022

>  <GCUT_PEOE_1>
-0.43483984

>  <GCUT_PEOE_2>
0.080536671

>  <GCUT_PEOE_3>
3.4938433

>  <GCUT_SLOGP_0>
-0.96452338

>  <GCUT_SLOGP_1>
-0.46313268

>  <GCUT_SLOGP_2>
-0.0090354877

>  <GCUT_SLOGP_3>
3.3832803

>  <GCUT_SMR_0>
-0.54173243

>  <GCUT_SMR_1>
-0.24312261

>  <GCUT_SMR_2>
0.17122442

>  <GCUT_SMR_3>
3.6802621

>  <Kier1>
21.527779

>  <Kier2>
5.6204052

>  <Kier3>
1.6891698

>  <KierA1>
19.667423

>  <KierA2>
5.1186571

>  <KierA3>
1.5348557

>  <KierFlex>
3.2474449

>  <lip_acc>
11

>  <lip_don>
4

>  <lip_druglike>
1

>  <lip_violation>
1

>  <logP(o/w)>
-1.393

>  <logS>
-2.8559699

>  <mr>
9.5274668

>  <mutagenic>
0

>  <nmol>
1

>  <opr_brigid>
24

>  <opr_leadlike>
0

>  <opr_nring>
6

>  <opr_nrot>
1

>  <opr_violation>
2

>  <PC+>
0

>  <PC->
0

>  <PEOE_PC+>
3.8135331

>  <PEOE_PC->
-3.8135331

>  <PEOE_RPC+>
0.078301586

>  <PEOE_RPC->
0.10197236

>  <PEOE_VSA+0>
59.715405

>  <PEOE_VSA+1>
35.402172

>  <PEOE_VSA+2>
9.8098574

>  <PEOE_VSA+3>
16.059837

>  <PEOE_VSA+4>
41.296692

>  <PEOE_VSA+5>
44.125496

>  <PEOE_VSA+6>
0

>  <PEOE_VSA-0>
0

>  <PEOE_VSA-1>
74.990707

>  <PEOE_VSA-2>
0

>  <PEOE_VSA-3>
0

>  <PEOE_VSA-4>
0

>  <PEOE_VSA-5>
43.204517

>  <PEOE_VSA-6>
38.581429

>  <PEOE_VSA_FHYD>
0.53960758

>  <PEOE_VSA_FNEG>
0.43167028

>  <PEOE_VSA_FPNEG>
0.22519018

>  <PEOE_VSA_FPOL>
0.46039242

>  <PEOE_VSA_FPOS>
0.56832969

>  <PEOE_VSA_FPPOS>
0.23520224

>  <PEOE_VSA_HYD>
195.97798

>  <PEOE_VSA_NEG>
156.77666

>  <PEOE_VSA_PNEG>
81.78595

>  <PEOE_VSA_POL>
167.20813

>  <PEOE_VSA_POS>
206.40945

>  <PEOE_VSA_PPOS>
85.422188

>  <petitjean>
0.44444445

>  <petitjeanSC>
0.80000001

>  <Q_PC+>
0

>  <Q_PC->
0

>  <Q_RPC+>
0

>  <Q_RPC->
0

>  <Q_VSA_FHYD>
1

>  <Q_VSA_FNEG>
0

>  <Q_VSA_FPNEG>
0

>  <Q_VSA_FPOL>
0

>  <Q_VSA_FPOS>
1

>  <Q_VSA_FPPOS>
0

>  <Q_VSA_HYD>
363.18613

>  <Q_VSA_NEG>
0

>  <Q_VSA_PNEG>
0

>  <Q_VSA_POL>
0

>  <Q_VSA_POS>
363.18613

>  <Q_VSA_PPOS>
0

>  <radius>
5

>  <reactive>
1

>  <rings>
6

>  <RPC+>
0

>  <RPC->
0

>  <rsynth>
0.19354838

>  <SlogP>
-2.3987

>  <SlogP_VSA0>
101.54091

>  <SlogP_VSA1>
23.236393

>  <SlogP_VSA2>
156.45595

>  <SlogP_VSA3>
0

>  <SlogP_VSA4>
8.8215923

>  <SlogP_VSA5>
0

>  <SlogP_VSA6>
0

>  <SlogP_VSA7>
0

>  <SlogP_VSA8>
0

>  <SlogP_VSA9>
133.30406

>  <SMR>
9.3401203

>  <SMR_VSA0>
115.5862

>  <SMR_VSA1>
101.54091

>  <SMR_VSA2>
8.8215923

>  <SMR_VSA3>
40.869747

>  <SMR_VSA4>
0

>  <SMR_VSA5>
0

>  <SMR_VSA6>
23.236393

>  <SMR_VSA7>
133.30406

>  <TPSA>
169.05

>  <VAdjEq>
0.38402861

>  <VAdjMa>
6.1699252

>  <VDistEq>
2.8440878

>  <VDistMa>
9.7095232

>  <vdw_area>
363.18613

>  <vdw_vol>
499.37402

>  <vsa_acc>
43.204517

>  <vsa_acid>
0

>  <vsa_base>
0

>  <vsa_don>
0

>  <vsa_hyd>
164.34348

>  <vsa_other>
66.345268

>  <vsa_pol>
97.472198

>  <Weight>
440.401

>  <weinerPath>
1866

>  <weinerPol>
88

>  <zagreb>
206

$$$$