Fc1ccc(cc1)C1=NC(=O)N(c2c1ccc(c2)C)C(C)C
  MOE2013           2D

 22 24  0  0  0  0  0  0  0  0999 V2000
    0.0000    0.0000    0.0000 F   0  0  0  0  0  0  0  0  0  0  0  0
   -1.5000    0.0060    0.0000 C   0  0  0  0  0  0  0  0  0  0  0  0
   -2.2450    1.3080    0.0000 C   0  0  0  0  0  0  0  0  0  0  0  0
   -3.7450    1.3140    0.0000 C   0  0  0  0  0  0  0  0  0  0  0  0
   -4.5000    0.0180    0.0000 C   0  0  0  0  0  0  0  0  0  0  0  0
   -3.7550   -1.2840    0.0000 C   0  0  0  0  0  0  0  0  0  0  0  0
   -2.2550   -1.2900    0.0000 C   0  0  0  0  0  0  0  0  0  0  0  0
   -6.0000    0.0240    0.0000 C   0  0  0  0  0  0  0  0  0  0  0  0
   -6.7550   -1.2720    0.0000 N   0  0  0  0  0  0  0  0  0  0  0  0
   -8.2550   -1.2660    0.0000 C   0  0  0  0  0  0  0  0  0  0  0  0
   -9.0100   -2.5620    0.0000 O   0  0  0  0  0  0  0  0  0  0  0  0
   -9.0000    0.0360    0.0000 N   0  0  0  0  0  0  0  0  0  0  0  0
   -8.2450    1.3320    0.0000 C   0  0  0  0  0  0  0  0  0  0  0  0
   -6.7450    1.3260    0.0000 C   0  0  0  0  0  0  0  0  0  0  0  0
   -5.9900    2.6220    0.0000 C   0  0  0  0  0  0  0  0  0  0  0  0
   -6.7340    3.9240    0.0000 C   0  0  0  0  0  0  0  0  0  0  0  0
   -8.2340    3.9300    0.0000 C   0  0  0  0  0  0  0  0  0  0  0  0
   -8.9900    2.6340    0.0000 C   0  0  0  0  0  0  0  0  0  0  0  0
   -8.9790    5.2320    0.0000 C   0  0  0  0  0  0  0  0  0  0  0  0
  -10.5000    0.0420    0.0000 C   0  0  0  0  0  0  0  0  0  0  0  0
  -11.2450    1.3440    0.0000 C   0  0  0  0  0  0  0  0  0  0  0  0
  -11.2550   -1.2540    0.0000 C   0  0  0  0  0  0  0  0  0  0  0  0
  1  2  1  0  0  0  0
  2  3  1  0  0  0  0
  2  7  2  0  0  0  0
  3  4  2  0  0  0  0
  4  5  1  0  0  0  0
  5  6  2  0  0  0  0
  5  8  1  0  0  0  0
  6  7  1  0  0  0  0
  8  9  2  0  0  0  0
  8 14  1  0  0  0  0
  9 10  1  0  0  0  0
 10 11  2  0  0  0  0
 10 12  1  0  0  0  0
 12 13  1  0  0  0  0
 12 20  1  0  0  0  0
 13 14  1  0  0  0  0
 13 18  2  0  0  0  0
 14 15  2  0  0  0  0
 15 16  1  0  0  0  0
 16 17  2  0  0  0  0
 17 18  1  0  0  0  0
 17 19  1  0  0  0  0
 20 21  1  0  0  0  0
 20 22  1  0  0  0  0
M  END
>  <Index>
451

>  <ID>
HT0917

>  <class>
0

>  <apol>
46.574482

>  <ast_fraglike>
0

>  <ast_fraglike_ext>
0

>  <ast_violation>
1

>  <ast_violation_ext>
1

>  <a_acc>
2

>  <a_acid>
0

>  <a_aro>
12

>  <a_base>
0

>  <a_count>
39

>  <a_don>
0

>  <a_donacc>
2

>  <a_heavy>
22

>  <a_hyd>
17

>  <a_IC>
59.585167

>  <a_ICM>
1.5278249

>  <a_nB>
0

>  <a_nBr>
0

>  <a_nC>
18

>  <a_nCl>
0

>  <a_nF>
1

>  <a_nH>
17

>  <a_nI>
0

>  <a_nN>
2

>  <a_nO>
1

>  <a_nP>
0

>  <a_nS>
0

>  <balabanJ>
1.7825916

>  <BCUT_PEOE_0>
-2.5823452

>  <BCUT_PEOE_1>
-0.58824277

>  <BCUT_PEOE_2>
0.60117024

>  <BCUT_PEOE_3>
2.5373178

>  <BCUT_SLOGP_0>
-2.6232722

>  <BCUT_SLOGP_1>
-0.44810757

>  <BCUT_SLOGP_2>
0.75627398

>  <BCUT_SLOGP_3>
2.5551355

>  <BCUT_SMR_0>
-2.3039658

>  <BCUT_SMR_1>
-0.4166733

>  <BCUT_SMR_2>
0.77418965

>  <BCUT_SMR_3>
2.8275049

>  <bpol>
24.045519

>  <b_1rotN>
2

>  <b_1rotR>
0.083333336

>  <b_ar>
12

>  <b_count>
41

>  <b_double>
2

>  <b_heavy>
24

>  <b_max1len>
4

>  <b_rotN>
2

>  <b_rotR>
0.083333336

>  <b_single>
27

>  <b_triple>
0

>  <chi0>
15.853006

>  <chi0v>
12.799442

>  <chi0v_C>
11.118802

>  <chi0_C>
12.568549

>  <chi1>
10.469234

>  <chi1v>
7.2598343

>  <chi1v_C>
5.7141018

>  <chi1_C>
7.4980373

>  <chiral>
0

>  <chiral_u>
0

>  <density>
0.72598225

>  <diameter>
10

>  <FCharge>
0

>  <GCUT_PEOE_0>
-0.81364137

>  <GCUT_PEOE_1>
-0.39440385

>  <GCUT_PEOE_2>
0.028644128

>  <GCUT_PEOE_3>
2.6051109

>  <GCUT_SLOGP_0>
-0.98882717

>  <GCUT_SLOGP_1>
-0.27578712

>  <GCUT_SLOGP_2>
0.18179788

>  <GCUT_SLOGP_3>
2.6948504

>  <GCUT_SMR_0>
-0.51575488

>  <GCUT_SMR_1>
-0.18814778

>  <GCUT_SMR_2>
0.16925348

>  <GCUT_SMR_3>
2.9072213

>  <Kier1>
16.84375

>  <Kier2>
6.8571429

>  <Kier3>
3.4404707

>  <KierA1>
11.793122

>  <KierA2>
4.7120996

>  <KierA3>
2.332284

>  <KierFlex>
2.5259259

>  <lip_acc>
3

>  <lip_don>
0

>  <lip_druglike>
1

>  <lip_violation>
0

>  <logP(o/w)>
4.5190001

>  <logS>
-5.27668

>  <mr>
8.5151138

>  <mutagenic>
0

>  <nmol>
1

>  <opr_brigid>
17

>  <opr_leadlike>
1

>  <opr_nring>
3

>  <opr_nrot>
2

>  <opr_violation>
0

>  <PC+>
0

>  <PC->
0

>  <PEOE_PC+>
1.4026438

>  <PEOE_PC->
-1.4026438

>  <PEOE_RPC+>
0.24928197

>  <PEOE_RPC->
0.20637456

>  <PEOE_VSA+0>
45.951515

>  <PEOE_VSA+1>
47.52219

>  <PEOE_VSA+2>
9.0208454

>  <PEOE_VSA+3>
0

>  <PEOE_VSA+4>
0

>  <PEOE_VSA+5>
0

>  <PEOE_VSA+6>
17.440542

>  <PEOE_VSA-0>
119.72609

>  <PEOE_VSA-1>
24.509808

>  <PEOE_VSA-2>
0

>  <PEOE_VSA-3>
5.6825762

>  <PEOE_VSA-4>
25.475557

>  <PEOE_VSA-5>
0

>  <PEOE_VSA-6>
0

>  <PEOE_VSA_FHYD>
0.85468382

>  <PEOE_VSA_FNEG>
0.59389347

>  <PEOE_VSA_FPNEG>
0.086261578

>  <PEOE_VSA_FPOL>
0.14531617

>  <PEOE_VSA_FPOS>
0.40610656

>  <PEOE_VSA_FPPOS>
0.059054598

>  <PEOE_VSA_HYD>
252.41302

>  <PEOE_VSA_NEG>
175.39403

>  <PEOE_VSA_PNEG>
25.475557

>  <PEOE_VSA_POL>
42.9161

>  <PEOE_VSA_POS>
119.93509

>  <PEOE_VSA_PPOS>
17.440542

>  <petitjean>
0.5

>  <petitjeanSC>
1

>  <Q_PC+>
0

>  <Q_PC->
0

>  <Q_RPC+>
0

>  <Q_RPC->
0

>  <Q_VSA_FHYD>
1

>  <Q_VSA_FNEG>
0

>  <Q_VSA_FPNEG>
0

>  <Q_VSA_FPOL>
0

>  <Q_VSA_FPOS>
1

>  <Q_VSA_FPPOS>
0

>  <Q_VSA_HYD>
295.32913

>  <Q_VSA_NEG>
0

>  <Q_VSA_PNEG>
0

>  <Q_VSA_POL>
0

>  <Q_VSA_POS>
295.32913

>  <Q_VSA_PPOS>
0

>  <radius>
5

>  <reactive>
0

>  <rings>
3

>  <RPC+>
0

>  <RPC->
0

>  <rsynth>
1

>  <SlogP>
4.3199201

>  <SlogP_VSA0>
3.1243138

>  <SlogP_VSA1>
7.5867038

>  <SlogP_VSA2>
13.102986

>  <SlogP_VSA3>
0

>  <SlogP_VSA4>
9.5567245

>  <SlogP_VSA5>
16.78553

>  <SlogP_VSA6>
0

>  <SlogP_VSA7>
123.50229

>  <SlogP_VSA8>
0

>  <SlogP_VSA9>
141.55713

>  <SMR>
8.6229

>  <SMR_VSA0>
23.862217

>  <SMR_VSA1>
31.745644

>  <SMR_VSA2>
12.245332

>  <SMR_VSA3>
13.538693

>  <SMR_VSA4>
2.7567475

>  <SMR_VSA5>
123.50229

>  <SMR_VSA6>
7.5867038

>  <SMR_VSA7>
99.978043

>  <TPSA>
32.669998

>  <VAdjEq>
0.46637034

>  <VAdjMa>
5.5849624

>  <VDistEq>
3.0662384

>  <VDistMa>
8.6519413

>  <vdw_area>
295.32913

>  <vdw_vol>
408.19867

>  <vsa_acc>
19.249496

>  <vsa_acid>
0

>  <vsa_base>
0

>  <vsa_don>
0

>  <vsa_hyd>
239.83902

>  <vsa_other>
24.140093

>  <vsa_pol>
19.249496

>  <Weight>
296.345

>  <weinerPath>
973

>  <weinerPol>
38

>  <zagreb>
118

$$$$