O[C@H]1Cc2c(cccc2)C1NC(=O)[C@H](Cc1ccccc1)C[C@H](O)CN1CCN(CC1C(=O)NC(C)(C)C)Cc1cccnc1
  MOE2013           2D

 45 49  0  0  1  0  0  0  0  0999 V2000
    0.0000    0.0000    0.0000 O   0  0  0  0  0  0  0  0  0  0  0  0
   -0.3490    1.4590    0.0000 C   0  0  1  0  0  0  0  0  0  0  0  0
   -1.7350    2.0340    0.0000 C   0  0  0  0  0  0  0  0  0  0  0  0
   -1.6160    3.5290    0.0000 C   0  0  0  0  0  0  0  0  0  0  0  0
   -0.1570    3.8780    0.0000 C   0  0  0  0  0  0  0  0  0  0  0  0
    0.2700    5.3160    0.0000 C   0  0  0  0  0  0  0  0  0  0  0  0
   -0.7620    6.4050    0.0000 C   0  0  0  0  0  0  0  0  0  0  0  0
   -2.2210    6.0560    0.0000 C   0  0  0  0  0  0  0  0  0  0  0  0
   -2.6480    4.6180    0.0000 C   0  0  0  0  0  0  0  0  0  0  0  0
    0.6260    2.5990    0.0000 C   0  0  3  0  0  0  0  0  0  0  0  0
    2.1210    2.4800    0.0000 N   0  0  0  0  0  0  0  0  0  0  0  0
    2.7660    1.1260    0.0000 C   0  0  0  0  0  0  0  0  0  0  0  0
    1.9150   -0.1100    0.0000 O   0  0  0  0  0  0  0  0  0  0  0  0
    4.2610    1.0070    0.0000 C   0  0  2  0  0  0  0  0  0  0  0  0
    4.9060   -0.3470    0.0000 C   0  0  0  0  0  0  0  0  0  0  0  0
    4.0560   -1.5830    0.0000 C   0  0  0  0  0  0  0  0  0  0  0  0
    4.7000   -2.9370    0.0000 C   0  0  0  0  0  0  0  0  0  0  0  0
    3.8500   -4.1730    0.0000 C   0  0  0  0  0  0  0  0  0  0  0  0
    2.3550   -4.0540    0.0000 C   0  0  0  0  0  0  0  0  0  0  0  0
    1.7100   -2.7000    0.0000 C   0  0  0  0  0  0  0  0  0  0  0  0
    2.5600   -1.4640    0.0000 C   0  0  0  0  0  0  0  0  0  0  0  0
    5.1120    2.2430    0.0000 C   0  0  0  0  0  0  0  0  0  0  0  0
    6.6070    2.1240    0.0000 C   0  0  2  0  0  0  0  0  0  0  0  0
    7.2520    0.7700    0.0000 O   0  0  0  0  0  0  0  0  0  0  0  0
    7.4570    3.3600    0.0000 C   0  0  0  0  0  0  0  0  0  0  0  0
    8.9530    3.2410    0.0000 N   0  0  3  0  0  0  0  0  0  0  0  0
    9.5980    1.8870    0.0000 C   0  0  0  0  0  0  0  0  0  0  0  0
   11.0930    1.7680    0.0000 C   0  0  0  0  0  0  0  0  0  0  0  0
   11.9430    3.0030    0.0000 N   0  0  3  0  0  0  0  0  0  0  0  0
   11.2980    4.3580    0.0000 C   0  0  0  0  0  0  0  0  0  0  0  0
    9.8030    4.4760    0.0000 C   0  0  3  0  0  0  0  0  0  0  0  0
    9.1580    5.8310    0.0000 C   0  0  0  0  0  0  0  0  0  0  0  0
    7.6630    5.9490    0.0000 O   0  0  0  0  0  0  0  0  0  0  0  0
   10.0090    7.0660    0.0000 N   0  0  0  0  0  0  0  0  0  0  0  0
    9.3640    8.4210    0.0000 C   0  0  0  0  0  0  0  0  0  0  0  0
   10.7180    9.0660    0.0000 C   0  0  0  0  0  0  0  0  0  0  0  0
    8.7190    9.7750    0.0000 C   0  0  0  0  0  0  0  0  0  0  0  0
    8.0100    7.7760    0.0000 C   0  0  0  0  0  0  0  0  0  0  0  0
   13.4390    2.8850    0.0000 C   0  0  0  0  0  0  0  0  0  0  0  0
   14.0830    1.5300    0.0000 C   0  0  0  0  0  0  0  0  0  0  0  0
   15.5790    1.4120    0.0000 C   0  0  0  0  0  0  0  0  0  0  0  0
   16.2240    0.0570    0.0000 C   0  0  0  0  0  0  0  0  0  0  0  0
   15.3730   -1.1780    0.0000 C   0  0  0  0  0  0  0  0  0  0  0  0
   13.8780   -1.0600    0.0000 N   0  0  0  0  0  0  0  0  0  0  0  0
   13.2330    0.2950    0.0000 C   0  0  0  0  0  0  0  0  0  0  0  0
  2  1  1  1  0  0  0
  2  3  1  0  0  0  0
  2 10  1  0  0  0  0
  3  4  1  0  0  0  0
  4  5  2  0  0  0  0
  4  9  1  0  0  0  0
  5  6  1  0  0  0  0
  5 10  1  0  0  0  0
  6  7  2  0  0  0  0
  7  8  1  0  0  0  0
  8  9  2  0  0  0  0
 10 11  1  0  0  0  0
 11 12  1  0  0  0  0
 12 13  2  0  0  0  0
 14 12  1  1  0  0  0
 14 15  1  0  0  0  0
 14 22  1  0  0  0  0
 15 16  1  0  0  0  0
 16 17  1  0  0  0  0
 16 21  2  0  0  0  0
 17 18  2  0  0  0  0
 18 19  1  0  0  0  0
 19 20  2  0  0  0  0
 20 21  1  0  0  0  0
 22 23  1  0  0  0  0
 23 24  1  1  0  0  0
 23 25  1  0  0  0  0
 25 26  1  0  0  0  0
 26 27  1  0  0  0  0
 26 31  1  0  0  0  0
 27 28  1  0  0  0  0
 28 29  1  0  0  0  0
 29 30  1  0  0  0  0
 29 39  1  0  0  0  0
 30 31  1  0  0  0  0
 31 32  1  0  0  0  0
 32 33  2  0  0  0  0
 32 34  1  0  0  0  0
 34 35  1  0  0  0  0
 35 36  1  0  0  0  0
 35 37  1  0  0  0  0
 35 38  1  0  0  0  0
 39 40  1  0  0  0  0
 40 41  1  0  0  0  0
 40 45  2  0  0  0  0
 41 42  2  0  0  0  0
 42 43  1  0  0  0  0
 43 44  2  0  0  0  0
 44 45  1  0  0  0  0
M  END
>  <Index>
556

>  <ID>
HT1093

>  <class>
0

>  <apol>
103.40727

>  <ast_fraglike>
0

>  <ast_fraglike_ext>
0

>  <ast_violation>
4

>  <ast_violation_ext>
6

>  <a_acc>
7

>  <a_acid>
0

>  <a_aro>
18

>  <a_base>
0

>  <a_count>
92

>  <a_don>
4

>  <a_donacc>
11

>  <a_heavy>
45

>  <a_hyd>
34

>  <a_IC>
133.37508

>  <a_ICM>
1.4497292

>  <a_nB>
0

>  <a_nBr>
0

>  <a_nC>
36

>  <a_nCl>
0

>  <a_nF>
0

>  <a_nH>
47

>  <a_nI>
0

>  <a_nN>
5

>  <a_nO>
4

>  <a_nP>
0

>  <a_nS>
0

>  <balabanJ>
1.2249173

>  <BCUT_PEOE_0>
-2.7976294

>  <BCUT_PEOE_1>
-0.53054804

>  <BCUT_PEOE_2>
0.59534371

>  <BCUT_PEOE_3>
2.7490835

>  <BCUT_SLOGP_0>
-2.9410267

>  <BCUT_SLOGP_1>
-0.49158138

>  <BCUT_SLOGP_2>
0.62205869

>  <BCUT_SLOGP_3>
2.6729517

>  <BCUT_SMR_0>
-2.5276997

>  <BCUT_SMR_1>
-0.39769787

>  <BCUT_SMR_2>
0.71120787

>  <BCUT_SMR_3>
3.0067842

>  <bpol>
59.896729

>  <b_1rotN>
11

>  <b_1rotR>
0.22448979

>  <b_ar>
18

>  <b_count>
96

>  <b_double>
2

>  <b_heavy>
49

>  <b_max1len>
6

>  <b_rotN>
14

>  <b_rotR>
0.2857143

>  <b_single>
76

>  <b_triple>
0

>  <chi0>
31.976116

>  <chi0v>
26.601723

>  <chi0v_C>
22.54916

>  <chi0_C>
24.700096

>  <chi1>
21.552666

>  <chi1v>
16.010616

>  <chi1v_C>
11.69156

>  <chi1_C>
14.290391

>  <chiral>
5

>  <chiral_u>
2

>  <density>
0.70238298

>  <diameter>
19

>  <FCharge>
0

>  <GCUT_PEOE_0>
-0.84934473

>  <GCUT_PEOE_1>
-0.35007864

>  <GCUT_PEOE_2>
0.072657369

>  <GCUT_PEOE_3>
3.1351497

>  <GCUT_SLOGP_0>
-1.162928

>  <GCUT_SLOGP_1>
-0.29775578

>  <GCUT_SLOGP_2>
0.1020412

>  <GCUT_SLOGP_3>
3.1128488

>  <GCUT_SMR_0>
-0.52946585

>  <GCUT_SMR_1>
-0.20915863

>  <GCUT_SMR_2>
0.16059606

>  <GCUT_SMR_3>
3.3734286

>  <Kier1>
36.284882

>  <Kier2>
17.088007

>  <Kier3>
10.742699

>  <KierA1>
28.727474

>  <KierA2>
13.453216

>  <KierA3>
8.423955

>  <KierFlex>
8.5883751

>  <lip_acc>
9

>  <lip_don>
4

>  <lip_druglike>
1

>  <lip_violation>
1

>  <logP(o/w)>
2.7639999

>  <logS>
-4.7059999

>  <mr>
17.660614

>  <mutagenic>
0

>  <nmol>
1

>  <opr_brigid>
28

>  <opr_leadlike>
0

>  <opr_nring>
5

>  <opr_nrot>
14

>  <opr_violation>
4

>  <PC+>
0

>  <PC->
0

>  <PEOE_PC+>
3.7803376

>  <PEOE_PC->
-3.7803376

>  <PEOE_RPC+>
0.063444734

>  <PEOE_RPC->
0.10329806

>  <PEOE_VSA+0>
219.05481

>  <PEOE_VSA+1>
85.467377

>  <PEOE_VSA+2>
3.1459606

>  <PEOE_VSA+3>
17.238026

>  <PEOE_VSA+4>
46.547409

>  <PEOE_VSA+5>
0

>  <PEOE_VSA+6>
0

>  <PEOE_VSA-0>
94.734718

>  <PEOE_VSA-1>
122.54904

>  <PEOE_VSA-2>
0

>  <PEOE_VSA-3>
0

>  <PEOE_VSA-4>
0

>  <PEOE_VSA-5>
32.816418

>  <PEOE_VSA-6>
15.808863

>  <PEOE_VSA_FHYD>
0.85067731

>  <PEOE_VSA_FNEG>
0.41720212

>  <PEOE_VSA_FPNEG>
0.07629139

>  <PEOE_VSA_FPOL>
0.14932267

>  <PEOE_VSA_FPOS>
0.58279788

>  <PEOE_VSA_FPPOS>
0.073031276

>  <PEOE_VSA_HYD>
542.18994

>  <PEOE_VSA_NEG>
265.90903

>  <PEOE_VSA_PNEG>
48.625278

>  <PEOE_VSA_POL>
95.172691

>  <PEOE_VSA_POS>
371.45358

>  <PEOE_VSA_PPOS>
46.547409

>  <petitjean>
0.47368422

>  <petitjeanSC>
0.89999998

>  <Q_PC+>
0

>  <Q_PC->
0

>  <Q_RPC+>
0

>  <Q_RPC->
0

>  <Q_VSA_FHYD>
1

>  <Q_VSA_FNEG>
0

>  <Q_VSA_FPNEG>
0

>  <Q_VSA_FPOL>
0

>  <Q_VSA_FPOS>
1

>  <Q_VSA_FPPOS>
0

>  <Q_VSA_HYD>
637.36261

>  <Q_VSA_NEG>
0

>  <Q_VSA_PNEG>
0

>  <Q_VSA_POL>
0

>  <Q_VSA_POS>
637.36261

>  <Q_VSA_PPOS>
0

>  <radius>
10

>  <reactive>
0

>  <rings>
5

>  <RPC+>
0

>  <RPC->
0

>  <rsynth>
1

>  <SlogP>
3.22874

>  <SlogP_VSA0>
86.791954

>  <SlogP_VSA1>
33.551723

>  <SlogP_VSA2>
64.6437

>  <SlogP_VSA3>
73.758316

>  <SlogP_VSA4>
17.153095

>  <SlogP_VSA5>
37.736813

>  <SlogP_VSA6>
0

>  <SlogP_VSA7>
228.50374

>  <SlogP_VSA8>
22.850374

>  <SlogP_VSA9>
118.41763

>  <SMR>
17.438299

>  <SMR_VSA0>
47.724434

>  <SMR_VSA1>
73.804611

>  <SMR_VSA2>
40.432297

>  <SMR_VSA3>
33.643536

>  <SMR_VSA4>
0

>  <SMR_VSA5>
303.54852

>  <SMR_VSA6>
84.275879

>  <SMR_VSA7>
99.978043

>  <TPSA>
118.03

>  <VAdjEq>
0.27953976

>  <VAdjMa>
6.6147099

>  <VDistEq>
4.0111308

>  <VDistMa>
10.725893

>  <vdw_area>
637.36261

>  <vdw_vol>
873.88641

>  <vsa_acc>
32.816418

>  <vsa_acid>
0

>  <vsa_base>
0

>  <vsa_don>
11.365152

>  <vsa_hyd>
492.99966

>  <vsa_other>
25.899061

>  <vsa_pol>
71.315414

>  <Weight>
613.80298

>  <weinerPath>
7788

>  <weinerPol>
68

>  <zagreb>
236

$$$$