O=C1CC[C@@]2([C@@H]3[C@H]([C@@H]4CC[C@](OC(=O)CCC)(C(=O)COC(=O)CC)[C@]4(C[C@@H]3O)C)CCC2=C1)C
  MOE2013           2D

 35 38  0  0  1  0  0  0  0  0999 V2000
    0.0000    0.0000    0.0000 O   0  0  0  0  0  0  0  0  0  0  0  0
   -1.5000   -0.0120    0.0000 C   0  0  0  0  0  0  0  0  0  0  0  0
   -2.2610    1.2810    0.0000 C   0  0  0  0  0  0  0  0  0  0  0  0
   -3.7600    1.2680    0.0000 C   0  0  0  0  0  0  0  0  0  0  0  0
   -4.5000   -0.0370    0.0000 C   0  0  2  0  0  0  0  0  0  0  0  0
   -6.0000   -0.0490    0.0000 C   0  0  2  0  0  0  0  0  0  0  0  0
   -6.7390   -1.3540    0.0000 C   0  0  2  0  0  0  0  0  0  0  0  0
   -8.2390   -1.3660    0.0000 C   0  0  2  0  0  0  0  0  0  0  0  0
   -9.2340   -2.4890    0.0000 C   0  0  0  0  0  0  0  0  0  0  0  0
  -10.6090   -1.8900    0.0000 C   0  0  0  0  0  0  0  0  0  0  0  0
  -10.4640   -0.3970    0.0000 C   0  0  2  0  0  0  0  0  0  0  0  0
  -11.9290   -0.0720    0.0000 O   0  0  0  0  0  0  0  0  0  0  0  0
  -12.9430   -1.1770    0.0000 C   0  0  0  0  0  0  0  0  0  0  0  0
  -12.4920   -2.6080    0.0000 O   0  0  0  0  0  0  0  0  0  0  0  0
  -14.4070   -0.8510    0.0000 C   0  0  0  0  0  0  0  0  0  0  0  0
  -15.4210   -1.9570    0.0000 C   0  0  0  0  0  0  0  0  0  0  0  0
  -16.8850   -1.6310    0.0000 C   0  0  0  0  0  0  0  0  0  0  0  0
  -10.8640    1.0490    0.0000 C   0  0  0  0  0  0  0  0  0  0  0  0
   -9.8120    2.1180    0.0000 O   0  0  0  0  0  0  0  0  0  0  0  0
  -12.3160    1.4250    0.0000 C   0  0  0  0  0  0  0  0  0  0  0  0
  -12.7160    2.8710    0.0000 O   0  0  0  0  0  0  0  0  0  0  0  0
  -14.1680    3.2470    0.0000 C   0  0  0  0  0  0  0  0  0  0  0  0
  -15.2200    2.1780    0.0000 O   0  0  0  0  0  0  0  0  0  0  0  0
  -14.5680    4.6930    0.0000 C   0  0  0  0  0  0  0  0  0  0  0  0
  -16.0200    5.0690    0.0000 C   0  0  0  0  0  0  0  0  0  0  0  0
   -9.0000   -0.0730    0.0000 C   0  0  1  0  0  0  0  0  0  0  0  0
   -8.2600    1.2320    0.0000 C   0  0  0  0  0  0  0  0  0  0  0  0
   -6.7600    1.2440    0.0000 C   0  0  2  0  0  0  0  0  0  0  0  0
   -6.0210    2.5490    0.0000 O   0  0  0  0  0  0  0  0  0  0  0  0
   -9.8910    1.1330    0.0000 C   0  0  0  0  0  0  0  0  0  0  0  0
   -5.9790   -2.6470    0.0000 C   0  0  0  0  0  0  0  0  0  0  0  0
   -4.4790   -2.6350    0.0000 C   0  0  0  0  0  0  0  0  0  0  0  0
   -3.7390   -1.3300    0.0000 C   0  0  0  0  0  0  0  0  0  0  0  0
   -2.2390   -1.3170    0.0000 C   0  0  0  0  0  0  0  0  0  0  0  0
   -5.2830    1.2430    0.0000 C   0  0  0  0  0  0  0  0  0  0  0  0
  1  2  2  0  0  0  0
  2  3  1  0  0  0  0
  2 34  1  0  0  0  0
  3  4  1  0  0  0  0
  4  5  1  0  0  0  0
  5 33  1  0  0  0  0
  5 35  1  6  0  0  0
  6  5  1  6  0  0  0
  6  7  1  0  0  0  0
  6 28  1  0  0  0  0
  7  8  1  0  0  0  0
  7 31  1  1  0  0  0
  8  9  1  6  0  0  0
  8 26  1  0  0  0  0
  9 10  1  0  0  0  0
 10 11  1  0  0  0  0
 11 12  1  1  0  0  0
 11 18  1  6  0  0  0
 11 26  1  0  0  0  0
 12 13  1  0  0  0  0
 13 14  2  0  0  0  0
 13 15  1  0  0  0  0
 15 16  1  0  0  0  0
 16 17  1  0  0  0  0
 18 19  2  0  0  0  0
 18 20  1  0  0  0  0
 20 21  1  0  0  0  0
 21 22  1  0  0  0  0
 22 23  2  0  0  0  0
 22 24  1  0  0  0  0
 24 25  1  0  0  0  0
 26 27  1  0  0  0  0
 26 30  1  6  0  0  0
 27 28  1  0  0  0  0
 28 29  1  6  0  0  0
 31 32  1  0  0  0  0
 32 33  1  0  0  0  0
 33 34  2  0  0  0  0
M  END
>  <Index>
533

>  <ID>
HT1051

>  <class>
0

>  <apol>
81.56572

>  <ast_fraglike>
0

>  <ast_fraglike_ext>
0

>  <ast_violation>
3

>  <ast_violation_ext>
5

>  <a_acc>
5

>  <a_acid>
0

>  <a_aro>
0

>  <a_base>
0

>  <a_count>
75

>  <a_don>
1

>  <a_donacc>
6

>  <a_heavy>
35

>  <a_hyd>
24

>  <a_IC>
100.02686

>  <a_ICM>
1.3336914

>  <a_nB>
0

>  <a_nBr>
0

>  <a_nC>
28

>  <a_nCl>
0

>  <a_nF>
0

>  <a_nH>
40

>  <a_nI>
0

>  <a_nN>
0

>  <a_nO>
7

>  <a_nP>
0

>  <a_nS>
0

>  <balabanJ>
1.6509279

>  <BCUT_PEOE_0>
-2.9382389

>  <BCUT_PEOE_1>
-0.48056939

>  <BCUT_PEOE_2>
0.36703748

>  <BCUT_PEOE_3>
2.984205

>  <BCUT_SLOGP_0>
-2.908936

>  <BCUT_SLOGP_1>
-0.43221155

>  <BCUT_SLOGP_2>
0.3811754

>  <BCUT_SLOGP_3>
3.0178649

>  <BCUT_SMR_0>
-2.6916356

>  <BCUT_SMR_1>
-0.26928395

>  <BCUT_SMR_2>
0.54004896

>  <BCUT_SMR_3>
3.2238469

>  <bpol>
51.392281

>  <b_1rotN>
7

>  <b_1rotR>
0.18421052

>  <b_ar>
0

>  <b_count>
78

>  <b_double>
5

>  <b_heavy>
38

>  <b_max1len>
4

>  <b_rotN>
9

>  <b_rotR>
0.23684211

>  <b_single>
73

>  <b_triple>
0

>  <chi0>
25.595648

>  <chi0v>
21.561628

>  <chi0v_C>
18.664927

>  <chi0_C>
19.181435

>  <chi1>
16.518858

>  <chi1v>
13.347829

>  <chi1v_C>
11.372087

>  <chi1_C>
11.962057

>  <chiral>
7

>  <chiral_u>
0

>  <density>
0.728212

>  <diameter>
15

>  <FCharge>
0

>  <GCUT_PEOE_0>
-0.80073643

>  <GCUT_PEOE_1>
-0.38693178

>  <GCUT_PEOE_2>
-0.049486574

>  <GCUT_PEOE_3>
3.4488237

>  <GCUT_SLOGP_0>
-0.93005848

>  <GCUT_SLOGP_1>
-0.31661695

>  <GCUT_SLOGP_2>
-0.01159898

>  <GCUT_SLOGP_3>
3.4881036

>  <GCUT_SMR_0>
-0.53918803

>  <GCUT_SMR_1>
-0.22326745

>  <GCUT_SMR_2>
0.104478

>  <GCUT_SMR_3>
3.6684029

>  <Kier1>
28.01939

>  <Kier2>
10.636599

>  <Kier3>
4.7074094

>  <KierA1>
24.594101

>  <KierA2>
9.2990141

>  <KierA3>
4.1035404

>  <KierFlex>
6.5343113

>  <lip_acc>
7

>  <lip_don>
1

>  <lip_druglike>
1

>  <lip_violation>
0

>  <logP(o/w)>
3.5840001

>  <logS>
-5.0896702

>  <mr>
13.112556

>  <mutagenic>
0

>  <nmol>
1

>  <opr_brigid>
20

>  <opr_leadlike>
1

>  <opr_nring>
4

>  <opr_nrot>
7

>  <opr_violation>
1

>  <PC+>
0

>  <PC->
0

>  <PEOE_PC+>
2.7331736

>  <PEOE_PC->
-2.7331736

>  <PEOE_RPC+>
0.096251637

>  <PEOE_RPC->
0.14322382

>  <PEOE_VSA+0>
175.39246

>  <PEOE_VSA+1>
21.966473

>  <PEOE_VSA+2>
14.951293

>  <PEOE_VSA+3>
16.917038

>  <PEOE_VSA+4>
10.324173

>  <PEOE_VSA+5>
29.416998

>  <PEOE_VSA+6>
0

>  <PEOE_VSA-0>
73.164093

>  <PEOE_VSA-1>
77.199249

>  <PEOE_VSA-2>
0

>  <PEOE_VSA-3>
0

>  <PEOE_VSA-4>
0

>  <PEOE_VSA-5>
54.267685

>  <PEOE_VSA-6>
12.775052

>  <PEOE_VSA_FHYD>
0.78044921

>  <PEOE_VSA_FNEG>
0.44699317

>  <PEOE_VSA_FPNEG>
0.13784179

>  <PEOE_VSA_FPOL>
0.21955079

>  <PEOE_VSA_FPOS>
0.55300683

>  <PEOE_VSA_FPPOS>
0.08170899

>  <PEOE_VSA_HYD>
379.59061

>  <PEOE_VSA_NEG>
217.40608

>  <PEOE_VSA_PNEG>
67.042732

>  <PEOE_VSA_POL>
106.78391

>  <PEOE_VSA_POS>
268.96841

>  <PEOE_VSA_PPOS>
39.741173

>  <petitjean>
0.46666667

>  <petitjeanSC>
0.875

>  <Q_PC+>
0

>  <Q_PC->
0

>  <Q_RPC+>
0

>  <Q_RPC->
0

>  <Q_VSA_FHYD>
1

>  <Q_VSA_FNEG>
0

>  <Q_VSA_FPNEG>
0

>  <Q_VSA_FPOL>
0

>  <Q_VSA_FPOS>
1

>  <Q_VSA_FPPOS>
0

>  <Q_VSA_HYD>
486.37451

>  <Q_VSA_NEG>
0

>  <Q_VSA_PNEG>
0

>  <Q_VSA_POL>
0

>  <Q_VSA_POS>
486.37451

>  <Q_VSA_PPOS>
0

>  <radius>
8

>  <reactive>
1

>  <rings>
4

>  <RPC+>
0

>  <RPC->
0

>  <rsynth>
0.2857143

>  <SlogP>
4.0935001

>  <SlogP_VSA0>
25.385227

>  <SlogP_VSA1>
26.86615

>  <SlogP_VSA2>
123.91729

>  <SlogP_VSA3>
20.926258

>  <SlogP_VSA4>
13.232388

>  <SlogP_VSA5>
3.185575

>  <SlogP_VSA6>
0

>  <SlogP_VSA7>
17.643185

>  <SlogP_VSA8>
188.68405

>  <SlogP_VSA9>
133.30406

>  <SMR>
12.80878

>  <SMR_VSA0>
117.44864

>  <SMR_VSA1>
25.385227

>  <SMR_VSA2>
13.232388

>  <SMR_VSA3>
9.6542244

>  <SMR_VSA4>
0

>  <SMR_VSA5>
206.32724

>  <SMR_VSA6>
47.792408

>  <SMR_VSA7>
133.30406

>  <TPSA>
106.97

>  <VAdjEq>
0.33549348

>  <VAdjMa>
6.2479277

>  <VDistEq>
3.5576811

>  <VDistMa>
9.9987421

>  <vdw_area>
486.37451

>  <vdw_vol>
670.9873

>  <vsa_acc>
54.267685

>  <vsa_acid>
0

>  <vsa_base>
0

>  <vsa_don>
0

>  <vsa_hyd>
330.87839

>  <vsa_other>
51.341549

>  <vsa_pol>
67.834602

>  <Weight>
488.621

>  <weinerPath>
3383

>  <weinerPol>
72

>  <zagreb>
194

$$$$