O=C1N(C)C(=O)NC(=O)C1(C)C=1CCCCC=1
  MOE2013           2D

 17 18  0  0  1  0  0  0  0  0999 V2000
    0.0000    0.0000    0.0000 O   0  0  0  0  0  0  0  0  0  0  0  0
   -0.0120   -1.5000    0.0000 C   0  0  0  0  0  0  0  0  0  0  0  0
    1.2820   -2.2600    0.0000 N   0  0  0  0  0  0  0  0  0  0  0  0
    2.5860   -1.5200    0.0000 C   0  0  0  0  0  0  0  0  0  0  0  0
    1.2700   -3.7600    0.0000 C   0  0  0  0  0  0  0  0  0  0  0  0
    2.5630   -4.5200    0.0000 O   0  0  0  0  0  0  0  0  0  0  0  0
   -0.0350   -4.5000    0.0000 N   0  0  0  0  0  0  0  0  0  0  0  0
   -1.3280   -3.7400    0.0000 C   0  0  0  0  0  0  0  0  0  0  0  0
   -2.6330   -4.4800    0.0000 O   0  0  0  0  0  0  0  0  0  0  0  0
   -1.3160   -2.2400    0.0000 C   0  0  3  0  0  0  0  0  0  0  0  0
   -2.0560   -0.9350    0.0000 C   0  0  0  0  0  0  0  0  0  0  0  0
   -2.8160   -2.2280    0.0000 C   0  0  0  0  0  0  0  0  0  0  0  0
   -3.5760   -3.5210    0.0000 C   0  0  0  0  0  0  0  0  0  0  0  0
   -5.0760   -3.5100    0.0000 C   0  0  0  0  0  0  0  0  0  0  0  0
   -5.8160   -2.2050    0.0000 C   0  0  0  0  0  0  0  0  0  0  0  0
   -5.0560   -0.9120    0.0000 C   0  0  0  0  0  0  0  0  0  0  0  0
   -3.5560   -0.9230    0.0000 C   0  0  0  0  0  0  0  0  0  0  0  0
  1  2  2  0  0  0  0
  2  3  1  0  0  0  0
  2 10  1  0  0  0  0
  3  4  1  0  0  0  0
  3  5  1  0  0  0  0
  5  6  2  0  0  0  0
  5  7  1  0  0  0  0
  7  8  1  0  0  0  0
  8  9  2  0  0  0  0
  8 10  1  0  0  0  0
 10 11  1  0  0  0  0
 10 12  1  0  0  0  0
 12 13  1  0  0  0  0
 12 17  2  0  0  0  0
 13 14  1  0  0  0  0
 14 15  1  0  0  0  0
 15 16  1  0  0  0  0
 16 17  1  0  0  0  0
M  END
>  <Index>
521

>  <ID>
HT1033

>  <class>
0

>  <apol>
36.394688

>  <ast_fraglike>
1

>  <ast_fraglike_ext>
1

>  <ast_violation>
0

>  <ast_violation_ext>
0

>  <a_acc>
3

>  <a_acid>
0

>  <a_aro>
0

>  <a_base>
0

>  <a_count>
33

>  <a_don>
1

>  <a_donacc>
4

>  <a_heavy>
17

>  <a_hyd>
9

>  <a_IC>
52.690567

>  <a_ICM>
1.5966839

>  <a_nB>
0

>  <a_nBr>
0

>  <a_nC>
12

>  <a_nCl>
0

>  <a_nF>
0

>  <a_nH>
16

>  <a_nI>
0

>  <a_nN>
2

>  <a_nO>
3

>  <a_nP>
0

>  <a_nS>
0

>  <balabanJ>
2.2087426

>  <BCUT_PEOE_0>
-2.6833599

>  <BCUT_PEOE_1>
-0.42954275

>  <BCUT_PEOE_2>
0.32426724

>  <BCUT_PEOE_3>
2.6994562

>  <BCUT_SLOGP_0>
-2.7609558

>  <BCUT_SLOGP_1>
-0.36288977

>  <BCUT_SLOGP_2>
0.38313997

>  <BCUT_SLOGP_3>
2.7814026

>  <BCUT_SMR_0>
-2.4255698

>  <BCUT_SMR_1>
-0.21176074

>  <BCUT_SMR_2>
0.50467694

>  <BCUT_SMR_3>
2.9510119

>  <bpol>
23.005312

>  <b_1rotN>
1

>  <b_1rotR>
0.055555556

>  <b_ar>
0

>  <b_count>
34

>  <b_double>
4

>  <b_heavy>
18

>  <b_max1len>
3

>  <b_rotN>
1

>  <b_rotR>
0.055555556

>  <b_single>
30

>  <b_triple>
0

>  <chi0>
12.629392

>  <chi0v>
10.077736

>  <chi0v_C>
7.9057775

>  <chi0_C>
8.3449354

>  <chi1>
7.9750862

>  <chi1v>
5.8072762

>  <chi1v_C>
3.8004768

>  <chi1_C>
4.1825218

>  <chiral>
1

>  <chiral_u>
1

>  <density>
0.75952131

>  <diameter>
8

>  <FCharge>
0

>  <GCUT_PEOE_0>
-0.78755975

>  <GCUT_PEOE_1>
-0.4378936

>  <GCUT_PEOE_2>
-0.044616759

>  <GCUT_PEOE_3>
2.6629317

>  <GCUT_SLOGP_0>
-1.1705761

>  <GCUT_SLOGP_1>
-0.31105834

>  <GCUT_SLOGP_2>
0.002155938

>  <GCUT_SLOGP_3>
2.6819234

>  <GCUT_SMR_0>
-0.5232268

>  <GCUT_SMR_1>
-0.20420542

>  <GCUT_SMR_2>
0.098607697

>  <GCUT_SMR_3>
2.9023361

>  <Kier1>
13.432098

>  <Kier2>
4.9382715

>  <Kier3>
2.1717451

>  <KierA1>
10.058256

>  <KierA2>
3.625

>  <KierA3>
1.5689924

>  <KierFlex>
2.1447752

>  <lip_acc>
5

>  <lip_don>
1

>  <lip_druglike>
1

>  <lip_violation>
0

>  <logP(o/w)>
0.95499998

>  <logS>
-2.4654801

>  <mr>
6.247076

>  <mutagenic>
0

>  <nmol>
1

>  <opr_brigid>
12

>  <opr_leadlike>
1

>  <opr_nring>
2

>  <opr_nrot>
2

>  <opr_violation>
0

>  <PC+>
0

>  <PC->
0

>  <PEOE_PC+>
1.667231

>  <PEOE_PC->
-1.667231

>  <PEOE_RPC+>
0.19876143

>  <PEOE_RPC->
0.16633575

>  <PEOE_VSA+0>
82.954094

>  <PEOE_VSA+1>
4.2653861

>  <PEOE_VSA+2>
0

>  <PEOE_VSA+3>
8.6190128

>  <PEOE_VSA+4>
12.949531

>  <PEOE_VSA+5>
12.949531

>  <PEOE_VSA+6>
17.440542

>  <PEOE_VSA-0>
55.761471

>  <PEOE_VSA-1>
12.254904

>  <PEOE_VSA-2>
0

>  <PEOE_VSA-3>
0

>  <PEOE_VSA-4>
13.566921

>  <PEOE_VSA-5>
27.270733

>  <PEOE_VSA-6>
0

>  <PEOE_VSA_FHYD>
0.66061956

>  <PEOE_VSA_FNEG>
0.43887067

>  <PEOE_VSA_FPNEG>
0.16464663

>  <PEOE_VSA_FPOL>
0.33938047

>  <PEOE_VSA_FPOS>
0.56112933

>  <PEOE_VSA_FPPOS>
0.17473383

>  <PEOE_VSA_HYD>
163.85487

>  <PEOE_VSA_NEG>
108.85403

>  <PEOE_VSA_PNEG>
40.837654

>  <PEOE_VSA_POL>
84.177261

>  <PEOE_VSA_POS>
139.1781

>  <PEOE_VSA_PPOS>
43.339603

>  <petitjean>
0.5

>  <petitjeanSC>
1

>  <Q_PC+>
0

>  <Q_PC->
0

>  <Q_RPC+>
0

>  <Q_RPC->
0

>  <Q_VSA_FHYD>
1

>  <Q_VSA_FNEG>
0

>  <Q_VSA_FPNEG>
0

>  <Q_VSA_FPOL>
0

>  <Q_VSA_FPOS>
1

>  <Q_VSA_FPPOS>
0

>  <Q_VSA_HYD>
248.03212

>  <Q_VSA_NEG>
0

>  <Q_VSA_PNEG>
0

>  <Q_VSA_POL>
0

>  <Q_VSA_POS>
248.03212

>  <Q_VSA_PPOS>
0

>  <radius>
4

>  <reactive>
0

>  <rings>
2

>  <RPC+>
0

>  <RPC->
0

>  <rsynth>
0.35294119

>  <SlogP>
1.2013

>  <SlogP_VSA0>
18.01075

>  <SlogP_VSA1>
18.471838

>  <SlogP_VSA2>
47.724434

>  <SlogP_VSA3>
0

>  <SlogP_VSA4>
0

>  <SlogP_VSA5>
36.082764

>  <SlogP_VSA6>
0

>  <SlogP_VSA7>
17.643185

>  <SlogP_VSA8>
75.473625

>  <SlogP_VSA9>
57.188232

>  <SMR>
6.0966702

>  <SMR_VSA0>
71.586647

>  <SMR_VSA1>
3.1243138

>  <SMR_VSA2>
18.01075

>  <SMR_VSA3>
3.185575

>  <SMR_VSA4>
0

>  <SMR_VSA5>
93.116806

>  <SMR_VSA6>
15.347524

>  <SMR_VSA7>
66.223206

>  <TPSA>
66.480003

>  <VAdjEq>
0.54234898

>  <VAdjMa>
5.1699252

>  <VDistEq>
2.6615071

>  <VDistMa>
7.9159861

>  <vdw_area>
248.03212

>  <vdw_vol>
311.07883

>  <vsa_acc>
40.700764

>  <vsa_acid>
0

>  <vsa_base>
0

>  <vsa_don>
5.6825762

>  <vsa_hyd>
144.55893

>  <vsa_other>
43.339603

>  <vsa_pol>
46.383339

>  <Weight>
236.271

>  <weinerPath>
458

>  <weinerPol>
32

>  <zagreb>
90

$$$$