FC(F)(CCC)C
  MOE2013           2D

  7  6  0  0  0  0  0  0  0  0999 V2000
    0.0000    0.0000    0.0000 F   0  0  0  0  0  0  0  0  0  0  0  0
    0.7450   -1.3020    0.0000 C   0  0  0  0  0  0  0  0  0  0  0  0
   -0.7550   -1.2960    0.0000 F   0  0  0  0  0  0  0  0  0  0  0  0
    2.0470   -0.5560    0.0000 C   0  0  0  0  0  0  0  0  0  0  0  0
    3.3430   -1.3110    0.0000 C   0  0  0  0  0  0  0  0  0  0  0  0
    4.6450   -0.5650    0.0000 C   0  0  0  0  0  0  0  0  0  0  0  0
    0.7400   -2.8020    0.0000 C   0  0  0  0  0  0  0  0  0  0  0  0
  1  2  1  0  0  0  0
  2  3  1  0  0  0  0
  2  4  1  0  0  0  0
  2  7  1  0  0  0  0
  4  5  1  0  0  0  0
  5  6  1  0  0  0  0
M  END
>  <Index>
6

>  <ID>
HT0027

>  <class>
0

>  <apol>
16.58193

>  <ast_fraglike>
1

>  <ast_fraglike_ext>
1

>  <ast_violation>
0

>  <ast_violation_ext>
0

>  <a_acc>
0

>  <a_acid>
0

>  <a_aro>
0

>  <a_base>
0

>  <a_count>
17

>  <a_don>
0

>  <a_donacc>
0

>  <a_heavy>
7

>  <a_hyd>
7

>  <a_IC>
22.657948

>  <a_ICM>
1.3328204

>  <a_nB>
0

>  <a_nBr>
0

>  <a_nC>
5

>  <a_nCl>
0

>  <a_nF>
2

>  <a_nH>
10

>  <a_nI>
0

>  <a_nN>
0

>  <a_nO>
0

>  <a_nP>
0

>  <a_nS>
0

>  <balabanJ>
3.15449

>  <BCUT_PEOE_0>
-2.5642111

>  <BCUT_PEOE_1>
-0.12965634

>  <BCUT_PEOE_2>
0.031045308

>  <BCUT_PEOE_3>
2.616344

>  <BCUT_SLOGP_0>
-2.5002601

>  <BCUT_SLOGP_1>
0.123

>  <BCUT_SLOGP_2>
0.32113335

>  <BCUT_SLOGP_3>
2.683562

>  <BCUT_SMR_0>
-2.3661604

>  <BCUT_SMR_1>
0.1057

>  <BCUT_SMR_2>
0.1091

>  <BCUT_SMR_3>
2.8028028

>  <bpol>
13.33807

>  <b_1rotN>
2

>  <b_1rotR>
0.33333334

>  <b_ar>
0

>  <b_count>
16

>  <b_double>
0

>  <b_heavy>
6

>  <b_max1len>
6

>  <b_rotN>
2

>  <b_rotR>
0.33333334

>  <b_single>
16

>  <b_triple>
0

>  <chi0>
5.9142137

>  <chi0v>
4.6701427

>  <chi0v_C>
3.9142137

>  <chi0_C>
3.9142137

>  <chi1>
3.0606601

>  <chi1v>
2.4386246

>  <chi1v_C>
2.0606601

>  <chi1_C>
2.0606601

>  <chiral>
0

>  <chiral_u>
0

>  <density>
0.75973928

>  <diameter>
4

>  <FCharge>
0

>  <GCUT_PEOE_0>
-0.77518016

>  <GCUT_PEOE_1>
-0.28965634

>  <GCUT_PEOE_2>
-0.12895469

>  <GCUT_PEOE_3>
2.1071658

>  <GCUT_SLOGP_0>
-0.75690746

>  <GCUT_SLOGP_1>
-0.037

>  <GCUT_SLOGP_2>
0.16113333

>  <GCUT_SLOGP_3>
2.2105377

>  <GCUT_SMR_0>
-0.52801746

>  <GCUT_SMR_1>
-0.054299999

>  <GCUT_SMR_2>
-0.050900001

>  <GCUT_SMR_3>
2.2823169

>  <Kier1>
7

>  <Kier2>
2.34375

>  <Kier3>
6

>  <KierA1>
6.6151028

>  <KierA2>
2.1909347

>  <KierA3>
5.5414205

>  <KierFlex>
2.0704653

>  <lip_acc>
0

>  <lip_don>
0

>  <lip_druglike>
1

>  <lip_violation>
0

>  <logP(o/w)>
3.0459199

>  <logS>
-1.66529

>  <mr>
2.5884502

>  <mutagenic>
0

>  <nmol>
1

>  <opr_brigid>
0

>  <opr_leadlike>
1

>  <opr_nring>
0

>  <opr_nrot>
2

>  <opr_violation>
0

>  <PC+>
0

>  <PC->
0

>  <PEOE_PC+>
0.52874154

>  <PEOE_PC->
-0.52874154

>  <PEOE_RPC+>
0.46564329

>  <PEOE_RPC->
0.38955593

>  <PEOE_VSA+0>
51.355175

>  <PEOE_VSA+1>
0

>  <PEOE_VSA+2>
0

>  <PEOE_VSA+3>
0

>  <PEOE_VSA+4>
2.2331963

>  <PEOE_VSA+5>
0

>  <PEOE_VSA+6>
0

>  <PEOE_VSA-0>
18.747677

>  <PEOE_VSA-1>
27.44899

>  <PEOE_VSA-2>
0

>  <PEOE_VSA-3>
0

>  <PEOE_VSA-4>
23.817272

>  <PEOE_VSA-5>
0

>  <PEOE_VSA-6>
0

>  <PEOE_VSA_FHYD>
0.78923965

>  <PEOE_VSA_FNEG>
0.56644523

>  <PEOE_VSA_FPNEG>
0.19269277

>  <PEOE_VSA_FPOL>
0.21076035

>  <PEOE_VSA_FPOS>
0.43355477

>  <PEOE_VSA_FPPOS>
0.018067593

>  <PEOE_VSA_HYD>
97.551842

>  <PEOE_VSA_NEG>
70.013939

>  <PEOE_VSA_PNEG>
23.817272

>  <PEOE_VSA_POL>
26.050467

>  <PEOE_VSA_POS>
53.588371

>  <PEOE_VSA_PPOS>
2.2331963

>  <petitjean>
0.5

>  <petitjeanSC>
1

>  <Q_PC+>
0

>  <Q_PC->
0

>  <Q_RPC+>
0

>  <Q_RPC->
0

>  <Q_VSA_FHYD>
1

>  <Q_VSA_FNEG>
0

>  <Q_VSA_FPNEG>
0

>  <Q_VSA_FPOL>
0

>  <Q_VSA_FPOS>
1

>  <Q_VSA_FPPOS>
0

>  <Q_VSA_HYD>
123.60231

>  <Q_VSA_NEG>
0

>  <Q_VSA_PNEG>
0

>  <Q_VSA_POL>
0

>  <Q_VSA_POS>
123.60231

>  <Q_VSA_PPOS>
0

>  <radius>
2

>  <reactive>
0

>  <rings>
0

>  <RPC+>
0

>  <RPC->
0

>  <rsynth>
1

>  <SlogP>
2.4417

>  <SlogP_VSA0>
0

>  <SlogP_VSA1>
1.824073

>  <SlogP_VSA2>
0

>  <SlogP_VSA3>
0

>  <SlogP_VSA4>
0

>  <SlogP_VSA5>
0

>  <SlogP_VSA6>
0

>  <SlogP_VSA7>
0

>  <SlogP_VSA8>
37.736813

>  <SlogP_VSA9>
96.572258

>  <SMR>
2.5529001

>  <SMR_VSA0>
0

>  <SMR_VSA1>
29.920227

>  <SMR_VSA2>
1.824073

>  <SMR_VSA3>
0

>  <SMR_VSA4>
0

>  <SMR_VSA5>
37.736813

>  <SMR_VSA6>
0

>  <SMR_VSA7>
66.652031

>  <TPSA>
0

>  <VAdjEq>
0.80309099

>  <VAdjMa>
3.5849626

>  <VDistEq>
1.9035239

>  <VDistMa>
5.2405281

>  <vdw_area>
123.60231

>  <vdw_vol>
142.32646

>  <vsa_acc>
0

>  <vsa_acid>
0

>  <vsa_base>
0

>  <vsa_don>
0

>  <vsa_hyd>
116.48435

>  <vsa_other>
0

>  <vsa_pol>
0

>  <Weight>
108.131

>  <weinerPath>
46

>  <weinerPol>
4

>  <zagreb>
28

$$$$