OC(=O)CCCC=CCC=CCC=CCC=CCC=CCC
  MOE2013           2D

 22 21  0  0  0  0  0  0  0  0999 V2000
    0.0000    0.0000    0.0000 O   0  0  0  0  0  0  0  0  0  0  0  0
    0.7470   -1.3010    0.0000 C   0  0  0  0  0  0  0  0  0  0  0  0
   -0.0070   -2.5980    0.0000 O   0  0  0  0  0  0  0  0  0  0  0  0
    2.2470   -1.3050    0.0000 C   0  0  0  0  0  0  0  0  0  0  0  0
    3.0000   -0.0080    0.0000 C   0  0  0  0  0  0  0  0  0  0  0  0
    4.5000   -0.0120    0.0000 C   0  0  0  0  0  0  0  0  0  0  0  0
    5.2530    1.2850    0.0000 C   0  0  0  0  0  0  0  0  0  0  0  0
    6.7530    1.2810    0.0000 C   0  0  0  0  0  0  0  0  0  0  0  0
    7.5070    2.5780    0.0000 C   0  0  0  0  0  0  0  0  0  0  0  0
    9.0070    2.5750    0.0000 C   0  0  0  0  0  0  0  0  0  0  0  0
    9.7600    3.8720    0.0000 C   0  0  0  0  0  0  0  0  0  0  0  0
   11.2600    3.8680    0.0000 C   0  0  0  0  0  0  0  0  0  0  0  0
   12.0140    5.1650    0.0000 C   0  0  0  0  0  0  0  0  0  0  0  0
   13.5140    5.1610    0.0000 C   0  0  0  0  0  0  0  0  0  0  0  0
   14.2670    6.4580    0.0000 C   0  0  0  0  0  0  0  0  0  0  0  0
   15.7670    6.4540    0.0000 C   0  0  0  0  0  0  0  0  0  0  0  0
   16.5200    7.7510    0.0000 C   0  0  0  0  0  0  0  0  0  0  0  0
   18.0200    7.7470    0.0000 C   0  0  0  0  0  0  0  0  0  0  0  0
   18.7740    9.0440    0.0000 C   0  0  0  0  0  0  0  0  0  0  0  0
   20.2740    9.0400    0.0000 C   0  0  0  0  0  0  0  0  0  0  0  0
   21.0270   10.3370    0.0000 C   0  0  0  0  0  0  0  0  0  0  0  0
   22.5270   10.3330    0.0000 C   0  0  0  0  0  0  0  0  0  0  0  0
  1  2  1  0  0  0  0
  2  3  2  0  0  0  0
  2  4  1  0  0  0  0
  4  5  1  0  0  0  0
  5  6  1  0  0  0  0
  6  7  1  0  0  0  0
  7  8  2  3  0  0  0
  8  9  1  0  0  0  0
  9 10  1  0  0  0  0
 10 11  2  3  0  0  0
 11 12  1  0  0  0  0
 12 13  1  0  0  0  0
 13 14  2  3  0  0  0
 14 15  1  0  0  0  0
 15 16  1  0  0  0  0
 16 17  2  3  0  0  0
 17 18  1  0  0  0  0
 18 19  1  0  0  0  0
 19 20  2  3  0  0  0
 20 21  1  0  0  0  0
 21 22  1  0  0  0  0
M  END
>  <Index>
545

>  <ID>
HT1073

>  <class>
0

>  <apol>
56.807789

>  <ast_fraglike>
0

>  <ast_fraglike_ext>
0

>  <ast_violation>
2

>  <ast_violation_ext>
3

>  <a_acc>
2

>  <a_acid>
0

>  <a_aro>
0

>  <a_base>
0

>  <a_count>
52

>  <a_don>
2

>  <a_donacc>
4

>  <a_heavy>
22

>  <a_hyd>
19

>  <a_IC>
60.777584

>  <a_ICM>
1.1687998

>  <a_nB>
0

>  <a_nBr>
0

>  <a_nC>
20

>  <a_nCl>
0

>  <a_nF>
0

>  <a_nH>
30

>  <a_nI>
0

>  <a_nN>
0

>  <a_nO>
2

>  <a_nP>
0

>  <a_nS>
0

>  <balabanJ>
2.9463933

>  <BCUT_PEOE_0>
-2.5243638

>  <BCUT_PEOE_1>
-0.56319898

>  <BCUT_PEOE_2>
0.60706937

>  <BCUT_PEOE_3>
2.5190725

>  <BCUT_SLOGP_0>
-2.419961

>  <BCUT_SLOGP_1>
-0.47628087

>  <BCUT_SLOGP_2>
0.71380991

>  <BCUT_SLOGP_3>
2.6381857

>  <BCUT_SMR_0>
-2.2823544

>  <BCUT_SMR_1>
-0.42840782

>  <BCUT_SMR_2>
0.7452302

>  <BCUT_SMR_3>
2.7602112

>  <bpol>
33.754211

>  <b_1rotN>
13

>  <b_1rotR>
0.61904764

>  <b_ar>
0

>  <b_count>
51

>  <b_double>
6

>  <b_heavy>
21

>  <b_max1len>
5

>  <b_rotN>
13

>  <b_rotR>
0.61904764

>  <b_single>
45

>  <b_triple>
0

>  <chi0>
16.305273

>  <chi0v>
13.785819

>  <chi0v_C>
12.930357

>  <chi0_C>
14.305272

>  <chi1>
10.770056

>  <chi1v>
8.2375402

>  <chi1v_C>
7.8098097

>  <chi1_C>
9.6153555

>  <chiral>
0

>  <chiral_u>
0

>  <density>
0.62663239

>  <diameter>
20

>  <FCharge>
0

>  <GCUT_PEOE_0>
-0.78516471

>  <GCUT_PEOE_1>
-0.37488165

>  <GCUT_PEOE_2>
0.073220193

>  <GCUT_PEOE_3>
2.4048896

>  <GCUT_SLOGP_0>
-0.87252069

>  <GCUT_SLOGP_1>
-0.24581565

>  <GCUT_SLOGP_2>
0.15389618

>  <GCUT_SLOGP_3>
2.5563583

>  <GCUT_SMR_0>
-0.51866114

>  <GCUT_SMR_1>
-0.20064563

>  <GCUT_SMR_2>
0.1899309

>  <GCUT_SMR_3>
2.6662591

>  <Kier1>
22

>  <Kier2>
19.047619

>  <Kier3>
21.052631

>  <KierA1>
17.409851

>  <KierA2>
14.893569

>  <KierA3>
16.318405

>  <KierFlex>
11.786128

>  <lip_acc>
2

>  <lip_don>
1

>  <lip_druglike>
1

>  <lip_violation>
1

>  <logP(o/w)>
4.586

>  <logS>
-7.1465502

>  <mr>
9.5933113

>  <mutagenic>
0

>  <nmol>
1

>  <opr_brigid>
5

>  <opr_leadlike>
0

>  <opr_nring>
0

>  <opr_nrot>
13

>  <opr_violation>
2

>  <PC+>
0

>  <PC->
0

>  <PEOE_PC+>
1.6843039

>  <PEOE_PC->
-1.6843039

>  <PEOE_RPC+>
0.1541273

>  <PEOE_RPC->
0.19667907

>  <PEOE_VSA+0>
89.743645

>  <PEOE_VSA+1>
42.653858

>  <PEOE_VSA+2>
0

>  <PEOE_VSA+3>
0

>  <PEOE_VSA+4>
10.324173

>  <PEOE_VSA+5>
14.708499

>  <PEOE_VSA+6>
0

>  <PEOE_VSA-0>
60.909191

>  <PEOE_VSA-1>
141.29672

>  <PEOE_VSA-2>
0

>  <PEOE_VSA-3>
0

>  <PEOE_VSA-4>
0

>  <PEOE_VSA-5>
13.566921

>  <PEOE_VSA-6>
7.7675405

>  <PEOE_VSA_FHYD>
0.87829208

>  <PEOE_VSA_FNEG>
0.58676547

>  <PEOE_VSA_FPNEG>
0.056000289

>  <PEOE_VSA_FPOL>
0.12170792

>  <PEOE_VSA_FPOS>
0.4132345

>  <PEOE_VSA_FPPOS>
0.065707631

>  <PEOE_VSA_HYD>
334.60342

>  <PEOE_VSA_NEG>
223.54037

>  <PEOE_VSA_PNEG>
21.334461

>  <PEOE_VSA_POL>
46.367134

>  <PEOE_VSA_POS>
157.43018

>  <PEOE_VSA_PPOS>
25.032671

>  <petitjean>
0.5

>  <petitjeanSC>
1

>  <Q_PC+>
0

>  <Q_PC->
0

>  <Q_RPC+>
0

>  <Q_RPC->
0

>  <Q_VSA_FHYD>
1

>  <Q_VSA_FNEG>
0

>  <Q_VSA_FPNEG>
0

>  <Q_VSA_FPOL>
0

>  <Q_VSA_FPOS>
1

>  <Q_VSA_FPPOS>
0

>  <Q_VSA_HYD>
380.97055

>  <Q_VSA_NEG>
0

>  <Q_VSA_PNEG>
0

>  <Q_VSA_POL>
0

>  <Q_VSA_POS>
380.97055

>  <Q_VSA_PPOS>
0

>  <radius>
10

>  <reactive>
0

>  <rings>
0

>  <RPC+>
0

>  <RPC->
0

>  <rsynth>
0

>  <SlogP>
5.9927001

>  <SlogP_VSA0>
0

>  <SlogP_VSA1>
7.7454643

>  <SlogP_VSA2>
23.862217

>  <SlogP_VSA3>
25.385227

>  <SlogP_VSA4>
0

>  <SlogP_VSA5>
0

>  <SlogP_VSA6>
0

>  <SlogP_VSA7>
176.43184

>  <SlogP_VSA8>
150.94725

>  <SlogP_VSA9>
33.326015

>  <SMR>
9.5945797

>  <SMR_VSA0>
23.862217

>  <SMR_VSA1>
0

>  <SMR_VSA2>
25.385227

>  <SMR_VSA3>
0

>  <SMR_VSA4>
0

>  <SMR_VSA5>
327.37909

>  <SMR_VSA6>
7.7454643

>  <SMR_VSA7>
33.326015

>  <TPSA>
37.299999

>  <VAdjEq>
0.42561889

>  <VAdjMa>
5.3923173

>  <VDistEq>
4.1197438

>  <VDistMa>
8.5286617

>  <vdw_area>
380.97055

>  <vdw_vol>
482.67215

>  <vsa_acc>
0

>  <vsa_acid>
0

>  <vsa_base>
0

>  <vsa_don>
0

>  <vsa_hyd>
313.96136

>  <vsa_other>
14.708499

>  <vsa_pol>
27.133842

>  <Weight>
302.45801

>  <weinerPath>
1752

>  <weinerPol>
19

>  <zagreb>
84

$$$$