OC1(CCC2C3C(C4(C(=CC(=O)CC4)CC3)C)C(O)CC12C)C(=O)COC(=O)CN(CC)CC
  MOE2013           2D

 34 37  0  0  1  0  0  0  0  0999 V2000
    0.0000    0.0000    0.0000 O   0  0  0  0  0  0  0  0  0  0  0  0
    0.4490    1.4310    0.0000 C   0  0  3  0  0  0  0  0  0  0  0  0
    0.2520    2.9180    0.0000 C   0  0  0  0  0  0  0  0  0  0  0  0
    1.6050    3.5650    0.0000 C   0  0  0  0  0  0  0  0  0  0  0  0
    2.6390    2.4790    0.0000 C   0  0  3  0  0  0  0  0  0  0  0  0
    4.1380    2.5200    0.0000 C   0  0  3  0  0  0  0  0  0  0  0  0
    4.9230    1.2420    0.0000 C   0  0  3  0  0  0  0  0  0  0  0  0
    6.4230    1.2830    0.0000 C   0  0  3  0  0  0  0  0  0  0  0  0
    7.1370    2.6020    0.0000 C   0  0  0  0  0  0  0  0  0  0  0  0
    8.6360    2.6430    0.0000 C   0  0  0  0  0  0  0  0  0  0  0  0
    9.4220    1.3650    0.0000 C   0  0  0  0  0  0  0  0  0  0  0  0
   10.9210    1.4060    0.0000 O   0  0  0  0  0  0  0  0  0  0  0  0
    8.7080    0.0460    0.0000 C   0  0  0  0  0  0  0  0  0  0  0  0
    7.2080    0.0050    0.0000 C   0  0  0  0  0  0  0  0  0  0  0  0
    6.3520    3.8800    0.0000 C   0  0  0  0  0  0  0  0  0  0  0  0
    4.8520    3.8390    0.0000 C   0  0  0  0  0  0  0  0  0  0  0  0
    5.7090   -0.0360    0.0000 C   0  0  0  0  0  0  0  0  0  0  0  0
    4.2090   -0.0770    0.0000 C   0  0  3  0  0  0  0  0  0  0  0  0
    4.9950   -1.3550    0.0000 O   0  0  0  0  0  0  0  0  0  0  0  0
    2.7100   -0.1180    0.0000 C   0  0  0  0  0  0  0  0  0  0  0  0
    1.9250    1.1600    0.0000 C   0  0  3  0  0  0  0  0  0  0  0  0
    1.0980   -0.0920    0.0000 C   0  0  0  0  0  0  0  0  0  0  0  0
   -1.0250    1.1560    0.0000 C   0  0  0  0  0  0  0  0  0  0  0  0
   -1.5240   -0.2590    0.0000 O   0  0  0  0  0  0  0  0  0  0  0  0
   -2.0010    2.2950    0.0000 C   0  0  0  0  0  0  0  0  0  0  0  0
   -3.4750    2.0200    0.0000 O   0  0  0  0  0  0  0  0  0  0  0  0
   -4.4510    3.1600    0.0000 C   0  0  0  0  0  0  0  0  0  0  0  0
   -3.9520    4.5740    0.0000 O   0  0  0  0  0  0  0  0  0  0  0  0
   -5.9250    2.8850    0.0000 C   0  0  0  0  0  0  0  0  0  0  0  0
   -6.9010    4.0240    0.0000 N   0  0  0  0  0  0  0  0  0  0  0  0
   -8.3750    3.7490    0.0000 C   0  0  0  0  0  0  0  0  0  0  0  0
   -8.8740    2.3340    0.0000 C   0  0  0  0  0  0  0  0  0  0  0  0
   -6.4020    5.4390    0.0000 C   0  0  0  0  0  0  0  0  0  0  0  0
   -7.3770    6.5780    0.0000 C   0  0  0  0  0  0  0  0  0  0  0  0
  1  2  1  0  0  0  0
  2  3  1  0  0  0  0
  2 21  1  0  0  0  0
  2 23  1  0  0  0  0
  3  4  1  0  0  0  0
  4  5  1  0  0  0  0
  5  6  1  0  0  0  0
  5 21  1  0  0  0  0
  6  7  1  0  0  0  0
  6 16  1  0  0  0  0
  7  8  1  0  0  0  0
  7 18  1  0  0  0  0
  8  9  1  0  0  0  0
  8 14  1  0  0  0  0
  8 17  1  0  0  0  0
  9 10  2  0  0  0  0
  9 15  1  0  0  0  0
 10 11  1  0  0  0  0
 11 12  2  0  0  0  0
 11 13  1  0  0  0  0
 13 14  1  0  0  0  0
 15 16  1  0  0  0  0
 18 19  1  0  0  0  0
 18 20  1  0  0  0  0
 20 21  1  0  0  0  0
 21 22  1  0  0  0  0
 23 24  2  0  0  0  0
 23 25  1  0  0  0  0
 25 26  1  0  0  0  0
 26 27  1  0  0  0  0
 27 28  2  0  0  0  0
 27 29  1  0  0  0  0
 29 30  1  0  0  0  0
 30 31  1  0  0  0  0
 30 33  1  0  0  0  0
 31 32  1  0  0  0  0
 33 34  1  0  0  0  0
M  END
>  <Index>
528

>  <ID>
HT1046

>  <class>
0

>  <apol>
80.770515

>  <ast_fraglike>
0

>  <ast_fraglike_ext>
0

>  <ast_violation>
2

>  <ast_violation_ext>
4

>  <a_acc>
6

>  <a_acid>
0

>  <a_aro>
0

>  <a_base>
0

>  <a_count>
75

>  <a_don>
2

>  <a_donacc>
8

>  <a_heavy>
34

>  <a_hyd>
24

>  <a_IC>
103.61003

>  <a_ICM>
1.3814671

>  <a_nB>
0

>  <a_nBr>
0

>  <a_nC>
27

>  <a_nCl>
0

>  <a_nF>
0

>  <a_nH>
41

>  <a_nI>
0

>  <a_nN>
1

>  <a_nO>
6

>  <a_nP>
0

>  <a_nS>
0

>  <balabanJ>
1.4782101

>  <BCUT_PEOE_0>
-2.9384379

>  <BCUT_PEOE_1>
-0.39324537

>  <BCUT_PEOE_2>
0.36687317

>  <BCUT_PEOE_3>
2.9809837

>  <BCUT_SLOGP_0>
-2.9096444

>  <BCUT_SLOGP_1>
-0.36106122

>  <BCUT_SLOGP_2>
0.38116562

>  <BCUT_SLOGP_3>
3.0162127

>  <BCUT_SMR_0>
-2.6915264

>  <BCUT_SMR_1>
-0.23154877

>  <BCUT_SMR_2>
0.53569096

>  <BCUT_SMR_3>
3.2220275

>  <bpol>
51.591488

>  <b_1rotN>
7

>  <b_1rotR>
0.1891892

>  <b_ar>
0

>  <b_count>
78

>  <b_double>
4

>  <b_heavy>
37

>  <b_max1len>
6

>  <b_rotN>
8

>  <b_rotR>
0.21621622

>  <b_single>
74

>  <b_triple>
0

>  <chi0>
24.88854

>  <chi0v>
21.139561

>  <chi0v_C>
18.164927

>  <chi0_C>
18.604084

>  <chi1>
15.996203

>  <chi1v>
13.054193

>  <chi1v_C>
10.518533

>  <chi1_C>
11.053809

>  <chiral>
7

>  <chiral_u>
7

>  <density>
0.71939957

>  <diameter>
17

>  <FCharge>
0

>  <GCUT_PEOE_0>
-0.8461327

>  <GCUT_PEOE_1>
-0.37595266

>  <GCUT_PEOE_2>
-0.052535191

>  <GCUT_PEOE_3>
3.4005337

>  <GCUT_SLOGP_0>
-0.96238673

>  <GCUT_SLOGP_1>
-0.31004456

>  <GCUT_SLOGP_2>
-0.011611985

>  <GCUT_SLOGP_3>
3.4379675

>  <GCUT_SMR_0>
-0.53918213

>  <GCUT_SMR_1>
-0.19516473

>  <GCUT_SMR_2>
0.08949244

>  <GCUT_SMR_3>
3.6208735

>  <Kier1>
27.046019

>  <Kier2>
10.045184

>  <Kier3>
4.4988661

>  <KierA1>
24.319006

>  <KierA2>
9.002141

>  <KierA3>
4.0222492

>  <KierFlex>
6.4389153

>  <lip_acc>
7

>  <lip_don>
2

>  <lip_druglike>
1

>  <lip_violation>
0

>  <logP(o/w)>
2.036

>  <logS>
-4.0977898

>  <mr>
12.87041

>  <mutagenic>
0

>  <nmol>
1

>  <opr_brigid>
20

>  <opr_leadlike>
1

>  <opr_nring>
4

>  <opr_nrot>
7

>  <opr_violation>
1

>  <PC+>
0

>  <PC->
0

>  <PEOE_PC+>
2.7845354

>  <PEOE_PC->
-2.7845354

>  <PEOE_RPC+>
0.099383622

>  <PEOE_RPC->
0.140582

>  <PEOE_VSA+0>
149.45905

>  <PEOE_VSA+1>
43.689571

>  <PEOE_VSA+2>
14.951293

>  <PEOE_VSA+3>
16.917038

>  <PEOE_VSA+4>
20.648346

>  <PEOE_VSA+5>
14.708499

>  <PEOE_VSA+6>
0

>  <PEOE_VSA-0>
90.847435

>  <PEOE_VSA-1>
77.199249

>  <PEOE_VSA-2>
0

>  <PEOE_VSA-3>
0

>  <PEOE_VSA-4>
0

>  <PEOE_VSA-5>
40.700764

>  <PEOE_VSA-6>
18.038837

>  <PEOE_VSA_FHYD>
0.80684698

>  <PEOE_VSA_FNEG>
0.46552724

>  <PEOE_VSA_FPNEG>
0.12057556

>  <PEOE_VSA_FPOL>
0.19315302

>  <PEOE_VSA_FPOS>
0.53447276

>  <PEOE_VSA_FPPOS>
0.072577469

>  <PEOE_VSA_HYD>
393.06363

>  <PEOE_VSA_NEG>
226.78629

>  <PEOE_VSA_PNEG>
58.739597

>  <PEOE_VSA_POL>
94.096443

>  <PEOE_VSA_POS>
260.37381

>  <PEOE_VSA_PPOS>
35.356846

>  <petitjean>
0.47058824

>  <petitjeanSC>
0.8888889

>  <Q_PC+>
0

>  <Q_PC->
0

>  <Q_RPC+>
0

>  <Q_RPC->
0

>  <Q_VSA_FHYD>
1

>  <Q_VSA_FNEG>
0

>  <Q_VSA_FPNEG>
0

>  <Q_VSA_FPOL>
0

>  <Q_VSA_FPOS>
1

>  <Q_VSA_FPPOS>
0

>  <Q_VSA_HYD>
487.16006

>  <Q_VSA_NEG>
0

>  <Q_VSA_PNEG>
0

>  <Q_VSA_POL>
0

>  <Q_VSA_POS>
487.16006

>  <Q_VSA_PPOS>
0

>  <radius>
9

>  <reactive>
1

>  <rings>
4

>  <RPC+>
0

>  <RPC->
0

>  <rsynth>
1

>  <SlogP>
2.6743

>  <SlogP_VSA0>
50.770454

>  <SlogP_VSA1>
22.245001

>  <SlogP_VSA2>
89.055183

>  <SlogP_VSA3>
76.244995

>  <SlogP_VSA4>
13.232388

>  <SlogP_VSA5>
3.185575

>  <SlogP_VSA6>
0

>  <SlogP_VSA7>
17.643185

>  <SlogP_VSA8>
132.07884

>  <SlogP_VSA9>
133.30406

>  <SMR>
12.68036

>  <SMR_VSA0>
82.58654

>  <SMR_VSA1>
53.894768

>  <SMR_VSA2>
13.232388

>  <SMR_VSA3>
9.6542244

>  <SMR_VSA4>
0

>  <SMR_VSA5>
149.72202

>  <SMR_VSA6>
95.365677

>  <SMR_VSA7>
133.30406

>  <TPSA>
104.14

>  <VAdjEq>
0.34317648

>  <VAdjMa>
6.2094536

>  <VDistEq>
3.7586391

>  <VDistMa>
9.8671675

>  <vdw_area>
487.16006

>  <vdw_vol>
661.14301

>  <vsa_acc>
40.700764

>  <vsa_acid>
0

>  <vsa_base>
0

>  <vsa_don>
0

>  <vsa_hyd>
344.35144

>  <vsa_other>
34.129295

>  <vsa_pol>
67.834602

>  <Weight>
475.62598

>  <weinerPath>
3453

>  <weinerPol>
70

>  <zagreb>
190

$$$$