P(OCC(=O)[C@@]1(O)CC[C@H]2[C@H]3[C@@H]([C@@]4(C(=CC(=O)CC4)CC3)C)[C@@H](O)C[C@]12C)(O)(O)=O
  MOE2013           2D

 30 33  0  0  1  0  0  0  0  0999 V2000
    0.0000    0.0000    0.0000 P   0  0  0  0  0  0  0  0  0  0  0  0
    1.2930    0.7610    0.0000 O   0  0  0  0  0  0  0  0  0  0  0  0
    2.5980    0.0210    0.0000 C   0  0  0  0  0  0  0  0  0  0  0  0
    3.8910    0.7820    0.0000 C   0  0  0  0  0  0  0  0  0  0  0  0
    3.8790    2.2820    0.0000 O   0  0  0  0  0  0  0  0  0  0  0  0
    5.1960    0.0420    0.0000 C   0  0  1  0  0  0  0  0  0  0  0  0
    5.2360    1.5420    0.0000 O   0  0  0  0  0  0  0  0  0  0  0  0
    4.5260   -1.3000    0.0000 C   0  0  0  0  0  0  0  0  0  0  0  0
    5.5950   -2.3520    0.0000 C   0  0  0  0  0  0  0  0  0  0  0  0
    6.9260   -1.6600    0.0000 C   0  0  1  0  0  0  0  0  0  0  0  0
    8.3310   -2.1860    0.0000 C   0  0  1  0  0  0  0  0  0  0  0  0
    9.4890   -1.2330    0.0000 C   0  0  1  0  0  0  0  0  0  0  0  0
   10.8930   -1.7590    0.0000 C   0  0  2  0  0  0  0  0  0  0  0  0
   11.1400   -3.2380    0.0000 C   0  0  0  0  0  0  0  0  0  0  0  0
   12.5450   -3.7650    0.0000 C   0  0  0  0  0  0  0  0  0  0  0  0
   13.7030   -2.8110    0.0000 C   0  0  0  0  0  0  0  0  0  0  0  0
   15.1080   -3.3370    0.0000 O   0  0  0  0  0  0  0  0  0  0  0  0
   13.4560   -1.3320    0.0000 C   0  0  0  0  0  0  0  0  0  0  0  0
   12.0510   -0.8050    0.0000 C   0  0  0  0  0  0  0  0  0  0  0  0
    9.9820   -4.1920    0.0000 C   0  0  0  0  0  0  0  0  0  0  0  0
    8.5770   -3.6660    0.0000 C   0  0  0  0  0  0  0  0  0  0  0  0
   10.6470   -0.2790    0.0000 C   0  0  0  0  0  0  0  0  0  0  0  0
    9.2420    0.2470    0.0000 C   0  0  1  0  0  0  0  0  0  0  0  0
   10.4000    1.2000    0.0000 O   0  0  0  0  0  0  0  0  0  0  0  0
    7.8370    0.7730    0.0000 C   0  0  0  0  0  0  0  0  0  0  0  0
    6.6790   -0.1800    0.0000 C   0  0  2  0  0  0  0  0  0  0  0  0
    6.3050    1.2720    0.0000 C   0  0  0  0  0  0  0  0  0  0  0  0
    0.7610   -1.2930    0.0000 O   0  0  0  0  0  0  0  0  0  0  0  0
   -0.7610    1.2930    0.0000 O   0  0  0  0  0  0  0  0  0  0  0  0
   -1.2930   -0.7610    0.0000 O   0  0  0  0  0  0  0  0  0  0  0  0
  1  2  1  0  0  0  0
  1 28  1  0  0  0  0
  1 29  1  0  0  0  0
  1 30  2  0  0  0  0
  2  3  1  0  0  0  0
  3  4  1  0  0  0  0
  4  5  2  0  0  0  0
  6  4  1  6  0  0  0
  6  7  1  1  0  0  0
  6  8  1  0  0  0  0
  6 26  1  0  0  0  0
  8  9  1  0  0  0  0
 10  9  1  6  0  0  0
 10 11  1  0  0  0  0
 10 26  1  0  0  0  0
 11 12  1  0  0  0  0
 11 21  1  1  0  0  0
 12 13  1  6  0  0  0
 12 23  1  0  0  0  0
 13 14  1  0  0  0  0
 13 19  1  0  0  0  0
 13 22  1  6  0  0  0
 14 15  2  0  0  0  0
 14 20  1  0  0  0  0
 15 16  1  0  0  0  0
 16 17  2  0  0  0  0
 16 18  1  0  0  0  0
 18 19  1  0  0  0  0
 20 21  1  0  0  0  0
 23 24  1  6  0  0  0
 23 25  1  0  0  0  0
 25 26  1  0  0  0  0
 26 27  1  6  0  0  0
M  END
>  <Index>
534

>  <ID>
HT1052

>  <class>
0

>  <apol>
67.676582

>  <ast_fraglike>
0

>  <ast_fraglike_ext>
0

>  <ast_violation>
3

>  <ast_violation_ext>
5

>  <a_acc>
8

>  <a_acid>
0

>  <a_aro>
0

>  <a_base>
0

>  <a_count>
61

>  <a_don>
5

>  <a_donacc>
13

>  <a_heavy>
30

>  <a_hyd>
19

>  <a_IC>
91.956223

>  <a_ICM>
1.5074791

>  <a_nB>
0

>  <a_nBr>
0

>  <a_nC>
21

>  <a_nCl>
0

>  <a_nF>
0

>  <a_nH>
31

>  <a_nI>
0

>  <a_nN>
0

>  <a_nO>
8

>  <a_nP>
1

>  <a_nS>
0

>  <balabanJ>
1.5913033

>  <BCUT_PEOE_0>
-2.9384785

>  <BCUT_PEOE_1>
-0.54648131

>  <BCUT_PEOE_2>
0.56404763

>  <BCUT_PEOE_3>
2.9808614

>  <BCUT_SLOGP_0>
-2.9094946

>  <BCUT_SLOGP_1>
-0.50580657

>  <BCUT_SLOGP_2>
0.45088324

>  <BCUT_SLOGP_3>
3.0163002

>  <BCUT_SMR_0>
-2.6915326

>  <BCUT_SMR_1>
-0.3962169

>  <BCUT_SMR_2>
0.70538276

>  <BCUT_SMR_3>
3.2221386

>  <bpol>
46.159416

>  <b_1rotN>
4

>  <b_1rotR>
0.12121212

>  <b_ar>
0

>  <b_count>
64

>  <b_double>
3

>  <b_heavy>
33

>  <b_max1len>
8

>  <b_rotN>
4

>  <b_rotR>
0.12121212

>  <b_single>
61

>  <b_triple>
0

>  <chi0>
22.11252

>  <chi0v>
18.307095

>  <chi0v_C>
13.543606

>  <chi0_C>
13.905413

>  <chi1>
13.816951

>  <chi1v>
12.22494

>  <chi1v_C>
8.7507658

>  <chi1_C>
9.2313471

>  <chiral>
7

>  <chiral_u>
0

>  <density>
0.80741578

>  <diameter>
14

>  <FCharge>
0

>  <GCUT_PEOE_0>
-0.80084383

>  <GCUT_PEOE_1>
-0.4027957

>  <GCUT_PEOE_2>
0.032125723

>  <GCUT_PEOE_3>
3.3765731

>  <GCUT_SLOGP_0>
-1.2940118

>  <GCUT_SLOGP_1>
-0.37303722

>  <GCUT_SLOGP_2>
-0.0080793398

>  <GCUT_SLOGP_3>
3.4196057

>  <GCUT_SMR_0>
-0.53917485

>  <GCUT_SMR_1>
-0.22994868

>  <GCUT_SMR_2>
0.15024605

>  <GCUT_SMR_3>
3.5978143

>  <Kier1>
23.168043

>  <Kier2>
7.5160332

>  <Kier3>
3.5702479

>  <KierA1>
22.427416

>  <KierA2>
7.2673736

>  <KierA3>
3.4493144

>  <KierFlex>
5.4329472

>  <lip_acc>
8

>  <lip_don>
4

>  <lip_druglike>
1

>  <lip_violation>
0

>  <logP(o/w)>
0.127

>  <logS>
-2.7223499

>  <mr>
10.95248

>  <mutagenic>
0

>  <nmol>
1

>  <opr_brigid>
20

>  <opr_leadlike>
1

>  <opr_nring>
4

>  <opr_nrot>
4

>  <opr_violation>
0

>  <PC+>
0

>  <PC->
0

>  <PEOE_PC+>
2.7498982

>  <PEOE_PC->
-2.7498982

>  <PEOE_RPC+>
0.14960729

>  <PEOE_RPC->
0.14235274

>  <PEOE_VSA+0>
106.80519

>  <PEOE_VSA+1>
21.966473

>  <PEOE_VSA+2>
14.951293

>  <PEOE_VSA+3>
37.565384

>  <PEOE_VSA+4>
20.648346

>  <PEOE_VSA+5>
0

>  <PEOE_VSA+6>
18.713068

>  <PEOE_VSA-0>
64.462784

>  <PEOE_VSA-1>
39.703896

>  <PEOE_VSA-2>
15.729136

>  <PEOE_VSA-3>
0

>  <PEOE_VSA-4>
0

>  <PEOE_VSA-5>
51.659325

>  <PEOE_VSA-6>
15.535081

>  <PEOE_VSA_FHYD>
0.73866725

>  <PEOE_VSA_FNEG>
0.4588469

>  <PEOE_VSA_FPNEG>
0.1647972

>  <PEOE_VSA_FPOL>
0.26133278

>  <PEOE_VSA_FPOS>
0.54115313

>  <PEOE_VSA_FPPOS>
0.096535578

>  <PEOE_VSA_HYD>
301.18414

>  <PEOE_VSA_NEG>
187.09023

>  <PEOE_VSA_PNEG>
67.194405

>  <PEOE_VSA_POL>
106.55582

>  <PEOE_VSA_POS>
220.64975

>  <PEOE_VSA_PPOS>
39.361416

>  <petitjean>
0.5

>  <petitjeanSC>
1

>  <Q_PC+>
0

>  <Q_PC->
0

>  <Q_RPC+>
0

>  <Q_RPC->
0

>  <Q_VSA_FHYD>
1

>  <Q_VSA_FNEG>
0

>  <Q_VSA_FPNEG>
0

>  <Q_VSA_FPOL>
0

>  <Q_VSA_FPOS>
1

>  <Q_VSA_FPPOS>
0

>  <Q_VSA_HYD>
407.73999

>  <Q_VSA_NEG>
0

>  <Q_VSA_PNEG>
0

>  <Q_VSA_POL>
0

>  <Q_VSA_POS>
407.73999

>  <Q_VSA_PPOS>
0

>  <radius>
7

>  <reactive>
1

>  <rings>
4

>  <RPC+>
0

>  <RPC->
0

>  <rsynth>
0.16666667

>  <SlogP>
0.82840002

>  <SlogP_VSA0>
115.81815

>  <SlogP_VSA1>
11.375222

>  <SlogP_VSA2>
61.114712

>  <SlogP_VSA3>
20.926258

>  <SlogP_VSA4>
13.232388

>  <SlogP_VSA5>
3.185575

>  <SlogP_VSA6>
0

>  <SlogP_VSA7>
17.643185

>  <SlogP_VSA8>
132.07884

>  <SlogP_VSA9>
83.34687

>  <SMR>
10.53662

>  <SMR_VSA0>
77.079826

>  <SMR_VSA1>
93.384392

>  <SMR_VSA2>
13.232388

>  <SMR_VSA3>
9.6542244

>  <SMR_VSA4>
0

>  <SMR_VSA5>
149.72202

>  <SMR_VSA6>
32.301479

>  <SMR_VSA7>
83.34687

>  <TPSA>
141.36

>  <VAdjEq>
0.37824166

>  <VAdjMa>
6.044394

>  <VDistEq>
3.4659216

>  <VDistMa>
9.5265055

>  <vdw_area>
407.73999

>  <vdw_vol>
547.97662

>  <vsa_acc>
31.799814

>  <vsa_acid>
0

>  <vsa_base>
0

>  <vsa_don>
0

>  <vsa_hyd>
224.636

>  <vsa_other>
35.630108

>  <vsa_pol>
106.12106

>  <Weight>
442.44498

>  <weinerPath>
2256

>  <weinerPol>
63

>  <zagreb>
176

$$$$