Clc1cc2nccc(NC(CCCN(CCO)CC)C)c2cc1
  MOE2013           2D

 23 24  0  0  1  0  0  0  0  0999 V2000
    0.0000    0.0000    0.0000 Cl  0  0  0  0  0  0  0  0  0  0  0  0
   -1.5000   -0.0110    0.0000 C   0  0  0  0  0  0  0  0  0  0  0  0
   -2.2590    1.2830    0.0000 C   0  0  0  0  0  0  0  0  0  0  0  0
   -3.7590    1.2720    0.0000 C   0  0  0  0  0  0  0  0  0  0  0  0
   -4.5190    2.5650    0.0000 N   0  0  0  0  0  0  0  0  0  0  0  0
   -6.0190    2.5550    0.0000 C   0  0  0  0  0  0  0  0  0  0  0  0
   -6.7590    1.2500    0.0000 C   0  0  0  0  0  0  0  0  0  0  0  0
   -6.0000   -0.0430    0.0000 C   0  0  0  0  0  0  0  0  0  0  0  0
   -6.7400   -1.3480    0.0000 N   0  0  0  0  0  0  0  0  0  0  0  0
   -8.2400   -1.3590    0.0000 C   0  0  3  0  0  0  0  0  0  0  0  0
   -9.0000   -0.0650    0.0000 C   0  0  0  0  0  0  0  0  0  0  0  0
  -10.5000   -0.0760    0.0000 C   0  0  0  0  0  0  0  0  0  0  0  0
  -11.2590    1.2180    0.0000 C   0  0  0  0  0  0  0  0  0  0  0  0
  -12.7590    1.2070    0.0000 N   0  0  3  0  0  0  0  0  0  0  0  0
  -13.5000   -0.0980    0.0000 C   0  0  0  0  0  0  0  0  0  0  0  0
  -15.0000   -0.1080    0.0000 C   0  0  0  0  0  0  0  0  0  0  0  0
  -15.7400   -1.4130    0.0000 O   0  0  0  0  0  0  0  0  0  0  0  0
  -13.5180    2.5000    0.0000 C   0  0  0  0  0  0  0  0  0  0  0  0
  -12.7780    3.8050    0.0000 C   0  0  0  0  0  0  0  0  0  0  0  0
   -8.9810   -2.6630    0.0000 C   0  0  0  0  0  0  0  0  0  0  0  0
   -4.5000   -0.0330    0.0000 C   0  0  0  0  0  0  0  0  0  0  0  0
   -3.7410   -1.3260    0.0000 C   0  0  0  0  0  0  0  0  0  0  0  0
   -2.2410   -1.3150    0.0000 C   0  0  0  0  0  0  0  0  0  0  0  0
  1  2  1  0  0  0  0
  2  3  1  0  0  0  0
  2 23  2  0  0  0  0
  3  4  2  0  0  0  0
  4  5  1  0  0  0  0
  4 21  1  0  0  0  0
  5  6  2  0  0  0  0
  6  7  1  0  0  0  0
  7  8  2  0  0  0  0
  8  9  1  0  0  0  0
  8 21  1  0  0  0  0
  9 10  1  0  0  0  0
 10 11  1  0  0  0  0
 10 20  1  0  0  0  0
 11 12  1  0  0  0  0
 12 13  1  0  0  0  0
 13 14  1  0  0  0  0
 14 15  1  0  0  0  0
 14 18  1  0  0  0  0
 15 16  1  0  0  0  0
 16 17  1  0  0  0  0
 18 19  1  0  0  0  0
 21 22  2  0  0  0  0
 22 23  1  0  0  0  0
M  END
>  <Index>
538

>  <ID>
HT1061

>  <class>
0

>  <apol>
55.298618

>  <ast_fraglike>
0

>  <ast_fraglike_ext>
0

>  <ast_violation>
2

>  <ast_violation_ext>
3

>  <a_acc>
3

>  <a_acid>
0

>  <a_aro>
10

>  <a_base>
0

>  <a_count>
49

>  <a_don>
2

>  <a_donacc>
5

>  <a_heavy>
23

>  <a_hyd>
19

>  <a_IC>
73.09581

>  <a_ICM>
1.4917513

>  <a_nB>
0

>  <a_nBr>
0

>  <a_nC>
18

>  <a_nCl>
1

>  <a_nF>
0

>  <a_nH>
26

>  <a_nI>
0

>  <a_nN>
3

>  <a_nO>
1

>  <a_nP>
0

>  <a_nS>
0

>  <balabanJ>
1.7071848

>  <BCUT_PEOE_0>
-2.7255349

>  <BCUT_PEOE_1>
-0.56377304

>  <BCUT_PEOE_2>
0.58635724

>  <BCUT_PEOE_3>
2.6425762

>  <BCUT_SLOGP_0>
-2.7714784

>  <BCUT_SLOGP_1>
-0.43249303

>  <BCUT_SLOGP_2>
0.6338954

>  <BCUT_SLOGP_3>
2.6710722

>  <BCUT_SMR_0>
-2.4535501

>  <BCUT_SMR_1>
-0.35787159

>  <BCUT_SMR_2>
0.80017018

>  <BCUT_SMR_3>
2.9096878

>  <bpol>
32.803383

>  <b_1rotN>
9

>  <b_1rotR>
0.375

>  <b_ar>
11

>  <b_count>
50

>  <b_double>
0

>  <b_heavy>
24

>  <b_max1len>
10

>  <b_rotN>
9

>  <b_rotR>
0.375

>  <b_single>
39

>  <b_triple>
0

>  <chi0>
16.65649

>  <chi0v>
14.682277

>  <chi0v_C>
11.706742

>  <chi0_C>
12.664926

>  <chi1>
11.134561

>  <chi1v>
8.6550865

>  <chi1v_C>
5.8027477

>  <chi1_C>
6.9006133

>  <chiral>
1

>  <chiral_u>
1

>  <density>
0.71411598

>  <diameter>
14

>  <FCharge>
0

>  <GCUT_PEOE_0>
-0.85591733

>  <GCUT_PEOE_1>
-0.36556283

>  <GCUT_PEOE_2>
0.043526322

>  <GCUT_PEOE_3>
2.6817398

>  <GCUT_SLOGP_0>
-0.98257565

>  <GCUT_SLOGP_1>
-0.27968076

>  <GCUT_SLOGP_2>
0.13428044

>  <GCUT_SLOGP_3>
2.7588785

>  <GCUT_SMR_0>
-0.52460891

>  <GCUT_SMR_1>
-0.17568123

>  <GCUT_SMR_2>
0.18449563

>  <GCUT_SMR_3>
2.9447241

>  <Kier1>
19.326389

>  <Kier2>
10.095734

>  <Kier3>
6.094183

>  <KierA1>
16.715828

>  <KierA2>
8.6712513

>  <KierA3>
5.2066832

>  <KierFlex>
6.3020496

>  <lip_acc>
4

>  <lip_don>
2

>  <lip_druglike>
1

>  <lip_violation>
0

>  <logP(o/w)>
3.2520001

>  <logS>
-3.2574799

>  <mr>
9.6746702

>  <mutagenic>
0

>  <nmol>
1

>  <opr_brigid>
11

>  <opr_leadlike>
1

>  <opr_nring>
2

>  <opr_nrot>
9

>  <opr_violation>
0

>  <PC+>
0

>  <PC->
0

>  <PEOE_PC+>
1.6336962

>  <PEOE_PC->
-1.6336962

>  <PEOE_RPC+>
0.12820661

>  <PEOE_RPC->
0.24101615

>  <PEOE_VSA+0>
119.0236

>  <PEOE_VSA+1>
51.508545

>  <PEOE_VSA+2>
8.6190128

>  <PEOE_VSA+3>
0

>  <PEOE_VSA+4>
10.324173

>  <PEOE_VSA+5>
0

>  <PEOE_VSA+6>
0

>  <PEOE_VSA-0>
111.55457

>  <PEOE_VSA-1>
48.329624

>  <PEOE_VSA-2>
0

>  <PEOE_VSA-3>
0

>  <PEOE_VSA-4>
0

>  <PEOE_VSA-5>
5.8194671

>  <PEOE_VSA-6>
7.7675405

>  <PEOE_VSA_FHYD>
0.93411928

>  <PEOE_VSA_FNEG>
0.47795248

>  <PEOE_VSA_FPNEG>
0.037435286

>  <PEOE_VSA_FPOL>
0.065880723

>  <PEOE_VSA_FPOS>
0.52204752

>  <PEOE_VSA_FPPOS>
0.028445438

>  <PEOE_VSA_HYD>
339.03534

>  <PEOE_VSA_NEG>
173.47121

>  <PEOE_VSA_PNEG>
13.587008

>  <PEOE_VSA_POL>
23.91118

>  <PEOE_VSA_POS>
189.47533

>  <PEOE_VSA_PPOS>
10.324173

>  <petitjean>
0.5

>  <petitjeanSC>
1

>  <Q_PC+>
0

>  <Q_PC->
0

>  <Q_RPC+>
0

>  <Q_RPC->
0

>  <Q_VSA_FHYD>
1

>  <Q_VSA_FNEG>
0

>  <Q_VSA_FPNEG>
0

>  <Q_VSA_FPOL>
0

>  <Q_VSA_FPOS>
1

>  <Q_VSA_FPPOS>
0

>  <Q_VSA_HYD>
362.94653

>  <Q_VSA_NEG>
0

>  <Q_VSA_PNEG>
0

>  <Q_VSA_POL>
0

>  <Q_VSA_POS>
362.94653

>  <Q_VSA_PPOS>
0

>  <radius>
7

>  <reactive>
0

>  <rings>
2

>  <RPC+>
0

>  <RPC->
0

>  <rsynth>
0.60869563

>  <SlogP>
3.783

>  <SlogP_VSA0>
25.385227

>  <SlogP_VSA1>
37.920593

>  <SlogP_VSA2>
3.9819686

>  <SlogP_VSA3>
76.244995

>  <SlogP_VSA4>
0

>  <SlogP_VSA5>
0

>  <SlogP_VSA6>
3.5006065

>  <SlogP_VSA7>
92.504196

>  <SlogP_VSA8>
37.736813

>  <SlogP_VSA9>
108.55742

>  <SMR>
9.8271503

>  <SMR_VSA0>
0

>  <SMR_VSA1>
45.295071

>  <SMR_VSA2>
0

>  <SMR_VSA3>
7.4825754

>  <SMR_VSA4>
25.4846

>  <SMR_VSA5>
125.5239

>  <SMR_VSA6>
76.244995

>  <SMR_VSA7>
105.80067

>  <TPSA>
48.389999

>  <VAdjEq>
0.43892586

>  <VAdjMa>
5.5849624

>  <VDistEq>
3.5613494

>  <VDistMa>
8.7194891

>  <vdw_area>
362.94653

>  <vdw_vol>
470.34238

>  <vsa_acc>
5.6825762

>  <vsa_acid>
0

>  <vsa_base>
0

>  <vsa_don>
5.6825762

>  <vsa_hyd>
313.33325

>  <vsa_other>
0

>  <vsa_pol>
24.932074

>  <Weight>
335.879

>  <weinerPath>
1390

>  <weinerPol>
32

>  <zagreb>
110

$$$$