S(O)(=O)(=O)c1cc2c(N=C(c3[nH]c4c(cc(S(O)(=O)=O)cc4)c3O)C2=O)cc1
  MOE2013           2D

 28 31  0  0  0  0  0  0  0  0999 V2000
    0.0000    0.0000    0.0000 S   0  0  0  0  0  0  0  0  0  0  0  0
    1.3000    0.7480    0.0000 O   0  0  0  0  0  0  0  0  0  0  0  0
    0.7480   -1.3000    0.0000 O   0  0  0  0  0  0  0  0  0  0  0  0
   -0.7480    1.3000    0.0000 O   0  0  0  0  0  0  0  0  0  0  0  0
   -1.3000   -0.7480    0.0000 C   0  0  0  0  0  0  0  0  0  0  0  0
   -2.5980    0.0040    0.0000 C   0  0  0  0  0  0  0  0  0  0  0  0
   -3.8980   -0.7440    0.0000 C   0  0  0  0  0  0  0  0  0  0  0  0
   -3.9010   -2.2440    0.0000 C   0  0  0  0  0  0  0  0  0  0  0  0
   -5.3280   -2.7050    0.0000 N   0  0  0  0  0  0  0  0  0  0  0  0
   -6.2080   -1.4900    0.0000 C   0  0  0  0  0  0  0  0  0  0  0  0
   -7.7080   -1.4870    0.0000 C   0  0  0  0  0  0  0  0  0  0  0  0
   -8.5880   -0.2720    0.0000 N   0  0  0  0  0  0  0  0  0  0  0  0
  -10.0150   -0.7330    0.0000 C   0  0  0  0  0  0  0  0  0  0  0  0
  -10.0170   -2.2330    0.0000 C   0  0  0  0  0  0  0  0  0  0  0  0
  -11.3180   -2.9810    0.0000 C   0  0  0  0  0  0  0  0  0  0  0  0
  -12.6150   -2.2290    0.0000 C   0  0  0  0  0  0  0  0  0  0  0  0
  -13.9160   -2.9770    0.0000 S   0  0  0  0  0  0  0  0  0  0  0  0
  -15.2160   -3.7250    0.0000 O   0  0  0  0  0  0  0  0  0  0  0  0
  -14.6640   -1.6770    0.0000 O   0  0  0  0  0  0  0  0  0  0  0  0
  -13.1680   -4.2770    0.0000 O   0  0  0  0  0  0  0  0  0  0  0  0
  -12.6130   -0.7290    0.0000 C   0  0  0  0  0  0  0  0  0  0  0  0
  -11.3130    0.0190    0.0000 C   0  0  0  0  0  0  0  0  0  0  0  0
   -8.5920   -2.6990    0.0000 C   0  0  0  0  0  0  0  0  0  0  0  0
   -8.1300   -4.1270    0.0000 O   0  0  0  0  0  0  0  0  0  0  0  0
   -5.3240   -0.2780    0.0000 C   0  0  0  0  0  0  0  0  0  0  0  0
   -5.7850    1.1500    0.0000 O   0  0  0  0  0  0  0  0  0  0  0  0
   -2.6030   -2.9960    0.0000 C   0  0  0  0  0  0  0  0  0  0  0  0
   -1.3030   -2.2480    0.0000 C   0  0  0  0  0  0  0  0  0  0  0  0
  1  2  1  0  0  0  0
  1  3  2  0  0  0  0
  1  4  2  0  0  0  0
  1  5  1  0  0  0  0
  5  6  1  0  0  0  0
  5 28  2  0  0  0  0
  6  7  2  0  0  0  0
  7  8  1  0  0  0  0
  7 25  1  0  0  0  0
  8  9  1  0  0  0  0
  8 27  2  0  0  0  0
  9 10  2  0  0  0  0
 10 11  1  0  0  0  0
 10 25  1  0  0  0  0
 11 12  1  0  0  0  0
 11 23  2  0  0  0  0
 12 13  1  0  0  0  0
 13 14  1  0  0  0  0
 13 22  2  0  0  0  0
 14 15  2  0  0  0  0
 14 23  1  0  0  0  0
 15 16  1  0  0  0  0
 16 17  1  0  0  0  0
 16 21  2  0  0  0  0
 17 18  1  0  0  0  0
 17 19  2  0  0  0  0
 17 20  2  0  0  0  0
 21 22  1  0  0  0  0
 23 24  1  0  0  0  0
 25 26  2  0  0  0  0
 27 28  1  0  0  0  0
M  END
>  <Index>
555

>  <ID>
HT1092

>  <class>
0

>  <apol>
49.243931

>  <ast_fraglike>
0

>  <ast_fraglike_ext>
0

>  <ast_violation>
3

>  <ast_violation_ext>
4

>  <a_acc>
9

>  <a_acid>
0

>  <a_aro>
15

>  <a_base>
0

>  <a_count>
38

>  <a_don>
8

>  <a_donacc>
17

>  <a_heavy>
28

>  <a_hyd>
14

>  <a_IC>
74.201965

>  <a_ICM>
1.9526833

>  <a_nB>
0

>  <a_nBr>
0

>  <a_nC>
16

>  <a_nCl>
0

>  <a_nF>
0

>  <a_nH>
10

>  <a_nI>
0

>  <a_nN>
2

>  <a_nO>
8

>  <a_nP>
0

>  <a_nS>
2

>  <balabanJ>
1.4491607

>  <BCUT_PEOE_0>
-2.2387705

>  <BCUT_PEOE_1>
-0.77720428

>  <BCUT_PEOE_2>
0.71924716

>  <BCUT_PEOE_3>
2.4048808

>  <BCUT_SLOGP_0>
-2.2848053

>  <BCUT_SLOGP_1>
-0.72861493

>  <BCUT_SLOGP_2>
0.79218489

>  <BCUT_SLOGP_3>
2.4531572

>  <BCUT_SMR_0>
-1.9190178

>  <BCUT_SMR_1>
-0.55800915

>  <BCUT_SMR_2>
0.93660188

>  <BCUT_SMR_3>
2.7203641

>  <bpol>
26.822069

>  <b_1rotN>
3

>  <b_1rotR>
0.096774191

>  <b_ar>
16

>  <b_count>
41

>  <b_double>
2

>  <b_heavy>
31

>  <b_max1len>
3

>  <b_rotN>
3

>  <b_rotR>
0.096774191

>  <b_single>
23

>  <b_triple>
0

>  <chi0>
20.430357

>  <chi0v>
15.243688

>  <chi0v_C>
8.4641018

>  <chi0_C>
10.016144

>  <chi1>
12.964364

>  <chi1v>
10.421203

>  <chi1v_C>
4.7260675

>  <chi1_C>
6.5993195

>  <chiral>
0

>  <chiral_u>
0

>  <density>
0.96608418

>  <diameter>
13

>  <FCharge>
0

>  <GCUT_PEOE_0>
-0.84262317

>  <GCUT_PEOE_1>
-0.48780558

>  <GCUT_PEOE_2>
0.12546219

>  <GCUT_PEOE_3>
2.5690274

>  <GCUT_SLOGP_0>
-0.88542712

>  <GCUT_SLOGP_1>
-0.47324961

>  <GCUT_SLOGP_2>
0.19681121

>  <GCUT_SLOGP_3>
2.6471663

>  <GCUT_SMR_0>
-0.43071756

>  <GCUT_SMR_1>
-0.19957224

>  <GCUT_SMR_2>
0.33081329

>  <GCUT_SMR_3>
2.8664119

>  <Kier1>
21.240376

>  <Kier2>
7.3007998

>  <Kier3>
3.8797061

>  <KierA1>
17.744114

>  <KierA2>
6.0562

>  <KierA3>
3.2022047

>  <KierFlex>
3.8379252

>  <lip_acc>
10

>  <lip_don>
4

>  <lip_druglike>
1

>  <lip_violation>
0

>  <logP(o/w)>
0.597

>  <logS>
-4.2431798

>  <mr>
9.5690489

>  <mutagenic>
0

>  <nmol>
1

>  <opr_brigid>
20

>  <opr_leadlike>
1

>  <opr_nring>
4

>  <opr_nrot>
3

>  <opr_violation>
1

>  <PC+>
0

>  <PC->
0

>  <PEOE_PC+>
2.7567446

>  <PEOE_PC->
-2.7567446

>  <PEOE_RPC+>
0.10810123

>  <PEOE_RPC->
0.12954144

>  <PEOE_VSA+0>
26.718348

>  <PEOE_VSA+1>
93.057663

>  <PEOE_VSA+2>
38.183636

>  <PEOE_VSA+3>
8.6190128

>  <PEOE_VSA+4>
18.782692

>  <PEOE_VSA+5>
8.3692026

>  <PEOE_VSA+6>
0

>  <PEOE_VSA-0>
24.509808

>  <PEOE_VSA-1>
0

>  <PEOE_VSA-2>
0

>  <PEOE_VSA-3>
0

>  <PEOE_VSA-4>
69.715622

>  <PEOE_VSA-5>
33.984684

>  <PEOE_VSA-6>
7.9044313

>  <PEOE_VSA_FHYD>
0.57932788

>  <PEOE_VSA_FNEG>
0.41266203

>  <PEOE_VSA_FPNEG>
0.338355

>  <PEOE_VSA_FPOL>
0.42067209

>  <PEOE_VSA_FPOS>
0.58733797

>  <PEOE_VSA_FPPOS>
0.082317106

>  <PEOE_VSA_HYD>
191.08847

>  <PEOE_VSA_NEG>
136.11455

>  <PEOE_VSA_PNEG>
111.60474

>  <PEOE_VSA_POL>
138.75664

>  <PEOE_VSA_POS>
193.73056

>  <PEOE_VSA_PPOS>
27.151896

>  <petitjean>
0.46153846

>  <petitjeanSC>
0.85714287

>  <Q_PC+>
0

>  <Q_PC->
0

>  <Q_RPC+>
0

>  <Q_RPC->
0

>  <Q_VSA_FHYD>
1

>  <Q_VSA_FNEG>
0

>  <Q_VSA_FPNEG>
0

>  <Q_VSA_FPOL>
0

>  <Q_VSA_FPOS>
1

>  <Q_VSA_FPPOS>
0

>  <Q_VSA_HYD>
329.84509

>  <Q_VSA_NEG>
0

>  <Q_VSA_PNEG>
0

>  <Q_VSA_POL>
0

>  <Q_VSA_POS>
329.84509

>  <Q_VSA_PPOS>
0

>  <radius>
7

>  <reactive>
0

>  <rings>
4

>  <RPC+>
0

>  <RPC->
0

>  <rsynth>
1

>  <SlogP>
0.55260003

>  <SlogP_VSA0>
71.246735

>  <SlogP_VSA1>
104.78773

>  <SlogP_VSA2>
33.951828

>  <SlogP_VSA3>
0

>  <SlogP_VSA4>
29.804539

>  <SlogP_VSA5>
19.886997

>  <SlogP_VSA6>
0

>  <SlogP_VSA7>
110.57621

>  <SlogP_VSA8>
0

>  <SlogP_VSA9>
8.0001755

>  <SMR>
9.5742197

>  <SMR_VSA0>
120.20559

>  <SMR_VSA1>
88.032257

>  <SMR_VSA2>
19.886997

>  <SMR_VSA3>
11.185751

>  <SMR_VSA4>
7.4738488

>  <SMR_VSA5>
105.85911

>  <SMR_VSA6>
8.4443588

>  <SMR_VSA7>
17.166298

>  <TPSA>
174.19

>  <VAdjEq>
0.39893496

>  <VAdjMa>
5.9541965

>  <VDistEq>
3.5000823

>  <VDistMa>
9.3126516

>  <vdw_area>
329.84509

>  <vdw_vol>
437.22275

>  <vsa_acc>
19.249496

>  <vsa_acid>
0

>  <vsa_base>
0

>  <vsa_don>
5.6825762

>  <vsa_hyd>
136.19443

>  <vsa_other>
38.183636

>  <vsa_pol>
134.54857

>  <Weight>
422.39398

>  <weinerPath>
2018

>  <weinerPol>
50

>  <zagreb>
162

$$$$