O=C1CC[C@]2([C@@H]3[C@H]([C@@H]4CC[C@@](O)(C(=O)CO)[C@@]4(C[C@@H]3O)C)CCC2=C1)C
  MOE2013           2D

 26 29  0  0  1  0  0  0  0  0999 V2000
    0.0000    0.0000    0.0000 O   0  0  0  0  0  0  0  0  0  0  0  0
   -1.5000   -0.0070    0.0000 C   0  0  0  0  0  0  0  0  0  0  0  0
   -2.2560    1.2880    0.0000 C   0  0  0  0  0  0  0  0  0  0  0  0
   -3.7560    1.2800    0.0000 C   0  0  0  0  0  0  0  0  0  0  0  0
   -4.5000   -0.0220    0.0000 C   0  0  1  0  0  0  0  0  0  0  0  0
   -6.0000   -0.0300    0.0000 C   0  0  2  0  0  0  0  0  0  0  0  0
   -6.7430   -1.3330    0.0000 C   0  0  2  0  0  0  0  0  0  0  0  0
   -8.2430   -1.3400    0.0000 C   0  0  2  0  0  0  0  0  0  0  0  0
   -9.2420   -2.4600    0.0000 C   0  0  0  0  0  0  0  0  0  0  0  0
  -10.6150   -1.8560    0.0000 C   0  0  0  0  0  0  0  0  0  0  0  0
  -10.4660   -0.3640    0.0000 C   0  0  1  0  0  0  0  0  0  0  0  0
  -10.8610    1.0830    0.0000 O   0  0  0  0  0  0  0  0  0  0  0  0
  -11.9290   -0.0340    0.0000 C   0  0  0  0  0  0  0  0  0  0  0  0
  -12.3740    1.3990    0.0000 O   0  0  0  0  0  0  0  0  0  0  0  0
  -12.9460   -1.1360    0.0000 C   0  0  0  0  0  0  0  0  0  0  0  0
  -14.4100   -0.8060    0.0000 O   0  0  0  0  0  0  0  0  0  0  0  0
   -9.0000   -0.0450    0.0000 C   0  0  2  0  0  0  0  0  0  0  0  0
   -8.2560    1.2580    0.0000 C   0  0  0  0  0  0  0  0  0  0  0  0
   -6.7560    1.2650    0.0000 C   0  0  2  0  0  0  0  0  0  0  0  0
   -6.0130    2.5680    0.0000 O   0  0  0  0  0  0  0  0  0  0  0  0
   -9.8880    1.1640    0.0000 C   0  0  0  0  0  0  0  0  0  0  0  0
   -5.9870   -2.6280    0.0000 C   0  0  0  0  0  0  0  0  0  0  0  0
   -4.4870   -2.6200    0.0000 C   0  0  0  0  0  0  0  0  0  0  0  0
   -3.7440   -1.3180    0.0000 C   0  0  0  0  0  0  0  0  0  0  0  0
   -2.2440   -1.3100    0.0000 C   0  0  0  0  0  0  0  0  0  0  0  0
   -5.2790    1.2600    0.0000 C   0  0  0  0  0  0  0  0  0  0  0  0
  1  2  2  0  0  0  0
  2  3  1  0  0  0  0
  2 25  1  0  0  0  0
  3  4  1  0  0  0  0
  4  5  1  0  0  0  0
  5 24  1  0  0  0  0
  5 26  1  1  0  0  0
  6  5  1  6  0  0  0
  6  7  1  0  0  0  0
  6 19  1  0  0  0  0
  7  8  1  0  0  0  0
  7 22  1  1  0  0  0
  8  9  1  6  0  0  0
  8 17  1  0  0  0  0
  9 10  1  0  0  0  0
 10 11  1  0  0  0  0
 11 12  1  6  0  0  0
 11 13  1  1  0  0  0
 11 17  1  0  0  0  0
 13 14  2  0  0  0  0
 13 15  1  0  0  0  0
 15 16  1  0  0  0  0
 17 18  1  0  0  0  0
 17 21  1  1  0  0  0
 18 19  1  0  0  0  0
 19 20  1  6  0  0  0
 22 23  1  0  0  0  0
 23 24  1  0  0  0  0
 24 25  2  0  0  0  0
M  END
>  <Index>
529

>  <ID>
HT1047

>  <class>
0

>  <apol>
60.973789

>  <ast_fraglike>
0

>  <ast_fraglike_ext>
0

>  <ast_violation>
2

>  <ast_violation_ext>
3

>  <a_acc>
5

>  <a_acid>
0

>  <a_aro>
0

>  <a_base>
0

>  <a_count>
56

>  <a_don>
3

>  <a_donacc>
8

>  <a_heavy>
26

>  <a_hyd>
19

>  <a_IC>
74.156853

>  <a_ICM>
1.3242295

>  <a_nB>
0

>  <a_nBr>
0

>  <a_nC>
21

>  <a_nCl>
0

>  <a_nF>
0

>  <a_nH>
30

>  <a_nI>
0

>  <a_nN>
0

>  <a_nO>
5

>  <a_nP>
0

>  <a_nS>
0

>  <balabanJ>
1.6778669

>  <BCUT_PEOE_0>
-2.938447

>  <BCUT_PEOE_1>
-0.53031886

>  <BCUT_PEOE_2>
0.5170567

>  <BCUT_PEOE_3>
2.9807618

>  <BCUT_SLOGP_0>
-2.9096453

>  <BCUT_SLOGP_1>
-0.49202126

>  <BCUT_SLOGP_2>
0.48807678

>  <BCUT_SLOGP_3>
3.0161693

>  <BCUT_SMR_0>
-2.6915214

>  <BCUT_SMR_1>
-0.37206146

>  <BCUT_SMR_2>
0.67249793

>  <BCUT_SMR_3>
3.2219138

>  <bpol>
34.712212

>  <b_1rotN>
2

>  <b_1rotR>
0.068965517

>  <b_ar>
0

>  <b_count>
59

>  <b_double>
3

>  <b_heavy>
29

>  <b_max1len>
6

>  <b_rotN>
2

>  <b_rotR>
0.068965517

>  <b_single>
56

>  <b_triple>
0

>  <chi0>
18.905413

>  <chi0v>
15.701743

>  <chi0v_C>
13.543606

>  <chi0_C>
13.905413

>  <chi1>
12.170505

>  <chi1v>
9.9570475

>  <chi1v_C>
8.7507658

>  <chi1_C>
9.2313471

>  <chiral>
7

>  <chiral_u>
0

>  <density>
0.73470789

>  <diameter>
12

>  <FCharge>
0

>  <GCUT_PEOE_0>
-0.80083954

>  <GCUT_PEOE_1>
-0.39306736

>  <GCUT_PEOE_2>
0.024856439

>  <GCUT_PEOE_3>
3.3575065

>  <GCUT_SLOGP_0>
-0.9457643

>  <GCUT_SLOGP_1>
-0.36140192

>  <GCUT_SLOGP_2>
-0.0054867743

>  <GCUT_SLOGP_3>
3.400641

>  <GCUT_SMR_0>
-0.53920513

>  <GCUT_SMR_1>
-0.23374221

>  <GCUT_SMR_2>
0.14542703

>  <GCUT_SMR_3>
3.5783954

>  <Kier1>
19.322235

>  <Kier2>
6.25

>  <Kier3>
2.4860198

>  <KierA1>
17.419827

>  <KierA2>
5.6102409

>  <KierA3>
2.2246342

>  <KierFlex>
3.7588236

>  <lip_acc>
5

>  <lip_don>
3

>  <lip_druglike>
1

>  <lip_violation>
0

>  <logP(o/w)>
1.0140001

>  <logS>
-2.9347701

>  <mr>
9.6206436

>  <mutagenic>
0

>  <nmol>
1

>  <opr_brigid>
20

>  <opr_leadlike>
1

>  <opr_nring>
4

>  <opr_nrot>
2

>  <opr_violation>
0

>  <PC+>
0

>  <PC->
0

>  <PEOE_PC+>
2.1964543

>  <PEOE_PC->
-2.1964543

>  <PEOE_RPC+>
0.095956005

>  <PEOE_RPC->
0.17822158

>  <PEOE_VSA+0>
106.80519

>  <PEOE_VSA+1>
21.966473

>  <PEOE_VSA+2>
14.951293

>  <PEOE_VSA+3>
16.917038

>  <PEOE_VSA+4>
30.972517

>  <PEOE_VSA+5>
0

>  <PEOE_VSA+6>
0

>  <PEOE_VSA-0>
64.462784

>  <PEOE_VSA-1>
39.703896

>  <PEOE_VSA-2>
0

>  <PEOE_VSA-3>
0

>  <PEOE_VSA-4>
0

>  <PEOE_VSA-5>
27.133842

>  <PEOE_VSA-6>
23.30262

>  <PEOE_VSA_FHYD>
0.76486051

>  <PEOE_VSA_FNEG>
0.44655156

>  <PEOE_VSA_FPNEG>
0.14567932

>  <PEOE_VSA_FPOL>
0.23513952

>  <PEOE_VSA_FPOS>
0.55344844

>  <PEOE_VSA_FPPOS>
0.089460187

>  <PEOE_VSA_HYD>
264.80667

>  <PEOE_VSA_NEG>
154.60313

>  <PEOE_VSA_PNEG>
50.436462

>  <PEOE_VSA_POL>
81.408981

>  <PEOE_VSA_POS>
191.61252

>  <PEOE_VSA_PPOS>
30.972517

>  <petitjean>
0.5

>  <petitjeanSC>
1

>  <Q_PC+>
0

>  <Q_PC->
0

>  <Q_RPC+>
0

>  <Q_RPC->
0

>  <Q_VSA_FHYD>
1

>  <Q_VSA_FNEG>
0

>  <Q_VSA_FPNEG>
0

>  <Q_VSA_FPOL>
0

>  <Q_VSA_FPOS>
1

>  <Q_VSA_FPPOS>
0

>  <Q_VSA_HYD>
346.21567

>  <Q_VSA_NEG>
0

>  <Q_VSA_PNEG>
0

>  <Q_VSA_POL>
0

>  <Q_VSA_POS>
346.21567

>  <Q_VSA_PPOS>
0

>  <radius>
6

>  <reactive>
1

>  <rings>
4

>  <RPC+>
0

>  <RPC->
0

>  <rsynth>
0.03846154

>  <SlogP>
1.7816

>  <SlogP_VSA0>
76.155678

>  <SlogP_VSA1>
11.375222

>  <SlogP_VSA2>
54.193081

>  <SlogP_VSA3>
20.926258

>  <SlogP_VSA4>
13.232388

>  <SlogP_VSA5>
3.185575

>  <SlogP_VSA6>
0

>  <SlogP_VSA7>
17.643185

>  <SlogP_VSA8>
132.07884

>  <SlogP_VSA9>
66.652031

>  <SMR>
9.5142403

>  <SMR_VSA0>
47.724434

>  <SMR_VSA1>
76.155678

>  <SMR_VSA2>
13.232388

>  <SMR_VSA3>
9.6542244

>  <SMR_VSA4>
0

>  <SMR_VSA5>
149.72202

>  <SMR_VSA6>
32.301479

>  <SMR_VSA7>
66.652031

>  <TPSA>
94.830002

>  <VAdjEq>
0.42228913

>  <VAdjMa>
5.8579812

>  <VDistEq>
3.1649306

>  <VDistMa>
9.1329422

>  <vdw_area>
346.21567

>  <vdw_vol>
493.34708

>  <vsa_acc>
27.133842

>  <vsa_acid>
0

>  <vsa_base>
0

>  <vsa_don>
0

>  <vsa_hyd>
224.636

>  <vsa_other>
16.917038

>  <vsa_pol>
67.834602

>  <Weight>
362.466

>  <weinerPath>
1425

>  <weinerPol>
59

>  <zagreb>
154

$$$$