Clc1c(cccc1Cl)-c1nnc(nc1N)N
  MOE2013           2D

 16 17  0  0  0  0  0  0  0  0999 V2000
    0.0000    0.0000    0.0000 Cl  0  0  0  0  0  0  0  0  0  0  0  0
   -0.7460    1.3020    0.0000 C   0  0  0  0  0  0  0  0  0  0  0  0
    0.0090    2.5980    0.0000 C   0  0  0  0  0  0  0  0  0  0  0  0
   -0.7370    3.9000    0.0000 C   0  0  0  0  0  0  0  0  0  0  0  0
   -2.2370    3.9050    0.0000 C   0  0  0  0  0  0  0  0  0  0  0  0
   -2.9910    2.6080    0.0000 C   0  0  0  0  0  0  0  0  0  0  0  0
   -2.2460    1.3070    0.0000 C   0  0  0  0  0  0  0  0  0  0  0  0
   -3.0000    0.0100    0.0000 Cl  0  0  0  0  0  0  0  0  0  0  0  0
    1.5090    2.5930    0.0000 C   0  0  0  0  0  0  0  0  0  0  0  0
    2.2540    1.2910    0.0000 N   0  0  0  0  0  0  0  0  0  0  0  0
    3.7540    1.2860    0.0000 N   0  0  0  0  0  0  0  0  0  0  0  0
    4.5090    2.5830    0.0000 C   0  0  0  0  0  0  0  0  0  0  0  0
    3.7630    3.8840    0.0000 N   0  0  0  0  0  0  0  0  0  0  0  0
    2.2630    3.8890    0.0000 C   0  0  0  0  0  0  0  0  0  0  0  0
    1.5180    5.1910    0.0000 N   0  0  0  0  0  0  0  0  0  0  0  0
    6.0090    2.5780    0.0000 N   0  0  0  0  0  0  0  0  0  0  0  0
  1  2  1  0  0  0  0
  2  3  1  0  0  0  0
  2  7  2  0  0  0  0
  3  4  2  0  0  0  0
  3  9  1  0  0  0  0
  4  5  1  0  0  0  0
  5  6  2  0  0  0  0
  6  7  1  0  0  0  0
  7  8  1  0  0  0  0
  9 10  1  0  0  0  0
  9 14  2  0  0  0  0
 10 11  2  0  0  0  0
 11 12  1  0  0  0  0
 12 13  2  0  0  0  0
 12 16  1  0  0  0  0
 13 14  1  0  0  0  0
 14 15  1  0  0  0  0
M  END
>  <Index>
592

>  <ID>
HT1169

>  <class>
0

>  <apol>
30.367552

>  <ast_fraglike>
1

>  <ast_fraglike_ext>
0

>  <ast_violation>
0

>  <ast_violation_ext>
1

>  <a_acc>
3

>  <a_acid>
0

>  <a_aro>
12

>  <a_base>
0

>  <a_count>
23

>  <a_don>
2

>  <a_donacc>
5

>  <a_heavy>
16

>  <a_hyd>
9

>  <a_IC>
42.251476

>  <a_ICM>
1.8370206

>  <a_nB>
0

>  <a_nBr>
0

>  <a_nC>
9

>  <a_nCl>
2

>  <a_nF>
0

>  <a_nH>
7

>  <a_nI>
0

>  <a_nN>
5

>  <a_nO>
0

>  <a_nP>
0

>  <a_nS>
0

>  <balabanJ>
2.0191894

>  <BCUT_PEOE_0>
-2.1970105

>  <BCUT_PEOE_1>
-0.70568699

>  <BCUT_PEOE_2>
0.66511786

>  <BCUT_PEOE_3>
2.2117221

>  <BCUT_SLOGP_0>
-2.3776722

>  <BCUT_SLOGP_1>
-0.56576246

>  <BCUT_SLOGP_2>
0.81698227

>  <BCUT_SLOGP_3>
2.4072287

>  <BCUT_SMR_0>
-1.8668402

>  <BCUT_SMR_1>
-0.44583079

>  <BCUT_SMR_2>
1.0043639

>  <BCUT_SMR_3>
2.5433064

>  <bpol>
9.8124495

>  <b_1rotN>
1

>  <b_1rotR>
0.05882353

>  <b_ar>
12

>  <b_count>
24

>  <b_double>
0

>  <b_heavy>
17

>  <b_max1len>
2

>  <b_rotN>
1

>  <b_rotR>
0.05882353

>  <b_single>
12

>  <b_triple>
0

>  <chi0>
11.706742

>  <chi0v>
9.4961786

>  <chi0v_C>
4.7320509

>  <chi0_C>
5.585422

>  <chi1>
7.5922241

>  <chi1v>
5.0496879

>  <chi1v_C>
2.2440169

>  <chi1_C>
3.1498299

>  <chiral>
0

>  <chiral_u>
0

>  <density>
0.9243353

>  <diameter>
8

>  <FCharge>
0

>  <GCUT_PEOE_0>
-0.78069597

>  <GCUT_PEOE_1>
-0.4507412

>  <GCUT_PEOE_2>
0.074568734

>  <GCUT_PEOE_3>
2.171123

>  <GCUT_SLOGP_0>
-1.3403753

>  <GCUT_SLOGP_1>
-0.31781259

>  <GCUT_SLOGP_2>
0.27153423

>  <GCUT_SLOGP_3>
2.3347068

>  <GCUT_SMR_0>
-0.41059613

>  <GCUT_SMR_1>
-0.19862579

>  <GCUT_SMR_2>
0.36046493

>  <GCUT_SMR_3>
2.4939058

>  <Kier1>
12.456747

>  <Kier2>
5.1041665

>  <Kier3>
2.6514049

>  <KierA1>
9.944047

>  <KierA2>
4.0082951

>  <KierA3>
2.0565896

>  <KierFlex>
2.4911671

>  <lip_acc>
5

>  <lip_don>
4

>  <lip_druglike>
1

>  <lip_violation>
0

>  <logP(o/w)>
2.49053

>  <logS>
-4.0265198

>  <mr>
6.159368

>  <mutagenic>
1

>  <nmol>
1

>  <opr_brigid>
12

>  <opr_leadlike>
1

>  <opr_nring>
2

>  <opr_nrot>
1

>  <opr_violation>
0

>  <PC+>
0

>  <PC->
0

>  <PEOE_PC+>
1.3323299

>  <PEOE_PC->
-1.3323299

>  <PEOE_RPC+>
0.16562341

>  <PEOE_RPC->
0.21383169

>  <PEOE_VSA+0>
2.2085397

>  <PEOE_VSA+1>
21.835651

>  <PEOE_VSA+2>
52.366165

>  <PEOE_VSA+3>
0

>  <PEOE_VSA+4>
15.681574

>  <PEOE_VSA+5>
0

>  <PEOE_VSA+6>
0

>  <PEOE_VSA-0>
12.254904

>  <PEOE_VSA-1>
83.673698

>  <PEOE_VSA-2>
18.842079

>  <PEOE_VSA-3>
0

>  <PEOE_VSA-4>
5.6825762

>  <PEOE_VSA-5>
13.302238

>  <PEOE_VSA-6>
0

>  <PEOE_VSA_FHYD>
0.84650528

>  <PEOE_VSA_FNEG>
0.59223831

>  <PEOE_VSA_FPNEG>
0.084060356

>  <PEOE_VSA_FPOL>
0.15349473

>  <PEOE_VSA_FPOS>
0.40776169

>  <PEOE_VSA_FPPOS>
0.069434375

>  <PEOE_VSA_HYD>
191.18105

>  <PEOE_VSA_NEG>
133.75549

>  <PEOE_VSA_PNEG>
18.984816

>  <PEOE_VSA_POL>
34.666389

>  <PEOE_VSA_POS>
92.091934

>  <PEOE_VSA_PPOS>
15.681574

>  <petitjean>
0.5

>  <petitjeanSC>
1

>  <Q_PC+>
0

>  <Q_PC->
0

>  <Q_RPC+>
0

>  <Q_RPC->
0

>  <Q_VSA_FHYD>
1

>  <Q_VSA_FNEG>
0

>  <Q_VSA_FPNEG>
0

>  <Q_VSA_FPOL>
0

>  <Q_VSA_FPOS>
1

>  <Q_VSA_FPPOS>
0

>  <Q_VSA_HYD>
225.84743

>  <Q_VSA_NEG>
0

>  <Q_VSA_PNEG>
0

>  <Q_VSA_POL>
0

>  <Q_VSA_POS>
225.84743

>  <Q_VSA_PPOS>
0

>  <radius>
4

>  <reactive>
0

>  <rings>
2

>  <RPC+>
0

>  <RPC->
0

>  <rsynth>
1

>  <SlogP>
2.0098

>  <SlogP_VSA0>
65.794373

>  <SlogP_VSA1>
50.111546

>  <SlogP_VSA2>
0

>  <SlogP_VSA3>
0

>  <SlogP_VSA4>
0

>  <SlogP_VSA5>
0

>  <SlogP_VSA6>
7.0012131

>  <SlogP_VSA7>
58.871876

>  <SlogP_VSA8>
0

>  <SlogP_VSA9>
82.5243

>  <SMR>
6.41078

>  <SMR_VSA0>
0

>  <SMR_VSA1>
50.111546

>  <SMR_VSA2>
0

>  <SMR_VSA3>
7.0012131

>  <SMR_VSA4>
10.169335

>  <SMR_VSA5>
118.72393

>  <SMR_VSA6>
0

>  <SMR_VSA7>
78.297287

>  <TPSA>
90.709999

>  <VAdjEq>
0.56510133

>  <VAdjMa>
5.0874629

>  <VDistEq>
2.7591879

>  <VDistMa>
7.7147155

>  <vdw_area>
225.84743

>  <vdw_vol>
277.05963

>  <vsa_acc>
24.524654

>  <vsa_acid>
0

>  <vsa_base>
0

>  <vsa_don>
35.484978

>  <vsa_hyd>
124.53696

>  <vsa_other>
26.872137

>  <vsa_pol>
60.009636

>  <Weight>
256.09601

>  <weinerPath>
417

>  <weinerPol>
25

>  <zagreb>
82

$$$$