O=C1CC[C@@]2([C@@H]3[C@H]([C@@H]4CC[C@](OC(=O)CCCC)(C(=O)CO)[C@]4(C[C@@H]3O)C)CCC2=C1)C
  MOE2013           2D

 32 35  0  0  1  0  0  0  0  0999 V2000
    0.0000    0.0000    0.0000 O   0  0  0  0  0  0  0  0  0  0  0  0
    1.5000   -0.0080    0.0000 C   0  0  0  0  0  0  0  0  0  0  0  0
    2.2430   -1.3110    0.0000 C   0  0  0  0  0  0  0  0  0  0  0  0
    3.7430   -1.3190    0.0000 C   0  0  0  0  0  0  0  0  0  0  0  0
    4.5000   -0.0240    0.0000 C   0  0  2  0  0  0  0  0  0  0  0  0
    6.0000   -0.0310    0.0000 C   0  0  2  0  0  0  0  0  0  0  0  0
    6.7570    1.2640    0.0000 C   0  0  2  0  0  0  0  0  0  0  0  0
    8.2570    1.2560    0.0000 C   0  0  2  0  0  0  0  0  0  0  0  0
    9.2660    2.3650    0.0000 C   0  0  0  0  0  0  0  0  0  0  0  0
   10.6330    1.7480    0.0000 C   0  0  0  0  0  0  0  0  0  0  0  0
   10.4690    0.2570    0.0000 C   0  0  2  0  0  0  0  0  0  0  0  0
   11.9280   -0.0880    0.0000 O   0  0  0  0  0  0  0  0  0  0  0  0
   12.9570    1.0040    0.0000 C   0  0  0  0  0  0  0  0  0  0  0  0
   12.5260    2.4400    0.0000 O   0  0  0  0  0  0  0  0  0  0  0  0
   14.4170    0.6580    0.0000 C   0  0  0  0  0  0  0  0  0  0  0  0
   15.4460    1.7500    0.0000 C   0  0  0  0  0  0  0  0  0  0  0  0
   16.9050    1.4050    0.0000 C   0  0  0  0  0  0  0  0  0  0  0  0
   17.9340    2.4970    0.0000 C   0  0  0  0  0  0  0  0  0  0  0  0
   10.8490   -1.1940    0.0000 C   0  0  0  0  0  0  0  0  0  0  0  0
    9.7830   -2.2490    0.0000 O   0  0  0  0  0  0  0  0  0  0  0  0
   12.2960   -1.5900    0.0000 C   0  0  0  0  0  0  0  0  0  0  0  0
   12.6770   -3.0410    0.0000 O   0  0  0  0  0  0  0  0  0  0  0  0
    9.0000   -0.0470    0.0000 C   0  0  1  0  0  0  0  0  0  0  0  0
    8.2430   -1.3420    0.0000 C   0  0  0  0  0  0  0  0  0  0  0  0
    6.7430   -1.3340    0.0000 C   0  0  2  0  0  0  0  0  0  0  0  0
    5.9860   -2.6290    0.0000 O   0  0  0  0  0  0  0  0  0  0  0  0
    9.8750   -1.2650    0.0000 C   0  0  0  0  0  0  0  0  0  0  0  0
    6.0140    2.5670    0.0000 C   0  0  0  0  0  0  0  0  0  0  0  0
    4.5140    2.5740    0.0000 C   0  0  0  0  0  0  0  0  0  0  0  0
    3.7570    1.2790    0.0000 C   0  0  0  0  0  0  0  0  0  0  0  0
    2.2570    1.2870    0.0000 C   0  0  0  0  0  0  0  0  0  0  0  0
    5.2660   -1.3130    0.0000 C   0  0  0  0  0  0  0  0  0  0  0  0
  1  2  2  0  0  0  0
  2  3  1  0  0  0  0
  2 31  1  0  0  0  0
  3  4  1  0  0  0  0
  4  5  1  0  0  0  0
  5 30  1  0  0  0  0
  5 32  1  6  0  0  0
  6  5  1  6  0  0  0
  6  7  1  0  0  0  0
  6 25  1  0  0  0  0
  7  8  1  0  0  0  0
  7 28  1  1  0  0  0
  8  9  1  6  0  0  0
  8 23  1  0  0  0  0
  9 10  1  0  0  0  0
 10 11  1  0  0  0  0
 11 12  1  1  0  0  0
 11 19  1  6  0  0  0
 11 23  1  0  0  0  0
 12 13  1  0  0  0  0
 13 14  2  0  0  0  0
 13 15  1  0  0  0  0
 15 16  1  0  0  0  0
 16 17  1  0  0  0  0
 17 18  1  0  0  0  0
 19 20  2  0  0  0  0
 19 21  1  0  0  0  0
 21 22  1  0  0  0  0
 23 24  1  0  0  0  0
 23 27  1  6  0  0  0
 24 25  1  0  0  0  0
 25 26  1  6  0  0  0
 28 29  1  0  0  0  0
 29 30  1  0  0  0  0
 30 31  2  0  0  0  0
M  END
>  <Index>
536

>  <ID>
HT1054

>  <class>
0

>  <apol>
75.910133

>  <ast_fraglike>
0

>  <ast_fraglike_ext>
0

>  <ast_violation>
3

>  <ast_violation_ext>
5

>  <a_acc>
5

>  <a_acid>
0

>  <a_aro>
0

>  <a_base>
0

>  <a_count>
70

>  <a_don>
2

>  <a_donacc>
7

>  <a_heavy>
32

>  <a_hyd>
23

>  <a_IC>
91.907356

>  <a_ICM>
1.3129623

>  <a_nB>
0

>  <a_nBr>
0

>  <a_nC>
26

>  <a_nCl>
0

>  <a_nF>
0

>  <a_nH>
38

>  <a_nI>
0

>  <a_nN>
0

>  <a_nO>
6

>  <a_nP>
0

>  <a_nS>
0

>  <balabanJ>
1.650051

>  <BCUT_PEOE_0>
-2.938251

>  <BCUT_PEOE_1>
-0.50507665

>  <BCUT_PEOE_2>
0.42621747

>  <BCUT_PEOE_3>
2.9839911

>  <BCUT_SLOGP_0>
-2.9090176

>  <BCUT_SLOGP_1>
-0.48455846

>  <BCUT_SLOGP_2>
0.45037436

>  <BCUT_SLOGP_3>
3.0178263

>  <BCUT_SMR_0>
-2.6916347

>  <BCUT_SMR_1>
-0.32559153

>  <BCUT_SMR_2>
0.61128908

>  <BCUT_SMR_3>
3.2237439

>  <bpol>
46.331867

>  <b_1rotN>
6

>  <b_1rotR>
0.17142858

>  <b_ar>
0

>  <b_count>
73

>  <b_double>
4

>  <b_heavy>
35

>  <b_max1len>
5

>  <b_rotN>
7

>  <b_rotR>
0.2

>  <b_single>
69

>  <b_triple>
0

>  <chi0>
23.31119

>  <chi0v>
19.692347

>  <chi0v_C>
17.164927

>  <chi0_C>
17.604084

>  <chi1>
15.125011

>  <chi1v>
12.406473

>  <chi1v_C>
10.811426

>  <chi1_C>
11.346703

>  <chiral>
7

>  <chiral_u>
0

>  <density>
0.72168082

>  <diameter>
15

>  <FCharge>
0

>  <GCUT_PEOE_0>
-0.8007465

>  <GCUT_PEOE_1>
-0.39870849

>  <GCUT_PEOE_2>
0.010147683

>  <GCUT_PEOE_3>
3.4313564

>  <GCUT_SLOGP_0>
-0.93857276

>  <GCUT_SLOGP_1>
-0.32037452

>  <GCUT_SLOGP_2>
-0.0082322154

>  <GCUT_SLOGP_3>
3.4726598

>  <GCUT_SMR_0>
-0.53923577

>  <GCUT_SMR_1>
-0.23332654

>  <GCUT_SMR_2>
0.13800722

>  <GCUT_SMR_3>
3.6511223

>  <Kier1>
25.103674

>  <Kier2>
9.2231407

>  <Kier3>
3.881618

>  <KierA1>
22.41692

>  <KierA2>
8.2047234

>  <KierA3>
3.4437532

>  <KierFlex>
5.7476444

>  <lip_acc>
6

>  <lip_don>
2

>  <lip_druglike>
1

>  <lip_violation>
0

>  <logP(o/w)>
2.9619999

>  <logS>
-4.7850499

>  <mr>
12.073208

>  <mutagenic>
0

>  <nmol>
1

>  <opr_brigid>
20

>  <opr_leadlike>
1

>  <opr_nring>
4

>  <opr_nrot>
6

>  <opr_violation>
0

>  <PC+>
0

>  <PC->
0

>  <PEOE_PC+>
2.5452378

>  <PEOE_PC->
-2.5452378

>  <PEOE_RPC+>
0.10336213

>  <PEOE_RPC->
0.15379921

>  <PEOE_VSA+0>
153.89497

>  <PEOE_VSA+1>
21.966473

>  <PEOE_VSA+2>
14.951293

>  <PEOE_VSA+3>
16.917038

>  <PEOE_VSA+4>
20.648346

>  <PEOE_VSA+5>
14.708499

>  <PEOE_VSA+6>
0

>  <PEOE_VSA-0>
73.164093

>  <PEOE_VSA-1>
67.152885

>  <PEOE_VSA-2>
0

>  <PEOE_VSA-3>
0

>  <PEOE_VSA-4>
0

>  <PEOE_VSA-5>
40.700764

>  <PEOE_VSA-6>
18.038837

>  <PEOE_VSA_FHYD>
0.78718108

>  <PEOE_VSA_FNEG>
0.4502084

>  <PEOE_VSA_FPNEG>
0.13285197

>  <PEOE_VSA_FPOL>
0.21281892

>  <PEOE_VSA_FPOS>
0.54979163

>  <PEOE_VSA_FPPOS>
0.079966955

>  <PEOE_VSA_HYD>
348.04675

>  <PEOE_VSA_NEG>
199.05658

>  <PEOE_VSA_PNEG>
58.739597

>  <PEOE_VSA_POL>
94.096443

>  <PEOE_VSA_POS>
243.08662

>  <PEOE_VSA_PPOS>
35.356846

>  <petitjean>
0.46666667

>  <petitjeanSC>
0.875

>  <Q_PC+>
0

>  <Q_PC->
0

>  <Q_RPC+>
0

>  <Q_RPC->
0

>  <Q_VSA_FHYD>
1

>  <Q_VSA_FNEG>
0

>  <Q_VSA_FPNEG>
0

>  <Q_VSA_FPOL>
0

>  <Q_VSA_FPOS>
1

>  <Q_VSA_FPPOS>
0

>  <Q_VSA_HYD>
442.14322

>  <Q_VSA_NEG>
0

>  <Q_VSA_PNEG>
0

>  <Q_VSA_POL>
0

>  <Q_VSA_POS>
442.14322

>  <Q_VSA_PPOS>
0

>  <radius>
8

>  <reactive>
1

>  <rings>
4

>  <RPC+>
0

>  <RPC->
0

>  <rsynth>
0.21875

>  <SlogP>
3.5227001

>  <SlogP_VSA0>
50.770454

>  <SlogP_VSA1>
19.120686

>  <SlogP_VSA2>
89.055183

>  <SlogP_VSA3>
20.926258

>  <SlogP_VSA4>
13.232388

>  <SlogP_VSA5>
3.185575

>  <SlogP_VSA6>
0

>  <SlogP_VSA7>
17.643185

>  <SlogP_VSA8>
188.68405

>  <SlogP_VSA9>
99.978043

>  <SMR>
11.85406

>  <SMR_VSA0>
82.58654

>  <SMR_VSA1>
50.770454

>  <SMR_VSA2>
13.232388

>  <SMR_VSA3>
9.6542244

>  <SMR_VSA4>
0

>  <SMR_VSA5>
206.32724

>  <SMR_VSA6>
40.046944

>  <SMR_VSA7>
99.978043

>  <TPSA>
100.9

>  <VAdjEq>
0.3597711

>  <VAdjMa>
6.129283

>  <VDistEq>
3.4693773

>  <VDistMa>
9.7314034

>  <vdw_area>
442.14322

>  <vdw_vol>
618.81097

>  <vsa_acc>
40.700764

>  <vsa_acid>
0

>  <vsa_base>
0

>  <vsa_don>
0

>  <vsa_hyd>
301.46994

>  <vsa_other>
34.129295

>  <vsa_pol>
67.834602

>  <Weight>
446.58398

>  <weinerPath>
2622

>  <weinerPol>
68

>  <zagreb>
180

$$$$