Oc1cc(ccc1O)C(O)CNC(C)C
  MOE2013           2D

 15 15  0  0  1  0  0  0  0  0999 V2000
    0.0000    0.0000    0.0000 O   0  0  0  0  0  0  0  0  0  0  0  0
    1.2960    0.7550    0.0000 C   0  0  0  0  0  0  0  0  0  0  0  0
    2.5980    0.0100    0.0000 C   0  0  0  0  0  0  0  0  0  0  0  0
    3.8940    0.7640    0.0000 C   0  0  0  0  0  0  0  0  0  0  0  0
    3.8890    2.2640    0.0000 C   0  0  0  0  0  0  0  0  0  0  0  0
    2.5870    3.0100    0.0000 C   0  0  0  0  0  0  0  0  0  0  0  0
    1.2910    2.2550    0.0000 C   0  0  0  0  0  0  0  0  0  0  0  0
   -0.0110    3.0000    0.0000 O   0  0  0  0  0  0  0  0  0  0  0  0
    5.1960    0.0190    0.0000 C   0  0  3  0  0  0  0  0  0  0  0  0
    5.2020   -1.4810    0.0000 O   0  0  0  0  0  0  0  0  0  0  0  0
    6.4920    0.7740    0.0000 C   0  0  0  0  0  0  0  0  0  0  0  0
    7.7940    0.0290    0.0000 N   0  0  0  0  0  0  0  0  0  0  0  0
    9.0900    0.7830    0.0000 C   0  0  0  0  0  0  0  0  0  0  0  0
    9.0850    2.2830    0.0000 C   0  0  0  0  0  0  0  0  0  0  0  0
   10.3920    0.0380    0.0000 C   0  0  0  0  0  0  0  0  0  0  0  0
  1  2  1  0  0  0  0
  2  3  1  0  0  0  0
  2  7  2  0  0  0  0
  3  4  2  0  0  0  0
  4  5  1  0  0  0  0
  4  9  1  0  0  0  0
  5  6  2  0  0  0  0
  6  7  1  0  0  0  0
  7  8  1  0  0  0  0
  9 10  1  0  0  0  0
  9 11  1  0  0  0  0
 11 12  1  0  0  0  0
 12 13  1  0  0  0  0
 13 14  1  0  0  0  0
 13 15  1  0  0  0  0
M  END
>  <Index>
575

>  <ID>
HT1137

>  <class>
0

>  <apol>
34.201481

>  <ast_fraglike>
0

>  <ast_fraglike_ext>
0

>  <ast_violation>
2

>  <ast_violation_ext>
3

>  <a_acc>
4

>  <a_acid>
0

>  <a_aro>
6

>  <a_base>
0

>  <a_count>
32

>  <a_don>
4

>  <a_donacc>
8

>  <a_heavy>
15

>  <a_hyd>
11

>  <a_IC>
47.704498

>  <a_ICM>
1.4907656

>  <a_nB>
0

>  <a_nBr>
0

>  <a_nC>
11

>  <a_nCl>
0

>  <a_nF>
0

>  <a_nH>
17

>  <a_nI>
0

>  <a_nN>
1

>  <a_nO>
3

>  <a_nP>
0

>  <a_nS>
0

>  <balabanJ>
2.3167915

>  <BCUT_PEOE_0>
-2.6405439

>  <BCUT_PEOE_1>
-0.55840421

>  <BCUT_PEOE_2>
0.64558506

>  <BCUT_PEOE_3>
2.5645618

>  <BCUT_SLOGP_0>
-2.7465007

>  <BCUT_SLOGP_1>
-0.56001598

>  <BCUT_SLOGP_2>
0.58206624

>  <BCUT_SLOGP_3>
2.5626028

>  <BCUT_SMR_0>
-2.3700488

>  <BCUT_SMR_1>
-0.45249718

>  <BCUT_SMR_2>
0.73696971

>  <BCUT_SMR_3>
2.8271754

>  <bpol>
19.244518

>  <b_1rotN>
4

>  <b_1rotR>
0.26666668

>  <b_ar>
6

>  <b_count>
32

>  <b_double>
0

>  <b_heavy>
15

>  <b_max1len>
7

>  <b_rotN>
4

>  <b_rotR>
0.26666668

>  <b_single>
26

>  <b_triple>
0

>  <chi0>
11.422285

>  <chi0v>
8.9354992

>  <chi0v_C>
7.0938582

>  <chi0_C>
7.7151785

>  <chi1>
7.0029078

>  <chi1v>
4.9372988

>  <chi1v_C>
3.5896578

>  <chi1_C>
4.3626084

>  <chiral>
1

>  <chiral_u>
1

>  <density>
0.72134835

>  <diameter>
9

>  <FCharge>
0

>  <GCUT_PEOE_0>
-0.84522015

>  <GCUT_PEOE_1>
-0.37413031

>  <GCUT_PEOE_2>
0.11575735

>  <GCUT_PEOE_3>
2.4191754

>  <GCUT_SLOGP_0>
-1.1526297

>  <GCUT_SLOGP_1>
-0.33410442

>  <GCUT_SLOGP_2>
0.091743551

>  <GCUT_SLOGP_3>
2.5012565

>  <GCUT_SMR_0>
-0.52059948

>  <GCUT_SMR_1>
-0.22954074

>  <GCUT_SMR_2>
0.17904304

>  <GCUT_SMR_3>
2.668134

>  <Kier1>
13.066667

>  <Kier2>
5.915

>  <Kier3>
4.1652894

>  <KierA1>
11.045362

>  <KierA2>
4.9353037

>  <KierA3>
3.4385221

>  <KierFlex>
3.6341479

>  <lip_acc>
4

>  <lip_don>
4

>  <lip_druglike>
1

>  <lip_violation>
0

>  <logP(o/w)>
1.336

>  <logS>
-0.85336

>  <mr>
5.7950273

>  <mutagenic>
0

>  <nmol>
1

>  <opr_brigid>
6

>  <opr_leadlike>
1

>  <opr_nring>
1

>  <opr_nrot>
4

>  <opr_violation>
0

>  <PC+>
0

>  <PC->
0

>  <PEOE_PC+>
1.6329907

>  <PEOE_PC->
-1.6329907

>  <PEOE_RPC+>
0.13314323

>  <PEOE_RPC->
0.23632374

>  <PEOE_VSA+0>
54.726761

>  <PEOE_VSA+1>
21.966473

>  <PEOE_VSA+2>
25.536053

>  <PEOE_VSA+3>
0

>  <PEOE_VSA+4>
30.972517

>  <PEOE_VSA+5>
0

>  <PEOE_VSA+6>
0

>  <PEOE_VSA-0>
64.213699

>  <PEOE_VSA-1>
12.254904

>  <PEOE_VSA-2>
0

>  <PEOE_VSA-3>
0

>  <PEOE_VSA-4>
0

>  <PEOE_VSA-5>
0

>  <PEOE_VSA-6>
23.439512

>  <PEOE_VSA_FHYD>
0.76658207

>  <PEOE_VSA_FNEG>
0.428588

>  <PEOE_VSA_FPNEG>
0.10055133

>  <PEOE_VSA_FPOL>
0.23341791

>  <PEOE_VSA_FPOS>
0.57141197

>  <PEOE_VSA_FPPOS>
0.13286658

>  <PEOE_VSA_HYD>
178.69789

>  <PEOE_VSA_NEG>
99.908119

>  <PEOE_VSA_PNEG>
23.439512

>  <PEOE_VSA_POL>
54.412029

>  <PEOE_VSA_POS>
133.2018

>  <PEOE_VSA_PPOS>
30.972517

>  <petitjean>
0.44444445

>  <petitjeanSC>
0.80000001

>  <Q_PC+>
0

>  <Q_PC->
0

>  <Q_RPC+>
0

>  <Q_RPC->
0

>  <Q_VSA_FHYD>
1

>  <Q_VSA_FNEG>
0

>  <Q_VSA_FPNEG>
0

>  <Q_VSA_FPOL>
0

>  <Q_VSA_FPOS>
1

>  <Q_VSA_FPPOS>
0

>  <Q_VSA_HYD>
233.10992

>  <Q_VSA_NEG>
0

>  <Q_VSA_PNEG>
0

>  <Q_VSA_POL>
0

>  <Q_VSA_POS>
233.10992

>  <Q_VSA_PPOS>
0

>  <radius>
5

>  <reactive>
0

>  <rings>
1

>  <RPC+>
0

>  <RPC->
0

>  <rsynth>
1

>  <SlogP>
1.2247

>  <SlogP_VSA0>
94.166428

>  <SlogP_VSA1>
0

>  <SlogP_VSA2>
3.9819686

>  <SlogP_VSA3>
18.439579

>  <SlogP_VSA4>
3.185575

>  <SlogP_VSA5>
0

>  <SlogP_VSA6>
0

>  <SlogP_VSA7>
52.929554

>  <SlogP_VSA8>
6.4686494

>  <SlogP_VSA9>
77.138885

>  <SMR>
5.79811

>  <SMR_VSA0>
0

>  <SMR_VSA1>
76.155678

>  <SMR_VSA2>
18.01075

>  <SMR_VSA3>
24.123049

>  <SMR_VSA4>
0

>  <SMR_VSA5>
52.929554

>  <SMR_VSA6>
18.439579

>  <SMR_VSA7>
66.652031

>  <TPSA>
72.720001

>  <VAdjEq>
0.56650949

>  <VAdjMa>
4.9068904

>  <VDistEq>
2.9652777

>  <VDistMa>
7.4863939

>  <vdw_area>
233.10992

>  <vdw_vol>
292.8696

>  <vsa_acc>
0

>  <vsa_acid>
0

>  <vsa_base>
0

>  <vsa_don>
0

>  <vsa_hyd>
160.82553

>  <vsa_other>
0

>  <vsa_pol>
46.383339

>  <Weight>
211.261

>  <weinerPath>
400

>  <weinerPol>
19

>  <zagreb>
70

$$$$