O1[C@@H]2[C@]34[C@H]([C@H](N(CC3)C)Cc3c4c1c(OC)cc3)CCC2=O
  MOE2013           2D

 22 26  0  0  1  0  0  0  0  0999 V2000
    0.0000    0.0000    0.0000 O   0  0  0  0  0  0  0  0  0  0  0  0
   -1.7640    0.1660    0.0000 C   0  0  2  0  0  0  0  0  0  0  0  0
   -1.8100    1.5910    0.0000 C   0  0  2  0  0  0  0  0  0  0  0  0
   -3.0750    2.2690    0.0000 C   0  0  2  0  0  0  0  0  0  0  0  0
   -3.1190    3.7120    0.0000 C   0  0  2  0  0  0  0  0  0  0  0  0
   -4.1580    4.7150    0.0000 N   0  0  3  0  0  0  0  0  0  0  0  0
   -2.7190    4.7570    0.0000 C   0  0  0  0  0  0  0  0  0  0  0  0
   -1.4660    3.0080    0.0000 C   0  0  0  0  0  0  0  0  0  0  0  0
   -5.5570    5.2570    0.0000 C   0  0  0  0  0  0  0  0  0  0  0  0
   -1.8920    4.4590    0.0000 C   0  0  0  0  0  0  0  0  0  0  0  0
   -0.6230    3.7760    0.0000 C   0  0  0  0  0  0  0  0  0  0  0  0
   -0.5820    2.3450    0.0000 C   0  0  0  0  0  0  0  0  0  0  0  0
    0.6730    1.6610    0.0000 C   0  0  0  0  0  0  0  0  0  0  0  0
    1.8950    2.4160    0.0000 C   0  0  0  0  0  0  0  0  0  0  0  0
    3.2150    1.7050    0.0000 O   0  0  0  0  0  0  0  0  0  0  0  0
    4.4920    2.4930    0.0000 C   0  0  0  0  0  0  0  0  0  0  0  0
    1.8540    3.8480    0.0000 C   0  0  0  0  0  0  0  0  0  0  0  0
    0.5900    4.5240    0.0000 C   0  0  0  0  0  0  0  0  0  0  0  0
   -4.2930    1.5210    0.0000 C   0  0  0  0  0  0  0  0  0  0  0  0
   -4.2450    0.0850    0.0000 C   0  0  0  0  0  0  0  0  0  0  0  0
   -2.9800   -0.5920    0.0000 C   0  0  0  0  0  0  0  0  0  0  0  0
   -2.9300   -2.0910    0.0000 O   0  0  0  0  0  0  0  0  0  0  0  0
  1 13  1  0  0  0  0
  2  1  1  1  0  0  0
  2  3  1  0  0  0  0
  2 21  1  0  0  0  0
  3  4  1  0  0  0  0
  3  8  1  6  0  0  0
  3 12  1  0  0  0  0
  4  5  1  0  0  0  0
  4 19  1  1  0  0  0
  5  6  1  6  0  0  0
  5 10  1  0  0  0  0
  6  7  1  0  0  0  0
  6  9  1  0  0  0  0
  7  8  1  0  0  0  0
 10 11  1  0  0  0  0
 11 12  1  0  0  0  0
 11 18  2  0  0  0  0
 12 13  2  0  0  0  0
 13 14  1  0  0  0  0
 14 15  1  0  0  0  0
 14 17  2  0  0  0  0
 15 16  1  0  0  0  0
 17 18  1  0  0  0  0
 19 20  1  0  0  0  0
 20 21  1  0  0  0  0
 21 22  2  0  0  0  0
M  END
>  <Index>
527

>  <ID>
HT1045

>  <class>
0

>  <apol>
49.188652

>  <ast_fraglike>
0

>  <ast_fraglike_ext>
0

>  <ast_violation>
1

>  <ast_violation_ext>
1

>  <a_acc>
4

>  <a_acid>
0

>  <a_aro>
6

>  <a_base>
0

>  <a_count>
43

>  <a_don>
0

>  <a_donacc>
4

>  <a_heavy>
22

>  <a_hyd>
17

>  <a_IC>
61.27718

>  <a_ICM>
1.4250507

>  <a_nB>
0

>  <a_nBr>
0

>  <a_nC>
18

>  <a_nCl>
0

>  <a_nF>
0

>  <a_nH>
21

>  <a_nI>
0

>  <a_nN>
1

>  <a_nO>
3

>  <a_nP>
0

>  <a_nS>
0

>  <balabanJ>
1.6325536

>  <BCUT_PEOE_0>
-2.8937418

>  <BCUT_PEOE_1>
-0.55977029

>  <BCUT_PEOE_2>
0.42309391

>  <BCUT_PEOE_3>
2.9097242

>  <BCUT_SLOGP_0>
-2.9460909

>  <BCUT_SLOGP_1>
-0.50204509

>  <BCUT_SLOGP_2>
0.45225185

>  <BCUT_SLOGP_3>
2.8887265

>  <BCUT_SMR_0>
-2.6389136

>  <BCUT_SMR_1>
-0.35685429

>  <BCUT_SMR_2>
0.66505402

>  <BCUT_SMR_3>
3.1606703

>  <bpol>
29.727346

>  <b_1rotN>
1

>  <b_1rotR>
0.03846154

>  <b_ar>
6

>  <b_count>
47

>  <b_double>
1

>  <b_heavy>
26

>  <b_max1len>
2

>  <b_rotN>
1

>  <b_rotR>
0.03846154

>  <b_single>
40

>  <b_triple>
0

>  <chi0>
15.060114

>  <chi0v>
13.094244

>  <chi0v_C>
11.422285

>  <chi0_C>
12.068549

>  <chi1>
10.663869

>  <chi1v>
8.2651625

>  <chi1v_C>
5.9871993

>  <chi1_C>
6.8357353

>  <chiral>
4

>  <chiral_u>
0

>  <density>
0.73584163

>  <diameter>
9

>  <FCharge>
0

>  <GCUT_PEOE_0>
-0.85676873

>  <GCUT_PEOE_1>
-0.41734713

>  <GCUT_PEOE_2>
-0.010270968

>  <GCUT_PEOE_3>
3.1096752

>  <GCUT_SLOGP_0>
-0.96099502

>  <GCUT_SLOGP_1>
-0.34286588

>  <GCUT_SLOGP_2>
0.016373096

>  <GCUT_SLOGP_3>
3.1380024

>  <GCUT_SMR_0>
-0.5215683

>  <GCUT_SMR_1>
-0.19859782

>  <GCUT_SMR_2>
0.13169286

>  <GCUT_SMR_3>
3.3542585

>  <Kier1>
14.352071

>  <Kier2>
4.7619047

>  <Kier3>
1.6435986

>  <KierA1>
12.279867

>  <KierA2>
4.0423417

>  <KierA3>
1.3872746

>  <KierFlex>
2.2563372

>  <lip_acc>
4

>  <lip_don>
0

>  <lip_druglike>
1

>  <lip_violation>
0

>  <logP(o/w)>
1.557

>  <logS>
-2.49121

>  <mr>
8.2145138

>  <mutagenic>
0

>  <nmol>
1

>  <opr_brigid>
22

>  <opr_leadlike>
1

>  <opr_nring>
5

>  <opr_nrot>
1

>  <opr_violation>
1

>  <PC+>
0

>  <PC->
0

>  <PEOE_PC+>
1.5026968

>  <PEOE_PC->
-1.5026968

>  <PEOE_RPC+>
0.1086069

>  <PEOE_RPC->
0.22980778

>  <PEOE_VSA+0>
100.82572

>  <PEOE_VSA+1>
25.592316

>  <PEOE_VSA+2>
21.821968

>  <PEOE_VSA+3>
8.458519

>  <PEOE_VSA+4>
0

>  <PEOE_VSA+5>
0

>  <PEOE_VSA+6>
0

>  <PEOE_VSA-0>
79.20694

>  <PEOE_VSA-1>
12.254904

>  <PEOE_VSA-2>
0

>  <PEOE_VSA-3>
0

>  <PEOE_VSA-4>
0

>  <PEOE_VSA-5>
13.566921

>  <PEOE_VSA-6>
5.0075121

>  <PEOE_VSA_FHYD>
0.93036366

>  <PEOE_VSA_FNEG>
0.41253063

>  <PEOE_VSA_FPNEG>
0.06963633

>  <PEOE_VSA_FPOL>
0.06963633

>  <PEOE_VSA_FPOS>
0.5874694

>  <PEOE_VSA_FPPOS>
0

>  <PEOE_VSA_HYD>
248.16037

>  <PEOE_VSA_NEG>
110.03627

>  <PEOE_VSA_PNEG>
18.574432

>  <PEOE_VSA_POL>
18.574432

>  <PEOE_VSA_POS>
156.69852

>  <PEOE_VSA_PPOS>
0

>  <petitjean>
0.44444445

>  <petitjeanSC>
0.80000001

>  <Q_PC+>
0

>  <Q_PC->
0

>  <Q_RPC+>
0

>  <Q_RPC->
0

>  <Q_VSA_FHYD>
1

>  <Q_VSA_FNEG>
0

>  <Q_VSA_FPNEG>
0

>  <Q_VSA_FPOL>
0

>  <Q_VSA_FPOS>
1

>  <Q_VSA_FPPOS>
0

>  <Q_VSA_HYD>
266.7348

>  <Q_VSA_NEG>
0

>  <Q_VSA_PNEG>
0

>  <Q_VSA_POL>
0

>  <Q_VSA_POS>
266.7348

>  <Q_VSA_PPOS>
0

>  <radius>
5

>  <reactive>
1

>  <rings>
5

>  <RPC+>
0

>  <RPC->
0

>  <rsynth>
0.045454547

>  <SlogP>
1.93327

>  <SlogP_VSA0>
21.999775

>  <SlogP_VSA1>
8.8119249

>  <SlogP_VSA2>
34.312836

>  <SlogP_VSA3>
18.439579

>  <SlogP_VSA4>
10.781946

>  <SlogP_VSA5>
87.14946

>  <SlogP_VSA6>
0

>  <SlogP_VSA7>
35.286369

>  <SlogP_VSA8>
56.605217

>  <SlogP_VSA9>
10.486856

>  <SMR>
8.1557999

>  <SMR_VSA0>
23.862217

>  <SMR_VSA1>
25.12409

>  <SMR_VSA2>
4.4107962

>  <SMR_VSA3>
27.308624

>  <SMR_VSA4>
0

>  <SMR_VSA5>
110.75999

>  <SMR_VSA6>
24.12719

>  <SMR_VSA7>
68.281059

>  <TPSA>
38.77

>  <VAdjEq>
0.49213955

>  <VAdjMa>
5.7004399

>  <VDistEq>
2.7298632

>  <VDistMa>
8.6853304

>  <vdw_area>
266.7348

>  <vdw_vol>
406.84027

>  <vsa_acc>
18.574432

>  <vsa_acid>
0

>  <vsa_base>
0

>  <vsa_don>
0

>  <vsa_hyd>
223.40909

>  <vsa_other>
8.458519

>  <vsa_pol>
18.574432

>  <Weight>
299.37

>  <weinerPath>
824

>  <weinerPol>
51

>  <zagreb>
136

$$$$