O=C1NC=C(C=C1N)c1ccncc1
  MOE2013           2D

 14 15  0  0  0  0  0  0  0  0999 V2000
    0.0000    0.0000    0.0000 O   0  0  0  0  0  0  0  0  0  0  0  0
   -1.5000   -0.0020    0.0000 C   0  0  0  0  0  0  0  0  0  0  0  0
   -2.2520    1.2960    0.0000 N   0  0  0  0  0  0  0  0  0  0  0  0
   -3.7520    1.2950    0.0000 C   0  0  0  0  0  0  0  0  0  0  0  0
   -4.5000   -0.0050    0.0000 C   0  0  0  0  0  0  0  0  0  0  0  0
   -3.7480   -1.3030    0.0000 C   0  0  0  0  0  0  0  0  0  0  0  0
   -2.2480   -1.3020    0.0000 C   0  0  0  0  0  0  0  0  0  0  0  0
   -1.4970   -2.6000    0.0000 N   0  0  0  0  0  0  0  0  0  0  0  0
   -6.0000   -0.0070    0.0000 C   0  0  0  0  0  0  0  0  0  0  0  0
   -6.7520    1.2910    0.0000 C   0  0  0  0  0  0  0  0  0  0  0  0
   -8.2520    1.2890    0.0000 C   0  0  0  0  0  0  0  0  0  0  0  0
   -9.0000   -0.0110    0.0000 N   0  0  0  0  0  0  0  0  0  0  0  0
   -8.2480   -1.3090    0.0000 C   0  0  0  0  0  0  0  0  0  0  0  0
   -6.7480   -1.3070    0.0000 C   0  0  0  0  0  0  0  0  0  0  0  0
  1  2  2  0  0  0  0
  2  3  1  0  0  0  0
  2  7  1  0  0  0  0
  3  4  1  0  0  0  0
  4  5  2  0  0  0  0
  5  6  1  0  0  0  0
  5  9  1  0  0  0  0
  6  7  2  0  0  0  0
  7  8  1  0  0  0  0
  9 10  1  0  0  0  0
  9 14  2  0  0  0  0
 10 11  2  0  0  0  0
 11 12  1  0  0  0  0
 12 13  2  0  0  0  0
 13 14  1  0  0  0  0
M  END
>  <Index>
553

>  <ID>
HT1086

>  <class>
0

>  <apol>
27.703136

>  <ast_fraglike>
1

>  <ast_fraglike_ext>
1

>  <ast_violation>
0

>  <ast_violation_ext>
0

>  <a_acc>
3

>  <a_acid>
0

>  <a_aro>
6

>  <a_base>
0

>  <a_count>
23

>  <a_don>
3

>  <a_donacc>
6

>  <a_heavy>
14

>  <a_hyd>
9

>  <a_IC>
37.538433

>  <a_ICM>
1.6321057

>  <a_nB>
0

>  <a_nBr>
0

>  <a_nC>
10

>  <a_nCl>
0

>  <a_nF>
0

>  <a_nH>
9

>  <a_nI>
0

>  <a_nN>
3

>  <a_nO>
1

>  <a_nP>
0

>  <a_nS>
0

>  <balabanJ>
1.8719529

>  <BCUT_PEOE_0>
-2.3315334

>  <BCUT_PEOE_1>
-0.58883899

>  <BCUT_PEOE_2>
0.67307442

>  <BCUT_PEOE_3>
2.2988162

>  <BCUT_SLOGP_0>
-2.5280423

>  <BCUT_SLOGP_1>
-0.53178912

>  <BCUT_SLOGP_2>
0.72521782

>  <BCUT_SLOGP_3>
2.358278

>  <BCUT_SMR_0>
-1.9884766

>  <BCUT_SMR_1>
-0.45773616

>  <BCUT_SMR_2>
0.7944929

>  <BCUT_SMR_3>
2.636018

>  <bpol>
12.116863

>  <b_1rotN>
1

>  <b_1rotR>
0.06666667

>  <b_ar>
6

>  <b_count>
24

>  <b_double>
3

>  <b_heavy>
15

>  <b_max1len>
2

>  <b_rotN>
1

>  <b_rotR>
0.06666667

>  <b_single>
15

>  <b_triple>
0

>  <chi0>
9.9662552

>  <chi0v>
7.396914

>  <chi0v_C>
5.4641018

>  <chi0_C>
6.5520415

>  <chi1>
6.7708569

>  <chi1v>
4.1579146

>  <chi1v_C>
2.6100423

>  <chi1_C>
3.7079082

>  <chiral>
0

>  <chiral_u>
0

>  <density>
0.75369775

>  <diameter>
8

>  <FCharge>
0

>  <GCUT_PEOE_0>
-0.81570566

>  <GCUT_PEOE_1>
-0.42306527

>  <GCUT_PEOE_2>
0.10555755

>  <GCUT_PEOE_3>
2.2124906

>  <GCUT_SLOGP_0>
-1.3396417

>  <GCUT_SLOGP_1>
-0.33187556

>  <GCUT_SLOGP_2>
0.14771165

>  <GCUT_SLOGP_3>
2.2801929

>  <GCUT_SMR_0>
-0.44077674

>  <GCUT_SMR_1>
-0.22215286

>  <GCUT_SMR_2>
0.18290725

>  <GCUT_SMR_3>
2.5218577

>  <Kier1>
10.515555

>  <Kier2>
4.6799998

>  <Kier3>
2.5344

>  <KierA1>
6.4876161

>  <KierA2>
2.766031

>  <KierA3>
1.4489785

>  <KierFlex>
1.2817819

>  <lip_acc>
4

>  <lip_don>
3

>  <lip_druglike>
1

>  <lip_violation>
0

>  <logP(o/w)>
-0.186

>  <logS>
-0.9666

>  <mr>
5.2838349

>  <mutagenic>
0

>  <nmol>
1

>  <opr_brigid>
12

>  <opr_leadlike>
1

>  <opr_nring>
2

>  <opr_nrot>
1

>  <opr_violation>
0

>  <PC+>
0

>  <PC->
0

>  <PEOE_PC+>
1.2697061

>  <PEOE_PC->
-1.2697061

>  <PEOE_RPC+>
0.20983538

>  <PEOE_RPC->
0.25773433

>  <PEOE_VSA+0>
50.237747

>  <PEOE_VSA+1>
32.291866

>  <PEOE_VSA+2>
17.238026

>  <PEOE_VSA+3>
8.6190128

>  <PEOE_VSA+4>
0

>  <PEOE_VSA+5>
12.949531

>  <PEOE_VSA+6>
0

>  <PEOE_VSA-0>
41.181789

>  <PEOE_VSA-1>
0

>  <PEOE_VSA-2>
0

>  <PEOE_VSA-3>
0

>  <PEOE_VSA-4>
0

>  <PEOE_VSA-5>
25.900616

>  <PEOE_VSA-6>
0.13689101

>  <PEOE_VSA_FHYD>
0.7932331

>  <PEOE_VSA_FNEG>
0.35649613

>  <PEOE_VSA_FPNEG>
0.13808937

>  <PEOE_VSA_FPOL>
0.20676693

>  <PEOE_VSA_FPOS>
0.6435039

>  <PEOE_VSA_FPPOS>
0.068677559

>  <PEOE_VSA_HYD>
149.56845

>  <PEOE_VSA_NEG>
67.219299

>  <PEOE_VSA_PNEG>
26.037508

>  <PEOE_VSA_POL>
38.987038

>  <PEOE_VSA_POS>
121.33618

>  <PEOE_VSA_PPOS>
12.949531

>  <petitjean>
0.5

>  <petitjeanSC>
1

>  <Q_PC+>
0

>  <Q_PC->
0

>  <Q_RPC+>
0

>  <Q_RPC->
0

>  <Q_VSA_FHYD>
1

>  <Q_VSA_FNEG>
0

>  <Q_VSA_FPNEG>
0

>  <Q_VSA_FPOL>
0

>  <Q_VSA_FPOS>
1

>  <Q_VSA_FPPOS>
0

>  <Q_VSA_HYD>
188.55548

>  <Q_VSA_NEG>
0

>  <Q_VSA_PNEG>
0

>  <Q_VSA_POL>
0

>  <Q_VSA_POS>
188.55548

>  <Q_VSA_PPOS>
0

>  <radius>
4

>  <reactive>
0

>  <rings>
2

>  <RPC+>
0

>  <RPC->
0

>  <rsynth>
1

>  <SlogP>
0.39489999

>  <SlogP_VSA0>
50.90794

>  <SlogP_VSA1>
22.044313

>  <SlogP_VSA2>
23.862217

>  <SlogP_VSA3>
0

>  <SlogP_VSA4>
3.185575

>  <SlogP_VSA5>
2.7567475

>  <SlogP_VSA6>
0

>  <SlogP_VSA7>
107.7582

>  <SlogP_VSA8>
0

>  <SlogP_VSA9>
0

>  <SMR>
5.2627101

>  <SMR_VSA0>
23.862217

>  <SMR_VSA1>
16.78553

>  <SMR_VSA2>
18.01075

>  <SMR_VSA3>
5.9423227

>  <SMR_VSA4>
36.082764

>  <SMR_VSA5>
104.57262

>  <SMR_VSA6>
5.2587838

>  <SMR_VSA7>
0

>  <TPSA>
68.010002

>  <VAdjEq>
0.61744827

>  <VAdjMa>
4.9068904

>  <VDistEq>
2.7285419

>  <VDistMa>
7.3001604

>  <vdw_area>
188.55548

>  <vdw_vol>
248.37807

>  <vsa_acc>
5.6825762

>  <vsa_acid>
0

>  <vsa_base>
0

>  <vsa_don>
17.742489

>  <vsa_hyd>
119.44064

>  <vsa_other>
12.949531

>  <vsa_pol>
42.674564

>  <Weight>
187.202

>  <weinerPath>
303

>  <weinerPol>
19

>  <zagreb>
70

$$$$