Fc1c(c2c(N(C=C(C(O)=O)C2=O)C2CC2)cc1N1CC(NCC1)C)C
  MOE2013           2D

 26 29  0  0  1  0  0  0  0  0999 V2000
    0.0000    0.0000    0.0000 F   0  0  0  0  0  0  0  0  0  0  0  0
   -0.7430    1.3030    0.0000 C   0  0  0  0  0  0  0  0  0  0  0  0
   -2.2430    1.3120    0.0000 C   0  0  0  0  0  0  0  0  0  0  0  0
   -2.9850    2.6150    0.0000 C   0  0  0  0  0  0  0  0  0  0  0  0
   -2.2280    3.9100    0.0000 C   0  0  0  0  0  0  0  0  0  0  0  0
   -2.9700    5.2130    0.0000 N   0  0  3  0  0  0  0  0  0  0  0  0
   -4.4700    5.2220    0.0000 C   0  0  0  0  0  0  0  0  0  0  0  0
   -5.2280    3.9270    0.0000 C   0  0  0  0  0  0  0  0  0  0  0  0
   -6.7280    3.9360    0.0000 C   0  0  0  0  0  0  0  0  0  0  0  0
   -7.4700    5.2390    0.0000 O   0  0  0  0  0  0  0  0  0  0  0  0
   -7.4850    2.6410    0.0000 O   0  0  0  0  0  0  0  0  0  0  0  0
   -4.4850    2.6240    0.0000 C   0  0  0  0  0  0  0  0  0  0  0  0
   -5.2420    1.3290    0.0000 O   0  0  0  0  0  0  0  0  0  0  0  0
   -2.2130    6.5080    0.0000 C   0  0  0  0  0  0  0  0  0  0  0  0
   -0.9090    7.2510    0.0000 C   0  0  0  0  0  0  0  0  0  0  0  0
   -2.2040    8.0080    0.0000 C   0  0  0  0  0  0  0  0  0  0  0  0
   -0.7280    3.9010    0.0000 C   0  0  0  0  0  0  0  0  0  0  0  0
    0.0150    2.5980    0.0000 C   0  0  0  0  0  0  0  0  0  0  0  0
    1.5150    2.5890    0.0000 N   0  0  3  0  0  0  0  0  0  0  0  0
    2.2570    1.2860    0.0000 C   0  0  0  0  0  0  0  0  0  0  0  0
    3.7570    1.2780    0.0000 C   0  0  3  0  0  0  0  0  0  0  0  0
    4.5150    2.5720    0.0000 N   0  0  0  0  0  0  0  0  0  0  0  0
    3.7720    3.8760    0.0000 C   0  0  0  0  0  0  0  0  0  0  0  0
    2.2720    3.8840    0.0000 C   0  0  0  0  0  0  0  0  0  0  0  0
    4.5000   -0.0260    0.0000 C   0  0  0  0  0  0  0  0  0  0  0  0
   -3.0000    0.0170    0.0000 C   0  0  0  0  0  0  0  0  0  0  0  0
  1  2  1  0  0  0  0
  2  3  1  0  0  0  0
  2 18  2  0  0  0  0
  3  4  2  0  0  0  0
  3 26  1  0  0  0  0
  4  5  1  0  0  0  0
  4 12  1  0  0  0  0
  5  6  1  0  0  0  0
  5 17  2  0  0  0  0
  6  7  1  0  0  0  0
  6 14  1  0  0  0  0
  7  8  2  0  0  0  0
  8  9  1  0  0  0  0
  8 12  1  0  0  0  0
  9 10  1  0  0  0  0
  9 11  2  0  0  0  0
 12 13  2  0  0  0  0
 14 15  1  0  0  0  0
 14 16  1  0  0  0  0
 15 16  1  0  0  0  0
 17 18  1  0  0  0  0
 18 19  1  0  0  0  0
 19 20  1  0  0  0  0
 19 24  1  0  0  0  0
 20 21  1  0  0  0  0
 21 22  1  0  0  0  0
 21 25  1  0  0  0  0
 22 23  1  0  0  0  0
 23 24  1  0  0  0  0
M  END
>  <Index>
503

>  <ID>
HT1004

>  <class>
0

>  <apol>
54.372444

>  <ast_fraglike>
0

>  <ast_fraglike_ext>
0

>  <ast_violation>
2

>  <ast_violation_ext>
3

>  <a_acc>
4

>  <a_acid>
0

>  <a_aro>
6

>  <a_base>
0

>  <a_count>
48

>  <a_don>
3

>  <a_donacc>
7

>  <a_heavy>
26

>  <a_hyd>
18

>  <a_IC>
79.750305

>  <a_ICM>
1.6614647

>  <a_nB>
0

>  <a_nBr>
0

>  <a_nC>
19

>  <a_nCl>
0

>  <a_nF>
1

>  <a_nH>
22

>  <a_nI>
0

>  <a_nN>
3

>  <a_nO>
3

>  <a_nP>
0

>  <a_nS>
0

>  <balabanJ>
1.5867532

>  <BCUT_PEOE_0>
-2.7483337

>  <BCUT_PEOE_1>
-0.54304802

>  <BCUT_PEOE_2>
0.55065811

>  <BCUT_PEOE_3>
2.7634265

>  <BCUT_SLOGP_0>
-2.9127576

>  <BCUT_SLOGP_1>
-0.49944648

>  <BCUT_SLOGP_2>
0.59251231

>  <BCUT_SLOGP_3>
2.8107796

>  <BCUT_SMR_0>
-2.4565697

>  <BCUT_SMR_1>
-0.36120316

>  <BCUT_SMR_2>
0.69389862

>  <BCUT_SMR_3>
3.0319798

>  <bpol>
31.789555

>  <b_1rotN>
3

>  <b_1rotR>
0.10344828

>  <b_ar>
6

>  <b_count>
51

>  <b_double>
3

>  <b_heavy>
29

>  <b_max1len>
3

>  <b_rotN>
3

>  <b_rotR>
0.10344828

>  <b_single>
42

>  <b_triple>
0

>  <chi0>
18.585058

>  <chi0v>
14.881037

>  <chi0v_C>
11.844935

>  <chi0_C>
12.72325

>  <chi1>
12.379918

>  <chi1v>
8.977253

>  <chi1v_C>
5.9181204

>  <chi1_C>
6.9375238

>  <chiral>
1

>  <chiral_u>
1

>  <density>
0.77294803

>  <diameter>
11

>  <FCharge>
0

>  <GCUT_PEOE_0>
-0.84301507

>  <GCUT_PEOE_1>
-0.43866119

>  <GCUT_PEOE_2>
0.064817138

>  <GCUT_PEOE_3>
2.8128276

>  <GCUT_SLOGP_0>
-1.1546136

>  <GCUT_SLOGP_1>
-0.36233097

>  <GCUT_SLOGP_2>
0.14339304

>  <GCUT_SLOGP_3>
2.850682

>  <GCUT_SMR_0>
-0.51321518

>  <GCUT_SMR_1>
-0.22116584

>  <GCUT_SMR_2>
0.18032686

>  <GCUT_SMR_3>
3.0887277

>  <Kier1>
19.322235

>  <Kier2>
7.4380164

>  <Kier3>
3.3378685

>  <KierA1>
15.021054

>  <KierA2>
5.7200522

>  <KierA3>
2.5470986

>  <KierFlex>
3.304662

>  <lip_acc>
6

>  <lip_don>
2

>  <lip_druglike>
1

>  <lip_violation>
0

>  <logP(o/w)>
1.756

>  <logS>
-3.22227

>  <mr>
9.4370975

>  <mutagenic>
0

>  <nmol>
1

>  <opr_brigid>
20

>  <opr_leadlike>
1

>  <opr_nring>
4

>  <opr_nrot>
5

>  <opr_violation>
0

>  <PC+>
0

>  <PC->
0

>  <PEOE_PC+>
2.0811601

>  <PEOE_PC->
-2.0811601

>  <PEOE_RPC+>
0.14219436

>  <PEOE_RPC->
0.15730372

>  <PEOE_VSA+0>
148.29985

>  <PEOE_VSA+1>
15.230323

>  <PEOE_VSA+2>
19.848398

>  <PEOE_VSA+3>
0

>  <PEOE_VSA+4>
18.782692

>  <PEOE_VSA+5>
14.708499

>  <PEOE_VSA+6>
0

>  <PEOE_VSA-0>
69.361427

>  <PEOE_VSA-1>
0

>  <PEOE_VSA-2>
0

>  <PEOE_VSA-3>
0

>  <PEOE_VSA-4>
11.908636

>  <PEOE_VSA-5>
27.133842

>  <PEOE_VSA-6>
7.9044313

>  <PEOE_VSA_FHYD>
0.75857329

>  <PEOE_VSA_FNEG>
0.34908757

>  <PEOE_VSA_FPNEG>
0.14090635

>  <PEOE_VSA_FPOL>
0.24142674

>  <PEOE_VSA_FPOS>
0.6509124

>  <PEOE_VSA_FPPOS>
0.10052039

>  <PEOE_VSA_HYD>
252.73999

>  <PEOE_VSA_NEG>
116.30833

>  <PEOE_VSA_PNEG>
46.946907

>  <PEOE_VSA_POL>
80.438103

>  <PEOE_VSA_POS>
216.86977

>  <PEOE_VSA_PPOS>
33.491192

>  <petitjean>
0.45454547

>  <petitjeanSC>
0.83333331

>  <Q_PC+>
0

>  <Q_PC->
0

>  <Q_RPC+>
0

>  <Q_RPC->
0

>  <Q_VSA_FHYD>
1

>  <Q_VSA_FNEG>
0

>  <Q_VSA_FPNEG>
0

>  <Q_VSA_FPOL>
0

>  <Q_VSA_FPOS>
1

>  <Q_VSA_FPPOS>
0

>  <Q_VSA_HYD>
333.1781

>  <Q_VSA_NEG>
0

>  <Q_VSA_PNEG>
0

>  <Q_VSA_POL>
0

>  <Q_VSA_POS>
333.1781

>  <Q_VSA_PPOS>
0

>  <radius>
6

>  <reactive>
0

>  <rings>
4

>  <RPC+>
0

>  <RPC->
0

>  <rsynth>
0.53846157

>  <SlogP>
2.06582

>  <SlogP_VSA0>
24.259378

>  <SlogP_VSA1>
13.433075

>  <SlogP_VSA2>
40.94717

>  <SlogP_VSA3>
80.703964

>  <SlogP_VSA4>
30.233366

>  <SlogP_VSA5>
3.185575

>  <SlogP_VSA6>
0

>  <SlogP_VSA7>
34.85754

>  <SlogP_VSA8>
37.736813

>  <SlogP_VSA9>
87.125641

>  <SMR>
9.6365004

>  <SMR_VSA0>
47.724434

>  <SMR_VSA1>
14.960114

>  <SMR_VSA2>
58.765621

>  <SMR_VSA3>
17.520662

>  <SMR_VSA4>
5.513495

>  <SMR_VSA5>
72.594353

>  <SMR_VSA6>
68.751808

>  <SMR_VSA7>
66.652031

>  <TPSA>
72.879997

>  <VAdjEq>
0.42228913

>  <VAdjMa>
5.8579812

>  <VDistEq>
3.2009199

>  <VDistMa>
9.1441975

>  <vdw_area>
333.1781

>  <vdw_vol>
464.97433

>  <vsa_acc>
13.566921

>  <vsa_acid>
0

>  <vsa_base>
0

>  <vsa_don>
0

>  <vsa_hyd>
241.79372

>  <vsa_other>
23.167019

>  <vsa_pol>
46.383339

>  <Weight>
359.401

>  <weinerPath>
1499

>  <weinerPol>
49

>  <zagreb>
146

$$$$