O(CC(NC(C(O)c1ccc(O)cc1)C)C)c1ccccc1
  MOE2013           2D

 22 23  0  0  1  0  0  0  0  0999 V2000
    0.0000    0.0000    0.0000 O   0  0  0  0  0  0  0  0  0  0  0  0
    1.3050   -0.7390    0.0000 C   0  0  0  0  0  0  0  0  0  0  0  0
    2.5980    0.0220    0.0000 C   0  0  3  0  0  0  0  0  0  0  0  0
    3.9030   -0.7170    0.0000 N   0  0  0  0  0  0  0  0  0  0  0  0
    5.1960    0.0440    0.0000 C   0  0  3  0  0  0  0  0  0  0  0  0
    6.5010   -0.6950    0.0000 C   0  0  3  0  0  0  0  0  0  0  0  0
    6.5140   -2.1950    0.0000 O   0  0  0  0  0  0  0  0  0  0  0  0
    7.7940    0.0660    0.0000 C   0  0  0  0  0  0  0  0  0  0  0  0
    9.0990   -0.6730    0.0000 C   0  0  0  0  0  0  0  0  0  0  0  0
   10.3920    0.0880    0.0000 C   0  0  0  0  0  0  0  0  0  0  0  0
   10.3790    1.5880    0.0000 C   0  0  0  0  0  0  0  0  0  0  0  0
   11.6720    2.3490    0.0000 O   0  0  0  0  0  0  0  0  0  0  0  0
    9.0740    2.3270    0.0000 C   0  0  0  0  0  0  0  0  0  0  0  0
    7.7810    1.5660    0.0000 C   0  0  0  0  0  0  0  0  0  0  0  0
    5.1830    1.5440    0.0000 C   0  0  0  0  0  0  0  0  0  0  0  0
    2.5850    1.5220    0.0000 C   0  0  0  0  0  0  0  0  0  0  0  0
   -1.2930   -0.7610    0.0000 C   0  0  0  0  0  0  0  0  0  0  0  0
   -1.2800   -2.2610    0.0000 C   0  0  0  0  0  0  0  0  0  0  0  0
   -2.5730   -3.0220    0.0000 C   0  0  0  0  0  0  0  0  0  0  0  0
   -3.8780   -2.2830    0.0000 C   0  0  0  0  0  0  0  0  0  0  0  0
   -3.8910   -0.7830    0.0000 C   0  0  0  0  0  0  0  0  0  0  0  0
   -2.5980   -0.0220    0.0000 C   0  0  0  0  0  0  0  0  0  0  0  0
  1  2  1  0  0  0  0
  1 17  1  0  0  0  0
  2  3  1  0  0  0  0
  3  4  1  0  0  0  0
  3 16  1  0  0  0  0
  4  5  1  0  0  0  0
  5  6  1  0  0  0  0
  5 15  1  0  0  0  0
  6  7  1  0  0  0  0
  6  8  1  0  0  0  0
  8  9  1  0  0  0  0
  8 14  2  0  0  0  0
  9 10  2  0  0  0  0
 10 11  1  0  0  0  0
 11 12  1  0  0  0  0
 11 13  2  0  0  0  0
 13 14  1  0  0  0  0
 17 18  1  0  0  0  0
 17 22  2  0  0  0  0
 18 19  2  0  0  0  0
 19 20  1  0  0  0  0
 20 21  2  0  0  0  0
 21 22  1  0  0  0  0
M  END
>  <Index>
579

>  <ID>
HT1145

>  <class>
0

>  <apol>
50.52224

>  <ast_fraglike>
0

>  <ast_fraglike_ext>
0

>  <ast_violation>
2

>  <ast_violation_ext>
3

>  <a_acc>
4

>  <a_acid>
0

>  <a_aro>
12

>  <a_base>
0

>  <a_count>
45

>  <a_don>
3

>  <a_donacc>
7

>  <a_heavy>
22

>  <a_hyd>
18

>  <a_IC>
63.277927

>  <a_ICM>
1.4061762

>  <a_nB>
0

>  <a_nBr>
0

>  <a_nC>
18

>  <a_nCl>
0

>  <a_nF>
0

>  <a_nH>
23

>  <a_nI>
0

>  <a_nN>
1

>  <a_nO>
3

>  <a_nP>
0

>  <a_nS>
0

>  <balabanJ>
1.6505151

>  <BCUT_PEOE_0>
-2.6806824

>  <BCUT_PEOE_1>
-0.64299744

>  <BCUT_PEOE_2>
0.6804173

>  <BCUT_PEOE_3>
2.6303053

>  <BCUT_SLOGP_0>
-2.8158538

>  <BCUT_SLOGP_1>
-0.53807992

>  <BCUT_SLOGP_2>
0.7599017

>  <BCUT_SLOGP_3>
2.5993752

>  <BCUT_SMR_0>
-2.4184031

>  <BCUT_SMR_1>
-0.48903143

>  <BCUT_SMR_2>
0.82735652

>  <BCUT_SMR_3>
2.8841152

>  <bpol>
27.719761

>  <b_1rotN>
7

>  <b_1rotR>
0.30434781

>  <b_ar>
12

>  <b_count>
46

>  <b_double>
0

>  <b_heavy>
23

>  <b_max1len>
7

>  <b_rotN>
7

>  <b_rotR>
0.30434781

>  <b_single>
34

>  <b_triple>
0

>  <chi0>
15.949383

>  <chi0v>
12.937985

>  <chi0v_C>
11.13531

>  <chi0_C>
12.53517

>  <chi1>
10.558551

>  <chi1v>
7.4689631

>  <chi1v_C>
5.9170079

>  <chi1_C>
7.6791053

>  <chiral>
3

>  <chiral_u>
3

>  <density>
0.69377941

>  <diameter>
14

>  <FCharge>
0

>  <GCUT_PEOE_0>
-0.8355583

>  <GCUT_PEOE_1>
-0.38173851

>  <GCUT_PEOE_2>
0.082336314

>  <GCUT_PEOE_3>
2.6150041

>  <GCUT_SLOGP_0>
-1.1535548

>  <GCUT_SLOGP_1>
-0.31765652

>  <GCUT_SLOGP_2>
0.15273716

>  <GCUT_SLOGP_3>
2.6675515

>  <GCUT_SMR_0>
-0.51830798

>  <GCUT_SMR_1>
-0.21605732

>  <GCUT_SMR_2>
0.18679194

>  <GCUT_SMR_3>
2.8627501

>  <Kier1>
18.340265

>  <Kier2>
9.333333

>  <Kier3>
6.2040815

>  <KierA1>
14.602181

>  <KierA2>
7.3447256

>  <KierA3>
4.8409681

>  <KierFlex>
4.8749552

>  <lip_acc>
4

>  <lip_don>
3

>  <lip_druglike>
1

>  <lip_violation>
0

>  <logP(o/w)>
3.302

>  <logS>
-3.06003

>  <mr>
8.8039207

>  <mutagenic>
0

>  <nmol>
1

>  <opr_brigid>
12

>  <opr_leadlike>
1

>  <opr_nring>
2

>  <opr_nrot>
7

>  <opr_violation>
0

>  <PC+>
0

>  <PC->
0

>  <PEOE_PC+>
1.9208421

>  <PEOE_PC->
-1.9208421

>  <PEOE_RPC+>
0.11313438

>  <PEOE_RPC->
0.2007661

>  <PEOE_VSA+0>
40.415009

>  <PEOE_VSA+1>
87.957893

>  <PEOE_VSA+2>
8.6190128

>  <PEOE_VSA+3>
0

>  <PEOE_VSA+4>
20.648346

>  <PEOE_VSA+5>
0

>  <PEOE_VSA+6>
0

>  <PEOE_VSA-0>
88.723511

>  <PEOE_VSA-1>
61.274521

>  <PEOE_VSA-2>
0

>  <PEOE_VSA-3>
0

>  <PEOE_VSA-4>
0

>  <PEOE_VSA-5>
0

>  <PEOE_VSA-6>
18.175728

>  <PEOE_VSA_FHYD>
0.88083977

>  <PEOE_VSA_FNEG>
0.5161649

>  <PEOE_VSA_FPNEG>
0.055785593

>  <PEOE_VSA_FPOL>
0.11916023

>  <PEOE_VSA_FPOS>
0.4838351

>  <PEOE_VSA_FPPOS>
0.063374639

>  <PEOE_VSA_HYD>
286.98996

>  <PEOE_VSA_NEG>
168.17375

>  <PEOE_VSA_PNEG>
18.175728

>  <PEOE_VSA_POL>
38.824074

>  <PEOE_VSA_POS>
157.64026

>  <PEOE_VSA_PPOS>
20.648346

>  <petitjean>
0.5

>  <petitjeanSC>
1

>  <Q_PC+>
0

>  <Q_PC->
0

>  <Q_RPC+>
0

>  <Q_RPC->
0

>  <Q_VSA_FHYD>
1

>  <Q_VSA_FNEG>
0

>  <Q_VSA_FPNEG>
0

>  <Q_VSA_FPOL>
0

>  <Q_VSA_FPOS>
1

>  <Q_VSA_FPPOS>
0

>  <Q_VSA_HYD>
325.81403

>  <Q_VSA_NEG>
0

>  <Q_VSA_PNEG>
0

>  <Q_VSA_POL>
0

>  <Q_VSA_POS>
325.81403

>  <Q_VSA_PPOS>
0

>  <radius>
7

>  <reactive>
0

>  <rings>
2

>  <RPC+>
0

>  <RPC->
0

>  <rsynth>
1

>  <SlogP>
2.9667001

>  <SlogP_VSA0>
79.78109

>  <SlogP_VSA1>
0

>  <SlogP_VSA2>
7.9639373

>  <SlogP_VSA3>
20.926258

>  <SlogP_VSA4>
3.185575

>  <SlogP_VSA5>
0

>  <SlogP_VSA6>
0

>  <SlogP_VSA7>
158.78867

>  <SlogP_VSA8>
6.4686494

>  <SlogP_VSA9>
77.138885

>  <SMR>
8.7174301

>  <SMR_VSA0>
0

>  <SMR_VSA1>
61.77034

>  <SMR_VSA2>
18.01075

>  <SMR_VSA3>
28.105019

>  <SMR_VSA4>
0

>  <SMR_VSA5>
158.78867

>  <SMR_VSA6>
20.926258

>  <SMR_VSA7>
66.652031

>  <TPSA>
61.720001

>  <VAdjEq>
0.4530769

>  <VAdjMa>
5.523562

>  <VDistEq>
3.5505486

>  <VDistMa>
8.5859385

>  <vdw_area>
325.81403

>  <vdw_vol>
434.41183

>  <vsa_acc>
2.503756

>  <vsa_acid>
0

>  <vsa_base>
0

>  <vsa_don>
0

>  <vsa_hyd>
264.13504

>  <vsa_other>
0

>  <vsa_pol>
35.320175

>  <Weight>
301.38599

>  <weinerPath>
1247

>  <weinerPol>
29

>  <zagreb>
106

$$$$