ClCC(=O)[C@]1(OC(=O)CC)[C@@]2([C@H]([C@@H]3C[C@H](F)C4=CC(=O)C=C[C@]4(C)[C@@]3(F)[C@@H](O)C2)C[C@@H]1C)C
  MOE2013           2D

 33 36  0  0  1  0  0  0  0  0999 V2000
    0.0000    0.0000    0.0000 Cl  0  0  0  0  0  0  0  0  0  0  0  0
    1.4140    0.4990    0.0000 C   0  0  0  0  0  0  0  0  0  0  0  0
    2.5540   -0.4760    0.0000 C   0  0  0  0  0  0  0  0  0  0  0  0
    2.2790   -1.9500    0.0000 O   0  0  0  0  0  0  0  0  0  0  0  0
    3.9690    0.0240    0.0000 C   0  0  2  0  0  0  0  0  0  0  0  0
    3.7460   -1.4600    0.0000 O   0  0  0  0  0  0  0  0  0  0  0  0
    4.9190   -2.3940    0.0000 C   0  0  0  0  0  0  0  0  0  0  0  0
    6.3150   -1.8460    0.0000 O   0  0  0  0  0  0  0  0  0  0  0  0
    4.6960   -3.8780    0.0000 C   0  0  0  0  0  0  0  0  0  0  0  0
    5.8690   -4.8130    0.0000 C   0  0  0  0  0  0  0  0  0  0  0  0
    5.4680   -0.0170    0.0000 C   0  0  2  0  0  0  0  0  0  0  0  0
    5.9700    1.3970    0.0000 C   0  0  2  0  0  0  0  0  0  0  0  0
    7.4450    1.6690    0.0000 C   0  0  2  0  0  0  0  0  0  0  0  0
    7.9470    3.0820    0.0000 C   0  0  0  0  0  0  0  0  0  0  0  0
    9.4220    3.3540    0.0000 C   0  0  2  0  0  0  0  0  0  0  0  0
    9.9240    4.7680    0.0000 F   0  0  0  0  0  0  0  0  0  0  0  0
   10.3950    2.2130    0.0000 C   0  0  0  0  0  0  0  0  0  0  0  0
   11.8700    2.4850    0.0000 C   0  0  0  0  0  0  0  0  0  0  0  0
   12.8440    1.3430    0.0000 C   0  0  0  0  0  0  0  0  0  0  0  0
   14.3190    1.6150    0.0000 O   0  0  0  0  0  0  0  0  0  0  0  0
   12.3420   -0.0700    0.0000 C   0  0  0  0  0  0  0  0  0  0  0  0
   10.8670   -0.3420    0.0000 C   0  0  0  0  0  0  0  0  0  0  0  0
    9.8930    0.7990    0.0000 C   0  0  1  0  0  0  0  0  0  0  0  0
    9.3910   -0.6140    0.0000 C   0  0  0  0  0  0  0  0  0  0  0  0
    8.4180    0.5270    0.0000 C   0  0  2  0  0  0  0  0  0  0  0  0
    6.9430    0.2550    0.0000 F   0  0  0  0  0  0  0  0  0  0  0  0
    7.9160   -0.8860    0.0000 C   0  0  1  0  0  0  0  0  0  0  0  0
    8.8890   -2.0280    0.0000 O   0  0  0  0  0  0  0  0  0  0  0  0
    6.4410   -1.1580    0.0000 C   0  0  0  0  0  0  0  0  0  0  0  0
    4.7810    2.3110    0.0000 C   0  0  0  0  0  0  0  0  0  0  0  0
    3.5440    1.4620    0.0000 C   0  0  2  0  0  0  0  0  0  0  0  0
    2.1300    1.9640    0.0000 C   0  0  0  0  0  0  0  0  0  0  0  0
    4.8450   -1.3810    0.0000 C   0  0  0  0  0  0  0  0  0  0  0  0
  1  2  1  0  0  0  0
  2  3  1  0  0  0  0
  3  4  2  0  0  0  0
  5  3  1  1  0  0  0
  5  6  1  6  0  0  0
  5 11  1  0  0  0  0
  5 31  1  0  0  0  0
  6  7  1  0  0  0  0
  7  8  2  0  0  0  0
  7  9  1  0  0  0  0
  9 10  1  0  0  0  0
 11 12  1  0  0  0  0
 11 29  1  0  0  0  0
 11 33  1  1  0  0  0
 12 13  1  0  0  0  0
 12 30  1  1  0  0  0
 13 14  1  6  0  0  0
 13 25  1  0  0  0  0
 14 15  1  0  0  0  0
 15 16  1  6  0  0  0
 15 17  1  0  0  0  0
 17 18  2  0  0  0  0
 17 23  1  0  0  0  0
 18 19  1  0  0  0  0
 19 20  2  0  0  0  0
 19 21  1  0  0  0  0
 21 22  2  0  0  0  0
 22 23  1  0  0  0  0
 23 24  1  1  0  0  0
 23 25  1  0  0  0  0
 25 26  1  6  0  0  0
 25 27  1  0  0  0  0
 27 28  1  1  0  0  0
 27 29  1  0  0  0  0
 30 31  1  0  0  0  0
 31 32  1  1  0  0  0
M  END
>  <Index>
511

>  <ID>
HT1015

>  <class>
0

>  <apol>
71.974586

>  <ast_fraglike>
0

>  <ast_fraglike_ext>
0

>  <ast_violation>
3

>  <ast_violation_ext>
4

>  <a_acc>
4

>  <a_acid>
0

>  <a_aro>
0

>  <a_base>
0

>  <a_count>
64

>  <a_don>
1

>  <a_donacc>
5

>  <a_heavy>
33

>  <a_hyd>
25

>  <a_IC>
100.71387

>  <a_ICM>
1.5736542

>  <a_nB>
0

>  <a_nBr>
0

>  <a_nC>
25

>  <a_nCl>
1

>  <a_nF>
2

>  <a_nH>
31

>  <a_nI>
0

>  <a_nN>
0

>  <a_nO>
5

>  <a_nP>
0

>  <a_nS>
0

>  <balabanJ>
1.817987

>  <BCUT_PEOE_0>
-2.8906724

>  <BCUT_PEOE_1>
-0.49790546

>  <BCUT_PEOE_2>
0.36684275

>  <BCUT_PEOE_3>
3.0068362

>  <BCUT_SLOGP_0>
-2.9294229

>  <BCUT_SLOGP_1>
-0.4188574

>  <BCUT_SLOGP_2>
0.48759034

>  <BCUT_SLOGP_3>
2.9933462

>  <BCUT_SMR_0>
-2.6710446

>  <BCUT_SMR_1>
-0.2829141

>  <BCUT_SMR_2>
0.56274062

>  <BCUT_SMR_3>
3.2287498

>  <bpol>
41.505417

>  <b_1rotN>
4

>  <b_1rotR>
0.11111111

>  <b_ar>
0

>  <b_count>
67

>  <b_double>
5

>  <b_heavy>
36

>  <b_max1len>
4

>  <b_rotN>
5

>  <b_rotR>
0.1388889

>  <b_single>
62

>  <b_triple>
0

>  <chi0>
24.560114

>  <chi0v>
20.124365

>  <chi0v_C>
16.154337

>  <chi0_C>
16.853006

>  <chi1>
15.328424

>  <chi1v>
12.138905

>  <chi1v_C>
9.6511011

>  <chi1_C>
10.472764

>  <chiral>
9

>  <chiral_u>
0

>  <density>
0.80532777

>  <diameter>
13

>  <FCharge>
0

>  <GCUT_PEOE_0>
-0.78945112

>  <GCUT_PEOE_1>
-0.39739594

>  <GCUT_PEOE_2>
-3.0904666e-005

>  <GCUT_PEOE_3>
3.4303906

>  <GCUT_SLOGP_0>
-0.92983168

>  <GCUT_SLOGP_1>
-0.31529573

>  <GCUT_SLOGP_2>
0.067230269

>  <GCUT_SLOGP_3>
3.4472396

>  <GCUT_SMR_0>
-0.53789562

>  <GCUT_SMR_1>
-0.21523511

>  <GCUT_SMR_2>
0.15117037

>  <GCUT_SMR_3>
3.6449933

>  <Kier1>
26.074074

>  <Kier2>
8.542222

>  <Kier3>
3.2593935

>  <KierA1>
23.543079

>  <KierA2>
7.6874824

>  <KierA3>
2.9261904

>  <KierFlex>
5.4844546

>  <lip_acc>
5

>  <lip_don>
1

>  <lip_druglike>
1

>  <lip_violation>
0

>  <logP(o/w)>
4.6110001

>  <logS>
-5.0951099

>  <mr>
12.049408

>  <mutagenic>
1

>  <nmol>
1

>  <opr_brigid>
20

>  <opr_leadlike>
1

>  <opr_nring>
4

>  <opr_nrot>
4

>  <opr_violation>
1

>  <PC+>
0

>  <PC->
0

>  <PEOE_PC+>
2.571228

>  <PEOE_PC->
-2.571228

>  <PEOE_RPC+>
0.10221773

>  <PEOE_RPC->
0.15112646

>  <PEOE_VSA+0>
106.80519

>  <PEOE_VSA+1>
45.77515

>  <PEOE_VSA+2>
5.4672546

>  <PEOE_VSA+3>
16.917038

>  <PEOE_VSA+4>
10.324173

>  <PEOE_VSA+5>
14.708499

>  <PEOE_VSA+6>
0

>  <PEOE_VSA-0>
71.569962

>  <PEOE_VSA-1>
68.49794

>  <PEOE_VSA-2>
29.581947

>  <PEOE_VSA-3>
0

>  <PEOE_VSA-4>
23.817272

>  <PEOE_VSA-5>
40.700764

>  <PEOE_VSA-6>
10.271297

>  <PEOE_VSA_FHYD>
0.77539647

>  <PEOE_VSA_FNEG>
0.54999799

>  <PEOE_VSA_FPNEG>
0.16827901

>  <PEOE_VSA_FPOL>
0.22460353

>  <PEOE_VSA_FPOS>
0.45000201

>  <PEOE_VSA_FPPOS>
0.056324519

>  <PEOE_VSA_HYD>
344.61447

>  <PEOE_VSA_NEG>
244.43918

>  <PEOE_VSA_PNEG>
74.78933

>  <PEOE_VSA_POL>
99.821999

>  <PEOE_VSA_POS>
199.99731

>  <PEOE_VSA_PPOS>
25.032671

>  <petitjean>
0.46153846

>  <petitjeanSC>
0.85714287

>  <Q_PC+>
0

>  <Q_PC->
0

>  <Q_RPC+>
0

>  <Q_RPC->
0

>  <Q_VSA_FHYD>
1

>  <Q_VSA_FNEG>
0

>  <Q_VSA_FPNEG>
0

>  <Q_VSA_FPOL>
0

>  <Q_VSA_FPOS>
1

>  <Q_VSA_FPPOS>
0

>  <Q_VSA_HYD>
444.43649

>  <Q_VSA_NEG>
0

>  <Q_VSA_PNEG>
0

>  <Q_VSA_POL>
0

>  <Q_VSA_POS>
444.43649

>  <Q_VSA_PPOS>
0

>  <radius>
7

>  <reactive>
1

>  <rings>
4

>  <RPC+>
0

>  <RPC->
0

>  <rsynth>
0.36363637

>  <SlogP>
4.0510998

>  <SlogP_VSA0>
25.385227

>  <SlogP_VSA1>
19.120686

>  <SlogP_VSA2>
99.401428

>  <SlogP_VSA3>
19.183437

>  <SlogP_VSA4>
13.232388

>  <SlogP_VSA5>
3.185575

>  <SlogP_VSA6>
0

>  <SlogP_VSA7>
52.929554

>  <SlogP_VSA8>
75.473625

>  <SlogP_VSA9>
202.37292

>  <SMR>
11.80218

>  <SMR_VSA0>
82.58654

>  <SMR_VSA1>
55.305454

>  <SMR_VSA2>
13.232388

>  <SMR_VSA3>
20.000463

>  <SMR_VSA4>
0

>  <SMR_VSA5>
128.40317

>  <SMR_VSA6>
38.304123

>  <SMR_VSA7>
172.4527

>  <TPSA>
80.669998

>  <VAdjEq>
0.3512581

>  <VAdjMa>
6.1699252

>  <VDistEq>
3.2979159

>  <VDistMa>
9.84694

>  <vdw_area>
444.43649

>  <vdw_vol>
602.1983

>  <vsa_acc>
40.700764

>  <vsa_acid>
0

>  <vsa_base>
0

>  <vsa_don>
0

>  <vsa_hyd>
326.1257

>  <vsa_other>
34.129295

>  <vsa_pol>
54.267685

>  <Weight>
484.96698

>  <weinerPath>
2596

>  <weinerPol>
80

>  <zagreb>
192

$$$$