S(SCC(N)C(O)=O)CC(N)C(O)=O
  MOE2013           2D

 14 13  0  0  1  0  0  0  0  0999 V2000
    0.0000    0.0000    0.0000 S   0  0  0  0  0  0  0  0  0  0  0  0
    0.7560    1.2960    0.0000 S   0  0  0  0  0  0  0  0  0  0  0  0
    2.2560    1.2890    0.0000 C   0  0  0  0  0  0  0  0  0  0  0  0
    3.0110    2.5850    0.0000 C   0  0  3  0  0  0  0  0  0  0  0  0
    2.2670    3.8870    0.0000 N   0  0  0  0  0  0  0  0  0  0  0  0
    4.5110    2.5780    0.0000 C   0  0  0  0  0  0  0  0  0  0  0  0
    5.2560    1.2760    0.0000 O   0  0  0  0  0  0  0  0  0  0  0  0
    5.2670    3.8740    0.0000 O   0  0  0  0  0  0  0  0  0  0  0  0
   -1.5000    0.0070    0.0000 C   0  0  0  0  0  0  0  0  0  0  0  0
   -2.2560   -1.2890    0.0000 C   0  0  3  0  0  0  0  0  0  0  0  0
   -1.5110   -2.5910    0.0000 N   0  0  0  0  0  0  0  0  0  0  0  0
   -3.7560   -1.2830    0.0000 C   0  0  0  0  0  0  0  0  0  0  0  0
   -4.5110   -2.5780    0.0000 O   0  0  0  0  0  0  0  0  0  0  0  0
   -4.5000    0.0200    0.0000 O   0  0  0  0  0  0  0  0  0  0  0  0
  1  2  1  0  0  0  0
  1  9  1  0  0  0  0
  2  3  1  0  0  0  0
  3  4  1  0  0  0  0
  4  5  1  0  0  0  0
  4  6  1  0  0  0  0
  6  7  1  0  0  0  0
  6  8  2  0  0  0  0
  9 10  1  0  0  0  0
 10 11  1  0  0  0  0
 10 12  1  0  0  0  0
 12 13  1  0  0  0  0
 12 14  2  0  0  0  0
M  END
>  <Index>
599

>  <ID>
HT1181

>  <class>
0

>  <apol>
29.769516

>  <ast_fraglike>
0

>  <ast_fraglike_ext>
0

>  <ast_violation>
2

>  <ast_violation_ext>
4

>  <a_acc>
6

>  <a_acid>
0

>  <a_aro>
0

>  <a_base>
0

>  <a_count>
26

>  <a_don>
6

>  <a_donacc>
12

>  <a_heavy>
14

>  <a_hyd>
6

>  <a_IC>
51.682106

>  <a_ICM>
1.9877734

>  <a_nB>
0

>  <a_nBr>
0

>  <a_nC>
6

>  <a_nCl>
0

>  <a_nF>
0

>  <a_nH>
12

>  <a_nI>
0

>  <a_nN>
2

>  <a_nO>
4

>  <a_nP>
0

>  <a_nS>
2

>  <balabanJ>
3.3842533

>  <BCUT_PEOE_0>
-2.491045

>  <BCUT_PEOE_1>
-0.55479926

>  <BCUT_PEOE_2>
0.51671052

>  <BCUT_PEOE_3>
2.5292521

>  <BCUT_SLOGP_0>
-2.7499795

>  <BCUT_SLOGP_1>
-0.4295297

>  <BCUT_SLOGP_2>
0.6187709

>  <BCUT_SLOGP_3>
2.5013096

>  <BCUT_SMR_0>
-2.2089827

>  <BCUT_SMR_1>
-0.27005517

>  <BCUT_SMR_2>
0.74598795

>  <BCUT_SMR_3>
2.8409567

>  <bpol>
15.994484

>  <b_1rotN>
7

>  <b_1rotR>
0.53846157

>  <b_ar>
0

>  <b_count>
25

>  <b_double>
2

>  <b_heavy>
13

>  <b_max1len>
9

>  <b_rotN>
7

>  <b_rotR>
0.53846157

>  <b_single>
23

>  <b_triple>
0

>  <chi0>
11.137828

>  <chi0v>
8.8840284

>  <chi0v_C>
3.5689142

>  <chi0_C>
3.7236147

>  <chi1>
6.4472647

>  <chi1v>
6.148026

>  <chi1v_C>
1.3938469

>  <chi1_C>
1.4831632

>  <chiral>
2

>  <chiral_u>
2

>  <density>
0.94687957

>  <diameter>
9

>  <FCharge>
0

>  <GCUT_PEOE_0>
-0.81028277

>  <GCUT_PEOE_1>
-0.44493401

>  <GCUT_PEOE_2>
0.052647252

>  <GCUT_PEOE_3>
2.1815507

>  <GCUT_SLOGP_0>
-1.3634465

>  <GCUT_SLOGP_1>
-0.43020305

>  <GCUT_SLOGP_2>
0.1692422

>  <GCUT_SLOGP_3>
2.1639678

>  <GCUT_SMR_0>
-0.49172887

>  <GCUT_SMR_1>
-0.21673128

>  <GCUT_SMR_2>
0.26288798

>  <GCUT_SMR_3>
2.4811275

>  <Kier1>
14

>  <Kier2>
7.3125

>  <Kier3>
7.04

>  <KierA1>
15.299787

>  <KierA2>
8.0483751

>  <KierA3>
7.7905064

>  <KierFlex>
8.7956009

>  <lip_acc>
6

>  <lip_don>
6

>  <lip_druglike>
1

>  <lip_violation>
1

>  <logP(o/w)>
-3.18273

>  <logS>
-1.06062

>  <mr>
5.457458

>  <mutagenic>
0

>  <nmol>
1

>  <opr_brigid>
0

>  <opr_leadlike>
1

>  <opr_nring>
0

>  <opr_nrot>
7

>  <opr_violation>
1

>  <PC+>
0

>  <PC->
0

>  <PEOE_PC+>
2.006294

>  <PEOE_PC->
-2.006294

>  <PEOE_RPC+>
0.138252

>  <PEOE_RPC->
0.16452056

>  <PEOE_VSA+0>
38.416294

>  <PEOE_VSA+1>
8.5307722

>  <PEOE_VSA+2>
40.767971

>  <PEOE_VSA+3>
0

>  <PEOE_VSA+4>
20.648346

>  <PEOE_VSA+5>
29.416998

>  <PEOE_VSA+6>
0

>  <PEOE_VSA-0>
0

>  <PEOE_VSA-1>
43.473358

>  <PEOE_VSA-2>
0

>  <PEOE_VSA-3>
0

>  <PEOE_VSA-4>
0

>  <PEOE_VSA-5>
27.133842

>  <PEOE_VSA-6>
28.837318

>  <PEOE_VSA_FHYD>
0.55301279

>  <PEOE_VSA_FNEG>
0.41919932

>  <PEOE_VSA_FPNEG>
0.23594134

>  <PEOE_VSA_FPOL>
0.44698724

>  <PEOE_VSA_FPOS>
0.58080065

>  <PEOE_VSA_FPPOS>
0.21104591

>  <PEOE_VSA_HYD>
131.1884

>  <PEOE_VSA_NEG>
99.444519

>  <PEOE_VSA_PNEG>
55.971161

>  <PEOE_VSA_POL>
106.03651

>  <PEOE_VSA_POS>
137.78038

>  <PEOE_VSA_PPOS>
50.065342

>  <petitjean>
0.44444445

>  <petitjeanSC>
0.80000001

>  <Q_PC+>
0

>  <Q_PC->
0

>  <Q_RPC+>
0

>  <Q_RPC->
0

>  <Q_VSA_FHYD>
1

>  <Q_VSA_FNEG>
0

>  <Q_VSA_FPNEG>
0

>  <Q_VSA_FPOL>
0

>  <Q_VSA_FPOS>
1

>  <Q_VSA_FPPOS>
0

>  <Q_VSA_HYD>
237.2249

>  <Q_VSA_NEG>
0

>  <Q_VSA_PNEG>
0

>  <Q_VSA_POL>
0

>  <Q_VSA_POS>
237.2249

>  <Q_VSA_PPOS>
0

>  <radius>
5

>  <reactive>
1

>  <rings>
0

>  <RPC+>
0

>  <RPC->
0

>  <rsynth>
1

>  <SlogP>
-0.80839998

>  <SlogP_VSA0>
65.794373

>  <SlogP_VSA1>
15.490929

>  <SlogP_VSA2>
55.68837

>  <SlogP_VSA3>
85.237579

>  <SlogP_VSA4>
0

>  <SlogP_VSA5>
0

>  <SlogP_VSA6>
0

>  <SlogP_VSA7>
0

>  <SlogP_VSA8>
0

>  <SlogP_VSA9>
60.363499

>  <SMR>
5.6140399

>  <SMR_VSA0>
47.724434

>  <SMR_VSA1>
0

>  <SMR_VSA2>
50.770454

>  <SMR_VSA3>
7.9639373

>  <SMR_VSA4>
65.794373

>  <SMR_VSA5>
0

>  <SMR_VSA6>
49.958057

>  <SMR_VSA7>
60.363499

>  <TPSA>
126.64

>  <VAdjEq>
0.56466961

>  <VAdjMa>
4.7004399

>  <VDistEq>
3.0741937

>  <VDistMa>
7.256773

>  <vdw_area>
237.2249

>  <vdw_vol>
253.78517

>  <vsa_acc>
0

>  <vsa_acid>
0

>  <vsa_base>
0

>  <vsa_don>
0

>  <vsa_hyd>
92.441574

>  <vsa_other>
29.416998

>  <vsa_pol>
89.752663

>  <Weight>
240.304

>  <weinerPath>
379

>  <weinerPol>
15

>  <zagreb>
58

$$$$