O(C(=O)c1ccccc1)C(CNC1CCCCC1)C
  MOE2013           2D

 19 20  0  0  1  0  0  0  0  0999 V2000
    0.0000    0.0000    0.0000 O   0  0  0  0  0  0  0  0  0  0  0  0
   -1.3000   -0.7480    0.0000 C   0  0  0  0  0  0  0  0  0  0  0  0
   -1.3020   -2.2480    0.0000 O   0  0  0  0  0  0  0  0  0  0  0  0
   -2.5980    0.0030    0.0000 C   0  0  0  0  0  0  0  0  0  0  0  0
   -3.8980   -0.7450    0.0000 C   0  0  0  0  0  0  0  0  0  0  0  0
   -5.1960    0.0060    0.0000 C   0  0  0  0  0  0  0  0  0  0  0  0
   -5.1940    1.5060    0.0000 C   0  0  0  0  0  0  0  0  0  0  0  0
   -3.8940    2.2550    0.0000 C   0  0  0  0  0  0  0  0  0  0  0  0
   -2.5960    1.5030    0.0000 C   0  0  0  0  0  0  0  0  0  0  0  0
    1.2980   -0.7520    0.0000 C   0  0  3  0  0  0  0  0  0  0  0  0
    2.5980   -0.0030    0.0000 C   0  0  0  0  0  0  0  0  0  0  0  0
    3.8960   -0.7550    0.0000 N   0  0  0  0  0  0  0  0  0  0  0  0
    5.1960   -0.0060    0.0000 C   0  0  0  0  0  0  0  0  0  0  0  0
    6.4940   -0.7580    0.0000 C   0  0  0  0  0  0  0  0  0  0  0  0
    7.7940   -0.0100    0.0000 C   0  0  0  0  0  0  0  0  0  0  0  0
    7.7960    1.4900    0.0000 C   0  0  0  0  0  0  0  0  0  0  0  0
    6.4980    2.2420    0.0000 C   0  0  0  0  0  0  0  0  0  0  0  0
    5.1980    1.4940    0.0000 C   0  0  0  0  0  0  0  0  0  0  0  0
    1.2960   -2.2520    0.0000 C   0  0  0  0  0  0  0  0  0  0  0  0
  1  2  1  0  0  0  0
  1 10  1  0  0  0  0
  2  3  2  0  0  0  0
  2  4  1  0  0  0  0
  4  5  1  0  0  0  0
  4  9  2  0  0  0  0
  5  6  2  0  0  0  0
  6  7  1  0  0  0  0
  7  8  2  0  0  0  0
  8  9  1  0  0  0  0
 10 11  1  0  0  0  0
 10 19  1  0  0  0  0
 11 12  1  0  0  0  0
 12 13  1  0  0  0  0
 13 14  1  0  0  0  0
 13 18  1  0  0  0  0
 14 15  1  0  0  0  0
 15 16  1  0  0  0  0
 16 17  1  0  0  0  0
 17 18  1  0  0  0  0
M  END
>  <Index>
522

>  <ID>
HT1034

>  <class>
0

>  <apol>
46.200237

>  <ast_fraglike>
0

>  <ast_fraglike_ext>
0

>  <ast_violation>
1

>  <ast_violation_ext>
2

>  <a_acc>
2

>  <a_acid>
0

>  <a_aro>
6

>  <a_base>
0

>  <a_count>
42

>  <a_don>
1

>  <a_donacc>
3

>  <a_heavy>
19

>  <a_hyd>
15

>  <a_IC>
56.435406

>  <a_ICM>
1.3437002

>  <a_nB>
0

>  <a_nBr>
0

>  <a_nC>
16

>  <a_nCl>
0

>  <a_nF>
0

>  <a_nH>
23

>  <a_nI>
0

>  <a_nN>
1

>  <a_nO>
2

>  <a_nP>
0

>  <a_nS>
0

>  <balabanJ>
1.6090841

>  <BCUT_PEOE_0>
-2.8047197

>  <BCUT_PEOE_1>
-0.55658346

>  <BCUT_PEOE_2>
0.61503476

>  <BCUT_PEOE_3>
2.7364872

>  <BCUT_SLOGP_0>
-2.8320985

>  <BCUT_SLOGP_1>
-0.47749504

>  <BCUT_SLOGP_2>
0.69909441

>  <BCUT_SLOGP_3>
2.834636

>  <BCUT_SMR_0>
-2.5435162

>  <BCUT_SMR_1>
-0.42308336

>  <BCUT_SMR_2>
0.75340021

>  <BCUT_SMR_3>
2.9957423

>  <bpol>
28.677761

>  <b_1rotN>
5

>  <b_1rotR>
0.25

>  <b_ar>
6

>  <b_count>
43

>  <b_double>
1

>  <b_heavy>
20

>  <b_max1len>
6

>  <b_rotN>
6

>  <b_rotR>
0.30000001

>  <b_single>
36

>  <b_triple>
0

>  <chi0>
13.501789

>  <chi0v>
11.600589

>  <chi0v_C>
10.284093

>  <chi0_C>
11.087576

>  <chi1>
9.2540197

>  <chi1v>
7.2489576

>  <chi1v_C>
5.9627786

>  <chi1_C>
6.9519253

>  <chiral>
1

>  <chiral_u>
1

>  <density>
0.67467666

>  <diameter>
12

>  <FCharge>
0

>  <GCUT_PEOE_0>
-0.8440752

>  <GCUT_PEOE_1>
-0.3597216

>  <GCUT_PEOE_2>
0.070282996

>  <GCUT_PEOE_3>
2.6411171

>  <GCUT_SLOGP_0>
-1.153723

>  <GCUT_SLOGP_1>
-0.26801151

>  <GCUT_SLOGP_2>
0.14652839

>  <GCUT_SLOGP_3>
2.6871753

>  <GCUT_SMR_0>
-0.52854246

>  <GCUT_SMR_1>
-0.20455918

>  <GCUT_SMR_2>
0.16895583

>  <GCUT_SMR_3>
2.8715663

>  <Kier1>
15.39

>  <Kier2>
8.3232002

>  <Kier3>
5.4791913

>  <KierA1>
12.825631

>  <KierA2>
6.8613009

>  <KierA3>
4.4785972

>  <KierFlex>
4.6316061

>  <lip_acc>
3

>  <lip_don>
1

>  <lip_druglike>
1

>  <lip_violation>
0

>  <logP(o/w)>
3.8970001

>  <logS>
-3.3318999

>  <mr>
7.7847943

>  <mutagenic>
0

>  <nmol>
1

>  <opr_brigid>
12

>  <opr_leadlike>
1

>  <opr_nring>
2

>  <opr_nrot>
7

>  <opr_violation>
0

>  <PC+>
0

>  <PC->
0

>  <PEOE_PC+>
1.4268676

>  <PEOE_PC->
-1.4268676

>  <PEOE_RPC+>
0.20611243

>  <PEOE_RPC->
0.21781671

>  <PEOE_VSA+0>
86.792999

>  <PEOE_VSA+1>
30.497244

>  <PEOE_VSA+2>
8.6190128

>  <PEOE_VSA+3>
0

>  <PEOE_VSA+4>
0

>  <PEOE_VSA+5>
14.708499

>  <PEOE_VSA+6>
0

>  <PEOE_VSA-0>
60.66011

>  <PEOE_VSA-1>
62.868652

>  <PEOE_VSA-2>
0

>  <PEOE_VSA-3>
0

>  <PEOE_VSA-4>
0

>  <PEOE_VSA-5>
13.566921

>  <PEOE_VSA-6>
2.6406472

>  <PEOE_VSA_FHYD>
0.88972491

>  <PEOE_VSA_FNEG>
0.49842802

>  <PEOE_VSA_FPNEG>
0.057811063

>  <PEOE_VSA_FPOL>
0.11027507

>  <PEOE_VSA_FPOS>
0.50157201

>  <PEOE_VSA_FPPOS>
0.052464008

>  <PEOE_VSA_HYD>
249.43802

>  <PEOE_VSA_NEG>
139.73633

>  <PEOE_VSA_PNEG>
16.207567

>  <PEOE_VSA_POL>
30.916067

>  <PEOE_VSA_POS>
140.61775

>  <PEOE_VSA_PPOS>
14.708499

>  <petitjean>
0.5

>  <petitjeanSC>
1

>  <Q_PC+>
0

>  <Q_PC->
0

>  <Q_RPC+>
0

>  <Q_RPC->
0

>  <Q_VSA_FHYD>
1

>  <Q_VSA_FNEG>
0

>  <Q_VSA_FPNEG>
0

>  <Q_VSA_FPOL>
0

>  <Q_VSA_FPOS>
1

>  <Q_VSA_FPPOS>
0

>  <Q_VSA_HYD>
280.3541

>  <Q_VSA_NEG>
0

>  <Q_VSA_PNEG>
0

>  <Q_VSA_POL>
0

>  <Q_VSA_POS>
280.3541

>  <Q_VSA_PPOS>
0

>  <radius>
6

>  <reactive>
0

>  <rings>
2

>  <RPC+>
0

>  <RPC->
0

>  <rsynth>
1

>  <SlogP>
3.1542001

>  <SlogP_VSA0>
18.01075

>  <SlogP_VSA1>
7.7454643

>  <SlogP_VSA2>
21.450506

>  <SlogP_VSA3>
18.439579

>  <SlogP_VSA4>
27.047791

>  <SlogP_VSA5>
0

>  <SlogP_VSA6>
0

>  <SlogP_VSA7>
88.215919

>  <SlogP_VSA8>
94.342026

>  <SlogP_VSA9>
33.326015

>  <SMR>
7.6195202

>  <SMR_VSA0>
34.862103

>  <SMR_VSA1>
0

>  <SMR_VSA2>
18.01075

>  <SMR_VSA3>
13.636193

>  <SMR_VSA4>
0

>  <SMR_VSA5>
182.55795

>  <SMR_VSA6>
26.185041

>  <SMR_VSA7>
33.326015

>  <TPSA>
38.330002

>  <VAdjEq>
0.5023343

>  <VAdjMa>
5.321928

>  <VDistEq>
3.3668442

>  <VDistMa>
8.1591063

>  <vdw_area>
280.3541

>  <vdw_vol>
387.39297

>  <vsa_acc>
13.566921

>  <vsa_acid>
0

>  <vsa_base>
0

>  <vsa_don>
0

>  <vsa_hyd>
225.15952

>  <vsa_other>
17.212255

>  <vsa_pol>
19.249496

>  <Weight>
261.36499

>  <weinerPath>
830

>  <weinerPol>
23

>  <zagreb>
90

$$$$