O([C@@H](C(OC)(c1ccccc1)c1ccccc1)C(O)=O)c1nc(cc(n1)C)C
  MOE2013           2D

 28 30  0  0  1  0  0  0  0  0999 V2000
    0.0000    0.0000    0.0000 O   0  0  0  0  0  0  0  0  0  0  0  0
    1.2970    0.7540    0.0000 C   0  0  1  0  0  0  0  0  0  0  0  0
    2.5980    0.0070    0.0000 C   0  0  0  0  0  0  0  0  0  0  0  0
    3.3440    1.3080    0.0000 O   0  0  0  0  0  0  0  0  0  0  0  0
    4.8440    1.3130    0.0000 C   0  0  0  0  0  0  0  0  0  0  0  0
    3.8990   -0.7390    0.0000 C   0  0  0  0  0  0  0  0  0  0  0  0
    3.9030   -2.2390    0.0000 C   0  0  0  0  0  0  0  0  0  0  0  0
    5.2050   -2.9850    0.0000 C   0  0  0  0  0  0  0  0  0  0  0  0
    6.5010   -2.2320    0.0000 C   0  0  0  0  0  0  0  0  0  0  0  0
    6.4970   -0.7320    0.0000 C   0  0  0  0  0  0  0  0  0  0  0  0
    5.1960    0.0150    0.0000 C   0  0  0  0  0  0  0  0  0  0  0  0
    1.8520   -1.2940    0.0000 C   0  0  0  0  0  0  0  0  0  0  0  0
    0.3520   -1.2980    0.0000 C   0  0  0  0  0  0  0  0  0  0  0  0
   -0.3950   -2.5990    0.0000 C   0  0  0  0  0  0  0  0  0  0  0  0
    0.3590   -3.8960    0.0000 C   0  0  0  0  0  0  0  0  0  0  0  0
    1.8590   -3.8920    0.0000 C   0  0  0  0  0  0  0  0  0  0  0  0
    2.6050   -2.5910    0.0000 C   0  0  0  0  0  0  0  0  0  0  0  0
    1.2930    2.2540    0.0000 C   0  0  0  0  0  0  0  0  0  0  0  0
    2.5900    3.0070    0.0000 O   0  0  0  0  0  0  0  0  0  0  0  0
   -0.0080    3.0000    0.0000 O   0  0  0  0  0  0  0  0  0  0  0  0
   -1.3010    0.7460    0.0000 C   0  0  0  0  0  0  0  0  0  0  0  0
   -1.3050    2.2460    0.0000 N   0  0  0  0  0  0  0  0  0  0  0  0
   -2.6060    2.9930    0.0000 C   0  0  0  0  0  0  0  0  0  0  0  0
   -3.9030    2.2390    0.0000 C   0  0  0  0  0  0  0  0  0  0  0  0
   -3.8990    0.7390    0.0000 C   0  0  0  0  0  0  0  0  0  0  0  0
   -2.5980   -0.0070    0.0000 N   0  0  0  0  0  0  0  0  0  0  0  0
   -5.1960   -0.0150    0.0000 C   0  0  0  0  0  0  0  0  0  0  0  0
   -2.6110    4.4930    0.0000 C   0  0  0  0  0  0  0  0  0  0  0  0
  1 21  1  0  0  0  0
  2  1  1  6  0  0  0
  2  3  1  0  0  0  0
  2 18  1  0  0  0  0
  3  4  1  0  0  0  0
  3  6  1  0  0  0  0
  3 12  1  0  0  0  0
  4  5  1  0  0  0  0
  6  7  1  0  0  0  0
  6 11  2  0  0  0  0
  7  8  2  0  0  0  0
  8  9  1  0  0  0  0
  9 10  2  0  0  0  0
 10 11  1  0  0  0  0
 12 13  1  0  0  0  0
 12 17  2  0  0  0  0
 13 14  2  0  0  0  0
 14 15  1  0  0  0  0
 15 16  2  0  0  0  0
 16 17  1  0  0  0  0
 18 19  1  0  0  0  0
 18 20  2  0  0  0  0
 21 22  1  0  0  0  0
 21 26  2  0  0  0  0
 22 23  2  0  0  0  0
 23 24  1  0  0  0  0
 23 28  1  0  0  0  0
 24 25  2  0  0  0  0
 25 26  1  0  0  0  0
 25 27  1  0  0  0  0
M  END
>  <Index>
57

>  <ID>
HT0124

>  <class>
0

>  <apol>
58.797447

>  <ast_fraglike>
0

>  <ast_fraglike_ext>
0

>  <ast_violation>
3

>  <ast_violation_ext>
4

>  <a_acc>
5

>  <a_acid>
0

>  <a_aro>
18

>  <a_base>
0

>  <a_count>
50

>  <a_don>
2

>  <a_donacc>
7

>  <a_heavy>
28

>  <a_hyd>
20

>  <a_IC>
75.977821

>  <a_ICM>
1.5195564

>  <a_nB>
0

>  <a_nBr>
0

>  <a_nC>
22

>  <a_nCl>
0

>  <a_nF>
0

>  <a_nH>
22

>  <a_nI>
0

>  <a_nN>
2

>  <a_nO>
4

>  <a_nP>
0

>  <a_nS>
0

>  <balabanJ>
1.8937912

>  <BCUT_PEOE_0>
-2.52104

>  <BCUT_PEOE_1>
-0.60867673

>  <BCUT_PEOE_2>
0.60933387

>  <BCUT_PEOE_3>
2.6125321

>  <BCUT_SLOGP_0>
-2.5825846

>  <BCUT_SLOGP_1>
-0.53448719

>  <BCUT_SLOGP_2>
0.67522418

>  <BCUT_SLOGP_3>
2.5999036

>  <BCUT_SMR_0>
-2.2864125

>  <BCUT_SMR_1>
-0.42734244

>  <BCUT_SMR_2>
0.81106061

>  <BCUT_SMR_3>
2.8269682

>  <bpol>
31.480555

>  <b_1rotN>
7

>  <b_1rotR>
0.23333333

>  <b_ar>
18

>  <b_count>
52

>  <b_double>
1

>  <b_heavy>
30

>  <b_max1len>
5

>  <b_rotN>
7

>  <b_rotR>
0.23333333

>  <b_single>
33

>  <b_triple>
0

>  <chi0>
20.148054

>  <chi0v>
15.994589

>  <chi0v_C>
13.428204

>  <chi0_C>
15.319627

>  <chi1>
13.468399

>  <chi1v>
8.8504248

>  <chi1v_C>
6.4760675

>  <chi1_C>
8.8035488

>  <chiral>
1

>  <chiral_u>
0

>  <density>
0.73018181

>  <diameter>
10

>  <FCharge>
0

>  <GCUT_PEOE_0>
-0.79069436

>  <GCUT_PEOE_1>
-0.38925475

>  <GCUT_PEOE_2>
0.063321255

>  <GCUT_PEOE_3>
2.7397649

>  <GCUT_SLOGP_0>
-0.94322824

>  <GCUT_SLOGP_1>
-0.32905364

>  <GCUT_SLOGP_2>
0.13623703

>  <GCUT_SLOGP_3>
2.8064198

>  <GCUT_SMR_0>
-0.50164193

>  <GCUT_SMR_1>
-0.21605732

>  <GCUT_SMR_2>
0.1897019

>  <GCUT_SMR_3>
2.9982932

>  <Kier1>
22.68

>  <Kier2>
10.346939

>  <Kier3>
5.2016006

>  <KierA1>
16.558916

>  <KierA2>
7.459609

>  <KierA3>
3.7164769

>  <KierFlex>
4.4115372

>  <lip_acc>
6

>  <lip_don>
1

>  <lip_druglike>
1

>  <lip_violation>
0

>  <logP(o/w)>
3.4667399

>  <logS>
-5.2409201

>  <mr>
10.796396

>  <mutagenic>
0

>  <nmol>
1

>  <opr_brigid>
18

>  <opr_leadlike>
1

>  <opr_nring>
3

>  <opr_nrot>
7

>  <opr_violation>
0

>  <PC+>
0

>  <PC->
0

>  <PEOE_PC+>
2.345238

>  <PEOE_PC->
-2.345238

>  <PEOE_RPC+>
0.12489586

>  <PEOE_RPC->
0.15527195

>  <PEOE_VSA+0>
63.989075

>  <PEOE_VSA+1>
63.980789

>  <PEOE_VSA+2>
0

>  <PEOE_VSA+3>
4.9049287

>  <PEOE_VSA+4>
10.324173

>  <PEOE_VSA+5>
32.14904

>  <PEOE_VSA+6>
0

>  <PEOE_VSA-0>
54.167339

>  <PEOE_VSA-1>
122.54904

>  <PEOE_VSA-2>
0

>  <PEOE_VSA-3>
0

>  <PEOE_VSA-4>
11.365152

>  <PEOE_VSA-5>
16.070677

>  <PEOE_VSA-6>
10.271297

>  <PEOE_VSA_FHYD>
0.79428887

>  <PEOE_VSA_FNEG>
0.55012614

>  <PEOE_VSA_FPNEG>
0.096741617

>  <PEOE_VSA_FPOL>
0.20571114

>  <PEOE_VSA_FPOS>
0.44987383

>  <PEOE_VSA_FPPOS>
0.10896952

>  <PEOE_VSA_HYD>
309.59119

>  <PEOE_VSA_NEG>
214.42351

>  <PEOE_VSA_PNEG>
37.707127

>  <PEOE_VSA_POL>
80.180344

>  <PEOE_VSA_POS>
175.34801

>  <PEOE_VSA_PPOS>
42.473213

>  <petitjean>
0.5

>  <petitjeanSC>
1

>  <Q_PC+>
0

>  <Q_PC->
0

>  <Q_RPC+>
0

>  <Q_RPC->
0

>  <Q_VSA_FHYD>
1

>  <Q_VSA_FNEG>
0

>  <Q_VSA_FPNEG>
0

>  <Q_VSA_FPOL>
0

>  <Q_VSA_FPOS>
1

>  <Q_VSA_FPPOS>
0

>  <Q_VSA_HYD>
389.77151

>  <Q_VSA_NEG>
0

>  <Q_VSA_PNEG>
0

>  <Q_VSA_POL>
0

>  <Q_VSA_POS>
389.77151

>  <Q_VSA_PPOS>
0

>  <radius>
5

>  <reactive>
0

>  <rings>
3

>  <RPC+>
0

>  <RPC->
0

>  <rsynth>
1

>  <SlogP>
3.8271401

>  <SlogP_VSA0>
10.999887

>  <SlogP_VSA1>
41.316525

>  <SlogP_VSA2>
41.330753

>  <SlogP_VSA3>
25.385227

>  <SlogP_VSA4>
11.884645

>  <SlogP_VSA5>
35.383869

>  <SlogP_VSA6>
0

>  <SlogP_VSA7>
194.07503

>  <SlogP_VSA8>
0

>  <SlogP_VSA9>
71.037804

>  <SMR>
10.43478

>  <SMR_VSA0>
34.862103

>  <SMR_VSA1>
44.570946

>  <SMR_VSA2>
25.385227

>  <SMR_VSA3>
22.739067

>  <SMR_VSA4>
0

>  <SMR_VSA5>
194.07503

>  <SMR_VSA6>
7.7454643

>  <SMR_VSA7>
102.0359

>  <TPSA>
81.540001

>  <VAdjEq>
0.38983503

>  <VAdjMa>
5.9068904

>  <VDistEq>
3.1565073

>  <VDistMa>
9.3859844

>  <vdw_area>
389.77151

>  <vdw_vol>
518.26544

>  <vsa_acc>
13.868908

>  <vsa_acid>
0

>  <vsa_base>
0

>  <vsa_don>
0

>  <vsa_hyd>
294.64346

>  <vsa_other>
34.652798

>  <vsa_pol>
41.00275

>  <Weight>
378.42798

>  <weinerPath>
1809

>  <weinerPol>
48

>  <zagreb>
144

$$$$