ClC(OC(F)F)C(F)(F)F
  MOE2013           2D

 10  9  0  0  1  0  0  0  0  0999 V2000
    0.0000    0.0000    0.0000 Cl  0  0  0  0  0  0  0  0  0  0  0  0
    0.0080    1.5000    0.0000 C   0  0  3  0  0  0  0  0  0  0  0  0
    1.3110    2.2430    0.0000 O   0  0  0  0  0  0  0  0  0  0  0  0
    2.6060    1.4860    0.0000 C   0  0  0  0  0  0  0  0  0  0  0  0
    3.9090    2.2290    0.0000 F   0  0  0  0  0  0  0  0  0  0  0  0
    2.5980   -0.0140    0.0000 F   0  0  0  0  0  0  0  0  0  0  0  0
   -1.2870    2.2570    0.0000 C   0  0  0  0  0  0  0  0  0  0  0  0
   -2.5820    3.0140    0.0000 F   0  0  0  0  0  0  0  0  0  0  0  0
   -0.5300    3.5520    0.0000 F   0  0  0  0  0  0  0  0  0  0  0  0
   -2.0440    0.9620    0.0000 F   0  0  0  0  0  0  0  0  0  0  0  0
  1  2  1  0  0  0  0
  2  3  1  0  0  0  0
  2  7  1  0  0  0  0
  3  4  1  0  0  0  0
  4  5  1  0  0  0  0
  4  6  1  0  0  0  0
  7  8  1  0  0  0  0
  7  9  1  0  0  0  0
  7 10  1  0  0  0  0
M  END
>  <Index>
570

>  <ID>
HT1132

>  <class>
0

>  <apol>
12.380586

>  <ast_fraglike>
1

>  <ast_fraglike_ext>
1

>  <ast_violation>
0

>  <ast_violation_ext>
0

>  <a_acc>
1

>  <a_acid>
0

>  <a_aro>
0

>  <a_base>
0

>  <a_count>
12

>  <a_don>
0

>  <a_donacc>
1

>  <a_heavy>
10

>  <a_hyd>
8

>  <a_IC>
24.655022

>  <a_ICM>
2.0545852

>  <a_nB>
0

>  <a_nBr>
0

>  <a_nC>
3

>  <a_nCl>
1

>  <a_nF>
5

>  <a_nH>
2

>  <a_nI>
0

>  <a_nN>
0

>  <a_nO>
1

>  <a_nP>
0

>  <a_nS>
0

>  <balabanJ>
3.7348237

>  <BCUT_PEOE_0>
-2.2743604

>  <BCUT_PEOE_1>
-0.18489316

>  <BCUT_PEOE_2>
0.023780236

>  <BCUT_PEOE_3>
2.5437744

>  <BCUT_SLOGP_0>
-2.4353325

>  <BCUT_SLOGP_1>
0.17246877

>  <BCUT_SLOGP_2>
0.43107772

>  <BCUT_SLOGP_3>
2.3899159

>  <BCUT_SMR_0>
-2.1606805

>  <BCUT_SMR_1>
0.10769398

>  <BCUT_SMR_2>
0.20941798

>  <BCUT_SMR_3>
2.6259003

>  <bpol>
10.537414

>  <b_1rotN>
2

>  <b_1rotR>
0.22222222

>  <b_ar>
0

>  <b_count>
11

>  <b_double>
0

>  <b_heavy>
9

>  <b_max1len>
5

>  <b_rotN>
3

>  <b_rotR>
0.33333334

>  <b_single>
11

>  <b_triple>
0

>  <chi0>
8.3618069

>  <chi0v>
5.0866647

>  <chi0v_C>
1.6547005

>  <chi0_C>
1.6547005

>  <chi1>
4.3372226

>  <chi1v>
2.4181159

>  <chi1v_C>
0.28867513

>  <chi1_C>
0.28867513

>  <chiral>
1

>  <chiral_u>
1

>  <density>
1.4245071

>  <diameter>
5

>  <FCharge>
0

>  <GCUT_PEOE_0>
-0.67456293

>  <GCUT_PEOE_1>
-0.34669912

>  <GCUT_PEOE_2>
-0.1307947

>  <GCUT_PEOE_3>
1.8553674

>  <GCUT_SLOGP_0>
-0.85375816

>  <GCUT_SLOGP_1>
-0.01543886

>  <GCUT_SLOGP_2>
0.26019999

>  <GCUT_SLOGP_3>
1.8553002

>  <GCUT_SMR_0>
-0.50387818

>  <GCUT_SMR_1>
-0.066613071

>  <GCUT_SMR_2>
0.033651374

>  <GCUT_SMR_3>
1.9755292

>  <Kier1>
10

>  <Kier2>
3.4082839

>  <Kier3>
4.48

>  <KierA1>
10.530339

>  <KierA2>
3.611275

>  <KierA3>
4.7707667

>  <KierFlex>
3.8027949

>  <lip_acc>
1

>  <lip_don>
0

>  <lip_druglike>
1

>  <lip_violation>
0

>  <logP(o/w)>
2.3366799

>  <logS>
-1.54605

>  <mr>
2.3207862

>  <mutagenic>
1

>  <nmol>
1

>  <opr_brigid>
0

>  <opr_leadlike>
1

>  <opr_nring>
0

>  <opr_nrot>
2

>  <opr_violation>
0

>  <PC+>
0

>  <PC->
0

>  <PEOE_PC+>
1.2316885

>  <PEOE_PC->
-1.2316885

>  <PEOE_RPC+>
0.34890133

>  <PEOE_RPC->
0.23852189

>  <PEOE_VSA+0>
0

>  <PEOE_VSA+1>
4.2653861

>  <PEOE_VSA+2>
4.2653861

>  <PEOE_VSA+3>
0

>  <PEOE_VSA+4>
7.2161355

>  <PEOE_VSA+5>
0

>  <PEOE_VSA+6>
27.575043

>  <PEOE_VSA-0>
0

>  <PEOE_VSA-1>
29.581947

>  <PEOE_VSA-2>
0

>  <PEOE_VSA-3>
59.543179

>  <PEOE_VSA-4>
0

>  <PEOE_VSA-5>
2.503756

>  <PEOE_VSA-6>
0

>  <PEOE_VSA_FHYD>
0.72364056

>  <PEOE_VSA_FNEG>
0.67897975

>  <PEOE_VSA_FPNEG>
0.018553099

>  <PEOE_VSA_FPOL>
0.27635944

>  <PEOE_VSA_FPOS>
0.32102025

>  <PEOE_VSA_FPPOS>
0.25780633

>  <PEOE_VSA_HYD>
97.655899

>  <PEOE_VSA_NEG>
91.628883

>  <PEOE_VSA_PNEG>
2.503756

>  <PEOE_VSA_POL>
37.294933

>  <PEOE_VSA_POS>
43.321949

>  <PEOE_VSA_PPOS>
34.79118

>  <petitjean>
0.40000001

>  <petitjeanSC>
0.66666669

>  <Q_PC+>
0

>  <Q_PC->
0

>  <Q_RPC+>
0

>  <Q_RPC->
0

>  <Q_VSA_FHYD>
1

>  <Q_VSA_FNEG>
0

>  <Q_VSA_FPNEG>
0

>  <Q_VSA_FPOL>
0

>  <Q_VSA_FPOS>
1

>  <Q_VSA_FPPOS>
0

>  <Q_VSA_HYD>
134.95084

>  <Q_VSA_NEG>
0

>  <Q_VSA_PNEG>
0

>  <Q_VSA_POL>
0

>  <Q_VSA_POS>
134.95084

>  <Q_VSA_PPOS>
0

>  <radius>
3

>  <reactive>
1

>  <rings>
0

>  <RPC+>
0

>  <RPC->
0

>  <rsynth>
1

>  <SlogP>
2.3527999

>  <SlogP_VSA0>
0

>  <SlogP_VSA1>
7.7595162

>  <SlogP_VSA2>
36.123104

>  <SlogP_VSA3>
0

>  <SlogP_VSA4>
0

>  <SlogP_VSA5>
0

>  <SlogP_VSA6>
0

>  <SlogP_VSA7>
0

>  <SlogP_VSA8>
0

>  <SlogP_VSA9>
113.94921

>  <SMR>
2.2785001

>  <SMR_VSA0>
10.999887

>  <SMR_VSA1>
74.800568

>  <SMR_VSA2>
7.7595162

>  <SMR_VSA3>
25.123217

>  <SMR_VSA4>
0

>  <SMR_VSA5>
0

>  <SMR_VSA6>
0

>  <SMR_VSA7>
39.148643

>  <TPSA>
9.2299995

>  <VAdjEq>
0.68007702

>  <VAdjMa>
4.1699252

>  <VDistEq>
2.2692847

>  <VDistMa>
6.3229475

>  <vdw_area>
134.95084

>  <vdw_vol>
129.51216

>  <vsa_acc>
2.503756

>  <vsa_acid>
0

>  <vsa_base>
0

>  <vsa_don>
0

>  <vsa_hyd>
120.25376

>  <vsa_other>
10.769726

>  <vsa_pol>
2.503756

>  <Weight>
184.491

>  <weinerPath>
123

>  <weinerPol>
10

>  <zagreb>
44

$$$$