NC12CC3CC(C1)CC(C2)C3
  MOE2013           2D

 11 13  0  0  0  0  0  0  0  0999 V2000
    0.0000    0.0000    0.0000 N   0  0  0  0  0  0  0  0  0  0  0  0
   -1.4130   -0.5030    0.0000 C   0  0  0  0  0  0  0  0  0  0  0  0
   -2.8960    0.0060    0.0000 C   0  0  0  0  0  0  0  0  0  0  0  0
   -4.3420   -0.5570    0.0000 C   0  0  0  0  0  0  0  0  0  0  0  0
   -4.3650   -2.0320    0.0000 C   0  0  0  0  0  0  0  0  0  0  0  0
   -2.8450   -2.5030    0.0000 C   0  0  0  0  0  0  0  0  0  0  0  0
   -1.4520   -1.9750    0.0000 C   0  0  0  0  0  0  0  0  0  0  0  0
   -3.6500   -1.3550    0.0000 C   0  0  0  0  0  0  0  0  0  0  0  0
   -3.6680    0.0240    0.0000 C   0  0  0  0  0  0  0  0  0  0  0  0
   -2.3230    0.5560    0.0000 C   0  0  0  0  0  0  0  0  0  0  0  0
   -5.2510    0.6610    0.0000 C   0  0  0  0  0  0  0  0  0  0  0  0
  1  2  1  0  0  0  0
  2  3  1  0  0  0  0
  2  7  1  0  0  0  0
  2 10  1  0  0  0  0
  3  4  1  0  0  0  0
  4  5  1  0  0  0  0
  4 11  1  0  0  0  0
  5  6  1  0  0  0  0
  6  7  1  0  0  0  0
  6  8  1  0  0  0  0
  8  9  1  0  0  0  0
  9 10  1  0  0  0  0
  9 11  1  0  0  0  0
M  END
>  <Index>
56

>  <ID>
HT0122

>  <class>
0

>  <apol>
30.03548

>  <ast_fraglike>
1

>  <ast_fraglike_ext>
1

>  <ast_violation>
0

>  <ast_violation_ext>
0

>  <a_acc>
1

>  <a_acid>
0

>  <a_aro>
0

>  <a_base>
0

>  <a_count>
28

>  <a_don>
1

>  <a_donacc>
2

>  <a_heavy>
11

>  <a_hyd>
10

>  <a_IC>
31.899788

>  <a_ICM>
1.1392782

>  <a_nB>
0

>  <a_nBr>
0

>  <a_nC>
10

>  <a_nCl>
0

>  <a_nF>
0

>  <a_nH>
17

>  <a_nI>
0

>  <a_nN>
1

>  <a_nO>
0

>  <a_nP>
0

>  <a_nS>
0

>  <balabanJ>
1.9400035

>  <BCUT_PEOE_0>
-3.0020237

>  <BCUT_PEOE_1>
-0.51062715

>  <BCUT_PEOE_2>
0.54427439

>  <BCUT_PEOE_3>
2.9435642

>  <BCUT_SLOGP_0>
-2.9701996

>  <BCUT_SLOGP_1>
-0.42409718

>  <BCUT_SLOGP_2>
0.63256878

>  <BCUT_SLOGP_3>
3.0252767

>  <BCUT_SMR_0>
-2.7426131

>  <BCUT_SMR_1>
-0.39620098

>  <BCUT_SMR_2>
0.66030395

>  <BCUT_SMR_3>
3.2029703

>  <bpol>
17.924519

>  <b_1rotN>
0

>  <b_1rotR>
0

>  <b_ar>
0

>  <b_count>
30

>  <b_double>
0

>  <b_heavy>
13

>  <b_max1len>
2

>  <b_rotN>
0

>  <b_rotR>
0

>  <b_single>
30

>  <b_triple>
0

>  <chi0>
7.4746914

>  <chi0v>
7.0520415

>  <chi0v_C>
6.4746914

>  <chi0_C>
6.4746914

>  <chi1>
5.2348948

>  <chi1v>
5.0235701

>  <chi1v_C>
4.7348948

>  <chi1_C>
4.7348948

>  <chiral>
0

>  <chiral_u>
0

>  <density>
0.65429068

>  <diameter>
4

>  <FCharge>
0

>  <GCUT_PEOE_0>
-0.83932161

>  <GCUT_PEOE_1>
-0.35764766

>  <GCUT_PEOE_2>
0.055286132

>  <GCUT_PEOE_3>
2.8700604

>  <GCUT_SLOGP_0>
-1.3635966

>  <GCUT_SLOGP_1>
-0.28970516

>  <GCUT_SLOGP_2>
0.14626567

>  <GCUT_SLOGP_3>
2.9471998

>  <GCUT_SMR_0>
-0.52630413

>  <GCUT_SMR_1>
-0.20860565

>  <GCUT_SMR_2>
0.15851358

>  <GCUT_SMR_3>
3.0966094

>  <Kier1>
6.5088758

>  <Kier2>
1.8367347

>  <Kier3>
0.87791497

>  <KierA1>
6.5088758

>  <KierA2>
1.8367347

>  <KierA3>
0.87791497

>  <KierFlex>
1.0868253

>  <lip_acc>
1

>  <lip_don>
2

>  <lip_druglike>
1

>  <lip_violation>
0

>  <logP(o/w)>
2.0179999

>  <logS>
-2.1083801

>  <mr>
4.4648862

>  <mutagenic>
0

>  <nmol>
1

>  <opr_brigid>
12

>  <opr_leadlike>
1

>  <opr_nring>
3

>  <opr_nrot>
0

>  <opr_violation>
0

>  <PC+>
0

>  <PC->
0

>  <PEOE_PC+>
0.6788702

>  <PEOE_PC->
-0.6788702

>  <PEOE_RPC+>
0.17488667

>  <PEOE_RPC->
0.47813788

>  <PEOE_VSA+0>
63.980789

>  <PEOE_VSA+1>
0

>  <PEOE_VSA+2>
17.238026

>  <PEOE_VSA+3>
0

>  <PEOE_VSA+4>
0

>  <PEOE_VSA+5>
0

>  <PEOE_VSA+6>
0

>  <PEOE_VSA-0>
52.207878

>  <PEOE_VSA-1>
0

>  <PEOE_VSA-2>
0

>  <PEOE_VSA-3>
0

>  <PEOE_VSA-4>
0

>  <PEOE_VSA-5>
0

>  <PEOE_VSA-6>
6.6511192

>  <PEOE_VSA_FHYD>
0.9525184

>  <PEOE_VSA_FNEG>
0.42018786

>  <PEOE_VSA_FPNEG>
0.047481604

>  <PEOE_VSA_FPOL>
0.047481604

>  <PEOE_VSA_FPOS>
0.57981211

>  <PEOE_VSA_FPPOS>
0

>  <PEOE_VSA_HYD>
133.4267

>  <PEOE_VSA_NEG>
58.858997

>  <PEOE_VSA_PNEG>
6.6511192

>  <PEOE_VSA_POL>
6.6511192

>  <PEOE_VSA_POS>
81.218819

>  <PEOE_VSA_PPOS>
0

>  <petitjean>
0.25

>  <petitjeanSC>
0.33333334

>  <Q_PC+>
0

>  <Q_PC->
0

>  <Q_RPC+>
0

>  <Q_RPC->
0

>  <Q_VSA_FHYD>
1

>  <Q_VSA_FNEG>
0

>  <Q_VSA_FPNEG>
0

>  <Q_VSA_FPOL>
0

>  <Q_VSA_FPOS>
1

>  <Q_VSA_FPPOS>
0

>  <Q_VSA_HYD>
140.07782

>  <Q_VSA_NEG>
0

>  <Q_VSA_PNEG>
0

>  <Q_VSA_POL>
0

>  <Q_VSA_POS>
140.07782

>  <Q_VSA_PPOS>
0

>  <radius>
3

>  <reactive>
0

>  <rings>
3

>  <RPC+>
0

>  <RPC->
0

>  <rsynth>
1

>  <SlogP>
1.9139

>  <SlogP_VSA0>
32.897186

>  <SlogP_VSA1>
0

>  <SlogP_VSA2>
0

>  <SlogP_VSA3>
0

>  <SlogP_VSA4>
13.232388

>  <SlogP_VSA5>
0

>  <SlogP_VSA6>
0

>  <SlogP_VSA7>
0

>  <SlogP_VSA8>
113.21043

>  <SlogP_VSA9>
0

>  <SMR>
4.5090399

>  <SMR_VSA0>
0

>  <SMR_VSA1>
0

>  <SMR_VSA2>
13.232388

>  <SMR_VSA3>
0

>  <SMR_VSA4>
32.897186

>  <SMR_VSA5>
113.21043

>  <SMR_VSA6>
0

>  <SMR_VSA7>
0

>  <TPSA>
26.02

>  <VAdjEq>
0.75070029

>  <VAdjMa>
4.7004399

>  <VDistEq>
1.8821322

>  <VDistMa>
6.6532021

>  <vdw_area>
140.07782

>  <vdw_vol>
231.17096

>  <vsa_acc>
0

>  <vsa_acid>
0

>  <vsa_base>
0

>  <vsa_don>
0

>  <vsa_hyd>
101.47659

>  <vsa_other>
0

>  <vsa_pol>
17.742489

>  <Weight>
151.25299

>  <weinerPath>
124

>  <weinerPol>
15

>  <zagreb>
68

$$$$