S1[C@H]2N([C@@H](C(O)=O)C1(C)C)C(=O)[C@H]2N=CN1CCCCCC1
  MOE2013           2D

 22 24  0  0  1  0  0  0  0  0999 V2000
    0.0000    0.0000    0.0000 S   0  0  0  0  0  0  0  0  0  0  0  0
    0.9910    1.1260    0.0000 C   0  0  1  0  0  0  0  0  0  0  0  0
    0.2260    2.4170    0.0000 N   0  0  0  0  0  0  0  0  0  0  0  0
   -1.2380    2.0880    0.0000 C   0  0  1  0  0  0  0  0  0  0  0  0
   -2.3640    3.0780    0.0000 C   0  0  0  0  0  0  0  0  0  0  0  0
   -3.7850    2.5980    0.0000 O   0  0  0  0  0  0  0  0  0  0  0  0
   -2.0690    4.5490    0.0000 O   0  0  0  0  0  0  0  0  0  0  0  0
   -1.3770    0.5940    0.0000 C   0  0  0  0  0  0  0  0  0  0  0  0
   -2.8770    0.6160    0.0000 C   0  0  0  0  0  0  0  0  0  0  0  0
   -2.0780   -0.7320    0.0000 C   0  0  0  0  0  0  0  0  0  0  0  0
    1.5160    3.1810    0.0000 C   0  0  0  0  0  0  0  0  0  0  0  0
    1.8880    4.6350    0.0000 O   0  0  0  0  0  0  0  0  0  0  0  0
    2.2810    1.8910    0.0000 C   0  0  1  0  0  0  0  0  0  0  0  0
    3.7340    1.5200    0.0000 N   0  0  0  0  0  0  0  0  0  0  0  0
    4.7830    2.5930    0.0000 C   0  0  0  0  0  0  0  0  0  0  0  0
    6.2360    2.2210    0.0000 N   0  0  0  0  0  0  0  0  0  0  0  0
    6.5310    0.7510    0.0000 C   0  0  0  0  0  0  0  0  0  0  0  0
    7.8660    0.0660    0.0000 C   0  0  0  0  0  0  0  0  0  0  0  0
    9.2340    0.6830    0.0000 C   0  0  0  0  0  0  0  0  0  0  0  0
    9.6050    2.1360    0.0000 C   0  0  0  0  0  0  0  0  0  0  0  0
    8.7000    3.3320    0.0000 C   0  0  0  0  0  0  0  0  0  0  0  0
    7.2010    3.3700    0.0000 C   0  0  0  0  0  0  0  0  0  0  0  0
  1  8  1  0  0  0  0
  2  1  1  1  0  0  0
  2  3  1  0  0  0  0
  2 13  1  0  0  0  0
  3  4  1  0  0  0  0
  3 11  1  0  0  0  0
  4  5  1  6  0  0  0
  4  8  1  0  0  0  0
  5  6  1  0  0  0  0
  5  7  2  0  0  0  0
  8  9  1  0  0  0  0
  8 10  1  0  0  0  0
 11 12  2  0  0  0  0
 11 13  1  0  0  0  0
 13 14  1  1  0  0  0
 14 15  2  3  0  0  0
 15 16  1  0  0  0  0
 16 17  1  0  0  0  0
 16 22  1  0  0  0  0
 17 18  1  0  0  0  0
 18 19  1  0  0  0  0
 19 20  1  0  0  0  0
 20 21  1  0  0  0  0
 21 22  1  0  0  0  0
M  END
>  <Index>
60

>  <ID>
HT0127

>  <class>
0

>  <apol>
50.342239

>  <ast_fraglike>
0

>  <ast_fraglike_ext>
0

>  <ast_violation>
2

>  <ast_violation_ext>
3

>  <a_acc>
4

>  <a_acid>
0

>  <a_aro>
0

>  <a_base>
0

>  <a_count>
45

>  <a_don>
2

>  <a_donacc>
6

>  <a_heavy>
22

>  <a_hyd>
13

>  <a_IC>
74.978333

>  <a_ICM>
1.6661851

>  <a_nB>
0

>  <a_nBr>
0

>  <a_nC>
15

>  <a_nCl>
0

>  <a_nF>
0

>  <a_nH>
23

>  <a_nI>
0

>  <a_nN>
3

>  <a_nO>
3

>  <a_nP>
0

>  <a_nS>
1

>  <balabanJ>
1.5664005

>  <BCUT_PEOE_0>
-2.6230884

>  <BCUT_PEOE_1>
-0.41908315

>  <BCUT_PEOE_2>
0.43234363

>  <BCUT_PEOE_3>
2.8429589

>  <BCUT_SLOGP_0>
-2.8230455

>  <BCUT_SLOGP_1>
-0.34689531

>  <BCUT_SLOGP_2>
0.42825279

>  <BCUT_SLOGP_3>
2.7629871

>  <BCUT_SMR_0>
-2.371511

>  <BCUT_SMR_1>
-0.19406809

>  <BCUT_SMR_2>
0.63213903

>  <BCUT_SMR_3>
3.1212308

>  <bpol>
34.619762

>  <b_1rotN>
3

>  <b_1rotR>
0.125

>  <b_ar>
0

>  <b_count>
47

>  <b_double>
3

>  <b_heavy>
24

>  <b_max1len>
4

>  <b_rotN>
3

>  <b_rotR>
0.125

>  <b_single>
44

>  <b_triple>
0

>  <chi0>
15.905413

>  <chi0v>
13.882137

>  <chi0v_C>
10.052042

>  <chi0_C>
10.336499

>  <chi1>
10.415521

>  <chi1v>
8.7977495

>  <chi1v_C>
4.6993589

>  <chi1_C>
4.7886753

>  <chiral>
3

>  <chiral_u>
0

>  <density>
0.7801044

>  <diameter>
11

>  <FCharge>
0

>  <GCUT_PEOE_0>
-0.87479776

>  <GCUT_PEOE_1>
-0.38025156

>  <GCUT_PEOE_2>
-0.0085383309

>  <GCUT_PEOE_3>
2.7536383

>  <GCUT_SLOGP_0>
-1.0440109

>  <GCUT_SLOGP_1>
-0.33385968

>  <GCUT_SLOGP_2>
0.044627074

>  <GCUT_SLOGP_3>
2.7451553

>  <GCUT_SMR_0>
-0.53579432

>  <GCUT_SMR_1>
-0.16237757

>  <GCUT_SMR_2>
0.20871612

>  <GCUT_SMR_3>
3.0116038

>  <Kier1>
16.84375

>  <Kier2>
6.4814816

>  <Kier3>
3.1653478

>  <KierA1>
15.528748

>  <KierA2>
5.9512606

>  <KierA3>
2.8978691

>  <KierFlex>
4.2007098

>  <lip_acc>
6

>  <lip_don>
1

>  <lip_druglike>
1

>  <lip_violation>
0

>  <logP(o/w)>
1.92

>  <logS>
-2.49122

>  <mr>
8.5175247

>  <mutagenic>
0

>  <nmol>
1

>  <opr_brigid>
16

>  <opr_leadlike>
1

>  <opr_nring>
3

>  <opr_nrot>
6

>  <opr_violation>
0

>  <PC+>
0

>  <PC->
0

>  <PEOE_PC+>
2.1906559

>  <PEOE_PC->
-2.1906559

>  <PEOE_RPC+>
0.12953953

>  <PEOE_RPC->
0.16528536

>  <PEOE_VSA+0>
103.1616

>  <PEOE_VSA+1>
34.033085

>  <PEOE_VSA+2>
12.533369

>  <PEOE_VSA+3>
3.1459606

>  <PEOE_VSA+4>
10.324173

>  <PEOE_VSA+5>
27.65803

>  <PEOE_VSA+6>
0

>  <PEOE_VSA-0>
54.89798

>  <PEOE_VSA-1>
17.402626

>  <PEOE_VSA-2>
19.760618

>  <PEOE_VSA-3>
0

>  <PEOE_VSA-4>
0

>  <PEOE_VSA-5>
32.816418

>  <PEOE_VSA-6>
7.7675405

>  <PEOE_VSA_FHYD>
0.75713813

>  <PEOE_VSA_FNEG>
0.41002971

>  <PEOE_VSA_FPNEG>
0.12545219

>  <PEOE_VSA_FPOL>
0.24286188

>  <PEOE_VSA_FPOS>
0.58997029

>  <PEOE_VSA_FPPOS>
0.1174097

>  <PEOE_VSA_HYD>
244.93524

>  <PEOE_VSA_NEG>
132.64519

>  <PEOE_VSA_PNEG>
40.583958

>  <PEOE_VSA_POL>
78.566162

>  <PEOE_VSA_POS>
190.85622

>  <PEOE_VSA_PPOS>
37.982204

>  <petitjean>
0.45454547

>  <petitjeanSC>
0.83333331

>  <Q_PC+>
0

>  <Q_PC->
0

>  <Q_RPC+>
0

>  <Q_RPC->
0

>  <Q_VSA_FHYD>
1

>  <Q_VSA_FNEG>
0

>  <Q_VSA_FPNEG>
0

>  <Q_VSA_FPOL>
0

>  <Q_VSA_FPOS>
1

>  <Q_VSA_FPPOS>
0

>  <Q_VSA_HYD>
323.5014

>  <Q_VSA_NEG>
0

>  <Q_VSA_PNEG>
0

>  <Q_VSA_POL>
0

>  <Q_VSA_POS>
323.5014

>  <Q_VSA_PPOS>
0

>  <radius>
6

>  <reactive>
0

>  <rings>
3

>  <RPC+>
0

>  <RPC->
0

>  <rsynth>
1

>  <SlogP>
1.4062001

>  <SlogP_VSA0>
0

>  <SlogP_VSA1>
19.252876

>  <SlogP_VSA2>
74.82103

>  <SlogP_VSA3>
62.264381

>  <SlogP_VSA4>
0

>  <SlogP_VSA5>
16.78553

>  <SlogP_VSA6>
0

>  <SlogP_VSA7>
0

>  <SlogP_VSA8>
75.473625

>  <SlogP_VSA9>
98.871574

>  <SMR>
8.6049805

>  <SMR_VSA0>
47.724434

>  <SMR_VSA1>
23.034157

>  <SMR_VSA2>
25.385227

>  <SMR_VSA3>
10.311065

>  <SMR_VSA4>
0

>  <SMR_VSA5>
75.473625

>  <SMR_VSA6>
49.883404

>  <SMR_VSA7>
115.6571

>  <TPSA>
73.209999

>  <VAdjEq>
0.46637034

>  <VAdjMa>
5.5849624

>  <VDistEq>
3.2984164

>  <VDistMa>
8.6067877

>  <vdw_area>
323.5014

>  <vdw_vol>
417.16595

>  <vsa_acc>
19.249496

>  <vsa_acid>
0

>  <vsa_base>
0

>  <vsa_don>
0

>  <vsa_hyd>
204.48523

>  <vsa_other>
52.448547

>  <vsa_pol>
46.383339

>  <Weight>
325.43298

>  <weinerPath>
1095

>  <weinerPol>
36

>  <zagreb>
120

$$$$