OC(NC(=O)CCCCCCN=C(N)/N)C(=O)NCCCCNCCCN
  MOE2013           2D

 27 26  0  0  1  0  0  0  0  0999 V2000
    0.0000    0.0000    0.0000 O   0  0  0  0  0  0  0  0  0  0  0  0
    0.7480    1.3000    0.0000 C   0  0  3  0  0  0  0  0  0  0  0  0
   -0.0040    2.5980    0.0000 N   0  0  0  0  0  0  0  0  0  0  0  0
   -1.5040    2.5960    0.0000 C   0  0  0  0  0  0  0  0  0  0  0  0
   -2.2520    1.2960    0.0000 O   0  0  0  0  0  0  0  0  0  0  0  0
   -2.2550    3.8940    0.0000 C   0  0  0  0  0  0  0  0  0  0  0  0
   -3.7550    3.8920    0.0000 C   0  0  0  0  0  0  0  0  0  0  0  0
   -4.5070    5.1900    0.0000 C   0  0  0  0  0  0  0  0  0  0  0  0
   -6.0070    5.1880    0.0000 C   0  0  0  0  0  0  0  0  0  0  0  0
   -6.7590    6.4860    0.0000 C   0  0  0  0  0  0  0  0  0  0  0  0
   -8.2590    6.4840    0.0000 C   0  0  0  0  0  0  0  0  0  0  0  0
   -9.0110    7.7820    0.0000 N   0  0  0  0  0  0  0  0  0  0  0  0
  -10.5110    7.7800    0.0000 C   0  0  0  0  0  0  0  0  0  0  0  0
  -11.2630    9.0780    0.0000 N   0  0  0  0  0  0  0  0  0  0  0  0
  -11.2590    6.4790    0.0000 N   0  0  0  0  0  0  0  0  0  0  0  0
    2.2480    1.3020    0.0000 C   0  0  0  0  0  0  0  0  0  0  0  0
    2.9960    2.6020    0.0000 O   0  0  0  0  0  0  0  0  0  0  0  0
    3.0000    0.0040    0.0000 N   0  0  0  0  0  0  0  0  0  0  0  0
    4.5000    0.0060    0.0000 C   0  0  0  0  0  0  0  0  0  0  0  0
    5.2520   -1.2920    0.0000 C   0  0  0  0  0  0  0  0  0  0  0  0
    6.7520   -1.2900    0.0000 C   0  0  0  0  0  0  0  0  0  0  0  0
    7.5040   -2.5880    0.0000 C   0  0  0  0  0  0  0  0  0  0  0  0
    9.0040   -2.5850    0.0000 N   0  0  0  0  0  0  0  0  0  0  0  0
    9.7550   -3.8830    0.0000 C   0  0  0  0  0  0  0  0  0  0  0  0
   11.2550   -3.8810    0.0000 C   0  0  0  0  0  0  0  0  0  0  0  0
   12.0070   -5.1790    0.0000 C   0  0  0  0  0  0  0  0  0  0  0  0
   13.5070   -5.1770    0.0000 N   0  0  0  0  0  0  0  0  0  0  0  0
  1  2  1  0  0  0  0
  2  3  1  0  0  0  0
  2 16  1  0  0  0  0
  3  4  1  0  0  0  0
  4  5  2  0  0  0  0
  4  6  1  0  0  0  0
  6  7  1  0  0  0  0
  7  8  1  0  0  0  0
  8  9  1  0  0  0  0
  9 10  1  0  0  0  0
 10 11  1  0  0  0  0
 11 12  1  0  0  0  0
 12 13  2  3  0  0  0
 13 14  1  0  0  0  0
 13 15  1  0  0  0  0
 16 17  2  0  0  0  0
 16 18  1  0  0  0  0
 18 19  1  0  0  0  0
 19 20  1  0  0  0  0
 20 21  1  0  0  0  0
 21 22  1  0  0  0  0
 22 23  1  0  0  0  0
 23 24  1  0  0  0  0
 24 25  1  0  0  0  0
 25 26  1  0  0  0  0
 26 27  1  0  0  0  0
M  END
>  <Index>
509

>  <ID>
HT1012

>  <class>
0

>  <apol>
64.697342

>  <ast_fraglike>
0

>  <ast_fraglike_ext>
0

>  <ast_violation>
3

>  <ast_violation_ext>
5

>  <a_acc>
6

>  <a_acid>
0

>  <a_aro>
0

>  <a_base>
0

>  <a_count>
64

>  <a_don>
7

>  <a_donacc>
13

>  <a_heavy>
27

>  <a_hyd>
13

>  <a_IC>
97.356987

>  <a_ICM>
1.5212029

>  <a_nB>
0

>  <a_nBr>
0

>  <a_nC>
17

>  <a_nCl>
0

>  <a_nF>
0

>  <a_nH>
37

>  <a_nI>
0

>  <a_nN>
7

>  <a_nO>
3

>  <a_nP>
0

>  <a_nS>
0

>  <balabanJ>
3.5251191

>  <BCUT_PEOE_0>
-2.6759043

>  <BCUT_PEOE_1>
-0.52881938

>  <BCUT_PEOE_2>
0.43316239

>  <BCUT_PEOE_3>
2.6232991

>  <BCUT_SLOGP_0>
-2.7967048

>  <BCUT_SLOGP_1>
-0.52465987

>  <BCUT_SLOGP_2>
0.46287858

>  <BCUT_SLOGP_3>
2.7433579

>  <BCUT_SMR_0>
-2.4113262

>  <BCUT_SMR_1>
-0.31862256

>  <BCUT_SMR_2>
0.6256569

>  <BCUT_SMR_3>
2.8706377

>  <bpol>
43.684658

>  <b_1rotN>
17

>  <b_1rotR>
0.65384614

>  <b_ar>
0

>  <b_count>
63

>  <b_double>
3

>  <b_heavy>
26

>  <b_max1len>
11

>  <b_rotN>
19

>  <b_rotR>
0.73076922

>  <b_single>
60

>  <b_triple>
0

>  <chi0>
20.330215

>  <chi0v>
16.212713

>  <chi0v_C>
11.269738

>  <chi0_C>
11.501789

>  <chi1>
12.968433

>  <chi1v>
9.683444

>  <chi1v_C>
5.6422286

>  <chi1_C>
5.7415814

>  <chiral>
1

>  <chiral_u>
1

>  <density>
0.71447182

>  <diameter>
22

>  <FCharge>
0

>  <GCUT_PEOE_0>
-0.85332429

>  <GCUT_PEOE_1>
-0.39672205

>  <GCUT_PEOE_2>
0.065115787

>  <GCUT_PEOE_3>
2.6158004

>  <GCUT_SLOGP_0>
-1.3840654

>  <GCUT_SLOGP_1>
-0.36659467

>  <GCUT_SLOGP_2>
0.054200001

>  <GCUT_SLOGP_3>
2.604805

>  <GCUT_SMR_0>
-0.53063464

>  <GCUT_SMR_1>
-0.23191606

>  <GCUT_SMR_2>
0.18889578

>  <GCUT_SMR_3>
2.8387363

>  <Kier1>
27

>  <Kier2>
19.322235

>  <Kier3>
19.102041

>  <KierA1>
22.424366

>  <KierA2>
15.926614

>  <KierA3>
15.656721

>  <KierFlex>
13.227563

>  <lip_acc>
10

>  <lip_don>
10

>  <lip_druglike>
1

>  <lip_violation>
1

>  <logP(o/w)>
-1.101

>  <logS>
-1.00047

>  <mr>
10.507809

>  <mutagenic>
0

>  <nmol>
1

>  <opr_brigid>
1

>  <opr_leadlike>
0

>  <opr_nring>
0

>  <opr_nrot>
17

>  <opr_violation>
3

>  <PC+>
0

>  <PC->
0

>  <PEOE_PC+>
3.5164664

>  <PEOE_PC->
-3.5164664

>  <PEOE_RPC+>
0.07692147

>  <PEOE_RPC->
0.10525528

>  <PEOE_VSA+0>
137.45523

>  <PEOE_VSA+1>
12.796158

>  <PEOE_VSA+2>
25.857038

>  <PEOE_VSA+3>
67.395653

>  <PEOE_VSA+4>
32.669643

>  <PEOE_VSA+5>
12.949531

>  <PEOE_VSA+6>
0

>  <PEOE_VSA-0>
83.083542

>  <PEOE_VSA-1>
17.402626

>  <PEOE_VSA-2>
0

>  <PEOE_VSA-3>
0

>  <PEOE_VSA-4>
0

>  <PEOE_VSA-5>
32.816418

>  <PEOE_VSA-6>
28.131571

>  <PEOE_VSA_FHYD>
0.76347703

>  <PEOE_VSA_FNEG>
0.35829875

>  <PEOE_VSA_FPNEG>
0.13527241

>  <PEOE_VSA_FPOL>
0.23652294

>  <PEOE_VSA_FPOS>
0.64170122

>  <PEOE_VSA_FPPOS>
0.10125053

>  <PEOE_VSA_HYD>
343.99023

>  <PEOE_VSA_NEG>
161.43416

>  <PEOE_VSA_PNEG>
60.94799

>  <PEOE_VSA_POL>
106.56716

>  <PEOE_VSA_POS>
289.12326

>  <PEOE_VSA_PPOS>
45.619175

>  <petitjean>
0.5

>  <petitjeanSC>
1

>  <Q_PC+>
0

>  <Q_PC->
0

>  <Q_RPC+>
0

>  <Q_RPC->
0

>  <Q_VSA_FHYD>
1

>  <Q_VSA_FNEG>
0

>  <Q_VSA_FPNEG>
0

>  <Q_VSA_FPOL>
0

>  <Q_VSA_FPOS>
1

>  <Q_VSA_FPPOS>
0

>  <Q_VSA_HYD>
450.5574

>  <Q_VSA_NEG>
0

>  <Q_VSA_PNEG>
0

>  <Q_VSA_POL>
0

>  <Q_VSA_POS>
450.5574

>  <Q_VSA_PPOS>
0

>  <radius>
11

>  <reactive>
0

>  <rings>
0

>  <RPC+>
0

>  <RPC->
0

>  <rsynth>
1

>  <SlogP>
-1.5203

>  <SlogP_VSA0>
178.10904

>  <SlogP_VSA1>
12.41666

>  <SlogP_VSA2>
53.764256

>  <SlogP_VSA3>
92.197891

>  <SlogP_VSA4>
0

>  <SlogP_VSA5>
16.78553

>  <SlogP_VSA6>
0

>  <SlogP_VSA7>
0

>  <SlogP_VSA8>
150.94725

>  <SlogP_VSA9>
0

>  <SMR>
10.66961

>  <SMR_VSA0>
47.724434

>  <SMR_VSA1>
42.170757

>  <SMR_VSA2>
54.032253

>  <SMR_VSA3>
6.0398216

>  <SMR_VSA4>
98.691559

>  <SMR_VSA5>
150.94725

>  <SMR_VSA6>
104.61455

>  <SMR_VSA7>
0

>  <TPSA>
180.88

>  <VAdjEq>
0.37086964

>  <VAdjMa>
5.7004399

>  <VDistEq>
4.1963091

>  <VDistMa>
9.1471214

>  <vdw_area>
450.5574

>  <vdw_vol>
542.39923

>  <vsa_acc>
32.816418

>  <vsa_acid>
0

>  <vsa_base>
0

>  <vsa_don>
46.850132

>  <vsa_hyd>
227.96548

>  <vsa_other>
54.530167

>  <vsa_pol>
116.65854

>  <Weight>
387.52899

>  <weinerPath>
2796

>  <weinerPol>
28

>  <zagreb>
110

$$$$