Ic1c(CC(CC)C(O)=O)c(I)cc(I)c1N
  MOE2013           2D

 17 17  0  0  1  0  0  0  0  0999 V2000
    0.0000    0.0000    0.0000 I   0  0  0  0  0  0  0  0  0  0  0  0
    0.0000   -1.5000    0.0000 C   0  0  0  0  0  0  0  0  0  0  0  0
    1.2990   -2.2500    0.0000 C   0  0  0  0  0  0  0  0  0  0  0  0
    2.5980   -1.5000    0.0000 C   0  0  0  0  0  0  0  0  0  0  0  0
    3.8970   -2.2500    0.0000 C   0  0  3  0  0  0  0  0  0  0  0  0
    3.8970   -3.7500    0.0000 C   0  0  0  0  0  0  0  0  0  0  0  0
    5.1960   -4.5000    0.0000 C   0  0  0  0  0  0  0  0  0  0  0  0
    5.1960   -1.5000    0.0000 C   0  0  0  0  0  0  0  0  0  0  0  0
    6.4950   -2.2500    0.0000 O   0  0  0  0  0  0  0  0  0  0  0  0
    5.1960    0.0000    0.0000 O   0  0  0  0  0  0  0  0  0  0  0  0
    1.2990   -3.7500    0.0000 C   0  0  0  0  0  0  0  0  0  0  0  0
    2.5980   -4.5000    0.0000 I   0  0  0  0  0  0  0  0  0  0  0  0
    0.0000   -4.5000    0.0000 C   0  0  0  0  0  0  0  0  0  0  0  0
   -1.2990   -3.7500    0.0000 C   0  0  0  0  0  0  0  0  0  0  0  0
   -2.5980   -4.5000    0.0000 I   0  0  0  0  0  0  0  0  0  0  0  0
   -1.2990   -2.2500    0.0000 C   0  0  0  0  0  0  0  0  0  0  0  0
   -2.5980   -1.5000    0.0000 N   0  0  0  0  0  0  0  0  0  0  0  0
  1  2  1  0  0  0  0
  2  3  1  0  0  0  0
  2 16  2  0  0  0  0
  3  4  1  0  0  0  0
  3 11  2  0  0  0  0
  4  5  1  0  0  0  0
  5  6  1  0  0  0  0
  5  8  1  0  0  0  0
  6  7  1  0  0  0  0
  8  9  1  0  0  0  0
  8 10  2  0  0  0  0
 11 12  1  0  0  0  0
 11 13  1  0  0  0  0
 13 14  2  0  0  0  0
 14 15  1  0  0  0  0
 14 16  1  0  0  0  0
 16 17  1  0  0  0  0
M  END
>  <Index>
562

>  <ID>
HT1112

>  <class>
0

>  <apol>
46.115517

>  <ast_fraglike>
0

>  <ast_fraglike_ext>
0

>  <ast_violation>
2

>  <ast_violation_ext>
3

>  <a_acc>
2

>  <a_acid>
0

>  <a_aro>
6

>  <a_base>
0

>  <a_count>
29

>  <a_don>
3

>  <a_donacc>
5

>  <a_heavy>
17

>  <a_hyd>
13

>  <a_IC>
53.053265

>  <a_ICM>
1.8294228

>  <a_nB>
0

>  <a_nBr>
0

>  <a_nC>
11

>  <a_nCl>
0

>  <a_nF>
0

>  <a_nH>
12

>  <a_nI>
3

>  <a_nN>
1

>  <a_nO>
2

>  <a_nP>
0

>  <a_nS>
0

>  <balabanJ>
2.6943386

>  <BCUT_PEOE_0>
-2.5796418

>  <BCUT_PEOE_1>
-0.55805564

>  <BCUT_PEOE_2>
0.54415077

>  <BCUT_PEOE_3>
2.6024227

>  <BCUT_SLOGP_0>
-2.5620844

>  <BCUT_SLOGP_1>
-0.37238768

>  <BCUT_SLOGP_2>
0.77224654

>  <BCUT_SLOGP_3>
2.6459014

>  <BCUT_SMR_0>
-2.349134

>  <BCUT_SMR_1>
-0.21771298

>  <BCUT_SMR_2>
0.89586425

>  <BCUT_SMR_3>
2.8467088

>  <bpol>
24.186483

>  <b_1rotN>
4

>  <b_1rotR>
0.23529412

>  <b_ar>
6

>  <b_count>
29

>  <b_double>
1

>  <b_heavy>
17

>  <b_max1len>
5

>  <b_rotN>
4

>  <b_rotR>
0.23529412

>  <b_single>
22

>  <b_triple>
0

>  <chi0>
13.162772

>  <chi0v>
15.608114

>  <chi0v_C>
6.5689139

>  <chi0_C>
7.1627722

>  <chi1>
7.8791165

>  <chi1v>
8.2627821

>  <chi1v_C>
3.7431822

>  <chi1_C>
4.4150147

>  <chiral>
1

>  <chiral_u>
1

>  <density>
1.5303062

>  <diameter>
8

>  <FCharge>
0

>  <GCUT_PEOE_0>
-0.80396652

>  <GCUT_PEOE_1>
-0.38844293

>  <GCUT_PEOE_2>
0.034704011

>  <GCUT_PEOE_3>
2.4182143

>  <GCUT_SLOGP_0>
-1.3345021

>  <GCUT_SLOGP_1>
-0.27083918

>  <GCUT_SLOGP_2>
0.26543

>  <GCUT_SLOGP_3>
2.5271482

>  <GCUT_SMR_0>
-0.52469105

>  <GCUT_SMR_1>
-0.16068473

>  <GCUT_SMR_2>
0.35504538

>  <GCUT_SMR_3>
2.7772789

>  <Kier1>
15.058824

>  <Kier2>
6.25

>  <Kier3>
3.4844444

>  <KierA1>
21.045603

>  <KierA2>
8.9167194

>  <KierA3>
5.0523257

>  <KierFlex>
11.038691

>  <lip_acc>
3

>  <lip_don>
3

>  <lip_druglike>
1

>  <lip_violation>
1

>  <logP(o/w)>
5.4980001

>  <logS>
-4.7101002

>  <mr>
9.5521975

>  <mutagenic>
1

>  <nmol>
1

>  <opr_brigid>
6

>  <opr_leadlike>
1

>  <opr_nring>
1

>  <opr_nrot>
4

>  <opr_violation>
1

>  <PC+>
0

>  <PC->
0

>  <PEOE_PC+>
1.1985791

>  <PEOE_PC->
-1.1985791

>  <PEOE_RPC+>
0.21943207

>  <PEOE_RPC->
0.27620354

>  <PEOE_VSA+0>
49.942921

>  <PEOE_VSA+1>
4.2653861

>  <PEOE_VSA+2>
17.238026

>  <PEOE_VSA+3>
0

>  <PEOE_VSA+4>
10.324173

>  <PEOE_VSA+5>
14.708499

>  <PEOE_VSA+6>
0

>  <PEOE_VSA-0>
172.83611

>  <PEOE_VSA-1>
18.747677

>  <PEOE_VSA-2>
0

>  <PEOE_VSA-3>
0

>  <PEOE_VSA-4>
0

>  <PEOE_VSA-5>
13.566921

>  <PEOE_VSA-6>
14.418659

>  <PEOE_VSA_FHYD>
0.83224642

>  <PEOE_VSA_FNEG>
0.69473344

>  <PEOE_VSA_FPNEG>
0.088548407

>  <PEOE_VSA_FPOL>
0.16775359

>  <PEOE_VSA_FPOS>
0.30526659

>  <PEOE_VSA_FPPOS>
0.079205193

>  <PEOE_VSA_HYD>
263.03012

>  <PEOE_VSA_NEG>
219.56937

>  <PEOE_VSA_PNEG>
27.98558

>  <PEOE_VSA_POL>
53.018253

>  <PEOE_VSA_POS>
96.479004

>  <PEOE_VSA_PPOS>
25.032671

>  <petitjean>
0.5

>  <petitjeanSC>
1

>  <Q_PC+>
0

>  <Q_PC->
0

>  <Q_RPC+>
0

>  <Q_RPC->
0

>  <Q_VSA_FHYD>
1

>  <Q_VSA_FNEG>
0

>  <Q_VSA_FPNEG>
0

>  <Q_VSA_FPOL>
0

>  <Q_VSA_FPOS>
1

>  <Q_VSA_FPPOS>
0

>  <Q_VSA_HYD>
316.04837

>  <Q_VSA_NEG>
0

>  <Q_VSA_PNEG>
0

>  <Q_VSA_POL>
0

>  <Q_VSA_POS>
316.04837

>  <Q_VSA_PPOS>
0

>  <radius>
4

>  <reactive>
0

>  <rings>
1

>  <RPC+>
0

>  <RPC->
0

>  <rsynth>
0

>  <SlogP>
3.7358699

>  <SlogP_VSA0>
32.897186

>  <SlogP_VSA1>
7.7454643

>  <SlogP_VSA2>
28.841145

>  <SlogP_VSA3>
25.385227

>  <SlogP_VSA4>
7.5963712

>  <SlogP_VSA5>
18.868406

>  <SlogP_VSA6>
0

>  <SlogP_VSA7>
17.643185

>  <SlogP_VSA8>
18.868406

>  <SlogP_VSA9>
206.42879

>  <SMR>
9.4126196

>  <SMR_VSA0>
23.862217

>  <SMR_VSA1>
0

>  <SMR_VSA2>
34.774952

>  <SMR_VSA3>
3.185575

>  <SMR_VSA4>
2.7567475

>  <SMR_VSA5>
88.277184

>  <SMR_VSA6>
7.7454643

>  <SMR_VSA7>
203.67204

>  <TPSA>
63.32

>  <VAdjEq>
0.52255934

>  <VAdjMa>
5.0874629

>  <VDistEq>
2.8277876

>  <VDistMa>
7.899528

>  <vdw_area>
316.04837

>  <vdw_vol>
373.08478

>  <vsa_acc>
0

>  <vsa_acid>
0

>  <vsa_base>
0

>  <vsa_don>
17.742489

>  <vsa_hyd>
238.04089

>  <vsa_other>
14.708499

>  <vsa_pol>
44.876331

>  <Weight>
570.93402

>  <weinerPath>
506

>  <weinerPol>
27

>  <zagreb>
82

$$$$