O1c2c(C(=O)CC1c1cc(O)c(OC)cc1)c(O)cc(O)c2
  MOE2013           2D

 22 24  0  0  1  0  0  0  0  0999 V2000
    0.0000    0.0000    0.0000 O   0  0  0  0  0  0  0  0  0  0  0  0
   -1.5000   -0.0060    0.0000 C   0  0  0  0  0  0  0  0  0  0  0  0
   -2.2450   -1.3080    0.0000 C   0  0  0  0  0  0  0  0  0  0  0  0
   -1.4890   -2.6040    0.0000 C   0  0  0  0  0  0  0  0  0  0  0  0
   -2.2340   -3.9060    0.0000 O   0  0  0  0  0  0  0  0  0  0  0  0
    0.0110   -2.5980    0.0000 C   0  0  0  0  0  0  0  0  0  0  0  0
    0.7550   -1.2960    0.0000 C   0  0  3  0  0  0  0  0  0  0  0  0
    2.2550   -1.2900    0.0000 C   0  0  0  0  0  0  0  0  0  0  0  0
    3.0110   -2.5860    0.0000 C   0  0  0  0  0  0  0  0  0  0  0  0
    4.5110   -2.5800    0.0000 C   0  0  0  0  0  0  0  0  0  0  0  0
    5.2660   -3.8750    0.0000 O   0  0  0  0  0  0  0  0  0  0  0  0
    5.2550   -1.2770    0.0000 C   0  0  0  0  0  0  0  0  0  0  0  0
    6.7550   -1.2710    0.0000 O   0  0  0  0  0  0  0  0  0  0  0  0
    7.5000    0.0310    0.0000 C   0  0  0  0  0  0  0  0  0  0  0  0
    4.5000    0.0190    0.0000 C   0  0  0  0  0  0  0  0  0  0  0  0
    3.0000    0.0120    0.0000 C   0  0  0  0  0  0  0  0  0  0  0  0
   -3.7450   -1.3140    0.0000 C   0  0  0  0  0  0  0  0  0  0  0  0
   -4.4890   -2.6170    0.0000 O   0  0  0  0  0  0  0  0  0  0  0  0
   -4.5000   -0.0190    0.0000 C   0  0  0  0  0  0  0  0  0  0  0  0
   -3.7550    1.2840    0.0000 C   0  0  0  0  0  0  0  0  0  0  0  0
   -4.5110    2.5800    0.0000 O   0  0  0  0  0  0  0  0  0  0  0  0
   -2.2550    1.2900    0.0000 C   0  0  0  0  0  0  0  0  0  0  0  0
  1  2  1  0  0  0  0
  1  7  1  0  0  0  0
  2  3  1  0  0  0  0
  2 22  2  0  0  0  0
  3  4  1  0  0  0  0
  3 17  2  0  0  0  0
  4  5  2  0  0  0  0
  4  6  1  0  0  0  0
  6  7  1  0  0  0  0
  7  8  1  0  0  0  0
  8  9  1  0  0  0  0
  8 16  2  0  0  0  0
  9 10  2  0  0  0  0
 10 11  1  0  0  0  0
 10 12  1  0  0  0  0
 12 13  1  0  0  0  0
 12 15  2  0  0  0  0
 13 14  1  0  0  0  0
 15 16  1  0  0  0  0
 17 18  1  0  0  0  0
 17 19  1  0  0  0  0
 19 20  2  0  0  0  0
 20 21  1  0  0  0  0
 20 22  1  0  0  0  0
M  END
>  <Index>
516

>  <ID>
HT1026

>  <class>
0

>  <apol>
42.307102

>  <ast_fraglike>
0

>  <ast_fraglike_ext>
0

>  <ast_violation>
2

>  <ast_violation_ext>
2

>  <a_acc>
6

>  <a_acid>
0

>  <a_aro>
12

>  <a_base>
0

>  <a_count>
36

>  <a_don>
3

>  <a_donacc>
9

>  <a_heavy>
22

>  <a_hyd>
15

>  <a_IC>
53.304558

>  <a_ICM>
1.4806821

>  <a_nB>
0

>  <a_nBr>
0

>  <a_nC>
16

>  <a_nCl>
0

>  <a_nF>
0

>  <a_nH>
14

>  <a_nI>
0

>  <a_nN>
0

>  <a_nO>
6

>  <a_nP>
0

>  <a_nS>
0

>  <balabanJ>
1.6512364

>  <BCUT_PEOE_0>
-2.4913111

>  <BCUT_PEOE_1>
-0.72141188

>  <BCUT_PEOE_2>
0.70834637

>  <BCUT_PEOE_3>
2.5474012

>  <BCUT_SLOGP_0>
-2.4281452

>  <BCUT_SLOGP_1>
-0.65887243

>  <BCUT_SLOGP_2>
0.74750113

>  <BCUT_SLOGP_3>
2.6411519

>  <BCUT_SMR_0>
-2.2420492

>  <BCUT_SMR_1>
-0.52123845

>  <BCUT_SMR_2>
0.88558054

>  <BCUT_SMR_3>
2.7963071

>  <bpol>
20.094898

>  <b_1rotN>
2

>  <b_1rotR>
0.083333336

>  <b_ar>
12

>  <b_count>
38

>  <b_double>
1

>  <b_heavy>
24

>  <b_max1len>
2

>  <b_rotN>
2

>  <b_rotR>
0.083333336

>  <b_single>
25

>  <b_triple>
0

>  <chi0>
15.853006

>  <chi0v>
11.737594

>  <chi0v_C>
9.1712084

>  <chi0_C>
10.438793

>  <chi1>
10.490402

>  <chi1v>
6.6203547

>  <chi1v_C>
4.6932111

>  <chi1_C>
6.2491498

>  <chiral>
1

>  <chiral_u>
1

>  <density>
0.80451339

>  <diameter>
11

>  <FCharge>
0

>  <GCUT_PEOE_0>
-0.7831797

>  <GCUT_PEOE_1>
-0.48844165

>  <GCUT_PEOE_2>
0.095985658

>  <GCUT_PEOE_3>
2.5380726

>  <GCUT_SLOGP_0>
-0.88688111

>  <GCUT_SLOGP_1>
-0.34892759

>  <GCUT_SLOGP_2>
0.15483166

>  <GCUT_SLOGP_3>
2.6863406

>  <GCUT_SMR_0>
-0.49697798

>  <GCUT_SMR_1>
-0.24118868

>  <GCUT_SMR_2>
0.24601126

>  <GCUT_SMR_3>
2.807198

>  <Kier1>
16.84375

>  <Kier2>
6.8571429

>  <Kier3>
3.4404707

>  <KierA1>
12.809166

>  <KierA2>
5.1413884

>  <KierA3>
2.5532284

>  <KierFlex>
2.9934952

>  <lip_acc>
6

>  <lip_don>
3

>  <lip_druglike>
1

>  <lip_violation>
0

>  <logP(o/w)>
2.3710001

>  <logS>
-2.50336

>  <mr>
7.6956415

>  <mutagenic>
0

>  <nmol>
1

>  <opr_brigid>
17

>  <opr_leadlike>
1

>  <opr_nring>
3

>  <opr_nrot>
3

>  <opr_violation>
0

>  <PC+>
0

>  <PC->
0

>  <PEOE_PC+>
2.1723871

>  <PEOE_PC->
-2.1723871

>  <PEOE_RPC+>
0.10008426

>  <PEOE_RPC->
0.16556293

>  <PEOE_VSA+0>
42.229744

>  <PEOE_VSA+1>
70.877502

>  <PEOE_VSA+2>
16.917038

>  <PEOE_VSA+3>
8.458519

>  <PEOE_VSA+4>
30.972517

>  <PEOE_VSA+5>
0

>  <PEOE_VSA+6>
0

>  <PEOE_VSA-0>
51.228157

>  <PEOE_VSA-1>
12.254904

>  <PEOE_VSA-2>
0

>  <PEOE_VSA-3>
0

>  <PEOE_VSA-4>
0

>  <PEOE_VSA-5>
13.566921

>  <PEOE_VSA-6>
28.310133

>  <PEOE_VSA_FHYD>
0.73491454

>  <PEOE_VSA_FNEG>
0.383385

>  <PEOE_VSA_FPNEG>
0.15238246

>  <PEOE_VSA_FPOL>
0.26508546

>  <PEOE_VSA_FPOS>
0.616615

>  <PEOE_VSA_FPPOS>
0.11270298

>  <PEOE_VSA_HYD>
201.96587

>  <PEOE_VSA_NEG>
105.36012

>  <PEOE_VSA_PNEG>
41.877052

>  <PEOE_VSA_POL>
72.849571

>  <PEOE_VSA_POS>
169.45532

>  <PEOE_VSA_PPOS>
30.972517

>  <petitjean>
0.45454547

>  <petitjeanSC>
0.83333331

>  <Q_PC+>
0

>  <Q_PC->
0

>  <Q_RPC+>
0

>  <Q_RPC->
0

>  <Q_VSA_FHYD>
1

>  <Q_VSA_FNEG>
0

>  <Q_VSA_FPNEG>
0

>  <Q_VSA_FPOL>
0

>  <Q_VSA_FPOS>
1

>  <Q_VSA_FPPOS>
0

>  <Q_VSA_HYD>
274.81543

>  <Q_VSA_NEG>
0

>  <Q_VSA_PNEG>
0

>  <Q_VSA_POL>
0

>  <Q_VSA_POS>
274.81543

>  <Q_VSA_PPOS>
0

>  <radius>
6

>  <reactive>
1

>  <rings>
3

>  <RPC+>
0

>  <RPC->
0

>  <rsynth>
1

>  <SlogP>
2.6140001

>  <SlogP_VSA0>
98.155457

>  <SlogP_VSA1>
5.6876111

>  <SlogP_VSA2>
0

>  <SlogP_VSA3>
0

>  <SlogP_VSA4>
30.233366

>  <SlogP_VSA5>
35.383869

>  <SlogP_VSA6>
0

>  <SlogP_VSA7>
88.215919

>  <SlogP_VSA8>
25.337055

>  <SlogP_VSA9>
26.21714

>  <SMR>
7.6857901

>  <SMR_VSA0>
23.862217

>  <SMR_VSA1>
98.155457

>  <SMR_VSA2>
0

>  <SMR_VSA3>
39.056938

>  <SMR_VSA4>
0

>  <SMR_VSA5>
107.08433

>  <SMR_VSA6>
5.6876111

>  <SMR_VSA7>
35.383869

>  <TPSA>
96.220001

>  <VAdjEq>
0.46637034

>  <VAdjMa>
5.5849624

>  <VDistEq>
3.2215941

>  <VDistMa>
8.6210918

>  <vdw_area>
274.81543

>  <vdw_vol>
375.7327

>  <vsa_acc>
18.574432

>  <vsa_acid>
0

>  <vsa_base>
0

>  <vsa_don>
0

>  <vsa_hyd>
185.6776

>  <vsa_other>
8.458519

>  <vsa_pol>
59.275196

>  <Weight>
302.28198

>  <weinerPath>
1038

>  <weinerPol>
38

>  <zagreb>
118

$$$$