SC[C@H](N)C(O)=O
  MOE2013           2D

  7  6  0  0  1  0  0  0  0  0999 V2000
    0.0000    0.0000    0.0000 S   0  0  0  0  0  0  0  0  0  0  0  0
   -1.5000    0.0090    0.0000 C   0  0  0  0  0  0  0  0  0  0  0  0
   -2.2580   -1.2850    0.0000 C   0  0  2  0  0  0  0  0  0  0  0  0
   -1.5160   -2.5890    0.0000 N   0  0  0  0  0  0  0  0  0  0  0  0
   -3.7580   -1.2760    0.0000 C   0  0  0  0  0  0  0  0  0  0  0  0
   -4.5000    0.0280    0.0000 O   0  0  0  0  0  0  0  0  0  0  0  0
   -4.5160   -2.5700    0.0000 O   0  0  0  0  0  0  0  0  0  0  0  0
  1  2  1  0  0  0  0
  2  3  1  0  0  0  0
  3  4  1  6  0  0  0
  3  5  1  0  0  0  0
  5  6  1  0  0  0  0
  5  7  2  0  0  0  0
M  END
>  <Index>
598

>  <ID>
HT1180

>  <class>
0

>  <apol>
15.551551

>  <ast_fraglike>
1

>  <ast_fraglike_ext>
1

>  <ast_violation>
0

>  <ast_violation_ext>
0

>  <a_acc>
3

>  <a_acid>
0

>  <a_aro>
0

>  <a_base>
0

>  <a_count>
14

>  <a_don>
3

>  <a_donacc>
6

>  <a_heavy>
7

>  <a_hyd>
2

>  <a_IC>
26.896597

>  <a_ICM>
1.9211855

>  <a_nB>
0

>  <a_nBr>
0

>  <a_nC>
3

>  <a_nCl>
0

>  <a_nF>
0

>  <a_nH>
7

>  <a_nI>
0

>  <a_nN>
1

>  <a_nO>
2

>  <a_nP>
0

>  <a_nS>
1

>  <balabanJ>
3.1946843

>  <BCUT_PEOE_0>
-2.4477098

>  <BCUT_PEOE_1>
-0.59691316

>  <BCUT_PEOE_2>
0.61818153

>  <BCUT_PEOE_3>
2.4818444

>  <BCUT_SLOGP_0>
-2.7382047

>  <BCUT_SLOGP_1>
-0.6076138

>  <BCUT_SLOGP_2>
0.61792028

>  <BCUT_SLOGP_3>
2.3339465

>  <BCUT_SMR_0>
-2.1829097

>  <BCUT_SMR_1>
-0.39609358

>  <BCUT_SMR_2>
0.75885516

>  <BCUT_SMR_3>
2.7478008

>  <bpol>
10.230449

>  <b_1rotN>
2

>  <b_1rotR>
0.33333334

>  <b_ar>
0

>  <b_count>
13

>  <b_double>
1

>  <b_heavy>
6

>  <b_max1len>
5

>  <b_rotN>
2

>  <b_rotR>
0.33333334

>  <b_single>
12

>  <b_triple>
0

>  <chi0>
5.8618073

>  <chi0v>
4.5589099

>  <chi0v_C>
1.7844571

>  <chi0_C>
1.8618073

>  <chi1>
3.1807392

>  <chi1v>
2.406671

>  <chi1v_C>
0.69692343

>  <chi1_C>
0.74158162

>  <chiral>
1

>  <chiral_u>
0

>  <density>
0.91181993

>  <diameter>
4

>  <FCharge>
0

>  <GCUT_PEOE_0>
-0.80938035

>  <GCUT_PEOE_1>
-0.435985

>  <GCUT_PEOE_2>
0.13145196

>  <GCUT_PEOE_3>
1.9121749

>  <GCUT_SLOGP_0>
-1.3634393

>  <GCUT_SLOGP_1>
-0.44229949

>  <GCUT_SLOGP_2>
0.15338905

>  <GCUT_SLOGP_3>
1.8166465

>  <GCUT_SMR_0>
-0.48708573

>  <GCUT_SMR_1>
-0.17484134

>  <GCUT_SMR_2>
0.24199581

>  <GCUT_SMR_3>
2.1717575

>  <Kier1>
7

>  <Kier2>
3.0612245

>  <Kier3>
2.6666667

>  <KierA1>
7.6879997

>  <KierA2>
3.4213877

>  <KierA3>
3.0379999

>  <KierFlex>
3.7576611

>  <lip_acc>
3

>  <lip_don>
3

>  <lip_druglike>
1

>  <lip_violation>
0

>  <logP(o/w)>
-2.9477301

>  <logS>
-0.26620001

>  <mr>
2.8796167

>  <mutagenic>
0

>  <nmol>
1

>  <opr_brigid>
0

>  <opr_leadlike>
1

>  <opr_nring>
0

>  <opr_nrot>
2

>  <opr_violation>
0

>  <PC+>
0

>  <PC->
0

>  <PEOE_PC+>
1.0883709

>  <PEOE_PC->
-1.0883709

>  <PEOE_RPC+>
0.2548202

>  <PEOE_RPC->
0.30327618

>  <PEOE_VSA+0>
19.208147

>  <PEOE_VSA+1>
4.2653861

>  <PEOE_VSA+2>
28.165083

>  <PEOE_VSA+3>
0

>  <PEOE_VSA+4>
10.324173

>  <PEOE_VSA+5>
14.708499

>  <PEOE_VSA+6>
0

>  <PEOE_VSA-0>
0

>  <PEOE_VSA-1>
0

>  <PEOE_VSA-2>
0

>  <PEOE_VSA-3>
26.362989

>  <PEOE_VSA-4>
0

>  <PEOE_VSA-5>
13.566921

>  <PEOE_VSA-6>
14.418659

>  <PEOE_VSA_FHYD>
0.59534186

>  <PEOE_VSA_FNEG>
0.4148117

>  <PEOE_VSA_FPNEG>
0.21359801

>  <PEOE_VSA_FPOL>
0.40465814

>  <PEOE_VSA_FPOS>
0.58518833

>  <PEOE_VSA_FPPOS>
0.19106014

>  <PEOE_VSA_HYD>
78.001602

>  <PEOE_VSA_NEG>
54.348568

>  <PEOE_VSA_PNEG>
27.98558

>  <PEOE_VSA_POL>
53.018253

>  <PEOE_VSA_POS>
76.671288

>  <PEOE_VSA_PPOS>
25.032671

>  <petitjean>
0.5

>  <petitjeanSC>
1

>  <Q_PC+>
0

>  <Q_PC->
0

>  <Q_RPC+>
0

>  <Q_RPC->
0

>  <Q_VSA_FHYD>
1

>  <Q_VSA_FNEG>
0

>  <Q_VSA_FPNEG>
0

>  <Q_VSA_FPOL>
0

>  <Q_VSA_FPOS>
1

>  <Q_VSA_FPPOS>
0

>  <Q_VSA_HYD>
131.01985

>  <Q_VSA_NEG>
0

>  <Q_VSA_PNEG>
0

>  <Q_VSA_POL>
0

>  <Q_VSA_POS>
131.01985

>  <Q_VSA_PPOS>
0

>  <radius>
2

>  <reactive>
1

>  <rings>
0

>  <RPC+>
0

>  <RPC->
0

>  <rsynth>
1

>  <SlogP>
-0.67189997

>  <SlogP_VSA0>
32.897186

>  <SlogP_VSA1>
7.7454643

>  <SlogP_VSA2>
27.844185

>  <SlogP_VSA3>
42.61879

>  <SlogP_VSA4>
0

>  <SlogP_VSA5>
0

>  <SlogP_VSA6>
0

>  <SlogP_VSA7>
0

>  <SlogP_VSA8>
46.107109

>  <SlogP_VSA9>
0

>  <SMR>
2.9465201

>  <SMR_VSA0>
23.862217

>  <SMR_VSA1>
0

>  <SMR_VSA2>
25.385227

>  <SMR_VSA3>
3.9819686

>  <SMR_VSA4>
32.897186

>  <SMR_VSA5>
0

>  <SMR_VSA6>
24.979029

>  <SMR_VSA7>
46.107109

>  <TPSA>
102.12

>  <VAdjEq>
0.80309099

>  <VAdjMa>
3.5849626

>  <VDistEq>
1.8841729

>  <VDistMa>
5.2511854

>  <vdw_area>
131.01985

>  <vdw_vol>
132.87712

>  <vsa_acc>
0

>  <vsa_acid>
0

>  <vsa_base>
0

>  <vsa_don>
0

>  <vsa_hyd>
24.484108

>  <vsa_other>
46.09301

>  <vsa_pol>
44.876331

>  <Weight>
121.16

>  <weinerPath>
46

>  <weinerPol>
6

>  <zagreb>
26

$$$$