O=C1CC[C@]2([C@@H]3[C@H]([C@@H]4CC[C@@](OC(=O)CCC)(C(=O)CO)[C@@]4(C[C@@H]3O)C)CCC2=C1)C
  MOE2013           2D

 31 34  0  0  1  0  0  0  0  0999 V2000
    0.0000    0.0000    0.0000 O   0  0  0  0  0  0  0  0  0  0  0  0
    1.5000   -0.0100    0.0000 C   0  0  0  0  0  0  0  0  0  0  0  0
    2.2420   -1.3140    0.0000 C   0  0  0  0  0  0  0  0  0  0  0  0
    3.7420   -1.3230    0.0000 C   0  0  0  0  0  0  0  0  0  0  0  0
    4.5000   -0.0290    0.0000 C   0  0  1  0  0  0  0  0  0  0  0  0
    6.0000   -0.0390    0.0000 C   0  0  2  0  0  0  0  0  0  0  0  0
    6.7580    1.2550    0.0000 C   0  0  2  0  0  0  0  0  0  0  0  0
    8.2580    1.2460    0.0000 C   0  0  2  0  0  0  0  0  0  0  0  0
    9.2690    2.3540    0.0000 C   0  0  0  0  0  0  0  0  0  0  0  0
   10.6350    1.7350    0.0000 C   0  0  0  0  0  0  0  0  0  0  0  0
   10.4690    0.2440    0.0000 C   0  0  1  0  0  0  0  0  0  0  0  0
   11.9280   -0.1030    0.0000 O   0  0  0  0  0  0  0  0  0  0  0  0
   12.9580    0.9880    0.0000 C   0  0  0  0  0  0  0  0  0  0  0  0
   12.5290    2.4250    0.0000 O   0  0  0  0  0  0  0  0  0  0  0  0
   14.4180    0.6410    0.0000 C   0  0  0  0  0  0  0  0  0  0  0  0
   15.4480    1.7310    0.0000 C   0  0  0  0  0  0  0  0  0  0  0  0
   16.9070    1.3840    0.0000 C   0  0  0  0  0  0  0  0  0  0  0  0
   10.8480   -1.2070    0.0000 C   0  0  0  0  0  0  0  0  0  0  0  0
    9.7800   -2.2610    0.0000 O   0  0  0  0  0  0  0  0  0  0  0  0
   12.2940   -1.6050    0.0000 C   0  0  0  0  0  0  0  0  0  0  0  0
   12.6730   -3.0560    0.0000 O   0  0  0  0  0  0  0  0  0  0  0  0
    9.0000   -0.0580    0.0000 C   0  0  2  0  0  0  0  0  0  0  0  0
    8.2410   -1.3520    0.0000 C   0  0  0  0  0  0  0  0  0  0  0  0
    6.7410   -1.3430    0.0000 C   0  0  2  0  0  0  0  0  0  0  0  0
    5.9830   -2.6370    0.0000 O   0  0  0  0  0  0  0  0  0  0  0  0
    9.8740   -1.2770    0.0000 C   0  0  0  0  0  0  0  0  0  0  0  0
    6.0170    2.5590    0.0000 C   0  0  0  0  0  0  0  0  0  0  0  0
    4.5170    2.5690    0.0000 C   0  0  0  0  0  0  0  0  0  0  0  0
    3.7580    1.2750    0.0000 C   0  0  0  0  0  0  0  0  0  0  0  0
    2.2580    1.2840    0.0000 C   0  0  0  0  0  0  0  0  0  0  0  0
    5.2640   -1.3200    0.0000 C   0  0  0  0  0  0  0  0  0  0  0  0
  1  2  2  0  0  0  0
  2  3  1  0  0  0  0
  2 30  1  0  0  0  0
  3  4  1  0  0  0  0
  4  5  1  0  0  0  0
  5 29  1  0  0  0  0
  5 31  1  1  0  0  0
  6  5  1  6  0  0  0
  6  7  1  0  0  0  0
  6 24  1  0  0  0  0
  7  8  1  0  0  0  0
  7 27  1  1  0  0  0
  8  9  1  6  0  0  0
  8 22  1  0  0  0  0
  9 10  1  0  0  0  0
 10 11  1  0  0  0  0
 11 12  1  6  0  0  0
 11 18  1  1  0  0  0
 11 22  1  0  0  0  0
 12 13  1  0  0  0  0
 13 14  2  0  0  0  0
 13 15  1  0  0  0  0
 15 16  1  0  0  0  0
 16 17  1  0  0  0  0
 18 19  2  0  0  0  0
 18 20  1  0  0  0  0
 20 21  1  0  0  0  0
 22 23  1  0  0  0  0
 22 26  1  1  0  0  0
 23 24  1  0  0  0  0
 24 25  1  6  0  0  0
 27 28  1  0  0  0  0
 28 29  1  0  0  0  0
 29 30  2  0  0  0  0
M  END
>  <Index>
531

>  <ID>
HT1049

>  <class>
0

>  <apol>
72.816551

>  <ast_fraglike>
0

>  <ast_fraglike_ext>
0

>  <ast_violation>
3

>  <ast_violation_ext>
5

>  <a_acc>
5

>  <a_acid>
0

>  <a_aro>
0

>  <a_base>
0

>  <a_count>
67

>  <a_don>
2

>  <a_donacc>
7

>  <a_heavy>
31

>  <a_hyd>
22

>  <a_IC>
88.704498

>  <a_ICM>
1.3239477

>  <a_nB>
0

>  <a_nBr>
0

>  <a_nC>
25

>  <a_nCl>
0

>  <a_nF>
0

>  <a_nH>
36

>  <a_nI>
0

>  <a_nN>
0

>  <a_nO>
6

>  <a_nP>
0

>  <a_nS>
0

>  <balabanJ>
1.6748469

>  <BCUT_PEOE_0>
-2.9382477

>  <BCUT_PEOE_1>
-0.50508845

>  <BCUT_PEOE_2>
0.42621747

>  <BCUT_PEOE_3>
2.9839792

>  <BCUT_SLOGP_0>
-2.9090109

>  <BCUT_SLOGP_1>
-0.48467529

>  <BCUT_SLOGP_2>
0.45037436

>  <BCUT_SLOGP_3>
3.0178163

>  <BCUT_SMR_0>
-2.6916308

>  <BCUT_SMR_1>
-0.32559162

>  <BCUT_SMR_2>
0.6112898

>  <BCUT_SMR_3>
3.2237325

>  <bpol>
44.145451

>  <b_1rotN>
5

>  <b_1rotR>
0.14705883

>  <b_ar>
0

>  <b_count>
70

>  <b_double>
4

>  <b_heavy>
34

>  <b_max1len>
5

>  <b_rotN>
6

>  <b_rotR>
0.17647059

>  <b_single>
66

>  <b_triple>
0

>  <chi0>
22.604084

>  <chi0v>
18.985239

>  <chi0v_C>
16.457819

>  <chi0_C>
16.896976

>  <chi1>
14.625011

>  <chi1v>
11.906473

>  <chi1v_C>
10.311426

>  <chi1_C>
10.846703

>  <chiral>
7

>  <chiral_u>
0

>  <density>
0.72774267

>  <diameter>
14

>  <FCharge>
0

>  <GCUT_PEOE_0>
-0.80074263

>  <GCUT_PEOE_1>
-0.39871544

>  <GCUT_PEOE_2>
0.010147691

>  <GCUT_PEOE_3>
3.4228222

>  <GCUT_SLOGP_0>
-0.93857056

>  <GCUT_SLOGP_1>
-0.34338856

>  <GCUT_SLOGP_2>
-0.0082321335

>  <GCUT_SLOGP_3>
3.4637053

>  <GCUT_SMR_0>
-0.53920716

>  <GCUT_SMR_1>
-0.2333764

>  <GCUT_SMR_2>
0.13800649

>  <GCUT_SMR_3>
3.6427696

>  <Kier1>
24.134949

>  <Kier2>
8.6522636

>  <Kier3>
3.5848193

>  <KierA1>
21.469973

>  <KierA2>
7.6656008

>  <KierA3>
3.1665783

>  <KierFlex>
5.3090401

>  <lip_acc>
6

>  <lip_don>
2

>  <lip_druglike>
1

>  <lip_violation>
0

>  <logP(o/w)>
2.52

>  <logS>
-4.2698302

>  <mr>
11.60701

>  <mutagenic>
0

>  <nmol>
1

>  <opr_brigid>
20

>  <opr_leadlike>
1

>  <opr_nring>
4

>  <opr_nrot>
5

>  <opr_violation>
0

>  <PC+>
0

>  <PC->
0

>  <PEOE_PC+>
2.4919417

>  <PEOE_PC->
-2.4919417

>  <PEOE_RPC+>
0.10556925

>  <PEOE_RPC->
0.15708856

>  <PEOE_VSA+0>
145.36421

>  <PEOE_VSA+1>
21.966473

>  <PEOE_VSA+2>
14.951293

>  <PEOE_VSA+3>
16.917038

>  <PEOE_VSA+4>
20.648346

>  <PEOE_VSA+5>
14.708499

>  <PEOE_VSA+6>
0

>  <PEOE_VSA-0>
73.164093

>  <PEOE_VSA-1>
58.451572

>  <PEOE_VSA-2>
0

>  <PEOE_VSA-3>
0

>  <PEOE_VSA-4>
0

>  <PEOE_VSA-5>
40.700764

>  <PEOE_VSA-6>
18.038837

>  <PEOE_VSA_FHYD>
0.77855027

>  <PEOE_VSA_FNEG>
0.44798842

>  <PEOE_VSA_FPNEG>
0.13823973

>  <PEOE_VSA_FPOL>
0.2214497

>  <PEOE_VSA_FPOS>
0.55201155

>  <PEOE_VSA_FPPOS>
0.083209977

>  <PEOE_VSA_HYD>
330.81467

>  <PEOE_VSA_NEG>
190.35527

>  <PEOE_VSA_PNEG>
58.739597

>  <PEOE_VSA_POL>
94.096443

>  <PEOE_VSA_POS>
234.55586

>  <PEOE_VSA_PPOS>
35.356846

>  <petitjean>
0.5

>  <petitjeanSC>
1

>  <Q_PC+>
0

>  <Q_PC->
0

>  <Q_RPC+>
0

>  <Q_RPC->
0

>  <Q_VSA_FHYD>
1

>  <Q_VSA_FNEG>
0

>  <Q_VSA_FPNEG>
0

>  <Q_VSA_FPOL>
0

>  <Q_VSA_FPOS>
1

>  <Q_VSA_FPPOS>
0

>  <Q_VSA_HYD>
424.91113

>  <Q_VSA_NEG>
0

>  <Q_VSA_PNEG>
0

>  <Q_VSA_POL>
0

>  <Q_VSA_POS>
424.91113

>  <Q_VSA_PPOS>
0

>  <radius>
7

>  <reactive>
1

>  <rings>
4

>  <RPC+>
0

>  <RPC->
0

>  <rsynth>
0.19354838

>  <SlogP>
3.1326001

>  <SlogP_VSA0>
50.770454

>  <SlogP_VSA1>
19.120686

>  <SlogP_VSA2>
89.055183

>  <SlogP_VSA3>
20.926258

>  <SlogP_VSA4>
13.232388

>  <SlogP_VSA5>
3.185575

>  <SlogP_VSA6>
0

>  <SlogP_VSA7>
17.643185

>  <SlogP_VSA8>
169.81564

>  <SlogP_VSA9>
99.978043

>  <SMR>
11.39236

>  <SMR_VSA0>
82.58654

>  <SMR_VSA1>
50.770454

>  <SMR_VSA2>
13.232388

>  <SMR_VSA3>
9.6542244

>  <SMR_VSA4>
0

>  <SMR_VSA5>
187.45883

>  <SMR_VSA6>
40.046944

>  <SMR_VSA7>
99.978043

>  <TPSA>
100.9

>  <VAdjEq>
0.36875206

>  <VAdjMa>
6.0874629

>  <VDistEq>
3.3900476

>  <VDistMa>
9.6452856

>  <vdw_area>
424.91113

>  <vdw_vol>
594.38177

>  <vsa_acc>
40.700764

>  <vsa_acid>
0

>  <vsa_base>
0

>  <vsa_don>
0

>  <vsa_hyd>
285.66144

>  <vsa_other>
34.129295

>  <vsa_pol>
67.834602

>  <Weight>
432.55698

>  <weinerPath>
2357

>  <weinerPol>
67

>  <zagreb>
176

$$$$