Clc1cc(Nc2ncnc3c2cc(cc3)-c2oc(cc2)CNCCS(=O)(=O)C)ccc1OCc1cc(F)ccc1
  MOE2013           2D

 40 44  0  0  0  0  0  0  0  0999 V2000
    0.0000    0.0000    0.0000 Cl  0  0  0  0  0  0  0  0  0  0  0  0
    0.0020   -1.5000    0.0000 C   0  0  0  0  0  0  0  0  0  0  0  0
    1.3030   -2.2480    0.0000 C   0  0  0  0  0  0  0  0  0  0  0  0
    1.3050   -3.7480    0.0000 C   0  0  0  0  0  0  0  0  0  0  0  0
    2.6050   -4.4960    0.0000 N   0  0  0  0  0  0  0  0  0  0  0  0
    2.6080   -5.9960    0.0000 C   0  0  0  0  0  0  0  0  0  0  0  0
    1.3100   -6.7480    0.0000 N   0  0  0  0  0  0  0  0  0  0  0  0
    1.3130   -8.2480    0.0000 C   0  0  0  0  0  0  0  0  0  0  0  0
    2.6130   -8.9960    0.0000 N   0  0  0  0  0  0  0  0  0  0  0  0
    3.9110   -8.2440    0.0000 C   0  0  0  0  0  0  0  0  0  0  0  0
    3.9080   -6.7440    0.0000 C   0  0  0  0  0  0  0  0  0  0  0  0
    5.2060   -5.9910    0.0000 C   0  0  0  0  0  0  0  0  0  0  0  0
    6.5060   -6.7390    0.0000 C   0  0  0  0  0  0  0  0  0  0  0  0
    6.5090   -8.2390    0.0000 C   0  0  0  0  0  0  0  0  0  0  0  0
    5.2110   -8.9910    0.0000 C   0  0  0  0  0  0  0  0  0  0  0  0
    7.8040   -5.9870    0.0000 C   0  0  0  0  0  0  0  0  0  0  0  0
    9.1750   -6.5950    0.0000 O   0  0  0  0  0  0  0  0  0  0  0  0
   10.1770   -5.4790    0.0000 C   0  0  0  0  0  0  0  0  0  0  0  0
    9.4250   -4.1810    0.0000 C   0  0  0  0  0  0  0  0  0  0  0  0
    7.9580   -4.4950    0.0000 C   0  0  0  0  0  0  0  0  0  0  0  0
   11.6690   -5.6330    0.0000 C   0  0  0  0  0  0  0  0  0  0  0  0
   12.5490   -4.4180    0.0000 N   0  0  0  0  0  0  0  0  0  0  0  0
   14.0410   -4.5720    0.0000 C   0  0  0  0  0  0  0  0  0  0  0  0
   14.9210   -3.3570    0.0000 C   0  0  0  0  0  0  0  0  0  0  0  0
   16.4130   -3.5120    0.0000 S   0  0  0  0  0  0  0  0  0  0  0  0
   16.2580   -5.0040    0.0000 O   0  0  0  0  0  0  0  0  0  0  0  0
   16.5670   -2.0200    0.0000 O   0  0  0  0  0  0  0  0  0  0  0  0
   17.9050   -3.6660    0.0000 C   0  0  0  0  0  0  0  0  0  0  0  0
    0.0070   -4.5000    0.0000 C   0  0  0  0  0  0  0  0  0  0  0  0
   -1.2930   -3.7520    0.0000 C   0  0  0  0  0  0  0  0  0  0  0  0
   -1.2950   -2.2520    0.0000 C   0  0  0  0  0  0  0  0  0  0  0  0
   -2.5960   -1.5040    0.0000 O   0  0  0  0  0  0  0  0  0  0  0  0
   -3.8930   -2.2560    0.0000 C   0  0  0  0  0  0  0  0  0  0  0  0
   -5.1940   -1.5090    0.0000 C   0  0  0  0  0  0  0  0  0  0  0  0
   -6.4910   -2.2610    0.0000 C   0  0  0  0  0  0  0  0  0  0  0  0
   -7.7920   -1.5130    0.0000 C   0  0  0  0  0  0  0  0  0  0  0  0
   -9.0900   -2.2650    0.0000 F   0  0  0  0  0  0  0  0  0  0  0  0
   -7.7940   -0.0130    0.0000 C   0  0  0  0  0  0  0  0  0  0  0  0
   -6.4960    0.7390    0.0000 C   0  0  0  0  0  0  0  0  0  0  0  0
   -5.1960   -0.0090    0.0000 C   0  0  0  0  0  0  0  0  0  0  0  0
  1  2  1  0  0  0  0
  2  3  1  0  0  0  0
  2 31  2  0  0  0  0
  3  4  2  0  0  0  0
  4  5  1  0  0  0  0
  4 29  1  0  0  0  0
  5  6  1  0  0  0  0
  6  7  2  0  0  0  0
  6 11  1  0  0  0  0
  7  8  1  0  0  0  0
  8  9  2  0  0  0  0
  9 10  1  0  0  0  0
 10 11  1  0  0  0  0
 10 15  2  0  0  0  0
 11 12  2  0  0  0  0
 12 13  1  0  0  0  0
 13 14  2  0  0  0  0
 13 16  1  0  0  0  0
 14 15  1  0  0  0  0
 16 17  1  0  0  0  0
 16 20  2  0  0  0  0
 17 18  1  0  0  0  0
 18 19  2  0  0  0  0
 18 21  1  0  0  0  0
 19 20  1  0  0  0  0
 21 22  1  0  0  0  0
 22 23  1  0  0  0  0
 23 24  1  0  0  0  0
 24 25  1  0  0  0  0
 25 26  2  0  0  0  0
 25 27  2  0  0  0  0
 25 28  1  0  0  0  0
 29 30  2  0  0  0  0
 30 31  1  0  0  0  0
 31 32  1  0  0  0  0
 32 33  1  0  0  0  0
 33 34  1  0  0  0  0
 34 35  1  0  0  0  0
 34 40  2  0  0  0  0
 35 36  2  0  0  0  0
 36 37  1  0  0  0  0
 36 38  1  0  0  0  0
 38 39  2  0  0  0  0
 39 40  1  0  0  0  0
M  END
>  <Index>
593

>  <ID>
HT1171

>  <class>
0

>  <apol>
81.62162

>  <ast_fraglike>
0

>  <ast_fraglike_ext>
0

>  <ast_violation>
3

>  <ast_violation_ext>
4

>  <a_acc>
6

>  <a_acid>
0

>  <a_aro>
27

>  <a_base>
0

>  <a_count>
66

>  <a_don>
2

>  <a_donacc>
8

>  <a_heavy>
40

>  <a_hyd>
27

>  <a_IC>
119.83713

>  <a_ICM>
1.8157141

>  <a_nB>
0

>  <a_nBr>
0

>  <a_nC>
29

>  <a_nCl>
1

>  <a_nF>
1

>  <a_nH>
26

>  <a_nI>
0

>  <a_nN>
4

>  <a_nO>
4

>  <a_nP>
0

>  <a_nS>
1

>  <balabanJ>
1.0477121

>  <BCUT_PEOE_0>
-2.5953991

>  <BCUT_PEOE_1>
-0.64101744

>  <BCUT_PEOE_2>
0.66619271

>  <BCUT_PEOE_3>
2.6106169

>  <BCUT_SLOGP_0>
-2.7416465

>  <BCUT_SLOGP_1>
-0.50921619

>  <BCUT_SLOGP_2>
0.7837202

>  <BCUT_SLOGP_3>
2.4945295

>  <BCUT_SMR_0>
-2.2960382

>  <BCUT_SMR_1>
-0.42945835

>  <BCUT_SMR_2>
0.8589437

>  <BCUT_SMR_3>
2.9205186

>  <bpol>
44.314381

>  <b_1rotN>
11

>  <b_1rotR>
0.25

>  <b_ar>
28

>  <b_count>
70

>  <b_double>
0

>  <b_heavy>
44

>  <b_max1len>
7

>  <b_rotN>
11

>  <b_rotR>
0.25

>  <b_single>
42

>  <b_triple>
0

>  <chi0>
28.114309

>  <chi0v>
23.098003

>  <chi0v_C>
16.833981

>  <chi0_C>
19.371668

>  <chi1>
19.231298

>  <chi1v>
14.833691

>  <chi1v_C>
7.9152255

>  <chi1_C>
10.865306

>  <chiral>
0

>  <chiral_u>
0

>  <density>
0.80823731

>  <diameter>
23

>  <FCharge>
0

>  <GCUT_PEOE_0>
-0.91326159

>  <GCUT_PEOE_1>
-0.43567821

>  <GCUT_PEOE_2>
0.06959042

>  <GCUT_PEOE_3>
2.6357534

>  <GCUT_SLOGP_0>
-1.121906

>  <GCUT_SLOGP_1>
-0.31858721

>  <GCUT_SLOGP_2>
0.19690758

>  <GCUT_SLOGP_3>
2.7815354

>  <GCUT_SMR_0>
-0.50384897

>  <GCUT_SMR_1>
-0.20252036

>  <GCUT_SMR_2>
0.21190526

>  <GCUT_SMR_3>
2.9374011

>  <Kier1>
31.425619

>  <Kier2>
14.650364

>  <Kier3>
9.25

>  <KierA1>
25.318876

>  <KierA2>
11.734577

>  <KierA3>
7.3788404

>  <KierFlex>
7.4276576

>  <lip_acc>
8

>  <lip_don>
2

>  <lip_druglike>
0

>  <lip_violation>
2

>  <logP(o/w)>
4.842

>  <logS>
-8.9119701

>  <mr>
15.523391

>  <mutagenic>
0

>  <nmol>
1

>  <opr_brigid>
28

>  <opr_leadlike>
0

>  <opr_nring>
5

>  <opr_nrot>
11

>  <opr_violation>
4

>  <PC+>
0

>  <PC->
0

>  <PEOE_PC+>
3.6383781

>  <PEOE_PC->
-3.6383781

>  <PEOE_RPC+>
0.049580816

>  <PEOE_RPC->
0.13160171

>  <PEOE_VSA+0>
11.116631

>  <PEOE_VSA+1>
137.79071

>  <PEOE_VSA+2>
101.19572

>  <PEOE_VSA+3>
31.401114

>  <PEOE_VSA+4>
0

>  <PEOE_VSA+5>
0

>  <PEOE_VSA+6>
0

>  <PEOE_VSA-0>
124.75758

>  <PEOE_VSA-1>
54.091755

>  <PEOE_VSA-2>
0

>  <PEOE_VSA-3>
6.5127993

>  <PEOE_VSA-4>
23.410679

>  <PEOE_VSA-5>
0

>  <PEOE_VSA-6>
37.160927

>  <PEOE_VSA_FHYD>
0.88515878

>  <PEOE_VSA_FNEG>
0.46627998

>  <PEOE_VSA_FPNEG>
0.11484121

>  <PEOE_VSA_FPOL>
0.11484121

>  <PEOE_VSA_FPOS>
0.53372002

>  <PEOE_VSA_FPPOS>
0

>  <PEOE_VSA_HYD>
466.8663

>  <PEOE_VSA_NEG>
245.93373

>  <PEOE_VSA_PNEG>
60.571606

>  <PEOE_VSA_POL>
60.571606

>  <PEOE_VSA_POS>
281.50418

>  <PEOE_VSA_PPOS>
0

>  <petitjean>
0.47826087

>  <petitjeanSC>
0.91666669

>  <Q_PC+>
0

>  <Q_PC->
0

>  <Q_RPC+>
0

>  <Q_RPC->
0

>  <Q_VSA_FHYD>
1

>  <Q_VSA_FNEG>
0

>  <Q_VSA_FPNEG>
0

>  <Q_VSA_FPOL>
0

>  <Q_VSA_FPOS>
1

>  <Q_VSA_FPPOS>
0

>  <Q_VSA_HYD>
527.43793

>  <Q_VSA_NEG>
0

>  <Q_VSA_PNEG>
0

>  <Q_VSA_POL>
0

>  <Q_VSA_POS>
527.43793

>  <Q_VSA_PPOS>
0

>  <radius>
12

>  <reactive>
0

>  <rings>
5

>  <RPC+>
0

>  <RPC->
0

>  <rsynth>
1

>  <SlogP>
6.6718998

>  <SlogP_VSA0>
29.010639

>  <SlogP_VSA1>
99.753494

>  <SlogP_VSA2>
16.000286

>  <SlogP_VSA3>
35.673141

>  <SlogP_VSA4>
8.6343956

>  <SlogP_VSA5>
41.198521

>  <SlogP_VSA6>
3.5006065

>  <SlogP_VSA7>
241.85524

>  <SlogP_VSA8>
0

>  <SlogP_VSA9>
103.80269

>  <SMR>
15.45342

>  <SMR_VSA0>
57.679035

>  <SMR_VSA1>
59.531059

>  <SMR_VSA2>
27.131769

>  <SMR_VSA3>
17.378431

>  <SMR_VSA4>
36.446915

>  <SMR_VSA5>
267.86957

>  <SMR_VSA6>
35.673141

>  <SMR_VSA7>
77.719086

>  <TPSA>
106.35

>  <VAdjEq>
0.30726835

>  <VAdjMa>
6.4594316

>  <VDistEq>
4.2750225

>  <VDistMa>
10.311557

>  <vdw_area>
527.43793

>  <vdw_vol>
718.93243

>  <vsa_acc>
45.885433

>  <vsa_acid>
0

>  <vsa_base>
0

>  <vsa_don>
5.6825762

>  <vsa_hyd>
385.04291

>  <vsa_other>
61.914673

>  <vsa_pol>
57.250584

>  <Weight>
581.06799

>  <weinerPath>
6645

>  <weinerPol>
59

>  <zagreb>
212

$$$$