O=C1NC(=O)NC(=O)C1(CC)C=1CCCCCC=1
  MOE2013           2D

 18 19  0  0  0  0  0  0  0  0999 V2000
    0.0000    0.0000    0.0000 O   0  0  0  0  0  0  0  0  0  0  0  0
    0.0110    1.5000    0.0000 C   0  0  0  0  0  0  0  0  0  0  0  0
    1.3150    2.2410    0.0000 N   0  0  0  0  0  0  0  0  0  0  0  0
    1.3260    3.7400    0.0000 C   0  0  0  0  0  0  0  0  0  0  0  0
    2.6310    4.4810    0.0000 O   0  0  0  0  0  0  0  0  0  0  0  0
    0.0330    4.5000    0.0000 N   0  0  0  0  0  0  0  0  0  0  0  0
   -1.2720    3.7590    0.0000 C   0  0  0  0  0  0  0  0  0  0  0  0
   -2.5650    4.5190    0.0000 O   0  0  0  0  0  0  0  0  0  0  0  0
   -1.2830    2.2590    0.0000 C   0  0  0  0  0  0  0  0  0  0  0  0
   -2.0420    0.9660    0.0000 C   0  0  0  0  0  0  0  0  0  0  0  0
   -1.3020   -0.3390    0.0000 C   0  0  0  0  0  0  0  0  0  0  0  0
   -2.7830    2.2700    0.0000 C   0  0  0  0  0  0  0  0  0  0  0  0
   -3.4230    3.6270    0.0000 C   0  0  0  0  0  0  0  0  0  0  0  0
   -4.8840    3.9690    0.0000 C   0  0  0  0  0  0  0  0  0  0  0  0
   -6.0630    3.0420    0.0000 C   0  0  0  0  0  0  0  0  0  0  0  0
   -6.0740    1.5420    0.0000 C   0  0  0  0  0  0  0  0  0  0  0  0
   -4.9070    0.5990    0.0000 C   0  0  0  0  0  0  0  0  0  0  0  0
   -3.4430    0.9230    0.0000 C   0  0  0  0  0  0  0  0  0  0  0  0
  1  2  2  0  0  0  0
  2  3  1  0  0  0  0
  2  9  1  0  0  0  0
  3  4  1  0  0  0  0
  4  5  2  0  0  0  0
  4  6  1  0  0  0  0
  6  7  1  0  0  0  0
  7  8  2  0  0  0  0
  7  9  1  0  0  0  0
  9 10  1  0  0  0  0
  9 12  1  0  0  0  0
 10 11  1  0  0  0  0
 12 13  1  0  0  0  0
 12 18  2  0  0  0  0
 13 14  1  0  0  0  0
 14 15  1  0  0  0  0
 15 16  1  0  0  0  0
 16 17  1  0  0  0  0
 17 18  1  0  0  0  0
M  END
>  <Index>
515

>  <ID>
HT1024

>  <class>
0

>  <apol>
39.488274

>  <ast_fraglike>
1

>  <ast_fraglike_ext>
0

>  <ast_violation>
0

>  <ast_violation_ext>
1

>  <a_acc>
3

>  <a_acid>
0

>  <a_aro>
0

>  <a_base>
0

>  <a_count>
36

>  <a_don>
2

>  <a_donacc>
5

>  <a_heavy>
18

>  <a_hyd>
10

>  <a_IC>
56.198048

>  <a_ICM>
1.5610569

>  <a_nB>
0

>  <a_nBr>
0

>  <a_nC>
13

>  <a_nCl>
0

>  <a_nF>
0

>  <a_nH>
18

>  <a_nI>
0

>  <a_nN>
2

>  <a_nO>
3

>  <a_nP>
0

>  <a_nS>
0

>  <balabanJ>
2.2177048

>  <BCUT_PEOE_0>
-2.6319659

>  <BCUT_PEOE_1>
-0.49804527

>  <BCUT_PEOE_2>
0.45767412

>  <BCUT_PEOE_3>
2.7129529

>  <BCUT_SLOGP_0>
-2.7759149

>  <BCUT_SLOGP_1>
-0.40395212

>  <BCUT_SLOGP_2>
0.47956693

>  <BCUT_SLOGP_3>
2.8030992

>  <BCUT_SMR_0>
-2.3876026

>  <BCUT_SMR_1>
-0.29524422

>  <BCUT_SMR_2>
0.58631676

>  <BCUT_SMR_3>
2.9613075

>  <bpol>
23.871725

>  <b_1rotN>
2

>  <b_1rotR>
0.10526316

>  <b_ar>
0

>  <b_count>
37

>  <b_double>
4

>  <b_heavy>
19

>  <b_max1len>
4

>  <b_rotN>
2

>  <b_rotR>
0.10526316

>  <b_single>
33

>  <b_triple>
0

>  <chi0>
13.173362

>  <chi0v>
10.544736

>  <chi0v_C>
8.3199911

>  <chi0_C>
8.7591486

>  <chi1>
8.6082258

>  <chi1v>
6.4735093

>  <chi1v_C>
4.8611369

>  <chi1_C>
5.2431822

>  <chiral>
0

>  <chiral_u>
0

>  <density>
0.74963707

>  <diameter>
8

>  <FCharge>
0

>  <GCUT_PEOE_0>
-0.79497945

>  <GCUT_PEOE_1>
-0.45350236

>  <GCUT_PEOE_2>
0.093149327

>  <GCUT_PEOE_3>
2.7492464

>  <GCUT_SLOGP_0>
-1.1838411

>  <GCUT_SLOGP_1>
-0.32641834

>  <GCUT_SLOGP_2>
0.076815709

>  <GCUT_SLOGP_3>
2.7926817

>  <GCUT_SMR_0>
-0.53039384

>  <GCUT_SMR_1>
-0.22484119

>  <GCUT_SMR_2>
0.15443739

>  <GCUT_SMR_3>
2.9855886

>  <Kier1>
14.409972

>  <Kier2>
5.9698215

>  <Kier3>
2.6592798

>  <KierA1>
10.980956

>  <KierA2>
4.470336

>  <KierA3>
1.9656336

>  <KierFlex>
2.7271423

>  <lip_acc>
5

>  <lip_don>
2

>  <lip_druglike>
1

>  <lip_violation>
0

>  <logP(o/w)>
1.642

>  <logS>
-3.6019101

>  <mr>
6.7421379

>  <mutagenic>
0

>  <nmol>
1

>  <opr_brigid>
13

>  <opr_leadlike>
1

>  <opr_nring>
2

>  <opr_nrot>
4

>  <opr_violation>
0

>  <PC+>
0

>  <PC->
0

>  <PEOE_PC+>
1.785804

>  <PEOE_PC->
-1.785804

>  <PEOE_RPC+>
0.1842424

>  <PEOE_RPC->
0.15537699

>  <PEOE_VSA+0>
63.980789

>  <PEOE_VSA+1>
4.2653861

>  <PEOE_VSA+2>
0

>  <PEOE_VSA+3>
17.238026

>  <PEOE_VSA+4>
25.899061

>  <PEOE_VSA+5>
0

>  <PEOE_VSA+6>
17.440542

>  <PEOE_VSA-0>
45.715107

>  <PEOE_VSA-1>
39.703896

>  <PEOE_VSA-2>
0

>  <PEOE_VSA-3>
0

>  <PEOE_VSA-4>
13.566921

>  <PEOE_VSA-5>
27.407623

>  <PEOE_VSA-6>
0

>  <PEOE_VSA_FHYD>
0.66963786

>  <PEOE_VSA_FNEG>
0.49523884

>  <PEOE_VSA_FPNEG>
0.16054764

>  <PEOE_VSA_FPOL>
0.33036214

>  <PEOE_VSA_FPOS>
0.50476116

>  <PEOE_VSA_FPPOS>
0.1698145

>  <PEOE_VSA_HYD>
170.9032

>  <PEOE_VSA_NEG>
126.39355

>  <PEOE_VSA_PNEG>
40.974545

>  <PEOE_VSA_POL>
84.314148

>  <PEOE_VSA_POS>
128.82381

>  <PEOE_VSA_PPOS>
43.339603

>  <petitjean>
0.5

>  <petitjeanSC>
1

>  <Q_PC+>
0

>  <Q_PC->
0

>  <Q_RPC+>
0

>  <Q_RPC->
0

>  <Q_VSA_FHYD>
1

>  <Q_VSA_FNEG>
0

>  <Q_VSA_FPNEG>
0

>  <Q_VSA_FPOL>
0

>  <Q_VSA_FPOS>
1

>  <Q_VSA_FPPOS>
0

>  <Q_VSA_HYD>
255.21735

>  <Q_VSA_NEG>
0

>  <Q_VSA_PNEG>
0

>  <Q_VSA_POL>
0

>  <Q_VSA_POS>
255.21735

>  <Q_VSA_PPOS>
0

>  <radius>
4

>  <reactive>
0

>  <rings>
2

>  <RPC+>
0

>  <RPC->
0

>  <rsynth>
0.33333334

>  <SlogP>
1.6393

>  <SlogP_VSA0>
36.0215

>  <SlogP_VSA1>
15.347524

>  <SlogP_VSA2>
47.724434

>  <SlogP_VSA3>
0

>  <SlogP_VSA4>
0

>  <SlogP_VSA5>
3.185575

>  <SlogP_VSA6>
0

>  <SlogP_VSA7>
17.643185

>  <SlogP_VSA8>
113.21043

>  <SlogP_VSA9>
57.188232

>  <SMR>
6.5573401

>  <SMR_VSA0>
71.586647

>  <SMR_VSA1>
0

>  <SMR_VSA2>
36.0215

>  <SMR_VSA3>
3.185575

>  <SMR_VSA4>
0

>  <SMR_VSA5>
130.85362

>  <SMR_VSA6>
15.347524

>  <SMR_VSA7>
33.326015

>  <TPSA>
75.269997

>  <VAdjEq>
0.52150291

>  <VAdjMa>
5.2479277

>  <VDistEq>
2.7040138

>  <VDistMa>
8.088376

>  <vdw_area>
255.21735

>  <vdw_vol>
333.89224

>  <vsa_acc>
40.700764

>  <vsa_acid>
0

>  <vsa_base>
0

>  <vsa_don>
11.365152

>  <vsa_hyd>
142.27646

>  <vsa_other>
43.339603

>  <vsa_pol>
52.065914

>  <Weight>
250.29799

>  <weinerPath>
537

>  <weinerPol>
35

>  <zagreb>
92

$$$$