OC(=O)C(N)CCCNC(=O)N
  MOE2013           2D

 12 11  0  0  1  0  0  0  0  0999 V2000
    0.0000    0.0000    0.0000 O   0  0  0  0  0  0  0  0  0  0  0  0
    1.3040   -0.7420    0.0000 C   0  0  0  0  0  0  0  0  0  0  0  0
    1.3130   -2.2420    0.0000 O   0  0  0  0  0  0  0  0  0  0  0  0
    2.5980    0.0160    0.0000 C   0  0  3  0  0  0  0  0  0  0  0  0
    2.5890    1.5160    0.0000 N   0  0  0  0  0  0  0  0  0  0  0  0
    3.9020   -0.7260    0.0000 C   0  0  0  0  0  0  0  0  0  0  0  0
    5.1960    0.0320    0.0000 C   0  0  0  0  0  0  0  0  0  0  0  0
    6.5000   -0.7100    0.0000 C   0  0  0  0  0  0  0  0  0  0  0  0
    7.7940    0.0480    0.0000 N   0  0  0  0  0  0  0  0  0  0  0  0
    9.0980   -0.6940    0.0000 C   0  0  0  0  0  0  0  0  0  0  0  0
   10.3920    0.0640    0.0000 O   0  0  0  0  0  0  0  0  0  0  0  0
    9.1070   -2.1940    0.0000 N   0  0  0  0  0  0  0  0  0  0  0  0
  1  2  1  0  0  0  0
  2  3  2  0  0  0  0
  2  4  1  0  0  0  0
  4  5  1  0  0  0  0
  4  6  1  0  0  0  0
  6  7  1  0  0  0  0
  7  8  1  0  0  0  0
  8  9  1  0  0  0  0
  9 10  1  0  0  0  0
 10 11  2  0  0  0  0
 10 12  1  0  0  0  0
M  END
>  <Index>
597

>  <ID>
HT1179

>  <class>
0

>  <apol>
24.934309

>  <ast_fraglike>
0

>  <ast_fraglike_ext>
0

>  <ast_violation>
2

>  <ast_violation_ext>
4

>  <a_acc>
4

>  <a_acid>
0

>  <a_aro>
0

>  <a_base>
0

>  <a_count>
25

>  <a_don>
5

>  <a_donacc>
9

>  <a_heavy>
12

>  <a_hyd>
4

>  <a_IC>
42.971138

>  <a_ICM>
1.7188455

>  <a_nB>
0

>  <a_nBr>
0

>  <a_nC>
6

>  <a_nCl>
0

>  <a_nF>
0

>  <a_nH>
13

>  <a_nI>
0

>  <a_nN>
3

>  <a_nO>
3

>  <a_nP>
0

>  <a_nS>
0

>  <balabanJ>
3.2079518

>  <BCUT_PEOE_0>
-2.6149728

>  <BCUT_PEOE_1>
-0.48653522

>  <BCUT_PEOE_2>
0.45252624

>  <BCUT_PEOE_3>
2.6035845

>  <BCUT_SLOGP_0>
-2.7718494

>  <BCUT_SLOGP_1>
-0.41586778

>  <BCUT_SLOGP_2>
0.64804858

>  <BCUT_SLOGP_3>
2.5886643

>  <BCUT_SMR_0>
-2.368937

>  <BCUT_SMR_1>
-0.286989

>  <BCUT_SMR_2>
0.56092495

>  <BCUT_SMR_3>
2.842505

>  <bpol>
15.467691

>  <b_1rotN>
5

>  <b_1rotR>
0.45454547

>  <b_ar>
0

>  <b_count>
24

>  <b_double>
2

>  <b_heavy>
11

>  <b_max1len>
7

>  <b_rotN>
6

>  <b_rotR>
0.54545456

>  <b_single>
22

>  <b_triple>
0

>  <chi0>
9.5604782

>  <chi0v>
6.6170812

>  <chi0v_C>
3.6986706

>  <chi0_C>
3.8533711

>  <chi1>
5.536581

>  <chi1v>
3.5543404

>  <chi1v_C>
1.6969234

>  <chi1_C>
1.7415817

>  <chiral>
1

>  <chiral_u>
1

>  <density>
0.80738932

>  <diameter>
8

>  <FCharge>
0

>  <GCUT_PEOE_0>
-0.827317

>  <GCUT_PEOE_1>
-0.43201423

>  <GCUT_PEOE_2>
0.10302709

>  <GCUT_PEOE_3>
2.2706985

>  <GCUT_SLOGP_0>
-1.3709339

>  <GCUT_SLOGP_1>
-0.39250562

>  <GCUT_SLOGP_2>
0.208756

>  <GCUT_SLOGP_3>
2.216645

>  <GCUT_SMR_0>
-0.52220649

>  <GCUT_SMR_1>
-0.21789318

>  <GCUT_SMR_2>
0.16189732

>  <GCUT_SMR_3>
2.4899569

>  <Kier1>
12

>  <Kier2>
6.5088758

>  <Kier3>
7.4380164

>  <KierA1>
9.2505112

>  <KierA2>
4.8861599

>  <KierA3>
5.4677176

>  <KierFlex>
3.766623

>  <lip_acc>
6

>  <lip_don>
6

>  <lip_druglike>
1

>  <lip_violation>
1

>  <logP(o/w)>
-3.9737301

>  <logS>
0.19893999

>  <mr>
4.2201209

>  <mutagenic>
0

>  <nmol>
1

>  <opr_brigid>
0

>  <opr_leadlike>
1

>  <opr_nring>
0

>  <opr_nrot>
5

>  <opr_violation>
1

>  <PC+>
0

>  <PC->
0

>  <PEOE_PC+>
1.911422

>  <PEOE_PC->
-1.911422

>  <PEOE_RPC+>
0.16407898

>  <PEOE_RPC->
0.18417111

>  <PEOE_VSA+0>
38.784641

>  <PEOE_VSA+1>
7.4113464

>  <PEOE_VSA+2>
17.238026

>  <PEOE_VSA+3>
25.857038

>  <PEOE_VSA+4>
10.324173

>  <PEOE_VSA+5>
14.708499

>  <PEOE_VSA+6>
17.440542

>  <PEOE_VSA-0>
17.402626

>  <PEOE_VSA-1>
0

>  <PEOE_VSA-2>
0

>  <PEOE_VSA-3>
0

>  <PEOE_VSA-4>
13.566921

>  <PEOE_VSA-5>
13.566921

>  <PEOE_VSA-6>
21.206671

>  <PEOE_VSA_FHYD>
0.54020089

>  <PEOE_VSA_FNEG>
0.33286417

>  <PEOE_VSA_FPNEG>
0.24475291

>  <PEOE_VSA_FPOL>
0.45979908

>  <PEOE_VSA_FPOS>
0.66713583

>  <PEOE_VSA_FPPOS>
0.21504618

>  <PEOE_VSA_HYD>
106.69368

>  <PEOE_VSA_NEG>
65.743141

>  <PEOE_VSA_PNEG>
48.340511

>  <PEOE_VSA_POL>
90.813728

>  <PEOE_VSA_POS>
131.76427

>  <PEOE_VSA_PPOS>
42.473213

>  <petitjean>
0.5

>  <petitjeanSC>
1

>  <Q_PC+>
0

>  <Q_PC->
0

>  <Q_RPC+>
0

>  <Q_RPC->
0

>  <Q_VSA_FHYD>
1

>  <Q_VSA_FNEG>
0

>  <Q_VSA_FPNEG>
0

>  <Q_VSA_FPOL>
0

>  <Q_VSA_FPOS>
1

>  <Q_VSA_FPPOS>
0

>  <Q_VSA_HYD>
197.5074

>  <Q_VSA_NEG>
0

>  <Q_VSA_PNEG>
0

>  <Q_VSA_POL>
0

>  <Q_VSA_POS>
197.5074

>  <Q_VSA_PPOS>
0

>  <radius>
4

>  <reactive>
0

>  <rings>
0

>  <RPC+>
0

>  <RPC->
0

>  <rsynth>
1

>  <SlogP>
-1.1532

>  <SlogP_VSA0>
83.805122

>  <SlogP_VSA1>
12.57542

>  <SlogP_VSA2>
27.844185

>  <SlogP_VSA3>
43.824806

>  <SlogP_VSA4>
0

>  <SlogP_VSA5>
0

>  <SlogP_VSA6>
0

>  <SlogP_VSA7>
0

>  <SlogP_VSA8>
37.736813

>  <SlogP_VSA9>
23.862217

>  <SMR>
4.2431302

>  <SMR_VSA0>
47.724434

>  <SMR_VSA1>
0

>  <SMR_VSA2>
43.395977

>  <SMR_VSA3>
3.9819686

>  <SMR_VSA4>
65.794373

>  <SMR_VSA5>
37.736813

>  <SMR_VSA6>
31.014997

>  <SMR_VSA7>
0

>  <TPSA>
118.44

>  <VAdjEq>
0.61674827

>  <VAdjMa>
4.4594316

>  <VDistEq>
2.9097843

>  <VDistMa>
6.800437

>  <vdw_area>
197.5074

>  <vdw_vol>
216.98082

>  <vsa_acc>
13.566921

>  <vsa_acid>
0

>  <vsa_base>
0

>  <vsa_don>
23.425066

>  <vsa_hyd>
58.616047

>  <vsa_other>
32.14904

>  <vsa_pol>
81.868317

>  <Weight>
175.188

>  <weinerPath>
247

>  <weinerPol>
11

>  <zagreb>
48

$$$$