O=C(NO)N
  MOE2013           2D

  5  4  0  0  0  0  0  0  0  0999 V2000
    0.0000    0.0000    0.0000 O   0  0  0  0  0  0  0  0  0  0  0  0
   -1.2990    0.7500    0.0000 C   0  0  0  0  0  0  0  0  0  0  0  0
   -2.5980    0.0000    0.0000 N   0  0  0  0  0  0  0  0  0  0  0  0
   -3.8970    0.7500    0.0000 O   0  0  0  0  0  0  0  0  0  0  0  0
   -1.2990    2.2500    0.0000 N   0  0  0  0  0  0  0  0  0  0  0  0
  1  2  2  0  0  0  0
  2  3  1  0  0  0  0
  2  5  1  0  0  0  0
  3  4  1  0  0  0  0
M  END
>  <Index>
540

>  <ID>
HT1063

>  <class>
0

>  <apol>
8.2311716

>  <ast_fraglike>
1

>  <ast_fraglike_ext>
1

>  <ast_violation>
0

>  <ast_violation_ext>
0

>  <a_acc>
2

>  <a_acid>
0

>  <a_aro>
0

>  <a_base>
0

>  <a_count>
9

>  <a_don>
3

>  <a_donacc>
5

>  <a_heavy>
5

>  <a_hyd>
0

>  <a_IC>
16.529325

>  <a_ICM>
1.8365917

>  <a_nB>
0

>  <a_nBr>
0

>  <a_nC>
1

>  <a_nCl>
0

>  <a_nF>
0

>  <a_nH>
4

>  <a_nI>
0

>  <a_nN>
2

>  <a_nO>
2

>  <a_nP>
0

>  <a_nS>
0

>  <balabanJ>
2.6693285

>  <BCUT_PEOE_0>
-2.1643813

>  <BCUT_PEOE_1>
-0.54191089

>  <BCUT_PEOE_2>
0.60059547

>  <BCUT_PEOE_3>
2.0842886

>  <BCUT_SLOGP_0>
-2.5917985

>  <BCUT_SLOGP_1>
-0.45178732

>  <BCUT_SLOGP_2>
0.69749159

>  <BCUT_SLOGP_3>
1.741908

>  <BCUT_SMR_0>
-1.8590882

>  <BCUT_SMR_1>
-0.39963815

>  <BCUT_SMR_2>
0.66775149

>  <BCUT_SMR_3>
2.3666582

>  <bpol>
4.010828

>  <b_1rotN>
0

>  <b_1rotR>
0

>  <b_ar>
0

>  <b_count>
8

>  <b_double>
1

>  <b_heavy>
4

>  <b_max1len>
3

>  <b_rotN>
1

>  <b_rotR>
0.25

>  <b_single>
7

>  <b_triple>
0

>  <chi0>
4.2844572

>  <chi0v>
2.4328122

>  <chi0v_C>
0.5

>  <chi0_C>
0.57735026

>  <chi1>
2.2700555

>  <chi1v>
0.96640611

>  <chi1v_C>
0

>  <chi1_C>
0

>  <chiral>
0

>  <chiral_u>
0

>  <density>
0.97688437

>  <diameter>
3

>  <FCharge>
0

>  <GCUT_PEOE_0>
-0.81157011

>  <GCUT_PEOE_1>
-0.43210179

>  <GCUT_PEOE_2>
0.18463774

>  <GCUT_PEOE_3>
1.4810158

>  <GCUT_SLOGP_0>
-1.3708168

>  <GCUT_SLOGP_1>
-0.4350383

>  <GCUT_SLOGP_2>
0.28063175

>  <GCUT_SLOGP_3>
1.2969987

>  <GCUT_SMR_0>
-0.48323238

>  <GCUT_SMR_1>
-0.23954074

>  <GCUT_SMR_2>
0.20527792

>  <GCUT_SMR_3>
1.7125956

>  <Kier1>
5

>  <Kier2>
2.25

>  <Kier3>
4

>  <KierA1>
3.076416

>  <KierA2>
1.169616

>  <KierA3>
1.553664

>  <KierFlex>
0.71964508

>  <lip_acc>
4

>  <lip_don>
4

>  <lip_druglike>
1

>  <lip_violation>
0

>  <logP(o/w)>
-1.47

>  <logS>
0.38029999

>  <mr>
1.4876536

>  <mutagenic>
1

>  <nmol>
1

>  <opr_brigid>
0

>  <opr_leadlike>
1

>  <opr_nring>
0

>  <opr_nrot>
0

>  <opr_violation>
0

>  <PC+>
0

>  <PC->
0

>  <PEOE_PC+>
1.1006767

>  <PEOE_PC->
-1.1006767

>  <PEOE_RPC+>
0.30618465

>  <PEOE_RPC->
0.31831589

>  <PEOE_VSA+0>
0

>  <PEOE_VSA+1>
0

>  <PEOE_VSA+2>
0

>  <PEOE_VSA+3>
25.857038

>  <PEOE_VSA+4>
10.324173

>  <PEOE_VSA+5>
0

>  <PEOE_VSA+6>
17.440542

>  <PEOE_VSA-0>
0

>  <PEOE_VSA-1>
0

>  <PEOE_VSA-2>
0

>  <PEOE_VSA-3>
0

>  <PEOE_VSA-4>
18.906498

>  <PEOE_VSA-5>
11.166143

>  <PEOE_VSA-6>
6.6511192

>  <PEOE_VSA_FHYD>
0.28620169

>  <PEOE_VSA_FNEG>
0.40648127

>  <PEOE_VSA_FPNEG>
0.40648127

>  <PEOE_VSA_FPOL>
0.71379828

>  <PEOE_VSA_FPOS>
0.59351873

>  <PEOE_VSA_FPPOS>
0.30731702

>  <PEOE_VSA_HYD>
25.857038

>  <PEOE_VSA_NEG>
36.723759

>  <PEOE_VSA_PNEG>
36.723759

>  <PEOE_VSA_POL>
64.488472

>  <PEOE_VSA_POS>
53.621754

>  <PEOE_VSA_PPOS>
27.764715

>  <petitjean>
0.33333334

>  <petitjeanSC>
0.5

>  <Q_PC+>
0

>  <Q_PC->
0

>  <Q_RPC+>
0

>  <Q_RPC->
0

>  <Q_VSA_FHYD>
1

>  <Q_VSA_FNEG>
0

>  <Q_VSA_FPNEG>
0

>  <Q_VSA_FPOL>
0

>  <Q_VSA_FPOS>
1

>  <Q_VSA_FPPOS>
0

>  <Q_VSA_HYD>
90.345512

>  <Q_VSA_NEG>
0

>  <Q_VSA_PNEG>
0

>  <Q_VSA_POL>
0

>  <Q_VSA_POS>
90.345512

>  <Q_VSA_PPOS>
0

>  <radius>
2

>  <reactive>
0

>  <rings>
0

>  <RPC+>
0

>  <RPC->
0

>  <rsynth>
1

>  <SlogP>
-0.95609999

>  <SlogP_VSA0>
53.52227

>  <SlogP_VSA1>
4.8299561

>  <SlogP_VSA2>
25.604103

>  <SlogP_VSA3>
0

>  <SlogP_VSA4>
0

>  <SlogP_VSA5>
0

>  <SlogP_VSA6>
0

>  <SlogP_VSA7>
0

>  <SlogP_VSA8>
0

>  <SlogP_VSA9>
23.862217

>  <SMR>
1.53479

>  <SMR_VSA0>
23.862217

>  <SMR_VSA1>
0

>  <SMR_VSA2>
46.229187

>  <SMR_VSA3>
0

>  <SMR_VSA4>
32.897186

>  <SMR_VSA5>
0

>  <SMR_VSA6>
4.8299561

>  <SMR_VSA7>
0

>  <TPSA>
75.349998

>  <VAdjEq>
0.90438145

>  <VAdjMa>
3

>  <VDistEq>
1.5219281

>  <VDistMa>
4.1971598

>  <vdw_area>
90.345512

>  <vdw_vol>
77.85466

>  <vsa_acc>
13.566921

>  <vsa_acid>
0

>  <vsa_base>
0

>  <vsa_don>
28.627752

>  <vsa_hyd>
0

>  <vsa_other>
17.440542

>  <vsa_pol>
59.160194

>  <Weight>
76.055

>  <weinerPath>
18

>  <weinerPol>
2

>  <zagreb>
16

$$$$