O1C(CN)C(O)C(O)C(O)C1OC1C(O)C(OC2OC(CO)C(O)C(N)C2O)C(N)CC1N
  MOE2013           2D

 33 35  0  0  1  0  0  0  0  0999 V2000
    0.0000    0.0000    0.0000 O   0  0  0  0  0  0  0  0  0  0  0  0
    1.2990    0.7500    0.0000 C   0  0  3  0  0  0  0  0  0  0  0  0
    1.2990    2.2500    0.0000 C   0  0  0  0  0  0  0  0  0  0  0  0
    2.5980    3.0000    0.0000 N   0  0  0  0  0  0  0  0  0  0  0  0
    2.5980    0.0000    0.0000 C   0  0  3  0  0  0  0  0  0  0  0  0
    3.8970    0.7500    0.0000 O   0  0  0  0  0  0  0  0  0  0  0  0
    2.5980   -1.5000    0.0000 C   0  0  3  0  0  0  0  0  0  0  0  0
    3.8970   -2.2500    0.0000 O   0  0  0  0  0  0  0  0  0  0  0  0
    1.2990   -2.2500    0.0000 C   0  0  3  0  0  0  0  0  0  0  0  0
    1.2990   -3.7500    0.0000 O   0  0  0  0  0  0  0  0  0  0  0  0
    0.0000   -1.5000    0.0000 C   0  0  3  0  0  0  0  0  0  0  0  0
   -1.2990   -2.2500    0.0000 O   0  0  0  0  0  0  0  0  0  0  0  0
   -2.5980   -1.5000    0.0000 C   0  0  3  0  0  0  0  0  0  0  0  0
   -3.8970   -2.2500    0.0000 C   0  0  3  0  0  0  0  0  0  0  0  0
   -3.8970   -3.7500    0.0000 O   0  0  0  0  0  0  0  0  0  0  0  0
   -5.1960   -1.5000    0.0000 C   0  0  3  0  0  0  0  0  0  0  0  0
   -6.4950   -2.2500    0.0000 O   0  0  0  0  0  0  0  0  0  0  0  0
   -7.7940   -1.5000    0.0000 C   0  0  3  0  0  0  0  0  0  0  0  0
   -7.7940    0.0000    0.0000 O   0  0  0  0  0  0  0  0  0  0  0  0
   -9.0930    0.7500    0.0000 C   0  0  3  0  0  0  0  0  0  0  0  0
   -9.0930    2.2500    0.0000 C   0  0  0  0  0  0  0  0  0  0  0  0
  -10.3920    3.0000    0.0000 O   0  0  0  0  0  0  0  0  0  0  0  0
  -10.3920    0.0000    0.0000 C   0  0  3  0  0  0  0  0  0  0  0  0
  -11.6910    0.7500    0.0000 O   0  0  0  0  0  0  0  0  0  0  0  0
  -10.3920   -1.5000    0.0000 C   0  0  3  0  0  0  0  0  0  0  0  0
  -11.6910   -2.2500    0.0000 N   0  0  0  0  0  0  0  0  0  0  0  0
   -9.0930   -2.2500    0.0000 C   0  0  3  0  0  0  0  0  0  0  0  0
   -9.0930   -3.7500    0.0000 O   0  0  0  0  0  0  0  0  0  0  0  0
   -5.1960    0.0000    0.0000 C   0  0  3  0  0  0  0  0  0  0  0  0
   -6.4950    0.7500    0.0000 N   0  0  0  0  0  0  0  0  0  0  0  0
   -3.8970    0.7500    0.0000 C   0  0  0  0  0  0  0  0  0  0  0  0
   -2.5980    0.0000    0.0000 C   0  0  3  0  0  0  0  0  0  0  0  0
   -1.2990    0.7500    0.0000 N   0  0  0  0  0  0  0  0  0  0  0  0
  1  2  1  0  0  0  0
  1 11  1  0  0  0  0
  2  3  1  0  0  0  0
  2  5  1  0  0  0  0
  3  4  1  0  0  0  0
  5  6  1  0  0  0  0
  5  7  1  0  0  0  0
  7  8  1  0  0  0  0
  7  9  1  0  0  0  0
  9 10  1  0  0  0  0
  9 11  1  0  0  0  0
 11 12  1  0  0  0  0
 12 13  1  0  0  0  0
 13 14  1  0  0  0  0
 13 32  1  0  0  0  0
 14 15  1  0  0  0  0
 14 16  1  0  0  0  0
 16 17  1  0  0  0  0
 16 29  1  0  0  0  0
 17 18  1  0  0  0  0
 18 19  1  0  0  0  0
 18 27  1  0  0  0  0
 19 20  1  0  0  0  0
 20 21  1  0  0  0  0
 20 23  1  0  0  0  0
 21 22  1  0  0  0  0
 23 24  1  0  0  0  0
 23 25  1  0  0  0  0
 25 26  1  0  0  0  0
 25 27  1  0  0  0  0
 27 28  1  0  0  0  0
 29 30  1  0  0  0  0
 29 31  1  0  0  0  0
 31 32  1  0  0  0  0
 32 33  1  0  0  0  0
M  END
>  <Index>
585

>  <ID>
HT1154

>  <class>
0

>  <apol>
68.906548

>  <ast_fraglike>
0

>  <ast_fraglike_ext>
0

>  <ast_violation>
3

>  <ast_violation_ext>
5

>  <a_acc>
15

>  <a_acid>
0

>  <a_aro>
0

>  <a_base>
0

>  <a_count>
69

>  <a_don>
11

>  <a_donacc>
26

>  <a_heavy>
33

>  <a_hyd>
16

>  <a_IC>
114.25849

>  <a_ICM>
1.6559201

>  <a_nB>
0

>  <a_nBr>
0

>  <a_nC>
18

>  <a_nCl>
0

>  <a_nF>
0

>  <a_nH>
36

>  <a_nI>
0

>  <a_nN>
4

>  <a_nO>
11

>  <a_nP>
0

>  <a_nS>
0

>  <balabanJ>
1.7220645

>  <BCUT_PEOE_0>
-2.8164589

>  <BCUT_PEOE_1>
-0.583884

>  <BCUT_PEOE_2>
0.66986543

>  <BCUT_PEOE_3>
2.8473139

>  <BCUT_SLOGP_0>
-3.0204022

>  <BCUT_SLOGP_1>
-0.65504062

>  <BCUT_SLOGP_2>
0.56814784

>  <BCUT_SLOGP_3>
2.6765721

>  <BCUT_SMR_0>
-2.5938046

>  <BCUT_SMR_1>
-0.47891524

>  <BCUT_SMR_2>
0.7605139

>  <BCUT_SMR_3>
3.05601

>  <bpol>
44.379452

>  <b_1rotN>
6

>  <b_1rotR>
0.17142858

>  <b_ar>
0

>  <b_count>
71

>  <b_double>
0

>  <b_heavy>
35

>  <b_max1len>
4

>  <b_rotN>
6

>  <b_rotR>
0.17142858

>  <b_single>
71

>  <b_triple>
0

>  <chi0>
24.610001

>  <chi0v>
17.854464

>  <chi0v_C>
10.781574

>  <chi0_C>
10.781574

>  <chi1>
15.509345

>  <chi1v>
10.79228

>  <chi1v_C>
5.6329932

>  <chi1_C>
5.6329932

>  <chiral>
15

>  <chiral_u>
15

>  <density>
0.8456738

>  <diameter>
14

>  <FCharge>
0

>  <GCUT_PEOE_0>
-0.83202201

>  <GCUT_PEOE_1>
-0.42294931

>  <GCUT_PEOE_2>
0.10107008

>  <GCUT_PEOE_3>
3.0946326

>  <GCUT_SLOGP_0>
-1.3699001

>  <GCUT_SLOGP_1>
-0.51343179

>  <GCUT_SLOGP_2>
0.054200001

>  <GCUT_SLOGP_3>
2.9581342

>  <GCUT_SMR_0>
-0.52578557

>  <GCUT_SMR_1>
-0.25342023

>  <GCUT_SMR_2>
0.17036679

>  <GCUT_SMR_3>
3.2896721

>  <Kier1>
27.585306

>  <Kier2>
11.372781

>  <Kier3>
5.5555553

>  <KierA1>
27.585306

>  <KierA2>
11.372781

>  <KierA3>
5.5555553

>  <KierFlex>
9.5067167

>  <lip_acc>
15

>  <lip_don>
15

>  <lip_druglike>
0

>  <lip_violation>
2

>  <logP(o/w)>
-7.2049999

>  <logS>
2.08149

>  <mr>
10.716331

>  <mutagenic>
0

>  <nmol>
1

>  <opr_brigid>
18

>  <opr_leadlike>
0

>  <opr_nring>
3

>  <opr_nrot>
12

>  <opr_violation>
5

>  <PC+>
0

>  <PC->
0

>  <PEOE_PC+>
5.3912807

>  <PEOE_PC->
-5.3912807

>  <PEOE_RPC+>
0.038972273

>  <PEOE_RPC->
0.072778009

>  <PEOE_VSA+0>
45.076561

>  <PEOE_VSA+1>
82.078041

>  <PEOE_VSA+2>
118.00139

>  <PEOE_VSA+3>
22.309816

>  <PEOE_VSA+4>
72.269211

>  <PEOE_VSA+5>
0

>  <PEOE_VSA+6>
0

>  <PEOE_VSA-0>
8.701313

>  <PEOE_VSA-1>
0

>  <PEOE_VSA-2>
0

>  <PEOE_VSA-3>
0

>  <PEOE_VSA-4>
0

>  <PEOE_VSA-5>
0

>  <PEOE_VSA-6>
90.992287

>  <PEOE_VSA_FHYD>
0.62846869

>  <PEOE_VSA_FNEG>
0.22687097

>  <PEOE_VSA_FPNEG>
0.20706955

>  <PEOE_VSA_FPOL>
0.37153131

>  <PEOE_VSA_FPOS>
0.77312905

>  <PEOE_VSA_FPPOS>
0.16446178

>  <PEOE_VSA_HYD>
276.16711

>  <PEOE_VSA_NEG>
99.693596

>  <PEOE_VSA_PNEG>
90.992287

>  <PEOE_VSA_POL>
163.26149

>  <PEOE_VSA_POS>
339.73502

>  <PEOE_VSA_PPOS>
72.269211

>  <petitjean>
0.5

>  <petitjeanSC>
1

>  <Q_PC+>
0

>  <Q_PC->
0

>  <Q_RPC+>
0

>  <Q_RPC->
0

>  <Q_VSA_FHYD>
1

>  <Q_VSA_FNEG>
0

>  <Q_VSA_FPNEG>
0

>  <Q_VSA_FPOL>
0

>  <Q_VSA_FPOS>
1

>  <Q_VSA_FPPOS>
0

>  <Q_VSA_HYD>
439.42862

>  <Q_VSA_NEG>
0

>  <Q_VSA_PNEG>
0

>  <Q_VSA_POL>
0

>  <Q_VSA_POS>
439.42862

>  <Q_VSA_PPOS>
0

>  <radius>
7

>  <reactive>
1

>  <rings>
3

>  <RPC+>
0

>  <RPC->
0

>  <rsynth>
1

>  <SlogP>
-7.2914

>  <SlogP_VSA0>
309.28534

>  <SlogP_VSA1>
0

>  <SlogP_VSA2>
137.68495

>  <SlogP_VSA3>
39.365837

>  <SlogP_VSA4>
0

>  <SlogP_VSA5>
0

>  <SlogP_VSA6>
0

>  <SlogP_VSA7>
0

>  <SlogP_VSA8>
18.868406

>  <SlogP_VSA9>
0

>  <SMR>
10.77922

>  <SMR_VSA0>
43.99955

>  <SMR_VSA1>
177.69658

>  <SMR_VSA2>
0

>  <SMR_VSA3>
93.685402

>  <SMR_VSA4>
131.58875

>  <SMR_VSA5>
18.868406

>  <SMR_VSA6>
39.365837

>  <SMR_VSA7>
0

>  <TPSA>
282.60999

>  <VAdjEq>
0.3442024

>  <VAdjMa>
6.129283

>  <VDistEq>
3.6291428

>  <VDistMa>
9.8144684

>  <vdw_area>
439.42862

>  <vdw_vol>
572.91949

>  <vsa_acc>
10.015024

>  <vsa_acid>
0

>  <vsa_base>
0

>  <vsa_don>
0

>  <vsa_hyd>
162.85033

>  <vsa_other>
29.416998

>  <vsa_pol>
175.95343

>  <Weight>
484.50299

>  <weinerPath>
3160

>  <weinerPol>
63

>  <zagreb>
174

$$$$