O=C1CC[C@@]2([C@@H]3[C@H]([C@@H]4CC[C@](OC(=O)CCCCC)(C(=O)C)[C@]4(CC3)C)CCC2=C1)C
  MOE2013           2D

 31 34  0  0  1  0  0  0  0  0999 V2000
    0.0000    0.0000    0.0000 O   0  0  0  0  0  0  0  0  0  0  0  0
    1.5000    0.0060    0.0000 C   0  0  0  0  0  0  0  0  0  0  0  0
    2.2550   -1.2900    0.0000 C   0  0  0  0  0  0  0  0  0  0  0  0
    3.7550   -1.2830    0.0000 C   0  0  0  0  0  0  0  0  0  0  0  0
    4.5000    0.0190    0.0000 C   0  0  2  0  0  0  0  0  0  0  0  0
    6.0000    0.0250    0.0000 C   0  0  2  0  0  0  0  0  0  0  0  0
    6.7440    1.3280    0.0000 C   0  0  2  0  0  0  0  0  0  0  0  0
    8.2440    1.3340    0.0000 C   0  0  2  0  0  0  0  0  0  0  0  0
    9.2430    2.4530    0.0000 C   0  0  0  0  0  0  0  0  0  0  0  0
   10.6160    1.8490    0.0000 C   0  0  0  0  0  0  0  0  0  0  0  0
   10.4660    0.3560    0.0000 C   0  0  2  0  0  0  0  0  0  0  0  0
   11.9290    0.0250    0.0000 O   0  0  0  0  0  0  0  0  0  0  0  0
   12.9470    1.1260    0.0000 C   0  0  0  0  0  0  0  0  0  0  0  0
   12.5030    2.5590    0.0000 O   0  0  0  0  0  0  0  0  0  0  0  0
   14.4100    0.7950    0.0000 C   0  0  0  0  0  0  0  0  0  0  0  0
   15.4280    1.8960    0.0000 C   0  0  0  0  0  0  0  0  0  0  0  0
   16.8910    1.5650    0.0000 C   0  0  0  0  0  0  0  0  0  0  0  0
   17.9100    2.6660    0.0000 C   0  0  0  0  0  0  0  0  0  0  0  0
   19.3730    2.3350    0.0000 C   0  0  0  0  0  0  0  0  0  0  0  0
   10.8600   -1.0910    0.0000 C   0  0  0  0  0  0  0  0  0  0  0  0
    9.8040   -2.1560    0.0000 O   0  0  0  0  0  0  0  0  0  0  0  0
   12.3110   -1.4730    0.0000 C   0  0  0  0  0  0  0  0  0  0  0  0
    9.0000    0.0380    0.0000 C   0  0  1  0  0  0  0  0  0  0  0  0
    8.2550   -1.2640    0.0000 C   0  0  0  0  0  0  0  0  0  0  0  0
    6.7550   -1.2700    0.0000 C   0  0  0  0  0  0  0  0  0  0  0  0
    9.8870   -1.1720    0.0000 C   0  0  0  0  0  0  0  0  0  0  0  0
    5.9890    2.6230    0.0000 C   0  0  0  0  0  0  0  0  0  0  0  0
    4.4890    2.6170    0.0000 C   0  0  0  0  0  0  0  0  0  0  0  0
    3.7440    1.3150    0.0000 C   0  0  0  0  0  0  0  0  0  0  0  0
    2.2440    1.3090    0.0000 C   0  0  0  0  0  0  0  0  0  0  0  0
    5.2780   -1.2630    0.0000 C   0  0  0  0  0  0  0  0  0  0  0  0
  1  2  2  0  0  0  0
  2  3  1  0  0  0  0
  2 30  1  0  0  0  0
  3  4  1  0  0  0  0
  4  5  1  0  0  0  0
  5  6  1  0  0  0  0
  5 29  1  0  0  0  0
  5 31  1  6  0  0  0
  6  7  1  0  0  0  0
  6 25  1  6  0  0  0
  7  8  1  0  0  0  0
  7 27  1  1  0  0  0
  8  9  1  6  0  0  0
  8 23  1  0  0  0  0
  9 10  1  0  0  0  0
 10 11  1  0  0  0  0
 11 12  1  1  0  0  0
 11 20  1  6  0  0  0
 11 23  1  0  0  0  0
 12 13  1  0  0  0  0
 13 14  2  0  0  0  0
 13 15  1  0  0  0  0
 15 16  1  0  0  0  0
 16 17  1  0  0  0  0
 17 18  1  0  0  0  0
 18 19  1  0  0  0  0
 20 21  2  0  0  0  0
 20 22  1  0  0  0  0
 23 24  1  0  0  0  0
 23 26  1  6  0  0  0
 24 25  1  0  0  0  0
 27 28  1  0  0  0  0
 28 29  1  0  0  0  0
 29 30  2  0  0  0  0
M  END
>  <Index>
539

>  <ID>
HT1062

>  <class>
0

>  <apol>
77.399719

>  <ast_fraglike>
0

>  <ast_fraglike_ext>
0

>  <ast_violation>
2

>  <ast_violation_ext>
3

>  <a_acc>
3

>  <a_acid>
0

>  <a_aro>
0

>  <a_base>
0

>  <a_count>
71

>  <a_don>
0

>  <a_donacc>
3

>  <a_heavy>
31

>  <a_hyd>
24

>  <a_IC>
87.372955

>  <a_ICM>
1.230605

>  <a_nB>
0

>  <a_nBr>
0

>  <a_nC>
27

>  <a_nCl>
0

>  <a_nF>
0

>  <a_nH>
40

>  <a_nI>
0

>  <a_nN>
0

>  <a_nO>
4

>  <a_nP>
0

>  <a_nS>
0

>  <balabanJ>
1.5508828

>  <BCUT_PEOE_0>
-2.9438376

>  <BCUT_PEOE_1>
-0.43304732

>  <BCUT_PEOE_2>
0.31880787

>  <BCUT_PEOE_3>
2.973227

>  <BCUT_SLOGP_0>
-2.870013

>  <BCUT_SLOGP_1>
-0.35525349

>  <BCUT_SLOGP_2>
0.32136992

>  <BCUT_SLOGP_3>
3.0364497

>  <BCUT_SMR_0>
-2.6892412

>  <BCUT_SMR_1>
-0.22467861

>  <BCUT_SMR_2>
0.49900091

>  <BCUT_SMR_3>
3.2205386

>  <bpol>
48.51828

>  <b_1rotN>
6

>  <b_1rotR>
0.17647059

>  <b_ar>
0

>  <b_count>
74

>  <b_double>
4

>  <b_heavy>
34

>  <b_max1len>
6

>  <b_rotN>
7

>  <b_rotR>
0.20588236

>  <b_single>
70

>  <b_triple>
0

>  <chi0>
22.440947

>  <chi0v>
19.927675

>  <chi0v_C>
18.294682

>  <chi0_C>
18.733841

>  <chi1>
14.676323

>  <chi1v>
12.64516

>  <chi1v_C>
11.624539

>  <chi1_C>
12.18247

>  <chiral>
6

>  <chiral_u>
0

>  <density>
0.68447131

>  <diameter>
16

>  <FCharge>
0

>  <GCUT_PEOE_0>
-0.79608178

>  <GCUT_PEOE_1>
-0.38023734

>  <GCUT_PEOE_2>
-0.087704338

>  <GCUT_PEOE_3>
3.4092202

>  <GCUT_SLOGP_0>
-0.90205497

>  <GCUT_SLOGP_1>
-0.28544006

>  <GCUT_SLOGP_2>
-0.020872951

>  <GCUT_SLOGP_3>
3.4800758

>  <GCUT_SMR_0>
-0.53908271

>  <GCUT_SMR_1>
-0.20141177

>  <GCUT_SMR_2>
0.08073429

>  <GCUT_SMR_3>
3.6331561

>  <Kier1>
24.134949

>  <Kier2>
8.9818439

>  <Kier3>
3.8658776

>  <KierA1>
21.469973

>  <KierA2>
7.9575977

>  <KierA3>
3.4148457

>  <KierFlex>
5.511271

>  <lip_acc>
4

>  <lip_don>
0

>  <lip_druglike>
1

>  <lip_violation>
1

>  <logP(o/w)>
5.2389998

>  <logS>
-7.1682801

>  <mr>
12.228309

>  <mutagenic>
0

>  <nmol>
1

>  <opr_brigid>
20

>  <opr_leadlike>
1

>  <opr_nring>
4

>  <opr_nrot>
6

>  <opr_violation>
1

>  <PC+>
0

>  <PC->
0

>  <PEOE_PC+>
1.9315497

>  <PEOE_PC->
-1.9315497

>  <PEOE_RPC+>
0.13620161

>  <PEOE_RPC->
0.15549298

>  <PEOE_VSA+0>
183.75269

>  <PEOE_VSA+1>
4.2653861

>  <PEOE_VSA+2>
0

>  <PEOE_VSA+3>
16.917038

>  <PEOE_VSA+4>
0

>  <PEOE_VSA+5>
14.708499

>  <PEOE_VSA+6>
0

>  <PEOE_VSA-0>
100.61309

>  <PEOE_VSA-1>
75.854202

>  <PEOE_VSA-2>
0

>  <PEOE_VSA-3>
0

>  <PEOE_VSA-4>
0

>  <PEOE_VSA-5>
40.700764

>  <PEOE_VSA-6>
2.503756

>  <PEOE_VSA_FHYD>
0.86817437

>  <PEOE_VSA_FNEG>
0.50003207

>  <PEOE_VSA_FPNEG>
0.098345101

>  <PEOE_VSA_FPOL>
0.1318256

>  <PEOE_VSA_FPOS>
0.4999679

>  <PEOE_VSA_FPPOS>
0.033480499

>  <PEOE_VSA_HYD>
381.4024

>  <PEOE_VSA_NEG>
219.6718

>  <PEOE_VSA_PNEG>
43.204517

>  <PEOE_VSA_POL>
57.913017

>  <PEOE_VSA_POS>
219.6436

>  <PEOE_VSA_PPOS>
14.708499

>  <petitjean>
0.5

>  <petitjeanSC>
1

>  <Q_PC+>
0

>  <Q_PC->
0

>  <Q_RPC+>
0

>  <Q_RPC->
0

>  <Q_VSA_FHYD>
1

>  <Q_VSA_FNEG>
0

>  <Q_VSA_FPNEG>
0

>  <Q_VSA_FPOL>
0

>  <Q_VSA_FPOS>
1

>  <Q_VSA_FPPOS>
0

>  <Q_VSA_HYD>
439.3154

>  <Q_VSA_NEG>
0

>  <Q_VSA_PNEG>
0

>  <Q_VSA_POL>
0

>  <Q_VSA_POS>
439.3154

>  <Q_VSA_PPOS>
0

>  <radius>
8

>  <reactive>
1

>  <rings>
4

>  <RPC+>
0

>  <RPC->
0

>  <rsynth>
1

>  <SlogP>
5.9696002

>  <SlogP_VSA0>
0

>  <SlogP_VSA1>
19.120686

>  <SlogP_VSA2>
82.58654

>  <SlogP_VSA3>
0

>  <SlogP_VSA4>
13.232388

>  <SlogP_VSA5>
3.185575

>  <SlogP_VSA6>
0

>  <SlogP_VSA7>
17.643185

>  <SlogP_VSA8>
226.42087

>  <SlogP_VSA9>
133.30406

>  <SMR>
12.0356

>  <SMR_VSA0>
82.58654

>  <SMR_VSA1>
0

>  <SMR_VSA2>
13.232388

>  <SMR_VSA3>
3.185575

>  <SMR_VSA4>
0

>  <SMR_VSA5>
244.06406

>  <SMR_VSA6>
19.120686

>  <SMR_VSA7>
133.30406

>  <TPSA>
60.439999

>  <VAdjEq>
0.36875206

>  <VAdjMa>
6.0874629

>  <VDistEq>
3.5640101

>  <VDistMa>
9.6169176

>  <vdw_area>
439.3154

>  <vdw_vol>
626.19568

>  <vsa_acc>
40.700764

>  <vsa_acid>
0

>  <vsa_base>
0

>  <vsa_don>
0

>  <vsa_hyd>
331.97839

>  <vsa_other>
34.129295

>  <vsa_pol>
40.700764

>  <Weight>
428.61298

>  <weinerPath>
2548

>  <weinerPol>
64

>  <zagreb>
174

$$$$