F[C@@]12[C@H]([C@@H]3C[C@H]4OC5(O[C@@]4(C(=O)COC(=O)C)[C@]3(C[C@@H]1O)C)CCCC5)CCC1=CC(=O)C=C[C@@]12C
  MOE2013           2D

 36 41  0  0  1  0  0  0  0  0999 V2000
    0.0000    0.0000    0.0000 F   0  0  0  0  0  0  0  0  0  0  0  0
    1.5000    0.0040    0.0000 C   0  0  1  0  0  0  0  0  0  0  0  0
    0.7540   -1.2970    0.0000 C   0  0  2  0  0  0  0  0  0  0  0  0
   -0.7460   -1.3010    0.0000 C   0  0  2  0  0  0  0  0  0  0  0  0
   -1.7470   -2.4190    0.0000 C   0  0  0  0  0  0  0  0  0  0  0  0
   -3.1190   -1.8130    0.0000 C   0  0  1  0  0  0  0  0  0  0  0  0
   -4.5850   -2.1290    0.0000 O   0  0  0  0  0  0  0  0  0  0  0  0
   -5.3390   -0.8320    0.0000 C   0  0  0  0  0  0  0  0  0  0  0  0
   -4.3380    0.2860    0.0000 O   0  0  0  0  0  0  0  0  0  0  0  0
   -2.9660   -0.3200    0.0000 C   0  0  2  0  0  0  0  0  0  0  0  0
   -3.3590    1.1270    0.0000 C   0  0  0  0  0  0  0  0  0  0  0  0
   -2.3010    2.1910    0.0000 O   0  0  0  0  0  0  0  0  0  0  0  0
   -4.8090    1.5110    0.0000 C   0  0  0  0  0  0  0  0  0  0  0  0
   -5.2010    2.9590    0.0000 O   0  0  0  0  0  0  0  0  0  0  0  0
   -6.6510    3.3430    0.0000 C   0  0  0  0  0  0  0  0  0  0  0  0
   -7.7090    2.2790    0.0000 O   0  0  0  0  0  0  0  0  0  0  0  0
   -7.0440    4.7910    0.0000 C   0  0  0  0  0  0  0  0  0  0  0  0
   -1.5000   -0.0040    0.0000 C   0  0  1  0  0  0  0  0  0  0  0  0
   -0.7540    1.2970    0.0000 C   0  0  0  0  0  0  0  0  0  0  0  0
    0.7460    1.3010    0.0000 C   0  0  2  0  0  0  0  0  0  0  0  0
    1.4920    2.6020    0.0000 O   0  0  0  0  0  0  0  0  0  0  0  0
   -1.8920    1.4430    0.0000 C   0  0  0  0  0  0  0  0  0  0  0  0
   -6.1150    0.4520    0.0000 C   0  0  0  0  0  0  0  0  0  0  0  0
   -7.5760    0.1100    0.0000 C   0  0  0  0  0  0  0  0  0  0  0  0
   -7.7020   -1.3850    0.0000 C   0  0  0  0  0  0  0  0  0  0  0  0
   -6.3200   -1.9670    0.0000 C   0  0  0  0  0  0  0  0  0  0  0  0
    1.5080   -2.5940    0.0000 C   0  0  0  0  0  0  0  0  0  0  0  0
    3.0080   -2.5890    0.0000 C   0  0  0  0  0  0  0  0  0  0  0  0
    3.7540   -1.2880    0.0000 C   0  0  0  0  0  0  0  0  0  0  0  0
    5.2540   -1.2840    0.0000 C   0  0  0  0  0  0  0  0  0  0  0  0
    6.0000    0.0170    0.0000 C   0  0  0  0  0  0  0  0  0  0  0  0
    7.5000    0.0220    0.0000 O   0  0  0  0  0  0  0  0  0  0  0  0
    5.2460    1.3140    0.0000 C   0  0  0  0  0  0  0  0  0  0  0  0
    3.7460    1.3100    0.0000 C   0  0  0  0  0  0  0  0  0  0  0  0
    3.0000    0.0090    0.0000 C   0  0  2  0  0  0  0  0  0  0  0  0
    2.2460    1.3060    0.0000 C   0  0  0  0  0  0  0  0  0  0  0  0
  2  1  1  1  0  0  0
  2  3  1  0  0  0  0
  2 20  1  0  0  0  0
  2 35  1  0  0  0  0
  3  4  1  0  0  0  0
  3 27  1  1  0  0  0
  4  5  1  6  0  0  0
  4 18  1  0  0  0  0
  5  6  1  0  0  0  0
  6  7  1  1  0  0  0
  6 10  1  0  0  0  0
  7  8  1  0  0  0  0
  8  9  1  0  0  0  0
  8 23  1  0  0  0  0
  8 26  1  0  0  0  0
  9 10  1  0  0  0  0
 10 11  1  6  0  0  0
 10 18  1  0  0  0  0
 11 12  2  0  0  0  0
 11 13  1  0  0  0  0
 13 14  1  0  0  0  0
 14 15  1  0  0  0  0
 15 16  2  0  0  0  0
 15 17  1  0  0  0  0
 18 19  1  0  0  0  0
 18 22  1  6  0  0  0
 19 20  1  0  0  0  0
 20 21  1  6  0  0  0
 23 24  1  0  0  0  0
 24 25  1  0  0  0  0
 25 26  1  0  0  0  0
 27 28  1  0  0  0  0
 28 29  1  0  0  0  0
 29 30  2  0  0  0  0
 29 35  1  0  0  0  0
 30 31  1  0  0  0  0
 31 32  2  0  0  0  0
 31 33  1  0  0  0  0
 33 34  2  0  0  0  0
 34 35  1  0  0  0  0
 35 36  1  6  0  0  0
M  END
>  <Index>
59

>  <ID>
HT0126

>  <class>
0

>  <apol>
78.788757

>  <ast_fraglike>
0

>  <ast_fraglike_ext>
0

>  <ast_violation>
3

>  <ast_violation_ext>
4

>  <a_acc>
6

>  <a_acid>
0

>  <a_aro>
0

>  <a_base>
0

>  <a_count>
71

>  <a_don>
1

>  <a_donacc>
7

>  <a_heavy>
36

>  <a_hyd>
25

>  <a_IC>
102.84972

>  <a_ICM>
1.4485875

>  <a_nB>
0

>  <a_nBr>
0

>  <a_nC>
28

>  <a_nCl>
0

>  <a_nF>
1

>  <a_nH>
35

>  <a_nI>
0

>  <a_nN>
0

>  <a_nO>
7

>  <a_nP>
0

>  <a_nS>
0

>  <balabanJ>
1.3963302

>  <BCUT_PEOE_0>
-2.8983188

>  <BCUT_PEOE_1>
-0.49959704

>  <BCUT_PEOE_2>
0.47634789

>  <BCUT_PEOE_3>
3.023762

>  <BCUT_SLOGP_0>
-2.9222136

>  <BCUT_SLOGP_1>
-0.42578265

>  <BCUT_SLOGP_2>
0.50884843

>  <BCUT_SLOGP_3>
2.9975221

>  <BCUT_SMR_0>
-2.6729698

>  <BCUT_SMR_1>
-0.33534616

>  <BCUT_SMR_2>
0.63051611

>  <BCUT_SMR_3>
3.2419622

>  <bpol>
48.087246

>  <b_1rotN>
3

>  <b_1rotR>
0.073170729

>  <b_ar>
0

>  <b_count>
76

>  <b_double>
5

>  <b_heavy>
41

>  <b_max1len>
3

>  <b_rotN>
4

>  <b_rotR>
0.097560972

>  <b_single>
71

>  <b_triple>
0

>  <chi0>
25.725405

>  <chi0v>
21.18008

>  <chi0v_C>
17.905413

>  <chi0_C>
18.604084

>  <chi1>
16.91774

>  <chi1v>
13.277255

>  <chi1v_C>
10.876828

>  <chi1_C>
11.731183

>  <chiral>
8

>  <chiral_u>
0

>  <density>
0.7732957

>  <diameter>
14

>  <FCharge>
0

>  <GCUT_PEOE_0>
-0.78875816

>  <GCUT_PEOE_1>
-0.40449649

>  <GCUT_PEOE_2>
0.010132738

>  <GCUT_PEOE_3>
3.4953384

>  <GCUT_SLOGP_0>
-0.94638097

>  <GCUT_SLOGP_1>
-0.31437764

>  <GCUT_SLOGP_2>
0.020923346

>  <GCUT_SLOGP_3>
3.5061572

>  <GCUT_SMR_0>
-0.53693151

>  <GCUT_SMR_1>
-0.2139474

>  <GCUT_SMR_2>
0.14134237

>  <GCUT_SMR_3>
3.7073841

>  <Kier1>
26.234385

>  <Kier2>
8.4982147

>  <Kier3>
3.3319941

>  <KierA1>
23.075779

>  <KierA2>
7.4465237

>  <KierA3>
2.911839

>  <KierFlex>
4.7731757

>  <lip_acc>
7

>  <lip_don>
1

>  <lip_druglike>
1

>  <lip_violation>
1

>  <logP(o/w)>
4.4559999

>  <logS>
-5.0422001

>  <mr>
12.769531

>  <mutagenic>
0

>  <nmol>
1

>  <opr_brigid>
29

>  <opr_leadlike>
0

>  <opr_nring>
6

>  <opr_nrot>
4

>  <opr_violation>
2

>  <PC+>
0

>  <PC->
0

>  <PEOE_PC+>
2.9391

>  <PEOE_PC->
-2.9391

>  <PEOE_RPC+>
0.08826866

>  <PEOE_RPC->
0.13221073

>  <PEOE_VSA+0>
151.31572

>  <PEOE_VSA+1>
39.667561

>  <PEOE_VSA+2>
14.951293

>  <PEOE_VSA+3>
18.025583

>  <PEOE_VSA+4>
10.324173

>  <PEOE_VSA+5>
14.708499

>  <PEOE_VSA+6>
0

>  <PEOE_VSA-0>
95.465363

>  <PEOE_VSA-1>
33.211121

>  <PEOE_VSA-2>
0

>  <PEOE_VSA-3>
0

>  <PEOE_VSA-4>
11.908636

>  <PEOE_VSA-5>
40.700764

>  <PEOE_VSA-6>
15.278809

>  <PEOE_VSA_FHYD>
0.79145032

>  <PEOE_VSA_FNEG>
0.44116569

>  <PEOE_VSA_FPNEG>
0.15236688

>  <PEOE_VSA_FPOL>
0.20854968

>  <PEOE_VSA_FPOS>
0.55883431

>  <PEOE_VSA_FPPOS>
0.056182805

>  <PEOE_VSA_HYD>
352.63666

>  <PEOE_VSA_NEG>
196.5647

>  <PEOE_VSA_PNEG>
67.888206

>  <PEOE_VSA_POL>
92.920876

>  <PEOE_VSA_POS>
248.99283

>  <PEOE_VSA_PPOS>
25.032671

>  <petitjean>
0.5

>  <petitjeanSC>
1

>  <Q_PC+>
0

>  <Q_PC->
0

>  <Q_RPC+>
0

>  <Q_RPC->
0

>  <Q_VSA_FHYD>
1

>  <Q_VSA_FNEG>
0

>  <Q_VSA_FPNEG>
0

>  <Q_VSA_FPOL>
0

>  <Q_VSA_FPOS>
1

>  <Q_VSA_FPPOS>
0

>  <Q_VSA_HYD>
445.55753

>  <Q_VSA_NEG>
0

>  <Q_VSA_PNEG>
0

>  <Q_VSA_POL>
0

>  <Q_VSA_POS>
445.55753

>  <Q_VSA_PPOS>
0

>  <radius>
7

>  <reactive>
1

>  <rings>
6

>  <RPC+>
0

>  <RPC->
0

>  <rsynth>
0.47222221

>  <SlogP>
3.5237999

>  <SlogP_VSA0>
25.385227

>  <SlogP_VSA1>
19.120686

>  <SlogP_VSA2>
117.52361

>  <SlogP_VSA3>
20.926258

>  <SlogP_VSA4>
8.8215923

>  <SlogP_VSA5>
3.185575

>  <SlogP_VSA6>
0

>  <SlogP_VSA7>
52.929554

>  <SlogP_VSA8>
150.94725

>  <SlogP_VSA9>
114.93816

>  <SMR>
12.52658

>  <SMR_VSA0>
104.58631

>  <SMR_VSA1>
40.345341

>  <SMR_VSA2>
8.8215923

>  <SMR_VSA3>
16.122873

>  <SMR_VSA4>
0

>  <SMR_VSA5>
203.8768

>  <SMR_VSA6>
40.046944

>  <SMR_VSA7>
99.978043

>  <TPSA>
99.129997

>  <VAdjEq>
0.34029734

>  <VAdjMa>
6.3575521

>  <VDistEq>
3.4677277

>  <VDistMa>
10.086102

>  <vdw_area>
445.55753

>  <vdw_vol>
649.91827

>  <vsa_acc>
45.708275

>  <vsa_acid>
0

>  <vsa_base>
0

>  <vsa_don>
0

>  <vsa_hyd>
319.62857

>  <vsa_other>
35.237839

>  <vsa_pol>
59.275196

>  <Weight>
502.57898

>  <weinerPath>
3393

>  <weinerPol>
83

>  <zagreb>
220

$$$$