O[C@@H]1C[C@H]2[C@H](CC(C2)=CCCCC(O)=O)[C@H]1C=C[C@@H](O)C(CC#CC)C
  MOE2013           2D

 26 27  0  0  1  0  0  0  0  0999 V2000
    0.0000    0.0000    0.0000 O   0  0  0  0  0  0  0  0  0  0  0  0
   -1.4670   -0.3120    0.0000 C   0  0  2  0  0  0  0  0  0  0  0  0
   -2.5820    0.6910    0.0000 C   0  0  0  0  0  0  0  0  0  0  0  0
   -3.8810   -0.0590    0.0000 C   0  0  1  0  0  0  0  0  0  0  0  0
   -3.5690   -1.5260    0.0000 C   0  0  2  0  0  0  0  0  0  0  0  0
   -4.8670   -2.2770    0.0000 C   0  0  0  0  0  0  0  0  0  0  0  0
   -5.9830   -1.2730    0.0000 C   0  0  0  0  0  0  0  0  0  0  0  0
   -5.3730    0.0970    0.0000 C   0  0  0  0  0  0  0  0  0  0  0  0
   -7.4500   -1.5860    0.0000 C   0  0  0  0  0  0  0  0  0  0  0  0
   -8.4540   -0.4710    0.0000 C   0  0  0  0  0  0  0  0  0  0  0  0
   -9.9210   -0.7840    0.0000 C   0  0  0  0  0  0  0  0  0  0  0  0
  -10.9250    0.3310    0.0000 C   0  0  0  0  0  0  0  0  0  0  0  0
  -12.3920    0.0190    0.0000 C   0  0  0  0  0  0  0  0  0  0  0  0
  -12.8550   -1.4080    0.0000 O   0  0  0  0  0  0  0  0  0  0  0  0
  -13.3960    1.1330    0.0000 O   0  0  0  0  0  0  0  0  0  0  0  0
   -2.0770   -1.6830    0.0000 C   0  0  1  0  0  0  0  0  0  0  0  0
   -1.3260   -2.9820    0.0000 C   0  0  0  0  0  0  0  0  0  0  0  0
    0.1740   -2.9810    0.0000 C   0  0  0  0  0  0  0  0  0  0  0  0
    0.9240   -4.2800    0.0000 C   0  0  1  0  0  0  0  0  0  0  0  0
    0.1740   -5.5790    0.0000 O   0  0  0  0  0  0  0  0  0  0  0  0
    2.4240   -4.2800    0.0000 C   0  0  3  0  0  0  0  0  0  0  0  0
    3.1740   -5.5780    0.0000 C   0  0  0  0  0  0  0  0  0  0  0  0
    4.6740   -5.5780    0.0000 C   0  0  0  0  0  0  0  0  0  0  0  0
    6.1740   -5.5780    0.0000 C   0  0  0  0  0  0  0  0  0  0  0  0
    7.6740   -5.5770    0.0000 C   0  0  0  0  0  0  0  0  0  0  0  0
    3.1740   -2.9800    0.0000 C   0  0  0  0  0  0  0  0  0  0  0  0
  2  1  1  1  0  0  0
  2  3  1  0  0  0  0
  2 16  1  0  0  0  0
  3  4  1  0  0  0  0
  4  5  1  0  0  0  0
  4  8  1  1  0  0  0
  5  6  1  1  0  0  0
  5 16  1  0  0  0  0
  6  7  1  0  0  0  0
  7  8  1  0  0  0  0
  7  9  2  3  0  0  0
  9 10  1  0  0  0  0
 10 11  1  0  0  0  0
 11 12  1  0  0  0  0
 12 13  1  0  0  0  0
 13 14  1  0  0  0  0
 13 15  2  0  0  0  0
 16 17  1  6  0  0  0
 17 18  2  3  0  0  0
 18 19  1  0  0  0  0
 19 20  1  6  0  0  0
 19 21  1  0  0  0  0
 21 22  1  0  0  0  0
 21 26  1  0  0  0  0
 22 23  1  0  0  0  0
 23 24  3  0  0  0  0
 24 25  1  0  0  0  0
M  END
>  <Index>
549

>  <ID>
HT1079

>  <class>
0

>  <apol>
63.265377

>  <ast_fraglike>
0

>  <ast_fraglike_ext>
0

>  <ast_violation>
4

>  <ast_violation_ext>
5

>  <a_acc>
4

>  <a_acid>
0

>  <a_aro>
0

>  <a_base>
0

>  <a_count>
58

>  <a_don>
4

>  <a_donacc>
8

>  <a_heavy>
26

>  <a_hyd>
21

>  <a_IC>
73.655403

>  <a_ICM>
1.2699207

>  <a_nB>
0

>  <a_nBr>
0

>  <a_nC>
22

>  <a_nCl>
0

>  <a_nF>
0

>  <a_nH>
32

>  <a_nI>
0

>  <a_nN>
0

>  <a_nO>
4

>  <a_nP>
0

>  <a_nS>
0

>  <balabanJ>
1.7251149

>  <BCUT_PEOE_0>
-2.626019

>  <BCUT_PEOE_1>
-0.51578051

>  <BCUT_PEOE_2>
0.50540292

>  <BCUT_PEOE_3>
2.8665893

>  <BCUT_SLOGP_0>
-2.6153862

>  <BCUT_SLOGP_1>
-0.47622123

>  <BCUT_SLOGP_2>
0.45967904

>  <BCUT_SLOGP_3>
2.9309809

>  <BCUT_SMR_0>
-2.3827596

>  <BCUT_SMR_1>
-0.31105745

>  <BCUT_SMR_2>
0.6332373

>  <BCUT_SMR_3>
3.1183999

>  <bpol>
35.940624

>  <b_1rotN>
9

>  <b_1rotR>
0.33333334

>  <b_ar>
0

>  <b_count>
59

>  <b_double>
3

>  <b_heavy>
27

>  <b_max1len>
5

>  <b_rotN>
9

>  <b_rotR>
0.33333334

>  <b_single>
55

>  <b_triple>
1

>  <chi0>
19.104084

>  <chi0v>
15.895789

>  <chi0v_C>
14.1459

>  <chi0_C>
15.104083

>  <chi1>
12.417923

>  <chi1v>
9.7571907

>  <chi1v_C>
8.8130617

>  <chi1_C>
10.108521

>  <chiral>
6

>  <chiral_u>
1

>  <density>
0.68445915

>  <diameter>
17

>  <FCharge>
0

>  <GCUT_PEOE_0>
-0.80167574

>  <GCUT_PEOE_1>
-0.39000776

>  <GCUT_PEOE_2>
0.052162021

>  <GCUT_PEOE_3>
2.9409106

>  <GCUT_SLOGP_0>
-0.88654107

>  <GCUT_SLOGP_1>
-0.31239006

>  <GCUT_SLOGP_2>
0.085903101

>  <GCUT_SLOGP_3>
3.0171175

>  <GCUT_SMR_0>
-0.54205495

>  <GCUT_SMR_1>
-0.22852619

>  <GCUT_SMR_2>
0.20113948

>  <GCUT_SMR_3>
3.1747591

>  <Kier1>
22.29081

>  <Kier2>
11.111111

>  <Kier3>
6.8429751

>  <KierA1>
19.126415

>  <KierA2>
9.4723263

>  <KierA3>
5.8067765

>  <KierFlex>
6.9681401

>  <lip_acc>
4

>  <lip_don>
3

>  <lip_druglike>
1

>  <lip_violation>
0

>  <logP(o/w)>
2.6659999

>  <logS>
-3.12888

>  <mr>
10.317027

>  <mutagenic>
0

>  <nmol>
1

>  <opr_brigid>
12

>  <opr_leadlike>
1

>  <opr_nring>
2

>  <opr_nrot>
9

>  <opr_violation>
0

>  <PC+>
0

>  <PC->
0

>  <PEOE_PC+>
2.1551468

>  <PEOE_PC->
-2.1551468

>  <PEOE_RPC+>
0.12045453

>  <PEOE_RPC->
0.18151413

>  <PEOE_VSA+0>
119.77189

>  <PEOE_VSA+1>
31.136787

>  <PEOE_VSA+2>
0

>  <PEOE_VSA+3>
0

>  <PEOE_VSA+4>
30.972517

>  <PEOE_VSA+5>
14.708499

>  <PEOE_VSA+6>
0

>  <PEOE_VSA-0>
62.254242

>  <PEOE_VSA-1>
57.720928

>  <PEOE_VSA-2>
31.616989

>  <PEOE_VSA-3>
0

>  <PEOE_VSA-4>
0

>  <PEOE_VSA-5>
13.566921

>  <PEOE_VSA-6>
23.30262

>  <PEOE_VSA_FHYD>
0.78561157

>  <PEOE_VSA_FNEG>
0.48944557

>  <PEOE_VSA_FPNEG>
0.095752262

>  <PEOE_VSA_FPOL>
0.21438842

>  <PEOE_VSA_FPOS>
0.51055443

>  <PEOE_VSA_FPPOS>
0.11863615

>  <PEOE_VSA_HYD>
302.50085

>  <PEOE_VSA_NEG>
188.4617

>  <PEOE_VSA_PNEG>
36.869541

>  <PEOE_VSA_POL>
82.55056

>  <PEOE_VSA_POS>
196.58969

>  <PEOE_VSA_PPOS>
45.681019

>  <petitjean>
0.47058824

>  <petitjeanSC>
0.8888889

>  <Q_PC+>
0

>  <Q_PC->
0

>  <Q_RPC+>
0

>  <Q_RPC->
0

>  <Q_VSA_FHYD>
1

>  <Q_VSA_FNEG>
0

>  <Q_VSA_FPNEG>
0

>  <Q_VSA_FPOL>
0

>  <Q_VSA_FPOS>
1

>  <Q_VSA_FPPOS>
0

>  <Q_VSA_HYD>
385.05139

>  <Q_VSA_NEG>
0

>  <Q_VSA_PNEG>
0

>  <Q_VSA_POL>
0

>  <Q_VSA_POS>
385.05139

>  <Q_VSA_PPOS>
0

>  <radius>
9

>  <reactive>
0

>  <rings>
2

>  <RPC+>
0

>  <RPC->
0

>  <rsynth>
0

>  <SlogP>
3.5413079

>  <SlogP_VSA0>
50.770454

>  <SlogP_VSA1>
7.7454643

>  <SlogP_VSA2>
36.799515

>  <SlogP_VSA3>
59.446373

>  <SlogP_VSA4>
17.643185

>  <SlogP_VSA5>
3.185575

>  <SlogP_VSA6>
0

>  <SlogP_VSA7>
52.929554

>  <SlogP_VSA8>
132.07884

>  <SlogP_VSA9>
66.652031

>  <SMR>
10.22754

>  <SMR_VSA0>
23.862217

>  <SMR_VSA1>
50.770454

>  <SMR_VSA2>
43.028412

>  <SMR_VSA3>
50.184021

>  <SMR_VSA4>
0

>  <SMR_VSA5>
185.00839

>  <SMR_VSA6>
7.7454643

>  <SMR_VSA7>
66.652031

>  <TPSA>
77.760002

>  <VAdjEq>
0.40176207

>  <VAdjMa>
5.7548876

>  <VDistEq>
3.7887375

>  <VDistMa>
9.0689335

>  <vdw_area>
385.05139

>  <vdw_vol>
526.68445

>  <vsa_acc>
0

>  <vsa_acid>
0

>  <vsa_base>
0

>  <vsa_don>
0

>  <vsa_hyd>
276.47858

>  <vsa_other>
14.708499

>  <vsa_pol>
54.267685

>  <Weight>
360.49399

>  <weinerPath>
2018

>  <weinerPol>
34

>  <zagreb>
126

$$$$