s1c2c(cc1)C(c1c(C=C2OC)cccc1)=CC(O)=O
  MOE2013           2D

 20 22  0  0  0  0  0  0  0  0999 V2000
    0.0000    0.0000    0.0000 S   0  0  0  0  0  0  0  0  0  0  0  0
   -0.7550   -1.2960    0.0000 C   0  0  0  0  0  0  0  0  0  0  0  0
    0.2440   -2.4150    0.0000 C   0  0  0  0  0  0  0  0  0  0  0  0
    1.6170   -1.8100    0.0000 C   0  0  0  0  0  0  0  0  0  0  0  0
    1.4660   -0.3180    0.0000 C   0  0  0  0  0  0  0  0  0  0  0  0
   -0.0060   -3.8940    0.0000 C   0  0  0  0  0  0  0  0  0  0  0  0
   -1.3200   -4.6180    0.0000 C   0  0  0  0  0  0  0  0  0  0  0  0
   -2.7050   -4.0430    0.0000 C   0  0  0  0  0  0  0  0  0  0  0  0
   -3.1220   -2.6020    0.0000 C   0  0  0  0  0  0  0  0  0  0  0  0
   -2.2530   -1.3790    0.0000 C   0  0  0  0  0  0  0  0  0  0  0  0
   -2.9770   -0.0660    0.0000 O   0  0  0  0  0  0  0  0  0  0  0  0
   -4.4770   -0.0360    0.0000 C   0  0  0  0  0  0  0  0  0  0  0  0
   -3.8960   -4.9560    0.0000 C   0  0  0  0  0  0  0  0  0  0  0  0
   -3.7010   -6.4430    0.0000 C   0  0  0  0  0  0  0  0  0  0  0  0
   -2.3150   -7.0180    0.0000 C   0  0  0  0  0  0  0  0  0  0  0  0
   -1.1250   -6.1050    0.0000 C   0  0  0  0  0  0  0  0  0  0  0  0
    1.2170   -4.7620    0.0000 C   0  0  0  0  0  0  0  0  0  0  0  0
    2.5800   -4.1370    0.0000 C   0  0  0  0  0  0  0  0  0  0  0  0
    2.7210   -2.6430    0.0000 O   0  0  0  0  0  0  0  0  0  0  0  0
    3.8030   -5.0050    0.0000 O   0  0  0  0  0  0  0  0  0  0  0  0
  1  2  1  0  0  0  0
  1  5  1  0  0  0  0
  2  3  2  0  0  0  0
  2 10  1  0  0  0  0
  3  4  1  0  0  0  0
  3  6  1  0  0  0  0
  4  5  2  0  0  0  0
  6  7  1  0  0  0  0
  6 17  2  3  0  0  0
  7  8  1  0  0  0  0
  7 16  2  0  0  0  0
  8  9  1  0  0  0  0
  8 13  2  0  0  0  0
  9 10  2  0  0  0  0
 10 11  1  0  0  0  0
 11 12  1  0  0  0  0
 13 14  1  0  0  0  0
 14 15  2  0  0  0  0
 15 16  1  0  0  0  0
 17 18  1  0  0  0  0
 18 19  1  0  0  0  0
 18 20  2  0  0  0  0
M  END
>  <Index>
583

>  <ID>
HT1151

>  <class>
0

>  <apol>
41.467518

>  <ast_fraglike>
0

>  <ast_fraglike_ext>
0

>  <ast_violation>
1

>  <ast_violation_ext>
1

>  <a_acc>
3

>  <a_acid>
0

>  <a_aro>
11

>  <a_base>
0

>  <a_count>
32

>  <a_don>
2

>  <a_donacc>
5

>  <a_heavy>
20

>  <a_hyd>
16

>  <a_IC>
48.225563

>  <a_ICM>
1.5070488

>  <a_nB>
0

>  <a_nBr>
0

>  <a_nC>
16

>  <a_nCl>
0

>  <a_nF>
0

>  <a_nH>
12

>  <a_nI>
0

>  <a_nN>
0

>  <a_nO>
3

>  <a_nP>
0

>  <a_nS>
1

>  <balabanJ>
1.8770435

>  <BCUT_PEOE_0>
-2.248244

>  <BCUT_PEOE_1>
-0.62073892

>  <BCUT_PEOE_2>
0.66644061

>  <BCUT_PEOE_3>
2.3124027

>  <BCUT_SLOGP_0>
-2.1893985

>  <BCUT_SLOGP_1>
-0.52280414

>  <BCUT_SLOGP_2>
0.77703875

>  <BCUT_SLOGP_3>
2.4781396

>  <BCUT_SMR_0>
-1.9473922

>  <BCUT_SMR_1>
-0.45214701

>  <BCUT_SMR_2>
0.84978789

>  <BCUT_SMR_3>
2.6677887

>  <bpol>
18.272484

>  <b_1rotN>
2

>  <b_1rotR>
0.090909094

>  <b_ar>
11

>  <b_count>
34

>  <b_double>
3

>  <b_heavy>
22

>  <b_max1len>
2

>  <b_rotN>
2

>  <b_rotR>
0.090909094

>  <b_single>
20

>  <b_triple>
0

>  <chi0>
14.112519

>  <chi0v>
11.607257

>  <chi0v_C>
9.1188021

>  <chi0_C>
10.698306

>  <chi1>
9.7027082

>  <chi1v>
6.9636416

>  <chi1v_C>
4.6040592

>  <chi1_C>
6.5244045

>  <chiral>
0

>  <chiral_u>
0

>  <density>
0.78005129

>  <diameter>
8

>  <FCharge>
0

>  <GCUT_PEOE_0>
-0.78984654

>  <GCUT_PEOE_1>
-0.45020193

>  <GCUT_PEOE_2>
0.082282364

>  <GCUT_PEOE_3>
2.4850788

>  <GCUT_SLOGP_0>
-0.87140083

>  <GCUT_SLOGP_1>
-0.29906103

>  <GCUT_SLOGP_2>
0.14032769

>  <GCUT_SLOGP_3>
2.640491

>  <GCUT_SMR_0>
-0.483762

>  <GCUT_SMR_1>
-0.21139173

>  <GCUT_SMR_2>
0.21423168

>  <GCUT_SMR_3>
2.8188939

>  <Kier1>
14.917356

>  <Kier2>
6.405827

>  <Kier3>
2.9789076

>  <KierA1>
11.470958

>  <KierA2>
4.8523731

>  <KierA3>
2.2317586

>  <KierFlex>
2.7830684

>  <lip_acc>
3

>  <lip_don>
1

>  <lip_druglike>
1

>  <lip_violation>
0

>  <logP(o/w)>
4.1300001

>  <logS>
-4.1324501

>  <mr>
7.9887195

>  <mutagenic>
0

>  <nmol>
1

>  <opr_brigid>
17

>  <opr_leadlike>
1

>  <opr_nring>
3

>  <opr_nrot>
2

>  <opr_violation>
0

>  <PC+>
0

>  <PC->
0

>  <PEOE_PC+>
1.4530776

>  <PEOE_PC->
-1.4530776

>  <PEOE_RPC+>
0.19586687

>  <PEOE_RPC->
0.23962922

>  <PEOE_VSA+0>
41.517948

>  <PEOE_VSA+1>
51.112381

>  <PEOE_VSA+2>
0

>  <PEOE_VSA+3>
19.760618

>  <PEOE_VSA+4>
10.324173

>  <PEOE_VSA+5>
14.708499

>  <PEOE_VSA+6>
0

>  <PEOE_VSA-0>
25.273664

>  <PEOE_VSA-1>
61.274521

>  <PEOE_VSA-2>
14.230966

>  <PEOE_VSA-3>
0

>  <PEOE_VSA-4>
0

>  <PEOE_VSA-5>
13.566921

>  <PEOE_VSA-6>
10.271297

>  <PEOE_VSA_FHYD>
0.81349903

>  <PEOE_VSA_FNEG>
0.47556442

>  <PEOE_VSA_FPNEG>
0.090971328

>  <PEOE_VSA_FPOL>
0.18650094

>  <PEOE_VSA_FPOS>
0.52443558

>  <PEOE_VSA_FPPOS>
0.095529608

>  <PEOE_VSA_HYD>
213.17009

>  <PEOE_VSA_NEG>
124.61736

>  <PEOE_VSA_PNEG>
23.838217

>  <PEOE_VSA_POL>
48.870888

>  <PEOE_VSA_POS>
137.42361

>  <PEOE_VSA_PPOS>
25.032671

>  <petitjean>
0.375

>  <petitjeanSC>
0.60000002

>  <Q_PC+>
0

>  <Q_PC->
0

>  <Q_RPC+>
0

>  <Q_RPC->
0

>  <Q_VSA_FHYD>
1

>  <Q_VSA_FNEG>
0

>  <Q_VSA_FPNEG>
0

>  <Q_VSA_FPOL>
0

>  <Q_VSA_FPOS>
1

>  <Q_VSA_FPPOS>
0

>  <Q_VSA_HYD>
262.04099

>  <Q_VSA_NEG>
0

>  <Q_VSA_PNEG>
0

>  <Q_VSA_POL>
0

>  <Q_VSA_POS>
262.04099

>  <Q_VSA_PPOS>
0

>  <radius>
5

>  <reactive>
0

>  <rings>
3

>  <RPC+>
0

>  <RPC->
0

>  <rsynth>
1

>  <SlogP>
3.5395899

>  <SlogP_VSA0>
0

>  <SlogP_VSA1>
7.7454643

>  <SlogP_VSA2>
34.862103

>  <SlogP_VSA3>
28.570801

>  <SlogP_VSA4>
10.915126

>  <SlogP_VSA5>
35.383869

>  <SlogP_VSA6>
0

>  <SlogP_VSA7>
126.91855

>  <SlogP_VSA8>
17.643185

>  <SlogP_VSA9>
31.277687

>  <SMR>
7.9293799

>  <SMR_VSA0>
34.862103

>  <SMR_VSA1>
0

>  <SMR_VSA2>
28.570801

>  <SMR_VSA3>
10.915126

>  <SMR_VSA4>
5.2434282

>  <SMR_VSA5>
121.67512

>  <SMR_VSA6>
25.388649

>  <SMR_VSA7>
66.661552

>  <TPSA>
46.529999

>  <VAdjEq>
0.49991596

>  <VAdjMa>
5.4594316

>  <VDistEq>
2.7481678

>  <VDistMa>
8.4049911

>  <vdw_area>
262.04099

>  <vdw_vol>
364.50806

>  <vsa_acc>
2.503756

>  <vsa_acid>
0

>  <vsa_base>
0

>  <vsa_don>
0

>  <vsa_hyd>
205.34035

>  <vsa_other>
14.708499

>  <vsa_pol>
29.637598

>  <Weight>
284.33499

>  <weinerPath>
705

>  <weinerPol>
35

>  <zagreb>
106

$$$$