Ic1c(N(C(=O)C)CC(C(O)=O)C)c(I)cc(I)c1N
  MOE2013           2D

 20 20  0  0  1  0  0  0  0  0999 V2000
    0.0000    0.0000    0.0000 I   0  0  0  0  0  0  0  0  0  0  0  0
    0.7440    1.3020    0.0000 C   0  0  0  0  0  0  0  0  0  0  0  0
   -0.0110    2.5980    0.0000 C   0  0  0  0  0  0  0  0  0  0  0  0
   -1.5110    2.5910    0.0000 N   0  0  0  0  0  0  0  0  0  0  0  0
   -2.2670    3.8870    0.0000 C   0  0  0  0  0  0  0  0  0  0  0  0
   -1.5230    5.1890    0.0000 O   0  0  0  0  0  0  0  0  0  0  0  0
   -3.7670    3.8800    0.0000 C   0  0  0  0  0  0  0  0  0  0  0  0
   -2.2560    1.2890    0.0000 C   0  0  0  0  0  0  0  0  0  0  0  0
   -3.7560    1.2820    0.0000 C   0  0  3  0  0  0  0  0  0  0  0  0
   -4.5000   -0.0200    0.0000 C   0  0  0  0  0  0  0  0  0  0  0  0
   -3.7440   -1.3160    0.0000 O   0  0  0  0  0  0  0  0  0  0  0  0
   -6.0000   -0.0270    0.0000 O   0  0  0  0  0  0  0  0  0  0  0  0
   -4.5110    2.5780    0.0000 C   0  0  0  0  0  0  0  0  0  0  0  0
    0.7330    3.9000    0.0000 C   0  0  0  0  0  0  0  0  0  0  0  0
   -0.0230    5.1960    0.0000 I   0  0  0  0  0  0  0  0  0  0  0  0
    2.2330    3.9070    0.0000 C   0  0  0  0  0  0  0  0  0  0  0  0
    2.9880    2.6110    0.0000 C   0  0  0  0  0  0  0  0  0  0  0  0
    4.4880    2.6180    0.0000 I   0  0  0  0  0  0  0  0  0  0  0  0
    2.2440    1.3090    0.0000 C   0  0  0  0  0  0  0  0  0  0  0  0
    3.0000    0.0130    0.0000 N   0  0  0  0  0  0  0  0  0  0  0  0
  1  2  1  0  0  0  0
  2  3  1  0  0  0  0
  2 19  2  0  0  0  0
  3  4  1  0  0  0  0
  3 14  2  0  0  0  0
  4  5  1  0  0  0  0
  4  8  1  0  0  0  0
  5  6  2  0  0  0  0
  5  7  1  0  0  0  0
  8  9  1  0  0  0  0
  9 10  1  0  0  0  0
  9 13  1  0  0  0  0
 10 11  1  0  0  0  0
 10 12  2  0  0  0  0
 14 15  1  0  0  0  0
 14 16  1  0  0  0  0
 16 17  2  0  0  0  0
 17 18  1  0  0  0  0
 17 19  1  0  0  0  0
 19 20  1  0  0  0  0
M  END
>  <Index>
558

>  <ID>
HT1101

>  <class>
0

>  <apol>
50.444309

>  <ast_fraglike>
0

>  <ast_fraglike_ext>
0

>  <ast_violation>
2

>  <ast_violation_ext>
3

>  <a_acc>
3

>  <a_acid>
0

>  <a_aro>
6

>  <a_base>
0

>  <a_count>
33

>  <a_don>
3

>  <a_donacc>
6

>  <a_heavy>
20

>  <a_hyd>
13

>  <a_IC>
63.829964

>  <a_ICM>
1.9342413

>  <a_nB>
0

>  <a_nBr>
0

>  <a_nC>
12

>  <a_nCl>
0

>  <a_nF>
0

>  <a_nH>
13

>  <a_nI>
3

>  <a_nN>
2

>  <a_nO>
3

>  <a_nP>
0

>  <a_nS>
0

>  <balabanJ>
2.9054787

>  <BCUT_PEOE_0>
-2.5614557

>  <BCUT_PEOE_1>
-0.52088416

>  <BCUT_PEOE_2>
0.46943754

>  <BCUT_PEOE_3>
2.5837455

>  <BCUT_SLOGP_0>
-2.6584291

>  <BCUT_SLOGP_1>
-0.36385682

>  <BCUT_SLOGP_2>
0.67081946

>  <BCUT_SLOGP_3>
2.5380962

>  <BCUT_SMR_0>
-2.308728

>  <BCUT_SMR_1>
-0.17132892

>  <BCUT_SMR_2>
0.89641458

>  <BCUT_SMR_3>
2.8444319

>  <bpol>
28.217691

>  <b_1rotN>
5

>  <b_1rotR>
0.25

>  <b_ar>
6

>  <b_count>
33

>  <b_double>
2

>  <b_heavy>
20

>  <b_max1len>
4

>  <b_rotN>
5

>  <b_rotR>
0.25

>  <b_single>
25

>  <b_triple>
0

>  <chi0>
15.610366

>  <chi0v>
17.25647

>  <chi0v_C>
7.3618073

>  <chi0_C>
8.0330153

>  <chi1>
9.1624784

>  <chi1v>
8.8387899

>  <chi1v_C>
3.351624

>  <chi1_C>
4.0461121

>  <chiral>
1

>  <chiral_u>
1

>  <density>
1.4737526

>  <diameter>
9

>  <FCharge>
0

>  <GCUT_PEOE_0>
-0.82075995

>  <GCUT_PEOE_1>
-0.41112843

>  <GCUT_PEOE_2>
0.036019038

>  <GCUT_PEOE_3>
2.4654007

>  <GCUT_SLOGP_0>
-1.3345425

>  <GCUT_SLOGP_1>
-0.36484888

>  <GCUT_SLOGP_2>
0.2424472

>  <GCUT_SLOGP_3>
2.5400386

>  <GCUT_SMR_0>
-0.51305121

>  <GCUT_SMR_1>
-0.12005865

>  <GCUT_SMR_2>
0.34226575

>  <GCUT_SMR_3>
2.8304546

>  <Kier1>
18.049999

>  <Kier2>
7.3198571

>  <Kier3>
4.25

>  <KierA1>
22.447071

>  <KierA2>
9.2079468

>  <KierA3>
5.3910303

>  <KierFlex>
10.334573

>  <lip_acc>
5

>  <lip_don>
3

>  <lip_druglike>
1

>  <lip_violation>
1

>  <logP(o/w)>
4.2839999

>  <logS>
-4.26331

>  <mr>
10.401703

>  <mutagenic>
1

>  <nmol>
1

>  <opr_brigid>
6

>  <opr_leadlike>
1

>  <opr_nring>
1

>  <opr_nrot>
4

>  <opr_violation>
1

>  <PC+>
0

>  <PC->
0

>  <PEOE_PC+>
1.6864072

>  <PEOE_PC->
-1.6864072

>  <PEOE_RPC+>
0.15663491

>  <PEOE_RPC->
0.19628802

>  <PEOE_VSA+0>
74.577446

>  <PEOE_VSA+1>
22.535803

>  <PEOE_VSA+2>
17.238026

>  <PEOE_VSA+3>
0

>  <PEOE_VSA+4>
23.273705

>  <PEOE_VSA+5>
14.708499

>  <PEOE_VSA+6>
0

>  <PEOE_VSA-0>
153.22495

>  <PEOE_VSA-1>
18.747677

>  <PEOE_VSA-2>
0

>  <PEOE_VSA-3>
0

>  <PEOE_VSA-4>
0

>  <PEOE_VSA-5>
27.133842

>  <PEOE_VSA-6>
14.418659

>  <PEOE_VSA_FHYD>
0.78260809

>  <PEOE_VSA_FNEG>
0.58362746

>  <PEOE_VSA_FPNEG>
0.1135753

>  <PEOE_VSA_FPOL>
0.21739192

>  <PEOE_VSA_FPOS>
0.41637254

>  <PEOE_VSA_FPPOS>
0.10381662

>  <PEOE_VSA_HYD>
286.32388

>  <PEOE_VSA_NEG>
213.52513

>  <PEOE_VSA_PNEG>
41.552502

>  <PEOE_VSA_POL>
79.534706

>  <PEOE_VSA_POS>
152.33348

>  <PEOE_VSA_PPOS>
37.982204

>  <petitjean>
0.44444445

>  <petitjeanSC>
0.80000001

>  <Q_PC+>
0

>  <Q_PC->
0

>  <Q_RPC+>
0

>  <Q_RPC->
0

>  <Q_VSA_FHYD>
1

>  <Q_VSA_FNEG>
0

>  <Q_VSA_FPNEG>
0

>  <Q_VSA_FPOL>
0

>  <Q_VSA_FPOS>
1

>  <Q_VSA_FPPOS>
0

>  <Q_VSA_HYD>
365.85861

>  <Q_VSA_NEG>
0

>  <Q_VSA_PNEG>
0

>  <Q_VSA_POL>
0

>  <Q_VSA_POS>
365.85861

>  <Q_VSA_PPOS>
0

>  <radius>
5

>  <reactive>
0

>  <rings>
1

>  <RPC+>
0

>  <RPC->
0

>  <rsynth>
1

>  <SlogP>
3.1561999

>  <SlogP_VSA0>
36.0215

>  <SlogP_VSA1>
13.004248

>  <SlogP_VSA2>
52.703362

>  <SlogP_VSA3>
43.824806

>  <SlogP_VSA4>
4.4107962

>  <SlogP_VSA5>
0

>  <SlogP_VSA6>
0

>  <SlogP_VSA7>
17.643185

>  <SlogP_VSA8>
0

>  <SlogP_VSA9>
242.51155

>  <SMR>
10.38322

>  <SMR_VSA0>
47.724434

>  <SMR_VSA1>
0

>  <SMR_VSA2>
37.899265

>  <SMR_VSA3>
0

>  <SMR_VSA4>
5.513495

>  <SMR_VSA5>
50.540371

>  <SMR_VSA6>
31.443827

>  <SMR_VSA7>
236.99806

>  <TPSA>
83.629997

>  <VAdjEq>
0.4689956

>  <VAdjMa>
5.321928

>  <VDistEq>
2.9344659

>  <VDistMa>
8.3889475

>  <vdw_area>
365.85861

>  <vdw_vol>
416.59567

>  <vsa_acc>
13.566921

>  <vsa_acid>
0

>  <vsa_base>
0

>  <vsa_don>
17.742489

>  <vsa_hyd>
260.62286

>  <vsa_other>
27.65803

>  <vsa_pol>
58.443253

>  <Weight>
613.95898

>  <weinerPath>
766

>  <weinerPol>
33

>  <zagreb>
98

$$$$