O=C(NC1C[C@@H]2N([C@H](C1)CCC2)C)c1nn(c2c1cccc2)C
  MOE2013           2D

 23 26  0  0  1  0  0  0  0  0999 V2000
    0.0000    0.0000    0.0000 O   0  0  0  0  0  0  0  0  0  0  0  0
    0.0110    1.5000    0.0000 C   0  0  0  0  0  0  0  0  0  0  0  0
    1.3160    2.2400    0.0000 N   0  0  0  0  0  0  0  0  0  0  0  0
    2.6090    1.4800    0.0000 C   0  0  0  0  0  0  0  0  0  0  0  0
    3.5450    0.3030    0.0000 C   0  0  0  0  0  0  0  0  0  0  0  0
    5.0980    1.1550    0.0000 C   0  0  2  0  0  0  0  0  0  0  0  0
    6.4960    1.5790    0.0000 N   0  0  0  0  0  0  0  0  0  0  0  0
    5.3550    2.1260    0.0000 C   0  0  2  0  0  0  0  0  0  0  0  0
    3.8730    1.2720    0.0000 C   0  0  0  0  0  0  0  0  0  0  0  0
    4.6290    3.6050    0.0000 C   0  0  0  0  0  0  0  0  0  0  0  0
    3.2410    3.1740    0.0000 C   0  0  0  0  0  0  0  0  0  0  0  0
    4.3210    2.6960    0.0000 C   0  0  0  0  0  0  0  0  0  0  0  0
    7.9920    1.4640    0.0000 C   0  0  0  0  0  0  0  0  0  0  0  0
   -1.2820    2.2600    0.0000 C   0  0  0  0  0  0  0  0  0  0  0  0
   -1.4270    3.7530    0.0000 N   0  0  0  0  0  0  0  0  0  0  0  0
   -2.8920    4.0760    0.0000 N   0  0  0  0  0  0  0  0  0  0  0  0
   -3.6520    2.7830    0.0000 C   0  0  0  0  0  0  0  0  0  0  0  0
   -2.6570    1.6600    0.0000 C   0  0  0  0  0  0  0  0  0  0  0  0
   -3.1310    0.2370    0.0000 C   0  0  0  0  0  0  0  0  0  0  0  0
   -4.6010   -0.0630    0.0000 C   0  0  0  0  0  0  0  0  0  0  0  0
   -5.5960    1.0590    0.0000 C   0  0  0  0  0  0  0  0  0  0  0  0
   -5.1210    2.4820    0.0000 C   0  0  0  0  0  0  0  0  0  0  0  0
   -3.4910    5.4510    0.0000 C   0  0  0  0  0  0  0  0  0  0  0  0
  1  2  2  0  0  0  0
  2  3  1  0  0  0  0
  2 14  1  0  0  0  0
  3  4  1  0  0  0  0
  4  5  1  0  0  0  0
  4  9  1  0  0  0  0
  6  5  1  1  0  0  0
  6  7  1  0  0  0  0
  6 12  1  0  0  0  0
  7  8  1  0  0  0  0
  7 13  1  0  0  0  0
  8  9  1  0  0  0  0
  8 10  1  6  0  0  0
 10 11  1  0  0  0  0
 11 12  1  0  0  0  0
 14 15  2  0  0  0  0
 14 18  1  0  0  0  0
 15 16  1  0  0  0  0
 16 17  1  0  0  0  0
 16 23  1  0  0  0  0
 17 18  2  0  0  0  0
 17 22  1  0  0  0  0
 18 19  1  0  0  0  0
 19 20  2  0  0  0  0
 20 21  1  0  0  0  0
 21 22  2  0  0  0  0
M  END
>  <Index>
502

>  <ID>
HT1003

>  <class>
0

>  <apol>
52.885033

>  <ast_fraglike>
0

>  <ast_fraglike_ext>
0

>  <ast_violation>
1

>  <ast_violation_ext>
2

>  <a_acc>
3

>  <a_acid>
0

>  <a_aro>
9

>  <a_base>
0

>  <a_count>
47

>  <a_don>
1

>  <a_donacc>
4

>  <a_heavy>
23

>  <a_hyd>
17

>  <a_IC>
67.967926

>  <a_ICM>
1.4461261

>  <a_nB>
0

>  <a_nBr>
0

>  <a_nC>
18

>  <a_nCl>
0

>  <a_nF>
0

>  <a_nH>
24

>  <a_nI>
0

>  <a_nN>
4

>  <a_nO>
1

>  <a_nP>
0

>  <a_nS>
0

>  <balabanJ>
1.3752601

>  <BCUT_PEOE_0>
-2.9018586

>  <BCUT_PEOE_1>
-0.54483825

>  <BCUT_PEOE_2>
0.58407867

>  <BCUT_PEOE_3>
2.8341763

>  <BCUT_SLOGP_0>
-2.9347172

>  <BCUT_SLOGP_1>
-0.4701027

>  <BCUT_SLOGP_2>
0.64860028

>  <BCUT_SLOGP_3>
2.8511536

>  <BCUT_SMR_0>
-2.6339099

>  <BCUT_SMR_1>
-0.40126792

>  <BCUT_SMR_2>
0.71588236

>  <BCUT_SMR_3>
3.0969367

>  <bpol>
31.814968

>  <b_1rotN>
2

>  <b_1rotR>
0.07692308

>  <b_ar>
10

>  <b_count>
50

>  <b_double>
1

>  <b_heavy>
26

>  <b_max1len>
3

>  <b_rotN>
3

>  <b_rotR>
0.11538462

>  <b_single>
39

>  <b_triple>
0

>  <chi0>
15.974327

>  <chi0v>
13.826875

>  <chi0v_C>
11.576985

>  <chi0_C>
12.405413

>  <chi1>
11.13103

>  <chi1v>
8.5776777

>  <chi1v_C>
5.7768402

>  <chi1_C>
6.7659864

>  <chiral>
2

>  <chiral_u>
0

>  <density>
0.70643669

>  <diameter>
11

>  <FCharge>
0

>  <GCUT_PEOE_0>
-0.85586476

>  <GCUT_PEOE_1>
-0.38847306

>  <GCUT_PEOE_2>
0.066063955

>  <GCUT_PEOE_3>
2.8803537

>  <GCUT_SLOGP_0>
-1.1614938

>  <GCUT_SLOGP_1>
-0.32666889

>  <GCUT_SLOGP_2>
0.12855166

>  <GCUT_SLOGP_3>
2.9013176

>  <GCUT_SMR_0>
-0.52259183

>  <GCUT_SMR_1>
-0.20240095

>  <GCUT_SMR_2>
0.15881863

>  <GCUT_SMR_3>
3.1239951

>  <Kier1>
16.467455

>  <Kier2>
6.7188368

>  <Kier3>
3.1327875

>  <KierA1>
12.946752

>  <KierA2>
5.2205324

>  <KierA3>
2.4125071

>  <KierFlex>
2.9386497

>  <lip_acc>
5

>  <lip_don>
1

>  <lip_druglike>
1

>  <lip_violation>
0

>  <logP(o/w)>
2.3210001

>  <logS>
-3.0650799

>  <mr>
9.0031319

>  <mutagenic>
0

>  <nmol>
1

>  <opr_brigid>
20

>  <opr_leadlike>
1

>  <opr_nring>
4

>  <opr_nrot>
6

>  <opr_violation>
0

>  <PC+>
0

>  <PC->
0

>  <PEOE_PC+>
1.7221471

>  <PEOE_PC->
-1.7221471

>  <PEOE_RPC+>
0.15849203

>  <PEOE_RPC->
0.20199171

>  <PEOE_VSA+0>
111.66206

>  <PEOE_VSA+1>
28.026482

>  <PEOE_VSA+2>
0

>  <PEOE_VSA+3>
15.318564

>  <PEOE_VSA+4>
0

>  <PEOE_VSA+5>
12.949531

>  <PEOE_VSA+6>
0

>  <PEOE_VSA-0>
70.298843

>  <PEOE_VSA-1>
45.466026

>  <PEOE_VSA-2>
0

>  <PEOE_VSA-3>
9.4210396

>  <PEOE_VSA-4>
0

>  <PEOE_VSA-5>
13.566921

>  <PEOE_VSA-6>
0.13689101

>  <PEOE_VSA_FHYD>
0.91313779

>  <PEOE_VSA_FNEG>
0.45263603

>  <PEOE_VSA_FPNEG>
0.044660173

>  <PEOE_VSA_FPOL>
0.086862177

>  <PEOE_VSA_FPOS>
0.54736394

>  <PEOE_VSA_FPPOS>
0.042202003

>  <PEOE_VSA_HYD>
280.19302

>  <PEOE_VSA_NEG>
138.88972

>  <PEOE_VSA_PNEG>
13.703812

>  <PEOE_VSA_POL>
26.653343

>  <PEOE_VSA_POS>
167.95663

>  <PEOE_VSA_PPOS>
12.949531

>  <petitjean>
0.45454547

>  <petitjeanSC>
0.83333331

>  <Q_PC+>
0

>  <Q_PC->
0

>  <Q_RPC+>
0

>  <Q_RPC->
0

>  <Q_VSA_FHYD>
1

>  <Q_VSA_FNEG>
0

>  <Q_VSA_FPNEG>
0

>  <Q_VSA_FPOL>
0

>  <Q_VSA_FPOS>
1

>  <Q_VSA_FPPOS>
0

>  <Q_VSA_HYD>
306.84634

>  <Q_VSA_NEG>
0

>  <Q_VSA_PNEG>
0

>  <Q_VSA_POL>
0

>  <Q_VSA_POS>
306.84634

>  <Q_VSA_PPOS>
0

>  <radius>
6

>  <reactive>
0

>  <rings>
4

>  <RPC+>
0

>  <RPC->
0

>  <rsynth>
0.52173913

>  <SlogP>
2.6775999

>  <SlogP_VSA0>
18.01075

>  <SlogP_VSA1>
26.822676

>  <SlogP_VSA2>
11.945906

>  <SlogP_VSA3>
0

>  <SlogP_VSA4>
26.618963

>  <SlogP_VSA5>
32.897186

>  <SlogP_VSA6>
0

>  <SlogP_VSA7>
75.289841

>  <SlogP_VSA8>
94.342026

>  <SlogP_VSA9>
32.897186

>  <SMR>
9.0673199

>  <SMR_VSA0>
23.862217

>  <SMR_VSA1>
21.563892

>  <SMR_VSA2>
18.01075

>  <SMR_VSA3>
14.702654

>  <SMR_VSA4>
4.7171016

>  <SMR_VSA5>
164.91476

>  <SMR_VSA6>
5.2587838

>  <SMR_VSA7>
65.794373

>  <TPSA>
50.16

>  <VAdjEq>
0.46357921

>  <VAdjMa>
5.7004399

>  <VDistEq>
3.2726328

>  <VDistMa>
8.7450876

>  <vdw_area>
306.84634

>  <vdw_vol>
442.24344

>  <vsa_acc>
22.987961

>  <vsa_acid>
0

>  <vsa_base>
0

>  <vsa_don>
5.6825762

>  <vsa_hyd>
245.78166

>  <vsa_other>
12.949531

>  <vsa_pol>
28.670536

>  <Weight>
312.41699

>  <weinerPath>
1195

>  <weinerPol>
39

>  <zagreb>
128

$$$$