Ic1ccccc1C(CCCCCCCCC(OCC)=O)C
  MOE2013           2D

 22 22  0  0  1  0  0  0  0  0999 V2000
    0.0000    0.0000    0.0000 I   0  0  0  0  0  0  0  0  0  0  0  0
   -0.7470   -1.3010    0.0000 C   0  0  0  0  0  0  0  0  0  0  0  0
   -2.2470   -1.3040    0.0000 C   0  0  0  0  0  0  0  0  0  0  0  0
   -2.9940   -2.6040    0.0000 C   0  0  0  0  0  0  0  0  0  0  0  0
   -2.2420   -3.9020    0.0000 C   0  0  0  0  0  0  0  0  0  0  0  0
   -0.7420   -3.8990    0.0000 C   0  0  0  0  0  0  0  0  0  0  0  0
    0.0060   -2.5980    0.0000 C   0  0  0  0  0  0  0  0  0  0  0  0
    1.5060   -2.5950    0.0000 C   0  0  3  0  0  0  0  0  0  0  0  0
    2.2580   -3.8920    0.0000 C   0  0  0  0  0  0  0  0  0  0  0  0
    3.7580   -3.8890    0.0000 C   0  0  0  0  0  0  0  0  0  0  0  0
    4.5110   -5.1860    0.0000 C   0  0  0  0  0  0  0  0  0  0  0  0
    6.0110   -5.1830    0.0000 C   0  0  0  0  0  0  0  0  0  0  0  0
    6.7640   -6.4810    0.0000 C   0  0  0  0  0  0  0  0  0  0  0  0
    8.2640   -6.4770    0.0000 C   0  0  0  0  0  0  0  0  0  0  0  0
    9.0170   -7.7750    0.0000 C   0  0  0  0  0  0  0  0  0  0  0  0
   10.5170   -7.7720    0.0000 C   0  0  0  0  0  0  0  0  0  0  0  0
   11.2690   -9.0690    0.0000 C   0  0  0  0  0  0  0  0  0  0  0  0
   12.7690   -9.0660    0.0000 O   0  0  0  0  0  0  0  0  0  0  0  0
   13.5220  -10.3630    0.0000 C   0  0  0  0  0  0  0  0  0  0  0  0
   15.0220  -10.3600    0.0000 C   0  0  0  0  0  0  0  0  0  0  0  0
   10.5220  -10.3700    0.0000 O   0  0  0  0  0  0  0  0  0  0  0  0
    2.2530   -1.2940    0.0000 C   0  0  0  0  0  0  0  0  0  0  0  0
  1  2  1  0  0  0  0
  2  3  1  0  0  0  0
  2  7  2  0  0  0  0
  3  4  2  0  0  0  0
  4  5  1  0  0  0  0
  5  6  2  0  0  0  0
  6  7  1  0  0  0  0
  7  8  1  0  0  0  0
  8  9  1  0  0  0  0
  8 22  1  0  0  0  0
  9 10  1  0  0  0  0
 10 11  1  0  0  0  0
 11 12  1  0  0  0  0
 12 13  1  0  0  0  0
 13 14  1  0  0  0  0
 14 15  1  0  0  0  0
 15 16  1  0  0  0  0
 16 17  1  0  0  0  0
 17 18  1  0  0  0  0
 17 21  2  0  0  0  0
 18 19  1  0  0  0  0
 19 20  1  0  0  0  0
M  END
>  <Index>
563

>  <ID>
HT1113

>  <class>
0

>  <apol>
59.730995

>  <ast_fraglike>
0

>  <ast_fraglike_ext>
0

>  <ast_violation>
2

>  <ast_violation_ext>
3

>  <a_acc>
1

>  <a_acid>
0

>  <a_aro>
6

>  <a_base>
0

>  <a_count>
51

>  <a_don>
0

>  <a_donacc>
1

>  <a_heavy>
22

>  <a_hyd>
19

>  <a_IC>
65.701622

>  <a_ICM>
1.288267

>  <a_nB>
0

>  <a_nBr>
0

>  <a_nC>
19

>  <a_nCl>
0

>  <a_nF>
0

>  <a_nH>
29

>  <a_nI>
1

>  <a_nN>
0

>  <a_nO>
2

>  <a_nP>
0

>  <a_nS>
0

>  <balabanJ>
1.9241607

>  <BCUT_PEOE_0>
-2.7201643

>  <BCUT_PEOE_1>
-0.55739933

>  <BCUT_PEOE_2>
0.60794473

>  <BCUT_PEOE_3>
2.6618524

>  <BCUT_SLOGP_0>
-2.5587289

>  <BCUT_SLOGP_1>
-0.40916181

>  <BCUT_SLOGP_2>
0.68967408

>  <BCUT_SLOGP_3>
2.8258693

>  <BCUT_SMR_0>
-2.4672158

>  <BCUT_SMR_1>
-0.3270281

>  <BCUT_SMR_2>
0.76631707

>  <BCUT_SMR_3>
2.9177709

>  <bpol>
38.167004

>  <b_1rotN>
11

>  <b_1rotR>
0.5

>  <b_ar>
6

>  <b_count>
51

>  <b_double>
1

>  <b_heavy>
22

>  <b_max1len>
11

>  <b_rotN>
12

>  <b_rotR>
0.54545456

>  <b_single>
44

>  <b_triple>
0

>  <chi0>
16.208897

>  <chi0v>
16.102673

>  <chi0v_C>
12.750712

>  <chi0_C>
13.501789

>  <chi1>
10.647066

>  <chi1v>
9.6269388

>  <chi1v_C>
7.6622839

>  <chi1_C>
8.5841169

>  <chiral>
1

>  <chiral_u>
1

>  <density>
0.84819955

>  <diameter>
16

>  <FCharge>
0

>  <GCUT_PEOE_0>
-0.80147469

>  <GCUT_PEOE_1>
-0.38739103

>  <GCUT_PEOE_2>
0.056164693

>  <GCUT_PEOE_3>
2.6686981

>  <GCUT_SLOGP_0>
-0.84524024

>  <GCUT_SLOGP_1>
-0.24894218

>  <GCUT_SLOGP_2>
0.13214414

>  <GCUT_SLOGP_3>
2.8139925

>  <GCUT_SMR_0>
-0.53239292

>  <GCUT_SMR_1>
-0.1554947

>  <GCUT_SMR_2>
0.18076153

>  <GCUT_SMR_3>
2.9209774

>  <Kier1>
20.045454

>  <Kier2>
12.426036

>  <Kier3>
9.0368605

>  <KierA1>
19.98579

>  <KierA2>
12.387232

>  <KierA3>
9.0076838

>  <KierFlex>
11.253119

>  <lip_acc>
2

>  <lip_don>
0

>  <lip_druglike>
1

>  <lip_violation>
1

>  <logP(o/w)>
7.0159998

>  <logS>
-6.8370399

>  <mr>
10.400109

>  <mutagenic>
0

>  <nmol>
1

>  <opr_brigid>
6

>  <opr_leadlike>
0

>  <opr_nring>
1

>  <opr_nrot>
11

>  <opr_violation>
2

>  <PC+>
0

>  <PC->
0

>  <PEOE_PC+>
1.3550555

>  <PEOE_PC->
-1.3550555

>  <PEOE_RPC+>
0.1934616

>  <PEOE_RPC->
0.23281047

>  <PEOE_VSA+0>
109.84528

>  <PEOE_VSA+1>
40.54361

>  <PEOE_VSA+2>
0

>  <PEOE_VSA+3>
0

>  <PEOE_VSA+4>
0

>  <PEOE_VSA+5>
14.708499

>  <PEOE_VSA+6>
0

>  <PEOE_VSA-0>
97.60376

>  <PEOE_VSA-1>
99.018959

>  <PEOE_VSA-2>
0

>  <PEOE_VSA-3>
0

>  <PEOE_VSA-4>
0

>  <PEOE_VSA-5>
13.566921

>  <PEOE_VSA-6>
2.503756

>  <PEOE_VSA_FHYD>
0.9185285

>  <PEOE_VSA_FNEG>
0.56299251

>  <PEOE_VSA_FPNEG>
0.042538561

>  <PEOE_VSA_FPOL>
0.081471488

>  <PEOE_VSA_FPOS>
0.43700746

>  <PEOE_VSA_FPPOS>
0.038932923

>  <PEOE_VSA_HYD>
347.0116

>  <PEOE_VSA_NEG>
212.69339

>  <PEOE_VSA_PNEG>
16.070677

>  <PEOE_VSA_POL>
30.779177

>  <PEOE_VSA_POS>
165.0974

>  <PEOE_VSA_PPOS>
14.708499

>  <petitjean>
0.5

>  <petitjeanSC>
1

>  <Q_PC+>
0

>  <Q_PC->
0

>  <Q_RPC+>
0

>  <Q_RPC->
0

>  <Q_VSA_FHYD>
1

>  <Q_VSA_FNEG>
0

>  <Q_VSA_FPNEG>
0

>  <Q_VSA_FPOL>
0

>  <Q_VSA_FPOS>
1

>  <Q_VSA_FPPOS>
0

>  <Q_VSA_HYD>
377.7908

>  <Q_VSA_NEG>
0

>  <Q_VSA_PNEG>
0

>  <Q_VSA_POL>
0

>  <Q_VSA_POS>
377.7908

>  <Q_VSA_PPOS>
0

>  <radius>
8

>  <reactive>
0

>  <rings>
1

>  <RPC+>
0

>  <RPC->
0

>  <rsynth>
1

>  <SlogP>
6.0785999

>  <SlogP_VSA0>
0

>  <SlogP_VSA1>
7.7454643

>  <SlogP_VSA2>
36.521748

>  <SlogP_VSA3>
20.926258

>  <SlogP_VSA4>
3.185575

>  <SlogP_VSA5>
0

>  <SlogP_VSA6>
4.4107962

>  <SlogP_VSA7>
70.572739

>  <SlogP_VSA8>
150.94725

>  <SlogP_VSA9>
123.43404

>  <SMR>
10.1143

>  <SMR_VSA0>
34.862103

>  <SMR_VSA1>
0

>  <SMR_VSA2>
1.6596429

>  <SMR_VSA3>
7.5963712

>  <SMR_VSA4>
0

>  <SMR_VSA5>
221.51997

>  <SMR_VSA6>
28.671722

>  <SMR_VSA7>
123.43404

>  <TPSA>
26.299999

>  <VAdjEq>
0.43949699

>  <VAdjMa>
5.4594316

>  <VDistEq>
3.8022206

>  <VDistMa>
8.5490408

>  <vdw_area>
377.7908

>  <vdw_vol>
490.85498

>  <vsa_acc>
13.566921

>  <vsa_acid>
0

>  <vsa_base>
0

>  <vsa_don>
0

>  <vsa_hyd>
325.02451

>  <vsa_other>
17.212255

>  <vsa_pol>
13.566921

>  <Weight>
416.34299

>  <weinerPath>
1465

>  <weinerPol>
26

>  <zagreb>
96

$$$$