S(=O)(=O)(Nc1ccc(cc1)C(O)CCCN(CCCCCCC)CC)C
  MOE2013           2D

 26 26  0  0  1  0  0  0  0  0999 V2000
    0.0000    0.0000    0.0000 S   0  0  0  0  0  0  0  0  0  0  0  0
    1.2980    0.7530    0.0000 O   0  0  0  0  0  0  0  0  0  0  0  0
   -1.2980   -0.7530    0.0000 O   0  0  0  0  0  0  0  0  0  0  0  0
    0.7530   -1.2980    0.0000 N   0  0  0  0  0  0  0  0  0  0  0  0
    2.2530   -1.2950    0.0000 C   0  0  0  0  0  0  0  0  0  0  0  0
    3.0000    0.0060    0.0000 C   0  0  0  0  0  0  0  0  0  0  0  0
    4.5000    0.0090    0.0000 C   0  0  0  0  0  0  0  0  0  0  0  0
    5.2530   -1.2890    0.0000 C   0  0  0  0  0  0  0  0  0  0  0  0
    4.5050   -2.5890    0.0000 C   0  0  0  0  0  0  0  0  0  0  0  0
    3.0050   -2.5920    0.0000 C   0  0  0  0  0  0  0  0  0  0  0  0
    6.7530   -1.2860    0.0000 C   0  0  3  0  0  0  0  0  0  0  0  0
    7.5000    0.0150    0.0000 O   0  0  0  0  0  0  0  0  0  0  0  0
    7.5050   -2.5830    0.0000 C   0  0  0  0  0  0  0  0  0  0  0  0
    9.0050   -2.5800    0.0000 C   0  0  0  0  0  0  0  0  0  0  0  0
    9.7580   -3.8780    0.0000 C   0  0  0  0  0  0  0  0  0  0  0  0
   11.2580   -3.8750    0.0000 N   0  0  3  0  0  0  0  0  0  0  0  0
   12.0050   -2.5740    0.0000 C   0  0  0  0  0  0  0  0  0  0  0  0
   13.5050   -2.5710    0.0000 C   0  0  0  0  0  0  0  0  0  0  0  0
   14.2530   -1.2710    0.0000 C   0  0  0  0  0  0  0  0  0  0  0  0
   15.7530   -1.2680    0.0000 C   0  0  0  0  0  0  0  0  0  0  0  0
   16.5000    0.0330    0.0000 C   0  0  0  0  0  0  0  0  0  0  0  0
   18.0000    0.0360    0.0000 C   0  0  0  0  0  0  0  0  0  0  0  0
   18.7470    1.3360    0.0000 C   0  0  0  0  0  0  0  0  0  0  0  0
   12.0100   -5.1720    0.0000 C   0  0  0  0  0  0  0  0  0  0  0  0
   11.2630   -6.4730    0.0000 C   0  0  0  0  0  0  0  0  0  0  0  0
   -0.7530    1.2980    0.0000 C   0  0  0  0  0  0  0  0  0  0  0  0
  1  2  2  0  0  0  0
  1  3  2  0  0  0  0
  1  4  1  0  0  0  0
  1 26  1  0  0  0  0
  4  5  1  0  0  0  0
  5  6  1  0  0  0  0
  5 10  2  0  0  0  0
  6  7  2  0  0  0  0
  7  8  1  0  0  0  0
  8  9  2  0  0  0  0
  8 11  1  0  0  0  0
  9 10  1  0  0  0  0
 11 12  1  0  0  0  0
 11 13  1  0  0  0  0
 13 14  1  0  0  0  0
 14 15  1  0  0  0  0
 15 16  1  0  0  0  0
 16 17  1  0  0  0  0
 16 24  1  0  0  0  0
 17 18  1  0  0  0  0
 18 19  1  0  0  0  0
 19 20  1  0  0  0  0
 20 21  1  0  0  0  0
 21 22  1  0  0  0  0
 22 23  1  0  0  0  0
 24 25  1  0  0  0  0
M  END
>  <Index>
544

>  <ID>
HT1071

>  <class>
0

>  <apol>
66.710548

>  <ast_fraglike>
0

>  <ast_fraglike_ext>
0

>  <ast_violation>
3

>  <ast_violation_ext>
4

>  <a_acc>
4

>  <a_acid>
0

>  <a_aro>
6

>  <a_base>
0

>  <a_count>
62

>  <a_don>
2

>  <a_donacc>
6

>  <a_heavy>
26

>  <a_hyd>
20

>  <a_IC>
89.849419

>  <a_ICM>
1.4491842

>  <a_nB>
0

>  <a_nBr>
0

>  <a_nC>
20

>  <a_nCl>
0

>  <a_nF>
0

>  <a_nH>
36

>  <a_nI>
0

>  <a_nN>
2

>  <a_nO>
3

>  <a_nP>
0

>  <a_nS>
1

>  <balabanJ>
2.1437039

>  <BCUT_PEOE_0>
-2.7454262

>  <BCUT_PEOE_1>
-0.46238437

>  <BCUT_PEOE_2>
0.4844591

>  <BCUT_PEOE_3>
2.6586242

>  <BCUT_SLOGP_0>
-2.7463095

>  <BCUT_SLOGP_1>
-0.47001994

>  <BCUT_SLOGP_2>
0.45032763

>  <BCUT_SLOGP_3>
2.7753549

>  <BCUT_SMR_0>
-2.476984

>  <BCUT_SMR_1>
-0.28301391

>  <BCUT_SMR_2>
0.56801021

>  <BCUT_SMR_3>
2.9214749

>  <bpol>
48.471451

>  <b_1rotN>
14

>  <b_1rotR>
0.53846157

>  <b_ar>
6

>  <b_count>
62

>  <b_double>
0

>  <b_heavy>
26

>  <b_max1len>
14

>  <b_rotN>
14

>  <b_rotR>
0.53846157

>  <b_single>
56

>  <b_triple>
0

>  <chi0>
19.416002

>  <chi0v>
17.393488

>  <chi0v_C>
13.957819

>  <chi0_C>
14.631546

>  <chi1>
12.352685

>  <chi1v>
11.726503

>  <chi1v_C>
7.4325042

>  <chi1_C>
8.2887888

>  <chiral>
1

>  <chiral_u>
1

>  <density>
0.69640607

>  <diameter>
18

>  <FCharge>
0

>  <GCUT_PEOE_0>
-0.86064386

>  <GCUT_PEOE_1>
-0.38532841

>  <GCUT_PEOE_2>
0.040199161

>  <GCUT_PEOE_3>
2.7620637

>  <GCUT_SLOGP_0>
-0.9530794

>  <GCUT_SLOGP_1>
-0.29084289

>  <GCUT_SLOGP_2>
0.026415551

>  <GCUT_SLOGP_3>
2.8485463

>  <GCUT_SMR_0>
-0.53324974

>  <GCUT_SMR_1>
-0.15017709

>  <GCUT_SMR_2>
0.12447126

>  <GCUT_SMR_3>
3.0034585

>  <Kier1>
24.038462

>  <Kier2>
13.223141

>  <Kier3>
11.460208

>  <KierA1>
22.779657

>  <KierA2>
12.502747

>  <KierA3>
10.818586

>  <KierFlex>
10.954165

>  <lip_acc>
5

>  <lip_don>
2

>  <lip_druglike>
1

>  <lip_violation>
0

>  <logP(o/w)>
4.4250002

>  <logS>
-4.2123799

>  <mr>
10.973652

>  <mutagenic>
0

>  <nmol>
1

>  <opr_brigid>
6

>  <opr_leadlike>
1

>  <opr_nring>
1

>  <opr_nrot>
13

>  <opr_violation>
1

>  <PC+>
0

>  <PC->
0

>  <PEOE_PC+>
2.0356872

>  <PEOE_PC->
-2.0356872

>  <PEOE_RPC+>
0.10327261

>  <PEOE_RPC->
0.19019698

>  <PEOE_VSA+0>
121.00565

>  <PEOE_VSA+1>
34.850872

>  <PEOE_VSA+2>
12.796158

>  <PEOE_VSA+3>
20.72374

>  <PEOE_VSA+4>
10.324173

>  <PEOE_VSA+5>
0

>  <PEOE_VSA+6>
0

>  <PEOE_VSA-0>
74.589005

>  <PEOE_VSA-1>
121.32022

>  <PEOE_VSA-2>
0

>  <PEOE_VSA-3>
2.5295215

>  <PEOE_VSA-4>
32.016521

>  <PEOE_VSA-5>
0

>  <PEOE_VSA-6>
7.7675405

>  <PEOE_VSA_FHYD>
0.88557762

>  <PEOE_VSA_FNEG>
0.54398286

>  <PEOE_VSA_FPNEG>
0.090847082

>  <PEOE_VSA_FPOL>
0.11442237

>  <PEOE_VSA_FPOS>
0.45601717

>  <PEOE_VSA_FPPOS>
0.023575293

>  <PEOE_VSA_HYD>
387.81516

>  <PEOE_VSA_NEG>
238.22281

>  <PEOE_VSA_PNEG>
39.784065

>  <PEOE_VSA_POL>
50.108234

>  <PEOE_VSA_POS>
199.70059

>  <PEOE_VSA_PPOS>
10.324173

>  <petitjean>
0.5

>  <petitjeanSC>
1

>  <Q_PC+>
0

>  <Q_PC->
0

>  <Q_RPC+>
0

>  <Q_RPC->
0

>  <Q_VSA_FHYD>
1

>  <Q_VSA_FNEG>
0

>  <Q_VSA_FPNEG>
0

>  <Q_VSA_FPOL>
0

>  <Q_VSA_FPOS>
1

>  <Q_VSA_FPPOS>
0

>  <Q_VSA_HYD>
437.9234

>  <Q_VSA_NEG>
0

>  <Q_VSA_PNEG>
0

>  <Q_VSA_POL>
0

>  <Q_VSA_POS>
437.9234

>  <Q_VSA_PPOS>
0

>  <radius>
9

>  <reactive>
0

>  <rings>
1

>  <RPC+>
0

>  <RPC->
0

>  <rsynth>
0.23076923

>  <SlogP>
4.2595

>  <SlogP_VSA0>
25.385227

>  <SlogP_VSA1>
67.700996

>  <SlogP_VSA2>
6.6407428

>  <SlogP_VSA3>
55.318733

>  <SlogP_VSA4>
3.185575

>  <SlogP_VSA5>
31.691174

>  <SlogP_VSA6>
0

>  <SlogP_VSA7>
70.572739

>  <SlogP_VSA8>
138.54749

>  <SlogP_VSA9>
69.408775

>  <SMR>
11.00863

>  <SMR_VSA0>
48.171688

>  <SMR_VSA1>
28.509541

>  <SMR_VSA2>
0

>  <SMR_VSA3>
9.6542244

>  <SMR_VSA4>
19.161745

>  <SMR_VSA5>
202.65158

>  <SMR_VSA6>
55.318733

>  <SMR_VSA7>
104.98395

>  <TPSA>
69.639999

>  <VAdjEq>
0.39124358

>  <VAdjMa>
5.7004399

>  <VDistEq>
3.9340997

>  <VDistMa>
9.0526114

>  <vdw_area>
437.9234

>  <vdw_vol>
552.24249

>  <vsa_acc>
32.016521

>  <vsa_acid>
0

>  <vsa_base>
0

>  <vsa_don>
8.0752068

>  <vsa_hyd>
342.35999

>  <vsa_other>
10.105608

>  <vsa_pol>
53.658649

>  <Weight>
384.58499

>  <weinerPath>
2213

>  <weinerPol>
31

>  <zagreb>
118

$$$$