IC(I)I
  MOE2013           2D

  4  3  0  0  0  0  0  0  0  0999 V2000
    0.0000    0.0000    0.0000 I   0  0  0  0  0  0  0  0  0  0  0  0
   -1.5000    0.0000    0.0000 C   0  0  0  0  0  0  0  0  0  0  0  0
   -2.2500    1.2990    0.0000 I   0  0  0  0  0  0  0  0  0  0  0  0
   -2.2500   -1.2990    0.0000 I   0  0  0  0  0  0  0  0  0  0  0  0
  1  2  1  0  0  0  0
  2  3  1  0  0  0  0
  2  4  1  0  0  0  0
M  END
>  <Index>
559

>  <ID>
HT1105

>  <class>
0

>  <apol>
18.476793

>  <ast_fraglike>
0

>  <ast_fraglike_ext>
0

>  <ast_violation>
1

>  <ast_violation_ext>
1

>  <a_acc>
0

>  <a_acid>
0

>  <a_aro>
0

>  <a_base>
0

>  <a_count>
5

>  <a_don>
0

>  <a_donacc>
0

>  <a_heavy>
4

>  <a_hyd>
4

>  <a_IC>
6.854753

>  <a_ICM>
1.3709506

>  <a_nB>
0

>  <a_nBr>
0

>  <a_nC>
1

>  <a_nCl>
0

>  <a_nF>
0

>  <a_nH>
1

>  <a_nI>
3

>  <a_nN>
0

>  <a_nO>
0

>  <a_nP>
0

>  <a_nS>
0

>  <balabanJ>
2.3237901

>  <BCUT_PEOE_0>
-1.9593228

>  <BCUT_PEOE_1>
-0.058883958

>  <BCUT_PEOE_2>
0.0020366814

>  <BCUT_PEOE_3>
2.0445936

>  <BCUT_SLOGP_0>
-1.825103

>  <BCUT_SLOGP_1>
0.4955948

>  <BCUT_SLOGP_2>
0.88569999

>  <BCUT_SLOGP_3>
2.3281608

>  <BCUT_SMR_0>
-1.4341142

>  <BCUT_SMR_1>
0.74638921

>  <BCUT_SMR_2>
1.402

>  <BCUT_SMR_3>
2.7963305

>  <bpol>
11.863207

>  <b_1rotN>
0

>  <b_1rotR>
0

>  <b_ar>
0

>  <b_count>
4

>  <b_double>
0

>  <b_heavy>
3

>  <b_max1len>
2

>  <b_rotN>
0

>  <b_rotR>
0

>  <b_single>
4

>  <b_triple>
0

>  <chi0>
3.5773504

>  <chi0v>
8.1837387

>  <chi0v_C>
0.57735026

>  <chi0_C>
0.57735026

>  <chi1>
1.7320508

>  <chi1v>
4.3915505

>  <chi1v_C>
0

>  <chi1_C>
0

>  <chiral>
0

>  <chiral_u>
0

>  <density>
2.8946164

>  <diameter>
2

>  <FCharge>
0

>  <GCUT_PEOE_0>
-0.62440801

>  <GCUT_PEOE_1>
-0.21888396

>  <GCUT_PEOE_2>
-0.15731701

>  <GCUT_PEOE_3>
1.1887095

>  <GCUT_SLOGP_0>
-0.66730291

>  <GCUT_SLOGP_1>
0.32337552

>  <GCUT_SLOGP_2>
0.72570002

>  <GCUT_SLOGP_3>
1.6686896

>  <GCUT_SMR_0>
-0.31723881

>  <GCUT_SMR_1>
0.59448367

>  <GCUT_SMR_2>
1.242

>  <GCUT_SMR_3>
2.1473134

>  <Kier1>
4

>  <Kier2>
1.3333334

>  <Kier3>
0

>  <KierA1>
30.419292

>  <KierA2>
18.389305

>  <KierA3>
0

>  <KierFlex>
139.84743

>  <lip_acc>
0

>  <lip_don>
0

>  <lip_druglike>
1

>  <lip_violation>
0

>  <logP(o/w)>
3.5320799

>  <logS>
-4.4518399

>  <mr>
4.5142751

>  <mutagenic>
1

>  <nmol>
1

>  <opr_brigid>
0

>  <opr_leadlike>
1

>  <opr_nring>
0

>  <opr_nrot>
0

>  <opr_violation>
0

>  <PC+>
0

>  <PC->
0

>  <PEOE_PC+>
0.17665188

>  <PEOE_PC->
-0.17665188

>  <PEOE_RPC+>
0.64403379

>  <PEOE_RPC->
0.33333334

>  <PEOE_VSA+0>
0

>  <PEOE_VSA+1>
4.2653861

>  <PEOE_VSA+2>
1.1496119

>  <PEOE_VSA+3>
0

>  <PEOE_VSA+4>
0

>  <PEOE_VSA+5>
0

>  <PEOE_VSA+6>
0

>  <PEOE_VSA-0>
0

>  <PEOE_VSA-1>
140.97005

>  <PEOE_VSA-2>
0

>  <PEOE_VSA-3>
0

>  <PEOE_VSA-4>
0

>  <PEOE_VSA-5>
0

>  <PEOE_VSA-6>
0

>  <PEOE_VSA_FHYD>
1

>  <PEOE_VSA_FNEG>
0.96300852

>  <PEOE_VSA_FPNEG>
0

>  <PEOE_VSA_FPOL>
0

>  <PEOE_VSA_FPOS>
0.03699147

>  <PEOE_VSA_FPPOS>
0

>  <PEOE_VSA_HYD>
146.38504

>  <PEOE_VSA_NEG>
140.97005

>  <PEOE_VSA_PNEG>
0

>  <PEOE_VSA_POL>
0

>  <PEOE_VSA_POS>
5.4149981

>  <PEOE_VSA_PPOS>
0

>  <petitjean>
0.5

>  <petitjeanSC>
1

>  <Q_PC+>
0

>  <Q_PC->
0

>  <Q_RPC+>
0

>  <Q_RPC->
0

>  <Q_VSA_FHYD>
1

>  <Q_VSA_FNEG>
0

>  <Q_VSA_FPNEG>
0

>  <Q_VSA_FPOL>
0

>  <Q_VSA_FPOS>
1

>  <Q_VSA_FPPOS>
0

>  <Q_VSA_HYD>
146.38504

>  <Q_VSA_NEG>
0

>  <Q_VSA_PNEG>
0

>  <Q_VSA_POL>
0

>  <Q_VSA_POS>
146.38504

>  <Q_VSA_PPOS>
0

>  <radius>
1

>  <reactive>
1

>  <rings>
0

>  <RPC+>
0

>  <RPC->
0

>  <rsynth>
1

>  <SlogP>
2.575

>  <SlogP_VSA0>
0

>  <SlogP_VSA1>
0

>  <SlogP_VSA2>
0

>  <SlogP_VSA3>
0

>  <SlogP_VSA4>
0

>  <SlogP_VSA5>
0

>  <SlogP_VSA6>
0

>  <SlogP_VSA7>
0

>  <SlogP_VSA8>
0

>  <SlogP_VSA9>
170.34602

>  <SMR>
4.5847998

>  <SMR_VSA0>
0

>  <SMR_VSA1>
0

>  <SMR_VSA2>
0

>  <SMR_VSA3>
0

>  <SMR_VSA4>
0

>  <SMR_VSA5>
0

>  <SMR_VSA6>
0

>  <SMR_VSA7>
170.34602

>  <TPSA>
0

>  <VAdjEq>
0.95443398

>  <VAdjMa>
2.5849626

>  <VDistEq>
1

>  <VDistMa>
3.5032582

>  <vdw_area>
146.38504

>  <vdw_vol>
136.02182

>  <vsa_acc>
0

>  <vsa_acid>
0

>  <vsa_base>
0

>  <vsa_don>
0

>  <vsa_hyd>
145.67325

>  <vsa_other>
0

>  <vsa_pol>
0

>  <Weight>
393.73099

>  <weinerPath>
9

>  <weinerPol>
0

>  <zagreb>
12

$$$$