O1[C@](O[C@H]2O[C@H](CO)[C@@H](O)[C@H](O)[C@H]2O)(CO)[C@@H](O)[C@H](O)[C@H]1CO
  MOE2013           2D

 23 24  0  0  1  0  0  0  0  0999 V2000
    0.0000    0.0000    0.0000 O   0  0  0  0  0  0  0  0  0  0  0  0
    0.6570   -1.3490    0.0000 C   0  0  2  0  0  0  0  0  0  0  0  0
   -0.6190   -2.1370    0.0000 O   0  0  0  0  0  0  0  0  0  0  0  0
   -1.9400   -1.4260    0.0000 C   0  0  1  0  0  0  0  0  0  0  0  0
   -1.9850    0.0730    0.0000 O   0  0  0  0  0  0  0  0  0  0  0  0
   -3.3060    0.7840    0.0000 C   0  0  2  0  0  0  0  0  0  0  0  0
   -3.3510    2.2830    0.0000 C   0  0  0  0  0  0  0  0  0  0  0  0
   -4.6720    2.9940    0.0000 O   0  0  0  0  0  0  0  0  0  0  0  0
   -4.5820   -0.0050    0.0000 C   0  0  1  0  0  0  0  0  0  0  0  0
   -5.9030    0.7060    0.0000 O   0  0  0  0  0  0  0  0  0  0  0  0
   -4.5370   -1.5040    0.0000 C   0  0  2  0  0  0  0  0  0  0  0  0
   -5.8130   -2.2920    0.0000 O   0  0  0  0  0  0  0  0  0  0  0  0
   -3.2160   -2.2150    0.0000 C   0  0  1  0  0  0  0  0  0  0  0  0
   -3.1720   -3.7140    0.0000 O   0  0  0  0  0  0  0  0  0  0  0  0
    0.7670   -2.8450    0.0000 C   0  0  0  0  0  0  0  0  0  0  0  0
    2.1170   -3.4970    0.0000 O   0  0  0  0  0  0  0  0  0  0  0  0
    2.1420   -1.1410    0.0000 C   0  0  1  0  0  0  0  0  0  0  0  0
    3.1830   -2.2210    0.0000 O   0  0  0  0  0  0  0  0  0  0  0  0
    2.4040    0.3360    0.0000 C   0  0  2  0  0  0  0  0  0  0  0  0
    3.7520    0.9930    0.0000 O   0  0  0  0  0  0  0  0  0  0  0  0
    1.0800    1.0410    0.0000 C   0  0  1  0  0  0  0  0  0  0  0  0
    0.8720    2.5270    0.0000 C   0  0  0  0  0  0  0  0  0  0  0  0
    2.0550    3.4500    0.0000 O   0  0  0  0  0  0  0  0  0  0  0  0
  1  2  1  0  0  0  0
  1 21  1  0  0  0  0
  2  3  1  6  0  0  0
  2 15  1  1  0  0  0
  2 17  1  0  0  0  0
  4  3  1  6  0  0  0
  4  5  1  0  0  0  0
  4 13  1  0  0  0  0
  5  6  1  0  0  0  0
  6  7  1  1  0  0  0
  6  9  1  0  0  0  0
  7  8  1  0  0  0  0
  9 10  1  6  0  0  0
  9 11  1  0  0  0  0
 11 12  1  1  0  0  0
 11 13  1  0  0  0  0
 13 14  1  6  0  0  0
 15 16  1  0  0  0  0
 17 18  1  6  0  0  0
 17 19  1  0  0  0  0
 19 20  1  1  0  0  0
 19 21  1  0  0  0  0
 21 22  1  6  0  0  0
 22 23  1  0  0  0  0
M  END
>  <Index>
567

>  <ID>
HT1126

>  <class>
0

>  <apol>
44.611446

>  <ast_fraglike>
0

>  <ast_fraglike_ext>
0

>  <ast_violation>
3

>  <ast_violation_ext>
5

>  <a_acc>
11

>  <a_acid>
0

>  <a_aro>
0

>  <a_base>
0

>  <a_count>
45

>  <a_don>
8

>  <a_donacc>
19

>  <a_heavy>
23

>  <a_hyd>
10

>  <a_IC>
67.952599

>  <a_ICM>
1.5100577

>  <a_nB>
0

>  <a_nBr>
0

>  <a_nC>
12

>  <a_nCl>
0

>  <a_nF>
0

>  <a_nH>
22

>  <a_nI>
0

>  <a_nN>
0

>  <a_nO>
11

>  <a_nP>
0

>  <a_nS>
0

>  <balabanJ>
2.1772697

>  <BCUT_PEOE_0>
-2.7184725

>  <BCUT_PEOE_1>
-0.73311818

>  <BCUT_PEOE_2>
0.75693756

>  <BCUT_PEOE_3>
2.8432038

>  <BCUT_SLOGP_0>
-2.9167998

>  <BCUT_SLOGP_1>
-0.87425137

>  <BCUT_SLOGP_2>
0.56277567

>  <BCUT_SLOGP_3>
2.6292994

>  <BCUT_SMR_0>
-2.5233934

>  <BCUT_SMR_1>
-0.6033929

>  <BCUT_SMR_2>
0.84034413

>  <BCUT_SMR_3>
3.0174718

>  <bpol>
29.798553

>  <b_1rotN>
5

>  <b_1rotR>
0.20833333

>  <b_ar>
0

>  <b_count>
46

>  <b_double>
0

>  <b_heavy>
24

>  <b_max1len>
6

>  <b_rotN>
5

>  <b_rotR>
0.20833333

>  <b_single>
46

>  <b_triple>
0

>  <chi0>
17.361443

>  <chi0v>
12.042576

>  <chi0v_C>
7.2401223

>  <chi0_C>
7.2401223

>  <chi1>
10.806897

>  <chi1v>
7.0494604

>  <chi1v_C>
3.4587252

>  <chi1_C>
3.4587252

>  <chiral>
9

>  <chiral_u>
0

>  <density>
0.90216821

>  <diameter>
10

>  <FCharge>
0

>  <GCUT_PEOE_0>
-0.79170889

>  <GCUT_PEOE_1>
-0.45143601

>  <GCUT_PEOE_2>
0.19729018

>  <GCUT_PEOE_3>
2.8436656

>  <GCUT_SLOGP_0>
-0.96357441

>  <GCUT_SLOGP_1>
-0.59686315

>  <GCUT_SLOGP_2>
-0.004385917

>  <GCUT_SLOGP_3>
2.6875477

>  <GCUT_SMR_0>
-0.53116488

>  <GCUT_SMR_1>
-0.28744861

>  <GCUT_SMR_2>
0.2385862

>  <GCUT_SMR_3>
3.0200536

>  <Kier1>
19.326389

>  <Kier2>
7.4861112

>  <Kier3>
3.3833141

>  <KierA1>
19.326389

>  <KierA2>
7.4861112

>  <KierA3>
3.3833141

>  <KierFlex>
6.2904129

>  <lip_acc>
11

>  <lip_don>
8

>  <lip_druglike>
0

>  <lip_violation>
2

>  <logP(o/w)>
-4.3660002

>  <logS>
1.3674901

>  <mr>
6.9150515

>  <mutagenic>
0

>  <nmol>
1

>  <opr_brigid>
11

>  <opr_leadlike>
0

>  <opr_nring>
2

>  <opr_nrot>
8

>  <opr_violation>
3

>  <PC+>
0

>  <PC->
0

>  <PEOE_PC+>
4.0905919

>  <PEOE_PC->
-4.0905919

>  <PEOE_RPC+>
0.055047955

>  <PEOE_RPC->
0.095919169

>  <PEOE_VSA+0>
0

>  <PEOE_VSA+1>
89.617989

>  <PEOE_VSA+2>
49.285793

>  <PEOE_VSA+3>
11.154908

>  <PEOE_VSA+4>
83.701927

>  <PEOE_VSA+5>
0

>  <PEOE_VSA+6>
0

>  <PEOE_VSA-0>
0

>  <PEOE_VSA-1>
0

>  <PEOE_VSA-2>
0

>  <PEOE_VSA-3>
0

>  <PEOE_VSA-4>
0

>  <PEOE_VSA-5>
0

>  <PEOE_VSA-6>
69.651588

>  <PEOE_VSA_FHYD>
0.49457037

>  <PEOE_VSA_FNEG>
0.22956094

>  <PEOE_VSA_FPNEG>
0.22956094

>  <PEOE_VSA_FPOL>
0.50542963

>  <PEOE_VSA_FPOS>
0.77043909

>  <PEOE_VSA_FPPOS>
0.27586868

>  <PEOE_VSA_HYD>
150.0587

>  <PEOE_VSA_NEG>
69.651588

>  <PEOE_VSA_PNEG>
69.651588

>  <PEOE_VSA_POL>
153.35352

>  <PEOE_VSA_POS>
233.76062

>  <PEOE_VSA_PPOS>
83.701927

>  <petitjean>
0.5

>  <petitjeanSC>
1

>  <Q_PC+>
0

>  <Q_PC->
0

>  <Q_RPC+>
0

>  <Q_RPC->
0

>  <Q_VSA_FHYD>
1

>  <Q_VSA_FNEG>
0

>  <Q_VSA_FPNEG>
0

>  <Q_VSA_FPOL>
0

>  <Q_VSA_FPOS>
1

>  <Q_VSA_FPPOS>
0

>  <Q_VSA_HYD>
303.4122

>  <Q_VSA_NEG>
0

>  <Q_VSA_PNEG>
0

>  <Q_VSA_POL>
0

>  <Q_VSA_POS>
303.4122

>  <Q_VSA_PPOS>
0

>  <radius>
5

>  <reactive>
1

>  <rings>
2

>  <RPC+>
0

>  <RPC->
0

>  <rsynth>
1

>  <SlogP>
-5.3955998

>  <SlogP_VSA0>
203.08182

>  <SlogP_VSA1>
0

>  <SlogP_VSA2>
86.806709

>  <SlogP_VSA3>
62.778774

>  <SlogP_VSA4>
0

>  <SlogP_VSA5>
0

>  <SlogP_VSA6>
0

>  <SlogP_VSA7>
0

>  <SlogP_VSA8>
0

>  <SlogP_VSA9>
0

>  <SMR>
6.86414

>  <SMR_VSA0>
32.999664

>  <SMR_VSA1>
203.08182

>  <SMR_VSA2>
0

>  <SMR_VSA3>
53.807049

>  <SMR_VSA4>
0

>  <SMR_VSA5>
0

>  <SMR_VSA6>
62.778774

>  <SMR_VSA7>
0

>  <TPSA>
189.53

>  <VAdjEq>
0.43892586

>  <VAdjMa>
5.5849624

>  <VDistEq>
3.0969872

>  <VDistMa>
8.7863045

>  <vdw_area>
303.4122

>  <vdw_vol>
379.41592

>  <vsa_acc>
7.5112681

>  <vsa_acid>
0

>  <vsa_base>
0

>  <vsa_don>
0

>  <vsa_hyd>
125.38506

>  <vsa_other>
15.817043

>  <vsa_pol>
116.04664

>  <Weight>
342.297

>  <weinerPath>
1110

>  <weinerPol>
43

>  <zagreb>
120

$$$$