S1C[C@H](O[C@H]1CO)N1C=CC(=NC1=O)N
  MOE2013           2D

 15 16  0  0  1  0  0  0  0  0999 V2000
    0.0000    0.0000    0.0000 S   0  0  0  0  0  0  0  0  0  0  0  0
   -1.4720    0.2870    0.0000 C   0  0  0  0  0  0  0  0  0  0  0  0
   -2.2010   -1.0240    0.0000 C   0  0  2  0  0  0  0  0  0  0  0  0
   -1.1780   -2.1220    0.0000 O   0  0  0  0  0  0  0  0  0  0  0  0
    0.1820   -1.4890    0.0000 C   0  0  1  0  0  0  0  0  0  0  0  0
    1.4930   -2.2170    0.0000 C   0  0  0  0  0  0  0  0  0  0  0  0
    2.7790   -1.4460    0.0000 O   0  0  0  0  0  0  0  0  0  0  0  0
   -3.6900   -1.2050    0.0000 N   0  0  0  0  0  0  0  0  0  0  0  0
   -4.2770   -2.5860    0.0000 C   0  0  0  0  0  0  0  0  0  0  0  0
   -5.7660   -2.7670    0.0000 C   0  0  0  0  0  0  0  0  0  0  0  0
   -6.6670   -1.5680    0.0000 C   0  0  0  0  0  0  0  0  0  0  0  0
   -6.0800   -0.1880    0.0000 N   0  0  0  0  0  0  0  0  0  0  0  0
   -4.5910   -0.0070    0.0000 C   0  0  0  0  0  0  0  0  0  0  0  0
   -4.0040    1.3740    0.0000 O   0  0  0  0  0  0  0  0  0  0  0  0
   -8.1560   -1.7500    0.0000 N   0  0  0  0  0  0  0  0  0  0  0  0
  1  2  1  0  0  0  0
  1  5  1  0  0  0  0
  2  3  1  0  0  0  0
  3  4  1  0  0  0  0
  3  8  1  6  0  0  0
  4  5  1  0  0  0  0
  5  6  1  6  0  0  0
  6  7  1  0  0  0  0
  8  9  1  0  0  0  0
  8 13  1  0  0  0  0
  9 10  2  0  0  0  0
 10 11  1  0  0  0  0
 11 12  2  0  0  0  0
 11 15  1  0  0  0  0
 12 13  1  0  0  0  0
 13 14  2  0  0  0  0
M  END
>  <Index>
591

>  <ID>
HT1168

>  <class>
0

>  <apol>
30.020723

>  <ast_fraglike>
0

>  <ast_fraglike_ext>
0

>  <ast_violation>
1

>  <ast_violation_ext>
1

>  <a_acc>
4

>  <a_acid>
0

>  <a_aro>
0

>  <a_base>
0

>  <a_count>
26

>  <a_don>
2

>  <a_donacc>
6

>  <a_heavy>
15

>  <a_hyd>
6

>  <a_IC>
50.647911

>  <a_ICM>
1.9479965

>  <a_nB>
0

>  <a_nBr>
0

>  <a_nC>
8

>  <a_nCl>
0

>  <a_nF>
0

>  <a_nH>
11

>  <a_nI>
0

>  <a_nN>
3

>  <a_nO>
3

>  <a_nP>
0

>  <a_nS>
1

>  <balabanJ>
1.8893464

>  <BCUT_PEOE_0>
-2.4682431

>  <BCUT_PEOE_1>
-0.55609787

>  <BCUT_PEOE_2>
0.61437082

>  <BCUT_PEOE_3>
2.6449602

>  <BCUT_SLOGP_0>
-2.6178224

>  <BCUT_SLOGP_1>
-0.55758387

>  <BCUT_SLOGP_2>
0.55744964

>  <BCUT_SLOGP_3>
2.5873544

>  <BCUT_SMR_0>
-2.2161791

>  <BCUT_SMR_1>
-0.40326372

>  <BCUT_SMR_2>
0.74265057

>  <BCUT_SMR_3>
2.9243722

>  <bpol>
19.819277

>  <b_1rotN>
2

>  <b_1rotR>
0.125

>  <b_ar>
0

>  <b_count>
27

>  <b_double>
3

>  <b_heavy>
16

>  <b_max1len>
4

>  <b_rotN>
2

>  <b_rotR>
0.125

>  <b_single>
24

>  <b_triple>
0

>  <chi0>
10.836499

>  <chi0v>
8.6838474

>  <chi0v_C>
4.7236147

>  <chi0_C>
5.1378284

>  <chi1>
7.2027087

>  <chi1v>
5.4792871

>  <chi1v_C>
1.4385051

>  <chi1_C>
1.7247449

>  <chiral>
2

>  <chiral_u>
0

>  <density>
0.88039076

>  <diameter>
9

>  <FCharge>
0

>  <GCUT_PEOE_0>
-0.84333575

>  <GCUT_PEOE_1>
-0.42449659

>  <GCUT_PEOE_2>
0.13390584

>  <GCUT_PEOE_3>
2.353559

>  <GCUT_SLOGP_0>
-1.3703718

>  <GCUT_SLOGP_1>
-0.41360712

>  <GCUT_SLOGP_2>
0.14377537

>  <GCUT_SLOGP_3>
2.3265629

>  <GCUT_SMR_0>
-0.51998782

>  <GCUT_SMR_1>
-0.21734917

>  <GCUT_SMR_2>
0.23367642

>  <GCUT_SMR_3>
2.6275752

>  <Kier1>
11.484375

>  <Kier2>
4.8884296

>  <Kier3>
2.5714285

>  <KierA1>
9.8809643

>  <KierA2>
4.1573491

>  <KierA3>
2.1661696

>  <KierFlex>
2.7385747

>  <lip_acc>
6

>  <lip_don>
3

>  <lip_druglike>
1

>  <lip_violation>
0

>  <logP(o/w)>
-0.75199997

>  <logS>
-1.3501

>  <mr>
5.4889779

>  <mutagenic>
0

>  <nmol>
1

>  <opr_brigid>
11

>  <opr_leadlike>
1

>  <opr_nring>
2

>  <opr_nrot>
3

>  <opr_violation>
0

>  <PC+>
0

>  <PC->
0

>  <PEOE_PC+>
1.9332347

>  <PEOE_PC->
-1.9332347

>  <PEOE_RPC+>
0.18221983

>  <PEOE_RPC->
0.20255974

>  <PEOE_VSA+0>
35.954063

>  <PEOE_VSA+1>
40.54361

>  <PEOE_VSA+2>
27.467493

>  <PEOE_VSA+3>
17.238026

>  <PEOE_VSA+4>
10.324173

>  <PEOE_VSA+5>
0

>  <PEOE_VSA+6>
17.440542

>  <PEOE_VSA-0>
12.254904

>  <PEOE_VSA-1>
0

>  <PEOE_VSA-2>
19.760618

>  <PEOE_VSA-3>
5.6825762

>  <PEOE_VSA-4>
13.566921

>  <PEOE_VSA-5>
0

>  <PEOE_VSA-6>
16.922417

>  <PEOE_VSA_FHYD>
0.73174018

>  <PEOE_VSA_FNEG>
0.31400302

>  <PEOE_VSA_FPNEG>
0.14040335

>  <PEOE_VSA_FPOL>
0.26825982

>  <PEOE_VSA_FPOS>
0.68599695

>  <PEOE_VSA_FPPOS>
0.12785646

>  <PEOE_VSA_HYD>
158.90129

>  <PEOE_VSA_NEG>
68.187431

>  <PEOE_VSA_PNEG>
30.489336

>  <PEOE_VSA_POL>
58.254051

>  <PEOE_VSA_POS>
148.96791

>  <PEOE_VSA_PPOS>
27.764715

>  <petitjean>
0.44444445

>  <petitjeanSC>
0.80000001

>  <Q_PC+>
0

>  <Q_PC->
0

>  <Q_RPC+>
0

>  <Q_RPC->
0

>  <Q_VSA_FHYD>
1

>  <Q_VSA_FNEG>
0

>  <Q_VSA_FPNEG>
0

>  <Q_VSA_FPOL>
0

>  <Q_VSA_FPOS>
1

>  <Q_VSA_FPPOS>
0

>  <Q_VSA_HYD>
217.15533

>  <Q_VSA_NEG>
0

>  <Q_VSA_PNEG>
0

>  <Q_VSA_POL>
0

>  <Q_VSA_POS>
217.15533

>  <Q_VSA_PPOS>
0

>  <radius>
5

>  <reactive>
1

>  <rings>
2

>  <RPC+>
0

>  <RPC->
0

>  <rsynth>
1

>  <SlogP>
-0.2992

>  <SlogP_VSA0>
58.282413

>  <SlogP_VSA1>
10.28219

>  <SlogP_VSA2>
21.873518

>  <SlogP_VSA3>
38.159824

>  <SlogP_VSA4>
0

>  <SlogP_VSA5>
16.78553

>  <SlogP_VSA6>
0

>  <SlogP_VSA7>
34.85754

>  <SlogP_VSA8>
0

>  <SlogP_VSA9>
56.081757

>  <SMR>
5.6203198

>  <SMR_VSA0>
34.862103

>  <SMR_VSA1>
45.295071

>  <SMR_VSA2>
0

>  <SMR_VSA3>
10.873631

>  <SMR_VSA4>
32.897186

>  <SMR_VSA5>
34.85754

>  <SMR_VSA6>
45.317699

>  <SMR_VSA7>
32.21954

>  <TPSA>
88.150002

>  <VAdjEq>
0.59002918

>  <VAdjMa>
5

>  <VDistEq>
2.837183

>  <VDistMa>
7.4991851

>  <vdw_area>
217.15533

>  <vdw_vol>
260.4071

>  <vsa_acc>
21.753254

>  <vsa_acid>
0

>  <vsa_base>
0

>  <vsa_don>
17.742489

>  <vsa_hyd>
106.14623

>  <vsa_other>
41.580635

>  <vsa_pol>
53.062664

>  <Weight>
229.25999

>  <weinerPath>
369

>  <weinerPol>
20

>  <zagreb>
76

$$$$