O=C(N)C1(c2c(-c3c1cccc3)cccc2)CCCNC(C)C
  MOE2013           2D

 23 25  0  0  0  0  0  0  0  0999 V2000
    0.0000    0.0000    0.0000 O   0  0  0  0  0  0  0  0  0  0  0  0
    1.4490    0.3870    0.0000 C   0  0  0  0  0  0  0  0  0  0  0  0
    2.5090   -0.6750    0.0000 N   0  0  0  0  0  0  0  0  0  0  0  0
    1.8390    1.8350    0.0000 C   0  0  0  0  0  0  0  0  0  0  0  0
    0.4130    2.3000    0.0000 C   0  0  0  0  0  0  0  0  0  0  0  0
    0.4150    3.8000    0.0000 C   0  0  0  0  0  0  0  0  0  0  0  0
    1.8420    4.2620    0.0000 C   0  0  0  0  0  0  0  0  0  0  0  0
    2.7220    3.0470    0.0000 C   0  0  0  0  0  0  0  0  0  0  0  0
    4.2140    3.2020    0.0000 C   0  0  0  0  0  0  0  0  0  0  0  0
    4.8260    4.5720    0.0000 C   0  0  0  0  0  0  0  0  0  0  0  0
    3.9460    5.7870    0.0000 C   0  0  0  0  0  0  0  0  0  0  0  0
    2.4540    5.6320    0.0000 C   0  0  0  0  0  0  0  0  0  0  0  0
   -0.8830    4.5520    0.0000 C   0  0  0  0  0  0  0  0  0  0  0  0
   -2.1830    3.8030    0.0000 C   0  0  0  0  0  0  0  0  0  0  0  0
   -2.1850    2.3030    0.0000 C   0  0  0  0  0  0  0  0  0  0  0  0
   -0.8870    1.5520    0.0000 C   0  0  0  0  0  0  0  0  0  0  0  0
    2.9350    0.8110    0.0000 C   0  0  0  0  0  0  0  0  0  0  0  0
    4.3700    1.2470    0.0000 C   0  0  0  0  0  0  0  0  0  0  0  0
    5.4660    0.2230    0.0000 C   0  0  0  0  0  0  0  0  0  0  0  0
    6.9010    0.6600    0.0000 N   0  0  0  0  0  0  0  0  0  0  0  0
    7.9970   -0.3640    0.0000 C   0  0  0  0  0  0  0  0  0  0  0  0
    7.6580   -1.8250    0.0000 C   0  0  0  0  0  0  0  0  0  0  0  0
    9.4320    0.0730    0.0000 C   0  0  0  0  0  0  0  0  0  0  0  0
  1  2  2  0  0  0  0
  2  3  1  0  0  0  0
  2  4  1  0  0  0  0
  4  5  1  0  0  0  0
  4  8  1  0  0  0  0
  4 17  1  0  0  0  0
  5  6  1  0  0  0  0
  5 16  2  0  0  0  0
  6  7  1  0  0  0  0
  6 13  2  0  0  0  0
  7  8  1  0  0  0  0
  7 12  2  0  0  0  0
  8  9  2  0  0  0  0
  9 10  1  0  0  0  0
 10 11  2  0  0  0  0
 11 12  1  0  0  0  0
 13 14  1  0  0  0  0
 14 15  2  0  0  0  0
 15 16  1  0  0  0  0
 17 18  1  0  0  0  0
 18 19  1  0  0  0  0
 19 20  1  0  0  0  0
 20 21  1  0  0  0  0
 21 22  1  0  0  0  0
 21 23  1  0  0  0  0
M  END
>  <Index>
554

>  <ID>
HT1090

>  <class>
0

>  <apol>
54.205032

>  <ast_fraglike>
0

>  <ast_fraglike_ext>
0

>  <ast_violation>
2

>  <ast_violation_ext>
3

>  <a_acc>
2

>  <a_acid>
0

>  <a_aro>
12

>  <a_base>
0

>  <a_count>
47

>  <a_don>
2

>  <a_donacc>
4

>  <a_heavy>
23

>  <a_hyd>
19

>  <a_IC>
62.588013

>  <a_ICM>
1.3316599

>  <a_nB>
0

>  <a_nBr>
0

>  <a_nC>
20

>  <a_nCl>
0

>  <a_nF>
0

>  <a_nH>
24

>  <a_nI>
0

>  <a_nN>
2

>  <a_nO>
1

>  <a_nP>
0

>  <a_nS>
0

>  <balabanJ>
1.8018799

>  <BCUT_PEOE_0>
-2.6805379

>  <BCUT_PEOE_1>
-0.54622757

>  <BCUT_PEOE_2>
0.58829159

>  <BCUT_PEOE_3>
2.6657412

>  <BCUT_SLOGP_0>
-2.764931

>  <BCUT_SLOGP_1>
-0.48326397

>  <BCUT_SLOGP_2>
0.67241365

>  <BCUT_SLOGP_3>
2.701674

>  <BCUT_SMR_0>
-2.4135993

>  <BCUT_SMR_1>
-0.40096638

>  <BCUT_SMR_2>
0.72957355

>  <BCUT_SMR_3>
2.9333138

>  <bpol>
27.194967

>  <b_1rotN>
6

>  <b_1rotR>
0.23999999

>  <b_ar>
12

>  <b_count>
49

>  <b_double>
1

>  <b_heavy>
25

>  <b_max1len>
8

>  <b_rotN>
6

>  <b_rotR>
0.23999999

>  <b_single>
36

>  <b_triple>
0

>  <chi0>
16.449383

>  <chi0v>
13.803071

>  <chi0v_C>
12.317472

>  <chi0_C>
13.742276

>  <chi1>
11.070221

>  <chi1v>
8.2979822

>  <chi1v_C>
7.1629543

>  <chi1_C>
9.0072727

>  <chiral>
0

>  <chiral_u>
0

>  <density>
0.67412579

>  <diameter>
10

>  <FCharge>
0

>  <GCUT_PEOE_0>
-0.85243642

>  <GCUT_PEOE_1>
-0.37501353

>  <GCUT_PEOE_2>
0.062075291

>  <GCUT_PEOE_3>
2.8226323

>  <GCUT_SLOGP_0>
-1.3706415

>  <GCUT_SLOGP_1>
-0.28334031

>  <GCUT_SLOGP_2>
0.14032321

>  <GCUT_SLOGP_3>
2.9008789

>  <GCUT_SMR_0>
-0.52295327

>  <GCUT_SMR_1>
-0.20195304

>  <GCUT_SMR_2>
0.16552678

>  <GCUT_SMR_3>
3.1008365

>  <Kier1>
17.811199

>  <Kier2>
7.4861112

>  <Kier3>
3.2544379

>  <KierA1>
13.380568

>  <KierA2>
5.5450788

>  <KierA3>
2.3848855

>  <KierFlex>
3.2259262

>  <lip_acc>
3

>  <lip_don>
3

>  <lip_druglike>
1

>  <lip_violation>
0

>  <logP(o/w)>
4.3590002

>  <logS>
-4.82127

>  <mr>
9.4000864

>  <mutagenic>
0

>  <nmol>
1

>  <opr_brigid>
15

>  <opr_leadlike>
1

>  <opr_nring>
3

>  <opr_nrot>
6

>  <opr_violation>
0

>  <PC+>
0

>  <PC->
0

>  <PEOE_PC+>
1.6593738

>  <PEOE_PC->
-1.6593738

>  <PEOE_RPC+>
0.14062695

>  <PEOE_RPC->
0.22227079

>  <PEOE_VSA+0>
58.595978

>  <PEOE_VSA+1>
34.123089

>  <PEOE_VSA+2>
8.6190128

>  <PEOE_VSA+3>
17.238026

>  <PEOE_VSA+4>
12.949531

>  <PEOE_VSA+5>
0

>  <PEOE_VSA+6>
0

>  <PEOE_VSA-0>
76.924461

>  <PEOE_VSA-1>
98.03923

>  <PEOE_VSA-2>
0

>  <PEOE_VSA-3>
0

>  <PEOE_VSA-4>
0

>  <PEOE_VSA-5>
13.566921

>  <PEOE_VSA-6>
6.7880106

>  <PEOE_VSA_FHYD>
0.89810294

>  <PEOE_VSA_FNEG>
0.59758925

>  <PEOE_VSA_FPNEG>
0.062277157

>  <PEOE_VSA_FPOL>
0.10189704

>  <PEOE_VSA_FPOS>
0.40241072

>  <PEOE_VSA_FPPOS>
0.039619882

>  <PEOE_VSA_HYD>
293.53979

>  <PEOE_VSA_NEG>
195.31863

>  <PEOE_VSA_PNEG>
20.354931

>  <PEOE_VSA_POL>
33.304462

>  <PEOE_VSA_POS>
131.52563

>  <PEOE_VSA_PPOS>
12.949531

>  <petitjean>
0.5

>  <petitjeanSC>
1

>  <Q_PC+>
0

>  <Q_PC->
0

>  <Q_RPC+>
0

>  <Q_RPC->
0

>  <Q_VSA_FHYD>
1

>  <Q_VSA_FNEG>
0

>  <Q_VSA_FPNEG>
0

>  <Q_VSA_FPOL>
0

>  <Q_VSA_FPOS>
1

>  <Q_VSA_FPPOS>
0

>  <Q_VSA_HYD>
326.84427

>  <Q_VSA_NEG>
0

>  <Q_VSA_PNEG>
0

>  <Q_VSA_POL>
0

>  <Q_VSA_POS>
326.84427

>  <Q_VSA_PPOS>
0

>  <radius>
5

>  <reactive>
0

>  <rings>
3

>  <RPC+>
0

>  <RPC->
0

>  <rsynth>
0.043478262

>  <SlogP>
3.2165999

>  <SlogP_VSA0>
50.90794

>  <SlogP_VSA1>
5.2587838

>  <SlogP_VSA2>
27.844185

>  <SlogP_VSA3>
18.439579

>  <SlogP_VSA4>
6.37115

>  <SlogP_VSA5>
0

>  <SlogP_VSA6>
0

>  <SlogP_VSA7>
147.51663

>  <SlogP_VSA8>
37.736813

>  <SlogP_VSA9>
66.652031

>  <SMR>
9.4225101

>  <SMR_VSA0>
23.862217

>  <SMR_VSA1>
0

>  <SMR_VSA2>
18.01075

>  <SMR_VSA3>
10.353119

>  <SMR_VSA4>
39.268337

>  <SMR_VSA5>
178.88228

>  <SMR_VSA6>
23.698362

>  <SMR_VSA7>
66.652031

>  <TPSA>
55.119999

>  <VAdjEq>
0.45137304

>  <VAdjMa>
5.643856

>  <VDistEq>
3.1242929

>  <VDistMa>
8.7769203

>  <vdw_area>
326.84427

>  <vdw_vol>
457.51846

>  <vsa_acc>
13.566921

>  <vsa_acid>
0

>  <vsa_base>
0

>  <vsa_don>
17.742489

>  <vsa_hyd>
252.73506

>  <vsa_other>
12.949531

>  <vsa_pol>
36.991985

>  <Weight>
308.42499

>  <weinerPath>
1107

>  <weinerPol>
41

>  <zagreb>
122

$$$$