O(CC(O)CNC(C)C)c1ccccc1CC=C
  MOE2013           2D

 18 18  0  0  1  0  0  0  0  0999 V2000
    0.0000    0.0000    0.0000 O   0  0  0  0  0  0  0  0  0  0  0  0
    1.5000   -0.0020    0.0000 C   0  0  0  0  0  0  0  0  0  0  0  0
    2.2480   -1.3030    0.0000 C   0  0  3  0  0  0  0  0  0  0  0  0
    1.4960   -2.6000    0.0000 O   0  0  0  0  0  0  0  0  0  0  0  0
    3.7480   -1.3050    0.0000 C   0  0  0  0  0  0  0  0  0  0  0  0
    4.4960   -2.6050    0.0000 N   0  0  0  0  0  0  0  0  0  0  0  0
    5.9960   -2.6080    0.0000 C   0  0  0  0  0  0  0  0  0  0  0  0
    6.7440   -3.9080    0.0000 C   0  0  0  0  0  0  0  0  0  0  0  0
    6.7480   -1.3100    0.0000 C   0  0  0  0  0  0  0  0  0  0  0  0
   -0.7480    1.3000    0.0000 C   0  0  0  0  0  0  0  0  0  0  0  0
    0.0040    2.5980    0.0000 C   0  0  0  0  0  0  0  0  0  0  0  0
   -0.7440    3.8980    0.0000 C   0  0  0  0  0  0  0  0  0  0  0  0
   -2.2440    3.9010    0.0000 C   0  0  0  0  0  0  0  0  0  0  0  0
   -2.9960    2.6030    0.0000 C   0  0  0  0  0  0  0  0  0  0  0  0
   -2.2480    1.3030    0.0000 C   0  0  0  0  0  0  0  0  0  0  0  0
   -3.0000    0.0050    0.0000 C   0  0  0  0  0  0  0  0  0  0  0  0
   -4.5000    0.0070    0.0000 C   0  0  0  0  0  0  0  0  0  0  0  0
   -5.2520   -1.2910    0.0000 C   0  0  0  0  0  0  0  0  0  0  0  0
  1  2  1  0  0  0  0
  1 10  1  0  0  0  0
  2  3  1  0  0  0  0
  3  4  1  0  0  0  0
  3  5  1  0  0  0  0
  5  6  1  0  0  0  0
  6  7  1  0  0  0  0
  7  8  1  0  0  0  0
  7  9  1  0  0  0  0
 10 11  1  0  0  0  0
 10 15  2  0  0  0  0
 11 12  2  0  0  0  0
 12 13  1  0  0  0  0
 13 14  2  0  0  0  0
 14 15  1  0  0  0  0
 15 16  1  0  0  0  0
 16 17  1  0  0  0  0
 17 18  2  0  0  0  0
M  END
>  <Index>
52

>  <ID>
HT0114

>  <class>
0

>  <apol>
44.440239

>  <ast_fraglike>
1

>  <ast_fraglike_ext>
0

>  <ast_violation>
0

>  <ast_violation_ext>
1

>  <a_acc>
3

>  <a_acid>
0

>  <a_aro>
6

>  <a_base>
0

>  <a_count>
41

>  <a_don>
2

>  <a_donacc>
5

>  <a_heavy>
18

>  <a_hyd>
15

>  <a_IC>
55.014347

>  <a_ICM>
1.3418133

>  <a_nB>
0

>  <a_nBr>
0

>  <a_nC>
15

>  <a_nCl>
0

>  <a_nF>
0

>  <a_nH>
23

>  <a_nI>
0

>  <a_nN>
1

>  <a_nO>
2

>  <a_nP>
0

>  <a_nS>
0

>  <balabanJ>
2.2293921

>  <BCUT_PEOE_0>
-2.6559737

>  <BCUT_PEOE_1>
-0.52232009

>  <BCUT_PEOE_2>
0.59493023

>  <BCUT_PEOE_3>
2.5987844

>  <BCUT_SLOGP_0>
-2.8164194

>  <BCUT_SLOGP_1>
-0.50389832

>  <BCUT_SLOGP_2>
0.64290202

>  <BCUT_SLOGP_3>
2.5249941

>  <BCUT_SMR_0>
-2.3946135

>  <BCUT_SMR_1>
-0.40749064

>  <BCUT_SMR_2>
0.70662647

>  <BCUT_SMR_3>
2.845526

>  <bpol>
27.719761

>  <b_1rotN>
8

>  <b_1rotR>
0.44444445

>  <b_ar>
6

>  <b_count>
41

>  <b_double>
1

>  <b_heavy>
18

>  <b_max1len>
7

>  <b_rotN>
8

>  <b_rotR>
0.44444445

>  <b_single>
34

>  <b_triple>
0

>  <chi0>
13.380469

>  <chi0v>
11.225341

>  <chi0v_C>
9.8698788

>  <chi0_C>
10.966255

>  <chi1>
8.630229

>  <chi1v>
6.361824

>  <chi1v_C>
4.9685974

>  <chi1_C>
6.236382

>  <chiral>
1

>  <chiral_u>
1

>  <density>
0.65914077

>  <diameter>
11

>  <FCharge>
0

>  <GCUT_PEOE_0>
-0.84582514

>  <GCUT_PEOE_1>
-0.35797489

>  <GCUT_PEOE_2>
0.071704656

>  <GCUT_PEOE_3>
2.4924271

>  <GCUT_SLOGP_0>
-1.1534563

>  <GCUT_SLOGP_1>
-0.32943445

>  <GCUT_SLOGP_2>
0.13786264

>  <GCUT_SLOGP_3>
2.5352452

>  <GCUT_SMR_0>
-0.52164584

>  <GCUT_SMR_1>
-0.20753804

>  <GCUT_SMR_2>
0.15865654

>  <GCUT_SMR_3>
2.7397201

>  <Kier1>
16.055555

>  <Kier2>
8.9917355

>  <Kier3>
6.6666665

>  <KierA1>
13.333575

>  <KierA2>
7.3799038

>  <KierA3>
5.4240804

>  <KierFlex>
5.4666948

>  <lip_acc>
3

>  <lip_don>
2

>  <lip_druglike>
1

>  <lip_violation>
0

>  <logP(o/w)>
2.6210001

>  <logS>
-2.8122399

>  <mr>
7.5042291

>  <mutagenic>
0

>  <nmol>
1

>  <opr_brigid>
7

>  <opr_leadlike>
1

>  <opr_nring>
1

>  <opr_nrot>
8

>  <opr_violation>
0

>  <PC+>
0

>  <PC->
0

>  <PEOE_PC+>
1.5590848

>  <PEOE_PC->
-1.5590848

>  <PEOE_RPC+>
0.13465048

>  <PEOE_RPC->
0.24901636

>  <PEOE_VSA+0>
63.25753

>  <PEOE_VSA+1>
70.968605

>  <PEOE_VSA+2>
8.6190128

>  <PEOE_VSA+3>
0

>  <PEOE_VSA+4>
10.324173

>  <PEOE_VSA+5>
0

>  <PEOE_VSA+6>
0

>  <PEOE_VSA-0>
60.66011

>  <PEOE_VSA-1>
49.019615

>  <PEOE_VSA-2>
22.301268

>  <PEOE_VSA-3>
0

>  <PEOE_VSA-4>
0

>  <PEOE_VSA-5>
0

>  <PEOE_VSA-6>
10.408187

>  <PEOE_VSA_FHYD>
0.92985362

>  <PEOE_VSA_FNEG>
0.48176312

>  <PEOE_VSA_FPNEG>
0.035215322

>  <PEOE_VSA_FPOL>
0.070146382

>  <PEOE_VSA_FPOS>
0.51823688

>  <PEOE_VSA_FPPOS>
0.034931064

>  <PEOE_VSA_HYD>
274.82614

>  <PEOE_VSA_NEG>
142.38919

>  <PEOE_VSA_PNEG>
10.408187

>  <PEOE_VSA_POL>
20.732361

>  <PEOE_VSA_POS>
153.16931

>  <PEOE_VSA_PPOS>
10.324173

>  <petitjean>
0.45454547

>  <petitjeanSC>
0.83333331

>  <Q_PC+>
0

>  <Q_PC->
0

>  <Q_RPC+>
0

>  <Q_RPC->
0

>  <Q_VSA_FHYD>
1

>  <Q_VSA_FNEG>
0

>  <Q_VSA_FPNEG>
0

>  <Q_VSA_FPOL>
0

>  <Q_VSA_FPOS>
1

>  <Q_VSA_FPPOS>
0

>  <Q_VSA_HYD>
295.5585

>  <Q_VSA_NEG>
0

>  <Q_VSA_PNEG>
0

>  <Q_VSA_POL>
0

>  <Q_VSA_POS>
295.5585

>  <Q_VSA_PPOS>
0

>  <radius>
6

>  <reactive>
0

>  <rings>
1

>  <RPC+>
0

>  <RPC->
0

>  <rsynth>
1

>  <SlogP>
2.15277

>  <SlogP_VSA0>
54.395866

>  <SlogP_VSA1>
0

>  <SlogP_VSA2>
10.450618

>  <SlogP_VSA3>
39.365837

>  <SlogP_VSA4>
3.185575

>  <SlogP_VSA5>
18.868406

>  <SlogP_VSA6>
0

>  <SlogP_VSA7>
88.215919

>  <SlogP_VSA8>
0

>  <SlogP_VSA9>
103.99625

>  <SMR>
7.4983501

>  <SMR_VSA0>
0

>  <SMR_VSA1>
36.385113

>  <SMR_VSA2>
18.01075

>  <SMR_VSA3>
18.879622

>  <SMR_VSA4>
0

>  <SMR_VSA5>
107.08433

>  <SMR_VSA6>
39.365837

>  <SMR_VSA7>
98.752823

>  <TPSA>
41.490002

>  <VAdjEq>
0.50325835

>  <VAdjMa>
5.1699252

>  <VDistEq>
3.2793376

>  <VDistMa>
8.0153818

>  <vdw_area>
295.5585

>  <vdw_vol>
378.30157

>  <vsa_acc>
2.503756

>  <vsa_acid>
0

>  <vsa_base>
0

>  <vsa_don>
0

>  <vsa_hyd>
251.25943

>  <vsa_other>
0

>  <vsa_pol>
21.753254

>  <Weight>
249.35399

>  <weinerPath>
711

>  <weinerPol>
21

>  <zagreb>
80

$$$$