NC(N)=N
  MOE2013           2D

  4  3  0  0  0  0  0  0  0  0999 V2000
    0.0000    0.0000    0.0000 N   0  0  0  0  0  0  0  0  0  0  0  0
   -1.5000    0.0000    0.0000 C   0  0  0  0  0  0  0  0  0  0  0  0
   -2.2500    1.2990    0.0000 N   0  0  0  0  0  0  0  0  0  0  0  0
   -2.2500   -1.2990    0.0000 N   0  0  0  0  0  0  0  0  0  0  0  0
  1  2  1  0  0  0  0
  2  3  1  0  0  0  0
  2  4  2  0  0  0  0
M  END
>  <Index>
508

>  <ID>
HT1011

>  <class>
0

>  <apol>
8.3939648

>  <ast_fraglike>
1

>  <ast_fraglike_ext>
1

>  <ast_violation>
0

>  <ast_violation_ext>
0

>  <a_acc>
1

>  <a_acid>
0

>  <a_aro>
0

>  <a_base>
0

>  <a_count>
9

>  <a_don>
3

>  <a_donacc>
4

>  <a_heavy>
4

>  <a_hyd>
0

>  <a_IC>
12.164797

>  <a_ICM>
1.3516442

>  <a_nB>
0

>  <a_nBr>
0

>  <a_nC>
1

>  <a_nCl>
0

>  <a_nF>
0

>  <a_nH>
5

>  <a_nI>
0

>  <a_nN>
3

>  <a_nO>
0

>  <a_nP>
0

>  <a_nS>
0

>  <balabanJ>
2.5914834

>  <BCUT_PEOE_0>
-2.1957667

>  <BCUT_PEOE_1>
-0.27574527

>  <BCUT_PEOE_2>
0.46638292

>  <BCUT_PEOE_3>
2.0108407

>  <BCUT_SLOGP_0>
-2.645529

>  <BCUT_SLOGP_1>
-0.32660106

>  <BCUT_SLOGP_2>
0.52292943

>  <BCUT_SLOGP_3>
1.7022507

>  <BCUT_SMR_0>
-1.8231149

>  <BCUT_SMR_1>
-0.24511132

>  <BCUT_SMR_2>
0.57811785

>  <BCUT_SMR_3>
2.3692241

>  <bpol>
4.1460352

>  <b_1rotN>
0

>  <b_1rotR>
0

>  <b_ar>
0

>  <b_count>
8

>  <b_double>
1

>  <b_heavy>
3

>  <b_max1len>
2

>  <b_rotN>
0

>  <b_rotR>
0

>  <b_single>
7

>  <b_triple>
0

>  <chi0>
3.5773504

>  <chi0v>
2.1547005

>  <chi0v_C>
0.5

>  <chi0_C>
0.57735026

>  <chi1>
1.7320508

>  <chi1v>
0.82735026

>  <chi1v_C>
0

>  <chi1_C>
0

>  <chiral>
0

>  <chiral_u>
0

>  <density>
0.7823683

>  <diameter>
2

>  <FCharge>
0

>  <GCUT_PEOE_0>
-0.84248811

>  <GCUT_PEOE_1>
-0.25008976

>  <GCUT_PEOE_2>
0.12739395

>  <GCUT_PEOE_3>
1.4518499

>  <GCUT_SLOGP_0>
-1.3837619

>  <GCUT_SLOGP_1>
-0.30507445

>  <GCUT_SLOGP_2>
0.18912071

>  <GCUT_SLOGP_3>
1.281135

>  <GCUT_SMR_0>
-0.43441385

>  <GCUT_SMR_1>
-0.16182218

>  <GCUT_SMR_2>
0.19971509

>  <GCUT_SMR_3>
1.7427392

>  <Kier1>
4

>  <Kier2>
1.3333334

>  <Kier3>
0

>  <KierA1>
2.0793173

>  <KierA2>
0.48500621

>  <KierA3>
0

>  <KierFlex>
0.25212047

>  <lip_acc>
3

>  <lip_don>
5

>  <lip_druglike>
1

>  <lip_violation>
0

>  <logP(o/w)>
-0.71100003

>  <logS>
-0.017069999

>  <mr>
1.3984534

>  <mutagenic>
0

>  <nmol>
1

>  <opr_brigid>
1

>  <opr_leadlike>
1

>  <opr_nring>
0

>  <opr_nrot>
0

>  <opr_violation>
0

>  <PC+>
0

>  <PC->
0

>  <PEOE_PC+>
1.0095533

>  <PEOE_PC->
-1.0095533

>  <PEOE_RPC+>
0.18795982

>  <PEOE_RPC->
0.36678949

>  <PEOE_VSA+0>
0

>  <PEOE_VSA+1>
0

>  <PEOE_VSA+2>
0

>  <PEOE_VSA+3>
58.776638

>  <PEOE_VSA+4>
0

>  <PEOE_VSA+5>
0

>  <PEOE_VSA+6>
0

>  <PEOE_VSA-0>
0

>  <PEOE_VSA-1>
0

>  <PEOE_VSA-2>
0

>  <PEOE_VSA-3>
0

>  <PEOE_VSA-4>
0

>  <PEOE_VSA-5>
12.196804

>  <PEOE_VSA-6>
13.302238

>  <PEOE_VSA_FHYD>
0.69743299

>  <PEOE_VSA_FNEG>
0.30256703

>  <PEOE_VSA_FPNEG>
0.30256703

>  <PEOE_VSA_FPOL>
0.30256703

>  <PEOE_VSA_FPOS>
0.69743299

>  <PEOE_VSA_FPPOS>
0

>  <PEOE_VSA_HYD>
58.776638

>  <PEOE_VSA_NEG>
25.499043

>  <PEOE_VSA_PNEG>
25.499043

>  <PEOE_VSA_POL>
25.499043

>  <PEOE_VSA_POS>
58.776638

>  <PEOE_VSA_PPOS>
0

>  <petitjean>
0.5

>  <petitjeanSC>
1

>  <Q_PC+>
0

>  <Q_PC->
0

>  <Q_RPC+>
0

>  <Q_RPC->
0

>  <Q_VSA_FHYD>
1

>  <Q_VSA_FNEG>
0

>  <Q_VSA_FPNEG>
0

>  <Q_VSA_FPOL>
0

>  <Q_VSA_FPOS>
1

>  <Q_VSA_FPPOS>
0

>  <Q_VSA_HYD>
84.275681

>  <Q_VSA_NEG>
0

>  <Q_VSA_PNEG>
0

>  <Q_VSA_POL>
0

>  <Q_VSA_POS>
84.275681

>  <Q_VSA_PPOS>
0

>  <radius>
1

>  <reactive>
0

>  <rings>
0

>  <RPC+>
0

>  <RPC->
0

>  <rsynth>
1

>  <SlogP>
-1.16143

>  <SlogP_VSA0>
65.794373

>  <SlogP_VSA1>
1.8990928

>  <SlogP_VSA2>
0

>  <SlogP_VSA3>
0

>  <SlogP_VSA4>
0

>  <SlogP_VSA5>
0

>  <SlogP_VSA6>
0

>  <SlogP_VSA7>
31.671967

>  <SlogP_VSA8>
0

>  <SlogP_VSA9>
0

>  <SMR>
1.61015

>  <SMR_VSA0>
0

>  <SMR_VSA1>
0

>  <SMR_VSA2>
31.671967

>  <SMR_VSA3>
0

>  <SMR_VSA4>
65.794373

>  <SMR_VSA5>
0

>  <SMR_VSA6>
1.8990928

>  <SMR_VSA7>
0

>  <TPSA>
75.889999

>  <VAdjEq>
0.95443398

>  <VAdjMa>
2.5849626

>  <VDistEq>
1

>  <VDistMa>
3.5032582

>  <vdw_area>
84.275681

>  <vdw_vol>
75.504082

>  <vsa_acc>
0

>  <vsa_acid>
0

>  <vsa_base>
0

>  <vsa_don>
35.484978

>  <vsa_hyd>
0

>  <vsa_other>
15.681574

>  <vsa_pol>
53.22747

>  <Weight>
59.071999

>  <weinerPath>
9

>  <weinerPol>
0

>  <zagreb>
12

$$$$