Clc1cccc(Cl)c1CC(=O)NC(N)=N
  MOE2013           2D

 15 15  0  0  0  0  0  0  0  0999 V2000
    0.0000    0.0000    0.0000 Cl  0  0  0  0  0  0  0  0  0  0  0  0
   -0.7570    1.2950    0.0000 C   0  0  0  0  0  0  0  0  0  0  0  0
   -2.2570    1.2870    0.0000 C   0  0  0  0  0  0  0  0  0  0  0  0
   -3.0140    2.5820    0.0000 C   0  0  0  0  0  0  0  0  0  0  0  0
   -2.2700    3.8850    0.0000 C   0  0  0  0  0  0  0  0  0  0  0  0
   -0.7700    3.8930    0.0000 C   0  0  0  0  0  0  0  0  0  0  0  0
   -0.0270    5.1960    0.0000 Cl  0  0  0  0  0  0  0  0  0  0  0  0
   -0.0140    2.5980    0.0000 C   0  0  0  0  0  0  0  0  0  0  0  0
    1.4860    2.6060    0.0000 C   0  0  0  0  0  0  0  0  0  0  0  0
    2.2300    3.9090    0.0000 C   0  0  0  0  0  0  0  0  0  0  0  0
    1.4730    5.2040    0.0000 O   0  0  0  0  0  0  0  0  0  0  0  0
    3.7300    3.9170    0.0000 N   0  0  0  0  0  0  0  0  0  0  0  0
    4.4730    5.2200    0.0000 C   0  0  0  0  0  0  0  0  0  0  0  0
    3.7160    6.5150    0.0000 N   0  0  0  0  0  0  0  0  0  0  0  0
    5.9730    5.2270    0.0000 N   0  0  0  0  0  0  0  0  0  0  0  0
  1  2  1  0  0  0  0
  2  3  1  0  0  0  0
  2  8  2  0  0  0  0
  3  4  2  0  0  0  0
  4  5  1  0  0  0  0
  5  6  2  0  0  0  0
  6  7  1  0  0  0  0
  6  8  1  0  0  0  0
  8  9  1  0  0  0  0
  9 10  1  0  0  0  0
 10 11  2  0  0  0  0
 10 12  1  0  0  0  0
 12 13  1  0  0  0  0
 13 14  1  0  0  0  0
 13 15  2  0  0  0  0
M  END
>  <Index>
507

>  <ID>
HT1010

>  <class>
0

>  <apol>
30.303137

>  <ast_fraglike>
1

>  <ast_fraglike_ext>
1

>  <ast_violation>
0

>  <ast_violation_ext>
0

>  <a_acc>
2

>  <a_acid>
0

>  <a_aro>
6

>  <a_base>
0

>  <a_count>
24

>  <a_don>
3

>  <a_donacc>
5

>  <a_heavy>
15

>  <a_hyd>
9

>  <a_IC>
46.225563

>  <a_ICM>
1.9260651

>  <a_nB>
0

>  <a_nBr>
0

>  <a_nC>
9

>  <a_nCl>
2

>  <a_nF>
0

>  <a_nH>
9

>  <a_nI>
0

>  <a_nN>
3

>  <a_nO>
1

>  <a_nP>
0

>  <a_nS>
0

>  <balabanJ>
2.4191146

>  <BCUT_PEOE_0>
-2.3365231

>  <BCUT_PEOE_1>
-0.60875875

>  <BCUT_PEOE_2>
0.61315769

>  <BCUT_PEOE_3>
2.3769536

>  <BCUT_SLOGP_0>
-2.65185

>  <BCUT_SLOGP_1>
-0.45955756

>  <BCUT_SLOGP_2>
0.80775952

>  <BCUT_SLOGP_3>
2.4133213

>  <BCUT_SMR_0>
-2.0479536

>  <BCUT_SMR_1>
-0.34862915

>  <BCUT_SMR_2>
0.82978743

>  <BCUT_SMR_3>
2.6584139

>  <bpol>
11.636863

>  <b_1rotN>
2

>  <b_1rotR>
0.13333334

>  <b_ar>
6

>  <b_count>
24

>  <b_double>
2

>  <b_heavy>
15

>  <b_max1len>
2

>  <b_rotN>
4

>  <b_rotR>
0.26666668

>  <b_single>
16

>  <b_triple>
0

>  <chi0>
11.422285

>  <chi0v>
9.192543

>  <chi0v_C>
4.9391575

>  <chi0_C>
5.7151785

>  <chi1>
7.0029078

>  <chi1v>
4.8278165

>  <chi1v_C>
2.4511237

>  <chi1_C>
3.2996597

>  <chiral>
0

>  <chiral_u>
0

>  <density>
0.89802402

>  <diameter>
8

>  <FCharge>
0

>  <GCUT_PEOE_0>
-0.82919157

>  <GCUT_PEOE_1>
-0.44334736

>  <GCUT_PEOE_2>
0.061462175

>  <GCUT_PEOE_3>
2.1842644

>  <GCUT_SLOGP_0>
-1.3709762

>  <GCUT_SLOGP_1>
-0.28005654

>  <GCUT_SLOGP_2>
0.27116045

>  <GCUT_SLOGP_3>
2.2801027

>  <GCUT_SMR_0>
-0.45802194

>  <GCUT_SMR_1>
-0.19679898

>  <GCUT_SMR_2>
0.31195685

>  <GCUT_SMR_3>
2.4859605

>  <Kier1>
13.066667

>  <Kier2>
5.915

>  <Kier3>
4.1652894

>  <KierA1>
10.976394

>  <KierA2>
4.9020309

>  <KierA3>
3.4139304

>  <KierFlex>
3.5871081

>  <lip_acc>
4

>  <lip_don>
4

>  <lip_druglike>
1

>  <lip_violation>
0

>  <logP(o/w)>
2.1819999

>  <logS>
-3.5963399

>  <mr>
6.0081382

>  <mutagenic>
0

>  <nmol>
1

>  <opr_brigid>
7

>  <opr_leadlike>
1

>  <opr_nring>
1

>  <opr_nrot>
3

>  <opr_violation>
0

>  <PC+>
0

>  <PC->
0

>  <PEOE_PC+>
1.521209

>  <PEOE_PC->
-1.521209

>  <PEOE_RPC+>
0.15236701

>  <PEOE_RPC->
0.24310151

>  <PEOE_VSA+0>
17.570265

>  <PEOE_VSA+1>
21.497471

>  <PEOE_VSA+2>
0

>  <PEOE_VSA+3>
50.157627

>  <PEOE_VSA+4>
12.949531

>  <PEOE_VSA+5>
0

>  <PEOE_VSA+6>
0

>  <PEOE_VSA-0>
26.718348

>  <PEOE_VSA-1>
71.4188

>  <PEOE_VSA-2>
0

>  <PEOE_VSA-3>
0

>  <PEOE_VSA-4>
0

>  <PEOE_VSA-5>
25.900616

>  <PEOE_VSA-6>
6.6511192

>  <PEOE_VSA_FHYD>
0.80460137

>  <PEOE_VSA_FNEG>
0.56122464

>  <PEOE_VSA_FPNEG>
0.13978875

>  <PEOE_VSA_FPOL>
0.19539864

>  <PEOE_VSA_FPOS>
0.43877539

>  <PEOE_VSA_FPPOS>
0.055609901

>  <PEOE_VSA_HYD>
187.3625

>  <PEOE_VSA_NEG>
130.68889

>  <PEOE_VSA_PNEG>
32.551735

>  <PEOE_VSA_POL>
45.501266

>  <PEOE_VSA_POS>
102.1749

>  <PEOE_VSA_PPOS>
12.949531

>  <petitjean>
0.5

>  <petitjeanSC>
1

>  <Q_PC+>
0

>  <Q_PC->
0

>  <Q_RPC+>
0

>  <Q_RPC->
0

>  <Q_VSA_FHYD>
1

>  <Q_VSA_FNEG>
0

>  <Q_VSA_FPNEG>
0

>  <Q_VSA_FPOL>
0

>  <Q_VSA_FPOS>
1

>  <Q_VSA_FPPOS>
0

>  <Q_VSA_HYD>
232.86377

>  <Q_VSA_NEG>
0

>  <Q_VSA_PNEG>
0

>  <Q_VSA_POL>
0

>  <Q_VSA_POS>
232.86377

>  <Q_VSA_PPOS>
0

>  <radius>
4

>  <reactive>
0

>  <rings>
1

>  <RPC+>
0

>  <RPC->
0

>  <rsynth>
1

>  <SlogP>
1.54554

>  <SlogP_VSA0>
50.90794

>  <SlogP_VSA1>
7.1578765

>  <SlogP_VSA2>
23.862217

>  <SlogP_VSA3>
0

>  <SlogP_VSA4>
3.185575

>  <SlogP_VSA5>
18.868406

>  <SlogP_VSA6>
7.0012131

>  <SlogP_VSA7>
84.601517

>  <SlogP_VSA8>
0

>  <SlogP_VSA9>
78.297287

>  <SMR>
6.0222802

>  <SMR_VSA0>
23.862217

>  <SMR_VSA1>
0

>  <SMR_VSA2>
49.682716

>  <SMR_VSA3>
10.186788

>  <SMR_VSA4>
32.897186

>  <SMR_VSA5>
71.797958

>  <SMR_VSA6>
7.1578765

>  <SMR_VSA7>
78.297287

>  <TPSA>
78.970001

>  <VAdjEq>
0.56650949

>  <VAdjMa>
4.9068904

>  <VDistEq>
2.8371623

>  <VDistMa>
7.5088444

>  <vdw_area>
232.86377

>  <vdw_vol>
274.04279

>  <vsa_acc>
13.566921

>  <vsa_acid>
0

>  <vsa_base>
0

>  <vsa_don>
23.425066

>  <vsa_hyd>
133.6459

>  <vsa_other>
28.631105

>  <vsa_pol>
54.734474

>  <Weight>
246.097

>  <weinerPath>
384

>  <weinerPol>
19

>  <zagreb>
70

$$$$