Ic1ccc(cc1)CC(NC(C)C)C
  MOE2013           2D

 14 14  0  0  1  0  0  0  0  0999 V2000
    0.0000    0.0000    0.0000 I   0  0  0  0  0  0  0  0  0  0  0  0
    1.5000    0.0010    0.0000 C   0  0  0  0  0  0  0  0  0  0  0  0
    2.2510   -1.2980    0.0000 C   0  0  0  0  0  0  0  0  0  0  0  0
    3.7510   -1.2970    0.0000 C   0  0  0  0  0  0  0  0  0  0  0  0
    4.5000    0.0030    0.0000 C   0  0  0  0  0  0  0  0  0  0  0  0
    3.7490    1.3010    0.0000 C   0  0  0  0  0  0  0  0  0  0  0  0
    2.2490    1.3000    0.0000 C   0  0  0  0  0  0  0  0  0  0  0  0
    6.0000    0.0040    0.0000 C   0  0  0  0  0  0  0  0  0  0  0  0
    6.7510   -1.2950    0.0000 C   0  0  3  0  0  0  0  0  0  0  0  0
    8.2510   -1.2940    0.0000 N   0  0  0  0  0  0  0  0  0  0  0  0
    9.0020   -2.5920    0.0000 C   0  0  0  0  0  0  0  0  0  0  0  0
   10.5020   -2.5910    0.0000 C   0  0  0  0  0  0  0  0  0  0  0  0
    8.2530   -3.8920    0.0000 C   0  0  0  0  0  0  0  0  0  0  0  0
    6.0020   -2.5940    0.0000 C   0  0  0  0  0  0  0  0  0  0  0  0
  1  2  1  0  0  0  0
  2  3  1  0  0  0  0
  2  7  2  0  0  0  0
  3  4  2  0  0  0  0
  4  5  1  0  0  0  0
  5  6  2  0  0  0  0
  5  8  1  0  0  0  0
  6  7  1  0  0  0  0
  8  9  1  0  0  0  0
  9 10  1  0  0  0  0
  9 14  1  0  0  0  0
 10 11  1  0  0  0  0
 11 12  1  0  0  0  0
 11 13  1  0  0  0  0
M  END
>  <Index>
561

>  <ID>
HT1107

>  <class>
0

>  <apol>
39.572273

>  <ast_fraglike>
0

>  <ast_fraglike_ext>
0

>  <ast_violation>
2

>  <ast_violation_ext>
3

>  <a_acc>
1

>  <a_acid>
0

>  <a_aro>
6

>  <a_base>
0

>  <a_count>
32

>  <a_don>
1

>  <a_donacc>
2

>  <a_heavy>
14

>  <a_hyd>
13

>  <a_IC>
41.921799

>  <a_ICM>
1.3100562

>  <a_nB>
0

>  <a_nBr>
0

>  <a_nC>
12

>  <a_nCl>
0

>  <a_nF>
0

>  <a_nH>
18

>  <a_nI>
1

>  <a_nN>
1

>  <a_nO>
0

>  <a_nP>
0

>  <a_nS>
0

>  <balabanJ>
2.1814613

>  <BCUT_PEOE_0>
-2.6855369

>  <BCUT_PEOE_1>
-0.50924116

>  <BCUT_PEOE_2>
0.54508507

>  <BCUT_PEOE_3>
2.5960276

>  <BCUT_SLOGP_0>
-2.7900302

>  <BCUT_SLOGP_1>
-0.37517598

>  <BCUT_SLOGP_2>
0.69825172

>  <BCUT_SLOGP_3>
2.5742991

>  <BCUT_SMR_0>
-2.4085355

>  <BCUT_SMR_1>
-0.26186723

>  <BCUT_SMR_2>
0.77212167

>  <BCUT_SMR_3>
2.8685606

>  <bpol>
23.927727

>  <b_1rotN>
4

>  <b_1rotR>
0.2857143

>  <b_ar>
6

>  <b_count>
32

>  <b_double>
0

>  <b_heavy>
14

>  <b_max1len>
6

>  <b_rotN>
4

>  <b_rotR>
0.2857143

>  <b_single>
26

>  <b_triple>
0

>  <chi0>
10.552042

>  <chi0v>
11.206671

>  <chi0v_C>
8.1712084

>  <chi0_C>
8.8449354

>  <chi1>
6.5753875

>  <chi1v>
6.1603012

>  <chi1v_C>
4.3152199

>  <chi1_C>
5.1815405

>  <chiral>
1

>  <chiral_u>
1

>  <density>
0.93490344

>  <diameter>
9

>  <FCharge>
0

>  <GCUT_PEOE_0>
-0.84990889

>  <GCUT_PEOE_1>
-0.35164928

>  <GCUT_PEOE_2>
0.051618189

>  <GCUT_PEOE_3>
2.4630752

>  <GCUT_SLOGP_0>
-1.1530797

>  <GCUT_SLOGP_1>
-0.22742486

>  <GCUT_SLOGP_2>
0.1476092

>  <GCUT_SLOGP_3>
2.5209789

>  <GCUT_SMR_0>
-0.52045649

>  <GCUT_SMR_1>
-0.14952488

>  <GCUT_SMR_2>
0.16987765

>  <GCUT_SMR_3>
2.7359476

>  <Kier1>
12.071428

>  <Kier2>
5.7777777

>  <Kier3>
4.8888888

>  <KierA1>
12.845634

>  <KierA2>
6.179141

>  <KierA3>
5.2484651

>  <KierFlex>
5.6696415

>  <lip_acc>
1

>  <lip_don>
1

>  <lip_druglike>
1

>  <lip_violation>
0

>  <logP(o/w)>
4.23

>  <logS>
-3.1600001

>  <mr>
7.1135378

>  <mutagenic>
0

>  <nmol>
1

>  <opr_brigid>
6

>  <opr_leadlike>
1

>  <opr_nring>
1

>  <opr_nrot>
4

>  <opr_violation>
0

>  <PC+>
0

>  <PC->
0

>  <PEOE_PC+>
0.77414232

>  <PEOE_PC->
-0.77414232

>  <PEOE_RPC+>
0.15815645

>  <PEOE_RPC->
0.40172586

>  <PEOE_VSA+0>
64.782036

>  <PEOE_VSA+1>
17.061544

>  <PEOE_VSA+2>
8.6190128

>  <PEOE_VSA+3>
0

>  <PEOE_VSA+4>
0

>  <PEOE_VSA+5>
0

>  <PEOE_VSA+6>
0

>  <PEOE_VSA-0>
138.65271

>  <PEOE_VSA-1>
24.509808

>  <PEOE_VSA-2>
0

>  <PEOE_VSA-3>
0

>  <PEOE_VSA-4>
0

>  <PEOE_VSA-5>
0

>  <PEOE_VSA-6>
0.13689101

>  <PEOE_VSA_FHYD>
0.99946058

>  <PEOE_VSA_FNEG>
0.64351404

>  <PEOE_VSA_FPNEG>
0.00053944642

>  <PEOE_VSA_FPOL>
0.00053944642

>  <PEOE_VSA_FPOS>
0.35648596

>  <PEOE_VSA_FPPOS>
0

>  <PEOE_VSA_HYD>
253.62511

>  <PEOE_VSA_NEG>
163.29941

>  <PEOE_VSA_PNEG>
0.13689101

>  <PEOE_VSA_POL>
0.13689101

>  <PEOE_VSA_POS>
90.462593

>  <PEOE_VSA_PPOS>
0

>  <petitjean>
0.44444445

>  <petitjeanSC>
0.80000001

>  <Q_PC+>
0

>  <Q_PC->
0

>  <Q_RPC+>
0

>  <Q_RPC->
0

>  <Q_VSA_FHYD>
1

>  <Q_VSA_FNEG>
0

>  <Q_VSA_FPNEG>
0

>  <Q_VSA_FPOL>
0

>  <Q_VSA_FPOS>
1

>  <Q_VSA_FPPOS>
0

>  <Q_VSA_HYD>
253.76199

>  <Q_VSA_NEG>
0

>  <Q_VSA_PNEG>
0

>  <Q_VSA_POL>
0

>  <Q_VSA_POS>
253.76199

>  <Q_VSA_PPOS>
0

>  <radius>
5

>  <reactive>
0

>  <rings>
1

>  <RPC+>
0

>  <RPC->
0

>  <rsynth>
0

>  <SlogP>
3.22017

>  <SlogP_VSA0>
18.01075

>  <SlogP_VSA1>
0

>  <SlogP_VSA2>
9.62358

>  <SlogP_VSA3>
0

>  <SlogP_VSA4>
3.185575

>  <SlogP_VSA5>
18.868406

>  <SlogP_VSA6>
0

>  <SlogP_VSA7>
70.572739

>  <SlogP_VSA8>
0

>  <SlogP_VSA9>
156.76006

>  <SMR>
7.05967

>  <SMR_VSA0>
0

>  <SMR_VSA1>
0

>  <SMR_VSA2>
19.670393

>  <SMR_VSA3>
11.149512

>  <SMR_VSA4>
0

>  <SMR_VSA5>
89.441139

>  <SMR_VSA6>
0

>  <SMR_VSA7>
156.76006

>  <TPSA>
12.03

>  <VAdjEq>
0.59167278

>  <VAdjMa>
4.8073549

>  <VDistEq>
2.9558642

>  <VDistMa>
7.2727451

>  <vdw_area>
253.76199

>  <vdw_vol>
324.29767

>  <vsa_acc>
0

>  <vsa_acid>
0

>  <vsa_base>
0

>  <vsa_don>
0

>  <vsa_hyd>
232.90558

>  <vsa_other>
0

>  <vsa_pol>
5.6825762

>  <Weight>
303.18698

>  <weinerPath>
342

>  <weinerPol>
15

>  <zagreb>
64

$$$$