[nH]1cc(nc1)CCN
  MOE2013           2D

  8  8  0  0  0  0  0  0  0  0999 V2000
    0.0000    0.0000    0.0000 N   0  0  0  0  0  0  0  0  0  0  0  0
    1.4700   -0.2990    0.0000 C   0  0  0  0  0  0  0  0  0  0  0  0
    2.2090    1.0060    0.0000 C   0  0  0  0  0  0  0  0  0  0  0  0
    1.1950    2.1120    0.0000 N   0  0  0  0  0  0  0  0  0  0  0  0
   -0.1700    1.4900    0.0000 C   0  0  0  0  0  0  0  0  0  0  0  0
    3.6990    1.1760    0.0000 C   0  0  0  0  0  0  0  0  0  0  0  0
    4.5910   -0.0300    0.0000 C   0  0  0  0  0  0  0  0  0  0  0  0
    6.0810    0.1390    0.0000 N   0  0  0  0  0  0  0  0  0  0  0  0
  1  2  1  0  0  0  0
  1  5  1  0  0  0  0
  2  3  2  0  0  0  0
  3  4  1  0  0  0  0
  3  6  1  0  0  0  0
  4  5  2  0  0  0  0
  6  7  1  0  0  0  0
  7  8  1  0  0  0  0
M  END
>  <Index>
523

>  <ID>
HT1036

>  <class>
0

>  <apol>
18.101137

>  <ast_fraglike>
1

>  <ast_fraglike_ext>
1

>  <ast_violation>
0

>  <ast_violation_ext>
0

>  <a_acc>
3

>  <a_acid>
0

>  <a_aro>
5

>  <a_base>
0

>  <a_count>
17

>  <a_don>
3

>  <a_donacc>
6

>  <a_heavy>
8

>  <a_hyd>
4

>  <a_IC>
24.593016

>  <a_ICM>
1.446648

>  <a_nB>
0

>  <a_nBr>
0

>  <a_nC>
5

>  <a_nCl>
0

>  <a_nF>
0

>  <a_nH>
9

>  <a_nI>
0

>  <a_nN>
3

>  <a_nO>
0

>  <a_nP>
0

>  <a_nS>
0

>  <balabanJ>
2.1032672

>  <BCUT_PEOE_0>
-2.4537575

>  <BCUT_PEOE_1>
-0.53512132

>  <BCUT_PEOE_2>
0.63876718

>  <BCUT_PEOE_3>
2.4204407

>  <BCUT_SLOGP_0>
-2.6655245

>  <BCUT_SLOGP_1>
-0.50004554

>  <BCUT_SLOGP_2>
0.67387426

>  <BCUT_SLOGP_3>
2.3623428

>  <BCUT_SMR_0>
-2.1960731

>  <BCUT_SMR_1>
-0.38848504

>  <BCUT_SMR_2>
0.79837251

>  <BCUT_SMR_3>
2.6741507

>  <bpol>
11.158863

>  <b_1rotN>
2

>  <b_1rotR>
0.25

>  <b_ar>
5

>  <b_count>
17

>  <b_double>
0

>  <b_heavy>
8

>  <b_max1len>
4

>  <b_rotN>
2

>  <b_rotR>
0.25

>  <b_single>
12

>  <b_triple>
0

>  <chi0>
5.8199911

>  <chi0v>
4.5934782

>  <chi0v_C>
3.0689142

>  <chi0_C>
3.4057775

>  <chi1>
3.9318516

>  <chi1v>
2.6096327

>  <chi1v_C>
1.1422285

>  <chi1_C>
1.3164966

>  <chiral>
0

>  <chiral_u>
0

>  <density>
0.70951015

>  <diameter>
5

>  <FCharge>
0

>  <GCUT_PEOE_0>
-0.84815073

>  <GCUT_PEOE_1>
-0.36758336

>  <GCUT_PEOE_2>
0.099347129

>  <GCUT_PEOE_3>
2.0293255

>  <GCUT_SLOGP_0>
-1.3632433

>  <GCUT_SLOGP_1>
-0.3111029

>  <GCUT_SLOGP_2>
0.16264205

>  <GCUT_SLOGP_3>
2.0262346

>  <GCUT_SMR_0>
-0.5082016

>  <GCUT_SMR_1>
-0.19881864

>  <GCUT_SMR_2>
0.20878397

>  <GCUT_SMR_3>
2.2817905

>  <Kier1>
6.125

>  <Kier2>
3.1111112

>  <Kier3>
1.8

>  <KierA1>
4.4656997

>  <KierA2>
2.1498282

>  <KierA3>
1.1859028

>  <KierFlex>
1.2000608

>  <lip_acc>
3

>  <lip_don>
3

>  <lip_druglike>
1

>  <lip_violation>
0

>  <logP(o/w)>
-1.054

>  <logS>
0.13158999

>  <mr>
3.2004666

>  <mutagenic>
0

>  <nmol>
1

>  <opr_brigid>
5

>  <opr_leadlike>
1

>  <opr_nring>
1

>  <opr_nrot>
2

>  <opr_violation>
0

>  <PC+>
0

>  <PC->
0

>  <PEOE_PC+>
0.92249578

>  <PEOE_PC->
-0.92249578

>  <PEOE_RPC+>
0.18020406

>  <PEOE_RPC->
0.38002506

>  <PEOE_VSA+0>
42.508774

>  <PEOE_VSA+1>
32.201862

>  <PEOE_VSA+2>
21.503412

>  <PEOE_VSA+3>
8.6190128

>  <PEOE_VSA+4>
0

>  <PEOE_VSA+5>
0

>  <PEOE_VSA+6>
0

>  <PEOE_VSA-0>
13.192325

>  <PEOE_VSA-1>
0

>  <PEOE_VSA-2>
0

>  <PEOE_VSA-3>
0

>  <PEOE_VSA-4>
5.6825762

>  <PEOE_VSA-5>
0

>  <PEOE_VSA-6>
6.7880106

>  <PEOE_VSA_FHYD>
0.90443701

>  <PEOE_VSA_FNEG>
0.19665673

>  <PEOE_VSA_FPNEG>
0.095563002

>  <PEOE_VSA_FPOL>
0.095563002

>  <PEOE_VSA_FPOS>
0.8033433

>  <PEOE_VSA_FPPOS>
0

>  <PEOE_VSA_HYD>
118.02538

>  <PEOE_VSA_NEG>
25.66291

>  <PEOE_VSA_PNEG>
12.470587

>  <PEOE_VSA_POL>
12.470587

>  <PEOE_VSA_POS>
104.83306

>  <PEOE_VSA_PPOS>
0

>  <petitjean>
0.40000001

>  <petitjeanSC>
0.66666669

>  <Q_PC+>
0

>  <Q_PC->
0

>  <Q_RPC+>
0

>  <Q_RPC->
0

>  <Q_VSA_FHYD>
1

>  <Q_VSA_FNEG>
0

>  <Q_VSA_FPNEG>
0

>  <Q_VSA_FPOL>
0

>  <Q_VSA_FPOS>
1

>  <Q_VSA_FPPOS>
0

>  <Q_VSA_HYD>
130.49597

>  <Q_VSA_NEG>
0

>  <Q_VSA_PNEG>
0

>  <Q_VSA_POL>
0

>  <Q_VSA_POS>
130.49597

>  <Q_VSA_PPOS>
0

>  <radius>
3

>  <reactive>
0

>  <rings>
1

>  <RPC+>
0

>  <RPC->
0

>  <rsynth>
1

>  <SlogP>
-0.089129999

>  <SlogP_VSA0>
32.897186

>  <SlogP_VSA1>
16.78553

>  <SlogP_VSA2>
16.78553

>  <SlogP_VSA3>
18.439579

>  <SlogP_VSA4>
2.7567475

>  <SlogP_VSA5>
18.868406

>  <SlogP_VSA6>
0

>  <SlogP_VSA7>
33.999886

>  <SlogP_VSA8>
0

>  <SlogP_VSA9>
0

>  <SMR>
3.1346099

>  <SMR_VSA0>
0

>  <SMR_VSA1>
16.78553

>  <SMR_VSA2>
16.78553

>  <SMR_VSA3>
2.7567475

>  <SMR_VSA4>
32.897186

>  <SMR_VSA5>
52.868294

>  <SMR_VSA6>
18.439579

>  <SMR_VSA7>
0

>  <TPSA>
54.700001

>  <VAdjEq>
0.8112781

>  <VAdjMa>
4

>  <VDistEq>
2.1595347

>  <VDistMa>
5.6184216

>  <vdw_area>
130.49597

>  <vdw_vol>
156.65456

>  <vsa_acc>
0

>  <vsa_acid>
0

>  <vsa_base>
0

>  <vsa_don>
0

>  <vsa_hyd>
63.107059

>  <vsa_other>
24.790518

>  <vsa_pol>
29.107641

>  <Weight>
111.14799

>  <weinerPath>
67

>  <weinerPol>
5

>  <zagreb>
34

$$$$