O1Nc2c(N1)cccc2-c1c(C(OC(C)C)=O)c(nc(C)c1C(OC)=O)C
  MOE2013           2D

 27 29  0  0  0  0  0  0  0  0999 V2000
    0.0000    0.0000    0.0000 O   0  0  0  0  0  0  0  0  0  0  0  0
    0.3590   -1.4560    0.0000 N   0  0  0  0  0  0  0  0  0  0  0  0
    1.8550   -1.5650    0.0000 C   0  0  0  0  0  0  0  0  0  0  0  0
    2.4210   -0.1750    0.0000 C   0  0  0  0  0  0  0  0  0  0  0  0
    1.2740    0.7920    0.0000 N   0  0  0  0  0  0  0  0  0  0  0  0
    3.9070    0.0300    0.0000 C   0  0  0  0  0  0  0  0  0  0  0  0
    4.8270   -1.1550    0.0000 C   0  0  0  0  0  0  0  0  0  0  0  0
    4.2620   -2.5440    0.0000 C   0  0  0  0  0  0  0  0  0  0  0  0
    2.7760   -2.7490    0.0000 C   0  0  0  0  0  0  0  0  0  0  0  0
    2.4600   -4.2150    0.0000 C   0  0  0  0  0  0  0  0  0  0  0  0
    3.5730   -5.2220    0.0000 C   0  0  0  0  0  0  0  0  0  0  0  0
    5.0000   -4.7620    0.0000 C   0  0  0  0  0  0  0  0  0  0  0  0
    6.1120   -5.7680    0.0000 O   0  0  0  0  0  0  0  0  0  0  0  0
    7.5400   -5.3080    0.0000 C   0  0  0  0  0  0  0  0  0  0  0  0
    8.6520   -6.3150    0.0000 C   0  0  0  0  0  0  0  0  0  0  0  0
    7.8560   -3.8420    0.0000 C   0  0  0  0  0  0  0  0  0  0  0  0
    5.3160   -3.2960    0.0000 O   0  0  0  0  0  0  0  0  0  0  0  0
    3.2570   -6.6880    0.0000 C   0  0  0  0  0  0  0  0  0  0  0  0
    1.8290   -7.1480    0.0000 N   0  0  0  0  0  0  0  0  0  0  0  0
    0.7170   -6.1420    0.0000 C   0  0  0  0  0  0  0  0  0  0  0  0
   -0.7110   -6.6020    0.0000 C   0  0  0  0  0  0  0  0  0  0  0  0
    1.0330   -4.6750    0.0000 C   0  0  0  0  0  0  0  0  0  0  0  0
   -0.2370   -3.8770    0.0000 C   0  0  0  0  0  0  0  0  0  0  0  0
   -1.5640   -4.5780    0.0000 O   0  0  0  0  0  0  0  0  0  0  0  0
   -2.8340   -3.7800    0.0000 C   0  0  0  0  0  0  0  0  0  0  0  0
   -0.1810   -2.3780    0.0000 O   0  0  0  0  0  0  0  0  0  0  0  0
    4.3690   -7.6950    0.0000 C   0  0  0  0  0  0  0  0  0  0  0  0
  1  2  1  0  0  0  0
  1  5  1  0  0  0  0
  2  3  1  0  0  0  0
  3  4  1  0  0  0  0
  3  9  2  0  0  0  0
  4  5  1  0  0  0  0
  4  6  2  0  0  0  0
  6  7  1  0  0  0  0
  7  8  2  0  0  0  0
  8  9  1  0  0  0  0
  9 10  1  0  0  0  0
 10 11  1  0  0  0  0
 10 22  2  0  0  0  0
 11 12  1  0  0  0  0
 11 18  2  0  0  0  0
 12 13  1  0  0  0  0
 12 17  2  0  0  0  0
 13 14  1  0  0  0  0
 14 15  1  0  0  0  0
 14 16  1  0  0  0  0
 18 19  1  0  0  0  0
 18 27  1  0  0  0  0
 19 20  2  0  0  0  0
 20 21  1  0  0  0  0
 20 22  1  0  0  0  0
 22 23  1  0  0  0  0
 23 24  1  0  0  0  0
 23 26  2  0  0  0  0
 24 25  1  0  0  0  0
M  END
>  <Index>
580

>  <ID>
HT1146

>  <class>
0

>  <apol>
54.752651

>  <ast_fraglike>
0

>  <ast_fraglike_ext>
0

>  <ast_violation>
2

>  <ast_violation_ext>
3

>  <a_acc>
3

>  <a_acid>
0

>  <a_aro>
12

>  <a_base>
0

>  <a_count>
48

>  <a_don>
2

>  <a_donacc>
5

>  <a_heavy>
27

>  <a_hyd>
17

>  <a_IC>
78.764381

>  <a_ICM>
1.6409247

>  <a_nB>
0

>  <a_nBr>
0

>  <a_nC>
19

>  <a_nCl>
0

>  <a_nF>
0

>  <a_nH>
21

>  <a_nI>
0

>  <a_nN>
3

>  <a_nO>
5

>  <a_nP>
0

>  <a_nS>
0

>  <balabanJ>
1.9600269

>  <BCUT_PEOE_0>
-2.498316

>  <BCUT_PEOE_1>
-0.39954084

>  <BCUT_PEOE_2>
0.48755586

>  <BCUT_PEOE_3>
2.4920778

>  <BCUT_SLOGP_0>
-2.4964442

>  <BCUT_SLOGP_1>
-0.26678541

>  <BCUT_SLOGP_2>
0.58119971

>  <BCUT_SLOGP_3>
2.5241525

>  <BCUT_SMR_0>
-2.2705214

>  <BCUT_SMR_1>
-0.19612253

>  <BCUT_SMR_2>
0.69278055

>  <BCUT_SMR_3>
2.7337267

>  <bpol>
30.621347

>  <b_1rotN>
4

>  <b_1rotR>
0.13793103

>  <b_ar>
12

>  <b_count>
50

>  <b_double>
2

>  <b_heavy>
29

>  <b_max1len>
4

>  <b_rotN>
6

>  <b_rotR>
0.20689656

>  <b_single>
36

>  <b_triple>
0

>  <chi0>
19.714813

>  <chi0v>
15.797856

>  <chi0v_C>
12.309402

>  <chi0_C>
13.472174

>  <chi1>
12.845443

>  <chi1v>
8.4646263

>  <chi1v_C>
5.6487174

>  <chi1_C>
7.1258979

>  <chiral>
0

>  <chiral_u>
0

>  <density>
0.77218872

>  <diameter>
9

>  <FCharge>
0

>  <GCUT_PEOE_0>
-0.81161475

>  <GCUT_PEOE_1>
-0.42646167

>  <GCUT_PEOE_2>
-0.012708778

>  <GCUT_PEOE_3>
2.6829197

>  <GCUT_SLOGP_0>
-0.98446184

>  <GCUT_SLOGP_1>
-0.21843036

>  <GCUT_SLOGP_2>
0.099356011

>  <GCUT_SLOGP_3>
2.7707796

>  <GCUT_SMR_0>
-0.5220536

>  <GCUT_SMR_1>
-0.16488807

>  <GCUT_SMR_2>
0.17192438

>  <GCUT_SMR_3>
2.9671504

>  <Kier1>
21.702734

>  <Kier2>
9.212018

>  <Kier3>
4.4518433

>  <KierA1>
16.00724

>  <KierA2>
6.7088633

>  <KierA3>
3.211674

>  <KierFlex>
3.9774218

>  <lip_acc>
8

>  <lip_don>
2

>  <lip_druglike>
1

>  <lip_violation>
0

>  <logP(o/w)>
3.0869999

>  <logS>
-4.3428798

>  <mr>
9.885272

>  <mutagenic>
0

>  <nmol>
1

>  <opr_brigid>
16

>  <opr_leadlike>
1

>  <opr_nring>
3

>  <opr_nrot>
4

>  <opr_violation>
0

>  <PC+>
0

>  <PC->
0

>  <PEOE_PC+>
2.1675084

>  <PEOE_PC->
-2.1675084

>  <PEOE_RPC+>
0.13674435

>  <PEOE_RPC->
0.14518988

>  <PEOE_VSA+0>
80.599365

>  <PEOE_VSA+1>
65.977913

>  <PEOE_VSA+2>
0

>  <PEOE_VSA+3>
17.238026

>  <PEOE_VSA+4>
0

>  <PEOE_VSA+5>
29.416998

>  <PEOE_VSA+6>
0

>  <PEOE_VSA-0>
87.245613

>  <PEOE_VSA-1>
24.509808

>  <PEOE_VSA-2>
10.679153

>  <PEOE_VSA-3>
0

>  <PEOE_VSA-4>
9.3009624

>  <PEOE_VSA-5>
32.816418

>  <PEOE_VSA-6>
5.0075121

>  <PEOE_VSA_FHYD>
0.78901976

>  <PEOE_VSA_FNEG>
0.46737406

>  <PEOE_VSA_FPNEG>
0.12989515

>  <PEOE_VSA_FPOL>
0.21098022

>  <PEOE_VSA_FPOS>
0.53262591

>  <PEOE_VSA_FPPOS>
0.081085078

>  <PEOE_VSA_HYD>
286.24988

>  <PEOE_VSA_NEG>
169.55946

>  <PEOE_VSA_PNEG>
47.124893

>  <PEOE_VSA_POL>
76.541893

>  <PEOE_VSA_POS>
193.23232

>  <PEOE_VSA_PPOS>
29.416998

>  <petitjean>
0.44444445

>  <petitjeanSC>
0.80000001

>  <Q_PC+>
0

>  <Q_PC->
0

>  <Q_RPC+>
0

>  <Q_RPC->
0

>  <Q_VSA_FHYD>
1

>  <Q_VSA_FNEG>
0

>  <Q_VSA_FPNEG>
0

>  <Q_VSA_FPOL>
0

>  <Q_VSA_FPOS>
1

>  <Q_VSA_FPPOS>
0

>  <Q_VSA_HYD>
362.79178

>  <Q_VSA_NEG>
0

>  <Q_VSA_PNEG>
0

>  <Q_VSA_POL>
0

>  <Q_VSA_POS>
362.79178

>  <Q_VSA_PPOS>
0

>  <radius>
5

>  <reactive>
0

>  <rings>
3

>  <RPC+>
0

>  <RPC->
0

>  <rsynth>
1

>  <SlogP>
3.4012401

>  <SlogP_VSA0>
0

>  <SlogP_VSA1>
73.526627

>  <SlogP_VSA2>
39.906063

>  <SlogP_VSA3>
0

>  <SlogP_VSA4>
59.609077

>  <SlogP_VSA5>
35.383869

>  <SlogP_VSA6>
0

>  <SlogP_VSA7>
59.300701

>  <SlogP_VSA8>
0

>  <SlogP_VSA9>
138.81755

>  <SMR>
9.9368401

>  <SMR_VSA0>
81.16185

>  <SMR_VSA1>
16.78553

>  <SMR_VSA2>
0

>  <SMR_VSA3>
18.353294

>  <SMR_VSA4>
53.134811

>  <SMR_VSA5>
52.929554

>  <SMR_VSA6>
15.490929

>  <SMR_VSA7>
168.68793

>  <TPSA>
98.779999

>  <VAdjEq>
0.40063059

>  <VAdjMa>
5.8579812

>  <VDistEq>
3.0228562

>  <VDistMa>
9.289506

>  <vdw_area>
362.79178

>  <vdw_vol>
480.96146

>  <vsa_acc>
32.816418

>  <vsa_acid>
0

>  <vsa_base>
0

>  <vsa_don>
21.770523

>  <vsa_hyd>
244.80859

>  <vsa_other>
43.725471

>  <vsa_pol>
54.586941

>  <Weight>
371.39301

>  <weinerPath>
1593

>  <weinerPol>
47

>  <zagreb>
142

$$$$