Clc1c(Cc2c(O)c(Cl)cc(Cl)c2Cl)c(O)c(Cl)cc1Cl
  MOE2013           2D

 21 22  0  0  0  0  0  0  0  0999 V2000
    0.0000    0.0000    0.0000 Cl  0  0  0  0  0  0  0  0  0  0  0  0
   -0.7580    1.2940    0.0000 C   0  0  0  0  0  0  0  0  0  0  0  0
   -0.0160    2.5980    0.0000 C   0  0  0  0  0  0  0  0  0  0  0  0
    1.3970    2.0940    0.0000 C   0  0  0  0  0  0  0  0  0  0  0  0
    2.5400    3.0650    0.0000 C   0  0  0  0  0  0  0  0  0  0  0  0
    2.7910    4.5440    0.0000 C   0  0  0  0  0  0  0  0  0  0  0  0
    1.8200    5.6870    0.0000 O   0  0  0  0  0  0  0  0  0  0  0  0
    4.1980    5.0650    0.0000 C   0  0  0  0  0  0  0  0  0  0  0  0
    4.4490    6.5440    0.0000 Cl  0  0  0  0  0  0  0  0  0  0  0  0
    5.3530    4.1080    0.0000 C   0  0  0  0  0  0  0  0  0  0  0  0
    5.1010    2.6300    0.0000 C   0  0  0  0  0  0  0  0  0  0  0  0
    6.2560    1.6720    0.0000 Cl  0  0  0  0  0  0  0  0  0  0  0  0
    3.6950    2.1080    0.0000 C   0  0  0  0  0  0  0  0  0  0  0  0
    3.4430    0.6290    0.0000 Cl  0  0  0  0  0  0  0  0  0  0  0  0
   -0.7740    3.8920    0.0000 C   0  0  0  0  0  0  0  0  0  0  0  0
   -0.5230    5.3710    0.0000 O   0  0  0  0  0  0  0  0  0  0  0  0
   -2.2740    3.8830    0.0000 C   0  0  0  0  0  0  0  0  0  0  0  0
   -3.0320    5.1780    0.0000 Cl  0  0  0  0  0  0  0  0  0  0  0  0
   -3.0160    2.5800    0.0000 C   0  0  0  0  0  0  0  0  0  0  0  0
   -2.2580    1.2850    0.0000 C   0  0  0  0  0  0  0  0  0  0  0  0
   -3.0000   -0.0180    0.0000 Cl  0  0  0  0  0  0  0  0  0  0  0  0
  1  2  1  0  0  0  0
  2  3  1  0  0  0  0
  2 20  2  0  0  0  0
  3  4  1  0  0  0  0
  3 15  2  0  0  0  0
  4  5  1  0  0  0  0
  5  6  1  0  0  0  0
  5 13  2  0  0  0  0
  6  7  1  0  0  0  0
  6  8  2  0  0  0  0
  8  9  1  0  0  0  0
  8 10  1  0  0  0  0
 10 11  2  0  0  0  0
 11 12  1  0  0  0  0
 11 13  1  0  0  0  0
 13 14  1  0  0  0  0
 15 16  1  0  0  0  0
 15 17  1  0  0  0  0
 17 18  1  0  0  0  0
 17 19  2  0  0  0  0
 19 20  1  0  0  0  0
 20 21  1  0  0  0  0
M  END
>  <Index>
519

>  <ID>
HT1030

>  <class>
0

>  <apol>
41.564758

>  <ast_fraglike>
0

>  <ast_fraglike_ext>
0

>  <ast_violation>
2

>  <ast_violation_ext>
2

>  <a_acc>
2

>  <a_acid>
0

>  <a_aro>
12

>  <a_base>
0

>  <a_count>
27

>  <a_don>
2

>  <a_donacc>
4

>  <a_heavy>
21

>  <a_hyd>
19

>  <a_IC>
47.256695

>  <a_ICM>
1.750248

>  <a_nB>
0

>  <a_nBr>
0

>  <a_nC>
13

>  <a_nCl>
6

>  <a_nF>
0

>  <a_nH>
6

>  <a_nI>
0

>  <a_nN>
0

>  <a_nO>
2

>  <a_nP>
0

>  <a_nS>
0

>  <balabanJ>
2.1456845

>  <BCUT_PEOE_0>
-2.3311744

>  <BCUT_PEOE_1>
-0.67399657

>  <BCUT_PEOE_2>
0.65938181

>  <BCUT_PEOE_3>
2.3642409

>  <BCUT_SLOGP_0>
-2.2158382

>  <BCUT_SLOGP_1>
-0.35246333

>  <BCUT_SLOGP_2>
1.0329869

>  <BCUT_SLOGP_3>
2.5400951

>  <BCUT_SMR_0>
-2.0479352

>  <BCUT_SMR_1>
-0.31480882

>  <BCUT_SMR_2>
1.0419735

>  <BCUT_SMR_3>
2.6608613

>  <bpol>
9.0792418

>  <b_1rotN>
2

>  <b_1rotR>
0.090909094

>  <b_ar>
12

>  <b_count>
28

>  <b_double>
0

>  <b_heavy>
22

>  <b_max1len>
2

>  <b_rotN>
2

>  <b_rotR>
0.090909094

>  <b_single>
16

>  <b_triple>
0

>  <chi0>
15.894823

>  <chi0v>
14.559595

>  <chi0v_C>
6.8618073

>  <chi0_C>
7.8948231

>  <chi1>
9.7349586

>  <chi1v>
7.710701

>  <chi1v_C>
3.8618073

>  <chi1_C>
5.1161566

>  <chiral>
0

>  <chiral_u>
0

>  <density>
1.0678487

>  <diameter>
8

>  <FCharge>
0

>  <GCUT_PEOE_0>
-0.75563508

>  <GCUT_PEOE_1>
-0.41258642

>  <GCUT_PEOE_2>
0.067615345

>  <GCUT_PEOE_3>
2.3431413

>  <GCUT_SLOGP_0>
-0.76235801

>  <GCUT_SLOGP_1>
-0.16358249

>  <GCUT_SLOGP_2>
0.4658438

>  <GCUT_SLOGP_3>
2.5782816

>  <GCUT_SMR_0>
-0.4655661

>  <GCUT_SMR_1>
-0.11230856

>  <GCUT_SMR_2>
0.47089082

>  <GCUT_SMR_3>
2.6643131

>  <Kier1>
17.355371

>  <Kier2>
6.6299357

>  <Kier3>
3.3471074

>  <KierA1>
20.543901

>  <KierA2>
7.914825

>  <KierA3>
4.0216861

>  <KierFlex>
7.7429233

>  <lip_acc>
2

>  <lip_don>
2

>  <lip_druglike>
1

>  <lip_violation>
1

>  <logP(o/w)>
6.948

>  <logS>
-6.8696499

>  <mr>
8.6922979

>  <mutagenic>
0

>  <nmol>
1

>  <opr_brigid>
12

>  <opr_leadlike>
1

>  <opr_nring>
2

>  <opr_nrot>
2

>  <opr_violation>
1

>  <PC+>
0

>  <PC->
0

>  <PEOE_PC+>
1.2472048

>  <PEOE_PC->
-1.2472048

>  <PEOE_RPC+>
0.17429774

>  <PEOE_RPC->
0.28708068

>  <PEOE_VSA+0>
21.649164

>  <PEOE_VSA+1>
52.566288

>  <PEOE_VSA+2>
0

>  <PEOE_VSA+3>
0

>  <PEOE_VSA+4>
20.648346

>  <PEOE_VSA+5>
0

>  <PEOE_VSA+6>
0

>  <PEOE_VSA-0>
24.509808

>  <PEOE_VSA-1>
177.49168

>  <PEOE_VSA-2>
0

>  <PEOE_VSA-3>
0

>  <PEOE_VSA-4>
0

>  <PEOE_VSA-5>
0

>  <PEOE_VSA-6>
15.535081

>  <PEOE_VSA_FHYD>
0.88417614

>  <PEOE_VSA_FNEG>
0.69633901

>  <PEOE_VSA_FPNEG>
0.04972811

>  <PEOE_VSA_FPOL>
0.11582389

>  <PEOE_VSA_FPOS>
0.30366096

>  <PEOE_VSA_FPPOS>
0.066095777

>  <PEOE_VSA_HYD>
276.21695

>  <PEOE_VSA_NEG>
217.53658

>  <PEOE_VSA_PNEG>
15.535081

>  <PEOE_VSA_POL>
36.183426

>  <PEOE_VSA_POS>
94.8638

>  <PEOE_VSA_PPOS>
20.648346

>  <petitjean>
0.5

>  <petitjeanSC>
1

>  <Q_PC+>
0

>  <Q_PC->
0

>  <Q_RPC+>
0

>  <Q_RPC->
0

>  <Q_VSA_FHYD>
1

>  <Q_VSA_FNEG>
0

>  <Q_VSA_FPNEG>
0

>  <Q_VSA_FPOL>
0

>  <Q_VSA_FPOS>
1

>  <Q_VSA_FPPOS>
0

>  <Q_VSA_HYD>
312.40036

>  <Q_VSA_NEG>
0

>  <Q_VSA_PNEG>
0

>  <Q_VSA_POL>
0

>  <Q_VSA_POS>
312.40036

>  <Q_VSA_PPOS>
0

>  <radius>
4

>  <reactive>
0

>  <rings>
2

>  <RPC+>
0

>  <RPC->
0

>  <rsynth>
0

>  <SlogP>
6.6089702

>  <SlogP_VSA0>
50.770454

>  <SlogP_VSA1>
0

>  <SlogP_VSA2>
0

>  <SlogP_VSA3>
0

>  <SlogP_VSA4>
6.37115

>  <SlogP_VSA5>
18.868406

>  <SlogP_VSA6>
21.003639

>  <SlogP_VSA7>
35.286369

>  <SlogP_VSA8>
0

>  <SlogP_VSA9>
245.37872

>  <SMR>
8.9079599

>  <SMR_VSA0>
0

>  <SMR_VSA1>
50.770454

>  <SMR_VSA2>
0

>  <SMR_VSA3>
37.861645

>  <SMR_VSA4>
0

>  <SMR_VSA5>
54.154774

>  <SMR_VSA6>
0

>  <SMR_VSA7>
234.89186

>  <TPSA>
40.459999

>  <VAdjEq>
0.46827638

>  <VAdjMa>
5.4594316

>  <VDistEq>
2.9209776

>  <VDistMa>
8.5267439

>  <vdw_area>
312.40036

>  <vdw_vol>
381.05304

>  <vsa_acc>
0

>  <vsa_acid>
0

>  <vsa_base>
0

>  <vsa_don>
0

>  <vsa_hyd>
273.36975

>  <vsa_other>
0

>  <vsa_pol>
27.133842

>  <Weight>
406.90698

>  <weinerPath>
860

>  <weinerPol>
38

>  <zagreb>
110

$$$$