n1ncc2c(cccc2)c1NN
  MOE2013           2D

 12 13  0  0  0  0  0  0  0  0999 V2000
    0.0000    0.0000    0.0000 N   0  0  0  0  0  0  0  0  0  0  0  0
   -0.7490    1.2990    0.0000 N   0  0  0  0  0  0  0  0  0  0  0  0
   -2.2490    1.3000    0.0000 C   0  0  0  0  0  0  0  0  0  0  0  0
   -3.0000    0.0020    0.0000 C   0  0  0  0  0  0  0  0  0  0  0  0
   -2.2510   -1.2980    0.0000 C   0  0  0  0  0  0  0  0  0  0  0  0
   -3.0020   -2.5960    0.0000 C   0  0  0  0  0  0  0  0  0  0  0  0
   -4.5020   -2.5950    0.0000 C   0  0  0  0  0  0  0  0  0  0  0  0
   -5.2510   -1.2960    0.0000 C   0  0  0  0  0  0  0  0  0  0  0  0
   -4.5000    0.0030    0.0000 C   0  0  0  0  0  0  0  0  0  0  0  0
   -0.7510   -1.2990    0.0000 C   0  0  0  0  0  0  0  0  0  0  0  0
   -0.0020   -2.5980    0.0000 N   0  0  0  0  0  0  0  0  0  0  0  0
    1.4980   -2.5990    0.0000 N   0  0  0  0  0  0  0  0  0  0  0  0
  1  2  1  0  0  0  0
  1 10  2  0  0  0  0
  2  3  2  0  0  0  0
  3  4  1  0  0  0  0
  4  5  1  0  0  0  0
  4  9  2  0  0  0  0
  5  6  2  0  0  0  0
  5 10  1  0  0  0  0
  6  7  1  0  0  0  0
  7  8  2  0  0  0  0
  8  9  1  0  0  0  0
 10 11  1  0  0  0  0
 11 12  1  0  0  0  0
M  END
>  <Index>
526

>  <ID>
HT1042

>  <class>
0

>  <apol>
23.814344

>  <ast_fraglike>
1

>  <ast_fraglike_ext>
1

>  <ast_violation>
0

>  <ast_violation_ext>
0

>  <a_acc>
3

>  <a_acid>
0

>  <a_aro>
10

>  <a_base>
0

>  <a_count>
20

>  <a_don>
2

>  <a_donacc>
5

>  <a_heavy>
12

>  <a_hyd>
7

>  <a_IC>
30.438562

>  <a_ICM>
1.5219281

>  <a_nB>
0

>  <a_nBr>
0

>  <a_nC>
8

>  <a_nCl>
0

>  <a_nF>
0

>  <a_nH>
8

>  <a_nI>
0

>  <a_nN>
4

>  <a_nO>
0

>  <a_nP>
0

>  <a_nS>
0

>  <balabanJ>
2.0203762

>  <BCUT_PEOE_0>
-2.2528727

>  <BCUT_PEOE_1>
-0.65012759

>  <BCUT_PEOE_2>
0.66233116

>  <BCUT_PEOE_3>
2.1788254

>  <BCUT_SLOGP_0>
-2.5490599

>  <BCUT_SLOGP_1>
-0.64842945

>  <BCUT_SLOGP_2>
0.69310546

>  <BCUT_SLOGP_3>
2.3437374

>  <BCUT_SMR_0>
-1.900293

>  <BCUT_SMR_1>
-0.47566402

>  <BCUT_SMR_2>
0.83265865

>  <BCUT_SMR_3>
2.5293455

>  <bpol>
8.745656

>  <b_1rotN>
1

>  <b_1rotR>
0.07692308

>  <b_ar>
11

>  <b_count>
21

>  <b_double>
0

>  <b_heavy>
13

>  <b_max1len>
3

>  <b_rotN>
1

>  <b_rotR>
0.07692308

>  <b_single>
10

>  <b_triple>
0

>  <chi0>
8.3889055

>  <chi0v>
6.3585286

>  <chi0v_C>
4.3867512

>  <chi0_C>
5.2675848

>  <chi1>
5.9150147

>  <chi1v>
3.5865061

>  <chi1v_C>
2.3660254

>  <chi1_C>
3.3914115

>  <chiral>
0

>  <chiral_u>
0

>  <density>
0.75531518

>  <diameter>
6

>  <FCharge>
0

>  <GCUT_PEOE_0>
-0.8444584

>  <GCUT_PEOE_1>
-0.43814418

>  <GCUT_PEOE_2>
0.11376254

>  <GCUT_PEOE_3>
2.1458085

>  <GCUT_SLOGP_0>
-1.4017352

>  <GCUT_SLOGP_1>
-0.34059727

>  <GCUT_SLOGP_2>
0.17717735

>  <GCUT_SLOGP_3>
2.2903285

>  <GCUT_SMR_0>
-0.45417702

>  <GCUT_SMR_1>
-0.22423084

>  <GCUT_SMR_2>
0.22126155

>  <GCUT_SMR_3>
2.4716396

>  <Kier1>
8.5917158

>  <Kier2>
3.8062284

>  <Kier3>
1.7013233

>  <KierA1>
5.5219593

>  <KierA2>
2.3347876

>  <KierA3>
1.005574

>  <KierFlex>
1.0743835

>  <lip_acc>
4

>  <lip_don>
3

>  <lip_druglike>
1

>  <lip_violation>
0

>  <logP(o/w)>
1.303

>  <logS>
-2.00951

>  <mr>
4.5760655

>  <mutagenic>
1

>  <nmol>
1

>  <opr_brigid>
11

>  <opr_leadlike>
1

>  <opr_nring>
2

>  <opr_nrot>
1

>  <opr_violation>
0

>  <PC+>
0

>  <PC->
0

>  <PEOE_PC+>
0.99224758

>  <PEOE_PC->
-0.99224758

>  <PEOE_RPC+>
0.1512854

>  <PEOE_RPC->
0.26691964

>  <PEOE_VSA+0>
4.4170794

>  <PEOE_VSA+1>
38.072845

>  <PEOE_VSA+2>
25.857038

>  <PEOE_VSA+3>
11.190562

>  <PEOE_VSA+4>
0

>  <PEOE_VSA+5>
0

>  <PEOE_VSA+6>
0

>  <PEOE_VSA-0>
0

>  <PEOE_VSA-1>
49.019615

>  <PEOE_VSA-2>
9.4210396

>  <PEOE_VSA-3>
9.4210396

>  <PEOE_VSA-4>
3.8753545

>  <PEOE_VSA-5>
10.389583

>  <PEOE_VSA-6>
0

>  <PEOE_VSA_FHYD>
0.91176188

>  <PEOE_VSA_FNEG>
0.50800765

>  <PEOE_VSA_FPNEG>
0.088238098

>  <PEOE_VSA_FPOL>
0.088238098

>  <PEOE_VSA_FPOS>
0.49199232

>  <PEOE_VSA_FPPOS>
0

>  <PEOE_VSA_HYD>
147.39922

>  <PEOE_VSA_NEG>
82.126633

>  <PEOE_VSA_PNEG>
14.264937

>  <PEOE_VSA_POL>
14.264937

>  <PEOE_VSA_POS>
79.537529

>  <PEOE_VSA_PPOS>
0

>  <petitjean>
0.5

>  <petitjeanSC>
1

>  <Q_PC+>
0

>  <Q_PC->
0

>  <Q_RPC+>
0

>  <Q_RPC->
0

>  <Q_VSA_FHYD>
1

>  <Q_VSA_FNEG>
0

>  <Q_VSA_FPNEG>
0

>  <Q_VSA_FPOL>
0

>  <Q_VSA_FPOS>
1

>  <Q_VSA_FPPOS>
0

>  <Q_VSA_HYD>
161.66415

>  <Q_VSA_NEG>
0

>  <Q_VSA_PNEG>
0

>  <Q_VSA_POL>
0

>  <Q_VSA_POS>
161.66415

>  <Q_VSA_PPOS>
0

>  <radius>
3

>  <reactive>
1

>  <rings>
2

>  <RPC+>
0

>  <RPC->
0

>  <rsynth>
1

>  <SlogP>
0.91540003

>  <SlogP_VSA0>
32.774666

>  <SlogP_VSA1>
51.214245

>  <SlogP_VSA2>
0

>  <SlogP_VSA3>
0

>  <SlogP_VSA4>
0

>  <SlogP_VSA5>
0

>  <SlogP_VSA6>
0

>  <SlogP_VSA7>
92.933022

>  <SlogP_VSA8>
0

>  <SlogP_VSA9>
2.3279202

>  <SMR>
4.7348099

>  <SMR_VSA0>
0

>  <SMR_VSA1>
33.326015

>  <SMR_VSA2>
0

>  <SMR_VSA3>
0

>  <SMR_VSA4>
58.136742

>  <SMR_VSA5>
87.787094

>  <SMR_VSA6>
0

>  <SMR_VSA7>
0

>  <TPSA>
63.830002

>  <VAdjEq>
0.68129086

>  <VAdjMa>
4.7004399

>  <VDistEq>
2.3230491

>  <VDistMa>
6.8814173

>  <vdw_area>
161.66415

>  <vdw_vol>
212.0704

>  <vsa_acc>
18.842079

>  <vsa_acid>
0

>  <vsa_base>
0

>  <vsa_don>
9.4210396

>  <vsa_hyd>
87.950562

>  <vsa_other>
11.190562

>  <vsa_pol>
49.744072

>  <Weight>
160.17999

>  <weinerPath>
182

>  <weinerPol>
17

>  <zagreb>
60

$$$$