O=C(C(C)C)c1c2n(nc1C(C)C)C=CC=C2
  MOE2013           2D

 17 18  0  0  0  0  0  0  0  0999 V2000
    0.0000    0.0000    0.0000 O   0  0  0  0  0  0  0  0  0  0  0  0
    1.5000    0.0080    0.0000 C   0  0  0  0  0  0  0  0  0  0  0  0
    2.2430    1.3100    0.0000 C   0  0  0  0  0  0  0  0  0  0  0  0
    3.7430    1.3180    0.0000 C   0  0  0  0  0  0  0  0  0  0  0  0
    1.4870    2.6060    0.0000 C   0  0  0  0  0  0  0  0  0  0  0  0
    2.2570   -1.2880    0.0000 C   0  0  0  0  0  0  0  0  0  0  0  0
    3.7490   -1.4370    0.0000 C   0  0  0  0  0  0  0  0  0  0  0  0
    4.0680   -2.9020    0.0000 N   0  0  0  0  0  0  0  0  0  0  0  0
    2.7730   -3.6590    0.0000 N   0  0  0  0  0  0  0  0  0  0  0  0
    1.6530   -2.6610    0.0000 C   0  0  0  0  0  0  0  0  0  0  0  0
    0.1880   -2.9800    0.0000 C   0  0  0  0  0  0  0  0  0  0  0  0
   -0.2690   -4.4090    0.0000 C   0  0  0  0  0  0  0  0  0  0  0  0
   -0.8220   -1.8710    0.0000 C   0  0  0  0  0  0  0  0  0  0  0  0
    5.4970   -3.3590    0.0000 C   0  0  0  0  0  0  0  0  0  0  0  0
    6.6070   -2.3490    0.0000 C   0  0  0  0  0  0  0  0  0  0  0  0
    6.2880   -0.8840    0.0000 C   0  0  0  0  0  0  0  0  0  0  0  0
    4.8590   -0.4280    0.0000 C   0  0  0  0  0  0  0  0  0  0  0  0
  1  2  2  0  0  0  0
  2  3  1  0  0  0  0
  2  6  1  0  0  0  0
  3  4  1  0  0  0  0
  3  5  1  0  0  0  0
  6  7  2  0  0  0  0
  6 10  1  0  0  0  0
  7  8  1  0  0  0  0
  7 17  1  0  0  0  0
  8  9  1  0  0  0  0
  8 14  1  0  0  0  0
  9 10  2  0  0  0  0
 10 11  1  0  0  0  0
 11 12  1  0  0  0  0
 11 13  1  0  0  0  0
 14 15  2  0  0  0  0
 15 16  1  0  0  0  0
 16 17  2  0  0  0  0
M  END
>  <Index>
543

>  <ID>
HT1067

>  <class>
0

>  <apol>
39.644276

>  <ast_fraglike>
0

>  <ast_fraglike_ext>
0

>  <ast_violation>
1

>  <ast_violation_ext>
1

>  <a_acc>
2

>  <a_acid>
0

>  <a_aro>
5

>  <a_base>
0

>  <a_count>
35

>  <a_don>
0

>  <a_donacc>
2

>  <a_heavy>
17

>  <a_hyd>
13

>  <a_IC>
49.163288

>  <a_ICM>
1.4046654

>  <a_nB>
0

>  <a_nBr>
0

>  <a_nC>
14

>  <a_nCl>
0

>  <a_nF>
0

>  <a_nH>
18

>  <a_nI>
0

>  <a_nN>
2

>  <a_nO>
1

>  <a_nP>
0

>  <a_nS>
0

>  <balabanJ>
2.1830986

>  <BCUT_PEOE_0>
-2.5271654

>  <BCUT_PEOE_1>
-0.49433148

>  <BCUT_PEOE_2>
0.45792794

>  <BCUT_PEOE_3>
2.5526738

>  <BCUT_SLOGP_0>
-2.4706709

>  <BCUT_SLOGP_1>
-0.38170403

>  <BCUT_SLOGP_2>
0.49548787

>  <BCUT_SLOGP_3>
2.6414711

>  <BCUT_SMR_0>
-2.2887151

>  <BCUT_SMR_1>
-0.33374634

>  <BCUT_SMR_2>
0.62461919

>  <BCUT_SMR_3>
2.8085568

>  <bpol>
22.615726

>  <b_1rotN>
3

>  <b_1rotR>
0.16666667

>  <b_ar>
5

>  <b_count>
36

>  <b_double>
3

>  <b_heavy>
18

>  <b_max1len>
4

>  <b_rotN>
3

>  <b_rotR>
0.16666667

>  <b_single>
28

>  <b_triple>
0

>  <chi0>
12.576985

>  <chi0v>
10.766777

>  <chi0v_C>
9.4641018

>  <chi0_C>
10.292529

>  <chi1>
8.0197449

>  <chi1v>
6.0349631

>  <chi1v_C>
4.9254265

>  <chi1_C>
5.884316

>  <chiral>
0

>  <chiral_u>
0

>  <density>
0.68113381

>  <diameter>
7

>  <FCharge>
0

>  <GCUT_PEOE_0>
-0.82529879

>  <GCUT_PEOE_1>
-0.3739717

>  <GCUT_PEOE_2>
-0.0095331268

>  <GCUT_PEOE_3>
2.5608077

>  <GCUT_SLOGP_0>
-0.89648294

>  <GCUT_SLOGP_1>
-0.24276571

>  <GCUT_SLOGP_2>
0.063521989

>  <GCUT_SLOGP_3>
2.6362982

>  <GCUT_SMR_0>
-0.52296156

>  <GCUT_SMR_1>
-0.1820741

>  <GCUT_SMR_2>
0.14607705

>  <GCUT_SMR_3>
2.8312342

>  <Kier1>
13.432098

>  <Kier2>
5.3254437

>  <Kier3>
2.5599999

>  <KierA1>
9.9567862

>  <KierA2>
3.8669248

>  <KierA3>
1.8283968

>  <KierFlex>
2.2648318

>  <lip_acc>
3

>  <lip_don>
0

>  <lip_druglike>
1

>  <lip_violation>
0

>  <logP(o/w)>
2.3299999

>  <logS>
-2.20138

>  <mr>
6.8819389

>  <mutagenic>
0

>  <nmol>
1

>  <opr_brigid>
10

>  <opr_leadlike>
1

>  <opr_nring>
2

>  <opr_nrot>
3

>  <opr_violation>
0

>  <PC+>
0

>  <PC->
0

>  <PEOE_PC+>
1.0655861

>  <PEOE_PC->
-1.0655861

>  <PEOE_RPC+>
0.15907635

>  <PEOE_RPC->
0.2736991

>  <PEOE_VSA+0>
76.461319

>  <PEOE_VSA+1>
32.669186

>  <PEOE_VSA+2>
0

>  <PEOE_VSA+3>
8.458519

>  <PEOE_VSA+4>
0

>  <PEOE_VSA+5>
0

>  <PEOE_VSA+6>
0

>  <PEOE_VSA-0>
24.509808

>  <PEOE_VSA-1>
87.245613

>  <PEOE_VSA-2>
0

>  <PEOE_VSA-3>
9.4210396

>  <PEOE_VSA-4>
0

>  <PEOE_VSA-5>
13.566921

>  <PEOE_VSA-6>
0

>  <PEOE_VSA_FHYD>
0.94623393

>  <PEOE_VSA_FNEG>
0.53399158

>  <PEOE_VSA_FPNEG>
0.053766064

>  <PEOE_VSA_FPOL>
0.053766064

>  <PEOE_VSA_FPOS>
0.46600842

>  <PEOE_VSA_FPPOS>
0

>  <PEOE_VSA_HYD>
238.76549

>  <PEOE_VSA_NEG>
134.74338

>  <PEOE_VSA_PNEG>
13.566921

>  <PEOE_VSA_POL>
13.566921

>  <PEOE_VSA_POS>
117.58903

>  <PEOE_VSA_PPOS>
0

>  <petitjean>
0.42857143

>  <petitjeanSC>
0.75

>  <Q_PC+>
0

>  <Q_PC->
0

>  <Q_RPC+>
0

>  <Q_RPC->
0

>  <Q_VSA_FHYD>
1

>  <Q_VSA_FNEG>
0

>  <Q_VSA_FPNEG>
0

>  <Q_VSA_FPOL>
0

>  <Q_VSA_FPOS>
1

>  <Q_VSA_FPPOS>
0

>  <Q_VSA_HYD>
252.33241

>  <Q_VSA_NEG>
0

>  <Q_VSA_PNEG>
0

>  <Q_VSA_POL>
0

>  <Q_VSA_POS>
252.33241

>  <Q_VSA_PPOS>
0

>  <radius>
4

>  <reactive>
1

>  <rings>
2

>  <RPC+>
0

>  <RPC->
0

>  <rsynth>
0.29411766

>  <SlogP>
3.3427

>  <SlogP_VSA0>
0

>  <SlogP_VSA1>
24.12719

>  <SlogP_VSA2>
0

>  <SlogP_VSA3>
0

>  <SlogP_VSA4>
36.972084

>  <SlogP_VSA5>
0

>  <SlogP_VSA6>
4.4107962

>  <SlogP_VSA7>
35.286369

>  <SlogP_VSA8>
34.85754

>  <SlogP_VSA9>
133.30406

>  <SMR>
6.9848499

>  <SMR_VSA0>
23.862217

>  <SMR_VSA1>
18.439579

>  <SMR_VSA2>
4.4107962

>  <SMR_VSA3>
13.109866

>  <SMR_VSA4>
0

>  <SMR_VSA5>
35.286369

>  <SMR_VSA6>
40.545151

>  <SMR_VSA7>
133.30406

>  <TPSA>
34.889999

>  <VAdjEq>
0.54234898

>  <VAdjMa>
5.1699252

>  <VDistEq>
2.6226954

>  <VDistMa>
7.9219813

>  <vdw_area>
252.33241

>  <vdw_vol>
338.12888

>  <vsa_acc>
22.987961

>  <vsa_acid>
0

>  <vsa_base>
0

>  <vsa_don>
0

>  <vsa_hyd>
205.38351

>  <vsa_other>
8.458519

>  <vsa_pol>
22.987961

>  <Weight>
230.31099

>  <weinerPath>
468

>  <weinerPol>
27

>  <zagreb>
88

$$$$