OC1C(O)C(O)C(O)C(O)C1O
  MOE2013           2D

 12 12  0  0  0  0  0  0  0  0999 V2000
    0.0000    0.0000    0.0000 O   0  0  0  0  0  0  0  0  0  0  0  0
    1.5000    0.0000    0.0000 C   0  0  0  0  0  0  0  0  0  0  0  0
    2.2500   -1.2990    0.0000 C   0  0  0  0  0  0  0  0  0  0  0  0
    1.5000   -2.5980    0.0000 O   0  0  0  0  0  0  0  0  0  0  0  0
    3.7500   -1.2990    0.0000 C   0  0  0  0  0  0  0  0  0  0  0  0
    4.5000   -2.5980    0.0000 O   0  0  0  0  0  0  0  0  0  0  0  0
    4.5000    0.0000    0.0000 C   0  0  0  0  0  0  0  0  0  0  0  0
    6.0000    0.0000    0.0000 O   0  0  0  0  0  0  0  0  0  0  0  0
    3.7500    1.2990    0.0000 C   0  0  0  0  0  0  0  0  0  0  0  0
    4.5000    2.5980    0.0000 O   0  0  0  0  0  0  0  0  0  0  0  0
    2.2500    1.2990    0.0000 C   0  0  0  0  0  0  0  0  0  0  0  0
    1.5000    2.5980    0.0000 O   0  0  0  0  0  0  0  0  0  0  0  0
  1  2  1  0  0  0  0
  2  3  1  0  0  0  0
  2 11  1  0  0  0  0
  3  4  1  0  0  0  0
  3  5  1  0  0  0  0
  5  6  1  0  0  0  0
  5  7  1  0  0  0  0
  7  8  1  0  0  0  0
  7  9  1  0  0  0  0
  9 10  1  0  0  0  0
  9 11  1  0  0  0  0
 11 12  1  0  0  0  0
M  END
>  <Index>
557

>  <ID>
HT1098

>  <class>
0

>  <apol>
23.373516

>  <ast_fraglike>
0

>  <ast_fraglike_ext>
0

>  <ast_violation>
2

>  <ast_violation_ext>
3

>  <a_acc>
6

>  <a_acid>
0

>  <a_aro>
0

>  <a_base>
0

>  <a_count>
24

>  <a_don>
6

>  <a_donacc>
12

>  <a_heavy>
12

>  <a_hyd>
6

>  <a_IC>
36

>  <a_ICM>
1.5

>  <a_nB>
0

>  <a_nBr>
0

>  <a_nC>
6

>  <a_nCl>
0

>  <a_nF>
0

>  <a_nH>
12

>  <a_nI>
0

>  <a_nN>
0

>  <a_nO>
6

>  <a_nP>
0

>  <a_nS>
0

>  <balabanJ>
2.760252

>  <BCUT_PEOE_0>
-2.7408066

>  <BCUT_PEOE_1>
-0.73420537

>  <BCUT_PEOE_2>
0.7819379

>  <BCUT_PEOE_3>
2.8270082

>  <BCUT_SLOGP_0>
-2.9633183

>  <BCUT_SLOGP_1>
-0.94164884

>  <BCUT_SLOGP_2>
0.54915386

>  <BCUT_SLOGP_3>
2.5941865

>  <BCUT_SMR_0>
-2.5469351

>  <BCUT_SMR_1>
-0.60543287

>  <BCUT_SMR_2>
0.86921555

>  <BCUT_SMR_3>
3.0062153

>  <bpol>
13.118484

>  <b_1rotN>
0

>  <b_1rotR>
0

>  <b_ar>
0

>  <b_count>
24

>  <b_double>
0

>  <b_heavy>
12

>  <b_max1len>
3

>  <b_rotN>
0

>  <b_rotR>
0

>  <b_single>
24

>  <b_triple>
0

>  <chi0>
9.4641018

>  <chi0v>
6.1473832

>  <chi0v_C>
3.4641016

>  <chi0_C>
3.4641016

>  <chi1>
5.4641018

>  <chi1v>
3.5491934

>  <chi1v_C>
2

>  <chi1_C>
2

>  <chiral>
0

>  <chiral_u>
0

>  <density>
0.91122097

>  <diameter>
5

>  <FCharge>
0

>  <GCUT_PEOE_0>
-0.78951406

>  <GCUT_PEOE_1>
-0.46671078

>  <GCUT_PEOE_2>
0.22927305

>  <GCUT_PEOE_3>
2.5237045

>  <GCUT_SLOGP_0>
-0.95955414

>  <GCUT_SLOGP_1>
-0.66990185

>  <GCUT_SLOGP_2>
-0.0089731002

>  <GCUT_SLOGP_3>
2.3376434

>  <GCUT_SMR_0>
-0.5223152

>  <GCUT_SMR_1>
-0.29877627

>  <GCUT_SMR_2>
0.25519621

>  <GCUT_SMR_3>
2.6999791

>  <Kier1>
10.083333

>  <Kier2>
3.3950617

>  <Kier3>
1.5625

>  <KierA1>
10.083333

>  <KierA2>
3.3950617

>  <KierA3>
1.5625

>  <KierFlex>
2.8527949

>  <lip_acc>
6

>  <lip_don>
6

>  <lip_druglike>
1

>  <lip_violation>
1

>  <logP(o/w)>
-3.5

>  <logS>
1.47586

>  <mr>
3.5818889

>  <mutagenic>
0

>  <nmol>
1

>  <opr_brigid>
6

>  <opr_leadlike>
0

>  <opr_nring>
1

>  <opr_nrot>
2

>  <opr_violation>
2

>  <PC+>
0

>  <PC->
0

>  <PEOE_PC+>
2.318927

>  <PEOE_PC->
-2.318927

>  <PEOE_RPC+>
0.090560667

>  <PEOE_RPC->
0.16666667

>  <PEOE_VSA+0>
0

>  <PEOE_VSA+1>
25.592316

>  <PEOE_VSA+2>
29.429573

>  <PEOE_VSA+3>
0

>  <PEOE_VSA+4>
61.945034

>  <PEOE_VSA+5>
0

>  <PEOE_VSA+6>
0

>  <PEOE_VSA-0>
0

>  <PEOE_VSA-1>
0

>  <PEOE_VSA-2>
0

>  <PEOE_VSA-3>
0

>  <PEOE_VSA-4>
0

>  <PEOE_VSA-5>
0

>  <PEOE_VSA-6>
46.60524

>  <PEOE_VSA_FHYD>
0.33637685

>  <PEOE_VSA_FNEG>
0.28492159

>  <PEOE_VSA_FPNEG>
0.28492159

>  <PEOE_VSA_FPOL>
0.66362315

>  <PEOE_VSA_FPOS>
0.71507841

>  <PEOE_VSA_FPPOS>
0.37870157

>  <PEOE_VSA_HYD>
55.021889

>  <PEOE_VSA_NEG>
46.60524

>  <PEOE_VSA_PNEG>
46.60524

>  <PEOE_VSA_POL>
108.55028

>  <PEOE_VSA_POS>
116.96693

>  <PEOE_VSA_PPOS>
61.945034

>  <petitjean>
0.2

>  <petitjeanSC>
0.25

>  <Q_PC+>
0

>  <Q_PC->
0

>  <Q_RPC+>
0

>  <Q_RPC->
0

>  <Q_VSA_FHYD>
1

>  <Q_VSA_FNEG>
0

>  <Q_VSA_FPNEG>
0

>  <Q_VSA_FPOL>
0

>  <Q_VSA_FPOS>
1

>  <Q_VSA_FPPOS>
0

>  <Q_VSA_HYD>
163.57216

>  <Q_VSA_NEG>
0

>  <Q_VSA_PNEG>
0

>  <Q_VSA_POL>
0

>  <Q_VSA_POS>
163.57216

>  <Q_VSA_PPOS>
0

>  <radius>
4

>  <reactive>
0

>  <rings>
1

>  <RPC+>
0

>  <RPC->
0

>  <rsynth>
1

>  <SlogP>
-3.8346

>  <SlogP_VSA0>
152.31136

>  <SlogP_VSA1>
0

>  <SlogP_VSA2>
38.811897

>  <SlogP_VSA3>
0

>  <SlogP_VSA4>
0

>  <SlogP_VSA5>
0

>  <SlogP_VSA6>
0

>  <SlogP_VSA7>
0

>  <SlogP_VSA8>
0

>  <SlogP_VSA9>
0

>  <SMR>
3.60408

>  <SMR_VSA0>
0

>  <SMR_VSA1>
152.31136

>  <SMR_VSA2>
0

>  <SMR_VSA3>
38.811897

>  <SMR_VSA4>
0

>  <SMR_VSA5>
0

>  <SMR_VSA6>
0

>  <SMR_VSA7>
0

>  <TPSA>
121.38

>  <VAdjEq>
0.65002245

>  <VAdjMa>
4.5849624

>  <VDistEq>
2.1339197

>  <VDistMa>
6.9102907

>  <vdw_area>
163.57216

>  <vdw_vol>
197.70834

>  <vsa_acc>
0

>  <vsa_acid>
0

>  <vsa_base>
0

>  <vsa_don>
0

>  <vsa_hyd>
50.751118

>  <vsa_other>
0

>  <vsa_pol>
81.401527

>  <Weight>
180.15599

>  <weinerPath>
174

>  <weinerPol>
21

>  <zagreb>
60

$$$$