o1nc(cc1C)C(=O)NNCc1ccccc1
  MOE2013           2D

 17 18  0  0  0  0  0  0  0  0999 V2000
    0.0000    0.0000    0.0000 O   0  0  0  0  0  0  0  0  0  0  0  0
   -1.5000   -0.0240    0.0000 N   0  0  0  0  0  0  0  0  0  0  0  0
   -1.9410   -1.4570    0.0000 C   0  0  0  0  0  0  0  0  0  0  0  0
   -0.7130   -2.3200    0.0000 C   0  0  0  0  0  0  0  0  0  0  0  0
    0.4860   -1.4190    0.0000 C   0  0  0  0  0  0  0  0  0  0  0  0
    1.9200   -1.8600    0.0000 C   0  0  0  0  0  0  0  0  0  0  0  0
   -3.3600   -1.9430    0.0000 C   0  0  0  0  0  0  0  0  0  0  0  0
   -3.6480   -3.4150    0.0000 O   0  0  0  0  0  0  0  0  0  0  0  0
   -4.4900   -0.9570    0.0000 N   0  0  0  0  0  0  0  0  0  0  0  0
   -5.9090   -1.4430    0.0000 N   0  0  0  0  0  0  0  0  0  0  0  0
   -7.0400   -0.4580    0.0000 C   0  0  0  0  0  0  0  0  0  0  0  0
   -8.4590   -0.9440    0.0000 C   0  0  0  0  0  0  0  0  0  0  0  0
   -8.7480   -2.4150    0.0000 C   0  0  0  0  0  0  0  0  0  0  0  0
  -10.1670   -2.9010    0.0000 C   0  0  0  0  0  0  0  0  0  0  0  0
  -11.2970   -1.9160    0.0000 C   0  0  0  0  0  0  0  0  0  0  0  0
  -11.0080   -0.4440    0.0000 C   0  0  0  0  0  0  0  0  0  0  0  0
   -9.5890    0.0420    0.0000 C   0  0  0  0  0  0  0  0  0  0  0  0
  1  2  1  0  0  0  0
  1  5  1  0  0  0  0
  2  3  2  0  0  0  0
  3  4  1  0  0  0  0
  3  7  1  0  0  0  0
  4  5  2  0  0  0  0
  5  6  1  0  0  0  0
  7  8  2  0  0  0  0
  7  9  1  0  0  0  0
  9 10  1  0  0  0  0
 10 11  1  0  0  0  0
 11 12  1  0  0  0  0
 12 13  1  0  0  0  0
 12 17  2  0  0  0  0
 13 14  2  0  0  0  0
 14 15  1  0  0  0  0
 15 16  2  0  0  0  0
 16 17  1  0  0  0  0
M  END
>  <Index>
568

>  <ID>
HT1129

>  <class>
0

>  <apol>
34.69231

>  <ast_fraglike>
1

>  <ast_fraglike_ext>
0

>  <ast_violation>
0

>  <ast_violation_ext>
1

>  <a_acc>
3

>  <a_acid>
0

>  <a_aro>
11

>  <a_base>
0

>  <a_count>
30

>  <a_don>
2

>  <a_donacc>
5

>  <a_heavy>
17

>  <a_hyd>
10

>  <a_IC>
49.326565

>  <a_ICM>
1.6442188

>  <a_nB>
0

>  <a_nBr>
0

>  <a_nC>
12

>  <a_nCl>
0

>  <a_nF>
0

>  <a_nH>
13

>  <a_nI>
0

>  <a_nN>
3

>  <a_nO>
2

>  <a_nP>
0

>  <a_nS>
0

>  <balabanJ>
1.582212

>  <BCUT_PEOE_0>
-2.429235

>  <BCUT_PEOE_1>
-0.56308585

>  <BCUT_PEOE_2>
0.64401937

>  <BCUT_PEOE_3>
2.3515563

>  <BCUT_SLOGP_0>
-2.6472518

>  <BCUT_SLOGP_1>
-0.50602996

>  <BCUT_SLOGP_2>
0.72175503

>  <BCUT_SLOGP_3>
2.4099109

>  <BCUT_SMR_0>
-2.1247873

>  <BCUT_SMR_1>
-0.42711028

>  <BCUT_SMR_2>
0.77147549

>  <BCUT_SMR_3>
2.6424654

>  <bpol>
17.085691

>  <b_1rotN>
4

>  <b_1rotR>
0.22222222

>  <b_ar>
11

>  <b_count>
31

>  <b_double>
1

>  <b_heavy>
18

>  <b_max1len>
4

>  <b_rotN>
5

>  <b_rotR>
0.27777779

>  <b_single>
19

>  <b_triple>
0

>  <chi0>
12.087576

>  <chi0v>
9.4349184

>  <chi0v_C>
7.1712084

>  <chi0_C>
8.2591486

>  <chi1>
8.2540197

>  <chi1v>
5.2595701

>  <chi1v_C>
3.5915873

>  <chi1_C>
4.9519253

>  <chiral>
0

>  <chiral_u>
0

>  <density>
0.75187409

>  <diameter>
11

>  <FCharge>
0

>  <GCUT_PEOE_0>
-0.86104983

>  <GCUT_PEOE_1>
-0.39543432

>  <GCUT_PEOE_2>
0.094746053

>  <GCUT_PEOE_3>
2.2506299

>  <GCUT_SLOGP_0>
-1.2757782

>  <GCUT_SLOGP_1>
-0.30196017

>  <GCUT_SLOGP_2>
0.16753793

>  <GCUT_SLOGP_3>
2.3071826

>  <GCUT_SMR_0>
-0.49362803

>  <GCUT_SMR_1>
-0.21822301

>  <GCUT_SMR_2>
0.17774148

>  <GCUT_SMR_3>
2.5220902

>  <Kier1>
13.432098

>  <Kier2>
6.8052931

>  <Kier3>
4.3017831

>  <KierA1>
9.4401207

>  <KierA2>
4.666769

>  <KierA3>
2.8924263

>  <KierFlex>
2.5914626

>  <lip_acc>
5

>  <lip_don>
2

>  <lip_druglike>
1

>  <lip_violation>
0

>  <logP(o/w)>
1.3940001

>  <logS>
-2.10886

>  <mr>
6.5014281

>  <mutagenic>
0

>  <nmol>
1

>  <opr_brigid>
11

>  <opr_leadlike>
1

>  <opr_nring>
2

>  <opr_nrot>
4

>  <opr_violation>
0

>  <PC+>
0

>  <PC->
0

>  <PEOE_PC+>
1.5457228

>  <PEOE_PC->
-1.5457228

>  <PEOE_RPC+>
0.18609528

>  <PEOE_RPC->
0.2323806

>  <PEOE_VSA+0>
46.774158

>  <PEOE_VSA+1>
25.592316

>  <PEOE_VSA+2>
17.077532

>  <PEOE_VSA+3>
15.318564

>  <PEOE_VSA+4>
0

>  <PEOE_VSA+5>
12.949531

>  <PEOE_VSA+6>
0

>  <PEOE_VSA-0>
20.956217

>  <PEOE_VSA-1>
72.159782

>  <PEOE_VSA-2>
0

>  <PEOE_VSA-3>
0

>  <PEOE_VSA-4>
3.8753545

>  <PEOE_VSA-5>
17.442276

>  <PEOE_VSA-6>
5.9023595

>  <PEOE_VSA_FHYD>
0.8312546

>  <PEOE_VSA_FNEG>
0.50551122

>  <PEOE_VSA_FPNEG>
0.1143466

>  <PEOE_VSA_FPOL>
0.1687454

>  <PEOE_VSA_FPOS>
0.49448875

>  <PEOE_VSA_FPPOS>
0.054398801

>  <PEOE_VSA_HYD>
197.87857

>  <PEOE_VSA_NEG>
120.33599

>  <PEOE_VSA_PNEG>
27.21999

>  <PEOE_VSA_POL>
40.169521

>  <PEOE_VSA_POS>
117.7121

>  <PEOE_VSA_PPOS>
12.949531

>  <petitjean>
0.45454547

>  <petitjeanSC>
0.83333331

>  <Q_PC+>
0

>  <Q_PC->
0

>  <Q_RPC+>
0

>  <Q_RPC->
0

>  <Q_VSA_FHYD>
1

>  <Q_VSA_FNEG>
0

>  <Q_VSA_FPNEG>
0

>  <Q_VSA_FPOL>
0

>  <Q_VSA_FPOS>
1

>  <Q_VSA_FPPOS>
0

>  <Q_VSA_HYD>
238.0481

>  <Q_VSA_NEG>
0

>  <Q_VSA_PNEG>
0

>  <Q_VSA_POL>
0

>  <Q_VSA_POS>
238.0481

>  <Q_VSA_PPOS>
0

>  <radius>
6

>  <reactive>
1

>  <rings>
2

>  <RPC+>
0

>  <RPC->
0

>  <rsynth>
1

>  <SlogP>
1.68402

>  <SlogP_VSA0>
35.776459

>  <SlogP_VSA1>
24.855381

>  <SlogP_VSA2>
0

>  <SlogP_VSA3>
0

>  <SlogP_VSA4>
35.253361

>  <SlogP_VSA5>
9.7341213

>  <SlogP_VSA6>
0

>  <SlogP_VSA7>
105.85911

>  <SlogP_VSA8>
0

>  <SlogP_VSA9>
51.765594

>  <SMR>
6.2192898

>  <SMR_VSA0>
33.596336

>  <SMR_VSA1>
19.596598

>  <SMR_VSA2>
35.776459

>  <SMR_VSA3>
11.391144

>  <SMR_VSA4>
0

>  <SMR_VSA5>
124.29868

>  <SMR_VSA6>
5.2587838

>  <SMR_VSA7>
33.326015

>  <TPSA>
67.160004

>  <VAdjEq>
0.54234898

>  <VAdjMa>
5.1699252

>  <VDistEq>
3.2447193

>  <VDistMa>
7.8252101

>  <vdw_area>
238.0481

>  <vdw_vol>
307.57144

>  <vsa_acc>
24.452183

>  <vsa_acid>
0

>  <vsa_base>
0

>  <vsa_don>
9.4210396

>  <vsa_hyd>
153.46701

>  <vsa_other>
27.31041

>  <vsa_pol>
43.294262

>  <Weight>
231.25499

>  <weinerPath>
613

>  <weinerPol>
19

>  <zagreb>
82

$$$$