S(CCN=CN)C=1CC2N(C(=O)C2C(O)C)C=1C(O)=O
  MOE2013           2D

 20 21  0  0  1  0  0  0  0  0999 V2000
    0.0000    0.0000    0.0000 S   0  0  0  0  0  0  0  0  0  0  0  0
    0.7470   -1.3000    0.0000 C   0  0  0  0  0  0  0  0  0  0  0  0
    2.2470   -1.3030    0.0000 C   0  0  0  0  0  0  0  0  0  0  0  0
    2.9950   -2.6040    0.0000 N   0  0  0  0  0  0  0  0  0  0  0  0
    4.4950   -2.6070    0.0000 C   0  0  0  0  0  0  0  0  0  0  0  0
    5.2420   -3.9070    0.0000 N   0  0  0  0  0  0  0  0  0  0  0  0
   -1.5000    0.0030    0.0000 C   0  0  0  0  0  0  0  0  0  0  0  0
   -2.3840   -1.2090    0.0000 C   0  0  0  0  0  0  0  0  0  0  0  0
   -3.8100   -0.7430    0.0000 C   0  0  3  0  0  0  0  0  0  0  0  0
   -3.8070    0.7570    0.0000 N   0  0  0  0  0  0  0  0  0  0  0  0
   -5.3070    0.7600    0.0000 C   0  0  0  0  0  0  0  0  0  0  0  0
   -6.3650    1.8230    0.0000 O   0  0  0  0  0  0  0  0  0  0  0  0
   -5.3100   -0.7400    0.0000 C   0  0  3  0  0  0  0  0  0  0  0  0
   -6.3720   -1.7980    0.0000 C   0  0  3  0  0  0  0  0  0  0  0  0
   -7.8210   -1.4070    0.0000 O   0  0  0  0  0  0  0  0  0  0  0  0
   -5.9870   -3.2480    0.0000 C   0  0  0  0  0  0  0  0  0  0  0  0
   -2.3790    1.2180    0.0000 C   0  0  0  0  0  0  0  0  0  0  0  0
   -1.9130    2.6440    0.0000 C   0  0  0  0  0  0  0  0  0  0  0  0
   -0.4450    2.9530    0.0000 O   0  0  0  0  0  0  0  0  0  0  0  0
   -2.9150    3.7610    0.0000 O   0  0  0  0  0  0  0  0  0  0  0  0
  1  2  1  0  0  0  0
  1  7  1  0  0  0  0
  2  3  1  0  0  0  0
  3  4  1  0  0  0  0
  4  5  2  3  0  0  0
  5  6  1  0  0  0  0
  7  8  1  0  0  0  0
  7 17  2  0  0  0  0
  8  9  1  0  0  0  0
  9 10  1  0  0  0  0
  9 13  1  0  0  0  0
 10 11  1  0  0  0  0
 10 17  1  0  0  0  0
 11 12  2  0  0  0  0
 11 13  1  0  0  0  0
 13 14  1  0  0  0  0
 14 15  1  0  0  0  0
 14 16  1  0  0  0  0
 17 18  1  0  0  0  0
 18 19  1  0  0  0  0
 18 20  2  0  0  0  0
M  END
>  <Index>
550

>  <ID>
HT1081

>  <class>
0

>  <apol>
41.86348

>  <ast_fraglike>
0

>  <ast_fraglike_ext>
0

>  <ast_violation>
2

>  <ast_violation_ext>
4

>  <a_acc>
5

>  <a_acid>
0

>  <a_aro>
0

>  <a_base>
0

>  <a_count>
37

>  <a_don>
4

>  <a_donacc>
9

>  <a_heavy>
20

>  <a_hyd>
10

>  <a_IC>
67.488472

>  <a_ICM>
1.8240126

>  <a_nB>
0

>  <a_nBr>
0

>  <a_nC>
12

>  <a_nCl>
0

>  <a_nF>
0

>  <a_nH>
17

>  <a_nI>
0

>  <a_nN>
3

>  <a_nO>
4

>  <a_nP>
0

>  <a_nS>
1

>  <balabanJ>
1.9609184

>  <BCUT_PEOE_0>
-2.7118309

>  <BCUT_PEOE_1>
-0.57339424

>  <BCUT_PEOE_2>
0.56296152

>  <BCUT_PEOE_3>
2.8122282

>  <BCUT_SLOGP_0>
-2.8434229

>  <BCUT_SLOGP_1>
-0.49958125

>  <BCUT_SLOGP_2>
0.57115871

>  <BCUT_SLOGP_3>
2.7348206

>  <BCUT_SMR_0>
-2.4783516

>  <BCUT_SMR_1>
-0.34226659

>  <BCUT_SMR_2>
0.78680474

>  <BCUT_SMR_3>
3.0566647

>  <bpol>
25.420519

>  <b_1rotN>
6

>  <b_1rotR>
0.2857143

>  <b_ar>
0

>  <b_count>
38

>  <b_double>
4

>  <b_heavy>
21

>  <b_max1len>
4

>  <b_rotN>
6

>  <b_rotR>
0.2857143

>  <b_single>
34

>  <b_triple>
0

>  <chi0>
14.861443

>  <chi0v>
11.838167

>  <chi0v_C>
7.4307213

>  <chi0_C>
7.8698792

>  <chi1>
9.4852695

>  <chi1v>
7.2761183

>  <chi1v_C>
3.2944937

>  <chi1_C>
3.5605135

>  <chiral>
3

>  <chiral_u>
3

>  <density>
0.83813447

>  <diameter>
11

>  <FCharge>
0

>  <GCUT_PEOE_0>
-0.85453165

>  <GCUT_PEOE_1>
-0.42632854

>  <GCUT_PEOE_2>
0.073089108

>  <GCUT_PEOE_3>
2.6033821

>  <GCUT_SLOGP_0>
-1.3703202

>  <GCUT_SLOGP_1>
-0.41439673

>  <GCUT_SLOGP_2>
0.073855467

>  <GCUT_SLOGP_3>
2.5871861

>  <GCUT_SMR_0>
-0.54801464

>  <GCUT_SMR_1>
-0.22468732

>  <GCUT_SMR_2>
0.26006991

>  <GCUT_SMR_3>
2.8587401

>  <Kier1>
16.371881

>  <Kier2>
6.8400002

>  <Kier3>
3.1224489

>  <KierA1>
14.351371

>  <KierA2>
5.9518642

>  <KierA3>
2.702415

>  <KierFlex>
4.2708702

>  <lip_acc>
7

>  <lip_don>
4

>  <lip_druglike>
1

>  <lip_violation>
0

>  <logP(o/w)>
-0.93599999

>  <logS>
-1.61212

>  <mr>
7.430233

>  <mutagenic>
0

>  <nmol>
1

>  <opr_brigid>
9

>  <opr_leadlike>
1

>  <opr_nring>
2

>  <opr_nrot>
6

>  <opr_violation>
0

>  <PC+>
0

>  <PC->
0

>  <PEOE_PC+>
2.3768177

>  <PEOE_PC->
-2.3768177

>  <PEOE_RPC+>
0.12987231

>  <PEOE_RPC->
0.16460246

>  <PEOE_VSA+0>
57.686378

>  <PEOE_VSA+1>
59.541687

>  <PEOE_VSA+2>
10.964937

>  <PEOE_VSA+3>
17.238026

>  <PEOE_VSA+4>
33.597878

>  <PEOE_VSA+5>
0

>  <PEOE_VSA+6>
14.708499

>  <PEOE_VSA-0>
18.747677

>  <PEOE_VSA-1>
0

>  <PEOE_VSA-2>
19.760618

>  <PEOE_VSA-3>
0

>  <PEOE_VSA-4>
0

>  <PEOE_VSA-5>
32.816418

>  <PEOE_VSA-6>
22.186199

>  <PEOE_VSA_FHYD>
0.64034951

>  <PEOE_VSA_FNEG>
0.32554033

>  <PEOE_VSA_FPNEG>
0.19148108

>  <PEOE_VSA_FPOL>
0.35965046

>  <PEOE_VSA_FPOS>
0.67445964

>  <PEOE_VSA_FPPOS>
0.16816939

>  <PEOE_VSA_HYD>
183.93932

>  <PEOE_VSA_NEG>
93.51091

>  <PEOE_VSA_PNEG>
55.002617

>  <PEOE_VSA_POL>
103.30899

>  <PEOE_VSA_POS>
193.7374

>  <PEOE_VSA_PPOS>
48.306377

>  <petitjean>
0.45454547

>  <petitjeanSC>
0.83333331

>  <Q_PC+>
0

>  <Q_PC->
0

>  <Q_RPC+>
0

>  <Q_RPC->
0

>  <Q_VSA_FHYD>
1

>  <Q_VSA_FNEG>
0

>  <Q_VSA_FPNEG>
0

>  <Q_VSA_FPOL>
0

>  <Q_VSA_FPOS>
1

>  <Q_VSA_FPPOS>
0

>  <Q_VSA_HYD>
287.24832

>  <Q_VSA_NEG>
0

>  <Q_VSA_PNEG>
0

>  <Q_VSA_POL>
0

>  <Q_VSA_POS>
287.24832

>  <Q_VSA_PPOS>
0

>  <radius>
6

>  <reactive>
0

>  <rings>
2

>  <RPC+>
0

>  <RPC->
0

>  <rsynth>
0.64999998

>  <SlogP>
-0.38569999

>  <SlogP_VSA0>
58.282413

>  <SlogP_VSA1>
16.128561

>  <SlogP_VSA2>
74.960579

>  <SlogP_VSA3>
61.058369

>  <SlogP_VSA4>
4.4107962

>  <SlogP_VSA5>
21.093012

>  <SlogP_VSA6>
0

>  <SlogP_VSA7>
0

>  <SlogP_VSA8>
18.868406

>  <SlogP_VSA9>
65.545555

>  <SMR>
7.5089002

>  <SMR_VSA0>
47.724434

>  <SMR_VSA1>
45.295071

>  <SMR_VSA2>
29.796022

>  <SMR_VSA3>
14.7581

>  <SMR_VSA4>
32.897186

>  <SMR_VSA5>
18.868406

>  <SMR_VSA6>
48.677391

>  <SMR_VSA7>
82.331085

>  <TPSA>
116.22

>  <VAdjEq>
0.48464775

>  <VAdjMa>
5.3923173

>  <VDistEq>
3.2033317

>  <VDistMa>
8.342432

>  <vdw_area>
287.24832

>  <vdw_vol>
357.16345

>  <vsa_acc>
19.249496

>  <vsa_acid>
0

>  <vsa_base>
0

>  <vsa_don>
17.742489

>  <vsa_hyd>
131.31239

>  <vsa_other>
52.448547

>  <vsa_pol>
77.692749

>  <Weight>
299.35098

>  <weinerPath>
843

>  <weinerPol>
29

>  <zagreb>
102

$$$$