Brc1cc(Br)cc(CNC2CCC(O)CC2)c1N
  MOE2013           2D

 18 19  0  0  0  0  0  0  0  0999 V2000
    0.0000    0.0000    0.0000 Br  0  0  0  0  0  0  0  0  0  0  0  0
    1.2940    0.7590    0.0000 C   0  0  0  0  0  0  0  0  0  0  0  0
    1.2840    2.2590    0.0000 C   0  0  0  0  0  0  0  0  0  0  0  0
    2.5780    3.0170    0.0000 C   0  0  0  0  0  0  0  0  0  0  0  0
    2.5680    4.5170    0.0000 Br  0  0  0  0  0  0  0  0  0  0  0  0
    3.8820    2.2760    0.0000 C   0  0  0  0  0  0  0  0  0  0  0  0
    3.8920    0.7760    0.0000 C   0  0  0  0  0  0  0  0  0  0  0  0
    5.1960    0.0350    0.0000 C   0  0  0  0  0  0  0  0  0  0  0  0
    6.4900    0.7940    0.0000 N   0  0  0  0  0  0  0  0  0  0  0  0
    7.7940    0.0530    0.0000 C   0  0  0  0  0  0  0  0  0  0  0  0
    7.8040   -1.4470    0.0000 C   0  0  0  0  0  0  0  0  0  0  0  0
    9.1080   -2.1890    0.0000 C   0  0  0  0  0  0  0  0  0  0  0  0
   10.4020   -1.4300    0.0000 C   0  0  0  0  0  0  0  0  0  0  0  0
   11.7060   -2.1710    0.0000 O   0  0  0  0  0  0  0  0  0  0  0  0
   10.3920    0.0700    0.0000 C   0  0  0  0  0  0  0  0  0  0  0  0
    9.0880    0.8110    0.0000 C   0  0  0  0  0  0  0  0  0  0  0  0
    2.5980    0.0180    0.0000 C   0  0  0  0  0  0  0  0  0  0  0  0
    2.6080   -1.4820    0.0000 N   0  0  0  0  0  0  0  0  0  0  0  0
  1  2  1  0  0  0  0
  2  3  1  0  0  0  0
  2 17  2  0  0  0  0
  3  4  2  0  0  0  0
  4  5  1  0  0  0  0
  4  6  1  0  0  0  0
  6  7  2  0  0  0  0
  7  8  1  0  0  0  0
  7 17  1  0  0  0  0
  8  9  1  0  0  0  0
  9 10  1  0  0  0  0
 10 11  1  0  0  0  0
 10 16  1  0  0  0  0
 11 12  1  0  0  0  0
 12 13  1  0  0  0  0
 13 14  1  0  0  0  0
 13 15  1  0  0  0  0
 15 16  1  0  0  0  0
 17 18  1  0  0  0  0
M  END
>  <Index>
58

>  <ID>
HT0125

>  <class>
0

>  <apol>
43.984276

>  <ast_fraglike>
0

>  <ast_fraglike_ext>
0

>  <ast_violation>
2

>  <ast_violation_ext>
3

>  <a_acc>
2

>  <a_acid>
0

>  <a_aro>
6

>  <a_base>
0

>  <a_count>
36

>  <a_don>
3

>  <a_donacc>
5

>  <a_heavy>
18

>  <a_hyd>
15

>  <a_IC>
58.952934

>  <a_ICM>
1.6375815

>  <a_nB>
0

>  <a_nBr>
2

>  <a_nC>
13

>  <a_nCl>
0

>  <a_nF>
0

>  <a_nH>
18

>  <a_nI>
0

>  <a_nN>
2

>  <a_nO>
1

>  <a_nP>
0

>  <a_nS>
0

>  <balabanJ>
1.753448

>  <BCUT_PEOE_0>
-2.7938161

>  <BCUT_PEOE_1>
-0.52030623

>  <BCUT_PEOE_2>
0.57750356

>  <BCUT_PEOE_3>
2.7491388

>  <BCUT_SLOGP_0>
-2.8015714

>  <BCUT_SLOGP_1>
-0.47696981

>  <BCUT_SLOGP_2>
0.75241369

>  <BCUT_SLOGP_3>
2.7918649

>  <BCUT_SMR_0>
-2.5420718

>  <BCUT_SMR_1>
-0.37976599

>  <BCUT_SMR_2>
0.8319903

>  <BCUT_SMR_3>
2.9972255

>  <bpol>
22.257727

>  <b_1rotN>
3

>  <b_1rotR>
0.15789473

>  <b_ar>
6

>  <b_count>
37

>  <b_double>
0

>  <b_heavy>
19

>  <b_max1len>
4

>  <b_rotN>
3

>  <b_rotR>
0.15789473

>  <b_single>
31

>  <b_triple>
0

>  <chi0>
13.120955

>  <chi0v>
13.297421

>  <chi0v_C>
7.8449349

>  <chi0_C>
8.4138489

>  <chi1>
8.5585508

>  <chi1v>
7.7943106

>  <chi1v_C>
4.6412473

>  <chi1_C>
5.3409014

>  <chiral>
0

>  <chiral_u>
0

>  <density>
0.98610997

>  <diameter>
10

>  <FCharge>
0

>  <GCUT_PEOE_0>
-0.84421957

>  <GCUT_PEOE_1>
-0.35989627

>  <GCUT_PEOE_2>
0.075792633

>  <GCUT_PEOE_3>
2.6228211

>  <GCUT_SLOGP_0>
-1.3345462

>  <GCUT_SLOGP_1>
-0.28089413

>  <GCUT_SLOGP_2>
0.24890505

>  <GCUT_SLOGP_3>
2.7061367

>  <GCUT_SMR_0>
-0.52568036

>  <GCUT_SMR_1>
-0.20139268

>  <GCUT_SMR_2>
0.28660703

>  <GCUT_SMR_3>
2.8777852

>  <Kier1>
14.409972

>  <Kier2>
6.43787

>  <Kier3>
3.9958377

>  <KierA1>
15.983519

>  <KierA2>
7.1855726

>  <KierA3>
4.4804797

>  <KierFlex>
6.3805966

>  <lip_acc>
3

>  <lip_don>
4

>  <lip_druglike>
1

>  <lip_violation>
0

>  <logP(o/w)>
3.645

>  <logS>
-3.7804201

>  <mr>
8.0114717

>  <mutagenic>
1

>  <nmol>
1

>  <opr_brigid>
12

>  <opr_leadlike>
1

>  <opr_nring>
2

>  <opr_nrot>
5

>  <opr_violation>
0

>  <PC+>
0

>  <PC->
0

>  <PEOE_PC+>
1.3102739

>  <PEOE_PC->
-1.3102739

>  <PEOE_RPC+>
0.16010097

>  <PEOE_RPC->
0.29900995

>  <PEOE_VSA+0>
74.461502

>  <PEOE_VSA+1>
17.701086

>  <PEOE_VSA+2>
25.857038

>  <PEOE_VSA+3>
0

>  <PEOE_VSA+4>
10.324173

>  <PEOE_VSA+5>
0

>  <PEOE_VSA+6>
0

>  <PEOE_VSA-0>
105.14845

>  <PEOE_VSA-1>
43.624847

>  <PEOE_VSA-2>
0

>  <PEOE_VSA-3>
0

>  <PEOE_VSA-4>
0

>  <PEOE_VSA-5>
0

>  <PEOE_VSA-6>
14.555551

>  <PEOE_VSA_FHYD>
0.91469985

>  <PEOE_VSA_FNEG>
0.55997312

>  <PEOE_VSA_FPNEG>
0.049903721

>  <PEOE_VSA_FPOL>
0.085300162

>  <PEOE_VSA_FPOS>
0.44002685

>  <PEOE_VSA_FPPOS>
0.035396438

>  <PEOE_VSA_HYD>
266.79291

>  <PEOE_VSA_NEG>
163.32884

>  <PEOE_VSA_PNEG>
14.555551

>  <PEOE_VSA_POL>
24.879723

>  <PEOE_VSA_POS>
128.3438

>  <PEOE_VSA_PPOS>
10.324173

>  <petitjean>
0.5

>  <petitjeanSC>
1

>  <Q_PC+>
0

>  <Q_PC->
0

>  <Q_RPC+>
0

>  <Q_RPC->
0

>  <Q_VSA_FHYD>
1

>  <Q_VSA_FNEG>
0

>  <Q_VSA_FPNEG>
0

>  <Q_VSA_FPOL>
0

>  <Q_VSA_FPOS>
1

>  <Q_VSA_FPPOS>
0

>  <Q_VSA_HYD>
291.67264

>  <Q_VSA_NEG>
0

>  <Q_VSA_PNEG>
0

>  <Q_VSA_POL>
0

>  <Q_VSA_POS>
291.67264

>  <Q_VSA_PPOS>
0

>  <radius>
5

>  <reactive>
0

>  <rings>
2

>  <RPC+>
0

>  <RPC->
0

>  <rsynth>
1

>  <SlogP>
3.4533

>  <SlogP_VSA0>
76.293167

>  <SlogP_VSA1>
0

>  <SlogP_VSA2>
10.450618

>  <SlogP_VSA3>
0

>  <SlogP_VSA4>
3.185575

>  <SlogP_VSA5>
6.110209

>  <SlogP_VSA6>
0

>  <SlogP_VSA7>
35.286369

>  <SlogP_VSA8>
75.473625

>  <SlogP_VSA9>
113.10452

>  <SMR>
8.1561899

>  <SMR_VSA0>
0

>  <SMR_VSA1>
25.385227

>  <SMR_VSA2>
24.12096

>  <SMR_VSA3>
13.636193

>  <SMR_VSA4>
2.7567475

>  <SMR_VSA5>
162.09676

>  <SMR_VSA6>
0

>  <SMR_VSA7>
91.908188

>  <TPSA>
58.279999

>  <VAdjEq>
0.52150291

>  <VAdjMa>
5.2479277

>  <VDistEq>
3.151469

>  <VDistMa>
8.015914

>  <vdw_area>
291.67264

>  <vdw_vol>
383.4339

>  <vsa_acc>
0

>  <vsa_acid>
0

>  <vsa_base>
0

>  <vsa_don>
17.742489

>  <vsa_hyd>
230.97075

>  <vsa_other>
0

>  <vsa_pol>
36.991985

>  <Weight>
378.108

>  <weinerPath>
660

>  <weinerPol>
25

>  <zagreb>
90

$$$$