P(F)(OC(C)C)(OC(C)C)=O
  MOE2013           2D

 11 10  0  0  0  0  0  0  0  0999 V2000
    0.0000    0.0000    0.0000 P   0  0  0  0  0  0  0  0  0  0  0  0
    0.7530   -1.2970    0.0000 F   0  0  0  0  0  0  0  0  0  0  0  0
    1.2970    0.7530    0.0000 O   0  0  0  0  0  0  0  0  0  0  0  0
    2.5980    0.0070    0.0000 C   0  0  0  0  0  0  0  0  0  0  0  0
    2.6020   -1.4930    0.0000 C   0  0  0  0  0  0  0  0  0  0  0  0
    3.8950    0.7600    0.0000 C   0  0  0  0  0  0  0  0  0  0  0  0
   -1.2970   -0.7530    0.0000 O   0  0  0  0  0  0  0  0  0  0  0  0
   -2.5980   -0.0070    0.0000 C   0  0  0  0  0  0  0  0  0  0  0  0
   -2.6020    1.4930    0.0000 C   0  0  0  0  0  0  0  0  0  0  0  0
   -3.8950   -0.7600    0.0000 C   0  0  0  0  0  0  0  0  0  0  0  0
   -0.7530    1.2970    0.0000 O   0  0  0  0  0  0  0  0  0  0  0  0
  1  2  1  0  0  0  0
  1  3  1  0  0  0  0
  1  7  1  0  0  0  0
  1 11  2  0  0  0  0
  3  4  1  0  0  0  0
  4  5  1  0  0  0  0
  4  6  1  0  0  0  0
  7  8  1  0  0  0  0
  8  9  1  0  0  0  0
  8 10  1  0  0  0  0
M  END
>  <Index>
571

>  <ID>
HT1133

>  <class>
0

>  <apol>
26.488102

>  <ast_fraglike>
1

>  <ast_fraglike_ext>
0

>  <ast_violation>
0

>  <ast_violation_ext>
1

>  <a_acc>
3

>  <a_acid>
0

>  <a_aro>
0

>  <a_base>
0

>  <a_count>
25

>  <a_don>
0

>  <a_donacc>
3

>  <a_heavy>
11

>  <a_hyd>
7

>  <a_IC>
42.528774

>  <a_ICM>
1.7011509

>  <a_nB>
0

>  <a_nBr>
0

>  <a_nC>
6

>  <a_nCl>
0

>  <a_nF>
1

>  <a_nH>
14

>  <a_nI>
0

>  <a_nN>
0

>  <a_nO>
3

>  <a_nP>
1

>  <a_nS>
0

>  <balabanJ>
3.7938097

>  <BCUT_PEOE_0>
-2.557308

>  <BCUT_PEOE_1>
-0.11444578

>  <BCUT_PEOE_2>
0.024115248

>  <BCUT_PEOE_3>
2.565712

>  <BCUT_SLOGP_0>
-2.5216992

>  <BCUT_SLOGP_1>
0.026534945

>  <BCUT_SLOGP_2>
0.123

>  <BCUT_SLOGP_3>
2.6827226

>  <BCUT_SMR_0>
-2.315146

>  <BCUT_SMR_1>
0.1057

>  <BCUT_SMR_2>
0.10710016

>  <BCUT_SMR_3>
2.8107076

>  <bpol>
28.777899

>  <b_1rotN>
4

>  <b_1rotR>
0.40000001

>  <b_ar>
0

>  <b_count>
24

>  <b_double>
0

>  <b_heavy>
10

>  <b_max1len>
8

>  <b_rotN>
4

>  <b_rotR>
0.40000001

>  <b_single>
24

>  <b_triple>
0

>  <chi0>
9.0689144

>  <chi0v>
8.0990505

>  <chi0v_C>
5.1547008

>  <chi0_C>
5.1547008

>  <chi1>
4.8330045

>  <chi1v>
4.931066

>  <chi1v_C>
2.309401

>  <chi1_C>
2.309401

>  <chiral>
0

>  <chiral_u>
0

>  <density>
0.8358106

>  <diameter>
6

>  <FCharge>
0

>  <GCUT_PEOE_0>
-0.77734083

>  <GCUT_PEOE_1>
-0.30229142

>  <GCUT_PEOE_2>
-0.13588475

>  <GCUT_PEOE_3>
2.221031

>  <GCUT_SLOGP_0>
-1.2920499

>  <GCUT_SLOGP_1>
-0.20551838

>  <GCUT_SLOGP_2>
-0.037

>  <GCUT_SLOGP_3>
2.3313363

>  <GCUT_SMR_0>
-0.52623355

>  <GCUT_SMR_1>
-0.10416008

>  <GCUT_SMR_2>
-0.054299999

>  <GCUT_SMR_3>
2.4394209

>  <Kier1>
11

>  <Kier2>
4.1326532

>  <Kier3>
6.4000001

>  <KierA1>
12.627092

>  <KierA2>
4.8131137

>  <KierA3>
7.5494342

>  <KierFlex>
5.5250573

>  <lip_acc>
3

>  <lip_don>
0

>  <lip_druglike>
1

>  <lip_violation>
0

>  <logP(o/w)>
1.572

>  <logS>
-1.35583

>  <mr>
4.4179826

>  <mutagenic>
0

>  <nmol>
1

>  <opr_brigid>
0

>  <opr_leadlike>
1

>  <opr_nring>
0

>  <opr_nrot>
4

>  <opr_violation>
0

>  <PC+>
0

>  <PC->
0

>  <PEOE_PC+>
0.92576212

>  <PEOE_PC->
-0.92576212

>  <PEOE_RPC+>
0.49548236

>  <PEOE_RPC->
0.30234033

>  <PEOE_VSA+0>
83.658081

>  <PEOE_VSA+1>
0

>  <PEOE_VSA+2>
0

>  <PEOE_VSA+3>
0

>  <PEOE_VSA+4>
0

>  <PEOE_VSA+5>
0

>  <PEOE_VSA+6>
19.094698

>  <PEOE_VSA-0>
74.990707

>  <PEOE_VSA-1>
0

>  <PEOE_VSA-2>
0

>  <PEOE_VSA-3>
15.729136

>  <PEOE_VSA-4>
0

>  <PEOE_VSA-5>
9.3319435

>  <PEOE_VSA-6>
0

>  <PEOE_VSA_FHYD>
0.85983235

>  <PEOE_VSA_FNEG>
0.49334091

>  <PEOE_VSA_FPNEG>
0.046014465

>  <PEOE_VSA_FPOL>
0.14016767

>  <PEOE_VSA_FPOS>
0.50665909

>  <PEOE_VSA_FPPOS>
0.094153196

>  <PEOE_VSA_HYD>
174.37793

>  <PEOE_VSA_NEG>
100.05179

>  <PEOE_VSA_PNEG>
9.3319435

>  <PEOE_VSA_POL>
28.426641

>  <PEOE_VSA_POS>
102.75278

>  <PEOE_VSA_PPOS>
19.094698

>  <petitjean>
0.5

>  <petitjeanSC>
1

>  <Q_PC+>
0

>  <Q_PC->
0

>  <Q_RPC+>
0

>  <Q_RPC->
0

>  <Q_VSA_FHYD>
1

>  <Q_VSA_FNEG>
0

>  <Q_VSA_FPNEG>
0

>  <Q_VSA_FPOL>
0

>  <Q_VSA_FPOS>
1

>  <Q_VSA_FPPOS>
0

>  <Q_VSA_HYD>
202.80457

>  <Q_VSA_NEG>
0

>  <Q_VSA_PNEG>
0

>  <Q_VSA_POL>
0

>  <Q_VSA_POS>
202.80457

>  <Q_VSA_PPOS>
0

>  <radius>
3

>  <reactive>
1

>  <rings>
0

>  <RPC+>
0

>  <RPC->
0

>  <rsynth>
1

>  <SlogP>
1.8437999

>  <SlogP_VSA0>
22.433765

>  <SlogP_VSA1>
0

>  <SlogP_VSA2>
26.78056

>  <SlogP_VSA3>
0

>  <SlogP_VSA4>
0

>  <SlogP_VSA5>
0

>  <SlogP_VSA6>
0

>  <SlogP_VSA7>
0

>  <SlogP_VSA8>
0

>  <SlogP_VSA9>
166.11238

>  <SMR>
4.0469999

>  <SMR_VSA0>
36.277027

>  <SMR_VSA1>
11.735918

>  <SMR_VSA2>
0

>  <SMR_VSA3>
12.937299

>  <SMR_VSA4>
0

>  <SMR_VSA5>
0

>  <SMR_VSA6>
0

>  <SMR_VSA7>
154.37646

>  <TPSA>
35.529999

>  <VAdjEq>
0.64681429

>  <VAdjMa>
4.321928

>  <VDistEq>
2.4386826

>  <VDistMa>
6.6012926

>  <vdw_area>
202.80457

>  <vdw_vol>
220.32144

>  <vsa_acc>
25.061081

>  <vsa_acid>
0

>  <vsa_base>
0

>  <vsa_don>
0

>  <vsa_hyd>
148.68365

>  <vsa_other>
19.094698

>  <vsa_pol>
25.061081

>  <Weight>
184.147

>  <weinerPath>
164

>  <weinerPol>
10

>  <zagreb>
48

$$$$