O(C(=O)CCC(=O)CN)CCCCCC
  MOE2013           2D

 15 14  0  0  0  0  0  0  0  0999 V2000
    0.0000    0.0000    0.0000 O   0  0  0  0  0  0  0  0  0  0  0  0
   -1.3000   -0.7480    0.0000 C   0  0  0  0  0  0  0  0  0  0  0  0
   -1.3030   -2.2480    0.0000 O   0  0  0  0  0  0  0  0  0  0  0  0
   -2.5980    0.0050    0.0000 C   0  0  0  0  0  0  0  0  0  0  0  0
   -3.8990   -0.7430    0.0000 C   0  0  0  0  0  0  0  0  0  0  0  0
   -5.1960    0.0100    0.0000 C   0  0  0  0  0  0  0  0  0  0  0  0
   -6.4970   -0.7380    0.0000 O   0  0  0  0  0  0  0  0  0  0  0  0
   -5.1930    1.5100    0.0000 C   0  0  0  0  0  0  0  0  0  0  0  0
   -6.4910    2.2620    0.0000 N   0  0  0  0  0  0  0  0  0  0  0  0
    1.2980   -0.7520    0.0000 C   0  0  0  0  0  0  0  0  0  0  0  0
    2.5980   -0.0050    0.0000 C   0  0  0  0  0  0  0  0  0  0  0  0
    3.8960   -0.7570    0.0000 C   0  0  0  0  0  0  0  0  0  0  0  0
    5.1960   -0.0100    0.0000 C   0  0  0  0  0  0  0  0  0  0  0  0
    6.4940   -0.7620    0.0000 C   0  0  0  0  0  0  0  0  0  0  0  0
    7.7940   -0.0150    0.0000 C   0  0  0  0  0  0  0  0  0  0  0  0
  1  2  1  0  0  0  0
  1 10  1  0  0  0  0
  2  3  2  0  0  0  0
  2  4  1  0  0  0  0
  4  5  1  0  0  0  0
  5  6  1  0  0  0  0
  6  7  2  0  0  0  0
  6  8  1  0  0  0  0
  8  9  1  0  0  0  0
 10 11  1  0  0  0  0
 11 12  1  0  0  0  0
 12 13  1  0  0  0  0
 13 14  1  0  0  0  0
 14 15  1  0  0  0  0
M  END
>  <Index>
520

>  <ID>
HT1032

>  <class>
0

>  <apol>
36.868652

>  <ast_fraglike>
1

>  <ast_fraglike_ext>
0

>  <ast_violation>
0

>  <ast_violation_ext>
1

>  <a_acc>
3

>  <a_acid>
0

>  <a_aro>
0

>  <a_base>
0

>  <a_count>
36

>  <a_don>
1

>  <a_donacc>
4

>  <a_heavy>
15

>  <a_hyd>
9

>  <a_IC>
51.07

>  <a_ICM>
1.418611

>  <a_nB>
0

>  <a_nBr>
0

>  <a_nC>
11

>  <a_nCl>
0

>  <a_nF>
0

>  <a_nH>
21

>  <a_nI>
0

>  <a_nN>
1

>  <a_nO>
3

>  <a_nP>
0

>  <a_nS>
0

>  <balabanJ>
3.2235482

>  <BCUT_PEOE_0>
-2.6527493

>  <BCUT_PEOE_1>
-0.35029757

>  <BCUT_PEOE_2>
0.21910438

>  <BCUT_PEOE_3>
2.6047249

>  <BCUT_SLOGP_0>
-2.6608698

>  <BCUT_SLOGP_1>
-0.24172637

>  <BCUT_SLOGP_2>
0.26985928

>  <BCUT_SLOGP_3>
2.7417004

>  <BCUT_SMR_0>
-2.4082937

>  <BCUT_SMR_1>
-0.085371308

>  <BCUT_SMR_2>
0.28241673

>  <BCUT_SMR_3>
2.8477268

>  <bpol>
26.129347

>  <b_1rotN>
9

>  <b_1rotR>
0.64285713

>  <b_ar>
0

>  <b_count>
35

>  <b_double>
2

>  <b_heavy>
14

>  <b_max1len>
7

>  <b_rotN>
10

>  <b_rotR>
0.71428573

>  <b_single>
33

>  <b_triple>
0

>  <chi0>
11.518661

>  <chi0v>
9.4589491

>  <chi0v_C>
7.6568542

>  <chi0_C>
7.8115549

>  <chi1>
7.2019072

>  <chi1v>
5.5770626

>  <chi1v_C>
4.267767

>  <chi1_C>
4.4318519

>  <chiral>
0

>  <chiral_u>
0

>  <density>
0.69380552

>  <diameter>
12

>  <FCharge>
0

>  <GCUT_PEOE_0>
-0.82094699

>  <GCUT_PEOE_1>
-0.39751866

>  <GCUT_PEOE_2>
-0.02084524

>  <GCUT_PEOE_3>
2.3965416

>  <GCUT_SLOGP_0>
-1.363315

>  <GCUT_SLOGP_1>
-0.27902347

>  <GCUT_SLOGP_2>
0.016065948

>  <GCUT_SLOGP_3>
2.4579947

>  <GCUT_SMR_0>
-0.53151798

>  <GCUT_SMR_1>
-0.16599457

>  <GCUT_SMR_2>
0.03433929

>  <GCUT_SMR_3>
2.6089287

>  <Kier1>
15

>  <Kier2>
10.515555

>  <Kier3>
10.285714

>  <KierA1>
13.192163

>  <KierA2>
9.1572618

>  <KierA3>
8.8850203

>  <KierFlex>
8.053607

>  <lip_acc>
4

>  <lip_don>
2

>  <lip_druglike>
1

>  <lip_violation>
0

>  <logP(o/w)>
1.155

>  <logS>
-1.8599

>  <mr>
6.0578198

>  <mutagenic>
0

>  <nmol>
1

>  <opr_brigid>
0

>  <opr_leadlike>
1

>  <opr_nring>
0

>  <opr_nrot>
9

>  <opr_violation>
0

>  <PC+>
0

>  <PC->
0

>  <PEOE_PC+>
1.4542884

>  <PEOE_PC->
-1.4542884

>  <PEOE_RPC+>
0.18054563

>  <PEOE_RPC->
0.22266966

>  <PEOE_VSA+0>
81.383415

>  <PEOE_VSA+1>
45.205162

>  <PEOE_VSA+2>
25.696545

>  <PEOE_VSA+3>
0

>  <PEOE_VSA+4>
0

>  <PEOE_VSA+5>
14.708499

>  <PEOE_VSA+6>
0

>  <PEOE_VSA-0>
8.701313

>  <PEOE_VSA-1>
44.851616

>  <PEOE_VSA-2>
0

>  <PEOE_VSA-3>
0

>  <PEOE_VSA-4>
0

>  <PEOE_VSA-5>
27.133842

>  <PEOE_VSA-6>
9.1548758

>  <PEOE_VSA_FHYD>
0.80144

>  <PEOE_VSA_FNEG>
0.34980261

>  <PEOE_VSA_FPNEG>
0.1412918

>  <PEOE_VSA_FPOL>
0.19856001

>  <PEOE_VSA_FPOS>
0.65019739

>  <PEOE_VSA_FPPOS>
0.057268221

>  <PEOE_VSA_HYD>
205.83806

>  <PEOE_VSA_NEG>
89.841644

>  <PEOE_VSA_PNEG>
36.288715

>  <PEOE_VSA_POL>
50.997215

>  <PEOE_VSA_POS>
166.99362

>  <PEOE_VSA_PPOS>
14.708499

>  <petitjean>
0.5

>  <petitjeanSC>
1

>  <Q_PC+>
0

>  <Q_PC->
0

>  <Q_RPC+>
0

>  <Q_RPC->
0

>  <Q_VSA_FHYD>
1

>  <Q_VSA_FNEG>
0

>  <Q_VSA_FPNEG>
0

>  <Q_VSA_FPOL>
0

>  <Q_VSA_FPOS>
1

>  <Q_VSA_FPPOS>
0

>  <Q_VSA_HYD>
256.83527

>  <Q_VSA_NEG>
0

>  <Q_VSA_PNEG>
0

>  <Q_VSA_POL>
0

>  <Q_VSA_POS>
256.83527

>  <Q_VSA_PPOS>
0

>  <radius>
6

>  <reactive>
1

>  <rings>
0

>  <RPC+>
0

>  <RPC->
0

>  <rsynth>
1

>  <SlogP>
1.4179

>  <SlogP_VSA0>
32.897186

>  <SlogP_VSA1>
13.433075

>  <SlogP_VSA2>
58.724319

>  <SlogP_VSA3>
39.365837

>  <SlogP_VSA4>
0

>  <SlogP_VSA5>
0

>  <SlogP_VSA6>
0

>  <SlogP_VSA7>
0

>  <SlogP_VSA8>
113.21043

>  <SlogP_VSA9>
33.326015

>  <SMR>
5.8396401

>  <SMR_VSA0>
58.724319

>  <SMR_VSA1>
0

>  <SMR_VSA2>
0

>  <SMR_VSA3>
0

>  <SMR_VSA4>
32.897186

>  <SMR_VSA5>
113.21043

>  <SMR_VSA6>
52.798912

>  <SMR_VSA7>
33.326015

>  <TPSA>
69.389999

>  <VAdjEq>
0.54200274

>  <VAdjMa>
4.8073549

>  <VDistEq>
3.3572581

>  <VDistMa>
7.4443207

>  <vdw_area>
256.83527

>  <vdw_vol>
310.3074

>  <vsa_acc>
27.133842

>  <vsa_acid>
0

>  <vsa_base>
0

>  <vsa_don>
0

>  <vsa_hyd>
166.6174

>  <vsa_other>
25.670774

>  <vsa_pol>
44.876331

>  <Weight>
215.293

>  <weinerPath>
496

>  <weinerPol>
14

>  <zagreb>
58

$$$$