P(O)(O)(=O)C(P(O)(O)=O)(O)CCN(CCCCC)C
  MOE2013           2D

 19 18  0  0  1  0  0  0  0  0999 V2000
    0.0000    0.0000    0.0000 P   0  0  0  0  0  0  0  0  0  0  0  0
    1.3000   -0.7490    0.0000 O   0  0  0  0  0  0  0  0  0  0  0  0
    0.7490    1.3000    0.0000 O   0  0  0  0  0  0  0  0  0  0  0  0
   -1.3000    0.7490    0.0000 O   0  0  0  0  0  0  0  0  0  0  0  0
   -0.7490   -1.3000    0.0000 C   0  0  0  0  0  0  0  0  0  0  0  0
   -1.4980   -2.5990    0.0000 P   0  0  0  0  0  0  0  0  0  0  0  0
   -2.2470   -3.8990    0.0000 O   0  0  0  0  0  0  0  0  0  0  0  0
   -0.1990   -3.3480    0.0000 O   0  0  0  0  0  0  0  0  0  0  0  0
   -2.7980   -1.8500    0.0000 O   0  0  0  0  0  0  0  0  0  0  0  0
   -2.0490   -0.5500    0.0000 O   0  0  0  0  0  0  0  0  0  0  0  0
    0.5500   -2.0490    0.0000 C   0  0  0  0  0  0  0  0  0  0  0  0
    1.8490   -1.2980    0.0000 C   0  0  0  0  0  0  0  0  0  0  0  0
    3.1490   -2.0470    0.0000 N   0  0  3  0  0  0  0  0  0  0  0  0
    4.4470   -1.2960    0.0000 C   0  0  0  0  0  0  0  0  0  0  0  0
    5.7470   -2.0450    0.0000 C   0  0  0  0  0  0  0  0  0  0  0  0
    7.0450   -1.2940    0.0000 C   0  0  0  0  0  0  0  0  0  0  0  0
    8.3450   -2.0430    0.0000 C   0  0  0  0  0  0  0  0  0  0  0  0
    9.6430   -1.2920    0.0000 C   0  0  0  0  0  0  0  0  0  0  0  0
    3.1500   -3.5470    0.0000 C   0  0  0  0  0  0  0  0  0  0  0  0
  1  2  1  0  0  0  0
  1  3  1  0  0  0  0
  1  4  2  0  0  0  0
  1  5  1  0  0  0  0
  5  6  1  0  0  0  0
  5 10  1  0  0  0  0
  5 11  1  0  0  0  0
  6  7  1  0  0  0  0
  6  8  1  0  0  0  0
  6  9  2  0  0  0  0
 11 12  1  0  0  0  0
 12 13  1  0  0  0  0
 13 14  1  0  0  0  0
 13 19  1  0  0  0  0
 14 15  1  0  0  0  0
 15 16  1  0  0  0  0
 16 17  1  0  0  0  0
 17 18  1  0  0  0  0
M  END
>  <Index>
542

>  <ID>
HT1066

>  <class>
0

>  <apol>
45.150238

>  <ast_fraglike>
0

>  <ast_fraglike_ext>
0

>  <ast_violation>
3

>  <ast_violation_ext>
5

>  <a_acc>
8

>  <a_acid>
0

>  <a_aro>
0

>  <a_base>
0

>  <a_count>
42

>  <a_don>
7

>  <a_donacc>
15

>  <a_heavy>
19

>  <a_hyd>
9

>  <a_IC>
72.254601

>  <a_ICM>
1.7203475

>  <a_nB>
0

>  <a_nBr>
0

>  <a_nC>
9

>  <a_nCl>
0

>  <a_nF>
0

>  <a_nH>
23

>  <a_nI>
0

>  <a_nN>
1

>  <a_nO>
7

>  <a_nP>
2

>  <a_nS>
0

>  <balabanJ>
4.5382214

>  <BCUT_PEOE_0>
-2.7060814

>  <BCUT_PEOE_1>
-0.598351

>  <BCUT_PEOE_2>
0.57927769

>  <BCUT_PEOE_3>
2.8318129

>  <BCUT_SLOGP_0>
-2.751431

>  <BCUT_SLOGP_1>
-0.78771126

>  <BCUT_SLOGP_2>
0.27696508

>  <BCUT_SLOGP_3>
2.8375945

>  <BCUT_SMR_0>
-2.4552903

>  <BCUT_SMR_1>
-0.42274681

>  <BCUT_SMR_2>
0.7003637

>  <BCUT_SMR_3>
3.0209677

>  <bpol>
43.99976

>  <b_1rotN>
9

>  <b_1rotR>
0.5

>  <b_ar>
0

>  <b_count>
41

>  <b_double>
0

>  <b_heavy>
18

>  <b_max1len>
12

>  <b_rotN>
9

>  <b_rotR>
0.5

>  <b_single>
41

>  <b_triple>
0

>  <chi0>
15.319991

>  <chi0v>
12.9257

>  <chi0v_C>
6.7426405

>  <chi0_C>
6.7426405

>  <chi1>
8.4545069

>  <chi1v>
9.2010221

>  <chi1v_C>
3.0606601

>  <chi1_C>
3.0606601

>  <chiral>
0

>  <chiral_u>
0

>  <density>
0.87158203

>  <diameter>
10

>  <FCharge>
0

>  <GCUT_PEOE_0>
-0.85913527

>  <GCUT_PEOE_1>
-0.44085249

>  <GCUT_PEOE_2>
0.10959225

>  <GCUT_PEOE_3>
2.6877816

>  <GCUT_SLOGP_0>
-1.3054259

>  <GCUT_SLOGP_1>
-0.39776102

>  <GCUT_SLOGP_2>
-0.026422851

>  <GCUT_SLOGP_3>
2.7011888

>  <GCUT_SMR_0>
-0.53081012

>  <GCUT_SMR_1>
-0.22132492

>  <GCUT_SMR_2>
0.22479872

>  <GCUT_SMR_3>
2.8938451

>  <Kier1>
19

>  <Kier2>
7.1358023

>  <Kier3>
5.4791913

>  <KierA1>
22.59063

>  <KierA2>
8.5670366

>  <KierA3>
6.6277208

>  <KierFlex>
10.18604

>  <lip_acc>
8

>  <lip_don>
5

>  <lip_druglike>
1

>  <lip_violation>
0

>  <logP(o/w)>
-1.235

>  <logS>
0.18004

>  <mr>
7.4226151

>  <mutagenic>
0

>  <nmol>
1

>  <opr_brigid>
0

>  <opr_leadlike>
1

>  <opr_nring>
0

>  <opr_nrot>
9

>  <opr_violation>
0

>  <PC+>
0

>  <PC->
0

>  <PEOE_PC+>
2.5877936

>  <PEOE_PC->
-2.5877936

>  <PEOE_RPC+>
0.13794543

>  <PEOE_RPC->
0.12896988

>  <PEOE_VSA+0>
89.969276

>  <PEOE_VSA+1>
8.701313

>  <PEOE_VSA+2>
41.296692

>  <PEOE_VSA+3>
0

>  <PEOE_VSA+4>
10.324173

>  <PEOE_VSA+5>
0

>  <PEOE_VSA+6>
27.333998

>  <PEOE_VSA-0>
45.132328

>  <PEOE_VSA-1>
36.150303

>  <PEOE_VSA-2>
0

>  <PEOE_VSA-3>
0

>  <PEOE_VSA-4>
31.458273

>  <PEOE_VSA-5>
0

>  <PEOE_VSA-6>
47.486565

>  <PEOE_VSA_FHYD>
0.65487051

>  <PEOE_VSA_FNEG>
0.47425213

>  <PEOE_VSA_FPNEG>
0.23366629

>  <PEOE_VSA_FPOL>
0.34512949

>  <PEOE_VSA_FPOS>
0.52574784

>  <PEOE_VSA_FPPOS>
0.1114632

>  <PEOE_VSA_HYD>
221.24991

>  <PEOE_VSA_NEG>
160.22746

>  <PEOE_VSA_PNEG>
78.944839

>  <PEOE_VSA_POL>
116.603

>  <PEOE_VSA_POS>
177.62544

>  <PEOE_VSA_PPOS>
37.658169

>  <petitjean>
0.5

>  <petitjeanSC>
1

>  <Q_PC+>
0

>  <Q_PC->
0

>  <Q_RPC+>
0

>  <Q_RPC->
0

>  <Q_VSA_FHYD>
1

>  <Q_VSA_FNEG>
0

>  <Q_VSA_FPNEG>
0

>  <Q_VSA_FPOL>
0

>  <Q_VSA_FPOS>
1

>  <Q_VSA_FPPOS>
0

>  <Q_VSA_HYD>
337.85291

>  <Q_VSA_NEG>
0

>  <Q_VSA_PNEG>
0

>  <Q_VSA_POL>
0

>  <Q_VSA_POS>
337.85291

>  <Q_VSA_PPOS>
0

>  <radius>
5

>  <reactive>
1

>  <rings>
0

>  <RPC+>
0

>  <RPC->
0

>  <rsynth>
1

>  <SlogP>
-1.6404001

>  <SlogP_VSA0>
155.48064

>  <SlogP_VSA1>
3.1243138

>  <SlogP_VSA2>
0

>  <SlogP_VSA3>
36.879158

>  <SlogP_VSA4>
0

>  <SlogP_VSA5>
32.897186

>  <SlogP_VSA6>
0

>  <SlogP_VSA7>
0

>  <SlogP_VSA8>
75.473625

>  <SlogP_VSA9>
62.924957

>  <SMR>
6.9303999

>  <SMR_VSA0>
44.867531

>  <SMR_VSA1>
113.73742

>  <SMR_VSA2>
0

>  <SMR_VSA3>
0

>  <SMR_VSA4>
0

>  <SMR_VSA5>
75.473625

>  <SMR_VSA6>
36.879158

>  <SMR_VSA7>
95.822144

>  <TPSA>
138.53

>  <VAdjEq>
0.46811688

>  <VAdjMa>
5.1699252

>  <VDistEq>
3.1726589

>  <VDistMa>
8.1863337

>  <vdw_area>
337.85291

>  <vdw_vol>
366.26614

>  <vsa_acc>
0

>  <vsa_acid>
0

>  <vsa_base>
0

>  <vsa_don>
0

>  <vsa_hyd>
167.1409

>  <vsa_other>
27.333998

>  <vsa_pol>
107.94174

>  <Weight>
319.23099

>  <weinerPath>
756

>  <weinerPol>
29

>  <zagreb>
90

$$$$