OC=1C2(C(=O)C(C)C)C(CCC=C(C)/C)(C)C(CC(CC=C(C)/C)(C2=O)C(=O)C=1CC=C(C)/C)CC=C(C)/C
  MOE2013           2D

 39 40  0  0  1  0  0  0  0  0999 V2000
    0.0000    0.0000    0.0000 O   0  0  0  0  0  0  0  0  0  0  0  0
    1.4390    0.4250    0.0000 C   0  0  0  0  0  0  0  0  0  0  0  0
    2.4580   -0.9670    0.0000 C   0  0  3  0  0  0  0  0  0  0  0  0
    3.4440   -2.0980    0.0000 C   0  0  0  0  0  0  0  0  0  0  0  0
    4.9160   -1.8090    0.0000 O   0  0  0  0  0  0  0  0  0  0  0  0
    2.9580   -3.5170    0.0000 C   0  0  0  0  0  0  0  0  0  0  0  0
    3.9440   -4.6470    0.0000 C   0  0  0  0  0  0  0  0  0  0  0  0
    1.4860   -3.8060    0.0000 C   0  0  0  0  0  0  0  0  0  0  0  0
    3.9230    0.0290    0.0000 C   0  0  3  0  0  0  0  0  0  0  0  0
    5.3480    0.4970    0.0000 C   0  0  0  0  0  0  0  0  0  0  0  0
    6.4670   -0.5020    0.0000 C   0  0  0  0  0  0  0  0  0  0  0  0
    7.8920   -0.0340    0.0000 C   0  0  0  0  0  0  0  0  0  0  0  0
    9.0100   -1.0330    0.0000 C   0  0  0  0  0  0  0  0  0  0  0  0
   10.4350   -0.5650    0.0000 C   0  0  0  0  0  0  0  0  0  0  0  0
    8.7030   -2.5020    0.0000 C   0  0  0  0  0  0  0  0  0  0  0  0
    4.9660   -1.0500    0.0000 C   0  0  0  0  0  0  0  0  0  0  0  0
    3.3000    1.3970    0.0000 C   0  0  3  0  0  0  0  0  0  0  0  0
    2.9130    0.1770    0.0000 C   0  0  0  0  0  0  0  0  0  0  0  0
    1.4790   -0.7540    0.0000 C   0  0  3  0  0  0  0  0  0  0  0  0
    0.0380   -1.1700    0.0000 C   0  0  0  0  0  0  0  0  0  0  0  0
   -0.3220   -2.6270    0.0000 C   0  0  0  0  0  0  0  0  0  0  0  0
   -1.7640   -3.0430    0.0000 C   0  0  0  0  0  0  0  0  0  0  0  0
   -2.1240   -4.4990    0.0000 C   0  0  0  0  0  0  0  0  0  0  0  0
   -2.8440   -2.0030    0.0000 C   0  0  0  0  0  0  0  0  0  0  0  0
    1.4460   -2.0190    0.0000 C   0  0  0  0  0  0  0  0  0  0  0  0
    0.8680   -3.4040    0.0000 O   0  0  0  0  0  0  0  0  0  0  0  0
    0.4920    0.5650    0.0000 C   0  0  0  0  0  0  0  0  0  0  0  0
   -1.0050    0.6630    0.0000 O   0  0  0  0  0  0  0  0  0  0  0  0
    1.5070    1.6050    0.0000 C   0  0  0  0  0  0  0  0  0  0  0  0
    2.1120    2.9770    0.0000 C   0  0  0  0  0  0  0  0  0  0  0  0
    1.2260    4.1880    0.0000 C   0  0  0  0  0  0  0  0  0  0  0  0
   -0.2660    4.0260    0.0000 C   0  0  0  0  0  0  0  0  0  0  0  0
   -1.1520    5.2360    0.0000 C   0  0  0  0  0  0  0  0  0  0  0  0
   -0.8710    2.6530    0.0000 C   0  0  0  0  0  0  0  0  0  0  0  0
    3.2110    2.8940    0.0000 C   0  0  0  0  0  0  0  0  0  0  0  0
    4.4630    3.7200    0.0000 C   0  0  0  0  0  0  0  0  0  0  0  0
    4.3740    5.2170    0.0000 C   0  0  0  0  0  0  0  0  0  0  0  0
    5.6260    6.0430    0.0000 C   0  0  0  0  0  0  0  0  0  0  0  0
    3.0330    5.8890    0.0000 C   0  0  0  0  0  0  0  0  0  0  0  0
  1  2  1  0  0  0  0
  2  3  1  0  0  0  0
  2 29  2  0  0  0  0
  3  4  1  0  0  0  0
  3  9  1  0  0  0  0
  3 25  1  0  0  0  0
  4  5  2  0  0  0  0
  4  6  1  0  0  0  0
  6  7  1  0  0  0  0
  6  8  1  0  0  0  0
  9 10  1  0  0  0  0
  9 16  1  0  0  0  0
  9 17  1  0  0  0  0
 10 11  1  0  0  0  0
 11 12  1  0  0  0  0
 12 13  2  3  0  0  0
 13 14  1  0  0  0  0
 13 15  1  0  0  0  0
 17 18  1  0  0  0  0
 17 35  1  0  0  0  0
 18 19  1  0  0  0  0
 19 20  1  0  0  0  0
 19 25  1  0  0  0  0
 19 27  1  0  0  0  0
 20 21  1  0  0  0  0
 21 22  2  3  0  0  0
 22 23  1  0  0  0  0
 22 24  1  0  0  0  0
 25 26  2  0  0  0  0
 27 28  2  0  0  0  0
 27 29  1  0  0  0  0
 29 30  1  0  0  0  0
 30 31  1  0  0  0  0
 31 32  2  3  0  0  0
 32 33  1  0  0  0  0
 32 34  1  0  0  0  0
 35 36  1  0  0  0  0
 36 37  2  3  0  0  0
 37 38  1  0  0  0  0
 37 39  1  0  0  0  0
M  END
>  <Index>
541

>  <ID>
HT1065

>  <class>
0

>  <apol>
99.481239

>  <ast_fraglike>
0

>  <ast_fraglike_ext>
0

>  <ast_violation>
3

>  <ast_violation_ext>
4

>  <a_acc>
4

>  <a_acid>
0

>  <a_aro>
0

>  <a_base>
0

>  <a_count>
91

>  <a_don>
2

>  <a_donacc>
6

>  <a_heavy>
39

>  <a_hyd>
32

>  <a_IC>
108.26154

>  <a_ICM>
1.1896873

>  <a_nB>
0

>  <a_nBr>
0

>  <a_nC>
35

>  <a_nCl>
0

>  <a_nF>
0

>  <a_nH>
52

>  <a_nI>
0

>  <a_nN>
0

>  <a_nO>
4

>  <a_nP>
0

>  <a_nS>
0

>  <balabanJ>
2.8533549

>  <BCUT_PEOE_0>
-2.8642366

>  <BCUT_PEOE_1>
-0.015181845

>  <BCUT_PEOE_2>
0.032105565

>  <BCUT_PEOE_3>
2.9145999

>  <BCUT_SLOGP_0>
-2.8648469

>  <BCUT_SLOGP_1>
0.123

>  <BCUT_SLOGP_2>
0.13781603

>  <BCUT_SLOGP_3>
2.9258928

>  <BCUT_SMR_0>
-2.626601

>  <BCUT_SMR_1>
0.1057

>  <BCUT_SMR_2>
0.21931754

>  <BCUT_SMR_3>
3.1513987

>  <bpol>
59.720764

>  <b_1rotN>
11

>  <b_1rotR>
0.27500001

>  <b_ar>
0

>  <b_count>
92

>  <b_double>
8

>  <b_heavy>
40

>  <b_max1len>
6

>  <b_rotN>
11

>  <b_rotR>
0.27500001

>  <b_single>
84

>  <b_triple>
0

>  <chi0>
29.921921

>  <chi0v>
26.3787

>  <chi0v_C>
24.706743

>  <chi0_C>
25.921921

>  <chi1>
17.983353

>  <chi1v>
14.586433

>  <chi1v_C>
13.750455

>  <chi1_C>
15.673952

>  <chiral>
4

>  <chiral_u>
4

>  <density>
0.6517095

>  <diameter>
12

>  <FCharge>
0

>  <GCUT_PEOE_0>
-0.79147542

>  <GCUT_PEOE_1>
-0.2342708

>  <GCUT_PEOE_2>
-0.12897478

>  <GCUT_PEOE_3>
3.4684396

>  <GCUT_SLOGP_0>
-0.86745983

>  <GCUT_SLOGP_1>
-0.13103856

>  <GCUT_SLOGP_2>
-0.037

>  <GCUT_SLOGP_3>
3.5196285

>  <GCUT_SMR_0>
-0.53615254

>  <GCUT_SMR_1>
-0.054299999

>  <GCUT_SMR_2>
-0.011172203

>  <GCUT_SMR_3>
3.7018464

>  <Kier1>
35.197498

>  <Kier2>
13.98065

>  <Kier3>
6.8163323

>  <KierA1>
29.47772

>  <KierA2>
11.6515

>  <KierA3>
5.66081

>  <KierFlex>
8.8066578

>  <lip_acc>
4

>  <lip_don>
1

>  <lip_druglike>
0

>  <lip_violation>
2

>  <logP(o/w)>
5.961

>  <logS>
-9.7333603

>  <mr>
16.047588

>  <mutagenic>
0

>  <nmol>
1

>  <opr_brigid>
14

>  <opr_leadlike>
0

>  <opr_nring>
2

>  <opr_nrot>
14

>  <opr_violation>
3

>  <PC+>
0

>  <PC->
0

>  <PEOE_PC+>
2.6072185

>  <PEOE_PC->
-2.6072185

>  <PEOE_RPC+>
0.083209999

>  <PEOE_RPC->
0.13895284

>  <PEOE_VSA+0>
202.68169

>  <PEOE_VSA+1>
25.520063

>  <PEOE_VSA+2>
0

>  <PEOE_VSA+3>
25.375559

>  <PEOE_VSA+4>
10.324173

>  <PEOE_VSA+5>
0

>  <PEOE_VSA+6>
0

>  <PEOE_VSA-0>
202.1893

>  <PEOE_VSA-1>
114.09681

>  <PEOE_VSA-2>
0

>  <PEOE_VSA-3>
0

>  <PEOE_VSA-4>
0

>  <PEOE_VSA-5>
40.700764

>  <PEOE_VSA-6>
7.7675405

>  <PEOE_VSA_FHYD>
0.90647906

>  <PEOE_VSA_FNEG>
0.58021313

>  <PEOE_VSA_FPNEG>
0.077098303

>  <PEOE_VSA_FPOL>
0.093520917

>  <PEOE_VSA_FPOS>
0.41978684

>  <PEOE_VSA_FPPOS>
0.016422613

>  <PEOE_VSA_HYD>
569.8634

>  <PEOE_VSA_NEG>
364.75439

>  <PEOE_VSA_PNEG>
48.468304

>  <PEOE_VSA_POL>
58.792477

>  <PEOE_VSA_POS>
263.90149

>  <PEOE_VSA_PPOS>
10.324173

>  <petitjean>
0.5

>  <petitjeanSC>
1

>  <Q_PC+>
0

>  <Q_PC->
0

>  <Q_RPC+>
0

>  <Q_RPC->
0

>  <Q_VSA_FHYD>
1

>  <Q_VSA_FNEG>
0

>  <Q_VSA_FPNEG>
0

>  <Q_VSA_FPOL>
0

>  <Q_VSA_FPOS>
1

>  <Q_VSA_FPPOS>
0

>  <Q_VSA_HYD>
628.65588

>  <Q_VSA_NEG>
0

>  <Q_VSA_PNEG>
0

>  <Q_VSA_POL>
0

>  <Q_VSA_POS>
628.65588

>  <Q_VSA_PPOS>
0

>  <radius>
6

>  <reactive>
1

>  <rings>
2

>  <RPC+>
0

>  <RPC->
0

>  <rsynth>
0.25641027

>  <SlogP>
8.9897003

>  <SlogP_VSA0>
0

>  <SlogP_VSA1>
17.062834

>  <SlogP_VSA2>
71.586647

>  <SlogP_VSA3>
25.385227

>  <SlogP_VSA4>
8.8215923

>  <SlogP_VSA5>
21.171303

>  <SlogP_VSA6>
0

>  <SlogP_VSA7>
70.572739

>  <SlogP_VSA8>
113.21043

>  <SlogP_VSA9>
366.58615

>  <SMR>
16.14028

>  <SMR_VSA0>
71.586647

>  <SMR_VSA1>
0

>  <SMR_VSA2>
34.206818

>  <SMR_VSA3>
21.171303

>  <SMR_VSA4>
0

>  <SMR_VSA5>
183.78317

>  <SMR_VSA6>
17.062834

>  <SMR_VSA7>
366.58615

>  <TPSA>
71.440002

>  <VAdjEq>
0.29732794

>  <VAdjMa>
6.321928

>  <VDistEq>
3.3665726

>  <VDistMa>
10.363505

>  <vdw_area>
628.65588

>  <vdw_vol>
823.67529

>  <vsa_acc>
27.133842

>  <vsa_acid>
0

>  <vsa_base>
0

>  <vsa_don>
0

>  <vsa_hyd>
505.49619

>  <vsa_other>
25.375559

>  <vsa_pol>
54.267685

>  <Weight>
536.797

>  <weinerPath>
4126

>  <weinerPol>
79

>  <zagreb>
202

$$$$