O=C1N(CC(O)=O)C(=O)c2c3c1cccc3ccc2
  MOE2013           2D

 19 21  0  0  0  0  0  0  0  0999 V2000
    0.0000    0.0000    0.0000 O   0  0  0  0  0  0  0  0  0  0  0  0
   -0.7590    1.2940    0.0000 C   0  0  0  0  0  0  0  0  0  0  0  0
   -0.0160    2.6000    0.0000 N   0  0  0  0  0  0  0  0  0  0  0  0
    1.4840    2.6090    0.0000 C   0  0  0  0  0  0  0  0  0  0  0  0
    2.2260    3.9120    0.0000 C   0  0  0  0  0  0  0  0  0  0  0  0
    1.4680    5.2070    0.0000 O   0  0  0  0  0  0  0  0  0  0  0  0
    3.7260    3.9220    0.0000 O   0  0  0  0  0  0  0  0  0  0  0  0
   -0.7750    3.8970    0.0000 C   0  0  0  0  0  0  0  0  0  0  0  0
   -0.0330    5.2000    0.0000 O   0  0  0  0  0  0  0  0  0  0  0  0
   -2.2730    3.8860    0.0000 C   0  0  0  0  0  0  0  0  0  0  0  0
   -3.0170    2.5800    0.0000 C   0  0  0  0  0  0  0  0  0  0  0  0
   -2.2600    1.2820    0.0000 C   0  0  0  0  0  0  0  0  0  0  0  0
   -3.0020   -0.0160    0.0000 C   0  0  0  0  0  0  0  0  0  0  0  0
   -4.5020   -0.0250    0.0000 C   0  0  0  0  0  0  0  0  0  0  0  0
   -5.2590    1.2650    0.0000 C   0  0  0  0  0  0  0  0  0  0  0  0
   -4.5160    2.5710    0.0000 C   0  0  0  0  0  0  0  0  0  0  0  0
   -5.2750    3.8680    0.0000 C   0  0  0  0  0  0  0  0  0  0  0  0
   -4.5320    5.1670    0.0000 C   0  0  0  0  0  0  0  0  0  0  0  0
   -3.0310    5.1760    0.0000 C   0  0  0  0  0  0  0  0  0  0  0  0
  1  2  2  0  0  0  0
  2  3  1  0  0  0  0
  2 12  1  0  0  0  0
  3  4  1  0  0  0  0
  3  8  1  0  0  0  0
  4  5  1  0  0  0  0
  5  6  1  0  0  0  0
  5  7  2  0  0  0  0
  8  9  2  0  0  0  0
  8 10  1  0  0  0  0
 10 11  1  0  0  0  0
 10 19  2  0  0  0  0
 11 12  1  0  0  0  0
 11 16  2  0  0  0  0
 12 13  2  0  0  0  0
 13 14  1  0  0  0  0
 14 15  2  0  0  0  0
 15 16  1  0  0  0  0
 16 17  1  0  0  0  0
 17 18  2  0  0  0  0
 18 19  1  0  0  0  0
M  END
>  <Index>
53

>  <ID>
HT0116

>  <class>
0

>  <apol>
34.949139

>  <ast_fraglike>
0

>  <ast_fraglike_ext>
0

>  <ast_violation>
1

>  <ast_violation_ext>
1

>  <a_acc>
4

>  <a_acid>
0

>  <a_aro>
10

>  <a_base>
0

>  <a_count>
28

>  <a_don>
2

>  <a_donacc>
6

>  <a_heavy>
19

>  <a_hyd>
11

>  <a_IC>
44.773643

>  <a_ICM>
1.5990587

>  <a_nB>
0

>  <a_nBr>
0

>  <a_nC>
14

>  <a_nCl>
0

>  <a_nF>
0

>  <a_nH>
9

>  <a_nI>
0

>  <a_nN>
1

>  <a_nO>
4

>  <a_nP>
0

>  <a_nS>
0

>  <balabanJ>
1.8581828

>  <BCUT_PEOE_0>
-2.3916943

>  <BCUT_PEOE_1>
-0.56710029

>  <BCUT_PEOE_2>
0.61781788

>  <BCUT_PEOE_3>
2.4616575

>  <BCUT_SLOGP_0>
-2.5809724

>  <BCUT_SLOGP_1>
-0.49415609

>  <BCUT_SLOGP_2>
0.70279211

>  <BCUT_SLOGP_3>
2.4141719

>  <BCUT_SMR_0>
-2.1110914

>  <BCUT_SMR_1>
-0.42417076

>  <BCUT_SMR_2>
0.76032043

>  <BCUT_SMR_3>
2.7438488

>  <bpol>
14.692863

>  <b_1rotN>
2

>  <b_1rotR>
0.095238097

>  <b_ar>
11

>  <b_count>
30

>  <b_double>
3

>  <b_heavy>
21

>  <b_max1len>
2

>  <b_rotN>
2

>  <b_rotR>
0.095238097

>  <b_single>
16

>  <b_triple>
0

>  <chi0>
13.568549

>  <chi0v>
9.7903805

>  <chi0v_C>
7.6712084

>  <chi0_C>
8.9911995

>  <chi1>
9.0922241

>  <chi1v>
5.6910081

>  <chi1v_C>
4.0915871

>  <chi1_C>
5.7079082

>  <chiral>
0

>  <chiral_u>
0

>  <density>
0.81110209

>  <diameter>
8

>  <FCharge>
0

>  <GCUT_PEOE_0>
-0.76117426

>  <GCUT_PEOE_1>
-0.49230966

>  <GCUT_PEOE_2>
0.10850483

>  <GCUT_PEOE_3>
2.473444

>  <GCUT_SLOGP_0>
-0.97341079

>  <GCUT_SLOGP_1>
-0.41905847

>  <GCUT_SLOGP_2>
0.15107979

>  <GCUT_SLOGP_3>
2.533494

>  <GCUT_SMR_0>
-0.4667249

>  <GCUT_SMR_1>
-0.24009046

>  <GCUT_SMR_2>
0.21614234

>  <GCUT_SMR_3>
2.7791011

>  <Kier1>
13.959184

>  <Kier2>
5.4131112

>  <Kier3>
2.3801653

>  <KierA1>
9.2123747

>  <KierA2>
3.4811621

>  <KierA3>
1.4998415

>  <KierFlex>
1.6878827

>  <lip_acc>
5

>  <lip_don>
1

>  <lip_druglike>
1

>  <lip_violation>
0

>  <logP(o/w)>
1.796

>  <logS>
-3.80845

>  <mr>
6.7316976

>  <mutagenic>
0

>  <nmol>
1

>  <opr_brigid>
15

>  <opr_leadlike>
1

>  <opr_nring>
3

>  <opr_nrot>
2

>  <opr_violation>
0

>  <PC+>
0

>  <PC->
0

>  <PEOE_PC+>
1.7349179

>  <PEOE_PC->
-1.7349179

>  <PEOE_RPC+>
0.16123356

>  <PEOE_RPC->
0.19016613

>  <PEOE_VSA+0>
6.6256189

>  <PEOE_VSA+1>
34.123089

>  <PEOE_VSA+2>
13.192325

>  <PEOE_VSA+3>
0

>  <PEOE_VSA+4>
10.324173

>  <PEOE_VSA+5>
40.607563

>  <PEOE_VSA+6>
0

>  <PEOE_VSA-0>
26.718348

>  <PEOE_VSA-1>
49.019615

>  <PEOE_VSA-2>
0

>  <PEOE_VSA-3>
0

>  <PEOE_VSA-4>
0

>  <PEOE_VSA-5>
40.700764

>  <PEOE_VSA-6>
7.7675405

>  <PEOE_VSA_FHYD>
0.56608844

>  <PEOE_VSA_FNEG>
0.5421983

>  <PEOE_VSA_FPNEG>
0.21157897

>  <PEOE_VSA_FPOL>
0.43391153

>  <PEOE_VSA_FPOS>
0.45780167

>  <PEOE_VSA_FPPOS>
0.22233258

>  <PEOE_VSA_HYD>
129.679

>  <PEOE_VSA_NEG>
124.20627

>  <PEOE_VSA_PNEG>
48.468304

>  <PEOE_VSA_POL>
99.40004

>  <PEOE_VSA_POS>
104.87276

>  <PEOE_VSA_PPOS>
50.931732

>  <petitjean>
0.375

>  <petitjeanSC>
0.60000002

>  <Q_PC+>
0

>  <Q_PC->
0

>  <Q_RPC+>
0

>  <Q_RPC->
0

>  <Q_VSA_FHYD>
1

>  <Q_VSA_FNEG>
0

>  <Q_VSA_FPNEG>
0

>  <Q_VSA_FPOL>
0

>  <Q_VSA_FPOS>
1

>  <Q_VSA_FPPOS>
0

>  <Q_VSA_HYD>
229.07903

>  <Q_VSA_NEG>
0

>  <Q_VSA_PNEG>
0

>  <Q_VSA_POL>
0

>  <Q_VSA_POS>
229.07903

>  <Q_VSA_PPOS>
0

>  <radius>
5

>  <reactive>
0

>  <rings>
3

>  <RPC+>
0

>  <RPC->
0

>  <rsynth>
1

>  <SlogP>
1.5204

>  <SlogP_VSA0>
0

>  <SlogP_VSA1>
21.387344

>  <SlogP_VSA2>
23.862217

>  <SlogP_VSA3>
43.824806

>  <SlogP_VSA4>
54.095581

>  <SlogP_VSA5>
0

>  <SlogP_VSA6>
0

>  <SlogP_VSA7>
111.00504

>  <SlogP_VSA8>
0

>  <SlogP_VSA9>
0

>  <SMR>
6.6950798

>  <SMR_VSA0>
71.586647

>  <SMR_VSA1>
3.1243138

>  <SMR_VSA2>
25.385227

>  <SMR_VSA3>
6.37115

>  <SMR_VSA4>
5.1459289

>  <SMR_VSA5>
105.85911

>  <SMR_VSA6>
36.70261

>  <SMR_VSA7>
0

>  <TPSA>
74.68

>  <VAdjEq>
0.51875818

>  <VAdjMa>
5.3923173

>  <VDistEq>
2.7738419

>  <VDistMa>
8.2390099

>  <vdw_area>
229.07903

>  <vdw_vol>
314.66937

>  <vsa_acc>
27.133842

>  <vsa_acid>
0

>  <vsa_base>
0

>  <vsa_don>
0

>  <vsa_hyd>
123.98463

>  <vsa_other>
40.607563

>  <vsa_pol>
54.267685

>  <Weight>
255.22899

>  <weinerPath>
616

>  <weinerPol>
35

>  <zagreb>
104

$$$$