Clc1cc(Cl)cc2c1cc(c1c2cc(cc1)C(F)(F)F)C(O)CCN(CCCC)CCCC
  MOE2013           2D

 33 35  0  0  1  0  0  0  0  0999 V2000
    0.0000    0.0000    0.0000 Cl  0  0  0  0  0  0  0  0  0  0  0  0
   -1.3050    0.7400    0.0000 C   0  0  0  0  0  0  0  0  0  0  0  0
   -2.5980   -0.0200    0.0000 C   0  0  0  0  0  0  0  0  0  0  0  0
   -3.9030    0.7200    0.0000 C   0  0  0  0  0  0  0  0  0  0  0  0
   -5.1960   -0.0400    0.0000 Cl  0  0  0  0  0  0  0  0  0  0  0  0
   -3.9140    2.2200    0.0000 C   0  0  0  0  0  0  0  0  0  0  0  0
   -2.6210    2.9800    0.0000 C   0  0  0  0  0  0  0  0  0  0  0  0
   -1.3160    2.2400    0.0000 C   0  0  0  0  0  0  0  0  0  0  0  0
   -0.0230    3.0000    0.0000 C   0  0  0  0  0  0  0  0  0  0  0  0
   -0.0350    4.5000    0.0000 C   0  0  0  0  0  0  0  0  0  0  0  0
   -1.3400    5.2400    0.0000 C   0  0  0  0  0  0  0  0  0  0  0  0
   -2.6330    4.4800    0.0000 C   0  0  0  0  0  0  0  0  0  0  0  0
   -3.9380    5.2200    0.0000 C   0  0  0  0  0  0  0  0  0  0  0  0
   -3.9490    6.7200    0.0000 C   0  0  0  0  0  0  0  0  0  0  0  0
   -2.6560    7.4800    0.0000 C   0  0  0  0  0  0  0  0  0  0  0  0
   -1.3510    6.7400    0.0000 C   0  0  0  0  0  0  0  0  0  0  0  0
   -5.2540    7.4600    0.0000 C   0  0  0  0  0  0  0  0  0  0  0  0
   -4.5140    8.7640    0.0000 F   0  0  0  0  0  0  0  0  0  0  0  0
   -5.9940    6.1550    0.0000 F   0  0  0  0  0  0  0  0  0  0  0  0
   -6.5590    8.1990    0.0000 F   0  0  0  0  0  0  0  0  0  0  0  0
    1.2580    5.2600    0.0000 C   0  0  3  0  0  0  0  0  0  0  0  0
    1.2470    6.7600    0.0000 O   0  0  0  0  0  0  0  0  0  0  0  0
    2.5630    4.5200    0.0000 C   0  0  0  0  0  0  0  0  0  0  0  0
    3.8560    5.2800    0.0000 C   0  0  0  0  0  0  0  0  0  0  0  0
    5.1610    4.5400    0.0000 N   0  0  0  0  0  0  0  0  0  0  0  0
    5.1730    3.0400    0.0000 C   0  0  0  0  0  0  0  0  0  0  0  0
    6.4780    2.3000    0.0000 C   0  0  0  0  0  0  0  0  0  0  0  0
    6.4890    0.8000    0.0000 C   0  0  0  0  0  0  0  0  0  0  0  0
    7.7940    0.0600    0.0000 C   0  0  0  0  0  0  0  0  0  0  0  0
    6.4540    5.3000    0.0000 C   0  0  0  0  0  0  0  0  0  0  0  0
    6.4430    6.8000    0.0000 C   0  0  0  0  0  0  0  0  0  0  0  0
    7.7360    7.5600    0.0000 C   0  0  0  0  0  0  0  0  0  0  0  0
    7.7240    9.0600    0.0000 C   0  0  0  0  0  0  0  0  0  0  0  0
  1  2  1  0  0  0  0
  2  3  1  0  0  0  0
  2  8  2  0  0  0  0
  3  4  2  0  0  0  0
  4  5  1  0  0  0  0
  4  6  1  0  0  0  0
  6  7  2  0  0  0  0
  7  8  1  0  0  0  0
  7 12  1  0  0  0  0
  8  9  1  0  0  0  0
  9 10  2  0  0  0  0
 10 11  1  0  0  0  0
 10 21  1  0  0  0  0
 11 12  1  0  0  0  0
 11 16  2  0  0  0  0
 12 13  2  0  0  0  0
 13 14  1  0  0  0  0
 14 15  2  0  0  0  0
 14 17  1  0  0  0  0
 15 16  1  0  0  0  0
 17 18  1  0  0  0  0
 17 19  1  0  0  0  0
 17 20  1  0  0  0  0
 21 22  1  0  0  0  0
 21 23  1  0  0  0  0
 23 24  1  0  0  0  0
 24 25  1  0  0  0  0
 25 26  1  0  0  0  0
 25 30  1  0  0  0  0
 26 27  1  0  0  0  0
 27 28  1  0  0  0  0
 28 29  1  0  0  0  0
 30 31  1  0  0  0  0
 31 32  1  0  0  0  0
 32 33  1  0  0  0  0
M  END
>  <Index>
512

>  <ID>
HT1016

>  <class>
0

>  <apol>
73.696793

>  <ast_fraglike>
0

>  <ast_fraglike_ext>
0

>  <ast_violation>
2

>  <ast_violation_ext>
3

>  <a_acc>
2

>  <a_acid>
0

>  <a_aro>
14

>  <a_base>
0

>  <a_count>
63

>  <a_don>
1

>  <a_donacc>
3

>  <a_heavy>
33

>  <a_hyd>
31

>  <a_IC>
100.3956

>  <a_ICM>
1.593581

>  <a_nB>
0

>  <a_nBr>
0

>  <a_nC>
26

>  <a_nCl>
2

>  <a_nF>
3

>  <a_nH>
30

>  <a_nI>
0

>  <a_nN>
1

>  <a_nO>
1

>  <a_nP>
0

>  <a_nS>
0

>  <balabanJ>
1.7173686

>  <BCUT_PEOE_0>
-2.7411737

>  <BCUT_PEOE_1>
-0.55006093

>  <BCUT_PEOE_2>
0.56645393

>  <BCUT_PEOE_3>
2.6511264

>  <BCUT_SLOGP_0>
-2.7535431

>  <BCUT_SLOGP_1>
-0.28310096

>  <BCUT_SLOGP_2>
0.73366684

>  <BCUT_SLOGP_3>
2.7061958

>  <BCUT_SMR_0>
-2.4689639

>  <BCUT_SMR_1>
-0.26760167

>  <BCUT_SMR_2>
0.83518171

>  <BCUT_SMR_3>
2.9166143

>  <bpol>
39.225208

>  <b_1rotN>
10

>  <b_1rotR>
0.2857143

>  <b_ar>
16

>  <b_count>
65

>  <b_double>
0

>  <b_heavy>
35

>  <b_max1len>
10

>  <b_rotN>
11

>  <b_rotR>
0.31428573

>  <b_single>
49

>  <b_triple>
0

>  <chi0>
24.172998

>  <chi0v>
20.494413

>  <chi0v_C>
16.198307

>  <chi0_C>
17.595648

>  <chi1>
15.650415

>  <chi1v>
12.238944

>  <chi1v_C>
9.3312216

>  <chi1_C>
11.19362

>  <chiral>
1

>  <chiral_u>
1

>  <density>
0.78955126

>  <diameter>
14

>  <FCharge>
0

>  <GCUT_PEOE_0>
-0.85941297

>  <GCUT_PEOE_1>
-0.37109342

>  <GCUT_PEOE_2>
0.019980457

>  <GCUT_PEOE_3>
2.879621

>  <GCUT_SLOGP_0>
-0.9532727

>  <GCUT_SLOGP_1>
-0.23984459

>  <GCUT_SLOGP_2>
0.26019999

>  <GCUT_SLOGP_3>
3.0146234

>  <GCUT_SMR_0>
-0.53123873

>  <GCUT_SMR_1>
-0.10995463

>  <GCUT_SMR_2>
0.23268621

>  <GCUT_SMR_3>
3.1553376

>  <Kier1>
27.585306

>  <Kier2>
12.3008

>  <Kier3>
7.03125

>  <KierA1>
24.900583

>  <KierA2>
11.066746

>  <KierA3>
6.3105712

>  <KierFlex>
8.3505583

>  <lip_acc>
2

>  <lip_don>
1

>  <lip_druglike>
0

>  <lip_violation>
2

>  <logP(o/w)>
9.3227596

>  <logS>
-9.6248503

>  <mr>
13.165895

>  <mutagenic>
1

>  <nmol>
1

>  <opr_brigid>
16

>  <opr_leadlike>
0

>  <opr_nring>
3

>  <opr_nrot>
10

>  <opr_violation>
2

>  <PC+>
0

>  <PC->
0

>  <PEOE_PC+>
1.9756565

>  <PEOE_PC->
-1.9756565

>  <PEOE_RPC+>
0.21129148

>  <PEOE_RPC->
0.19594479

>  <PEOE_VSA+0>
113.7591

>  <PEOE_VSA+1>
41.490917

>  <PEOE_VSA+2>
0

>  <PEOE_VSA+3>
0

>  <PEOE_VSA+4>
10.324173

>  <PEOE_VSA+5>
0

>  <PEOE_VSA+6>
9.0455017

>  <PEOE_VSA-0>
122.59727

>  <PEOE_VSA-1>
126.31678

>  <PEOE_VSA-2>
0

>  <PEOE_VSA-3>
35.725906

>  <PEOE_VSA-4>
0

>  <PEOE_VSA-5>
0

>  <PEOE_VSA-6>
7.7675405

>  <PEOE_VSA_FHYD>
0.9418937

>  <PEOE_VSA_FNEG>
0.62610382

>  <PEOE_VSA_FPNEG>
0.016631881

>  <PEOE_VSA_FPOL>
0.058106285

>  <PEOE_VSA_FPOS>
0.37389621

>  <PEOE_VSA_FPPOS>
0.041474406

>  <PEOE_VSA_HYD>
439.88998

>  <PEOE_VSA_NEG>
292.4075

>  <PEOE_VSA_PNEG>
7.7675405

>  <PEOE_VSA_POL>
27.137215

>  <PEOE_VSA_POS>
174.61969

>  <PEOE_VSA_PPOS>
19.369675

>  <petitjean>
0.5

>  <petitjeanSC>
1

>  <Q_PC+>
0

>  <Q_PC->
0

>  <Q_RPC+>
0

>  <Q_RPC->
0

>  <Q_VSA_FHYD>
1

>  <Q_VSA_FNEG>
0

>  <Q_VSA_FPNEG>
0

>  <Q_VSA_FPOL>
0

>  <Q_VSA_FPOS>
1

>  <Q_VSA_FPPOS>
0

>  <Q_VSA_HYD>
467.02719

>  <Q_VSA_NEG>
0

>  <Q_VSA_PNEG>
0

>  <Q_VSA_POL>
0

>  <Q_VSA_POS>
467.02719

>  <Q_VSA_PPOS>
0

>  <radius>
7

>  <reactive>
0

>  <rings>
3

>  <RPC+>
0

>  <RPC->
0

>  <rsynth>
0.030303031

>  <SlogP>
9.0513

>  <SlogP_VSA0>
25.385227

>  <SlogP_VSA1>
3.1243138

>  <SlogP_VSA2>
0

>  <SlogP_VSA3>
55.318733

>  <SlogP_VSA4>
6.37115

>  <SlogP_VSA5>
0

>  <SlogP_VSA6>
14.760729

>  <SlogP_VSA7>
116.15096

>  <SlogP_VSA8>
100.81068

>  <SlogP_VSA9>
189.82965

>  <SMR>
13.25368

>  <SMR_VSA0>
0

>  <SMR_VSA1>
73.389877

>  <SMR_VSA2>
7.7595162

>  <SMR_VSA3>
19.841013

>  <SMR_VSA4>
10.291858

>  <SMR_VSA5>
200.20113

>  <SMR_VSA6>
55.318733

>  <SMR_VSA7>
144.94931

>  <TPSA>
23.469999

>  <VAdjEq>
0.3442024

>  <VAdjMa>
6.129283

>  <VDistEq>
3.6586039

>  <VDistMa>
9.816247

>  <vdw_area>
467.02719

>  <vdw_vol>
633.81824

>  <vsa_acc>
0

>  <vsa_acid>
0

>  <vsa_base>
0

>  <vsa_don>
0

>  <vsa_hyd>
428.2934

>  <vsa_other>
0

>  <vsa_pol>
13.566921

>  <Weight>
500.43198

>  <weinerPath>
3228

>  <weinerPol>
55

>  <zagreb>
170

$$$$