Clc1cc2c(-n3c(nnc3C)CN=C2c2ccccc2)cc1
  MOE2013           2D

 22 25  0  0  0  0  0  0  0  0999 V2000
    0.0000    0.0000    0.0000 Cl  0  0  0  0  0  0  0  0  0  0  0  0
   -0.8970   -1.2020    0.0000 C   0  0  0  0  0  0  0  0  0  0  0  0
   -0.3050   -2.5800    0.0000 C   0  0  0  0  0  0  0  0  0  0  0  0
   -1.2020   -3.7820    0.0000 C   0  0  0  0  0  0  0  0  0  0  0  0
   -2.6920   -3.6060    0.0000 C   0  0  0  0  0  0  0  0  0  0  0  0
   -3.7570   -4.6630    0.0000 N   0  0  0  0  0  0  0  0  0  0  0  0
   -3.5950   -6.1540    0.0000 C   0  0  0  0  0  0  0  0  0  0  0  0
   -4.9640   -6.7680    0.0000 N   0  0  0  0  0  0  0  0  0  0  0  0
   -5.9710   -5.6560    0.0000 N   0  0  0  0  0  0  0  0  0  0  0  0
   -5.2250   -4.3550    0.0000 C   0  0  0  0  0  0  0  0  0  0  0  0
   -5.8390   -2.9860    0.0000 C   0  0  0  0  0  0  0  0  0  0  0  0
   -2.3290   -6.9580    0.0000 C   0  0  0  0  0  0  0  0  0  0  0  0
   -0.9120   -6.4700    0.0000 N   0  0  0  0  0  0  0  0  0  0  0  0
   -0.4100   -5.0560    0.0000 C   0  0  0  0  0  0  0  0  0  0  0  0
    1.0810   -4.8950    0.0000 C   0  0  0  0  0  0  0  0  0  0  0  0
    1.9660   -6.1060    0.0000 C   0  0  0  0  0  0  0  0  0  0  0  0
    3.4580   -5.9450    0.0000 C   0  0  0  0  0  0  0  0  0  0  0  0
    4.0640   -4.5730    0.0000 C   0  0  0  0  0  0  0  0  0  0  0  0
    3.1790   -3.3620    0.0000 C   0  0  0  0  0  0  0  0  0  0  0  0
    1.6870   -3.5230    0.0000 C   0  0  0  0  0  0  0  0  0  0  0  0
   -3.2840   -2.2280    0.0000 C   0  0  0  0  0  0  0  0  0  0  0  0
   -2.3870   -1.0260    0.0000 C   0  0  0  0  0  0  0  0  0  0  0  0
  1  2  1  0  0  0  0
  2  3  1  0  0  0  0
  2 22  2  0  0  0  0
  3  4  2  0  0  0  0
  4  5  1  0  0  0  0
  4 14  1  0  0  0  0
  5  6  1  0  0  0  0
  5 21  2  0  0  0  0
  6  7  1  0  0  0  0
  6 10  1  0  0  0  0
  7  8  2  0  0  0  0
  7 12  1  0  0  0  0
  8  9  1  0  0  0  0
  9 10  2  0  0  0  0
 10 11  1  0  0  0  0
 12 13  1  0  0  0  0
 13 14  2  0  0  0  0
 14 15  1  0  0  0  0
 15 16  1  0  0  0  0
 15 20  2  0  0  0  0
 16 17  2  0  0  0  0
 17 18  1  0  0  0  0
 18 19  2  0  0  0  0
 19 20  1  0  0  0  0
 21 22  1  0  0  0  0
M  END
>  <Index>
51

>  <ID>
HT0113

>  <class>
0

>  <apol>
45.168308

>  <ast_fraglike>
0

>  <ast_fraglike_ext>
0

>  <ast_violation>
2

>  <ast_violation_ext>
2

>  <a_acc>
3

>  <a_acid>
0

>  <a_aro>
17

>  <a_base>
0

>  <a_count>
35

>  <a_don>
0

>  <a_donacc>
3

>  <a_heavy>
22

>  <a_hyd>
15

>  <a_IC>
53.93232

>  <a_ICM>
1.5409235

>  <a_nB>
0

>  <a_nBr>
0

>  <a_nC>
17

>  <a_nCl>
1

>  <a_nF>
0

>  <a_nH>
13

>  <a_nI>
0

>  <a_nN>
4

>  <a_nO>
0

>  <a_nP>
0

>  <a_nS>
0

>  <balabanJ>
1.6001269

>  <BCUT_PEOE_0>
-2.2637928

>  <BCUT_PEOE_1>
-0.61782914

>  <BCUT_PEOE_2>
0.62759274

>  <BCUT_PEOE_3>
2.3725679

>  <BCUT_SLOGP_0>
-2.1942933

>  <BCUT_SLOGP_1>
-0.49650812

>  <BCUT_SLOGP_2>
0.76532167

>  <BCUT_SLOGP_3>
2.4539328

>  <BCUT_SMR_0>
-1.9802769

>  <BCUT_SMR_1>
-0.46058318

>  <BCUT_SMR_2>
0.83761948

>  <BCUT_SMR_3>
2.6753638

>  <bpol>
19.251692

>  <b_1rotN>
1

>  <b_1rotR>
0.039999999

>  <b_ar>
17

>  <b_count>
38

>  <b_double>
1

>  <b_heavy>
25

>  <b_max1len>
2

>  <b_rotN>
1

>  <b_rotR>
0.039999999

>  <b_single>
20

>  <b_triple>
0

>  <chi0>
15.104083

>  <chi0v>
12.748656

>  <chi0v_C>
9.8259087

>  <chi0_C>
11.405413

>  <chi1>
10.737184

>  <chi1v>
7.4270864

>  <chi1v_C>
5.0022707

>  <chi1_C>
6.9350882

>  <chiral>
0

>  <chiral_u>
0

>  <density>
0.77270257

>  <diameter>
9

>  <FCharge>
0

>  <GCUT_PEOE_0>
-0.79807508

>  <GCUT_PEOE_1>
-0.38278958

>  <GCUT_PEOE_2>
0.046107363

>  <GCUT_PEOE_3>
2.5604134

>  <GCUT_SLOGP_0>
-0.86626387

>  <GCUT_SLOGP_1>
-0.28017744

>  <GCUT_SLOGP_2>
0.15515132

>  <GCUT_SLOGP_3>
2.6643376

>  <GCUT_SMR_0>
-0.48244363

>  <GCUT_SMR_1>
-0.20281337

>  <GCUT_SMR_2>
0.20552821

>  <GCUT_SMR_3>
2.8709671

>  <Kier1>
15.5232

>  <Kier2>
6.4814816

>  <Kier3>
2.9219532

>  <KierA1>
11.242508

>  <KierA2>
4.6158576

>  <KierA3>
2.0556045

>  <KierFlex>
2.3588097

>  <lip_acc>
4

>  <lip_don>
0

>  <lip_druglike>
1

>  <lip_violation>
0

>  <logP(o/w)>
4

>  <logS>
-4.5496302

>  <mr>
8.717248

>  <mutagenic>
0

>  <nmol>
1

>  <opr_brigid>
22

>  <opr_leadlike>
1

>  <opr_nring>
4

>  <opr_nrot>
1

>  <opr_violation>
0

>  <PC+>
0

>  <PC->
0

>  <PEOE_PC+>
1.3083251

>  <PEOE_PC->
-1.3083251

>  <PEOE_RPC+>
0.12187711

>  <PEOE_RPC->
0.21483958

>  <PEOE_VSA+0>
21.732985

>  <PEOE_VSA+1>
56.052963

>  <PEOE_VSA+2>
24.382887

>  <PEOE_VSA+3>
11.190562

>  <PEOE_VSA+4>
0

>  <PEOE_VSA+5>
0

>  <PEOE_VSA+6>
0

>  <PEOE_VSA-0>
55.51239

>  <PEOE_VSA-1>
90.856468

>  <PEOE_VSA-2>
18.842079

>  <PEOE_VSA-3>
0

>  <PEOE_VSA-4>
0

>  <PEOE_VSA-5>
5.6825762

>  <PEOE_VSA-6>
0

>  <PEOE_VSA_FHYD>
0.98000872

>  <PEOE_VSA_FNEG>
0.60120231

>  <PEOE_VSA_FPNEG>
0.019991267

>  <PEOE_VSA_FPOL>
0.019991267

>  <PEOE_VSA_FPOS>
0.39879766

>  <PEOE_VSA_FPPOS>
0

>  <PEOE_VSA_HYD>
278.57034

>  <PEOE_VSA_NEG>
170.89351

>  <PEOE_VSA_PNEG>
5.6825762

>  <PEOE_VSA_POL>
5.6825762

>  <PEOE_VSA_POS>
113.3594

>  <PEOE_VSA_PPOS>
0

>  <petitjean>
0.44444445

>  <petitjeanSC>
0.80000001

>  <Q_PC+>
0

>  <Q_PC->
0

>  <Q_RPC+>
0

>  <Q_RPC->
0

>  <Q_VSA_FHYD>
1

>  <Q_VSA_FNEG>
0

>  <Q_VSA_FPNEG>
0

>  <Q_VSA_FPOL>
0

>  <Q_VSA_FPOS>
1

>  <Q_VSA_FPPOS>
0

>  <Q_VSA_HYD>
284.2529

>  <Q_VSA_NEG>
0

>  <Q_VSA_PNEG>
0

>  <Q_VSA_POL>
0

>  <Q_VSA_POS>
284.2529

>  <Q_VSA_PPOS>
0

>  <radius>
5

>  <reactive>
0

>  <rings>
4

>  <RPC+>
0

>  <RPC->
0

>  <rsynth>
1

>  <SlogP>
3.8465199

>  <SlogP_VSA0>
0

>  <SlogP_VSA1>
37.981853

>  <SlogP_VSA2>
0

>  <SlogP_VSA3>
0

>  <SlogP_VSA4>
11.02699

>  <SlogP_VSA5>
16.78553

>  <SlogP_VSA6>
3.5006065

>  <SlogP_VSA7>
143.90222

>  <SlogP_VSA8>
0

>  <SlogP_VSA9>
90.914238

>  <SMR>
8.7096004

>  <SMR_VSA0>
0

>  <SMR_VSA1>
52.010635

>  <SMR_VSA2>
0

>  <SMR_VSA3>
14.527596

>  <SMR_VSA4>
2.7567475

>  <SMR_VSA5>
159.58505

>  <SMR_VSA6>
2.7567475

>  <SMR_VSA7>
72.474655

>  <TPSA>
43.07

>  <VAdjEq>
0.47938794

>  <VAdjMa>
5.643856

>  <VDistEq>
2.9352038

>  <VDistMa>
8.6676722

>  <vdw_area>
284.2529

>  <vdw_vol>
399.60004

>  <vsa_acc>
24.524654

>  <vsa_acid>
0

>  <vsa_base>
0

>  <vsa_don>
0

>  <vsa_hyd>
221.39424

>  <vsa_other>
29.080677

>  <vsa_pol>
24.524654

>  <Weight>
308.772

>  <weinerPath>
926

>  <weinerPol>
40

>  <zagreb>
122

$$$$