S1c2c(N(c3ncccc13)CC(N(C)C)C)cccc2
  MOE2013           2D

 20 22  0  0  1  0  0  0  0  0999 V2000
    0.0000    0.0000    0.0000 S   0  0  0  0  0  0  0  0  0  0  0  0
   -0.7540    1.2970    0.0000 C   0  0  0  0  0  0  0  0  0  0  0  0
   -0.0080    2.5980    0.0000 C   0  0  0  0  0  0  0  0  0  0  0  0
    1.4920    2.6030    0.0000 N   0  0  3  0  0  0  0  0  0  0  0  0
    2.2460    1.3060    0.0000 C   0  0  0  0  0  0  0  0  0  0  0  0
    3.7460    1.3110    0.0000 N   0  0  0  0  0  0  0  0  0  0  0  0
    4.5000    0.0150    0.0000 C   0  0  0  0  0  0  0  0  0  0  0  0
    3.7540   -1.2870    0.0000 C   0  0  0  0  0  0  0  0  0  0  0  0
    2.2540   -1.2920    0.0000 C   0  0  0  0  0  0  0  0  0  0  0  0
    1.5000    0.0050    0.0000 C   0  0  0  0  0  0  0  0  0  0  0  0
    2.2370    3.9040    0.0000 C   0  0  0  0  0  0  0  0  0  0  0  0
    3.7370    3.9090    0.0000 C   0  0  3  0  0  0  0  0  0  0  0  0
    4.4830    5.2110    0.0000 N   0  0  0  0  0  0  0  0  0  0  0  0
    3.7290    6.5070    0.0000 C   0  0  0  0  0  0  0  0  0  0  0  0
    5.9830    5.2160    0.0000 C   0  0  0  0  0  0  0  0  0  0  0  0
    4.4920    2.6130    0.0000 C   0  0  0  0  0  0  0  0  0  0  0  0
   -0.7630    3.8950    0.0000 C   0  0  0  0  0  0  0  0  0  0  0  0
   -2.2630    3.8900    0.0000 C   0  0  0  0  0  0  0  0  0  0  0  0
   -3.0080    2.5880    0.0000 C   0  0  0  0  0  0  0  0  0  0  0  0
   -2.2540    1.2920    0.0000 C   0  0  0  0  0  0  0  0  0  0  0  0
  1  2  1  0  0  0  0
  1 10  1  0  0  0  0
  2  3  1  0  0  0  0
  2 20  2  0  0  0  0
  3  4  1  0  0  0  0
  3 17  2  0  0  0  0
  4  5  1  0  0  0  0
  4 11  1  0  0  0  0
  5  6  1  0  0  0  0
  5 10  2  0  0  0  0
  6  7  2  0  0  0  0
  7  8  1  0  0  0  0
  8  9  2  0  0  0  0
  9 10  1  0  0  0  0
 11 12  1  0  0  0  0
 12 13  1  0  0  0  0
 12 16  1  0  0  0  0
 13 14  1  0  0  0  0
 13 15  1  0  0  0  0
 17 18  1  0  0  0  0
 18 19  2  0  0  0  0
 19 20  1  0  0  0  0
M  END
>  <Index>
577

>  <ID>
HT1142

>  <class>
0

>  <apol>
47.029068

>  <ast_fraglike>
0

>  <ast_fraglike_ext>
0

>  <ast_violation>
1

>  <ast_violation_ext>
1

>  <a_acc>
2

>  <a_acid>
0

>  <a_aro>
12

>  <a_base>
0

>  <a_count>
39

>  <a_don>
0

>  <a_donacc>
2

>  <a_heavy>
20

>  <a_hyd>
16

>  <a_IC>
56.665176

>  <a_ICM>
1.4529532

>  <a_nB>
0

>  <a_nBr>
0

>  <a_nC>
16

>  <a_nCl>
0

>  <a_nF>
0

>  <a_nH>
19

>  <a_nI>
0

>  <a_nN>
3

>  <a_nO>
0

>  <a_nP>
0

>  <a_nS>
1

>  <balabanJ>
1.7679567

>  <BCUT_PEOE_0>
-2.6830547

>  <BCUT_PEOE_1>
-0.54896706

>  <BCUT_PEOE_2>
0.60931569

>  <BCUT_PEOE_3>
2.5963476

>  <BCUT_SLOGP_0>
-2.7698381

>  <BCUT_SLOGP_1>
-0.43719265

>  <BCUT_SLOGP_2>
0.71456516

>  <BCUT_SLOGP_3>
2.5861981

>  <BCUT_SMR_0>
-2.3995366

>  <BCUT_SMR_1>
-0.3930465

>  <BCUT_SMR_2>
0.75813359

>  <BCUT_SMR_3>
2.8794339

>  <bpol>
28.330933

>  <b_1rotN>
3

>  <b_1rotR>
0.13636364

>  <b_ar>
12

>  <b_count>
41

>  <b_double>
0

>  <b_heavy>
22

>  <b_max1len>
5

>  <b_rotN>
3

>  <b_rotR>
0.13636364

>  <b_single>
29

>  <b_triple>
0

>  <chi0>
14.112519

>  <chi0v>
12.892295

>  <chi0v_C>
10.325909

>  <chi0_C>
11.543606

>  <chi1>
9.6647034

>  <chi1v>
7.6409087

>  <chi1v_C>
4.0182905

>  <chi1_C>
5.3770099

>  <chiral>
1

>  <chiral_u>
1

>  <density>
0.71139133

>  <diameter>
8

>  <FCharge>
0

>  <GCUT_PEOE_0>
-0.85927469

>  <GCUT_PEOE_1>
-0.35689911

>  <GCUT_PEOE_2>
0.048614603

>  <GCUT_PEOE_3>
2.6235127

>  <GCUT_SLOGP_0>
-0.96659595

>  <GCUT_SLOGP_1>
-0.24345914

>  <GCUT_SLOGP_2>
0.14542678

>  <GCUT_SLOGP_3>
2.7300954

>  <GCUT_SMR_0>
-0.52088183

>  <GCUT_SMR_1>
-0.17617169

>  <GCUT_SMR_2>
0.16875336

>  <GCUT_SMR_3>
2.9205163

>  <Kier1>
14.917356

>  <Kier2>
6.405827

>  <Kier3>
3.1224489

>  <KierA1>
12.164938

>  <KierA2>
5.1638927

>  <KierA3>
2.4958704

>  <KierFlex>
3.1409218

>  <lip_acc>
3

>  <lip_don>
0

>  <lip_druglike>
1

>  <lip_violation>
0

>  <logP(o/w)>
3.188

>  <logS>
-3.01842

>  <mr>
8.4834366

>  <mutagenic>
0

>  <nmol>
1

>  <opr_brigid>
16

>  <opr_leadlike>
1

>  <opr_nring>
3

>  <opr_nrot>
3

>  <opr_violation>
0

>  <PC+>
0

>  <PC->
0

>  <PEOE_PC+>
1.2257714

>  <PEOE_PC->
-1.2257714

>  <PEOE_RPC+>
0.10397533

>  <PEOE_RPC->
0.2483651

>  <PEOE_VSA+0>
99.337585

>  <PEOE_VSA+1>
29.857702

>  <PEOE_VSA+2>
11.190562

>  <PEOE_VSA+3>
0

>  <PEOE_VSA+4>
0

>  <PEOE_VSA+5>
0

>  <PEOE_VSA+6>
0

>  <PEOE_VSA-0>
114.24467

>  <PEOE_VSA-1>
44.270424

>  <PEOE_VSA-2>
0

>  <PEOE_VSA-3>
0

>  <PEOE_VSA-4>
5.6825762

>  <PEOE_VSA-5>
0

>  <PEOE_VSA-6>
0

>  <PEOE_VSA_FHYD>
0.98134315

>  <PEOE_VSA_FNEG>
0.53908914

>  <PEOE_VSA_FPNEG>
0.018656872

>  <PEOE_VSA_FPOL>
0.018656872

>  <PEOE_VSA_FPOS>
0.46091086

>  <PEOE_VSA_FPPOS>
0

>  <PEOE_VSA_HYD>
298.90094

>  <PEOE_VSA_NEG>
164.19768

>  <PEOE_VSA_PNEG>
5.6825762

>  <PEOE_VSA_POL>
5.6825762

>  <PEOE_VSA_POS>
140.38585

>  <PEOE_VSA_PPOS>
0

>  <petitjean>
0.5

>  <petitjeanSC>
1

>  <Q_PC+>
0

>  <Q_PC->
0

>  <Q_RPC+>
0

>  <Q_RPC->
0

>  <Q_VSA_FHYD>
1

>  <Q_VSA_FNEG>
0

>  <Q_VSA_FPNEG>
0

>  <Q_VSA_FPOL>
0

>  <Q_VSA_FPOS>
1

>  <Q_VSA_FPPOS>
0

>  <Q_VSA_HYD>
304.58353

>  <Q_VSA_NEG>
0

>  <Q_VSA_PNEG>
0

>  <Q_VSA_POL>
0

>  <Q_VSA_POS>
304.58353

>  <Q_VSA_PPOS>
0

>  <radius>
4

>  <reactive>
0

>  <rings>
3

>  <RPC+>
0

>  <RPC->
0

>  <rsynth>
1

>  <SlogP>
3.6343999

>  <SlogP_VSA0>
3.1243138

>  <SlogP_VSA1>
19.909843

>  <SlogP_VSA2>
3.9819686

>  <SlogP_VSA3>
18.439579

>  <SlogP_VSA4>
0

>  <SlogP_VSA5>
68.895844

>  <SlogP_VSA6>
0

>  <SlogP_VSA7>
123.07346

>  <SlogP_VSA8>
0

>  <SlogP_VSA9>
70.630226

>  <SMR>
8.4958

>  <SMR_VSA0>
0

>  <SMR_VSA1>
19.909843

>  <SMR_VSA2>
6.2257819

>  <SMR_VSA3>
3.9819686

>  <SMR_VSA4>
5.0846677

>  <SMR_VSA5>
123.07346

>  <SMR_VSA6>
18.439579

>  <SMR_VSA7>
131.33994

>  <TPSA>
19.370001

>  <VAdjEq>
0.49991596

>  <VAdjMa>
5.4594316

>  <VDistEq>
2.8639245

>  <VDistMa>
8.3869162

>  <vdw_area>
304.58353

>  <vdw_vol>
401.20676

>  <vsa_acc>
5.6825762

>  <vsa_acid>
0

>  <vsa_base>
0

>  <vsa_don>
0

>  <vsa_hyd>
274.18628

>  <vsa_other>
11.190562

>  <vsa_pol>
5.6825762

>  <Weight>
285.41501

>  <weinerPath>
744

>  <weinerPol>
33

>  <zagreb>
106

$$$$