O[C@@H]1C[C@H](O)[C@H](CC=CCCCC(OC(C)C)=O)[C@H]1CC[C@@H](O)CCc1ccccc1
  MOE2013           2D

 31 32  0  0  1  0  0  0  0  0999 V2000
    0.0000    0.0000    0.0000 O   0  0  0  0  0  0  0  0  0  0  0  0
   -1.4640    0.3280    0.0000 C   0  0  2  0  0  0  0  0  0  0  0  0
   -2.5890   -0.6640    0.0000 C   0  0  0  0  0  0  0  0  0  0  0  0
   -3.8800    0.1000    0.0000 C   0  0  2  0  0  0  0  0  0  0  0  0
   -5.2570   -0.4950    0.0000 O   0  0  0  0  0  0  0  0  0  0  0  0
   -3.5520    1.5640    0.0000 C   0  0  2  0  0  0  0  0  0  0  0  0
   -4.5440    2.6900    0.0000 C   0  0  0  0  0  0  0  0  0  0  0  0
   -6.0140    2.3940    0.0000 C   0  0  0  0  0  0  0  0  0  0  0  0
   -7.0060    3.5190    0.0000 C   0  0  0  0  0  0  0  0  0  0  0  0
   -8.4760    3.2240    0.0000 C   0  0  0  0  0  0  0  0  0  0  0  0
   -9.4680    4.3490    0.0000 C   0  0  0  0  0  0  0  0  0  0  0  0
  -10.9380    4.0530    0.0000 C   0  0  0  0  0  0  0  0  0  0  0  0
  -11.9300    5.1790    0.0000 C   0  0  0  0  0  0  0  0  0  0  0  0
  -11.4510    6.6000    0.0000 O   0  0  0  0  0  0  0  0  0  0  0  0
  -12.4420    7.7260    0.0000 C   0  0  0  0  0  0  0  0  0  0  0  0
  -11.9630    9.1470    0.0000 C   0  0  0  0  0  0  0  0  0  0  0  0
  -13.9130    7.4300    0.0000 C   0  0  0  0  0  0  0  0  0  0  0  0
  -13.4000    4.8830    0.0000 O   0  0  0  0  0  0  0  0  0  0  0  0
   -2.0590    1.7050    0.0000 C   0  0  1  0  0  0  0  0  0  0  0  0
   -1.2950    2.9950    0.0000 C   0  0  0  0  0  0  0  0  0  0  0  0
    0.2050    2.9790    0.0000 C   0  0  0  0  0  0  0  0  0  0  0  0
    0.9690    4.2700    0.0000 C   0  0  1  0  0  0  0  0  0  0  0  0
    0.2330    5.5770    0.0000 O   0  0  0  0  0  0  0  0  0  0  0  0
    2.4690    4.2540    0.0000 C   0  0  0  0  0  0  0  0  0  0  0  0
    3.2330    5.5440    0.0000 C   0  0  0  0  0  0  0  0  0  0  0  0
    4.7330    5.5280    0.0000 C   0  0  0  0  0  0  0  0  0  0  0  0
    5.4970    6.8190    0.0000 C   0  0  0  0  0  0  0  0  0  0  0  0
    6.9970    6.8030    0.0000 C   0  0  0  0  0  0  0  0  0  0  0  0
    7.7330    5.4950    0.0000 C   0  0  0  0  0  0  0  0  0  0  0  0
    6.9690    4.2050    0.0000 C   0  0  0  0  0  0  0  0  0  0  0  0
    5.4690    4.2210    0.0000 C   0  0  0  0  0  0  0  0  0  0  0  0
  2  1  1  6  0  0  0
  2  3  1  0  0  0  0
  2 19  1  0  0  0  0
  3  4  1  0  0  0  0
  4  5  1  6  0  0  0
  4  6  1  0  0  0  0
  6  7  1  6  0  0  0
  6 19  1  0  0  0  0
  7  8  1  0  0  0  0
  8  9  2  3  0  0  0
  9 10  1  0  0  0  0
 10 11  1  0  0  0  0
 11 12  1  0  0  0  0
 12 13  1  0  0  0  0
 13 14  1  0  0  0  0
 13 18  2  0  0  0  0
 14 15  1  0  0  0  0
 15 16  1  0  0  0  0
 15 17  1  0  0  0  0
 19 20  1  1  0  0  0
 20 21  1  0  0  0  0
 21 22  1  0  0  0  0
 22 23  1  1  0  0  0
 22 24  1  0  0  0  0
 24 25  1  0  0  0  0
 25 26  1  0  0  0  0
 26 27  1  0  0  0  0
 26 31  2  0  0  0  0
 27 28  2  0  0  0  0
 28 29  1  0  0  0  0
 29 30  2  0  0  0  0
 30 31  1  0  0  0  0
M  END
>  <Index>
596

>  <ID>
HT1177

>  <class>
0

>  <apol>
76.441719

>  <ast_fraglike>
0

>  <ast_fraglike_ext>
0

>  <ast_violation>
3

>  <ast_violation_ext>
4

>  <a_acc>
4

>  <a_acid>
0

>  <a_aro>
6

>  <a_base>
0

>  <a_count>
71

>  <a_don>
3

>  <a_donacc>
7

>  <a_heavy>
31

>  <a_hyd>
25

>  <a_IC>
89.933846

>  <a_ICM>
1.2666739

>  <a_nB>
0

>  <a_nBr>
0

>  <a_nC>
26

>  <a_nCl>
0

>  <a_nF>
0

>  <a_nH>
40

>  <a_nI>
0

>  <a_nN>
0

>  <a_nO>
5

>  <a_nP>
0

>  <a_nS>
0

>  <balabanJ>
1.6101706

>  <BCUT_PEOE_0>
-2.7250938

>  <BCUT_PEOE_1>
-0.55104607

>  <BCUT_PEOE_2>
0.60633606

>  <BCUT_PEOE_3>
2.8463407

>  <BCUT_SLOGP_0>
-2.6949677

>  <BCUT_SLOGP_1>
-0.53166604

>  <BCUT_SLOGP_2>
0.64011157

>  <BCUT_SLOGP_3>
2.8564138

>  <BCUT_SMR_0>
-2.4866812

>  <BCUT_SMR_1>
-0.42600942

>  <BCUT_SMR_2>
0.73807818

>  <BCUT_SMR_3>
3.077765

>  <bpol>
46.60228

>  <b_1rotN>
13

>  <b_1rotR>
0.40625

>  <b_ar>
6

>  <b_count>
72

>  <b_double>
2

>  <b_heavy>
32

>  <b_max1len>
7

>  <b_rotN>
14

>  <b_rotR>
0.4375

>  <b_single>
64

>  <b_triple>
0

>  <chi0>
22.639618

>  <chi0v>
19.027653

>  <chi0v_C>
16.869514

>  <chi0_C>
17.93251

>  <chi1>
14.863081

>  <chi1v>
11.790358

>  <chi1v_C>
10.371811

>  <chi1_C>
11.737184

>  <chiral>
5

>  <chiral_u>
0

>  <density>
0.68119431

>  <diameter>
20

>  <FCharge>
0

>  <GCUT_PEOE_0>
-0.80562562

>  <GCUT_PEOE_1>
-0.35624647

>  <GCUT_PEOE_2>
0.075986229

>  <GCUT_PEOE_3>
2.9518681

>  <GCUT_SLOGP_0>
-0.8852514

>  <GCUT_SLOGP_1>
-0.30213574

>  <GCUT_SLOGP_2>
0.1040328

>  <GCUT_SLOGP_3>
3.0037458

>  <GCUT_SMR_0>
-0.53865898

>  <GCUT_SMR_1>
-0.21540181

>  <GCUT_SMR_2>
0.17010082

>  <GCUT_SMR_3>
3.1708219

>  <Kier1>
27.246094

>  <Kier2>
15.008924

>  <Kier3>
10.647352

>  <KierA1>
23.791595

>  <KierA2>
13.044061

>  <KierA3>
9.2214832

>  <KierFlex>
10.010936

>  <lip_acc>
5

>  <lip_don>
3

>  <lip_druglike>
1

>  <lip_violation>
0

>  <logP(o/w)>
4.3590002

>  <logS>
-4.2771602

>  <mr>
12.438911

>  <mutagenic>
0

>  <nmol>
1

>  <opr_brigid>
12

>  <opr_leadlike>
1

>  <opr_nring>
2

>  <opr_nrot>
14

>  <opr_violation>
1

>  <PC+>
0

>  <PC->
0

>  <PEOE_PC+>
2.5932789

>  <PEOE_PC->
-2.5932789

>  <PEOE_RPC+>
0.10118756

>  <PEOE_RPC->
0.15107363

>  <PEOE_VSA+0>
119.60135

>  <PEOE_VSA+1>
66.538963

>  <PEOE_VSA+2>
0

>  <PEOE_VSA+3>
0

>  <PEOE_VSA+4>
30.972517

>  <PEOE_VSA+5>
14.708499

>  <PEOE_VSA+6>
0

>  <PEOE_VSA-0>
109.3144

>  <PEOE_VSA-1>
85.784325

>  <PEOE_VSA-2>
0

>  <PEOE_VSA-3>
0

>  <PEOE_VSA-4>
0

>  <PEOE_VSA-5>
13.566921

>  <PEOE_VSA-6>
25.806377

>  <PEOE_VSA_FHYD>
0.81759483

>  <PEOE_VSA_FNEG>
0.50284231

>  <PEOE_VSA_FPNEG>
0.084438898

>  <PEOE_VSA_FPOL>
0.18240516

>  <PEOE_VSA_FPOS>
0.49715769

>  <PEOE_VSA_FPPOS>
0.097966261

>  <PEOE_VSA_HYD>
381.23904

>  <PEOE_VSA_NEG>
234.47203

>  <PEOE_VSA_PNEG>
39.373299

>  <PEOE_VSA_POL>
85.054314

>  <PEOE_VSA_POS>
231.82133

>  <PEOE_VSA_PPOS>
45.681019

>  <petitjean>
0.5

>  <petitjeanSC>
1

>  <Q_PC+>
0

>  <Q_PC->
0

>  <Q_RPC+>
0

>  <Q_RPC->
0

>  <Q_VSA_FHYD>
1

>  <Q_VSA_FNEG>
0

>  <Q_VSA_FPNEG>
0

>  <Q_VSA_FPOL>
0

>  <Q_VSA_FPOS>
1

>  <Q_VSA_FPPOS>
0

>  <Q_VSA_HYD>
466.29337

>  <Q_VSA_NEG>
0

>  <Q_VSA_PNEG>
0

>  <Q_VSA_POL>
0

>  <Q_VSA_POS>
466.29337

>  <Q_VSA_PPOS>
0

>  <radius>
10

>  <reactive>
0

>  <rings>
2

>  <RPC+>
0

>  <RPC->
0

>  <rsynth>
0.32258064

>  <SlogP>
4.1863699

>  <SlogP_VSA0>
76.155678

>  <SlogP_VSA1>
7.7454643

>  <SlogP_VSA2>
60.736702

>  <SlogP_VSA3>
0

>  <SlogP_VSA4>
12.007167

>  <SlogP_VSA5>
18.868406

>  <SlogP_VSA6>
0

>  <SlogP_VSA7>
123.50229

>  <SlogP_VSA8>
150.94725

>  <SlogP_VSA9>
66.652031

>  <SMR>
12.24504

>  <SMR_VSA0>
34.862103

>  <SMR_VSA1>
76.155678

>  <SMR_VSA2>
8.8215923

>  <SMR_VSA3>
29.060171

>  <SMR_VSA4>
0

>  <SMR_VSA5>
293.31793

>  <SMR_VSA6>
7.7454643

>  <SMR_VSA7>
66.652031

>  <TPSA>
86.989998

>  <VAdjEq>
0.35309514

>  <VAdjMa>
6

>  <VDistEq>
4.0842705

>  <VDistMa>
9.575408

>  <vdw_area>
466.29337

>  <vdw_vol>
635.06256

>  <vsa_acc>
13.566921

>  <vsa_acid>
0

>  <vsa_base>
0

>  <vsa_don>
0

>  <vsa_hyd>
352.21252

>  <vsa_other>
17.212255

>  <vsa_pol>
54.267685

>  <Weight>
432.60098

>  <weinerPath>
3531

>  <weinerPol>
39

>  <zagreb>
146

$$$$