Ic1c(CCC(O)=O)c(I)cc(I)c1N=CN(C)C
  MOE2013           2D

 19 19  0  0  0  0  0  0  0  0999 V2000
    0.0000    0.0000    0.0000 I   0  0  0  0  0  0  0  0  0  0  0  0
    0.0000   -1.5000    0.0000 C   0  0  0  0  0  0  0  0  0  0  0  0
    1.2990   -2.2500    0.0000 C   0  0  0  0  0  0  0  0  0  0  0  0
    2.5980   -1.5000    0.0000 C   0  0  0  0  0  0  0  0  0  0  0  0
    3.8970   -2.2500    0.0000 C   0  0  0  0  0  0  0  0  0  0  0  0
    5.1960   -1.5000    0.0000 C   0  0  0  0  0  0  0  0  0  0  0  0
    6.4950   -2.2500    0.0000 O   0  0  0  0  0  0  0  0  0  0  0  0
    5.1960    0.0000    0.0000 O   0  0  0  0  0  0  0  0  0  0  0  0
    1.2990   -3.7500    0.0000 C   0  0  0  0  0  0  0  0  0  0  0  0
    2.5980   -4.5000    0.0000 I   0  0  0  0  0  0  0  0  0  0  0  0
    0.0000   -4.5000    0.0000 C   0  0  0  0  0  0  0  0  0  0  0  0
   -1.2990   -3.7500    0.0000 C   0  0  0  0  0  0  0  0  0  0  0  0
   -2.5980   -4.5000    0.0000 I   0  0  0  0  0  0  0  0  0  0  0  0
   -1.2990   -2.2500    0.0000 C   0  0  0  0  0  0  0  0  0  0  0  0
   -2.5980   -1.5000    0.0000 N   0  0  0  0  0  0  0  0  0  0  0  0
   -3.8970   -2.2500    0.0000 C   0  0  0  0  0  0  0  0  0  0  0  0
   -5.1960   -1.5000    0.0000 N   0  0  0  0  0  0  0  0  0  0  0  0
   -5.1960    0.0000    0.0000 C   0  0  0  0  0  0  0  0  0  0  0  0
   -6.4950   -2.2500    0.0000 C   0  0  0  0  0  0  0  0  0  0  0  0
  1  2  1  0  0  0  0
  2  3  1  0  0  0  0
  2 14  2  0  0  0  0
  3  4  1  0  0  0  0
  3  9  2  0  0  0  0
  4  5  1  0  0  0  0
  5  6  1  0  0  0  0
  6  7  1  0  0  0  0
  6  8  2  0  0  0  0
  9 10  1  0  0  0  0
  9 11  1  0  0  0  0
 11 12  2  0  0  0  0
 12 13  1  0  0  0  0
 12 14  1  0  0  0  0
 14 15  1  0  0  0  0
 15 16  2  3  0  0  0
 16 17  1  0  0  0  0
 17 18  1  0  0  0  0
 17 19  1  0  0  0  0
M  END
>  <Index>
565

>  <ID>
HT1119

>  <class>
0

>  <apol>
49.642307

>  <ast_fraglike>
0

>  <ast_fraglike_ext>
0

>  <ast_violation>
2

>  <ast_violation_ext>
3

>  <a_acc>
3

>  <a_acid>
0

>  <a_aro>
6

>  <a_base>
0

>  <a_count>
32

>  <a_don>
2

>  <a_donacc>
5

>  <a_heavy>
19

>  <a_hyd>
13

>  <a_IC>
60.119846

>  <a_ICM>
1.8787452

>  <a_nB>
0

>  <a_nBr>
0

>  <a_nC>
12

>  <a_nCl>
0

>  <a_nF>
0

>  <a_nH>
13

>  <a_nI>
3

>  <a_nN>
2

>  <a_nO>
2

>  <a_nP>
0

>  <a_nS>
0

>  <balabanJ>
2.6190951

>  <BCUT_PEOE_0>
-2.4676261

>  <BCUT_PEOE_1>
-0.53849983

>  <BCUT_PEOE_2>
0.45717087

>  <BCUT_PEOE_3>
2.4604235

>  <BCUT_SLOGP_0>
-2.5493915

>  <BCUT_SLOGP_1>
-0.28878275

>  <BCUT_SLOGP_2>
0.77245492

>  <BCUT_SLOGP_3>
2.5065804

>  <BCUT_SMR_0>
-2.1754386

>  <BCUT_SMR_1>
-0.089361943

>  <BCUT_SMR_2>
1.0199277

>  <BCUT_SMR_3>
2.7447226

>  <bpol>
29.239691

>  <b_1rotN>
5

>  <b_1rotR>
0.2631579

>  <b_ar>
6

>  <b_count>
32

>  <b_double>
2

>  <b_heavy>
19

>  <b_max1len>
4

>  <b_rotN>
5

>  <b_rotR>
0.2631579

>  <b_single>
24

>  <b_triple>
0

>  <chi0>
14.576985

>  <chi0v>
16.925192

>  <chi0v_C>
7.5689139

>  <chi0_C>
8.2925291

>  <chi1>
8.824275

>  <chi1v>
8.6498137

>  <chi1v_C>
2.784457

>  <chi1_C>
3.4663265

>  <chiral>
0

>  <chiral_u>
0

>  <density>
1.4577371

>  <diameter>
10

>  <FCharge>
0

>  <GCUT_PEOE_0>
-0.87935048

>  <GCUT_PEOE_1>
-0.4322657

>  <GCUT_PEOE_2>
-0.0033924363

>  <GCUT_PEOE_3>
2.3272827

>  <GCUT_SLOGP_0>
-0.95912164

>  <GCUT_SLOGP_1>
-0.28607196

>  <GCUT_SLOGP_2>
0.25076884

>  <GCUT_SLOGP_3>
2.4666402

>  <GCUT_SMR_0>
-0.50204349

>  <GCUT_SMR_1>
-0.074093074

>  <GCUT_SMR_2>
0.39889503

>  <GCUT_SMR_3>
2.7319915

>  <Kier1>
17.052631

>  <Kier2>
7.6952662

>  <Kier3>
5.1199999

>  <KierA1>
22.009092

>  <KierA2>
10.072949

>  <KierA3>
6.7753291

>  <KierFlex>
11.668235

>  <lip_acc>
4

>  <lip_don>
1

>  <lip_druglike>
1

>  <lip_violation>
1

>  <logP(o/w)>
5.2779999

>  <logS>
-4.3593798

>  <mr>
10.307168

>  <mutagenic>
0

>  <nmol>
1

>  <opr_brigid>
7

>  <opr_leadlike>
1

>  <opr_nring>
1

>  <opr_nrot>
5

>  <opr_violation>
1

>  <PC+>
0

>  <PC->
0

>  <PEOE_PC+>
1.394981

>  <PEOE_PC->
-1.394981

>  <PEOE_RPC+>
0.18631202

>  <PEOE_RPC->
0.26369914

>  <PEOE_VSA+0>
106.95284

>  <PEOE_VSA+1>
32.201862

>  <PEOE_VSA+2>
4.2653861

>  <PEOE_VSA+3>
0

>  <PEOE_VSA+4>
10.324173

>  <PEOE_VSA+5>
14.708499

>  <PEOE_VSA+6>
0

>  <PEOE_VSA-0>
164.1348

>  <PEOE_VSA-1>
0

>  <PEOE_VSA-2>
0

>  <PEOE_VSA-3>
0

>  <PEOE_VSA-4>
5.6825762

>  <PEOE_VSA-5>
13.566921

>  <PEOE_VSA-6>
7.7675405

>  <PEOE_VSA_FHYD>
0.85525852

>  <PEOE_VSA_FNEG>
0.53156114

>  <PEOE_VSA_FPNEG>
0.075129844

>  <PEOE_VSA_FPOL>
0.14474151

>  <PEOE_VSA_FPOS>
0.46843883

>  <PEOE_VSA_FPPOS>
0.069611661

>  <PEOE_VSA_HYD>
307.55487

>  <PEOE_VSA_NEG>
191.15184

>  <PEOE_VSA_PNEG>
27.017036

>  <PEOE_VSA_POL>
52.049709

>  <PEOE_VSA_POS>
168.45276

>  <PEOE_VSA_PPOS>
25.032671

>  <petitjean>
0.5

>  <petitjeanSC>
1

>  <Q_PC+>
0

>  <Q_PC->
0

>  <Q_RPC+>
0

>  <Q_RPC->
0

>  <Q_VSA_FHYD>
1

>  <Q_VSA_FNEG>
0

>  <Q_VSA_FPNEG>
0

>  <Q_VSA_FPOL>
0

>  <Q_VSA_FPOS>
1

>  <Q_VSA_FPPOS>
0

>  <Q_VSA_HYD>
359.60458

>  <Q_VSA_NEG>
0

>  <Q_VSA_PNEG>
0

>  <Q_VSA_POL>
0

>  <Q_VSA_POS>
359.60458

>  <Q_VSA_PPOS>
0

>  <radius>
5

>  <reactive>
0

>  <rings>
1

>  <RPC+>
0

>  <RPC->
0

>  <rsynth>
0.21052632

>  <SlogP>
3.73897

>  <SlogP_VSA0>
0

>  <SlogP_VSA1>
10.869778

>  <SlogP_VSA2>
45.626675

>  <SlogP_VSA3>
25.385227

>  <SlogP_VSA4>
3.185575

>  <SlogP_VSA5>
101.44831

>  <SlogP_VSA6>
0

>  <SlogP_VSA7>
17.643185

>  <SlogP_VSA8>
18.868406

>  <SlogP_VSA9>
173.10277

>  <SMR>
10.23888

>  <SMR_VSA0>
23.862217

>  <SMR_VSA1>
19.909843

>  <SMR_VSA2>
30.364155

>  <SMR_VSA3>
3.185575

>  <SMR_VSA4>
2.7567475

>  <SMR_VSA5>
55.379993

>  <SMR_VSA6>
7.7454643

>  <SMR_VSA7>
252.92593

>  <TPSA>
52.900002

>  <VAdjEq>
0.48546076

>  <VAdjMa>
5.2479277

>  <VDistEq>
3.1073337

>  <VDistMa>
8.2051382

>  <vdw_area>
359.60458

>  <vdw_vol>
410.19742

>  <vsa_acc>
5.6825762

>  <vsa_acid>
0

>  <vsa_base>
0

>  <vsa_don>
0

>  <vsa_hyd>
274.22281

>  <vsa_other>
39.499016

>  <vsa_pol>
32.816418

>  <Weight>
597.96002

>  <weinerPath>
732

>  <weinerPol>
27

>  <zagreb>
90

$$$$