OC(=O)C=C(C=CC=C(C=CC=1C(CCCC=1C)(C)C)/C)/C
  MOE2013           2D

 22 22  0  0  0  0  0  0  0  0999 V2000
    0.0000    0.0000    0.0000 O   0  0  0  0  0  0  0  0  0  0  0  0
   -1.2990   -0.7510    0.0000 C   0  0  0  0  0  0  0  0  0  0  0  0
   -1.2980   -2.2510    0.0000 O   0  0  0  0  0  0  0  0  0  0  0  0
   -2.5980   -0.0010    0.0000 C   0  0  0  0  0  0  0  0  0  0  0  0
   -3.8970   -0.7520    0.0000 C   0  0  0  0  0  0  0  0  0  0  0  0
   -5.1960   -0.0020    0.0000 C   0  0  0  0  0  0  0  0  0  0  0  0
   -6.4950   -0.7530    0.0000 C   0  0  0  0  0  0  0  0  0  0  0  0
   -7.7940   -0.0030    0.0000 C   0  0  0  0  0  0  0  0  0  0  0  0
   -9.0930   -0.7540    0.0000 C   0  0  0  0  0  0  0  0  0  0  0  0
  -10.3920   -0.0040    0.0000 C   0  0  0  0  0  0  0  0  0  0  0  0
  -11.6910   -0.7550    0.0000 C   0  0  0  0  0  0  0  0  0  0  0  0
  -12.9900   -0.0050    0.0000 C   0  0  0  0  0  0  0  0  0  0  0  0
  -14.2890   -0.7560    0.0000 C   0  0  0  0  0  0  0  0  0  0  0  0
  -15.5880   -0.0070    0.0000 C   0  0  0  0  0  0  0  0  0  0  0  0
  -15.5890    1.4930    0.0000 C   0  0  0  0  0  0  0  0  0  0  0  0
  -14.2900    2.2440    0.0000 C   0  0  0  0  0  0  0  0  0  0  0  0
  -12.9910    1.4950    0.0000 C   0  0  0  0  0  0  0  0  0  0  0  0
  -11.6920    2.2450    0.0000 C   0  0  0  0  0  0  0  0  0  0  0  0
  -15.0390   -2.0550    0.0000 C   0  0  0  0  0  0  0  0  0  0  0  0
  -13.5390   -2.0550    0.0000 C   0  0  0  0  0  0  0  0  0  0  0  0
   -9.0920   -2.2540    0.0000 C   0  0  0  0  0  0  0  0  0  0  0  0
   -3.8960   -2.2520    0.0000 C   0  0  0  0  0  0  0  0  0  0  0  0
  1  2  1  0  0  0  0
  2  3  2  0  0  0  0
  2  4  1  0  0  0  0
  4  5  2  3  0  0  0
  5  6  1  0  0  0  0
  5 22  1  0  0  0  0
  6  7  2  3  0  0  0
  7  8  1  0  0  0  0
  8  9  2  3  0  0  0
  9 10  1  0  0  0  0
  9 21  1  0  0  0  0
 10 11  2  3  0  0  0
 11 12  1  0  0  0  0
 12 13  1  0  0  0  0
 12 17  2  0  0  0  0
 13 14  1  0  0  0  0
 13 19  1  0  0  0  0
 13 20  1  0  0  0  0
 14 15  1  0  0  0  0
 15 16  1  0  0  0  0
 16 17  1  0  0  0  0
 17 18  1  0  0  0  0
M  END
>  <Index>
578

>  <ID>
HT1143

>  <class>
0

>  <apol>
55.474205

>  <ast_fraglike>
0

>  <ast_fraglike_ext>
0

>  <ast_violation>
2

>  <ast_violation_ext>
3

>  <a_acc>
2

>  <a_acid>
0

>  <a_aro>
0

>  <a_base>
0

>  <a_count>
50

>  <a_don>
2

>  <a_donacc>
4

>  <a_heavy>
22

>  <a_hyd>
19

>  <a_IC>
59.148312

>  <a_ICM>
1.1829662

>  <a_nB>
0

>  <a_nBr>
0

>  <a_nC>
20

>  <a_nCl>
0

>  <a_nF>
0

>  <a_nH>
28

>  <a_nI>
0

>  <a_nN>
0

>  <a_nO>
2

>  <a_nP>
0

>  <a_nS>
0

>  <balabanJ>
2.2387111

>  <BCUT_PEOE_0>
-2.7535243

>  <BCUT_PEOE_1>
-0.32758361

>  <BCUT_PEOE_2>
0.29301319

>  <BCUT_PEOE_3>
2.6964064

>  <BCUT_SLOGP_0>
-2.6118655

>  <BCUT_SLOGP_1>
-0.21760756

>  <BCUT_SLOGP_2>
0.29425076

>  <BCUT_SLOGP_3>
2.8409042

>  <BCUT_SMR_0>
-2.4876893

>  <BCUT_SMR_1>
-0.15278652

>  <BCUT_SMR_2>
0.44117078

>  <BCUT_SMR_3>
2.9671443

>  <bpol>
31.567797

>  <b_1rotN>
5

>  <b_1rotR>
0.22727273

>  <b_ar>
0

>  <b_count>
50

>  <b_double>
6

>  <b_heavy>
22

>  <b_max1len>
4

>  <b_rotN>
5

>  <b_rotR>
0.22727273

>  <b_single>
44

>  <b_triple>
0

>  <chi0>
16.750711

>  <chi0v>
14.440884

>  <chi0v_C>
13.585422

>  <chi0_C>
14.750712

>  <chi1>
10.220051

>  <chi1v>
7.8668885

>  <chi1v_C>
7.4391575

>  <chi1_C>
9.0653505

>  <chiral>
0

>  <chiral_u>
0

>  <density>
0.64090729

>  <diameter>
13

>  <FCharge>
0

>  <GCUT_PEOE_0>
-0.79075187

>  <GCUT_PEOE_1>
-0.33819714

>  <GCUT_PEOE_2>
-0.037348751

>  <GCUT_PEOE_3>
2.7184365

>  <GCUT_SLOGP_0>
-0.87133306

>  <GCUT_SLOGP_1>
-0.22017395

>  <GCUT_SLOGP_2>
0.0075264606

>  <GCUT_SLOGP_3>
2.8658462

>  <GCUT_SMR_0>
-0.5274483

>  <GCUT_SMR_1>
-0.14690515

>  <GCUT_SMR_2>
0.11056604

>  <GCUT_SMR_3>
2.9791648

>  <Kier1>
20.045454

>  <Kier2>
9.333333

>  <Kier3>
7.421875

>  <KierA1>
15.863108

>  <KierA2>
7.2978487

>  <KierA3>
5.7528749

>  <KierFlex>
5.2621164

>  <lip_acc>
2

>  <lip_don>
1

>  <lip_druglike>
1

>  <lip_violation>
1

>  <logP(o/w)>
4.6290002

>  <logS>
-7.5974302

>  <mr>
9.2418985

>  <mutagenic>
0

>  <nmol>
1

>  <opr_brigid>
10

>  <opr_leadlike>
1

>  <opr_nring>
1

>  <opr_nrot>
6

>  <opr_violation>
1

>  <PC+>
0

>  <PC->
0

>  <PEOE_PC+>
1.4575478

>  <PEOE_PC->
-1.4575478

>  <PEOE_RPC+>
0.19502613

>  <PEOE_RPC->
0.22498256

>  <PEOE_VSA+0>
101.82801

>  <PEOE_VSA+1>
25.592316

>  <PEOE_VSA+2>
0

>  <PEOE_VSA+3>
0

>  <PEOE_VSA+4>
10.324173

>  <PEOE_VSA+5>
14.708499

>  <PEOE_VSA+6>
0

>  <PEOE_VSA-0>
86.764053

>  <PEOE_VSA-1>
103.18695

>  <PEOE_VSA-2>
0

>  <PEOE_VSA-3>
0

>  <PEOE_VSA-4>
0

>  <PEOE_VSA-5>
13.566921

>  <PEOE_VSA-6>
7.7675405

>  <PEOE_VSA_FHYD>
0.87252617

>  <PEOE_VSA_FNEG>
0.58087194

>  <PEOE_VSA_FPNEG>
0.058653299

>  <PEOE_VSA_FPOL>
0.12747383

>  <PEOE_VSA_FPOS>
0.41912806

>  <PEOE_VSA_FPPOS>
0.068820521

>  <PEOE_VSA_HYD>
317.37134

>  <PEOE_VSA_NEG>
211.28546

>  <PEOE_VSA_PNEG>
21.334461

>  <PEOE_VSA_POL>
46.367134

>  <PEOE_VSA_POS>
152.453

>  <PEOE_VSA_PPOS>
25.032671

>  <petitjean>
0.46153846

>  <petitjeanSC>
0.85714287

>  <Q_PC+>
0

>  <Q_PC->
0

>  <Q_RPC+>
0

>  <Q_RPC->
0

>  <Q_VSA_FHYD>
1

>  <Q_VSA_FNEG>
0

>  <Q_VSA_FPNEG>
0

>  <Q_VSA_FPOL>
0

>  <Q_VSA_FPOS>
1

>  <Q_VSA_FPPOS>
0

>  <Q_VSA_HYD>
363.73846

>  <Q_VSA_NEG>
0

>  <Q_VSA_PNEG>
0

>  <Q_VSA_POL>
0

>  <Q_VSA_POS>
363.73846

>  <Q_VSA_PPOS>
0

>  <radius>
7

>  <reactive>
0

>  <rings>
1

>  <RPC+>
0

>  <RPC->
0

>  <rsynth>
1

>  <SlogP>
5.6026001

>  <SlogP_VSA0>
0

>  <SlogP_VSA1>
7.7454643

>  <SlogP_VSA2>
23.862217

>  <SlogP_VSA3>
25.385227

>  <SlogP_VSA4>
0

>  <SlogP_VSA5>
12.7423

>  <SlogP_VSA6>
0

>  <SlogP_VSA7>
105.85911

>  <SlogP_VSA8>
56.605217

>  <SlogP_VSA9>
166.63008

>  <SMR>
9.3761797

>  <SMR_VSA0>
23.862217

>  <SMR_VSA1>
0

>  <SMR_VSA2>
25.385227

>  <SMR_VSA3>
12.7423

>  <SMR_VSA4>
0

>  <SMR_VSA5>
162.46432

>  <SMR_VSA6>
7.7454643

>  <SMR_VSA7>
166.63008

>  <TPSA>
37.299999

>  <VAdjEq>
0.43949699

>  <VAdjMa>
5.4594316

>  <VDistEq>
3.5459259

>  <VDistMa>
8.5815639

>  <vdw_area>
363.73846

>  <vdw_vol>
468.77606

>  <vsa_acc>
0

>  <vsa_acid>
0

>  <vsa_base>
0

>  <vsa_don>
0

>  <vsa_hyd>
298.15286

>  <vsa_other>
14.708499

>  <vsa_pol>
27.133842

>  <Weight>
300.44199

>  <weinerPath>
1278

>  <weinerPol>
29

>  <zagreb>
104

$$$$