Clc1cc(Cl)ccc1[C@@]1(O[C@H](CO1)COc1ccc(N2CCN(CC2)C(=O)C)cc1)Cn1ccnc1
  MOE2013           2D

 36 40  0  0  1  0  0  0  0  0999 V2000
    0.0000    0.0000    0.0000 Cl  0  0  0  0  0  0  0  0  0  0  0  0
   -1.5000    0.0040    0.0000 C   0  0  0  0  0  0  0  0  0  0  0  0
   -2.2470    1.3040    0.0000 C   0  0  0  0  0  0  0  0  0  0  0  0
   -3.7470    1.3080    0.0000 C   0  0  0  0  0  0  0  0  0  0  0  0
   -4.4940    2.6090    0.0000 Cl  0  0  0  0  0  0  0  0  0  0  0  0
   -4.5000    0.0110    0.0000 C   0  0  0  0  0  0  0  0  0  0  0  0
   -3.7530   -1.2900    0.0000 C   0  0  0  0  0  0  0  0  0  0  0  0
   -2.2530   -1.2940    0.0000 C   0  0  0  0  0  0  0  0  0  0  0  0
   -1.5060   -2.5950    0.0000 C   0  0  2  0  0  0  0  0  0  0  0  0
   -0.1240   -2.0120    0.0000 O   0  0  0  0  0  0  0  0  0  0  0  0
    0.8570   -3.1460    0.0000 C   0  0  2  0  0  0  0  0  0  0  0  0
    0.0820   -4.4300    0.0000 C   0  0  0  0  0  0  0  0  0  0  0  0
   -1.3790   -4.0890    0.0000 O   0  0  0  0  0  0  0  0  0  0  0  0
    2.3520   -3.0190    0.0000 C   0  0  0  0  0  0  0  0  0  0  0  0
    3.2100   -4.2500    0.0000 O   0  0  0  0  0  0  0  0  0  0  0  0
    4.7040   -4.1220    0.0000 C   0  0  0  0  0  0  0  0  0  0  0  0
    5.3410   -2.7640    0.0000 C   0  0  0  0  0  0  0  0  0  0  0  0
    6.8360   -2.6370    0.0000 C   0  0  0  0  0  0  0  0  0  0  0  0
    7.6930   -3.8680    0.0000 C   0  0  0  0  0  0  0  0  0  0  0  0
    9.1880   -3.7410    0.0000 N   0  0  0  0  0  0  0  0  0  0  0  0
   10.0450   -4.9710    0.0000 C   0  0  0  0  0  0  0  0  0  0  0  0
   11.5400   -4.8440    0.0000 C   0  0  0  0  0  0  0  0  0  0  0  0
   12.1770   -3.4860    0.0000 N   0  0  0  0  0  0  0  0  0  0  0  0
   11.3200   -2.2560    0.0000 C   0  0  0  0  0  0  0  0  0  0  0  0
    9.8250   -2.3830    0.0000 C   0  0  0  0  0  0  0  0  0  0  0  0
   13.6720   -3.3590    0.0000 C   0  0  0  0  0  0  0  0  0  0  0  0
   14.5290   -4.5900    0.0000 O   0  0  0  0  0  0  0  0  0  0  0  0
   14.3090   -2.0010    0.0000 C   0  0  0  0  0  0  0  0  0  0  0  0
    7.0560   -5.2260    0.0000 C   0  0  0  0  0  0  0  0  0  0  0  0
    5.5620   -5.3530    0.0000 C   0  0  0  0  0  0  0  0  0  0  0  0
   -3.0050   -2.6430    0.0000 C   0  0  0  0  0  0  0  0  0  0  0  0
   -3.7130   -3.9660    0.0000 N   0  0  0  0  0  0  0  0  0  0  0  0
   -3.0580   -5.3160    0.0000 C   0  0  0  0  0  0  0  0  0  0  0  0
   -4.1400   -6.3550    0.0000 C   0  0  0  0  0  0  0  0  0  0  0  0
   -5.4620   -5.6480    0.0000 N   0  0  0  0  0  0  0  0  0  0  0  0
   -5.1990   -4.1710    0.0000 C   0  0  0  0  0  0  0  0  0  0  0  0
  1  2  1  0  0  0  0
  2  3  2  0  0  0  0
  2  8  1  0  0  0  0
  3  4  1  0  0  0  0
  4  5  1  0  0  0  0
  4  6  2  0  0  0  0
  6  7  1  0  0  0  0
  7  8  2  0  0  0  0
  9  8  1  6  0  0  0
  9 10  1  0  0  0  0
  9 13  1  0  0  0  0
  9 31  1  1  0  0  0
 10 11  1  0  0  0  0
 11 12  1  0  0  0  0
 11 14  1  1  0  0  0
 12 13  1  0  0  0  0
 14 15  1  0  0  0  0
 15 16  1  0  0  0  0
 16 17  1  0  0  0  0
 16 30  2  0  0  0  0
 17 18  2  0  0  0  0
 18 19  1  0  0  0  0
 19 20  1  0  0  0  0
 19 29  2  0  0  0  0
 20 21  1  0  0  0  0
 20 25  1  0  0  0  0
 21 22  1  0  0  0  0
 22 23  1  0  0  0  0
 23 24  1  0  0  0  0
 23 26  1  0  0  0  0
 24 25  1  0  0  0  0
 26 27  2  0  0  0  0
 26 28  1  0  0  0  0
 29 30  1  0  0  0  0
 31 32  1  0  0  0  0
 32 33  1  0  0  0  0
 32 36  1  0  0  0  0
 33 34  2  0  0  0  0
 34 35  1  0  0  0  0
 35 36  2  0  0  0  0
M  END
>  <Index>
588

>  <ID>
HT1159

>  <class>
0

>  <apol>
76.398201

>  <ast_fraglike>
0

>  <ast_fraglike_ext>
0

>  <ast_violation>
3

>  <ast_violation_ext>
4

>  <a_acc>
5

>  <a_acid>
0

>  <a_aro>
17

>  <a_base>
0

>  <a_count>
64

>  <a_don>
0

>  <a_donacc>
5

>  <a_heavy>
36

>  <a_hyd>
25

>  <a_IC>
109.18263

>  <a_ICM>
1.7059786

>  <a_nB>
0

>  <a_nBr>
0

>  <a_nC>
26

>  <a_nCl>
2

>  <a_nF>
0

>  <a_nH>
28

>  <a_nI>
0

>  <a_nN>
4

>  <a_nO>
4

>  <a_nP>
0

>  <a_nS>
0

>  <balabanJ>
1.0890385

>  <BCUT_PEOE_0>
-2.7241893

>  <BCUT_PEOE_1>
-0.63996249

>  <BCUT_PEOE_2>
0.68742931

>  <BCUT_PEOE_3>
2.6981297

>  <BCUT_SLOGP_0>
-2.8588212

>  <BCUT_SLOGP_1>
-0.48085546

>  <BCUT_SLOGP_2>
0.80591482

>  <BCUT_SLOGP_3>
2.6992028

>  <BCUT_SMR_0>
-2.428977

>  <BCUT_SMR_1>
-0.4067744

>  <BCUT_SMR_2>
0.85431087

>  <BCUT_SMR_3>
2.9303765

>  <bpol>
45.415794

>  <b_1rotN>
8

>  <b_1rotR>
0.2

>  <b_ar>
17

>  <b_count>
68

>  <b_double>
1

>  <b_heavy>
40

>  <b_max1len>
3

>  <b_rotN>
8

>  <b_rotR>
0.2

>  <b_single>
50

>  <b_triple>
0

>  <chi0>
25.122746

>  <chi0v>
21.490234

>  <chi0v_C>
15.8006

>  <chi0_C>
17.562267

>  <chi1>
17.415453

>  <chi1v>
12.637375

>  <chi1v_C>
6.8127842

>  <chi1_C>
8.6353951

>  <chiral>
2

>  <chiral_u>
0

>  <density>
0.79736197

>  <diameter>
19

>  <FCharge>
0

>  <GCUT_PEOE_0>
-0.84790081

>  <GCUT_PEOE_1>
-0.3979997

>  <GCUT_PEOE_2>
0.059161883

>  <GCUT_PEOE_3>
2.8004856

>  <GCUT_SLOGP_0>
-0.98677152

>  <GCUT_SLOGP_1>
-0.30917606

>  <GCUT_SLOGP_2>
0.16445385

>  <GCUT_SLOGP_3>
2.8633776

>  <GCUT_SMR_0>
-0.51913023

>  <GCUT_SMR_1>
-0.18947332

>  <GCUT_SMR_2>
0.22158597

>  <GCUT_SMR_3>
3.0565557

>  <Kier1>
27.5625

>  <Kier2>
12.453062

>  <Kier3>
6.7818666

>  <KierA1>
23.103285

>  <KierA2>
10.383147

>  <KierA3>
5.6336322

>  <KierFlex>
6.6634669

>  <lip_acc>
8

>  <lip_don>
0

>  <lip_druglike>
1

>  <lip_violation>
1

>  <logP(o/w)>
4.0300002

>  <logS>
-5.6045799

>  <mr>
13.972563

>  <mutagenic>
0

>  <nmol>
1

>  <opr_brigid>
28

>  <opr_leadlike>
0

>  <opr_nring>
5

>  <opr_nrot>
10

>  <opr_violation>
3

>  <PC+>
0

>  <PC->
0

>  <PEOE_PC+>
2.905144

>  <PEOE_PC->
-2.905144

>  <PEOE_RPC+>
0.075891376

>  <PEOE_RPC->
0.1177429

>  <PEOE_VSA+0>
148.29434

>  <PEOE_VSA+1>
162.61783

>  <PEOE_VSA+2>
9.1703148

>  <PEOE_VSA+3>
0

>  <PEOE_VSA+4>
14.058075

>  <PEOE_VSA+5>
0

>  <PEOE_VSA+6>
0

>  <PEOE_VSA-0>
73.529427

>  <PEOE_VSA-1>
71.4188

>  <PEOE_VSA-2>
0

>  <PEOE_VSA-3>
0

>  <PEOE_VSA-4>
5.6825762

>  <PEOE_VSA-5>
13.566921

>  <PEOE_VSA-6>
7.5112681

>  <PEOE_VSA_FHYD>
0.91930634

>  <PEOE_VSA_FNEG>
0.33944675

>  <PEOE_VSA_FPNEG>
0.052902617

>  <PEOE_VSA_FPOL>
0.08069364

>  <PEOE_VSA_FPOS>
0.66055322

>  <PEOE_VSA_FPPOS>
0.027791021

>  <PEOE_VSA_HYD>
465.0307

>  <PEOE_VSA_NEG>
171.70898

>  <PEOE_VSA_PNEG>
26.760765

>  <PEOE_VSA_POL>
40.81884

>  <PEOE_VSA_POS>
334.14056

>  <PEOE_VSA_PPOS>
14.058075

>  <petitjean>
0.47368422

>  <petitjeanSC>
0.89999998

>  <Q_PC+>
0

>  <Q_PC->
0

>  <Q_RPC+>
0

>  <Q_RPC->
0

>  <Q_VSA_FHYD>
1

>  <Q_VSA_FNEG>
0

>  <Q_VSA_FPNEG>
0

>  <Q_VSA_FPOL>
0

>  <Q_VSA_FPOS>
1

>  <Q_VSA_FPPOS>
0

>  <Q_VSA_HYD>
505.84955

>  <Q_VSA_NEG>
0

>  <Q_VSA_PNEG>
0

>  <Q_VSA_POL>
0

>  <Q_VSA_POS>
505.84955

>  <Q_VSA_PPOS>
0

>  <radius>
10

>  <reactive>
1

>  <rings>
5

>  <RPC+>
0

>  <RPC->
0

>  <rsynth>
1

>  <SlogP>
4.7837

>  <SlogP_VSA0>
14.124202

>  <SlogP_VSA1>
27.06772

>  <SlogP_VSA2>
52.330643

>  <SlogP_VSA3>
115.61083

>  <SlogP_VSA4>
3.185575

>  <SlogP_VSA5>
0

>  <SlogP_VSA6>
7.0012131

>  <SlogP_VSA7>
174.71654

>  <SlogP_VSA8>
0

>  <SlogP_VSA9>
138.06305

>  <SMR>
13.7918

>  <SMR_VSA0>
45.861992

>  <SMR_VSA1>
32.808823

>  <SMR_VSA2>
3.1243138

>  <SMR_VSA3>
21.898865

>  <SMR_VSA4>
2.7567475

>  <SMR_VSA5>
193.15611

>  <SMR_VSA6>
120.86961

>  <SMR_VSA7>
111.62331

>  <TPSA>
69.059998

>  <VAdjEq>
0.33426812

>  <VAdjMa>
6.321928

>  <VDistEq>
4.0425887

>  <VDistMa>
10.01379

>  <vdw_area>
505.84955

>  <vdw_vol>
666.4978

>  <vsa_acc>
26.760765

>  <vsa_acid>
0

>  <vsa_base>
0

>  <vsa_don>
0

>  <vsa_hyd>
420.30991

>  <vsa_other>
38.848595

>  <vsa_pol>
26.760765

>  <Weight>
531.44

>  <weinerPath>
4692

>  <weinerPol>
56

>  <zagreb>
194

$$$$