ClCC(=O)[C@@]12OC(O[C@@H]1C[C@H]1[C@@H]3CCC4=CC(=O)CC[C@]4(C)[C@@]3(F)[C@@H](O)C[C@@]12C)(C)C
  MOE2013           2D

 31 35  0  0  1  0  0  0  0  0999 V2000
    0.0000    0.0000    0.0000 Cl  0  0  0  0  0  0  0  0  0  0  0  0
    0.7500    1.2990    0.0000 C   0  0  0  0  0  0  0  0  0  0  0  0
    2.2500    1.3000    0.0000 C   0  0  0  0  0  0  0  0  0  0  0  0
    3.0000    0.0010    0.0000 O   0  0  0  0  0  0  0  0  0  0  0  0
    2.9990    2.5990    0.0000 C   0  0  1  0  0  0  0  0  0  0  0  0
    1.5180    2.3640    0.0000 O   0  0  0  0  0  0  0  0  0  0  0  0
    0.8370    3.7000    0.0000 C   0  0  0  0  0  0  0  0  0  0  0  0
    1.8970    4.7610    0.0000 O   0  0  0  0  0  0  0  0  0  0  0  0
    3.2340    4.0800    0.0000 C   0  0  2  0  0  0  0  0  0  0  0  0
    4.7150    4.3150    0.0000 C   0  0  0  0  0  0  0  0  0  0  0  0
    5.3970    2.9790    0.0000 C   0  0  1  0  0  0  0  0  0  0  0  0
    6.8460    2.5910    0.0000 C   0  0  2  0  0  0  0  0  0  0  0  0
    7.9060    3.6520    0.0000 C   0  0  0  0  0  0  0  0  0  0  0  0
    9.3550    3.2640    0.0000 C   0  0  0  0  0  0  0  0  0  0  0  0
    9.7430    1.8150    0.0000 C   0  0  0  0  0  0  0  0  0  0  0  0
   11.1920    1.4270    0.0000 C   0  0  0  0  0  0  0  0  0  0  0  0
   11.5810   -0.0220    0.0000 C   0  0  0  0  0  0  0  0  0  0  0  0
   13.0300   -0.4090    0.0000 O   0  0  0  0  0  0  0  0  0  0  0  0
   10.5210   -1.0820    0.0000 C   0  0  0  0  0  0  0  0  0  0  0  0
    9.0720   -0.6950    0.0000 C   0  0  0  0  0  0  0  0  0  0  0  0
    8.6830    0.7540    0.0000 C   0  0  1  0  0  0  0  0  0  0  0  0
    7.6230   -0.3070    0.0000 C   0  0  0  0  0  0  0  0  0  0  0  0
    7.2340    1.1420    0.0000 C   0  0  2  0  0  0  0  0  0  0  0  0
    5.7850    1.5300    0.0000 F   0  0  0  0  0  0  0  0  0  0  0  0
    6.1740    0.0810    0.0000 C   0  0  1  0  0  0  0  0  0  0  0  0
    6.5620   -1.3680    0.0000 O   0  0  0  0  0  0  0  0  0  0  0  0
    4.7250    0.4690    0.0000 C   0  0  0  0  0  0  0  0  0  0  0  0
    4.3360    1.9180    0.0000 C   0  0  2  0  0  0  0  0  0  0  0  0
    3.3720    0.7690    0.0000 C   0  0  0  0  0  0  0  0  0  0  0  0
   -0.5610    3.1560    0.0000 C   0  0  0  0  0  0  0  0  0  0  0  0
   -0.2910    4.6890    0.0000 C   0  0  0  0  0  0  0  0  0  0  0  0
  1  2  1  0  0  0  0
  2  3  1  0  0  0  0
  3  4  2  0  0  0  0
  5  3  1  1  0  0  0
  5  6  1  0  0  0  0
  5  9  1  0  0  0  0
  5 28  1  0  0  0  0
  6  7  1  0  0  0  0
  7  8  1  0  0  0  0
  7 30  1  0  0  0  0
  7 31  1  0  0  0  0
  9  8  1  6  0  0  0
  9 10  1  0  0  0  0
 11 10  1  1  0  0  0
 11 12  1  0  0  0  0
 11 28  1  0  0  0  0
 12 13  1  6  0  0  0
 12 23  1  0  0  0  0
 13 14  1  0  0  0  0
 14 15  1  0  0  0  0
 15 16  2  0  0  0  0
 15 21  1  0  0  0  0
 16 17  1  0  0  0  0
 17 18  2  0  0  0  0
 17 19  1  0  0  0  0
 19 20  1  0  0  0  0
 20 21  1  0  0  0  0
 21 22  1  1  0  0  0
 21 23  1  0  0  0  0
 23 24  1  6  0  0  0
 23 25  1  0  0  0  0
 25 26  1  1  0  0  0
 25 27  1  0  0  0  0
 27 28  1  0  0  0  0
 28 29  1  1  0  0  0
M  END
>  <Index>
510

>  <ID>
HT1014

>  <class>
0

>  <apol>
70.324379

>  <ast_fraglike>
0

>  <ast_fraglike_ext>
0

>  <ast_violation>
3

>  <ast_violation_ext>
3

>  <a_acc>
5

>  <a_acid>
0

>  <a_aro>
0

>  <a_base>
0

>  <a_count>
63

>  <a_don>
1

>  <a_donacc>
6

>  <a_heavy>
31

>  <a_hyd>
23

>  <a_IC>
94.919891

>  <a_ICM>
1.506665

>  <a_nB>
0

>  <a_nBr>
0

>  <a_nC>
24

>  <a_nCl>
1

>  <a_nF>
1

>  <a_nH>
32

>  <a_nI>
0

>  <a_nN>
0

>  <a_nO>
5

>  <a_nP>
0

>  <a_nS>
0

>  <balabanJ>
1.5858617

>  <BCUT_PEOE_0>
-2.9152937

>  <BCUT_PEOE_1>
-0.43693069

>  <BCUT_PEOE_2>
0.34351304

>  <BCUT_PEOE_3>
3.0223341

>  <BCUT_SLOGP_0>
-2.93255

>  <BCUT_SLOGP_1>
-0.34486142

>  <BCUT_SLOGP_2>
0.48901176

>  <BCUT_SLOGP_3>
3.0012138

>  <BCUT_SMR_0>
-2.6888111

>  <BCUT_SMR_1>
-0.23039967

>  <BCUT_SMR_2>
0.58093286

>  <BCUT_SMR_3>
3.2419176

>  <bpol>
42.353622

>  <b_1rotN>
2

>  <b_1rotR>
0.057142857

>  <b_ar>
0

>  <b_count>
67

>  <b_double>
3

>  <b_heavy>
35

>  <b_max1len>
4

>  <b_rotN>
2

>  <b_rotR>
0.057142857

>  <b_single>
64

>  <b_triple>
0

>  <chi0>
22.61252

>  <chi0v>
19.428564

>  <chi0v_C>
15.836499

>  <chi0_C>
16.198307

>  <chi1>
14.354792

>  <chi1v>
11.971432

>  <chi1v_C>
9.4661446

>  <chi1_C>
9.9467258

>  <chiral>
8

>  <chiral_u>
0

>  <density>
0.7897138

>  <diameter>
12

>  <FCharge>
0

>  <GCUT_PEOE_0>
-0.78992808

>  <GCUT_PEOE_1>
-0.36433297

>  <GCUT_PEOE_2>
-0.061827462

>  <GCUT_PEOE_3>
3.4604652

>  <GCUT_SLOGP_0>
-0.94438124

>  <GCUT_SLOGP_1>
-0.31555125

>  <GCUT_SLOGP_2>
0.0088669471

>  <GCUT_SLOGP_3>
3.4781823

>  <GCUT_SMR_0>
-0.53880602

>  <GCUT_SMR_1>
-0.1982464

>  <GCUT_SMR_2>
0.14093931

>  <GCUT_SMR_3>
3.6723199

>  <Kier1>
22.775511

>  <Kier2>
6.7804356

>  <Kier3>
2.6060941

>  <KierA1>
21.748314

>  <KierA2>
6.4643669

>  <KierA3>
2.4817336

>  <KierFlex>
4.5351319

>  <lip_acc>
5

>  <lip_don>
1

>  <lip_druglike>
1

>  <lip_violation>
0

>  <logP(o/w)>
3.6170001

>  <logS>
-4.6683202

>  <mr>
11.397244

>  <mutagenic>
1

>  <nmol>
1

>  <opr_brigid>
24

>  <opr_leadlike>
0

>  <opr_nring>
5

>  <opr_nrot>
2

>  <opr_violation>
2

>  <PC+>
0

>  <PC->
0

>  <PEOE_PC+>
2.3773918

>  <PEOE_PC->
-2.3773918

>  <PEOE_RPC+>
0.088294908

>  <PEOE_RPC->
0.16345288

>  <PEOE_VSA+0>
119.60135

>  <PEOE_VSA+1>
42.149307

>  <PEOE_VSA+2>
0

>  <PEOE_VSA+3>
18.025583

>  <PEOE_VSA+4>
10.324173

>  <PEOE_VSA+5>
0

>  <PEOE_VSA+6>
0

>  <PEOE_VSA-0>
93.256828

>  <PEOE_VSA-1>
39.703896

>  <PEOE_VSA-2>
29.581947

>  <PEOE_VSA-3>
0

>  <PEOE_VSA-4>
11.908636

>  <PEOE_VSA-5>
27.133842

>  <PEOE_VSA-6>
12.775052

>  <PEOE_VSA_FHYD>
0.84635907

>  <PEOE_VSA_FNEG>
0.52999032

>  <PEOE_VSA_FPNEG>
0.12811515

>  <PEOE_VSA_FPOL>
0.15364093

>  <PEOE_VSA_FPOS>
0.47000971

>  <PEOE_VSA_FPPOS>
0.02552578

>  <PEOE_VSA_HYD>
342.31891

>  <PEOE_VSA_NEG>
214.3602

>  <PEOE_VSA_PNEG>
51.817532

>  <PEOE_VSA_POL>
62.141701

>  <PEOE_VSA_POS>
190.10042

>  <PEOE_VSA_PPOS>
10.324173

>  <petitjean>
0.5

>  <petitjeanSC>
1

>  <Q_PC+>
0

>  <Q_PC->
0

>  <Q_RPC+>
0

>  <Q_RPC->
0

>  <Q_VSA_FHYD>
1

>  <Q_VSA_FNEG>
0

>  <Q_VSA_FPNEG>
0

>  <Q_VSA_FPOL>
0

>  <Q_VSA_FPOS>
1

>  <Q_VSA_FPPOS>
0

>  <Q_VSA_HYD>
404.4606

>  <Q_VSA_NEG>
0

>  <Q_VSA_PNEG>
0

>  <Q_VSA_POL>
0

>  <Q_VSA_POS>
404.4606

>  <Q_VSA_PPOS>
0

>  <radius>
6

>  <reactive>
1

>  <rings>
5

>  <RPC+>
0

>  <RPC->
0

>  <rsynth>
0.096774191

>  <SlogP>
3.8893001

>  <SlogP_VSA0>
25.385227

>  <SlogP_VSA1>
11.375222

>  <SlogP_VSA2>
82.661507

>  <SlogP_VSA3>
19.183437

>  <SlogP_VSA4>
8.8215923

>  <SlogP_VSA5>
3.185575

>  <SlogP_VSA6>
0

>  <SlogP_VSA7>
17.643185

>  <SlogP_VSA8>
113.21043

>  <SlogP_VSA9>
187.41281

>  <SMR>
11.23268

>  <SMR_VSA0>
69.724205

>  <SMR_VSA1>
40.345341

>  <SMR_VSA2>
8.8215923

>  <SMR_VSA3>
16.122873

>  <SMR_VSA4>
0

>  <SMR_VSA5>
130.85362

>  <SMR_VSA6>
30.558659

>  <SMR_VSA7>
172.4527

>  <TPSA>
72.830002

>  <VAdjEq>
0.37643659

>  <VAdjMa>
6.129283

>  <VDistEq>
3.2486529

>  <VDistMa>
9.6558371

>  <vdw_area>
404.4606

>  <vdw_vol>
576.11505

>  <vsa_acc>
32.141354

>  <vsa_acid>
0

>  <vsa_base>
0

>  <vsa_don>
0

>  <vsa_hyd>
311.4462

>  <vsa_other>
18.025583

>  <vsa_pol>
45.708275

>  <Weight>
454.966

>  <weinerPath>
2185

>  <weinerPol>
76

>  <zagreb>
192

$$$$