O(C(=O)C(O)c1ccccc1)C1CC2N(C(C1)CC2)C
  MOE2013           2D

 20 22  0  0  1  0  0  0  0  0999 V2000
    0.0000    0.0000    0.0000 O   0  0  0  0  0  0  0  0  0  0  0  0
   -1.5000   -0.0080    0.0000 C   0  0  0  0  0  0  0  0  0  0  0  0
   -2.2430   -1.3100    0.0000 O   0  0  0  0  0  0  0  0  0  0  0  0
   -2.2560    1.2880    0.0000 C   0  0  3  0  0  0  0  0  0  0  0  0
   -1.5130    2.5910    0.0000 O   0  0  0  0  0  0  0  0  0  0  0  0
   -3.7560    1.2800    0.0000 C   0  0  0  0  0  0  0  0  0  0  0  0
   -4.5130    2.5750    0.0000 C   0  0  0  0  0  0  0  0  0  0  0  0
   -6.0130    2.5680    0.0000 C   0  0  0  0  0  0  0  0  0  0  0  0
   -6.7560    1.2650    0.0000 C   0  0  0  0  0  0  0  0  0  0  0  0
   -6.0000   -0.0300    0.0000 C   0  0  0  0  0  0  0  0  0  0  0  0
   -4.5000   -0.0230    0.0000 C   0  0  0  0  0  0  0  0  0  0  0  0
    0.7570   -1.2950    0.0000 C   0  0  0  0  0  0  0  0  0  0  0  0
    1.7150   -2.0830    0.0000 C   0  0  0  0  0  0  0  0  0  0  0  0
    3.5090   -2.0740    0.0000 C   0  0  3  0  0  0  0  0  0  0  0  0
    3.7660   -3.5710    0.0000 N   0  0  0  0  0  0  0  0  0  0  0  0
    2.7280   -2.7630    0.0000 C   0  0  3  0  0  0  0  0  0  0  0  0
    1.0210   -2.7980    0.0000 C   0  0  0  0  0  0  0  0  0  0  0  0
    3.3180   -1.4490    0.0000 C   0  0  0  0  0  0  0  0  0  0  0  0
    4.4550   -0.7530    0.0000 C   0  0  0  0  0  0  0  0  0  0  0  0
    4.5370   -4.8580    0.0000 C   0  0  0  0  0  0  0  0  0  0  0  0
  1  2  1  0  0  0  0
  1 12  1  0  0  0  0
  2  3  2  0  0  0  0
  2  4  1  0  0  0  0
  4  5  1  0  0  0  0
  4  6  1  0  0  0  0
  6  7  1  0  0  0  0
  6 11  2  0  0  0  0
  7  8  2  0  0  0  0
  8  9  1  0  0  0  0
  9 10  2  0  0  0  0
 10 11  1  0  0  0  0
 12 13  1  0  0  0  0
 12 17  1  0  0  0  0
 13 14  1  0  0  0  0
 14 15  1  0  0  0  0
 14 19  1  0  0  0  0
 15 16  1  0  0  0  0
 15 20  1  0  0  0  0
 16 17  1  0  0  0  0
 16 18  1  0  0  0  0
 18 19  1  0  0  0  0
M  END
>  <Index>
524

>  <ID>
HT1038

>  <class>
0

>  <apol>
45.668652

>  <ast_fraglike>
1

>  <ast_fraglike_ext>
0

>  <ast_violation>
0

>  <ast_violation_ext>
1

>  <a_acc>
3

>  <a_acid>
0

>  <a_aro>
6

>  <a_base>
0

>  <a_count>
41

>  <a_don>
1

>  <a_donacc>
4

>  <a_heavy>
20

>  <a_hyd>
15

>  <a_IC>
58.66608

>  <a_ICM>
1.43088

>  <a_nB>
0

>  <a_nBr>
0

>  <a_nC>
16

>  <a_nCl>
0

>  <a_nF>
0

>  <a_nH>
21

>  <a_nI>
0

>  <a_nN>
1

>  <a_nO>
3

>  <a_nP>
0

>  <a_nS>
0

>  <balabanJ>
1.4996718

>  <BCUT_PEOE_0>
-2.7522078

>  <BCUT_PEOE_1>
-0.62268829

>  <BCUT_PEOE_2>
0.63840264

>  <BCUT_PEOE_3>
2.8492546

>  <BCUT_SLOGP_0>
-2.8034554

>  <BCUT_SLOGP_1>
-0.55353373

>  <BCUT_SLOGP_2>
0.68105483

>  <BCUT_SLOGP_3>
2.8509791

>  <BCUT_SMR_0>
-2.4942393

>  <BCUT_SMR_1>
-0.47439852

>  <BCUT_SMR_2>
0.75917453

>  <BCUT_SMR_3>
3.1043973

>  <bpol>
27.811346

>  <b_1rotN>
3

>  <b_1rotR>
0.13636364

>  <b_ar>
6

>  <b_count>
43

>  <b_double>
1

>  <b_heavy>
22

>  <b_max1len>
3

>  <b_rotN>
4

>  <b_rotR>
0.18181819

>  <b_single>
36

>  <b_triple>
0

>  <chi0>
14.112519

>  <chi0v>
11.735503

>  <chi0v_C>
10.02458

>  <chi0_C>
10.828063

>  <chi1>
9.6478672

>  <chi1v>
7.3032846

>  <chi1v_C>
5.4375238

>  <chi1_C>
6.432653

>  <chiral>
3

>  <chiral_u>
3

>  <density>
0.71773452

>  <diameter>
11

>  <FCharge>
0

>  <GCUT_PEOE_0>
-0.85981363

>  <GCUT_PEOE_1>
-0.39791137

>  <GCUT_PEOE_2>
0.07624428

>  <GCUT_PEOE_3>
2.7782636

>  <GCUT_SLOGP_0>
-0.95955056

>  <GCUT_SLOGP_1>
-0.33116108

>  <GCUT_SLOGP_2>
0.11999407

>  <GCUT_SLOGP_3>
2.7969062

>  <GCUT_SMR_0>
-0.53000486

>  <GCUT_SMR_1>
-0.2326967

>  <GCUT_SMR_2>
0.17895487

>  <GCUT_SMR_3>
3.006249

>  <Kier1>
14.917356

>  <Kier2>
6.405827

>  <Kier3>
3.2766211

>  <KierA1>
12.553123

>  <KierA2>
5.3384519

>  <KierA3>
2.7112906

>  <KierFlex>
3.3507121

>  <lip_acc>
4

>  <lip_don>
1

>  <lip_druglike>
1

>  <lip_violation>
0

>  <logP(o/w)>
2.5780001

>  <logS>
-2.56672

>  <mr>
7.7035904

>  <mutagenic>
0

>  <nmol>
1

>  <opr_brigid>
15

>  <opr_leadlike>
1

>  <opr_nring>
3

>  <opr_nrot>
6

>  <opr_violation>
0

>  <PC+>
0

>  <PC->
0

>  <PEOE_PC+>
1.6574513

>  <PEOE_PC->
-1.6574513

>  <PEOE_RPC+>
0.1784693

>  <PEOE_RPC->
0.22751483

>  <PEOE_VSA+0>
61.74194

>  <PEOE_VSA+1>
34.76263

>  <PEOE_VSA+2>
0

>  <PEOE_VSA+3>
4.9049287

>  <PEOE_VSA+4>
10.324173

>  <PEOE_VSA+5>
14.708499

>  <PEOE_VSA+6>
0

>  <PEOE_VSA-0>
60.252483

>  <PEOE_VSA-1>
61.274521

>  <PEOE_VSA-2>
0

>  <PEOE_VSA-3>
0

>  <PEOE_VSA-4>
0

>  <PEOE_VSA-5>
13.566921

>  <PEOE_VSA-6>
10.271297

>  <PEOE_VSA_FHYD>
0.82020026

>  <PEOE_VSA_FNEG>
0.53480965

>  <PEOE_VSA_FPNEG>
0.08770261

>  <PEOE_VSA_FPOL>
0.17979971

>  <PEOE_VSA_FPOS>
0.46519032

>  <PEOE_VSA_FPPOS>
0.092097096

>  <PEOE_VSA_HYD>
222.93649

>  <PEOE_VSA_NEG>
145.36522

>  <PEOE_VSA_PNEG>
23.838217

>  <PEOE_VSA_POL>
48.870888

>  <PEOE_VSA_POS>
126.44217

>  <PEOE_VSA_PPOS>
25.032671

>  <petitjean>
0.45454547

>  <petitjeanSC>
0.83333331

>  <Q_PC+>
0

>  <Q_PC->
0

>  <Q_RPC+>
0

>  <Q_RPC->
0

>  <Q_VSA_FHYD>
1

>  <Q_VSA_FNEG>
0

>  <Q_VSA_FPNEG>
0

>  <Q_VSA_FPOL>
0

>  <Q_VSA_FPOS>
1

>  <Q_VSA_FPPOS>
0

>  <Q_VSA_HYD>
271.8074

>  <Q_VSA_NEG>
0

>  <Q_VSA_PNEG>
0

>  <Q_VSA_POL>
0

>  <Q_VSA_POS>
271.8074

>  <Q_VSA_PPOS>
0

>  <radius>
6

>  <reactive>
0

>  <rings>
3

>  <RPC+>
0

>  <RPC->
0

>  <rsynth>
1

>  <SlogP>
1.9839

>  <SlogP_VSA0>
25.385227

>  <SlogP_VSA1>
10.869778

>  <SlogP_VSA2>
49.294689

>  <SlogP_VSA3>
0

>  <SlogP_VSA4>
3.185575

>  <SlogP_VSA5>
32.897186

>  <SlogP_VSA6>
0

>  <SlogP_VSA7>
88.215919

>  <SlogP_VSA8>
81.942268

>  <SlogP_VSA9>
0

>  <SMR>
7.51998

>  <SMR_VSA0>
34.862103

>  <SMR_VSA1>
28.509541

>  <SMR_VSA2>
0

>  <SMR_VSA3>
24.086811

>  <SMR_VSA4>
0

>  <SMR_VSA5>
163.68954

>  <SMR_VSA6>
7.7454643

>  <SMR_VSA7>
32.897186

>  <TPSA>
49.77

>  <VAdjEq>
0.49991596

>  <VAdjMa>
5.4594316

>  <VDistEq>
3.2230086

>  <VDistMa>
8.327034

>  <vdw_area>
271.8074

>  <vdw_vol>
383.63489

>  <vsa_acc>
13.566921

>  <vsa_acid>
0

>  <vsa_base>
0

>  <vsa_don>
0

>  <vsa_hyd>
208.70059

>  <vsa_other>
17.212255

>  <vsa_pol>
27.133842

>  <Weight>
275.34799

>  <weinerPath>
854

>  <weinerPol>
30

>  <zagreb>
106

$$$$