OC(=O)[C@@H](N)CCCN=C(N)/N
  MOE2013           2D

 12 11  0  0  1  0  0  0  0  0999 V2000
    0.0000    0.0000    0.0000 O   0  0  0  0  0  0  0  0  0  0  0  0
    1.3040   -0.7420    0.0000 C   0  0  0  0  0  0  0  0  0  0  0  0
    1.3130   -2.2420    0.0000 O   0  0  0  0  0  0  0  0  0  0  0  0
    2.5980    0.0160    0.0000 C   0  0  1  0  0  0  0  0  0  0  0  0
    2.5890    1.5160    0.0000 N   0  0  0  0  0  0  0  0  0  0  0  0
    3.9020   -0.7260    0.0000 C   0  0  0  0  0  0  0  0  0  0  0  0
    5.1960    0.0320    0.0000 C   0  0  0  0  0  0  0  0  0  0  0  0
    6.5000   -0.7100    0.0000 C   0  0  0  0  0  0  0  0  0  0  0  0
    7.7940    0.0480    0.0000 N   0  0  0  0  0  0  0  0  0  0  0  0
    9.0980   -0.6940    0.0000 C   0  0  0  0  0  0  0  0  0  0  0  0
   10.3920    0.0640    0.0000 N   0  0  0  0  0  0  0  0  0  0  0  0
    9.1070   -2.1940    0.0000 N   0  0  0  0  0  0  0  0  0  0  0  0
  1  2  1  0  0  0  0
  2  3  2  0  0  0  0
  2  4  1  0  0  0  0
  4  5  1  1  0  0  0
  4  6  1  0  0  0  0
  6  7  1  0  0  0  0
  7  8  1  0  0  0  0
  8  9  1  0  0  0  0
  9 10  2  3  0  0  0
 10 11  1  0  0  0  0
 10 12  1  0  0  0  0
M  END
>  <Index>
594

>  <ID>
HT1172

>  <class>
0

>  <apol>
25.899101

>  <ast_fraglike>
0

>  <ast_fraglike_ext>
0

>  <ast_violation>
2

>  <ast_violation_ext>
4

>  <a_acc>
4

>  <a_acid>
0

>  <a_aro>
0

>  <a_base>
0

>  <a_count>
26

>  <a_don>
5

>  <a_donacc>
9

>  <a_heavy>
12

>  <a_hyd>
4

>  <a_IC>
43.398689

>  <a_ICM>
1.6691804

>  <a_nB>
0

>  <a_nBr>
0

>  <a_nC>
6

>  <a_nCl>
0

>  <a_nF>
0

>  <a_nH>
14

>  <a_nI>
0

>  <a_nN>
4

>  <a_nO>
2

>  <a_nP>
0

>  <a_nS>
0

>  <balabanJ>
3.2108932

>  <BCUT_PEOE_0>
-2.586802

>  <BCUT_PEOE_1>
-0.43723127

>  <BCUT_PEOE_2>
0.42067841

>  <BCUT_PEOE_3>
2.5941012

>  <BCUT_SLOGP_0>
-2.7398744

>  <BCUT_SLOGP_1>
-0.40268391

>  <BCUT_SLOGP_2>
0.42756662

>  <BCUT_SLOGP_3>
2.5939944

>  <BCUT_SMR_0>
-2.3509881

>  <BCUT_SMR_1>
-0.23004039

>  <BCUT_SMR_2>
0.58855891

>  <BCUT_SMR_3>
2.825943

>  <bpol>
15.602898

>  <b_1rotN>
5

>  <b_1rotR>
0.45454547

>  <b_ar>
0

>  <b_count>
25

>  <b_double>
2

>  <b_heavy>
11

>  <b_max1len>
6

>  <b_rotN>
5

>  <b_rotR>
0.45454547

>  <b_single>
23

>  <b_triple>
0

>  <chi0>
9.5604782

>  <chi0v>
6.733397

>  <chi0v_C>
3.6986706

>  <chi0_C>
3.8533711

>  <chi1>
5.536581

>  <chi1v>
3.5751724

>  <chi1v_C>
1.6969234

>  <chi1_C>
1.7415817

>  <chiral>
1

>  <chiral_u>
0

>  <density>
0.7789548

>  <diameter>
8

>  <FCharge>
0

>  <GCUT_PEOE_0>
-0.84208477

>  <GCUT_PEOE_1>
-0.39402041

>  <GCUT_PEOE_2>
0.044055305

>  <GCUT_PEOE_3>
2.2565985

>  <GCUT_SLOGP_0>
-1.3840623

>  <GCUT_SLOGP_1>
-0.4053196

>  <GCUT_SLOGP_2>
0.070911676

>  <GCUT_SLOGP_3>
2.2208071

>  <GCUT_SMR_0>
-0.52138358

>  <GCUT_SMR_1>
-0.18862857

>  <GCUT_SMR_2>
0.1874802

>  <GCUT_SMR_3>
2.4822121

>  <Kier1>
12

>  <Kier2>
6.5088758

>  <Kier3>
7.4380164

>  <KierA1>
9.2505112

>  <KierA2>
4.8861599

>  <KierA3>
5.4677176

>  <KierFlex>
3.766623

>  <lip_acc>
6

>  <lip_don>
7

>  <lip_druglike>
1

>  <lip_violation>
1

>  <logP(o/w)>
-3.5387299

>  <logS>
-0.00182

>  <mr>
4.3359532

>  <mutagenic>
0

>  <nmol>
1

>  <opr_brigid>
1

>  <opr_leadlike>
1

>  <opr_nring>
0

>  <opr_nrot>
5

>  <opr_violation>
1

>  <PC+>
0

>  <PC->
0

>  <PEOE_PC+>
1.9639467

>  <PEOE_PC->
-1.9639467

>  <PEOE_RPC+>
0.14080817

>  <PEOE_RPC->
0.18846065

>  <PEOE_VSA+0>
30.253868

>  <PEOE_VSA+1>
15.942119

>  <PEOE_VSA+2>
17.238026

>  <PEOE_VSA+3>
50.157627

>  <PEOE_VSA+4>
10.324173

>  <PEOE_VSA+5>
14.708499

>  <PEOE_VSA+6>
0

>  <PEOE_VSA-0>
17.402626

>  <PEOE_VSA-1>
0

>  <PEOE_VSA-2>
0

>  <PEOE_VSA-3>
0

>  <PEOE_VSA-4>
0

>  <PEOE_VSA-5>
19.249496

>  <PEOE_VSA-6>
27.720898

>  <PEOE_VSA_FHYD>
0.64530045

>  <PEOE_VSA_FNEG>
0.31711265

>  <PEOE_VSA_FPNEG>
0.23138429

>  <PEOE_VSA_FPOL>
0.35469958

>  <PEOE_VSA_FPOS>
0.68288738

>  <PEOE_VSA_FPPOS>
0.12331527

>  <PEOE_VSA_HYD>
130.99426

>  <PEOE_VSA_NEG>
64.373024

>  <PEOE_VSA_PNEG>
46.970394

>  <PEOE_VSA_POL>
72.003067

>  <PEOE_VSA_POS>
138.62431

>  <PEOE_VSA_PPOS>
25.032671

>  <petitjean>
0.5

>  <petitjeanSC>
1

>  <Q_PC+>
0

>  <Q_PC->
0

>  <Q_RPC+>
0

>  <Q_RPC->
0

>  <Q_VSA_FHYD>
1

>  <Q_VSA_FNEG>
0

>  <Q_VSA_FPNEG>
0

>  <Q_VSA_FPOL>
0

>  <Q_VSA_FPOS>
1

>  <Q_VSA_FPPOS>
0

>  <Q_VSA_HYD>
202.99733

>  <Q_VSA_NEG>
0

>  <Q_VSA_PNEG>
0

>  <Q_VSA_POL>
0

>  <Q_VSA_POS>
202.99733

>  <Q_VSA_PPOS>
0

>  <radius>
4

>  <reactive>
0

>  <rings>
0

>  <RPC+>
0

>  <RPC->
0

>  <rsynth>
1

>  <SlogP>
-1.5481

>  <SlogP_VSA0>
98.691559

>  <SlogP_VSA1>
9.644557

>  <SlogP_VSA2>
27.844185

>  <SlogP_VSA3>
43.824806

>  <SlogP_VSA4>
0

>  <SlogP_VSA5>
16.78553

>  <SlogP_VSA6>
0

>  <SlogP_VSA7>
0

>  <SlogP_VSA8>
37.736813

>  <SlogP_VSA9>
0

>  <SMR>
4.5521998

>  <SMR_VSA0>
23.862217

>  <SMR_VSA1>
16.78553

>  <SMR_VSA2>
25.385227

>  <SMR_VSA3>
3.9819686

>  <SMR_VSA4>
98.691559

>  <SMR_VSA5>
37.736813

>  <SMR_VSA6>
28.084135

>  <SMR_VSA7>
0

>  <TPSA>
127.72

>  <VAdjEq>
0.61674827

>  <VAdjMa>
4.4594316

>  <VDistEq>
2.9097843

>  <VDistMa>
6.800437

>  <vdw_area>
202.99733

>  <vdw_vol>
223.63812

>  <vsa_acc>
5.6825762

>  <vsa_acid>
0

>  <vsa_base>
0

>  <vsa_don>
35.484978

>  <vsa_hyd>
58.616047

>  <vsa_other>
30.390074

>  <vsa_pol>
86.043884

>  <Weight>
174.20399

>  <weinerPath>
247

>  <weinerPol>
11

>  <zagreb>
48

$$$$