Oc1cc(ccc1)C1(CCN(CC1C)CC(Cc1ccccc1)C(=O)NCC(O)=O)C
  MOE2013           2D

 31 33  0  0  1  0  0  0  0  0999 V2000
    0.0000    0.0000    0.0000 O   0  0  0  0  0  0  0  0  0  0  0  0
   -1.3030   -0.7430    0.0000 C   0  0  0  0  0  0  0  0  0  0  0  0
   -2.5980    0.0140    0.0000 C   0  0  0  0  0  0  0  0  0  0  0  0
   -3.9010   -0.7290    0.0000 C   0  0  0  0  0  0  0  0  0  0  0  0
   -3.9090   -2.2290    0.0000 C   0  0  0  0  0  0  0  0  0  0  0  0
   -2.6140   -2.9860    0.0000 C   0  0  0  0  0  0  0  0  0  0  0  0
   -1.3110   -2.2430    0.0000 C   0  0  0  0  0  0  0  0  0  0  0  0
   -5.1960    0.0290    0.0000 C   0  0  3  0  0  0  0  0  0  0  0  0
   -5.9530   -1.2660    0.0000 C   0  0  0  0  0  0  0  0  0  0  0  0
   -7.4530   -1.2580    0.0000 C   0  0  0  0  0  0  0  0  0  0  0  0
   -8.1960    0.0450    0.0000 N   0  0  3  0  0  0  0  0  0  0  0  0
   -7.4390    1.3400    0.0000 C   0  0  0  0  0  0  0  0  0  0  0  0
   -5.9390    1.3320    0.0000 C   0  0  3  0  0  0  0  0  0  0  0  0
   -5.1820    2.6270    0.0000 C   0  0  0  0  0  0  0  0  0  0  0  0
   -9.6960    0.0530    0.0000 C   0  0  0  0  0  0  0  0  0  0  0  0
  -10.4390    1.3560    0.0000 C   0  0  3  0  0  0  0  0  0  0  0  0
   -9.6820    2.6510    0.0000 C   0  0  0  0  0  0  0  0  0  0  0  0
  -10.4250    3.9540    0.0000 C   0  0  0  0  0  0  0  0  0  0  0  0
  -11.9250    3.9630    0.0000 C   0  0  0  0  0  0  0  0  0  0  0  0
  -12.6670    5.2660    0.0000 C   0  0  0  0  0  0  0  0  0  0  0  0
  -11.9100    6.5610    0.0000 C   0  0  0  0  0  0  0  0  0  0  0  0
  -10.4100    6.5520    0.0000 C   0  0  0  0  0  0  0  0  0  0  0  0
   -9.6670    5.2490    0.0000 C   0  0  0  0  0  0  0  0  0  0  0  0
  -11.9390    1.3650    0.0000 C   0  0  0  0  0  0  0  0  0  0  0  0
  -12.6820    2.6680    0.0000 O   0  0  0  0  0  0  0  0  0  0  0  0
  -12.6960    0.0700    0.0000 N   0  0  0  0  0  0  0  0  0  0  0  0
  -14.1960    0.0780    0.0000 C   0  0  0  0  0  0  0  0  0  0  0  0
  -14.9530   -1.2170    0.0000 C   0  0  0  0  0  0  0  0  0  0  0  0
  -14.2100   -2.5200    0.0000 O   0  0  0  0  0  0  0  0  0  0  0  0
  -16.4530   -1.2090    0.0000 O   0  0  0  0  0  0  0  0  0  0  0  0
   -3.8930    0.7710    0.0000 C   0  0  0  0  0  0  0  0  0  0  0  0
  1  2  1  0  0  0  0
  2  3  1  0  0  0  0
  2  7  2  0  0  0  0
  3  4  2  0  0  0  0
  4  5  1  0  0  0  0
  4  8  1  0  0  0  0
  5  6  2  0  0  0  0
  6  7  1  0  0  0  0
  8  9  1  0  0  0  0
  8 13  1  0  0  0  0
  8 31  1  0  0  0  0
  9 10  1  0  0  0  0
 10 11  1  0  0  0  0
 11 12  1  0  0  0  0
 11 15  1  0  0  0  0
 12 13  1  0  0  0  0
 13 14  1  0  0  0  0
 15 16  1  0  0  0  0
 16 17  1  0  0  0  0
 16 24  1  0  0  0  0
 17 18  1  0  0  0  0
 18 19  1  0  0  0  0
 18 23  2  0  0  0  0
 19 20  2  0  0  0  0
 20 21  1  0  0  0  0
 21 22  2  0  0  0  0
 22 23  1  0  0  0  0
 24 25  2  0  0  0  0
 24 26  1  0  0  0  0
 26 27  1  0  0  0  0
 27 28  1  0  0  0  0
 28 29  1  0  0  0  0
 28 30  2  0  0  0  0
M  END
>  <Index>
55

>  <ID>
HT0121

>  <class>
0

>  <apol>
70.745377

>  <ast_fraglike>
0

>  <ast_fraglike_ext>
0

>  <ast_violation>
4

>  <ast_violation_ext>
5

>  <a_acc>
5

>  <a_acid>
0

>  <a_aro>
12

>  <a_base>
0

>  <a_count>
63

>  <a_don>
4

>  <a_donacc>
9

>  <a_heavy>
31

>  <a_hyd>
23

>  <a_IC>
90.472229

>  <a_ICM>
1.4360671

>  <a_nB>
0

>  <a_nBr>
0

>  <a_nC>
25

>  <a_nCl>
0

>  <a_nF>
0

>  <a_nH>
32

>  <a_nI>
0

>  <a_nN>
2

>  <a_nO>
4

>  <a_nP>
0

>  <a_nS>
0

>  <balabanJ>
1.5830945

>  <BCUT_PEOE_0>
-2.8499632

>  <BCUT_PEOE_1>
-0.54376453

>  <BCUT_PEOE_2>
0.60310519

>  <BCUT_PEOE_3>
2.7880468

>  <BCUT_SLOGP_0>
-2.8807573

>  <BCUT_SLOGP_1>
-0.48714226

>  <BCUT_SLOGP_2>
0.69713247

>  <BCUT_SLOGP_3>
2.8027205

>  <BCUT_SMR_0>
-2.5818162

>  <BCUT_SMR_1>
-0.41019976

>  <BCUT_SMR_2>
0.73941785

>  <BCUT_SMR_3>
3.053272

>  <bpol>
39.538624

>  <b_1rotN>
8

>  <b_1rotR>
0.24242425

>  <b_ar>
12

>  <b_count>
65

>  <b_double>
2

>  <b_heavy>
33

>  <b_max1len>
4

>  <b_rotN>
9

>  <b_rotR>
0.27272728

>  <b_single>
51

>  <b_triple>
0

>  <chi0>
22.43251

>  <chi0v>
18.251631

>  <chi0v_C>
15.593493

>  <chi0_C>
17.148054

>  <chi1>
14.774713

>  <chi1v>
10.829855

>  <chi1v_C>
8.4221563

>  <chi1_C>
10.332318

>  <chiral>
3

>  <chiral_u>
3

>  <density>
0.70625103

>  <diameter>
14

>  <FCharge>
0

>  <GCUT_PEOE_0>
-0.85577041

>  <GCUT_PEOE_1>
-0.39811692

>  <GCUT_PEOE_2>
0.074162029

>  <GCUT_PEOE_3>
3.0216506

>  <GCUT_SLOGP_0>
-1.1627811

>  <GCUT_SLOGP_1>
-0.32640022

>  <GCUT_SLOGP_2>
0.14128798

>  <GCUT_SLOGP_3>
3.0564466

>  <GCUT_SMR_0>
-0.52639306

>  <GCUT_SMR_1>
-0.21563627

>  <GCUT_SMR_2>
0.18234825

>  <GCUT_SMR_3>
3.2659791

>  <Kier1>
25.619835

>  <Kier2>
11.92344

>  <Kier3>
7.2391505

>  <KierA1>
20.156639

>  <KierA2>
9.3012114

>  <KierA3>
5.6119161

>  <KierFlex>
6.0477796

>  <lip_acc>
6

>  <lip_don>
3

>  <lip_druglike>
1

>  <lip_violation>
0

>  <logP(o/w)>
3.3280001

>  <logS>
-3.8540399

>  <mr>
12.162448

>  <mutagenic>
0

>  <nmol>
1

>  <opr_brigid>
18

>  <opr_leadlike>
1

>  <opr_nring>
3

>  <opr_nrot>
10

>  <opr_violation>
0

>  <PC+>
0

>  <PC->
0

>  <PEOE_PC+>
2.6231132

>  <PEOE_PC->
-2.6231132

>  <PEOE_RPC+>
0.10635902

>  <PEOE_RPC->
0.13717428

>  <PEOE_VSA+0>
103.1616

>  <PEOE_VSA+1>
55.377766

>  <PEOE_VSA+2>
13.192325

>  <PEOE_VSA+3>
8.6190128

>  <PEOE_VSA+4>
33.597878

>  <PEOE_VSA+5>
14.708499

>  <PEOE_VSA+6>
0

>  <PEOE_VSA-0>
59.521839

>  <PEOE_VSA-1>
123.27969

>  <PEOE_VSA-2>
0

>  <PEOE_VSA-3>
0

>  <PEOE_VSA-4>
0

>  <PEOE_VSA-5>
27.133842

>  <PEOE_VSA-6>
15.671971

>  <PEOE_VSA_FHYD>
0.79942918

>  <PEOE_VSA_FNEG>
0.49664322

>  <PEOE_VSA_FPNEG>
0.094231054

>  <PEOE_VSA_FPOL>
0.20057082

>  <PEOE_VSA_FPOS>
0.50335681

>  <PEOE_VSA_FPPOS>
0.10633978

>  <PEOE_VSA_HYD>
363.15222

>  <PEOE_VSA_NEG>
225.60733

>  <PEOE_VSA_PNEG>
42.805813

>  <PEOE_VSA_POL>
91.11219

>  <PEOE_VSA_POS>
228.65707

>  <PEOE_VSA_PPOS>
48.306377

>  <petitjean>
0.5

>  <petitjeanSC>
1

>  <Q_PC+>
0

>  <Q_PC->
0

>  <Q_RPC+>
0

>  <Q_RPC->
0

>  <Q_VSA_FHYD>
1

>  <Q_VSA_FNEG>
0

>  <Q_VSA_FPNEG>
0

>  <Q_VSA_FPOL>
0

>  <Q_VSA_FPOS>
1

>  <Q_VSA_FPPOS>
0

>  <Q_VSA_HYD>
454.2644

>  <Q_VSA_NEG>
0

>  <Q_VSA_PNEG>
0

>  <Q_VSA_POL>
0

>  <Q_VSA_POS>
454.2644

>  <Q_VSA_PPOS>
0

>  <radius>
7

>  <reactive>
0

>  <rings>
3

>  <RPC+>
0

>  <RPC->
0

>  <rsynth>
1

>  <SlogP>
3.0513699

>  <SlogP_VSA0>
43.395977

>  <SlogP_VSA1>
16.128561

>  <SlogP_VSA2>
47.724434

>  <SlogP_VSA3>
99.143539

>  <SlogP_VSA4>
15.192742

>  <SlogP_VSA5>
18.868406

>  <SlogP_VSA6>
0

>  <SlogP_VSA7>
158.78867

>  <SlogP_VSA8>
18.868406

>  <SlogP_VSA9>
71.895454

>  <SMR>
11.99613

>  <SMR_VSA0>
47.724434

>  <SMR_VSA1>
28.509541

>  <SMR_VSA2>
52.217567

>  <SMR_VSA3>
11.614578

>  <SMR_VSA4>
0

>  <SMR_VSA5>
196.52547

>  <SMR_VSA6>
86.762558

>  <SMR_VSA7>
66.652031

>  <TPSA>
89.870003

>  <VAdjEq>
0.36097246

>  <VAdjMa>
6.044394

>  <VDistEq>
3.6723928

>  <VDistMa>
9.6267767

>  <vdw_area>
454.2644

>  <vdw_vol>
601.11914

>  <vsa_acc>
13.566921

>  <vsa_acid>
0

>  <vsa_base>
0

>  <vsa_don>
5.6825762

>  <vsa_hyd>
331.20105

>  <vsa_other>
27.65803

>  <vsa_pol>
59.95026

>  <Weight>
424.54099

>  <weinerPath>
2864

>  <weinerPol>
48

>  <zagreb>
158

$$$$