S1[C@H]2N([C@@H](C(O)=O)C1(C)C)C(=O)[C@H]2N1C(=O)[C@H](NC1(C)C)c1ccccc1
  MOE2013           2D

 27 30  0  0  1  0  0  0  0  0999 V2000
    0.0000    0.0000    0.0000 S   0  0  0  0  0  0  0  0  0  0  0  0
    1.0260   -1.0950    0.0000 C   0  0  1  0  0  0  0  0  0  0  0  0
    0.3020   -2.4080    0.0000 N   0  0  0  0  0  0  0  0  0  0  0  0
   -1.1720   -2.1260    0.0000 C   0  0  1  0  0  0  0  0  0  0  0  0
   -2.2660   -3.1510    0.0000 C   0  0  0  0  0  0  0  0  0  0  0  0
   -3.7020   -2.7160    0.0000 O   0  0  0  0  0  0  0  0  0  0  0  0
   -1.9250   -4.6120    0.0000 O   0  0  0  0  0  0  0  0  0  0  0  0
   -1.3580   -0.6370    0.0000 C   0  0  0  0  0  0  0  0  0  0  0  0
   -2.1000    0.6670    0.0000 C   0  0  0  0  0  0  0  0  0  0  0  0
   -2.8560   -0.7060    0.0000 C   0  0  0  0  0  0  0  0  0  0  0  0
    1.6150   -3.1320    0.0000 C   0  0  0  0  0  0  0  0  0  0  0  0
    2.0320   -4.5730    0.0000 O   0  0  0  0  0  0  0  0  0  0  0  0
    2.3390   -1.8190    0.0000 C   0  0  1  0  0  0  0  0  0  0  0  0
    3.7800   -1.4020    0.0000 N   0  0  0  0  0  0  0  0  0  0  0  0
    4.9640   -2.3220    0.0000 C   0  0  0  0  0  0  0  0  0  0  0  0
    4.9160   -3.8220    0.0000 O   0  0  0  0  0  0  0  0  0  0  0  0
    6.2060   -1.4810    0.0000 C   0  0  2  0  0  0  0  0  0  0  0  0
    5.7890   -0.0400    0.0000 N   0  0  0  0  0  0  0  0  0  0  0  0
    4.2900    0.0090    0.0000 C   0  0  0  0  0  0  0  0  0  0  0  0
    4.2210    1.5080    0.0000 C   0  0  0  0  0  0  0  0  0  0  0  0
    2.9230    0.6280    0.0000 C   0  0  0  0  0  0  0  0  0  0  0  0
    7.6170   -1.9900    0.0000 C   0  0  0  0  0  0  0  0  0  0  0  0
    7.8810   -3.4670    0.0000 C   0  0  0  0  0  0  0  0  0  0  0  0
    9.2920   -3.9760    0.0000 C   0  0  0  0  0  0  0  0  0  0  0  0
   10.4380   -3.0090    0.0000 C   0  0  0  0  0  0  0  0  0  0  0  0
   10.1740   -1.5330    0.0000 C   0  0  0  0  0  0  0  0  0  0  0  0
    8.7630   -1.0230    0.0000 C   0  0  0  0  0  0  0  0  0  0  0  0
  1  8  1  0  0  0  0
  2  1  1  6  0  0  0
  2  3  1  0  0  0  0
  2 13  1  0  0  0  0
  3  4  1  0  0  0  0
  3 11  1  0  0  0  0
  4  5  1  1  0  0  0
  4  8  1  0  0  0  0
  5  6  1  0  0  0  0
  5  7  2  0  0  0  0
  8  9  1  0  0  0  0
  8 10  1  0  0  0  0
 11 12  2  0  0  0  0
 11 13  1  0  0  0  0
 13 14  1  6  0  0  0
 14 15  1  0  0  0  0
 14 19  1  0  0  0  0
 15 16  2  0  0  0  0
 15 17  1  0  0  0  0
 17 18  1  0  0  0  0
 17 22  1  6  0  0  0
 18 19  1  0  0  0  0
 19 20  1  0  0  0  0
 19 21  1  0  0  0  0
 22 23  1  0  0  0  0
 22 27  2  0  0  0  0
 23 24  2  0  0  0  0
 24 25  1  0  0  0  0
 25 26  2  0  0  0  0
 26 27  1  0  0  0  0
M  END
>  <Index>
517

>  <ID>
HT1027

>  <class>
0

>  <apol>
58.184238

>  <ast_fraglike>
0

>  <ast_fraglike_ext>
0

>  <ast_violation>
2

>  <ast_violation_ext>
2

>  <a_acc>
5

>  <a_acid>
0

>  <a_aro>
6

>  <a_base>
0

>  <a_count>
50

>  <a_don>
3

>  <a_donacc>
8

>  <a_heavy>
27

>  <a_hyd>
16

>  <a_IC>
84.685371

>  <a_ICM>
1.6937075

>  <a_nB>
0

>  <a_nBr>
0

>  <a_nC>
19

>  <a_nCl>
0

>  <a_nF>
0

>  <a_nH>
23

>  <a_nI>
0

>  <a_nN>
3

>  <a_nO>
4

>  <a_nP>
0

>  <a_nS>
1

>  <balabanJ>
1.5646344

>  <BCUT_PEOE_0>
-2.7032304

>  <BCUT_PEOE_1>
-0.52883232

>  <BCUT_PEOE_2>
0.55519593

>  <BCUT_PEOE_3>
2.8748376

>  <BCUT_SLOGP_0>
-2.9014122

>  <BCUT_SLOGP_1>
-0.48103124

>  <BCUT_SLOGP_2>
0.5751909

>  <BCUT_SLOGP_3>
2.7704835

>  <BCUT_SMR_0>
-2.4431062

>  <BCUT_SMR_1>
-0.3501808

>  <BCUT_SMR_2>
0.75400496

>  <BCUT_SMR_3>
3.1516519

>  <bpol>
34.917763

>  <b_1rotN>
3

>  <b_1rotR>
0.1

>  <b_ar>
6

>  <b_count>
53

>  <b_double>
3

>  <b_heavy>
30

>  <b_max1len>
4

>  <b_rotN>
3

>  <b_rotR>
0.1

>  <b_single>
44

>  <b_triple>
0

>  <chi0>
19.723249

>  <chi0v>
16.487284

>  <chi0v_C>
12.196153

>  <chi0_C>
13.154336

>  <chi1>
12.560184

>  <chi1v>
9.8269434

>  <chi1v_C>
5.6873927

>  <chi1_C>
6.7718382

>  <chiral>
4

>  <chiral_u>
0

>  <density>
0.79275304

>  <diameter>
12

>  <FCharge>
0

>  <GCUT_PEOE_0>
-0.83669025

>  <GCUT_PEOE_1>
-0.38991565

>  <GCUT_PEOE_2>
0.062757492

>  <GCUT_PEOE_3>
2.9330137

>  <GCUT_SLOGP_0>
-1.1272032

>  <GCUT_SLOGP_1>
-0.3376829

>  <GCUT_SLOGP_2>
0.097560167

>  <GCUT_SLOGP_3>
2.8912406

>  <GCUT_SMR_0>
-0.53739607

>  <GCUT_SMR_1>
-0.20824587

>  <GCUT_SMR_2>
0.1863647

>  <GCUT_SMR_3>
3.1907125

>  <Kier1>
20.280001

>  <Kier2>
6.7680135

>  <Kier3>
3.0563266

>  <KierA1>
17.317242

>  <KierA2>
5.7423153

>  <KierA3>
2.5808172

>  <KierFlex>
3.6830022

>  <lip_acc>
7

>  <lip_don>
2

>  <lip_druglike>
1

>  <lip_violation>
0

>  <logP(o/w)>
2.595

>  <logS>
-3.9383099

>  <mr>
10.157738

>  <mutagenic>
0

>  <nmol>
1

>  <opr_brigid>
19

>  <opr_leadlike>
1

>  <opr_nring>
4

>  <opr_nrot>
3

>  <opr_violation>
0

>  <PC+>
0

>  <PC->
0

>  <PEOE_PC+>
2.6317179

>  <PEOE_PC->
-2.6317179

>  <PEOE_RPC+>
0.10782938

>  <PEOE_RPC->
0.12527207

>  <PEOE_VSA+0>
51.184631

>  <PEOE_VSA+1>
38.388474

>  <PEOE_VSA+2>
23.178917

>  <PEOE_VSA+3>
0

>  <PEOE_VSA+4>
23.273705

>  <PEOE_VSA+5>
27.65803

>  <PEOE_VSA+6>
0

>  <PEOE_VSA-0>
77.199249

>  <PEOE_VSA-1>
61.274521

>  <PEOE_VSA-2>
19.760618

>  <PEOE_VSA-3>
0

>  <PEOE_VSA-4>
0

>  <PEOE_VSA-5>
40.837654

>  <PEOE_VSA-6>
7.7675405

>  <PEOE_VSA_FHYD>
0.73136127

>  <PEOE_VSA_FNEG>
0.5582363

>  <PEOE_VSA_FPNEG>
0.13117984

>  <PEOE_VSA_FPOL>
0.26863876

>  <PEOE_VSA_FPOS>
0.4417637

>  <PEOE_VSA_FPPOS>
0.13745891

>  <PEOE_VSA_HYD>
270.98642

>  <PEOE_VSA_NEG>
206.83958

>  <PEOE_VSA_PNEG>
48.605194

>  <PEOE_VSA_POL>
99.536926

>  <PEOE_VSA_POS>
163.68376

>  <PEOE_VSA_PPOS>
50.931732

>  <petitjean>
0.5

>  <petitjeanSC>
1

>  <Q_PC+>
0

>  <Q_PC->
0

>  <Q_RPC+>
0

>  <Q_RPC->
0

>  <Q_VSA_FHYD>
1

>  <Q_VSA_FNEG>
0

>  <Q_VSA_FPNEG>
0

>  <Q_VSA_FPOL>
0

>  <Q_VSA_FPOS>
1

>  <Q_VSA_FPPOS>
0

>  <Q_VSA_HYD>
370.52335

>  <Q_VSA_NEG>
0

>  <Q_VSA_PNEG>
0

>  <Q_VSA_POL>
0

>  <Q_VSA_POS>
370.52335

>  <Q_VSA_PPOS>
0

>  <radius>
6

>  <reactive>
0

>  <rings>
4

>  <RPC+>
0

>  <RPC->
0

>  <rsynth>
1

>  <SlogP>
1.5066

>  <SlogP_VSA0>
18.01075

>  <SlogP_VSA1>
24.51166

>  <SlogP_VSA2>
81.897713

>  <SlogP_VSA3>
25.385227

>  <SlogP_VSA4>
3.185575

>  <SlogP_VSA5>
0

>  <SlogP_VSA6>
0

>  <SlogP_VSA7>
88.215919

>  <SlogP_VSA8>
3.9819686

>  <SlogP_VSA9>
165.52361

>  <SMR>
10.08715

>  <SMR_VSA0>
71.586647

>  <SMR_VSA1>
6.2486277

>  <SMR_VSA2>
43.395977

>  <SMR_VSA3>
17.478609

>  <SMR_VSA4>
0

>  <SMR_VSA5>
88.215919

>  <SMR_VSA6>
18.263031

>  <SMR_VSA7>
165.52361

>  <TPSA>
89.949997

>  <VAdjEq>
0.41024774

>  <VAdjMa>
5.9068904

>  <VDistEq>
3.311882

>  <VDistMa>
9.2371483

>  <vdw_area>
370.52335

>  <vdw_vol>
491.2955

>  <vsa_acc>
27.133842

>  <vsa_acid>
0

>  <vsa_base>
0

>  <vsa_don>
0

>  <vsa_hyd>
247.41969

>  <vsa_other>
40.607563

>  <vsa_pol>
59.95026

>  <Weight>
389.47598

>  <weinerPath>
1697

>  <weinerPol>
49

>  <zagreb>
158

$$$$