Fc1cc2c(-c3c(cc(F)cc3)C23NC(=O)NC3=O)cc1
  MOE2013           2D

 21 24  0  0  0  0  0  0  0  0999 V2000
    0.0000    0.0000    0.0000 F   0  0  0  0  0  0  0  0  0  0  0  0
   -1.5000   -0.0120    0.0000 C   0  0  0  0  0  0  0  0  0  0  0  0
   -2.2600    1.2810    0.0000 C   0  0  0  0  0  0  0  0  0  0  0  0
   -3.7600    1.2690    0.0000 C   0  0  0  0  0  0  0  0  0  0  0  0
   -4.5000   -0.0360    0.0000 C   0  0  0  0  0  0  0  0  0  0  0  0
   -5.9700    0.2640    0.0000 C   0  0  0  0  0  0  0  0  0  0  0  0
   -6.1380    1.7540    0.0000 C   0  0  0  0  0  0  0  0  0  0  0  0
   -7.5140    2.3530    0.0000 C   0  0  0  0  0  0  0  0  0  0  0  0
   -8.7200    1.4620    0.0000 C   0  0  0  0  0  0  0  0  0  0  0  0
  -10.0950    2.0610    0.0000 F   0  0  0  0  0  0  0  0  0  0  0  0
   -8.5510   -0.0290    0.0000 C   0  0  0  0  0  0  0  0  0  0  0  0
   -7.1760   -0.6280    0.0000 C   0  0  0  0  0  0  0  0  0  0  0  0
   -4.7730    2.3750    0.0000 C   0  0  0  0  0  0  0  0  0  0  0  0
   -3.4080    2.9960    0.0000 N   0  0  0  0  0  0  0  0  0  0  0  0
   -3.5760    4.4870    0.0000 C   0  0  0  0  0  0  0  0  0  0  0  0
   -2.4700    5.5000    0.0000 O   0  0  0  0  0  0  0  0  0  0  0  0
   -5.0460    4.7870    0.0000 N   0  0  0  0  0  0  0  0  0  0  0  0
   -5.7860    3.4820    0.0000 C   0  0  0  0  0  0  0  0  0  0  0  0
   -7.2760    3.3130    0.0000 O   0  0  0  0  0  0  0  0  0  0  0  0
   -3.7390   -1.3290    0.0000 C   0  0  0  0  0  0  0  0  0  0  0  0
   -2.2390   -1.3170    0.0000 C   0  0  0  0  0  0  0  0  0  0  0  0
  1  2  1  0  0  0  0
  2  3  1  0  0  0  0
  2 21  2  0  0  0  0
  3  4  2  0  0  0  0
  4  5  1  0  0  0  0
  4 13  1  0  0  0  0
  5  6  1  0  0  0  0
  5 20  2  0  0  0  0
  6  7  1  0  0  0  0
  6 12  2  0  0  0  0
  7  8  2  0  0  0  0
  7 13  1  0  0  0  0
  8  9  1  0  0  0  0
  9 10  1  0  0  0  0
  9 11  2  0  0  0  0
 11 12  1  0  0  0  0
 13 14  1  0  0  0  0
 13 18  1  0  0  0  0
 14 15  1  0  0  0  0
 15 16  2  0  0  0  0
 15 17  1  0  0  0  0
 17 18  1  0  0  0  0
 18 19  2  0  0  0  0
 20 21  1  0  0  0  0
M  END
>  <Index>
552

>  <ID>
HT1085

>  <class>
0

>  <apol>
36.652344

>  <ast_fraglike>
1

>  <ast_fraglike_ext>
1

>  <ast_violation>
0

>  <ast_violation_ext>
0

>  <a_acc>
2

>  <a_acid>
0

>  <a_aro>
12

>  <a_base>
0

>  <a_count>
29

>  <a_don>
2

>  <a_donacc>
4

>  <a_heavy>
21

>  <a_hyd>
15

>  <a_IC>
52.278091

>  <a_ICM>
1.8026928

>  <a_nB>
0

>  <a_nBr>
0

>  <a_nC>
15

>  <a_nCl>
0

>  <a_nF>
2

>  <a_nH>
8

>  <a_nI>
0

>  <a_nN>
2

>  <a_nO>
2

>  <a_nP>
0

>  <a_nS>
0

>  <balabanJ>
1.7510475

>  <BCUT_PEOE_0>
-2.3327324

>  <BCUT_PEOE_1>
-0.644795

>  <BCUT_PEOE_2>
0.59644032

>  <BCUT_PEOE_3>
2.6172922

>  <BCUT_SLOGP_0>
-2.4589489

>  <BCUT_SLOGP_1>
-0.49804136

>  <BCUT_SLOGP_2>
0.82464349

>  <BCUT_SLOGP_3>
2.6176057

>  <BCUT_SMR_0>
-2.063556

>  <BCUT_SMR_1>
-0.42157742

>  <BCUT_SMR_2>
0.79084474

>  <BCUT_SMR_3>
2.8959081

>  <bpol>
14.387656

>  <b_1rotN>
0

>  <b_1rotR>
0

>  <b_ar>
12

>  <b_count>
32

>  <b_double>
2

>  <b_heavy>
24

>  <b_max1len>
1

>  <b_rotN>
0

>  <b_rotR>
0

>  <b_single>
18

>  <b_triple>
0

>  <chi0>
14.775657

>  <chi0v>
10.536527

>  <chi0v_C>
7.9641018

>  <chi0_C>
9.3614426

>  <chi1>
10.019711

>  <chi1v>
6.2622805

>  <chi1v_C>
4.4760675

>  <chi1_C>
6.1320119

>  <chiral>
0

>  <chiral_u>
0

>  <density>
0.86592698

>  <diameter>
8

>  <FCharge>
0

>  <GCUT_PEOE_0>
-0.78730947

>  <GCUT_PEOE_1>
-0.46260002

>  <GCUT_PEOE_2>
0.072929986

>  <GCUT_PEOE_3>
2.6183469

>  <GCUT_SLOGP_0>
-1.1954905

>  <GCUT_SLOGP_1>
-0.35346943

>  <GCUT_SLOGP_2>
0.27324036

>  <GCUT_SLOGP_3>
2.6872761

>  <GCUT_SMR_0>
-0.46039274

>  <GCUT_SMR_1>
-0.21852185

>  <GCUT_SMR_2>
0.17300037

>  <GCUT_SMR_3>
2.9063797

>  <Kier1>
14.583333

>  <Kier2>
5

>  <Kier3>
1.9944599

>  <KierA1>
9.6426353

>  <KierA2>
3.2306798

>  <KierA3>
1.2659146

>  <KierFlex>
1.4834414

>  <lip_acc>
4

>  <lip_don>
2

>  <lip_druglike>
1

>  <lip_violation>
0

>  <logP(o/w)>
2.8169999

>  <logS>
-5.0471201

>  <mr>
7.0725484

>  <mutagenic>
0

>  <nmol>
1

>  <opr_brigid>
20

>  <opr_leadlike>
1

>  <opr_nring>
4

>  <opr_nrot>
0

>  <opr_violation>
0

>  <PC+>
0

>  <PC->
0

>  <PEOE_PC+>
1.7353525

>  <PEOE_PC->
-1.7353525

>  <PEOE_RPC+>
0.18666296

>  <PEOE_RPC->
0.18231398

>  <PEOE_VSA+0>
4.4170794

>  <PEOE_VSA+1>
25.592316

>  <PEOE_VSA+2>
18.041691

>  <PEOE_VSA+3>
17.238026

>  <PEOE_VSA+4>
0

>  <PEOE_VSA+5>
12.949531

>  <PEOE_VSA+6>
17.440542

>  <PEOE_VSA-0>
53.436695

>  <PEOE_VSA-1>
24.509808

>  <PEOE_VSA-2>
0

>  <PEOE_VSA-3>
0

>  <PEOE_VSA-4>
37.384193

>  <PEOE_VSA-5>
13.703812

>  <PEOE_VSA-6>
0.13689101

>  <PEOE_VSA_FHYD>
0.63702577

>  <PEOE_VSA_FNEG>
0.5744766

>  <PEOE_VSA_FPNEG>
0.22781749

>  <PEOE_VSA_FPOL>
0.36297423

>  <PEOE_VSA_FPOS>
0.4255234

>  <PEOE_VSA_FPPOS>
0.13515675

>  <PEOE_VSA_HYD>
143.23561

>  <PEOE_VSA_NEG>
129.1714

>  <PEOE_VSA_PNEG>
51.224895

>  <PEOE_VSA_POL>
81.614967

>  <PEOE_VSA_POS>
95.679184

>  <PEOE_VSA_PPOS>
30.390074

>  <petitjean>
0.5

>  <petitjeanSC>
1

>  <Q_PC+>
0

>  <Q_PC->
0

>  <Q_RPC+>
0

>  <Q_RPC->
0

>  <Q_VSA_FHYD>
1

>  <Q_VSA_FNEG>
0

>  <Q_VSA_FPNEG>
0

>  <Q_VSA_FPOL>
0

>  <Q_VSA_FPOS>
1

>  <Q_VSA_FPPOS>
0

>  <Q_VSA_HYD>
224.85059

>  <Q_VSA_NEG>
0

>  <Q_VSA_PNEG>
0

>  <Q_VSA_POL>
0

>  <Q_VSA_POS>
224.85059

>  <Q_VSA_PPOS>
0

>  <radius>
4

>  <reactive>
0

>  <rings>
4

>  <RPC+>
0

>  <RPC->
0

>  <rsynth>
0.19047619

>  <SlogP>
2.3397

>  <SlogP_VSA0>
36.0215

>  <SlogP_VSA1>
10.088739

>  <SlogP_VSA2>
42.104252

>  <SlogP_VSA3>
0

>  <SlogP_VSA4>
6.37115

>  <SlogP_VSA5>
0

>  <SlogP_VSA6>
0

>  <SlogP_VSA7>
112.23026

>  <SlogP_VSA8>
0

>  <SlogP_VSA9>
53.782444

>  <SMR>
6.9365401

>  <SMR_VSA0>
47.724434

>  <SMR_VSA1>
29.920227

>  <SMR_VSA2>
54.263538

>  <SMR_VSA3>
6.37115

>  <SMR_VSA4>
6.37115

>  <SMR_VSA5>
105.85911

>  <SMR_VSA6>
10.088739

>  <SMR_VSA7>
0

>  <TPSA>
58.200001

>  <VAdjEq>
0.49641782

>  <VAdjMa>
5.5849624

>  <VDistEq>
2.7163219

>  <VDistMa>
8.5498238

>  <vdw_area>
224.85059

>  <vdw_vol>
330.55557

>  <vsa_acc>
27.133842

>  <vsa_acid>
0

>  <vsa_base>
0

>  <vsa_don>
11.365152

>  <vsa_hyd>
145.54408

>  <vsa_other>
30.390074

>  <vsa_pol>
38.498993

>  <Weight>
286.237

>  <weinerPath>
760

>  <weinerPol>
41

>  <zagreb>
124

$$$$