IC#CCOc1cc(Cl)c(Cl)cc1Cl
  MOE2013           2D

 14 14  0  0  0  0  0  0  0  0999 V2000
    0.0000    0.0000    0.0000 I   0  0  0  0  0  0  0  0  0  0  0  0
   -1.5000   -0.0030    0.0000 C   0  0  0  0  0  0  0  0  0  0  0  0
   -3.0000   -0.0060    0.0000 C   0  0  0  0  0  0  0  0  0  0  0  0
   -4.5000   -0.0100    0.0000 C   0  0  0  0  0  0  0  0  0  0  0  0
   -5.2470   -1.3100    0.0000 O   0  0  0  0  0  0  0  0  0  0  0  0
   -6.7470   -1.3140    0.0000 C   0  0  0  0  0  0  0  0  0  0  0  0
   -7.5000   -0.0160    0.0000 C   0  0  0  0  0  0  0  0  0  0  0  0
   -9.0000   -0.0190    0.0000 C   0  0  0  0  0  0  0  0  0  0  0  0
   -9.7530    1.2780    0.0000 Cl  0  0  0  0  0  0  0  0  0  0  0  0
   -9.7470   -1.3200    0.0000 C   0  0  0  0  0  0  0  0  0  0  0  0
  -11.2470   -1.3230    0.0000 Cl  0  0  0  0  0  0  0  0  0  0  0  0
   -8.9940   -2.6180    0.0000 C   0  0  0  0  0  0  0  0  0  0  0  0
   -7.4940   -2.6140    0.0000 C   0  0  0  0  0  0  0  0  0  0  0  0
   -6.7420   -3.9120    0.0000 Cl  0  0  0  0  0  0  0  0  0  0  0  0
  1  2  1  0  0  0  0
  2  3  3  0  0  0  0
  3  4  1  0  0  0  0
  4  5  1  0  0  0  0
  5  6  1  0  0  0  0
  6  7  1  0  0  0  0
  6 13  2  0  0  0  0
  7  8  2  0  0  0  0
  8  9  1  0  0  0  0
  8 10  1  0  0  0  0
 10 11  1  0  0  0  0
 10 12  2  0  0  0  0
 12 13  1  0  0  0  0
 13 14  1  0  0  0  0
M  END
>  <Index>
513

>  <ID>
HT1019

>  <class>
0

>  <apol>
31.199171

>  <ast_fraglike>
0

>  <ast_fraglike_ext>
0

>  <ast_violation>
2

>  <ast_violation_ext>
2

>  <a_acc>
1

>  <a_acid>
0

>  <a_aro>
6

>  <a_base>
0

>  <a_count>
18

>  <a_don>
0

>  <a_donacc>
1

>  <a_heavy>
14

>  <a_hyd>
13

>  <a_IC>
33.774437

>  <a_ICM>
1.8763577

>  <a_nB>
0

>  <a_nBr>
0

>  <a_nC>
9

>  <a_nCl>
3

>  <a_nF>
0

>  <a_nH>
4

>  <a_nI>
1

>  <a_nN>
0

>  <a_nO>
1

>  <a_nP>
0

>  <a_nS>
0

>  <balabanJ>
2.3163095

>  <BCUT_PEOE_0>
-2.2223771

>  <BCUT_PEOE_1>
-0.66609651

>  <BCUT_PEOE_2>
0.61709619

>  <BCUT_PEOE_3>
2.2247043

>  <BCUT_SLOGP_0>
-2.2639802

>  <BCUT_SLOGP_1>
-0.38431951

>  <BCUT_SLOGP_2>
1.0201887

>  <BCUT_SLOGP_3>
2.423691

>  <BCUT_SMR_0>
-1.9439343

>  <BCUT_SMR_1>
-0.28036019

>  <BCUT_SMR_2>
1.011331

>  <BCUT_SMR_3>
2.5256565

>  <bpol>
11.138828

>  <b_1rotN>
3

>  <b_1rotR>
0.21428572

>  <b_ar>
6

>  <b_count>
18

>  <b_double>
0

>  <b_heavy>
14

>  <b_max1len>
2

>  <b_rotN>
3

>  <b_rotR>
0.21428572

>  <b_single>
11

>  <b_triple>
1

>  <chi0>
10.552042

>  <chi0v>
11.207199

>  <chi0v_C>
4.8618073

>  <chi0_C>
5.8449349

>  <chi1>
6.6470656

>  <chi1v>
5.7196245

>  <chi1v_C>
2.2582538

>  <chi1_C>
3.2996597

>  <chiral>
0

>  <chiral_u>
0

>  <density>
1.2840453

>  <diameter>
9

>  <FCharge>
0

>  <GCUT_PEOE_0>
-0.76036853

>  <GCUT_PEOE_1>
-0.4157314

>  <GCUT_PEOE_2>
0.005872082

>  <GCUT_PEOE_3>
2.0022113

>  <GCUT_SLOGP_0>
-0.89183927

>  <GCUT_SLOGP_1>
-0.1908966

>  <GCUT_SLOGP_2>
0.49340746

>  <GCUT_SLOGP_3>
2.2396233

>  <GCUT_SMR_0>
-0.46939149

>  <GCUT_SMR_1>
-0.09472885

>  <GCUT_SMR_2>
0.45882741

>  <GCUT_SMR_3>
2.3420744

>  <Kier1>
12.071428

>  <Kier2>
5.7777777

>  <Kier3>
3.5918367

>  <KierA1>
15.658305

>  <KierA2>
7.6474161

>  <KierA3>
4.8275309

>  <KierFlex>
8.5532551

>  <lip_acc>
1

>  <lip_don>
0

>  <lip_druglike>
1

>  <lip_violation>
0

>  <logP(o/w)>
5.8049998

>  <logS>
-6.4306002

>  <mr>
6.9077225

>  <mutagenic>
0

>  <nmol>
1

>  <opr_brigid>
7

>  <opr_leadlike>
1

>  <opr_nring>
1

>  <opr_nrot>
3

>  <opr_violation>
0

>  <PC+>
0

>  <PC->
0

>  <PEOE_PC+>
0.69699973

>  <PEOE_PC->
-0.69699973

>  <PEOE_RPC+>
0.16587493

>  <PEOE_RPC->
0.47446942

>  <PEOE_VSA+0>
46.990013

>  <PEOE_VSA+1>
39.079304

>  <PEOE_VSA+2>
14.951293

>  <PEOE_VSA+3>
0

>  <PEOE_VSA+4>
0

>  <PEOE_VSA+5>
0

>  <PEOE_VSA+6>
0

>  <PEOE_VSA-0>
41.149857

>  <PEOE_VSA-1>
104.55434

>  <PEOE_VSA-2>
0

>  <PEOE_VSA-3>
0

>  <PEOE_VSA-4>
0

>  <PEOE_VSA-5>
0

>  <PEOE_VSA-6>
2.503756

>  <PEOE_VSA_FHYD>
0.98995399

>  <PEOE_VSA_FNEG>
0.59466678

>  <PEOE_VSA_FPNEG>
0.010046024

>  <PEOE_VSA_FPOL>
0.010046024

>  <PEOE_VSA_FPOS>
0.40533319

>  <PEOE_VSA_FPPOS>
0

>  <PEOE_VSA_HYD>
246.72481

>  <PEOE_VSA_NEG>
148.20795

>  <PEOE_VSA_PNEG>
2.503756

>  <PEOE_VSA_POL>
2.503756

>  <PEOE_VSA_POS>
101.02061

>  <PEOE_VSA_PPOS>
0

>  <petitjean>
0.44444445

>  <petitjeanSC>
0.80000001

>  <Q_PC+>
0

>  <Q_PC->
0

>  <Q_RPC+>
0

>  <Q_RPC->
0

>  <Q_VSA_FHYD>
1

>  <Q_VSA_FNEG>
0

>  <Q_VSA_FPNEG>
0

>  <Q_VSA_FPOL>
0

>  <Q_VSA_FPOS>
1

>  <Q_VSA_FPPOS>
0

>  <Q_VSA_HYD>
249.22856

>  <Q_VSA_NEG>
0

>  <Q_VSA_PNEG>
0

>  <Q_VSA_POL>
0

>  <Q_VSA_POS>
249.22856

>  <Q_VSA_PPOS>
0

>  <radius>
5

>  <reactive>
0

>  <rings>
1

>  <RPC+>
0

>  <RPC->
0

>  <rsynth>
1

>  <SlogP>
4.4215078

>  <SlogP_VSA0>
10.999887

>  <SlogP_VSA1>
0

>  <SlogP_VSA2>
0

>  <SlogP_VSA3>
53.461475

>  <SlogP_VSA4>
0

>  <SlogP_VSA5>
0

>  <SlogP_VSA6>
10.50182

>  <SlogP_VSA7>
35.286369

>  <SlogP_VSA8>
0

>  <SlogP_VSA9>
179.47137

>  <SMR>
6.8762999

>  <SMR_VSA0>
0

>  <SMR_VSA1>
10.999887

>  <SMR_VSA2>
0

>  <SMR_VSA3>
48.280464

>  <SMR_VSA4>
0

>  <SMR_VSA5>
35.286369

>  <SMR_VSA6>
20.926258

>  <SMR_VSA7>
174.22794

>  <TPSA>
9.2299995

>  <VAdjEq>
0.59167278

>  <VAdjMa>
4.8073549

>  <VDistEq>
2.8923008

>  <VDistMa>
7.2823062

>  <vdw_area>
249.22856

>  <vdw_vol>
281.44879

>  <vsa_acc>
2.503756

>  <vsa_acid>
0

>  <vsa_base>
0

>  <vsa_don>
0

>  <vsa_hyd>
243.87762

>  <vsa_other>
0

>  <vsa_pol>
2.503756

>  <Weight>
361.39301

>  <weinerPath>
329

>  <weinerPol>
18

>  <zagreb>
64

$$$$