S1c2c(C(=O)c3c1cccc3)c(NCCN(CC)CC)ccc2CO
  MOE2013           2D

 25 27  0  0  0  0  0  0  0  0999 V2000
    0.0000    0.0000    0.0000 S   0  0  0  0  0  0  0  0  0  0  0  0
    1.5000   -0.0130    0.0000 C   0  0  0  0  0  0  0  0  0  0  0  0
    2.2390   -1.3190    0.0000 C   0  0  0  0  0  0  0  0  0  0  0  0
    1.4770   -2.6110    0.0000 C   0  0  0  0  0  0  0  0  0  0  0  0
    2.2160   -3.9170    0.0000 O   0  0  0  0  0  0  0  0  0  0  0  0
   -0.0230   -2.5980    0.0000 C   0  0  0  0  0  0  0  0  0  0  0  0
   -0.7610   -1.2920    0.0000 C   0  0  0  0  0  0  0  0  0  0  0  0
   -2.2610   -1.2790    0.0000 C   0  0  0  0  0  0  0  0  0  0  0  0
   -3.0220   -2.5720    0.0000 C   0  0  0  0  0  0  0  0  0  0  0  0
   -2.2840   -3.8770    0.0000 C   0  0  0  0  0  0  0  0  0  0  0  0
   -0.7840   -3.8900    0.0000 C   0  0  0  0  0  0  0  0  0  0  0  0
    3.7390   -1.3320    0.0000 C   0  0  0  0  0  0  0  0  0  0  0  0
    4.4770   -2.6370    0.0000 N   0  0  0  0  0  0  0  0  0  0  0  0
    5.9770   -2.6500    0.0000 C   0  0  0  0  0  0  0  0  0  0  0  0
    6.7160   -3.9560    0.0000 C   0  0  0  0  0  0  0  0  0  0  0  0
    8.2160   -3.9690    0.0000 N   0  0  0  0  0  0  0  0  0  0  0  0
    8.9770   -2.6760    0.0000 C   0  0  0  0  0  0  0  0  0  0  0  0
   10.4770   -2.6890    0.0000 C   0  0  0  0  0  0  0  0  0  0  0  0
    8.9550   -5.2740    0.0000 C   0  0  0  0  0  0  0  0  0  0  0  0
    8.1930   -6.5670    0.0000 C   0  0  0  0  0  0  0  0  0  0  0  0
    4.5000   -0.0390    0.0000 C   0  0  0  0  0  0  0  0  0  0  0  0
    3.7610    1.2660    0.0000 C   0  0  0  0  0  0  0  0  0  0  0  0
    2.2610    1.2790    0.0000 C   0  0  0  0  0  0  0  0  0  0  0  0
    1.5230    2.5850    0.0000 C   0  0  0  0  0  0  0  0  0  0  0  0
    2.2840    3.8770    0.0000 O   0  0  0  0  0  0  0  0  0  0  0  0
  1  2  1  0  0  0  0
  1  7  1  0  0  0  0
  2  3  1  0  0  0  0
  2 23  2  0  0  0  0
  3  4  1  0  0  0  0
  3 12  2  0  0  0  0
  4  5  2  0  0  0  0
  4  6  1  0  0  0  0
  6  7  1  0  0  0  0
  6 11  2  0  0  0  0
  7  8  2  0  0  0  0
  8  9  1  0  0  0  0
  9 10  2  0  0  0  0
 10 11  1  0  0  0  0
 12 13  1  0  0  0  0
 12 21  1  0  0  0  0
 13 14  1  0  0  0  0
 14 15  1  0  0  0  0
 15 16  1  0  0  0  0
 16 17  1  0  0  0  0
 16 19  1  0  0  0  0
 17 18  1  0  0  0  0
 19 20  1  0  0  0  0
 21 22  2  0  0  0  0
 22 23  1  0  0  0  0
 23 24  1  0  0  0  0
 24 25  1  0  0  0  0
M  END
>  <Index>
525

>  <ID>
HT1041

>  <class>
0

>  <apol>
57.907032

>  <ast_fraglike>
0

>  <ast_fraglike_ext>
0

>  <ast_violation>
2

>  <ast_violation_ext>
3

>  <a_acc>
3

>  <a_acid>
0

>  <a_aro>
12

>  <a_base>
0

>  <a_count>
49

>  <a_don>
2

>  <a_donacc>
5

>  <a_heavy>
25

>  <a_hyd>
20

>  <a_IC>
74.64312

>  <a_ICM>
1.523329

>  <a_nB>
0

>  <a_nBr>
0

>  <a_nC>
20

>  <a_nCl>
0

>  <a_nF>
0

>  <a_nH>
24

>  <a_nI>
0

>  <a_nN>
2

>  <a_nO>
2

>  <a_nP>
0

>  <a_nS>
1

>  <balabanJ>
1.6616901

>  <BCUT_PEOE_0>
-2.6839483

>  <BCUT_PEOE_1>
-0.5524441

>  <BCUT_PEOE_2>
0.60408139

>  <BCUT_PEOE_3>
2.5723057

>  <BCUT_SLOGP_0>
-2.7668724

>  <BCUT_SLOGP_1>
-0.43291867

>  <BCUT_SLOGP_2>
0.68399411

>  <BCUT_SLOGP_3>
2.5462241

>  <BCUT_SMR_0>
-2.3978112

>  <BCUT_SMR_1>
-0.39892563

>  <BCUT_SMR_2>
0.78983247

>  <BCUT_SMR_3>
2.8534126

>  <bpol>
32.114967

>  <b_1rotN>
7

>  <b_1rotR>
0.25925925

>  <b_ar>
12

>  <b_count>
51

>  <b_double>
1

>  <b_heavy>
27

>  <b_max1len>
7

>  <b_rotN>
7

>  <b_rotR>
0.25925925

>  <b_single>
38

>  <b_triple>
0

>  <chi0>
17.81119

>  <chi0v>
15.527056

>  <chi0v_C>
12.499636

>  <chi0_C>
13.819627

>  <chi1>
12.189402

>  <chi1v>
9.553134

>  <chi1v_C>
6.2558007

>  <chi1_C>
7.9554548

>  <chiral>
0

>  <chiral_u>
0

>  <density>
0.72508144

>  <diameter>
12

>  <FCharge>
0

>  <GCUT_PEOE_0>
-0.85812742

>  <GCUT_PEOE_1>
-0.42049775

>  <GCUT_PEOE_2>
0.060831137

>  <GCUT_PEOE_3>
2.6697297

>  <GCUT_SLOGP_0>
-0.99204707

>  <GCUT_SLOGP_1>
-0.28919098

>  <GCUT_SLOGP_2>
0.14060454

>  <GCUT_SLOGP_3>
2.765939

>  <GCUT_SMR_0>
-0.5215835

>  <GCUT_SMR_1>
-0.185138

>  <GCUT_SMR_2>
0.20952328

>  <GCUT_SMR_3>
2.9653687

>  <Kier1>
19.753086

>  <Kier2>
9.2739229

>  <Kier3>
4.2958579

>  <KierA1>
16.255177

>  <KierA2>
7.5659542

>  <KierA3>
3.4820266

>  <KierFlex>
4.9194369

>  <lip_acc>
4

>  <lip_don>
2

>  <lip_druglike>
1

>  <lip_violation>
0

>  <logP(o/w)>
3.1559999

>  <logS>
-4.18153

>  <mr>
10.392987

>  <mutagenic>
0

>  <nmol>
1

>  <opr_brigid>
16

>  <opr_leadlike>
1

>  <opr_nring>
3

>  <opr_nrot>
7

>  <opr_violation>
0

>  <PC+>
0

>  <PC->
0

>  <PEOE_PC+>
1.7881079

>  <PEOE_PC->
-1.7881079

>  <PEOE_RPC+>
0.11735734

>  <PEOE_RPC->
0.2183207

>  <PEOE_VSA+0>
103.37735

>  <PEOE_VSA+1>
51.282921

>  <PEOE_VSA+2>
8.6190128

>  <PEOE_VSA+3>
8.458519

>  <PEOE_VSA+4>
10.324173

>  <PEOE_VSA+5>
0

>  <PEOE_VSA+6>
0

>  <PEOE_VSA-0>
65.357903

>  <PEOE_VSA-1>
94.020683

>  <PEOE_VSA-2>
0

>  <PEOE_VSA-3>
0

>  <PEOE_VSA-4>
0

>  <PEOE_VSA-5>
13.703812

>  <PEOE_VSA-6>
7.7675405

>  <PEOE_VSA_FHYD>
0.91238779

>  <PEOE_VSA_FNEG>
0.49833012

>  <PEOE_VSA_FPNEG>
0.059164088

>  <PEOE_VSA_FPOL>
0.087612242

>  <PEOE_VSA_FPOS>
0.50166988

>  <PEOE_VSA_FPPOS>
0.02844815

>  <PEOE_VSA_HYD>
331.11639

>  <PEOE_VSA_NEG>
180.84995

>  <PEOE_VSA_PNEG>
21.471352

>  <PEOE_VSA_POL>
31.795525

>  <PEOE_VSA_POS>
182.06197

>  <PEOE_VSA_PPOS>
10.324173

>  <petitjean>
0.5

>  <petitjeanSC>
1

>  <Q_PC+>
0

>  <Q_PC->
0

>  <Q_RPC+>
0

>  <Q_RPC->
0

>  <Q_VSA_FHYD>
1

>  <Q_VSA_FNEG>
0

>  <Q_VSA_FPNEG>
0

>  <Q_VSA_FPOL>
0

>  <Q_VSA_FPOS>
1

>  <Q_VSA_FPPOS>
0

>  <Q_VSA_HYD>
362.9119

>  <Q_VSA_NEG>
0

>  <Q_VSA_PNEG>
0

>  <Q_VSA_POL>
0

>  <Q_VSA_POS>
362.9119

>  <Q_VSA_PPOS>
0

>  <radius>
6

>  <reactive>
1

>  <rings>
3

>  <RPC+>
0

>  <RPC->
0

>  <rsynth>
0.31999999

>  <SlogP>
3.8945999

>  <SlogP_VSA0>
25.385227

>  <SlogP_VSA1>
26.822676

>  <SlogP_VSA2>
0

>  <SlogP_VSA3>
73.758316

>  <SlogP_VSA4>
33.418941

>  <SlogP_VSA5>
3.1014678

>  <SlogP_VSA6>
0

>  <SlogP_VSA7>
105.85911

>  <SlogP_VSA8>
0

>  <SlogP_VSA9>
122.55458

>  <SMR>
10.2846

>  <SMR_VSA0>
23.862217

>  <SMR_VSA1>
28.509541

>  <SMR_VSA2>
3.1014678

>  <SMR_VSA3>
9.5567245

>  <SMR_VSA4>
20.767498

>  <SMR_VSA5>
126.78536

>  <SMR_VSA6>
79.445923

>  <SMR_VSA7>
98.871574

>  <TPSA>
52.57

>  <VAdjEq>
0.42433795

>  <VAdjMa>
5.7548876

>  <VDistEq>
3.3721454

>  <VDistMa>
9.0005608

>  <vdw_area>
362.9119

>  <vdw_vol>
491.65512

>  <vsa_acc>
13.566921

>  <vsa_acid>
0

>  <vsa_base>
0

>  <vsa_don>
5.6825762

>  <vsa_hyd>
298.37936

>  <vsa_other>
8.458519

>  <vsa_pol>
32.816418

>  <Weight>
356.48999

>  <weinerPath>
1502

>  <weinerPol>
43

>  <zagreb>
128

$$$$