OC(=O)c1ccncc1
  MOE2013           2D

  9  9  0  0  0  0  0  0  0  0999 V2000
    0.0000    0.0000    0.0000 O   0  0  0  0  0  0  0  0  0  0  0  0
    0.7500   -1.2990    0.0000 C   0  0  0  0  0  0  0  0  0  0  0  0
    0.0000   -2.5980    0.0000 O   0  0  0  0  0  0  0  0  0  0  0  0
    2.2500   -1.2990    0.0000 C   0  0  0  0  0  0  0  0  0  0  0  0
    3.0000   -2.5980    0.0000 C   0  0  0  0  0  0  0  0  0  0  0  0
    4.5000   -2.5980    0.0000 C   0  0  0  0  0  0  0  0  0  0  0  0
    5.2500   -1.2990    0.0000 N   0  0  0  0  0  0  0  0  0  0  0  0
    4.5000    0.0000    0.0000 C   0  0  0  0  0  0  0  0  0  0  0  0
    3.0000    0.0000    0.0000 C   0  0  0  0  0  0  0  0  0  0  0  0
  1  2  1  0  0  0  0
  2  3  2  0  0  0  0
  2  4  1  0  0  0  0
  4  5  1  0  0  0  0
  4  9  2  0  0  0  0
  5  6  2  0  0  0  0
  6  7  1  0  0  0  0
  7  8  2  0  0  0  0
  8  9  1  0  0  0  0
M  END
>  <Index>
574

>  <ID>
HT1136

>  <class>
0

>  <apol>
16.597965

>  <ast_fraglike>
1

>  <ast_fraglike_ext>
1

>  <ast_violation>
0

>  <ast_violation_ext>
0

>  <a_acc>
3

>  <a_acid>
0

>  <a_aro>
6

>  <a_base>
0

>  <a_count>
14

>  <a_don>
2

>  <a_donacc>
5

>  <a_heavy>
9

>  <a_hyd>
5

>  <a_IC>
24.183554

>  <a_ICM>
1.7273967

>  <a_nB>
0

>  <a_nBr>
0

>  <a_nC>
6

>  <a_nCl>
0

>  <a_nF>
0

>  <a_nH>
5

>  <a_nI>
0

>  <a_nN>
1

>  <a_nO>
2

>  <a_nP>
0

>  <a_nS>
0

>  <balabanJ>
2.2906082

>  <BCUT_PEOE_0>
-2.1100764

>  <BCUT_PEOE_1>
-0.61284113

>  <BCUT_PEOE_2>
0.69247538

>  <BCUT_PEOE_3>
2.1505072

>  <BCUT_SLOGP_0>
-2.1066239

>  <BCUT_SLOGP_1>
-0.530339

>  <BCUT_SLOGP_2>
0.75752091

>  <BCUT_SLOGP_3>
2.1943703

>  <BCUT_SMR_0>
-1.8147049

>  <BCUT_SMR_1>
-0.46540567

>  <BCUT_SMR_2>
0.82290882

>  <BCUT_SMR_3>
2.4396706

>  <bpol>
7.7440348

>  <b_1rotN>
1

>  <b_1rotR>
0.11111111

>  <b_ar>
6

>  <b_count>
14

>  <b_double>
1

>  <b_heavy>
9

>  <b_max1len>
1

>  <b_rotN>
1

>  <b_rotR>
0.11111111

>  <b_single>
7

>  <b_triple>
0

>  <chi0>
6.6902347

>  <chi0v>
4.6120768

>  <chi0v_C>
3.309401

>  <chi0_C>
3.9831276

>  <chi1>
4.3045306

>  <chi1v>
2.4381456

>  <chi1v_C>
1.4940169

>  <chi1_C>
2.1498299

>  <chiral>
0

>  <chiral_u>
0

>  <density>
0.79981369

>  <diameter>
5

>  <FCharge>
0

>  <GCUT_PEOE_0>
-0.74716377

>  <GCUT_PEOE_1>
-0.44947356

>  <GCUT_PEOE_2>
0.13926418

>  <GCUT_PEOE_3>
1.8901254

>  <GCUT_SLOGP_0>
-0.85441077

>  <GCUT_SLOGP_1>
-0.36304042

>  <GCUT_SLOGP_2>
0.19345701

>  <GCUT_SLOGP_3>
1.9453789

>  <GCUT_SMR_0>
-0.40378866

>  <GCUT_SMR_1>
-0.23122393

>  <GCUT_SMR_2>
0.23952872

>  <GCUT_SMR_3>
2.1684647

>  <Kier1>
7.1111112

>  <Kier2>
3.2396693

>  <Kier3>
2

>  <KierA1>
4.6048775

>  <KierA2>
1.9658833

>  <KierA3>
1.1377991

>  <KierFlex>
1.0058502

>  <lip_acc>
3

>  <lip_don>
1

>  <lip_druglike>
1

>  <lip_violation>
0

>  <logP(o/w)>
0.35100001

>  <logS>
-0.096139997

>  <mr>
3.3054912

>  <mutagenic>
0

>  <nmol>
1

>  <opr_brigid>
6

>  <opr_leadlike>
1

>  <opr_nring>
1

>  <opr_nrot>
1

>  <opr_violation>
0

>  <PC+>
0

>  <PC->
0

>  <PEOE_PC+>
0.91158468

>  <PEOE_PC->
-0.91158468

>  <PEOE_RPC+>
0.31958607

>  <PEOE_RPC->
0.35925201

>  <PEOE_VSA+0>
35.700371

>  <PEOE_VSA+1>
17.061544

>  <PEOE_VSA+2>
0

>  <PEOE_VSA+3>
0

>  <PEOE_VSA+4>
10.324173

>  <PEOE_VSA+5>
14.708499

>  <PEOE_VSA+6>
0

>  <PEOE_VSA-0>
24.509808

>  <PEOE_VSA-1>
0

>  <PEOE_VSA-2>
0

>  <PEOE_VSA-3>
0

>  <PEOE_VSA-4>
0

>  <PEOE_VSA-5>
19.249496

>  <PEOE_VSA-6>
7.7675405

>  <PEOE_VSA_FHYD>
0.59751678

>  <PEOE_VSA_FNEG>
0.39844009

>  <PEOE_VSA_FPNEG>
0.20891385

>  <PEOE_VSA_FPOL>
0.40248325

>  <PEOE_VSA_FPOS>
0.60155988

>  <PEOE_VSA_FPPOS>
0.19356941

>  <PEOE_VSA_HYD>
77.271721

>  <PEOE_VSA_NEG>
51.526844

>  <PEOE_VSA_PNEG>
27.017036

>  <PEOE_VSA_POL>
52.049709

>  <PEOE_VSA_POS>
77.794586

>  <PEOE_VSA_PPOS>
25.032671

>  <petitjean>
0.40000001

>  <petitjeanSC>
0.66666669

>  <Q_PC+>
0

>  <Q_PC->
0

>  <Q_RPC+>
0

>  <Q_RPC->
0

>  <Q_VSA_FHYD>
1

>  <Q_VSA_FNEG>
0

>  <Q_VSA_FPNEG>
0

>  <Q_VSA_FPOL>
0

>  <Q_VSA_FPOS>
1

>  <Q_VSA_FPPOS>
0

>  <Q_VSA_HYD>
129.32143

>  <Q_VSA_NEG>
0

>  <Q_VSA_PNEG>
0

>  <Q_VSA_POL>
0

>  <Q_VSA_POS>
129.32143

>  <Q_VSA_PPOS>
0

>  <radius>
3

>  <reactive>
0

>  <rings>
1

>  <RPC+>
0

>  <RPC->
0

>  <rsynth>
1

>  <SlogP>
0.7798

>  <SlogP_VSA0>
0

>  <SlogP_VSA1>
24.530994

>  <SlogP_VSA2>
0

>  <SlogP_VSA3>
25.385227

>  <SlogP_VSA4>
27.047791

>  <SlogP_VSA5>
0

>  <SlogP_VSA6>
0

>  <SlogP_VSA7>
69.71508

>  <SlogP_VSA8>
0

>  <SlogP_VSA9>
0

>  <SMR>
3.1196301

>  <SMR_VSA0>
23.862217

>  <SMR_VSA1>
16.78553

>  <SMR_VSA2>
25.385227

>  <SMR_VSA3>
3.185575

>  <SMR_VSA4>
0

>  <SMR_VSA5>
69.71508

>  <SMR_VSA6>
7.7454643

>  <SMR_VSA7>
0

>  <TPSA>
50.189999

>  <VAdjEq>
0.7642045

>  <VAdjMa>
4.1699252

>  <VDistEq>
2.1498685

>  <VDistMa>
6.0047355

>  <vdw_area>
129.32143

>  <vdw_vol>
153.92461

>  <vsa_acc>
5.6825762

>  <vsa_acid>
0

>  <vsa_base>
0

>  <vsa_don>
0

>  <vsa_hyd>
74.424538

>  <vsa_other>
14.708499

>  <vsa_pol>
32.816418

>  <Weight>
123.111

>  <weinerPath>
88

>  <weinerPol>
9

>  <zagreb>
40

$$$$