O=C1CC[C@@]2([C@@H]3[C@H]([C@@H]4CC[C@](O)(C(=O)COC(=O)C)[C@]4(C[C@@H]3O)C)CCC2=C1)C
  MOE2013           2D

 29 32  0  0  1  0  0  0  0  0999 V2000
    0.0000    0.0000    0.0000 O   0  0  0  0  0  0  0  0  0  0  0  0
    1.5000    0.0110    0.0000 C   0  0  0  0  0  0  0  0  0  0  0  0
    2.2590   -1.2830    0.0000 C   0  0  0  0  0  0  0  0  0  0  0  0
    3.7590   -1.2720    0.0000 C   0  0  0  0  0  0  0  0  0  0  0  0
    4.5000    0.0320    0.0000 C   0  0  2  0  0  0  0  0  0  0  0  0
    6.0000    0.0430    0.0000 C   0  0  2  0  0  0  0  0  0  0  0  0
    6.7410    1.3470    0.0000 C   0  0  2  0  0  0  0  0  0  0  0  0
    8.2410    1.3580    0.0000 C   0  0  2  0  0  0  0  0  0  0  0  0
    9.2360    2.4800    0.0000 C   0  0  0  0  0  0  0  0  0  0  0  0
   10.6110    1.8790    0.0000 C   0  0  0  0  0  0  0  0  0  0  0  0
   10.4650    0.3860    0.0000 C   0  0  2  0  0  0  0  0  0  0  0  0
   10.8630   -1.0600    0.0000 O   0  0  0  0  0  0  0  0  0  0  0  0
   11.9290    0.0590    0.0000 C   0  0  0  0  0  0  0  0  0  0  0  0
   12.3770   -1.3720    0.0000 O   0  0  0  0  0  0  0  0  0  0  0  0
   12.9440    1.1640    0.0000 C   0  0  0  0  0  0  0  0  0  0  0  0
   14.4080    0.8370    0.0000 O   0  0  0  0  0  0  0  0  0  0  0  0
   15.4230    1.9410    0.0000 C   0  0  0  0  0  0  0  0  0  0  0  0
   16.8870    1.6140    0.0000 O   0  0  0  0  0  0  0  0  0  0  0  0
   14.9740    3.3720    0.0000 C   0  0  0  0  0  0  0  0  0  0  0  0
    9.0000    0.0640    0.0000 C   0  0  1  0  0  0  0  0  0  0  0  0
    8.2590   -1.2400    0.0000 C   0  0  0  0  0  0  0  0  0  0  0  0
    6.7590   -1.2510    0.0000 C   0  0  2  0  0  0  0  0  0  0  0  0
    6.0180   -2.5550    0.0000 O   0  0  0  0  0  0  0  0  0  0  0  0
    9.8900   -1.1430    0.0000 C   0  0  0  0  0  0  0  0  0  0  0  0
    5.9810    2.6410    0.0000 C   0  0  0  0  0  0  0  0  0  0  0  0
    4.4810    2.6300    0.0000 C   0  0  0  0  0  0  0  0  0  0  0  0
    3.7410    1.3260    0.0000 C   0  0  0  0  0  0  0  0  0  0  0  0
    2.2410    1.3150    0.0000 C   0  0  0  0  0  0  0  0  0  0  0  0
    5.2820   -1.2480    0.0000 C   0  0  0  0  0  0  0  0  0  0  0  0
  1  2  2  0  0  0  0
  2  3  1  0  0  0  0
  2 28  1  0  0  0  0
  3  4  1  0  0  0  0
  4  5  1  0  0  0  0
  5 27  1  0  0  0  0
  5 29  1  6  0  0  0
  6  5  1  6  0  0  0
  6  7  1  0  0  0  0
  6 22  1  0  0  0  0
  7  8  1  0  0  0  0
  7 25  1  1  0  0  0
  8  9  1  6  0  0  0
  8 20  1  0  0  0  0
  9 10  1  0  0  0  0
 10 11  1  0  0  0  0
 11 12  1  1  0  0  0
 11 13  1  6  0  0  0
 11 20  1  0  0  0  0
 13 14  2  0  0  0  0
 13 15  1  0  0  0  0
 15 16  1  0  0  0  0
 16 17  1  0  0  0  0
 17 18  2  0  0  0  0
 17 19  1  0  0  0  0
 20 21  1  0  0  0  0
 20 24  1  6  0  0  0
 21 22  1  0  0  0  0
 22 23  1  6  0  0  0
 25 26  1  0  0  0  0
 26 27  1  0  0  0  0
 27 28  2  0  0  0  0
M  END
>  <Index>
530

>  <ID>
HT1048

>  <class>
0

>  <apol>
66.629379

>  <ast_fraglike>
0

>  <ast_fraglike_ext>
0

>  <ast_violation>
2

>  <ast_violation_ext>
3

>  <a_acc>
5

>  <a_acid>
0

>  <a_aro>
0

>  <a_base>
0

>  <a_count>
61

>  <a_don>
2

>  <a_donacc>
7

>  <a_heavy>
29

>  <a_hyd>
20

>  <a_IC>
82.223274

>  <a_ICM>
1.3479226

>  <a_nB>
0

>  <a_nBr>
0

>  <a_nC>
23

>  <a_nCl>
0

>  <a_nF>
0

>  <a_nH>
32

>  <a_nI>
0

>  <a_nN>
0

>  <a_nO>
6

>  <a_nP>
0

>  <a_nS>
0

>  <balabanJ>
1.6030493

>  <BCUT_PEOE_0>
-2.938437

>  <BCUT_PEOE_1>
-0.49903113

>  <BCUT_PEOE_2>
0.42616948

>  <BCUT_PEOE_3>
2.9809704

>  <BCUT_SLOGP_0>
-2.9095585

>  <BCUT_SLOGP_1>
-0.46553984

>  <BCUT_SLOGP_2>
0.45051384

>  <BCUT_SLOGP_3>
3.0162144

>  <BCUT_SMR_0>
-2.691525

>  <BCUT_SMR_1>
-0.32544318

>  <BCUT_SMR_2>
0.61084276

>  <BCUT_SMR_3>
3.2220182

>  <bpol>
39.772625

>  <b_1rotN>
3

>  <b_1rotR>
0.09375

>  <b_ar>
0

>  <b_count>
64

>  <b_double>
4

>  <b_heavy>
32

>  <b_max1len>
5

>  <b_rotN>
4

>  <b_rotR>
0.125

>  <b_single>
60

>  <b_triple>
0

>  <chi0>
21.189871

>  <chi0v>
17.571026

>  <chi0v_C>
15.043606

>  <chi0_C>
15.482763

>  <chi1>
13.526346

>  <chi1v>
10.837743

>  <chi1v_C>
9.2507658

>  <chi1_C>
9.8086977

>  <chiral>
7

>  <chiral_u>
0

>  <density>
0.74149519

>  <diameter>
14

>  <FCharge>
0

>  <GCUT_PEOE_0>
-0.80083984

>  <GCUT_PEOE_1>
-0.38144782

>  <GCUT_PEOE_2>
0.010147561

>  <GCUT_PEOE_3>
3.3746188

>  <GCUT_SLOGP_0>
-0.9406271

>  <GCUT_SLOGP_1>
-0.33835351

>  <GCUT_SLOGP_2>
-0.0082329046

>  <GCUT_SLOGP_3>
3.4162467

>  <GCUT_SMR_0>
-0.53918028

>  <GCUT_SMR_1>
-0.22535609

>  <GCUT_SMR_2>
0.13582131

>  <GCUT_SMR_3>
3.5952861

>  <Kier1>
22.203125

>  <Kier2>
7.5488167

>  <Kier3>
3.2770083

>  <KierA1>
19.585484

>  <KierA2>
6.6276693

>  <KierA3>
2.8672035

>  <KierFlex>
4.4760728

>  <lip_acc>
6

>  <lip_don>
2

>  <lip_druglike>
1

>  <lip_violation>
0

>  <logP(o/w)>
1.603

>  <logS>
-3.55284

>  <mr>
10.653534

>  <mutagenic>
0

>  <nmol>
1

>  <opr_brigid>
20

>  <opr_leadlike>
1

>  <opr_nring>
4

>  <opr_nrot>
3

>  <opr_violation>
0

>  <PC+>
0

>  <PC->
0

>  <PEOE_PC+>
2.3819315

>  <PEOE_PC->
-2.3819315

>  <PEOE_RPC+>
0.10891599

>  <PEOE_RPC->
0.16434376

>  <PEOE_VSA+0>
138.34903

>  <PEOE_VSA+1>
21.966473

>  <PEOE_VSA+2>
14.951293

>  <PEOE_VSA+3>
16.917038

>  <PEOE_VSA+4>
20.648346

>  <PEOE_VSA+5>
14.708499

>  <PEOE_VSA+6>
0

>  <PEOE_VSA-0>
64.462784

>  <PEOE_VSA-1>
39.703896

>  <PEOE_VSA-2>
0

>  <PEOE_VSA-3>
0

>  <PEOE_VSA-4>
0

>  <PEOE_VSA-5>
40.700764

>  <PEOE_VSA-6>
18.038837

>  <PEOE_VSA_FHYD>
0.75900328

>  <PEOE_VSA_FNEG>
0.41723025

>  <PEOE_VSA_FPNEG>
0.15044194

>  <PEOE_VSA_FPOL>
0.24099675

>  <PEOE_VSA_FPOS>
0.58276975

>  <PEOE_VSA_FPPOS>
0.090554796

>  <PEOE_VSA_HYD>
296.35052

>  <PEOE_VSA_NEG>
162.90628

>  <PEOE_VSA_PNEG>
58.739597

>  <PEOE_VSA_POL>
94.096443

>  <PEOE_VSA_POS>
227.54068

>  <PEOE_VSA_PPOS>
35.356846

>  <petitjean>
0.5

>  <petitjeanSC>
1

>  <Q_PC+>
0

>  <Q_PC->
0

>  <Q_RPC+>
0

>  <Q_RPC->
0

>  <Q_VSA_FHYD>
1

>  <Q_VSA_FNEG>
0

>  <Q_VSA_FPNEG>
0

>  <Q_VSA_FPOL>
0

>  <Q_VSA_FPOS>
1

>  <Q_VSA_FPPOS>
0

>  <Q_VSA_HYD>
390.44696

>  <Q_VSA_NEG>
0

>  <Q_VSA_PNEG>
0

>  <Q_VSA_POL>
0

>  <Q_VSA_POS>
390.44696

>  <Q_VSA_PPOS>
0

>  <radius>
7

>  <reactive>
1

>  <rings>
4

>  <RPC+>
0

>  <RPC->
0

>  <rsynth>
0.13793103

>  <SlogP>
2.3524001

>  <SlogP_VSA0>
50.770454

>  <SlogP_VSA1>
19.120686

>  <SlogP_VSA2>
89.055183

>  <SlogP_VSA3>
20.926258

>  <SlogP_VSA4>
13.232388

>  <SlogP_VSA5>
3.185575

>  <SlogP_VSA6>
0

>  <SlogP_VSA7>
17.643185

>  <SlogP_VSA8>
132.07884

>  <SlogP_VSA9>
99.978043

>  <SMR>
10.46896

>  <SMR_VSA0>
82.58654

>  <SMR_VSA1>
50.770454

>  <SMR_VSA2>
13.232388

>  <SMR_VSA3>
9.6542244

>  <SMR_VSA4>
0

>  <SMR_VSA5>
149.72202

>  <SMR_VSA6>
40.046944

>  <SMR_VSA7>
99.978043

>  <TPSA>
100.9

>  <VAdjEq>
0.38828552

>  <VAdjMa>
6

>  <VDistEq>
3.4160271

>  <VDistMa>
9.4304848

>  <vdw_area>
390.44696

>  <vdw_vol>
545.52344

>  <vsa_acc>
40.700764

>  <vsa_acid>
0

>  <vsa_base>
0

>  <vsa_don>
0

>  <vsa_hyd>
254.04446

>  <vsa_other>
34.129295

>  <vsa_pol>
67.834602

>  <Weight>
404.50299

>  <weinerPath>
2039

>  <weinerPol>
62

>  <zagreb>
168

$$$$