O1C(COC12CCCCC2)CNC(N)=N
  MOE2013           2D

 15 16  0  0  1  0  0  0  0  0999 V2000
    0.0000    0.0000    0.0000 O   0  0  0  0  0  0  0  0  0  0  0  0
    1.4500   -0.3830    0.0000 C   0  0  3  0  0  0  0  0  0  0  0  0
    1.5340   -1.8810    0.0000 C   0  0  0  0  0  0  0  0  0  0  0  0
    0.1360   -2.4230    0.0000 O   0  0  0  0  0  0  0  0  0  0  0  0
   -0.8130   -1.2610    0.0000 C   0  0  0  0  0  0  0  0  0  0  0  0
   -1.4890   -2.6000    0.0000 C   0  0  0  0  0  0  0  0  0  0  0  0
   -2.9860   -2.6840    0.0000 C   0  0  0  0  0  0  0  0  0  0  0  0
   -3.8080   -1.4280    0.0000 C   0  0  0  0  0  0  0  0  0  0  0  0
   -3.1320   -0.0900    0.0000 C   0  0  0  0  0  0  0  0  0  0  0  0
   -1.6340   -0.0060    0.0000 C   0  0  0  0  0  0  0  0  0  0  0  0
    2.6130    0.5650    0.0000 C   0  0  0  0  0  0  0  0  0  0  0  0
    4.0150    0.0320    0.0000 N   0  0  0  0  0  0  0  0  0  0  0  0
    5.1770    0.9800    0.0000 C   0  0  0  0  0  0  0  0  0  0  0  0
    4.9370    2.4610    0.0000 N   0  0  0  0  0  0  0  0  0  0  0  0
    6.5800    0.4480    0.0000 N   0  0  0  0  0  0  0  0  0  0  0  0
  1  2  1  0  0  0  0
  1  5  1  0  0  0  0
  2  3  1  0  0  0  0
  2 11  1  0  0  0  0
  3  4  1  0  0  0  0
  4  5  1  0  0  0  0
  5  6  1  0  0  0  0
  5 10  1  0  0  0  0
  6  7  1  0  0  0  0
  7  8  1  0  0  0  0
  8  9  1  0  0  0  0
  9 10  1  0  0  0  0
 11 12  1  0  0  0  0
 12 13  1  0  0  0  0
 13 14  1  0  0  0  0
 13 15  2  0  0  0  0
M  END
>  <Index>
505

>  <ID>
HT1008

>  <class>
0

>  <apol>
35.173065

>  <ast_fraglike>
1

>  <ast_fraglike_ext>
0

>  <ast_violation>
0

>  <ast_violation_ext>
1

>  <a_acc>
3

>  <a_acid>
0

>  <a_aro>
0

>  <a_base>
0

>  <a_count>
34

>  <a_don>
3

>  <a_donacc>
6

>  <a_heavy>
15

>  <a_hyd>
8

>  <a_IC>
52.288944

>  <a_ICM>
1.5379101

>  <a_nB>
0

>  <a_nBr>
0

>  <a_nC>
10

>  <a_nCl>
0

>  <a_nF>
0

>  <a_nH>
19

>  <a_nI>
0

>  <a_nN>
3

>  <a_nO>
2

>  <a_nP>
0

>  <a_nS>
0

>  <balabanJ>
1.7768581

>  <BCUT_PEOE_0>
-2.7557538

>  <BCUT_PEOE_1>
-0.50025743

>  <BCUT_PEOE_2>
0.63552332

>  <BCUT_PEOE_3>
2.8025758

>  <BCUT_SLOGP_0>
-2.7710679

>  <BCUT_SLOGP_1>
-0.48418739

>  <BCUT_SLOGP_2>
0.66902083

>  <BCUT_SLOGP_3>
2.8544366

>  <BCUT_SMR_0>
-2.5258262

>  <BCUT_SMR_1>
-0.38476846

>  <BCUT_SMR_2>
0.78690028

>  <BCUT_SMR_3>
3.0265737

>  <bpol>
24.602934

>  <b_1rotN>
2

>  <b_1rotR>
0.125

>  <b_ar>
0

>  <b_count>
35

>  <b_double>
1

>  <b_heavy>
16

>  <b_max1len>
4

>  <b_rotN>
3

>  <b_rotR>
0.1875

>  <b_single>
34

>  <b_triple>
0

>  <chi0>
10.725768

>  <chi0v>
8.9209442

>  <chi0v_C>
6.5270977

>  <chi0_C>
6.6044478

>  <chi1>
7.2019072

>  <chi1v>
5.5984573

>  <chi1v_C>
3.5236034

>  <chi1_C>
3.5236034

>  <chiral>
1

>  <chiral_u>
1

>  <density>
0.73415285

>  <diameter>
9

>  <FCharge>
0

>  <GCUT_PEOE_0>
-0.84482855

>  <GCUT_PEOE_1>
-0.40951502

>  <GCUT_PEOE_2>
0.026830679

>  <GCUT_PEOE_3>
2.6605978

>  <GCUT_SLOGP_0>
-1.3710334

>  <GCUT_SLOGP_1>
-0.29771894

>  <GCUT_SLOGP_2>
0.054200001

>  <GCUT_SLOGP_3>
2.6820242

>  <GCUT_SMR_0>
-0.52908629

>  <GCUT_SMR_1>
-0.22790159

>  <GCUT_SMR_2>
0.17034681

>  <GCUT_SMR_3>
2.8711925

>  <Kier1>
11.484375

>  <Kier2>
4.8884296

>  <Kier3>
2.9822485

>  <KierA1>
10.012151

>  <KierA2>
4.2169461

>  <KierA3>
2.5504477

>  <KierFlex>
2.8147132

>  <lip_acc>
5

>  <lip_don>
4

>  <lip_druglike>
1

>  <lip_violation>
0

>  <logP(o/w)>
1.872

>  <logS>
-1.8723

>  <mr>
5.634624

>  <mutagenic>
0

>  <nmol>
1

>  <opr_brigid>
12

>  <opr_leadlike>
1

>  <opr_nring>
2

>  <opr_nrot>
6

>  <opr_violation>
0

>  <PC+>
0

>  <PC->
0

>  <PEOE_PC+>
1.8292683

>  <PEOE_PC->
-1.8292683

>  <PEOE_RPC+>
0.10373615

>  <PEOE_RPC->
0.20233887

>  <PEOE_VSA+0>
73.24881

>  <PEOE_VSA+1>
36.278225

>  <PEOE_VSA+2>
4.9049287

>  <PEOE_VSA+3>
51.266171

>  <PEOE_VSA+4>
0

>  <PEOE_VSA+5>
0

>  <PEOE_VSA+6>
0

>  <PEOE_VSA-0>
17.402626

>  <PEOE_VSA-1>
8.701313

>  <PEOE_VSA-2>
0

>  <PEOE_VSA-3>
0

>  <PEOE_VSA-4>
0

>  <PEOE_VSA-5>
12.196804

>  <PEOE_VSA-6>
11.795523

>  <PEOE_VSA_FHYD>
0.88881856

>  <PEOE_VSA_FNEG>
0.23214813

>  <PEOE_VSA_FPNEG>
0.11118142

>  <PEOE_VSA_FPOL>
0.11118142

>  <PEOE_VSA_FPOS>
0.76785189

>  <PEOE_VSA_FPPOS>
0

>  <PEOE_VSA_HYD>
191.80208

>  <PEOE_VSA_NEG>
50.096268

>  <PEOE_VSA_PNEG>
23.992327

>  <PEOE_VSA_POL>
23.992327

>  <PEOE_VSA_POS>
165.69814

>  <PEOE_VSA_PPOS>
0

>  <petitjean>
0.44444445

>  <petitjeanSC>
0.80000001

>  <Q_PC+>
0

>  <Q_PC->
0

>  <Q_RPC+>
0

>  <Q_RPC->
0

>  <Q_VSA_FHYD>
1

>  <Q_VSA_FNEG>
0

>  <Q_VSA_FPNEG>
0

>  <Q_VSA_FPOL>
0

>  <Q_VSA_FPOS>
1

>  <Q_VSA_FPPOS>
0

>  <Q_VSA_HYD>
215.7944

>  <Q_VSA_NEG>
0

>  <Q_VSA_PNEG>
0

>  <Q_VSA_POL>
0

>  <Q_VSA_POS>
215.7944

>  <Q_VSA_PPOS>
0

>  <radius>
5

>  <reactive>
1

>  <rings>
2

>  <RPC+>
0

>  <RPC->
0

>  <rsynth>
1

>  <SlogP>
0.54527003

>  <SlogP_VSA0>
50.90794

>  <SlogP_VSA1>
1.8990928

>  <SlogP_VSA2>
28.468426

>  <SlogP_VSA3>
39.365837

>  <SlogP_VSA4>
0

>  <SlogP_VSA5>
0

>  <SlogP_VSA6>
0

>  <SlogP_VSA7>
31.671967

>  <SlogP_VSA8>
94.342026

>  <SlogP_VSA9>
0

>  <SMR>
5.6557798

>  <SMR_VSA0>
21.999775

>  <SMR_VSA1>
0

>  <SMR_VSA2>
49.682716

>  <SMR_VSA3>
6.4686494

>  <SMR_VSA4>
32.897186

>  <SMR_VSA5>
94.342026

>  <SMR_VSA6>
41.264931

>  <SMR_VSA7>
0

>  <TPSA>
80.360001

>  <VAdjEq>
0.59002918

>  <VAdjMa>
5

>  <VDistEq>
2.9496825

>  <VDistMa>
7.4751921

>  <vdw_area>
215.7944

>  <vdw_vol>
290.51306

>  <vsa_acc>
5.0075121

>  <vsa_acid>
0

>  <vsa_base>
0

>  <vsa_don>
23.425066

>  <vsa_hyd>
129.85898

>  <vsa_other>
16.790119

>  <vsa_pol>
46.175068

>  <Weight>
213.28099

>  <weinerPath>
391

>  <weinerPol>
18

>  <zagreb>
76

$$$$