O(C)c1cc2c(CC2CN(CCCN2CCc3cc(OC)c(OC)cc3CC2=O)C)cc1OC
  MOE2013           2D

 34 37  0  0  1  0  0  0  0  0999 V2000
    0.0000    0.0000    0.0000 O   0  0  0  0  0  0  0  0  0  0  0  0
    0.7550   -1.2960    0.0000 C   0  0  0  0  0  0  0  0  0  0  0  0
    0.7450    1.3020    0.0000 C   0  0  0  0  0  0  0  0  0  0  0  0
    2.2450    1.3070    0.0000 C   0  0  0  0  0  0  0  0  0  0  0  0
    2.9900    2.6090    0.0000 C   0  0  0  0  0  0  0  0  0  0  0  0
    2.2360    3.9050    0.0000 C   0  0  0  0  0  0  0  0  0  0  0  0
    3.5320    4.6600    0.0000 C   0  0  0  0  0  0  0  0  0  0  0  0
    4.2870    3.3640    0.0000 C   0  0  3  0  0  0  0  0  0  0  0  0
    5.7370    2.9810    0.0000 C   0  0  0  0  0  0  0  0  0  0  0  0
    6.7940    4.0450    0.0000 N   0  0  3  0  0  0  0  0  0  0  0  0
    8.2440    3.6620    0.0000 C   0  0  0  0  0  0  0  0  0  0  0  0
    9.3010    4.7270    0.0000 C   0  0  0  0  0  0  0  0  0  0  0  0
   10.7510    4.3440    0.0000 C   0  0  0  0  0  0  0  0  0  0  0  0
   11.8080    5.4090    0.0000 N   0  0  0  0  0  0  0  0  0  0  0  0
   11.3070    6.8220    0.0000 C   0  0  0  0  0  0  0  0  0  0  0  0
   12.0990    8.0960    0.0000 C   0  0  0  0  0  0  0  0  0  0  0  0
   13.5900    8.2690    0.0000 C   0  0  0  0  0  0  0  0  0  0  0  0
   13.9720    9.7190    0.0000 C   0  0  0  0  0  0  0  0  0  0  0  0
   15.4200   10.1130    0.0000 C   0  0  0  0  0  0  0  0  0  0  0  0
   15.8030   11.5630    0.0000 O   0  0  0  0  0  0  0  0  0  0  0  0
   14.7380   12.6200    0.0000 C   0  0  0  0  0  0  0  0  0  0  0  0
   16.4840    9.0560    0.0000 C   0  0  0  0  0  0  0  0  0  0  0  0
   17.9320    9.4490    0.0000 O   0  0  0  0  0  0  0  0  0  0  0  0
   18.9960    8.3920    0.0000 C   0  0  0  0  0  0  0  0  0  0  0  0
   16.1020    7.6050    0.0000 C   0  0  0  0  0  0  0  0  0  0  0  0
   14.6540    7.2120    0.0000 C   0  0  0  0  0  0  0  0  0  0  0  0
   14.4930    5.7200    0.0000 C   0  0  0  0  0  0  0  0  0  0  0  0
   13.2250    4.9180    0.0000 C   0  0  0  0  0  0  0  0  0  0  0  0
   13.3980    3.4280    0.0000 O   0  0  0  0  0  0  0  0  0  0  0  0
    6.4000    5.4930    0.0000 C   0  0  0  0  0  0  0  0  0  0  0  0
    0.7360    3.9000    0.0000 C   0  0  0  0  0  0  0  0  0  0  0  0
   -0.0090    2.5980    0.0000 C   0  0  0  0  0  0  0  0  0  0  0  0
   -1.5090    2.5930    0.0000 O   0  0  0  0  0  0  0  0  0  0  0  0
   -2.2640    3.8890    0.0000 C   0  0  0  0  0  0  0  0  0  0  0  0
  1  2  1  0  0  0  0
  1  3  1  0  0  0  0
  3  4  1  0  0  0  0
  3 32  2  0  0  0  0
  4  5  2  0  0  0  0
  5  6  1  0  0  0  0
  5  8  1  0  0  0  0
  6  7  1  0  0  0  0
  6 31  2  0  0  0  0
  7  8  1  0  0  0  0
  8  9  1  0  0  0  0
  9 10  1  0  0  0  0
 10 11  1  0  0  0  0
 10 30  1  0  0  0  0
 11 12  1  0  0  0  0
 12 13  1  0  0  0  0
 13 14  1  0  0  0  0
 14 15  1  0  0  0  0
 14 28  1  0  0  0  0
 15 16  1  0  0  0  0
 16 17  1  0  0  0  0
 17 18  1  0  0  0  0
 17 26  2  0  0  0  0
 18 19  2  0  0  0  0
 19 20  1  0  0  0  0
 19 22  1  0  0  0  0
 20 21  1  0  0  0  0
 22 23  1  0  0  0  0
 22 25  2  0  0  0  0
 23 24  1  0  0  0  0
 25 26  1  0  0  0  0
 26 27  1  0  0  0  0
 27 28  1  0  0  0  0
 28 29  2  0  0  0  0
 31 32  1  0  0  0  0
 32 33  1  0  0  0  0
 33 34  1  0  0  0  0
M  END
>  <Index>
581

>  <ID>
HT1148

>  <class>
0

>  <apol>
77.73455

>  <ast_fraglike>
0

>  <ast_fraglike_ext>
0

>  <ast_violation>
3

>  <ast_violation_ext>
4

>  <a_acc>
6

>  <a_acid>
0

>  <a_aro>
12

>  <a_base>
0

>  <a_count>
70

>  <a_don>
0

>  <a_donacc>
6

>  <a_heavy>
34

>  <a_hyd>
26

>  <a_IC>
100.94091

>  <a_ICM>
1.442013

>  <a_nB>
0

>  <a_nBr>
0

>  <a_nC>
27

>  <a_nCl>
0

>  <a_nF>
0

>  <a_nH>
36

>  <a_nI>
0

>  <a_nN>
2

>  <a_nO>
5

>  <a_nP>
0

>  <a_nS>
0

>  <balabanJ>
1.1835105

>  <BCUT_PEOE_0>
-2.7389853

>  <BCUT_PEOE_1>
-0.3336232

>  <BCUT_PEOE_2>
0.35229304

>  <BCUT_PEOE_3>
2.6734371

>  <BCUT_SLOGP_0>
-2.7788212

>  <BCUT_SLOGP_1>
-0.22821198

>  <BCUT_SLOGP_2>
0.46050078

>  <BCUT_SLOGP_3>
2.7148736

>  <BCUT_SMR_0>
-2.4597635

>  <BCUT_SMR_1>
-0.13856548

>  <BCUT_SMR_2>
0.54556489

>  <BCUT_SMR_3>
2.9502118

>  <bpol>
51.93745

>  <b_1rotN>
10

>  <b_1rotR>
0.27027026

>  <b_ar>
12

>  <b_count>
73

>  <b_double>
1

>  <b_heavy>
37

>  <b_max1len>
7

>  <b_rotN>
10

>  <b_rotR>
0.27027026

>  <b_single>
60

>  <b_triple>
0

>  <chi0>
24.241911

>  <chi0v>
20.979275

>  <chi0v_C>
18.043606

>  <chi0_C>
19.258783

>  <chi1>
16.46459

>  <chi1v>
11.918132

>  <chi1v_C>
7.3287864

>  <chi1_C>
8.882143

>  <chiral>
1

>  <chiral_u>
1

>  <density>
0.70771813

>  <diameter>
19

>  <FCharge>
0

>  <GCUT_PEOE_0>
-0.86166441

>  <GCUT_PEOE_1>
-0.3776291

>  <GCUT_PEOE_2>
-0.1071291

>  <GCUT_PEOE_3>
2.8797202

>  <GCUT_SLOGP_0>
-0.96841091

>  <GCUT_SLOGP_1>
-0.32994765

>  <GCUT_SLOGP_2>
0.041246805

>  <GCUT_SLOGP_3>
2.9241641

>  <GCUT_SMR_0>
-0.53987157

>  <GCUT_SMR_1>
-0.13606453

>  <GCUT_SMR_2>
0.077760108

>  <GCUT_SMR_3>
3.1330969

>  <Kier1>
27.046019

>  <Kier2>
12.497042

>  <Kier3>
6.2971635

>  <KierA1>
22.398638

>  <KierA2>
10.287457

>  <KierA3>
5.161849

>  <KierFlex>
6.7772059

>  <lip_acc>
7

>  <lip_don>
0

>  <lip_druglike>
1

>  <lip_violation>
0

>  <logP(o/w)>
2.82548

>  <logS>
-3.85934

>  <mr>
13.237692

>  <mutagenic>
0

>  <nmol>
1

>  <opr_brigid>
21

>  <opr_leadlike>
0

>  <opr_nring>
4

>  <opr_nrot>
11

>  <opr_violation>
2

>  <PC+>
0

>  <PC->
0

>  <PEOE_PC+>
2.6160374

>  <PEOE_PC->
-2.6160374

>  <PEOE_RPC+>
0.087094612

>  <PEOE_RPC->
0.13200599

>  <PEOE_VSA+0>
238.06764

>  <PEOE_VSA+1>
76.947487

>  <PEOE_VSA+2>
33.834076

>  <PEOE_VSA+3>
0

>  <PEOE_VSA+4>
12.949531

>  <PEOE_VSA+5>
0

>  <PEOE_VSA+6>
0

>  <PEOE_VSA-0>
107.1964

>  <PEOE_VSA-1>
0

>  <PEOE_VSA-2>
0

>  <PEOE_VSA-3>
0

>  <PEOE_VSA-4>
0

>  <PEOE_VSA-5>
13.566921

>  <PEOE_VSA-6>
10.015024

>  <PEOE_VSA_FHYD>
0.92583603

>  <PEOE_VSA_FNEG>
0.26549822

>  <PEOE_VSA_FPNEG>
0.047874629

>  <PEOE_VSA_FPOL>
0.074163973

>  <PEOE_VSA_FPOS>
0.73450178

>  <PEOE_VSA_FPPOS>
0.026289349

>  <PEOE_VSA_HYD>
456.04562

>  <PEOE_VSA_NEG>
130.77835

>  <PEOE_VSA_PNEG>
23.581945

>  <PEOE_VSA_POL>
36.531475

>  <PEOE_VSA_POS>
361.79874

>  <PEOE_VSA_PPOS>
12.949531

>  <petitjean>
0.47368422

>  <petitjeanSC>
0.89999998

>  <Q_PC+>
0

>  <Q_PC->
0

>  <Q_RPC+>
0

>  <Q_RPC->
0

>  <Q_VSA_FHYD>
1

>  <Q_VSA_FNEG>
0

>  <Q_VSA_FPNEG>
0

>  <Q_VSA_FPOL>
0

>  <Q_VSA_FPOS>
1

>  <Q_VSA_FPPOS>
0

>  <Q_VSA_HYD>
492.57709

>  <Q_VSA_NEG>
0

>  <Q_VSA_PNEG>
0

>  <Q_VSA_POL>
0

>  <Q_VSA_POS>
492.57709

>  <Q_VSA_PPOS>
0

>  <radius>
10

>  <reactive>
0

>  <rings>
4

>  <RPC+>
0

>  <RPC->
0

>  <rsynth>
0.20588236

>  <SlogP>
3.3099101

>  <SlogP_VSA0>
43.99955

>  <SlogP_VSA1>
11.507411

>  <SlogP_VSA2>
23.862217

>  <SlogP_VSA3>
73.758316

>  <SlogP_VSA4>
12.7423

>  <SlogP_VSA5>
231.03787

>  <SlogP_VSA6>
4.4107962

>  <SlogP_VSA7>
70.572739

>  <SlogP_VSA8>
18.868406

>  <SlogP_VSA9>
20.973713

>  <SMR>
13.1639

>  <SMR_VSA0>
23.862217

>  <SMR_VSA1>
50.24818

>  <SMR_VSA2>
0

>  <SMR_VSA3>
38.126808

>  <SMR_VSA4>
0

>  <SMR_VSA5>
146.04636

>  <SMR_VSA6>
79.017097

>  <SMR_VSA7>
174.43266

>  <TPSA>
60.470001

>  <VAdjEq>
0.34317648

>  <VAdjMa>
6.2094536

>  <VDistEq>
4.0354848

>  <VDistMa>
9.8391371

>  <vdw_area>
492.57709

>  <vdw_vol>
662.11951

>  <vsa_acc>
23.581945

>  <vsa_acid>
0

>  <vsa_base>
0

>  <vsa_don>
0

>  <vsa_hyd>
429.07593

>  <vsa_other>
12.949531

>  <vsa_pol>
23.581945

>  <Weight>
468.59399

>  <weinerPath>
4157

>  <weinerPol>
58

>  <zagreb>
178

$$$$