O1[C@H](CO)[C@H](O)[C@H](O)[C@@H](O)[C@@H]1O[C@H]1[C@H](O)[C@@H](O)[C@@H](O[C@@H]1CO)O
  MOE2013           2D

 23 24  0  0  1  0  0  0  0  0999 V2000
    0.0000    0.0000    0.0000 O   0  0  0  0  0  0  0  0  0  0  0  0
   -1.5000    0.0060    0.0000 C   0  0  2  0  0  0  0  0  0  0  0  0
   -2.2550   -1.2900    0.0000 C   0  0  0  0  0  0  0  0  0  0  0  0
   -3.7550   -1.2840    0.0000 O   0  0  0  0  0  0  0  0  0  0  0  0
   -2.2450    1.3080    0.0000 C   0  0  2  0  0  0  0  0  0  0  0  0
   -3.7450    1.3140    0.0000 O   0  0  0  0  0  0  0  0  0  0  0  0
   -1.4900    2.6040    0.0000 C   0  0  2  0  0  0  0  0  0  0  0  0
   -2.2350    3.9060    0.0000 O   0  0  0  0  0  0  0  0  0  0  0  0
    0.0100    2.5980    0.0000 C   0  0  1  0  0  0  0  0  0  0  0  0
    0.7650    3.8940    0.0000 O   0  0  0  0  0  0  0  0  0  0  0  0
    0.7550    1.2960    0.0000 C   0  0  2  0  0  0  0  0  0  0  0  0
    2.2550    1.2900    0.0000 O   0  0  0  0  0  0  0  0  0  0  0  0
    3.0000   -0.0120    0.0000 C   0  0  1  0  0  0  0  0  0  0  0  0
    2.2450   -1.3080    0.0000 C   0  0  2  0  0  0  0  0  0  0  0  0
    0.7450   -1.3020    0.0000 O   0  0  0  0  0  0  0  0  0  0  0  0
    2.9900   -2.6100    0.0000 C   0  0  1  0  0  0  0  0  0  0  0  0
    2.2350   -3.9060    0.0000 O   0  0  0  0  0  0  0  0  0  0  0  0
    4.4900   -2.6160    0.0000 C   0  0  1  0  0  0  0  0  0  0  0  0
    5.2450   -1.3190    0.0000 O   0  0  0  0  0  0  0  0  0  0  0  0
    4.5000   -0.0180    0.0000 C   0  0  2  0  0  0  0  0  0  0  0  0
    5.2550    1.2790    0.0000 C   0  0  0  0  0  0  0  0  0  0  0  0
    6.7550    1.2730    0.0000 O   0  0  0  0  0  0  0  0  0  0  0  0
    5.2350   -3.9180    0.0000 O   0  0  0  0  0  0  0  0  0  0  0  0
  1  2  1  0  0  0  0
  1 11  1  0  0  0  0
  2  3  1  6  0  0  0
  2  5  1  0  0  0  0
  3  4  1  0  0  0  0
  5  6  1  6  0  0  0
  5  7  1  0  0  0  0
  7  8  1  6  0  0  0
  7  9  1  0  0  0  0
  9 10  1  1  0  0  0
  9 11  1  0  0  0  0
 11 12  1  6  0  0  0
 13 12  1  6  0  0  0
 13 14  1  0  0  0  0
 13 20  1  0  0  0  0
 14 15  1  1  0  0  0
 14 16  1  0  0  0  0
 16 17  1  6  0  0  0
 16 18  1  0  0  0  0
 18 19  1  0  0  0  0
 18 23  1  1  0  0  0
 19 20  1  0  0  0  0
 20 21  1  1  0  0  0
 21 22  1  0  0  0  0
M  END
>  <Index>
589

>  <ID>
HT1165

>  <class>
0

>  <apol>
44.611446

>  <ast_fraglike>
0

>  <ast_fraglike_ext>
0

>  <ast_violation>
3

>  <ast_violation_ext>
5

>  <a_acc>
11

>  <a_acid>
0

>  <a_aro>
0

>  <a_base>
0

>  <a_count>
45

>  <a_don>
8

>  <a_donacc>
19

>  <a_heavy>
23

>  <a_hyd>
10

>  <a_IC>
67.952599

>  <a_ICM>
1.5100577

>  <a_nB>
0

>  <a_nBr>
0

>  <a_nC>
12

>  <a_nCl>
0

>  <a_nF>
0

>  <a_nH>
22

>  <a_nI>
0

>  <a_nN>
0

>  <a_nO>
11

>  <a_nP>
0

>  <a_nS>
0

>  <balabanJ>
2.114862

>  <BCUT_PEOE_0>
-2.7513645

>  <BCUT_PEOE_1>
-0.72413892

>  <BCUT_PEOE_2>
0.77013665

>  <BCUT_PEOE_3>
2.8209174

>  <BCUT_SLOGP_0>
-2.944314

>  <BCUT_SLOGP_1>
-0.87194175

>  <BCUT_SLOGP_2>
0.56352937

>  <BCUT_SLOGP_3>
2.6154554

>  <BCUT_SMR_0>
-2.5531192

>  <BCUT_SMR_1>
-0.59802449

>  <BCUT_SMR_2>
0.85896587

>  <BCUT_SMR_3>
3.0016067

>  <bpol>
29.798553

>  <b_1rotN>
4

>  <b_1rotR>
0.16666667

>  <b_ar>
0

>  <b_count>
46

>  <b_double>
0

>  <b_heavy>
24

>  <b_max1len>
4

>  <b_rotN>
4

>  <b_rotR>
0.16666667

>  <b_single>
46

>  <b_triple>
0

>  <chi0>
17.309036

>  <chi0v>
11.99017

>  <chi0v_C>
7.1877165

>  <chi0_C>
7.1877165

>  <chi1>
10.810968

>  <chi1v>
7.0790257

>  <chi1v_C>
3.4831634

>  <chi1_C>
3.4831634

>  <chiral>
10

>  <chiral_u>
0

>  <density>
0.90216821

>  <diameter>
10

>  <FCharge>
0

>  <GCUT_PEOE_0>
-0.79259938

>  <GCUT_PEOE_1>
-0.44846746

>  <GCUT_PEOE_2>
0.2103249

>  <GCUT_PEOE_3>
2.8341055

>  <GCUT_SLOGP_0>
-0.95622945

>  <GCUT_SLOGP_1>
-0.60219604

>  <GCUT_SLOGP_2>
-0.005564162

>  <GCUT_SLOGP_3>
2.6829906

>  <GCUT_SMR_0>
-0.52702886

>  <GCUT_SMR_1>
-0.28781971

>  <GCUT_SMR_2>
0.25013191

>  <GCUT_SMR_3>
3.0128057

>  <Kier1>
19.326389

>  <Kier2>
7.9200001

>  <Kier3>
3.8194444

>  <KierA1>
19.326389

>  <KierA2>
7.9200001

>  <KierA3>
3.8194444

>  <KierFlex>
6.6550002

>  <lip_acc>
11

>  <lip_don>
8

>  <lip_druglike>
0

>  <lip_violation>
2

>  <logP(o/w)>
-4.848

>  <logS>
1.54272

>  <mr>
6.9166265

>  <mutagenic>
0

>  <nmol>
1

>  <opr_brigid>
12

>  <opr_leadlike>
0

>  <opr_nring>
2

>  <opr_nrot>
8

>  <opr_violation>
3

>  <PC+>
0

>  <PC->
0

>  <PEOE_PC+>
4.0984573

>  <PEOE_PC->
-4.0984573

>  <PEOE_RPC+>
0.051863655

>  <PEOE_RPC->
0.095735095

>  <PEOE_VSA+0>
0

>  <PEOE_VSA+1>
89.617989

>  <PEOE_VSA+2>
39.239429

>  <PEOE_VSA+3>
22.309816

>  <PEOE_VSA+4>
82.593384

>  <PEOE_VSA+5>
0

>  <PEOE_VSA+6>
0

>  <PEOE_VSA-0>
0

>  <PEOE_VSA-1>
0

>  <PEOE_VSA-2>
0

>  <PEOE_VSA-3>
0

>  <PEOE_VSA-4>
0

>  <PEOE_VSA-5>
0

>  <PEOE_VSA-6>
69.651588

>  <PEOE_VSA_FHYD>
0.49822399

>  <PEOE_VSA_FNEG>
0.22956094

>  <PEOE_VSA_FPNEG>
0.22956094

>  <PEOE_VSA_FPOL>
0.50177604

>  <PEOE_VSA_FPOS>
0.77043909

>  <PEOE_VSA_FPPOS>
0.2722151

>  <PEOE_VSA_HYD>
151.16724

>  <PEOE_VSA_NEG>
69.651588

>  <PEOE_VSA_PNEG>
69.651588

>  <PEOE_VSA_POL>
152.24496

>  <PEOE_VSA_POS>
233.76062

>  <PEOE_VSA_PPOS>
82.593384

>  <petitjean>
0.5

>  <petitjeanSC>
1

>  <Q_PC+>
0

>  <Q_PC->
0

>  <Q_RPC+>
0

>  <Q_RPC->
0

>  <Q_VSA_FHYD>
1

>  <Q_VSA_FNEG>
0

>  <Q_VSA_FPNEG>
0

>  <Q_VSA_FPOL>
0

>  <Q_VSA_FPOS>
1

>  <Q_VSA_FPPOS>
0

>  <Q_VSA_HYD>
303.4122

>  <Q_VSA_NEG>
0

>  <Q_VSA_PNEG>
0

>  <Q_VSA_POL>
0

>  <Q_VSA_POS>
303.4122

>  <Q_VSA_PPOS>
0

>  <radius>
5

>  <reactive>
1

>  <rings>
2

>  <RPC+>
0

>  <RPC->
0

>  <rsynth>
1

>  <SlogP>
-5.3972001

>  <SlogP_VSA0>
203.08182

>  <SlogP_VSA1>
0

>  <SlogP_VSA2>
101.80186

>  <SlogP_VSA3>
41.852516

>  <SlogP_VSA4>
0

>  <SlogP_VSA5>
0

>  <SlogP_VSA6>
0

>  <SlogP_VSA7>
0

>  <SlogP_VSA8>
0

>  <SlogP_VSA9>
0

>  <SMR>
6.8619399

>  <SMR_VSA0>
32.999664

>  <SMR_VSA1>
203.08182

>  <SMR_VSA2>
0

>  <SMR_VSA3>
68.8022

>  <SMR_VSA4>
0

>  <SMR_VSA5>
0

>  <SMR_VSA6>
41.852516

>  <SMR_VSA7>
0

>  <TPSA>
189.53

>  <VAdjEq>
0.43892586

>  <VAdjMa>
5.5849624

>  <VDistEq>
3.1252692

>  <VDistMa>
8.7825041

>  <vdw_area>
303.4122

>  <vdw_vol>
379.41592

>  <vsa_acc>
7.5112681

>  <vsa_acid>
0

>  <vsa_base>
0

>  <vsa_don>
0

>  <vsa_hyd>
111.7851

>  <vsa_other>
29.416998

>  <vsa_pol>
116.04664

>  <Weight>
342.297

>  <weinerPath>
1134

>  <weinerPol>
42

>  <zagreb>
118

$$$$