N(CCCc1ccccc1)(CCCc1ccccc1)CC
  MOE2013           2D

 21 22  0  0  0  0  0  0  0  0999 V2000
    0.0000    0.0000    0.0000 N   0  0  0  0  0  0  0  0  0  0  0  0
    0.0120   -1.5000    0.0000 C   0  0  0  0  0  0  0  0  0  0  0  0
   -1.2800   -2.2610    0.0000 C   0  0  0  0  0  0  0  0  0  0  0  0
   -1.2680   -3.7610    0.0000 C   0  0  0  0  0  0  0  0  0  0  0  0
   -2.5610   -4.5210    0.0000 C   0  0  0  0  0  0  0  0  0  0  0  0
   -2.5480   -6.0210    0.0000 C   0  0  0  0  0  0  0  0  0  0  0  0
   -3.8410   -6.7820    0.0000 C   0  0  0  0  0  0  0  0  0  0  0  0
   -5.1460   -6.0430    0.0000 C   0  0  0  0  0  0  0  0  0  0  0  0
   -5.1590   -4.5430    0.0000 C   0  0  0  0  0  0  0  0  0  0  0  0
   -3.8660   -3.7820    0.0000 C   0  0  0  0  0  0  0  0  0  0  0  0
    1.2930    0.7610    0.0000 C   0  0  0  0  0  0  0  0  0  0  0  0
    2.5980    0.0210    0.0000 C   0  0  0  0  0  0  0  0  0  0  0  0
    3.8910    0.7820    0.0000 C   0  0  0  0  0  0  0  0  0  0  0  0
    5.1960    0.0430    0.0000 C   0  0  0  0  0  0  0  0  0  0  0  0
    6.4890    0.8040    0.0000 C   0  0  0  0  0  0  0  0  0  0  0  0
    7.7940    0.0640    0.0000 C   0  0  0  0  0  0  0  0  0  0  0  0
    7.8060   -1.4360    0.0000 C   0  0  0  0  0  0  0  0  0  0  0  0
    6.5140   -2.1960    0.0000 C   0  0  0  0  0  0  0  0  0  0  0  0
    5.2080   -1.4570    0.0000 C   0  0  0  0  0  0  0  0  0  0  0  0
   -1.3050    0.7390    0.0000 C   0  0  0  0  0  0  0  0  0  0  0  0
   -1.3180    2.2390    0.0000 C   0  0  0  0  0  0  0  0  0  0  0  0
  1  2  1  0  0  0  0
  1 11  1  0  0  0  0
  1 20  1  0  0  0  0
  2  3  1  0  0  0  0
  3  4  1  0  0  0  0
  4  5  1  0  0  0  0
  5  6  1  0  0  0  0
  5 10  2  0  0  0  0
  6  7  2  0  0  0  0
  7  8  1  0  0  0  0
  8  9  2  0  0  0  0
  9 10  1  0  0  0  0
 11 12  1  0  0  0  0
 12 13  1  0  0  0  0
 13 14  1  0  0  0  0
 14 15  1  0  0  0  0
 14 19  2  0  0  0  0
 15 16  2  0  0  0  0
 16 17  1  0  0  0  0
 17 18  2  0  0  0  0
 18 19  1  0  0  0  0
 20 21  1  0  0  0  0
M  END
>  <Index>
54

>  <ID>
HT0120

>  <class>
0

>  <apol>
54.30341

>  <ast_fraglike>
0

>  <ast_fraglike_ext>
0

>  <ast_violation>
1

>  <ast_violation_ext>
2

>  <a_acc>
1

>  <a_acid>
0

>  <a_aro>
12

>  <a_base>
0

>  <a_count>
48

>  <a_don>
0

>  <a_donacc>
1

>  <a_heavy>
21

>  <a_hyd>
20

>  <a_IC>
53.257675

>  <a_ICM>
1.1095349

>  <a_nB>
0

>  <a_nBr>
0

>  <a_nC>
20

>  <a_nCl>
0

>  <a_nF>
0

>  <a_nH>
27

>  <a_nI>
0

>  <a_nN>
1

>  <a_nO>
0

>  <a_nP>
0

>  <a_nS>
0

>  <balabanJ>
1.5040637

>  <BCUT_PEOE_0>
-2.7153311

>  <BCUT_PEOE_1>
-0.56060719

>  <BCUT_PEOE_2>
0.61901492

>  <BCUT_PEOE_3>
2.6161361

>  <BCUT_SLOGP_0>
-2.7471349

>  <BCUT_SLOGP_1>
-0.45681295

>  <BCUT_SLOGP_2>
0.72024721

>  <BCUT_SLOGP_3>
2.6286695

>  <BCUT_SMR_0>
-2.4371703

>  <BCUT_SMR_1>
-0.42652678

>  <BCUT_SMR_2>
0.75968766

>  <BCUT_SMR_3>
2.8880978

>  <bpol>
31.49659

>  <b_1rotN>
9

>  <b_1rotR>
0.40909091

>  <b_ar>
12

>  <b_count>
49

>  <b_double>
0

>  <b_heavy>
22

>  <b_max1len>
8

>  <b_rotN>
9

>  <b_rotR>
0.40909091

>  <b_single>
37

>  <b_triple>
0

>  <chi0>
14.752866

>  <chi0v>
13.170464

>  <chi0v_C>
12.72325

>  <chi0_C>
14.175516

>  <chi1>
10.381341

>  <chi1v>
8.1842642

>  <chi1v_C>
7.2355809

>  <chi1_C>
9.1565962

>  <chiral>
0

>  <chiral_u>
0

>  <density>
0.61560637

>  <diameter>
14

>  <FCharge>
0

>  <GCUT_PEOE_0>
-0.86038911

>  <GCUT_PEOE_1>
-0.35531941

>  <GCUT_PEOE_2>
0.06558916

>  <GCUT_PEOE_3>
2.6509869

>  <GCUT_SLOGP_0>
-0.95306414

>  <GCUT_SLOGP_1>
-0.26386139

>  <GCUT_SLOGP_2>
0.14703579

>  <GCUT_SLOGP_3>
2.7204952

>  <GCUT_SMR_0>
-0.52262479

>  <GCUT_SMR_1>
-0.19268325

>  <GCUT_SMR_2>
0.16935508

>  <GCUT_SMR_3>
2.902576

>  <Kier1>
17.355371

>  <Kier2>
10.680473

>  <Kier3>
7.1999998

>  <KierA1>
13.657548

>  <KierA2>
8.2967339

>  <KierA3>
5.5376058

>  <KierFlex>
5.3958592

>  <lip_acc>
1

>  <lip_don>
0

>  <lip_druglike>
1

>  <lip_violation>
0

>  <logP(o/w)>
5.1440001

>  <logS>
-3.8779199

>  <mr>
9.2419376

>  <mutagenic>
0

>  <nmol>
1

>  <opr_brigid>
12

>  <opr_leadlike>
1

>  <opr_nring>
2

>  <opr_nrot>
9

>  <opr_violation>
1

>  <PC+>
0

>  <PC->
0

>  <PEOE_PC+>
1.1843902

>  <PEOE_PC->
-1.1843902

>  <PEOE_RPC+>
0.052371919

>  <PEOE_RPC->
0.25545114

>  <PEOE_VSA+0>
72.511559

>  <PEOE_VSA+1>
42.653858

>  <PEOE_VSA+2>
0

>  <PEOE_VSA+3>
0

>  <PEOE_VSA+4>
0

>  <PEOE_VSA+5>
0

>  <PEOE_VSA+6>
0

>  <PEOE_VSA-0>
78.799309

>  <PEOE_VSA-1>
141.29672

>  <PEOE_VSA-2>
0

>  <PEOE_VSA-3>
0

>  <PEOE_VSA-4>
0

>  <PEOE_VSA-5>
0

>  <PEOE_VSA-6>
0

>  <PEOE_VSA_FHYD>
1

>  <PEOE_VSA_FNEG>
0.65649068

>  <PEOE_VSA_FPNEG>
0

>  <PEOE_VSA_FPOL>
0

>  <PEOE_VSA_FPOS>
0.34350929

>  <PEOE_VSA_FPPOS>
0

>  <PEOE_VSA_HYD>
335.26144

>  <PEOE_VSA_NEG>
220.09602

>  <PEOE_VSA_PNEG>
0

>  <PEOE_VSA_POL>
0

>  <PEOE_VSA_POS>
115.16542

>  <PEOE_VSA_PPOS>
0

>  <petitjean>
0.5

>  <petitjeanSC>
1

>  <Q_PC+>
0

>  <Q_PC->
0

>  <Q_RPC+>
0

>  <Q_RPC->
0

>  <Q_VSA_FHYD>
1

>  <Q_VSA_FNEG>
0

>  <Q_VSA_FPNEG>
0

>  <Q_VSA_FPOL>
0

>  <Q_VSA_FPOS>
1

>  <Q_VSA_FPPOS>
0

>  <Q_VSA_HYD>
335.26144

>  <Q_VSA_NEG>
0

>  <Q_VSA_PNEG>
0

>  <Q_VSA_POL>
0

>  <Q_VSA_POS>
335.26144

>  <Q_VSA_PPOS>
0

>  <radius>
7

>  <reactive>
0

>  <rings>
2

>  <RPC+>
0

>  <RPC->
0

>  <rsynth>
0.5714286

>  <SlogP>
4.5738401

>  <SlogP_VSA0>
0

>  <SlogP_VSA1>
3.1243138

>  <SlogP_VSA2>
0

>  <SlogP_VSA3>
55.318733

>  <SlogP_VSA4>
6.37115

>  <SlogP_VSA5>
37.736813

>  <SlogP_VSA6>
0

>  <SlogP_VSA7>
176.43184

>  <SlogP_VSA8>
37.736813

>  <SlogP_VSA9>
33.326015

>  <SMR>
9.1639996

>  <SMR_VSA0>
0

>  <SMR_VSA1>
3.1243138

>  <SMR_VSA2>
0

>  <SMR_VSA3>
6.37115

>  <SMR_VSA4>
0

>  <SMR_VSA5>
251.90547

>  <SMR_VSA6>
55.318733

>  <SMR_VSA7>
33.326015

>  <TPSA>
3.24

>  <VAdjEq>
0.46827638

>  <VAdjMa>
5.4594316

>  <VDistEq>
3.5989051

>  <VDistMa>
8.4424028

>  <vdw_area>
335.26144

>  <vdw_vol>
457.18015

>  <vsa_acc>
0

>  <vsa_acid>
0

>  <vsa_base>
0

>  <vsa_don>
0

>  <vsa_hyd>
316.04297

>  <vsa_other>
0

>  <vsa_pol>
0

>  <Weight>
281.44299

>  <weinerPath>
1182

>  <weinerPol>
24

>  <zagreb>
96

$$$$