Ic1c(C(=O)NCC(O)CO)c(I)c(N(C(=O)C)CC(O)CO)c(I)c1C(=O)NCCO
  MOE2013           2D

 32 32  0  0  1  0  0  0  0  0999 V2000
    0.0000    0.0000    0.0000 I   0  0  0  0  0  0  0  0  0  0  0  0
   -0.7540   -1.2970    0.0000 C   0  0  0  0  0  0  0  0  0  0  0  0
   -0.0080   -2.5980    0.0000 C   0  0  0  0  0  0  0  0  0  0  0  0
    1.4920   -2.6030    0.0000 C   0  0  0  0  0  0  0  0  0  0  0  0
    2.2370   -3.9040    0.0000 O   0  0  0  0  0  0  0  0  0  0  0  0
    2.2460   -1.3060    0.0000 N   0  0  0  0  0  0  0  0  0  0  0  0
    3.7460   -1.3110    0.0000 C   0  0  0  0  0  0  0  0  0  0  0  0
    4.5000   -0.0150    0.0000 C   0  0  3  0  0  0  0  0  0  0  0  0
    3.7540    1.2870    0.0000 O   0  0  0  0  0  0  0  0  0  0  0  0
    6.0000   -0.0190    0.0000 C   0  0  0  0  0  0  0  0  0  0  0  0
    6.7540    1.2770    0.0000 O   0  0  0  0  0  0  0  0  0  0  0  0
   -0.7630   -3.8950    0.0000 C   0  0  0  0  0  0  0  0  0  0  0  0
   -0.0170   -5.1960    0.0000 I   0  0  0  0  0  0  0  0  0  0  0  0
   -2.2630   -3.8900    0.0000 C   0  0  0  0  0  0  0  0  0  0  0  0
   -3.0170   -5.1860    0.0000 N   0  0  0  0  0  0  0  0  0  0  0  0
   -2.2710   -6.4880    0.0000 C   0  0  0  0  0  0  0  0  0  0  0  0
   -0.7710   -6.4930    0.0000 O   0  0  0  0  0  0  0  0  0  0  0  0
   -3.0250   -7.7840    0.0000 C   0  0  0  0  0  0  0  0  0  0  0  0
   -4.5170   -5.1820    0.0000 C   0  0  0  0  0  0  0  0  0  0  0  0
   -5.2710   -6.4780    0.0000 C   0  0  3  0  0  0  0  0  0  0  0  0
   -4.5250   -7.7800    0.0000 O   0  0  0  0  0  0  0  0  0  0  0  0
   -6.7710   -6.4730    0.0000 C   0  0  0  0  0  0  0  0  0  0  0  0
   -7.5250   -7.7700    0.0000 O   0  0  0  0  0  0  0  0  0  0  0  0
   -3.0080   -2.5880    0.0000 C   0  0  0  0  0  0  0  0  0  0  0  0
   -4.5080   -2.5830    0.0000 I   0  0  0  0  0  0  0  0  0  0  0  0
   -2.2540   -1.2920    0.0000 C   0  0  0  0  0  0  0  0  0  0  0  0
   -3.0000    0.0100    0.0000 C   0  0  0  0  0  0  0  0  0  0  0  0
   -2.2460    1.3060    0.0000 O   0  0  0  0  0  0  0  0  0  0  0  0
   -4.5000    0.0150    0.0000 N   0  0  0  0  0  0  0  0  0  0  0  0
   -5.2460    1.3160    0.0000 C   0  0  0  0  0  0  0  0  0  0  0  0
   -6.7460    1.3210    0.0000 C   0  0  0  0  0  0  0  0  0  0  0  0
   -7.4920    2.6220    0.0000 O   0  0  0  0  0  0  0  0  0  0  0  0
  1  2  1  0  0  0  0
  2  3  1  0  0  0  0
  2 26  2  0  0  0  0
  3  4  1  0  0  0  0
  3 12  2  0  0  0  0
  4  5  2  0  0  0  0
  4  6  1  0  0  0  0
  6  7  1  0  0  0  0
  7  8  1  0  0  0  0
  8  9  1  0  0  0  0
  8 10  1  0  0  0  0
 10 11  1  0  0  0  0
 12 13  1  0  0  0  0
 12 14  1  0  0  0  0
 14 15  1  0  0  0  0
 14 24  2  0  0  0  0
 15 16  1  0  0  0  0
 15 19  1  0  0  0  0
 16 17  2  0  0  0  0
 16 18  1  0  0  0  0
 19 20  1  0  0  0  0
 20 21  1  0  0  0  0
 20 22  1  0  0  0  0
 22 23  1  0  0  0  0
 24 25  1  0  0  0  0
 24 26  1  0  0  0  0
 26 27  1  0  0  0  0
 27 28  2  0  0  0  0
 27 29  1  0  0  0  0
 29 30  1  0  0  0  0
 30 31  1  0  0  0  0
 31 32  1  0  0  0  0
M  END
>  <Index>
564

>  <ID>
HT1118

>  <class>
0

>  <apol>
73.449036

>  <ast_fraglike>
0

>  <ast_fraglike_ext>
0

>  <ast_violation>
3

>  <ast_violation_ext>
5

>  <a_acc>
8

>  <a_acid>
0

>  <a_aro>
6

>  <a_base>
0

>  <a_count>
56

>  <a_don>
7

>  <a_donacc>
15

>  <a_heavy>
32

>  <a_hyd>
18

>  <a_IC>
106.60435

>  <a_ICM>
1.9036491

>  <a_nB>
0

>  <a_nBr>
0

>  <a_nC>
18

>  <a_nCl>
0

>  <a_nF>
0

>  <a_nH>
24

>  <a_nI>
3

>  <a_nN>
3

>  <a_nO>
8

>  <a_nP>
0

>  <a_nS>
0

>  <balabanJ>
3.3082211

>  <BCUT_PEOE_0>
-2.5686128

>  <BCUT_PEOE_1>
-0.59135002

>  <BCUT_PEOE_2>
0.6206035

>  <BCUT_PEOE_3>
2.5718677

>  <BCUT_SLOGP_0>
-2.7575533

>  <BCUT_SLOGP_1>
-0.57591701

>  <BCUT_SLOGP_2>
0.59261143

>  <BCUT_SLOGP_3>
2.4566233

>  <BCUT_SMR_0>
-2.3184679

>  <BCUT_SMR_1>
-0.38912535

>  <BCUT_SMR_2>
0.87393022

>  <BCUT_SMR_3>
2.8380363

>  <bpol>
43.180969

>  <b_1rotN>
12

>  <b_1rotR>
0.375

>  <b_ar>
6

>  <b_count>
56

>  <b_double>
3

>  <b_heavy>
32

>  <b_max1len>
6

>  <b_rotN>
14

>  <b_rotR>
0.4375

>  <b_single>
47

>  <b_triple>
0

>  <chi0>
24.585058

>  <chi0v>
23.411757

>  <chi0v_C>
10.897341

>  <chi0_C>
11.593493

>  <chi1>
15.008544

>  <chi1v>
12.484189

>  <chi1v_C>
4.6329932

>  <chi1_C>
5.3770099

>  <chiral>
2

>  <chiral_u>
2

>  <density>
1.2835664

>  <diameter>
13

>  <FCharge>
0

>  <GCUT_PEOE_0>
-0.83122122

>  <GCUT_PEOE_1>
-0.45769319

>  <GCUT_PEOE_2>
0.1194628

>  <GCUT_PEOE_3>
2.6881745

>  <GCUT_SLOGP_0>
-1.1629936

>  <GCUT_SLOGP_1>
-0.46574831

>  <GCUT_SLOGP_2>
0.047344089

>  <GCUT_SLOGP_3>
2.6854057

>  <GCUT_SMR_0>
-0.52232534

>  <GCUT_SMR_1>
-0.22098352

>  <GCUT_SMR_2>
0.28862292

>  <GCUT_SMR_3>
3.0359404

>  <Kier1>
30.03125

>  <Kier2>
14.411157

>  <Kier3>
8.0332413

>  <KierA1>
32.958584

>  <KierA2>
15.863726

>  <KierA3>
8.8617573

>  <KierFlex>
16.338934

>  <lip_acc>
11

>  <lip_don>
7

>  <lip_druglike>
0

>  <lip_violation>
3

>  <logP(o/w)>
0.322

>  <logS>
-3.74246

>  <mr>
14.271128

>  <mutagenic>
0

>  <nmol>
1

>  <opr_brigid>
6

>  <opr_leadlike>
0

>  <opr_nring>
1

>  <opr_nrot>
11

>  <opr_violation>
4

>  <PC+>
0

>  <PC->
0

>  <PEOE_PC+>
3.8925457

>  <PEOE_PC->
-3.8925457

>  <PEOE_RPC+>
0.065309122

>  <PEOE_RPC->
0.10103238

>  <PEOE_VSA+0>
60.968578

>  <PEOE_VSA+1>
144.76828

>  <PEOE_VSA+2>
0

>  <PEOE_VSA+3>
17.238026

>  <PEOE_VSA+4>
64.570396

>  <PEOE_VSA+5>
25.899061

>  <PEOE_VSA+6>
0

>  <PEOE_VSA-0>
140.97005

>  <PEOE_VSA-1>
0

>  <PEOE_VSA-2>
0

>  <PEOE_VSA-3>
0

>  <PEOE_VSA-4>
0

>  <PEOE_VSA-5>
40.700764

>  <PEOE_VSA-6>
39.111485

>  <PEOE_VSA_FHYD>
0.6812557

>  <PEOE_VSA_FNEG>
0.41327459

>  <PEOE_VSA_FPNEG>
0.14939773

>  <PEOE_VSA_FPOL>
0.3187443

>  <PEOE_VSA_FPOS>
0.58672541

>  <PEOE_VSA_FPPOS>
0.16934659

>  <PEOE_VSA_HYD>
363.94492

>  <PEOE_VSA_NEG>
220.78229

>  <PEOE_VSA_PNEG>
79.812248

>  <PEOE_VSA_POL>
170.28171

>  <PEOE_VSA_POS>
313.44434

>  <PEOE_VSA_PPOS>
90.46946

>  <petitjean>
0.46153846

>  <petitjeanSC>
0.85714287

>  <Q_PC+>
0

>  <Q_PC->
0

>  <Q_RPC+>
0

>  <Q_RPC->
0

>  <Q_VSA_FHYD>
1

>  <Q_VSA_FNEG>
0

>  <Q_VSA_FPNEG>
0

>  <Q_VSA_FPOL>
0

>  <Q_VSA_FPOS>
1

>  <Q_VSA_FPPOS>
0

>  <Q_VSA_HYD>
534.22662

>  <Q_VSA_NEG>
0

>  <Q_VSA_PNEG>
0

>  <Q_VSA_POL>
0

>  <Q_VSA_POS>
534.22662

>  <Q_VSA_PPOS>
0

>  <radius>
7

>  <reactive>
0

>  <rings>
1

>  <RPC+>
0

>  <RPC->
0

>  <rsynth>
1

>  <SlogP>
-0.98839998

>  <SlogP_VSA0>
166.07195

>  <SlogP_VSA1>
15.776351

>  <SlogP_VSA2>
41.778442

>  <SlogP_VSA3>
118.09751

>  <SlogP_VSA4>
54.095581

>  <SlogP_VSA5>
0

>  <SlogP_VSA6>
0

>  <SlogP_VSA7>
0

>  <SlogP_VSA8>
0

>  <SlogP_VSA9>
206.42879

>  <SMR>
14.05574

>  <SMR_VSA0>
71.586647

>  <SMR_VSA1>
126.92613

>  <SMR_VSA2>
44.124744

>  <SMR_VSA3>
19.308449

>  <SMR_VSA4>
2.7567475

>  <SMR_VSA5>
0

>  <SMR_VSA6>
133.87386

>  <SMR_VSA7>
203.67204

>  <TPSA>
179.66

>  <VAdjEq>
0.33729008

>  <VAdjMa>
6

>  <VDistEq>
3.4518564

>  <VDistMa>
9.7619877

>  <vdw_area>
534.22662

>  <vdw_vol>
616.34131

>  <vsa_acc>
40.700764

>  <vsa_acid>
0

>  <vsa_base>
0

>  <vsa_don>
11.365152

>  <vsa_hyd>
334.60638

>  <vsa_other>
38.848595

>  <vsa_pol>
119.90052

>  <Weight>
791.11499

>  <weinerPath>
2773

>  <weinerPol>
54

>  <zagreb>
152

$$$$