Fc1cc2onc(c2cc1)C1CCN(CC1)CCCOc1ccc(cc1OC)C(=O)C
  MOE2013           2D

 31 34  0  0  0  0  0  0  0  0999 V2000
    0.0000    0.0000    0.0000 F   0  0  0  0  0  0  0  0  0  0  0  0
   -1.3910    0.5620    0.0000 C   0  0  0  0  0  0  0  0  0  0  0  0
   -1.5990    2.0480    0.0000 C   0  0  0  0  0  0  0  0  0  0  0  0
   -2.9900    2.6100    0.0000 C   0  0  0  0  0  0  0  0  0  0  0  0
   -3.5030    4.0190    0.0000 O   0  0  0  0  0  0  0  0  0  0  0  0
   -5.0020    3.9670    0.0000 N   0  0  0  0  0  0  0  0  0  0  0  0
   -5.4160    2.5250    0.0000 C   0  0  0  0  0  0  0  0  0  0  0  0
   -4.1720    1.6860    0.0000 C   0  0  0  0  0  0  0  0  0  0  0  0
   -3.9640    0.2010    0.0000 C   0  0  0  0  0  0  0  0  0  0  0  0
   -2.5730   -0.3610    0.0000 C   0  0  0  0  0  0  0  0  0  0  0  0
   -6.8250    2.0120    0.0000 C   0  0  0  0  0  0  0  0  0  0  0  0
   -7.9740    2.9770    0.0000 C   0  0  0  0  0  0  0  0  0  0  0  0
   -9.3840    2.4640    0.0000 C   0  0  0  0  0  0  0  0  0  0  0  0
   -9.6440    0.9870    0.0000 N   0  0  0  0  0  0  0  0  0  0  0  0
   -8.4950    0.0220    0.0000 C   0  0  0  0  0  0  0  0  0  0  0  0
   -7.0860    0.5350    0.0000 C   0  0  0  0  0  0  0  0  0  0  0  0
  -11.0540    0.4740    0.0000 C   0  0  0  0  0  0  0  0  0  0  0  0
  -12.2030    1.4380    0.0000 C   0  0  0  0  0  0  0  0  0  0  0  0
  -13.6130    0.9250    0.0000 C   0  0  0  0  0  0  0  0  0  0  0  0
  -14.7610    1.8900    0.0000 O   0  0  0  0  0  0  0  0  0  0  0  0
  -16.1710    1.3770    0.0000 C   0  0  0  0  0  0  0  0  0  0  0  0
  -16.4320   -0.1000    0.0000 C   0  0  0  0  0  0  0  0  0  0  0  0
  -17.8410   -0.6130    0.0000 C   0  0  0  0  0  0  0  0  0  0  0  0
  -18.9900    0.3510    0.0000 C   0  0  0  0  0  0  0  0  0  0  0  0
  -18.7300    1.8280    0.0000 C   0  0  0  0  0  0  0  0  0  0  0  0
  -17.3200    2.3410    0.0000 C   0  0  0  0  0  0  0  0  0  0  0  0
  -17.0590    3.8180    0.0000 O   0  0  0  0  0  0  0  0  0  0  0  0
  -18.2080    4.7830    0.0000 C   0  0  0  0  0  0  0  0  0  0  0  0
  -20.4000   -0.1620    0.0000 C   0  0  0  0  0  0  0  0  0  0  0  0
  -20.6610   -1.6390    0.0000 O   0  0  0  0  0  0  0  0  0  0  0  0
  -21.5490    0.8030    0.0000 C   0  0  0  0  0  0  0  0  0  0  0  0
  1  2  1  0  0  0  0
  2  3  1  0  0  0  0
  2 10  2  0  0  0  0
  3  4  2  0  0  0  0
  4  5  1  0  0  0  0
  4  8  1  0  0  0  0
  5  6  1  0  0  0  0
  6  7  2  0  0  0  0
  7  8  1  0  0  0  0
  7 11  1  0  0  0  0
  8  9  2  0  0  0  0
  9 10  1  0  0  0  0
 11 12  1  0  0  0  0
 11 16  1  0  0  0  0
 12 13  1  0  0  0  0
 13 14  1  0  0  0  0
 14 15  1  0  0  0  0
 14 17  1  0  0  0  0
 15 16  1  0  0  0  0
 17 18  1  0  0  0  0
 18 19  1  0  0  0  0
 19 20  1  0  0  0  0
 20 21  1  0  0  0  0
 21 22  1  0  0  0  0
 21 26  2  0  0  0  0
 22 23  2  0  0  0  0
 23 24  1  0  0  0  0
 24 25  2  0  0  0  0
 24 29  1  0  0  0  0
 25 26  1  0  0  0  0
 26 27  1  0  0  0  0
 27 28  1  0  0  0  0
 29 30  2  0  0  0  0
 29 31  1  0  0  0  0
M  END
>  <Index>
548

>  <ID>
HT1078

>  <class>
0

>  <apol>
66.208412

>  <ast_fraglike>
0

>  <ast_fraglike_ext>
0

>  <ast_violation>
3

>  <ast_violation_ext>
4

>  <a_acc>
5

>  <a_acid>
0

>  <a_aro>
15

>  <a_base>
0

>  <a_count>
58

>  <a_don>
0

>  <a_donacc>
5

>  <a_heavy>
31

>  <a_hyd>
23

>  <a_IC>
91.341835

>  <a_ICM>
1.5748593

>  <a_nB>
0

>  <a_nBr>
0

>  <a_nC>
24

>  <a_nCl>
0

>  <a_nF>
1

>  <a_nH>
27

>  <a_nI>
0

>  <a_nN>
2

>  <a_nO>
4

>  <a_nP>
0

>  <a_nS>
0

>  <balabanJ>
1.1169988

>  <BCUT_PEOE_0>
-2.7881405

>  <BCUT_PEOE_1>
-0.59855705

>  <BCUT_PEOE_2>
0.55675399

>  <BCUT_PEOE_3>
2.7236116

>  <BCUT_SLOGP_0>
-2.8049307

>  <BCUT_SLOGP_1>
-0.46654552

>  <BCUT_SLOGP_2>
0.76419252

>  <BCUT_SLOGP_3>
2.764703

>  <BCUT_SMR_0>
-2.5211308

>  <BCUT_SMR_1>
-0.40001383

>  <BCUT_SMR_2>
0.74088985

>  <BCUT_SMR_3>
2.9839649

>  <bpol>
39.40559

>  <b_1rotN>
8

>  <b_1rotR>
0.23529412

>  <b_ar>
16

>  <b_count>
61

>  <b_double>
1

>  <b_heavy>
34

>  <b_max1len>
4

>  <b_rotN>
8

>  <b_rotR>
0.23529412

>  <b_single>
44

>  <b_triple>
0

>  <chi0>
21.794317

>  <chi0v>
17.896584

>  <chi0v_C>
14.991199

>  <chi0_C>
16.38854

>  <chi1>
15.046045

>  <chi1v>
10.638506

>  <chi1v_C>
7.5812392

>  <chi1_C>
9.3264999

>  <chiral>
0

>  <chiral_u>
0

>  <density>
0.74595821

>  <diameter>
19

>  <FCharge>
0

>  <GCUT_PEOE_0>
-0.85724634

>  <GCUT_PEOE_1>
-0.41249919

>  <GCUT_PEOE_2>
0.0083132787

>  <GCUT_PEOE_3>
2.7893977

>  <GCUT_SLOGP_0>
-0.95263034

>  <GCUT_SLOGP_1>
-0.30027056

>  <GCUT_SLOGP_2>
0.1581161

>  <GCUT_SLOGP_3>
2.857583

>  <GCUT_SMR_0>
-0.52195621

>  <GCUT_SMR_1>
-0.19156362

>  <GCUT_SMR_2>
0.1649816

>  <GCUT_SMR_3>
3.0346572

>  <Kier1>
24.134949

>  <Kier2>
11.421457

>  <Kier3>
6.1186266

>  <KierA1>
19.215513

>  <KierA2>
9.0201597

>  <KierA3>
4.8036652

>  <KierFlex>
5.5911932

>  <lip_acc>
6

>  <lip_don>
0

>  <lip_druglike>
1

>  <lip_violation>
0

>  <logP(o/w)>
3.9537399

>  <logS>
-5.09481

>  <mr>
11.78951

>  <mutagenic>
0

>  <nmol>
1

>  <opr_brigid>
22

>  <opr_leadlike>
1

>  <opr_nring>
4

>  <opr_nrot>
10

>  <opr_violation>
1

>  <PC+>
0

>  <PC->
0

>  <PEOE_PC+>
2.1733847

>  <PEOE_PC->
-2.1733847

>  <PEOE_RPC+>
0.078319751

>  <PEOE_RPC->
0.16301471

>  <PEOE_VSA+0>
123.10814

>  <PEOE_VSA+1>
68.570091

>  <PEOE_VSA+2>
25.937883

>  <PEOE_VSA+3>
16.917038

>  <PEOE_VSA+4>
0

>  <PEOE_VSA+5>
0

>  <PEOE_VSA+6>
0

>  <PEOE_VSA-0>
132.51079

>  <PEOE_VSA-1>
10.885262

>  <PEOE_VSA-2>
0

>  <PEOE_VSA-3>
0

>  <PEOE_VSA-4>
11.908636

>  <PEOE_VSA-5>
13.566921

>  <PEOE_VSA-6>
10.909872

>  <PEOE_VSA_FHYD>
0.91217923

>  <PEOE_VSA_FNEG>
0.433925

>  <PEOE_VSA_FPNEG>
0.087820768

>  <PEOE_VSA_FPOL>
0.087820768

>  <PEOE_VSA_FPOS>
0.56607503

>  <PEOE_VSA_FPPOS>
0

>  <PEOE_VSA_HYD>
377.9292

>  <PEOE_VSA_NEG>
179.78148

>  <PEOE_VSA_PNEG>
36.385429

>  <PEOE_VSA_POL>
36.385429

>  <PEOE_VSA_POS>
234.53316

>  <PEOE_VSA_PPOS>
0

>  <petitjean>
0.47368422

>  <petitjeanSC>
0.89999998

>  <Q_PC+>
0

>  <Q_PC->
0

>  <Q_RPC+>
0

>  <Q_RPC->
0

>  <Q_VSA_FHYD>
1

>  <Q_VSA_FNEG>
0

>  <Q_VSA_FPNEG>
0

>  <Q_VSA_FPOL>
0

>  <Q_VSA_FPOS>
1

>  <Q_VSA_FPPOS>
0

>  <Q_VSA_HYD>
414.31464

>  <Q_VSA_NEG>
0

>  <Q_VSA_PNEG>
0

>  <Q_VSA_POL>
0

>  <Q_VSA_POS>
414.31464

>  <Q_VSA_PPOS>
0

>  <radius>
10

>  <reactive>
1

>  <rings>
4

>  <RPC+>
0

>  <RPC->
0

>  <rsynth>
1

>  <SlogP>
4.8266001

>  <SlogP_VSA0>
21.999775

>  <SlogP_VSA1>
28.408522

>  <SlogP_VSA2>
9.1210184

>  <SlogP_VSA3>
76.244995

>  <SlogP_VSA4>
29.804539

>  <SlogP_VSA5>
45.117989

>  <SlogP_VSA6>
4.4107962

>  <SlogP_VSA7>
113.26828

>  <SlogP_VSA8>
56.605217

>  <SlogP_VSA9>
58.772984

>  <SMR>
11.54925

>  <SMR_VSA0>
33.596336

>  <SMR_VSA1>
59.680801

>  <SMR_VSA2>
9.1210184

>  <SMR_VSA3>
20.839975

>  <SMR_VSA4>
7.4091749

>  <SMR_VSA5>
162.46432

>  <SMR_VSA6>
81.932602

>  <SMR_VSA7>
68.709885

>  <TPSA>
64.800003

>  <VAdjEq>
0.36875206

>  <VAdjMa>
6.0874629

>  <VDistEq>
4.0172882

>  <VDistMa>
9.5544329

>  <vdw_area>
414.31464

>  <vdw_vol>
571.73175

>  <vsa_acc>
29.459696

>  <vsa_acid>
0

>  <vsa_base>
0

>  <vsa_don>
0

>  <vsa_hyd>
341.47202

>  <vsa_other>
22.819399

>  <vsa_pol>
29.459696

>  <Weight>
426.48798

>  <weinerPath>
3379

>  <weinerPol>
48

>  <zagreb>
162

$$$$