Oc1cc(NC(=O)C2=CNc3c(cccc3)C2=O)c(cc1C(C)(C)C)C(C)(C)C
  MOE2013           2D

 29 31  0  0  0  0  0  0  0  0999 V2000
    0.0000    0.0000    0.0000 O   0  0  0  0  0  0  0  0  0  0  0  0
    0.7430    1.3030    0.0000 C   0  0  0  0  0  0  0  0  0  0  0  0
    2.2430    1.3110    0.0000 C   0  0  0  0  0  0  0  0  0  0  0  0
    2.9860    2.6140    0.0000 C   0  0  0  0  0  0  0  0  0  0  0  0
    4.4860    2.6220    0.0000 N   0  0  0  0  0  0  0  0  0  0  0  0
    5.2430    1.3270    0.0000 C   0  0  0  0  0  0  0  0  0  0  0  0
    4.5000    0.0240    0.0000 O   0  0  0  0  0  0  0  0  0  0  0  0
    6.7430    1.3350    0.0000 C   0  0  0  0  0  0  0  0  0  0  0  0
    7.4860    2.6380    0.0000 C   0  0  0  0  0  0  0  0  0  0  0  0
    8.9860    2.6460    0.0000 N   0  0  0  0  0  0  0  0  0  0  0  0
    9.7430    1.3500    0.0000 C   0  0  0  0  0  0  0  0  0  0  0  0
    9.0000    0.0470    0.0000 C   0  0  0  0  0  0  0  0  0  0  0  0
    9.7570   -1.2480    0.0000 C   0  0  0  0  0  0  0  0  0  0  0  0
   11.2570   -1.2400    0.0000 C   0  0  0  0  0  0  0  0  0  0  0  0
   12.0000    0.0630    0.0000 C   0  0  0  0  0  0  0  0  0  0  0  0
   11.2430    1.3580    0.0000 C   0  0  0  0  0  0  0  0  0  0  0  0
    7.5000    0.0400    0.0000 C   0  0  0  0  0  0  0  0  0  0  0  0
    6.7570   -1.2630    0.0000 O   0  0  0  0  0  0  0  0  0  0  0  0
    2.2290    3.9090    0.0000 C   0  0  0  0  0  0  0  0  0  0  0  0
    0.7290    3.9010    0.0000 C   0  0  0  0  0  0  0  0  0  0  0  0
   -0.0140    2.5980    0.0000 C   0  0  0  0  0  0  0  0  0  0  0  0
   -1.5140    2.5900    0.0000 C   0  0  0  0  0  0  0  0  0  0  0  0
   -1.5060    1.0900    0.0000 C   0  0  0  0  0  0  0  0  0  0  0  0
   -1.5220    4.0900    0.0000 C   0  0  0  0  0  0  0  0  0  0  0  0
   -3.0140    2.5820    0.0000 C   0  0  0  0  0  0  0  0  0  0  0  0
    2.9730    5.2120    0.0000 C   0  0  0  0  0  0  0  0  0  0  0  0
    3.7160    6.5150    0.0000 C   0  0  0  0  0  0  0  0  0  0  0  0
    1.6700    5.9550    0.0000 C   0  0  0  0  0  0  0  0  0  0  0  0
    4.2760    4.4690    0.0000 C   0  0  0  0  0  0  0  0  0  0  0  0
  1  2  1  0  0  0  0
  2  3  1  0  0  0  0
  2 21  2  0  0  0  0
  3  4  2  0  0  0  0
  4  5  1  0  0  0  0
  4 19  1  0  0  0  0
  5  6  1  0  0  0  0
  6  7  2  0  0  0  0
  6  8  1  0  0  0  0
  8  9  2  0  0  0  0
  8 17  1  0  0  0  0
  9 10  1  0  0  0  0
 10 11  1  0  0  0  0
 11 12  1  0  0  0  0
 11 16  2  0  0  0  0
 12 13  2  0  0  0  0
 12 17  1  0  0  0  0
 13 14  1  0  0  0  0
 14 15  2  0  0  0  0
 15 16  1  0  0  0  0
 17 18  2  0  0  0  0
 19 20  2  0  0  0  0
 19 26  1  0  0  0  0
 20 21  1  0  0  0  0
 21 22  1  0  0  0  0
 22 23  1  0  0  0  0
 22 24  1  0  0  0  0
 22 25  1  0  0  0  0
 26 27  1  0  0  0  0
 26 28  1  0  0  0  0
 26 29  1  0  0  0  0
M  END
>  <Index>
582

>  <ID>
HT1149

>  <class>
0

>  <apol>
65.516205

>  <ast_fraglike>
0

>  <ast_fraglike_ext>
0

>  <ast_violation>
2

>  <ast_violation_ext>
3

>  <a_acc>
3

>  <a_acid>
0

>  <a_aro>
12

>  <a_base>
0

>  <a_count>
57

>  <a_don>
3

>  <a_donacc>
6

>  <a_heavy>
29

>  <a_hyd>
22

>  <a_IC>
81.074806

>  <a_ICM>
1.422365

>  <a_nB>
0

>  <a_nBr>
0

>  <a_nC>
24

>  <a_nCl>
0

>  <a_nF>
0

>  <a_nH>
28

>  <a_nI>
0

>  <a_nN>
2

>  <a_nO>
3

>  <a_nP>
0

>  <a_nS>
0

>  <balabanJ>
1.702144

>  <BCUT_PEOE_0>
-2.6561494

>  <BCUT_PEOE_1>
-0.48041829

>  <BCUT_PEOE_2>
0.53254622

>  <BCUT_PEOE_3>
2.6104305

>  <BCUT_SLOGP_0>
-2.5618026

>  <BCUT_SLOGP_1>
-0.40023559

>  <BCUT_SLOGP_2>
0.5701865

>  <BCUT_SLOGP_3>
2.7197847

>  <BCUT_SMR_0>
-2.3904908

>  <BCUT_SMR_1>
-0.32481039

>  <BCUT_SMR_2>
0.68500233

>  <BCUT_SMR_3>
2.8850834

>  <bpol>
33.845795

>  <b_1rotN>
2

>  <b_1rotR>
0.064516127

>  <b_ar>
12

>  <b_count>
59

>  <b_double>
3

>  <b_heavy>
31

>  <b_max1len>
4

>  <b_rotN>
5

>  <b_rotR>
0.16129032

>  <b_single>
44

>  <b_triple>
0

>  <chi0>
21.560114

>  <chi0v>
17.805162

>  <chi0v_C>
15.541451

>  <chi0_C>
17.145901

>  <chi1>
13.391884

>  <chi1v>
9.6912565

>  <chi1v_C>
8.0207262

>  <chi1_C>
9.9350882

>  <chiral>
0

>  <chiral_u>
0

>  <density>
0.70007813

>  <diameter>
13

>  <FCharge>
0

>  <GCUT_PEOE_0>
-0.81018299

>  <GCUT_PEOE_1>
-0.35132593

>  <GCUT_PEOE_2>
0.017117092

>  <GCUT_PEOE_3>
2.8339815

>  <GCUT_SLOGP_0>
-0.99796188

>  <GCUT_SLOGP_1>
-0.24249029

>  <GCUT_SLOGP_2>
0.092571825

>  <GCUT_SLOGP_3>
2.9483156

>  <GCUT_SMR_0>
-0.5264222

>  <GCUT_SMR_1>
-0.17931604

>  <GCUT_SMR_2>
0.14395094

>  <GCUT_SMR_3>
3.1091607

>  <Kier1>
23.658689

>  <Kier2>
8.859375

>  <Kier3>
5.2577777

>  <KierA1>
17.394789

>  <KierA2>
6.436831

>  <KierA3>
3.7866843

>  <KierFlex>
3.8609419

>  <lip_acc>
5

>  <lip_don>
3

>  <lip_druglike>
1

>  <lip_violation>
1

>  <logP(o/w)>
4.6900001

>  <logS>
-6.9639902

>  <mr>
11.38491

>  <mutagenic>
0

>  <nmol>
1

>  <opr_brigid>
17

>  <opr_leadlike>
1

>  <opr_nring>
3

>  <opr_nrot>
4

>  <opr_violation>
1

>  <PC+>
0

>  <PC->
0

>  <PEOE_PC+>
2.1577656

>  <PEOE_PC->
-2.1577656

>  <PEOE_RPC+>
0.1209561

>  <PEOE_RPC->
0.16659664

>  <PEOE_VSA+0>
92.38459

>  <PEOE_VSA+1>
40.524761

>  <PEOE_VSA+2>
8.6190128

>  <PEOE_VSA+3>
8.6190128

>  <PEOE_VSA+4>
18.782692

>  <PEOE_VSA+5>
12.949531

>  <PEOE_VSA+6>
0

>  <PEOE_VSA-0>
70.18261

>  <PEOE_VSA-1>
136.99588

>  <PEOE_VSA-2>
0

>  <PEOE_VSA-3>
0

>  <PEOE_VSA-4>
0

>  <PEOE_VSA-5>
27.270733

>  <PEOE_VSA-6>
7.9044313

>  <PEOE_VSA_FHYD>
0.84228635

>  <PEOE_VSA_FNEG>
0.57127452

>  <PEOE_VSA_FPNEG>
0.08291468

>  <PEOE_VSA_FPOL>
0.15771368

>  <PEOE_VSA_FPOS>
0.42872548

>  <PEOE_VSA_FPPOS>
0.074799001

>  <PEOE_VSA_HYD>
357.32587

>  <PEOE_VSA_NEG>
242.35365

>  <PEOE_VSA_PNEG>
35.175163

>  <PEOE_VSA_POL>
66.907387

>  <PEOE_VSA_POS>
181.87959

>  <PEOE_VSA_PPOS>
31.732224

>  <petitjean>
0.46153846

>  <petitjeanSC>
0.85714287

>  <Q_PC+>
0

>  <Q_PC->
0

>  <Q_RPC+>
0

>  <Q_RPC->
0

>  <Q_VSA_FHYD>
1

>  <Q_VSA_FNEG>
0

>  <Q_VSA_FPNEG>
0

>  <Q_VSA_FPOL>
0

>  <Q_VSA_FPOS>
1

>  <Q_VSA_FPPOS>
0

>  <Q_VSA_HYD>
424.23325

>  <Q_VSA_NEG>
0

>  <Q_VSA_PNEG>
0

>  <Q_VSA_POL>
0

>  <Q_VSA_POS>
424.23325

>  <Q_VSA_PPOS>
0

>  <radius>
7

>  <reactive>
0

>  <rings>
3

>  <RPC+>
0

>  <RPC->
0

>  <rsynth>
1

>  <SlogP>
5.118

>  <SlogP_VSA0>
25.385227

>  <SlogP_VSA1>
46.967896

>  <SlogP_VSA2>
23.862217

>  <SlogP_VSA3>
0

>  <SlogP_VSA4>
33.418941

>  <SlogP_VSA5>
3.185575

>  <SlogP_VSA6>
0

>  <SlogP_VSA7>
123.07346

>  <SlogP_VSA8>
0

>  <SlogP_VSA9>
210.71301

>  <SMR>
11.66147

>  <SMR_VSA0>
47.724434

>  <SMR_VSA1>
25.385227

>  <SMR_VSA2>
0

>  <SMR_VSA3>
17.985727

>  <SMR_VSA4>
41.534996

>  <SMR_VSA5>
123.07346

>  <SMR_VSA6>
10.946395

>  <SMR_VSA7>
199.95609

>  <TPSA>
78.43

>  <VAdjEq>
0.3796615

>  <VAdjMa>
5.9541965

>  <VDistEq>
3.4834523

>  <VDistMa>
9.4373837

>  <vdw_area>
424.23325

>  <vdw_vol>
560.65027

>  <vsa_acc>
27.133842

>  <vsa_acid>
0

>  <vsa_base>
0

>  <vsa_don>
11.365152

>  <vsa_hyd>
322.29294

>  <vsa_other>
21.408051

>  <vsa_pol>
52.065914

>  <Weight>
392.49899

>  <weinerPath>
2200

>  <weinerPol>
51

>  <zagreb>
158

$$$$