n1c2c(c3n(cnc3c1N)CC(C)C)cccc2
  MOE2013           2D

 18 20  0  0  0  0  0  0  0  0999 V2000
    0.0000    0.0000    0.0000 N   0  0  0  0  0  0  0  0  0  0  0  0
    0.7580   -1.2940    0.0000 C   0  0  0  0  0  0  0  0  0  0  0  0
    2.2580   -1.2850    0.0000 C   0  0  0  0  0  0  0  0  0  0  0  0
    3.0000    0.0190    0.0000 C   0  0  0  0  0  0  0  0  0  0  0  0
    4.4650    0.3400    0.0000 N   0  0  0  0  0  0  0  0  0  0  0  0
    4.6120    1.8330    0.0000 C   0  0  0  0  0  0  0  0  0  0  0  0
    3.2380    2.4340    0.0000 N   0  0  0  0  0  0  0  0  0  0  0  0
    2.2420    1.3130    0.0000 C   0  0  0  0  0  0  0  0  0  0  0  0
    0.7420    1.3040    0.0000 C   0  0  0  0  0  0  0  0  0  0  0  0
   -0.0170    2.5980    0.0000 N   0  0  0  0  0  0  0  0  0  0  0  0
    5.5860   -0.6560    0.0000 C   0  0  0  0  0  0  0  0  0  0  0  0
    7.0100   -0.1840    0.0000 C   0  0  0  0  0  0  0  0  0  0  0  0
    7.3120    1.2850    0.0000 C   0  0  0  0  0  0  0  0  0  0  0  0
    8.1310   -1.1800    0.0000 C   0  0  0  0  0  0  0  0  0  0  0  0
    3.0160   -2.5790    0.0000 C   0  0  0  0  0  0  0  0  0  0  0  0
    2.2750   -3.8830    0.0000 C   0  0  0  0  0  0  0  0  0  0  0  0
    0.7750   -3.8920    0.0000 C   0  0  0  0  0  0  0  0  0  0  0  0
    0.0170   -2.5980    0.0000 C   0  0  0  0  0  0  0  0  0  0  0  0
  1  2  1  0  0  0  0
  1  9  2  0  0  0  0
  2  3  1  0  0  0  0
  2 18  2  0  0  0  0
  3  4  1  0  0  0  0
  3 15  2  0  0  0  0
  4  5  1  0  0  0  0
  4  8  2  0  0  0  0
  5  6  1  0  0  0  0
  5 11  1  0  0  0  0
  6  7  2  0  0  0  0
  7  8  1  0  0  0  0
  8  9  1  0  0  0  0
  9 10  1  0  0  0  0
 11 12  1  0  0  0  0
 12 13  1  0  0  0  0
 12 14  1  0  0  0  0
 15 16  1  0  0  0  0
 16 17  2  0  0  0  0
 17 18  1  0  0  0  0
M  END
>  <Index>
551

>  <ID>
HT1084

>  <class>
0

>  <apol>
39.708687

>  <ast_fraglike>
0

>  <ast_fraglike_ext>
0

>  <ast_violation>
1

>  <ast_violation_ext>
1

>  <a_acc>
2

>  <a_acid>
0

>  <a_aro>
13

>  <a_base>
0

>  <a_count>
34

>  <a_don>
1

>  <a_donacc>
3

>  <a_heavy>
18

>  <a_hyd>
12

>  <a_IC>
47.670769

>  <a_ICM>
1.4020814

>  <a_nB>
0

>  <a_nBr>
0

>  <a_nC>
14

>  <a_nCl>
0

>  <a_nF>
0

>  <a_nH>
16

>  <a_nI>
0

>  <a_nN>
4

>  <a_nO>
0

>  <a_nP>
0

>  <a_nS>
0

>  <balabanJ>
1.7921485

>  <BCUT_PEOE_0>
-2.6092207

>  <BCUT_PEOE_1>
-0.52603155

>  <BCUT_PEOE_2>
0.60265511

>  <BCUT_PEOE_3>
2.558502

>  <BCUT_SLOGP_0>
-2.4938068

>  <BCUT_SLOGP_1>
-0.42827535

>  <BCUT_SLOGP_2>
0.71236539

>  <BCUT_SLOGP_3>
2.6792214

>  <BCUT_SMR_0>
-2.3602014

>  <BCUT_SMR_1>
-0.38722029

>  <BCUT_SMR_2>
0.78132117

>  <BCUT_SMR_3>
2.8108878

>  <bpol>
21.451311

>  <b_1rotN>
2

>  <b_1rotR>
0.1

>  <b_ar>
15

>  <b_count>
36

>  <b_double>
0

>  <b_heavy>
20

>  <b_max1len>
4

>  <b_rotN>
2

>  <b_rotR>
0.1

>  <b_single>
21

>  <b_triple>
0

>  <chi0>
12.698306

>  <chi0v>
10.590199

>  <chi0v_C>
8.6712084

>  <chi0_C>
9.7067423

>  <chi1>
8.6647034

>  <chi1v>
6.1560268

>  <chi1v_C>
4.1402993

>  <chi1_C>
5.2127786

>  <chiral>
0

>  <chiral_u>
0

>  <density>
0.70248097

>  <diameter>
8

>  <FCharge>
0

>  <GCUT_PEOE_0>
-0.84823912

>  <GCUT_PEOE_1>
-0.36219865

>  <GCUT_PEOE_2>
0.058000874

>  <GCUT_PEOE_3>
2.5415213

>  <GCUT_SLOGP_0>
-1.3347205

>  <GCUT_SLOGP_1>
-0.24331138

>  <GCUT_SLOGP_2>
0.14045092

>  <GCUT_SLOGP_3>
2.673008

>  <GCUT_SMR_0>
-0.52959818

>  <GCUT_SMR_1>
-0.17837995

>  <GCUT_SMR_2>
0.18440625

>  <GCUT_SMR_3>
2.842366

>  <Kier1>
13.005

>  <Kier2>
5.1747918

>  <Kier3>
2.4000001

>  <KierA1>
9.0352964

>  <KierA2>
3.5105081

>  <KierA3>
1.5995103

>  <KierFlex>
1.7621377

>  <lip_acc>
4

>  <lip_don>
2

>  <lip_druglike>
1

>  <lip_violation>
0

>  <logP(o/w)>
3.1175301

>  <logS>
-3.05002

>  <mr>
7.1531343

>  <mutagenic>
1

>  <nmol>
1

>  <opr_brigid>
15

>  <opr_leadlike>
1

>  <opr_nring>
3

>  <opr_nrot>
2

>  <opr_violation>
0

>  <PC+>
0

>  <PC->
0

>  <PEOE_PC+>
1.437775

>  <PEOE_PC->
-1.437775

>  <PEOE_RPC+>
0.091998674

>  <PEOE_RPC->
0.22899488

>  <PEOE_VSA+0>
53.789337

>  <PEOE_VSA+1>
51.697575

>  <PEOE_VSA+2>
39.393524

>  <PEOE_VSA+3>
0

>  <PEOE_VSA+4>
0

>  <PEOE_VSA+5>
0

>  <PEOE_VSA+6>
0

>  <PEOE_VSA-0>
12.254904

>  <PEOE_VSA-1>
74.260063

>  <PEOE_VSA-2>
0

>  <PEOE_VSA-3>
0

>  <PEOE_VSA-4>
11.365152

>  <PEOE_VSA-5>
6.6511192

>  <PEOE_VSA-6>
0

>  <PEOE_VSA_FHYD>
0.92776495

>  <PEOE_VSA_FNEG>
0.41911125

>  <PEOE_VSA_FPNEG>
0.072235078

>  <PEOE_VSA_FPOL>
0.072235078

>  <PEOE_VSA_FPOS>
0.58088875

>  <PEOE_VSA_FPPOS>
0

>  <PEOE_VSA_HYD>
231.3954

>  <PEOE_VSA_NEG>
104.53124

>  <PEOE_VSA_PNEG>
18.016272

>  <PEOE_VSA_POL>
18.016272

>  <PEOE_VSA_POS>
144.88043

>  <PEOE_VSA_PPOS>
0

>  <petitjean>
0.5

>  <petitjeanSC>
1

>  <Q_PC+>
0

>  <Q_PC->
0

>  <Q_RPC+>
0

>  <Q_RPC->
0

>  <Q_VSA_FHYD>
1

>  <Q_VSA_FNEG>
0

>  <Q_VSA_FPNEG>
0

>  <Q_VSA_FPOL>
0

>  <Q_VSA_FPOS>
1

>  <Q_VSA_FPPOS>
0

>  <Q_VSA_HYD>
249.41168

>  <Q_VSA_NEG>
0

>  <Q_VSA_PNEG>
0

>  <Q_VSA_POL>
0

>  <Q_VSA_POS>
249.41168

>  <Q_VSA_PPOS>
0

>  <radius>
4

>  <reactive>
0

>  <rings>
3

>  <RPC+>
0

>  <RPC->
0

>  <rsynth>
1

>  <SlogP>
3.0890999

>  <SlogP_VSA0>
32.897186

>  <SlogP_VSA1>
35.47015

>  <SlogP_VSA2>
0

>  <SlogP_VSA3>
0

>  <SlogP_VSA4>
4.4107962

>  <SlogP_VSA5>
0

>  <SlogP_VSA6>
0

>  <SlogP_VSA7>
96.36364

>  <SlogP_VSA8>
0

>  <SlogP_VSA9>
87.419525

>  <SMR>
7.4489398

>  <SMR_VSA0>
0

>  <SMR_VSA1>
35.47015

>  <SMR_VSA2>
4.4107962

>  <SMR_VSA3>
0

>  <SMR_VSA4>
11.333296

>  <SMR_VSA5>
138.69504

>  <SMR_VSA6>
0

>  <SMR_VSA7>
66.652031

>  <TPSA>
56.73

>  <VAdjEq>
0.53921634

>  <VAdjMa>
5.321928

>  <VDistEq>
2.7819161

>  <VDistMa>
8.071826

>  <vdw_area>
249.41168

>  <vdw_vol>
342.08755

>  <vsa_acc>
11.365152

>  <vsa_acid>
0

>  <vsa_base>
0

>  <vsa_don>
17.742489

>  <vsa_hyd>
166.86612

>  <vsa_other>
35.981079

>  <vsa_pol>
29.107641

>  <Weight>
240.31

>  <weinerPath>
550

>  <weinerPol>
29

>  <zagreb>
98

$$$$