Oc1ccc(cc1)C[C@H](NC(=O)[C@@H](NC(=O)[C@@H](NC(=O)[C@@H](NC(=O)[C@H]1NC(=O)CC1)Cc1[nH]cnc1)Cc1c2c([nH]c1)cccc2)CO)C(=O)N[C@@H](C(=O)N[C@@H](CC(C)C)C(=O)N[C@@H](CCCNC(N)=N)C(=O)N1CCC[C@H]1C(=O)NNC(=O)N)COC(C)(C)C
  MOE2013           2D

 91 96  0  0  1  0  0  0  0  0999 V2000
    0.0000    0.0000    0.0000 O   0  0  0  0  0  0  0  0  0  0  0  0
    0.7480    1.3000    0.0000 C   0  0  0  0  0  0  0  0  0  0  0  0
    2.2480    1.3020    0.0000 C   0  0  0  0  0  0  0  0  0  0  0  0
    2.9970    2.6020    0.0000 C   0  0  0  0  0  0  0  0  0  0  0  0
    2.2450    3.9000    0.0000 C   0  0  0  0  0  0  0  0  0  0  0  0
    0.7450    3.8980    0.0000 C   0  0  0  0  0  0  0  0  0  0  0  0
   -0.0030    2.5980    0.0000 C   0  0  0  0  0  0  0  0  0  0  0  0
    2.9930    5.2000    0.0000 C   0  0  0  0  0  0  0  0  0  0  0  0
    2.2410    6.4980    0.0000 C   0  0  2  0  0  0  0  0  0  0  0  0
    2.9900    7.7980    0.0000 N   0  0  0  0  0  0  0  0  0  0  0  0
    4.4900    7.8000    0.0000 C   0  0  0  0  0  0  0  0  0  0  0  0
    5.2410    6.5020    0.0000 O   0  0  0  0  0  0  0  0  0  0  0  0
    5.2380    9.1000    0.0000 C   0  0  1  0  0  0  0  0  0  0  0  0
    6.7380    9.1020    0.0000 N   0  0  0  0  0  0  0  0  0  0  0  0
    7.4860   10.4020    0.0000 C   0  0  0  0  0  0  0  0  0  0  0  0
    6.7350   11.7000    0.0000 O   0  0  0  0  0  0  0  0  0  0  0  0
    8.9860   10.4040    0.0000 C   0  0  1  0  0  0  0  0  0  0  0  0
    9.7350   11.7040    0.0000 N   0  0  0  0  0  0  0  0  0  0  0  0
    8.9830   13.0020    0.0000 C   0  0  0  0  0  0  0  0  0  0  0  0
    7.4830   13.0000    0.0000 O   0  0  0  0  0  0  0  0  0  0  0  0
    9.7310   14.3020    0.0000 C   0  0  1  0  0  0  0  0  0  0  0  0
   11.2310   14.3040    0.0000 N   0  0  0  0  0  0  0  0  0  0  0  0
   11.9830   13.0060    0.0000 C   0  0  0  0  0  0  0  0  0  0  0  0
   11.2350   11.7060    0.0000 O   0  0  0  0  0  0  0  0  0  0  0  0
   13.4830   13.0080    0.0000 C   0  0  1  0  0  0  0  0  0  0  0  0
   14.3630   14.2230    0.0000 N   0  0  0  0  0  0  0  0  0  0  0  0
   15.7900   13.7610    0.0000 C   0  0  0  0  0  0  0  0  0  0  0  0
   17.0020   14.6450    0.0000 O   0  0  0  0  0  0  0  0  0  0  0  0
   15.7920   12.2610    0.0000 C   0  0  0  0  0  0  0  0  0  0  0  0
   14.3660   11.7960    0.0000 C   0  0  0  0  0  0  0  0  0  0  0  0
    8.9790   15.6000    0.0000 C   0  0  0  0  0  0  0  0  0  0  0  0
    9.7280   16.9000    0.0000 C   0  0  0  0  0  0  0  0  0  0  0  0
   11.2190   17.0590    0.0000 N   0  0  0  0  0  0  0  0  0  0  0  0
   11.5290   18.5270    0.0000 C   0  0  0  0  0  0  0  0  0  0  0  0
   10.2290   19.2750    0.0000 N   0  0  0  0  0  0  0  0  0  0  0  0
    9.1160   18.2700    0.0000 C   0  0  0  0  0  0  0  0  0  0  0  0
    9.7380    9.1060    0.0000 C   0  0  0  0  0  0  0  0  0  0  0  0
    8.9900    7.8060    0.0000 C   0  0  0  0  0  0  0  0  0  0  0  0
    9.6020    6.4370    0.0000 C   0  0  0  0  0  0  0  0  0  0  0  0
    8.4880    5.4310    0.0000 C   0  0  0  0  0  0  0  0  0  0  0  0
    7.1880    6.1800    0.0000 N   0  0  0  0  0  0  0  0  0  0  0  0
    7.4980    7.6470    0.0000 C   0  0  0  0  0  0  0  0  0  0  0  0
    8.8020    3.9650    0.0000 C   0  0  0  0  0  0  0  0  0  0  0  0
   10.2290    3.5030    0.0000 C   0  0  0  0  0  0  0  0  0  0  0  0
   11.3430    4.5080    0.0000 C   0  0  0  0  0  0  0  0  0  0  0  0
   11.0290    5.9750    0.0000 C   0  0  0  0  0  0  0  0  0  0  0  0
    4.4860   10.3980    0.0000 C   0  0  0  0  0  0  0  0  0  0  0  0
    2.9860   10.3960    0.0000 O   0  0  0  0  0  0  0  0  0  0  0  0
    0.7410    6.4960    0.0000 C   0  0  0  0  0  0  0  0  0  0  0  0
   -0.0070    5.1960    0.0000 O   0  0  0  0  0  0  0  0  0  0  0  0
   -0.0100    7.7940    0.0000 N   0  0  0  0  0  0  0  0  0  0  0  0
   -1.5100    7.7920    0.0000 C   0  0  1  0  0  0  0  0  0  0  0  0
   -2.2620    9.0900    0.0000 C   0  0  0  0  0  0  0  0  0  0  0  0
   -1.5140   10.3900    0.0000 O   0  0  0  0  0  0  0  0  0  0  0  0
   -3.7620    9.0880    0.0000 N   0  0  0  0  0  0  0  0  0  0  0  0
   -4.5140   10.3860    0.0000 C   0  0  1  0  0  0  0  0  0  0  0  0
   -3.7650   11.6860    0.0000 C   0  0  0  0  0  0  0  0  0  0  0  0
   -4.5170   12.9840    0.0000 C   0  0  0  0  0  0  0  0  0  0  0  0
   -3.7690   14.2840    0.0000 C   0  0  0  0  0  0  0  0  0  0  0  0
   -6.0170   12.9820    0.0000 C   0  0  0  0  0  0  0  0  0  0  0  0
   -6.0140   10.3840    0.0000 C   0  0  0  0  0  0  0  0  0  0  0  0
   -6.7650   11.6820    0.0000 O   0  0  0  0  0  0  0  0  0  0  0  0
   -6.7620    9.0840    0.0000 N   0  0  0  0  0  0  0  0  0  0  0  0
   -8.2620    9.0820    0.0000 C   0  0  1  0  0  0  0  0  0  0  0  0
   -9.0140   10.3800    0.0000 C   0  0  0  0  0  0  0  0  0  0  0  0
  -10.5140   10.3780    0.0000 C   0  0  0  0  0  0  0  0  0  0  0  0
  -11.2650   11.6760    0.0000 C   0  0  0  0  0  0  0  0  0  0  0  0
  -12.7650   11.6740    0.0000 N   0  0  0  0  0  0  0  0  0  0  0  0
  -13.5170   12.9720    0.0000 C   0  0  0  0  0  0  0  0  0  0  0  0
  -15.0170   12.9710    0.0000 N   0  0  0  0  0  0  0  0  0  0  0  0
  -12.7690   14.2730    0.0000 N   0  0  0  0  0  0  0  0  0  0  0  0
   -9.0100    7.7820    0.0000 C   0  0  0  0  0  0  0  0  0  0  0  0
   -8.2590    6.4840    0.0000 O   0  0  0  0  0  0  0  0  0  0  0  0
  -10.5100    7.7800    0.0000 N   0  0  0  0  0  0  0  0  0  0  0  0
  -11.3940    8.9930    0.0000 C   0  0  0  0  0  0  0  0  0  0  0  0
  -12.8200    8.5270    0.0000 C   0  0  0  0  0  0  0  0  0  0  0  0
  -12.8180    7.0270    0.0000 C   0  0  0  0  0  0  0  0  0  0  0  0
  -11.3900    6.5660    0.0000 C   0  0  1  0  0  0  0  0  0  0  0  0
  -10.9250    5.1400    0.0000 C   0  0  0  0  0  0  0  0  0  0  0  0
   -9.4570    4.8300    0.0000 O   0  0  0  0  0  0  0  0  0  0  0  0
  -11.9270    4.0240    0.0000 N   0  0  0  0  0  0  0  0  0  0  0  0
  -11.4620    2.5980    0.0000 N   0  0  0  0  0  0  0  0  0  0  0  0
  -12.4640    1.4820    0.0000 C   0  0  0  0  0  0  0  0  0  0  0  0
  -11.9990    0.0560    0.0000 O   0  0  0  0  0  0  0  0  0  0  0  0
  -13.9320    1.7920    0.0000 N   0  0  0  0  0  0  0  0  0  0  0  0
   -2.2590    6.4920    0.0000 C   0  0  0  0  0  0  0  0  0  0  0  0
   -1.5070    5.1940    0.0000 O   0  0  0  0  0  0  0  0  0  0  0  0
   -2.2550    3.8940    0.0000 C   0  0  0  0  0  0  0  0  0  0  0  0
   -3.0030    2.5940    0.0000 C   0  0  0  0  0  0  0  0  0  0  0  0
   -3.5550    4.6420    0.0000 C   0  0  0  0  0  0  0  0  0  0  0  0
   -0.9550    3.1460    0.0000 C   0  0  0  0  0  0  0  0  0  0  0  0
  1  2  1  0  0  0  0
  2  3  1  0  0  0  0
  2  7  2  0  0  0  0
  3  4  2  0  0  0  0
  4  5  1  0  0  0  0
  5  6  2  0  0  0  0
  5  8  1  0  0  0  0
  6  7  1  0  0  0  0
  9  8  1  1  0  0  0
  9 10  1  0  0  0  0
  9 49  1  0  0  0  0
 10 11  1  0  0  0  0
 11 12  2  0  0  0  0
 13 11  1  6  0  0  0
 13 14  1  0  0  0  0
 13 47  1  0  0  0  0
 14 15  1  0  0  0  0
 15 16  2  0  0  0  0
 17 15  1  1  0  0  0
 17 18  1  0  0  0  0
 17 37  1  0  0  0  0
 18 19  1  0  0  0  0
 19 20  2  0  0  0  0
 21 19  1  6  0  0  0
 21 22  1  0  0  0  0
 21 31  1  0  0  0  0
 22 23  1  0  0  0  0
 23 24  2  0  0  0  0
 25 23  1  1  0  0  0
 25 26  1  0  0  0  0
 25 30  1  0  0  0  0
 26 27  1  0  0  0  0
 27 28  2  0  0  0  0
 27 29  1  0  0  0  0
 29 30  1  0  0  0  0
 31 32  1  0  0  0  0
 32 33  1  0  0  0  0
 32 36  2  0  0  0  0
 33 34  1  0  0  0  0
 34 35  2  0  0  0  0
 35 36  1  0  0  0  0
 37 38  1  0  0  0  0
 38 39  1  0  0  0  0
 38 42  2  0  0  0  0
 39 40  2  0  0  0  0
 39 46  1  0  0  0  0
 40 41  1  0  0  0  0
 40 43  1  0  0  0  0
 41 42  1  0  0  0  0
 43 44  2  0  0  0  0
 44 45  1  0  0  0  0
 45 46  2  0  0  0  0
 47 48  1  0  0  0  0
 49 50  2  0  0  0  0
 49 51  1  0  0  0  0
 52 51  1  6  0  0  0
 52 53  1  0  0  0  0
 52 86  1  0  0  0  0
 53 54  2  0  0  0  0
 53 55  1  0  0  0  0
 56 55  1  6  0  0  0
 56 57  1  0  0  0  0
 56 61  1  0  0  0  0
 57 58  1  0  0  0  0
 58 59  1  0  0  0  0
 58 60  1  0  0  0  0
 61 62  2  0  0  0  0
 61 63  1  0  0  0  0
 64 63  1  6  0  0  0
 64 65  1  0  0  0  0
 64 72  1  0  0  0  0
 65 66  1  0  0  0  0
 66 67  1  0  0  0  0
 67 68  1  0  0  0  0
 68 69  1  0  0  0  0
 69 70  1  0  0  0  0
 69 71  2  0  0  0  0
 72 73  2  0  0  0  0
 72 74  1  0  0  0  0
 74 75  1  0  0  0  0
 74 78  1  0  0  0  0
 75 76  1  0  0  0  0
 76 77  1  0  0  0  0
 77 78  1  0  0  0  0
 78 79  1  6  0  0  0
 79 80  2  0  0  0  0
 79 81  1  0  0  0  0
 81 82  1  0  0  0  0
 82 83  1  0  0  0  0
 83 84  2  0  0  0  0
 83 85  1  0  0  0  0
 86 87  1  0  0  0  0
 87 88  1  0  0  0  0
 88 89  1  0  0  0  0
 88 90  1  0  0  0  0
 88 91  1  0  0  0  0
M  END
>  <Index>
501

>  <ID>
HT1002

>  <class>
0

>  <apol>
190.87862

>  <ast_fraglike>
0

>  <ast_fraglike_ext>
0

>  <ast_violation>
3

>  <ast_violation_ext>
5

>  <a_acc>
17

>  <a_acid>
0

>  <a_aro>
20

>  <a_base>
0

>  <a_count>
175

>  <a_don>
19

>  <a_donacc>
36

>  <a_heavy>
91

>  <a_hyd>
46

>  <a_IC>
291.56973

>  <a_ICM>
1.6661127

>  <a_nB>
0

>  <a_nBr>
0

>  <a_nC>
59

>  <a_nCl>
0

>  <a_nF>
0

>  <a_nH>
84

>  <a_nI>
0

>  <a_nN>
18

>  <a_nO>
14

>  <a_nP>
0

>  <a_nS>
0

>  <balabanJ>
1.2068291

>  <BCUT_PEOE_0>
-2.6910646

>  <BCUT_PEOE_1>
-0.5570848

>  <BCUT_PEOE_2>
0.54959387

>  <BCUT_PEOE_3>
2.7430933

>  <BCUT_SLOGP_0>
-2.8910811

>  <BCUT_SLOGP_1>
-0.53807992

>  <BCUT_SLOGP_2>
0.63684219

>  <BCUT_SLOGP_3>
2.6972558

>  <BCUT_SMR_0>
-2.4399652

>  <BCUT_SMR_1>
-0.39673588

>  <BCUT_SMR_2>
0.70205379

>  <BCUT_SMR_3>
2.9944248

>  <bpol>
113.52339

>  <b_1rotN>
33

>  <b_1rotR>
0.34375

>  <b_ar>
21

>  <b_count>
180

>  <b_double>
12

>  <b_heavy>
96

>  <b_max1len>
7

>  <b_rotN>
44

>  <b_rotR>
0.45833334

>  <b_single>
147

>  <b_triple>
0

>  <chi0>
66.527428

>  <chi0v>
51.366386

>  <chi0v_C>
36.523849

>  <chi0_C>
39.343475

>  <chi1>
43.171871

>  <chi1v>
29.885626

>  <chi1v_C>
17.72554

>  <chi1_C>
20.30283

>  <chiral>
9

>  <chiral_u>
0

>  <density>
0.77368855

>  <diameter>
32

>  <FCharge>
0

>  <GCUT_PEOE_0>
-0.86278963

>  <GCUT_PEOE_1>
-0.42813188

>  <GCUT_PEOE_2>
0.070878513

>  <GCUT_PEOE_3>
3.2696037

>  <GCUT_SLOGP_0>
-1.371218

>  <GCUT_SLOGP_1>
-0.40345901

>  <GCUT_SLOGP_2>
0.12298281

>  <GCUT_SLOGP_3>
3.1863711

>  <GCUT_SMR_0>
-0.53359556

>  <GCUT_SMR_1>
-0.24044375

>  <GCUT_SMR_2>
0.18395139

>  <GCUT_SMR_3>
3.5046239

>  <Kier1>
79.980469

>  <Kier2>
40.301315

>  <Kier3>
27.225

>  <KierA1>
59.025333

>  <KierA2>
29.635916

>  <KierA3>
19.970869

>  <KierFlex>
19.222746

>  <lip_acc>
32

>  <lip_don>
20

>  <lip_druglike>
0

>  <lip_violation>
3

>  <logP(o/w)>
-1.732

>  <logS>
-9.6052904

>  <mr>
33.019569

>  <mutagenic>
0

>  <nmol>
1

>  <opr_brigid>
32

>  <opr_leadlike>
0

>  <opr_nring>
6

>  <opr_nrot>
35

>  <opr_violation>
5

>  <PC+>
0

>  <PC->
0

>  <PEOE_PC+>
10.837003

>  <PEOE_PC->
-10.837003

>  <PEOE_RPC+>
0.030644301

>  <PEOE_RPC->
0.036216889

>  <PEOE_VSA+0>
280.90482

>  <PEOE_VSA+1>
157.7019

>  <PEOE_VSA+2>
32.579029

>  <PEOE_VSA+3>
170.82381

>  <PEOE_VSA+4>
137.19412

>  <PEOE_VSA+5>
12.949531

>  <PEOE_VSA+6>
17.440542

>  <PEOE_VSA-0>
149.63271

>  <PEOE_VSA-1>
98.769875

>  <PEOE_VSA-2>
0

>  <PEOE_VSA-3>
0

>  <PEOE_VSA-4>
23.124851

>  <PEOE_VSA-5>
151.74136

>  <PEOE_VSA-6>
32.846878

>  <PEOE_VSA_FHYD>
0.70348859

>  <PEOE_VSA_FNEG>
0.36036366

>  <PEOE_VSA_FPNEG>
0.16410804

>  <PEOE_VSA_FPOL>
0.29651141

>  <PEOE_VSA_FPOS>
0.63963634

>  <PEOE_VSA_FPPOS>
0.13240337

>  <PEOE_VSA_HYD>
890.41217

>  <PEOE_VSA_NEG>
456.11566

>  <PEOE_VSA_PNEG>
207.71309

>  <PEOE_VSA_POL>
375.2973

>  <PEOE_VSA_POS>
809.59375

>  <PEOE_VSA_PPOS>
167.5842

>  <petitjean>
0.5

>  <petitjeanSC>
1

>  <Q_PC+>
0

>  <Q_PC->
0

>  <Q_RPC+>
0

>  <Q_RPC->
0

>  <Q_VSA_FHYD>
1

>  <Q_VSA_FNEG>
0

>  <Q_VSA_FPNEG>
0

>  <Q_VSA_FPOL>
0

>  <Q_VSA_FPOS>
1

>  <Q_VSA_FPPOS>
0

>  <Q_VSA_HYD>
1265.7095

>  <Q_VSA_NEG>
0

>  <Q_VSA_PNEG>
0

>  <Q_VSA_POL>
0

>  <Q_VSA_POS>
1265.7095

>  <Q_VSA_PPOS>
0

>  <radius>
16

>  <reactive>
0

>  <rings>
6

>  <RPC+>
0

>  <RPC->
0

>  <rsynth>
1

>  <SlogP>
-2.8961201

>  <SlogP_VSA0>
314.43805

>  <SlogP_VSA1>
79.22673

>  <SlogP_VSA2>
319.03082

>  <SlogP_VSA3>
78.731674

>  <SlogP_VSA4>
13.538693

>  <SlogP_VSA5>
56.605217

>  <SlogP_VSA6>
0

>  <SlogP_VSA7>
228.74878

>  <SlogP_VSA8>
132.07884

>  <SlogP_VSA9>
195.73572

>  <SMR>
32.777821

>  <SMR_VSA0>
273.48425

>  <SMR_VSA1>
70.680298

>  <SMR_VSA2>
267.52704

>  <SMR_VSA3>
50.209045

>  <SMR_VSA4>
70.511475

>  <SMR_VSA5>
381.04376

>  <SMR_VSA6>
138.04855

>  <SMR_VSA7>
166.63008

>  <TPSA>
493.39001

>  <VAdjEq>
0.15897132

>  <VAdjMa>
7.5849624

>  <VDistEq>
4.7475777

>  <VDistMa>
12.770301

>  <vdw_area>
1265.7095

>  <vdw_vol>
1640.7544

>  <vsa_acc>
151.73988

>  <vsa_acid>
0

>  <vsa_base>
0

>  <vsa_don>
111.15282

>  <vsa_hyd>
647.89789

>  <vsa_other>
187.40794

>  <vsa_pol>
319.13419

>  <Weight>
1269.433

>  <weinerPath>
52357

>  <weinerPol>
134

>  <zagreb>
458

$$$$