s1cc(nc1C)C=C(/C)[C@@H]1NC(=O)C[C@H](O)C(C)(C)C(=O)[C@H](C)[C@@H](O)[C@H](CCC[C@]2(O[C@H]2C1)C)C
  MOE2013           2D

 35 37  0  0  1  0  0  0  0  0999 V2000
    0.0000    0.0000    0.0000 S   0  0  0  0  0  0  0  0  0  0  0  0
   -1.4700    0.3000    0.0000 C   0  0  0  0  0  0  0  0  0  0  0  0
   -1.6390    1.7900    0.0000 C   0  0  0  0  0  0  0  0  0  0  0  0
   -0.2730    2.4120    0.0000 N   0  0  0  0  0  0  0  0  0  0  0  0
    0.7390    1.3050    0.0000 C   0  0  0  0  0  0  0  0  0  0  0  0
    2.2300    1.4740    0.0000 C   0  0  0  0  0  0  0  0  0  0  0  0
   -2.9440    2.5300    0.0000 C   0  0  0  0  0  0  0  0  0  0  0  0
   -4.2370    1.7690    0.0000 C   0  0  0  0  0  0  0  0  0  0  0  0
   -4.2240    0.2690    0.0000 C   0  0  0  0  0  0  0  0  0  0  0  0
   -5.5420    2.5090    0.0000 C   0  0  2  0  0  0  0  0  0  0  0  0
   -6.7800    1.6830    0.0000 N   0  0  0  0  0  0  0  0  0  0  0  0
   -6.6660    0.1790    0.0000 C   0  0  0  0  0  0  0  0  0  0  0  0
   -5.3140   -0.4700    0.0000 O   0  0  0  0  0  0  0  0  0  0  0  0
   -7.9040   -0.6690    0.0000 C   0  0  0  0  0  0  0  0  0  0  0  0
   -9.2490   -0.0300    0.0000 C   0  0  2  0  0  0  0  0  0  0  0  0
   -9.3500    1.4660    0.0000 O   0  0  0  0  0  0  0  0  0  0  0  0
  -10.5120   -0.8540    0.0000 C   0  0  0  0  0  0  0  0  0  0  0  0
   -9.7950   -2.1720    0.0000 C   0  0  0  0  0  0  0  0  0  0  0  0
  -11.2960   -2.1330    0.0000 C   0  0  0  0  0  0  0  0  0  0  0  0
  -11.8200   -0.0500    0.0000 C   0  0  0  0  0  0  0  0  0  0  0  0
  -13.1660   -0.7120    0.0000 O   0  0  0  0  0  0  0  0  0  0  0  0
  -11.6610    1.4370    0.0000 C   0  0  2  0  0  0  0  0  0  0  0  0
  -10.2730    2.0050    0.0000 C   0  0  0  0  0  0  0  0  0  0  0  0
  -12.8160    2.3840    0.0000 C   0  0  1  0  0  0  0  0  0  0  0  0
  -14.2400    1.9130    0.0000 O   0  0  0  0  0  0  0  0  0  0  0  0
  -12.4450    3.8740    0.0000 C   0  0  2  0  0  0  0  0  0  0  0  0
  -10.9660    4.1700    0.0000 C   0  0  0  0  0  0  0  0  0  0  0  0
  -10.4520    5.5670    0.0000 C   0  0  0  0  0  0  0  0  0  0  0  0
   -8.9760    5.8300    0.0000 C   0  0  0  0  0  0  0  0  0  0  0  0
   -7.9980    4.6860    0.0000 C   0  0  1  0  0  0  0  0  0  0  0  0
   -7.4950    6.1020    0.0000 O   0  0  0  0  0  0  0  0  0  0  0  0
   -6.5370    4.9520    0.0000 C   0  0  1  0  0  0  0  0  0  0  0  0
   -5.4710    3.9620    0.0000 C   0  0  0  0  0  0  0  0  0  0  0  0
   -8.5480    3.2900    0.0000 C   0  0  0  0  0  0  0  0  0  0  0  0
  -13.4800    4.9590    0.0000 C   0  0  0  0  0  0  0  0  0  0  0  0
  1  2  1  0  0  0  0
  1  5  1  0  0  0  0
  2  3  2  0  0  0  0
  3  4  1  0  0  0  0
  3  7  1  0  0  0  0
  4  5  2  0  0  0  0
  5  6  1  0  0  0  0
  7  8  2  3  0  0  0
  8  9  1  0  0  0  0
 10  8  1  6  0  0  0
 10 11  1  0  0  0  0
 10 33  1  0  0  0  0
 11 12  1  0  0  0  0
 12 13  2  0  0  0  0
 12 14  1  0  0  0  0
 14 15  1  0  0  0  0
 15 16  1  1  0  0  0
 15 17  1  0  0  0  0
 17 18  1  0  0  0  0
 17 19  1  0  0  0  0
 17 20  1  0  0  0  0
 20 21  2  0  0  0  0
 20 22  1  0  0  0  0
 22 23  1  1  0  0  0
 22 24  1  0  0  0  0
 24 25  1  1  0  0  0
 24 26  1  0  0  0  0
 26 27  1  0  0  0  0
 26 35  1  1  0  0  0
 27 28  1  0  0  0  0
 28 29  1  0  0  0  0
 29 30  1  0  0  0  0
 30 31  1  0  0  0  0
 30 32  1  0  0  0  0
 30 34  1  6  0  0  0
 32 31  1  1  0  0  0
 32 33  1  0  0  0  0
M  END
>  <Index>
584

>  <ID>
HT1152

>  <class>
0

>  <apol>
84.635307

>  <ast_fraglike>
0

>  <ast_fraglike_ext>
0

>  <ast_violation>
3

>  <ast_violation_ext>
5

>  <a_acc>
6

>  <a_acid>
0

>  <a_aro>
5

>  <a_base>
0

>  <a_count>
77

>  <a_don>
3

>  <a_donacc>
9

>  <a_heavy>
35

>  <a_hyd>
26

>  <a_IC>
114.07363

>  <a_ICM>
1.4814757

>  <a_nB>
0

>  <a_nBr>
0

>  <a_nC>
27

>  <a_nCl>
0

>  <a_nF>
0

>  <a_nH>
42

>  <a_nI>
0

>  <a_nN>
2

>  <a_nO>
5

>  <a_nP>
0

>  <a_nS>
1

>  <balabanJ>
1.7564225

>  <BCUT_PEOE_0>
-2.7538991

>  <BCUT_PEOE_1>
-0.45657432

>  <BCUT_PEOE_2>
0.41065326

>  <BCUT_PEOE_3>
2.850771

>  <BCUT_SLOGP_0>
-2.7946796

>  <BCUT_SLOGP_1>
-0.44049358

>  <BCUT_SLOGP_2>
0.41190192

>  <BCUT_SLOGP_3>
2.8430758

>  <BCUT_SMR_0>
-2.520318

>  <BCUT_SMR_1>
-0.29684246

>  <BCUT_SMR_2>
0.5471496

>  <BCUT_SMR_3>
3.0828319

>  <bpol>
54.006695

>  <b_1rotN>
2

>  <b_1rotR>
0.054054055

>  <b_ar>
5

>  <b_count>
79

>  <b_double>
3

>  <b_heavy>
37

>  <b_max1len>
4

>  <b_rotN>
2

>  <b_rotR>
0.054054055

>  <b_single>
71

>  <b_triple>
0

>  <chi0>
26.129028

>  <chi0v>
22.945467

>  <chi0v_C>
18.654337

>  <chi0_C>
19.3006

>  <chi1>
16.240744

>  <chi1v>
13.602034

>  <chi1v_C>
9.9321928

>  <chi1_C>
10.6283

>  <chiral>
7

>  <chiral_u>
0

>  <density>
0.72575802

>  <diameter>
15

>  <FCharge>
0

>  <GCUT_PEOE_0>
-0.83295631

>  <GCUT_PEOE_1>
-0.36529061

>  <GCUT_PEOE_2>
0.0046816217

>  <GCUT_PEOE_3>
3.1538033

>  <GCUT_SLOGP_0>
-1.1620637

>  <GCUT_SLOGP_1>
-0.31681055

>  <GCUT_SLOGP_2>
-0.0081318999

>  <GCUT_SLOGP_3>
3.1691561

>  <GCUT_SMR_0>
-0.53698438

>  <GCUT_SMR_1>
-0.20866318

>  <GCUT_SMR_2>
0.13112745

>  <GCUT_SMR_3>
3.3741341

>  <Kier1>
29.554419

>  <Kier2>
11.80676

>  <Kier3>
6.9065661

>  <KierA1>
26.827494

>  <KierA2>
10.68576

>  <KierA3>
6.2374802

>  <KierFlex>
8.1906338

>  <lip_acc>
7

>  <lip_don>
3

>  <lip_druglike>
1

>  <lip_violation>
1

>  <logP(o/w)>
3.1199999

>  <logS>
-3.2241099

>  <mr>
13.987071

>  <mutagenic>
1

>  <nmol>
1

>  <opr_brigid>
24

>  <opr_leadlike>
0

>  <opr_nring>
2

>  <opr_nrot>
16

>  <opr_violation>
2

>  <PC+>
0

>  <PC->
0

>  <PEOE_PC+>
2.9683676

>  <PEOE_PC->
-2.9683676

>  <PEOE_RPC+>
0.075427465

>  <PEOE_RPC->
0.13166796

>  <PEOE_VSA+0>
149.45905

>  <PEOE_VSA+1>
58.853928

>  <PEOE_VSA+2>
8.458519

>  <PEOE_VSA+3>
28.379631

>  <PEOE_VSA+4>
33.597878

>  <PEOE_VSA+5>
0

>  <PEOE_VSA+6>
0

>  <PEOE_VSA-0>
96.784714

>  <PEOE_VSA-1>
97.922989

>  <PEOE_VSA-2>
0

>  <PEOE_VSA-3>
0

>  <PEOE_VSA-4>
0

>  <PEOE_VSA-5>
32.816418

>  <PEOE_VSA-6>
18.175728

>  <PEOE_VSA_FHYD>
0.83870685

>  <PEOE_VSA_FNEG>
0.46849152

>  <PEOE_VSA_FPNEG>
0.097229965

>  <PEOE_VSA_FPOL>
0.16129318

>  <PEOE_VSA_FPOS>
0.53150845

>  <PEOE_VSA_FPPOS>
0.064063206

>  <PEOE_VSA_HYD>
439.85883

>  <PEOE_VSA_NEG>
245.69984

>  <PEOE_VSA_PNEG>
50.992146

>  <PEOE_VSA_POL>
84.590019

>  <PEOE_VSA_POS>
278.74899

>  <PEOE_VSA_PPOS>
33.597878

>  <petitjean>
0.46666667

>  <petitjeanSC>
0.875

>  <Q_PC+>
0

>  <Q_PC->
0

>  <Q_RPC+>
0

>  <Q_RPC->
0

>  <Q_VSA_FHYD>
1

>  <Q_VSA_FNEG>
0

>  <Q_VSA_FPNEG>
0

>  <Q_VSA_FPOL>
0

>  <Q_VSA_FPOS>
1

>  <Q_VSA_FPPOS>
0

>  <Q_VSA_HYD>
524.44885

>  <Q_VSA_NEG>
0

>  <Q_VSA_PNEG>
0

>  <Q_VSA_POL>
0

>  <Q_VSA_POS>
524.44885

>  <Q_VSA_PPOS>
0

>  <radius>
8

>  <reactive>
1

>  <rings>
3

>  <RPC+>
0

>  <RPC->
0

>  <rsynth>
0.54285717

>  <SlogP>
4.0505199

>  <SlogP_VSA0>
68.781204

>  <SlogP_VSA1>
27.731924

>  <SlogP_VSA2>
82.112236

>  <SlogP_VSA3>
0

>  <SlogP_VSA4>
12.507914

>  <SlogP_VSA5>
3.185575

>  <SlogP_VSA6>
0

>  <SlogP_VSA7>
15.81601

>  <SlogP_VSA8>
111.98521

>  <SlogP_VSA9>
264.55978

>  <SMR>
13.79253

>  <SMR_VSA0>
58.724319

>  <SMR_VSA1>
67.555984

>  <SMR_VSA2>
26.832342

>  <SMR_VSA3>
30.259813

>  <SMR_VSA4>
0

>  <SMR_VSA5>
110.15804

>  <SMR_VSA6>
28.589579

>  <SMR_VSA7>
264.55978

>  <TPSA>
112.05

>  <VAdjEq>
0.32906306

>  <VAdjMa>
6.2094536

>  <VDistEq>
3.6028433

>  <VDistMa>
10.011024

>  <vdw_area>
524.44885

>  <vdw_vol>
698.17761

>  <vsa_acc>
35.320175

>  <vsa_acid>
0

>  <vsa_base>
0

>  <vsa_don>
5.6825762

>  <vsa_hyd>
392.33118

>  <vsa_other>
21.408051

>  <vsa_pol>
68.136589

>  <Weight>
506.70798

>  <weinerPath>
3598

>  <weinerPol>
57

>  <zagreb>
186

$$$$