O=C1CC[C@@]2([C@@H]3[C@H]([C@@H]4CC[C@](O)(C(=O)COC(=O)CCC5CCCC5)[C@]4(C[C@@H]3O)C)CCC2=C1)C
  MOE2013           2D

 35 39  0  0  1  0  0  0  0  0999 V2000
    0.0000    0.0000    0.0000 O   0  0  0  0  0  0  0  0  0  0  0  0
    1.5000   -0.0010    0.0000 C   0  0  0  0  0  0  0  0  0  0  0  0
    2.2510    1.2970    0.0000 C   0  0  0  0  0  0  0  0  0  0  0  0
    3.7510    1.2960    0.0000 C   0  0  0  0  0  0  0  0  0  0  0  0
    4.5000   -0.0030    0.0000 C   0  0  2  0  0  0  0  0  0  0  0  0
    6.0000   -0.0040    0.0000 C   0  0  2  0  0  0  0  0  0  0  0  0
    6.7490   -1.3040    0.0000 C   0  0  2  0  0  0  0  0  0  0  0  0
    8.2490   -1.3050    0.0000 C   0  0  2  0  0  0  0  0  0  0  0  0
    9.2520   -2.4200    0.0000 C   0  0  0  0  0  0  0  0  0  0  0  0
   10.6230   -1.8110    0.0000 C   0  0  0  0  0  0  0  0  0  0  0  0
   10.4670   -0.3190    0.0000 C   0  0  2  0  0  0  0  0  0  0  0  0
   10.8560    1.1290    0.0000 O   0  0  0  0  0  0  0  0  0  0  0  0
   11.9290    0.0170    0.0000 C   0  0  0  0  0  0  0  0  0  0  0  0
   12.3680    1.4510    0.0000 O   0  0  0  0  0  0  0  0  0  0  0  0
   12.9510   -1.0810    0.0000 C   0  0  0  0  0  0  0  0  0  0  0  0
   14.4130   -0.7440    0.0000 O   0  0  0  0  0  0  0  0  0  0  0  0
   15.4350   -1.8420    0.0000 C   0  0  0  0  0  0  0  0  0  0  0  0
   14.9950   -3.2760    0.0000 O   0  0  0  0  0  0  0  0  0  0  0  0
   16.8970   -1.5050    0.0000 C   0  0  0  0  0  0  0  0  0  0  0  0
   17.9190   -2.6030    0.0000 C   0  0  0  0  0  0  0  0  0  0  0  0
   19.3810   -2.2670    0.0000 C   0  0  0  0  0  0  0  0  0  0  0  0
   20.5120   -3.2520    0.0000 C   0  0  0  0  0  0  0  0  0  0  0  0
   21.7990   -2.4800    0.0000 C   0  0  0  0  0  0  0  0  0  0  0  0
   21.4620   -1.0180    0.0000 C   0  0  0  0  0  0  0  0  0  0  0  0
   19.9680   -0.8860    0.0000 C   0  0  0  0  0  0  0  0  0  0  0  0
    9.0000   -0.0060    0.0000 C   0  0  1  0  0  0  0  0  0  0  0  0
    8.2510    1.2930    0.0000 C   0  0  0  0  0  0  0  0  0  0  0  0
    6.7510    1.2940    0.0000 C   0  0  2  0  0  0  0  0  0  0  0  0
    6.0020    2.5940    0.0000 O   0  0  0  0  0  0  0  0  0  0  0  0
    9.8830    1.2070    0.0000 C   0  0  0  0  0  0  0  0  0  0  0  0
    5.9980   -2.6020    0.0000 C   0  0  0  0  0  0  0  0  0  0  0  0
    4.4980   -2.6010    0.0000 C   0  0  0  0  0  0  0  0  0  0  0  0
    3.7490   -1.3020    0.0000 C   0  0  0  0  0  0  0  0  0  0  0  0
    2.2490   -1.3010    0.0000 C   0  0  0  0  0  0  0  0  0  0  0  0
    5.2730    1.2820    0.0000 C   0  0  0  0  0  0  0  0  0  0  0  0
  1  2  2  0  0  0  0
  2  3  1  0  0  0  0
  2 34  1  0  0  0  0
  3  4  1  0  0  0  0
  4  5  1  0  0  0  0
  5 33  1  0  0  0  0
  5 35  1  1  0  0  0
  6  5  1  1  0  0  0
  6  7  1  0  0  0  0
  6 28  1  0  0  0  0
  7  8  1  0  0  0  0
  7 31  1  6  0  0  0
  8  9  1  1  0  0  0
  8 26  1  0  0  0  0
  9 10  1  0  0  0  0
 10 11  1  0  0  0  0
 11 12  1  6  0  0  0
 11 13  1  1  0  0  0
 11 26  1  0  0  0  0
 13 14  2  0  0  0  0
 13 15  1  0  0  0  0
 15 16  1  0  0  0  0
 16 17  1  0  0  0  0
 17 18  2  0  0  0  0
 17 19  1  0  0  0  0
 19 20  1  0  0  0  0
 20 21  1  0  0  0  0
 21 22  1  0  0  0  0
 21 25  1  0  0  0  0
 22 23  1  0  0  0  0
 23 24  1  0  0  0  0
 24 25  1  0  0  0  0
 26 27  1  0  0  0  0
 26 30  1  1  0  0  0
 27 28  1  0  0  0  0
 28 29  1  1  0  0  0
 31 32  1  0  0  0  0
 32 33  1  0  0  0  0
 33 34  2  0  0  0  0
M  END
>  <Index>
532

>  <ID>
HT1050

>  <class>
0

>  <apol>
83.857307

>  <ast_fraglike>
0

>  <ast_fraglike_ext>
0

>  <ast_violation>
3

>  <ast_violation_ext>
5

>  <a_acc>
5

>  <a_acid>
0

>  <a_aro>
0

>  <a_base>
0

>  <a_count>
77

>  <a_don>
2

>  <a_donacc>
7

>  <a_heavy>
35

>  <a_hyd>
26

>  <a_IC>
99.674011

>  <a_ICM>
1.2944677

>  <a_nB>
0

>  <a_nBr>
0

>  <a_nC>
29

>  <a_nCl>
0

>  <a_nF>
0

>  <a_nH>
42

>  <a_nI>
0

>  <a_nN>
0

>  <a_nO>
6

>  <a_nP>
0

>  <a_nS>
0

>  <balabanJ>
1.2493123

>  <BCUT_PEOE_0>
-2.9384387

>  <BCUT_PEOE_1>
-0.5308035

>  <BCUT_PEOE_2>
0.51798773

>  <BCUT_PEOE_3>
2.9809856

>  <BCUT_SLOGP_0>
-2.9095733

>  <BCUT_SLOGP_1>
-0.46234319

>  <BCUT_SLOGP_2>
0.50507849

>  <BCUT_SLOGP_3>
3.0162187

>  <BCUT_SMR_0>
-2.6915271

>  <BCUT_SMR_1>
-0.37263134

>  <BCUT_SMR_2>
0.67400879

>  <BCUT_SMR_3>
3.2220316

>  <bpol>
50.704693

>  <b_1rotN>
6

>  <b_1rotR>
0.15384616

>  <b_ar>
0

>  <b_count>
81

>  <b_double>
4

>  <b_heavy>
39

>  <b_max1len>
5

>  <b_rotN>
7

>  <b_rotR>
0.17948718

>  <b_single>
77

>  <b_triple>
0

>  <chi0>
25.009861

>  <chi0v>
21.391016

>  <chi0v_C>
18.863596

>  <chi0_C>
19.302753

>  <chi1>
16.581989

>  <chi1v>
13.916041

>  <chi1v_C>
12.329064

>  <chi1_C>
12.86434

>  <chiral>
7

>  <chiral_u>
0

>  <density>
0.71755713

>  <diameter>
18

>  <FCharge>
0

>  <GCUT_PEOE_0>
-0.80166018

>  <GCUT_PEOE_1>
-0.37891841

>  <GCUT_PEOE_2>
0.024867456

>  <GCUT_PEOE_3>
3.4084005

>  <GCUT_SLOGP_0>
-0.94064987

>  <GCUT_SLOGP_1>
-0.32419896

>  <GCUT_SLOGP_2>
1.752913e-005

>  <GCUT_SLOGP_3>
3.4506366

>  <GCUT_SMR_0>
-0.53919911

>  <GCUT_SMR_1>
-0.22071801

>  <GCUT_SMR_2>
0.14547569

>  <GCUT_SMR_3>
3.6282749

>  <Kier1>
26.60092

>  <Kier2>
9.950551

>  <Kier3>
4.4958677

>  <KierA1>
23.994265

>  <KierA2>
8.9472504

>  <KierA3>
4.0333557

>  <KierFlex>
6.1337914

>  <lip_acc>
6

>  <lip_don>
2

>  <lip_druglike>
1

>  <lip_violation>
0

>  <logP(o/w)>
3.71

>  <logS>
-6.2286701

>  <mr>
13.241154

>  <mutagenic>
0

>  <nmol>
1

>  <opr_brigid>
25

>  <opr_leadlike>
0

>  <opr_nring>
5

>  <opr_nrot>
7

>  <opr_violation>
2

>  <PC+>
0

>  <PC->
0

>  <PEOE_PC+>
2.6691952

>  <PEOE_PC->
-2.6691952

>  <PEOE_RPC+>
0.098366022

>  <PEOE_RPC->
0.14665678

>  <PEOE_VSA+0>
170.95653

>  <PEOE_VSA+1>
21.966473

>  <PEOE_VSA+2>
14.951293

>  <PEOE_VSA+3>
16.917038

>  <PEOE_VSA+4>
20.648346

>  <PEOE_VSA+5>
14.708499

>  <PEOE_VSA+6>
0

>  <PEOE_VSA-0>
73.164093

>  <PEOE_VSA-1>
74.509148

>  <PEOE_VSA-2>
0

>  <PEOE_VSA-3>
0

>  <PEOE_VSA-4>
0

>  <PEOE_VSA-5>
40.700764

>  <PEOE_VSA-6>
18.038837

>  <PEOE_VSA_FHYD>
0.7983191

>  <PEOE_VSA_FNEG>
0.44241339

>  <PEOE_VSA_FPNEG>
0.12589908

>  <PEOE_VSA_FPOL>
0.2016809

>  <PEOE_VSA_FPOS>
0.55758661

>  <PEOE_VSA_FPPOS>
0.075781822

>  <PEOE_VSA_HYD>
372.46457

>  <PEOE_VSA_NEG>
206.41284

>  <PEOE_VSA_PNEG>
58.739597

>  <PEOE_VSA_POL>
94.096443

>  <PEOE_VSA_POS>
260.14816

>  <PEOE_VSA_PPOS>
35.356846

>  <petitjean>
0.5

>  <petitjeanSC>
1

>  <Q_PC+>
0

>  <Q_PC->
0

>  <Q_RPC+>
0

>  <Q_RPC->
0

>  <Q_VSA_FHYD>
1

>  <Q_VSA_FNEG>
0

>  <Q_VSA_FPNEG>
0

>  <Q_VSA_FPOL>
0

>  <Q_VSA_FPOS>
1

>  <Q_VSA_FPPOS>
0

>  <Q_VSA_HYD>
466.561

>  <Q_VSA_NEG>
0

>  <Q_VSA_PNEG>
0

>  <Q_VSA_POL>
0

>  <Q_VSA_POS>
466.561

>  <Q_VSA_PPOS>
0

>  <radius>
9

>  <reactive>
1

>  <rings>
5

>  <RPC+>
0

>  <RPC->
0

>  <rsynth>
0.2857143

>  <SlogP>
4.3028998

>  <SlogP_VSA0>
50.770454

>  <SlogP_VSA1>
19.120686

>  <SlogP_VSA2>
89.055183

>  <SlogP_VSA3>
20.926258

>  <SlogP_VSA4>
17.643185

>  <SlogP_VSA5>
3.185575

>  <SlogP_VSA6>
0

>  <SlogP_VSA7>
17.643185

>  <SlogP_VSA8>
245.28928

>  <SlogP_VSA9>
66.652031

>  <SMR>
13.02076

>  <SMR_VSA0>
82.58654

>  <SMR_VSA1>
50.770454

>  <SMR_VSA2>
17.643185

>  <SMR_VSA3>
9.6542244

>  <SMR_VSA4>
0

>  <SMR_VSA5>
262.93246

>  <SMR_VSA6>
40.046944

>  <SMR_VSA7>
66.652031

>  <TPSA>
100.9

>  <VAdjEq>
0.34185782

>  <VAdjMa>
6.2854023

>  <VDistEq>
3.8489857

>  <VDistMa>
9.9398909

>  <vdw_area>
466.561

>  <vdw_vol>
678.20239

>  <vsa_acc>
40.700764

>  <vsa_acid>
0

>  <vsa_base>
0

>  <vsa_don>
0

>  <vsa_hyd>
321.69553

>  <vsa_other>
34.129295

>  <vsa_pol>
67.834602

>  <Weight>
486.64899

>  <weinerPath>
3848

>  <weinerPol>
69

>  <zagreb>
200

$$$$