O=C1CC[C@@]2([C@@H]3[C@H]([C@@H]4CC[C@](O)(C(=O)COC(=O)CCC(O)=O)[C@]4(C[C@@H]3O)C)CCC2=C1)C
  MOE2013           2D

 33 36  0  0  1  0  0  0  0  0999 V2000
    0.0000    0.0000    0.0000 O   0  0  0  0  0  0  0  0  0  0  0  0
    1.5000    0.0120    0.0000 C   0  0  0  0  0  0  0  0  0  0  0  0
    2.2400    1.3170    0.0000 C   0  0  0  0  0  0  0  0  0  0  0  0
    3.7400    1.3290    0.0000 C   0  0  0  0  0  0  0  0  0  0  0  0
    4.5000    0.0360    0.0000 C   0  0  2  0  0  0  0  0  0  0  0  0
    6.0000    0.0480    0.0000 C   0  0  2  0  0  0  0  0  0  0  0  0
    6.7600   -1.2450    0.0000 C   0  0  2  0  0  0  0  0  0  0  0  0
    8.2600   -1.2330    0.0000 C   0  0  2  0  0  0  0  0  0  0  0  0
    9.2730   -2.3400    0.0000 C   0  0  0  0  0  0  0  0  0  0  0  0
   10.6380   -1.7190    0.0000 C   0  0  0  0  0  0  0  0  0  0  0  0
   10.4690   -0.2290    0.0000 C   0  0  2  0  0  0  0  0  0  0  0  0
   10.8460    1.2230    0.0000 O   0  0  0  0  0  0  0  0  0  0  0  0
   11.9280    0.1200    0.0000 C   0  0  0  0  0  0  0  0  0  0  0  0
   12.3550    1.5580    0.0000 O   0  0  0  0  0  0  0  0  0  0  0  0
   12.9600   -0.9680    0.0000 C   0  0  0  0  0  0  0  0  0  0  0  0
   14.4190   -0.6190    0.0000 O   0  0  0  0  0  0  0  0  0  0  0  0
   15.4500   -1.7080    0.0000 C   0  0  0  0  0  0  0  0  0  0  0  0
   15.0230   -3.1460    0.0000 O   0  0  0  0  0  0  0  0  0  0  0  0
   16.9090   -1.3590    0.0000 C   0  0  0  0  0  0  0  0  0  0  0  0
   17.9410   -2.4480    0.0000 C   0  0  0  0  0  0  0  0  0  0  0  0
   19.4000   -2.0990    0.0000 C   0  0  0  0  0  0  0  0  0  0  0  0
   19.8270   -0.6610    0.0000 O   0  0  0  0  0  0  0  0  0  0  0  0
   20.4310   -3.1880    0.0000 O   0  0  0  0  0  0  0  0  0  0  0  0
    9.0000    0.0720    0.0000 C   0  0  1  0  0  0  0  0  0  0  0  0
    8.2390    1.3650    0.0000 C   0  0  0  0  0  0  0  0  0  0  0  0
    6.7390    1.3530    0.0000 C   0  0  2  0  0  0  0  0  0  0  0  0
    5.9790    2.6460    0.0000 O   0  0  0  0  0  0  0  0  0  0  0  0
    9.8720    1.2920    0.0000 C   0  0  0  0  0  0  0  0  0  0  0  0
    6.0200   -2.5500    0.0000 C   0  0  0  0  0  0  0  0  0  0  0  0
    4.5210   -2.5620    0.0000 C   0  0  0  0  0  0  0  0  0  0  0  0
    3.7600   -1.2690    0.0000 C   0  0  0  0  0  0  0  0  0  0  0  0
    2.2600   -1.2810    0.0000 C   0  0  0  0  0  0  0  0  0  0  0  0
    5.2620    1.3280    0.0000 C   0  0  0  0  0  0  0  0  0  0  0  0
  1  2  2  0  0  0  0
  2  3  1  0  0  0  0
  2 32  1  0  0  0  0
  3  4  1  0  0  0  0
  4  5  1  0  0  0  0
  5 31  1  0  0  0  0
  5 33  1  1  0  0  0
  6  5  1  1  0  0  0
  6  7  1  0  0  0  0
  6 26  1  0  0  0  0
  7  8  1  0  0  0  0
  7 29  1  6  0  0  0
  8  9  1  1  0  0  0
  8 24  1  0  0  0  0
  9 10  1  0  0  0  0
 10 11  1  0  0  0  0
 11 12  1  6  0  0  0
 11 13  1  1  0  0  0
 11 24  1  0  0  0  0
 13 14  2  0  0  0  0
 13 15  1  0  0  0  0
 15 16  1  0  0  0  0
 16 17  1  0  0  0  0
 17 18  2  0  0  0  0
 17 19  1  0  0  0  0
 19 20  1  0  0  0  0
 20 21  1  0  0  0  0
 21 22  1  0  0  0  0
 21 23  2  0  0  0  0
 24 25  1  0  0  0  0
 24 28  1  1  0  0  0
 25 26  1  0  0  0  0
 26 27  1  1  0  0  0
 29 30  1  0  0  0  0
 30 31  1  0  0  0  0
 31 32  2  0  0  0  0
M  END
>  <Index>
535

>  <ID>
HT1053

>  <class>
0

>  <apol>
73.08696

>  <ast_fraglike>
0

>  <ast_fraglike_ext>
0

>  <ast_violation>
3

>  <ast_violation_ext>
5

>  <a_acc>
7

>  <a_acid>
0

>  <a_aro>
0

>  <a_base>
0

>  <a_count>
67

>  <a_don>
4

>  <a_donacc>
11

>  <a_heavy>
33

>  <a_hyd>
21

>  <a_IC>
93.357834

>  <a_ICM>
1.3934005

>  <a_nB>
0

>  <a_nBr>
0

>  <a_nC>
25

>  <a_nCl>
0

>  <a_nF>
0

>  <a_nH>
34

>  <a_nI>
0

>  <a_nN>
0

>  <a_nO>
8

>  <a_nP>
0

>  <a_nS>
0

>  <balabanJ>
1.4854009

>  <BCUT_PEOE_0>
-2.9384377

>  <BCUT_PEOE_1>
-0.51543736

>  <BCUT_PEOE_2>
0.44755512

>  <BCUT_PEOE_3>
2.980983

>  <BCUT_SLOGP_0>
-2.9095709

>  <BCUT_SLOGP_1>
-0.47686616

>  <BCUT_SLOGP_2>
0.45050725

>  <BCUT_SLOGP_3>
3.016216

>  <BCUT_SMR_0>
-2.6915262

>  <BCUT_SMR_1>
-0.32544094

>  <BCUT_SMR_2>
0.61083096

>  <BCUT_SMR_3>
3.2220271

>  <bpol>
42.917038

>  <b_1rotN>
6

>  <b_1rotR>
0.16666667

>  <b_ar>
0

>  <b_count>
70

>  <b_double>
5

>  <b_heavy>
36

>  <b_max1len>
5

>  <b_rotN>
7

>  <b_rotR>
0.19444445

>  <b_single>
65

>  <b_triple>
0

>  <chi0>
24.181435

>  <chi0v>
19.340702

>  <chi0v_C>
15.957819

>  <chi0_C>
16.474327

>  <chi1>
15.420194

>  <chi1v>
11.972581

>  <chi1v_C>
9.9578724

>  <chi1_C>
10.547844

>  <chiral>
7

>  <chiral_u>
0

>  <density>
0.76568806

>  <diameter>
17

>  <FCharge>
0

>  <GCUT_PEOE_0>
-0.80084074

>  <GCUT_PEOE_1>
-0.40281472

>  <GCUT_PEOE_2>
0.032227825

>  <GCUT_PEOE_3>
3.3868544

>  <GCUT_SLOGP_0>
-0.94067305

>  <GCUT_SLOGP_1>
-0.35920626

>  <GCUT_SLOGP_2>
0.0041405926

>  <GCUT_SLOGP_3>
3.4268832

>  <GCUT_SMR_0>
-0.53918135

>  <GCUT_SMR_1>
-0.23464254

>  <GCUT_SMR_2>
0.15031089

>  <GCUT_SMR_3>
3.6071091

>  <Kier1>
26.074074

>  <Kier2>
9.465066

>  <Kier3>
4.3895745

>  <KierA1>
22.698374

>  <KierA2>
8.2023878

>  <KierA3>
3.7914639

>  <KierFlex>
5.6418447

>  <lip_acc>
8

>  <lip_don>
3

>  <lip_druglike>
1

>  <lip_violation>
0

>  <logP(o/w)>
1.158

>  <logS>
-3.30516

>  <mr>
11.822561

>  <mutagenic>
0

>  <nmol>
1

>  <opr_brigid>
20

>  <opr_leadlike>
1

>  <opr_nring>
4

>  <opr_nrot>
6

>  <opr_violation>
1

>  <PC+>
0

>  <PC->
0

>  <PEOE_PC+>
2.9778159

>  <PEOE_PC->
-2.9778159

>  <PEOE_RPC+>
0.088331699

>  <PEOE_RPC->
0.13145727

>  <PEOE_VSA+0>
141.26936

>  <PEOE_VSA+1>
21.966473

>  <PEOE_VSA+2>
14.951293

>  <PEOE_VSA+3>
16.917038

>  <PEOE_VSA+4>
30.972517

>  <PEOE_VSA+5>
29.416998

>  <PEOE_VSA+6>
0

>  <PEOE_VSA-0>
64.462784

>  <PEOE_VSA-1>
39.703896

>  <PEOE_VSA-2>
0

>  <PEOE_VSA-3>
0

>  <PEOE_VSA-4>
0

>  <PEOE_VSA-5>
54.267685

>  <PEOE_VSA-6>
25.806377

>  <PEOE_VSA_FHYD>
0.68057179

>  <PEOE_VSA_FNEG>
0.41898185

>  <PEOE_VSA_FPNEG>
0.18209641

>  <PEOE_VSA_FPOL>
0.31942821

>  <PEOE_VSA_FPOS>
0.58101815

>  <PEOE_VSA_FPPOS>
0.1373318

>  <PEOE_VSA_HYD>
299.27084

>  <PEOE_VSA_NEG>
184.24074

>  <PEOE_VSA_PNEG>
80.074059

>  <PEOE_VSA_POL>
140.46358

>  <PEOE_VSA_POS>
255.49368

>  <PEOE_VSA_PPOS>
60.389515

>  <petitjean>
0.47058824

>  <petitjeanSC>
0.8888889

>  <Q_PC+>
0

>  <Q_PC->
0

>  <Q_RPC+>
0

>  <Q_RPC->
0

>  <Q_VSA_FHYD>
1

>  <Q_VSA_FNEG>
0

>  <Q_VSA_FPNEG>
0

>  <Q_VSA_FPOL>
0

>  <Q_VSA_FPOS>
1

>  <Q_VSA_FPPOS>
0

>  <Q_VSA_HYD>
439.73444

>  <Q_VSA_NEG>
0

>  <Q_VSA_PNEG>
0

>  <Q_VSA_POL>
0

>  <Q_VSA_POS>
439.73444

>  <Q_VSA_PPOS>
0

>  <radius>
9

>  <reactive>
1

>  <rings>
4

>  <RPC+>
0

>  <RPC->
0

>  <rsynth>
0.24242425

>  <SlogP>
2.1973

>  <SlogP_VSA0>
50.770454

>  <SlogP_VSA1>
26.86615

>  <SlogP_VSA2>
112.9174

>  <SlogP_VSA3>
46.311485

>  <SlogP_VSA4>
13.232388

>  <SlogP_VSA5>
3.185575

>  <SlogP_VSA6>
0

>  <SlogP_VSA7>
17.643185

>  <SlogP_VSA8>
169.81564

>  <SlogP_VSA9>
66.652031

>  <SMR>
11.58854

>  <SMR_VSA0>
106.44875

>  <SMR_VSA1>
50.770454

>  <SMR_VSA2>
38.617615

>  <SMR_VSA3>
9.6542244

>  <SMR_VSA4>
0

>  <SMR_VSA5>
187.45883

>  <SMR_VSA6>
47.792408

>  <SMR_VSA7>
66.652031

>  <TPSA>
138.2

>  <VAdjEq>
0.3512581

>  <VAdjMa>
6.1699252

>  <VDistEq>
3.7274318

>  <VDistMa>
9.7790699

>  <vdw_area>
439.73444

>  <vdw_vol>
604.08282

>  <vsa_acc>
40.700764

>  <vsa_acid>
0

>  <vsa_base>
0

>  <vsa_don>
0

>  <vsa_hyd>
256.25299

>  <vsa_other>
48.837795

>  <vsa_pol>
94.968445

>  <Weight>
462.539

>  <weinerPath>
3169

>  <weinerPol>
67

>  <zagreb>
186

$$$$