Ic1c(C(O)=O)c(I)cc(I)c1NC(O)CCOCCOCCOCCOCCC(=O)Nc1c(I)c(C(O)=O)c(I)cc1I
  MOE2013           2D

 44 45  0  0  1  0  0  0  0  0999 V2000
    0.0000    0.0000    0.0000 I   0  0  0  0  0  0  0  0  0  0  0  0
   -0.0100   -1.5000    0.0000 C   0  0  0  0  0  0  0  0  0  0  0  0
    1.2850   -2.2580    0.0000 C   0  0  0  0  0  0  0  0  0  0  0  0
    2.5880   -1.5170    0.0000 C   0  0  0  0  0  0  0  0  0  0  0  0
    3.8830   -2.2750    0.0000 O   0  0  0  0  0  0  0  0  0  0  0  0
    2.5980   -0.0170    0.0000 O   0  0  0  0  0  0  0  0  0  0  0  0
    1.2750   -3.7580    0.0000 C   0  0  0  0  0  0  0  0  0  0  0  0
    2.5690   -4.5160    0.0000 I   0  0  0  0  0  0  0  0  0  0  0  0
   -0.0290   -4.5000    0.0000 C   0  0  0  0  0  0  0  0  0  0  0  0
   -1.3230   -3.7420    0.0000 C   0  0  0  0  0  0  0  0  0  0  0  0
   -2.6270   -4.4830    0.0000 I   0  0  0  0  0  0  0  0  0  0  0  0
   -1.3130   -2.2420    0.0000 C   0  0  0  0  0  0  0  0  0  0  0  0
   -2.6080   -1.4830    0.0000 N   0  0  0  0  0  0  0  0  0  0  0  0
   -3.9110   -2.2250    0.0000 C   0  0  3  0  0  0  0  0  0  0  0  0
   -3.9210   -3.7250    0.0000 O   0  0  0  0  0  0  0  0  0  0  0  0
   -5.2060   -1.4670    0.0000 C   0  0  0  0  0  0  0  0  0  0  0  0
   -6.5090   -2.2090    0.0000 C   0  0  0  0  0  0  0  0  0  0  0  0
   -7.8040   -1.4500    0.0000 O   0  0  0  0  0  0  0  0  0  0  0  0
   -9.1070   -2.1920    0.0000 C   0  0  0  0  0  0  0  0  0  0  0  0
  -10.4020   -1.4340    0.0000 C   0  0  0  0  0  0  0  0  0  0  0  0
  -11.7050   -2.1750    0.0000 O   0  0  0  0  0  0  0  0  0  0  0  0
  -13.0000   -1.4170    0.0000 C   0  0  0  0  0  0  0  0  0  0  0  0
  -14.3030   -2.1590    0.0000 C   0  0  0  0  0  0  0  0  0  0  0  0
  -15.5980   -1.4010    0.0000 O   0  0  0  0  0  0  0  0  0  0  0  0
  -16.9010   -2.1420    0.0000 C   0  0  0  0  0  0  0  0  0  0  0  0
  -18.1960   -1.3840    0.0000 C   0  0  0  0  0  0  0  0  0  0  0  0
  -19.5000   -2.1260    0.0000 O   0  0  0  0  0  0  0  0  0  0  0  0
  -20.7940   -1.3670    0.0000 C   0  0  0  0  0  0  0  0  0  0  0  0
  -22.0980   -2.1090    0.0000 C   0  0  0  0  0  0  0  0  0  0  0  0
  -23.3920   -1.3510    0.0000 C   0  0  0  0  0  0  0  0  0  0  0  0
  -24.6960   -2.0930    0.0000 O   0  0  0  0  0  0  0  0  0  0  0  0
  -23.3820    0.1490    0.0000 N   0  0  0  0  0  0  0  0  0  0  0  0
  -24.6760    0.9070    0.0000 C   0  0  0  0  0  0  0  0  0  0  0  0
  -24.6670    2.4070    0.0000 C   0  0  0  0  0  0  0  0  0  0  0  0
  -23.3630    3.1490    0.0000 I   0  0  0  0  0  0  0  0  0  0  0  0
  -25.9610    3.1660    0.0000 C   0  0  0  0  0  0  0  0  0  0  0  0
  -25.9520    4.6660    0.0000 C   0  0  0  0  0  0  0  0  0  0  0  0
  -27.2460    5.4240    0.0000 O   0  0  0  0  0  0  0  0  0  0  0  0
  -24.6480    5.4070    0.0000 O   0  0  0  0  0  0  0  0  0  0  0  0
  -27.2650    2.4240    0.0000 C   0  0  0  0  0  0  0  0  0  0  0  0
  -28.5590    3.1820    0.0000 I   0  0  0  0  0  0  0  0  0  0  0  0
  -27.2740    0.9240    0.0000 C   0  0  0  0  0  0  0  0  0  0  0  0
  -25.9800    0.1660    0.0000 C   0  0  0  0  0  0  0  0  0  0  0  0
  -25.9900   -1.3340    0.0000 I   0  0  0  0  0  0  0  0  0  0  0  0
  1  2  1  0  0  0  0
  2  3  1  0  0  0  0
  2 12  2  0  0  0  0
  3  4  1  0  0  0  0
  3  7  2  0  0  0  0
  4  5  1  0  0  0  0
  4  6  2  0  0  0  0
  7  8  1  0  0  0  0
  7  9  1  0  0  0  0
  9 10  2  0  0  0  0
 10 11  1  0  0  0  0
 10 12  1  0  0  0  0
 12 13  1  0  0  0  0
 13 14  1  0  0  0  0
 14 15  1  0  0  0  0
 14 16  1  0  0  0  0
 16 17  1  0  0  0  0
 17 18  1  0  0  0  0
 18 19  1  0  0  0  0
 19 20  1  0  0  0  0
 20 21  1  0  0  0  0
 21 22  1  0  0  0  0
 22 23  1  0  0  0  0
 23 24  1  0  0  0  0
 24 25  1  0  0  0  0
 25 26  1  0  0  0  0
 26 27  1  0  0  0  0
 27 28  1  0  0  0  0
 28 29  1  0  0  0  0
 29 30  1  0  0  0  0
 30 31  2  0  0  0  0
 30 32  1  0  0  0  0
 32 33  1  0  0  0  0
 33 34  1  0  0  0  0
 33 43  2  0  0  0  0
 34 35  1  0  0  0  0
 34 36  2  0  0  0  0
 36 37  1  0  0  0  0
 36 40  1  0  0  0  0
 37 38  1  0  0  0  0
 37 39  2  0  0  0  0
 40 41  1  0  0  0  0
 40 42  2  0  0  0  0
 42 43  1  0  0  0  0
 43 44  1  0  0  0  0
M  END
>  <Index>
560

>  <ID>
HT1106

>  <class>
0

>  <apol>
106.75021

>  <ast_fraglike>
0

>  <ast_fraglike_ext>
0

>  <ast_violation>
4

>  <ast_violation_ext>
6

>  <a_acc>
10

>  <a_acid>
0

>  <a_aro>
12

>  <a_base>
0

>  <a_count>
72

>  <a_don>
7

>  <a_donacc>
17

>  <a_heavy>
44

>  <a_hyd>
28

>  <a_IC>
136.68817

>  <a_ICM>
1.8984468

>  <a_nB>
0

>  <a_nBr>
0

>  <a_nC>
26

>  <a_nCl>
0

>  <a_nF>
0

>  <a_nH>
28

>  <a_nI>
6

>  <a_nN>
2

>  <a_nO>
10

>  <a_nP>
0

>  <a_nS>
0

>  <balabanJ>
1.4261123

>  <BCUT_PEOE_0>
-2.5936787

>  <BCUT_PEOE_1>
-0.58253986

>  <BCUT_PEOE_2>
0.6028316

>  <BCUT_PEOE_3>
2.5702946

>  <BCUT_SLOGP_0>
-2.6744967

>  <BCUT_SLOGP_1>
-0.47501075

>  <BCUT_SLOGP_2>
0.82190675

>  <BCUT_SLOGP_3>
2.5187206

>  <BCUT_SMR_0>
-2.3540707

>  <BCUT_SMR_1>
-0.31185809

>  <BCUT_SMR_2>
1.0088902

>  <BCUT_SMR_3>
2.8093867

>  <bpol>
64.007797

>  <b_1rotN>
20

>  <b_1rotR>
0.44444445

>  <b_ar>
12

>  <b_count>
73

>  <b_double>
3

>  <b_heavy>
45

>  <b_max1len>
17

>  <b_rotN>
21

>  <b_rotR>
0.46666667

>  <b_single>
58

>  <b_triple>
0

>  <chi0>
32.810825

>  <chi0v>
35.715275

>  <chi0v_C>
15.303119

>  <chi0_C>
16.568186

>  <chi1>
20.844019

>  <chi1v>
19.188751

>  <chi1v_C>
6.916502

>  <chi1_C>
8.2828226

>  <chiral>
1

>  <chiral_u>
1

>  <density>
1.4566216

>  <diameter>
27

>  <FCharge>
0

>  <GCUT_PEOE_0>
-0.81369895

>  <GCUT_PEOE_1>
-0.40495679

>  <GCUT_PEOE_2>
0.078246012

>  <GCUT_PEOE_3>
2.5626259

>  <GCUT_SLOGP_0>
-0.99774331

>  <GCUT_SLOGP_1>
-0.38170949

>  <GCUT_SLOGP_2>
0.28178689

>  <GCUT_SLOGP_3>
2.5925078

>  <GCUT_SMR_0>
-0.52244914

>  <GCUT_SMR_1>
-0.19092691

>  <GCUT_SMR_2>
0.37731415

>  <GCUT_SMR_3>
2.8715725

>  <Kier1>
40.175804

>  <Kier2>
21.07

>  <Kier3>
13.571777

>  <KierA1>
50.891659

>  <KierA2>
26.833508

>  <KierA3>
17.348562

>  <KierFlex>
31.036404

>  <lip_acc>
12

>  <lip_don>
5

>  <lip_druglike>
0

>  <lip_violation>
3

>  <logP(o/w)>
7.8472199

>  <logS>
-9.3981304

>  <mr>
21.753733

>  <mutagenic>
0

>  <nmol>
1

>  <opr_brigid>
12

>  <opr_leadlike>
0

>  <opr_nring>
2

>  <opr_nrot>
20

>  <opr_violation>
4

>  <PC+>
0

>  <PC->
0

>  <PEOE_PC+>
4.2311735

>  <PEOE_PC->
-4.2311735

>  <PEOE_RPC+>
0.069322936

>  <PEOE_RPC->
0.089187495

>  <PEOE_VSA+0>
56.364193

>  <PEOE_VSA+1>
214.8094

>  <PEOE_VSA+2>
18.014954

>  <PEOE_VSA+3>
8.6190128

>  <PEOE_VSA+4>
43.92205

>  <PEOE_VSA+5>
29.416998

>  <PEOE_VSA+6>
0

>  <PEOE_VSA-0>
306.44989

>  <PEOE_VSA-1>
0

>  <PEOE_VSA-2>
0

>  <PEOE_VSA-3>
0

>  <PEOE_VSA-4>
0

>  <PEOE_VSA-5>
40.837654

>  <PEOE_VSA-6>
33.454536

>  <PEOE_VSA_FHYD>
0.80365282

>  <PEOE_VSA_FNEG>
0.50638092

>  <PEOE_VSA_FPNEG>
0.098807432

>  <PEOE_VSA_FPOL>
0.19634719

>  <PEOE_VSA_FPOS>
0.49361908

>  <PEOE_VSA_FPPOS>
0.097539768

>  <PEOE_VSA_HYD>
604.25745

>  <PEOE_VSA_NEG>
380.7421

>  <PEOE_VSA_PNEG>
74.292191

>  <PEOE_VSA_POL>
147.63124

>  <PEOE_VSA_POS>
371.14661

>  <PEOE_VSA_PPOS>
73.33905

>  <petitjean>
0.48148149

>  <petitjeanSC>
0.9285714

>  <Q_PC+>
0

>  <Q_PC->
0

>  <Q_RPC+>
0

>  <Q_RPC->
0

>  <Q_VSA_FHYD>
1

>  <Q_VSA_FNEG>
0

>  <Q_VSA_FPNEG>
0

>  <Q_VSA_FPOL>
0

>  <Q_VSA_FPOS>
1

>  <Q_VSA_FPPOS>
0

>  <Q_VSA_HYD>
751.88867

>  <Q_VSA_NEG>
0

>  <Q_VSA_PNEG>
0

>  <Q_VSA_POL>
0

>  <Q_VSA_POS>
751.88867

>  <Q_VSA_PPOS>
0

>  <radius>
14

>  <reactive>
0

>  <rings>
2

>  <RPC+>
0

>  <RPC->
0

>  <rsynth>
1

>  <SlogP>
5.9261999

>  <SlogP_VSA0>
25.385227

>  <SlogP_VSA1>
56.771214

>  <SlogP_VSA2>
83.859444

>  <SlogP_VSA3>
218.18053

>  <SlogP_VSA4>
54.095581

>  <SlogP_VSA5>
0

>  <SlogP_VSA6>
0

>  <SlogP_VSA7>
35.286369

>  <SlogP_VSA8>
37.736813

>  <SlogP_VSA9>
346.20554

>  <SMR>
21.387381

>  <SMR_VSA0>
115.5862

>  <SMR_VSA1>
25.385227

>  <SMR_VSA2>
60.72831

>  <SMR_VSA3>
12.410972

>  <SMR_VSA4>
41.534996

>  <SMR_VSA5>
73.023178

>  <SMR_VSA6>
188.15977

>  <SMR_VSA7>
340.69205

>  <TPSA>
172.88

>  <VAdjEq>
0.27128488

>  <VAdjMa>
6.4918532

>  <VDistEq>
4.6458917

>  <VDistMa>
10.542747

>  <vdw_area>
751.88867

>  <vdw_vol>
885.56836

>  <vsa_acc>
23.581945

>  <vsa_acid>
0

>  <vsa_base>
0

>  <vsa_don>
11.365152

>  <vsa_hyd>
557.69861

>  <vsa_other>
55.316059

>  <vsa_pol>
102.7817

>  <Weight>
1289.938

>  <weinerPath>
10800

>  <weinerPol>
67

>  <zagreb>
210

$$$$