O1[C@@H](C)[C@@H](O)[C@@H](N)C[C@@H]1O[C@@H]1c2c(C[C@](O)(C1)C(=O)C)c(O)c1c(C(=O)c3c(cccc3)C1=O)c2O
  MOE2013           2D

 36 40  0  0  1  0  0  0  0  0999 V2000
    0.0000    0.0000    0.0000 O   0  0  0  0  0  0  0  0  0  0  0  0
    1.5000   -0.0130    0.0000 C   0  0  1  0  0  0  0  0  0  0  0  0
    2.2390   -1.3180    0.0000 C   0  0  0  0  0  0  0  0  0  0  0  0
    2.2610    1.2800    0.0000 C   0  0  1  0  0  0  0  0  0  0  0  0
    3.7610    1.2670    0.0000 O   0  0  0  0  0  0  0  0  0  0  0  0
    1.5220    2.5850    0.0000 C   0  0  1  0  0  0  0  0  0  0  0  0
    2.2830    3.8780    0.0000 N   0  0  0  0  0  0  0  0  0  0  0  0
    0.0220    2.5980    0.0000 C   0  0  0  0  0  0  0  0  0  0  0  0
   -0.7390    1.3050    0.0000 C   0  0  2  0  0  0  0  0  0  0  0  0
   -2.2390    1.3180    0.0000 O   0  0  0  0  0  0  0  0  0  0  0  0
   -2.9780    2.6230    0.0000 C   0  0  2  0  0  0  0  0  0  0  0  0
   -4.4780    2.6360    0.0000 C   0  0  0  0  0  0  0  0  0  0  0  0
   -5.2170    3.9410    0.0000 C   0  0  0  0  0  0  0  0  0  0  0  0
   -4.4560    5.2340    0.0000 C   0  0  0  0  0  0  0  0  0  0  0  0
   -2.9560    5.2210    0.0000 C   0  0  2  0  0  0  0  0  0  0  0  0
   -1.6510    5.9600    0.0000 O   0  0  0  0  0  0  0  0  0  0  0  0
   -2.2170    3.9160    0.0000 C   0  0  0  0  0  0  0  0  0  0  0  0
   -2.9430    6.7210    0.0000 C   0  0  0  0  0  0  0  0  0  0  0  0
   -4.2360    7.4820    0.0000 O   0  0  0  0  0  0  0  0  0  0  0  0
   -1.6380    7.4600    0.0000 C   0  0  0  0  0  0  0  0  0  0  0  0
   -6.7170    3.9540    0.0000 C   0  0  0  0  0  0  0  0  0  0  0  0
   -7.4560    5.2590    0.0000 O   0  0  0  0  0  0  0  0  0  0  0  0
   -7.4780    2.6610    0.0000 C   0  0  0  0  0  0  0  0  0  0  0  0
   -6.7390    1.3560    0.0000 C   0  0  0  0  0  0  0  0  0  0  0  0
   -7.5000    0.0630    0.0000 C   0  0  0  0  0  0  0  0  0  0  0  0
   -6.7610   -1.2420    0.0000 O   0  0  0  0  0  0  0  0  0  0  0  0
   -9.0000    0.0760    0.0000 C   0  0  0  0  0  0  0  0  0  0  0  0
   -9.7390    1.3810    0.0000 C   0  0  0  0  0  0  0  0  0  0  0  0
  -11.2390    1.3940    0.0000 C   0  0  0  0  0  0  0  0  0  0  0  0
  -12.0000    0.1010    0.0000 C   0  0  0  0  0  0  0  0  0  0  0  0
  -11.2610   -1.2040    0.0000 C   0  0  0  0  0  0  0  0  0  0  0  0
   -9.7610   -1.2170    0.0000 C   0  0  0  0  0  0  0  0  0  0  0  0
   -8.9780    2.6740    0.0000 C   0  0  0  0  0  0  0  0  0  0  0  0
   -9.7170    3.9790    0.0000 O   0  0  0  0  0  0  0  0  0  0  0  0
   -5.2390    1.3430    0.0000 C   0  0  0  0  0  0  0  0  0  0  0  0
   -4.5000    0.0380    0.0000 O   0  0  0  0  0  0  0  0  0  0  0  0
  1  2  1  0  0  0  0
  1  9  1  0  0  0  0
  2  3  1  6  0  0  0
  2  4  1  0  0  0  0
  4  5  1  6  0  0  0
  4  6  1  0  0  0  0
  6  7  1  6  0  0  0
  6  8  1  0  0  0  0
  8  9  1  0  0  0  0
  9 10  1  1  0  0  0
 11 10  1  6  0  0  0
 11 12  1  0  0  0  0
 11 17  1  0  0  0  0
 12 13  1  0  0  0  0
 12 35  2  0  0  0  0
 13 14  1  0  0  0  0
 13 21  2  0  0  0  0
 14 15  1  0  0  0  0
 15 16  1  6  0  0  0
 15 17  1  0  0  0  0
 15 18  1  1  0  0  0
 18 19  2  0  0  0  0
 18 20  1  0  0  0  0
 21 22  1  0  0  0  0
 21 23  1  0  0  0  0
 23 24  2  0  0  0  0
 23 33  1  0  0  0  0
 24 25  1  0  0  0  0
 24 35  1  0  0  0  0
 25 26  2  0  0  0  0
 25 27  1  0  0  0  0
 27 28  2  0  0  0  0
 27 32  1  0  0  0  0
 28 29  1  0  0  0  0
 28 33  1  0  0  0  0
 29 30  2  0  0  0  0
 30 31  1  0  0  0  0
 31 32  2  0  0  0  0
 33 34  2  0  0  0  0
 35 36  1  0  0  0  0
M  END
>  <Index>
546

>  <ID>
HT1074

>  <class>
0

>  <apol>
72.081413

>  <ast_fraglike>
0

>  <ast_fraglike_ext>
0

>  <ast_violation>
3

>  <ast_violation_ext>
5

>  <a_acc>
10

>  <a_acid>
0

>  <a_aro>
12

>  <a_base>
0

>  <a_count>
63

>  <a_don>
5

>  <a_donacc>
15

>  <a_heavy>
36

>  <a_hyd>
22

>  <a_IC>
97.445915

>  <a_ICM>
1.5467606

>  <a_nB>
0

>  <a_nBr>
0

>  <a_nC>
26

>  <a_nCl>
0

>  <a_nF>
0

>  <a_nH>
27

>  <a_nI>
0

>  <a_nN>
1

>  <a_nO>
9

>  <a_nP>
0

>  <a_nS>
0

>  <balabanJ>
1.4664588

>  <BCUT_PEOE_0>
-2.7535782

>  <BCUT_PEOE_1>
-0.55889869

>  <BCUT_PEOE_2>
0.62853855

>  <BCUT_PEOE_3>
2.7697804

>  <BCUT_SLOGP_0>
-2.9030044

>  <BCUT_SLOGP_1>
-0.48759016

>  <BCUT_SLOGP_2>
0.63992786

>  <BCUT_SLOGP_3>
2.7522323

>  <BCUT_SMR_0>
-2.5258782

>  <BCUT_SMR_1>
-0.42146042

>  <BCUT_SMR_2>
0.7692644

>  <BCUT_SMR_3>
2.9896884

>  <bpol>
35.562588

>  <b_1rotN>
3

>  <b_1rotR>
0.075000003

>  <b_ar>
12

>  <b_count>
67

>  <b_double>
3

>  <b_heavy>
40

>  <b_max1len>
5

>  <b_rotN>
3

>  <b_rotR>
0.075000003

>  <b_single>
52

>  <b_triple>
0

>  <chi0>
26.101564

>  <chi0v>
19.724918

>  <chi0v_C>
15.317472

>  <chi0_C>
16.687351

>  <chi1>
16.941084

>  <chi1v>
11.712981

>  <chi1v_C>
8.8954477

>  <chi1_C>
10.766639

>  <chiral>
6

>  <chiral_u>
0

>  <density>
0.80529827

>  <diameter>
14

>  <FCharge>
0

>  <GCUT_PEOE_0>
-0.82896686

>  <GCUT_PEOE_1>
-0.44385508

>  <GCUT_PEOE_2>
0.076236002

>  <GCUT_PEOE_3>
3.0366912

>  <GCUT_SLOGP_0>
-1.3636986

>  <GCUT_SLOGP_1>
-0.35009593

>  <GCUT_SLOGP_2>
0.063456468

>  <GCUT_SLOGP_3>
3.0704389

>  <GCUT_SMR_0>
-0.52195507

>  <GCUT_SMR_1>
-0.21519879

>  <GCUT_SMR_2>
0.1901965

>  <GCUT_SMR_3>
3.2785268

>  <Kier1>
27.5625

>  <Kier2>
10.194003

>  <Kier3>
4.6066899

>  <KierA1>
22.196177

>  <KierA2>
8.155673

>  <KierA3>
3.6686783

>  <KierFlex>
5.0284657

>  <lip_acc>
10

>  <lip_don>
6

>  <lip_druglike>
1

>  <lip_violation>
1

>  <logP(o/w)>
1.373

>  <logS>
-3.98912

>  <mr>
12.495536

>  <mutagenic>
0

>  <nmol>
1

>  <opr_brigid>
27

>  <opr_leadlike>
0

>  <opr_nring>
5

>  <opr_nrot>
6

>  <opr_violation>
4

>  <PC+>
0

>  <PC->
0

>  <PEOE_PC+>
3.6349845

>  <PEOE_PC->
-3.6349845

>  <PEOE_RPC+>
0.059794705

>  <PEOE_RPC->
0.10665662

>  <PEOE_VSA+0>
91.325539

>  <PEOE_VSA+1>
70.171989

>  <PEOE_VSA+2>
17.238026

>  <PEOE_VSA+3>
36.530468

>  <PEOE_VSA+4>
41.296692

>  <PEOE_VSA+5>
0

>  <PEOE_VSA+6>
0

>  <PEOE_VSA-0>
39.703896

>  <PEOE_VSA-1>
49.019615

>  <PEOE_VSA-2>
0

>  <PEOE_VSA-3>
0

>  <PEOE_VSA-4>
0

>  <PEOE_VSA-5>
40.700764

>  <PEOE_VSA-6>
42.728794

>  <PEOE_VSA_FHYD>
0.70907009

>  <PEOE_VSA_FNEG>
0.40155524

>  <PEOE_VSA_FPNEG>
0.19460341

>  <PEOE_VSA_FPOL>
0.29092991

>  <PEOE_VSA_FPOS>
0.59844476

>  <PEOE_VSA_FPPOS>
0.0963265

>  <PEOE_VSA_HYD>
303.98953

>  <PEOE_VSA_NEG>
172.15306

>  <PEOE_VSA_PNEG>
83.429558

>  <PEOE_VSA_POL>
124.72624

>  <PEOE_VSA_POS>
256.56271

>  <PEOE_VSA_PPOS>
41.296692

>  <petitjean>
0.5

>  <petitjeanSC>
1

>  <Q_PC+>
0

>  <Q_PC->
0

>  <Q_RPC+>
0

>  <Q_RPC->
0

>  <Q_VSA_FHYD>
1

>  <Q_VSA_FNEG>
0

>  <Q_VSA_FPNEG>
0

>  <Q_VSA_FPOL>
0

>  <Q_VSA_FPOS>
1

>  <Q_VSA_FPPOS>
0

>  <Q_VSA_HYD>
428.71579

>  <Q_VSA_NEG>
0

>  <Q_VSA_PNEG>
0

>  <Q_VSA_POL>
0

>  <Q_VSA_POS>
428.71579

>  <Q_VSA_PPOS>
0

>  <radius>
7

>  <reactive>
1

>  <rings>
5

>  <RPC+>
0

>  <RPC->
0

>  <rsynth>
0.55555558

>  <SlogP>
1.11577

>  <SlogP_VSA0>
134.4381

>  <SlogP_VSA1>
17.062834

>  <SlogP_VSA2>
71.307762

>  <SlogP_VSA3>
0

>  <SlogP_VSA4>
66.837883

>  <SlogP_VSA5>
18.868406

>  <SlogP_VSA6>
0

>  <SlogP_VSA7>
70.572739

>  <SlogP_VSA8>
44.20546

>  <SlogP_VSA9>
77.138885

>  <SMR>
12.39016

>  <SMR_VSA0>
93.586426

>  <SMR_VSA1>
101.54091

>  <SMR_VSA2>
0

>  <SMR_VSA3>
61.514725

>  <SMR_VSA4>
32.897186

>  <SMR_VSA5>
127.17796

>  <SMR_VSA6>
17.062834

>  <SMR_VSA7>
66.652031

>  <TPSA>
176.61

>  <VAdjEq>
0.33426812

>  <VAdjMa>
6.321928

>  <VDistEq>
3.4970944

>  <VDistMa>
10.093611

>  <vdw_area>
428.71579

>  <vdw_vol>
617.78351

>  <vsa_acc>
45.708275

>  <vsa_acid>
0

>  <vsa_base>
0

>  <vsa_don>
0

>  <vsa_hyd>
231.71974

>  <vsa_other>
40.084057

>  <vsa_pol>
117.71844

>  <Weight>
497.5

>  <weinerPath>
3545

>  <weinerPol>
76

>  <zagreb>
206

$$$$