Clc1ccccc1C1(NC)CCCCC1=O
  MOE2013           2D

 16 17  0  0  1  0  0  0  0  0999 V2000
    0.0000    0.0000    0.0000 Cl  0  0  0  0  0  0  0  0  0  0  0  0
    0.7500   -1.2990    0.0000 C   0  0  0  0  0  0  0  0  0  0  0  0
    2.2500   -1.2980    0.0000 C   0  0  0  0  0  0  0  0  0  0  0  0
    3.0010   -2.5970    0.0000 C   0  0  0  0  0  0  0  0  0  0  0  0
    2.2510   -3.8960    0.0000 C   0  0  0  0  0  0  0  0  0  0  0  0
    0.7510   -3.8970    0.0000 C   0  0  0  0  0  0  0  0  0  0  0  0
    0.0010   -2.5980    0.0000 C   0  0  0  0  0  0  0  0  0  0  0  0
   -1.4990   -2.5990    0.0000 C   0  0  3  0  0  0  0  0  0  0  0  0
   -0.7490   -3.8970    0.0000 N   0  0  0  0  0  0  0  0  0  0  0  0
   -1.4980   -5.1970    0.0000 C   0  0  0  0  0  0  0  0  0  0  0  0
   -1.5000   -1.0990    0.0000 C   0  0  0  0  0  0  0  0  0  0  0  0
   -2.7990   -0.3490    0.0000 C   0  0  0  0  0  0  0  0  0  0  0  0
   -4.0980   -1.0990    0.0000 C   0  0  0  0  0  0  0  0  0  0  0  0
   -4.0970   -2.5990    0.0000 C   0  0  0  0  0  0  0  0  0  0  0  0
   -2.7980   -3.3490    0.0000 C   0  0  0  0  0  0  0  0  0  0  0  0
   -2.7970   -4.8490    0.0000 O   0  0  0  0  0  0  0  0  0  0  0  0
  1  2  1  0  0  0  0
  2  3  1  0  0  0  0
  2  7  2  0  0  0  0
  3  4  2  0  0  0  0
  4  5  1  0  0  0  0
  5  6  2  0  0  0  0
  6  7  1  0  0  0  0
  7  8  1  0  0  0  0
  8  9  1  0  0  0  0
  8 11  1  0  0  0  0
  8 15  1  0  0  0  0
  9 10  1  0  0  0  0
 11 12  1  0  0  0  0
 12 13  1  0  0  0  0
 13 14  1  0  0  0  0
 14 15  1  0  0  0  0
 15 16  2  0  0  0  0
M  END
>  <Index>
586

>  <ID>
HT1157

>  <class>
0

>  <apol>
37.630688

>  <ast_fraglike>
0

>  <ast_fraglike_ext>
0

>  <ast_violation>
1

>  <ast_violation_ext>
2

>  <a_acc>
2

>  <a_acid>
0

>  <a_aro>
6

>  <a_base>
0

>  <a_count>
32

>  <a_don>
1

>  <a_donacc>
3

>  <a_heavy>
16

>  <a_hyd>
13

>  <a_IC>
47.894283

>  <a_ICM>
1.4966964

>  <a_nB>
0

>  <a_nBr>
0

>  <a_nC>
13

>  <a_nCl>
1

>  <a_nF>
0

>  <a_nH>
16

>  <a_nI>
0

>  <a_nN>
1

>  <a_nO>
1

>  <a_nP>
0

>  <a_nS>
0

>  <balabanJ>
2.1846509

>  <BCUT_PEOE_0>
-2.7264137

>  <BCUT_PEOE_1>
-0.62223828

>  <BCUT_PEOE_2>
0.64360732

>  <BCUT_PEOE_3>
2.7285626

>  <BCUT_SLOGP_0>
-2.7122831

>  <BCUT_SLOGP_1>
-0.45200011

>  <BCUT_SLOGP_2>
0.68548483

>  <BCUT_SLOGP_3>
2.815438

>  <BCUT_SMR_0>
-2.4737551

>  <BCUT_SMR_1>
-0.41600081

>  <BCUT_SMR_2>
0.80643159

>  <BCUT_SMR_3>
2.9829712

>  <bpol>
19.529312

>  <b_1rotN>
2

>  <b_1rotR>
0.11764706

>  <b_ar>
6

>  <b_count>
33

>  <b_double>
1

>  <b_heavy>
17

>  <b_max1len>
4

>  <b_rotN>
2

>  <b_rotR>
0.11764706

>  <b_single>
26

>  <b_triple>
0

>  <chi0>
11.596012

>  <chi0v>
10.17997

>  <chi0v_C>
8.1378279

>  <chi0_C>
8.8889055

>  <chi1>
7.7043424

>  <chi1v>
6.0555277

>  <chi1v_C>
4.5344572

>  <chi1_C>
5.4889817

>  <chiral>
1

>  <chiral_u>
1

>  <density>
0.7443018

>  <diameter>
7

>  <FCharge>
0

>  <GCUT_PEOE_0>
-0.83126885

>  <GCUT_PEOE_1>
-0.39286879

>  <GCUT_PEOE_2>
0.060969234

>  <GCUT_PEOE_3>
2.6428812

>  <GCUT_SLOGP_0>
-1.1206808

>  <GCUT_SLOGP_1>
-0.24285127

>  <GCUT_SLOGP_2>
0.14354005

>  <GCUT_SLOGP_3>
2.7333767

>  <GCUT_SMR_0>
-0.52275729

>  <GCUT_SMR_1>
-0.18472543

>  <GCUT_SMR_2>
0.22700696

>  <GCUT_SMR_3>
2.9002857

>  <Kier1>
12.456747

>  <Kier2>
5.1041665

>  <Kier3>
2.2041523

>  <KierA1>
10.995405

>  <KierA2>
4.4653645

>  <KierA3>
1.9154165

>  <KierFlex>
3.0686555

>  <lip_acc>
2

>  <lip_don>
1

>  <lip_druglike>
1

>  <lip_violation>
0

>  <logP(o/w)>
3.0810001

>  <logS>
-2.82709

>  <mr>
6.707715

>  <mutagenic>
0

>  <nmol>
1

>  <opr_brigid>
12

>  <opr_leadlike>
1

>  <opr_nring>
2

>  <opr_nrot>
4

>  <opr_violation>
0

>  <PC+>
0

>  <PC->
0

>  <PEOE_PC+>
1.0384617

>  <PEOE_PC->
-1.0384617

>  <PEOE_RPC+>
0.15184987

>  <PEOE_RPC->
0.29263473

>  <PEOE_VSA+0>
60.140305

>  <PEOE_VSA+1>
17.061544

>  <PEOE_VSA+2>
8.6190128

>  <PEOE_VSA+3>
8.458519

>  <PEOE_VSA+4>
0

>  <PEOE_VSA+5>
0

>  <PEOE_VSA+6>
0

>  <PEOE_VSA-0>
55.104759

>  <PEOE_VSA-1>
75.047974

>  <PEOE_VSA-2>
0

>  <PEOE_VSA-3>
0

>  <PEOE_VSA-4>
0

>  <PEOE_VSA-5>
13.566921

>  <PEOE_VSA-6>
0.13689101

>  <PEOE_VSA_FHYD>
0.9424538

>  <PEOE_VSA_FNEG>
0.60409427

>  <PEOE_VSA_FPNEG>
0.057546176

>  <PEOE_VSA_FPOL>
0.057546176

>  <PEOE_VSA_FPOS>
0.39590576

>  <PEOE_VSA_FPPOS>
0

>  <PEOE_VSA_HYD>
224.43211

>  <PEOE_VSA_NEG>
143.85654

>  <PEOE_VSA_PNEG>
13.703812

>  <PEOE_VSA_POL>
13.703812

>  <PEOE_VSA_POS>
94.279381

>  <PEOE_VSA_PPOS>
0

>  <petitjean>
0.42857143

>  <petitjeanSC>
0.75

>  <Q_PC+>
0

>  <Q_PC->
0

>  <Q_RPC+>
0

>  <Q_RPC->
0

>  <Q_VSA_FHYD>
1

>  <Q_VSA_FNEG>
0

>  <Q_VSA_FPNEG>
0

>  <Q_VSA_FPOL>
0

>  <Q_VSA_FPOS>
1

>  <Q_VSA_FPPOS>
0

>  <Q_VSA_HYD>
238.13593

>  <Q_VSA_NEG>
0

>  <Q_VSA_PNEG>
0

>  <Q_VSA_POL>
0

>  <Q_VSA_POS>
238.13593

>  <Q_VSA_PPOS>
0

>  <radius>
4

>  <reactive>
1

>  <rings>
2

>  <RPC+>
0

>  <RPC->
0

>  <rsynth>
1

>  <SlogP>
3.2093

>  <SlogP_VSA0>
18.01075

>  <SlogP_VSA1>
5.6876111

>  <SlogP_VSA2>
23.862217

>  <SlogP_VSA3>
0

>  <SlogP_VSA4>
3.185575

>  <SlogP_VSA5>
32.897186

>  <SlogP_VSA6>
3.5006065

>  <SlogP_VSA7>
70.572739

>  <SlogP_VSA8>
75.473625

>  <SlogP_VSA9>
39.148643

>  <SMR>
6.5781698

>  <SMR_VSA0>
23.862217

>  <SMR_VSA1>
0

>  <SMR_VSA2>
18.01075

>  <SMR_VSA3>
6.6861815

>  <SMR_VSA4>
0

>  <SMR_VSA5>
146.04636

>  <SMR_VSA6>
5.6876111

>  <SMR_VSA7>
72.04583

>  <TPSA>
29.1

>  <VAdjEq>
0.56510133

>  <VAdjMa>
5.0874629

>  <VDistEq>
2.5324035

>  <VDistMa>
7.7485461

>  <vdw_area>
238.13593

>  <vdw_vol>
319.39999

>  <vsa_acc>
13.566921

>  <vsa_acid>
0

>  <vsa_base>
0

>  <vsa_don>
0

>  <vsa_hyd>
196.67766

>  <vsa_other>
8.458519

>  <vsa_pol>
19.249496

>  <Weight>
237.73

>  <weinerPath>
388

>  <weinerPol>
28

>  <zagreb>
82

$$$$