O(C(=O)C=1C(C(=C(OC)/O)C(=NC=1C)C)c1cc([N+](=O)[O-])ccc1)C(CN(CCC(c1ccccc1)c1ccccc1)C)(C)C
  MOE2013           2D

 45 48  0  0  1  0  0  0  0  0999 V2000
    0.0000    0.0000    0.0000 O   0  0  0  0  0  0  0  0  0  0  0  0
   -1.5000    0.0030    0.0000 C   0  0  0  0  0  0  0  0  0  0  0  0
   -2.2530   -1.2940    0.0000 O   0  0  0  0  0  0  0  0  0  0  0  0
   -2.2470    1.3040    0.0000 C   0  0  0  0  0  0  0  0  0  0  0  0
   -3.7470    1.3080    0.0000 C   0  0  3  0  0  0  0  0  0  0  0  0
   -4.4940    2.6090    0.0000 C   0  0  0  0  0  0  0  0  0  0  0  0
   -5.9940    2.6120    0.0000 C   0  0  0  0  0  0  0  0  0  0  0  0
   -6.7410    3.9130    0.0000 O   0  0  0  0  0  0  0  0  0  0  0  0
   -8.2410    3.9160    0.0000 C   0  0  0  0  0  0  0  0  0  0  0  0
   -6.7470    1.3150    0.0000 O   0  0  0  0  0  0  0  0  0  0  0  0
   -3.7410    3.9060    0.0000 C   0  0  0  0  0  0  0  0  0  0  0  0
   -2.2410    3.9020    0.0000 N   0  0  0  0  0  0  0  0  0  0  0  0
   -1.4940    2.6020    0.0000 C   0  0  0  0  0  0  0  0  0  0  0  0
    0.0060    2.5980    0.0000 C   0  0  0  0  0  0  0  0  0  0  0  0
   -4.4880    5.2070    0.0000 C   0  0  0  0  0  0  0  0  0  0  0  0
   -4.5000    0.0100    0.0000 C   0  0  0  0  0  0  0  0  0  0  0  0
   -6.0000    0.0140    0.0000 C   0  0  0  0  0  0  0  0  0  0  0  0
   -6.7530   -1.2830    0.0000 C   0  0  0  0  0  0  0  0  0  0  0  0
   -8.2530   -1.2800    0.0000 N   0  3  0  0  0  0  0  0  0  0  0  0
   -9.0060   -2.5770    0.0000 O   0  0  0  0  0  0  0  0  0  0  0  0
   -9.0000    0.0210    0.0000 O   0  5  0  0  0  0  0  0  0  0  0  0
   -6.0060   -2.5840    0.0000 C   0  0  0  0  0  0  0  0  0  0  0  0
   -4.5060   -2.5880    0.0000 C   0  0  0  0  0  0  0  0  0  0  0  0
   -3.7530   -1.2900    0.0000 C   0  0  0  0  0  0  0  0  0  0  0  0
    0.7470   -1.3010    0.0000 C   0  0  0  0  0  0  0  0  0  0  0  0
    2.0480   -0.5540    0.0000 C   0  0  0  0  0  0  0  0  0  0  0  0
    3.3450   -1.3070    0.0000 N   0  0  3  0  0  0  0  0  0  0  0  0
    4.6460   -0.5600    0.0000 C   0  0  0  0  0  0  0  0  0  0  0  0
    5.9430   -1.3130    0.0000 C   0  0  0  0  0  0  0  0  0  0  0  0
    7.2440   -0.5660    0.0000 C   0  0  0  0  0  0  0  0  0  0  0  0
    7.2470    0.9340    0.0000 C   0  0  0  0  0  0  0  0  0  0  0  0
    8.5480    1.6810    0.0000 C   0  0  0  0  0  0  0  0  0  0  0  0
    8.5520    3.1810    0.0000 C   0  0  0  0  0  0  0  0  0  0  0  0
    7.2540    3.9340    0.0000 C   0  0  0  0  0  0  0  0  0  0  0  0
    5.9540    3.1870    0.0000 C   0  0  0  0  0  0  0  0  0  0  0  0
    5.9500    1.6870    0.0000 C   0  0  0  0  0  0  0  0  0  0  0  0
    8.5410   -1.3190    0.0000 C   0  0  0  0  0  0  0  0  0  0  0  0
    8.5380   -2.8190    0.0000 C   0  0  0  0  0  0  0  0  0  0  0  0
    9.8350   -3.5720    0.0000 C   0  0  0  0  0  0  0  0  0  0  0  0
   11.1360   -2.8250    0.0000 C   0  0  0  0  0  0  0  0  0  0  0  0
   11.1390   -1.3250    0.0000 C   0  0  0  0  0  0  0  0  0  0  0  0
    9.8420   -0.5720    0.0000 C   0  0  0  0  0  0  0  0  0  0  0  0
    3.3420   -2.8070    0.0000 C   0  0  0  0  0  0  0  0  0  0  0  0
    1.4940   -2.6020    0.0000 C   0  0  0  0  0  0  0  0  0  0  0  0
   -0.5540   -2.0480    0.0000 C   0  0  0  0  0  0  0  0  0  0  0  0
  1  2  1  0  0  0  0
  1 25  1  0  0  0  0
  2  3  2  0  0  0  0
  2  4  1  0  0  0  0
  4  5  1  0  0  0  0
  4 13  2  0  0  0  0
  5  6  1  0  0  0  0
  5 16  1  0  0  0  0
  6  7  2  3  0  0  0
  6 11  1  0  0  0  0
  7  8  1  0  0  0  0
  7 10  1  0  0  0  0
  8  9  1  0  0  0  0
 11 12  2  0  0  0  0
 11 15  1  0  0  0  0
 12 13  1  0  0  0  0
 13 14  1  0  0  0  0
 16 17  1  0  0  0  0
 16 24  2  0  0  0  0
 17 18  2  0  0  0  0
 18 19  1  0  0  0  0
 18 22  1  0  0  0  0
 19 20  2  0  0  0  0
 19 21  1  0  0  0  0
 22 23  2  0  0  0  0
 23 24  1  0  0  0  0
 25 26  1  0  0  0  0
 25 44  1  0  0  0  0
 25 45  1  0  0  0  0
 26 27  1  0  0  0  0
 27 28  1  0  0  0  0
 27 43  1  0  0  0  0
 28 29  1  0  0  0  0
 29 30  1  0  0  0  0
 30 31  1  0  0  0  0
 30 37  1  0  0  0  0
 31 32  1  0  0  0  0
 31 36  2  0  0  0  0
 32 33  2  0  0  0  0
 33 34  1  0  0  0  0
 34 35  2  0  0  0  0
 35 36  1  0  0  0  0
 37 38  1  0  0  0  0
 37 42  2  0  0  0  0
 38 39  2  0  0  0  0
 39 40  1  0  0  0  0
 40 41  2  0  0  0  0
 41 42  1  0  0  0  0
M  CHG  1  19   1
M  CHG  1  21  -1
M  END
>  <Index>
600

>  <ID>
HT1185

>  <class>
0

>  <apol>
98.810516

>  <ast_fraglike>
0

>  <ast_fraglike_ext>
0

>  <ast_violation>
3

>  <ast_violation_ext>
4

>  <a_acc>
5

>  <a_acid>
0

>  <a_aro>
18

>  <a_base>
0

>  <a_count>
86

>  <a_don>
1

>  <a_donacc>
6

>  <a_heavy>
45

>  <a_hyd>
34

>  <a_IC>
126.61717

>  <a_ICM>
1.4722928

>  <a_nB>
0

>  <a_nBr>
0

>  <a_nC>
36

>  <a_nCl>
0

>  <a_nF>
0

>  <a_nH>
41

>  <a_nI>
0

>  <a_nN>
3

>  <a_nO>
6

>  <a_nP>
0

>  <a_nS>
0

>  <balabanJ>
1.4291408

>  <BCUT_PEOE_0>
-2.7177913

>  <BCUT_PEOE_1>
-0.55582017

>  <BCUT_PEOE_2>
0.5802539

>  <BCUT_PEOE_3>
2.6684585

>  <BCUT_SLOGP_0>
-2.7852671

>  <BCUT_SLOGP_1>
-0.45798901

>  <BCUT_SLOGP_2>
0.67816705

>  <BCUT_SLOGP_3>
2.6661749

>  <BCUT_SMR_0>
-2.45631

>  <BCUT_SMR_1>
-0.38963863

>  <BCUT_SMR_2>
0.71881461

>  <BCUT_SMR_3>
2.920841

>  <bpol>
54.167488

>  <b_1rotN>
12

>  <b_1rotR>
0.25

>  <b_ar>
18

>  <b_count>
89

>  <b_double>
5

>  <b_heavy>
48

>  <b_max1len>
8

>  <b_rotN>
13

>  <b_rotR>
0.27083334

>  <b_single>
66

>  <b_triple>
0

>  <chi0>
32.72504

>  <chi0v>
26.68902

>  <chi0v_C>
22.858925

>  <chi0_C>
25.449018

>  <chi1>
21.412724

>  <chi1v>
14.911901

>  <chi1v_C>
11.347912

>  <chi1_C>
14.682488

>  <chiral>
1

>  <chiral_u>
1

>  <density>
0.71538037

>  <diameter>
18

>  <FCharge>
0

>  <GCUT_PEOE_0>
-0.85602301

>  <GCUT_PEOE_1>
-0.38988537

>  <GCUT_PEOE_2>
0.058436971

>  <GCUT_PEOE_3>
3.0127351

>  <GCUT_SLOGP_0>
-0.95904666

>  <GCUT_SLOGP_1>
-0.26386139

>  <GCUT_SLOGP_2>
0.13794084

>  <GCUT_SLOGP_3>
3.0724928

>  <GCUT_SMR_0>
-0.52333122

>  <GCUT_SMR_1>
-0.19347781

>  <GCUT_SMR_2>
0.17379974

>  <GCUT_SMR_3>
3.2666132

>  <Kier1>
37.8125

>  <Kier2>
17.59429

>  <Kier3>
10.254459

>  <KierA1>
28.897938

>  <KierA2>
13.359198

>  <KierA3>
7.7502241

>  <KierFlex>
8.5789614

>  <lip_acc>
9

>  <lip_don>
1

>  <lip_druglike>
0

>  <lip_violation>
2

>  <logP(o/w)>
7.2379999

>  <logS>
-8.1557302

>  <mr>
17.470991

>  <mutagenic>
1

>  <nmol>
1

>  <opr_brigid>
25

>  <opr_leadlike>
0

>  <opr_nring>
4

>  <opr_nrot>
12

>  <opr_violation>
4

>  <PC+>
0

>  <PC->
0

>  <PEOE_PC+>
3.2838798

>  <PEOE_PC->
-3.2838798

>  <PEOE_RPC+>
0.089211762

>  <PEOE_RPC->
0.10359088

>  <PEOE_VSA+0>
176.41132

>  <PEOE_VSA+1>
78.748138

>  <PEOE_VSA+2>
0

>  <PEOE_VSA+3>
14.708499

>  <PEOE_VSA+4>
10.324173

>  <PEOE_VSA+5>
21.408051

>  <PEOE_VSA+6>
0

>  <PEOE_VSA-0>
126.74866

>  <PEOE_VSA-1>
147.05885

>  <PEOE_VSA-2>
0

>  <PEOE_VSA-3>
0

>  <PEOE_VSA-4>
0

>  <PEOE_VSA-5>
53.180546

>  <PEOE_VSA-6>
12.775052

>  <PEOE_VSA_FHYD>
0.84768724

>  <PEOE_VSA_FNEG>
0.52975142

>  <PEOE_VSA_FPNEG>
0.10283657

>  <PEOE_VSA_FPOL>
0.15231277

>  <PEOE_VSA_FPOS>
0.47024858

>  <PEOE_VSA_FPPOS>
0.04947621

>  <PEOE_VSA_HYD>
543.67548

>  <PEOE_VSA_NEG>
339.76309

>  <PEOE_VSA_PNEG>
65.955597

>  <PEOE_VSA_POL>
97.68782

>  <PEOE_VSA_POS>
301.60016

>  <PEOE_VSA_PPOS>
31.732224

>  <petitjean>
0.5

>  <petitjeanSC>
1

>  <Q_PC+>
0

>  <Q_PC->
0

>  <Q_RPC+>
0

>  <Q_RPC->
0

>  <Q_VSA_FHYD>
1

>  <Q_VSA_FNEG>
0

>  <Q_VSA_FPNEG>
0

>  <Q_VSA_FPOL>
0

>  <Q_VSA_FPOS>
1

>  <Q_VSA_FPPOS>
0

>  <Q_VSA_HYD>
641.36328

>  <Q_VSA_NEG>
0

>  <Q_VSA_PNEG>
0

>  <Q_VSA_POL>
0

>  <Q_VSA_POS>
641.36328

>  <Q_VSA_PPOS>
0

>  <radius>
9

>  <reactive>
1

>  <rings>
4

>  <RPC+>
0

>  <RPC->
0

>  <rsynth>
0.84444445

>  <SlogP>
7.3186998

>  <SlogP_VSA0>
0

>  <SlogP_VSA1>
20.712141

>  <SlogP_VSA2>
45.861992

>  <SlogP_VSA3>
113.19939

>  <SlogP_VSA4>
9.5567245

>  <SlogP_VSA5>
101.49577

>  <SlogP_VSA6>
8.8215923

>  <SlogP_VSA7>
247.00458

>  <SlogP_VSA8>
18.868406

>  <SlogP_VSA9>
136.06081

>  <SMR>
17.532221

>  <SMR_VSA0>
52.947609

>  <SMR_VSA1>
19.909843

>  <SMR_VSA2>
76.320236

>  <SMR_VSA3>
34.807495

>  <SMR_VSA4>
2.7567475

>  <SMR_VSA5>
265.87299

>  <SMR_VSA6>
47.381367

>  <SMR_VSA7>
201.58511

>  <TPSA>
117.18

>  <VAdjEq>
0.27528003

>  <VAdjMa>
6.5849624

>  <VDistEq>
4.013083

>  <VDistMa>
10.706641

>  <vdw_area>
641.36328

>  <vdw_vol>
855.12402

>  <vsa_acc>
21.753254

>  <vsa_acid>
0

>  <vsa_base>
0

>  <vsa_don>
0

>  <vsa_hyd>
497.80502

>  <vsa_other>
72.551353

>  <vsa_pol>
35.320175

>  <Weight>
611.73901

>  <weinerPath>
7706

>  <weinerPol>
75

>  <zagreb>
232

$$$$