Oc1cc(ccc1O)C(O)C(NC(C)C)CC
  MOE2013           2D

 17 17  0  0  1  0  0  0  0  0999 V2000
    0.0000    0.0000    0.0000 O   0  0  0  0  0  0  0  0  0  0  0  0
    1.2930    0.7600    0.0000 C   0  0  0  0  0  0  0  0  0  0  0  0
    2.5980    0.0210    0.0000 C   0  0  0  0  0  0  0  0  0  0  0  0
    3.8910    0.7810    0.0000 C   0  0  0  0  0  0  0  0  0  0  0  0
    3.8790    2.2810    0.0000 C   0  0  0  0  0  0  0  0  0  0  0  0
    2.5740    3.0200    0.0000 C   0  0  0  0  0  0  0  0  0  0  0  0
    1.2810    2.2600    0.0000 C   0  0  0  0  0  0  0  0  0  0  0  0
   -0.0240    3.0000    0.0000 O   0  0  0  0  0  0  0  0  0  0  0  0
    5.1960    0.0410    0.0000 C   0  0  3  0  0  0  0  0  0  0  0  0
    5.2080   -1.4590    0.0000 O   0  0  0  0  0  0  0  0  0  0  0  0
    6.4890    0.8010    0.0000 C   0  0  3  0  0  0  0  0  0  0  0  0
    6.4770    2.3010    0.0000 N   0  0  0  0  0  0  0  0  0  0  0  0
    7.7700    3.0620    0.0000 C   0  0  0  0  0  0  0  0  0  0  0  0
    7.7580    4.5620    0.0000 C   0  0  0  0  0  0  0  0  0  0  0  0
    9.0750    2.3220    0.0000 C   0  0  0  0  0  0  0  0  0  0  0  0
    7.7940    0.0620    0.0000 C   0  0  0  0  0  0  0  0  0  0  0  0
    7.8060   -1.4380    0.0000 C   0  0  0  0  0  0  0  0  0  0  0  0
  1  2  1  0  0  0  0
  2  3  1  0  0  0  0
  2  7  2  0  0  0  0
  3  4  2  0  0  0  0
  4  5  1  0  0  0  0
  4  9  1  0  0  0  0
  5  6  2  0  0  0  0
  6  7  1  0  0  0  0
  7  8  1  0  0  0  0
  9 10  1  0  0  0  0
  9 11  1  0  0  0  0
 11 12  1  0  0  0  0
 11 16  1  0  0  0  0
 12 13  1  0  0  0  0
 13 14  1  0  0  0  0
 13 15  1  0  0  0  0
 16 17  1  0  0  0  0
M  END
>  <Index>
569

>  <ID>
HT1131

>  <class>
0

>  <apol>
40.388653

>  <ast_fraglike>
0

>  <ast_fraglike_ext>
0

>  <ast_violation>
2

>  <ast_violation_ext>
3

>  <a_acc>
4

>  <a_acid>
0

>  <a_aro>
6

>  <a_base>
0

>  <a_count>
38

>  <a_don>
4

>  <a_donacc>
8

>  <a_heavy>
17

>  <a_hyd>
13

>  <a_IC>
54.321976

>  <a_ICM>
1.4295257

>  <a_nB>
0

>  <a_nBr>
0

>  <a_nC>
13

>  <a_nCl>
0

>  <a_nF>
0

>  <a_nH>
21

>  <a_nI>
0

>  <a_nN>
1

>  <a_nO>
3

>  <a_nP>
0

>  <a_nS>
0

>  <balabanJ>
2.5334656

>  <BCUT_PEOE_0>
-2.7060788

>  <BCUT_PEOE_1>
-0.52032781

>  <BCUT_PEOE_2>
0.60662884

>  <BCUT_PEOE_3>
2.6459947

>  <BCUT_SLOGP_0>
-2.7915998

>  <BCUT_SLOGP_1>
-0.51679188

>  <BCUT_SLOGP_2>
0.56287837

>  <BCUT_SLOGP_3>
2.6621256

>  <BCUT_SMR_0>
-2.4405489

>  <BCUT_SMR_1>
-0.41861761

>  <BCUT_SMR_2>
0.69971567

>  <BCUT_SMR_3>
2.9036479

>  <bpol>
23.617348

>  <b_1rotN>
5

>  <b_1rotR>
0.29411766

>  <b_ar>
6

>  <b_count>
38

>  <b_double>
0

>  <b_heavy>
17

>  <b_max1len>
7

>  <b_rotN>
5

>  <b_rotR>
0.29411766

>  <b_single>
32

>  <b_triple>
0

>  <chi0>
12.999636

>  <chi0v>
10.512849

>  <chi0v_C>
8.6712084

>  <chi0_C>
9.2925291

>  <chi1>
7.9515963

>  <chi1v>
5.9128609

>  <chi1v_C>
4.6300979

>  <chi1_C>
5.403049

>  <chiral>
2

>  <chiral_u>
2

>  <density>
0.7003085

>  <diameter>
9

>  <FCharge>
0

>  <GCUT_PEOE_0>
-0.84332687

>  <GCUT_PEOE_1>
-0.36039641

>  <GCUT_PEOE_2>
0.082903698

>  <GCUT_PEOE_3>
2.6008475

>  <GCUT_SLOGP_0>
-1.1529464

>  <GCUT_SLOGP_1>
-0.31097218

>  <GCUT_SLOGP_2>
0.083508119

>  <GCUT_SLOGP_3>
2.6737819

>  <GCUT_SMR_0>
-0.52451426

>  <GCUT_SMR_1>
-0.22122549

>  <GCUT_SMR_2>
0.15790968

>  <GCUT_SMR_3>
2.8420594

>  <Kier1>
15.058824

>  <Kier2>
6.8052931

>  <Kier3>
4.3017831

>  <KierA1>
13.001166

>  <KierA2>
5.8177919

>  <KierA3>
3.6487999

>  <KierFlex>
4.4492989

>  <lip_acc>
4

>  <lip_don>
4

>  <lip_druglike>
1

>  <lip_violation>
0

>  <logP(o/w)>
2.4119999

>  <logS>
-1.38234

>  <mr>
6.7123995

>  <mutagenic>
0

>  <nmol>
1

>  <opr_brigid>
6

>  <opr_leadlike>
1

>  <opr_nring>
1

>  <opr_nrot>
5

>  <opr_violation>
0

>  <PC+>
0

>  <PC->
0

>  <PEOE_PC+>
1.7311603

>  <PEOE_PC->
-1.7311603

>  <PEOE_RPC+>
0.12559302

>  <PEOE_RPC->
0.22275783

>  <PEOE_VSA+0>
61.74194

>  <PEOE_VSA+1>
21.966473

>  <PEOE_VSA+2>
25.536053

>  <PEOE_VSA+3>
0

>  <PEOE_VSA+4>
30.972517

>  <PEOE_VSA+5>
0

>  <PEOE_VSA+6>
0

>  <PEOE_VSA-0>
72.915016

>  <PEOE_VSA-1>
31.002581

>  <PEOE_VSA-2>
0

>  <PEOE_VSA-3>
0

>  <PEOE_VSA-4>
0

>  <PEOE_VSA-5>
0

>  <PEOE_VSA-6>
23.439512

>  <PEOE_VSA_FHYD>
0.79664689

>  <PEOE_VSA_FNEG>
0.47596952

>  <PEOE_VSA_FPNEG>
0.087600082

>  <PEOE_VSA_FPOL>
0.20335314

>  <PEOE_VSA_FPOS>
0.52403051

>  <PEOE_VSA_FPPOS>
0.11575305

>  <PEOE_VSA_HYD>
213.16206

>  <PEOE_VSA_NEG>
127.35711

>  <PEOE_VSA_PNEG>
23.439512

>  <PEOE_VSA_POL>
54.412029

>  <PEOE_VSA_POS>
140.21698

>  <PEOE_VSA_PPOS>
30.972517

>  <petitjean>
0.44444445

>  <petitjeanSC>
0.80000001

>  <Q_PC+>
0

>  <Q_PC->
0

>  <Q_RPC+>
0

>  <Q_RPC->
0

>  <Q_VSA_FHYD>
1

>  <Q_VSA_FNEG>
0

>  <Q_VSA_FPNEG>
0

>  <Q_VSA_FPOL>
0

>  <Q_VSA_FPOS>
1

>  <Q_VSA_FPPOS>
0

>  <Q_VSA_HYD>
267.5741

>  <Q_VSA_NEG>
0

>  <Q_VSA_PNEG>
0

>  <Q_VSA_POL>
0

>  <Q_VSA_POS>
267.5741

>  <Q_VSA_PPOS>
0

>  <radius>
5

>  <reactive>
0

>  <rings>
1

>  <RPC+>
0

>  <RPC->
0

>  <rsynth>
0.29411766

>  <SlogP>
2.0033

>  <SlogP_VSA0>
94.166428

>  <SlogP_VSA1>
0

>  <SlogP_VSA2>
7.9639373

>  <SlogP_VSA3>
0

>  <SlogP_VSA4>
3.185575

>  <SlogP_VSA5>
0

>  <SlogP_VSA6>
0

>  <SlogP_VSA7>
52.929554

>  <SlogP_VSA8>
25.337055

>  <SlogP_VSA9>
110.4649

>  <SMR>
6.7193098

>  <SMR_VSA0>
0

>  <SMR_VSA1>
76.155678

>  <SMR_VSA2>
18.01075

>  <SMR_VSA3>
28.105019

>  <SMR_VSA4>
0

>  <SMR_VSA5>
71.797958

>  <SMR_VSA6>
0

>  <SMR_VSA7>
99.978043

>  <TPSA>
72.720001

>  <VAdjEq>
0.52255934

>  <VAdjMa>
5.0874629

>  <VDistEq>
2.9657774

>  <VDistMa>
7.8820238

>  <vdw_area>
267.5741

>  <vdw_vol>
341.72797

>  <vsa_acc>
0

>  <vsa_acid>
0

>  <vsa_base>
0

>  <vsa_don>
0

>  <vsa_hyd>
192.44252

>  <vsa_other>
0

>  <vsa_pol>
46.383339

>  <Weight>
239.31499

>  <weinerPath>
534

>  <weinerPol>
24

>  <zagreb>
80

$$$$