Clc1cc2c(N(C)C(=O)CN3C2(OC(=CC3=O)C)c2ccccc2)cc1
  MOE2013           2D

 26 29  0  0  1  0  0  0  0  0999 V2000
    0.0000    0.0000    0.0000 Cl  0  0  0  0  0  0  0  0  0  0  0  0
   -1.5000   -0.0290    0.0000 C   0  0  0  0  0  0  0  0  0  0  0  0
   -2.2750    1.2550    0.0000 C   0  0  0  0  0  0  0  0  0  0  0  0
   -3.7750    1.2260    0.0000 C   0  0  0  0  0  0  0  0  0  0  0  0
   -4.4990   -0.0870    0.0000 C   0  0  0  0  0  0  0  0  0  0  0  0
   -5.9780   -0.3400    0.0000 N   0  0  0  0  0  0  0  0  0  0  0  0
   -6.3910   -1.7820    0.0000 C   0  0  0  0  0  0  0  0  0  0  0  0
   -7.0980    0.6570    0.0000 C   0  0  0  0  0  0  0  0  0  0  0  0
   -8.4830    0.0800    0.0000 O   0  0  0  0  0  0  0  0  0  0  0  0
   -7.0170    2.1550    0.0000 C   0  0  0  0  0  0  0  0  0  0  0  0
   -5.7930    3.0240    0.0000 N   0  0  0  0  0  0  0  0  0  0  0  0
   -4.3510    2.6110    0.0000 C   0  0  3  0  0  0  0  0  0  0  0  0
   -3.2720    3.6530    0.0000 O   0  0  0  0  0  0  0  0  0  0  0  0
   -3.6360    5.1080    0.0000 C   0  0  0  0  0  0  0  0  0  0  0  0
   -5.0780    5.5210    0.0000 C   0  0  0  0  0  0  0  0  0  0  0  0
   -6.1560    4.4790    0.0000 C   0  0  0  0  0  0  0  0  0  0  0  0
   -7.5980    4.8920    0.0000 O   0  0  0  0  0  0  0  0  0  0  0  0
   -2.5570    6.1500    0.0000 C   0  0  0  0  0  0  0  0  0  0  0  0
   -6.5380    1.3980    0.0000 C   0  0  0  0  0  0  0  0  0  0  0  0
   -7.0750   -0.0020    0.0000 C   0  0  0  0  0  0  0  0  0  0  0  0
   -8.5560   -0.2370    0.0000 C   0  0  0  0  0  0  0  0  0  0  0  0
   -9.5010    0.9280    0.0000 C   0  0  0  0  0  0  0  0  0  0  0  0
   -8.9630    2.3290    0.0000 C   0  0  0  0  0  0  0  0  0  0  0  0
   -7.4820    2.5640    0.0000 C   0  0  0  0  0  0  0  0  0  0  0  0
   -3.7240   -1.3720    0.0000 C   0  0  0  0  0  0  0  0  0  0  0  0
   -2.2240   -1.3420    0.0000 C   0  0  0  0  0  0  0  0  0  0  0  0
  1  2  1  0  0  0  0
  2  3  1  0  0  0  0
  2 26  2  0  0  0  0
  3  4  2  0  0  0  0
  4  5  1  0  0  0  0
  4 12  1  0  0  0  0
  5  6  1  0  0  0  0
  5 25  2  0  0  0  0
  6  7  1  0  0  0  0
  6  8  1  0  0  0  0
  8  9  2  0  0  0  0
  8 10  1  0  0  0  0
 10 11  1  0  0  0  0
 11 12  1  0  0  0  0
 11 16  1  0  0  0  0
 12 13  1  0  0  0  0
 12 19  1  0  0  0  0
 13 14  1  0  0  0  0
 14 15  2  0  0  0  0
 14 18  1  0  0  0  0
 15 16  1  0  0  0  0
 16 17  2  0  0  0  0
 19 20  1  0  0  0  0
 19 24  2  0  0  0  0
 20 21  2  0  0  0  0
 21 22  1  0  0  0  0
 22 23  2  0  0  0  0
 23 24  1  0  0  0  0
 25 26  1  0  0  0  0
M  END
>  <Index>
587

>  <ID>
HT1158

>  <class>
0

>  <apol>
53.32148

>  <ast_fraglike>
0

>  <ast_fraglike_ext>
0

>  <ast_violation>
2

>  <ast_violation_ext>
2

>  <a_acc>
3

>  <a_acid>
0

>  <a_aro>
12

>  <a_base>
0

>  <a_count>
43

>  <a_don>
0

>  <a_donacc>
3

>  <a_heavy>
26

>  <a_hyd>
18

>  <a_IC>
70.649063

>  <a_ICM>
1.6430016

>  <a_nB>
0

>  <a_nBr>
0

>  <a_nC>
20

>  <a_nCl>
1

>  <a_nF>
0

>  <a_nH>
17

>  <a_nI>
0

>  <a_nN>
2

>  <a_nO>
3

>  <a_nP>
0

>  <a_nS>
0

>  <balabanJ>
1.8177905

>  <BCUT_PEOE_0>
-2.5477521

>  <BCUT_PEOE_1>
-0.57323831

>  <BCUT_PEOE_2>
0.58574051

>  <BCUT_PEOE_3>
2.6153173

>  <BCUT_SLOGP_0>
-2.6398613

>  <BCUT_SLOGP_1>
-0.44121578

>  <BCUT_SLOGP_2>
0.75833094

>  <BCUT_SLOGP_3>
2.6326716

>  <BCUT_SMR_0>
-2.2766523

>  <BCUT_SMR_1>
-0.39516747

>  <BCUT_SMR_2>
0.85431087

>  <BCUT_SMR_3>
2.8902044

>  <bpol>
26.796518

>  <b_1rotN>
1

>  <b_1rotR>
0.034482758

>  <b_ar>
12

>  <b_count>
46

>  <b_double>
3

>  <b_heavy>
29

>  <b_max1len>
2

>  <b_rotN>
1

>  <b_rotR>
0.034482758

>  <b_single>
31

>  <b_triple>
0

>  <chi0>
18.474327

>  <chi0v>
15.156324

>  <chi0v_C>
11.903259

>  <chi0_C>
13.612519

>  <chi1>
12.430395

>  <chi1v>
8.6209326

>  <chi1v_C>
5.5796213

>  <chi1_C>
7.6622686

>  <chiral>
1

>  <chiral_u>
1

>  <density>
0.78411591

>  <diameter>
8

>  <FCharge>
0

>  <GCUT_PEOE_0>
-0.827115

>  <GCUT_PEOE_1>
-0.42721078

>  <GCUT_PEOE_2>
0.05863579

>  <GCUT_PEOE_3>
2.8277016

>  <GCUT_SLOGP_0>
-1.0017426

>  <GCUT_SLOGP_1>
-0.34845924

>  <GCUT_SLOGP_2>
0.13886033

>  <GCUT_SLOGP_3>
2.8952692

>  <GCUT_SMR_0>
-0.48723197

>  <GCUT_SMR_1>
-0.19434349

>  <GCUT_SMR_2>
0.19305076

>  <GCUT_SMR_3>
3.1096535

>  <Kier1>
19.322235

>  <Kier2>
7.4380164

>  <Kier3>
3.234375

>  <KierA1>
14.513462

>  <KierA2>
5.5181861

>  <KierA3>
2.3783658

>  <KierFlex>
3.0803072

>  <lip_acc>
5

>  <lip_don>
0

>  <lip_druglike>
1

>  <lip_violation>
0

>  <logP(o/w)>
4.0809999

>  <logS>
-4.9765401

>  <mr>
9.9611893

>  <mutagenic>
0

>  <nmol>
1

>  <opr_brigid>
23

>  <opr_leadlike>
1

>  <opr_nring>
4

>  <opr_nrot>
1

>  <opr_violation>
0

>  <PC+>
0

>  <PC->
0

>  <PEOE_PC+>
1.9633356

>  <PEOE_PC->
-1.9633356

>  <PEOE_RPC+>
0.12865157

>  <PEOE_RPC->
0.15986855

>  <PEOE_VSA+0>
70.022736

>  <PEOE_VSA+1>
62.077316

>  <PEOE_VSA+2>
13.192325

>  <PEOE_VSA+3>
0

>  <PEOE_VSA+4>
12.949531

>  <PEOE_VSA+5>
12.949531

>  <PEOE_VSA+6>
0

>  <PEOE_VSA-0>
55.51239

>  <PEOE_VSA-1>
90.856468

>  <PEOE_VSA-2>
0

>  <PEOE_VSA-3>
0

>  <PEOE_VSA-4>
0

>  <PEOE_VSA-5>
27.133842

>  <PEOE_VSA-6>
2.503756

>  <PEOE_VSA_FHYD>
0.84004319

>  <PEOE_VSA_FNEG>
0.50693411

>  <PEOE_VSA_FPNEG>
0.085362263

>  <PEOE_VSA_FPOL>
0.15995678

>  <PEOE_VSA_FPOS>
0.49306589

>  <PEOE_VSA_FPPOS>
0.074594527

>  <PEOE_VSA_HYD>
291.66122

>  <PEOE_VSA_NEG>
176.00645

>  <PEOE_VSA_PNEG>
29.637598

>  <PEOE_VSA_POL>
55.536659

>  <PEOE_VSA_POS>
171.19144

>  <PEOE_VSA_PPOS>
25.899061

>  <petitjean>
0.5

>  <petitjeanSC>
1

>  <Q_PC+>
0

>  <Q_PC->
0

>  <Q_RPC+>
0

>  <Q_RPC->
0

>  <Q_VSA_FHYD>
1

>  <Q_VSA_FNEG>
0

>  <Q_VSA_FPNEG>
0

>  <Q_VSA_FPOL>
0

>  <Q_VSA_FPOS>
1

>  <Q_VSA_FPPOS>
0

>  <Q_VSA_HYD>
347.19791

>  <Q_VSA_NEG>
0

>  <Q_VSA_PNEG>
0

>  <Q_VSA_POL>
0

>  <Q_VSA_POS>
347.19791

>  <Q_VSA_PPOS>
0

>  <radius>
4

>  <reactive>
0

>  <rings>
4

>  <RPC+>
0

>  <RPC->
0

>  <rsynth>
1

>  <SlogP>
3.5915999

>  <SlogP_VSA0>
3.1243138

>  <SlogP_VSA1>
13.641881

>  <SlogP_VSA2>
58.724319

>  <SlogP_VSA3>
18.439579

>  <SlogP_VSA4>
6.37115

>  <SlogP_VSA5>
38.140617

>  <SlogP_VSA6>
3.5006065

>  <SlogP_VSA7>
158.78867

>  <SlogP_VSA8>
0

>  <SlogP_VSA9>
75.231407

>  <SMR>
9.8755999

>  <SMR_VSA0>
58.724319

>  <SMR_VSA1>
3.1243138

>  <SMR_VSA2>
3.1243138

>  <SMR_VSA3>
15.115185

>  <SMR_VSA4>
2.7567475

>  <SMR_VSA5>
158.78867

>  <SMR_VSA6>
28.957146

>  <SMR_VSA7>
105.37185

>  <TPSA>
49.849998

>  <VAdjEq>
0.42228913

>  <VAdjMa>
5.8579812

>  <VDistEq>
2.800451

>  <VDistMa>
9.1939116

>  <vdw_area>
347.19791

>  <vdw_vol>
470.36414

>  <vsa_acc>
29.637598

>  <vsa_acid>
0

>  <vsa_base>
0

>  <vsa_don>
0

>  <vsa_hyd>
279.5607

>  <vsa_other>
25.899061

>  <vsa_pol>
29.637598

>  <Weight>
368.81998

>  <weinerPath>
1314

>  <weinerPol>
55

>  <zagreb>
146

$$$$