O1CC2=C(C=C3N(Cc4c3nc3c(cc(OC(=O)N5CCC(N6CCCCC6)CC5)cc3)c4CC)C2=O)[C@](O)(CC)C1=O
  MOE2013           2D

 43 49  0  0  1  0  0  0  0  0999 V2000
    0.0000    0.0000    0.0000 O   0  0  0  0  0  0  0  0  0  0  0  0
    0.7590   -1.2940    0.0000 C   0  0  0  0  0  0  0  0  0  0  0  0
    2.2590   -1.2840    0.0000 C   0  0  0  0  0  0  0  0  0  0  0  0
    3.0000    0.0200    0.0000 C   0  0  0  0  0  0  0  0  0  0  0  0
    4.5000    0.0300    0.0000 C   0  0  0  0  0  0  0  0  0  0  0  0
    5.2580   -1.2640    0.0000 C   0  0  0  0  0  0  0  0  0  0  0  0
    4.5170   -2.5680    0.0000 N   0  0  0  0  0  0  0  0  0  0  0  0
    5.5280   -3.6760    0.0000 C   0  0  0  0  0  0  0  0  0  0  0  0
    6.8940   -3.0570    0.0000 C   0  0  0  0  0  0  0  0  0  0  0  0
    6.7280   -1.5660    0.0000 C   0  0  0  0  0  0  0  0  0  0  0  0
    7.9350   -0.6770    0.0000 N   0  0  0  0  0  0  0  0  0  0  0  0
    9.3100   -1.2780    0.0000 C   0  0  0  0  0  0  0  0  0  0  0  0
    9.4760   -2.7680    0.0000 C   0  0  0  0  0  0  0  0  0  0  0  0
   10.8510   -3.3700    0.0000 C   0  0  0  0  0  0  0  0  0  0  0  0
   12.0580   -2.4800    0.0000 C   0  0  0  0  0  0  0  0  0  0  0  0
   13.4330   -3.0810    0.0000 O   0  0  0  0  0  0  0  0  0  0  0  0
   14.6400   -2.1910    0.0000 C   0  0  0  0  0  0  0  0  0  0  0  0
   14.4740   -0.7000    0.0000 O   0  0  0  0  0  0  0  0  0  0  0  0
   16.0150   -2.7920    0.0000 N   0  0  0  0  0  0  0  0  0  0  0  0
   16.1810   -4.2830    0.0000 C   0  0  0  0  0  0  0  0  0  0  0  0
   17.5560   -4.8840    0.0000 C   0  0  0  0  0  0  0  0  0  0  0  0
   18.7630   -3.9940    0.0000 C   0  0  0  0  0  0  0  0  0  0  0  0
   20.1380   -4.5950    0.0000 N   0  0  0  0  0  0  0  0  0  0  0  0
   20.3040   -6.0860    0.0000 C   0  0  0  0  0  0  0  0  0  0  0  0
   21.6790   -6.6870    0.0000 C   0  0  0  0  0  0  0  0  0  0  0  0
   22.8860   -5.7970    0.0000 C   0  0  0  0  0  0  0  0  0  0  0  0
   22.7200   -4.3070    0.0000 C   0  0  0  0  0  0  0  0  0  0  0  0
   21.3450   -3.7060    0.0000 C   0  0  0  0  0  0  0  0  0  0  0  0
   18.5970   -2.5040    0.0000 C   0  0  0  0  0  0  0  0  0  0  0  0
   17.2220   -1.9030    0.0000 C   0  0  0  0  0  0  0  0  0  0  0  0
   11.8920   -0.9890    0.0000 C   0  0  0  0  0  0  0  0  0  0  0  0
   10.5170   -0.3880    0.0000 C   0  0  0  0  0  0  0  0  0  0  0  0
    8.2690   -3.6580    0.0000 C   0  0  0  0  0  0  0  0  0  0  0  0
    8.4350   -5.1490    0.0000 C   0  0  0  0  0  0  0  0  0  0  0  0
    7.2280   -6.0390    0.0000 C   0  0  0  0  0  0  0  0  0  0  0  0
    3.0170   -2.5780    0.0000 C   0  0  0  0  0  0  0  0  0  0  0  0
    2.2760   -3.8820    0.0000 O   0  0  0  0  0  0  0  0  0  0  0  0
    2.2410    1.3140    0.0000 C   0  0  2  0  0  0  0  0  0  0  0  0
    2.2120    2.8140    0.0000 O   0  0  0  0  0  0  0  0  0  0  0  0
    3.5190    2.1010    0.0000 C   0  0  0  0  0  0  0  0  0  0  0  0
    3.4760    3.6000    0.0000 C   0  0  0  0  0  0  0  0  0  0  0  0
    0.7410    1.3040    0.0000 C   0  0  0  0  0  0  0  0  0  0  0  0
   -0.0170    2.5980    0.0000 O   0  0  0  0  0  0  0  0  0  0  0  0
  1  2  1  0  0  0  0
  1 42  1  0  0  0  0
  2  3  1  0  0  0  0
  3  4  2  0  0  0  0
  3 36  1  0  0  0  0
  4  5  1  0  0  0  0
  4 38  1  0  0  0  0
  5  6  2  0  0  0  0
  6  7  1  0  0  0  0
  6 10  1  0  0  0  0
  7  8  1  0  0  0  0
  7 36  1  0  0  0  0
  8  9  1  0  0  0  0
  9 10  1  0  0  0  0
  9 33  2  0  0  0  0
 10 11  2  0  0  0  0
 11 12  1  0  0  0  0
 12 13  1  0  0  0  0
 12 32  2  0  0  0  0
 13 14  2  0  0  0  0
 13 33  1  0  0  0  0
 14 15  1  0  0  0  0
 15 16  1  0  0  0  0
 15 31  2  0  0  0  0
 16 17  1  0  0  0  0
 17 18  2  0  0  0  0
 17 19  1  0  0  0  0
 19 20  1  0  0  0  0
 19 30  1  0  0  0  0
 20 21  1  0  0  0  0
 21 22  1  0  0  0  0
 22 23  1  0  0  0  0
 22 29  1  0  0  0  0
 23 24  1  0  0  0  0
 23 28  1  0  0  0  0
 24 25  1  0  0  0  0
 25 26  1  0  0  0  0
 26 27  1  0  0  0  0
 27 28  1  0  0  0  0
 29 30  1  0  0  0  0
 31 32  1  0  0  0  0
 33 34  1  0  0  0  0
 34 35  1  0  0  0  0
 36 37  2  0  0  0  0
 38 39  1  6  0  0  0
 38 40  1  1  0  0  0
 38 42  1  0  0  0  0
 40 41  1  0  0  0  0
 42 43  2  0  0  0  0
M  END
>  <Index>
566

>  <ID>
HT1124

>  <class>
0

>  <apol>
92.630135

>  <ast_fraglike>
0

>  <ast_fraglike_ext>
0

>  <ast_violation>
3

>  <ast_violation_ext>
4

>  <a_acc>
6

>  <a_acid>
0

>  <a_aro>
10

>  <a_base>
0

>  <a_count>
81

>  <a_don>
1

>  <a_donacc>
7

>  <a_heavy>
43

>  <a_hyd>
30

>  <a_IC>
124.13182

>  <a_ICM>
1.5324917

>  <a_nB>
0

>  <a_nBr>
0

>  <a_nC>
33

>  <a_nCl>
0

>  <a_nF>
0

>  <a_nH>
38

>  <a_nI>
0

>  <a_nN>
4

>  <a_nO>
6

>  <a_nP>
0

>  <a_nS>
0

>  <balabanJ>
0.98011893

>  <BCUT_PEOE_0>
-2.8458011

>  <BCUT_PEOE_1>
-0.51781106

>  <BCUT_PEOE_2>
0.52484447

>  <BCUT_PEOE_3>
2.7663057

>  <BCUT_SLOGP_0>
-2.8829539

>  <BCUT_SLOGP_1>
-0.43661931

>  <BCUT_SLOGP_2>
0.62616897

>  <BCUT_SLOGP_3>
2.7743406

>  <BCUT_SMR_0>
-2.5738766

>  <BCUT_SMR_1>
-0.28344366

>  <BCUT_SMR_2>
0.75500196

>  <BCUT_SMR_3>
3.0315032

>  <bpol>
55.507866

>  <b_1rotN>
5

>  <b_1rotR>
0.10204082

>  <b_ar>
11

>  <b_count>
87

>  <b_double>
5

>  <b_heavy>
49

>  <b_max1len>
5

>  <b_rotN>
6

>  <b_rotR>
0.12244898

>  <b_single>
71

>  <b_triple>
0

>  <chi0>
29.87974

>  <chi0v>
24.856449

>  <chi0v_C>
20.57914

>  <chi0_C>
22.026369

>  <chi1>
20.817049

>  <chi1v>
15.654706

>  <chi1v_C>
10.960308

>  <chi1_C>
12.669182

>  <chiral>
1

>  <chiral_u>
0

>  <density>
0.74840587

>  <diameter>
21

>  <FCharge>
0

>  <GCUT_PEOE_0>
-0.85705924

>  <GCUT_PEOE_1>
-0.43568859

>  <GCUT_PEOE_2>
-0.0088180955

>  <GCUT_PEOE_3>
3.0129511

>  <GCUT_SLOGP_0>
-0.97677052

>  <GCUT_SLOGP_1>
-0.33126062

>  <GCUT_SLOGP_2>
0.090919234

>  <GCUT_SLOGP_3>
3.0630016

>  <GCUT_SMR_0>
-0.52719271

>  <GCUT_SMR_1>
-0.19406612

>  <GCUT_SMR_2>
0.18222624

>  <GCUT_SMR_3>
3.2773969

>  <Kier1>
31.591837

>  <Kier2>
12.892987

>  <Kier3>
5.6560898

>  <KierA1>
25.146639

>  <KierA2>
10.203862

>  <KierA3>
4.4580951

>  <KierFlex>
5.9672751

>  <lip_acc>
10

>  <lip_don>
1

>  <lip_druglike>
1

>  <lip_violation>
1

>  <logP(o/w)>
4.3509998

>  <logS>
-6.6924901

>  <mr>
15.929282

>  <mutagenic>
0

>  <nmol>
1

>  <opr_brigid>
37

>  <opr_leadlike>
0

>  <opr_nring>
7

>  <opr_nrot>
8

>  <opr_violation>
3

>  <PC+>
0

>  <PC->
0

>  <PEOE_PC+>
3.3546824

>  <PEOE_PC->
-3.3546824

>  <PEOE_RPC+>
0.1097846

>  <PEOE_RPC->
0.11149598

>  <PEOE_VSA+0>
162.06096

>  <PEOE_VSA+1>
90.823875

>  <PEOE_VSA+2>
0

>  <PEOE_VSA+3>
0

>  <PEOE_VSA+4>
10.324173

>  <PEOE_VSA+5>
27.65803

>  <PEOE_VSA+6>
19.199511

>  <PEOE_VSA-0>
129.82068

>  <PEOE_VSA-1>
46.196667

>  <PEOE_VSA-2>
0

>  <PEOE_VSA-3>
0

>  <PEOE_VSA-4>
19.249496

>  <PEOE_VSA-5>
29.637598

>  <PEOE_VSA-6>
10.271297

>  <PEOE_VSA_FHYD>
0.78662676

>  <PEOE_VSA_FNEG>
0.43132338

>  <PEOE_VSA_FPNEG>
0.10849927

>  <PEOE_VSA_FPOL>
0.21337321

>  <PEOE_VSA_FPOS>
0.56867665

>  <PEOE_VSA_FPPOS>
0.10487395

>  <PEOE_VSA_HYD>
428.90219

>  <PEOE_VSA_NEG>
235.17575

>  <PEOE_VSA_PNEG>
59.15839

>  <PEOE_VSA_POL>
116.3401

>  <PEOE_VSA_POS>
310.06656

>  <PEOE_VSA_PPOS>
57.181713

>  <petitjean>
0.47619048

>  <petitjeanSC>
0.90909094

>  <Q_PC+>
0

>  <Q_PC->
0

>  <Q_RPC+>
0

>  <Q_RPC->
0

>  <Q_VSA_FHYD>
1

>  <Q_VSA_FNEG>
0

>  <Q_VSA_FPNEG>
0

>  <Q_VSA_FPOL>
0

>  <Q_VSA_FPOS>
1

>  <Q_VSA_FPPOS>
0

>  <Q_VSA_HYD>
545.24231

>  <Q_VSA_NEG>
0

>  <Q_VSA_PNEG>
0

>  <Q_VSA_POL>
0

>  <Q_VSA_POS>
545.24231

>  <Q_VSA_PPOS>
0

>  <radius>
11

>  <reactive>
1

>  <rings>
7

>  <RPC+>
0

>  <RPC->
0

>  <rsynth>
1

>  <SlogP>
4.2038698

>  <SlogP_VSA0>
36.385113

>  <SlogP_VSA1>
46.479355

>  <SlogP_VSA2>
62.706287

>  <SlogP_VSA3>
94.68457

>  <SlogP_VSA4>
9.1278973

>  <SlogP_VSA5>
25.239555

>  <SlogP_VSA6>
0

>  <SlogP_VSA7>
78.046585

>  <SlogP_VSA8>
113.21043

>  <SlogP_VSA9>
114.19725

>  <SMR>
15.91218

>  <SMR_VSA0>
82.58654

>  <SMR_VSA1>
62.543587

>  <SMR_VSA2>
0

>  <SMR_VSA3>
24.724443

>  <SMR_VSA4>
7.4738488

>  <SMR_VSA5>
221.09116

>  <SMR_VSA6>
115.00546

>  <SMR_VSA7>
66.652031

>  <TPSA>
112.51

>  <VAdjEq>
0.29901332

>  <VAdjMa>
6.6147099

>  <VDistEq>
4.1347694

>  <VDistMa>
10.527176

>  <vdw_area>
545.24231

>  <vdw_vol>
783.91821

>  <vsa_acc>
46.383339

>  <vsa_acid>
0

>  <vsa_base>
0

>  <vsa_don>
0

>  <vsa_hyd>
402.56577

>  <vsa_other>
51.865055

>  <vsa_pol>
59.95026

>  <Weight>
586.68896

>  <weinerPath>
7049

>  <weinerPol>
86

>  <zagreb>
246

$$$$