OC(=O)C(N)CC(=O)N
  MOE2013           2D

  9  8  0  0  1  0  0  0  0  0999 V2000
    0.0000    0.0000    0.0000 O   0  0  0  0  0  0  0  0  0  0  0  0
   -1.3010    0.7470    0.0000 C   0  0  0  0  0  0  0  0  0  0  0  0
   -1.3040    2.2470    0.0000 O   0  0  0  0  0  0  0  0  0  0  0  0
   -2.5980   -0.0050    0.0000 C   0  0  3  0  0  0  0  0  0  0  0  0
   -2.5950   -1.5050    0.0000 N   0  0  0  0  0  0  0  0  0  0  0  0
   -3.8990    0.7420    0.0000 C   0  0  0  0  0  0  0  0  0  0  0  0
   -5.1960   -0.0100    0.0000 C   0  0  0  0  0  0  0  0  0  0  0  0
   -6.4970    0.7370    0.0000 O   0  0  0  0  0  0  0  0  0  0  0  0
   -5.1930   -1.5100    0.0000 N   0  0  0  0  0  0  0  0  0  0  0  0
  1  2  1  0  0  0  0
  2  3  2  0  0  0  0
  2  4  1  0  0  0  0
  4  5  1  0  0  0  0
  4  6  1  0  0  0  0
  6  7  1  0  0  0  0
  7  8  2  0  0  0  0
  7  9  1  0  0  0  0
M  END
>  <Index>
595

>  <ID>
HT1174

>  <class>
0

>  <apol>
16.980345

>  <ast_fraglike>
0

>  <ast_fraglike_ext>
0

>  <ast_violation>
2

>  <ast_violation_ext>
3

>  <a_acc>
4

>  <a_acid>
0

>  <a_aro>
0

>  <a_base>
0

>  <a_count>
17

>  <a_don>
4

>  <a_donacc>
8

>  <a_heavy>
9

>  <a_hyd>
2

>  <a_IC>
30.731981

>  <a_ICM>
1.8077636

>  <a_nB>
0

>  <a_nBr>
0

>  <a_nC>
4

>  <a_nCl>
0

>  <a_nF>
0

>  <a_nH>
8

>  <a_nI>
0

>  <a_nN>
2

>  <a_nO>
3

>  <a_nP>
0

>  <a_nS>
0

>  <balabanJ>
3.41747

>  <BCUT_PEOE_0>
-2.4541376

>  <BCUT_PEOE_1>
-0.53684878

>  <BCUT_PEOE_2>
0.44779116

>  <BCUT_PEOE_3>
2.5317843

>  <BCUT_SLOGP_0>
-2.7481985

>  <BCUT_SLOGP_1>
-0.52383912

>  <BCUT_SLOGP_2>
0.38182291

>  <BCUT_SLOGP_3>
2.3604808

>  <BCUT_SMR_0>
-2.2223964

>  <BCUT_SMR_1>
-0.32670152

>  <BCUT_SMR_2>
0.60342729

>  <BCUT_SMR_3>
2.7521696

>  <bpol>
9.3416557

>  <b_1rotN>
3

>  <b_1rotR>
0.375

>  <b_ar>
0

>  <b_count>
16

>  <b_double>
2

>  <b_heavy>
8

>  <b_max1len>
4

>  <b_rotN>
3

>  <b_rotR>
0.375

>  <b_single>
14

>  <b_triple>
0

>  <chi0>
7.4391575

>  <chi0v>
4.702868

>  <chi0v_C>
2.284457

>  <chi0_C>
2.4391575

>  <chi1>
4.036581

>  <chi1v>
2.3043404

>  <chi1v_C>
1.0504768

>  <chi1_C>
1.1498299

>  <chiral>
1

>  <chiral_u>
1

>  <density>
0.87014651

>  <diameter>
5

>  <FCharge>
0

>  <GCUT_PEOE_0>
-0.82387125

>  <GCUT_PEOE_1>
-0.45731366

>  <GCUT_PEOE_2>
0.069614761

>  <GCUT_PEOE_3>
2.0453568

>  <GCUT_SLOGP_0>
-1.3741213

>  <GCUT_SLOGP_1>
-0.44485795

>  <GCUT_SLOGP_2>
0.054200001

>  <GCUT_SLOGP_3>
1.8886942

>  <GCUT_SMR_0>
-0.49509931

>  <GCUT_SMR_1>
-0.23761207

>  <GCUT_SMR_2>
0.20576394

>  <GCUT_SMR_3>
2.2596524

>  <Kier1>
9

>  <Kier2>
3.9200001

>  <Kier3>
4.5

>  <KierA1>
6.7219682

>  <KierA2>
2.8061726

>  <KierA3>
3.090023

>  <KierFlex>
2.0958893

>  <lip_acc>
5

>  <lip_don>
5

>  <lip_druglike>
1

>  <lip_violation>
0

>  <logP(o/w)>
-4.5397301

>  <logS>
0.56177998

>  <mr>
2.9714472

>  <mutagenic>
0

>  <nmol>
1

>  <opr_brigid>
0

>  <opr_leadlike>
1

>  <opr_nring>
0

>  <opr_nrot>
3

>  <opr_violation>
0

>  <PC+>
0

>  <PC->
0

>  <PEOE_PC+>
1.5556198

>  <PEOE_PC->
-1.5556198

>  <PEOE_RPC+>
0.17807782

>  <PEOE_RPC->
0.23770566

>  <PEOE_VSA+0>
8.5307722

>  <PEOE_VSA+1>
16.112659

>  <PEOE_VSA+2>
17.238026

>  <PEOE_VSA+3>
17.238026

>  <PEOE_VSA+4>
23.273705

>  <PEOE_VSA+5>
14.708499

>  <PEOE_VSA+6>
0

>  <PEOE_VSA-0>
0

>  <PEOE_VSA-1>
0

>  <PEOE_VSA-2>
0

>  <PEOE_VSA-3>
0

>  <PEOE_VSA-4>
0

>  <PEOE_VSA-5>
27.133842

>  <PEOE_VSA-6>
21.069778

>  <PEOE_VSA_FHYD>
0.4068639

>  <PEOE_VSA_FNEG>
0.33174026

>  <PEOE_VSA_FPNEG>
0.33174026

>  <PEOE_VSA_FPOL>
0.59313613

>  <PEOE_VSA_FPOS>
0.66825974

>  <PEOE_VSA_FPPOS>
0.26139584

>  <PEOE_VSA_HYD>
59.119484

>  <PEOE_VSA_NEG>
48.203621

>  <PEOE_VSA_PNEG>
48.203621

>  <PEOE_VSA_POL>
86.185822

>  <PEOE_VSA_POS>
97.101685

>  <PEOE_VSA_PPOS>
37.982204

>  <petitjean>
0.40000001

>  <petitjeanSC>
0.66666669

>  <Q_PC+>
0

>  <Q_PC->
0

>  <Q_RPC+>
0

>  <Q_RPC->
0

>  <Q_VSA_FHYD>
1

>  <Q_VSA_FNEG>
0

>  <Q_VSA_FPNEG>
0

>  <Q_VSA_FPOL>
0

>  <Q_VSA_FPOS>
1

>  <Q_VSA_FPPOS>
0

>  <Q_VSA_HYD>
145.30531

>  <Q_VSA_NEG>
0

>  <Q_VSA_PNEG>
0

>  <Q_VSA_POL>
0

>  <Q_VSA_POS>
145.30531

>  <Q_VSA_PPOS>
0

>  <radius>
3

>  <reactive>
0

>  <rings>
0

>  <RPC+>
0

>  <RPC->
0

>  <rsynth>
1

>  <SlogP>
-1.7263

>  <SlogP_VSA0>
65.794373

>  <SlogP_VSA1>
13.004248

>  <SlogP_VSA2>
51.706402

>  <SlogP_VSA3>
25.385227

>  <SlogP_VSA4>
0

>  <SlogP_VSA5>
0

>  <SlogP_VSA6>
0

>  <SlogP_VSA7>
0

>  <SlogP_VSA8>
18.868406

>  <SlogP_VSA9>
0

>  <SMR>
2.94226

>  <SMR_VSA0>
47.724434

>  <SMR_VSA1>
0

>  <SMR_VSA2>
25.385227

>  <SMR_VSA3>
3.9819686

>  <SMR_VSA4>
65.794373

>  <SMR_VSA5>
18.868406

>  <SMR_VSA6>
13.004248

>  <SMR_VSA7>
0

>  <TPSA>
106.41

>  <VAdjEq>
0.71696228

>  <VAdjMa>
4

>  <VDistEq>
2.2607846

>  <VDistMa>
5.9966536

>  <vdw_area>
145.30531

>  <vdw_vol>
151.83534

>  <vsa_acc>
13.566921

>  <vsa_acid>
0

>  <vsa_base>
0

>  <vsa_don>
17.742489

>  <vsa_hyd>
22.508045

>  <vsa_other>
27.65803

>  <vsa_pol>
76.185745

>  <Weight>
132.119

>  <weinerPath>
96

>  <weinerPol>
8

>  <zagreb>
36

$$$$