n1cc(N)c(N)cc1
  MOE2013           2D

  8  8  0  0  0  0  0  0  0  0999 V2000
    0.0000    0.0000    0.0000 N   0  0  0  0  0  0  0  0  0  0  0  0
   -1.2990    0.7500    0.0000 C   0  0  0  0  0  0  0  0  0  0  0  0
   -2.5980    0.0000    0.0000 C   0  0  0  0  0  0  0  0  0  0  0  0
   -3.8970    0.7500    0.0000 N   0  0  0  0  0  0  0  0  0  0  0  0
   -2.5980   -1.5000    0.0000 C   0  0  0  0  0  0  0  0  0  0  0  0
   -3.8970   -2.2500    0.0000 N   0  0  0  0  0  0  0  0  0  0  0  0
   -1.2990   -2.2500    0.0000 C   0  0  0  0  0  0  0  0  0  0  0  0
    0.0000   -1.5000    0.0000 C   0  0  0  0  0  0  0  0  0  0  0  0
  1  2  1  0  0  0  0
  1  8  2  0  0  0  0
  2  3  2  0  0  0  0
  3  4  1  0  0  0  0
  3  5  1  0  0  0  0
  5  6  1  0  0  0  0
  5  7  2  0  0  0  0
  7  8  1  0  0  0  0
M  END
>  <Index>
61

>  <ID>
HT0128

>  <class>
0

>  <apol>
16.767551

>  <ast_fraglike>
1

>  <ast_fraglike_ext>
1

>  <ast_violation>
0

>  <ast_violation_ext>
0

>  <a_acc>
1

>  <a_acid>
0

>  <a_aro>
6

>  <a_base>
0

>  <a_count>
15

>  <a_don>
2

>  <a_donacc>
3

>  <a_heavy>
8

>  <a_hyd>
5

>  <a_IC>
22.587347

>  <a_ICM>
1.5058231

>  <a_nB>
0

>  <a_nBr>
0

>  <a_nC>
5

>  <a_nCl>
0

>  <a_nF>
0

>  <a_nH>
7

>  <a_nI>
0

>  <a_nN>
3

>  <a_nO>
0

>  <a_nP>
0

>  <a_nS>
0

>  <balabanJ>
2.3570278

>  <BCUT_PEOE_0>
-2.2409711

>  <BCUT_PEOE_1>
-0.48845625

>  <BCUT_PEOE_2>
0.58320826

>  <BCUT_PEOE_3>
2.1534202

>  <BCUT_SLOGP_0>
-2.4007406

>  <BCUT_SLOGP_1>
-0.33545488

>  <BCUT_SLOGP_2>
0.71027148

>  <BCUT_SLOGP_3>
2.2912869

>  <BCUT_SMR_0>
-1.8832927

>  <BCUT_SMR_1>
-0.31006894

>  <BCUT_SMR_2>
0.75622863

>  <BCUT_SMR_3>
2.5047202

>  <bpol>
7.6524491

>  <b_1rotN>
0

>  <b_1rotR>
0

>  <b_ar>
6

>  <b_count>
15

>  <b_double>
0

>  <b_heavy>
8

>  <b_max1len>
2

>  <b_rotN>
0

>  <b_rotR>
0

>  <b_single>
9

>  <b_triple>
0

>  <chi0>
5.9831276

>  <chi0v>
4.3339648

>  <chi0v_C>
2.7320509

>  <chi0_C>
3.2760208

>  <chi1>
3.8045304

>  <chi1v>
2.2544317

>  <chi1v_C>
1.1606836

>  <chi1_C>
1.6498299

>  <chiral>
0

>  <chiral_u>
0

>  <density>
0.73175633

>  <diameter>
4

>  <FCharge>
0

>  <GCUT_PEOE_0>
-0.80797619

>  <GCUT_PEOE_1>
-0.36815789

>  <GCUT_PEOE_2>
0.059474159

>  <GCUT_PEOE_3>
1.917141

>  <GCUT_SLOGP_0>
-1.3351451

>  <GCUT_SLOGP_1>
-0.23633154

>  <GCUT_SLOGP_2>
0.2044784

>  <GCUT_SLOGP_3>
2.046448

>  <GCUT_SMR_0>
-0.40520632

>  <GCUT_SMR_1>
-0.16519694

>  <GCUT_SMR_2>
0.21028376

>  <GCUT_SMR_3>
2.23101

>  <Kier1>
6.125

>  <Kier2>
2.52

>  <Kier3>
1.4876033

>  <KierA1>
3.645036

>  <KierA2>
1.368055

>  <KierA3>
0.743424

>  <KierFlex>
0.62332624

>  <lip_acc>
3

>  <lip_don>
4

>  <lip_druglike>
1

>  <lip_violation>
0

>  <logP(o/w)>
-0.67299998

>  <logS>
0.43149999

>  <mr>
3.0939467

>  <mutagenic>
1

>  <nmol>
1

>  <opr_brigid>
6

>  <opr_leadlike>
1

>  <opr_nring>
1

>  <opr_nrot>
0

>  <opr_violation>
0

>  <PC+>
0

>  <PC->
0

>  <PEOE_PC+>
0.88678062

>  <PEOE_PC->
-0.88678062

>  <PEOE_RPC+>
0.13984117

>  <PEOE_RPC->
0.3393473

>  <PEOE_VSA+0>
46.890934

>  <PEOE_VSA+1>
12.796158

>  <PEOE_VSA+2>
34.476051

>  <PEOE_VSA+3>
0

>  <PEOE_VSA+4>
0

>  <PEOE_VSA+5>
0

>  <PEOE_VSA+6>
0

>  <PEOE_VSA-0>
12.254904

>  <PEOE_VSA-1>
0

>  <PEOE_VSA-2>
0

>  <PEOE_VSA-3>
0

>  <PEOE_VSA-4>
0

>  <PEOE_VSA-5>
12.333695

>  <PEOE_VSA-6>
6.6511192

>  <PEOE_VSA_FHYD>
0.84860939

>  <PEOE_VSA_FNEG>
0.24911489

>  <PEOE_VSA_FPNEG>
0.1513906

>  <PEOE_VSA_FPOL>
0.1513906

>  <PEOE_VSA_FPOS>
0.75088513

>  <PEOE_VSA_FPPOS>
0

>  <PEOE_VSA_HYD>
106.41805

>  <PEOE_VSA_NEG>
31.239719

>  <PEOE_VSA_PNEG>
18.984816

>  <PEOE_VSA_POL>
18.984816

>  <PEOE_VSA_POS>
94.163147

>  <PEOE_VSA_PPOS>
0

>  <petitjean>
0.25

>  <petitjeanSC>
0.33333334

>  <Q_PC+>
0

>  <Q_PC->
0

>  <Q_RPC+>
0

>  <Q_RPC->
0

>  <Q_VSA_FHYD>
1

>  <Q_VSA_FNEG>
0

>  <Q_VSA_FPNEG>
0

>  <Q_VSA_FPOL>
0

>  <Q_VSA_FPOS>
1

>  <Q_VSA_FPPOS>
0

>  <Q_VSA_HYD>
125.40286

>  <Q_VSA_NEG>
0

>  <Q_VSA_PNEG>
0

>  <Q_VSA_POL>
0

>  <Q_VSA_POS>
125.40286

>  <Q_VSA_PPOS>
0

>  <radius>
3

>  <reactive>
0

>  <rings>
1

>  <RPC+>
0

>  <RPC->
0

>  <rsynth>
1

>  <SlogP>
0.24600001

>  <SlogP_VSA0>
65.794373

>  <SlogP_VSA1>
16.78553

>  <SlogP_VSA2>
0

>  <SlogP_VSA3>
0

>  <SlogP_VSA4>
0

>  <SlogP_VSA5>
0

>  <SlogP_VSA6>
0

>  <SlogP_VSA7>
52.071899

>  <SlogP_VSA8>
0

>  <SlogP_VSA9>
5.513495

>  <SMR>
3.30618

>  <SMR_VSA0>
0

>  <SMR_VSA1>
16.78553

>  <SMR_VSA2>
0

>  <SMR_VSA3>
0

>  <SMR_VSA4>
5.513495

>  <SMR_VSA5>
117.86627

>  <SMR_VSA6>
0

>  <SMR_VSA7>
0

>  <TPSA>
64.93

>  <VAdjEq>
0.8112781

>  <VAdjMa>
4

>  <VDistEq>
1.8352377

>  <VDistMa>
5.6729054

>  <vdw_area>
125.40286

>  <vdw_vol>
149.13708

>  <vsa_acc>
5.6825762

>  <vsa_acid>
0

>  <vsa_base>
0

>  <vsa_don>
35.484978

>  <vsa_hyd>
69.80661

>  <vsa_other>
0

>  <vsa_pol>
41.167557

>  <Weight>
109.132

>  <weinerPath>
60

>  <weinerPol>
8

>  <zagreb>
36

$$$$