OC(=O)c1ccccc1Nc1cccc(C)c1C
  MOE2013           2D

 18 19  0  0  0  0  0  0  0  0999 V2000
    0.0000    0.0000    0.0000 O   0  0  0  0  0  0  0  0  0  0  0  0
    1.5000   -0.0110    0.0000 C   0  0  0  0  0  0  0  0  0  0  0  0
    2.2410   -1.3150    0.0000 O   0  0  0  0  0  0  0  0  0  0  0  0
    2.2590    1.2830    0.0000 C   0  0  0  0  0  0  0  0  0  0  0  0
    1.5180    2.5870    0.0000 C   0  0  0  0  0  0  0  0  0  0  0  0
    2.2770    3.8810    0.0000 C   0  0  0  0  0  0  0  0  0  0  0  0
    3.7770    3.8710    0.0000 C   0  0  0  0  0  0  0  0  0  0  0  0
    4.5180    2.5660    0.0000 C   0  0  0  0  0  0  0  0  0  0  0  0
    3.7590    1.2730    0.0000 C   0  0  0  0  0  0  0  0  0  0  0  0
    4.5000   -0.0320    0.0000 N   0  0  0  0  0  0  0  0  0  0  0  0
    6.0000   -0.0420    0.0000 C   0  0  0  0  0  0  0  0  0  0  0  0
    6.7590    1.2520    0.0000 C   0  0  0  0  0  0  0  0  0  0  0  0
    8.2590    1.2410    0.0000 C   0  0  0  0  0  0  0  0  0  0  0  0
    9.0000   -0.0630    0.0000 C   0  0  0  0  0  0  0  0  0  0  0  0
    8.2410   -1.3570    0.0000 C   0  0  0  0  0  0  0  0  0  0  0  0
    8.9820   -2.6610    0.0000 C   0  0  0  0  0  0  0  0  0  0  0  0
    6.7410   -1.3460    0.0000 C   0  0  0  0  0  0  0  0  0  0  0  0
    5.9820   -2.6400    0.0000 C   0  0  0  0  0  0  0  0  0  0  0  0
  1  2  1  0  0  0  0
  2  3  2  0  0  0  0
  2  4  1  0  0  0  0
  4  5  1  0  0  0  0
  4  9  2  0  0  0  0
  5  6  2  0  0  0  0
  6  7  1  0  0  0  0
  7  8  2  0  0  0  0
  8  9  1  0  0  0  0
  9 10  1  0  0  0  0
 10 11  1  0  0  0  0
 11 12  1  0  0  0  0
 11 17  2  0  0  0  0
 12 13  2  0  0  0  0
 13 14  1  0  0  0  0
 14 15  2  0  0  0  0
 15 16  1  0  0  0  0
 15 17  1  0  0  0  0
 17 18  1  0  0  0  0
M  END
>  <Index>
660

>  <ID>
HT1288

>  <class>
0

>  <apol>
39.105896

>  <ast_fraglike>
0

>  <ast_fraglike_ext>
0

>  <ast_violation>
1

>  <ast_violation_ext>
1

>  <a_acc>
2

>  <a_acid>
0

>  <a_aro>
12

>  <a_base>
0

>  <a_count>
33

>  <a_don>
3

>  <a_donacc>
5

>  <a_heavy>
18

>  <a_hyd>
14

>  <a_IC>
47.258289

>  <a_ICM>
1.4320693

>  <a_nB>
0

>  <a_nBr>
0

>  <a_nC>
15

>  <a_nCl>
0

>  <a_nF>
0

>  <a_nH>
15

>  <a_nI>
0

>  <a_nN>
1

>  <a_nO>
2

>  <a_nP>
0

>  <a_nS>
0

>  <balabanJ>
1.9478087

>  <BCUT_PEOE_0>
-2.3897905

>  <BCUT_PEOE_1>
-0.5568766

>  <BCUT_PEOE_2>
0.61932272

>  <BCUT_PEOE_3>
2.3280451

>  <BCUT_SLOGP_0>
-2.2605608

>  <BCUT_SLOGP_1>
-0.46267086

>  <BCUT_SLOGP_2>
0.70097727

>  <BCUT_SLOGP_3>
2.4934855

>  <BCUT_SMR_0>
-2.0740445

>  <BCUT_SMR_1>
-0.40948328

>  <BCUT_SMR_2>
0.75212729

>  <BCUT_SMR_3>
2.6592526

>  <bpol>
18.016106

>  <b_1rotN>
3

>  <b_1rotR>
0.15789473

>  <b_ar>
12

>  <b_count>
34

>  <b_double>
1

>  <b_heavy>
19

>  <b_max1len>
2

>  <b_rotN>
3

>  <b_rotR>
0.15789473

>  <b_single>
21

>  <b_triple>
0

>  <chi0>
13.120955

>  <chi0v>
10.396914

>  <chi0v_C>
9.0414515

>  <chi0_C>
10.413849

>  <chi1>
8.5922241

>  <chi1v>
5.7490983

>  <chi1v_C>
4.8213673

>  <chi1_C>
6.621027

>  <chiral>
0

>  <chiral_u>
0

>  <density>
0.70322436

>  <diameter>
8

>  <FCharge>
0

>  <GCUT_PEOE_0>
-0.80034816

>  <GCUT_PEOE_1>
-0.38892499

>  <GCUT_PEOE_2>
0.084589183

>  <GCUT_PEOE_3>
2.4159279

>  <GCUT_SLOGP_0>
-0.89564574

>  <GCUT_SLOGP_1>
-0.26499164

>  <GCUT_SLOGP_2>
0.16421796

>  <GCUT_SLOGP_3>
2.5714796

>  <GCUT_SMR_0>
-0.47902337

>  <GCUT_SMR_1>
-0.2015727

>  <GCUT_SMR_2>
0.19237874

>  <GCUT_SMR_3>
2.7252603

>  <Kier1>
14.409972

>  <Kier2>
6.43787

>  <Kier3>
3.5261707

>  <KierA1>
9.9138269

>  <KierA2>
4.3218322

>  <KierA3>
2.324368

>  <KierFlex>
2.3803275

>  <lip_acc>
3

>  <lip_don>
2

>  <lip_druglike>
1

>  <lip_violation>
0

>  <logP(o/w)>
3.5550001

>  <logS>
-3.60899

>  <mr>
7.1810098

>  <mutagenic>
0

>  <nmol>
1

>  <opr_brigid>
12

>  <opr_leadlike>
1

>  <opr_nring>
2

>  <opr_nrot>
3

>  <opr_violation>
0

>  <PC+>
0

>  <PC->
0

>  <PEOE_PC+>
1.3705574

>  <PEOE_PC->
-1.3705574

>  <PEOE_RPC+>
0.21360832

>  <PEOE_RPC->
0.23891826

>  <PEOE_VSA+0>
38.991417

>  <PEOE_VSA+1>
32.066242

>  <PEOE_VSA+2>
8.6190128

>  <PEOE_VSA+3>
0

>  <PEOE_VSA+4>
10.324173

>  <PEOE_VSA+5>
14.708499

>  <PEOE_VSA+6>
0

>  <PEOE_VSA-0>
78.677147

>  <PEOE_VSA-1>
49.019615

>  <PEOE_VSA-2>
0

>  <PEOE_VSA-3>
0

>  <PEOE_VSA-4>
0

>  <PEOE_VSA-5>
13.703812

>  <PEOE_VSA-6>
7.7675405

>  <PEOE_VSA_FHYD>
0.81682491

>  <PEOE_VSA_FNEG>
0.58755952

>  <PEOE_VSA_FPNEG>
0.084573686

>  <PEOE_VSA_FPOL>
0.18317509

>  <PEOE_VSA_FPOS>
0.41244051

>  <PEOE_VSA_FPPOS>
0.098601393

>  <PEOE_VSA_HYD>
207.37343

>  <PEOE_VSA_NEG>
149.16812

>  <PEOE_VSA_PNEG>
21.471352

>  <PEOE_VSA_POL>
46.504025

>  <PEOE_VSA_POS>
104.70934

>  <PEOE_VSA_PPOS>
25.032671

>  <petitjean>
0.5

>  <petitjeanSC>
1

>  <Q_PC+>
0

>  <Q_PC->
0

>  <Q_RPC+>
0

>  <Q_RPC->
0

>  <Q_VSA_FHYD>
1

>  <Q_VSA_FNEG>
0

>  <Q_VSA_FPNEG>
0

>  <Q_VSA_FPOL>
0

>  <Q_VSA_FPOS>
1

>  <Q_VSA_FPPOS>
0

>  <Q_VSA_HYD>
253.87746

>  <Q_VSA_NEG>
0

>  <Q_VSA_PNEG>
0

>  <Q_VSA_POL>
0

>  <Q_VSA_POS>
253.87746

>  <Q_VSA_PPOS>
0

>  <radius>
4

>  <reactive>
0

>  <rings>
2

>  <RPC+>
0

>  <RPC->
0

>  <rsynth>
1

>  <SlogP>
3.74524

>  <SlogP_VSA0>
0

>  <SlogP_VSA1>
25.756214

>  <SlogP_VSA2>
0

>  <SlogP_VSA3>
25.385227

>  <SlogP_VSA4>
33.418941

>  <SlogP_VSA5>
0

>  <SlogP_VSA6>
0

>  <SlogP_VSA7>
123.50229

>  <SlogP_VSA8>
0

>  <SlogP_VSA9>
72.165527

>  <SMR>
7.2600002

>  <SMR_VSA0>
23.862217

>  <SMR_VSA1>
0

>  <SMR_VSA2>
25.385227

>  <SMR_VSA3>
9.5567245

>  <SMR_VSA4>
23.524246

>  <SMR_VSA5>
123.50229

>  <SMR_VSA6>
7.7454643

>  <SMR_VSA7>
66.652031

>  <TPSA>
49.330002

>  <VAdjEq>
0.52150291

>  <VAdjMa>
5.2479277

>  <VDistEq>
2.9113362

>  <VDistMa>
8.0568371

>  <vdw_area>
253.87746

>  <vdw_vol>
343.11951

>  <vsa_acc>
0

>  <vsa_acid>
0

>  <vsa_base>
0

>  <vsa_don>
5.6825762

>  <vsa_hyd>
189.50108

>  <vsa_other>
14.708499

>  <vsa_pol>
32.816418

>  <Weight>
241.28999

>  <weinerPath>
602

>  <weinerPol>
27

>  <zagreb>
90

$$$$