Oc1cc(ccc1O)C[C@](N)(C(O)=O)C
  MOE2013           2D

 15 15  0  0  1  0  0  0  0  0999 V2000
    0.0000    0.0000    0.0000 O   0  0  0  0  0  0  0  0  0  0  0  0
    1.3050    0.7400    0.0000 C   0  0  0  0  0  0  0  0  0  0  0  0
    2.5980   -0.0200    0.0000 C   0  0  0  0  0  0  0  0  0  0  0  0
    3.9030    0.7200    0.0000 C   0  0  0  0  0  0  0  0  0  0  0  0
    3.9140    2.2200    0.0000 C   0  0  0  0  0  0  0  0  0  0  0  0
    2.6210    2.9800    0.0000 C   0  0  0  0  0  0  0  0  0  0  0  0
    1.3160    2.2400    0.0000 C   0  0  0  0  0  0  0  0  0  0  0  0
    0.0230    3.0000    0.0000 O   0  0  0  0  0  0  0  0  0  0  0  0
    5.1960   -0.0400    0.0000 C   0  0  0  0  0  0  0  0  0  0  0  0
    6.5010    0.7000    0.0000 C   0  0  2  0  0  0  0  0  0  0  0  0
    7.2410   -0.6050    0.0000 N   0  0  0  0  0  0  0  0  0  0  0  0
    7.8060    1.4400    0.0000 C   0  0  0  0  0  0  0  0  0  0  0  0
    7.8170    2.9400    0.0000 O   0  0  0  0  0  0  0  0  0  0  0  0
    9.0990    0.6800    0.0000 O   0  0  0  0  0  0  0  0  0  0  0  0
    5.7610    2.0050    0.0000 C   0  0  0  0  0  0  0  0  0  0  0  0
  1  2  1  0  0  0  0
  2  3  2  0  0  0  0
  2  7  1  0  0  0  0
  3  4  1  0  0  0  0
  4  5  2  0  0  0  0
  4  9  1  0  0  0  0
  5  6  1  0  0  0  0
  6  7  2  0  0  0  0
  7  8  1  0  0  0  0
 10  9  1  1  0  0  0
 10 11  1  6  0  0  0
 10 12  1  0  0  0  0
 10 15  1  0  0  0  0
 12 13  1  0  0  0  0
 12 14  2  0  0  0  0
M  END
>  <Index>
694

>  <ID>
HT1361

>  <class>
0

>  <apol>
30.576309

>  <ast_fraglike>
0

>  <ast_fraglike_ext>
0

>  <ast_violation>
2

>  <ast_violation_ext>
3

>  <a_acc>
5

>  <a_acid>
0

>  <a_aro>
6

>  <a_base>
0

>  <a_count>
28

>  <a_don>
5

>  <a_donacc>
10

>  <a_heavy>
15

>  <a_hyd>
9

>  <a_IC>
45.280941

>  <a_ICM>
1.6171764

>  <a_nB>
0

>  <a_nBr>
0

>  <a_nC>
10

>  <a_nCl>
0

>  <a_nF>
0

>  <a_nH>
13

>  <a_nI>
0

>  <a_nN>
1

>  <a_nO>
4

>  <a_nP>
0

>  <a_nS>
0

>  <balabanJ>
2.4803779

>  <BCUT_PEOE_0>
-2.5710919

>  <BCUT_PEOE_1>
-0.61580402

>  <BCUT_PEOE_2>
0.66611087

>  <BCUT_PEOE_3>
2.6001499

>  <BCUT_SLOGP_0>
-2.7890465

>  <BCUT_SLOGP_1>
-0.6255157

>  <BCUT_SLOGP_2>
0.60816932

>  <BCUT_SLOGP_3>
2.5283949

>  <BCUT_SMR_0>
-2.3271534

>  <BCUT_SMR_1>
-0.43065622

>  <BCUT_SMR_2>
0.777978

>  <BCUT_SMR_3>
2.8387053

>  <bpol>
14.509691

>  <b_1rotN>
3

>  <b_1rotR>
0.2

>  <b_ar>
6

>  <b_count>
28

>  <b_double>
1

>  <b_heavy>
15

>  <b_max1len>
4

>  <b_rotN>
3

>  <b_rotR>
0.2

>  <b_single>
21

>  <b_triple>
0

>  <chi0>
11.637828

>  <chi0v>
8.2663965

>  <chi0v_C>
5.9391575

>  <chi0_C>
6.6378284

>  <chi1>
6.8262043

>  <chi1v>
4.3587604

>  <chi1v_C>
3.1951406

>  <chi1_C>
4.0168033

>  <chiral>
1

>  <chiral_u>
0

>  <density>
0.78811288

>  <diameter>
8

>  <FCharge>
0

>  <GCUT_PEOE_0>
-0.80973303

>  <GCUT_PEOE_1>
-0.48029286

>  <GCUT_PEOE_2>
0.18119456

>  <GCUT_PEOE_3>
2.4017119

>  <GCUT_SLOGP_0>
-1.3634696

>  <GCUT_SLOGP_1>
-0.32238689

>  <GCUT_SLOGP_2>
0.12397403

>  <GCUT_SLOGP_3>
2.4546092

>  <GCUT_SMR_0>
-0.50851089

>  <GCUT_SMR_1>
-0.25235981

>  <GCUT_SMR_2>
0.27391174

>  <GCUT_SMR_3>
2.6519229

>  <Kier1>
13.066667

>  <Kier2>
4.8884296

>  <Kier3>
3.5

>  <KierA1>
10.32718

>  <KierA2>
3.7928848

>  <KierA3>
2.674763

>  <KierFlex>
2.6113203

>  <lip_acc>
5

>  <lip_don>
5

>  <lip_druglike>
1

>  <lip_violation>
0

>  <logP(o/w)>
-1.69673

>  <logS>
-0.71042001

>  <mr>
5.3683043

>  <mutagenic>
0

>  <nmol>
1

>  <opr_brigid>
6

>  <opr_leadlike>
1

>  <opr_nring>
1

>  <opr_nrot>
3

>  <opr_violation>
0

>  <PC+>
0

>  <PC->
0

>  <PEOE_PC+>
1.8158267

>  <PEOE_PC->
-1.8158267

>  <PEOE_RPC+>
0.15406665

>  <PEOE_RPC->
0.19675589

>  <PEOE_VSA+0>
21.326929

>  <PEOE_VSA+1>
12.796158

>  <PEOE_VSA+2>
34.155064

>  <PEOE_VSA+3>
0

>  <PEOE_VSA+4>
30.972517

>  <PEOE_VSA+5>
14.708499

>  <PEOE_VSA+6>
0

>  <PEOE_VSA-0>
54.167339

>  <PEOE_VSA-1>
12.254904

>  <PEOE_VSA-2>
0

>  <PEOE_VSA-3>
0

>  <PEOE_VSA-4>
0

>  <PEOE_VSA-5>
13.566921

>  <PEOE_VSA-6>
29.953741

>  <PEOE_VSA_FHYD>
0.60160404

>  <PEOE_VSA_FNEG>
0.4910312

>  <PEOE_VSA_FPNEG>
0.19437364

>  <PEOE_VSA_FPOL>
0.39839596

>  <PEOE_VSA_FPOS>
0.50896883

>  <PEOE_VSA_FPPOS>
0.2040223

>  <PEOE_VSA_HYD>
134.70039

>  <PEOE_VSA_NEG>
109.9429

>  <PEOE_VSA_PNEG>
43.52066

>  <PEOE_VSA_POL>
89.201675

>  <PEOE_VSA_POS>
113.95917

>  <PEOE_VSA_PPOS>
45.681019

>  <petitjean>
0.5

>  <petitjeanSC>
1

>  <Q_PC+>
0

>  <Q_PC->
0

>  <Q_RPC+>
0

>  <Q_RPC->
0

>  <Q_VSA_FHYD>
1

>  <Q_VSA_FNEG>
0

>  <Q_VSA_FPNEG>
0

>  <Q_VSA_FPOL>
0

>  <Q_VSA_FPOS>
1

>  <Q_VSA_FPPOS>
0

>  <Q_VSA_HYD>
223.90207

>  <Q_VSA_NEG>
0

>  <Q_VSA_PNEG>
0

>  <Q_VSA_POL>
0

>  <Q_VSA_POS>
223.90207

>  <Q_VSA_PPOS>
0

>  <radius>
4

>  <reactive>
0

>  <rings>
1

>  <RPC+>
0

>  <RPC->
0

>  <rsynth>
0

>  <SlogP>
0.44227001

>  <SlogP_VSA0>
83.667641

>  <SlogP_VSA1>
7.7454643

>  <SlogP_VSA2>
23.862217

>  <SlogP_VSA3>
25.385227

>  <SlogP_VSA4>
3.185575

>  <SlogP_VSA5>
18.868406

>  <SlogP_VSA6>
0

>  <SlogP_VSA7>
52.929554

>  <SlogP_VSA8>
0

>  <SlogP_VSA9>
43.81287

>  <SMR>
5.3703799

>  <SMR_VSA0>
23.862217

>  <SMR_VSA1>
50.770454

>  <SMR_VSA2>
25.385227

>  <SMR_VSA3>
13.672431

>  <SMR_VSA4>
32.897186

>  <SMR_VSA5>
71.797958

>  <SMR_VSA6>
7.7454643

>  <SMR_VSA7>
33.326015

>  <TPSA>
103.78

>  <VAdjEq>
0.56650949

>  <VAdjMa>
4.9068904

>  <VDistEq>
2.8088794

>  <VDistMa>
7.5069323

>  <vdw_area>
223.90207

>  <vdw_vol>
268.00348

>  <vsa_acc>
0

>  <vsa_acid>
0

>  <vsa_base>
0

>  <vsa_don>
0

>  <vsa_hyd>
111.76801

>  <vsa_other>
14.708499

>  <vsa_pol>
72.01017

>  <Weight>
211.217

>  <weinerPath>
374

>  <weinerPol>
21

>  <zagreb>
74

$$$$