O(C)c1ccc(OC)cc1C(O)C(N)C
  MOE2013           2D

 15 15  0  0  1  0  0  0  0  0999 V2000
    0.0000    0.0000    0.0000 O   0  0  0  0  0  0  0  0  0  0  0  0
    0.7430    1.3030    0.0000 C   0  0  0  0  0  0  0  0  0  0  0  0
    0.7570   -1.2950    0.0000 C   0  0  0  0  0  0  0  0  0  0  0  0
    2.2570   -1.2860    0.0000 C   0  0  0  0  0  0  0  0  0  0  0  0
    3.0150   -2.5810    0.0000 C   0  0  0  0  0  0  0  0  0  0  0  0
    2.2720   -3.8840    0.0000 C   0  0  0  0  0  0  0  0  0  0  0  0
    3.0290   -5.1790    0.0000 O   0  0  0  0  0  0  0  0  0  0  0  0
    4.5290   -5.1710    0.0000 C   0  0  0  0  0  0  0  0  0  0  0  0
    0.7720   -3.8930    0.0000 C   0  0  0  0  0  0  0  0  0  0  0  0
    0.0150   -2.5980    0.0000 C   0  0  0  0  0  0  0  0  0  0  0  0
   -1.4850   -2.6070    0.0000 C   0  0  3  0  0  0  0  0  0  0  0  0
   -2.2430   -1.3120    0.0000 O   0  0  0  0  0  0  0  0  0  0  0  0
   -2.2280   -3.9100    0.0000 C   0  0  3  0  0  0  0  0  0  0  0  0
   -1.4710   -5.2050    0.0000 N   0  0  0  0  0  0  0  0  0  0  0  0
   -3.7280   -3.9180    0.0000 C   0  0  0  0  0  0  0  0  0  0  0  0
  1  2  1  0  0  0  0
  1  3  1  0  0  0  0
  3  4  1  0  0  0  0
  3 10  2  0  0  0  0
  4  5  2  0  0  0  0
  5  6  1  0  0  0  0
  6  7  1  0  0  0  0
  6  9  2  0  0  0  0
  7  8  1  0  0  0  0
  9 10  1  0  0  0  0
 10 11  1  0  0  0  0
 11 12  1  0  0  0  0
 11 13  1  0  0  0  0
 13 14  1  0  0  0  0
 13 15  1  0  0  0  0
M  END
>  <Index>
689

>  <ID>
HT1349

>  <class>
0

>  <apol>
34.201481

>  <ast_fraglike>
0

>  <ast_fraglike_ext>
0

>  <ast_violation>
1

>  <ast_violation_ext>
2

>  <a_acc>
4

>  <a_acid>
0

>  <a_aro>
6

>  <a_base>
0

>  <a_count>
32

>  <a_don>
2

>  <a_donacc>
6

>  <a_heavy>
15

>  <a_hyd>
11

>  <a_IC>
47.704498

>  <a_ICM>
1.4907656

>  <a_nB>
0

>  <a_nBr>
0

>  <a_nC>
11

>  <a_nCl>
0

>  <a_nF>
0

>  <a_nH>
17

>  <a_nI>
0

>  <a_nN>
1

>  <a_nO>
3

>  <a_nP>
0

>  <a_nS>
0

>  <balabanJ>
2.6375401

>  <BCUT_PEOE_0>
-2.577419

>  <BCUT_PEOE_1>
-0.53087717

>  <BCUT_PEOE_2>
0.52474123

>  <BCUT_PEOE_3>
2.5536683

>  <BCUT_SLOGP_0>
-2.7133665

>  <BCUT_SLOGP_1>
-0.49601769

>  <BCUT_SLOGP_2>
0.57671332

>  <BCUT_SLOGP_3>
2.5849876

>  <BCUT_SMR_0>
-2.3246307

>  <BCUT_SMR_1>
-0.37137607

>  <BCUT_SMR_2>
0.69448495

>  <BCUT_SMR_3>
2.8000765

>  <bpol>
21.756519

>  <b_1rotN>
4

>  <b_1rotR>
0.26666668

>  <b_ar>
6

>  <b_count>
32

>  <b_double>
0

>  <b_heavy>
15

>  <b_max1len>
5

>  <b_rotN>
4

>  <b_rotR>
0.26666668

>  <b_single>
26

>  <b_triple>
0

>  <chi0>
11.422285

>  <chi0v>
9.2278118

>  <chi0v_C>
7.3867512

>  <chi0_C>
8.0080719

>  <chi1>
7.0957541

>  <chi1v>
4.7536697

>  <chi1v_C>
2.9373927

>  <chi1_C>
3.7103434

>  <chiral>
2

>  <chiral_u>
2

>  <density>
0.71484935

>  <diameter>
7

>  <FCharge>
0

>  <GCUT_PEOE_0>
-0.82991499

>  <GCUT_PEOE_1>
-0.38826355

>  <GCUT_PEOE_2>
-0.0037161876

>  <GCUT_PEOE_3>
2.4294412

>  <GCUT_SLOGP_0>
-1.3634292

>  <GCUT_SLOGP_1>
-0.32008365

>  <GCUT_SLOGP_2>
0.092890315

>  <GCUT_SLOGP_3>
2.5329864

>  <GCUT_SMR_0>
-0.51864755

>  <GCUT_SMR_1>
-0.20613976

>  <GCUT_SMR_2>
0.13183671

>  <GCUT_SMR_3>
2.6846268

>  <Kier1>
13.066667

>  <Kier2>
5.915

>  <Kier3>
3.2256

>  <KierA1>
11.045362

>  <KierA2>
4.9353037

>  <KierA3>
2.6627915

>  <KierFlex>
3.6341479

>  <lip_acc>
4

>  <lip_don>
3

>  <lip_druglike>
1

>  <lip_violation>
0

>  <logP(o/w)>
0.99800003

>  <logS>
-1.2752301

>  <mr>
5.8500795

>  <mutagenic>
0

>  <nmol>
1

>  <opr_brigid>
6

>  <opr_leadlike>
1

>  <opr_nring>
1

>  <opr_nrot>
4

>  <opr_violation>
0

>  <PC+>
0

>  <PC->
0

>  <PEOE_PC+>
1.5349463

>  <PEOE_PC->
-1.5349463

>  <PEOE_RPC+>
0.1370084

>  <PEOE_RPC->
0.25118884

>  <PEOE_VSA+0>
72.411362

>  <PEOE_VSA+1>
64.47583

>  <PEOE_VSA+2>
17.238026

>  <PEOE_VSA+3>
0

>  <PEOE_VSA+4>
10.324173

>  <PEOE_VSA+5>
0

>  <PEOE_VSA+6>
0

>  <PEOE_VSA-0>
55.51239

>  <PEOE_VSA-1>
0

>  <PEOE_VSA-2>
0

>  <PEOE_VSA-3>
0

>  <PEOE_VSA-4>
0

>  <PEOE_VSA-5>
0

>  <PEOE_VSA-6>
19.426172

>  <PEOE_VSA_FHYD>
0.8757233

>  <PEOE_VSA_FNEG>
0.31304234

>  <PEOE_VSA_FPNEG>
0.081149332

>  <PEOE_VSA_FPOL>
0.12427671

>  <PEOE_VSA_FPOS>
0.68695766

>  <PEOE_VSA_FPPOS>
0.043127369

>  <PEOE_VSA_HYD>
209.6376

>  <PEOE_VSA_NEG>
74.93856

>  <PEOE_VSA_PNEG>
19.426172

>  <PEOE_VSA_POL>
29.750345

>  <PEOE_VSA_POS>
164.44939

>  <PEOE_VSA_PPOS>
10.324173

>  <petitjean>
0.42857143

>  <petitjeanSC>
0.75

>  <Q_PC+>
0

>  <Q_PC->
0

>  <Q_RPC+>
0

>  <Q_RPC->
0

>  <Q_VSA_FHYD>
1

>  <Q_VSA_FNEG>
0

>  <Q_VSA_FPNEG>
0

>  <Q_VSA_FPOL>
0

>  <Q_VSA_FPOS>
1

>  <Q_VSA_FPPOS>
0

>  <Q_VSA_HYD>
239.38794

>  <Q_VSA_NEG>
0

>  <Q_VSA_PNEG>
0

>  <Q_VSA_POL>
0

>  <Q_VSA_POS>
239.38794

>  <Q_VSA_PPOS>
0

>  <radius>
4

>  <reactive>
0

>  <rings>
1

>  <RPC+>
0

>  <RPC->
0

>  <rsynth>
0.26666668

>  <SlogP>
1.1799001

>  <SlogP_VSA0>
80.282188

>  <SlogP_VSA1>
0

>  <SlogP_VSA2>
3.9819686

>  <SlogP_VSA3>
0

>  <SlogP_VSA4>
3.185575

>  <SlogP_VSA5>
70.767738

>  <SlogP_VSA6>
0

>  <SlogP_VSA7>
52.929554

>  <SlogP_VSA8>
6.4686494

>  <SlogP_VSA9>
43.81287

>  <SMR>
5.8266201

>  <SMR_VSA0>
0

>  <SMR_VSA1>
47.385002

>  <SMR_VSA2>
0

>  <SMR_VSA3>
24.123049

>  <SMR_VSA4>
32.897186

>  <SMR_VSA5>
52.929554

>  <SMR_VSA6>
0

>  <SMR_VSA7>
104.09375

>  <TPSA>
64.709999

>  <VAdjEq>
0.56650949

>  <VAdjMa>
4.9068904

>  <VDistEq>
2.6586816

>  <VDistMa>
7.5385251

>  <vdw_area>
239.38794

>  <vdw_vol>
295.53217

>  <vsa_acc>
5.0075121

>  <vsa_acid>
0

>  <vsa_base>
0

>  <vsa_don>
0

>  <vsa_hyd>
182.43445

>  <vsa_other>
0

>  <vsa_pol>
36.316921

>  <Weight>
211.261

>  <weinerPath>
358

>  <weinerPol>
22

>  <zagreb>
70

$$$$