O=C1c2c(cccc2)C(=O)C=C1C
  MOE2013           2D

 13 14  0  0  0  0  0  0  0  0999 V2000
    0.0000    0.0000    0.0000 O   0  0  0  0  0  0  0  0  0  0  0  0
   -0.7450   -1.3020    0.0000 C   0  0  0  0  0  0  0  0  0  0  0  0
   -2.2450   -1.3080    0.0000 C   0  0  0  0  0  0  0  0  0  0  0  0
   -2.9890   -2.6100    0.0000 C   0  0  0  0  0  0  0  0  0  0  0  0
   -4.4890   -2.6170    0.0000 C   0  0  0  0  0  0  0  0  0  0  0  0
   -5.2450   -1.3210    0.0000 C   0  0  0  0  0  0  0  0  0  0  0  0
   -4.5000   -0.0190    0.0000 C   0  0  0  0  0  0  0  0  0  0  0  0
   -3.0000   -0.0120    0.0000 C   0  0  0  0  0  0  0  0  0  0  0  0
   -2.2340   -3.9060    0.0000 C   0  0  0  0  0  0  0  0  0  0  0  0
   -2.9780   -5.2090    0.0000 O   0  0  0  0  0  0  0  0  0  0  0  0
   -0.7340   -3.9000    0.0000 C   0  0  0  0  0  0  0  0  0  0  0  0
    0.0110   -2.5980    0.0000 C   0  0  0  0  0  0  0  0  0  0  0  0
    1.5110   -2.5920    0.0000 C   0  0  0  0  0  0  0  0  0  0  0  0
  1  2  2  0  0  0  0
  2  3  1  0  0  0  0
  2 12  1  0  0  0  0
  3  4  1  0  0  0  0
  3  8  2  0  0  0  0
  4  5  2  0  0  0  0
  4  9  1  0  0  0  0
  5  6  1  0  0  0  0
  6  7  2  0  0  0  0
  7  8  1  0  0  0  0
  9 10  2  0  0  0  0
  9 11  1  0  0  0  0
 11 12  2  0  0  0  0
 12 13  1  0  0  0  0
M  END
>  <Index>
668

>  <ID>
HT1299

>  <class>
0

>  <apol>
26.298344

>  <ast_fraglike>
1

>  <ast_fraglike_ext>
1

>  <ast_violation>
0

>  <ast_violation_ext>
0

>  <a_acc>
2

>  <a_acid>
0

>  <a_aro>
6

>  <a_base>
0

>  <a_count>
21

>  <a_don>
0

>  <a_donacc>
2

>  <a_heavy>
13

>  <a_hyd>
9

>  <a_IC>
28.184917

>  <a_ICM>
1.342139

>  <a_nB>
0

>  <a_nBr>
0

>  <a_nC>
11

>  <a_nCl>
0

>  <a_nF>
0

>  <a_nH>
8

>  <a_nI>
0

>  <a_nN>
0

>  <a_nO>
2

>  <a_nP>
0

>  <a_nS>
0

>  <balabanJ>
2.1339419

>  <BCUT_PEOE_0>
-2.3076305

>  <BCUT_PEOE_1>
-0.57194775

>  <BCUT_PEOE_2>
0.61688763

>  <BCUT_PEOE_3>
2.3660643

>  <BCUT_SLOGP_0>
-2.2841961

>  <BCUT_SLOGP_1>
-0.46908891

>  <BCUT_SLOGP_2>
0.70390201

>  <BCUT_SLOGP_3>
2.4101591

>  <BCUT_SMR_0>
-2.0179975

>  <BCUT_SMR_1>
-0.41848809

>  <BCUT_SMR_2>
0.76782793

>  <BCUT_SMR_3>
2.6737003

>  <bpol>
10.661656

>  <b_1rotN>
0

>  <b_1rotR>
0

>  <b_ar>
6

>  <b_count>
22

>  <b_double>
3

>  <b_heavy>
14

>  <b_max1len>
2

>  <b_rotN>
0

>  <b_rotR>
0

>  <b_single>
13

>  <b_triple>
0

>  <chi0>
9.4222851

>  <chi0v>
7.203248

>  <chi0v_C>
6.3867512

>  <chi0_C>
7.4222851

>  <chi1>
6.1983771

>  <chi1v>
4.0629487

>  <chi1v_C>
3.6547005

>  <chi1_C>
5.0436769

>  <chiral>
0

>  <chiral_u>
0

>  <density>
0.7371614

>  <diameter>
6

>  <FCharge>
0

>  <GCUT_PEOE_0>
-0.74295598

>  <GCUT_PEOE_1>
-0.4019984

>  <GCUT_PEOE_2>
0.068347484

>  <GCUT_PEOE_3>
2.2531574

>  <GCUT_SLOGP_0>
-0.78861105

>  <GCUT_SLOGP_1>
-0.26357368

>  <GCUT_SLOGP_2>
0.14981909

>  <GCUT_SLOGP_3>
2.3220556

>  <GCUT_SMR_0>
-0.47596583

>  <GCUT_SMR_1>
-0.20183878

>  <GCUT_SMR_2>
0.18987156

>  <GCUT_SMR_3>
2.5522974

>  <Kier1>
9.5510206

>  <Kier2>
3.6300001

>  <Kier3>
1.6460905

>  <KierA1>
6.220736

>  <KierA2>
2.2690887

>  <KierA3>
0.99321848

>  <KierFlex>
1.0858001

>  <lip_acc>
2

>  <lip_don>
0

>  <lip_druglike>
1

>  <lip_violation>
0

>  <logP(o/w)>
1.694

>  <logS>
-2.6663101

>  <mr>
4.9777861

>  <mutagenic>
0

>  <nmol>
1

>  <opr_brigid>
11

>  <opr_leadlike>
1

>  <opr_nring>
2

>  <opr_nrot>
0

>  <opr_violation>
0

>  <PC+>
0

>  <PC->
0

>  <PEOE_PC+>
0.84053838

>  <PEOE_PC->
-0.84053838

>  <PEOE_RPC+>
0.22572543

>  <PEOE_RPC->
0.34174424

>  <PEOE_VSA+0>
19.421778

>  <PEOE_VSA+1>
21.326929

>  <PEOE_VSA+2>
0

>  <PEOE_VSA+3>
16.917038

>  <PEOE_VSA+4>
0

>  <PEOE_VSA+5>
0

>  <PEOE_VSA+6>
0

>  <PEOE_VSA-0>
31.002581

>  <PEOE_VSA-1>
49.019615

>  <PEOE_VSA-2>
0

>  <PEOE_VSA-3>
0

>  <PEOE_VSA-4>
0

>  <PEOE_VSA-5>
27.133842

>  <PEOE_VSA-6>
0

>  <PEOE_VSA_FHYD>
0.83537465

>  <PEOE_VSA_FNEG>
0.65013272

>  <PEOE_VSA_FPNEG>
0.16462533

>  <PEOE_VSA_FPOL>
0.16462533

>  <PEOE_VSA_FPOS>
0.34986725

>  <PEOE_VSA_FPPOS>
0

>  <PEOE_VSA_HYD>
137.68794

>  <PEOE_VSA_NEG>
107.15604

>  <PEOE_VSA_PNEG>
27.133842

>  <PEOE_VSA_POL>
27.133842

>  <PEOE_VSA_POS>
57.665745

>  <PEOE_VSA_PPOS>
0

>  <petitjean>
0.5

>  <petitjeanSC>
1

>  <Q_PC+>
0

>  <Q_PC->
0

>  <Q_RPC+>
0

>  <Q_RPC->
0

>  <Q_VSA_FHYD>
1

>  <Q_VSA_FNEG>
0

>  <Q_VSA_FPNEG>
0

>  <Q_VSA_FPOL>
0

>  <Q_VSA_FPOS>
1

>  <Q_VSA_FPPOS>
0

>  <Q_VSA_HYD>
164.82178

>  <Q_VSA_NEG>
0

>  <Q_VSA_PNEG>
0

>  <Q_VSA_POL>
0

>  <Q_VSA_POS>
164.82178

>  <Q_VSA_PPOS>
0

>  <radius>
3

>  <reactive>
1

>  <rings>
2

>  <RPC+>
0

>  <RPC->
0

>  <rsynth>
1

>  <SlogP>
2.0118999

>  <SlogP_VSA0>
0

>  <SlogP_VSA1>
11.375222

>  <SlogP_VSA2>
0

>  <SlogP_VSA3>
0

>  <SlogP_VSA4>
54.095581

>  <SlogP_VSA5>
3.185575

>  <SlogP_VSA6>
0

>  <SlogP_VSA7>
88.215919

>  <SlogP_VSA8>
0

>  <SlogP_VSA9>
33.326015

>  <SMR>
4.8860002

>  <SMR_VSA0>
47.724434

>  <SMR_VSA1>
0

>  <SMR_VSA2>
0

>  <SMR_VSA3>
9.5567245

>  <SMR_VSA4>
0

>  <SMR_VSA5>
88.215919

>  <SMR_VSA6>
11.375222

>  <SMR_VSA7>
33.326015

>  <TPSA>
34.139999

>  <VAdjEq>
0.64772749

>  <VAdjMa>
4.8073549

>  <VDistEq>
2.3080299

>  <VDistMa>
7.1322675

>  <vdw_area>
164.82178

>  <vdw_vol>
233.5757

>  <vsa_acc>
27.133842

>  <vsa_acid>
0

>  <vsa_base>
0

>  <vsa_don>
0

>  <vsa_hyd>
115.07654

>  <vsa_other>
16.917038

>  <vsa_pol>
27.133842

>  <Weight>
172.183

>  <weinerPath>
218

>  <weinerPol>
21

>  <zagreb>
68

$$$$