Oc1cc(cc(O)c1)C(O)CNC(C)C
  MOE2013           2D

 15 15  0  0  1  0  0  0  0  0999 V2000
    0.0000    0.0000    0.0000 O   0  0  0  0  0  0  0  0  0  0  0  0
   -0.0050   -1.5000    0.0000 C   0  0  0  0  0  0  0  0  0  0  0  0
    1.2910   -2.2540    0.0000 C   0  0  0  0  0  0  0  0  0  0  0  0
    1.2860   -3.7540    0.0000 C   0  0  0  0  0  0  0  0  0  0  0  0
   -0.0150   -4.5000    0.0000 C   0  0  0  0  0  0  0  0  0  0  0  0
   -1.3120   -3.7460    0.0000 C   0  0  0  0  0  0  0  0  0  0  0  0
   -2.6130   -4.4910    0.0000 O   0  0  0  0  0  0  0  0  0  0  0  0
   -1.3070   -2.2460    0.0000 C   0  0  0  0  0  0  0  0  0  0  0  0
    2.5830   -4.5090    0.0000 C   0  0  3  0  0  0  0  0  0  0  0  0
    2.5780   -6.0090    0.0000 O   0  0  0  0  0  0  0  0  0  0  0  0
    3.8840   -3.7630    0.0000 C   0  0  0  0  0  0  0  0  0  0  0  0
    5.1810   -4.5180    0.0000 N   0  0  0  0  0  0  0  0  0  0  0  0
    6.4820   -3.7720    0.0000 C   0  0  0  0  0  0  0  0  0  0  0  0
    7.7790   -4.5270    0.0000 C   0  0  0  0  0  0  0  0  0  0  0  0
    6.4870   -2.2720    0.0000 C   0  0  0  0  0  0  0  0  0  0  0  0
  1  2  1  0  0  0  0
  2  3  1  0  0  0  0
  2  8  2  0  0  0  0
  3  4  2  0  0  0  0
  4  5  1  0  0  0  0
  4  9  1  0  0  0  0
  5  6  2  0  0  0  0
  6  7  1  0  0  0  0
  6  8  1  0  0  0  0
  9 10  1  0  0  0  0
  9 11  1  0  0  0  0
 11 12  1  0  0  0  0
 12 13  1  0  0  0  0
 13 14  1  0  0  0  0
 13 15  1  0  0  0  0
M  END
>  <Index>
680

>  <ID>
HT1324

>  <class>
0

>  <apol>
34.201481

>  <ast_fraglike>
0

>  <ast_fraglike_ext>
0

>  <ast_violation>
2

>  <ast_violation_ext>
3

>  <a_acc>
4

>  <a_acid>
0

>  <a_aro>
6

>  <a_base>
0

>  <a_count>
32

>  <a_don>
4

>  <a_donacc>
8

>  <a_heavy>
15

>  <a_hyd>
11

>  <a_IC>
47.704498

>  <a_ICM>
1.4907656

>  <a_nB>
0

>  <a_nBr>
0

>  <a_nC>
11

>  <a_nCl>
0

>  <a_nF>
0

>  <a_nH>
17

>  <a_nI>
0

>  <a_nN>
1

>  <a_nO>
3

>  <a_nP>
0

>  <a_nS>
0

>  <balabanJ>
2.3529406

>  <BCUT_PEOE_0>
-2.6404383

>  <BCUT_PEOE_1>
-0.57238162

>  <BCUT_PEOE_2>
0.65784222

>  <BCUT_PEOE_3>
2.5648637

>  <BCUT_SLOGP_0>
-2.7464685

>  <BCUT_SLOGP_1>
-0.59074008

>  <BCUT_SLOGP_2>
0.58310664

>  <BCUT_SLOGP_3>
2.5629864

>  <BCUT_SMR_0>
-2.3700616

>  <BCUT_SMR_1>
-0.46493444

>  <BCUT_SMR_2>
0.74945766

>  <BCUT_SMR_3>
2.8272884

>  <bpol>
19.244518

>  <b_1rotN>
4

>  <b_1rotR>
0.26666668

>  <b_ar>
6

>  <b_count>
32

>  <b_double>
0

>  <b_heavy>
15

>  <b_max1len>
7

>  <b_rotN>
4

>  <b_rotR>
0.26666668

>  <b_single>
26

>  <b_triple>
0

>  <chi0>
11.422285

>  <chi0v>
8.9354992

>  <chi0v_C>
7.0938582

>  <chi0_C>
7.7151785

>  <chi1>
6.9860711

>  <chi1v>
4.9313159

>  <chi1v_C>
3.5836747

>  <chi1_C>
4.3457718

>  <chiral>
1

>  <chiral_u>
1

>  <density>
0.72134835

>  <diameter>
8

>  <FCharge>
0

>  <GCUT_PEOE_0>
-0.84524292

>  <GCUT_PEOE_1>
-0.38081351

>  <GCUT_PEOE_2>
0.12100529

>  <GCUT_PEOE_3>
2.4214087

>  <GCUT_SLOGP_0>
-1.1526303

>  <GCUT_SLOGP_1>
-0.36110926

>  <GCUT_SLOGP_2>
0.09168902

>  <GCUT_SLOGP_3>
2.5037177

>  <GCUT_SMR_0>
-0.52060562

>  <GCUT_SMR_1>
-0.23793668

>  <GCUT_SMR_2>
0.18237385

>  <GCUT_SMR_3>
2.6703622

>  <Kier1>
13.066667

>  <Kier2>
5.915

>  <Kier3>
4.5714288

>  <KierA1>
11.045362

>  <KierA2>
4.9353037

>  <KierA3>
3.7737973

>  <KierFlex>
3.6341479

>  <lip_acc>
4

>  <lip_don>
4

>  <lip_druglike>
1

>  <lip_violation>
0

>  <logP(o/w)>
1.4119999

>  <logS>
-0.85336

>  <mr>
5.7912889

>  <mutagenic>
0

>  <nmol>
1

>  <opr_brigid>
6

>  <opr_leadlike>
1

>  <opr_nring>
1

>  <opr_nrot>
4

>  <opr_violation>
0

>  <PC+>
0

>  <PC->
0

>  <PEOE_PC+>
1.5837345

>  <PEOE_PC->
-1.5837345

>  <PEOE_RPC+>
0.13721666

>  <PEOE_RPC->
0.24367307

>  <PEOE_VSA+0>
54.726761

>  <PEOE_VSA+1>
38.883511

>  <PEOE_VSA+2>
8.6190128

>  <PEOE_VSA+3>
0

>  <PEOE_VSA+4>
30.972517

>  <PEOE_VSA+5>
0

>  <PEOE_VSA+6>
0

>  <PEOE_VSA-0>
76.468605

>  <PEOE_VSA-1>
0

>  <PEOE_VSA-2>
0

>  <PEOE_VSA-3>
0

>  <PEOE_VSA-4>
0

>  <PEOE_VSA-5>
0

>  <PEOE_VSA-6>
23.439512

>  <PEOE_VSA_FHYD>
0.76658207

>  <PEOE_VSA_FNEG>
0.428588

>  <PEOE_VSA_FPNEG>
0.10055133

>  <PEOE_VSA_FPOL>
0.23341791

>  <PEOE_VSA_FPOS>
0.57141197

>  <PEOE_VSA_FPPOS>
0.13286658

>  <PEOE_VSA_HYD>
178.69789

>  <PEOE_VSA_NEG>
99.908119

>  <PEOE_VSA_PNEG>
23.439512

>  <PEOE_VSA_POL>
54.412029

>  <PEOE_VSA_POS>
133.2018

>  <PEOE_VSA_PPOS>
30.972517

>  <petitjean>
0.5

>  <petitjeanSC>
1

>  <Q_PC+>
0

>  <Q_PC->
0

>  <Q_RPC+>
0

>  <Q_RPC->
0

>  <Q_VSA_FHYD>
1

>  <Q_VSA_FNEG>
0

>  <Q_VSA_FPNEG>
0

>  <Q_VSA_FPOL>
0

>  <Q_VSA_FPOS>
1

>  <Q_VSA_FPPOS>
0

>  <Q_VSA_HYD>
233.10992

>  <Q_VSA_NEG>
0

>  <Q_VSA_PNEG>
0

>  <Q_VSA_POL>
0

>  <Q_VSA_POS>
233.10992

>  <Q_VSA_PPOS>
0

>  <radius>
4

>  <reactive>
0

>  <rings>
1

>  <RPC+>
0

>  <RPC->
0

>  <rsynth>
1

>  <SlogP>
1.2247

>  <SlogP_VSA0>
94.166428

>  <SlogP_VSA1>
0

>  <SlogP_VSA2>
3.9819686

>  <SlogP_VSA3>
18.439579

>  <SlogP_VSA4>
3.185575

>  <SlogP_VSA5>
0

>  <SlogP_VSA6>
0

>  <SlogP_VSA7>
52.929554

>  <SlogP_VSA8>
6.4686494

>  <SlogP_VSA9>
77.138885

>  <SMR>
5.79811

>  <SMR_VSA0>
0

>  <SMR_VSA1>
76.155678

>  <SMR_VSA2>
18.01075

>  <SMR_VSA3>
24.123049

>  <SMR_VSA4>
0

>  <SMR_VSA5>
52.929554

>  <SMR_VSA6>
18.439579

>  <SMR_VSA7>
66.652031

>  <TPSA>
72.720001

>  <VAdjEq>
0.56650949

>  <VAdjMa>
4.9068904

>  <VDistEq>
2.8943014

>  <VDistMa>
7.4969978

>  <vdw_area>
233.10992

>  <vdw_vol>
292.8696

>  <vsa_acc>
0

>  <vsa_acid>
0

>  <vsa_base>
0

>  <vsa_don>
0

>  <vsa_hyd>
160.82553

>  <vsa_other>
0

>  <vsa_pol>
46.383339

>  <Weight>
211.261

>  <weinerPath>
394

>  <weinerPol>
18

>  <zagreb>
70

$$$$