Fc1cc(N2C[C@@H](OC2=O)CNC(=O)C)ccc1N1CCOCC1
  MOE2013           2D

 24 26  0  0  1  0  0  0  0  0999 V2000
    0.0000    0.0000    0.0000 F   0  0  0  0  0  0  0  0  0  0  0  0
    0.0060   -1.5000    0.0000 C   0  0  0  0  0  0  0  0  0  0  0  0
    1.3080   -2.2450    0.0000 C   0  0  0  0  0  0  0  0  0  0  0  0
    1.3140   -3.7450    0.0000 C   0  0  0  0  0  0  0  0  0  0  0  0
    2.6160   -4.4890    0.0000 N   0  0  0  0  0  0  0  0  0  0  0  0
    3.9840   -3.8740    0.0000 C   0  0  0  0  0  0  0  0  0  0  0  0
    4.9920   -4.9840    0.0000 C   0  0  1  0  0  0  0  0  0  0  0  0
    4.2480   -6.2860    0.0000 O   0  0  0  0  0  0  0  0  0  0  0  0
    2.7790   -5.9810    0.0000 C   0  0  0  0  0  0  0  0  0  0  0  0
    1.6690   -6.9890    0.0000 O   0  0  0  0  0  0  0  0  0  0  0  0
    6.4830   -4.8220    0.0000 C   0  0  0  0  0  0  0  0  0  0  0  0
    7.3700   -6.0310    0.0000 N   0  0  0  0  0  0  0  0  0  0  0  0
    8.8610   -5.8690    0.0000 C   0  0  0  0  0  0  0  0  0  0  0  0
    9.4660   -4.4960    0.0000 O   0  0  0  0  0  0  0  0  0  0  0  0
    9.7480   -7.0790    0.0000 C   0  0  0  0  0  0  0  0  0  0  0  0
    0.0180   -4.5000    0.0000 C   0  0  0  0  0  0  0  0  0  0  0  0
   -1.2840   -3.7550    0.0000 C   0  0  0  0  0  0  0  0  0  0  0  0
   -1.2900   -2.2550    0.0000 C   0  0  0  0  0  0  0  0  0  0  0  0
   -2.5920   -1.5110    0.0000 N   0  0  0  0  0  0  0  0  0  0  0  0
   -3.8880   -2.2660    0.0000 C   0  0  0  0  0  0  0  0  0  0  0  0
   -5.1900   -1.5210    0.0000 C   0  0  0  0  0  0  0  0  0  0  0  0
   -5.1960   -0.0210    0.0000 O   0  0  0  0  0  0  0  0  0  0  0  0
   -3.9000    0.7340    0.0000 C   0  0  0  0  0  0  0  0  0  0  0  0
   -2.5980   -0.0110    0.0000 C   0  0  0  0  0  0  0  0  0  0  0  0
  1  2  1  0  0  0  0
  2  3  2  0  0  0  0
  2 18  1  0  0  0  0
  3  4  1  0  0  0  0
  4  5  1  0  0  0  0
  4 16  2  0  0  0  0
  5  6  1  0  0  0  0
  5  9  1  0  0  0  0
  6  7  1  0  0  0  0
  7  8  1  0  0  0  0
  7 11  1  6  0  0  0
  8  9  1  0  0  0  0
  9 10  2  0  0  0  0
 11 12  1  0  0  0  0
 12 13  1  0  0  0  0
 13 14  2  0  0  0  0
 13 15  1  0  0  0  0
 16 17  1  0  0  0  0
 17 18  2  0  0  0  0
 18 19  1  0  0  0  0
 19 20  1  0  0  0  0
 19 24  1  0  0  0  0
 20 21  1  0  0  0  0
 21 22  1  0  0  0  0
 22 23  1  0  0  0  0
 23 24  1  0  0  0  0
M  END
>  <Index>
620

>  <ID>
HT1214

>  <class>
0

>  <apol>
48.56086

>  <ast_fraglike>
0

>  <ast_fraglike_ext>
0

>  <ast_violation>
1

>  <ast_violation_ext>
2

>  <a_acc>
3

>  <a_acid>
0

>  <a_aro>
6

>  <a_base>
0

>  <a_count>
44

>  <a_don>
1

>  <a_donacc>
4

>  <a_heavy>
24

>  <a_hyd>
15

>  <a_IC>
77.021545

>  <a_ICM>
1.7504896

>  <a_nB>
0

>  <a_nBr>
0

>  <a_nC>
16

>  <a_nCl>
0

>  <a_nF>
1

>  <a_nH>
20

>  <a_nI>
0

>  <a_nN>
3

>  <a_nO>
4

>  <a_nP>
0

>  <a_nS>
0

>  <balabanJ>
1.4985539

>  <BCUT_PEOE_0>
-2.6626647

>  <BCUT_PEOE_1>
-0.51375324

>  <BCUT_PEOE_2>
0.41729084

>  <BCUT_PEOE_3>
2.6447823

>  <BCUT_SLOGP_0>
-2.7817721

>  <BCUT_SLOGP_1>
-0.47643608

>  <BCUT_SLOGP_2>
0.56899607

>  <BCUT_SLOGP_3>
2.5277388

>  <BCUT_SMR_0>
-2.3860903

>  <BCUT_SMR_1>
-0.28786483

>  <BCUT_SMR_2>
0.62180257

>  <BCUT_SMR_3>
2.8961072

>  <bpol>
33.435139

>  <b_1rotN>
4

>  <b_1rotR>
0.15384616

>  <b_ar>
6

>  <b_count>
46

>  <b_double>
2

>  <b_heavy>
26

>  <b_max1len>
4

>  <b_rotN>
5

>  <b_rotR>
0.1923077

>  <b_single>
38

>  <b_triple>
0

>  <chi0>
17.104084

>  <chi0v>
13.457427

>  <chi0v_C>
10.052042

>  <chi0_C>
10.828063

>  <chi1>
11.541714

>  <chi1v>
7.891995

>  <chi1v_C>
4.0545306

>  <chi1_C>
4.8601732

>  <chiral>
1

>  <chiral_u>
0

>  <density>
0.79510444

>  <diameter>
14

>  <FCharge>
0

>  <GCUT_PEOE_0>
-0.83346105

>  <GCUT_PEOE_1>
-0.44144678

>  <GCUT_PEOE_2>
0.01162704

>  <GCUT_PEOE_3>
2.6266758

>  <GCUT_SLOGP_0>
-1.1620245

>  <GCUT_SLOGP_1>
-0.39264876

>  <GCUT_SLOGP_2>
0.10981474

>  <GCUT_SLOGP_3>
2.637917

>  <GCUT_SMR_0>
-0.51426774

>  <GCUT_SMR_1>
-0.19481827

>  <GCUT_SMR_2>
0.14825369

>  <GCUT_SMR_3>
2.8877134

>  <Kier1>
18.781065

>  <Kier2>
8.5895061

>  <Kier3>
4.8034024

>  <KierA1>
14.455656

>  <KierA2>
6.53057

>  <KierA3>
3.6198106

>  <KierFlex>
3.9334865

>  <lip_acc>
7

>  <lip_don>
1

>  <lip_druglike>
1

>  <lip_violation>
0

>  <logP(o/w)>
0.37099999

>  <logS>
-2.40044

>  <mr>
8.5442438

>  <mutagenic>
0

>  <nmol>
1

>  <opr_brigid>
17

>  <opr_leadlike>
1

>  <opr_nring>
3

>  <opr_nrot>
6

>  <opr_violation>
0

>  <PC+>
0

>  <PC->
0

>  <PEOE_PC+>
2.3665576

>  <PEOE_PC->
-2.3665576

>  <PEOE_RPC+>
0.1555434

>  <PEOE_RPC->
0.15939498

>  <PEOE_VSA+0>
94.881905

>  <PEOE_VSA+1>
100.9791

>  <PEOE_VSA+2>
13.925775

>  <PEOE_VSA+3>
8.6190128

>  <PEOE_VSA+4>
12.949531

>  <PEOE_VSA+5>
0

>  <PEOE_VSA+6>
19.199511

>  <PEOE_VSA-0>
36.764713

>  <PEOE_VSA-1>
0

>  <PEOE_VSA-2>
0

>  <PEOE_VSA-3>
0

>  <PEOE_VSA-4>
25.475557

>  <PEOE_VSA-5>
16.070677

>  <PEOE_VSA-6>
2.6406472

>  <PEOE_VSA_FHYD>
0.76973021

>  <PEOE_VSA_FNEG>
0.24419314

>  <PEOE_VSA_FPNEG>
0.13329117

>  <PEOE_VSA_FPOL>
0.23026982

>  <PEOE_VSA_FPOS>
0.75580686

>  <PEOE_VSA_FPPOS>
0.096978642

>  <PEOE_VSA_HYD>
255.1705

>  <PEOE_VSA_NEG>
80.951591

>  <PEOE_VSA_PNEG>
44.186882

>  <PEOE_VSA_POL>
76.335922

>  <PEOE_VSA_POS>
250.55482

>  <PEOE_VSA_PPOS>
32.14904

>  <petitjean>
0.5

>  <petitjeanSC>
1

>  <Q_PC+>
0

>  <Q_PC->
0

>  <Q_RPC+>
0

>  <Q_RPC->
0

>  <Q_VSA_FHYD>
1

>  <Q_VSA_FNEG>
0

>  <Q_VSA_FPNEG>
0

>  <Q_VSA_FPOL>
0

>  <Q_VSA_FPOS>
1

>  <Q_VSA_FPPOS>
0

>  <Q_VSA_HYD>
331.50641

>  <Q_VSA_NEG>
0

>  <Q_VSA_PNEG>
0

>  <Q_VSA_POL>
0

>  <Q_VSA_POS>
331.50641

>  <Q_VSA_PPOS>
0

>  <radius>
7

>  <reactive>
0

>  <rings>
3

>  <RPC+>
0

>  <RPC->
0

>  <rsynth>
1

>  <SlogP>
1.1236

>  <SlogP_VSA0>
24.259378

>  <SlogP_VSA1>
12.57542

>  <SlogP_VSA2>
61.45166

>  <SlogP_VSA3>
115.61083

>  <SlogP_VSA4>
0

>  <SlogP_VSA5>
0

>  <SlogP_VSA6>
0

>  <SlogP_VSA7>
52.929554

>  <SlogP_VSA8>
0

>  <SlogP_VSA9>
77.661842

>  <SMR>
8.5730696

>  <SMR_VSA0>
69.724205

>  <SMR_VSA1>
14.960114

>  <SMR_VSA2>
33.380398

>  <SMR_VSA3>
6.4686494

>  <SMR_VSA4>
5.513495

>  <SMR_VSA5>
52.929554

>  <SMR_VSA6>
128.18625

>  <SMR_VSA7>
33.326015

>  <TPSA>
71.110001

>  <VAdjEq>
0.43739632

>  <VAdjMa>
5.7004399

>  <VDistEq>
3.5350053

>  <VDistMa>
8.8455982

>  <vdw_area>
331.50641

>  <vdw_vol>
424.28516

>  <vsa_acc>
29.637598

>  <vsa_acid>
0

>  <vsa_base>
0

>  <vsa_don>
5.6825762

>  <vsa_hyd>
244.936

>  <vsa_other>
34.652798

>  <vsa_pol>
35.320175

>  <Weight>
337.35098

>  <weinerPath>
1467

>  <weinerPol>
35

>  <zagreb>
124

$$$$