O=C1C=C2[C@]([C@@H]3[C@H]([C@@H]4CC[C@@](O)(C(=O)CO)[C@@]4(C[C@@H]3O)C)C[C@@H]2C)(C=C1)C
  MOE2013           2D

 27 30  0  0  1  0  0  0  0  0999 V2000
    0.0000    0.0000    0.0000 O   0  0  0  0  0  0  0  0  0  0  0  0
   -1.5000   -0.0120    0.0000 C   0  0  0  0  0  0  0  0  0  0  0  0
   -2.2600    1.2820    0.0000 C   0  0  0  0  0  0  0  0  0  0  0  0
   -3.7600    1.2700    0.0000 C   0  0  0  0  0  0  0  0  0  0  0  0
   -4.5000   -0.0350    0.0000 C   0  0  2  0  0  0  0  0  0  0  0  0
   -6.0000   -0.0460    0.0000 C   0  0  2  0  0  0  0  0  0  0  0  0
   -6.7600    1.2470    0.0000 C   0  0  2  0  0  0  0  0  0  0  0  0
   -8.2600    1.2350    0.0000 C   0  0  2  0  0  0  0  0  0  0  0  0
   -9.2720    2.3420    0.0000 C   0  0  0  0  0  0  0  0  0  0  0  0
  -10.6380    1.7220    0.0000 C   0  0  0  0  0  0  0  0  0  0  0  0
  -10.4690    0.2310    0.0000 C   0  0  1  0  0  0  0  0  0  0  0  0
  -10.8460   -1.2210    0.0000 O   0  0  0  0  0  0  0  0  0  0  0  0
  -11.9280   -0.1180    0.0000 C   0  0  0  0  0  0  0  0  0  0  0  0
  -12.3560   -1.5550    0.0000 O   0  0  0  0  0  0  0  0  0  0  0  0
  -12.9600    0.9710    0.0000 C   0  0  0  0  0  0  0  0  0  0  0  0
  -14.4190    0.6230    0.0000 O   0  0  0  0  0  0  0  0  0  0  0  0
   -9.0000   -0.0700    0.0000 C   0  0  2  0  0  0  0  0  0  0  0  0
   -8.2400   -1.3630    0.0000 C   0  0  0  0  0  0  0  0  0  0  0  0
   -6.7400   -1.3510    0.0000 C   0  0  2  0  0  0  0  0  0  0  0  0
   -5.9800   -2.6440    0.0000 O   0  0  0  0  0  0  0  0  0  0  0  0
   -9.8720   -1.2900    0.0000 C   0  0  0  0  0  0  0  0  0  0  0  0
   -6.0200    2.5520    0.0000 C   0  0  0  0  0  0  0  0  0  0  0  0
   -4.5200    2.5630    0.0000 C   0  0  2  0  0  0  0  0  0  0  0  0
   -3.7800    3.8680    0.0000 C   0  0  0  0  0  0  0  0  0  0  0  0
   -3.7400   -1.3280    0.0000 C   0  0  0  0  0  0  0  0  0  0  0  0
   -2.2400   -1.3160    0.0000 C   0  0  0  0  0  0  0  0  0  0  0  0
   -5.2620   -1.3260    0.0000 C   0  0  0  0  0  0  0  0  0  0  0  0
  1  2  2  0  0  0  0
  2  3  1  0  0  0  0
  2 26  1  0  0  0  0
  3  4  2  0  0  0  0
  4  5  1  0  0  0  0
  4 23  1  0  0  0  0
  5 25  1  0  0  0  0
  5 27  1  6  0  0  0
  6  5  1  1  0  0  0
  6  7  1  0  0  0  0
  6 19  1  0  0  0  0
  7  8  1  0  0  0  0
  7 22  1  6  0  0  0
  8  9  1  1  0  0  0
  8 17  1  0  0  0  0
  9 10  1  0  0  0  0
 10 11  1  0  0  0  0
 11 12  1  1  0  0  0
 11 13  1  6  0  0  0
 11 17  1  0  0  0  0
 13 14  2  0  0  0  0
 13 15  1  0  0  0  0
 15 16  1  0  0  0  0
 17 18  1  0  0  0  0
 17 21  1  6  0  0  0
 18 19  1  0  0  0  0
 19 20  1  1  0  0  0
 22 23  1  0  0  0  0
 23 24  1  6  0  0  0
 25 26  2  0  0  0  0
M  END
>  <Index>
698

>  <ID>
HT1367

>  <class>
0

>  <apol>
62.733791

>  <ast_fraglike>
0

>  <ast_fraglike_ext>
0

>  <ast_violation>
2

>  <ast_violation_ext>
3

>  <a_acc>
5

>  <a_acid>
0

>  <a_aro>
0

>  <a_base>
0

>  <a_count>
57

>  <a_don>
3

>  <a_donacc>
8

>  <a_heavy>
27

>  <a_hyd>
20

>  <a_IC>
75.55088

>  <a_ICM>
1.325454

>  <a_nB>
0

>  <a_nBr>
0

>  <a_nC>
22

>  <a_nCl>
0

>  <a_nF>
0

>  <a_nH>
30

>  <a_nI>
0

>  <a_nN>
0

>  <a_nO>
5

>  <a_nP>
0

>  <a_nS>
0

>  <balabanJ>
1.7132298

>  <BCUT_PEOE_0>
-2.928951

>  <BCUT_PEOE_1>
-0.5155493

>  <BCUT_PEOE_2>
0.55316615

>  <BCUT_PEOE_3>
2.9779406

>  <BCUT_SLOGP_0>
-2.9064682

>  <BCUT_SLOGP_1>
-0.47859168

>  <BCUT_SLOGP_2>
0.49273559

>  <BCUT_SLOGP_3>
3.0073149

>  <BCUT_SMR_0>
-2.6822608

>  <BCUT_SMR_1>
-0.37938944

>  <BCUT_SMR_2>
0.65915656

>  <BCUT_SMR_3>
3.2186489

>  <bpol>
34.712212

>  <b_1rotN>
2

>  <b_1rotR>
0.06666667

>  <b_ar>
0

>  <b_count>
60

>  <b_double>
4

>  <b_heavy>
30

>  <b_max1len>
6

>  <b_rotN>
2

>  <b_rotR>
0.06666667

>  <b_single>
56

>  <b_triple>
0

>  <chi0>
19.775656

>  <chi0v>
16.312473

>  <chi0v_C>
14.154336

>  <chi0_C>
14.775657

>  <chi1>
12.581188

>  <chi1v>
10.081345

>  <chi1v_C>
8.8750629

>  <chi1_C>
9.6420307

>  <chiral>
8

>  <chiral_u>
0

>  <density>
0.73157966

>  <diameter>
12

>  <FCharge>
0

>  <GCUT_PEOE_0>
-0.800973

>  <GCUT_PEOE_1>
-0.40222272

>  <GCUT_PEOE_2>
0.042574652

>  <GCUT_PEOE_3>
3.360383

>  <GCUT_SLOGP_0>
-0.94576633

>  <GCUT_SLOGP_1>
-0.34647721

>  <GCUT_SLOGP_2>
-0.00026544664

>  <GCUT_SLOGP_3>
3.400532

>  <GCUT_SMR_0>
-0.53717989

>  <GCUT_SMR_1>
-0.22512497

>  <GCUT_SMR_2>
0.15297644

>  <GCUT_SMR_3>
3.5854166

>  <Kier1>
20.280001

>  <Kier2>
6.5

>  <Kier3>
2.5927978

>  <KierA1>
17.800102

>  <KierA2>
5.6751719

>  <KierA3>
2.2549412

>  <KierFlex>
3.7414312

>  <lip_acc>
5

>  <lip_don>
3

>  <lip_druglike>
1

>  <lip_violation>
0

>  <logP(o/w)>
2.148

>  <logS>
-3.8721199

>  <mr>
10.019703

>  <mutagenic>
0

>  <nmol>
1

>  <opr_brigid>
20

>  <opr_leadlike>
1

>  <opr_nring>
4

>  <opr_nrot>
2

>  <opr_violation>
0

>  <PC+>
0

>  <PC->
0

>  <PEOE_PC+>
2.2666359

>  <PEOE_PC->
-2.2666359

>  <PEOE_RPC+>
0.09298493

>  <PEOE_RPC->
0.17269884

>  <PEOE_VSA+0>
89.573105

>  <PEOE_VSA+1>
30.497244

>  <PEOE_VSA+2>
14.951293

>  <PEOE_VSA+3>
16.917038

>  <PEOE_VSA+4>
30.972517

>  <PEOE_VSA+5>
0

>  <PEOE_VSA+6>
0

>  <PEOE_VSA-0>
59.31506

>  <PEOE_VSA-1>
70.706474

>  <PEOE_VSA-2>
0

>  <PEOE_VSA-3>
0

>  <PEOE_VSA-4>
0

>  <PEOE_VSA-5>
27.133842

>  <PEOE_VSA-6>
23.30262

>  <PEOE_VSA_FHYD>
0.77596068

>  <PEOE_VSA_FNEG>
0.49662438

>  <PEOE_VSA_FPNEG>
0.13880225

>  <PEOE_VSA_FPOL>
0.2240393

>  <PEOE_VSA_FPOS>
0.50337565

>  <PEOE_VSA_FPPOS>
0.085237049

>  <PEOE_VSA_HYD>
281.96021

>  <PEOE_VSA_NEG>
180.45799

>  <PEOE_VSA_PNEG>
50.436462

>  <PEOE_VSA_POL>
81.408981

>  <PEOE_VSA_POS>
182.91119

>  <PEOE_VSA_PPOS>
30.972517

>  <petitjean>
0.5

>  <petitjeanSC>
1

>  <Q_PC+>
0

>  <Q_PC->
0

>  <Q_RPC+>
0

>  <Q_RPC->
0

>  <Q_VSA_FHYD>
1

>  <Q_VSA_FNEG>
0

>  <Q_VSA_FPNEG>
0

>  <Q_VSA_FPOL>
0

>  <Q_VSA_FPOS>
1

>  <Q_VSA_FPPOS>
0

>  <Q_VSA_HYD>
363.3692

>  <Q_VSA_NEG>
0

>  <Q_VSA_PNEG>
0

>  <Q_VSA_POL>
0

>  <Q_VSA_POS>
363.3692

>  <Q_VSA_PPOS>
0

>  <radius>
6

>  <reactive>
1

>  <rings>
4

>  <RPC+>
0

>  <RPC->
0

>  <rsynth>
0.33333334

>  <SlogP>
1.8036

>  <SlogP_VSA0>
76.155678

>  <SlogP_VSA1>
11.375222

>  <SlogP_VSA2>
54.193081

>  <SlogP_VSA3>
20.926258

>  <SlogP_VSA4>
17.643185

>  <SlogP_VSA5>
3.185575

>  <SlogP_VSA6>
0

>  <SlogP_VSA7>
52.929554

>  <SlogP_VSA8>
75.473625

>  <SlogP_VSA9>
99.978043

>  <SMR>
9.9595404

>  <SMR_VSA0>
47.724434

>  <SMR_VSA1>
76.155678

>  <SMR_VSA2>
17.643185

>  <SMR_VSA3>
9.6542244

>  <SMR_VSA4>
0

>  <SMR_VSA5>
128.40317

>  <SMR_VSA6>
32.301479

>  <SMR_VSA7>
99.978043

>  <TPSA>
94.830002

>  <VAdjEq>
0.41024774

>  <VAdjMa>
5.9068904

>  <VDistEq>
3.1632514

>  <VDistMa>
9.2508001

>  <vdw_area>
363.3692

>  <vdw_vol>
511.87454

>  <vsa_acc>
27.133842

>  <vsa_acid>
0

>  <vsa_base>
0

>  <vsa_don>
0

>  <vsa_hyd>
240.4445

>  <vsa_other>
16.917038

>  <vsa_pol>
67.834602

>  <Weight>
374.47699

>  <weinerPath>
1553

>  <weinerPol>
62

>  <zagreb>
160

$$$$