Fc1ccc(cc1)C(CCCN1CCN(CC1)CC(=O)Nc1c(cccc1C)C)c1ccc(F)cc1
  MOE2013           2D

 36 39  0  0  0  0  0  0  0  0999 V2000
    0.0000    0.0000    0.0000 F   0  0  0  0  0  0  0  0  0  0  0  0
   -1.2990    0.7490    0.0000 C   0  0  0  0  0  0  0  0  0  0  0  0
   -2.5980   -0.0010    0.0000 C   0  0  0  0  0  0  0  0  0  0  0  0
   -3.8970    0.7480    0.0000 C   0  0  0  0  0  0  0  0  0  0  0  0
   -3.8980    2.2480    0.0000 C   0  0  0  0  0  0  0  0  0  0  0  0
   -2.5990    2.9990    0.0000 C   0  0  0  0  0  0  0  0  0  0  0  0
   -1.3000    2.2490    0.0000 C   0  0  0  0  0  0  0  0  0  0  0  0
   -5.1970    2.9980    0.0000 C   0  0  0  0  0  0  0  0  0  0  0  0
   -6.4960    2.2470    0.0000 C   0  0  0  0  0  0  0  0  0  0  0  0
   -7.7950    2.9970    0.0000 C   0  0  0  0  0  0  0  0  0  0  0  0
   -9.0940    2.2460    0.0000 C   0  0  0  0  0  0  0  0  0  0  0  0
  -10.3930    2.9960    0.0000 N   0  0  0  0  0  0  0  0  0  0  0  0
  -10.3940    4.4960    0.0000 C   0  0  0  0  0  0  0  0  0  0  0  0
  -11.6930    5.2450    0.0000 C   0  0  0  0  0  0  0  0  0  0  0  0
  -12.9920    4.4950    0.0000 N   0  0  0  0  0  0  0  0  0  0  0  0
  -12.9920    2.9950    0.0000 C   0  0  0  0  0  0  0  0  0  0  0  0
  -11.6920    2.2450    0.0000 C   0  0  0  0  0  0  0  0  0  0  0  0
  -14.2910    5.2440    0.0000 C   0  0  0  0  0  0  0  0  0  0  0  0
  -15.5900    4.4940    0.0000 C   0  0  0  0  0  0  0  0  0  0  0  0
  -15.5900    2.9940    0.0000 O   0  0  0  0  0  0  0  0  0  0  0  0
  -16.8900    5.2430    0.0000 N   0  0  0  0  0  0  0  0  0  0  0  0
  -18.1880    4.4930    0.0000 C   0  0  0  0  0  0  0  0  0  0  0  0
  -19.4880    5.2420    0.0000 C   0  0  0  0  0  0  0  0  0  0  0  0
  -20.7860    4.4920    0.0000 C   0  0  0  0  0  0  0  0  0  0  0  0
  -20.7860    2.9920    0.0000 C   0  0  0  0  0  0  0  0  0  0  0  0
  -19.4860    2.2420    0.0000 C   0  0  0  0  0  0  0  0  0  0  0  0
  -18.1880    2.9930    0.0000 C   0  0  0  0  0  0  0  0  0  0  0  0
  -16.8880    2.2430    0.0000 C   0  0  0  0  0  0  0  0  0  0  0  0
  -19.4880    6.7420    0.0000 C   0  0  0  0  0  0  0  0  0  0  0  0
   -5.1980    4.4980    0.0000 C   0  0  0  0  0  0  0  0  0  0  0  0
   -6.4970    5.2470    0.0000 C   0  0  0  0  0  0  0  0  0  0  0  0
   -6.4980    6.7470    0.0000 C   0  0  0  0  0  0  0  0  0  0  0  0
   -5.1990    7.4980    0.0000 C   0  0  0  0  0  0  0  0  0  0  0  0
   -5.2000    8.9980    0.0000 F   0  0  0  0  0  0  0  0  0  0  0  0
   -3.9000    6.7480    0.0000 C   0  0  0  0  0  0  0  0  0  0  0  0
   -3.8990    5.2480    0.0000 C   0  0  0  0  0  0  0  0  0  0  0  0
  1  2  1  0  0  0  0
  2  3  1  0  0  0  0
  2  7  2  0  0  0  0
  3  4  2  0  0  0  0
  4  5  1  0  0  0  0
  5  6  2  0  0  0  0
  5  8  1  0  0  0  0
  6  7  1  0  0  0  0
  8  9  1  0  0  0  0
  8 30  1  0  0  0  0
  9 10  1  0  0  0  0
 10 11  1  0  0  0  0
 11 12  1  0  0  0  0
 12 13  1  0  0  0  0
 12 17  1  0  0  0  0
 13 14  1  0  0  0  0
 14 15  1  0  0  0  0
 15 16  1  0  0  0  0
 15 18  1  0  0  0  0
 16 17  1  0  0  0  0
 18 19  1  0  0  0  0
 19 20  2  0  0  0  0
 19 21  1  0  0  0  0
 21 22  1  0  0  0  0
 22 23  1  0  0  0  0
 22 27  2  0  0  0  0
 23 24  2  0  0  0  0
 23 29  1  0  0  0  0
 24 25  1  0  0  0  0
 25 26  2  0  0  0  0
 26 27  1  0  0  0  0
 27 28  1  0  0  0  0
 30 31  1  0  0  0  0
 30 36  2  0  0  0  0
 31 32  2  0  0  0  0
 32 33  1  0  0  0  0
 33 34  1  0  0  0  0
 33 35  2  0  0  0  0
 35 36  1  0  0  0  0
M  END
>  <Index>
616

>  <ID>
HT1208

>  <class>
0

>  <apol>
81.353752

>  <ast_fraglike>
0

>  <ast_fraglike_ext>
0

>  <ast_violation>
2

>  <ast_violation_ext>
3

>  <a_acc>
3

>  <a_acid>
0

>  <a_aro>
18

>  <a_base>
0

>  <a_count>
71

>  <a_don>
1

>  <a_donacc>
4

>  <a_heavy>
36

>  <a_hyd>
31

>  <a_IC>
103.14554

>  <a_ICM>
1.452754

>  <a_nB>
0

>  <a_nBr>
0

>  <a_nC>
30

>  <a_nCl>
0

>  <a_nF>
2

>  <a_nH>
35

>  <a_nI>
0

>  <a_nN>
3

>  <a_nO>
1

>  <a_nP>
0

>  <a_nS>
0

>  <balabanJ>
1.1636966

>  <BCUT_PEOE_0>
-2.7918365

>  <BCUT_PEOE_1>
-0.5919199

>  <BCUT_PEOE_2>
0.55633545

>  <BCUT_PEOE_3>
2.6960714

>  <BCUT_SLOGP_0>
-2.9051967

>  <BCUT_SLOGP_1>
-0.47417811

>  <BCUT_SLOGP_2>
0.76703441

>  <BCUT_SLOGP_3>
2.7104583

>  <BCUT_SMR_0>
-2.5098917

>  <BCUT_SMR_1>
-0.38872838

>  <BCUT_SMR_2>
0.7312966

>  <BCUT_SMR_3>
2.9699628

>  <bpol>
46.246246

>  <b_1rotN>
9

>  <b_1rotR>
0.23076923

>  <b_ar>
18

>  <b_count>
74

>  <b_double>
1

>  <b_heavy>
39

>  <b_max1len>
5

>  <b_rotN>
10

>  <b_rotR>
0.25641027

>  <b_single>
55

>  <b_triple>
0

>  <chi0>
25.492989

>  <chi0v>
21.143661

>  <chi0v_C>
18.585058

>  <chi0_C>
20.631182

>  <chi1>
17.38505

>  <chi1v>
12.705359

>  <chi1v_C>
9.7259035

>  <chi1_C>
12.387013

>  <chiral>
0

>  <chiral_u>
0

>  <density>
0.70471084

>  <diameter>
19

>  <FCharge>
0

>  <GCUT_PEOE_0>
-0.85551077

>  <GCUT_PEOE_1>
-0.38997921

>  <GCUT_PEOE_2>
0.062056035

>  <GCUT_PEOE_3>
2.8925903

>  <GCUT_SLOGP_0>
-1.0100785

>  <GCUT_SLOGP_1>
-0.26839572

>  <GCUT_SLOGP_2>
0.16445385

>  <GCUT_SLOGP_3>
2.9414186

>  <GCUT_SMR_0>
-0.52529544

>  <GCUT_SMR_1>
-0.20485115

>  <GCUT_SMR_2>
0.18175876

>  <GCUT_SMR_3>
3.1477339

>  <Kier1>
28.994083

>  <Kier2>
14.403703

>  <Kier3>
8.757576

>  <KierA1>
22.366474

>  <KierA2>
11.0237

>  <KierA3>
6.6654243

>  <KierFlex>
6.8489246

>  <lip_acc>
4

>  <lip_don>
1

>  <lip_druglike>
1

>  <lip_violation>
1

>  <logP(o/w)>
5.776

>  <logS>
-6.63131

>  <mr>
14.252346

>  <mutagenic>
0

>  <nmol>
1

>  <opr_brigid>
24

>  <opr_leadlike>
0

>  <opr_nring>
4

>  <opr_nrot>
11

>  <opr_violation>
3

>  <PC+>
0

>  <PC->
0

>  <PEOE_PC+>
2.3892307

>  <PEOE_PC->
-2.3892307

>  <PEOE_RPC+>
0.10016915

>  <PEOE_RPC->
0.13586836

>  <PEOE_VSA+0>
149.04196

>  <PEOE_VSA+1>
68.642342

>  <PEOE_VSA+2>
18.041691

>  <PEOE_VSA+3>
8.6190128

>  <PEOE_VSA+4>
12.949531

>  <PEOE_VSA+5>
0

>  <PEOE_VSA+6>
0

>  <PEOE_VSA-0>
125.94408

>  <PEOE_VSA-1>
85.784325

>  <PEOE_VSA-2>
0

>  <PEOE_VSA-3>
0

>  <PEOE_VSA-4>
23.817272

>  <PEOE_VSA-5>
13.566921

>  <PEOE_VSA-6>
0.13689101

>  <PEOE_VSA_FHYD>
0.90036285

>  <PEOE_VSA_FNEG>
0.4920589

>  <PEOE_VSA_FPNEG>
0.074072696

>  <PEOE_VSA_FPOL>
0.099637173

>  <PEOE_VSA_FPOS>
0.50794113

>  <PEOE_VSA_FPPOS>
0.025564473

>  <PEOE_VSA_HYD>
456.07343

>  <PEOE_VSA_NEG>
249.2495

>  <PEOE_VSA_PNEG>
37.521084

>  <PEOE_VSA_POL>
50.470615

>  <PEOE_VSA_POS>
257.29453

>  <PEOE_VSA_PPOS>
12.949531

>  <petitjean>
0.47368422

>  <petitjeanSC>
0.89999998

>  <Q_PC+>
0

>  <Q_PC->
0

>  <Q_RPC+>
0

>  <Q_RPC->
0

>  <Q_VSA_FHYD>
1

>  <Q_VSA_FNEG>
0

>  <Q_VSA_FPNEG>
0

>  <Q_VSA_FPOL>
0

>  <Q_VSA_FPOS>
1

>  <Q_VSA_FPPOS>
0

>  <Q_VSA_HYD>
506.54404

>  <Q_VSA_NEG>
0

>  <Q_VSA_PNEG>
0

>  <Q_VSA_POL>
0

>  <Q_VSA_POS>
506.54404

>  <Q_VSA_PPOS>
0

>  <radius>
10

>  <reactive>
0

>  <rings>
4

>  <RPC+>
0

>  <RPC->
0

>  <rsynth>
1

>  <SlogP>
5.7500401

>  <SlogP_VSA0>
0

>  <SlogP_VSA1>
29.518162

>  <SlogP_VSA2>
42.104252

>  <SlogP_VSA3>
110.63747

>  <SlogP_VSA4>
12.7423

>  <SlogP_VSA5>
0

>  <SlogP_VSA6>
4.4107962

>  <SlogP_VSA7>
194.07503

>  <SlogP_VSA8>
37.736813

>  <SlogP_VSA9>
99.329002

>  <SMR>
14.13027

>  <SMR_VSA0>
23.862217

>  <SMR_VSA1>
36.168854

>  <SMR_VSA2>
18.242037

>  <SMR_VSA3>
17.153095

>  <SMR_VSA4>
20.767498

>  <SMR_VSA5>
231.81184

>  <SMR_VSA6>
115.89626

>  <SMR_VSA7>
66.652031

>  <TPSA>
35.580002

>  <VAdjEq>
0.3281796

>  <VAdjMa>
6.2854023

>  <VDistEq>
4.0879111

>  <VDistMa>
10.014017

>  <vdw_area>
506.54404

>  <vdw_vol>
697.62799

>  <vsa_acc>
13.566921

>  <vsa_acid>
0

>  <vsa_base>
0

>  <vsa_don>
5.6825762

>  <vsa_hyd>
445.72559

>  <vsa_other>
12.949531

>  <vsa_pol>
19.249496

>  <Weight>
491.62598

>  <weinerPath>
4961

>  <weinerPol>
54

>  <zagreb>
184

$$$$