O(C)c1cc2CC[C@H]3[C@@H]4CC[C@@](O)(C#C)[C@]4(CC[C@@H]3c2cc1)C
  MOE2013           2D

 23 26  0  0  1  0  0  0  0  0999 V2000
    0.0000    0.0000    0.0000 O   0  0  0  0  0  0  0  0  0  0  0  0
   -0.7560   -1.2960    0.0000 C   0  0  0  0  0  0  0  0  0  0  0  0
    1.5000   -0.0070    0.0000 C   0  0  0  0  0  0  0  0  0  0  0  0
    2.2560    1.2890    0.0000 C   0  0  0  0  0  0  0  0  0  0  0  0
    3.7560    1.2820    0.0000 C   0  0  0  0  0  0  0  0  0  0  0  0
    4.5120    2.5770    0.0000 C   0  0  0  0  0  0  0  0  0  0  0  0
    6.0120    2.5700    0.0000 C   0  0  0  0  0  0  0  0  0  0  0  0
    6.7560    1.2680    0.0000 C   0  0  1  0  0  0  0  0  0  0  0  0
    8.2560    1.2610    0.0000 C   0  0  2  0  0  0  0  0  0  0  0  0
    9.2650    2.3710    0.0000 C   0  0  0  0  0  0  0  0  0  0  0  0
   10.6320    1.7550    0.0000 C   0  0  0  0  0  0  0  0  0  0  0  0
   10.4690    0.2630    0.0000 C   0  0  1  0  0  0  0  0  0  0  0  0
   10.8500   -1.1870    0.0000 O   0  0  0  0  0  0  0  0  0  0  0  0
   11.9290   -0.0810    0.0000 C   0  0  0  0  0  0  0  0  0  0  0  0
   13.3890   -0.4250    0.0000 C   0  0  0  0  0  0  0  0  0  0  0  0
    9.0000   -0.0420    0.0000 C   0  0  1  0  0  0  0  0  0  0  0  0
    8.2440   -1.3370    0.0000 C   0  0  0  0  0  0  0  0  0  0  0  0
    6.7440   -1.3300    0.0000 C   0  0  0  0  0  0  0  0  0  0  0  0
    6.0000   -0.0280    0.0000 C   0  0  2  0  0  0  0  0  0  0  0  0
    4.5000   -0.0210    0.0000 C   0  0  0  0  0  0  0  0  0  0  0  0
    3.7440   -1.3160    0.0000 C   0  0  0  0  0  0  0  0  0  0  0  0
    2.2440   -1.3090    0.0000 C   0  0  0  0  0  0  0  0  0  0  0  0
    9.8760   -1.2590    0.0000 C   0  0  0  0  0  0  0  0  0  0  0  0
  1  2  1  0  0  0  0
  1  3  1  0  0  0  0
  3  4  1  0  0  0  0
  3 22  2  0  0  0  0
  4  5  2  0  0  0  0
  5  6  1  0  0  0  0
  5 20  1  0  0  0  0
  6  7  1  0  0  0  0
  8  7  1  1  0  0  0
  8  9  1  0  0  0  0
  8 19  1  0  0  0  0
  9 10  1  6  0  0  0
  9 16  1  0  0  0  0
 10 11  1  0  0  0  0
 11 12  1  0  0  0  0
 12 13  1  6  0  0  0
 12 14  1  1  0  0  0
 12 16  1  0  0  0  0
 14 15  3  0  0  0  0
 16 17  1  0  0  0  0
 16 23  1  6  0  0  0
 17 18  1  0  0  0  0
 18 19  1  0  0  0  0
 19 20  1  6  0  0  0
 20 21  2  0  0  0  0
 21 22  1  0  0  0  0
M  END
>  <Index>
679

>  <ID>
HT1321

>  <class>
0

>  <apol>
55.90062

>  <ast_fraglike>
0

>  <ast_fraglike_ext>
0

>  <ast_violation>
2

>  <ast_violation_ext>
2

>  <a_acc>
2

>  <a_acid>
0

>  <a_aro>
6

>  <a_base>
0

>  <a_count>
49

>  <a_don>
1

>  <a_donacc>
3

>  <a_heavy>
23

>  <a_hyd>
21

>  <a_IC>
58.670685

>  <a_ICM>
1.1973609

>  <a_nB>
0

>  <a_nBr>
0

>  <a_nC>
21

>  <a_nCl>
0

>  <a_nF>
0

>  <a_nH>
26

>  <a_nI>
0

>  <a_nN>
0

>  <a_nO>
2

>  <a_nP>
0

>  <a_nS>
0

>  <balabanJ>
1.5475912

>  <BCUT_PEOE_0>
-2.8824427

>  <BCUT_PEOE_1>
-0.5550577

>  <BCUT_PEOE_2>
0.51695639

>  <BCUT_PEOE_3>
2.9363773

>  <BCUT_SLOGP_0>
-2.8058109

>  <BCUT_SLOGP_1>
-0.5115189

>  <BCUT_SLOGP_2>
0.59626144

>  <BCUT_SLOGP_3>
3.0056314

>  <BCUT_SMR_0>
-2.6298163

>  <BCUT_SMR_1>
-0.34155443

>  <BCUT_SMR_2>
0.68312138

>  <BCUT_SMR_3>
3.1828873

>  <bpol>
30.339382

>  <b_1rotN>
1

>  <b_1rotR>
0.03846154

>  <b_ar>
6

>  <b_count>
52

>  <b_double>
0

>  <b_heavy>
26

>  <b_max1len>
3

>  <b_rotN>
2

>  <b_rotR>
0.07692308

>  <b_single>
45

>  <b_triple>
1

>  <chi0>
16.242277

>  <chi0v>
14.139554

>  <chi0v_C>
13.284093

>  <chi0_C>
14.53517

>  <chi1>
11.021117

>  <chi1v>
8.8921099

>  <chi1v_C>
8.0561314

>  <chi1_C>
9.4057617

>  <chiral>
5

>  <chiral_u>
0

>  <density>
0.67339975

>  <diameter>
12

>  <FCharge>
0

>  <GCUT_PEOE_0>
-0.79353225

>  <GCUT_PEOE_1>
-0.39441386

>  <GCUT_PEOE_2>
0.020834548

>  <GCUT_PEOE_3>
3.1502104

>  <GCUT_SLOGP_0>
-0.88822711

>  <GCUT_SLOGP_1>
-0.32207164

>  <GCUT_SLOGP_2>
0.11243509

>  <GCUT_SLOGP_3>
3.2419674

>  <GCUT_SMR_0>
-0.53541714

>  <GCUT_SMR_1>
-0.19634224

>  <GCUT_SMR_2>
0.13006157

>  <GCUT_SMR_3>
3.3876455

>  <Kier1>
16.467455

>  <Kier2>
5.7715645

>  <Kier3>
2.2892821

>  <KierA1>
13.912407

>  <KierA2>
4.8364911

>  <KierA3>
1.9065726

>  <KierFlex>
2.9255319

>  <lip_acc>
2

>  <lip_don>
1

>  <lip_druglike>
1

>  <lip_violation>
0

>  <logP(o/w)>
4.487

>  <logS>
-5.5493698

>  <mr>
9.1517735

>  <mutagenic>
0

>  <nmol>
1

>  <opr_brigid>
21

>  <opr_leadlike>
1

>  <opr_nring>
4

>  <opr_nrot>
2

>  <opr_violation>
0

>  <PC+>
0

>  <PC->
0

>  <PEOE_PC+>
1.453938

>  <PEOE_PC->
-1.453938

>  <PEOE_RPC+>
0.14540292

>  <PEOE_RPC->
0.25859955

>  <PEOE_VSA+0>
101.7746

>  <PEOE_VSA+1>
34.050835

>  <PEOE_VSA+2>
4.2653861

>  <PEOE_VSA+3>
0

>  <PEOE_VSA+4>
10.324173

>  <PEOE_VSA+5>
0

>  <PEOE_VSA+6>
0

>  <PEOE_VSA-0>
81.134766

>  <PEOE_VSA-1>
46.811077

>  <PEOE_VSA-2>
25.854858

>  <PEOE_VSA-3>
0

>  <PEOE_VSA-4>
0

>  <PEOE_VSA-5>
0

>  <PEOE_VSA-6>
10.271297

>  <PEOE_VSA_FHYD>
0.93451089

>  <PEOE_VSA_FNEG>
0.52171314

>  <PEOE_VSA_FPNEG>
0.032660481

>  <PEOE_VSA_FPOL>
0.065489098

>  <PEOE_VSA_FPOS>
0.47828686

>  <PEOE_VSA_FPPOS>
0.032828614

>  <PEOE_VSA_HYD>
293.89154

>  <PEOE_VSA_NEG>
164.07199

>  <PEOE_VSA_PNEG>
10.271297

>  <PEOE_VSA_POL>
20.595469

>  <PEOE_VSA_POS>
150.41499

>  <PEOE_VSA_PPOS>
10.324173

>  <petitjean>
0.5

>  <petitjeanSC>
1

>  <Q_PC+>
0

>  <Q_PC->
0

>  <Q_RPC+>
0

>  <Q_RPC->
0

>  <Q_VSA_FHYD>
1

>  <Q_VSA_FNEG>
0

>  <Q_VSA_FPNEG>
0

>  <Q_VSA_FPOL>
0

>  <Q_VSA_FPOS>
1

>  <Q_VSA_FPPOS>
0

>  <Q_VSA_HYD>
314.487

>  <Q_VSA_NEG>
0

>  <Q_VSA_PNEG>
0

>  <Q_VSA_POL>
0

>  <Q_VSA_POS>
314.487

>  <Q_VSA_PPOS>
0

>  <radius>
6

>  <reactive>
0

>  <rings>
4

>  <RPC+>
0

>  <RPC->
0

>  <rsynth>
0.043478262

>  <SlogP>
3.9155779

>  <SlogP_VSA0>
36.385113

>  <SlogP_VSA1>
0

>  <SlogP_VSA2>
0

>  <SlogP_VSA3>
17.030573

>  <SlogP_VSA4>
46.680923

>  <SlogP_VSA5>
54.252274

>  <SlogP_VSA6>
4.4107962

>  <SlogP_VSA7>
52.929554

>  <SlogP_VSA8>
94.342026

>  <SlogP_VSA9>
38.569443

>  <SMR>
9.1393805

>  <SMR_VSA0>
0

>  <SMR_VSA1>
36.385113

>  <SMR_VSA2>
8.8215923

>  <SMR_VSA3>
33.055946

>  <SMR_VSA4>
0

>  <SMR_VSA5>
166.13998

>  <SMR_VSA6>
31.488184

>  <SMR_VSA7>
68.709885

>  <TPSA>
29.459999

>  <VAdjEq>
0.46357921

>  <VAdjMa>
5.7004399

>  <VDistEq>
3.1844075

>  <VDistMa>
8.7488861

>  <vdw_area>
314.487

>  <vdw_vol>
460.99957

>  <vsa_acc>
2.503756

>  <vsa_acid>
0

>  <vsa_base>
0

>  <vsa_don>
0

>  <vsa_hyd>
272.06149

>  <vsa_other>
0

>  <vsa_pol>
16.070677

>  <Weight>
310.43698

>  <weinerPath>
1092

>  <weinerPol>
48

>  <zagreb>
134

$$$$