O=C(N[C@@H](C(C)(C)C)C(=O)NC)[C@@H]([C@H](O)C(=O)NO)CC(C)C
  MOE2013           2D

 23 22  0  0  1  0  0  0  0  0999 V2000
    0.0000    0.0000    0.0000 O   0  0  0  0  0  0  0  0  0  0  0  0
    0.7440    1.3020    0.0000 C   0  0  0  0  0  0  0  0  0  0  0  0
   -0.0120    2.5980    0.0000 N   0  0  0  0  0  0  0  0  0  0  0  0
   -1.5120    2.5910    0.0000 C   0  0  1  0  0  0  0  0  0  0  0  0
   -2.2680    3.8870    0.0000 C   0  0  0  0  0  0  0  0  0  0  0  0
   -0.9720    4.6430    0.0000 C   0  0  0  0  0  0  0  0  0  0  0  0
   -3.5630    3.1310    0.0000 C   0  0  0  0  0  0  0  0  0  0  0  0
   -3.0240    5.1820    0.0000 C   0  0  0  0  0  0  0  0  0  0  0  0
   -2.2560    1.2890    0.0000 C   0  0  0  0  0  0  0  0  0  0  0  0
   -1.5000   -0.0070    0.0000 O   0  0  0  0  0  0  0  0  0  0  0  0
   -3.7560    1.2820    0.0000 N   0  0  0  0  0  0  0  0  0  0  0  0
   -4.5000   -0.0210    0.0000 C   0  0  0  0  0  0  0  0  0  0  0  0
    2.2440    1.3090    0.0000 C   0  0  1  0  0  0  0  0  0  0  0  0
    2.9880    2.6120    0.0000 C   0  0  2  0  0  0  0  0  0  0  0  0
    2.2320    3.9070    0.0000 O   0  0  0  0  0  0  0  0  0  0  0  0
    4.4880    2.6190    0.0000 C   0  0  0  0  0  0  0  0  0  0  0  0
    5.2440    1.3230    0.0000 O   0  0  0  0  0  0  0  0  0  0  0  0
    5.2320    3.9210    0.0000 N   0  0  0  0  0  0  0  0  0  0  0  0
    6.7320    3.9280    0.0000 O   0  0  0  0  0  0  0  0  0  0  0  0
    3.0000    0.0140    0.0000 C   0  0  0  0  0  0  0  0  0  0  0  0
    2.2560   -1.2890    0.0000 C   0  0  0  0  0  0  0  0  0  0  0  0
    3.0120   -2.5840    0.0000 C   0  0  0  0  0  0  0  0  0  0  0  0
    0.7560   -1.2960    0.0000 C   0  0  0  0  0  0  0  0  0  0  0  0
  1  2  2  0  0  0  0
  2  3  1  0  0  0  0
  4  3  1  6  0  0  0
  4  5  1  0  0  0  0
  4  9  1  0  0  0  0
  5  6  1  0  0  0  0
  5  7  1  0  0  0  0
  5  8  1  0  0  0  0
  9 10  2  0  0  0  0
  9 11  1  0  0  0  0
 11 12  1  0  0  0  0
 13  2  1  1  0  0  0
 13 14  1  0  0  0  0
 13 20  1  0  0  0  0
 14 15  1  6  0  0  0
 14 16  1  0  0  0  0
 16 17  2  0  0  0  0
 16 18  1  0  0  0  0
 18 19  1  0  0  0  0
 20 21  1  0  0  0  0
 21 22  1  0  0  0  0
 21 23  1  0  0  0  0
M  END
>  <Index>
652

>  <ID>
HT1272

>  <class>
0

>  <apol>
53.046997

>  <ast_fraglike>
0

>  <ast_fraglike_ext>
0

>  <ast_violation>
3

>  <ast_violation_ext>
5

>  <a_acc>
5

>  <a_acid>
0

>  <a_aro>
0

>  <a_base>
0

>  <a_count>
52

>  <a_don>
5

>  <a_donacc>
10

>  <a_heavy>
23

>  <a_hyd>
12

>  <a_IC>
80.573532

>  <a_ICM>
1.5494909

>  <a_nB>
0

>  <a_nBr>
0

>  <a_nC>
15

>  <a_nCl>
0

>  <a_nF>
0

>  <a_nH>
29

>  <a_nI>
0

>  <a_nN>
3

>  <a_nO>
5

>  <a_nP>
0

>  <a_nS>
0

>  <balabanJ>
5.2291212

>  <BCUT_PEOE_0>
-2.721503

>  <BCUT_PEOE_1>
-0.45645887

>  <BCUT_PEOE_2>
0.39779523

>  <BCUT_PEOE_3>
2.7302592

>  <BCUT_SLOGP_0>
-2.8423977

>  <BCUT_SLOGP_1>
-0.45166758

>  <BCUT_SLOGP_2>
0.34485024

>  <BCUT_SLOGP_3>
2.7300529

>  <BCUT_SMR_0>
-2.4775643

>  <BCUT_SMR_1>
-0.27770987

>  <BCUT_SMR_2>
0.50772578

>  <BCUT_SMR_3>
2.9672754

>  <bpol>
35.237003

>  <b_1rotN>
7

>  <b_1rotR>
0.31818181

>  <b_ar>
0

>  <b_count>
51

>  <b_double>
3

>  <b_heavy>
22

>  <b_max1len>
7

>  <b_rotN>
11

>  <b_rotR>
0.5

>  <b_single>
48

>  <b_triple>
0

>  <chi0>
18.369879

>  <chi0v>
14.63568

>  <chi0v_C>
11.016508

>  <chi0_C>
11.248559

>  <chi1>
10.449814

>  <chi1v>
7.5920844

>  <chi1v_C>
4.9592309

>  <chi1_C>
5.0932055

>  <chiral>
3

>  <chiral_u>
0

>  <density>
0.73869616

>  <diameter>
10

>  <FCharge>
0

>  <GCUT_PEOE_0>
-0.8429209

>  <GCUT_PEOE_1>
-0.40193135

>  <GCUT_PEOE_2>
0.048112188

>  <GCUT_PEOE_3>
2.8242466

>  <GCUT_SLOGP_0>
-1.1706536

>  <GCUT_SLOGP_1>
-0.37067121

>  <GCUT_SLOGP_2>
0.0066841221

>  <GCUT_SLOGP_3>
2.7817247

>  <GCUT_SMR_0>
-0.53563845

>  <GCUT_SMR_1>
-0.22812402

>  <GCUT_SMR_2>
0.12554161

>  <GCUT_SMR_3>
3.0408292

>  <Kier1>
23

>  <Kier2>
10.095734

>  <Kier3>
7.6124568

>  <KierA1>
18.911238

>  <KierA2>
8.2224607

>  <KierA3>
6.1554141

>  <KierFlex>
6.760736

>  <lip_acc>
8

>  <lip_don>
5

>  <lip_druglike>
1

>  <lip_violation>
0

>  <logP(o/w)>
0.33000001

>  <logS>
-2.37696

>  <mr>
8.6272507

>  <mutagenic>
1

>  <nmol>
1

>  <opr_brigid>
0

>  <opr_leadlike>
1

>  <opr_nring>
0

>  <opr_nrot>
8

>  <opr_violation>
0

>  <PC+>
0

>  <PC->
0

>  <PEOE_PC+>
2.806119

>  <PEOE_PC->
-2.806119

>  <PEOE_RPC+>
0.097408734

>  <PEOE_RPC->
0.13595508

>  <PEOE_VSA+0>
117.07718

>  <PEOE_VSA+1>
8.5307722

>  <PEOE_VSA+2>
8.050889

>  <PEOE_VSA+3>
25.857038

>  <PEOE_VSA+4>
46.547409

>  <PEOE_VSA+5>
12.949531

>  <PEOE_VSA+6>
0

>  <PEOE_VSA-0>
8.701313

>  <PEOE_VSA-1>
93.738388

>  <PEOE_VSA-2>
0

>  <PEOE_VSA-3>
0

>  <PEOE_VSA-4>
5.3395767

>  <PEOE_VSA-5>
51.866905

>  <PEOE_VSA-6>
8.0413227

>  <PEOE_VSA_FHYD>
0.67741239

>  <PEOE_VSA_FNEG>
0.43363684

>  <PEOE_VSA_FPNEG>
0.16872963

>  <PEOE_VSA_FPOL>
0.32258764

>  <PEOE_VSA_FPOS>
0.56636316

>  <PEOE_VSA_FPPOS>
0.15385801

>  <PEOE_VSA_HYD>
261.9556

>  <PEOE_VSA_NEG>
167.6875

>  <PEOE_VSA_PNEG>
65.247803

>  <PEOE_VSA_POL>
124.74474

>  <PEOE_VSA_POS>
219.01282

>  <PEOE_VSA_PPOS>
59.496937

>  <petitjean>
0.5

>  <petitjeanSC>
1

>  <Q_PC+>
0

>  <Q_PC->
0

>  <Q_RPC+>
0

>  <Q_RPC->
0

>  <Q_VSA_FHYD>
1

>  <Q_VSA_FNEG>
0

>  <Q_VSA_FPNEG>
0

>  <Q_VSA_FPOL>
0

>  <Q_VSA_FPOS>
1

>  <Q_VSA_FPPOS>
0

>  <Q_VSA_HYD>
386.70032

>  <Q_VSA_NEG>
0

>  <Q_VSA_PNEG>
0

>  <Q_VSA_POL>
0

>  <Q_VSA_POS>
386.70032

>  <Q_VSA_PPOS>
0

>  <radius>
5

>  <reactive>
0

>  <rings>
0

>  <RPC+>
0

>  <RPC->
0

>  <rsynth>
1

>  <SlogP>
-0.20810001

>  <SlogP_VSA0>
82.031815

>  <SlogP_VSA1>
15.776351

>  <SlogP_VSA2>
107.64137

>  <SlogP_VSA3>
0

>  <SlogP_VSA4>
8.8215923

>  <SlogP_VSA5>
32.897186

>  <SlogP_VSA6>
0

>  <SlogP_VSA7>
0

>  <SlogP_VSA8>
18.868406

>  <SlogP_VSA9>
166.63008

>  <SMR>
8.5175695

>  <SMR_VSA0>
71.586647

>  <SMR_VSA1>
25.385227

>  <SMR_VSA2>
91.072281

>  <SMR_VSA3>
10.450618

>  <SMR_VSA4>
0

>  <SMR_VSA5>
18.868406

>  <SMR_VSA6>
15.776351

>  <SMR_VSA7>
199.52727

>  <TPSA>
127.76

>  <VAdjEq>
0.41327167

>  <VAdjMa>
5.4594316

>  <VDistEq>
3.1202505

>  <VDistMa>
8.7984428

>  <vdw_area>
386.70032

>  <vdw_vol>
448.6459

>  <vsa_acc>
40.700764

>  <vsa_acid>
0

>  <vsa_base>
0

>  <vsa_don>
22.250414

>  <vsa_hyd>
216.32535

>  <vsa_other>
38.848595

>  <vsa_pol>
93.48362

>  <Weight>
331.41299

>  <weinerPath>
1180

>  <weinerPol>
34

>  <zagreb>
106

$$$$