Clc1ccc(cc1)C1(O)N2C(=NCC2)c2c1cccc2
  MOE2013           2D

 20 23  0  0  1  0  0  0  0  0999 V2000
    0.0000    0.0000    0.0000 Cl  0  0  0  0  0  0  0  0  0  0  0  0
   -1.5000    0.0020    0.0000 C   0  0  0  0  0  0  0  0  0  0  0  0
   -2.2480    1.3020    0.0000 C   0  0  0  0  0  0  0  0  0  0  0  0
   -3.7480    1.3030    0.0000 C   0  0  0  0  0  0  0  0  0  0  0  0
   -4.5000    0.0050    0.0000 C   0  0  0  0  0  0  0  0  0  0  0  0
   -3.7520   -1.2950    0.0000 C   0  0  0  0  0  0  0  0  0  0  0  0
   -2.2520   -1.2960    0.0000 C   0  0  0  0  0  0  0  0  0  0  0  0
   -6.0000    0.0070    0.0000 C   0  0  3  0  0  0  0  0  0  0  0  0
   -5.2940    1.3310    0.0000 O   0  0  0  0  0  0  0  0  0  0  0  0
   -6.0800   -1.4910    0.0000 N   0  0  0  0  0  0  0  0  0  0  0  0
   -7.5300   -1.8770    0.0000 C   0  0  0  0  0  0  0  0  0  0  0  0
   -7.6100   -3.3750    0.0000 N   0  0  0  0  0  0  0  0  0  0  0  0
   -6.2100   -3.9140    0.0000 C   0  0  0  0  0  0  0  0  0  0  0  0
   -5.2650   -2.7500    0.0000 C   0  0  0  0  0  0  0  0  0  0  0  0
   -8.3450   -0.6180    0.0000 C   0  0  0  0  0  0  0  0  0  0  0  0
   -7.4000    0.5460    0.0000 C   0  0  0  0  0  0  0  0  0  0  0  0
   -7.9360    1.9470    0.0000 C   0  0  0  0  0  0  0  0  0  0  0  0
   -9.4170    2.1840    0.0000 C   0  0  0  0  0  0  0  0  0  0  0  0
  -10.3620    1.0190    0.0000 C   0  0  0  0  0  0  0  0  0  0  0  0
   -9.8260   -0.3820    0.0000 C   0  0  0  0  0  0  0  0  0  0  0  0
  1  2  1  0  0  0  0
  2  3  1  0  0  0  0
  2  7  2  0  0  0  0
  3  4  2  0  0  0  0
  4  5  1  0  0  0  0
  5  6  2  0  0  0  0
  5  8  1  0  0  0  0
  6  7  1  0  0  0  0
  8  9  1  0  0  0  0
  8 10  1  0  0  0  0
  8 16  1  0  0  0  0
 10 11  1  0  0  0  0
 10 14  1  0  0  0  0
 11 12  2  0  0  0  0
 11 15  1  0  0  0  0
 12 13  1  0  0  0  0
 13 14  1  0  0  0  0
 15 16  1  0  0  0  0
 15 20  2  0  0  0  0
 16 17  2  0  0  0  0
 17 18  1  0  0  0  0
 18 19  2  0  0  0  0
 19 20  1  0  0  0  0
M  END
>  <Index>
654

>  <ID>
HT1274

>  <class>
0

>  <apol>
42.010307

>  <ast_fraglike>
1

>  <ast_fraglike_ext>
1

>  <ast_violation>
0

>  <ast_violation_ext>
0

>  <a_acc>
2

>  <a_acid>
0

>  <a_aro>
12

>  <a_base>
0

>  <a_count>
33

>  <a_don>
1

>  <a_donacc>
3

>  <a_heavy>
20

>  <a_hyd>
15

>  <a_IC>
52.359291

>  <a_ICM>
1.5866451

>  <a_nB>
0

>  <a_nBr>
0

>  <a_nC>
16

>  <a_nCl>
1

>  <a_nF>
0

>  <a_nH>
13

>  <a_nI>
0

>  <a_nN>
2

>  <a_nO>
1

>  <a_nP>
0

>  <a_nS>
0

>  <balabanJ>
1.6397845

>  <BCUT_PEOE_0>
-2.5028529

>  <BCUT_PEOE_1>
-0.64423704

>  <BCUT_PEOE_2>
0.69910645

>  <BCUT_PEOE_3>
2.6261303

>  <BCUT_SLOGP_0>
-2.5690844

>  <BCUT_SLOGP_1>
-0.55263132

>  <BCUT_SLOGP_2>
0.82758665

>  <BCUT_SLOGP_3>
2.6198719

>  <BCUT_SMR_0>
-2.236243

>  <BCUT_SMR_1>
-0.47605851

>  <BCUT_SMR_2>
0.87878019

>  <BCUT_SMR_3>
2.9113634

>  <bpol>
17.93169

>  <b_1rotN>
1

>  <b_1rotR>
0.043478262

>  <b_ar>
12

>  <b_count>
36

>  <b_double>
1

>  <b_heavy>
23

>  <b_max1len>
3

>  <b_rotN>
1

>  <b_rotR>
0.043478262

>  <b_single>
23

>  <b_triple>
0

>  <chi0>
13.742276

>  <chi0v>
11.50855

>  <chi0v_C>
9.0330153

>  <chi0_C>
10.457819

>  <chi1>
9.709362

>  <chi1v>
6.992547

>  <chi1v_C>
4.8987174

>  <chi1_C>
6.6935067

>  <chiral>
1

>  <chiral_u>
1

>  <density>
0.77884293

>  <diameter>
9

>  <FCharge>
0

>  <GCUT_PEOE_0>
-0.83121538

>  <GCUT_PEOE_1>
-0.39884657

>  <GCUT_PEOE_2>
0.08482983

>  <GCUT_PEOE_3>
2.645453

>  <GCUT_SLOGP_0>
-0.95243347

>  <GCUT_SLOGP_1>
-0.29687288

>  <GCUT_SLOGP_2>
0.17299591

>  <GCUT_SLOGP_3>
2.7147048

>  <GCUT_SMR_0>
-0.51294243

>  <GCUT_SMR_1>
-0.21154135

>  <GCUT_SMR_2>
0.25503787

>  <GCUT_SMR_3>
2.9367173

>  <Kier1>
13.648394

>  <Kier2>
5.0253062

>  <Kier3>
1.9608401

>  <KierA1>
10.576992

>  <KierA2>
3.8380983

>  <KierA3>
1.4816843

>  <KierFlex>
2.0297768

>  <lip_acc>
3

>  <lip_don>
1

>  <lip_druglike>
1

>  <lip_violation>
0

>  <logP(o/w)>
3.8099999

>  <logS>
-4.1466398

>  <mr>
7.8775678

>  <mutagenic>
0

>  <nmol>
1

>  <opr_brigid>
20

>  <opr_leadlike>
1

>  <opr_nring>
4

>  <opr_nrot>
1

>  <opr_violation>
0

>  <PC+>
0

>  <PC->
0

>  <PEOE_PC+>
1.4458253

>  <PEOE_PC->
-1.4458253

>  <PEOE_RPC+>
0.14726594

>  <PEOE_RPC->
0.25048256

>  <PEOE_VSA+0>
24.33769

>  <PEOE_VSA+1>
64.376953

>  <PEOE_VSA+2>
11.190562

>  <PEOE_VSA+3>
0

>  <PEOE_VSA+4>
10.324173

>  <PEOE_VSA+5>
0

>  <PEOE_VSA+6>
0

>  <PEOE_VSA-0>
24.509808

>  <PEOE_VSA-1>
103.11137

>  <PEOE_VSA-2>
0

>  <PEOE_VSA-3>
0

>  <PEOE_VSA-4>
0

>  <PEOE_VSA-5>
5.6825762

>  <PEOE_VSA-6>
7.7675405

>  <PEOE_VSA_FHYD>
0.90539503

>  <PEOE_VSA_FNEG>
0.56136459

>  <PEOE_VSA_FPNEG>
0.053522006

>  <PEOE_VSA_FPOL>
0.094604954

>  <PEOE_VSA_FPOS>
0.43863544

>  <PEOE_VSA_FPPOS>
0.041082948

>  <PEOE_VSA_HYD>
227.52638

>  <PEOE_VSA_NEG>
141.07129

>  <PEOE_VSA_PNEG>
13.450116

>  <PEOE_VSA_POL>
23.774288

>  <PEOE_VSA_POS>
110.22939

>  <PEOE_VSA_PPOS>
10.324173

>  <petitjean>
0.44444445

>  <petitjeanSC>
0.80000001

>  <Q_PC+>
0

>  <Q_PC->
0

>  <Q_RPC+>
0

>  <Q_RPC->
0

>  <Q_VSA_FHYD>
1

>  <Q_VSA_FNEG>
0

>  <Q_VSA_FPNEG>
0

>  <Q_VSA_FPOL>
0

>  <Q_VSA_FPOS>
1

>  <Q_VSA_FPPOS>
0

>  <Q_VSA_HYD>
251.30067

>  <Q_VSA_NEG>
0

>  <Q_VSA_PNEG>
0

>  <Q_VSA_POL>
0

>  <Q_VSA_POS>
251.30067

>  <Q_VSA_PPOS>
0

>  <radius>
5

>  <reactive>
0

>  <rings>
4

>  <RPC+>
0

>  <RPC->
0

>  <rsynth>
1

>  <SlogP>
2.9207001

>  <SlogP_VSA0>
25.385227

>  <SlogP_VSA1>
5.4522343

>  <SlogP_VSA2>
0

>  <SlogP_VSA3>
36.879158

>  <SlogP_VSA4>
9.5567245

>  <SlogP_VSA5>
16.78553

>  <SlogP_VSA6>
3.5006065

>  <SlogP_VSA7>
141.14548

>  <SlogP_VSA8>
0

>  <SlogP_VSA9>
39.148643

>  <SMR>
7.9119802

>  <SMR_VSA0>
0

>  <SMR_VSA1>
45.295071

>  <SMR_VSA2>
0

>  <SMR_VSA3>
13.057331

>  <SMR_VSA4>
0

>  <SMR_VSA5>
141.14548

>  <SMR_VSA6>
39.207077

>  <SMR_VSA7>
39.148643

>  <TPSA>
35.830002

>  <VAdjEq>
0.51481563

>  <VAdjMa>
5.523562

>  <VDistEq>
2.8458562

>  <VDistMa>
8.3818073

>  <vdw_area>
251.30067

>  <vdw_vol>
365.60132

>  <vsa_acc>
5.6825762

>  <vsa_acid>
0

>  <vsa_base>
0

>  <vsa_don>
0

>  <vsa_hyd>
207.79428

>  <vsa_other>
11.190562

>  <vsa_pol>
19.249496

>  <Weight>
284.746

>  <weinerPath>
702

>  <weinerPol>
37

>  <zagreb>
116

$$$$