OC[C@@H](O)[C@@H](O)[C@H](O)[C@@H](O)CNC
  MOE2013           2D

 13 12  0  0  1  0  0  0  0  0999 V2000
    0.0000    0.0000    0.0000 O   0  0  0  0  0  0  0  0  0  0  0  0
    1.2970   -0.7530    0.0000 C   0  0  0  0  0  0  0  0  0  0  0  0
    2.5980   -0.0060    0.0000 C   0  0  1  0  0  0  0  0  0  0  0  0
    2.6020    1.4940    0.0000 O   0  0  0  0  0  0  0  0  0  0  0  0
    3.8950   -0.7590    0.0000 C   0  0  1  0  0  0  0  0  0  0  0  0
    3.8920   -2.2590    0.0000 O   0  0  0  0  0  0  0  0  0  0  0  0
    5.1960   -0.0120    0.0000 C   0  0  2  0  0  0  0  0  0  0  0  0
    5.2000    1.4880    0.0000 O   0  0  0  0  0  0  0  0  0  0  0  0
    6.4930   -0.7650    0.0000 C   0  0  1  0  0  0  0  0  0  0  0  0
    6.4900   -2.2650    0.0000 O   0  0  0  0  0  0  0  0  0  0  0  0
    7.7940   -0.0180    0.0000 C   0  0  0  0  0  0  0  0  0  0  0  0
    9.0910   -0.7710    0.0000 N   0  0  0  0  0  0  0  0  0  0  0  0
   10.3920   -0.0240    0.0000 C   0  0  0  0  0  0  0  0  0  0  0  0
  1  2  1  0  0  0  0
  2  3  1  0  0  0  0
  3  4  1  1  0  0  0
  3  5  1  0  0  0  0
  5  6  1  6  0  0  0
  5  7  1  0  0  0  0
  7  8  1  6  0  0  0
  7  9  1  0  0  0  0
  9 10  1  6  0  0  0
  9 11  1  0  0  0  0
 11 12  1  0  0  0  0
 12 13  1  0  0  0  0
M  END
>  <Index>
663

>  <ID>
HT1292

>  <class>
0

>  <apol>
28.765482

>  <ast_fraglike>
0

>  <ast_fraglike_ext>
0

>  <ast_violation>
2

>  <ast_violation_ext>
4

>  <a_acc>
6

>  <a_acid>
0

>  <a_aro>
0

>  <a_base>
0

>  <a_count>
30

>  <a_don>
6

>  <a_donacc>
12

>  <a_heavy>
13

>  <a_hyd>
7

>  <a_IC>
46.458725

>  <a_ICM>
1.5486242

>  <a_nB>
0

>  <a_nBr>
0

>  <a_nC>
7

>  <a_nCl>
0

>  <a_nF>
0

>  <a_nH>
17

>  <a_nI>
0

>  <a_nN>
1

>  <a_nO>
5

>  <a_nP>
0

>  <a_nS>
0

>  <balabanJ>
3.9916847

>  <BCUT_PEOE_0>
-2.6651795

>  <BCUT_PEOE_1>
-0.63922811

>  <BCUT_PEOE_2>
0.70681584

>  <BCUT_PEOE_3>
2.708447

>  <BCUT_SLOGP_0>
-2.8753586

>  <BCUT_SLOGP_1>
-0.76727664

>  <BCUT_SLOGP_2>
0.53560001

>  <BCUT_SLOGP_3>
2.4952271

>  <BCUT_SMR_0>
-2.4513085

>  <BCUT_SMR_1>
-0.52802539

>  <BCUT_SMR_2>
0.79822856

>  <BCUT_SMR_3>
2.9037626

>  <bpol>
19.244518

>  <b_1rotN>
6

>  <b_1rotR>
0.5

>  <b_ar>
0

>  <b_count>
29

>  <b_double>
0

>  <b_heavy>
12

>  <b_max1len>
10

>  <b_rotN>
6

>  <b_rotR>
0.5

>  <b_single>
29

>  <b_triple>
0

>  <chi0>
10.430721

>  <chi0v>
7.4596825

>  <chi0v_C>
4.7236147

>  <chi0_C>
4.7236147

>  <chi1>
6.0401111

>  <chi1v>
4.0190735

>  <chi1v_C>
1.8164966

>  <chi1_C>
1.8164966

>  <chiral>
4

>  <chiral_u>
0

>  <density>
0.80072266

>  <diameter>
8

>  <FCharge>
0

>  <GCUT_PEOE_0>
-0.84745359

>  <GCUT_PEOE_1>
-0.40684706

>  <GCUT_PEOE_2>
0.15742449

>  <GCUT_PEOE_3>
2.4579256

>  <GCUT_SLOGP_0>
-1.1533499

>  <GCUT_SLOGP_1>
-0.56757784

>  <GCUT_SLOGP_2>
-0.0077485279

>  <GCUT_SLOGP_3>
2.2992861

>  <GCUT_SMR_0>
-0.5263626

>  <GCUT_SMR_1>
-0.26391366

>  <GCUT_SMR_2>
0.20961408

>  <GCUT_SMR_3>
2.6470475

>  <Kier1>
13

>  <Kier2>
6.4533334

>  <Kier3>
4.1522493

>  <KierA1>
13

>  <KierA2>
6.4533334

>  <KierA3>
4.1522493

>  <KierFlex>
6.4533334

>  <lip_acc>
6

>  <lip_don>
6

>  <lip_druglike>
1

>  <lip_violation>
1

>  <logP(o/w)>
-3.0869999

>  <logS>
1.65522

>  <mr>
4.5070438

>  <mutagenic>
0

>  <nmol>
1

>  <opr_brigid>
0

>  <opr_leadlike>
1

>  <opr_nring>
0

>  <opr_nrot>
6

>  <opr_violation>
1

>  <PC+>
0

>  <PC->
0

>  <PEOE_PC+>
2.27231

>  <PEOE_PC->
-2.27231

>  <PEOE_RPC+>
0.092418462

>  <PEOE_RPC->
0.17267719

>  <PEOE_VSA+0>
34.519257

>  <PEOE_VSA+1>
45.44854

>  <PEOE_VSA+2>
23.333799

>  <PEOE_VSA+3>
0

>  <PEOE_VSA+4>
51.620865

>  <PEOE_VSA+5>
0

>  <PEOE_VSA+6>
0

>  <PEOE_VSA-0>
23.238689

>  <PEOE_VSA-1>
0

>  <PEOE_VSA-2>
0

>  <PEOE_VSA-3>
0

>  <PEOE_VSA-4>
0

>  <PEOE_VSA-5>
0

>  <PEOE_VSA-6>
38.974594

>  <PEOE_VSA_FHYD>
0.58277041

>  <PEOE_VSA_FNEG>
0.28651792

>  <PEOE_VSA_FPNEG>
0.17949414

>  <PEOE_VSA_FPOL>
0.41722959

>  <PEOE_VSA_FPOS>
0.71348208

>  <PEOE_VSA_FPPOS>
0.23773545

>  <PEOE_VSA_HYD>
126.54028

>  <PEOE_VSA_NEG>
62.21328

>  <PEOE_VSA_PNEG>
38.974594

>  <PEOE_VSA_POL>
90.595459

>  <PEOE_VSA_POS>
154.92245

>  <PEOE_VSA_PPOS>
51.620865

>  <petitjean>
0.5

>  <petitjeanSC>
1

>  <Q_PC+>
0

>  <Q_PC->
0

>  <Q_RPC+>
0

>  <Q_RPC->
0

>  <Q_VSA_FHYD>
1

>  <Q_VSA_FNEG>
0

>  <Q_VSA_FPNEG>
0

>  <Q_VSA_FPOL>
0

>  <Q_VSA_FPOS>
1

>  <Q_VSA_FPPOS>
0

>  <Q_VSA_HYD>
217.13574

>  <Q_VSA_NEG>
0

>  <Q_VSA_PNEG>
0

>  <Q_VSA_POL>
0

>  <Q_VSA_POS>
217.13574

>  <Q_VSA_PPOS>
0

>  <radius>
4

>  <reactive>
0

>  <rings>
0

>  <RPC+>
0

>  <RPC->
0

>  <rsynth>
1

>  <SlogP>
-3.3583

>  <SlogP_VSA0>
144.93689

>  <SlogP_VSA1>
0

>  <SlogP_VSA2>
25.874598

>  <SlogP_VSA3>
39.365837

>  <SlogP_VSA4>
0

>  <SlogP_VSA5>
32.897186

>  <SlogP_VSA6>
0

>  <SlogP_VSA7>
0

>  <SlogP_VSA8>
0

>  <SlogP_VSA9>
0

>  <SMR>
4.5039701

>  <SMR_VSA0>
0

>  <SMR_VSA1>
126.92613

>  <SMR_VSA2>
18.01075

>  <SMR_VSA3>
25.874598

>  <SMR_VSA4>
0

>  <SMR_VSA5>
0

>  <SMR_VSA6>
39.365837

>  <SMR_VSA7>
32.897186

>  <TPSA>
113.18

>  <VAdjEq>
0.5894835

>  <VAdjMa>
4.5849624

>  <VDistEq>
2.7226241

>  <VDistMa>
7.093854

>  <vdw_area>
217.13574

>  <vdw_vol>
243.79851

>  <vsa_acc>
0

>  <vsa_acid>
0

>  <vsa_base>
0

>  <vsa_don>
0

>  <vsa_hyd>
110.09152

>  <vsa_other>
0

>  <vsa_pol>
73.517181

>  <Weight>
195.215

>  <weinerPath>
264

>  <weinerPol>
17

>  <zagreb>
54

$$$$