O=C1N(C)C(=O)NC(=O)C1(CC)CC
  MOE2013           2D

 14 14  0  0  0  0  0  0  0  0999 V2000
    0.0000    0.0000    0.0000 O   0  0  0  0  0  0  0  0  0  0  0  0
   -0.0120   -1.5000    0.0000 C   0  0  0  0  0  0  0  0  0  0  0  0
    1.2810   -2.2610    0.0000 N   0  0  0  0  0  0  0  0  0  0  0  0
    2.5860   -1.5210    0.0000 C   0  0  0  0  0  0  0  0  0  0  0  0
    1.2680   -3.7600    0.0000 C   0  0  0  0  0  0  0  0  0  0  0  0
    2.5610   -4.5210    0.0000 O   0  0  0  0  0  0  0  0  0  0  0  0
   -0.0370   -4.5000    0.0000 N   0  0  0  0  0  0  0  0  0  0  0  0
   -1.3300   -3.7390    0.0000 C   0  0  0  0  0  0  0  0  0  0  0  0
   -2.6350   -4.4790    0.0000 O   0  0  0  0  0  0  0  0  0  0  0  0
   -1.3170   -2.2390    0.0000 C   0  0  0  0  0  0  0  0  0  0  0  0
   -2.8170   -2.2270    0.0000 C   0  0  0  0  0  0  0  0  0  0  0  0
   -3.5780   -3.5200    0.0000 C   0  0  0  0  0  0  0  0  0  0  0  0
   -2.0570   -0.9340    0.0000 C   0  0  0  0  0  0  0  0  0  0  0  0
   -3.5570   -0.9220    0.0000 C   0  0  0  0  0  0  0  0  0  0  0  0
  1  2  2  0  0  0  0
  2  3  1  0  0  0  0
  2 10  1  0  0  0  0
  3  4  1  0  0  0  0
  3  5  1  0  0  0  0
  5  6  2  0  0  0  0
  5  7  1  0  0  0  0
  7  8  1  0  0  0  0
  8  9  2  0  0  0  0
  8 10  1  0  0  0  0
 10 11  1  0  0  0  0
 10 13  1  0  0  0  0
 11 12  1  0  0  0  0
 13 14  1  0  0  0  0
M  END
>  <Index>
685

>  <ID>
HT1337

>  <class>
0

>  <apol>
29.781101

>  <ast_fraglike>
1

>  <ast_fraglike_ext>
1

>  <ast_violation>
0

>  <ast_violation_ext>
0

>  <a_acc>
3

>  <a_acid>
0

>  <a_aro>
0

>  <a_base>
0

>  <a_count>
28

>  <a_don>
1

>  <a_donacc>
4

>  <a_heavy>
14

>  <a_hyd>
6

>  <a_IC>
46.018757

>  <a_ICM>
1.643527

>  <a_nB>
0

>  <a_nBr>
0

>  <a_nC>
9

>  <a_nCl>
0

>  <a_nF>
0

>  <a_nH>
14

>  <a_nI>
0

>  <a_nN>
2

>  <a_nO>
3

>  <a_nP>
0

>  <a_nS>
0

>  <balabanJ>
2.9445703

>  <BCUT_PEOE_0>
-2.6522181

>  <BCUT_PEOE_1>
-0.24171235

>  <BCUT_PEOE_2>
0.045805167

>  <BCUT_PEOE_3>
2.7251108

>  <BCUT_SLOGP_0>
-2.7836192

>  <BCUT_SLOGP_1>
-0.086023837

>  <BCUT_SLOGP_2>
0.123

>  <BCUT_SLOGP_3>
2.7110116

>  <BCUT_SMR_0>
-2.4229238

>  <BCUT_SMR_1>
0.043115303

>  <BCUT_SMR_2>
0.1057

>  <BCUT_SMR_3>
2.9544303

>  <bpol>
20.818897

>  <b_1rotN>
2

>  <b_1rotR>
0.14285715

>  <b_ar>
0

>  <b_count>
28

>  <b_double>
3

>  <b_heavy>
14

>  <b_max1len>
6

>  <b_rotN>
2

>  <b_rotR>
0.14285715

>  <b_single>
25

>  <b_triple>
0

>  <chi0>
10.930721

>  <chi0v>
8.5861721

>  <chi0v_C>
6.4142137

>  <chi0_C>
6.6462646

>  <chi1>
6.4912348

>  <chi1v>
4.6281199

>  <chi1v_C>
2.6213202

>  <chi1_C>
2.6986706

>  <chiral>
0

>  <chiral_u>
0

>  <density>
0.76952797

>  <diameter>
6

>  <FCharge>
0

>  <GCUT_PEOE_0>
-0.78092921

>  <GCUT_PEOE_1>
-0.42065254

>  <GCUT_PEOE_2>
-0.11419483

>  <GCUT_PEOE_3>
2.5434525

>  <GCUT_SLOGP_0>
-1.1706008

>  <GCUT_SLOGP_1>
-0.26048616

>  <GCUT_SLOGP_2>
-0.037

>  <GCUT_SLOGP_3>
2.5004706

>  <GCUT_SMR_0>
-0.52452618

>  <GCUT_SMR_1>
-0.12921415

>  <GCUT_SMR_2>
-0.054299999

>  <GCUT_SMR_3>
2.7650378

>  <Kier1>
12.071428

>  <Kier2>
4.2448978

>  <Kier3>
1.76

>  <KierA1>
9.0034561

>  <KierA2>
3.0874026

>  <KierA3>
1.2555437

>  <KierFlex>
1.985521

>  <lip_acc>
5

>  <lip_don>
1

>  <lip_druglike>
1

>  <lip_violation>
0

>  <logP(o/w)>
1.082

>  <logS>
-1.7377

>  <mr>
5.0984063

>  <mutagenic>
0

>  <nmol>
1

>  <opr_brigid>
6

>  <opr_leadlike>
1

>  <opr_nring>
1

>  <opr_nrot>
2

>  <opr_violation>
0

>  <PC+>
0

>  <PC->
0

>  <PEOE_PC+>
1.5275939

>  <PEOE_PC->
-1.5275939

>  <PEOE_RPC+>
0.21692014

>  <PEOE_RPC->
0.18171172

>  <PEOE_VSA+0>
78.688705

>  <PEOE_VSA+1>
0

>  <PEOE_VSA+2>
0

>  <PEOE_VSA+3>
8.6190128

>  <PEOE_VSA+4>
25.899061

>  <PEOE_VSA+5>
0

>  <PEOE_VSA+6>
17.440542

>  <PEOE_VSA-0>
17.402626

>  <PEOE_VSA-1>
37.495354

>  <PEOE_VSA-2>
0

>  <PEOE_VSA-3>
0

>  <PEOE_VSA-4>
13.566921

>  <PEOE_VSA-5>
27.270733

>  <PEOE_VSA-6>
0

>  <PEOE_VSA_FHYD>
0.62816435

>  <PEOE_VSA_FNEG>
0.42289242

>  <PEOE_VSA_FPNEG>
0.18039191

>  <PEOE_VSA_FPOL>
0.37183565

>  <PEOE_VSA_FPOS>
0.57710761

>  <PEOE_VSA_FPPOS>
0.19144376

>  <PEOE_VSA_HYD>
142.2057

>  <PEOE_VSA_NEG>
95.735634

>  <PEOE_VSA_PNEG>
40.837654

>  <PEOE_VSA_POL>
84.177261

>  <PEOE_VSA_POS>
130.64732

>  <PEOE_VSA_PPOS>
43.339603

>  <petitjean>
0.5

>  <petitjeanSC>
1

>  <Q_PC+>
0

>  <Q_PC->
0

>  <Q_RPC+>
0

>  <Q_RPC->
0

>  <Q_VSA_FHYD>
1

>  <Q_VSA_FNEG>
0

>  <Q_VSA_FPNEG>
0

>  <Q_VSA_FPOL>
0

>  <Q_VSA_FPOS>
1

>  <Q_VSA_FPPOS>
0

>  <Q_VSA_HYD>
226.38297

>  <Q_VSA_NEG>
0

>  <Q_VSA_PNEG>
0

>  <Q_VSA_POL>
0

>  <Q_VSA_POS>
226.38297

>  <Q_VSA_PPOS>
0

>  <radius>
3

>  <reactive>
0

>  <rings>
1

>  <RPC+>
0

>  <RPC->
0

>  <rsynth>
1

>  <SlogP>
0.50099999

>  <SlogP_VSA0>
18.01075

>  <SlogP_VSA1>
18.471838

>  <SlogP_VSA2>
47.724434

>  <SlogP_VSA3>
0

>  <SlogP_VSA4>
0

>  <SlogP_VSA5>
32.897186

>  <SlogP_VSA6>
0

>  <SlogP_VSA7>
0

>  <SlogP_VSA8>
37.736813

>  <SlogP_VSA9>
90.514244

>  <SMR>
4.9323702

>  <SMR_VSA0>
71.586647

>  <SMR_VSA1>
3.1243138

>  <SMR_VSA2>
18.01075

>  <SMR_VSA3>
0

>  <SMR_VSA4>
0

>  <SMR_VSA5>
37.736813

>  <SMR_VSA6>
15.347524

>  <SMR_VSA7>
99.549217

>  <TPSA>
66.480003

>  <VAdjEq>
0.59167278

>  <VAdjMa>
4.8073549

>  <VDistEq>
2.3098426

>  <VDistMa>
7.3676176

>  <vdw_area>
226.38297

>  <vdw_vol>
257.58908

>  <vsa_acc>
40.700764

>  <vsa_acid>
0

>  <vsa_base>
0

>  <vsa_don>
5.6825762

>  <vsa_hyd>
124.33335

>  <vsa_other>
43.339603

>  <vsa_pol>
46.383339

>  <Weight>
198.222

>  <weinerPath>
264

>  <weinerPol>
27

>  <zagreb>
70

$$$$