OC(=O)CCCCCN
  MOE2013           2D

  9  8  0  0  0  0  0  0  0  0999 V2000
    0.0000    0.0000    0.0000 O   0  0  0  0  0  0  0  0  0  0  0  0
    1.3040   -0.7410    0.0000 C   0  0  0  0  0  0  0  0  0  0  0  0
    1.3150   -2.2410    0.0000 O   0  0  0  0  0  0  0  0  0  0  0  0
    2.5980    0.0180    0.0000 C   0  0  0  0  0  0  0  0  0  0  0  0
    3.9020   -0.7230    0.0000 C   0  0  0  0  0  0  0  0  0  0  0  0
    5.1960    0.0360    0.0000 C   0  0  0  0  0  0  0  0  0  0  0  0
    6.5000   -0.7050    0.0000 C   0  0  0  0  0  0  0  0  0  0  0  0
    7.7940    0.0540    0.0000 C   0  0  0  0  0  0  0  0  0  0  0  0
    9.0980   -0.6870    0.0000 N   0  0  0  0  0  0  0  0  0  0  0  0
  1  2  1  0  0  0  0
  2  3  2  0  0  0  0
  2  4  1  0  0  0  0
  4  5  1  0  0  0  0
  5  6  1  0  0  0  0
  6  7  1  0  0  0  0
  7  8  1  0  0  0  0
  8  9  1  0  0  0  0
M  END
>  <Index>
63

>  <ID>
HT0133

>  <class>
0

>  <apol>
21.932308

>  <ast_fraglike>
1

>  <ast_fraglike_ext>
0

>  <ast_violation>
0

>  <ast_violation_ext>
1

>  <a_acc>
3

>  <a_acid>
0

>  <a_aro>
0

>  <a_base>
0

>  <a_count>
22

>  <a_don>
3

>  <a_donacc>
6

>  <a_heavy>
9

>  <a_hyd>
5

>  <a_IC>
32.492004

>  <a_ICM>
1.4769093

>  <a_nB>
0

>  <a_nBr>
0

>  <a_nC>
6

>  <a_nCl>
0

>  <a_nF>
0

>  <a_nH>
13

>  <a_nI>
0

>  <a_nN>
1

>  <a_nO>
2

>  <a_nP>
0

>  <a_nS>
0

>  <balabanJ>
2.7601418

>  <BCUT_PEOE_0>
-2.6338594

>  <BCUT_PEOE_1>
-0.51585513

>  <BCUT_PEOE_2>
0.44740978

>  <BCUT_PEOE_3>
2.5942233

>  <BCUT_SLOGP_0>
-2.6741998

>  <BCUT_SLOGP_1>
-0.47654465

>  <BCUT_SLOGP_2>
0.39322743

>  <BCUT_SLOGP_3>
2.6988513

>  <BCUT_SMR_0>
-2.3871076

>  <BCUT_SMR_1>
-0.30388933

>  <BCUT_SMR_2>
0.58139491

>  <BCUT_SMR_3>
2.8370247

>  <bpol>
14.509691

>  <b_1rotN>
5

>  <b_1rotR>
0.625

>  <b_ar>
0

>  <b_count>
21

>  <b_double>
1

>  <b_heavy>
8

>  <b_max1len>
7

>  <b_rotN>
5

>  <b_rotR>
0.625

>  <b_single>
20

>  <b_triple>
0

>  <chi0>
7.112884

>  <chi0v>
5.4683461

>  <chi0v_C>
4.0355339

>  <chi0_C>
4.112884

>  <chi1>
4.2700558

>  <chi1v>
3.1895325

>  <chi1v_C>
2.3535533

>  <chi1_C>
2.4082482

>  <chiral>
0

>  <chiral_u>
0

>  <density>
0.70965427

>  <diameter>
7

>  <FCharge>
0

>  <GCUT_PEOE_0>
-0.84128821

>  <GCUT_PEOE_1>
-0.42238167

>  <GCUT_PEOE_2>
0.087416217

>  <GCUT_PEOE_3>
2.2183578

>  <GCUT_SLOGP_0>
-1.3632607

>  <GCUT_SLOGP_1>
-0.30772528

>  <GCUT_SLOGP_2>
0.054200001

>  <GCUT_SLOGP_3>
2.2817545

>  <GCUT_SMR_0>
-0.5280965

>  <GCUT_SMR_1>
-0.2322313

>  <GCUT_SMR_2>
0.20340033

>  <GCUT_SMR_3>
2.4307687

>  <Kier1>
9

>  <Kier2>
6.125

>  <Kier3>
8

>  <KierA1>
8.0597343

>  <KierA2>
5.4008284

>  <KierA3>
6.9492502

>  <KierFlex>
4.8365822

>  <lip_acc>
3

>  <lip_don>
3

>  <lip_druglike>
1

>  <lip_violation>
0

>  <logP(o/w)>
0.29300001

>  <logS>
0.23503

>  <mr>
3.5941675

>  <mutagenic>
0

>  <nmol>
1

>  <opr_brigid>
0

>  <opr_leadlike>
1

>  <opr_nring>
0

>  <opr_nrot>
5

>  <opr_violation>
0

>  <PC+>
0

>  <PC->
0

>  <PEOE_PC+>
1.0694391

>  <PEOE_PC->
-1.0694391

>  <PEOE_RPC+>
0.24273251

>  <PEOE_RPC->
0.30975813

>  <PEOE_VSA+0>
51.355175

>  <PEOE_VSA+1>
0

>  <PEOE_VSA+2>
17.238026

>  <PEOE_VSA+3>
0

>  <PEOE_VSA+4>
10.324173

>  <PEOE_VSA+5>
14.708499

>  <PEOE_VSA+6>
0

>  <PEOE_VSA-0>
30.594952

>  <PEOE_VSA-1>
8.701313

>  <PEOE_VSA-2>
0

>  <PEOE_VSA-3>
0

>  <PEOE_VSA-4>
0

>  <PEOE_VSA-5>
13.566921

>  <PEOE_VSA-6>
14.418659

>  <PEOE_VSA_FHYD>
0.67050523

>  <PEOE_VSA_FNEG>
0.41813934

>  <PEOE_VSA_FPNEG>
0.17392318

>  <PEOE_VSA_FPOL>
0.32949477

>  <PEOE_VSA_FPOS>
0.58186066

>  <PEOE_VSA_FPPOS>
0.15557161

>  <PEOE_VSA_HYD>
107.88947

>  <PEOE_VSA_NEG>
67.281845

>  <PEOE_VSA_PNEG>
27.98558

>  <PEOE_VSA_POL>
53.018253

>  <PEOE_VSA_POS>
93.62587

>  <PEOE_VSA_PPOS>
25.032671

>  <petitjean>
0.42857143

>  <petitjeanSC>
0.75

>  <Q_PC+>
0

>  <Q_PC->
0

>  <Q_RPC+>
0

>  <Q_RPC->
0

>  <Q_VSA_FHYD>
1

>  <Q_VSA_FNEG>
0

>  <Q_VSA_FPNEG>
0

>  <Q_VSA_FPOL>
0

>  <Q_VSA_FPOS>
1

>  <Q_VSA_FPPOS>
0

>  <Q_VSA_HYD>
160.90771

>  <Q_VSA_NEG>
0

>  <Q_VSA_PNEG>
0

>  <Q_VSA_POL>
0

>  <Q_VSA_POS>
160.90771

>  <Q_VSA_PPOS>
0

>  <radius>
4

>  <reactive>
0

>  <rings>
0

>  <RPC+>
0

>  <RPC->
0

>  <rsynth>
1

>  <SlogP>
0.59009999

>  <SlogP_VSA0>
32.897186

>  <SlogP_VSA1>
7.7454643

>  <SlogP_VSA2>
23.862217

>  <SlogP_VSA3>
43.824806

>  <SlogP_VSA4>
0

>  <SlogP_VSA5>
0

>  <SlogP_VSA6>
0

>  <SlogP_VSA7>
0

>  <SlogP_VSA8>
75.473625

>  <SlogP_VSA9>
0

>  <SMR>
3.51582

>  <SMR_VSA0>
23.862217

>  <SMR_VSA1>
0

>  <SMR_VSA2>
25.385227

>  <SMR_VSA3>
0

>  <SMR_VSA4>
32.897186

>  <SMR_VSA5>
75.473625

>  <SMR_VSA6>
26.185041

>  <SMR_VSA7>
0

>  <TPSA>
63.32

>  <VAdjEq>
0.71696228

>  <VAdjMa>
4

>  <VDistEq>
2.6734166

>  <VDistMa>
5.9311342

>  <vdw_area>
160.90771

>  <vdw_vol>
184.84352

>  <vsa_acc>
0

>  <vsa_acid>
0

>  <vsa_base>
0

>  <vsa_don>
0

>  <vsa_hyd>
83.533485

>  <vsa_other>
14.708499

>  <vsa_pol>
44.876331

>  <Weight>
131.175

>  <weinerPath>
114

>  <weinerPol>
6

>  <zagreb>
32

$$$$