Ic1cc(cc(I)c1Oc1cc(I)c(O)cc1)C[C@H](N)C(O)=O
  MOE2013           2D

 23 24  0  0  1  0  0  0  0  0999 V2000
    0.0000    0.0000    0.0000 I   0  0  0  0  0  0  0  0  0  0  0  0
    0.7390   -1.3050    0.0000 C   0  0  0  0  0  0  0  0  0  0  0  0
    2.2390   -1.3180    0.0000 C   0  0  0  0  0  0  0  0  0  0  0  0
    2.9780   -2.6230    0.0000 C   0  0  0  0  0  0  0  0  0  0  0  0
    2.2170   -3.9160    0.0000 C   0  0  0  0  0  0  0  0  0  0  0  0
    0.7170   -3.9030    0.0000 C   0  0  0  0  0  0  0  0  0  0  0  0
   -0.0440   -5.1960    0.0000 I   0  0  0  0  0  0  0  0  0  0  0  0
   -0.0220   -2.5980    0.0000 C   0  0  0  0  0  0  0  0  0  0  0  0
   -1.5220   -2.5850    0.0000 O   0  0  0  0  0  0  0  0  0  0  0  0
   -2.2830   -3.8780    0.0000 C   0  0  0  0  0  0  0  0  0  0  0  0
   -3.7830   -3.8650    0.0000 C   0  0  0  0  0  0  0  0  0  0  0  0
   -4.5440   -5.1580    0.0000 C   0  0  0  0  0  0  0  0  0  0  0  0
   -6.0440   -5.1450    0.0000 I   0  0  0  0  0  0  0  0  0  0  0  0
   -3.8050   -6.4630    0.0000 C   0  0  0  0  0  0  0  0  0  0  0  0
   -4.5660   -7.7560    0.0000 O   0  0  0  0  0  0  0  0  0  0  0  0
   -2.3050   -6.4760    0.0000 C   0  0  0  0  0  0  0  0  0  0  0  0
   -1.5440   -5.1830    0.0000 C   0  0  0  0  0  0  0  0  0  0  0  0
    4.4780   -2.6360    0.0000 C   0  0  0  0  0  0  0  0  0  0  0  0
    5.2390   -1.3440    0.0000 C   0  0  2  0  0  0  0  0  0  0  0  0
    4.5000   -0.0380    0.0000 N   0  0  0  0  0  0  0  0  0  0  0  0
    6.7390   -1.3560    0.0000 C   0  0  0  0  0  0  0  0  0  0  0  0
    7.4780   -2.6620    0.0000 O   0  0  0  0  0  0  0  0  0  0  0  0
    7.5000   -0.0640    0.0000 O   0  0  0  0  0  0  0  0  0  0  0  0
  1  2  1  0  0  0  0
  2  3  1  0  0  0  0
  2  8  2  0  0  0  0
  3  4  2  0  0  0  0
  4  5  1  0  0  0  0
  4 18  1  0  0  0  0
  5  6  2  0  0  0  0
  6  7  1  0  0  0  0
  6  8  1  0  0  0  0
  8  9  1  0  0  0  0
  9 10  1  0  0  0  0
 10 11  1  0  0  0  0
 10 17  2  0  0  0  0
 11 12  2  0  0  0  0
 12 13  1  0  0  0  0
 12 14  1  0  0  0  0
 14 15  1  0  0  0  0
 14 16  2  0  0  0  0
 16 17  1  0  0  0  0
 18 19  1  0  0  0  0
 19 20  1  6  0  0  0
 19 21  1  0  0  0  0
 21 22  1  0  0  0  0
 21 23  2  0  0  0  0
M  END
>  <Index>
621

>  <ID>
HT1215

>  <class>
0

>  <apol>
54.759518

>  <ast_fraglike>
0

>  <ast_fraglike_ext>
0

>  <ast_violation>
4

>  <ast_violation_ext>
5

>  <a_acc>
4

>  <a_acid>
0

>  <a_aro>
12

>  <a_base>
0

>  <a_count>
35

>  <a_don>
4

>  <a_donacc>
8

>  <a_heavy>
23

>  <a_hyd>
17

>  <a_IC>
65.14711

>  <a_ICM>
1.861346

>  <a_nB>
0

>  <a_nBr>
0

>  <a_nC>
15

>  <a_nCl>
0

>  <a_nF>
0

>  <a_nH>
12

>  <a_nI>
3

>  <a_nN>
1

>  <a_nO>
4

>  <a_nP>
0

>  <a_nS>
0

>  <balabanJ>
1.858938

>  <BCUT_PEOE_0>
-2.4787209

>  <BCUT_PEOE_1>
-0.67812967

>  <BCUT_PEOE_2>
0.69229913

>  <BCUT_PEOE_3>
2.5062861

>  <BCUT_SLOGP_0>
-2.7321019

>  <BCUT_SLOGP_1>
-0.50706571

>  <BCUT_SLOGP_2>
0.96929443

>  <BCUT_SLOGP_3>
2.463989

>  <BCUT_SMR_0>
-2.2277892

>  <BCUT_SMR_1>
-0.32640943

>  <BCUT_SMR_2>
1.1723559

>  <BCUT_SMR_3>
2.7597749

>  <bpol>
26.102484

>  <b_1rotN>
5

>  <b_1rotR>
0.20833333

>  <b_ar>
12

>  <b_count>
36

>  <b_double>
1

>  <b_heavy>
24

>  <b_max1len>
4

>  <b_rotN>
5

>  <b_rotR>
0.20833333

>  <b_single>
23

>  <b_triple>
0

>  <chi0>
17.145901

>  <chi0v>
18.06587

>  <chi0v_C>
8.1712084

>  <chi0_C>
9.4387932

>  <chi1>
10.773765

>  <chi1v>
9.6393251

>  <chi1v_C>
4.4432111

>  <chi1_C>
5.9158163

>  <chiral>
1

>  <chiral_u>
0

>  <density>
1.4201546

>  <diameter>
13

>  <FCharge>
0

>  <GCUT_PEOE_0>
-0.81074238

>  <GCUT_PEOE_1>
-0.44776854

>  <GCUT_PEOE_2>
0.0635681

>  <GCUT_PEOE_3>
2.3911281

>  <GCUT_SLOGP_0>
-1.363467

>  <GCUT_SLOGP_1>
-0.34396404

>  <GCUT_SLOGP_2>
0.36236659

>  <GCUT_SLOGP_3>
2.5384727

>  <GCUT_SMR_0>
-0.49890652

>  <GCUT_SMR_1>
-0.19897161

>  <GCUT_SMR_2>
0.45017514

>  <GCUT_SMR_3>
2.7561858

>  <Kier1>
19.326389

>  <Kier2>
8.3927336

>  <Kier3>
5.2349792

>  <KierA1>
22.951109

>  <KierA2>
10.04514

>  <KierA3>
6.3026862

>  <KierFlex>
10.023787

>  <lip_acc>
5

>  <lip_don>
4

>  <lip_druglike>
1

>  <lip_violation>
1

>  <logP(o/w)>
3.4542699

>  <logS>
-5.50243

>  <mr>
11.424568

>  <mutagenic>
0

>  <nmol>
1

>  <opr_brigid>
12

>  <opr_leadlike>
1

>  <opr_nring>
2

>  <opr_nrot>
5

>  <opr_violation>
1

>  <PC+>
0

>  <PC->
0

>  <PEOE_PC+>
1.9064926

>  <PEOE_PC->
-1.9064926

>  <PEOE_RPC+>
0.14522034

>  <PEOE_RPC->
0.1881976

>  <PEOE_VSA+0>
17.651054

>  <PEOE_VSA+1>
45.655315

>  <PEOE_VSA+2>
25.696545

>  <PEOE_VSA+3>
0

>  <PEOE_VSA+4>
20.648346

>  <PEOE_VSA+5>
14.708499

>  <PEOE_VSA+6>
0

>  <PEOE_VSA-0>
213.15442

>  <PEOE_VSA-1>
0

>  <PEOE_VSA-2>
0

>  <PEOE_VSA-3>
0

>  <PEOE_VSA-4>
0

>  <PEOE_VSA-5>
13.566921

>  <PEOE_VSA-6>
24.689957

>  <PEOE_VSA_FHYD>
0.80409956

>  <PEOE_VSA_FNEG>
0.66905445

>  <PEOE_VSA_FPNEG>
0.101809

>  <PEOE_VSA_FPOL>
0.19590046

>  <PEOE_VSA_FPOS>
0.33094555

>  <PEOE_VSA_FPPOS>
0.094091453

>  <PEOE_VSA_HYD>
302.15732

>  <PEOE_VSA_NEG>
251.41129

>  <PEOE_VSA_PNEG>
38.256878

>  <PEOE_VSA_POL>
73.613724

>  <PEOE_VSA_POS>
124.35976

>  <PEOE_VSA_PPOS>
35.356846

>  <petitjean>
0.46153846

>  <petitjeanSC>
0.85714287

>  <Q_PC+>
0

>  <Q_PC->
0

>  <Q_RPC+>
0

>  <Q_RPC->
0

>  <Q_VSA_FHYD>
1

>  <Q_VSA_FNEG>
0

>  <Q_VSA_FPNEG>
0

>  <Q_VSA_FPOL>
0

>  <Q_VSA_FPOS>
1

>  <Q_VSA_FPPOS>
0

>  <Q_VSA_HYD>
375.77106

>  <Q_VSA_NEG>
0

>  <Q_VSA_PNEG>
0

>  <Q_VSA_POL>
0

>  <Q_VSA_POS>
375.77106

>  <Q_VSA_PPOS>
0

>  <radius>
7

>  <reactive>
0

>  <rings>
2

>  <RPC+>
0

>  <RPC->
0

>  <rsynth>
1

>  <SlogP>
3.9526701

>  <SlogP_VSA0>
69.282303

>  <SlogP_VSA1>
7.7454643

>  <SlogP_VSA2>
32.823112

>  <SlogP_VSA3>
25.385227

>  <SlogP_VSA4>
3.185575

>  <SlogP_VSA5>
18.868406

>  <SlogP_VSA6>
0

>  <SlogP_VSA7>
88.215919

>  <SlogP_VSA8>
0

>  <SlogP_VSA9>
186.07631

>  <SMR>
11.2089

>  <SMR_VSA0>
23.862217

>  <SMR_VSA1>
36.385113

>  <SMR_VSA2>
30.364155

>  <SMR_VSA3>
22.897827

>  <SMR_VSA4>
32.897186

>  <SMR_VSA5>
107.08433

>  <SMR_VSA6>
7.7454643

>  <SMR_VSA7>
170.34602

>  <TPSA>
92.779999

>  <VAdjEq>
0.43892586

>  <VAdjMa>
5.5849624

>  <VDistEq>
3.4537501

>  <VDistMa>
8.7299814

>  <vdw_area>
375.77106

>  <vdw_vol>
458.38391

>  <vsa_acc>
0

>  <vsa_acid>
0

>  <vsa_base>
0

>  <vsa_don>
0

>  <vsa_hyd>
279.22495

>  <vsa_other>
17.212255

>  <vsa_pol>
58.443253

>  <Weight>
650.97601

>  <weinerPath>
1294

>  <weinerPol>
35

>  <zagreb>
116

$$$$