O([C@H](C(C[C@@H](N(C)C)C)(c1ccccc1)c1ccccc1)CC)C(=O)C
  MOE2013           2D

 26 27  0  0  1  0  0  0  0  0999 V2000
    0.0000    0.0000    0.0000 O   0  0  0  0  0  0  0  0  0  0  0  0
   -1.2990    0.7510    0.0000 C   0  0  2  0  0  0  0  0  0  0  0  0
   -2.5980    0.0020    0.0000 C   0  0  0  0  0  0  0  0  0  0  0  0
   -3.3470    1.3010    0.0000 C   0  0  0  0  0  0  0  0  0  0  0  0
   -4.7960    1.6900    0.0000 C   0  0  1  0  0  0  0  0  0  0  0  0
   -5.1830    3.1400    0.0000 N   0  0  0  0  0  0  0  0  0  0  0  0
   -6.6320    3.5290    0.0000 C   0  0  0  0  0  0  0  0  0  0  0  0
   -4.1220    4.2000    0.0000 C   0  0  0  0  0  0  0  0  0  0  0  0
   -5.8570    0.6310    0.0000 C   0  0  0  0  0  0  0  0  0  0  0  0
   -1.8490   -1.2980    0.0000 C   0  0  0  0  0  0  0  0  0  0  0  0
   -2.6000   -2.5960    0.0000 C   0  0  0  0  0  0  0  0  0  0  0  0
   -1.8510   -3.8960    0.0000 C   0  0  0  0  0  0  0  0  0  0  0  0
   -0.3510   -3.8970    0.0000 C   0  0  0  0  0  0  0  0  0  0  0  0
    0.4000   -2.5980    0.0000 C   0  0  0  0  0  0  0  0  0  0  0  0
   -0.3490   -1.2990    0.0000 C   0  0  0  0  0  0  0  0  0  0  0  0
   -3.8980   -0.7470    0.0000 C   0  0  0  0  0  0  0  0  0  0  0  0
   -5.3070   -0.2330    0.0000 C   0  0  0  0  0  0  0  0  0  0  0  0
   -6.4570   -1.1970    0.0000 C   0  0  0  0  0  0  0  0  0  0  0  0
   -6.1970   -2.6740    0.0000 C   0  0  0  0  0  0  0  0  0  0  0  0
   -4.7880   -3.1880    0.0000 C   0  0  0  0  0  0  0  0  0  0  0  0
   -3.6380   -2.2250    0.0000 C   0  0  0  0  0  0  0  0  0  0  0  0
   -1.2980    2.2510    0.0000 C   0  0  0  0  0  0  0  0  0  0  0  0
    0.0020    3.0000    0.0000 C   0  0  0  0  0  0  0  0  0  0  0  0
    1.3000    0.7490    0.0000 C   0  0  0  0  0  0  0  0  0  0  0  0
    1.3010    2.2490    0.0000 O   0  0  0  0  0  0  0  0  0  0  0  0
    2.5980   -0.0020    0.0000 C   0  0  0  0  0  0  0  0  0  0  0  0
  1 24  1  0  0  0  0
  2  1  1  6  0  0  0
  2  3  1  0  0  0  0
  2 22  1  0  0  0  0
  3  4  1  0  0  0  0
  3 10  1  0  0  0  0
  3 16  1  0  0  0  0
  4  5  1  0  0  0  0
  5  6  1  0  0  0  0
  5  9  1  6  0  0  0
  6  7  1  0  0  0  0
  6  8  1  0  0  0  0
 10 11  1  0  0  0  0
 10 15  2  0  0  0  0
 11 12  2  0  0  0  0
 12 13  1  0  0  0  0
 13 14  2  0  0  0  0
 14 15  1  0  0  0  0
 16 17  1  0  0  0  0
 16 21  2  0  0  0  0
 17 18  2  0  0  0  0
 18 19  1  0  0  0  0
 19 20  2  0  0  0  0
 20 21  1  0  0  0  0
 22 23  1  0  0  0  0
 24 25  2  0  0  0  0
 24 26  1  0  0  0  0
M  END
>  <Index>
608

>  <ID>
HT1198

>  <class>
0

>  <apol>
63.854584

>  <ast_fraglike>
0

>  <ast_fraglike_ext>
0

>  <ast_violation>
2

>  <ast_violation_ext>
3

>  <a_acc>
2

>  <a_acid>
0

>  <a_aro>
12

>  <a_base>
0

>  <a_count>
57

>  <a_don>
0

>  <a_donacc>
2

>  <a_heavy>
26

>  <a_hyd>
22

>  <a_IC>
72.852722

>  <a_ICM>
1.2781179

>  <a_nB>
0

>  <a_nBr>
0

>  <a_nC>
23

>  <a_nCl>
0

>  <a_nF>
0

>  <a_nH>
31

>  <a_nI>
0

>  <a_nN>
1

>  <a_nO>
2

>  <a_nP>
0

>  <a_nS>
0

>  <balabanJ>
2.4384968

>  <BCUT_PEOE_0>
-2.7500539

>  <BCUT_PEOE_1>
-0.54411072

>  <BCUT_PEOE_2>
0.59919739

>  <BCUT_PEOE_3>
2.7254057

>  <BCUT_SLOGP_0>
-2.7770689

>  <BCUT_SLOGP_1>
-0.45230907

>  <BCUT_SLOGP_2>
0.6756376

>  <BCUT_SLOGP_3>
2.7312183

>  <BCUT_SMR_0>
-2.490751

>  <BCUT_SMR_1>
-0.40513742

>  <BCUT_SMR_2>
0.74206442

>  <BCUT_SMR_3>
2.9788766

>  <bpol>
38.743416

>  <b_1rotN>
8

>  <b_1rotR>
0.2962963

>  <b_ar>
12

>  <b_count>
58

>  <b_double>
1

>  <b_heavy>
27

>  <b_max1len>
9

>  <b_rotN>
9

>  <b_rotR>
0.33333334

>  <b_single>
45

>  <b_triple>
0

>  <chi0>
19.15649

>  <chi0v>
16.606127

>  <chi0v_C>
15.342417

>  <chi0_C>
16.872032

>  <chi1>
12.412757

>  <chi1v>
9.3611259

>  <chi1v_C>
7.5645494

>  <chi1_C>
9.5308762

>  <chiral>
2

>  <chiral_u>
0

>  <density>
0.65185481

>  <diameter>
8

>  <FCharge>
0

>  <GCUT_PEOE_0>
-0.86241663

>  <GCUT_PEOE_1>
-0.35962915

>  <GCUT_PEOE_2>
0.05976069

>  <GCUT_PEOE_3>
3.0029283

>  <GCUT_SLOGP_0>
-0.9535383

>  <GCUT_SLOGP_1>
-0.26386139

>  <GCUT_SLOGP_2>
0.12752129

>  <GCUT_SLOGP_3>
3.0673208

>  <GCUT_SMR_0>
-0.5272404

>  <GCUT_SMR_1>
-0.19412023

>  <GCUT_SMR_2>
0.16257541

>  <GCUT_SMR_3>
3.2573178

>  <Kier1>
22.29081

>  <Kier2>
10.518627

>  <Kier3>
5.5177011

>  <KierA1>
17.731131

>  <KierA2>
8.2854319

>  <KierA3>
4.3158669

>  <KierFlex>
5.6503878

>  <lip_acc>
3

>  <lip_don>
0

>  <lip_druglike>
1

>  <lip_violation>
0

>  <logP(o/w)>
6.0560002

>  <logS>
-4.30831

>  <mr>
10.88546

>  <mutagenic>
0

>  <nmol>
1

>  <opr_brigid>
12

>  <opr_leadlike>
1

>  <opr_nring>
2

>  <opr_nrot>
8

>  <opr_violation>
1

>  <PC+>
0

>  <PC->
0

>  <PEOE_PC+>
1.7374799

>  <PEOE_PC->
-1.7374799

>  <PEOE_RPC+>
0.14925705

>  <PEOE_RPC->
0.1789223

>  <PEOE_VSA+0>
107.20135

>  <PEOE_VSA+1>
51.824173

>  <PEOE_VSA+2>
0

>  <PEOE_VSA+3>
0

>  <PEOE_VSA+4>
0

>  <PEOE_VSA+5>
14.708499

>  <PEOE_VSA+6>
0

>  <PEOE_VSA-0>
87.044762

>  <PEOE_VSA-1>
141.29672

>  <PEOE_VSA-2>
0

>  <PEOE_VSA-3>
0

>  <PEOE_VSA-4>
0

>  <PEOE_VSA-5>
13.566921

>  <PEOE_VSA-6>
2.503756

>  <PEOE_VSA_FHYD>
0.92639136

>  <PEOE_VSA_FNEG>
0.58451366

>  <PEOE_VSA_FPNEG>
0.038433153

>  <PEOE_VSA_FPOL>
0.073608652

>  <PEOE_VSA_FPOS>
0.41548634

>  <PEOE_VSA_FPPOS>
0.035175495

>  <PEOE_VSA_HYD>
387.367

>  <PEOE_VSA_NEG>
244.41216

>  <PEOE_VSA_PNEG>
16.070677

>  <PEOE_VSA_POL>
30.779177

>  <PEOE_VSA_POS>
173.73404

>  <PEOE_VSA_PPOS>
14.708499

>  <petitjean>
0.5

>  <petitjeanSC>
1

>  <Q_PC+>
0

>  <Q_PC->
0

>  <Q_RPC+>
0

>  <Q_RPC->
0

>  <Q_VSA_FHYD>
1

>  <Q_VSA_FNEG>
0

>  <Q_VSA_FPNEG>
0

>  <Q_VSA_FPOL>
0

>  <Q_VSA_FPOS>
1

>  <Q_VSA_FPPOS>
0

>  <Q_VSA_HYD>
418.14618

>  <Q_VSA_NEG>
0

>  <Q_VSA_PNEG>
0

>  <Q_VSA_POL>
0

>  <Q_VSA_POS>
418.14618

>  <Q_VSA_PPOS>
0

>  <radius>
4

>  <reactive>
0

>  <rings>
2

>  <RPC+>
0

>  <RPC->
0

>  <rsynth>
0.11538462

>  <SlogP>
4.6546001

>  <SlogP_VSA0>
0

>  <SlogP_VSA1>
10.869778

>  <SlogP_VSA2>
45.312721

>  <SlogP_VSA3>
0

>  <SlogP_VSA4>
6.37115

>  <SlogP_VSA5>
65.794373

>  <SlogP_VSA6>
0

>  <SlogP_VSA7>
176.43184

>  <SlogP_VSA8>
37.736813

>  <SlogP_VSA9>
99.978043

>  <SMR>
10.7275

>  <SMR_VSA0>
34.862103

>  <SMR_VSA1>
3.1243138

>  <SMR_VSA2>
0

>  <SMR_VSA3>
16.821768

>  <SMR_VSA4>
0

>  <SMR_VSA5>
214.16866

>  <SMR_VSA6>
7.7454643

>  <SMR_VSA7>
165.77242

>  <TPSA>
29.540001

>  <VAdjEq>
0.40176207

>  <VAdjMa>
5.7548876

>  <VDistEq>
2.8909116

>  <VDistMa>
9.1937876

>  <vdw_area>
418.14618

>  <vdw_vol>
542.30786

>  <vsa_acc>
13.566921

>  <vsa_acid>
0

>  <vsa_base>
0

>  <vsa_don>
0

>  <vsa_hyd>
365.30136

>  <vsa_other>
17.212255

>  <vsa_pol>
13.566921

>  <Weight>
353.50598

>  <weinerPath>
1436

>  <weinerPol>
43

>  <zagreb>
128

$$$$