OC[C@@H](O)[C@@H](O)[C@H](O)[C@H](O)CO
  MOE2013           2D

 12 11  0  0  1  0  0  0  0  0999 V2000
    0.0000    0.0000    0.0000 O   0  0  0  0  0  0  0  0  0  0  0  0
    1.2990    0.7500    0.0000 C   0  0  0  0  0  0  0  0  0  0  0  0
    2.5980    0.0000    0.0000 C   0  0  1  0  0  0  0  0  0  0  0  0
    2.5980   -1.5000    0.0000 O   0  0  0  0  0  0  0  0  0  0  0  0
    3.8970    0.7500    0.0000 C   0  0  1  0  0  0  0  0  0  0  0  0
    3.8970    2.2500    0.0000 O   0  0  0  0  0  0  0  0  0  0  0  0
    5.1960    0.0000    0.0000 C   0  0  2  0  0  0  0  0  0  0  0  0
    5.1960   -1.5000    0.0000 O   0  0  0  0  0  0  0  0  0  0  0  0
    6.4950    0.7500    0.0000 C   0  0  2  0  0  0  0  0  0  0  0  0
    6.4950    2.2500    0.0000 O   0  0  0  0  0  0  0  0  0  0  0  0
    7.7940   -0.0010    0.0000 C   0  0  0  0  0  0  0  0  0  0  0  0
    9.0930    0.7490    0.0000 O   0  0  0  0  0  0  0  0  0  0  0  0
  1  2  1  0  0  0  0
  2  3  1  0  0  0  0
  3  4  1  6  0  0  0
  3  5  1  0  0  0  0
  5  6  1  1  0  0  0
  5  7  1  0  0  0  0
  7  8  1  1  0  0  0
  7  9  1  0  0  0  0
  9 10  1  6  0  0  0
  9 11  1  0  0  0  0
 11 12  1  0  0  0  0
M  END
>  <Index>
651

>  <ID>
HT1269

>  <class>
0

>  <apol>
24.707102

>  <ast_fraglike>
0

>  <ast_fraglike_ext>
0

>  <ast_violation>
2

>  <ast_violation_ext>
4

>  <a_acc>
6

>  <a_acid>
0

>  <a_aro>
0

>  <a_base>
0

>  <a_count>
26

>  <a_don>
6

>  <a_donacc>
12

>  <a_heavy>
12

>  <a_hyd>
6

>  <a_IC>
37.888912

>  <a_ICM>
1.457266

>  <a_nB>
0

>  <a_nBr>
0

>  <a_nC>
6

>  <a_nCl>
0

>  <a_nF>
0

>  <a_nH>
14

>  <a_nI>
0

>  <a_nN>
0

>  <a_nO>
6

>  <a_nP>
0

>  <a_nS>
0

>  <balabanJ>
3.9851644

>  <BCUT_PEOE_0>
-2.6422708

>  <BCUT_PEOE_1>
-0.70114243

>  <BCUT_PEOE_2>
0.76282245

>  <BCUT_PEOE_3>
2.7054894

>  <BCUT_SLOGP_0>
-2.8476448

>  <BCUT_SLOGP_1>
-0.8765524

>  <BCUT_SLOGP_2>
0.54888862

>  <BCUT_SLOGP_3>
2.4906323

>  <BCUT_SMR_0>
-2.4415898

>  <BCUT_SMR_1>
-0.58287549

>  <BCUT_SMR_2>
0.84542644

>  <BCUT_SMR_3>
2.890588

>  <bpol>
15.304898

>  <b_1rotN>
5

>  <b_1rotR>
0.45454547

>  <b_ar>
0

>  <b_count>
25

>  <b_double>
0

>  <b_heavy>
11

>  <b_max1len>
9

>  <b_rotN>
5

>  <b_rotR>
0.45454547

>  <b_single>
25

>  <b_triple>
0

>  <chi0>
9.7236147

>  <chi0v>
6.4068961

>  <chi0v_C>
3.7236147

>  <chi0_C>
3.7236147

>  <chi1>
5.5401111

>  <chi1v>
3.4817476

>  <chi1v_C>
1.8164966

>  <chi1_C>
1.8164966

>  <chiral>
4

>  <chiral_u>
0

>  <density>
0.86090821

>  <diameter>
7

>  <FCharge>
0

>  <GCUT_PEOE_0>
-0.79548436

>  <GCUT_PEOE_1>
-0.43090469

>  <GCUT_PEOE_2>
0.21410722

>  <GCUT_PEOE_3>
2.3911719

>  <GCUT_SLOGP_0>
-0.96059406

>  <GCUT_SLOGP_1>
-0.61478311

>  <GCUT_SLOGP_2>
-0.0068806033

>  <GCUT_SLOGP_3>
2.2249088

>  <GCUT_SMR_0>
-0.52603096

>  <GCUT_SMR_1>
-0.2848441

>  <GCUT_SMR_2>
0.24408653

>  <GCUT_SMR_3>
2.5690489

>  <Kier1>
12

>  <Kier2>
5.6122451

>  <Kier3>
3.515625

>  <KierA1>
12

>  <KierA2>
5.6122451

>  <KierA3>
3.515625

>  <KierFlex>
5.6122451

>  <lip_acc>
6

>  <lip_don>
6

>  <lip_druglike>
1

>  <lip_violation>
1

>  <logP(o/w)>
-3.3900001

>  <logS>
1.6247

>  <mr>
3.8320489

>  <mutagenic>
0

>  <nmol>
1

>  <opr_brigid>
0

>  <opr_leadlike>
0

>  <opr_nring>
0

>  <opr_nrot>
5

>  <opr_violation>
2

>  <PC+>
0

>  <PC->
0

>  <PEOE_PC+>
2.3314912

>  <PEOE_PC->
-2.3314912

>  <PEOE_RPC+>
0.090072565

>  <PEOE_RPC->
0.16829406

>  <PEOE_VSA+0>
0

>  <PEOE_VSA+1>
64.025673

>  <PEOE_VSA+2>
19.619715

>  <PEOE_VSA+3>
0

>  <PEOE_VSA+4>
61.945034

>  <PEOE_VSA+5>
0

>  <PEOE_VSA+6>
0

>  <PEOE_VSA-0>
0

>  <PEOE_VSA-1>
0

>  <PEOE_VSA-2>
0

>  <PEOE_VSA-3>
0

>  <PEOE_VSA-4>
0

>  <PEOE_VSA-5>
0

>  <PEOE_VSA-6>
46.60524

>  <PEOE_VSA_FHYD>
0.43520954

>  <PEOE_VSA_FNEG>
0.24248852

>  <PEOE_VSA_FPNEG>
0.24248852

>  <PEOE_VSA_FPOL>
0.56479043

>  <PEOE_VSA_FPOS>
0.7575115

>  <PEOE_VSA_FPPOS>
0.32230192

>  <PEOE_VSA_HYD>
83.645386

>  <PEOE_VSA_NEG>
46.60524

>  <PEOE_VSA_PNEG>
46.60524

>  <PEOE_VSA_POL>
108.55028

>  <PEOE_VSA_POS>
145.59042

>  <PEOE_VSA_PPOS>
61.945034

>  <petitjean>
0.42857143

>  <petitjeanSC>
0.75

>  <Q_PC+>
0

>  <Q_PC->
0

>  <Q_RPC+>
0

>  <Q_RPC->
0

>  <Q_VSA_FHYD>
1

>  <Q_VSA_FNEG>
0

>  <Q_VSA_FPNEG>
0

>  <Q_VSA_FPOL>
0

>  <Q_VSA_FPOS>
1

>  <Q_VSA_FPPOS>
0

>  <Q_VSA_HYD>
192.19566

>  <Q_VSA_NEG>
0

>  <Q_VSA_PNEG>
0

>  <Q_VSA_POL>
0

>  <Q_VSA_POS>
192.19566

>  <Q_VSA_PPOS>
0

>  <radius>
4

>  <reactive>
0

>  <rings>
0

>  <RPC+>
0

>  <RPC->
0

>  <rsynth>
0

>  <SlogP>
-3.5854001

>  <SlogP_VSA0>
152.31136

>  <SlogP_VSA1>
0

>  <SlogP_VSA2>
25.874598

>  <SlogP_VSA3>
41.852516

>  <SlogP_VSA4>
0

>  <SlogP_VSA5>
0

>  <SlogP_VSA6>
0

>  <SlogP_VSA7>
0

>  <SlogP_VSA8>
0

>  <SlogP_VSA9>
0

>  <SMR>
3.81988

>  <SMR_VSA0>
0

>  <SMR_VSA1>
152.31136

>  <SMR_VSA2>
0

>  <SMR_VSA3>
25.874598

>  <SMR_VSA4>
0

>  <SMR_VSA5>
0

>  <SMR_VSA6>
41.852516

>  <SMR_VSA7>
0

>  <TPSA>
121.38

>  <VAdjEq>
0.61674827

>  <VAdjMa>
4.4594316

>  <VDistEq>
2.5538447

>  <VDistMa>
6.8678312

>  <vdw_area>
192.19566

>  <vdw_vol>
211.60443

>  <vsa_acc>
0

>  <vsa_acid>
0

>  <vsa_base>
0

>  <vsa_don>
0

>  <vsa_hyd>
77.951027

>  <vsa_other>
0

>  <vsa_pol>
81.401527

>  <Weight>
182.172

>  <weinerPath>
206

>  <weinerPol>
16

>  <zagreb>
50

$$$$