N([C@H](Cc1ccccc1)C)C
  MOE2013           2D

 11 11  0  0  1  0  0  0  0  0999 V2000
    0.0000    0.0000    0.0000 N   0  0  0  0  0  0  0  0  0  0  0  0
   -1.5000    0.0060    0.0000 C   0  0  2  0  0  0  0  0  0  0  0  0
   -2.2550   -1.2910    0.0000 C   0  0  0  0  0  0  0  0  0  0  0  0
   -3.7550   -1.2850    0.0000 C   0  0  0  0  0  0  0  0  0  0  0  0
   -4.5000    0.0170    0.0000 C   0  0  0  0  0  0  0  0  0  0  0  0
   -6.0000    0.0230    0.0000 C   0  0  0  0  0  0  0  0  0  0  0  0
   -6.7550   -1.2740    0.0000 C   0  0  0  0  0  0  0  0  0  0  0  0
   -6.0100   -2.5750    0.0000 C   0  0  0  0  0  0  0  0  0  0  0  0
   -4.5100   -2.5810    0.0000 C   0  0  0  0  0  0  0  0  0  0  0  0
   -2.2450    1.3080    0.0000 C   0  0  0  0  0  0  0  0  0  0  0  0
    0.7550    1.2960    0.0000 C   0  0  0  0  0  0  0  0  0  0  0  0
  1  2  1  0  0  0  0
  1 11  1  0  0  0  0
  2  3  1  0  0  0  0
  2 10  1  6  0  0  0
  3  4  1  0  0  0  0
  4  5  1  0  0  0  0
  4  9  2  0  0  0  0
  5  6  2  0  0  0  0
  6  7  1  0  0  0  0
  7  8  2  0  0  0  0
  8  9  1  0  0  0  0
M  END
>  <Index>
683

>  <ID>
HT1332

>  <class>
0

>  <apol>
28.701895

>  <ast_fraglike>
1

>  <ast_fraglike_ext>
1

>  <ast_violation>
0

>  <ast_violation_ext>
0

>  <a_acc>
1

>  <a_acid>
0

>  <a_aro>
6

>  <a_base>
0

>  <a_count>
26

>  <a_don>
1

>  <a_donacc>
2

>  <a_heavy>
11

>  <a_hyd>
10

>  <a_IC>
30.388792

>  <a_ICM>
1.1687998

>  <a_nB>
0

>  <a_nBr>
0

>  <a_nC>
10

>  <a_nCl>
0

>  <a_nF>
0

>  <a_nH>
15

>  <a_nI>
0

>  <a_nN>
1

>  <a_nO>
0

>  <a_nP>
0

>  <a_nS>
0

>  <balabanJ>
2.1560433

>  <BCUT_PEOE_0>
-2.6206222

>  <BCUT_PEOE_1>
-0.51866651

>  <BCUT_PEOE_2>
0.58019716

>  <BCUT_PEOE_3>
2.5395689

>  <BCUT_SLOGP_0>
-2.7358966

>  <BCUT_SLOGP_1>
-0.47858667

>  <BCUT_SLOGP_2>
0.65223849

>  <BCUT_SLOGP_3>
2.5224209

>  <BCUT_SMR_0>
-2.3450897

>  <BCUT_SMR_1>
-0.40107235

>  <BCUT_SMR_2>
0.70150727

>  <BCUT_SMR_3>
2.8103218

>  <bpol>
17.058105

>  <b_1rotN>
3

>  <b_1rotR>
0.27272728

>  <b_ar>
6

>  <b_count>
26

>  <b_double>
0

>  <b_heavy>
11

>  <b_max1len>
5

>  <b_rotN>
3

>  <b_rotR>
0.27272728

>  <b_single>
20

>  <b_triple>
0

>  <chi0>
8.1044483

>  <chi0v>
7.1712084

>  <chi0v_C>
6.6712084

>  <chi0_C>
7.3973413

>  <chi1>
5.3256984

>  <chi1v>
4.0385108

>  <chi1v_C>
3.2498355

>  <chi1_C>
4.2103434

>  <chiral>
1

>  <chiral_u>
0

>  <density>
0.61446321

>  <diameter>
7

>  <FCharge>
0

>  <GCUT_PEOE_0>
-0.85210562

>  <GCUT_PEOE_1>
-0.3561821

>  <GCUT_PEOE_2>
0.069683723

>  <GCUT_PEOE_3>
2.3193898

>  <GCUT_SLOGP_0>
-1.1529195

>  <GCUT_SLOGP_1>
-0.24973805

>  <GCUT_SLOGP_2>
0.13812448

>  <GCUT_SLOGP_3>
2.3842094

>  <GCUT_SMR_0>
-0.51868284

>  <GCUT_SMR_1>
-0.2040472

>  <GCUT_SMR_2>
0.15348534

>  <GCUT_SMR_3>
2.5839477

>  <Kier1>
9.090909

>  <Kier2>
4.7928996

>  <Kier3>
3.2653062

>  <KierA1>
7.1800485

>  <KierA2>
3.686276

>  <KierA3>
2.4521625

>  <KierFlex>
2.4061491

>  <lip_acc>
1

>  <lip_don>
1

>  <lip_druglike>
1

>  <lip_violation>
0

>  <logP(o/w)>
2.237

>  <logS>
-1.51406

>  <mr>
4.8865047

>  <mutagenic>
0

>  <nmol>
1

>  <opr_brigid>
6

>  <opr_leadlike>
1

>  <opr_nring>
1

>  <opr_nrot>
3

>  <opr_violation>
0

>  <PC+>
0

>  <PC->
0

>  <PEOE_PC+>
0.7413007

>  <PEOE_PC->
-0.7413007

>  <PEOE_RPC+>
0.16443157

>  <PEOE_RPC->
0.42654425

>  <PEOE_VSA+0>
41.534435

>  <PEOE_VSA+1>
21.326929

>  <PEOE_VSA+2>
8.6190128

>  <PEOE_VSA+3>
0

>  <PEOE_VSA+4>
0

>  <PEOE_VSA+5>
0

>  <PEOE_VSA+6>
0

>  <PEOE_VSA-0>
52.896221

>  <PEOE_VSA-1>
61.274521

>  <PEOE_VSA-2>
0

>  <PEOE_VSA-3>
0

>  <PEOE_VSA-4>
0

>  <PEOE_VSA-5>
0

>  <PEOE_VSA-6>
0.13689101

>  <PEOE_VSA_FHYD>
0.99926317

>  <PEOE_VSA_FNEG>
0.6152584

>  <PEOE_VSA_FPNEG>
0.00073681289

>  <PEOE_VSA_FPOL>
0.00073681289

>  <PEOE_VSA_FPOS>
0.3847416

>  <PEOE_VSA_FPPOS>
0

>  <PEOE_VSA_HYD>
185.65112

>  <PEOE_VSA_NEG>
114.30763

>  <PEOE_VSA_PNEG>
0.13689101

>  <PEOE_VSA_POL>
0.13689101

>  <PEOE_VSA_POS>
71.480377

>  <PEOE_VSA_PPOS>
0

>  <petitjean>
0.42857143

>  <petitjeanSC>
0.75

>  <Q_PC+>
0

>  <Q_PC->
0

>  <Q_RPC+>
0

>  <Q_RPC->
0

>  <Q_VSA_FHYD>
1

>  <Q_VSA_FNEG>
0

>  <Q_VSA_FPNEG>
0

>  <Q_VSA_FPOL>
0

>  <Q_VSA_FPOS>
1

>  <Q_VSA_FPPOS>
0

>  <Q_VSA_HYD>
185.78801

>  <Q_VSA_NEG>
0

>  <Q_VSA_PNEG>
0

>  <Q_VSA_POL>
0

>  <Q_VSA_POS>
185.78801

>  <Q_VSA_PPOS>
0

>  <radius>
4

>  <reactive>
0

>  <rings>
1

>  <RPC+>
0

>  <RPC->
0

>  <rsynth>
0

>  <SlogP>
1.83697

>  <SlogP_VSA0>
18.01075

>  <SlogP_VSA1>
0

>  <SlogP_VSA2>
3.9819686

>  <SlogP_VSA3>
0

>  <SlogP_VSA4>
3.185575

>  <SlogP_VSA5>
51.765594

>  <SlogP_VSA6>
0

>  <SlogP_VSA7>
88.215919

>  <SlogP_VSA8>
0

>  <SlogP_VSA9>
33.326015

>  <SMR>
4.8667698

>  <SMR_VSA0>
0

>  <SMR_VSA1>
0

>  <SMR_VSA2>
18.01075

>  <SMR_VSA3>
7.1675434

>  <SMR_VSA4>
0

>  <SMR_VSA5>
107.08433

>  <SMR_VSA6>
0

>  <SMR_VSA7>
66.223206

>  <TPSA>
12.03

>  <VAdjEq>
0.68403846

>  <VAdjMa>
4.4594316

>  <VDistEq>
2.5838199

>  <VDistMa>
6.5752826

>  <vdw_area>
185.78801

>  <vdw_vol>
242.87378

>  <vsa_acc>
0

>  <vsa_acid>
0

>  <vsa_base>
0

>  <vsa_don>
0

>  <vsa_hyd>
167.06697

>  <vsa_other>
0

>  <vsa_pol>
5.6825762

>  <Weight>
149.237

>  <weinerPath>
168

>  <weinerPol>
11

>  <zagreb>
48

$$$$