O=C1N(C)C(=O)NC1(CC)c1ccccc1
  MOE2013           2D

 16 17  0  0  1  0  0  0  0  0999 V2000
    0.0000    0.0000    0.0000 O   0  0  0  0  0  0  0  0  0  0  0  0
   -0.6080   -1.3710    0.0000 C   0  0  0  0  0  0  0  0  0  0  0  0
    0.1440   -2.6690    0.0000 N   0  0  0  0  0  0  0  0  0  0  0  0
    1.6360   -2.8230    0.0000 C   0  0  0  0  0  0  0  0  0  0  0  0
   -0.8570   -3.7860    0.0000 C   0  0  0  0  0  0  0  0  0  0  0  0
   -0.5430   -5.2520    0.0000 O   0  0  0  0  0  0  0  0  0  0  0  0
   -2.2290   -3.1780    0.0000 N   0  0  0  0  0  0  0  0  0  0  0  0
   -2.0750   -1.6860    0.0000 C   0  0  3  0  0  0  0  0  0  0  0  0
   -2.5030   -0.2480    0.0000 C   0  0  0  0  0  0  0  0  0  0  0  0
   -1.4720    0.8420    0.0000 C   0  0  0  0  0  0  0  0  0  0  0  0
   -3.5500   -1.4150    0.0000 C   0  0  0  0  0  0  0  0  0  0  0  0
   -4.0530   -0.0020    0.0000 C   0  0  0  0  0  0  0  0  0  0  0  0
   -5.5280    0.2690    0.0000 C   0  0  0  0  0  0  0  0  0  0  0  0
   -6.5010   -0.8730    0.0000 C   0  0  0  0  0  0  0  0  0  0  0  0
   -5.9970   -2.2860    0.0000 C   0  0  0  0  0  0  0  0  0  0  0  0
   -4.5220   -2.5570    0.0000 C   0  0  0  0  0  0  0  0  0  0  0  0
  1  2  2  0  0  0  0
  2  3  1  0  0  0  0
  2  8  1  0  0  0  0
  3  4  1  0  0  0  0
  3  5  1  0  0  0  0
  5  6  2  0  0  0  0
  5  7  1  0  0  0  0
  7  8  1  0  0  0  0
  8  9  1  0  0  0  0
  8 11  1  0  0  0  0
  9 10  1  0  0  0  0
 11 12  1  0  0  0  0
 11 16  2  0  0  0  0
 12 13  2  0  0  0  0
 13 14  1  0  0  0  0
 14 15  2  0  0  0  0
 15 16  1  0  0  0  0
M  END
>  <Index>
674

>  <ID>
HT1308

>  <class>
0

>  <apol>
34.259102

>  <ast_fraglike>
1

>  <ast_fraglike_ext>
1

>  <ast_violation>
0

>  <ast_violation_ext>
0

>  <a_acc>
2

>  <a_acid>
0

>  <a_aro>
6

>  <a_base>
0

>  <a_count>
30

>  <a_don>
1

>  <a_donacc>
3

>  <a_heavy>
16

>  <a_hyd>
10

>  <a_IC>
46.884197

>  <a_ICM>
1.5628066

>  <a_nB>
0

>  <a_nBr>
0

>  <a_nC>
12

>  <a_nCl>
0

>  <a_nF>
0

>  <a_nH>
14

>  <a_nI>
0

>  <a_nN>
2

>  <a_nO>
2

>  <a_nP>
0

>  <a_nS>
0

>  <balabanJ>
2.1926184

>  <BCUT_PEOE_0>
-2.5424061

>  <BCUT_PEOE_1>
-0.56223863

>  <BCUT_PEOE_2>
0.62300384

>  <BCUT_PEOE_3>
2.6708121

>  <BCUT_SLOGP_0>
-2.544812

>  <BCUT_SLOGP_1>
-0.47533223

>  <BCUT_SLOGP_2>
0.72477728

>  <BCUT_SLOGP_3>
2.6751397

>  <BCUT_SMR_0>
-2.3010733

>  <BCUT_SMR_1>
-0.38669696

>  <BCUT_SMR_2>
0.76715297

>  <BCUT_SMR_3>
2.9264393

>  <bpol>
19.860897

>  <b_1rotN>
2

>  <b_1rotR>
0.11764706

>  <b_ar>
6

>  <b_count>
31

>  <b_double>
2

>  <b_heavy>
17

>  <b_max1len>
4

>  <b_rotN>
2

>  <b_rotR>
0.11764706

>  <b_single>
23

>  <b_triple>
0

>  <chi0>
11.759149

>  <chi0v>
9.3575687

>  <chi0v_C>
7.5938582

>  <chi0_C>
8.4746914

>  <chi1>
7.615026

>  <chi1v>
5.2740192

>  <chi1v_C>
3.4713438

>  <chi1_C>
4.4545069

>  <chiral>
1

>  <chiral_u>
1

>  <density>
0.73216534

>  <diameter>
7

>  <FCharge>
0

>  <GCUT_PEOE_0>
-0.79581636

>  <GCUT_PEOE_1>
-0.40000421

>  <GCUT_PEOE_2>
0.066406414

>  <GCUT_PEOE_3>
2.5474355

>  <GCUT_SLOGP_0>
-1.1377085

>  <GCUT_SLOGP_1>
-0.26523989

>  <GCUT_SLOGP_2>
0.14760363

>  <GCUT_SLOGP_3>
2.5765936

>  <GCUT_SMR_0>
-0.51872849

>  <GCUT_SMR_1>
-0.19682902

>  <GCUT_SMR_2>
0.17140889

>  <GCUT_SMR_3>
2.8042171

>  <Kier1>
12.456747

>  <Kier2>
4.704

>  <Kier3>
1.9660494

>  <KierA1>
8.71418

>  <KierA2>
3.2041645

>  <KierA3>
1.3125046

>  <KierFlex>
1.7451041

>  <lip_acc>
4

>  <lip_don>
1

>  <lip_druglike>
1

>  <lip_violation>
0

>  <logP(o/w)>
1.813

>  <logS>
-2.3313701

>  <mr>
6.1240087

>  <mutagenic>
0

>  <nmol>
1

>  <opr_brigid>
11

>  <opr_leadlike>
1

>  <opr_nring>
2

>  <opr_nrot>
2

>  <opr_violation>
0

>  <PC+>
0

>  <PC->
0

>  <PEOE_PC+>
1.4930232

>  <PEOE_PC->
-1.4930232

>  <PEOE_RPC+>
0.21837716

>  <PEOE_RPC->
0.21421523

>  <PEOE_VSA+0>
57.361778

>  <PEOE_VSA+1>
21.326929

>  <PEOE_VSA+2>
0

>  <PEOE_VSA+3>
8.6190128

>  <PEOE_VSA+4>
0

>  <PEOE_VSA+5>
12.949531

>  <PEOE_VSA+6>
17.440542

>  <PEOE_VSA-0>
10.909853

>  <PEOE_VSA-1>
80.022194

>  <PEOE_VSA-2>
0

>  <PEOE_VSA-3>
0

>  <PEOE_VSA-4>
13.566921

>  <PEOE_VSA-5>
13.566921

>  <PEOE_VSA-6>
0.13689101

>  <PEOE_VSA_FHYD>
0.7555716

>  <PEOE_VSA_FNEG>
0.50107032

>  <PEOE_VSA_FPNEG>
0.11560266

>  <PEOE_VSA_FPOL>
0.24442843

>  <PEOE_VSA_FPOS>
0.49892965

>  <PEOE_VSA_FPPOS>
0.12882577

>  <PEOE_VSA_HYD>
178.23978

>  <PEOE_VSA_NEG>
118.20278

>  <PEOE_VSA_PNEG>
27.270733

>  <PEOE_VSA_POL>
57.660805

>  <PEOE_VSA_POS>
117.69779

>  <PEOE_VSA_PPOS>
30.390074

>  <petitjean>
0.42857143

>  <petitjeanSC>
0.75

>  <Q_PC+>
0

>  <Q_PC->
0

>  <Q_RPC+>
0

>  <Q_RPC->
0

>  <Q_VSA_FHYD>
1

>  <Q_VSA_FNEG>
0

>  <Q_VSA_FPNEG>
0

>  <Q_VSA_FPOL>
0

>  <Q_VSA_FPOS>
1

>  <Q_VSA_FPPOS>
0

>  <Q_VSA_HYD>
235.90057

>  <Q_VSA_NEG>
0

>  <Q_VSA_PNEG>
0

>  <Q_VSA_POL>
0

>  <Q_VSA_POS>
235.90057

>  <Q_VSA_PPOS>
0

>  <radius>
4

>  <reactive>
0

>  <rings>
2

>  <RPC+>
0

>  <RPC->
0

>  <rsynth>
1

>  <SlogP>
1.785

>  <SlogP_VSA0>
18.01075

>  <SlogP_VSA1>
13.213054

>  <SlogP_VSA2>
23.862217

>  <SlogP_VSA3>
0

>  <SlogP_VSA4>
3.185575

>  <SlogP_VSA5>
32.897186

>  <SlogP_VSA6>
0

>  <SlogP_VSA7>
88.215919

>  <SlogP_VSA8>
18.868406

>  <SlogP_VSA9>
57.188232

>  <SMR>
5.9829702

>  <SMR_VSA0>
47.724434

>  <SMR_VSA1>
3.1243138

>  <SMR_VSA2>
18.01075

>  <SMR_VSA3>
3.185575

>  <SMR_VSA4>
0

>  <SMR_VSA5>
107.08433

>  <SMR_VSA6>
10.088739

>  <SMR_VSA7>
66.223206

>  <TPSA>
49.41

>  <VAdjEq>
0.56510133

>  <VAdjMa>
5.0874629

>  <VDistEq>
2.5759072

>  <VDistMa>
7.7409663

>  <vdw_area>
235.90057

>  <vdw_vol>
298.09659

>  <vsa_acc>
27.133842

>  <vsa_acid>
0

>  <vsa_base>
0

>  <vsa_don>
5.6825762

>  <vsa_hyd>
160.36742

>  <vsa_other>
30.390074

>  <vsa_pol>
32.816418

>  <Weight>
218.256

>  <weinerPath>
390

>  <weinerPol>
28

>  <zagreb>
84

$$$$