S(=O)(=O)(N)c1ccc(cc1)CN
  MOE2013           2D

 12 12  0  0  0  0  0  0  0  0999 V2000
    0.0000    0.0000    0.0000 S   0  0  0  0  0  0  0  0  0  0  0  0
    0.0070    1.5000    0.0000 O   0  0  0  0  0  0  0  0  0  0  0  0
   -0.0070   -1.5000    0.0000 O   0  0  0  0  0  0  0  0  0  0  0  0
   -1.5000    0.0070    0.0000 N   0  0  0  0  0  0  0  0  0  0  0  0
    1.5000   -0.0070    0.0000 C   0  0  0  0  0  0  0  0  0  0  0  0
    2.2560    1.2890    0.0000 C   0  0  0  0  0  0  0  0  0  0  0  0
    3.7560    1.2830    0.0000 C   0  0  0  0  0  0  0  0  0  0  0  0
    4.5000   -0.0200    0.0000 C   0  0  0  0  0  0  0  0  0  0  0  0
    3.7440   -1.3150    0.0000 C   0  0  0  0  0  0  0  0  0  0  0  0
    2.2440   -1.3090    0.0000 C   0  0  0  0  0  0  0  0  0  0  0  0
    6.0000   -0.0260    0.0000 C   0  0  0  0  0  0  0  0  0  0  0  0
    6.7560    1.2700    0.0000 N   0  0  0  0  0  0  0  0  0  0  0  0
  1  2  2  0  0  0  0
  1  3  2  0  0  0  0
  1  4  1  0  0  0  0
  1  5  1  0  0  0  0
  5  6  1  0  0  0  0
  5 10  2  0  0  0  0
  6  7  2  0  0  0  0
  7  8  1  0  0  0  0
  8  9  2  0  0  0  0
  8 11  1  0  0  0  0
  9 10  1  0  0  0  0
 11 12  1  0  0  0  0
M  END
>  <Index>
646

>  <ID>
HT1262

>  <class>
0

>  <apol>
25.691931

>  <ast_fraglike>
1

>  <ast_fraglike_ext>
0

>  <ast_violation>
0

>  <ast_violation_ext>
1

>  <a_acc>
3

>  <a_acid>
0

>  <a_aro>
6

>  <a_base>
0

>  <a_count>
22

>  <a_don>
2

>  <a_donacc>
5

>  <a_heavy>
12

>  <a_hyd>
7

>  <a_IC>
41.236729

>  <a_ICM>
1.8743968

>  <a_nB>
0

>  <a_nBr>
0

>  <a_nC>
7

>  <a_nCl>
0

>  <a_nF>
0

>  <a_nH>
10

>  <a_nI>
0

>  <a_nN>
2

>  <a_nO>
2

>  <a_nP>
0

>  <a_nS>
1

>  <balabanJ>
2.3861647

>  <BCUT_PEOE_0>
-2.3790929

>  <BCUT_PEOE_1>
-0.62627131

>  <BCUT_PEOE_2>
0.71729237

>  <BCUT_PEOE_3>
2.3758342

>  <BCUT_SLOGP_0>
-2.5736513

>  <BCUT_SLOGP_1>
-0.53807992

>  <BCUT_SLOGP_2>
0.80591482

>  <BCUT_SLOGP_3>
2.4191866

>  <BCUT_SMR_0>
-2.0763648

>  <BCUT_SMR_1>
-0.49986199

>  <BCUT_SMR_2>
0.85431087

>  <BCUT_SMR_3>
2.7267196

>  <bpol>
16.08807

>  <b_1rotN>
2

>  <b_1rotR>
0.16666667

>  <b_ar>
6

>  <b_count>
22

>  <b_double>
0

>  <b_heavy>
12

>  <b_max1len>
3

>  <b_rotN>
2

>  <b_rotR>
0.16666667

>  <b_single>
16

>  <b_triple>
0

>  <chi0>
9.1902342

>  <chi0v>
7.21245

>  <chi0v_C>
4.0165076

>  <chi0_C>
4.6902347

>  <chi1>
5.5370235

>  <chi1v>
4.902648

>  <chi1v_C>
2.1749206

>  <chi1_C>
3.0412414

>  <chiral>
0

>  <chiral_u>
0

>  <density>
0.84157413

>  <diameter>
7

>  <FCharge>
0

>  <GCUT_PEOE_0>
-0.83167303

>  <GCUT_PEOE_1>
-0.3968057

>  <GCUT_PEOE_2>
0.091254413

>  <GCUT_PEOE_3>
2.2178545

>  <GCUT_SLOGP_0>
-1.3482697

>  <GCUT_SLOGP_1>
-0.3849602

>  <GCUT_SLOGP_2>
0.16445385

>  <GCUT_SLOGP_3>
2.2720101

>  <GCUT_SMR_0>
-0.48874301

>  <GCUT_SMR_1>
-0.20403142

>  <GCUT_SMR_2>
0.19305076

>  <GCUT_SMR_3>
2.4959626

>  <Kier1>
10.083333

>  <Kier2>
3.8062284

>  <Kier3>
2.7777777

>  <KierA1>
9.3530807

>  <KierA2>
3.5045276

>  <KierA3>
2.542752

>  <KierFlex>
2.7315106

>  <lip_acc>
4

>  <lip_don>
4

>  <lip_druglike>
1

>  <lip_violation>
0

>  <logP(o/w)>
-0.41

>  <logS>
-1.27641

>  <mr>
4.7326994

>  <mutagenic>
0

>  <nmol>
1

>  <opr_brigid>
6

>  <opr_leadlike>
1

>  <opr_nring>
1

>  <opr_nrot>
2

>  <opr_violation>
0

>  <PC+>
0

>  <PC->
0

>  <PEOE_PC+>
1.1195644

>  <PEOE_PC->
-1.1195644

>  <PEOE_RPC+>
0.25174704

>  <PEOE_RPC->
0.29127741

>  <PEOE_VSA+0>
73.576538

>  <PEOE_VSA+1>
17.061544

>  <PEOE_VSA+2>
17.238026

>  <PEOE_VSA+3>
0

>  <PEOE_VSA+4>
0

>  <PEOE_VSA+5>
4.1846013

>  <PEOE_VSA+6>
0

>  <PEOE_VSA-0>
26.718348

>  <PEOE_VSA-1>
0

>  <PEOE_VSA-2>
0

>  <PEOE_VSA-3>
9.0437498

>  <PEOE_VSA-4>
32.016521

>  <PEOE_VSA-5>
0

>  <PEOE_VSA-6>
6.6511192

>  <PEOE_VSA_FHYD>
0.77021748

>  <PEOE_VSA_FNEG>
0.39910752

>  <PEOE_VSA_FPNEG>
0.20734382

>  <PEOE_VSA_FPOL>
0.22978251

>  <PEOE_VSA_FPOS>
0.60089248

>  <PEOE_VSA_FPPOS>
0.02243869

>  <PEOE_VSA_HYD>
143.6382

>  <PEOE_VSA_NEG>
74.429741

>  <PEOE_VSA_PNEG>
38.667645

>  <PEOE_VSA_POL>
42.852245

>  <PEOE_VSA_POS>
112.06071

>  <PEOE_VSA_PPOS>
4.1846013

>  <petitjean>
0.42857143

>  <petitjeanSC>
0.75

>  <Q_PC+>
0

>  <Q_PC->
0

>  <Q_RPC+>
0

>  <Q_RPC->
0

>  <Q_VSA_FHYD>
1

>  <Q_VSA_FNEG>
0

>  <Q_VSA_FPNEG>
0

>  <Q_VSA_FPOL>
0

>  <Q_VSA_FPOS>
1

>  <Q_VSA_FPPOS>
0

>  <Q_VSA_HYD>
186.49045

>  <Q_VSA_NEG>
0

>  <Q_VSA_PNEG>
0

>  <Q_VSA_POL>
0

>  <Q_VSA_POS>
186.49045

>  <Q_VSA_PPOS>
0

>  <radius>
4

>  <reactive>
0

>  <rings>
1

>  <RPC+>
0

>  <RPC->
0

>  <rsynth>
1

>  <SlogP>
0.059099998

>  <SlogP_VSA0>
64.188622

>  <SlogP_VSA1>
48.171688

>  <SlogP_VSA2>
6.6407428

>  <SlogP_VSA3>
0

>  <SlogP_VSA4>
3.185575

>  <SlogP_VSA5>
1.5507339

>  <SlogP_VSA6>
0

>  <SlogP_VSA7>
70.572739

>  <SlogP_VSA8>
0

>  <SlogP_VSA9>
18.439579

>  <SMR>
4.5911598

>  <SMR_VSA0>
48.171688

>  <SMR_VSA1>
0

>  <SMR_VSA2>
1.5507339

>  <SMR_VSA3>
3.185575

>  <SMR_VSA4>
64.188622

>  <SMR_VSA5>
89.012314

>  <SMR_VSA6>
0

>  <SMR_VSA7>
6.6407428

>  <TPSA>
86.18

>  <VAdjEq>
0.65002245

>  <VAdjMa>
4.5849624

>  <VDistEq>
2.5793397

>  <VDistMa>
6.8382902

>  <vdw_area>
186.49045

>  <vdw_vol>
221.29362

>  <vsa_acc>
32.016521

>  <vsa_acid>
0

>  <vsa_base>
0

>  <vsa_don>
20.13512

>  <vsa_hyd>
89.926628

>  <vsa_other>
10.105608

>  <vsa_pol>
69.894135

>  <Weight>
186.235

>  <weinerPath>
201

>  <weinerPol>
15

>  <zagreb>
58

$$$$