O=C1N(C)C(=O)N(c2[nH]cnc12)C
  MOE2013           2D

 13 14  0  0  0  0  0  0  0  0999 V2000
    0.0000    0.0000    0.0000 O   0  0  0  0  0  0  0  0  0  0  0  0
    0.0000   -1.5000    0.0000 C   0  0  0  0  0  0  0  0  0  0  0  0
   -1.2990   -2.2500    0.0000 N   0  0  0  0  0  0  0  0  0  0  0  0
   -2.5980   -1.5000    0.0000 C   0  0  0  0  0  0  0  0  0  0  0  0
   -1.2990   -3.7500    0.0000 C   0  0  0  0  0  0  0  0  0  0  0  0
   -2.5980   -4.5000    0.0000 O   0  0  0  0  0  0  0  0  0  0  0  0
    0.0000   -4.5000    0.0000 N   0  0  0  0  0  0  0  0  0  0  0  0
    1.2990   -3.7500    0.0000 C   0  0  0  0  0  0  0  0  0  0  0  0
    2.7260   -4.2140    0.0000 N   0  0  0  0  0  0  0  0  0  0  0  0
    3.6070   -3.0000    0.0000 C   0  0  0  0  0  0  0  0  0  0  0  0
    2.7260   -1.7860    0.0000 N   0  0  0  0  0  0  0  0  0  0  0  0
    1.2990   -2.2500    0.0000 C   0  0  0  0  0  0  0  0  0  0  0  0
    0.0000   -6.0000    0.0000 C   0  0  0  0  0  0  0  0  0  0  0  0
  1  2  2  0  0  0  0
  2  3  1  0  0  0  0
  2 12  1  0  0  0  0
  3  4  1  0  0  0  0
  3  5  1  0  0  0  0
  5  6  2  0  0  0  0
  5  7  1  0  0  0  0
  7  8  1  0  0  0  0
  7 13  1  0  0  0  0
  8  9  1  0  0  0  0
  8 12  2  0  0  0  0
  9 10  1  0  0  0  0
 10 11  2  0  0  0  0
 11 12  1  0  0  0  0
M  END
>  <Index>
66

>  <ID>
HT0137

>  <class>
0

>  <apol>
23.658344

>  <ast_fraglike>
0

>  <ast_fraglike_ext>
0

>  <ast_violation>
1

>  <ast_violation_ext>
1

>  <a_acc>
4

>  <a_acid>
0

>  <a_aro>
5

>  <a_base>
0

>  <a_count>
21

>  <a_don>
2

>  <a_donacc>
6

>  <a_heavy>
13

>  <a_hyd>
3

>  <a_IC>
38.587181

>  <a_ICM>
1.8374848

>  <a_nB>
0

>  <a_nBr>
0

>  <a_nC>
7

>  <a_nCl>
0

>  <a_nF>
0

>  <a_nH>
8

>  <a_nI>
0

>  <a_nN>
4

>  <a_nO>
2

>  <a_nP>
0

>  <a_nS>
0

>  <balabanJ>
2.2100117

>  <BCUT_PEOE_0>
-2.4520025

>  <BCUT_PEOE_1>
-0.4268519

>  <BCUT_PEOE_2>
0.34614974

>  <BCUT_PEOE_3>
2.468641

>  <BCUT_SLOGP_0>
-2.625603

>  <BCUT_SLOGP_1>
-0.34653392

>  <BCUT_SLOGP_2>
0.48058689

>  <BCUT_SLOGP_3>
2.3511558

>  <BCUT_SMR_0>
-2.1486301

>  <BCUT_SMR_1>
-0.18760598

>  <BCUT_SMR_2>
0.57866812

>  <BCUT_SMR_3>
2.7637551

>  <bpol>
16.601656

>  <b_1rotN>
0

>  <b_1rotR>
0

>  <b_ar>
5

>  <b_count>
22

>  <b_double>
2

>  <b_heavy>
14

>  <b_max1len>
2

>  <b_rotN>
0

>  <b_rotR>
0

>  <b_single>
15

>  <b_triple>
0

>  <chi0>
9.5854216

>  <chi0v>
7.2354875

>  <chi0v_C>
4.5773501

>  <chi0_C>
5.0165076

>  <chi1>
6.1258979

>  <chi1v>
3.7175834

>  <chi1v_C>
0.5

>  <chi1_C>
0.66666669

>  <chiral>
0

>  <chiral_u>
0

>  <density>
0.83756173

>  <diameter>
5

>  <FCharge>
0

>  <GCUT_PEOE_0>
-0.82626212

>  <GCUT_PEOE_1>
-0.43777573

>  <GCUT_PEOE_2>
-0.030899219

>  <GCUT_PEOE_3>
2.2669134

>  <GCUT_SLOGP_0>
-1.0014385

>  <GCUT_SLOGP_1>
-0.34457898

>  <GCUT_SLOGP_2>
0.040906895

>  <GCUT_SLOGP_3>
2.2138553

>  <GCUT_SMR_0>
-0.48439467

>  <GCUT_SMR_1>
-0.1671043

>  <GCUT_SMR_2>
0.1277058

>  <GCUT_SMR_3>
2.5385237

>  <Kier1>
9.5510206

>  <Kier2>
3.2925169

>  <Kier3>
1.3333334

>  <KierA1>
6.1684279

>  <KierA2>
2.0390365

>  <KierA3>
0.79643035

>  <KierFlex>
0.96751153

>  <lip_acc>
6

>  <lip_don>
1

>  <lip_druglike>
1

>  <lip_violation>
0

>  <logP(o/w)>
-0.99400002

>  <logS>
-0.79431999

>  <mr>
4.4038234

>  <mutagenic>
0

>  <nmol>
1

>  <opr_brigid>
10

>  <opr_leadlike>
1

>  <opr_nring>
2

>  <opr_nrot>
0

>  <opr_violation>
0

>  <PC+>
0

>  <PC->
0

>  <PEOE_PC+>
1.6137336

>  <PEOE_PC->
-1.6137336

>  <PEOE_RPC+>
0.20636968

>  <PEOE_RPC->
0.20472381

>  <PEOE_VSA+0>
72.069695

>  <PEOE_VSA+1>
21.236927

>  <PEOE_VSA+2>
15.455949

>  <PEOE_VSA+3>
15.318564

>  <PEOE_VSA+4>
0

>  <PEOE_VSA+5>
12.949531

>  <PEOE_VSA+6>
17.440542

>  <PEOE_VSA-0>
0

>  <PEOE_VSA-1>
0

>  <PEOE_VSA-2>
0

>  <PEOE_VSA-3>
0

>  <PEOE_VSA-4>
19.249496

>  <PEOE_VSA-5>
13.566921

>  <PEOE_VSA-6>
0.13689101

>  <PEOE_VSA_FHYD>
0.66203254

>  <PEOE_VSA_FNEG>
0.17582177

>  <PEOE_VSA_FPNEG>
0.17582177

>  <PEOE_VSA_FPOL>
0.33796743

>  <PEOE_VSA_FPOS>
0.82417822

>  <PEOE_VSA_FPPOS>
0.16214567

>  <PEOE_VSA_HYD>
124.08113

>  <PEOE_VSA_NEG>
32.953308

>  <PEOE_VSA_PNEG>
32.953308

>  <PEOE_VSA_POL>
63.343384

>  <PEOE_VSA_POS>
154.47121

>  <PEOE_VSA_PPOS>
30.390074

>  <petitjean>
0.2

>  <petitjeanSC>
0.25

>  <Q_PC+>
0

>  <Q_PC->
0

>  <Q_RPC+>
0

>  <Q_RPC->
0

>  <Q_VSA_FHYD>
1

>  <Q_VSA_FNEG>
0

>  <Q_VSA_FPNEG>
0

>  <Q_VSA_FPOL>
0

>  <Q_VSA_FPOS>
1

>  <Q_VSA_FPPOS>
0

>  <Q_VSA_HYD>
187.42451

>  <Q_VSA_NEG>
0

>  <Q_VSA_PNEG>
0

>  <Q_VSA_POL>
0

>  <Q_VSA_POS>
187.42451

>  <Q_VSA_PPOS>
0

>  <radius>
4

>  <reactive>
0

>  <rings>
2

>  <RPC+>
0

>  <RPC->
0

>  <rsynth>
1

>  <SlogP>
0.0515

>  <SlogP_VSA0>
3.1243138

>  <SlogP_VSA1>
29.998583

>  <SlogP_VSA2>
16.78553

>  <SlogP_VSA3>
0

>  <SlogP_VSA4>
26.618963

>  <SlogP_VSA5>
65.794373

>  <SlogP_VSA6>
0

>  <SlogP_VSA7>
16.78553

>  <SlogP_VSA8>
0

>  <SlogP_VSA9>
26.190136

>  <SMR>
4.44802

>  <SMR_VSA0>
47.724434

>  <SMR_VSA1>
19.909843

>  <SMR_VSA2>
19.909843

>  <SMR_VSA3>
2.7567475

>  <SMR_VSA4>
2.3279202

>  <SMR_VSA5>
16.78553

>  <SMR_VSA6>
10.088739

>  <SMR_VSA7>
65.794373

>  <TPSA>
69.300003

>  <VAdjEq>
0.64772749

>  <VAdjMa>
4.8073549

>  <VDistEq>
2.1923411

>  <VDistMa>
7.1445317

>  <vdw_area>
187.42451

>  <vdw_vol>
215.10892

>  <vsa_acc>
27.133842

>  <vsa_acid>
0

>  <vsa_base>
0

>  <vsa_don>
0

>  <vsa_hyd>
74.498474

>  <vsa_other>
66.371155

>  <vsa_pol>
38.498993

>  <Weight>
180.16699

>  <weinerPath>
211

>  <weinerPol>
22

>  <zagreb>
70

$$$$