S1c2c(C(=O)c3c1cccc3)c(NCCN(CC)CC)ccc2C
  MOE2013           2D

 24 26  0  0  0  0  0  0  0  0999 V2000
    0.0000    0.0000    0.0000 S   0  0  0  0  0  0  0  0  0  0  0  0
    1.5000    0.0070    0.0000 C   0  0  0  0  0  0  0  0  0  0  0  0
    2.2440    1.3090    0.0000 C   0  0  0  0  0  0  0  0  0  0  0  0
    1.4880    2.6050    0.0000 C   0  0  0  0  0  0  0  0  0  0  0  0
    2.2320    3.9070    0.0000 O   0  0  0  0  0  0  0  0  0  0  0  0
   -0.0120    2.5980    0.0000 C   0  0  0  0  0  0  0  0  0  0  0  0
   -0.7560    1.2960    0.0000 C   0  0  0  0  0  0  0  0  0  0  0  0
   -2.2560    1.2890    0.0000 C   0  0  0  0  0  0  0  0  0  0  0  0
   -3.0120    2.5840    0.0000 C   0  0  0  0  0  0  0  0  0  0  0  0
   -2.2680    3.8870    0.0000 C   0  0  0  0  0  0  0  0  0  0  0  0
   -0.7680    3.8940    0.0000 C   0  0  0  0  0  0  0  0  0  0  0  0
    3.7440    1.3160    0.0000 C   0  0  0  0  0  0  0  0  0  0  0  0
    4.4880    2.6190    0.0000 N   0  0  0  0  0  0  0  0  0  0  0  0
    5.9880    2.6260    0.0000 C   0  0  0  0  0  0  0  0  0  0  0  0
    6.7320    3.9280    0.0000 C   0  0  0  0  0  0  0  0  0  0  0  0
    8.2320    3.9350    0.0000 N   0  0  0  0  0  0  0  0  0  0  0  0
    8.9880    2.6390    0.0000 C   0  0  0  0  0  0  0  0  0  0  0  0
   10.4880    2.6460    0.0000 C   0  0  0  0  0  0  0  0  0  0  0  0
    8.9760    5.2370    0.0000 C   0  0  0  0  0  0  0  0  0  0  0  0
    8.2200    6.5330    0.0000 C   0  0  0  0  0  0  0  0  0  0  0  0
    4.5000    0.0210    0.0000 C   0  0  0  0  0  0  0  0  0  0  0  0
    3.7560   -1.2820    0.0000 C   0  0  0  0  0  0  0  0  0  0  0  0
    2.2560   -1.2890    0.0000 C   0  0  0  0  0  0  0  0  0  0  0  0
    1.5120   -2.5910    0.0000 C   0  0  0  0  0  0  0  0  0  0  0  0
  1  2  1  0  0  0  0
  1  7  1  0  0  0  0
  2  3  1  0  0  0  0
  2 23  2  0  0  0  0
  3  4  1  0  0  0  0
  3 12  2  0  0  0  0
  4  5  2  0  0  0  0
  4  6  1  0  0  0  0
  6  7  1  0  0  0  0
  6 11  2  0  0  0  0
  7  8  2  0  0  0  0
  8  9  1  0  0  0  0
  9 10  2  0  0  0  0
 10 11  1  0  0  0  0
 12 13  1  0  0  0  0
 12 21  1  0  0  0  0
 13 14  1  0  0  0  0
 14 15  1  0  0  0  0
 15 16  1  0  0  0  0
 16 17  1  0  0  0  0
 16 19  1  0  0  0  0
 17 18  1  0  0  0  0
 19 20  1  0  0  0  0
 21 22  2  0  0  0  0
 22 23  1  0  0  0  0
 23 24  1  0  0  0  0
M  END
>  <Index>
641

>  <ID>
HT1255

>  <class>
0

>  <apol>
57.105034

>  <ast_fraglike>
0

>  <ast_fraglike_ext>
0

>  <ast_violation>
2

>  <ast_violation_ext>
3

>  <a_acc>
2

>  <a_acid>
0

>  <a_aro>
12

>  <a_base>
0

>  <a_count>
48

>  <a_don>
1

>  <a_donacc>
3

>  <a_heavy>
24

>  <a_hyd>
20

>  <a_IC>
69.60054

>  <a_ICM>
1.4500113

>  <a_nB>
0

>  <a_nBr>
0

>  <a_nC>
20

>  <a_nCl>
0

>  <a_nF>
0

>  <a_nH>
24

>  <a_nI>
0

>  <a_nN>
2

>  <a_nO>
1

>  <a_nP>
0

>  <a_nS>
1

>  <balabanJ>
1.6345408

>  <BCUT_PEOE_0>
-2.6839561

>  <BCUT_PEOE_1>
-0.53092438

>  <BCUT_PEOE_2>
0.59047443

>  <BCUT_PEOE_3>
2.5722249

>  <BCUT_SLOGP_0>
-2.7668722

>  <BCUT_SLOGP_1>
-0.41200617

>  <BCUT_SLOGP_2>
0.69359422

>  <BCUT_SLOGP_3>
2.5418491

>  <BCUT_SMR_0>
-2.3978066

>  <BCUT_SMR_1>
-0.36310166

>  <BCUT_SMR_2>
0.7458393

>  <BCUT_SMR_3>
2.8533313

>  <bpol>
32.114967

>  <b_1rotN>
6

>  <b_1rotR>
0.23076923

>  <b_ar>
12

>  <b_count>
50

>  <b_double>
1

>  <b_heavy>
26

>  <b_max1len>
7

>  <b_rotN>
6

>  <b_rotR>
0.23076923

>  <b_single>
37

>  <b_triple>
0

>  <chi0>
17.104084

>  <chi0v>
15.372735

>  <chi0v_C>
12.792529

>  <chi0_C>
14.112519

>  <chi1>
11.651397

>  <chi1v>
9.3833532

>  <chi1v_C>
6.4022474

>  <chi1_C>
8.1245565

>  <chiral>
0

>  <chiral_u>
0

>  <density>
0.70475638

>  <diameter>
12

>  <FCharge>
0

>  <GCUT_PEOE_0>
-0.85812938

>  <GCUT_PEOE_1>
-0.37206221

>  <GCUT_PEOE_2>
0.036121983

>  <GCUT_PEOE_3>
2.6575353

>  <GCUT_SLOGP_0>
-0.99204534

>  <GCUT_SLOGP_1>
-0.24806517

>  <GCUT_SLOGP_2>
0.14683628

>  <GCUT_SLOGP_3>
2.7559273

>  <GCUT_SMR_0>
-0.52157724

>  <GCUT_SMR_1>
-0.17531708

>  <GCUT_SMR_2>
0.17734803

>  <GCUT_SMR_3>
2.9551644

>  <Kier1>
18.781065

>  <Kier2>
8.5895061

>  <Kier3>
4.0655999

>  <KierA1>
15.322177

>  <KierA2>
6.9416504

>  <KierA3>
3.2633348

>  <KierFlex>
4.4317164

>  <lip_acc>
3

>  <lip_don>
1

>  <lip_druglike>
1

>  <lip_violation>
0

>  <logP(o/w)>
3.9760001

>  <logS>
-4.5709801

>  <mr>
10.202321

>  <mutagenic>
0

>  <nmol>
1

>  <opr_brigid>
16

>  <opr_leadlike>
1

>  <opr_nring>
3

>  <opr_nrot>
6

>  <opr_violation>
0

>  <PC+>
0

>  <PC->
0

>  <PEOE_PC+>
1.4672396

>  <PEOE_PC->
-1.4672396

>  <PEOE_RPC+>
0.13411161

>  <PEOE_RPC->
0.20557204

>  <PEOE_VSA+0>
116.17351

>  <PEOE_VSA+1>
27.800856

>  <PEOE_VSA+2>
8.6190128

>  <PEOE_VSA+3>
8.458519

>  <PEOE_VSA+4>
0

>  <PEOE_VSA+5>
0

>  <PEOE_VSA+6>
0

>  <PEOE_VSA-0>
84.105576

>  <PEOE_VSA-1>
94.020683

>  <PEOE_VSA-2>
0

>  <PEOE_VSA-3>
0

>  <PEOE_VSA-4>
0

>  <PEOE_VSA-5>
13.703812

>  <PEOE_VSA-6>
0

>  <PEOE_VSA_FHYD>
0.96116602

>  <PEOE_VSA_FNEG>
0.54360974

>  <PEOE_VSA_FPNEG>
0.038833983

>  <PEOE_VSA_FPOL>
0.038833983

>  <PEOE_VSA_FPOS>
0.45639026

>  <PEOE_VSA_FPPOS>
0

>  <PEOE_VSA_HYD>
339.17816

>  <PEOE_VSA_NEG>
191.83008

>  <PEOE_VSA_PNEG>
13.703812

>  <PEOE_VSA_POL>
13.703812

>  <PEOE_VSA_POS>
161.0519

>  <PEOE_VSA_PPOS>
0

>  <petitjean>
0.5

>  <petitjeanSC>
1

>  <Q_PC+>
0

>  <Q_PC->
0

>  <Q_RPC+>
0

>  <Q_RPC->
0

>  <Q_VSA_FHYD>
1

>  <Q_VSA_FNEG>
0

>  <Q_VSA_FPNEG>
0

>  <Q_VSA_FPOL>
0

>  <Q_VSA_FPOS>
1

>  <Q_VSA_FPPOS>
0

>  <Q_VSA_HYD>
352.88196

>  <Q_VSA_NEG>
0

>  <Q_VSA_PNEG>
0

>  <Q_VSA_POL>
0

>  <Q_VSA_POS>
352.88196

>  <Q_VSA_PPOS>
0

>  <radius>
6

>  <reactive>
1

>  <rings>
3

>  <RPC+>
0

>  <RPC->
0

>  <rsynth>
0.29166666

>  <SlogP>
4.4443202

>  <SlogP_VSA0>
0

>  <SlogP_VSA1>
26.822676

>  <SlogP_VSA2>
0

>  <SlogP_VSA3>
73.758316

>  <SlogP_VSA4>
33.418941

>  <SlogP_VSA5>
3.1014678

>  <SlogP_VSA6>
0

>  <SlogP_VSA7>
105.85911

>  <SlogP_VSA8>
0

>  <SlogP_VSA9>
134.95433

>  <SMR>
10.14552

>  <SMR_VSA0>
23.862217

>  <SMR_VSA1>
3.1243138

>  <SMR_VSA2>
3.1014678

>  <SMR_VSA3>
9.5567245

>  <SMR_VSA4>
20.767498

>  <SMR_VSA5>
105.85911

>  <SMR_VSA6>
79.445923

>  <SMR_VSA7>
132.19759

>  <TPSA>
32.34

>  <VAdjEq>
0.43739632

>  <VAdjMa>
5.7004399

>  <VDistEq>
3.354682

>  <VDistMa>
8.8750505

>  <vdw_area>
352.88196

>  <vdw_vol>
483.1329

>  <vsa_acc>
13.566921

>  <vsa_acid>
0

>  <vsa_base>
0

>  <vsa_don>
5.6825762

>  <vsa_hyd>
305.72934

>  <vsa_other>
8.458519

>  <vsa_pol>
19.249496

>  <Weight>
340.491

>  <weinerPath>
1354

>  <weinerPol>
41

>  <zagreb>
124

$$$$