O[C@@H]1C[C@@H](CC[C@H]1C(C)C)C
  MOE2013           2D

 11 11  0  0  1  0  0  0  0  0999 V2000
    0.0000    0.0000    0.0000 O   0  0  0  0  0  0  0  0  0  0  0  0
    0.7550   -1.2960    0.0000 C   0  0  2  0  0  0  0  0  0  0  0  0
    2.2550   -1.2910    0.0000 C   0  0  0  0  0  0  0  0  0  0  0  0
    3.0090   -2.5870    0.0000 C   0  0  1  0  0  0  0  0  0  0  0  0
    2.2640   -3.8890    0.0000 C   0  0  0  0  0  0  0  0  0  0  0  0
    0.7640   -3.8940    0.0000 C   0  0  0  0  0  0  0  0  0  0  0  0
    0.0090   -2.5980    0.0000 C   0  0  1  0  0  0  0  0  0  0  0  0
   -1.4910   -2.6040    0.0000 C   0  0  0  0  0  0  0  0  0  0  0  0
   -2.2450   -1.3070    0.0000 C   0  0  0  0  0  0  0  0  0  0  0  0
   -2.2360   -3.9050    0.0000 C   0  0  0  0  0  0  0  0  0  0  0  0
    4.5090   -2.5820    0.0000 C   0  0  0  0  0  0  0  0  0  0  0  0
  2  1  1  6  0  0  0
  2  3  1  0  0  0  0
  2  7  1  0  0  0  0
  3  4  1  0  0  0  0
  4  5  1  0  0  0  0
  4 11  1  6  0  0  0
  5  6  1  0  0  0  0
  6  7  1  0  0  0  0
  7  8  1  1  0  0  0
  8  9  1  0  0  0  0
  8 10  1  0  0  0  0
M  END
>  <Index>
669

>  <ID>
HT1300

>  <class>
0

>  <apol>
31.73786

>  <ast_fraglike>
1

>  <ast_fraglike_ext>
1

>  <ast_violation>
0

>  <ast_violation_ext>
0

>  <a_acc>
1

>  <a_acid>
0

>  <a_aro>
0

>  <a_base>
0

>  <a_count>
31

>  <a_don>
1

>  <a_donacc>
2

>  <a_heavy>
11

>  <a_hyd>
10

>  <a_IC>
33.922241

>  <a_ICM>
1.0942659

>  <a_nB>
0

>  <a_nBr>
0

>  <a_nC>
10

>  <a_nCl>
0

>  <a_nF>
0

>  <a_nH>
20

>  <a_nI>
0

>  <a_nN>
0

>  <a_nO>
1

>  <a_nP>
0

>  <a_nS>
0

>  <balabanJ>
2.4371593

>  <BCUT_PEOE_0>
-2.849905

>  <BCUT_PEOE_1>
-0.39304575

>  <BCUT_PEOE_2>
0.47566912

>  <BCUT_PEOE_3>
2.8058784

>  <BCUT_SLOGP_0>
-2.7935016

>  <BCUT_SLOGP_1>
-0.35697845

>  <BCUT_SLOGP_2>
0.45881146

>  <BCUT_SLOGP_3>
2.8816931

>  <BCUT_SMR_0>
-2.6035671

>  <BCUT_SMR_1>
-0.30663452

>  <BCUT_SMR_2>
0.5626536

>  <BCUT_SMR_3>
3.0515347

>  <bpol>
21.86414

>  <b_1rotN>
1

>  <b_1rotR>
0.090909094

>  <b_ar>
0

>  <b_count>
31

>  <b_double>
0

>  <b_heavy>
11

>  <b_max1len>
4

>  <b_rotN>
1

>  <b_rotR>
0.090909094

>  <b_single>
31

>  <b_triple>
0

>  <chi0>
8.4307213

>  <chi0v>
7.8779349

>  <chi0v_C>
7.4307213

>  <chi0_C>
7.4307213

>  <chi1>
5.1090608

>  <chi1v>
4.7899094

>  <chi1v_C>
4.5317106

>  <chi1_C>
4.5317106

>  <chiral>
3

>  <chiral_u>
0

>  <density>
0.61811846

>  <diameter>
6

>  <FCharge>
0

>  <GCUT_PEOE_0>
-0.80042118

>  <GCUT_PEOE_1>
-0.29148778

>  <GCUT_PEOE_2>
0.023896843

>  <GCUT_PEOE_3>
2.6978319

>  <GCUT_SLOGP_0>
-0.88221258

>  <GCUT_SLOGP_1>
-0.24002981

>  <GCUT_SLOGP_2>
-0.0083653405

>  <GCUT_SLOGP_3>
2.7782316

>  <GCUT_SMR_0>
-0.53771973

>  <GCUT_SMR_1>
-0.17385587

>  <GCUT_SMR_2>
0.1087319

>  <GCUT_SMR_3>
2.9109459

>  <Kier1>
9.090909

>  <Kier2>
3.5999999

>  <Kier3>
2.2145329

>  <KierA1>
9.090909

>  <KierA2>
3.5999999

>  <KierA3>
2.2145329

>  <KierFlex>
2.9752066

>  <lip_acc>
1

>  <lip_don>
1

>  <lip_druglike>
1

>  <lip_violation>
0

>  <logP(o/w)>
3.0910001

>  <logS>
-2.60657

>  <mr>
4.745141

>  <mutagenic>
0

>  <nmol>
1

>  <opr_brigid>
6

>  <opr_leadlike>
1

>  <opr_nring>
1

>  <opr_nrot>
3

>  <opr_violation>
0

>  <PC+>
0

>  <PC->
0

>  <PEOE_PC+>
0.7956183

>  <PEOE_PC->
-0.7956183

>  <PEOE_RPC+>
0.26367962

>  <PEOE_RPC->
0.49206418

>  <PEOE_VSA+0>
76.776947

>  <PEOE_VSA+1>
9.1703148

>  <PEOE_VSA+2>
0

>  <PEOE_VSA+3>
0

>  <PEOE_VSA+4>
10.324173

>  <PEOE_VSA+5>
0

>  <PEOE_VSA+6>
0

>  <PEOE_VSA-0>
17.402626

>  <PEOE_VSA-1>
64.944344

>  <PEOE_VSA-2>
0

>  <PEOE_VSA-3>
0

>  <PEOE_VSA-4>
0

>  <PEOE_VSA-5>
0

>  <PEOE_VSA-6>
7.7675405

>  <PEOE_VSA_FHYD>
0.90293413

>  <PEOE_VSA_FNEG>
0.4834834

>  <PEOE_VSA_FPNEG>
0.041674495

>  <PEOE_VSA_FPOL>
0.097065866

>  <PEOE_VSA_FPOS>
0.51651663

>  <PEOE_VSA_FPPOS>
0.055391368

>  <PEOE_VSA_HYD>
168.29424

>  <PEOE_VSA_NEG>
90.11451

>  <PEOE_VSA_PNEG>
7.7675405

>  <PEOE_VSA_POL>
18.091713

>  <PEOE_VSA_POS>
96.271439

>  <PEOE_VSA_PPOS>
10.324173

>  <petitjean>
0.5

>  <petitjeanSC>
1

>  <Q_PC+>
0

>  <Q_PC->
0

>  <Q_RPC+>
0

>  <Q_RPC->
0

>  <Q_VSA_FHYD>
1

>  <Q_VSA_FNEG>
0

>  <Q_VSA_FPNEG>
0

>  <Q_VSA_FPOL>
0

>  <Q_VSA_FPOS>
1

>  <Q_VSA_FPPOS>
0

>  <Q_VSA_HYD>
186.38596

>  <Q_VSA_NEG>
0

>  <Q_VSA_PNEG>
0

>  <Q_VSA_POL>
0

>  <Q_VSA_POS>
186.38596

>  <Q_VSA_PPOS>
0

>  <radius>
3

>  <reactive>
0

>  <rings>
1

>  <RPC+>
0

>  <RPC->
0

>  <rsynth>
1

>  <SlogP>
2.4395001

>  <SlogP_VSA0>
25.385227

>  <SlogP_VSA1>
0

>  <SlogP_VSA2>
6.4686494

>  <SlogP_VSA3>
0

>  <SlogP_VSA4>
13.232388

>  <SlogP_VSA5>
0

>  <SlogP_VSA6>
0

>  <SlogP_VSA7>
0

>  <SlogP_VSA8>
56.605217

>  <SlogP_VSA9>
99.978043

>  <SMR>
4.7349801

>  <SMR_VSA0>
0

>  <SMR_VSA1>
25.385227

>  <SMR_VSA2>
13.232388

>  <SMR_VSA3>
6.4686494

>  <SMR_VSA4>
0

>  <SMR_VSA5>
56.605217

>  <SMR_VSA6>
0

>  <SMR_VSA7>
99.978043

>  <TPSA>
20.23

>  <VAdjEq>
0.68403846

>  <VAdjMa>
4.4594316

>  <VDistEq>
2.3280098

>  <VDistMa>
6.6127062

>  <vdw_area>
186.38596

>  <vdw_vol>
252.814

>  <vsa_acc>
0

>  <vsa_acid>
0

>  <vsa_base>
0

>  <vsa_don>
0

>  <vsa_hyd>
150.73497

>  <vsa_other>
0

>  <vsa_pol>
13.566921

>  <Weight>
156.269

>  <weinerPath>
150

>  <weinerPol>
14

>  <zagreb>
52

$$$$