O(C(C)(C)C)C
  MOE2013           2D

  6  5  0  0  0  0  0  0  0  0999 V2000
    0.0000    0.0000    0.0000 O   0  0  0  0  0  0  0  0  0  0  0  0
   -1.2990   -0.7500    0.0000 C   0  0  0  0  0  0  0  0  0  0  0  0
   -0.5490   -2.0490    0.0000 C   0  0  0  0  0  0  0  0  0  0  0  0
   -2.0490    0.5490    0.0000 C   0  0  0  0  0  0  0  0  0  0  0  0
   -2.5980   -1.5000    0.0000 C   0  0  0  0  0  0  0  0  0  0  0  0
    1.2990   -0.7500    0.0000 C   0  0  0  0  0  0  0  0  0  0  0  0
  1  2  1  0  0  0  0
  1  6  1  0  0  0  0
  2  3  1  0  0  0  0
  2  4  1  0  0  0  0
  2  5  1  0  0  0  0
M  END
>  <Index>
693

>  <ID>
HT1358

>  <class>
0

>  <apol>
17.603516

>  <ast_fraglike>
1

>  <ast_fraglike_ext>
1

>  <ast_violation>
0

>  <ast_violation_ext>
0

>  <a_acc>
1

>  <a_acid>
0

>  <a_aro>
0

>  <a_base>
0

>  <a_count>
18

>  <a_don>
0

>  <a_donacc>
1

>  <a_heavy>
6

>  <a_hyd>
5

>  <a_IC>
20.429459

>  <a_ICM>
1.1349699

>  <a_nB>
0

>  <a_nBr>
0

>  <a_nC>
5

>  <a_nCl>
0

>  <a_nF>
0

>  <a_nH>
12

>  <a_nI>
0

>  <a_nN>
0

>  <a_nO>
1

>  <a_nP>
0

>  <a_nS>
0

>  <balabanJ>
3.1684899

>  <BCUT_PEOE_0>
-2.6246712

>  <BCUT_PEOE_1>
0.025710603

>  <BCUT_PEOE_2>
0.052373402

>  <BCUT_PEOE_3>
2.5834453

>  <BCUT_SLOGP_0>
-2.6000454

>  <BCUT_SLOGP_1>
0.123

>  <BCUT_SLOGP_2>
0.123

>  <BCUT_SLOGP_3>
2.6228101

>  <BCUT_SMR_0>
-2.3828731

>  <BCUT_SMR_1>
0.1057

>  <BCUT_SMR_2>
0.1057

>  <BCUT_SMR_3>
2.8192608

>  <bpol>
15.034484

>  <b_1rotN>
0

>  <b_1rotR>
0

>  <b_ar>
0

>  <b_count>
17

>  <b_double>
0

>  <b_heavy>
5

>  <b_max1len>
5

>  <b_rotN>
1

>  <b_rotR>
0.2

>  <b_single>
17

>  <b_triple>
0

>  <chi0>
5.2071066

>  <chi0v>
4.9082484

>  <chi0v_C>
4.5

>  <chi0_C>
4.5

>  <chi1>
2.5606601

>  <chi1v>
2.1123724

>  <chi1v_C>
1.5

>  <chi1_C>
1.5

>  <chiral>
0

>  <chiral_u>
0

>  <density>
0.6008724

>  <diameter>
3

>  <FCharge>
0

>  <GCUT_PEOE_0>
-0.81913698

>  <GCUT_PEOE_1>
-0.1342894

>  <GCUT_PEOE_2>
-0.10762659

>  <GCUT_PEOE_3>
2.1229701

>  <GCUT_SLOGP_0>
-0.82952303

>  <GCUT_SLOGP_1>
-0.039888632

>  <GCUT_SLOGP_2>
-0.037

>  <GCUT_SLOGP_3>
2.1835055

>  <GCUT_SMR_0>
-0.52713406

>  <GCUT_SMR_1>
-0.054299999

>  <GCUT_SMR_2>
-0.054299999

>  <GCUT_SMR_3>
2.3302855

>  <Kier1>
6

>  <Kier2>
1.6326531

>  <Kier3>
5.3333335

>  <KierA1>
6

>  <KierA2>
1.6326531

>  <KierA3>
5.3333335

>  <KierFlex>
1.6326531

>  <lip_acc>
1

>  <lip_don>
0

>  <lip_druglike>
1

>  <lip_violation>
0

>  <logP(o/w)>
1.418

>  <logS>
-0.71481001

>  <mr>
2.6668344

>  <mutagenic>
0

>  <nmol>
1

>  <opr_brigid>
0

>  <opr_leadlike>
1

>  <opr_nring>
0

>  <opr_nrot>
1

>  <opr_violation>
0

>  <PC+>
0

>  <PC->
0

>  <PEOE_PC+>
0.48645461

>  <PEOE_PC->
-0.48645461

>  <PEOE_RPC+>
0.12501979

>  <PEOE_RPC->
0.77578324

>  <PEOE_VSA+0>
63.386131

>  <PEOE_VSA+1>
12.796158

>  <PEOE_VSA+2>
0

>  <PEOE_VSA+3>
0

>  <PEOE_VSA+4>
0

>  <PEOE_VSA+5>
0

>  <PEOE_VSA+6>
0

>  <PEOE_VSA-0>
56.243034

>  <PEOE_VSA-1>
0

>  <PEOE_VSA-2>
0

>  <PEOE_VSA-3>
0

>  <PEOE_VSA-4>
0

>  <PEOE_VSA-5>
0

>  <PEOE_VSA-6>
2.503756

>  <PEOE_VSA_FHYD>
0.98144388

>  <PEOE_VSA_FNEG>
0.43539011

>  <PEOE_VSA_FPNEG>
0.01855609

>  <PEOE_VSA_FPOL>
0.01855609

>  <PEOE_VSA_FPOS>
0.56460989

>  <PEOE_VSA_FPPOS>
0

>  <PEOE_VSA_HYD>
132.42532

>  <PEOE_VSA_NEG>
58.746788

>  <PEOE_VSA_PNEG>
2.503756

>  <PEOE_VSA_POL>
2.503756

>  <PEOE_VSA_POS>
76.182289

>  <PEOE_VSA_PPOS>
0

>  <petitjean>
0.33333334

>  <petitjeanSC>
0.5

>  <Q_PC+>
0

>  <Q_PC->
0

>  <Q_RPC+>
0

>  <Q_RPC->
0

>  <Q_VSA_FHYD>
1

>  <Q_VSA_FNEG>
0

>  <Q_VSA_FPNEG>
0

>  <Q_VSA_FPOL>
0

>  <Q_VSA_FPOS>
1

>  <Q_VSA_FPPOS>
0

>  <Q_VSA_HYD>
134.92908

>  <Q_VSA_NEG>
0

>  <Q_VSA_PNEG>
0

>  <Q_VSA_POL>
0

>  <Q_VSA_POS>
134.92908

>  <Q_VSA_PPOS>
0

>  <radius>
2

>  <reactive>
0

>  <rings>
0

>  <RPC+>
0

>  <RPC->
0

>  <rsynth>
0

>  <SlogP>
1.4313

>  <SlogP_VSA0>
0

>  <SlogP_VSA1>
0

>  <SlogP_VSA2>
10.999887

>  <SlogP_VSA3>
0

>  <SlogP_VSA4>
0

>  <SlogP_VSA5>
35.383869

>  <SlogP_VSA6>
0

>  <SlogP_VSA7>
0

>  <SlogP_VSA8>
0

>  <SlogP_VSA9>
99.978043

>  <SMR>
2.6761999

>  <SMR_VSA0>
10.999887

>  <SMR_VSA1>
0

>  <SMR_VSA2>
0

>  <SMR_VSA3>
0

>  <SMR_VSA4>
0

>  <SMR_VSA5>
0

>  <SMR_VSA6>
0

>  <SMR_VSA7>
135.36191

>  <TPSA>
9.2299995

>  <VAdjEq>
0.85240519

>  <VAdjMa>
3.321928

>  <VDistEq>
1.5058231

>  <VDistMa>
4.7979026

>  <vdw_area>
134.92908

>  <vdw_vol>
146.70335

>  <vsa_acc>
2.503756

>  <vsa_acid>
0

>  <vsa_base>
0

>  <vsa_don>
0

>  <vsa_hyd>
123.88378

>  <vsa_other>
0

>  <vsa_pol>
2.503756

>  <Weight>
88.150002

>  <weinerPath>
28

>  <weinerPol>
3

>  <zagreb>
24

$$$$