S1C(=N/C(=O)C)N(N=C1S(=O)(=O)N)C
  MOE2013           2D

 14 14  0  0  0  0  0  0  0  0999 V2000
    0.0000    0.0000    0.0000 S   0  0  0  0  0  0  0  0  0  0  0  0
    1.3720    0.6060    0.0000 C   0  0  0  0  0  0  0  0  0  0  0  0
    2.6690   -0.1470    0.0000 N   0  0  0  0  0  0  0  0  0  0  0  0
    2.6650   -1.6470    0.0000 C   0  0  0  0  0  0  0  0  0  0  0  0
    3.9620   -2.4010    0.0000 O   0  0  0  0  0  0  0  0  0  0  0  0
    1.3640   -2.3940    0.0000 C   0  0  0  0  0  0  0  0  0  0  0  0
    1.2190    2.0980    0.0000 N   0  0  0  0  0  0  0  0  0  0  0  0
   -0.2470    2.4140    0.0000 N   0  0  0  0  0  0  0  0  0  0  0  0
   -1.0010    1.1180    0.0000 C   0  0  0  0  0  0  0  0  0  0  0  0
   -2.4930    0.9650    0.0000 S   0  0  0  0  0  0  0  0  0  0  0  0
   -2.3400   -0.5270    0.0000 O   0  0  0  0  0  0  0  0  0  0  0  0
   -2.6450    2.4570    0.0000 O   0  0  0  0  0  0  0  0  0  0  0  0
   -3.9850    0.8120    0.0000 N   0  0  0  0  0  0  0  0  0  0  0  0
    2.3370    3.0990    0.0000 C   0  0  0  0  0  0  0  0  0  0  0  0
  1  2  1  0  0  0  0
  1  9  1  0  0  0  0
  2  3  2  3  0  0  0
  2  7  1  0  0  0  0
  3  4  1  0  0  0  0
  4  5  2  0  0  0  0
  4  6  1  0  0  0  0
  7  8  1  0  0  0  0
  7 14  1  0  0  0  0
  8  9  2  0  0  0  0
  9 10  1  0  0  0  0
 10 11  2  0  0  0  0
 10 12  2  0  0  0  0
 10 13  1  0  0  0  0
M  END
>  <Index>
686

>  <ID>
HT1338

>  <class>
0

>  <apol>
26.740343

>  <ast_fraglike>
0

>  <ast_fraglike_ext>
0

>  <ast_violation>
1

>  <ast_violation_ext>
2

>  <a_acc>
5

>  <a_acid>
0

>  <a_aro>
0

>  <a_base>
0

>  <a_count>
22

>  <a_don>
1

>  <a_donacc>
6

>  <a_heavy>
14

>  <a_hyd>
3

>  <a_IC>
47.74297

>  <a_ICM>
2.1701348

>  <a_nB>
0

>  <a_nBr>
0

>  <a_nC>
5

>  <a_nCl>
0

>  <a_nF>
0

>  <a_nH>
8

>  <a_nI>
0

>  <a_nN>
4

>  <a_nO>
3

>  <a_nP>
0

>  <a_nS>
2

>  <balabanJ>
2.5326779

>  <BCUT_PEOE_0>
-2.2811954

>  <BCUT_PEOE_1>
-0.28214872

>  <BCUT_PEOE_2>
0.51103097

>  <BCUT_PEOE_3>
2.4579258

>  <BCUT_SLOGP_0>
-2.5997164

>  <BCUT_SLOGP_1>
-0.3339

>  <BCUT_SLOGP_2>
0.26523274

>  <BCUT_SLOGP_3>
2.3254945

>  <BCUT_SMR_0>
-2.0055711

>  <BCUT_SMR_1>
0.046010349

>  <BCUT_SMR_2>
0.75973934

>  <BCUT_SMR_3>
2.8393097

>  <bpol>
21.099655

>  <b_1rotN>
1

>  <b_1rotR>
0.071428575

>  <b_ar>
0

>  <b_count>
22

>  <b_double>
3

>  <b_heavy>
14

>  <b_max1len>
3

>  <b_rotN>
2

>  <b_rotR>
0.14285715

>  <b_single>
19

>  <b_triple>
0

>  <chi0>
10.930721

>  <chi0v>
9.0932255

>  <chi0v_C>
3.5

>  <chi0_C>
3.7320509

>  <chi1>
6.3035488

>  <chi1v>
5.789989

>  <chi1v_C>
0.5

>  <chi1_C>
0.57735026

>  <chiral>
0

>  <chiral_u>
0

>  <density>
1.0053211

>  <diameter>
7

>  <FCharge>
0

>  <GCUT_PEOE_0>
-0.79456413

>  <GCUT_PEOE_1>
-0.39454836

>  <GCUT_PEOE_2>
-0.073116183

>  <GCUT_PEOE_3>
2.1378696

>  <GCUT_SLOGP_0>
-1.3482116

>  <GCUT_SLOGP_1>
-0.48619139

>  <GCUT_SLOGP_2>
0.054200001

>  <GCUT_SLOGP_3>
2.0629864

>  <GCUT_SMR_0>
-0.48871082

>  <GCUT_SMR_1>
-0.082259998

>  <GCUT_SMR_2>
0.29722059

>  <GCUT_SMR_3>
2.4670463

>  <Kier1>
12.071428

>  <Kier2>
4.2448978

>  <Kier3>
3.2727273

>  <KierA1>
11.88207

>  <KierA2>
4.1729274

>  <KierA3>
3.2140725

>  <KierFlex>
3.5416436

>  <lip_acc>
7

>  <lip_don>
2

>  <lip_druglike>
1

>  <lip_violation>
0

>  <logP(o/w)>
0.82200003

>  <logS>
-1.5945801

>  <mr>
5.1105814

>  <mutagenic>
0

>  <nmol>
1

>  <opr_brigid>
6

>  <opr_leadlike>
1

>  <opr_nring>
1

>  <opr_nrot>
1

>  <opr_violation>
0

>  <PC+>
0

>  <PC->
0

>  <PEOE_PC+>
1.4186597

>  <PEOE_PC->
-1.4186597

>  <PEOE_RPC+>
0.3098954

>  <PEOE_RPC->
0.19112679

>  <PEOE_VSA+0>
84.816711

>  <PEOE_VSA+1>
29.866226

>  <PEOE_VSA+2>
0

>  <PEOE_VSA+3>
0

>  <PEOE_VSA+4>
26.116156

>  <PEOE_VSA+5>
0

>  <PEOE_VSA+6>
10.651674

>  <PEOE_VSA-0>
0

>  <PEOE_VSA-1>
9.4210396

>  <PEOE_VSA-2>
0

>  <PEOE_VSA-3>
14.726326

>  <PEOE_VSA-4>
32.016521

>  <PEOE_VSA-5>
13.566921

>  <PEOE_VSA-6>
0

>  <PEOE_VSA_FHYD>
0.62767571

>  <PEOE_VSA_FNEG>
0.315265

>  <PEOE_VSA_FPNEG>
0.2060906

>  <PEOE_VSA_FPOL>
0.37232429

>  <PEOE_VSA_FPOS>
0.684735

>  <PEOE_VSA_FPPOS>
0.16623369

>  <PEOE_VSA_HYD>
138.83031

>  <PEOE_VSA_NEG>
69.730812

>  <PEOE_VSA_PNEG>
45.583443

>  <PEOE_VSA_POL>
82.351273

>  <PEOE_VSA_POS>
151.45076

>  <PEOE_VSA_PPOS>
36.76783

>  <petitjean>
0.42857143

>  <petitjeanSC>
0.75

>  <Q_PC+>
0

>  <Q_PC->
0

>  <Q_RPC+>
0

>  <Q_RPC->
0

>  <Q_VSA_FHYD>
1

>  <Q_VSA_FNEG>
0

>  <Q_VSA_FPNEG>
0

>  <Q_VSA_FPOL>
0

>  <Q_VSA_FPOS>
1

>  <Q_VSA_FPPOS>
0

>  <Q_VSA_HYD>
221.18158

>  <Q_VSA_NEG>
0

>  <Q_VSA_PNEG>
0

>  <Q_VSA_POL>
0

>  <Q_VSA_POS>
221.18158

>  <Q_VSA_PPOS>
0

>  <radius>
4

>  <reactive>
0

>  <rings>
1

>  <RPC+>
0

>  <RPC->
0

>  <rsynth>
1

>  <SlogP>
-0.87300003

>  <SlogP_VSA0>
31.291433

>  <SlogP_VSA1>
57.125343

>  <SlogP_VSA2>
30.502958

>  <SlogP_VSA3>
0

>  <SlogP_VSA4>
0

>  <SlogP_VSA5>
66.345726

>  <SlogP_VSA6>
0

>  <SlogP_VSA7>
0

>  <SlogP_VSA8>
0

>  <SlogP_VSA9>
65.545555

>  <SMR>
5.40132

>  <SMR_VSA0>
72.033905

>  <SMR_VSA1>
36.450329

>  <SMR_VSA2>
0

>  <SMR_VSA3>
0

>  <SMR_VSA4>
31.291433

>  <SMR_VSA5>
0

>  <SMR_VSA6>
5.9518628

>  <SMR_VSA7>
105.08349

>  <TPSA>
105.19

>  <VAdjEq>
0.59167278

>  <VAdjMa>
4.8073549

>  <VDistEq>
2.6742013

>  <VDistMa>
7.3097162

>  <vdw_area>
221.18158

>  <vdw_vol>
235.02541

>  <vsa_acc>
60.687061

>  <vsa_acid>
0

>  <vsa_base>
0

>  <vsa_don>
20.13512

>  <vsa_hyd>
83.068527

>  <vsa_other>
46.87344

>  <vsa_pol>
80.822182

>  <Weight>
236.276

>  <weinerPath>
304

>  <weinerPol>
17

>  <zagreb>
70

$$$$