OC(=O)CNC(=O)c1ccc(N)cc1
  MOE2013           2D

 14 14  0  0  0  0  0  0  0  0999 V2000
    0.0000    0.0000    0.0000 O   0  0  0  0  0  0  0  0  0  0  0  0
   -1.2930   -0.7600    0.0000 C   0  0  0  0  0  0  0  0  0  0  0  0
   -1.2810   -2.2600    0.0000 O   0  0  0  0  0  0  0  0  0  0  0  0
   -2.5980   -0.0200    0.0000 C   0  0  0  0  0  0  0  0  0  0  0  0
   -3.8910   -0.7810    0.0000 N   0  0  0  0  0  0  0  0  0  0  0  0
   -5.1960   -0.0410    0.0000 C   0  0  0  0  0  0  0  0  0  0  0  0
   -5.2080    1.4590    0.0000 O   0  0  0  0  0  0  0  0  0  0  0  0
   -6.4890   -0.8010    0.0000 C   0  0  0  0  0  0  0  0  0  0  0  0
   -6.4770   -2.3010    0.0000 C   0  0  0  0  0  0  0  0  0  0  0  0
   -7.7700   -3.0610    0.0000 C   0  0  0  0  0  0  0  0  0  0  0  0
   -9.0750   -2.3210    0.0000 C   0  0  0  0  0  0  0  0  0  0  0  0
  -10.3680   -3.0820    0.0000 N   0  0  0  0  0  0  0  0  0  0  0  0
   -9.0870   -0.8220    0.0000 C   0  0  0  0  0  0  0  0  0  0  0  0
   -7.7940   -0.0610    0.0000 C   0  0  0  0  0  0  0  0  0  0  0  0
  1  2  1  0  0  0  0
  2  3  2  0  0  0  0
  2  4  1  0  0  0  0
  4  5  1  0  0  0  0
  5  6  1  0  0  0  0
  6  7  2  0  0  0  0
  6  8  1  0  0  0  0
  8  9  1  0  0  0  0
  8 14  2  0  0  0  0
  9 10  2  0  0  0  0
 10 11  1  0  0  0  0
 11 12  1  0  0  0  0
 11 13  2  0  0  0  0
 13 14  1  0  0  0  0
M  END
>  <Index>
64

>  <ID>
HT0135

>  <class>
0

>  <apol>
27.11393

>  <ast_fraglike>
0

>  <ast_fraglike_ext>
0

>  <ast_violation>
1

>  <ast_violation_ext>
2

>  <a_acc>
3

>  <a_acid>
0

>  <a_aro>
6

>  <a_base>
0

>  <a_count>
24

>  <a_don>
4

>  <a_donacc>
7

>  <a_heavy>
14

>  <a_hyd>
7

>  <a_IC>
41.535606

>  <a_ICM>
1.7306503

>  <a_nB>
0

>  <a_nBr>
0

>  <a_nC>
9

>  <a_nCl>
0

>  <a_nF>
0

>  <a_nH>
10

>  <a_nI>
0

>  <a_nN>
2

>  <a_nO>
3

>  <a_nP>
0

>  <a_nS>
0

>  <balabanJ>
2.2200513

>  <BCUT_PEOE_0>
-2.3394156

>  <BCUT_PEOE_1>
-0.60680532

>  <BCUT_PEOE_2>
0.62674844

>  <BCUT_PEOE_3>
2.3647029

>  <BCUT_SLOGP_0>
-2.6093991

>  <BCUT_SLOGP_1>
-0.54255289

>  <BCUT_SLOGP_2>
0.66698682

>  <BCUT_SLOGP_3>
2.3133452

>  <BCUT_SMR_0>
-2.0605087

>  <BCUT_SMR_1>
-0.42875165

>  <BCUT_SMR_2>
0.76605177

>  <BCUT_SMR_3>
2.6308866

>  <bpol>
12.84807

>  <b_1rotN>
3

>  <b_1rotR>
0.21428572

>  <b_ar>
6

>  <b_count>
24

>  <b_double>
2

>  <b_heavy>
14

>  <b_max1len>
3

>  <b_rotN>
4

>  <b_rotR>
0.2857143

>  <b_single>
16

>  <b_triple>
0

>  <chi0>
10.552042

>  <chi0v>
7.3575683

>  <chi0v_C>
5.0165076

>  <chi0_C>
5.8449349

>  <chi1>
6.5922241

>  <chi1v>
3.9490042

>  <chi1v_C>
2.4249206

>  <chi1_C>
3.3745749

>  <chiral>
0

>  <chiral_u>
0

>  <density>
0.7958743

>  <diameter>
9

>  <FCharge>
0

>  <GCUT_PEOE_0>
-0.81545347

>  <GCUT_PEOE_1>
-0.45758304

>  <GCUT_PEOE_2>
0.1066342

>  <GCUT_PEOE_3>
2.1681194

>  <GCUT_SLOGP_0>
-1.3342841

>  <GCUT_SLOGP_1>
-0.39995557

>  <GCUT_SLOGP_2>
0.16576123

>  <GCUT_SLOGP_3>
2.2091413

>  <GCUT_SMR_0>
-0.4710342

>  <GCUT_SMR_1>
-0.23131104

>  <GCUT_SMR_2>
0.20732225

>  <GCUT_SMR_3>
2.4556599

>  <Kier1>
12.071428

>  <Kier2>
5.7777777

>  <Kier3>
4.3878117

>  <KierA1>
7.9718752

>  <KierA2>
3.6791739

>  <KierA3>
2.7166083

>  <KierFlex>
2.0949941

>  <lip_acc>
5

>  <lip_don>
4

>  <lip_druglike>
1

>  <lip_violation>
0

>  <logP(o/w)>
0.037999999

>  <logS>
-1.24773

>  <mr>
5.0716224

>  <mutagenic>
1

>  <nmol>
1

>  <opr_brigid>
6

>  <opr_leadlike>
1

>  <opr_nring>
1

>  <opr_nrot>
3

>  <opr_violation>
0

>  <PC+>
0

>  <PC->
0

>  <PEOE_PC+>
1.68847

>  <PEOE_PC->
-1.68847

>  <PEOE_RPC+>
0.1652396

>  <PEOE_RPC->
0.20299636

>  <PEOE_VSA+0>
8.9080906

>  <PEOE_VSA+1>
25.592316

>  <PEOE_VSA+2>
30.430351

>  <PEOE_VSA+3>
8.6190128

>  <PEOE_VSA+4>
10.324173

>  <PEOE_VSA+5>
27.65803

>  <PEOE_VSA+6>
0

>  <PEOE_VSA-0>
49.019615

>  <PEOE_VSA-1>
0

>  <PEOE_VSA-2>
0

>  <PEOE_VSA-3>
0

>  <PEOE_VSA-4>
0

>  <PEOE_VSA-5>
27.133842

>  <PEOE_VSA-6>
14.555551

>  <PEOE_VSA_FHYD>
0.60605615

>  <PEOE_VSA_FNEG>
0.44851941

>  <PEOE_VSA_FPNEG>
0.20613721

>  <PEOE_VSA_FPOL>
0.39394388

>  <PEOE_VSA_FPOS>
0.55148059

>  <PEOE_VSA_FPPOS>
0.18780665

>  <PEOE_VSA_HYD>
122.56939

>  <PEOE_VSA_NEG>
90.709007

>  <PEOE_VSA_PNEG>
41.689392

>  <PEOE_VSA_POL>
79.671593

>  <PEOE_VSA_POS>
111.53197

>  <PEOE_VSA_PPOS>
37.982204

>  <petitjean>
0.44444445

>  <petitjeanSC>
0.80000001

>  <Q_PC+>
0

>  <Q_PC->
0

>  <Q_RPC+>
0

>  <Q_RPC->
0

>  <Q_VSA_FHYD>
1

>  <Q_VSA_FNEG>
0

>  <Q_VSA_FPNEG>
0

>  <Q_VSA_FPOL>
0

>  <Q_VSA_FPOS>
1

>  <Q_VSA_FPPOS>
0

>  <Q_VSA_HYD>
202.24098

>  <Q_VSA_NEG>
0

>  <Q_VSA_PNEG>
0

>  <Q_VSA_POL>
0

>  <Q_VSA_POS>
202.24098

>  <Q_VSA_PPOS>
0

>  <radius>
5

>  <reactive>
0

>  <rings>
1

>  <RPC+>
0

>  <RPC->
0

>  <rsynth>
1

>  <SlogP>
0.0832

>  <SlogP_VSA0>
50.90794

>  <SlogP_VSA1>
13.004248

>  <SlogP_VSA2>
23.862217

>  <SlogP_VSA3>
43.824806

>  <SlogP_VSA4>
27.047791

>  <SlogP_VSA5>
0

>  <SlogP_VSA6>
0

>  <SlogP_VSA7>
70.572739

>  <SlogP_VSA8>
0

>  <SlogP_VSA9>
2.7567475

>  <SMR>
5.0823398

>  <SMR_VSA0>
47.724434

>  <SMR_VSA1>
0

>  <SMR_VSA2>
43.395977

>  <SMR_VSA3>
3.185575

>  <SMR_VSA4>
2.7567475

>  <SMR_VSA5>
103.46992

>  <SMR_VSA6>
31.443827

>  <SMR_VSA7>
0

>  <TPSA>
92.419998

>  <VAdjEq>
0.59167278

>  <VAdjMa>
4.8073549

>  <VDistEq>
2.9448397

>  <VDistMa>
7.2743459

>  <vdw_area>
202.24098

>  <vdw_vol>
243.9958

>  <vsa_acc>
13.566921

>  <vsa_acid>
0

>  <vsa_base>
0

>  <vsa_don>
23.425066

>  <vsa_hyd>
92.441574

>  <vsa_other>
27.65803

>  <vsa_pol>
64.125832

>  <Weight>
194.19

>  <weinerPath>
339

>  <weinerPol>
16

>  <zagreb>
64

$$$$