Oc1cc(ccc1O)C(O)C(N)C
  MOE2013           2D

 13 13  0  0  1  0  0  0  0  0999 V2000
    0.0000    0.0000    0.0000 O   0  0  0  0  0  0  0  0  0  0  0  0
    1.2980    0.7510    0.0000 C   0  0  0  0  0  0  0  0  0  0  0  0
    2.5980    0.0030    0.0000 C   0  0  0  0  0  0  0  0  0  0  0  0
    3.8960    0.7540    0.0000 C   0  0  0  0  0  0  0  0  0  0  0  0
    3.8950    2.2540    0.0000 C   0  0  0  0  0  0  0  0  0  0  0  0
    2.5950    3.0030    0.0000 C   0  0  0  0  0  0  0  0  0  0  0  0
    1.2970    2.2510    0.0000 C   0  0  0  0  0  0  0  0  0  0  0  0
   -0.0030    3.0000    0.0000 O   0  0  0  0  0  0  0  0  0  0  0  0
    5.1960    0.0050    0.0000 C   0  0  3  0  0  0  0  0  0  0  0  0
    5.1980   -1.4950    0.0000 O   0  0  0  0  0  0  0  0  0  0  0  0
    6.4940    0.7560    0.0000 C   0  0  3  0  0  0  0  0  0  0  0  0
    7.7940    0.0080    0.0000 N   0  0  0  0  0  0  0  0  0  0  0  0
    6.4930    2.2560    0.0000 C   0  0  0  0  0  0  0  0  0  0  0  0
  1  2  1  0  0  0  0
  2  3  1  0  0  0  0
  2  7  2  0  0  0  0
  3  4  2  0  0  0  0
  4  5  1  0  0  0  0
  4  9  1  0  0  0  0
  5  6  2  0  0  0  0
  6  7  1  0  0  0  0
  7  8  1  0  0  0  0
  9 10  1  0  0  0  0
  9 11  1  0  0  0  0
 11 12  1  0  0  0  0
 11 13  1  0  0  0  0
M  END
>  <Index>
609

>  <ID>
HT1199

>  <class>
0

>  <apol>
28.014309

>  <ast_fraglike>
0

>  <ast_fraglike_ext>
0

>  <ast_violation>
2

>  <ast_violation_ext>
2

>  <a_acc>
4

>  <a_acid>
0

>  <a_aro>
6

>  <a_base>
0

>  <a_count>
26

>  <a_don>
4

>  <a_donacc>
8

>  <a_heavy>
13

>  <a_hyd>
9

>  <a_IC>
40.821503

>  <a_ICM>
1.5700579

>  <a_nB>
0

>  <a_nBr>
0

>  <a_nC>
9

>  <a_nCl>
0

>  <a_nF>
0

>  <a_nH>
13

>  <a_nI>
0

>  <a_nN>
1

>  <a_nO>
3

>  <a_nP>
0

>  <a_nS>
0

>  <balabanJ>
2.474416

>  <BCUT_PEOE_0>
-2.5772958

>  <BCUT_PEOE_1>
-0.66762066

>  <BCUT_PEOE_2>
0.73504102

>  <BCUT_PEOE_3>
2.5477064

>  <BCUT_SLOGP_0>
-2.7136042

>  <BCUT_SLOGP_1>
-0.6373964

>  <BCUT_SLOGP_2>
0.663737

>  <BCUT_SLOGP_3>
2.5726089

>  <BCUT_SMR_0>
-2.323132

>  <BCUT_SMR_1>
-0.53217268

>  <BCUT_SMR_2>
0.85231704

>  <BCUT_SMR_3>
2.7955387

>  <bpol>
13.551691

>  <b_1rotN>
2

>  <b_1rotR>
0.15384616

>  <b_ar>
6

>  <b_count>
26

>  <b_double>
0

>  <b_heavy>
13

>  <b_max1len>
5

>  <b_rotN>
2

>  <b_rotR>
0.15384616

>  <b_single>
20

>  <b_triple>
0

>  <chi0>
10.008072

>  <chi0v>
7.3057423

>  <chi0v_C>
5.3867512

>  <chi0_C>
6.0080719

>  <chi1>
6.0197444

>  <chi1v>
3.9761384

>  <chi1v_C>
2.9373927

>  <chi1_C>
3.7103434

>  <chiral>
2

>  <chiral_u>
2

>  <density>
0.75581855

>  <diameter>
7

>  <FCharge>
0

>  <GCUT_PEOE_0>
-0.82969582

>  <GCUT_PEOE_1>
-0.42251605

>  <GCUT_PEOE_2>
0.1516808

>  <GCUT_PEOE_3>
2.3334332

>  <GCUT_SLOGP_0>
-1.3634248

>  <GCUT_SLOGP_1>
-0.3264305

>  <GCUT_SLOGP_2>
0.11701908

>  <GCUT_SLOGP_3>
2.4403875

>  <GCUT_SMR_0>
-0.5180707

>  <GCUT_SMR_1>
-0.24080274

>  <GCUT_SMR_2>
0.23468062

>  <GCUT_SMR_3>
2.5877457

>  <Kier1>
11.076923

>  <Kier2>
4.4814816

>  <Kier3>
2.7210884

>  <KierA1>
9.1026993

>  <KierA2>
3.6170094

>  <KierA3>
2.1627986

>  <KierFlex>
2.5326576

>  <lip_acc>
4

>  <lip_don>
5

>  <lip_druglike>
1

>  <lip_violation>
0

>  <logP(o/w)>
0.47

>  <logS>
-0.45056999

>  <mr>
4.8410902

>  <mutagenic>
0

>  <nmol>
1

>  <opr_brigid>
6

>  <opr_leadlike>
1

>  <opr_nring>
1

>  <opr_nrot>
2

>  <opr_violation>
0

>  <PC+>
0

>  <PC->
0

>  <PEOE_PC+>
1.5938094

>  <PEOE_PC->
-1.5938094

>  <PEOE_RPC+>
0.13641636

>  <PEOE_RPC->
0.24196486

>  <PEOE_VSA+0>
20.207504

>  <PEOE_VSA+1>
21.966473

>  <PEOE_VSA+2>
34.155064

>  <PEOE_VSA+3>
0

>  <PEOE_VSA+4>
30.972517

>  <PEOE_VSA+5>
0

>  <PEOE_VSA+6>
0

>  <PEOE_VSA-0>
45.466026

>  <PEOE_VSA-1>
12.254904

>  <PEOE_VSA-2>
0

>  <PEOE_VSA-3>
0

>  <PEOE_VSA-4>
0

>  <PEOE_VSA-5>
0

>  <PEOE_VSA-6>
29.953741

>  <PEOE_VSA_FHYD>
0.68751955

>  <PEOE_VSA_FNEG>
0.4496685

>  <PEOE_VSA_FPNEG>
0.15362765

>  <PEOE_VSA_FPOL>
0.31248045

>  <PEOE_VSA_FPOS>
0.55033147

>  <PEOE_VSA_FPPOS>
0.15885279

>  <PEOE_VSA_HYD>
134.04997

>  <PEOE_VSA_NEG>
87.674667

>  <PEOE_VSA_PNEG>
29.953741

>  <PEOE_VSA_POL>
60.926258

>  <PEOE_VSA_POS>
107.30156

>  <PEOE_VSA_PPOS>
30.972517

>  <petitjean>
0.42857143

>  <petitjeanSC>
0.75

>  <Q_PC+>
0

>  <Q_PC->
0

>  <Q_RPC+>
0

>  <Q_RPC->
0

>  <Q_VSA_FHYD>
1

>  <Q_VSA_FNEG>
0

>  <Q_VSA_FPNEG>
0

>  <Q_VSA_FPOL>
0

>  <Q_VSA_FPOS>
1

>  <Q_VSA_FPPOS>
0

>  <Q_VSA_HYD>
194.97623

>  <Q_VSA_NEG>
0

>  <Q_VSA_PNEG>
0

>  <Q_VSA_POL>
0

>  <Q_VSA_POS>
194.97623

>  <Q_VSA_PPOS>
0

>  <radius>
4

>  <reactive>
0

>  <rings>
1

>  <RPC+>
0

>  <RPC->
0

>  <rsynth>
1

>  <SlogP>
0.57389998

>  <SlogP_VSA0>
109.05286

>  <SlogP_VSA1>
0

>  <SlogP_VSA2>
3.9819686

>  <SlogP_VSA3>
0

>  <SlogP_VSA4>
3.185575

>  <SlogP_VSA5>
0

>  <SlogP_VSA6>
0

>  <SlogP_VSA7>
52.929554

>  <SlogP_VSA8>
6.4686494

>  <SlogP_VSA9>
43.81287

>  <SMR>
4.8491802

>  <SMR_VSA0>
0

>  <SMR_VSA1>
76.155678

>  <SMR_VSA2>
0

>  <SMR_VSA3>
24.123049

>  <SMR_VSA4>
32.897186

>  <SMR_VSA5>
52.929554

>  <SMR_VSA6>
0

>  <SMR_VSA7>
33.326015

>  <TPSA>
86.709999

>  <VAdjEq>
0.6193822

>  <VAdjMa>
4.7004399

>  <VDistEq>
2.602304

>  <VDistMa>
7.0952125

>  <vdw_area>
194.97623

>  <vdw_vol>
242.39548

>  <vsa_acc>
0

>  <vsa_acid>
0

>  <vsa_base>
0

>  <vsa_don>
0

>  <vsa_hyd>
111.11758

>  <vsa_other>
0

>  <vsa_pol>
58.443253

>  <Weight>
183.207

>  <weinerPath>
246

>  <weinerPol>
18

>  <zagreb>
62

$$$$