ClC1C(Cl)C(Cl)C(Cl)C(Cl)C1Cl
  MOE2013           2D

 12 12  0  0  0  0  0  0  0  0999 V2000
    0.0000    0.0000    0.0000 Cl  0  0  0  0  0  0  0  0  0  0  0  0
    1.5000    0.0000    0.0000 C   0  0  0  0  0  0  0  0  0  0  0  0
    2.2500   -1.2990    0.0000 C   0  0  0  0  0  0  0  0  0  0  0  0
    1.5000   -2.5980    0.0000 Cl  0  0  0  0  0  0  0  0  0  0  0  0
    3.7500   -1.2990    0.0000 C   0  0  0  0  0  0  0  0  0  0  0  0
    4.5000   -2.5980    0.0000 Cl  0  0  0  0  0  0  0  0  0  0  0  0
    4.5000    0.0000    0.0000 C   0  0  0  0  0  0  0  0  0  0  0  0
    6.0000    0.0000    0.0000 Cl  0  0  0  0  0  0  0  0  0  0  0  0
    3.7500    1.2990    0.0000 C   0  0  0  0  0  0  0  0  0  0  0  0
    4.5000    2.5980    0.0000 Cl  0  0  0  0  0  0  0  0  0  0  0  0
    2.2500    1.2990    0.0000 C   0  0  0  0  0  0  0  0  0  0  0  0
    1.5000    2.5980    0.0000 Cl  0  0  0  0  0  0  0  0  0  0  0  0
  1  2  1  0  0  0  0
  2  3  1  0  0  0  0
  2 11  1  0  0  0  0
  3  4  1  0  0  0  0
  3  5  1  0  0  0  0
  5  6  1  0  0  0  0
  5  7  1  0  0  0  0
  7  8  1  0  0  0  0
  7  9  1  0  0  0  0
  9 10  1  0  0  0  0
  9 11  1  0  0  0  0
 11 12  1  0  0  0  0
M  END
>  <Index>
619

>  <ID>
HT1213

>  <class>
0

>  <apol>
27.640759

>  <ast_fraglike>
0

>  <ast_fraglike_ext>
0

>  <ast_violation>
1

>  <ast_violation_ext>
1

>  <a_acc>
0

>  <a_acid>
0

>  <a_aro>
0

>  <a_base>
0

>  <a_count>
18

>  <a_don>
0

>  <a_donacc>
0

>  <a_heavy>
12

>  <a_hyd>
12

>  <a_IC>
28.529325

>  <a_ICM>
1.5849625

>  <a_nB>
0

>  <a_nBr>
0

>  <a_nC>
6

>  <a_nCl>
6

>  <a_nF>
0

>  <a_nH>
6

>  <a_nI>
0

>  <a_nN>
0

>  <a_nO>
0

>  <a_nP>
0

>  <a_nS>
0

>  <balabanJ>
2.760252

>  <BCUT_PEOE_0>
-2.6859431

>  <BCUT_PEOE_1>
-0.27849883

>  <BCUT_PEOE_2>
0.22424017

>  <BCUT_PEOE_3>
2.7802918

>  <BCUT_SLOGP_0>
-2.8282182

>  <BCUT_SLOGP_1>
0.031460579

>  <BCUT_SLOGP_2>
0.67875636

>  <BCUT_SLOGP_3>
2.6859603

>  <BCUT_SMR_0>
-2.4481289

>  <BCUT_SMR_1>
0.040936008

>  <BCUT_SMR_2>
0.63853508

>  <BCUT_SMR_3>
3.0254157

>  <bpol>
9.0792418

>  <b_1rotN>
0

>  <b_1rotR>
0

>  <b_ar>
0

>  <b_count>
18

>  <b_double>
0

>  <b_heavy>
12

>  <b_max1len>
2

>  <b_rotN>
0

>  <b_rotR>
0

>  <b_single>
18

>  <b_triple>
0

>  <chi0>
9.4641018

>  <chi0v>
10.267462

>  <chi0v_C>
3.4641016

>  <chi0_C>
3.4641016

>  <chi1>
5.4641018

>  <chi1v>
5.9279222

>  <chi1v_C>
2

>  <chi1_C>
2

>  <chiral>
0

>  <chiral_u>
0

>  <density>
1.2002443

>  <diameter>
5

>  <FCharge>
0

>  <GCUT_PEOE_0>
-0.70564032

>  <GCUT_PEOE_1>
-0.28172526

>  <GCUT_PEOE_2>
-0.074098647

>  <GCUT_PEOE_3>
2.3467641

>  <GCUT_SLOGP_0>
-0.9138031

>  <GCUT_SLOGP_1>
-0.068441726

>  <GCUT_SLOGP_2>
0.42139411

>  <GCUT_SLOGP_3>
2.3960767

>  <GCUT_SMR_0>
-0.48533362

>  <GCUT_SMR_1>
-0.015444394

>  <GCUT_SMR_2>
0.3786678

>  <GCUT_SMR_3>
2.6258676

>  <Kier1>
10.083333

>  <Kier2>
3.3950617

>  <Kier3>
1.5625

>  <KierA1>
19.305109

>  <KierA2>
6.8756051

>  <KierA3>
3.3043759

>  <KierFlex>
11.061192

>  <lip_acc>
0

>  <lip_don>
0

>  <lip_druglike>
1

>  <lip_violation>
0

>  <logP(o/w)>
3.9879999

>  <logS>
-4.3310599

>  <mr>
5.4818521

>  <mutagenic>
1

>  <nmol>
1

>  <opr_brigid>
6

>  <opr_leadlike>
1

>  <opr_nring>
1

>  <opr_nrot>
2

>  <opr_violation>
0

>  <PC+>
0

>  <PC->
0

>  <PEOE_PC+>
0.71196288

>  <PEOE_PC->
-0.71196288

>  <PEOE_RPC+>
0.09711609

>  <PEOE_RPC->
0.16666667

>  <PEOE_VSA+0>
25.592316

>  <PEOE_VSA+1>
5.7969346

>  <PEOE_VSA+2>
0

>  <PEOE_VSA+3>
0

>  <PEOE_VSA+4>
0

>  <PEOE_VSA+5>
0

>  <PEOE_VSA+6>
0

>  <PEOE_VSA-0>
0

>  <PEOE_VSA-1>
0

>  <PEOE_VSA-2>
177.49168

>  <PEOE_VSA-3>
0

>  <PEOE_VSA-4>
0

>  <PEOE_VSA-5>
0

>  <PEOE_VSA-6>
0

>  <PEOE_VSA_FHYD>
1

>  <PEOE_VSA_FNEG>
0.84972656

>  <PEOE_VSA_FPNEG>
0

>  <PEOE_VSA_FPOL>
0

>  <PEOE_VSA_FPOS>
0.15027341

>  <PEOE_VSA_FPPOS>
0

>  <PEOE_VSA_HYD>
208.88094

>  <PEOE_VSA_NEG>
177.49168

>  <PEOE_VSA_PNEG>
0

>  <PEOE_VSA_POL>
0

>  <PEOE_VSA_POS>
31.389252

>  <PEOE_VSA_PPOS>
0

>  <petitjean>
0.2

>  <petitjeanSC>
0.25

>  <Q_PC+>
0

>  <Q_PC->
0

>  <Q_RPC+>
0

>  <Q_RPC->
0

>  <Q_VSA_FHYD>
1

>  <Q_VSA_FNEG>
0

>  <Q_VSA_FPNEG>
0

>  <Q_VSA_FPOL>
0

>  <Q_VSA_FPOS>
1

>  <Q_VSA_FPPOS>
0

>  <Q_VSA_HYD>
208.88094

>  <Q_VSA_NEG>
0

>  <Q_VSA_PNEG>
0

>  <Q_VSA_POL>
0

>  <Q_VSA_POS>
208.88094

>  <Q_VSA_PPOS>
0

>  <radius>
4

>  <reactive>
1

>  <rings>
1

>  <RPC+>
0

>  <RPC->
0

>  <rsynth>
0

>  <SlogP>
3.6443999

>  <SlogP_VSA0>
0

>  <SlogP_VSA1>
0

>  <SlogP_VSA2>
28.354965

>  <SlogP_VSA3>
0

>  <SlogP_VSA4>
0

>  <SlogP_VSA5>
0

>  <SlogP_VSA6>
0

>  <SlogP_VSA7>
0

>  <SlogP_VSA8>
0

>  <SlogP_VSA9>
234.89186

>  <SMR>
5.7845998

>  <SMR_VSA0>
0

>  <SMR_VSA1>
0

>  <SMR_VSA2>
0

>  <SMR_VSA3>
28.354965

>  <SMR_VSA4>
0

>  <SMR_VSA5>
0

>  <SMR_VSA6>
0

>  <SMR_VSA7>
234.89186

>  <TPSA>
0

>  <VAdjEq>
0.65002245

>  <VAdjMa>
4.5849624

>  <VDistEq>
2.1339197

>  <VDistMa>
6.9102907

>  <vdw_area>
208.88094

>  <vdw_vol>
242.31067

>  <vsa_acc>
0

>  <vsa_acid>
0

>  <vsa_base>
0

>  <vsa_don>
0

>  <vsa_hyd>
204.61015

>  <vsa_other>
0

>  <vsa_pol>
0

>  <Weight>
290.832

>  <weinerPath>
174

>  <weinerPol>
21

>  <zagreb>
60

$$$$