O(C(=O)C1(CCN(CC1)C)c1ccccc1)CC
  MOE2013           2D

 18 19  0  0  0  0  0  0  0  0999 V2000
    0.0000    0.0000    0.0000 O   0  0  0  0  0  0  0  0  0  0  0  0
    1.3020   -0.7440    0.0000 C   0  0  0  0  0  0  0  0  0  0  0  0
    1.3090   -2.2440    0.0000 O   0  0  0  0  0  0  0  0  0  0  0  0
    2.5980    0.0120    0.0000 C   0  0  0  0  0  0  0  0  0  0  0  0
    3.7430    0.9810    0.0000 C   0  0  0  0  0  0  0  0  0  0  0  0
    5.1550    0.4750    0.0000 C   0  0  0  0  0  0  0  0  0  0  0  0
    5.4220   -1.0010    0.0000 N   0  0  0  0  0  0  0  0  0  0  0  0
    4.2770   -1.9710    0.0000 C   0  0  0  0  0  0  0  0  0  0  0  0
    2.8650   -1.4640    0.0000 C   0  0  0  0  0  0  0  0  0  0  0  0
    6.8340   -1.5080    0.0000 C   0  0  0  0  0  0  0  0  0  0  0  0
    1.8420    1.3070    0.0000 C   0  0  0  0  0  0  0  0  0  0  0  0
    0.3640    1.5610    0.0000 C   0  0  0  0  0  0  0  0  0  0  0  0
   -0.1560    2.9680    0.0000 C   0  0  0  0  0  0  0  0  0  0  0  0
    0.8030    4.1220    0.0000 C   0  0  0  0  0  0  0  0  0  0  0  0
    2.2820    3.8680    0.0000 C   0  0  0  0  0  0  0  0  0  0  0  0
    2.8010    2.4610    0.0000 C   0  0  0  0  0  0  0  0  0  0  0  0
   -1.2960   -0.7560    0.0000 C   0  0  0  0  0  0  0  0  0  0  0  0
   -2.5980   -0.0120    0.0000 C   0  0  0  0  0  0  0  0  0  0  0  0
  1  2  1  0  0  0  0
  1 17  1  0  0  0  0
  2  3  2  0  0  0  0
  2  4  1  0  0  0  0
  4  5  1  0  0  0  0
  4  9  1  0  0  0  0
  4 11  1  0  0  0  0
  5  6  1  0  0  0  0
  6  7  1  0  0  0  0
  7  8  1  0  0  0  0
  7 10  1  0  0  0  0
  8  9  1  0  0  0  0
 11 12  1  0  0  0  0
 11 16  2  0  0  0  0
 12 13  2  0  0  0  0
 13 14  1  0  0  0  0
 14 15  2  0  0  0  0
 15 16  1  0  0  0  0
 17 18  1  0  0  0  0
M  END
>  <Index>
672

>  <ID>
HT1305

>  <class>
0

>  <apol>
43.106651

>  <ast_fraglike>
1

>  <ast_fraglike_ext>
0

>  <ast_violation>
0

>  <ast_violation_ext>
1

>  <a_acc>
2

>  <a_acid>
0

>  <a_aro>
6

>  <a_base>
0

>  <a_count>
39

>  <a_don>
0

>  <a_donacc>
2

>  <a_heavy>
18

>  <a_hyd>
14

>  <a_IC>
53.288662

>  <a_ICM>
1.3663759

>  <a_nB>
0

>  <a_nBr>
0

>  <a_nC>
15

>  <a_nCl>
0

>  <a_nF>
0

>  <a_nH>
21

>  <a_nI>
0

>  <a_nN>
1

>  <a_nO>
2

>  <a_nP>
0

>  <a_nS>
0

>  <balabanJ>
2.1082475

>  <BCUT_PEOE_0>
-2.7724082

>  <BCUT_PEOE_1>
-0.41290095

>  <BCUT_PEOE_2>
0.43691197

>  <BCUT_PEOE_3>
2.7496753

>  <BCUT_SLOGP_0>
-2.8191762

>  <BCUT_SLOGP_1>
-0.33786169

>  <BCUT_SLOGP_2>
0.50580418

>  <BCUT_SLOGP_3>
2.7271585

>  <BCUT_SMR_0>
-2.5124621

>  <BCUT_SMR_1>
-0.25607976

>  <BCUT_SMR_2>
0.59701532

>  <BCUT_SMR_3>
2.9998286

>  <bpol>
27.811346

>  <b_1rotN>
3

>  <b_1rotR>
0.15789473

>  <b_ar>
6

>  <b_count>
40

>  <b_double>
1

>  <b_heavy>
19

>  <b_max1len>
3

>  <b_rotN>
4

>  <b_rotR>
0.21052632

>  <b_single>
33

>  <b_triple>
0

>  <chi0>
13.010225

>  <chi0v>
11.185995

>  <chi0v_C>
9.9222851

>  <chi0_C>
10.725768

>  <chi1>
8.6875057

>  <chi1v>
6.6014895

>  <chi1v_C>
4.8248973

>  <chi1_C>
5.8080606

>  <chiral>
0

>  <chiral_u>
0

>  <density>
0.67841977

>  <diameter>
8

>  <FCharge>
0

>  <GCUT_PEOE_0>
-0.85970235

>  <GCUT_PEOE_1>
-0.38193038

>  <GCUT_PEOE_2>
-0.037254579

>  <GCUT_PEOE_3>
2.7406855

>  <GCUT_SLOGP_0>
-0.95345831

>  <GCUT_SLOGP_1>
-0.26913419

>  <GCUT_SLOGP_2>
0.028911043

>  <GCUT_SLOGP_3>
2.7633562

>  <GCUT_SMR_0>
-0.52052623

>  <GCUT_SMR_1>
-0.1701543

>  <GCUT_SMR_2>
0.10225876

>  <GCUT_SMR_3>
2.9838064

>  <Kier1>
14.409972

>  <Kier2>
6.43787

>  <Kier3>
3.1346939

>  <KierA1>
11.878983

>  <KierA2>
5.2424464

>  <KierA3>
2.5295355

>  <KierFlex>
3.4597187

>  <lip_acc>
3

>  <lip_don>
0

>  <lip_druglike>
1

>  <lip_violation>
0

>  <logP(o/w)>
3.0350001

>  <logS>
-2.3546801

>  <mr>
7.3080988

>  <mutagenic>
0

>  <nmol>
1

>  <opr_brigid>
12

>  <opr_leadlike>
1

>  <opr_nring>
2

>  <opr_nrot>
5

>  <opr_violation>
0

>  <PC+>
0

>  <PC->
0

>  <PEOE_PC+>
1.3121998

>  <PEOE_PC->
-1.3121998

>  <PEOE_RPC+>
0.20791364

>  <PEOE_RPC->
0.23990685

>  <PEOE_VSA+0>
59.715405

>  <PEOE_VSA+1>
44.808994

>  <PEOE_VSA+2>
0

>  <PEOE_VSA+3>
0

>  <PEOE_VSA+4>
0

>  <PEOE_VSA+5>
14.708499

>  <PEOE_VSA+6>
0

>  <PEOE_VSA-0>
87.982185

>  <PEOE_VSA-1>
61.274521

>  <PEOE_VSA-2>
0

>  <PEOE_VSA-3>
0

>  <PEOE_VSA-4>
0

>  <PEOE_VSA-5>
13.566921

>  <PEOE_VSA-6>
2.503756

>  <PEOE_VSA_FHYD>
0.89183599

>  <PEOE_VSA_FNEG>
0.58099246

>  <PEOE_VSA_FPNEG>
0.056475475

>  <PEOE_VSA_FPOL>
0.108164

>  <PEOE_VSA_FPOS>
0.41900754

>  <PEOE_VSA_FPPOS>
0.051688518

>  <PEOE_VSA_HYD>
253.7811

>  <PEOE_VSA_NEG>
165.32738

>  <PEOE_VSA_PNEG>
16.070677

>  <PEOE_VSA_POL>
30.779177

>  <PEOE_VSA_POS>
119.23289

>  <PEOE_VSA_PPOS>
14.708499

>  <petitjean>
0.5

>  <petitjeanSC>
1

>  <Q_PC+>
0

>  <Q_PC->
0

>  <Q_RPC+>
0

>  <Q_RPC->
0

>  <Q_VSA_FHYD>
1

>  <Q_VSA_FNEG>
0

>  <Q_VSA_FPNEG>
0

>  <Q_VSA_FPOL>
0

>  <Q_VSA_FPOS>
1

>  <Q_VSA_FPPOS>
0

>  <Q_VSA_HYD>
284.56027

>  <Q_VSA_NEG>
0

>  <Q_VSA_PNEG>
0

>  <Q_VSA_POL>
0

>  <Q_VSA_POS>
284.56027

>  <Q_VSA_PPOS>
0

>  <radius>
4

>  <reactive>
0

>  <rings>
2

>  <RPC+>
0

>  <RPC->
0

>  <rsynth>
1

>  <SlogP>
2.2131

>  <SlogP_VSA0>
0

>  <SlogP_VSA1>
10.869778

>  <SlogP_VSA2>
34.862103

>  <SlogP_VSA3>
57.805416

>  <SlogP_VSA4>
3.185575

>  <SlogP_VSA5>
32.897186

>  <SlogP_VSA6>
0

>  <SlogP_VSA7>
88.215919

>  <SlogP_VSA8>
37.736813

>  <SlogP_VSA9>
33.326015

>  <SMR>
7.1483998

>  <SMR_VSA0>
34.862103

>  <SMR_VSA1>
3.1243138

>  <SMR_VSA2>
0

>  <SMR_VSA3>
3.185575

>  <SMR_VSA4>
0

>  <SMR_VSA5>
125.95274

>  <SMR_VSA6>
65.55088

>  <SMR_VSA7>
66.223206

>  <TPSA>
29.540001

>  <VAdjEq>
0.52150291

>  <VAdjMa>
5.2479277

>  <VDistEq>
2.8098955

>  <VDistMa>
8.0768576

>  <vdw_area>
284.56027

>  <vdw_vol>
364.57959

>  <vsa_acc>
13.566921

>  <vsa_acid>
0

>  <vsa_base>
0

>  <vsa_don>
0

>  <vsa_hyd>
238.8334

>  <vsa_other>
17.212255

>  <vsa_pol>
13.566921

>  <Weight>
247.338

>  <weinerPath>
568

>  <weinerPol>
29

>  <zagreb>
90

$$$$