n1cn(nc1)C(c1ccc(cc1)C#N)c1ccc(cc1)C#N
  MOE2013           2D

 22 24  0  0  0  0  0  0  0  0999 V2000
    0.0000    0.0000    0.0000 N   0  0  0  0  0  0  0  0  0  0  0  0
   -0.4640   -1.4270    0.0000 C   0  0  0  0  0  0  0  0  0  0  0  0
    0.7500   -2.3080    0.0000 N   0  0  0  0  0  0  0  0  0  0  0  0
    1.9640   -1.4270    0.0000 N   0  0  0  0  0  0  0  0  0  0  0  0
    1.5000    0.0000    0.0000 C   0  0  0  0  0  0  0  0  0  0  0  0
    0.7500   -3.8080    0.0000 C   0  0  0  0  0  0  0  0  0  0  0  0
   -0.5490   -4.5580    0.0000 C   0  0  0  0  0  0  0  0  0  0  0  0
   -0.5490   -6.0580    0.0000 C   0  0  0  0  0  0  0  0  0  0  0  0
   -1.8480   -6.8080    0.0000 C   0  0  0  0  0  0  0  0  0  0  0  0
   -3.1470   -6.0580    0.0000 C   0  0  0  0  0  0  0  0  0  0  0  0
   -3.1470   -4.5580    0.0000 C   0  0  0  0  0  0  0  0  0  0  0  0
   -1.8480   -3.8080    0.0000 C   0  0  0  0  0  0  0  0  0  0  0  0
   -4.4460   -6.8080    0.0000 C   0  0  0  0  0  0  0  0  0  0  0  0
   -5.7450   -7.5580    0.0000 N   0  0  0  0  0  0  0  0  0  0  0  0
    2.0490   -4.5580    0.0000 C   0  0  0  0  0  0  0  0  0  0  0  0
    3.3480   -3.8080    0.0000 C   0  0  0  0  0  0  0  0  0  0  0  0
    4.6470   -4.5580    0.0000 C   0  0  0  0  0  0  0  0  0  0  0  0
    4.6470   -6.0580    0.0000 C   0  0  0  0  0  0  0  0  0  0  0  0
    3.3480   -6.8080    0.0000 C   0  0  0  0  0  0  0  0  0  0  0  0
    2.0490   -6.0580    0.0000 C   0  0  0  0  0  0  0  0  0  0  0  0
    5.9460   -6.8080    0.0000 C   0  0  0  0  0  0  0  0  0  0  0  0
    7.2450   -7.5580    0.0000 N   0  0  0  0  0  0  0  0  0  0  0  0
  1  2  2  0  0  0  0
  1  5  1  0  0  0  0
  2  3  1  0  0  0  0
  3  4  1  0  0  0  0
  3  6  1  0  0  0  0
  4  5  2  0  0  0  0
  6  7  1  0  0  0  0
  6 15  1  0  0  0  0
  7  8  1  0  0  0  0
  7 12  2  0  0  0  0
  8  9  2  0  0  0  0
  9 10  1  0  0  0  0
 10 11  2  0  0  0  0
 10 13  1  0  0  0  0
 11 12  1  0  0  0  0
 13 14  3  0  0  0  0
 15 16  1  0  0  0  0
 15 20  2  0  0  0  0
 16 17  2  0  0  0  0
 17 18  1  0  0  0  0
 18 19  2  0  0  0  0
 18 21  1  0  0  0  0
 19 20  1  0  0  0  0
 21 22  3  0  0  0  0
M  END
>  <Index>
601

>  <ID>
HT1187

>  <class>
0

>  <apol>
42.754723

>  <ast_fraglike>
0

>  <ast_fraglike_ext>
0

>  <ast_violation>
1

>  <ast_violation_ext>
2

>  <a_acc>
4

>  <a_acid>
0

>  <a_aro>
17

>  <a_base>
0

>  <a_count>
33

>  <a_don>
0

>  <a_donacc>
4

>  <a_heavy>
22

>  <a_hyd>
13

>  <a_IC>
47.314751

>  <a_ICM>
1.4337803

>  <a_nB>
0

>  <a_nBr>
0

>  <a_nC>
17

>  <a_nCl>
0

>  <a_nF>
0

>  <a_nH>
11

>  <a_nI>
0

>  <a_nN>
5

>  <a_nO>
0

>  <a_nP>
0

>  <a_nS>
0

>  <balabanJ>
1.6330545

>  <BCUT_PEOE_0>
-2.3907266

>  <BCUT_PEOE_1>
-0.65995997

>  <BCUT_PEOE_2>
0.70415056

>  <BCUT_PEOE_3>
2.3924377

>  <BCUT_SLOGP_0>
-2.2946467

>  <BCUT_SLOGP_1>
-0.56112045

>  <BCUT_SLOGP_2>
0.79656726

>  <BCUT_SLOGP_3>
2.5105925

>  <BCUT_SMR_0>
-2.097641

>  <BCUT_SMR_1>
-0.48290011

>  <BCUT_SMR_2>
0.88518381

>  <BCUT_SMR_3>
2.683373

>  <bpol>
16.645277

>  <b_1rotN>
3

>  <b_1rotR>
0.125

>  <b_ar>
17

>  <b_count>
35

>  <b_double>
0

>  <b_heavy>
24

>  <b_max1len>
2

>  <b_rotN>
5

>  <b_rotR>
0.20833333

>  <b_single>
16

>  <b_triple>
2

>  <chi0>
15.363597

>  <chi0v>
11.586921

>  <chi0v_C>
9.350853

>  <chi0_C>
11.372033

>  <chi1>
10.813193

>  <chi1v>
6.6582928

>  <chi1v_C>
4.7200847

>  <chi1_C>
6.7491498

>  <chiral>
0

>  <chiral_u>
0

>  <density>
0.73139507

>  <diameter>
12

>  <FCharge>
0

>  <GCUT_PEOE_0>
-0.81477505

>  <GCUT_PEOE_1>
-0.4153147

>  <GCUT_PEOE_2>
0.11064163

>  <GCUT_PEOE_3>
2.4776785

>  <GCUT_SLOGP_0>
-0.89597744

>  <GCUT_SLOGP_1>
-0.33187857

>  <GCUT_SLOGP_2>
0.19397192

>  <GCUT_SLOGP_3>
2.5895853

>  <GCUT_SMR_0>
-0.4741236

>  <GCUT_SMR_1>
-0.21605732

>  <GCUT_SMR_2>
0.25325075

>  <GCUT_SMR_3>
2.7695689

>  <Kier1>
16.84375

>  <Kier2>
8.203125

>  <Kier3>
4.1103301

>  <KierA1>
10.187988

>  <KierA2>
4.8291588

>  <KierA3>
2.3724232

>  <KierFlex>
2.2363369

>  <lip_acc>
5

>  <lip_don>
0

>  <lip_druglike>
1

>  <lip_violation>
0

>  <logP(o/w)>
1.789

>  <logS>
-4.1150498

>  <mr>
8.4363003

>  <mutagenic>
0

>  <nmol>
1

>  <opr_brigid>
17

>  <opr_leadlike>
1

>  <opr_nring>
3

>  <opr_nrot>
5

>  <opr_violation>
0

>  <PC+>
0

>  <PC->
0

>  <PEOE_PC+>
1.4356453

>  <PEOE_PC->
-1.4356453

>  <PEOE_RPC+>
0.096108988

>  <PEOE_RPC->
0.16733541

>  <PEOE_VSA+0>
0

>  <PEOE_VSA+1>
83.404564

>  <PEOE_VSA+2>
54.150585

>  <PEOE_VSA+3>
0

>  <PEOE_VSA+4>
0

>  <PEOE_VSA+5>
0

>  <PEOE_VSA+6>
0

>  <PEOE_VSA-0>
53.436695

>  <PEOE_VSA-1>
49.019615

>  <PEOE_VSA-2>
0

>  <PEOE_VSA-3>
44.906017

>  <PEOE_VSA-4>
5.6825762

>  <PEOE_VSA-5>
0

>  <PEOE_VSA-6>
0

>  <PEOE_VSA_FHYD>
0.98044538

>  <PEOE_VSA_FNEG>
0.52665132

>  <PEOE_VSA_FPNEG>
0.019554628

>  <PEOE_VSA_FPOL>
0.019554628

>  <PEOE_VSA_FPOS>
0.47334868

>  <PEOE_VSA_FPPOS>
0

>  <PEOE_VSA_HYD>
284.91748

>  <PEOE_VSA_NEG>
153.04491

>  <PEOE_VSA_PNEG>
5.6825762

>  <PEOE_VSA_POL>
5.6825762

>  <PEOE_VSA_POS>
137.55515

>  <PEOE_VSA_PPOS>
0

>  <petitjean>
0.5

>  <petitjeanSC>
1

>  <Q_PC+>
0

>  <Q_PC->
0

>  <Q_RPC+>
0

>  <Q_RPC->
0

>  <Q_VSA_FHYD>
1

>  <Q_VSA_FNEG>
0

>  <Q_VSA_FPNEG>
0

>  <Q_VSA_FPOL>
0

>  <Q_VSA_FPOS>
1

>  <Q_VSA_FPPOS>
0

>  <Q_VSA_HYD>
290.60007

>  <Q_VSA_NEG>
0

>  <Q_VSA_PNEG>
0

>  <Q_VSA_POL>
0

>  <Q_VSA_POS>
290.60007

>  <Q_VSA_PPOS>
0

>  <radius>
6

>  <reactive>
0

>  <rings>
3

>  <RPC+>
0

>  <RPC->
0

>  <rsynth>
1

>  <SlogP>
2.754668

>  <SlogP_VSA0>
0

>  <SlogP_VSA1>
35.225109

>  <SlogP_VSA2>
0

>  <SlogP_VSA3>
95.322205

>  <SlogP_VSA4>
12.7423

>  <SlogP_VSA5>
0

>  <SlogP_VSA6>
0

>  <SlogP_VSA7>
174.71654

>  <SlogP_VSA8>
3.9819686

>  <SlogP_VSA9>
0

>  <SMR>
7.9688001

>  <SMR_VSA0>
0

>  <SMR_VSA1>
97.343819

>  <SMR_VSA2>
0

>  <SMR_VSA3>
49.927761

>  <SMR_VSA4>
0

>  <SMR_VSA5>
174.71654

>  <SMR_VSA6>
0

>  <SMR_VSA7>
0

>  <TPSA>
78.290001

>  <VAdjEq>
0.46637034

>  <VAdjMa>
5.5849624

>  <VDistEq>
3.2277224

>  <VDistMa>
8.6350002

>  <vdw_area>
290.60007

>  <vdw_vol>
390.09012

>  <vsa_acc>
50.588596

>  <vsa_acid>
0

>  <vsa_base>
0

>  <vsa_don>
0

>  <vsa_hyd>
142.00166

>  <vsa_other>
90.180046

>  <vsa_pol>
50.588596

>  <Weight>
285.31

>  <weinerPath>
1058

>  <weinerPol>
32

>  <zagreb>
112

$$$$