s1c2c(nc1Cc1c3c(n(c1)CC(O)=O)cccc3)c(F)c(F)cc2F
  MOE2013           2D

 26 29  0  0  0  0  0  0  0  0999 V2000
    0.0000    0.0000    0.0000 S   0  0  0  0  0  0  0  0  0  0  0  0
    1.4820   -0.2290    0.0000 C   0  0  0  0  0  0  0  0  0  0  0  0
    2.1580    1.1100    0.0000 C   0  0  0  0  0  0  0  0  0  0  0  0
    1.0930    2.1670    0.0000 N   0  0  0  0  0  0  0  0  0  0  0  0
   -0.2410    1.4810    0.0000 C   0  0  0  0  0  0  0  0  0  0  0  0
   -1.5800    2.1560    0.0000 C   0  0  0  0  0  0  0  0  0  0  0  0
   -2.8340    1.3340    0.0000 C   0  0  0  0  0  0  0  0  0  0  0  0
   -4.2370    1.8660    0.0000 C   0  0  0  0  0  0  0  0  0  0  0  0
   -5.1760    0.6970    0.0000 C   0  0  0  0  0  0  0  0  0  0  0  0
   -4.3540   -0.5580    0.0000 N   0  0  0  0  0  0  0  0  0  0  0  0
   -2.9070   -0.1640    0.0000 C   0  0  0  0  0  0  0  0  0  0  0  0
   -4.8860   -1.9600    0.0000 C   0  0  0  0  0  0  0  0  0  0  0  0
   -3.9380   -3.1220    0.0000 C   0  0  0  0  0  0  0  0  0  0  0  0
   -4.4700   -4.5250    0.0000 O   0  0  0  0  0  0  0  0  0  0  0  0
   -2.4570   -2.8820    0.0000 O   0  0  0  0  0  0  0  0  0  0  0  0
   -6.6590    0.9260    0.0000 C   0  0  0  0  0  0  0  0  0  0  0  0
   -7.2020    2.3240    0.0000 C   0  0  0  0  0  0  0  0  0  0  0  0
   -6.2620    3.4930    0.0000 C   0  0  0  0  0  0  0  0  0  0  0  0
   -4.7800    3.2650    0.0000 C   0  0  0  0  0  0  0  0  0  0  0  0
    3.6560    1.1950    0.0000 C   0  0  0  0  0  0  0  0  0  0  0  0
    4.3310    2.5340    0.0000 F   0  0  0  0  0  0  0  0  0  0  0  0
    4.4780   -0.0600    0.0000 C   0  0  0  0  0  0  0  0  0  0  0  0
    5.9750    0.0250    0.0000 F   0  0  0  0  0  0  0  0  0  0  0  0
    3.8020   -1.3990    0.0000 C   0  0  0  0  0  0  0  0  0  0  0  0
    2.3040   -1.4840    0.0000 C   0  0  0  0  0  0  0  0  0  0  0  0
    1.6290   -2.8230    0.0000 F   0  0  0  0  0  0  0  0  0  0  0  0
  1  2  1  0  0  0  0
  1  5  1  0  0  0  0
  2  3  1  0  0  0  0
  2 25  2  0  0  0  0
  3  4  1  0  0  0  0
  3 20  2  0  0  0  0
  4  5  2  0  0  0  0
  5  6  1  0  0  0  0
  6  7  1  0  0  0  0
  7  8  1  0  0  0  0
  7 11  2  0  0  0  0
  8  9  1  0  0  0  0
  8 19  2  0  0  0  0
  9 10  1  0  0  0  0
  9 16  2  0  0  0  0
 10 11  1  0  0  0  0
 10 12  1  0  0  0  0
 12 13  1  0  0  0  0
 13 14  1  0  0  0  0
 13 15  2  0  0  0  0
 16 17  1  0  0  0  0
 17 18  2  0  0  0  0
 18 19  1  0  0  0  0
 20 21  1  0  0  0  0
 20 22  1  0  0  0  0
 22 23  1  0  0  0  0
 22 24  2  0  0  0  0
 24 25  1  0  0  0  0
 25 26  1  0  0  0  0
M  END
>  <Index>
617

>  <ID>
HT1209

>  <class>
0

>  <apol>
47.389725

>  <ast_fraglike>
0

>  <ast_fraglike_ext>
0

>  <ast_violation>
2

>  <ast_violation_ext>
3

>  <a_acc>
3

>  <a_acid>
0

>  <a_aro>
18

>  <a_base>
0

>  <a_count>
37

>  <a_don>
2

>  <a_donacc>
5

>  <a_heavy>
26

>  <a_hyd>
21

>  <a_IC>
70.882492

>  <a_ICM>
1.915743

>  <a_nB>
0

>  <a_nBr>
0

>  <a_nC>
18

>  <a_nCl>
0

>  <a_nF>
3

>  <a_nH>
11

>  <a_nI>
0

>  <a_nN>
2

>  <a_nO>
2

>  <a_nP>
0

>  <a_nS>
1

>  <balabanJ>
1.4114149

>  <BCUT_PEOE_0>
-2.2891564

>  <BCUT_PEOE_1>
-0.61289352

>  <BCUT_PEOE_2>
0.59647167

>  <BCUT_PEOE_3>
2.3800728

>  <BCUT_SLOGP_0>
-2.2928135

>  <BCUT_SLOGP_1>
-0.44957983

>  <BCUT_SLOGP_2>
0.722525

>  <BCUT_SLOGP_3>
2.4767528

>  <BCUT_SMR_0>
-2.015306

>  <BCUT_SMR_1>
-0.40416309

>  <BCUT_SMR_2>
0.78173542

>  <BCUT_SMR_3>
2.6856906

>  <bpol>
22.172277

>  <b_1rotN>
4

>  <b_1rotR>
0.13793103

>  <b_ar>
20

>  <b_count>
40

>  <b_double>
1

>  <b_heavy>
29

>  <b_max1len>
2

>  <b_rotN>
4

>  <b_rotR>
0.13793103

>  <b_single>
19

>  <b_triple>
0

>  <chi0>
18.421921

>  <chi0v>
13.986842

>  <chi0v_C>
9.878315

>  <chi0_C>
11.430357

>  <chi1>
12.435561

>  <chi1v>
8.4687052

>  <chi1v_C>
5.0040359

>  <chi1_C>
6.7659864

>  <chiral>
0

>  <chiral_u>
0

>  <density>
0.88431954

>  <diameter>
12

>  <FCharge>
0

>  <GCUT_PEOE_0>
-0.85383892

>  <GCUT_PEOE_1>
-0.47643918

>  <GCUT_PEOE_2>
0.062665403

>  <GCUT_PEOE_3>
2.5392079

>  <GCUT_SLOGP_0>
-0.8693434

>  <GCUT_SLOGP_1>
-0.29610488

>  <GCUT_SLOGP_2>
0.2702862

>  <GCUT_SLOGP_3>
2.6711202

>  <GCUT_SMR_0>
-0.46914068

>  <GCUT_SMR_1>
-0.1962972

>  <GCUT_SMR_2>
0.22428408

>  <GCUT_SMR_3>
2.8524997

>  <Kier1>
19.322235

>  <Kier2>
7.7879934

>  <Kier3>
3.8058028

>  <KierA1>
14.584785

>  <KierA2>
5.8075166

>  <KierA3>
2.8133886

>  <KierFlex>
3.2577457

>  <lip_acc>
4

>  <lip_don>
1

>  <lip_druglike>
1

>  <lip_violation>
0

>  <logP(o/w)>
4.9990001

>  <logS>
-4.7694302

>  <mr>
9.4046659

>  <mutagenic>
0

>  <nmol>
1

>  <opr_brigid>
20

>  <opr_leadlike>
1

>  <opr_nring>
4

>  <opr_nrot>
4

>  <opr_violation>
1

>  <PC+>
0

>  <PC->
0

>  <PEOE_PC+>
2.0366194

>  <PEOE_PC->
-2.0366194

>  <PEOE_RPC+>
0.13724218

>  <PEOE_RPC->
0.16534905

>  <PEOE_VSA+0>
55.140995

>  <PEOE_VSA+1>
34.123089

>  <PEOE_VSA+2>
28.912722

>  <PEOE_VSA+3>
37.802307

>  <PEOE_VSA+4>
10.324173

>  <PEOE_VSA+5>
14.708499

>  <PEOE_VSA+6>
0

>  <PEOE_VSA-0>
27.323658

>  <PEOE_VSA-1>
36.764713

>  <PEOE_VSA-2>
0

>  <PEOE_VSA-3>
0

>  <PEOE_VSA-4>
35.725906

>  <PEOE_VSA-5>
19.249496

>  <PEOE_VSA-6>
7.7675405

>  <PEOE_VSA_FHYD>
0.71486896

>  <PEOE_VSA_FNEG>
0.41199985

>  <PEOE_VSA_FPNEG>
0.20381469

>  <PEOE_VSA_FPOL>
0.28513101

>  <PEOE_VSA_FPOS>
0.58800012

>  <PEOE_VSA_FPPOS>
0.08131633

>  <PEOE_VSA_HYD>
220.06749

>  <PEOE_VSA_NEG>
126.83131

>  <PEOE_VSA_PNEG>
62.742943

>  <PEOE_VSA_POL>
87.77562

>  <PEOE_VSA_POS>
181.01178

>  <PEOE_VSA_PPOS>
25.032671

>  <petitjean>
0.5

>  <petitjeanSC>
1

>  <Q_PC+>
0

>  <Q_PC->
0

>  <Q_RPC+>
0

>  <Q_RPC->
0

>  <Q_VSA_FHYD>
1

>  <Q_VSA_FNEG>
0

>  <Q_VSA_FPNEG>
0

>  <Q_VSA_FPOL>
0

>  <Q_VSA_FPOS>
1

>  <Q_VSA_FPPOS>
0

>  <Q_VSA_HYD>
307.84311

>  <Q_VSA_NEG>
0

>  <Q_VSA_PNEG>
0

>  <Q_VSA_POL>
0

>  <Q_VSA_POS>
307.84311

>  <Q_VSA_PPOS>
0

>  <radius>
6

>  <reactive>
0

>  <rings>
4

>  <RPC+>
0

>  <RPC->
0

>  <rsynth>
0.61538464

>  <SlogP>
4.6100702

>  <SlogP_VSA0>
0

>  <SlogP_VSA1>
26.430086

>  <SlogP_VSA2>
51.225269

>  <SlogP_VSA3>
25.385227

>  <SlogP_VSA4>
4.115149

>  <SlogP_VSA5>
18.868406

>  <SlogP_VSA6>
0

>  <SlogP_VSA7>
113.03731

>  <SlogP_VSA8>
0

>  <SlogP_VSA9>
94.597603

>  <SMR>
9.20788

>  <SMR_VSA0>
23.862217

>  <SMR_VSA1>
63.56496

>  <SMR_VSA2>
52.74828

>  <SMR_VSA3>
4.115149

>  <SMR_VSA4>
7.607029

>  <SMR_VSA5>
142.73827

>  <SMR_VSA6>
7.7454643

>  <SMR_VSA7>
31.277687

>  <TPSA>
55.119999

>  <VAdjEq>
0.42228913

>  <VAdjMa>
5.8579812

>  <VDistEq>
3.3983235

>  <VDistMa>
9.1104736

>  <vdw_area>
307.84311

>  <vdw_vol>
425.59048

>  <vsa_acc>
5.6825762

>  <vsa_acid>
0

>  <vsa_base>
0

>  <vsa_don>
0

>  <vsa_hyd>
248.67543

>  <vsa_other>
14.708499

>  <vsa_pol>
32.816418

>  <Weight>
376.358

>  <weinerPath>
1667

>  <weinerPol>
43

>  <zagreb>
144

$$$$