Oc1ccc(cc1)C[C@H](N)C(O)=O
  MOE2013           2D

 13 13  0  0  1  0  0  0  0  0999 V2000
    0.0000    0.0000    0.0000 O   0  0  0  0  0  0  0  0  0  0  0  0
   -1.5000   -0.0020    0.0000 C   0  0  0  0  0  0  0  0  0  0  0  0
   -2.2520    1.2950    0.0000 C   0  0  0  0  0  0  0  0  0  0  0  0
   -3.7520    1.2930    0.0000 C   0  0  0  0  0  0  0  0  0  0  0  0
   -4.5000   -0.0070    0.0000 C   0  0  0  0  0  0  0  0  0  0  0  0
   -3.7480   -1.3050    0.0000 C   0  0  0  0  0  0  0  0  0  0  0  0
   -2.2480   -1.3030    0.0000 C   0  0  0  0  0  0  0  0  0  0  0  0
   -6.0000   -0.0100    0.0000 C   0  0  0  0  0  0  0  0  0  0  0  0
   -6.7520    1.2880    0.0000 C   0  0  2  0  0  0  0  0  0  0  0  0
   -6.0040    2.5880    0.0000 N   0  0  0  0  0  0  0  0  0  0  0  0
   -8.2520    1.2850    0.0000 C   0  0  0  0  0  0  0  0  0  0  0  0
   -9.0040    2.5830    0.0000 O   0  0  0  0  0  0  0  0  0  0  0  0
   -9.0000   -0.0150    0.0000 O   0  0  0  0  0  0  0  0  0  0  0  0
  1  2  1  0  0  0  0
  2  3  1  0  0  0  0
  2  7  2  0  0  0  0
  3  4  2  0  0  0  0
  4  5  1  0  0  0  0
  5  6  2  0  0  0  0
  5  8  1  0  0  0  0
  6  7  1  0  0  0  0
  8  9  1  0  0  0  0
  9 10  1  1  0  0  0
  9 11  1  0  0  0  0
 11 12  1  0  0  0  0
 11 13  2  0  0  0  0
M  END
>  <Index>
639

>  <ID>
HT1253

>  <class>
0

>  <apol>
26.680723

>  <ast_fraglike>
0

>  <ast_fraglike_ext>
0

>  <ast_violation>
2

>  <ast_violation_ext>
2

>  <a_acc>
4

>  <a_acid>
0

>  <a_aro>
6

>  <a_base>
0

>  <a_count>
24

>  <a_don>
4

>  <a_donacc>
8

>  <a_heavy>
13

>  <a_hyd>
8

>  <a_IC>
38.701141

>  <a_ICM>
1.6125475

>  <a_nB>
0

>  <a_nBr>
0

>  <a_nC>
9

>  <a_nCl>
0

>  <a_nF>
0

>  <a_nH>
11

>  <a_nI>
0

>  <a_nN>
1

>  <a_nO>
3

>  <a_nP>
0

>  <a_nS>
0

>  <balabanJ>
2.2403944

>  <BCUT_PEOE_0>
-2.4804223

>  <BCUT_PEOE_1>
-0.67507982

>  <BCUT_PEOE_2>
0.73735213

>  <BCUT_PEOE_3>
2.504669

>  <BCUT_SLOGP_0>
-2.7320037

>  <BCUT_SLOGP_1>
-0.60534281

>  <BCUT_SLOGP_2>
0.79800713

>  <BCUT_SLOGP_3>
2.4388275

>  <BCUT_SMR_0>
-2.2288933

>  <BCUT_SMR_1>
-0.53415185

>  <BCUT_SMR_2>
0.87637556

>  <BCUT_SMR_3>
2.7487428

>  <bpol>
12.323277

>  <b_1rotN>
3

>  <b_1rotR>
0.23076923

>  <b_ar>
6

>  <b_count>
24

>  <b_double>
1

>  <b_heavy>
13

>  <b_max1len>
4

>  <b_rotN>
3

>  <b_rotR>
0.23076923

>  <b_single>
17

>  <b_triple>
0

>  <chi0>
9.8449354

>  <chi0v>
6.9738841

>  <chi0v_C>
5.0938582

>  <chi0_C>
5.8449349

>  <chi1>
6.0922241

>  <chi1v>
3.8565152

>  <chi1v_C>
2.8718441

>  <chi1_C>
3.7828231

>  <chiral>
1

>  <chiral_u>
0

>  <density>
0.77085465

>  <diameter>
8

>  <FCharge>
0

>  <GCUT_PEOE_0>
-0.81080383

>  <GCUT_PEOE_1>
-0.42354771

>  <GCUT_PEOE_2>
0.12500541

>  <GCUT_PEOE_3>
2.2592084

>  <GCUT_SLOGP_0>
-1.3634683

>  <GCUT_SLOGP_1>
-0.38733348

>  <GCUT_SLOGP_2>
0.16517168

>  <GCUT_SLOGP_3>
2.3149345

>  <GCUT_SMR_0>
-0.49905485

>  <GCUT_SMR_1>
-0.23677507

>  <GCUT_SMR_2>
0.22828107

>  <GCUT_SMR_3>
2.5214736

>  <Kier1>
11.076923

>  <Kier2>
5.0242214

>  <Kier3>
3.7037036

>  <KierA1>
8.4107523

>  <KierA2>
3.7183318

>  <KierA3>
2.6816823

>  <KierFlex>
2.4056897

>  <lip_acc>
4

>  <lip_don>
4

>  <lip_druglike>
1

>  <lip_violation>
0

>  <logP(o/w)>
-1.83073

>  <logS>
-0.74515998

>  <mr>
4.8144789

>  <mutagenic>
0

>  <nmol>
1

>  <opr_brigid>
6

>  <opr_leadlike>
1

>  <opr_nring>
1

>  <opr_nrot>
3

>  <opr_violation>
0

>  <PC+>
0

>  <PC->
0

>  <PEOE_PC+>
1.4963291

>  <PEOE_PC->
-1.4963291

>  <PEOE_RPC+>
0.18502715

>  <PEOE_RPC->
0.24047676

>  <PEOE_VSA+0>
8.5307722

>  <PEOE_VSA+1>
32.931412

>  <PEOE_VSA+2>
17.238026

>  <PEOE_VSA+3>
0

>  <PEOE_VSA+4>
20.648346

>  <PEOE_VSA+5>
14.708499

>  <PEOE_VSA+6>
0

>  <PEOE_VSA-0>
35.419662

>  <PEOE_VSA-1>
24.509808

>  <PEOE_VSA-2>
0

>  <PEOE_VSA-3>
0

>  <PEOE_VSA-4>
0

>  <PEOE_VSA-5>
13.566921

>  <PEOE_VSA-6>
22.186199

>  <PEOE_VSA_FHYD>
0.62522346

>  <PEOE_VSA_FNEG>
0.50428361

>  <PEOE_VSA_FPNEG>
0.18843253

>  <PEOE_VSA_FPOL>
0.37477654

>  <PEOE_VSA_FPOS>
0.49571639

>  <PEOE_VSA_FPPOS>
0.186344

>  <PEOE_VSA_HYD>
118.62968

>  <PEOE_VSA_NEG>
95.682587

>  <PEOE_VSA_PNEG>
35.75312

>  <PEOE_VSA_POL>
71.109962

>  <PEOE_VSA_POS>
94.057053

>  <PEOE_VSA_PPOS>
35.356846

>  <petitjean>
0.5

>  <petitjeanSC>
1

>  <Q_PC+>
0

>  <Q_PC->
0

>  <Q_RPC+>
0

>  <Q_RPC->
0

>  <Q_VSA_FHYD>
1

>  <Q_VSA_FNEG>
0

>  <Q_VSA_FPNEG>
0

>  <Q_VSA_FPOL>
0

>  <Q_VSA_FPOS>
1

>  <Q_VSA_FPPOS>
0

>  <Q_VSA_HYD>
189.73964

>  <Q_VSA_NEG>
0

>  <Q_VSA_PNEG>
0

>  <Q_VSA_POL>
0

>  <Q_VSA_POS>
189.73964

>  <Q_VSA_PPOS>
0

>  <radius>
4

>  <reactive>
0

>  <rings>
1

>  <RPC+>
0

>  <RPC->
0

>  <rsynth>
1

>  <SlogP>
0.34656999

>  <SlogP_VSA0>
58.282413

>  <SlogP_VSA1>
7.7454643

>  <SlogP_VSA2>
27.844185

>  <SlogP_VSA3>
25.385227

>  <SlogP_VSA4>
3.185575

>  <SlogP_VSA5>
18.868406

>  <SlogP_VSA6>
0

>  <SlogP_VSA7>
70.572739

>  <SlogP_VSA8>
0

>  <SlogP_VSA9>
5.2434282

>  <SMR>
4.7421999

>  <SMR_VSA0>
23.862217

>  <SMR_VSA1>
25.385227

>  <SMR_VSA2>
25.385227

>  <SMR_VSA3>
12.410972

>  <SMR_VSA4>
32.897186

>  <SMR_VSA5>
89.441139

>  <SMR_VSA6>
7.7454643

>  <SMR_VSA7>
0

>  <TPSA>
83.550003

>  <VAdjEq>
0.6193822

>  <VAdjMa>
4.7004399

>  <VDistEq>
2.7945561

>  <VDistMa>
7.0638723

>  <vdw_area>
189.73964

>  <vdw_vol>
235.05208

>  <vsa_acc>
0

>  <vsa_acid>
0

>  <vsa_base>
0

>  <vsa_don>
0

>  <vsa_hyd>
96.409081

>  <vsa_other>
14.708499

>  <vsa_pol>
58.443253

>  <Weight>
181.19099

>  <weinerPath>
268

>  <weinerPol>
15

>  <zagreb>
60

$$$$