O(C(=O)Nc1[nH]c2c(n1)cc(cc2)C(=O)c1ccccc1)C
  MOE2013           2D

 22 24  0  0  0  0  0  0  0  0999 V2000
    0.0000    0.0000    0.0000 O   0  0  0  0  0  0  0  0  0  0  0  0
   -1.4980    0.0820    0.0000 C   0  0  0  0  0  0  0  0  0  0  0  0
   -2.1750    1.4210    0.0000 O   0  0  0  0  0  0  0  0  0  0  0  0
   -2.3180   -1.1730    0.0000 N   0  0  0  0  0  0  0  0  0  0  0  0
   -3.8160   -1.0910    0.0000 C   0  0  0  0  0  0  0  0  0  0  0  0
   -4.6290    0.1690    0.0000 N   0  0  0  0  0  0  0  0  0  0  0  0
   -6.0790   -0.2150    0.0000 C   0  0  0  0  0  0  0  0  0  0  0  0
   -6.1620   -1.7130    0.0000 C   0  0  0  0  0  0  0  0  0  0  0  0
   -4.7630   -2.2540    0.0000 N   0  0  0  0  0  0  0  0  0  0  0  0
   -7.5000   -2.3910    0.0000 C   0  0  0  0  0  0  0  0  0  0  0  0
   -8.7560   -1.5700    0.0000 C   0  0  0  0  0  0  0  0  0  0  0  0
   -8.6730   -0.0730    0.0000 C   0  0  0  0  0  0  0  0  0  0  0  0
   -7.3350    0.6050    0.0000 C   0  0  0  0  0  0  0  0  0  0  0  0
  -10.0940   -2.2480    0.0000 C   0  0  0  0  0  0  0  0  0  0  0  0
  -10.1770   -3.7460    0.0000 O   0  0  0  0  0  0  0  0  0  0  0  0
  -11.3500   -1.4280    0.0000 C   0  0  0  0  0  0  0  0  0  0  0  0
  -11.2680    0.0700    0.0000 C   0  0  0  0  0  0  0  0  0  0  0  0
  -12.5230    0.8900    0.0000 C   0  0  0  0  0  0  0  0  0  0  0  0
  -13.8620    0.2130    0.0000 C   0  0  0  0  0  0  0  0  0  0  0  0
  -13.9440   -1.2850    0.0000 C   0  0  0  0  0  0  0  0  0  0  0  0
  -12.6880   -2.1050    0.0000 C   0  0  0  0  0  0  0  0  0  0  0  0
    0.8200    1.2560    0.0000 C   0  0  0  0  0  0  0  0  0  0  0  0
  1  2  1  0  0  0  0
  1 22  1  0  0  0  0
  2  3  2  0  0  0  0
  2  4  1  0  0  0  0
  4  5  1  0  0  0  0
  5  6  1  0  0  0  0
  5  9  2  0  0  0  0
  6  7  1  0  0  0  0
  7  8  1  0  0  0  0
  7 13  2  0  0  0  0
  8  9  1  0  0  0  0
  8 10  2  0  0  0  0
 10 11  1  0  0  0  0
 11 12  2  0  0  0  0
 11 14  1  0  0  0  0
 12 13  1  0  0  0  0
 14 15  2  0  0  0  0
 14 16  1  0  0  0  0
 16 17  1  0  0  0  0
 16 21  2  0  0  0  0
 17 18  2  0  0  0  0
 18 19  1  0  0  0  0
 19 20  2  0  0  0  0
 20 21  1  0  0  0  0
M  END
>  <Index>
655

>  <ID>
HT1276

>  <class>
0

>  <apol>
42.534309

>  <ast_fraglike>
0

>  <ast_fraglike_ext>
0

>  <ast_violation>
1

>  <ast_violation_ext>
1

>  <a_acc>
4

>  <a_acid>
0

>  <a_aro>
15

>  <a_base>
0

>  <a_count>
35

>  <a_don>
3

>  <a_donacc>
7

>  <a_heavy>
22

>  <a_hyd>
13

>  <a_IC>
57.909412

>  <a_ICM>
1.6545547

>  <a_nB>
0

>  <a_nBr>
0

>  <a_nC>
16

>  <a_nCl>
0

>  <a_nF>
0

>  <a_nH>
13

>  <a_nI>
0

>  <a_nN>
3

>  <a_nO>
3

>  <a_nP>
0

>  <a_nS>
0

>  <balabanJ>
1.5090475

>  <BCUT_PEOE_0>
-2.2192488

>  <BCUT_PEOE_1>
-0.65904832

>  <BCUT_PEOE_2>
0.679712

>  <BCUT_PEOE_3>
2.2640657

>  <BCUT_SLOGP_0>
-2.3503025

>  <BCUT_SLOGP_1>
-0.58293378

>  <BCUT_SLOGP_2>
0.7755422

>  <BCUT_SLOGP_3>
2.345602

>  <BCUT_SMR_0>
-1.952908

>  <BCUT_SMR_1>
-0.48448607

>  <BCUT_SMR_2>
0.84909821

>  <BCUT_SMR_3>
2.5889163

>  <bpol>
20.683691

>  <b_1rotN>
3

>  <b_1rotR>
0.125

>  <b_ar>
16

>  <b_count>
37

>  <b_double>
2

>  <b_heavy>
24

>  <b_max1len>
2

>  <b_rotN>
5

>  <b_rotR>
0.20833333

>  <b_single>
19

>  <b_triple>
0

>  <chi0>
15.526733

>  <chi0v>
11.790761

>  <chi0v_C>
9.1188021

>  <chi0_C>
10.698306

>  <chi1>
10.669035

>  <chi1v>
6.6165519

>  <chi1v_C>
4.1487174

>  <chi1_C>
5.9494896

>  <chiral>
0

>  <chiral_u>
0

>  <density>
0.77159804

>  <diameter>
13

>  <FCharge>
0

>  <GCUT_PEOE_0>
-0.81436902

>  <GCUT_PEOE_1>
-0.44081944

>  <GCUT_PEOE_2>
0.091928869

>  <GCUT_PEOE_3>
2.3878515

>  <GCUT_SLOGP_0>
-0.99336344

>  <GCUT_SLOGP_1>
-0.31057569

>  <GCUT_SLOGP_2>
0.17341155

>  <GCUT_SLOGP_3>
2.4864278

>  <GCUT_SMR_0>
-0.48232988

>  <GCUT_SMR_1>
-0.21932508

>  <GCUT_SMR_2>
0.2142566

>  <GCUT_SMR_3>
2.6990576

>  <Kier1>
16.84375

>  <Kier2>
7.7134986

>  <Kier3>
4.1103301

>  <KierA1>
11.041333

>  <KierA2>
4.9442496

>  <KierA3>
2.592

>  <KierFlex>
2.4814141

>  <lip_acc>
6

>  <lip_don>
2

>  <lip_druglike>
1

>  <lip_violation>
0

>  <logP(o/w)>
2.7839999

>  <logS>
-4.75804

>  <mr>
8.210639

>  <mutagenic>
0

>  <nmol>
1

>  <opr_brigid>
16

>  <opr_leadlike>
1

>  <opr_nring>
3

>  <opr_nrot>
3

>  <opr_violation>
0

>  <PC+>
0

>  <PC->
0

>  <PEOE_PC+>
2.0276334

>  <PEOE_PC->
-2.0276334

>  <PEOE_RPC+>
0.18098828

>  <PEOE_RPC->
0.15970986

>  <PEOE_VSA+0>
29.414736

>  <PEOE_VSA+1>
60.318348

>  <PEOE_VSA+2>
0

>  <PEOE_VSA+3>
25.696545

>  <PEOE_VSA+4>
15.681574

>  <PEOE_VSA+5>
0

>  <PEOE_VSA+6>
19.199511

>  <PEOE_VSA-0>
36.764713

>  <PEOE_VSA-1>
61.274521

>  <PEOE_VSA-2>
0

>  <PEOE_VSA-3>
0

>  <PEOE_VSA-4>
19.249496

>  <PEOE_VSA-5>
13.703812

>  <PEOE_VSA-6>
2.6406472

>  <PEOE_VSA_FHYD>
0.7517994

>  <PEOE_VSA_FNEG>
0.47063234

>  <PEOE_VSA_FPNEG>
0.12535559

>  <PEOE_VSA_FPOL>
0.24820058

>  <PEOE_VSA_FPOS>
0.52936763

>  <PEOE_VSA_FPPOS>
0.12284499

>  <PEOE_VSA_HYD>
213.46886

>  <PEOE_VSA_NEG>
133.63319

>  <PEOE_VSA_PNEG>
35.593956

>  <PEOE_VSA_POL>
70.475044

>  <PEOE_VSA_POS>
150.31071

>  <PEOE_VSA_PPOS>
34.881084

>  <petitjean>
0.46153846

>  <petitjeanSC>
0.85714287

>  <Q_PC+>
0

>  <Q_PC->
0

>  <Q_RPC+>
0

>  <Q_RPC->
0

>  <Q_VSA_FHYD>
1

>  <Q_VSA_FNEG>
0

>  <Q_VSA_FPNEG>
0

>  <Q_VSA_FPOL>
0

>  <Q_VSA_FPOS>
1

>  <Q_VSA_FPPOS>
0

>  <Q_VSA_HYD>
283.94391

>  <Q_VSA_NEG>
0

>  <Q_VSA_PNEG>
0

>  <Q_VSA_POL>
0

>  <Q_VSA_POS>
283.94391

>  <Q_VSA_PPOS>
0

>  <radius>
7

>  <reactive>
1

>  <rings>
3

>  <RPC+>
0

>  <RPC->
0

>  <rsynth>
1

>  <SlogP>
2.9721999

>  <SlogP_VSA0>
0

>  <SlogP_VSA1>
47.800529

>  <SlogP_VSA2>
27.785418

>  <SlogP_VSA3>
0

>  <SlogP_VSA4>
30.233366

>  <SlogP_VSA5>
35.383869

>  <SlogP_VSA6>
0

>  <SlogP_VSA7>
145.43375

>  <SlogP_VSA8>
0

>  <SlogP_VSA9>
25.761309

>  <SMR>
8.1995897

>  <SMR_VSA0>
58.724319

>  <SMR_VSA1>
16.78553

>  <SMR_VSA2>
16.78553

>  <SMR_VSA3>
6.37115

>  <SMR_VSA4>
24.198118

>  <SMR_VSA5>
141.14548

>  <SMR_VSA6>
13.004248

>  <SMR_VSA7>
35.383869

>  <TPSA>
84.080002

>  <VAdjEq>
0.46637034

>  <VAdjMa>
5.5849624

>  <VDistEq>
3.4118721

>  <VDistMa>
8.5956364

>  <vdw_area>
283.94391

>  <vdw_vol>
382.70963

>  <vsa_acc>
27.133842

>  <vsa_acid>
0

>  <vsa_base>
0

>  <vsa_don>
5.6825762

>  <vsa_hyd>
179.94257

>  <vsa_other>
45.843361

>  <vsa_pol>
44.181568

>  <Weight>
295.298

>  <weinerPath>
1138

>  <weinerPol>
32

>  <zagreb>
114

$$$$