Fc1c2N(C=C(C(O)=O)C(=O)c2cc(F)c1N1CC(NCC1)C)CC
  MOE2013           2D

 25 27  0  0  1  0  0  0  0  0999 V2000
    0.0000    0.0000    0.0000 F   0  0  0  0  0  0  0  0  0  0  0  0
    0.7540   -1.2960    0.0000 C   0  0  0  0  0  0  0  0  0  0  0  0
    2.2540   -1.2910    0.0000 C   0  0  0  0  0  0  0  0  0  0  0  0
    3.0000    0.0100    0.0000 N   0  0  3  0  0  0  0  0  0  0  0  0
    4.5000    0.0160    0.0000 C   0  0  0  0  0  0  0  0  0  0  0  0
    5.2540   -1.2810    0.0000 C   0  0  0  0  0  0  0  0  0  0  0  0
    6.7540   -1.2760    0.0000 C   0  0  0  0  0  0  0  0  0  0  0  0
    7.5000    0.0260    0.0000 O   0  0  0  0  0  0  0  0  0  0  0  0
    7.5090   -2.5720    0.0000 O   0  0  0  0  0  0  0  0  0  0  0  0
    4.5090   -2.5830    0.0000 C   0  0  0  0  0  0  0  0  0  0  0  0
    5.2630   -3.8790    0.0000 O   0  0  0  0  0  0  0  0  0  0  0  0
    3.0090   -2.5880    0.0000 C   0  0  0  0  0  0  0  0  0  0  0  0
    2.2630   -3.8890    0.0000 C   0  0  0  0  0  0  0  0  0  0  0  0
    0.7630   -3.8940    0.0000 C   0  0  0  0  0  0  0  0  0  0  0  0
    0.0180   -5.1960    0.0000 F   0  0  0  0  0  0  0  0  0  0  0  0
    0.0090   -2.5980    0.0000 C   0  0  0  0  0  0  0  0  0  0  0  0
   -1.4910   -2.6030    0.0000 N   0  0  3  0  0  0  0  0  0  0  0  0
   -2.2370   -3.9050    0.0000 C   0  0  0  0  0  0  0  0  0  0  0  0
   -3.7370   -3.9100    0.0000 C   0  0  3  0  0  0  0  0  0  0  0  0
   -4.4910   -2.6140    0.0000 N   0  0  0  0  0  0  0  0  0  0  0  0
   -3.7450   -1.3120    0.0000 C   0  0  0  0  0  0  0  0  0  0  0  0
   -2.2450   -1.3070    0.0000 C   0  0  0  0  0  0  0  0  0  0  0  0
   -4.4820   -5.2120    0.0000 C   0  0  0  0  0  0  0  0  0  0  0  0
    2.2450    1.3070    0.0000 C   0  0  0  0  0  0  0  0  0  0  0  0
    2.9910    2.6080    0.0000 C   0  0  0  0  0  0  0  0  0  0  0  0
  1  2  1  0  0  0  0
  2  3  1  0  0  0  0
  2 16  2  0  0  0  0
  3  4  1  0  0  0  0
  3 12  2  0  0  0  0
  4  5  1  0  0  0  0
  4 24  1  0  0  0  0
  5  6  2  0  0  0  0
  6  7  1  0  0  0  0
  6 10  1  0  0  0  0
  7  8  1  0  0  0  0
  7  9  2  0  0  0  0
 10 11  2  0  0  0  0
 10 12  1  0  0  0  0
 12 13  1  0  0  0  0
 13 14  2  0  0  0  0
 14 15  1  0  0  0  0
 14 16  1  0  0  0  0
 16 17  1  0  0  0  0
 17 18  1  0  0  0  0
 17 22  1  0  0  0  0
 18 19  1  0  0  0  0
 19 20  1  0  0  0  0
 19 23  1  0  0  0  0
 20 21  1  0  0  0  0
 21 22  1  0  0  0  0
 24 25  1  0  0  0  0
M  END
>  <Index>
627

>  <ID>
HT1229

>  <class>
0

>  <apol>
49.409065

>  <ast_fraglike>
0

>  <ast_fraglike_ext>
0

>  <ast_violation>
2

>  <ast_violation_ext>
3

>  <a_acc>
4

>  <a_acid>
0

>  <a_aro>
6

>  <a_base>
0

>  <a_count>
44

>  <a_don>
3

>  <a_donacc>
7

>  <a_heavy>
25

>  <a_hyd>
17

>  <a_IC>
78.507729

>  <a_ICM>
1.7842665

>  <a_nB>
0

>  <a_nBr>
0

>  <a_nC>
17

>  <a_nCl>
0

>  <a_nF>
2

>  <a_nH>
19

>  <a_nI>
0

>  <a_nN>
3

>  <a_nO>
3

>  <a_nP>
0

>  <a_nS>
0

>  <balabanJ>
1.8327286

>  <BCUT_PEOE_0>
-2.7463515

>  <BCUT_PEOE_1>
-0.56197751

>  <BCUT_PEOE_2>
0.5492689

>  <BCUT_PEOE_3>
2.6615555

>  <BCUT_SLOGP_0>
-2.9129312

>  <BCUT_SLOGP_1>
-0.48161992

>  <BCUT_SLOGP_2>
0.63646281

>  <BCUT_SLOGP_3>
2.5642986

>  <BCUT_SMR_0>
-2.4564698

>  <BCUT_SMR_1>
-0.3766371

>  <BCUT_SMR_2>
0.70798016

>  <BCUT_SMR_3>
2.9460135

>  <bpol>
29.712933

>  <b_1rotN>
3

>  <b_1rotR>
0.11111111

>  <b_ar>
6

>  <b_count>
46

>  <b_double>
3

>  <b_heavy>
27

>  <b_max1len>
3

>  <b_rotN>
3

>  <b_rotR>
0.11111111

>  <b_single>
37

>  <b_triple>
0

>  <chi0>
18.3006

>  <chi0v>
13.974545

>  <chi0v_C>
10.560478

>  <chi0_C>
11.438793

>  <chi1>
11.845443

>  <chi1v>
8.1148748

>  <chi1v_C>
4.8087306

>  <chi1_C>
5.7507834

>  <chiral>
1

>  <chiral_u>
1

>  <density>
0.81114972

>  <diameter>
11

>  <FCharge>
0

>  <GCUT_PEOE_0>
-0.84254014

>  <GCUT_PEOE_1>
-0.44290251

>  <GCUT_PEOE_2>
0.034729455

>  <GCUT_PEOE_3>
2.7322302

>  <GCUT_SLOGP_0>
-1.1546118

>  <GCUT_SLOGP_1>
-0.382016

>  <GCUT_SLOGP_2>
0.19102561

>  <GCUT_SLOGP_3>
2.7490885

>  <GCUT_SMR_0>
-0.5133059

>  <GCUT_SMR_1>
-0.20441447

>  <GCUT_SMR_2>
0.15691601

>  <GCUT_SMR_3>
2.9993343

>  <Kier1>
19.753086

>  <Kier2>
7.9349999

>  <Kier3>
3.7040815

>  <KierA1>
15.070724

>  <KierA2>
5.9808254

>  <KierA3>
2.7664547

>  <KierFlex>
3.6054149

>  <lip_acc>
6

>  <lip_don>
2

>  <lip_druglike>
1

>  <lip_violation>
0

>  <logP(o/w)>
1.299

>  <logS>
-3.1316099

>  <mr>
8.7784777

>  <mutagenic>
0

>  <nmol>
1

>  <opr_brigid>
17

>  <opr_leadlike>
1

>  <opr_nring>
3

>  <opr_nrot>
5

>  <opr_violation>
0

>  <PC+>
0

>  <PC->
0

>  <PEOE_PC+>
2.2163012

>  <PEOE_PC->
-2.2163012

>  <PEOE_RPC+>
0.13352381

>  <PEOE_RPC->
0.14771198

>  <PEOE_VSA+0>
138.85051

>  <PEOE_VSA+1>
21.929874

>  <PEOE_VSA+2>
19.848398

>  <PEOE_VSA+3>
9.0208454

>  <PEOE_VSA+4>
18.782692

>  <PEOE_VSA+5>
14.708499

>  <PEOE_VSA+6>
0

>  <PEOE_VSA-0>
31.002581

>  <PEOE_VSA-1>
18.747677

>  <PEOE_VSA-2>
0

>  <PEOE_VSA-3>
0

>  <PEOE_VSA-4>
23.817272

>  <PEOE_VSA-5>
27.133842

>  <PEOE_VSA-6>
7.9044313

>  <PEOE_VSA_FHYD>
0.72163475

>  <PEOE_VSA_FNEG>
0.32737577

>  <PEOE_VSA_FPNEG>
0.17741114

>  <PEOE_VSA_FPOL>
0.27836525

>  <PEOE_VSA_FPOS>
0.67262423

>  <PEOE_VSA_FPPOS>
0.10095413

>  <PEOE_VSA_HYD>
239.39989

>  <PEOE_VSA_NEG>
108.6058

>  <PEOE_VSA_PNEG>
58.855545

>  <PEOE_VSA_POL>
92.346733

>  <PEOE_VSA_POS>
223.14081

>  <PEOE_VSA_PPOS>
33.491192

>  <petitjean>
0.45454547

>  <petitjeanSC>
0.83333331

>  <Q_PC+>
0

>  <Q_PC->
0

>  <Q_RPC+>
0

>  <Q_RPC->
0

>  <Q_VSA_FHYD>
1

>  <Q_VSA_FNEG>
0

>  <Q_VSA_FPNEG>
0

>  <Q_VSA_FPOL>
0

>  <Q_VSA_FPOS>
1

>  <Q_VSA_FPPOS>
0

>  <Q_VSA_HYD>
331.74661

>  <Q_VSA_NEG>
0

>  <Q_VSA_PNEG>
0

>  <Q_VSA_POL>
0

>  <Q_VSA_POS>
331.74661

>  <Q_VSA_PPOS>
0

>  <radius>
6

>  <reactive>
0

>  <rings>
3

>  <RPC+>
0

>  <RPC->
0

>  <rsynth>
1

>  <SlogP>
1.7539999

>  <SlogP_VSA0>
24.259378

>  <SlogP_VSA1>
13.433075

>  <SlogP_VSA2>
46.08622

>  <SlogP_VSA3>
99.143539

>  <SlogP_VSA4>
27.047791

>  <SlogP_VSA5>
3.185575

>  <SlogP_VSA6>
0

>  <SlogP_VSA7>
34.85754

>  <SlogP_VSA8>
0

>  <SlogP_VSA9>
102.08575

>  <SMR>
8.9104996

>  <SMR_VSA0>
47.724434

>  <SMR_VSA1>
29.920227

>  <SMR_VSA2>
67.886642

>  <SMR_VSA3>
10.353119

>  <SMR_VSA4>
5.513495

>  <SMR_VSA5>
34.85754

>  <SMR_VSA6>
87.191391

>  <SMR_VSA7>
66.652031

>  <TPSA>
72.879997

>  <VAdjEq>
0.42433795

>  <VAdjMa>
5.7548876

>  <VDistEq>
3.1940773

>  <VDistMa>
9.0238934

>  <vdw_area>
331.74661

>  <vdw_vol>
433.1543

>  <vsa_acc>
13.566921

>  <vsa_acid>
0

>  <vsa_base>
0

>  <vsa_don>
0

>  <vsa_hyd>
242.49762

>  <vsa_other>
23.167019

>  <vsa_pol>
46.383339

>  <Weight>
351.353

>  <weinerPath>
1362

>  <weinerPol>
47

>  <zagreb>
134

$$$$