Oc1cc2C34C(C(N(CC3)C)Cc2cc1)CCCC4
  MOE2013           2D

 19 22  0  0  1  0  0  0  0  0999 V2000
    0.0000    0.0000    0.0000 O   0  0  0  0  0  0  0  0  0  0  0  0
   -1.5000    0.0030    0.0000 C   0  0  0  0  0  0  0  0  0  0  0  0
   -2.2470    1.3040    0.0000 C   0  0  0  0  0  0  0  0  0  0  0  0
   -3.7700    1.2830    0.0000 C   0  0  0  0  0  0  0  0  0  0  0  0
   -4.5250    2.5400    0.0000 C   0  0  3  0  0  0  0  0  0  0  0  0
   -6.0000    2.5230    0.0000 C   0  0  3  0  0  0  0  0  0  0  0  0
   -6.6800    1.2730    0.0000 C   0  0  3  0  0  0  0  0  0  0  0  0
   -8.1010    1.2580    0.0000 N   0  0  3  0  0  0  0  0  0  0  0  0
   -6.8390    0.2790    0.0000 C   0  0  0  0  0  0  0  0  0  0  0  0
   -5.2240    1.2790    0.0000 C   0  0  0  0  0  0  0  0  0  0  0  0
   -9.5220    1.7370    0.0000 C   0  0  0  0  0  0  0  0  0  0  0  0
   -5.9530   -0.0280    0.0000 C   0  0  0  0  0  0  0  0  0  0  0  0
   -4.4910    0.0090    0.0000 C   0  0  0  0  0  0  0  0  0  0  0  0
   -3.7530   -1.2910    0.0000 C   0  0  0  0  0  0  0  0  0  0  0  0
   -2.2530   -1.2940    0.0000 C   0  0  0  0  0  0  0  0  0  0  0  0
   -6.7550    3.7800    0.0000 C   0  0  0  0  0  0  0  0  0  0  0  0
   -6.0450    5.0730    0.0000 C   0  0  0  0  0  0  0  0  0  0  0  0
   -4.5710    5.0910    0.0000 C   0  0  0  0  0  0  0  0  0  0  0  0
   -3.8160    3.8330    0.0000 C   0  0  0  0  0  0  0  0  0  0  0  0
  1  2  1  0  0  0  0
  2  3  1  0  0  0  0
  2 15  2  0  0  0  0
  3  4  2  0  0  0  0
  4  5  1  0  0  0  0
  4 13  1  0  0  0  0
  5  6  1  0  0  0  0
  5 10  1  0  0  0  0
  5 19  1  0  0  0  0
  6  7  1  0  0  0  0
  6 16  1  0  0  0  0
  7  8  1  0  0  0  0
  7 12  1  0  0  0  0
  8  9  1  0  0  0  0
  8 11  1  0  0  0  0
  9 10  1  0  0  0  0
 12 13  1  0  0  0  0
 13 14  2  0  0  0  0
 14 15  1  0  0  0  0
 16 17  1  0  0  0  0
 17 18  1  0  0  0  0
 18 19  1  0  0  0  0
M  END
>  <Index>
611

>  <ID>
HT1201

>  <class>
0

>  <apol>
47.158237

>  <ast_fraglike>
0

>  <ast_fraglike_ext>
0

>  <ast_violation>
1

>  <ast_violation_ext>
1

>  <a_acc>
2

>  <a_acid>
0

>  <a_aro>
6

>  <a_base>
0

>  <a_count>
42

>  <a_don>
1

>  <a_donacc>
3

>  <a_heavy>
19

>  <a_hyd>
17

>  <a_IC>
52.94854

>  <a_ICM>
1.2606795

>  <a_nB>
0

>  <a_nBr>
0

>  <a_nC>
17

>  <a_nCl>
0

>  <a_nF>
0

>  <a_nH>
23

>  <a_nI>
0

>  <a_nN>
1

>  <a_nO>
1

>  <a_nP>
0

>  <a_nS>
0

>  <balabanJ>
1.7161062

>  <BCUT_PEOE_0>
-2.9382241

>  <BCUT_PEOE_1>
-0.53403825

>  <BCUT_PEOE_2>
0.56799221

>  <BCUT_PEOE_3>
2.8838289

>  <BCUT_SLOGP_0>
-2.9318047

>  <BCUT_SLOGP_1>
-0.45202491

>  <BCUT_SLOGP_2>
0.64615858

>  <BCUT_SLOGP_3>
2.9371269

>  <BCUT_SMR_0>
-2.6719322

>  <BCUT_SMR_1>
-0.37730885

>  <BCUT_SMR_2>
0.72378206

>  <BCUT_SMR_3>
3.1495526

>  <bpol>
27.12376

>  <b_1rotN>
0

>  <b_1rotR>
0

>  <b_ar>
6

>  <b_count>
45

>  <b_double>
0

>  <b_heavy>
22

>  <b_max1len>
2

>  <b_rotN>
0

>  <b_rotR>
0

>  <b_single>
39

>  <b_triple>
0

>  <chi0>
13.03517

>  <chi0v>
11.730926

>  <chi0v_C>
10.836499

>  <chi0_C>
11.457819

>  <chi1>
9.2051439

>  <chi1v>
7.7324462

>  <chi1v_C>
6.4871993

>  <chi1_C>
7.3088617

>  <chiral>
3

>  <chiral_u>
3

>  <density>
0.67318416

>  <diameter>
8

>  <FCharge>
0

>  <GCUT_PEOE_0>
-0.85774308

>  <GCUT_PEOE_1>
-0.38598382

>  <GCUT_PEOE_2>
0.014453603

>  <GCUT_PEOE_3>
3.0778282

>  <GCUT_SLOGP_0>
-0.95593268

>  <GCUT_SLOGP_1>
-0.30013239

>  <GCUT_SLOGP_2>
0.093846977

>  <GCUT_SLOGP_3>
3.1488113

>  <GCUT_SMR_0>
-0.53046191

>  <GCUT_SMR_1>
-0.2028861

>  <GCUT_SMR_2>
0.14615153

>  <GCUT_SMR_3>
3.3252034

>  <Kier1>
12.719008

>  <Kier2>
4.5

>  <Kier3>
1.7716264

>  <KierA1>
11.162702

>  <KierA2>
3.9190159

>  <KierA3>
1.5336353

>  <KierFlex>
2.3024633

>  <lip_acc>
2

>  <lip_don>
1

>  <lip_druglike>
1

>  <lip_violation>
0

>  <logP(o/w)>
3.2920001

>  <logS>
-3.21205

>  <mr>
7.640553

>  <mutagenic>
0

>  <nmol>
1

>  <opr_brigid>
20

>  <opr_leadlike>
1

>  <opr_nring>
4

>  <opr_nrot>
0

>  <opr_violation>
0

>  <PC+>
0

>  <PC->
0

>  <PEOE_PC+>
1.1199769

>  <PEOE_PC->
-1.1199769

>  <PEOE_RPC+>
0.19403385

>  <PEOE_RPC->
0.32127756

>  <PEOE_VSA+0>
84.188293

>  <PEOE_VSA+1>
21.254677

>  <PEOE_VSA+2>
0

>  <PEOE_VSA+3>
0

>  <PEOE_VSA+4>
10.324173

>  <PEOE_VSA+5>
0

>  <PEOE_VSA+6>
0

>  <PEOE_VSA-0>
100.16315

>  <PEOE_VSA-1>
29.65753

>  <PEOE_VSA-2>
0

>  <PEOE_VSA-3>
0

>  <PEOE_VSA-4>
0

>  <PEOE_VSA-5>
0

>  <PEOE_VSA-6>
7.7675405

>  <PEOE_VSA_FHYD>
0.92859155

>  <PEOE_VSA_FNEG>
0.54306418

>  <PEOE_VSA_FPNEG>
0.030658675

>  <PEOE_VSA_FPOL>
0.071408443

>  <PEOE_VSA_FPOS>
0.45693582

>  <PEOE_VSA_FPPOS>
0.04074977

>  <PEOE_VSA_HYD>
235.26366

>  <PEOE_VSA_NEG>
137.58823

>  <PEOE_VSA_PNEG>
7.7675405

>  <PEOE_VSA_POL>
18.091713

>  <PEOE_VSA_POS>
115.76714

>  <PEOE_VSA_PPOS>
10.324173

>  <petitjean>
0.5

>  <petitjeanSC>
1

>  <Q_PC+>
0

>  <Q_PC->
0

>  <Q_RPC+>
0

>  <Q_RPC->
0

>  <Q_VSA_FHYD>
1

>  <Q_VSA_FNEG>
0

>  <Q_VSA_FPNEG>
0

>  <Q_VSA_FPOL>
0

>  <Q_VSA_FPOS>
1

>  <Q_VSA_FPPOS>
0

>  <Q_VSA_HYD>
253.35536

>  <Q_VSA_NEG>
0

>  <Q_VSA_PNEG>
0

>  <Q_VSA_POL>
0

>  <Q_VSA_POS>
253.35536

>  <Q_VSA_PPOS>
0

>  <radius>
4

>  <reactive>
0

>  <rings>
4

>  <RPC+>
0

>  <RPC->
0

>  <rsynth>
0

>  <SlogP>
3.0803699

>  <SlogP_VSA0>
25.385227

>  <SlogP_VSA1>
3.1243138

>  <SlogP_VSA2>
3.9819686

>  <SlogP_VSA3>
18.439579

>  <SlogP_VSA4>
10.781946

>  <SlogP_VSA5>
51.765594

>  <SlogP_VSA6>
0

>  <SlogP_VSA7>
52.929554

>  <SlogP_VSA8>
94.342026

>  <SlogP_VSA9>
5.2434282

>  <SMR>
7.64818

>  <SMR_VSA0>
0

>  <SMR_VSA1>
28.509541

>  <SMR_VSA2>
4.4107962

>  <SMR_VSA3>
15.596547

>  <SMR_VSA4>
0

>  <SMR_VSA5>
166.13998

>  <SMR_VSA6>
18.439579

>  <SMR_VSA7>
32.897186

>  <TPSA>
23.469999

>  <VAdjEq>
0.53475124

>  <VAdjMa>
5.4594316

>  <VDistEq>
2.64663

>  <VDistMa>
8.2511978

>  <vdw_area>
253.35536

>  <vdw_vol>
382.32776

>  <vsa_acc>
0

>  <vsa_acid>
0

>  <vsa_base>
0

>  <vsa_don>
0

>  <vsa_hyd>
218.25911

>  <vsa_other>
0

>  <vsa_pol>
13.566921

>  <Weight>
257.37698

>  <weinerPath>
578

>  <weinerPol>
39

>  <zagreb>
112

$$$$