ClCCN(CCCl)c1ccc(cc1)C[C@H](N)C(O)=O
  MOE2013           2D

 19 19  0  0  1  0  0  0  0  0999 V2000
    0.0000    0.0000    0.0000 Cl  0  0  0  0  0  0  0  0  0  0  0  0
    1.3000    0.7490    0.0000 C   0  0  0  0  0  0  0  0  0  0  0  0
    2.5980   -0.0020    0.0000 C   0  0  0  0  0  0  0  0  0  0  0  0
    3.8980    0.7470    0.0000 N   0  0  0  0  0  0  0  0  0  0  0  0
    3.8990    2.2470    0.0000 C   0  0  0  0  0  0  0  0  0  0  0  0
    2.6010    2.9980    0.0000 C   0  0  0  0  0  0  0  0  0  0  0  0
    2.6020    4.4980    0.0000 Cl  0  0  0  0  0  0  0  0  0  0  0  0
    5.1960   -0.0050    0.0000 C   0  0  0  0  0  0  0  0  0  0  0  0
    5.1950   -1.5050    0.0000 C   0  0  0  0  0  0  0  0  0  0  0  0
    6.4930   -2.2560    0.0000 C   0  0  0  0  0  0  0  0  0  0  0  0
    7.7930   -1.5070    0.0000 C   0  0  0  0  0  0  0  0  0  0  0  0
    7.7940   -0.0070    0.0000 C   0  0  0  0  0  0  0  0  0  0  0  0
    6.4960    0.7440    0.0000 C   0  0  0  0  0  0  0  0  0  0  0  0
    9.0910   -2.2580    0.0000 C   0  0  0  0  0  0  0  0  0  0  0  0
   10.3910   -1.5090    0.0000 C   0  0  2  0  0  0  0  0  0  0  0  0
   10.3920   -0.0090    0.0000 N   0  0  0  0  0  0  0  0  0  0  0  0
   11.6890   -2.2600    0.0000 C   0  0  0  0  0  0  0  0  0  0  0  0
   12.9890   -1.5120    0.0000 O   0  0  0  0  0  0  0  0  0  0  0  0
   11.6880   -3.7600    0.0000 O   0  0  0  0  0  0  0  0  0  0  0  0
  1  2  1  0  0  0  0
  2  3  1  0  0  0  0
  3  4  1  0  0  0  0
  4  5  1  0  0  0  0
  4  8  1  0  0  0  0
  5  6  1  0  0  0  0
  6  7  1  0  0  0  0
  8  9  1  0  0  0  0
  8 13  2  0  0  0  0
  9 10  2  0  0  0  0
 10 11  1  0  0  0  0
 11 12  2  0  0  0  0
 11 14  1  0  0  0  0
 12 13  1  0  0  0  0
 14 15  1  0  0  0  0
 15 16  1  6  0  0  0
 15 17  1  0  0  0  0
 17 18  1  0  0  0  0
 17 19  2  0  0  0  0
M  END
>  <Index>
666

>  <ID>
HT1296

>  <class>
0

>  <apol>
43.046272

>  <ast_fraglike>
0

>  <ast_fraglike_ext>
0

>  <ast_violation>
1

>  <ast_violation_ext>
2

>  <a_acc>
3

>  <a_acid>
0

>  <a_aro>
6

>  <a_base>
0

>  <a_count>
37

>  <a_don>
3

>  <a_donacc>
6

>  <a_heavy>
19

>  <a_hyd>
14

>  <a_IC>
63.585407

>  <a_ICM>
1.7185246

>  <a_nB>
0

>  <a_nBr>
0

>  <a_nC>
13

>  <a_nCl>
2

>  <a_nF>
0

>  <a_nH>
18

>  <a_nI>
0

>  <a_nN>
2

>  <a_nO>
2

>  <a_nP>
0

>  <a_nS>
0

>  <balabanJ>
2.3488398

>  <BCUT_PEOE_0>
-2.5807106

>  <BCUT_PEOE_1>
-0.45704481

>  <BCUT_PEOE_2>
0.40121311

>  <BCUT_PEOE_3>
2.5237663

>  <BCUT_SLOGP_0>
-2.7325733

>  <BCUT_SLOGP_1>
-0.42340097

>  <BCUT_SLOGP_2>
0.5210433

>  <BCUT_SLOGP_3>
2.4928627

>  <BCUT_SMR_0>
-2.2806492

>  <BCUT_SMR_1>
-0.26771387

>  <BCUT_SMR_2>
0.61976522

>  <BCUT_SMR_3>
2.8160098

>  <bpol>
22.795727

>  <b_1rotN>
8

>  <b_1rotR>
0.42105263

>  <b_ar>
6

>  <b_count>
37

>  <b_double>
1

>  <b_heavy>
19

>  <b_max1len>
6

>  <b_rotN>
8

>  <b_rotR>
0.42105263

>  <b_single>
30

>  <b_triple>
0

>  <chi0>
14.250712

>  <chi0v>
12.070098

>  <chi0v_C>
7.9222851

>  <chi0_C>
8.6733618

>  <chi1>
9.0789175

>  <chi1v>
7.0925379

>  <chi1v_C>
3.8718441

>  <chi1_C>
4.7828231

>  <chiral>
1

>  <chiral_u>
0

>  <density>
0.81592232

>  <diameter>
11

>  <FCharge>
0

>  <GCUT_PEOE_0>
-0.83194661

>  <GCUT_PEOE_1>
-0.38511404

>  <GCUT_PEOE_2>
0.046388317

>  <GCUT_PEOE_3>
2.4974048

>  <GCUT_SLOGP_0>
-1.363474

>  <GCUT_SLOGP_1>
-0.35018185

>  <GCUT_SLOGP_2>
0.21977521

>  <GCUT_SLOGP_3>
2.5565729

>  <GCUT_SMR_0>
-0.49941522

>  <GCUT_SMR_1>
-0.21605732

>  <GCUT_SMR_2>
0.22900774

>  <GCUT_SMR_3>
2.7794442

>  <Kier1>
17.052631

>  <Kier2>
9.03125

>  <Kier3>
5.8775511

>  <KierA1>
16.125519

>  <KierA2>
8.5124311

>  <KierA3>
5.5258541

>  <KierFlex>
7.2245984

>  <lip_acc>
4

>  <lip_don>
3

>  <lip_druglike>
1

>  <lip_violation>
0

>  <logP(o/w)>
-0.49972999

>  <logS>
-2.5650799

>  <mr>
7.8615494

>  <mutagenic>
1

>  <nmol>
1

>  <opr_brigid>
6

>  <opr_leadlike>
1

>  <opr_nring>
1

>  <opr_nrot>
8

>  <opr_violation>
0

>  <PC+>
0

>  <PC->
0

>  <PEOE_PC+>
1.6820214

>  <PEOE_PC->
-1.6820214

>  <PEOE_RPC+>
0.16460046

>  <PEOE_RPC->
0.1962457

>  <PEOE_VSA+0>
97.7631

>  <PEOE_VSA+1>
24.472891

>  <PEOE_VSA+2>
17.238026

>  <PEOE_VSA+3>
0

>  <PEOE_VSA+4>
10.324173

>  <PEOE_VSA+5>
14.708499

>  <PEOE_VSA+6>
0

>  <PEOE_VSA-0>
35.419662

>  <PEOE_VSA-1>
24.509808

>  <PEOE_VSA-2>
59.163895

>  <PEOE_VSA-3>
0

>  <PEOE_VSA-4>
0

>  <PEOE_VSA-5>
13.566921

>  <PEOE_VSA-6>
14.418659

>  <PEOE_VSA_FHYD>
0.8298437

>  <PEOE_VSA_FNEG>
0.47203377

>  <PEOE_VSA_FPNEG>
0.08981666

>  <PEOE_VSA_FPOL>
0.17015629

>  <PEOE_VSA_FPOS>
0.5279662

>  <PEOE_VSA_FPPOS>
0.080339625

>  <PEOE_VSA_HYD>
258.56738

>  <PEOE_VSA_NEG>
147.07895

>  <PEOE_VSA_PNEG>
27.98558

>  <PEOE_VSA_POL>
53.018253

>  <PEOE_VSA_POS>
164.50668

>  <PEOE_VSA_PPOS>
25.032671

>  <petitjean>
0.45454547

>  <petitjeanSC>
0.83333331

>  <Q_PC+>
0

>  <Q_PC->
0

>  <Q_RPC+>
0

>  <Q_RPC->
0

>  <Q_VSA_FHYD>
1

>  <Q_VSA_FNEG>
0

>  <Q_VSA_FPNEG>
0

>  <Q_VSA_FPOL>
0

>  <Q_VSA_FPOS>
1

>  <Q_VSA_FPPOS>
0

>  <Q_VSA_HYD>
311.58563

>  <Q_VSA_NEG>
0

>  <Q_VSA_PNEG>
0

>  <Q_VSA_POL>
0

>  <Q_VSA_POS>
311.58563

>  <Q_VSA_PPOS>
0

>  <radius>
6

>  <reactive>
1

>  <rings>
1

>  <RPC+>
0

>  <RPC->
0

>  <rsynth>
1

>  <SlogP>
1.92497

>  <SlogP_VSA0>
36.0215

>  <SlogP_VSA1>
7.7454643

>  <SlogP_VSA2>
27.844185

>  <SlogP_VSA3>
100.63126

>  <SlogP_VSA4>
3.185575

>  <SlogP_VSA5>
18.868406

>  <SlogP_VSA6>
0

>  <SlogP_VSA7>
70.572739

>  <SlogP_VSA8>
0

>  <SlogP_VSA9>
81.054039

>  <SMR>
7.94102

>  <SMR_VSA0>
23.862217

>  <SMR_VSA1>
0

>  <SMR_VSA2>
28.509541

>  <SMR_VSA3>
7.1675434

>  <SMR_VSA4>
35.653934

>  <SMR_VSA5>
89.441139

>  <SMR_VSA6>
82.991493

>  <SMR_VSA7>
78.297287

>  <TPSA>
66.559998

>  <VAdjEq>
0.48546076

>  <VAdjMa>
5.2479277

>  <VDistEq>
3.2970724

>  <VDistMa>
8.170681

>  <vdw_area>
311.58563

>  <vdw_vol>
374.06134

>  <vsa_acc>
0

>  <vsa_acid>
0

>  <vsa_base>
0

>  <vsa_don>
0

>  <vsa_hyd>
230.65242

>  <vsa_other>
14.708499

>  <vsa_pol>
44.876331

>  <Weight>
305.20499

>  <weinerPath>
804

>  <weinerPol>
25

>  <zagreb>
86

$$$$