FC(F)(CCCC)C1(OC2C(CC1)C(CCCCCCC(O)=O)C(=O)C2)O
  MOE2013           2D

 27 28  0  0  1  0  0  0  0  0999 V2000
    0.0000    0.0000    0.0000 F   0  0  0  0  0  0  0  0  0  0  0  0
    1.0640   -1.0570    0.0000 C   0  0  0  0  0  0  0  0  0  0  0  0
    1.4480    0.3930    0.0000 F   0  0  0  0  0  0  0  0  0  0  0  0
    0.0070   -2.1210    0.0000 C   0  0  0  0  0  0  0  0  0  0  0  0
   -1.4430   -1.7380    0.0000 C   0  0  0  0  0  0  0  0  0  0  0  0
   -2.5010   -2.8020    0.0000 C   0  0  0  0  0  0  0  0  0  0  0  0
   -3.9510   -2.4180    0.0000 C   0  0  0  0  0  0  0  0  0  0  0  0
    2.5140   -1.4410    0.0000 C   0  0  3  0  0  0  0  0  0  0  0  0
    2.9610   -0.0090    0.0000 O   0  0  0  0  0  0  0  0  0  0  0  0
    4.4240    0.3200    0.0000 C   0  0  3  0  0  0  0  0  0  0  0  0
    5.4410   -0.7820    0.0000 C   0  0  3  0  0  0  0  0  0  0  0  0
    4.9940   -2.2140    0.0000 C   0  0  0  0  0  0  0  0  0  0  0  0
    3.5310   -2.5440    0.0000 C   0  0  0  0  0  0  0  0  0  0  0  0
    6.8040   -0.1560    0.0000 C   0  0  3  0  0  0  0  0  0  0  0  0
    8.1120   -0.8900    0.0000 C   0  0  0  0  0  0  0  0  0  0  0  0
    9.4020   -0.1250    0.0000 C   0  0  0  0  0  0  0  0  0  0  0  0
   10.7100   -0.8590    0.0000 C   0  0  0  0  0  0  0  0  0  0  0  0
   12.0000   -0.0940    0.0000 C   0  0  0  0  0  0  0  0  0  0  0  0
   13.3080   -0.8290    0.0000 C   0  0  0  0  0  0  0  0  0  0  0  0
   14.5980   -0.0630    0.0000 C   0  0  0  0  0  0  0  0  0  0  0  0
   15.9050   -0.7980    0.0000 C   0  0  0  0  0  0  0  0  0  0  0  0
   15.9230   -2.2980    0.0000 O   0  0  0  0  0  0  0  0  0  0  0  0
   17.1950   -0.0320    0.0000 O   0  0  0  0  0  0  0  0  0  0  0  0
    6.6290    1.3340    0.0000 C   0  0  0  0  0  0  0  0  0  0  0  0
    7.7320    2.3510    0.0000 O   0  0  0  0  0  0  0  0  0  0  0  0
    5.1590    1.6280    0.0000 C   0  0  0  0  0  0  0  0  0  0  0  0
    1.4380   -2.4860    0.0000 O   0  0  0  0  0  0  0  0  0  0  0  0
  1  2  1  0  0  0  0
  2  3  1  0  0  0  0
  2  4  1  0  0  0  0
  2  8  1  0  0  0  0
  4  5  1  0  0  0  0
  5  6  1  0  0  0  0
  6  7  1  0  0  0  0
  8  9  1  0  0  0  0
  8 13  1  0  0  0  0
  8 27  1  0  0  0  0
  9 10  1  0  0  0  0
 10 11  1  0  0  0  0
 10 26  1  0  0  0  0
 11 12  1  0  0  0  0
 11 14  1  0  0  0  0
 12 13  1  0  0  0  0
 14 15  1  0  0  0  0
 14 24  1  0  0  0  0
 15 16  1  0  0  0  0
 16 17  1  0  0  0  0
 17 18  1  0  0  0  0
 18 19  1  0  0  0  0
 19 20  1  0  0  0  0
 20 21  1  0  0  0  0
 21 22  1  0  0  0  0
 21 23  2  0  0  0  0
 24 25  2  0  0  0  0
 24 26  1  0  0  0  0
M  END
>  <Index>
640

>  <ID>
HT1254

>  <class>
0

>  <apol>
61.661377

>  <ast_fraglike>
0

>  <ast_fraglike_ext>
0

>  <ast_violation>
3

>  <ast_violation_ext>
4

>  <a_acc>
5

>  <a_acid>
0

>  <a_aro>
0

>  <a_base>
0

>  <a_count>
59

>  <a_don>
3

>  <a_donacc>
8

>  <a_heavy>
27

>  <a_hyd>
19

>  <a_IC>
87.02774

>  <a_ICM>
1.4750464

>  <a_nB>
0

>  <a_nBr>
0

>  <a_nC>
20

>  <a_nCl>
0

>  <a_nF>
2

>  <a_nH>
32

>  <a_nI>
0

>  <a_nN>
0

>  <a_nO>
5

>  <a_nP>
0

>  <a_nS>
0

>  <balabanJ>
1.8255757

>  <BCUT_PEOE_0>
-2.7709677

>  <BCUT_PEOE_1>
-0.50509781

>  <BCUT_PEOE_2>
0.42526326

>  <BCUT_PEOE_3>
2.8859186

>  <BCUT_SLOGP_0>
-2.7970524

>  <BCUT_SLOGP_1>
-0.45709181

>  <BCUT_SLOGP_2>
0.41120914

>  <BCUT_SLOGP_3>
2.8804801

>  <BCUT_SMR_0>
-2.5597367

>  <BCUT_SMR_1>
-0.29949331

>  <BCUT_SMR_2>
0.56158167

>  <BCUT_SMR_3>
3.100492

>  <bpol>
41.220623

>  <b_1rotN>
11

>  <b_1rotR>
0.39285713

>  <b_ar>
0

>  <b_count>
60

>  <b_double>
2

>  <b_heavy>
28

>  <b_max1len>
8

>  <b_rotN>
11

>  <b_rotR>
0.39285713

>  <b_single>
58

>  <b_triple>
0

>  <chi0>
20.07914

>  <chi0v>
16.092434

>  <chi0v_C>
13.217332

>  <chi0_C>
13.372033

>  <chi1>
12.699307

>  <chi1v>
10.22466

>  <chi1v_C>
8.5514069

>  <chi1_C>
8.7054548

>  <chiral>
4

>  <chiral_u>
4

>  <density>
0.76407033

>  <diameter>
17

>  <FCharge>
0

>  <GCUT_PEOE_0>
-0.79732645

>  <GCUT_PEOE_1>
-0.41417193

>  <GCUT_PEOE_2>
0.027759869

>  <GCUT_PEOE_3>
3.0081499

>  <GCUT_SLOGP_0>
-0.90994126

>  <GCUT_SLOGP_1>
-0.30463985

>  <GCUT_SLOGP_2>
0.083138712

>  <GCUT_SLOGP_3>
3.0442541

>  <GCUT_SMR_0>
-0.53596079

>  <GCUT_SMR_1>
-0.22452074

>  <GCUT_SMR_2>
0.1633151

>  <GCUT_SMR_3>
3.2062609

>  <Kier1>
23.280613

>  <Kier2>
10.15625

>  <Kier3>
5.9903998

>  <KierA1>
21.428076

>  <KierA2>
9.3170633

>  <KierA3>
5.4819012

>  <KierFlex>
7.3943233

>  <lip_acc>
5

>  <lip_don>
2

>  <lip_druglike>
1

>  <lip_violation>
0

>  <logP(o/w)>
5.1509199

>  <logS>
-4.4236202

>  <mr>
9.8501749

>  <mutagenic>
0

>  <nmol>
1

>  <opr_brigid>
10

>  <opr_leadlike>
1

>  <opr_nring>
2

>  <opr_nrot>
12

>  <opr_violation>
1

>  <PC+>
0

>  <PC->
0

>  <PEOE_PC+>
2.4538329

>  <PEOE_PC->
-2.4538329

>  <PEOE_RPC+>
0.12276874

>  <PEOE_RPC->
0.14676844

>  <PEOE_VSA+0>
158.50145

>  <PEOE_VSA+1>
9.1703148

>  <PEOE_VSA+2>
8.458519

>  <PEOE_VSA+3>
0

>  <PEOE_VSA+4>
21.756889

>  <PEOE_VSA+5>
14.708499

>  <PEOE_VSA+6>
2.2331963

>  <PEOE_VSA-0>
34.805252

>  <PEOE_VSA-1>
53.552929

>  <PEOE_VSA-2>
0

>  <PEOE_VSA-3>
23.817272

>  <PEOE_VSA-4>
0

>  <PEOE_VSA-5>
27.133842

>  <PEOE_VSA-6>
18.038837

>  <PEOE_VSA_FHYD>
0.77464682

>  <PEOE_VSA_FNEG>
0.42277768

>  <PEOE_VSA_FPNEG>
0.12137418

>  <PEOE_VSA_FPOL>
0.22535317

>  <PEOE_VSA_FPOS>
0.57722229

>  <PEOE_VSA_FPPOS>
0.10397898

>  <PEOE_VSA_HYD>
288.30573

>  <PEOE_VSA_NEG>
157.34813

>  <PEOE_VSA_PNEG>
45.17268

>  <PEOE_VSA_POL>
83.871262

>  <PEOE_VSA_POS>
214.82887

>  <PEOE_VSA_PPOS>
38.698586

>  <petitjean>
0.47058824

>  <petitjeanSC>
0.8888889

>  <Q_PC+>
0

>  <Q_PC->
0

>  <Q_RPC+>
0

>  <Q_RPC->
0

>  <Q_VSA_FHYD>
1

>  <Q_VSA_FNEG>
0

>  <Q_VSA_FPNEG>
0

>  <Q_VSA_FPOL>
0

>  <Q_VSA_FPOS>
1

>  <Q_VSA_FPPOS>
0

>  <Q_VSA_HYD>
372.177

>  <Q_VSA_NEG>
0

>  <Q_VSA_PNEG>
0

>  <Q_VSA_POL>
0

>  <Q_VSA_POS>
372.177

>  <Q_VSA_PPOS>
0

>  <radius>
9

>  <reactive>
1

>  <rings>
2

>  <RPC+>
0

>  <RPC->
0

>  <rsynth>
0.11111111

>  <SlogP>
4.3098998

>  <SlogP_VSA0>
25.385227

>  <SlogP_VSA1>
15.257148

>  <SlogP_VSA2>
65.19297

>  <SlogP_VSA3>
25.385227

>  <SlogP_VSA4>
8.8215923

>  <SlogP_VSA5>
0

>  <SlogP_VSA6>
0

>  <SlogP_VSA7>
0

>  <SlogP_VSA8>
226.42087

>  <SlogP_VSA9>
63.246243

>  <SMR>
9.54706

>  <SMR_VSA0>
58.724319

>  <SMR_VSA1>
55.305454

>  <SMR_VSA2>
36.030891

>  <SMR_VSA3>
6.4686494

>  <SMR_VSA4>
0

>  <SMR_VSA5>
226.42087

>  <SMR_VSA6>
13.433075

>  <SMR_VSA7>
33.326015

>  <TPSA>
83.830002

>  <VAdjEq>
0.39086518

>  <VAdjMa>
5.8073549

>  <VDistEq>
3.7723777

>  <VDistMa>
9.1712303

>  <vdw_area>
372.177

>  <vdw_vol>
511.03543

>  <vsa_acc>
16.070677

>  <vsa_acid>
0

>  <vsa_base>
0

>  <vsa_don>
0

>  <vsa_hyd>
258.03644

>  <vsa_other>
24.275562

>  <vsa_pol>
56.771439

>  <Weight>
390.46698

>  <weinerPath>
2140

>  <weinerPol>
42

>  <zagreb>
136

$$$$