N(C(Cc1ccccc1)(C)C)C
  MOE2013           2D

 12 12  0  0  0  0  0  0  0  0999 V2000
    0.0000    0.0000    0.0000 N   0  0  0  0  0  0  0  0  0  0  0  0
   -0.7510   -1.2990    0.0000 C   0  0  0  0  0  0  0  0  0  0  0  0
   -1.5010   -2.5970    0.0000 C   0  0  0  0  0  0  0  0  0  0  0  0
   -3.0010   -2.5960    0.0000 C   0  0  0  0  0  0  0  0  0  0  0  0
   -3.7520   -3.8950    0.0000 C   0  0  0  0  0  0  0  0  0  0  0  0
   -5.2520   -3.8940    0.0000 C   0  0  0  0  0  0  0  0  0  0  0  0
   -6.0010   -2.5950    0.0000 C   0  0  0  0  0  0  0  0  0  0  0  0
   -5.2510   -1.2960    0.0000 C   0  0  0  0  0  0  0  0  0  0  0  0
   -3.7510   -1.2970    0.0000 C   0  0  0  0  0  0  0  0  0  0  0  0
    0.5480   -2.0490    0.0000 C   0  0  0  0  0  0  0  0  0  0  0  0
   -2.0490   -0.5480    0.0000 C   0  0  0  0  0  0  0  0  0  0  0  0
    1.5000   -0.0010    0.0000 C   0  0  0  0  0  0  0  0  0  0  0  0
  1  2  1  0  0  0  0
  1 12  1  0  0  0  0
  2  3  1  0  0  0  0
  2 10  1  0  0  0  0
  2 11  1  0  0  0  0
  3  4  1  0  0  0  0
  4  5  1  0  0  0  0
  4  9  2  0  0  0  0
  5  6  2  0  0  0  0
  6  7  1  0  0  0  0
  7  8  2  0  0  0  0
  8  9  1  0  0  0  0
M  END
>  <Index>
673

>  <ID>
HT1307

>  <class>
0

>  <apol>
31.795481

>  <ast_fraglike>
1

>  <ast_fraglike_ext>
1

>  <ast_violation>
0

>  <ast_violation_ext>
0

>  <a_acc>
1

>  <a_acid>
0

>  <a_aro>
6

>  <a_base>
0

>  <a_count>
29

>  <a_don>
1

>  <a_donacc>
2

>  <a_heavy>
12

>  <a_hyd>
11

>  <a_IC>
33.340832

>  <a_ICM>
1.1496838

>  <a_nB>
0

>  <a_nBr>
0

>  <a_nC>
11

>  <a_nCl>
0

>  <a_nF>
0

>  <a_nH>
17

>  <a_nI>
0

>  <a_nN>
1

>  <a_nO>
0

>  <a_nP>
0

>  <a_nS>
0

>  <balabanJ>
2.3027208

>  <BCUT_PEOE_0>
-2.6938357

>  <BCUT_PEOE_1>
-0.33902371

>  <BCUT_PEOE_2>
0.4056164

>  <BCUT_PEOE_3>
2.6206639

>  <BCUT_SLOGP_0>
-2.7861152

>  <BCUT_SLOGP_1>
-0.2652562

>  <BCUT_SLOGP_2>
0.49510294

>  <BCUT_SLOGP_3>
2.6135449

>  <BCUT_SMR_0>
-2.4210672

>  <BCUT_SMR_1>
-0.22527233

>  <BCUT_SMR_2>
0.54269904

>  <BCUT_SMR_3>
2.8893199

>  <bpol>
19.244518

>  <b_1rotN>
3

>  <b_1rotR>
0.25

>  <b_ar>
6

>  <b_count>
29

>  <b_double>
0

>  <b_heavy>
12

>  <b_max1len>
5

>  <b_rotN>
3

>  <b_rotR>
0.25

>  <b_single>
23

>  <b_triple>
0

>  <chi0>
9.0270977

>  <chi0v>
8.0938578

>  <chi0v_C>
7.5938582

>  <chi0_C>
8.3199911

>  <chi1>
5.6389585

>  <chi1v>
4.3677902

>  <chi1v_C>
3.6177905

>  <chi1_C>
4.5782981

>  <chiral>
0

>  <chiral_u>
0

>  <density>
0.61078262

>  <diameter>
7

>  <FCharge>
0

>  <GCUT_PEOE_0>
-0.85079503

>  <GCUT_PEOE_1>
-0.29707083

>  <GCUT_PEOE_2>
-0.0012059736

>  <GCUT_PEOE_3>
2.4488678

>  <GCUT_SLOGP_0>
-1.152898

>  <GCUT_SLOGP_1>
-0.23202878

>  <GCUT_SLOGP_2>
0.079902656

>  <GCUT_SLOGP_3>
2.5081847

>  <GCUT_SMR_0>
-0.52177376

>  <GCUT_SMR_1>
-0.14111899

>  <GCUT_SMR_2>
0.099048927

>  <GCUT_SMR_3>
2.7057533

>  <Kier1>
10.083333

>  <Kier2>
4.296875

>  <Kier3>
3.515625

>  <KierA1>
8.1382713

>  <KierA2>
3.3936946

>  <KierA3>
2.7295666

>  <KierFlex>
2.3015673

>  <lip_acc>
1

>  <lip_don>
1

>  <lip_druglike>
1

>  <lip_violation>
0

>  <logP(o/w)>
2.6440001

>  <logS>
-1.84127

>  <mr>
5.303895

>  <mutagenic>
0

>  <nmol>
1

>  <opr_brigid>
6

>  <opr_leadlike>
1

>  <opr_nring>
1

>  <opr_nrot>
3

>  <opr_violation>
0

>  <PC+>
0

>  <PC->
0

>  <PEOE_PC+>
0.77980679

>  <PEOE_PC->
-0.77980679

>  <PEOE_RPC+>
0.15663309

>  <PEOE_RPC->
0.40233427

>  <PEOE_VSA+0>
46.919247

>  <PEOE_VSA+1>
21.326929

>  <PEOE_VSA+2>
8.6190128

>  <PEOE_VSA+3>
0

>  <PEOE_VSA+4>
0

>  <PEOE_VSA+5>
0

>  <PEOE_VSA+6>
0

>  <PEOE_VSA-0>
71.643898

>  <PEOE_VSA-1>
61.274521

>  <PEOE_VSA-2>
0

>  <PEOE_VSA-3>
0

>  <PEOE_VSA-4>
0

>  <PEOE_VSA-5>
0

>  <PEOE_VSA-6>
0.13689101

>  <PEOE_VSA_FHYD>
0.99934787

>  <PEOE_VSA_FNEG>
0.63383669

>  <PEOE_VSA_FPNEG>
0.00065210881

>  <PEOE_VSA_FPOL>
0.00065210881

>  <PEOE_VSA_FPOS>
0.36616334

>  <PEOE_VSA_FPPOS>
0

>  <PEOE_VSA_HYD>
209.7836

>  <PEOE_VSA_NEG>
133.05531

>  <PEOE_VSA_PNEG>
0.13689101

>  <PEOE_VSA_POL>
0.13689101

>  <PEOE_VSA_POS>
76.865189

>  <PEOE_VSA_PPOS>
0

>  <petitjean>
0.42857143

>  <petitjeanSC>
0.75

>  <Q_PC+>
0

>  <Q_PC->
0

>  <Q_RPC+>
0

>  <Q_RPC->
0

>  <Q_VSA_FHYD>
1

>  <Q_VSA_FNEG>
0

>  <Q_VSA_FPNEG>
0

>  <Q_VSA_FPOL>
0

>  <Q_VSA_FPOS>
1

>  <Q_VSA_FPPOS>
0

>  <Q_VSA_HYD>
209.9205

>  <Q_VSA_NEG>
0

>  <Q_VSA_PNEG>
0

>  <Q_VSA_POL>
0

>  <Q_VSA_POS>
209.9205

>  <Q_VSA_PPOS>
0

>  <radius>
4

>  <reactive>
0

>  <rings>
1

>  <RPC+>
0

>  <RPC->
0

>  <rsynth>
1

>  <SlogP>
2.2270701

>  <SlogP_VSA0>
18.01075

>  <SlogP_VSA1>
0

>  <SlogP_VSA2>
0

>  <SlogP_VSA3>
0

>  <SlogP_VSA4>
3.185575

>  <SlogP_VSA5>
51.765594

>  <SlogP_VSA6>
0

>  <SlogP_VSA7>
88.215919

>  <SlogP_VSA8>
0

>  <SlogP_VSA9>
66.652031

>  <SMR>
5.3284702

>  <SMR_VSA0>
0

>  <SMR_VSA1>
0

>  <SMR_VSA2>
18.01075

>  <SMR_VSA3>
3.185575

>  <SMR_VSA4>
0

>  <SMR_VSA5>
107.08433

>  <SMR_VSA6>
0

>  <SMR_VSA7>
99.549217

>  <TPSA>
12.03

>  <VAdjEq>
0.65002245

>  <VAdjMa>
4.5849624

>  <VDistEq>
2.5825226

>  <VDistMa>
6.8477697

>  <vdw_area>
209.9205

>  <vdw_vol>
267.30295

>  <vsa_acc>
0

>  <vsa_acid>
0

>  <vsa_base>
0

>  <vsa_don>
0

>  <vsa_hyd>
189.77586

>  <vsa_other>
0

>  <vsa_pol>
5.6825762

>  <Weight>
163.26399

>  <weinerPath>
205

>  <weinerPol>
13

>  <zagreb>
56

$$$$