O=C1NN=C(C(C1)C)c1ccc(NN=C(C#N)/C#N)cc1
  MOE2013           2D

 21 22  0  0  1  0  0  0  0  0999 V2000
    0.0000    0.0000    0.0000 O   0  0  0  0  0  0  0  0  0  0  0  0
   -1.5000   -0.0010    0.0000 C   0  0  0  0  0  0  0  0  0  0  0  0
   -2.2490   -1.3000    0.0000 N   0  0  0  0  0  0  0  0  0  0  0  0
   -3.7490   -1.3000    0.0000 N   0  0  0  0  0  0  0  0  0  0  0  0
   -4.5000   -0.0020    0.0000 C   0  0  0  0  0  0  0  0  0  0  0  0
   -3.7510    1.2980    0.0000 C   0  0  3  0  0  0  0  0  0  0  0  0
   -2.2510    1.2980    0.0000 C   0  0  0  0  0  0  0  0  0  0  0  0
   -4.5010    2.5960    0.0000 C   0  0  0  0  0  0  0  0  0  0  0  0
   -6.0000   -0.0020    0.0000 C   0  0  0  0  0  0  0  0  0  0  0  0
   -6.7490   -1.3020    0.0000 C   0  0  0  0  0  0  0  0  0  0  0  0
   -8.2490   -1.3020    0.0000 C   0  0  0  0  0  0  0  0  0  0  0  0
   -9.0000   -0.0040    0.0000 C   0  0  0  0  0  0  0  0  0  0  0  0
  -10.5000   -0.0040    0.0000 N   0  0  0  0  0  0  0  0  0  0  0  0
  -11.2490   -1.3030    0.0000 N   0  0  0  0  0  0  0  0  0  0  0  0
  -12.7490   -1.3040    0.0000 C   0  0  0  0  0  0  0  0  0  0  0  0
  -13.4990   -2.6030    0.0000 C   0  0  0  0  0  0  0  0  0  0  0  0
  -14.2480   -3.9030    0.0000 N   0  0  0  0  0  0  0  0  0  0  0  0
  -13.5000   -0.0050    0.0000 C   0  0  0  0  0  0  0  0  0  0  0  0
  -14.2510    1.2930    0.0000 N   0  0  0  0  0  0  0  0  0  0  0  0
   -8.2510    1.2960    0.0000 C   0  0  0  0  0  0  0  0  0  0  0  0
   -6.7510    1.2960    0.0000 C   0  0  0  0  0  0  0  0  0  0  0  0
  1  2  2  0  0  0  0
  2  3  1  0  0  0  0
  2  7  1  0  0  0  0
  3  4  1  0  0  0  0
  4  5  2  0  0  0  0
  5  6  1  0  0  0  0
  5  9  1  0  0  0  0
  6  7  1  0  0  0  0
  6  8  1  0  0  0  0
  9 10  1  0  0  0  0
  9 21  2  0  0  0  0
 10 11  2  0  0  0  0
 11 12  1  0  0  0  0
 12 13  1  0  0  0  0
 12 20  2  0  0  0  0
 13 14  1  0  0  0  0
 14 15  2  3  0  0  0
 15 16  1  0  0  0  0
 15 18  1  0  0  0  0
 16 17  3  0  0  0  0
 18 19  3  0  0  0  0
 20 21  1  0  0  0  0
M  END
>  <Index>
612

>  <ID>
HT1202

>  <class>
0

>  <apol>
40.043514

>  <ast_fraglike>
0

>  <ast_fraglike_ext>
0

>  <ast_violation>
1

>  <ast_violation_ext>
3

>  <a_acc>
5

>  <a_acid>
0

>  <a_aro>
6

>  <a_base>
0

>  <a_count>
33

>  <a_don>
2

>  <a_donacc>
7

>  <a_heavy>
21

>  <a_hyd>
9

>  <a_IC>
54.632713

>  <a_ICM>
1.6555368

>  <a_nB>
0

>  <a_nBr>
0

>  <a_nC>
14

>  <a_nCl>
0

>  <a_nF>
0

>  <a_nH>
12

>  <a_nI>
0

>  <a_nN>
6

>  <a_nO>
1

>  <a_nP>
0

>  <a_nS>
0

>  <balabanJ>
1.7108674

>  <BCUT_PEOE_0>
-2.5552821

>  <BCUT_PEOE_1>
-0.58637339

>  <BCUT_PEOE_2>
0.52201736

>  <BCUT_PEOE_3>
2.5849078

>  <BCUT_SLOGP_0>
-2.6068537

>  <BCUT_SLOGP_1>
-0.54055381

>  <BCUT_SLOGP_2>
0.56107992

>  <BCUT_SLOGP_3>
2.594032

>  <BCUT_SMR_0>
-2.3063941

>  <BCUT_SMR_1>
-0.3203606

>  <BCUT_SMR_2>
0.72436255

>  <BCUT_SMR_3>
2.8423884

>  <bpol>
16.716484

>  <b_1rotN>
3

>  <b_1rotR>
0.13636364

>  <b_ar>
6

>  <b_count>
34

>  <b_double>
3

>  <b_heavy>
22

>  <b_max1len>
3

>  <b_rotN>
5

>  <b_rotR>
0.22727273

>  <b_single>
23

>  <b_triple>
2

>  <chi0>
15.242276

>  <chi0v>
11.290961

>  <chi0v_C>
8.0938578

>  <chi0_C>
9.4138489

>  <chi1>
10.134561

>  <chi1v>
6.2449594

>  <chi1v_C>
4.1991944

>  <chi1_C>
5.5100031

>  <chiral>
1

>  <chiral_u>
1

>  <density>
0.77121264

>  <diameter>
13

>  <FCharge>
0

>  <GCUT_PEOE_0>
-0.79878312

>  <GCUT_PEOE_1>
-0.42113611

>  <GCUT_PEOE_2>
0.07578557

>  <GCUT_PEOE_3>
2.4406066

>  <GCUT_SLOGP_0>
-1.1344508

>  <GCUT_SLOGP_1>
-0.35128418

>  <GCUT_SLOGP_2>
0.11379043

>  <GCUT_SLOGP_3>
2.4988961

>  <GCUT_SMR_0>
-0.51577342

>  <GCUT_SMR_1>
-0.20608377

>  <GCUT_SMR_2>
0.19342618

>  <GCUT_SMR_3>
2.7265

>  <Kier1>
17.355371

>  <Kier2>
8.5850182

>  <Kier3>
5

>  <KierA1>
10.785209

>  <KierA2>
5.19384

>  <KierA3>
2.9627459

>  <KierFlex>
2.6674595

>  <lip_acc>
7

>  <lip_don>
2

>  <lip_druglike>
1

>  <lip_violation>
0

>  <logP(o/w)>
2.7839999

>  <logS>
-3.0911701

>  <mr>
7.6855965

>  <mutagenic>
0

>  <nmol>
1

>  <opr_brigid>
13

>  <opr_leadlike>
1

>  <opr_nring>
2

>  <opr_nrot>
5

>  <opr_violation>
0

>  <PC+>
0

>  <PC->
0

>  <PEOE_PC+>
1.6680616

>  <PEOE_PC->
-1.6680616

>  <PEOE_RPC+>
0.14468633

>  <PEOE_RPC->
0.16272189

>  <PEOE_VSA+0>
40.993179

>  <PEOE_VSA+1>
23.761095

>  <PEOE_VSA+2>
40.59901

>  <PEOE_VSA+3>
17.238026

>  <PEOE_VSA+4>
19.649082

>  <PEOE_VSA+5>
0

>  <PEOE_VSA+6>
0

>  <PEOE_VSA-0>
26.718348

>  <PEOE_VSA-1>
43.257484

>  <PEOE_VSA-2>
0

>  <PEOE_VSA-3>
58.202412

>  <PEOE_VSA-4>
3.8753545

>  <PEOE_VSA-5>
13.566921

>  <PEOE_VSA-6>
0

>  <PEOE_VSA_FHYD>
0.87114835

>  <PEOE_VSA_FNEG>
0.50587112

>  <PEOE_VSA_FPNEG>
0.060592718

>  <PEOE_VSA_FPOL>
0.12885167

>  <PEOE_VSA_FPOS>
0.49412888

>  <PEOE_VSA_FPPOS>
0.068258941

>  <PEOE_VSA_HYD>
250.76956

>  <PEOE_VSA_NEG>
145.62051

>  <PEOE_VSA_PNEG>
17.442276

>  <PEOE_VSA_POL>
37.091358

>  <PEOE_VSA_POS>
142.2404

>  <PEOE_VSA_PPOS>
19.649082

>  <petitjean>
0.46153846

>  <petitjeanSC>
0.85714287

>  <Q_PC+>
0

>  <Q_PC->
0

>  <Q_RPC+>
0

>  <Q_RPC->
0

>  <Q_VSA_FHYD>
1

>  <Q_VSA_FNEG>
0

>  <Q_VSA_FPNEG>
0

>  <Q_VSA_FPOL>
0

>  <Q_VSA_FPOS>
1

>  <Q_VSA_FPPOS>
0

>  <Q_VSA_HYD>
287.86093

>  <Q_VSA_NEG>
0

>  <Q_VSA_PNEG>
0

>  <Q_VSA_POL>
0

>  <Q_VSA_POS>
287.86093

>  <Q_VSA_PPOS>
0

>  <radius>
7

>  <reactive>
1

>  <rings>
2

>  <RPC+>
0

>  <RPC->
0

>  <rsynth>
1

>  <SlogP>
1.361768

>  <SlogP_VSA0>
17.888229

>  <SlogP_VSA1>
28.660507

>  <SlogP_VSA2>
23.862217

>  <SlogP_VSA3>
95.322205

>  <SlogP_VSA4>
7.5963712

>  <SlogP_VSA5>
33.326015

>  <SlogP_VSA6>
0

>  <SlogP_VSA7>
70.572739

>  <SlogP_VSA8>
18.868406

>  <SlogP_VSA9>
36.082764

>  <SMR>
7.7186399

>  <SMR_VSA0>
23.862217

>  <SMR_VSA1>
95.444725

>  <SMR_VSA2>
22.299025

>  <SMR_VSA3>
36.389069

>  <SMR_VSA4>
20.644976

>  <SMR_VSA5>
89.441139

>  <SMR_VSA6>
10.772279

>  <SMR_VSA7>
33.326015

>  <TPSA>
113.43

>  <VAdjEq>
0.46827638

>  <VAdjMa>
5.4594316

>  <VDistEq>
3.4690022

>  <VDistMa>
8.4420233

>  <vdw_area>
287.86093

>  <vdw_vol>
363.44189

>  <vsa_acc>
67.893982

>  <vsa_acid>
0

>  <vsa_base>
0

>  <vsa_don>
18.842079

>  <vsa_hyd>
119.56755

>  <vsa_other>
66.947647

>  <vsa_pol>
86.736061

>  <Weight>
280.29099

>  <weinerPath>
1074

>  <weinerPol>
30

>  <zagreb>
102

$$$$