OC(=O)[C@@H](N)Cc1nc[nH]c1
  MOE2013           2D

 11 11  0  0  1  0  0  0  0  0999 V2000
    0.0000    0.0000    0.0000 O   0  0  0  0  0  0  0  0  0  0  0  0
   -1.2990    0.7510    0.0000 C   0  0  0  0  0  0  0  0  0  0  0  0
   -1.2970    2.2510    0.0000 O   0  0  0  0  0  0  0  0  0  0  0  0
   -2.5980    0.0020    0.0000 C   0  0  1  0  0  0  0  0  0  0  0  0
   -2.5990   -1.4980    0.0000 N   0  0  0  0  0  0  0  0  0  0  0  0
   -3.8970    0.7530    0.0000 C   0  0  0  0  0  0  0  0  0  0  0  0
   -5.1960    0.0040    0.0000 C   0  0  0  0  0  0  0  0  0  0  0  0
   -6.5660    0.6150    0.0000 N   0  0  0  0  0  0  0  0  0  0  0  0
   -7.5710   -0.4990    0.0000 C   0  0  0  0  0  0  0  0  0  0  0  0
   -6.8210   -1.7990    0.0000 N   0  0  0  0  0  0  0  0  0  0  0  0
   -5.3540   -1.4880    0.0000 C   0  0  0  0  0  0  0  0  0  0  0  0
  1  2  1  0  0  0  0
  2  3  2  0  0  0  0
  2  4  1  0  0  0  0
  4  5  1  1  0  0  0
  4  6  1  0  0  0  0
  6  7  1  0  0  0  0
  7  8  1  0  0  0  0
  7 11  2  0  0  0  0
  8  9  2  0  0  0  0
  9 10  1  0  0  0  0
 10 11  1  0  0  0  0
M  END
>  <Index>
614

>  <ID>
HT1205

>  <class>
0

>  <apol>
21.465137

>  <ast_fraglike>
0

>  <ast_fraglike_ext>
0

>  <ast_violation>
2

>  <ast_violation_ext>
2

>  <a_acc>
5

>  <a_acid>
0

>  <a_aro>
5

>  <a_base>
0

>  <a_count>
20

>  <a_don>
5

>  <a_donacc>
10

>  <a_heavy>
11

>  <a_hyd>
4

>  <a_IC>
35.644573

>  <a_ICM>
1.7822287

>  <a_nB>
0

>  <a_nBr>
0

>  <a_nC>
6

>  <a_nCl>
0

>  <a_nF>
0

>  <a_nH>
9

>  <a_nI>
0

>  <a_nN>
3

>  <a_nO>
2

>  <a_nP>
0

>  <a_nS>
0

>  <balabanJ>
2.2013693

>  <BCUT_PEOE_0>
-2.453903

>  <BCUT_PEOE_1>
-0.5579288

>  <BCUT_PEOE_2>
0.64016289

>  <BCUT_PEOE_3>
2.5117106

>  <BCUT_SLOGP_0>
-2.7317352

>  <BCUT_SLOGP_1>
-0.51916498

>  <BCUT_SLOGP_2>
0.65583742

>  <BCUT_SLOGP_3>
2.372596

>  <BCUT_SMR_0>
-2.2193444

>  <BCUT_SMR_1>
-0.40940657

>  <BCUT_SMR_2>
0.77539057

>  <BCUT_SMR_3>
2.7399685

>  <bpol>
12.116863

>  <b_1rotN>
3

>  <b_1rotR>
0.27272728

>  <b_ar>
5

>  <b_count>
20

>  <b_double>
1

>  <b_heavy>
11

>  <b_max1len>
4

>  <b_rotN>
3

>  <b_rotR>
0.27272728

>  <b_single>
14

>  <b_triple>
0

>  <chi0>
8.2675848

>  <chi0v>
5.8191833

>  <chi0v_C>
3.4391575

>  <chi0_C>
3.8533711

>  <chi1>
5.1983771

>  <chi1v>
3.1593721

>  <chi1v_C>
1.339152

>  <chi1_C>
1.5580782

>  <chiral>
1

>  <chiral_u>
0

>  <density>
0.81325674

>  <diameter>
6

>  <FCharge>
0

>  <GCUT_PEOE_0>
-0.84789896

>  <GCUT_PEOE_1>
-0.3930265

>  <GCUT_PEOE_2>
0.13300875

>  <GCUT_PEOE_3>
2.1561022

>  <GCUT_SLOGP_0>
-1.363487

>  <GCUT_SLOGP_1>
-0.39539501

>  <GCUT_SLOGP_2>
0.15558165

>  <GCUT_SLOGP_3>
2.0946126

>  <GCUT_SMR_0>
-0.49884602

>  <GCUT_SMR_1>
-0.21939887

>  <GCUT_SMR_2>
0.23537762

>  <GCUT_SMR_3>
2.3942151

>  <Kier1>
9.090909

>  <Kier2>
4.1326532

>  <Kier3>
2.8444445

>  <KierA1>
6.6297121

>  <KierA2>
2.9070535

>  <KierA3>
1.9367585

>  <KierFlex>
1.7520844

>  <lip_acc>
5

>  <lip_don>
4

>  <lip_druglike>
1

>  <lip_violation>
0

>  <logP(o/w)>
-3.82673

>  <logS>
0.13575

>  <mr>
3.9187648

>  <mutagenic>
0

>  <nmol>
1

>  <opr_brigid>
5

>  <opr_leadlike>
1

>  <opr_nring>
1

>  <opr_nrot>
3

>  <opr_violation>
0

>  <PC+>
0

>  <PC->
0

>  <PEOE_PC+>
1.5039337

>  <PEOE_PC->
-1.5039337

>  <PEOE_RPC+>
0.1841258

>  <PEOE_RPC->
0.23310287

>  <PEOE_VSA+0>
33.978001

>  <PEOE_VSA+1>
39.613213

>  <PEOE_VSA+2>
21.503412

>  <PEOE_VSA+3>
8.6190128

>  <PEOE_VSA+4>
10.324173

>  <PEOE_VSA+5>
14.708499

>  <PEOE_VSA+6>
0

>  <PEOE_VSA-0>
0

>  <PEOE_VSA-1>
0

>  <PEOE_VSA-2>
0

>  <PEOE_VSA-3>
0

>  <PEOE_VSA-4>
5.6825762

>  <PEOE_VSA-5>
13.566921

>  <PEOE_VSA-6>
14.555551

>  <PEOE_VSA_FHYD>
0.63803613

>  <PEOE_VSA_FNEG>
0.20796534

>  <PEOE_VSA_FPNEG>
0.20796534

>  <PEOE_VSA_FPOL>
0.36196387

>  <PEOE_VSA_FPOS>
0.79203469

>  <PEOE_VSA_FPPOS>
0.15399854

>  <PEOE_VSA_HYD>
103.71364

>  <PEOE_VSA_NEG>
33.805046

>  <PEOE_VSA_PNEG>
33.805046

>  <PEOE_VSA_POL>
58.837719

>  <PEOE_VSA_POS>
128.74631

>  <PEOE_VSA_PPOS>
25.032671

>  <petitjean>
0.5

>  <petitjeanSC>
1

>  <Q_PC+>
0

>  <Q_PC->
0

>  <Q_RPC+>
0

>  <Q_RPC->
0

>  <Q_VSA_FHYD>
1

>  <Q_VSA_FNEG>
0

>  <Q_VSA_FPNEG>
0

>  <Q_VSA_FPOL>
0

>  <Q_VSA_FPOS>
1

>  <Q_VSA_FPPOS>
0

>  <Q_VSA_HYD>
162.55136

>  <Q_VSA_NEG>
0

>  <Q_VSA_PNEG>
0

>  <Q_VSA_POL>
0

>  <Q_VSA_POS>
162.55136

>  <Q_VSA_PPOS>
0

>  <radius>
3

>  <reactive>
0

>  <rings>
1

>  <RPC+>
0

>  <RPC->
0

>  <rsynth>
1

>  <SlogP>
-0.63593

>  <SlogP_VSA0>
32.897186

>  <SlogP_VSA1>
24.530994

>  <SlogP_VSA2>
44.629715

>  <SlogP_VSA3>
25.385227

>  <SlogP_VSA4>
2.7567475

>  <SlogP_VSA5>
18.868406

>  <SlogP_VSA6>
0

>  <SlogP_VSA7>
33.999886

>  <SlogP_VSA8>
0

>  <SlogP_VSA9>
0

>  <SMR>
3.7902901

>  <SMR_VSA0>
23.862217

>  <SMR_VSA1>
16.78553

>  <SMR_VSA2>
42.170757

>  <SMR_VSA3>
6.7387161

>  <SMR_VSA4>
32.897186

>  <SMR_VSA5>
52.868294

>  <SMR_VSA6>
7.7454643

>  <SMR_VSA7>
0

>  <TPSA>
92

>  <VAdjEq>
0.68403846

>  <VAdjMa>
4.4594316

>  <VDistEq>
2.4981596

>  <VDistMa>
6.5816851

>  <vdw_area>
162.55136

>  <vdw_vol>
190.78477

>  <vsa_acc>
0

>  <vsa_acid>
0

>  <vsa_base>
0

>  <vsa_don>
0

>  <vsa_hyd>
49.507103

>  <vsa_other>
39.499016

>  <vsa_pol>
56.241482

>  <Weight>
155.157

>  <weinerPath>
165

>  <weinerPol>
10

>  <zagreb>
50

$$$$