Clc1ccc(cc1)C(N1CCN(CC1)Cc1cc(ccc1)C)c1ccccc1
  MOE2013           2D

 28 31  0  0  1  0  0  0  0  0999 V2000
    0.0000    0.0000    0.0000 Cl  0  0  0  0  0  0  0  0  0  0  0  0
    1.2940    0.7580    0.0000 C   0  0  0  0  0  0  0  0  0  0  0  0
    2.5980    0.0170    0.0000 C   0  0  0  0  0  0  0  0  0  0  0  0
    3.8920    0.7750    0.0000 C   0  0  0  0  0  0  0  0  0  0  0  0
    3.8830    2.2750    0.0000 C   0  0  0  0  0  0  0  0  0  0  0  0
    2.5790    3.0170    0.0000 C   0  0  0  0  0  0  0  0  0  0  0  0
    1.2850    2.2580    0.0000 C   0  0  0  0  0  0  0  0  0  0  0  0
    5.1770    3.0330    0.0000 C   0  0  3  0  0  0  0  0  0  0  0  0
    6.4810    2.2910    0.0000 N   0  0  0  0  0  0  0  0  0  0  0  0
    6.4900    0.7910    0.0000 C   0  0  0  0  0  0  0  0  0  0  0  0
    7.7940    0.0500    0.0000 C   0  0  0  0  0  0  0  0  0  0  0  0
    9.0880    0.8080    0.0000 N   0  0  0  0  0  0  0  0  0  0  0  0
    9.0790    2.3080    0.0000 C   0  0  0  0  0  0  0  0  0  0  0  0
    7.7750    3.0500    0.0000 C   0  0  0  0  0  0  0  0  0  0  0  0
   10.3920    0.0660    0.0000 C   0  0  0  0  0  0  0  0  0  0  0  0
   11.6860    0.8250    0.0000 C   0  0  0  0  0  0  0  0  0  0  0  0
   12.9900    0.0830    0.0000 C   0  0  0  0  0  0  0  0  0  0  0  0
   14.2840    0.8410    0.0000 C   0  0  0  0  0  0  0  0  0  0  0  0
   14.2750    2.3410    0.0000 C   0  0  0  0  0  0  0  0  0  0  0  0
   12.9710    3.0830    0.0000 C   0  0  0  0  0  0  0  0  0  0  0  0
   11.6770    2.3250    0.0000 C   0  0  0  0  0  0  0  0  0  0  0  0
   15.5880    0.1000    0.0000 C   0  0  0  0  0  0  0  0  0  0  0  0
    5.1670    4.5330    0.0000 C   0  0  0  0  0  0  0  0  0  0  0  0
    6.4620    5.2910    0.0000 C   0  0  0  0  0  0  0  0  0  0  0  0
    6.4520    6.7910    0.0000 C   0  0  0  0  0  0  0  0  0  0  0  0
    5.1480    7.5330    0.0000 C   0  0  0  0  0  0  0  0  0  0  0  0
    3.8540    6.7750    0.0000 C   0  0  0  0  0  0  0  0  0  0  0  0
    3.8640    5.2750    0.0000 C   0  0  0  0  0  0  0  0  0  0  0  0
  1  2  1  0  0  0  0
  2  3  1  0  0  0  0
  2  7  2  0  0  0  0
  3  4  2  0  0  0  0
  4  5  1  0  0  0  0
  5  6  2  0  0  0  0
  5  8  1  0  0  0  0
  6  7  1  0  0  0  0
  8  9  1  0  0  0  0
  8 23  1  0  0  0  0
  9 10  1  0  0  0  0
  9 14  1  0  0  0  0
 10 11  1  0  0  0  0
 11 12  1  0  0  0  0
 12 13  1  0  0  0  0
 12 15  1  0  0  0  0
 13 14  1  0  0  0  0
 15 16  1  0  0  0  0
 16 17  1  0  0  0  0
 16 21  2  0  0  0  0
 17 18  2  0  0  0  0
 18 19  1  0  0  0  0
 18 22  1  0  0  0  0
 19 20  2  0  0  0  0
 20 21  1  0  0  0  0
 23 24  1  0  0  0  0
 23 28  2  0  0  0  0
 24 25  2  0  0  0  0
 25 26  1  0  0  0  0
 26 27  2  0  0  0  0
 27 28  1  0  0  0  0
M  END
>  <Index>
657

>  <ID>
HT1282

>  <class>
0

>  <apol>
66.383408

>  <ast_fraglike>
0

>  <ast_fraglike_ext>
0

>  <ast_violation>
2

>  <ast_violation_ext>
3

>  <a_acc>
2

>  <a_acid>
0

>  <a_aro>
18

>  <a_base>
0

>  <a_count>
55

>  <a_don>
0

>  <a_donacc>
2

>  <a_heavy>
28

>  <a_hyd>
26

>  <a_IC>
71.496414

>  <a_ICM>
1.2999349

>  <a_nB>
0

>  <a_nBr>
0

>  <a_nC>
25

>  <a_nCl>
1

>  <a_nF>
0

>  <a_nH>
27

>  <a_nI>
0

>  <a_nN>
2

>  <a_nO>
0

>  <a_nP>
0

>  <a_nS>
0

>  <balabanJ>
1.3229209

>  <BCUT_PEOE_0>
-2.7783566

>  <BCUT_PEOE_1>
-0.58839673

>  <BCUT_PEOE_2>
0.64338541

>  <BCUT_PEOE_3>
2.67698

>  <BCUT_SLOGP_0>
-2.8596408

>  <BCUT_SLOGP_1>
-0.48221329

>  <BCUT_SLOGP_2>
0.80591482

>  <BCUT_SLOGP_3>
2.6472127

>  <BCUT_SMR_0>
-2.4908946

>  <BCUT_SMR_1>
-0.44837388

>  <BCUT_SMR_2>
0.85431087

>  <BCUT_SMR_3>
2.9576058

>  <bpol>
33.896587

>  <b_1rotN>
5

>  <b_1rotR>
0.16129032

>  <b_ar>
18

>  <b_count>
58

>  <b_double>
0

>  <b_heavy>
31

>  <b_max1len>
2

>  <b_rotN>
5

>  <b_rotR>
0.16129032

>  <b_single>
40

>  <b_triple>
0

>  <chi0>
19.346724

>  <chi0v>
17.146759

>  <chi0v_C>
15.118438

>  <chi0_C>
17.192024

>  <chi1>
13.686673

>  <chi1v>
10.390606

>  <chi1v_C>
7.9843216

>  <chi1_C>
10.734748

>  <chiral>
1

>  <chiral_u>
1

>  <density>
0.68868512

>  <diameter>
14

>  <FCharge>
0

>  <GCUT_PEOE_0>
-0.85039008

>  <GCUT_PEOE_1>
-0.37707597

>  <GCUT_PEOE_2>
0.06948863

>  <GCUT_PEOE_3>
2.8479004

>  <GCUT_SLOGP_0>
-0.94844806

>  <GCUT_SLOGP_1>
-0.26386139

>  <GCUT_SLOGP_2>
0.16445385

>  <GCUT_SLOGP_3>
2.9227519

>  <GCUT_SMR_0>
-0.51490462

>  <GCUT_SMR_1>
-0.2000484

>  <GCUT_SMR_2>
0.19305076

>  <GCUT_SMR_3>
3.120548

>  <Kier1>
21.240376

>  <Kier2>
10.346939

>  <Kier3>
5.7956104

>  <KierA1>
17.14266

>  <KierA2>
8.2804928

>  <KierA3>
4.610301

>  <KierFlex>
5.0696306

>  <lip_acc>
2

>  <lip_don>
0

>  <lip_druglike>
1

>  <lip_violation>
1

>  <logP(o/w)>
6.1040001

>  <logS>
-6.04707

>  <mr>
11.857366

>  <mutagenic>
0

>  <nmol>
1

>  <opr_brigid>
24

>  <opr_leadlike>
1

>  <opr_nring>
4

>  <opr_nrot>
7

>  <opr_violation>
1

>  <PC+>
0

>  <PC->
0

>  <PEOE_PC+>
1.5698488

>  <PEOE_PC->
-1.5698488

>  <PEOE_RPC+>
0.040268674

>  <PEOE_RPC->
0.18838866

>  <PEOE_VSA+0>
125.93139

>  <PEOE_VSA+1>
62.861366

>  <PEOE_VSA+2>
0

>  <PEOE_VSA+3>
0

>  <PEOE_VSA+4>
0

>  <PEOE_VSA+5>
0

>  <PEOE_VSA+6>
0

>  <PEOE_VSA-0>
49.883102

>  <PEOE_VSA-1>
166.59444

>  <PEOE_VSA-2>
0

>  <PEOE_VSA-3>
0

>  <PEOE_VSA-4>
0

>  <PEOE_VSA-5>
0

>  <PEOE_VSA-6>
0

>  <PEOE_VSA_FHYD>
1

>  <PEOE_VSA_FNEG>
0.53415596

>  <PEOE_VSA_FPNEG>
0

>  <PEOE_VSA_FPOL>
0

>  <PEOE_VSA_FPOS>
0.46584406

>  <PEOE_VSA_FPPOS>
0

>  <PEOE_VSA_HYD>
405.27029

>  <PEOE_VSA_NEG>
216.47754

>  <PEOE_VSA_PNEG>
0

>  <PEOE_VSA_POL>
0

>  <PEOE_VSA_POS>
188.79276

>  <PEOE_VSA_PPOS>
0

>  <petitjean>
0.5

>  <petitjeanSC>
1

>  <Q_PC+>
0

>  <Q_PC->
0

>  <Q_RPC+>
0

>  <Q_RPC->
0

>  <Q_VSA_FHYD>
1

>  <Q_VSA_FNEG>
0

>  <Q_VSA_FPNEG>
0

>  <Q_VSA_FPOL>
0

>  <Q_VSA_FPOS>
1

>  <Q_VSA_FPPOS>
0

>  <Q_VSA_HYD>
405.27029

>  <Q_VSA_NEG>
0

>  <Q_VSA_PNEG>
0

>  <Q_VSA_POL>
0

>  <Q_VSA_POS>
405.27029

>  <Q_VSA_PPOS>
0

>  <radius>
7

>  <reactive>
0

>  <rings>
4

>  <RPC+>
0

>  <RPC->
0

>  <rsynth>
1

>  <SlogP>
5.91752

>  <SlogP_VSA0>
0

>  <SlogP_VSA1>
6.2486277

>  <SlogP_VSA2>
0

>  <SlogP_VSA3>
73.758316

>  <SlogP_VSA4>
12.7423

>  <SlogP_VSA5>
0

>  <SlogP_VSA6>
3.5006065

>  <SlogP_VSA7>
229.36139

>  <SlogP_VSA8>
3.9819686

>  <SlogP_VSA9>
90.914238

>  <SMR>
11.8082

>  <SMR_VSA0>
0

>  <SMR_VSA1>
6.2486277

>  <SMR_VSA2>
0

>  <SMR_VSA3>
20.224874

>  <SMR_VSA4>
0

>  <SMR_VSA5>
247.80098

>  <SMR_VSA6>
73.758316

>  <SMR_VSA7>
72.474655

>  <TPSA>
6.48

>  <VAdjEq>
0.39893496

>  <VAdjMa>
5.9541965

>  <VDistEq>
3.6010747

>  <VDistMa>
9.3147326

>  <vdw_area>
405.27029

>  <vdw_vol>
567.68756

>  <vsa_acc>
0

>  <vsa_acid>
0

>  <vsa_base>
0

>  <vsa_don>
0

>  <vsa_hyd>
386.05182

>  <vsa_other>
0

>  <vsa_pol>
0

>  <Weight>
390.95798

>  <weinerPath>
2177

>  <weinerPol>
42

>  <zagreb>
146

$$$$