OC(=O)[C@H](O)C
  MOE2013           2D

  6  5  0  0  1  0  0  0  0  0999 V2000
    0.0000    0.0000    0.0000 O   0  0  0  0  0  0  0  0  0  0  0  0
   -0.7500   -1.2990    0.0000 C   0  0  0  0  0  0  0  0  0  0  0  0
    0.0000   -2.5980    0.0000 O   0  0  0  0  0  0  0  0  0  0  0  0
   -2.2500   -1.2990    0.0000 C   0  0  2  0  0  0  0  0  0  0  0  0
   -3.0000    0.0000    0.0000 O   0  0  0  0  0  0  0  0  0  0  0  0
   -3.0000   -2.5980    0.0000 C   0  0  0  0  0  0  0  0  0  0  0  0
  1  2  1  0  0  0  0
  2  3  2  0  0  0  0
  2  4  1  0  0  0  0
  4  5  1  1  0  0  0
  4  6  1  0  0  0  0
M  END
>  <Index>
70

>  <ID>
HT0144

>  <class>
0

>  <apol>
11.686758

>  <ast_fraglike>
1

>  <ast_fraglike_ext>
1

>  <ast_violation>
0

>  <ast_violation_ext>
0

>  <a_acc>
3

>  <a_acid>
0

>  <a_aro>
0

>  <a_base>
0

>  <a_count>
12

>  <a_don>
3

>  <a_donacc>
6

>  <a_heavy>
6

>  <a_hyd>
2

>  <a_IC>
18

>  <a_ICM>
1.5

>  <a_nB>
0

>  <a_nBr>
0

>  <a_nC>
3

>  <a_nCl>
0

>  <a_nF>
0

>  <a_nH>
6

>  <a_nI>
0

>  <a_nN>
0

>  <a_nO>
3

>  <a_nP>
0

>  <a_nS>
0

>  <balabanJ>
3.077395

>  <BCUT_PEOE_0>
-2.3691354

>  <BCUT_PEOE_1>
-0.51089191

>  <BCUT_PEOE_2>
0.519238

>  <BCUT_PEOE_3>
2.4422112

>  <BCUT_SLOGP_0>
-2.5002918

>  <BCUT_SLOGP_1>
-0.54469264

>  <BCUT_SLOGP_2>
0.42073262

>  <BCUT_SLOGP_3>
2.3526855

>  <BCUT_SMR_0>
-2.164403

>  <BCUT_SMR_1>
-0.35444376

>  <BCUT_SMR_2>
0.61776918

>  <BCUT_SMR_3>
2.6379344

>  <bpol>
7.517242

>  <b_1rotN>
1

>  <b_1rotR>
0.2

>  <b_ar>
0

>  <b_count>
11

>  <b_double>
1

>  <b_heavy>
5

>  <b_max1len>
4

>  <b_rotN>
1

>  <b_rotR>
0.2

>  <b_single>
10

>  <b_triple>
0

>  <chi0>
5.1547008

>  <chi0v>
3.3800259

>  <chi0v_C>
2.0773504

>  <chi0_C>
2.1547005

>  <chi1>
2.6427345

>  <chi1v>
1.5519552

>  <chi1v_C>
0.86602539

>  <chi1_C>
0.91068363

>  <chiral>
1

>  <chiral_u>
0

>  <density>
0.85457432

>  <diameter>
3

>  <FCharge>
0

>  <GCUT_PEOE_0>
-0.76676172

>  <GCUT_PEOE_1>
-0.39684239

>  <GCUT_PEOE_2>
0.11865595

>  <GCUT_PEOE_3>
1.8119678

>  <GCUT_SLOGP_0>
-0.93445462

>  <GCUT_SLOGP_1>
-0.44477424

>  <GCUT_SLOGP_2>
0.0066640084

>  <GCUT_SLOGP_3>
1.7237595

>  <GCUT_SMR_0>
-0.51110107

>  <GCUT_SMR_1>
-0.23311201

>  <GCUT_SMR_2>
0.1839066

>  <GCUT_SMR_3>
1.9994792

>  <Kier1>
6

>  <Kier2>
2.2222223

>  <Kier3>
3

>  <KierA1>
5.03652

>  <KierA2>
1.7873056

>  <KierA3>
2.3101876

>  <KierFlex>
1.5003

>  <lip_acc>
3

>  <lip_don>
2

>  <lip_druglike>
1

>  <lip_violation>
0

>  <logP(o/w)>
-0.43700001

>  <logS>
0.28895

>  <mr>
1.9778961

>  <mutagenic>
0

>  <nmol>
1

>  <opr_brigid>
0

>  <opr_leadlike>
1

>  <opr_nring>
0

>  <opr_nrot>
1

>  <opr_violation>
0

>  <PC+>
0

>  <PC->
0

>  <PEOE_PC+>
1.0032674

>  <PEOE_PC->
-1.0032674

>  <PEOE_RPC+>
0.28720057

>  <PEOE_RPC->
0.38080823

>  <PEOE_VSA+0>
12.796158

>  <PEOE_VSA+1>
4.2653861

>  <PEOE_VSA+2>
4.9049287

>  <PEOE_VSA+3>
0

>  <PEOE_VSA+4>
20.648346

>  <PEOE_VSA+5>
14.708499

>  <PEOE_VSA+6>
0

>  <PEOE_VSA-0>
18.747677

>  <PEOE_VSA-1>
0

>  <PEOE_VSA-2>
0

>  <PEOE_VSA-3>
0

>  <PEOE_VSA-4>
0

>  <PEOE_VSA-5>
13.566921

>  <PEOE_VSA-6>
15.535081

>  <PEOE_VSA_FHYD>
0.38711601

>  <PEOE_VSA_FNEG>
0.45496163

>  <PEOE_VSA_FPNEG>
0.27670601

>  <PEOE_VSA_FPOL>
0.61288399

>  <PEOE_VSA_FPOS>
0.54503834

>  <PEOE_VSA_FPPOS>
0.33617797

>  <PEOE_VSA_HYD>
40.714149

>  <PEOE_VSA_NEG>
47.849678

>  <PEOE_VSA_PNEG>
29.102001

>  <PEOE_VSA_POL>
64.458847

>  <PEOE_VSA_POS>
57.323318

>  <PEOE_VSA_PPOS>
35.356846

>  <petitjean>
0.33333334

>  <petitjeanSC>
0.5

>  <Q_PC+>
0

>  <Q_PC->
0

>  <Q_RPC+>
0

>  <Q_RPC->
0

>  <Q_VSA_FHYD>
1

>  <Q_VSA_FNEG>
0

>  <Q_VSA_FPNEG>
0

>  <Q_VSA_FPOL>
0

>  <Q_VSA_FPOS>
1

>  <Q_VSA_FPPOS>
0

>  <Q_VSA_HYD>
105.173

>  <Q_VSA_NEG>
0

>  <Q_VSA_PNEG>
0

>  <Q_VSA_POL>
0

>  <Q_VSA_POS>
105.173

>  <Q_VSA_PPOS>
0

>  <radius>
2

>  <reactive>
0

>  <rings>
0

>  <RPC+>
0

>  <RPC->
0

>  <rsynth>
1

>  <SlogP>
-0.54820001

>  <SlogP_VSA0>
25.385227

>  <SlogP_VSA1>
7.7454643

>  <SlogP_VSA2>
30.330866

>  <SlogP_VSA3>
25.385227

>  <SlogP_VSA4>
0

>  <SlogP_VSA5>
0

>  <SlogP_VSA6>
0

>  <SlogP_VSA7>
0

>  <SlogP_VSA8>
0

>  <SlogP_VSA9>
33.326015

>  <SMR>
1.9316601

>  <SMR_VSA0>
23.862217

>  <SMR_VSA1>
25.385227

>  <SMR_VSA2>
25.385227

>  <SMR_VSA3>
6.4686494

>  <SMR_VSA4>
0

>  <SMR_VSA5>
0

>  <SMR_VSA6>
7.7454643

>  <SMR_VSA7>
33.326015

>  <TPSA>
57.529999

>  <VAdjEq>
0.85240519

>  <VAdjMa>
3.321928

>  <VDistEq>
1.5655962

>  <VDistMa>
4.7883415

>  <vdw_area>
105.173

>  <vdw_vol>
105.40686

>  <vsa_acc>
0

>  <vsa_acid>
0

>  <vsa_base>
0

>  <vsa_don>
0

>  <vsa_hyd>
37.86697

>  <vsa_other>
14.708499

>  <vsa_pol>
40.700764

>  <Weight>
90.077995

>  <weinerPath>
29

>  <weinerPol>
4

>  <zagreb>
22

$$$$