OC(=O)C(N)CO
  MOE2013           2D

  7  6  0  0  1  0  0  0  0  0999 V2000
    0.0000    0.0000    0.0000 O   0  0  0  0  0  0  0  0  0  0  0  0
    0.7420    1.3040    0.0000 C   0  0  0  0  0  0  0  0  0  0  0  0
   -0.0160    2.5980    0.0000 O   0  0  0  0  0  0  0  0  0  0  0  0
    2.2420    1.3130    0.0000 C   0  0  3  0  0  0  0  0  0  0  0  0
    2.9840    2.6170    0.0000 N   0  0  0  0  0  0  0  0  0  0  0  0
    3.0000    0.0190    0.0000 C   0  0  0  0  0  0  0  0  0  0  0  0
    4.5000    0.0280    0.0000 O   0  0  0  0  0  0  0  0  0  0  0  0
  1  2  1  0  0  0  0
  2  3  2  0  0  0  0
  2  4  1  0  0  0  0
  4  5  1  0  0  0  0
  4  6  1  0  0  0  0
  6  7  1  0  0  0  0
M  END
>  <Index>
636

>  <ID>
HT1250

>  <class>
0

>  <apol>
13.453551

>  <ast_fraglike>
0

>  <ast_fraglike_ext>
0

>  <ast_violation>
2

>  <ast_violation_ext>
2

>  <a_acc>
4

>  <a_acid>
0

>  <a_aro>
0

>  <a_base>
0

>  <a_count>
14

>  <a_don>
4

>  <a_donacc>
8

>  <a_heavy>
7

>  <a_hyd>
2

>  <a_IC>
24.14171

>  <a_ICM>
1.7244078

>  <a_nB>
0

>  <a_nBr>
0

>  <a_nC>
3

>  <a_nCl>
0

>  <a_nF>
0

>  <a_nH>
7

>  <a_nI>
0

>  <a_nN>
1

>  <a_nO>
3

>  <a_nP>
0

>  <a_nS>
0

>  <balabanJ>
3.1946843

>  <BCUT_PEOE_0>
-2.444335

>  <BCUT_PEOE_1>
-0.59380513

>  <BCUT_PEOE_2>
0.63056672

>  <BCUT_PEOE_3>
2.4922025

>  <BCUT_SLOGP_0>
-2.7603211

>  <BCUT_SLOGP_1>
-0.63292497

>  <BCUT_SLOGP_2>
0.50613242

>  <BCUT_SLOGP_3>
2.2373273

>  <BCUT_SMR_0>
-2.2154963

>  <BCUT_SMR_1>
-0.4531959

>  <BCUT_SMR_2>
0.7263363

>  <BCUT_SMR_3>
2.7045262

>  <bpol>
7.950449

>  <b_1rotN>
2

>  <b_1rotR>
0.33333334

>  <b_ar>
0

>  <b_count>
13

>  <b_double>
1

>  <b_heavy>
6

>  <b_max1len>
5

>  <b_rotN>
2

>  <b_rotR>
0.33333334

>  <b_single>
12

>  <b_triple>
0

>  <chi0>
5.8618073

>  <chi0v>
3.6644828

>  <chi0v_C>
1.7844571

>  <chi0_C>
1.8618073

>  <chi1>
3.1807392

>  <chi1v>
1.7742155

>  <chi1v_C>
0.69692343

>  <chi1_C>
0.74158162

>  <chiral>
1

>  <chiral_u>
1

>  <density>
0.87520456

>  <diameter>
4

>  <FCharge>
0

>  <GCUT_PEOE_0>
-0.80640036

>  <GCUT_PEOE_1>
-0.44177109

>  <GCUT_PEOE_2>
0.15550764

>  <GCUT_PEOE_3>
1.9178715

>  <GCUT_SLOGP_0>
-1.3634423

>  <GCUT_SLOGP_1>
-0.49759352

>  <GCUT_SLOGP_2>
0.044077564

>  <GCUT_SLOGP_3>
1.7221923

>  <GCUT_SMR_0>
-0.50811511

>  <GCUT_SMR_1>
-0.25199714

>  <GCUT_SMR_2>
0.21986201

>  <GCUT_SMR_3>
2.1183131

>  <Kier1>
7

>  <Kier2>
3.0612245

>  <Kier3>
2.6666667

>  <KierA1>
6.0467501

>  <KierA2>
2.569653

>  <KierA3>
2.1675832

>  <KierFlex>
2.2197213

>  <lip_acc>
4

>  <lip_don>
4

>  <lip_druglike>
1

>  <lip_violation>
0

>  <logP(o/w)>
-4.09273

>  <logS>
0.92479998

>  <mr>
2.2940032

>  <mutagenic>
0

>  <nmol>
1

>  <opr_brigid>
0

>  <opr_leadlike>
1

>  <opr_nring>
0

>  <opr_nrot>
2

>  <opr_violation>
0

>  <PC+>
0

>  <PC->
0

>  <PEOE_PC+>
1.3038566

>  <PEOE_PC->
-1.3038566

>  <PEOE_RPC+>
0.21382697

>  <PEOE_RPC->
0.30138403

>  <PEOE_VSA+0>
0

>  <PEOE_VSA+1>
27.747452

>  <PEOE_VSA+2>
20.383986

>  <PEOE_VSA+3>
0

>  <PEOE_VSA+4>
20.648346

>  <PEOE_VSA+5>
14.708499

>  <PEOE_VSA+6>
0

>  <PEOE_VSA-0>
0

>  <PEOE_VSA-1>
0

>  <PEOE_VSA-2>
0

>  <PEOE_VSA-3>
0

>  <PEOE_VSA-4>
0

>  <PEOE_VSA-5>
13.566921

>  <PEOE_VSA-6>
22.186199

>  <PEOE_VSA_FHYD>
0.40364704

>  <PEOE_VSA_FNEG>
0.29983816

>  <PEOE_VSA_FPNEG>
0.29983816

>  <PEOE_VSA_FPOL>
0.59635299

>  <PEOE_VSA_FPOS>
0.70016187

>  <PEOE_VSA_FPPOS>
0.29651484

>  <PEOE_VSA_HYD>
48.131439

>  <PEOE_VSA_NEG>
35.75312

>  <PEOE_VSA_PNEG>
35.75312

>  <PEOE_VSA_POL>
71.109962

>  <PEOE_VSA_POS>
83.488281

>  <PEOE_VSA_PPOS>
35.356846

>  <petitjean>
0.5

>  <petitjeanSC>
1

>  <Q_PC+>
0

>  <Q_PC->
0

>  <Q_RPC+>
0

>  <Q_RPC->
0

>  <Q_VSA_FHYD>
1

>  <Q_VSA_FNEG>
0

>  <Q_VSA_FPNEG>
0

>  <Q_VSA_FPOL>
0

>  <Q_VSA_FPOS>
1

>  <Q_VSA_FPPOS>
0

>  <Q_VSA_HYD>
119.2414

>  <Q_VSA_NEG>
0

>  <Q_VSA_PNEG>
0

>  <Q_VSA_POL>
0

>  <Q_VSA_POS>
119.2414

>  <Q_VSA_PPOS>
0

>  <radius>
2

>  <reactive>
0

>  <rings>
0

>  <RPC+>
0

>  <RPC->
0

>  <rsynth>
1

>  <SlogP>
-1.6094

>  <SlogP_VSA0>
58.282413

>  <SlogP_VSA1>
7.7454643

>  <SlogP_VSA2>
27.844185

>  <SlogP_VSA3>
46.311485

>  <SlogP_VSA4>
0

>  <SlogP_VSA5>
0

>  <SlogP_VSA6>
0

>  <SlogP_VSA7>
0

>  <SlogP_VSA8>
0

>  <SlogP_VSA9>
0

>  <SMR>
2.2697001

>  <SMR_VSA0>
23.862217

>  <SMR_VSA1>
25.385227

>  <SMR_VSA2>
25.385227

>  <SMR_VSA3>
3.9819686

>  <SMR_VSA4>
32.897186

>  <SMR_VSA5>
0

>  <SMR_VSA6>
28.671722

>  <SMR_VSA7>
0

>  <TPSA>
83.550003

>  <VAdjEq>
0.80309099

>  <VAdjMa>
3.5849626

>  <VDistEq>
1.8841729

>  <VDistMa>
5.2511854

>  <vdw_area>
119.2414

>  <vdw_vol>
120.07821

>  <vsa_acc>
0

>  <vsa_acid>
0

>  <vsa_base>
0

>  <vsa_don>
0

>  <vsa_hyd>
28.758026

>  <vsa_other>
14.708499

>  <vsa_pol>
58.443253

>  <Weight>
105.09299

>  <weinerPath>
46

>  <weinerPol>
6

>  <zagreb>
26

$$$$