O(C(=O)CCC(=O)CN)C
  MOE2013           2D

 10  9  0  0  0  0  0  0  0  0999 V2000
    0.0000    0.0000    0.0000 O   0  0  0  0  0  0  0  0  0  0  0  0
    1.2940   -0.7580    0.0000 C   0  0  0  0  0  0  0  0  0  0  0  0
    1.2840   -2.2580    0.0000 O   0  0  0  0  0  0  0  0  0  0  0  0
    2.5980   -0.0170    0.0000 C   0  0  0  0  0  0  0  0  0  0  0  0
    3.8920   -0.7750    0.0000 C   0  0  0  0  0  0  0  0  0  0  0  0
    5.1960   -0.0340    0.0000 C   0  0  0  0  0  0  0  0  0  0  0  0
    5.2060    1.4660    0.0000 O   0  0  0  0  0  0  0  0  0  0  0  0
    6.4900   -0.7920    0.0000 C   0  0  0  0  0  0  0  0  0  0  0  0
    7.7940   -0.0510    0.0000 N   0  0  0  0  0  0  0  0  0  0  0  0
   -1.3040   -0.7410    0.0000 C   0  0  0  0  0  0  0  0  0  0  0  0
  1  2  1  0  0  0  0
  1 10  1  0  0  0  0
  2  3  2  0  0  0  0
  2  4  1  0  0  0  0
  4  5  1  0  0  0  0
  5  6  1  0  0  0  0
  6  7  2  0  0  0  0
  6  8  1  0  0  0  0
  8  9  1  0  0  0  0
M  END
>  <Index>
692

>  <ID>
HT1356

>  <class>
0

>  <apol>
21.400723

>  <ast_fraglike>
1

>  <ast_fraglike_ext>
0

>  <ast_violation>
0

>  <ast_violation_ext>
1

>  <a_acc>
3

>  <a_acid>
0

>  <a_aro>
0

>  <a_base>
0

>  <a_count>
21

>  <a_don>
1

>  <a_donacc>
4

>  <a_heavy>
10

>  <a_hyd>
4

>  <a_IC>
33.920254

>  <a_ICM>
1.6152502

>  <a_nB>
0

>  <a_nBr>
0

>  <a_nC>
6

>  <a_nCl>
0

>  <a_nF>
0

>  <a_nH>
11

>  <a_nI>
0

>  <a_nN>
1

>  <a_nO>
3

>  <a_nP>
0

>  <a_nS>
0

>  <balabanJ>
3.1979387

>  <BCUT_PEOE_0>
-2.4483705

>  <BCUT_PEOE_1>
-0.36264923

>  <BCUT_PEOE_2>
0.21911258

>  <BCUT_PEOE_3>
2.521692

>  <BCUT_SLOGP_0>
-2.6598039

>  <BCUT_SLOGP_1>
-0.24909724

>  <BCUT_SLOGP_2>
0.26986051

>  <BCUT_SLOGP_3>
2.494276

>  <BCUT_SMR_0>
-2.2193632

>  <BCUT_SMR_1>
-0.087459803

>  <BCUT_SMR_2>
0.28247955

>  <BCUT_SMR_3>
2.7508271

>  <bpol>
15.197277

>  <b_1rotN>
4

>  <b_1rotR>
0.44444445

>  <b_ar>
0

>  <b_count>
20

>  <b_double>
2

>  <b_heavy>
9

>  <b_max1len>
6

>  <b_rotN>
5

>  <b_rotR>
0.55555558

>  <b_single>
18

>  <b_triple>
0

>  <chi0>
7.9831276

>  <chi0v>
5.9234157

>  <chi0v_C>
4.1213202

>  <chi0_C>
4.276021

>  <chi1>
4.7019072

>  <chi1v>
2.9895291

>  <chi1v_C>
1.5606601

>  <chi1_C>
1.7247449

>  <chiral>
0

>  <chiral_u>
0

>  <density>
0.77145422

>  <diameter>
7

>  <FCharge>
0

>  <GCUT_PEOE_0>
-0.82093823

>  <GCUT_PEOE_1>
-0.43361744

>  <GCUT_PEOE_2>
-0.020842999

>  <GCUT_PEOE_3>
2.1124644

>  <GCUT_SLOGP_0>
-1.3633111

>  <GCUT_SLOGP_1>
-0.30849424

>  <GCUT_SLOGP_2>
0.016065942

>  <GCUT_SLOGP_3>
2.0604787

>  <GCUT_SMR_0>
-0.49852413

>  <GCUT_SMR_1>
-0.17069067

>  <GCUT_SMR_2>
0.034473192

>  <GCUT_SMR_3>
2.3294291

>  <Kier1>
10

>  <Kier2>
5.7600002

>  <Kier3>
5.5308642

>  <KierA1>
8.1884441

>  <KierA2>
4.5998402

>  <KierA3>
4.3267159

>  <KierFlex>
3.7665534

>  <lip_acc>
4

>  <lip_don>
2

>  <lip_druglike>
1

>  <lip_violation>
0

>  <logP(o/w)>
-1.126

>  <logS>
0.21473999

>  <mr>
3.7143297

>  <mutagenic>
0

>  <nmol>
1

>  <opr_brigid>
0

>  <opr_leadlike>
1

>  <opr_nring>
0

>  <opr_nrot>
4

>  <opr_violation>
0

>  <PC+>
0

>  <PC->
0

>  <PEOE_PC+>
1.203359

>  <PEOE_PC->
-1.203359

>  <PEOE_RPC+>
0.21798261

>  <PEOE_RPC->
0.26910165

>  <PEOE_VSA+0>
59.461826

>  <PEOE_VSA+1>
34.519257

>  <PEOE_VSA+2>
25.696545

>  <PEOE_VSA+3>
0

>  <PEOE_VSA+4>
0

>  <PEOE_VSA+5>
14.708499

>  <PEOE_VSA+6>
0

>  <PEOE_VSA-0>
0

>  <PEOE_VSA-1>
0

>  <PEOE_VSA-2>
0

>  <PEOE_VSA-3>
0

>  <PEOE_VSA-4>
0

>  <PEOE_VSA-5>
27.133842

>  <PEOE_VSA-6>
9.1548758

>  <PEOE_VSA_FHYD>
0.70120251

>  <PEOE_VSA_FNEG>
0.21261902

>  <PEOE_VSA_FPNEG>
0.21261902

>  <PEOE_VSA_FPOL>
0.29879749

>  <PEOE_VSA_FPOS>
0.78738099

>  <PEOE_VSA_FPPOS>
0.086178482

>  <PEOE_VSA_HYD>
119.67763

>  <PEOE_VSA_NEG>
36.288715

>  <PEOE_VSA_PNEG>
36.288715

>  <PEOE_VSA_POL>
50.997215

>  <PEOE_VSA_POS>
134.38612

>  <PEOE_VSA_PPOS>
14.708499

>  <petitjean>
0.42857143

>  <petitjeanSC>
0.75

>  <Q_PC+>
0

>  <Q_PC->
0

>  <Q_RPC+>
0

>  <Q_RPC->
0

>  <Q_VSA_FHYD>
1

>  <Q_VSA_FNEG>
0

>  <Q_VSA_FPNEG>
0

>  <Q_VSA_FPOL>
0

>  <Q_VSA_FPOS>
1

>  <Q_VSA_FPPOS>
0

>  <Q_VSA_HYD>
170.67485

>  <Q_VSA_NEG>
0

>  <Q_VSA_PNEG>
0

>  <Q_VSA_POL>
0

>  <Q_VSA_POS>
170.67485

>  <Q_VSA_PPOS>
0

>  <radius>
4

>  <reactive>
1

>  <rings>
0

>  <RPC+>
0

>  <RPC->
0

>  <rsynth>
1

>  <SlogP>
-0.53259999

>  <SlogP_VSA0>
32.897186

>  <SlogP_VSA1>
13.433075

>  <SlogP_VSA2>
58.724319

>  <SlogP_VSA3>
18.439579

>  <SlogP_VSA4>
0

>  <SlogP_VSA5>
35.383869

>  <SlogP_VSA6>
0

>  <SlogP_VSA7>
0

>  <SlogP_VSA8>
37.736813

>  <SlogP_VSA9>
0

>  <SMR>
3.5311401

>  <SMR_VSA0>
58.724319

>  <SMR_VSA1>
0

>  <SMR_VSA2>
0

>  <SMR_VSA3>
0

>  <SMR_VSA4>
32.897186

>  <SMR_VSA5>
37.736813

>  <SMR_VSA6>
31.872654

>  <SMR_VSA7>
35.383869

>  <TPSA>
69.389999

>  <VAdjEq>
0.68007702

>  <VAdjMa>
4.1699252

>  <VDistEq>
2.6185758

>  <VDistMa>
6.2803855

>  <vdw_area>
170.67485

>  <vdw_vol>
188.16153

>  <vsa_acc>
27.133842

>  <vsa_acid>
0

>  <vsa_base>
0

>  <vsa_don>
0

>  <vsa_hyd>
87.574928

>  <vsa_other>
25.670774

>  <vsa_pol>
44.876331

>  <Weight>
145.15799

>  <weinerPath>
141

>  <weinerPol>
9

>  <zagreb>
38

$$$$