OC=1[C@]2(O)[C@H]([C@H](N(C)C)C(=O)C=1C(=O)N)[C@@H](O)[C@H]1C(C2=O)=C(O)c2c(cccc2O)C1=C
  MOE2013           2D

 32 35  0  0  1  0  0  0  0  0999 V2000
    0.0000    0.0000    0.0000 O   0  0  0  0  0  0  0  0  0  0  0  0
   -0.7560    1.2960    0.0000 C   0  0  0  0  0  0  0  0  0  0  0  0
   -0.0120    2.5980    0.0000 C   0  0  2  0  0  0  0  0  0  0  0  0
    0.7440    1.3030    0.0000 O   0  0  0  0  0  0  0  0  0  0  0  0
   -0.7680    3.8940    0.0000 C   0  0  2  0  0  0  0  0  0  0  0  0
   -2.2680    3.8870    0.0000 C   0  0  2  0  0  0  0  0  0  0  0  0
   -3.0240    5.1820    0.0000 N   0  0  0  0  0  0  0  0  0  0  0  0
   -2.2800    6.4850    0.0000 C   0  0  0  0  0  0  0  0  0  0  0  0
   -4.5240    5.1750    0.0000 C   0  0  0  0  0  0  0  0  0  0  0  0
   -3.0120    2.5840    0.0000 C   0  0  0  0  0  0  0  0  0  0  0  0
   -4.5120    2.5770    0.0000 O   0  0  0  0  0  0  0  0  0  0  0  0
   -2.2560    1.2890    0.0000 C   0  0  0  0  0  0  0  0  0  0  0  0
   -3.0000   -0.0140    0.0000 C   0  0  0  0  0  0  0  0  0  0  0  0
   -2.2440   -1.3100    0.0000 O   0  0  0  0  0  0  0  0  0  0  0  0
   -4.5000   -0.0210    0.0000 N   0  0  0  0  0  0  0  0  0  0  0  0
   -0.0240    5.1960    0.0000 C   0  0  1  0  0  0  0  0  0  0  0  0
   -0.7800    6.4920    0.0000 O   0  0  0  0  0  0  0  0  0  0  0  0
    1.4760    5.2030    0.0000 C   0  0  1  0  0  0  0  0  0  0  0  0
    2.2320    3.9080    0.0000 C   0  0  0  0  0  0  0  0  0  0  0  0
    1.4880    2.6050    0.0000 C   0  0  0  0  0  0  0  0  0  0  0  0
    2.2440    1.3100    0.0000 O   0  0  0  0  0  0  0  0  0  0  0  0
    3.7320    3.9150    0.0000 C   0  0  0  0  0  0  0  0  0  0  0  0
    4.4880    2.6190    0.0000 O   0  0  0  0  0  0  0  0  0  0  0  0
    4.4760    5.2170    0.0000 C   0  0  0  0  0  0  0  0  0  0  0  0
    3.7200    6.5130    0.0000 C   0  0  0  0  0  0  0  0  0  0  0  0
    4.4640    7.8150    0.0000 C   0  0  0  0  0  0  0  0  0  0  0  0
    5.9640    7.8220    0.0000 C   0  0  0  0  0  0  0  0  0  0  0  0
    6.7200    6.5270    0.0000 C   0  0  0  0  0  0  0  0  0  0  0  0
    5.9760    5.2240    0.0000 C   0  0  0  0  0  0  0  0  0  0  0  0
    6.7320    3.9290    0.0000 O   0  0  0  0  0  0  0  0  0  0  0  0
    2.2200    6.5060    0.0000 C   0  0  0  0  0  0  0  0  0  0  0  0
    1.4640    7.8010    0.0000 C   0  0  0  0  0  0  0  0  0  0  0  0
  1  2  1  0  0  0  0
  2  3  1  0  0  0  0
  2 12  2  0  0  0  0
  3  4  1  1  0  0  0
  3 20  1  0  0  0  0
  5  3  1  6  0  0  0
  5  6  1  0  0  0  0
  5 16  1  0  0  0  0
  6  7  1  1  0  0  0
  6 10  1  0  0  0  0
  7  8  1  0  0  0  0
  7  9  1  0  0  0  0
 10 11  2  0  0  0  0
 10 12  1  0  0  0  0
 12 13  1  0  0  0  0
 13 14  2  0  0  0  0
 13 15  1  0  0  0  0
 16 17  1  1  0  0  0
 16 18  1  0  0  0  0
 18 19  1  6  0  0  0
 18 31  1  0  0  0  0
 19 20  1  0  0  0  0
 19 22  2  0  0  0  0
 20 21  2  0  0  0  0
 22 23  1  0  0  0  0
 22 24  1  0  0  0  0
 24 25  1  0  0  0  0
 24 29  2  0  0  0  0
 25 26  2  0  0  0  0
 25 31  1  0  0  0  0
 26 27  1  0  0  0  0
 27 28  2  0  0  0  0
 28 29  1  0  0  0  0
 29 30  1  0  0  0  0
 31 32  2  0  0  0  0
M  END
>  <Index>
681

>  <ID>
HT1330

>  <class>
0

>  <apol>
62.005447

>  <ast_fraglike>
0

>  <ast_fraglike_ext>
0

>  <ast_violation>
3

>  <ast_violation_ext>
4

>  <a_acc>
9

>  <a_acid>
0

>  <a_aro>
6

>  <a_base>
0

>  <a_count>
54

>  <a_don>
8

>  <a_donacc>
17

>  <a_heavy>
32

>  <a_hyd>
19

>  <a_IC>
88.548935

>  <a_ICM>
1.6397951

>  <a_nB>
0

>  <a_nBr>
0

>  <a_nC>
22

>  <a_nCl>
0

>  <a_nF>
0

>  <a_nH>
22

>  <a_nI>
0

>  <a_nN>
2

>  <a_nO>
8

>  <a_nP>
0

>  <a_nS>
0

>  <balabanJ>
1.8372487

>  <BCUT_PEOE_0>
-2.7525377

>  <BCUT_PEOE_1>
-0.58901167

>  <BCUT_PEOE_2>
0.6137054

>  <BCUT_PEOE_3>
2.8404984

>  <BCUT_SLOGP_0>
-2.8999541

>  <BCUT_SLOGP_1>
-0.5855723

>  <BCUT_SLOGP_2>
0.61791033

>  <BCUT_SLOGP_3>
2.7203505

>  <BCUT_SMR_0>
-2.5243196

>  <BCUT_SMR_1>
-0.40536493

>  <BCUT_SMR_2>
0.76297837

>  <BCUT_SMR_3>
3.0614665

>  <bpol>
28.244555

>  <b_1rotN>
2

>  <b_1rotR>
0.057142857

>  <b_ar>
6

>  <b_count>
57

>  <b_double>
6

>  <b_heavy>
35

>  <b_max1len>
4

>  <b_rotN>
2

>  <b_rotR>
0.057142857

>  <b_single>
45

>  <b_triple>
0

>  <chi0>
23.858925

>  <chi0v>
17.233936

>  <chi0v_C>
12.748559

>  <chi0_C>
14.281574

>  <chi1>
14.866709

>  <chi1v>
9.7085705

>  <chi1v_C>
6.5022707

>  <chi1_C>
8.2598724

>  <chiral>
5

>  <chiral_u>
0

>  <density>
0.82072443

>  <diameter>
11

>  <FCharge>
0

>  <GCUT_PEOE_0>
-0.84904999

>  <GCUT_PEOE_1>
-0.46863654

>  <GCUT_PEOE_2>
0.086498551

>  <GCUT_PEOE_3>
3.0748067

>  <GCUT_SLOGP_0>
-1.370522

>  <GCUT_SLOGP_1>
-0.4214617

>  <GCUT_SLOGP_2>
0.072173707

>  <GCUT_SLOGP_3>
3.0383432

>  <GCUT_SMR_0>
-0.52066135

>  <GCUT_SMR_1>
-0.2352933

>  <GCUT_SMR_2>
0.22745775

>  <GCUT_SMR_3>
3.3221121

>  <Kier1>
25.103674

>  <Kier2>
8.5872574

>  <Kier3>
3.3703513

>  <KierA1>
19.296854

>  <KierA2>
6.5412269

>  <KierA3>
2.5509055

>  <KierFlex>
3.9445345

>  <lip_acc>
10

>  <lip_don>
7

>  <lip_druglike>
1

>  <lip_violation>
1

>  <logP(o/w)>
-0.71100003

>  <logS>
-2.8817

>  <mr>
10.891004

>  <mutagenic>
0

>  <nmol>
1

>  <opr_brigid>
22

>  <opr_leadlike>
0

>  <opr_nring>
4

>  <opr_nrot>
2

>  <opr_violation>
2

>  <PC+>
0

>  <PC->
0

>  <PEOE_PC+>
3.6611733

>  <PEOE_PC->
-3.6611733

>  <PEOE_RPC+>
0.069711499

>  <PEOE_RPC->
0.10663211

>  <PEOE_VSA+0>
38.540169

>  <PEOE_VSA+1>
54.82563

>  <PEOE_VSA+2>
10.667059

>  <PEOE_VSA+3>
25.696545

>  <PEOE_VSA+4>
60.079384

>  <PEOE_VSA+5>
12.949531

>  <PEOE_VSA+6>
0

>  <PEOE_VSA-0>
63.149361

>  <PEOE_VSA-1>
46.811077

>  <PEOE_VSA-2>
0

>  <PEOE_VSA-3>
0

>  <PEOE_VSA-4>
0

>  <PEOE_VSA-5>
40.700764

>  <PEOE_VSA-6>
45.488819

>  <PEOE_VSA_FHYD>
0.60086447

>  <PEOE_VSA_FNEG>
0.49171704

>  <PEOE_VSA_FPNEG>
0.21606363

>  <PEOE_VSA_FPOL>
0.39913556

>  <PEOE_VSA_FPOS>
0.50828296

>  <PEOE_VSA_FPPOS>
0.18307191

>  <PEOE_VSA_HYD>
239.68983

>  <PEOE_VSA_NEG>
196.15002

>  <PEOE_VSA_PNEG>
86.189583

>  <PEOE_VSA_POL>
159.21849

>  <PEOE_VSA_POS>
202.75832

>  <PEOE_VSA_PPOS>
73.028915

>  <petitjean>
0.45454547

>  <petitjeanSC>
0.83333331

>  <Q_PC+>
0

>  <Q_PC->
0

>  <Q_RPC+>
0

>  <Q_RPC->
0

>  <Q_VSA_FHYD>
1

>  <Q_VSA_FNEG>
0

>  <Q_VSA_FPNEG>
0

>  <Q_VSA_FPOL>
0

>  <Q_VSA_FPOS>
1

>  <Q_VSA_FPPOS>
0

>  <Q_VSA_HYD>
398.90833

>  <Q_VSA_NEG>
0

>  <Q_VSA_PNEG>
0

>  <Q_VSA_POL>
0

>  <Q_VSA_POS>
398.90833

>  <Q_VSA_PPOS>
0

>  <radius>
6

>  <reactive>
0

>  <rings>
4

>  <RPC+>
0

>  <RPC->
0

>  <rsynth>
0.34375

>  <SlogP>
-0.59450001

>  <SlogP_VSA0>
109.05286

>  <SlogP_VSA1>
19.75832

>  <SlogP_VSA2>
82.03727

>  <SlogP_VSA3>
50.770454

>  <SlogP_VSA4>
15.192742

>  <SlogP_VSA5>
77.408951

>  <SlogP_VSA6>
0

>  <SlogP_VSA7>
61.358555

>  <SlogP_VSA8>
0

>  <SlogP_VSA9>
37.344223

>  <SMR>
11.09644

>  <SMR_VSA0>
71.586647

>  <SMR_VSA1>
79.279991

>  <SMR_VSA2>
59.592045

>  <SMR_VSA3>
33.679775

>  <SMR_VSA4>
41.326191

>  <SMR_VSA5>
52.929554

>  <SMR_VSA6>
16.634007

>  <SMR_VSA7>
97.895172

>  <TPSA>
181.62

>  <VAdjEq>
0.3597711

>  <VAdjMa>
6.129283

>  <VDistEq>
3.1767395

>  <VDistMa>
9.7729616

>  <vdw_area>
398.90833

>  <vdw_vol>
539.06525

>  <vsa_acc>
13.566921

>  <vsa_acid>
0

>  <vsa_base>
0

>  <vsa_don>
17.742489

>  <vsa_hyd>
200.62627

>  <vsa_other>
29.86657

>  <vsa_pol>
126.27785

>  <Weight>
442.42398

>  <weinerPath>
2336

>  <weinerPol>
76

>  <zagreb>
184

$$$$