S(P(=S)(OC)OC)C(CC(OCC)=O)C(OCC)=O
  MOE2013           2D

 19 18  0  0  1  0  0  0  0  0999 V2000
    0.0000    0.0000    0.0000 S   0  0  0  0  0  0  0  0  0  0  0  0
   -0.7390   -1.3050    0.0000 P   0  0  0  0  0  0  0  0  0  0  0  0
    0.5660   -2.0440    0.0000 S   0  0  0  0  0  0  0  0  0  0  0  0
   -1.4780   -2.6110    0.0000 O   0  0  0  0  0  0  0  0  0  0  0  0
   -0.7170   -3.9030    0.0000 C   0  0  0  0  0  0  0  0  0  0  0  0
   -2.0440   -0.5660    0.0000 O   0  0  0  0  0  0  0  0  0  0  0  0
   -3.3370   -1.3270    0.0000 C   0  0  0  0  0  0  0  0  0  0  0  0
    1.5000    0.0130    0.0000 C   0  0  3  0  0  0  0  0  0  0  0  0
    2.2610   -1.2800    0.0000 C   0  0  0  0  0  0  0  0  0  0  0  0
    3.7610   -1.2670    0.0000 C   0  0  0  0  0  0  0  0  0  0  0  0
    4.5220   -2.5600    0.0000 O   0  0  0  0  0  0  0  0  0  0  0  0
    6.0220   -2.5470    0.0000 C   0  0  0  0  0  0  0  0  0  0  0  0
    6.7830   -3.8400    0.0000 C   0  0  0  0  0  0  0  0  0  0  0  0
    4.5000    0.0380    0.0000 O   0  0  0  0  0  0  0  0  0  0  0  0
    2.2390    1.3180    0.0000 C   0  0  0  0  0  0  0  0  0  0  0  0
    1.4780    2.6110    0.0000 O   0  0  0  0  0  0  0  0  0  0  0  0
    2.2170    3.9160    0.0000 C   0  0  0  0  0  0  0  0  0  0  0  0
    1.4560    5.2090    0.0000 C   0  0  0  0  0  0  0  0  0  0  0  0
    3.7390    1.3310    0.0000 O   0  0  0  0  0  0  0  0  0  0  0  0
  1  2  1  0  0  0  0
  1  8  1  0  0  0  0
  2  3  2  0  0  0  0
  2  4  1  0  0  0  0
  2  6  1  0  0  0  0
  4  5  1  0  0  0  0
  6  7  1  0  0  0  0
  8  9  1  0  0  0  0
  8 15  1  0  0  0  0
  9 10  1  0  0  0  0
 10 11  1  0  0  0  0
 10 14  2  0  0  0  0
 11 12  1  0  0  0  0
 12 13  1  0  0  0  0
 15 16  1  0  0  0  0
 15 19  2  0  0  0  0
 16 17  1  0  0  0  0
 17 18  1  0  0  0  0
M  END
>  <Index>
648

>  <ID>
HT1265

>  <class>
0

>  <apol>
44.511066

>  <ast_fraglike>
0

>  <ast_fraglike_ext>
0

>  <ast_violation>
2

>  <ast_violation_ext>
3

>  <a_acc>
4

>  <a_acid>
0

>  <a_aro>
0

>  <a_base>
0

>  <a_count>
38

>  <a_don>
0

>  <a_donacc>
4

>  <a_heavy>
19

>  <a_hyd>
8

>  <a_IC>
67.981567

>  <a_ICM>
1.7889886

>  <a_nB>
0

>  <a_nBr>
0

>  <a_nC>
10

>  <a_nCl>
0

>  <a_nF>
0

>  <a_nH>
19

>  <a_nI>
0

>  <a_nN>
0

>  <a_nO>
6

>  <a_nP>
1

>  <a_nS>
2

>  <balabanJ>
4.6624889

>  <BCUT_PEOE_0>
-2.4744444

>  <BCUT_PEOE_1>
-0.22997572

>  <BCUT_PEOE_2>
0.057812825

>  <BCUT_PEOE_3>
2.6095181

>  <BCUT_SLOGP_0>
-2.5412621

>  <BCUT_SLOGP_1>
-0.06654463

>  <BCUT_SLOGP_2>
0.123

>  <BCUT_SLOGP_3>
2.7742703

>  <BCUT_SMR_0>
-2.2303076

>  <BCUT_SMR_1>
0.066837221

>  <BCUT_SMR_2>
0.25066301

>  <BCUT_SMR_3>
2.9214661

>  <bpol>
36.690933

>  <b_1rotN>
9

>  <b_1rotR>
0.5

>  <b_ar>
0

>  <b_count>
37

>  <b_double>
2

>  <b_heavy>
18

>  <b_max1len>
7

>  <b_rotN>
11

>  <b_rotR>
0.6111111

>  <b_single>
35

>  <b_triple>
0

>  <chi0>
14.888906

>  <chi0v>
13.939291

>  <chi0v_C>
7.6986704

>  <chi0_C>
7.8533711

>  <chi1>
8.9183626

>  <chi1v>
9.7639208

>  <chi1v_C>
2.4646904

>  <chi1_C>
2.5640435

>  <chiral>
1

>  <chiral_u>
1

>  <density>
0.88052195

>  <diameter>
9

>  <FCharge>
0

>  <GCUT_PEOE_0>
-0.76456261

>  <GCUT_PEOE_1>
-0.38251066

>  <GCUT_PEOE_2>
-0.10218717

>  <GCUT_PEOE_3>
2.4136426

>  <GCUT_SLOGP_0>
-0.89264911

>  <GCUT_SLOGP_1>
-0.26708254

>  <GCUT_SLOGP_2>
-0.037

>  <GCUT_SLOGP_3>
2.4821835

>  <GCUT_SMR_0>
-0.51440489

>  <GCUT_SMR_1>
-0.12957928

>  <GCUT_SMR_2>
0.0670994

>  <GCUT_SMR_3>
2.691818

>  <Kier1>
19

>  <Kier2>
9.8336487

>  <Kier3>
7.3727999

>  <KierA1>
22.091162

>  <KierA2>
11.530892

>  <KierA3>
8.7022638

>  <KierFlex>
13.406885

>  <lip_acc>
6

>  <lip_don>
0

>  <lip_druglike>
1

>  <lip_violation>
0

>  <logP(o/w)>
2.0339999

>  <logS>
-3.3211401

>  <mr>
8.0318794

>  <mutagenic>
0

>  <nmol>
1

>  <opr_brigid>
0

>  <opr_leadlike>
1

>  <opr_nring>
0

>  <opr_nrot>
9

>  <opr_violation>
0

>  <PC+>
0

>  <PC->
0

>  <PEOE_PC+>
2.2134693

>  <PEOE_PC->
-2.2134693

>  <PEOE_RPC+>
0.12670659

>  <PEOE_RPC->
0.22015047

>  <PEOE_VSA+0>
34.123089

>  <PEOE_VSA+1>
156.90306

>  <PEOE_VSA+2>
0.63101059

>  <PEOE_VSA+3>
0

>  <PEOE_VSA+4>
0

>  <PEOE_VSA+5>
41.884346

>  <PEOE_VSA+6>
0

>  <PEOE_VSA-0>
37.495354

>  <PEOE_VSA-1>
0

>  <PEOE_VSA-2>
0

>  <PEOE_VSA-3>
0

>  <PEOE_VSA-4>
9.3319435

>  <PEOE_VSA-5>
27.133842

>  <PEOE_VSA-6>
38.015999

>  <PEOE_VSA_FHYD>
0.66321313

>  <PEOE_VSA_FNEG>
0.32408422

>  <PEOE_VSA_FPNEG>
0.21556517

>  <PEOE_VSA_FPOL>
0.33678684

>  <PEOE_VSA_FPOS>
0.67591578

>  <PEOE_VSA_FPPOS>
0.12122167

>  <PEOE_VSA_HYD>
229.15251

>  <PEOE_VSA_NEG>
111.97714

>  <PEOE_VSA_PNEG>
74.481781

>  <PEOE_VSA_POL>
116.36613

>  <PEOE_VSA_POS>
233.5415

>  <PEOE_VSA_PPOS>
41.884346

>  <petitjean>
0.44444445

>  <petitjeanSC>
0.80000001

>  <Q_PC+>
0

>  <Q_PC->
0

>  <Q_RPC+>
0

>  <Q_RPC->
0

>  <Q_VSA_FHYD>
1

>  <Q_VSA_FNEG>
0

>  <Q_VSA_FPNEG>
0

>  <Q_VSA_FPOL>
0

>  <Q_VSA_FPOS>
1

>  <Q_VSA_FPPOS>
0

>  <Q_VSA_HYD>
345.51865

>  <Q_VSA_NEG>
0

>  <Q_VSA_PNEG>
0

>  <Q_VSA_POL>
0

>  <Q_VSA_POS>
345.51865

>  <Q_VSA_PPOS>
0

>  <radius>
5

>  <reactive>
0

>  <rings>
0

>  <RPC+>
0

>  <RPC->
0

>  <rsynth>
1

>  <SlogP>
2.1217999

>  <SlogP_VSA0>
0

>  <SlogP_VSA1>
15.490929

>  <SlogP_VSA2>
129.0374

>  <SlogP_VSA3>
41.852516

>  <SlogP_VSA4>
0

>  <SlogP_VSA5>
70.767738

>  <SlogP_VSA6>
0

>  <SlogP_VSA7>
0

>  <SlogP_VSA8>
18.868406

>  <SlogP_VSA9>
104.10871

>  <SMR>
7.7565999

>  <SMR_VSA0>
83.567467

>  <SMR_VSA1>
0

>  <SMR_VSA2>
0

>  <SMR_VSA3>
2.7759552

>  <SMR_VSA4>
0

>  <SMR_VSA5>
18.868406

>  <SMR_VSA6>
57.343445

>  <SMR_VSA7>
217.57042

>  <TPSA>
103.15

>  <VAdjEq>
0.46811688

>  <VAdjMa>
5.1699252

>  <VDistEq>
3.0208538

>  <VDistMa>
8.2317152

>  <vdw_area>
345.51865

>  <vdw_vol>
375.18881

>  <vsa_acc>
36.465786

>  <vsa_acid>
0

>  <vsa_base>
0

>  <vsa_don>
0

>  <vsa_hyd>
194.2438

>  <vsa_other>
101.28493

>  <vsa_pol>
36.465786

>  <Weight>
330.362

>  <weinerPath>
738

>  <weinerPol>
25

>  <zagreb>
82

$$$$