Clc1cc2nc3c(cc(OC)cc3)c(NC(CCCN(CC)CC)C)c2cc1
  MOE2013           2D

 28 30  0  0  1  0  0  0  0  0999 V2000
    0.0000    0.0000    0.0000 Cl  0  0  0  0  0  0  0  0  0  0  0  0
    0.0120    1.5000    0.0000 C   0  0  0  0  0  0  0  0  0  0  0  0
   -1.2810    2.2610    0.0000 C   0  0  0  0  0  0  0  0  0  0  0  0
   -1.2680    3.7600    0.0000 C   0  0  0  0  0  0  0  0  0  0  0  0
   -2.5610    4.5210    0.0000 N   0  0  0  0  0  0  0  0  0  0  0  0
   -2.5490    6.0210    0.0000 C   0  0  0  0  0  0  0  0  0  0  0  0
   -1.2440    6.7600    0.0000 C   0  0  0  0  0  0  0  0  0  0  0  0
   -1.2320    8.2600    0.0000 C   0  0  0  0  0  0  0  0  0  0  0  0
   -2.5240    9.0210    0.0000 C   0  0  0  0  0  0  0  0  0  0  0  0
   -2.5120   10.5210    0.0000 O   0  0  0  0  0  0  0  0  0  0  0  0
   -3.8050   11.2810    0.0000 C   0  0  0  0  0  0  0  0  0  0  0  0
   -3.8300    8.2820    0.0000 C   0  0  0  0  0  0  0  0  0  0  0  0
   -3.8420    6.7820    0.0000 C   0  0  0  0  0  0  0  0  0  0  0  0
    0.0490    6.0000    0.0000 C   0  0  0  0  0  0  0  0  0  0  0  0
    1.3540    6.7390    0.0000 N   0  0  0  0  0  0  0  0  0  0  0  0
    2.6470    5.9790    0.0000 C   0  0  3  0  0  0  0  0  0  0  0  0
    3.9520    6.7180    0.0000 C   0  0  0  0  0  0  0  0  0  0  0  0
    5.2450    5.9570    0.0000 C   0  0  0  0  0  0  0  0  0  0  0  0
    6.5500    6.6970    0.0000 C   0  0  0  0  0  0  0  0  0  0  0  0
    7.8430    5.9360    0.0000 N   0  0  0  0  0  0  0  0  0  0  0  0
    9.1480    6.6750    0.0000 C   0  0  0  0  0  0  0  0  0  0  0  0
    9.1600    8.1750    0.0000 C   0  0  0  0  0  0  0  0  0  0  0  0
    7.8310    4.4360    0.0000 C   0  0  0  0  0  0  0  0  0  0  0  0
    9.1240    3.6760    0.0000 C   0  0  0  0  0  0  0  0  0  0  0  0
    2.6350    4.4790    0.0000 C   0  0  0  0  0  0  0  0  0  0  0  0
    0.0370    4.5000    0.0000 C   0  0  0  0  0  0  0  0  0  0  0  0
    1.3300    3.7390    0.0000 C   0  0  0  0  0  0  0  0  0  0  0  0
    1.3170    2.2390    0.0000 C   0  0  0  0  0  0  0  0  0  0  0  0
  1  2  1  0  0  0  0
  2  3  2  0  0  0  0
  2 28  1  0  0  0  0
  3  4  1  0  0  0  0
  4  5  2  0  0  0  0
  4 26  1  0  0  0  0
  5  6  1  0  0  0  0
  6  7  1  0  0  0  0
  6 13  2  0  0  0  0
  7  8  2  0  0  0  0
  7 14  1  0  0  0  0
  8  9  1  0  0  0  0
  9 10  1  0  0  0  0
  9 12  2  0  0  0  0
 10 11  1  0  0  0  0
 12 13  1  0  0  0  0
 14 15  1  0  0  0  0
 14 26  2  0  0  0  0
 15 16  1  0  0  0  0
 16 17  1  0  0  0  0
 16 25  1  0  0  0  0
 17 18  1  0  0  0  0
 18 19  1  0  0  0  0
 19 20  1  0  0  0  0
 20 21  1  0  0  0  0
 20 23  1  0  0  0  0
 21 22  1  0  0  0  0
 23 24  1  0  0  0  0
 26 27  1  0  0  0  0
 27 28  2  0  0  0  0
M  END
>  <Index>
670

>  <ID>
HT1301

>  <class>
0

>  <apol>
66.765793

>  <ast_fraglike>
0

>  <ast_fraglike_ext>
0

>  <ast_violation>
2

>  <ast_violation_ext>
3

>  <a_acc>
3

>  <a_acid>
0

>  <a_aro>
14

>  <a_base>
0

>  <a_count>
58

>  <a_don>
1

>  <a_donacc>
4

>  <a_heavy>
28

>  <a_hyd>
24

>  <a_IC>
83.759369

>  <a_ICM>
1.4441271

>  <a_nB>
0

>  <a_nBr>
0

>  <a_nC>
23

>  <a_nCl>
1

>  <a_nF>
0

>  <a_nH>
30

>  <a_nI>
0

>  <a_nN>
3

>  <a_nO>
1

>  <a_nP>
0

>  <a_nS>
0

>  <balabanJ>
1.6207067

>  <BCUT_PEOE_0>
-2.7270055

>  <BCUT_PEOE_1>
-0.54447967

>  <BCUT_PEOE_2>
0.50396806

>  <BCUT_PEOE_3>
2.6385708

>  <BCUT_SLOGP_0>
-2.7484934

>  <BCUT_SLOGP_1>
-0.31259304

>  <BCUT_SLOGP_2>
0.62522292

>  <BCUT_SLOGP_3>
2.6746662

>  <BCUT_SMR_0>
-2.4520612

>  <BCUT_SMR_1>
-0.26334691

>  <BCUT_SMR_2>
0.69082946

>  <BCUT_SMR_3>
2.908613

>  <bpol>
39.092209

>  <b_1rotN>
9

>  <b_1rotR>
0.30000001

>  <b_ar>
16

>  <b_count>
60

>  <b_double>
0

>  <b_heavy>
30

>  <b_max1len>
9

>  <b_rotN>
9

>  <b_rotR>
0.30000001

>  <b_single>
44

>  <b_triple>
0

>  <chi0>
20.095648

>  <chi0v>
18.013556

>  <chi0v_C>
15.076985

>  <chi0_C>
16.396976

>  <chi1>
13.549575

>  <chi1v>
10.489771

>  <chi1v_C>
7.3758798

>  <chi1_C>
8.9991322

>  <chiral>
1

>  <chiral_u>
1

>  <density>
0.70301694

>  <diameter>
13

>  <FCharge>
0

>  <GCUT_PEOE_0>
-0.86131865

>  <GCUT_PEOE_1>
-0.36657435

>  <GCUT_PEOE_2>
-0.0020155024

>  <GCUT_PEOE_3>
2.7878122

>  <GCUT_SLOGP_0>
-0.98247665

>  <GCUT_SLOGP_1>
-0.27939916

>  <GCUT_SLOGP_2>
0.13073955

>  <GCUT_SLOGP_3>
2.9093361

>  <GCUT_SMR_0>
-0.52444959

>  <GCUT_SMR_1>
-0.15245216

>  <GCUT_SMR_2>
0.14407879

>  <GCUT_SMR_3>
3.0746255

>  <Kier1>
22.68

>  <Kier2>
10.857822

>  <Kier3>
5.7956104

>  <KierA1>
18.981873

>  <KierA2>
9.0242023

>  <KierA3>
4.7930169

>  <KierFlex>
6.1177239

>  <lip_acc>
4

>  <lip_don>
1

>  <lip_druglike>
1

>  <lip_violation>
1

>  <logP(o/w)>
5.7119999

>  <logS>
-5.6842899

>  <mr>
11.765323

>  <mutagenic>
1

>  <nmol>
1

>  <opr_brigid>
16

>  <opr_leadlike>
1

>  <opr_nring>
3

>  <opr_nrot>
9

>  <opr_violation>
1

>  <PC+>
0

>  <PC->
0

>  <PEOE_PC+>
1.6966712

>  <PEOE_PC->
-1.6966712

>  <PEOE_RPC+>
0.075442694

>  <PEOE_RPC->
0.20504355

>  <PEOE_VSA+0>
129.08771

>  <PEOE_VSA+1>
60.246098

>  <PEOE_VSA+2>
8.6190128

>  <PEOE_VSA+3>
0

>  <PEOE_VSA+4>
0

>  <PEOE_VSA+5>
0

>  <PEOE_VSA+6>
0

>  <PEOE_VSA-0>
149.2567

>  <PEOE_VSA-1>
67.077301

>  <PEOE_VSA-2>
0

>  <PEOE_VSA-3>
0

>  <PEOE_VSA-4>
5.6825762

>  <PEOE_VSA-5>
0.13689101

>  <PEOE_VSA-6>
2.503756

>  <PEOE_VSA_FHYD>
0.98030519

>  <PEOE_VSA_FNEG>
0.53159463

>  <PEOE_VSA_FPNEG>
0.019694807

>  <PEOE_VSA_FPOL>
0.019694807

>  <PEOE_VSA_FPOS>
0.4684054

>  <PEOE_VSA_FPPOS>
0

>  <PEOE_VSA_HYD>
414.28683

>  <PEOE_VSA_NEG>
224.65723

>  <PEOE_VSA_PNEG>
8.3232231

>  <PEOE_VSA_POL>
8.3232231

>  <PEOE_VSA_POS>
197.95282

>  <PEOE_VSA_PPOS>
0

>  <petitjean>
0.46153846

>  <petitjeanSC>
0.85714287

>  <Q_PC+>
0

>  <Q_PC->
0

>  <Q_RPC+>
0

>  <Q_RPC->
0

>  <Q_VSA_FHYD>
1

>  <Q_VSA_FNEG>
0

>  <Q_VSA_FPNEG>
0

>  <Q_VSA_FPOL>
0

>  <Q_VSA_FPOS>
1

>  <Q_VSA_FPPOS>
0

>  <Q_VSA_HYD>
422.61005

>  <Q_VSA_NEG>
0

>  <Q_VSA_PNEG>
0

>  <Q_VSA_POL>
0

>  <Q_VSA_POS>
422.61005

>  <Q_VSA_PPOS>
0

>  <radius>
7

>  <reactive>
0

>  <rings>
3

>  <RPC+>
0

>  <RPC->
0

>  <rsynth>
1

>  <SlogP>
5.9724002

>  <SlogP_VSA0>
10.999887

>  <SlogP_VSA1>
37.920593

>  <SlogP_VSA2>
3.9819686

>  <SlogP_VSA3>
55.318733

>  <SlogP_VSA4>
0

>  <SlogP_VSA5>
35.383869

>  <SlogP_VSA6>
3.5006065

>  <SlogP_VSA7>
115.29331

>  <SlogP_VSA8>
37.736813

>  <SlogP_VSA9>
147.12686

>  <SMR>
12.09177

>  <SMR_VSA0>
0

>  <SMR_VSA1>
30.909731

>  <SMR_VSA2>
0

>  <SMR_VSA3>
12.726004

>  <SMR_VSA4>
30.2017

>  <SMR_VSA5>
143.59592

>  <SMR_VSA6>
55.318733

>  <SMR_VSA7>
174.51056

>  <TPSA>
37.389999

>  <VAdjEq>
0.38983503

>  <VAdjMa>
5.9068904

>  <VDistEq>
3.5409555

>  <VDistMa>
9.3283491

>  <vdw_area>
422.61005

>  <vdw_vol>
568.92792

>  <vsa_acc>
8.1863317

>  <vsa_acid>
0

>  <vsa_base>
0

>  <vsa_don>
5.6825762

>  <vsa_hyd>
385.02576

>  <vsa_other>
0

>  <vsa_pol>
13.868908

>  <Weight>
399.966

>  <weinerPath>
2125

>  <weinerPol>
45

>  <zagreb>
142

$$$$