S(P(O)(O)=O)CCNCCCN
  MOE2013           2D

 12 11  0  0  0  0  0  0  0  0999 V2000
    0.0000    0.0000    0.0000 S   0  0  0  0  0  0  0  0  0  0  0  0
   -1.3000   -0.7490    0.0000 P   0  0  0  0  0  0  0  0  0  0  0  0
   -0.5510   -2.0480    0.0000 O   0  0  0  0  0  0  0  0  0  0  0  0
   -2.0480    0.5510    0.0000 O   0  0  0  0  0  0  0  0  0  0  0  0
   -2.6000   -1.4970    0.0000 O   0  0  0  0  0  0  0  0  0  0  0  0
    1.2980   -0.7510    0.0000 C   0  0  0  0  0  0  0  0  0  0  0  0
    2.5980   -0.0030    0.0000 C   0  0  0  0  0  0  0  0  0  0  0  0
    3.8960   -0.7540    0.0000 N   0  0  0  0  0  0  0  0  0  0  0  0
    5.1960   -0.0050    0.0000 C   0  0  0  0  0  0  0  0  0  0  0  0
    6.4940   -0.7570    0.0000 C   0  0  0  0  0  0  0  0  0  0  0  0
    7.7940   -0.0080    0.0000 C   0  0  0  0  0  0  0  0  0  0  0  0
    9.0920   -0.7600    0.0000 N   0  0  0  0  0  0  0  0  0  0  0  0
  1  2  1  0  0  0  0
  1  6  1  0  0  0  0
  2  3  1  0  0  0  0
  2  4  1  0  0  0  0
  2  5  2  0  0  0  0
  6  7  1  0  0  0  0
  7  8  1  0  0  0  0
  8  9  1  0  0  0  0
  9 10  1  0  0  0  0
 10 11  1  0  0  0  0
 11 12  1  0  0  0  0
M  END
>  <Index>
62

>  <ID>
HT0129

>  <class>
0

>  <apol>
29.937895

>  <ast_fraglike>
0

>  <ast_fraglike_ext>
0

>  <ast_violation>
2

>  <ast_violation_ext>
4

>  <a_acc>
5

>  <a_acid>
0

>  <a_aro>
0

>  <a_base>
0

>  <a_count>
27

>  <a_don>
5

>  <a_donacc>
10

>  <a_heavy>
12

>  <a_hyd>
5

>  <a_IC>
51.414074

>  <a_ICM>
1.904225

>  <a_nB>
0

>  <a_nBr>
0

>  <a_nC>
5

>  <a_nCl>
0

>  <a_nF>
0

>  <a_nH>
15

>  <a_nI>
0

>  <a_nN>
2

>  <a_nO>
3

>  <a_nP>
1

>  <a_nS>
1

>  <balabanJ>
3.009208

>  <BCUT_PEOE_0>
-2.6252215

>  <BCUT_PEOE_1>
-0.62759149

>  <BCUT_PEOE_2>
0.64507622

>  <BCUT_PEOE_3>
2.563237

>  <BCUT_SLOGP_0>
-2.782393

>  <BCUT_SLOGP_1>
-0.70300454

>  <BCUT_SLOGP_2>
0.60087126

>  <BCUT_SLOGP_3>
2.6535895

>  <BCUT_SMR_0>
-2.3514011

>  <BCUT_SMR_1>
-0.46668091

>  <BCUT_SMR_2>
0.78432953

>  <BCUT_SMR_3>
2.8600054

>  <bpol>
24.836105

>  <b_1rotN>
7

>  <b_1rotR>
0.63636363

>  <b_ar>
0

>  <b_count>
26

>  <b_double>
0

>  <b_heavy>
11

>  <b_max1len>
11

>  <b_rotN>
7

>  <b_rotR>
0.63636363

>  <b_single>
26

>  <b_triple>
0

>  <chi0>
9.4497471

>  <chi0v>
8.481945

>  <chi0v_C>
3.5355339

>  <chi0_C>
3.5355339

>  <chi1>
5.5606604

>  <chi1v>
6.8722706

>  <chi1v_C>
1.5

>  <chi1_C>
1.5

>  <chiral>
0

>  <chiral_u>
0

>  <density>
0.88424176

>  <diameter>
9

>  <FCharge>
0

>  <GCUT_PEOE_0>
-0.84874105

>  <GCUT_PEOE_1>
-0.41385746

>  <GCUT_PEOE_2>
0.12707478

>  <GCUT_PEOE_3>
2.2523606

>  <GCUT_SLOGP_0>
-1.3634061

>  <GCUT_SLOGP_1>
-0.41752869

>  <GCUT_SLOGP_2>
0.096424252

>  <GCUT_SLOGP_3>
2.2636955

>  <GCUT_SMR_0>
-0.5182873

>  <GCUT_SMR_1>
-0.22035375

>  <GCUT_SMR_2>
0.22247411

>  <GCUT_SMR_3>
2.5116258

>  <Kier1>
12

>  <Kier2>
6.5088758

>  <Kier3>
11.111111

>  <KierA1>
15.637931

>  <KierA2>
8.6926126

>  <KierA3>
15.124771

>  <KierFlex>
11.327873

>  <lip_acc>
5

>  <lip_don>
5

>  <lip_druglike>
1

>  <lip_violation>
0

>  <logP(o/w)>
-1.346

>  <logS>
0.31511

>  <mr>
5.179162

>  <mutagenic>
0

>  <nmol>
1

>  <opr_brigid>
0

>  <opr_leadlike>
1

>  <opr_nring>
0

>  <opr_nrot>
7

>  <opr_violation>
0

>  <PC+>
0

>  <PC->
0

>  <PEOE_PC+>
1.5429928

>  <PEOE_PC->
-1.5429928

>  <PEOE_RPC+>
0.22175388

>  <PEOE_RPC->
0.21382958

>  <PEOE_VSA+0>
55.846184

>  <PEOE_VSA+1>
32.06197

>  <PEOE_VSA+2>
25.857038

>  <PEOE_VSA+3>
20.648346

>  <PEOE_VSA+4>
0

>  <PEOE_VSA+5>
0

>  <PEOE_VSA+6>
15.590208

>  <PEOE_VSA-0>
35.085964

>  <PEOE_VSA-1>
0

>  <PEOE_VSA-2>
0

>  <PEOE_VSA-3>
0

>  <PEOE_VSA-4>
15.729136

>  <PEOE_VSA-5>
0

>  <PEOE_VSA-6>
26.647522

>  <PEOE_VSA_FHYD>
0.7451629

>  <PEOE_VSA_FNEG>
0.34054539

>  <PEOE_VSA_FPNEG>
0.18629856

>  <PEOE_VSA_FPOL>
0.2548371

>  <PEOE_VSA_FPOS>
0.65945464

>  <PEOE_VSA_FPPOS>
0.068538517

>  <PEOE_VSA_HYD>
169.4995

>  <PEOE_VSA_NEG>
77.462624

>  <PEOE_VSA_PNEG>
42.376659

>  <PEOE_VSA_POL>
57.966866

>  <PEOE_VSA_POS>
150.00374

>  <PEOE_VSA_PPOS>
15.590208

>  <petitjean>
0.44444445

>  <petitjeanSC>
0.80000001

>  <Q_PC+>
0

>  <Q_PC->
0

>  <Q_RPC+>
0

>  <Q_RPC->
0

>  <Q_VSA_FHYD>
1

>  <Q_VSA_FNEG>
0

>  <Q_VSA_FPNEG>
0

>  <Q_VSA_FPOL>
0

>  <Q_VSA_FPOS>
1

>  <Q_VSA_FPPOS>
0

>  <Q_VSA_HYD>
227.46637

>  <Q_VSA_NEG>
0

>  <Q_VSA_PNEG>
0

>  <Q_VSA_POL>
0

>  <Q_VSA_POS>
227.46637

>  <Q_VSA_PPOS>
0

>  <radius>
5

>  <reactive>
1

>  <rings>
0

>  <RPC+>
0

>  <RPC->
0

>  <rsynth>
1

>  <SlogP>
-1.3195

>  <SlogP_VSA0>
115.95564

>  <SlogP_VSA1>
0

>  <SlogP_VSA2>
0

>  <SlogP_VSA3>
72.552299

>  <SlogP_VSA4>
0

>  <SlogP_VSA5>
0

>  <SlogP_VSA6>
0

>  <SlogP_VSA7>
0

>  <SlogP_VSA8>
18.868406

>  <SlogP_VSA9>
41.224384

>  <SMR>
5.0357699

>  <SMR_VSA0>
22.433765

>  <SMR_VSA1>
42.613937

>  <SMR_VSA2>
18.01075

>  <SMR_VSA3>
0

>  <SMR_VSA4>
32.897186

>  <SMR_VSA5>
18.868406

>  <SMR_VSA6>
72.552299

>  <SMR_VSA7>
41.224384

>  <TPSA>
95.580002

>  <VAdjEq>
0.61674827

>  <VAdjMa>
4.4594316

>  <VDistEq>
3.0411429

>  <VDistMa>
6.778996

>  <vdw_area>
227.46637

>  <vdw_vol>
242.27084

>  <vsa_acc>
0

>  <vsa_acid>
0

>  <vsa_base>
0

>  <vsa_don>
0

>  <vsa_hyd>
94.49157

>  <vsa_other>
36.9748

>  <vsa_pol>
70.612473

>  <Weight>
214.226

>  <weinerPath>
261

>  <weinerPol>
9

>  <zagreb>
48

$$$$