O=C(Nc1c(cccc1C)C)CN(CC)CC
  MOE2013           2D

 17 17  0  0  0  0  0  0  0  0999 V2000
    0.0000    0.0000    0.0000 O   0  0  0  0  0  0  0  0  0  0  0  0
   -0.7510    1.2990    0.0000 C   0  0  0  0  0  0  0  0  0  0  0  0
   -0.0010    2.5980    0.0000 N   0  0  0  0  0  0  0  0  0  0  0  0
    1.4990    2.5990    0.0000 C   0  0  0  0  0  0  0  0  0  0  0  0
    2.2480    3.8980    0.0000 C   0  0  0  0  0  0  0  0  0  0  0  0
    3.7480    3.8990    0.0000 C   0  0  0  0  0  0  0  0  0  0  0  0
    4.4990    2.6000    0.0000 C   0  0  0  0  0  0  0  0  0  0  0  0
    3.7490    1.3010    0.0000 C   0  0  0  0  0  0  0  0  0  0  0  0
    2.2490    1.3000    0.0000 C   0  0  0  0  0  0  0  0  0  0  0  0
    1.5000    0.0010    0.0000 C   0  0  0  0  0  0  0  0  0  0  0  0
    1.4980    5.1970    0.0000 C   0  0  0  0  0  0  0  0  0  0  0  0
   -2.2510    1.2980    0.0000 C   0  0  0  0  0  0  0  0  0  0  0  0
   -3.0000   -0.0010    0.0000 N   0  0  0  0  0  0  0  0  0  0  0  0
   -4.5000   -0.0020    0.0000 C   0  0  0  0  0  0  0  0  0  0  0  0
   -5.2510    1.2970    0.0000 C   0  0  0  0  0  0  0  0  0  0  0  0
   -2.2490   -1.3000    0.0000 C   0  0  0  0  0  0  0  0  0  0  0  0
   -2.9990   -2.5990    0.0000 C   0  0  0  0  0  0  0  0  0  0  0  0
  1  2  2  0  0  0  0
  2  3  1  0  0  0  0
  2 12  1  0  0  0  0
  3  4  1  0  0  0  0
  4  5  1  0  0  0  0
  4  9  2  0  0  0  0
  5  6  2  0  0  0  0
  5 11  1  0  0  0  0
  6  7  1  0  0  0  0
  7  8  2  0  0  0  0
  8  9  1  0  0  0  0
  9 10  1  0  0  0  0
 12 13  1  0  0  0  0
 13 14  1  0  0  0  0
 13 16  1  0  0  0  0
 14 15  1  0  0  0  0
 16 17  1  0  0  0  0
M  END
>  <Index>
615

>  <ID>
HT1207

>  <class>
0

>  <apol>
42.311447

>  <ast_fraglike>
1

>  <ast_fraglike_ext>
0

>  <ast_violation>
0

>  <ast_violation_ext>
1

>  <a_acc>
2

>  <a_acid>
0

>  <a_aro>
6

>  <a_base>
0

>  <a_count>
39

>  <a_don>
1

>  <a_donacc>
3

>  <a_heavy>
17

>  <a_hyd>
13

>  <a_IC>
52.720222

>  <a_ICM>
1.3518006

>  <a_nB>
0

>  <a_nBr>
0

>  <a_nC>
14

>  <a_nCl>
0

>  <a_nF>
0

>  <a_nH>
22

>  <a_nI>
0

>  <a_nN>
2

>  <a_nO>
1

>  <a_nP>
0

>  <a_nS>
0

>  <balabanJ>
2.4114521

>  <BCUT_PEOE_0>
-2.638787

>  <BCUT_PEOE_1>
-0.193152

>  <BCUT_PEOE_2>
0.17140599

>  <BCUT_PEOE_3>
2.553647

>  <BCUT_SLOGP_0>
-2.7286034

>  <BCUT_SLOGP_1>
-0.13189335

>  <BCUT_SLOGP_2>
0.20953062

>  <BCUT_SLOGP_3>
2.5095632

>  <BCUT_SMR_0>
-2.3616292

>  <BCUT_SMR_1>
-0.007903073

>  <BCUT_SMR_2>
0.33151284

>  <BCUT_SMR_3>
2.8260961

>  <bpol>
27.648554

>  <b_1rotN>
5

>  <b_1rotR>
0.29411766

>  <b_ar>
6

>  <b_count>
39

>  <b_double>
1

>  <b_heavy>
17

>  <b_max1len>
6

>  <b_rotN>
6

>  <b_rotR>
0.35294119

>  <b_single>
32

>  <b_triple>
0

>  <chi0>
12.836499

>  <chi0v>
11.208833

>  <chi0v_C>
9.8533716

>  <chi0_C>
10.552042

>  <chi1>
8.0789175

>  <chi1v>
6.1645913

>  <chi1v_C>
4.5117841

>  <chi1_C>
5.4603257

>  <chiral>
0

>  <chiral_u>
0

>  <density>
0.651546

>  <diameter>
9

>  <FCharge>
0

>  <GCUT_PEOE_0>
-0.84753388

>  <GCUT_PEOE_1>
-0.30794427

>  <GCUT_PEOE_2>
-0.060285602

>  <GCUT_PEOE_3>
2.4990261

>  <GCUT_SLOGP_0>
-1.0097452

>  <GCUT_SLOGP_1>
-0.22488363

>  <GCUT_SLOGP_2>
-0.019197753

>  <GCUT_SLOGP_3>
2.5536273

>  <GCUT_SMR_0>
-0.52082026

>  <GCUT_SMR_1>
-0.10768726

>  <GCUT_SMR_2>
0.027502114

>  <GCUT_SMR_3>
2.7694297

>  <Kier1>
15.058824

>  <Kier2>
7.4380164

>  <Kier3>
4.6390533

>  <KierA1>
11.85678

>  <KierA2>
5.7617188

>  <KierA3>
3.5470369

>  <KierFlex>
4.0185547

>  <lip_acc>
3

>  <lip_don>
1

>  <lip_druglike>
1

>  <lip_violation>
0

>  <logP(o/w)>
2.2219999

>  <logS>
-2.4602201

>  <mr>
7.1550646

>  <mutagenic>
0

>  <nmol>
1

>  <opr_brigid>
6

>  <opr_leadlike>
1

>  <opr_nring>
1

>  <opr_nrot>
5

>  <opr_violation>
0

>  <PC+>
0

>  <PC->
0

>  <PEOE_PC+>
1.306141

>  <PEOE_PC->
-1.306141

>  <PEOE_RPC+>
0.18323134

>  <PEOE_RPC->
0.24853431

>  <PEOE_VSA+0>
74.945724

>  <PEOE_VSA+1>
34.519257

>  <PEOE_VSA+2>
0

>  <PEOE_VSA+3>
8.6190128

>  <PEOE_VSA+4>
12.949531

>  <PEOE_VSA+5>
0

>  <PEOE_VSA+6>
0

>  <PEOE_VSA-0>
68.297081

>  <PEOE_VSA-1>
74.260063

>  <PEOE_VSA-2>
0

>  <PEOE_VSA-3>
0

>  <PEOE_VSA-4>
0

>  <PEOE_VSA-5>
13.566921

>  <PEOE_VSA-6>
0.13689101

>  <PEOE_VSA_FHYD>
0.90722638

>  <PEOE_VSA_FNEG>
0.5439052

>  <PEOE_VSA_FPNEG>
0.04769953

>  <PEOE_VSA_FPOL>
0.092773594

>  <PEOE_VSA_FPOS>
0.4560948

>  <PEOE_VSA_FPPOS>
0.045074068

>  <PEOE_VSA_HYD>
260.64114

>  <PEOE_VSA_NEG>
156.26096

>  <PEOE_VSA_PNEG>
13.703812

>  <PEOE_VSA_POL>
26.653343

>  <PEOE_VSA_POS>
131.03352

>  <PEOE_VSA_PPOS>
12.949531

>  <petitjean>
0.44444445

>  <petitjeanSC>
0.80000001

>  <Q_PC+>
0

>  <Q_PC->
0

>  <Q_RPC+>
0

>  <Q_RPC->
0

>  <Q_VSA_FHYD>
1

>  <Q_VSA_FNEG>
0

>  <Q_VSA_FPNEG>
0

>  <Q_VSA_FPOL>
0

>  <Q_VSA_FPOS>
1

>  <Q_VSA_FPPOS>
0

>  <Q_VSA_HYD>
287.29449

>  <Q_VSA_NEG>
0

>  <Q_VSA_PNEG>
0

>  <Q_VSA_POL>
0

>  <Q_VSA_POS>
287.29449

>  <Q_VSA_PPOS>
0

>  <radius>
5

>  <reactive>
0

>  <rings>
1

>  <RPC+>
0

>  <RPC->
0

>  <rsynth>
1

>  <SlogP>
2.58374

>  <SlogP_VSA0>
0

>  <SlogP_VSA1>
26.393848

>  <SlogP_VSA2>
23.862217

>  <SlogP_VSA3>
55.318733

>  <SlogP_VSA4>
6.37115

>  <SlogP_VSA5>
0

>  <SlogP_VSA6>
0

>  <SlogP_VSA7>
52.929554

>  <SlogP_VSA8>
0

>  <SlogP_VSA9>
136.06081

>  <SMR>
7.2333698

>  <SMR_VSA0>
23.862217

>  <SMR_VSA1>
3.1243138

>  <SMR_VSA2>
0

>  <SMR_VSA3>
6.37115

>  <SMR_VSA4>
20.767498

>  <SMR_VSA5>
52.929554

>  <SMR_VSA6>
60.577518

>  <SMR_VSA7>
133.30406

>  <TPSA>
32.34

>  <VAdjEq>
0.52255934

>  <VAdjMa>
5.0874629

>  <VDistEq>
3.0146227

>  <VDistMa>
7.87187

>  <vdw_area>
287.29449

>  <vdw_vol>
359.67221

>  <vsa_acc>
13.566921

>  <vsa_acid>
0

>  <vsa_base>
0

>  <vsa_don>
5.6825762

>  <vsa_hyd>
237.07443

>  <vsa_other>
12.949531

>  <vsa_pol>
19.249496

>  <Weight>
234.343

>  <weinerPath>
556

>  <weinerPol>
23

>  <zagreb>
78

$$$$