S(CC[C@H](N)C(O)=O)C
  MOE2013           2D

  9  8  0  0  1  0  0  0  0  0999 V2000
    0.0000    0.0000    0.0000 S   0  0  0  0  0  0  0  0  0  0  0  0
   -0.7450   -1.3020    0.0000 C   0  0  0  0  0  0  0  0  0  0  0  0
   -2.2450   -1.3080    0.0000 C   0  0  0  0  0  0  0  0  0  0  0  0
   -2.9900   -2.6100    0.0000 C   0  0  2  0  0  0  0  0  0  0  0  0
   -2.2350   -3.9060    0.0000 N   0  0  0  0  0  0  0  0  0  0  0  0
   -4.4900   -2.6160    0.0000 C   0  0  0  0  0  0  0  0  0  0  0  0
   -5.2450   -1.3190    0.0000 O   0  0  0  0  0  0  0  0  0  0  0  0
   -5.2350   -3.9170    0.0000 O   0  0  0  0  0  0  0  0  0  0  0  0
    1.5000    0.0060    0.0000 C   0  0  0  0  0  0  0  0  0  0  0  0
  1  2  1  0  0  0  0
  1  9  1  0  0  0  0
  2  3  1  0  0  0  0
  3  4  1  0  0  0  0
  4  5  1  6  0  0  0
  4  6  1  0  0  0  0
  6  7  1  0  0  0  0
  6  8  2  0  0  0  0
M  END
>  <Index>
625

>  <ID>
HT1225

>  <class>
0

>  <apol>
21.738724

>  <ast_fraglike>
1

>  <ast_fraglike_ext>
0

>  <ast_violation>
0

>  <ast_violation_ext>
1

>  <a_acc>
3

>  <a_acid>
0

>  <a_aro>
0

>  <a_base>
0

>  <a_count>
20

>  <a_don>
3

>  <a_donacc>
6

>  <a_heavy>
9

>  <a_hyd>
5

>  <a_IC>
34.775173

>  <a_ICM>
1.7387587

>  <a_nB>
0

>  <a_nBr>
0

>  <a_nC>
5

>  <a_nCl>
0

>  <a_nF>
0

>  <a_nH>
11

>  <a_nI>
0

>  <a_nN>
1

>  <a_nO>
2

>  <a_nP>
0

>  <a_nS>
1

>  <balabanJ>
3.1746612

>  <BCUT_PEOE_0>
-2.5521197

>  <BCUT_PEOE_1>
-0.32579055

>  <BCUT_PEOE_2>
0.3035143

>  <BCUT_PEOE_3>
2.5603545

>  <BCUT_SLOGP_0>
-2.7380273

>  <BCUT_SLOGP_1>
-0.23681159

>  <BCUT_SLOGP_2>
0.38433433

>  <BCUT_SLOGP_3>
2.5407288

>  <BCUT_SMR_0>
-2.2915654

>  <BCUT_SMR_1>
-0.14572059

>  <BCUT_SMR_2>
0.49472278

>  <BCUT_SMR_3>
2.8285995

>  <bpol>
14.603277

>  <b_1rotN>
4

>  <b_1rotR>
0.5

>  <b_ar>
0

>  <b_count>
19

>  <b_double>
1

>  <b_heavy>
8

>  <b_max1len>
7

>  <b_rotN>
4

>  <b_rotR>
0.5

>  <b_single>
18

>  <b_triple>
0

>  <chi0>
7.276021

>  <chi0v>
6.1491208

>  <chi0v_C>
3.4915638

>  <chi0_C>
3.5689142

>  <chi1>
4.1807394

>  <chi1v>
4.048758

>  <chi1v_C>
1.1969234

>  <chi1_C>
1.2415817

>  <chiral>
1

>  <chiral_u>
0

>  <density>
0.81628144

>  <diameter>
6

>  <FCharge>
0

>  <GCUT_PEOE_0>
-0.81171721

>  <GCUT_PEOE_1>
-0.34283403

>  <GCUT_PEOE_2>
0.016112329

>  <GCUT_PEOE_3>
2.1277895

>  <GCUT_SLOGP_0>
-1.363498

>  <GCUT_SLOGP_1>
-0.25087246

>  <GCUT_SLOGP_2>
0.1430551

>  <GCUT_SLOGP_3>
2.1224022

>  <GCUT_SMR_0>
-0.50812888

>  <GCUT_SMR_1>
-0.16312999

>  <GCUT_SMR_2>
0.21261187

>  <GCUT_SMR_3>
2.3848057

>  <Kier1>
9

>  <Kier2>
4.8395061

>  <Kier3>
4.5

>  <KierA1>
9.6657495

>  <KierA2>
5.2480001

>  <KierA3>
4.9251251

>  <KierFlex>
5.6362062

>  <lip_acc>
3

>  <lip_don>
3

>  <lip_druglike>
1

>  <lip_violation>
0

>  <logP(o/w)>
-2.40273

>  <logS>
-0.47139001

>  <mr>
3.8096907

>  <mutagenic>
0

>  <nmol>
1

>  <opr_brigid>
0

>  <opr_leadlike>
1

>  <opr_nring>
0

>  <opr_nrot>
4

>  <opr_violation>
0

>  <PC+>
0

>  <PC->
0

>  <PEOE_PC+>
1.1191438

>  <PEOE_PC->
-1.1191438

>  <PEOE_RPC+>
0.24712235

>  <PEOE_RPC->
0.29495493

>  <PEOE_VSA+0>
29.857702

>  <PEOE_VSA+1>
7.4113464

>  <PEOE_VSA+2>
17.238026

>  <PEOE_VSA+3>
0

>  <PEOE_VSA+4>
10.324173

>  <PEOE_VSA+5>
14.708499

>  <PEOE_VSA+6>
0

>  <PEOE_VSA-0>
40.102428

>  <PEOE_VSA-1>
0

>  <PEOE_VSA-2>
0

>  <PEOE_VSA-3>
19.760618

>  <PEOE_VSA-4>
0

>  <PEOE_VSA-5>
13.566921

>  <PEOE_VSA-6>
14.418659

>  <PEOE_VSA_FHYD>
0.68326205

>  <PEOE_VSA_FNEG>
0.52481914

>  <PEOE_VSA_FPNEG>
0.16718951

>  <PEOE_VSA_FPOL>
0.31673798

>  <PEOE_VSA_FPOS>
0.47518083

>  <PEOE_VSA_FPPOS>
0.14954846

>  <PEOE_VSA_HYD>
114.37012

>  <PEOE_VSA_NEG>
87.848625

>  <PEOE_VSA_PNEG>
27.98558

>  <PEOE_VSA_POL>
53.018253

>  <PEOE_VSA_POS>
79.539749

>  <PEOE_VSA_PPOS>
25.032671

>  <petitjean>
0.5

>  <petitjeanSC>
1

>  <Q_PC+>
0

>  <Q_PC->
0

>  <Q_RPC+>
0

>  <Q_RPC->
0

>  <Q_VSA_FHYD>
1

>  <Q_VSA_FNEG>
0

>  <Q_VSA_FPNEG>
0

>  <Q_VSA_FPOL>
0

>  <Q_VSA_FPOS>
1

>  <Q_VSA_FPPOS>
0

>  <Q_VSA_HYD>
167.38837

>  <Q_VSA_NEG>
0

>  <Q_VSA_PNEG>
0

>  <Q_VSA_POL>
0

>  <Q_VSA_POS>
167.38837

>  <Q_VSA_PPOS>
0

>  <radius>
3

>  <reactive>
0

>  <rings>
0

>  <RPC+>
0

>  <RPC->
0

>  <rsynth>
1

>  <SlogP>
0.1514

>  <SlogP_VSA0>
32.897186

>  <SlogP_VSA1>
7.7454643

>  <SlogP_VSA2>
27.844185

>  <SlogP_VSA3>
42.61879

>  <SlogP_VSA4>
0

>  <SlogP_VSA5>
31.691174

>  <SlogP_VSA6>
0

>  <SlogP_VSA7>
0

>  <SlogP_VSA8>
18.868406

>  <SlogP_VSA9>
32.21954

>  <SMR>
3.86112

>  <SMR_VSA0>
23.862217

>  <SMR_VSA1>
0

>  <SMR_VSA2>
25.385227

>  <SMR_VSA3>
3.9819686

>  <SMR_VSA4>
32.897186

>  <SMR_VSA5>
18.868406

>  <SMR_VSA6>
24.979029

>  <SMR_VSA7>
63.910713

>  <TPSA>
63.32

>  <VAdjEq>
0.71696228

>  <VAdjMa>
4

>  <VDistEq>
2.4438426

>  <VDistMa>
5.9714723

>  <vdw_area>
167.38837

>  <vdw_vol>
182.79724

>  <vsa_acc>
0

>  <vsa_acid>
0

>  <vsa_base>
0

>  <vsa_don>
0

>  <vsa_hyd>
91.437729

>  <vsa_other>
14.708499

>  <vsa_pol>
44.876331

>  <Weight>
149.214

>  <weinerPath>
102

>  <weinerPol>
8

>  <zagreb>
34

$$$$