OC(=O)C(N)C(C)C
  MOE2013           2D

  8  7  0  0  1  0  0  0  0  0999 V2000
    0.0000    0.0000    0.0000 O   0  0  0  0  0  0  0  0  0  0  0  0
    1.2990   -0.7500    0.0000 C   0  0  0  0  0  0  0  0  0  0  0  0
    1.2990   -2.2500    0.0000 O   0  0  0  0  0  0  0  0  0  0  0  0
    2.5980    0.0000    0.0000 C   0  0  3  0  0  0  0  0  0  0  0  0
    2.5980    1.5000    0.0000 N   0  0  0  0  0  0  0  0  0  0  0  0
    3.8970   -0.7500    0.0000 C   0  0  0  0  0  0  0  0  0  0  0  0
    5.1960    0.0000    0.0000 C   0  0  0  0  0  0  0  0  0  0  0  0
    3.8970   -2.2500    0.0000 C   0  0  0  0  0  0  0  0  0  0  0  0
  1  2  1  0  0  0  0
  2  3  2  0  0  0  0
  2  4  1  0  0  0  0
  4  5  1  0  0  0  0
  4  6  1  0  0  0  0
  6  7  1  0  0  0  0
  6  8  1  0  0  0  0
M  END
>  <Index>
643

>  <ID>
HT1259

>  <class>
0

>  <apol>
18.838722

>  <ast_fraglike>
1

>  <ast_fraglike_ext>
1

>  <ast_violation>
0

>  <ast_violation_ext>
0

>  <a_acc>
3

>  <a_acid>
0

>  <a_aro>
0

>  <a_base>
0

>  <a_count>
19

>  <a_don>
3

>  <a_donacc>
6

>  <a_heavy>
8

>  <a_hyd>
4

>  <a_IC>
29.047234

>  <a_ICM>
1.5288018

>  <a_nB>
0

>  <a_nBr>
0

>  <a_nC>
5

>  <a_nCl>
0

>  <a_nF>
0

>  <a_nH>
11

>  <a_nI>
0

>  <a_nN>
1

>  <a_nO>
2

>  <a_nP>
0

>  <a_nS>
0

>  <balabanJ>
3.499558

>  <BCUT_PEOE_0>
-2.6170063

>  <BCUT_PEOE_1>
-0.42574582

>  <BCUT_PEOE_2>
0.38654605

>  <BCUT_PEOE_3>
2.6097949

>  <BCUT_SLOGP_0>
-2.7662134

>  <BCUT_SLOGP_1>
-0.38189414

>  <BCUT_SLOGP_2>
0.35486647

>  <BCUT_SLOGP_3>
2.6091409

>  <BCUT_SMR_0>
-2.3779244

>  <BCUT_SMR_1>
-0.25845349

>  <BCUT_SMR_2>
0.500714

>  <BCUT_SMR_3>
2.8452103

>  <bpol>
12.323277

>  <b_1rotN>
2

>  <b_1rotR>
0.2857143

>  <b_ar>
0

>  <b_count>
18

>  <b_double>
1

>  <b_heavy>
7

>  <b_max1len>
5

>  <b_rotN>
2

>  <b_rotR>
0.2857143

>  <b_single>
17

>  <b_triple>
0

>  <chi0>
6.7320509

>  <chi0v>
5.0875125

>  <chi0v_C>
3.6547005

>  <chi0_C>
3.7320509

>  <chi1>
3.5534179

>  <chi1v>
2.5377734

>  <chi1v_C>
1.776709

>  <chi1_C>
1.8213673

>  <chiral>
1

>  <chiral_u>
1

>  <density>
0.7302838

>  <diameter>
4

>  <FCharge>
0

>  <GCUT_PEOE_0>
-0.81150317

>  <GCUT_PEOE_1>
-0.3361769

>  <GCUT_PEOE_2>
0.028214213

>  <GCUT_PEOE_3>
2.1852553

>  <GCUT_SLOGP_0>
-1.3636407

>  <GCUT_SLOGP_1>
-0.30768204

>  <GCUT_SLOGP_2>
0.054200001

>  <GCUT_SLOGP_3>
2.1652937

>  <GCUT_SMR_0>
-0.52751148

>  <GCUT_SMR_1>
-0.19826345

>  <GCUT_SMR_2>
0.11566492

>  <GCUT_SMR_3>
2.3963785

>  <Kier1>
8

>  <Kier2>
3.1111112

>  <Kier3>
2.8125

>  <KierA1>
7.054143

>  <KierA2>
2.6874444

>  <KierA3>
2.3859844

>  <KierFlex>
2.3697021

>  <lip_acc>
3

>  <lip_don>
3

>  <lip_druglike>
1

>  <lip_violation>
0

>  <logP(o/w)>
-2.0857301

>  <logS>
-0.0084899999

>  <mr>
3.0659394

>  <mutagenic>
0

>  <nmol>
1

>  <opr_brigid>
0

>  <opr_leadlike>
1

>  <opr_nring>
0

>  <opr_nrot>
2

>  <opr_violation>
0

>  <PC+>
0

>  <PC->
0

>  <PEOE_PC+>
1.0564072

>  <PEOE_PC->
-1.0564072

>  <PEOE_RPC+>
0.26201424

>  <PEOE_RPC->
0.3124651

>  <PEOE_VSA+0>
29.857702

>  <PEOE_VSA+1>
7.4113464

>  <PEOE_VSA+2>
17.238026

>  <PEOE_VSA+3>
0

>  <PEOE_VSA+4>
10.324173

>  <PEOE_VSA+5>
14.708499

>  <PEOE_VSA+6>
0

>  <PEOE_VSA-0>
0

>  <PEOE_VSA-1>
37.495354

>  <PEOE_VSA-2>
0

>  <PEOE_VSA-3>
0

>  <PEOE_VSA-4>
0

>  <PEOE_VSA-5>
13.566921

>  <PEOE_VSA-6>
14.418659

>  <PEOE_VSA_FHYD>
0.63440901

>  <PEOE_VSA_FNEG>
0.45152825

>  <PEOE_VSA_FPNEG>
0.19297647

>  <PEOE_VSA_FPOL>
0.36559096

>  <PEOE_VSA_FPOS>
0.54847175

>  <PEOE_VSA_FPPOS>
0.1726145

>  <PEOE_VSA_HYD>
92.002426

>  <PEOE_VSA_NEG>
65.480934

>  <PEOE_VSA_PNEG>
27.98558

>  <PEOE_VSA_POL>
53.018253

>  <PEOE_VSA_POS>
79.539749

>  <PEOE_VSA_PPOS>
25.032671

>  <petitjean>
0.5

>  <petitjeanSC>
1

>  <Q_PC+>
0

>  <Q_PC->
0

>  <Q_RPC+>
0

>  <Q_RPC->
0

>  <Q_VSA_FHYD>
1

>  <Q_VSA_FNEG>
0

>  <Q_VSA_FPNEG>
0

>  <Q_VSA_FPOL>
0

>  <Q_VSA_FPOS>
1

>  <Q_VSA_FPPOS>
0

>  <Q_VSA_HYD>
145.02068

>  <Q_VSA_NEG>
0

>  <Q_VSA_PNEG>
0

>  <Q_VSA_POL>
0

>  <Q_VSA_POS>
145.02068

>  <Q_VSA_PPOS>
0

>  <radius>
2

>  <reactive>
0

>  <rings>
0

>  <RPC+>
0

>  <RPC->
0

>  <rsynth>
1

>  <SlogP>
0.054299999

>  <SlogP_VSA0>
32.897186

>  <SlogP_VSA1>
7.7454643

>  <SlogP_VSA2>
27.844185

>  <SlogP_VSA3>
25.385227

>  <SlogP_VSA4>
4.4107962

>  <SlogP_VSA5>
0

>  <SlogP_VSA6>
0

>  <SlogP_VSA7>
0

>  <SlogP_VSA8>
0

>  <SlogP_VSA9>
66.652031

>  <SMR>
3.04492

>  <SMR_VSA0>
23.862217

>  <SMR_VSA1>
0

>  <SMR_VSA2>
29.796022

>  <SMR_VSA3>
3.9819686

>  <SMR_VSA4>
32.897186

>  <SMR_VSA5>
0

>  <SMR_VSA6>
7.7454643

>  <SMR_VSA7>
66.652031

>  <TPSA>
63.32

>  <VAdjEq>
0.75787848

>  <VAdjMa>
3.8073549

>  <VDistEq>
1.9437546

>  <VDistMa>
5.6679201

>  <vdw_area>
145.02068

>  <vdw_vol>
160.41435

>  <vsa_acc>
0

>  <vsa_acid>
0

>  <vsa_base>
0

>  <vsa_don>
0

>  <vsa_hyd>
67.724991

>  <vsa_other>
14.708499

>  <vsa_pol>
44.876331

>  <Weight>
117.14799

>  <weinerPath>
65

>  <weinerPol>
8

>  <zagreb>
32

$$$$