O(CC(=O)N[C@H]([C@@H](O)C[C@@H](NC(=O)[C@@H](N1CCCNC1=O)C(C)C)Cc1ccccc1)Cc1ccccc1)c1c(cccc1C)C
  MOE2013           2D

 46 49  0  0  1  0  0  0  0  0999 V2000
    0.0000    0.0000    0.0000 O   0  0  0  0  0  0  0  0  0  0  0  0
   -0.7420   -1.3030    0.0000 C   0  0  0  0  0  0  0  0  0  0  0  0
   -2.2420   -1.3120    0.0000 C   0  0  0  0  0  0  0  0  0  0  0  0
   -3.0000   -0.0180    0.0000 O   0  0  0  0  0  0  0  0  0  0  0  0
   -2.9850   -2.6160    0.0000 N   0  0  0  0  0  0  0  0  0  0  0  0
   -4.4850   -2.6250    0.0000 C   0  0  2  0  0  0  0  0  0  0  0  0
   -5.2420   -1.3300    0.0000 C   0  0  1  0  0  0  0  0  0  0  0  0
   -4.5000   -0.0270    0.0000 O   0  0  0  0  0  0  0  0  0  0  0  0
   -6.7420   -1.3390    0.0000 C   0  0  0  0  0  0  0  0  0  0  0  0
   -7.5000   -0.0440    0.0000 C   0  0  1  0  0  0  0  0  0  0  0  0
   -9.0000   -0.0530    0.0000 N   0  0  0  0  0  0  0  0  0  0  0  0
   -9.7420   -1.3560    0.0000 C   0  0  0  0  0  0  0  0  0  0  0  0
   -8.9850   -2.6510    0.0000 O   0  0  0  0  0  0  0  0  0  0  0  0
  -11.2420   -1.3650    0.0000 C   0  0  1  0  0  0  0  0  0  0  0  0
  -11.9840   -2.6690    0.0000 N   0  0  0  0  0  0  0  0  0  0  0  0
  -11.2270   -3.9630    0.0000 C   0  0  0  0  0  0  0  0  0  0  0  0
  -11.9690   -5.2670    0.0000 C   0  0  0  0  0  0  0  0  0  0  0  0
  -13.4690   -5.2760    0.0000 C   0  0  0  0  0  0  0  0  0  0  0  0
  -14.2270   -3.9810    0.0000 N   0  0  0  0  0  0  0  0  0  0  0  0
  -13.4840   -2.6780    0.0000 C   0  0  0  0  0  0  0  0  0  0  0  0
  -14.2420   -1.3830    0.0000 O   0  0  0  0  0  0  0  0  0  0  0  0
  -12.0000   -0.0710    0.0000 C   0  0  0  0  0  0  0  0  0  0  0  0
  -11.2570    1.2330    0.0000 C   0  0  0  0  0  0  0  0  0  0  0  0
  -13.5000   -0.0800    0.0000 C   0  0  0  0  0  0  0  0  0  0  0  0
   -6.7580    1.2590    0.0000 C   0  0  0  0  0  0  0  0  0  0  0  0
   -7.5150    2.5540    0.0000 C   0  0  0  0  0  0  0  0  0  0  0  0
   -6.7730    3.8570    0.0000 C   0  0  0  0  0  0  0  0  0  0  0  0
   -7.5300    5.1520    0.0000 C   0  0  0  0  0  0  0  0  0  0  0  0
   -9.0300    5.1430    0.0000 C   0  0  0  0  0  0  0  0  0  0  0  0
   -9.7730    3.8400    0.0000 C   0  0  0  0  0  0  0  0  0  0  0  0
   -9.0150    2.5450    0.0000 C   0  0  0  0  0  0  0  0  0  0  0  0
   -5.2270   -3.9280    0.0000 C   0  0  0  0  0  0  0  0  0  0  0  0
   -4.4690   -5.2230    0.0000 C   0  0  0  0  0  0  0  0  0  0  0  0
   -2.9690   -5.2140    0.0000 C   0  0  0  0  0  0  0  0  0  0  0  0
   -2.2120   -6.5080    0.0000 C   0  0  0  0  0  0  0  0  0  0  0  0
   -2.9540   -7.8120    0.0000 C   0  0  0  0  0  0  0  0  0  0  0  0
   -4.4540   -7.8210    0.0000 C   0  0  0  0  0  0  0  0  0  0  0  0
   -5.2120   -6.5260    0.0000 C   0  0  0  0  0  0  0  0  0  0  0  0
    1.5000    0.0090    0.0000 C   0  0  0  0  0  0  0  0  0  0  0  0
    2.2580   -1.2860    0.0000 C   0  0  0  0  0  0  0  0  0  0  0  0
    3.7580   -1.2770    0.0000 C   0  0  0  0  0  0  0  0  0  0  0  0
    4.5000    0.0270    0.0000 C   0  0  0  0  0  0  0  0  0  0  0  0
    3.7420    1.3210    0.0000 C   0  0  0  0  0  0  0  0  0  0  0  0
    2.2420    1.3120    0.0000 C   0  0  0  0  0  0  0  0  0  0  0  0
    1.4850    2.6070    0.0000 C   0  0  0  0  0  0  0  0  0  0  0  0
    1.5150   -2.5890    0.0000 C   0  0  0  0  0  0  0  0  0  0  0  0
  1  2  1  0  0  0  0
  1 39  1  0  0  0  0
  2  3  1  0  0  0  0
  3  4  2  0  0  0  0
  3  5  1  0  0  0  0
  6  5  1  1  0  0  0
  6  7  1  0  0  0  0
  6 32  1  0  0  0  0
  7  8  1  6  0  0  0
  7  9  1  0  0  0  0
  9 10  1  0  0  0  0
 10 11  1  0  0  0  0
 10 25  1  1  0  0  0
 11 12  1  0  0  0  0
 12 13  2  0  0  0  0
 14 12  1  1  0  0  0
 14 15  1  0  0  0  0
 14 22  1  0  0  0  0
 15 16  1  0  0  0  0
 15 20  1  0  0  0  0
 16 17  1  0  0  0  0
 17 18  1  0  0  0  0
 18 19  1  0  0  0  0
 19 20  1  0  0  0  0
 20 21  2  0  0  0  0
 22 23  1  0  0  0  0
 22 24  1  0  0  0  0
 25 26  1  0  0  0  0
 26 27  1  0  0  0  0
 26 31  2  0  0  0  0
 27 28  2  0  0  0  0
 28 29  1  0  0  0  0
 29 30  2  0  0  0  0
 30 31  1  0  0  0  0
 32 33  1  0  0  0  0
 33 34  1  0  0  0  0
 33 38  2  0  0  0  0
 34 35  2  0  0  0  0
 35 36  1  0  0  0  0
 36 37  2  0  0  0  0
 37 38  1  0  0  0  0
 39 40  1  0  0  0  0
 39 44  2  0  0  0  0
 40 41  2  0  0  0  0
 40 46  1  0  0  0  0
 41 42  1  0  0  0  0
 42 43  2  0  0  0  0
 43 44  1  0  0  0  0
 44 45  1  0  0  0  0
M  END
>  <Index>
629

>  <ID>
HT1234

>  <class>
0

>  <apol>
105.53606

>  <ast_fraglike>
0

>  <ast_fraglike_ext>
0

>  <ast_violation>
4

>  <ast_violation_ext>
6

>  <a_acc>
5

>  <a_acid>
0

>  <a_aro>
18

>  <a_base>
0

>  <a_count>
94

>  <a_don>
4

>  <a_donacc>
9

>  <a_heavy>
46

>  <a_hyd>
34

>  <a_IC>
135.69374

>  <a_ICM>
1.4435503

>  <a_nB>
0

>  <a_nBr>
0

>  <a_nC>
37

>  <a_nCl>
0

>  <a_nF>
0

>  <a_nH>
48

>  <a_nI>
0

>  <a_nN>
4

>  <a_nO>
5

>  <a_nP>
0

>  <a_nS>
0

>  <balabanJ>
1.4414175

>  <BCUT_PEOE_0>
-2.740799

>  <BCUT_PEOE_1>
-0.53320593

>  <BCUT_PEOE_2>
0.58323425

>  <BCUT_PEOE_3>
2.7226503

>  <BCUT_SLOGP_0>
-2.8908582

>  <BCUT_SLOGP_1>
-0.49006084

>  <BCUT_SLOGP_2>
0.67221332

>  <BCUT_SLOGP_3>
2.6539998

>  <BCUT_SMR_0>
-2.4818423

>  <BCUT_SMR_1>
-0.39308387

>  <BCUT_SMR_2>
0.71356237

>  <BCUT_SMR_3>
2.9739811

>  <bpol>
61.223934

>  <b_1rotN>
15

>  <b_1rotR>
0.30612245

>  <b_ar>
18

>  <b_count>
97

>  <b_double>
3

>  <b_heavy>
49

>  <b_max1len>
7

>  <b_rotN>
17

>  <b_rotR>
0.34693879

>  <b_single>
76

>  <b_triple>
0

>  <chi0>
33.053467

>  <chi0v>
27.369473

>  <chi0v_C>
23.342052

>  <chi0_C>
25.64769

>  <chi1>
22.117102

>  <chi1v>
16.211388

>  <chi1v_C>
12.36908

>  <chi1_C>
15.283296

>  <chiral>
4

>  <chiral_u>
0

>  <density>
0.69980162

>  <diameter>
18

>  <FCharge>
0

>  <GCUT_PEOE_0>
-0.83836985

>  <GCUT_PEOE_1>
-0.39001203

>  <GCUT_PEOE_2>
0.07839682

>  <GCUT_PEOE_3>
3.0841961

>  <GCUT_SLOGP_0>
-1.1666027

>  <GCUT_SLOGP_1>
-0.31379488

>  <GCUT_SLOGP_2>
0.13885628

>  <GCUT_SLOGP_3>
3.0626185

>  <GCUT_SMR_0>
-0.53156632

>  <GCUT_SMR_1>
-0.21605732

>  <GCUT_SMR_2>
0.16633688

>  <GCUT_SMR_3>
3.3242803

>  <Kier1>
38.796333

>  <Kier2>
20

>  <Kier3>
12.380726

>  <KierA1>
29.576342

>  <KierA2>
15.149489

>  <KierA3>
9.3364611

>  <KierFlex>
9.7405748

>  <lip_acc>
9

>  <lip_don>
4

>  <lip_druglike>
1

>  <lip_violation>
1

>  <logP(o/w)>
5.1890001

>  <logS>
-6.7484698

>  <mr>
18.201944

>  <mutagenic>
0

>  <nmol>
1

>  <opr_brigid>
24

>  <opr_leadlike>
0

>  <opr_nring>
4

>  <opr_nrot>
15

>  <opr_violation>
3

>  <PC+>
0

>  <PC->
0

>  <PEOE_PC+>
4.0186057

>  <PEOE_PC->
-4.0186057

>  <PEOE_RPC+>
0.079480737

>  <PEOE_RPC->
0.096969649

>  <PEOE_VSA+0>
136.16525

>  <PEOE_VSA+1>
97.551743

>  <PEOE_VSA+2>
18.097254

>  <PEOE_VSA+3>
25.857038

>  <PEOE_VSA+4>
36.223236

>  <PEOE_VSA+5>
0

>  <PEOE_VSA+6>
17.440542

>  <PEOE_VSA-0>
81.134766

>  <PEOE_VSA-1>
196.80911

>  <PEOE_VSA-2>
0

>  <PEOE_VSA-3>
0

>  <PEOE_VSA-4>
13.566921

>  <PEOE_VSA-5>
27.133842

>  <PEOE_VSA-6>
10.68197

>  <PEOE_VSA_FHYD>
0.84099805

>  <PEOE_VSA_FNEG>
0.49847996

>  <PEOE_VSA_FPNEG>
0.077774651

>  <PEOE_VSA_FPOL>
0.15900198

>  <PEOE_VSA_FPOS>
0.50152004

>  <PEOE_VSA_FPPOS>
0.081227317

>  <PEOE_VSA_HYD>
555.61517

>  <PEOE_VSA_NEG>
329.3266

>  <PEOE_VSA_PNEG>
51.382732

>  <PEOE_VSA_POL>
105.04651

>  <PEOE_VSA_POS>
331.33508

>  <PEOE_VSA_PPOS>
53.663776

>  <petitjean>
0.5

>  <petitjeanSC>
1

>  <Q_PC+>
0

>  <Q_PC->
0

>  <Q_RPC+>
0

>  <Q_RPC->
0

>  <Q_VSA_FHYD>
1

>  <Q_VSA_FNEG>
0

>  <Q_VSA_FPNEG>
0

>  <Q_VSA_FPOL>
0

>  <Q_VSA_FPOS>
1

>  <Q_VSA_FPPOS>
0

>  <Q_VSA_HYD>
660.66168

>  <Q_VSA_NEG>
0

>  <Q_VSA_PNEG>
0

>  <Q_VSA_POL>
0

>  <Q_VSA_POS>
660.66168

>  <Q_VSA_PPOS>
0

>  <radius>
9

>  <reactive>
0

>  <rings>
4

>  <RPC+>
0

>  <RPC->
0

>  <rsynth>
1

>  <SlogP>
4.3280802

>  <SlogP_VSA0>
90.417366

>  <SlogP_VSA1>
18.471838

>  <SlogP_VSA2>
66.138985

>  <SlogP_VSA3>
57.805416

>  <SlogP_VSA4>
17.153095

>  <SlogP_VSA5>
37.736813

>  <SlogP_VSA6>
0

>  <SlogP_VSA7>
229.36139

>  <SlogP_VSA8>
37.736813

>  <SlogP_VSA9>
162.4097

>  <SMR>
17.95359

>  <SMR_VSA0>
71.586647

>  <SMR_VSA1>
39.50943

>  <SMR_VSA2>
58.443047

>  <SMR_VSA3>
36.400284

>  <SMR_VSA4>
0

>  <SMR_VSA5>
304.83502

>  <SMR_VSA6>
73.152939

>  <SMR_VSA7>
133.30406

>  <TPSA>
120

>  <VAdjEq>
0.27052692

>  <VAdjMa>
6.6147099

>  <VDistEq>
3.957628

>  <VDistMa>
10.805804

>  <vdw_area>
660.66168

>  <vdw_vol>
898.5603

>  <vsa_acc>
43.204517

>  <vsa_acid>
0

>  <vsa_base>
0

>  <vsa_don>
17.047728

>  <vsa_hyd>
497.09409

>  <vsa_other>
43.339603

>  <vsa_pol>
73.819168

>  <Weight>
628.81396

>  <weinerPath>
8131

>  <weinerPol>
70

>  <zagreb>
230

$$$$