O(C(=O)C)c1c(C)c(C)c(OCC(O)CNC(C)C)cc1C
  MOE2013           2D

 22 22  0  0  1  0  0  0  0  0999 V2000
    0.0000    0.0000    0.0000 O   0  0  0  0  0  0  0  0  0  0  0  0
   -0.7500   -1.2990    0.0000 C   0  0  0  0  0  0  0  0  0  0  0  0
   -2.2500   -1.2980    0.0000 O   0  0  0  0  0  0  0  0  0  0  0  0
   -0.0010   -2.5980    0.0000 C   0  0  0  0  0  0  0  0  0  0  0  0
    1.5000    0.0000    0.0000 C   0  0  0  0  0  0  0  0  0  0  0  0
    2.2500    1.2980    0.0000 C   0  0  0  0  0  0  0  0  0  0  0  0
    1.5010    2.5980    0.0000 C   0  0  0  0  0  0  0  0  0  0  0  0
    3.7500    1.2980    0.0000 C   0  0  0  0  0  0  0  0  0  0  0  0
    4.5010    2.5970    0.0000 C   0  0  0  0  0  0  0  0  0  0  0  0
    4.5000   -0.0010    0.0000 C   0  0  0  0  0  0  0  0  0  0  0  0
    6.0000   -0.0020    0.0000 O   0  0  0  0  0  0  0  0  0  0  0  0
    6.7500   -1.3010    0.0000 C   0  0  0  0  0  0  0  0  0  0  0  0
    8.2500   -1.3010    0.0000 C   0  0  3  0  0  0  0  0  0  0  0  0
    9.0000   -0.0030    0.0000 O   0  0  0  0  0  0  0  0  0  0  0  0
    8.9990   -2.6010    0.0000 C   0  0  0  0  0  0  0  0  0  0  0  0
   10.4990   -2.6010    0.0000 N   0  0  0  0  0  0  0  0  0  0  0  0
   11.2490   -3.9000    0.0000 C   0  0  0  0  0  0  0  0  0  0  0  0
   12.7490   -3.9010    0.0000 C   0  0  0  0  0  0  0  0  0  0  0  0
   10.4990   -5.1990    0.0000 C   0  0  0  0  0  0  0  0  0  0  0  0
    3.7500   -1.3000    0.0000 C   0  0  0  0  0  0  0  0  0  0  0  0
    2.2500   -1.3000    0.0000 C   0  0  0  0  0  0  0  0  0  0  0  0
    1.4990   -2.5990    0.0000 C   0  0  0  0  0  0  0  0  0  0  0  0
  1  2  1  0  0  0  0
  1  5  1  0  0  0  0
  2  3  2  0  0  0  0
  2  4  1  0  0  0  0
  5  6  1  0  0  0  0
  5 21  2  0  0  0  0
  6  7  1  0  0  0  0
  6  8  2  0  0  0  0
  8  9  1  0  0  0  0
  8 10  1  0  0  0  0
 10 11  1  0  0  0  0
 10 20  2  0  0  0  0
 11 12  1  0  0  0  0
 12 13  1  0  0  0  0
 13 14  1  0  0  0  0
 13 15  1  0  0  0  0
 15 16  1  0  0  0  0
 16 17  1  0  0  0  0
 17 18  1  0  0  0  0
 17 19  1  0  0  0  0
 20 21  1  0  0  0  0
 21 22  1  0  0  0  0
M  END
>  <Index>
700

>  <ID>
HT1374

>  <class>
0

>  <apol>
52.231411

>  <ast_fraglike>
0

>  <ast_fraglike_ext>
0

>  <ast_violation>
2

>  <ast_violation_ext>
3

>  <a_acc>
4

>  <a_acid>
0

>  <a_aro>
6

>  <a_base>
0

>  <a_count>
49

>  <a_don>
2

>  <a_donacc>
6

>  <a_heavy>
22

>  <a_hyd>
16

>  <a_IC>
69.251953

>  <a_ICM>
1.4133052

>  <a_nB>
0

>  <a_nBr>
0

>  <a_nC>
17

>  <a_nCl>
0

>  <a_nF>
0

>  <a_nH>
27

>  <a_nI>
0

>  <a_nN>
1

>  <a_nO>
4

>  <a_nP>
0

>  <a_nS>
0

>  <balabanJ>
2.4632449

>  <BCUT_PEOE_0>
-2.6560574

>  <BCUT_PEOE_1>
-0.37776855

>  <BCUT_PEOE_2>
0.2361847

>  <BCUT_PEOE_3>
2.599066

>  <BCUT_SLOGP_0>
-2.8164139

>  <BCUT_SLOGP_1>
-0.32868382

>  <BCUT_SLOGP_2>
0.34500042

>  <BCUT_SLOGP_3>
2.550354

>  <BCUT_SMR_0>
-2.3947034

>  <BCUT_SMR_1>
-0.1047909

>  <BCUT_SMR_2>
0.48696622

>  <BCUT_SMR_3>
2.8459222

>  <bpol>
34.966591

>  <b_1rotN>
7

>  <b_1rotR>
0.31818181

>  <b_ar>
6

>  <b_count>
49

>  <b_double>
1

>  <b_heavy>
22

>  <b_max1len>
7

>  <b_rotN>
8

>  <b_rotR>
0.36363637

>  <b_single>
42

>  <b_triple>
0

>  <chi0>
16.861443

>  <chi0v>
14.318223

>  <chi0v_C>
12.146264

>  <chi0_C>
12.740123

>  <chi1>
10.218122

>  <chi1v>
7.5541463

>  <chi1v_C>
5.5485473

>  <chi1_C>
6.430428

>  <chiral>
1

>  <chiral_u>
1

>  <density>
0.69544774

>  <diameter>
13

>  <FCharge>
0

>  <GCUT_PEOE_0>
-0.84582275

>  <GCUT_PEOE_1>
-0.35461172

>  <GCUT_PEOE_2>
-0.100888

>  <GCUT_PEOE_3>
2.6104889

>  <GCUT_SLOGP_0>
-1.1534564

>  <GCUT_SLOGP_1>
-0.35681215

>  <GCUT_SLOGP_2>
-0.029916946

>  <GCUT_SLOGP_3>
2.6873691

>  <GCUT_SMR_0>
-0.5216713

>  <GCUT_SMR_1>
-0.15992521

>  <GCUT_SMR_2>
0.049408685

>  <GCUT_SMR_3>
2.8609962

>  <Kier1>
20.045454

>  <Kier2>
9.333333

>  <Kier3>
6.5743942

>  <KierA1>
17.151218

>  <KierA2>
7.9229898

>  <KierA3>
5.5490985

>  <KierFlex>
6.1767697

>  <lip_acc>
5

>  <lip_don>
2

>  <lip_druglike>
1

>  <lip_violation>
0

>  <logP(o/w)>
2.5569999

>  <logS>
-2.4890101

>  <mr>
8.6964893

>  <mutagenic>
0

>  <nmol>
1

>  <opr_brigid>
6

>  <opr_leadlike>
1

>  <opr_nring>
1

>  <opr_nrot>
7

>  <opr_violation>
0

>  <PC+>
0

>  <PC->
0

>  <PEOE_PC+>
1.8670346

>  <PEOE_PC->
-1.8670346

>  <PEOE_RPC+>
0.14140691

>  <PEOE_RPC->
0.20794345

>  <PEOE_VSA+0>
124.65907

>  <PEOE_VSA+1>
53.834805

>  <PEOE_VSA+2>
8.6190128

>  <PEOE_VSA+3>
0

>  <PEOE_VSA+4>
10.324173

>  <PEOE_VSA+5>
14.708499

>  <PEOE_VSA+6>
0

>  <PEOE_VSA-0>
112.61891

>  <PEOE_VSA-1>
0

>  <PEOE_VSA-2>
0

>  <PEOE_VSA-3>
0

>  <PEOE_VSA-4>
0

>  <PEOE_VSA-5>
16.070677

>  <PEOE_VSA-6>
10.408187

>  <PEOE_VSA_FHYD>
0.85334516

>  <PEOE_VSA_FNEG>
0.39601541

>  <PEOE_VSA_FPNEG>
0.0753861

>  <PEOE_VSA_FPOL>
0.14665484

>  <PEOE_VSA_FPOS>
0.60398459

>  <PEOE_VSA_FPPOS>
0.071268745

>  <PEOE_VSA_HYD>
299.73181

>  <PEOE_VSA_NEG>
139.09778

>  <PEOE_VSA_PNEG>
26.478865

>  <PEOE_VSA_POL>
51.511536

>  <PEOE_VSA_POS>
212.14555

>  <PEOE_VSA_PPOS>
25.032671

>  <petitjean>
0.46153846

>  <petitjeanSC>
0.85714287

>  <Q_PC+>
0

>  <Q_PC->
0

>  <Q_RPC+>
0

>  <Q_RPC->
0

>  <Q_VSA_FHYD>
1

>  <Q_VSA_FNEG>
0

>  <Q_VSA_FPNEG>
0

>  <Q_VSA_FPOL>
0

>  <Q_VSA_FPOS>
1

>  <Q_VSA_FPPOS>
0

>  <Q_VSA_HYD>
351.24335

>  <Q_VSA_NEG>
0

>  <Q_VSA_PNEG>
0

>  <Q_VSA_POL>
0

>  <Q_VSA_POS>
351.24335

>  <Q_VSA_PPOS>
0

>  <radius>
7

>  <reactive>
0

>  <rings>
1

>  <RPC+>
0

>  <RPC->
0

>  <rsynth>
1

>  <SlogP>
2.2748599

>  <SlogP_VSA0>
65.395752

>  <SlogP_VSA1>
7.7454643

>  <SlogP_VSA2>
34.312836

>  <SlogP_VSA3>
39.365837

>  <SlogP_VSA4>
9.5567245

>  <SlogP_VSA5>
0

>  <SlogP_VSA6>
0

>  <SlogP_VSA7>
17.643185

>  <SlogP_VSA8>
0

>  <SlogP_VSA9>
210.44295

>  <SMR>
8.6602497

>  <SMR_VSA0>
23.862217

>  <SMR_VSA1>
47.385002

>  <SMR_VSA2>
18.01075

>  <SMR_VSA3>
30.4942

>  <SMR_VSA4>
0

>  <SMR_VSA5>
17.643185

>  <SMR_VSA6>
47.111301

>  <SMR_VSA7>
199.95609

>  <TPSA>
67.790001

>  <VAdjEq>
0.43949699

>  <VAdjMa>
5.4594316

>  <VDistEq>
3.4671488

>  <VDistMa>
8.5970058

>  <vdw_area>
351.24335

>  <vdw_vol>
444.90186

>  <vsa_acc>
16.070677

>  <vsa_acid>
0

>  <vsa_base>
0

>  <vsa_don>
0

>  <vsa_hyd>
273.3179

>  <vsa_other>
17.212255

>  <vsa_pol>
35.320175

>  <Weight>
309.40601

>  <weinerPath>
1191

>  <weinerPol>
31

>  <zagreb>
104

$$$$