s1c(cnc1NC(=O)C=1N(S(=O)(=O)c2c(cccc2)C=1O)C)C
  MOE2013           2D

 23 25  0  0  1  0  0  0  0  0999 V2000
    0.0000    0.0000    0.0000 S   0  0  0  0  0  0  0  0  0  0  0  0
    1.0280    1.0920    0.0000 C   0  0  0  0  0  0  0  0  0  0  0  0
    0.3070    2.4080    0.0000 C   0  0  0  0  0  0  0  0  0  0  0  0
   -1.1670    2.1280    0.0000 N   0  0  0  0  0  0  0  0  0  0  0  0
   -1.3570    0.6400    0.0000 C   0  0  0  0  0  0  0  0  0  0  0  0
   -2.6720   -0.0810    0.0000 N   0  0  0  0  0  0  0  0  0  0  0  0
   -3.9540    0.6970    0.0000 C   0  0  0  0  0  0  0  0  0  0  0  0
   -3.9210    2.1970    0.0000 O   0  0  0  0  0  0  0  0  0  0  0  0
   -5.2690   -0.0240    0.0000 C   0  0  0  0  0  0  0  0  0  0  0  0
   -6.5520    0.7540    0.0000 N   0  0  3  0  0  0  0  0  0  0  0  0
   -7.8670    0.0320    0.0000 S   0  0  0  0  0  0  0  0  0  0  0  0
   -9.3660    0.0650    0.0000 O   0  0  0  0  0  0  0  0  0  0  0  0
   -8.5880    1.3480    0.0000 O   0  0  0  0  0  0  0  0  0  0  0  0
   -7.9000   -1.4670    0.0000 C   0  0  0  0  0  0  0  0  0  0  0  0
   -6.6170   -2.2450    0.0000 C   0  0  0  0  0  0  0  0  0  0  0  0
   -6.6500   -3.7450    0.0000 C   0  0  0  0  0  0  0  0  0  0  0  0
   -7.9650   -4.4660    0.0000 C   0  0  0  0  0  0  0  0  0  0  0  0
   -9.2480   -3.6880    0.0000 C   0  0  0  0  0  0  0  0  0  0  0  0
   -9.2150   -2.1890    0.0000 C   0  0  0  0  0  0  0  0  0  0  0  0
   -5.3020   -1.5240    0.0000 C   0  0  0  0  0  0  0  0  0  0  0  0
   -4.0200   -2.3020    0.0000 O   0  0  0  0  0  0  0  0  0  0  0  0
   -6.5190    2.2530    0.0000 C   0  0  0  0  0  0  0  0  0  0  0  0
    2.5160    0.9030    0.0000 C   0  0  0  0  0  0  0  0  0  0  0  0
  1  2  1  0  0  0  0
  1  5  1  0  0  0  0
  2  3  2  0  0  0  0
  2 23  1  0  0  0  0
  3  4  1  0  0  0  0
  4  5  2  0  0  0  0
  5  6  1  0  0  0  0
  6  7  1  0  0  0  0
  7  8  2  0  0  0  0
  7  9  1  0  0  0  0
  9 10  1  0  0  0  0
  9 20  2  0  0  0  0
 10 11  1  0  0  0  0
 10 22  1  0  0  0  0
 11 12  2  0  0  0  0
 11 13  2  0  0  0  0
 11 14  1  0  0  0  0
 14 15  1  0  0  0  0
 14 19  2  0  0  0  0
 15 16  2  0  0  0  0
 15 20  1  0  0  0  0
 16 17  1  0  0  0  0
 17 18  2  0  0  0  0
 18 19  1  0  0  0  0
 20 21  1  0  0  0  0
M  END
>  <Index>
665

>  <ID>
HT1295

>  <class>
0

>  <apol>
45.61631

>  <ast_fraglike>
0

>  <ast_fraglike_ext>
0

>  <ast_violation>
2

>  <ast_violation_ext>
3

>  <a_acc>
5

>  <a_acid>
0

>  <a_aro>
11

>  <a_base>
0

>  <a_count>
36

>  <a_don>
2

>  <a_donacc>
7

>  <a_heavy>
23

>  <a_hyd>
13

>  <a_IC>
69.953728

>  <a_ICM>
1.9431591

>  <a_nB>
0

>  <a_nBr>
0

>  <a_nC>
14

>  <a_nCl>
0

>  <a_nF>
0

>  <a_nH>
13

>  <a_nI>
0

>  <a_nN>
3

>  <a_nO>
4

>  <a_nP>
0

>  <a_nS>
2

>  <balabanJ>
1.7472641

>  <BCUT_PEOE_0>
-2.4907308

>  <BCUT_PEOE_1>
-0.51363075

>  <BCUT_PEOE_2>
0.59963894

>  <BCUT_PEOE_3>
2.5190022

>  <BCUT_SLOGP_0>
-2.5805767

>  <BCUT_SLOGP_1>
-0.45688787

>  <BCUT_SLOGP_2>
0.67960459

>  <BCUT_SLOGP_3>
2.4866092

>  <BCUT_SMR_0>
-2.165122

>  <BCUT_SMR_1>
-0.35909483

>  <BCUT_SMR_2>
0.73785615

>  <BCUT_SMR_3>
2.8605566

>  <bpol>
27.885691

>  <b_1rotN>
2

>  <b_1rotR>
0.079999998

>  <b_ar>
11

>  <b_count>
38

>  <b_double>
2

>  <b_heavy>
25

>  <b_max1len>
2

>  <b_rotN>
3

>  <b_rotR>
0.12

>  <b_single>
25

>  <b_triple>
0

>  <chi0>
16.775656

>  <chi0v>
13.902627

>  <chi0v_C>
8.3867512

>  <chi0_C>
9.5769854

>  <chi1>
10.819405

>  <chi1v>
8.8312225

>  <chi1v_C>
3.3660254

>  <chi1_C>
4.6354284

>  <chiral>
0

>  <chiral_u>
0

>  <density>
0.88053071

>  <diameter>
11

>  <FCharge>
0

>  <GCUT_PEOE_0>
-0.80301857

>  <GCUT_PEOE_1>
-0.42790702

>  <GCUT_PEOE_2>
0.065419123

>  <GCUT_PEOE_3>
2.5289142

>  <GCUT_SLOGP_0>
-0.99772525

>  <GCUT_SLOGP_1>
-0.40299699

>  <GCUT_SLOGP_2>
0.13913794

>  <GCUT_SLOGP_3>
2.5573266

>  <GCUT_SMR_0>
-0.48344633

>  <GCUT_SMR_1>
-0.18662338

>  <GCUT_SMR_2>
0.19129895

>  <GCUT_SMR_3>
2.8274925

>  <Kier1>
17.811199

>  <Kier2>
6.7188368

>  <Kier3>
3.2544379

>  <KierA1>
15.004916

>  <KierA2>
5.6135039

>  <KierA3>
2.7020061

>  <KierFlex>
3.6621807

>  <lip_acc>
7

>  <lip_don>
2

>  <lip_druglike>
1

>  <lip_violation>
0

>  <logP(o/w)>
0.94

>  <logS>
-3.44748

>  <mr>
8.7808352

>  <mutagenic>
0

>  <nmol>
1

>  <opr_brigid>
16

>  <opr_leadlike>
1

>  <opr_nring>
3

>  <opr_nrot>
2

>  <opr_violation>
0

>  <PC+>
0

>  <PC->
0

>  <PEOE_PC+>
2.1048117

>  <PEOE_PC->
-2.1048117

>  <PEOE_RPC+>
0.13877317

>  <PEOE_RPC->
0.17057341

>  <PEOE_VSA+0>
64.698746

>  <PEOE_VSA+1>
49.651627

>  <PEOE_VSA+2>
2.2085397

>  <PEOE_VSA+3>
28.379631

>  <PEOE_VSA+4>
10.324173

>  <PEOE_VSA+5>
17.134132

>  <PEOE_VSA+6>
0

>  <PEOE_VSA-0>
54.241272

>  <PEOE_VSA-1>
28.694408

>  <PEOE_VSA-2>
0

>  <PEOE_VSA-3>
0

>  <PEOE_VSA-4>
37.6991

>  <PEOE_VSA-5>
13.566921

>  <PEOE_VSA-6>
7.9044313

>  <PEOE_VSA_FHYD>
0.72455347

>  <PEOE_VSA_FNEG>
0.45184353

>  <PEOE_VSA_FPNEG>
0.18813956

>  <PEOE_VSA_FPOL>
0.27544653

>  <PEOE_VSA_FPOS>
0.5481565

>  <PEOE_VSA_FPPOS>
0.087306976

>  <PEOE_VSA_HYD>
227.87422

>  <PEOE_VSA_NEG>
142.10612

>  <PEOE_VSA_PNEG>
59.170452

>  <PEOE_VSA_POL>
86.628754

>  <PEOE_VSA_POS>
172.39685

>  <PEOE_VSA_PPOS>
27.458305

>  <petitjean>
0.45454547

>  <petitjeanSC>
0.83333331

>  <Q_PC+>
0

>  <Q_PC->
0

>  <Q_RPC+>
0

>  <Q_RPC->
0

>  <Q_VSA_FHYD>
1

>  <Q_VSA_FNEG>
0

>  <Q_VSA_FPNEG>
0

>  <Q_VSA_FPOL>
0

>  <Q_VSA_FPOS>
1

>  <Q_VSA_FPPOS>
0

>  <Q_VSA_HYD>
314.50299

>  <Q_VSA_NEG>
0

>  <Q_VSA_PNEG>
0

>  <Q_VSA_POL>
0

>  <Q_VSA_POS>
314.50299

>  <Q_VSA_PPOS>
0

>  <radius>
6

>  <reactive>
0

>  <rings>
3

>  <RPC+>
0

>  <RPC->
0

>  <rsynth>
1

>  <SlogP>
1.95092

>  <SlogP_VSA0>
0

>  <SlogP_VSA1>
89.745316

>  <SlogP_VSA2>
30.502958

>  <SlogP_VSA3>
25.385227

>  <SlogP_VSA4>
4.5439763

>  <SlogP_VSA5>
37.20467

>  <SlogP_VSA6>
0

>  <SlogP_VSA7>
93.030525

>  <SlogP_VSA8>
0

>  <SlogP_VSA9>
65.104446

>  <SMR>
8.6420298

>  <SMR_VSA0>
72.033905

>  <SMR_VSA1>
18.30409

>  <SMR_VSA2>
26.935961

>  <SMR_VSA3>
7.3007236

>  <SMR_VSA4>
23.754925

>  <SMR_VSA5>
87.787094

>  <SMR_VSA6>
5.2587838

>  <SMR_VSA7>
104.14163

>  <TPSA>
99.599998

>  <VAdjEq>
0.45137304

>  <VAdjMa>
5.643856

>  <VDistEq>
3.160224

>  <VDistMa>
8.7701368

>  <vdw_area>
314.50299

>  <vdw_vol>
399.08545

>  <vsa_acc>
51.266022

>  <vsa_acid>
0

>  <vsa_base>
0

>  <vsa_don>
5.6825762

>  <vsa_hyd>
192.33783

>  <vsa_other>
36.221764

>  <vsa_pol>
70.515518

>  <Weight>
351.40698

>  <weinerPath>
1115

>  <weinerPol>
41

>  <zagreb>
126

$$$$