P(Oc1c2c(cccc2)c(OP(O)(O)=O)cc1C)(O)(O)=O
  MOE2013           2D

 21 22  0  0  0  0  0  0  0  0999 V2000
    0.0000    0.0000    0.0000 P   0  0  0  0  0  0  0  0  0  0  0  0
   -0.7410    1.3040    0.0000 O   0  0  0  0  0  0  0  0  0  0  0  0
   -2.2410    1.3140    0.0000 C   0  0  0  0  0  0  0  0  0  0  0  0
   -2.9820    2.6180    0.0000 C   0  0  0  0  0  0  0  0  0  0  0  0
   -4.4820    2.6290    0.0000 C   0  0  0  0  0  0  0  0  0  0  0  0
   -5.2230    3.9330    0.0000 C   0  0  0  0  0  0  0  0  0  0  0  0
   -4.4650    5.2270    0.0000 C   0  0  0  0  0  0  0  0  0  0  0  0
   -2.9650    5.2160    0.0000 C   0  0  0  0  0  0  0  0  0  0  0  0
   -2.2240    3.9120    0.0000 C   0  0  0  0  0  0  0  0  0  0  0  0
   -5.2410    1.3350    0.0000 C   0  0  0  0  0  0  0  0  0  0  0  0
   -6.7410    1.3450    0.0000 O   0  0  0  0  0  0  0  0  0  0  0  0
   -7.5000    0.0510    0.0000 P   0  0  0  0  0  0  0  0  0  0  0  0
   -6.2060   -0.7080    0.0000 O   0  0  0  0  0  0  0  0  0  0  0  0
   -8.2590   -1.2430    0.0000 O   0  0  0  0  0  0  0  0  0  0  0  0
   -8.7940    0.8100    0.0000 O   0  0  0  0  0  0  0  0  0  0  0  0
   -4.5000    0.0310    0.0000 C   0  0  0  0  0  0  0  0  0  0  0  0
   -3.0000    0.0200    0.0000 C   0  0  0  0  0  0  0  0  0  0  0  0
   -2.2590   -1.2840    0.0000 C   0  0  0  0  0  0  0  0  0  0  0  0
    1.3040    0.7410    0.0000 O   0  0  0  0  0  0  0  0  0  0  0  0
   -1.3040   -0.7410    0.0000 O   0  0  0  0  0  0  0  0  0  0  0  0
    0.7410   -1.3040    0.0000 O   0  0  0  0  0  0  0  0  0  0  0  0
  1  2  1  0  0  0  0
  1 19  1  0  0  0  0
  1 20  1  0  0  0  0
  1 21  2  0  0  0  0
  2  3  1  0  0  0  0
  3  4  1  0  0  0  0
  3 17  2  0  0  0  0
  4  5  1  0  0  0  0
  4  9  2  0  0  0  0
  5  6  2  0  0  0  0
  5 10  1  0  0  0  0
  6  7  1  0  0  0  0
  7  8  2  0  0  0  0
  8  9  1  0  0  0  0
 10 11  1  0  0  0  0
 10 16  2  0  0  0  0
 11 12  1  0  0  0  0
 12 13  1  0  0  0  0
 12 14  1  0  0  0  0
 12 15  2  0  0  0  0
 16 17  1  0  0  0  0
 17 18  1  0  0  0  0
M  END
>  <Index>
667

>  <ID>
HT1298

>  <class>
0

>  <apol>
41.037518

>  <ast_fraglike>
0

>  <ast_fraglike_ext>
0

>  <ast_violation>
3

>  <ast_violation_ext>
5

>  <a_acc>
8

>  <a_acid>
0

>  <a_aro>
10

>  <a_base>
0

>  <a_count>
33

>  <a_don>
6

>  <a_donacc>
14

>  <a_heavy>
21

>  <a_hyd>
11

>  <a_IC>
59.391708

>  <a_ICM>
1.7997488

>  <a_nB>
0

>  <a_nBr>
0

>  <a_nC>
11

>  <a_nCl>
0

>  <a_nF>
0

>  <a_nH>
12

>  <a_nI>
0

>  <a_nN>
0

>  <a_nO>
8

>  <a_nP>
2

>  <a_nS>
0

>  <balabanJ>
2.1572611

>  <BCUT_PEOE_0>
-2.3326786

>  <BCUT_PEOE_1>
-0.66265869

>  <BCUT_PEOE_2>
0.68977064

>  <BCUT_PEOE_3>
2.3750548

>  <BCUT_SLOGP_0>
-2.263763

>  <BCUT_SLOGP_1>
-1.0524099

>  <BCUT_SLOGP_2>
0.70048529

>  <BCUT_SLOGP_3>
2.5723619

>  <BCUT_SMR_0>
-2.0299344

>  <BCUT_SMR_1>
-0.49647149

>  <BCUT_SMR_2>
0.83244926

>  <BCUT_SMR_3>
2.6823187

>  <bpol>
33.826485

>  <b_1rotN>
4

>  <b_1rotR>
0.18181819

>  <b_ar>
11

>  <b_count>
34

>  <b_double>
0

>  <b_heavy>
22

>  <b_max1len>
4

>  <b_rotN>
4

>  <b_rotR>
0.18181819

>  <b_single>
23

>  <b_triple>
0

>  <chi0>
15.836499

>  <chi0v>
12.49188

>  <chi0v_C>
6.3867512

>  <chi0_C>
7.4222851

>  <chi1>
9.5672798

>  <chi1v>
8.6538391

>  <chi1v_C>
3.6547005

>  <chi1_C>
5.0436769

>  <chiral>
0

>  <chiral_u>
0

>  <density>
0.95033586

>  <diameter>
9

>  <FCharge>
0

>  <GCUT_PEOE_0>
-0.74763095

>  <GCUT_PEOE_1>
-0.45551816

>  <GCUT_PEOE_2>
0.14643386

>  <GCUT_PEOE_3>
2.4524713

>  <GCUT_SLOGP_0>
-1.2969171

>  <GCUT_SLOGP_1>
-0.46223089

>  <GCUT_SLOGP_2>
0.0096088294

>  <GCUT_SLOGP_3>
2.6513793

>  <GCUT_SMR_0>
-0.47892642

>  <GCUT_SMR_1>
-0.2307439

>  <GCUT_SMR_2>
0.2480381

>  <GCUT_SMR_3>
2.7637088

>  <Kier1>
17.355371

>  <Kier2>
6.2456746

>  <Kier3>
4.7333822

>  <KierA1>
16.818466

>  <KierA2>
6.042563

>  <KierA3>
4.5737176

>  <KierFlex>
4.8393641

>  <lip_acc>
8

>  <lip_don>
4

>  <lip_druglike>
1

>  <lip_violation>
0

>  <logP(o/w)>
0.37099999

>  <logS>
-2.4087901

>  <mr>
7.6709862

>  <mutagenic>
0

>  <nmol>
1

>  <opr_brigid>
11

>  <opr_leadlike>
1

>  <opr_nring>
2

>  <opr_nrot>
4

>  <opr_violation>
0

>  <PC+>
0

>  <PC->
0

>  <PEOE_PC+>
2.1469409

>  <PEOE_PC->
-2.1469409

>  <PEOE_RPC+>
0.19378528

>  <PEOE_RPC->
0.12957163

>  <PEOE_VSA+0>
17.213238

>  <PEOE_VSA+1>
38.243969

>  <PEOE_VSA+2>
0

>  <PEOE_VSA+3>
41.296692

>  <PEOE_VSA+4>
0

>  <PEOE_VSA+5>
0

>  <PEOE_VSA+6>
37.426136

>  <PEOE_VSA-0>
33.211121

>  <PEOE_VSA-1>
49.019615

>  <PEOE_VSA-2>
31.458273

>  <PEOE_VSA-3>
0

>  <PEOE_VSA-4>
9.3319435

>  <PEOE_VSA-5>
39.719025

>  <PEOE_VSA-6>
0

>  <PEOE_VSA_FHYD>
0.70875287

>  <PEOE_VSA_FNEG>
0.54809368

>  <PEOE_VSA_FPNEG>
0.16519926

>  <PEOE_VSA_FPOL>
0.29124713

>  <PEOE_VSA_FPOS>
0.45190632

>  <PEOE_VSA_FPPOS>
0.12604788

>  <PEOE_VSA_HYD>
210.4429

>  <PEOE_VSA_NEG>
162.73997

>  <PEOE_VSA_PNEG>
49.050968

>  <PEOE_VSA_POL>
86.477104

>  <PEOE_VSA_POS>
134.18004

>  <PEOE_VSA_PPOS>
37.426136

>  <petitjean>
0.44444445

>  <petitjeanSC>
0.80000001

>  <Q_PC+>
0

>  <Q_PC->
0

>  <Q_RPC+>
0

>  <Q_RPC->
0

>  <Q_VSA_FHYD>
1

>  <Q_VSA_FNEG>
0

>  <Q_VSA_FPNEG>
0

>  <Q_VSA_FPOL>
0

>  <Q_VSA_FPOS>
1

>  <Q_VSA_FPPOS>
0

>  <Q_VSA_HYD>
296.92001

>  <Q_VSA_NEG>
0

>  <Q_VSA_PNEG>
0

>  <Q_VSA_POL>
0

>  <Q_VSA_POS>
296.92001

>  <Q_VSA_PPOS>
0

>  <radius>
5

>  <reactive>
1

>  <rings>
2

>  <RPC+>
0

>  <RPC->
0

>  <rsynth>
1

>  <SlogP>
-0.049180001

>  <SlogP_VSA0>
143.93866

>  <SlogP_VSA1>
0

>  <SlogP_VSA2>
0

>  <SlogP_VSA3>
0

>  <SlogP_VSA4>
3.185575

>  <SlogP_VSA5>
0

>  <SlogP_VSA6>
0

>  <SlogP_VSA7>
93.361847

>  <SlogP_VSA8>
0

>  <SlogP_VSA9>
77.202553

>  <SMR>
7.2656202

>  <SMR_VSA0>
44.867531

>  <SMR_VSA1>
99.071136

>  <SMR_VSA2>
0

>  <SMR_VSA3>
13.672431

>  <SMR_VSA4>
5.1459289

>  <SMR_VSA5>
88.215919

>  <SMR_VSA6>
0

>  <SMR_VSA7>
66.715698

>  <TPSA>
133.52

>  <VAdjEq>
0.46827638

>  <VAdjMa>
5.4594316

>  <VDistEq>
2.9927397

>  <VDistMa>
8.519784

>  <vdw_area>
296.92001

>  <vdw_vol>
351.6199

>  <vsa_acc>
9.3319435

>  <vsa_acid>
0

>  <vsa_base>
0

>  <vsa_don>
0

>  <vsa_hyd>
131.99358

>  <vsa_other>
37.426136

>  <vsa_pol>
103.70676

>  <Weight>
334.15698

>  <weinerPath>
870

>  <weinerPol>
31

>  <zagreb>
112

$$$$