Oc1cc(ccc1O)C[C@H]([C@H](Cc1cc(O)c(O)cc1)C)C
  MOE2013           2D

 22 23  0  0  1  0  0  0  0  0999 V2000
    0.0000    0.0000    0.0000 O   0  0  0  0  0  0  0  0  0  0  0  0
    1.2980   -0.7510    0.0000 C   0  0  0  0  0  0  0  0  0  0  0  0
    2.5980   -0.0020    0.0000 C   0  0  0  0  0  0  0  0  0  0  0  0
    3.8960   -0.7530    0.0000 C   0  0  0  0  0  0  0  0  0  0  0  0
    3.8950   -2.2530    0.0000 C   0  0  0  0  0  0  0  0  0  0  0  0
    2.5950   -3.0020    0.0000 C   0  0  0  0  0  0  0  0  0  0  0  0
    1.2970   -2.2510    0.0000 C   0  0  0  0  0  0  0  0  0  0  0  0
   -0.0030   -3.0000    0.0000 O   0  0  0  0  0  0  0  0  0  0  0  0
    5.1960   -0.0050    0.0000 C   0  0  0  0  0  0  0  0  0  0  0  0
    6.4950   -0.7560    0.0000 C   0  0  2  0  0  0  0  0  0  0  0  0
    7.7940   -0.0070    0.0000 C   0  0  2  0  0  0  0  0  0  0  0  0
    9.0930   -0.7580    0.0000 C   0  0  0  0  0  0  0  0  0  0  0  0
   10.3920   -0.0090    0.0000 C   0  0  0  0  0  0  0  0  0  0  0  0
   11.6910   -0.7600    0.0000 C   0  0  0  0  0  0  0  0  0  0  0  0
   12.9900   -0.0110    0.0000 C   0  0  0  0  0  0  0  0  0  0  0  0
   14.2890   -0.7630    0.0000 O   0  0  0  0  0  0  0  0  0  0  0  0
   12.9920    1.4890    0.0000 C   0  0  0  0  0  0  0  0  0  0  0  0
   14.2910    2.2370    0.0000 O   0  0  0  0  0  0  0  0  0  0  0  0
   11.6930    2.2400    0.0000 C   0  0  0  0  0  0  0  0  0  0  0  0
   10.3940    1.4910    0.0000 C   0  0  0  0  0  0  0  0  0  0  0  0
    7.7960    1.4930    0.0000 C   0  0  0  0  0  0  0  0  0  0  0  0
    6.4930   -2.2560    0.0000 C   0  0  0  0  0  0  0  0  0  0  0  0
  1  2  1  0  0  0  0
  2  3  2  0  0  0  0
  2  7  1  0  0  0  0
  3  4  1  0  0  0  0
  4  5  2  0  0  0  0
  4  9  1  0  0  0  0
  5  6  1  0  0  0  0
  6  7  2  0  0  0  0
  7  8  1  0  0  0  0
  9 10  1  0  0  0  0
 10 11  1  0  0  0  0
 10 22  1  6  0  0  0
 11 12  1  0  0  0  0
 11 21  1  1  0  0  0
 12 13  1  0  0  0  0
 13 14  1  0  0  0  0
 13 20  2  0  0  0  0
 14 15  2  0  0  0  0
 15 16  1  0  0  0  0
 15 17  1  0  0  0  0
 17 18  1  0  0  0  0
 17 19  2  0  0  0  0
 19 20  1  0  0  0  0
M  END
>  <Index>
653

>  <ID>
HT1273

>  <class>
0

>  <apol>
49.557446

>  <ast_fraglike>
0

>  <ast_fraglike_ext>
0

>  <ast_violation>
4

>  <ast_violation_ext>
5

>  <a_acc>
4

>  <a_acid>
0

>  <a_aro>
12

>  <a_base>
0

>  <a_count>
44

>  <a_don>
4

>  <a_donacc>
8

>  <a_heavy>
22

>  <a_hyd>
18

>  <a_IC>
59.048847

>  <a_ICM>
1.3420192

>  <a_nB>
0

>  <a_nBr>
0

>  <a_nC>
18

>  <a_nCl>
0

>  <a_nF>
0

>  <a_nH>
22

>  <a_nI>
0

>  <a_nN>
0

>  <a_nO>
4

>  <a_nP>
0

>  <a_nS>
0

>  <balabanJ>
1.7417469

>  <BCUT_PEOE_0>
-2.7208736

>  <BCUT_PEOE_1>
-0.67003149

>  <BCUT_PEOE_2>
0.7092672

>  <BCUT_PEOE_3>
2.6664441

>  <BCUT_SLOGP_0>
-2.6508291

>  <BCUT_SLOGP_1>
-0.59395152

>  <BCUT_SLOGP_2>
0.75203007

>  <BCUT_SLOGP_3>
2.7439249

>  <BCUT_SMR_0>
-2.467011

>  <BCUT_SMR_1>
-0.52240682

>  <BCUT_SMR_2>
0.84911585

>  <BCUT_SMR_3>
2.923784

>  <bpol>
24.050554

>  <b_1rotN>
5

>  <b_1rotR>
0.2173913

>  <b_ar>
12

>  <b_count>
45

>  <b_double>
0

>  <b_heavy>
23

>  <b_max1len>
5

>  <b_rotN>
5

>  <b_rotR>
0.2173913

>  <b_single>
33

>  <b_triple>
0

>  <chi0>
16.275656

>  <chi0v>
12.82187

>  <chi0v_C>
11.033015

>  <chi0_C>
12.275657

>  <chi1>
10.363081

>  <chi1v>
7.3821321

>  <chi1v_C>
6.4877048

>  <chi1_C>
8.0536804

>  <chiral>
2

>  <chiral_u>
0

>  <density>
0.71228379

>  <diameter>
13

>  <FCharge>
0

>  <GCUT_PEOE_0>
-0.79922974

>  <GCUT_PEOE_1>
-0.43146104

>  <GCUT_PEOE_2>
0.11674429

>  <GCUT_PEOE_3>
2.6912649

>  <GCUT_SLOGP_0>
-0.76661044

>  <GCUT_SLOGP_1>
-0.30178681

>  <GCUT_SLOGP_2>
0.14950585

>  <GCUT_SLOGP_3>
2.8182673

>  <GCUT_SMR_0>
-0.53570884

>  <GCUT_SMR_1>
-0.23837537

>  <GCUT_SMR_2>
0.22775474

>  <GCUT_SMR_3>
2.9430897

>  <Kier1>
18.340265

>  <Kier2>
8.203125

>  <Kier3>
5.2631578

>  <KierA1>
14.602181

>  <KierA2>
6.4553256

>  <KierA3>
4.1067772

>  <KierFlex>
4.2846289

>  <lip_acc>
4

>  <lip_don>
4

>  <lip_druglike>
1

>  <lip_violation>
0

>  <logP(o/w)>
4.48

>  <logS>
-4.4892602

>  <mr>
8.5465517

>  <mutagenic>
0

>  <nmol>
1

>  <opr_brigid>
12

>  <opr_leadlike>
1

>  <opr_nring>
2

>  <opr_nrot>
5

>  <opr_violation>
0

>  <PC+>
0

>  <PC->
0

>  <PEOE_PC+>
1.988054

>  <PEOE_PC->
-1.988054

>  <PEOE_RPC+>
0.10936406

>  <PEOE_RPC->
0.17971072

>  <PEOE_VSA+0>
51.184631

>  <PEOE_VSA+1>
25.592316

>  <PEOE_VSA+2>
33.834076

>  <PEOE_VSA+3>
0

>  <PEOE_VSA+4>
41.296692

>  <PEOE_VSA+5>
0

>  <PEOE_VSA+6>
0

>  <PEOE_VSA-0>
70.839325

>  <PEOE_VSA-1>
62.005161

>  <PEOE_VSA-2>
0

>  <PEOE_VSA-3>
0

>  <PEOE_VSA-4>
0

>  <PEOE_VSA-5>
0

>  <PEOE_VSA-6>
31.070162

>  <PEOE_VSA_FHYD>
0.77086216

>  <PEOE_VSA_FNEG>
0.51900899

>  <PEOE_VSA_FPNEG>
0.098378599

>  <PEOE_VSA_FPOL>
0.22913784

>  <PEOE_VSA_FPOS>
0.48099101

>  <PEOE_VSA_FPPOS>
0.13075924

>  <PEOE_VSA_HYD>
243.45551

>  <PEOE_VSA_NEG>
163.91464

>  <PEOE_VSA_PNEG>
31.070162

>  <PEOE_VSA_POL>
72.366852

>  <PEOE_VSA_POS>
151.90771

>  <PEOE_VSA_PPOS>
41.296692

>  <petitjean>
0.46153846

>  <petitjeanSC>
0.85714287

>  <Q_PC+>
0

>  <Q_PC->
0

>  <Q_RPC+>
0

>  <Q_RPC->
0

>  <Q_VSA_FHYD>
1

>  <Q_VSA_FNEG>
0

>  <Q_VSA_FPNEG>
0

>  <Q_VSA_FPOL>
0

>  <Q_VSA_FPOS>
1

>  <Q_VSA_FPPOS>
0

>  <Q_VSA_HYD>
315.82236

>  <Q_VSA_NEG>
0

>  <Q_VSA_PNEG>
0

>  <Q_VSA_POL>
0

>  <Q_VSA_POS>
315.82236

>  <Q_VSA_PPOS>
0

>  <radius>
7

>  <reactive>
0

>  <rings>
2

>  <RPC+>
0

>  <RPC->
0

>  <rsynth>
1

>  <SlogP>
3.56634

>  <SlogP_VSA0>
101.54091

>  <SlogP_VSA1>
0

>  <SlogP_VSA2>
0

>  <SlogP_VSA3>
0

>  <SlogP_VSA4>
15.192742

>  <SlogP_VSA5>
37.736813

>  <SlogP_VSA6>
0

>  <SlogP_VSA7>
105.85911

>  <SlogP_VSA8>
0

>  <SlogP_VSA9>
87.62574

>  <SMR>
8.5279198

>  <SMR_VSA0>
0

>  <SMR_VSA1>
101.54091

>  <SMR_VSA2>
8.8215923

>  <SMR_VSA3>
27.344862

>  <SMR_VSA4>
0

>  <SMR_VSA5>
143.59592

>  <SMR_VSA6>
0

>  <SMR_VSA7>
66.652031

>  <TPSA>
80.919998

>  <VAdjEq>
0.4530769

>  <VAdjMa>
5.523562

>  <VDistEq>
3.4578464

>  <VDistMa>
8.5947771

>  <vdw_area>
315.82236

>  <vdw_vol>
424.50775

>  <vsa_acc>
0

>  <vsa_acid>
0

>  <vsa_base>
0

>  <vsa_don>
0

>  <vsa_hyd>
227.95309

>  <vsa_other>
0

>  <vsa_pol>
54.267685

>  <Weight>
302.37

>  <weinerPath>
1189

>  <weinerPol>
32

>  <zagreb>
110

$$$$