s1nc(N2CCN(CC2)C[C@@H]2CCCC[C@H]2CN2C(=O)C3[C@H]4CC[C@@H](C3C2=O)C4)c2c1cccc2
  MOE2013           2D

 35 41  0  0  1  0  0  0  0  0999 V2000
    0.0000    0.0000    0.0000 S   0  0  0  0  0  0  0  0  0  0  0  0
   -1.3810    0.5860    0.0000 N   0  0  0  0  0  0  0  0  0  0  0  0
   -2.3650   -0.5460    0.0000 C   0  0  0  0  0  0  0  0  0  0  0  0
   -3.8590   -0.4150    0.0000 N   0  0  0  0  0  0  0  0  0  0  0  0
   -4.7190   -1.6440    0.0000 C   0  0  0  0  0  0  0  0  0  0  0  0
   -6.2140   -1.5130    0.0000 C   0  0  0  0  0  0  0  0  0  0  0  0
   -6.8480   -0.1540    0.0000 N   0  0  0  0  0  0  0  0  0  0  0  0
   -5.9870    1.0750    0.0000 C   0  0  0  0  0  0  0  0  0  0  0  0
   -4.4930    0.9440    0.0000 C   0  0  0  0  0  0  0  0  0  0  0  0
   -8.3420   -0.0230    0.0000 C   0  0  0  0  0  0  0  0  0  0  0  0
   -8.9760    1.3360    0.0000 C   0  0  2  0  0  0  0  0  0  0  0  0
   -8.1160    2.5650    0.0000 C   0  0  0  0  0  0  0  0  0  0  0  0
   -8.7500    3.9240    0.0000 C   0  0  0  0  0  0  0  0  0  0  0  0
  -10.2440    4.0550    0.0000 C   0  0  0  0  0  0  0  0  0  0  0  0
  -11.1040    2.8260    0.0000 C   0  0  0  0  0  0  0  0  0  0  0  0
  -10.4700    1.4670    0.0000 C   0  0  1  0  0  0  0  0  0  0  0  0
  -11.3310    0.2380    0.0000 C   0  0  0  0  0  0  0  0  0  0  0  0
  -12.8250    0.3690    0.0000 N   0  0  0  0  0  0  0  0  0  0  0  0
  -13.5980    1.6540    0.0000 C   0  0  0  0  0  0  0  0  0  0  0  0
  -13.1230    3.0770    0.0000 O   0  0  0  0  0  0  0  0  0  0  0  0
  -15.1450    1.0260    0.0000 C   0  0  3  0  0  0  0  0  0  0  0  0
  -16.6770    1.1140    0.0000 C   0  0  1  0  0  0  0  0  0  0  0  0
  -17.2870   -0.0390    0.0000 C   0  0  0  0  0  0  0  0  0  0  0  0
  -17.3270   -1.2940    0.0000 C   0  0  0  0  0  0  0  0  0  0  0  0
  -16.4780   -0.1280    0.0000 C   0  0  1  0  0  0  0  0  0  0  0  0
  -15.1090   -0.1300    0.0000 C   0  0  3  0  0  0  0  0  0  0  0  0
  -13.8090   -0.7630    0.0000 C   0  0  0  0  0  0  0  0  0  0  0  0
  -13.5100   -2.2330    0.0000 O   0  0  0  0  0  0  0  0  0  0  0  0
  -17.5260    2.2040    0.0000 C   0  0  0  0  0  0  0  0  0  0  0  0
   -1.5920   -1.8320    0.0000 C   0  0  0  0  0  0  0  0  0  0  0  0
   -0.1310   -1.4940    0.0000 C   0  0  0  0  0  0  0  0  0  0  0  0
    0.8920   -2.5910    0.0000 C   0  0  0  0  0  0  0  0  0  0  0  0
    0.4540   -4.0260    0.0000 C   0  0  0  0  0  0  0  0  0  0  0  0
   -1.0080   -4.3630    0.0000 C   0  0  0  0  0  0  0  0  0  0  0  0
   -2.0310   -3.2660    0.0000 C   0  0  0  0  0  0  0  0  0  0  0  0
  1  2  1  0  0  0  0
  1 31  1  0  0  0  0
  2  3  2  0  0  0  0
  3  4  1  0  0  0  0
  3 30  1  0  0  0  0
  4  5  1  0  0  0  0
  4  9  1  0  0  0  0
  5  6  1  0  0  0  0
  6  7  1  0  0  0  0
  7  8  1  0  0  0  0
  7 10  1  0  0  0  0
  8  9  1  0  0  0  0
 11 10  1  1  0  0  0
 11 12  1  0  0  0  0
 11 16  1  0  0  0  0
 12 13  1  0  0  0  0
 13 14  1  0  0  0  0
 14 15  1  0  0  0  0
 15 16  1  0  0  0  0
 16 17  1  6  0  0  0
 17 18  1  0  0  0  0
 18 19  1  0  0  0  0
 18 27  1  0  0  0  0
 19 20  2  0  0  0  0
 19 21  1  0  0  0  0
 21 26  1  0  0  0  0
 22 21  1  1  0  0  0
 22 23  1  0  0  0  0
 22 29  1  0  0  0  0
 23 24  1  0  0  0  0
 25 24  1  6  0  0  0
 25 26  1  0  0  0  0
 25 29  1  0  0  0  0
 26 27  1  0  0  0  0
 27 28  2  0  0  0  0
 30 31  2  0  0  0  0
 30 35  1  0  0  0  0
 31 32  1  0  0  0  0
 32 33  2  0  0  0  0
 33 34  1  0  0  0  0
 34 35  2  0  0  0  0
M  END
>  <Index>
642

>  <ID>
HT1258

>  <class>
0

>  <apol>
82.188545

>  <ast_fraglike>
0

>  <ast_fraglike_ext>
0

>  <ast_violation>
3

>  <ast_violation_ext>
4

>  <a_acc>
4

>  <a_acid>
0

>  <a_aro>
9

>  <a_base>
0

>  <a_count>
71

>  <a_don>
0

>  <a_donacc>
4

>  <a_heavy>
35

>  <a_hyd>
25

>  <a_IC>
105.90881

>  <a_ICM>
1.4916734

>  <a_nB>
0

>  <a_nBr>
0

>  <a_nC>
28

>  <a_nCl>
0

>  <a_nF>
0

>  <a_nH>
36

>  <a_nI>
0

>  <a_nN>
4

>  <a_nO>
2

>  <a_nP>
0

>  <a_nS>
1

>  <balabanJ>
0.94233203

>  <BCUT_PEOE_0>
-2.8651092

>  <BCUT_PEOE_1>
-0.54590362

>  <BCUT_PEOE_2>
0.56208378

>  <BCUT_PEOE_3>
2.9498758

>  <BCUT_SLOGP_0>
-2.9078143

>  <BCUT_SLOGP_1>
-0.48006028

>  <BCUT_SLOGP_2>
0.65829873

>  <BCUT_SLOGP_3>
2.9847889

>  <BCUT_SMR_0>
-2.6050079

>  <BCUT_SMR_1>
-0.38583767

>  <BCUT_SMR_2>
0.69629884

>  <BCUT_SMR_3>
3.1903543

>  <bpol>
50.811451

>  <b_1rotN>
5

>  <b_1rotR>
0.12195122

>  <b_ar>
10

>  <b_count>
77

>  <b_double>
2

>  <b_heavy>
41

>  <b_max1len>
3

>  <b_rotN>
5

>  <b_rotR>
0.12195122

>  <b_single>
65

>  <b_triple>
0

>  <chi0>
23.517933

>  <chi0v>
21.295986

>  <chi0v_C>
17.465891

>  <chi0_C>
18.371668

>  <chi1>
17.169836

>  <chi1v>
14.614158

>  <chi1v_C>
10.25402

>  <chi1_C>
11.249149

>  <chiral>
6

>  <chiral_u>
2

>  <density>
0.73491865

>  <diameter>
17

>  <FCharge>
0

>  <GCUT_PEOE_0>
-0.85354149

>  <GCUT_PEOE_1>
-0.42092752

>  <GCUT_PEOE_2>
0.048395354

>  <GCUT_PEOE_3>
3.1777878

>  <GCUT_SLOGP_0>
-0.98724699

>  <GCUT_SLOGP_1>
-0.35625947

>  <GCUT_SLOGP_2>
0.13185127

>  <GCUT_SLOGP_3>
3.194766

>  <GCUT_SMR_0>
-0.53997767

>  <GCUT_SMR_1>
-0.19697148

>  <GCUT_SMR_2>
0.14920807

>  <GCUT_SMR_3>
3.4118798

>  <Kier1>
24.069006

>  <Kier2>
9.950551

>  <Kier3>
4.2982717

>  <KierA1>
21.011148

>  <KierA2>
8.6501932

>  <KierA3>
3.7252972

>  <KierFlex>
5.1928711

>  <lip_acc>
6

>  <lip_don>
0

>  <lip_druglike>
1

>  <lip_violation>
0

>  <logP(o/w)>
4.2259998

>  <logS>
-6.0655799

>  <mr>
13.92074

>  <mutagenic>
0

>  <nmol>
1

>  <opr_brigid>
34

>  <opr_leadlike>
0

>  <opr_nring>
7

>  <opr_nrot>
9

>  <opr_violation>
2

>  <PC+>
0

>  <PC->
0

>  <PEOE_PC+>
2.40256

>  <PEOE_PC->
-2.40256

>  <PEOE_RPC+>
0.10512355

>  <PEOE_RPC->
0.12470365

>  <PEOE_VSA+0>
217.85484

>  <PEOE_VSA+1>
17.061544

>  <PEOE_VSA+2>
11.190562

>  <PEOE_VSA+3>
0

>  <PEOE_VSA+4>
25.899061

>  <PEOE_VSA+5>
23.353428

>  <PEOE_VSA+6>
0

>  <PEOE_VSA-0>
47.691166

>  <PEOE_VSA-1>
66.422241

>  <PEOE_VSA-2>
0

>  <PEOE_VSA-3>
0

>  <PEOE_VSA-4>
0

>  <PEOE_VSA-5>
35.209049

>  <PEOE_VSA-6>
0

>  <PEOE_VSA_FHYD>
0.810063

>  <PEOE_VSA_FNEG>
0.33579612

>  <PEOE_VSA_FPNEG>
0.079178058

>  <PEOE_VSA_FPOL>
0.18993698

>  <PEOE_VSA_FPOS>
0.66420388

>  <PEOE_VSA_FPPOS>
0.11075892

>  <PEOE_VSA_HYD>
360.22037

>  <PEOE_VSA_NEG>
149.32246

>  <PEOE_VSA_PNEG>
35.209049

>  <PEOE_VSA_POL>
84.46154

>  <PEOE_VSA_POS>
295.35944

>  <PEOE_VSA_PPOS>
49.252491

>  <petitjean>
0.47058824

>  <petitjeanSC>
0.8888889

>  <Q_PC+>
0

>  <Q_PC->
0

>  <Q_RPC+>
0

>  <Q_RPC->
0

>  <Q_VSA_FHYD>
1

>  <Q_VSA_FNEG>
0

>  <Q_VSA_FPNEG>
0

>  <Q_VSA_FPOL>
0

>  <Q_VSA_FPOS>
1

>  <Q_VSA_FPPOS>
0

>  <Q_VSA_HYD>
444.68188

>  <Q_VSA_NEG>
0

>  <Q_VSA_PNEG>
0

>  <Q_VSA_POL>
0

>  <Q_VSA_POS>
444.68188

>  <Q_VSA_PPOS>
0

>  <radius>
9

>  <reactive>
0

>  <rings>
7

>  <RPC+>
0

>  <RPC->
0

>  <rsynth>
0.42857143

>  <SlogP>
4.2557998

>  <SlogP_VSA0>
3.1243138

>  <SlogP_VSA1>
31.742216

>  <SlogP_VSA2>
47.724434

>  <SlogP_VSA3>
110.63747

>  <SlogP_VSA4>
26.464777

>  <SlogP_VSA5>
0

>  <SlogP_VSA6>
0

>  <SlogP_VSA7>
73.891495

>  <SlogP_VSA8>
132.07884

>  <SlogP_VSA9>
33.379883

>  <SMR>
13.8252

>  <SMR_VSA0>
47.724434

>  <SMR_VSA1>
21.224649

>  <SMR_VSA2>
29.58909

>  <SMR_VSA3>
0

>  <SMR_VSA4>
5.6466751

>  <SMR_VSA5>
202.65158

>  <SMR_VSA6>
121.15504

>  <SMR_VSA7>
31.051962

>  <TPSA>
56.75

>  <VAdjEq>
0.3543945

>  <VAdjMa>
6.3575521

>  <VDistEq>
3.9017832

>  <VDistMa>
9.9405746

>  <vdw_area>
444.68188

>  <vdw_vol>
670.39801

>  <vsa_acc>
35.209049

>  <vsa_acid>
0

>  <vsa_base>
0

>  <vsa_don>
0

>  <vsa_hyd>
315.33487

>  <vsa_other>
60.44305

>  <vsa_pol>
35.209049

>  <Weight>
492.68799

>  <weinerPath>
4079

>  <weinerPol>
59

>  <zagreb>
204

$$$$