OC1(CCC2C3C(C4(C(=CC(=O)C=C4)C(C3)C)C)C(O)CC12C)C(=O)COC(=O)C
  MOE2013           2D

 30 33  0  0  1  0  0  0  0  0999 V2000
    0.0000    0.0000    0.0000 O   0  0  0  0  0  0  0  0  0  0  0  0
   -0.7220    1.3150    0.0000 C   0  0  3  0  0  0  0  0  0  0  0  0
   -0.8220    2.8110    0.0000 C   0  0  0  0  0  0  0  0  0  0  0  0
   -2.2760    3.1800    0.0000 C   0  0  0  0  0  0  0  0  0  0  0  0
   -3.0750    1.9100    0.0000 C   0  0  3  0  0  0  0  0  0  0  0  0
   -4.5530    1.6550    0.0000 C   0  0  3  0  0  0  0  0  0  0  0  0
   -5.0720    0.2480    0.0000 C   0  0  3  0  0  0  0  0  0  0  0  0
   -6.5500   -0.0070    0.0000 C   0  0  3  0  0  0  0  0  0  0  0  0
   -7.5100    1.1450    0.0000 C   0  0  0  0  0  0  0  0  0  0  0  0
   -8.9880    0.8900    0.0000 C   0  0  0  0  0  0  0  0  0  0  0  0
   -9.5060   -0.5170    0.0000 C   0  0  0  0  0  0  0  0  0  0  0  0
  -10.9840   -0.7730    0.0000 O   0  0  0  0  0  0  0  0  0  0  0  0
   -8.5460   -1.6700    0.0000 C   0  0  0  0  0  0  0  0  0  0  0  0
   -7.0680   -1.4150    0.0000 C   0  0  0  0  0  0  0  0  0  0  0  0
   -6.9910    2.5530    0.0000 C   0  0  3  0  0  0  0  0  0  0  0  0
   -5.5130    2.8080    0.0000 C   0  0  0  0  0  0  0  0  0  0  0  0
   -7.9510    3.7050    0.0000 C   0  0  0  0  0  0  0  0  0  0  0  0
   -5.5900   -1.1600    0.0000 C   0  0  0  0  0  0  0  0  0  0  0  0
   -4.1120   -0.9050    0.0000 C   0  0  3  0  0  0  0  0  0  0  0  0
   -4.6300   -2.3130    0.0000 O   0  0  0  0  0  0  0  0  0  0  0  0
   -2.6330   -0.6500    0.0000 C   0  0  0  0  0  0  0  0  0  0  0  0
   -2.1150    0.7580    0.0000 C   0  0  3  0  0  0  0  0  0  0  0  0
   -1.0580   -0.3070    0.0000 C   0  0  0  0  0  0  0  0  0  0  0  0
    0.7770    1.3350    0.0000 C   0  0  0  0  0  0  0  0  0  0  0  0
    1.5450    0.0470    0.0000 O   0  0  0  0  0  0  0  0  0  0  0  0
    1.5090    2.6450    0.0000 C   0  0  0  0  0  0  0  0  0  0  0  0
    3.0090    2.6650    0.0000 O   0  0  0  0  0  0  0  0  0  0  0  0
    3.7410    3.9740    0.0000 C   0  0  0  0  0  0  0  0  0  0  0  0
    5.2410    3.9950    0.0000 O   0  0  0  0  0  0  0  0  0  0  0  0
    2.9740    5.2630    0.0000 C   0  0  0  0  0  0  0  0  0  0  0  0
  1  2  1  0  0  0  0
  2  3  1  0  0  0  0
  2 22  1  0  0  0  0
  2 24  1  0  0  0  0
  3  4  1  0  0  0  0
  4  5  1  0  0  0  0
  5  6  1  0  0  0  0
  5 22  1  0  0  0  0
  6  7  1  0  0  0  0
  6 16  1  0  0  0  0
  7  8  1  0  0  0  0
  7 19  1  0  0  0  0
  8  9  1  0  0  0  0
  8 14  1  0  0  0  0
  8 18  1  0  0  0  0
  9 10  2  0  0  0  0
  9 15  1  0  0  0  0
 10 11  1  0  0  0  0
 11 12  2  0  0  0  0
 11 13  1  0  0  0  0
 13 14  2  0  0  0  0
 15 16  1  0  0  0  0
 15 17  1  0  0  0  0
 19 20  1  0  0  0  0
 19 21  1  0  0  0  0
 21 22  1  0  0  0  0
 22 23  1  0  0  0  0
 24 25  2  0  0  0  0
 24 26  1  0  0  0  0
 26 27  1  0  0  0  0
 27 28  1  0  0  0  0
 28 29  2  0  0  0  0
 28 30  1  0  0  0  0
M  END
>  <Index>
696

>  <ID>
HT1365

>  <class>
0

>  <apol>
68.389374

>  <ast_fraglike>
0

>  <ast_fraglike_ext>
0

>  <ast_violation>
2

>  <ast_violation_ext>
3

>  <a_acc>
5

>  <a_acid>
0

>  <a_aro>
0

>  <a_base>
0

>  <a_count>
62

>  <a_don>
2

>  <a_donacc>
7

>  <a_heavy>
30

>  <a_hyd>
21

>  <a_IC>
83.611298

>  <a_ICM>
1.3485693

>  <a_nB>
0

>  <a_nBr>
0

>  <a_nC>
24

>  <a_nCl>
0

>  <a_nF>
0

>  <a_nH>
32

>  <a_nI>
0

>  <a_nN>
0

>  <a_nO>
6

>  <a_nP>
0

>  <a_nS>
0

>  <balabanJ>
1.6370274

>  <BCUT_PEOE_0>
-2.9289398

>  <BCUT_PEOE_1>
-0.48841721

>  <BCUT_PEOE_2>
0.47298184

>  <BCUT_PEOE_3>
2.9781609

>  <BCUT_SLOGP_0>
-2.9063764

>  <BCUT_SLOGP_1>
-0.43700519

>  <BCUT_SLOGP_2>
0.46347806

>  <BCUT_SLOGP_3>
3.0073671

>  <BCUT_SMR_0>
-2.682265

>  <BCUT_SMR_1>
-0.33097664

>  <BCUT_SMR_2>
0.60611278

>  <BCUT_SMR_3>
3.2187605

>  <bpol>
39.772625

>  <b_1rotN>
3

>  <b_1rotR>
0.090909094

>  <b_ar>
0

>  <b_count>
65

>  <b_double>
5

>  <b_heavy>
33

>  <b_max1len>
5

>  <b_rotN>
4

>  <b_rotR>
0.12121212

>  <b_single>
60

>  <b_triple>
0

>  <chi0>
22.060114

>  <chi0v>
18.181757

>  <chi0v_C>
15.654336

>  <chi0_C>
16.353006

>  <chi1>
13.93703

>  <chi1v>
10.96204

>  <chi1v_C>
9.3750629

>  <chi1_C>
10.219381

>  <chiral>
8

>  <chiral_u>
8

>  <density>
0.73843336

>  <diameter>
14

>  <FCharge>
0

>  <GCUT_PEOE_0>
-0.800973

>  <GCUT_PEOE_1>
-0.38557419

>  <GCUT_PEOE_2>
0.018396826

>  <GCUT_PEOE_3>
3.3776407

>  <GCUT_SLOGP_0>
-0.94062907

>  <GCUT_SLOGP_1>
-0.33155763

>  <GCUT_SLOGP_2>
-0.00026906992

>  <GCUT_SLOGP_3>
3.4163539

>  <GCUT_SMR_0>
-0.53713942

>  <GCUT_SMR_1>
-0.21532521

>  <GCUT_SMR_2>
0.14135702

>  <GCUT_SMR_3>
3.6023388

>  <Kier1>
23.168043

>  <Kier2>
7.7969823

>  <Kier3>
3.3917642

>  <KierA1>
19.962866

>  <KierA2>
6.6821575

>  <KierA3>
2.8957183

>  <KierFlex>
4.4465003

>  <lip_acc>
6

>  <lip_don>
2

>  <lip_druglike>
1

>  <lip_violation>
0

>  <logP(o/w)>
2.737

>  <logS>
-4.49019

>  <mr>
11.0525

>  <mutagenic>
0

>  <nmol>
1

>  <opr_brigid>
20

>  <opr_leadlike>
1

>  <opr_nring>
4

>  <opr_nrot>
3

>  <opr_violation>
0

>  <PC+>
0

>  <PC->
0

>  <PEOE_PC+>
2.4521129

>  <PEOE_PC->
-2.4521129

>  <PEOE_RPC+>
0.10579872

>  <PEOE_RPC->
0.15963595

>  <PEOE_VSA+0>
121.11694

>  <PEOE_VSA+1>
30.497244

>  <PEOE_VSA+2>
14.951293

>  <PEOE_VSA+3>
16.917038

>  <PEOE_VSA+4>
20.648346

>  <PEOE_VSA+5>
14.708499

>  <PEOE_VSA+6>
0

>  <PEOE_VSA-0>
59.31506

>  <PEOE_VSA-1>
70.706474

>  <PEOE_VSA-2>
0

>  <PEOE_VSA-3>
0

>  <PEOE_VSA-4>
0

>  <PEOE_VSA-5>
40.700764

>  <PEOE_VSA-6>
18.038837

>  <PEOE_VSA_FHYD>
0.76914543

>  <PEOE_VSA_FNEG>
0.46310329

>  <PEOE_VSA_FPNEG>
0.14411071

>  <PEOE_VSA_FPOL>
0.23085459

>  <PEOE_VSA_FPOS>
0.53689671

>  <PEOE_VSA_FPPOS>
0.086743869

>  <PEOE_VSA_HYD>
313.50406

>  <PEOE_VSA_NEG>
188.76114

>  <PEOE_VSA_PNEG>
58.739597

>  <PEOE_VSA_POL>
94.096443

>  <PEOE_VSA_POS>
218.83936

>  <PEOE_VSA_PPOS>
35.356846

>  <petitjean>
0.5

>  <petitjeanSC>
1

>  <Q_PC+>
0

>  <Q_PC->
0

>  <Q_RPC+>
0

>  <Q_RPC->
0

>  <Q_VSA_FHYD>
1

>  <Q_VSA_FNEG>
0

>  <Q_VSA_FPNEG>
0

>  <Q_VSA_FPOL>
0

>  <Q_VSA_FPOS>
1

>  <Q_VSA_FPPOS>
0

>  <Q_VSA_HYD>
407.60049

>  <Q_VSA_NEG>
0

>  <Q_VSA_PNEG>
0

>  <Q_VSA_POL>
0

>  <Q_VSA_POS>
407.60049

>  <Q_VSA_PPOS>
0

>  <radius>
7

>  <reactive>
1

>  <rings>
4

>  <RPC+>
0

>  <RPC->
0

>  <rsynth>
0.40000001

>  <SlogP>
2.3743999

>  <SlogP_VSA0>
50.770454

>  <SlogP_VSA1>
19.120686

>  <SlogP_VSA2>
89.055183

>  <SlogP_VSA3>
20.926258

>  <SlogP_VSA4>
17.643185

>  <SlogP_VSA5>
3.185575

>  <SlogP_VSA6>
0

>  <SlogP_VSA7>
52.929554

>  <SlogP_VSA8>
75.473625

>  <SlogP_VSA9>
133.30406

>  <SMR>
10.91426

>  <SMR_VSA0>
82.58654

>  <SMR_VSA1>
50.770454

>  <SMR_VSA2>
17.643185

>  <SMR_VSA3>
9.6542244

>  <SMR_VSA4>
0

>  <SMR_VSA5>
128.40317

>  <SMR_VSA6>
40.046944

>  <SMR_VSA7>
133.30406

>  <TPSA>
100.9

>  <VAdjEq>
0.37824166

>  <VAdjMa>
6.044394

>  <VDistEq>
3.4145508

>  <VDistMa>
9.5354166

>  <vdw_area>
407.60049

>  <vdw_vol>
564.0509

>  <vsa_acc>
40.700764

>  <vsa_acid>
0

>  <vsa_base>
0

>  <vsa_don>
0

>  <vsa_hyd>
269.85297

>  <vsa_other>
34.129295

>  <vsa_pol>
67.834602

>  <Weight>
416.51398

>  <weinerPath>
2199

>  <weinerPol>
65

>  <zagreb>
174

$$$$