O=C1N(CCC1)[C@@H](CC)C(=O)N
  MOE2013           2D

 12 12  0  0  1  0  0  0  0  0999 V2000
    0.0000    0.0000    0.0000 O   0  0  0  0  0  0  0  0  0  0  0  0
   -0.1840   -1.4890    0.0000 C   0  0  0  0  0  0  0  0  0  0  0  0
    0.9130   -2.5120    0.0000 N   0  0  0  0  0  0  0  0  0  0  0  0
    0.2780   -3.8710    0.0000 C   0  0  0  0  0  0  0  0  0  0  0  0
   -1.2110   -3.6880    0.0000 C   0  0  0  0  0  0  0  0  0  0  0  0
   -1.4960   -2.2150    0.0000 C   0  0  0  0  0  0  0  0  0  0  0  0
    2.3850   -2.2270    0.0000 C   0  0  1  0  0  0  0  0  0  0  0  0
    2.8750   -0.8090    0.0000 C   0  0  0  0  0  0  0  0  0  0  0  0
    4.3470   -0.5240    0.0000 C   0  0  0  0  0  0  0  0  0  0  0  0
    3.3690   -3.3600    0.0000 C   0  0  0  0  0  0  0  0  0  0  0  0
    4.8410   -3.0750    0.0000 O   0  0  0  0  0  0  0  0  0  0  0  0
    2.8790   -4.7780    0.0000 N   0  0  0  0  0  0  0  0  0  0  0  0
  1  2  2  0  0  0  0
  2  3  1  0  0  0  0
  2  6  1  0  0  0  0
  3  4  1  0  0  0  0
  4  5  1  0  0  0  0
  5  6  1  0  0  0  0
  7  3  1  1  0  0  0
  7  8  1  0  0  0  0
  7 10  1  0  0  0  0
  8  9  1  0  0  0  0
 10 11  2  0  0  0  0
 10 12  1  0  0  0  0
M  END
>  <Index>
605

>  <ID>
HT1192

>  <class>
0

>  <apol>
27.219103

>  <ast_fraglike>
1

>  <ast_fraglike_ext>
1

>  <ast_violation>
0

>  <ast_violation_ext>
0

>  <a_acc>
2

>  <a_acid>
0

>  <a_aro>
0

>  <a_base>
0

>  <a_count>
26

>  <a_don>
1

>  <a_donacc>
3

>  <a_heavy>
12

>  <a_hyd>
6

>  <a_IC>
40.908463

>  <a_ICM>
1.5734024

>  <a_nB>
0

>  <a_nBr>
0

>  <a_nC>
8

>  <a_nCl>
0

>  <a_nF>
0

>  <a_nH>
14

>  <a_nI>
0

>  <a_nN>
2

>  <a_nO>
2

>  <a_nP>
0

>  <a_nS>
0

>  <balabanJ>
2.5369716

>  <BCUT_PEOE_0>
-2.595582

>  <BCUT_PEOE_1>
-0.40814647

>  <BCUT_PEOE_2>
0.33283004

>  <BCUT_PEOE_3>
2.6942575

>  <BCUT_SLOGP_0>
-2.7375968

>  <BCUT_SLOGP_1>
-0.37712255

>  <BCUT_SLOGP_2>
0.3096852

>  <BCUT_SLOGP_3>
2.6614332

>  <BCUT_SMR_0>
-2.3402507

>  <BCUT_SMR_1>
-0.18492396

>  <BCUT_SMR_2>
0.42163464

>  <BCUT_SMR_3>
2.9492052

>  <bpol>
18.540897

>  <b_1rotN>
3

>  <b_1rotR>
0.25

>  <b_ar>
0

>  <b_count>
26

>  <b_double>
2

>  <b_heavy>
12

>  <b_max1len>
4

>  <b_rotN>
3

>  <b_rotR>
0.25

>  <b_single>
24

>  <b_triple>
0

>  <chi0>
9.1378279

>  <chi0v>
7.2468376

>  <chi0v_C>
5.4057775

>  <chi0_C>
5.5604777

>  <chi1>
5.6639023

>  <chi1v>
4.2525406

>  <chi1v_C>
2.7575836

>  <chi1_C>
2.8569367

>  <chiral>
1

>  <chiral_u>
0

>  <density>
0.73887861

>  <diameter>
5

>  <FCharge>
0

>  <GCUT_PEOE_0>
-0.83962107

>  <GCUT_PEOE_1>
-0.39208129

>  <GCUT_PEOE_2>
0.027674392

>  <GCUT_PEOE_3>
2.451529

>  <GCUT_SLOGP_0>
-1.3706292

>  <GCUT_SLOGP_1>
-0.33326212

>  <GCUT_SLOGP_2>
0.037181549

>  <GCUT_SLOGP_3>
2.4095061

>  <GCUT_SMR_0>
-0.52408266

>  <GCUT_SMR_1>
-0.19392323

>  <GCUT_SMR_2>
0.096651189

>  <GCUT_SMR_3>
2.6804683

>  <Kier1>
10.083333

>  <Kier2>
4.296875

>  <Kier3>
2.25

>  <KierA1>
7.7729988

>  <KierA2>
3.2256289

>  <KierA3>
1.6539845

>  <KierFlex>
2.0894008

>  <lip_acc>
4

>  <lip_don>
2

>  <lip_druglike>
1

>  <lip_violation>
0

>  <logP(o/w)>
-0.361

>  <logS>
-0.69718999

>  <mr>
4.5469737

>  <mutagenic>
0

>  <nmol>
1

>  <opr_brigid>
5

>  <opr_leadlike>
1

>  <opr_nring>
1

>  <opr_nrot>
3

>  <opr_violation>
0

>  <PC+>
0

>  <PC->
0

>  <PEOE_PC+>
1.3591877

>  <PEOE_PC->
-1.3591877

>  <PEOE_RPC+>
0.17734832

>  <PEOE_RPC->
0.27085134

>  <PEOE_VSA+0>
68.812881

>  <PEOE_VSA+1>
4.2653861

>  <PEOE_VSA+2>
3.1459606

>  <PEOE_VSA+3>
17.238026

>  <PEOE_VSA+4>
25.899061

>  <PEOE_VSA+5>
0

>  <PEOE_VSA+6>
0

>  <PEOE_VSA-0>
17.402626

>  <PEOE_VSA-1>
18.747677

>  <PEOE_VSA-2>
0

>  <PEOE_VSA-3>
0

>  <PEOE_VSA-4>
0

>  <PEOE_VSA-5>
27.133842

>  <PEOE_VSA-6>
6.6511192

>  <PEOE_VSA_FHYD>
0.68470627

>  <PEOE_VSA_FNEG>
0.3694481

>  <PEOE_VSA_FPNEG>
0.17847633

>  <PEOE_VSA_FPOL>
0.31529373

>  <PEOE_VSA_FPOS>
0.63055187

>  <PEOE_VSA_FPPOS>
0.13681738

>  <PEOE_VSA_HYD>
129.61256

>  <PEOE_VSA_NEG>
69.935265

>  <PEOE_VSA_PNEG>
33.784962

>  <PEOE_VSA_POL>
59.684025

>  <PEOE_VSA_POS>
119.36132

>  <PEOE_VSA_PPOS>
25.899061

>  <petitjean>
0.40000001

>  <petitjeanSC>
0.66666669

>  <Q_PC+>
0

>  <Q_PC->
0

>  <Q_RPC+>
0

>  <Q_RPC->
0

>  <Q_VSA_FHYD>
1

>  <Q_VSA_FNEG>
0

>  <Q_VSA_FPNEG>
0

>  <Q_VSA_FPOL>
0

>  <Q_VSA_FPOS>
1

>  <Q_VSA_FPPOS>
0

>  <Q_VSA_HYD>
189.29659

>  <Q_VSA_NEG>
0

>  <Q_VSA_PNEG>
0

>  <Q_VSA_POL>
0

>  <Q_VSA_POS>
189.29659

>  <Q_VSA_PPOS>
0

>  <radius>
3

>  <reactive>
0

>  <rings>
1

>  <RPC+>
0

>  <RPC->
0

>  <rsynth>
0.083333336

>  <SlogP>
-0.12729999

>  <SlogP_VSA0>
32.897186

>  <SlogP_VSA1>
13.641881

>  <SlogP_VSA2>
51.706402

>  <SlogP_VSA3>
18.439579

>  <SlogP_VSA4>
0

>  <SlogP_VSA5>
0

>  <SlogP_VSA6>
0

>  <SlogP_VSA7>
0

>  <SlogP_VSA8>
56.605217

>  <SlogP_VSA9>
33.326015

>  <SMR>
4.42204

>  <SMR_VSA0>
47.724434

>  <SMR_VSA1>
3.1243138

>  <SMR_VSA2>
0

>  <SMR_VSA3>
3.9819686

>  <SMR_VSA4>
32.897186

>  <SMR_VSA5>
56.605217

>  <SMR_VSA6>
28.957146

>  <SMR_VSA7>
33.326015

>  <TPSA>
63.400002

>  <VAdjEq>
0.65002245

>  <VAdjMa>
4.5849624

>  <VDistEq>
2.2950728

>  <VDistMa>
6.8866448

>  <vdw_area>
189.29659

>  <vdw_vol>
230.36531

>  <vsa_acc>
27.133842

>  <vsa_acid>
0

>  <vsa_base>
0

>  <vsa_don>
17.742489

>  <vsa_hyd>
103.83299

>  <vsa_other>
25.899061

>  <vsa_pol>
44.876331

>  <Weight>
170.21199

>  <weinerPath>
190

>  <weinerPol>
15

>  <zagreb>
56

$$$$