O=C1CC[C@@H]2[C@@H]3[C@H]([C@@H]4CC[C@@](O)(C#C)[C@]4(CC3)CC)CCC2=C1
  MOE2013           2D

 23 26  0  0  1  0  0  0  0  0999 V2000
    0.0000    0.0000    0.0000 O   0  0  0  0  0  0  0  0  0  0  0  0
   -1.5000   -0.0060    0.0000 C   0  0  0  0  0  0  0  0  0  0  0  0
   -2.2450   -1.3080    0.0000 C   0  0  0  0  0  0  0  0  0  0  0  0
   -3.7450   -1.3150    0.0000 C   0  0  0  0  0  0  0  0  0  0  0  0
   -4.5000   -0.0190    0.0000 C   0  0  2  0  0  0  0  0  0  0  0  0
   -6.0000   -0.0250    0.0000 C   0  0  2  0  0  0  0  0  0  0  0  0
   -6.7550    1.2710    0.0000 C   0  0  2  0  0  0  0  0  0  0  0  0
   -8.2550    1.2640    0.0000 C   0  0  2  0  0  0  0  0  0  0  0  0
   -9.2640    2.3750    0.0000 C   0  0  0  0  0  0  0  0  0  0  0  0
  -10.6310    1.7590    0.0000 C   0  0  0  0  0  0  0  0  0  0  0  0
  -10.4680    0.2680    0.0000 C   0  0  1  0  0  0  0  0  0  0  0  0
  -10.8510   -1.1820    0.0000 O   0  0  0  0  0  0  0  0  0  0  0  0
  -11.9290   -0.0760    0.0000 C   0  0  0  0  0  0  0  0  0  0  0  0
  -13.3890   -0.4190    0.0000 C   0  0  0  0  0  0  0  0  0  0  0  0
   -9.0000   -0.0380    0.0000 C   0  0  1  0  0  0  0  0  0  0  0  0
   -8.2440   -1.3340    0.0000 C   0  0  0  0  0  0  0  0  0  0  0  0
   -6.7440   -1.3270    0.0000 C   0  0  0  0  0  0  0  0  0  0  0  0
   -9.8770   -1.2550    0.0000 C   0  0  0  0  0  0  0  0  0  0  0  0
   -9.2610   -2.6230    0.0000 C   0  0  0  0  0  0  0  0  0  0  0  0
   -6.0110    2.5730    0.0000 C   0  0  0  0  0  0  0  0  0  0  0  0
   -4.5110    2.5790    0.0000 C   0  0  0  0  0  0  0  0  0  0  0  0
   -3.7550    1.2830    0.0000 C   0  0  0  0  0  0  0  0  0  0  0  0
   -2.2550    1.2900    0.0000 C   0  0  0  0  0  0  0  0  0  0  0  0
  1  2  2  0  0  0  0
  2  3  1  0  0  0  0
  2 23  1  0  0  0  0
  3  4  1  0  0  0  0
  5  4  1  6  0  0  0
  5  6  1  0  0  0  0
  5 22  1  0  0  0  0
  6  7  1  0  0  0  0
  6 17  1  1  0  0  0
  7  8  1  0  0  0  0
  7 20  1  6  0  0  0
  8  9  1  1  0  0  0
  8 15  1  0  0  0  0
  9 10  1  0  0  0  0
 10 11  1  0  0  0  0
 11 12  1  1  0  0  0
 11 13  1  6  0  0  0
 11 15  1  0  0  0  0
 13 14  3  0  0  0  0
 15 16  1  0  0  0  0
 15 18  1  1  0  0  0
 16 17  1  0  0  0  0
 18 19  1  0  0  0  0
 20 21  1  0  0  0  0
 21 22  1  0  0  0  0
 22 23  2  0  0  0  0
M  END
>  <Index>
610

>  <ID>
HT1200

>  <class>
0

>  <apol>
57.234203

>  <ast_fraglike>
0

>  <ast_fraglike_ext>
0

>  <ast_violation>
2

>  <ast_violation_ext>
2

>  <a_acc>
2

>  <a_acid>
0

>  <a_aro>
0

>  <a_base>
0

>  <a_count>
51

>  <a_don>
1

>  <a_donacc>
3

>  <a_heavy>
23

>  <a_hyd>
20

>  <a_IC>
60.449089

>  <a_ICM>
1.1852763

>  <a_nB>
0

>  <a_nBr>
0

>  <a_nC>
21

>  <a_nCl>
0

>  <a_nF>
0

>  <a_nH>
28

>  <a_nI>
0

>  <a_nN>
0

>  <a_nO>
2

>  <a_nP>
0

>  <a_nS>
0

>  <balabanJ>
1.6028736

>  <BCUT_PEOE_0>
-2.9325354

>  <BCUT_PEOE_1>
-0.54876584

>  <BCUT_PEOE_2>
0.51709324

>  <BCUT_PEOE_3>
2.9607317

>  <BCUT_SLOGP_0>
-2.8567803

>  <BCUT_SLOGP_1>
-0.51699132

>  <BCUT_SLOGP_2>
0.49812913

>  <BCUT_SLOGP_3>
3.0298946

>  <BCUT_SMR_0>
-2.6793025

>  <BCUT_SMR_1>
-0.34610218

>  <BCUT_SMR_2>
0.65962428

>  <BCUT_SMR_3>
3.208662

>  <bpol>
31.567797

>  <b_1rotN>
1

>  <b_1rotR>
0.03846154

>  <b_ar>
0

>  <b_count>
54

>  <b_double>
2

>  <b_heavy>
26

>  <b_max1len>
3

>  <b_rotN>
2

>  <b_rotR>
0.07692308

>  <b_single>
51

>  <b_triple>
1

>  <chi0>
16.242277

>  <chi0v>
14.183524

>  <chi0v_C>
13.328063

>  <chi0_C>
14.242276

>  <chi1>
11.043772

>  <chi1v>
9.4789734

>  <chi1v_C>
9.0512428

>  <chi1_C>
9.9664221

>  <chiral>
6

>  <chiral_u>
0

>  <density>
0.6743778

>  <diameter>
11

>  <FCharge>
0

>  <GCUT_PEOE_0>
-0.79292101

>  <GCUT_PEOE_1>
-0.39292154

>  <GCUT_PEOE_2>
0.022349192

>  <GCUT_PEOE_3>
3.2643919

>  <GCUT_SLOGP_0>
-0.88834476

>  <GCUT_SLOGP_1>
-0.32560498

>  <GCUT_SLOGP_2>
0.027562262

>  <GCUT_SLOGP_3>
3.345113

>  <GCUT_SMR_0>
-0.53768027

>  <GCUT_SMR_1>
-0.22338207

>  <GCUT_SMR_2>
0.16736116

>  <GCUT_SMR_3>
3.4918394

>  <Kier1>
16.467455

>  <Kier2>
5.7715645

>  <Kier3>
2.2171831

>  <KierA1>
14.352071

>  <KierA2>
4.9970255

>  <KierA3>
1.9100529

>  <KierFlex>
3.1181593

>  <lip_acc>
2

>  <lip_don>
1

>  <lip_druglike>
1

>  <lip_violation>
0

>  <logP(o/w)>
3.5599999

>  <logS>
-5.38272

>  <mr>
9.1163626

>  <mutagenic>
0

>  <nmol>
1

>  <opr_brigid>
21

>  <opr_leadlike>
1

>  <opr_nring>
4

>  <opr_nrot>
2

>  <opr_violation>
0

>  <PC+>
0

>  <PC->
0

>  <PEOE_PC+>
1.4246645

>  <PEOE_PC->
-1.4246645

>  <PEOE_RPC+>
0.14839073

>  <PEOE_RPC->
0.2639066

>  <PEOE_VSA+0>
115.33596

>  <PEOE_VSA+1>
4.2653861

>  <PEOE_VSA+2>
4.2653861

>  <PEOE_VSA+3>
8.458519

>  <PEOE_VSA+4>
10.324173

>  <PEOE_VSA+5>
0

>  <PEOE_VSA+6>
0

>  <PEOE_VSA-0>
81.86541

>  <PEOE_VSA-1>
36.764713

>  <PEOE_VSA-2>
25.854858

>  <PEOE_VSA-3>
0

>  <PEOE_VSA-4>
0

>  <PEOE_VSA-5>
13.566921

>  <PEOE_VSA-6>
7.7675405

>  <PEOE_VSA_FHYD>
0.89736849

>  <PEOE_VSA_FNEG>
0.53755647

>  <PEOE_VSA_FPNEG>
0.069162443

>  <PEOE_VSA_FPOL>
0.10263154

>  <PEOE_VSA_FPOS>
0.4624435

>  <PEOE_VSA_FPPOS>
0.033469092

>  <PEOE_VSA_HYD>
276.81024

>  <PEOE_VSA_NEG>
165.81944

>  <PEOE_VSA_PNEG>
21.334461

>  <PEOE_VSA_POL>
31.658634

>  <PEOE_VSA_POS>
142.64943

>  <PEOE_VSA_PPOS>
10.324173

>  <petitjean>
0.45454547

>  <petitjeanSC>
0.83333331

>  <Q_PC+>
0

>  <Q_PC->
0

>  <Q_RPC+>
0

>  <Q_RPC->
0

>  <Q_VSA_FHYD>
1

>  <Q_VSA_FNEG>
0

>  <Q_VSA_FPNEG>
0

>  <Q_VSA_FPOL>
0

>  <Q_VSA_FPOS>
1

>  <Q_VSA_FPPOS>
0

>  <Q_VSA_HYD>
308.46887

>  <Q_VSA_NEG>
0

>  <Q_VSA_PNEG>
0

>  <Q_VSA_POL>
0

>  <Q_VSA_POS>
308.46887

>  <Q_VSA_PPOS>
0

>  <radius>
6

>  <reactive>
1

>  <rings>
4

>  <RPC+>
0

>  <RPC->
0

>  <rsynth>
0

>  <SlogP>
3.8826079

>  <SlogP_VSA0>
25.385227

>  <SlogP_VSA1>
5.6876111

>  <SlogP_VSA2>
23.862217

>  <SlogP_VSA3>
17.030573

>  <SlogP_VSA4>
49.131367

>  <SlogP_VSA5>
3.185575

>  <SlogP_VSA6>
0

>  <SlogP_VSA7>
17.643185

>  <SlogP_VSA8>
169.81564

>  <SlogP_VSA9>
33.326015

>  <SMR>
9.0492802

>  <SMR_VSA0>
23.862217

>  <SMR_VSA1>
25.385227

>  <SMR_VSA2>
17.643185

>  <SMR_VSA3>
20.216148

>  <SMR_VSA4>
0

>  <SMR_VSA5>
187.45883

>  <SMR_VSA6>
37.175793

>  <SMR_VSA7>
33.326015

>  <TPSA>
37.299999

>  <VAdjEq>
0.46357921

>  <VAdjMa>
5.7004399

>  <VDistEq>
3.0912051

>  <VDistMa>
8.7669983

>  <vdw_area>
308.46887

>  <vdw_vol>
463.3204

>  <vsa_acc>
13.566921

>  <vsa_acid>
0

>  <vsa_base>
0

>  <vsa_don>
0

>  <vsa_hyd>
243.75304

>  <vsa_other>
8.458519

>  <vsa_pol>
27.133842

>  <Weight>
312.453

>  <weinerPath>
1053

>  <weinerPol>
49

>  <zagreb>
134

$$$$