O(C(=O)C=1C(C(=C(OC)/O)C(=NC=1C)C)c1cc([N+](=O)[O-])ccc1)CCN1CCN(CC1)C(c1ccccc1)c1ccccc1
  MOE2013           2D

 45 49  0  0  1  0  0  0  0  0999 V2000
    0.0000    0.0000    0.0000 O   0  0  0  0  0  0  0  0  0  0  0  0
    0.7560    1.2950    0.0000 C   0  0  0  0  0  0  0  0  0  0  0  0
    0.0120    2.5980    0.0000 O   0  0  0  0  0  0  0  0  0  0  0  0
    2.2560    1.2880    0.0000 C   0  0  0  0  0  0  0  0  0  0  0  0
    3.0120    2.5840    0.0000 C   0  0  3  0  0  0  0  0  0  0  0  0
    4.5120    2.5770    0.0000 C   0  0  0  0  0  0  0  0  0  0  0  0
    5.2680    3.8720    0.0000 C   0  0  0  0  0  0  0  0  0  0  0  0
    6.7680    3.8650    0.0000 O   0  0  0  0  0  0  0  0  0  0  0  0
    7.5240    5.1610    0.0000 C   0  0  0  0  0  0  0  0  0  0  0  0
    4.5240    5.1750    0.0000 O   0  0  0  0  0  0  0  0  0  0  0  0
    5.2560    1.2740    0.0000 C   0  0  0  0  0  0  0  0  0  0  0  0
    4.5000   -0.0210    0.0000 N   0  0  0  0  0  0  0  0  0  0  0  0
    3.0000   -0.0140    0.0000 C   0  0  0  0  0  0  0  0  0  0  0  0
    2.2440   -1.3100    0.0000 C   0  0  0  0  0  0  0  0  0  0  0  0
    6.7560    1.2670    0.0000 C   0  0  0  0  0  0  0  0  0  0  0  0
    2.2680    3.8860    0.0000 C   0  0  0  0  0  0  0  0  0  0  0  0
    3.0240    5.1820    0.0000 C   0  0  0  0  0  0  0  0  0  0  0  0
    2.2810    6.4850    0.0000 C   0  0  0  0  0  0  0  0  0  0  0  0
    3.0370    7.7800    0.0000 N   0  3  0  0  0  0  0  0  0  0  0  0
    4.5370    7.7730    0.0000 O   0  0  0  0  0  0  0  0  0  0  0  0
    2.2930    9.0830    0.0000 O   0  5  0  0  0  0  0  0  0  0  0  0
    0.7810    6.4920    0.0000 C   0  0  0  0  0  0  0  0  0  0  0  0
    0.0240    5.1960    0.0000 C   0  0  0  0  0  0  0  0  0  0  0  0
    0.7680    3.8940    0.0000 C   0  0  0  0  0  0  0  0  0  0  0  0
   -1.5000    0.0070    0.0000 C   0  0  0  0  0  0  0  0  0  0  0  0
   -2.2560   -1.2880    0.0000 C   0  0  0  0  0  0  0  0  0  0  0  0
   -3.7560   -1.2810    0.0000 N   0  0  0  0  0  0  0  0  0  0  0  0
   -4.5120   -2.5770    0.0000 C   0  0  0  0  0  0  0  0  0  0  0  0
   -6.0120   -2.5700    0.0000 C   0  0  0  0  0  0  0  0  0  0  0  0
   -6.7560   -1.2670    0.0000 N   0  0  0  0  0  0  0  0  0  0  0  0
   -6.0000    0.0280    0.0000 C   0  0  0  0  0  0  0  0  0  0  0  0
   -4.5000    0.0210    0.0000 C   0  0  0  0  0  0  0  0  0  0  0  0
   -8.2560   -1.2600    0.0000 C   0  0  0  0  0  0  0  0  0  0  0  0
   -9.0120   -2.5560    0.0000 C   0  0  0  0  0  0  0  0  0  0  0  0
   -8.2680   -3.8580    0.0000 C   0  0  0  0  0  0  0  0  0  0  0  0
   -9.0240   -5.1540    0.0000 C   0  0  0  0  0  0  0  0  0  0  0  0
  -10.5240   -5.1470    0.0000 C   0  0  0  0  0  0  0  0  0  0  0  0
  -11.2680   -3.8440    0.0000 C   0  0  0  0  0  0  0  0  0  0  0  0
  -10.5120   -2.5490    0.0000 C   0  0  0  0  0  0  0  0  0  0  0  0
   -9.0000    0.0420    0.0000 C   0  0  0  0  0  0  0  0  0  0  0  0
   -8.2440    1.3380    0.0000 C   0  0  0  0  0  0  0  0  0  0  0  0
   -8.9880    2.6400    0.0000 C   0  0  0  0  0  0  0  0  0  0  0  0
  -10.4880    2.6480    0.0000 C   0  0  0  0  0  0  0  0  0  0  0  0
  -11.2440    1.3520    0.0000 C   0  0  0  0  0  0  0  0  0  0  0  0
  -10.5000    0.0490    0.0000 C   0  0  0  0  0  0  0  0  0  0  0  0
  1  2  1  0  0  0  0
  1 25  1  0  0  0  0
  2  3  2  0  0  0  0
  2  4  1  0  0  0  0
  4  5  1  0  0  0  0
  4 13  2  0  0  0  0
  5  6  1  0  0  0  0
  5 16  1  0  0  0  0
  6  7  2  3  0  0  0
  6 11  1  0  0  0  0
  7  8  1  0  0  0  0
  7 10  1  0  0  0  0
  8  9  1  0  0  0  0
 11 12  2  0  0  0  0
 11 15  1  0  0  0  0
 12 13  1  0  0  0  0
 13 14  1  0  0  0  0
 16 17  1  0  0  0  0
 16 24  2  0  0  0  0
 17 18  2  0  0  0  0
 18 19  1  0  0  0  0
 18 22  1  0  0  0  0
 19 20  2  0  0  0  0
 19 21  1  0  0  0  0
 22 23  2  0  0  0  0
 23 24  1  0  0  0  0
 25 26  1  0  0  0  0
 26 27  1  0  0  0  0
 27 28  1  0  0  0  0
 27 32  1  0  0  0  0
 28 29  1  0  0  0  0
 29 30  1  0  0  0  0
 30 31  1  0  0  0  0
 30 33  1  0  0  0  0
 31 32  1  0  0  0  0
 33 34  1  0  0  0  0
 33 40  1  0  0  0  0
 34 35  1  0  0  0  0
 34 39  2  0  0  0  0
 35 36  2  0  0  0  0
 36 37  1  0  0  0  0
 37 38  2  0  0  0  0
 38 39  1  0  0  0  0
 40 41  1  0  0  0  0
 40 45  2  0  0  0  0
 41 42  2  0  0  0  0
 42 43  1  0  0  0  0
 43 44  2  0  0  0  0
 44 45  1  0  0  0  0
M  CHG  1  19   1
M  CHG  1  21  -1
M  END
>  <Index>
650

>  <ID>
HT1268

>  <class>
0

>  <apol>
96.150131

>  <ast_fraglike>
0

>  <ast_fraglike_ext>
0

>  <ast_violation>
3

>  <ast_violation_ext>
4

>  <a_acc>
6

>  <a_acid>
0

>  <a_aro>
18

>  <a_base>
0

>  <a_count>
83

>  <a_don>
1

>  <a_donacc>
7

>  <a_heavy>
45

>  <a_hyd>
33

>  <a_IC>
126.67235

>  <a_ICM>
1.5261729

>  <a_nB>
0

>  <a_nBr>
0

>  <a_nC>
35

>  <a_nCl>
0

>  <a_nF>
0

>  <a_nH>
38

>  <a_nI>
0

>  <a_nN>
4

>  <a_nO>
6

>  <a_nP>
0

>  <a_nS>
0

>  <balabanJ>
1.1711297

>  <BCUT_PEOE_0>
-2.7852921

>  <BCUT_PEOE_1>
-0.55891436

>  <BCUT_PEOE_2>
0.62602866

>  <BCUT_PEOE_3>
2.6882589

>  <BCUT_SLOGP_0>
-2.8914237

>  <BCUT_SLOGP_1>
-0.46361932

>  <BCUT_SLOGP_2>
0.72042578

>  <BCUT_SLOGP_3>
2.6308045

>  <BCUT_SMR_0>
-2.5013194

>  <BCUT_SMR_1>
-0.42702308

>  <BCUT_SMR_2>
0.76683301

>  <BCUT_SMR_3>
2.9643078

>  <bpol>
52.867867

>  <b_1rotN>
10

>  <b_1rotR>
0.20408164

>  <b_ar>
18

>  <b_count>
87

>  <b_double>
5

>  <b_heavy>
49

>  <b_max1len>
3

>  <b_rotN>
11

>  <b_rotR>
0.22448979

>  <b_single>
64

>  <b_triple>
0

>  <chi0>
31.92371

>  <chi0v>
25.757555

>  <chi0v_C>
21.480246

>  <chi0_C>
24.070339

>  <chi1>
21.778095

>  <chi1v>
14.994319

>  <chi1v_C>
10.58611

>  <chi1_C>
13.920687

>  <chiral>
1

>  <chiral_u>
1

>  <density>
0.73165178

>  <diameter>
19

>  <FCharge>
0

>  <GCUT_PEOE_0>
-0.85067439

>  <GCUT_PEOE_1>
-0.38958189

>  <GCUT_PEOE_2>
0.068749629

>  <GCUT_PEOE_3>
2.9720855

>  <GCUT_SLOGP_0>
-0.96397263

>  <GCUT_SLOGP_1>
-0.26895574

>  <GCUT_SLOGP_2>
0.14776

>  <GCUT_SLOGP_3>
3.01261

>  <GCUT_SMR_0>
-0.51565897

>  <GCUT_SMR_1>
-0.19348823

>  <GCUT_SMR_2>
0.17729725

>  <GCUT_SMR_3>
3.2316358

>  <Kier1>
36.284882

>  <Kier2>
17.59429

>  <Kier3>
9.1701326

>  <KierA1>
27.730465

>  <KierA2>
13.359198

>  <KierA3>
6.9307003

>  <KierFlex>
8.2323723

>  <lip_acc>
10

>  <lip_don>
1

>  <lip_druglike>
0

>  <lip_violation>
2

>  <logP(o/w)>
5.6279998

>  <logS>
-7.4102402

>  <mr>
17.18169

>  <mutagenic>
1

>  <nmol>
1

>  <opr_brigid>
31

>  <opr_leadlike>
0

>  <opr_nring>
5

>  <opr_nrot>
12

>  <opr_violation>
5

>  <PC+>
0

>  <PC->
0

>  <PEOE_PC+>
3.430033

>  <PEOE_PC->
-3.430033

>  <PEOE_RPC+>
0.085266076

>  <PEOE_RPC->
0.099176884

>  <PEOE_VSA+0>
203.58829

>  <PEOE_VSA+1>
109.64155

>  <PEOE_VSA+2>
0

>  <PEOE_VSA+3>
14.708499

>  <PEOE_VSA+4>
10.324173

>  <PEOE_VSA+5>
21.408051

>  <PEOE_VSA+6>
0

>  <PEOE_VSA-0>
44.120975

>  <PEOE_VSA-1>
147.05885

>  <PEOE_VSA-2>
0

>  <PEOE_VSA-3>
0

>  <PEOE_VSA-4>
0

>  <PEOE_VSA-5>
53.180546

>  <PEOE_VSA-6>
12.775052

>  <PEOE_VSA_FHYD>
0.84162313

>  <PEOE_VSA_FNEG>
0.41688219

>  <PEOE_VSA_FPNEG>
0.10693087

>  <PEOE_VSA_FPOL>
0.1583769

>  <PEOE_VSA_FPOS>
0.58311784

>  <PEOE_VSA_FPPOS>
0.051446036

>  <PEOE_VSA_HYD>
519.11816

>  <PEOE_VSA_NEG>
257.13541

>  <PEOE_VSA_PNEG>
65.955597

>  <PEOE_VSA_POL>
97.68782

>  <PEOE_VSA_POS>
359.67056

>  <PEOE_VSA_PPOS>
31.732224

>  <petitjean>
0.47368422

>  <petitjeanSC>
0.89999998

>  <Q_PC+>
0

>  <Q_PC->
0

>  <Q_RPC+>
0

>  <Q_RPC->
0

>  <Q_VSA_FHYD>
1

>  <Q_VSA_FNEG>
0

>  <Q_VSA_FPNEG>
0

>  <Q_VSA_FPOL>
0

>  <Q_VSA_FPOS>
1

>  <Q_VSA_FPPOS>
0

>  <Q_VSA_HYD>
616.80597

>  <Q_VSA_NEG>
0

>  <Q_VSA_PNEG>
0

>  <Q_VSA_POL>
0

>  <Q_VSA_POS>
616.80597

>  <Q_VSA_PPOS>
0

>  <radius>
10

>  <reactive>
1

>  <rings>
5

>  <RPC+>
0

>  <RPC->
0

>  <rsynth>
1

>  <SlogP>
5.8888001

>  <SlogP_VSA0>
0

>  <SlogP_VSA1>
23.836456

>  <SlogP_VSA2>
45.861992

>  <SlogP_VSA3>
189.44438

>  <SlogP_VSA4>
9.5567245

>  <SlogP_VSA5>
68.598579

>  <SlogP_VSA6>
4.4107962

>  <SlogP_VSA7>
247.00458

>  <SlogP_VSA8>
3.9819686

>  <SlogP_VSA9>
69.408775

>  <SMR>
17.212021

>  <SMR_VSA0>
52.947609

>  <SMR_VSA1>
23.034157

>  <SMR_VSA2>
76.320236

>  <SMR_VSA3>
34.37867

>  <SMR_VSA4>
2.7567475

>  <SMR_VSA5>
247.00458

>  <SMR_VSA6>
123.62636

>  <SMR_VSA7>
102.0359

>  <TPSA>
120.42

>  <VAdjEq>
0.27953976

>  <VAdjMa>
6.6147099

>  <VDistEq>
4.099709

>  <VDistMa>
10.685358

>  <vdw_area>
616.80597

>  <vdw_vol>
834.70166

>  <vsa_acc>
21.753254

>  <vsa_acid>
0

>  <vsa_base>
0

>  <vsa_don>
0

>  <vsa_hyd>
476.72818

>  <vsa_other>
72.551353

>  <vsa_pol>
35.320175

>  <Weight>
610.711

>  <weinerPath>
8114

>  <weinerPol>
77

>  <zagreb>
234

$$$$