S1SC[C@H](NC(=O)[C@@H](NC(=O)[C@@H](NC(=O)[C@@H](NC(=O)[C@@H](NC(=O)[C@@H](N)C1)Cc1ccc(O)cc1)Cc1ccccc1)CCC(=O)N)CC(=O)N)C(=O)N1CCC[C@H]1C(=O)N[C@@H](CCCCN)C(=O)NCC(=O)N
  MOE2013           2D

 73 76  0  0  1  0  0  0  0  0999 V2000
    0.0000    0.0000    0.0000 S   0  0  0  0  0  0  0  0  0  0  0  0
    0.0610    1.4830    0.0000 S   0  0  0  0  0  0  0  0  0  0  0  0
    1.3820    2.1870    0.0000 C   0  0  0  0  0  0  0  0  0  0  0  0
    1.5710    3.6130    0.0000 C   0  0  2  0  0  0  0  0  0  0  0  0
    0.4870    4.6370    0.0000 N   0  0  0  0  0  0  0  0  0  0  0  0
    0.8510    6.0990    0.0000 C   0  0  0  0  0  0  0  0  0  0  0  0
    2.2980    6.4910    0.0000 O   0  0  0  0  0  0  0  0  0  0  0  0
   -0.1780    7.1550    0.0000 C   0  0  1  0  0  0  0  0  0  0  0  0
   -1.6410    6.8460    0.0000 N   0  0  0  0  0  0  0  0  0  0  0  0
   -2.6420    7.9670    0.0000 C   0  0  0  0  0  0  0  0  0  0  0  0
   -2.1610    9.3880    0.0000 O   0  0  0  0  0  0  0  0  0  0  0  0
   -4.1020    7.6880    0.0000 C   0  0  1  0  0  0  0  0  0  0  0  0
   -4.6180    6.2750    0.0000 N   0  0  0  0  0  0  0  0  0  0  0  0
   -6.0870    6.0180    0.0000 C   0  0  0  0  0  0  0  0  0  0  0  0
   -7.0130    7.1980    0.0000 O   0  0  0  0  0  0  0  0  0  0  0  0
   -6.6750    4.6770    0.0000 C   0  0  1  0  0  0  0  0  0  0  0  0
   -5.8410    3.4240    0.0000 N   0  0  0  0  0  0  0  0  0  0  0  0
   -6.5000    2.0950    0.0000 C   0  0  0  0  0  0  0  0  0  0  0  0
   -7.9980    2.1610    0.0000 O   0  0  0  0  0  0  0  0  0  0  0  0
   -6.0000    0.8160    0.0000 C   0  0  1  0  0  0  0  0  0  0  0  0
   -4.9040    0.0120    0.0000 N   0  0  0  0  0  0  0  0  0  0  0  0
   -3.4420    0.2650    0.0000 C   0  0  0  0  0  0  0  0  0  0  0  0
   -2.9350    1.6770    0.0000 O   0  0  0  0  0  0  0  0  0  0  0  0
   -2.4710   -0.8660    0.0000 C   0  0  1  0  0  0  0  0  0  0  0  0
   -3.0970   -2.2290    0.0000 N   0  0  0  0  0  0  0  0  0  0  0  0
   -1.0860   -0.8650    0.0000 C   0  0  0  0  0  0  0  0  0  0  0  0
   -7.1900   -0.0980    0.0000 C   0  0  0  0  0  0  0  0  0  0  0  0
   -6.9930   -1.5850    0.0000 C   0  0  0  0  0  0  0  0  0  0  0  0
   -8.1820   -2.4990    0.0000 C   0  0  0  0  0  0  0  0  0  0  0  0
   -7.9850   -3.9860    0.0000 C   0  0  0  0  0  0  0  0  0  0  0  0
   -6.5990   -4.5590    0.0000 C   0  0  0  0  0  0  0  0  0  0  0  0
   -6.4020   -6.0460    0.0000 O   0  0  0  0  0  0  0  0  0  0  0  0
   -5.4100   -3.6450    0.0000 C   0  0  0  0  0  0  0  0  0  0  0  0
   -5.6070   -2.1580    0.0000 C   0  0  0  0  0  0  0  0  0  0  0  0
   -8.1690    4.5460    0.0000 C   0  0  0  0  0  0  0  0  0  0  0  0
   -9.0290    5.7750    0.0000 C   0  0  0  0  0  0  0  0  0  0  0  0
  -10.5230    5.6450    0.0000 C   0  0  0  0  0  0  0  0  0  0  0  0
  -11.3840    6.8740    0.0000 C   0  0  0  0  0  0  0  0  0  0  0  0
  -10.7490    8.2330    0.0000 C   0  0  0  0  0  0  0  0  0  0  0  0
   -9.2550    8.3630    0.0000 C   0  0  0  0  0  0  0  0  0  0  0  0
   -8.3950    7.1350    0.0000 C   0  0  0  0  0  0  0  0  0  0  0  0
   -5.0740    8.8300    0.0000 C   0  0  0  0  0  0  0  0  0  0  0  0
   -4.5710   10.2430    0.0000 C   0  0  0  0  0  0  0  0  0  0  0  0
   -5.5430   11.3860    0.0000 C   0  0  0  0  0  0  0  0  0  0  0  0
   -7.0180   11.1150    0.0000 O   0  0  0  0  0  0  0  0  0  0  0  0
   -5.0390   12.7990    0.0000 N   0  0  0  0  0  0  0  0  0  0  0  0
    0.2590    8.5900    0.0000 C   0  0  0  0  0  0  0  0  0  0  0  0
    1.7200    8.9300    0.0000 C   0  0  0  0  0  0  0  0  0  0  0  0
    2.1560   10.3650    0.0000 O   0  0  0  0  0  0  0  0  0  0  0  0
    2.7450    7.8350    0.0000 N   0  0  0  0  0  0  0  0  0  0  0  0
    2.9850    4.1140    0.0000 C   0  0  0  0  0  0  0  0  0  0  0  0
    3.2570    5.5890    0.0000 O   0  0  0  0  0  0  0  0  0  0  0  0
    4.1260    3.1410    0.0000 N   0  0  0  0  0  0  0  0  0  0  0  0
    4.0100    1.6450    0.0000 C   0  0  0  0  0  0  0  0  0  0  0  0
    5.3960    1.0720    0.0000 C   0  0  0  0  0  0  0  0  0  0  0  0
    6.3690    2.2140    0.0000 C   0  0  0  0  0  0  0  0  0  0  0  0
    5.5850    3.4920    0.0000 C   0  0  1  0  0  0  0  0  0  0  0  0
    6.1580    4.8780    0.0000 C   0  0  0  0  0  0  0  0  0  0  0  0
    7.6450    5.0750    0.0000 O   0  0  0  0  0  0  0  0  0  0  0  0
    5.2440    6.0680    0.0000 N   0  0  0  0  0  0  0  0  0  0  0  0
    5.8170    7.4540    0.0000 C   0  0  1  0  0  0  0  0  0  0  0  0
    4.9030    8.6430    0.0000 C   0  0  0  0  0  0  0  0  0  0  0  0
    5.4760   10.0290    0.0000 C   0  0  0  0  0  0  0  0  0  0  0  0
    6.9630   10.2260    0.0000 C   0  0  0  0  0  0  0  0  0  0  0  0
    7.5360   11.6120    0.0000 C   0  0  0  0  0  0  0  0  0  0  0  0
    9.0230   11.8090    0.0000 N   0  0  0  0  0  0  0  0  0  0  0  0
    7.3040    7.6510    0.0000 C   0  0  0  0  0  0  0  0  0  0  0  0
    7.8770    9.0370    0.0000 O   0  0  0  0  0  0  0  0  0  0  0  0
    8.2180    6.4610    0.0000 N   0  0  0  0  0  0  0  0  0  0  0  0
    9.7050    6.6580    0.0000 C   0  0  0  0  0  0  0  0  0  0  0  0
   10.6190    5.4690    0.0000 C   0  0  0  0  0  0  0  0  0  0  0  0
   12.1060    5.6650    0.0000 O   0  0  0  0  0  0  0  0  0  0  0  0
   10.0460    4.0820    0.0000 N   0  0  0  0  0  0  0  0  0  0  0  0
  1  2  1  0  0  0  0
  1 26  1  0  0  0  0
  2  3  1  0  0  0  0
  3  4  1  0  0  0  0
  4  5  1  0  0  0  0
  4 51  1  6  0  0  0
  5  6  1  0  0  0  0
  6  7  2  0  0  0  0
  6  8  1  0  0  0  0
  8  9  1  0  0  0  0
  8 47  1  1  0  0  0
  9 10  1  0  0  0  0
 10 11  2  0  0  0  0
 10 12  1  0  0  0  0
 12 13  1  0  0  0  0
 12 42  1  1  0  0  0
 13 14  1  0  0  0  0
 14 15  2  0  0  0  0
 14 16  1  0  0  0  0
 16 17  1  0  0  0  0
 16 35  1  1  0  0  0
 17 18  1  0  0  0  0
 18 19  2  0  0  0  0
 18 20  1  0  0  0  0
 20 21  1  0  0  0  0
 20 27  1  1  0  0  0
 21 22  1  0  0  0  0
 22 23  2  0  0  0  0
 22 24  1  0  0  0  0
 24 25  1  6  0  0  0
 24 26  1  0  0  0  0
 27 28  1  0  0  0  0
 28 29  1  0  0  0  0
 28 34  2  0  0  0  0
 29 30  2  0  0  0  0
 30 31  1  0  0  0  0
 31 32  1  0  0  0  0
 31 33  2  0  0  0  0
 33 34  1  0  0  0  0
 35 36  1  0  0  0  0
 36 37  1  0  0  0  0
 36 41  2  0  0  0  0
 37 38  2  0  0  0  0
 38 39  1  0  0  0  0
 39 40  2  0  0  0  0
 40 41  1  0  0  0  0
 42 43  1  0  0  0  0
 43 44  1  0  0  0  0
 44 45  2  0  0  0  0
 44 46  1  0  0  0  0
 47 48  1  0  0  0  0
 48 49  2  0  0  0  0
 48 50  1  0  0  0  0
 51 52  2  0  0  0  0
 51 53  1  0  0  0  0
 53 54  1  0  0  0  0
 53 57  1  0  0  0  0
 54 55  1  0  0  0  0
 55 56  1  0  0  0  0
 56 57  1  0  0  0  0
 57 58  1  6  0  0  0
 58 59  2  0  0  0  0
 58 60  1  0  0  0  0
 61 60  1  1  0  0  0
 61 62  1  0  0  0  0
 61 67  1  0  0  0  0
 62 63  1  0  0  0  0
 63 64  1  0  0  0  0
 64 65  1  0  0  0  0
 65 66  1  0  0  0  0
 67 68  2  0  0  0  0
 67 69  1  0  0  0  0
 69 70  1  0  0  0  0
 70 71  1  0  0  0  0
 71 72  2  0  0  0  0
 71 73  1  0  0  0  0
M  END
>  <Index>
645

>  <ID>
HT1261

>  <class>
0

>  <apol>
154.02554

>  <ast_fraglike>
0

>  <ast_fraglike_ext>
0

>  <ast_violation>
3

>  <ast_violation_ext>
5

>  <a_acc>
14

>  <a_acid>
0

>  <a_aro>
12

>  <a_base>
0

>  <a_count>
138

>  <a_don>
13

>  <a_donacc>
27

>  <a_heavy>
73

>  <a_hyd>
37

>  <a_IC>
242.31335

>  <a_ICM>
1.7558938

>  <a_nB>
0

>  <a_nBr>
0

>  <a_nC>
46

>  <a_nCl>
0

>  <a_nF>
0

>  <a_nH>
65

>  <a_nI>
0

>  <a_nN>
13

>  <a_nO>
12

>  <a_nP>
0

>  <a_nS>
2

>  <balabanJ>
1.6641089

>  <BCUT_PEOE_0>
-2.6618741

>  <BCUT_PEOE_1>
-0.58193147

>  <BCUT_PEOE_2>
0.54487187

>  <BCUT_PEOE_3>
2.7430055

>  <BCUT_SLOGP_0>
-2.8803146

>  <BCUT_SLOGP_1>
-0.53807992

>  <BCUT_SLOGP_2>
0.5513764

>  <BCUT_SLOGP_3>
2.6948342

>  <BCUT_SMR_0>
-2.4101121

>  <BCUT_SMR_1>
-0.36756843

>  <BCUT_SMR_2>
0.69635314

>  <BCUT_SMR_3>
2.9990137

>  <bpol>
87.176453

>  <b_1rotN>
20

>  <b_1rotR>
0.2631579

>  <b_ar>
12

>  <b_count>
141

>  <b_double>
11

>  <b_heavy>
76

>  <b_max1len>
8

>  <b_rotN>
22

>  <b_rotR>
0.28947368

>  <b_single>
118

>  <b_triple>
0

>  <chi0>
53.613579

>  <chi0v>
41.642956

>  <chi0v_C>
27.421556

>  <chi0_C>
29.672268

>  <chi1>
34.750237

>  <chi1v>
26.017473

>  <chi1v_C>
14.075205

>  <chi1_C>
16.423384

>  <chiral>
8

>  <chiral_u>
0

>  <density>
0.80141097

>  <diameter>
25

>  <FCharge>
0

>  <GCUT_PEOE_0>
-0.84153825

>  <GCUT_PEOE_1>
-0.44088659

>  <GCUT_PEOE_2>
0.075604975

>  <GCUT_PEOE_3>
3.214431

>  <GCUT_SLOGP_0>
-1.3708814

>  <GCUT_SLOGP_1>
-0.40626758

>  <GCUT_SLOGP_2>
0.10963907

>  <GCUT_SLOGP_3>
3.1238508

>  <GCUT_SMR_0>
-0.5284977

>  <GCUT_SMR_1>
-0.23618904

>  <GCUT_SMR_2>
0.19391564

>  <GCUT_SMR_3>
3.4623883

>  <Kier1>
65.518005

>  <Kier2>
34.885815

>  <Kier3>
23.703306

>  <KierA1>
51.147945

>  <KierA2>
27.135876

>  <KierA3>
18.391363

>  <KierFlex>
19.012936

>  <lip_acc>
25

>  <lip_don>
18

>  <lip_druglike>
0

>  <lip_violation>
3

>  <logP(o/w)>
-3.974

>  <logS>
-7.7481198

>  <mr>
27.149633

>  <mutagenic>
0

>  <nmol>
1

>  <opr_brigid>
37

>  <opr_leadlike>
0

>  <opr_nring>
3

>  <opr_nrot>
35

>  <opr_violation>
5

>  <PC+>
0

>  <PC->
0

>  <PEOE_PC+>
8.7733088

>  <PEOE_PC->
-8.7733088

>  <PEOE_RPC+>
0.028196508

>  <PEOE_RPC->
0.042154331

>  <PEOE_VSA+0>
180.08182

>  <PEOE_VSA+1>
114.54045

>  <PEOE_VSA+2>
56.497776

>  <PEOE_VSA+3>
112.04717

>  <PEOE_VSA+4>
152.76901

>  <PEOE_VSA+5>
0

>  <PEOE_VSA+6>
0

>  <PEOE_VSA-0>
94.327095

>  <PEOE_VSA-1>
129.25769

>  <PEOE_VSA-2>
0

>  <PEOE_VSA-3>
0

>  <PEOE_VSA-4>
0

>  <PEOE_VSA-5>
149.23613

>  <PEOE_VSA-6>
41.981373

>  <PEOE_VSA_FHYD>
0.66627181

>  <PEOE_VSA_FNEG>
0.40243211

>  <PEOE_VSA_FPNEG>
0.18551505

>  <PEOE_VSA_FPOL>
0.33372819

>  <PEOE_VSA_FPOS>
0.59756786

>  <PEOE_VSA_FPPOS>
0.14821316

>  <PEOE_VSA_HYD>
686.75201

>  <PEOE_VSA_NEG>
414.80228

>  <PEOE_VSA_PNEG>
191.2175

>  <PEOE_VSA_POL>
343.98651

>  <PEOE_VSA_POS>
615.93622

>  <PEOE_VSA_PPOS>
152.76901

>  <petitjean>
0.44

>  <petitjeanSC>
0.78571427

>  <Q_PC+>
0

>  <Q_PC->
0

>  <Q_RPC+>
0

>  <Q_RPC->
0

>  <Q_VSA_FHYD>
1

>  <Q_VSA_FNEG>
0

>  <Q_VSA_FPNEG>
0

>  <Q_VSA_FPOL>
0

>  <Q_VSA_FPOS>
1

>  <Q_VSA_FPPOS>
0

>  <Q_VSA_HYD>
1030.7385

>  <Q_VSA_NEG>
0

>  <Q_VSA_PNEG>
0

>  <Q_VSA_POL>
0

>  <Q_VSA_POS>
1030.7385

>  <Q_VSA_PPOS>
0

>  <radius>
14

>  <reactive>
1

>  <rings>
4

>  <RPC+>
0

>  <RPC->
0

>  <rsynth>
1

>  <SlogP>
-4.3291602

>  <SlogP_VSA0>
315.94641

>  <SlogP_VSA1>
60.970932

>  <SlogP_VSA2>
294.34012

>  <SlogP_VSA3>
89.785866

>  <SlogP_VSA4>
6.37115

>  <SlogP_VSA5>
37.736813

>  <SlogP_VSA6>
0

>  <SlogP_VSA7>
158.78867

>  <SlogP_VSA8>
150.94725

>  <SlogP_VSA9>
65.606926

>  <SMR>
26.85187

>  <SMR_VSA0>
262.48438

>  <SMR_VSA1>
28.509541

>  <SMR_VSA2>
126.07526

>  <SMR_VSA3>
43.470329

>  <SMR_VSA4>
164.48593

>  <SMR_VSA5>
347.47272

>  <SMR_VSA6>
147.63248

>  <SMR_VSA7>
60.363499

>  <TPSA>
425.54999

>  <VAdjEq>
0.1869307

>  <VAdjMa>
7.2479277

>  <VDistEq>
4.3925614

>  <VDistMa>
12.14672

>  <vdw_area>
1030.7385

>  <vdw_vol>
1317.9717

>  <vsa_acc>
149.23613

>  <vsa_acid>
0

>  <vsa_base>
0

>  <vsa_don>
93.005501

>  <vsa_hyd>
506.77438

>  <vsa_other>
142.44484

>  <vsa_pol>
291.29352

>  <Weight>
1056.2369

>  <weinerPath>
26885

>  <weinerPol>
111

>  <zagreb>
356

$$$$