OC1C2C(C3CCC(C(=O)C)C3(C1)C)CC(C1=CC(=O)CCC12C)C
  MOE2013           2D

 25 28  0  0  1  0  0  0  0  0999 V2000
    0.0000    0.0000    0.0000 O   0  0  0  0  0  0  0  0  0  0  0  0
   -0.7560   -1.2960    0.0000 C   0  0  3  0  0  0  0  0  0  0  0  0
   -0.0120   -2.5980    0.0000 C   0  0  3  0  0  0  0  0  0  0  0  0
   -0.7680   -3.8940    0.0000 C   0  0  3  0  0  0  0  0  0  0  0  0
   -2.2680   -3.8870    0.0000 C   0  0  3  0  0  0  0  0  0  0  0  0
   -3.2770   -4.9970    0.0000 C   0  0  0  0  0  0  0  0  0  0  0  0
   -4.6440   -4.3800    0.0000 C   0  0  0  0  0  0  0  0  0  0  0  0
   -4.4810   -2.8890    0.0000 C   0  0  3  0  0  0  0  0  0  0  0  0
   -5.5910   -1.8800    0.0000 C   0  0  0  0  0  0  0  0  0  0  0  0
   -5.2720   -0.4150    0.0000 O   0  0  0  0  0  0  0  0  0  0  0  0
   -7.0190   -2.3370    0.0000 C   0  0  0  0  0  0  0  0  0  0  0  0
   -3.0120   -2.5840    0.0000 C   0  0  3  0  0  0  0  0  0  0  0  0
   -2.2560   -1.2890    0.0000 C   0  0  0  0  0  0  0  0  0  0  0  0
   -3.8670   -1.3510    0.0000 C   0  0  0  0  0  0  0  0  0  0  0  0
   -0.0240   -5.1960    0.0000 C   0  0  0  0  0  0  0  0  0  0  0  0
    1.4760   -5.2030    0.0000 C   0  0  3  0  0  0  0  0  0  0  0  0
    2.2320   -3.9070    0.0000 C   0  0  0  0  0  0  0  0  0  0  0  0
    3.7320   -3.9140    0.0000 C   0  0  0  0  0  0  0  0  0  0  0  0
    4.4880   -2.6190    0.0000 C   0  0  0  0  0  0  0  0  0  0  0  0
    5.9880   -2.6260    0.0000 O   0  0  0  0  0  0  0  0  0  0  0  0
    3.7440   -1.3160    0.0000 C   0  0  0  0  0  0  0  0  0  0  0  0
    2.2440   -1.3090    0.0000 C   0  0  0  0  0  0  0  0  0  0  0  0
    1.4880   -2.6050    0.0000 C   0  0  3  0  0  0  0  0  0  0  0  0
    0.7440   -1.3020    0.0000 C   0  0  0  0  0  0  0  0  0  0  0  0
    2.2200   -6.5060    0.0000 C   0  0  0  0  0  0  0  0  0  0  0  0
  1  2  1  0  0  0  0
  2  3  1  0  0  0  0
  2 13  1  0  0  0  0
  3  4  1  0  0  0  0
  3 23  1  0  0  0  0
  4  5  1  0  0  0  0
  4 15  1  0  0  0  0
  5  6  1  0  0  0  0
  5 12  1  0  0  0  0
  6  7  1  0  0  0  0
  7  8  1  0  0  0  0
  8  9  1  0  0  0  0
  8 12  1  0  0  0  0
  9 10  2  0  0  0  0
  9 11  1  0  0  0  0
 12 13  1  0  0  0  0
 12 14  1  0  0  0  0
 15 16  1  0  0  0  0
 16 17  1  0  0  0  0
 16 25  1  0  0  0  0
 17 18  2  0  0  0  0
 17 23  1  0  0  0  0
 18 19  1  0  0  0  0
 19 20  2  0  0  0  0
 19 21  1  0  0  0  0
 21 22  1  0  0  0  0
 22 23  1  0  0  0  0
 23 24  1  0  0  0  0
M  END
>  <Index>
659

>  <ID>
HT1287

>  <class>
0

>  <apol>
62.463375

>  <ast_fraglike>
0

>  <ast_fraglike_ext>
0

>  <ast_violation>
2

>  <ast_violation_ext>
2

>  <a_acc>
3

>  <a_acid>
0

>  <a_aro>
0

>  <a_base>
0

>  <a_count>
57

>  <a_don>
1

>  <a_donacc>
4

>  <a_heavy>
25

>  <a_hyd>
20

>  <a_IC>
69.61235

>  <a_ICM>
1.2212692

>  <a_nB>
0

>  <a_nBr>
0

>  <a_nC>
22

>  <a_nCl>
0

>  <a_nF>
0

>  <a_nH>
32

>  <a_nI>
0

>  <a_nN>
0

>  <a_nO>
3

>  <a_nP>
0

>  <a_nS>
0

>  <balabanJ>
1.6961876

>  <BCUT_PEOE_0>
-2.9483476

>  <BCUT_PEOE_1>
-0.4853543

>  <BCUT_PEOE_2>
0.39591658

>  <BCUT_PEOE_3>
2.9715047

>  <BCUT_SLOGP_0>
-2.9070556

>  <BCUT_SLOGP_1>
-0.43344432

>  <BCUT_SLOGP_2>
0.39328995

>  <BCUT_SLOGP_3>
3.0286274

>  <BCUT_SMR_0>
-2.6979196

>  <BCUT_SMR_1>
-0.32216191

>  <BCUT_SMR_2>
0.59119242

>  <BCUT_SMR_3>
3.2218604

>  <bpol>
36.898624

>  <b_1rotN>
1

>  <b_1rotR>
0.035714287

>  <b_ar>
0

>  <b_count>
60

>  <b_double>
3

>  <b_heavy>
28

>  <b_max1len>
4

>  <b_rotN>
1

>  <b_rotR>
0.035714287

>  <b_single>
57

>  <b_triple>
0

>  <chi0>
18.145901

>  <chi0v>
16.047802

>  <chi0v_C>
14.784093

>  <chi0_C>
15.1459

>  <chi1>
11.681211

>  <chi1v>
10.116425

>  <chi1v_C>
9.4499779

>  <chi1_C>
9.9491606

>  <chiral>
8

>  <chiral_u>
8

>  <density>
0.68798304

>  <diameter>
11

>  <FCharge>
0

>  <GCUT_PEOE_0>
-0.801907

>  <GCUT_PEOE_1>
-0.37025335

>  <GCUT_PEOE_2>
-0.00051786011

>  <GCUT_PEOE_3>
3.3788745

>  <GCUT_SLOGP_0>
-0.88363165

>  <GCUT_SLOGP_1>
-0.30586573

>  <GCUT_SLOGP_2>
-0.007462204

>  <GCUT_SLOGP_3>
3.444078

>  <GCUT_SMR_0>
-0.53947181

>  <GCUT_SMR_1>
-0.22213528

>  <GCUT_SMR_2>
0.12939103

>  <GCUT_SMR_3>
3.6042833

>  <Kier1>
18.367348

>  <Kier2>
6

>  <Kier3>
2.5121107

>  <KierA1>
16.487238

>  <KierA2>
5.3604708

>  <KierA3>
2.2364309

>  <KierFlex>
3.5351744

>  <lip_acc>
3

>  <lip_don>
1

>  <lip_druglike>
1

>  <lip_violation>
0

>  <logP(o/w)>
2.6559999

>  <logS>
-4.5592599

>  <mr>
9.7654781

>  <mutagenic>
0

>  <nmol>
1

>  <opr_brigid>
20

>  <opr_leadlike>
1

>  <opr_nring>
4

>  <opr_nrot>
1

>  <opr_violation>
0

>  <PC+>
0

>  <PC->
0

>  <PEOE_PC+>
1.5368476

>  <PEOE_PC->
-1.5368476

>  <PEOE_RPC+>
0.13650602

>  <PEOE_RPC->
0.25471407

>  <PEOE_VSA+0>
132.39751

>  <PEOE_VSA+1>
13.4357

>  <PEOE_VSA+2>
8.458519

>  <PEOE_VSA+3>
8.458519

>  <PEOE_VSA+4>
10.324173

>  <PEOE_VSA+5>
0

>  <PEOE_VSA+6>
0

>  <PEOE_VSA-0>
74.509148

>  <PEOE_VSA-1>
58.451572

>  <PEOE_VSA-2>
0

>  <PEOE_VSA-3>
0

>  <PEOE_VSA-4>
0

>  <PEOE_VSA-5>
27.133842

>  <PEOE_VSA-6>
7.7675405

>  <PEOE_VSA_FHYD>
0.86734903

>  <PEOE_VSA_FNEG>
0.49235588

>  <PEOE_VSA_FPNEG>
0.10236915

>  <PEOE_VSA_FPOL>
0.13265096

>  <PEOE_VSA_FPOS>
0.50764412

>  <PEOE_VSA_FPPOS>
0.030281803

>  <PEOE_VSA_HYD>
295.71097

>  <PEOE_VSA_NEG>
167.86211

>  <PEOE_VSA_PNEG>
34.901382

>  <PEOE_VSA_POL>
45.225555

>  <PEOE_VSA_POS>
173.07442

>  <PEOE_VSA_PPOS>
10.324173

>  <petitjean>
0.45454547

>  <petitjeanSC>
0.83333331

>  <Q_PC+>
0

>  <Q_PC->
0

>  <Q_RPC+>
0

>  <Q_RPC->
0

>  <Q_VSA_FHYD>
1

>  <Q_VSA_FNEG>
0

>  <Q_VSA_FPNEG>
0

>  <Q_VSA_FPOL>
0

>  <Q_VSA_FPOS>
1

>  <Q_VSA_FPPOS>
0

>  <Q_VSA_HYD>
340.93652

>  <Q_VSA_NEG>
0

>  <Q_VSA_PNEG>
0

>  <Q_VSA_POL>
0

>  <Q_VSA_POS>
340.93652

>  <Q_VSA_PPOS>
0

>  <radius>
6

>  <reactive>
1

>  <rings>
4

>  <RPC+>
0

>  <RPC->
0

>  <rsynth>
0

>  <SlogP>
3.9403

>  <SlogP_VSA0>
25.385227

>  <SlogP_VSA1>
11.375222

>  <SlogP_VSA2>
54.193081

>  <SlogP_VSA3>
0

>  <SlogP_VSA4>
22.05398

>  <SlogP_VSA5>
3.185575

>  <SlogP_VSA6>
0

>  <SlogP_VSA7>
17.643185

>  <SlogP_VSA8>
113.21043

>  <SlogP_VSA9>
133.30406

>  <SMR>
9.6817799

>  <SMR_VSA0>
47.724434

>  <SMR_VSA1>
25.385227

>  <SMR_VSA2>
22.05398

>  <SMR_VSA3>
9.6542244

>  <SMR_VSA4>
0

>  <SMR_VSA5>
130.85362

>  <SMR_VSA6>
11.375222

>  <SMR_VSA7>
133.30406

>  <TPSA>
54.369999

>  <VAdjEq>
0.43513325

>  <VAdjMa>
5.8073549

>  <VDistEq>
3.0730064

>  <VDistMa>
9.0296698

>  <vdw_area>
340.93652

>  <vdw_vol>
500.73181

>  <vsa_acc>
27.133842

>  <vsa_acid>
0

>  <vsa_base>
0

>  <vsa_don>
0

>  <vsa_hyd>
250.00302

>  <vsa_other>
16.917038

>  <vsa_pol>
40.700764

>  <Weight>
344.495

>  <weinerPath>
1261

>  <weinerPol>
54

>  <zagreb>
148

$$$$