O=C1CC[C@@]2([C@@H]3[C@H]([C@@H]4CC[C@](OC(=O)C)(C(=O)C)[C@]4(CC3)C)C=C(C2=C1)C)C
  MOE2013           2D

 28 31  0  0  1  0  0  0  0  0999 V2000
    0.0000    0.0000    0.0000 O   0  0  0  0  0  0  0  0  0  0  0  0
   -1.5000   -0.0060    0.0000 C   0  0  0  0  0  0  0  0  0  0  0  0
   -2.2550    1.2900    0.0000 C   0  0  0  0  0  0  0  0  0  0  0  0
   -3.7550    1.2840    0.0000 C   0  0  0  0  0  0  0  0  0  0  0  0
   -4.5000   -0.0190    0.0000 C   0  0  2  0  0  0  0  0  0  0  0  0
   -6.0000   -0.0250    0.0000 C   0  0  2  0  0  0  0  0  0  0  0  0
   -6.7450   -1.3270    0.0000 C   0  0  2  0  0  0  0  0  0  0  0  0
   -8.2450   -1.3330    0.0000 C   0  0  2  0  0  0  0  0  0  0  0  0
   -9.2440   -2.4520    0.0000 C   0  0  0  0  0  0  0  0  0  0  0  0
  -10.6160   -1.8480    0.0000 C   0  0  0  0  0  0  0  0  0  0  0  0
  -10.4660   -0.3550    0.0000 C   0  0  2  0  0  0  0  0  0  0  0  0
  -11.9290   -0.0240    0.0000 O   0  0  0  0  0  0  0  0  0  0  0  0
  -12.9470   -1.1250    0.0000 C   0  0  0  0  0  0  0  0  0  0  0  0
  -12.5030   -2.5580    0.0000 O   0  0  0  0  0  0  0  0  0  0  0  0
  -14.4100   -0.7940    0.0000 C   0  0  0  0  0  0  0  0  0  0  0  0
  -10.8600    1.0920    0.0000 C   0  0  0  0  0  0  0  0  0  0  0  0
   -9.8040    2.1570    0.0000 O   0  0  0  0  0  0  0  0  0  0  0  0
  -12.3110    1.4740    0.0000 C   0  0  0  0  0  0  0  0  0  0  0  0
   -9.0000   -0.0370    0.0000 C   0  0  1  0  0  0  0  0  0  0  0  0
   -8.2550    1.2650    0.0000 C   0  0  0  0  0  0  0  0  0  0  0  0
   -6.7550    1.2710    0.0000 C   0  0  0  0  0  0  0  0  0  0  0  0
   -9.8870    1.1730    0.0000 C   0  0  0  0  0  0  0  0  0  0  0  0
   -5.9890   -2.6230    0.0000 C   0  0  0  0  0  0  0  0  0  0  0  0
   -4.4890   -2.6170    0.0000 C   0  0  0  0  0  0  0  0  0  0  0  0
   -3.7450   -1.3150    0.0000 C   0  0  0  0  0  0  0  0  0  0  0  0
   -2.2450   -1.3080    0.0000 C   0  0  0  0  0  0  0  0  0  0  0  0
   -3.7340   -3.9130    0.0000 C   0  0  0  0  0  0  0  0  0  0  0  0
   -5.2780    1.2640    0.0000 C   0  0  0  0  0  0  0  0  0  0  0  0
  1  2  2  0  0  0  0
  2  3  1  0  0  0  0
  2 26  1  0  0  0  0
  3  4  1  0  0  0  0
  4  5  1  0  0  0  0
  5  6  1  0  0  0  0
  5 25  1  0  0  0  0
  5 28  1  6  0  0  0
  6  7  1  0  0  0  0
  6 21  1  6  0  0  0
  7  8  1  0  0  0  0
  7 23  1  1  0  0  0
  8  9  1  6  0  0  0
  8 19  1  0  0  0  0
  9 10  1  0  0  0  0
 10 11  1  0  0  0  0
 11 12  1  1  0  0  0
 11 16  1  6  0  0  0
 11 19  1  0  0  0  0
 12 13  1  0  0  0  0
 13 14  2  0  0  0  0
 13 15  1  0  0  0  0
 16 17  2  0  0  0  0
 16 18  1  0  0  0  0
 19 20  1  0  0  0  0
 19 22  1  6  0  0  0
 20 21  1  0  0  0  0
 23 24  2  0  0  0  0
 24 25  1  0  0  0  0
 24 27  1  0  0  0  0
 25 26  2  0  0  0  0
M  END
>  <Index>
662

>  <ID>
HT1291

>  <class>
0

>  <apol>
66.785378

>  <ast_fraglike>
0

>  <ast_fraglike_ext>
0

>  <ast_violation>
2

>  <ast_violation_ext>
2

>  <a_acc>
3

>  <a_acid>
0

>  <a_aro>
0

>  <a_base>
0

>  <a_count>
60

>  <a_don>
0

>  <a_donacc>
3

>  <a_heavy>
28

>  <a_hyd>
21

>  <a_IC>
76.374336

>  <a_ICM>
1.2729056

>  <a_nB>
0

>  <a_nBr>
0

>  <a_nC>
24

>  <a_nCl>
0

>  <a_nF>
0

>  <a_nH>
32

>  <a_nI>
0

>  <a_nN>
0

>  <a_nO>
4

>  <a_nP>
0

>  <a_nS>
0

>  <balabanJ>
1.6754087

>  <BCUT_PEOE_0>
-2.9066424

>  <BCUT_PEOE_1>
-0.44134337

>  <BCUT_PEOE_2>
0.30937839

>  <BCUT_PEOE_3>
2.9573021

>  <BCUT_SLOGP_0>
-2.8438625

>  <BCUT_SLOGP_1>
-0.36292639

>  <BCUT_SLOGP_2>
0.29790416

>  <BCUT_SLOGP_3>
3.0107481

>  <BCUT_SMR_0>
-2.6529117

>  <BCUT_SMR_1>
-0.25370929

>  <BCUT_SMR_2>
0.50513703

>  <BCUT_SMR_3>
3.2029057

>  <bpol>
39.772625

>  <b_1rotN>
2

>  <b_1rotR>
0.064516127

>  <b_ar>
0

>  <b_count>
63

>  <b_double>
5

>  <b_heavy>
31

>  <b_max1len>
4

>  <b_rotN>
3

>  <b_rotR>
0.096774191

>  <b_single>
58

>  <b_triple>
0

>  <chi0>
20.482763

>  <chi0v>
17.762384

>  <chi0v_C>
16.129393

>  <chi0_C>
16.775656

>  <chi1>
13.049002

>  <chi1v>
10.694707

>  <chi1v_C>
9.6740856

>  <chi1_C>
10.555149

>  <chiral>
6

>  <chiral_u>
0

>  <density>
0.70294595

>  <diameter>
12

>  <FCharge>
0

>  <GCUT_PEOE_0>
-0.79107475

>  <GCUT_PEOE_1>
-0.38049334

>  <GCUT_PEOE_2>
-0.068113871

>  <GCUT_PEOE_3>
3.3464863

>  <GCUT_SLOGP_0>
-0.90199405

>  <GCUT_SLOGP_1>
-0.2818822

>  <GCUT_SLOGP_2>
-0.027567929

>  <GCUT_SLOGP_3>
3.4167242

>  <GCUT_SMR_0>
-0.53816885

>  <GCUT_SMR_1>
-0.18865098

>  <GCUT_SMR_2>
0.093978003

>  <GCUT_SMR_3>
3.5782015

>  <Kier1>
21.240376

>  <Kier2>
7.0173011

>  <Kier3>
2.9259002

>  <KierA1>
18.098087

>  <KierA2>
5.9418807

>  <KierA3>
2.4664958

>  <KierFlex>
3.8405957

>  <lip_acc>
4

>  <lip_don>
0

>  <lip_druglike>
1

>  <lip_violation>
0

>  <logP(o/w)>
3.2539999

>  <logS>
-5.2266302

>  <mr>
10.768178

>  <mutagenic>
0

>  <nmol>
1

>  <opr_brigid>
20

>  <opr_leadlike>
1

>  <opr_nring>
4

>  <opr_nrot>
2

>  <opr_violation>
1

>  <PC+>
0

>  <PC->
0

>  <PEOE_PC+>
1.7445666

>  <PEOE_PC->
-1.7445666

>  <PEOE_RPC+>
0.14901206

>  <PEOE_RPC->
0.17227723

>  <PEOE_VSA+0>
155.41057

>  <PEOE_VSA+1>
8.5307722

>  <PEOE_VSA+2>
0

>  <PEOE_VSA+3>
16.917038

>  <PEOE_VSA+4>
0

>  <PEOE_VSA+5>
14.708499

>  <PEOE_VSA+6>
0

>  <PEOE_VSA-0>
95.465363

>  <PEOE_VSA-1>
51.958797

>  <PEOE_VSA-2>
0

>  <PEOE_VSA-3>
0

>  <PEOE_VSA-4>
0

>  <PEOE_VSA-5>
40.700764

>  <PEOE_VSA-6>
2.503756

>  <PEOE_VSA_FHYD>
0.85004222

>  <PEOE_VSA_FNEG>
0.4936066

>  <PEOE_VSA_FPNEG>
0.11187213

>  <PEOE_VSA_FPOL>
0.14995775

>  <PEOE_VSA_FPOS>
0.50639337

>  <PEOE_VSA_FPPOS>
0.038085625

>  <PEOE_VSA_HYD>
328.28253

>  <PEOE_VSA_NEG>
190.62868

>  <PEOE_VSA_PNEG>
43.204517

>  <PEOE_VSA_POL>
57.913017

>  <PEOE_VSA_POS>
195.56688

>  <PEOE_VSA_PPOS>
14.708499

>  <petitjean>
0.5

>  <petitjeanSC>
1

>  <Q_PC+>
0

>  <Q_PC->
0

>  <Q_RPC+>
0

>  <Q_RPC->
0

>  <Q_VSA_FHYD>
1

>  <Q_VSA_FNEG>
0

>  <Q_VSA_FPNEG>
0

>  <Q_VSA_FPOL>
0

>  <Q_VSA_FPOS>
1

>  <Q_VSA_FPPOS>
0

>  <Q_VSA_HYD>
386.19556

>  <Q_VSA_NEG>
0

>  <Q_VSA_PNEG>
0

>  <Q_VSA_POL>
0

>  <Q_VSA_POS>
386.19556

>  <Q_VSA_PPOS>
0

>  <radius>
6

>  <reactive>
1

>  <rings>
4

>  <RPC+>
0

>  <RPC->
0

>  <rsynth>
0.10714286

>  <SlogP>
4.5753002

>  <SlogP_VSA0>
0

>  <SlogP_VSA1>
19.120686

>  <SlogP_VSA2>
82.58654

>  <SlogP_VSA3>
0

>  <SlogP_VSA4>
13.232388

>  <SlogP_VSA5>
6.37115

>  <SlogP_VSA6>
0

>  <SlogP_VSA7>
35.286369

>  <SlogP_VSA8>
113.21043

>  <SlogP_VSA9>
166.63008

>  <SMR>
10.6411

>  <SMR_VSA0>
82.58654

>  <SMR_VSA1>
0

>  <SMR_VSA2>
13.232388

>  <SMR_VSA3>
6.37115

>  <SMR_VSA4>
0

>  <SMR_VSA5>
148.4968

>  <SMR_VSA6>
19.120686

>  <SMR_VSA7>
166.63008

>  <TPSA>
60.439999

>  <VAdjEq>
0.39893496

>  <VAdjMa>
5.9541965

>  <VDistEq>
3.2472198

>  <VDistMa>
9.3497791

>  <vdw_area>
386.19556

>  <vdw_vol>
547.00647

>  <vsa_acc>
40.700764

>  <vsa_acid>
0

>  <vsa_base>
0

>  <vsa_don>
0

>  <vsa_hyd>
284.55292

>  <vsa_other>
34.129295

>  <vsa_pol>
40.700764

>  <Weight>
384.51599

>  <weinerPath>
1759

>  <weinerPol>
62

>  <zagreb>
164

$$$$