O1c2c(C=CC1=O)cc1c(occ1)c2OC
  MOE2013           2D

 16 18  0  0  0  0  0  0  0  0999 V2000
    0.0000    0.0000    0.0000 O   0  0  0  0  0  0  0  0  0  0  0  0
    0.7510   -1.2980    0.0000 C   0  0  0  0  0  0  0  0  0  0  0  0
    0.0020   -2.5980    0.0000 C   0  0  0  0  0  0  0  0  0  0  0  0
   -1.4980   -2.5990    0.0000 C   0  0  0  0  0  0  0  0  0  0  0  0
   -2.2490   -1.3010    0.0000 C   0  0  0  0  0  0  0  0  0  0  0  0
   -1.5000   -0.0010    0.0000 C   0  0  0  0  0  0  0  0  0  0  0  0
   -2.2510    1.2970    0.0000 O   0  0  0  0  0  0  0  0  0  0  0  0
    0.7530   -3.8960    0.0000 C   0  0  0  0  0  0  0  0  0  0  0  0
    2.2530   -3.8950    0.0000 C   0  0  0  0  0  0  0  0  0  0  0  0
    3.0020   -2.5960    0.0000 C   0  0  0  0  0  0  0  0  0  0  0  0
    4.4700   -2.9060    0.0000 O   0  0  0  0  0  0  0  0  0  0  0  0
    4.6280   -4.3980    0.0000 C   0  0  0  0  0  0  0  0  0  0  0  0
    3.2580   -5.0090    0.0000 C   0  0  0  0  0  0  0  0  0  0  0  0
    2.2510   -1.2970    0.0000 C   0  0  0  0  0  0  0  0  0  0  0  0
    3.0000    0.0020    0.0000 O   0  0  0  0  0  0  0  0  0  0  0  0
    4.5000    0.0040    0.0000 C   0  0  0  0  0  0  0  0  0  0  0  0
  1  2  1  0  0  0  0
  1  6  1  0  0  0  0
  2  3  1  0  0  0  0
  2 14  2  0  0  0  0
  3  4  1  0  0  0  0
  3  8  2  0  0  0  0
  4  5  2  0  0  0  0
  5  6  1  0  0  0  0
  6  7  2  0  0  0  0
  8  9  1  0  0  0  0
  9 10  2  0  0  0  0
  9 13  1  0  0  0  0
 10 11  1  0  0  0  0
 10 14  1  0  0  0  0
 11 12  1  0  0  0  0
 12 13  2  0  0  0  0
 14 15  1  0  0  0  0
 15 16  1  0  0  0  0
M  END
>  <Index>
690

>  <ID>
HT1350

>  <class>
0

>  <apol>
29.662344

>  <ast_fraglike>
1

>  <ast_fraglike_ext>
1

>  <ast_violation>
0

>  <ast_violation_ext>
0

>  <a_acc>
2

>  <a_acid>
0

>  <a_aro>
9

>  <a_base>
0

>  <a_count>
24

>  <a_don>
0

>  <a_donacc>
2

>  <a_heavy>
16

>  <a_hyd>
9

>  <a_IC>
35.01955

>  <a_ICM>
1.4591479

>  <a_nB>
0

>  <a_nBr>
0

>  <a_nC>
12

>  <a_nCl>
0

>  <a_nF>
0

>  <a_nH>
8

>  <a_nI>
0

>  <a_nN>
0

>  <a_nO>
4

>  <a_nP>
0

>  <a_nS>
0

>  <balabanJ>
1.8125348

>  <BCUT_PEOE_0>
-2.2640257

>  <BCUT_PEOE_1>
-0.58297443

>  <BCUT_PEOE_2>
0.66205931

>  <BCUT_PEOE_3>
2.3069074

>  <BCUT_SLOGP_0>
-2.2546589

>  <BCUT_SLOGP_1>
-0.49255499

>  <BCUT_SLOGP_2>
0.75709707

>  <BCUT_SLOGP_3>
2.4881234

>  <BCUT_SMR_0>
-1.9745486

>  <BCUT_SMR_1>
-0.39910007

>  <BCUT_SMR_2>
0.87233293

>  <BCUT_SMR_3>
2.6161528

>  <bpol>
15.451656

>  <b_1rotN>
1

>  <b_1rotR>
0.055555556

>  <b_ar>
10

>  <b_count>
26

>  <b_double>
2

>  <b_heavy>
18

>  <b_max1len>
2

>  <b_rotN>
1

>  <b_rotR>
0.055555556

>  <b_single>
14

>  <b_triple>
0

>  <chi0>
11.120955

>  <chi0v>
8.5197449

>  <chi0v_C>
6.8867512

>  <chi0_C>
7.9996357

>  <chi1>
7.7920251

>  <chi1v>
4.7746134

>  <chi1v_C>
3.1100423

>  <chi1_C>
4.3745747

>  <chiral>
0

>  <chiral_u>
0

>  <density>
0.80365056

>  <diameter>
7

>  <FCharge>
0

>  <GCUT_PEOE_0>
-0.83368683

>  <GCUT_PEOE_1>
-0.45043853

>  <GCUT_PEOE_2>
0.088986933

>  <GCUT_PEOE_3>
2.3244441

>  <GCUT_SLOGP_0>
-0.91159433

>  <GCUT_SLOGP_1>
-0.32674012

>  <GCUT_SLOGP_2>
0.16242869

>  <GCUT_SLOGP_3>
2.4984424

>  <GCUT_SMR_0>
-0.48317924

>  <GCUT_SMR_1>
-0.20852642

>  <GCUT_SMR_2>
0.23819247

>  <GCUT_SMR_3>
2.624902

>  <Kier1>
11.111111

>  <Kier2>
4.3491125

>  <Kier3>
1.8612126

>  <KierA1>
7.9804444

>  <KierA2>
3.0479052

>  <KierA3>
1.2803974

>  <KierFlex>
1.5202274

>  <lip_acc>
4

>  <lip_don>
0

>  <lip_druglike>
1

>  <lip_violation>
0

>  <logP(o/w)>
2.434

>  <logS>
-4.2667098

>  <mr>
5.676712

>  <mutagenic>
0

>  <nmol>
1

>  <opr_brigid>
15

>  <opr_leadlike>
1

>  <opr_nring>
3

>  <opr_nrot>
1

>  <opr_violation>
0

>  <PC+>
0

>  <PC->
0

>  <PEOE_PC+>
1.4364365

>  <PEOE_PC->
-1.4364365

>  <PEOE_RPC+>
0.2030412

>  <PEOE_RPC->
0.32040203

>  <PEOE_VSA+0>
41.66964

>  <PEOE_VSA+1>
48.362587

>  <PEOE_VSA+2>
21.182425

>  <PEOE_VSA+3>
8.458519

>  <PEOE_VSA+4>
0

>  <PEOE_VSA+5>
14.708499

>  <PEOE_VSA+6>
0

>  <PEOE_VSA-0>
36.764713

>  <PEOE_VSA-1>
0

>  <PEOE_VSA-2>
0

>  <PEOE_VSA-3>
0

>  <PEOE_VSA-4>
0

>  <PEOE_VSA-5>
16.070677

>  <PEOE_VSA-6>
5.0075121

>  <PEOE_VSA_FHYD>
0.81382877

>  <PEOE_VSA_FNEG>
0.30091316

>  <PEOE_VSA_FPNEG>
0.10965398

>  <PEOE_VSA_FPOL>
0.18617125

>  <PEOE_VSA_FPOS>
0.69908684

>  <PEOE_VSA_FPPOS>
0.076517269

>  <PEOE_VSA_HYD>
156.43788

>  <PEOE_VSA_NEG>
57.842899

>  <PEOE_VSA_PNEG>
21.07819

>  <PEOE_VSA_POL>
35.78669

>  <PEOE_VSA_POS>
134.38167

>  <PEOE_VSA_PPOS>
14.708499

>  <petitjean>
0.42857143

>  <petitjeanSC>
0.75

>  <Q_PC+>
0

>  <Q_PC->
0

>  <Q_RPC+>
0

>  <Q_RPC->
0

>  <Q_VSA_FHYD>
1

>  <Q_VSA_FNEG>
0

>  <Q_VSA_FPNEG>
0

>  <Q_VSA_FPOL>
0

>  <Q_VSA_FPOS>
1

>  <Q_VSA_FPPOS>
0

>  <Q_VSA_HYD>
192.22456

>  <Q_VSA_NEG>
0

>  <Q_VSA_PNEG>
0

>  <Q_VSA_POL>
0

>  <Q_VSA_POS>
192.22456

>  <Q_VSA_PPOS>
0

>  <radius>
4

>  <reactive>
0

>  <rings>
3

>  <RPC+>
0

>  <RPC->
0

>  <rsynth>
1

>  <SlogP>
2.3736

>  <SlogP_VSA0>
21.999775

>  <SlogP_VSA1>
7.7454643

>  <SlogP_VSA2>
23.862217

>  <SlogP_VSA3>
0

>  <SlogP_VSA4>
3.185575

>  <SlogP_VSA5>
44.891212

>  <SlogP_VSA6>
0

>  <SlogP_VSA7>
80.245155

>  <SlogP_VSA8>
17.643185

>  <SlogP_VSA9>
10.486856

>  <SMR>
5.7435002

>  <SMR_VSA0>
33.369564

>  <SMR_VSA1>
21.999775

>  <SMR_VSA2>
0

>  <SMR_VSA3>
13.672431

>  <SMR_VSA4>
7.4091749

>  <SMR_VSA5>
72.835983

>  <SMR_VSA6>
25.388649

>  <SMR_VSA7>
35.383869

>  <TPSA>
48.669998

>  <VAdjEq>
0.58587331

>  <VAdjMa>
5.1699252

>  <VDistEq>
2.5818048

>  <VDistMa>
7.7347631

>  <vdw_area>
192.22456

>  <vdw_vol>
269.01245

>  <vsa_acc>
16.070677

>  <vsa_acid>
0

>  <vsa_base>
0

>  <vsa_don>
0

>  <vsa_hyd>
120.22652

>  <vsa_other>
50.233006

>  <vsa_pol>
16.070677

>  <Weight>
216.192

>  <weinerPath>
387

>  <weinerPol>
26

>  <zagreb>
88

$$$$