OC(=O)CCC(=O)CN
  MOE2013           2D

  9  8  0  0  0  0  0  0  0  0999 V2000
    0.0000    0.0000    0.0000 O   0  0  0  0  0  0  0  0  0  0  0  0
    1.3040   -0.7410    0.0000 C   0  0  0  0  0  0  0  0  0  0  0  0
    1.3140   -2.2410    0.0000 O   0  0  0  0  0  0  0  0  0  0  0  0
    2.5980    0.0180    0.0000 C   0  0  0  0  0  0  0  0  0  0  0  0
    3.9020   -0.7230    0.0000 C   0  0  0  0  0  0  0  0  0  0  0  0
    5.1960    0.0350    0.0000 C   0  0  0  0  0  0  0  0  0  0  0  0
    5.1860    1.5350    0.0000 O   0  0  0  0  0  0  0  0  0  0  0  0
    6.5000   -0.7060    0.0000 C   0  0  0  0  0  0  0  0  0  0  0  0
    7.7940    0.0530    0.0000 N   0  0  0  0  0  0  0  0  0  0  0  0
  1  2  1  0  0  0  0
  2  3  2  0  0  0  0
  2  4  1  0  0  0  0
  4  5  1  0  0  0  0
  5  6  1  0  0  0  0
  6  7  2  0  0  0  0
  6  8  1  0  0  0  0
  8  9  1  0  0  0  0
M  END
>  <Index>
65

>  <ID>
HT0136

>  <class>
0

>  <apol>
18.307137

>  <ast_fraglike>
0

>  <ast_fraglike_ext>
0

>  <ast_violation>
1

>  <ast_violation_ext>
2

>  <a_acc>
4

>  <a_acid>
0

>  <a_aro>
0

>  <a_base>
0

>  <a_count>
18

>  <a_don>
3

>  <a_donacc>
7

>  <a_heavy>
9

>  <a_hyd>
3

>  <a_IC>
30.164797

>  <a_ICM>
1.675822

>  <a_nB>
0

>  <a_nBr>
0

>  <a_nC>
5

>  <a_nCl>
0

>  <a_nF>
0

>  <a_nH>
9

>  <a_nI>
0

>  <a_nN>
1

>  <a_nO>
3

>  <a_nP>
0

>  <a_nS>
0

>  <balabanJ>
3.0981257

>  <BCUT_PEOE_0>
-2.4402947

>  <BCUT_PEOE_1>
-0.54227895

>  <BCUT_PEOE_2>
0.42893779

>  <BCUT_PEOE_3>
2.5154769

>  <BCUT_SLOGP_0>
-2.6593468

>  <BCUT_SLOGP_1>
-0.50347686

>  <BCUT_SLOGP_2>
0.3848986

>  <BCUT_SLOGP_3>
2.48752

>  <BCUT_SMR_0>
-2.2115922

>  <BCUT_SMR_1>
-0.31978643

>  <BCUT_SMR_2>
0.60008496

>  <BCUT_SMR_3>
2.7442689

>  <bpol>
11.094863

>  <b_1rotN>
4

>  <b_1rotR>
0.5

>  <b_ar>
0

>  <b_count>
17

>  <b_double>
2

>  <b_heavy>
8

>  <b_max1len>
6

>  <b_rotN>
4

>  <b_rotR>
0.5

>  <b_single>
15

>  <b_triple>
0

>  <chi0>
7.276021

>  <chi0v>
4.9623809

>  <chi0v_C>
3.1213202

>  <chi0_C>
3.2760208

>  <chi1>
4.1639023

>  <chi1v>
2.6007636

>  <chi1v_C>
1.5606601

>  <chi1_C>
1.7247449

>  <chiral>
0

>  <chiral_u>
0

>  <density>
0.81148845

>  <diameter>
6

>  <FCharge>
0

>  <GCUT_PEOE_0>
-0.82092291

>  <GCUT_PEOE_1>
-0.4641223

>  <GCUT_PEOE_2>
0.044296693

>  <GCUT_PEOE_3>
2.0581579

>  <GCUT_SLOGP_0>
-1.3633078

>  <GCUT_SLOGP_1>
-0.39613026

>  <GCUT_SLOGP_2>
0.043216228

>  <GCUT_SLOGP_3>
2.0013273

>  <GCUT_SMR_0>
-0.49802899

>  <GCUT_SMR_1>
-0.23465107

>  <GCUT_SMR_2>
0.2071781

>  <GCUT_SMR_3>
2.2753632

>  <Kier1>
9

>  <Kier2>
4.8395061

>  <Kier3>
5.8775511

>  <KierA1>
7.1872501

>  <KierA2>
3.7420247

>  <KierA3>
4.4037552

>  <KierFlex>
2.9883184

>  <lip_acc>
4

>  <lip_don>
3

>  <lip_druglike>
1

>  <lip_violation>
0

>  <logP(o/w)>
-1.39

>  <logS>
0.62707001

>  <mr>
3.2049372

>  <mutagenic>
0

>  <nmol>
1

>  <opr_brigid>
0

>  <opr_leadlike>
1

>  <opr_nring>
0

>  <opr_nrot>
4

>  <opr_violation>
0

>  <PC+>
0

>  <PC->
0

>  <PEOE_PC+>
1.2162968

>  <PEOE_PC->
-1.2162968

>  <PEOE_RPC+>
0.21375836

>  <PEOE_RPC->
0.27235049

>  <PEOE_VSA+0>
34.464172

>  <PEOE_VSA+1>
21.723097

>  <PEOE_VSA+2>
25.696545

>  <PEOE_VSA+3>
0

>  <PEOE_VSA+4>
10.324173

>  <PEOE_VSA+5>
14.708499

>  <PEOE_VSA+6>
0

>  <PEOE_VSA-0>
0

>  <PEOE_VSA-1>
0

>  <PEOE_VSA-2>
0

>  <PEOE_VSA-3>
0

>  <PEOE_VSA-4>
0

>  <PEOE_VSA-5>
27.133842

>  <PEOE_VSA-6>
14.418659

>  <PEOE_VSA_FHYD>
0.5515213

>  <PEOE_VSA_FNEG>
0.27987328

>  <PEOE_VSA_FPNEG>
0.27987328

>  <PEOE_VSA_FPOL>
0.44847867

>  <PEOE_VSA_FPOS>
0.72012675

>  <PEOE_VSA_FPPOS>
0.16860539

>  <PEOE_VSA_HYD>
81.883812

>  <PEOE_VSA_NEG>
41.552502

>  <PEOE_VSA_PNEG>
41.552502

>  <PEOE_VSA_POL>
66.585175

>  <PEOE_VSA_POS>
106.91648

>  <PEOE_VSA_PPOS>
25.032671

>  <petitjean>
0.5

>  <petitjeanSC>
1

>  <Q_PC+>
0

>  <Q_PC->
0

>  <Q_RPC+>
0

>  <Q_RPC->
0

>  <Q_VSA_FHYD>
1

>  <Q_VSA_FNEG>
0

>  <Q_VSA_FPNEG>
0

>  <Q_VSA_FPOL>
0

>  <Q_VSA_FPOS>
1

>  <Q_VSA_FPPOS>
0

>  <Q_VSA_HYD>
148.46898

>  <Q_VSA_NEG>
0

>  <Q_VSA_PNEG>
0

>  <Q_VSA_POL>
0

>  <Q_VSA_POS>
148.46898

>  <Q_VSA_PPOS>
0

>  <radius>
3

>  <reactive>
1

>  <rings>
0

>  <RPC+>
0

>  <RPC->
0

>  <rsynth>
1

>  <SlogP>
-0.62099999

>  <SlogP_VSA0>
32.897186

>  <SlogP_VSA1>
13.433075

>  <SlogP_VSA2>
47.724434

>  <SlogP_VSA3>
43.824806

>  <SlogP_VSA4>
0

>  <SlogP_VSA5>
0

>  <SlogP_VSA6>
0

>  <SlogP_VSA7>
0

>  <SlogP_VSA8>
37.736813

>  <SlogP_VSA9>
0

>  <SMR>
3.0931201

>  <SMR_VSA0>
47.724434

>  <SMR_VSA1>
0

>  <SMR_VSA2>
25.385227

>  <SMR_VSA3>
0

>  <SMR_VSA4>
32.897186

>  <SMR_VSA5>
37.736813

>  <SMR_VSA6>
31.872654

>  <SMR_VSA7>
0

>  <TPSA>
80.389999

>  <VAdjEq>
0.71696228

>  <VAdjMa>
4

>  <VDistEq>
2.4643669

>  <VDistMa>
5.9662862

>  <vdw_area>
148.46898

>  <vdw_vol>
161.59317

>  <vsa_acc>
13.566921

>  <vsa_acid>
0

>  <vsa_base>
0

>  <vsa_don>
0

>  <vsa_hyd>
51.916496

>  <vsa_other>
23.167019

>  <vsa_pol>
58.443253

>  <Weight>
131.131

>  <weinerPath>
104

>  <weinerPol>
7

>  <zagreb>
34

$$$$