P(OCc1cnc(C)c(O)c1CN(CCN(Cc1c(O)c(ncc1COP(O)(O)=O)C)CC(O)=O)CC(O)=O)(O)(O)=O
  MOE2013           2D

 42 43  0  0  1  0  0  0  0  0999 V2000
    0.0000    0.0000    0.0000 P   0  0  0  0  0  0  0  0  0  0  0  0
    0.7420   -1.3030    0.0000 O   0  0  0  0  0  0  0  0  0  0  0  0
    2.2420   -1.3120    0.0000 C   0  0  0  0  0  0  0  0  0  0  0  0
    2.9850   -2.6150    0.0000 C   0  0  0  0  0  0  0  0  0  0  0  0
    2.2270   -3.9100    0.0000 C   0  0  0  0  0  0  0  0  0  0  0  0
    2.9700   -5.2130    0.0000 N   0  0  0  0  0  0  0  0  0  0  0  0
    4.4700   -5.2220    0.0000 C   0  0  0  0  0  0  0  0  0  0  0  0
    5.2120   -6.5250    0.0000 C   0  0  0  0  0  0  0  0  0  0  0  0
    5.2270   -3.9270    0.0000 C   0  0  0  0  0  0  0  0  0  0  0  0
    6.7270   -3.9360    0.0000 O   0  0  0  0  0  0  0  0  0  0  0  0
    4.4850   -2.6240    0.0000 C   0  0  0  0  0  0  0  0  0  0  0  0
    5.2420   -1.3290    0.0000 C   0  0  0  0  0  0  0  0  0  0  0  0
    6.7420   -1.3380    0.0000 N   0  0  3  0  0  0  0  0  0  0  0  0
    7.4850   -2.6410    0.0000 C   0  0  0  0  0  0  0  0  0  0  0  0
    8.9850   -2.6500    0.0000 C   0  0  0  0  0  0  0  0  0  0  0  0
    9.7270   -3.9540    0.0000 N   0  0  3  0  0  0  0  0  0  0  0  0
   11.2270   -3.9620    0.0000 C   0  0  0  0  0  0  0  0  0  0  0  0
   11.9850   -2.6680    0.0000 C   0  0  0  0  0  0  0  0  0  0  0  0
   11.2420   -1.3640    0.0000 C   0  0  0  0  0  0  0  0  0  0  0  0
    9.7420   -1.3550    0.0000 O   0  0  0  0  0  0  0  0  0  0  0  0
   12.0000   -0.0690    0.0000 C   0  0  0  0  0  0  0  0  0  0  0  0
   13.5000   -0.0780    0.0000 N   0  0  0  0  0  0  0  0  0  0  0  0
   14.2420   -1.3820    0.0000 C   0  0  0  0  0  0  0  0  0  0  0  0
   13.4850   -2.6760    0.0000 C   0  0  0  0  0  0  0  0  0  0  0  0
   14.2270   -3.9800    0.0000 C   0  0  0  0  0  0  0  0  0  0  0  0
   15.7270   -3.9880    0.0000 O   0  0  0  0  0  0  0  0  0  0  0  0
   16.4700   -5.2920    0.0000 P   0  0  0  0  0  0  0  0  0  0  0  0
   15.1660   -6.0340    0.0000 O   0  0  0  0  0  0  0  0  0  0  0  0
   17.2120   -6.5950    0.0000 O   0  0  0  0  0  0  0  0  0  0  0  0
   17.7730   -4.5490    0.0000 O   0  0  0  0  0  0  0  0  0  0  0  0
   11.2570    1.2340    0.0000 C   0  0  0  0  0  0  0  0  0  0  0  0
    8.9700   -5.2480    0.0000 C   0  0  0  0  0  0  0  0  0  0  0  0
    9.7120   -6.5520    0.0000 C   0  0  0  0  0  0  0  0  0  0  0  0
    8.9550   -7.8460    0.0000 O   0  0  0  0  0  0  0  0  0  0  0  0
   11.2120   -6.5600    0.0000 O   0  0  0  0  0  0  0  0  0  0  0  0
    7.5000   -0.0430    0.0000 C   0  0  0  0  0  0  0  0  0  0  0  0
    6.7570    1.2600    0.0000 C   0  0  0  0  0  0  0  0  0  0  0  0
    5.2570    1.2690    0.0000 O   0  0  0  0  0  0  0  0  0  0  0  0
    7.5150    2.5550    0.0000 O   0  0  0  0  0  0  0  0  0  0  0  0
   -0.7420    1.3030    0.0000 O   0  0  0  0  0  0  0  0  0  0  0  0
   -1.3030   -0.7420    0.0000 O   0  0  0  0  0  0  0  0  0  0  0  0
    1.3030    0.7420    0.0000 O   0  0  0  0  0  0  0  0  0  0  0  0
  1  2  1  0  0  0  0
  1 40  1  0  0  0  0
  1 41  1  0  0  0  0
  1 42  2  0  0  0  0
  2  3  1  0  0  0  0
  3  4  1  0  0  0  0
  4  5  1  0  0  0  0
  4 11  2  0  0  0  0
  5  6  2  0  0  0  0
  6  7  1  0  0  0  0
  7  8  1  0  0  0  0
  7  9  2  0  0  0  0
  9 10  1  0  0  0  0
  9 11  1  0  0  0  0
 11 12  1  0  0  0  0
 12 13  1  0  0  0  0
 13 14  1  0  0  0  0
 13 36  1  0  0  0  0
 14 15  1  0  0  0  0
 15 16  1  0  0  0  0
 16 17  1  0  0  0  0
 16 32  1  0  0  0  0
 17 18  1  0  0  0  0
 18 19  1  0  0  0  0
 18 24  2  0  0  0  0
 19 20  1  0  0  0  0
 19 21  2  0  0  0  0
 21 22  1  0  0  0  0
 21 31  1  0  0  0  0
 22 23  2  0  0  0  0
 23 24  1  0  0  0  0
 24 25  1  0  0  0  0
 25 26  1  0  0  0  0
 26 27  1  0  0  0  0
 27 28  1  0  0  0  0
 27 29  1  0  0  0  0
 27 30  2  0  0  0  0
 32 33  1  0  0  0  0
 33 34  1  0  0  0  0
 33 35  2  0  0  0  0
 36 37  1  0  0  0  0
 37 38  1  0  0  0  0
 37 39  2  0  0  0  0
M  END
>  <Index>
649

>  <ID>
HT1266

>  <class>
0

>  <apol>
82.945374

>  <ast_fraglike>
0

>  <ast_fraglike_ext>
0

>  <ast_violation>
3

>  <ast_violation_ext>
5

>  <a_acc>
18

>  <a_acid>
0

>  <a_aro>
12

>  <a_base>
0

>  <a_count>
74

>  <a_don>
12

>  <a_donacc>
30

>  <a_heavy>
42

>  <a_hyd>
20

>  <a_IC>
138.08908

>  <a_ICM>
1.8660687

>  <a_nB>
0

>  <a_nBr>
0

>  <a_nC>
22

>  <a_nCl>
0

>  <a_nF>
0

>  <a_nH>
32

>  <a_nI>
0

>  <a_nN>
4

>  <a_nO>
14

>  <a_nP>
2

>  <a_nS>
0

>  <balabanJ>
2.1725647

>  <BCUT_PEOE_0>
-2.6721878

>  <BCUT_PEOE_1>
-0.57820791

>  <BCUT_PEOE_2>
0.57895231

>  <BCUT_PEOE_3>
2.6086543

>  <BCUT_SLOGP_0>
-2.7650905

>  <BCUT_SLOGP_1>
-0.59057504

>  <BCUT_SLOGP_2>
0.41514665

>  <BCUT_SLOGP_3>
2.6226196

>  <BCUT_SMR_0>
-2.3973582

>  <BCUT_SMR_1>
-0.34866858

>  <BCUT_SMR_2>
0.75290793

>  <BCUT_SMR_3>
2.8744476

>  <bpol>
64.206627

>  <b_1rotN>
17

>  <b_1rotR>
0.39534885

>  <b_ar>
12

>  <b_count>
75

>  <b_double>
2

>  <b_heavy>
43

>  <b_max1len>
7

>  <b_rotN>
17

>  <b_rotR>
0.39534885

>  <b_single>
61

>  <b_triple>
0

>  <chi0>
31.827698

>  <chi0v>
24.31089

>  <chi0v_C>
13.811555

>  <chi0_C>
14.84457

>  <chi1>
19.357882

>  <chi1v>
15.030564

>  <chi1v_C>
5.6986704

>  <chi1_C>
6.9206867

>  <chiral>
0

>  <chiral_u>
0

>  <density>
0.88996542

>  <diameter>
17

>  <FCharge>
0

>  <GCUT_PEOE_0>
-0.8362537

>  <GCUT_PEOE_1>
-0.45864999

>  <GCUT_PEOE_2>
0.10774306

>  <GCUT_PEOE_3>
2.8856399

>  <GCUT_SLOGP_0>
-1.2945093

>  <GCUT_SLOGP_1>
-0.43873951

>  <GCUT_SLOGP_2>
0.0067596338

>  <GCUT_SLOGP_3>
2.9320407

>  <GCUT_SMR_0>
-0.51717985

>  <GCUT_SMR_1>
-0.23200798

>  <GCUT_SMR_2>
0.23887134

>  <GCUT_SMR_3>
3.1320598

>  <Kier1>
38.183884

>  <Kier2>
17.065557

>  <Kier3>
13.900646

>  <KierA1>
35.079594

>  <KierA2>
15.644738

>  <KierA3>
12.724438

>  <KierFlex>
13.066931

>  <lip_acc>
18

>  <lip_don>
8

>  <lip_druglike>
0

>  <lip_violation>
3

>  <logP(o/w)>
-2.7639999

>  <logS>
0.58240002

>  <mr>
14.783947

>  <mutagenic>
0

>  <nmol>
1

>  <opr_brigid>
12

>  <opr_leadlike>
0

>  <opr_nring>
2

>  <opr_nrot>
17

>  <opr_violation>
4

>  <PC+>
0

>  <PC->
0

>  <PEOE_PC+>
4.9281821

>  <PEOE_PC->
-4.9281821

>  <PEOE_RPC+>
0.083462864

>  <PEOE_RPC->
0.072588123

>  <PEOE_VSA+0>
150.39362

>  <PEOE_VSA+1>
129.25723

>  <PEOE_VSA+2>
0

>  <PEOE_VSA+3>
41.296692

>  <PEOE_VSA+4>
41.296692

>  <PEOE_VSA+5>
29.416998

>  <PEOE_VSA+6>
37.426136

>  <PEOE_VSA-0>
41.912434

>  <PEOE_VSA-1>
0

>  <PEOE_VSA-2>
31.458273

>  <PEOE_VSA-3>
0

>  <PEOE_VSA-4>
0

>  <PEOE_VSA-5>
87.549965

>  <PEOE_VSA-6>
31.070162

>  <PEOE_VSA_FHYD>
0.63489306

>  <PEOE_VSA_FNEG>
0.30912507

>  <PEOE_VSA_FPNEG>
0.19099064

>  <PEOE_VSA_FPOL>
0.36510691

>  <PEOE_VSA_FPOS>
0.69087493

>  <PEOE_VSA_FPPOS>
0.17411628

>  <PEOE_VSA_HYD>
394.31824

>  <PEOE_VSA_NEG>
191.99083

>  <PEOE_VSA_PNEG>
118.62012

>  <PEOE_VSA_POL>
226.75995

>  <PEOE_VSA_POS>
429.08737

>  <PEOE_VSA_PPOS>
108.13982

>  <petitjean>
0.47058824

>  <petitjeanSC>
0.8888889

>  <Q_PC+>
0

>  <Q_PC->
0

>  <Q_RPC+>
0

>  <Q_RPC->
0

>  <Q_VSA_FHYD>
1

>  <Q_VSA_FNEG>
0

>  <Q_VSA_FPNEG>
0

>  <Q_VSA_FPOL>
0

>  <Q_VSA_FPOS>
1

>  <Q_VSA_FPPOS>
0

>  <Q_VSA_HYD>
621.07819

>  <Q_VSA_NEG>
0

>  <Q_VSA_PNEG>
0

>  <Q_VSA_POL>
0

>  <Q_VSA_POS>
621.07819

>  <Q_VSA_PPOS>
0

>  <radius>
9

>  <reactive>
1

>  <rings>
2

>  <RPC+>
0

>  <RPC->
0

>  <rsynth>
1

>  <SlogP>
-0.87816

>  <SlogP_VSA0>
180.86586

>  <SlogP_VSA1>
55.310616

>  <SlogP_VSA2>
61.567692

>  <SlogP_VSA3>
124.52876

>  <SlogP_VSA4>
18.255795

>  <SlogP_VSA5>
0

>  <SlogP_VSA6>
0

>  <SlogP_VSA7>
34.428715

>  <SlogP_VSA8>
0

>  <SlogP_VSA9>
189.26024

>  <SMR>
14.02164

>  <SMR_VSA0>
106.43523

>  <SMR_VSA1>
175.81801

>  <SMR_VSA2>
50.770454

>  <SMR_VSA3>
28.742651

>  <SMR_VSA4>
0

>  <SMR_VSA5>
113.16039

>  <SMR_VSA6>
89.249237

>  <SMR_VSA7>
100.04171

>  <TPSA>
280.84

>  <VAdjEq>
0.28107527

>  <VAdjMa>
6.4262648

>  <VDistEq>
3.9103134

>  <VDistMa>
10.533313

>  <vdw_area>
621.07819

>  <vdw_vol>
717.39868

>  <vsa_acc>
20.697096

>  <vsa_acid>
0

>  <vsa_base>
0

>  <vsa_don>
0

>  <vsa_hyd>
304.48019

>  <vsa_other>
66.84314

>  <vsa_pol>
196.47343

>  <Weight>
638.45996

>  <weinerPath>
6401

>  <weinerPol>
61

>  <zagreb>
210

$$$$