FC(F)(F)c1c2nc(cc(c2ccc1)[C@H](O)[C@@H]1NCCCC1)C(F)(F)F
  MOE2013           2D

 26 28  0  0  1  0  0  0  0  0999 V2000
    0.0000    0.0000    0.0000 F   0  0  0  0  0  0  0  0  0  0  0  0
   -0.8840   -1.2120    0.0000 C   0  0  0  0  0  0  0  0  0  0  0  0
   -1.7670   -2.4240    0.0000 F   0  0  0  0  0  0  0  0  0  0  0  0
   -2.0960   -0.3290    0.0000 F   0  0  0  0  0  0  0  0  0  0  0  0
    0.3290   -2.0960    0.0000 C   0  0  0  0  0  0  0  0  0  0  0  0
    1.7000   -1.4880    0.0000 C   0  0  0  0  0  0  0  0  0  0  0  0
    1.8590    0.0040    0.0000 N   0  0  0  0  0  0  0  0  0  0  0  0
    3.2300    0.6120    0.0000 C   0  0  0  0  0  0  0  0  0  0  0  0
    4.4420   -0.2720    0.0000 C   0  0  0  0  0  0  0  0  0  0  0  0
    4.2830   -1.7630    0.0000 C   0  0  0  0  0  0  0  0  0  0  0  0
    2.9120   -2.3710    0.0000 C   0  0  0  0  0  0  0  0  0  0  0  0
    2.7530   -3.8630    0.0000 C   0  0  0  0  0  0  0  0  0  0  0  0
    1.3820   -4.4710    0.0000 C   0  0  0  0  0  0  0  0  0  0  0  0
    0.1690   -3.5870    0.0000 C   0  0  0  0  0  0  0  0  0  0  0  0
    5.4950   -2.6470    0.0000 C   0  0  2  0  0  0  0  0  0  0  0  0
    5.3360   -4.1380    0.0000 O   0  0  0  0  0  0  0  0  0  0  0  0
    6.8670   -2.0390    0.0000 C   0  0  2  0  0  0  0  0  0  0  0  0
    7.0260   -0.5470    0.0000 N   0  0  0  0  0  0  0  0  0  0  0  0
    8.3970    0.0610    0.0000 C   0  0  0  0  0  0  0  0  0  0  0  0
    9.6090   -0.8230    0.0000 C   0  0  0  0  0  0  0  0  0  0  0  0
    9.4500   -2.3150    0.0000 C   0  0  0  0  0  0  0  0  0  0  0  0
    8.0790   -2.9230    0.0000 C   0  0  0  0  0  0  0  0  0  0  0  0
    3.3890    2.1030    0.0000 C   0  0  0  0  0  0  0  0  0  0  0  0
    1.8980    2.2620    0.0000 F   0  0  0  0  0  0  0  0  0  0  0  0
    4.8810    1.9440    0.0000 F   0  0  0  0  0  0  0  0  0  0  0  0
    3.5480    3.5950    0.0000 F   0  0  0  0  0  0  0  0  0  0  0  0
  1  2  1  0  0  0  0
  2  3  1  0  0  0  0
  2  4  1  0  0  0  0
  2  5  1  0  0  0  0
  5  6  1  0  0  0  0
  5 14  2  0  0  0  0
  6  7  2  0  0  0  0
  6 11  1  0  0  0  0
  7  8  1  0  0  0  0
  8  9  2  0  0  0  0
  8 23  1  0  0  0  0
  9 10  1  0  0  0  0
 10 11  2  0  0  0  0
 10 15  1  0  0  0  0
 11 12  1  0  0  0  0
 12 13  2  0  0  0  0
 13 14  1  0  0  0  0
 15 16  1  1  0  0  0
 15 17  1  0  0  0  0
 17 18  1  0  0  0  0
 17 22  1  6  0  0  0
 18 19  1  0  0  0  0
 19 20  1  0  0  0  0
 20 21  1  0  0  0  0
 21 22  1  0  0  0  0
 23 24  1  0  0  0  0
 23 25  1  0  0  0  0
 23 26  1  0  0  0  0
M  END
>  <Index>
661

>  <ID>
HT1289

>  <class>
0

>  <apol>
46.93269

>  <ast_fraglike>
0

>  <ast_fraglike_ext>
0

>  <ast_violation>
2

>  <ast_violation_ext>
3

>  <a_acc>
3

>  <a_acid>
0

>  <a_aro>
10

>  <a_base>
0

>  <a_count>
42

>  <a_don>
2

>  <a_donacc>
5

>  <a_heavy>
26

>  <a_hyd>
23

>  <a_IC>
75.48069

>  <a_ICM>
1.7971592

>  <a_nB>
0

>  <a_nBr>
0

>  <a_nC>
17

>  <a_nCl>
0

>  <a_nF>
6

>  <a_nH>
16

>  <a_nI>
0

>  <a_nN>
2

>  <a_nO>
1

>  <a_nP>
0

>  <a_nS>
0

>  <balabanJ>
1.8653611

>  <BCUT_PEOE_0>
-2.7712286

>  <BCUT_PEOE_1>
-0.54383606

>  <BCUT_PEOE_2>
0.59529847

>  <BCUT_PEOE_3>
2.7141435

>  <BCUT_SLOGP_0>
-2.8236687

>  <BCUT_SLOGP_1>
-0.49318036

>  <BCUT_SLOGP_2>
0.63007385

>  <BCUT_SLOGP_3>
2.7535837

>  <BCUT_SMR_0>
-2.5092595

>  <BCUT_SMR_1>
-0.40463272

>  <BCUT_SMR_2>
0.73556924

>  <BCUT_SMR_3>
2.9706309

>  <bpol>
26.689312

>  <b_1rotN>
2

>  <b_1rotR>
0.071428575

>  <b_ar>
11

>  <b_count>
44

>  <b_double>
0

>  <b_heavy>
28

>  <b_max1len>
4

>  <b_rotN>
4

>  <b_rotR>
0.14285715

>  <b_single>
33

>  <b_triple>
0

>  <chi0>
19.11252

>  <chi0v>
13.454742

>  <chi0v_C>
9.7925291

>  <chi0_C>
10.698306

>  <chi1>
12.087354

>  <chi1v>
8.0831585

>  <chi1v_C>
5.601624

>  <chi1_C>
6.7852583

>  <chiral>
2

>  <chiral_u>
0

>  <density>
0.90720701

>  <diameter>
10

>  <FCharge>
0

>  <GCUT_PEOE_0>
-0.83995342

>  <GCUT_PEOE_1>
-0.37100625

>  <GCUT_PEOE_2>
0.068368457

>  <GCUT_PEOE_3>
2.7526965

>  <GCUT_SLOGP_0>
-1.15329

>  <GCUT_SLOGP_1>
-0.2957752

>  <GCUT_SLOGP_2>
0.26019999

>  <GCUT_SLOGP_3>
2.8402591

>  <GCUT_SMR_0>
-0.52296752

>  <GCUT_SMR_1>
-0.20389581

>  <GCUT_SMR_2>
0.17444171

>  <GCUT_SMR_3>
3.0002794

>  <Kier1>
20.727041

>  <Kier2>
7.7879934

>  <Kier3>
4.54321

>  <KierA1>
16.841908

>  <KierA2>
6.2724204

>  <KierA3>
3.6359725

>  <KierFlex>
4.0630589

>  <lip_acc>
3

>  <lip_don>
2

>  <lip_druglike>
1

>  <lip_violation>
1

>  <logP(o/w)>
4.2745199

>  <logS>
-4.5315499

>  <mr>
8.3410892

>  <mutagenic>
0

>  <nmol>
1

>  <opr_brigid>
17

>  <opr_leadlike>
1

>  <opr_nring>
3

>  <opr_nrot>
4

>  <opr_violation>
1

>  <PC+>
0

>  <PC->
0

>  <PEOE_PC+>
2.2509844

>  <PEOE_PC->
-2.2509844

>  <PEOE_RPC+>
0.19291113

>  <PEOE_RPC->
0.17130725

>  <PEOE_VSA+0>
43.742973

>  <PEOE_VSA+1>
35.13995

>  <PEOE_VSA+2>
15.318564

>  <PEOE_VSA+3>
0

>  <PEOE_VSA+4>
10.324173

>  <PEOE_VSA+5>
0

>  <PEOE_VSA+6>
18.091003

>  <PEOE_VSA-0>
57.313297

>  <PEOE_VSA-1>
33.211121

>  <PEOE_VSA-2>
0

>  <PEOE_VSA-3>
71.451813

>  <PEOE_VSA-4>
5.6825762

>  <PEOE_VSA-5>
0

>  <PEOE_VSA-6>
7.9044313

>  <PEOE_VSA_FHYD>
0.85913813

>  <PEOE_VSA_FNEG>
0.58878297

>  <PEOE_VSA_FPNEG>
0.045566477

>  <PEOE_VSA_FPOL>
0.14086188

>  <PEOE_VSA_FPOS>
0.41121706

>  <PEOE_VSA_FPPOS>
0.095295414

>  <PEOE_VSA_HYD>
256.17773

>  <PEOE_VSA_NEG>
175.56325

>  <PEOE_VSA_PNEG>
13.587008

>  <PEOE_VSA_POL>
42.002186

>  <PEOE_VSA_POS>
122.61666

>  <PEOE_VSA_PPOS>
28.415176

>  <petitjean>
0.5

>  <petitjeanSC>
1

>  <Q_PC+>
0

>  <Q_PC->
0

>  <Q_RPC+>
0

>  <Q_RPC->
0

>  <Q_VSA_FHYD>
1

>  <Q_VSA_FNEG>
0

>  <Q_VSA_FPNEG>
0

>  <Q_VSA_FPOL>
0

>  <Q_VSA_FPOS>
1

>  <Q_VSA_FPPOS>
0

>  <Q_VSA_HYD>
298.1799

>  <Q_VSA_NEG>
0

>  <Q_VSA_PNEG>
0

>  <Q_VSA_POL>
0

>  <Q_VSA_POS>
298.1799

>  <Q_VSA_PPOS>
0

>  <radius>
5

>  <reactive>
0

>  <rings>
3

>  <RPC+>
0

>  <RPC->
0

>  <rsynth>
1

>  <SlogP>
5.1664

>  <SlogP_VSA0>
43.395977

>  <SlogP_VSA1>
16.78553

>  <SlogP_VSA2>
3.9819686

>  <SlogP_VSA3>
18.439579

>  <SlogP_VSA4>
9.1278973

>  <SlogP_VSA5>
0

>  <SlogP_VSA6>
15.519032

>  <SlogP_VSA7>
75.289841

>  <SlogP_VSA8>
63.073864

>  <SlogP_VSA9>
89.760681

>  <SMR>
8.2693501

>  <SMR_VSA0>
0

>  <SMR_VSA1>
131.93144

>  <SMR_VSA2>
33.529781

>  <SMR_VSA3>
19.578516

>  <SMR_VSA4>
4.7171016

>  <SMR_VSA5>
127.17796

>  <SMR_VSA6>
18.439579

>  <SMR_VSA7>
0

>  <TPSA>
45.150002

>  <VAdjEq>
0.41210872

>  <VAdjMa>
5.8073549

>  <VDistEq>
3.1172276

>  <VDistMa>
9.1598768

>  <vdw_area>
298.1799

>  <vdw_vol>
417.01175

>  <vsa_acc>
5.6825762

>  <vsa_acid>
0

>  <vsa_base>
0

>  <vsa_don>
0

>  <vsa_hyd>
255.68459

>  <vsa_other>
0

>  <vsa_pol>
24.932074

>  <Weight>
378.31598

>  <weinerPath>
1491

>  <weinerPol>
45

>  <zagreb>
142

$$$$