Oc1cc2C34C(C(N(CC3)CC=C)Cc2cc1)CCCC4
  MOE2013           2D

 21 24  0  0  1  0  0  0  0  0999 V2000
    0.0000    0.0000    0.0000 O   0  0  0  0  0  0  0  0  0  0  0  0
    1.5000   -0.0090    0.0000 C   0  0  0  0  0  0  0  0  0  0  0  0
    2.2420   -1.3130    0.0000 C   0  0  0  0  0  0  0  0  0  0  0  0
    3.7640   -1.2990    0.0000 C   0  0  0  0  0  0  0  0  0  0  0  0
    4.5140   -2.5590    0.0000 C   0  0  3  0  0  0  0  0  0  0  0  0
    5.9900   -2.5480    0.0000 C   0  0  3  0  0  0  0  0  0  0  0  0
    6.6740   -1.3010    0.0000 C   0  0  3  0  0  0  0  0  0  0  0  0
    8.0960   -1.2920    0.0000 N   0  0  3  0  0  0  0  0  0  0  0  0
    6.8380   -0.3070    0.0000 C   0  0  0  0  0  0  0  0  0  0  0  0
    5.2190   -1.3010    0.0000 C   0  0  0  0  0  0  0  0  0  0  0  0
    9.5150   -1.7770    0.0000 C   0  0  0  0  0  0  0  0  0  0  0  0
   10.6450   -0.7900    0.0000 C   0  0  0  0  0  0  0  0  0  0  0  0
   12.0640   -1.2750    0.0000 C   0  0  0  0  0  0  0  0  0  0  0  0
    5.9530    0.0040    0.0000 C   0  0  0  0  0  0  0  0  0  0  0  0
    4.4910   -0.0280    0.0000 C   0  0  0  0  0  0  0  0  0  0  0  0
    3.7580    1.2760    0.0000 C   0  0  0  0  0  0  0  0  0  0  0  0
    2.2580    1.2850    0.0000 C   0  0  0  0  0  0  0  0  0  0  0  0
    6.7390   -3.8080    0.0000 C   0  0  0  0  0  0  0  0  0  0  0  0
    6.0240   -5.0980    0.0000 C   0  0  0  0  0  0  0  0  0  0  0  0
    4.5500   -5.1100    0.0000 C   0  0  0  0  0  0  0  0  0  0  0  0
    3.8000   -3.8490    0.0000 C   0  0  0  0  0  0  0  0  0  0  0  0
  1  2  1  0  0  0  0
  2  3  1  0  0  0  0
  2 17  2  0  0  0  0
  3  4  2  0  0  0  0
  4  5  1  0  0  0  0
  4 15  1  0  0  0  0
  5  6  1  0  0  0  0
  5 10  1  0  0  0  0
  5 21  1  0  0  0  0
  6  7  1  0  0  0  0
  6 18  1  0  0  0  0
  7  8  1  0  0  0  0
  7 14  1  0  0  0  0
  8  9  1  0  0  0  0
  8 11  1  0  0  0  0
  9 10  1  0  0  0  0
 11 12  1  0  0  0  0
 12 13  2  0  0  0  0
 14 15  1  0  0  0  0
 15 16  2  0  0  0  0
 16 17  1  0  0  0  0
 18 19  1  0  0  0  0
 19 20  1  0  0  0  0
 20 21  1  0  0  0  0
M  END
>  <Index>
603

>  <ID>
HT1190

>  <class>
0

>  <apol>
52.011826

>  <ast_fraglike>
0

>  <ast_fraglike_ext>
0

>  <ast_violation>
1

>  <ast_violation_ext>
1

>  <a_acc>
2

>  <a_acid>
0

>  <a_aro>
6

>  <a_base>
0

>  <a_count>
46

>  <a_don>
1

>  <a_donacc>
3

>  <a_heavy>
21

>  <a_hyd>
19

>  <a_IC>
57.276821

>  <a_ICM>
1.2451483

>  <a_nB>
0

>  <a_nBr>
0

>  <a_nC>
19

>  <a_nCl>
0

>  <a_nF>
0

>  <a_nH>
25

>  <a_nI>
0

>  <a_nN>
1

>  <a_nO>
1

>  <a_nP>
0

>  <a_nS>
0

>  <balabanJ>
1.6631665

>  <BCUT_PEOE_0>
-2.938946

>  <BCUT_PEOE_1>
-0.64290476

>  <BCUT_PEOE_2>
0.69099081

>  <BCUT_PEOE_3>
2.8853726

>  <BCUT_SLOGP_0>
-2.934077

>  <BCUT_SLOGP_1>
-0.57212585

>  <BCUT_SLOGP_2>
0.75706482

>  <BCUT_SLOGP_3>
2.937638

>  <BCUT_SMR_0>
-2.6726637

>  <BCUT_SMR_1>
-0.50724256

>  <BCUT_SMR_2>
0.83462918

>  <BCUT_SMR_3>
3.151228

>  <bpol>
29.310175

>  <b_1rotN>
2

>  <b_1rotR>
0.083333336

>  <b_ar>
6

>  <b_count>
49

>  <b_double>
1

>  <b_heavy>
24

>  <b_max1len>
3

>  <b_rotN>
2

>  <b_rotR>
0.083333336

>  <b_single>
42

>  <b_triple>
0

>  <chi0>
14.449383

>  <chi0v>
12.72249

>  <chi0v_C>
11.828063

>  <chi0_C>
12.872033

>  <chi1>
10.243149

>  <chi1v>
8.4179573

>  <chi1v_C>
7.3036957

>  <chi1_C>
8.5159683

>  <chiral>
3

>  <chiral_u>
3

>  <density>
0.66641283

>  <diameter>
10

>  <FCharge>
0

>  <GCUT_PEOE_0>
-0.85125548

>  <GCUT_PEOE_1>
-0.40135929

>  <GCUT_PEOE_2>
0.067757398

>  <GCUT_PEOE_3>
3.1152041

>  <GCUT_SLOGP_0>
-0.95584804

>  <GCUT_SLOGP_1>
-0.30121088

>  <GCUT_SLOGP_2>
0.13478699

>  <GCUT_SLOGP_3>
3.1853063

>  <GCUT_SMR_0>
-0.53011042

>  <GCUT_SMR_1>
-0.22110429

>  <GCUT_SMR_2>
0.18065372

>  <GCUT_SMR_3>
3.3641889

>  <Kier1>
14.583333

>  <Kier2>
5.5709877

>  <Kier3>
2.2222223

>  <KierA1>
12.457036

>  <KierA2>
4.7189569

>  <KierA3>
1.8702623

>  <KierFlex>
2.7992482

>  <lip_acc>
2

>  <lip_don>
1

>  <lip_druglike>
1

>  <lip_violation>
0

>  <logP(o/w)>
3.954

>  <logS>
-3.7082801

>  <mr>
8.524229

>  <mutagenic>
0

>  <nmol>
1

>  <opr_brigid>
21

>  <opr_leadlike>
1

>  <opr_nring>
4

>  <opr_nrot>
2

>  <opr_violation>
0

>  <PC+>
0

>  <PC->
0

>  <PEOE_PC+>
1.2791667

>  <PEOE_PC->
-1.2791667

>  <PEOE_RPC+>
0.16988671

>  <PEOE_RPC->
0.28129518

>  <PEOE_VSA+0>
106.30756

>  <PEOE_VSA+1>
34.050835

>  <PEOE_VSA+2>
0

>  <PEOE_VSA+3>
0

>  <PEOE_VSA+4>
10.324173

>  <PEOE_VSA+5>
0

>  <PEOE_VSA+6>
0

>  <PEOE_VSA-0>
63.73214

>  <PEOE_VSA-1>
41.912434

>  <PEOE_VSA-2>
22.301268

>  <PEOE_VSA-3>
0

>  <PEOE_VSA-4>
0

>  <PEOE_VSA-5>
0

>  <PEOE_VSA-6>
7.7675405

>  <PEOE_VSA_FHYD>
0.93682975

>  <PEOE_VSA_FNEG>
0.47386628

>  <PEOE_VSA_FPNEG>
0.027121684

>  <PEOE_VSA_FPOL>
0.063170284

>  <PEOE_VSA_FPOS>
0.52613372

>  <PEOE_VSA_FPPOS>
0.036048599

>  <PEOE_VSA_HYD>
268.30423

>  <PEOE_VSA_NEG>
135.71338

>  <PEOE_VSA_PNEG>
7.7675405

>  <PEOE_VSA_POL>
18.091713

>  <PEOE_VSA_POS>
150.68257

>  <PEOE_VSA_PPOS>
10.324173

>  <petitjean>
0.5

>  <petitjeanSC>
1

>  <Q_PC+>
0

>  <Q_PC->
0

>  <Q_RPC+>
0

>  <Q_RPC->
0

>  <Q_VSA_FHYD>
1

>  <Q_VSA_FNEG>
0

>  <Q_VSA_FPNEG>
0

>  <Q_VSA_FPOL>
0

>  <Q_VSA_FPOS>
1

>  <Q_VSA_FPPOS>
0

>  <Q_VSA_HYD>
286.39594

>  <Q_VSA_NEG>
0

>  <Q_VSA_PNEG>
0

>  <Q_VSA_POL>
0

>  <Q_VSA_POS>
286.39594

>  <Q_VSA_PPOS>
0

>  <radius>
5

>  <reactive>
0

>  <rings>
4

>  <RPC+>
0

>  <RPC->
0

>  <rsynth>
0

>  <SlogP>
3.63657

>  <SlogP_VSA0>
25.385227

>  <SlogP_VSA1>
3.1243138

>  <SlogP_VSA2>
3.9819686

>  <SlogP_VSA3>
36.879158

>  <SlogP_VSA4>
10.781946

>  <SlogP_VSA5>
18.868406

>  <SlogP_VSA6>
0

>  <SlogP_VSA7>
70.572739

>  <SlogP_VSA8>
94.342026

>  <SlogP_VSA9>
37.344223

>  <SMR>
8.5621796

>  <SMR_VSA0>
0

>  <SMR_VSA1>
28.509541

>  <SMR_VSA2>
4.4107962

>  <SMR_VSA3>
15.596547

>  <SMR_VSA4>
0

>  <SMR_VSA5>
183.78317

>  <SMR_VSA6>
36.879158

>  <SMR_VSA7>
32.100792

>  <TPSA>
23.469999

>  <VAdjEq>
0.49641782

>  <VAdjMa>
5.5849624

>  <VDistEq>
2.8869264

>  <VDistMa>
8.5268946

>  <vdw_area>
286.39594

>  <vdw_vol>
425.28442

>  <vsa_acc>
0

>  <vsa_acid>
0

>  <vsa_base>
0

>  <vsa_don>
0

>  <vsa_hyd>
249.8761

>  <vsa_other>
0

>  <vsa_pol>
13.566921

>  <Weight>
283.41501

>  <weinerPath>
794

>  <weinerPol>
42

>  <zagreb>
120

$$$$