Clc1c2c(C(O)=C3[C@H]([C@H](O)[C@@H]4[C@@](O)(C(O)=C(C(=O)N)C(=O)[C@H]4N(C)C)C3=O)C2=C)c(O)cc1
  MOE2013           2D

 33 36  0  0  1  0  0  0  0  0999 V2000
    0.0000    0.0000    0.0000 Cl  0  0  0  0  0  0  0  0  0  0  0  0
    0.7430    1.3030    0.0000 C   0  0  0  0  0  0  0  0  0  0  0  0
    2.2430    1.3120    0.0000 C   0  0  0  0  0  0  0  0  0  0  0  0
    2.9850    2.6150    0.0000 C   0  0  0  0  0  0  0  0  0  0  0  0
    4.4850    2.6240    0.0000 C   0  0  0  0  0  0  0  0  0  0  0  0
    5.2280    3.9270    0.0000 O   0  0  0  0  0  0  0  0  0  0  0  0
    5.2420    1.3290    0.0000 C   0  0  0  0  0  0  0  0  0  0  0  0
    4.5000    0.0260    0.0000 C   0  0  2  0  0  0  0  0  0  0  0  0
    5.2570   -1.2690    0.0000 C   0  0  2  0  0  0  0  0  0  0  0  0
    4.5150   -2.5720    0.0000 O   0  0  0  0  0  0  0  0  0  0  0  0
    6.7570   -1.2600    0.0000 C   0  0  2  0  0  0  0  0  0  0  0  0
    7.5000    0.0430    0.0000 C   0  0  1  0  0  0  0  0  0  0  0  0
    8.2420    1.3460    0.0000 O   0  0  0  0  0  0  0  0  0  0  0  0
    9.0000    0.0510    0.0000 C   0  0  0  0  0  0  0  0  0  0  0  0
    9.7420    1.3550    0.0000 O   0  0  0  0  0  0  0  0  0  0  0  0
    9.7570   -1.2430    0.0000 C   0  0  0  0  0  0  0  0  0  0  0  0
   11.2570   -1.2350    0.0000 C   0  0  0  0  0  0  0  0  0  0  0  0
   12.0150   -2.5290    0.0000 O   0  0  0  0  0  0  0  0  0  0  0  0
   12.0000    0.0690    0.0000 N   0  0  0  0  0  0  0  0  0  0  0  0
    9.0150   -2.5470    0.0000 C   0  0  0  0  0  0  0  0  0  0  0  0
    9.7720   -3.8410    0.0000 O   0  0  0  0  0  0  0  0  0  0  0  0
    7.5150   -2.5550    0.0000 C   0  0  1  0  0  0  0  0  0  0  0  0
    6.7720   -3.8580    0.0000 N   0  0  0  0  0  0  0  0  0  0  0  0
    7.5300   -5.1530    0.0000 C   0  0  0  0  0  0  0  0  0  0  0  0
    5.2720   -3.8670    0.0000 C   0  0  0  0  0  0  0  0  0  0  0  0
    6.7420    1.3380    0.0000 C   0  0  0  0  0  0  0  0  0  0  0  0
    7.4850    2.6410    0.0000 O   0  0  0  0  0  0  0  0  0  0  0  0
    3.0000    0.0170    0.0000 C   0  0  0  0  0  0  0  0  0  0  0  0
    2.2570   -1.2860    0.0000 C   0  0  0  0  0  0  0  0  0  0  0  0
    2.2280    3.9100    0.0000 C   0  0  0  0  0  0  0  0  0  0  0  0
    2.9700    5.2130    0.0000 O   0  0  0  0  0  0  0  0  0  0  0  0
    0.7280    3.9010    0.0000 C   0  0  0  0  0  0  0  0  0  0  0  0
   -0.0150    2.5980    0.0000 C   0  0  0  0  0  0  0  0  0  0  0  0
  1  2  1  0  0  0  0
  2  3  1  0  0  0  0
  2 33  2  0  0  0  0
  3  4  2  0  0  0  0
  3 28  1  0  0  0  0
  4  5  1  0  0  0  0
  4 30  1  0  0  0  0
  5  6  1  0  0  0  0
  5  7  2  0  0  0  0
  7 26  1  0  0  0  0
  8  7  1  6  0  0  0
  8  9  1  0  0  0  0
  8 28  1  0  0  0  0
  9 10  1  1  0  0  0
  9 11  1  0  0  0  0
 11 12  1  0  0  0  0
 11 22  1  6  0  0  0
 12 13  1  1  0  0  0
 12 14  1  0  0  0  0
 12 26  1  0  0  0  0
 14 15  1  0  0  0  0
 14 16  2  0  0  0  0
 16 17  1  0  0  0  0
 16 20  1  0  0  0  0
 17 18  2  0  0  0  0
 17 19  1  0  0  0  0
 20 21  2  0  0  0  0
 20 22  1  0  0  0  0
 22 23  1  1  0  0  0
 23 24  1  0  0  0  0
 23 25  1  0  0  0  0
 26 27  2  0  0  0  0
 28 29  2  0  0  0  0
 30 31  1  0  0  0  0
 30 32  2  0  0  0  0
 32 33  1  0  0  0  0
M  END
>  <Index>
658

>  <ID>
HT1283

>  <class>
0

>  <apol>
63.518654

>  <ast_fraglike>
0

>  <ast_fraglike_ext>
0

>  <ast_violation>
3

>  <ast_violation_ext>
4

>  <a_acc>
9

>  <a_acid>
0

>  <a_aro>
6

>  <a_base>
0

>  <a_count>
54

>  <a_don>
8

>  <a_donacc>
17

>  <a_heavy>
33

>  <a_hyd>
20

>  <a_IC>
94.417763

>  <a_ICM>
1.7484771

>  <a_nB>
0

>  <a_nBr>
0

>  <a_nC>
22

>  <a_nCl>
1

>  <a_nF>
0

>  <a_nH>
21

>  <a_nI>
0

>  <a_nN>
2

>  <a_nO>
8

>  <a_nP>
0

>  <a_nS>
0

>  <balabanJ>
1.8485919

>  <BCUT_PEOE_0>
-2.7522924

>  <BCUT_PEOE_1>
-0.59353846

>  <BCUT_PEOE_2>
0.60581237

>  <BCUT_PEOE_3>
2.8406849

>  <BCUT_SLOGP_0>
-2.8999288

>  <BCUT_SLOGP_1>
-0.5844087

>  <BCUT_SLOGP_2>
0.65544271

>  <BCUT_SLOGP_3>
2.7217062

>  <BCUT_SMR_0>
-2.5242732

>  <BCUT_SMR_1>
-0.3834686

>  <BCUT_SMR_2>
0.81401139

>  <BCUT_SMR_3>
3.0616016

>  <bpol>
27.571346

>  <b_1rotN>
2

>  <b_1rotR>
0.055555556

>  <b_ar>
6

>  <b_count>
57

>  <b_double>
6

>  <b_heavy>
36

>  <b_max1len>
4

>  <b_rotN>
2

>  <b_rotR>
0.055555556

>  <b_single>
45

>  <b_triple>
0

>  <chi0>
24.729168

>  <chi0v>
18.290478

>  <chi0v_C>
12.671208

>  <chi0_C>
14.151818

>  <chi1>
15.277391

>  <chi1v>
10.192184

>  <chi1v_C>
6.4189377

>  <chi1_C>
8.0932055

>  <chiral>
5

>  <chiral_u>
0

>  <density>
0.85919064

>  <diameter>
11

>  <FCharge>
0

>  <GCUT_PEOE_0>
-0.8490485

>  <GCUT_PEOE_1>
-0.46834728

>  <GCUT_PEOE_2>
0.086618267

>  <GCUT_PEOE_3>
3.0762661

>  <GCUT_SLOGP_0>
-1.3705219

>  <GCUT_SLOGP_1>
-0.40530789

>  <GCUT_SLOGP_2>
0.075178497

>  <GCUT_SLOGP_3>
3.0456877

>  <GCUT_SMR_0>
-0.52062404

>  <GCUT_SMR_1>
-0.23519935

>  <GCUT_SMR_2>
0.26238722

>  <GCUT_SMR_3>
3.325408

>  <Kier1>
26.074074

>  <Kier2>
8.8342428

>  <Kier3>
3.4778409

>  <KierA1>
21.159096

>  <KierA2>
7.1195822

>  <KierA3>
2.7887425

>  <KierFlex>
4.5649672

>  <lip_acc>
10

>  <lip_don>
7

>  <lip_druglike>
1

>  <lip_violation>
1

>  <logP(o/w)>
-0.121

>  <logS>
-3.6159899

>  <mr>
11.401156

>  <mutagenic>
0

>  <nmol>
1

>  <opr_brigid>
22

>  <opr_leadlike>
0

>  <opr_nring>
4

>  <opr_nrot>
2

>  <opr_violation>
3

>  <PC+>
0

>  <PC->
0

>  <PEOE_PC+>
3.6596906

>  <PEOE_PC->
-3.6596906

>  <PEOE_RPC+>
0.069739744

>  <PEOE_RPC->
0.10667532

>  <PEOE_VSA+0>
45.268452

>  <PEOE_VSA+1>
50.560246

>  <PEOE_VSA+2>
10.667059

>  <PEOE_VSA+3>
25.696545

>  <PEOE_VSA+4>
60.079384

>  <PEOE_VSA+5>
12.949531

>  <PEOE_VSA+6>
0

>  <PEOE_VSA-0>
73.195724

>  <PEOE_VSA-1>
51.883217

>  <PEOE_VSA-2>
0

>  <PEOE_VSA-3>
0

>  <PEOE_VSA-4>
0

>  <PEOE_VSA-5>
40.700764

>  <PEOE_VSA-6>
45.488819

>  <PEOE_VSA_FHYD>
0.61771327

>  <PEOE_VSA_FNEG>
0.50725985

>  <PEOE_VSA_FPNEG>
0.20694287

>  <PEOE_VSA_FPOL>
0.38228673

>  <PEOE_VSA_FPOS>
0.49274015

>  <PEOE_VSA_FPPOS>
0.17534384

>  <PEOE_VSA_HYD>
257.27124

>  <PEOE_VSA_NEG>
211.26852

>  <PEOE_VSA_PNEG>
86.189583

>  <PEOE_VSA_POL>
159.21849

>  <PEOE_VSA_POS>
205.22122

>  <PEOE_VSA_PPOS>
73.028915

>  <petitjean>
0.45454547

>  <petitjeanSC>
0.83333331

>  <Q_PC+>
0

>  <Q_PC->
0

>  <Q_RPC+>
0

>  <Q_RPC->
0

>  <Q_VSA_FHYD>
1

>  <Q_VSA_FNEG>
0

>  <Q_VSA_FPNEG>
0

>  <Q_VSA_FPOL>
0

>  <Q_VSA_FPOS>
1

>  <Q_VSA_FPPOS>
0

>  <Q_VSA_HYD>
416.48975

>  <Q_VSA_NEG>
0

>  <Q_VSA_PNEG>
0

>  <Q_VSA_POL>
0

>  <Q_VSA_POS>
416.48975

>  <Q_VSA_PPOS>
0

>  <radius>
6

>  <reactive>
0

>  <rings>
4

>  <RPC+>
0

>  <RPC->
0

>  <rsynth>
0.33333334

>  <SlogP>
0.058899999

>  <SlogP_VSA0>
109.05286

>  <SlogP_VSA1>
19.75832

>  <SlogP_VSA2>
82.03727

>  <SlogP_VSA3>
50.770454

>  <SlogP_VSA4>
15.192742

>  <SlogP_VSA5>
77.408951

>  <SlogP_VSA6>
3.5006065

>  <SlogP_VSA7>
43.71537

>  <SlogP_VSA8>
0

>  <SlogP_VSA9>
76.492867

>  <SMR>
11.59744

>  <SMR_VSA0>
71.586647

>  <SMR_VSA1>
79.279991

>  <SMR_VSA2>
59.592045

>  <SMR_VSA3>
37.180382

>  <SMR_VSA4>
41.326191

>  <SMR_VSA5>
35.286369

>  <SMR_VSA6>
16.634007

>  <SMR_VSA7>
137.04381

>  <TPSA>
181.62

>  <VAdjEq>
0.3512581

>  <VAdjMa>
6.1699252

>  <VDistEq>
3.2065995

>  <VDistMa>
9.8620739

>  <vdw_area>
416.48975

>  <vdw_vol>
555.02118

>  <vsa_acc>
13.566921

>  <vsa_acid>
0

>  <vsa_base>
0

>  <vsa_don>
17.742489

>  <vsa_hyd>
218.91946

>  <vsa_other>
29.86657

>  <vsa_pol>
126.27785

>  <Weight>
476.86899

>  <weinerPath>
2534

>  <weinerPol>
79

>  <zagreb>
190

$$$$