ClCCN(N=O)C(=O)NC1CCCCC1
  MOE2013           2D

 15 15  0  0  0  0  0  0  0  0999 V2000
    0.0000    0.0000    0.0000 Cl  0  0  0  0  0  0  0  0  0  0  0  0
   -1.2940   -0.7590    0.0000 C   0  0  0  0  0  0  0  0  0  0  0  0
   -2.5980   -0.0180    0.0000 C   0  0  0  0  0  0  0  0  0  0  0  0
   -3.8920   -0.7770    0.0000 N   0  0  0  0  0  0  0  0  0  0  0  0
   -3.8820   -2.2770    0.0000 N   0  0  0  0  0  0  0  0  0  0  0  0
   -2.5770   -3.0180    0.0000 O   0  0  0  0  0  0  0  0  0  0  0  0
   -5.1960   -0.0360    0.0000 C   0  0  0  0  0  0  0  0  0  0  0  0
   -5.2060    1.4640    0.0000 O   0  0  0  0  0  0  0  0  0  0  0  0
   -6.4900   -0.7950    0.0000 N   0  0  0  0  0  0  0  0  0  0  0  0
   -7.7940   -0.0530    0.0000 C   0  0  0  0  0  0  0  0  0  0  0  0
   -7.8040    1.4460    0.0000 C   0  0  0  0  0  0  0  0  0  0  0  0
   -9.1080    2.1880    0.0000 C   0  0  0  0  0  0  0  0  0  0  0  0
  -10.4020    1.4290    0.0000 C   0  0  0  0  0  0  0  0  0  0  0  0
  -10.3920   -0.0710    0.0000 C   0  0  0  0  0  0  0  0  0  0  0  0
   -9.0880   -0.8120    0.0000 C   0  0  0  0  0  0  0  0  0  0  0  0
  1  2  1  0  0  0  0
  2  3  1  0  0  0  0
  3  4  1  0  0  0  0
  4  5  1  0  0  0  0
  4  7  1  0  0  0  0
  5  6  2  0  0  0  0
  7  8  2  0  0  0  0
  7  9  1  0  0  0  0
  9 10  1  0  0  0  0
 10 11  1  0  0  0  0
 10 15  1  0  0  0  0
 11 12  1  0  0  0  0
 12 13  1  0  0  0  0
 13 14  1  0  0  0  0
 14 15  1  0  0  0  0
M  END
>  <Index>
628

>  <ID>
HT1230

>  <class>
0

>  <apol>
33.59269

>  <ast_fraglike>
1

>  <ast_fraglike_ext>
0

>  <ast_violation>
0

>  <ast_violation_ext>
1

>  <a_acc>
3

>  <a_acid>
0

>  <a_aro>
0

>  <a_base>
0

>  <a_count>
31

>  <a_don>
1

>  <a_donacc>
4

>  <a_heavy>
15

>  <a_hyd>
9

>  <a_IC>
54.295872

>  <a_ICM>
1.7514797

>  <a_nB>
0

>  <a_nBr>
0

>  <a_nC>
9

>  <a_nCl>
1

>  <a_nF>
0

>  <a_nH>
16

>  <a_nI>
0

>  <a_nN>
3

>  <a_nO>
2

>  <a_nP>
0

>  <a_nS>
0

>  <balabanJ>
2.2798662

>  <BCUT_PEOE_0>
-2.7843578

>  <BCUT_PEOE_1>
-0.45010084

>  <BCUT_PEOE_2>
0.50088751

>  <BCUT_PEOE_3>
2.7313697

>  <BCUT_SLOGP_0>
-2.7836185

>  <BCUT_SLOGP_1>
-0.39152622

>  <BCUT_SLOGP_2>
0.58273101

>  <BCUT_SLOGP_3>
2.8322115

>  <BCUT_SMR_0>
-2.529685

>  <BCUT_SMR_1>
-0.30751097

>  <BCUT_SMR_2>
0.60370117

>  <BCUT_SMR_3>
2.98541

>  <bpol>
21.147312

>  <b_1rotN>
5

>  <b_1rotR>
0.33333334

>  <b_ar>
0

>  <b_count>
31

>  <b_double>
2

>  <b_heavy>
15

>  <b_max1len>
3

>  <b_rotN>
6

>  <b_rotR>
0.40000001

>  <b_single>
29

>  <b_triple>
0

>  <chi0>
11.096012

>  <chi0v>
9.3719149

>  <chi0v_C>
6.0270977

>  <chi0_C>
6.1044478

>  <chi1>
7.2743869

>  <chi1v>
5.7834883

>  <chi1v_C>
3.3164966

>  <chi1_C>
3.3164966

>  <chiral>
0

>  <chiral_u>
0

>  <density>
0.81776512

>  <diameter>
9

>  <FCharge>
0

>  <GCUT_PEOE_0>
-0.82313591

>  <GCUT_PEOE_1>
-0.34002891

>  <GCUT_PEOE_2>
0.078736499

>  <GCUT_PEOE_3>
2.5234849

>  <GCUT_SLOGP_0>
-1.1623216

>  <GCUT_SLOGP_1>
-0.27824751

>  <GCUT_SLOGP_2>
0.23037331

>  <GCUT_SLOGP_3>
2.5731673

>  <GCUT_SMR_0>
-0.5271166

>  <GCUT_SMR_1>
-0.19352695

>  <GCUT_SMR_2>
0.23198844

>  <GCUT_SMR_3>
2.7497363

>  <Kier1>
13.066667

>  <Kier2>
7.3024693

>  <Kier3>
4.5714288

>  <KierA1>
11.683607

>  <KierA2>
6.4737325

>  <KierA3>
4.0243039

>  <KierFlex>
5.0424366

>  <lip_acc>
5

>  <lip_don>
1

>  <lip_druglike>
1

>  <lip_violation>
0

>  <logP(o/w)>
2.296

>  <logS>
-2.2741001

>  <mr>
5.8752351

>  <mutagenic>
1

>  <nmol>
1

>  <opr_brigid>
6

>  <opr_leadlike>
1

>  <opr_nring>
1

>  <opr_nrot>
6

>  <opr_violation>
0

>  <PC+>
0

>  <PC->
0

>  <PEOE_PC+>
1.2245491

>  <PEOE_PC->
-1.2245491

>  <PEOE_RPC+>
0.27887195

>  <PEOE_RPC->
0.27265307

>  <PEOE_VSA+0>
65.343109

>  <PEOE_VSA+1>
40.612209

>  <PEOE_VSA+2>
0

>  <PEOE_VSA+3>
8.6190128

>  <PEOE_VSA+4>
0

>  <PEOE_VSA+5>
0

>  <PEOE_VSA+6>
17.440542

>  <PEOE_VSA-0>
17.402626

>  <PEOE_VSA-1>
26.103939

>  <PEOE_VSA-2>
46.54747

>  <PEOE_VSA-3>
0

>  <PEOE_VSA-4>
13.566921

>  <PEOE_VSA-5>
0

>  <PEOE_VSA-6>
0.13689101

>  <PEOE_VSA_FHYD>
0.8679052

>  <PEOE_VSA_FNEG>
0.4400757

>  <PEOE_VSA_FPNEG>
0.058122974

>  <PEOE_VSA_FPOL>
0.13209482

>  <PEOE_VSA_FPOS>
0.5599243

>  <PEOE_VSA_FPPOS>
0.073971838

>  <PEOE_VSA_HYD>
204.62837

>  <PEOE_VSA_NEG>
103.75785

>  <PEOE_VSA_PNEG>
13.703812

>  <PEOE_VSA_POL>
31.144354

>  <PEOE_VSA_POS>
132.01488

>  <PEOE_VSA_PPOS>
17.440542

>  <petitjean>
0.44444445

>  <petitjeanSC>
0.80000001

>  <Q_PC+>
0

>  <Q_PC->
0

>  <Q_RPC+>
0

>  <Q_RPC->
0

>  <Q_VSA_FHYD>
1

>  <Q_VSA_FNEG>
0

>  <Q_VSA_FPNEG>
0

>  <Q_VSA_FPOL>
0

>  <Q_VSA_FPOS>
1

>  <Q_VSA_FPPOS>
0

>  <Q_VSA_HYD>
235.77272

>  <Q_VSA_NEG>
0

>  <Q_VSA_PNEG>
0

>  <Q_VSA_POL>
0

>  <Q_VSA_POS>
235.77272

>  <Q_VSA_PPOS>
0

>  <radius>
5

>  <reactive>
1

>  <rings>
1

>  <RPC+>
0

>  <RPC->
0

>  <rsynth>
1

>  <SlogP>
2.2509

>  <SlogP_VSA0>
18.01075

>  <SlogP_VSA1>
7.831748

>  <SlogP_VSA2>
3.9819686

>  <SlogP_VSA3>
61.721886

>  <SlogP_VSA4>
0

>  <SlogP_VSA5>
19.702038

>  <SlogP_VSA6>
0

>  <SlogP_VSA7>
0

>  <SlogP_VSA8>
94.342026

>  <SlogP_VSA9>
63.01086

>  <SMR>
5.8625698

>  <SMR_VSA0>
23.862217

>  <SMR_VSA1>
22.703829

>  <SMR_VSA2>
42.109619

>  <SMR_VSA3>
3.9819686

>  <SMR_VSA4>
0

>  <SMR_VSA5>
94.342026

>  <SMR_VSA6>
42.452972

>  <SMR_VSA7>
39.148643

>  <TPSA>
61.77

>  <VAdjEq>
0.56650949

>  <VAdjMa>
4.9068904

>  <VDistEq>
2.94208

>  <VDistMa>
7.5006247

>  <vdw_area>
235.77272

>  <vdw_vol>
285.77765

>  <vsa_acc>
45.15617

>  <vsa_acid>
0

>  <vsa_base>
0

>  <vsa_don>
5.6825762

>  <vsa_hyd>
153.74318

>  <vsa_other>
17.440542

>  <vsa_pol>
50.838745

>  <Weight>
233.69899

>  <weinerPath>
402

>  <weinerPol>
18

>  <zagreb>
66

$$$$