OC(=O)CC[C@H](N)C(O)=O
  MOE2013           2D

 10  9  0  0  1  0  0  0  0  0999 V2000
    0.0000    0.0000    0.0000 O   0  0  0  0  0  0  0  0  0  0  0  0
    1.3000   -0.7490    0.0000 C   0  0  0  0  0  0  0  0  0  0  0  0
    1.3010   -2.2490    0.0000 O   0  0  0  0  0  0  0  0  0  0  0  0
    2.5980    0.0020    0.0000 C   0  0  0  0  0  0  0  0  0  0  0  0
    3.8980   -0.7460    0.0000 C   0  0  0  0  0  0  0  0  0  0  0  0
    5.1960    0.0050    0.0000 C   0  0  2  0  0  0  0  0  0  0  0  0
    5.1950    1.5050    0.0000 N   0  0  0  0  0  0  0  0  0  0  0  0
    6.4960   -0.7440    0.0000 C   0  0  0  0  0  0  0  0  0  0  0  0
    7.7940    0.0070    0.0000 O   0  0  0  0  0  0  0  0  0  0  0  0
    6.4970   -2.2440    0.0000 O   0  0  0  0  0  0  0  0  0  0  0  0
  1  2  1  0  0  0  0
  2  3  2  0  0  0  0
  2  4  1  0  0  0  0
  4  5  1  0  0  0  0
  5  6  1  0  0  0  0
  6  7  1  6  0  0  0
  6  8  1  0  0  0  0
  8  9  1  0  0  0  0
  8 10  2  0  0  0  0
M  END
>  <Index>
613

>  <ID>
HT1203

>  <class>
0

>  <apol>
19.109137

>  <ast_fraglike>
0

>  <ast_fraglike_ext>
0

>  <ast_violation>
2

>  <ast_violation_ext>
4

>  <a_acc>
5

>  <a_acid>
0

>  <a_aro>
0

>  <a_base>
0

>  <a_count>
19

>  <a_don>
5

>  <a_donacc>
10

>  <a_heavy>
10

>  <a_hyd>
3

>  <a_IC>
32.571659

>  <a_ICM>
1.7142978

>  <a_nB>
0

>  <a_nBr>
0

>  <a_nC>
5

>  <a_nCl>
0

>  <a_nF>
0

>  <a_nH>
9

>  <a_nI>
0

>  <a_nN>
1

>  <a_nO>
4

>  <a_nP>
0

>  <a_nS>
0

>  <balabanJ>
3.3270686

>  <BCUT_PEOE_0>
-2.5276494

>  <BCUT_PEOE_1>
-0.51661867

>  <BCUT_PEOE_2>
0.44800958

>  <BCUT_PEOE_3>
2.5791686

>  <BCUT_SLOGP_0>
-2.7298291

>  <BCUT_SLOGP_1>
-0.47954121

>  <BCUT_SLOGP_2>
0.39326218

>  <BCUT_SLOGP_3>
2.536978

>  <BCUT_SMR_0>
-2.302597

>  <BCUT_SMR_1>
-0.30410931

>  <BCUT_SMR_2>
0.58211863

>  <BCUT_SMR_3>
2.7989013

>  <bpol>
11.094863

>  <b_1rotN>
4

>  <b_1rotR>
0.44444445

>  <b_ar>
0

>  <b_count>
18

>  <b_double>
2

>  <b_heavy>
9

>  <b_max1len>
5

>  <b_rotN>
4

>  <b_rotR>
0.44444445

>  <b_single>
16

>  <b_triple>
0

>  <chi0>
8.1462641

>  <chi0v>
5.2798381

>  <chi0v_C>
2.9915638

>  <chi0_C>
3.1462643

>  <chi1>
4.536581

>  <chi1v>
2.7392721

>  <chi1v_C>
1.5504768

>  <chi1_C>
1.6498299

>  <chiral>
1

>  <chiral_u>
0

>  <density>
0.86488354

>  <diameter>
6

>  <FCharge>
0

>  <GCUT_PEOE_0>
-0.81171149

>  <GCUT_PEOE_1>
-0.47793251

>  <GCUT_PEOE_2>
0.089774042

>  <GCUT_PEOE_3>
2.1380129

>  <GCUT_SLOGP_0>
-1.3635063

>  <GCUT_SLOGP_1>
-0.44385099

>  <GCUT_SLOGP_2>
0.054200001

>  <GCUT_SLOGP_3>
2.0707667

>  <GCUT_SMR_0>
-0.51269746

>  <GCUT_SMR_1>
-0.23950385

>  <GCUT_SMR_2>
0.20623049

>  <GCUT_SMR_3>
2.3439405

>  <Kier1>
10

>  <Kier2>
4.7603307

>  <Kier3>
5.5308642

>  <KierA1>
8.1884441

>  <KierA2>
3.8015206

>  <KierA3>
4.3267159

>  <KierFlex>
3.112854

>  <lip_acc>
5

>  <lip_don>
4

>  <lip_druglike>
1

>  <lip_violation>
0

>  <logP(o/w)>
-3.36373

>  <logS>
0.64273

>  <mr>
3.308836

>  <mutagenic>
0

>  <nmol>
1

>  <opr_brigid>
0

>  <opr_leadlike>
1

>  <opr_nring>
0

>  <opr_nrot>
4

>  <opr_violation>
0

>  <PC+>
0

>  <PC->
0

>  <PEOE_PC+>
1.5287807

>  <PEOE_PC->
-1.5287807

>  <PEOE_RPC+>
0.18089668

>  <PEOE_RPC->
0.21668693

>  <PEOE_VSA+0>
25.762857

>  <PEOE_VSA+1>
7.4113464

>  <PEOE_VSA+2>
17.238026

>  <PEOE_VSA+3>
0

>  <PEOE_VSA+4>
20.648346

>  <PEOE_VSA+5>
29.416998

>  <PEOE_VSA+6>
0

>  <PEOE_VSA-0>
8.701313

>  <PEOE_VSA-1>
0

>  <PEOE_VSA-2>
0

>  <PEOE_VSA-3>
0

>  <PEOE_VSA-4>
0

>  <PEOE_VSA-5>
27.133842

>  <PEOE_VSA-6>
22.186199

>  <PEOE_VSA_FHYD>
0.37295863

>  <PEOE_VSA_FNEG>
0.3660678

>  <PEOE_VSA_FPNEG>
0.31116956

>  <PEOE_VSA_FPOL>
0.6270414

>  <PEOE_VSA_FPOS>
0.63393217

>  <PEOE_VSA_FPPOS>
0.3158718

>  <PEOE_VSA_HYD>
59.113544

>  <PEOE_VSA_NEG>
58.021355

>  <PEOE_VSA_PNEG>
49.320042

>  <PEOE_VSA_POL>
99.385384

>  <PEOE_VSA_POS>
100.47758

>  <PEOE_VSA_PPOS>
50.065342

>  <petitjean>
0.5

>  <petitjeanSC>
1

>  <Q_PC+>
0

>  <Q_PC->
0

>  <Q_RPC+>
0

>  <Q_RPC->
0

>  <Q_VSA_FHYD>
1

>  <Q_VSA_FNEG>
0

>  <Q_VSA_FPNEG>
0

>  <Q_VSA_FPOL>
0

>  <Q_VSA_FPOS>
1

>  <Q_VSA_FPPOS>
0

>  <Q_VSA_HYD>
158.49893

>  <Q_VSA_NEG>
0

>  <Q_VSA_PNEG>
0

>  <Q_VSA_POL>
0

>  <Q_VSA_POS>
158.49893

>  <Q_VSA_PPOS>
0

>  <radius>
3

>  <reactive>
0

>  <rings>
0

>  <RPC+>
0

>  <RPC->
0

>  <rsynth>
1

>  <SlogP>
-0.73689997

>  <SlogP_VSA0>
32.897186

>  <SlogP_VSA1>
15.490929

>  <SlogP_VSA2>
51.706402

>  <SlogP_VSA3>
50.770454

>  <SlogP_VSA4>
0

>  <SlogP_VSA5>
0

>  <SlogP_VSA6>
0

>  <SlogP_VSA7>
0

>  <SlogP_VSA8>
37.736813

>  <SlogP_VSA9>
0

>  <SMR>
3.2481

>  <SMR_VSA0>
47.724434

>  <SMR_VSA1>
0

>  <SMR_VSA2>
50.770454

>  <SMR_VSA3>
3.9819686

>  <SMR_VSA4>
32.897186

>  <SMR_VSA5>
37.736813

>  <SMR_VSA6>
15.490929

>  <SMR_VSA7>
0

>  <TPSA>
100.62

>  <VAdjEq>
0.68007702

>  <VAdjMa>
4.1699252

>  <VDistEq>
2.5111432

>  <VDistMa>
6.2897353

>  <vdw_area>
158.49893

>  <vdw_vol>
170.11539

>  <vsa_acc>
0

>  <vsa_acid>
0

>  <vsa_base>
0

>  <vsa_don>
0

>  <vsa_hyd>
38.31654

>  <vsa_other>
29.416998

>  <vsa_pol>
72.01017

>  <Weight>
147.12999

>  <weinerPath>
136

>  <weinerPol>
9

>  <zagreb>
40

$$$$