OC(CC)(C#C)C
  MOE2013           2D

  7  6  0  0  1  0  0  0  0  0999 V2000
    0.0000    0.0000    0.0000 O   0  0  0  0  0  0  0  0  0  0  0  0
   -0.7500    1.2990    0.0000 C   0  0  3  0  0  0  0  0  0  0  0  0
   -2.0490    0.5480    0.0000 C   0  0  0  0  0  0  0  0  0  0  0  0
   -3.3480    1.2980    0.0000 C   0  0  0  0  0  0  0  0  0  0  0  0
    0.5480    2.0490    0.0000 C   0  0  0  0  0  0  0  0  0  0  0  0
    1.8470    2.8000    0.0000 C   0  0  0  0  0  0  0  0  0  0  0  0
   -1.5010    2.5980    0.0000 C   0  0  0  0  0  0  0  0  0  0  0  0
  1  2  1  0  0  0  0
  2  3  1  0  0  0  0
  2  5  1  0  0  0  0
  2  7  1  0  0  0  0
  3  4  1  0  0  0  0
  5  6  3  0  0  0  0
M  END
>  <Index>
671

>  <ID>
HT1302

>  <class>
0

>  <apol>
18.02993

>  <ast_fraglike>
1

>  <ast_fraglike_ext>
1

>  <ast_violation>
0

>  <ast_violation_ext>
0

>  <a_acc>
1

>  <a_acid>
0

>  <a_aro>
0

>  <a_base>
0

>  <a_count>
17

>  <a_don>
1

>  <a_donacc>
2

>  <a_heavy>
7

>  <a_hyd>
6

>  <a_IC>
20.757812

>  <a_ICM>
1.2210478

>  <a_nB>
0

>  <a_nBr>
0

>  <a_nC>
6

>  <a_nCl>
0

>  <a_nF>
0

>  <a_nH>
10

>  <a_nI>
0

>  <a_nN>
0

>  <a_nO>
1

>  <a_nP>
0

>  <a_nS>
0

>  <balabanJ>
3.4051423

>  <BCUT_PEOE_0>
-2.5597196

>  <BCUT_PEOE_1>
-0.28487307

>  <BCUT_PEOE_2>
0.3566322

>  <BCUT_PEOE_3>
2.5586934

>  <BCUT_SLOGP_0>
-2.5564308

>  <BCUT_SLOGP_1>
-0.29572454

>  <BCUT_SLOGP_2>
0.30290166

>  <BCUT_SLOGP_3>
2.597106

>  <BCUT_SMR_0>
-2.3317468

>  <BCUT_SMR_1>
-0.12773092

>  <BCUT_SMR_2>
0.49777585

>  <BCUT_SMR_3>
2.7844152

>  <bpol>
10.93207

>  <b_1rotN>
1

>  <b_1rotR>
0.16666667

>  <b_ar>
0

>  <b_count>
16

>  <b_double>
0

>  <b_heavy>
6

>  <b_max1len>
5

>  <b_rotN>
2

>  <b_rotR>
0.33333334

>  <b_single>
15

>  <b_triple>
1

>  <chi0>
5.9142137

>  <chi0v>
4.7316709

>  <chi0v_C>
4.2844572

>  <chi0_C>
4.9142137

>  <chi1>
3.1213202

>  <chi1v>
2.322942

>  <chi1v_C>
2.0993352

>  <chi1_C>
2.6213202

>  <chiral>
1

>  <chiral_u>
1

>  <density>
0.62437195

>  <diameter>
4

>  <FCharge>
0

>  <GCUT_PEOE_0>
-0.77818072

>  <GCUT_PEOE_1>
-0.25598162

>  <GCUT_PEOE_2>
-0.038995292

>  <GCUT_PEOE_3>
2.0684671

>  <GCUT_SLOGP_0>
-0.87928259

>  <GCUT_SLOGP_1>
-0.25369427

>  <GCUT_SLOGP_2>
-0.037

>  <GCUT_SLOGP_3>
2.1133382

>  <GCUT_SMR_0>
-0.52459311

>  <GCUT_SMR_1>
-0.11238351

>  <GCUT_SMR_2>
0.087749377

>  <GCUT_SMR_3>
2.2876992

>  <Kier1>
7

>  <Kier2>
2.34375

>  <Kier3>
2.6666667

>  <KierA1>
5.6331449

>  <KierA2>
1.806444

>  <KierA3>
1.9573671

>  <KierFlex>
1.4537086

>  <lip_acc>
1

>  <lip_don>
1

>  <lip_druglike>
1

>  <lip_violation>
0

>  <logP(o/w)>
1.385

>  <logS>
-1.16284

>  <mr>
2.9844105

>  <mutagenic>
0

>  <nmol>
1

>  <opr_brigid>
1

>  <opr_leadlike>
1

>  <opr_nring>
0

>  <opr_nrot>
2

>  <opr_violation>
0

>  <PC+>
0

>  <PC->
0

>  <PEOE_PC+>
0.66667038

>  <PEOE_PC->
-0.66667038

>  <PEOE_RPC+>
0.31705296

>  <PEOE_RPC->
0.56525034

>  <PEOE_VSA+0>
34.123089

>  <PEOE_VSA+1>
0

>  <PEOE_VSA+2>
4.2653861

>  <PEOE_VSA+3>
0

>  <PEOE_VSA+4>
10.324173

>  <PEOE_VSA+5>
0

>  <PEOE_VSA+6>
0

>  <PEOE_VSA-0>
27.44899

>  <PEOE_VSA-1>
34.556171

>  <PEOE_VSA-2>
25.854858

>  <PEOE_VSA-3>
0

>  <PEOE_VSA-4>
0

>  <PEOE_VSA-5>
0

>  <PEOE_VSA-6>
7.7675405

>  <PEOE_VSA_FHYD>
0.87465924

>  <PEOE_VSA_FNEG>
0.66251504

>  <PEOE_VSA_FPNEG>
0.053814113

>  <PEOE_VSA_FPOL>
0.12534077

>  <PEOE_VSA_FPOS>
0.33748493

>  <PEOE_VSA_FPPOS>
0.071526654

>  <PEOE_VSA_HYD>
126.2485

>  <PEOE_VSA_NEG>
95.627563

>  <PEOE_VSA_PNEG>
7.7675405

>  <PEOE_VSA_POL>
18.091713

>  <PEOE_VSA_POS>
48.712646

>  <PEOE_VSA_PPOS>
10.324173

>  <petitjean>
0.5

>  <petitjeanSC>
1

>  <Q_PC+>
0

>  <Q_PC->
0

>  <Q_RPC+>
0

>  <Q_RPC->
0

>  <Q_VSA_FHYD>
1

>  <Q_VSA_FNEG>
0

>  <Q_VSA_FPNEG>
0

>  <Q_VSA_FPOL>
0

>  <Q_VSA_FPOS>
1

>  <Q_VSA_FPPOS>
0

>  <Q_VSA_HYD>
144.34021

>  <Q_VSA_NEG>
0

>  <Q_VSA_PNEG>
0

>  <Q_VSA_POL>
0

>  <Q_VSA_POS>
144.34021

>  <Q_VSA_PPOS>
0

>  <radius>
2

>  <reactive>
0

>  <rings>
0

>  <RPC+>
0

>  <RPC->
0

>  <rsynth>
1

>  <SlogP>
0.780608

>  <SlogP_VSA0>
25.385227

>  <SlogP_VSA1>
0

>  <SlogP_VSA2>
0

>  <SlogP_VSA3>
17.030573

>  <SlogP_VSA4>
31.488184

>  <SlogP_VSA5>
0

>  <SlogP_VSA6>
0

>  <SlogP_VSA7>
0

>  <SlogP_VSA8>
18.868406

>  <SlogP_VSA9>
66.652031

>  <SMR>
2.9747801

>  <SMR_VSA0>
0

>  <SMR_VSA1>
25.385227

>  <SMR_VSA2>
0

>  <SMR_VSA3>
17.030573

>  <SMR_VSA4>
0

>  <SMR_VSA5>
18.868406

>  <SMR_VSA6>
31.488184

>  <SMR_VSA7>
66.652031

>  <TPSA>
20.23

>  <VAdjEq>
0.80309099

>  <VAdjMa>
3.5849626

>  <VDistEq>
1.7723389

>  <VDistMa>
5.2655835

>  <vdw_area>
144.34021

>  <vdw_vol>
157.18996

>  <vsa_acc>
0

>  <vsa_acid>
0

>  <vsa_base>
0

>  <vsa_don>
0

>  <vsa_hyd>
119.84234

>  <vsa_other>
0

>  <vsa_pol>
13.566921

>  <Weight>
98.144997

>  <weinerPath>
44

>  <weinerPol>
6

>  <zagreb>
28

$$$$