Clc1c(NC(=O)C(O)=O)cc(cc1NC(=O)C(O)=O)C#N
  MOE2013           2D

 21 21  0  0  0  0  0  0  0  0999 V2000
    0.0000    0.0000    0.0000 Cl  0  0  0  0  0  0  0  0  0  0  0  0
    0.0000    1.5000    0.0000 C   0  0  0  0  0  0  0  0  0  0  0  0
   -1.2990    2.2500    0.0000 C   0  0  0  0  0  0  0  0  0  0  0  0
   -2.5980    1.5000    0.0000 N   0  0  0  0  0  0  0  0  0  0  0  0
   -3.8970    2.2500    0.0000 C   0  0  0  0  0  0  0  0  0  0  0  0
   -3.8970    3.7500    0.0000 O   0  0  0  0  0  0  0  0  0  0  0  0
   -5.1960    1.5000    0.0000 C   0  0  0  0  0  0  0  0  0  0  0  0
   -6.4950    2.2500    0.0000 O   0  0  0  0  0  0  0  0  0  0  0  0
   -5.1960    0.0000    0.0000 O   0  0  0  0  0  0  0  0  0  0  0  0
   -1.2990    3.7500    0.0000 C   0  0  0  0  0  0  0  0  0  0  0  0
    0.0000    4.5000    0.0000 C   0  0  0  0  0  0  0  0  0  0  0  0
    1.2990    3.7500    0.0000 C   0  0  0  0  0  0  0  0  0  0  0  0
    1.2990    2.2500    0.0000 C   0  0  0  0  0  0  0  0  0  0  0  0
    2.5980    1.5000    0.0000 N   0  0  0  0  0  0  0  0  0  0  0  0
    3.8970    2.2500    0.0000 C   0  0  0  0  0  0  0  0  0  0  0  0
    3.8970    3.7500    0.0000 O   0  0  0  0  0  0  0  0  0  0  0  0
    5.1960    1.5000    0.0000 C   0  0  0  0  0  0  0  0  0  0  0  0
    6.4950    2.2500    0.0000 O   0  0  0  0  0  0  0  0  0  0  0  0
    5.1960    0.0000    0.0000 O   0  0  0  0  0  0  0  0  0  0  0  0
    0.0000    6.0000    0.0000 C   0  0  0  0  0  0  0  0  0  0  0  0
    0.0000    7.5000    0.0000 N   0  0  0  0  0  0  0  0  0  0  0  0
  1  2  1  0  0  0  0
  2  3  1  0  0  0  0
  2 13  2  0  0  0  0
  3  4  1  0  0  0  0
  3 10  2  0  0  0  0
  4  5  1  0  0  0  0
  5  6  2  0  0  0  0
  5  7  1  0  0  0  0
  7  8  1  0  0  0  0
  7  9  2  0  0  0  0
 10 11  1  0  0  0  0
 11 12  2  0  0  0  0
 11 20  1  0  0  0  0
 12 13  1  0  0  0  0
 13 14  1  0  0  0  0
 14 15  1  0  0  0  0
 15 16  2  0  0  0  0
 15 17  1  0  0  0  0
 17 18  1  0  0  0  0
 17 19  2  0  0  0  0
 20 21  3  0  0  0  0
M  END
>  <Index>
626

>  <ID>
HT1226

>  <class>
0

>  <apol>
33.65276

>  <ast_fraglike>
0

>  <ast_fraglike_ext>
0

>  <ast_violation>
3

>  <ast_violation_ext>
5

>  <a_acc>
7

>  <a_acid>
0

>  <a_aro>
6

>  <a_base>
0

>  <a_count>
27

>  <a_don>
6

>  <a_donacc>
13

>  <a_heavy>
21

>  <a_hyd>
7

>  <a_IC>
54.553776

>  <a_ICM>
2.0205102

>  <a_nB>
0

>  <a_nBr>
0

>  <a_nC>
11

>  <a_nCl>
1

>  <a_nF>
0

>  <a_nH>
6

>  <a_nI>
0

>  <a_nN>
3

>  <a_nO>
6

>  <a_nP>
0

>  <a_nS>
0

>  <balabanJ>
2.7203658

>  <BCUT_PEOE_0>
-2.2681477

>  <BCUT_PEOE_1>
-0.69722307

>  <BCUT_PEOE_2>
0.74341857

>  <BCUT_PEOE_3>
2.2941537

>  <BCUT_SLOGP_0>
-2.3739886

>  <BCUT_SLOGP_1>
-0.68057024

>  <BCUT_SLOGP_2>
0.70324558

>  <BCUT_SLOGP_3>
2.4143994

>  <BCUT_SMR_0>
-1.9161068

>  <BCUT_SMR_1>
-0.49242094

>  <BCUT_SMR_2>
0.89440852

>  <BCUT_SMR_3>
2.6238098

>  <bpol>
12.791242

>  <b_1rotN>
4

>  <b_1rotR>
0.19047619

>  <b_ar>
6

>  <b_count>
27

>  <b_double>
4

>  <b_heavy>
21

>  <b_max1len>
1

>  <b_rotN>
7

>  <b_rotR>
0.33333334

>  <b_single>
16

>  <b_triple>
1

>  <chi0>
16.154337

>  <chi0v>
10.763227

>  <chi0v_C>
5.6547008

>  <chi0_C>
6.7401223

>  <chi1>
9.7561264

>  <chi1v>
5.4589643

>  <chi1v_C>
2.4047005

>  <chi1_C>
3.3745749

>  <chiral>
0

>  <chiral_u>
0

>  <density>
0.96689594

>  <diameter>
10

>  <FCharge>
0

>  <GCUT_PEOE_0>
-0.79971594

>  <GCUT_PEOE_1>
-0.50454187

>  <GCUT_PEOE_2>
0.21217942

>  <GCUT_PEOE_3>
2.242723

>  <GCUT_SLOGP_0>
-1.0165724

>  <GCUT_SLOGP_1>
-0.45347711

>  <GCUT_SLOGP_2>
0.20383056

>  <GCUT_SLOGP_3>
2.3319967

>  <GCUT_SMR_0>
-0.40134743

>  <GCUT_SMR_1>
-0.23513193

>  <GCUT_SMR_2>
0.31700838

>  <GCUT_SMR_3>
2.5502472

>  <Kier1>
19.047619

>  <Kier2>
8.5850182

>  <Kier3>
5.6055365

>  <KierA1>
13.187305

>  <KierA2>
5.8240986

>  <KierA3>
3.7435763

>  <KierFlex>
3.6573412

>  <lip_acc>
9

>  <lip_don>
4

>  <lip_druglike>
1

>  <lip_violation>
0

>  <logP(o/w)>
-0.43200001

>  <logS>
-2.8659599

>  <mr>
6.8859234

>  <mutagenic>
0

>  <nmol>
1

>  <opr_brigid>
6

>  <opr_leadlike>
1

>  <opr_nring>
1

>  <opr_nrot>
5

>  <opr_violation>
1

>  <PC+>
0

>  <PC->
0

>  <PEOE_PC+>
2.6201952

>  <PEOE_PC->
-2.6201952

>  <PEOE_RPC+>
0.1332414

>  <PEOE_RPC->
0.12361138

>  <PEOE_VSA+0>
0

>  <PEOE_VSA+1>
48.957668

>  <PEOE_VSA+2>
0

>  <PEOE_VSA+3>
17.238026

>  <PEOE_VSA+4>
20.648346

>  <PEOE_VSA+5>
0

>  <PEOE_VSA+6>
55.316059

>  <PEOE_VSA-0>
24.509808

>  <PEOE_VSA-1>
29.581947

>  <PEOE_VSA-2>
0

>  <PEOE_VSA-3>
17.742489

>  <PEOE_VSA-4>
0

>  <PEOE_VSA-5>
54.267685

>  <PEOE_VSA-6>
15.808863

>  <PEOE_VSA_FHYD>
0.48589963

>  <PEOE_VSA_FNEG>
0.49956119

>  <PEOE_VSA_FPNEG>
0.24668683

>  <PEOE_VSA_FPOL>
0.51410037

>  <PEOE_VSA_FPOS>
0.50043881

>  <PEOE_VSA_FPPOS>
0.26741356

>  <PEOE_VSA_HYD>
138.02994

>  <PEOE_VSA_NEG>
141.9108

>  <PEOE_VSA_PNEG>
70.076546

>  <PEOE_VSA_POL>
146.04095

>  <PEOE_VSA_POS>
142.1601

>  <PEOE_VSA_PPOS>
75.964409

>  <petitjean>
0.5

>  <petitjeanSC>
1

>  <Q_PC+>
0

>  <Q_PC->
0

>  <Q_RPC+>
0

>  <Q_RPC->
0

>  <Q_VSA_FHYD>
1

>  <Q_VSA_FNEG>
0

>  <Q_VSA_FPNEG>
0

>  <Q_VSA_FPOL>
0

>  <Q_VSA_FPOS>
1

>  <Q_VSA_FPPOS>
0

>  <Q_VSA_HYD>
284.07089

>  <Q_VSA_NEG>
0

>  <Q_VSA_PNEG>
0

>  <Q_VSA_POL>
0

>  <Q_VSA_POS>
284.07089

>  <Q_VSA_PPOS>
0

>  <radius>
5

>  <reactive>
0

>  <rings>
1

>  <RPC+>
0

>  <RPC->
0

>  <rsynth>
1

>  <SlogP>
0.257884

>  <SlogP_VSA0>
0

>  <SlogP_VSA1>
62.029995

>  <SlogP_VSA2>
95.448868

>  <SlogP_VSA3>
98.431557

>  <SlogP_VSA4>
3.185575

>  <SlogP_VSA5>
0

>  <SlogP_VSA6>
3.5006065

>  <SlogP_VSA7>
35.286369

>  <SlogP_VSA8>
0

>  <SlogP_VSA9>
44.66214

>  <SMR>
6.8698001

>  <SMR_VSA0>
95.448868

>  <SMR_VSA1>
31.059357

>  <SMR_VSA2>
50.770454

>  <SMR_VSA3>
23.287928

>  <SMR_VSA4>
41.534996

>  <SMR_VSA5>
35.286369

>  <SMR_VSA6>
26.008495

>  <SMR_VSA7>
39.148643

>  <TPSA>
156.59

>  <VAdjEq>
0.45371634

>  <VAdjMa>
5.3923173

>  <VDistEq>
3.15066

>  <VDistMa>
8.5113773

>  <vdw_area>
284.07089

>  <vdw_vol>
322.30664

>  <vsa_acc>
44.876331

>  <vsa_acid>
0

>  <vsa_base>
0

>  <vsa_don>
11.365152

>  <vsa_hyd>
81.326324

>  <vsa_other>
75.61557

>  <vsa_pol>
110.50917

>  <Weight>
311.63699

>  <weinerPath>
946

>  <weinerPol>
31

>  <zagreb>
100

$$$$