O=C1N(C)C(=O)NC(=O)C1(CC)c1ccccc1
  MOE2013           2D

 18 19  0  0  1  0  0  0  0  0999 V2000
    0.0000    0.0000    0.0000 O   0  0  0  0  0  0  0  0  0  0  0  0
   -0.0060   -1.5000    0.0000 C   0  0  0  0  0  0  0  0  0  0  0  0
    1.2900   -2.2550    0.0000 N   0  0  0  0  0  0  0  0  0  0  0  0
    2.5920   -1.5110    0.0000 C   0  0  0  0  0  0  0  0  0  0  0  0
    1.2830   -3.7550    0.0000 C   0  0  0  0  0  0  0  0  0  0  0  0
    2.5790   -4.5110    0.0000 O   0  0  0  0  0  0  0  0  0  0  0  0
   -0.0190   -4.5000    0.0000 N   0  0  0  0  0  0  0  0  0  0  0  0
   -1.3150   -3.7440    0.0000 C   0  0  0  0  0  0  0  0  0  0  0  0
   -2.6170   -4.4890    0.0000 O   0  0  0  0  0  0  0  0  0  0  0  0
   -1.3090   -2.2450    0.0000 C   0  0  3  0  0  0  0  0  0  0  0  0
   -2.0530   -0.9420    0.0000 C   0  0  0  0  0  0  0  0  0  0  0  0
   -1.2980    0.3540    0.0000 C   0  0  0  0  0  0  0  0  0  0  0  0
   -2.8080   -2.2380    0.0000 C   0  0  0  0  0  0  0  0  0  0  0  0
   -3.5640   -3.5340    0.0000 C   0  0  0  0  0  0  0  0  0  0  0  0
   -5.0640   -3.5280    0.0000 C   0  0  0  0  0  0  0  0  0  0  0  0
   -5.8080   -2.2260    0.0000 C   0  0  0  0  0  0  0  0  0  0  0  0
   -5.0530   -0.9300    0.0000 C   0  0  0  0  0  0  0  0  0  0  0  0
   -3.5530   -0.9360    0.0000 C   0  0  0  0  0  0  0  0  0  0  0  0
  1  2  2  0  0  0  0
  2  3  1  0  0  0  0
  2 10  1  0  0  0  0
  3  4  1  0  0  0  0
  3  5  1  0  0  0  0
  5  6  2  0  0  0  0
  5  7  1  0  0  0  0
  7  8  1  0  0  0  0
  8  9  2  0  0  0  0
  8 10  1  0  0  0  0
 10 11  1  0  0  0  0
 10 13  1  0  0  0  0
 11 12  1  0  0  0  0
 13 14  1  0  0  0  0
 13 18  2  0  0  0  0
 14 15  2  0  0  0  0
 15 16  1  0  0  0  0
 16 17  2  0  0  0  0
 17 18  1  0  0  0  0
M  END
>  <Index>
675

>  <ID>
HT1309

>  <class>
0

>  <apol>
36.821102

>  <ast_fraglike>
1

>  <ast_fraglike_ext>
1

>  <ast_violation>
0

>  <ast_violation_ext>
0

>  <a_acc>
3

>  <a_acid>
0

>  <a_aro>
6

>  <a_base>
0

>  <a_count>
32

>  <a_don>
1

>  <a_donacc>
4

>  <a_heavy>
18

>  <a_hyd>
10

>  <a_IC>
51.836426

>  <a_ICM>
1.6198883

>  <a_nB>
0

>  <a_nBr>
0

>  <a_nC>
13

>  <a_nCl>
0

>  <a_nF>
0

>  <a_nH>
14

>  <a_nI>
0

>  <a_nN>
2

>  <a_nO>
3

>  <a_nP>
0

>  <a_nS>
0

>  <balabanJ>
2.282238

>  <BCUT_PEOE_0>
-2.5808189

>  <BCUT_PEOE_1>
-0.53302026

>  <BCUT_PEOE_2>
0.54932499

>  <BCUT_PEOE_3>
2.6721466

>  <BCUT_SLOGP_0>
-2.7736964

>  <BCUT_SLOGP_1>
-0.47508252

>  <BCUT_SLOGP_2>
0.63677609

>  <BCUT_SLOGP_3>
2.6078706

>  <BCUT_SMR_0>
-2.3373282

>  <BCUT_SMR_1>
-0.36929357

>  <BCUT_SMR_2>
0.68593544

>  <BCUT_SMR_3>
2.9129863

>  <bpol>
20.818897

>  <b_1rotN>
2

>  <b_1rotR>
0.10526316

>  <b_ar>
6

>  <b_count>
33

>  <b_double>
3

>  <b_heavy>
19

>  <b_max1len>
4

>  <b_rotN>
2

>  <b_rotR>
0.10526316

>  <b_single>
24

>  <b_triple>
0

>  <chi0>
13.336499

>  <chi0v>
10.265817

>  <chi0v_C>
8.0938578

>  <chi0_C>
9.052042

>  <chi1>
8.5357466

>  <chi1v>
5.7281432

>  <chi1v_C>
3.7213438

>  <chi1_C>
4.7431822

>  <chiral>
1

>  <chiral_u>
1

>  <density>
0.76077384

>  <diameter>
8

>  <FCharge>
0

>  <GCUT_PEOE_0>
-0.77963066

>  <GCUT_PEOE_1>
-0.41088569

>  <GCUT_PEOE_2>
0.072748177

>  <GCUT_PEOE_3>
2.5967777

>  <GCUT_SLOGP_0>
-1.1706595

>  <GCUT_SLOGP_1>
-0.29898441

>  <GCUT_SLOGP_2>
0.11805517

>  <GCUT_SLOGP_3>
2.5703456

>  <GCUT_SMR_0>
-0.51858073

>  <GCUT_SMR_1>
-0.20798357

>  <GCUT_SMR_2>
0.16170844

>  <GCUT_SMR_3>
2.8489933

>  <Kier1>
14.409972

>  <Kier2>
5.5510206

>  <Kier3>
2.2843544

>  <KierA1>
9.9332924

>  <KierA2>
3.7343075

>  <KierA3>
1.5091115

>  <KierFlex>
2.060776

>  <lip_acc>
5

>  <lip_don>
1

>  <lip_druglike>
1

>  <lip_violation>
0

>  <logP(o/w)>
1.915

>  <logS>
-2.84272

>  <mr>
6.6847854

>  <mutagenic>
0

>  <nmol>
1

>  <opr_brigid>
12

>  <opr_leadlike>
1

>  <opr_nring>
2

>  <opr_nrot>
2

>  <opr_violation>
0

>  <PC+>
0

>  <PC->
0

>  <PEOE_PC+>
1.7470716

>  <PEOE_PC->
-1.7470716

>  <PEOE_RPC+>
0.18967833

>  <PEOE_RPC->
0.15872474

>  <PEOE_VSA+0>
57.361778

>  <PEOE_VSA+1>
21.326929

>  <PEOE_VSA+2>
0

>  <PEOE_VSA+3>
8.6190128

>  <PEOE_VSA+4>
12.949531

>  <PEOE_VSA+5>
12.949531

>  <PEOE_VSA+6>
17.440542

>  <PEOE_VSA-0>
10.909853

>  <PEOE_VSA-1>
80.022194

>  <PEOE_VSA-2>
0

>  <PEOE_VSA-3>
0

>  <PEOE_VSA-4>
13.566921

>  <PEOE_VSA-5>
27.270733

>  <PEOE_VSA-6>
0

>  <PEOE_VSA_FHYD>
0.67922336

>  <PEOE_VSA_FNEG>
0.50213856

>  <PEOE_VSA_FPNEG>
0.1556212

>  <PEOE_VSA_FPOL>
0.32077667

>  <PEOE_VSA_FPOS>
0.49786144

>  <PEOE_VSA_FPPOS>
0.16515546

>  <PEOE_VSA_HYD>
178.23978

>  <PEOE_VSA_NEG>
131.7697

>  <PEOE_VSA_PNEG>
40.837654

>  <PEOE_VSA_POL>
84.177261

>  <PEOE_VSA_POS>
130.64732

>  <PEOE_VSA_PPOS>
43.339603

>  <petitjean>
0.5

>  <petitjeanSC>
1

>  <Q_PC+>
0

>  <Q_PC->
0

>  <Q_RPC+>
0

>  <Q_RPC->
0

>  <Q_VSA_FHYD>
1

>  <Q_VSA_FNEG>
0

>  <Q_VSA_FPNEG>
0

>  <Q_VSA_FPOL>
0

>  <Q_VSA_FPOS>
1

>  <Q_VSA_FPPOS>
0

>  <Q_VSA_HYD>
262.41702

>  <Q_VSA_NEG>
0

>  <Q_VSA_PNEG>
0

>  <Q_VSA_POL>
0

>  <Q_VSA_POS>
262.41702

>  <Q_VSA_PPOS>
0

>  <radius>
4

>  <reactive>
0

>  <rings>
2

>  <RPC+>
0

>  <RPC->
0

>  <rsynth>
1

>  <SlogP>
1.0426

>  <SlogP_VSA0>
18.01075

>  <SlogP_VSA1>
18.471838

>  <SlogP_VSA2>
47.724434

>  <SlogP_VSA3>
0

>  <SlogP_VSA4>
3.185575

>  <SlogP_VSA5>
32.897186

>  <SlogP_VSA6>
0

>  <SlogP_VSA7>
88.215919

>  <SlogP_VSA8>
18.868406

>  <SlogP_VSA9>
57.188232

>  <SMR>
6.4719701

>  <SMR_VSA0>
71.586647

>  <SMR_VSA1>
3.1243138

>  <SMR_VSA2>
18.01075

>  <SMR_VSA3>
3.185575

>  <SMR_VSA4>
0

>  <SMR_VSA5>
107.08433

>  <SMR_VSA6>
15.347524

>  <SMR_VSA7>
66.223206

>  <TPSA>
66.480003

>  <VAdjEq>
0.52150291

>  <VAdjMa>
5.2479277

>  <VDistEq>
2.6562865

>  <VDistMa>
8.0948954

>  <vdw_area>
262.41702

>  <vdw_vol>
323.70459

>  <vsa_acc>
40.700764

>  <vsa_acid>
0

>  <vsa_base>
0

>  <vsa_don>
5.6825762

>  <vsa_hyd>
160.36742

>  <vsa_other>
43.339603

>  <vsa_pol>
46.383339

>  <Weight>
246.26599

>  <weinerPath>
526

>  <weinerPol>
35

>  <zagreb>
94

$$$$