OC12C(CC3C(=C1O)C(=O)c1c(cccc1O)C3(O)C)C(N(C)C)C(=O)C(C(=O)NCNCCCCC(N)C(O)=O)=C2O
  MOE2013           2D

 43 46  0  0  1  0  0  0  0  0999 V2000
    0.0000    0.0000    0.0000 O   0  0  0  0  0  0  0  0  0  0  0  0
   -0.7590   -1.2940    0.0000 C   0  0  3  0  0  0  0  0  0  0  0  0
   -1.5180   -2.5870    0.0000 C   0  0  3  0  0  0  0  0  0  0  0  0
   -3.0180   -2.5770    0.0000 C   0  0  0  0  0  0  0  0  0  0  0  0
   -3.7590   -1.2720    0.0000 C   0  0  3  0  0  0  0  0  0  0  0  0
   -3.0000    0.0210    0.0000 C   0  0  0  0  0  0  0  0  0  0  0  0
   -1.5000    0.0110    0.0000 C   0  0  0  0  0  0  0  0  0  0  0  0
   -0.7410    1.3040    0.0000 O   0  0  0  0  0  0  0  0  0  0  0  0
   -3.7410    1.3260    0.0000 C   0  0  0  0  0  0  0  0  0  0  0  0
   -2.9810    2.6190    0.0000 O   0  0  0  0  0  0  0  0  0  0  0  0
   -5.2410    1.3360    0.0000 C   0  0  0  0  0  0  0  0  0  0  0  0
   -6.0000    0.0430    0.0000 C   0  0  0  0  0  0  0  0  0  0  0  0
   -7.5000    0.0530    0.0000 C   0  0  0  0  0  0  0  0  0  0  0  0
   -8.2410    1.3580    0.0000 C   0  0  0  0  0  0  0  0  0  0  0  0
   -7.4810    2.6510    0.0000 C   0  0  0  0  0  0  0  0  0  0  0  0
   -5.9810    2.6410    0.0000 C   0  0  0  0  0  0  0  0  0  0  0  0
   -5.2220    3.9340    0.0000 O   0  0  0  0  0  0  0  0  0  0  0  0
   -5.2590   -1.2620    0.0000 C   0  0  3  0  0  0  0  0  0  0  0  0
   -6.5630   -2.0020    0.0000 O   0  0  0  0  0  0  0  0  0  0  0  0
   -5.2700   -2.7620    0.0000 C   0  0  0  0  0  0  0  0  0  0  0  0
   -0.7780   -3.8920    0.0000 C   0  0  3  0  0  0  0  0  0  0  0  0
   -1.5370   -5.1850    0.0000 N   0  0  0  0  0  0  0  0  0  0  0  0
   -0.7960   -6.4900    0.0000 C   0  0  0  0  0  0  0  0  0  0  0  0
   -3.0370   -5.1750    0.0000 C   0  0  0  0  0  0  0  0  0  0  0  0
    0.7220   -3.9020    0.0000 C   0  0  0  0  0  0  0  0  0  0  0  0
    1.4630   -5.2070    0.0000 O   0  0  0  0  0  0  0  0  0  0  0  0
    1.4820   -2.6090    0.0000 C   0  0  0  0  0  0  0  0  0  0  0  0
    2.9810   -2.6190    0.0000 C   0  0  0  0  0  0  0  0  0  0  0  0
    3.7410   -1.3260    0.0000 O   0  0  0  0  0  0  0  0  0  0  0  0
    3.7220   -3.9240    0.0000 N   0  0  0  0  0  0  0  0  0  0  0  0
    5.2220   -3.9340    0.0000 C   0  0  0  0  0  0  0  0  0  0  0  0
    5.9630   -5.2390    0.0000 N   0  0  0  0  0  0  0  0  0  0  0  0
    7.4630   -5.2490    0.0000 C   0  0  0  0  0  0  0  0  0  0  0  0
    8.2040   -6.5540    0.0000 C   0  0  0  0  0  0  0  0  0  0  0  0
    9.7040   -6.5640    0.0000 C   0  0  0  0  0  0  0  0  0  0  0  0
   10.4440   -7.8690    0.0000 C   0  0  0  0  0  0  0  0  0  0  0  0
   11.9440   -7.8790    0.0000 C   0  0  3  0  0  0  0  0  0  0  0  0
   12.7040   -6.5860    0.0000 N   0  0  0  0  0  0  0  0  0  0  0  0
   12.6850   -9.1840    0.0000 C   0  0  0  0  0  0  0  0  0  0  0  0
   14.1850   -9.1940    0.0000 O   0  0  0  0  0  0  0  0  0  0  0  0
   11.9260  -10.4770    0.0000 O   0  0  0  0  0  0  0  0  0  0  0  0
    0.7410   -1.3040    0.0000 C   0  0  0  0  0  0  0  0  0  0  0  0
    1.5000   -0.0110    0.0000 O   0  0  0  0  0  0  0  0  0  0  0  0
  1  2  1  0  0  0  0
  2  3  1  0  0  0  0
  2  7  1  0  0  0  0
  2 42  1  0  0  0  0
  3  4  1  0  0  0  0
  3 21  1  0  0  0  0
  4  5  1  0  0  0  0
  5  6  1  0  0  0  0
  5 18  1  0  0  0  0
  6  7  2  0  0  0  0
  6  9  1  0  0  0  0
  7  8  1  0  0  0  0
  9 10  2  0  0  0  0
  9 11  1  0  0  0  0
 11 12  1  0  0  0  0
 11 16  2  0  0  0  0
 12 13  2  0  0  0  0
 12 18  1  0  0  0  0
 13 14  1  0  0  0  0
 14 15  2  0  0  0  0
 15 16  1  0  0  0  0
 16 17  1  0  0  0  0
 18 19  1  0  0  0  0
 18 20  1  0  0  0  0
 21 22  1  0  0  0  0
 21 25  1  0  0  0  0
 22 23  1  0  0  0  0
 22 24  1  0  0  0  0
 25 26  2  0  0  0  0
 25 27  1  0  0  0  0
 27 28  1  0  0  0  0
 27 42  2  0  0  0  0
 28 29  2  0  0  0  0
 28 30  1  0  0  0  0
 30 31  1  0  0  0  0
 31 32  1  0  0  0  0
 32 33  1  0  0  0  0
 33 34  1  0  0  0  0
 34 35  1  0  0  0  0
 35 36  1  0  0  0  0
 36 37  1  0  0  0  0
 37 38  1  0  0  0  0
 37 39  1  0  0  0  0
 39 40  1  0  0  0  0
 39 41  2  0  0  0  0
 42 43  1  0  0  0  0
M  END
>  <Index>
644

>  <ID>
HT1260

>  <class>
0

>  <apol>
88.798134

>  <ast_fraglike>
0

>  <ast_fraglike_ext>
0

>  <ast_violation>
3

>  <ast_violation_ext>
5

>  <a_acc>
13

>  <a_acid>
0

>  <a_aro>
6

>  <a_base>
0

>  <a_count>
81

>  <a_don>
12

>  <a_donacc>
25

>  <a_heavy>
43

>  <a_hyd>
24

>  <a_IC>
132.00587

>  <a_ICM>
1.6297022

>  <a_nB>
0

>  <a_nBr>
0

>  <a_nC>
29

>  <a_nCl>
0

>  <a_nF>
0

>  <a_nH>
38

>  <a_nI>
0

>  <a_nN>
4

>  <a_nO>
10

>  <a_nP>
0

>  <a_nS>
0

>  <balabanJ>
1.5127065

>  <BCUT_PEOE_0>
-2.7833138

>  <BCUT_PEOE_1>
-0.57098329

>  <BCUT_PEOE_2>
0.60891873

>  <BCUT_PEOE_3>
2.8346958

>  <BCUT_SLOGP_0>
-2.8575385

>  <BCUT_SLOGP_1>
-0.5903374

>  <BCUT_SLOGP_2>
0.62819374

>  <BCUT_SLOGP_3>
2.8312294

>  <BCUT_SMR_0>
-2.5500383

>  <BCUT_SMR_1>
-0.40636638

>  <BCUT_SMR_2>
0.7346555

>  <BCUT_SMR_3>
3.0642734

>  <bpol>
48.013866

>  <b_1rotN>
10

>  <b_1rotR>
0.2173913

>  <b_ar>
6

>  <b_count>
84

>  <b_double>
6

>  <b_heavy>
46

>  <b_max1len>
10

>  <b_rotN>
11

>  <b_rotR>
0.23913044

>  <b_single>
72

>  <b_triple>
0

>  <chi0>
32.015778

>  <chi0v>
24.124931

>  <chi0v_C>
17.784092

>  <chi0_C>
19.024216

>  <chi1>
20.077051

>  <chi1v>
13.950228

>  <chi1v_C>
8.995471

>  <chi1_C>
10.484617

>  <chiral>
6

>  <chiral_u>
6

>  <density>
0.79478246

>  <diameter>
20

>  <FCharge>
0

>  <GCUT_PEOE_0>
-0.84959108

>  <GCUT_PEOE_1>
-0.42974868

>  <GCUT_PEOE_2>
0.10236327

>  <GCUT_PEOE_3>
3.1971481

>  <GCUT_SLOGP_0>
-1.3635216

>  <GCUT_SLOGP_1>
-0.38533926

>  <GCUT_SLOGP_2>
0.078494839

>  <GCUT_SLOGP_3>
3.1888292

>  <GCUT_SMR_0>
-0.52702409

>  <GCUT_SMR_1>
-0.24086843

>  <GCUT_SMR_2>
0.18297125

>  <GCUT_SMR_3>
3.4333825

>  <Kier1>
35.846882

>  <Kier2>
14.005554

>  <Kier3>
6.459054

>  <KierA1>
29.482239

>  <KierA2>
11.462646

>  <KierA3>
5.2679248

>  <KierFlex>
7.8591738

>  <lip_acc>
14

>  <lip_don>
10

>  <lip_druglike>
0

>  <lip_violation>
3

>  <logP(o/w)>
-2.7297299

>  <logS>
-2.25037

>  <mr>
15.07577

>  <mutagenic>
0

>  <nmol>
1

>  <opr_brigid>
21

>  <opr_leadlike>
0

>  <opr_nring>
4

>  <opr_nrot>
10

>  <opr_violation>
3

>  <PC+>
0

>  <PC->
0

>  <PEOE_PC+>
4.8923006

>  <PEOE_PC->
-4.8923006

>  <PEOE_RPC+>
0.056525335

>  <PEOE_RPC->
0.07840953

>  <PEOE_VSA+0>
91.781647

>  <PEOE_VSA+1>
72.958534

>  <PEOE_VSA+2>
36.524097

>  <PEOE_VSA+3>
25.536053

>  <PEOE_VSA+4>
61.945034

>  <PEOE_VSA+5>
27.65803

>  <PEOE_VSA+6>
0

>  <PEOE_VSA-0>
118.98476

>  <PEOE_VSA-1>
33.211121

>  <PEOE_VSA-2>
0

>  <PEOE_VSA-3>
0

>  <PEOE_VSA-4>
0

>  <PEOE_VSA-5>
54.404575

>  <PEOE_VSA-6>
53.393253

>  <PEOE_VSA_FHYD>
0.65752625

>  <PEOE_VSA_FNEG>
0.451067

>  <PEOE_VSA_FPNEG>
0.18702006

>  <PEOE_VSA_FPOL>
0.34247378

>  <PEOE_VSA_FPOS>
0.54893303

>  <PEOE_VSA_FPPOS>
0.15545371

>  <PEOE_VSA_HYD>
378.99622

>  <PEOE_VSA_NEG>
259.99371

>  <PEOE_VSA_PNEG>
107.79783

>  <PEOE_VSA_POL>
197.40089

>  <PEOE_VSA_POS>
316.40341

>  <PEOE_VSA_PPOS>
89.603065

>  <petitjean>
0.5

>  <petitjeanSC>
1

>  <Q_PC+>
0

>  <Q_PC->
0

>  <Q_RPC+>
0

>  <Q_RPC->
0

>  <Q_VSA_FHYD>
1

>  <Q_VSA_FNEG>
0

>  <Q_VSA_FPNEG>
0

>  <Q_VSA_FPOL>
0

>  <Q_VSA_FPOS>
1

>  <Q_VSA_FPPOS>
0

>  <Q_VSA_HYD>
576.39709

>  <Q_VSA_NEG>
0

>  <Q_VSA_PNEG>
0

>  <Q_VSA_POL>
0

>  <Q_VSA_POS>
576.39709

>  <Q_VSA_PPOS>
0

>  <radius>
10

>  <reactive>
0

>  <rings>
4

>  <RPC+>
0

>  <RPC->
0

>  <rsynth>
0.58139533

>  <SlogP>
-0.1427

>  <SlogP_VSA0>
145.07437

>  <SlogP_VSA1>
27.503784

>  <SlogP_VSA2>
79.550583

>  <SlogP_VSA3>
112.60601

>  <SlogP_VSA4>
39.054958

>  <SlogP_VSA5>
82.652382

>  <SlogP_VSA6>
0

>  <SlogP_VSA7>
52.929554

>  <SlogP_VSA8>
75.473625

>  <SlogP_VSA9>
38.569443

>  <SMR>
15.09381

>  <SMR_VSA0>
95.448868

>  <SMR_VSA1>
79.279991

>  <SMR_VSA2>
120.99877

>  <SMR_VSA3>
36.43652

>  <SMR_VSA4>
32.897186

>  <SMR_VSA5>
128.40317

>  <SMR_VSA6>
60.8298

>  <SMR_VSA7>
99.120392

>  <TPSA>
242.98

>  <VAdjEq>
0.28536221

>  <VAdjMa>
6.523562

>  <VDistEq>
4.0304832

>  <VDistMa>
10.539252

>  <vdw_area>
576.39709

>  <vdw_vol>
758.24646

>  <vsa_acc>
13.566921

>  <vsa_acid>
0

>  <vsa_base>
0

>  <vsa_don>
5.6825762

>  <vsa_hyd>
280.19223

>  <vsa_other>
69.365585

>  <vsa_pol>
164.77686

>  <Weight>
602.64099

>  <weinerPath>
6640

>  <weinerPol>
90

>  <zagreb>
234

$$$$