Clc1ccccc1C1C(=C(OCC)/O)C(=NC(C)=C1C(OC)=O)COCCN
  MOE2013           2D

 28 29  0  0  1  0  0  0  0  0999 V2000
    0.0000    0.0000    0.0000 Cl  0  0  0  0  0  0  0  0  0  0  0  0
    0.7510   -1.2980    0.0000 C   0  0  0  0  0  0  0  0  0  0  0  0
   -0.2120   -2.4480    0.0000 C   0  0  0  0  0  0  0  0  0  0  0  0
    0.3030   -3.8570    0.0000 C   0  0  0  0  0  0  0  0  0  0  0  0
    1.7800   -4.1160    0.0000 C   0  0  0  0  0  0  0  0  0  0  0  0
    2.7430   -2.9660    0.0000 C   0  0  0  0  0  0  0  0  0  0  0  0
    2.2290   -1.5570    0.0000 C   0  0  0  0  0  0  0  0  0  0  0  0
    3.3770   -0.5920    0.0000 C   0  0  3  0  0  0  0  0  0  0  0  0
    4.7870   -1.1040    0.0000 C   0  0  0  0  0  0  0  0  0  0  0  0
    5.0490   -2.5810    0.0000 C   0  0  0  0  0  0  0  0  0  0  0  0
    6.4590   -3.0920    0.0000 O   0  0  0  0  0  0  0  0  0  0  0  0
    6.7210   -4.5690    0.0000 C   0  0  0  0  0  0  0  0  0  0  0  0
    8.1310   -5.0810    0.0000 C   0  0  0  0  0  0  0  0  0  0  0  0
    3.9010   -3.5460    0.0000 O   0  0  0  0  0  0  0  0  0  0  0  0
    5.9350   -0.1380    0.0000 C   0  0  0  0  0  0  0  0  0  0  0  0
    5.6730    1.3380    0.0000 N   0  0  0  0  0  0  0  0  0  0  0  0
    4.2630    1.8500    0.0000 C   0  0  0  0  0  0  0  0  0  0  0  0
    4.0010    3.3270    0.0000 C   0  0  0  0  0  0  0  0  0  0  0  0
    3.1150    0.8850    0.0000 C   0  0  0  0  0  0  0  0  0  0  0  0
    1.8150    1.6340    0.0000 C   0  0  0  0  0  0  0  0  0  0  0  0
    1.8140    3.1340    0.0000 O   0  0  0  0  0  0  0  0  0  0  0  0
    0.5140    3.8820    0.0000 C   0  0  0  0  0  0  0  0  0  0  0  0
    0.5170    0.8820    0.0000 O   0  0  0  0  0  0  0  0  0  0  0  0
    7.3450   -0.6500    0.0000 C   0  0  0  0  0  0  0  0  0  0  0  0
    8.4930    0.3150    0.0000 O   0  0  0  0  0  0  0  0  0  0  0  0
    9.9030   -0.1970    0.0000 C   0  0  0  0  0  0  0  0  0  0  0  0
   11.0510    0.7690    0.0000 C   0  0  0  0  0  0  0  0  0  0  0  0
   12.4610    0.2570    0.0000 N   0  0  0  0  0  0  0  0  0  0  0  0
  1  2  1  0  0  0  0
  2  3  1  0  0  0  0
  2  7  2  0  0  0  0
  3  4  2  0  0  0  0
  4  5  1  0  0  0  0
  5  6  2  0  0  0  0
  6  7  1  0  0  0  0
  7  8  1  0  0  0  0
  8  9  1  0  0  0  0
  8 19  1  0  0  0  0
  9 10  2  3  0  0  0
  9 15  1  0  0  0  0
 10 11  1  0  0  0  0
 10 14  1  0  0  0  0
 11 12  1  0  0  0  0
 12 13  1  0  0  0  0
 15 16  2  0  0  0  0
 15 24  1  0  0  0  0
 16 17  1  0  0  0  0
 17 18  1  0  0  0  0
 17 19  2  0  0  0  0
 19 20  1  0  0  0  0
 20 21  1  0  0  0  0
 20 23  2  0  0  0  0
 21 22  1  0  0  0  0
 24 25  1  0  0  0  0
 25 26  1  0  0  0  0
 26 27  1  0  0  0  0
 27 28  1  0  0  0  0
M  END
>  <Index>
69

>  <ID>
HT0143

>  <class>
0

>  <apol>
60.259827

>  <ast_fraglike>
0

>  <ast_fraglike_ext>
0

>  <ast_violation>
3

>  <ast_violation_ext>
4

>  <a_acc>
6

>  <a_acid>
0

>  <a_aro>
6

>  <a_base>
0

>  <a_count>
53

>  <a_don>
2

>  <a_donacc>
8

>  <a_heavy>
28

>  <a_hyd>
18

>  <a_IC>
87.435181

>  <a_ICM>
1.6497203

>  <a_nB>
0

>  <a_nBr>
0

>  <a_nC>
20

>  <a_nCl>
1

>  <a_nF>
0

>  <a_nH>
25

>  <a_nI>
0

>  <a_nN>
2

>  <a_nO>
5

>  <a_nP>
0

>  <a_nS>
0

>  <balabanJ>
2.3858013

>  <BCUT_PEOE_0>
-2.516933

>  <BCUT_PEOE_1>
-0.50270832

>  <BCUT_PEOE_2>
0.53900033

>  <BCUT_PEOE_3>
2.5353291

>  <BCUT_SLOGP_0>
-2.7082143

>  <BCUT_SLOGP_1>
-0.40020224

>  <BCUT_SLOGP_2>
0.61828315

>  <BCUT_SLOGP_3>
2.5795197

>  <BCUT_SMR_0>
-2.2517686

>  <BCUT_SMR_1>
-0.31484872

>  <BCUT_SMR_2>
0.69659537

>  <BCUT_SMR_3>
2.8116834

>  <bpol>
35.116177

>  <b_1rotN>
8

>  <b_1rotR>
0.27586207

>  <b_ar>
6

>  <b_count>
54

>  <b_double>
4

>  <b_heavy>
29

>  <b_max1len>
6

>  <b_rotN>
9

>  <b_rotR>
0.31034482

>  <b_single>
44

>  <b_triple>
0

>  <chi0>
20.681435

>  <chi0v>
16.953842

>  <chi0v_C>
12.715178

>  <chi0_C>
13.853006

>  <chi1>
13.455126

>  <chi1v>
9.2866974

>  <chi1v_C>
5.7540359

>  <chi1_C>
7.1758685

>  <chiral>
1

>  <chiral_u>
1

>  <density>
0.77595055

>  <diameter>
11

>  <FCharge>
0

>  <GCUT_PEOE_0>
-0.83259887

>  <GCUT_PEOE_1>
-0.41297552

>  <GCUT_PEOE_2>
0.019864535

>  <GCUT_PEOE_3>
2.7433684

>  <GCUT_SLOGP_0>
-1.3632259

>  <GCUT_SLOGP_1>
-0.26327017

>  <GCUT_SLOGP_2>
0.11181998

>  <GCUT_SLOGP_3>
2.80393

>  <GCUT_SMR_0>
-0.51525998

>  <GCUT_SMR_1>
-0.16249084

>  <GCUT_SMR_2>
0.15889655

>  <GCUT_SMR_3>
3.0148101

>  <Kier1>
24.271107

>  <Kier2>
12

>  <Kier3>
6.016376

>  <KierA1>
20.622746

>  <KierA2>
10.131476

>  <KierA3>
5.0566015

>  <KierFlex>
7.4621029

>  <lip_acc>
7

>  <lip_don>
3

>  <lip_druglike>
1

>  <lip_violation>
0

>  <logP(o/w)>
2.3640001

>  <logS>
-4.02773

>  <mr>
10.826756

>  <mutagenic>
0

>  <nmol>
1

>  <opr_brigid>
13

>  <opr_leadlike>
1

>  <opr_nring>
2

>  <opr_nrot>
8

>  <opr_violation>
0

>  <PC+>
0

>  <PC->
0

>  <PEOE_PC+>
2.5769992

>  <PEOE_PC->
-2.5769992

>  <PEOE_RPC+>
0.11337721

>  <PEOE_RPC->
0.14451592

>  <PEOE_VSA+0>
90.006294

>  <PEOE_VSA+1>
109.21199

>  <PEOE_VSA+2>
17.238026

>  <PEOE_VSA+3>
14.708499

>  <PEOE_VSA+4>
10.324173

>  <PEOE_VSA+5>
14.708499

>  <PEOE_VSA+6>
0

>  <PEOE_VSA-0>
51.958797

>  <PEOE_VSA-1>
66.346657

>  <PEOE_VSA-2>
0

>  <PEOE_VSA-3>
0

>  <PEOE_VSA-4>
0

>  <PEOE_VSA-5>
19.249496

>  <PEOE_VSA-6>
21.929928

>  <PEOE_VSA_FHYD>
0.84071469

>  <PEOE_VSA_FNEG>
0.38367006

>  <PEOE_VSA_FPNEG>
0.099064641

>  <PEOE_VSA_FPOL>
0.15928532

>  <PEOE_VSA_FPOS>
0.61632991

>  <PEOE_VSA_FPPOS>
0.060220674

>  <PEOE_VSA_HYD>
349.47028

>  <PEOE_VSA_NEG>
159.48488

>  <PEOE_VSA_PNEG>
41.179424

>  <PEOE_VSA_POL>
66.212097

>  <PEOE_VSA_POS>
256.19748

>  <PEOE_VSA_PPOS>
25.032671

>  <petitjean>
0.45454547

>  <petitjeanSC>
0.83333331

>  <Q_PC+>
0

>  <Q_PC->
0

>  <Q_RPC+>
0

>  <Q_RPC->
0

>  <Q_VSA_FHYD>
1

>  <Q_VSA_FNEG>
0

>  <Q_VSA_FPNEG>
0

>  <Q_VSA_FPOL>
0

>  <Q_VSA_FPOS>
1

>  <Q_VSA_FPPOS>
0

>  <Q_VSA_HYD>
415.68237

>  <Q_VSA_NEG>
0

>  <Q_VSA_PNEG>
0

>  <Q_VSA_POL>
0

>  <Q_VSA_POS>
415.68237

>  <Q_VSA_PPOS>
0

>  <radius>
6

>  <reactive>
1

>  <rings>
2

>  <RPC+>
0

>  <RPC->
0

>  <rsynth>
1

>  <SlogP>
3.1066

>  <SlogP_VSA0>
32.897186

>  <SlogP_VSA1>
10.502212

>  <SlogP_VSA2>
56.861881

>  <SlogP_VSA3>
106.60358

>  <SlogP_VSA4>
3.185575

>  <SlogP_VSA5>
68.598579

>  <SlogP_VSA6>
7.9114027

>  <SlogP_VSA7>
70.572739

>  <SlogP_VSA8>
0

>  <SlogP_VSA9>
105.80067

>  <SMR>
10.74982

>  <SMR_VSA0>
56.861881

>  <SMR_VSA1>
16.78553

>  <SMR_VSA2>
25.385227

>  <SMR_VSA3>
27.526155

>  <SMR_VSA4>
32.897186

>  <SMR_VSA5>
70.572739

>  <SMR_VSA6>
91.720566

>  <SMR_VSA7>
141.18454

>  <TPSA>
103.37

>  <VAdjEq>
0.38060221

>  <VAdjMa>
5.8579812

>  <VDistEq>
3.1808465

>  <VDistMa>
9.3889141

>  <vdw_area>
415.68237

>  <vdw_vol>
526.94336

>  <vsa_acc>
24.25701

>  <vsa_acid>
0

>  <vsa_base>
0

>  <vsa_don>
0

>  <vsa_hyd>
293.81964

>  <vsa_other>
38.620304

>  <vsa_pol>
55.566422

>  <Weight>
408.88199

>  <weinerPath>
1836

>  <weinerPol>
47

>  <zagreb>
136

$$$$