Sc1nccn1C
  MOE2013           2D

  7  7  0  0  0  0  0  0  0  0999 V2000
    0.0000    0.0000    0.0000 S   0  0  0  0  0  0  0  0  0  0  0  0
    1.2140    0.8820    0.0000 C   0  0  0  0  0  0  0  0  0  0  0  0
    2.6400    0.4180    0.0000 N   0  0  0  0  0  0  0  0  0  0  0  0
    3.5220    1.6320    0.0000 C   0  0  0  0  0  0  0  0  0  0  0  0
    2.6400    2.8450    0.0000 C   0  0  0  0  0  0  0  0  0  0  0  0
    1.2140    2.3820    0.0000 N   0  0  0  0  0  0  0  0  0  0  0  0
    0.0000    3.2630    0.0000 C   0  0  0  0  0  0  0  0  0  0  0  0
  1  2  1  0  0  0  0
  2  3  2  0  0  0  0
  2  6  1  0  0  0  0
  3  4  1  0  0  0  0
  4  5  2  0  0  0  0
  5  6  1  0  0  0  0
  6  7  1  0  0  0  0
M  END
>  <Index>
687

>  <ID>
HT1343

>  <class>
0

>  <apol>
16.140759

>  <ast_fraglike>
1

>  <ast_fraglike_ext>
1

>  <ast_violation>
0

>  <ast_violation_ext>
0

>  <a_acc>
1

>  <a_acid>
0

>  <a_aro>
5

>  <a_base>
0

>  <a_count>
13

>  <a_don>
0

>  <a_donacc>
1

>  <a_heavy>
7

>  <a_hyd>
3

>  <a_IC>
22.595942

>  <a_ICM>
1.7381493

>  <a_nB>
0

>  <a_nBr>
0

>  <a_nC>
4

>  <a_nCl>
0

>  <a_nF>
0

>  <a_nH>
6

>  <a_nI>
0

>  <a_nN>
2

>  <a_nO>
0

>  <a_nP>
0

>  <a_nS>
1

>  <balabanJ>
2.4003551

>  <BCUT_PEOE_0>
-2.2379875

>  <BCUT_PEOE_1>
-0.41355386

>  <BCUT_PEOE_2>
0.57415777

>  <BCUT_PEOE_3>
2.2034965

>  <BCUT_SLOGP_0>
-2.1333926

>  <BCUT_SLOGP_1>
-0.42074001

>  <BCUT_SLOGP_2>
0.55162132

>  <BCUT_SLOGP_3>
2.3255701

>  <BCUT_SMR_0>
-1.9521163

>  <BCUT_SMR_1>
-0.26784945

>  <BCUT_SMR_2>
0.8048268

>  <BCUT_SMR_3>
2.5058475

>  <bpol>
12.139242

>  <b_1rotN>
0

>  <b_1rotR>
0

>  <b_ar>
5

>  <b_count>
13

>  <b_double>
0

>  <b_heavy>
7

>  <b_max1len>
2

>  <b_rotN>
0

>  <b_rotR>
0

>  <b_single>
8

>  <b_triple>
0

>  <chi0>
5.276021

>  <chi0v>
4.8907685

>  <chi0v_C>
2.6547005

>  <chi0_C>
2.9915638

>  <chi1>
3.3045304

>  <chi1v>
2.4149787

>  <chi1v_C>
0.33333334

>  <chi1_C>
0.5

>  <chiral>
0

>  <chiral_u>
0

>  <density>
0.81266457

>  <diameter>
3

>  <FCharge>
0

>  <GCUT_PEOE_0>
-0.84784317

>  <GCUT_PEOE_1>
-0.32979408

>  <GCUT_PEOE_2>
0.077897981

>  <GCUT_PEOE_3>
1.8507032

>  <GCUT_SLOGP_0>
-0.80174971

>  <GCUT_SLOGP_1>
-0.28913447

>  <GCUT_SLOGP_2>
0.085905209

>  <GCUT_SLOGP_3>
1.9640285

>  <GCUT_SMR_0>
-0.48827037

>  <GCUT_SMR_1>
-0.096508779

>  <GCUT_SMR_2>
0.25904185

>  <GCUT_SMR_3>
2.1517045

>  <Kier1>
5.1428571

>  <Kier2>
1.8518518

>  <Kier3>
0.95999998

>  <KierA1>
4.5998559

>  <KierA2>
1.620793

>  <KierA3>
0.82008433

>  <KierFlex>
1.0650591

>  <lip_acc>
2

>  <lip_don>
0

>  <lip_druglike>
1

>  <lip_violation>
0

>  <logP(o/w)>
0.88800001

>  <logS>
-1.50283

>  <mr>
3.1711841

>  <mutagenic>
0

>  <nmol>
1

>  <opr_brigid>
5

>  <opr_leadlike>
1

>  <opr_nring>
1

>  <opr_nrot>
0

>  <opr_violation>
0

>  <PC+>
0

>  <PC->
0

>  <PEOE_PC+>
0.66444522

>  <PEOE_PC->
-0.66444522

>  <PEOE_RPC+>
0.24919711

>  <PEOE_RPC->
0.49487951

>  <PEOE_VSA+0>
69.52668

>  <PEOE_VSA+1>
8.5307722

>  <PEOE_VSA+2>
7.7810974

>  <PEOE_VSA+3>
13.166624

>  <PEOE_VSA+4>
0

>  <PEOE_VSA+5>
0

>  <PEOE_VSA+6>
0

>  <PEOE_VSA-0>
0

>  <PEOE_VSA-1>
0

>  <PEOE_VSA-2>
26.362989

>  <PEOE_VSA-3>
0

>  <PEOE_VSA-4>
5.6825762

>  <PEOE_VSA-5>
0

>  <PEOE_VSA-6>
0

>  <PEOE_VSA_FHYD>
0.95663834

>  <PEOE_VSA_FNEG>
0.24452792

>  <PEOE_VSA_FPNEG>
0.043361649

>  <PEOE_VSA_FPOL>
0.043361649

>  <PEOE_VSA_FPOS>
0.75547206

>  <PEOE_VSA_FPPOS>
0

>  <PEOE_VSA_HYD>
125.36816

>  <PEOE_VSA_NEG>
32.045567

>  <PEOE_VSA_PNEG>
5.6825762

>  <PEOE_VSA_POL>
5.6825762

>  <PEOE_VSA_POS>
99.005173

>  <PEOE_VSA_PPOS>
0

>  <petitjean>
0.33333334

>  <petitjeanSC>
0.5

>  <Q_PC+>
0

>  <Q_PC->
0

>  <Q_RPC+>
0

>  <Q_RPC->
0

>  <Q_VSA_FHYD>
1

>  <Q_VSA_FNEG>
0

>  <Q_VSA_FPNEG>
0

>  <Q_VSA_FPOL>
0

>  <Q_VSA_FPOS>
1

>  <Q_VSA_FPPOS>
0

>  <Q_VSA_HYD>
131.05074

>  <Q_VSA_NEG>
0

>  <Q_VSA_PNEG>
0

>  <Q_VSA_POL>
0

>  <Q_VSA_POS>
131.05074

>  <Q_VSA_PPOS>
0

>  <radius>
2

>  <reactive>
1

>  <rings>
1

>  <RPC+>
0

>  <RPC->
0

>  <rsynth>
1

>  <SlogP>
1.068

>  <SlogP_VSA0>
0

>  <SlogP_VSA1>
18.684622

>  <SlogP_VSA2>
0

>  <SlogP_VSA3>
0

>  <SlogP_VSA4>
0

>  <SlogP_VSA5>
0.69307917

>  <SlogP_VSA6>
0

>  <SlogP_VSA7>
34.428715

>  <SlogP_VSA8>
46.107109

>  <SlogP_VSA9>
32.897186

>  <SMR>
3.0741999

>  <SMR_VSA0>
0

>  <SMR_VSA1>
18.684622

>  <SMR_VSA2>
0.69307917

>  <SMR_VSA3>
0

>  <SMR_VSA4>
0

>  <SMR_VSA5>
34.428715

>  <SMR_VSA6>
0

>  <SMR_VSA7>
79.004295

>  <TPSA>
56.619999

>  <VAdjEq>
0.86312056

>  <VAdjMa>
3.8073549

>  <VDistEq>
1.5451531

>  <VDistMa>
5.2775674

>  <vdw_area>
131.05074

>  <vdw_vol>
140.49092

>  <vsa_acc>
5.6825762

>  <vsa_acid>
0

>  <vsa_base>
0

>  <vsa_don>
0

>  <vsa_hyd>
74.498474

>  <vsa_other>
44.551136

>  <vsa_pol>
5.6825762

>  <Weight>
114.172

>  <weinerPath>
40

>  <weinerPol>
5

>  <zagreb>
32

$$$$