OC(=O)C(N)CCCCN
  MOE2013           2D

 10  9  0  0  1  0  0  0  0  0999 V2000
    0.0000    0.0000    0.0000 O   0  0  0  0  0  0  0  0  0  0  0  0
    1.2940   -0.7580    0.0000 C   0  0  0  0  0  0  0  0  0  0  0  0
    1.2840   -2.2580    0.0000 O   0  0  0  0  0  0  0  0  0  0  0  0
    2.5980   -0.0170    0.0000 C   0  0  3  0  0  0  0  0  0  0  0  0
    2.6080    1.4830    0.0000 N   0  0  0  0  0  0  0  0  0  0  0  0
    3.8920   -0.7760    0.0000 C   0  0  0  0  0  0  0  0  0  0  0  0
    5.1960   -0.0340    0.0000 C   0  0  0  0  0  0  0  0  0  0  0  0
    6.4900   -0.7930    0.0000 C   0  0  0  0  0  0  0  0  0  0  0  0
    7.7940   -0.0510    0.0000 C   0  0  0  0  0  0  0  0  0  0  0  0
    9.0880   -0.8100    0.0000 N   0  0  0  0  0  0  0  0  0  0  0  0
  1  2  1  0  0  0  0
  2  3  2  0  0  0  0
  2  4  1  0  0  0  0
  4  5  1  0  0  0  0
  4  6  1  0  0  0  0
  6  7  1  0  0  0  0
  7  8  1  0  0  0  0
  8  9  1  0  0  0  0
  9 10  1  0  0  0  0
M  END
>  <Index>
624

>  <ID>
HT1224

>  <class>
0

>  <apol>
23.699102

>  <ast_fraglike>
0

>  <ast_fraglike_ext>
0

>  <ast_violation>
2

>  <ast_violation_ext>
4

>  <a_acc>
4

>  <a_acid>
0

>  <a_aro>
0

>  <a_base>
0

>  <a_count>
24

>  <a_don>
4

>  <a_donacc>
8

>  <a_heavy>
10

>  <a_hyd>
5

>  <a_IC>
37.226357

>  <a_ICM>
1.5510982

>  <a_nB>
0

>  <a_nBr>
0

>  <a_nC>
6

>  <a_nCl>
0

>  <a_nF>
0

>  <a_nH>
14

>  <a_nI>
0

>  <a_nN>
2

>  <a_nO>
2

>  <a_nP>
0

>  <a_nS>
0

>  <balabanJ>
3.1423776

>  <BCUT_PEOE_0>
-2.6463919

>  <BCUT_PEOE_1>
-0.53762436

>  <BCUT_PEOE_2>
0.51847982

>  <BCUT_PEOE_3>
2.6172996

>  <BCUT_SLOGP_0>
-2.7516491

>  <BCUT_SLOGP_1>
-0.49717227

>  <BCUT_SLOGP_2>
0.50044692

>  <BCUT_SLOGP_3>
2.6652889

>  <BCUT_SMR_0>
-2.3988593

>  <BCUT_SMR_1>
-0.37065524

>  <BCUT_SMR_2>
0.63537562

>  <BCUT_SMR_3>
2.8591988

>  <bpol>
14.942898

>  <b_1rotN>
5

>  <b_1rotR>
0.55555558

>  <b_ar>
0

>  <b_count>
23

>  <b_double>
1

>  <b_heavy>
9

>  <b_max1len>
8

>  <b_rotN>
5

>  <b_rotR>
0.55555558

>  <b_single>
22

>  <b_triple>
0

>  <chi0>
7.9831276

>  <chi0v>
5.9159398

>  <chi0v_C>
3.9057775

>  <chi0_C>
3.9831276

>  <chi1>
4.6807394

>  <chi1v>
3.366236

>  <chi1v_C>
2.1969235

>  <chi1_C>
2.2415817

>  <chiral>
1

>  <chiral_u>
1

>  <density>
0.73272729

>  <diameter>
7

>  <FCharge>
0

>  <GCUT_PEOE_0>
-0.841488

>  <GCUT_PEOE_1>
-0.39197028

>  <GCUT_PEOE_2>
0.081961595

>  <GCUT_PEOE_3>
2.2848842

>  <GCUT_SLOGP_0>
-1.3651519

>  <GCUT_SLOGP_1>
-0.33987236

>  <GCUT_SLOGP_2>
0.10742851

>  <GCUT_SLOGP_3>
2.2864776

>  <GCUT_SMR_0>
-0.52685475

>  <GCUT_SMR_1>
-0.22987375

>  <GCUT_SMR_2>
0.17850201

>  <GCUT_SMR_3>
2.499706

>  <Kier1>
10

>  <Kier2>
5.7600002

>  <Kier3>
5.5308642

>  <KierA1>
9.0641108

>  <KierA2>
5.1582298

>  <KierA3>
4.9042344

>  <KierFlex>
4.675477

>  <lip_acc>
4

>  <lip_don>
5

>  <lip_druglike>
1

>  <lip_violation>
0

>  <logP(o/w)>
-2.98873

>  <logS>
0.42559001

>  <mr>
3.8527637

>  <mutagenic>
0

>  <nmol>
1

>  <opr_brigid>
0

>  <opr_leadlike>
1

>  <opr_nring>
0

>  <opr_nrot>
5

>  <opr_violation>
0

>  <PC+>
0

>  <PC->
0

>  <PEOE_PC+>
1.3687935

>  <PEOE_PC->
-1.3687935

>  <PEOE_RPC+>
0.20203115

>  <PEOE_RPC->
0.24115928

>  <PEOE_VSA+0>
34.123089

>  <PEOE_VSA+1>
7.4113464

>  <PEOE_VSA+2>
34.476051

>  <PEOE_VSA+3>
0

>  <PEOE_VSA+4>
10.324173

>  <PEOE_VSA+5>
14.708499

>  <PEOE_VSA+6>
0

>  <PEOE_VSA-0>
30.594952

>  <PEOE_VSA-1>
8.701313

>  <PEOE_VSA-2>
0

>  <PEOE_VSA-3>
0

>  <PEOE_VSA-4>
0

>  <PEOE_VSA-5>
13.566921

>  <PEOE_VSA-6>
21.069778

>  <PEOE_VSA_FHYD>
0.65898561

>  <PEOE_VSA_FNEG>
0.42253172

>  <PEOE_VSA_FPNEG>
0.197951

>  <PEOE_VSA_FPOL>
0.34101436

>  <PEOE_VSA_FPOS>
0.57746828

>  <PEOE_VSA_FPPOS>
0.14306337

>  <PEOE_VSA_HYD>
115.30675

>  <PEOE_VSA_NEG>
73.932968

>  <PEOE_VSA_PNEG>
34.6367

>  <PEOE_VSA_POL>
59.669373

>  <PEOE_VSA_POS>
101.04316

>  <PEOE_VSA_PPOS>
25.032671

>  <petitjean>
0.42857143

>  <petitjeanSC>
0.75

>  <Q_PC+>
0

>  <Q_PC->
0

>  <Q_RPC+>
0

>  <Q_RPC->
0

>  <Q_VSA_FHYD>
1

>  <Q_VSA_FNEG>
0

>  <Q_VSA_FPNEG>
0

>  <Q_VSA_FPOL>
0

>  <Q_VSA_FPOS>
1

>  <Q_VSA_FPPOS>
0

>  <Q_VSA_HYD>
174.97612

>  <Q_VSA_NEG>
0

>  <Q_VSA_PNEG>
0

>  <Q_VSA_POL>
0

>  <Q_VSA_POS>
174.97612

>  <Q_VSA_PPOS>
0

>  <radius>
4

>  <reactive>
0

>  <rings>
0

>  <RPC+>
0

>  <RPC->
0

>  <rsynth>
1

>  <SlogP>
-0.4727

>  <SlogP_VSA0>
65.794373

>  <SlogP_VSA1>
7.7454643

>  <SlogP_VSA2>
27.844185

>  <SlogP_VSA3>
43.824806

>  <SlogP_VSA4>
0

>  <SlogP_VSA5>
0

>  <SlogP_VSA6>
0

>  <SlogP_VSA7>
0

>  <SlogP_VSA8>
56.605217

>  <SlogP_VSA9>
0

>  <SMR>
3.85166

>  <SMR_VSA0>
23.862217

>  <SMR_VSA1>
0

>  <SMR_VSA2>
25.385227

>  <SMR_VSA3>
3.9819686

>  <SMR_VSA4>
65.794373

>  <SMR_VSA5>
56.605217

>  <SMR_VSA6>
26.185041

>  <SMR_VSA7>
0

>  <TPSA>
89.339996

>  <VAdjEq>
0.68007702

>  <VAdjMa>
4.1699252

>  <VDistEq>
2.6608009

>  <VDistMa>
6.2704711

>  <vdw_area>
174.97612

>  <vdw_vol>
199.51488

>  <vsa_acc>
0

>  <vsa_acid>
0

>  <vsa_base>
0

>  <vsa_don>
0

>  <vsa_hyd>
74.424538

>  <vsa_other>
14.708499

>  <vsa_pol>
62.61882

>  <Weight>
146.19

>  <weinerPath>
143

>  <weinerPol>
9

>  <zagreb>
38

$$$$