N(C)[C@@]1([C@@H]2CC[C@@H](C2)C1(C)C)C
  MOE2013           2D

 12 13  0  0  1  0  0  0  0  0999 V2000
    0.0000    0.0000    0.0000 N   0  0  0  0  0  0  0  0  0  0  0  0
    1.5000    0.0090    0.0000 C   0  0  0  0  0  0  0  0  0  0  0  0
   -0.7430   -1.3030    0.0000 C   0  0  2  0  0  0  0  0  0  0  0  0
   -2.1790   -0.7660    0.0000 C   0  0  2  0  0  0  0  0  0  0  0  0
   -3.1040   -1.6860    0.0000 C   0  0  0  0  0  0  0  0  0  0  0  0
   -3.5160   -2.8720    0.0000 C   0  0  0  0  0  0  0  0  0  0  0  0
   -2.3590   -2.0100    0.0000 C   0  0  1  0  0  0  0  0  0  0  0  0
   -2.6700    0.5270    0.0000 C   0  0  0  0  0  0  0  0  0  0  0  0
   -1.0500   -2.4180    0.0000 C   0  0  0  0  0  0  0  0  0  0  0  0
    0.2610   -3.1470    0.0000 C   0  0  0  0  0  0  0  0  0  0  0  0
   -1.2160   -3.9090    0.0000 C   0  0  0  0  0  0  0  0  0  0  0  0
    0.7500   -1.4540    0.0000 C   0  0  0  0  0  0  0  0  0  0  0  0
  1  2  1  0  0  0  0
  3  1  1  1  0  0  0
  3  4  1  0  0  0  0
  3  9  1  0  0  0  0
  3 12  1  6  0  0  0
  4  5  1  6  0  0  0
  4  8  1  0  0  0  0
  5  6  1  0  0  0  0
  7  6  1  1  0  0  0
  7  8  1  0  0  0  0
  7  9  1  0  0  0  0
  9 10  1  0  0  0  0
  9 11  1  0  0  0  0
M  END
>  <Index>
656

>  <ID>
HT1280

>  <class>
0

>  <apol>
34.462654

>  <ast_fraglike>
1

>  <ast_fraglike_ext>
1

>  <ast_violation>
0

>  <ast_violation_ext>
0

>  <a_acc>
1

>  <a_acid>
0

>  <a_aro>
0

>  <a_base>
0

>  <a_count>
33

>  <a_don>
1

>  <a_donacc>
2

>  <a_heavy>
12

>  <a_hyd>
11

>  <a_IC>
36.172592

>  <a_ICM>
1.0961392

>  <a_nB>
0

>  <a_nBr>
0

>  <a_nC>
11

>  <a_nCl>
0

>  <a_nF>
0

>  <a_nH>
21

>  <a_nI>
0

>  <a_nN>
1

>  <a_nO>
0

>  <a_nP>
0

>  <a_nS>
0

>  <balabanJ>
2.3449597

>  <BCUT_PEOE_0>
-2.8296928

>  <BCUT_PEOE_1>
-0.078802615

>  <BCUT_PEOE_2>
0.13580425

>  <BCUT_PEOE_3>
2.9534221

>  <BCUT_SLOGP_0>
-2.8612688

>  <BCUT_SLOGP_1>
-0.0025995786

>  <BCUT_SLOGP_2>
0.20673662

>  <BCUT_SLOGP_3>
3.0138464

>  <BCUT_SMR_0>
-2.5671852

>  <BCUT_SMR_1>
0.017512748

>  <BCUT_SMR_2>
0.21912508

>  <BCUT_SMR_3>
3.2130756

>  <bpol>
23.617348

>  <b_1rotN>
1

>  <b_1rotR>
0.07692308

>  <b_ar>
0

>  <b_count>
34

>  <b_double>
0

>  <b_heavy>
13

>  <b_max1len>
5

>  <b_rotN>
1

>  <b_rotR>
0.07692308

>  <b_single>
34

>  <b_triple>
0

>  <chi0>
8.9831276

>  <chi0v>
8.776021

>  <chi0v_C>
8.276021

>  <chi0_C>
8.276021

>  <chi1>
5.5210037

>  <chi1v>
5.2103434

>  <chi1v_C>
4.4603434

>  <chi1_C>
4.4603434

>  <chiral>
3

>  <chiral_u>
0

>  <density>
0.61707342

>  <diameter>
5

>  <FCharge>
0

>  <GCUT_PEOE_0>
-0.84953189

>  <GCUT_PEOE_1>
-0.20300363

>  <GCUT_PEOE_2>
-0.10655995

>  <GCUT_PEOE_3>
2.916312

>  <GCUT_SLOGP_0>
-1.1535141

>  <GCUT_SLOGP_1>
-0.1286521

>  <GCUT_SLOGP_2>
-0.037

>  <GCUT_SLOGP_3>
2.9772239

>  <GCUT_SMR_0>
-0.54096723

>  <GCUT_SMR_1>
-0.096087858

>  <GCUT_SMR_2>
-0.023601752

>  <GCUT_SMR_3>
3.1437562

>  <Kier1>
8.5917158

>  <Kier2>
2.2727273

>  <Kier3>
0.82644629

>  <KierA1>
8.5917158

>  <KierA2>
2.2727273

>  <KierA3>
0.82644629

>  <KierFlex>
1.627219

>  <lip_acc>
1

>  <lip_don>
1

>  <lip_druglike>
1

>  <lip_violation>
0

>  <logP(o/w)>
2.822

>  <logS>
-1.6591001

>  <mr>
5.1042209

>  <mutagenic>
0

>  <nmol>
1

>  <opr_brigid>
8

>  <opr_leadlike>
1

>  <opr_nring>
2

>  <opr_nrot>
3

>  <opr_violation>
0

>  <PC+>
0

>  <PC->
0

>  <PEOE_PC+>
0.70273733

>  <PEOE_PC->
-0.70273733

>  <PEOE_RPC+>
0.17385134

>  <PEOE_RPC->
0.44541788

>  <PEOE_VSA+0>
85.307716

>  <PEOE_VSA+1>
0

>  <PEOE_VSA+2>
8.6190128

>  <PEOE_VSA+3>
0

>  <PEOE_VSA+4>
0

>  <PEOE_VSA+5>
0

>  <PEOE_VSA+6>
0

>  <PEOE_VSA-0>
68.090309

>  <PEOE_VSA-1>
37.495354

>  <PEOE_VSA-2>
0

>  <PEOE_VSA-3>
0

>  <PEOE_VSA-4>
0

>  <PEOE_VSA-5>
0

>  <PEOE_VSA-6>
0.13689101

>  <PEOE_VSA_FHYD>
0.99931437

>  <PEOE_VSA_FNEG>
0.52954137

>  <PEOE_VSA_FPNEG>
0.00068565737

>  <PEOE_VSA_FPOL>
0.00068565737

>  <PEOE_VSA_FPOS>
0.47045866

>  <PEOE_VSA_FPPOS>
0

>  <PEOE_VSA_HYD>
199.51239

>  <PEOE_VSA_NEG>
105.72255

>  <PEOE_VSA_PNEG>
0.13689101

>  <PEOE_VSA_POL>
0.13689101

>  <PEOE_VSA_POS>
93.926735

>  <PEOE_VSA_PPOS>
0

>  <petitjean>
0.40000001

>  <petitjeanSC>
0.66666669

>  <Q_PC+>
0

>  <Q_PC->
0

>  <Q_RPC+>
0

>  <Q_RPC->
0

>  <Q_VSA_FHYD>
1

>  <Q_VSA_FNEG>
0

>  <Q_VSA_FPNEG>
0

>  <Q_VSA_FPOL>
0

>  <Q_VSA_FPOS>
1

>  <Q_VSA_FPPOS>
0

>  <Q_VSA_HYD>
199.64929

>  <Q_VSA_NEG>
0

>  <Q_VSA_PNEG>
0

>  <Q_VSA_POL>
0

>  <Q_VSA_POS>
199.64929

>  <Q_VSA_PPOS>
0

>  <radius>
3

>  <reactive>
0

>  <rings>
2

>  <RPC+>
0

>  <RPC->
0

>  <rsynth>
0

>  <SlogP>
2.4205999

>  <SlogP_VSA0>
18.01075

>  <SlogP_VSA1>
0

>  <SlogP_VSA2>
0

>  <SlogP_VSA3>
0

>  <SlogP_VSA4>
8.8215923

>  <SlogP_VSA5>
32.897186

>  <SlogP_VSA6>
0

>  <SlogP_VSA7>
0

>  <SlogP_VSA8>
56.605217

>  <SlogP_VSA9>
99.978043

>  <SMR>
5.2076702

>  <SMR_VSA0>
0

>  <SMR_VSA1>
0

>  <SMR_VSA2>
26.832342

>  <SMR_VSA3>
0

>  <SMR_VSA4>
0

>  <SMR_VSA5>
56.605217

>  <SMR_VSA6>
0

>  <SMR_VSA7>
132.87523

>  <TPSA>
12.03

>  <VAdjEq>
0.68129086

>  <VAdjMa>
4.7004399

>  <VDistEq>
1.9992244

>  <VDistMa>
6.9181075

>  <vdw_area>
199.64929

>  <vdw_vol>
271.112

>  <vsa_acc>
0

>  <vsa_acid>
0

>  <vsa_base>
0

>  <vsa_don>
0

>  <vsa_hyd>
173.96738

>  <vsa_other>
0

>  <vsa_pol>
5.6825762

>  <Weight>
167.29599

>  <weinerPath>
161

>  <weinerPol>
21

>  <zagreb>
70

$$$$