O(C[C@@H](O)CNC(C)(C)C)c1c2c(ccc1)C(=O)CCC2
  MOE2013           2D

 21 22  0  0  1  0  0  0  0  0999 V2000
    0.0000    0.0000    0.0000 O   0  0  0  0  0  0  0  0  0  0  0  0
    1.5000   -0.0080    0.0000 C   0  0  0  0  0  0  0  0  0  0  0  0
    2.2430   -1.3110    0.0000 C   0  0  1  0  0  0  0  0  0  0  0  0
    1.4860   -2.6060    0.0000 O   0  0  0  0  0  0  0  0  0  0  0  0
    3.7430   -1.3190    0.0000 C   0  0  0  0  0  0  0  0  0  0  0  0
    4.4860   -2.6220    0.0000 N   0  0  0  0  0  0  0  0  0  0  0  0
    5.9860   -2.6300    0.0000 C   0  0  0  0  0  0  0  0  0  0  0  0
    7.4860   -2.6380    0.0000 C   0  0  0  0  0  0  0  0  0  0  0  0
    5.9940   -1.1300    0.0000 C   0  0  0  0  0  0  0  0  0  0  0  0
    5.9780   -4.1300    0.0000 C   0  0  0  0  0  0  0  0  0  0  0  0
   -0.7430    1.3030    0.0000 C   0  0  0  0  0  0  0  0  0  0  0  0
   -2.2430    1.3110    0.0000 C   0  0  0  0  0  0  0  0  0  0  0  0
   -2.9860    2.6140    0.0000 C   0  0  0  0  0  0  0  0  0  0  0  0
   -2.2290    3.9090    0.0000 C   0  0  0  0  0  0  0  0  0  0  0  0
   -0.7290    3.9010    0.0000 C   0  0  0  0  0  0  0  0  0  0  0  0
    0.0140    2.5980    0.0000 C   0  0  0  0  0  0  0  0  0  0  0  0
   -4.4860    2.6220    0.0000 C   0  0  0  0  0  0  0  0  0  0  0  0
   -5.2290    3.9250    0.0000 O   0  0  0  0  0  0  0  0  0  0  0  0
   -5.2430    1.3270    0.0000 C   0  0  0  0  0  0  0  0  0  0  0  0
   -4.5000    0.0240    0.0000 C   0  0  0  0  0  0  0  0  0  0  0  0
   -3.0000    0.0160    0.0000 C   0  0  0  0  0  0  0  0  0  0  0  0
  1  2  1  0  0  0  0
  1 11  1  0  0  0  0
  2  3  1  0  0  0  0
  3  4  1  6  0  0  0
  3  5  1  0  0  0  0
  5  6  1  0  0  0  0
  6  7  1  0  0  0  0
  7  8  1  0  0  0  0
  7  9  1  0  0  0  0
  7 10  1  0  0  0  0
 11 12  2  0  0  0  0
 11 16  1  0  0  0  0
 12 13  1  0  0  0  0
 12 21  1  0  0  0  0
 13 14  2  0  0  0  0
 13 17  1  0  0  0  0
 14 15  1  0  0  0  0
 15 16  2  0  0  0  0
 17 18  2  0  0  0  0
 17 19  1  0  0  0  0
 19 20  1  0  0  0  0
 20 21  1  0  0  0  0
M  END
>  <Index>
606

>  <ID>
HT1193

>  <class>
0

>  <apol>
50.095825

>  <ast_fraglike>
0

>  <ast_fraglike_ext>
0

>  <ast_violation>
1

>  <ast_violation_ext>
2

>  <a_acc>
4

>  <a_acid>
0

>  <a_aro>
6

>  <a_base>
0

>  <a_count>
46

>  <a_don>
2

>  <a_donacc>
6

>  <a_heavy>
21

>  <a_hyd>
16

>  <a_IC>
63.745689

>  <a_ICM>
1.3857758

>  <a_nB>
0

>  <a_nBr>
0

>  <a_nC>
17

>  <a_nCl>
0

>  <a_nF>
0

>  <a_nH>
25

>  <a_nI>
0

>  <a_nN>
1

>  <a_nO>
3

>  <a_nP>
0

>  <a_nS>
0

>  <balabanJ>
1.7684948

>  <BCUT_PEOE_0>
-2.7112243

>  <BCUT_PEOE_1>
-0.46266904

>  <BCUT_PEOE_2>
0.56059188

>  <BCUT_PEOE_3>
2.6442988

>  <BCUT_SLOGP_0>
-2.8413129

>  <BCUT_SLOGP_1>
-0.42728305

>  <BCUT_SLOGP_2>
0.47797281

>  <BCUT_SLOGP_3>
2.6556334

>  <BCUT_SMR_0>
-2.4451206

>  <BCUT_SMR_1>
-0.36276308

>  <BCUT_SMR_2>
0.66157877

>  <BCUT_SMR_3>
2.9013016

>  <bpol>
30.864176

>  <b_1rotN>
5

>  <b_1rotR>
0.22727273

>  <b_ar>
6

>  <b_count>
47

>  <b_double>
1

>  <b_heavy>
22

>  <b_max1len>
7

>  <b_rotN>
6

>  <b_rotR>
0.27272728

>  <b_single>
40

>  <b_triple>
0

>  <chi0>
15.457819

>  <chi0v>
13.108645

>  <chi0v_C>
11.344935

>  <chi0_C>
12.043606

>  <chi1>
9.8659916

>  <chi1v>
7.5762959

>  <chi1v_C>
6.0176201

>  <chi1_C>
6.9494896

>  <chiral>
1

>  <chiral_u>
0

>  <density>
0.69321966

>  <diameter>
11

>  <FCharge>
0

>  <GCUT_PEOE_0>
-0.84483463

>  <GCUT_PEOE_1>
-0.33046219

>  <GCUT_PEOE_2>
0.027065996

>  <GCUT_PEOE_3>
2.6548057

>  <GCUT_SLOGP_0>
-1.1534364

>  <GCUT_SLOGP_1>
-0.32069987

>  <GCUT_SLOGP_2>
-0.0085364934

>  <GCUT_SLOGP_3>
2.6970146

>  <GCUT_SMR_0>
-0.52428603

>  <GCUT_SMR_1>
-0.18608844

>  <GCUT_SMR_2>
0.14919004

>  <GCUT_SMR_3>
2.9004259

>  <Kier1>
17.355371

>  <Kier2>
7.5130072

>  <Kier3>
5.2897959

>  <KierA1>
14.732832

>  <KierA2>
6.3222804

>  <KierA3>
4.4216642

>  <KierFlex>
4.4354806

>  <lip_acc>
4

>  <lip_don>
2

>  <lip_druglike>
1

>  <lip_violation>
0

>  <logP(o/w)>
2.2690001

>  <logS>
-2.5537601

>  <mr>
8.3273182

>  <mutagenic>
0

>  <nmol>
1

>  <opr_brigid>
11

>  <opr_leadlike>
1

>  <opr_nring>
2

>  <opr_nrot>
7

>  <opr_violation>
0

>  <PC+>
0

>  <PC->
0

>  <PEOE_PC+>
1.6867025

>  <PEOE_PC->
-1.6867025

>  <PEOE_RPC+>
0.12446269

>  <PEOE_RPC->
0.23017544

>  <PEOE_VSA+0>
96.613739

>  <PEOE_VSA+1>
53.907059

>  <PEOE_VSA+2>
8.6190128

>  <PEOE_VSA+3>
8.458519

>  <PEOE_VSA+4>
10.324173

>  <PEOE_VSA+5>
0

>  <PEOE_VSA+6>
0

>  <PEOE_VSA-0>
88.1091

>  <PEOE_VSA-1>
24.509808

>  <PEOE_VSA-2>
0

>  <PEOE_VSA-3>
0

>  <PEOE_VSA-4>
0

>  <PEOE_VSA-5>
13.566921

>  <PEOE_VSA-6>
10.408187

>  <PEOE_VSA_FHYD>
0.89094603

>  <PEOE_VSA_FNEG>
0.4342984

>  <PEOE_VSA_FPNEG>
0.076228455

>  <PEOE_VSA_FPOL>
0.10905398

>  <PEOE_VSA_FPOS>
0.5657016

>  <PEOE_VSA_FPPOS>
0.032825533

>  <PEOE_VSA_HYD>
280.21725

>  <PEOE_VSA_NEG>
136.59402

>  <PEOE_VSA_PNEG>
23.975109

>  <PEOE_VSA_POL>
34.299282

>  <PEOE_VSA_POS>
177.9225

>  <PEOE_VSA_PPOS>
10.324173

>  <petitjean>
0.45454547

>  <petitjeanSC>
0.83333331

>  <Q_PC+>
0

>  <Q_PC->
0

>  <Q_RPC+>
0

>  <Q_RPC->
0

>  <Q_VSA_FHYD>
1

>  <Q_VSA_FNEG>
0

>  <Q_VSA_FPNEG>
0

>  <Q_VSA_FPOL>
0

>  <Q_VSA_FPOS>
1

>  <Q_VSA_FPPOS>
0

>  <Q_VSA_HYD>
314.51651

>  <Q_VSA_NEG>
0

>  <Q_VSA_PNEG>
0

>  <Q_VSA_POL>
0

>  <Q_VSA_POS>
314.51651

>  <Q_VSA_PPOS>
0

>  <radius>
6

>  <reactive>
1

>  <rings>
2

>  <RPC+>
0

>  <RPC->
0

>  <rsynth>
1

>  <SlogP>
2.33337

>  <SlogP_VSA0>
54.395866

>  <SlogP_VSA1>
5.6876111

>  <SlogP_VSA2>
6.4686494

>  <SlogP_VSA3>
39.365837

>  <SlogP_VSA4>
30.233366

>  <SlogP_VSA5>
18.868406

>  <SlogP_VSA6>
0

>  <SlogP_VSA7>
52.929554

>  <SlogP_VSA8>
37.736813

>  <SlogP_VSA9>
105.22147

>  <SMR>
8.2967997

>  <SMR_VSA0>
23.862217

>  <SMR_VSA1>
36.385113

>  <SMR_VSA2>
18.01075

>  <SMR_VSA3>
18.083227

>  <SMR_VSA4>
0

>  <SMR_VSA5>
109.53477

>  <SMR_VSA6>
45.053448

>  <SMR_VSA7>
99.978043

>  <TPSA>
58.560001

>  <VAdjEq>
0.46827638

>  <VAdjMa>
5.4594316

>  <VDistEq>
3.3472898

>  <VDistMa>
8.4626532

>  <vdw_area>
314.51651

>  <vdw_vol>
420.34436

>  <vsa_acc>
16.070677

>  <vsa_acid>
0

>  <vsa_base>
0

>  <vsa_don>
0

>  <vsa_hyd>
246.76842

>  <vsa_other>
8.458519

>  <vsa_pol>
35.320175

>  <Weight>
291.39099

>  <weinerPath>
1030

>  <weinerPol>
29

>  <zagreb>
106

$$$$