Oc1cc(ccc1O)C[C@H](N)C(O)=O
  MOE2013           2D

 14 14  0  0  1  0  0  0  0  0999 V2000
    0.0000    0.0000    0.0000 O   0  0  0  0  0  0  0  0  0  0  0  0
    1.2980    0.7530    0.0000 C   0  0  0  0  0  0  0  0  0  0  0  0
    2.5980    0.0050    0.0000 C   0  0  0  0  0  0  0  0  0  0  0  0
    3.8960    0.7580    0.0000 C   0  0  0  0  0  0  0  0  0  0  0  0
    3.8930    2.2580    0.0000 C   0  0  0  0  0  0  0  0  0  0  0  0
    2.5920    3.0050    0.0000 C   0  0  0  0  0  0  0  0  0  0  0  0
    1.2940    2.2530    0.0000 C   0  0  0  0  0  0  0  0  0  0  0  0
   -0.0060    3.0000    0.0000 O   0  0  0  0  0  0  0  0  0  0  0  0
    5.1960    0.0110    0.0000 C   0  0  0  0  0  0  0  0  0  0  0  0
    6.4940    0.7630    0.0000 C   0  0  2  0  0  0  0  0  0  0  0  0
    6.4910    2.2630    0.0000 N   0  0  0  0  0  0  0  0  0  0  0  0
    7.7940    0.0160    0.0000 C   0  0  0  0  0  0  0  0  0  0  0  0
    9.0920    0.7690    0.0000 O   0  0  0  0  0  0  0  0  0  0  0  0
    7.7970   -1.4840    0.0000 O   0  0  0  0  0  0  0  0  0  0  0  0
  1  2  1  0  0  0  0
  2  3  2  0  0  0  0
  2  7  1  0  0  0  0
  3  4  1  0  0  0  0
  4  5  2  0  0  0  0
  4  9  1  0  0  0  0
  5  6  1  0  0  0  0
  6  7  2  0  0  0  0
  7  8  1  0  0  0  0
  9 10  1  0  0  0  0
 10 11  1  6  0  0  0
 10 12  1  0  0  0  0
 12 13  1  0  0  0  0
 12 14  2  0  0  0  0
M  END
>  <Index>
607

>  <ID>
HT1196

>  <class>
0

>  <apol>
27.482723

>  <ast_fraglike>
0

>  <ast_fraglike_ext>
0

>  <ast_violation>
2

>  <ast_violation_ext>
3

>  <a_acc>
5

>  <a_acid>
0

>  <a_aro>
6

>  <a_base>
0

>  <a_count>
25

>  <a_don>
5

>  <a_donacc>
10

>  <a_heavy>
14

>  <a_hyd>
8

>  <a_IC>
41.513332

>  <a_ICM>
1.6605333

>  <a_nB>
0

>  <a_nBr>
0

>  <a_nC>
9

>  <a_nCl>
0

>  <a_nF>
0

>  <a_nH>
11

>  <a_nI>
0

>  <a_nN>
1

>  <a_nO>
4

>  <a_nP>
0

>  <a_nS>
0

>  <balabanJ>
2.3459485

>  <BCUT_PEOE_0>
-2.4796262

>  <BCUT_PEOE_1>
-0.72912878

>  <BCUT_PEOE_2>
0.78971833

>  <BCUT_PEOE_3>
2.50634

>  <BCUT_SLOGP_0>
-2.7318888

>  <BCUT_SLOGP_1>
-0.68548989

>  <BCUT_SLOGP_2>
0.79554653

>  <BCUT_SLOGP_3>
2.470031

>  <BCUT_SMR_0>
-2.2291598

>  <BCUT_SMR_1>
-0.58251387

>  <BCUT_SMR_2>
0.91537446

>  <BCUT_SMR_3>
2.7499163

>  <bpol>
12.323277

>  <b_1rotN>
3

>  <b_1rotR>
0.21428572

>  <b_ar>
6

>  <b_count>
25

>  <b_double>
1

>  <b_heavy>
14

>  <b_max1len>
4

>  <b_rotN>
3

>  <b_rotR>
0.21428572

>  <b_single>
18

>  <b_triple>
0

>  <chi0>
10.715178

>  <chi0v>
7.3437471

>  <chi0v_C>
5.0165076

>  <chi0_C>
5.7151785

>  <chi1>
6.5029078

>  <chi1v>
3.9967885

>  <chi1v_C>
2.7885108

>  <chi1_C>
3.6161563

>  <chiral>
1

>  <chiral_u>
0

>  <density>
0.80956817

>  <diameter>
8

>  <FCharge>
0

>  <GCUT_PEOE_0>
-0.81081915

>  <GCUT_PEOE_1>
-0.48173141

>  <GCUT_PEOE_2>
0.1842486

>  <GCUT_PEOE_3>
2.2848492

>  <GCUT_SLOGP_0>
-1.3634712

>  <GCUT_SLOGP_1>
-0.412056

>  <GCUT_SLOGP_2>
0.16542514

>  <GCUT_SLOGP_3>
2.3620329

>  <GCUT_SMR_0>
-0.49916703

>  <GCUT_SMR_1>
-0.25246677

>  <GCUT_SMR_2>
0.28364262

>  <GCUT_SMR_3>
2.5441172

>  <Kier1>
12.071428

>  <Kier2>
5.1855955

>  <Kier3>
3.5918367

>  <KierA1>
9.3661032

>  <KierA2>
3.9374435

>  <KierA3>
2.682368

>  <KierFlex>
2.6341789

>  <lip_acc>
5

>  <lip_don>
5

>  <lip_druglike>
1

>  <lip_violation>
0

>  <logP(o/w)>
-2.10373

>  <logS>
-0.38321

>  <mr>
4.9376984

>  <mutagenic>
0

>  <nmol>
1

>  <opr_brigid>
6

>  <opr_leadlike>
1

>  <opr_nring>
1

>  <opr_nrot>
3

>  <opr_violation>
0

>  <PC+>
0

>  <PC->
0

>  <PEOE_PC+>
1.7842343

>  <PEOE_PC->
-1.7842343

>  <PEOE_RPC+>
0.15517105

>  <PEOE_RPC->
0.20023973

>  <PEOE_VSA+0>
8.5307722

>  <PEOE_VSA+1>
20.207504

>  <PEOE_VSA+2>
34.155064

>  <PEOE_VSA+3>
0

>  <PEOE_VSA+4>
30.972517

>  <PEOE_VSA+5>
14.708499

>  <PEOE_VSA+6>
0

>  <PEOE_VSA-0>
35.419662

>  <PEOE_VSA-1>
12.254904

>  <PEOE_VSA-2>
0

>  <PEOE_VSA-3>
0

>  <PEOE_VSA-4>
0

>  <PEOE_VSA-5>
13.566921

>  <PEOE_VSA-6>
29.953741

>  <PEOE_VSA_FHYD>
0.55347717

>  <PEOE_VSA_FNEG>
0.45650205

>  <PEOE_VSA_FPNEG>
0.21785429

>  <PEOE_VSA_FPOL>
0.44652283

>  <PEOE_VSA_FPOS>
0.54349792

>  <PEOE_VSA_FPPOS>
0.22866853

>  <PEOE_VSA_HYD>
110.56791

>  <PEOE_VSA_NEG>
91.195229

>  <PEOE_VSA_PNEG>
43.52066

>  <PEOE_VSA_POL>
89.201675

>  <PEOE_VSA_POS>
108.57436

>  <PEOE_VSA_PPOS>
45.681019

>  <petitjean>
0.5

>  <petitjeanSC>
1

>  <Q_PC+>
0

>  <Q_PC->
0

>  <Q_RPC+>
0

>  <Q_RPC->
0

>  <Q_VSA_FHYD>
1

>  <Q_VSA_FNEG>
0

>  <Q_VSA_FPNEG>
0

>  <Q_VSA_FPOL>
0

>  <Q_VSA_FPOS>
1

>  <Q_VSA_FPPOS>
0

>  <Q_VSA_HYD>
199.76958

>  <Q_VSA_NEG>
0

>  <Q_VSA_PNEG>
0

>  <Q_VSA_POL>
0

>  <Q_VSA_POS>
199.76958

>  <Q_VSA_PPOS>
0

>  <radius>
4

>  <reactive>
0

>  <rings>
1

>  <RPC+>
0

>  <RPC->
0

>  <rsynth>
1

>  <SlogP>
0.052170001

>  <SlogP_VSA0>
83.667641

>  <SlogP_VSA1>
7.7454643

>  <SlogP_VSA2>
27.844185

>  <SlogP_VSA3>
25.385227

>  <SlogP_VSA4>
3.185575

>  <SlogP_VSA5>
18.868406

>  <SlogP_VSA6>
0

>  <SlogP_VSA7>
52.929554

>  <SlogP_VSA8>
0

>  <SlogP_VSA9>
10.486856

>  <SMR>
4.90868

>  <SMR_VSA0>
23.862217

>  <SMR_VSA1>
50.770454

>  <SMR_VSA2>
25.385227

>  <SMR_VSA3>
17.6544

>  <SMR_VSA4>
32.897186

>  <SMR_VSA5>
71.797958

>  <SMR_VSA6>
7.7454643

>  <SMR_VSA7>
0

>  <TPSA>
103.78

>  <VAdjEq>
0.59167278

>  <VAdjMa>
4.8073549

>  <VDistEq>
2.813458

>  <VDistMa>
7.2928128

>  <vdw_area>
199.76958

>  <vdw_vol>
243.5743

>  <vsa_acc>
0

>  <vsa_acid>
0

>  <vsa_base>
0

>  <vsa_don>
0

>  <vsa_hyd>
89.059105

>  <vsa_other>
14.708499

>  <vsa_pol>
72.01017

>  <Weight>
197.19

>  <weinerPath>
321

>  <weinerPol>
18

>  <zagreb>
66

$$$$