O=C1NC(=NC=2NC[C@@H](N(C1=2)C=O)CNc1ccc(cc1)C(=O)N[C@@H](CCC(O)=O)C(O)=O)N
  MOE2013           2D

 34 36  0  0  1  0  0  0  0  0999 V2000
    0.0000    0.0000    0.0000 O   0  0  0  0  0  0  0  0  0  0  0  0
   -0.0080   -1.5000    0.0000 C   0  0  0  0  0  0  0  0  0  0  0  0
    1.2870   -2.2570    0.0000 N   0  0  0  0  0  0  0  0  0  0  0  0
    1.2790   -3.7570    0.0000 C   0  0  0  0  0  0  0  0  0  0  0  0
   -0.0240   -4.5000    0.0000 N   0  0  0  0  0  0  0  0  0  0  0  0
   -1.3190   -3.7430    0.0000 C   0  0  0  0  0  0  0  0  0  0  0  0
   -2.6220   -4.4860    0.0000 N   0  0  0  0  0  0  0  0  0  0  0  0
   -3.9170   -3.7290    0.0000 C   0  0  0  0  0  0  0  0  0  0  0  0
   -3.9090   -2.2290    0.0000 C   0  0  1  0  0  0  0  0  0  0  0  0
   -2.6060   -1.4860    0.0000 N   0  0  0  0  0  0  0  0  0  0  0  0
   -1.3110   -2.2430    0.0000 C   0  0  0  0  0  0  0  0  0  0  0  0
   -2.5980    0.0140    0.0000 C   0  0  0  0  0  0  0  0  0  0  0  0
   -3.8930    0.7710    0.0000 O   0  0  0  0  0  0  0  0  0  0  0  0
   -5.2040   -1.4720    0.0000 C   0  0  0  0  0  0  0  0  0  0  0  0
   -6.5070   -2.2150    0.0000 N   0  0  0  0  0  0  0  0  0  0  0  0
   -7.8020   -1.4580    0.0000 C   0  0  0  0  0  0  0  0  0  0  0  0
   -9.1050   -2.2010    0.0000 C   0  0  0  0  0  0  0  0  0  0  0  0
  -10.4000   -1.4440    0.0000 C   0  0  0  0  0  0  0  0  0  0  0  0
  -10.3920    0.0560    0.0000 C   0  0  0  0  0  0  0  0  0  0  0  0
   -9.0890    0.7990    0.0000 C   0  0  0  0  0  0  0  0  0  0  0  0
   -7.7940    0.0420    0.0000 C   0  0  0  0  0  0  0  0  0  0  0  0
  -11.6870    0.8130    0.0000 C   0  0  0  0  0  0  0  0  0  0  0  0
  -11.6790    2.3130    0.0000 O   0  0  0  0  0  0  0  0  0  0  0  0
  -12.9900    0.0700    0.0000 N   0  0  0  0  0  0  0  0  0  0  0  0
  -14.2850    0.8280    0.0000 C   0  0  1  0  0  0  0  0  0  0  0  0
  -14.2770    2.3270    0.0000 C   0  0  0  0  0  0  0  0  0  0  0  0
  -15.5720    3.0850    0.0000 C   0  0  0  0  0  0  0  0  0  0  0  0
  -15.5640    4.5840    0.0000 C   0  0  0  0  0  0  0  0  0  0  0  0
  -14.2610    5.3270    0.0000 O   0  0  0  0  0  0  0  0  0  0  0  0
  -16.8590    5.3420    0.0000 O   0  0  0  0  0  0  0  0  0  0  0  0
  -15.5880    0.0850    0.0000 C   0  0  0  0  0  0  0  0  0  0  0  0
  -15.5960   -1.4150    0.0000 O   0  0  0  0  0  0  0  0  0  0  0  0
  -16.8830    0.8420    0.0000 O   0  0  0  0  0  0  0  0  0  0  0  0
    2.5740   -4.5140    0.0000 N   0  0  0  0  0  0  0  0  0  0  0  0
  1  2  2  0  0  0  0
  2  3  1  0  0  0  0
  2 11  1  0  0  0  0
  3  4  1  0  0  0  0
  4  5  2  0  0  0  0
  4 34  1  0  0  0  0
  5  6  1  0  0  0  0
  6  7  1  0  0  0  0
  6 11  2  0  0  0  0
  7  8  1  0  0  0  0
  8  9  1  0  0  0  0
  9 10  1  0  0  0  0
  9 14  1  6  0  0  0
 10 11  1  0  0  0  0
 10 12  1  0  0  0  0
 12 13  2  0  0  0  0
 14 15  1  0  0  0  0
 15 16  1  0  0  0  0
 16 17  1  0  0  0  0
 16 21  2  0  0  0  0
 17 18  2  0  0  0  0
 18 19  1  0  0  0  0
 19 20  2  0  0  0  0
 19 22  1  0  0  0  0
 20 21  1  0  0  0  0
 22 23  2  0  0  0  0
 22 24  1  0  0  0  0
 25 24  1  6  0  0  0
 25 26  1  0  0  0  0
 25 31  1  0  0  0  0
 26 27  1  0  0  0  0
 27 28  1  0  0  0  0
 28 29  1  0  0  0  0
 28 30  2  0  0  0  0
 31 32  1  0  0  0  0
 31 33  2  0  0  0  0
M  END
>  <Index>
602

>  <ID>
HT1188

>  <class>
0

>  <apol>
63.850239

>  <ast_fraglike>
0

>  <ast_fraglike_ext>
0

>  <ast_violation>
3

>  <ast_violation_ext>
5

>  <a_acc>
8

>  <a_acid>
0

>  <a_aro>
6

>  <a_base>
0

>  <a_count>
57

>  <a_don>
9

>  <a_donacc>
17

>  <a_heavy>
34

>  <a_hyd>
13

>  <a_IC>
102.69128

>  <a_ICM>
1.8016013

>  <a_nB>
0

>  <a_nBr>
0

>  <a_nC>
20

>  <a_nCl>
0

>  <a_nF>
0

>  <a_nH>
23

>  <a_nI>
0

>  <a_nN>
7

>  <a_nO>
7

>  <a_nP>
0

>  <a_nS>
0

>  <balabanJ>
1.425463

>  <BCUT_PEOE_0>
-2.6623538

>  <BCUT_PEOE_1>
-0.61736971

>  <BCUT_PEOE_2>
0.6571722

>  <BCUT_PEOE_3>
2.6330676

>  <BCUT_SLOGP_0>
-2.8458023

>  <BCUT_SLOGP_1>
-0.56324953

>  <BCUT_SLOGP_2>
0.69132411

>  <BCUT_SLOGP_3>
2.545774

>  <BCUT_SMR_0>
-2.3868968

>  <BCUT_SMR_1>
-0.46890435

>  <BCUT_SMR_2>
0.79272974

>  <BCUT_SMR_3>
2.9017067

>  <bpol>
35.21376

>  <b_1rotN>
10

>  <b_1rotR>
0.27777779

>  <b_ar>
6

>  <b_count>
59

>  <b_double>
7

>  <b_heavy>
36

>  <b_max1len>
5

>  <b_rotN>
11

>  <b_rotR>
0.30555555

>  <b_single>
46

>  <b_triple>
0

>  <chi0>
24.827698

>  <chi0v>
17.777325

>  <chi0v_C>
11.369879

>  <chi0_C>
12.714814

>  <chi1>
16.18878

>  <chi1v>
10.159429

>  <chi1v_C>
4.9383407

>  <chi1_C>
6.0993195

>  <chiral>
2

>  <chiral_u>
0

>  <density>
0.83456349

>  <diameter>
19

>  <FCharge>
0

>  <GCUT_PEOE_0>
-0.8275795

>  <GCUT_PEOE_1>
-0.48901474

>  <GCUT_PEOE_2>
0.11336224

>  <GCUT_PEOE_3>
2.6948891

>  <GCUT_SLOGP_0>
-1.3711504

>  <GCUT_SLOGP_1>
-0.45221767

>  <GCUT_SLOGP_2>
0.1624648

>  <GCUT_SLOGP_3>
2.6509194

>  <GCUT_SMR_0>
-0.51218581

>  <GCUT_SMR_1>
-0.24011634

>  <GCUT_SMR_2>
0.21363376

>  <GCUT_SMR_3>
2.9606616

>  <Kier1>
28.569445

>  <Kier2>
13.5168

>  <Kier3>
7.9979844

>  <KierA1>
19.747738

>  <KierA2>
9.2299156

>  <KierA3>
5.4147315

>  <KierFlex>
5.3608809

>  <lip_acc>
14

>  <lip_don>
8

>  <lip_druglike>
0

>  <lip_violation>
2

>  <logP(o/w)>
-1.1440001

>  <logS>
-2.72506

>  <mr>
11.579829

>  <mutagenic>
0

>  <nmol>
1

>  <opr_brigid>
17

>  <opr_leadlike>
0

>  <opr_nring>
3

>  <opr_nrot>
10

>  <opr_violation>
3

>  <PC+>
0

>  <PC->
0

>  <PEOE_PC+>
4.2535043

>  <PEOE_PC->
-4.2535043

>  <PEOE_RPC+>
0.066344649

>  <PEOE_RPC->
0.086826272

>  <PEOE_VSA+0>
78.117142

>  <PEOE_VSA+1>
28.738277

>  <PEOE_VSA+2>
42.539486

>  <PEOE_VSA+3>
34.476051

>  <PEOE_VSA+4>
59.325813

>  <PEOE_VSA+5>
55.316059

>  <PEOE_VSA+6>
0

>  <PEOE_VSA-0>
57.720928

>  <PEOE_VSA-1>
0

>  <PEOE_VSA-2>
0

>  <PEOE_VSA-3>
0

>  <PEOE_VSA-4>
5.6825762

>  <PEOE_VSA-5>
68.245277

>  <PEOE_VSA-6>
22.323092

>  <PEOE_VSA_FHYD>
0.53392279

>  <PEOE_VSA_FNEG>
0.34028083

>  <PEOE_VSA_FPNEG>
0.21271646

>  <PEOE_VSA_FPOL>
0.46607724

>  <PEOE_VSA_FPOS>
0.65971917

>  <PEOE_VSA_FPPOS>
0.25336078

>  <PEOE_VSA_HYD>
241.59189

>  <PEOE_VSA_NEG>
153.97188

>  <PEOE_VSA_PNEG>
96.250946

>  <PEOE_VSA_POL>
210.89282

>  <PEOE_VSA_POS>
298.51282

>  <PEOE_VSA_PPOS>
114.64188

>  <petitjean>
0.47368422

>  <petitjeanSC>
0.89999998

>  <Q_PC+>
0

>  <Q_PC->
0

>  <Q_RPC+>
0

>  <Q_RPC->
0

>  <Q_VSA_FHYD>
1

>  <Q_VSA_FNEG>
0

>  <Q_VSA_FPNEG>
0

>  <Q_VSA_FPOL>
0

>  <Q_VSA_FPOS>
1

>  <Q_VSA_FPPOS>
0

>  <Q_VSA_HYD>
452.48471

>  <Q_VSA_NEG>
0

>  <Q_VSA_PNEG>
0

>  <Q_VSA_POL>
0

>  <Q_VSA_POS>
452.48471

>  <Q_VSA_PPOS>
0

>  <radius>
10

>  <reactive>
0

>  <rings>
3

>  <RPC+>
0

>  <RPC->
0

>  <rsynth>
1

>  <SlogP>
-1.8099

>  <SlogP_VSA0>
86.929436

>  <SlogP_VSA1>
49.042652

>  <SlogP_VSA2>
123.1292

>  <SlogP_VSA3>
87.649612

>  <SlogP_VSA4>
27.047791

>  <SlogP_VSA5>
21.870197

>  <SlogP_VSA6>
0

>  <SlogP_VSA7>
70.572739

>  <SlogP_VSA8>
37.736813

>  <SlogP_VSA9>
2.7567475

>  <SMR>
11.71763

>  <SMR_VSA0>
119.31108

>  <SMR_VSA1>
19.909843

>  <SMR_VSA2>
104.8027

>  <SMR_VSA3>
16.23418

>  <SMR_VSA4>
53.664684

>  <SMR_VSA5>
108.30955

>  <SMR_VSA6>
64.786743

>  <SMR_VSA7>
19.716393

>  <TPSA>
215.55

>  <VAdjEq>
0.33644459

>  <VAdjMa>
6.1699252

>  <VDistEq>
4.019156

>  <VDistMa>
9.8442945

>  <vdw_area>
452.48471

>  <vdw_vol>
567.29773

>  <vsa_acc>
46.383339

>  <vsa_acid>
0

>  <vsa_base>
0

>  <vsa_don>
40.472794

>  <vsa_hyd>
164.45673

>  <vsa_other>
108.73769

>  <vsa_pol>
141.12381

>  <Weight>
473.44598

>  <weinerPath>
4127

>  <weinerPol>
54

>  <zagreb>
172

$$$$