O(C)c1c(OC)cc(cc1OC)CCN
  MOE2013           2D

 15 15  0  0  0  0  0  0  0  0999 V2000
    0.0000    0.0000    0.0000 O   0  0  0  0  0  0  0  0  0  0  0  0
   -0.7420    1.3040    0.0000 C   0  0  0  0  0  0  0  0  0  0  0  0
    1.5000   -0.0090    0.0000 C   0  0  0  0  0  0  0  0  0  0  0  0
    2.2420   -1.3130    0.0000 C   0  0  0  0  0  0  0  0  0  0  0  0
    1.4840   -2.6070    0.0000 O   0  0  0  0  0  0  0  0  0  0  0  0
    2.2260   -3.9110    0.0000 C   0  0  0  0  0  0  0  0  0  0  0  0
    3.7420   -1.3220    0.0000 C   0  0  0  0  0  0  0  0  0  0  0  0
    4.5000   -0.0280    0.0000 C   0  0  0  0  0  0  0  0  0  0  0  0
    3.7580    1.2760    0.0000 C   0  0  0  0  0  0  0  0  0  0  0  0
    2.2580    1.2850    0.0000 C   0  0  0  0  0  0  0  0  0  0  0  0
    1.5160    2.5890    0.0000 O   0  0  0  0  0  0  0  0  0  0  0  0
    2.2740    3.8830    0.0000 C   0  0  0  0  0  0  0  0  0  0  0  0
    6.0000   -0.0370    0.0000 C   0  0  0  0  0  0  0  0  0  0  0  0
    6.7420   -1.3400    0.0000 C   0  0  0  0  0  0  0  0  0  0  0  0
    8.2420   -1.3500    0.0000 N   0  0  0  0  0  0  0  0  0  0  0  0
  1  2  1  0  0  0  0
  1  3  1  0  0  0  0
  3  4  1  0  0  0  0
  3 10  2  0  0  0  0
  4  5  1  0  0  0  0
  4  7  2  0  0  0  0
  5  6  1  0  0  0  0
  7  8  1  0  0  0  0
  8  9  2  0  0  0  0
  8 13  1  0  0  0  0
  9 10  1  0  0  0  0
 10 11  1  0  0  0  0
 11 12  1  0  0  0  0
 13 14  1  0  0  0  0
 14 15  1  0  0  0  0
M  END
>  <Index>
677

>  <ID>
HT1318

>  <class>
0

>  <apol>
34.201481

>  <ast_fraglike>
0

>  <ast_fraglike_ext>
0

>  <ast_violation>
1

>  <ast_violation_ext>
2

>  <a_acc>
4

>  <a_acid>
0

>  <a_aro>
6

>  <a_base>
0

>  <a_count>
32

>  <a_don>
1

>  <a_donacc>
5

>  <a_heavy>
15

>  <a_hyd>
11

>  <a_IC>
47.704498

>  <a_ICM>
1.4907656

>  <a_nB>
0

>  <a_nBr>
0

>  <a_nC>
11

>  <a_nCl>
0

>  <a_nF>
0

>  <a_nH>
17

>  <a_nI>
0

>  <a_nN>
1

>  <a_nO>
3

>  <a_nP>
0

>  <a_nS>
0

>  <balabanJ>
2.6238596

>  <BCUT_PEOE_0>
-2.4846635

>  <BCUT_PEOE_1>
-0.38667753

>  <BCUT_PEOE_2>
0.23742983

>  <BCUT_PEOE_3>
2.4270036

>  <BCUT_SLOGP_0>
-2.6659062

>  <BCUT_SLOGP_1>
-0.33986595

>  <BCUT_SLOGP_2>
0.34450433

>  <BCUT_SLOGP_3>
2.5158303

>  <BCUT_SMR_0>
-2.2111793

>  <BCUT_SMR_1>
-0.14878415

>  <BCUT_SMR_2>
0.47522488

>  <BCUT_SMR_3>
2.7015195

>  <bpol>
23.67252

>  <b_1rotN>
5

>  <b_1rotR>
0.33333334

>  <b_ar>
6

>  <b_count>
32

>  <b_double>
0

>  <b_heavy>
15

>  <b_max1len>
4

>  <b_rotN>
5

>  <b_rotR>
0.33333334

>  <b_single>
26

>  <b_triple>
0

>  <chi0>
11.259149

>  <chi0v>
9.3710089

>  <chi0v_C>
7.5689139

>  <chi0_C>
8.1378279

>  <chi1>
7.2610803

>  <chi1v>
4.7536197

>  <chi1v_C>
2.5082538

>  <chi1_C>
3.2079082

>  <chiral>
0

>  <chiral_u>
0

>  <density>
0.70971221

>  <diameter>
8

>  <FCharge>
0

>  <GCUT_PEOE_0>
-0.83930862

>  <GCUT_PEOE_1>
-0.39686036

>  <GCUT_PEOE_2>
-0.069165364

>  <GCUT_PEOE_3>
2.3729515

>  <GCUT_SLOGP_0>
-1.3632423

>  <GCUT_SLOGP_1>
-0.29392034

>  <GCUT_SLOGP_2>
0.045109689

>  <GCUT_SLOGP_3>
2.5070553

>  <GCUT_SMR_0>
-0.50892949

>  <GCUT_SMR_1>
-0.15725005

>  <GCUT_SMR_2>
0.033313893

>  <GCUT_SMR_3>
2.6389854

>  <Kier1>
13.066667

>  <Kier2>
6.5540166

>  <Kier3>
3.2256

>  <KierA1>
11.045362

>  <KierA2>
5.4684806

>  <KierA3>
2.6627915

>  <KierFlex>
4.0267568

>  <lip_acc>
4

>  <lip_don>
2

>  <lip_druglike>
1

>  <lip_violation>
0

>  <logP(o/w)>
0.69147998

>  <logS>
-1.26241

>  <mr>
5.9201584

>  <mutagenic>
0

>  <nmol>
1

>  <opr_brigid>
6

>  <opr_leadlike>
1

>  <opr_nring>
1

>  <opr_nrot>
5

>  <opr_violation>
0

>  <PC+>
0

>  <PC->
0

>  <PEOE_PC+>
1.4738331

>  <PEOE_PC->
-1.4738331

>  <PEOE_RPC+>
0.092039876

>  <PEOE_RPC->
0.23425007

>  <PEOE_VSA+0>
92.05452

>  <PEOE_VSA+1>
46.919247

>  <PEOE_VSA+2>
42.613583

>  <PEOE_VSA+3>
0

>  <PEOE_VSA+4>
0

>  <PEOE_VSA+5>
0

>  <PEOE_VSA+6>
0

>  <PEOE_VSA-0>
48.611984

>  <PEOE_VSA-1>
0

>  <PEOE_VSA-2>
0

>  <PEOE_VSA-3>
0

>  <PEOE_VSA-4>
0

>  <PEOE_VSA-5>
0

>  <PEOE_VSA-6>
14.162388

>  <PEOE_VSA_FHYD>
0.94204336

>  <PEOE_VSA_FNEG>
0.25689119

>  <PEOE_VSA_FPNEG>
0.057956655

>  <PEOE_VSA_FPOL>
0.057956655

>  <PEOE_VSA_FPOS>
0.74310881

>  <PEOE_VSA_FPPOS>
0

>  <PEOE_VSA_HYD>
230.19933

>  <PEOE_VSA_NEG>
62.774372

>  <PEOE_VSA_PNEG>
14.162388

>  <PEOE_VSA_POL>
14.162388

>  <PEOE_VSA_POS>
181.58734

>  <PEOE_VSA_PPOS>
0

>  <petitjean>
0.375

>  <petitjeanSC>
0.60000002

>  <Q_PC+>
0

>  <Q_PC->
0

>  <Q_RPC+>
0

>  <Q_RPC->
0

>  <Q_VSA_FHYD>
1

>  <Q_VSA_FNEG>
0

>  <Q_VSA_FPNEG>
0

>  <Q_VSA_FPOL>
0

>  <Q_VSA_FPOS>
1

>  <Q_VSA_FPPOS>
0

>  <Q_VSA_HYD>
244.36172

>  <Q_VSA_NEG>
0

>  <Q_VSA_PNEG>
0

>  <Q_VSA_POL>
0

>  <Q_VSA_POS>
244.36172

>  <Q_VSA_PPOS>
0

>  <radius>
5

>  <reactive>
0

>  <rings>
1

>  <RPC+>
0

>  <RPC->
0

>  <rsynth>
1

>  <SlogP>
1.21357

>  <SlogP_VSA0>
65.896851

>  <SlogP_VSA1>
0

>  <SlogP_VSA2>
0

>  <SlogP_VSA3>
18.439579

>  <SlogP_VSA4>
3.185575

>  <SlogP_VSA5>
125.02001

>  <SlogP_VSA6>
0

>  <SlogP_VSA7>
35.286369

>  <SlogP_VSA8>
0

>  <SlogP_VSA9>
15.730285

>  <SMR>
5.8856401

>  <SMR_VSA0>
0

>  <SMR_VSA1>
32.999664

>  <SMR_VSA2>
0

>  <SMR_VSA3>
18.915859

>  <SMR_VSA4>
32.897186

>  <SMR_VSA5>
54.154774

>  <SMR_VSA6>
18.439579

>  <SMR_VSA7>
106.1516

>  <TPSA>
53.709999

>  <VAdjEq>
0.56650949

>  <VAdjMa>
4.9068904

>  <VDistEq>
2.711736

>  <VDistMa>
7.5345521

>  <vdw_area>
244.36172

>  <vdw_vol>
297.67136

>  <vsa_acc>
7.5112681

>  <vsa_acid>
0

>  <vsa_base>
0

>  <vsa_don>
0

>  <vsa_hyd>
202.28438

>  <vsa_other>
0

>  <vsa_pol>
25.253757

>  <Weight>
211.261

>  <weinerPath>
362

>  <weinerPol>
22

>  <zagreb>
68

$$$$