S1CCN2C[C@@H](N=C12)c1ccccc1
  MOE2013           2D

 14 16  0  0  1  0  0  0  0  0999 V2000
    0.0000    0.0000    0.0000 S   0  0  0  0  0  0  0  0  0  0  0  0
    0.8820    1.2140    0.0000 C   0  0  0  0  0  0  0  0  0  0  0  0
    0.0000    2.4270    0.0000 C   0  0  0  0  0  0  0  0  0  0  0  0
   -1.4270    1.9640    0.0000 N   0  0  0  0  0  0  0  0  0  0  0  0
   -2.8530    2.4270    0.0000 C   0  0  0  0  0  0  0  0  0  0  0  0
   -3.7350    1.2140    0.0000 C   0  0  1  0  0  0  0  0  0  0  0  0
   -2.8530    0.0000    0.0000 N   0  0  0  0  0  0  0  0  0  0  0  0
   -1.4270    0.4640    0.0000 C   0  0  0  0  0  0  0  0  0  0  0  0
   -5.2350    1.2140    0.0000 C   0  0  0  0  0  0  0  0  0  0  0  0
   -5.9850   -0.0860    0.0000 C   0  0  0  0  0  0  0  0  0  0  0  0
   -7.4850   -0.0860    0.0000 C   0  0  0  0  0  0  0  0  0  0  0  0
   -8.2350    1.2140    0.0000 C   0  0  0  0  0  0  0  0  0  0  0  0
   -7.4850    2.5130    0.0000 C   0  0  0  0  0  0  0  0  0  0  0  0
   -5.9850    2.5130    0.0000 C   0  0  0  0  0  0  0  0  0  0  0  0
  1  2  1  0  0  0  0
  1  8  1  0  0  0  0
  2  3  1  0  0  0  0
  3  4  1  0  0  0  0
  4  5  1  0  0  0  0
  4  8  1  0  0  0  0
  5  6  1  0  0  0  0
  6  7  1  0  0  0  0
  6  9  1  1  0  0  0
  7  8  2  0  0  0  0
  9 10  1  0  0  0  0
  9 14  2  0  0  0  0
 10 11  2  0  0  0  0
 11 12  1  0  0  0  0
 12 13  2  0  0  0  0
 13 14  1  0  0  0  0
M  END
>  <Index>
604

>  <ID>
HT1191

>  <class>
0

>  <apol>
32.461517

>  <ast_fraglike>
1

>  <ast_fraglike_ext>
1

>  <ast_violation>
0

>  <ast_violation_ext>
0

>  <a_acc>
1

>  <a_acid>
0

>  <a_aro>
6

>  <a_base>
0

>  <a_count>
26

>  <a_don>
0

>  <a_donacc>
1

>  <a_heavy>
14

>  <a_hyd>
11

>  <a_IC>
39.138134

>  <a_ICM>
1.5053129

>  <a_nB>
0

>  <a_nBr>
0

>  <a_nC>
11

>  <a_nCl>
0

>  <a_nF>
0

>  <a_nH>
12

>  <a_nI>
0

>  <a_nN>
2

>  <a_nO>
0

>  <a_nP>
0

>  <a_nS>
1

>  <balabanJ>
1.5977321

>  <BCUT_PEOE_0>
-2.5126796

>  <BCUT_PEOE_1>
-0.60366809

>  <BCUT_PEOE_2>
0.65812874

>  <BCUT_PEOE_3>
2.633317

>  <BCUT_SLOGP_0>
-2.5962408

>  <BCUT_SLOGP_1>
-0.49636453

>  <BCUT_SLOGP_2>
0.76320654

>  <BCUT_SLOGP_3>
2.6311495

>  <BCUT_SMR_0>
-2.246577

>  <BCUT_SMR_1>
-0.46180621

>  <BCUT_SMR_2>
0.80744159

>  <BCUT_SMR_3>
2.9525256

>  <bpol>
18.698484

>  <b_1rotN>
1

>  <b_1rotR>
0.0625

>  <b_ar>
6

>  <b_count>
28

>  <b_double>
1

>  <b_heavy>
16

>  <b_max1len>
2

>  <b_rotN>
1

>  <b_rotR>
0.0625

>  <b_single>
21

>  <b_triple>
0

>  <chi0>
9.3804693

>  <chi0v>
8.7045937

>  <chi0v_C>
6.585422

>  <chi0_C>
7.388905

>  <chi1>
6.932653

>  <chi1v>
5.9238729

>  <chi1v_C>
3.1076071

>  <chi1_C>
4.0580783

>  <chiral>
1

>  <chiral_u>
0

>  <density>
0.74844658

>  <diameter>
8

>  <FCharge>
0

>  <GCUT_PEOE_0>
-0.86165386

>  <GCUT_PEOE_1>
-0.3814995

>  <GCUT_PEOE_2>
0.072493128

>  <GCUT_PEOE_3>
2.4223385

>  <GCUT_SLOGP_0>
-0.97498566

>  <GCUT_SLOGP_1>
-0.2682969

>  <GCUT_SLOGP_2>
0.15577753

>  <GCUT_SLOGP_3>
2.4986567

>  <GCUT_SMR_0>
-0.51274949

>  <GCUT_SMR_1>
-0.19999109

>  <GCUT_SMR_2>
0.19107588

>  <GCUT_SMR_3>
2.7250261

>  <Kier1>
9.2421875

>  <Kier2>
3.8677685

>  <Kier3>
1.76

>  <KierA1>
7.7669067

>  <KierA2>
3.2032864

>  <KierA3>
1.4414062

>  <KierFlex>
1.7771162

>  <lip_acc>
2

>  <lip_don>
0

>  <lip_druglike>
1

>  <lip_violation>
0

>  <logP(o/w)>
2.322

>  <logS>
-2.86531

>  <mr>
5.9301748

>  <mutagenic>
0

>  <nmol>
1

>  <opr_brigid>
15

>  <opr_leadlike>
1

>  <opr_nring>
3

>  <opr_nrot>
1

>  <opr_violation>
0

>  <PC+>
0

>  <PC->
0

>  <PEOE_PC+>
1.0048137

>  <PEOE_PC->
-1.0048137

>  <PEOE_RPC+>
0.16037855

>  <PEOE_RPC->
0.34600016

>  <PEOE_VSA+0>
54.123569

>  <PEOE_VSA+1>
37.269047

>  <PEOE_VSA+2>
0

>  <PEOE_VSA+3>
13.166624

>  <PEOE_VSA+4>
0

>  <PEOE_VSA+5>
0

>  <PEOE_VSA+6>
0

>  <PEOE_VSA-0>
2.2085397

>  <PEOE_VSA-1>
81.035141

>  <PEOE_VSA-2>
0

>  <PEOE_VSA-3>
0

>  <PEOE_VSA-4>
0

>  <PEOE_VSA-5>
5.6825762

>  <PEOE_VSA-6>
0

>  <PEOE_VSA_FHYD>
0.97063047

>  <PEOE_VSA_FNEG>
0.45960164

>  <PEOE_VSA_FPNEG>
0.02936952

>  <PEOE_VSA_FPOL>
0.02936952

>  <PEOE_VSA_FPOS>
0.54039836

>  <PEOE_VSA_FPPOS>
0

>  <PEOE_VSA_HYD>
187.80292

>  <PEOE_VSA_NEG>
88.926254

>  <PEOE_VSA_PNEG>
5.6825762

>  <PEOE_VSA_POL>
5.6825762

>  <PEOE_VSA_POS>
104.55924

>  <PEOE_VSA_PPOS>
0

>  <petitjean>
0.5

>  <petitjeanSC>
1

>  <Q_PC+>
0

>  <Q_PC->
0

>  <Q_RPC+>
0

>  <Q_RPC->
0

>  <Q_VSA_FHYD>
1

>  <Q_VSA_FNEG>
0

>  <Q_VSA_FPNEG>
0

>  <Q_VSA_FPOL>
0

>  <Q_VSA_FPOS>
1

>  <Q_VSA_FPPOS>
0

>  <Q_VSA_HYD>
193.48549

>  <Q_VSA_NEG>
0

>  <Q_VSA_PNEG>
0

>  <Q_VSA_POL>
0

>  <Q_VSA_POS>
193.48549

>  <Q_VSA_PPOS>
0

>  <radius>
4

>  <reactive>
0

>  <rings>
3

>  <RPC+>
0

>  <RPC->
0

>  <rsynth>
1

>  <SlogP>
2.2416

>  <SlogP_VSA0>
0

>  <SlogP_VSA1>
3.8173931

>  <SlogP_VSA2>
0

>  <SlogP_VSA3>
54.11272

>  <SlogP_VSA4>
3.185575

>  <SlogP_VSA5>
16.78553

>  <SlogP_VSA6>
0

>  <SlogP_VSA7>
88.215919

>  <SlogP_VSA8>
3.9819686

>  <SlogP_VSA9>
32.21954

>  <SMR>
6.0760999

>  <SMR_VSA0>
0

>  <SMR_VSA1>
19.909843

>  <SMR_VSA2>
0

>  <SMR_VSA3>
7.1675434

>  <SMR_VSA4>
0

>  <SMR_VSA5>
88.215919

>  <SMR_VSA6>
54.805801

>  <SMR_VSA7>
32.21954

>  <TPSA>
15.6

>  <VAdjEq>
0.64206427

>  <VAdjMa>
5

>  <VDistEq>
2.720238

>  <VDistMa>
7.2888889

>  <vdw_area>
193.48549

>  <vdw_vol>
272.96136

>  <vsa_acc>
5.6825762

>  <vsa_acid>
0

>  <vsa_base>
0

>  <vsa_don>
0

>  <vsa_hyd>
166.09476

>  <vsa_other>
13.166624

>  <vsa_pol>
5.6825762

>  <Weight>
204.297

>  <weinerPath>
298

>  <weinerPol>
17

>  <zagreb>
76

$$$$