O=C1C=C2[C@@]([C@@H]3[C@H]([C@@H]4CC[C@](O)(C(=O)COC(=O)CCC(O)=O)[C@]4(C[C@@H]3O)C)C[C@@H]2C)(C=C1)C
  MOE2013           2D

 34 37  0  0  1  0  0  0  0  0999 V2000
    0.0000    0.0000    0.0000 O   0  0  0  0  0  0  0  0  0  0  0  0
    1.5000    0.0070    0.0000 C   0  0  0  0  0  0  0  0  0  0  0  0
    2.2560   -1.2890    0.0000 C   0  0  0  0  0  0  0  0  0  0  0  0
    3.7560   -1.2820    0.0000 C   0  0  0  0  0  0  0  0  0  0  0  0
    4.5000    0.0210    0.0000 C   0  0  1  0  0  0  0  0  0  0  0  0
    6.0000    0.0270    0.0000 C   0  0  2  0  0  0  0  0  0  0  0  0
    6.7560   -1.2680    0.0000 C   0  0  2  0  0  0  0  0  0  0  0  0
    8.2560   -1.2610    0.0000 C   0  0  2  0  0  0  0  0  0  0  0  0
    9.2650   -2.3710    0.0000 C   0  0  0  0  0  0  0  0  0  0  0  0
   10.6320   -1.7550    0.0000 C   0  0  0  0  0  0  0  0  0  0  0  0
   10.4690   -0.2640    0.0000 C   0  0  2  0  0  0  0  0  0  0  0  0
   10.8500    1.1870    0.0000 O   0  0  0  0  0  0  0  0  0  0  0  0
   11.9290    0.0800    0.0000 C   0  0  0  0  0  0  0  0  0  0  0  0
   12.3610    1.5170    0.0000 O   0  0  0  0  0  0  0  0  0  0  0  0
   12.9570   -1.0120    0.0000 C   0  0  0  0  0  0  0  0  0  0  0  0
   14.4170   -0.6680    0.0000 O   0  0  0  0  0  0  0  0  0  0  0  0
   15.4450   -1.7600    0.0000 C   0  0  0  0  0  0  0  0  0  0  0  0
   15.0130   -3.1970    0.0000 O   0  0  0  0  0  0  0  0  0  0  0  0
   16.9050   -1.4160    0.0000 C   0  0  0  0  0  0  0  0  0  0  0  0
   17.9330   -2.5090    0.0000 C   0  0  0  0  0  0  0  0  0  0  0  0
   19.3930   -2.1640    0.0000 C   0  0  0  0  0  0  0  0  0  0  0  0
   19.8250   -0.7280    0.0000 O   0  0  0  0  0  0  0  0  0  0  0  0
   20.4210   -3.2570    0.0000 O   0  0  0  0  0  0  0  0  0  0  0  0
    9.0000    0.0410    0.0000 C   0  0  1  0  0  0  0  0  0  0  0  0
    8.2440    1.3370    0.0000 C   0  0  0  0  0  0  0  0  0  0  0  0
    6.7440    1.3300    0.0000 C   0  0  2  0  0  0  0  0  0  0  0  0
    5.9880    2.6260    0.0000 O   0  0  0  0  0  0  0  0  0  0  0  0
    9.8760    1.2590    0.0000 C   0  0  0  0  0  0  0  0  0  0  0  0
    6.0120   -2.5710    0.0000 C   0  0  0  0  0  0  0  0  0  0  0  0
    4.5120   -2.5770    0.0000 C   0  0  2  0  0  0  0  0  0  0  0  0
    3.7680   -3.8800    0.0000 C   0  0  0  0  0  0  0  0  0  0  0  0
    3.7440    1.3160    0.0000 C   0  0  0  0  0  0  0  0  0  0  0  0
    2.2440    1.3090    0.0000 C   0  0  0  0  0  0  0  0  0  0  0  0
    5.2670    1.3100    0.0000 C   0  0  0  0  0  0  0  0  0  0  0  0
  1  2  2  0  0  0  0
  2  3  1  0  0  0  0
  2 33  1  0  0  0  0
  3  4  2  0  0  0  0
  4  5  1  0  0  0  0
  4 30  1  0  0  0  0
  5 32  1  0  0  0  0
  5 34  1  1  0  0  0
  6  5  1  1  0  0  0
  6  7  1  0  0  0  0
  6 26  1  0  0  0  0
  7  8  1  0  0  0  0
  7 29  1  6  0  0  0
  8  9  1  1  0  0  0
  8 24  1  0  0  0  0
  9 10  1  0  0  0  0
 10 11  1  0  0  0  0
 11 12  1  6  0  0  0
 11 13  1  1  0  0  0
 11 24  1  0  0  0  0
 13 14  2  0  0  0  0
 13 15  1  0  0  0  0
 15 16  1  0  0  0  0
 16 17  1  0  0  0  0
 17 18  2  0  0  0  0
 17 19  1  0  0  0  0
 19 20  1  0  0  0  0
 20 21  1  0  0  0  0
 21 22  1  0  0  0  0
 21 23  2  0  0  0  0
 24 25  1  0  0  0  0
 24 28  1  1  0  0  0
 25 26  1  0  0  0  0
 26 27  1  1  0  0  0
 29 30  1  0  0  0  0
 30 31  1  6  0  0  0
 32 33  2  0  0  0  0
M  END
>  <Index>
697

>  <ID>
HT1366

>  <class>
0

>  <apol>
74.846962

>  <ast_fraglike>
0

>  <ast_fraglike_ext>
0

>  <ast_violation>
3

>  <ast_violation_ext>
5

>  <a_acc>
7

>  <a_acid>
0

>  <a_aro>
0

>  <a_base>
0

>  <a_count>
68

>  <a_don>
4

>  <a_donacc>
11

>  <a_heavy>
34

>  <a_hyd>
22

>  <a_IC>
94.762306

>  <a_ICM>
1.3935633

>  <a_nB>
0

>  <a_nBr>
0

>  <a_nC>
26

>  <a_nCl>
0

>  <a_nF>
0

>  <a_nH>
34

>  <a_nI>
0

>  <a_nN>
0

>  <a_nO>
8

>  <a_nP>
0

>  <a_nS>
0

>  <balabanJ>
1.5169598

>  <BCUT_PEOE_0>
-2.9289408

>  <BCUT_PEOE_1>
-0.51120585

>  <BCUT_PEOE_2>
0.50052756

>  <BCUT_PEOE_3>
2.9781742

>  <BCUT_SLOGP_0>
-2.9063897

>  <BCUT_SLOGP_1>
-0.46775252

>  <BCUT_SLOGP_2>
0.46346948

>  <BCUT_SLOGP_3>
3.0073693

>  <BCUT_SMR_0>
-2.6822667

>  <BCUT_SMR_1>
-0.33893558

>  <BCUT_SMR_2>
0.61921567

>  <BCUT_SMR_3>
3.2187698

>  <bpol>
42.917038

>  <b_1rotN>
6

>  <b_1rotR>
0.16216215

>  <b_ar>
0

>  <b_count>
71

>  <b_double>
6

>  <b_heavy>
37

>  <b_max1len>
5

>  <b_rotN>
7

>  <b_rotR>
0.1891892

>  <b_single>
65

>  <b_triple>
0

>  <chi0>
25.051678

>  <chi0v>
19.951431

>  <chi0v_C>
16.56855

>  <chi0_C>
17.34457

>  <chi1>
15.830877

>  <chi1v>
12.096878

>  <chi1v_C>
10.08217

>  <chi1_C>
10.958528

>  <chiral>
8

>  <chiral_u>
0

>  <density>
0.76219428

>  <diameter>
17

>  <FCharge>
0

>  <GCUT_PEOE_0>
-0.80097389

>  <GCUT_PEOE_1>
-0.41702655

>  <GCUT_PEOE_2>
0.058219433

>  <GCUT_PEOE_3>
3.3899703

>  <GCUT_SLOGP_0>
-0.94067502

>  <GCUT_SLOGP_1>
-0.352451

>  <GCUT_SLOGP_2>
0.0072366381

>  <GCUT_SLOGP_3>
3.4271338

>  <GCUT_SMR_0>
-0.53714168

>  <GCUT_SMR_1>
-0.22976497

>  <GCUT_SMR_2>
0.15645872

>  <GCUT_SMR_3>
3.6141722

>  <Kier1>
27.046019

>  <Kier2>
9.7075558

>  <Kier3>
4.4988661

>  <KierA1>
23.070848

>  <KierA2>
8.2389994

>  <KierA3>
3.8047335

>  <KierFlex>
5.5906091

>  <lip_acc>
8

>  <lip_don>
3

>  <lip_druglike>
1

>  <lip_violation>
0

>  <logP(o/w)>
2.2920001

>  <logS>
-4.2425098

>  <mr>
12.221783

>  <mutagenic>
0

>  <nmol>
1

>  <opr_brigid>
20

>  <opr_leadlike>
1

>  <opr_nring>
4

>  <opr_nrot>
6

>  <opr_violation>
1

>  <PC+>
0

>  <PC->
0

>  <PEOE_PC+>
3.0479975

>  <PEOE_PC->
-3.0479975

>  <PEOE_RPC+>
0.086297818

>  <PEOE_RPC->
0.12842707

>  <PEOE_VSA+0>
124.03728

>  <PEOE_VSA+1>
30.497244

>  <PEOE_VSA+2>
14.951293

>  <PEOE_VSA+3>
16.917038

>  <PEOE_VSA+4>
30.972517

>  <PEOE_VSA+5>
29.416998

>  <PEOE_VSA+6>
0

>  <PEOE_VSA-0>
59.31506

>  <PEOE_VSA-1>
70.706474

>  <PEOE_VSA-2>
0

>  <PEOE_VSA-3>
0

>  <PEOE_VSA-4>
0

>  <PEOE_VSA-5>
54.267685

>  <PEOE_VSA-6>
25.806377

>  <PEOE_VSA_FHYD>
0.69256449

>  <PEOE_VSA_FNEG>
0.45984051

>  <PEOE_VSA_FPNEG>
0.17525972

>  <PEOE_VSA_FPOL>
0.30743548

>  <PEOE_VSA_FPOS>
0.54015946

>  <PEOE_VSA_FPPOS>
0.13217576

>  <PEOE_VSA_HYD>
316.42438

>  <PEOE_VSA_NEG>
210.0956

>  <PEOE_VSA_PNEG>
80.074059

>  <PEOE_VSA_POL>
140.46358

>  <PEOE_VSA_POS>
246.79237

>  <PEOE_VSA_PPOS>
60.389515

>  <petitjean>
0.47058824

>  <petitjeanSC>
0.8888889

>  <Q_PC+>
0

>  <Q_PC->
0

>  <Q_RPC+>
0

>  <Q_RPC->
0

>  <Q_VSA_FHYD>
1

>  <Q_VSA_FNEG>
0

>  <Q_VSA_FPNEG>
0

>  <Q_VSA_FPOL>
0

>  <Q_VSA_FPOS>
1

>  <Q_VSA_FPPOS>
0

>  <Q_VSA_HYD>
456.88797

>  <Q_VSA_NEG>
0

>  <Q_VSA_PNEG>
0

>  <Q_VSA_POL>
0

>  <Q_VSA_POS>
456.88797

>  <Q_VSA_PPOS>
0

>  <radius>
9

>  <reactive>
1

>  <rings>
4

>  <RPC+>
0

>  <RPC->
0

>  <rsynth>
0.47058824

>  <SlogP>
2.2193

>  <SlogP_VSA0>
50.770454

>  <SlogP_VSA1>
26.86615

>  <SlogP_VSA2>
112.9174

>  <SlogP_VSA3>
46.311485

>  <SlogP_VSA4>
17.643185

>  <SlogP_VSA5>
3.185575

>  <SlogP_VSA6>
0

>  <SlogP_VSA7>
52.929554

>  <SlogP_VSA8>
113.21043

>  <SlogP_VSA9>
99.978043

>  <SMR>
12.03384

>  <SMR_VSA0>
106.44875

>  <SMR_VSA1>
50.770454

>  <SMR_VSA2>
43.028412

>  <SMR_VSA3>
9.6542244

>  <SMR_VSA4>
0

>  <SMR_VSA5>
166.13998

>  <SMR_VSA6>
47.792408

>  <SMR_VSA7>
99.978043

>  <TPSA>
138.2

>  <VAdjEq>
0.34317648

>  <VAdjMa>
6.2094536

>  <VDistEq>
3.7272267

>  <VDistMa>
9.8700972

>  <vdw_area>
456.88797

>  <vdw_vol>
622.61029

>  <vsa_acc>
40.700764

>  <vsa_acid>
0

>  <vsa_base>
0

>  <vsa_don>
0

>  <vsa_hyd>
272.06149

>  <vsa_other>
48.837795

>  <vsa_pol>
94.968445

>  <Weight>
474.54999

>  <weinerPath>
3382

>  <weinerPol>
70

>  <zagreb>
192

$$$$