O=C1N(N(C)C(C)=C1N(C)C)c1ccccc1
  MOE2013           2D

 17 18  0  0  1  0  0  0  0  0999 V2000
    0.0000    0.0000    0.0000 O   0  0  0  0  0  0  0  0  0  0  0  0
    0.2430    1.4800    0.0000 C   0  0  0  0  0  0  0  0  0  0  0  0
   -0.8110    2.5470    0.0000 N   0  0  0  0  0  0  0  0  0  0  0  0
   -0.1230    3.8790    0.0000 N   0  0  3  0  0  0  0  0  0  0  0  0
   -0.7960    5.2200    0.0000 C   0  0  0  0  0  0  0  0  0  0  0  0
    1.3580    3.6360    0.0000 C   0  0  0  0  0  0  0  0  0  0  0  0
    2.4240    4.6910    0.0000 C   0  0  0  0  0  0  0  0  0  0  0  0
    1.5840    2.1530    0.0000 C   0  0  0  0  0  0  0  0  0  0  0  0
    2.9160    1.4650    0.0000 N   0  0  0  0  0  0  0  0  0  0  0  0
    2.9860   -0.0340    0.0000 C   0  0  0  0  0  0  0  0  0  0  0  0
    4.1790    2.2740    0.0000 C   0  0  0  0  0  0  0  0  0  0  0  0
   -2.2940    2.3210    0.0000 C   0  0  0  0  0  0  0  0  0  0  0  0
   -2.8400    0.9240    0.0000 C   0  0  0  0  0  0  0  0  0  0  0  0
   -4.3230    0.6980    0.0000 C   0  0  0  0  0  0  0  0  0  0  0  0
   -5.2600    1.8690    0.0000 C   0  0  0  0  0  0  0  0  0  0  0  0
   -4.7140    3.2660    0.0000 C   0  0  0  0  0  0  0  0  0  0  0  0
   -3.2310    3.4920    0.0000 C   0  0  0  0  0  0  0  0  0  0  0  0
  1  2  2  0  0  0  0
  2  3  1  0  0  0  0
  2  8  1  0  0  0  0
  3  4  1  0  0  0  0
  3 12  1  0  0  0  0
  4  5  1  0  0  0  0
  4  6  1  0  0  0  0
  6  7  1  0  0  0  0
  6  8  2  0  0  0  0
  8  9  1  0  0  0  0
  9 10  1  0  0  0  0
  9 11  1  0  0  0  0
 12 13  1  0  0  0  0
 12 17  2  0  0  0  0
 13 14  2  0  0  0  0
 14 15  1  0  0  0  0
 15 16  2  0  0  0  0
 16 17  1  0  0  0  0
M  END
>  <Index>
67

>  <ID>
HT0138

>  <class>
0

>  <apol>
38.317482

>  <ast_fraglike>
1

>  <ast_fraglike_ext>
1

>  <ast_violation>
0

>  <ast_violation_ext>
0

>  <a_acc>
1

>  <a_acid>
0

>  <a_aro>
6

>  <a_base>
0

>  <a_count>
34

>  <a_don>
0

>  <a_donacc>
1

>  <a_heavy>
17

>  <a_hyd>
12

>  <a_IC>
50.626263

>  <a_ICM>
1.4890078

>  <a_nB>
0

>  <a_nBr>
0

>  <a_nC>
13

>  <a_nCl>
0

>  <a_nF>
0

>  <a_nH>
17

>  <a_nI>
0

>  <a_nN>
3

>  <a_nO>
1

>  <a_nP>
0

>  <a_nS>
0

>  <balabanJ>
2.1245601

>  <BCUT_PEOE_0>
-2.4661179

>  <BCUT_PEOE_1>
-0.49427119

>  <BCUT_PEOE_2>
0.56877714

>  <BCUT_PEOE_3>
2.5096123

>  <BCUT_SLOGP_0>
-2.5454006

>  <BCUT_SLOGP_1>
-0.42988262

>  <BCUT_SLOGP_2>
0.62364972

>  <BCUT_SLOGP_3>
2.4839268

>  <BCUT_SMR_0>
-2.1834095

>  <BCUT_SMR_1>
-0.22724576

>  <BCUT_SMR_2>
0.71065366

>  <BCUT_SMR_3>
2.8170152

>  <bpol>
24.162519

>  <b_1rotN>
2

>  <b_1rotR>
0.11111111

>  <b_ar>
6

>  <b_count>
35

>  <b_double>
2

>  <b_heavy>
18

>  <b_max1len>
4

>  <b_rotN>
2

>  <b_rotR>
0.11111111

>  <b_single>
27

>  <b_triple>
0

>  <chi0>
12.576985

>  <chi0v>
10.636641

>  <chi0v_C>
8.8867512

>  <chi0_C>
9.8449354

>  <chi1>
8.036581

>  <chi1v>
5.5508757

>  <chi1v_C>
2.9106836

>  <chi1_C>
4.0605135

>  <chiral>
0

>  <chiral_u>
0

>  <density>
0.69219726

>  <diameter>
8

>  <FCharge>
0

>  <GCUT_PEOE_0>
-0.84315532

>  <GCUT_PEOE_1>
-0.38401532

>  <GCUT_PEOE_2>
-0.0013145914

>  <GCUT_PEOE_3>
2.5036967

>  <GCUT_SLOGP_0>
-1.0236237

>  <GCUT_SLOGP_1>
-0.26386139

>  <GCUT_SLOGP_2>
0.043040257

>  <GCUT_SLOGP_3>
2.5325353

>  <GCUT_SMR_0>
-0.50434637

>  <GCUT_SMR_1>
-0.18013854

>  <GCUT_SMR_2>
0.15546076

>  <GCUT_SMR_3>
2.786483

>  <Kier1>
13.432098

>  <Kier2>
5.3254437

>  <Kier3>
2.4197531

>  <KierA1>
9.3622561

>  <KierA2>
3.6196055

>  <KierA3>
1.6117735

>  <KierFlex>
1.9933926

>  <lip_acc>
4

>  <lip_don>
0

>  <lip_druglike>
1

>  <lip_violation>
0

>  <logP(o/w)>
1.345

>  <logS>
-1.94486

>  <mr>
6.7236857

>  <mutagenic>
0

>  <nmol>
1

>  <opr_brigid>
11

>  <opr_leadlike>
1

>  <opr_nring>
2

>  <opr_nrot>
2

>  <opr_violation>
0

>  <PC+>
0

>  <PC->
0

>  <PEOE_PC+>
1.2565368

>  <PEOE_PC->
-1.2565368

>  <PEOE_RPC+>
0.22741994

>  <PEOE_RPC->
0.21869357

>  <PEOE_VSA+0>
81.122871

>  <PEOE_VSA+1>
34.726032

>  <PEOE_VSA+2>
0

>  <PEOE_VSA+3>
0

>  <PEOE_VSA+4>
0

>  <PEOE_VSA+5>
12.949531

>  <PEOE_VSA+6>
0

>  <PEOE_VSA-0>
89.734863

>  <PEOE_VSA-1>
36.764713

>  <PEOE_VSA-2>
0

>  <PEOE_VSA-3>
0

>  <PEOE_VSA-4>
0

>  <PEOE_VSA-5>
13.566921

>  <PEOE_VSA-6>
0

>  <PEOE_VSA_FHYD>
0.90137631

>  <PEOE_VSA_FNEG>
0.52095485

>  <PEOE_VSA_FPNEG>
0.050459985

>  <PEOE_VSA_FPOL>
0.098623693

>  <PEOE_VSA_FPOS>
0.47904512

>  <PEOE_VSA_FPPOS>
0.048163705

>  <PEOE_VSA_HYD>
242.34848

>  <PEOE_VSA_NEG>
140.0665

>  <PEOE_VSA_PNEG>
13.566921

>  <PEOE_VSA_POL>
26.516451

>  <PEOE_VSA_POS>
128.79843

>  <PEOE_VSA_PPOS>
12.949531

>  <petitjean>
0.5

>  <petitjeanSC>
1

>  <Q_PC+>
0

>  <Q_PC->
0

>  <Q_RPC+>
0

>  <Q_RPC->
0

>  <Q_VSA_FHYD>
1

>  <Q_VSA_FNEG>
0

>  <Q_VSA_FPNEG>
0

>  <Q_VSA_FPOL>
0

>  <Q_VSA_FPOS>
1

>  <Q_VSA_FPPOS>
0

>  <Q_VSA_HYD>
268.86493

>  <Q_VSA_NEG>
0

>  <Q_VSA_PNEG>
0

>  <Q_VSA_POL>
0

>  <Q_VSA_POS>
268.86493

>  <Q_VSA_PPOS>
0

>  <radius>
4

>  <reactive>
0

>  <rings>
2

>  <RPC+>
0

>  <RPC->
0

>  <rsynth>
1

>  <SlogP>
1.6731

>  <SlogP_VSA0>
3.0017917

>  <SlogP_VSA1>
11.38489

>  <SlogP_VSA2>
23.862217

>  <SlogP_VSA3>
0

>  <SlogP_VSA4>
0

>  <SlogP_VSA5>
104.20506

>  <SlogP_VSA6>
0

>  <SlogP_VSA7>
88.215919

>  <SlogP_VSA8>
0

>  <SlogP_VSA9>
36.082764

>  <SMR>
6.8077998

>  <SMR_VSA0>
23.862217

>  <SMR_VSA1>
6.1261058

>  <SMR_VSA2>
3.0017917

>  <SMR_VSA3>
5.513495

>  <SMR_VSA4>
2.7567475

>  <SMR_VSA5>
88.215919

>  <SMR_VSA6>
5.2587838

>  <SMR_VSA7>
132.01758

>  <TPSA>
26.790001

>  <VAdjEq>
0.54234898

>  <VAdjMa>
5.1699252

>  <VDistEq>
2.7516141

>  <VDistMa>
7.9047651

>  <vdw_area>
268.86493

>  <vdw_vol>
334.15186

>  <vsa_acc>
13.566921

>  <vsa_acid>
0

>  <vsa_base>
0

>  <vsa_don>
0

>  <vsa_hyd>
230.24796

>  <vsa_other>
12.949531

>  <vsa_pol>
13.566921

>  <Weight>
231.299

>  <weinerPath>
478

>  <weinerPol>
28

>  <zagreb>
88

$$$$