O=C1C(CC)(CC)C(=O)NCC1C
  MOE2013           2D

 13 13  0  0  1  0  0  0  0  0999 V2000
    0.0000    0.0000    0.0000 O   0  0  0  0  0  0  0  0  0  0  0  0
    0.0090    1.5000    0.0000 C   0  0  0  0  0  0  0  0  0  0  0  0
   -1.2850    2.2580    0.0000 C   0  0  0  0  0  0  0  0  0  0  0  0
   -2.7850    2.2680    0.0000 C   0  0  0  0  0  0  0  0  0  0  0  0
   -3.5270    3.5710    0.0000 C   0  0  0  0  0  0  0  0  0  0  0  0
   -2.0430    0.9640    0.0000 C   0  0  0  0  0  0  0  0  0  0  0  0
   -3.5430    0.9730    0.0000 C   0  0  0  0  0  0  0  0  0  0  0  0
   -1.2750    3.7580    0.0000 C   0  0  0  0  0  0  0  0  0  0  0  0
   -2.5700    4.5160    0.0000 O   0  0  0  0  0  0  0  0  0  0  0  0
    0.0280    4.5000    0.0000 N   0  0  0  0  0  0  0  0  0  0  0  0
    1.3230    3.7420    0.0000 C   0  0  0  0  0  0  0  0  0  0  0  0
    1.3130    2.2420    0.0000 C   0  0  3  0  0  0  0  0  0  0  0  0
    2.6070    1.4840    0.0000 C   0  0  0  0  0  0  0  0  0  0  0  0
  1  2  2  0  0  0  0
  2  3  1  0  0  0  0
  2 12  1  0  0  0  0
  3  4  1  0  0  0  0
  3  6  1  0  0  0  0
  3  8  1  0  0  0  0
  4  5  1  0  0  0  0
  6  7  1  0  0  0  0
  8  9  2  0  0  0  0
  8 10  1  0  0  0  0
 10 11  1  0  0  0  0
 11 12  1  0  0  0  0
 12 13  1  0  0  0  0
M  END
>  <Index>
699

>  <ID>
HT1371

>  <class>
0

>  <apol>
31.639481

>  <ast_fraglike>
1

>  <ast_fraglike_ext>
1

>  <ast_violation>
0

>  <ast_violation_ext>
0

>  <a_acc>
2

>  <a_acid>
0

>  <a_aro>
0

>  <a_base>
0

>  <a_count>
30

>  <a_don>
1

>  <a_donacc>
3

>  <a_heavy>
13

>  <a_hyd>
8

>  <a_IC>
42.500568

>  <a_ICM>
1.4166856

>  <a_nB>
0

>  <a_nBr>
0

>  <a_nC>
10

>  <a_nCl>
0

>  <a_nF>
0

>  <a_nH>
17

>  <a_nI>
0

>  <a_nN>
1

>  <a_nO>
2

>  <a_nP>
0

>  <a_nS>
0

>  <balabanJ>
2.8769693

>  <BCUT_PEOE_0>
-2.7134731

>  <BCUT_PEOE_1>
-0.28215277

>  <BCUT_PEOE_2>
0.17914565

>  <BCUT_PEOE_3>
2.7616446

>  <BCUT_SLOGP_0>
-2.8251395

>  <BCUT_SLOGP_1>
-0.21551812

>  <BCUT_SLOGP_2>
0.21118341

>  <BCUT_SLOGP_3>
2.7407737

>  <BCUT_SMR_0>
-2.4728723

>  <BCUT_SMR_1>
-0.073190242

>  <BCUT_SMR_2>
0.27656937

>  <BCUT_SMR_3>
3.0016043

>  <bpol>
21.160519

>  <b_1rotN>
2

>  <b_1rotR>
0.15384616

>  <b_ar>
0

>  <b_count>
30

>  <b_double>
2

>  <b_heavy>
13

>  <b_max1len>
6

>  <b_rotN>
2

>  <b_rotR>
0.15384616

>  <b_single>
28

>  <b_triple>
0

>  <chi0>
10.060478

>  <chi0v>
8.5151672

>  <chi0v_C>
7.1986704

>  <chi0_C>
7.3533711

>  <chi1>
6.0805511

>  <chi1v>
4.9073958

>  <chi1v_C>
3.8955941

>  <chi1_C>
4.0176024

>  <chiral>
1

>  <chiral_u>
1

>  <density>
0.69694

>  <diameter>
5

>  <FCharge>
0

>  <GCUT_PEOE_0>
-0.83817452

>  <GCUT_PEOE_1>
-0.31896955

>  <GCUT_PEOE_2>
-0.069083676

>  <GCUT_PEOE_3>
2.6332295

>  <GCUT_SLOGP_0>
-1.163094

>  <GCUT_SLOGP_1>
-0.27338398

>  <GCUT_SLOGP_2>
-0.025063735

>  <GCUT_SLOGP_3>
2.617909

>  <GCUT_SMR_0>
-0.53106689

>  <GCUT_SMR_1>
-0.15051717

>  <GCUT_SMR_2>
0.014858845

>  <GCUT_SMR_3>
2.8557341

>  <Kier1>
11.076923

>  <Kier2>
4.0221605

>  <Kier3>
1.6460905

>  <KierA1>
9.1263952

>  <KierA2>
3.2555459

>  <KierA3>
1.312368

>  <KierFlex>
2.2854922

>  <lip_acc>
3

>  <lip_don>
1

>  <lip_druglike>
1

>  <lip_violation>
0

>  <logP(o/w)>
1.426

>  <logS>
-1.64289

>  <mr>
5.1649547

>  <mutagenic>
0

>  <nmol>
1

>  <opr_brigid>
6

>  <opr_leadlike>
1

>  <opr_nring>
1

>  <opr_nrot>
3

>  <opr_violation>
0

>  <PC+>
0

>  <PC->
0

>  <PEOE_PC+>
1.1742542

>  <PEOE_PC->
-1.1742542

>  <PEOE_RPC+>
0.19956635

>  <PEOE_RPC->
0.30187476

>  <PEOE_VSA+0>
81.438499

>  <PEOE_VSA+1>
0

>  <PEOE_VSA+2>
0

>  <PEOE_VSA+3>
17.077532

>  <PEOE_VSA+4>
12.949531

>  <PEOE_VSA+5>
0

>  <PEOE_VSA+6>
0

>  <PEOE_VSA-0>
17.402626

>  <PEOE_VSA-1>
56.243034

>  <PEOE_VSA-2>
0

>  <PEOE_VSA-3>
0

>  <PEOE_VSA-4>
0

>  <PEOE_VSA-5>
27.133842

>  <PEOE_VSA-6>
0.13689101

>  <PEOE_VSA_FHYD>
0.81062299

>  <PEOE_VSA_FNEG>
0.47516462

>  <PEOE_VSA_FPNEG>
0.12840419

>  <PEOE_VSA_FPOL>
0.18937702

>  <PEOE_VSA_FPOS>
0.52483541

>  <PEOE_VSA_FPPOS>
0.06097284

>  <PEOE_VSA_HYD>
172.1617

>  <PEOE_VSA_NEG>
100.91639

>  <PEOE_VSA_PNEG>
27.270733

>  <PEOE_VSA_POL>
40.220264

>  <PEOE_VSA_POS>
111.46556

>  <PEOE_VSA_PPOS>
12.949531

>  <petitjean>
0.40000001

>  <petitjeanSC>
0.66666669

>  <Q_PC+>
0

>  <Q_PC->
0

>  <Q_RPC+>
0

>  <Q_RPC->
0

>  <Q_VSA_FHYD>
1

>  <Q_VSA_FNEG>
0

>  <Q_VSA_FPNEG>
0

>  <Q_VSA_FPOL>
0

>  <Q_VSA_FPOS>
1

>  <Q_VSA_FPPOS>
0

>  <Q_VSA_HYD>
212.38196

>  <Q_VSA_NEG>
0

>  <Q_VSA_PNEG>
0

>  <Q_VSA_POL>
0

>  <Q_VSA_POS>
212.38196

>  <Q_VSA_PPOS>
0

>  <radius>
3

>  <reactive>
1

>  <rings>
1

>  <RPC+>
0

>  <RPC->
0

>  <rsynth>
1

>  <SlogP>
1.1278

>  <SlogP_VSA0>
18.01075

>  <SlogP_VSA1>
10.946395

>  <SlogP_VSA2>
47.724434

>  <SlogP_VSA3>
18.439579

>  <SlogP_VSA4>
4.4107962

>  <SlogP_VSA5>
0

>  <SlogP_VSA6>
0

>  <SlogP_VSA7>
0

>  <SlogP_VSA8>
37.736813

>  <SlogP_VSA9>
99.978043

>  <SMR>
5.0195699

>  <SMR_VSA0>
47.724434

>  <SMR_VSA1>
0

>  <SMR_VSA2>
22.421547

>  <SMR_VSA3>
0

>  <SMR_VSA4>
0

>  <SMR_VSA5>
37.736813

>  <SMR_VSA6>
29.385973

>  <SMR_VSA7>
99.978043

>  <TPSA>
46.169998

>  <VAdjEq>
0.6193822

>  <VAdjMa>
4.7004399

>  <VDistEq>
2.1834543

>  <VDistMa>
7.1522694

>  <vdw_area>
212.38196

>  <vdw_vol>
262.93655

>  <vsa_acc>
27.133842

>  <vsa_acid>
0

>  <vsa_base>
0

>  <vsa_don>
5.6825762

>  <vsa_hyd>
142.35039

>  <vsa_other>
21.408051

>  <vsa_pol>
32.816418

>  <Weight>
183.25099

>  <weinerPath>
216

>  <weinerPol>
24

>  <zagreb>
64

$$$$