OC(=O)[C@@H](N)Cc1c2c([nH]c1)cccc2
  MOE2013           2D

 15 16  0  0  1  0  0  0  0  0999 V2000
    0.0000    0.0000    0.0000 O   0  0  0  0  0  0  0  0  0  0  0  0
   -1.3010    0.7470    0.0000 C   0  0  0  0  0  0  0  0  0  0  0  0
   -1.3050    2.2470    0.0000 O   0  0  0  0  0  0  0  0  0  0  0  0
   -2.5980   -0.0070    0.0000 C   0  0  1  0  0  0  0  0  0  0  0  0
   -2.5940   -1.5070    0.0000 N   0  0  0  0  0  0  0  0  0  0  0  0
   -3.8990    0.7400    0.0000 C   0  0  0  0  0  0  0  0  0  0  0  0
   -5.1960   -0.0130    0.0000 C   0  0  0  0  0  0  0  0  0  0  0  0
   -6.5680    0.5940    0.0000 C   0  0  0  0  0  0  0  0  0  0  0  0
   -7.5690   -0.5240    0.0000 C   0  0  0  0  0  0  0  0  0  0  0  0
   -6.8160   -1.8210    0.0000 N   0  0  0  0  0  0  0  0  0  0  0  0
   -5.3490   -1.5050    0.0000 C   0  0  0  0  0  0  0  0  0  0  0  0
   -9.0370   -0.2160    0.0000 C   0  0  0  0  0  0  0  0  0  0  0  0
   -9.5040    1.2100    0.0000 C   0  0  0  0  0  0  0  0  0  0  0  0
   -8.5030    2.3270    0.0000 C   0  0  0  0  0  0  0  0  0  0  0  0
   -7.0350    2.0190    0.0000 C   0  0  0  0  0  0  0  0  0  0  0  0
  1  2  1  0  0  0  0
  2  3  2  0  0  0  0
  2  4  1  0  0  0  0
  4  5  1  1  0  0  0
  4  6  1  0  0  0  0
  6  7  1  0  0  0  0
  7  8  1  0  0  0  0
  7 11  2  0  0  0  0
  8  9  2  0  0  0  0
  8 15  1  0  0  0  0
  9 10  1  0  0  0  0
  9 12  1  0  0  0  0
 10 11  1  0  0  0  0
 12 13  2  0  0  0  0
 13 14  1  0  0  0  0
 14 15  2  0  0  0  0
M  END
>  <Index>
638

>  <ID>
HT1252

>  <class>
0

>  <apol>
31.165516

>  <ast_fraglike>
0

>  <ast_fraglike_ext>
0

>  <ast_violation>
1

>  <ast_violation_ext>
1

>  <a_acc>
3

>  <a_acid>
0

>  <a_aro>
9

>  <a_base>
0

>  <a_count>
27

>  <a_don>
4

>  <a_donacc>
7

>  <a_heavy>
15

>  <a_hyd>
10

>  <a_IC>
43.308666

>  <a_ICM>
1.6040246

>  <a_nB>
0

>  <a_nBr>
0

>  <a_nC>
11

>  <a_nCl>
0

>  <a_nF>
0

>  <a_nH>
12

>  <a_nI>
0

>  <a_nN>
2

>  <a_nO>
2

>  <a_nP>
0

>  <a_nS>
0

>  <balabanJ>
1.8900248

>  <BCUT_PEOE_0>
-2.4667499

>  <BCUT_PEOE_1>
-0.60193437

>  <BCUT_PEOE_2>
0.66452003

>  <BCUT_PEOE_3>
2.5096464

>  <BCUT_SLOGP_0>
-2.7308226

>  <BCUT_SLOGP_1>
-0.5129841

>  <BCUT_SLOGP_2>
0.73812342

>  <BCUT_SLOGP_3>
2.4489257

>  <BCUT_SMR_0>
-2.2209687

>  <BCUT_SMR_1>
-0.46400055

>  <BCUT_SMR_2>
0.80911434

>  <BCUT_SMR_3>
2.75805

>  <bpol>
14.076484

>  <b_1rotN>
3

>  <b_1rotR>
0.1875

>  <b_ar>
10

>  <b_count>
28

>  <b_double>
1

>  <b_heavy>
16

>  <b_max1len>
4

>  <b_rotN>
3

>  <b_rotR>
0.1875

>  <b_single>
17

>  <b_triple>
0

>  <chi0>
10.836499

>  <chi0v>
8.1040201

>  <chi0v_C>
6.1712084

>  <chi0_C>
7.1293921

>  <chi1>
7.1815405

>  <chi1v>
4.7162418

>  <chi1v_C>
3.4165022

>  <chi1_C>
4.5412416

>  <chiral>
1

>  <chiral_u>
0

>  <density>
0.75118005

>  <diameter>
8

>  <FCharge>
0

>  <GCUT_PEOE_0>
-0.86277878

>  <GCUT_PEOE_1>
-0.40816158

>  <GCUT_PEOE_2>
0.10186657

>  <GCUT_PEOE_3>
2.3860931

>  <GCUT_SLOGP_0>
-1.3634713

>  <GCUT_SLOGP_1>
-0.36080334

>  <GCUT_SLOGP_2>
0.1668465

>  <GCUT_SLOGP_3>
2.4653604

>  <GCUT_SMR_0>
-0.49874529

>  <GCUT_SMR_1>
-0.22825237

>  <GCUT_SMR_2>
0.20926911

>  <GCUT_SMR_3>
2.6797757

>  <Kier1>
11.484375

>  <Kier2>
4.8884296

>  <Kier3>
2.5714285

>  <KierA1>
8.2204742

>  <KierA2>
3.4068823

>  <KierA3>
1.7530622

>  <KierFlex>
1.8670791

>  <lip_acc>
4

>  <lip_don>
4

>  <lip_druglike>
1

>  <lip_violation>
0

>  <logP(o/w)>
-1.1567301

>  <logS>
-1.39701

>  <mr>
5.7346578

>  <mutagenic>
0

>  <nmol>
1

>  <opr_brigid>
10

>  <opr_leadlike>
1

>  <opr_nring>
2

>  <opr_nrot>
3

>  <opr_violation>
0

>  <PC+>
0

>  <PC->
0

>  <PEOE_PC+>
1.5054797

>  <PEOE_PC->
-1.5054797

>  <PEOE_RPC+>
0.18390311

>  <PEOE_RPC->
0.23936985

>  <PEOE_VSA+0>
34.18478

>  <PEOE_VSA+1>
28.738277

>  <PEOE_VSA+2>
17.238026

>  <PEOE_VSA+3>
8.6190128

>  <PEOE_VSA+4>
10.324173

>  <PEOE_VSA+5>
14.708499

>  <PEOE_VSA+6>
0

>  <PEOE_VSA-0>
23.164757

>  <PEOE_VSA-1>
36.764713

>  <PEOE_VSA-2>
0

>  <PEOE_VSA-3>
0

>  <PEOE_VSA-4>
0

>  <PEOE_VSA-5>
13.566921

>  <PEOE_VSA-6>
14.555551

>  <PEOE_VSA_FHYD>
0.73667938

>  <PEOE_VSA_FNEG>
0.43619284

>  <PEOE_VSA_FPNEG>
0.13931346

>  <PEOE_VSA_FPOL>
0.26332062

>  <PEOE_VSA_FPOS>
0.56380713

>  <PEOE_VSA_FPPOS>
0.12400717

>  <PEOE_VSA_HYD>
148.70956

>  <PEOE_VSA_NEG>
88.051941

>  <PEOE_VSA_PNEG>
28.122471

>  <PEOE_VSA_POL>
53.155144

>  <PEOE_VSA_POS>
113.81277

>  <PEOE_VSA_PPOS>
25.032671

>  <petitjean>
0.5

>  <petitjeanSC>
1

>  <Q_PC+>
0

>  <Q_PC->
0

>  <Q_RPC+>
0

>  <Q_RPC->
0

>  <Q_VSA_FHYD>
1

>  <Q_VSA_FNEG>
0

>  <Q_VSA_FPNEG>
0

>  <Q_VSA_FPOL>
0

>  <Q_VSA_FPOS>
1

>  <Q_VSA_FPPOS>
0

>  <Q_VSA_HYD>
201.8647

>  <Q_VSA_NEG>
0

>  <Q_VSA_PNEG>
0

>  <Q_VSA_POL>
0

>  <Q_VSA_POS>
201.8647

>  <Q_VSA_PPOS>
0

>  <radius>
4

>  <reactive>
0

>  <rings>
2

>  <RPC+>
0

>  <RPC->
0

>  <rsynth>
1

>  <SlogP>
1.12227

>  <SlogP_VSA0>
32.897186

>  <SlogP_VSA1>
7.7454643

>  <SlogP_VSA2>
44.629715

>  <SlogP_VSA3>
25.385227

>  <SlogP_VSA4>
3.185575

>  <SlogP_VSA5>
18.868406

>  <SlogP_VSA6>
0

>  <SlogP_VSA7>
92.504196

>  <SlogP_VSA8>
0

>  <SlogP_VSA9>
0

>  <SMR>
5.7613902

>  <SMR_VSA0>
23.862217

>  <SMR_VSA1>
0

>  <SMR_VSA2>
42.170757

>  <SMR_VSA3>
7.1675434

>  <SMR_VSA4>
37.614288

>  <SMR_VSA5>
106.6555

>  <SMR_VSA6>
7.7454643

>  <SMR_VSA7>
0

>  <TPSA>
79.110001

>  <VAdjEq>
0.59002918

>  <VAdjMa>
5

>  <VDistEq>
2.801687

>  <VDistMa>
7.5043349

>  <vdw_area>
201.8647

>  <vdw_vol>
271.87756

>  <vsa_acc>
0

>  <vsa_acid>
0

>  <vsa_base>
0

>  <vsa_don>
5.6825762

>  <vsa_hyd>
117.15816

>  <vsa_other>
14.708499

>  <vsa_pol>
50.558907

>  <Weight>
204.22899

>  <weinerPath>
369

>  <weinerPol>
20

>  <zagreb>
76

$$$$