Clc1cc2Oc3cc(Cl)c(Cl)cc3Oc2cc1Cl
  MOE2013           2D

 18 20  0  0  0  0  0  0  0  0999 V2000
    0.0000    0.0000    0.0000 Cl  0  0  0  0  0  0  0  0  0  0  0  0
    1.2990   -0.7500    0.0000 C   0  0  0  0  0  0  0  0  0  0  0  0
    2.5980    0.0000    0.0000 C   0  0  0  0  0  0  0  0  0  0  0  0
    3.8970   -0.7500    0.0000 C   0  0  0  0  0  0  0  0  0  0  0  0
    5.1960    0.0000    0.0000 O   0  0  0  0  0  0  0  0  0  0  0  0
    6.4950   -0.7500    0.0000 C   0  0  0  0  0  0  0  0  0  0  0  0
    7.7940    0.0000    0.0000 C   0  0  0  0  0  0  0  0  0  0  0  0
    9.0930   -0.7500    0.0000 C   0  0  0  0  0  0  0  0  0  0  0  0
   10.3920    0.0000    0.0000 Cl  0  0  0  0  0  0  0  0  0  0  0  0
    9.0930   -2.2500    0.0000 C   0  0  0  0  0  0  0  0  0  0  0  0
   10.3920   -3.0000    0.0000 Cl  0  0  0  0  0  0  0  0  0  0  0  0
    7.7940   -3.0000    0.0000 C   0  0  0  0  0  0  0  0  0  0  0  0
    6.4950   -2.2500    0.0000 C   0  0  0  0  0  0  0  0  0  0  0  0
    5.1960   -3.0000    0.0000 O   0  0  0  0  0  0  0  0  0  0  0  0
    3.8970   -2.2500    0.0000 C   0  0  0  0  0  0  0  0  0  0  0  0
    2.5980   -3.0000    0.0000 C   0  0  0  0  0  0  0  0  0  0  0  0
    1.2990   -2.2500    0.0000 C   0  0  0  0  0  0  0  0  0  0  0  0
    0.0000   -3.0000    0.0000 Cl  0  0  0  0  0  0  0  0  0  0  0  0
  1  2  1  0  0  0  0
  2  3  1  0  0  0  0
  2 17  2  0  0  0  0
  3  4  2  0  0  0  0
  4  5  1  0  0  0  0
  4 15  1  0  0  0  0
  5  6  1  0  0  0  0
  6  7  1  0  0  0  0
  6 13  2  0  0  0  0
  7  8  2  0  0  0  0
  8  9  1  0  0  0  0
  8 10  1  0  0  0  0
 10 11  1  0  0  0  0
 10 12  2  0  0  0  0
 12 13  1  0  0  0  0
 13 14  1  0  0  0  0
 14 15  1  0  0  0  0
 15 16  2  0  0  0  0
 16 17  1  0  0  0  0
 17 18  1  0  0  0  0
M  END
>  <Index>
7

>  <ID>
HT0028

>  <class>
0

>  <apol>
34.111172

>  <ast_fraglike>
0

>  <ast_fraglike_ext>
0

>  <ast_violation>
2

>  <ast_violation_ext>
2

>  <a_acc>
0

>  <a_acid>
0

>  <a_aro>
12

>  <a_base>
0

>  <a_count>
22

>  <a_don>
0

>  <a_donacc>
0

>  <a_heavy>
18

>  <a_hyd>
16

>  <a_IC>
37.087944

>  <a_ICM>
1.6858157

>  <a_nB>
0

>  <a_nBr>
0

>  <a_nC>
12

>  <a_nCl>
4

>  <a_nF>
0

>  <a_nH>
4

>  <a_nI>
0

>  <a_nN>
0

>  <a_nO>
2

>  <a_nP>
0

>  <a_nS>
0

>  <balabanJ>
1.7003146

>  <BCUT_PEOE_0>
-2.2712116

>  <BCUT_PEOE_1>
-0.72150797

>  <BCUT_PEOE_2>
0.72383863

>  <BCUT_PEOE_3>
2.281014

>  <BCUT_SLOGP_0>
-2.061161

>  <BCUT_SLOGP_1>
-0.53618753

>  <BCUT_SLOGP_2>
1.0654747

>  <BCUT_SLOGP_3>
2.5524006

>  <BCUT_SMR_0>
-1.9536052

>  <BCUT_SMR_1>
-0.47388688

>  <BCUT_SMR_2>
1.0261848

>  <BCUT_SMR_3>
2.5952201

>  <bpol>
9.8848276

>  <b_1rotN>
0

>  <b_1rotR>
0

>  <b_ar>
12

>  <b_count>
24

>  <b_double>
0

>  <b_heavy>
20

>  <b_max1len>
1

>  <b_rotN>
0

>  <b_rotR>
0

>  <b_single>
12

>  <b_triple>
0

>  <chi0>
12.861443

>  <chi0v>
11.661471

>  <chi0v_C>
6.309401

>  <chi0_C>
7.4472294

>  <chi1>
8.5417137

>  <chi1v>
6.3936844

>  <chi1v_C>
3.309401

>  <chi1_C>
4.5993195

>  <chiral>
0

>  <chiral_u>
0

>  <density>
1.0218339

>  <diameter>
9

>  <FCharge>
0

>  <GCUT_PEOE_0>
-0.74142575

>  <GCUT_PEOE_1>
-0.44149032

>  <GCUT_PEOE_2>
-0.0069784028

>  <GCUT_PEOE_3>
2.2479746

>  <GCUT_SLOGP_0>
-0.73067462

>  <GCUT_SLOGP_1>
-0.24334212

>  <GCUT_SLOGP_2>
0.51951015

>  <GCUT_SLOGP_3>
2.5240884

>  <GCUT_SMR_0>
-0.39432585

>  <GCUT_SMR_1>
-0.17514725

>  <GCUT_SMR_2>
0.48887259

>  <GCUT_SMR_3>
2.5661616

>  <Kier1>
13.005

>  <Kier2>
4.8355556

>  <Kier3>
2.4000001

>  <KierA1>
13.607674

>  <KierA2>
5.0736051

>  <KierA3>
2.5232749

>  <KierFlex>
3.8355536

>  <lip_acc>
2

>  <lip_don>
0

>  <lip_druglike>
1

>  <lip_violation>
1

>  <logP(o/w)>
4.8699999

>  <logS>
-7.0654402

>  <mr>
7.1562696

>  <mutagenic>
1

>  <nmol>
1

>  <opr_brigid>
16

>  <opr_leadlike>
1

>  <opr_nring>
3

>  <opr_nrot>
0

>  <opr_violation>
1

>  <PC+>
0

>  <PC->
0

>  <PEOE_PC+>
0.97121388

>  <PEOE_PC->
-0.97121388

>  <PEOE_RPC+>
0.11841641

>  <PEOE_RPC->
0.31302989

>  <PEOE_VSA+0>
0

>  <PEOE_VSA+1>
35.14053

>  <PEOE_VSA+2>
33.834076

>  <PEOE_VSA+3>
0

>  <PEOE_VSA+4>
0

>  <PEOE_VSA+5>
0

>  <PEOE_VSA+6>
0

>  <PEOE_VSA-0>
49.019615

>  <PEOE_VSA-1>
118.32779

>  <PEOE_VSA-2>
0

>  <PEOE_VSA-3>
0

>  <PEOE_VSA-4>
0

>  <PEOE_VSA-5>
0

>  <PEOE_VSA-6>
5.0075121

>  <PEOE_VSA_FHYD>
0.97925031

>  <PEOE_VSA_FNEG>
0.71418911

>  <PEOE_VSA_FPNEG>
0.020749688

>  <PEOE_VSA_FPOL>
0.020749688

>  <PEOE_VSA_FPOS>
0.28581089

>  <PEOE_VSA_FPPOS>
0

>  <PEOE_VSA_HYD>
236.32201

>  <PEOE_VSA_NEG>
172.35492

>  <PEOE_VSA_PNEG>
5.0075121

>  <PEOE_VSA_POL>
5.0075121

>  <PEOE_VSA_POS>
68.974609

>  <PEOE_VSA_PPOS>
0

>  <petitjean>
0.44444445

>  <petitjeanSC>
0.80000001

>  <Q_PC+>
0

>  <Q_PC->
0

>  <Q_RPC+>
0

>  <Q_RPC->
0

>  <Q_VSA_FHYD>
1

>  <Q_VSA_FNEG>
0

>  <Q_VSA_FPNEG>
0

>  <Q_VSA_FPOL>
0

>  <Q_VSA_FPOS>
1

>  <Q_VSA_FPPOS>
0

>  <Q_VSA_HYD>
241.32953

>  <Q_VSA_NEG>
0

>  <Q_VSA_PNEG>
0

>  <Q_VSA_POL>
0

>  <Q_VSA_POS>
241.32953

>  <Q_VSA_PPOS>
0

>  <radius>
5

>  <reactive>
0

>  <rings>
3

>  <RPC+>
0

>  <RPC->
0

>  <rsynth>
1

>  <SlogP>
6.1982002

>  <SlogP_VSA0>
21.999775

>  <SlogP_VSA1>
0

>  <SlogP_VSA2>
0

>  <SlogP_VSA3>
0

>  <SlogP_VSA4>
0

>  <SlogP_VSA5>
0

>  <SlogP_VSA6>
14.002426

>  <SlogP_VSA7>
70.572739

>  <SlogP_VSA8>
0

>  <SlogP_VSA9>
177.56828

>  <SMR>
7.3072

>  <SMR_VSA0>
0

>  <SMR_VSA1>
21.999775

>  <SMR_VSA2>
0

>  <SMR_VSA3>
34.976139

>  <SMR_VSA4>
0

>  <SMR_VSA5>
70.572739

>  <SMR_VSA6>
0

>  <SMR_VSA7>
156.59457

>  <TPSA>
18.459999

>  <VAdjEq>
0.53921634

>  <VAdjMa>
5.321928

>  <VDistEq>
2.9147503

>  <VDistMa>
8.0433617

>  <vdw_area>
241.32953

>  <vdw_vol>
315.09427

>  <vsa_acc>
0

>  <vsa_acid>
0

>  <vsa_base>
0

>  <vsa_don>
0

>  <vsa_hyd>
233.47482

>  <vsa_other>
5.0075121

>  <vsa_pol>
0

>  <Weight>
321.974

>  <weinerPath>
571

>  <weinerPol>
31

>  <zagreb>
100

$$$$