ClCOC(=O)C1(O)CCC2C3C(C4(C(=CC(=O)C=C4)CC3)C)C(O)CC12C
  MOE2013           2D

 27 30  0  0  1  0  0  0  0  0999 V2000
    0.0000    0.0000    0.0000 Cl  0  0  0  0  0  0  0  0  0  0  0  0
   -0.8930    1.2050    0.0000 C   0  0  0  0  0  0  0  0  0  0  0  0
   -2.3840    1.0340    0.0000 O   0  0  0  0  0  0  0  0  0  0  0  0
   -3.2770    2.2390    0.0000 C   0  0  0  0  0  0  0  0  0  0  0  0
   -2.6800    3.6150    0.0000 O   0  0  0  0  0  0  0  0  0  0  0  0
   -4.7670    2.0670    0.0000 C   0  0  3  0  0  0  0  0  0  0  0  0
   -4.2190    3.4640    0.0000 O   0  0  0  0  0  0  0  0  0  0  0  0
   -4.6740    0.5700    0.0000 C   0  0  0  0  0  0  0  0  0  0  0  0
   -6.0690    0.0190    0.0000 C   0  0  0  0  0  0  0  0  0  0  0  0
   -7.0240    1.1760    0.0000 C   0  0  3  0  0  0  0  0  0  0  0  0
   -8.5230    1.2400    0.0000 C   0  0  3  0  0  0  0  0  0  0  0  0
   -9.2170    2.5700    0.0000 C   0  0  3  0  0  0  0  0  0  0  0  0
  -10.7160    2.6340    0.0000 C   0  0  3  0  0  0  0  0  0  0  0  0
  -11.5200    1.3680    0.0000 C   0  0  0  0  0  0  0  0  0  0  0  0
  -13.0190    1.4320    0.0000 C   0  0  0  0  0  0  0  0  0  0  0  0
  -13.7130    2.7620    0.0000 C   0  0  0  0  0  0  0  0  0  0  0  0
  -15.2120    2.8260    0.0000 O   0  0  0  0  0  0  0  0  0  0  0  0
  -12.9080    4.0270    0.0000 C   0  0  0  0  0  0  0  0  0  0  0  0
  -11.4100    3.9630    0.0000 C   0  0  0  0  0  0  0  0  0  0  0  0
  -10.8260    0.0380    0.0000 C   0  0  0  0  0  0  0  0  0  0  0  0
   -9.3280   -0.0260    0.0000 C   0  0  0  0  0  0  0  0  0  0  0  0
   -9.9110    3.8990    0.0000 C   0  0  0  0  0  0  0  0  0  0  0  0
   -8.4120    3.8350    0.0000 C   0  0  3  0  0  0  0  0  0  0  0  0
   -9.1060    5.1650    0.0000 O   0  0  0  0  0  0  0  0  0  0  0  0
   -6.9140    3.7710    0.0000 C   0  0  0  0  0  0  0  0  0  0  0  0
   -6.2200    2.4420    0.0000 C   0  0  3  0  0  0  0  0  0  0  0  0
   -5.3080    3.6320    0.0000 C   0  0  0  0  0  0  0  0  0  0  0  0
  1  2  1  0  0  0  0
  2  3  1  0  0  0  0
  3  4  1  0  0  0  0
  4  5  2  0  0  0  0
  4  6  1  0  0  0  0
  6  7  1  0  0  0  0
  6  8  1  0  0  0  0
  6 26  1  0  0  0  0
  8  9  1  0  0  0  0
  9 10  1  0  0  0  0
 10 11  1  0  0  0  0
 10 26  1  0  0  0  0
 11 12  1  0  0  0  0
 11 21  1  0  0  0  0
 12 13  1  0  0  0  0
 12 23  1  0  0  0  0
 13 14  1  0  0  0  0
 13 19  1  0  0  0  0
 13 22  1  0  0  0  0
 14 15  2  0  0  0  0
 14 20  1  0  0  0  0
 15 16  1  0  0  0  0
 16 17  2  0  0  0  0
 16 18  1  0  0  0  0
 18 19  2  0  0  0  0
 20 21  1  0  0  0  0
 23 24  1  0  0  0  0
 23 25  1  0  0  0  0
 25 26  1  0  0  0  0
 26 27  1  0  0  0  0
M  END
>  <Index>
632

>  <ID>
HT1244

>  <class>
0

>  <apol>
61.153412

>  <ast_fraglike>
0

>  <ast_fraglike_ext>
0

>  <ast_violation>
2

>  <ast_violation_ext>
2

>  <a_acc>
4

>  <a_acid>
0

>  <a_aro>
0

>  <a_base>
0

>  <a_count>
54

>  <a_don>
2

>  <a_donacc>
6

>  <a_heavy>
27

>  <a_hyd>
19

>  <a_IC>
78.533653

>  <a_ICM>
1.454327

>  <a_nB>
0

>  <a_nBr>
0

>  <a_nC>
21

>  <a_nCl>
1

>  <a_nF>
0

>  <a_nH>
27

>  <a_nI>
0

>  <a_nN>
0

>  <a_nO>
5

>  <a_nP>
0

>  <a_nS>
0

>  <balabanJ>
1.6550483

>  <BCUT_PEOE_0>
-2.920121

>  <BCUT_PEOE_1>
-0.48497421

>  <BCUT_PEOE_2>
0.44340405

>  <BCUT_PEOE_3>
2.976119

>  <BCUT_SLOGP_0>
-2.8969259

>  <BCUT_SLOGP_1>
-0.43635309

>  <BCUT_SLOGP_2>
0.4974972

>  <BCUT_SLOGP_3>
3.0050745

>  <BCUT_SMR_0>
-2.6750119

>  <BCUT_SMR_1>
-0.31164035

>  <BCUT_SMR_2>
0.59709918

>  <BCUT_SMR_3>
3.212841

>  <bpol>
33.768589

>  <b_1rotN>
2

>  <b_1rotR>
0.06666667

>  <b_ar>
0

>  <b_count>
57

>  <b_double>
4

>  <b_heavy>
30

>  <b_max1len>
3

>  <b_rotN>
3

>  <b_rotR>
0.1

>  <b_single>
53

>  <b_triple>
0

>  <chi0>
19.61252

>  <chi0v>
16.537159

>  <chi0v_C>
13.284093

>  <chi0_C>
13.905413

>  <chi1>
12.670505

>  <chi1v>
10.285426

>  <chi1v_C>
8.1007891

>  <chi1_C>
8.8230991

>  <chiral>
7

>  <chiral_u>
7

>  <density>
0.78113425

>  <diameter>
13

>  <FCharge>
0

>  <GCUT_PEOE_0>
-0.80048436

>  <GCUT_PEOE_1>
-0.39879787

>  <GCUT_PEOE_2>
0.011620632

>  <GCUT_PEOE_3>
3.3034897

>  <GCUT_SLOGP_0>
-0.92876363

>  <GCUT_SLOGP_1>
-0.32740331

>  <GCUT_SLOGP_2>
0.040603459

>  <GCUT_SLOGP_3>
3.3463051

>  <GCUT_SMR_0>
-0.5368529

>  <GCUT_SMR_1>
-0.21095569

>  <GCUT_SMR_2>
0.15412326

>  <GCUT_SMR_3>
3.5272899

>  <Kier1>
20.280001

>  <Kier2>
6.7680135

>  <Kier3>
2.734843

>  <KierA1>
18.783539

>  <KierA2>
6.2493963

>  <KierA3>
2.5195389

>  <KierFlex>
4.3476214

>  <lip_acc>
5

>  <lip_don>
2

>  <lip_druglike>
1

>  <lip_violation>
0

>  <logP(o/w)>
3.3499999

>  <logS>
-4.1070399

>  <mr>
10.128359

>  <mutagenic>
1

>  <nmol>
1

>  <opr_brigid>
20

>  <opr_leadlike>
1

>  <opr_nring>
4

>  <opr_nrot>
2

>  <opr_violation>
0

>  <PC+>
0

>  <PC->
0

>  <PEOE_PC+>
2.191431

>  <PEOE_PC->
-2.191431

>  <PEOE_RPC+>
0.13496101

>  <PEOE_RPC->
0.17862546

>  <PEOE_VSA+0>
81.042336

>  <PEOE_VSA+1>
30.497244

>  <PEOE_VSA+2>
17.262501

>  <PEOE_VSA+3>
8.458519

>  <PEOE_VSA+4>
20.648346

>  <PEOE_VSA+5>
14.708499

>  <PEOE_VSA+6>
0

>  <PEOE_VSA-0>
68.016373

>  <PEOE_VSA-1>
81.540749

>  <PEOE_VSA-2>
0

>  <PEOE_VSA-3>
0

>  <PEOE_VSA-4>
0

>  <PEOE_VSA-5>
29.637598

>  <PEOE_VSA-6>
15.535081

>  <PEOE_VSA_FHYD>
0.78078091

>  <PEOE_VSA_FNEG>
0.53009737

>  <PEOE_VSA_FPNEG>
0.12296997

>  <PEOE_VSA_FPOL>
0.21921907

>  <PEOE_VSA_FPOS>
0.46990266

>  <PEOE_VSA_FPPOS>
0.096249111

>  <PEOE_VSA_HYD>
286.81772

>  <PEOE_VSA_NEG>
194.7298

>  <PEOE_VSA_PNEG>
45.17268

>  <PEOE_VSA_POL>
80.529526

>  <PEOE_VSA_POS>
172.61745

>  <PEOE_VSA_PPOS>
35.356846

>  <petitjean>
0.46153846

>  <petitjeanSC>
0.85714287

>  <Q_PC+>
0

>  <Q_PC->
0

>  <Q_RPC+>
0

>  <Q_RPC->
0

>  <Q_VSA_FHYD>
1

>  <Q_VSA_FNEG>
0

>  <Q_VSA_FPNEG>
0

>  <Q_VSA_FPOL>
0

>  <Q_VSA_FPOS>
1

>  <Q_VSA_FPPOS>
0

>  <Q_VSA_HYD>
367.34723

>  <Q_VSA_NEG>
0

>  <Q_VSA_PNEG>
0

>  <Q_VSA_POL>
0

>  <Q_VSA_POS>
367.34723

>  <Q_VSA_PPOS>
0

>  <radius>
7

>  <reactive>
1

>  <rings>
4

>  <RPC+>
0

>  <RPC->
0

>  <rsynth>
0.37037036

>  <SlogP>
2.7356999

>  <SlogP_VSA0>
50.770454

>  <SlogP_VSA1>
13.433075

>  <SlogP_VSA2>
65.19297

>  <SlogP_VSA3>
21.241291

>  <SlogP_VSA4>
13.232388

>  <SlogP_VSA5>
3.185575

>  <SlogP_VSA6>
0

>  <SlogP_VSA7>
52.929554

>  <SlogP_VSA8>
94.342026

>  <SlogP_VSA9>
105.80067

>  <SMR>
9.9767599

>  <SMR_VSA0>
58.724319

>  <SMR_VSA1>
50.770454

>  <SMR_VSA2>
13.232388

>  <SMR_VSA3>
9.6542244

>  <SMR_VSA4>
0

>  <SMR_VSA5>
147.27158

>  <SMR_VSA6>
34.674366

>  <SMR_VSA7>
105.80067

>  <TPSA>
83.830002

>  <VAdjEq>
0.41024774

>  <VAdjMa>
5.9068904

>  <VDistEq>
3.2526155

>  <VDistMa>
9.2361145

>  <vdw_area>
367.34723

>  <vdw_vol>
505.54047

>  <vsa_acc>
27.133842

>  <vsa_acid>
0

>  <vsa_base>
0

>  <vsa_don>
0

>  <vsa_hyd>
232.15948

>  <vsa_other>
50.040455

>  <vsa_pol>
54.267685

>  <Weight>
394.89499

>  <weinerPath>
1611

>  <weinerPol>
60

>  <zagreb>
158

$$$$