OC(=O)C(N)C(CC)C
  MOE2013           2D

  9  8  0  0  1  0  0  0  0  0999 V2000
    0.0000    0.0000    0.0000 O   0  0  0  0  0  0  0  0  0  0  0  0
    1.2940   -0.7580    0.0000 C   0  0  0  0  0  0  0  0  0  0  0  0
    1.2850   -2.2580    0.0000 O   0  0  0  0  0  0  0  0  0  0  0  0
    2.5980   -0.0170    0.0000 C   0  0  3  0  0  0  0  0  0  0  0  0
    2.6080    1.4830    0.0000 N   0  0  0  0  0  0  0  0  0  0  0  0
    3.8920   -0.7750    0.0000 C   0  0  3  0  0  0  0  0  0  0  0  0
    5.1960   -0.0330    0.0000 C   0  0  0  0  0  0  0  0  0  0  0  0
    6.4900   -0.7910    0.0000 C   0  0  0  0  0  0  0  0  0  0  0  0
    3.8830   -2.2750    0.0000 C   0  0  0  0  0  0  0  0  0  0  0  0
  1  2  1  0  0  0  0
  2  3  2  0  0  0  0
  2  4  1  0  0  0  0
  4  5  1  0  0  0  0
  4  6  1  0  0  0  0
  6  7  1  0  0  0  0
  6  9  1  0  0  0  0
  7  8  1  0  0  0  0
M  END
>  <Index>
622

>  <ID>
HT1219

>  <class>
0

>  <apol>
21.932308

>  <ast_fraglike>
1

>  <ast_fraglike_ext>
1

>  <ast_violation>
0

>  <ast_violation_ext>
0

>  <a_acc>
3

>  <a_acid>
0

>  <a_aro>
0

>  <a_base>
0

>  <a_count>
22

>  <a_don>
3

>  <a_donacc>
6

>  <a_heavy>
9

>  <a_hyd>
5

>  <a_IC>
32.492004

>  <a_ICM>
1.4769093

>  <a_nB>
0

>  <a_nBr>
0

>  <a_nC>
6

>  <a_nCl>
0

>  <a_nF>
0

>  <a_nH>
13

>  <a_nI>
0

>  <a_nN>
1

>  <a_nO>
2

>  <a_nP>
0

>  <a_nS>
0

>  <balabanJ>
3.5997987

>  <BCUT_PEOE_0>
-2.6615496

>  <BCUT_PEOE_1>
-0.42271298

>  <BCUT_PEOE_2>
0.38603604

>  <BCUT_PEOE_3>
2.6450982

>  <BCUT_SLOGP_0>
-2.7752569

>  <BCUT_SLOGP_1>
-0.3765181

>  <BCUT_SLOGP_2>
0.35482416

>  <BCUT_SLOGP_3>
2.6808414

>  <BCUT_SMR_0>
-2.4201357

>  <BCUT_SMR_1>
-0.25787541

>  <BCUT_SMR_2>
0.49977708

>  <BCUT_SMR_3>
2.88345

>  <bpol>
14.509691

>  <b_1rotN>
3

>  <b_1rotR>
0.375

>  <b_ar>
0

>  <b_count>
21

>  <b_double>
1

>  <b_heavy>
8

>  <b_max1len>
6

>  <b_rotN>
3

>  <b_rotR>
0.375

>  <b_single>
20

>  <b_triple>
0

>  <chi0>
7.4391575

>  <chi0v>
5.7946196

>  <chi0v_C>
4.3618073

>  <chi0_C>
4.4391575

>  <chi1>
4.091423

>  <chi1v>
3.075778

>  <chi1v_C>
2.3147137

>  <chi1_C>
2.3593719

>  <chiral>
2

>  <chiral_u>
2

>  <density>
0.70965427

>  <diameter>
5

>  <FCharge>
0

>  <GCUT_PEOE_0>
-0.81139034

>  <GCUT_PEOE_1>
-0.33123919

>  <GCUT_PEOE_2>
0.026770057

>  <GCUT_PEOE_3>
2.2952054

>  <GCUT_SLOGP_0>
-1.3636426

>  <GCUT_SLOGP_1>
-0.28855243

>  <GCUT_SLOGP_2>
0.054200001

>  <GCUT_SLOGP_3>
2.3052604

>  <GCUT_SMR_0>
-0.53070587

>  <GCUT_SMR_1>
-0.19535416

>  <GCUT_SMR_2>
0.1138421

>  <GCUT_SMR_3>
2.5072598

>  <Kier1>
9

>  <Kier2>
3.9200001

>  <Kier3>
2.8800001

>  <KierA1>
8.0597343

>  <KierA2>
3.4565301

>  <KierA3>
2.50173

>  <KierFlex>
3.0954127

>  <lip_acc>
3

>  <lip_don>
3

>  <lip_druglike>
1

>  <lip_violation>
0

>  <logP(o/w)>
-1.64373

>  <logS>
-0.52371001

>  <mr>
3.5428903

>  <mutagenic>
0

>  <nmol>
1

>  <opr_brigid>
0

>  <opr_leadlike>
1

>  <opr_nring>
0

>  <opr_nrot>
3

>  <opr_violation>
0

>  <PC+>
0

>  <PC->
0

>  <PEOE_PC+>
1.1091932

>  <PEOE_PC->
-1.1091932

>  <PEOE_RPC+>
0.24955328

>  <PEOE_RPC->
0.29759493

>  <PEOE_VSA+0>
38.388474

>  <PEOE_VSA+1>
7.4113464

>  <PEOE_VSA+2>
17.238026

>  <PEOE_VSA+3>
0

>  <PEOE_VSA+4>
10.324173

>  <PEOE_VSA+5>
14.708499

>  <PEOE_VSA+6>
0

>  <PEOE_VSA-0>
0

>  <PEOE_VSA-1>
46.196667

>  <PEOE_VSA-2>
0

>  <PEOE_VSA-3>
0

>  <PEOE_VSA-4>
0

>  <PEOE_VSA-5>
13.566921

>  <PEOE_VSA-6>
14.418659

>  <PEOE_VSA_FHYD>
0.67323667

>  <PEOE_VSA_FNEG>
0.45720175

>  <PEOE_VSA_FPNEG>
0.17248137

>  <PEOE_VSA_FPOL>
0.3267633

>  <PEOE_VSA_FPOS>
0.54279828

>  <PEOE_VSA_FPPOS>
0.15428194

>  <PEOE_VSA_HYD>
109.23451

>  <PEOE_VSA_NEG>
74.182251

>  <PEOE_VSA_PNEG>
27.98558

>  <PEOE_VSA_POL>
53.018253

>  <PEOE_VSA_POS>
88.070518

>  <PEOE_VSA_PPOS>
25.032671

>  <petitjean>
0.40000001

>  <petitjeanSC>
0.66666669

>  <Q_PC+>
0

>  <Q_PC->
0

>  <Q_RPC+>
0

>  <Q_RPC->
0

>  <Q_VSA_FHYD>
1

>  <Q_VSA_FNEG>
0

>  <Q_VSA_FPNEG>
0

>  <Q_VSA_FPOL>
0

>  <Q_VSA_FPOS>
1

>  <Q_VSA_FPPOS>
0

>  <Q_VSA_HYD>
162.25276

>  <Q_VSA_NEG>
0

>  <Q_VSA_PNEG>
0

>  <Q_VSA_POL>
0

>  <Q_VSA_POS>
162.25276

>  <Q_VSA_PPOS>
0

>  <radius>
3

>  <reactive>
0

>  <rings>
0

>  <RPC+>
0

>  <RPC->
0

>  <rsynth>
1

>  <SlogP>
0.44440001

>  <SlogP_VSA0>
32.897186

>  <SlogP_VSA1>
7.7454643

>  <SlogP_VSA2>
27.844185

>  <SlogP_VSA3>
25.385227

>  <SlogP_VSA4>
4.4107962

>  <SlogP_VSA5>
0

>  <SlogP_VSA6>
0

>  <SlogP_VSA7>
0

>  <SlogP_VSA8>
18.868406

>  <SlogP_VSA9>
66.652031

>  <SMR>
3.5066199

>  <SMR_VSA0>
23.862217

>  <SMR_VSA1>
0

>  <SMR_VSA2>
29.796022

>  <SMR_VSA3>
3.9819686

>  <SMR_VSA4>
32.897186

>  <SMR_VSA5>
18.868406

>  <SMR_VSA6>
7.7454643

>  <SMR_VSA7>
66.652031

>  <TPSA>
63.32

>  <VAdjEq>
0.71696228

>  <VAdjMa>
4

>  <VDistEq>
2.17136

>  <VDistMa>
6.0152125

>  <vdw_area>
162.25276

>  <vdw_vol>
184.84352

>  <vsa_acc>
0

>  <vsa_acid>
0

>  <vsa_base>
0

>  <vsa_don>
0

>  <vsa_hyd>
83.533485

>  <vsa_other>
14.708499

>  <vsa_pol>
44.876331

>  <Weight>
131.175

>  <weinerPath>
92

>  <weinerPol>
10

>  <zagreb>
36

$$$$