O1[C@](NC(=O)[C@@H]2C=C3[C@H](N(C2)C)Cc2c4c3cccc4n(c2)C)(C)C(=O)N2[C@@H](Cc3ccccc3)C(=O)N3[C@@H](CCC3)[C@]12O
  MOE2013           2D

 44 51  0  0  1  0  0  0  0  0999 V2000
    0.0000    0.0000    0.0000 O   0  0  0  0  0  0  0  0  0  0  0  0
    1.0040   -1.1150    0.0000 C   0  0  2  0  0  0  0  0  0  0  0  0
    2.1690   -0.1710    0.0000 N   0  0  0  0  0  0  0  0  0  0  0  0
    3.5700   -0.7080    0.0000 C   0  0  0  0  0  0  0  0  0  0  0  0
    3.8040   -2.1900    0.0000 O   0  0  0  0  0  0  0  0  0  0  0  0
    4.7360    0.2350    0.0000 C   0  0  2  0  0  0  0  0  0  0  0  0
    6.1360   -0.3020    0.0000 C   0  0  0  0  0  0  0  0  0  0  0  0
    7.3050    0.6750    0.0000 C   0  0  0  0  0  0  0  0  0  0  0  0
    7.0600    2.1180    0.0000 C   0  0  2  0  0  0  0  0  0  0  0  0
    5.6670    2.6610    0.0000 N   0  0  3  0  0  0  0  0  0  0  0  0
    4.5010    1.7170    0.0000 C   0  0  0  0  0  0  0  0  0  0  0  0
    5.4360    4.1430    0.0000 C   0  0  0  0  0  0  0  0  0  0  0  0
    8.1950    3.0500    0.0000 C   0  0  0  0  0  0  0  0  0  0  0  0
    9.5740    2.5320    0.0000 C   0  0  0  0  0  0  0  0  0  0  0  0
    9.8090    1.0830    0.0000 C   0  0  0  0  0  0  0  0  0  0  0  0
    8.6720    0.1560    0.0000 C   0  0  0  0  0  0  0  0  0  0  0  0
    8.9160   -1.2890    0.0000 C   0  0  0  0  0  0  0  0  0  0  0  0
   10.2830   -1.8080    0.0000 C   0  0  0  0  0  0  0  0  0  0  0  0
   11.4180   -0.8790    0.0000 C   0  0  0  0  0  0  0  0  0  0  0  0
   11.1840    0.5660    0.0000 C   0  0  0  0  0  0  0  0  0  0  0  0
   12.1360    1.7200    0.0000 N   0  0  0  0  0  0  0  0  0  0  0  0
   10.9470    3.1580    0.0000 C   0  0  0  0  0  0  0  0  0  0  0  0
   13.6360    1.7210    0.0000 C   0  0  0  0  0  0  0  0  0  0  0  0
    2.3840   -1.7010    0.0000 C   0  0  0  0  0  0  0  0  0  0  0  0
    0.2540   -2.4140    0.0000 C   0  0  0  0  0  0  0  0  0  0  0  0
    0.8640   -3.7840    0.0000 O   0  0  0  0  0  0  0  0  0  0  0  0
   -1.2140   -2.1020    0.0000 N   0  0  0  0  0  0  0  0  0  0  0  0
   -2.4270   -2.9830    0.0000 C   0  0  1  0  0  0  0  0  0  0  0  0
   -2.2700   -4.4750    0.0000 C   0  0  0  0  0  0  0  0  0  0  0  0
   -3.4840   -5.3570    0.0000 C   0  0  0  0  0  0  0  0  0  0  0  0
   -4.8540   -4.7470    0.0000 C   0  0  0  0  0  0  0  0  0  0  0  0
   -6.0680   -5.6280    0.0000 C   0  0  0  0  0  0  0  0  0  0  0  0
   -5.9110   -7.1200    0.0000 C   0  0  0  0  0  0  0  0  0  0  0  0
   -4.5410   -7.7300    0.0000 C   0  0  0  0  0  0  0  0  0  0  0  0
   -3.3270   -6.8490    0.0000 C   0  0  0  0  0  0  0  0  0  0  0  0
   -3.7970   -2.3730    0.0000 C   0  0  0  0  0  0  0  0  0  0  0  0
   -5.0110   -3.2550    0.0000 O   0  0  0  0  0  0  0  0  0  0  0  0
   -3.9540   -0.8810    0.0000 N   0  0  0  0  0  0  0  0  0  0  0  0
   -2.7410    0.0000    0.0000 C   0  0  1  0  0  0  0  0  0  0  0  0
   -3.2040    1.4270    0.0000 C   0  0  0  0  0  0  0  0  0  0  0  0
   -4.7040    1.4270    0.0000 C   0  0  0  0  0  0  0  0  0  0  0  0
   -5.1680    0.0000    0.0000 C   0  0  0  0  0  0  0  0  0  0  0  0
   -1.3700   -0.6100    0.0000 C   0  0  2  0  0  0  0  0  0  0  0  0
   -1.3180    0.8890    0.0000 O   0  0  0  0  0  0  0  0  0  0  0  0
  1  2  1  0  0  0  0
  1 43  1  0  0  0  0
  2  3  1  1  0  0  0
  2 24  1  6  0  0  0
  2 25  1  0  0  0  0
  3  4  1  0  0  0  0
  4  5  2  0  0  0  0
  6  4  1  1  0  0  0
  6  7  1  0  0  0  0
  6 11  1  0  0  0  0
  7  8  2  0  0  0  0
  8 16  1  0  0  0  0
  9  8  1  6  0  0  0
  9 10  1  0  0  0  0
  9 13  1  0  0  0  0
 10 11  1  0  0  0  0
 10 12  1  0  0  0  0
 13 14  1  0  0  0  0
 14 15  1  0  0  0  0
 14 22  2  0  0  0  0
 15 16  1  0  0  0  0
 15 20  2  0  0  0  0
 16 17  2  0  0  0  0
 17 18  1  0  0  0  0
 18 19  2  0  0  0  0
 19 20  1  0  0  0  0
 20 21  1  0  0  0  0
 21 22  1  0  0  0  0
 21 23  1  0  0  0  0
 25 26  2  0  0  0  0
 25 27  1  0  0  0  0
 27 28  1  0  0  0  0
 27 43  1  0  0  0  0
 28 29  1  1  0  0  0
 28 36  1  0  0  0  0
 29 30  1  0  0  0  0
 30 31  1  0  0  0  0
 30 35  2  0  0  0  0
 31 32  2  0  0  0  0
 32 33  1  0  0  0  0
 33 34  2  0  0  0  0
 34 35  1  0  0  0  0
 36 37  2  0  0  0  0
 36 38  1  0  0  0  0
 38 42  1  0  0  0  0
 39 38  1  1  0  0  0
 39 40  1  0  0  0  0
 39 43  1  0  0  0  0
 40 41  1  0  0  0  0
 41 42  1  0  0  0  0
 43 44  1  1  0  0  0
M  END
>  <Index>
695

>  <ID>
HT1363

>  <class>
0

>  <apol>
94.021339

>  <ast_fraglike>
0

>  <ast_fraglike_ext>
0

>  <ast_violation>
2

>  <ast_violation_ext>
4

>  <a_acc>
6

>  <a_acid>
0

>  <a_aro>
15

>  <a_base>
0

>  <a_count>
81

>  <a_don>
2

>  <a_donacc>
8

>  <a_heavy>
44

>  <a_hyd>
29

>  <a_IC>
124.58506

>  <a_ICM>
1.5380871

>  <a_nB>
0

>  <a_nBr>
0

>  <a_nC>
34

>  <a_nCl>
0

>  <a_nF>
0

>  <a_nH>
37

>  <a_nI>
0

>  <a_nN>
5

>  <a_nO>
5

>  <a_nP>
0

>  <a_nS>
0

>  <balabanJ>
1.017108

>  <BCUT_PEOE_0>
-2.7136261

>  <BCUT_PEOE_1>
-0.55729294

>  <BCUT_PEOE_2>
0.58913684

>  <BCUT_PEOE_3>
2.8718143

>  <BCUT_SLOGP_0>
-2.8707566

>  <BCUT_SLOGP_1>
-0.4754211

>  <BCUT_SLOGP_2>
0.60751486

>  <BCUT_SLOGP_3>
2.7466762

>  <BCUT_SMR_0>
-2.4387946

>  <BCUT_SMR_1>
-0.39734456

>  <BCUT_SMR_2>
0.76073766

>  <BCUT_SMR_3>
3.0955029

>  <bpol>
53.818661

>  <b_1rotN>
4

>  <b_1rotR>
0.078431375

>  <b_ar>
16

>  <b_count>
88

>  <b_double>
4

>  <b_heavy>
51

>  <b_max1len>
4

>  <b_rotN>
5

>  <b_rotR>
0.098039217

>  <b_single>
68

>  <b_triple>
0

>  <chi0>
30.542877

>  <chi0v>
25.194605

>  <chi0v_C>
20.825544

>  <chi0_C>
22.819262

>  <chi1>
21.08699

>  <chi1v>
15.508517

>  <chi1v_C>
10.310184

>  <chi1_C>
12.717912

>  <chiral>
6

>  <chiral_u>
0

>  <density>
0.74768621

>  <diameter>
18

>  <FCharge>
0

>  <GCUT_PEOE_0>
-0.87333792

>  <GCUT_PEOE_1>
-0.39580694

>  <GCUT_PEOE_2>
0.057178959

>  <GCUT_PEOE_3>
3.1988542

>  <GCUT_SLOGP_0>
-1.1634965

>  <GCUT_SLOGP_1>
-0.34795392

>  <GCUT_SLOGP_2>
0.075102217

>  <GCUT_SLOGP_3>
3.160635

>  <GCUT_SMR_0>
-0.52945125

>  <GCUT_SMR_1>
-0.21385431

>  <GCUT_SMR_2>
0.16689879

>  <GCUT_SMR_3>
3.4453835

>  <Kier1>
31.278738

>  <Kier2>
11.561043

>  <Kier3>
4.9398265

>  <KierA1>
24.00293

>  <KierA2>
8.8139086

>  <KierA3>
3.748934

>  <KierFlex>
4.8081732

>  <lip_acc>
10

>  <lip_don>
2

>  <lip_druglike>
1

>  <lip_violation>
1

>  <logP(o/w)>
3.437

>  <logS>
-5.4651899

>  <mr>
16.255964

>  <mutagenic>
0

>  <nmol>
1

>  <opr_brigid>
39

>  <opr_leadlike>
0

>  <opr_nring>
8

>  <opr_nrot>
4

>  <opr_violation>
3

>  <PC+>
0

>  <PC->
0

>  <PEOE_PC+>
3.7238836

>  <PEOE_PC->
-3.7238836

>  <PEOE_RPC+>
0.075427569

>  <PEOE_RPC->
0.093825206

>  <PEOE_VSA+0>
180.9631

>  <PEOE_VSA+1>
55.45002

>  <PEOE_VSA+2>
6.2919211

>  <PEOE_VSA+3>
8.6190128

>  <PEOE_VSA+4>
36.223236

>  <PEOE_VSA+5>
18.549088

>  <PEOE_VSA+6>
0

>  <PEOE_VSA-0>
89.179367

>  <PEOE_VSA-1>
98.03923

>  <PEOE_VSA-2>
0

>  <PEOE_VSA-3>
0

>  <PEOE_VSA-4>
0

>  <PEOE_VSA-5>
43.204517

>  <PEOE_VSA-6>
7.9044313

>  <PEOE_VSA_FHYD>
0.8055169

>  <PEOE_VSA_FNEG>
0.43776098

>  <PEOE_VSA_FPNEG>
0.093877114

>  <PEOE_VSA_FPOL>
0.19448313

>  <PEOE_VSA_FPOS>
0.56223905

>  <PEOE_VSA_FPPOS>
0.10060601

>  <PEOE_VSA_HYD>
438.54266

>  <PEOE_VSA_NEG>
238.32755

>  <PEOE_VSA_PNEG>
51.108952

>  <PEOE_VSA_POL>
105.88127

>  <PEOE_VSA_POS>
306.09637

>  <PEOE_VSA_PPOS>
54.77232

>  <petitjean>
0.5

>  <petitjeanSC>
1

>  <Q_PC+>
0

>  <Q_PC->
0

>  <Q_RPC+>
0

>  <Q_RPC->
0

>  <Q_VSA_FHYD>
1

>  <Q_VSA_FNEG>
0

>  <Q_VSA_FPNEG>
0

>  <Q_VSA_FPOL>
0

>  <Q_VSA_FPOS>
1

>  <Q_VSA_FPPOS>
0

>  <Q_VSA_HYD>
544.42395

>  <Q_VSA_NEG>
0

>  <Q_VSA_PNEG>
0

>  <Q_VSA_POL>
0

>  <Q_VSA_POS>
544.42395

>  <Q_VSA_PPOS>
0

>  <radius>
9

>  <reactive>
1

>  <rings>
8

>  <RPC+>
0

>  <RPC->
0

>  <rsynth>
1

>  <SlogP>
2.3603401

>  <SlogP_VSA0>
43.395977

>  <SlogP_VSA1>
27.048386

>  <SlogP_VSA2>
94.53244

>  <SlogP_VSA3>
36.879158

>  <SlogP_VSA4>
13.967521

>  <SlogP_VSA5>
70.633995

>  <SlogP_VSA6>
0

>  <SlogP_VSA7>
183.90569

>  <SlogP_VSA8>
37.736813

>  <SlogP_VSA9>
66.223206

>  <SMR>
16.288651

>  <SMR_VSA0>
82.58654

>  <SMR_VSA1>
36.657261

>  <SMR_VSA2>
22.421547

>  <SMR_VSA3>
21.50263

>  <SMR_VSA4>
7.9026761

>  <SMR_VSA5>
251.47664

>  <SMR_VSA6>
52.655506

>  <SMR_VSA7>
99.120392

>  <TPSA>
107.35

>  <VAdjEq>
0.29769894

>  <VAdjMa>
6.6724253

>  <VDistEq>
3.8961775

>  <VDistMa>
10.638728

>  <vdw_area>
544.42395

>  <vdw_vol>
796.72461

>  <vsa_acc>
43.204517

>  <vsa_acid>
0

>  <vsa_base>
0

>  <vsa_don>
5.6825762

>  <vsa_hyd>
403.66577

>  <vsa_other>
44.448151

>  <vsa_pol>
62.454014

>  <Weight>
595.70001

>  <weinerPath>
6609

>  <weinerPol>
91

>  <zagreb>
264

$$$$