O=C1N(C)C(=O)NC(=O)C1(C(C#CCC)C)CC=C
  MOE2013           2D

 19 19  0  0  1  0  0  0  0  0999 V2000
    0.0000    0.0000    0.0000 O   0  0  0  0  0  0  0  0  0  0  0  0
    1.2990   -0.7490    0.0000 C   0  0  0  0  0  0  0  0  0  0  0  0
    1.3000   -2.2490    0.0000 N   0  0  0  0  0  0  0  0  0  0  0  0
    0.0020   -3.0000    0.0000 C   0  0  0  0  0  0  0  0  0  0  0  0
    2.6000   -2.9990    0.0000 C   0  0  0  0  0  0  0  0  0  0  0  0
    2.6010   -4.4990    0.0000 O   0  0  0  0  0  0  0  0  0  0  0  0
    3.8980   -2.2480    0.0000 N   0  0  0  0  0  0  0  0  0  0  0  0
    3.8980   -0.7480    0.0000 C   0  0  0  0  0  0  0  0  0  0  0  0
    5.1960    0.0030    0.0000 O   0  0  0  0  0  0  0  0  0  0  0  0
    2.5980    0.0010    0.0000 C   0  0  3  0  0  0  0  0  0  0  0  0
    3.3470    1.3010    0.0000 C   0  0  3  0  0  0  0  0  0  0  0  0
    4.8470    1.3020    0.0000 C   0  0  0  0  0  0  0  0  0  0  0  0
    6.3470    1.3030    0.0000 C   0  0  0  0  0  0  0  0  0  0  0  0
    7.8470    1.3030    0.0000 C   0  0  0  0  0  0  0  0  0  0  0  0
    8.5970    2.6030    0.0000 C   0  0  0  0  0  0  0  0  0  0  0  0
    2.5970    2.6000    0.0000 C   0  0  0  0  0  0  0  0  0  0  0  0
    1.8470    1.3000    0.0000 C   0  0  0  0  0  0  0  0  0  0  0  0
    0.3470    1.2990    0.0000 C   0  0  0  0  0  0  0  0  0  0  0  0
   -0.4030    2.5980    0.0000 C   0  0  0  0  0  0  0  0  0  0  0  0
  1  2  2  0  0  0  0
  2  3  1  0  0  0  0
  2 10  1  0  0  0  0
  3  4  1  0  0  0  0
  3  5  1  0  0  0  0
  5  6  2  0  0  0  0
  5  7  1  0  0  0  0
  7  8  1  0  0  0  0
  8  9  2  0  0  0  0
  8 10  1  0  0  0  0
 10 11  1  0  0  0  0
 10 17  1  0  0  0  0
 11 12  1  0  0  0  0
 11 16  1  0  0  0  0
 12 13  3  0  0  0  0
 13 14  1  0  0  0  0
 14 15  1  0  0  0  0
 17 18  1  0  0  0  0
 18 19  2  0  0  0  0
M  END
>  <Index>
688

>  <ID>
HT1345

>  <class>
0

>  <apol>
41.248276

>  <ast_fraglike>
1

>  <ast_fraglike_ext>
0

>  <ast_violation>
0

>  <ast_violation_ext>
1

>  <a_acc>
3

>  <a_acid>
0

>  <a_aro>
0

>  <a_base>
0

>  <a_count>
37

>  <a_don>
1

>  <a_donacc>
4

>  <a_heavy>
19

>  <a_hyd>
11

>  <a_IC>
57.633266

>  <a_ICM>
1.5576559

>  <a_nB>
0

>  <a_nBr>
0

>  <a_nC>
14

>  <a_nCl>
0

>  <a_nF>
0

>  <a_nH>
18

>  <a_nI>
0

>  <a_nN>
2

>  <a_nO>
3

>  <a_nP>
0

>  <a_nS>
0

>  <balabanJ>
3.0107996

>  <BCUT_PEOE_0>
-2.6210225

>  <BCUT_PEOE_1>
-0.37662271

>  <BCUT_PEOE_2>
0.29239288

>  <BCUT_PEOE_3>
2.7275496

>  <BCUT_SLOGP_0>
-2.7893269

>  <BCUT_SLOGP_1>
-0.28996736

>  <BCUT_SLOGP_2>
0.37705851

>  <BCUT_SLOGP_3>
2.6571176

>  <BCUT_SMR_0>
-2.3942518

>  <BCUT_SMR_1>
-0.070097432

>  <BCUT_SMR_2>
0.55866092

>  <BCUT_SMR_3>
2.9506817

>  <bpol>
25.191727

>  <b_1rotN>
5

>  <b_1rotR>
0.2631579

>  <b_ar>
0

>  <b_count>
37

>  <b_double>
4

>  <b_heavy>
19

>  <b_max1len>
6

>  <b_rotN>
5

>  <b_rotR>
0.2631579

>  <b_single>
32

>  <b_triple>
1

>  <chi0>
14.629392

>  <chi0v>
11.447979

>  <chi0v_C>
9.276021

>  <chi0_C>
10.344935

>  <chi1>
8.9119549

>  <chi1v>
6.1422105

>  <chi1v_C>
4.1354108

>  <chi1_C>
5.119391

>  <chiral>
2

>  <chiral_u>
2

>  <density>
0.72455072

>  <diameter>
9

>  <FCharge>
0

>  <GCUT_PEOE_0>
-0.78010809

>  <GCUT_PEOE_1>
-0.4203608

>  <GCUT_PEOE_2>
-0.032412969

>  <GCUT_PEOE_3>
2.6425858

>  <GCUT_SLOGP_0>
-1.1706245

>  <GCUT_SLOGP_1>
-0.28504801

>  <GCUT_SLOGP_2>
0.049591783

>  <GCUT_SLOGP_3>
2.6004224

>  <GCUT_SMR_0>
-0.51946074

>  <GCUT_SMR_1>
-0.129822

>  <GCUT_SMR_2>
0.15551268

>  <GCUT_SMR_3>
2.8772187

>  <Kier1>
17.052631

>  <Kier2>
7.1358023

>  <Kier3>
3.1911356

>  <KierA1>
12.188855

>  <KierA2>
4.9965239

>  <KierA3>
2.1986139

>  <KierFlex>
3.2053633

>  <lip_acc>
5

>  <lip_don>
1

>  <lip_druglike>
1

>  <lip_violation>
0

>  <logP(o/w)>
1.727

>  <logS>
-3.2193

>  <mr>
7.2474256

>  <mutagenic>
0

>  <nmol>
1

>  <opr_brigid>
8

>  <opr_leadlike>
1

>  <opr_nring>
1

>  <opr_nrot>
5

>  <opr_violation>
0

>  <PC+>
0

>  <PC->
0

>  <PEOE_PC+>
1.8409394

>  <PEOE_PC->
-1.8409394

>  <PEOE_RPC+>
0.17999879

>  <PEOE_RPC->
0.15075943

>  <PEOE_VSA+0>
91.655403

>  <PEOE_VSA+1>
12.796158

>  <PEOE_VSA+2>
0

>  <PEOE_VSA+3>
8.6190128

>  <PEOE_VSA+4>
25.899061

>  <PEOE_VSA+5>
0

>  <PEOE_VSA+6>
17.440542

>  <PEOE_VSA-0>
8.701313

>  <PEOE_VSA-1>
65.558754

>  <PEOE_VSA-2>
38.109764

>  <PEOE_VSA-3>
0

>  <PEOE_VSA-4>
13.566921

>  <PEOE_VSA-5>
27.270733

>  <PEOE_VSA-6>
0

>  <PEOE_VSA_FHYD>
0.72812515

>  <PEOE_VSA_FNEG>
0.49482799

>  <PEOE_VSA_FPNEG>
0.13189705

>  <PEOE_VSA_FPOL>
0.27187485

>  <PEOE_VSA_FPOS>
0.50517201

>  <PEOE_VSA_FPPOS>
0.13997781

>  <PEOE_VSA_HYD>
225.44041

>  <PEOE_VSA_NEG>
153.20749

>  <PEOE_VSA_PNEG>
40.837654

>  <PEOE_VSA_POL>
84.177261

>  <PEOE_VSA_POS>
156.41019

>  <PEOE_VSA_PPOS>
43.339603

>  <petitjean>
0.44444445

>  <petitjeanSC>
0.80000001

>  <Q_PC+>
0

>  <Q_PC->
0

>  <Q_RPC+>
0

>  <Q_RPC->
0

>  <Q_VSA_FHYD>
1

>  <Q_VSA_FNEG>
0

>  <Q_VSA_FPNEG>
0

>  <Q_VSA_FPOL>
0

>  <Q_VSA_FPOS>
1

>  <Q_VSA_FPPOS>
0

>  <Q_VSA_HYD>
309.61768

>  <Q_VSA_NEG>
0

>  <Q_VSA_PNEG>
0

>  <Q_VSA_POL>
0

>  <Q_VSA_POS>
309.61768

>  <Q_VSA_PPOS>
0

>  <radius>
5

>  <reactive>
0

>  <rings>
1

>  <RPC+>
0

>  <RPC->
0

>  <rsynth>
0.68421054

>  <SlogP>
1.306608

>  <SlogP_VSA0>
18.01075

>  <SlogP_VSA1>
18.471838

>  <SlogP_VSA2>
47.724434

>  <SlogP_VSA3>
34.061146

>  <SlogP_VSA4>
4.4107962

>  <SlogP_VSA5>
32.897186

>  <SlogP_VSA6>
0

>  <SlogP_VSA7>
17.643185

>  <SlogP_VSA8>
37.736813

>  <SlogP_VSA9>
122.61504

>  <SMR>
7.07867

>  <SMR_VSA0>
71.586647

>  <SMR_VSA1>
3.1243138

>  <SMR_VSA2>
22.421547

>  <SMR_VSA3>
34.061146

>  <SMR_VSA4>
0

>  <SMR_VSA5>
55.379993

>  <SMR_VSA6>
15.347524

>  <SMR_VSA7>
131.65001

>  <TPSA>
66.480003

>  <VAdjEq>
0.48546076

>  <VAdjMa>
5.2479277

>  <VDistEq>
2.8394494

>  <VDistMa>
8.2427235

>  <vdw_area>
309.61768

>  <vdw_vol>
362.02985

>  <vsa_acc>
40.700764

>  <vsa_acid>
0

>  <vsa_base>
0

>  <vsa_don>
5.6825762

>  <vsa_hyd>
203.37582

>  <vsa_other>
43.339603

>  <vsa_pol>
46.383339

>  <Weight>
262.30899

>  <weinerPath>
646

>  <weinerPol>
35

>  <zagreb>
92

$$$$