O=C(C(CC(N(C)C)C)(c1ccccc1)c1ccccc1)CC
  MOE2013           2D

 23 24  0  0  1  0  0  0  0  0999 V2000
    0.0000    0.0000    0.0000 O   0  0  0  0  0  0  0  0  0  0  0  0
   -1.5000    0.0060    0.0000 C   0  0  0  0  0  0  0  0  0  0  0  0
   -2.2550   -1.2910    0.0000 C   0  0  0  0  0  0  0  0  0  0  0  0
   -0.9590   -2.0450    0.0000 C   0  0  0  0  0  0  0  0  0  0  0  0
    0.4920   -1.6630    0.0000 C   0  0  3  0  0  0  0  0  0  0  0  0
    1.5480   -2.7270    0.0000 N   0  0  0  0  0  0  0  0  0  0  0  0
    1.1550   -4.1750    0.0000 C   0  0  0  0  0  0  0  0  0  0  0  0
    2.9990   -2.3440    0.0000 C   0  0  0  0  0  0  0  0  0  0  0  0
    0.8850   -0.2150    0.0000 C   0  0  0  0  0  0  0  0  0  0  0  0
   -3.0100   -2.5870    0.0000 C   0  0  0  0  0  0  0  0  0  0  0  0
   -4.5100   -2.5810    0.0000 C   0  0  0  0  0  0  0  0  0  0  0  0
   -5.2650   -3.8770    0.0000 C   0  0  0  0  0  0  0  0  0  0  0  0
   -4.5190   -5.1790    0.0000 C   0  0  0  0  0  0  0  0  0  0  0  0
   -3.0190   -5.1850    0.0000 C   0  0  0  0  0  0  0  0  0  0  0  0
   -2.2650   -3.8890    0.0000 C   0  0  0  0  0  0  0  0  0  0  0  0
   -3.5510   -0.5360    0.0000 C   0  0  0  0  0  0  0  0  0  0  0  0
   -3.5450    0.9640    0.0000 C   0  0  0  0  0  0  0  0  0  0  0  0
   -4.8420    1.7190    0.0000 C   0  0  0  0  0  0  0  0  0  0  0  0
   -6.1440    0.9740    0.0000 C   0  0  0  0  0  0  0  0  0  0  0  0
   -6.1490   -0.5260    0.0000 C   0  0  0  0  0  0  0  0  0  0  0  0
   -4.8530   -1.2810    0.0000 C   0  0  0  0  0  0  0  0  0  0  0  0
   -2.2450    1.3070    0.0000 C   0  0  0  0  0  0  0  0  0  0  0  0
   -1.4900    2.6040    0.0000 C   0  0  0  0  0  0  0  0  0  0  0  0
  1  2  2  0  0  0  0
  2  3  1  0  0  0  0
  2 22  1  0  0  0  0
  3  4  1  0  0  0  0
  3 10  1  0  0  0  0
  3 16  1  0  0  0  0
  4  5  1  0  0  0  0
  5  6  1  0  0  0  0
  5  9  1  0  0  0  0
  6  7  1  0  0  0  0
  6  8  1  0  0  0  0
 10 11  1  0  0  0  0
 10 15  2  0  0  0  0
 11 12  2  0  0  0  0
 12 13  1  0  0  0  0
 13 14  2  0  0  0  0
 14 15  1  0  0  0  0
 16 17  1  0  0  0  0
 16 21  2  0  0  0  0
 17 18  2  0  0  0  0
 18 19  1  0  0  0  0
 19 20  2  0  0  0  0
 20 21  1  0  0  0  0
 22 23  1  0  0  0  0
M  END
>  <Index>
682

>  <ID>
HT1331

>  <class>
0

>  <apol>
56.86541

>  <ast_fraglike>
0

>  <ast_fraglike_ext>
0

>  <ast_violation>
2

>  <ast_violation_ext>
3

>  <a_acc>
2

>  <a_acid>
0

>  <a_aro>
12

>  <a_base>
0

>  <a_count>
50

>  <a_don>
0

>  <a_donacc>
2

>  <a_heavy>
23

>  <a_hyd>
20

>  <a_IC>
61.572182

>  <a_ICM>
1.2314436

>  <a_nB>
0

>  <a_nBr>
0

>  <a_nC>
21

>  <a_nCl>
0

>  <a_nF>
0

>  <a_nH>
27

>  <a_nI>
0

>  <a_nN>
1

>  <a_nO>
1

>  <a_nP>
0

>  <a_nS>
0

>  <balabanJ>
2.3415511

>  <BCUT_PEOE_0>
-2.7108653

>  <BCUT_PEOE_1>
-0.5549053

>  <BCUT_PEOE_2>
0.58401495

>  <BCUT_PEOE_3>
2.6789033

>  <BCUT_SLOGP_0>
-2.7483943

>  <BCUT_SLOGP_1>
-0.46273762

>  <BCUT_SLOGP_2>
0.67592645

>  <BCUT_SLOGP_3>
2.679143

>  <BCUT_SMR_0>
-2.4413927

>  <BCUT_SMR_1>
-0.39578512

>  <BCUT_SMR_2>
0.72757006

>  <BCUT_SMR_3>
2.942606

>  <bpol>
32.45459

>  <b_1rotN>
7

>  <b_1rotR>
0.29166666

>  <b_ar>
12

>  <b_count>
51

>  <b_double>
1

>  <b_heavy>
24

>  <b_max1len>
9

>  <b_rotN>
7

>  <b_rotR>
0.29166666

>  <b_single>
38

>  <b_triple>
0

>  <chi0>
16.872032

>  <chi0v>
14.620528

>  <chi0v_C>
13.765066

>  <chi0_C>
15.294683

>  <chi1>
11.018909

>  <chi1v>
8.3279295

>  <chi1v_C>
6.9711795

>  <chi1_C>
8.9535255

>  <chiral>
1

>  <chiral_u>
1

>  <density>
0.64097059

>  <diameter>
8

>  <FCharge>
0

>  <GCUT_PEOE_0>
-0.86223054

>  <GCUT_PEOE_1>
-0.37453285

>  <GCUT_PEOE_2>
0.05910765

>  <GCUT_PEOE_3>
2.8767941

>  <GCUT_SLOGP_0>
-0.95352

>  <GCUT_SLOGP_1>
-0.26386139

>  <GCUT_SLOGP_2>
0.13509294

>  <GCUT_SLOGP_3>
2.9407356

>  <GCUT_SMR_0>
-0.52539635

>  <GCUT_SMR_1>
-0.20270373

>  <GCUT_SMR_2>
0.16536191

>  <GCUT_SMR_3>
3.1405003

>  <Kier1>
19.326389

>  <Kier2>
8.909091

>  <Kier3>
4.3456788

>  <KierA1>
14.886803

>  <KierA2>
6.7750959

>  <KierA3>
3.2727211

>  <KierFlex>
4.3851962

>  <lip_acc>
2

>  <lip_don>
0

>  <lip_druglike>
1

>  <lip_violation>
0

>  <logP(o/w)>
5.2410002

>  <logS>
-3.9042799

>  <mr>
9.7805386

>  <mutagenic>
0

>  <nmol>
1

>  <opr_brigid>
12

>  <opr_leadlike>
1

>  <opr_nring>
2

>  <opr_nrot>
7

>  <opr_violation>
0

>  <PC+>
0

>  <PC->
0

>  <PEOE_PC+>
1.410396

>  <PEOE_PC->
-1.410396

>  <PEOE_RPC+>
0.10480943

>  <PEOE_RPC->
0.21669297

>  <PEOE_VSA+0>
84.358833

>  <PEOE_VSA+1>
42.653858

>  <PEOE_VSA+2>
8.458519

>  <PEOE_VSA+3>
0

>  <PEOE_VSA+4>
0

>  <PEOE_VSA+5>
0

>  <PEOE_VSA+6>
0

>  <PEOE_VSA-0>
78.343445

>  <PEOE_VSA-1>
141.29672

>  <PEOE_VSA-2>
0

>  <PEOE_VSA-3>
0

>  <PEOE_VSA-4>
0

>  <PEOE_VSA-5>
13.566921

>  <PEOE_VSA-6>
0

>  <PEOE_VSA_FHYD>
0.96320122

>  <PEOE_VSA_FNEG>
0.63254899

>  <PEOE_VSA_FPNEG>
0.036798805

>  <PEOE_VSA_FPOL>
0.036798805

>  <PEOE_VSA_FPOS>
0.36745101

>  <PEOE_VSA_FPPOS>
0

>  <PEOE_VSA_HYD>
355.11139

>  <PEOE_VSA_NEG>
233.20709

>  <PEOE_VSA_PNEG>
13.566921

>  <PEOE_VSA_POL>
13.566921

>  <PEOE_VSA_POS>
135.47122

>  <PEOE_VSA_PPOS>
0

>  <petitjean>
0.5

>  <petitjeanSC>
1

>  <Q_PC+>
0

>  <Q_PC->
0

>  <Q_RPC+>
0

>  <Q_RPC->
0

>  <Q_VSA_FHYD>
1

>  <Q_VSA_FNEG>
0

>  <Q_VSA_FPNEG>
0

>  <Q_VSA_FPOL>
0

>  <Q_VSA_FPOS>
1

>  <Q_VSA_FPPOS>
0

>  <Q_VSA_HYD>
368.67831

>  <Q_VSA_NEG>
0

>  <Q_VSA_PNEG>
0

>  <Q_VSA_POL>
0

>  <Q_VSA_POS>
368.67831

>  <Q_VSA_PPOS>
0

>  <radius>
4

>  <reactive>
1

>  <rings>
2

>  <RPC+>
0

>  <RPC->
0

>  <rsynth>
1

>  <SlogP>
4.2919998

>  <SlogP_VSA0>
0

>  <SlogP_VSA1>
8.8119249

>  <SlogP_VSA2>
27.844185

>  <SlogP_VSA3>
0

>  <SlogP_VSA4>
6.37115

>  <SlogP_VSA5>
65.794373

>  <SlogP_VSA6>
0

>  <SlogP_VSA7>
176.43184

>  <SlogP_VSA8>
37.736813

>  <SlogP_VSA9>
66.652031

>  <SMR>
9.6728001

>  <SMR_VSA0>
23.862217

>  <SMR_VSA1>
3.1243138

>  <SMR_VSA2>
0

>  <SMR_VSA3>
10.353119

>  <SMR_VSA4>
0

>  <SMR_VSA5>
214.16866

>  <SMR_VSA6>
5.6876111

>  <SMR_VSA7>
132.44641

>  <TPSA>
20.309999

>  <VAdjEq>
0.43892586

>  <VAdjMa>
5.5849624

>  <VDistEq>
2.8367078

>  <VDistMa>
8.8270121

>  <vdw_area>
368.67831

>  <vdw_vol>
482.78815

>  <vsa_acc>
13.566921

>  <vsa_acid>
0

>  <vsa_base>
0

>  <vsa_don>
0

>  <vsa_hyd>
327.43439

>  <vsa_other>
8.458519

>  <vsa_pol>
13.566921

>  <Weight>
309.453

>  <weinerPath>
1044

>  <weinerPol>
39

>  <zagreb>
114

$$$$