O(C)c1cc2c([nH]cc2CCNC(=O)C)cc1
  MOE2013           2D

 17 18  0  0  0  0  0  0  0  0999 V2000
    0.0000    0.0000    0.0000 O   0  0  0  0  0  0  0  0  0  0  0  0
   -1.4200    0.4830    0.0000 C   0  0  0  0  0  0  0  0  0  0  0  0
    1.1280    0.9890    0.0000 C   0  0  0  0  0  0  0  0  0  0  0  0
    2.5480    0.5060    0.0000 C   0  0  0  0  0  0  0  0  0  0  0  0
    3.6760    1.4950    0.0000 C   0  0  0  0  0  0  0  0  0  0  0  0
    3.3840    2.9660    0.0000 C   0  0  0  0  0  0  0  0  0  0  0  0
    4.6930    3.6980    0.0000 N   0  0  0  0  0  0  0  0  0  0  0  0
    5.7940    2.6800    0.0000 C   0  0  0  0  0  0  0  0  0  0  0  0
    5.1660    1.3180    0.0000 C   0  0  0  0  0  0  0  0  0  0  0  0
    5.8980    0.0090    0.0000 C   0  0  0  0  0  0  0  0  0  0  0  0
    7.3980   -0.0110    0.0000 C   0  0  0  0  0  0  0  0  0  0  0  0
    8.1310   -1.3200    0.0000 N   0  0  0  0  0  0  0  0  0  0  0  0
    9.6310   -1.3410    0.0000 C   0  0  0  0  0  0  0  0  0  0  0  0
   10.3980   -0.0520    0.0000 O   0  0  0  0  0  0  0  0  0  0  0  0
   10.3630   -2.6500    0.0000 C   0  0  0  0  0  0  0  0  0  0  0  0
    1.9640    3.4490    0.0000 C   0  0  0  0  0  0  0  0  0  0  0  0
    0.8360    2.4600    0.0000 C   0  0  0  0  0  0  0  0  0  0  0  0
  1  2  1  0  0  0  0
  1  3  1  0  0  0  0
  3  4  1  0  0  0  0
  3 17  2  0  0  0  0
  4  5  2  0  0  0  0
  5  6  1  0  0  0  0
  5  9  1  0  0  0  0
  6  7  1  0  0  0  0
  6 16  2  0  0  0  0
  7  8  1  0  0  0  0
  8  9  2  0  0  0  0
  9 10  1  0  0  0  0
 10 11  1  0  0  0  0
 11 12  1  0  0  0  0
 12 13  1  0  0  0  0
 13 14  2  0  0  0  0
 13 15  1  0  0  0  0
 16 17  1  0  0  0  0
M  END
>  <Index>
664

>  <ID>
HT1293

>  <class>
0

>  <apol>
37.352688

>  <ast_fraglike>
1

>  <ast_fraglike_ext>
0

>  <ast_violation>
0

>  <ast_violation_ext>
1

>  <a_acc>
2

>  <a_acid>
0

>  <a_aro>
9

>  <a_base>
0

>  <a_count>
33

>  <a_don>
2

>  <a_donacc>
4

>  <a_heavy>
17

>  <a_hyd>
12

>  <a_IC>
50.359291

>  <a_ICM>
1.5260391

>  <a_nB>
0

>  <a_nBr>
0

>  <a_nC>
13

>  <a_nCl>
0

>  <a_nF>
0

>  <a_nH>
16

>  <a_nI>
0

>  <a_nN>
2

>  <a_nO>
2

>  <a_nP>
0

>  <a_nS>
0

>  <balabanJ>
1.7972568

>  <BCUT_PEOE_0>
-2.4953773

>  <BCUT_PEOE_1>
-0.53709203

>  <BCUT_PEOE_2>
0.48688859

>  <BCUT_PEOE_3>
2.4617653

>  <BCUT_SLOGP_0>
-2.6543925

>  <BCUT_SLOGP_1>
-0.51111978

>  <BCUT_SLOGP_2>
0.61130834

>  <BCUT_SLOGP_3>
2.4695349

>  <BCUT_SMR_0>
-2.2215166

>  <BCUT_SMR_1>
-0.32801703

>  <BCUT_SMR_2>
0.691064

>  <BCUT_SMR_3>
2.7397633

>  <bpol>
21.685312

>  <b_1rotN>
4

>  <b_1rotR>
0.22222222

>  <b_ar>
10

>  <b_count>
34

>  <b_double>
1

>  <b_heavy>
18

>  <b_max1len>
4

>  <b_rotN>
5

>  <b_rotR>
0.27777779

>  <b_single>
23

>  <b_triple>
0

>  <chi0>
12.250712

>  <chi0v>
10.040112

>  <chi0v_C>
8.2236147

>  <chi0_C>
9.1293917

>  <chi1>
8.2027082

>  <chi1v>
5.5889874

>  <chi1v_C>
3.6302624

>  <chi1_C>
4.6935067

>  <chiral>
0

>  <chiral_u>
0

>  <density>
0.71583831

>  <diameter>
10

>  <FCharge>
0

>  <GCUT_PEOE_0>
-0.86282355

>  <GCUT_PEOE_1>
-0.42540687

>  <GCUT_PEOE_2>
0.038134821

>  <GCUT_PEOE_3>
2.4326022

>  <GCUT_SLOGP_0>
-1.1615965

>  <GCUT_SLOGP_1>
-0.3339909

>  <GCUT_SLOGP_2>
0.11525509

>  <GCUT_SLOGP_3>
2.5406013

>  <GCUT_SMR_0>
-0.50581318

>  <GCUT_SMR_1>
-0.20744896

>  <GCUT_SMR_2>
0.16352496

>  <GCUT_SMR_3>
2.7282343

>  <Kier1>
13.432098

>  <Kier2>
6.25

>  <Kier3>
3.4844444

>  <KierA1>
9.6961603

>  <KierA2>
4.4109182

>  <KierA3>
2.4150267

>  <KierFlex>
2.5158217

>  <lip_acc>
4

>  <lip_don>
2

>  <lip_druglike>
1

>  <lip_violation>
0

>  <logP(o/w)>
1.778

>  <logS>
-1.94012

>  <mr>
6.7282829

>  <mutagenic>
0

>  <nmol>
1

>  <opr_brigid>
10

>  <opr_leadlike>
1

>  <opr_nring>
2

>  <opr_nrot>
4

>  <opr_violation>
0

>  <PC+>
0

>  <PC->
0

>  <PEOE_PC+>
1.4538251

>  <PEOE_PC->
-1.4538251

>  <PEOE_RPC+>
0.14986332

>  <PEOE_RPC->
0.24787362

>  <PEOE_VSA+0>
112.44937

>  <PEOE_VSA+1>
38.316223

>  <PEOE_VSA+2>
0

>  <PEOE_VSA+3>
17.238026

>  <PEOE_VSA+4>
12.949531

>  <PEOE_VSA+5>
0

>  <PEOE_VSA+6>
0

>  <PEOE_VSA-0>
47.674564

>  <PEOE_VSA-1>
0

>  <PEOE_VSA-2>
0

>  <PEOE_VSA-3>
0

>  <PEOE_VSA-4>
0

>  <PEOE_VSA-5>
13.566921

>  <PEOE_VSA-6>
2.7775381

>  <PEOE_VSA_FHYD>
0.88041914

>  <PEOE_VSA_FNEG>
0.26133183

>  <PEOE_VSA_FPNEG>
0.066719659

>  <PEOE_VSA_FPOL>
0.11958089

>  <PEOE_VSA_FPOS>
0.7386682

>  <PEOE_VSA_FPPOS>
0.052861232

>  <PEOE_VSA_HYD>
215.67818

>  <PEOE_VSA_NEG>
64.01902

>  <PEOE_VSA_PNEG>
16.34446

>  <PEOE_VSA_POL>
29.293989

>  <PEOE_VSA_POS>
180.95314

>  <PEOE_VSA_PPOS>
12.949531

>  <petitjean>
0.5

>  <petitjeanSC>
1

>  <Q_PC+>
0

>  <Q_PC->
0

>  <Q_RPC+>
0

>  <Q_RPC->
0

>  <Q_VSA_FHYD>
1

>  <Q_VSA_FNEG>
0

>  <Q_VSA_FPNEG>
0

>  <Q_VSA_FPOL>
0

>  <Q_VSA_FPOS>
1

>  <Q_VSA_FPPOS>
0

>  <Q_VSA_HYD>
244.97217

>  <Q_VSA_NEG>
0

>  <Q_VSA_PNEG>
0

>  <Q_VSA_POL>
0

>  <Q_VSA_POS>
244.97217

>  <Q_VSA_PPOS>
0

>  <radius>
5

>  <reactive>
0

>  <rings>
2

>  <RPC+>
0

>  <RPC->
0

>  <rsynth>
1

>  <SlogP>
1.85507

>  <SlogP_VSA0>
29.010639

>  <SlogP_VSA1>
5.2587838

>  <SlogP_VSA2>
40.647747

>  <SlogP_VSA3>
18.439579

>  <SlogP_VSA4>
3.185575

>  <SlogP_VSA5>
54.252274

>  <SlogP_VSA6>
0

>  <SlogP_VSA7>
74.861008

>  <SlogP_VSA8>
0

>  <SlogP_VSA9>
38.569443

>  <SMR>
6.7238402

>  <SMR_VSA0>
23.862217

>  <SMR_VSA1>
10.999887

>  <SMR_VSA2>
34.79628

>  <SMR_VSA3>
8.4290028

>  <SMR_VSA4>
4.7171016

>  <SMR_VSA5>
89.012314

>  <SMR_VSA6>
23.698362

>  <SMR_VSA7>
68.709885

>  <TPSA>
54.119999

>  <VAdjEq>
0.54234898

>  <VAdjMa>
5.1699252

>  <VDistEq>
3.1059549

>  <VDistMa>
7.8481841

>  <vdw_area>
244.97217

>  <vdw_vol>
324.49088

>  <vsa_acc>
16.070677

>  <vsa_acid>
0

>  <vsa_base>
0

>  <vsa_don>
11.365152

>  <vsa_hyd>
188.47502

>  <vsa_other>
12.949531

>  <vsa_pol>
27.435829

>  <Weight>
232.28299

>  <weinerPath>
561

>  <weinerPol>
22

>  <zagreb>
84

$$$$