O(C)c1ccc(cc1)CN(CCN(C)C)c1ncccc1
  MOE2013           2D

 21 22  0  0  1  0  0  0  0  0999 V2000
    0.0000    0.0000    0.0000 O   0  0  0  0  0  0  0  0  0  0  0  0
    0.7550    1.2960    0.0000 C   0  0  0  0  0  0  0  0  0  0  0  0
   -1.5000    0.0050    0.0000 C   0  0  0  0  0  0  0  0  0  0  0  0
   -2.2550   -1.2910    0.0000 C   0  0  0  0  0  0  0  0  0  0  0  0
   -3.7550   -1.2860    0.0000 C   0  0  0  0  0  0  0  0  0  0  0  0
   -4.5000    0.0160    0.0000 C   0  0  0  0  0  0  0  0  0  0  0  0
   -3.7450    1.3130    0.0000 C   0  0  0  0  0  0  0  0  0  0  0  0
   -2.2450    1.3070    0.0000 C   0  0  0  0  0  0  0  0  0  0  0  0
   -6.0000    0.0220    0.0000 C   0  0  0  0  0  0  0  0  0  0  0  0
   -6.7550   -1.2750    0.0000 N   0  0  3  0  0  0  0  0  0  0  0  0
   -6.0090   -2.5760    0.0000 C   0  0  0  0  0  0  0  0  0  0  0  0
   -6.7640   -3.8730    0.0000 C   0  0  0  0  0  0  0  0  0  0  0  0
   -6.0190   -5.1740    0.0000 N   0  0  0  0  0  0  0  0  0  0  0  0
   -4.5190   -5.1800    0.0000 C   0  0  0  0  0  0  0  0  0  0  0  0
   -6.7730   -6.4710    0.0000 C   0  0  0  0  0  0  0  0  0  0  0  0
   -8.2550   -1.2690    0.0000 C   0  0  0  0  0  0  0  0  0  0  0  0
   -9.0090   -2.5660    0.0000 N   0  0  0  0  0  0  0  0  0  0  0  0
  -10.5090   -2.5600    0.0000 C   0  0  0  0  0  0  0  0  0  0  0  0
  -11.2550   -1.2580    0.0000 C   0  0  0  0  0  0  0  0  0  0  0  0
  -10.5000    0.0380    0.0000 C   0  0  0  0  0  0  0  0  0  0  0  0
   -9.0000    0.0320    0.0000 C   0  0  0  0  0  0  0  0  0  0  0  0
  1  2  1  0  0  0  0
  1  3  1  0  0  0  0
  3  4  1  0  0  0  0
  3  8  2  0  0  0  0
  4  5  2  0  0  0  0
  5  6  1  0  0  0  0
  6  7  2  0  0  0  0
  6  9  1  0  0  0  0
  7  8  1  0  0  0  0
  9 10  1  0  0  0  0
 10 11  1  0  0  0  0
 10 16  1  0  0  0  0
 11 12  1  0  0  0  0
 12 13  1  0  0  0  0
 13 14  1  0  0  0  0
 13 15  1  0  0  0  0
 16 17  1  0  0  0  0
 16 21  2  0  0  0  0
 17 18  2  0  0  0  0
 18 19  1  0  0  0  0
 19 20  2  0  0  0  0
 20 21  1  0  0  0  0
M  END
>  <Index>
676

>  <ID>
HT1312

>  <class>
0

>  <apol>
49.358238

>  <ast_fraglike>
1

>  <ast_fraglike_ext>
0

>  <ast_violation>
0

>  <ast_violation_ext>
1

>  <a_acc>
3

>  <a_acid>
0

>  <a_aro>
12

>  <a_base>
0

>  <a_count>
44

>  <a_don>
0

>  <a_donacc>
3

>  <a_heavy>
21

>  <a_hyd>
16

>  <a_IC>
61.931309

>  <a_ICM>
1.4075298

>  <a_nB>
0

>  <a_nBr>
0

>  <a_nC>
17

>  <a_nCl>
0

>  <a_nF>
0

>  <a_nH>
23

>  <a_nI>
0

>  <a_nN>
3

>  <a_nO>
1

>  <a_nP>
0

>  <a_nS>
0

>  <balabanJ>
1.8294302

>  <BCUT_PEOE_0>
-2.6443374

>  <BCUT_PEOE_1>
-0.53927964

>  <BCUT_PEOE_2>
0.52770799

>  <BCUT_PEOE_3>
2.5432267

>  <BCUT_SLOGP_0>
-2.7396643

>  <BCUT_SLOGP_1>
-0.46597213

>  <BCUT_SLOGP_2>
0.62924671

>  <BCUT_SLOGP_3>
2.5288491

>  <BCUT_SMR_0>
-2.3514984

>  <BCUT_SMR_1>
-0.35395867

>  <BCUT_SMR_2>
0.69938171

>  <BCUT_SMR_3>
2.832303

>  <bpol>
32.33976

>  <b_1rotN>
7

>  <b_1rotR>
0.31818181

>  <b_ar>
12

>  <b_count>
45

>  <b_double>
0

>  <b_heavy>
22

>  <b_max1len>
7

>  <b_rotN>
7

>  <b_rotR>
0.31818181

>  <b_single>
33

>  <b_triple>
0

>  <chi0>
15.07914

>  <chi0v>
12.990011

>  <chi0v_C>
11.240123

>  <chi0_C>
12.510225

>  <chi1>
10.185872

>  <chi1v>
7.1244912

>  <chi1v_C>
3.9635956

>  <chi1_C>
5.4494896

>  <chiral>
0

>  <chiral_u>
0

>  <density>
0.66709673

>  <diameter>
11

>  <FCharge>
0

>  <GCUT_PEOE_0>
-0.86105078

>  <GCUT_PEOE_1>
-0.3695522

>  <GCUT_PEOE_2>
-0.010289247

>  <GCUT_PEOE_3>
2.570935

>  <GCUT_SLOGP_0>
-0.9678508

>  <GCUT_SLOGP_1>
-0.29770055

>  <GCUT_SLOGP_2>
0.11728706

>  <GCUT_SLOGP_3>
2.6496203

>  <GCUT_SMR_0>
-0.51517004

>  <GCUT_SMR_1>
-0.18510288

>  <GCUT_SMR_2>
0.13967332

>  <GCUT_SMR_3>
2.8482118

>  <Kier1>
17.355371

>  <Kier2>
9.2091837

>  <Kier3>
5.9504132

>  <KierA1>
13.204053

>  <KierA2>
6.9030523

>  <KierA3>
4.4095659

>  <KierFlex>
4.3403935

>  <lip_acc>
4

>  <lip_don>
0

>  <lip_druglike>
1

>  <lip_violation>
0

>  <logP(o/w)>
2.615

>  <logS>
-2.0815799

>  <mr>
8.6672812

>  <mutagenic>
0

>  <nmol>
1

>  <opr_brigid>
12

>  <opr_leadlike>
1

>  <opr_nring>
2

>  <opr_nrot>
7

>  <opr_violation>
0

>  <PC+>
0

>  <PC->
0

>  <PEOE_PC+>
1.508911

>  <PEOE_PC->
-1.508911

>  <PEOE_RPC+>
0.07260859

>  <PEOE_RPC->
0.2305717

>  <PEOE_VSA+0>
132.50517

>  <PEOE_VSA+1>
55.377766

>  <PEOE_VSA+2>
11.190562

>  <PEOE_VSA+3>
0

>  <PEOE_VSA+4>
0

>  <PEOE_VSA+5>
0

>  <PEOE_VSA+6>
0

>  <PEOE_VSA-0>
97.705536

>  <PEOE_VSA-1>
36.764713

>  <PEOE_VSA-2>
0

>  <PEOE_VSA-3>
0

>  <PEOE_VSA-4>
5.6825762

>  <PEOE_VSA-5>
0

>  <PEOE_VSA-6>
2.503756

>  <PEOE_VSA_FHYD>
0.97604448

>  <PEOE_VSA_FNEG>
0.41745397

>  <PEOE_VSA_FPNEG>
0.02395555

>  <PEOE_VSA_FPOL>
0.02395555

>  <PEOE_VSA_FPOS>
0.58254606

>  <PEOE_VSA_FPPOS>
0

>  <PEOE_VSA_HYD>
333.54376

>  <PEOE_VSA_NEG>
142.65657

>  <PEOE_VSA_PNEG>
8.1863317

>  <PEOE_VSA_POL>
8.1863317

>  <PEOE_VSA_POS>
199.0735

>  <PEOE_VSA_PPOS>
0

>  <petitjean>
0.45454547

>  <petitjeanSC>
0.83333331

>  <Q_PC+>
0

>  <Q_PC->
0

>  <Q_RPC+>
0

>  <Q_RPC->
0

>  <Q_VSA_FHYD>
1

>  <Q_VSA_FNEG>
0

>  <Q_VSA_FPNEG>
0

>  <Q_VSA_FPOL>
0

>  <Q_VSA_FPOS>
1

>  <Q_VSA_FPPOS>
0

>  <Q_VSA_HYD>
341.73007

>  <Q_VSA_NEG>
0

>  <Q_VSA_PNEG>
0

>  <Q_VSA_POL>
0

>  <Q_VSA_POS>
341.73007

>  <Q_VSA_PPOS>
0

>  <radius>
6

>  <reactive>
0

>  <rings>
2

>  <RPC+>
0

>  <RPC->
0

>  <rsynth>
1

>  <SlogP>
2.9247999

>  <SlogP_VSA0>
14.124202

>  <SlogP_VSA1>
19.909843

>  <SlogP_VSA2>
0

>  <SlogP_VSA3>
36.879158

>  <SlogP_VSA4>
3.185575

>  <SlogP_VSA5>
101.17825

>  <SlogP_VSA6>
0

>  <SlogP_VSA7>
140.71664

>  <SlogP_VSA8>
0

>  <SlogP_VSA9>
26.010927

>  <SMR>
8.7040005

>  <SMR_VSA0>
0

>  <SMR_VSA1>
30.909731

>  <SMR_VSA2>
3.1243138

>  <SMR_VSA3>
8.4290028

>  <SMR_VSA4>
2.3279202

>  <SMR_VSA5>
159.15622

>  <SMR_VSA6>
36.879158

>  <SMR_VSA7>
101.17825

>  <TPSA>
28.6

>  <VAdjEq>
0.46827638

>  <VAdjMa>
5.4594316

>  <VDistEq>
3.2742774

>  <VDistMa>
8.4937429

>  <vdw_area>
341.73007

>  <vdw_vol>
427.81049

>  <vsa_acc>
8.1863317

>  <vsa_acid>
0

>  <vsa_base>
0

>  <vsa_don>
0

>  <vsa_hyd>
305.9819

>  <vsa_other>
11.190562

>  <vsa_pol>
8.1863317

>  <Weight>
285.39099

>  <weinerPath>
1004

>  <weinerPol>
27

>  <zagreb>
100

$$$$