ClC(Cl)C(F)(F)OC
  MOE2013           2D

  8  7  0  0  0  0  0  0  0  0999 V2000
    0.0000    0.0000    0.0000 Cl  0  0  0  0  0  0  0  0  0  0  0  0
   -0.0020    1.5000    0.0000 C   0  0  0  0  0  0  0  0  0  0  0  0
   -1.3020    2.2490    0.0000 Cl  0  0  0  0  0  0  0  0  0  0  0  0
    1.2970    2.2510    0.0000 C   0  0  0  0  0  0  0  0  0  0  0  0
    2.0480    0.9530    0.0000 F   0  0  0  0  0  0  0  0  0  0  0  0
    0.5450    3.5500    0.0000 F   0  0  0  0  0  0  0  0  0  0  0  0
    2.5950    3.0030    0.0000 O   0  0  0  0  0  0  0  0  0  0  0  0
    3.8950    2.2540    0.0000 C   0  0  0  0  0  0  0  0  0  0  0  0
  1  2  1  0  0  0  0
  2  3  1  0  0  0  0
  2  4  1  0  0  0  0
  4  5  1  0  0  0  0
  4  6  1  0  0  0  0
  4  7  1  0  0  0  0
  7  8  1  0  0  0  0
M  END
>  <Index>
691

>  <ID>
HT1353

>  <class>
0

>  <apol>
14.223172

>  <ast_fraglike>
1

>  <ast_fraglike_ext>
1

>  <ast_violation>
0

>  <ast_violation_ext>
0

>  <a_acc>
1

>  <a_acid>
0

>  <a_aro>
0

>  <a_base>
0

>  <a_count>
12

>  <a_don>
0

>  <a_donacc>
1

>  <a_heavy>
8

>  <a_hyd>
6

>  <a_IC>
26.264662

>  <a_ICM>
2.1887219

>  <a_nB>
0

>  <a_nBr>
0

>  <a_nC>
3

>  <a_nCl>
2

>  <a_nF>
2

>  <a_nH>
4

>  <a_nI>
0

>  <a_nN>
0

>  <a_nO>
1

>  <a_nP>
0

>  <a_nS>
0

>  <balabanJ>
3.7083242

>  <BCUT_PEOE_0>
-2.3147802

>  <BCUT_PEOE_1>
-0.18529823

>  <BCUT_PEOE_2>
0.052551027

>  <BCUT_PEOE_3>
2.5087616

>  <BCUT_SLOGP_0>
-2.4373825

>  <BCUT_SLOGP_1>
0.11394932

>  <BCUT_SLOGP_2>
0.50996667

>  <BCUT_SLOGP_3>
2.3999705

>  <BCUT_SMR_0>
-2.1515632

>  <BCUT_SMR_1>
0.1057

>  <BCUT_SMR_2>
0.37160176

>  <BCUT_SMR_3>
2.6450741

>  <bpol>
9.5348282

>  <b_1rotN>
2

>  <b_1rotR>
0.2857143

>  <b_ar>
0

>  <b_count>
11

>  <b_double>
0

>  <b_heavy>
7

>  <b_max1len>
5

>  <b_rotN>
2

>  <b_rotR>
0.2857143

>  <b_single>
11

>  <b_triple>
0

>  <chi0>
6.7844572

>  <chi0v>
5.5093145

>  <chi0v_C>
2.0773504

>  <chi0_C>
2.0773504

>  <chi1>
3.5040359

>  <chi1v>
2.5883193

>  <chi1v_C>
0.28867513

>  <chi1_C>
0.28867513

>  <chiral>
0

>  <chiral_u>
0

>  <density>
1.2126164

>  <diameter>
4

>  <FCharge>
0

>  <GCUT_PEOE_0>
-0.74411184

>  <GCUT_PEOE_1>
-0.35157424

>  <GCUT_PEOE_2>
-0.10744897

>  <GCUT_PEOE_3>
1.8193489

>  <GCUT_SLOGP_0>
-0.8516565

>  <GCUT_SLOGP_1>
-0.07370206

>  <GCUT_SLOGP_2>
0.34996668

>  <GCUT_SLOGP_3>
1.8561956

>  <GCUT_SMR_0>
-0.50329822

>  <GCUT_SMR_1>
-0.070608646

>  <GCUT_SMR_2>
0.20835821

>  <GCUT_SMR_3>
2.0008759

>  <Kier1>
8

>  <Kier2>
2.52

>  <Kier3>
2.2222223

>  <KierA1>
10.9026

>  <KierA2>
3.5977674

>  <KierA3>
3.301934

>  <KierFlex>
4.9031272

>  <lip_acc>
1

>  <lip_don>
0

>  <lip_druglike>
1

>  <lip_violation>
0

>  <logP(o/w)>
1.98428

>  <logS>
-1.90377

>  <mr>
2.7994092

>  <mutagenic>
1

>  <nmol>
1

>  <opr_brigid>
0

>  <opr_leadlike>
1

>  <opr_nring>
0

>  <opr_nrot>
2

>  <opr_violation>
0

>  <PC+>
0

>  <PC->
0

>  <PEOE_PC+>
0.85650176

>  <PEOE_PC->
-0.85650176

>  <PEOE_RPC+>
0.45146075

>  <PEOE_RPC->
0.37493417

>  <PEOE_VSA+0>
24.997658

>  <PEOE_VSA+1>
17.061544

>  <PEOE_VSA+2>
0

>  <PEOE_VSA+3>
3.2773626

>  <PEOE_VSA+4>
0

>  <PEOE_VSA+5>
0

>  <PEOE_VSA+6>
8.4831762

>  <PEOE_VSA-0>
0

>  <PEOE_VSA-1>
59.163895

>  <PEOE_VSA-2>
0

>  <PEOE_VSA-3>
23.817272

>  <PEOE_VSA-4>
0

>  <PEOE_VSA-5>
0

>  <PEOE_VSA-6>
2.503756

>  <PEOE_VSA_FHYD>
0.92113018

>  <PEOE_VSA_FNEG>
0.61365443

>  <PEOE_VSA_FPNEG>
0.01797324

>  <PEOE_VSA_FPOL>
0.078869812

>  <PEOE_VSA_FPOS>
0.38634557

>  <PEOE_VSA_FPPOS>
0.060896568

>  <PEOE_VSA_HYD>
128.31773

>  <PEOE_VSA_NEG>
85.484924

>  <PEOE_VSA_PNEG>
2.503756

>  <PEOE_VSA_POL>
10.986932

>  <PEOE_VSA_POS>
53.81974

>  <PEOE_VSA_PPOS>
8.4831762

>  <petitjean>
0.5

>  <petitjeanSC>
1

>  <Q_PC+>
0

>  <Q_PC->
0

>  <Q_RPC+>
0

>  <Q_RPC->
0

>  <Q_VSA_FHYD>
1

>  <Q_VSA_FNEG>
0

>  <Q_VSA_FPNEG>
0

>  <Q_VSA_FPOL>
0

>  <Q_VSA_FPOS>
1

>  <Q_VSA_FPPOS>
0

>  <Q_VSA_HYD>
139.30466

>  <Q_VSA_NEG>
0

>  <Q_VSA_PNEG>
0

>  <Q_VSA_POL>
0

>  <Q_VSA_POS>
139.30466

>  <Q_VSA_PPOS>
0

>  <radius>
2

>  <reactive>
1

>  <rings>
0

>  <RPC+>
0

>  <RPC->
0

>  <rsynth>
1

>  <SlogP>
2.0293

>  <SlogP_VSA0>
0

>  <SlogP_VSA1>
3.8819261

>  <SlogP_VSA2>
16.040747

>  <SlogP_VSA3>
0

>  <SlogP_VSA4>
0

>  <SlogP_VSA5>
35.383869

>  <SlogP_VSA6>
0

>  <SlogP_VSA7>
0

>  <SlogP_VSA8>
0

>  <SlogP_VSA9>
108.21751

>  <SMR>
2.7449999

>  <SMR_VSA0>
10.999887

>  <SMR_VSA1>
29.920227

>  <SMR_VSA2>
3.8819261

>  <SMR_VSA3>
5.0408592

>  <SMR_VSA4>
0

>  <SMR_VSA5>
0

>  <SMR_VSA6>
0

>  <SMR_VSA7>
113.68115

>  <TPSA>
9.2299995

>  <VAdjEq>
0.75787848

>  <VAdjMa>
3.8073549

>  <VDistEq>
1.8287803

>  <VDistMa>
5.6833258

>  <vdw_area>
139.30466

>  <vdw_vol>
136.04137

>  <vsa_acc>
2.503756

>  <vsa_acid>
0

>  <vsa_base>
0

>  <vsa_don>
0

>  <vsa_hyd>
127.12277

>  <vsa_other>
6.8309531

>  <vsa_pol>
2.503756

>  <Weight>
164.96599

>  <weinerPath>
62

>  <weinerPol>
9

>  <zagreb>
34

$$$$