n1c2N3C(c4c(Cc2ccc1)cccc4)CN(CC3)C
  MOE2013           2D

 20 23  0  0  1  0  0  0  0  0999 V2000
    0.0000    0.0000    0.0000 N   0  0  0  0  0  0  0  0  0  0  0  0
   -0.7510    1.2980    0.0000 C   0  0  0  0  0  0  0  0  0  0  0  0
   -2.2340    1.0730    0.0000 N   0  0  3  0  0  0  0  0  0  0  0  0
   -3.3350    2.0910    0.0000 C   0  0  3  0  0  0  0  0  0  0  0  0
   -3.2240    3.5870    0.0000 C   0  0  0  0  0  0  0  0  0  0  0  0
   -1.9860    4.4330    0.0000 C   0  0  0  0  0  0  0  0  0  0  0  0
   -0.5510    3.9940    0.0000 C   0  0  0  0  0  0  0  0  0  0  0  0
   -0.0020    2.5980    0.0000 C   0  0  0  0  0  0  0  0  0  0  0  0
    1.4980    2.5990    0.0000 C   0  0  0  0  0  0  0  0  0  0  0  0
    2.2490    1.3010    0.0000 C   0  0  0  0  0  0  0  0  0  0  0  0
    1.5000    0.0010    0.0000 C   0  0  0  0  0  0  0  0  0  0  0  0
   -2.0990    5.9290    0.0000 C   0  0  0  0  0  0  0  0  0  0  0  0
   -3.4520    6.5780    0.0000 C   0  0  0  0  0  0  0  0  0  0  0  0
   -4.6900    5.7320    0.0000 C   0  0  0  0  0  0  0  0  0  0  0  0
   -4.5760    4.2360    0.0000 C   0  0  0  0  0  0  0  0  0  0  0  0
   -4.7680    1.6460    0.0000 C   0  0  0  0  0  0  0  0  0  0  0  0
   -5.0990    0.1830    0.0000 N   0  0  3  0  0  0  0  0  0  0  0  0
   -3.9980   -0.8350    0.0000 C   0  0  0  0  0  0  0  0  0  0  0  0
   -2.5650   -0.3900    0.0000 C   0  0  0  0  0  0  0  0  0  0  0  0
   -6.5320   -0.2610    0.0000 C   0  0  0  0  0  0  0  0  0  0  0  0
  1  2  1  0  0  0  0
  1 11  2  0  0  0  0
  2  3  1  0  0  0  0
  2  8  2  0  0  0  0
  3  4  1  0  0  0  0
  3 19  1  0  0  0  0
  4  5  1  0  0  0  0
  4 16  1  0  0  0  0
  5  6  1  0  0  0  0
  5 15  2  0  0  0  0
  6  7  1  0  0  0  0
  6 12  2  0  0  0  0
  7  8  1  0  0  0  0
  8  9  1  0  0  0  0
  9 10  2  0  0  0  0
 10 11  1  0  0  0  0
 12 13  1  0  0  0  0
 13 14  2  0  0  0  0
 14 15  1  0  0  0  0
 16 17  1  0  0  0  0
 17 18  1  0  0  0  0
 17 20  1  0  0  0  0
 18 19  1  0  0  0  0
M  END
>  <Index>
721

>  <ID>
HT1411

>  <class>
0

>  <apol>
45.889069

>  <ast_fraglike>
1

>  <ast_fraglike_ext>
1

>  <ast_violation>
0

>  <ast_violation_ext>
0

>  <a_acc>
2

>  <a_acid>
0

>  <a_aro>
12

>  <a_base>
0

>  <a_count>
39

>  <a_don>
0

>  <a_donacc>
2

>  <a_heavy>
20

>  <a_hyd>
16

>  <a_IC>
51.178307

>  <a_ICM>
1.3122643

>  <a_nB>
0

>  <a_nBr>
0

>  <a_nC>
17

>  <a_nCl>
0

>  <a_nF>
0

>  <a_nH>
19

>  <a_nI>
0

>  <a_nN>
3

>  <a_nO>
0

>  <a_nP>
0

>  <a_nS>
0

>  <balabanJ>
1.6450362

>  <BCUT_PEOE_0>
-2.7487803

>  <BCUT_PEOE_1>
-0.5327462

>  <BCUT_PEOE_2>
0.60258925

>  <BCUT_PEOE_3>
2.6795168

>  <BCUT_SLOGP_0>
-2.8320804

>  <BCUT_SLOGP_1>
-0.43711871

>  <BCUT_SLOGP_2>
0.69990385

>  <BCUT_SLOGP_3>
2.6679292

>  <BCUT_SMR_0>
-2.4573989

>  <BCUT_SMR_1>
-0.40179542

>  <BCUT_SMR_2>
0.73872614

>  <BCUT_SMR_3>
2.9689186

>  <bpol>
26.050934

>  <b_1rotN>
0

>  <b_1rotR>
0

>  <b_ar>
12

>  <b_count>
42

>  <b_double>
0

>  <b_heavy>
23

>  <b_max1len>
2

>  <b_rotN>
0

>  <b_rotR>
0

>  <b_single>
30

>  <b_triple>
0

>  <chi0>
13.526733

>  <chi0v>
11.78887

>  <chi0v_C>
10.447229

>  <chi0_C>
11.664926

>  <chi1>
9.8264999

>  <chi1v>
7.2962303

>  <chi1v_C>
4.9367223

>  <chi1_C>
6.4494896

>  <chiral>
1

>  <chiral_u>
1

>  <density>
0.68153399

>  <diameter>
8

>  <FCharge>
0

>  <GCUT_PEOE_0>
-0.85469455

>  <GCUT_PEOE_1>
-0.35501379

>  <GCUT_PEOE_2>
0.061285924

>  <GCUT_PEOE_3>
2.8079643

>  <GCUT_SLOGP_0>
-0.95652044

>  <GCUT_SLOGP_1>
-0.29371753

>  <GCUT_SLOGP_2>
0.14235386

>  <GCUT_SLOGP_3>
2.8720803

>  <GCUT_SMR_0>
-0.51129609

>  <GCUT_SMR_1>
-0.18363217

>  <GCUT_SMR_2>
0.16228475

>  <GCUT_SMR_3>
3.0891287

>  <Kier1>
13.648394

>  <Kier2>
5.6528926

>  <Kier3>
2.4934359

>  <KierA1>
10.230611

>  <KierA2>
4.1676807

>  <KierA3>
1.8161062

>  <KierFlex>
2.1318958

>  <lip_acc>
3

>  <lip_don>
0

>  <lip_druglike>
1

>  <lip_violation>
0

>  <logP(o/w)>
2.5039999

>  <logS>
-2.3374701

>  <mr>
8.01402

>  <mutagenic>
0

>  <nmol>
1

>  <opr_brigid>
22

>  <opr_leadlike>
1

>  <opr_nring>
4

>  <opr_nrot>
0

>  <opr_violation>
0

>  <PC+>
0

>  <PC->
0

>  <PEOE_PC+>
1.2113193

>  <PEOE_PC->
-1.2113193

>  <PEOE_RPC+>
0.093578823

>  <PEOE_RPC->
0.24956465

>  <PEOE_VSA+0>
111.94345

>  <PEOE_VSA+1>
37.269047

>  <PEOE_VSA+2>
11.190562

>  <PEOE_VSA+3>
0

>  <PEOE_VSA+4>
0

>  <PEOE_VSA+5>
0

>  <PEOE_VSA+6>
0

>  <PEOE_VSA-0>
42.119213

>  <PEOE_VSA-1>
61.274521

>  <PEOE_VSA-2>
0

>  <PEOE_VSA-3>
0

>  <PEOE_VSA-4>
5.6825762

>  <PEOE_VSA-5>
0

>  <PEOE_VSA-6>
0

>  <PEOE_VSA_FHYD>
0.97891277

>  <PEOE_VSA_FNEG>
0.40476683

>  <PEOE_VSA_FPNEG>
0.02108724

>  <PEOE_VSA_FPOL>
0.02108724

>  <PEOE_VSA_FPOS>
0.5952332

>  <PEOE_VSA_FPPOS>
0

>  <PEOE_VSA_HYD>
263.79678

>  <PEOE_VSA_NEG>
109.07631

>  <PEOE_VSA_PNEG>
5.6825762

>  <PEOE_VSA_POL>
5.6825762

>  <PEOE_VSA_POS>
160.40306

>  <PEOE_VSA_PPOS>
0

>  <petitjean>
0.375

>  <petitjeanSC>
0.60000002

>  <Q_PC+>
0

>  <Q_PC->
0

>  <Q_RPC+>
0

>  <Q_RPC->
0

>  <Q_VSA_FHYD>
1

>  <Q_VSA_FNEG>
0

>  <Q_VSA_FPNEG>
0

>  <Q_VSA_FPOL>
0

>  <Q_VSA_FPOS>
1

>  <Q_VSA_FPPOS>
0

>  <Q_VSA_HYD>
269.47937

>  <Q_VSA_NEG>
0

>  <Q_VSA_PNEG>
0

>  <Q_VSA_POL>
0

>  <Q_VSA_POS>
269.47937

>  <Q_VSA_PPOS>
0

>  <radius>
5

>  <reactive>
0

>  <rings>
4

>  <RPC+>
0

>  <RPC->
0

>  <rsynth>
1

>  <SlogP>
2.5743699

>  <SlogP_VSA0>
3.1243138

>  <SlogP_VSA1>
19.909843

>  <SlogP_VSA2>
0

>  <SlogP_VSA3>
55.318733

>  <SlogP_VSA4>
9.5567245

>  <SlogP_VSA5>
51.765594

>  <SlogP_VSA6>
0

>  <SlogP_VSA7>
123.07346

>  <SlogP_VSA8>
3.9819686

>  <SlogP_VSA9>
2.3279202

>  <SMR>
8.118

>  <SMR_VSA0>
0

>  <SMR_VSA1>
19.909843

>  <SMR_VSA2>
3.1243138

>  <SMR_VSA3>
13.538693

>  <SMR_VSA4>
2.3279202

>  <SMR_VSA5>
141.94186

>  <SMR_VSA6>
55.318733

>  <SMR_VSA7>
32.897186

>  <TPSA>
19.370001

>  <VAdjEq>
0.51481563

>  <VAdjMa>
5.523562

>  <VDistEq>
2.7283206

>  <VDistMa>
8.4014568

>  <vdw_area>
269.47937

>  <vdw_vol>
389.35696

>  <vsa_acc>
5.6825762

>  <vsa_acid>
0

>  <vsa_base>
0

>  <vsa_don>
0

>  <vsa_hyd>
239.08212

>  <vsa_other>
11.190562

>  <vsa_pol>
5.6825762

>  <Weight>
265.35999

>  <weinerPath>
687

>  <weinerPol>
38

>  <zagreb>
112

$$$$