FC(F)(F)c1cc(Nc2ncccc2C(OCCN2CCOCC2)=O)ccc1
  MOE2013           2D

 28 30  0  0  0  0  0  0  0  0999 V2000
    0.0000    0.0000    0.0000 F   0  0  0  0  0  0  0  0  0  0  0  0
    1.4710    0.2940    0.0000 C   0  0  0  0  0  0  0  0  0  0  0  0
    1.1770    1.7650    0.0000 F   0  0  0  0  0  0  0  0  0  0  0  0
    2.9420    0.5880    0.0000 F   0  0  0  0  0  0  0  0  0  0  0  0
    1.7650   -1.1770    0.0000 C   0  0  0  0  0  0  0  0  0  0  0  0
    3.1860   -1.6580    0.0000 C   0  0  0  0  0  0  0  0  0  0  0  0
    3.4800   -3.1290    0.0000 C   0  0  0  0  0  0  0  0  0  0  0  0
    4.9010   -3.6090    0.0000 N   0  0  0  0  0  0  0  0  0  0  0  0
    5.1950   -5.0800    0.0000 C   0  0  0  0  0  0  0  0  0  0  0  0
    4.0680   -6.0700    0.0000 N   0  0  0  0  0  0  0  0  0  0  0  0
    4.3620   -7.5410    0.0000 C   0  0  0  0  0  0  0  0  0  0  0  0
    5.7830   -8.0220    0.0000 C   0  0  0  0  0  0  0  0  0  0  0  0
    6.9100   -7.0320    0.0000 C   0  0  0  0  0  0  0  0  0  0  0  0
    6.6160   -5.5610    0.0000 C   0  0  0  0  0  0  0  0  0  0  0  0
    7.7420   -4.5710    0.0000 C   0  0  0  0  0  0  0  0  0  0  0  0
    9.1630   -5.0520    0.0000 O   0  0  0  0  0  0  0  0  0  0  0  0
   10.2900   -4.0620    0.0000 C   0  0  0  0  0  0  0  0  0  0  0  0
   11.7110   -4.5430    0.0000 C   0  0  0  0  0  0  0  0  0  0  0  0
   12.8380   -3.5520    0.0000 N   0  0  0  0  0  0  0  0  0  0  0  0
   12.5440   -2.0820    0.0000 C   0  0  0  0  0  0  0  0  0  0  0  0
   13.6710   -1.0910    0.0000 C   0  0  0  0  0  0  0  0  0  0  0  0
   15.0910   -1.5720    0.0000 O   0  0  0  0  0  0  0  0  0  0  0  0
   15.3850   -3.0430    0.0000 C   0  0  0  0  0  0  0  0  0  0  0  0
   14.2590   -4.0330    0.0000 C   0  0  0  0  0  0  0  0  0  0  0  0
    7.4480   -3.1000    0.0000 O   0  0  0  0  0  0  0  0  0  0  0  0
    2.3530   -4.1190    0.0000 C   0  0  0  0  0  0  0  0  0  0  0  0
    0.9320   -3.6380    0.0000 C   0  0  0  0  0  0  0  0  0  0  0  0
    0.6380   -2.1670    0.0000 C   0  0  0  0  0  0  0  0  0  0  0  0
  1  2  1  0  0  0  0
  2  3  1  0  0  0  0
  2  4  1  0  0  0  0
  2  5  1  0  0  0  0
  5  6  1  0  0  0  0
  5 28  2  0  0  0  0
  6  7  2  0  0  0  0
  7  8  1  0  0  0  0
  7 26  1  0  0  0  0
  8  9  1  0  0  0  0
  9 10  1  0  0  0  0
  9 14  2  0  0  0  0
 10 11  2  0  0  0  0
 11 12  1  0  0  0  0
 12 13  2  0  0  0  0
 13 14  1  0  0  0  0
 14 15  1  0  0  0  0
 15 16  1  0  0  0  0
 15 25  2  0  0  0  0
 16 17  1  0  0  0  0
 17 18  1  0  0  0  0
 18 19  1  0  0  0  0
 19 20  1  0  0  0  0
 19 24  1  0  0  0  0
 20 21  1  0  0  0  0
 21 22  1  0  0  0  0
 22 23  1  0  0  0  0
 23 24  1  0  0  0  0
 26 27  2  0  0  0  0
 27 28  1  0  0  0  0
M  END
>  <Index>
732

>  <ID>
HT1435

>  <class>
0

>  <apol>
54.152859

>  <ast_fraglike>
0

>  <ast_fraglike_ext>
0

>  <ast_violation>
3

>  <ast_violation_ext>
4

>  <a_acc>
4

>  <a_acid>
0

>  <a_aro>
12

>  <a_base>
0

>  <a_count>
48

>  <a_don>
1

>  <a_donacc>
5

>  <a_heavy>
28

>  <a_hyd>
20

>  <a_IC>
86.664352

>  <a_ICM>
1.8055073

>  <a_nB>
0

>  <a_nBr>
0

>  <a_nC>
19

>  <a_nCl>
0

>  <a_nF>
3

>  <a_nH>
20

>  <a_nI>
0

>  <a_nN>
3

>  <a_nO>
3

>  <a_nP>
0

>  <a_nS>
0

>  <balabanJ>
1.4592085

>  <BCUT_PEOE_0>
-2.7162979

>  <BCUT_PEOE_1>
-0.48492095

>  <BCUT_PEOE_2>
0.56274998

>  <BCUT_PEOE_3>
2.6425717

>  <BCUT_SLOGP_0>
-2.8358362

>  <BCUT_SLOGP_1>
-0.39323708

>  <BCUT_SLOGP_2>
0.66594541

>  <BCUT_SLOGP_3>
2.5232973

>  <BCUT_SMR_0>
-2.4511149

>  <BCUT_SMR_1>
-0.34078854

>  <BCUT_SMR_2>
0.70759207

>  <BCUT_SMR_3>
2.895664

>  <bpol>
34.223141

>  <b_1rotN>
6

>  <b_1rotR>
0.2

>  <b_ar>
12

>  <b_count>
50

>  <b_double>
1

>  <b_heavy>
30

>  <b_max1len>
3

>  <b_rotN>
8

>  <b_rotR>
0.26666668

>  <b_single>
37

>  <b_triple>
0

>  <chi0>
19.984917

>  <chi0v>
15.037158

>  <chi0v_C>
11.284093

>  <chi0_C>
12.57914

>  <chi1>
13.431671

>  <chi1v>
8.798418

>  <chi1v_C>
5.0267091

>  <chi1_C>
6.4965835

>  <chiral>
0

>  <chiral_u>
0

>  <density>
0.81957167

>  <diameter>
15

>  <FCharge>
0

>  <GCUT_PEOE_0>
-0.84334052

>  <GCUT_PEOE_1>
-0.36941662

>  <GCUT_PEOE_2>
0.050689001

>  <GCUT_PEOE_3>
2.5591748

>  <GCUT_SLOGP_0>
-0.96266031

>  <GCUT_SLOGP_1>
-0.25970057

>  <GCUT_SLOGP_2>
0.23000847

>  <GCUT_SLOGP_3>
2.5982554

>  <GCUT_SMR_0>
-0.51584971

>  <GCUT_SMR_1>
-0.17706144

>  <GCUT_SMR_2>
0.15520838

>  <GCUT_SMR_3>
2.8132124

>  <Kier1>
22.68

>  <Kier2>
10.857822

>  <Kier3>
7.038734

>  <KierA1>
17.533495

>  <KierA2>
8.3085594

>  <KierA3>
5.3470335

>  <KierFlex>
5.2027884

>  <lip_acc>
6

>  <lip_don>
1

>  <lip_druglike>
1

>  <lip_violation>
0

>  <logP(o/w)>
2.81476

>  <logS>
-3.6859701

>  <mr>
9.8534784

>  <mutagenic>
0

>  <nmol>
1

>  <opr_brigid>
18

>  <opr_leadlike>
1

>  <opr_nring>
3

>  <opr_nrot>
8

>  <opr_violation>
0

>  <PC+>
0

>  <PC->
0

>  <PEOE_PC+>
2.4971945

>  <PEOE_PC->
-2.4971945

>  <PEOE_RPC+>
0.16717538

>  <PEOE_RPC->
0.15106653

>  <PEOE_VSA+0>
88.614754

>  <PEOE_VSA+1>
104.72098

>  <PEOE_VSA+2>
19.809576

>  <PEOE_VSA+3>
0

>  <PEOE_VSA+4>
0

>  <PEOE_VSA+5>
14.708499

>  <PEOE_VSA+6>
9.0455017

>  <PEOE_VSA-0>
49.019615

>  <PEOE_VSA-1>
24.509808

>  <PEOE_VSA-2>
0

>  <PEOE_VSA-3>
35.725906

>  <PEOE_VSA-4>
5.8194671

>  <PEOE_VSA-5>
13.566921

>  <PEOE_VSA-6>
5.0075121

>  <PEOE_VSA_FHYD>
0.87006319

>  <PEOE_VSA_FNEG>
0.36067942

>  <PEOE_VSA_FPNEG>
0.065831862

>  <PEOE_VSA_FPOL>
0.12993683

>  <PEOE_VSA_FPOS>
0.63932061

>  <PEOE_VSA_FPPOS>
0.064104967

>  <PEOE_VSA_HYD>
322.40063

>  <PEOE_VSA_NEG>
133.64923

>  <PEOE_VSA_PNEG>
24.3939

>  <PEOE_VSA_POL>
48.1479

>  <PEOE_VSA_POS>
236.89931

>  <PEOE_VSA_PPOS>
23.754002

>  <petitjean>
0.46666667

>  <petitjeanSC>
0.875

>  <Q_PC+>
0

>  <Q_PC->
0

>  <Q_RPC+>
0

>  <Q_RPC->
0

>  <Q_VSA_FHYD>
1

>  <Q_VSA_FNEG>
0

>  <Q_VSA_FPNEG>
0

>  <Q_VSA_FPOL>
0

>  <Q_VSA_FPOS>
1

>  <Q_VSA_FPPOS>
0

>  <Q_VSA_HYD>
370.54855

>  <Q_VSA_NEG>
0

>  <Q_VSA_PNEG>
0

>  <Q_VSA_POL>
0

>  <Q_VSA_POS>
370.54855

>  <Q_VSA_PPOS>
0

>  <radius>
8

>  <reactive>
0

>  <rings>
3

>  <RPC+>
0

>  <RPC->
0

>  <rsynth>
1

>  <SlogP>
3.6445

>  <SlogP_VSA0>
0

>  <SlogP_VSA1>
45.666058

>  <SlogP_VSA2>
21.999775

>  <SlogP_VSA3>
118.09751

>  <SlogP_VSA4>
30.233366

>  <SlogP_VSA5>
0

>  <SlogP_VSA6>
7.7595162

>  <SlogP_VSA7>
123.07346

>  <SlogP_VSA8>
0

>  <SlogP_VSA9>
49.965008

>  <SMR>
9.66222

>  <SMR_VSA0>
45.861992

>  <SMR_VSA1>
64.790184

>  <SMR_VSA2>
7.7595162

>  <SMR_VSA3>
6.37115

>  <SMR_VSA4>
23.095419

>  <SMR_VSA5>
123.07346

>  <SMR_VSA6>
125.84297

>  <SMR_VSA7>
0

>  <TPSA>
63.689999

>  <VAdjEq>
0.38983503

>  <VAdjMa>
5.9068904

>  <VDistEq>
3.712471

>  <VDistMa>
9.3057432

>  <vdw_area>
370.54855

>  <vdw_vol>
482.42395

>  <vsa_acc>
21.753254

>  <vsa_acid>
0

>  <vsa_base>
0

>  <vsa_don>
5.6825762

>  <vsa_hyd>
298.11246

>  <vsa_other>
28.402819

>  <vsa_pol>
27.435829

>  <Weight>
395.38098

>  <weinerPath>
2308

>  <weinerPol>
40

>  <zagreb>
142

$$$$