O(C(CC)CC)[C@@H]1C=C(C[C@H](N)[C@H]1NC(=O)C)C(OCC)=O
  MOE2013           2D

 22 22  0  0  1  0  0  0  0  0999 V2000
    0.0000    0.0000    0.0000 O   0  0  0  0  0  0  0  0  0  0  0  0
   -0.0030    1.5000    0.0000 C   0  0  0  0  0  0  0  0  0  0  0  0
   -1.3030    2.2480    0.0000 C   0  0  0  0  0  0  0  0  0  0  0  0
   -2.6010    1.4950    0.0000 C   0  0  0  0  0  0  0  0  0  0  0  0
    1.2950    2.2520    0.0000 C   0  0  0  0  0  0  0  0  0  0  0  0
    1.2920    3.7520    0.0000 C   0  0  0  0  0  0  0  0  0  0  0  0
    1.3000   -0.7480    0.0000 C   0  0  2  0  0  0  0  0  0  0  0  0
    2.5980    0.0050    0.0000 C   0  0  0  0  0  0  0  0  0  0  0  0
    3.8990   -0.7430    0.0000 C   0  0  0  0  0  0  0  0  0  0  0  0
    3.9010   -2.2430    0.0000 C   0  0  0  0  0  0  0  0  0  0  0  0
    2.6040   -2.9950    0.0000 C   0  0  2  0  0  0  0  0  0  0  0  0
    2.6070   -4.4950    0.0000 N   0  0  0  0  0  0  0  0  0  0  0  0
    1.3030   -2.2480    0.0000 C   0  0  1  0  0  0  0  0  0  0  0  0
    0.0060   -3.0000    0.0000 N   0  0  0  0  0  0  0  0  0  0  0  0
    0.0080   -4.5000    0.0000 C   0  0  0  0  0  0  0  0  0  0  0  0
    1.3090   -5.2480    0.0000 O   0  0  0  0  0  0  0  0  0  0  0  0
   -1.2890   -5.2520    0.0000 C   0  0  0  0  0  0  0  0  0  0  0  0
    5.1960    0.0100    0.0000 C   0  0  0  0  0  0  0  0  0  0  0  0
    6.4970   -0.7380    0.0000 O   0  0  0  0  0  0  0  0  0  0  0  0
    7.7940    0.0150    0.0000 C   0  0  0  0  0  0  0  0  0  0  0  0
    9.0950   -0.7330    0.0000 C   0  0  0  0  0  0  0  0  0  0  0  0
    5.1930    1.5100    0.0000 O   0  0  0  0  0  0  0  0  0  0  0  0
  1  2  1  0  0  0  0
  2  3  1  0  0  0  0
  2  5  1  0  0  0  0
  3  4  1  0  0  0  0
  5  6  1  0  0  0  0
  7  1  1  6  0  0  0
  7  8  1  0  0  0  0
  7 13  1  0  0  0  0
  8  9  2  0  0  0  0
  9 10  1  0  0  0  0
  9 18  1  0  0  0  0
 10 11  1  0  0  0  0
 11 12  1  6  0  0  0
 11 13  1  0  0  0  0
 13 14  1  1  0  0  0
 14 15  1  0  0  0  0
 15 16  2  0  0  0  0
 15 17  1  0  0  0  0
 18 19  1  0  0  0  0
 18 22  2  0  0  0  0
 19 20  1  0  0  0  0
 20 21  1  0  0  0  0
M  END
>  <Index>
793

>  <ID>
HT1547

>  <class>
0

>  <apol>
52.238205

>  <ast_fraglike>
0

>  <ast_fraglike_ext>
0

>  <ast_violation>
2

>  <ast_violation_ext>
3

>  <a_acc>
4

>  <a_acid>
0

>  <a_aro>
0

>  <a_base>
0

>  <a_count>
50

>  <a_don>
2

>  <a_donacc>
6

>  <a_heavy>
22

>  <a_hyd>
14

>  <a_IC>
73.586868

>  <a_ICM>
1.4717374

>  <a_nB>
0

>  <a_nBr>
0

>  <a_nC>
16

>  <a_nCl>
0

>  <a_nF>
0

>  <a_nH>
28

>  <a_nI>
0

>  <a_nN>
2

>  <a_nO>
4

>  <a_nP>
0

>  <a_nS>
0

>  <balabanJ>
2.8003938

>  <BCUT_PEOE_0>
-2.733578

>  <BCUT_PEOE_1>
-0.33847862

>  <BCUT_PEOE_2>
0.31715357

>  <BCUT_PEOE_3>
2.7206793

>  <BCUT_SLOGP_0>
-2.9158061

>  <BCUT_SLOGP_1>
-0.28596407

>  <BCUT_SLOGP_2>
0.3213588

>  <BCUT_SLOGP_3>
2.685673

>  <BCUT_SMR_0>
-2.47891

>  <BCUT_SMR_1>
-0.17465653

>  <BCUT_SMR_2>
0.40924448

>  <BCUT_SMR_3>
2.9687295

>  <bpol>
36.357796

>  <b_1rotN>
7

>  <b_1rotR>
0.31818181

>  <b_ar>
0

>  <b_count>
50

>  <b_double>
3

>  <b_heavy>
22

>  <b_max1len>
6

>  <b_rotN>
9

>  <b_rotR>
0.40909091

>  <b_single>
47

>  <b_triple>
0

>  <chi0>
16.698307

>  <chi0v>
13.925522

>  <chi0v_C>
11.215178

>  <chi0_C>
11.576985

>  <chi1>
10.421453

>  <chi1v>
7.9827542

>  <chi1v_C>
5.7382936

>  <chi1_C>
6.1481605

>  <chiral>
3

>  <chiral_u>
0

>  <density>
0.71066225

>  <diameter>
10

>  <FCharge>
0

>  <GCUT_PEOE_0>
-0.83141553

>  <GCUT_PEOE_1>
-0.35772237

>  <GCUT_PEOE_2>
0.020134389

>  <GCUT_PEOE_3>
2.7982078

>  <GCUT_SLOGP_0>
-1.3637424

>  <GCUT_SLOGP_1>
-0.31131724

>  <GCUT_SLOGP_2>
0.042469777

>  <GCUT_SLOGP_3>
2.7729182

>  <GCUT_SMR_0>
-0.52925217

>  <GCUT_SMR_1>
-0.17028262

>  <GCUT_SMR_2>
0.059171021

>  <GCUT_SMR_3>
3.0273805

>  <Kier1>
20.045454

>  <Kier2>
9.9881096

>  <Kier3>
6.2040815

>  <KierA1>
17.278625

>  <KierA2>
8.5450916

>  <KierA3>
5.2789392

>  <KierFlex>
6.7112474

>  <lip_acc>
6

>  <lip_don>
3

>  <lip_druglike>
1

>  <lip_violation>
0

>  <logP(o/w)>
1.347

>  <logS>
-1.94398

>  <mr>
8.550889

>  <mutagenic>
0

>  <nmol>
1

>  <opr_brigid>
6

>  <opr_leadlike>
1

>  <opr_nring>
1

>  <opr_nrot>
8

>  <opr_violation>
0

>  <PC+>
0

>  <PC->
0

>  <PEOE_PC+>
2.1620934

>  <PEOE_PC->
-2.1620934

>  <PEOE_RPC+>
0.13394921

>  <PEOE_RPC->
0.16986099

>  <PEOE_VSA+0>
105.14451

>  <PEOE_VSA+1>
53.499428

>  <PEOE_VSA+2>
17.238026

>  <PEOE_VSA+3>
8.6190128

>  <PEOE_VSA+4>
12.949531

>  <PEOE_VSA+5>
14.708499

>  <PEOE_VSA+6>
0

>  <PEOE_VSA-0>
57.106522

>  <PEOE_VSA-1>
37.495354

>  <PEOE_VSA-2>
0

>  <PEOE_VSA-3>
0

>  <PEOE_VSA-4>
0

>  <PEOE_VSA-5>
27.133842

>  <PEOE_VSA-6>
11.795523

>  <PEOE_VSA_FHYD>
0.80737847

>  <PEOE_VSA_FNEG>
0.38627425

>  <PEOE_VSA_FPNEG>
0.11261343

>  <PEOE_VSA_FPOL>
0.19262156

>  <PEOE_VSA_FPOS>
0.61372578

>  <PEOE_VSA_FPPOS>
0.080008127

>  <PEOE_VSA_HYD>
279.10284

>  <PEOE_VSA_NEG>
133.53123

>  <PEOE_VSA_PNEG>
38.929363

>  <PEOE_VSA_POL>
66.587395

>  <PEOE_VSA_POS>
212.15901

>  <PEOE_VSA_PPOS>
27.65803

>  <petitjean>
0.5

>  <petitjeanSC>
1

>  <Q_PC+>
0

>  <Q_PC->
0

>  <Q_RPC+>
0

>  <Q_RPC->
0

>  <Q_VSA_FHYD>
1

>  <Q_VSA_FNEG>
0

>  <Q_VSA_FPNEG>
0

>  <Q_VSA_FPOL>
0

>  <Q_VSA_FPOS>
1

>  <Q_VSA_FPPOS>
0

>  <Q_VSA_HYD>
345.69025

>  <Q_VSA_NEG>
0

>  <Q_VSA_PNEG>
0

>  <Q_VSA_POL>
0

>  <Q_VSA_POS>
345.69025

>  <Q_VSA_PPOS>
0

>  <radius>
5

>  <reactive>
0

>  <rings>
1

>  <RPC+>
0

>  <RPC->
0

>  <rsynth>
1

>  <SlogP>
1.2854

>  <SlogP_VSA0>
50.90794

>  <SlogP_VSA1>
13.004248

>  <SlogP_VSA2>
90.625443

>  <SlogP_VSA3>
20.926258

>  <SlogP_VSA4>
0

>  <SlogP_VSA5>
3.185575

>  <SlogP_VSA6>
0

>  <SlogP_VSA7>
17.643185

>  <SlogP_VSA8>
56.605217

>  <SlogP_VSA9>
133.30406

>  <SMR>
8.4156103

>  <SMR_VSA0>
69.724205

>  <SMR_VSA1>
0

>  <SMR_VSA2>
18.01075

>  <SMR_VSA3>
24.086811

>  <SMR_VSA4>
32.897186

>  <SMR_VSA5>
74.248398

>  <SMR_VSA6>
33.930508

>  <SMR_VSA7>
133.30406

>  <TPSA>
90.650002

>  <VAdjEq>
0.43949699

>  <VAdjMa>
5.4594316

>  <VDistEq>
3.1492884

>  <VDistMa>
8.6583138

>  <vdw_area>
345.69025

>  <vdw_vol>
439.60403

>  <vsa_acc>
29.637598

>  <vsa_acid>
0

>  <vsa_base>
0

>  <vsa_don>
5.6825762

>  <vsa_hyd>
235.45093

>  <vsa_other>
30.161787

>  <vsa_pol>
53.062664

>  <Weight>
312.41

>  <weinerPath>
1060

>  <weinerPol>
32

>  <zagreb>
102

$$$$