Oc1cc(ccc1O)[C@@H](O)CN
  MOE2013           2D

 12 12  0  0  1  0  0  0  0  0999 V2000
    0.0000    0.0000    0.0000 O   0  0  0  0  0  0  0  0  0  0  0  0
    1.2990   -0.7500    0.0000 C   0  0  0  0  0  0  0  0  0  0  0  0
    2.5980   -0.0010    0.0000 C   0  0  0  0  0  0  0  0  0  0  0  0
    3.8970   -0.7510    0.0000 C   0  0  0  0  0  0  0  0  0  0  0  0
    3.8960   -2.2510    0.0000 C   0  0  0  0  0  0  0  0  0  0  0  0
    2.5970   -3.0010    0.0000 C   0  0  0  0  0  0  0  0  0  0  0  0
    1.2980   -2.2500    0.0000 C   0  0  0  0  0  0  0  0  0  0  0  0
   -0.0010   -3.0000    0.0000 O   0  0  0  0  0  0  0  0  0  0  0  0
    5.1960   -0.0020    0.0000 C   0  0  1  0  0  0  0  0  0  0  0  0
    5.1970    1.4980    0.0000 O   0  0  0  0  0  0  0  0  0  0  0  0
    6.4950   -0.7520    0.0000 C   0  0  0  0  0  0  0  0  0  0  0  0
    7.7940   -0.0030    0.0000 N   0  0  0  0  0  0  0  0  0  0  0  0
  1  2  1  0  0  0  0
  2  3  2  0  0  0  0
  2  7  1  0  0  0  0
  3  4  1  0  0  0  0
  4  5  2  0  0  0  0
  4  9  1  0  0  0  0
  5  6  1  0  0  0  0
  6  7  2  0  0  0  0
  7  8  1  0  0  0  0
  9 10  1  1  0  0  0
  9 11  1  0  0  0  0
 11 12  1  0  0  0  0
M  END
>  <Index>
780

>  <ID>
HT1520

>  <class>
0

>  <apol>
24.920723

>  <ast_fraglike>
0

>  <ast_fraglike_ext>
0

>  <ast_violation>
2

>  <ast_violation_ext>
2

>  <a_acc>
4

>  <a_acid>
0

>  <a_aro>
6

>  <a_base>
0

>  <a_count>
23

>  <a_don>
4

>  <a_donacc>
8

>  <a_heavy>
12

>  <a_hyd>
8

>  <a_IC>
37.233288

>  <a_ICM>
1.6188387

>  <a_nB>
0

>  <a_nBr>
0

>  <a_nC>
8

>  <a_nCl>
0

>  <a_nF>
0

>  <a_nH>
11

>  <a_nI>
0

>  <a_nN>
1

>  <a_nO>
3

>  <a_nP>
0

>  <a_nS>
0

>  <balabanJ>
2.423876

>  <BCUT_PEOE_0>
-2.4878232

>  <BCUT_PEOE_1>
-0.72315925

>  <BCUT_PEOE_2>
0.77920771

>  <BCUT_PEOE_3>
2.4592776

>  <BCUT_SLOGP_0>
-2.6506817

>  <BCUT_SLOGP_1>
-0.70282006

>  <BCUT_SLOGP_2>
0.73580718

>  <BCUT_SLOGP_3>
2.5137811

>  <BCUT_SMR_0>
-2.2286243

>  <BCUT_SMR_1>
-0.57409555

>  <BCUT_SMR_2>
0.91022527

>  <BCUT_SMR_3>
2.7119803

>  <bpol>
11.365277

>  <b_1rotN>
2

>  <b_1rotR>
0.16666667

>  <b_ar>
6

>  <b_count>
23

>  <b_double>
0

>  <b_heavy>
12

>  <b_max1len>
5

>  <b_rotN>
2

>  <b_rotR>
0.16666667

>  <b_single>
17

>  <b_triple>
0

>  <chi0>
9.1378279

>  <chi0v>
6.4354987

>  <chi0v_C>
4.5165076

>  <chi0_C>
5.1378284

>  <chi1>
5.6470656

>  <chi1v>
3.5486181

>  <chi1v_C>
2.4349573

>  <chi1_C>
3.2079082

>  <chiral>
1

>  <chiral_u>
0

>  <density>
0.77617502

>  <diameter>
7

>  <FCharge>
0

>  <GCUT_PEOE_0>
-0.83017629

>  <GCUT_PEOE_1>
-0.44945696

>  <GCUT_PEOE_2>
0.1821577

>  <GCUT_PEOE_3>
2.23086

>  <GCUT_SLOGP_0>
-1.3632812

>  <GCUT_SLOGP_1>
-0.34223706

>  <GCUT_SLOGP_2>
0.12849237

>  <GCUT_SLOGP_3>
2.3566892

>  <GCUT_SMR_0>
-0.5112226

>  <GCUT_SMR_1>
-0.25410575

>  <GCUT_SMR_2>
0.26292682

>  <GCUT_SMR_3>
2.4935772

>  <Kier1>
10.083333

>  <Kier2>
4.296875

>  <Kier3>
2.4930749

>  <KierA1>
8.1382713

>  <KierA2>
3.3936946

>  <KierA3>
1.9356483

>  <KierFlex>
2.3015673

>  <lip_acc>
4

>  <lip_don>
5

>  <lip_druglike>
1

>  <lip_violation>
0

>  <logP(o/w)>
0.0080000004

>  <logS>
-0.12336

>  <mr>
4.402832

>  <mutagenic>
0

>  <nmol>
1

>  <opr_brigid>
6

>  <opr_leadlike>
1

>  <opr_nring>
1

>  <opr_nrot>
2

>  <opr_violation>
0

>  <PC+>
0

>  <PC->
0

>  <PEOE_PC+>
1.5495152

>  <PEOE_PC->
-1.5495152

>  <PEOE_RPC+>
0.14031592

>  <PEOE_RPC->
0.24905951

>  <PEOE_VSA+0>
21.723097

>  <PEOE_VSA+1>
21.966473

>  <PEOE_VSA+2>
34.155064

>  <PEOE_VSA+3>
0

>  <PEOE_VSA+4>
30.972517

>  <PEOE_VSA+5>
0

>  <PEOE_VSA+6>
0

>  <PEOE_VSA-0>
26.718348

>  <PEOE_VSA-1>
12.254904

>  <PEOE_VSA-2>
0

>  <PEOE_VSA-3>
0

>  <PEOE_VSA-4>
0

>  <PEOE_VSA-5>
0

>  <PEOE_VSA-6>
29.953741

>  <PEOE_VSA_FHYD>
0.65722495

>  <PEOE_VSA_FNEG>
0.3877877

>  <PEOE_VSA_FPNEG>
0.16852167

>  <PEOE_VSA_FPOL>
0.34277505

>  <PEOE_VSA_FPOS>
0.6122123

>  <PEOE_VSA_FPPOS>
0.17425337

>  <PEOE_VSA_HYD>
116.81789

>  <PEOE_VSA_NEG>
68.926994

>  <PEOE_VSA_PNEG>
29.953741

>  <PEOE_VSA_POL>
60.926258

>  <PEOE_VSA_POS>
108.81715

>  <PEOE_VSA_PPOS>
30.972517

>  <petitjean>
0.42857143

>  <petitjeanSC>
0.75

>  <Q_PC+>
0

>  <Q_PC->
0

>  <Q_RPC+>
0

>  <Q_RPC->
0

>  <Q_VSA_FHYD>
1

>  <Q_VSA_FNEG>
0

>  <Q_VSA_FPNEG>
0

>  <Q_VSA_FPOL>
0

>  <Q_VSA_FPOS>
1

>  <Q_VSA_FPPOS>
0

>  <Q_VSA_HYD>
177.74414

>  <Q_VSA_NEG>
0

>  <Q_VSA_PNEG>
0

>  <Q_VSA_POL>
0

>  <Q_VSA_POS>
177.74414

>  <Q_VSA_PPOS>
0

>  <radius>
4

>  <reactive>
0

>  <rings>
1

>  <RPC+>
0

>  <RPC->
0

>  <rsynth>
1

>  <SlogP>
0.18539999

>  <SlogP_VSA0>
109.05286

>  <SlogP_VSA1>
0

>  <SlogP_VSA2>
0

>  <SlogP_VSA3>
18.439579

>  <SlogP_VSA4>
3.185575

>  <SlogP_VSA5>
0

>  <SlogP_VSA6>
0

>  <SlogP_VSA7>
52.929554

>  <SlogP_VSA8>
6.4686494

>  <SlogP_VSA9>
10.486856

>  <SMR>
4.3896799

>  <SMR_VSA0>
0

>  <SMR_VSA1>
76.155678

>  <SMR_VSA2>
0

>  <SMR_VSA3>
20.141081

>  <SMR_VSA4>
32.897186

>  <SMR_VSA5>
52.929554

>  <SMR_VSA6>
18.439579

>  <SMR_VSA7>
0

>  <TPSA>
86.709999

>  <VAdjEq>
0.65002245

>  <VAdjMa>
4.5849624

>  <VDistEq>
2.5309045

>  <VDistMa>
6.8564463

>  <vdw_area>
177.74414

>  <vdw_vol>
217.96629

>  <vsa_acc>
0

>  <vsa_acid>
0

>  <vsa_base>
0

>  <vsa_don>
0

>  <vsa_hyd>
95.30909

>  <vsa_other>
0

>  <vsa_pol>
58.443253

>  <Weight>
169.17999

>  <weinerPath>
198

>  <weinerPol>
16

>  <zagreb>
56

$$$$