OC1(CCC2C3C(C4C(=C/C(=N/O)/CC4)CC3)CCC12CC)C#C
  MOE2013           2D

 24 27  0  0  1  0  0  0  0  0999 V2000
    0.0000    0.0000    0.0000 O   0  0  0  0  0  0  0  0  0  0  0  0
    0.4580   -1.4280    0.0000 C   0  0  3  0  0  0  0  0  0  0  0  0
    0.2700   -2.9160    0.0000 C   0  0  0  0  0  0  0  0  0  0  0  0
    1.6270   -3.5550    0.0000 C   0  0  0  0  0  0  0  0  0  0  0  0
    2.6540   -2.4620    0.0000 C   0  0  3  0  0  0  0  0  0  0  0  0
    4.1540   -2.4940    0.0000 C   0  0  3  0  0  0  0  0  0  0  0  0
    4.9310   -1.2110    0.0000 C   0  0  3  0  0  0  0  0  0  0  0  0
    6.4310   -1.2420    0.0000 C   0  0  3  0  0  0  0  0  0  0  0  0
    7.1530   -2.5570    0.0000 C   0  0  0  0  0  0  0  0  0  0  0  0
    8.6530   -2.5890    0.0000 C   0  0  0  0  0  0  0  0  0  0  0  0
    9.4300   -1.3060    0.0000 C   0  0  0  0  0  0  0  0  0  0  0  0
   10.9300   -1.3370    0.0000 N   0  0  0  0  0  0  0  0  0  0  0  0
   11.7070   -0.0540    0.0000 O   0  0  0  0  0  0  0  0  0  0  0  0
    8.7080    0.0090    0.0000 C   0  0  0  0  0  0  0  0  0  0  0  0
    7.2080    0.0410    0.0000 C   0  0  0  0  0  0  0  0  0  0  0  0
    6.3760   -3.8400    0.0000 C   0  0  0  0  0  0  0  0  0  0  0  0
    4.8760   -3.8080    0.0000 C   0  0  0  0  0  0  0  0  0  0  0  0
    4.2090    0.1040    0.0000 C   0  0  0  0  0  0  0  0  0  0  0  0
    2.7090    0.1350    0.0000 C   0  0  0  0  0  0  0  0  0  0  0  0
    1.9320   -1.1470    0.0000 C   0  0  3  0  0  0  0  0  0  0  0  0
    1.0980    0.0990    0.0000 C   0  0  0  0  0  0  0  0  0  0  0  0
    1.7600    1.4450    0.0000 C   0  0  0  0  0  0  0  0  0  0  0  0
   -1.0180   -1.1620    0.0000 C   0  0  0  0  0  0  0  0  0  0  0  0
   -2.4940   -0.8970    0.0000 C   0  0  0  0  0  0  0  0  0  0  0  0
  1  2  1  0  0  0  0
  2  3  1  0  0  0  0
  2 20  1  0  0  0  0
  2 23  1  0  0  0  0
  3  4  1  0  0  0  0
  4  5  1  0  0  0  0
  5  6  1  0  0  0  0
  5 20  1  0  0  0  0
  6  7  1  0  0  0  0
  6 17  1  0  0  0  0
  7  8  1  0  0  0  0
  7 18  1  0  0  0  0
  8  9  1  0  0  0  0
  8 15  1  0  0  0  0
  9 10  2  0  0  0  0
  9 16  1  0  0  0  0
 10 11  1  0  0  0  0
 11 12  2  0  0  0  0
 11 14  1  0  0  0  0
 12 13  1  0  0  0  0
 14 15  1  0  0  0  0
 16 17  1  0  0  0  0
 18 19  1  0  0  0  0
 19 20  1  0  0  0  0
 20 21  1  0  0  0  0
 21 22  1  0  0  0  0
 23 24  3  0  0  0  0
M  END
>  <Index>
779

>  <ID>
HT1519

>  <class>
0

>  <apol>
59.000996

>  <ast_fraglike>
0

>  <ast_fraglike_ext>
0

>  <ast_violation>
2

>  <ast_violation_ext>
2

>  <a_acc>
3

>  <a_acid>
0

>  <a_aro>
0

>  <a_base>
0

>  <a_count>
53

>  <a_don>
2

>  <a_donacc>
5

>  <a_heavy>
24

>  <a_hyd>
20

>  <a_IC>
68.459671

>  <a_ICM>
1.2916919

>  <a_nB>
0

>  <a_nBr>
0

>  <a_nC>
21

>  <a_nCl>
0

>  <a_nF>
0

>  <a_nH>
29

>  <a_nI>
0

>  <a_nN>
1

>  <a_nO>
2

>  <a_nP>
0

>  <a_nS>
0

>  <balabanJ>
1.569227

>  <BCUT_PEOE_0>
-2.9333127

>  <BCUT_PEOE_1>
-0.50834

>  <BCUT_PEOE_2>
0.55515647

>  <BCUT_PEOE_3>
2.9604585

>  <BCUT_SLOGP_0>
-2.8568137

>  <BCUT_SLOGP_1>
-0.48857805

>  <BCUT_SLOGP_2>
0.54003966

>  <BCUT_SLOGP_3>
3.0299728

>  <BCUT_SMR_0>
-2.6793382

>  <BCUT_SMR_1>
-0.36298069

>  <BCUT_SMR_2>
0.6917333

>  <BCUT_SMR_3>
3.2087588

>  <bpol>
31.703003

>  <b_1rotN>
1

>  <b_1rotR>
0.037037037

>  <b_ar>
0

>  <b_count>
56

>  <b_double>
2

>  <b_heavy>
27

>  <b_max1len>
3

>  <b_rotN>
2

>  <b_rotR>
0.074074075

>  <b_single>
53

>  <b_triple>
1

>  <chi0>
16.949383

>  <chi0v>
14.669703

>  <chi0v_C>
13.328063

>  <chi0_C>
14.242276

>  <chi1>
11.581777

>  <chi1v>
9.6984558

>  <chi1v_C>
9.0512428

>  <chi1_C>
9.9664221

>  <chiral>
6

>  <chiral_u>
6

>  <density>
0.68366981

>  <diameter>
12

>  <FCharge>
0

>  <GCUT_PEOE_0>
-0.79328048

>  <GCUT_PEOE_1>
-0.37491214

>  <GCUT_PEOE_2>
0.030848119

>  <GCUT_PEOE_3>
3.2732093

>  <GCUT_SLOGP_0>
-0.88834471

>  <GCUT_SLOGP_1>
-0.31545302

>  <GCUT_SLOGP_2>
0.092968948

>  <GCUT_SLOGP_3>
3.3563492

>  <GCUT_SMR_0>
-0.53769618

>  <GCUT_SMR_1>
-0.2052149

>  <GCUT_SMR_2>
0.16294745

>  <GCUT_SMR_3>
3.5032506

>  <Kier1>
17.415638

>  <Kier2>
6.3106575

>  <Kier3>
2.4056804

>  <KierA1>
15.270233

>  <KierA2>
5.5

>  <KierA3>
2.087574

>  <KierFlex>
3.4994285

>  <lip_acc>
3

>  <lip_don>
2

>  <lip_druglike>
1

>  <lip_violation>
0

>  <logP(o/w)>
3.806

>  <logS>
-5.1979399

>  <mr>
9.4766464

>  <mutagenic>
0

>  <nmol>
1

>  <opr_brigid>
22

>  <opr_leadlike>
1

>  <opr_nring>
4

>  <opr_nrot>
2

>  <opr_violation>
0

>  <PC+>
0

>  <PC->
0

>  <PEOE_PC+>
1.568051

>  <PEOE_PC->
-1.568051

>  <PEOE_RPC+>
0.15727946

>  <PEOE_RPC->
0.23977432

>  <PEOE_VSA+0>
106.63465

>  <PEOE_VSA+1>
10.964937

>  <PEOE_VSA+2>
4.2653861

>  <PEOE_VSA+3>
0

>  <PEOE_VSA+4>
20.648346

>  <PEOE_VSA+5>
0

>  <PEOE_VSA+6>
0

>  <PEOE_VSA-0>
90.566727

>  <PEOE_VSA-1>
36.764713

>  <PEOE_VSA-2>
36.74012

>  <PEOE_VSA-3>
0

>  <PEOE_VSA-4>
0

>  <PEOE_VSA-5>
11.166143

>  <PEOE_VSA-6>
7.7675405

>  <PEOE_VSA_FHYD>
0.87840313

>  <PEOE_VSA_FNEG>
0.56219602

>  <PEOE_VSA_FPNEG>
0.058164682

>  <PEOE_VSA_FPOL>
0.12159684

>  <PEOE_VSA_FPOS>
0.43780398

>  <PEOE_VSA_FPPOS>
0.063432157

>  <PEOE_VSA_HYD>
285.93652

>  <PEOE_VSA_NEG>
183.00523

>  <PEOE_VSA_PNEG>
18.933683

>  <PEOE_VSA_POL>
39.582027

>  <PEOE_VSA_POS>
142.51332

>  <PEOE_VSA_PPOS>
20.648346

>  <petitjean>
0.5

>  <petitjeanSC>
1

>  <Q_PC+>
0

>  <Q_PC->
0

>  <Q_RPC+>
0

>  <Q_RPC->
0

>  <Q_VSA_FHYD>
1

>  <Q_VSA_FNEG>
0

>  <Q_VSA_FPNEG>
0

>  <Q_VSA_FPOL>
0

>  <Q_VSA_FPOS>
1

>  <Q_VSA_FPPOS>
0

>  <Q_VSA_HYD>
325.51855

>  <Q_VSA_NEG>
0

>  <Q_VSA_PNEG>
0

>  <Q_VSA_POL>
0

>  <Q_VSA_POS>
325.51855

>  <Q_VSA_PPOS>
0

>  <radius>
6

>  <reactive>
1

>  <rings>
4

>  <RPC+>
0

>  <RPC->
0

>  <rsynth>
0.083333336

>  <SlogP>
4.1437082

>  <SlogP_VSA0>
25.385227

>  <SlogP_VSA1>
2.7567475

>  <SlogP_VSA2>
25.604103

>  <SlogP_VSA3>
17.030573

>  <SlogP_VSA4>
49.131367

>  <SlogP_VSA5>
22.585438

>  <SlogP_VSA6>
0

>  <SlogP_VSA7>
17.643185

>  <SlogP_VSA8>
169.81564

>  <SlogP_VSA9>
33.326015

>  <SMR>
9.5549603

>  <SMR_VSA0>
0

>  <SMR_VSA1>
44.785088

>  <SMR_VSA2>
43.247288

>  <SMR_VSA3>
20.216148

>  <SMR_VSA4>
0

>  <SMR_VSA5>
187.45883

>  <SMR_VSA6>
34.24493

>  <SMR_VSA7>
33.326015

>  <TPSA>
52.82

>  <VAdjEq>
0.44886449

>  <VAdjMa>
5.7548876

>  <VDistEq>
3.2030902

>  <VDistMa>
8.8790655

>  <vdw_area>
325.51855

>  <vdw_vol>
478.9856

>  <vsa_acc>
10.885262

>  <vsa_acid>
0

>  <vsa_base>
0

>  <vsa_don>
0

>  <vsa_hyd>
243.75304

>  <vsa_other>
6.6995511

>  <vsa_pol>
41.417706

>  <Weight>
327.46799

>  <weinerPath>
1215

>  <weinerPol>
51

>  <zagreb>
138

$$$$