O1[C@@H]2[C@]34CCN([C@H](Cc5c3c1c(O)cc5)[C@]4(O)CCC2=C)CC1CC1
  MOE2013           2D

 25 30  0  0  1  0  0  0  0  0999 V2000
    0.0000    0.0000    0.0000 O   0  0  0  0  0  0  0  0  0  0  0  0
    1.2820   -1.2230    0.0000 C   0  0  2  0  0  0  0  0  0  0  0  0
    2.3880   -0.3220    0.0000 C   0  0  2  0  0  0  0  0  0  0  0  0
    3.2310    0.8670    0.0000 C   0  0  0  0  0  0  0  0  0  0  0  0
    5.3740    1.0680    0.0000 C   0  0  0  0  0  0  0  0  0  0  0  0
    6.2870   -0.0460    0.0000 N   0  0  3  0  0  0  0  0  0  0  0  0
    4.8470    0.0810    0.0000 C   0  0  2  0  0  0  0  0  0  0  0  0
    4.6060    1.4970    0.0000 C   0  0  0  0  0  0  0  0  0  0  0  0
    3.2590    2.0070    0.0000 C   0  0  0  0  0  0  0  0  0  0  0  0
    2.1520    1.0980    0.0000 C   0  0  0  0  0  0  0  0  0  0  0  0
    0.8120    1.5970    0.0000 C   0  0  0  0  0  0  0  0  0  0  0  0
    0.5810    3.0150    0.0000 C   0  0  0  0  0  0  0  0  0  0  0  0
   -0.8220    3.5450    0.0000 O   0  0  0  0  0  0  0  0  0  0  0  0
    1.6880    3.9230    0.0000 C   0  0  0  0  0  0  0  0  0  0  0  0
    3.0280    3.4130    0.0000 C   0  0  0  0  0  0  0  0  0  0  0  0
    3.7290   -0.8330    0.0000 C   0  0  1  0  0  0  0  0  0  0  0  0
    5.1350   -1.3570    0.0000 O   0  0  0  0  0  0  0  0  0  0  0  0
    3.9640   -2.2430    0.0000 C   0  0  0  0  0  0  0  0  0  0  0  0
    2.8490   -3.1480    0.0000 C   0  0  0  0  0  0  0  0  0  0  0  0
    1.5080   -2.6380    0.0000 C   0  0  0  0  0  0  0  0  0  0  0  0
    0.3440   -3.5840    0.0000 C   0  0  0  0  0  0  0  0  0  0  0  0
    7.6130   -0.7470    0.0000 C   0  0  0  0  0  0  0  0  0  0  0  0
    8.8830    0.0520    0.0000 C   0  0  0  0  0  0  0  0  0  0  0  0
   10.3820    0.1080    0.0000 C   0  0  0  0  0  0  0  0  0  0  0  0
    9.5840    1.3780    0.0000 C   0  0  0  0  0  0  0  0  0  0  0  0
  1 11  1  0  0  0  0
  2  1  1  6  0  0  0
  2  3  1  0  0  0  0
  2 20  1  0  0  0  0
  3  4  1  1  0  0  0
  3 10  1  0  0  0  0
  3 16  1  0  0  0  0
  4  5  1  0  0  0  0
  5  6  1  0  0  0  0
  6 22  1  0  0  0  0
  7  6  1  1  0  0  0
  7  8  1  0  0  0  0
  7 16  1  0  0  0  0
  8  9  1  0  0  0  0
  9 10  1  0  0  0  0
  9 15  2  0  0  0  0
 10 11  2  0  0  0  0
 11 12  1  0  0  0  0
 12 13  1  0  0  0  0
 12 14  2  0  0  0  0
 14 15  1  0  0  0  0
 16 17  1  1  0  0  0
 16 18  1  0  0  0  0
 18 19  1  0  0  0  0
 19 20  1  0  0  0  0
 20 21  2  0  0  0  0
 22 23  1  0  0  0  0
 23 24  1  0  0  0  0
 23 25  1  0  0  0  0
 24 25  1  0  0  0  0
M  END
>  <Index>
744

>  <ID>
HT1457

>  <class>
0

>  <apol>
57.135826

>  <ast_fraglike>
0

>  <ast_fraglike_ext>
0

>  <ast_violation>
2

>  <ast_violation_ext>
2

>  <a_acc>
4

>  <a_acid>
0

>  <a_aro>
6

>  <a_base>
0

>  <a_count>
50

>  <a_don>
2

>  <a_donacc>
6

>  <a_heavy>
25

>  <a_hyd>
21

>  <a_IC>
69.102852

>  <a_ICM>
1.3820571

>  <a_nB>
0

>  <a_nBr>
0

>  <a_nC>
21

>  <a_nCl>
0

>  <a_nF>
0

>  <a_nH>
25

>  <a_nI>
0

>  <a_nN>
1

>  <a_nO>
3

>  <a_nP>
0

>  <a_nS>
0

>  <balabanJ>
1.4639477

>  <BCUT_PEOE_0>
-2.8991628

>  <BCUT_PEOE_1>
-0.51263618

>  <BCUT_PEOE_2>
0.65398532

>  <BCUT_PEOE_3>
2.9324865

>  <BCUT_SLOGP_0>
-2.9872489

>  <BCUT_SLOGP_1>
-0.44139344

>  <BCUT_SLOGP_2>
0.71056569

>  <BCUT_SLOGP_3>
2.9077024

>  <BCUT_SMR_0>
-2.6502302

>  <BCUT_SMR_1>
-0.3772735

>  <BCUT_SMR_2>
0.81821322

>  <BCUT_SMR_3>
3.179667

>  <bpol>
31.226175

>  <b_1rotN>
2

>  <b_1rotR>
0.06666667

>  <b_ar>
6

>  <b_count>
55

>  <b_double>
1

>  <b_heavy>
30

>  <b_max1len>
3

>  <b_rotN>
2

>  <b_rotR>
0.06666667

>  <b_single>
48

>  <b_triple>
0

>  <chi0>
16.974327

>  <chi0v>
14.500602

>  <chi0v_C>
12.750712

>  <chi0_C>
13.68987

>  <chi1>
12.043479

>  <chi1v>
9.705164

>  <chi1v_C>
7.9274693

>  <chi1_C>
8.9998016

>  <chiral>
4

>  <chiral_u>
0

>  <density>
0.72913003

>  <diameter>
10

>  <FCharge>
0

>  <GCUT_PEOE_0>
-0.84955955

>  <GCUT_PEOE_1>
-0.39209101

>  <GCUT_PEOE_2>
0.064157441

>  <GCUT_PEOE_3>
3.2225542

>  <GCUT_SLOGP_0>
-0.96140814

>  <GCUT_SLOGP_1>
-0.33216342

>  <GCUT_SLOGP_2>
0.1033076

>  <GCUT_SLOGP_3>
3.2457149

>  <GCUT_SMR_0>
-0.52177727

>  <GCUT_SMR_1>
-0.22371474

>  <GCUT_SMR_2>
0.18933949

>  <GCUT_SMR_3>
3.464771

>  <Kier1>
16

>  <Kier2>
5.0784001

>  <Kier3>
1.7704618

>  <KierA1>
14.034213

>  <KierA2>
4.4289069

>  <KierA3>
1.5373912

>  <KierFlex>
2.486249

>  <lip_acc>
4

>  <lip_don>
2

>  <lip_druglike>
1

>  <lip_violation>
0

>  <logP(o/w)>
2.3429999

>  <logS>
-2.6031899

>  <mr>
9.3216534

>  <mutagenic>
0

>  <nmol>
1

>  <opr_brigid>
26

>  <opr_leadlike>
1

>  <opr_nring>
6

>  <opr_nrot>
2

>  <opr_violation>
1

>  <PC+>
0

>  <PC->
0

>  <PEOE_PC+>
1.8448282

>  <PEOE_PC->
-1.8448282

>  <PEOE_RPC+>
0.11785474

>  <PEOE_RPC->
0.20924616

>  <PEOE_VSA+0>
108.5161

>  <PEOE_VSA+1>
26.231859

>  <PEOE_VSA+2>
16.917038

>  <PEOE_VSA+3>
0

>  <PEOE_VSA+4>
20.648346

>  <PEOE_VSA+5>
0

>  <PEOE_VSA+6>
0

>  <PEOE_VSA-0>
68.87986

>  <PEOE_VSA-1>
34.556171

>  <PEOE_VSA-2>
0

>  <PEOE_VSA-3>
0

>  <PEOE_VSA-4>
0

>  <PEOE_VSA-5>
0

>  <PEOE_VSA-6>
18.038837

>  <PEOE_VSA_FHYD>
0.86831611

>  <PEOE_VSA_FNEG>
0.41347769

>  <PEOE_VSA_FPNEG>
0.06140082

>  <PEOE_VSA_FPOL>
0.13168392

>  <PEOE_VSA_FPOS>
0.58652228

>  <PEOE_VSA_FPPOS>
0.0702831

>  <PEOE_VSA_HYD>
255.10103

>  <PEOE_VSA_NEG>
121.47487

>  <PEOE_VSA_PNEG>
18.038837

>  <PEOE_VSA_POL>
38.687183

>  <PEOE_VSA_POS>
172.31334

>  <PEOE_VSA_PPOS>
20.648346

>  <petitjean>
0.5

>  <petitjeanSC>
1

>  <Q_PC+>
0

>  <Q_PC->
0

>  <Q_RPC+>
0

>  <Q_RPC->
0

>  <Q_VSA_FHYD>
1

>  <Q_VSA_FNEG>
0

>  <Q_VSA_FPNEG>
0

>  <Q_VSA_FPOL>
0

>  <Q_VSA_FPOS>
1

>  <Q_VSA_FPPOS>
0

>  <Q_VSA_HYD>
293.78821

>  <Q_VSA_NEG>
0

>  <Q_VSA_PNEG>
0

>  <Q_VSA_POL>
0

>  <Q_VSA_POS>
293.78821

>  <Q_VSA_PPOS>
0

>  <radius>
5

>  <reactive>
0

>  <rings>
6

>  <RPC+>
0

>  <RPC->
0

>  <rsynth>
0

>  <SlogP>
2.51247

>  <SlogP_VSA0>
61.77034

>  <SlogP_VSA1>
3.1243138

>  <SlogP_VSA2>
10.450618

>  <SlogP_VSA3>
36.879158

>  <SlogP_VSA4>
10.781946

>  <SlogP_VSA5>
22.05398

>  <SlogP_VSA6>
0

>  <SlogP_VSA7>
35.286369

>  <SlogP_VSA8>
94.342026

>  <SlogP_VSA9>
42.58765

>  <SMR>
9.3930597

>  <SMR_VSA0>
0

>  <SMR_VSA1>
64.894653

>  <SMR_VSA2>
4.4107962

>  <SMR_VSA3>
30.4942

>  <SMR_VSA4>
0

>  <SMR_VSA5>
148.4968

>  <SMR_VSA6>
36.879158

>  <SMR_VSA7>
32.100792

>  <TPSA>
52.93

>  <VAdjEq>
0.45618612

>  <VAdjMa>
5.9068904

>  <VDistEq>
2.9469283

>  <VDistMa>
9.0436964

>  <vdw_area>
293.78821

>  <vdw_vol>
465.53421

>  <vsa_acc>
2.503756

>  <vsa_acid>
0

>  <vsa_base>
0

>  <vsa_don>
0

>  <vsa_hyd>
237.38469

>  <vsa_other>
0

>  <vsa_pol>
29.637598

>  <Weight>
339.435

>  <weinerPath>
1189

>  <weinerPol>
59

>  <zagreb>
160

$$$$