s1c([N+](=O)[O-])cnc1NC(=O)c1ccccc1OC(=O)C
  MOE2013           2D

 21 22  0  0  0  0  0  0  0  0999 V2000
    0.0000    0.0000    0.0000 S   0  0  0  0  0  0  0  0  0  0  0  0
    1.0180   -1.1020    0.0000 C   0  0  0  0  0  0  0  0  0  0  0  0
    2.5070   -0.9260    0.0000 N   0  3  0  0  0  0  0  0  0  0  0  0
    3.1000    0.4520    0.0000 O   0  0  0  0  0  0  0  0  0  0  0  0
    3.4040   -2.1290    0.0000 O   0  5  0  0  0  0  0  0  0  0  0  0
    0.2840   -2.4100    0.0000 C   0  0  0  0  0  0  0  0  0  0  0  0
   -1.1870   -2.1170    0.0000 N   0  0  0  0  0  0  0  0  0  0  0  0
   -1.3620   -0.6270    0.0000 C   0  0  0  0  0  0  0  0  0  0  0  0
   -2.6710    0.1060    0.0000 N   0  0  0  0  0  0  0  0  0  0  0  0
   -3.9600   -0.6600    0.0000 C   0  0  0  0  0  0  0  0  0  0  0  0
   -3.9410   -2.1600    0.0000 O   0  0  0  0  0  0  0  0  0  0  0  0
   -5.2690    0.0730    0.0000 C   0  0  0  0  0  0  0  0  0  0  0  0
   -5.2880    1.5730    0.0000 C   0  0  0  0  0  0  0  0  0  0  0  0
   -6.5960    2.3070    0.0000 C   0  0  0  0  0  0  0  0  0  0  0  0
   -7.8860    1.5400    0.0000 C   0  0  0  0  0  0  0  0  0  0  0  0
   -7.8670    0.0400    0.0000 C   0  0  0  0  0  0  0  0  0  0  0  0
   -6.5580   -0.6930    0.0000 C   0  0  0  0  0  0  0  0  0  0  0  0
   -6.5390   -2.1930    0.0000 O   0  0  0  0  0  0  0  0  0  0  0  0
   -7.8290   -2.9590    0.0000 C   0  0  0  0  0  0  0  0  0  0  0  0
   -7.8100   -4.4590    0.0000 O   0  0  0  0  0  0  0  0  0  0  0  0
   -9.1370   -2.2260    0.0000 C   0  0  0  0  0  0  0  0  0  0  0  0
  1  2  1  0  0  0  0
  1  8  1  0  0  0  0
  2  3  1  0  0  0  0
  2  6  2  0  0  0  0
  3  4  2  0  0  0  0
  3  5  1  0  0  0  0
  6  7  1  0  0  0  0
  7  8  2  0  0  0  0
  8  9  1  0  0  0  0
  9 10  1  0  0  0  0
 10 11  2  0  0  0  0
 10 12  1  0  0  0  0
 12 13  1  0  0  0  0
 12 17  2  0  0  0  0
 13 14  2  0  0  0  0
 14 15  1  0  0  0  0
 15 16  2  0  0  0  0
 16 17  1  0  0  0  0
 17 18  1  0  0  0  0
 18 19  1  0  0  0  0
 19 20  2  0  0  0  0
 19 21  1  0  0  0  0
M  CHG  1   3   1
M  CHG  1   5  -1
M  END
>  <Index>
772

>  <ID>
HT1500

>  <class>
0

>  <apol>
37.331139

>  <ast_fraglike>
0

>  <ast_fraglike_ext>
0

>  <ast_violation>
1

>  <ast_violation_ext>
2

>  <a_acc>
3

>  <a_acid>
0

>  <a_aro>
11

>  <a_base>
0

>  <a_count>
30

>  <a_don>
1

>  <a_donacc>
4

>  <a_heavy>
21

>  <a_hyd>
11

>  <a_IC>
59.293316

>  <a_ICM>
1.9764439

>  <a_nB>
0

>  <a_nBr>
0

>  <a_nC>
12

>  <a_nCl>
0

>  <a_nF>
0

>  <a_nH>
9

>  <a_nI>
0

>  <a_nN>
3

>  <a_nO>
5

>  <a_nP>
0

>  <a_nS>
1

>  <balabanJ>
1.8527651

>  <BCUT_PEOE_0>
-2.2424412

>  <BCUT_PEOE_1>
-0.56636477

>  <BCUT_PEOE_2>
0.61840218

>  <BCUT_PEOE_3>
2.2906425

>  <BCUT_SLOGP_0>
-2.294692

>  <BCUT_SLOGP_1>
-0.4814423

>  <BCUT_SLOGP_2>
0.697878

>  <BCUT_SLOGP_3>
2.3658085

>  <BCUT_SMR_0>
-1.956303

>  <BCUT_SMR_1>
-0.39171296

>  <BCUT_SMR_2>
0.79115909

>  <BCUT_SMR_3>
2.593523

>  <bpol>
19.186863

>  <b_1rotN>
4

>  <b_1rotR>
0.18181819

>  <b_ar>
11

>  <b_count>
31

>  <b_double>
3

>  <b_heavy>
22

>  <b_max1len>
2

>  <b_rotN>
6

>  <b_rotR>
0.27272728

>  <b_single>
17

>  <b_triple>
0

>  <chi0>
15.405413

>  <chi0v>
11.547165

>  <chi0v_C>
6.8867512

>  <chi0_C>
7.9996357

>  <chi1>
9.9692345

>  <chi1v>
6.4778275

>  <chi1v_C>
2.8660254

>  <chi1_C>
3.9687619

>  <chiral>
0

>  <chiral_u>
0

>  <density>
0.90195131

>  <diameter>
11

>  <FCharge>
0

>  <GCUT_PEOE_0>
-0.79807723

>  <GCUT_PEOE_1>
-0.45300028

>  <GCUT_PEOE_2>
0.084455527

>  <GCUT_PEOE_3>
2.2676103

>  <GCUT_SLOGP_0>
-0.99342901

>  <GCUT_SLOGP_1>
-0.32324076

>  <GCUT_SLOGP_2>
0.15580535

>  <GCUT_SLOGP_3>
2.3639812

>  <GCUT_SMR_0>
-0.48971388

>  <GCUT_SMR_1>
-0.19222029

>  <GCUT_SMR_2>
0.23226403

>  <GCUT_SMR_3>
2.5598969

>  <Kier1>
17.355371

>  <Kier2>
8.0222225

>  <Kier3>
5

>  <KierA1>
12.823424

>  <KierA2>
5.8302002

>  <KierA3>
3.5877509

>  <KierFlex>
3.5601492

>  <lip_acc>
8

>  <lip_don>
1

>  <lip_druglike>
1

>  <lip_violation>
0

>  <logP(o/w)>
1.9170001

>  <logS>
-4.28125

>  <mr>
7.506813

>  <mutagenic>
1

>  <nmol>
1

>  <opr_brigid>
11

>  <opr_leadlike>
1

>  <opr_nring>
2

>  <opr_nrot>
4

>  <opr_violation>
0

>  <PC+>
0

>  <PC->
0

>  <PEOE_PC+>
2.0836079

>  <PEOE_PC->
-2.0836079

>  <PEOE_RPC+>
0.12733644

>  <PEOE_RPC->
0.15143749

>  <PEOE_VSA+0>
31.543835

>  <PEOE_VSA+1>
65.934563

>  <PEOE_VSA+2>
0

>  <PEOE_VSA+3>
8.6190128

>  <PEOE_VSA+4>
0

>  <PEOE_VSA+5>
56.094261

>  <PEOE_VSA+6>
0

>  <PEOE_VSA-0>
24.509808

>  <PEOE_VSA-1>
24.509808

>  <PEOE_VSA-2>
0

>  <PEOE_VSA-3>
0

>  <PEOE_VSA-4>
5.6825762

>  <PEOE_VSA-5>
63.568645

>  <PEOE_VSA-6>
0.13689101

>  <PEOE_VSA_FHYD>
0.55280596

>  <PEOE_VSA_FNEG>
0.42198139

>  <PEOE_VSA_FPNEG>
0.24728532

>  <PEOE_VSA_FPOL>
0.44719401

>  <PEOE_VSA_FPOS>
0.57801861

>  <PEOE_VSA_FPPOS>
0.1999087

>  <PEOE_VSA_HYD>
155.11702

>  <PEOE_VSA_NEG>
118.40773

>  <PEOE_VSA_PNEG>
69.388115

>  <PEOE_VSA_POL>
125.48238

>  <PEOE_VSA_POS>
162.19167

>  <PEOE_VSA_PPOS>
56.094261

>  <petitjean>
0.45454547

>  <petitjeanSC>
0.83333331

>  <Q_PC+>
0

>  <Q_PC->
0

>  <Q_RPC+>
0

>  <Q_RPC->
0

>  <Q_VSA_FHYD>
1

>  <Q_VSA_FNEG>
0

>  <Q_VSA_FPNEG>
0

>  <Q_VSA_FPOL>
0

>  <Q_VSA_FPOS>
1

>  <Q_VSA_FPPOS>
0

>  <Q_VSA_HYD>
280.5994

>  <Q_VSA_NEG>
0

>  <Q_VSA_PNEG>
0

>  <Q_VSA_POL>
0

>  <Q_VSA_POS>
280.5994

>  <Q_VSA_PPOS>
0

>  <radius>
6

>  <reactive>
1

>  <rings>
2

>  <RPC+>
0

>  <RPC->
0

>  <rsynth>
1

>  <SlogP>
2.2289

>  <SlogP_VSA0>
10.999887

>  <SlogP_VSA1>
54.886143

>  <SlogP_VSA2>
23.862217

>  <SlogP_VSA3>
50.935009

>  <SlogP_VSA4>
27.047791

>  <SlogP_VSA5>
0

>  <SlogP_VSA6>
0

>  <SlogP_VSA7>
87.787094

>  <SlogP_VSA8>
0

>  <SlogP_VSA9>
71.277451

>  <SMR>
7.4472599

>  <SMR_VSA0>
54.810047

>  <SMR_VSA1>
27.785418

>  <SMR_VSA2>
50.935009

>  <SMR_VSA3>
8.4290028

>  <SMR_VSA4>
19.441071

>  <SMR_VSA5>
87.787094

>  <SMR_VSA6>
13.004248

>  <SMR_VSA7>
64.603706

>  <TPSA>
114.11

>  <VAdjEq>
0.46827638

>  <VAdjMa>
5.4594316

>  <VDistEq>
3.2908106

>  <VDistMa>
8.4821329

>  <vdw_area>
280.5994

>  <vdw_vol>
340.69022

>  <vsa_acc>
32.816418

>  <vsa_acid>
0

>  <vsa_base>
0

>  <vsa_don>
5.6825762

>  <vsa_hyd>
156.07326

>  <vsa_other>
77.25946

>  <vsa_pol>
38.498993

>  <Weight>
307.28601

>  <weinerPath>
993

>  <weinerPol>
28

>  <zagreb>
104

$$$$