O=C1NC(=O)NC(=O)C1(CCC(C)C)CC
  MOE2013           2D

 16 16  0  0  0  0  0  0  0  0999 V2000
    0.0000    0.0000    0.0000 O   0  0  0  0  0  0  0  0  0  0  0  0
    1.3030    0.7420    0.0000 C   0  0  0  0  0  0  0  0  0  0  0  0
    2.5980   -0.0160    0.0000 N   0  0  0  0  0  0  0  0  0  0  0  0
    3.9020    0.7270    0.0000 C   0  0  0  0  0  0  0  0  0  0  0  0
    5.1960   -0.0310    0.0000 O   0  0  0  0  0  0  0  0  0  0  0  0
    3.9100    2.2270    0.0000 N   0  0  0  0  0  0  0  0  0  0  0  0
    2.6160    2.9840    0.0000 C   0  0  0  0  0  0  0  0  0  0  0  0
    2.6250    4.4840    0.0000 O   0  0  0  0  0  0  0  0  0  0  0  0
    1.3120    2.2420    0.0000 C   0  0  0  0  0  0  0  0  0  0  0  0
   -0.1880    2.2510    0.0000 C   0  0  0  0  0  0  0  0  0  0  0  0
   -0.9300    3.5550    0.0000 C   0  0  0  0  0  0  0  0  0  0  0  0
   -2.4300    3.5640    0.0000 C   0  0  0  0  0  0  0  0  0  0  0  0
   -3.1720    4.8670    0.0000 C   0  0  0  0  0  0  0  0  0  0  0  0
   -3.1870    2.2690    0.0000 C   0  0  0  0  0  0  0  0  0  0  0  0
    0.5700    3.5460    0.0000 C   0  0  0  0  0  0  0  0  0  0  0  0
    1.3280    4.8400    0.0000 C   0  0  0  0  0  0  0  0  0  0  0  0
  1  2  2  0  0  0  0
  2  3  1  0  0  0  0
  2  9  1  0  0  0  0
  3  4  1  0  0  0  0
  4  5  2  0  0  0  0
  4  6  1  0  0  0  0
  6  7  1  0  0  0  0
  7  8  2  0  0  0  0
  7  9  1  0  0  0  0
  9 10  1  0  0  0  0
  9 15  1  0  0  0  0
 10 11  1  0  0  0  0
 11 12  1  0  0  0  0
 12 13  1  0  0  0  0
 12 14  1  0  0  0  0
 15 16  1  0  0  0  0
M  END
>  <Index>
71

>  <ID>
HT0146

>  <class>
0

>  <apol>
35.968273

>  <ast_fraglike>
1

>  <ast_fraglike_ext>
0

>  <ast_violation>
0

>  <ast_violation_ext>
1

>  <a_acc>
3

>  <a_acid>
0

>  <a_aro>
0

>  <a_base>
0

>  <a_count>
34

>  <a_don>
2

>  <a_donacc>
5

>  <a_heavy>
16

>  <a_hyd>
8

>  <a_IC>
53.106453

>  <a_ICM>
1.5619545

>  <a_nB>
0

>  <a_nBr>
0

>  <a_nC>
11

>  <a_nCl>
0

>  <a_nF>
0

>  <a_nH>
18

>  <a_nI>
0

>  <a_nN>
2

>  <a_nO>
3

>  <a_nP>
0

>  <a_nS>
0

>  <balabanJ>
2.7542472

>  <BCUT_PEOE_0>
-2.7155349

>  <BCUT_PEOE_1>
-0.44874597

>  <BCUT_PEOE_2>
0.42035809

>  <BCUT_PEOE_3>
2.7466221

>  <BCUT_SLOGP_0>
-2.801281

>  <BCUT_SLOGP_1>
-0.22709027

>  <BCUT_SLOGP_2>
0.398238

>  <BCUT_SLOGP_3>
2.784966

>  <BCUT_SMR_0>
-2.4790614

>  <BCUT_SMR_1>
-0.2536512

>  <BCUT_SMR_2>
0.50697476

>  <BCUT_SMR_3>
2.9779871

>  <bpol>
23.871725

>  <b_1rotN>
4

>  <b_1rotR>
0.25

>  <b_ar>
0

>  <b_count>
34

>  <b_double>
3

>  <b_heavy>
16

>  <b_max1len>
8

>  <b_rotN>
4

>  <b_rotR>
0.25

>  <b_single>
31

>  <b_triple>
0

>  <chi0>
12.344935

>  <chi0v>
9.9234152

>  <chi0v_C>
7.6986704

>  <chi0_C>
7.9307213

>  <chi1>
7.4195566

>  <chi1v>
5.5895348

>  <chi1v_C>
3.9771624

>  <chi1_C>
4.0545125

>  <chiral>
0

>  <chiral_u>
0

>  <density>
0.74229819

>  <diameter>
8

>  <FCharge>
0

>  <GCUT_PEOE_0>
-0.80192953

>  <GCUT_PEOE_1>
-0.40528625

>  <GCUT_PEOE_2>
0.070592225

>  <GCUT_PEOE_3>
2.6577754

>  <GCUT_SLOGP_0>
-1.1838952

>  <GCUT_SLOGP_1>
-0.30572593

>  <GCUT_SLOGP_2>
0.018506758

>  <GCUT_SLOGP_3>
2.6649346

>  <GCUT_SMR_0>
-0.53454983

>  <GCUT_SMR_1>
-0.20702699

>  <GCUT_SMR_2>
0.14020142

>  <GCUT_SMR_3>
2.8754804

>  <Kier1>
14.0625

>  <Kier2>
5.5576558

>  <Kier3>
3.0297265

>  <KierA1>
10.916496

>  <KierA2>
4.2351041

>  <KierA3>
2.276736

>  <KierFlex>
2.8895311

>  <lip_acc>
5

>  <lip_don>
2

>  <lip_druglike>
1

>  <lip_violation>
0

>  <logP(o/w)>
2.1270001

>  <logS>
-3.3893499

>  <mr>
6.0206399

>  <mutagenic>
0

>  <nmol>
1

>  <opr_brigid>
6

>  <opr_leadlike>
1

>  <opr_nring>
1

>  <opr_nrot>
4

>  <opr_violation>
0

>  <PC+>
0

>  <PC->
0

>  <PEOE_PC+>
1.6934904

>  <PEOE_PC->
-1.6934904

>  <PEOE_RPC+>
0.19427644

>  <PEOE_RPC->
0.16400579

>  <PEOE_VSA+0>
68.246178

>  <PEOE_VSA+1>
0

>  <PEOE_VSA+2>
0

>  <PEOE_VSA+3>
17.238026

>  <PEOE_VSA+4>
25.899061

>  <PEOE_VSA+5>
0

>  <PEOE_VSA+6>
17.440542

>  <PEOE_VSA-0>
26.103939

>  <PEOE_VSA-1>
56.243034

>  <PEOE_VSA-2>
0

>  <PEOE_VSA-3>
0

>  <PEOE_VSA-4>
13.566921

>  <PEOE_VSA-5>
27.407623

>  <PEOE_VSA-6>
0

>  <PEOE_VSA_FHYD>
0.66561288

>  <PEOE_VSA_FNEG>
0.48908904

>  <PEOE_VSA_FPNEG>
0.16250369

>  <PEOE_VSA_FPOL>
0.33438712

>  <PEOE_VSA_FPOS>
0.51091093

>  <PEOE_VSA_FPPOS>
0.17188343

>  <PEOE_VSA_HYD>
167.83118

>  <PEOE_VSA_NEG>
123.32152

>  <PEOE_VSA_PNEG>
40.974545

>  <PEOE_VSA_POL>
84.314148

>  <PEOE_VSA_POS>
128.82381

>  <PEOE_VSA_PPOS>
43.339603

>  <petitjean>
0.5

>  <petitjeanSC>
1

>  <Q_PC+>
0

>  <Q_PC->
0

>  <Q_RPC+>
0

>  <Q_RPC->
0

>  <Q_VSA_FHYD>
1

>  <Q_VSA_FNEG>
0

>  <Q_VSA_FPNEG>
0

>  <Q_VSA_FPOL>
0

>  <Q_VSA_FPOS>
1

>  <Q_VSA_FPPOS>
0

>  <Q_VSA_HYD>
252.14532

>  <Q_VSA_NEG>
0

>  <Q_VSA_PNEG>
0

>  <Q_VSA_POL>
0

>  <Q_VSA_POS>
252.14532

>  <Q_VSA_PPOS>
0

>  <radius>
4

>  <reactive>
0

>  <rings>
1

>  <RPC+>
0

>  <RPC->
0

>  <rsynth>
1

>  <SlogP>
1.1849999

>  <SlogP_VSA0>
36.0215

>  <SlogP_VSA1>
15.347524

>  <SlogP_VSA2>
47.724434

>  <SlogP_VSA3>
0

>  <SlogP_VSA4>
4.4107962

>  <SlogP_VSA5>
0

>  <SlogP_VSA6>
0

>  <SlogP_VSA7>
0

>  <SlogP_VSA8>
56.605217

>  <SlogP_VSA9>
123.84026

>  <SMR>
5.8477402

>  <SMR_VSA0>
71.586647

>  <SMR_VSA1>
0

>  <SMR_VSA2>
40.432297

>  <SMR_VSA3>
0

>  <SMR_VSA4>
0

>  <SMR_VSA5>
56.605217

>  <SMR_VSA6>
15.347524

>  <SMR_VSA7>
99.978043

>  <TPSA>
75.269997

>  <VAdjEq>
0.54356444

>  <VAdjMa>
5

>  <VDistEq>
2.7250171

>  <VDistMa>
7.7256527

>  <vdw_area>
252.14532

>  <vdw_vol>
304.83167

>  <vsa_acc>
40.700764

>  <vsa_acid>
0

>  <vsa_base>
0

>  <vsa_don>
11.365152

>  <vsa_hyd>
137.85938

>  <vsa_other>
43.339603

>  <vsa_pol>
52.065914

>  <Weight>
226.276

>  <weinerPath>
418

>  <weinerPol>
26

>  <zagreb>
78

$$$$