O1[C@H](O[C@H]2[C@H](O)[C@@H](O[C@H]3OC[C@@](O)(C)[C@H](NC)[C@H]3O)[C@H](NCC)C[C@@H]2N)[C@H](N)CC=C1CN
  MOE2013           2D

 33 35  0  0  1  0  0  0  0  0999 V2000
    0.0000    0.0000    0.0000 O   0  0  0  0  0  0  0  0  0  0  0  0
    0.7550   -1.2960    0.0000 C   0  0  2  0  0  0  0  0  0  0  0  0
    2.2550   -1.2900    0.0000 O   0  0  0  0  0  0  0  0  0  0  0  0
    3.0000    0.0120    0.0000 C   0  0  1  0  0  0  0  0  0  0  0  0
    4.5000    0.0190    0.0000 C   0  0  2  0  0  0  0  0  0  0  0  0
    5.2550   -1.2770    0.0000 O   0  0  0  0  0  0  0  0  0  0  0  0
    5.2450    1.3210    0.0000 C   0  0  1  0  0  0  0  0  0  0  0  0
    6.7450    1.3270    0.0000 O   0  0  0  0  0  0  0  0  0  0  0  0
    7.5000    0.0310    0.0000 C   0  0  1  0  0  0  0  0  0  0  0  0
    6.7550   -1.2710    0.0000 O   0  0  0  0  0  0  0  0  0  0  0  0
    7.5110   -2.5670    0.0000 C   0  0  0  0  0  0  0  0  0  0  0  0
    9.0110   -2.5610    0.0000 C   0  0  1  0  0  0  0  0  0  0  0  0
   10.3130   -3.3050    0.0000 O   0  0  0  0  0  0  0  0  0  0  0  0
    9.0170   -4.0610    0.0000 C   0  0  0  0  0  0  0  0  0  0  0  0
    9.7550   -1.2590    0.0000 C   0  0  2  0  0  0  0  0  0  0  0  0
   11.2550   -1.2520    0.0000 N   0  0  0  0  0  0  0  0  0  0  0  0
   12.0000    0.0500    0.0000 C   0  0  0  0  0  0  0  0  0  0  0  0
    9.0000    0.0370    0.0000 C   0  0  1  0  0  0  0  0  0  0  0  0
    9.7450    1.3400    0.0000 O   0  0  0  0  0  0  0  0  0  0  0  0
    4.4890    2.6170    0.0000 C   0  0  2  0  0  0  0  0  0  0  0  0
    5.2340    3.9190    0.0000 N   0  0  0  0  0  0  0  0  0  0  0  0
    4.4780    5.2150    0.0000 C   0  0  0  0  0  0  0  0  0  0  0  0
    5.2230    6.5170    0.0000 C   0  0  0  0  0  0  0  0  0  0  0  0
    2.9890    2.6110    0.0000 C   0  0  0  0  0  0  0  0  0  0  0  0
    2.2450    1.3080    0.0000 C   0  0  2  0  0  0  0  0  0  0  0  0
    0.7450    1.3020    0.0000 N   0  0  0  0  0  0  0  0  0  0  0  0
    0.0110   -2.5980    0.0000 C   0  0  2  0  0  0  0  0  0  0  0  0
    0.7660   -3.8940    0.0000 N   0  0  0  0  0  0  0  0  0  0  0  0
   -1.4890   -2.6040    0.0000 C   0  0  0  0  0  0  0  0  0  0  0  0
   -2.2450   -1.3080    0.0000 C   0  0  0  0  0  0  0  0  0  0  0  0
   -1.5000   -0.0060    0.0000 C   0  0  0  0  0  0  0  0  0  0  0  0
   -2.2550    1.2900    0.0000 C   0  0  0  0  0  0  0  0  0  0  0  0
   -3.7550    1.2830    0.0000 N   0  0  0  0  0  0  0  0  0  0  0  0
  1  2  1  0  0  0  0
  1 31  1  0  0  0  0
  2  3  1  6  0  0  0
  2 27  1  0  0  0  0
  4  3  1  6  0  0  0
  4  5  1  0  0  0  0
  4 25  1  0  0  0  0
  5  6  1  1  0  0  0
  5  7  1  0  0  0  0
  7  8  1  6  0  0  0
  7 20  1  0  0  0  0
  9  8  1  6  0  0  0
  9 10  1  0  0  0  0
  9 18  1  0  0  0  0
 10 11  1  0  0  0  0
 11 12  1  0  0  0  0
 12 13  1  1  0  0  0
 12 14  1  6  0  0  0
 12 15  1  0  0  0  0
 15 16  1  1  0  0  0
 15 18  1  0  0  0  0
 16 17  1  0  0  0  0
 18 19  1  6  0  0  0
 20 21  1  1  0  0  0
 20 24  1  0  0  0  0
 21 22  1  0  0  0  0
 22 23  1  0  0  0  0
 24 25  1  0  0  0  0
 25 26  1  1  0  0  0
 27 28  1  6  0  0  0
 27 29  1  0  0  0  0
 29 30  1  0  0  0  0
 30 31  2  0  0  0  0
 31 32  1  0  0  0  0
 32 33  1  0  0  0  0
M  END
>  <Index>
759

>  <ID>
HT1478

>  <class>
0

>  <apol>
75.412514

>  <ast_fraglike>
0

>  <ast_fraglike_ext>
0

>  <ast_violation>
3

>  <ast_violation_ext>
5

>  <a_acc>
12

>  <a_acid>
0

>  <a_aro>
0

>  <a_base>
0

>  <a_count>
74

>  <a_don>
8

>  <a_donacc>
20

>  <a_heavy>
33

>  <a_hyd>
19

>  <a_IC>
116.34013

>  <a_ICM>
1.5721638

>  <a_nB>
0

>  <a_nBr>
0

>  <a_nC>
21

>  <a_nCl>
0

>  <a_nF>
0

>  <a_nH>
41

>  <a_nI>
0

>  <a_nN>
5

>  <a_nO>
7

>  <a_nP>
0

>  <a_nS>
0

>  <balabanJ>
1.7415147

>  <BCUT_PEOE_0>
-2.8264959

>  <BCUT_PEOE_1>
-0.52202916

>  <BCUT_PEOE_2>
0.58103895

>  <BCUT_PEOE_3>
2.8459973

>  <BCUT_SLOGP_0>
-3.0132093

>  <BCUT_SLOGP_1>
-0.50850999

>  <BCUT_SLOGP_2>
0.55964512

>  <BCUT_SLOGP_3>
2.6888051

>  <BCUT_SMR_0>
-2.5968676

>  <BCUT_SMR_1>
-0.40011248

>  <BCUT_SMR_2>
0.67916685

>  <BCUT_SMR_3>
3.0616446

>  <bpol>
51.825485

>  <b_1rotN>
8

>  <b_1rotR>
0.22857143

>  <b_ar>
0

>  <b_count>
76

>  <b_double>
1

>  <b_heavy>
35

>  <b_max1len>
5

>  <b_rotN>
8

>  <b_rotR>
0.22857143

>  <b_single>
75

>  <b_triple>
0

>  <chi0>
24.336134

>  <chi0v>
19.593071

>  <chi0v_C>
13.886387

>  <chi0_C>
14.093493

>  <chi1>
15.621759

>  <chi1v>
11.610726

>  <chi1v_C>
6.4578905

>  <chi1_C>
6.7239099

>  <chiral>
11

>  <chiral_u>
0

>  <density>
0.7620129

>  <diameter>
14

>  <FCharge>
0

>  <GCUT_PEOE_0>
-0.84552681

>  <GCUT_PEOE_1>
-0.37263066

>  <GCUT_PEOE_2>
0.075690985

>  <GCUT_PEOE_3>
3.1302652

>  <GCUT_SLOGP_0>
-1.3657498

>  <GCUT_SLOGP_1>
-0.40638158

>  <GCUT_SLOGP_2>
0.091087595

>  <GCUT_SLOGP_3>
3.0303581

>  <GCUT_SMR_0>
-0.52463728

>  <GCUT_SMR_1>
-0.21709391

>  <GCUT_SMR_2>
0.1377092

>  <GCUT_SMR_3>
3.3361399

>  <Kier1>
27.585306

>  <Kier2>
11.823145

>  <Kier3>
6.2283735

>  <KierA1>
26.925045

>  <KierA2>
11.531195

>  <KierA3>
6.0711508

>  <KierFlex>
9.4084215

>  <lip_acc>
12

>  <lip_don>
11

>  <lip_druglike>
0

>  <lip_violation>
2

>  <logP(o/w)>
-3.1819999

>  <logS>
0.44288

>  <mr>
11.853845

>  <mutagenic>
0

>  <nmol>
1

>  <opr_brigid>
18

>  <opr_leadlike>
0

>  <opr_nring>
3

>  <opr_nrot>
13

>  <opr_violation>
4

>  <PC+>
0

>  <PC->
0

>  <PEOE_PC+>
4.2892432

>  <PEOE_PC->
-4.2892432

>  <PEOE_RPC+>
0.049033463

>  <PEOE_RPC->
0.090118989

>  <PEOE_VSA+0>
100.52658

>  <PEOE_VSA+1>
76.620979

>  <PEOE_VSA+2>
88.571815

>  <PEOE_VSA+3>
22.309816

>  <PEOE_VSA+4>
30.972517

>  <PEOE_VSA+5>
0

>  <PEOE_VSA+6>
0

>  <PEOE_VSA-0>
72.581322

>  <PEOE_VSA-1>
31.002581

>  <PEOE_VSA-2>
0

>  <PEOE_VSA-3>
0

>  <PEOE_VSA-4>
0

>  <PEOE_VSA-5>
0

>  <PEOE_VSA-6>
53.544785

>  <PEOE_VSA_FHYD>
0.82249129

>  <PEOE_VSA_FNEG>
0.33001187

>  <PEOE_VSA_FPNEG>
0.11245824

>  <PEOE_VSA_FPOL>
0.17750873

>  <PEOE_VSA_FPOS>
0.66998816

>  <PEOE_VSA_FPPOS>
0.065050498

>  <PEOE_VSA_HYD>
391.6131

>  <PEOE_VSA_NEG>
157.12868

>  <PEOE_VSA_PNEG>
53.544785

>  <PEOE_VSA_POL>
84.517303

>  <PEOE_VSA_POS>
319.00171

>  <PEOE_VSA_PPOS>
30.972517

>  <petitjean>
0.5

>  <petitjeanSC>
1

>  <Q_PC+>
0

>  <Q_PC->
0

>  <Q_RPC+>
0

>  <Q_RPC->
0

>  <Q_VSA_FHYD>
1

>  <Q_VSA_FNEG>
0

>  <Q_VSA_FPNEG>
0

>  <Q_VSA_FPOL>
0

>  <Q_VSA_FPOS>
1

>  <Q_VSA_FPPOS>
0

>  <Q_VSA_HYD>
476.1304

>  <Q_VSA_NEG>
0

>  <Q_VSA_PNEG>
0

>  <Q_VSA_POL>
0

>  <Q_VSA_POS>
476.1304

>  <Q_VSA_PPOS>
0

>  <radius>
7

>  <reactive>
1

>  <rings>
3

>  <RPC+>
0

>  <RPC->
0

>  <rsynth>
0.39393941

>  <SlogP>
-3.2007

>  <SlogP_VSA0>
210.86874

>  <SlogP_VSA1>
0

>  <SlogP_VSA2>
102.85503

>  <SlogP_VSA3>
57.805416

>  <SlogP_VSA4>
0

>  <SlogP_VSA5>
38.140617

>  <SlogP_VSA6>
0

>  <SlogP_VSA7>
17.643185

>  <SlogP_VSA8>
37.736813

>  <SlogP_VSA9>
66.652031

>  <SMR>
11.9631

>  <SMR_VSA0>
43.99955

>  <SMR_VSA1>
76.155678

>  <SMR_VSA2>
36.0215

>  <SMR_VSA3>
64.098907

>  <SMR_VSA4>
98.691559

>  <SMR_VSA5>
55.379993

>  <SMR_VSA6>
57.805416

>  <SMR_VSA7>
99.549217

>  <TPSA>
199.73

>  <VAdjEq>
0.3442024

>  <VAdjMa>
6.129283

>  <VDistEq>
3.6015744

>  <VDistMa>
9.8250914

>  <vdw_area>
476.1304

>  <vdw_vol>
624.11932

>  <vsa_acc>
10.015024

>  <vsa_acid>
0

>  <vsa_base>
0

>  <vsa_don>
0

>  <vsa_hyd>
271.89014

>  <vsa_other>
29.416998

>  <vsa_pol>
115.30841

>  <Weight>
475.58698

>  <weinerPath>
3140

>  <weinerPol>
59

>  <zagreb>
172

$$$$