Oc1ccc(cc1)C[C@](N)(C(O)=O)C
  MOE2013           2D

 14 14  0  0  1  0  0  0  0  0999 V2000
    0.0000    0.0000    0.0000 O   0  0  0  0  0  0  0  0  0  0  0  0
   -1.3010   -0.7470    0.0000 C   0  0  0  0  0  0  0  0  0  0  0  0
   -1.3040   -2.2470    0.0000 C   0  0  0  0  0  0  0  0  0  0  0  0
   -2.6050   -2.9940    0.0000 C   0  0  0  0  0  0  0  0  0  0  0  0
   -3.9020   -2.2410    0.0000 C   0  0  0  0  0  0  0  0  0  0  0  0
   -3.8990   -0.7410    0.0000 C   0  0  0  0  0  0  0  0  0  0  0  0
   -2.5980    0.0060    0.0000 C   0  0  0  0  0  0  0  0  0  0  0  0
   -5.2030   -2.9880    0.0000 C   0  0  0  0  0  0  0  0  0  0  0  0
   -6.5010   -2.2340    0.0000 C   0  0  2  0  0  0  0  0  0  0  0  0
   -5.7470   -0.9370    0.0000 N   0  0  0  0  0  0  0  0  0  0  0  0
   -7.7980   -1.4810    0.0000 C   0  0  0  0  0  0  0  0  0  0  0  0
   -9.0990   -2.2280    0.0000 O   0  0  0  0  0  0  0  0  0  0  0  0
   -7.7940    0.0190    0.0000 O   0  0  0  0  0  0  0  0  0  0  0  0
   -7.2540   -3.5320    0.0000 C   0  0  0  0  0  0  0  0  0  0  0  0
  1  2  1  0  0  0  0
  2  3  1  0  0  0  0
  2  7  2  0  0  0  0
  3  4  2  0  0  0  0
  4  5  1  0  0  0  0
  5  6  2  0  0  0  0
  5  8  1  0  0  0  0
  6  7  1  0  0  0  0
  9  8  1  1  0  0  0
  9 10  1  6  0  0  0
  9 11  1  0  0  0  0
  9 14  1  0  0  0  0
 11 12  1  0  0  0  0
 11 13  2  0  0  0  0
M  END
>  <Index>
705

>  <ID>
HT1384

>  <class>
0

>  <apol>
29.774309

>  <ast_fraglike>
0

>  <ast_fraglike_ext>
0

>  <ast_violation>
2

>  <ast_violation_ext>
2

>  <a_acc>
4

>  <a_acid>
0

>  <a_aro>
6

>  <a_base>
0

>  <a_count>
27

>  <a_don>
4

>  <a_donacc>
8

>  <a_heavy>
14

>  <a_hyd>
9

>  <a_IC>
42.302078

>  <a_ICM>
1.5667436

>  <a_nB>
0

>  <a_nBr>
0

>  <a_nC>
10

>  <a_nCl>
0

>  <a_nF>
0

>  <a_nH>
13

>  <a_nI>
0

>  <a_nN>
1

>  <a_nO>
3

>  <a_nP>
0

>  <a_nS>
0

>  <balabanJ>
2.3900721

>  <BCUT_PEOE_0>
-2.5716121

>  <BCUT_PEOE_1>
-0.62485087

>  <BCUT_PEOE_2>
0.67823094

>  <BCUT_PEOE_3>
2.5993221

>  <BCUT_SLOGP_0>
-2.7891335

>  <BCUT_SLOGP_1>
-0.56776685

>  <BCUT_SLOGP_2>
0.67389542

>  <BCUT_SLOGP_3>
2.516346

>  <BCUT_SMR_0>
-2.3270693

>  <BCUT_SMR_1>
-0.45361984

>  <BCUT_SMR_2>
0.80323023

>  <BCUT_SMR_3>
2.8382239

>  <bpol>
14.509691

>  <b_1rotN>
3

>  <b_1rotR>
0.21428572

>  <b_ar>
6

>  <b_count>
27

>  <b_double>
1

>  <b_heavy>
14

>  <b_max1len>
4

>  <b_rotN>
3

>  <b_rotR>
0.21428572

>  <b_single>
20

>  <b_triple>
0

>  <chi0>
10.767585

>  <chi0v>
7.8965335

>  <chi0v_C>
6.0165076

>  <chi0_C>
6.7675848

>  <chi1>
6.4155207

>  <chi1v>
4.2184868

>  <chi1v_C>
3.2784741

>  <chi1_C>
4.1834698

>  <chiral>
1

>  <chiral_u>
0

>  <density>
0.75233948

>  <diameter>
8

>  <FCharge>
0

>  <GCUT_PEOE_0>
-0.80972469

>  <GCUT_PEOE_1>
-0.42274657

>  <GCUT_PEOE_2>
0.11853969

>  <GCUT_PEOE_3>
2.3812163

>  <GCUT_SLOGP_0>
-1.3634666

>  <GCUT_SLOGP_1>
-0.32343784

>  <GCUT_SLOGP_2>
0.13743486

>  <GCUT_SLOGP_3>
2.4163985

>  <GCUT_SMR_0>
-0.50844026

>  <GCUT_SMR_1>
-0.23137233

>  <GCUT_SMR_2>
0.22083308

>  <GCUT_SMR_3>
2.6333735

>  <Kier1>
12.071428

>  <Kier2>
4.6799998

>  <Kier3>
3.5918367

>  <KierA1>
9.3661032

>  <KierA2>
3.5535426

>  <KierA3>
2.682368

>  <KierFlex>
2.3773463

>  <lip_acc>
4

>  <lip_don>
4

>  <lip_druglike>
1

>  <lip_violation>
0

>  <logP(o/w)>
-1.42373

>  <logS>
-1.0723701

>  <mr>
5.2424846

>  <mutagenic>
0

>  <nmol>
1

>  <opr_brigid>
6

>  <opr_leadlike>
1

>  <opr_nring>
1

>  <opr_nrot>
3

>  <opr_violation>
0

>  <PC+>
0

>  <PC->
0

>  <PEOE_PC+>
1.5279213

>  <PEOE_PC->
-1.5279213

>  <PEOE_RPC+>
0.18309735

>  <PEOE_RPC->
0.23550449

>  <PEOE_VSA+0>
21.326929

>  <PEOE_VSA+1>
25.520063

>  <PEOE_VSA+2>
17.238026

>  <PEOE_VSA+3>
0

>  <PEOE_VSA+4>
20.648346

>  <PEOE_VSA+5>
14.708499

>  <PEOE_VSA+6>
0

>  <PEOE_VSA-0>
54.167339

>  <PEOE_VSA-1>
24.509808

>  <PEOE_VSA-2>
0

>  <PEOE_VSA-3>
0

>  <PEOE_VSA-4>
0

>  <PEOE_VSA-5>
13.566921

>  <PEOE_VSA-6>
22.186199

>  <PEOE_VSA_FHYD>
0.66751176

>  <PEOE_VSA_FNEG>
0.53504056

>  <PEOE_VSA_FPNEG>
0.16717054

>  <PEOE_VSA_FPOL>
0.33248824

>  <PEOE_VSA_FPOS>
0.46495944

>  <PEOE_VSA_FPPOS>
0.16531768

>  <PEOE_VSA_HYD>
142.76216

>  <PEOE_VSA_NEG>
114.43027

>  <PEOE_VSA_PNEG>
35.75312

>  <PEOE_VSA_POL>
71.109962

>  <PEOE_VSA_POS>
99.441864

>  <PEOE_VSA_PPOS>
35.356846

>  <petitjean>
0.5

>  <petitjeanSC>
1

>  <Q_PC+>
0

>  <Q_PC->
0

>  <Q_RPC+>
0

>  <Q_RPC->
0

>  <Q_VSA_FHYD>
1

>  <Q_VSA_FNEG>
0

>  <Q_VSA_FPNEG>
0

>  <Q_VSA_FPOL>
0

>  <Q_VSA_FPOS>
1

>  <Q_VSA_FPPOS>
0

>  <Q_VSA_HYD>
213.87213

>  <Q_VSA_NEG>
0

>  <Q_VSA_PNEG>
0

>  <Q_VSA_POL>
0

>  <Q_VSA_POS>
213.87213

>  <Q_VSA_PPOS>
0

>  <radius>
4

>  <reactive>
0

>  <rings>
1

>  <RPC+>
0

>  <RPC->
0

>  <rsynth>
1

>  <SlogP>
0.73667002

>  <SlogP_VSA0>
58.282413

>  <SlogP_VSA1>
7.7454643

>  <SlogP_VSA2>
23.862217

>  <SlogP_VSA3>
25.385227

>  <SlogP_VSA4>
3.185575

>  <SlogP_VSA5>
18.868406

>  <SlogP_VSA6>
0

>  <SlogP_VSA7>
70.572739

>  <SlogP_VSA8>
0

>  <SlogP_VSA9>
38.569443

>  <SMR>
5.2038999

>  <SMR_VSA0>
23.862217

>  <SMR_VSA1>
25.385227

>  <SMR_VSA2>
25.385227

>  <SMR_VSA3>
8.4290028

>  <SMR_VSA4>
32.897186

>  <SMR_VSA5>
89.441139

>  <SMR_VSA6>
7.7454643

>  <SMR_VSA7>
33.326015

>  <TPSA>
83.550003

>  <VAdjEq>
0.59167278

>  <VAdjMa>
4.8073549

>  <VDistEq>
2.7885756

>  <VDistMa>
7.2952738

>  <vdw_area>
213.87213

>  <vdw_vol>
259.48126

>  <vsa_acc>
0

>  <vsa_acid>
0

>  <vsa_base>
0

>  <vsa_don>
0

>  <vsa_hyd>
119.11798

>  <vsa_other>
14.708499

>  <vsa_pol>
58.443253

>  <Weight>
195.218

>  <weinerPath>
315

>  <weinerPol>
18

>  <zagreb>
68

$$$$