O(C)c1ccc(OC)cc1C(O)CNC(=O)CN
  MOE2013           2D

 18 18  0  0  1  0  0  0  0  0999 V2000
    0.0000    0.0000    0.0000 O   0  0  0  0  0  0  0  0  0  0  0  0
   -0.7560    1.2960    0.0000 C   0  0  0  0  0  0  0  0  0  0  0  0
   -0.7440   -1.3030    0.0000 C   0  0  0  0  0  0  0  0  0  0  0  0
   -2.2440   -1.3100    0.0000 C   0  0  0  0  0  0  0  0  0  0  0  0
   -2.9880   -2.6120    0.0000 C   0  0  0  0  0  0  0  0  0  0  0  0
   -2.2320   -3.9080    0.0000 C   0  0  0  0  0  0  0  0  0  0  0  0
   -2.9760   -5.2100    0.0000 O   0  0  0  0  0  0  0  0  0  0  0  0
   -4.4760   -5.2170    0.0000 C   0  0  0  0  0  0  0  0  0  0  0  0
   -0.7320   -3.9010    0.0000 C   0  0  0  0  0  0  0  0  0  0  0  0
    0.0120   -2.5980    0.0000 C   0  0  0  0  0  0  0  0  0  0  0  0
    1.5120   -2.5910    0.0000 C   0  0  3  0  0  0  0  0  0  0  0  0
    2.2560   -1.2880    0.0000 O   0  0  0  0  0  0  0  0  0  0  0  0
    2.2680   -3.8870    0.0000 C   0  0  0  0  0  0  0  0  0  0  0  0
    3.7680   -3.8790    0.0000 N   0  0  0  0  0  0  0  0  0  0  0  0
    4.5240   -5.1750    0.0000 C   0  0  0  0  0  0  0  0  0  0  0  0
    6.0240   -5.1680    0.0000 O   0  0  0  0  0  0  0  0  0  0  0  0
    3.7800   -6.4780    0.0000 C   0  0  0  0  0  0  0  0  0  0  0  0
    4.5360   -7.7730    0.0000 N   0  0  0  0  0  0  0  0  0  0  0  0
  1  2  1  0  0  0  0
  1  3  1  0  0  0  0
  3  4  1  0  0  0  0
  3 10  2  0  0  0  0
  4  5  2  0  0  0  0
  5  6  1  0  0  0  0
  6  7  1  0  0  0  0
  6  9  2  0  0  0  0
  7  8  1  0  0  0  0
  9 10  1  0  0  0  0
 10 11  1  0  0  0  0
 11 12  1  0  0  0  0
 11 13  1  0  0  0  0
 13 14  1  0  0  0  0
 14 15  1  0  0  0  0
 15 16  2  0  0  0  0
 15 17  1  0  0  0  0
 17 18  1  0  0  0  0
M  END
>  <Index>
709

>  <ID>
HT1396

>  <class>
0

>  <apol>
38.530273

>  <ast_fraglike>
0

>  <ast_fraglike_ext>
0

>  <ast_violation>
1

>  <ast_violation_ext>
2

>  <a_acc>
5

>  <a_acid>
0

>  <a_aro>
6

>  <a_base>
0

>  <a_count>
36

>  <a_don>
3

>  <a_donacc>
8

>  <a_heavy>
18

>  <a_hyd>
11

>  <a_IC>
58.039101

>  <a_ICM>
1.6121973

>  <a_nB>
0

>  <a_nBr>
0

>  <a_nC>
12

>  <a_nCl>
0

>  <a_nF>
0

>  <a_nH>
18

>  <a_nI>
0

>  <a_nN>
2

>  <a_nO>
4

>  <a_nP>
0

>  <a_nS>
0

>  <balabanJ>
2.4841106

>  <BCUT_PEOE_0>
-2.5183814

>  <BCUT_PEOE_1>
-0.55888224

>  <BCUT_PEOE_2>
0.50219607

>  <BCUT_PEOE_3>
2.5079534

>  <BCUT_SLOGP_0>
-2.7392478

>  <BCUT_SLOGP_1>
-0.5323115

>  <BCUT_SLOGP_2>
0.55454302

>  <BCUT_SLOGP_3>
2.5371077

>  <BCUT_SMR_0>
-2.2550323

>  <BCUT_SMR_1>
-0.36094645

>  <BCUT_SMR_2>
0.69660985

>  <BCUT_SMR_3>
2.7616196

>  <bpol>
24.467726

>  <b_1rotN>
6

>  <b_1rotR>
0.33333334

>  <b_ar>
6

>  <b_count>
36

>  <b_double>
1

>  <b_heavy>
18

>  <b_max1len>
5

>  <b_rotN>
7

>  <b_rotR>
0.3888889

>  <b_single>
29

>  <b_triple>
0

>  <chi0>
13.543606

>  <chi0v>
10.472923

>  <chi0v_C>
7.7236147

>  <chi0_C>
8.4222851

>  <chi1>
8.6169224

>  <chi1v>
5.4873805

>  <chi1v_C>
2.7885108

>  <chi1_C>
3.6161563

>  <chiral>
1

>  <chiral_u>
1

>  <density>
0.75360233

>  <diameter>
10

>  <FCharge>
0

>  <GCUT_PEOE_0>
-0.83185714

>  <GCUT_PEOE_1>
-0.42850268

>  <GCUT_PEOE_2>
0.032605585

>  <GCUT_PEOE_3>
2.4358749

>  <GCUT_SLOGP_0>
-1.363314

>  <GCUT_SLOGP_1>
-0.39620247

>  <GCUT_SLOGP_2>
0.073598839

>  <GCUT_SLOGP_3>
2.5116773

>  <GCUT_SMR_0>
-0.51093465

>  <GCUT_SMR_1>
-0.21999606

>  <GCUT_SMR_2>
0.1502265

>  <GCUT_SMR_3>
2.6926322

>  <Kier1>
16.055555

>  <Kier2>
8.2268429

>  <Kier3>
4.8979592

>  <KierA1>
12.824219

>  <KierA2>
6.4775224

>  <KierA3>
3.8156688

>  <KierFlex>
4.6149535

>  <lip_acc>
6

>  <lip_don>
4

>  <lip_druglike>
1

>  <lip_violation>
0

>  <logP(o/w)>
-0.33700001

>  <logS>
-1.12059

>  <mr>
6.7500687

>  <mutagenic>
0

>  <nmol>
1

>  <opr_brigid>
6

>  <opr_leadlike>
1

>  <opr_nring>
1

>  <opr_nrot>
6

>  <opr_violation>
0

>  <PC+>
0

>  <PC->
0

>  <PEOE_PC+>
2.1087527

>  <PEOE_PC->
-2.1087527

>  <PEOE_RPC+>
0.11130761

>  <PEOE_RPC->
0.18273459

>  <PEOE_VSA+0>
65.396179

>  <PEOE_VSA+1>
94.729698

>  <PEOE_VSA+2>
17.238026

>  <PEOE_VSA+3>
8.6190128

>  <PEOE_VSA+4>
23.273705

>  <PEOE_VSA+5>
0

>  <PEOE_VSA+6>
0

>  <PEOE_VSA-0>
36.764713

>  <PEOE_VSA-1>
0

>  <PEOE_VSA-2>
0

>  <PEOE_VSA-3>
0

>  <PEOE_VSA-4>
0

>  <PEOE_VSA-5>
13.566921

>  <PEOE_VSA-6>
19.563063

>  <PEOE_VSA_FHYD>
0.79794586

>  <PEOE_VSA_FNEG>
0.25038284

>  <PEOE_VSA_FPNEG>
0.1186811

>  <PEOE_VSA_FPOL>
0.20205417

>  <PEOE_VSA_FPOS>
0.74961716

>  <PEOE_VSA_FPPOS>
0.083373077

>  <PEOE_VSA_HYD>
222.74762

>  <PEOE_VSA_NEG>
69.894699

>  <PEOE_VSA_PNEG>
33.129982

>  <PEOE_VSA_POL>
56.403687

>  <PEOE_VSA_POS>
209.25662

>  <PEOE_VSA_PPOS>
23.273705

>  <petitjean>
0.5

>  <petitjeanSC>
1

>  <Q_PC+>
0

>  <Q_PC->
0

>  <Q_RPC+>
0

>  <Q_RPC->
0

>  <Q_VSA_FHYD>
1

>  <Q_VSA_FNEG>
0

>  <Q_VSA_FPNEG>
0

>  <Q_VSA_FPOL>
0

>  <Q_VSA_FPOS>
1

>  <Q_VSA_FPPOS>
0

>  <Q_VSA_HYD>
279.15131

>  <Q_VSA_NEG>
0

>  <Q_VSA_PNEG>
0

>  <Q_VSA_POL>
0

>  <Q_VSA_POS>
279.15131

>  <Q_VSA_PPOS>
0

>  <radius>
5

>  <reactive>
0

>  <rings>
1

>  <RPC+>
0

>  <RPC->
0

>  <rsynth>
1

>  <SlogP>
-0.092399999

>  <SlogP_VSA0>
98.292938

>  <SlogP_VSA1>
5.2587838

>  <SlogP_VSA2>
23.862217

>  <SlogP_VSA3>
36.879158

>  <SlogP_VSA4>
3.185575

>  <SlogP_VSA5>
70.767738

>  <SlogP_VSA6>
0

>  <SlogP_VSA7>
52.929554

>  <SlogP_VSA8>
6.4686494

>  <SlogP_VSA9>
10.486856

>  <SMR>
6.6680899

>  <SMR_VSA0>
23.862217

>  <SMR_VSA1>
47.385002

>  <SMR_VSA2>
18.01075

>  <SMR_VSA3>
20.141081

>  <SMR_VSA4>
32.897186

>  <SMR_VSA5>
52.929554

>  <SMR_VSA6>
42.137939

>  <SMR_VSA7>
70.767738

>  <TPSA>
93.809998

>  <VAdjEq>
0.50325835

>  <VAdjMa>
5.1699252

>  <VDistEq>
3.0960958

>  <VDistMa>
8.0422955

>  <vdw_area>
279.15131

>  <vdw_vol>
337.42731

>  <vsa_acc>
18.574432

>  <vsa_acid>
0

>  <vsa_base>
0

>  <vsa_don>
5.6825762

>  <vsa_hyd>
186.92545

>  <vsa_other>
12.949531

>  <vsa_pol>
55.566422

>  <Weight>
254.286

>  <weinerPath>
649

>  <weinerPol>
25

>  <zagreb>
82

$$$$