O1[C@@H]2[C@]34[C@H]([C@H](N(CC3)CC=C)Cc3c4c1c(O)cc3)C=C[C@@H]2O
  MOE2013           2D

 23 27  0  0  1  0  0  0  0  0999 V2000
    0.0000    0.0000    0.0000 O   0  0  0  0  0  0  0  0  0  0  0  0
    1.2820   -1.2230    0.0000 C   0  0  2  0  0  0  0  0  0  0  0  0
    2.3880   -0.3220    0.0000 C   0  0  2  0  0  0  0  0  0  0  0  0
    3.7290   -0.8330    0.0000 C   0  0  2  0  0  0  0  0  0  0  0  0
    4.8470    0.0810    0.0000 C   0  0  2  0  0  0  0  0  0  0  0  0
    6.2870   -0.0450    0.0000 N   0  0  3  0  0  0  0  0  0  0  0  0
    5.3740    1.0680    0.0000 C   0  0  0  0  0  0  0  0  0  0  0  0
    3.2310    0.8670    0.0000 C   0  0  0  0  0  0  0  0  0  0  0  0
    7.6130   -0.7450    0.0000 C   0  0  0  0  0  0  0  0  0  0  0  0
    8.8830    0.0530    0.0000 C   0  0  0  0  0  0  0  0  0  0  0  0
   10.2090   -0.6480    0.0000 C   0  0  0  0  0  0  0  0  0  0  0  0
    4.6060    1.4970    0.0000 C   0  0  0  0  0  0  0  0  0  0  0  0
    3.2590    2.0070    0.0000 C   0  0  0  0  0  0  0  0  0  0  0  0
    2.1520    1.0980    0.0000 C   0  0  0  0  0  0  0  0  0  0  0  0
    0.8120    1.5970    0.0000 C   0  0  0  0  0  0  0  0  0  0  0  0
    0.5810    3.0150    0.0000 C   0  0  0  0  0  0  0  0  0  0  0  0
   -0.8220    3.5450    0.0000 O   0  0  0  0  0  0  0  0  0  0  0  0
    1.6880    3.9230    0.0000 C   0  0  0  0  0  0  0  0  0  0  0  0
    3.0270    3.4130    0.0000 C   0  0  0  0  0  0  0  0  0  0  0  0
    3.9640   -2.2430    0.0000 C   0  0  0  0  0  0  0  0  0  0  0  0
    2.8490   -3.1480    0.0000 C   0  0  0  0  0  0  0  0  0  0  0  0
    1.5080   -2.6380    0.0000 C   0  0  2  0  0  0  0  0  0  0  0  0
    0.3440   -3.5840    0.0000 O   0  0  0  0  0  0  0  0  0  0  0  0
  1 15  1  0  0  0  0
  2  1  1  6  0  0  0
  2  3  1  0  0  0  0
  2 22  1  0  0  0  0
  3  4  1  0  0  0  0
  3  8  1  1  0  0  0
  3 14  1  0  0  0  0
  4  5  1  0  0  0  0
  4 20  1  6  0  0  0
  5  6  1  1  0  0  0
  5 12  1  0  0  0  0
  6  7  1  0  0  0  0
  6  9  1  0  0  0  0
  7  8  1  0  0  0  0
  9 10  1  0  0  0  0
 10 11  2  0  0  0  0
 12 13  1  0  0  0  0
 13 14  1  0  0  0  0
 13 19  2  0  0  0  0
 14 15  2  0  0  0  0
 15 16  1  0  0  0  0
 16 17  1  0  0  0  0
 16 18  2  0  0  0  0
 18 19  1  0  0  0  0
 20 21  2  0  0  0  0
 21 22  1  0  0  0  0
 22 23  1  6  0  0  0
M  END
>  <Index>
745

>  <ID>
HT1458

>  <class>
0

>  <apol>
50.948654

>  <ast_fraglike>
0

>  <ast_fraglike_ext>
0

>  <ast_violation>
2

>  <ast_violation_ext>
2

>  <a_acc>
4

>  <a_acid>
0

>  <a_aro>
6

>  <a_base>
0

>  <a_count>
44

>  <a_don>
2

>  <a_donacc>
6

>  <a_heavy>
23

>  <a_hyd>
19

>  <a_IC>
62.510815

>  <a_ICM>
1.4207003

>  <a_nB>
0

>  <a_nBr>
0

>  <a_nC>
19

>  <a_nCl>
0

>  <a_nF>
0

>  <a_nH>
21

>  <a_nI>
0

>  <a_nN>
1

>  <a_nO>
3

>  <a_nP>
0

>  <a_nS>
0

>  <balabanJ>
1.5893241

>  <BCUT_PEOE_0>
-2.8713644

>  <BCUT_PEOE_1>
-0.64330667

>  <BCUT_PEOE_2>
0.71658224

>  <BCUT_PEOE_3>
2.8843129

>  <BCUT_SLOGP_0>
-2.9353933

>  <BCUT_SLOGP_1>
-0.57611734

>  <BCUT_SLOGP_2>
0.77978903

>  <BCUT_SLOGP_3>
2.8529251

>  <BCUT_SMR_0>
-2.612169

>  <BCUT_SMR_1>
-0.50050926

>  <BCUT_SMR_2>
0.88154769

>  <BCUT_SMR_3>
3.1385677

>  <bpol>
26.853348

>  <b_1rotN>
2

>  <b_1rotR>
0.074074075

>  <b_ar>
6

>  <b_count>
48

>  <b_double>
2

>  <b_heavy>
27

>  <b_max1len>
3

>  <b_rotN>
2

>  <b_rotR>
0.074074075

>  <b_single>
40

>  <b_triple>
0

>  <chi0>
15.76722

>  <chi0v>
12.981575

>  <chi0v_C>
11.231687

>  <chi0_C>
12.482763

>  <chi1>
11.163869

>  <chi1v>
8.398839

>  <chi1v_C>
6.5865521

>  <chi1_C>
8.0428419

>  <chiral>
5

>  <chiral_u>
0

>  <density>
0.73323005

>  <diameter>
10

>  <FCharge>
0

>  <GCUT_PEOE_0>
-0.84960985

>  <GCUT_PEOE_1>
-0.41121733

>  <GCUT_PEOE_2>
0.10113942

>  <GCUT_PEOE_3>
3.1005275

>  <GCUT_SLOGP_0>
-0.96085173

>  <GCUT_SLOGP_1>
-0.33458221

>  <GCUT_SLOGP_2>
0.14409083

>  <GCUT_SLOGP_3>
3.1297095

>  <GCUT_SMR_0>
-0.52151704

>  <GCUT_SMR_1>
-0.2243059

>  <GCUT_SMR_2>
0.21621837

>  <GCUT_SMR_3>
3.3518157

>  <Kier1>
15.270233

>  <Kier2>
5.2471604

>  <Kier3>
1.8483512

>  <KierA1>
12.754778

>  <KierA2>
4.3447609

>  <KierA3>
1.5203913

>  <KierFlex>
2.4094114

>  <lip_acc>
4

>  <lip_don>
2

>  <lip_druglike>
1

>  <lip_violation>
0

>  <logP(o/w)>
1.599

>  <logS>
-2.1435001

>  <mr>
8.5982771

>  <mutagenic>
0

>  <nmol>
1

>  <opr_brigid>
23

>  <opr_leadlike>
1

>  <opr_nring>
5

>  <opr_nrot>
2

>  <opr_violation>
1

>  <PC+>
0

>  <PC->
0

>  <PEOE_PC+>
1.8525153

>  <PEOE_PC->
-1.8525153

>  <PEOE_RPC+>
0.1173657

>  <PEOE_RPC->
0.20790535

>  <PEOE_VSA+0>
72.184471

>  <PEOE_VSA+1>
38.388474

>  <PEOE_VSA+2>
26.726896

>  <PEOE_VSA+3>
0

>  <PEOE_VSA+4>
20.648346

>  <PEOE_VSA+5>
0

>  <PEOE_VSA+6>
0

>  <PEOE_VSA-0>
34.074608

>  <PEOE_VSA-1>
49.019615

>  <PEOE_VSA-2>
22.301268

>  <PEOE_VSA-3>
0

>  <PEOE_VSA-4>
0

>  <PEOE_VSA-5>
0

>  <PEOE_VSA-6>
18.038837

>  <PEOE_VSA_FHYD>
0.86251038

>  <PEOE_VSA_FNEG>
0.43867093

>  <PEOE_VSA_FPNEG>
0.06410788

>  <PEOE_VSA_FPOL>
0.13748965

>  <PEOE_VSA_FPOS>
0.56132907

>  <PEOE_VSA_FPPOS>
0.073381767

>  <PEOE_VSA_HYD>
242.69533

>  <PEOE_VSA_NEG>
123.43433

>  <PEOE_VSA_PNEG>
18.038837

>  <PEOE_VSA_POL>
38.687183

>  <PEOE_VSA_POS>
157.94818

>  <PEOE_VSA_PPOS>
20.648346

>  <petitjean>
0.5

>  <petitjeanSC>
1

>  <Q_PC+>
0

>  <Q_PC->
0

>  <Q_RPC+>
0

>  <Q_RPC->
0

>  <Q_VSA_FHYD>
1

>  <Q_VSA_FNEG>
0

>  <Q_VSA_FPNEG>
0

>  <Q_VSA_FPOL>
0

>  <Q_VSA_FPOS>
1

>  <Q_VSA_FPPOS>
0

>  <Q_VSA_HYD>
281.38251

>  <Q_VSA_NEG>
0

>  <Q_VSA_PNEG>
0

>  <Q_VSA_POL>
0

>  <Q_VSA_POS>
281.38251

>  <Q_VSA_PPOS>
0

>  <radius>
5

>  <reactive>
0

>  <rings>
5

>  <RPC+>
0

>  <RPC->
0

>  <rsynth>
0.043478262

>  <SlogP>
1.75427

>  <SlogP_VSA0>
61.77034

>  <SlogP_VSA1>
3.1243138

>  <SlogP_VSA2>
16.919268

>  <SlogP_VSA3>
36.879158

>  <SlogP_VSA4>
10.781946

>  <SlogP_VSA5>
18.868406

>  <SlogP_VSA6>
0

>  <SlogP_VSA7>
88.215919

>  <SlogP_VSA8>
18.868406

>  <SlogP_VSA9>
42.58765

>  <SMR>
8.6716604

>  <SMR_VSA0>
0

>  <SMR_VSA1>
64.894653

>  <SMR_VSA2>
4.4107962

>  <SMR_VSA3>
33.777275

>  <SMR_VSA4>
0

>  <SMR_VSA5>
125.95274

>  <SMR_VSA6>
36.879158

>  <SMR_VSA7>
32.100792

>  <TPSA>
52.93

>  <VAdjEq>
0.47555268

>  <VAdjMa>
5.7548876

>  <VDistEq>
2.878897

>  <VDistMa>
8.8003178

>  <vdw_area>
281.38251

>  <vdw_vol>
424.67026

>  <vsa_acc>
2.503756

>  <vsa_acid>
0

>  <vsa_base>
0

>  <vsa_don>
0

>  <vsa_hyd>
227.82617

>  <vsa_other>
0

>  <vsa_pol>
29.637598

>  <Weight>
311.38098

>  <weinerPath>
960

>  <weinerPol>
52

>  <zagreb>
140

$$$$