O1[C@H](CO)[C@@H](O)[C@H](O)[C@@H]1n1c2nc(nc(OC)c2nc1)N
  MOE2013           2D

 21 23  0  0  1  0  0  0  0  0999 V2000
    0.0000    0.0000    0.0000 O   0  0  0  0  0  0  0  0  0  0  0  0
   -1.4180   -0.4900    0.0000 C   0  0  2  0  0  0  0  0  0  0  0  0
   -1.8550   -1.9250    0.0000 C   0  0  0  0  0  0  0  0  0  0  0  0
   -0.8300   -3.0210    0.0000 O   0  0  0  0  0  0  0  0  0  0  0  0
   -2.3220    0.7070    0.0000 C   0  0  1  0  0  0  0  0  0  0  0  0
   -3.8220    0.6790    0.0000 O   0  0  0  0  0  0  0  0  0  0  0  0
   -1.4630    1.9370    0.0000 C   0  0  2  0  0  0  0  0  0  0  0  0
   -1.9530    3.3540    0.0000 O   0  0  0  0  0  0  0  0  0  0  0  0
   -0.0280    1.5000    0.0000 C   0  0  2  0  0  0  0  0  0  0  0  0
    1.1690    2.4040    0.0000 N   0  0  0  0  0  0  0  0  0  0  0  0
    2.6040    1.9670    0.0000 C   0  0  0  0  0  0  0  0  0  0  0  0
    3.2390    0.6080    0.0000 N   0  0  0  0  0  0  0  0  0  0  0  0
    4.7340    0.4790    0.0000 C   0  0  0  0  0  0  0  0  0  0  0  0
    5.5930    1.7090    0.0000 N   0  0  0  0  0  0  0  0  0  0  0  0
    4.9570    3.0680    0.0000 C   0  0  0  0  0  0  0  0  0  0  0  0
    5.8160    4.2970    0.0000 O   0  0  0  0  0  0  0  0  0  0  0  0
    7.3110    4.1680    0.0000 C   0  0  0  0  0  0  0  0  0  0  0  0
    3.4630    3.1970    0.0000 C   0  0  0  0  0  0  0  0  0  0  0  0
    2.5590    4.3940    0.0000 N   0  0  0  0  0  0  0  0  0  0  0  0
    1.1410    3.9040    0.0000 C   0  0  0  0  0  0  0  0  0  0  0  0
    5.3690   -0.8800    0.0000 N   0  0  0  0  0  0  0  0  0  0  0  0
  1  2  1  0  0  0  0
  1  9  1  0  0  0  0
  2  3  1  6  0  0  0
  2  5  1  0  0  0  0
  3  4  1  0  0  0  0
  5  6  1  1  0  0  0
  5  7  1  0  0  0  0
  7  8  1  6  0  0  0
  7  9  1  0  0  0  0
  9 10  1  6  0  0  0
 10 11  1  0  0  0  0
 10 20  1  0  0  0  0
 11 12  2  0  0  0  0
 11 18  1  0  0  0  0
 12 13  1  0  0  0  0
 13 14  2  0  0  0  0
 13 21  1  0  0  0  0
 14 15  1  0  0  0  0
 15 16  1  0  0  0  0
 15 18  2  0  0  0  0
 16 17  1  0  0  0  0
 18 19  1  0  0  0  0
 19 20  2  0  0  0  0
M  END
>  <Index>
755

>  <ID>
HT1472

>  <class>
0

>  <apol>
38.871895

>  <ast_fraglike>
0

>  <ast_fraglike_ext>
0

>  <ast_violation>
2

>  <ast_violation_ext>
4

>  <a_acc>
7

>  <a_acid>
0

>  <a_aro>
9

>  <a_base>
0

>  <a_count>
36

>  <a_don>
4

>  <a_donacc>
11

>  <a_heavy>
21

>  <a_hyd>
6

>  <a_IC>
66.240913

>  <a_ICM>
1.8400253

>  <a_nB>
0

>  <a_nBr>
0

>  <a_nC>
11

>  <a_nCl>
0

>  <a_nF>
0

>  <a_nH>
15

>  <a_nI>
0

>  <a_nN>
5

>  <a_nO>
5

>  <a_nP>
0

>  <a_nS>
0

>  <balabanJ>
1.7532932

>  <BCUT_PEOE_0>
-2.5108881

>  <BCUT_PEOE_1>
-0.61541945

>  <BCUT_PEOE_2>
0.75525326

>  <BCUT_PEOE_3>
2.7700331

>  <BCUT_SLOGP_0>
-2.7103467

>  <BCUT_SLOGP_1>
-0.6900838

>  <BCUT_SLOGP_2>
0.55378211

>  <BCUT_SLOGP_3>
2.6373713

>  <BCUT_SMR_0>
-2.319859

>  <BCUT_SMR_1>
-0.48953393

>  <BCUT_SMR_2>
0.84314311

>  <BCUT_SMR_3>
2.9579408

>  <bpol>
25.510105

>  <b_1rotN>
3

>  <b_1rotR>
0.13043478

>  <b_ar>
10

>  <b_count>
38

>  <b_double>
0

>  <b_heavy>
23

>  <b_max1len>
4

>  <b_rotN>
3

>  <b_rotR>
0.13043478

>  <b_single>
28

>  <b_triple>
0

>  <chi0>
15.1459

>  <chi0v>
11.1182

>  <chi0v_C>
6.5938582

>  <chi0_C>
7.0330157

>  <chi1>
10.06208

>  <chi1v>
6.2295632

>  <chi1v_C>
1.9082483

>  <chi1_C>
2.0749149

>  <chiral>
4

>  <chiral_u>
0

>  <density>
0.8670674

>  <diameter>
10

>  <FCharge>
0

>  <GCUT_PEOE_0>
-0.80368233

>  <GCUT_PEOE_1>
-0.45860502

>  <GCUT_PEOE_2>
0.18187982

>  <GCUT_PEOE_3>
2.6098914

>  <GCUT_SLOGP_0>
-1.3352019

>  <GCUT_SLOGP_1>
-0.54456407

>  <GCUT_SLOGP_2>
0.018175805

>  <GCUT_SLOGP_3>
2.5743134

>  <GCUT_SMR_0>
-0.5261178

>  <GCUT_SMR_1>
-0.24463111

>  <GCUT_SMR_2>
0.24053037

>  <GCUT_SMR_3>
2.8369083

>  <Kier1>
15.879017

>  <Kier2>
6.2456746

>  <Kier3>
2.6988754

>  <KierA1>
12.616021

>  <KierA2>
4.9010596

>  <KierA3>
2.0977197

>  <KierFlex>
2.9443748

>  <lip_acc>
10

>  <lip_don>
5

>  <lip_druglike>
1

>  <lip_violation>
0

>  <logP(o/w)>
-1.99594

>  <logS>
-1.6148

>  <mr>
6.9051909

>  <mutagenic>
1

>  <nmol>
1

>  <opr_brigid>
15

>  <opr_leadlike>
1

>  <opr_nring>
3

>  <opr_nrot>
4

>  <opr_violation>
1

>  <PC+>
0

>  <PC->
0

>  <PEOE_PC+>
3.0137918

>  <PEOE_PC->
-3.0137918

>  <PEOE_RPC+>
0.069708437

>  <PEOE_RPC->
0.13019028

>  <PEOE_VSA+0>
24.997658

>  <PEOE_VSA+1>
53.339767

>  <PEOE_VSA+2>
57.455124

>  <PEOE_VSA+3>
27.286055

>  <PEOE_VSA+4>
59.603622

>  <PEOE_VSA+5>
0

>  <PEOE_VSA+6>
0

>  <PEOE_VSA-0>
0

>  <PEOE_VSA-1>
0

>  <PEOE_VSA-2>
0

>  <PEOE_VSA-3>
11.365152

>  <PEOE_VSA-4>
5.6825762

>  <PEOE_VSA-5>
6.6511192

>  <PEOE_VSA-6>
28.310133

>  <PEOE_VSA_FHYD>
0.63505399

>  <PEOE_VSA_FNEG>
0.18933617

>  <PEOE_VSA_FPNEG>
0.14796188

>  <PEOE_VSA_FPOL>
0.36494598

>  <PEOE_VSA_FPOS>
0.81066382

>  <PEOE_VSA_FPPOS>
0.21698409

>  <PEOE_VSA_HYD>
174.44376

>  <PEOE_VSA_NEG>
52.00898

>  <PEOE_VSA_PNEG>
40.643829

>  <PEOE_VSA_POL>
100.24745

>  <PEOE_VSA_POS>
222.68222

>  <PEOE_VSA_PPOS>
59.603622

>  <petitjean>
0.5

>  <petitjeanSC>
1

>  <Q_PC+>
0

>  <Q_PC->
0

>  <Q_RPC+>
0

>  <Q_RPC->
0

>  <Q_VSA_FHYD>
1

>  <Q_VSA_FNEG>
0

>  <Q_VSA_FPNEG>
0

>  <Q_VSA_FPOL>
0

>  <Q_VSA_FPOS>
1

>  <Q_VSA_FPPOS>
0

>  <Q_VSA_HYD>
274.69122

>  <Q_VSA_NEG>
0

>  <Q_VSA_PNEG>
0

>  <Q_VSA_POL>
0

>  <Q_VSA_POS>
274.69122

>  <Q_VSA_PPOS>
0

>  <radius>
5

>  <reactive>
0

>  <rings>
3

>  <RPC+>
0

>  <RPC->
0

>  <rsynth>
1

>  <SlogP>
-1.8759

>  <SlogP_VSA0>
120.05276

>  <SlogP_VSA1>
52.25568

>  <SlogP_VSA2>
30.405836

>  <SlogP_VSA3>
20.926258

>  <SlogP_VSA4>
0

>  <SlogP_VSA5>
35.383869

>  <SlogP_VSA6>
0

>  <SlogP_VSA7>
20.644976

>  <SlogP_VSA8>
6.0398216

>  <SlogP_VSA9>
6.7136936

>  <SMR>
6.9407802

>  <SMR_VSA0>
10.999887

>  <SMR_VSA1>
139.41125

>  <SMR_VSA2>
0

>  <SMR_VSA3>
30.26037

>  <SMR_VSA4>
5.7585392

>  <SMR_VSA5>
49.682716

>  <SMR_VSA6>
20.926258

>  <SMR_VSA7>
35.383869

>  <TPSA>
148.77

>  <VAdjEq>
0.48250595

>  <VAdjMa>
5.523562

>  <VDistEq>
3.0420332

>  <VDistMa>
8.5093269

>  <vdw_area>
274.69122

>  <vdw_vol>
342.84647

>  <vsa_acc>
19.551485

>  <vsa_acid>
0

>  <vsa_base>
0

>  <vsa_don>
17.742489

>  <vsa_hyd>
89.792015

>  <vsa_other>
80.065475

>  <vsa_pol>
77.994736

>  <Weight>
297.271

>  <weinerPath>
866

>  <weinerPol>
36

>  <zagreb>
114

$$$$