OCCN(CC(=O)N(C(Cc1ccccc1)(C)C)C)CC(=O)N(C(Cc1ccccc1)(C)C)C
  MOE2013           2D

 34 35  0  0  0  0  0  0  0  0999 V2000
    0.0000    0.0000    0.0000 O   0  0  0  0  0  0  0  0  0  0  0  0
   -0.7460   -1.3010    0.0000 C   0  0  0  0  0  0  0  0  0  0  0  0
    0.0080   -2.5980    0.0000 C   0  0  0  0  0  0  0  0  0  0  0  0
   -0.7380   -3.8990    0.0000 N   0  0  0  0  0  0  0  0  0  0  0  0
   -2.2380   -3.9040    0.0000 C   0  0  0  0  0  0  0  0  0  0  0  0
   -2.9920   -2.6070    0.0000 C   0  0  0  0  0  0  0  0  0  0  0  0
   -2.2460   -1.3060    0.0000 O   0  0  0  0  0  0  0  0  0  0  0  0
   -4.4920   -2.6110    0.0000 N   0  0  0  0  0  0  0  0  0  0  0  0
   -5.2380   -3.9130    0.0000 C   0  0  0  0  0  0  0  0  0  0  0  0
   -6.5400   -3.1660    0.0000 C   0  0  0  0  0  0  0  0  0  0  0  0
   -7.8370   -3.9200    0.0000 C   0  0  0  0  0  0  0  0  0  0  0  0
   -9.1380   -3.1740    0.0000 C   0  0  0  0  0  0  0  0  0  0  0  0
  -10.4350   -3.9280    0.0000 C   0  0  0  0  0  0  0  0  0  0  0  0
  -10.4300   -5.4280    0.0000 C   0  0  0  0  0  0  0  0  0  0  0  0
   -9.1290   -6.1740    0.0000 C   0  0  0  0  0  0  0  0  0  0  0  0
   -7.8320   -5.4200    0.0000 C   0  0  0  0  0  0  0  0  0  0  0  0
   -3.9370   -4.6590    0.0000 C   0  0  0  0  0  0  0  0  0  0  0  0
   -5.9850   -5.2140    0.0000 C   0  0  0  0  0  0  0  0  0  0  0  0
   -5.2460   -1.3150    0.0000 C   0  0  0  0  0  0  0  0  0  0  0  0
    0.0150   -5.1960    0.0000 C   0  0  0  0  0  0  0  0  0  0  0  0
    1.5150   -5.1920    0.0000 C   0  0  0  0  0  0  0  0  0  0  0  0
    2.2620   -3.8900    0.0000 O   0  0  0  0  0  0  0  0  0  0  0  0
    2.2690   -6.4890    0.0000 N   0  0  0  0  0  0  0  0  0  0  0  0
    3.7690   -6.4840    0.0000 C   0  0  0  0  0  0  0  0  0  0  0  0
    3.7740   -7.9840    0.0000 C   0  0  0  0  0  0  0  0  0  0  0  0
    5.0750   -8.7300    0.0000 C   0  0  0  0  0  0  0  0  0  0  0  0
    6.3720   -7.9760    0.0000 C   0  0  0  0  0  0  0  0  0  0  0  0
    7.6730   -8.7230    0.0000 C   0  0  0  0  0  0  0  0  0  0  0  0
    7.6770  -10.2230    0.0000 C   0  0  0  0  0  0  0  0  0  0  0  0
    6.3810  -10.9760    0.0000 C   0  0  0  0  0  0  0  0  0  0  0  0
    5.0790  -10.2300    0.0000 C   0  0  0  0  0  0  0  0  0  0  0  0
    3.7650   -4.9840    0.0000 C   0  0  0  0  0  0  0  0  0  0  0  0
    5.2690   -6.4800    0.0000 C   0  0  0  0  0  0  0  0  0  0  0  0
    1.5230   -7.7900    0.0000 C   0  0  0  0  0  0  0  0  0  0  0  0
  1  2  1  0  0  0  0
  2  3  1  0  0  0  0
  3  4  1  0  0  0  0
  4  5  1  0  0  0  0
  4 20  1  0  0  0  0
  5  6  1  0  0  0  0
  6  7  2  0  0  0  0
  6  8  1  0  0  0  0
  8  9  1  0  0  0  0
  8 19  1  0  0  0  0
  9 10  1  0  0  0  0
  9 17  1  0  0  0  0
  9 18  1  0  0  0  0
 10 11  1  0  0  0  0
 11 12  1  0  0  0  0
 11 16  2  0  0  0  0
 12 13  2  0  0  0  0
 13 14  1  0  0  0  0
 14 15  2  0  0  0  0
 15 16  1  0  0  0  0
 20 21  1  0  0  0  0
 21 22  2  0  0  0  0
 21 23  1  0  0  0  0
 23 24  1  0  0  0  0
 23 34  1  0  0  0  0
 24 25  1  0  0  0  0
 24 32  1  0  0  0  0
 24 33  1  0  0  0  0
 25 26  1  0  0  0  0
 26 27  1  0  0  0  0
 26 31  2  0  0  0  0
 27 28  2  0  0  0  0
 28 29  1  0  0  0  0
 29 30  2  0  0  0  0
 30 31  1  0  0  0  0
M  END
>  <Index>
798

>  <ID>
HT1558

>  <class>
0

>  <apol>
82.324516

>  <ast_fraglike>
0

>  <ast_fraglike_ext>
0

>  <ast_violation>
3

>  <ast_violation_ext>
4

>  <a_acc>
4

>  <a_acid>
0

>  <a_aro>
12

>  <a_base>
0

>  <a_count>
75

>  <a_don>
1

>  <a_donacc>
5

>  <a_heavy>
34

>  <a_hyd>
26

>  <a_IC>
103.38605

>  <a_ICM>
1.3784808

>  <a_nB>
0

>  <a_nBr>
0

>  <a_nC>
28

>  <a_nCl>
0

>  <a_nF>
0

>  <a_nH>
41

>  <a_nI>
0

>  <a_nN>
3

>  <a_nO>
3

>  <a_nP>
0

>  <a_nS>
0

>  <balabanJ>
1.9129752

>  <BCUT_PEOE_0>
-2.7258866

>  <BCUT_PEOE_1>
-0.48416823

>  <BCUT_PEOE_2>
0.37782121

>  <BCUT_PEOE_3>
2.6745429

>  <BCUT_SLOGP_0>
-2.8310077

>  <BCUT_SLOGP_1>
-0.42315954

>  <BCUT_SLOGP_2>
0.34394115

>  <BCUT_SLOGP_3>
2.6411219

>  <BCUT_SMR_0>
-2.4528368

>  <BCUT_SMR_1>
-0.27234742

>  <BCUT_SMR_2>
0.56751621

>  <BCUT_SMR_3>
2.9415431

>  <bpol>
52.677486

>  <b_1rotN>
14

>  <b_1rotR>
0.40000001

>  <b_ar>
12

>  <b_count>
76

>  <b_double>
2

>  <b_heavy>
35

>  <b_max1len>
6

>  <b_rotN>
14

>  <b_rotR>
0.40000001

>  <b_single>
62

>  <b_triple>
0

>  <chi0>
25.35516

>  <chi0v>
21.621494

>  <chi0v_C>
19.016144

>  <chi0_C>
20.62311

>  <chi1>
15.958363

>  <chi1v>
11.904701

>  <chi1v_C>
8.442688

>  <chi1_C>
10.473093

>  <chiral>
0

>  <chiral_u>
0

>  <density>
0.66874665

>  <diameter>
18

>  <FCharge>
0

>  <GCUT_PEOE_0>
-0.85162669

>  <GCUT_PEOE_1>
-0.35598522

>  <GCUT_PEOE_2>
-0.049095929

>  <GCUT_PEOE_3>
2.9543035

>  <GCUT_SLOGP_0>
-0.97953701

>  <GCUT_SLOGP_1>
-0.26386139

>  <GCUT_SLOGP_2>
-0.024808964

>  <GCUT_SLOGP_3>
2.9387124

>  <GCUT_SMR_0>
-0.52729803

>  <GCUT_SMR_1>
-0.1924507

>  <GCUT_SMR_2>
0.10009324

>  <GCUT_SMR_3>
3.1968904

>  <Kier1>
30.225306

>  <Kier2>
14.074136

>  <Kier3>
9.7703905

>  <KierA1>
23.920713

>  <KierA2>
11.054821

>  <KierA3>
7.6337719

>  <KierFlex>
7.7776241

>  <lip_acc>
6

>  <lip_don>
1

>  <lip_druglike>
1

>  <lip_violation>
0

>  <logP(o/w)>
3.6110001

>  <logS>
-4.3866301

>  <mr>
13.8697

>  <mutagenic>
0

>  <nmol>
1

>  <opr_brigid>
12

>  <opr_leadlike>
0

>  <opr_nring>
2

>  <opr_nrot>
12

>  <opr_violation>
2

>  <PC+>
0

>  <PC->
0

>  <PEOE_PC+>
2.7670696

>  <PEOE_PC->
-2.7670696

>  <PEOE_RPC+>
0.085930452

>  <PEOE_RPC->
0.14229743

>  <PEOE_VSA+0>
162.03897

>  <PEOE_VSA+1>
109.58212

>  <PEOE_VSA+2>
0

>  <PEOE_VSA+3>
0

>  <PEOE_VSA+4>
36.223236

>  <PEOE_VSA+5>
0

>  <PEOE_VSA+6>
0

>  <PEOE_VSA-0>
96.810417

>  <PEOE_VSA-1>
122.54904

>  <PEOE_VSA-2>
0

>  <PEOE_VSA-3>
0

>  <PEOE_VSA-4>
0

>  <PEOE_VSA-5>
27.133842

>  <PEOE_VSA-6>
7.7675405

>  <PEOE_VSA_FHYD>
0.87346745

>  <PEOE_VSA_FNEG>
0.45233679

>  <PEOE_VSA_FPNEG>
0.062090486

>  <PEOE_VSA_FPOL>
0.12653258

>  <PEOE_VSA_FPOS>
0.54766321

>  <PEOE_VSA_FPPOS>
0.064442098

>  <PEOE_VSA_HYD>
490.98053

>  <PEOE_VSA_NEG>
254.26083

>  <PEOE_VSA_PNEG>
34.901382

>  <PEOE_VSA_POL>
71.124619

>  <PEOE_VSA_POS>
307.84433

>  <PEOE_VSA_PPOS>
36.223236

>  <petitjean>
0.5

>  <petitjeanSC>
1

>  <Q_PC+>
0

>  <Q_PC->
0

>  <Q_RPC+>
0

>  <Q_RPC->
0

>  <Q_VSA_FHYD>
1

>  <Q_VSA_FNEG>
0

>  <Q_VSA_FPNEG>
0

>  <Q_VSA_FPOL>
0

>  <Q_VSA_FPOS>
1

>  <Q_VSA_FPPOS>
0

>  <Q_VSA_HYD>
562.10516

>  <Q_VSA_NEG>
0

>  <Q_VSA_PNEG>
0

>  <Q_VSA_POL>
0

>  <Q_VSA_POS>
562.10516

>  <Q_VSA_PPOS>
0

>  <radius>
9

>  <reactive>
0

>  <rings>
2

>  <RPC+>
0

>  <RPC->
0

>  <rsynth>
1

>  <SlogP>
3.2400401

>  <SlogP_VSA0>
25.385227

>  <SlogP_VSA1>
19.890509

>  <SlogP_VSA2>
47.724434

>  <SlogP_VSA3>
76.244995

>  <SlogP_VSA4>
6.37115

>  <SlogP_VSA5>
103.53119

>  <SlogP_VSA6>
0

>  <SlogP_VSA7>
176.43184

>  <SlogP_VSA8>
0

>  <SlogP_VSA9>
133.30406

>  <SMR>
13.75158

>  <SMR_VSA0>
47.724434

>  <SMR_VSA1>
34.758167

>  <SMR_VSA2>
0

>  <SMR_VSA3>
6.37115

>  <SMR_VSA4>
0

>  <SMR_VSA5>
214.16866

>  <SMR_VSA6>
86.762558

>  <SMR_VSA7>
199.09843

>  <TPSA>
64.089996

>  <VAdjEq>
0.32963872

>  <VAdjMa>
6.129283

>  <VDistEq>
3.8948557

>  <VDistMa>
9.8809776

>  <vdw_area>
562.10516

>  <vdw_vol>
699.29919

>  <vsa_acc>
27.133842

>  <vsa_acid>
0

>  <vsa_base>
0

>  <vsa_don>
0

>  <vsa_hyd>
462.50873

>  <vsa_other>
25.899061

>  <vsa_pol>
40.700764

>  <Weight>
467.65399

>  <weinerPath>
3864

>  <weinerPol>
51

>  <zagreb>
168

$$$$