FC(F)(F)c1cc([N+](=O)[O-])c(cc1)C(=O)C1C(=O)CCCC1=O
  MOE2013           2D

 23 24  0  0  0  0  0  0  0  0999 V2000
    0.0000    0.0000    0.0000 F   0  0  0  0  0  0  0  0  0  0  0  0
    0.7390   -1.3050    0.0000 C   0  0  0  0  0  0  0  0  0  0  0  0
    1.4780   -2.6110    0.0000 F   0  0  0  0  0  0  0  0  0  0  0  0
    2.0440   -0.5670    0.0000 F   0  0  0  0  0  0  0  0  0  0  0  0
   -0.5670   -2.0440    0.0000 C   0  0  0  0  0  0  0  0  0  0  0  0
   -0.5790   -3.5440    0.0000 C   0  0  0  0  0  0  0  0  0  0  0  0
   -1.8850   -4.2830    0.0000 C   0  0  0  0  0  0  0  0  0  0  0  0
   -1.8980   -5.7830    0.0000 N   0  3  0  0  0  0  0  0  0  0  0  0
   -0.6050   -6.5440    0.0000 O   0  0  0  0  0  0  0  0  0  0  0  0
   -3.2030   -6.5220    0.0000 O   0  5  0  0  0  0  0  0  0  0  0  0
   -3.1770   -3.5220    0.0000 C   0  0  0  0  0  0  0  0  0  0  0  0
   -3.1650   -2.0220    0.0000 C   0  0  0  0  0  0  0  0  0  0  0  0
   -1.8590   -1.2830    0.0000 C   0  0  0  0  0  0  0  0  0  0  0  0
   -4.4830   -4.2610    0.0000 C   0  0  0  0  0  0  0  0  0  0  0  0
   -4.4960   -5.7610    0.0000 O   0  0  0  0  0  0  0  0  0  0  0  0
   -5.7750   -3.5000    0.0000 C   0  0  0  0  0  0  0  0  0  0  0  0
   -7.0810   -4.2390    0.0000 C   0  0  0  0  0  0  0  0  0  0  0  0
   -7.0940   -5.7390    0.0000 O   0  0  0  0  0  0  0  0  0  0  0  0
   -8.3730   -3.4780    0.0000 C   0  0  0  0  0  0  0  0  0  0  0  0
   -8.3600   -1.9780    0.0000 C   0  0  0  0  0  0  0  0  0  0  0  0
   -7.0550   -1.2390    0.0000 C   0  0  0  0  0  0  0  0  0  0  0  0
   -5.7630   -2.0000    0.0000 C   0  0  0  0  0  0  0  0  0  0  0  0
   -4.4570   -1.2610    0.0000 O   0  0  0  0  0  0  0  0  0  0  0  0
  1  2  1  0  0  0  0
  2  3  1  0  0  0  0
  2  4  1  0  0  0  0
  2  5  1  0  0  0  0
  5  6  1  0  0  0  0
  5 13  2  0  0  0  0
  6  7  2  0  0  0  0
  7  8  1  0  0  0  0
  7 11  1  0  0  0  0
  8  9  2  0  0  0  0
  8 10  1  0  0  0  0
 11 12  2  0  0  0  0
 11 14  1  0  0  0  0
 12 13  1  0  0  0  0
 14 15  2  0  0  0  0
 14 16  1  0  0  0  0
 16 17  1  0  0  0  0
 16 22  1  0  0  0  0
 17 18  2  0  0  0  0
 17 19  1  0  0  0  0
 19 20  1  0  0  0  0
 20 21  1  0  0  0  0
 21 22  1  0  0  0  0
 22 23  2  0  0  0  0
M  CHG  1   8   1
M  CHG  1  10  -1
M  END
>  <Index>
773

>  <ID>
HT1501

>  <class>
0

>  <apol>
38.088928

>  <ast_fraglike>
0

>  <ast_fraglike_ext>
0

>  <ast_violation>
2

>  <ast_violation_ext>
3

>  <a_acc>
3

>  <a_acid>
0

>  <a_aro>
6

>  <a_base>
0

>  <a_count>
33

>  <a_don>
0

>  <a_donacc>
3

>  <a_heavy>
23

>  <a_hyd>
15

>  <a_IC>
63.578228

>  <a_ICM>
1.926613

>  <a_nB>
0

>  <a_nBr>
0

>  <a_nC>
14

>  <a_nCl>
0

>  <a_nF>
3

>  <a_nH>
10

>  <a_nI>
0

>  <a_nN>
1

>  <a_nO>
5

>  <a_nP>
0

>  <a_nS>
0

>  <balabanJ>
2.1432216

>  <BCUT_PEOE_0>
-2.5816846

>  <BCUT_PEOE_1>
-0.53863013

>  <BCUT_PEOE_2>
0.38873899

>  <BCUT_PEOE_3>
2.6810722

>  <BCUT_SLOGP_0>
-2.6236606

>  <BCUT_SLOGP_1>
-0.46009177

>  <BCUT_SLOGP_2>
0.42230701

>  <BCUT_SLOGP_3>
2.6731031

>  <BCUT_SMR_0>
-2.3541

>  <BCUT_SMR_1>
-0.30501404

>  <BCUT_SMR_2>
0.61775392

>  <BCUT_SMR_3>
2.9141572

>  <bpol>
18.67107

>  <b_1rotN>
3

>  <b_1rotR>
0.125

>  <b_ar>
6

>  <b_count>
34

>  <b_double>
4

>  <b_heavy>
24

>  <b_max1len>
2

>  <b_rotN>
4

>  <b_rotR>
0.16666667

>  <b_single>
24

>  <b_triple>
0

>  <chi0>
17.361443

>  <chi0v>
11.55307

>  <chi0v_C>
7.9307213

>  <chi0_C>
8.7840929

>  <chi1>
10.624916

>  <chi1v>
6.5792403

>  <chi1v_C>
4.8111663

>  <chi1_C>
5.9048314

>  <chiral>
0

>  <chiral_u>
0

>  <density>
0.94804502

>  <diameter>
10

>  <FCharge>
0

>  <GCUT_PEOE_0>
-0.74825042

>  <GCUT_PEOE_1>
-0.43652573

>  <GCUT_PEOE_2>
0.00066374568

>  <GCUT_PEOE_3>
2.5631828

>  <GCUT_SLOGP_0>
-0.86601734

>  <GCUT_SLOGP_1>
-0.326116

>  <GCUT_SLOGP_2>
0.20909131

>  <GCUT_SLOGP_3>
2.5783048

>  <GCUT_SMR_0>
-0.51562476

>  <GCUT_SMR_1>
-0.21974868

>  <GCUT_SMR_2>
0.20483923

>  <GCUT_SMR_3>
2.7899129

>  <Kier1>
19.326389

>  <Kier2>
7.4861112

>  <Kier3>
4.3456788

>  <KierA1>
14.164451

>  <KierA2>
5.4027681

>  <KierA3>
3.0997722

>  <KierFlex>
3.3272715

>  <lip_acc>
6

>  <lip_don>
0

>  <lip_druglike>
1

>  <lip_violation>
0

>  <logP(o/w)>
1.85876

>  <logS>
-4.0702

>  <mr>
7.1726336

>  <mutagenic>
0

>  <nmol>
1

>  <opr_brigid>
12

>  <opr_leadlike>
1

>  <opr_nring>
2

>  <opr_nrot>
5

>  <opr_violation>
0

>  <PC+>
0

>  <PC->
0

>  <PEOE_PC+>
2.0301745

>  <PEOE_PC->
-2.0301745

>  <PEOE_RPC+>
0.20571196

>  <PEOE_RPC->
0.14590037

>  <PEOE_VSA+0>
55.249847

>  <PEOE_VSA+1>
25.506657

>  <PEOE_VSA+2>
0

>  <PEOE_VSA+3>
25.375559

>  <PEOE_VSA+4>
0

>  <PEOE_VSA+5>
6.6995511

>  <PEOE_VSA+6>
9.0455017

>  <PEOE_VSA-0>
33.211121

>  <PEOE_VSA-1>
0

>  <PEOE_VSA-2>
0

>  <PEOE_VSA-3>
35.725906

>  <PEOE_VSA-4>
0

>  <PEOE_VSA-5>
74.631813

>  <PEOE_VSA-6>
0

>  <PEOE_VSA_FHYD>
0.6595282

>  <PEOE_VSA_FNEG>
0.54085904

>  <PEOE_VSA_FPNEG>
0.28115633

>  <PEOE_VSA_FPOL>
0.3404718

>  <PEOE_VSA_FPOS>
0.45914099

>  <PEOE_VSA_FPPOS>
0.059315477

>  <PEOE_VSA_HYD>
175.06909

>  <PEOE_VSA_NEG>
143.56883

>  <PEOE_VSA_PNEG>
74.631813

>  <PEOE_VSA_POL>
90.376862

>  <PEOE_VSA_POS>
121.87711

>  <PEOE_VSA_PPOS>
15.745053

>  <petitjean>
0.5

>  <petitjeanSC>
1

>  <Q_PC+>
0

>  <Q_PC->
0

>  <Q_RPC+>
0

>  <Q_RPC->
0

>  <Q_VSA_FHYD>
1

>  <Q_VSA_FNEG>
0

>  <Q_VSA_FPNEG>
0

>  <Q_VSA_FPOL>
0

>  <Q_VSA_FPOS>
1

>  <Q_VSA_FPPOS>
0

>  <Q_VSA_HYD>
265.44595

>  <Q_VSA_NEG>
0

>  <Q_VSA_PNEG>
0

>  <Q_VSA_POL>
0

>  <Q_VSA_POS>
265.44595

>  <Q_VSA_PPOS>
0

>  <radius>
5

>  <reactive>
1

>  <rings>
2

>  <RPC+>
0

>  <RPC->
0

>  <rsynth>
1

>  <SlogP>
3.0460999

>  <SlogP_VSA0>
0

>  <SlogP_VSA1>
24.148449

>  <SlogP_VSA2>
47.724434

>  <SlogP_VSA3>
50.935009

>  <SlogP_VSA4>
34.644161

>  <SlogP_VSA5>
0

>  <SlogP_VSA6>
7.7595162

>  <SlogP_VSA7>
52.929554

>  <SlogP_VSA8>
56.605217

>  <SlogP_VSA9>
47.637089

>  <SMR>
6.9900899

>  <SMR_VSA0>
78.672264

>  <SMR_VSA1>
44.880341

>  <SMR_VSA2>
63.10532

>  <SMR_VSA3>
6.37115

>  <SMR_VSA4>
2.7567475

>  <SMR_VSA5>
109.53477

>  <SMR_VSA6>
17.062834

>  <SMR_VSA7>
0

>  <TPSA>
97.029999

>  <VAdjEq>
0.43892586

>  <VAdjMa>
5.5849624

>  <VDistEq>
3.1341333

>  <VDistMa>
8.781497

>  <vdw_area>
265.44595

>  <vdw_vol>
347.27252

>  <vsa_acc>
40.700764

>  <vsa_acid>
0

>  <vsa_base>
0

>  <vsa_don>
0

>  <vsa_hyd>
156.97559

>  <vsa_other>
59.306606

>  <vsa_pol>
40.700764

>  <Weight>
329.22998

>  <weinerPath>
1128

>  <weinerPol>
39

>  <zagreb>
120

$$$$