N1CCN=C1Cc1c2c(ccc1)cccc2
  MOE2013           2D

 16 18  0  0  0  0  0  0  0  0999 V2000
    0.0000    0.0000    0.0000 N   0  0  0  0  0  0  0  0  0  0  0  0
    1.0260    1.0940    0.0000 C   0  0  0  0  0  0  0  0  0  0  0  0
    0.3030    2.4080    0.0000 C   0  0  0  0  0  0  0  0  0  0  0  0
   -1.1700    2.1260    0.0000 N   0  0  0  0  0  0  0  0  0  0  0  0
   -1.3570    0.6380    0.0000 C   0  0  0  0  0  0  0  0  0  0  0  0
   -2.6720   -0.0850    0.0000 C   0  0  0  0  0  0  0  0  0  0  0  0
   -3.9550    0.6920    0.0000 C   0  0  0  0  0  0  0  0  0  0  0  0
   -5.2690   -0.0310    0.0000 C   0  0  0  0  0  0  0  0  0  0  0  0
   -6.5520    0.7450    0.0000 C   0  0  0  0  0  0  0  0  0  0  0  0
   -6.5220    2.2450    0.0000 C   0  0  0  0  0  0  0  0  0  0  0  0
   -5.2070    2.9680    0.0000 C   0  0  0  0  0  0  0  0  0  0  0  0
   -3.9240    2.1920    0.0000 C   0  0  0  0  0  0  0  0  0  0  0  0
   -7.8670    0.0220    0.0000 C   0  0  0  0  0  0  0  0  0  0  0  0
   -7.8980   -1.4770    0.0000 C   0  0  0  0  0  0  0  0  0  0  0  0
   -6.6140   -2.2540    0.0000 C   0  0  0  0  0  0  0  0  0  0  0  0
   -5.3000   -1.5310    0.0000 C   0  0  0  0  0  0  0  0  0  0  0  0
  1  2  1  0  0  0  0
  1  5  1  0  0  0  0
  2  3  1  0  0  0  0
  3  4  1  0  0  0  0
  4  5  2  0  0  0  0
  5  6  1  0  0  0  0
  6  7  1  0  0  0  0
  7  8  1  0  0  0  0
  7 12  2  0  0  0  0
  8  9  1  0  0  0  0
  8 16  2  0  0  0  0
  9 10  1  0  0  0  0
  9 13  2  0  0  0  0
 10 11  2  0  0  0  0
 11 12  1  0  0  0  0
 13 14  1  0  0  0  0
 14 15  2  0  0  0  0
 15 16  1  0  0  0  0
M  END
>  <Index>
748

>  <ID>
HT1463

>  <class>
0

>  <apol>
36.175102

>  <ast_fraglike>
1

>  <ast_fraglike_ext>
1

>  <ast_violation>
0

>  <ast_violation_ext>
0

>  <a_acc>
1

>  <a_acid>
0

>  <a_aro>
10

>  <a_base>
0

>  <a_count>
30

>  <a_don>
1

>  <a_donacc>
2

>  <a_heavy>
16

>  <a_hyd>
13

>  <a_IC>
38.60078

>  <a_ICM>
1.2866926

>  <a_nB>
0

>  <a_nBr>
0

>  <a_nC>
14

>  <a_nCl>
0

>  <a_nF>
0

>  <a_nH>
14

>  <a_nI>
0

>  <a_nN>
2

>  <a_nO>
0

>  <a_nP>
0

>  <a_nS>
0

>  <balabanJ>
1.6011831

>  <BCUT_PEOE_0>
-2.4168534

>  <BCUT_PEOE_1>
-0.57498336

>  <BCUT_PEOE_2>
0.63030183

>  <BCUT_PEOE_3>
2.5005205

>  <BCUT_SLOGP_0>
-2.614922

>  <BCUT_SLOGP_1>
-0.46732554

>  <BCUT_SLOGP_2>
0.7357403

>  <BCUT_SLOGP_3>
2.4443824

>  <BCUT_SMR_0>
-2.1385624

>  <BCUT_SMR_1>
-0.4320229

>  <BCUT_SMR_2>
0.78270048

>  <BCUT_SMR_3>
2.7919765

>  <bpol>
17.284899

>  <b_1rotN>
2

>  <b_1rotR>
0.11111111

>  <b_ar>
11

>  <b_count>
32

>  <b_double>
1

>  <b_heavy>
18

>  <b_max1len>
2

>  <b_rotN>
2

>  <b_rotR>
0.11111111

>  <b_single>
20

>  <b_triple>
0

>  <chi0>
10.794683

>  <chi0v>
9.1099854

>  <chi0v_C>
8.1627722

>  <chi0_C>
9.3804693

>  <chi1>
7.932653

>  <chi1v>
5.6718621

>  <chi1v_C>
4.5284739

>  <chi1_C>
6.1161566

>  <chiral>
0

>  <chiral_u>
0

>  <density>
0.67734623

>  <diameter>
8

>  <FCharge>
0

>  <GCUT_PEOE_0>
-0.8631413

>  <GCUT_PEOE_1>
-0.40743759

>  <GCUT_PEOE_2>
0.068663463

>  <GCUT_PEOE_3>
2.434516

>  <GCUT_SLOGP_0>
-1.1663693

>  <GCUT_SLOGP_1>
-0.31079814

>  <GCUT_SLOGP_2>
0.15201937

>  <GCUT_SLOGP_3>
2.5464566

>  <GCUT_SMR_0>
-0.504839

>  <GCUT_SMR_1>
-0.19135475

>  <GCUT_SMR_2>
0.17859659

>  <GCUT_SMR_3>
2.7501428

>  <Kier1>
11.111111

>  <Kier2>
5.1041665

>  <Kier3>
2.4882812

>  <KierA1>
7.6874018

>  <KierA2>
3.4355025

>  <KierA3>
1.6403356

>  <KierFlex>
1.6506305

>  <lip_acc>
2

>  <lip_don>
1

>  <lip_druglike>
1

>  <lip_violation>
0

>  <logP(o/w)>
2.5450001

>  <logS>
-3.7139699

>  <mr>
6.5701494

>  <mutagenic>
0

>  <nmol>
1

>  <opr_brigid>
16

>  <opr_leadlike>
1

>  <opr_nring>
3

>  <opr_nrot>
2

>  <opr_violation>
0

>  <PC+>
0

>  <PC->
0

>  <PEOE_PC+>
1.1075678

>  <PEOE_PC->
-1.1075678

>  <PEOE_RPC+>
0.14518553

>  <PEOE_RPC->
0.33524314

>  <PEOE_VSA+0>
30.42441

>  <PEOE_VSA+1>
60.111572

>  <PEOE_VSA+2>
11.190562

>  <PEOE_VSA+3>
8.6190128

>  <PEOE_VSA+4>
0

>  <PEOE_VSA+5>
0

>  <PEOE_VSA+6>
0

>  <PEOE_VSA-0>
6.6256189

>  <PEOE_VSA-1>
85.784325

>  <PEOE_VSA-2>
0

>  <PEOE_VSA-3>
0

>  <PEOE_VSA-4>
0

>  <PEOE_VSA-5>
5.6825762

>  <PEOE_VSA-6>
0.13689101

>  <PEOE_VSA_FHYD>
0.97209895

>  <PEOE_VSA_FNEG>
0.47095495

>  <PEOE_VSA_FPNEG>
0.027901081

>  <PEOE_VSA_FPOL>
0.027901081

>  <PEOE_VSA_FPOS>
0.52904505

>  <PEOE_VSA_FPPOS>
0

>  <PEOE_VSA_HYD>
202.75551

>  <PEOE_VSA_NEG>
98.229416

>  <PEOE_VSA_PNEG>
5.8194671

>  <PEOE_VSA_POL>
5.8194671

>  <PEOE_VSA_POS>
110.34556

>  <PEOE_VSA_PPOS>
0

>  <petitjean>
0.5

>  <petitjeanSC>
1

>  <Q_PC+>
0

>  <Q_PC->
0

>  <Q_RPC+>
0

>  <Q_RPC->
0

>  <Q_VSA_FHYD>
1

>  <Q_VSA_FNEG>
0

>  <Q_VSA_FPNEG>
0

>  <Q_VSA_FPOL>
0

>  <Q_VSA_FPOS>
1

>  <Q_VSA_FPPOS>
0

>  <Q_VSA_HYD>
208.57497

>  <Q_VSA_NEG>
0

>  <Q_VSA_PNEG>
0

>  <Q_VSA_POL>
0

>  <Q_VSA_POS>
208.57497

>  <Q_VSA_PPOS>
0

>  <radius>
4

>  <reactive>
0

>  <rings>
3

>  <RPC+>
0

>  <RPC->
0

>  <rsynth>
1

>  <SlogP>
2.38397

>  <SlogP_VSA0>
18.01075

>  <SlogP_VSA1>
2.3279202

>  <SlogP_VSA2>
0

>  <SlogP_VSA3>
36.879158

>  <SlogP_VSA4>
3.185575

>  <SlogP_VSA5>
35.653934

>  <SlogP_VSA6>
0

>  <SlogP_VSA7>
128.64822

>  <SlogP_VSA8>
0

>  <SlogP_VSA9>
0

>  <SMR>
6.79567

>  <SMR_VSA0>
0

>  <SMR_VSA1>
16.78553

>  <SMR_VSA2>
18.01075

>  <SMR_VSA3>
3.185575

>  <SMR_VSA4>
5.1459289

>  <SMR_VSA5>
142.3707

>  <SMR_VSA6>
39.207077

>  <SMR_VSA7>
0

>  <TPSA>
24.389999

>  <VAdjEq>
0.58587331

>  <VAdjMa>
5.1699252

>  <VDistEq>
2.8193841

>  <VDistMa>
7.6994658

>  <vdw_area>
208.57497

>  <vdw_vol>
310.44684

>  <vsa_acc>
5.6825762

>  <vsa_acid>
0

>  <vsa_base>
0

>  <vsa_don>
5.6825762

>  <vsa_hyd>
173.69258

>  <vsa_other>
11.190562

>  <vsa_pol>
11.365152

>  <Weight>
210.28

>  <weinerPath>
431

>  <weinerPol>
21

>  <zagreb>
84

$$$$