n1cn(nc1)Cc1cc(cc(c1)C(C#N)(C)C)C(C#N)(C)C
  MOE2013           2D

 22 23  0  0  0  0  0  0  0  0999 V2000
    0.0000    0.0000    0.0000 N   0  0  0  0  0  0  0  0  0  0  0  0
   -1.4990    0.0570    0.0000 C   0  0  0  0  0  0  0  0  0  0  0  0
   -2.0160   -1.3510    0.0000 N   0  0  0  0  0  0  0  0  0  0  0  0
   -0.8370   -2.2780    0.0000 N   0  0  0  0  0  0  0  0  0  0  0  0
    0.4090   -1.4430    0.0000 C   0  0  0  0  0  0  0  0  0  0  0  0
   -3.4600   -1.7600    0.0000 C   0  0  0  0  0  0  0  0  0  0  0  0
   -4.5350   -0.7140    0.0000 C   0  0  0  0  0  0  0  0  0  0  0  0
   -4.1680    0.7400    0.0000 C   0  0  0  0  0  0  0  0  0  0  0  0
   -5.2440    1.7850    0.0000 C   0  0  0  0  0  0  0  0  0  0  0  0
   -6.6870    1.3760    0.0000 C   0  0  0  0  0  0  0  0  0  0  0  0
   -7.0540   -0.0780    0.0000 C   0  0  0  0  0  0  0  0  0  0  0  0
   -5.9780   -1.1230    0.0000 C   0  0  0  0  0  0  0  0  0  0  0  0
   -8.4970   -0.4870    0.0000 C   0  0  0  0  0  0  0  0  0  0  0  0
   -9.9410   -0.8960    0.0000 C   0  0  0  0  0  0  0  0  0  0  0  0
  -11.3840   -1.3050    0.0000 N   0  0  0  0  0  0  0  0  0  0  0  0
   -8.9060    0.9560    0.0000 C   0  0  0  0  0  0  0  0  0  0  0  0
   -8.0880   -1.9300    0.0000 C   0  0  0  0  0  0  0  0  0  0  0  0
   -4.8760    3.2400    0.0000 C   0  0  0  0  0  0  0  0  0  0  0  0
   -4.5090    4.6940    0.0000 C   0  0  0  0  0  0  0  0  0  0  0  0
   -4.1410    6.1480    0.0000 N   0  0  0  0  0  0  0  0  0  0  0  0
   -6.3300    3.6070    0.0000 C   0  0  0  0  0  0  0  0  0  0  0  0
   -3.4220    2.8720    0.0000 C   0  0  0  0  0  0  0  0  0  0  0  0
  1  2  2  0  0  0  0
  1  5  1  0  0  0  0
  2  3  1  0  0  0  0
  3  4  1  0  0  0  0
  3  6  1  0  0  0  0
  4  5  2  0  0  0  0
  6  7  1  0  0  0  0
  7  8  1  0  0  0  0
  7 12  2  0  0  0  0
  8  9  2  0  0  0  0
  9 10  1  0  0  0  0
  9 18  1  0  0  0  0
 10 11  2  0  0  0  0
 11 12  1  0  0  0  0
 11 13  1  0  0  0  0
 13 14  1  0  0  0  0
 13 16  1  0  0  0  0
 13 17  1  0  0  0  0
 14 15  3  0  0  0  0
 18 19  1  0  0  0  0
 18 21  1  0  0  0  0
 18 22  1  0  0  0  0
 19 20  3  0  0  0  0
M  END
>  <Index>
76

>  <ID>
HT0158

>  <class>
0

>  <apol>
48.089066

>  <ast_fraglike>
0

>  <ast_fraglike_ext>
0

>  <ast_violation>
2

>  <ast_violation_ext>
3

>  <a_acc>
4

>  <a_acid>
0

>  <a_aro>
11

>  <a_base>
0

>  <a_count>
41

>  <a_don>
0

>  <a_donacc>
4

>  <a_heavy>
22

>  <a_hyd>
13

>  <a_IC>
57.852501

>  <a_ICM>
1.4110366

>  <a_nB>
0

>  <a_nBr>
0

>  <a_nC>
17

>  <a_nCl>
0

>  <a_nF>
0

>  <a_nH>
19

>  <a_nI>
0

>  <a_nN>
5

>  <a_nO>
0

>  <a_nP>
0

>  <a_nS>
0

>  <balabanJ>
2.0927193

>  <BCUT_PEOE_0>
-2.5456557

>  <BCUT_PEOE_1>
-0.35503688

>  <BCUT_PEOE_2>
0.25320297

>  <BCUT_PEOE_3>
2.5609221

>  <BCUT_SLOGP_0>
-2.4899187

>  <BCUT_SLOGP_1>
-0.23642698

>  <BCUT_SLOGP_2>
0.33800742

>  <BCUT_SLOGP_3>
2.6253321

>  <BCUT_SMR_0>
-2.2980127

>  <BCUT_SMR_1>
-0.077150494

>  <BCUT_SMR_2>
0.5179249

>  <BCUT_SMR_3>
2.8159149

>  <bpol>
25.390932

>  <b_1rotN>
4

>  <b_1rotR>
0.17391305

>  <b_ar>
11

>  <b_count>
42

>  <b_double>
0

>  <b_heavy>
23

>  <b_max1len>
4

>  <b_rotN>
6

>  <b_rotR>
0.26086956

>  <b_single>
29

>  <b_triple>
2

>  <chi0>
16.380468

>  <chi0v>
13.329926

>  <chi0v_C>
11.093858

>  <chi0_C>
12.388906

>  <chi1>
10.281154

>  <chi1v>
7.081841

>  <chi1v_C>
5.0856042

>  <chi1_C>
6.1421952

>  <chiral>
0

>  <chiral_u>
0

>  <density>
0.69570792

>  <diameter>
9

>  <FCharge>
0

>  <GCUT_PEOE_0>
-0.82265896

>  <GCUT_PEOE_1>
-0.33658528

>  <GCUT_PEOE_2>
-0.088681489

>  <GCUT_PEOE_3>
2.6645889

>  <GCUT_SLOGP_0>
-0.8958593

>  <GCUT_SLOGP_1>
-0.29298139

>  <GCUT_SLOGP_2>
-0.029998412

>  <GCUT_SLOGP_3>
2.7558823

>  <GCUT_SMR_0>
-0.51478231

>  <GCUT_SMR_1>
-0.13156997

>  <GCUT_SMR_2>
0.098886855

>  <GCUT_SMR_3>
2.9282429

>  <Kier1>
18.340265

>  <Kier2>
7.2664361

>  <Kier3>
4.5211182

>  <KierA1>
12.595922

>  <KierA2>
4.8928137

>  <KierA3>
3.0007689

>  <KierFlex>
2.8013411

>  <lip_acc>
5

>  <lip_don>
0

>  <lip_druglike>
1

>  <lip_violation>
0

>  <logP(o/w)>
2.9189999

>  <logS>
-3.2771699

>  <mr>
8.6532116

>  <mutagenic>
0

>  <nmol>
1

>  <opr_brigid>
11

>  <opr_leadlike>
1

>  <opr_nring>
2

>  <opr_nrot>
6

>  <opr_violation>
0

>  <PC+>
0

>  <PC->
0

>  <PEOE_PC+>
1.4280853

>  <PEOE_PC->
-1.4280853

>  <PEOE_RPC+>
0.096602596

>  <PEOE_RPC->
0.17343827

>  <PEOE_VSA+0>
51.184631

>  <PEOE_VSA+1>
75.118271

>  <PEOE_VSA+2>
51.004627

>  <PEOE_VSA+3>
0

>  <PEOE_VSA+4>
0

>  <PEOE_VSA+5>
0

>  <PEOE_VSA+6>
0

>  <PEOE_VSA-0>
81.616325

>  <PEOE_VSA-1>
36.764713

>  <PEOE_VSA-2>
0

>  <PEOE_VSA-3>
44.906017

>  <PEOE_VSA-4>
5.6825762

>  <PEOE_VSA-5>
0

>  <PEOE_VSA-6>
0

>  <PEOE_VSA_FHYD>
0.98358953

>  <PEOE_VSA_FNEG>
0.48796067

>  <PEOE_VSA_FPNEG>
0.016410485

>  <PEOE_VSA_FPOL>
0.016410485

>  <PEOE_VSA_FPOS>
0.5120393

>  <PEOE_VSA_FPPOS>
0

>  <PEOE_VSA_HYD>
340.59457

>  <PEOE_VSA_NEG>
168.96964

>  <PEOE_VSA_PNEG>
5.6825762

>  <PEOE_VSA_POL>
5.6825762

>  <PEOE_VSA_POS>
177.30753

>  <PEOE_VSA_PPOS>
0

>  <petitjean>
0.44444445

>  <petitjeanSC>
0.80000001

>  <Q_PC+>
0

>  <Q_PC->
0

>  <Q_RPC+>
0

>  <Q_RPC->
0

>  <Q_VSA_FHYD>
1

>  <Q_VSA_FNEG>
0

>  <Q_VSA_FPNEG>
0

>  <Q_VSA_FPOL>
0

>  <Q_VSA_FPOS>
1

>  <Q_VSA_FPPOS>
0

>  <Q_VSA_HYD>
346.27716

>  <Q_VSA_NEG>
0

>  <Q_VSA_PNEG>
0

>  <Q_VSA_POL>
0

>  <Q_VSA_POS>
346.27716

>  <Q_VSA_PPOS>
0

>  <radius>
5

>  <reactive>
0

>  <rings>
2

>  <RPC+>
0

>  <RPC->
0

>  <rsynth>
0.40909091

>  <SlogP>
3.195168

>  <SlogP_VSA0>
0

>  <SlogP_VSA1>
35.225109

>  <SlogP_VSA2>
0

>  <SlogP_VSA3>
95.322205

>  <SlogP_VSA4>
9.5567245

>  <SlogP_VSA5>
0

>  <SlogP_VSA6>
0

>  <SlogP_VSA7>
86.50061

>  <SlogP_VSA8>
0

>  <SlogP_VSA9>
151.74364

>  <SMR>
8.3049002

>  <SMR_VSA0>
0

>  <SMR_VSA1>
97.343819

>  <SMR_VSA2>
0

>  <SMR_VSA3>
42.760216

>  <SMR_VSA4>
0

>  <SMR_VSA5>
104.94019

>  <SMR_VSA6>
0

>  <SMR_VSA7>
133.30406

>  <TPSA>
78.290001

>  <VAdjEq>
0.4530769

>  <VAdjMa>
5.523562

>  <VDistEq>
3.0446894

>  <VDistMa>
8.6602802

>  <vdw_area>
346.27716

>  <vdw_vol>
421.69131

>  <vsa_acc>
50.588596

>  <vsa_acid>
0

>  <vsa_base>
0

>  <vsa_don>
0

>  <vsa_hyd>
191.98441

>  <vsa_other>
90.180046

>  <vsa_pol>
50.588596

>  <Weight>
293.37399

>  <weinerPath>
1015

>  <weinerPol>
33

>  <zagreb>
114

$$$$