Clc1cc(N2C(=O)CCC2=O)ccc1Cl
  MOE2013           2D

 15 16  0  0  0  0  0  0  0  0999 V2000
    0.0000    0.0000    0.0000 Cl  0  0  0  0  0  0  0  0  0  0  0  0
   -0.7410    1.3040    0.0000 C   0  0  0  0  0  0  0  0  0  0  0  0
   -2.2410    1.3150    0.0000 C   0  0  0  0  0  0  0  0  0  0  0  0
   -2.9820    2.6190    0.0000 C   0  0  0  0  0  0  0  0  0  0  0  0
   -4.4820    2.6300    0.0000 N   0  0  0  0  0  0  0  0  0  0  0  0
   -5.3720    1.4220    0.0000 C   0  0  0  0  0  0  0  0  0  0  0  0
   -4.9180   -0.0070    0.0000 O   0  0  0  0  0  0  0  0  0  0  0  0
   -6.7950    1.8960    0.0000 C   0  0  0  0  0  0  0  0  0  0  0  0
   -6.7840    3.3960    0.0000 C   0  0  0  0  0  0  0  0  0  0  0  0
   -5.3550    3.8490    0.0000 C   0  0  0  0  0  0  0  0  0  0  0  0
   -4.8810    5.2730    0.0000 O   0  0  0  0  0  0  0  0  0  0  0  0
   -2.2220    3.9130    0.0000 C   0  0  0  0  0  0  0  0  0  0  0  0
   -0.7230    3.9020    0.0000 C   0  0  0  0  0  0  0  0  0  0  0  0
    0.0180    2.5980    0.0000 C   0  0  0  0  0  0  0  0  0  0  0  0
    1.5180    2.5870    0.0000 Cl  0  0  0  0  0  0  0  0  0  0  0  0
  1  2  1  0  0  0  0
  2  3  1  0  0  0  0
  2 14  2  0  0  0  0
  3  4  2  0  0  0  0
  4  5  1  0  0  0  0
  4 12  1  0  0  0  0
  5  6  1  0  0  0  0
  5 10  1  0  0  0  0
  6  7  2  0  0  0  0
  6  8  1  0  0  0  0
  8  9  1  0  0  0  0
  9 10  1  0  0  0  0
 10 11  2  0  0  0  0
 12 13  2  0  0  0  0
 13 14  1  0  0  0  0
 14 15  1  0  0  0  0
M  END
>  <Index>
8

>  <ID>
HT0034

>  <class>
0

>  <apol>
29.331551

>  <ast_fraglike>
1

>  <ast_fraglike_ext>
1

>  <ast_violation>
0

>  <ast_violation_ext>
0

>  <a_acc>
2

>  <a_acid>
0

>  <a_aro>
6

>  <a_base>
0

>  <a_count>
22

>  <a_don>
0

>  <a_donacc>
2

>  <a_heavy>
15

>  <a_hyd>
10

>  <a_IC>
41.236729

>  <a_ICM>
1.8743968

>  <a_nB>
0

>  <a_nBr>
0

>  <a_nC>
10

>  <a_nCl>
2

>  <a_nF>
0

>  <a_nH>
7

>  <a_nI>
0

>  <a_nN>
1

>  <a_nO>
2

>  <a_nP>
0

>  <a_nS>
0

>  <balabanJ>
2.0022986

>  <BCUT_PEOE_0>
-2.2732341

>  <BCUT_PEOE_1>
-0.66165251

>  <BCUT_PEOE_2>
0.53444695

>  <BCUT_PEOE_3>
2.5878696

>  <BCUT_SLOGP_0>
-2.3309395

>  <BCUT_SLOGP_1>
-0.46943757

>  <BCUT_SLOGP_2>
0.82781398

>  <BCUT_SLOGP_3>
2.5540669

>  <BCUT_SMR_0>
-2.0874264

>  <BCUT_SMR_1>
-0.42652506

>  <BCUT_SMR_2>
0.87239915

>  <BCUT_SMR_3>
2.8479927

>  <bpol>
12.388449

>  <b_1rotN>
1

>  <b_1rotR>
0.0625

>  <b_ar>
6

>  <b_count>
23

>  <b_double>
2

>  <b_heavy>
16

>  <b_max1len>
2

>  <b_rotN>
1

>  <b_rotR>
0.0625

>  <b_single>
15

>  <b_triple>
0

>  <chi0>
10.999636

>  <chi0v>
9.1777611

>  <chi0v_C>
5.6462646

>  <chi0_C>
6.4222851

>  <chi1>
7.0922241

>  <chi1v>
5.158103

>  <chi1v_C>
2.9451406

>  <chi1_C>
3.7828231

>  <chiral>
0

>  <chiral_u>
0

>  <density>
0.92152172

>  <diameter>
7

>  <FCharge>
0

>  <GCUT_PEOE_0>
-0.76734996

>  <GCUT_PEOE_1>
-0.44594455

>  <GCUT_PEOE_2>
0.066878624

>  <GCUT_PEOE_3>
2.2853553

>  <GCUT_SLOGP_0>
-1.0113126

>  <GCUT_SLOGP_1>
-0.3539556

>  <GCUT_SLOGP_2>
0.22080369

>  <GCUT_SLOGP_3>
2.3705325

>  <GCUT_SMR_0>
-0.49990422

>  <GCUT_SMR_1>
-0.17348003

>  <GCUT_SMR_2>
0.28480488

>  <GCUT_SMR_3>
2.5782621

>  <Kier1>
11.484375

>  <Kier2>
4.47259

>  <Kier3>
2.24

>  <KierA1>
10.016026

>  <KierA2>
3.8598382

>  <KierA3>
1.916518

>  <KierFlex>
2.5773494

>  <lip_acc>
3

>  <lip_don>
0

>  <lip_druglike>
1

>  <lip_violation>
0

>  <logP(o/w)>
2.1619999

>  <logS>
-3.2495501

>  <mr>
5.8602762

>  <mutagenic>
0

>  <nmol>
1

>  <opr_brigid>
11

>  <opr_leadlike>
1

>  <opr_nring>
2

>  <opr_nrot>
1

>  <opr_violation>
0

>  <PC+>
0

>  <PC->
0

>  <PEOE_PC+>
1.0535678

>  <PEOE_PC->
-1.0535678

>  <PEOE_RPC+>
0.22284213

>  <PEOE_RPC->
0.2583909

>  <PEOE_VSA+0>
34.464172

>  <PEOE_VSA+1>
28.535202

>  <PEOE_VSA+2>
0

>  <PEOE_VSA+3>
0

>  <PEOE_VSA+4>
25.899061

>  <PEOE_VSA+5>
0

>  <PEOE_VSA+6>
0

>  <PEOE_VSA-0>
36.764713

>  <PEOE_VSA-1>
59.163895

>  <PEOE_VSA-2>
0

>  <PEOE_VSA-3>
0

>  <PEOE_VSA-4>
0

>  <PEOE_VSA-5>
27.133842

>  <PEOE_VSA-6>
0

>  <PEOE_VSA_FHYD>
0.74979866

>  <PEOE_VSA_FNEG>
0.58059037

>  <PEOE_VSA_FPNEG>
0.12801345

>  <PEOE_VSA_FPOL>
0.25020137

>  <PEOE_VSA_FPOS>
0.41940963

>  <PEOE_VSA_FPPOS>
0.12218793

>  <PEOE_VSA_HYD>
158.92798

>  <PEOE_VSA_NEG>
123.06245

>  <PEOE_VSA_PNEG>
27.133842

>  <PEOE_VSA_POL>
53.032902

>  <PEOE_VSA_POS>
88.898438

>  <PEOE_VSA_PPOS>
25.899061

>  <petitjean>
0.42857143

>  <petitjeanSC>
0.75

>  <Q_PC+>
0

>  <Q_PC->
0

>  <Q_RPC+>
0

>  <Q_RPC->
0

>  <Q_VSA_FHYD>
1

>  <Q_VSA_FNEG>
0

>  <Q_VSA_FPNEG>
0

>  <Q_VSA_FPOL>
0

>  <Q_VSA_FPOS>
1

>  <Q_VSA_FPPOS>
0

>  <Q_VSA_HYD>
211.96088

>  <Q_VSA_NEG>
0

>  <Q_VSA_PNEG>
0

>  <Q_VSA_POL>
0

>  <Q_VSA_POS>
211.96088

>  <Q_VSA_PPOS>
0

>  <radius>
4

>  <reactive>
0

>  <rings>
2

>  <RPC+>
0

>  <RPC->
0

>  <rsynth>
1

>  <SlogP>
2.6468

>  <SlogP_VSA0>
3.1243138

>  <SlogP_VSA1>
10.517568

>  <SlogP_VSA2>
47.724434

>  <SlogP_VSA3>
0

>  <SlogP_VSA4>
0

>  <SlogP_VSA5>
0

>  <SlogP_VSA6>
7.0012131

>  <SlogP_VSA7>
52.929554

>  <SlogP_VSA8>
37.736813

>  <SlogP_VSA9>
81.054039

>  <SMR>
5.8189001

>  <SMR_VSA0>
47.724434

>  <SMR_VSA1>
0

>  <SMR_VSA2>
3.1243138

>  <SMR_VSA3>
7.0012131

>  <SMR_VSA4>
2.7567475

>  <SMR_VSA5>
90.666367

>  <SMR_VSA6>
10.517568

>  <SMR_VSA7>
78.297287

>  <TPSA>
37.380001

>  <VAdjEq>
0.59002918

>  <VAdjMa>
5

>  <VDistEq>
2.6669953

>  <VDistMa>
7.5237694

>  <vdw_area>
211.96088

>  <vdw_vol>
264.86298

>  <vsa_acc>
27.133842

>  <vsa_acid>
0

>  <vsa_base>
0

>  <vsa_don>
0

>  <vsa_hyd>
153.9454

>  <vsa_other>
25.899061

>  <vsa_pol>
27.133842

>  <Weight>
244.077

>  <weinerPath>
349

>  <weinerPol>
22

>  <zagreb>
78

$$$$