O=C1CC=2CC[C@H]3[C@@H]4CC[C@@](O)(C#C)[C@]4(CC[C@@H]3C=2CC1)C
  MOE2013           2D

 22 25  0  0  1  0  0  0  0  0999 V2000
    0.0000    0.0000    0.0000 O   0  0  0  0  0  0  0  0  0  0  0  0
   -1.5000    0.0040    0.0000 C   0  0  0  0  0  0  0  0  0  0  0  0
   -2.2460    1.3060    0.0000 C   0  0  0  0  0  0  0  0  0  0  0  0
   -3.7460    1.3100    0.0000 C   0  0  0  0  0  0  0  0  0  0  0  0
   -4.4920    2.6110    0.0000 C   0  0  0  0  0  0  0  0  0  0  0  0
   -5.9920    2.6160    0.0000 C   0  0  0  0  0  0  0  0  0  0  0  0
   -6.7460    1.3190    0.0000 C   0  0  1  0  0  0  0  0  0  0  0  0
   -8.2460    1.3230    0.0000 C   0  0  2  0  0  0  0  0  0  0  0  0
   -9.2470    2.4410    0.0000 C   0  0  0  0  0  0  0  0  0  0  0  0
  -10.6190    1.8350    0.0000 C   0  0  0  0  0  0  0  0  0  0  0  0
  -10.4660    0.3420    0.0000 C   0  0  1  0  0  0  0  0  0  0  0  0
  -10.8590   -1.1050    0.0000 O   0  0  0  0  0  0  0  0  0  0  0  0
  -11.9290    0.0090    0.0000 C   0  0  0  0  0  0  0  0  0  0  0  0
  -13.3910   -0.3240    0.0000 C   0  0  0  0  0  0  0  0  0  0  0  0
   -9.0000    0.0260    0.0000 C   0  0  1  0  0  0  0  0  0  0  0  0
   -8.2540   -1.2750    0.0000 C   0  0  0  0  0  0  0  0  0  0  0  0
   -6.7540   -1.2790    0.0000 C   0  0  0  0  0  0  0  0  0  0  0  0
   -6.0000    0.0180    0.0000 C   0  0  2  0  0  0  0  0  0  0  0  0
   -4.5000    0.0130    0.0000 C   0  0  0  0  0  0  0  0  0  0  0  0
   -3.7540   -1.2880    0.0000 C   0  0  0  0  0  0  0  0  0  0  0  0
   -2.2540   -1.2920    0.0000 C   0  0  0  0  0  0  0  0  0  0  0  0
   -9.8850   -1.1850    0.0000 C   0  0  0  0  0  0  0  0  0  0  0  0
  1  2  2  0  0  0  0
  2  3  1  0  0  0  0
  2 21  1  0  0  0  0
  3  4  1  0  0  0  0
  4  5  1  0  0  0  0
  4 19  2  0  0  0  0
  5  6  1  0  0  0  0
  7  6  1  6  0  0  0
  7  8  1  0  0  0  0
  7 18  1  0  0  0  0
  8  9  1  1  0  0  0
  8 15  1  0  0  0  0
  9 10  1  0  0  0  0
 10 11  1  0  0  0  0
 11 12  1  1  0  0  0
 11 13  1  6  0  0  0
 11 15  1  0  0  0  0
 13 14  3  0  0  0  0
 15 16  1  0  0  0  0
 15 22  1  1  0  0  0
 16 17  1  0  0  0  0
 18 17  1  1  0  0  0
 18 19  1  0  0  0  0
 19 20  1  0  0  0  0
 20 21  1  0  0  0  0
M  END
>  <Index>
782

>  <ID>
HT1524

>  <class>
0

>  <apol>
54.140617

>  <ast_fraglike>
0

>  <ast_fraglike_ext>
0

>  <ast_violation>
1

>  <ast_violation_ext>
1

>  <a_acc>
2

>  <a_acid>
0

>  <a_aro>
0

>  <a_base>
0

>  <a_count>
48

>  <a_don>
1

>  <a_donacc>
3

>  <a_heavy>
22

>  <a_hyd>
19

>  <a_IC>
57.428204

>  <a_ICM>
1.1964209

>  <a_nB>
0

>  <a_nBr>
0

>  <a_nC>
20

>  <a_nCl>
0

>  <a_nF>
0

>  <a_nH>
26

>  <a_nI>
0

>  <a_nN>
0

>  <a_nO>
2

>  <a_nP>
0

>  <a_nS>
0

>  <balabanJ>
1.5806869

>  <BCUT_PEOE_0>
-2.8967025

>  <BCUT_PEOE_1>
-0.51822925

>  <BCUT_PEOE_2>
0.46339822

>  <BCUT_PEOE_3>
2.9408877

>  <BCUT_SLOGP_0>
-2.8208418

>  <BCUT_SLOGP_1>
-0.47419238

>  <BCUT_SLOGP_2>
0.44857606

>  <BCUT_SLOGP_3>
3.0089769

>  <BCUT_SMR_0>
-2.6423514

>  <BCUT_SMR_1>
-0.34458855

>  <BCUT_SMR_2>
0.66337609

>  <BCUT_SMR_3>
3.1885612

>  <bpol>
29.381382

>  <b_1rotN>
0

>  <b_1rotR>
0

>  <b_ar>
0

>  <b_count>
51

>  <b_double>
2

>  <b_heavy>
25

>  <b_max1len>
3

>  <b_rotN>
1

>  <b_rotR>
0.039999999

>  <b_single>
48

>  <b_triple>
1

>  <chi0>
15.53517

>  <chi0v>
13.528824

>  <chi0v_C>
12.673362

>  <chi0_C>
13.53517

>  <chi1>
10.483112

>  <chi1v>
8.9100418

>  <chi1v_C>
8.4823103

>  <chi1_C>
9.4057617

>  <chiral>
5

>  <chiral_u>
0

>  <density>
0.67995435

>  <diameter>
11

>  <FCharge>
0

>  <GCUT_PEOE_0>
-0.79167444

>  <GCUT_PEOE_1>
-0.38704777

>  <GCUT_PEOE_2>
0.018533621

>  <GCUT_PEOE_3>
3.1948085

>  <GCUT_SLOGP_0>
-0.88824248

>  <GCUT_SLOGP_1>
-0.30799145

>  <GCUT_SLOGP_2>
0.01260696

>  <GCUT_SLOGP_3>
3.2795162

>  <GCUT_SMR_0>
-0.53631532

>  <GCUT_SMR_1>
-0.20672761

>  <GCUT_SMR_2>
0.15536188

>  <GCUT_SMR_3>
3.4262547

>  <Kier1>
15.5232

>  <Kier2>
5.25

>  <Kier3>
2.1111112

>  <KierA1>
13.44

>  <KierA2>
4.5124998

>  <KierA3>
1.8049999

>  <KierFlex>
2.7567272

>  <lip_acc>
2

>  <lip_don>
1

>  <lip_druglike>
1

>  <lip_violation>
0

>  <logP(o/w)>
2.6129999

>  <logS>
-4.0493798

>  <mr>
8.6462173

>  <mutagenic>
0

>  <nmol>
1

>  <opr_brigid>
21

>  <opr_leadlike>
1

>  <opr_nring>
4

>  <opr_nrot>
1

>  <opr_violation>
0

>  <PC+>
0

>  <PC->
0

>  <PEOE_PC+>
1.3679965

>  <PEOE_PC->
-1.3679965

>  <PEOE_RPC+>
0.15453756

>  <PEOE_RPC->
0.27484554

>  <PEOE_VSA+0>
119.77189

>  <PEOE_VSA+1>
0

>  <PEOE_VSA+2>
12.723906

>  <PEOE_VSA+3>
0

>  <PEOE_VSA+4>
10.324173

>  <PEOE_VSA+5>
0

>  <PEOE_VSA+6>
0

>  <PEOE_VSA-0>
60.909191

>  <PEOE_VSA-1>
38.973251

>  <PEOE_VSA-2>
25.854858

>  <PEOE_VSA-3>
0

>  <PEOE_VSA-4>
0

>  <PEOE_VSA-5>
13.566921

>  <PEOE_VSA-6>
7.7675405

>  <PEOE_VSA_FHYD>
0.89079154

>  <PEOE_VSA_FNEG>
0.5073334

>  <PEOE_VSA_FPNEG>
0.073594585

>  <PEOE_VSA_FPOL>
0.10920847

>  <PEOE_VSA_FPOS>
0.49266657

>  <PEOE_VSA_FPPOS>
0.035613891

>  <PEOE_VSA_HYD>
258.23309

>  <PEOE_VSA_NEG>
147.07176

>  <PEOE_VSA_PNEG>
21.334461

>  <PEOE_VSA_POL>
31.658634

>  <PEOE_VSA_POS>
142.81996

>  <PEOE_VSA_PPOS>
10.324173

>  <petitjean>
0.45454547

>  <petitjeanSC>
0.83333331

>  <Q_PC+>
0

>  <Q_PC->
0

>  <Q_RPC+>
0

>  <Q_RPC->
0

>  <Q_VSA_FHYD>
1

>  <Q_VSA_FNEG>
0

>  <Q_VSA_FPNEG>
0

>  <Q_VSA_FPOL>
0

>  <Q_VSA_FPOS>
1

>  <Q_VSA_FPPOS>
0

>  <Q_VSA_HYD>
289.89172

>  <Q_VSA_NEG>
0

>  <Q_VSA_PNEG>
0

>  <Q_VSA_POL>
0

>  <Q_VSA_POS>
289.89172

>  <Q_VSA_PPOS>
0

>  <radius>
6

>  <reactive>
1

>  <rings>
4

>  <RPC+>
0

>  <RPC->
0

>  <rsynth>
0

>  <SlogP>
3.6366079

>  <SlogP_VSA0>
25.385227

>  <SlogP_VSA1>
5.6876111

>  <SlogP_VSA2>
23.862217

>  <SlogP_VSA3>
17.030573

>  <SlogP_VSA4>
44.72057

>  <SlogP_VSA5>
6.37115

>  <SlogP_VSA6>
0

>  <SlogP_VSA7>
0

>  <SlogP_VSA8>
169.81564

>  <SlogP_VSA9>
33.326015

>  <SMR>
8.5945797

>  <SMR_VSA0>
23.862217

>  <SMR_VSA1>
25.385227

>  <SMR_VSA2>
13.232388

>  <SMR_VSA3>
23.401724

>  <SMR_VSA4>
0

>  <SMR_VSA5>
169.81564

>  <SMR_VSA6>
37.175793

>  <SMR_VSA7>
33.326015

>  <TPSA>
37.299999

>  <VAdjEq>
0.47938794

>  <VAdjMa>
5.643856

>  <VDistEq>
3.0712955

>  <VDistMa>
8.6308546

>  <vdw_area>
289.89172

>  <vdw_vol>
438.89124

>  <vsa_acc>
13.566921

>  <vsa_acid>
0

>  <vsa_base>
0

>  <vsa_don>
0

>  <vsa_hyd>
227.94455

>  <vsa_other>
8.458519

>  <vsa_pol>
27.133842

>  <Weight>
298.42599

>  <weinerPath>
941

>  <weinerPol>
46

>  <zagreb>
130

$$$$