O(C)c1cc2c(cc(cc2)[C@@H](C(O)=O)C)cc1
  MOE2013           2D

 17 18  0  0  1  0  0  0  0  0999 V2000
    0.0000    0.0000    0.0000 O   0  0  0  0  0  0  0  0  0  0  0  0
    0.7400    1.3050    0.0000 C   0  0  0  0  0  0  0  0  0  0  0  0
   -1.5000   -0.0110    0.0000 C   0  0  0  0  0  0  0  0  0  0  0  0
   -2.2400   -1.3160    0.0000 C   0  0  0  0  0  0  0  0  0  0  0  0
   -3.7400   -1.3280    0.0000 C   0  0  0  0  0  0  0  0  0  0  0  0
   -4.5000   -0.0340    0.0000 C   0  0  0  0  0  0  0  0  0  0  0  0
   -6.0000   -0.0460    0.0000 C   0  0  0  0  0  0  0  0  0  0  0  0
   -6.7400   -1.3500    0.0000 C   0  0  0  0  0  0  0  0  0  0  0  0
   -5.9800   -2.6440    0.0000 C   0  0  0  0  0  0  0  0  0  0  0  0
   -4.4800   -2.6320    0.0000 C   0  0  0  0  0  0  0  0  0  0  0  0
   -8.2400   -1.3620    0.0000 C   0  0  1  0  0  0  0  0  0  0  0  0
   -8.9800   -2.6670    0.0000 C   0  0  0  0  0  0  0  0  0  0  0  0
   -8.2200   -3.9600    0.0000 O   0  0  0  0  0  0  0  0  0  0  0  0
  -10.4800   -2.6780    0.0000 O   0  0  0  0  0  0  0  0  0  0  0  0
   -9.0000   -0.0690    0.0000 C   0  0  0  0  0  0  0  0  0  0  0  0
   -3.7600    1.2700    0.0000 C   0  0  0  0  0  0  0  0  0  0  0  0
   -2.2600    1.2820    0.0000 C   0  0  0  0  0  0  0  0  0  0  0  0
  1  2  1  0  0  0  0
  1  3  1  0  0  0  0
  3  4  1  0  0  0  0
  3 17  2  0  0  0  0
  4  5  2  0  0  0  0
  5  6  1  0  0  0  0
  5 10  1  0  0  0  0
  6  7  1  0  0  0  0
  6 16  2  0  0  0  0
  7  8  2  0  0  0  0
  8  9  1  0  0  0  0
  8 11  1  0  0  0  0
  9 10  2  0  0  0  0
 11 12  1  0  0  0  0
 11 15  1  1  0  0  0
 12 13  1  0  0  0  0
 12 14  2  0  0  0  0
 16 17  1  0  0  0  0
M  END
>  <Index>
749

>  <ID>
HT1464

>  <class>
0

>  <apol>
36.381104

>  <ast_fraglike>
0

>  <ast_fraglike_ext>
0

>  <ast_violation>
1

>  <ast_violation_ext>
1

>  <a_acc>
3

>  <a_acid>
0

>  <a_aro>
10

>  <a_base>
0

>  <a_count>
31

>  <a_don>
2

>  <a_donacc>
5

>  <a_heavy>
17

>  <a_hyd>
13

>  <a_IC>
42.219261

>  <a_ICM>
1.3619117

>  <a_nB>
0

>  <a_nBr>
0

>  <a_nC>
14

>  <a_nCl>
0

>  <a_nF>
0

>  <a_nH>
14

>  <a_nI>
0

>  <a_nN>
0

>  <a_nO>
3

>  <a_nP>
0

>  <a_nS>
0

>  <balabanJ>
1.9000838

>  <BCUT_PEOE_0>
-2.4248927

>  <BCUT_PEOE_1>
-0.56528926

>  <BCUT_PEOE_2>
0.46796951

>  <BCUT_PEOE_3>
2.4700232

>  <BCUT_SLOGP_0>
-2.3802681

>  <BCUT_SLOGP_1>
-0.50768757

>  <BCUT_SLOGP_2>
0.59575665

>  <BCUT_SLOGP_3>
2.5456135

>  <BCUT_SMR_0>
-2.1802802

>  <BCUT_SMR_1>
-0.33897093

>  <BCUT_SMR_2>
0.68067133

>  <BCUT_SMR_3>
2.720829

>  <bpol>
18.178898

>  <b_1rotN>
3

>  <b_1rotR>
0.16666667

>  <b_ar>
11

>  <b_count>
32

>  <b_double>
1

>  <b_heavy>
18

>  <b_max1len>
3

>  <b_rotN>
3

>  <b_rotR>
0.16666667

>  <b_single>
20

>  <b_triple>
0

>  <chi0>
12.413849

>  <chi0v>
9.8051624

>  <chi0v_C>
8.5414515

>  <chi0_C>
9.7067423

>  <chi1>
8.1133919

>  <chi1v>
5.4208717

>  <chi1v_C>
4.3807683

>  <chi1_C>
5.8433366

>  <chiral>
1

>  <chiral_u>
0

>  <density>
0.7219038

>  <diameter>
10

>  <FCharge>
0

>  <GCUT_PEOE_0>
-0.78921527

>  <GCUT_PEOE_1>
-0.43657199

>  <GCUT_PEOE_2>
0.054770451

>  <GCUT_PEOE_3>
2.4244368

>  <GCUT_SLOGP_0>
-0.88673967

>  <GCUT_SLOGP_1>
-0.33036935

>  <GCUT_SLOGP_2>
0.11230606

>  <GCUT_SLOGP_3>
2.5813954

>  <GCUT_SMR_0>
-0.50057578

>  <GCUT_SMR_1>
-0.22850801

>  <GCUT_SMR_2>
0.17239313

>  <GCUT_SMR_3>
2.72595

>  <Kier1>
13.432098

>  <Kier2>
5.7600002

>  <Kier3>
3.0625

>  <KierA1>
9.8559999

>  <KierA2>
4.1370625

>  <KierA3>
2.16225

>  <KierFlex>
2.3985229

>  <lip_acc>
3

>  <lip_don>
1

>  <lip_druglike>
1

>  <lip_violation>
0

>  <logP(o/w)>
3.293

>  <logS>
-3.5457799

>  <mr>
6.614737

>  <mutagenic>
0

>  <nmol>
1

>  <opr_brigid>
11

>  <opr_leadlike>
1

>  <opr_nring>
2

>  <opr_nrot>
3

>  <opr_violation>
0

>  <PC+>
0

>  <PC->
0

>  <PEOE_PC+>
1.3275054

>  <PEOE_PC->
-1.3275054

>  <PEOE_RPC+>
0.20097521

>  <PEOE_RPC->
0.26206553

>  <PEOE_VSA+0>
42.0592

>  <PEOE_VSA+1>
46.846992

>  <PEOE_VSA+2>
0

>  <PEOE_VSA+3>
0

>  <PEOE_VSA+4>
10.324173

>  <PEOE_VSA+5>
14.708499

>  <PEOE_VSA+6>
0

>  <PEOE_VSA-0>
49.883102

>  <PEOE_VSA-1>
49.019615

>  <PEOE_VSA-2>
0

>  <PEOE_VSA-3>
0

>  <PEOE_VSA-4>
0

>  <PEOE_VSA-5>
13.566921

>  <PEOE_VSA-6>
10.271297

>  <PEOE_VSA_FHYD>
0.79351473

>  <PEOE_VSA_FNEG>
0.51859492

>  <PEOE_VSA_FPNEG>
0.10071927

>  <PEOE_VSA_FPOL>
0.20648526

>  <PEOE_VSA_FPOS>
0.48140511

>  <PEOE_VSA_FPPOS>
0.10576598

>  <PEOE_VSA_HYD>
187.80891

>  <PEOE_VSA_NEG>
122.74094

>  <PEOE_VSA_PNEG>
23.838217

>  <PEOE_VSA_POL>
48.870888

>  <PEOE_VSA_POS>
113.93887

>  <PEOE_VSA_PPOS>
25.032671

>  <petitjean>
0.5

>  <petitjeanSC>
1

>  <Q_PC+>
0

>  <Q_PC->
0

>  <Q_RPC+>
0

>  <Q_RPC->
0

>  <Q_VSA_FHYD>
1

>  <Q_VSA_FNEG>
0

>  <Q_VSA_FPNEG>
0

>  <Q_VSA_FPOL>
0

>  <Q_VSA_FPOS>
1

>  <Q_VSA_FPPOS>
0

>  <Q_VSA_HYD>
236.67981

>  <Q_VSA_NEG>
0

>  <Q_VSA_PNEG>
0

>  <Q_VSA_POL>
0

>  <Q_VSA_POS>
236.67981

>  <Q_VSA_PPOS>
0

>  <radius>
5

>  <reactive>
0

>  <rings>
2

>  <RPC+>
0

>  <RPC->
0

>  <rsynth>
1

>  <SlogP>
3.0365

>  <SlogP_VSA0>
10.999887

>  <SlogP_VSA1>
7.7454643

>  <SlogP_VSA2>
23.862217

>  <SlogP_VSA3>
25.385227

>  <SlogP_VSA4>
3.185575

>  <SlogP_VSA5>
35.383869

>  <SlogP_VSA6>
4.4107962

>  <SlogP_VSA7>
111.00504

>  <SlogP_VSA8>
0

>  <SlogP_VSA9>
38.569443

>  <SMR>
6.6550798

>  <SMR_VSA0>
23.862217

>  <SMR_VSA1>
10.999887

>  <SMR_VSA2>
25.385227

>  <SMR_VSA3>
12.839799

>  <SMR_VSA4>
5.1459289

>  <SMR_VSA5>
105.85911

>  <SMR_VSA6>
7.7454643

>  <SMR_VSA7>
68.709885

>  <TPSA>
46.529999

>  <VAdjEq>
0.54234898

>  <VAdjMa>
5.1699252

>  <VDistEq>
3.0254464

>  <VDistMa>
7.8550062

>  <vdw_area>
236.67981

>  <vdw_vol>
318.96631

>  <vsa_acc>
2.503756

>  <vsa_acid>
0

>  <vsa_base>
0

>  <vsa_don>
0

>  <vsa_hyd>
177.21053

>  <vsa_other>
14.708499

>  <vsa_pol>
29.637598

>  <Weight>
230.263

>  <weinerPath>
530

>  <weinerPol>
26

>  <zagreb>
86

$$$$