O(C(=O)C)C1(CCC2C3C(C4C(=C/C(=N/O)/CC4)CC3)CCC12CC)C#C
  MOE2013           2D

 27 30  0  0  1  0  0  0  0  0999 V2000
    0.0000    0.0000    0.0000 O   0  0  0  0  0  0  0  0  0  0  0  0
   -0.9540   -1.1570    0.0000 C   0  0  0  0  0  0  0  0  0  0  0  0
   -0.4290   -2.5620    0.0000 O   0  0  0  0  0  0  0  0  0  0  0  0
   -2.4340   -0.9090    0.0000 C   0  0  0  0  0  0  0  0  0  0  0  0
    1.4790   -0.2480    0.0000 C   0  0  3  0  0  0  0  0  0  0  0  0
    1.3090   -1.7380    0.0000 C   0  0  0  0  0  0  0  0  0  0  0  0
    2.6740   -2.3600    0.0000 C   0  0  0  0  0  0  0  0  0  0  0  0
    3.6880   -1.2550    0.0000 C   0  0  3  0  0  0  0  0  0  0  0  0
    5.1880   -1.2680    0.0000 C   0  0  3  0  0  0  0  0  0  0  0  0
    5.9490    0.0240    0.0000 C   0  0  3  0  0  0  0  0  0  0  0  0
    7.4490    0.0110    0.0000 C   0  0  3  0  0  0  0  0  0  0  0  0
    8.1880   -1.2950    0.0000 C   0  0  0  0  0  0  0  0  0  0  0  0
    9.6880   -1.3080    0.0000 C   0  0  0  0  0  0  0  0  0  0  0  0
   10.4490   -0.0160    0.0000 C   0  0  0  0  0  0  0  0  0  0  0  0
   11.9490   -0.0290    0.0000 N   0  0  0  0  0  0  0  0  0  0  0  0
   12.7100    1.2630    0.0000 O   0  0  0  0  0  0  0  0  0  0  0  0
    9.7110    1.2900    0.0000 C   0  0  0  0  0  0  0  0  0  0  0  0
    8.2110    1.3030    0.0000 C   0  0  0  0  0  0  0  0  0  0  0  0
    7.4260   -2.5870    0.0000 C   0  0  0  0  0  0  0  0  0  0  0  0
    5.9260   -2.5740    0.0000 C   0  0  0  0  0  0  0  0  0  0  0  0
    5.2110    1.3300    0.0000 C   0  0  0  0  0  0  0  0  0  0  0  0
    3.7110    1.3430    0.0000 C   0  0  0  0  0  0  0  0  0  0  0  0
    2.9490    0.0510    0.0000 C   0  0  3  0  0  0  0  0  0  0  0  0
    2.1000    1.2870    0.0000 C   0  0  0  0  0  0  0  0  0  0  0  0
    2.7460    2.6410    0.0000 C   0  0  0  0  0  0  0  0  0  0  0  0
    1.0040    1.1750    0.0000 C   0  0  0  0  0  0  0  0  0  0  0  0
    0.5280    2.5970    0.0000 C   0  0  0  0  0  0  0  0  0  0  0  0
  1  2  1  0  0  0  0
  1  5  1  0  0  0  0
  2  3  2  0  0  0  0
  2  4  1  0  0  0  0
  5  6  1  0  0  0  0
  5 23  1  0  0  0  0
  5 26  1  0  0  0  0
  6  7  1  0  0  0  0
  7  8  1  0  0  0  0
  8  9  1  0  0  0  0
  8 23  1  0  0  0  0
  9 10  1  0  0  0  0
  9 20  1  0  0  0  0
 10 11  1  0  0  0  0
 10 21  1  0  0  0  0
 11 12  1  0  0  0  0
 11 18  1  0  0  0  0
 12 13  2  0  0  0  0
 12 19  1  0  0  0  0
 13 14  1  0  0  0  0
 14 15  2  0  0  0  0
 14 17  1  0  0  0  0
 15 16  1  0  0  0  0
 17 18  1  0  0  0  0
 19 20  1  0  0  0  0
 21 22  1  0  0  0  0
 22 23  1  0  0  0  0
 23 24  1  0  0  0  0
 24 25  1  0  0  0  0
 26 27  3  0  0  0  0
M  END
>  <Index>
783

>  <ID>
HT1526

>  <class>
0

>  <apol>
64.656586

>  <ast_fraglike>
0

>  <ast_fraglike_ext>
0

>  <ast_violation>
2

>  <ast_violation_ext>
2

>  <a_acc>
3

>  <a_acid>
0

>  <a_aro>
0

>  <a_base>
0

>  <a_count>
58

>  <a_don>
1

>  <a_donacc>
4

>  <a_heavy>
27

>  <a_hyd>
21

>  <a_IC>
77.386002

>  <a_ICM>
1.3342414

>  <a_nB>
0

>  <a_nBr>
0

>  <a_nC>
23

>  <a_nCl>
0

>  <a_nF>
0

>  <a_nH>
31

>  <a_nI>
0

>  <a_nN>
1

>  <a_nO>
3

>  <a_nP>
0

>  <a_nS>
0

>  <balabanJ>
1.5809149

>  <BCUT_PEOE_0>
-2.9330509

>  <BCUT_PEOE_1>
-0.45080671

>  <BCUT_PEOE_2>
0.48288783

>  <BCUT_PEOE_3>
2.963495

>  <BCUT_SLOGP_0>
-2.856174

>  <BCUT_SLOGP_1>
-0.36825925

>  <BCUT_SLOGP_2>
0.55305493

>  <BCUT_SLOGP_3>
3.0315692

>  <BCUT_SMR_0>
-2.6794262

>  <BCUT_SMR_1>
-0.33205256

>  <BCUT_SMR_2>
0.60650361

>  <BCUT_SMR_3>
3.2104447

>  <bpol>
36.763416

>  <b_1rotN>
2

>  <b_1rotR>
0.06666667

>  <b_ar>
0

>  <b_count>
61

>  <b_double>
3

>  <b_heavy>
30

>  <b_max1len>
3

>  <b_rotN>
4

>  <b_rotR>
0.13333334

>  <b_single>
57

>  <b_triple>
1

>  <chi0>
19.233841

>  <chi0v>
16.538986

>  <chi0v_C>
14.828063

>  <chi0_C>
15.819627

>  <chi1>
12.99828

>  <chi1v>
10.587222

>  <chi1v_C>
9.5512428

>  <chi1_C>
10.543772

>  <chiral>
6

>  <chiral_u>
6

>  <density>
0.69565409

>  <diameter>
13

>  <FCharge>
0

>  <GCUT_PEOE_0>
-0.7929486

>  <GCUT_PEOE_1>
-0.37336531

>  <GCUT_PEOE_2>
0.012999644

>  <GCUT_PEOE_3>
3.3136592

>  <GCUT_SLOGP_0>
-0.85542953

>  <GCUT_SLOGP_1>
-0.30926833

>  <GCUT_SLOGP_2>
0.076382525

>  <GCUT_SLOGP_3>
3.3942175

>  <GCUT_SMR_0>
-0.53765243

>  <GCUT_SMR_1>
-0.1977654

>  <GCUT_SMR_2>
0.15394236

>  <GCUT_SMR_3>
3.5431876

>  <Kier1>
20.280001

>  <Kier2>
7.679584

>  <Kier3>
3.0563266

>  <KierA1>
17.421459

>  <KierA2>
6.5565891

>  <KierA3>
2.5974822

>  <KierFlex>
4.2305684

>  <lip_acc>
4

>  <lip_don>
1

>  <lip_druglike>
1

>  <lip_violation>
0

>  <logP(o/w)>
4.395

>  <logS>
-5.81601

>  <mr>
10.537224

>  <mutagenic>
0

>  <nmol>
1

>  <opr_brigid>
22

>  <opr_leadlike>
1

>  <opr_nring>
4

>  <opr_nrot>
3

>  <opr_violation>
1

>  <PC+>
0

>  <PC->
0

>  <PEOE_PC+>
1.7508472

>  <PEOE_PC->
-1.7508472

>  <PEOE_RPC+>
0.1487589

>  <PEOE_RPC->
0.16866854

>  <PEOE_VSA+0>
138.17848

>  <PEOE_VSA+1>
10.964937

>  <PEOE_VSA+2>
4.2653861

>  <PEOE_VSA+3>
0

>  <PEOE_VSA+4>
10.324173

>  <PEOE_VSA+5>
14.708499

>  <PEOE_VSA+6>
0

>  <PEOE_VSA-0>
90.566727

>  <PEOE_VSA-1>
36.764713

>  <PEOE_VSA-2>
36.74012

>  <PEOE_VSA-3>
0

>  <PEOE_VSA-4>
0

>  <PEOE_VSA-5>
27.23682

>  <PEOE_VSA-6>
0

>  <PEOE_VSA_FHYD>
0.85863554

>  <PEOE_VSA_FNEG>
0.51739943

>  <PEOE_VSA_FPNEG>
0.073662832

>  <PEOE_VSA_FPOL>
0.14136447

>  <PEOE_VSA_FPOS>
0.48260054

>  <PEOE_VSA_FPPOS>
0.067701638

>  <PEOE_VSA_HYD>
317.48038

>  <PEOE_VSA_NEG>
191.30838

>  <PEOE_VSA_PNEG>
27.23682

>  <PEOE_VSA_POL>
52.269493

>  <PEOE_VSA_POS>
178.44148

>  <PEOE_VSA_PPOS>
25.032671

>  <petitjean>
0.46153846

>  <petitjeanSC>
0.85714287

>  <Q_PC+>
0

>  <Q_PC->
0

>  <Q_RPC+>
0

>  <Q_RPC->
0

>  <Q_VSA_FHYD>
1

>  <Q_VSA_FNEG>
0

>  <Q_VSA_FPNEG>
0

>  <Q_VSA_FPOL>
0

>  <Q_VSA_FPOS>
1

>  <Q_VSA_FPPOS>
0

>  <Q_VSA_HYD>
369.74985

>  <Q_VSA_NEG>
0

>  <Q_VSA_PNEG>
0

>  <Q_VSA_POL>
0

>  <Q_VSA_POS>
369.74985

>  <Q_VSA_PPOS>
0

>  <radius>
7

>  <reactive>
1

>  <rings>
4

>  <RPC+>
0

>  <RPC->
0

>  <rsynth>
0.18518518

>  <SlogP>
4.7145081

>  <SlogP_VSA0>
0

>  <SlogP_VSA1>
10.502212

>  <SlogP_VSA2>
60.466206

>  <SlogP_VSA3>
17.030573

>  <SlogP_VSA4>
49.131367

>  <SlogP_VSA5>
22.585438

>  <SlogP_VSA6>
0

>  <SlogP_VSA7>
17.643185

>  <SlogP_VSA8>
169.81564

>  <SlogP_VSA9>
66.652031

>  <SMR>
10.50968

>  <SMR_VSA0>
34.862103

>  <SMR_VSA1>
19.399862

>  <SMR_VSA2>
43.247288

>  <SMR_VSA3>
20.216148

>  <SMR_VSA4>
0

>  <SMR_VSA5>
187.45883

>  <SMR_VSA6>
41.990395

>  <SMR_VSA7>
66.652031

>  <TPSA>
58.889999

>  <VAdjEq>
0.41024774

>  <VAdjMa>
5.9068904

>  <VDistEq>
3.3390498

>  <VDistMa>
9.2246218

>  <vdw_area>
369.74985

>  <vdw_vol>
531.16193

>  <vsa_acc>
24.452183

>  <vsa_acid>
0

>  <vsa_base>
0

>  <vsa_don>
0

>  <vsa_hyd>
273.1615

>  <vsa_other>
23.911806

>  <vsa_pol>
41.417706

>  <Weight>
369.505

>  <weinerPath>
1687

>  <weinerPol>
56

>  <zagreb>
152

$$$$