O(CC(O)CNC(C)C)c1ccccc1OCC=C
  MOE2013           2D

 19 19  0  0  1  0  0  0  0  0999 V2000
    0.0000    0.0000    0.0000 O   0  0  0  0  0  0  0  0  0  0  0  0
    1.5000   -0.0110    0.0000 C   0  0  0  0  0  0  0  0  0  0  0  0
    2.2590    1.2830    0.0000 C   0  0  3  0  0  0  0  0  0  0  0  0
    1.5190    2.5870    0.0000 O   0  0  0  0  0  0  0  0  0  0  0  0
    3.7590    1.2720    0.0000 C   0  0  0  0  0  0  0  0  0  0  0  0
    4.5190    2.5650    0.0000 N   0  0  0  0  0  0  0  0  0  0  0  0
    6.0190    2.5540    0.0000 C   0  0  0  0  0  0  0  0  0  0  0  0
    6.7780    3.8480    0.0000 C   0  0  0  0  0  0  0  0  0  0  0  0
    6.7590    1.2500    0.0000 C   0  0  0  0  0  0  0  0  0  0  0  0
   -0.7590   -1.2940    0.0000 C   0  0  0  0  0  0  0  0  0  0  0  0
   -0.0190   -2.5980    0.0000 C   0  0  0  0  0  0  0  0  0  0  0  0
   -0.7780   -3.8920    0.0000 C   0  0  0  0  0  0  0  0  0  0  0  0
   -2.2780   -3.8810    0.0000 C   0  0  0  0  0  0  0  0  0  0  0  0
   -3.0190   -2.5760    0.0000 C   0  0  0  0  0  0  0  0  0  0  0  0
   -2.2590   -1.2830    0.0000 C   0  0  0  0  0  0  0  0  0  0  0  0
   -3.0000    0.0220    0.0000 O   0  0  0  0  0  0  0  0  0  0  0  0
   -4.5000    0.0330    0.0000 C   0  0  0  0  0  0  0  0  0  0  0  0
   -5.2400    1.3370    0.0000 C   0  0  0  0  0  0  0  0  0  0  0  0
   -6.7400    1.3480    0.0000 C   0  0  0  0  0  0  0  0  0  0  0  0
  1  2  1  0  0  0  0
  1 10  1  0  0  0  0
  2  3  1  0  0  0  0
  3  4  1  0  0  0  0
  3  5  1  0  0  0  0
  5  6  1  0  0  0  0
  6  7  1  0  0  0  0
  7  8  1  0  0  0  0
  7  9  1  0  0  0  0
 10 11  1  0  0  0  0
 10 15  2  0  0  0  0
 11 12  2  0  0  0  0
 12 13  1  0  0  0  0
 13 14  2  0  0  0  0
 14 15  1  0  0  0  0
 15 16  1  0  0  0  0
 16 17  1  0  0  0  0
 17 18  1  0  0  0  0
 18 19  2  0  0  0  0
M  END
>  <Index>
800

>  <ID>
HT1561

>  <class>
0

>  <apol>
45.242241

>  <ast_fraglike>
0

>  <ast_fraglike_ext>
0

>  <ast_violation>
1

>  <ast_violation_ext>
2

>  <a_acc>
4

>  <a_acid>
0

>  <a_aro>
6

>  <a_base>
0

>  <a_count>
42

>  <a_don>
2

>  <a_donacc>
6

>  <a_heavy>
19

>  <a_hyd>
15

>  <a_IC>
59.07716

>  <a_ICM>
1.406599

>  <a_nB>
0

>  <a_nBr>
0

>  <a_nC>
15

>  <a_nCl>
0

>  <a_nF>
0

>  <a_nH>
23

>  <a_nI>
0

>  <a_nN>
1

>  <a_nO>
3

>  <a_nP>
0

>  <a_nS>
0

>  <balabanJ>
2.2421184

>  <BCUT_PEOE_0>
-2.6556182

>  <BCUT_PEOE_1>
-0.54313713

>  <BCUT_PEOE_2>
0.6162926

>  <BCUT_PEOE_3>
2.5987363

>  <BCUT_SLOGP_0>
-2.8162894

>  <BCUT_SLOGP_1>
-0.50218832

>  <BCUT_SLOGP_2>
0.64173287

>  <BCUT_SLOGP_3>
2.5248821

>  <BCUT_SMR_0>
-2.3944397

>  <BCUT_SMR_1>
-0.42130867

>  <BCUT_SMR_2>
0.7272777

>  <BCUT_SMR_3>
2.8450735

>  <bpol>
29.635761

>  <b_1rotN>
9

>  <b_1rotR>
0.47368422

>  <b_ar>
6

>  <b_count>
42

>  <b_double>
1

>  <b_heavy>
19

>  <b_max1len>
7

>  <b_rotN>
9

>  <b_rotR>
0.47368422

>  <b_single>
35

>  <b_triple>
0

>  <chi0>
14.087576

>  <chi0v>
11.633589

>  <chi0v_C>
9.8698788

>  <chi0_C>
10.966255

>  <chi1>
9.130229

>  <chi1v>
6.50107

>  <chi1v_C>
4.6150441

>  <chi1_C>
5.8281336

>  <chiral>
1

>  <chiral_u>
1

>  <density>
0.68220633

>  <diameter>
12

>  <FCharge>
0

>  <GCUT_PEOE_0>
-0.84578729

>  <GCUT_PEOE_1>
-0.3685945

>  <GCUT_PEOE_2>
0.067858808

>  <GCUT_PEOE_3>
2.471617

>  <GCUT_SLOGP_0>
-1.1534545

>  <GCUT_SLOGP_1>
-0.33139828

>  <GCUT_SLOGP_2>
0.14327005

>  <GCUT_SLOGP_3>
2.5143833

>  <GCUT_SMR_0>
-0.52159864

>  <GCUT_SMR_1>
-0.20701426

>  <GCUT_SMR_2>
0.16436285

>  <GCUT_SMR_3>
2.7124641

>  <Kier1>
17.052631

>  <Kier2>
9.8336487

>  <Kier3>
7.3727999

>  <KierA1>
14.310369

>  <KierA2>
8.1665001

>  <KierA3>
6.0730801

>  <KierFlex>
6.1508222

>  <lip_acc>
4

>  <lip_don>
2

>  <lip_druglike>
1

>  <lip_violation>
0

>  <logP(o/w)>
2.0687399

>  <logS>
-2.20069

>  <mr>
7.6908898

>  <mutagenic>
0

>  <nmol>
1

>  <opr_brigid>
7

>  <opr_leadlike>
1

>  <opr_nring>
1

>  <opr_nrot>
9

>  <opr_violation>
0

>  <PC+>
0

>  <PC->
0

>  <PEOE_PC+>
1.81938

>  <PEOE_PC->
-1.81938

>  <PEOE_RPC+>
0.1153863

>  <PEOE_RPC->
0.21339005

>  <PEOE_VSA+0>
54.726761

>  <PEOE_VSA+1>
85.992149

>  <PEOE_VSA+2>
25.536053

>  <PEOE_VSA+3>
0

>  <PEOE_VSA+4>
10.324173

>  <PEOE_VSA+5>
0

>  <PEOE_VSA+6>
0

>  <PEOE_VSA-0>
62.005161

>  <PEOE_VSA-1>
36.764713

>  <PEOE_VSA-2>
22.301268

>  <PEOE_VSA-3>
0

>  <PEOE_VSA-4>
0

>  <PEOE_VSA-5>
0

>  <PEOE_VSA-6>
12.911943

>  <PEOE_VSA_FHYD>
0.92518049

>  <PEOE_VSA_FNEG>
0.43142107

>  <PEOE_VSA_FPNEG>
0.041576028

>  <PEOE_VSA_FPOL>
0.07481952

>  <PEOE_VSA_FPOS>
0.5685789

>  <PEOE_VSA_FPPOS>
0.033243492

>  <PEOE_VSA_HYD>
287.32611

>  <PEOE_VSA_NEG>
133.98309

>  <PEOE_VSA_PNEG>
12.911943

>  <PEOE_VSA_POL>
23.236116

>  <PEOE_VSA_POS>
176.57913

>  <PEOE_VSA_PPOS>
10.324173

>  <petitjean>
0.5

>  <petitjeanSC>
1

>  <Q_PC+>
0

>  <Q_PC->
0

>  <Q_RPC+>
0

>  <Q_RPC->
0

>  <Q_VSA_FHYD>
1

>  <Q_VSA_FNEG>
0

>  <Q_VSA_FPNEG>
0

>  <Q_VSA_FPOL>
0

>  <Q_VSA_FPOS>
1

>  <Q_VSA_FPPOS>
0

>  <Q_VSA_HYD>
310.56223

>  <Q_VSA_NEG>
0

>  <Q_VSA_PNEG>
0

>  <Q_VSA_POL>
0

>  <Q_VSA_POS>
310.56223

>  <Q_VSA_PPOS>
0

>  <radius>
6

>  <reactive>
0

>  <rings>
1

>  <RPC+>
0

>  <RPC->
0

>  <rsynth>
1

>  <SlogP>
1.9891

>  <SlogP_VSA0>
65.395752

>  <SlogP_VSA1>
0

>  <SlogP_VSA2>
10.450618

>  <SlogP_VSA3>
60.292095

>  <SlogP_VSA4>
0

>  <SlogP_VSA5>
0

>  <SlogP_VSA6>
0

>  <SlogP_VSA7>
88.215919

>  <SlogP_VSA8>
0

>  <SlogP_VSA9>
109.23968

>  <SMR>
7.6774502

>  <SMR_VSA0>
0

>  <SMR_VSA1>
47.385002

>  <SMR_VSA2>
18.01075

>  <SMR_VSA3>
20.937473

>  <SMR_VSA4>
0

>  <SMR_VSA5>
88.215919

>  <SMR_VSA6>
60.292095

>  <SMR_VSA7>
98.752823

>  <TPSA>
50.720001

>  <VAdjEq>
0.48546076

>  <VAdjMa>
5.2479277

>  <VDistEq>
3.3638358

>  <VDistMa>
8.1738729

>  <vdw_area>
310.56223

>  <vdw_vol>
388.96295

>  <vsa_acc>
5.0075121

>  <vsa_acid>
0

>  <vsa_base>
0

>  <vsa_don>
0

>  <vsa_hyd>
263.7594

>  <vsa_other>
0

>  <vsa_pol>
24.25701

>  <Weight>
265.353

>  <weinerPath>
834

>  <weinerPol>
22

>  <zagreb>
84

$$$$