FC(F)(F)c1cc(N2C(=O)C(NC2=O)(C)C)ccc1[N+](=O)[O-]
  MOE2013           2D

 22 23  0  0  0  0  0  0  0  0999 V2000
    0.0000    0.0000    0.0000 F   0  0  0  0  0  0  0  0  0  0  0  0
   -0.7590   -1.2940    0.0000 C   0  0  0  0  0  0  0  0  0  0  0  0
   -1.5180   -2.5870    0.0000 F   0  0  0  0  0  0  0  0  0  0  0  0
   -2.0530   -0.5340    0.0000 F   0  0  0  0  0  0  0  0  0  0  0  0
    0.5340   -2.0530    0.0000 C   0  0  0  0  0  0  0  0  0  0  0  0
    1.8390   -1.3120    0.0000 C   0  0  0  0  0  0  0  0  0  0  0  0
    3.1320   -2.0710    0.0000 C   0  0  0  0  0  0  0  0  0  0  0  0
    4.4370   -1.3310    0.0000 N   0  0  0  0  0  0  0  0  0  0  0  0
    5.8030   -1.9500    0.0000 C   0  0  0  0  0  0  0  0  0  0  0  0
    6.1040   -3.4200    0.0000 O   0  0  0  0  0  0  0  0  0  0  0  0
    6.8140   -0.8430    0.0000 C   0  0  0  0  0  0  0  0  0  0  0  0
    6.0740    0.4610    0.0000 N   0  0  0  0  0  0  0  0  0  0  0  0
    4.6040    0.1600    0.0000 C   0  0  0  0  0  0  0  0  0  0  0  0
    3.4970    1.1720    0.0000 O   0  0  0  0  0  0  0  0  0  0  0  0
    8.1860   -0.2370    0.0000 C   0  0  0  0  0  0  0  0  0  0  0  0
    7.9860   -1.7800    0.0000 C   0  0  0  0  0  0  0  0  0  0  0  0
    3.1220   -3.5710    0.0000 C   0  0  0  0  0  0  0  0  0  0  0  0
    1.8170   -4.3120    0.0000 C   0  0  0  0  0  0  0  0  0  0  0  0
    0.5240   -3.5530    0.0000 C   0  0  0  0  0  0  0  0  0  0  0  0
   -0.7810   -4.2940    0.0000 N   0  3  0  0  0  0  0  0  0  0  0  0
   -0.7910   -5.7940    0.0000 O   0  0  0  0  0  0  0  0  0  0  0  0
   -2.0740   -3.5340    0.0000 O   0  5  0  0  0  0  0  0  0  0  0  0
  1  2  1  0  0  0  0
  2  3  1  0  0  0  0
  2  4  1  0  0  0  0
  2  5  1  0  0  0  0
  5  6  1  0  0  0  0
  5 19  2  0  0  0  0
  6  7  2  0  0  0  0
  7  8  1  0  0  0  0
  7 17  1  0  0  0  0
  8  9  1  0  0  0  0
  8 13  1  0  0  0  0
  9 10  2  0  0  0  0
  9 11  1  0  0  0  0
 11 12  1  0  0  0  0
 11 15  1  0  0  0  0
 11 16  1  0  0  0  0
 12 13  1  0  0  0  0
 13 14  2  0  0  0  0
 17 18  2  0  0  0  0
 18 19  1  0  0  0  0
 19 20  1  0  0  0  0
 20 21  2  0  0  0  0
 20 22  1  0  0  0  0
M  CHG  1  20   1
M  CHG  1  22  -1
M  END
>  <Index>
769

>  <ID>
HT1493

>  <class>
0

>  <apol>
35.96693

>  <ast_fraglike>
0

>  <ast_fraglike_ext>
0

>  <ast_violation>
1

>  <ast_violation_ext>
1

>  <a_acc>
2

>  <a_acid>
0

>  <a_aro>
6

>  <a_base>
0

>  <a_count>
32

>  <a_don>
1

>  <a_donacc>
3

>  <a_heavy>
22

>  <a_hyd>
14

>  <a_IC>
66.251396

>  <a_ICM>
2.0703561

>  <a_nB>
0

>  <a_nBr>
0

>  <a_nC>
12

>  <a_nCl>
0

>  <a_nF>
3

>  <a_nH>
10

>  <a_nI>
0

>  <a_nN>
3

>  <a_nO>
4

>  <a_nP>
0

>  <a_nS>
0

>  <balabanJ>
2.1892169

>  <BCUT_PEOE_0>
-2.518631

>  <BCUT_PEOE_1>
-0.36860636

>  <BCUT_PEOE_2>
0.36258271

>  <BCUT_PEOE_3>
2.6591768

>  <BCUT_SLOGP_0>
-2.6716807

>  <BCUT_SLOGP_1>
-0.16803654

>  <BCUT_SLOGP_2>
0.51132208

>  <BCUT_SLOGP_3>
2.5526114

>  <BCUT_SMR_0>
-2.2866294

>  <BCUT_SMR_1>
-0.13437775

>  <BCUT_SMR_2>
0.54685336

>  <BCUT_SMR_3>
2.9197905

>  <bpol>
20.353069

>  <b_1rotN>
2

>  <b_1rotR>
0.086956523

>  <b_ar>
6

>  <b_count>
33

>  <b_double>
3

>  <b_heavy>
23

>  <b_max1len>
4

>  <b_rotN>
3

>  <b_rotR>
0.13043478

>  <b_single>
24

>  <b_triple>
0

>  <chi0>
16.869879

>  <chi0v>
11.393365

>  <chi0v_C>
7.2320509

>  <chi0_C>
8.0080719

>  <chi1>
9.9482126

>  <chi1v>
5.9728045

>  <chi1v_C>
3.2380338

>  <chi1_C>
4.0436769

>  <chiral>
0

>  <chiral_u>
0

>  <density>
0.9571476

>  <diameter>
9

>  <FCharge>
0

>  <GCUT_PEOE_0>
-0.80127972

>  <GCUT_PEOE_1>
-0.42942932

>  <GCUT_PEOE_2>
-0.036752656

>  <GCUT_PEOE_3>
2.5382628

>  <GCUT_SLOGP_0>
-1.169764

>  <GCUT_SLOGP_1>
-0.28793553

>  <GCUT_SLOGP_2>
0.25290677

>  <GCUT_SLOGP_3>
2.5561204

>  <GCUT_SMR_0>
-0.51091927

>  <GCUT_SMR_1>
-0.1445777

>  <GCUT_SMR_2>
0.15999849

>  <GCUT_SMR_3>
2.781188

>  <Kier1>
18.340265

>  <Kier2>
6.1358657

>  <Kier3>
3.5916824

>  <KierA1>
13.153396

>  <KierA2>
4.3248353

>  <KierA3>
2.4998176

>  <KierFlex>
2.5857396

>  <lip_acc>
7

>  <lip_don>
1

>  <lip_druglike>
1

>  <lip_violation>
0

>  <logP(o/w)>
2.31076

>  <logS>
-4.35955

>  <mr>
6.7006598

>  <mutagenic>
0

>  <nmol>
1

>  <opr_brigid>
11

>  <opr_leadlike>
1

>  <opr_nring>
2

>  <opr_nrot>
2

>  <opr_violation>
0

>  <PC+>
0

>  <PC->
0

>  <PEOE_PC+>
2.2014265

>  <PEOE_PC->
-2.2014265

>  <PEOE_RPC+>
0.19246842

>  <PEOE_RPC->
0.1471189

>  <PEOE_VSA+0>
37.847221

>  <PEOE_VSA+1>
23.523743

>  <PEOE_VSA+2>
2.2085397

>  <PEOE_VSA+3>
8.6190128

>  <PEOE_VSA+4>
0

>  <PEOE_VSA+5>
19.649082

>  <PEOE_VSA+6>
26.486044

>  <PEOE_VSA-0>
62.005161

>  <PEOE_VSA-1>
0

>  <PEOE_VSA-2>
0

>  <PEOE_VSA-3>
35.725906

>  <PEOE_VSA-4>
13.566921

>  <PEOE_VSA-5>
47.497971

>  <PEOE_VSA-6>
0.13689101

>  <PEOE_VSA_FHYD>
0.61287457

>  <PEOE_VSA_FNEG>
0.57321334

>  <PEOE_VSA_FPNEG>
0.2207327

>  <PEOE_VSA_FPOL>
0.38712543

>  <PEOE_VSA_FPOS>
0.42678666

>  <PEOE_VSA_FPPOS>
0.16639273

>  <PEOE_VSA_HYD>
169.92958

>  <PEOE_VSA_NEG>
158.93285

>  <PEOE_VSA_PNEG>
61.201782

>  <PEOE_VSA_POL>
107.33691

>  <PEOE_VSA_POS>
118.33364

>  <PEOE_VSA_PPOS>
46.135128

>  <petitjean>
0.44444445

>  <petitjeanSC>
0.80000001

>  <Q_PC+>
0

>  <Q_PC->
0

>  <Q_RPC+>
0

>  <Q_RPC->
0

>  <Q_VSA_FHYD>
1

>  <Q_VSA_FNEG>
0

>  <Q_VSA_FPNEG>
0

>  <Q_VSA_FPOL>
0

>  <Q_VSA_FPOS>
1

>  <Q_VSA_FPPOS>
0

>  <Q_VSA_HYD>
277.26648

>  <Q_VSA_NEG>
0

>  <Q_VSA_PNEG>
0

>  <Q_VSA_POL>
0

>  <Q_VSA_POS>
277.26648

>  <Q_VSA_PPOS>
0

>  <radius>
5

>  <reactive>
0

>  <rings>
2

>  <RPC+>
0

>  <RPC->
0

>  <rsynth>
1

>  <SlogP>
2.7599001

>  <SlogP_VSA0>
21.135065

>  <SlogP_VSA1>
17.174356

>  <SlogP_VSA2>
23.862217

>  <SlogP_VSA3>
50.935009

>  <SlogP_VSA4>
3.185575

>  <SlogP_VSA5>
0

>  <SlogP_VSA6>
7.7595162

>  <SlogP_VSA7>
52.929554

>  <SlogP_VSA8>
0

>  <SlogP_VSA9>
140.90808

>  <SMR>
6.8312101

>  <SMR_VSA0>
54.810047

>  <SMR_VSA1>
44.880341

>  <SMR_VSA2>
79.82959

>  <SMR_VSA3>
3.185575

>  <SMR_VSA4>
5.513495

>  <SMR_VSA5>
52.929554

>  <SMR_VSA6>
10.088739

>  <SMR_VSA7>
66.652031

>  <TPSA>
95.230003

>  <VAdjEq>
0.4530769

>  <VAdjMa>
5.523562

>  <VDistEq>
3.0203338

>  <VDistMa>
8.6551371

>  <vdw_area>
277.26648

>  <vdw_vol>
331.42535

>  <vsa_acc>
27.133842

>  <vsa_acid>
0

>  <vsa_base>
0

>  <vsa_don>
5.6825762

>  <vsa_hyd>
170.64948

>  <vsa_other>
64.321121

>  <vsa_pol>
32.816418

>  <Weight>
317.22299

>  <weinerPath>
974

>  <weinerPol>
38

>  <zagreb>
120

$$$$