O1[C@@H](c2c(c(OC)c(OC)cc2)C1=O)[C@@H]1N(CCc2c1c(OC)c1OCOc1c2)C
  MOE2013           2D

 30 34  0  0  1  0  0  0  0  0999 V2000
    0.0000    0.0000    0.0000 O   0  0  0  0  0  0  0  0  0  0  0  0
   -0.1480    1.4930    0.0000 C   0  0  1  0  0  0  0  0  0  0  0  0
    1.2260    2.0950    0.0000 C   0  0  0  0  0  0  0  0  0  0  0  0
    2.2230    0.9740    0.0000 C   0  0  0  0  0  0  0  0  0  0  0  0
    3.6920    1.2780    0.0000 C   0  0  0  0  0  0  0  0  0  0  0  0
    4.6890    0.1570    0.0000 O   0  0  0  0  0  0  0  0  0  0  0  0
    6.1580    0.4610    0.0000 C   0  0  0  0  0  0  0  0  0  0  0  0
    4.1640    2.7020    0.0000 C   0  0  0  0  0  0  0  0  0  0  0  0
    5.6330    3.0050    0.0000 O   0  0  0  0  0  0  0  0  0  0  0  0
    6.1040    4.4290    0.0000 C   0  0  0  0  0  0  0  0  0  0  0  0
    3.1660    3.8220    0.0000 C   0  0  0  0  0  0  0  0  0  0  0  0
    1.6970    3.5190    0.0000 C   0  0  0  0  0  0  0  0  0  0  0  0
    1.4650   -0.3200    0.0000 C   0  0  0  0  0  0  0  0  0  0  0  0
    2.0680   -1.6940    0.0000 O   0  0  0  0  0  0  0  0  0  0  0  0
   -1.4430    2.2500    0.0000 C   0  0  2  0  0  0  0  0  0  0  0  0
   -1.4340    3.7500    0.0000 N   0  0  3  0  0  0  0  0  0  0  0  0
   -2.7290    4.5080    0.0000 C   0  0  0  0  0  0  0  0  0  0  0  0
   -4.0320    3.7650    0.0000 C   0  0  0  0  0  0  0  0  0  0  0  0
   -4.0410    2.2650    0.0000 C   0  0  0  0  0  0  0  0  0  0  0  0
   -2.7460    1.5080    0.0000 C   0  0  0  0  0  0  0  0  0  0  0  0
   -2.7550    0.0080    0.0000 C   0  0  0  0  0  0  0  0  0  0  0  0
   -1.4600   -0.7500    0.0000 O   0  0  0  0  0  0  0  0  0  0  0  0
   -1.4690   -2.2500    0.0000 C   0  0  0  0  0  0  0  0  0  0  0  0
   -4.0580   -0.7350    0.0000 C   0  0  0  0  0  0  0  0  0  0  0  0
   -4.3780   -2.2000    0.0000 O   0  0  0  0  0  0  0  0  0  0  0  0
   -5.8710   -2.3490    0.0000 C   0  0  0  0  0  0  0  0  0  0  0  0
   -6.4730   -0.9750    0.0000 O   0  0  0  0  0  0  0  0  0  0  0  0
   -5.3530    0.0220    0.0000 C   0  0  0  0  0  0  0  0  0  0  0  0
   -5.3440    1.5220    0.0000 C   0  0  0  0  0  0  0  0  0  0  0  0
   -0.1310    4.4930    0.0000 C   0  0  0  0  0  0  0  0  0  0  0  0
  1 13  1  0  0  0  0
  2  1  1  6  0  0  0
  2  3  1  0  0  0  0
  2 15  1  0  0  0  0
  3  4  1  0  0  0  0
  3 12  2  0  0  0  0
  4  5  2  0  0  0  0
  4 13  1  0  0  0  0
  5  6  1  0  0  0  0
  5  8  1  0  0  0  0
  6  7  1  0  0  0  0
  8  9  1  0  0  0  0
  8 11  2  0  0  0  0
  9 10  1  0  0  0  0
 11 12  1  0  0  0  0
 13 14  2  0  0  0  0
 15 16  1  1  0  0  0
 15 20  1  0  0  0  0
 16 17  1  0  0  0  0
 16 30  1  0  0  0  0
 17 18  1  0  0  0  0
 18 19  1  0  0  0  0
 19 20  1  0  0  0  0
 19 29  2  0  0  0  0
 20 21  2  0  0  0  0
 21 22  1  0  0  0  0
 21 24  1  0  0  0  0
 22 23  1  0  0  0  0
 24 25  1  0  0  0  0
 24 28  2  0  0  0  0
 25 26  1  0  0  0  0
 26 27  1  0  0  0  0
 27 28  1  0  0  0  0
 28 29  1  0  0  0  0
M  END
>  <Index>
784

>  <ID>
HT1528

>  <class>
0

>  <apol>
60.770241

>  <ast_fraglike>
0

>  <ast_fraglike_ext>
0

>  <ast_violation>
3

>  <ast_violation_ext>
4

>  <a_acc>
7

>  <a_acid>
0

>  <a_aro>
12

>  <a_base>
0

>  <a_count>
53

>  <a_don>
0

>  <a_donacc>
7

>  <a_heavy>
30

>  <a_hyd>
20

>  <a_IC>
81.778877

>  <a_ICM>
1.5429977

>  <a_nB>
0

>  <a_nBr>
0

>  <a_nC>
22

>  <a_nCl>
0

>  <a_nF>
0

>  <a_nH>
23

>  <a_nI>
0

>  <a_nN>
1

>  <a_nO>
7

>  <a_nP>
0

>  <a_nS>
0

>  <balabanJ>
1.4489152

>  <BCUT_PEOE_0>
-2.6938229

>  <BCUT_PEOE_1>
-0.38718674

>  <BCUT_PEOE_2>
0.35869464

>  <BCUT_PEOE_3>
2.6752789

>  <BCUT_SLOGP_0>
-2.6970167

>  <BCUT_SLOGP_1>
-0.35738796

>  <BCUT_SLOGP_2>
0.45935702

>  <BCUT_SLOGP_3>
2.7528529

>  <BCUT_SMR_0>
-2.4196141

>  <BCUT_SMR_1>
-0.16184118

>  <BCUT_SMR_2>
0.62689453

>  <BCUT_SMR_3>
2.9391894

>  <bpol>
39.577763

>  <b_1rotN>
4

>  <b_1rotR>
0.11764706

>  <b_ar>
12

>  <b_count>
57

>  <b_double>
1

>  <b_heavy>
34

>  <b_max1len>
3

>  <b_rotN>
4

>  <b_rotR>
0.11764706

>  <b_single>
44

>  <b_triple>
0

>  <chi0>
20.990835

>  <chi0v>
17.313023

>  <chi0v_C>
14.008072

>  <chi0_C>
15.170844

>  <chi1>
14.583249

>  <chi1v>
9.7405777

>  <chi1v_C>
5.2522707

>  <chi1_C>
6.7079082

>  <chiral>
2

>  <chiral_u>
0

>  <density>
0.78078943

>  <diameter>
12

>  <FCharge>
0

>  <GCUT_PEOE_0>
-0.84620816

>  <GCUT_PEOE_1>
-0.40361857

>  <GCUT_PEOE_2>
-0.081622422

>  <GCUT_PEOE_3>
2.9101667

>  <GCUT_SLOGP_0>
-0.94363242

>  <GCUT_SLOGP_1>
-0.34368405

>  <GCUT_SLOGP_2>
0.036033772

>  <GCUT_SLOGP_3>
3.0124981

>  <GCUT_SMR_0>
-0.51393038

>  <GCUT_SMR_1>
-0.16565061

>  <GCUT_SMR_2>
0.097706504

>  <GCUT_SMR_3>
3.1690376

>  <Kier1>
21.82526

>  <Kier2>
8.7412529

>  <Kier3>
3.47929

>  <KierA1>
17.930233

>  <KierA2>
7.1298542

>  <KierA3>
2.8234963

>  <KierFlex>
4.2613316

>  <lip_acc>
8

>  <lip_don>
0

>  <lip_druglike>
1

>  <lip_violation>
0

>  <logP(o/w)>
2.79474

>  <logS>
-3.8449099

>  <mr>
10.697532

>  <mutagenic>
0

>  <nmol>
1

>  <opr_brigid>
25

>  <opr_leadlike>
1

>  <opr_nring>
5

>  <opr_nrot>
5

>  <opr_violation>
1

>  <PC+>
0

>  <PC->
0

>  <PEOE_PC+>
2.688688

>  <PEOE_PC->
-2.688688

>  <PEOE_RPC+>
0.11060052

>  <PEOE_RPC->
0.12843411

>  <PEOE_VSA+0>
120.25154

>  <PEOE_VSA+1>
73.600677

>  <PEOE_VSA+2>
47.197525

>  <PEOE_VSA+3>
21.201273

>  <PEOE_VSA+4>
0

>  <PEOE_VSA+5>
14.708499

>  <PEOE_VSA+6>
0

>  <PEOE_VSA-0>
60.86689

>  <PEOE_VSA-1>
12.254904

>  <PEOE_VSA-2>
0

>  <PEOE_VSA-3>
0

>  <PEOE_VSA-4>
0

>  <PEOE_VSA-5>
13.566921

>  <PEOE_VSA-6>
15.022536

>  <PEOE_VSA_FHYD>
0.88565803

>  <PEOE_VSA_FNEG>
0.26860076

>  <PEOE_VSA_FPNEG>
0.075499512

>  <PEOE_VSA_FPOL>
0.11434196

>  <PEOE_VSA_FPOS>
0.73139924

>  <PEOE_VSA_FPPOS>
0.038842447

>  <PEOE_VSA_HYD>
335.3728

>  <PEOE_VSA_NEG>
101.71125

>  <PEOE_VSA_PNEG>
28.589458

>  <PEOE_VSA_POL>
43.297958

>  <PEOE_VSA_POS>
276.9595

>  <PEOE_VSA_PPOS>
14.708499

>  <petitjean>
0.5

>  <petitjeanSC>
1

>  <Q_PC+>
0

>  <Q_PC->
0

>  <Q_RPC+>
0

>  <Q_RPC->
0

>  <Q_VSA_FHYD>
1

>  <Q_VSA_FNEG>
0

>  <Q_VSA_FPNEG>
0

>  <Q_VSA_FPOL>
0

>  <Q_VSA_FPOS>
1

>  <Q_VSA_FPPOS>
0

>  <Q_VSA_HYD>
378.67078

>  <Q_VSA_NEG>
0

>  <Q_VSA_PNEG>
0

>  <Q_VSA_POL>
0

>  <Q_VSA_POS>
378.67078

>  <Q_VSA_PPOS>
0

>  <radius>
6

>  <reactive>
1

>  <rings>
5

>  <RPC+>
0

>  <RPC->
0

>  <rsynth>
1

>  <SlogP>
3.0727701

>  <SlogP_VSA0>
54.999439

>  <SlogP_VSA1>
10.869778

>  <SlogP_VSA2>
10.999887

>  <SlogP_VSA3>
41.423691

>  <SlogP_VSA4>
36.604515

>  <SlogP_VSA5>
157.91719

>  <SlogP_VSA6>
0

>  <SlogP_VSA7>
52.929554

>  <SlogP_VSA8>
10.450618

>  <SlogP_VSA9>
26.21714

>  <SMR>
10.61165

>  <SMR_VSA0>
34.862103

>  <SMR_VSA1>
58.123753

>  <SMR_VSA2>
0

>  <SMR_VSA3>
49.410057

>  <SMR_VSA4>
0

>  <SMR_VSA5>
71.797958

>  <SMR_VSA6>
49.169155

>  <SMR_VSA7>
139.0488

>  <TPSA>
75.690002

>  <VAdjEq>
0.38632196

>  <VAdjMa>
6.0874629

>  <VDistEq>
3.3109765

>  <VDistMa>
9.5622263

>  <vdw_area>
378.67078

>  <vdw_vol>
529.49744

>  <vsa_acc>
26.085701

>  <vsa_acid>
0

>  <vsa_base>
0

>  <vsa_don>
0

>  <vsa_hyd>
290.69305

>  <vsa_other>
45.52071

>  <vsa_pol>
26.085701

>  <Weight>
413.42599

>  <weinerPath>
2155

>  <weinerPol>
59

>  <zagreb>
170

$$$$