FC(F)(F)c1cc(NC(=O)c2cc(Nc3nc(ccn3)-c3cccnc3)c(cc2)C)cc(-n2cc(nc2)C)c1
  MOE2013           2D

 39 43  0  0  0  0  0  0  0  0999 V2000
    0.0000    0.0000    0.0000 F   0  0  0  0  0  0  0  0  0  0  0  0
   -1.5000    0.0040    0.0000 C   0  0  0  0  0  0  0  0  0  0  0  0
   -3.0000    0.0090    0.0000 F   0  0  0  0  0  0  0  0  0  0  0  0
   -1.4960    1.5040    0.0000 F   0  0  0  0  0  0  0  0  0  0  0  0
   -1.5040   -1.4960    0.0000 C   0  0  0  0  0  0  0  0  0  0  0  0
   -2.8050   -2.2420    0.0000 C   0  0  0  0  0  0  0  0  0  0  0  0
   -2.8100   -3.7420    0.0000 C   0  0  0  0  0  0  0  0  0  0  0  0
   -4.1110   -4.4880    0.0000 N   0  0  0  0  0  0  0  0  0  0  0  0
   -5.4080   -3.7350    0.0000 C   0  0  0  0  0  0  0  0  0  0  0  0
   -5.4040   -2.2350    0.0000 O   0  0  0  0  0  0  0  0  0  0  0  0
   -6.7090   -4.4810    0.0000 C   0  0  0  0  0  0  0  0  0  0  0  0
   -8.0060   -3.7270    0.0000 C   0  0  0  0  0  0  0  0  0  0  0  0
   -9.3070   -4.4730    0.0000 C   0  0  0  0  0  0  0  0  0  0  0  0
  -10.6040   -3.7200    0.0000 N   0  0  0  0  0  0  0  0  0  0  0  0
  -10.6000   -2.2200    0.0000 C   0  0  0  0  0  0  0  0  0  0  0  0
  -11.8970   -1.4660    0.0000 N   0  0  0  0  0  0  0  0  0  0  0  0
  -11.8920    0.0340    0.0000 C   0  0  0  0  0  0  0  0  0  0  0  0
  -10.5910    0.7800    0.0000 C   0  0  0  0  0  0  0  0  0  0  0  0
   -9.2940    0.0270    0.0000 C   0  0  0  0  0  0  0  0  0  0  0  0
   -9.2980   -1.4730    0.0000 N   0  0  0  0  0  0  0  0  0  0  0  0
  -13.1890    0.7880    0.0000 C   0  0  0  0  0  0  0  0  0  0  0  0
  -14.4900    0.0410    0.0000 C   0  0  0  0  0  0  0  0  0  0  0  0
  -15.7870    0.7950    0.0000 C   0  0  0  0  0  0  0  0  0  0  0  0
  -15.7830    2.2950    0.0000 C   0  0  0  0  0  0  0  0  0  0  0  0
  -14.4820    3.0410    0.0000 N   0  0  0  0  0  0  0  0  0  0  0  0
  -13.1850    2.2880    0.0000 C   0  0  0  0  0  0  0  0  0  0  0  0
   -9.3110   -5.9730    0.0000 C   0  0  0  0  0  0  0  0  0  0  0  0
   -8.0140   -6.7270    0.0000 C   0  0  0  0  0  0  0  0  0  0  0  0
   -6.7130   -5.9810    0.0000 C   0  0  0  0  0  0  0  0  0  0  0  0
  -10.6120   -6.7200    0.0000 C   0  0  0  0  0  0  0  0  0  0  0  0
   -1.5130   -4.4960    0.0000 C   0  0  0  0  0  0  0  0  0  0  0  0
   -0.2120   -3.7490    0.0000 C   0  0  0  0  0  0  0  0  0  0  0  0
    1.0850   -4.5030    0.0000 N   0  0  0  0  0  0  0  0  0  0  0  0
    2.4570   -3.8970    0.0000 C   0  0  0  0  0  0  0  0  0  0  0  0
    3.4580   -5.0150    0.0000 C   0  0  0  0  0  0  0  0  0  0  0  0
    2.7040   -6.3110    0.0000 N   0  0  0  0  0  0  0  0  0  0  0  0
    1.2380   -5.9950    0.0000 C   0  0  0  0  0  0  0  0  0  0  0  0
    4.9500   -4.8620    0.0000 C   0  0  0  0  0  0  0  0  0  0  0  0
   -0.2070   -2.2490    0.0000 C   0  0  0  0  0  0  0  0  0  0  0  0
  1  2  1  0  0  0  0
  2  3  1  0  0  0  0
  2  4  1  0  0  0  0
  2  5  1  0  0  0  0
  5  6  1  0  0  0  0
  5 39  2  0  0  0  0
  6  7  2  0  0  0  0
  7  8  1  0  0  0  0
  7 31  1  0  0  0  0
  8  9  1  0  0  0  0
  9 10  2  0  0  0  0
  9 11  1  0  0  0  0
 11 12  1  0  0  0  0
 11 29  2  0  0  0  0
 12 13  2  0  0  0  0
 13 14  1  0  0  0  0
 13 27  1  0  0  0  0
 14 15  1  0  0  0  0
 15 16  1  0  0  0  0
 15 20  2  0  0  0  0
 16 17  2  0  0  0  0
 17 18  1  0  0  0  0
 17 21  1  0  0  0  0
 18 19  2  0  0  0  0
 19 20  1  0  0  0  0
 21 22  1  0  0  0  0
 21 26  2  0  0  0  0
 22 23  2  0  0  0  0
 23 24  1  0  0  0  0
 24 25  2  0  0  0  0
 25 26  1  0  0  0  0
 27 28  2  0  0  0  0
 27 30  1  0  0  0  0
 28 29  1  0  0  0  0
 31 32  2  0  0  0  0
 32 33  1  0  0  0  0
 32 39  1  0  0  0  0
 33 34  1  0  0  0  0
 33 37  1  0  0  0  0
 34 35  2  0  0  0  0
 35 36  1  0  0  0  0
 35 38  1  0  0  0  0
 36 37  2  0  0  0  0
M  END
>  <Index>
768

>  <ID>
HT1492

>  <class>
0

>  <apol>
74.122444

>  <ast_fraglike>
0

>  <ast_fraglike_ext>
0

>  <ast_violation>
3

>  <ast_violation_ext>
4

>  <a_acc>
5

>  <a_acid>
0

>  <a_aro>
29

>  <a_base>
0

>  <a_count>
61

>  <a_don>
2

>  <a_donacc>
7

>  <a_heavy>
39

>  <a_hyd>
28

>  <a_IC>
104.65517

>  <a_ICM>
1.7156585

>  <a_nB>
0

>  <a_nBr>
0

>  <a_nC>
28

>  <a_nCl>
0

>  <a_nF>
3

>  <a_nH>
22

>  <a_nI>
0

>  <a_nN>
7

>  <a_nO>
1

>  <a_nP>
0

>  <a_nS>
0

>  <balabanJ>
1.1520803

>  <BCUT_PEOE_0>
-2.343488

>  <BCUT_PEOE_1>
-0.58093035

>  <BCUT_PEOE_2>
0.65408969

>  <BCUT_PEOE_3>
2.3768482

>  <BCUT_SLOGP_0>
-2.3143172

>  <BCUT_SLOGP_1>
-0.49226642

>  <BCUT_SLOGP_2>
0.68757725

>  <BCUT_SLOGP_3>
2.4910841

>  <BCUT_SMR_0>
-2.0255713

>  <BCUT_SMR_1>
-0.43578905

>  <BCUT_SMR_2>
0.82435888

>  <BCUT_SMR_3>
2.6528728

>  <bpol>
37.197556

>  <b_1rotN>
6

>  <b_1rotR>
0.13953489

>  <b_ar>
29

>  <b_count>
65

>  <b_double>
1

>  <b_heavy>
43

>  <b_max1len>
2

>  <b_rotN>
8

>  <b_rotR>
0.18604651

>  <b_single>
35

>  <b_triple>
0

>  <chi0>
27.570339

>  <chi0v>
20.861113

>  <chi0v_C>
16.082903

>  <chi0_C>
18.750347

>  <chi1>
18.652018

>  <chi1v>
11.813084

>  <chi1v_C>
7.3747854

>  <chi1_C>
10.158852

>  <chiral>
0

>  <chiral_u>
0

>  <density>
0.7923407

>  <diameter>
19

>  <FCharge>
0

>  <GCUT_PEOE_0>
-0.83300394

>  <GCUT_PEOE_1>
-0.38052246

>  <GCUT_PEOE_2>
0.079631478

>  <GCUT_PEOE_3>
2.6274362

>  <GCUT_SLOGP_0>
-0.99316311

>  <GCUT_SLOGP_1>
-0.31497341

>  <GCUT_SLOGP_2>
0.2193535

>  <GCUT_SLOGP_3>
2.7469978

>  <GCUT_SMR_0>
-0.48013121

>  <GCUT_SMR_1>
-0.19984017

>  <GCUT_SMR_2>
0.24148309

>  <GCUT_SMR_3>
2.9255989

>  <Kier1>
30.457544

>  <Kier2>
13.533298

>  <Kier3>
8.0946741

>  <KierA1>
20.412256

>  <KierA2>
8.966197

>  <KierA3>
5.3187747

>  <KierFlex>
4.6928287

>  <lip_acc>
8

>  <lip_don>
2

>  <lip_druglike>
0

>  <lip_violation>
2

>  <logP(o/w)>
4.33676

>  <logS>
-7.4693298

>  <mr>
14.133327

>  <mutagenic>
0

>  <nmol>
1

>  <opr_brigid>
29

>  <opr_leadlike>
0

>  <opr_nring>
5

>  <opr_nrot>
6

>  <opr_violation>
3

>  <PC+>
0

>  <PC->
0

>  <PEOE_PC+>
2.9696498

>  <PEOE_PC->
-2.9696498

>  <PEOE_RPC+>
0.14060526

>  <PEOE_RPC->
0.10845247

>  <PEOE_VSA+0>
117.09171

>  <PEOE_VSA+1>
71.057663

>  <PEOE_VSA+2>
34.121326

>  <PEOE_VSA+3>
8.6190128

>  <PEOE_VSA+4>
15.681574

>  <PEOE_VSA+5>
12.949531

>  <PEOE_VSA+6>
9.0455017

>  <PEOE_VSA-0>
137.74313

>  <PEOE_VSA-1>
12.254904

>  <PEOE_VSA-2>
0

>  <PEOE_VSA-3>
35.725906

>  <PEOE_VSA-4>
17.18462

>  <PEOE_VSA-5>
19.249496

>  <PEOE_VSA-6>
0.13689101

>  <PEOE_VSA_FHYD>
0.8487401

>  <PEOE_VSA_FNEG>
0.45286715

>  <PEOE_VSA_FPNEG>
0.074503757

>  <PEOE_VSA_FPOL>
0.15125988

>  <PEOE_VSA_FPOS>
0.54713285

>  <PEOE_VSA_FPPOS>
0.07675612

>  <PEOE_VSA_HYD>
416.61365

>  <PEOE_VSA_NEG>
222.29494

>  <PEOE_VSA_PNEG>
36.571007

>  <PEOE_VSA_POL>
74.247612

>  <PEOE_VSA_POS>
268.56631

>  <PEOE_VSA_PPOS>
37.676609

>  <petitjean>
0.47368422

>  <petitjeanSC>
0.89999998

>  <Q_PC+>
0

>  <Q_PC->
0

>  <Q_RPC+>
0

>  <Q_RPC->
0

>  <Q_VSA_FHYD>
1

>  <Q_VSA_FNEG>
0

>  <Q_VSA_FPNEG>
0

>  <Q_VSA_FPOL>
0

>  <Q_VSA_FPOS>
1

>  <Q_VSA_FPPOS>
0

>  <Q_VSA_HYD>
490.86127

>  <Q_VSA_NEG>
0

>  <Q_VSA_PNEG>
0

>  <Q_VSA_POL>
0

>  <Q_VSA_POS>
490.86127

>  <Q_VSA_PPOS>
0

>  <radius>
10

>  <reactive>
0

>  <rings>
5

>  <RPC+>
0

>  <RPC->
0

>  <rsynth>
1

>  <SlogP>
6.6673398

>  <SlogP_VSA0>
0

>  <SlogP_VSA1>
110.3215

>  <SlogP_VSA2>
0

>  <SlogP_VSA3>
0

>  <SlogP_VSA4>
36.17569

>  <SlogP_VSA5>
0

>  <SlogP_VSA6>
7.7595162

>  <SlogP_VSA7>
253.13069

>  <SlogP_VSA8>
0

>  <SlogP_VSA9>
118.94495

>  <SMR>
14.10979

>  <SMR_VSA0>
23.862217

>  <SMR_VSA1>
113.92155

>  <SMR_VSA2>
7.7595162

>  <SMR_VSA3>
12.313473

>  <SMR_VSA4>
52.13316

>  <SMR_VSA5>
244.43161

>  <SMR_VSA6>
5.2587838

>  <SMR_VSA7>
66.652031

>  <TPSA>
97.620003

>  <VAdjEq>
0.31356117

>  <VAdjMa>
6.4262648

>  <VDistEq>
4.0113072

>  <VDistMa>
10.27428

>  <vdw_area>
490.86127

>  <vdw_vol>
668.30591

>  <vsa_acc>
36.297226

>  <vsa_acid>
0

>  <vsa_base>
0

>  <vsa_don>
11.365152

>  <vsa_hyd>
369.39468

>  <vsa_other>
53.421623

>  <vsa_pol>
47.662376

>  <Weight>
529.526

>  <weinerPath>
5525

>  <weinerPol>
61

>  <zagreb>
210

$$$$