O1c2c(cc3c(N(CC)C(=CC3=O)C(O)=O)c2CCC)C(=O)C=C1C(O)=O
  MOE2013           2D

 27 29  0  0  1  0  0  0  0  0999 V2000
    0.0000    0.0000    0.0000 O   0  0  0  0  0  0  0  0  0  0  0  0
    0.7500   -1.2990    0.0000 C   0  0  0  0  0  0  0  0  0  0  0  0
    0.0010   -2.5980    0.0000 C   0  0  0  0  0  0  0  0  0  0  0  0
    0.7510   -3.8970    0.0000 C   0  0  0  0  0  0  0  0  0  0  0  0
    2.2510   -3.8970    0.0000 C   0  0  0  0  0  0  0  0  0  0  0  0
    3.0010   -2.5970    0.0000 C   0  0  0  0  0  0  0  0  0  0  0  0
    4.5010   -2.5970    0.0000 N   0  0  3  0  0  0  0  0  0  0  0  0
    5.2500   -1.2980    0.0000 C   0  0  0  0  0  0  0  0  0  0  0  0
    6.7500   -1.2980    0.0000 C   0  0  0  0  0  0  0  0  0  0  0  0
    5.2510   -3.8960    0.0000 C   0  0  0  0  0  0  0  0  0  0  0  0
    4.5010   -5.1950    0.0000 C   0  0  0  0  0  0  0  0  0  0  0  0
    3.0010   -5.1960    0.0000 C   0  0  0  0  0  0  0  0  0  0  0  0
    2.2510   -6.4950    0.0000 O   0  0  0  0  0  0  0  0  0  0  0  0
    6.7510   -3.8960    0.0000 C   0  0  0  0  0  0  0  0  0  0  0  0
    7.5010   -5.1950    0.0000 O   0  0  0  0  0  0  0  0  0  0  0  0
    7.5010   -2.5960    0.0000 O   0  0  0  0  0  0  0  0  0  0  0  0
    2.2500   -1.2990    0.0000 C   0  0  0  0  0  0  0  0  0  0  0  0
    3.0000    0.0010    0.0000 C   0  0  0  0  0  0  0  0  0  0  0  0
    2.2500    1.3000    0.0000 C   0  0  0  0  0  0  0  0  0  0  0  0
    2.9990    2.5990    0.0000 C   0  0  0  0  0  0  0  0  0  0  0  0
   -1.4990   -2.5980    0.0000 C   0  0  0  0  0  0  0  0  0  0  0  0
   -2.2490   -3.8980    0.0000 O   0  0  0  0  0  0  0  0  0  0  0  0
   -2.2500   -1.3000    0.0000 C   0  0  0  0  0  0  0  0  0  0  0  0
   -1.5000    0.0000    0.0000 C   0  0  0  0  0  0  0  0  0  0  0  0
   -2.2500    1.2990    0.0000 C   0  0  0  0  0  0  0  0  0  0  0  0
   -1.5010    2.5980    0.0000 O   0  0  0  0  0  0  0  0  0  0  0  0
   -3.7500    1.2980    0.0000 O   0  0  0  0  0  0  0  0  0  0  0  0
  1  2  1  0  0  0  0
  1 24  1  0  0  0  0
  2  3  1  0  0  0  0
  2 17  2  0  0  0  0
  3  4  2  0  0  0  0
  3 21  1  0  0  0  0
  4  5  1  0  0  0  0
  5  6  2  0  0  0  0
  5 12  1  0  0  0  0
  6  7  1  0  0  0  0
  6 17  1  0  0  0  0
  7  8  1  0  0  0  0
  7 10  1  0  0  0  0
  8  9  1  0  0  0  0
 10 11  2  0  0  0  0
 10 14  1  0  0  0  0
 11 12  1  0  0  0  0
 12 13  2  0  0  0  0
 14 15  1  0  0  0  0
 14 16  2  0  0  0  0
 17 18  1  0  0  0  0
 18 19  1  0  0  0  0
 19 20  1  0  0  0  0
 21 22  2  0  0  0  0
 21 23  1  0  0  0  0
 23 24  2  0  0  0  0
 24 25  1  0  0  0  0
 25 26  1  0  0  0  0
 25 27  2  0  0  0  0
M  END
>  <Index>
753

>  <ID>
HT1469

>  <class>
0

>  <apol>
51.489483

>  <ast_fraglike>
0

>  <ast_fraglike_ext>
0

>  <ast_violation>
3

>  <ast_violation_ext>
5

>  <a_acc>
6

>  <a_acid>
0

>  <a_aro>
6

>  <a_base>
0

>  <a_count>
44

>  <a_don>
4

>  <a_donacc>
10

>  <a_heavy>
27

>  <a_hyd>
15

>  <a_IC>
70.366013

>  <a_ICM>
1.5992277

>  <a_nB>
0

>  <a_nBr>
0

>  <a_nC>
19

>  <a_nCl>
0

>  <a_nF>
0

>  <a_nH>
17

>  <a_nI>
0

>  <a_nN>
1

>  <a_nO>
7

>  <a_nP>
0

>  <a_nS>
0

>  <balabanJ>
1.9558841

>  <BCUT_PEOE_0>
-2.5565498

>  <BCUT_PEOE_1>
-0.57331693

>  <BCUT_PEOE_2>
0.56077737

>  <BCUT_PEOE_3>
2.5250933

>  <BCUT_SLOGP_0>
-2.556468

>  <BCUT_SLOGP_1>
-0.53497452

>  <BCUT_SLOGP_2>
0.58187532

>  <BCUT_SLOGP_3>
2.6290565

>  <BCUT_SMR_0>
-2.2845724

>  <BCUT_SMR_1>
-0.36471036

>  <BCUT_SMR_2>
0.7212835

>  <BCUT_SMR_3>
2.8206573

>  <bpol>
26.312519

>  <b_1rotN>
5

>  <b_1rotR>
0.1724138

>  <b_ar>
6

>  <b_count>
46

>  <b_double>
6

>  <b_heavy>
29

>  <b_max1len>
4

>  <b_rotN>
5

>  <b_rotR>
0.1724138

>  <b_single>
34

>  <b_triple>
0

>  <chi0>
19.877951

>  <chi0v>
14.736254

>  <chi0v_C>
11.353372

>  <chi0_C>
12.593493

>  <chi1>
12.794131

>  <chi1v>
8.4352179

>  <chi1v_C>
5.9998178

>  <chi1_C>
7.4386182

>  <chiral>
0

>  <chiral_u>
0

>  <density>
0.81225526

>  <diameter>
10

>  <FCharge>
0

>  <GCUT_PEOE_0>
-0.8054387

>  <GCUT_PEOE_1>
-0.4894565

>  <GCUT_PEOE_2>
0.090266049

>  <GCUT_PEOE_3>
2.7384148

>  <GCUT_SLOGP_0>
-0.94462526

>  <GCUT_SLOGP_1>
-0.38497826

>  <GCUT_SLOGP_2>
0.12712806

>  <GCUT_SLOGP_3>
2.8082814

>  <GCUT_SMR_0>
-0.52491117

>  <GCUT_SMR_1>
-0.24465184

>  <GCUT_SMR_2>
0.24483627

>  <GCUT_SMR_3>
3.020179

>  <Kier1>
21.702734

>  <Kier2>
8.7885342

>  <Kier3>
4.0247245

>  <KierA1>
15.746194

>  <KierA2>
6.2915154

>  <KierA3>
2.8525732

>  <KierFlex>
3.6691637

>  <lip_acc>
8

>  <lip_don>
2

>  <lip_druglike>
1

>  <lip_violation>
0

>  <logP(o/w)>
2.392

>  <logS>
-5.2429199

>  <mr>
9.3790808

>  <mutagenic>
0

>  <nmol>
1

>  <opr_brigid>
16

>  <opr_leadlike>
1

>  <opr_nring>
3

>  <opr_nrot>
5

>  <opr_violation>
0

>  <PC+>
0

>  <PC->
0

>  <PEOE_PC+>
2.5117357

>  <PEOE_PC->
-2.5117357

>  <PEOE_RPC+>
0.12540361

>  <PEOE_RPC->
0.13008854

>  <PEOE_VSA+0>
100.0034

>  <PEOE_VSA+1>
30.162767

>  <PEOE_VSA+2>
0

>  <PEOE_VSA+3>
25.375559

>  <PEOE_VSA+4>
20.648346

>  <PEOE_VSA+5>
0

>  <PEOE_VSA+6>
29.416998

>  <PEOE_VSA-0>
20.956217

>  <PEOE_VSA-1>
46.196667

>  <PEOE_VSA-2>
0

>  <PEOE_VSA-3>
0

>  <PEOE_VSA-4>
0

>  <PEOE_VSA-5>
54.267685

>  <PEOE_VSA-6>
18.038837

>  <PEOE_VSA_FHYD>
0.64536726

>  <PEOE_VSA_FNEG>
0.4041523

>  <PEOE_VSA_FPNEG>
0.20954375

>  <PEOE_VSA_FPOL>
0.35463274

>  <PEOE_VSA_FPOS>
0.59584773

>  <PEOE_VSA_FPPOS>
0.14508899

>  <PEOE_VSA_HYD>
222.69461

>  <PEOE_VSA_NEG>
139.45941

>  <PEOE_VSA_PNEG>
72.306519

>  <PEOE_VSA_POL>
122.37186

>  <PEOE_VSA_POS>
205.60707

>  <PEOE_VSA_PPOS>
50.065342

>  <petitjean>
0.5

>  <petitjeanSC>
1

>  <Q_PC+>
0

>  <Q_PC->
0

>  <Q_RPC+>
0

>  <Q_RPC->
0

>  <Q_VSA_FHYD>
1

>  <Q_VSA_FNEG>
0

>  <Q_VSA_FPNEG>
0

>  <Q_VSA_FPOL>
0

>  <Q_VSA_FPOS>
1

>  <Q_VSA_FPPOS>
0

>  <Q_VSA_HYD>
345.06647

>  <Q_VSA_NEG>
0

>  <Q_VSA_PNEG>
0

>  <Q_VSA_POL>
0

>  <Q_VSA_POS>
345.06647

>  <Q_VSA_PPOS>
0

>  <radius>
5

>  <reactive>
0

>  <rings>
3

>  <RPC+>
0

>  <RPC->
0

>  <rsynth>
1

>  <SlogP>
2.17377

>  <SlogP_VSA0>
14.124202

>  <SlogP_VSA1>
26.86615

>  <SlogP_VSA2>
47.724434

>  <SlogP_VSA3>
69.21003

>  <SlogP_VSA4>
57.281158

>  <SlogP_VSA5>
26.868582

>  <SlogP_VSA6>
0

>  <SlogP_VSA7>
52.929554

>  <SlogP_VSA8>
18.868406

>  <SlogP_VSA9>
74.652206

>  <SMR>
9.4183598

>  <SMR_VSA0>
95.448868

>  <SMR_VSA1>
10.999887

>  <SMR_VSA2>
53.894768

>  <SMR_VSA3>
22.800329

>  <SMR_VSA4>
2.7567475

>  <SMR_VSA5>
90.666367

>  <SMR_VSA6>
45.305729

>  <SMR_VSA7>
66.652031

>  <TPSA>
121.21

>  <VAdjEq>
0.40063059

>  <VAdjMa>
5.8579812

>  <VDistEq>
3.1187828

>  <VDistMa>
9.2743359

>  <vdw_area>
345.06647

>  <vdw_vol>
457.1777

>  <vsa_acc>
27.133842

>  <vsa_acid>
0

>  <vsa_base>
0

>  <vsa_don>
0

>  <vsa_hyd>
195.10063

>  <vsa_other>
48.837795

>  <vsa_pol>
81.401527

>  <Weight>
371.345

>  <weinerPath>
1602

>  <weinerPol>
52

>  <zagreb>
144

$$$$