O1[C@@H]2[C@]34CCN([C@H](Cc5c3c1c(O)cc5)[C@]4(O)CCC2=O)CC=C
  MOE2013           2D

 24 28  0  0  1  0  0  0  0  0999 V2000
    0.0000    0.0000    0.0000 O   0  0  0  0  0  0  0  0  0  0  0  0
    1.2910   -1.2130    0.0000 C   0  0  2  0  0  0  0  0  0  0  0  0
    2.3910   -0.3040    0.0000 C   0  0  2  0  0  0  0  0  0  0  0  0
    3.2250    0.8920    0.0000 C   0  0  0  0  0  0  0  0  0  0  0  0
    5.3660    1.1090    0.0000 C   0  0  0  0  0  0  0  0  0  0  0  0
    6.2870    0.0020    0.0000 N   0  0  3  0  0  0  0  0  0  0  0  0
    4.8470    0.1180    0.0000 C   0  0  2  0  0  0  0  0  0  0  0  0
    4.5950    1.5320    0.0000 C   0  0  0  0  0  0  0  0  0  0  0  0
    3.2440    2.0320    0.0000 C   0  0  0  0  0  0  0  0  0  0  0  0
    2.1430    1.1150    0.0000 C   0  0  0  0  0  0  0  0  0  0  0  0
    0.8000    1.6040    0.0000 C   0  0  0  0  0  0  0  0  0  0  0  0
    0.5580    3.0190    0.0000 C   0  0  0  0  0  0  0  0  0  0  0  0
   -0.8500    3.5390    0.0000 O   0  0  0  0  0  0  0  0  0  0  0  0
    1.6580    3.9360    0.0000 C   0  0  0  0  0  0  0  0  0  0  0  0
    3.0010    3.4360    0.0000 C   0  0  0  0  0  0  0  0  0  0  0  0
    3.7360   -0.8040    0.0000 C   0  0  1  0  0  0  0  0  0  0  0  0
    5.1450   -1.3170    0.0000 O   0  0  0  0  0  0  0  0  0  0  0  0
    3.9810   -2.2130    0.0000 C   0  0  0  0  0  0  0  0  0  0  0  0
    2.8730   -3.1260    0.0000 C   0  0  0  0  0  0  0  0  0  0  0  0
    1.5280   -2.6260    0.0000 C   0  0  0  0  0  0  0  0  0  0  0  0
    0.3710   -3.5810    0.0000 O   0  0  0  0  0  0  0  0  0  0  0  0
    7.6190   -0.6880    0.0000 C   0  0  0  0  0  0  0  0  0  0  0  0
    8.8830    0.1200    0.0000 C   0  0  0  0  0  0  0  0  0  0  0  0
   10.2140   -0.5700    0.0000 C   0  0  0  0  0  0  0  0  0  0  0  0
  1 11  1  0  0  0  0
  2  1  1  6  0  0  0
  2  3  1  0  0  0  0
  2 20  1  0  0  0  0
  3  4  1  1  0  0  0
  3 10  1  0  0  0  0
  3 16  1  0  0  0  0
  4  5  1  0  0  0  0
  5  6  1  0  0  0  0
  6 22  1  0  0  0  0
  7  6  1  1  0  0  0
  7  8  1  0  0  0  0
  7 16  1  0  0  0  0
  8  9  1  0  0  0  0
  9 10  1  0  0  0  0
  9 15  2  0  0  0  0
 10 11  2  0  0  0  0
 11 12  1  0  0  0  0
 12 13  1  0  0  0  0
 12 14  2  0  0  0  0
 14 15  1  0  0  0  0
 16 17  1  1  0  0  0
 16 18  1  0  0  0  0
 18 19  1  0  0  0  0
 19 20  1  0  0  0  0
 20 21  2  0  0  0  0
 22 23  1  0  0  0  0
 23 24  2  0  0  0  0
M  END
>  <Index>
746

>  <ID>
HT1459

>  <class>
0

>  <apol>
51.750652

>  <ast_fraglike>
0

>  <ast_fraglike_ext>
0

>  <ast_violation>
2

>  <ast_violation_ext>
2

>  <a_acc>
5

>  <a_acid>
0

>  <a_aro>
6

>  <a_base>
0

>  <a_count>
45

>  <a_don>
2

>  <a_donacc>
7

>  <a_heavy>
24

>  <a_hyd>
18

>  <a_IC>
66.184097

>  <a_ICM>
1.4707578

>  <a_nB>
0

>  <a_nBr>
0

>  <a_nC>
19

>  <a_nCl>
0

>  <a_nF>
0

>  <a_nH>
21

>  <a_nI>
0

>  <a_nN>
1

>  <a_nO>
4

>  <a_nP>
0

>  <a_nS>
0

>  <balabanJ>
1.6421607

>  <BCUT_PEOE_0>
-2.8877058

>  <BCUT_PEOE_1>
-0.67042524

>  <BCUT_PEOE_2>
0.67637569

>  <BCUT_PEOE_3>
2.9336452

>  <BCUT_SLOGP_0>
-2.992213

>  <BCUT_SLOGP_1>
-0.61145771

>  <BCUT_SLOGP_2>
0.71460819

>  <BCUT_SLOGP_3>
2.8624866

>  <BCUT_SMR_0>
-2.6441195

>  <BCUT_SMR_1>
-0.45872861

>  <BCUT_SMR_2>
0.85650313

>  <BCUT_SMR_3>
3.1708486

>  <bpol>
27.811346

>  <b_1rotN>
2

>  <b_1rotR>
0.071428575

>  <b_ar>
6

>  <b_count>
49

>  <b_double>
2

>  <b_heavy>
28

>  <b_max1len>
3

>  <b_rotN>
2

>  <b_rotR>
0.071428575

>  <b_single>
41

>  <b_triple>
0

>  <chi0>
16.689871

>  <chi0v>
13.494637

>  <chi0v_C>
11.336499

>  <chi0_C>
12.405413

>  <chi1>
11.525841

>  <chi1v>
8.6474857

>  <chi1v_C>
6.6656675

>  <chi1_C>
7.9048138

>  <chiral>
4

>  <chiral_u>
0

>  <density>
0.7582615

>  <diameter>
10

>  <FCharge>
0

>  <GCUT_PEOE_0>
-0.84550279

>  <GCUT_PEOE_1>
-0.43450537

>  <GCUT_PEOE_2>
0.051996414

>  <GCUT_PEOE_3>
3.1587508

>  <GCUT_SLOGP_0>
-0.96350193

>  <GCUT_SLOGP_1>
-0.35918429

>  <GCUT_SLOGP_2>
0.074956022

>  <GCUT_SLOGP_3>
3.157371

>  <GCUT_SMR_0>
-0.52116382

>  <GCUT_SMR_1>
-0.23198815

>  <GCUT_SMR_2>
0.22371185

>  <GCUT_SMR_3>
3.3984733

>  <Kier1>
16.193878

>  <Kier2>
5.2608695

>  <Kier3>
1.8069333

>  <KierA1>
13.560033

>  <KierA2>
4.369215

>  <KierA3>
1.4918379

>  <KierFlex>
2.4686124

>  <lip_acc>
5

>  <lip_don>
2

>  <lip_druglike>
1

>  <lip_violation>
0

>  <logP(o/w)>
1.161

>  <logS>
-2.2962401

>  <mr>
8.7209644

>  <mutagenic>
0

>  <nmol>
1

>  <opr_brigid>
23

>  <opr_leadlike>
1

>  <opr_nring>
5

>  <opr_nrot>
2

>  <opr_violation>
1

>  <PC+>
0

>  <PC->
0

>  <PEOE_PC+>
2.0120325

>  <PEOE_PC->
-2.0120325

>  <PEOE_RPC+>
0.10806075

>  <PEOE_RPC->
0.19185586

>  <PEOE_VSA+0>
95.89048

>  <PEOE_VSA+1>
25.592316

>  <PEOE_VSA+2>
21.821968

>  <PEOE_VSA+3>
8.458519

>  <PEOE_VSA+4>
20.648346

>  <PEOE_VSA+5>
0

>  <PEOE_VSA+6>
0

>  <PEOE_VSA-0>
40.567383

>  <PEOE_VSA-1>
24.509808

>  <PEOE_VSA-2>
22.301268

>  <PEOE_VSA-3>
0

>  <PEOE_VSA-4>
0

>  <PEOE_VSA-5>
13.566921

>  <PEOE_VSA-6>
18.038837

>  <PEOE_VSA_FHYD>
0.82067657

>  <PEOE_VSA_FNEG>
0.40832502

>  <PEOE_VSA_FPNEG>
0.10846331

>  <PEOE_VSA_FPOL>
0.17932343

>  <PEOE_VSA_FPOS>
0.59167498

>  <PEOE_VSA_FPPOS>
0.070860125

>  <PEOE_VSA_HYD>
239.14174

>  <PEOE_VSA_NEG>
118.98421

>  <PEOE_VSA_PNEG>
31.605757

>  <PEOE_VSA_POL>
52.254105

>  <PEOE_VSA_POS>
172.41164

>  <PEOE_VSA_PPOS>
20.648346

>  <petitjean>
0.5

>  <petitjeanSC>
1

>  <Q_PC+>
0

>  <Q_PC->
0

>  <Q_RPC+>
0

>  <Q_RPC->
0

>  <Q_VSA_FHYD>
1

>  <Q_VSA_FNEG>
0

>  <Q_VSA_FPNEG>
0

>  <Q_VSA_FPOL>
0

>  <Q_VSA_FPOS>
1

>  <Q_VSA_FPPOS>
0

>  <Q_VSA_HYD>
291.39584

>  <Q_VSA_NEG>
0

>  <Q_VSA_PNEG>
0

>  <Q_VSA_POL>
0

>  <Q_VSA_POS>
291.39584

>  <Q_VSA_PPOS>
0

>  <radius>
5

>  <reactive>
1

>  <rings>
5

>  <RPC+>
0

>  <RPC->
0

>  <rsynth>
1

>  <SlogP>
1.30137

>  <SlogP_VSA0>
61.77034

>  <SlogP_VSA1>
8.8119249

>  <SlogP_VSA2>
34.312836

>  <SlogP_VSA3>
36.879158

>  <SlogP_VSA4>
6.37115

>  <SlogP_VSA5>
18.868406

>  <SlogP_VSA6>
0

>  <SlogP_VSA7>
52.929554

>  <SlogP_VSA8>
56.605217

>  <SlogP_VSA9>
42.58765

>  <SMR>
8.7270603

>  <SMR_VSA0>
23.862217

>  <SMR_VSA1>
64.894653

>  <SMR_VSA2>
0

>  <SMR_VSA3>
27.308624

>  <SMR_VSA4>
0

>  <SMR_VSA5>
128.40317

>  <SMR_VSA6>
42.566769

>  <SMR_VSA7>
32.100792

>  <TPSA>
70

>  <VAdjEq>
0.46012789

>  <VAdjMa>
5.8073549

>  <VDistEq>
2.8562629

>  <VDistMa>
8.9328985

>  <vdw_area>
291.39584

>  <vdw_vol>
431.75076

>  <vsa_acc>
16.070677

>  <vsa_acid>
0

>  <vsa_base>
0

>  <vsa_don>
0

>  <vsa_hyd>
217.15912

>  <vsa_other>
8.458519

>  <vsa_pol>
43.204517

>  <Weight>
327.38

>  <weinerPath>
1047

>  <weinerPol>
58

>  <zagreb>
148

$$$$