O(C(=O)C1(CCN(CC1)CCc1ccc(N)cc1)c1ccccc1)CC
  MOE2013           2D

 26 28  0  0  0  0  0  0  0  0999 V2000
    0.0000    0.0000    0.0000 O   0  0  0  0  0  0  0  0  0  0  0  0
    0.0050   -1.5000    0.0000 C   0  0  0  0  0  0  0  0  0  0  0  0
   -1.2910   -2.2540    0.0000 O   0  0  0  0  0  0  0  0  0  0  0  0
    1.3070   -2.2460    0.0000 C   0  0  0  0  0  0  0  0  0  0  0  0
    2.4590   -3.2060    0.0000 C   0  0  0  0  0  0  0  0  0  0  0  0
    3.8670   -2.6880    0.0000 C   0  0  0  0  0  0  0  0  0  0  0  0
    4.1220   -1.2100    0.0000 N   0  0  0  0  0  0  0  0  0  0  0  0
    2.9700   -0.2500    0.0000 C   0  0  0  0  0  0  0  0  0  0  0  0
    1.5620   -0.7670    0.0000 C   0  0  0  0  0  0  0  0  0  0  0  0
    5.5300   -0.6920    0.0000 C   0  0  0  0  0  0  0  0  0  0  0  0
    6.6820   -1.6520    0.0000 C   0  0  0  0  0  0  0  0  0  0  0  0
    8.0900   -1.1340    0.0000 C   0  0  0  0  0  0  0  0  0  0  0  0
    8.3460    0.3440    0.0000 C   0  0  0  0  0  0  0  0  0  0  0  0
    9.7530    0.8620    0.0000 C   0  0  0  0  0  0  0  0  0  0  0  0
   10.9060   -0.0990    0.0000 C   0  0  0  0  0  0  0  0  0  0  0  0
   12.3140    0.4190    0.0000 N   0  0  0  0  0  0  0  0  0  0  0  0
   10.6500   -1.5770    0.0000 C   0  0  0  0  0  0  0  0  0  0  0  0
    9.2430   -2.0940    0.0000 C   0  0  0  0  0  0  0  0  0  0  0  0
    0.5610   -3.5470    0.0000 C   0  0  0  0  0  0  0  0  0  0  0  0
   -0.9390   -3.5520    0.0000 C   0  0  0  0  0  0  0  0  0  0  0  0
   -1.6840   -4.8540    0.0000 C   0  0  0  0  0  0  0  0  0  0  0  0
   -0.9300   -6.1500    0.0000 C   0  0  0  0  0  0  0  0  0  0  0  0
    0.5700   -6.1450    0.0000 C   0  0  0  0  0  0  0  0  0  0  0  0
    1.3160   -4.8440    0.0000 C   0  0  0  0  0  0  0  0  0  0  0  0
   -1.3020    0.7460    0.0000 C   0  0  0  0  0  0  0  0  0  0  0  0
   -1.3070    2.2460    0.0000 C   0  0  0  0  0  0  0  0  0  0  0  0
  1  2  1  0  0  0  0
  1 25  1  0  0  0  0
  2  3  2  0  0  0  0
  2  4  1  0  0  0  0
  4  5  1  0  0  0  0
  4  9  1  0  0  0  0
  4 19  1  0  0  0  0
  5  6  1  0  0  0  0
  6  7  1  0  0  0  0
  7  8  1  0  0  0  0
  7 10  1  0  0  0  0
  8  9  1  0  0  0  0
 10 11  1  0  0  0  0
 11 12  1  0  0  0  0
 12 13  1  0  0  0  0
 12 18  2  0  0  0  0
 13 14  2  0  0  0  0
 14 15  1  0  0  0  0
 15 16  1  0  0  0  0
 15 17  2  0  0  0  0
 17 18  1  0  0  0  0
 19 20  1  0  0  0  0
 19 24  2  0  0  0  0
 20 21  2  0  0  0  0
 21 22  1  0  0  0  0
 22 23  2  0  0  0  0
 23 24  1  0  0  0  0
 25 26  1  0  0  0  0
M  END
>  <Index>
77

>  <ID>
HT0160

>  <class>
0

>  <apol>
61.194202

>  <ast_fraglike>
0

>  <ast_fraglike_ext>
0

>  <ast_violation>
2

>  <ast_violation_ext>
3

>  <a_acc>
2

>  <a_acid>
0

>  <a_aro>
12

>  <a_base>
0

>  <a_count>
54

>  <a_don>
1

>  <a_donacc>
3

>  <a_heavy>
26

>  <a_hyd>
21

>  <a_IC>
74.050491

>  <a_ICM>
1.3713053

>  <a_nB>
0

>  <a_nBr>
0

>  <a_nC>
22

>  <a_nCl>
0

>  <a_nF>
0

>  <a_nH>
28

>  <a_nI>
0

>  <a_nN>
2

>  <a_nO>
2

>  <a_nP>
0

>  <a_nS>
0

>  <balabanJ>
1.5084159

>  <BCUT_PEOE_0>
-2.7868841

>  <BCUT_PEOE_1>
-0.58256537

>  <BCUT_PEOE_2>
0.63274175

>  <BCUT_PEOE_3>
2.7580881

>  <BCUT_SLOGP_0>
-2.837127

>  <BCUT_SLOGP_1>
-0.48134789

>  <BCUT_SLOGP_2>
0.73168647

>  <BCUT_SLOGP_3>
2.7334404

>  <BCUT_SMR_0>
-2.5244746

>  <BCUT_SMR_1>
-0.43808088

>  <BCUT_SMR_2>
0.78561527

>  <BCUT_SMR_3>
3.0103974

>  <bpol>
34.803795

>  <b_1rotN>
6

>  <b_1rotR>
0.21428572

>  <b_ar>
12

>  <b_count>
56

>  <b_double>
1

>  <b_heavy>
28

>  <b_max1len>
3

>  <b_rotN>
7

>  <b_rotR>
0.25

>  <b_single>
43

>  <b_triple>
0

>  <chi0>
18.407566

>  <chi0v>
15.48696

>  <chi0v_C>
13.6459

>  <chi0_C>
15.12311

>  <chi1>
12.636995

>  <chi1v>
9.4340992

>  <chi1v_C>
7.4998178

>  <chi1_C>
9.3493023

>  <chiral>
0

>  <chiral_u>
0

>  <density>
0.67960143

>  <diameter>
14

>  <FCharge>
0

>  <GCUT_PEOE_0>
-0.85665441

>  <GCUT_PEOE_1>
-0.38430578

>  <GCUT_PEOE_2>
0.06633915

>  <GCUT_PEOE_3>
2.8720162

>  <GCUT_SLOGP_0>
-1.3342881

>  <GCUT_SLOGP_1>
-0.26721185

>  <GCUT_SLOGP_2>
0.14764479

>  <GCUT_SLOGP_3>
2.9024448

>  <GCUT_SMR_0>
-0.52070045

>  <GCUT_SMR_1>
-0.19901113

>  <GCUT_SMR_2>
0.17291181

>  <GCUT_SMR_3>
3.1200604

>  <Kier1>
20.727041

>  <Kier2>
9.9722996

>  <Kier3>
5.2992001

>  <KierA1>
16.13147

>  <KierA2>
7.6781025

>  <KierA3>
4.0487275

>  <KierFlex>
4.7638111

>  <lip_acc>
4

>  <lip_don>
2

>  <lip_druglike>
1

>  <lip_violation>
0

>  <logP(o/w)>
4.2389998

>  <logS>
-3.9049301

>  <mr>
10.56019

>  <mutagenic>
1

>  <nmol>
1

>  <opr_brigid>
18

>  <opr_leadlike>
1

>  <opr_nring>
3

>  <opr_nrot>
8

>  <opr_violation>
0

>  <PC+>
0

>  <PC->
0

>  <PEOE_PC+>
1.8608633

>  <PEOE_PC->
-1.8608633

>  <PEOE_RPC+>
0.14661165

>  <PEOE_RPC->
0.16917185

>  <PEOE_VSA+0>
110.25732

>  <PEOE_VSA+1>
61.870541

>  <PEOE_VSA+2>
17.238026

>  <PEOE_VSA+3>
0

>  <PEOE_VSA+4>
0

>  <PEOE_VSA+5>
14.708499

>  <PEOE_VSA+6>
0

>  <PEOE_VSA-0>
73.778503

>  <PEOE_VSA-1>
85.784325

>  <PEOE_VSA-2>
0

>  <PEOE_VSA-3>
0

>  <PEOE_VSA-4>
0

>  <PEOE_VSA-5>
13.566921

>  <PEOE_VSA-6>
9.1548758

>  <PEOE_VSA_FHYD>
0.9031204

>  <PEOE_VSA_FNEG>
0.47180116

>  <PEOE_VSA_FPNEG>
0.058810059

>  <PEOE_VSA_FPOL>
0.096879572

>  <PEOE_VSA_FPOS>
0.52819884

>  <PEOE_VSA_FPPOS>
0.038069513

>  <PEOE_VSA_HYD>
348.92871

>  <PEOE_VSA_NEG>
182.28462

>  <PEOE_VSA_PNEG>
22.721796

>  <PEOE_VSA_POL>
37.430294

>  <PEOE_VSA_POS>
204.07439

>  <PEOE_VSA_PPOS>
14.708499

>  <petitjean>
0.5

>  <petitjeanSC>
1

>  <Q_PC+>
0

>  <Q_PC->
0

>  <Q_RPC+>
0

>  <Q_RPC->
0

>  <Q_VSA_FHYD>
1

>  <Q_VSA_FNEG>
0

>  <Q_VSA_FPNEG>
0

>  <Q_VSA_FPOL>
0

>  <Q_VSA_FPOS>
1

>  <Q_VSA_FPPOS>
0

>  <Q_VSA_HYD>
386.35901

>  <Q_VSA_NEG>
0

>  <Q_VSA_PNEG>
0

>  <Q_VSA_POL>
0

>  <Q_VSA_POS>
386.35901

>  <Q_VSA_PPOS>
0

>  <radius>
7

>  <reactive>
0

>  <rings>
3

>  <RPC+>
0

>  <RPC->
0

>  <rsynth>
0.34615386

>  <SlogP>
3.40817

>  <SlogP_VSA0>
32.897186

>  <SlogP_VSA1>
10.869778

>  <SlogP_VSA2>
34.862103

>  <SlogP_VSA3>
76.244995

>  <SlogP_VSA4>
6.37115

>  <SlogP_VSA5>
18.868406

>  <SlogP_VSA6>
0

>  <SlogP_VSA7>
158.78867

>  <SlogP_VSA8>
37.736813

>  <SlogP_VSA9>
36.082764

>  <SMR>
10.49854

>  <SMR_VSA0>
34.862103

>  <SMR_VSA1>
3.1243138

>  <SMR_VSA2>
0

>  <SMR_VSA3>
6.37115

>  <SMR_VSA4>
2.7567475

>  <SMR_VSA5>
248.29106

>  <SMR_VSA6>
83.990456

>  <SMR_VSA7>
33.326015

>  <TPSA>
55.560001

>  <VAdjEq>
0.41210872

>  <VAdjMa>
5.8073549

>  <VDistEq>
3.5859535

>  <VDistMa>
9.0862322

>  <vdw_area>
386.35901

>  <vdw_vol>
518.65399

>  <vsa_acc>
13.566921

>  <vsa_acid>
0

>  <vsa_base>
0

>  <vsa_don>
17.742489

>  <vsa_hyd>
313.18402

>  <vsa_other>
17.212255

>  <vsa_pol>
31.30941

>  <Weight>
352.478

>  <weinerPath>
1822

>  <weinerPol>
41

>  <zagreb>
132

$$$$