O1Cc2c(cccc2)/C(/c2cc(ccc12)CC(O)=O)=C/CCN(C)C
  MOE2013           2D

 25 27  0  0  0  0  0  0  0  0999 V2000
    0.0000    0.0000    0.0000 O   0  0  0  0  0  0  0  0  0  0  0  0
   -1.4600   -0.3460    0.0000 C   0  0  0  0  0  0  0  0  0  0  0  0
   -2.6400    0.5790    0.0000 C   0  0  0  0  0  0  0  0  0  0  0  0
   -2.6540    2.0790    0.0000 C   0  0  0  0  0  0  0  0  0  0  0  0
   -3.9600    2.8180    0.0000 C   0  0  0  0  0  0  0  0  0  0  0  0
   -5.2520    2.0560    0.0000 C   0  0  0  0  0  0  0  0  0  0  0  0
   -5.2380    0.5560    0.0000 C   0  0  0  0  0  0  0  0  0  0  0  0
   -3.9330   -0.1820    0.0000 C   0  0  0  0  0  0  0  0  0  0  0  0
   -1.4900    3.0260    0.0000 C   0  0  0  0  0  0  0  0  0  0  0  0
   -0.0250    2.7030    0.0000 C   0  0  0  0  0  0  0  0  0  0  0  0
    0.8090    3.9500    0.0000 C   0  0  0  0  0  0  0  0  0  0  0  0
    2.3060    3.8510    0.0000 C   0  0  0  0  0  0  0  0  0  0  0  0
    2.9690    2.5050    0.0000 C   0  0  0  0  0  0  0  0  0  0  0  0
    2.1350    1.2590    0.0000 C   0  0  0  0  0  0  0  0  0  0  0  0
    0.6380    1.3570    0.0000 C   0  0  0  0  0  0  0  0  0  0  0  0
    3.1400    5.0980    0.0000 C   0  0  0  0  0  0  0  0  0  0  0  0
    4.6370    4.9990    0.0000 C   0  0  0  0  0  0  0  0  0  0  0  0
    5.4710    6.2460    0.0000 O   0  0  0  0  0  0  0  0  0  0  0  0
    5.3000    3.6530    0.0000 O   0  0  0  0  0  0  0  0  0  0  0  0
   -1.8370    4.4850    0.0000 C   0  0  0  0  0  0  0  0  0  0  0  0
   -3.2740    4.9140    0.0000 C   0  0  0  0  0  0  0  0  0  0  0  0
   -3.6210    6.3740    0.0000 C   0  0  0  0  0  0  0  0  0  0  0  0
   -5.0590    6.8030    0.0000 N   0  0  0  0  0  0  0  0  0  0  0  0
   -6.1490    5.7730    0.0000 C   0  0  0  0  0  0  0  0  0  0  0  0
   -5.4060    8.2620    0.0000 C   0  0  0  0  0  0  0  0  0  0  0  0
  1  2  1  0  0  0  0
  1 15  1  0  0  0  0
  2  3  1  0  0  0  0
  3  4  2  0  0  0  0
  3  8  1  0  0  0  0
  4  5  1  0  0  0  0
  4  9  1  0  0  0  0
  5  6  2  0  0  0  0
  6  7  1  0  0  0  0
  7  8  2  0  0  0  0
  9 10  1  0  0  0  0
  9 20  2  0  0  0  0
 10 11  2  0  0  0  0
 10 15  1  0  0  0  0
 11 12  1  0  0  0  0
 12 13  2  0  0  0  0
 12 16  1  0  0  0  0
 13 14  1  0  0  0  0
 14 15  2  0  0  0  0
 16 17  1  0  0  0  0
 17 18  1  0  0  0  0
 17 19  2  0  0  0  0
 20 21  1  0  0  0  0
 21 22  1  0  0  0  0
 22 23  1  0  0  0  0
 23 24  1  0  0  0  0
 23 25  1  0  0  0  0
M  END
>  <Index>
787

>  <ID>
HT1537

>  <class>
0

>  <apol>
55.802238

>  <ast_fraglike>
0

>  <ast_fraglike_ext>
0

>  <ast_violation>
3

>  <ast_violation_ext>
4

>  <a_acc>
4

>  <a_acid>
0

>  <a_aro>
12

>  <a_base>
0

>  <a_count>
48

>  <a_don>
2

>  <a_donacc>
6

>  <a_heavy>
25

>  <a_hyd>
20

>  <a_IC>
67.042725

>  <a_ICM>
1.3967234

>  <a_nB>
0

>  <a_nBr>
0

>  <a_nC>
21

>  <a_nCl>
0

>  <a_nF>
0

>  <a_nH>
23

>  <a_nI>
0

>  <a_nN>
1

>  <a_nO>
3

>  <a_nP>
0

>  <a_nS>
0

>  <balabanJ>
1.7270887

>  <BCUT_PEOE_0>
-2.607512

>  <BCUT_PEOE_1>
-0.54096413

>  <BCUT_PEOE_2>
0.57742298

>  <BCUT_PEOE_3>
2.497999

>  <BCUT_SLOGP_0>
-2.6599433

>  <BCUT_SLOGP_1>
-0.48720938

>  <BCUT_SLOGP_2>
0.68431789

>  <BCUT_SLOGP_3>
2.554775

>  <BCUT_SMR_0>
-2.3219028

>  <BCUT_SMR_1>
-0.36194003

>  <BCUT_SMR_2>
0.73549139

>  <BCUT_SMR_3>
2.7788849

>  <bpol>
29.997761

>  <b_1rotN>
5

>  <b_1rotR>
0.18518518

>  <b_ar>
12

>  <b_count>
50

>  <b_double>
2

>  <b_heavy>
27

>  <b_max1len>
6

>  <b_rotN>
5

>  <b_rotR>
0.18518518

>  <b_single>
36

>  <b_triple>
0

>  <chi0>
17.81119

>  <chi0v>
14.658153

>  <chi0v_C>
12.947229

>  <chi0_C>
14.526733

>  <chi1>
12.041714

>  <chi1v>
8.4541531

>  <chi1v_C>
6.3229675

>  <chi1_C>
8.4158163

>  <chiral>
0

>  <chiral_u>
0

>  <density>
0.69978684

>  <diameter>
11

>  <FCharge>
0

>  <GCUT_PEOE_0>
-0.86318922

>  <GCUT_PEOE_1>
-0.40056816

>  <GCUT_PEOE_2>
0.051862877

>  <GCUT_PEOE_3>
2.7083356

>  <GCUT_SLOGP_0>
-0.95306313

>  <GCUT_SLOGP_1>
-0.31757033

>  <GCUT_SLOGP_2>
0.11613717

>  <GCUT_SLOGP_3>
2.8292794

>  <GCUT_SMR_0>
-0.51704907

>  <GCUT_SMR_1>
-0.19344239

>  <GCUT_SMR_2>
0.16663161

>  <GCUT_SMR_3>
2.994143

>  <Kier1>
19.753086

>  <Kier2>
9.2739229

>  <Kier3>
5.2584882

>  <KierA1>
15.025299

>  <KierA2>
6.9679475

>  <KierA3>
3.9145727

>  <KierFlex>
4.1878195

>  <lip_acc>
4

>  <lip_don>
1

>  <lip_druglike>
1

>  <lip_violation>
0

>  <logP(o/w)>
3.967

>  <logS>
-3.62521

>  <mr>
9.9029799

>  <mutagenic>
0

>  <nmol>
1

>  <opr_brigid>
18

>  <opr_leadlike>
1

>  <opr_nring>
3

>  <opr_nrot>
5

>  <opr_violation>
0

>  <PC+>
0

>  <PC->
0

>  <PEOE_PC+>
1.8061216

>  <PEOE_PC->
-1.8061216

>  <PEOE_RPC+>
0.14613798

>  <PEOE_RPC->
0.18796302

>  <PEOE_VSA+0>
66.585495

>  <PEOE_VSA+1>
74.764984

>  <PEOE_VSA+2>
0

>  <PEOE_VSA+3>
0

>  <PEOE_VSA+4>
10.324173

>  <PEOE_VSA+5>
14.708499

>  <PEOE_VSA+6>
0

>  <PEOE_VSA-0>
88.522659

>  <PEOE_VSA-1>
73.529427

>  <PEOE_VSA-2>
0

>  <PEOE_VSA-3>
0

>  <PEOE_VSA-4>
0

>  <PEOE_VSA-5>
13.566921

>  <PEOE_VSA-6>
10.271297

>  <PEOE_VSA_FHYD>
0.86127001

>  <PEOE_VSA_FNEG>
0.52768749

>  <PEOE_VSA_FPNEG>
0.067669638

>  <PEOE_VSA_FPOL>
0.13872997

>  <PEOE_VSA_FPOS>
0.47231251

>  <PEOE_VSA_FPPOS>
0.071060345

>  <PEOE_VSA_HYD>
303.40256

>  <PEOE_VSA_NEG>
185.8903

>  <PEOE_VSA_PNEG>
23.838217

>  <PEOE_VSA_POL>
48.870888

>  <PEOE_VSA_POS>
166.38315

>  <PEOE_VSA_PPOS>
25.032671

>  <petitjean>
0.45454547

>  <petitjeanSC>
0.83333331

>  <Q_PC+>
0

>  <Q_PC->
0

>  <Q_RPC+>
0

>  <Q_RPC->
0

>  <Q_VSA_FHYD>
1

>  <Q_VSA_FNEG>
0

>  <Q_VSA_FPNEG>
0

>  <Q_VSA_FPOL>
0

>  <Q_VSA_FPOS>
1

>  <Q_VSA_FPPOS>
0

>  <Q_VSA_HYD>
352.27347

>  <Q_VSA_NEG>
0

>  <Q_VSA_PNEG>
0

>  <Q_VSA_POL>
0

>  <Q_VSA_POS>
352.27347

>  <Q_VSA_PPOS>
0

>  <radius>
6

>  <reactive>
0

>  <rings>
3

>  <RPC+>
0

>  <RPC->
0

>  <rsynth>
0.16

>  <SlogP>
3.6731601

>  <SlogP_VSA0>
10.999887

>  <SlogP_VSA1>
10.869778

>  <SlogP_VSA2>
23.862217

>  <SlogP_VSA3>
47.01038

>  <SlogP_VSA4>
12.7423

>  <SlogP_VSA5>
84.662781

>  <SlogP_VSA6>
0

>  <SlogP_VSA7>
141.14548

>  <SlogP_VSA8>
18.868406

>  <SlogP_VSA9>
26.169687

>  <SMR>
9.7948799

>  <SMR_VSA0>
23.862217

>  <SMR_VSA1>
14.124202

>  <SMR_VSA2>
28.570801

>  <SMR_VSA3>
17.985727

>  <SMR_VSA4>
0

>  <SMR_VSA5>
199.80855

>  <SMR_VSA6>
26.185041

>  <SMR_VSA7>
65.794373

>  <TPSA>
49.77

>  <VAdjEq>
0.42433795

>  <VAdjMa>
5.7548876

>  <VDistEq>
3.2579582

>  <VDistMa>
9.0238533

>  <vdw_area>
352.27347

>  <vdw_vol>
482.17395

>  <vsa_acc>
2.503756

>  <vsa_acid>
0

>  <vsa_base>
0

>  <vsa_don>
0

>  <vsa_hyd>
287.74307

>  <vsa_other>
14.708499

>  <vsa_pol>
29.637598

>  <Weight>
337.41901

>  <weinerPath>
1448

>  <weinerPol>
41

>  <zagreb>
128

$$$$