o1c(ccc1[N+](=O)[O-])C=NNC(=O)N
  MOE2013           2D

 14 14  0  0  0  0  0  0  0  0999 V2000
    0.0000    0.0000    0.0000 O   0  0  0  0  0  0  0  0  0  0  0  0
    1.3320    0.6890    0.0000 C   0  0  0  0  0  0  0  0  0  0  0  0
    1.0880    2.1690    0.0000 C   0  0  0  0  0  0  0  0  0  0  0  0
   -0.3950    2.3950    0.0000 C   0  0  0  0  0  0  0  0  0  0  0  0
   -1.0670    1.0540    0.0000 C   0  0  0  0  0  0  0  0  0  0  0  0
   -2.5470    0.8100    0.0000 N   0  3  0  0  0  0  0  0  0  0  0  0
   -3.4980    1.9700    0.0000 O   0  0  0  0  0  0  0  0  0  0  0  0
   -3.0760   -0.5930    0.0000 O   0  5  0  0  0  0  0  0  0  0  0  0
    2.6730    0.0170    0.0000 C   0  0  0  0  0  0  0  0  0  0  0  0
    3.9260    0.8410    0.0000 N   0  0  0  0  0  0  0  0  0  0  0  0
    5.2670    0.1690    0.0000 N   0  0  0  0  0  0  0  0  0  0  0  0
    6.5190    0.9930    0.0000 C   0  0  0  0  0  0  0  0  0  0  0  0
    6.4320    2.4910    0.0000 O   0  0  0  0  0  0  0  0  0  0  0  0
    7.8600    0.3210    0.0000 N   0  0  0  0  0  0  0  0  0  0  0  0
  1  2  1  0  0  0  0
  1  5  1  0  0  0  0
  2  3  2  0  0  0  0
  2  9  1  0  0  0  0
  3  4  1  0  0  0  0
  4  5  2  0  0  0  0
  5  6  1  0  0  0  0
  6  7  2  0  0  0  0
  6  8  1  0  0  0  0
  9 10  2  3  0  0  0
 10 11  1  0  0  0  0
 11 12  1  0  0  0  0
 12 13  2  0  0  0  0
 12 14  1  0  0  0  0
M  CHG  1   6   1
M  CHG  1   8  -1
M  END
>  <Index>
775

>  <ID>
HT1508

>  <class>
0

>  <apol>
22.168758

>  <ast_fraglike>
1

>  <ast_fraglike_ext>
1

>  <ast_violation>
0

>  <ast_violation_ext>
0

>  <a_acc>
2

>  <a_acid>
0

>  <a_aro>
5

>  <a_base>
0

>  <a_count>
20

>  <a_don>
2

>  <a_donacc>
4

>  <a_heavy>
14

>  <a_hyd>
3

>  <a_IC>
39.41901

>  <a_ICM>
1.9709506

>  <a_nB>
0

>  <a_nBr>
0

>  <a_nC>
6

>  <a_nCl>
0

>  <a_nF>
0

>  <a_nH>
6

>  <a_nI>
0

>  <a_nN>
4

>  <a_nO>
4

>  <a_nP>
0

>  <a_nS>
0

>  <balabanJ>
2.1197133

>  <BCUT_PEOE_0>
-2.154743

>  <BCUT_PEOE_1>
-0.55265987

>  <BCUT_PEOE_2>
0.59363997

>  <BCUT_PEOE_3>
2.2573807

>  <BCUT_SLOGP_0>
-2.5684443

>  <BCUT_SLOGP_1>
-0.38934863

>  <BCUT_SLOGP_2>
0.77345085

>  <BCUT_SLOGP_3>
2.2771204

>  <BCUT_SMR_0>
-1.8359693

>  <BCUT_SMR_1>
-0.36505768

>  <BCUT_SMR_2>
0.82503664

>  <BCUT_SMR_3>
2.4661832

>  <bpol>
10.689242

>  <b_1rotN>
3

>  <b_1rotR>
0.21428572

>  <b_ar>
5

>  <b_count>
20

>  <b_double>
3

>  <b_heavy>
14

>  <b_max1len>
2

>  <b_rotN>
4

>  <b_rotR>
0.2857143

>  <b_single>
12

>  <b_triple>
0

>  <chi0>
10.552042

>  <chi0v>
6.8368216

>  <chi0v_C>
3.2320509

>  <chi0_C>
3.8533711

>  <chi1>
6.5922241

>  <chi1v>
3.4209671

>  <chi1v_C>
1.1993587

>  <chi1_C>
1.7247449

>  <chiral>
0

>  <chiral_u>
0

>  <density>
0.94301033

>  <diameter>
9

>  <FCharge>
0

>  <GCUT_PEOE_0>
-0.7988441

>  <GCUT_PEOE_1>
-0.49856594

>  <GCUT_PEOE_2>
0.12712614

>  <GCUT_PEOE_3>
2.0414867

>  <GCUT_SLOGP_0>
-1.3708276

>  <GCUT_SLOGP_1>
-0.34939063

>  <GCUT_SLOGP_2>
0.25210977

>  <GCUT_SLOGP_3>
2.0512402

>  <GCUT_SMR_0>
-0.49463141

>  <GCUT_SMR_1>
-0.2127731

>  <GCUT_SMR_2>
0.29030487

>  <GCUT_SMR_3>
2.2584383

>  <Kier1>
12.071428

>  <Kier2>
5.7777777

>  <Kier3>
4.3878117

>  <KierA1>
7.8080001

>  <KierA2>
3.5964444

>  <KierA3>
2.6514349

>  <KierFlex>
2.0057883

>  <lip_acc>
8

>  <lip_don>
3

>  <lip_druglike>
1

>  <lip_violation>
0

>  <logP(o/w)>
0.18099999

>  <logS>
-2.5705199

>  <mr>
4.3719006

>  <mutagenic>
1

>  <nmol>
1

>  <opr_brigid>
6

>  <opr_leadlike>
1

>  <opr_nring>
1

>  <opr_nrot>
3

>  <opr_violation>
0

>  <PC+>
0

>  <PC->
0

>  <PEOE_PC+>
2.0006957

>  <PEOE_PC->
-2.0006957

>  <PEOE_RPC+>
0.22196893

>  <PEOE_RPC->
0.17825249

>  <PEOE_VSA+0>
12.254904

>  <PEOE_VSA+1>
25.051062

>  <PEOE_VSA+2>
16.745916

>  <PEOE_VSA+3>
25.857038

>  <PEOE_VSA+4>
0

>  <PEOE_VSA+5>
8.458519

>  <PEOE_VSA+6>
30.390074

>  <PEOE_VSA-0>
4.0280342

>  <PEOE_VSA-1>
0

>  <PEOE_VSA-2>
0

>  <PEOE_VSA-3>
9.4210396

>  <PEOE_VSA-4>
17.442276

>  <PEOE_VSA-5>
2.503756

>  <PEOE_VSA-6>
40.582169

>  <PEOE_VSA_FHYD>
0.48438579

>  <PEOE_VSA_FNEG>
0.38382939

>  <PEOE_VSA_FPNEG>
0.31404915

>  <PEOE_VSA_FPOL>
0.51561421

>  <PEOE_VSA_FPOS>
0.61617064

>  <PEOE_VSA_FPPOS>
0.20156503

>  <PEOE_VSA_HYD>
93.357994

>  <PEOE_VSA_NEG>
73.977272

>  <PEOE_VSA_PNEG>
60.528198

>  <PEOE_VSA_POL>
99.376793

>  <PEOE_VSA_POS>
118.75751

>  <PEOE_VSA_PPOS>
38.848595

>  <petitjean>
0.44444445

>  <petitjeanSC>
0.80000001

>  <Q_PC+>
0

>  <Q_PC->
0

>  <Q_RPC+>
0

>  <Q_RPC->
0

>  <Q_VSA_FHYD>
1

>  <Q_VSA_FNEG>
0

>  <Q_VSA_FPNEG>
0

>  <Q_VSA_FPOL>
0

>  <Q_VSA_FPOS>
1

>  <Q_VSA_FPPOS>
0

>  <Q_VSA_HYD>
192.73479

>  <Q_VSA_NEG>
0

>  <Q_VSA_PNEG>
0

>  <Q_VSA_POL>
0

>  <Q_VSA_POS>
192.73479

>  <Q_VSA_PPOS>
0

>  <radius>
5

>  <reactive>
1

>  <rings>
1

>  <RPC+>
0

>  <RPC->
0

>  <rsynth>
1

>  <SlogP>
0.19

>  <SlogP_VSA0>
50.785416

>  <SlogP_VSA1>
11.915572

>  <SlogP_VSA2>
17.214357

>  <SlogP_VSA3>
50.935009

>  <SlogP_VSA4>
5.4488211

>  <SlogP_VSA5>
26.170353

>  <SlogP_VSA6>
0

>  <SlogP_VSA7>
35.286369

>  <SlogP_VSA8>
0

>  <SlogP_VSA9>
28.88221

>  <SMR>
4.5675502

>  <SMR_VSA0>
40.455177

>  <SMR_VSA1>
16.663008

>  <SMR_VSA2>
68.823235

>  <SMR_VSA3>
5.4488211

>  <SMR_VSA4>
37.917179

>  <SMR_VSA5>
35.286369

>  <SMR_VSA6>
4.8299561

>  <SMR_VSA7>
17.214357

>  <TPSA>
126.44

>  <VAdjEq>
0.59167278

>  <VAdjMa>
4.8073549

>  <VDistEq>
3.0199454

>  <VDistMa>
7.2557311

>  <vdw_area>
192.73479

>  <vdw_vol>
210.11223

>  <vsa_acc>
22.987961

>  <vsa_acid>
0

>  <vsa_base>
0

>  <vsa_don>
27.163528

>  <vsa_hyd>
35.645023

>  <vsa_other>
95.582901

>  <vsa_pol>
50.151489

>  <Weight>
198.138

>  <weinerPath>
356

>  <weinerPol>
14

>  <zagreb>
64

$$$$