O(CC(O)CNC(C)(C)C)c1c2C[C@H](O)[C@H](O)Cc2ccc1
  MOE2013           2D

 22 23  0  0  1  0  0  0  0  0999 V2000
    0.0000    0.0000    0.0000 O   0  0  0  0  0  0  0  0  0  0  0  0
    1.5000   -0.0070    0.0000 C   0  0  0  0  0  0  0  0  0  0  0  0
    2.2560    1.2880    0.0000 C   0  0  3  0  0  0  0  0  0  0  0  0
    1.5130    2.5910    0.0000 O   0  0  0  0  0  0  0  0  0  0  0  0
    3.7560    1.2810    0.0000 C   0  0  0  0  0  0  0  0  0  0  0  0
    4.5130    2.5760    0.0000 N   0  0  0  0  0  0  0  0  0  0  0  0
    6.0130    2.5690    0.0000 C   0  0  0  0  0  0  0  0  0  0  0  0
    6.0050    1.0690    0.0000 C   0  0  0  0  0  0  0  0  0  0  0  0
    6.0200    4.0690    0.0000 C   0  0  0  0  0  0  0  0  0  0  0  0
    7.5130    2.5610    0.0000 C   0  0  0  0  0  0  0  0  0  0  0  0
   -0.7560   -1.2950    0.0000 C   0  0  0  0  0  0  0  0  0  0  0  0
   -2.2560   -1.2880    0.0000 C   0  0  0  0  0  0  0  0  0  0  0  0
   -3.0000    0.0150    0.0000 C   0  0  0  0  0  0  0  0  0  0  0  0
   -4.5000    0.0220    0.0000 C   0  0  2  0  0  0  0  0  0  0  0  0
   -5.2440    1.3250    0.0000 O   0  0  0  0  0  0  0  0  0  0  0  0
   -5.2560   -1.2730    0.0000 C   0  0  2  0  0  0  0  0  0  0  0  0
   -6.7560   -1.2660    0.0000 O   0  0  0  0  0  0  0  0  0  0  0  0
   -4.5130   -2.5760    0.0000 C   0  0  0  0  0  0  0  0  0  0  0  0
   -3.0130   -2.5830    0.0000 C   0  0  0  0  0  0  0  0  0  0  0  0
   -2.2690   -3.8860    0.0000 C   0  0  0  0  0  0  0  0  0  0  0  0
   -0.7690   -3.8930    0.0000 C   0  0  0  0  0  0  0  0  0  0  0  0
   -0.0130   -2.5980    0.0000 C   0  0  0  0  0  0  0  0  0  0  0  0
  1  2  1  0  0  0  0
  1 11  1  0  0  0  0
  2  3  1  0  0  0  0
  3  4  1  0  0  0  0
  3  5  1  0  0  0  0
  5  6  1  0  0  0  0
  6  7  1  0  0  0  0
  7  8  1  0  0  0  0
  7  9  1  0  0  0  0
  7 10  1  0  0  0  0
 11 12  2  0  0  0  0
 11 22  1  0  0  0  0
 12 13  1  0  0  0  0
 12 19  1  0  0  0  0
 13 14  1  0  0  0  0
 14 15  1  1  0  0  0
 14 16  1  0  0  0  0
 16 17  1  1  0  0  0
 16 18  1  0  0  0  0
 18 19  1  0  0  0  0
 19 20  2  0  0  0  0
 20 21  1  0  0  0  0
 21 22  2  0  0  0  0
M  END
>  <Index>
740

>  <ID>
HT1450

>  <class>
0

>  <apol>
52.231411

>  <ast_fraglike>
0

>  <ast_fraglike_ext>
0

>  <ast_violation>
3

>  <ast_violation_ext>
4

>  <a_acc>
5

>  <a_acid>
0

>  <a_aro>
6

>  <a_base>
0

>  <a_count>
49

>  <a_don>
4

>  <a_donacc>
9

>  <a_heavy>
22

>  <a_hyd>
17

>  <a_IC>
69.251953

>  <a_ICM>
1.4133052

>  <a_nB>
0

>  <a_nBr>
0

>  <a_nC>
17

>  <a_nCl>
0

>  <a_nF>
0

>  <a_nH>
27

>  <a_nI>
0

>  <a_nN>
1

>  <a_nO>
4

>  <a_nP>
0

>  <a_nS>
0

>  <balabanJ>
1.7927685

>  <BCUT_PEOE_0>
-2.71155

>  <BCUT_PEOE_1>
-0.4635601

>  <BCUT_PEOE_2>
0.56610936

>  <BCUT_PEOE_3>
2.6647453

>  <BCUT_SLOGP_0>
-2.8415015

>  <BCUT_SLOGP_1>
-0.4627136

>  <BCUT_SLOGP_2>
0.47932032

>  <BCUT_SLOGP_3>
2.6212933

>  <BCUT_SMR_0>
-2.445873

>  <BCUT_SMR_1>
-0.3651441

>  <BCUT_SMR_2>
0.66491699

>  <BCUT_SMR_3>
2.9064999

>  <bpol>
32.09259

>  <b_1rotN>
5

>  <b_1rotR>
0.2173913

>  <b_ar>
6

>  <b_count>
50

>  <b_double>
0

>  <b_heavy>
23

>  <b_max1len>
7

>  <b_rotN>
6

>  <b_rotR>
0.26086956

>  <b_single>
44

>  <b_triple>
0

>  <chi0>
16.328062

>  <chi0v>
13.542418

>  <chi0v_C>
11.292529

>  <chi0_C>
11.913849

>  <chi1>
10.259839

>  <chi1v>
7.7883997

>  <chi1v_C>
5.9174504

>  <chi1_C>
6.7659864

>  <chiral>
3

>  <chiral_u>
1

>  <density>
0.70930517

>  <diameter>
12

>  <FCharge>
0

>  <GCUT_PEOE_0>
-0.84483641

>  <GCUT_PEOE_1>
-0.33010644

>  <GCUT_PEOE_2>
0.07352981

>  <GCUT_PEOE_3>
2.7155361

>  <GCUT_SLOGP_0>
-1.1534374

>  <GCUT_SLOGP_1>
-0.3928563

>  <GCUT_SLOGP_2>
-0.0085166907

>  <GCUT_SLOGP_3>
2.733012

>  <GCUT_SMR_0>
-0.52492577

>  <GCUT_SMR_1>
-0.18898454

>  <GCUT_SMR_2>
0.14973328

>  <GCUT_SMR_3>
2.9551597

>  <Kier1>
18.340265

>  <Kier2>
7.7134986

>  <Kier3>
5.5514975

>  <KierA1>
16.400309

>  <KierA2>
6.8589878

>  <KierA3>
4.9164505

>  <KierFlex>
5.1131597

>  <lip_acc>
5

>  <lip_don>
4

>  <lip_druglike>
1

>  <lip_violation>
0

>  <logP(o/w)>
1.126

>  <logS>
-1.79511

>  <mr>
8.5020657

>  <mutagenic>
0

>  <nmol>
1

>  <opr_brigid>
11

>  <opr_leadlike>
1

>  <opr_nring>
2

>  <opr_nrot>
7

>  <opr_violation>
0

>  <PC+>
0

>  <PC->
0

>  <PEOE_PC+>
2.1578438

>  <PEOE_PC->
-2.1578438

>  <PEOE_RPC+>
0.097287633

>  <PEOE_RPC->
0.18022844

>  <PEOE_VSA+0>
94.575745

>  <PEOE_VSA+1>
72.247688

>  <PEOE_VSA+2>
8.6190128

>  <PEOE_VSA+3>
0

>  <PEOE_VSA+4>
30.972517

>  <PEOE_VSA+5>
0

>  <PEOE_VSA+6>
0

>  <PEOE_VSA-0>
72.915016

>  <PEOE_VSA-1>
24.509808

>  <PEOE_VSA-2>
0

>  <PEOE_VSA-3>
0

>  <PEOE_VSA-4>
0

>  <PEOE_VSA-5>
0

>  <PEOE_VSA-6>
25.943268

>  <PEOE_VSA_FHYD>
0.82741445

>  <PEOE_VSA_FNEG>
0.37408864

>  <PEOE_VSA_FPNEG>
0.078667678

>  <PEOE_VSA_FPOL>
0.17258555

>  <PEOE_VSA_FPOS>
0.62591136

>  <PEOE_VSA_FPPOS>
0.093917862

>  <PEOE_VSA_HYD>
272.86728

>  <PEOE_VSA_NEG>
123.3681

>  <PEOE_VSA_PNEG>
25.943268

>  <PEOE_VSA_POL>
56.915787

>  <PEOE_VSA_POS>
206.41496

>  <PEOE_VSA_PPOS>
30.972517

>  <petitjean>
0.5

>  <petitjeanSC>
1

>  <Q_PC+>
0

>  <Q_PC->
0

>  <Q_RPC+>
0

>  <Q_RPC->
0

>  <Q_VSA_FHYD>
1

>  <Q_VSA_FNEG>
0

>  <Q_VSA_FPNEG>
0

>  <Q_VSA_FPOL>
0

>  <Q_VSA_FPOS>
1

>  <Q_VSA_FPPOS>
0

>  <Q_VSA_HYD>
329.78305

>  <Q_VSA_NEG>
0

>  <Q_VSA_PNEG>
0

>  <Q_VSA_POL>
0

>  <Q_VSA_POS>
329.78305

>  <Q_VSA_PPOS>
0

>  <radius>
6

>  <reactive>
0

>  <rings>
2

>  <RPC+>
0

>  <RPC->
0

>  <rsynth>
0.5

>  <SlogP>
0.63474

>  <SlogP_VSA0>
105.16632

>  <SlogP_VSA1>
0

>  <SlogP_VSA2>
19.405949

>  <SlogP_VSA3>
39.365837

>  <SlogP_VSA4>
6.37115

>  <SlogP_VSA5>
37.736813

>  <SlogP_VSA6>
0

>  <SlogP_VSA7>
52.929554

>  <SlogP_VSA8>
0

>  <SlogP_VSA9>
105.22147

>  <SMR>
8.5121098

>  <SMR_VSA0>
0

>  <SMR_VSA1>
87.155563

>  <SMR_VSA2>
18.01075

>  <SMR_VSA3>
31.020525

>  <SMR_VSA4>
0

>  <SMR_VSA5>
90.666367

>  <SMR_VSA6>
39.365837

>  <SMR_VSA7>
99.978043

>  <TPSA>
81.949997

>  <VAdjEq>
0.4530769

>  <VAdjMa>
5.523562

>  <VDistEq>
3.4130127

>  <VDistMa>
8.599021

>  <vdw_area>
329.78305

>  <vdw_vol>
436.20999

>  <vsa_acc>
2.503756

>  <vsa_acid>
0

>  <vsa_base>
0

>  <vsa_don>
0

>  <vsa_hyd>
247.87695

>  <vsa_other>
0

>  <vsa_pol>
48.887096

>  <Weight>
309.40601

>  <weinerPath>
1168

>  <weinerPol>
31

>  <zagreb>
112

$$$$