S1c2c(cccc2)C(c2c1cccc2)CC1CCCN(C1)C
  MOE2013           2D

 22 25  0  0  1  0  0  0  0  0999 V2000
    0.0000    0.0000    0.0000 S   0  0  0  0  0  0  0  0  0  0  0  0
   -1.2930    0.7600    0.0000 C   0  0  0  0  0  0  0  0  0  0  0  0
   -2.5980    0.0200    0.0000 C   0  0  0  0  0  0  0  0  0  0  0  0
   -3.8910    0.7790    0.0000 C   0  0  0  0  0  0  0  0  0  0  0  0
   -3.8800    2.2790    0.0000 C   0  0  0  0  0  0  0  0  0  0  0  0
   -2.5750    3.0190    0.0000 C   0  0  0  0  0  0  0  0  0  0  0  0
   -1.2820    2.2600    0.0000 C   0  0  0  0  0  0  0  0  0  0  0  0
   -2.6090   -1.4800    0.0000 C   0  0  0  0  0  0  0  0  0  0  0  0
   -1.3160   -2.2400    0.0000 C   0  0  0  0  0  0  0  0  0  0  0  0
   -0.0110   -1.5000    0.0000 C   0  0  0  0  0  0  0  0  0  0  0  0
    1.2820   -2.2600    0.0000 C   0  0  0  0  0  0  0  0  0  0  0  0
    1.2710   -3.7600    0.0000 C   0  0  0  0  0  0  0  0  0  0  0  0
   -0.0340   -4.5000    0.0000 C   0  0  0  0  0  0  0  0  0  0  0  0
   -1.3270   -3.7400    0.0000 C   0  0  0  0  0  0  0  0  0  0  0  0
   -3.9140   -2.2210    0.0000 C   0  0  0  0  0  0  0  0  0  0  0  0
   -5.2070   -1.4610    0.0000 C   0  0  3  0  0  0  0  0  0  0  0  0
   -5.1960    0.0390    0.0000 C   0  0  0  0  0  0  0  0  0  0  0  0
   -6.4890    0.7990    0.0000 C   0  0  0  0  0  0  0  0  0  0  0  0
   -7.7940    0.0590    0.0000 C   0  0  0  0  0  0  0  0  0  0  0  0
   -7.8050   -1.4410    0.0000 N   0  0  3  0  0  0  0  0  0  0  0  0
   -6.5120   -2.2010    0.0000 C   0  0  0  0  0  0  0  0  0  0  0  0
   -9.1100   -2.1810    0.0000 C   0  0  0  0  0  0  0  0  0  0  0  0
  1  2  1  0  0  0  0
  1 10  1  0  0  0  0
  2  3  1  0  0  0  0
  2  7  2  0  0  0  0
  3  4  2  0  0  0  0
  3  8  1  0  0  0  0
  4  5  1  0  0  0  0
  5  6  2  0  0  0  0
  6  7  1  0  0  0  0
  8  9  1  0  0  0  0
  8 15  1  0  0  0  0
  9 10  1  0  0  0  0
  9 14  2  0  0  0  0
 10 11  2  0  0  0  0
 11 12  1  0  0  0  0
 12 13  2  0  0  0  0
 13 14  1  0  0  0  0
 15 16  1  0  0  0  0
 16 17  1  0  0  0  0
 16 21  1  0  0  0  0
 17 18  1  0  0  0  0
 18 19  1  0  0  0  0
 19 20  1  0  0  0  0
 20 21  1  0  0  0  0
 20 22  1  0  0  0  0
M  END
>  <Index>
701

>  <ID>
HT1375

>  <class>
0

>  <apol>
54.53624

>  <ast_fraglike>
0

>  <ast_fraglike_ext>
0

>  <ast_violation>
2

>  <ast_violation_ext>
3

>  <a_acc>
1

>  <a_acid>
0

>  <a_aro>
12

>  <a_base>
0

>  <a_count>
45

>  <a_don>
0

>  <a_donacc>
1

>  <a_heavy>
22

>  <a_hyd>
21

>  <a_IC>
56.652901

>  <a_ICM>
1.2589533

>  <a_nB>
0

>  <a_nBr>
0

>  <a_nC>
20

>  <a_nCl>
0

>  <a_nF>
0

>  <a_nH>
23

>  <a_nI>
0

>  <a_nN>
1

>  <a_nO>
0

>  <a_nP>
0

>  <a_nS>
1

>  <balabanJ>
1.497745

>  <BCUT_PEOE_0>
-2.8180013

>  <BCUT_PEOE_1>
-0.54938972

>  <BCUT_PEOE_2>
0.60216779

>  <BCUT_PEOE_3>
2.7437909

>  <BCUT_SLOGP_0>
-2.8113618

>  <BCUT_SLOGP_1>
-0.45383003

>  <BCUT_SLOGP_2>
0.69633019

>  <BCUT_SLOGP_3>
2.8131876

>  <BCUT_SMR_0>
-2.5505071

>  <BCUT_SMR_1>
-0.42272809

>  <BCUT_SMR_2>
0.73404169

>  <BCUT_SMR_3>
3.008606

>  <bpol>
29.403761

>  <b_1rotN>
2

>  <b_1rotR>
0.079999998

>  <b_ar>
12

>  <b_count>
48

>  <b_double>
0

>  <b_heavy>
25

>  <b_max1len>
4

>  <b_rotN>
2

>  <b_rotR>
0.079999998

>  <b_single>
36

>  <b_triple>
0

>  <chi0>
14.940947

>  <chi0v>
13.980995

>  <chi0v_C>
12.309036

>  <chi0_C>
13.656489

>  <chi1>
10.809663

>  <chi1v>
9.1694584

>  <chi1v_C>
6.8650441

>  <chi1_C>
8.5993195

>  <chiral>
1

>  <chiral_u>
1

>  <density>
0.68503088

>  <diameter>
9

>  <FCharge>
0

>  <GCUT_PEOE_0>
-0.859707

>  <GCUT_PEOE_1>
-0.36572251

>  <GCUT_PEOE_2>
0.060985126

>  <GCUT_PEOE_3>
2.8481493

>  <GCUT_SLOGP_0>
-0.95295924

>  <GCUT_SLOGP_1>
-0.23900804

>  <GCUT_SLOGP_2>
0.14231418

>  <GCUT_SLOGP_3>
2.9699831

>  <GCUT_SMR_0>
-0.52786523

>  <GCUT_SMR_1>
-0.18508711

>  <GCUT_SMR_2>
0.16180113

>  <GCUT_SMR_3>
3.1186051

>  <Kier1>
15.5232

>  <Kier2>
6.8571429

>  <Kier3>
3.2986112

>  <KierA1>
13.321311

>  <KierA2>
5.8391418

>  <KierA3>
2.7931864

>  <KierFlex>
3.5356829

>  <lip_acc>
1

>  <lip_don>
0

>  <lip_druglike>
1

>  <lip_violation>
1

>  <logP(o/w)>
5.0040002

>  <logS>
-4.3947902

>  <mr>
9.5362701

>  <mutagenic>
0

>  <nmol>
1

>  <opr_brigid>
22

>  <opr_leadlike>
1

>  <opr_nring>
4

>  <opr_nrot>
4

>  <opr_violation>
1

>  <PC+>
0

>  <PC->
0

>  <PEOE_PC+>
1.0672237

>  <PEOE_PC->
-1.0672237

>  <PEOE_RPC+>
0.058910441

>  <PEOE_RPC->
0.28585073

>  <PEOE_VSA+0>
85.54232

>  <PEOE_VSA+1>
34.123089

>  <PEOE_VSA+2>
0

>  <PEOE_VSA+3>
0

>  <PEOE_VSA+4>
0

>  <PEOE_VSA+5>
0

>  <PEOE_VSA+6>
0

>  <PEOE_VSA-0>
91.461838

>  <PEOE_VSA-1>
93.290039

>  <PEOE_VSA-2>
0

>  <PEOE_VSA-3>
0

>  <PEOE_VSA-4>
0

>  <PEOE_VSA-5>
0

>  <PEOE_VSA-6>
0

>  <PEOE_VSA_FHYD>
1

>  <PEOE_VSA_FNEG>
0.60690337

>  <PEOE_VSA_FPNEG>
0

>  <PEOE_VSA_FPOL>
0

>  <PEOE_VSA_FPOS>
0.39309663

>  <PEOE_VSA_FPPOS>
0

>  <PEOE_VSA_HYD>
304.4173

>  <PEOE_VSA_NEG>
184.75188

>  <PEOE_VSA_PNEG>
0

>  <PEOE_VSA_POL>
0

>  <PEOE_VSA_POS>
119.66541

>  <PEOE_VSA_PPOS>
0

>  <petitjean>
0.44444445

>  <petitjeanSC>
0.80000001

>  <Q_PC+>
0

>  <Q_PC->
0

>  <Q_RPC+>
0

>  <Q_RPC->
0

>  <Q_VSA_FHYD>
1

>  <Q_VSA_FNEG>
0

>  <Q_VSA_FPNEG>
0

>  <Q_VSA_FPOL>
0

>  <Q_VSA_FPOS>
1

>  <Q_VSA_FPPOS>
0

>  <Q_VSA_HYD>
304.4173

>  <Q_VSA_NEG>
0

>  <Q_VSA_PNEG>
0

>  <Q_VSA_POL>
0

>  <Q_VSA_POS>
304.4173

>  <Q_VSA_PPOS>
0

>  <radius>
5

>  <reactive>
0

>  <rings>
4

>  <RPC+>
0

>  <RPC->
0

>  <rsynth>
0.59090906

>  <SlogP>
5.0149999

>  <SlogP_VSA0>
0

>  <SlogP_VSA1>
3.1243138

>  <SlogP_VSA2>
0

>  <SlogP_VSA3>
36.879158

>  <SlogP_VSA4>
10.781946

>  <SlogP_VSA5>
35.998657

>  <SlogP_VSA6>
4.4107962

>  <SlogP_VSA7>
141.14548

>  <SlogP_VSA8>
56.605217

>  <SlogP_VSA9>
32.21954

>  <SMR>
9.3689003

>  <SMR_VSA0>
0

>  <SMR_VSA1>
3.1243138

>  <SMR_VSA2>
7.5122638

>  <SMR_VSA3>
10.781946

>  <SMR_VSA4>
0

>  <SMR_VSA5>
197.75069

>  <SMR_VSA6>
36.879158

>  <SMR_VSA7>
65.11673

>  <TPSA>
3.24

>  <VAdjEq>
0.47938794

>  <VAdjMa>
5.643856

>  <VDistEq>
3.0298119

>  <VDistMa>
8.6543236

>  <vdw_area>
304.4173

>  <vdw_vol>
451.77087

>  <vsa_acc>
0

>  <vsa_acid>
0

>  <vsa_base>
0

>  <vsa_don>
0

>  <vsa_hyd>
285.3559

>  <vsa_other>
0

>  <vsa_pol>
0

>  <Weight>
309.47699

>  <weinerPath>
982

>  <weinerPol>
36

>  <zagreb>
120

$$$$