s1cccc1C(=O)c1cc2nc([nH]c2cc1)NC(OC)=O
  MOE2013           2D

 21 23  0  0  0  0  0  0  0  0999 V2000
    0.0000    0.0000    0.0000 S   0  0  0  0  0  0  0  0  0  0  0  0
   -1.4450    0.4010    0.0000 C   0  0  0  0  0  0  0  0  0  0  0  0
   -2.2730   -0.8500    0.0000 C   0  0  0  0  0  0  0  0  0  0  0  0
   -1.3390   -2.0240    0.0000 C   0  0  0  0  0  0  0  0  0  0  0  0
    0.0660   -1.4990    0.0000 C   0  0  0  0  0  0  0  0  0  0  0  0
    1.3160   -2.3260    0.0000 C   0  0  0  0  0  0  0  0  0  0  0  0
    1.2250   -3.8240    0.0000 O   0  0  0  0  0  0  0  0  0  0  0  0
    2.6590   -1.6570    0.0000 C   0  0  0  0  0  0  0  0  0  0  0  0
    3.9100   -2.4850    0.0000 C   0  0  0  0  0  0  0  0  0  0  0  0
    5.2520   -1.8150    0.0000 C   0  0  0  0  0  0  0  0  0  0  0  0
    6.6480   -2.3650    0.0000 N   0  0  0  0  0  0  0  0  0  0  0  0
    7.6020   -1.2080    0.0000 C   0  0  0  0  0  0  0  0  0  0  0  0
    6.7960    0.0570    0.0000 N   0  0  0  0  0  0  0  0  0  0  0  0
    5.3430   -0.3180    0.0000 C   0  0  0  0  0  0  0  0  0  0  0  0
    4.0930    0.5100    0.0000 C   0  0  0  0  0  0  0  0  0  0  0  0
    2.7500   -0.1600    0.0000 C   0  0  0  0  0  0  0  0  0  0  0  0
    9.0990   -1.2990    0.0000 N   0  0  0  0  0  0  0  0  0  0  0  0
    9.9270   -0.0480    0.0000 C   0  0  0  0  0  0  0  0  0  0  0  0
   11.4240   -0.1400    0.0000 O   0  0  0  0  0  0  0  0  0  0  0  0
   12.2520    1.1110    0.0000 C   0  0  0  0  0  0  0  0  0  0  0  0
    9.2570    1.2940    0.0000 O   0  0  0  0  0  0  0  0  0  0  0  0
  1  2  1  0  0  0  0
  1  5  1  0  0  0  0
  2  3  2  0  0  0  0
  3  4  1  0  0  0  0
  4  5  2  0  0  0  0
  5  6  1  0  0  0  0
  6  7  2  0  0  0  0
  6  8  1  0  0  0  0
  8  9  1  0  0  0  0
  8 16  2  0  0  0  0
  9 10  2  0  0  0  0
 10 11  1  0  0  0  0
 10 14  1  0  0  0  0
 11 12  2  0  0  0  0
 12 13  1  0  0  0  0
 12 17  1  0  0  0  0
 13 14  1  0  0  0  0
 14 15  2  0  0  0  0
 15 16  1  0  0  0  0
 17 18  1  0  0  0  0
 18 19  1  0  0  0  0
 18 21  2  0  0  0  0
 19 20  1  0  0  0  0
M  END
>  <Index>
777

>  <ID>
HT1514

>  <class>
0

>  <apol>
40.580723

>  <ast_fraglike>
0

>  <ast_fraglike_ext>
0

>  <ast_violation>
3

>  <ast_violation_ext>
3

>  <a_acc>
4

>  <a_acid>
0

>  <a_aro>
14

>  <a_base>
0

>  <a_count>
32

>  <a_don>
3

>  <a_donacc>
7

>  <a_heavy>
21

>  <a_hyd>
12

>  <a_IC>
59.133507

>  <a_ICM>
1.8479221

>  <a_nB>
0

>  <a_nBr>
0

>  <a_nC>
14

>  <a_nCl>
0

>  <a_nF>
0

>  <a_nH>
11

>  <a_nI>
0

>  <a_nN>
3

>  <a_nO>
3

>  <a_nP>
0

>  <a_nS>
1

>  <balabanJ>
1.5152189

>  <BCUT_PEOE_0>
-2.2185733

>  <BCUT_PEOE_1>
-0.64413184

>  <BCUT_PEOE_2>
0.67957383

>  <BCUT_PEOE_3>
2.2587698

>  <BCUT_SLOGP_0>
-2.3503025

>  <BCUT_SLOGP_1>
-0.56590915

>  <BCUT_SLOGP_2>
0.75914508

>  <BCUT_SLOGP_3>
2.3494396

>  <BCUT_SMR_0>
-1.9529039

>  <BCUT_SMR_1>
-0.45193744

>  <BCUT_SMR_2>
0.88959956

>  <BCUT_SMR_3>
2.5901258

>  <bpol>
20.777277

>  <b_1rotN>
3

>  <b_1rotR>
0.13043478

>  <b_ar>
15

>  <b_count>
34

>  <b_double>
2

>  <b_heavy>
23

>  <b_max1len>
2

>  <b_rotN>
5

>  <b_rotR>
0.2173913

>  <b_single>
17

>  <b_triple>
0

>  <chi0>
14.819627

>  <chi0v>
11.860805

>  <chi0v_C>
7.9641018

>  <chi0_C>
9.2840929

>  <chi1>
10.169035

>  <chi1v>
6.980689

>  <chi1v_C>
3.1933756

>  <chi1_C>
4.5412416

>  <chiral>
0

>  <chiral_u>
0

>  <density>
0.83207995

>  <diameter>
12

>  <FCharge>
0

>  <GCUT_PEOE_0>
-0.81437045

>  <GCUT_PEOE_1>
-0.44087216

>  <GCUT_PEOE_2>
0.10725991

>  <GCUT_PEOE_3>
2.3406806

>  <GCUT_SLOGP_0>
-0.9933632

>  <GCUT_SLOGP_1>
-0.30516919

>  <GCUT_SLOGP_2>
0.20939393

>  <GCUT_SLOGP_3>
2.4500942

>  <GCUT_SMR_0>
-0.48232809

>  <GCUT_SMR_1>
-0.21325268

>  <GCUT_SMR_2>
0.28844982

>  <GCUT_SMR_3>
2.6634085

>  <Kier1>
15.879017

>  <Kier2>
7.0507812

>  <Kier3>
3.6734693

>  <KierA1>
11.560998

>  <KierA2>
5.0449638

>  <KierA3>
2.5934241

>  <KierFlex>
2.7773724

>  <lip_acc>
6

>  <lip_don>
2

>  <lip_druglike>
1

>  <lip_violation>
0

>  <logP(o/w)>
2.3139999

>  <logS>
-4.5647101

>  <mr>
8.0682535

>  <mutagenic>
0

>  <nmol>
1

>  <opr_brigid>
15

>  <opr_leadlike>
1

>  <opr_nring>
3

>  <opr_nrot>
3

>  <opr_violation>
0

>  <PC+>
0

>  <PC->
0

>  <PEOE_PC+>
2.0183716

>  <PEOE_PC->
-2.0183716

>  <PEOE_RPC+>
0.18181881

>  <PEOE_RPC->
0.16044274

>  <PEOE_VSA+0>
31.471582

>  <PEOE_VSA+1>
47.52219

>  <PEOE_VSA+2>
0

>  <PEOE_VSA+3>
45.457165

>  <PEOE_VSA+4>
15.681574

>  <PEOE_VSA+5>
0

>  <PEOE_VSA+6>
19.199511

>  <PEOE_VSA-0>
40.949314

>  <PEOE_VSA-1>
24.509808

>  <PEOE_VSA-2>
14.230966

>  <PEOE_VSA-3>
0

>  <PEOE_VSA-4>
19.249496

>  <PEOE_VSA-5>
13.703812

>  <PEOE_VSA-6>
2.6406472

>  <PEOE_VSA_FHYD>
0.7433688

>  <PEOE_VSA_FNEG>
0.41980079

>  <PEOE_VSA_FPNEG>
0.12961352

>  <PEOE_VSA_FPOL>
0.25663117

>  <PEOE_VSA_FPOS>
0.58019918

>  <PEOE_VSA_FPPOS>
0.12701765

>  <PEOE_VSA_HYD>
204.14102

>  <PEOE_VSA_NEG>
115.28404

>  <PEOE_VSA_PNEG>
35.593956

>  <PEOE_VSA_POL>
70.475044

>  <PEOE_VSA_POS>
159.33202

>  <PEOE_VSA_PPOS>
34.881084

>  <petitjean>
0.5

>  <petitjeanSC>
1

>  <Q_PC+>
0

>  <Q_PC->
0

>  <Q_RPC+>
0

>  <Q_RPC->
0

>  <Q_VSA_FHYD>
1

>  <Q_VSA_FNEG>
0

>  <Q_VSA_FPNEG>
0

>  <Q_VSA_FPOL>
0

>  <Q_VSA_FPOS>
1

>  <Q_VSA_FPPOS>
0

>  <Q_VSA_HYD>
274.61606

>  <Q_VSA_NEG>
0

>  <Q_VSA_PNEG>
0

>  <Q_VSA_POL>
0

>  <Q_VSA_POS>
274.61606

>  <Q_VSA_PPOS>
0

>  <radius>
6

>  <reactive>
1

>  <rings>
3

>  <RPC+>
0

>  <RPC->
0

>  <rsynth>
1

>  <SlogP>
3.0337

>  <SlogP_VSA0>
0

>  <SlogP_VSA1>
47.800529

>  <SlogP_VSA2>
27.785418

>  <SlogP_VSA3>
0

>  <SlogP_VSA4>
28.406193

>  <SlogP_VSA5>
35.383869

>  <SlogP_VSA6>
0

>  <SlogP_VSA7>
108.32021

>  <SlogP_VSA8>
0

>  <SlogP_VSA9>
57.038998

>  <SMR>
7.9872899

>  <SMR_VSA0>
58.724319

>  <SMR_VSA1>
16.78553

>  <SMR_VSA2>
16.78553

>  <SMR_VSA3>
4.5439763

>  <SMR_VSA4>
24.198118

>  <SMR_VSA5>
104.03193

>  <SMR_VSA6>
13.004248

>  <SMR_VSA7>
66.661552

>  <TPSA>
84.080002

>  <VAdjEq>
0.48250595

>  <VAdjMa>
5.523562

>  <VDistEq>
3.3422046

>  <VDistMa>
8.4609413

>  <vdw_area>
274.61606

>  <vdw_vol>
362.13586

>  <vsa_acc>
27.133842

>  <vsa_acid>
0

>  <vsa_base>
0

>  <vsa_don>
5.6825762

>  <vsa_hyd>
172.03831

>  <vsa_other>
45.843361

>  <vsa_pol>
44.181568

>  <Weight>
301.32599

>  <weinerPath>
994

>  <weinerPol>
29

>  <zagreb>
110

$$$$