O(N=O)CCCCC
  MOE2013           2D

  8  7  0  0  0  0  0  0  0  0999 V2000
    0.0000    0.0000    0.0000 O   0  0  0  0  0  0  0  0  0  0  0  0
    1.3040    0.7410    0.0000 N   0  0  0  0  0  0  0  0  0  0  0  0
    2.5980   -0.0180    0.0000 O   0  0  0  0  0  0  0  0  0  0  0  0
   -1.2940    0.7590    0.0000 C   0  0  0  0  0  0  0  0  0  0  0  0
   -2.5980    0.0180    0.0000 C   0  0  0  0  0  0  0  0  0  0  0  0
   -3.8920    0.7770    0.0000 C   0  0  0  0  0  0  0  0  0  0  0  0
   -5.1960    0.0360    0.0000 C   0  0  0  0  0  0  0  0  0  0  0  0
   -6.4900    0.7950    0.0000 C   0  0  0  0  0  0  0  0  0  0  0  0
  1  2  1  0  0  0  0
  1  4  1  0  0  0  0
  2  3  2  0  0  0  0
  4  5  1  0  0  0  0
  5  6  1  0  0  0  0
  6  7  1  0  0  0  0
  7  8  1  0  0  0  0
M  END
>  <Index>
74

>  <ID>
HT0156

>  <class>
0

>  <apol>
18.838722

>  <ast_fraglike>
1

>  <ast_fraglike_ext>
0

>  <ast_violation>
0

>  <ast_violation_ext>
1

>  <a_acc>
2

>  <a_acid>
0

>  <a_aro>
0

>  <a_base>
0

>  <a_count>
19

>  <a_don>
0

>  <a_donacc>
2

>  <a_heavy>
8

>  <a_hyd>
5

>  <a_IC>
29.047234

>  <a_ICM>
1.5288018

>  <a_nB>
0

>  <a_nBr>
0

>  <a_nC>
5

>  <a_nCl>
0

>  <a_nF>
0

>  <a_nH>
11

>  <a_nI>
0

>  <a_nN>
1

>  <a_nO>
2

>  <a_nP>
0

>  <a_nS>
0

>  <balabanJ>
2.5399699

>  <BCUT_PEOE_0>
-2.6114144

>  <BCUT_PEOE_1>
-0.11971012

>  <BCUT_PEOE_2>
0.058736809

>  <BCUT_PEOE_3>
2.5724411

>  <BCUT_SLOGP_0>
-2.5046625

>  <BCUT_SLOGP_1>
0.017090227

>  <BCUT_SLOGP_2>
0.123

>  <BCUT_SLOGP_3>
2.700388

>  <BCUT_SMR_0>
-2.3753076

>  <BCUT_SMR_1>
0.1057

>  <BCUT_SMR_2>
0.23850963

>  <BCUT_SMR_3>
2.8073502

>  <bpol>
13.579277

>  <b_1rotN>
5

>  <b_1rotR>
0.71428573

>  <b_ar>
0

>  <b_count>
18

>  <b_double>
1

>  <b_heavy>
7

>  <b_max1len>
6

>  <b_rotN>
5

>  <b_rotR>
0.71428573

>  <b_single>
17

>  <b_triple>
0

>  <chi0>
6.2426405

>  <chi0v>
5.0921373

>  <chi0v_C>
3.8284271

>  <chi0_C>
3.8284271

>  <chi1>
3.9142137

>  <chi1v>
2.8609302

>  <chi1v_C>
2.2071068

>  <chi1_C>
2.2071068

>  <chiral>
0

>  <chiral_u>
0

>  <density>
0.72773767

>  <diameter>
7

>  <FCharge>
0

>  <GCUT_PEOE_0>
-0.79301143

>  <GCUT_PEOE_1>
-0.30616695

>  <GCUT_PEOE_2>
-0.10126319

>  <GCUT_PEOE_3>
2.1228287

>  <GCUT_SLOGP_0>
-0.80378103

>  <GCUT_SLOGP_1>
-0.18975781

>  <GCUT_SLOGP_2>
-0.037

>  <GCUT_SLOGP_3>
2.2327511

>  <GCUT_SMR_0>
-0.5303188

>  <GCUT_SMR_1>
-0.054299999

>  <GCUT_SMR_2>
0.0051652766

>  <GCUT_SMR_3>
2.3258095

>  <Kier1>
8

>  <Kier2>
7

>  <Kier3>
7.1999998

>  <KierA1>
6.9339571

>  <KierA2>
5.9265862

>  <KierA3>
5.971436

>  <KierFlex>
5.1368365

>  <lip_acc>
3

>  <lip_don>
0

>  <lip_druglike>
1

>  <lip_violation>
0

>  <logP(o/w)>
2.2520001

>  <logS>
-1.71016

>  <mr>
3.192733

>  <mutagenic>
1

>  <nmol>
1

>  <opr_brigid>
0

>  <opr_leadlike>
1

>  <opr_nring>
0

>  <opr_nrot>
5

>  <opr_violation>
0

>  <PC+>
0

>  <PC->
0

>  <PEOE_PC+>
0.53280991

>  <PEOE_PC->
-0.53280991

>  <PEOE_RPC+>
0.19168004

>  <PEOE_RPC->
0.40691683

>  <PEOE_VSA+0>
38.388474

>  <PEOE_VSA+1>
23.482065

>  <PEOE_VSA+2>
16.087948

>  <PEOE_VSA+3>
0

>  <PEOE_VSA+4>
0

>  <PEOE_VSA+5>
0

>  <PEOE_VSA+6>
0

>  <PEOE_VSA-0>
8.701313

>  <PEOE_VSA-1>
36.150303

>  <PEOE_VSA-2>
16.965525

>  <PEOE_VSA-3>
0

>  <PEOE_VSA-4>
5.9023595

>  <PEOE_VSA-5>
0

>  <PEOE_VSA-6>
0

>  <PEOE_VSA_FHYD>
0.9594835

>  <PEOE_VSA_FNEG>
0.46485746

>  <PEOE_VSA_FPNEG>
0.040516481

>  <PEOE_VSA_FPOL>
0.040516481

>  <PEOE_VSA_FPOS>
0.53514254

>  <PEOE_VSA_FPPOS>
0

>  <PEOE_VSA_HYD>
139.77563

>  <PEOE_VSA_NEG>
67.719498

>  <PEOE_VSA_PNEG>
5.9023595

>  <PEOE_VSA_POL>
5.9023595

>  <PEOE_VSA_POS>
77.958488

>  <PEOE_VSA_PPOS>
0

>  <petitjean>
0.42857143

>  <petitjeanSC>
0.75

>  <Q_PC+>
0

>  <Q_PC->
0

>  <Q_RPC+>
0

>  <Q_RPC->
0

>  <Q_VSA_FHYD>
1

>  <Q_VSA_FNEG>
0

>  <Q_VSA_FPNEG>
0

>  <Q_VSA_FPOL>
0

>  <Q_VSA_FPOS>
1

>  <Q_VSA_FPPOS>
0

>  <Q_VSA_HYD>
145.67799

>  <Q_VSA_NEG>
0

>  <Q_VSA_PNEG>
0

>  <Q_VSA_POL>
0

>  <Q_VSA_POS>
145.67799

>  <Q_VSA_PPOS>
0

>  <radius>
4

>  <reactive>
1

>  <rings>
0

>  <RPC+>
0

>  <RPC->
0

>  <rsynth>
1

>  <SlogP>
1.8746001

>  <SlogP_VSA0>
0

>  <SlogP_VSA1>
0

>  <SlogP_VSA2>
11.218763

>  <SlogP_VSA3>
45.025127

>  <SlogP_VSA4>
0

>  <SlogP_VSA5>
22.438892

>  <SlogP_VSA6>
0

>  <SlogP_VSA7>
0

>  <SlogP_VSA8>
56.605217

>  <SlogP_VSA9>
33.326015

>  <SMR>
3.1271999

>  <SMR_VSA0>
11.218763

>  <SMR_VSA1>
22.438892

>  <SMR_VSA2>
24.098869

>  <SMR_VSA3>
0

>  <SMR_VSA4>
0

>  <SMR_VSA5>
56.605217

>  <SMR_VSA6>
20.926258

>  <SMR_VSA7>
33.326015

>  <TPSA>
38.66

>  <VAdjEq>
0.75787848

>  <VAdjMa>
3.8073549

>  <VDistEq>
2.6100054

>  <VDistMa>
5.5676222

>  <vdw_area>
145.67799

>  <vdw_vol>
160.97559

>  <vsa_acc>
33.053471

>  <vsa_acid>
0

>  <vsa_base>
0

>  <vsa_don>
0

>  <vsa_hyd>
98.89241

>  <vsa_other>
5.9023595

>  <vsa_pol>
33.053471

>  <Weight>
117.14799

>  <weinerPath>
84

>  <weinerPol>
5

>  <zagreb>
26

$$$$