Oc1c2ncccc2c([N+](=O)[O-])cc1
  MOE2013           2D

 14 15  0  0  0  0  0  0  0  0999 V2000
    0.0000    0.0000    0.0000 O   0  0  0  0  0  0  0  0  0  0  0  0
    1.5000    0.0000    0.0000 C   0  0  0  0  0  0  0  0  0  0  0  0
    2.2500   -1.2990    0.0000 C   0  0  0  0  0  0  0  0  0  0  0  0
    1.5000   -2.5980    0.0000 N   0  0  0  0  0  0  0  0  0  0  0  0
    2.2500   -3.8970    0.0000 C   0  0  0  0  0  0  0  0  0  0  0  0
    3.7500   -3.8970    0.0000 C   0  0  0  0  0  0  0  0  0  0  0  0
    4.5000   -2.5980    0.0000 C   0  0  0  0  0  0  0  0  0  0  0  0
    3.7500   -1.2990    0.0000 C   0  0  0  0  0  0  0  0  0  0  0  0
    4.5000    0.0000    0.0000 C   0  0  0  0  0  0  0  0  0  0  0  0
    6.0000    0.0000    0.0000 N   0  3  0  0  0  0  0  0  0  0  0  0
    6.7500    1.3000    0.0000 O   0  0  0  0  0  0  0  0  0  0  0  0
    6.7500   -1.2990    0.0000 O   0  5  0  0  0  0  0  0  0  0  0  0
    3.7500    1.2990    0.0000 C   0  0  0  0  0  0  0  0  0  0  0  0
    2.2500    1.2990    0.0000 C   0  0  0  0  0  0  0  0  0  0  0  0
  1  2  1  0  0  0  0
  2  3  1  0  0  0  0
  2 14  2  0  0  0  0
  3  4  1  0  0  0  0
  3  8  2  0  0  0  0
  4  5  2  0  0  0  0
  5  6  1  0  0  0  0
  6  7  2  0  0  0  0
  7  8  1  0  0  0  0
  8  9  1  0  0  0  0
  9 10  1  0  0  0  0
  9 13  2  0  0  0  0
 10 11  2  0  0  0  0
 10 12  1  0  0  0  0
 13 14  1  0  0  0  0
M  CHG  1  10   1
M  CHG  1  12  -1
M  END
>  <Index>
776

>  <ID>
HT1512

>  <class>
0

>  <apol>
24.446758

>  <ast_fraglike>
1

>  <ast_fraglike_ext>
1

>  <ast_violation>
0

>  <ast_violation_ext>
0

>  <a_acc>
2

>  <a_acid>
0

>  <a_aro>
10

>  <a_base>
0

>  <a_count>
20

>  <a_don>
1

>  <a_donacc>
3

>  <a_heavy>
14

>  <a_hyd>
10

>  <a_IC>
35.644573

>  <a_ICM>
1.7822287

>  <a_nB>
0

>  <a_nBr>
0

>  <a_nC>
9

>  <a_nCl>
0

>  <a_nF>
0

>  <a_nH>
6

>  <a_nI>
0

>  <a_nN>
2

>  <a_nO>
3

>  <a_nP>
0

>  <a_nS>
0

>  <balabanJ>
2.1081815

>  <BCUT_PEOE_0>
-2.1534176

>  <BCUT_PEOE_1>
-0.69017863

>  <BCUT_PEOE_2>
0.75298178

>  <BCUT_PEOE_3>
2.2430425

>  <BCUT_SLOGP_0>
-2.0244489

>  <BCUT_SLOGP_1>
-0.60709494

>  <BCUT_SLOGP_2>
0.77608961

>  <BCUT_SLOGP_3>
2.4088709

>  <BCUT_SMR_0>
-1.8701072

>  <BCUT_SMR_1>
-0.53082722

>  <BCUT_SMR_2>
0.91286701

>  <BCUT_SMR_3>
2.5174706

>  <bpol>
9.1352425

>  <b_1rotN>
1

>  <b_1rotR>
0.06666667

>  <b_ar>
11

>  <b_count>
21

>  <b_double>
1

>  <b_heavy>
15

>  <b_max1len>
1

>  <b_rotN>
1

>  <b_rotR>
0.06666667

>  <b_single>
9

>  <b_triple>
0

>  <chi0>
10.129392

>  <chi0v>
7.0448885

>  <chi0v_C>
4.8867512

>  <chi0_C>
5.8449349

>  <chi1>
6.6983771

>  <chi1v>
3.910193

>  <chi1v_C>
2.6160254

>  <chi1_C>
3.7247448

>  <chiral>
0

>  <chiral_u>
0

>  <density>
0.84802669

>  <diameter>
6

>  <FCharge>
0

>  <GCUT_PEOE_0>
-0.75385988

>  <GCUT_PEOE_1>
-0.44265699

>  <GCUT_PEOE_2>
0.14342858

>  <GCUT_PEOE_3>
2.2167521

>  <GCUT_SLOGP_0>
-0.80930656

>  <GCUT_SLOGP_1>
-0.28205281

>  <GCUT_SLOGP_2>
0.15687744

>  <GCUT_SLOGP_3>
2.3709733

>  <GCUT_SMR_0>
-0.49083939

>  <GCUT_SMR_1>
-0.22637096

>  <GCUT_SMR_2>
0.27907279

>  <GCUT_SMR_3>
2.4966722

>  <Kier1>
10.515555

>  <Kier2>
4.2448978

>  <Kier3>
2.0204082

>  <KierA1>
7.0165081

>  <KierA2>
2.733803

>  <KierA3>
1.2660744

>  <KierFlex>
1.3701252

>  <lip_acc>
5

>  <lip_don>
1

>  <lip_druglike>
1

>  <lip_violation>
0

>  <logP(o/w)>
1.7309999

>  <logS>
-2.4017

>  <mr>
4.8758311

>  <mutagenic>
1

>  <nmol>
1

>  <opr_brigid>
11

>  <opr_leadlike>
1

>  <opr_nring>
2

>  <opr_nrot>
1

>  <opr_violation>
0

>  <PC+>
0

>  <PC->
0

>  <PEOE_PC+>
1.237221

>  <PEOE_PC->
-1.237221

>  <PEOE_RPC+>
0.22662082

>  <PEOE_RPC->
0.28910765

>  <PEOE_VSA+0>
29.00082

>  <PEOE_VSA+1>
36.022022

>  <PEOE_VSA+2>
6.6995511

>  <PEOE_VSA+3>
0

>  <PEOE_VSA+4>
10.324173

>  <PEOE_VSA+5>
6.6995511

>  <PEOE_VSA+6>
0

>  <PEOE_VSA-0>
36.764713

>  <PEOE_VSA-1>
0

>  <PEOE_VSA-2>
0

>  <PEOE_VSA-3>
0

>  <PEOE_VSA-4>
0

>  <PEOE_VSA-5>
39.613625

>  <PEOE_VSA-6>
7.7675405

>  <PEOE_VSA_FHYD>
0.62748486

>  <PEOE_VSA_FNEG>
0.48669621

>  <PEOE_VSA_FPNEG>
0.27405065

>  <PEOE_VSA_FPOL>
0.37251517

>  <PEOE_VSA_FPOS>
0.51330382

>  <PEOE_VSA_FPPOS>
0.098464504

>  <PEOE_VSA_HYD>
108.48711

>  <PEOE_VSA_NEG>
84.145874

>  <PEOE_VSA_PNEG>
47.381165

>  <PEOE_VSA_POL>
64.404892

>  <PEOE_VSA_POS>
88.746117

>  <PEOE_VSA_PPOS>
17.023724

>  <petitjean>
0.5

>  <petitjeanSC>
1

>  <Q_PC+>
0

>  <Q_PC->
0

>  <Q_RPC+>
0

>  <Q_RPC->
0

>  <Q_VSA_FHYD>
1

>  <Q_VSA_FNEG>
0

>  <Q_VSA_FPNEG>
0

>  <Q_VSA_FPOL>
0

>  <Q_VSA_FPOS>
1

>  <Q_VSA_FPPOS>
0

>  <Q_VSA_HYD>
172.892

>  <Q_VSA_NEG>
0

>  <Q_VSA_PNEG>
0

>  <Q_VSA_POL>
0

>  <Q_VSA_POS>
172.892

>  <Q_VSA_PPOS>
0

>  <radius>
3

>  <reactive>
1

>  <rings>
2

>  <RPC+>
0

>  <RPC->
0

>  <rsynth>
1

>  <SlogP>
1.8486

>  <SlogP_VSA0>
25.385227

>  <SlogP_VSA1>
23.871145

>  <SlogP_VSA2>
0

>  <SlogP_VSA3>
50.935009

>  <SlogP_VSA4>
0

>  <SlogP_VSA5>
0

>  <SlogP_VSA6>
0

>  <SlogP_VSA7>
92.504196

>  <SlogP_VSA8>
0

>  <SlogP_VSA9>
8.0001755

>  <SMR>
5.0062199

>  <SMR_VSA0>
7.0856161

>  <SMR_VSA1>
42.170757

>  <SMR_VSA2>
50.935009

>  <SMR_VSA3>
5.2434282

>  <SMR_VSA4>
7.4738488

>  <SMR_VSA5>
87.787094

>  <SMR_VSA6>
0

>  <SMR_VSA7>
0

>  <TPSA>
78.940002

>  <VAdjEq>
0.61744827

>  <VAdjMa>
4.9068904

>  <VDistEq>
2.4411802

>  <VDistMa>
7.3449202

>  <vdw_area>
172.892

>  <vdw_vol>
224.23586

>  <vsa_acc>
5.6825762

>  <vsa_acid>
0

>  <vsa_base>
0

>  <vsa_don>
0

>  <vsa_hyd>
111.62768

>  <vsa_other>
33.931049

>  <vsa_pol>
19.249496

>  <Weight>
190.15799

>  <weinerPath>
274

>  <weinerPol>
22

>  <zagreb>
72

$$$$