O1CCN(CC1)CCNc1nnc(cc1C)-c1ccccc1
  MOE2013           2D

 22 24  0  0  0  0  0  0  0  0999 V2000
    0.0000    0.0000    0.0000 O   0  0  0  0  0  0  0  0  0  0  0  0
    1.2920   -0.7610    0.0000 C   0  0  0  0  0  0  0  0  0  0  0  0
    2.5980   -0.0230    0.0000 C   0  0  0  0  0  0  0  0  0  0  0  0
    2.6110    1.4770    0.0000 N   0  0  0  0  0  0  0  0  0  0  0  0
    1.3190    2.2390    0.0000 C   0  0  0  0  0  0  0  0  0  0  0  0
    0.0130    1.5000    0.0000 C   0  0  0  0  0  0  0  0  0  0  0  0
    3.9170    2.2160    0.0000 C   0  0  0  0  0  0  0  0  0  0  0  0
    5.2090    1.4550    0.0000 C   0  0  0  0  0  0  0  0  0  0  0  0
    6.5150    2.1930    0.0000 N   0  0  0  0  0  0  0  0  0  0  0  0
    7.8070    1.4320    0.0000 C   0  0  0  0  0  0  0  0  0  0  0  0
    7.7940   -0.0680    0.0000 N   0  0  0  0  0  0  0  0  0  0  0  0
    9.0860   -0.8290    0.0000 N   0  0  0  0  0  0  0  0  0  0  0  0
   10.3920   -0.0900    0.0000 C   0  0  0  0  0  0  0  0  0  0  0  0
   10.4050    1.4090    0.0000 C   0  0  0  0  0  0  0  0  0  0  0  0
    9.1130    2.1710    0.0000 C   0  0  0  0  0  0  0  0  0  0  0  0
    9.1260    3.6710    0.0000 C   0  0  0  0  0  0  0  0  0  0  0  0
   11.6840   -0.8520    0.0000 C   0  0  0  0  0  0  0  0  0  0  0  0
   12.9900   -0.1130    0.0000 C   0  0  0  0  0  0  0  0  0  0  0  0
   14.2820   -0.8740    0.0000 C   0  0  0  0  0  0  0  0  0  0  0  0
   14.2690   -2.3740    0.0000 C   0  0  0  0  0  0  0  0  0  0  0  0
   12.9640   -3.1130    0.0000 C   0  0  0  0  0  0  0  0  0  0  0  0
   11.6710   -2.3520    0.0000 C   0  0  0  0  0  0  0  0  0  0  0  0
  1  2  1  0  0  0  0
  1  6  1  0  0  0  0
  2  3  1  0  0  0  0
  3  4  1  0  0  0  0
  4  5  1  0  0  0  0
  4  7  1  0  0  0  0
  5  6  1  0  0  0  0
  7  8  1  0  0  0  0
  8  9  1  0  0  0  0
  9 10  1  0  0  0  0
 10 11  1  0  0  0  0
 10 15  2  0  0  0  0
 11 12  2  0  0  0  0
 12 13  1  0  0  0  0
 13 14  2  0  0  0  0
 13 17  1  0  0  0  0
 14 15  1  0  0  0  0
 15 16  1  0  0  0  0
 17 18  1  0  0  0  0
 17 22  2  0  0  0  0
 18 19  2  0  0  0  0
 19 20  1  0  0  0  0
 20 21  2  0  0  0  0
 21 22  1  0  0  0  0
M  END
>  <Index>
717

>  <ID>
HT1406

>  <class>
0

>  <apol>
49.791447

>  <ast_fraglike>
0

>  <ast_fraglike_ext>
0

>  <ast_violation>
1

>  <ast_violation_ext>
2

>  <a_acc>
4

>  <a_acid>
0

>  <a_aro>
12

>  <a_base>
0

>  <a_count>
44

>  <a_don>
1

>  <a_donacc>
5

>  <a_heavy>
22

>  <a_hyd>
16

>  <a_IC>
64.620628

>  <a_ICM>
1.4686506

>  <a_nB>
0

>  <a_nBr>
0

>  <a_nC>
17

>  <a_nCl>
0

>  <a_nF>
0

>  <a_nH>
22

>  <a_nI>
0

>  <a_nN>
4

>  <a_nO>
1

>  <a_nP>
0

>  <a_nS>
0

>  <balabanJ>
1.3513691

>  <BCUT_PEOE_0>
-2.7252836

>  <BCUT_PEOE_1>
-0.56493396

>  <BCUT_PEOE_2>
0.61248738

>  <BCUT_PEOE_3>
2.6424434

>  <BCUT_SLOGP_0>
-2.8455102

>  <BCUT_SLOGP_1>
-0.48636466

>  <BCUT_SLOGP_2>
0.67394614

>  <BCUT_SLOGP_3>
2.527622

>  <BCUT_SMR_0>
-2.4535956

>  <BCUT_SMR_1>
-0.39558682

>  <BCUT_SMR_2>
0.77706891

>  <BCUT_SMR_3>
2.9035842

>  <bpol>
29.926554

>  <b_1rotN>
5

>  <b_1rotR>
0.20833333

>  <b_ar>
12

>  <b_count>
46

>  <b_double>
0

>  <b_heavy>
24

>  <b_max1len>
4

>  <b_rotN>
5

>  <b_rotR>
0.20833333

>  <b_single>
34

>  <b_triple>
0

>  <chi0>
15.200459

>  <chi0v>
12.956632

>  <chi0v_C>
10.706742

>  <chi0_C>
11.794683

>  <chi1>
10.8265

>  <chi1v>
7.7648344

>  <chi1v_C>
4.9880338

>  <chi1_C>
6.3770099

>  <chiral>
0

>  <chiral_u>
0

>  <density>
0.69906723

>  <diameter>
14

>  <FCharge>
0

>  <GCUT_PEOE_0>
-0.84631449

>  <GCUT_PEOE_1>
-0.37329829

>  <GCUT_PEOE_2>
0.071806222

>  <GCUT_PEOE_3>
2.5602818

>  <GCUT_SLOGP_0>
-0.99233735

>  <GCUT_SLOGP_1>
-0.28433043

>  <GCUT_SLOGP_2>
0.15515359

>  <GCUT_SLOGP_3>
2.5883198

>  <GCUT_SMR_0>
-0.51521778

>  <GCUT_SMR_1>
-0.19242451

>  <GCUT_SMR_2>
0.18129742

>  <GCUT_SMR_3>
2.8222651

>  <Kier1>
16.84375

>  <Kier2>
8.7408953

>  <Kier3>
4.9967127

>  <KierA1>
12.908143

>  <KierA2>
6.607193

>  <KierA3>
3.7394872

>  <KierFlex>
3.8766634

>  <lip_acc>
5

>  <lip_don>
1

>  <lip_druglike>
1

>  <lip_violation>
0

>  <logP(o/w)>
2.661

>  <logS>
-2.9723001

>  <mr>
8.7657347

>  <mutagenic>
0

>  <nmol>
1

>  <opr_brigid>
18

>  <opr_leadlike>
1

>  <opr_nring>
3

>  <opr_nrot>
7

>  <opr_violation>
0

>  <PC+>
0

>  <PC->
0

>  <PEOE_PC+>
1.5922483

>  <PEOE_PC->
-1.5922483

>  <PEOE_RPC+>
0.083006486

>  <PEOE_RPC->
0.23692442

>  <PEOE_VSA+0>
101.89709

>  <PEOE_VSA+1>
79.255997

>  <PEOE_VSA+2>
19.809576

>  <PEOE_VSA+3>
0

>  <PEOE_VSA+4>
0

>  <PEOE_VSA+5>
0

>  <PEOE_VSA+6>
0

>  <PEOE_VSA-0>
33.211121

>  <PEOE_VSA-1>
61.274521

>  <PEOE_VSA-2>
18.842079

>  <PEOE_VSA-3>
0

>  <PEOE_VSA-4>
0

>  <PEOE_VSA-5>
0.13689101

>  <PEOE_VSA-6>
2.503756

>  <PEOE_VSA_FHYD>
0.99166805

>  <PEOE_VSA_FNEG>
0.36591044

>  <PEOE_VSA_FPNEG>
0.0083319303

>  <PEOE_VSA_FPOL>
0.0083319303

>  <PEOE_VSA_FPOS>
0.63408959

>  <PEOE_VSA_FPPOS>
0

>  <PEOE_VSA_HYD>
314.29037

>  <PEOE_VSA_NEG>
115.96837

>  <PEOE_VSA_PNEG>
2.6406472

>  <PEOE_VSA_POL>
2.6406472

>  <PEOE_VSA_POS>
200.96266

>  <PEOE_VSA_PPOS>
0

>  <petitjean>
0.5

>  <petitjeanSC>
1

>  <Q_PC+>
0

>  <Q_PC->
0

>  <Q_RPC+>
0

>  <Q_RPC->
0

>  <Q_VSA_FHYD>
1

>  <Q_VSA_FNEG>
0

>  <Q_VSA_FPNEG>
0

>  <Q_VSA_FPOL>
0

>  <Q_VSA_FPOS>
1

>  <Q_VSA_FPPOS>
0

>  <Q_VSA_HYD>
316.93103

>  <Q_VSA_NEG>
0

>  <Q_VSA_PNEG>
0

>  <Q_VSA_POL>
0

>  <Q_VSA_POS>
316.93103

>  <Q_VSA_PPOS>
0

>  <radius>
7

>  <reactive>
0

>  <rings>
3

>  <RPC+>
0

>  <RPC->
0

>  <rsynth>
1

>  <SlogP>
2.19612

>  <SlogP_VSA0>
0

>  <SlogP_VSA1>
54.461079

>  <SlogP_VSA2>
10.999887

>  <SlogP_VSA3>
115.61083

>  <SlogP_VSA4>
3.185575

>  <SlogP_VSA5>
0

>  <SlogP_VSA6>
0

>  <SlogP_VSA7>
111.80143

>  <SlogP_VSA8>
0

>  <SlogP_VSA9>
35.653934

>  <SMR>
8.7953701

>  <SMR_VSA0>
10.999887

>  <SMR_VSA1>
36.450329

>  <SMR_VSA2>
0

>  <SMR_VSA3>
3.185575

>  <SMR_VSA4>
26.280993

>  <SMR_VSA5>
105.85911

>  <SMR_VSA6>
115.61083

>  <SMR_VSA7>
33.326015

>  <TPSA>
50.279999

>  <VAdjEq>
0.46637034

>  <VAdjMa>
5.5849624

>  <VDistEq>
3.5591958

>  <VDistMa>
8.5727749

>  <vdw_area>
316.93103

>  <vdw_vol>
426.84021

>  <vsa_acc>
21.345835

>  <vsa_acid>
0

>  <vsa_base>
0

>  <vsa_don>
5.6825762

>  <vsa_hyd>
260.69101

>  <vsa_other>
11.190562

>  <vsa_pol>
27.028412

>  <Weight>
298.38998

>  <weinerPath>
1243

>  <weinerPol>
30

>  <zagreb>
110

$$$$