s1cccc1[C@@]1(C[C@H]1CN)C(=O)N(CC)CC
  MOE2013           2D

 17 18  0  0  1  0  0  0  0  0999 V2000
    0.0000    0.0000    0.0000 S   0  0  0  0  0  0  0  0  0  0  0  0
    0.3880   -1.4490    0.0000 C   0  0  0  0  0  0  0  0  0  0  0  0
    1.8860   -1.5280    0.0000 C   0  0  0  0  0  0  0  0  0  0  0  0
    2.4240   -0.1270    0.0000 C   0  0  0  0  0  0  0  0  0  0  0  0
    1.2580    0.8170    0.0000 C   0  0  0  0  0  0  0  0  0  0  0  0
    1.3370    2.3150    0.0000 C   0  0  2  0  0  0  0  0  0  0  0  0
    1.2190    3.8100    0.0000 C   0  0  0  0  0  0  0  0  0  0  0  0
   -0.0170    2.9610    0.0000 C   0  0  1  0  0  0  0  0  0  0  0  0
   -1.5120    2.8430    0.0000 C   0  0  0  0  0  0  0  0  0  0  0  0
   -2.3620    4.0790    0.0000 N   0  0  0  0  0  0  0  0  0  0  0  0
    2.7630    1.8510    0.0000 C   0  0  0  0  0  0  0  0  0  0  0  0
    3.0750    0.3840    0.0000 O   0  0  0  0  0  0  0  0  0  0  0  0
    3.8780    2.8550    0.0000 N   0  0  0  0  0  0  0  0  0  0  0  0
    3.5660    4.3220    0.0000 C   0  0  0  0  0  0  0  0  0  0  0  0
    4.6810    5.3260    0.0000 C   0  0  0  0  0  0  0  0  0  0  0  0
    5.3050    2.3910    0.0000 C   0  0  0  0  0  0  0  0  0  0  0  0
    6.4190    3.3950    0.0000 C   0  0  0  0  0  0  0  0  0  0  0  0
  1  2  1  0  0  0  0
  1  5  1  0  0  0  0
  2  3  2  0  0  0  0
  3  4  1  0  0  0  0
  4  5  2  0  0  0  0
  6  5  1  1  0  0  0
  6  7  1  0  0  0  0
  6  8  1  0  0  0  0
  6 11  1  6  0  0  0
  7  8  1  0  0  0  0
  8  9  1  6  0  0  0
  9 10  1  0  0  0  0
 11 12  2  0  0  0  0
 11 13  1  0  0  0  0
 13 14  1  0  0  0  0
 13 16  1  0  0  0  0
 14 15  1  0  0  0  0
 16 17  1  0  0  0  0
M  END
>  <Index>
713

>  <ID>
HT1401

>  <class>
0

>  <apol>
42.117859

>  <ast_fraglike>
1

>  <ast_fraglike_ext>
0

>  <ast_violation>
0

>  <ast_violation_ext>
1

>  <a_acc>
2

>  <a_acid>
0

>  <a_aro>
5

>  <a_base>
0

>  <a_count>
37

>  <a_don>
1

>  <a_donacc>
3

>  <a_heavy>
17

>  <a_hyd>
13

>  <a_IC>
56.205498

>  <a_ICM>
1.5190675

>  <a_nB>
0

>  <a_nBr>
0

>  <a_nC>
13

>  <a_nCl>
0

>  <a_nF>
0

>  <a_nH>
20

>  <a_nI>
0

>  <a_nN>
2

>  <a_nO>
1

>  <a_nP>
0

>  <a_nS>
1

>  <balabanJ>
2.1203675

>  <BCUT_PEOE_0>
-2.6018419

>  <BCUT_PEOE_1>
-0.48894721

>  <BCUT_PEOE_2>
0.4816432

>  <BCUT_PEOE_3>
2.8680737

>  <BCUT_SLOGP_0>
-2.692348

>  <BCUT_SLOGP_1>
-0.35500008

>  <BCUT_SLOGP_2>
0.5943138

>  <BCUT_SLOGP_3>
2.8519671

>  <BCUT_SMR_0>
-2.3205454

>  <BCUT_SMR_1>
-0.28142208

>  <BCUT_SMR_2>
0.64246136

>  <BCUT_SMR_3>
3.1176333

>  <bpol>
26.42214

>  <b_1rotN>
6

>  <b_1rotR>
0.33333334

>  <b_ar>
5

>  <b_count>
38

>  <b_double>
1

>  <b_heavy>
18

>  <b_max1len>
6

>  <b_rotN>
6

>  <b_rotR>
0.33333334

>  <b_single>
32

>  <b_triple>
0

>  <chi0>
12.466255

>  <chi0v>
11.295385

>  <chi0v_C>
8.6378279

>  <chi0_C>
9.181798

>  <chi1>
8.2010727

>  <chi1v>
7.1161942

>  <chi1v_C>
4.3282804

>  <chi1_C>
4.8585372

>  <chiral>
2

>  <chiral_u>
0

>  <density>
0.72520274

>  <diameter>
7

>  <FCharge>
0

>  <GCUT_PEOE_0>
-0.85496128

>  <GCUT_PEOE_1>
-0.363377

>  <GCUT_PEOE_2>
0.0055823876

>  <GCUT_PEOE_3>
2.6337919

>  <GCUT_SLOGP_0>
-1.3633723

>  <GCUT_SLOGP_1>
-0.28538775

>  <GCUT_SLOGP_2>
0.11990057

>  <GCUT_SLOGP_3>
2.6513855

>  <GCUT_SMR_0>
-0.51772898

>  <GCUT_SMR_1>
-0.17416716

>  <GCUT_SMR_2>
0.13690293

>  <GCUT_SMR_3>
2.8953445

>  <Kier1>
13.432098

>  <Kier2>
5.3254437

>  <Kier3>
1.96

>  <KierA1>
12.25817

>  <KierA2>
4.8305874

>  <KierA3>
1.7693042

>  <KierFlex>
3.483186

>  <lip_acc>
3

>  <lip_don>
2

>  <lip_druglike>
1

>  <lip_violation>
0

>  <logP(o/w)>
1.513

>  <logS>
-1.8150001

>  <mr>
7.2718616

>  <mutagenic>
0

>  <nmol>
1

>  <opr_brigid>
8

>  <opr_leadlike>
1

>  <opr_nring>
2

>  <opr_nrot>
5

>  <opr_violation>
0

>  <PC+>
0

>  <PC->
0

>  <PEOE_PC+>
1.4196407

>  <PEOE_PC->
-1.4196407

>  <PEOE_RPC+>
0.16443262

>  <PEOE_RPC->
0.24093854

>  <PEOE_VSA+0>
94.630829

>  <PEOE_VSA+1>
8.5307722

>  <PEOE_VSA+2>
17.238026

>  <PEOE_VSA+3>
19.760618

>  <PEOE_VSA+4>
12.949531

>  <PEOE_VSA+5>
0

>  <PEOE_VSA+6>
0

>  <PEOE_VSA-0>
59.388992

>  <PEOE_VSA-1>
28.694408

>  <PEOE_VSA-2>
14.230966

>  <PEOE_VSA-3>
0

>  <PEOE_VSA-4>
0

>  <PEOE_VSA-5>
13.566921

>  <PEOE_VSA-6>
6.6511192

>  <PEOE_VSA_FHYD>
0.87967163

>  <PEOE_VSA_FNEG>
0.4445343

>  <PEOE_VSA_FPNEG>
0.073348865

>  <PEOE_VSA_FPOL>
0.12032836

>  <PEOE_VSA_FPOS>
0.5554657

>  <PEOE_VSA_FPPOS>
0.046979498

>  <PEOE_VSA_HYD>
242.47461

>  <PEOE_VSA_NEG>
122.53241

>  <PEOE_VSA_PNEG>
20.21804

>  <PEOE_VSA_POL>
33.167572

>  <PEOE_VSA_POS>
153.10977

>  <PEOE_VSA_PPOS>
12.949531

>  <petitjean>
0.42857143

>  <petitjeanSC>
0.75

>  <Q_PC+>
0

>  <Q_PC->
0

>  <Q_RPC+>
0

>  <Q_RPC->
0

>  <Q_VSA_FHYD>
1

>  <Q_VSA_FNEG>
0

>  <Q_VSA_FPNEG>
0

>  <Q_VSA_FPOL>
0

>  <Q_VSA_FPOS>
1

>  <Q_VSA_FPPOS>
0

>  <Q_VSA_HYD>
275.64218

>  <Q_VSA_NEG>
0

>  <Q_VSA_PNEG>
0

>  <Q_VSA_POL>
0

>  <Q_VSA_POS>
275.64218

>  <Q_VSA_PPOS>
0

>  <radius>
4

>  <reactive>
0

>  <rings>
2

>  <RPC+>
0

>  <RPC->
0

>  <rsynth>
0.58823532

>  <SlogP>
1.8329

>  <SlogP_VSA0>
32.897186

>  <SlogP_VSA1>
8.3830976

>  <SlogP_VSA2>
23.862217

>  <SlogP_VSA3>
55.318733

>  <SlogP_VSA4>
5.7691975

>  <SlogP_VSA5>
0

>  <SlogP_VSA6>
0

>  <SlogP_VSA7>
51.102379

>  <SlogP_VSA8>
18.868406

>  <SlogP_VSA9>
97.929718

>  <SMR>
7.1086402

>  <SMR_VSA0>
23.862217

>  <SMR_VSA1>
3.1243138

>  <SMR_VSA2>
4.4107962

>  <SMR_VSA3>
1.3584013

>  <SMR_VSA4>
32.897186

>  <SMR_VSA5>
69.970787

>  <SMR_VSA6>
60.577518

>  <SMR_VSA7>
97.929718

>  <TPSA>
46.330002

>  <VAdjEq>
0.54234898

>  <VAdjMa>
5.1699252

>  <VDistEq>
2.7005937

>  <VDistMa>
7.9164071

>  <vdw_area>
275.64218

>  <vdw_vol>
348.01578

>  <vsa_acc>
13.566921

>  <vsa_acid>
0

>  <vsa_base>
0

>  <vsa_don>
0

>  <vsa_hyd>
211.07922

>  <vsa_other>
12.949531

>  <vsa_pol>
31.30941

>  <Weight>
252.382

>  <weinerPath>
486

>  <weinerPol>
26

>  <zagreb>
88

$$$$