O(CC(O)CNC(C)C)c1ccc(cc1)CCOC
  MOE2013           2D

 19 19  0  0  1  0  0  0  0  0999 V2000
    0.0000    0.0000    0.0000 O   0  0  0  0  0  0  0  0  0  0  0  0
   -1.3000    0.7480    0.0000 C   0  0  0  0  0  0  0  0  0  0  0  0
   -2.5980   -0.0050    0.0000 C   0  0  3  0  0  0  0  0  0  0  0  0
   -2.5950   -1.5050    0.0000 O   0  0  0  0  0  0  0  0  0  0  0  0
   -3.8990    0.7430    0.0000 C   0  0  0  0  0  0  0  0  0  0  0  0
   -5.1960   -0.0100    0.0000 N   0  0  0  0  0  0  0  0  0  0  0  0
   -6.4970    0.7380    0.0000 C   0  0  0  0  0  0  0  0  0  0  0  0
   -7.7940   -0.0150    0.0000 C   0  0  0  0  0  0  0  0  0  0  0  0
   -6.4990    2.2380    0.0000 C   0  0  0  0  0  0  0  0  0  0  0  0
    1.2980    0.7520    0.0000 C   0  0  0  0  0  0  0  0  0  0  0  0
    1.2950    2.2520    0.0000 C   0  0  0  0  0  0  0  0  0  0  0  0
    2.5920    3.0050    0.0000 C   0  0  0  0  0  0  0  0  0  0  0  0
    3.8930    2.2570    0.0000 C   0  0  0  0  0  0  0  0  0  0  0  0
    3.8960    0.7570    0.0000 C   0  0  0  0  0  0  0  0  0  0  0  0
    2.5980    0.0050    0.0000 C   0  0  0  0  0  0  0  0  0  0  0  0
    5.1900    3.0100    0.0000 C   0  0  0  0  0  0  0  0  0  0  0  0
    6.4910    2.2620    0.0000 C   0  0  0  0  0  0  0  0  0  0  0  0
    7.7890    3.0150    0.0000 O   0  0  0  0  0  0  0  0  0  0  0  0
    9.0890    2.2670    0.0000 C   0  0  0  0  0  0  0  0  0  0  0  0
  1  2  1  0  0  0  0
  1 10  1  0  0  0  0
  2  3  1  0  0  0  0
  3  4  1  0  0  0  0
  3  5  1  0  0  0  0
  5  6  1  0  0  0  0
  6  7  1  0  0  0  0
  7  8  1  0  0  0  0
  7  9  1  0  0  0  0
 10 11  1  0  0  0  0
 10 15  2  0  0  0  0
 11 12  2  0  0  0  0
 12 13  1  0  0  0  0
 13 14  2  0  0  0  0
 13 16  1  0  0  0  0
 14 15  1  0  0  0  0
 16 17  1  0  0  0  0
 17 18  1  0  0  0  0
 18 19  1  0  0  0  0
M  END
>  <Index>
702

>  <ID>
HT1379

>  <class>
0

>  <apol>
46.575825

>  <ast_fraglike>
0

>  <ast_fraglike_ext>
0

>  <ast_violation>
1

>  <ast_violation_ext>
2

>  <a_acc>
4

>  <a_acid>
0

>  <a_aro>
6

>  <a_base>
0

>  <a_count>
44

>  <a_don>
2

>  <a_donacc>
6

>  <a_heavy>
19

>  <a_hyd>
15

>  <a_IC>
60.760342

>  <a_ICM>
1.3809168

>  <a_nB>
0

>  <a_nBr>
0

>  <a_nC>
15

>  <a_nCl>
0

>  <a_nF>
0

>  <a_nH>
25

>  <a_nI>
0

>  <a_nN>
1

>  <a_nO>
3

>  <a_nP>
0

>  <a_nS>
0

>  <balabanJ>
2.0583003

>  <BCUT_PEOE_0>
-2.6557579

>  <BCUT_PEOE_1>
-0.48085845

>  <BCUT_PEOE_2>
0.51564044

>  <BCUT_PEOE_3>
2.598336

>  <BCUT_SLOGP_0>
-2.8163364

>  <BCUT_SLOGP_1>
-0.47578451

>  <BCUT_SLOGP_2>
0.53541982

>  <BCUT_SLOGP_3>
2.5240347

>  <BCUT_SMR_0>
-2.3944163

>  <BCUT_SMR_1>
-0.35273215

>  <BCUT_SMR_2>
0.6390534

>  <BCUT_SMR_3>
2.8449683

>  <bpol>
31.822174

>  <b_1rotN>
9

>  <b_1rotR>
0.47368422

>  <b_ar>
6

>  <b_count>
44

>  <b_double>
0

>  <b_heavy>
19

>  <b_max1len>
7

>  <b_rotN>
9

>  <b_rotR>
0.47368422

>  <b_single>
38

>  <b_triple>
0

>  <chi0>
14.087576

>  <chi0v>
12.056239

>  <chi0v_C>
10.292529

>  <chi0_C>
10.966255

>  <chi1>
9.1133919

>  <chi1v>
6.736268

>  <chi1v_C>
4.6461177

>  <chi1_C>
5.5124388

>  <chiral>
1

>  <chiral_u>
1

>  <density>
0.6771155

>  <diameter>
14

>  <FCharge>
0

>  <GCUT_PEOE_0>
-0.84582686

>  <GCUT_PEOE_1>
-0.3622686

>  <GCUT_PEOE_2>
0.031086612

>  <GCUT_PEOE_3>
2.4899631

>  <GCUT_SLOGP_0>
-1.1534545

>  <GCUT_SLOGP_1>
-0.32271358

>  <GCUT_SLOGP_2>
0.067715079

>  <GCUT_SLOGP_3>
2.5234833

>  <GCUT_SMR_0>
-0.52160704

>  <GCUT_SMR_1>
-0.19660515

>  <GCUT_SMR_2>
0.12734115

>  <GCUT_SMR_3>
2.7324431

>  <Kier1>
17.052631

>  <Kier2>
9.8336487

>  <Kier3>
8

>  <KierA1>
14.96606

>  <KierA2>
8.5640497

>  <KierA3>
6.9253221

>  <KierFlex>
6.7457933

>  <lip_acc>
4

>  <lip_don>
2

>  <lip_druglike>
1

>  <lip_violation>
0

>  <logP(o/w)>
1.8789999

>  <logS>
-1.83175

>  <mr>
7.7433338

>  <mutagenic>
0

>  <nmol>
1

>  <opr_brigid>
6

>  <opr_leadlike>
1

>  <opr_nring>
1

>  <opr_nrot>
9

>  <opr_violation>
0

>  <PC+>
0

>  <PC->
0

>  <PEOE_PC+>
1.7482945

>  <PEOE_PC->
-1.7482945

>  <PEOE_RPC+>
0.12007789

>  <PEOE_RPC->
0.22206648

>  <PEOE_VSA+0>
88.255188

>  <PEOE_VSA+1>
94.450668

>  <PEOE_VSA+2>
8.6190128

>  <PEOE_VSA+3>
0

>  <PEOE_VSA+4>
10.324173

>  <PEOE_VSA+5>
0

>  <PEOE_VSA+6>
0

>  <PEOE_VSA-0>
72.915016

>  <PEOE_VSA-1>
24.509808

>  <PEOE_VSA-2>
0

>  <PEOE_VSA-3>
0

>  <PEOE_VSA-4>
0

>  <PEOE_VSA-5>
0

>  <PEOE_VSA-6>
12.911943

>  <PEOE_VSA_FHYD>
0.92552191

>  <PEOE_VSA_FNEG>
0.35365957

>  <PEOE_VSA_FPNEG>
0.041386317

>  <PEOE_VSA_FPOL>
0.07447812

>  <PEOE_VSA_FPOS>
0.64634043

>  <PEOE_VSA_FPPOS>
0.033091802

>  <PEOE_VSA_HYD>
288.74969

>  <PEOE_VSA_NEG>
110.33677

>  <PEOE_VSA_PNEG>
12.911943

>  <PEOE_VSA_POL>
23.236116

>  <PEOE_VSA_POS>
201.64905

>  <PEOE_VSA_PPOS>
10.324173

>  <petitjean>
0.5

>  <petitjeanSC>
1

>  <Q_PC+>
0

>  <Q_PC->
0

>  <Q_RPC+>
0

>  <Q_RPC->
0

>  <Q_VSA_FHYD>
1

>  <Q_VSA_FNEG>
0

>  <Q_VSA_FPNEG>
0

>  <Q_VSA_FPOL>
0

>  <Q_VSA_FPOS>
1

>  <Q_VSA_FPPOS>
0

>  <Q_VSA_HYD>
311.98581

>  <Q_VSA_NEG>
0

>  <Q_VSA_PNEG>
0

>  <Q_VSA_POL>
0

>  <Q_VSA_POS>
311.98581

>  <Q_VSA_PPOS>
0

>  <radius>
7

>  <reactive>
0

>  <rings>
1

>  <RPC+>
0

>  <RPC->
0

>  <rsynth>
1

>  <SlogP>
1.61317

>  <SlogP_VSA0>
54.395866

>  <SlogP_VSA1>
0

>  <SlogP_VSA2>
21.450506

>  <SlogP_VSA3>
60.292095

>  <SlogP_VSA4>
3.185575

>  <SlogP_VSA5>
54.252274

>  <SlogP_VSA6>
0

>  <SlogP_VSA7>
70.572739

>  <SlogP_VSA8>
0

>  <SlogP_VSA9>
71.895454

>  <SMR>
7.6662502

>  <SMR_VSA0>
10.999887

>  <SMR_VSA1>
36.385113

>  <SMR_VSA2>
18.01075

>  <SMR_VSA3>
18.879622

>  <SMR_VSA4>
0

>  <SMR_VSA5>
89.441139

>  <SMR_VSA6>
60.292095

>  <SMR_VSA7>
102.0359

>  <TPSA>
50.720001

>  <VAdjEq>
0.48546076

>  <VAdjMa>
5.2479277

>  <VDistEq>
3.5550549

>  <VDistMa>
8.1345682

>  <vdw_area>
311.98581

>  <vdw_vol>
394.86465

>  <vsa_acc>
5.0075121

>  <vsa_acid>
0

>  <vsa_base>
0

>  <vsa_don>
0

>  <vsa_hyd>
263.7594

>  <vsa_other>
0

>  <vsa_pol>
24.25701

>  <Weight>
267.36899

>  <weinerPath>
906

>  <weinerPol>
21

>  <zagreb>
84

$$$$