O1[C@@H](C/C=CC=C[C@H](OC(=O)C)[C@@H](C[C@H](CC=O)[C@H](O[C@@H]2O[C@H](C)[C@@H](O[C@@H]3O[C@@H](C)[C@H](OC(=O)CC)[C@](OC(=O)C)(C3)C)[C@H](N(C)C)[C@H]2O)[C@@H](OC)[C@@H](OC(=O)CC)CC1=O)C)C
  MOE2013           2D

 63 65  0  0  1  0  0  0  0  0999 V2000
    0.0000    0.0000    0.0000 O   0  0  0  0  0  0  0  0  0  0  0  0
   -1.2940   -0.7240    0.0000 C   0  0  1  0  0  0  0  0  0  0  0  0
   -2.5940    0.0380    0.0000 C   0  0  0  0  0  0  0  0  0  0  0  0
   -2.5520    1.5510    0.0000 C   0  0  0  0  0  0  0  0  0  0  0  0
   -3.8130    2.3290    0.0000 C   0  0  0  0  0  0  0  0  0  0  0  0
   -3.9490    3.7550    0.0000 C   0  0  0  0  0  0  0  0  0  0  0  0
   -2.9720    4.8030    0.0000 C   0  0  0  0  0  0  0  0  0  0  0  0
   -1.4980    4.6490    0.0000 C   0  0  2  0  0  0  0  0  0  0  0  0
   -2.1090    6.0190    0.0000 O   0  0  0  0  0  0  0  0  0  0  0  0
   -3.6010    6.1750    0.0000 C   0  0  0  0  0  0  0  0  0  0  0  0
   -4.4820    4.9620    0.0000 O   0  0  0  0  0  0  0  0  0  0  0  0
   -4.2110    7.5460    0.0000 C   0  0  0  0  0  0  0  0  0  0  0  0
   -0.6080    5.8740    0.0000 C   0  0  1  0  0  0  0  0  0  0  0  0
    0.8870    5.6890    0.0000 C   0  0  0  0  0  0  0  0  0  0  0  0
    1.4740    4.3270    0.0000 C   0  0  2  0  0  0  0  0  0  0  0  0
    2.3810    5.5230    0.0000 C   0  0  0  0  0  0  0  0  0  0  0  0
    1.7990    6.9050    0.0000 C   0  0  0  0  0  0  0  0  0  0  0  0
    2.7050    8.1000    0.0000 O   0  0  0  0  0  0  0  0  0  0  0  0
    2.9730    4.1250    0.0000 C   0  0  2  0  0  0  0  0  0  0  0  0
    3.9450    5.2670    0.0000 O   0  0  0  0  0  0  0  0  0  0  0  0
    5.4210    4.9960    0.0000 C   0  0  2  0  0  0  0  0  0  0  0  0
    5.9230    3.5820    0.0000 O   0  0  0  0  0  0  0  0  0  0  0  0
    7.3980    3.3110    0.0000 C   0  0  2  0  0  0  0  0  0  0  0  0
    7.9010    1.8970    0.0000 C   0  0  0  0  0  0  0  0  0  0  0  0
    8.3710    4.4520    0.0000 C   0  0  1  0  0  0  0  0  0  0  0  0
    9.8460    4.1810    0.0000 O   0  0  0  0  0  0  0  0  0  0  0  0
   10.3490    2.7680    0.0000 C   0  0  2  0  0  0  0  0  0  0  0  0
    9.3760    1.6260    0.0000 O   0  0  0  0  0  0  0  0  0  0  0  0
    9.8780    0.2120    0.0000 C   0  0  1  0  0  0  0  0  0  0  0  0
    8.9060   -0.9290    0.0000 C   0  0  0  0  0  0  0  0  0  0  0  0
   11.3540   -0.0590    0.0000 C   0  0  2  0  0  0  0  0  0  0  0  0
   11.8560   -1.4720    0.0000 O   0  0  0  0  0  0  0  0  0  0  0  0
   10.8830   -2.6140    0.0000 C   0  0  0  0  0  0  0  0  0  0  0  0
    9.4080   -2.3430    0.0000 O   0  0  0  0  0  0  0  0  0  0  0  0
   11.3860   -4.0280    0.0000 C   0  0  0  0  0  0  0  0  0  0  0  0
   10.4130   -5.1690    0.0000 C   0  0  0  0  0  0  0  0  0  0  0  0
   12.3260    1.0830    0.0000 C   0  0  2  0  0  0  0  0  0  0  0  0
   13.4680    0.1100    0.0000 O   0  0  0  0  0  0  0  0  0  0  0  0
   14.8810    0.6120    0.0000 C   0  0  0  0  0  0  0  0  0  0  0  0
   16.0230   -0.3600    0.0000 O   0  0  0  0  0  0  0  0  0  0  0  0
   15.1530    2.0880    0.0000 C   0  0  0  0  0  0  0  0  0  0  0  0
   11.8240    2.4960    0.0000 C   0  0  0  0  0  0  0  0  0  0  0  0
   13.7400    1.5850    0.0000 C   0  0  0  0  0  0  0  0  0  0  0  0
    7.8690    5.8660    0.0000 C   0  0  2  0  0  0  0  0  0  0  0  0
    8.8410    7.0080    0.0000 N   0  0  0  0  0  0  0  0  0  0  0  0
   10.3170    6.7360    0.0000 C   0  0  0  0  0  0  0  0  0  0  0  0
    8.3390    8.4210    0.0000 C   0  0  0  0  0  0  0  0  0  0  0  0
    6.3930    6.1370    0.0000 C   0  0  1  0  0  0  0  0  0  0  0  0
    5.8910    7.5510    0.0000 O   0  0  0  0  0  0  0  0  0  0  0  0
    3.4240    2.6310    0.0000 C   0  0  1  0  0  0  0  0  0  0  0  0
    4.8700    2.2300    0.0000 O   0  0  0  0  0  0  0  0  0  0  0  0
    5.2460    0.7780    0.0000 C   0  0  0  0  0  0  0  0  0  0  0  0
    2.3190    1.6280    0.0000 C   0  0  1  0  0  0  0  0  0  0  0  0
    3.7380    1.1430    0.0000 O   0  0  0  0  0  0  0  0  0  0  0  0
    4.0290   -0.3280    0.0000 C   0  0  0  0  0  0  0  0  0  0  0  0
    5.4490   -0.8120    0.0000 O   0  0  0  0  0  0  0  0  0  0  0  0
    2.9000   -1.3160    0.0000 C   0  0  0  0  0  0  0  0  0  0  0  0
    3.1900   -2.7870    0.0000 C   0  0  0  0  0  0  0  0  0  0  0  0
    2.5810    0.1580    0.0000 C   0  0  0  0  0  0  0  0  0  0  0  0
    1.3120   -0.7510    0.0000 C   0  0  0  0  0  0  0  0  0  0  0  0
    1.3880   -2.2490    0.0000 O   0  0  0  0  0  0  0  0  0  0  0  0
   -1.2050    7.2500    0.0000 C   0  0  0  0  0  0  0  0  0  0  0  0
   -1.3090   -2.2240    0.0000 C   0  0  0  0  0  0  0  0  0  0  0  0
  1  2  1  0  0  0  0
  1 60  1  0  0  0  0
  2  3  1  0  0  0  0
  2 63  1  6  0  0  0
  3  4  1  0  0  0  0
  4  5  2  3  0  0  0
  5  6  1  0  0  0  0
  6  7  2  3  0  0  0
  7  8  1  0  0  0  0
  8  9  1  6  0  0  0
  8 13  1  0  0  0  0
  9 10  1  0  0  0  0
 10 11  2  0  0  0  0
 10 12  1  0  0  0  0
 13 14  1  0  0  0  0
 13 62  1  6  0  0  0
 14 15  1  0  0  0  0
 15 16  1  6  0  0  0
 15 19  1  0  0  0  0
 16 17  1  0  0  0  0
 17 18  2  0  0  0  0
 19 20  1  6  0  0  0
 19 50  1  0  0  0  0
 21 20  1  1  0  0  0
 21 22  1  0  0  0  0
 21 48  1  0  0  0  0
 22 23  1  0  0  0  0
 23 24  1  1  0  0  0
 23 25  1  0  0  0  0
 25 26  1  6  0  0  0
 25 44  1  0  0  0  0
 27 26  1  1  0  0  0
 27 28  1  0  0  0  0
 27 42  1  0  0  0  0
 28 29  1  0  0  0  0
 29 30  1  6  0  0  0
 29 31  1  0  0  0  0
 31 32  1  1  0  0  0
 31 37  1  0  0  0  0
 32 33  1  0  0  0  0
 33 34  2  0  0  0  0
 33 35  1  0  0  0  0
 35 36  1  0  0  0  0
 37 38  1  1  0  0  0
 37 42  1  0  0  0  0
 37 43  1  6  0  0  0
 38 39  1  0  0  0  0
 39 40  2  0  0  0  0
 39 41  1  0  0  0  0
 44 45  1  1  0  0  0
 44 48  1  0  0  0  0
 45 46  1  0  0  0  0
 45 47  1  0  0  0  0
 48 49  1  6  0  0  0
 50 51  1  1  0  0  0
 50 53  1  0  0  0  0
 51 52  1  0  0  0  0
 53 54  1  1  0  0  0
 53 59  1  0  0  0  0
 54 55  1  0  0  0  0
 55 56  2  0  0  0  0
 55 57  1  0  0  0  0
 57 58  1  0  0  0  0
 59 60  1  0  0  0  0
 60 61  2  0  0  0  0
M  END
>  <Index>
719

>  <ID>
HT1409

>  <class>
0

>  <apol>
141.27631

>  <ast_fraglike>
0

>  <ast_fraglike_ext>
0

>  <ast_violation>
3

>  <ast_violation_ext>
5

>  <a_acc>
13

>  <a_acid>
0

>  <a_aro>
0

>  <a_base>
0

>  <a_count>
134

>  <a_don>
1

>  <a_donacc>
14

>  <a_heavy>
63

>  <a_hyd>
37

>  <a_IC>
193.60365

>  <a_ICM>
1.4448034

>  <a_nB>
0

>  <a_nBr>
0

>  <a_nC>
45

>  <a_nCl>
0

>  <a_nF>
0

>  <a_nH>
71

>  <a_nI>
0

>  <a_nN>
1

>  <a_nO>
17

>  <a_nP>
0

>  <a_nS>
0

>  <balabanJ>
2.0548847

>  <BCUT_PEOE_0>
-2.8112874

>  <BCUT_PEOE_1>
-0.45175377

>  <BCUT_PEOE_2>
0.43168136

>  <BCUT_PEOE_3>
2.8406119

>  <BCUT_SLOGP_0>
-2.951982

>  <BCUT_SLOGP_1>
-0.39231598

>  <BCUT_SLOGP_2>
0.38777611

>  <BCUT_SLOGP_3>
2.7708578

>  <BCUT_SMR_0>
-2.5902436

>  <BCUT_SMR_1>
-0.29527718

>  <BCUT_SMR_2>
0.5626632

>  <BCUT_SMR_3>
3.0467825

>  <bpol>
104.5057

>  <b_1rotN>
14

>  <b_1rotR>
0.21538462

>  <b_ar>
0

>  <b_count>
136

>  <b_double>
8

>  <b_heavy>
65

>  <b_max1len>
4

>  <b_rotN>
18

>  <b_rotR>
0.27692309

>  <b_single>
128

>  <b_triple>
0

>  <chi0>
47.180706

>  <chi0v>
38.923153

>  <chi0v_C>
31.496754

>  <chi0_C>
32.532288

>  <chi1>
29.671398

>  <chi1v>
21.890093

>  <chi1v_C>
14.525823

>  <chi1_C>
15.603026

>  <chiral>
16

>  <chiral_u>
0

>  <density>
0.7484839

>  <diameter>
22

>  <FCharge>
0

>  <GCUT_PEOE_0>
-0.85206741

>  <GCUT_PEOE_1>
-0.37761641

>  <GCUT_PEOE_2>
-0.0081300428

>  <GCUT_PEOE_3>
3.4578955

>  <GCUT_SLOGP_0>
-0.9699316

>  <GCUT_SLOGP_1>
-0.28802037

>  <GCUT_SLOGP_2>
-0.018096596

>  <GCUT_SLOGP_3>
3.4239237

>  <GCUT_SMR_0>
-0.53313768

>  <GCUT_SMR_1>
-0.19646277

>  <GCUT_SMR_2>
0.10072304

>  <GCUT_SMR_3>
3.6609783

>  <Kier1>
57.318817

>  <Kier2>
27.859196

>  <Kier3>
17.479834

>  <KierA1>
51.153633

>  <KierA2>
24.815683

>  <KierA3>
15.549715

>  <KierFlex>
20.149403

>  <lip_acc>
18

>  <lip_don>
1

>  <lip_druglike>
0

>  <lip_violation>
2

>  <logP(o/w)>
4.1172199

>  <logS>
-5.5630999

>  <mr>
23.010279

>  <mutagenic>
0

>  <nmol>
1

>  <opr_brigid>
28

>  <opr_leadlike>
0

>  <opr_nring>
2

>  <opr_nrot>
31

>  <opr_violation>
3

>  <PC+>
0

>  <PC->
0

>  <PEOE_PC+>
6.2762651

>  <PEOE_PC->
-6.2762651

>  <PEOE_RPC+>
0.042223595

>  <PEOE_RPC->
0.061361957

>  <PEOE_VSA+0>
306.30219

>  <PEOE_VSA+1>
121.67963

>  <PEOE_VSA+2>
47.294914

>  <PEOE_VSA+3>
22.309816

>  <PEOE_VSA+4>
10.324173

>  <PEOE_VSA+5>
73.542496

>  <PEOE_VSA+6>
0

>  <PEOE_VSA-0>
138.87071

>  <PEOE_VSA-1>
105.26265

>  <PEOE_VSA-2>
0

>  <PEOE_VSA-3>
0

>  <PEOE_VSA-4>
0

>  <PEOE_VSA-5>
67.834602

>  <PEOE_VSA-6>
46.372021

>  <PEOE_VSA_FHYD>
0.78923738

>  <PEOE_VSA_FNEG>
0.38129663

>  <PEOE_VSA_FPNEG>
0.12152314

>  <PEOE_VSA_FPOL>
0.21076263

>  <PEOE_VSA_FPOS>
0.61870337

>  <PEOE_VSA_FPPOS>
0.089239493

>  <PEOE_VSA_HYD>
741.71991

>  <PEOE_VSA_NEG>
358.34

>  <PEOE_VSA_PNEG>
114.20663

>  <PEOE_VSA_POL>
198.07329

>  <PEOE_VSA_POS>
581.45325

>  <PEOE_VSA_PPOS>
83.866669

>  <petitjean>
0.5

>  <petitjeanSC>
1

>  <Q_PC+>
0

>  <Q_PC->
0

>  <Q_RPC+>
0

>  <Q_RPC->
0

>  <Q_VSA_FHYD>
1

>  <Q_VSA_FNEG>
0

>  <Q_VSA_FPNEG>
0

>  <Q_VSA_FPOL>
0

>  <Q_VSA_FPOS>
1

>  <Q_VSA_FPPOS>
0

>  <Q_VSA_HYD>
939.79321

>  <Q_VSA_NEG>
0

>  <Q_VSA_PNEG>
0

>  <Q_VSA_POL>
0

>  <Q_VSA_POS>
939.79321

>  <Q_VSA_PPOS>
0

>  <radius>
11

>  <reactive>
1

>  <rings>
3

>  <RPC+>
0

>  <RPC->
0

>  <rsynth>
0.66666669

>  <SlogP>
3.9089999

>  <SlogP_VSA0>
25.385227

>  <SlogP_VSA1>
41.851635

>  <SlogP_VSA2>
359.03885

>  <SlogP_VSA3>
0

>  <SlogP_VSA4>
8.8215923

>  <SlogP_VSA5>
101.17825

>  <SlogP_VSA6>
0

>  <SlogP_VSA7>
70.572739

>  <SlogP_VSA8>
132.07884

>  <SlogP_VSA9>
299.93414

>  <SMR>
22.43988

>  <SMR_VSA0>
253.17218

>  <SMR_VSA1>
28.509541

>  <SMR_VSA2>
8.8215923

>  <SMR_VSA3>
85.721466

>  <SMR_VSA4>
0

>  <SMR_VSA5>
202.65158

>  <SMR_VSA6>
38.727322

>  <SMR_VSA7>
421.2576

>  <TPSA>
218.19

>  <VAdjEq>
0.20801958

>  <VAdjMa>
7.022368

>  <VDistEq>
4.1948528

>  <VDistMa>
11.713144

>  <vdw_area>
939.79321

>  <vdw_vol>
1199.8293

>  <vsa_acc>
93.920303

>  <vsa_acid>
0

>  <vsa_base>
0

>  <vsa_don>
0

>  <vsa_hyd>
637.72864

>  <vsa_other>
137.53674

>  <vsa_pol>
107.48723

>  <Weight>
898.05298

>  <weinerPath>
17402

>  <weinerPol>
107

>  <zagreb>
312

$$$$