O(C(=O)C=1C(C(=C(OCC)/O)C(=NC=1C)C)c1cc([N+](=O)[O-])ccc1)C
  MOE2013           2D

 26 27  0  0  1  0  0  0  0  0999 V2000
    0.0000    0.0000    0.0000 O   0  0  0  0  0  0  0  0  0  0  0  0
    0.7390    1.3050    0.0000 C   0  0  0  0  0  0  0  0  0  0  0  0
   -0.0210    2.5980    0.0000 O   0  0  0  0  0  0  0  0  0  0  0  0
    2.2390    1.3170    0.0000 C   0  0  0  0  0  0  0  0  0  0  0  0
    2.9790    2.6220    0.0000 C   0  0  3  0  0  0  0  0  0  0  0  0
    4.4790    2.6350    0.0000 C   0  0  0  0  0  0  0  0  0  0  0  0
    5.2180    3.9400    0.0000 C   0  0  0  0  0  0  0  0  0  0  0  0
    6.7180    3.9520    0.0000 O   0  0  0  0  0  0  0  0  0  0  0  0
    7.4570    5.2570    0.0000 C   0  0  0  0  0  0  0  0  0  0  0  0
    8.9570    5.2690    0.0000 C   0  0  0  0  0  0  0  0  0  0  0  0
    4.4570    5.2330    0.0000 O   0  0  0  0  0  0  0  0  0  0  0  0
    5.2390    1.3420    0.0000 C   0  0  0  0  0  0  0  0  0  0  0  0
    4.5000    0.0370    0.0000 N   0  0  0  0  0  0  0  0  0  0  0  0
    3.0000    0.0240    0.0000 C   0  0  0  0  0  0  0  0  0  0  0  0
    2.2610   -1.2810    0.0000 C   0  0  0  0  0  0  0  0  0  0  0  0
    6.7390    1.3540    0.0000 C   0  0  0  0  0  0  0  0  0  0  0  0
    2.2180    3.9150    0.0000 C   0  0  0  0  0  0  0  0  0  0  0  0
    0.7180    3.9030    0.0000 C   0  0  0  0  0  0  0  0  0  0  0  0
   -0.0420    5.1960    0.0000 C   0  0  0  0  0  0  0  0  0  0  0  0
   -1.5420    5.1840    0.0000 N   0  3  0  0  0  0  0  0  0  0  0  0
   -2.2820    3.8790    0.0000 O   0  0  0  0  0  0  0  0  0  0  0  0
   -2.3030    6.4770    0.0000 O   0  5  0  0  0  0  0  0  0  0  0  0
    0.6970    6.5010    0.0000 C   0  0  0  0  0  0  0  0  0  0  0  0
    2.1970    6.5130    0.0000 C   0  0  0  0  0  0  0  0  0  0  0  0
    2.9580    5.2200    0.0000 C   0  0  0  0  0  0  0  0  0  0  0  0
   -1.5000   -0.0120    0.0000 C   0  0  0  0  0  0  0  0  0  0  0  0
  1  2  1  0  0  0  0
  1 26  1  0  0  0  0
  2  3  2  0  0  0  0
  2  4  1  0  0  0  0
  4  5  1  0  0  0  0
  4 14  2  0  0  0  0
  5  6  1  0  0  0  0
  5 17  1  0  0  0  0
  6  7  2  3  0  0  0
  6 12  1  0  0  0  0
  7  8  1  0  0  0  0
  7 11  1  0  0  0  0
  8  9  1  0  0  0  0
  9 10  1  0  0  0  0
 12 13  2  0  0  0  0
 12 16  1  0  0  0  0
 13 14  1  0  0  0  0
 14 15  1  0  0  0  0
 17 18  1  0  0  0  0
 17 25  2  0  0  0  0
 18 19  2  0  0  0  0
 19 20  1  0  0  0  0
 19 23  1  0  0  0  0
 20 21  2  0  0  0  0
 20 22  1  0  0  0  0
 23 24  2  0  0  0  0
 24 25  1  0  0  0  0
M  CHG  1  20   1
M  CHG  1  22  -1
M  END
>  <Index>
774

>  <ID>
HT1505

>  <class>
0

>  <apol>
52.027859

>  <ast_fraglike>
0

>  <ast_fraglike_ext>
0

>  <ast_violation>
3

>  <ast_violation_ext>
4

>  <a_acc>
4

>  <a_acid>
0

>  <a_aro>
6

>  <a_base>
0

>  <a_count>
46

>  <a_don>
1

>  <a_donacc>
5

>  <a_heavy>
26

>  <a_hyd>
16

>  <a_IC>
75.076866

>  <a_ICM>
1.6321057

>  <a_nB>
0

>  <a_nBr>
0

>  <a_nC>
18

>  <a_nCl>
0

>  <a_nF>
0

>  <a_nH>
20

>  <a_nI>
0

>  <a_nN>
2

>  <a_nO>
6

>  <a_nP>
0

>  <a_nS>
0

>  <balabanJ>
2.353229

>  <BCUT_PEOE_0>
-2.4712155

>  <BCUT_PEOE_1>
-0.48005557

>  <BCUT_PEOE_2>
0.46099734

>  <BCUT_PEOE_3>
2.5178981

>  <BCUT_SLOGP_0>
-2.4334872

>  <BCUT_SLOGP_1>
-0.40314919

>  <BCUT_SLOGP_2>
0.49651363

>  <BCUT_SLOGP_3>
2.5830903

>  <BCUT_SMR_0>
-2.2005634

>  <BCUT_SMR_1>
-0.22130783

>  <BCUT_SMR_2>
0.6568957

>  <BCUT_SMR_3>
2.7972989

>  <bpol>
29.230141

>  <b_1rotN>
5

>  <b_1rotR>
0.18518518

>  <b_ar>
6

>  <b_count>
47

>  <b_double>
5

>  <b_heavy>
27

>  <b_max1len>
3

>  <b_rotN>
6

>  <b_rotR>
0.22222222

>  <b_single>
36

>  <b_triple>
0

>  <chi0>
19.430357

>  <chi0v>
14.976741

>  <chi0v_C>
11.593858

>  <chi0_C>
12.731687

>  <chi1>
12.310968

>  <chi1v>
7.9633708

>  <chi1v_C>
5.3944993

>  <chi1_C>
6.8281336

>  <chiral>
1

>  <chiral_u>
1

>  <density>
0.78221679

>  <diameter>
10

>  <FCharge>
0

>  <GCUT_PEOE_0>
-0.77558446

>  <GCUT_PEOE_1>
-0.41832948

>  <GCUT_PEOE_2>
-0.064340129

>  <GCUT_PEOE_3>
2.6963456

>  <GCUT_SLOGP_0>
-0.84479702

>  <GCUT_SLOGP_1>
-0.28309357

>  <GCUT_SLOGP_2>
0.022931354

>  <GCUT_SLOGP_3>
2.768575

>  <GCUT_SMR_0>
-0.51477969

>  <GCUT_SMR_1>
-0.16514607

>  <GCUT_SMR_2>
0.1767

>  <GCUT_SMR_3>
2.9599259

>  <Kier1>
22.29081

>  <Kier2>
9.9722996

>  <Kier3>
5.0934258

>  <KierA1>
16.883537

>  <KierA2>
7.4631615

>  <KierA3>
3.7792428

>  <KierFlex>
4.8463292

>  <lip_acc>
8

>  <lip_don>
1

>  <lip_druglike>
1

>  <lip_violation>
0

>  <logP(o/w)>
2.8699999

>  <logS>
-4.25703

>  <mr>
9.4026241

>  <mutagenic>
1

>  <nmol>
1

>  <opr_brigid>
13

>  <opr_leadlike>
1

>  <opr_nring>
2

>  <opr_nrot>
5

>  <opr_violation>
0

>  <PC+>
0

>  <PC->
0

>  <PEOE_PC+>
2.2377288

>  <PEOE_PC->
-2.2377288

>  <PEOE_RPC+>
0.13056648

>  <PEOE_RPC->
0.15201741

>  <PEOE_VSA+0>
107.76897

>  <PEOE_VSA+1>
59.57634

>  <PEOE_VSA+2>
0

>  <PEOE_VSA+3>
14.708499

>  <PEOE_VSA+4>
10.324173

>  <PEOE_VSA+5>
21.408051

>  <PEOE_VSA+6>
0

>  <PEOE_VSA-0>
58.451572

>  <PEOE_VSA-1>
24.509808

>  <PEOE_VSA-2>
0

>  <PEOE_VSA-3>
0

>  <PEOE_VSA-4>
0

>  <PEOE_VSA-5>
53.180546

>  <PEOE_VSA-6>
12.775052

>  <PEOE_VSA_FHYD>
0.73066717

>  <PEOE_VSA_FNEG>
0.41057554

>  <PEOE_VSA_FPNEG>
0.18184464

>  <PEOE_VSA_FPOL>
0.2693328

>  <PEOE_VSA_FPOS>
0.58942449

>  <PEOE_VSA_FPPOS>
0.087488174

>  <PEOE_VSA_HYD>
265.0152

>  <PEOE_VSA_NEG>
148.91698

>  <PEOE_VSA_PNEG>
65.955597

>  <PEOE_VSA_POL>
97.68782

>  <PEOE_VSA_POS>
213.78603

>  <PEOE_VSA_PPOS>
31.732224

>  <petitjean>
0.5

>  <petitjeanSC>
1

>  <Q_PC+>
0

>  <Q_PC->
0

>  <Q_RPC+>
0

>  <Q_RPC->
0

>  <Q_VSA_FHYD>
1

>  <Q_VSA_FNEG>
0

>  <Q_VSA_FPNEG>
0

>  <Q_VSA_FPOL>
0

>  <Q_VSA_FPOS>
1

>  <Q_VSA_FPPOS>
0

>  <Q_VSA_HYD>
362.703

>  <Q_VSA_NEG>
0

>  <Q_VSA_PNEG>
0

>  <Q_VSA_POL>
0

>  <Q_VSA_POS>
362.703

>  <Q_VSA_PPOS>
0

>  <radius>
5

>  <reactive>
1

>  <rings>
2

>  <RPC+>
0

>  <RPC->
0

>  <rsynth>
1

>  <SlogP>
3.4059999

>  <SlogP_VSA0>
0

>  <SlogP_VSA1>
17.587828

>  <SlogP_VSA2>
45.861992

>  <SlogP_VSA3>
97.24649

>  <SlogP_VSA4>
3.185575

>  <SlogP_VSA5>
68.598579

>  <SlogP_VSA6>
4.4107962

>  <SlogP_VSA7>
70.572739

>  <SlogP_VSA8>
0

>  <SlogP_VSA9>
102.73479

>  <SMR>
9.4943199

>  <SMR_VSA0>
52.947609

>  <SMR_VSA1>
16.78553

>  <SMR_VSA2>
76.320236

>  <SMR_VSA3>
24.025549

>  <SMR_VSA4>
2.7567475

>  <SMR_VSA5>
70.572739

>  <SMR_VSA6>
31.428471

>  <SMR_VSA7>
135.36191

>  <TPSA>
113.94

>  <VAdjEq>
0.40176207

>  <VAdjMa>
5.7548876

>  <VDistEq>
3.0790222

>  <VDistMa>
9.1721792

>  <vdw_area>
362.703

>  <vdw_vol>
460.69836

>  <vsa_acc>
21.753254

>  <vsa_acid>
0

>  <vsa_base>
0

>  <vsa_don>
0

>  <vsa_hyd>
235.43753

>  <vsa_other>
72.551353

>  <vsa_pol>
35.320175

>  <Weight>
360.366

>  <weinerPath>
1491

>  <weinerPol>
45

>  <zagreb>
130

$$$$