O(C(=O)C=1C(C(=C(OC)/O)C(=NC=1C)C)c1ccccc1[N+](=O)[O-])CC(C)C
  MOE2013           2D

 28 29  0  0  1  0  0  0  0  0999 V2000
    0.0000    0.0000    0.0000 O   0  0  0  0  0  0  0  0  0  0  0  0
   -1.3000    0.7480    0.0000 C   0  0  0  0  0  0  0  0  0  0  0  0
   -1.3030    2.2480    0.0000 O   0  0  0  0  0  0  0  0  0  0  0  0
   -2.5980   -0.0050    0.0000 C   0  0  0  0  0  0  0  0  0  0  0  0
   -3.8980    0.7430    0.0000 C   0  0  3  0  0  0  0  0  0  0  0  0
   -5.1960   -0.0090    0.0000 C   0  0  0  0  0  0  0  0  0  0  0  0
   -6.6070    0.5010    0.0000 C   0  0  0  0  0  0  0  0  0  0  0  0
   -6.8700    1.9780    0.0000 O   0  0  0  0  0  0  0  0  0  0  0  0
   -8.2800    2.4890    0.0000 C   0  0  0  0  0  0  0  0  0  0  0  0
   -7.7540   -0.4650    0.0000 O   0  0  0  0  0  0  0  0  0  0  0  0
   -5.1930   -1.5090    0.0000 C   0  0  0  0  0  0  0  0  0  0  0  0
   -3.8930   -2.2570    0.0000 N   0  0  0  0  0  0  0  0  0  0  0  0
   -2.5950   -1.5050    0.0000 C   0  0  0  0  0  0  0  0  0  0  0  0
   -1.2950   -2.2520    0.0000 C   0  0  0  0  0  0  0  0  0  0  0  0
   -6.4910   -2.2610    0.0000 C   0  0  0  0  0  0  0  0  0  0  0  0
   -3.6410    2.2210    0.0000 C   0  0  0  0  0  0  0  0  0  0  0  0
   -2.2320    2.7360    0.0000 C   0  0  0  0  0  0  0  0  0  0  0  0
   -1.9740    4.2140    0.0000 C   0  0  0  0  0  0  0  0  0  0  0  0
   -3.1250    5.1760    0.0000 C   0  0  0  0  0  0  0  0  0  0  0  0
   -4.5330    4.6610    0.0000 C   0  0  0  0  0  0  0  0  0  0  0  0
   -4.7910    3.1830    0.0000 C   0  0  0  0  0  0  0  0  0  0  0  0
   -6.2000    2.6670    0.0000 N   0  3  0  0  0  0  0  0  0  0  0  0
   -7.3510    3.6300    0.0000 O   0  0  0  0  0  0  0  0  0  0  0  0
   -6.4580    1.1900    0.0000 O   0  5  0  0  0  0  0  0  0  0  0  0
    1.2980    0.7520    0.0000 C   0  0  0  0  0  0  0  0  0  0  0  0
    2.5980    0.0050    0.0000 C   0  0  0  0  0  0  0  0  0  0  0  0
    3.8960    0.7570    0.0000 C   0  0  0  0  0  0  0  0  0  0  0  0
    2.6010   -1.4950    0.0000 C   0  0  0  0  0  0  0  0  0  0  0  0
  1  2  1  0  0  0  0
  1 25  1  0  0  0  0
  2  3  2  0  0  0  0
  2  4  1  0  0  0  0
  4  5  1  0  0  0  0
  4 13  2  0  0  0  0
  5  6  1  0  0  0  0
  5 16  1  0  0  0  0
  6  7  2  3  0  0  0
  6 11  1  0  0  0  0
  7  8  1  0  0  0  0
  7 10  1  0  0  0  0
  8  9  1  0  0  0  0
 11 12  2  0  0  0  0
 11 15  1  0  0  0  0
 12 13  1  0  0  0  0
 13 14  1  0  0  0  0
 16 17  1  0  0  0  0
 16 21  2  0  0  0  0
 17 18  2  0  0  0  0
 18 19  1  0  0  0  0
 19 20  2  0  0  0  0
 20 21  1  0  0  0  0
 21 22  1  0  0  0  0
 22 23  2  0  0  0  0
 22 24  1  0  0  0  0
 25 26  1  0  0  0  0
 26 27  1  0  0  0  0
 26 28  1  0  0  0  0
M  CHG  1  22   1
M  CHG  1  24  -1
M  END
>  <Index>
771

>  <ID>
HT1499

>  <class>
0

>  <apol>
58.215031

>  <ast_fraglike>
0

>  <ast_fraglike_ext>
0

>  <ast_violation>
3

>  <ast_violation_ext>
4

>  <a_acc>
4

>  <a_acid>
0

>  <a_aro>
6

>  <a_base>
0

>  <a_count>
52

>  <a_don>
1

>  <a_donacc>
5

>  <a_heavy>
28

>  <a_hyd>
18

>  <a_IC>
82.435425

>  <a_ICM>
1.5852968

>  <a_nB>
0

>  <a_nBr>
0

>  <a_nC>
20

>  <a_nCl>
0

>  <a_nF>
0

>  <a_nH>
24

>  <a_nI>
0

>  <a_nN>
2

>  <a_nO>
6

>  <a_nP>
0

>  <a_nS>
0

>  <balabanJ>
2.4059775

>  <BCUT_PEOE_0>
-2.5943484

>  <BCUT_PEOE_1>
-0.51425534

>  <BCUT_PEOE_2>
0.47086865

>  <BCUT_PEOE_3>
2.5742621

>  <BCUT_SLOGP_0>
-2.5662088

>  <BCUT_SLOGP_1>
-0.42632827

>  <BCUT_SLOGP_2>
0.51776665

>  <BCUT_SLOGP_3>
2.6233182

>  <BCUT_SMR_0>
-2.3594799

>  <BCUT_SMR_1>
-0.23521797

>  <BCUT_SMR_2>
0.68074524

>  <BCUT_SMR_3>
2.8217688

>  <bpol>
33.602966

>  <b_1rotN>
6

>  <b_1rotR>
0.20689656

>  <b_ar>
6

>  <b_count>
53

>  <b_double>
5

>  <b_heavy>
29

>  <b_max1len>
4

>  <b_rotN>
7

>  <b_rotR>
0.24137931

>  <b_single>
42

>  <b_triple>
0

>  <chi0>
21.007708

>  <chi0v>
16.55409

>  <chi0v_C>
13.171208

>  <chi0_C>
14.309036

>  <chi1>
13.183647

>  <chi1v>
8.8251963

>  <chi1v_C>
6.2563243

>  <chi1_C>
7.7008128

>  <chiral>
1

>  <chiral_u>
1

>  <density>
0.76227039

>  <diameter>
10

>  <FCharge>
0

>  <GCUT_PEOE_0>
-0.78262913

>  <GCUT_PEOE_1>
-0.418322

>  <GCUT_PEOE_2>
-0.023870571

>  <GCUT_PEOE_3>
2.7631512

>  <GCUT_SLOGP_0>
-0.84894699

>  <GCUT_SLOGP_1>
-0.26018906

>  <GCUT_SLOGP_2>
0.087321296

>  <GCUT_SLOGP_3>
2.8279352

>  <GCUT_SMR_0>
-0.53003311

>  <GCUT_SMR_1>
-0.16886948

>  <GCUT_SMR_2>
0.1652294

>  <GCUT_SMR_3>
3.0169554

>  <Kier1>
24.271107

>  <Kier2>
10.857822

>  <Kier3>
5.7956104

>  <KierA1>
18.778078

>  <KierA2>
8.315259

>  <KierA3>
4.4063358

>  <KierFlex>
5.5765924

>  <lip_acc>
8

>  <lip_don>
1

>  <lip_druglike>
1

>  <lip_violation>
0

>  <logP(o/w)>
3.803

>  <logS>
-4.6605701

>  <mr>
10.319848

>  <mutagenic>
1

>  <nmol>
1

>  <opr_brigid>
13

>  <opr_leadlike>
1

>  <opr_nring>
2

>  <opr_nrot>
6

>  <opr_violation>
0

>  <PC+>
0

>  <PC->
0

>  <PEOE_PC+>
2.3664393

>  <PEOE_PC->
-2.3664393

>  <PEOE_RPC+>
0.12357708

>  <PEOE_RPC->
0.14375181

>  <PEOE_VSA+0>
114.78415

>  <PEOE_VSA+1>
59.57634

>  <PEOE_VSA+2>
0

>  <PEOE_VSA+3>
14.708499

>  <PEOE_VSA+4>
10.324173

>  <PEOE_VSA+5>
21.408051

>  <PEOE_VSA+6>
0

>  <PEOE_VSA-0>
37.495354

>  <PEOE_VSA-1>
74.260063

>  <PEOE_VSA-2>
0

>  <PEOE_VSA-3>
0

>  <PEOE_VSA-4>
0

>  <PEOE_VSA-5>
53.180546

>  <PEOE_VSA-6>
12.775052

>  <PEOE_VSA_FHYD>
0.75486869

>  <PEOE_VSA_FNEG>
0.44593617

>  <PEOE_VSA_FPNEG>
0.16550457

>  <PEOE_VSA_FPOL>
0.2451313

>  <PEOE_VSA_FPOS>
0.5540638

>  <PEOE_VSA_FPPOS>
0.079626724

>  <PEOE_VSA_HYD>
300.8244

>  <PEOE_VSA_NEG>
177.71101

>  <PEOE_VSA_PNEG>
65.955597

>  <PEOE_VSA_POL>
97.68782

>  <PEOE_VSA_POS>
220.80121

>  <PEOE_VSA_PPOS>
31.732224

>  <petitjean>
0.5

>  <petitjeanSC>
1

>  <Q_PC+>
0

>  <Q_PC->
0

>  <Q_RPC+>
0

>  <Q_RPC->
0

>  <Q_VSA_FHYD>
1

>  <Q_VSA_FNEG>
0

>  <Q_VSA_FPNEG>
0

>  <Q_VSA_FPOL>
0

>  <Q_VSA_FPOS>
1

>  <Q_VSA_FPPOS>
0

>  <Q_VSA_HYD>
398.51224

>  <Q_VSA_NEG>
0

>  <Q_VSA_PNEG>
0

>  <Q_VSA_POL>
0

>  <Q_VSA_POS>
398.51224

>  <Q_VSA_PPOS>
0

>  <radius>
5

>  <reactive>
1

>  <rings>
2

>  <RPC+>
0

>  <RPC->
0

>  <rsynth>
1

>  <SlogP>
4.0421

>  <SlogP_VSA0>
0

>  <SlogP_VSA1>
17.587828

>  <SlogP_VSA2>
45.861992

>  <SlogP_VSA3>
97.24649

>  <SlogP_VSA4>
7.5963712

>  <SlogP_VSA5>
68.598579

>  <SlogP_VSA6>
4.4107962

>  <SlogP_VSA7>
70.572739

>  <SlogP_VSA8>
0

>  <SlogP_VSA9>
136.06081

>  <SMR>
10.41072

>  <SMR_VSA0>
52.947609

>  <SMR_VSA1>
16.78553

>  <SMR_VSA2>
80.731033

>  <SMR_VSA3>
24.025549

>  <SMR_VSA4>
2.7567475

>  <SMR_VSA5>
70.572739

>  <SMR_VSA6>
31.428471

>  <SMR_VSA7>
168.68793

>  <TPSA>
113.94

>  <VAdjEq>
0.38060221

>  <VAdjMa>
5.8579812

>  <VDistEq>
3.1490049

>  <VDistMa>
9.3893518

>  <vdw_area>
398.51224

>  <vdw_vol>
509.5567

>  <vsa_acc>
21.753254

>  <vsa_acid>
0

>  <vsa_base>
0

>  <vsa_don>
0

>  <vsa_hyd>
267.0545

>  <vsa_other>
72.551353

>  <vsa_pol>
35.320175

>  <Weight>
388.41998

>  <weinerPath>
1814

>  <weinerPol>
48

>  <zagreb>
140

$$$$