O1Cc2c(c(O)c(CC=C(CCC(O)=O)/C)c(OC)c2C)C1=O
  MOE2013           2D

 23 24  0  0  0  0  0  0  0  0999 V2000
    0.0000    0.0000    0.0000 O   0  0  0  0  0  0  0  0  0  0  0  0
    0.0380   -1.5000    0.0000 C   0  0  0  0  0  0  0  0  0  0  0  0
    1.4760   -1.9260    0.0000 C   0  0  0  0  0  0  0  0  0  0  0  0
    2.3270   -0.6910    0.0000 C   0  0  0  0  0  0  0  0  0  0  0  0
    3.8220   -0.8090    0.0000 C   0  0  0  0  0  0  0  0  0  0  0  0
    4.6720    0.4260    0.0000 O   0  0  0  0  0  0  0  0  0  0  0  0
    4.4670   -2.1640    0.0000 C   0  0  0  0  0  0  0  0  0  0  0  0
    5.9620   -2.2820    0.0000 C   0  0  0  0  0  0  0  0  0  0  0  0
    6.8130   -1.0470    0.0000 C   0  0  0  0  0  0  0  0  0  0  0  0
    8.3080   -1.1650    0.0000 C   0  0  0  0  0  0  0  0  0  0  0  0
    9.1580    0.0710    0.0000 C   0  0  0  0  0  0  0  0  0  0  0  0
   10.6540   -0.0480    0.0000 C   0  0  0  0  0  0  0  0  0  0  0  0
   11.5040    1.1880    0.0000 C   0  0  0  0  0  0  0  0  0  0  0  0
   12.9990    1.0690    0.0000 O   0  0  0  0  0  0  0  0  0  0  0  0
   10.8590    2.5420    0.0000 O   0  0  0  0  0  0  0  0  0  0  0  0
    8.9530   -2.5190    0.0000 C   0  0  0  0  0  0  0  0  0  0  0  0
    3.6170   -3.3990    0.0000 C   0  0  0  0  0  0  0  0  0  0  0  0
    4.2620   -4.7540    0.0000 O   0  0  0  0  0  0  0  0  0  0  0  0
    3.4110   -5.9890    0.0000 C   0  0  0  0  0  0  0  0  0  0  0  0
    2.1210   -3.2810    0.0000 C   0  0  0  0  0  0  0  0  0  0  0  0
    1.2710   -4.5160    0.0000 C   0  0  0  0  0  0  0  0  0  0  0  0
    1.4140    0.5000    0.0000 C   0  0  0  0  0  0  0  0  0  0  0  0
    1.8410    1.9380    0.0000 O   0  0  0  0  0  0  0  0  0  0  0  0
  1  2  1  0  0  0  0
  1 22  1  0  0  0  0
  2  3  1  0  0  0  0
  3  4  1  0  0  0  0
  3 20  2  0  0  0  0
  4  5  2  0  0  0  0
  4 22  1  0  0  0  0
  5  6  1  0  0  0  0
  5  7  1  0  0  0  0
  7  8  1  0  0  0  0
  7 17  2  0  0  0  0
  8  9  1  0  0  0  0
  9 10  2  3  0  0  0
 10 11  1  0  0  0  0
 10 16  1  0  0  0  0
 11 12  1  0  0  0  0
 12 13  1  0  0  0  0
 13 14  1  0  0  0  0
 13 15  2  0  0  0  0
 17 18  1  0  0  0  0
 17 20  1  0  0  0  0
 18 19  1  0  0  0  0
 20 21  1  0  0  0  0
 22 23  2  0  0  0  0
M  END
>  <Index>
736

>  <ID>
HT1443

>  <class>
0

>  <apol>
48.06786

>  <ast_fraglike>
0

>  <ast_fraglike_ext>
0

>  <ast_violation>
2

>  <ast_violation_ext>
3

>  <a_acc>
5

>  <a_acid>
0

>  <a_aro>
6

>  <a_base>
0

>  <a_count>
43

>  <a_don>
3

>  <a_donacc>
8

>  <a_heavy>
23

>  <a_hyd>
15

>  <a_IC>
61.89418

>  <a_ICM>
1.4393995

>  <a_nB>
0

>  <a_nBr>
0

>  <a_nC>
17

>  <a_nCl>
0

>  <a_nF>
0

>  <a_nH>
20

>  <a_nI>
0

>  <a_nN>
0

>  <a_nO>
6

>  <a_nP>
0

>  <a_nS>
0

>  <balabanJ>
1.9800012

>  <BCUT_PEOE_0>
-2.4930747

>  <BCUT_PEOE_1>
-0.44796735

>  <BCUT_PEOE_2>
0.44840068

>  <BCUT_PEOE_3>
2.4982321

>  <BCUT_SLOGP_0>
-2.3967304

>  <BCUT_SLOGP_1>
-0.37837011

>  <BCUT_SLOGP_2>
0.39338478

>  <BCUT_SLOGP_3>
2.6164956

>  <BCUT_SMR_0>
-2.2358148

>  <BCUT_SMR_1>
-0.23489507

>  <BCUT_SMR_2>
0.58271265

>  <BCUT_SMR_3>
2.7654927

>  <bpol>
27.612141

>  <b_1rotN>
6

>  <b_1rotR>
0.25

>  <b_ar>
6

>  <b_count>
44

>  <b_double>
3

>  <b_heavy>
24

>  <b_max1len>
5

>  <b_rotN>
6

>  <b_rotR>
0.25

>  <b_single>
35

>  <b_triple>
0

>  <chi0>
17.145901

>  <chi0v>
13.433198

>  <chi0v_C>
10.905777

>  <chi0_C>
11.731687

>  <chi1>
10.86228

>  <chi1v>
7.3217707

>  <chi1v_C>
5.3611369

>  <chi1_C>
6.5292754

>  <chiral>
0

>  <chiral_u>
0

>  <density>
0.76541752

>  <diameter>
11

>  <FCharge>
0

>  <GCUT_PEOE_0>
-0.78778189

>  <GCUT_PEOE_1>
-0.43129754

>  <GCUT_PEOE_2>
0.02203249

>  <GCUT_PEOE_3>
2.6268978

>  <GCUT_SLOGP_0>
-0.88721699

>  <GCUT_SLOGP_1>
-0.2870813

>  <GCUT_SLOGP_2>
-0.034961373

>  <GCUT_SLOGP_3>
2.7479439

>  <GCUT_SMR_0>
-0.50155169

>  <GCUT_SMR_1>
-0.18124905

>  <GCUT_SMR_2>
0.19680396

>  <GCUT_SMR_3>
2.8899016

>  <Kier1>
19.326389

>  <Kier2>
8.3927336

>  <Kier3>
4.3456788

>  <KierA1>
15.372139

>  <KierA2>
6.6013179

>  <KierA3>
3.3892071

>  <KierFlex>
4.4120164

>  <lip_acc>
6

>  <lip_don>
2

>  <lip_druglike>
1

>  <lip_violation>
0

>  <logP(o/w)>
2.23

>  <logS>
-2.9957399

>  <mr>
8.3790159

>  <mutagenic>
0

>  <nmol>
1

>  <opr_brigid>
11

>  <opr_leadlike>
1

>  <opr_nring>
2

>  <opr_nrot>
6

>  <opr_violation>
0

>  <PC+>
0

>  <PC->
0

>  <PEOE_PC+>
2.1469243

>  <PEOE_PC->
-2.1469243

>  <PEOE_RPC+>
0.13832411

>  <PEOE_RPC->
0.16706575

>  <PEOE_VSA+0>
87.09214

>  <PEOE_VSA+1>
59.669189

>  <PEOE_VSA+2>
0

>  <PEOE_VSA+3>
0

>  <PEOE_VSA+4>
20.648346

>  <PEOE_VSA+5>
29.416998

>  <PEOE_VSA+6>
0

>  <PEOE_VSA-0>
59.31506

>  <PEOE_VSA-1>
14.463444

>  <PEOE_VSA-2>
0

>  <PEOE_VSA-3>
0

>  <PEOE_VSA-4>
0

>  <PEOE_VSA-5>
27.133842

>  <PEOE_VSA-6>
20.542593

>  <PEOE_VSA_FHYD>
0.69290787

>  <PEOE_VSA_FNEG>
0.38159585

>  <PEOE_VSA_FPNEG>
0.14979324

>  <PEOE_VSA_FPOL>
0.30709213

>  <PEOE_VSA_FPOS>
0.61840415

>  <PEOE_VSA_FPPOS>
0.15729889

>  <PEOE_VSA_HYD>
220.53984

>  <PEOE_VSA_NEG>
121.45494

>  <PEOE_VSA_PNEG>
47.676434

>  <PEOE_VSA_POL>
97.741776

>  <PEOE_VSA_POS>
196.82668

>  <PEOE_VSA_PPOS>
50.065342

>  <petitjean>
0.45454547

>  <petitjeanSC>
0.83333331

>  <Q_PC+>
0

>  <Q_PC->
0

>  <Q_RPC+>
0

>  <Q_RPC->
0

>  <Q_VSA_FHYD>
1

>  <Q_VSA_FNEG>
0

>  <Q_VSA_FPNEG>
0

>  <Q_VSA_FPOL>
0

>  <Q_VSA_FPOS>
1

>  <Q_VSA_FPPOS>
0

>  <Q_VSA_HYD>
318.28162

>  <Q_VSA_NEG>
0

>  <Q_VSA_PNEG>
0

>  <Q_VSA_POL>
0

>  <Q_VSA_POS>
318.28162

>  <Q_VSA_PPOS>
0

>  <radius>
6

>  <reactive>
1

>  <rings>
2

>  <RPC+>
0

>  <RPC->
0

>  <rsynth>
1

>  <SlogP>
2.9995899

>  <SlogP_VSA0>
36.385113

>  <SlogP_VSA1>
15.490929

>  <SlogP_VSA2>
34.862103

>  <SlogP_VSA3>
25.385227

>  <SlogP_VSA4>
36.604515

>  <SlogP_VSA5>
57.437847

>  <SlogP_VSA6>
0

>  <SlogP_VSA7>
17.643185

>  <SlogP_VSA8>
37.736813

>  <SlogP_VSA9>
98.065147

>  <SMR>
8.30511

>  <SMR_VSA0>
58.724319

>  <SMR_VSA1>
36.385113

>  <SMR_VSA2>
25.385227

>  <SMR_VSA3>
26.41473

>  <SMR_VSA4>
0

>  <SMR_VSA5>
95.17466

>  <SMR_VSA6>
15.490929

>  <SMR_VSA7>
102.0359

>  <TPSA>
93.059998

>  <VAdjEq>
0.43892586

>  <VAdjMa>
5.5849624

>  <VDistEq>
3.3171146

>  <VDistMa>
8.7507792

>  <vdw_area>
318.28162

>  <vdw_vol>
418.51797

>  <vsa_acc>
16.070677

>  <vsa_acid>
0

>  <vsa_base>
0

>  <vsa_don>
0

>  <vsa_hyd>
207.72752

>  <vsa_other>
31.920755

>  <vsa_pol>
56.771439

>  <Weight>
320.341

>  <weinerPath>
1225

>  <weinerPol>
37

>  <zagreb>
116

$$$$