O1[C@@H](CC=CC=CC=CC=C[C@H](O[C@@H]2O[C@H](C)[C@@H](O)[C@H](N)[C@@H]2O)C[C@@H]2O[C@@](O)(C[C@H](O)[C@H]2C(O)=O)C[C@@H](O)C[C@H]2O[C@@H]2C=C/C1=O)C
  MOE2013           2D

 47 50  0  0  1  0  0  0  0  0999 V2000
   -1.3100    1.1420    0.0000 O   0  0  0  0  0  0  0  0  0  0  0  0
    0.1950    1.1560    0.0000 C   0  0  1  0  0  0  0  0  0  0  0  0
    1.0020    2.3830    0.0000 C   0  0  0  0  0  0  0  0  0  0  0  0
    2.5270    2.2200    0.0000 C   0  0  0  0  0  0  0  0  0  0  0  0
    3.4190    3.3740    0.0000 C   0  0  0  0  0  0  0  0  0  0  0  0
    4.9250    3.1940    0.0000 C   0  0  0  0  0  0  0  0  0  0  0  0
    5.5390    1.8770    0.0000 C   0  0  0  0  0  0  0  0  0  0  0  0
    5.0150    0.5710    0.0000 C   0  0  0  0  0  0  0  0  0  0  0  0
    3.6970    0.0090    0.0000 C   0  0  0  0  0  0  0  0  0  0  0  0
    3.3490   -1.4320    0.0000 C   0  0  0  0  0  0  0  0  0  0  0  0
    4.2890   -2.5310    0.0000 C   0  0  0  0  0  0  0  0  0  0  0  0
    3.9990   -3.9930    0.0000 C   0  0  2  0  0  0  0  0  0  0  0  0
    5.3110   -4.7970    0.0000 O   0  0  0  0  0  0  0  0  0  0  0  0
    6.6860   -4.3820    0.0000 C   0  0  2  0  0  0  0  0  0  0  0  0
    7.1420   -2.9490    0.0000 O   0  0  0  0  0  0  0  0  0  0  0  0
    8.5830   -2.5830    0.0000 C   0  0  2  0  0  0  0  0  0  0  0  0
    9.0040   -1.1330    0.0000 C   0  0  0  0  0  0  0  0  0  0  0  0
    9.6410   -3.6520    0.0000 C   0  0  1  0  0  0  0  0  0  0  0  0
   11.0880   -3.2930    0.0000 O   0  0  0  0  0  0  0  0  0  0  0  0
    9.2090   -5.0950    0.0000 C   0  0  2  0  0  0  0  0  0  0  0  0
   10.2860   -6.1690    0.0000 N   0  0  0  0  0  0  0  0  0  0  0  0
    7.7840   -5.4670    0.0000 C   0  0  2  0  0  0  0  0  0  0  0  0
    7.3420   -6.9030    0.0000 O   0  0  0  0  0  0  0  0  0  0  0  0
    2.6090   -4.5230    0.0000 C   0  0  0  0  0  0  0  0  0  0  0  0
    1.3620   -4.6860    0.0000 C   0  0  2  0  0  0  0  0  0  0  0  0
    0.0470   -3.9420    0.0000 O   0  0  0  0  0  0  0  0  0  0  0  0
   -1.2440   -4.6570    0.0000 C   0  0  1  0  0  0  0  0  0  0  0  0
   -1.5360   -3.1860    0.0000 O   0  0  0  0  0  0  0  0  0  0  0  0
   -1.2930   -6.1640    0.0000 C   0  0  0  0  0  0  0  0  0  0  0  0
    0.0080   -6.9270    0.0000 C   0  0  2  0  0  0  0  0  0  0  0  0
   -0.0300   -8.4410    0.0000 O   0  0  0  0  0  0  0  0  0  0  0  0
    1.3260   -6.2100    0.0000 C   0  0  1  0  0  0  0  0  0  0  0  0
    2.4410   -7.2400    0.0000 C   0  0  0  0  0  0  0  0  0  0  0  0
    3.8630   -6.8850    0.0000 O   0  0  0  0  0  0  0  0  0  0  0  0
    2.0390   -8.7190    0.0000 O   0  0  0  0  0  0  0  0  0  0  0  0
   -2.5480   -4.4700    0.0000 C   0  0  0  0  0  0  0  0  0  0  0  0
   -3.8540   -4.9300    0.0000 C   0  0  1  0  0  0  0  0  0  0  0  0
   -3.7530   -6.4590    0.0000 O   0  0  0  0  0  0  0  0  0  0  0  0
   -5.1690   -4.6580    0.0000 C   0  0  0  0  0  0  0  0  0  0  0  0
   -6.0140   -3.4020    0.0000 C   0  0  1  0  0  0  0  0  0  0  0  0
   -7.0020   -2.1500    0.0000 O   0  0  0  0  0  0  0  0  0  0  0  0
   -5.4450   -2.0590    0.0000 C   0  0  2  0  0  0  0  0  0  0  0  0
   -3.8940   -1.9070    0.0000 C   0  0  0  0  0  0  0  0  0  0  0  0
   -3.4010   -0.4420    0.0000 C   0  0  0  0  0  0  0  0  0  0  0  0
   -1.9680   -0.2070    0.0000 C   0  0  0  0  0  0  0  0  0  0  0  0
   -2.8490    0.9870    0.0000 O   0  0  0  0  0  0  0  0  0  0  0  0
   -0.5300    2.4580    0.0000 C   0  0  0  0  0  0  0  0  0  0  0  0
  1  2  1  0  0  0  0
  1 45  1  0  0  0  0
  2  3  1  0  0  0  0
  2 47  1  6  0  0  0
  3  4  1  0  0  0  0
  4  5  2  3  0  0  0
  5  6  1  0  0  0  0
  6  7  2  3  0  0  0
  7  8  1  0  0  0  0
  8  9  2  3  0  0  0
  9 10  1  0  0  0  0
 10 11  2  3  0  0  0
 11 12  1  0  0  0  0
 12 13  1  6  0  0  0
 12 24  1  0  0  0  0
 14 13  1  6  0  0  0
 14 15  1  0  0  0  0
 14 22  1  0  0  0  0
 15 16  1  0  0  0  0
 16 17  1  6  0  0  0
 16 18  1  0  0  0  0
 18 19  1  1  0  0  0
 18 20  1  0  0  0  0
 20 21  1  6  0  0  0
 20 22  1  0  0  0  0
 22 23  1  6  0  0  0
 25 24  1  1  0  0  0
 25 26  1  0  0  0  0
 25 32  1  0  0  0  0
 26 27  1  0  0  0  0
 27 28  1  6  0  0  0
 27 29  1  0  0  0  0
 27 36  1  0  0  0  0
 29 30  1  0  0  0  0
 30 31  1  1  0  0  0
 30 32  1  0  0  0  0
 32 33  1  6  0  0  0
 33 34  1  0  0  0  0
 33 35  2  0  0  0  0
 36 37  1  0  0  0  0
 37 38  1  1  0  0  0
 37 39  1  0  0  0  0
 39 40  1  0  0  0  0
 40 41  1  1  0  0  0
 40 42  1  0  0  0  0
 41 42  1  0  0  0  0
 42 43  1  6  0  0  0
 43 44  2  3  0  0  0
 44 45  1  0  0  0  0
 45 46  2  0  0  0  0
M  END
>  <Index>
751

>  <ID>
HT1466

>  <class>
0

>  <apol>
100.94527

>  <ast_fraglike>
0

>  <ast_fraglike_ext>
0

>  <ast_violation>
3

>  <ast_violation_ext>
5

>  <a_acc>
13

>  <a_acid>
0

>  <a_aro>
0

>  <a_base>
0

>  <a_count>
94

>  <a_don>
8

>  <a_donacc>
21

>  <a_heavy>
47

>  <a_hyd>
29

>  <a_IC>
140.49495

>  <a_ICM>
1.4946271

>  <a_nB>
0

>  <a_nBr>
0

>  <a_nC>
33

>  <a_nCl>
0

>  <a_nF>
0

>  <a_nH>
47

>  <a_nI>
0

>  <a_nN>
1

>  <a_nO>
13

>  <a_nP>
0

>  <a_nS>
0

>  <balabanJ>
1.469545

>  <BCUT_PEOE_0>
-2.7777286

>  <BCUT_PEOE_1>
-0.54506147

>  <BCUT_PEOE_2>
0.61087728

>  <BCUT_PEOE_3>
2.8393874

>  <BCUT_SLOGP_0>
-2.9567842

>  <BCUT_SLOGP_1>
-0.5552876

>  <BCUT_SLOGP_2>
0.60519272

>  <BCUT_SLOGP_3>
2.7598233

>  <BCUT_SMR_0>
-2.5677989

>  <BCUT_SMR_1>
-0.40074861

>  <BCUT_SMR_2>
0.69408071

>  <BCUT_SMR_3>
3.040858

>  <bpol>
62.216728

>  <b_1rotN>
3

>  <b_1rotR>
0.059999999

>  <b_ar>
0

>  <b_count>
97

>  <b_double>
7

>  <b_heavy>
50

>  <b_max1len>
4

>  <b_rotN>
3

>  <b_rotR>
0.059999999

>  <b_single>
90

>  <b_triple>
0

>  <chi0>
34.302391

>  <chi0v>
26.432961

>  <chi0v_C>
20.31459

>  <chi0_C>
21.766855

>  <chi1>
22.257547

>  <chi1v>
15.887268

>  <chi1v_C>
11.371811

>  <chi1_C>
13.110957

>  <chiral>
14

>  <chiral_u>
0

>  <density>
0.77733016

>  <diameter>
19

>  <FCharge>
0

>  <GCUT_PEOE_0>
-0.82156169

>  <GCUT_PEOE_1>
-0.40060842

>  <GCUT_PEOE_2>
0.093275301

>  <GCUT_PEOE_3>
3.1381865

>  <GCUT_SLOGP_0>
-1.3638108

>  <GCUT_SLOGP_1>
-0.37225741

>  <GCUT_SLOGP_2>
0.11589554

>  <GCUT_SLOGP_3>
3.1000347

>  <GCUT_SMR_0>
-0.53071463

>  <GCUT_SMR_1>
-0.2256435

>  <GCUT_SMR_2>
0.18883052

>  <GCUT_SMR_3>
3.3434079

>  <Kier1>
39.7808

>  <Kier2>
18.478476

>  <Kier3>
11.5

>  <KierA1>
35.084373

>  <KierA2>
16.250864

>  <KierA3>
10.093399

>  <KierFlex>
12.130879

>  <lip_acc>
14

>  <lip_don>
8

>  <lip_druglike>
0

>  <lip_violation>
3

>  <logP(o/w)>
1.475

>  <logS>
-3.40482

>  <mr>
16.617352

>  <mutagenic>
1

>  <nmol>
1

>  <opr_brigid>
36

>  <opr_leadlike>
0

>  <opr_nring>
3

>  <opr_nrot>
20

>  <opr_violation>
4

>  <PC+>
0

>  <PC->
0

>  <PEOE_PC+>
5.4415274

>  <PEOE_PC->
-5.4415274

>  <PEOE_RPC+>
0.052672699

>  <PEOE_RPC->
0.071950421

>  <PEOE_VSA+0>
119.57172

>  <PEOE_VSA+1>
136.22388

>  <PEOE_VSA+2>
27.047884

>  <PEOE_VSA+3>
12.263453

>  <PEOE_VSA+4>
61.945034

>  <PEOE_VSA+5>
29.416998

>  <PEOE_VSA+6>
0

>  <PEOE_VSA-0>
58.451572

>  <PEOE_VSA-1>
98.03923

>  <PEOE_VSA-2>
0

>  <PEOE_VSA-3>
0

>  <PEOE_VSA-4>
0

>  <PEOE_VSA-5>
27.133842

>  <PEOE_VSA-6>
65.775139

>  <PEOE_VSA_FHYD>
0.71020591

>  <PEOE_VSA_FNEG>
0.39221898

>  <PEOE_VSA_FPNEG>
0.14611346

>  <PEOE_VSA_FPOL>
0.28979412

>  <PEOE_VSA_FPOS>
0.60778105

>  <PEOE_VSA_FPPOS>
0.14368065

>  <PEOE_VSA_HYD>
451.59775

>  <PEOE_VSA_NEG>
249.39978

>  <PEOE_VSA_PNEG>
92.908981

>  <PEOE_VSA_POL>
184.27101

>  <PEOE_VSA_POS>
386.46896

>  <PEOE_VSA_PPOS>
91.362038

>  <petitjean>
0.36842105

>  <petitjeanSC>
0.58333331

>  <Q_PC+>
0

>  <Q_PC->
0

>  <Q_RPC+>
0

>  <Q_RPC->
0

>  <Q_VSA_FHYD>
1

>  <Q_VSA_FNEG>
0

>  <Q_VSA_FPNEG>
0

>  <Q_VSA_FPOL>
0

>  <Q_VSA_FPOS>
1

>  <Q_VSA_FPPOS>
0

>  <Q_VSA_HYD>
635.86877

>  <Q_VSA_NEG>
0

>  <Q_VSA_PNEG>
0

>  <Q_VSA_POL>
0

>  <Q_VSA_POS>
635.86877

>  <Q_VSA_PPOS>
0

>  <radius>
12

>  <reactive>
1

>  <rings>
4

>  <RPC+>
0

>  <RPC->
0

>  <rsynth>
0.4893617

>  <SlogP>
0.1197

>  <SlogP_VSA0>
159.82332

>  <SlogP_VSA1>
15.490929

>  <SlogP_VSA2>
179.91884

>  <SlogP_VSA3>
25.385227

>  <SlogP_VSA4>
4.4107962

>  <SlogP_VSA5>
0

>  <SlogP_VSA6>
0

>  <SlogP_VSA7>
176.43184

>  <SlogP_VSA8>
94.342026

>  <SlogP_VSA9>
66.652031

>  <SMR>
16.515921

>  <SMR_VSA0>
102.72387

>  <SMR_VSA1>
126.92613

>  <SMR_VSA2>
29.796022

>  <SMR_VSA3>
77.194962

>  <SMR_VSA4>
32.897186

>  <SMR_VSA5>
270.77386

>  <SMR_VSA6>
15.490929

>  <SMR_VSA7>
66.652031

>  <TPSA>
230.99001

>  <VAdjEq>
0.26595098

>  <VAdjMa>
6.643856

>  <VDistEq>
3.9530325

>  <VDistMa>
10.870128

>  <vdw_area>
635.86877

>  <vdw_vol>
856.4353

>  <vsa_acc>
23.581945

>  <vsa_acid>
0

>  <vsa_base>
0

>  <vsa_don>
0

>  <vsa_hyd>
389.43759

>  <vsa_other>
47.737797

>  <vsa_pol>
136.29288

>  <Weight>
665.73297

>  <weinerPath>
8388

>  <weinerPol>
75

>  <zagreb>
242

$$$$