O[C@H]1[C@H](O)[C@@H](O)CN(CCO)[C@@H]1CO
  MOE2013           2D

 14 14  0  0  1  0  0  0  0  0999 V2000
    0.0000    0.0000    0.0000 O   0  0  0  0  0  0  0  0  0  0  0  0
    1.3020   -0.7440    0.0000 C   0  0  1  0  0  0  0  0  0  0  0  0
    1.3090   -2.2440    0.0000 C   0  0  2  0  0  0  0  0  0  0  0  0
    0.0130   -3.0000    0.0000 O   0  0  0  0  0  0  0  0  0  0  0  0
    2.6110   -2.9890    0.0000 C   0  0  1  0  0  0  0  0  0  0  0  0
    2.6170   -4.4890    0.0000 O   0  0  0  0  0  0  0  0  0  0  0  0
    3.9070   -2.2330    0.0000 C   0  0  0  0  0  0  0  0  0  0  0  0
    3.9000   -0.7330    0.0000 N   0  0  3  0  0  0  0  0  0  0  0  0
    5.1960    0.0220    0.0000 C   0  0  0  0  0  0  0  0  0  0  0  0
    6.4980   -0.7220    0.0000 C   0  0  0  0  0  0  0  0  0  0  0  0
    7.7940    0.0330    0.0000 O   0  0  0  0  0  0  0  0  0  0  0  0
    2.5980    0.0110    0.0000 C   0  0  2  0  0  0  0  0  0  0  0  0
    2.5920    1.5110    0.0000 C   0  0  0  0  0  0  0  0  0  0  0  0
    1.2890    2.2560    0.0000 O   0  0  0  0  0  0  0  0  0  0  0  0
  2  1  1  6  0  0  0
  2  3  1  0  0  0  0
  2 12  1  0  0  0  0
  3  4  1  1  0  0  0
  3  5  1  0  0  0  0
  5  6  1  6  0  0  0
  5  7  1  0  0  0  0
  7  8  1  0  0  0  0
  8  9  1  0  0  0  0
  8 12  1  0  0  0  0
  9 10  1  0  0  0  0
 10 11  1  0  0  0  0
 12 13  1  1  0  0  0
 13 14  1  0  0  0  0
M  END
>  <Index>
711

>  <ID>
HT1399

>  <class>
0

>  <apol>
30.52548

>  <ast_fraglike>
0

>  <ast_fraglike_ext>
0

>  <ast_violation>
2

>  <ast_violation_ext>
4

>  <a_acc>
6

>  <a_acid>
0

>  <a_aro>
0

>  <a_base>
0

>  <a_count>
31

>  <a_don>
5

>  <a_donacc>
11

>  <a_heavy>
14

>  <a_hyd>
8

>  <a_IC>
48.483578

>  <a_ICM>
1.5639863

>  <a_nB>
0

>  <a_nBr>
0

>  <a_nC>
8

>  <a_nCl>
0

>  <a_nF>
0

>  <a_nH>
17

>  <a_nI>
0

>  <a_nN>
1

>  <a_nO>
5

>  <a_nP>
0

>  <a_nS>
0

>  <balabanJ>
2.6597595

>  <BCUT_PEOE_0>
-2.7925897

>  <BCUT_PEOE_1>
-0.69093049

>  <BCUT_PEOE_2>
0.75744945

>  <BCUT_PEOE_3>
2.7950478

>  <BCUT_SLOGP_0>
-2.9739611

>  <BCUT_SLOGP_1>
-0.81735396

>  <BCUT_SLOGP_2>
0.55962628

>  <BCUT_SLOGP_3>
2.6054587

>  <BCUT_SMR_0>
-2.5562143

>  <BCUT_SMR_1>
-0.57724756

>  <BCUT_SMR_2>
0.84246588

>  <BCUT_SMR_3>
3.0157988

>  <bpol>
20.56452

>  <b_1rotN>
3

>  <b_1rotR>
0.21428572

>  <b_ar>
0

>  <b_count>
31

>  <b_double>
0

>  <b_heavy>
14

>  <b_max1len>
4

>  <b_rotN>
3

>  <b_rotR>
0.21428572

>  <b_single>
31

>  <b_triple>
0

>  <chi0>
10.715178

>  <chi0v>
7.8211098

>  <chi0v_C>
5.1378284

>  <chi0_C>
5.1378284

>  <chi1>
6.6125908

>  <chi1v>
4.614203

>  <chi1v_C>
2.3164966

>  <chi1_C>
2.3164966

>  <chiral>
4

>  <chiral_u>
0

>  <density>
0.80964297

>  <diameter>
7

>  <FCharge>
0

>  <GCUT_PEOE_0>
-0.83545196

>  <GCUT_PEOE_1>
-0.41581127

>  <GCUT_PEOE_2>
0.19399312

>  <GCUT_PEOE_3>
2.6487999

>  <GCUT_SLOGP_0>
-0.97062492

>  <GCUT_SLOGP_1>
-0.55528641

>  <GCUT_SLOGP_2>
-0.005576252

>  <GCUT_SLOGP_3>
2.5094726

>  <GCUT_SMR_0>
-0.52412099

>  <GCUT_SMR_1>
-0.27845749

>  <GCUT_SMR_2>
0.23928642

>  <GCUT_SMR_3>
2.8519087

>  <Kier1>
12.071428

>  <Kier2>
5.1855955

>  <Kier3>
2.5344

>  <KierA1>
12.071428

>  <KierA2>
5.1855955

>  <KierA3>
2.5344

>  <KierFlex>
4.4712534

>  <lip_acc>
6

>  <lip_don>
5

>  <lip_druglike>
1

>  <lip_violation>
0

>  <logP(o/w)>
-3.171

>  <logS>
1.37543

>  <mr>
4.781611

>  <mutagenic>
0

>  <nmol>
1

>  <opr_brigid>
6

>  <opr_leadlike>
1

>  <opr_nring>
1

>  <opr_nrot>
5

>  <opr_violation>
0

>  <PC+>
0

>  <PC->
0

>  <PEOE_PC+>
2.2391906

>  <PEOE_PC->
-2.2391906

>  <PEOE_RPC+>
0.093784876

>  <PEOE_RPC->
0.17584346

>  <PEOE_VSA+0>
43.446194

>  <PEOE_VSA+1>
72.076561

>  <PEOE_VSA+2>
9.8098574

>  <PEOE_VSA+3>
0

>  <PEOE_VSA+4>
51.620865

>  <PEOE_VSA+5>
0

>  <PEOE_VSA+6>
0

>  <PEOE_VSA-0>
0

>  <PEOE_VSA-1>
0

>  <PEOE_VSA-2>
0

>  <PEOE_VSA-3>
0

>  <PEOE_VSA-4>
0

>  <PEOE_VSA-5>
0

>  <PEOE_VSA-6>
38.8377

>  <PEOE_VSA_FHYD>
0.58080506

>  <PEOE_VSA_FNEG>
0.17997816

>  <PEOE_VSA_FPNEG>
0.17997816

>  <PEOE_VSA_FPOL>
0.41919491

>  <PEOE_VSA_FPOS>
0.82002181

>  <PEOE_VSA_FPPOS>
0.23921674

>  <PEOE_VSA_HYD>
125.33261

>  <PEOE_VSA_NEG>
38.8377

>  <PEOE_VSA_PNEG>
38.8377

>  <PEOE_VSA_POL>
90.458565

>  <PEOE_VSA_POS>
176.95348

>  <PEOE_VSA_PPOS>
51.620865

>  <petitjean>
0.42857143

>  <petitjeanSC>
0.75

>  <Q_PC+>
0

>  <Q_PC->
0

>  <Q_RPC+>
0

>  <Q_RPC->
0

>  <Q_VSA_FHYD>
1

>  <Q_VSA_FNEG>
0

>  <Q_VSA_FPNEG>
0

>  <Q_VSA_FPOL>
0

>  <Q_VSA_FPOS>
1

>  <Q_VSA_FPPOS>
0

>  <Q_VSA_HYD>
215.79118

>  <Q_VSA_NEG>
0

>  <Q_VSA_PNEG>
0

>  <Q_VSA_POL>
0

>  <Q_VSA_POS>
215.79118

>  <Q_VSA_PPOS>
0

>  <radius>
4

>  <reactive>
0

>  <rings>
1

>  <RPC+>
0

>  <RPC->
0

>  <rsynth>
1

>  <SlogP>
-3.2621

>  <SlogP_VSA0>
126.92613

>  <SlogP_VSA1>
3.1243138

>  <SlogP_VSA2>
23.387917

>  <SlogP_VSA3>
78.731674

>  <SlogP_VSA4>
0

>  <SlogP_VSA5>
0

>  <SlogP_VSA6>
0

>  <SlogP_VSA7>
0

>  <SlogP_VSA8>
0

>  <SlogP_VSA9>
0

>  <SMR>
4.7553

>  <SMR_VSA0>
0

>  <SMR_VSA1>
130.05045

>  <SMR_VSA2>
0

>  <SMR_VSA3>
23.387917

>  <SMR_VSA4>
0

>  <SMR_VSA5>
0

>  <SMR_VSA6>
78.731674

>  <SMR_VSA7>
0

>  <TPSA>
104.39

>  <VAdjEq>
0.59167278

>  <VAdjMa>
4.8073549

>  <VDistEq>
2.5435829

>  <VDistMa>
7.3399816

>  <vdw_area>
215.79118

>  <vdw_vol>
255.94739

>  <vsa_acc>
0

>  <vsa_acid>
0

>  <vsa_base>
0

>  <vsa_don>
0

>  <vsa_hyd>
116.79107

>  <vsa_other>
0

>  <vsa_pol>
67.834602

>  <Weight>
207.226

>  <weinerPath>
288

>  <weinerPol>
22

>  <zagreb>
66

$$$$