O=C1C[C@@H](O)[C@H](C=CCC(O)(CCCC)C)[C@H]1CCCCCCC(OC)=O
  MOE2013           2D

 27 27  0  0  1  0  0  0  0  0999 V2000
    0.0000    0.0000    0.0000 O   0  0  0  0  0  0  0  0  0  0  0  0
   -1.4670   -0.3120    0.0000 C   0  0  0  0  0  0  0  0  0  0  0  0
   -2.5820    0.6920    0.0000 C   0  0  0  0  0  0  0  0  0  0  0  0
   -3.8810   -0.0580    0.0000 C   0  0  1  0  0  0  0  0  0  0  0  0
   -5.2510    0.5520    0.0000 O   0  0  0  0  0  0  0  0  0  0  0  0
   -3.5690   -1.5250    0.0000 C   0  0  2  0  0  0  0  0  0  0  0  0
   -4.5730   -2.6400    0.0000 C   0  0  0  0  0  0  0  0  0  0  0  0
   -6.0400   -2.3280    0.0000 C   0  0  0  0  0  0  0  0  0  0  0  0
   -7.0440   -3.4420    0.0000 C   0  0  0  0  0  0  0  0  0  0  0  0
   -8.5110   -3.1310    0.0000 C   0  0  3  0  0  0  0  0  0  0  0  0
   -8.1990   -1.6630    0.0000 O   0  0  0  0  0  0  0  0  0  0  0  0
   -9.9780   -2.8190    0.0000 C   0  0  0  0  0  0  0  0  0  0  0  0
  -10.9820   -3.9330    0.0000 C   0  0  0  0  0  0  0  0  0  0  0  0
  -12.4490   -3.6210    0.0000 C   0  0  0  0  0  0  0  0  0  0  0  0
  -13.4530   -4.7360    0.0000 C   0  0  0  0  0  0  0  0  0  0  0  0
   -8.8230   -4.5980    0.0000 C   0  0  0  0  0  0  0  0  0  0  0  0
   -2.0770   -1.6820    0.0000 C   0  0  1  0  0  0  0  0  0  0  0  0
   -1.3280   -2.9810    0.0000 C   0  0  0  0  0  0  0  0  0  0  0  0
    0.1720   -2.9810    0.0000 C   0  0  0  0  0  0  0  0  0  0  0  0
    0.9220   -4.2800    0.0000 C   0  0  0  0  0  0  0  0  0  0  0  0
    2.4220   -4.2800    0.0000 C   0  0  0  0  0  0  0  0  0  0  0  0
    3.1720   -5.5800    0.0000 C   0  0  0  0  0  0  0  0  0  0  0  0
    4.6720   -5.5800    0.0000 C   0  0  0  0  0  0  0  0  0  0  0  0
    5.4220   -6.8790    0.0000 C   0  0  0  0  0  0  0  0  0  0  0  0
    6.9220   -6.8790    0.0000 O   0  0  0  0  0  0  0  0  0  0  0  0
    7.6720   -8.1780    0.0000 C   0  0  0  0  0  0  0  0  0  0  0  0
    4.6720   -8.1780    0.0000 O   0  0  0  0  0  0  0  0  0  0  0  0
  1  2  2  0  0  0  0
  2  3  1  0  0  0  0
  2 17  1  0  0  0  0
  3  4  1  0  0  0  0
  4  5  1  6  0  0  0
  4  6  1  0  0  0  0
  6  7  1  1  0  0  0
  6 17  1  0  0  0  0
  7  8  2  3  0  0  0
  8  9  1  0  0  0  0
  9 10  1  0  0  0  0
 10 11  1  0  0  0  0
 10 12  1  0  0  0  0
 10 16  1  0  0  0  0
 12 13  1  0  0  0  0
 13 14  1  0  0  0  0
 14 15  1  0  0  0  0
 17 18  1  6  0  0  0
 18 19  1  0  0  0  0
 19 20  1  0  0  0  0
 20 21  1  0  0  0  0
 21 22  1  0  0  0  0
 22 23  1  0  0  0  0
 23 24  1  0  0  0  0
 24 25  1  0  0  0  0
 24 27  2  0  0  0  0
 25 26  1  0  0  0  0
M  END
>  <Index>
722

>  <ID>
HT1412

>  <class>
0

>  <apol>
68.06813

>  <ast_fraglike>
0

>  <ast_fraglike_ext>
0

>  <ast_violation>
3

>  <ast_violation_ext>
4

>  <a_acc>
4

>  <a_acid>
0

>  <a_aro>
0

>  <a_base>
0

>  <a_count>
65

>  <a_don>
2

>  <a_donacc>
6

>  <a_heavy>
27

>  <a_hyd>
20

>  <a_IC>
82.315529

>  <a_ICM>
1.2663927

>  <a_nB>
0

>  <a_nBr>
0

>  <a_nC>
22

>  <a_nCl>
0

>  <a_nF>
0

>  <a_nH>
38

>  <a_nI>
0

>  <a_nN>
0

>  <a_nO>
5

>  <a_nP>
0

>  <a_nS>
0

>  <balabanJ>
2.307766

>  <BCUT_PEOE_0>
-2.7110453

>  <BCUT_PEOE_1>
-0.49298888

>  <BCUT_PEOE_2>
0.43759125

>  <BCUT_PEOE_3>
2.7868943

>  <BCUT_SLOGP_0>
-2.6584787

>  <BCUT_SLOGP_1>
-0.42964506

>  <BCUT_SLOGP_2>
0.41991955

>  <BCUT_SLOGP_3>
2.82251

>  <BCUT_SMR_0>
-2.4666307

>  <BCUT_SMR_1>
-0.331958

>  <BCUT_SMR_2>
0.56019086

>  <BCUT_SMR_3>
3.0251882

>  <bpol>
45.373867

>  <b_1rotN>
13

>  <b_1rotR>
0.48148149

>  <b_ar>
0

>  <b_count>
65

>  <b_double>
3

>  <b_heavy>
27

>  <b_max1len>
8

>  <b_rotN>
14

>  <b_rotR>
0.51851851

>  <b_single>
62

>  <b_triple>
0

>  <chi0>
20.286245

>  <chi0v>
17.284098

>  <chi0v_C>
15.164926

>  <chi0_C>
15.57914

>  <chi1>
12.802861

>  <chi1v>
10.4705

>  <chi1v_C>
8.9680738

>  <chi1_C>
9.4554548

>  <chiral>
4

>  <chiral_u>
1

>  <density>
0.6811583

>  <diameter>
18

>  <FCharge>
0

>  <GCUT_PEOE_0>
-0.80292875

>  <GCUT_PEOE_1>
-0.3931146

>  <GCUT_PEOE_2>
0.014215217

>  <GCUT_PEOE_3>
2.9026513

>  <GCUT_SLOGP_0>
-0.88435876

>  <GCUT_SLOGP_1>
-0.28483829

>  <GCUT_SLOGP_2>
-0.0085013444

>  <GCUT_SLOGP_3>
2.9651835

>  <GCUT_SMR_0>
-0.53546578

>  <GCUT_SMR_1>
-0.19449492

>  <GCUT_SMR_2>
0.12486665

>  <GCUT_SMR_3>
3.1233952

>  <Kier1>
25.037037

>  <Kier2>
13.265306

>  <Kier3>
9.8461542

>  <KierA1>
22.66254

>  <KierA2>
11.959244

>  <KierA3>
8.8503971

>  <KierFlex>
10.038032

>  <lip_acc>
5

>  <lip_don>
2

>  <lip_druglike>
1

>  <lip_violation>
0

>  <logP(o/w)>
3.3699999

>  <logS>
-3.5741899

>  <mr>
10.80964

>  <mutagenic>
0

>  <nmol>
1

>  <opr_brigid>
6

>  <opr_leadlike>
1

>  <opr_nring>
1

>  <opr_nrot>
14

>  <opr_violation>
1

>  <PC+>
0

>  <PC->
0

>  <PEOE_PC+>
2.3089008

>  <PEOE_PC->
-2.3089008

>  <PEOE_RPC+>
0.11343291

>  <PEOE_RPC->
0.16924517

>  <PEOE_VSA+0>
170.36186

>  <PEOE_VSA+1>
30.497244

>  <PEOE_VSA+2>
8.458519

>  <PEOE_VSA+3>
0

>  <PEOE_VSA+4>
20.648346

>  <PEOE_VSA+5>
14.708499

>  <PEOE_VSA+6>
0

>  <PEOE_VSA-0>
53.552929

>  <PEOE_VSA-1>
86.764053

>  <PEOE_VSA-2>
0

>  <PEOE_VSA-3>
0

>  <PEOE_VSA-4>
0

>  <PEOE_VSA-5>
27.133842

>  <PEOE_VSA-6>
18.038837

>  <PEOE_VSA_FHYD>
0.81279349

>  <PEOE_VSA_FNEG>
0.4312067

>  <PEOE_VSA_FPNEG>
0.10501266

>  <PEOE_VSA_FPOL>
0.18720651

>  <PEOE_VSA_FPOS>
0.5687933

>  <PEOE_VSA_FPPOS>
0.082193844

>  <PEOE_VSA_HYD>
349.63461

>  <PEOE_VSA_NEG>
185.48965

>  <PEOE_VSA_PNEG>
45.17268

>  <PEOE_VSA_POL>
80.529526

>  <PEOE_VSA_POS>
244.67447

>  <PEOE_VSA_PPOS>
35.356846

>  <petitjean>
0.5

>  <petitjeanSC>
1

>  <Q_PC+>
0

>  <Q_PC->
0

>  <Q_RPC+>
0

>  <Q_RPC->
0

>  <Q_VSA_FHYD>
1

>  <Q_VSA_FNEG>
0

>  <Q_VSA_FPNEG>
0

>  <Q_VSA_FPOL>
0

>  <Q_VSA_FPOS>
1

>  <Q_VSA_FPPOS>
0

>  <Q_VSA_HYD>
430.16412

>  <Q_VSA_NEG>
0

>  <Q_VSA_PNEG>
0

>  <Q_VSA_POL>
0

>  <Q_VSA_POS>
430.16412

>  <Q_VSA_PPOS>
0

>  <radius>
9

>  <reactive>
1

>  <rings>
1

>  <RPC+>
0

>  <RPC->
0

>  <rsynth>
0.074074075

>  <SlogP>
3.9535999

>  <SlogP_VSA0>
50.770454

>  <SlogP_VSA1>
13.433075

>  <SlogP_VSA2>
65.19297

>  <SlogP_VSA3>
0

>  <SlogP_VSA4>
8.8215923

>  <SlogP_VSA5>
35.383869

>  <SlogP_VSA6>
0

>  <SlogP_VSA7>
35.286369

>  <SlogP_VSA8>
207.55246

>  <SlogP_VSA9>
66.652031

>  <SMR>
10.62346

>  <SMR_VSA0>
58.724319

>  <SMR_VSA1>
50.770454

>  <SMR_VSA2>
8.8215923

>  <SMR_VSA3>
6.4686494

>  <SMR_VSA4>
0

>  <SMR_VSA5>
242.83882

>  <SMR_VSA6>
13.433075

>  <SMR_VSA7>
102.0359

>  <TPSA>
83.830002

>  <VAdjEq>
0.38094658

>  <VAdjMa>
5.7548876

>  <VDistEq>
3.8755169

>  <VDistMa>
9.1830292

>  <vdw_area>
430.16412

>  <vdw_vol>
561.60364

>  <vsa_acc>
27.133842

>  <vsa_acid>
0

>  <vsa_base>
0

>  <vsa_don>
0

>  <vsa_hyd>
312.86136

>  <vsa_other>
25.670774

>  <vsa_pol>
54.267685

>  <Weight>
382.54099

>  <weinerPath>
2331

>  <weinerPol>
34

>  <zagreb>
124

$$$$