O(C(=O)C=1C(C(=C(OCCOC)/O)C(=NC=1C)C)c1cc([N+](=O)[O-])ccc1)C(C)C
  MOE2013           2D

 30 31  0  0  1  0  0  0  0  0999 V2000
    0.0000    0.0000    0.0000 O   0  0  0  0  0  0  0  0  0  0  0  0
    1.2930   -0.7610    0.0000 C   0  0  0  0  0  0  0  0  0  0  0  0
    1.2800   -2.2610    0.0000 O   0  0  0  0  0  0  0  0  0  0  0  0
    2.5980   -0.0210    0.0000 C   0  0  0  0  0  0  0  0  0  0  0  0
    3.8910   -0.7820    0.0000 C   0  0  3  0  0  0  0  0  0  0  0  0
    5.1960   -0.0430    0.0000 C   0  0  0  0  0  0  0  0  0  0  0  0
    6.4890   -0.8040    0.0000 C   0  0  0  0  0  0  0  0  0  0  0  0
    7.7940   -0.0640    0.0000 O   0  0  0  0  0  0  0  0  0  0  0  0
    9.0870   -0.8250    0.0000 C   0  0  0  0  0  0  0  0  0  0  0  0
   10.3920   -0.0860    0.0000 C   0  0  0  0  0  0  0  0  0  0  0  0
   11.6850   -0.8470    0.0000 O   0  0  0  0  0  0  0  0  0  0  0  0
   12.9900   -0.1070    0.0000 C   0  0  0  0  0  0  0  0  0  0  0  0
    6.4760   -2.3040    0.0000 O   0  0  0  0  0  0  0  0  0  0  0  0
    5.2080    1.4570    0.0000 C   0  0  0  0  0  0  0  0  0  0  0  0
    3.9160    2.2180    0.0000 N   0  0  0  0  0  0  0  0  0  0  0  0
    2.6100    1.4780    0.0000 C   0  0  0  0  0  0  0  0  0  0  0  0
    1.3180    2.2390    0.0000 C   0  0  0  0  0  0  0  0  0  0  0  0
    6.5140    2.1960    0.0000 C   0  0  0  0  0  0  0  0  0  0  0  0
    3.8780   -2.2820    0.0000 C   0  0  0  0  0  0  0  0  0  0  0  0
    5.1710   -3.0430    0.0000 C   0  0  0  0  0  0  0  0  0  0  0  0
    5.1590   -4.5430    0.0000 C   0  0  0  0  0  0  0  0  0  0  0  0
    6.4520   -5.3040    0.0000 N   0  3  0  0  0  0  0  0  0  0  0  0
    6.4390   -6.8030    0.0000 O   0  0  0  0  0  0  0  0  0  0  0  0
    7.7570   -4.5640    0.0000 O   0  5  0  0  0  0  0  0  0  0  0  0
    3.8540   -5.2820    0.0000 C   0  0  0  0  0  0  0  0  0  0  0  0
    2.5610   -4.5210    0.0000 C   0  0  0  0  0  0  0  0  0  0  0  0
    2.5730   -3.0210    0.0000 C   0  0  0  0  0  0  0  0  0  0  0  0
   -1.3050   -0.7390    0.0000 C   0  0  0  0  0  0  0  0  0  0  0  0
   -2.5980    0.0210    0.0000 C   0  0  0  0  0  0  0  0  0  0  0  0
   -1.3180   -2.2390    0.0000 C   0  0  0  0  0  0  0  0  0  0  0  0
  1  2  1  0  0  0  0
  1 28  1  0  0  0  0
  2  3  2  0  0  0  0
  2  4  1  0  0  0  0
  4  5  1  0  0  0  0
  4 16  2  0  0  0  0
  5  6  1  0  0  0  0
  5 19  1  0  0  0  0
  6  7  2  3  0  0  0
  6 14  1  0  0  0  0
  7  8  1  0  0  0  0
  7 13  1  0  0  0  0
  8  9  1  0  0  0  0
  9 10  1  0  0  0  0
 10 11  1  0  0  0  0
 11 12  1  0  0  0  0
 14 15  2  0  0  0  0
 14 18  1  0  0  0  0
 15 16  1  0  0  0  0
 16 17  1  0  0  0  0
 19 20  1  0  0  0  0
 19 27  2  0  0  0  0
 20 21  2  0  0  0  0
 21 22  1  0  0  0  0
 21 25  1  0  0  0  0
 22 23  2  0  0  0  0
 22 24  1  0  0  0  0
 25 26  2  0  0  0  0
 26 27  1  0  0  0  0
 28 29  1  0  0  0  0
 28 30  1  0  0  0  0
M  CHG  1  22   1
M  CHG  1  24  -1
M  END
>  <Index>
770

>  <ID>
HT1496

>  <class>
0

>  <apol>
62.110619

>  <ast_fraglike>
0

>  <ast_fraglike_ext>
0

>  <ast_violation>
3

>  <ast_violation_ext>
4

>  <a_acc>
5

>  <a_acid>
0

>  <a_aro>
6

>  <a_base>
0

>  <a_count>
56

>  <a_don>
1

>  <a_donacc>
6

>  <a_heavy>
30

>  <a_hyd>
19

>  <a_IC>
89.110291

>  <a_ICM>
1.5912552

>  <a_nB>
0

>  <a_nBr>
0

>  <a_nC>
21

>  <a_nCl>
0

>  <a_nF>
0

>  <a_nH>
26

>  <a_nI>
0

>  <a_nN>
2

>  <a_nO>
7

>  <a_nP>
0

>  <a_nS>
0

>  <balabanJ>
2.3363883

>  <BCUT_PEOE_0>
-2.5161273

>  <BCUT_PEOE_1>
-0.40071818

>  <BCUT_PEOE_2>
0.32527763

>  <BCUT_PEOE_3>
2.5393307

>  <BCUT_SLOGP_0>
-2.5342281

>  <BCUT_SLOGP_1>
-0.29200107

>  <BCUT_SLOGP_2>
0.39492404

>  <BCUT_SLOGP_3>
2.5888588

>  <BCUT_SMR_0>
-2.2783058

>  <BCUT_SMR_1>
-0.12746248

>  <BCUT_SMR_2>
0.54674733

>  <BCUT_SMR_3>
2.8081305

>  <bpol>
37.705383

>  <b_1rotN>
8

>  <b_1rotR>
0.25806451

>  <b_ar>
6

>  <b_count>
57

>  <b_double>
5

>  <b_heavy>
31

>  <b_max1len>
5

>  <b_rotN>
9

>  <b_rotR>
0.29032257

>  <b_single>
46

>  <b_triple>
0

>  <chi0>
22.421921

>  <chi0v>
17.669445

>  <chi0v_C>
13.878315

>  <chi0_C>
15.016144

>  <chi1>
14.16681

>  <chi1v>
9.4353418

>  <chi1v_C>
6.342093

>  <chi1_C>
7.7757277

>  <chiral>
1

>  <chiral_u>
1

>  <density>
0.76828808

>  <diameter>
12

>  <FCharge>
0

>  <GCUT_PEOE_0>
-0.81089467

>  <GCUT_PEOE_1>
-0.39622977

>  <GCUT_PEOE_2>
-0.076665238

>  <GCUT_PEOE_3>
2.7728488

>  <GCUT_SLOGP_0>
-0.88331974

>  <GCUT_SLOGP_1>
-0.24245843

>  <GCUT_SLOGP_2>
0.0031426004

>  <GCUT_SLOGP_3>
2.8356953

>  <GCUT_SMR_0>
-0.52219486

>  <GCUT_SMR_1>
-0.14889684

>  <GCUT_SMR_2>
0.16932523

>  <GCUT_SMR_3>
3.0304484

>  <Kier1>
26.253902

>  <Kier2>
12.296376

>  <Kier3>
6.9976859

>  <KierA1>
20.685608

>  <KierA2>
9.6037512

>  <KierA3>
5.4314651

>  <KierFlex>
6.6219811

>  <lip_acc>
9

>  <lip_don>
1

>  <lip_druglike>
1

>  <lip_violation>
0

>  <logP(o/w)>
3.00174

>  <logS>
-4.7268801

>  <mr>
10.96113

>  <mutagenic>
1

>  <nmol>
1

>  <opr_brigid>
13

>  <opr_leadlike>
1

>  <opr_nring>
2

>  <opr_nrot>
8

>  <opr_violation>
1

>  <PC+>
0

>  <PC->
0

>  <PEOE_PC+>
2.6454368

>  <PEOE_PC->
-2.6454368

>  <PEOE_RPC+>
0.11063028

>  <PEOE_RPC->
0.14390589

>  <PEOE_VSA+0>
120.56512

>  <PEOE_VSA+1>
92.228722

>  <PEOE_VSA+2>
0

>  <PEOE_VSA+3>
14.708499

>  <PEOE_VSA+4>
10.324173

>  <PEOE_VSA+5>
21.408051

>  <PEOE_VSA+6>
0

>  <PEOE_VSA-0>
77.199249

>  <PEOE_VSA-1>
24.509808

>  <PEOE_VSA-2>
0

>  <PEOE_VSA-3>
0

>  <PEOE_VSA-4>
0

>  <PEOE_VSA-5>
53.180546

>  <PEOE_VSA-6>
15.278809

>  <PEOE_VSA_FHYD>
0.76667237

>  <PEOE_VSA_FNEG>
0.39629072

>  <PEOE_VSA_FPNEG>
0.15942915

>  <PEOE_VSA_FPOL>
0.23332763

>  <PEOE_VSA_FPOS>
0.60370928

>  <PEOE_VSA_FPPOS>
0.073898472

>  <PEOE_VSA_HYD>
329.2114

>  <PEOE_VSA_NEG>
170.16841

>  <PEOE_VSA_PNEG>
68.459351

>  <PEOE_VSA_POL>
100.19157

>  <PEOE_VSA_POS>
259.23456

>  <PEOE_VSA_PPOS>
31.732224

>  <petitjean>
0.5

>  <petitjeanSC>
1

>  <Q_PC+>
0

>  <Q_PC->
0

>  <Q_RPC+>
0

>  <Q_RPC->
0

>  <Q_VSA_FHYD>
1

>  <Q_VSA_FNEG>
0

>  <Q_VSA_FPNEG>
0

>  <Q_VSA_FPOL>
0

>  <Q_VSA_FPOS>
1

>  <Q_VSA_FPPOS>
0

>  <Q_VSA_HYD>
429.40298

>  <Q_VSA_NEG>
0

>  <Q_VSA_PNEG>
0

>  <Q_VSA_POL>
0

>  <Q_VSA_POS>
429.40298

>  <Q_VSA_PPOS>
0

>  <radius>
6

>  <reactive>
1

>  <rings>
2

>  <RPC+>
0

>  <RPC->
0

>  <rsynth>
1

>  <SlogP>
3.8111

>  <SlogP_VSA0>
0

>  <SlogP_VSA1>
17.587828

>  <SlogP_VSA2>
63.330528

>  <SlogP_VSA3>
118.17275

>  <SlogP_VSA4>
3.185575

>  <SlogP_VSA5>
68.598579

>  <SlogP_VSA6>
4.4107962

>  <SlogP_VSA7>
70.572739

>  <SlogP_VSA8>
0

>  <SlogP_VSA9>
136.06081

>  <SMR>
11.03572

>  <SMR_VSA0>
63.947495

>  <SMR_VSA1>
16.78553

>  <SMR_VSA2>
76.320236

>  <SMR_VSA3>
30.4942

>  <SMR_VSA4>
2.7567475

>  <SMR_VSA5>
70.572739

>  <SMR_VSA6>
52.354729

>  <SMR_VSA7>
168.68793

>  <TPSA>
123.17

>  <VAdjEq>
0.36176345

>  <VAdjMa>
5.9541965

>  <VDistEq>
3.3443913

>  <VDistMa>
9.5775127

>  <vdw_area>
429.40298

>  <vdw_vol>
544.64728

>  <vsa_acc>
24.25701

>  <vsa_acid>
0

>  <vsa_base>
0

>  <vsa_don>
0

>  <vsa_hyd>
295.36298

>  <vsa_other>
72.551353

>  <vsa_pol>
37.823929

>  <Weight>
418.44598

>  <weinerPath>
2290

>  <weinerPol>
49

>  <zagreb>
148

$$$$