n1cc(ccc1)[C@H]1N(CCC1)C
  MOE2013           2D

 12 13  0  0  1  0  0  0  0  0999 V2000
    0.0000    0.0000    0.0000 N   0  0  0  0  0  0  0  0  0  0  0  0
    1.5000   -0.0120    0.0000 C   0  0  0  0  0  0  0  0  0  0  0  0
    2.2390   -1.3170    0.0000 C   0  0  0  0  0  0  0  0  0  0  0  0
    1.4790   -2.6100    0.0000 C   0  0  0  0  0  0  0  0  0  0  0  0
   -0.0210   -2.5980    0.0000 C   0  0  0  0  0  0  0  0  0  0  0  0
   -0.7600   -1.2930    0.0000 C   0  0  0  0  0  0  0  0  0  0  0  0
    3.7390   -1.3290    0.0000 C   0  0  1  0  0  0  0  0  0  0  0  0
    4.6310   -0.1230    0.0000 N   0  0  3  0  0  0  0  0  0  0  0  0
    6.0540   -0.5980    0.0000 C   0  0  0  0  0  0  0  0  0  0  0  0
    6.0420   -2.0980    0.0000 C   0  0  0  0  0  0  0  0  0  0  0  0
    4.6110   -2.5500    0.0000 C   0  0  0  0  0  0  0  0  0  0  0  0
    4.1790    1.3080    0.0000 C   0  0  0  0  0  0  0  0  0  0  0  0
  1  2  2  0  0  0  0
  1  6  1  0  0  0  0
  2  3  1  0  0  0  0
  3  4  2  0  0  0  0
  4  5  1  0  0  0  0
  5  6  2  0  0  0  0
  7  3  1  1  0  0  0
  7  8  1  0  0  0  0
  7 11  1  0  0  0  0
  8  9  1  0  0  0  0
  8 12  1  0  0  0  0
  9 10  1  0  0  0  0
 10 11  1  0  0  0  0
M  END
>  <Index>
766

>  <ID>
HT1488

>  <class>
0

>  <apol>
29.135101

>  <ast_fraglike>
1

>  <ast_fraglike_ext>
1

>  <ast_violation>
0

>  <ast_violation_ext>
0

>  <a_acc>
2

>  <a_acid>
0

>  <a_aro>
6

>  <a_base>
0

>  <a_count>
26

>  <a_don>
0

>  <a_donacc>
2

>  <a_heavy>
12

>  <a_hyd>
10

>  <a_IC>
33.689182

>  <a_ICM>
1.2957377

>  <a_nB>
0

>  <a_nBr>
0

>  <a_nC>
10

>  <a_nCl>
0

>  <a_nF>
0

>  <a_nH>
14

>  <a_nI>
0

>  <a_nN>
2

>  <a_nO>
0

>  <a_nP>
0

>  <a_nS>
0

>  <balabanJ>
1.901908

>  <BCUT_PEOE_0>
-2.5443935

>  <BCUT_PEOE_1>
-0.419274

>  <BCUT_PEOE_2>
0.44912681

>  <BCUT_PEOE_3>
2.6967871

>  <BCUT_SLOGP_0>
-2.5613914

>  <BCUT_SLOGP_1>
-0.35372382

>  <BCUT_SLOGP_2>
0.53689343

>  <BCUT_SLOGP_3>
2.7824521

>  <BCUT_SMR_0>
-2.2562439

>  <BCUT_SMR_1>
-0.26429379

>  <BCUT_SMR_2>
0.59364206

>  <BCUT_SMR_3>
2.9656665

>  <bpol>
18.604898

>  <b_1rotN>
1

>  <b_1rotR>
0.07692308

>  <b_ar>
6

>  <b_count>
27

>  <b_double>
0

>  <b_heavy>
13

>  <b_max1len>
2

>  <b_rotN>
1

>  <b_rotR>
0.07692308

>  <b_single>
21

>  <b_triple>
0

>  <chi0>
8.3889055

>  <chi0v>
7.4024987

>  <chi0v_C>
6.5080719

>  <chi0_C>
7.1044478

>  <chi1>
5.8770099

>  <chi1v>
4.4789782

>  <chi1v_C>
2.9409404

>  <chi1_C>
3.5580783

>  <chiral>
1

>  <chiral_u>
0

>  <density>
0.65963781

>  <diameter>
6

>  <FCharge>
0

>  <GCUT_PEOE_0>
-0.85847491

>  <GCUT_PEOE_1>
-0.33862561

>  <GCUT_PEOE_2>
0.012790701

>  <GCUT_PEOE_3>
2.4668431

>  <GCUT_SLOGP_0>
-0.92747623

>  <GCUT_SLOGP_1>
-0.25152096

>  <GCUT_SLOGP_2>
0.088372082

>  <GCUT_SLOGP_3>
2.5532978

>  <GCUT_SMR_0>
-0.52545726

>  <GCUT_SMR_1>
-0.16145471

>  <GCUT_SMR_2>
0.10925543

>  <GCUT_SMR_3>
2.7197926

>  <Kier1>
8.5917158

>  <Kier2>
3.8062284

>  <Kier3>
1.8595041

>  <KierA1>
6.8556819

>  <KierA2>
2.968488

>  <KierA3>
1.4242733

>  <KierFlex>
1.6959175

>  <lip_acc>
2

>  <lip_don>
0

>  <lip_druglike>
1

>  <lip_violation>
0

>  <logP(o/w)>
1.375

>  <logS>
-0.55057001

>  <mr>
4.9848509

>  <mutagenic>
0

>  <nmol>
1

>  <opr_brigid>
11

>  <opr_leadlike>
1

>  <opr_nring>
2

>  <opr_nrot>
2

>  <opr_violation>
0

>  <PC+>
0

>  <PC->
0

>  <PEOE_PC+>
0.75445336

>  <PEOE_PC->
-0.75445336

>  <PEOE_RPC+>
0.11036251

>  <PEOE_RPC->
0.3955074

>  <PEOE_VSA+0>
75.026268

>  <PEOE_VSA+1>
21.326929

>  <PEOE_VSA+2>
0

>  <PEOE_VSA+3>
0

>  <PEOE_VSA+4>
0

>  <PEOE_VSA+5>
0

>  <PEOE_VSA+6>
0

>  <PEOE_VSA-0>
68.297081

>  <PEOE_VSA-1>
12.254904

>  <PEOE_VSA-2>
0

>  <PEOE_VSA-3>
0

>  <PEOE_VSA-4>
0

>  <PEOE_VSA-5>
5.6825762

>  <PEOE_VSA-6>
0

>  <PEOE_VSA_FHYD>
0.96887755

>  <PEOE_VSA_FNEG>
0.47229105

>  <PEOE_VSA_FPNEG>
0.031122437

>  <PEOE_VSA_FPOL>
0.031122437

>  <PEOE_VSA_FPOS>
0.52770895

>  <PEOE_VSA_FPPOS>
0

>  <PEOE_VSA_HYD>
176.90518

>  <PEOE_VSA_NEG>
86.234566

>  <PEOE_VSA_PNEG>
5.6825762

>  <PEOE_VSA_POL>
5.6825762

>  <PEOE_VSA_POS>
96.353195

>  <PEOE_VSA_PPOS>
0

>  <petitjean>
0.5

>  <petitjeanSC>
1

>  <Q_PC+>
0

>  <Q_PC->
0

>  <Q_RPC+>
0

>  <Q_RPC->
0

>  <Q_VSA_FHYD>
1

>  <Q_VSA_FNEG>
0

>  <Q_VSA_FPNEG>
0

>  <Q_VSA_FPOL>
0

>  <Q_VSA_FPOS>
1

>  <Q_VSA_FPPOS>
0

>  <Q_VSA_HYD>
182.58775

>  <Q_VSA_NEG>
0

>  <Q_VSA_PNEG>
0

>  <Q_VSA_POL>
0

>  <Q_VSA_POS>
182.58775

>  <Q_VSA_PPOS>
0

>  <radius>
3

>  <reactive>
0

>  <rings>
2

>  <RPC+>
0

>  <RPC->
0

>  <rsynth>
1

>  <SlogP>
1.9438

>  <SlogP_VSA0>
0

>  <SlogP_VSA1>
19.909843

>  <SlogP_VSA2>
0

>  <SlogP_VSA3>
18.439579

>  <SlogP_VSA4>
3.185575

>  <SlogP_VSA5>
32.897186

>  <SlogP_VSA6>
0

>  <SlogP_VSA7>
69.71508

>  <SlogP_VSA8>
41.718781

>  <SlogP_VSA9>
0

>  <SMR>
4.8952999

>  <SMR_VSA0>
0

>  <SMR_VSA1>
19.909843

>  <SMR_VSA2>
0

>  <SMR_VSA3>
7.1675434

>  <SMR_VSA4>
0

>  <SMR_VSA5>
107.4519

>  <SMR_VSA6>
18.439579

>  <SMR_VSA7>
32.897186

>  <TPSA>
16.129999

>  <VAdjEq>
0.68129086

>  <VAdjMa>
4.7004399

>  <VDistEq>
2.4428155

>  <VDistMa>
6.8602829

>  <vdw_area>
182.58775

>  <vdw_vol>
245.94708

>  <vsa_acc>
5.6825762

>  <vsa_acid>
0

>  <vsa_base>
0

>  <vsa_don>
0

>  <vsa_hyd>
166.94005

>  <vsa_other>
0

>  <vsa_pol>
5.6825762

>  <Weight>
162.23599

>  <weinerPath>
191

>  <weinerPol>
14

>  <zagreb>
60

$$$$