Clc1c2Cn3cc(O)nc3Nc2ccc1Cl
  MOE2013           2D

 16 18  0  0  0  0  0  0  0  0999 V2000
    0.0000    0.0000    0.0000 Cl  0  0  0  0  0  0  0  0  0  0  0  0
    0.7500   -1.2990    0.0000 C   0  0  0  0  0  0  0  0  0  0  0  0
    2.2500   -1.2990    0.0000 C   0  0  0  0  0  0  0  0  0  0  0  0
    3.0000   -0.0010    0.0000 C   0  0  0  0  0  0  0  0  0  0  0  0
    4.5000   -0.0010    0.0000 N   0  0  0  0  0  0  0  0  0  0  0  0
    5.5040    1.1140    0.0000 C   0  0  0  0  0  0  0  0  0  0  0  0
    6.8740    0.5030    0.0000 C   0  0  0  0  0  0  0  0  0  0  0  0
    8.1730    1.2530    0.0000 O   0  0  0  0  0  0  0  0  0  0  0  0
    6.7170   -0.9880    0.0000 N   0  0  0  0  0  0  0  0  0  0  0  0
    5.2500   -1.3000    0.0000 C   0  0  0  0  0  0  0  0  0  0  0  0
    4.5000   -2.5990    0.0000 N   0  0  0  0  0  0  0  0  0  0  0  0
    3.0000   -2.5990    0.0000 C   0  0  0  0  0  0  0  0  0  0  0  0
    2.2490   -3.8980    0.0000 C   0  0  0  0  0  0  0  0  0  0  0  0
    0.7490   -3.8970    0.0000 C   0  0  0  0  0  0  0  0  0  0  0  0
    0.0000   -2.5980    0.0000 C   0  0  0  0  0  0  0  0  0  0  0  0
   -1.5000   -2.5980    0.0000 Cl  0  0  0  0  0  0  0  0  0  0  0  0
  1  2  1  0  0  0  0
  2  3  1  0  0  0  0
  2 15  2  0  0  0  0
  3  4  1  0  0  0  0
  3 12  2  0  0  0  0
  4  5  1  0  0  0  0
  5  6  1  0  0  0  0
  5 10  1  0  0  0  0
  6  7  2  0  0  0  0
  7  8  1  0  0  0  0
  7  9  1  0  0  0  0
  9 10  2  0  0  0  0
 10 11  1  0  0  0  0
 11 12  1  0  0  0  0
 12 13  1  0  0  0  0
 13 14  2  0  0  0  0
 14 15  1  0  0  0  0
 15 16  1  0  0  0  0
M  END
>  <Index>
75

>  <ID>
HT0157

>  <class>
0

>  <apol>
30.729551

>  <ast_fraglike>
0

>  <ast_fraglike_ext>
0

>  <ast_violation>
1

>  <ast_violation_ext>
1

>  <a_acc>
2

>  <a_acid>
0

>  <a_aro>
11

>  <a_base>
0

>  <a_count>
23

>  <a_don>
2

>  <a_donacc>
4

>  <a_heavy>
16

>  <a_hyd>
10

>  <a_IC>
44.416271

>  <a_ICM>
1.9311422

>  <a_nB>
0

>  <a_nBr>
0

>  <a_nC>
10

>  <a_nCl>
2

>  <a_nF>
0

>  <a_nH>
7

>  <a_nI>
0

>  <a_nN>
3

>  <a_nO>
1

>  <a_nP>
0

>  <a_nS>
0

>  <balabanJ>
1.7485299

>  <BCUT_PEOE_0>
-2.4128926

>  <BCUT_PEOE_1>
-0.71025336

>  <BCUT_PEOE_2>
0.65540421

>  <BCUT_PEOE_3>
2.4020035

>  <BCUT_SLOGP_0>
-2.3192177

>  <BCUT_SLOGP_1>
-0.5519079

>  <BCUT_SLOGP_2>
0.91380715

>  <BCUT_SLOGP_3>
2.5552874

>  <BCUT_SMR_0>
-2.0948138

>  <BCUT_SMR_1>
-0.42819211

>  <BCUT_SMR_2>
0.96464139

>  <BCUT_SMR_3>
2.719203

>  <bpol>
12.452449

>  <b_1rotN>
0

>  <b_1rotR>
0

>  <b_ar>
11

>  <b_count>
25

>  <b_double>
0

>  <b_heavy>
18

>  <b_max1len>
2

>  <b_rotN>
0

>  <b_rotR>
0

>  <b_single>
14

>  <b_triple>
0

>  <chi0>
11.284093

>  <chi0v>
9.5485849

>  <chi0v_C>
5.4391575

>  <chi0_C>
6.2925286

>  <chi1>
7.6478672

>  <chi1v>
5.4056592

>  <chi1v_C>
2.3029122

>  <chi1_C>
3.1329932

>  <chiral>
0

>  <chiral_u>
0

>  <density>
0.92462397

>  <diameter>
8

>  <FCharge>
0

>  <GCUT_PEOE_0>
-0.82648468

>  <GCUT_PEOE_1>
-0.45587564

>  <GCUT_PEOE_2>
0.088605188

>  <GCUT_PEOE_3>
2.3476038

>  <GCUT_SLOGP_0>
-0.89702541

>  <GCUT_SLOGP_1>
-0.31224236

>  <GCUT_SLOGP_2>
0.2789658

>  <GCUT_SLOGP_3>
2.5207808

>  <GCUT_SMR_0>
-0.47316724

>  <GCUT_SMR_1>
-0.19854921

>  <GCUT_SMR_2>
0.3558704

>  <GCUT_SMR_3>
2.6606405

>  <Kier1>
11.111111

>  <Kier2>
4.0329218

>  <Kier3>
1.8612126

>  <KierA1>
9.5218801

>  <KierA2>
3.4179583

>  <KierA3>
1.5643042

>  <KierFlex>
2.0340869

>  <lip_acc>
4

>  <lip_don>
2

>  <lip_druglike>
1

>  <lip_violation>
0

>  <logP(o/w)>
2.875

>  <logS>
-3.6454599

>  <mr>
6.14533

>  <mutagenic>
0

>  <nmol>
1

>  <opr_brigid>
15

>  <opr_leadlike>
1

>  <opr_nring>
3

>  <opr_nrot>
0

>  <opr_violation>
0

>  <PC+>
0

>  <PC->
0

>  <PEOE_PC+>
1.3243122

>  <PEOE_PC->
-1.3243122

>  <PEOE_RPC+>
0.16533889

>  <PEOE_RPC->
0.25912964

>  <PEOE_VSA+0>
8.9080906

>  <PEOE_VSA+1>
60.304665

>  <PEOE_VSA+2>
8.6190128

>  <PEOE_VSA+3>
28.631105

>  <PEOE_VSA+4>
10.324173

>  <PEOE_VSA+5>
0

>  <PEOE_VSA+6>
0

>  <PEOE_VSA-0>
24.509808

>  <PEOE_VSA-1>
59.163895

>  <PEOE_VSA-2>
0

>  <PEOE_VSA-3>
5.6825762

>  <PEOE_VSA-4>
0.13689101

>  <PEOE_VSA-5>
0

>  <PEOE_VSA-6>
7.7675405

>  <PEOE_VSA_FHYD>
0.91483861

>  <PEOE_VSA_FNEG>
0.4543879

>  <PEOE_VSA_FPNEG>
0.036928356

>  <PEOE_VSA_FPOL>
0.085161388

>  <PEOE_VSA_FPOS>
0.5456121

>  <PEOE_VSA_FPPOS>
0.048233036

>  <PEOE_VSA_HYD>
195.81915

>  <PEOE_VSA_NEG>
97.260712

>  <PEOE_VSA_PNEG>
7.9044313

>  <PEOE_VSA_POL>
18.228603

>  <PEOE_VSA_POS>
116.78705

>  <PEOE_VSA_PPOS>
10.324173

>  <petitjean>
0.5

>  <petitjeanSC>
1

>  <Q_PC+>
0

>  <Q_PC->
0

>  <Q_RPC+>
0

>  <Q_RPC->
0

>  <Q_VSA_FHYD>
1

>  <Q_VSA_FNEG>
0

>  <Q_VSA_FPNEG>
0

>  <Q_VSA_FPOL>
0

>  <Q_VSA_FPOS>
1

>  <Q_VSA_FPPOS>
0

>  <Q_VSA_HYD>
214.04776

>  <Q_VSA_NEG>
0

>  <Q_VSA_PNEG>
0

>  <Q_VSA_POL>
0

>  <Q_VSA_POS>
214.04776

>  <Q_VSA_PPOS>
0

>  <radius>
4

>  <reactive>
0

>  <rings>
3

>  <RPC+>
0

>  <RPC->
0

>  <rsynth>
1

>  <SlogP>
3.2672

>  <SlogP_VSA0>
25.385227

>  <SlogP_VSA1>
36.695374

>  <SlogP_VSA2>
0

>  <SlogP_VSA3>
0

>  <SlogP_VSA4>
3.185575

>  <SlogP_VSA5>
0

>  <SlogP_VSA6>
7.0012131

>  <SlogP_VSA7>
52.500725

>  <SlogP_VSA8>
0

>  <SlogP_VSA9>
106.20731

>  <SMR>
6.2943501

>  <SMR_VSA0>
0

>  <SMR_VSA1>
44.069847

>  <SMR_VSA2>
0

>  <SMR_VSA3>
15.001389

>  <SMR_VSA4>
22.666592

>  <SMR_VSA5>
70.9403

>  <SMR_VSA6>
0

>  <SMR_VSA7>
78.297287

>  <TPSA>
50.080002

>  <VAdjEq>
0.58587331

>  <VAdjMa>
5.1699252

>  <VDistEq>
2.7027693

>  <VDistMa>
7.7116303

>  <vdw_area>
214.04776

>  <vdw_vol>
276.96881

>  <vsa_acc>
5.6825762

>  <vsa_acid>
0

>  <vsa_base>
0

>  <vsa_don>
5.6825762

>  <vsa_hyd>
149.32748

>  <vsa_other>
28.631105

>  <vsa_pol>
24.932074

>  <Weight>
256.09198

>  <weinerPath>
399

>  <weinerPol>
26

>  <zagreb>
90

$$$$