OC(=O)C(Cc1ccccc1)CC(=O)N1CC2C(CCCC2)C1
  MOE2013           2D

 23 25  0  0  1  0  0  0  0  0999 V2000
    0.0000    0.0000    0.0000 O   0  0  0  0  0  0  0  0  0  0  0  0
    0.7610   -1.2920    0.0000 C   0  0  0  0  0  0  0  0  0  0  0  0
    2.2610   -1.2790    0.0000 O   0  0  0  0  0  0  0  0  0  0  0  0
    0.0230   -2.5980    0.0000 C   0  0  3  0  0  0  0  0  0  0  0  0
    0.7840   -3.8900    0.0000 C   0  0  0  0  0  0  0  0  0  0  0  0
    2.2840   -3.8770    0.0000 C   0  0  0  0  0  0  0  0  0  0  0  0
    3.0230   -2.5720    0.0000 C   0  0  0  0  0  0  0  0  0  0  0  0
    4.5220   -2.5590    0.0000 C   0  0  0  0  0  0  0  0  0  0  0  0
    5.2840   -3.8510    0.0000 C   0  0  0  0  0  0  0  0  0  0  0  0
    4.5450   -5.1570    0.0000 C   0  0  0  0  0  0  0  0  0  0  0  0
    3.0450   -5.1700    0.0000 C   0  0  0  0  0  0  0  0  0  0  0  0
   -1.4770   -2.6110    0.0000 C   0  0  0  0  0  0  0  0  0  0  0  0
   -2.2160   -3.9170    0.0000 C   0  0  0  0  0  0  0  0  0  0  0  0
   -1.4550   -5.2090    0.0000 O   0  0  0  0  0  0  0  0  0  0  0  0
   -3.7160   -3.9300    0.0000 N   0  0  0  0  0  0  0  0  0  0  0  0
   -4.5870   -5.1510    0.0000 C   0  0  0  0  0  0  0  0  0  0  0  0
   -6.0180   -4.7000    0.0000 C   0  0  3  0  0  0  0  0  0  0  0  0
   -6.0310   -3.2000    0.0000 C   0  0  3  0  0  0  0  0  0  0  0  0
   -7.3360   -2.4610    0.0000 C   0  0  0  0  0  0  0  0  0  0  0  0
   -8.6290   -3.2220    0.0000 C   0  0  0  0  0  0  0  0  0  0  0  0
   -8.6150   -4.7220    0.0000 C   0  0  0  0  0  0  0  0  0  0  0  0
   -7.3100   -5.4610    0.0000 C   0  0  0  0  0  0  0  0  0  0  0  0
   -4.6080   -2.7240    0.0000 C   0  0  0  0  0  0  0  0  0  0  0  0
  1  2  1  0  0  0  0
  2  3  2  0  0  0  0
  2  4  1  0  0  0  0
  4  5  1  0  0  0  0
  4 12  1  0  0  0  0
  5  6  1  0  0  0  0
  6  7  1  0  0  0  0
  6 11  2  0  0  0  0
  7  8  2  0  0  0  0
  8  9  1  0  0  0  0
  9 10  2  0  0  0  0
 10 11  1  0  0  0  0
 12 13  1  0  0  0  0
 13 14  2  0  0  0  0
 13 15  1  0  0  0  0
 15 16  1  0  0  0  0
 15 23  1  0  0  0  0
 16 17  1  0  0  0  0
 17 18  1  0  0  0  0
 17 22  1  0  0  0  0
 18 19  1  0  0  0  0
 18 23  1  0  0  0  0
 19 20  1  0  0  0  0
 20 21  1  0  0  0  0
 21 22  1  0  0  0  0
M  END
>  <Index>
723

>  <ID>
HT1413

>  <class>
0

>  <apol>
53.615826

>  <ast_fraglike>
0

>  <ast_fraglike_ext>
0

>  <ast_violation>
1

>  <ast_violation_ext>
2

>  <a_acc>
3

>  <a_acid>
0

>  <a_aro>
6

>  <a_base>
0

>  <a_count>
48

>  <a_don>
2

>  <a_donacc>
5

>  <a_heavy>
23

>  <a_hyd>
17

>  <a_IC>
66.516289

>  <a_ICM>
1.3857559

>  <a_nB>
0

>  <a_nBr>
0

>  <a_nC>
19

>  <a_nCl>
0

>  <a_nF>
0

>  <a_nH>
25

>  <a_nI>
0

>  <a_nN>
1

>  <a_nO>
3

>  <a_nP>
0

>  <a_nS>
0

>  <balabanJ>
1.5029873

>  <BCUT_PEOE_0>
-2.7906318

>  <BCUT_PEOE_1>
-0.56167281

>  <BCUT_PEOE_2>
0.61486048

>  <BCUT_PEOE_3>
2.840203

>  <BCUT_SLOGP_0>
-2.7035263

>  <BCUT_SLOGP_1>
-0.46115431

>  <BCUT_SLOGP_2>
0.64361227

>  <BCUT_SLOGP_3>
2.8987255

>  <BCUT_SMR_0>
-2.5447171

>  <BCUT_SMR_1>
-0.42655629

>  <BCUT_SMR_2>
0.75547868

>  <BCUT_SMR_3>
3.0975478

>  <bpol>
31.226175

>  <b_1rotN>
6

>  <b_1rotR>
0.23999999

>  <b_ar>
6

>  <b_count>
50

>  <b_double>
2

>  <b_heavy>
25

>  <b_max1len>
4

>  <b_rotN>
6

>  <b_rotR>
0.23999999

>  <b_single>
42

>  <b_triple>
0

>  <chi0>
16.233841

>  <chi0v>
13.48658

>  <chi0v_C>
11.775657

>  <chi0_C>
12.656489

>  <chi1>
11.13103

>  <chi1v>
8.677206

>  <chi1v_C>
7.1892886

>  <chi1_C>
8.2491493

>  <chiral>
3

>  <chiral_u>
3

>  <density>
0.70492828

>  <diameter>
12

>  <FCharge>
0

>  <GCUT_PEOE_0>
-0.85756582

>  <GCUT_PEOE_1>
-0.3993203

>  <GCUT_PEOE_2>
0.06565319

>  <GCUT_PEOE_3>
2.8623044

>  <GCUT_SLOGP_0>
-0.97036254

>  <GCUT_SLOGP_1>
-0.33091441

>  <GCUT_SLOGP_2>
0.11909721

>  <GCUT_SLOGP_3>
2.8940351

>  <GCUT_SMR_0>
-0.53207821

>  <GCUT_SMR_1>
-0.21689951

>  <GCUT_SMR_2>
0.16978161

>  <GCUT_SMR_3>
3.0926349

>  <Kier1>
17.811199

>  <Kier2>
8.3927336

>  <Kier3>
4.7593293

>  <KierA1>
14.35271

>  <KierA2>
6.6922889

>  <KierA3>
3.7648628

>  <KierFlex>
4.1761947

>  <lip_acc>
4

>  <lip_don>
1

>  <lip_druglike>
1

>  <lip_violation>
0

>  <logP(o/w)>
2.6659999

>  <logS>
-3.0050499

>  <mr>
9.0377369

>  <mutagenic>
0

>  <nmol>
1

>  <opr_brigid>
16

>  <opr_leadlike>
1

>  <opr_nring>
3

>  <opr_nrot>
6

>  <opr_violation>
0

>  <PC+>
0

>  <PC->
0

>  <PEOE_PC+>
1.8142539

>  <PEOE_PC->
-1.8142539

>  <PEOE_RPC+>
0.14523087

>  <PEOE_RPC->
0.18832371

>  <PEOE_VSA+0>
116.1283

>  <PEOE_VSA+1>
21.326929

>  <PEOE_VSA+2>
0

>  <PEOE_VSA+3>
0

>  <PEOE_VSA+4>
23.273705

>  <PEOE_VSA+5>
14.708499

>  <PEOE_VSA+6>
0

>  <PEOE_VSA-0>
28.312479

>  <PEOE_VSA-1>
78.677147

>  <PEOE_VSA-2>
0

>  <PEOE_VSA-3>
0

>  <PEOE_VSA-4>
0

>  <PEOE_VSA-5>
27.133842

>  <PEOE_VSA-6>
7.7675405

>  <PEOE_VSA_FHYD>
0.77032131

>  <PEOE_VSA_FNEG>
0.44714242

>  <PEOE_VSA_FPNEG>
0.10998505

>  <PEOE_VSA_FPOL>
0.22967871

>  <PEOE_VSA_FPOS>
0.55285758

>  <PEOE_VSA_FPPOS>
0.11969366

>  <PEOE_VSA_HYD>
244.44485

>  <PEOE_VSA_NEG>
141.89101

>  <PEOE_VSA_PNEG>
34.901382

>  <PEOE_VSA_POL>
72.883583

>  <PEOE_VSA_POS>
175.43742

>  <PEOE_VSA_PPOS>
37.982204

>  <petitjean>
0.5

>  <petitjeanSC>
1

>  <Q_PC+>
0

>  <Q_PC->
0

>  <Q_RPC+>
0

>  <Q_RPC->
0

>  <Q_VSA_FHYD>
1

>  <Q_VSA_FNEG>
0

>  <Q_VSA_FPNEG>
0

>  <Q_VSA_FPOL>
0

>  <Q_VSA_FPOS>
1

>  <Q_VSA_FPPOS>
0

>  <Q_VSA_HYD>
317.32843

>  <Q_VSA_NEG>
0

>  <Q_VSA_PNEG>
0

>  <Q_VSA_POL>
0

>  <Q_VSA_POS>
317.32843

>  <Q_VSA_PPOS>
0

>  <radius>
6

>  <reactive>
0

>  <rings>
3

>  <RPC+>
0

>  <RPC->
0

>  <rsynth>
0.60869563

>  <SlogP>
2.96857

>  <SlogP_VSA0>
0

>  <SlogP_VSA1>
16.128561

>  <SlogP_VSA2>
47.724434

>  <SlogP_VSA3>
62.264381

>  <SlogP_VSA4>
16.417963

>  <SlogP_VSA5>
18.868406

>  <SlogP_VSA6>
0

>  <SlogP_VSA7>
88.215919

>  <SlogP_VSA8>
94.342026

>  <SlogP_VSA9>
0

>  <SMR>
8.7916803

>  <SMR_VSA0>
47.724434

>  <SMR_VSA1>
3.1243138

>  <SMR_VSA2>
38.617615

>  <SMR_VSA3>
3.185575

>  <SMR_VSA4>
0

>  <SMR_VSA5>
201.42636

>  <SMR_VSA6>
49.883404

>  <SMR_VSA7>
0

>  <TPSA>
57.610001

>  <VAdjEq>
0.45137304

>  <VAdjMa>
5.643856

>  <VDistEq>
3.3807287

>  <VDistMa>
8.748312

>  <vdw_area>
317.32843

>  <vdw_vol>
447.43985

>  <vsa_acc>
13.566921

>  <vsa_acid>
0

>  <vsa_base>
0

>  <vsa_don>
0

>  <vsa_hyd>
223.32661

>  <vsa_other>
27.65803

>  <vsa_pol>
40.700764

>  <Weight>
315.41299

>  <weinerPath>
1269

>  <weinerPol>
32

>  <zagreb>
118

$$$$