O=C1Cc2c(N(c3c1cccc3)C(=O)N)cccc2
  MOE2013           2D

 19 21  0  0  0  0  0  0  0  0999 V2000
    0.0000    0.0000    0.0000 O   0  0  0  0  0  0  0  0  0  0  0  0
    1.2270   -0.8630    0.0000 C   0  0  0  0  0  0  0  0  0  0  0  0
    2.5370   -0.1330    0.0000 C   0  0  0  0  0  0  0  0  0  0  0  0
    3.9250   -0.7010    0.0000 C   0  0  0  0  0  0  0  0  0  0  0  0
    4.3470   -2.1410    0.0000 C   0  0  0  0  0  0  0  0  0  0  0  0
    3.4850   -3.3690    0.0000 N   0  0  0  0  0  0  0  0  0  0  0  0
    1.9870   -3.4570    0.0000 C   0  0  0  0  0  0  0  0  0  0  0  0
    0.9830   -2.3430    0.0000 C   0  0  0  0  0  0  0  0  0  0  0  0
   -0.4850   -2.6560    0.0000 C   0  0  0  0  0  0  0  0  0  0  0  0
   -0.9470   -4.0820    0.0000 C   0  0  0  0  0  0  0  0  0  0  0  0
    0.0570   -5.1970    0.0000 C   0  0  0  0  0  0  0  0  0  0  0  0
    1.5240   -4.8840    0.0000 C   0  0  0  0  0  0  0  0  0  0  0  0
    4.2160   -4.6780    0.0000 C   0  0  0  0  0  0  0  0  0  0  0  0
    3.4480   -5.9660    0.0000 O   0  0  0  0  0  0  0  0  0  0  0  0
    5.7160   -4.7000    0.0000 N   0  0  0  0  0  0  0  0  0  0  0  0
    5.8040   -2.4960    0.0000 C   0  0  0  0  0  0  0  0  0  0  0  0
    6.8400   -1.4110    0.0000 C   0  0  0  0  0  0  0  0  0  0  0  0
    6.4190    0.0290    0.0000 C   0  0  0  0  0  0  0  0  0  0  0  0
    4.9610    0.3830    0.0000 C   0  0  0  0  0  0  0  0  0  0  0  0
  1  2  2  0  0  0  0
  2  3  1  0  0  0  0
  2  8  1  0  0  0  0
  3  4  1  0  0  0  0
  4  5  1  0  0  0  0
  4 19  2  0  0  0  0
  5  6  1  0  0  0  0
  5 16  2  0  0  0  0
  6  7  1  0  0  0  0
  6 13  1  0  0  0  0
  7  8  1  0  0  0  0
  7 12  2  0  0  0  0
  8  9  2  0  0  0  0
  9 10  1  0  0  0  0
 10 11  2  0  0  0  0
 11 12  1  0  0  0  0
 13 14  2  0  0  0  0
 13 15  1  0  0  0  0
 16 17  1  0  0  0  0
 17 18  2  0  0  0  0
 18 19  1  0  0  0  0
M  END
>  <Index>
797

>  <ID>
HT1557

>  <class>
0

>  <apol>
38.205517

>  <ast_fraglike>
1

>  <ast_fraglike_ext>
1

>  <ast_violation>
0

>  <ast_violation_ext>
0

>  <a_acc>
2

>  <a_acid>
0

>  <a_aro>
12

>  <a_base>
0

>  <a_count>
31

>  <a_don>
1

>  <a_donacc>
3

>  <a_heavy>
19

>  <a_hyd>
13

>  <a_IC>
47.957176

>  <a_ICM>
1.5470057

>  <a_nB>
0

>  <a_nBr>
0

>  <a_nC>
15

>  <a_nCl>
0

>  <a_nF>
0

>  <a_nH>
12

>  <a_nI>
0

>  <a_nN>
2

>  <a_nO>
2

>  <a_nP>
0

>  <a_nS>
0

>  <balabanJ>
1.9129924

>  <BCUT_PEOE_0>
-2.3409007

>  <BCUT_PEOE_1>
-0.55200022

>  <BCUT_PEOE_2>
0.59712428

>  <BCUT_PEOE_3>
2.4325273

>  <BCUT_SLOGP_0>
-2.533829

>  <BCUT_SLOGP_1>
-0.42895326

>  <BCUT_SLOGP_2>
0.73946011

>  <BCUT_SLOGP_3>
2.4998314

>  <BCUT_SMR_0>
-2.0191698

>  <BCUT_SMR_1>
-0.40261018

>  <BCUT_SMR_2>
0.736839

>  <BCUT_SMR_3>
2.7526264

>  <bpol>
16.354485

>  <b_1rotN>
1

>  <b_1rotR>
0.047619049

>  <b_ar>
12

>  <b_count>
33

>  <b_double>
2

>  <b_heavy>
21

>  <b_max1len>
2

>  <b_rotN>
1

>  <b_rotR>
0.047619049

>  <b_single>
19

>  <b_triple>
0

>  <chi0>
13.405413

>  <chi0v>
10.166969

>  <chi0v_C>
8.3259087

>  <chi0_C>
9.828063

>  <chi1>
9.1815405

>  <chi1v>
5.9795513

>  <chi1v_C>
4.6118073

>  <chi1_C>
6.4494896

>  <chiral>
0

>  <chiral_u>
0

>  <density>
0.74600089

>  <diameter>
7

>  <FCharge>
0

>  <GCUT_PEOE_0>
-0.80045754

>  <GCUT_PEOE_1>
-0.464055

>  <GCUT_PEOE_2>
0.062489629

>  <GCUT_PEOE_3>
2.5365119

>  <GCUT_SLOGP_0>
-1.3705636

>  <GCUT_SLOGP_1>
-0.32600591

>  <GCUT_SLOGP_2>
0.16614369

>  <GCUT_SLOGP_3>
2.6406739

>  <GCUT_SMR_0>
-0.45696634

>  <GCUT_SMR_1>
-0.19994524

>  <GCUT_SMR_2>
0.18430103

>  <GCUT_SMR_3>
2.8464198

>  <Kier1>
13.959184

>  <Kier2>
5.7800002

>  <Kier3>
2.6122448

>  <KierA1>
8.988946

>  <KierA2>
3.6209722

>  <KierA3>
1.6014031

>  <KierFlex>
1.7130907

>  <lip_acc>
4

>  <lip_don>
2

>  <lip_druglike>
1

>  <lip_violation>
0

>  <logP(o/w)>
1.967

>  <logS>
-3.7408299

>  <mr>
7.2133918

>  <mutagenic>
0

>  <nmol>
1

>  <opr_brigid>
17

>  <opr_leadlike>
1

>  <opr_nring>
3

>  <opr_nrot>
0

>  <opr_violation>
0

>  <PC+>
0

>  <PC->
0

>  <PEOE_PC+>
1.5898185

>  <PEOE_PC->
-1.5898185

>  <PEOE_RPC+>
0.20448212

>  <PEOE_RPC->
0.22096911

>  <PEOE_VSA+0>
19.440624

>  <PEOE_VSA+1>
47.52219

>  <PEOE_VSA+2>
0

>  <PEOE_VSA+3>
25.696545

>  <PEOE_VSA+4>
0

>  <PEOE_VSA+5>
0

>  <PEOE_VSA+6>
17.440542

>  <PEOE_VSA-0>
38.973251

>  <PEOE_VSA-1>
61.274521

>  <PEOE_VSA-2>
0

>  <PEOE_VSA-3>
0

>  <PEOE_VSA-4>
13.566921

>  <PEOE_VSA-5>
13.566921

>  <PEOE_VSA-6>
6.6511192

>  <PEOE_VSA_FHYD>
0.79017347

>  <PEOE_VSA_FNEG>
0.54901606

>  <PEOE_VSA_FPNEG>
0.13838772

>  <PEOE_VSA_FPOL>
0.20982653

>  <PEOE_VSA_FPOS>
0.45098397

>  <PEOE_VSA_FPPOS>
0.071438797

>  <PEOE_VSA_HYD>
192.90714

>  <PEOE_VSA_NEG>
134.03273

>  <PEOE_VSA_PNEG>
33.784962

>  <PEOE_VSA_POL>
51.225502

>  <PEOE_VSA_POS>
110.09991

>  <PEOE_VSA_PPOS>
17.440542

>  <petitjean>
0.42857143

>  <petitjeanSC>
0.75

>  <Q_PC+>
0

>  <Q_PC->
0

>  <Q_RPC+>
0

>  <Q_RPC->
0

>  <Q_VSA_FHYD>
1

>  <Q_VSA_FNEG>
0

>  <Q_VSA_FPNEG>
0

>  <Q_VSA_FPOL>
0

>  <Q_VSA_FPOS>
1

>  <Q_VSA_FPPOS>
0

>  <Q_VSA_HYD>
244.13263

>  <Q_VSA_NEG>
0

>  <Q_VSA_PNEG>
0

>  <Q_VSA_POL>
0

>  <Q_VSA_POS>
244.13263

>  <Q_VSA_PPOS>
0

>  <radius>
4

>  <reactive>
1

>  <rings>
3

>  <RPC+>
0

>  <RPC->
0

>  <rsynth>
1

>  <SlogP>
2.64217

>  <SlogP_VSA0>
36.0215

>  <SlogP_VSA1>
10.517568

>  <SlogP_VSA2>
0

>  <SlogP_VSA3>
0

>  <SlogP_VSA4>
30.233366

>  <SlogP_VSA5>
18.868406

>  <SlogP_VSA6>
0

>  <SlogP_VSA7>
141.14548

>  <SlogP_VSA8>
0

>  <SlogP_VSA9>
29.375711

>  <SMR>
7.2640901

>  <SMR_VSA0>
47.724434

>  <SMR_VSA1>
0

>  <SMR_VSA2>
3.1243138

>  <SMR_VSA3>
6.37115

>  <SMR_VSA4>
38.410683

>  <SMR_VSA5>
160.01389

>  <SMR_VSA6>
10.517568

>  <SMR_VSA7>
0

>  <TPSA>
63.400002

>  <VAdjEq>
0.51875818

>  <VAdjMa>
5.3923173

>  <VDistEq>
2.6031277

>  <VDistMa>
8.2638845

>  <vdw_area>
244.13263

>  <vdw_vol>
338.16718

>  <vsa_acc>
27.133842

>  <vsa_acid>
0

>  <vsa_base>
0

>  <vsa_don>
17.742489

>  <vsa_hyd>
160.09264

>  <vsa_other>
25.899061

>  <vsa_pol>
44.876331

>  <Weight>
252.27299

>  <weinerPath>
593

>  <weinerPol>
36

>  <zagreb>
102

$$$$