O1[C@@H](C[C@@H](O)CC1=O)CC[C@@H]1[C@@H]2[C@H](C[C@@H](C[C@@H]2OC(=O)[C@H](CC)C)C)C=C[C@@H]1C
  MOE2013           2D

 29 31  0  0  1  0  0  0  0  0999 V2000
    0.0000    0.0000    0.0000 O   0  0  0  0  0  0  0  0  0  0  0  0
    0.0050   -1.5000    0.0000 C   0  0  1  0  0  0  0  0  0  0  0  0
   -1.2920   -2.2540    0.0000 C   0  0  0  0  0  0  0  0  0  0  0  0
   -2.5940   -1.5080    0.0000 C   0  0  1  0  0  0  0  0  0  0  0  0
   -3.8900   -2.2620    0.0000 O   0  0  0  0  0  0  0  0  0  0  0  0
   -2.5980   -0.0080    0.0000 C   0  0  0  0  0  0  0  0  0  0  0  0
   -1.3010    0.7460    0.0000 C   0  0  0  0  0  0  0  0  0  0  0  0
   -1.3060    2.2460    0.0000 O   0  0  0  0  0  0  0  0  0  0  0  0
    1.3060   -2.2460    0.0000 C   0  0  0  0  0  0  0  0  0  0  0  0
    2.6030   -1.4920    0.0000 C   0  0  0  0  0  0  0  0  0  0  0  0
    3.9040   -2.2380    0.0000 C   0  0  2  0  0  0  0  0  0  0  0  0
    5.2010   -1.4840    0.0000 C   0  0  2  0  0  0  0  0  0  0  0  0
    6.5020   -2.2300    0.0000 C   0  0  2  0  0  0  0  0  0  0  0  0
    7.7990   -1.4760    0.0000 C   0  0  0  0  0  0  0  0  0  0  0  0
    7.7940    0.0240    0.0000 C   0  0  1  0  0  0  0  0  0  0  0  0
    6.4930    0.7700    0.0000 C   0  0  0  0  0  0  0  0  0  0  0  0
    5.1960    0.0160    0.0000 C   0  0  2  0  0  0  0  0  0  0  0  0
    3.8950    0.7620    0.0000 O   0  0  0  0  0  0  0  0  0  0  0  0
    3.8900    2.2620    0.0000 C   0  0  0  0  0  0  0  0  0  0  0  0
    5.1870    3.0160    0.0000 O   0  0  0  0  0  0  0  0  0  0  0  0
    2.5890    3.0080    0.0000 C   0  0  2  0  0  0  0  0  0  0  0  0
    2.5840    4.5080    0.0000 C   0  0  0  0  0  0  0  0  0  0  0  0
    1.2830    5.2540    0.0000 C   0  0  0  0  0  0  0  0  0  0  0  0
    1.2920    2.2540    0.0000 C   0  0  0  0  0  0  0  0  0  0  0  0
    9.0910    0.7770    0.0000 C   0  0  0  0  0  0  0  0  0  0  0  0
    6.5060   -3.7300    0.0000 C   0  0  0  0  0  0  0  0  0  0  0  0
    5.2100   -4.4840    0.0000 C   0  0  0  0  0  0  0  0  0  0  0  0
    3.9080   -3.7380    0.0000 C   0  0  2  0  0  0  0  0  0  0  0  0
    2.6120   -4.4920    0.0000 C   0  0  0  0  0  0  0  0  0  0  0  0
  1  2  1  0  0  0  0
  1  7  1  0  0  0  0
  2  3  1  0  0  0  0
  2  9  1  6  0  0  0
  3  4  1  0  0  0  0
  4  5  1  1  0  0  0
  4  6  1  0  0  0  0
  6  7  1  0  0  0  0
  7  8  2  0  0  0  0
  9 10  1  0  0  0  0
 11 10  1  6  0  0  0
 11 12  1  0  0  0  0
 11 28  1  0  0  0  0
 12 13  1  1  0  0  0
 12 17  1  0  0  0  0
 13 14  1  0  0  0  0
 13 26  1  6  0  0  0
 14 15  1  0  0  0  0
 15 16  1  0  0  0  0
 15 25  1  1  0  0  0
 16 17  1  0  0  0  0
 17 18  1  1  0  0  0
 18 19  1  0  0  0  0
 19 20  2  0  0  0  0
 19 21  1  0  0  0  0
 21 22  1  0  0  0  0
 21 24  1  1  0  0  0
 22 23  1  0  0  0  0
 26 27  2  0  0  0  0
 27 28  1  0  0  0  0
 28 29  1  6  0  0  0
M  END
>  <Index>
706

>  <ID>
HT1385

>  <class>
0

>  <apol>
71.588135

>  <ast_fraglike>
0

>  <ast_fraglike_ext>
0

>  <ast_violation>
2

>  <ast_violation_ext>
3

>  <a_acc>
3

>  <a_acid>
0

>  <a_aro>
0

>  <a_base>
0

>  <a_count>
67

>  <a_don>
1

>  <a_donacc>
4

>  <a_heavy>
29

>  <a_hyd>
22

>  <a_IC>
85.357986

>  <a_ICM>
1.2739998

>  <a_nB>
0

>  <a_nBr>
0

>  <a_nC>
24

>  <a_nCl>
0

>  <a_nF>
0

>  <a_nH>
38

>  <a_nI>
0

>  <a_nN>
0

>  <a_nO>
5

>  <a_nP>
0

>  <a_nS>
0

>  <balabanJ>
1.6828276

>  <BCUT_PEOE_0>
-2.8934176

>  <BCUT_PEOE_1>
-0.4975926

>  <BCUT_PEOE_2>
0.56131607

>  <BCUT_PEOE_3>
2.8637755

>  <BCUT_SLOGP_0>
-2.8502412

>  <BCUT_SLOGP_1>
-0.46753296

>  <BCUT_SLOGP_2>
0.5518502

>  <BCUT_SLOGP_3>
2.9195919

>  <BCUT_SMR_0>
-2.6456861

>  <BCUT_SMR_1>
-0.39187059

>  <BCUT_SMR_2>
0.65991217

>  <BCUT_SMR_3>
3.1114717

>  <bpol>
47.289867

>  <b_1rotN>
6

>  <b_1rotR>
0.19354838

>  <b_ar>
0

>  <b_count>
69

>  <b_double>
3

>  <b_heavy>
31

>  <b_max1len>
5

>  <b_rotN>
7

>  <b_rotR>
0.22580644

>  <b_single>
66

>  <b_triple>
0

>  <chi0>
21.129028

>  <chi0v>
18.380808

>  <chi0v_C>
16.3006

>  <chi0_C>
16.714813

>  <chi1>
13.778096

>  <chi1v>
11.543303

>  <chi1v_C>
9.9972019

>  <chi1_C>
10.413052

>  <chiral>
9

>  <chiral_u>
0

>  <density>
0.6952064

>  <diameter>
13

>  <FCharge>
0

>  <GCUT_PEOE_0>
-0.79825813

>  <GCUT_PEOE_1>
-0.3722949

>  <GCUT_PEOE_2>
0.044699728

>  <GCUT_PEOE_3>
3.1841004

>  <GCUT_SLOGP_0>
-0.87573749

>  <GCUT_SLOGP_1>
-0.29241386

>  <GCUT_SLOGP_2>
0.08264409

>  <GCUT_SLOGP_3>
3.2440906

>  <GCUT_SMR_0>
-0.53845519

>  <GCUT_SMR_1>
-0.21753272

>  <GCUT_SMR_2>
0.14993165

>  <GCUT_SMR_3>
3.4041474

>  <Kier1>
23.658689

>  <Kier2>
10.543388

>  <Kier3>
6.0357141

>  <KierA1>
21.568521

>  <KierA2>
9.5789003

>  <KierA3>
5.4697104

>  <KierFlex>
7.1242318

>  <lip_acc>
5

>  <lip_don>
1

>  <lip_druglike>
1

>  <lip_violation>
0

>  <logP(o/w)>
4.573

>  <logS>
-4.6237402

>  <mr>
11.303882

>  <mutagenic>
0

>  <nmol>
1

>  <opr_brigid>
17

>  <opr_leadlike>
1

>  <opr_nring>
3

>  <opr_nrot>
8

>  <opr_violation>
0

>  <PC+>
0

>  <PC->
0

>  <PEOE_PC+>
2.2497559

>  <PEOE_PC->
-2.2497559

>  <PEOE_RPC+>
0.11790693

>  <PEOE_RPC->
0.17388573

>  <PEOE_VSA+0>
145.19366

>  <PEOE_VSA+1>
44.743031

>  <PEOE_VSA+2>
0

>  <PEOE_VSA+3>
0

>  <PEOE_VSA+4>
10.324173

>  <PEOE_VSA+5>
29.416998

>  <PEOE_VSA+6>
0

>  <PEOE_VSA-0>
43.506565

>  <PEOE_VSA-1>
99.500519

>  <PEOE_VSA-2>
0

>  <PEOE_VSA-3>
0

>  <PEOE_VSA-4>
0

>  <PEOE_VSA-5>
27.133842

>  <PEOE_VSA-6>
12.775052

>  <PEOE_VSA_FHYD>
0.80695283

>  <PEOE_VSA_FNEG>
0.44333181

>  <PEOE_VSA_FPNEG>
0.096726827

>  <PEOE_VSA_FPOL>
0.19304715

>  <PEOE_VSA_FPOS>
0.55666816

>  <PEOE_VSA_FPPOS>
0.096320324

>  <PEOE_VSA_HYD>
332.94379

>  <PEOE_VSA_NEG>
182.91599

>  <PEOE_VSA_PNEG>
39.908894

>  <PEOE_VSA_POL>
79.650063

>  <PEOE_VSA_POS>
229.67787

>  <PEOE_VSA_PPOS>
39.741173

>  <petitjean>
0.46153846

>  <petitjeanSC>
0.85714287

>  <Q_PC+>
0

>  <Q_PC->
0

>  <Q_RPC+>
0

>  <Q_RPC->
0

>  <Q_VSA_FHYD>
1

>  <Q_VSA_FNEG>
0

>  <Q_VSA_FPNEG>
0

>  <Q_VSA_FPOL>
0

>  <Q_VSA_FPOS>
1

>  <Q_VSA_FPPOS>
0

>  <Q_VSA_HYD>
412.59384

>  <Q_VSA_NEG>
0

>  <Q_VSA_PNEG>
0

>  <Q_VSA_POL>
0

>  <Q_VSA_POS>
412.59384

>  <Q_VSA_PPOS>
0

>  <radius>
7

>  <reactive>
1

>  <rings>
3

>  <RPC+>
0

>  <RPC->
0

>  <rsynth>
0.44827586

>  <SlogP>
4.2754002

>  <SlogP_VSA0>
25.385227

>  <SlogP_VSA1>
15.490929

>  <SlogP_VSA2>
89.130157

>  <SlogP_VSA3>
0

>  <SlogP_VSA4>
26.464777

>  <SlogP_VSA5>
0

>  <SlogP_VSA6>
0

>  <SlogP_VSA7>
35.286369

>  <SlogP_VSA8>
132.07884

>  <SlogP_VSA9>
133.30406

>  <SMR>
11.08618

>  <SMR_VSA0>
69.724205

>  <SMR_VSA1>
25.385227

>  <SMR_VSA2>
26.464777

>  <SMR_VSA3>
19.405949

>  <SMR_VSA4>
0

>  <SMR_VSA5>
167.3652

>  <SMR_VSA6>
15.490929

>  <SMR_VSA7>
133.30406

>  <TPSA>
72.830002

>  <VAdjEq>
0.3796615

>  <VAdjMa>
5.9541965

>  <VDistEq>
3.4917691

>  <VDistMa>
9.4474201

>  <vdw_area>
412.59384

>  <vdw_vol>
584.80902

>  <vsa_acc>
27.133842

>  <vsa_acid>
0

>  <vsa_base>
0

>  <vsa_don>
0

>  <vsa_hyd>
298.53705

>  <vsa_other>
34.424511

>  <vsa_pol>
40.700764

>  <Weight>
406.56299

>  <weinerPath>
2246

>  <weinerPol>
47

>  <zagreb>
150

$$$$