O1[C@@H](Oc2ccc3c(OC(=O)C(NC(=O)c4cc(CC=C(C)/C)c(O)cc4)=C3O)c2C)[C@H](O)[C@H](OC(=O)N)[C@@H](OC)C1(C)C
  MOE2013           2D

 44 47  0  0  1  0  0  0  0  0999 V2000
    0.0000    0.0000    0.0000 O   0  0  0  0  0  0  0  0  0  0  0  0
   -0.0020    1.5000    0.0000 C   0  0  1  0  0  0  0  0  0  0  0  0
    1.2960    2.2520    0.0000 O   0  0  0  0  0  0  0  0  0  0  0  0
    2.5960    1.5040    0.0000 C   0  0  0  0  0  0  0  0  0  0  0  0
    2.5980    0.0040    0.0000 C   0  0  0  0  0  0  0  0  0  0  0  0
    3.8980   -0.7450    0.0000 C   0  0  0  0  0  0  0  0  0  0  0  0
    5.1960    0.0070    0.0000 C   0  0  0  0  0  0  0  0  0  0  0  0
    5.1940    1.5070    0.0000 C   0  0  0  0  0  0  0  0  0  0  0  0
    6.4920    2.2590    0.0000 O   0  0  0  0  0  0  0  0  0  0  0  0
    7.7920    1.5110    0.0000 C   0  0  0  0  0  0  0  0  0  0  0  0
    9.0900    2.2620    0.0000 O   0  0  0  0  0  0  0  0  0  0  0  0
    7.7940    0.0110    0.0000 C   0  0  0  0  0  0  0  0  0  0  0  0
    9.0940   -0.7380    0.0000 N   0  0  0  0  0  0  0  0  0  0  0  0
   10.3920    0.0140    0.0000 C   0  0  0  0  0  0  0  0  0  0  0  0
   10.3900    1.5140    0.0000 O   0  0  0  0  0  0  0  0  0  0  0  0
   11.6920   -0.7340    0.0000 C   0  0  0  0  0  0  0  0  0  0  0  0
   12.9900    0.0180    0.0000 C   0  0  0  0  0  0  0  0  0  0  0  0
   14.2900   -0.7300    0.0000 C   0  0  0  0  0  0  0  0  0  0  0  0
   15.5880    0.0210    0.0000 C   0  0  0  0  0  0  0  0  0  0  0  0
   16.8890   -0.7270    0.0000 C   0  0  0  0  0  0  0  0  0  0  0  0
   18.1870    0.0250    0.0000 C   0  0  0  0  0  0  0  0  0  0  0  0
   19.4870   -0.7230    0.0000 C   0  0  0  0  0  0  0  0  0  0  0  0
   18.1840    1.5250    0.0000 C   0  0  0  0  0  0  0  0  0  0  0  0
   14.2920   -2.2300    0.0000 C   0  0  0  0  0  0  0  0  0  0  0  0
   15.5930   -2.9790    0.0000 O   0  0  0  0  0  0  0  0  0  0  0  0
   12.9940   -2.9820    0.0000 C   0  0  0  0  0  0  0  0  0  0  0  0
   11.6940   -2.2340    0.0000 C   0  0  0  0  0  0  0  0  0  0  0  0
    6.4960   -0.7410    0.0000 C   0  0  0  0  0  0  0  0  0  0  0  0
    6.4980   -2.2410    0.0000 O   0  0  0  0  0  0  0  0  0  0  0  0
    3.8940    2.2550    0.0000 C   0  0  0  0  0  0  0  0  0  0  0  0
    3.8920    3.7550    0.0000 C   0  0  0  0  0  0  0  0  0  0  0  0
   -1.3020    2.2480    0.0000 C   0  0  2  0  0  0  0  0  0  0  0  0
   -1.3040    3.7480    0.0000 O   0  0  0  0  0  0  0  0  0  0  0  0
   -2.6000    1.4960    0.0000 C   0  0  2  0  0  0  0  0  0  0  0  0
   -3.9000    2.2450    0.0000 O   0  0  0  0  0  0  0  0  0  0  0  0
   -3.9020    3.7450    0.0000 C   0  0  0  0  0  0  0  0  0  0  0  0
   -2.6040    4.4960    0.0000 O   0  0  0  0  0  0  0  0  0  0  0  0
   -5.2020    4.4930    0.0000 N   0  0  0  0  0  0  0  0  0  0  0  0
   -2.5980   -0.0040    0.0000 C   0  0  1  0  0  0  0  0  0  0  0  0
   -3.8960   -0.7550    0.0000 O   0  0  0  0  0  0  0  0  0  0  0  0
   -5.1960   -0.0070    0.0000 C   0  0  0  0  0  0  0  0  0  0  0  0
   -1.2980   -0.7520    0.0000 C   0  0  0  0  0  0  0  0  0  0  0  0
   -0.5460   -2.0500    0.0000 C   0  0  0  0  0  0  0  0  0  0  0  0
   -2.0460   -2.0520    0.0000 C   0  0  0  0  0  0  0  0  0  0  0  0
  1  2  1  0  0  0  0
  1 42  1  0  0  0  0
  2  3  1  6  0  0  0
  2 32  1  0  0  0  0
  3  4  1  0  0  0  0
  4  5  2  0  0  0  0
  4 30  1  0  0  0  0
  5  6  1  0  0  0  0
  6  7  2  0  0  0  0
  7  8  1  0  0  0  0
  7 28  1  0  0  0  0
  8  9  1  0  0  0  0
  8 30  2  0  0  0  0
  9 10  1  0  0  0  0
 10 11  2  0  0  0  0
 10 12  1  0  0  0  0
 12 13  1  0  0  0  0
 12 28  2  0  0  0  0
 13 14  1  0  0  0  0
 14 15  2  0  0  0  0
 14 16  1  0  0  0  0
 16 17  1  0  0  0  0
 16 27  2  0  0  0  0
 17 18  2  0  0  0  0
 18 19  1  0  0  0  0
 18 24  1  0  0  0  0
 19 20  1  0  0  0  0
 20 21  2  3  0  0  0
 21 22  1  0  0  0  0
 21 23  1  0  0  0  0
 24 25  1  0  0  0  0
 24 26  2  0  0  0  0
 26 27  1  0  0  0  0
 28 29  1  0  0  0  0
 30 31  1  0  0  0  0
 32 33  1  1  0  0  0
 32 34  1  0  0  0  0
 34 35  1  1  0  0  0
 34 39  1  0  0  0  0
 35 36  1  0  0  0  0
 36 37  2  0  0  0  0
 36 38  1  0  0  0  0
 39 40  1  6  0  0  0
 39 42  1  0  0  0  0
 40 41  1  0  0  0  0
 42 43  1  0  0  0  0
 42 44  1  0  0  0  0
M  END
>  <Index>
785

>  <ID>
HT1529

>  <class>
0

>  <apol>
89.586548

>  <ast_fraglike>
0

>  <ast_fraglike_ext>
0

>  <ast_violation>
4

>  <ast_violation_ext>
6

>  <a_acc>
9

>  <a_acid>
0

>  <a_aro>
12

>  <a_base>
0

>  <a_count>
80

>  <a_don>
5

>  <a_donacc>
14

>  <a_heavy>
44

>  <a_hyd>
27

>  <a_IC>
126.00311

>  <a_ICM>
1.5750389

>  <a_nB>
0

>  <a_nBr>
0

>  <a_nC>
31

>  <a_nCl>
0

>  <a_nF>
0

>  <a_nH>
36

>  <a_nI>
0

>  <a_nN>
2

>  <a_nO>
11

>  <a_nP>
0

>  <a_nS>
0

>  <balabanJ>
1.3684448

>  <BCUT_PEOE_0>
-2.7530203

>  <BCUT_PEOE_1>
-0.48041314

>  <BCUT_PEOE_2>
0.54690945

>  <BCUT_PEOE_3>
2.8158622

>  <BCUT_SLOGP_0>
-2.910984

>  <BCUT_SLOGP_1>
-0.45530456

>  <BCUT_SLOGP_2>
0.56292319

>  <BCUT_SLOGP_3>
2.677614

>  <BCUT_SMR_0>
-2.5470252

>  <BCUT_SMR_1>
-0.33090588

>  <BCUT_SMR_2>
0.67012918

>  <BCUT_SMR_3>
3.0060935

>  <bpol>
51.809452

>  <b_1rotN>
8

>  <b_1rotR>
0.17021276

>  <b_ar>
12

>  <b_count>
83

>  <b_double>
5

>  <b_heavy>
47

>  <b_max1len>
4

>  <b_rotN>
10

>  <b_rotR>
0.21276596

>  <b_single>
66

>  <b_triple>
0

>  <chi0>
32.507343

>  <chi0v>
25.165586

>  <chi0v_C>
19.48061

>  <chi0_C>
21.264702

>  <chi1>
20.637974

>  <chi1v>
13.716007

>  <chi1v_C>
9.2378693

>  <chi1_C>
11.453379

>  <chiral>
4

>  <chiral_u>
0

>  <density>
0.78364617

>  <diameter>
21

>  <FCharge>
0

>  <GCUT_PEOE_0>
-0.8012675

>  <GCUT_PEOE_1>
-0.43657318

>  <GCUT_PEOE_2>
0.058615651

>  <GCUT_PEOE_3>
2.9139409

>  <GCUT_SLOGP_0>
-1.3703674

>  <GCUT_SLOGP_1>
-0.34287742

>  <GCUT_SLOGP_2>
0.10185771

>  <GCUT_SLOGP_3>
2.9198778

>  <GCUT_SMR_0>
-0.52258986

>  <GCUT_SMR_1>
-0.20932196

>  <GCUT_SMR_2>
0.14542855

>  <GCUT_SMR_3>
3.1446207

>  <Kier1>
36.829334

>  <Kier2>
15.48

>  <Kier3>
8.5448961

>  <KierA1>
28.995363

>  <KierA2>
12.1157

>  <KierA3>
6.6605206

>  <KierFlex>
7.9840713

>  <lip_acc>
13

>  <lip_don>
6

>  <lip_druglike>
0

>  <lip_violation>
3

>  <logP(o/w)>
3.1837399

>  <logS>
-7.2410698

>  <mr>
15.619552

>  <mutagenic>
0

>  <nmol>
1

>  <opr_brigid>
24

>  <opr_leadlike>
0

>  <opr_nring>
4

>  <opr_nrot>
10

>  <opr_violation>
3

>  <PC+>
0

>  <PC->
0

>  <PEOE_PC+>
4.681293

>  <PEOE_PC->
-4.681293

>  <PEOE_RPC+>
0.076584309

>  <PEOE_RPC->
0.082041956

>  <PEOE_VSA+0>
104.13484

>  <PEOE_VSA+1>
72.367058

>  <PEOE_VSA+2>
38.331375

>  <PEOE_VSA+3>
37.011948

>  <PEOE_VSA+4>
30.972517

>  <PEOE_VSA+5>
12.949531

>  <PEOE_VSA+6>
33.908009

>  <PEOE_VSA-0>
165.92276

>  <PEOE_VSA-1>
14.463444

>  <PEOE_VSA-2>
0

>  <PEOE_VSA-3>
0

>  <PEOE_VSA-4>
13.566921

>  <PEOE_VSA-5>
32.141354

>  <PEOE_VSA-6>
37.601898

>  <PEOE_VSA_FHYD>
0.72843289

>  <PEOE_VSA_FNEG>
0.44440338

>  <PEOE_VSA_FPNEG>
0.14040133

>  <PEOE_VSA_FPOL>
0.27156714

>  <PEOE_VSA_FPOS>
0.55559659

>  <PEOE_VSA_FPPOS>
0.13116579

>  <PEOE_VSA_HYD>
432.23141

>  <PEOE_VSA_NEG>
263.69638

>  <PEOE_VSA_PNEG>
83.310173

>  <PEOE_VSA_POL>
161.14023

>  <PEOE_VSA_POS>
329.67529

>  <PEOE_VSA_PPOS>
77.830055

>  <petitjean>
0.47619048

>  <petitjeanSC>
0.90909094

>  <Q_PC+>
0

>  <Q_PC->
0

>  <Q_RPC+>
0

>  <Q_RPC->
0

>  <Q_VSA_FHYD>
1

>  <Q_VSA_FNEG>
0

>  <Q_VSA_FPNEG>
0

>  <Q_VSA_FPOL>
0

>  <Q_VSA_FPOS>
1

>  <Q_VSA_FPPOS>
0

>  <Q_VSA_HYD>
593.37164

>  <Q_VSA_NEG>
0

>  <Q_VSA_PNEG>
0

>  <Q_VSA_POL>
0

>  <Q_VSA_POS>
593.37164

>  <Q_VSA_PPOS>
0

>  <radius>
11

>  <reactive>
0

>  <rings>
4

>  <RPC+>
0

>  <RPC->
0

>  <rsynth>
1

>  <SlogP>
3.1383901

>  <SlogP_VSA0>
123.67817

>  <SlogP_VSA1>
20.320885

>  <SlogP_VSA2>
84.794327

>  <SlogP_VSA3>
25.385227

>  <SlogP_VSA4>
36.604515

>  <SlogP_VSA5>
60.194595

>  <SlogP_VSA6>
0

>  <SlogP_VSA7>
111.10253

>  <SlogP_VSA8>
0

>  <SlogP_VSA9>
206.22258

>  <SMR>
15.5911

>  <SMR_VSA0>
104.58631

>  <SMR_VSA1>
72.770226

>  <SMR_VSA2>
43.395977

>  <SMR_VSA3>
62.347355

>  <SMR_VSA4>
38.140617

>  <SMR_VSA5>
124.72751

>  <SMR_VSA6>
20.320885

>  <SMR_VSA7>
202.01395

>  <TPSA>
196.10001

>  <VAdjEq>
0.28022119

>  <VAdjMa>
6.5545888

>  <VDistEq>
4.1745467

>  <VDistMa>
10.605315

>  <vdw_area>
593.37164

>  <vdw_vol>
781.77118

>  <vsa_acc>
48.212032

>  <vsa_acid>
0

>  <vsa_base>
0

>  <vsa_don>
23.425066

>  <vsa_hyd>
370.31201

>  <vsa_other>
66.573555

>  <vsa_pol>
112.33786

>  <Weight>
612.63196

>  <weinerPath>
7671

>  <weinerPol>
80

>  <zagreb>
234

$$$$