O(C(=O)C=1C(C(=C(OC)/O)C(=NC=1C)C)c1cc([N+](=O)[O-])ccc1)CCN(Cc1ccccc1)C
  MOE2013           2D

 35 37  0  0  1  0  0  0  0  0999 V2000
    0.0000    0.0000    0.0000 O   0  0  0  0  0  0  0  0  0  0  0  0
   -0.7540    1.2970    0.0000 C   0  0  0  0  0  0  0  0  0  0  0  0
   -0.0080    2.5980    0.0000 O   0  0  0  0  0  0  0  0  0  0  0  0
   -2.2540    1.2920    0.0000 C   0  0  0  0  0  0  0  0  0  0  0  0
   -3.0080    2.5890    0.0000 C   0  0  3  0  0  0  0  0  0  0  0  0
   -4.5080    2.5850    0.0000 C   0  0  0  0  0  0  0  0  0  0  0  0
   -5.2620    3.8810    0.0000 C   0  0  0  0  0  0  0  0  0  0  0  0
   -6.7620    3.8770    0.0000 O   0  0  0  0  0  0  0  0  0  0  0  0
   -7.5150    5.1740    0.0000 C   0  0  0  0  0  0  0  0  0  0  0  0
   -4.5150    5.1830    0.0000 O   0  0  0  0  0  0  0  0  0  0  0  0
   -5.2540    1.2830    0.0000 C   0  0  0  0  0  0  0  0  0  0  0  0
   -4.5000   -0.0130    0.0000 N   0  0  0  0  0  0  0  0  0  0  0  0
   -3.0000   -0.0090    0.0000 C   0  0  0  0  0  0  0  0  0  0  0  0
   -2.2460   -1.3060    0.0000 C   0  0  0  0  0  0  0  0  0  0  0  0
   -6.7540    1.2790    0.0000 C   0  0  0  0  0  0  0  0  0  0  0  0
   -2.2620    3.8900    0.0000 C   0  0  0  0  0  0  0  0  0  0  0  0
   -3.0150    5.1870    0.0000 C   0  0  0  0  0  0  0  0  0  0  0  0
   -2.2690    6.4880    0.0000 C   0  0  0  0  0  0  0  0  0  0  0  0
   -3.0230    7.7850    0.0000 N   0  3  0  0  0  0  0  0  0  0  0  0
   -2.2770    9.0870    0.0000 O   0  0  0  0  0  0  0  0  0  0  0  0
   -4.5230    7.7810    0.0000 O   0  5  0  0  0  0  0  0  0  0  0  0
   -0.7690    6.4930    0.0000 C   0  0  0  0  0  0  0  0  0  0  0  0
   -0.0150    5.1960    0.0000 C   0  0  0  0  0  0  0  0  0  0  0  0
   -0.7620    3.8950    0.0000 C   0  0  0  0  0  0  0  0  0  0  0  0
    1.5000    0.0040    0.0000 C   0  0  0  0  0  0  0  0  0  0  0  0
    2.2540   -1.2920    0.0000 C   0  0  0  0  0  0  0  0  0  0  0  0
    3.7540   -1.2880    0.0000 N   0  0  3  0  0  0  0  0  0  0  0  0
    4.5000    0.0130    0.0000 C   0  0  0  0  0  0  0  0  0  0  0  0
    6.0000    0.0180    0.0000 C   0  0  0  0  0  0  0  0  0  0  0  0
    6.7460    1.3190    0.0000 C   0  0  0  0  0  0  0  0  0  0  0  0
    8.2460    1.3240    0.0000 C   0  0  0  0  0  0  0  0  0  0  0  0
    9.0000    0.0270    0.0000 C   0  0  0  0  0  0  0  0  0  0  0  0
    8.2540   -1.2750    0.0000 C   0  0  0  0  0  0  0  0  0  0  0  0
    6.7540   -1.2790    0.0000 C   0  0  0  0  0  0  0  0  0  0  0  0
    4.5080   -2.5850    0.0000 C   0  0  0  0  0  0  0  0  0  0  0  0
  1  2  1  0  0  0  0
  1 25  1  0  0  0  0
  2  3  2  0  0  0  0
  2  4  1  0  0  0  0
  4  5  1  0  0  0  0
  4 13  2  0  0  0  0
  5  6  1  0  0  0  0
  5 16  1  0  0  0  0
  6  7  2  3  0  0  0
  6 11  1  0  0  0  0
  7  8  1  0  0  0  0
  7 10  1  0  0  0  0
  8  9  1  0  0  0  0
 11 12  2  0  0  0  0
 11 15  1  0  0  0  0
 12 13  1  0  0  0  0
 13 14  1  0  0  0  0
 16 17  1  0  0  0  0
 16 24  2  0  0  0  0
 17 18  2  0  0  0  0
 18 19  1  0  0  0  0
 18 22  1  0  0  0  0
 19 20  2  0  0  0  0
 19 21  1  0  0  0  0
 22 23  2  0  0  0  0
 23 24  1  0  0  0  0
 25 26  1  0  0  0  0
 26 27  1  0  0  0  0
 27 28  1  0  0  0  0
 27 35  1  0  0  0  0
 28 29  1  0  0  0  0
 29 30  1  0  0  0  0
 29 34  2  0  0  0  0
 30 31  2  0  0  0  0
 31 32  1  0  0  0  0
 32 33  2  0  0  0  0
 33 34  1  0  0  0  0
M  CHG  1  19   1
M  CHG  1  21  -1
M  END
>  <Index>
761

>  <ID>
HT1483

>  <class>
0

>  <apol>
73.209

>  <ast_fraglike>
0

>  <ast_fraglike_ext>
0

>  <ast_violation>
3

>  <ast_violation_ext>
4

>  <a_acc>
5

>  <a_acid>
0

>  <a_aro>
12

>  <a_base>
0

>  <a_count>
64

>  <a_don>
1

>  <a_donacc>
6

>  <a_heavy>
35

>  <a_hyd>
24

>  <a_IC>
100.64246

>  <a_ICM>
1.5725384

>  <a_nB>
0

>  <a_nBr>
0

>  <a_nC>
26

>  <a_nCl>
0

>  <a_nF>
0

>  <a_nH>
29

>  <a_nI>
0

>  <a_nN>
3

>  <a_nO>
6

>  <a_nP>
0

>  <a_nS>
0

>  <balabanJ>
1.6713057

>  <BCUT_PEOE_0>
-2.6081467

>  <BCUT_PEOE_1>
-0.51878428

>  <BCUT_PEOE_2>
0.58185893

>  <BCUT_PEOE_3>
2.5433481

>  <BCUT_SLOGP_0>
-2.6709876

>  <BCUT_SLOGP_1>
-0.43469352

>  <BCUT_SLOGP_2>
0.67972994

>  <BCUT_SLOGP_3>
2.5834534

>  <BCUT_SMR_0>
-2.3321342

>  <BCUT_SMR_1>
-0.39104113

>  <BCUT_SMR_2>
0.71581978

>  <BCUT_SMR_3>
2.8136086

>  <bpol>
41.049004

>  <b_1rotN>
9

>  <b_1rotR>
0.24324325

>  <b_ar>
12

>  <b_count>
66

>  <b_double>
5

>  <b_heavy>
37

>  <b_max1len>
5

>  <b_rotN>
10

>  <b_rotR>
0.27027026

>  <b_single>
49

>  <b_triple>
0

>  <chi0>
25.534805

>  <chi0v>
20.224918

>  <chi0v_C>
16.394823

>  <chi0_C>
18.258783

>  <chi1>
16.722452

>  <chi1v>
11.10017

>  <chi1v_C>
7.4516296

>  <chi1_C>
9.8457718

>  <chiral>
1

>  <chiral_u>
1

>  <density>
0.74643213

>  <diameter>
16

>  <FCharge>
0

>  <GCUT_PEOE_0>
-0.85054159

>  <GCUT_PEOE_1>
-0.39091694

>  <GCUT_PEOE_2>
0.058853995

>  <GCUT_PEOE_3>
2.7971966

>  <GCUT_SLOGP_0>
-0.9366256

>  <GCUT_SLOGP_1>
-0.26398081

>  <GCUT_SLOGP_2>
0.13839549

>  <GCUT_SLOGP_3>
2.8582928

>  <GCUT_SMR_0>
-0.51682323

>  <GCUT_SMR_1>
-0.18016323

>  <GCUT_SMR_2>
0.1767

>  <GCUT_SMR_3>
3.0581834

>  <Kier1>
29.554419

>  <Kier2>
14.235294

>  <Kier3>
7.9926538

>  <KierA1>
22.420115

>  <KierA2>
10.705435

>  <KierA3>
5.9729695

>  <KierFlex>
6.8576312

>  <lip_acc>
9

>  <lip_don>
1

>  <lip_druglike>
1

>  <lip_violation>
0

>  <logP(o/w)>
4.1939998

>  <logS>
-5.5956101

>  <mr>
13.165998

>  <mutagenic>
1

>  <nmol>
1

>  <opr_brigid>
19

>  <opr_leadlike>
0

>  <opr_nring>
3

>  <opr_nrot>
9

>  <opr_violation>
3

>  <PC+>
0

>  <PC->
0

>  <PEOE_PC+>
2.8392203

>  <PEOE_PC->
-2.8392203

>  <PEOE_RPC+>
0.10300907

>  <PEOE_RPC->
0.11981457

>  <PEOE_VSA+0>
151.21516

>  <PEOE_VSA+1>
80.903275

>  <PEOE_VSA+2>
0

>  <PEOE_VSA+3>
14.708499

>  <PEOE_VSA+4>
10.324173

>  <PEOE_VSA+5>
21.408051

>  <PEOE_VSA+6>
0

>  <PEOE_VSA-0>
65.151123

>  <PEOE_VSA-1>
85.784325

>  <PEOE_VSA-2>
0

>  <PEOE_VSA-3>
0

>  <PEOE_VSA-4>
0

>  <PEOE_VSA-5>
53.180546

>  <PEOE_VSA-6>
12.775052

>  <PEOE_VSA_FHYD>
0.80283022

>  <PEOE_VSA_FNEG>
0.4377656

>  <PEOE_VSA_FPNEG>
0.13312256

>  <PEOE_VSA_FPOL>
0.19716981

>  <PEOE_VSA_FPOS>
0.5622344

>  <PEOE_VSA_FPPOS>
0.064047247

>  <PEOE_VSA_HYD>
397.76239

>  <PEOE_VSA_NEG>
216.89105

>  <PEOE_VSA_PNEG>
65.955597

>  <PEOE_VSA_POL>
97.68782

>  <PEOE_VSA_POS>
278.55914

>  <PEOE_VSA_PPOS>
31.732224

>  <petitjean>
0.5

>  <petitjeanSC>
1

>  <Q_PC+>
0

>  <Q_PC->
0

>  <Q_RPC+>
0

>  <Q_RPC->
0

>  <Q_VSA_FHYD>
1

>  <Q_VSA_FNEG>
0

>  <Q_VSA_FPNEG>
0

>  <Q_VSA_FPOL>
0

>  <Q_VSA_FPOS>
1

>  <Q_VSA_FPPOS>
0

>  <Q_VSA_HYD>
495.4502

>  <Q_VSA_NEG>
0

>  <Q_VSA_PNEG>
0

>  <Q_VSA_POL>
0

>  <Q_VSA_POS>
495.4502

>  <Q_VSA_PPOS>
0

>  <radius>
8

>  <reactive>
1

>  <rings>
3

>  <RPC+>
0

>  <RPC->
0

>  <rsynth>
1

>  <SlogP>
4.7845001

>  <SlogP_VSA0>
0

>  <SlogP_VSA1>
20.712141

>  <SlogP_VSA2>
45.861992

>  <SlogP_VSA3>
115.68607

>  <SlogP_VSA4>
6.37115

>  <SlogP_VSA5>
101.49577

>  <SlogP_VSA6>
4.4107962

>  <SlogP_VSA7>
158.78867

>  <SlogP_VSA8>
0

>  <SlogP_VSA9>
87.848358

>  <SMR>
13.22502

>  <SMR_VSA0>
52.947609

>  <SMR_VSA1>
19.909843

>  <SMR_VSA2>
76.320236

>  <SMR_VSA3>
27.211124

>  <SMR_VSA4>
2.7567475

>  <SMR_VSA5>
177.22824

>  <SMR_VSA6>
49.86805

>  <SMR_VSA7>
134.93309

>  <TPSA>
117.18

>  <VAdjEq>
0.32906306

>  <VAdjMa>
6.2094536

>  <VDistEq>
3.7802579

>  <VDistMa>
9.9781265

>  <vdw_area>
495.4502

>  <vdw_vol>
642.43347

>  <vsa_acc>
21.753254

>  <vsa_acid>
0

>  <vsa_base>
0

>  <vsa_don>
0

>  <vsa_hyd>
361.77856

>  <vsa_other>
72.551353

>  <vsa_pol>
35.320175

>  <Weight>
479.53299

>  <weinerPath>
3884

>  <weinerPol>
57

>  <zagreb>
176

$$$$