O=C1CCC2=C3[C@H]([C@@H]4CC[C@@](O)(C#CC)[C@@]4(C[C@@H]3c3ccc(N(C)C)cc3)C)CCC2=C1
  MOE2013           2D

 32 36  0  0  1  0  0  0  0  0999 V2000
    0.0000    0.0000    0.0000 O   0  0  0  0  0  0  0  0  0  0  0  0
    1.5000    0.0020    0.0000 C   0  0  0  0  0  0  0  0  0  0  0  0
    2.2480    1.3020    0.0000 C   0  0  0  0  0  0  0  0  0  0  0  0
    3.7480    1.3040    0.0000 C   0  0  0  0  0  0  0  0  0  0  0  0
    4.5000    0.0060    0.0000 C   0  0  0  0  0  0  0  0  0  0  0  0
    6.0000    0.0090    0.0000 C   0  0  0  0  0  0  0  0  0  0  0  0
    6.7520   -1.2890    0.0000 C   0  0  2  0  0  0  0  0  0  0  0  0
    8.2520   -1.2870    0.0000 C   0  0  2  0  0  0  0  0  0  0  0  0
    9.2570   -2.4000    0.0000 C   0  0  0  0  0  0  0  0  0  0  0  0
   10.6270   -1.7880    0.0000 C   0  0  0  0  0  0  0  0  0  0  0  0
   10.4680   -0.2970    0.0000 C   0  0  1  0  0  0  0  0  0  0  0  0
   10.8540    1.1530    0.0000 O   0  0  0  0  0  0  0  0  0  0  0  0
   11.9290    0.0430    0.0000 C   0  0  0  0  0  0  0  0  0  0  0  0
   13.3900    0.3820    0.0000 C   0  0  0  0  0  0  0  0  0  0  0  0
   14.8510    0.7220    0.0000 C   0  0  0  0  0  0  0  0  0  0  0  0
    9.0000    0.0130    0.0000 C   0  0  2  0  0  0  0  0  0  0  0  0
    8.2480    1.3110    0.0000 C   0  0  0  0  0  0  0  0  0  0  0  0
    6.7480    1.3090    0.0000 C   0  0  2  0  0  0  0  0  0  0  0  0
    5.9960    2.6070    0.0000 C   0  0  0  0  0  0  0  0  0  0  0  0
    6.7440    3.9070    0.0000 C   0  0  0  0  0  0  0  0  0  0  0  0
    5.9930    5.2050    0.0000 C   0  0  0  0  0  0  0  0  0  0  0  0
    4.4930    5.2030    0.0000 C   0  0  0  0  0  0  0  0  0  0  0  0
    3.7410    6.5010    0.0000 N   0  0  0  0  0  0  0  0  0  0  0  0
    2.2410    6.4980    0.0000 C   0  0  0  0  0  0  0  0  0  0  0  0
    4.4890    7.8010    0.0000 C   0  0  0  0  0  0  0  0  0  0  0  0
    3.7440    3.9020    0.0000 C   0  0  0  0  0  0  0  0  0  0  0  0
    4.4960    2.6050    0.0000 C   0  0  0  0  0  0  0  0  0  0  0  0
    9.8800    1.2280    0.0000 C   0  0  0  0  0  0  0  0  0  0  0  0
    6.0040   -2.5890    0.0000 C   0  0  0  0  0  0  0  0  0  0  0  0
    4.5040   -2.5920    0.0000 C   0  0  0  0  0  0  0  0  0  0  0  0
    3.7520   -1.2940    0.0000 C   0  0  0  0  0  0  0  0  0  0  0  0
    2.2520   -1.2960    0.0000 C   0  0  0  0  0  0  0  0  0  0  0  0
  1  2  2  0  0  0  0
  2  3  1  0  0  0  0
  2 32  1  0  0  0  0
  3  4  1  0  0  0  0
  4  5  1  0  0  0  0
  5  6  2  0  0  0  0
  5 31  1  0  0  0  0
  6  7  1  0  0  0  0
  6 18  1  0  0  0  0
  7  8  1  0  0  0  0
  7 29  1  6  0  0  0
  8  9  1  1  0  0  0
  8 16  1  0  0  0  0
  9 10  1  0  0  0  0
 10 11  1  0  0  0  0
 11 12  1  1  0  0  0
 11 13  1  6  0  0  0
 11 16  1  0  0  0  0
 13 14  3  0  0  0  0
 14 15  1  0  0  0  0
 16 17  1  0  0  0  0
 16 28  1  6  0  0  0
 17 18  1  0  0  0  0
 18 19  1  1  0  0  0
 19 20  1  0  0  0  0
 19 27  2  0  0  0  0
 20 21  2  0  0  0  0
 21 22  1  0  0  0  0
 22 23  1  0  0  0  0
 22 26  2  0  0  0  0
 23 24  1  0  0  0  0
 23 25  1  0  0  0  0
 26 27  1  0  0  0  0
 29 30  1  0  0  0  0
 30 31  1  0  0  0  0
 31 32  2  0  0  0  0
M  END
>  <Index>
710

>  <ID>
HT1398

>  <class>
0

>  <apol>
77.081757

>  <ast_fraglike>
0

>  <ast_fraglike_ext>
0

>  <ast_violation>
2

>  <ast_violation_ext>
2

>  <a_acc>
2

>  <a_acid>
0

>  <a_aro>
6

>  <a_base>
0

>  <a_count>
67

>  <a_don>
1

>  <a_donacc>
3

>  <a_heavy>
32

>  <a_hyd>
28

>  <a_IC>
84.021622

>  <a_ICM>
1.2540541

>  <a_nB>
0

>  <a_nBr>
0

>  <a_nC>
29

>  <a_nCl>
0

>  <a_nF>
0

>  <a_nH>
35

>  <a_nI>
0

>  <a_nN>
1

>  <a_nO>
2

>  <a_nP>
0

>  <a_nS>
0

>  <balabanJ>
1.4614022

>  <BCUT_PEOE_0>
-2.8461833

>  <BCUT_PEOE_1>
-0.506634

>  <BCUT_PEOE_2>
0.42282581

>  <BCUT_PEOE_3>
2.9213312

>  <BCUT_SLOGP_0>
-2.775259

>  <BCUT_SLOGP_1>
-0.44482028

>  <BCUT_SLOGP_2>
0.53308493

>  <BCUT_SLOGP_3>
2.9863906

>  <BCUT_SMR_0>
-2.5892875

>  <BCUT_SMR_1>
-0.29113302

>  <BCUT_SMR_2>
0.65531844

>  <BCUT_SMR_3>
3.1693659

>  <bpol>
41.200245

>  <b_1rotN>
3

>  <b_1rotR>
0.083333336

>  <b_ar>
6

>  <b_count>
71

>  <b_double>
3

>  <b_heavy>
36

>  <b_max1len>
4

>  <b_rotN>
3

>  <b_rotR>
0.083333336

>  <b_single>
61

>  <b_triple>
1

>  <chi0>
22.672998

>  <chi0v>
19.871225

>  <chi0v_C>
18.56855

>  <chi0_C>
20.095648

>  <chi1>
15.270805

>  <chi1v>
12.175028

>  <chi1v_C>
10.629263

>  <chi1_C>
12.705421

>  <chiral>
5

>  <chiral_u>
0

>  <density>
0.67214489

>  <diameter>
12

>  <FCharge>
0

>  <GCUT_PEOE_0>
-0.84314495

>  <GCUT_PEOE_1>
-0.39644355

>  <GCUT_PEOE_2>
-0.019135743

>  <GCUT_PEOE_3>
3.2988427

>  <GCUT_SLOGP_0>
-0.98072624

>  <GCUT_SLOGP_1>
-0.30693892

>  <GCUT_SLOGP_2>
0.071928188

>  <GCUT_SLOGP_3>
3.3955221

>  <GCUT_SMR_0>
-0.5359742

>  <GCUT_SMR_1>
-0.18720013

>  <GCUT_SMR_2>
0.14600058

>  <GCUT_SMR_3>
3.5491502

>  <Kier1>
23.728395

>  <Kier2>
8.8966837

>  <Kier3>
3.881618

>  <KierA1>
19.052362

>  <KierA2>
7.0899425

>  <KierA3>
3.0769618

>  <KierFlex>
4.2212548

>  <lip_acc>
3

>  <lip_don>
1

>  <lip_druglike>
1

>  <lip_violation>
1

>  <logP(o/w)>
4.572

>  <logS>
-6.0530601

>  <mr>
12.81061

>  <mutagenic>
0

>  <nmol>
1

>  <opr_brigid>
27

>  <opr_leadlike>
0

>  <opr_nring>
5

>  <opr_nrot>
3

>  <opr_violation>
2

>  <PC+>
0

>  <PC->
0

>  <PEOE_PC+>
1.8096825

>  <PEOE_PC->
-1.8096825

>  <PEOE_RPC+>
0.11681993

>  <PEOE_RPC->
0.20775965

>  <PEOE_VSA+0>
139.09706

>  <PEOE_VSA+1>
21.326929

>  <PEOE_VSA+2>
0

>  <PEOE_VSA+3>
8.458519

>  <PEOE_VSA+4>
10.324173

>  <PEOE_VSA+5>
0

>  <PEOE_VSA+6>
0

>  <PEOE_VSA-0>
160.82327

>  <PEOE_VSA-1>
61.274521

>  <PEOE_VSA-2>
15.808495

>  <PEOE_VSA-3>
0

>  <PEOE_VSA-4>
0

>  <PEOE_VSA-5>
13.566921

>  <PEOE_VSA-6>
7.7675405

>  <PEOE_VSA_FHYD>
0.9277938

>  <PEOE_VSA_FNEG>
0.59126985

>  <PEOE_VSA_FPNEG>
0.048659109

>  <PEOE_VSA_FPOL>
0.072206229

>  <PEOE_VSA_FPOS>
0.40873015

>  <PEOE_VSA_FPPOS>
0.023547117

>  <PEOE_VSA_HYD>
406.78879

>  <PEOE_VSA_NEG>
259.24075

>  <PEOE_VSA_PNEG>
21.334461

>  <PEOE_VSA_POL>
31.658634

>  <PEOE_VSA_POS>
179.20668

>  <PEOE_VSA_PPOS>
10.324173

>  <petitjean>
0.5

>  <petitjeanSC>
1

>  <Q_PC+>
0

>  <Q_PC->
0

>  <Q_RPC+>
0

>  <Q_RPC->
0

>  <Q_VSA_FHYD>
1

>  <Q_VSA_FNEG>
0

>  <Q_VSA_FPNEG>
0

>  <Q_VSA_FPOL>
0

>  <Q_VSA_FPOS>
1

>  <Q_VSA_FPPOS>
0

>  <Q_VSA_HYD>
438.44742

>  <Q_VSA_NEG>
0

>  <Q_VSA_PNEG>
0

>  <Q_VSA_POL>
0

>  <Q_VSA_POS>
438.44742

>  <Q_VSA_PPOS>
0

>  <radius>
6

>  <reactive>
1

>  <rings>
5

>  <RPC+>
0

>  <RPC->
0

>  <rsynth>
0.28125

>  <SlogP>
5.406508

>  <SlogP_VSA0>
28.509541

>  <SlogP_VSA1>
5.6876111

>  <SlogP_VSA2>
23.862217

>  <SlogP_VSA3>
34.061146

>  <SlogP_VSA4>
12.007167

>  <SlogP_VSA5>
75.351097

>  <SlogP_VSA6>
4.4107962

>  <SlogP_VSA7>
88.215919

>  <SlogP_VSA8>
132.07884

>  <SlogP_VSA9>
69.408775

>  <SMR>
12.94318

>  <SMR_VSA0>
23.862217

>  <SMR_VSA1>
25.385227

>  <SMR_VSA2>
11.945906

>  <SMR_VSA3>
51.214245

>  <SMR_VSA4>
2.7567475

>  <SMR_VSA5>
220.29475

>  <SMR_VSA6>
5.6876111

>  <SMR_VSA7>
132.44641

>  <TPSA>
40.540001

>  <VAdjEq>
0.36708876

>  <VAdjMa>
6.1699252

>  <VDistEq>
3.3770947

>  <VDistMa>
9.7497416

>  <vdw_area>
438.44742

>  <vdw_vol>
639.15381

>  <vsa_acc>
13.566921

>  <vsa_acid>
0

>  <vsa_base>
0

>  <vsa_don>
0

>  <vsa_hyd>
370.09409

>  <vsa_other>
8.458519

>  <vsa_pol>
27.133842

>  <Weight>
429.604

>  <weinerPath>
2590

>  <weinerPol>
65

>  <zagreb>
184

$$$$