O1[C@H](CN)[C@@H](O)[C@H](O)[C@@H](N)[C@H]1O[C@H]1[C@@H](O)[C@@H](O[C@@H]1CO)O[C@H]1[C@H](O[C@H]2O[C@H](CN)[C@@H](O)[C@H](O)[C@H]2N)[C@@H](N)C[C@@H](N)[C@@H]1O
  MOE2013           2D

 42 45  0  0  1  0  0  0  0  0999 V2000
    0.0000    0.0000    0.0000 O   0  0  0  0  0  0  0  0  0  0  0  0
   -1.3030    0.7430    0.0000 C   0  0  2  0  0  0  0  0  0  0  0  0
   -1.3110    2.2430    0.0000 C   0  0  0  0  0  0  0  0  0  0  0  0
   -2.6140    2.9860    0.0000 N   0  0  0  0  0  0  0  0  0  0  0  0
   -2.5980   -0.0140    0.0000 C   0  0  1  0  0  0  0  0  0  0  0  0
   -3.9010    0.7300    0.0000 O   0  0  0  0  0  0  0  0  0  0  0  0
   -2.5900   -1.5140    0.0000 C   0  0  2  0  0  0  0  0  0  0  0  0
   -3.8850   -2.2700    0.0000 O   0  0  0  0  0  0  0  0  0  0  0  0
   -1.2870   -2.2570    0.0000 C   0  0  1  0  0  0  0  0  0  0  0  0
   -1.2790   -3.7570    0.0000 N   0  0  0  0  0  0  0  0  0  0  0  0
    0.0080   -1.5000    0.0000 C   0  0  1  0  0  0  0  0  0  0  0  0
    1.3110   -2.2430    0.0000 O   0  0  0  0  0  0  0  0  0  0  0  0
    2.6060   -1.4860    0.0000 C   0  0  1  0  0  0  0  0  0  0  0  0
    3.9790   -2.0890    0.0000 C   0  0  1  0  0  0  0  0  0  0  0  0
    4.2990   -3.5550    0.0000 O   0  0  0  0  0  0  0  0  0  0  0  0
    4.9770   -0.9690    0.0000 C   0  0  1  0  0  0  0  0  0  0  0  0
    4.2200    0.3260    0.0000 O   0  0  0  0  0  0  0  0  0  0  0  0
    2.7550    0.0060    0.0000 C   0  0  2  0  0  0  0  0  0  0  0  0
    1.6350    1.0040    0.0000 C   0  0  0  0  0  0  0  0  0  0  0  0
    1.9390    2.4730    0.0000 O   0  0  0  0  0  0  0  0  0  0  0  0
    6.4700   -1.1190    0.0000 O   0  0  0  0  0  0  0  0  0  0  0  0
    7.3450    0.1000    0.0000 C   0  0  1  0  0  0  0  0  0  0  0  0
    8.8380   -0.0490    0.0000 C   0  0  2  0  0  0  0  0  0  0  0  0
    9.4550   -1.4170    0.0000 O   0  0  0  0  0  0  0  0  0  0  0  0
   10.9480   -1.5660    0.0000 C   0  0  1  0  0  0  0  0  0  0  0  0
   11.8230   -0.3470    0.0000 O   0  0  0  0  0  0  0  0  0  0  0  0
   13.3150   -0.4970    0.0000 C   0  0  2  0  0  0  0  0  0  0  0  0
   14.1910    0.7220    0.0000 C   0  0  0  0  0  0  0  0  0  0  0  0
   15.6830    0.5730    0.0000 N   0  0  0  0  0  0  0  0  0  0  0  0
   13.9330   -1.8640    0.0000 C   0  0  1  0  0  0  0  0  0  0  0  0
   15.4250   -2.0130    0.0000 O   0  0  0  0  0  0  0  0  0  0  0  0
   13.0570   -3.0820    0.0000 C   0  0  2  0  0  0  0  0  0  0  0  0
   13.6750   -4.4490    0.0000 O   0  0  0  0  0  0  0  0  0  0  0  0
   11.5650   -2.9330    0.0000 C   0  0  1  0  0  0  0  0  0  0  0  0
   10.6890   -4.1510    0.0000 N   0  0  0  0  0  0  0  0  0  0  0  0
    9.7130    1.1690    0.0000 C   0  0  1  0  0  0  0  0  0  0  0  0
   11.2060    1.0200    0.0000 N   0  0  0  0  0  0  0  0  0  0  0  0
    9.0960    2.5360    0.0000 C   0  0  0  0  0  0  0  0  0  0  0  0
    7.6030    2.6850    0.0000 C   0  0  1  0  0  0  0  0  0  0  0  0
    6.9860    4.0520    0.0000 N   0  0  0  0  0  0  0  0  0  0  0  0
    6.7280    1.4670    0.0000 C   0  0  2  0  0  0  0  0  0  0  0  0
    5.2350    1.6160    0.0000 O   0  0  0  0  0  0  0  0  0  0  0  0
  1  2  1  0  0  0  0
  1 11  1  0  0  0  0
  2  3  1  1  0  0  0
  2  5  1  0  0  0  0
  3  4  1  0  0  0  0
  5  6  1  6  0  0  0
  5  7  1  0  0  0  0
  7  8  1  1  0  0  0
  7  9  1  0  0  0  0
  9 10  1  6  0  0  0
  9 11  1  0  0  0  0
 11 12  1  6  0  0  0
 13 12  1  6  0  0  0
 13 14  1  0  0  0  0
 13 18  1  0  0  0  0
 14 15  1  6  0  0  0
 14 16  1  0  0  0  0
 16 17  1  0  0  0  0
 16 21  1  1  0  0  0
 17 18  1  0  0  0  0
 18 19  1  1  0  0  0
 19 20  1  0  0  0  0
 22 21  1  6  0  0  0
 22 23  1  0  0  0  0
 22 41  1  0  0  0  0
 23 24  1  1  0  0  0
 23 36  1  0  0  0  0
 25 24  1  1  0  0  0
 25 26  1  0  0  0  0
 25 34  1  0  0  0  0
 26 27  1  0  0  0  0
 27 28  1  6  0  0  0
 27 30  1  0  0  0  0
 28 29  1  0  0  0  0
 30 31  1  1  0  0  0
 30 32  1  0  0  0  0
 32 33  1  6  0  0  0
 32 34  1  0  0  0  0
 34 35  1  1  0  0  0
 36 37  1  6  0  0  0
 36 38  1  0  0  0  0
 38 39  1  0  0  0  0
 39 40  1  6  0  0  0
 39 41  1  0  0  0  0
 41 42  1  1  0  0  0
M  END
>  <Index>
757

>  <ID>
HT1474

>  <class>
0

>  <apol>
88.178474

>  <ast_fraglike>
0

>  <ast_fraglike_ext>
0

>  <ast_violation>
3

>  <ast_violation_ext>
5

>  <a_acc>
19

>  <a_acid>
0

>  <a_aro>
0

>  <a_base>
0

>  <a_count>
88

>  <a_don>
13

>  <a_donacc>
32

>  <a_heavy>
42

>  <a_hyd>
20

>  <a_IC>
146.68872

>  <a_ICM>
1.6669172

>  <a_nB>
0

>  <a_nBr>
0

>  <a_nC>
23

>  <a_nCl>
0

>  <a_nF>
0

>  <a_nH>
46

>  <a_nI>
0

>  <a_nN>
6

>  <a_nO>
13

>  <a_nP>
0

>  <a_nS>
0

>  <balabanJ>
1.4955996

>  <BCUT_PEOE_0>
-2.8115768

>  <BCUT_PEOE_1>
-0.5856005

>  <BCUT_PEOE_2>
0.6503886

>  <BCUT_PEOE_3>
2.8547478

>  <BCUT_SLOGP_0>
-3.0199111

>  <BCUT_SLOGP_1>
-0.62175214

>  <BCUT_SLOGP_2>
0.57742423

>  <BCUT_SLOGP_3>
2.68081

>  <BCUT_SMR_0>
-2.5864878

>  <BCUT_SMR_1>
-0.46711224

>  <BCUT_SMR_2>
0.74645722

>  <BCUT_SMR_3>
3.0607085

>  <bpol>
57.823521

>  <b_1rotN>
9

>  <b_1rotR>
0.2

>  <b_ar>
0

>  <b_count>
91

>  <b_double>
0

>  <b_heavy>
45

>  <b_max1len>
4

>  <b_rotN>
9

>  <b_rotR>
0.2

>  <b_single>
91

>  <b_triple>
0

>  <chi0>
31.040724

>  <chi0v>
22.842169

>  <chi0v_C>
13.798082

>  <chi0_C>
13.798082

>  <chi1>
19.835045

>  <chi1v>
13.884919

>  <chi1v_C>
7.0412416

>  <chi1_C>
7.0412416

>  <chiral>
19

>  <chiral_u>
0

>  <density>
0.8398754

>  <diameter>
17

>  <FCharge>
0

>  <GCUT_PEOE_0>
-0.83233118

>  <GCUT_PEOE_1>
-0.42879635

>  <GCUT_PEOE_2>
0.089924119

>  <GCUT_PEOE_3>
3.2085488

>  <GCUT_SLOGP_0>
-1.3699715

>  <GCUT_SLOGP_1>
-0.50119156

>  <GCUT_SLOGP_2>
0.054200001

>  <GCUT_SLOGP_3>
3.0721703

>  <GCUT_SMR_0>
-0.52839255

>  <GCUT_SMR_1>
-0.24866581

>  <GCUT_SMR_2>
0.16432795

>  <GCUT_SMR_3>
3.4032087

>  <Kier1>
34.865185

>  <Kier2>
14.6135

>  <Kier3>
7.0620189

>  <KierA1>
34.865185

>  <KierA2>
14.6135

>  <KierA3>
7.0620189

>  <KierFlex>
12.131009

>  <lip_acc>
19

>  <lip_don>
19

>  <lip_druglike>
0

>  <lip_violation>
3

>  <logP(o/w)>
-9.2402601

>  <logS>
2.38392

>  <mr>
13.72466

>  <mutagenic>
0

>  <nmol>
1

>  <opr_brigid>
23

>  <opr_leadlike>
0

>  <opr_nring>
4

>  <opr_nrot>
16

>  <opr_violation>
5

>  <PC+>
0

>  <PC->
0

>  <PEOE_PC+>
6.7259955

>  <PEOE_PC->
-6.7259955

>  <PEOE_RPC+>
0.031238589

>  <PEOE_RPC->
0.058335759

>  <PEOE_VSA+0>
66.79966

>  <PEOE_VSA+1>
107.19048

>  <PEOE_VSA+2>
157.38237

>  <PEOE_VSA+3>
33.464725

>  <PEOE_VSA+4>
72.269211

>  <PEOE_VSA+5>
0

>  <PEOE_VSA+6>
0

>  <PEOE_VSA-0>
8.701313

>  <PEOE_VSA-1>
0

>  <PEOE_VSA-2>
0

>  <PEOE_VSA-3>
0

>  <PEOE_VSA-4>
0

>  <PEOE_VSA-5>
0

>  <PEOE_VSA-6>
109.30203

>  <PEOE_VSA_FHYD>
0.67290932

>  <PEOE_VSA_FNEG>
0.2125766

>  <PEOE_VSA_FPNEG>
0.19690165

>  <PEOE_VSA_FPOL>
0.32709068

>  <PEOE_VSA_FPOS>
0.78742343

>  <PEOE_VSA_FPPOS>
0.13018903

>  <PEOE_VSA_HYD>
373.53854

>  <PEOE_VSA_NEG>
118.00335

>  <PEOE_VSA_PNEG>
109.30203

>  <PEOE_VSA_POL>
181.57124

>  <PEOE_VSA_POS>
437.10645

>  <PEOE_VSA_PPOS>
72.269211

>  <petitjean>
0.47058824

>  <petitjeanSC>
0.8888889

>  <Q_PC+>
0

>  <Q_PC->
0

>  <Q_RPC+>
0

>  <Q_RPC->
0

>  <Q_VSA_FHYD>
1

>  <Q_VSA_FNEG>
0

>  <Q_VSA_FPNEG>
0

>  <Q_VSA_FPOL>
0

>  <Q_VSA_FPOS>
1

>  <Q_VSA_FPPOS>
0

>  <Q_VSA_HYD>
555.1098

>  <Q_VSA_NEG>
0

>  <Q_VSA_PNEG>
0

>  <Q_VSA_POL>
0

>  <Q_VSA_POS>
555.1098

>  <Q_VSA_PPOS>
0

>  <radius>
9

>  <reactive>
1

>  <rings>
4

>  <RPC+>
0

>  <RPC->
0

>  <rsynth>
0.73809522

>  <SlogP>
-8.8952999

>  <SlogP_VSA0>
375.07971

>  <SlogP_VSA1>
0

>  <SlogP_VSA2>
185.13049

>  <SlogP_VSA3>
57.805416

>  <SlogP_VSA4>
0

>  <SlogP_VSA5>
0

>  <SlogP_VSA6>
0

>  <SlogP_VSA7>
0

>  <SlogP_VSA8>
18.868406

>  <SlogP_VSA9>
0

>  <SMR>
13.8356

>  <SMR_VSA0>
65.999329

>  <SMR_VSA1>
177.69658

>  <SMR_VSA2>
0

>  <SMR_VSA3>
119.13117

>  <SMR_VSA4>
197.38312

>  <SMR_VSA5>
18.868406

>  <SMR_VSA6>
57.805416

>  <SMR_VSA7>
0

>  <TPSA>
353.10999

>  <VAdjEq>
0.29071587

>  <VAdjMa>
6.4918532

>  <VDistEq>
3.8939698

>  <VDistMa>
10.516105

>  <vdw_area>
555.1098

>  <vdw_vol>
731.83478

>  <vsa_acc>
15.022536

>  <vsa_acid>
0

>  <vsa_base>
0

>  <vsa_don>
0

>  <vsa_hyd>
206.76642

>  <vsa_other>
44.125496

>  <vsa_pol>
216.44592

>  <Weight>
614.64996

>  <weinerPath>
6111

>  <weinerPol>
80

>  <zagreb>
224

$$$$