Oc1ccc(N=Nc2cc(C(O)=O)c(O)cc2)cc1C(O)=O
  MOE2013           2D

 22 23  0  0  0  0  0  0  0  0999 V2000
    0.0000    0.0000    0.0000 O   0  0  0  0  0  0  0  0  0  0  0  0
    1.5000    0.0120    0.0000 C   0  0  0  0  0  0  0  0  0  0  0  0
    2.2390    1.3180    0.0000 C   0  0  0  0  0  0  0  0  0  0  0  0
    3.7390    1.3300    0.0000 C   0  0  0  0  0  0  0  0  0  0  0  0
    4.5000    0.0370    0.0000 C   0  0  0  0  0  0  0  0  0  0  0  0
    6.0000    0.0500    0.0000 N   0  0  0  0  0  0  0  0  0  0  0  0
    6.7390    1.3550    0.0000 N   0  0  0  0  0  0  0  0  0  0  0  0
    8.2390    1.3670    0.0000 C   0  0  0  0  0  0  0  0  0  0  0  0
    8.9780    2.6730    0.0000 C   0  0  0  0  0  0  0  0  0  0  0  0
   10.4780    2.6850    0.0000 C   0  0  0  0  0  0  0  0  0  0  0  0
   11.2170    3.9900    0.0000 C   0  0  0  0  0  0  0  0  0  0  0  0
   10.4570    5.2830    0.0000 O   0  0  0  0  0  0  0  0  0  0  0  0
   12.7170    4.0030    0.0000 O   0  0  0  0  0  0  0  0  0  0  0  0
   11.2390    1.3920    0.0000 C   0  0  0  0  0  0  0  0  0  0  0  0
   12.7390    1.4050    0.0000 O   0  0  0  0  0  0  0  0  0  0  0  0
   10.5000    0.0870    0.0000 C   0  0  0  0  0  0  0  0  0  0  0  0
    9.0000    0.0750    0.0000 C   0  0  0  0  0  0  0  0  0  0  0  0
    3.7610   -1.2680    0.0000 C   0  0  0  0  0  0  0  0  0  0  0  0
    2.2610   -1.2800    0.0000 C   0  0  0  0  0  0  0  0  0  0  0  0
    1.5220   -2.5860    0.0000 C   0  0  0  0  0  0  0  0  0  0  0  0
    0.0220   -2.5980    0.0000 O   0  0  0  0  0  0  0  0  0  0  0  0
    2.2820   -3.8780    0.0000 O   0  0  0  0  0  0  0  0  0  0  0  0
  1  2  1  0  0  0  0
  2  3  1  0  0  0  0
  2 19  2  0  0  0  0
  3  4  2  0  0  0  0
  4  5  1  0  0  0  0
  5  6  1  0  0  0  0
  5 18  2  0  0  0  0
  6  7  2  3  0  0  0
  7  8  1  0  0  0  0
  8  9  1  0  0  0  0
  8 17  2  0  0  0  0
  9 10  2  0  0  0  0
 10 11  1  0  0  0  0
 10 14  1  0  0  0  0
 11 12  1  0  0  0  0
 11 13  2  0  0  0  0
 14 15  1  0  0  0  0
 14 16  2  0  0  0  0
 16 17  1  0  0  0  0
 18 19  1  0  0  0  0
 19 20  1  0  0  0  0
 20 21  1  0  0  0  0
 20 22  2  0  0  0  0
M  END
>  <Index>
788

>  <ID>
HT1538

>  <class>
0

>  <apol>
38.319931

>  <ast_fraglike>
0

>  <ast_fraglike_ext>
0

>  <ast_violation>
3

>  <ast_violation_ext>
5

>  <a_acc>
8

>  <a_acid>
0

>  <a_aro>
12

>  <a_base>
0

>  <a_count>
32

>  <a_don>
6

>  <a_donacc>
14

>  <a_heavy>
22

>  <a_hyd>
12

>  <a_IC>
55.967976

>  <a_ICM>
1.7489992

>  <a_nB>
0

>  <a_nBr>
0

>  <a_nC>
14

>  <a_nCl>
0

>  <a_nF>
0

>  <a_nH>
10

>  <a_nI>
0

>  <a_nN>
2

>  <a_nO>
6

>  <a_nP>
0

>  <a_nS>
0

>  <balabanJ>
1.7878479

>  <BCUT_PEOE_0>
-2.183352

>  <BCUT_PEOE_1>
-0.69450331

>  <BCUT_PEOE_2>
0.71780223

>  <BCUT_PEOE_3>
2.2258601

>  <BCUT_SLOGP_0>
-2.0958898

>  <BCUT_SLOGP_1>
-0.58812642

>  <BCUT_SLOGP_2>
0.77703583

>  <BCUT_SLOGP_3>
2.4068003

>  <BCUT_SMR_0>
-1.8781812

>  <BCUT_SMR_1>
-0.50724989

>  <BCUT_SMR_2>
0.88608843

>  <BCUT_SMR_3>
2.5241244

>  <bpol>
14.16807

>  <b_1rotN>
4

>  <b_1rotR>
0.17391305

>  <b_ar>
12

>  <b_count>
33

>  <b_double>
3

>  <b_heavy>
23

>  <b_max1len>
1

>  <b_rotN>
4

>  <b_rotR>
0.17391305

>  <b_single>
18

>  <b_triple>
0

>  <chi0>
16.275656

>  <chi0v>
10.96388

>  <chi0v_C>
7.4641018

>  <chi0_C>
8.8614426

>  <chi1>
10.379918

>  <chi1v>
5.9259567

>  <chi1v_C>
3.9760678

>  <chi1_C>
5.5993195

>  <chiral>
0

>  <chiral_u>
0

>  <density>
0.855865

>  <diameter>
11

>  <FCharge>
0

>  <GCUT_PEOE_0>
-0.75808376

>  <GCUT_PEOE_1>
-0.50000978

>  <GCUT_PEOE_2>
0.15957761

>  <GCUT_PEOE_3>
2.2671905

>  <GCUT_SLOGP_0>
-0.85450351

>  <GCUT_SLOGP_1>
-0.35199332

>  <GCUT_SLOGP_2>
0.20602551

>  <GCUT_SLOGP_3>
2.4407058

>  <GCUT_SMR_0>
-0.42819268

>  <GCUT_SMR_1>
-0.24490465

>  <GCUT_SMR_2>
0.29241148

>  <GCUT_SMR_3>
2.5569711

>  <Kier1>
18.340265

>  <Kier2>
8.203125

>  <Kier3>
4.9967127

>  <KierA1>
12.616021

>  <KierA2>
5.5328369

>  <KierA3>
3.3222387

>  <KierFlex>
3.1728356

>  <lip_acc>
8

>  <lip_don>
4

>  <lip_druglike>
1

>  <lip_violation>
0

>  <logP(o/w)>
2.72

>  <logS>
-2.4925799

>  <mr>
7.4469261

>  <mutagenic>
1

>  <nmol>
1

>  <opr_brigid>
13

>  <opr_leadlike>
1

>  <opr_nring>
2

>  <opr_nrot>
4

>  <opr_violation>
0

>  <PC+>
0

>  <PC->
0

>  <PEOE_PC+>
2.3509378

>  <PEOE_PC->
-2.3509378

>  <PEOE_RPC+>
0.12497126

>  <PEOE_RPC->
0.15272687

>  <PEOE_VSA+0>
0

>  <PEOE_VSA+1>
60.325535

>  <PEOE_VSA+2>
0

>  <PEOE_VSA+3>
0

>  <PEOE_VSA+4>
41.296692

>  <PEOE_VSA+5>
29.416998

>  <PEOE_VSA+6>
0

>  <PEOE_VSA-0>
73.529427

>  <PEOE_VSA-1>
0

>  <PEOE_VSA-2>
18.842079

>  <PEOE_VSA-3>
0

>  <PEOE_VSA-4>
0

>  <PEOE_VSA-5>
27.133842

>  <PEOE_VSA-6>
31.070162

>  <PEOE_VSA_FHYD>
0.54221964

>  <PEOE_VSA_FNEG>
0.53468621

>  <PEOE_VSA_FPNEG>
0.20667954

>  <PEOE_VSA_FPOL>
0.45778036

>  <PEOE_VSA_FPOS>
0.46531382

>  <PEOE_VSA_FPPOS>
0.25110081

>  <PEOE_VSA_HYD>
152.69704

>  <PEOE_VSA_NEG>
150.5755

>  <PEOE_VSA_PNEG>
58.204002

>  <PEOE_VSA_POL>
128.91769

>  <PEOE_VSA_POS>
131.03923

>  <PEOE_VSA_PPOS>
70.713692

>  <petitjean>
0.45454547

>  <petitjeanSC>
0.83333331

>  <Q_PC+>
0

>  <Q_PC->
0

>  <Q_RPC+>
0

>  <Q_RPC->
0

>  <Q_VSA_FHYD>
1

>  <Q_VSA_FNEG>
0

>  <Q_VSA_FPNEG>
0

>  <Q_VSA_FPOL>
0

>  <Q_VSA_FPOS>
1

>  <Q_VSA_FPPOS>
0

>  <Q_VSA_HYD>
281.61475

>  <Q_VSA_NEG>
0

>  <Q_VSA_PNEG>
0

>  <Q_VSA_POL>
0

>  <Q_VSA_POS>
281.61475

>  <Q_VSA_PPOS>
0

>  <radius>
6

>  <reactive>
1

>  <rings>
2

>  <RPC+>
0

>  <RPC->
0

>  <rsynth>
1

>  <SlogP>
2.9096

>  <SlogP_VSA0>
50.770454

>  <SlogP_VSA1>
15.490929

>  <SlogP_VSA2>
0

>  <SlogP_VSA3>
50.770454

>  <SlogP_VSA4>
54.095581

>  <SlogP_VSA5>
33.326015

>  <SlogP_VSA6>
0

>  <SlogP_VSA7>
105.85911

>  <SlogP_VSA8>
0

>  <SlogP_VSA9>
16.000351

>  <SMR>
7.43082

>  <SMR_VSA0>
47.724434

>  <SMR_VSA1>
84.096466

>  <SMR_VSA2>
50.770454

>  <SMR_VSA3>
16.858006

>  <SMR_VSA4>
5.513495

>  <SMR_VSA5>
105.85911

>  <SMR_VSA6>
15.490929

>  <SMR_VSA7>
0

>  <TPSA>
139.78

>  <VAdjEq>
0.4530769

>  <VAdjMa>
5.523562

>  <VDistEq>
3.3698223

>  <VDistMa>
8.6017275

>  <vdw_area>
281.61475

>  <vdw_vol>
353.14215

>  <vsa_acc>
18.842079

>  <vsa_acid>
0

>  <vsa_base>
0

>  <vsa_don>
0

>  <vsa_hyd>
129.58418

>  <vsa_other>
29.416998

>  <vsa_pol>
100.24361

>  <Weight>
302.242

>  <weinerPath>
1165

>  <weinerPol>
33

>  <zagreb>
110

$$$$