Brc1cc(F)c(cc1)CN1C(=O)C2(CC(=O)NC2=O)c2c(ccc(F)c2)C1=O
  MOE2013           2D

 28 31  0  0  1  0  0  0  0  0999 V2000
    0.0000    0.0000    0.0000 Br  0  0  0  0  0  0  0  0  0  0  0  0
   -1.2980   -0.7510    0.0000 C   0  0  0  0  0  0  0  0  0  0  0  0
   -1.2960   -2.2510    0.0000 C   0  0  0  0  0  0  0  0  0  0  0  0
   -2.5950   -3.0030    0.0000 C   0  0  0  0  0  0  0  0  0  0  0  0
   -2.5930   -4.5030    0.0000 F   0  0  0  0  0  0  0  0  0  0  0  0
   -3.8950   -2.2540    0.0000 C   0  0  0  0  0  0  0  0  0  0  0  0
   -3.8960   -0.7540    0.0000 C   0  0  0  0  0  0  0  0  0  0  0  0
   -2.5980   -0.0030    0.0000 C   0  0  0  0  0  0  0  0  0  0  0  0
   -5.1930   -3.0060    0.0000 C   0  0  0  0  0  0  0  0  0  0  0  0
   -6.4930   -2.2570    0.0000 N   0  0  0  0  0  0  0  0  0  0  0  0
   -7.7910   -3.0090    0.0000 C   0  0  0  0  0  0  0  0  0  0  0  0
   -7.2760   -4.4180    0.0000 O   0  0  0  0  0  0  0  0  0  0  0  0
   -9.0910   -2.2600    0.0000 C   0  0  3  0  0  0  0  0  0  0  0  0
  -10.5530   -1.9250    0.0000 C   0  0  0  0  0  0  0  0  0  0  0  0
  -11.3240   -3.2110    0.0000 C   0  0  0  0  0  0  0  0  0  0  0  0
  -12.8180   -3.3440    0.0000 O   0  0  0  0  0  0  0  0  0  0  0  0
  -10.3380   -4.3420    0.0000 N   0  0  0  0  0  0  0  0  0  0  0  0
   -8.9580   -3.7550    0.0000 C   0  0  0  0  0  0  0  0  0  0  0  0
   -8.0130   -4.9190    0.0000 O   0  0  0  0  0  0  0  0  0  0  0  0
   -9.0920   -0.7600    0.0000 C   0  0  0  0  0  0  0  0  0  0  0  0
   -7.7940   -0.0090    0.0000 C   0  0  0  0  0  0  0  0  0  0  0  0
   -7.7960    1.4910    0.0000 C   0  0  0  0  0  0  0  0  0  0  0  0
   -9.0960    2.2400    0.0000 C   0  0  0  0  0  0  0  0  0  0  0  0
  -10.3940    1.4880    0.0000 C   0  0  0  0  0  0  0  0  0  0  0  0
  -11.6940    2.2370    0.0000 F   0  0  0  0  0  0  0  0  0  0  0  0
  -10.3920   -0.0120    0.0000 C   0  0  0  0  0  0  0  0  0  0  0  0
   -6.4940   -0.7570    0.0000 C   0  0  0  0  0  0  0  0  0  0  0  0
   -5.1960   -0.0060    0.0000 O   0  0  0  0  0  0  0  0  0  0  0  0
  1  2  1  0  0  0  0
  2  3  1  0  0  0  0
  2  8  2  0  0  0  0
  3  4  2  0  0  0  0
  4  5  1  0  0  0  0
  4  6  1  0  0  0  0
  6  7  2  0  0  0  0
  6  9  1  0  0  0  0
  7  8  1  0  0  0  0
  9 10  1  0  0  0  0
 10 11  1  0  0  0  0
 10 27  1  0  0  0  0
 11 12  2  0  0  0  0
 11 13  1  0  0  0  0
 13 14  1  0  0  0  0
 13 18  1  0  0  0  0
 13 20  1  0  0  0  0
 14 15  1  0  0  0  0
 15 16  2  0  0  0  0
 15 17  1  0  0  0  0
 17 18  1  0  0  0  0
 18 19  2  0  0  0  0
 20 21  1  0  0  0  0
 20 26  2  0  0  0  0
 21 22  2  0  0  0  0
 21 27  1  0  0  0  0
 22 23  1  0  0  0  0
 23 24  2  0  0  0  0
 24 25  1  0  0  0  0
 24 26  1  0  0  0  0
 27 28  2  0  0  0  0
M  END
>  <Index>
716

>  <ID>
HT1405

>  <class>
0

>  <apol>
50.346722

>  <ast_fraglike>
0

>  <ast_fraglike_ext>
0

>  <ast_violation>
2

>  <ast_violation_ext>
2

>  <a_acc>
4

>  <a_acid>
0

>  <a_aro>
12

>  <a_base>
0

>  <a_count>
39

>  <a_don>
1

>  <a_donacc>
5

>  <a_heavy>
28

>  <a_hyd>
18

>  <a_IC>
75.366318

>  <a_ICM>
1.9324696

>  <a_nB>
0

>  <a_nBr>
1

>  <a_nC>
19

>  <a_nCl>
0

>  <a_nF>
2

>  <a_nH>
11

>  <a_nI>
0

>  <a_nN>
2

>  <a_nO>
4

>  <a_nP>
0

>  <a_nS>
0

>  <balabanJ>
1.6309878

>  <BCUT_PEOE_0>
-2.4996977

>  <BCUT_PEOE_1>
-0.61879689

>  <BCUT_PEOE_2>
0.5975529

>  <BCUT_PEOE_3>
2.7214358

>  <BCUT_SLOGP_0>
-2.6384325

>  <BCUT_SLOGP_1>
-0.52373642

>  <BCUT_SLOGP_2>
0.78920794

>  <BCUT_SLOGP_3>
2.5771549

>  <BCUT_SMR_0>
-2.2510314

>  <BCUT_SMR_1>
-0.42989787

>  <BCUT_SMR_2>
0.8892231

>  <BCUT_SMR_3>
2.9541478

>  <bpol>
22.193277

>  <b_1rotN>
2

>  <b_1rotR>
0.064516127

>  <b_ar>
12

>  <b_count>
42

>  <b_double>
4

>  <b_heavy>
31

>  <b_max1len>
2

>  <b_rotN>
2

>  <b_rotR>
0.064516127

>  <b_single>
26

>  <b_triple>
0

>  <chi0>
20.214813

>  <chi0v>
15.678411

>  <chi0v_C>
10.378315

>  <chi0_C>
11.930357

>  <chi1>
13.234925

>  <chi1v>
8.9766111

>  <chi1v_C>
5.5367279

>  <chi1_C>
7.3020616

>  <chiral>
1

>  <chiral_u>
1

>  <density>
0.97392583

>  <diameter>
12

>  <FCharge>
0

>  <GCUT_PEOE_0>
-0.78021282

>  <GCUT_PEOE_1>
-0.4614698

>  <GCUT_PEOE_2>
0.057176705

>  <GCUT_PEOE_3>
2.7419651

>  <GCUT_SLOGP_0>
-1.1752979

>  <GCUT_SLOGP_1>
-0.35399413

>  <GCUT_SLOGP_2>
0.22810665

>  <GCUT_SLOGP_3>
2.7152777

>  <GCUT_SMR_0>
-0.48490304

>  <GCUT_SMR_1>
-0.22384499

>  <GCUT_SMR_2>
0.2506586

>  <GCUT_SMR_3>
3.0006633

>  <Kier1>
21.240376

>  <Kier2>
7.921875

>  <Kier3>
3.5496745

>  <KierA1>
16.046732

>  <KierA2>
5.918242

>  <KierA3>
2.6308162

>  <KierFlex>
3.3917298

>  <lip_acc>
6

>  <lip_don>
1

>  <lip_druglike>
1

>  <lip_violation>
0

>  <logP(o/w)>
3.187

>  <logS>
-5.7842102

>  <mr>
9.8989191

>  <mutagenic>
0

>  <nmol>
1

>  <opr_brigid>
22

>  <opr_leadlike>
1

>  <opr_nring>
4

>  <opr_nrot>
2

>  <opr_violation>
0

>  <PC+>
0

>  <PC->
0

>  <PEOE_PC+>
2.3253622

>  <PEOE_PC->
-2.3253622

>  <PEOE_RPC+>
0.11248238

>  <PEOE_RPC->
0.12722512

>  <PEOE_VSA+0>
15.200059

>  <PEOE_VSA+1>
56.016727

>  <PEOE_VSA+2>
18.041691

>  <PEOE_VSA+3>
8.6190128

>  <PEOE_VSA+4>
25.899061

>  <PEOE_VSA+5>
25.899061

>  <PEOE_VSA+6>
0

>  <PEOE_VSA-0>
63.483059

>  <PEOE_VSA-1>
55.879753

>  <PEOE_VSA-2>
0

>  <PEOE_VSA-3>
0

>  <PEOE_VSA-4>
23.817272

>  <PEOE_VSA-5>
54.404575

>  <PEOE_VSA-6>
0

>  <PEOE_VSA_FHYD>
0.62558353

>  <PEOE_VSA_FNEG>
0.56898147

>  <PEOE_VSA_FPNEG>
0.22525424

>  <PEOE_VSA_FPOL>
0.37441647

>  <PEOE_VSA_FPOS>
0.43101853

>  <PEOE_VSA_FPPOS>
0.14916225

>  <PEOE_VSA_HYD>
217.2403

>  <PEOE_VSA_NEG>
197.58466

>  <PEOE_VSA_PNEG>
78.221848

>  <PEOE_VSA_POL>
130.01997

>  <PEOE_VSA_POS>
149.67561

>  <PEOE_VSA_PPOS>
51.798122

>  <petitjean>
0.5

>  <petitjeanSC>
1

>  <Q_PC+>
0

>  <Q_PC->
0

>  <Q_RPC+>
0

>  <Q_RPC->
0

>  <Q_VSA_FHYD>
1

>  <Q_VSA_FNEG>
0

>  <Q_VSA_FPNEG>
0

>  <Q_VSA_FPOL>
0

>  <Q_VSA_FPOS>
1

>  <Q_VSA_FPPOS>
0

>  <Q_VSA_HYD>
347.26028

>  <Q_VSA_NEG>
0

>  <Q_VSA_PNEG>
0

>  <Q_VSA_POL>
0

>  <Q_VSA_POS>
347.26028

>  <Q_VSA_PPOS>
0

>  <radius>
6

>  <reactive>
0

>  <rings>
4

>  <RPC+>
0

>  <RPC->
0

>  <rsynth>
1

>  <SlogP>
2.4605999

>  <SlogP_VSA0>
18.01075

>  <SlogP_VSA1>
24.159449

>  <SlogP_VSA2>
89.828682

>  <SlogP_VSA3>
0

>  <SlogP_VSA4>
33.418941

>  <SlogP_VSA5>
3.0551045

>  <SlogP_VSA6>
0

>  <SlogP_VSA7>
105.85911

>  <SlogP_VSA8>
18.868406

>  <SlogP_VSA9>
94.313896

>  <SMR>
9.5030203

>  <SMR_VSA0>
95.448868

>  <SMR_VSA1>
33.04454

>  <SMR_VSA2>
39.307892

>  <SMR_VSA3>
9.5567245

>  <SMR_VSA4>
0

>  <SMR_VSA5>
143.16708

>  <SMR_VSA6>
21.035135

>  <SMR_VSA7>
45.954094

>  <TPSA>
83.550003

>  <VAdjEq>
0.39893496

>  <VAdjMa>
5.9541965

>  <VDistEq>
3.2479165

>  <VDistMa>
9.3618498

>  <vdw_area>
347.26028

>  <vdw_vol>
461.23325

>  <vsa_acc>
54.267685

>  <vsa_acid>
0

>  <vsa_base>
0

>  <vsa_don>
5.6825762

>  <vsa_hyd>
225.3206

>  <vsa_other>
51.798122

>  <vsa_pol>
59.95026

>  <Weight>
449.207

>  <weinerPath>
1799

>  <weinerPol>
55

>  <zagreb>
158

$$$$