Clc1ccc(OC(C(OCc2cccnc2)=O)(C)C)cc1
  MOE2013           2D

 21 22  0  0  0  0  0  0  0  0999 V2000
    0.0000    0.0000    0.0000 Cl  0  0  0  0  0  0  0  0  0  0  0  0
   -1.4160   -0.4950    0.0000 C   0  0  0  0  0  0  0  0  0  0  0  0
   -1.6950   -1.9690    0.0000 C   0  0  0  0  0  0  0  0  0  0  0  0
   -3.1110   -2.4640    0.0000 C   0  0  0  0  0  0  0  0  0  0  0  0
   -4.2480   -1.4860    0.0000 C   0  0  0  0  0  0  0  0  0  0  0  0
   -5.6640   -1.9810    0.0000 O   0  0  0  0  0  0  0  0  0  0  0  0
   -6.8000   -1.0020    0.0000 C   0  0  0  0  0  0  0  0  0  0  0  0
   -7.9370   -0.0240    0.0000 C   0  0  0  0  0  0  0  0  0  0  0  0
   -9.3530   -0.5190    0.0000 O   0  0  0  0  0  0  0  0  0  0  0  0
  -10.4900    0.4600    0.0000 C   0  0  0  0  0  0  0  0  0  0  0  0
  -11.9060   -0.0360    0.0000 C   0  0  0  0  0  0  0  0  0  0  0  0
  -12.1850   -1.5100    0.0000 C   0  0  0  0  0  0  0  0  0  0  0  0
  -13.6010   -2.0050    0.0000 C   0  0  0  0  0  0  0  0  0  0  0  0
  -14.7380   -1.0260    0.0000 C   0  0  0  0  0  0  0  0  0  0  0  0
  -14.4590    0.4480    0.0000 N   0  0  0  0  0  0  0  0  0  0  0  0
  -13.0430    0.9430    0.0000 C   0  0  0  0  0  0  0  0  0  0  0  0
   -7.6580    1.4500    0.0000 O   0  0  0  0  0  0  0  0  0  0  0  0
   -5.8220    0.1340    0.0000 C   0  0  0  0  0  0  0  0  0  0  0  0
   -7.7790   -2.1390    0.0000 C   0  0  0  0  0  0  0  0  0  0  0  0
   -3.9690   -0.0120    0.0000 C   0  0  0  0  0  0  0  0  0  0  0  0
   -2.5530    0.4830    0.0000 C   0  0  0  0  0  0  0  0  0  0  0  0
  1  2  1  0  0  0  0
  2  3  1  0  0  0  0
  2 21  2  0  0  0  0
  3  4  2  0  0  0  0
  4  5  1  0  0  0  0
  5  6  1  0  0  0  0
  5 20  2  0  0  0  0
  6  7  1  0  0  0  0
  7  8  1  0  0  0  0
  7 18  1  0  0  0  0
  7 19  1  0  0  0  0
  8  9  1  0  0  0  0
  8 17  2  0  0  0  0
  9 10  1  0  0  0  0
 10 11  1  0  0  0  0
 11 12  1  0  0  0  0
 11 16  2  0  0  0  0
 12 13  2  0  0  0  0
 13 14  1  0  0  0  0
 14 15  2  0  0  0  0
 15 16  1  0  0  0  0
 20 21  1  0  0  0  0
M  END
>  <Index>
765

>  <ID>
HT1487

>  <class>
0

>  <apol>
44.514687

>  <ast_fraglike>
0

>  <ast_fraglike_ext>
0

>  <ast_violation>
2

>  <ast_violation_ext>
3

>  <a_acc>
3

>  <a_acid>
0

>  <a_aro>
12

>  <a_base>
0

>  <a_count>
37

>  <a_don>
0

>  <a_donacc>
3

>  <a_heavy>
21

>  <a_hyd>
16

>  <a_IC>
59.994888

>  <a_ICM>
1.6214834

>  <a_nB>
0

>  <a_nBr>
0

>  <a_nC>
16

>  <a_nCl>
1

>  <a_nF>
0

>  <a_nH>
16

>  <a_nI>
0

>  <a_nN>
1

>  <a_nO>
3

>  <a_nP>
0

>  <a_nS>
0

>  <balabanJ>
1.7242044

>  <BCUT_PEOE_0>
-2.5170577

>  <BCUT_PEOE_1>
-0.57917082

>  <BCUT_PEOE_2>
0.65599555

>  <BCUT_PEOE_3>
2.5853724

>  <BCUT_SLOGP_0>
-2.6042802

>  <BCUT_SLOGP_1>
-0.49014753

>  <BCUT_SLOGP_2>
0.74573314

>  <BCUT_SLOGP_3>
2.5401213

>  <BCUT_SMR_0>
-2.2995176

>  <BCUT_SMR_1>
-0.45051789

>  <BCUT_SMR_2>
0.79438174

>  <BCUT_SMR_3>
2.7957859

>  <bpol>
24.021313

>  <b_1rotN>
5

>  <b_1rotR>
0.22727273

>  <b_ar>
12

>  <b_count>
38

>  <b_double>
1

>  <b_heavy>
22

>  <b_max1len>
4

>  <b_rotN>
6

>  <b_rotR>
0.27272728

>  <b_single>
25

>  <b_triple>
0

>  <chi0>
15.294683

>  <chi0v>
12.631761

>  <chi0v_C>
9.8259087

>  <chi0_C>
11.173362

>  <chi1>
9.9711637

>  <chi1v>
6.8574538

>  <chi1v_C>
4.6689377

>  <chi1_C>
6.1464133

>  <chiral>
0

>  <chiral_u>
0

>  <density>
0.77335078

>  <diameter>
13

>  <FCharge>
0

>  <GCUT_PEOE_0>
-0.76383442

>  <GCUT_PEOE_1>
-0.37800694

>  <GCUT_PEOE_2>
0.018935306

>  <GCUT_PEOE_3>
2.438539

>  <GCUT_SLOGP_0>
-0.93294477

>  <GCUT_SLOGP_1>
-0.26386139

>  <GCUT_SLOGP_2>
0.15142559

>  <GCUT_SLOGP_3>
2.5126762

>  <GCUT_SMR_0>
-0.51380533

>  <GCUT_SMR_1>
-0.20008124

>  <GCUT_SMR_2>
0.19305076

>  <GCUT_SMR_3>
2.6866286

>  <Kier1>
17.355371

>  <Kier2>
8.0222225

>  <Kier3>
5.6055365

>  <KierA1>
13.912183

>  <KierA2>
6.3545446

>  <KierA3>
4.3997545

>  <KierFlex>
4.2097898

>  <lip_acc>
4

>  <lip_don>
0

>  <lip_druglike>
1

>  <lip_violation>
0

>  <logP(o/w)>
3.3987401

>  <logS>
-3.7419

>  <mr>
8.3487082

>  <mutagenic>
0

>  <nmol>
1

>  <opr_brigid>
12

>  <opr_leadlike>
1

>  <opr_nring>
2

>  <opr_nrot>
5

>  <opr_violation>
0

>  <PC+>
0

>  <PC->
0

>  <PEOE_PC+>
1.540048

>  <PEOE_PC->
-1.540048

>  <PEOE_RPC+>
0.19133066

>  <PEOE_RPC->
0.21349944

>  <PEOE_VSA+0>
63.603893

>  <PEOE_VSA+1>
66.063675

>  <PEOE_VSA+2>
0

>  <PEOE_VSA+3>
0

>  <PEOE_VSA+4>
0

>  <PEOE_VSA+5>
14.708499

>  <PEOE_VSA+6>
0

>  <PEOE_VSA-0>
100.97842

>  <PEOE_VSA-1>
41.836849

>  <PEOE_VSA-2>
0

>  <PEOE_VSA-3>
0

>  <PEOE_VSA-4>
0

>  <PEOE_VSA-5>
19.249496

>  <PEOE_VSA-6>
5.0075121

>  <PEOE_VSA_FHYD>
0.87488931

>  <PEOE_VSA_FNEG>
0.53643656

>  <PEOE_VSA_FPNEG>
0.077884533

>  <PEOE_VSA_FPOL>
0.12511067

>  <PEOE_VSA_FPOS>
0.46356344

>  <PEOE_VSA_FPPOS>
0.047226127

>  <PEOE_VSA_HYD>
272.48282

>  <PEOE_VSA_NEG>
167.07228

>  <PEOE_VSA_PNEG>
24.25701

>  <PEOE_VSA_POL>
38.965508

>  <PEOE_VSA_POS>
144.37607

>  <PEOE_VSA_PPOS>
14.708499

>  <petitjean>
0.46153846

>  <petitjeanSC>
0.85714287

>  <Q_PC+>
0

>  <Q_PC->
0

>  <Q_RPC+>
0

>  <Q_RPC->
0

>  <Q_VSA_FHYD>
1

>  <Q_VSA_FNEG>
0

>  <Q_VSA_FPNEG>
0

>  <Q_VSA_FPOL>
0

>  <Q_VSA_FPOS>
1

>  <Q_VSA_FPPOS>
0

>  <Q_VSA_HYD>
311.44833

>  <Q_VSA_NEG>
0

>  <Q_VSA_PNEG>
0

>  <Q_VSA_POL>
0

>  <Q_VSA_POS>
311.44833

>  <Q_VSA_PPOS>
0

>  <radius>
7

>  <reactive>
0

>  <rings>
2

>  <RPC+>
0

>  <RPC->
0

>  <rsynth>
1

>  <SlogP>
3.9022

>  <SlogP_VSA0>
10.999887

>  <SlogP_VSA1>
24.530994

>  <SlogP_VSA2>
34.862103

>  <SlogP_VSA3>
0

>  <SlogP_VSA4>
3.185575

>  <SlogP_VSA5>
0

>  <SlogP_VSA6>
3.5006065

>  <SlogP_VSA7>
140.28783

>  <SlogP_VSA8>
0

>  <SlogP_VSA9>
131.97037

>  <SMR>
8.0396996

>  <SMR_VSA0>
34.862103

>  <SMR_VSA1>
27.785418

>  <SMR_VSA2>
0

>  <SMR_VSA3>
11.929609

>  <SMR_VSA4>
0

>  <SMR_VSA5>
161.21408

>  <SMR_VSA6>
7.7454643

>  <SMR_VSA7>
105.80067

>  <TPSA>
48.419998

>  <VAdjEq>
0.46827638

>  <VAdjMa>
5.4594316

>  <VDistEq>
3.4235866

>  <VDistMa>
8.4599504

>  <vdw_area>
311.44833

>  <vdw_vol>
395.37167

>  <vsa_acc>
21.753254

>  <vsa_acid>
0

>  <vsa_base>
0

>  <vsa_don>
0

>  <vsa_hyd>
261.09412

>  <vsa_other>
17.212255

>  <vsa_pol>
21.753254

>  <Weight>
305.76099

>  <weinerPath>
1050

>  <weinerPol>
28

>  <zagreb>
104

$$$$