OC1=CN(C=CC1=O)CC(N)C(O)=O
  MOE2013           2D

 14 14  0  0  1  0  0  0  0  0999 V2000
    0.0000    0.0000    0.0000 O   0  0  0  0  0  0  0  0  0  0  0  0
    1.2980    0.7530    0.0000 C   0  0  0  0  0  0  0  0  0  0  0  0
    2.5980    0.0050    0.0000 C   0  0  0  0  0  0  0  0  0  0  0  0
    3.8960    0.7580    0.0000 N   0  0  3  0  0  0  0  0  0  0  0  0
    3.8930    2.2580    0.0000 C   0  0  0  0  0  0  0  0  0  0  0  0
    2.5920    3.0050    0.0000 C   0  0  0  0  0  0  0  0  0  0  0  0
    1.2940    2.2530    0.0000 C   0  0  0  0  0  0  0  0  0  0  0  0
   -0.0060    3.0000    0.0000 O   0  0  0  0  0  0  0  0  0  0  0  0
    5.1960    0.0110    0.0000 C   0  0  0  0  0  0  0  0  0  0  0  0
    6.4940    0.7630    0.0000 C   0  0  3  0  0  0  0  0  0  0  0  0
    6.4910    2.2630    0.0000 N   0  0  0  0  0  0  0  0  0  0  0  0
    7.7940    0.0160    0.0000 C   0  0  0  0  0  0  0  0  0  0  0  0
    9.0920    0.7690    0.0000 O   0  0  0  0  0  0  0  0  0  0  0  0
    7.7970   -1.4840    0.0000 O   0  0  0  0  0  0  0  0  0  0  0  0
  1  2  1  0  0  0  0
  2  3  2  0  0  0  0
  2  7  1  0  0  0  0
  3  4  1  0  0  0  0
  4  5  1  0  0  0  0
  4  9  1  0  0  0  0
  5  6  2  0  0  0  0
  6  7  1  0  0  0  0
  7  8  2  0  0  0  0
  9 10  1  0  0  0  0
 10 11  1  0  0  0  0
 10 12  1  0  0  0  0
 12 13  1  0  0  0  0
 12 14  2  0  0  0  0
M  END
>  <Index>
715

>  <ID>
HT1404

>  <class>
0

>  <apol>
26.15593

>  <ast_fraglike>
0

>  <ast_fraglike_ext>
0

>  <ast_violation>
2

>  <ast_violation_ext>
3

>  <a_acc>
5

>  <a_acid>
0

>  <a_aro>
0

>  <a_base>
0

>  <a_count>
24

>  <a_don>
4

>  <a_donacc>
9

>  <a_heavy>
14

>  <a_hyd>
6

>  <a_IC>
42.81982

>  <a_ICM>
1.7841592

>  <a_nB>
0

>  <a_nBr>
0

>  <a_nC>
8

>  <a_nCl>
0

>  <a_nF>
0

>  <a_nH>
10

>  <a_nI>
0

>  <a_nN>
2

>  <a_nO>
4

>  <a_nP>
0

>  <a_nS>
0

>  <balabanJ>
2.3418896

>  <BCUT_PEOE_0>
-2.5335207

>  <BCUT_PEOE_1>
-0.61962533

>  <BCUT_PEOE_2>
0.6577639

>  <BCUT_PEOE_3>
2.5345118

>  <BCUT_SLOGP_0>
-2.7854705

>  <BCUT_SLOGP_1>
-0.58975893

>  <BCUT_SLOGP_2>
0.65919876

>  <BCUT_SLOGP_3>
2.3813367

>  <BCUT_SMR_0>
-2.2711596

>  <BCUT_SMR_1>
-0.45472243

>  <BCUT_SMR_2>
0.78798819

>  <BCUT_SMR_3>
2.7823868

>  <bpol>
14.16807

>  <b_1rotN>
3

>  <b_1rotR>
0.21428572

>  <b_ar>
0

>  <b_count>
24

>  <b_double>
4

>  <b_heavy>
14

>  <b_max1len>
4

>  <b_rotN>
3

>  <b_rotR>
0.21428572

>  <b_single>
20

>  <b_triple>
0

>  <chi0>
10.715178

>  <chi0v>
7.2519956

>  <chi0v_C>
4.5165076

>  <chi0_C>
5.1378284

>  <chi1>
6.5029078

>  <chi1v>
3.8790278

>  <chi1v_C>
1.857607

>  <chi1_C>
2.3914115

>  <chiral>
1

>  <chiral_u>
1

>  <density>
0.84114039

>  <diameter>
8

>  <FCharge>
0

>  <GCUT_PEOE_0>
-0.81498843

>  <GCUT_PEOE_1>
-0.45276091

>  <GCUT_PEOE_2>
0.1158668

>  <GCUT_PEOE_3>
2.2699208

>  <GCUT_SLOGP_0>
-1.3634975

>  <GCUT_SLOGP_1>
-0.44220859

>  <GCUT_SLOGP_2>
0.12931129

>  <GCUT_SLOGP_3>
2.199744

>  <GCUT_SMR_0>
-0.50060278

>  <GCUT_SMR_1>
-0.24029951

>  <GCUT_SMR_2>
0.22061265

>  <GCUT_SMR_3>
2.5192821

>  <Kier1>
12.071428

>  <Kier2>
5.1855955

>  <Kier3>
3.5918367

>  <KierA1>
8.8920784

>  <KierA2>
3.7207341

>  <KierA3>
2.5255711

>  <KierFlex>
2.3632185

>  <lip_acc>
6

>  <lip_don>
4

>  <lip_druglike>
1

>  <lip_violation>
0

>  <logP(o/w)>
-3.9537301

>  <logS>
0.12496

>  <mr>
4.7176366

>  <mutagenic>
0

>  <nmol>
1

>  <opr_brigid>
6

>  <opr_leadlike>
1

>  <opr_nring>
1

>  <opr_nrot>
3

>  <opr_violation>
0

>  <PC+>
0

>  <PC->
0

>  <PEOE_PC+>
1.8174845

>  <PEOE_PC->
-1.8174845

>  <PEOE_RPC+>
0.15286382

>  <PEOE_RPC->
0.19567849

>  <PEOE_VSA+0>
38.469013

>  <PEOE_VSA+1>
17.061544

>  <PEOE_VSA+2>
28.842506

>  <PEOE_VSA+3>
0

>  <PEOE_VSA+4>
29.106865

>  <PEOE_VSA+5>
14.708499

>  <PEOE_VSA+6>
0

>  <PEOE_VSA-0>
29.00082

>  <PEOE_VSA-1>
0

>  <PEOE_VSA-2>
0

>  <PEOE_VSA-3>
0

>  <PEOE_VSA-4>
0

>  <PEOE_VSA-5>
27.133842

>  <PEOE_VSA-6>
22.186199

>  <PEOE_VSA_FHYD>
0.5490014

>  <PEOE_VSA_FNEG>
0.37926072

>  <PEOE_VSA_FPNEG>
0.23882723

>  <PEOE_VSA_FPOL>
0.45099863

>  <PEOE_VSA_FPOS>
0.62073928

>  <PEOE_VSA_FPPOS>
0.21217139

>  <PEOE_VSA_HYD>
113.37388

>  <PEOE_VSA_NEG>
78.320862

>  <PEOE_VSA_PNEG>
49.320042

>  <PEOE_VSA_POL>
93.135406

>  <PEOE_VSA_POS>
128.18843

>  <PEOE_VSA_PPOS>
43.815365

>  <petitjean>
0.5

>  <petitjeanSC>
1

>  <Q_PC+>
0

>  <Q_PC->
0

>  <Q_RPC+>
0

>  <Q_RPC->
0

>  <Q_VSA_FHYD>
1

>  <Q_VSA_FNEG>
0

>  <Q_VSA_FPNEG>
0

>  <Q_VSA_FPOL>
0

>  <Q_VSA_FPOS>
1

>  <Q_VSA_FPPOS>
0

>  <Q_VSA_HYD>
206.50929

>  <Q_VSA_NEG>
0

>  <Q_VSA_PNEG>
0

>  <Q_VSA_POL>
0

>  <Q_VSA_POS>
206.50929

>  <Q_VSA_PPOS>
0

>  <radius>
4

>  <reactive>
0

>  <rings>
1

>  <RPC+>
0

>  <RPC->
0

>  <rsynth>
1

>  <SlogP>
-0.8039

>  <SlogP_VSA0>
32.897186

>  <SlogP_VSA1>
16.557388

>  <SlogP_VSA2>
51.706402

>  <SlogP_VSA3>
69.21003

>  <SlogP_VSA4>
0

>  <SlogP_VSA5>
5.2434282

>  <SlogP_VSA6>
0

>  <SlogP_VSA7>
52.071899

>  <SlogP_VSA8>
0

>  <SlogP_VSA9>
0

>  <SMR>
4.7175999

>  <SMR_VSA0>
47.724434

>  <SMR_VSA1>
3.1243138

>  <SMR_VSA2>
50.770454

>  <SMR_VSA3>
9.2253971

>  <SMR_VSA4>
32.897186

>  <SMR_VSA5>
52.071899

>  <SMR_VSA6>
31.872654

>  <SMR_VSA7>
0

>  <TPSA>
103.86

>  <VAdjEq>
0.59167278

>  <VAdjMa>
4.8073549

>  <VDistEq>
2.813458

>  <VDistMa>
7.2928128

>  <vdw_area>
206.50929

>  <vdw_vol>
235.60632

>  <vsa_acc>
13.566921

>  <vsa_acid>
0

>  <vsa_base>
0

>  <vsa_don>
0

>  <vsa_hyd>
91.865082

>  <vsa_other>
23.167019

>  <vsa_pol>
72.01017

>  <Weight>
198.17799

>  <weinerPath>
321

>  <weinerPol>
18

>  <zagreb>
66

$$$$