S(=O)(C(c1ccccc1)c1ccccc1)CC(=O)N
  MOE2013           2D

 19 20  0  0  1  0  0  0  0  0999 V2000
    0.0000    0.0000    0.0000 S   0  0  3  0  0  0  0  0  0  0  0  0
   -0.7580    1.2940    0.0000 O   0  0  0  0  0  0  0  0  0  0  0  0
   -0.7420   -1.3040    0.0000 C   0  0  0  0  0  0  0  0  0  0  0  0
    0.0160   -2.5980    0.0000 C   0  0  0  0  0  0  0  0  0  0  0  0
    1.5160   -2.5890    0.0000 C   0  0  0  0  0  0  0  0  0  0  0  0
    2.2740   -3.8830    0.0000 C   0  0  0  0  0  0  0  0  0  0  0  0
    1.5320   -5.1870    0.0000 C   0  0  0  0  0  0  0  0  0  0  0  0
    0.0320   -5.1960    0.0000 C   0  0  0  0  0  0  0  0  0  0  0  0
   -0.7260   -3.9020    0.0000 C   0  0  0  0  0  0  0  0  0  0  0  0
   -2.2420   -1.3130    0.0000 C   0  0  0  0  0  0  0  0  0  0  0  0
   -2.9840   -2.6160    0.0000 C   0  0  0  0  0  0  0  0  0  0  0  0
   -4.4840   -2.6250    0.0000 C   0  0  0  0  0  0  0  0  0  0  0  0
   -5.2420   -1.3310    0.0000 C   0  0  0  0  0  0  0  0  0  0  0  0
   -4.5000   -0.0270    0.0000 C   0  0  0  0  0  0  0  0  0  0  0  0
   -3.0000   -0.0180    0.0000 C   0  0  0  0  0  0  0  0  0  0  0  0
    1.5000    0.0090    0.0000 C   0  0  0  0  0  0  0  0  0  0  0  0
    2.2420    1.3130    0.0000 C   0  0  0  0  0  0  0  0  0  0  0  0
    1.4840    2.6070    0.0000 O   0  0  0  0  0  0  0  0  0  0  0  0
    3.7420    1.3220    0.0000 N   0  0  0  0  0  0  0  0  0  0  0  0
  1  2  2  0  0  0  0
  1  3  1  0  0  0  0
  1 16  1  0  0  0  0
  3  4  1  0  0  0  0
  3 10  1  0  0  0  0
  4  5  1  0  0  0  0
  4  9  2  0  0  0  0
  5  6  2  0  0  0  0
  6  7  1  0  0  0  0
  7  8  2  0  0  0  0
  8  9  1  0  0  0  0
 10 11  1  0  0  0  0
 10 15  2  0  0  0  0
 11 12  2  0  0  0  0
 12 13  1  0  0  0  0
 13 14  2  0  0  0  0
 14 15  1  0  0  0  0
 16 17  1  0  0  0  0
 17 18  2  0  0  0  0
 17 19  1  0  0  0  0
M  END
>  <Index>
725

>  <ID>
HT1422

>  <class>
0

>  <apol>
42.005894

>  <ast_fraglike>
1

>  <ast_fraglike_ext>
0

>  <ast_violation>
0

>  <ast_violation_ext>
1

>  <a_acc>
2

>  <a_acid>
0

>  <a_aro>
12

>  <a_base>
0

>  <a_count>
34

>  <a_don>
1

>  <a_donacc>
3

>  <a_heavy>
19

>  <a_hyd>
14

>  <a_IC>
53.767017

>  <a_ICM>
1.5813829

>  <a_nB>
0

>  <a_nBr>
0

>  <a_nC>
15

>  <a_nCl>
0

>  <a_nF>
0

>  <a_nH>
15

>  <a_nI>
0

>  <a_nN>
1

>  <a_nO>
2

>  <a_nP>
0

>  <a_nS>
1

>  <balabanJ>
2.0242569

>  <BCUT_PEOE_0>
-2.443985

>  <BCUT_PEOE_1>
-0.64846617

>  <BCUT_PEOE_2>
0.60075659

>  <BCUT_PEOE_3>
2.5451996

>  <BCUT_SLOGP_0>
-2.6089988

>  <BCUT_SLOGP_1>
-0.53807992

>  <BCUT_SLOGP_2>
0.68790483

>  <BCUT_SLOGP_3>
2.5650525

>  <BCUT_SMR_0>
-2.1390631

>  <BCUT_SMR_1>
-0.4766407

>  <BCUT_SMR_2>
0.85431087

>  <BCUT_SMR_3>
2.8506219

>  <bpol>
21.074104

>  <b_1rotN>
5

>  <b_1rotR>
0.25

>  <b_ar>
12

>  <b_count>
35

>  <b_double>
1

>  <b_heavy>
20

>  <b_max1len>
4

>  <b_rotN>
5

>  <b_rotR>
0.25

>  <b_single>
22

>  <b_triple>
0

>  <chi0>
13.664926

>  <chi0v>
11.176552

>  <chi0v_C>
8.5579596

>  <chi0_C>
10.087576

>  <chi1>
9.1815405

>  <chi1v>
7.3182025

>  <chi1v_C>
4.7522707

>  <chi1_C>
6.7079082

>  <chiral>
0

>  <chiral_u>
0

>  <density>
0.75155997

>  <diameter>
8

>  <FCharge>
0

>  <GCUT_PEOE_0>
-0.87101996

>  <GCUT_PEOE_1>
-0.38877961

>  <GCUT_PEOE_2>
0.079681635

>  <GCUT_PEOE_3>
2.5048926

>  <GCUT_SLOGP_0>
-1.370476

>  <GCUT_SLOGP_1>
-0.26386139

>  <GCUT_SLOGP_2>
0.13851997

>  <GCUT_SLOGP_3>
2.5913453

>  <GCUT_SMR_0>
-0.43851873

>  <GCUT_SMR_1>
-0.21605732

>  <GCUT_SMR_2>
0.19305076

>  <GCUT_SMR_3>
2.8021193

>  <Kier1>
15.39

>  <Kier2>
7.6952662

>  <Kier3>
4.5

>  <KierA1>
11.84732

>  <KierA2>
5.8307915

>  <KierA3>
3.3676791

>  <KierFlex>
3.6357503

>  <lip_acc>
3

>  <lip_don>
2

>  <lip_druglike>
1

>  <lip_violation>
0

>  <logP(o/w)>
1.325

>  <logS>
-3.66555

>  <mr>
7.9034677

>  <mutagenic>
0

>  <nmol>
1

>  <opr_brigid>
12

>  <opr_leadlike>
1

>  <opr_nring>
2

>  <opr_nrot>
5

>  <opr_violation>
0

>  <PC+>
0

>  <PC->
0

>  <PEOE_PC+>
1.8632745

>  <PEOE_PC->
-1.8632745

>  <PEOE_RPC+>
0.14393617

>  <PEOE_RPC->
0.3310813

>  <PEOE_VSA+0>
4.4170794

>  <PEOE_VSA+1>
55.45002

>  <PEOE_VSA+2>
0

>  <PEOE_VSA+3>
28.546412

>  <PEOE_VSA+4>
0

>  <PEOE_VSA+5>
12.949531

>  <PEOE_VSA+6>
0

>  <PEOE_VSA-0>
13.136708

>  <PEOE_VSA-1>
122.54904

>  <PEOE_VSA-2>
0

>  <PEOE_VSA-3>
0

>  <PEOE_VSA-4>
0

>  <PEOE_VSA-5>
13.566921

>  <PEOE_VSA-6>
22.659382

>  <PEOE_VSA_FHYD>
0.82005006

>  <PEOE_VSA_FNEG>
0.62908059

>  <PEOE_VSA_FPNEG>
0.1325635

>  <PEOE_VSA_FPOL>
0.17994992

>  <PEOE_VSA_FPOS>
0.37091944

>  <PEOE_VSA_FPPOS>
0.04738643

>  <PEOE_VSA_HYD>
224.09926

>  <PEOE_VSA_NEG>
171.91205

>  <PEOE_VSA_PNEG>
36.226303

>  <PEOE_VSA_POL>
49.175835

>  <PEOE_VSA_POS>
101.36304

>  <PEOE_VSA_PPOS>
12.949531

>  <petitjean>
0.5

>  <petitjeanSC>
1

>  <Q_PC+>
0

>  <Q_PC->
0

>  <Q_RPC+>
0

>  <Q_RPC->
0

>  <Q_VSA_FHYD>
1

>  <Q_VSA_FNEG>
0

>  <Q_VSA_FPNEG>
0

>  <Q_VSA_FPOL>
0

>  <Q_VSA_FPOS>
1

>  <Q_VSA_FPPOS>
0

>  <Q_VSA_HYD>
273.27509

>  <Q_VSA_NEG>
0

>  <Q_VSA_PNEG>
0

>  <Q_VSA_POL>
0

>  <Q_VSA_POS>
273.27509

>  <Q_VSA_PPOS>
0

>  <radius>
4

>  <reactive>
0

>  <rings>
2

>  <RPC+>
0

>  <RPC->
0

>  <rsynth>
1

>  <SlogP>
2.1055

>  <SlogP_VSA0>
32.897186

>  <SlogP_VSA1>
29.344627

>  <SlogP_VSA2>
43.411621

>  <SlogP_VSA3>
17.233564

>  <SlogP_VSA4>
6.37115

>  <SlogP_VSA5>
0

>  <SlogP_VSA6>
0

>  <SlogP_VSA7>
176.43184

>  <SlogP_VSA8>
2.7759552

>  <SlogP_VSA9>
0

>  <SMR>
7.7041798

>  <SMR_VSA0>
47.948059

>  <SMR_VSA1>
0

>  <SMR_VSA2>
0

>  <SMR_VSA3>
9.1471052

>  <SMR_VSA4>
32.897186

>  <SMR_VSA5>
176.43184

>  <SMR_VSA6>
22.492348

>  <SMR_VSA7>
19.549404

>  <TPSA>
79.370003

>  <VAdjEq>
0.5023343

>  <VAdjMa>
5.321928

>  <VDistEq>
2.8855424

>  <VDistMa>
8.2364893

>  <vdw_area>
273.27509

>  <vdw_vol>
363.71814

>  <vsa_acc>
29.575182

>  <vsa_acid>
0

>  <vsa_base>
0

>  <vsa_don>
17.742489

>  <vsa_hyd>
184.47118

>  <vsa_other>
26.086239

>  <vsa_pol>
47.317673

>  <Weight>
273.35599

>  <weinerPath>
684

>  <weinerPol>
26

>  <zagreb>
92

$$$$