FC(F)(F)c1cc(Nc2ncccc2C(O)=O)ccc1
  MOE2013           2D

 20 21  0  0  0  0  0  0  0  0999 V2000
    0.0000    0.0000    0.0000 F   0  0  0  0  0  0  0  0  0  0  0  0
   -0.7400   -1.3050    0.0000 C   0  0  0  0  0  0  0  0  0  0  0  0
   -2.0450   -0.5650    0.0000 F   0  0  0  0  0  0  0  0  0  0  0  0
    0.5650   -2.0450    0.0000 F   0  0  0  0  0  0  0  0  0  0  0  0
   -1.4790   -2.6100    0.0000 C   0  0  0  0  0  0  0  0  0  0  0  0
   -2.9790   -2.6220    0.0000 C   0  0  0  0  0  0  0  0  0  0  0  0
   -3.7190   -3.9270    0.0000 C   0  0  0  0  0  0  0  0  0  0  0  0
   -5.2190   -3.9390    0.0000 N   0  0  0  0  0  0  0  0  0  0  0  0
   -5.9580   -5.2440    0.0000 C   0  0  0  0  0  0  0  0  0  0  0  0
   -5.1980   -6.5370    0.0000 N   0  0  0  0  0  0  0  0  0  0  0  0
   -5.9380   -7.8420    0.0000 C   0  0  0  0  0  0  0  0  0  0  0  0
   -7.4370   -7.8540    0.0000 C   0  0  0  0  0  0  0  0  0  0  0  0
   -8.1980   -6.5610    0.0000 C   0  0  0  0  0  0  0  0  0  0  0  0
   -7.4580   -5.2560    0.0000 C   0  0  0  0  0  0  0  0  0  0  0  0
   -8.2190   -3.9630    0.0000 C   0  0  0  0  0  0  0  0  0  0  0  0
   -7.4790   -2.6580    0.0000 O   0  0  0  0  0  0  0  0  0  0  0  0
   -9.7190   -3.9750    0.0000 O   0  0  0  0  0  0  0  0  0  0  0  0
   -2.9580   -5.2200    0.0000 C   0  0  0  0  0  0  0  0  0  0  0  0
   -1.4580   -5.2080    0.0000 C   0  0  0  0  0  0  0  0  0  0  0  0
   -0.7190   -3.9030    0.0000 C   0  0  0  0  0  0  0  0  0  0  0  0
  1  2  1  0  0  0  0
  2  3  1  0  0  0  0
  2  4  1  0  0  0  0
  2  5  1  0  0  0  0
  5  6  1  0  0  0  0
  5 20  2  0  0  0  0
  6  7  2  0  0  0  0
  7  8  1  0  0  0  0
  7 18  1  0  0  0  0
  8  9  1  0  0  0  0
  9 10  1  0  0  0  0
  9 14  2  0  0  0  0
 10 11  2  0  0  0  0
 11 12  1  0  0  0  0
 12 13  2  0  0  0  0
 13 14  1  0  0  0  0
 14 15  1  0  0  0  0
 15 16  1  0  0  0  0
 15 17  2  0  0  0  0
 18 19  2  0  0  0  0
 19 20  1  0  0  0  0
M  END
>  <Index>
767

>  <ID>
HT1490

>  <class>
0

>  <apol>
34.356136

>  <ast_fraglike>
0

>  <ast_fraglike_ext>
0

>  <ast_violation>
1

>  <ast_violation_ext>
1

>  <a_acc>
3

>  <a_acid>
0

>  <a_aro>
12

>  <a_base>
0

>  <a_count>
29

>  <a_don>
3

>  <a_donacc>
6

>  <a_heavy>
20

>  <a_hyd>
14

>  <a_IC>
55.49152

>  <a_ICM>
1.9135007

>  <a_nB>
0

>  <a_nBr>
0

>  <a_nC>
13

>  <a_nCl>
0

>  <a_nF>
3

>  <a_nH>
9

>  <a_nI>
0

>  <a_nN>
2

>  <a_nO>
2

>  <a_nP>
0

>  <a_nS>
0

>  <balabanJ>
1.9189945

>  <BCUT_PEOE_0>
-2.2849791

>  <BCUT_PEOE_1>
-0.58257574

>  <BCUT_PEOE_2>
0.6362651

>  <BCUT_PEOE_3>
2.36061

>  <BCUT_SLOGP_0>
-2.217679

>  <BCUT_SLOGP_1>
-0.48744106

>  <BCUT_SLOGP_2>
0.72625738

>  <BCUT_SLOGP_3>
2.4836819

>  <BCUT_SMR_0>
-1.9970609

>  <BCUT_SMR_1>
-0.43141294

>  <BCUT_SMR_2>
0.77586269

>  <BCUT_SMR_3>
2.6019258

>  <bpol>
16.385862

>  <b_1rotN>
3

>  <b_1rotR>
0.14285715

>  <b_ar>
12

>  <b_count>
30

>  <b_double>
1

>  <b_heavy>
21

>  <b_max1len>
2

>  <b_rotN>
4

>  <b_rotR>
0.19047619

>  <b_single>
17

>  <b_triple>
0

>  <chi0>
14.750712

>  <chi0v>
9.9780207

>  <chi0v_C>
7.0414519

>  <chi0_C>
8.3364992

>  <chi1>
9.376029

>  <chi1v>
5.5031924

>  <chi1v_C>
3.5267091

>  <chi1_C>
4.9965835

>  <chiral>
0

>  <chiral_u>
0

>  <density>
0.88459021

>  <diameter>
9

>  <FCharge>
0

>  <GCUT_PEOE_0>
-0.78338706

>  <GCUT_PEOE_1>
-0.44550431

>  <GCUT_PEOE_2>
0.096443124

>  <GCUT_PEOE_3>
2.3148932

>  <GCUT_SLOGP_0>
-0.89546442

>  <GCUT_SLOGP_1>
-0.32249457

>  <GCUT_SLOGP_2>
0.26019999

>  <GCUT_SLOGP_3>
2.4516809

>  <GCUT_SMR_0>
-0.46462882

>  <GCUT_SMR_1>
-0.21937729

>  <GCUT_SMR_2>
0.21668781

>  <GCUT_SMR_3>
2.6011264

>  <Kier1>
16.371881

>  <Kier2>
6.8400002

>  <Kier3>
4.4963264

>  <KierA1>
11.299487

>  <KierA2>
4.6197615

>  <KierA3>
2.9889288

>  <KierFlex>
2.6100466

>  <lip_acc>
4

>  <lip_don>
2

>  <lip_druglike>
1

>  <lip_violation>
0

>  <logP(o/w)>
3.10776

>  <logS>
-3.08427

>  <mr>
6.6685991

>  <mutagenic>
0

>  <nmol>
1

>  <opr_brigid>
12

>  <opr_leadlike>
1

>  <opr_nring>
2

>  <opr_nrot>
3

>  <opr_violation>
0

>  <PC+>
0

>  <PC->
0

>  <PEOE_PC+>
1.8416942

>  <PEOE_PC->
-1.8416942

>  <PEOE_RPC+>
0.22667684

>  <PEOE_RPC->
0.17777836

>  <PEOE_VSA+0>
23.445467

>  <PEOE_VSA+1>
34.27478

>  <PEOE_VSA+2>
19.809576

>  <PEOE_VSA+3>
0

>  <PEOE_VSA+4>
10.324173

>  <PEOE_VSA+5>
14.708499

>  <PEOE_VSA+6>
9.0455017

>  <PEOE_VSA-0>
49.019615

>  <PEOE_VSA-1>
24.509808

>  <PEOE_VSA-2>
0

>  <PEOE_VSA-3>
35.725906

>  <PEOE_VSA-4>
5.8194671

>  <PEOE_VSA-5>
13.566921

>  <PEOE_VSA-6>
7.7675405

>  <PEOE_VSA_FHYD>
0.75311357

>  <PEOE_VSA_FNEG>
0.54999906

>  <PEOE_VSA_FPNEG>
0.10948402

>  <PEOE_VSA_FPOL>
0.24688646

>  <PEOE_VSA_FPOS>
0.45000094

>  <PEOE_VSA_FPPOS>
0.13740243

>  <PEOE_VSA_HYD>
186.78516

>  <PEOE_VSA_NEG>
136.40926

>  <PEOE_VSA_PNEG>
27.153929

>  <PEOE_VSA_POL>
61.232101

>  <PEOE_VSA_POS>
111.60799

>  <PEOE_VSA_PPOS>
34.078175

>  <petitjean>
0.44444445

>  <petitjeanSC>
0.80000001

>  <Q_PC+>
0

>  <Q_PC->
0

>  <Q_RPC+>
0

>  <Q_RPC->
0

>  <Q_VSA_FHYD>
1

>  <Q_VSA_FNEG>
0

>  <Q_VSA_FPNEG>
0

>  <Q_VSA_FPOL>
0

>  <Q_VSA_FPOS>
1

>  <Q_VSA_FPPOS>
0

>  <Q_VSA_HYD>
248.01726

>  <Q_VSA_NEG>
0

>  <Q_VSA_PNEG>
0

>  <Q_VSA_POL>
0

>  <Q_VSA_POS>
248.01726

>  <Q_VSA_PPOS>
0

>  <radius>
5

>  <reactive>
0

>  <rings>
2

>  <RPC+>
0

>  <RPC->
0

>  <rsynth>
1

>  <SlogP>
3.8536999

>  <SlogP_VSA0>
0

>  <SlogP_VSA1>
42.541744

>  <SlogP_VSA2>
0

>  <SlogP_VSA3>
25.385227

>  <SlogP_VSA4>
30.233366

>  <SlogP_VSA5>
0

>  <SlogP_VSA6>
7.7595162

>  <SlogP_VSA7>
123.07346

>  <SlogP_VSA8>
0

>  <SlogP_VSA9>
49.965008

>  <SMR>
6.6040001

>  <SMR_VSA0>
23.862217

>  <SMR_VSA1>
61.665871

>  <SMR_VSA2>
33.144741

>  <SMR_VSA3>
6.37115

>  <SMR_VSA4>
23.095419

>  <SMR_VSA5>
123.07346

>  <SMR_VSA6>
7.7454643

>  <SMR_VSA7>
0

>  <TPSA>
62.220001

>  <VAdjEq>
0.48464775

>  <VAdjMa>
5.3923173

>  <VDistEq>
3.098897

>  <VDistMa>
8.3527985

>  <vdw_area>
248.01726

>  <vdw_vol>
319.0415

>  <vsa_acc>
5.6825762

>  <vsa_acid>
0

>  <vsa_base>
0

>  <vsa_don>
5.6825762

>  <vsa_hyd>
171.03851

>  <vsa_other>
25.899061

>  <vsa_pol>
38.498993

>  <Weight>
282.22098

>  <weinerPath>
828

>  <weinerPol>
29

>  <zagreb>
102

$$$$