O1c2c(OC1)cc1[C@H]3[C@@]4(N(CCc1c2)CCC4)C=C(OC)[C@H]3OC(=O)[C@@](O)(CCCC(O)(C)C)CC(OC)=O
  MOE2013           2D

 39 43  0  0  1  0  0  0  0  0999 V2000
    0.0550   -0.0020    0.0000 O   0  0  0  0  0  0  0  0  0  0  0  0
   -0.1400   -1.4890    0.0000 C   0  0  0  0  0  0  0  0  0  0  0  0
    1.2150   -2.1330    0.0000 C   0  0  0  0  0  0  0  0  0  0  0  0
    2.2460   -1.0460    0.0000 O   0  0  0  0  0  0  0  0  0  0  0  0
    1.5300    0.2730    0.0000 C   0  0  0  0  0  0  0  0  0  0  0  0
    1.3310   -3.6300    0.0000 C   0  0  0  0  0  0  0  0  0  0  0  0
    0.1020   -4.4780    0.0000 C   0  0  0  0  0  0  0  0  0  0  0  0
    0.4330   -5.9420    0.0000 C   0  0  1  0  0  0  0  0  0  0  0  0
   -0.4840   -7.1110    0.0000 C   0  0  2  0  0  0  0  0  0  0  0  0
   -1.9820   -7.1250    0.0000 N   0  0  3  0  0  0  0  0  0  0  0  0
   -2.9280   -5.9590    0.0000 C   0  0  0  0  0  0  0  0  0  0  0  0
   -2.6020   -4.4950    0.0000 C   0  0  0  0  0  0  0  0  0  0  0  0
   -1.2570   -3.8350    0.0000 C   0  0  0  0  0  0  0  0  0  0  0  0
   -1.3750   -2.3400    0.0000 C   0  0  0  0  0  0  0  0  0  0  0  0
   -2.4190   -8.5510    0.0000 C   0  0  0  0  0  0  0  0  0  0  0  0
   -1.1730   -9.4210    0.0000 C   0  0  0  0  0  0  0  0  0  0  0  0
   -0.1400   -8.6020    0.0000 C   0  0  0  0  0  0  0  0  0  0  0  0
    0.4640   -8.2650    0.0000 C   0  0  0  0  0  0  0  0  0  0  0  0
    1.7850   -7.9760    0.0000 C   0  0  0  0  0  0  0  0  0  0  0  0
    3.0290   -8.8840    0.0000 O   0  0  0  0  0  0  0  0  0  0  0  0
    2.8010  -10.3670    0.0000 C   0  0  0  0  0  0  0  0  0  0  0  0
    1.8410   -6.4710    0.0000 C   0  0  1  0  0  0  0  0  0  0  0  0
    3.0810   -5.6290    0.0000 O   0  0  0  0  0  0  0  0  0  0  0  0
    4.4340   -6.2570    0.0000 C   0  0  0  0  0  0  0  0  0  0  0  0
    4.5500   -7.7570    0.0000 O   0  0  0  0  0  0  0  0  0  0  0  0
    5.6690   -5.4100    0.0000 C   0  0  1  0  0  0  0  0  0  0  0  0
    4.8160   -4.1750    0.0000 O   0  0  0  0  0  0  0  0  0  0  0  0
    6.5180   -6.6450    0.0000 C   0  0  0  0  0  0  0  0  0  0  0  0
    8.0150   -6.5260    0.0000 C   0  0  0  0  0  0  0  0  0  0  0  0
    8.8640   -7.7620    0.0000 C   0  0  0  0  0  0  0  0  0  0  0  0
   10.3600   -7.6450    0.0000 C   0  0  0  0  0  0  0  0  0  0  0  0
   11.8550   -7.5270    0.0000 O   0  0  0  0  0  0  0  0  0  0  0  0
   10.2420   -6.1490    0.0000 C   0  0  0  0  0  0  0  0  0  0  0  0
   10.4770   -9.1400    0.0000 C   0  0  0  0  0  0  0  0  0  0  0  0
    6.9040   -4.5580    0.0000 C   0  0  0  0  0  0  0  0  0  0  0  0
    6.7820   -3.0630    0.0000 C   0  0  0  0  0  0  0  0  0  0  0  0
    8.0170   -2.2100    0.0000 O   0  0  0  0  0  0  0  0  0  0  0  0
    7.8960   -0.7160    0.0000 C   0  0  0  0  0  0  0  0  0  0  0  0
    5.4270   -2.4200    0.0000 O   0  0  0  0  0  0  0  0  0  0  0  0
  1  2  1  0  0  0  0
  1  5  1  0  0  0  0
  2  3  1  0  0  0  0
  2 14  2  0  0  0  0
  3  4  1  0  0  0  0
  3  6  2  0  0  0  0
  4  5  1  0  0  0  0
  6  7  1  0  0  0  0
  7 13  2  0  0  0  0
  8  7  1  6  0  0  0
  8  9  1  0  0  0  0
  8 22  1  0  0  0  0
  9 10  1  6  0  0  0
  9 17  1  1  0  0  0
  9 18  1  0  0  0  0
 10 11  1  0  0  0  0
 10 15  1  0  0  0  0
 11 12  1  0  0  0  0
 12 13  1  0  0  0  0
 13 14  1  0  0  0  0
 15 16  1  0  0  0  0
 16 17  1  0  0  0  0
 18 19  2  0  0  0  0
 19 20  1  0  0  0  0
 19 22  1  0  0  0  0
 20 21  1  0  0  0  0
 22 23  1  6  0  0  0
 23 24  1  0  0  0  0
 24 25  2  0  0  0  0
 24 26  1  0  0  0  0
 26 27  1  1  0  0  0
 26 28  1  0  0  0  0
 26 35  1  6  0  0  0
 28 29  1  0  0  0  0
 29 30  1  0  0  0  0
 30 31  1  0  0  0  0
 31 32  1  0  0  0  0
 31 33  1  0  0  0  0
 31 34  1  0  0  0  0
 35 36  1  0  0  0  0
 36 37  1  0  0  0  0
 36 39  2  0  0  0  0
 37 38  1  0  0  0  0
M  END
>  <Index>
789

>  <ID>
HT1539

>  <class>
0

>  <apol>
85.36293

>  <ast_fraglike>
0

>  <ast_fraglike_ext>
0

>  <ast_violation>
2

>  <ast_violation_ext>
4

>  <a_acc>
8

>  <a_acid>
0

>  <a_aro>
6

>  <a_base>
0

>  <a_count>
78

>  <a_don>
2

>  <a_donacc>
10

>  <a_heavy>
39

>  <a_hyd>
26

>  <a_IC>
114.71991

>  <a_ICM>
1.4707681

>  <a_nB>
0

>  <a_nBr>
0

>  <a_nC>
29

>  <a_nCl>
0

>  <a_nF>
0

>  <a_nH>
39

>  <a_nI>
0

>  <a_nN>
1

>  <a_nO>
9

>  <a_nP>
0

>  <a_nS>
0

>  <balabanJ>
1.4231939

>  <BCUT_PEOE_0>
-2.705081

>  <BCUT_PEOE_1>
-0.40294957

>  <BCUT_PEOE_2>
0.38654017

>  <BCUT_PEOE_3>
2.8412755

>  <BCUT_SLOGP_0>
-2.7272389

>  <BCUT_SLOGP_1>
-0.37581125

>  <BCUT_SLOGP_2>
0.47356942

>  <BCUT_SLOGP_3>
2.8343277

>  <BCUT_SMR_0>
-2.475992

>  <BCUT_SMR_1>
-0.20208214

>  <BCUT_SMR_2>
0.59569627

>  <BCUT_SMR_3>
3.1011887

>  <bpol>
56.111073

>  <b_1rotN>
9

>  <b_1rotR>
0.20930232

>  <b_ar>
6

>  <b_count>
82

>  <b_double>
3

>  <b_heavy>
43

>  <b_max1len>
8

>  <b_rotN>
11

>  <b_rotR>
0.25581396

>  <b_single>
73

>  <b_triple>
0

>  <chi0>
28.001425

>  <chi0v>
23.157198

>  <chi0v_C>
18.957819

>  <chi0_C>
19.88854

>  <chi1>
18.493097

>  <chi1v>
13.664424

>  <chi1v_C>
9.3027296

>  <chi1_C>
10.369522

>  <chiral>
4

>  <chiral_u>
0

>  <density>
0.75795811

>  <diameter>
14

>  <FCharge>
0

>  <GCUT_PEOE_0>
-0.85226351

>  <GCUT_PEOE_1>
-0.41773087

>  <GCUT_PEOE_2>
-0.073909633

>  <GCUT_PEOE_3>
3.2177525

>  <GCUT_SLOGP_0>
-0.96071762

>  <GCUT_SLOGP_1>
-0.34703651

>  <GCUT_SLOGP_2>
0.026500996

>  <GCUT_SLOGP_3>
3.2425694

>  <GCUT_SMR_0>
-0.53123844

>  <GCUT_SMR_1>
-0.17612904

>  <GCUT_SMR_2>
0.091413319

>  <GCUT_SMR_3>
3.4553418

>  <Kier1>
30.457544

>  <Kier2>
11.942608

>  <Kier3>
6.0799999

>  <KierA1>
26.712694

>  <KierA2>
10.436636

>  <KierA3>
5.2996254

>  <KierFlex>
7.1484785

>  <lip_acc>
10

>  <lip_don>
2

>  <lip_druglike>
1

>  <lip_violation>
1

>  <logP(o/w)>
3.08674

>  <logS>
-4.17769

>  <mr>
14.111646

>  <mutagenic>
0

>  <nmol>
1

>  <opr_brigid>
24

>  <opr_leadlike>
0

>  <opr_nring>
5

>  <opr_nrot>
9

>  <opr_violation>
3

>  <PC+>
0

>  <PC->
0

>  <PEOE_PC+>
3.5858593

>  <PEOE_PC->
-3.5858593

>  <PEOE_RPC+>
0.08233919

>  <PEOE_RPC->
0.10851475

>  <PEOE_VSA+0>
169.8223

>  <PEOE_VSA+1>
68.344467

>  <PEOE_VSA+2>
21.821968

>  <PEOE_VSA+3>
21.201273

>  <PEOE_VSA+4>
20.648346

>  <PEOE_VSA+5>
29.416998

>  <PEOE_VSA+6>
0

>  <PEOE_VSA-0>
144.07735

>  <PEOE_VSA-1>
0

>  <PEOE_VSA-2>
0

>  <PEOE_VSA-3>
0

>  <PEOE_VSA-4>
0

>  <PEOE_VSA-5>
27.133842

>  <PEOE_VSA-6>
28.053862

>  <PEOE_VSA_FHYD>
0.80160415

>  <PEOE_VSA_FNEG>
0.37560299

>  <PEOE_VSA_FPNEG>
0.1040256

>  <PEOE_VSA_FPOL>
0.19839585

>  <PEOE_VSA_FPOS>
0.62439698

>  <PEOE_VSA_FPPOS>
0.094370253

>  <PEOE_VSA_HYD>
425.26733

>  <PEOE_VSA_NEG>
199.26506

>  <PEOE_VSA_PNEG>
55.187702

>  <PEOE_VSA_POL>
105.25304

>  <PEOE_VSA_POS>
331.25534

>  <PEOE_VSA_PPOS>
50.065342

>  <petitjean>
0.5

>  <petitjeanSC>
1

>  <Q_PC+>
0

>  <Q_PC->
0

>  <Q_RPC+>
0

>  <Q_RPC->
0

>  <Q_VSA_FHYD>
1

>  <Q_VSA_FNEG>
0

>  <Q_VSA_FPNEG>
0

>  <Q_VSA_FPOL>
0

>  <Q_VSA_FPOS>
1

>  <Q_VSA_FPPOS>
0

>  <Q_VSA_HYD>
530.52039

>  <Q_VSA_NEG>
0

>  <Q_VSA_PNEG>
0

>  <Q_VSA_POL>
0

>  <Q_VSA_POS>
530.52039

>  <Q_VSA_PPOS>
0

>  <radius>
7

>  <reactive>
0

>  <rings>
5

>  <RPC+>
0

>  <RPC->
0

>  <rsynth>
0.20512821

>  <SlogP>
2.5806701

>  <SlogP_VSA0>
72.770226

>  <SlogP_VSA1>
18.615242

>  <SlogP_VSA2>
87.192749

>  <SlogP_VSA3>
59.86327

>  <SlogP_VSA4>
6.37115

>  <SlogP_VSA5>
94.87957

>  <SlogP_VSA6>
4.4107962

>  <SlogP_VSA7>
52.929554

>  <SlogP_VSA8>
113.21043

>  <SlogP_VSA9>
77.138885

>  <SMR>
13.92516

>  <SMR_VSA0>
80.724098

>  <SMR_VSA1>
75.894539

>  <SMR_VSA2>
0

>  <SMR_VSA3>
32.980881

>  <SMR_VSA4>
0

>  <SMR_VSA5>
185.00839

>  <SMR_VSA6>
75.354195

>  <SMR_VSA7>
137.41977

>  <TPSA>
123.99

>  <VAdjEq>
0.31356117

>  <VAdjMa>
6.4262648

>  <VDistEq>
3.6206024

>  <VDistMa>
10.326792

>  <vdw_area>
530.52039

>  <vdw_vol>
719.86694

>  <vsa_acc>
34.645111

>  <vsa_acid>
0

>  <vsa_base>
0

>  <vsa_don>
0

>  <vsa_hyd>
369.2774

>  <vsa_other>
62.732964

>  <vsa_pol>
61.778954

>  <Weight>
545.62897

>  <weinerPath>
4573

>  <weinerPol>
72

>  <zagreb>
218

$$$$