Clc1cc(-c2cc(Cl)cc([N+](=O)[O-])c2O)c(O)c([N+](=O)[O-])c1
  MOE2013           2D

 22 23  0  0  0  0  0  0  0  0999 V2000
    0.0000    0.0000    0.0000 Cl  0  0  0  0  0  0  0  0  0  0  0  0
    0.7550   -1.2960    0.0000 C   0  0  0  0  0  0  0  0  0  0  0  0
    2.2550   -1.2910    0.0000 C   0  0  0  0  0  0  0  0  0  0  0  0
    3.0090   -2.5870    0.0000 C   0  0  0  0  0  0  0  0  0  0  0  0
    4.5090   -2.5820    0.0000 C   0  0  0  0  0  0  0  0  0  0  0  0
    5.2640   -3.8790    0.0000 C   0  0  0  0  0  0  0  0  0  0  0  0
    6.7640   -3.8730    0.0000 C   0  0  0  0  0  0  0  0  0  0  0  0
    7.5180   -5.1700    0.0000 Cl  0  0  0  0  0  0  0  0  0  0  0  0
    7.5090   -2.5720    0.0000 C   0  0  0  0  0  0  0  0  0  0  0  0
    6.7550   -1.2750    0.0000 C   0  0  0  0  0  0  0  0  0  0  0  0
    7.5000    0.0260    0.0000 N   0  3  0  0  0  0  0  0  0  0  0  0
    6.7450    1.3230    0.0000 O   0  0  0  0  0  0  0  0  0  0  0  0
    9.0000    0.0320    0.0000 O   0  5  0  0  0  0  0  0  0  0  0  0
    5.2550   -1.2800    0.0000 C   0  0  0  0  0  0  0  0  0  0  0  0
    4.5000    0.0160    0.0000 O   0  0  0  0  0  0  0  0  0  0  0  0
    2.2640   -3.8890    0.0000 C   0  0  0  0  0  0  0  0  0  0  0  0
    3.0180   -5.1860    0.0000 O   0  0  0  0  0  0  0  0  0  0  0  0
    0.7640   -3.8940    0.0000 C   0  0  0  0  0  0  0  0  0  0  0  0
    0.0180   -5.1960    0.0000 N   0  3  0  0  0  0  0  0  0  0  0  0
    0.7730   -6.4930    0.0000 O   0  0  0  0  0  0  0  0  0  0  0  0
   -1.4820   -5.2010    0.0000 O   0  5  0  0  0  0  0  0  0  0  0  0
    0.0090   -2.5980    0.0000 C   0  0  0  0  0  0  0  0  0  0  0  0
  1  2  1  0  0  0  0
  2  3  1  0  0  0  0
  2 22  2  0  0  0  0
  3  4  2  0  0  0  0
  4  5  1  0  0  0  0
  4 16  1  0  0  0  0
  5  6  1  0  0  0  0
  5 14  2  0  0  0  0
  6  7  2  0  0  0  0
  7  8  1  0  0  0  0
  7  9  1  0  0  0  0
  9 10  2  0  0  0  0
 10 11  1  0  0  0  0
 10 14  1  0  0  0  0
 11 12  2  0  0  0  0
 11 13  1  0  0  0  0
 14 15  1  0  0  0  0
 16 17  1  0  0  0  0
 16 18  2  0  0  0  0
 18 19  1  0  0  0  0
 18 22  1  0  0  0  0
 19 20  2  0  0  0  0
 19 21  1  0  0  0  0
M  CHG  1  11   1
M  CHG  1  13  -1
M  CHG  1  19   1
M  CHG  1  21  -1
M  END
>  <Index>
763

>  <ID>
HT1485

>  <class>
0

>  <apol>
36.49276

>  <ast_fraglike>
0

>  <ast_fraglike_ext>
0

>  <ast_violation>
2

>  <ast_violation_ext>
2

>  <a_acc>
2

>  <a_acid>
0

>  <a_aro>
12

>  <a_base>
0

>  <a_count>
28

>  <a_don>
2

>  <a_donacc>
4

>  <a_heavy>
22

>  <a_hyd>
16

>  <a_IC>
56.566837

>  <a_ICM>
2.0202441

>  <a_nB>
0

>  <a_nBr>
0

>  <a_nC>
12

>  <a_nCl>
2

>  <a_nF>
0

>  <a_nH>
6

>  <a_nI>
0

>  <a_nN>
2

>  <a_nO>
6

>  <a_nP>
0

>  <a_nS>
0

>  <balabanJ>
2.2077174

>  <BCUT_PEOE_0>
-2.2076609

>  <BCUT_PEOE_1>
-0.68155193

>  <BCUT_PEOE_2>
0.68637222

>  <BCUT_PEOE_3>
2.3209867

>  <BCUT_SLOGP_0>
-2.0453899

>  <BCUT_SLOGP_1>
-0.40806589

>  <BCUT_SLOGP_2>
0.98815954

>  <BCUT_SLOGP_3>
2.5266752

>  <BCUT_SMR_0>
-1.9295199

>  <BCUT_SMR_1>
-0.32663006

>  <BCUT_SMR_2>
1.0346622

>  <BCUT_SMR_3>
2.5927074

>  <bpol>
9.9112415

>  <b_1rotN>
3

>  <b_1rotR>
0.13043478

>  <b_ar>
12

>  <b_count>
29

>  <b_double>
2

>  <b_heavy>
23

>  <b_max1len>
1

>  <b_rotN>
3

>  <b_rotR>
0.13043478

>  <b_single>
15

>  <b_triple>
0

>  <chi0>
16.601931

>  <chi0v>
11.999036

>  <chi0v_C>
6.309401

>  <chi0_C>
7.4472294

>  <chi1>
10.218122

>  <chi1v>
6.3180184

>  <chi1v_C>
3.559401

>  <chi1_C>
4.932653

>  <chiral>
0

>  <chiral_u>
0

>  <density>
1.0131819

>  <diameter>
9

>  <FCharge>
0

>  <GCUT_PEOE_0>
-0.73542631

>  <GCUT_PEOE_1>
-0.42416143

>  <GCUT_PEOE_2>
0.14463016

>  <GCUT_PEOE_3>
2.3930006

>  <GCUT_SLOGP_0>
-0.80994892

>  <GCUT_SLOGP_1>
-0.19077352

>  <GCUT_SLOGP_2>
0.39112785

>  <GCUT_SLOGP_3>
2.5865788

>  <GCUT_SMR_0>
-0.4915992

>  <GCUT_SMR_1>
-0.15740582

>  <GCUT_SMR_2>
0.45725206

>  <GCUT_SMR_3>
2.6652112

>  <Kier1>
18.340265

>  <Kier2>
7.2664361

>  <Kier3>
3.9256198

>  <KierA1>
15.121975

>  <KierA2>
5.9327521

>  <KierA3>
3.1823306

>  <KierFlex>
4.0779514

>  <lip_acc>
8

>  <lip_don>
2

>  <lip_druglike>
1

>  <lip_violation>
0

>  <logP(o/w)>
4.4439998

>  <logS>
-6.1364002

>  <mr>
7.4777131

>  <mutagenic>
1

>  <nmol>
1

>  <opr_brigid>
12

>  <opr_leadlike>
1

>  <opr_nring>
2

>  <opr_nrot>
3

>  <opr_violation>
0

>  <PC+>
0

>  <PC->
0

>  <PEOE_PC+>
1.9726526

>  <PEOE_PC->
-1.9726526

>  <PEOE_RPC+>
0.15331592

>  <PEOE_RPC->
0.17936343

>  <PEOE_VSA+0>
37.966381

>  <PEOE_VSA+1>
25.117613

>  <PEOE_VSA+2>
0

>  <PEOE_VSA+3>
16.917038

>  <PEOE_VSA+4>
20.648346

>  <PEOE_VSA+5>
0

>  <PEOE_VSA+6>
13.399102

>  <PEOE_VSA-0>
24.509808

>  <PEOE_VSA-1>
59.163895

>  <PEOE_VSA-2>
0

>  <PEOE_VSA-3>
0

>  <PEOE_VSA-4>
0

>  <PEOE_VSA-5>
67.862099

>  <PEOE_VSA-6>
15.535081

>  <PEOE_VSA_FHYD>
0.58222502

>  <PEOE_VSA_FNEG>
0.59430587

>  <PEOE_VSA_FPNEG>
0.29666111

>  <PEOE_VSA_FPOL>
0.41777495

>  <PEOE_VSA_FPOS>
0.40569416

>  <PEOE_VSA_FPPOS>
0.12111385

>  <PEOE_VSA_HYD>
163.67473

>  <PEOE_VSA_NEG>
167.07088

>  <PEOE_VSA_PNEG>
83.397179

>  <PEOE_VSA_POL>
117.44463

>  <PEOE_VSA_POS>
114.04848

>  <PEOE_VSA_PPOS>
34.047447

>  <petitjean>
0.44444445

>  <petitjeanSC>
0.80000001

>  <Q_PC+>
0

>  <Q_PC->
0

>  <Q_RPC+>
0

>  <Q_RPC->
0

>  <Q_VSA_FHYD>
1

>  <Q_VSA_FNEG>
0

>  <Q_VSA_FPNEG>
0

>  <Q_VSA_FPOL>
0

>  <Q_VSA_FPOS>
1

>  <Q_VSA_FPPOS>
0

>  <Q_VSA_HYD>
281.11935

>  <Q_VSA_NEG>
0

>  <Q_VSA_PNEG>
0

>  <Q_VSA_POL>
0

>  <Q_VSA_POS>
281.11935

>  <Q_VSA_PPOS>
0

>  <radius>
5

>  <reactive>
1

>  <rings>
2

>  <RPC+>
0

>  <RPC->
0

>  <rsynth>
0

>  <SlogP>
3.888

>  <SlogP_VSA0>
50.770454

>  <SlogP_VSA1>
14.171232

>  <SlogP_VSA2>
0

>  <SlogP_VSA3>
101.87002

>  <SlogP_VSA4>
0

>  <SlogP_VSA5>
0

>  <SlogP_VSA6>
7.0012131

>  <SlogP_VSA7>
76.943886

>  <SlogP_VSA8>
0

>  <SlogP_VSA9>
94.297638

>  <SMR>
7.8536401

>  <SMR_VSA0>
14.171232

>  <SMR_VSA1>
50.770454

>  <SMR_VSA2>
101.87002

>  <SMR_VSA3>
17.48807

>  <SMR_VSA4>
11.884645

>  <SMR_VSA5>
70.572739

>  <SMR_VSA6>
0

>  <SMR_VSA7>
78.297287

>  <TPSA>
132.10001

>  <VAdjEq>
0.4530769

>  <VAdjMa>
5.523562

>  <VDistEq>
2.9995728

>  <VDistMa>
8.6660013

>  <vdw_area>
281.11935

>  <vdw_vol>
340.60419

>  <vsa_acc>
0

>  <vsa_acid>
0

>  <vsa_base>
0

>  <vsa_don>
0

>  <vsa_hyd>
174.22665

>  <vsa_other>
67.862099

>  <vsa_pol>
27.133842

>  <Weight>
345.09399

>  <weinerPath>
967

>  <weinerPol>
38

>  <zagreb>
114

$$$$