O(C)c1ccc(cc1)C(=O)N1CCCC1=O
  MOE2013           2D

 16 17  0  0  0  0  0  0  0  0999 V2000
    0.0000    0.0000    0.0000 O   0  0  0  0  0  0  0  0  0  0  0  0
    0.7450   -1.3020    0.0000 C   0  0  0  0  0  0  0  0  0  0  0  0
   -1.5000    0.0050    0.0000 C   0  0  0  0  0  0  0  0  0  0  0  0
   -2.2450    1.3070    0.0000 C   0  0  0  0  0  0  0  0  0  0  0  0
   -3.7450    1.3130    0.0000 C   0  0  0  0  0  0  0  0  0  0  0  0
   -4.5000    0.0160    0.0000 C   0  0  0  0  0  0  0  0  0  0  0  0
   -3.7550   -1.2850    0.0000 C   0  0  0  0  0  0  0  0  0  0  0  0
   -2.2550   -1.2910    0.0000 C   0  0  0  0  0  0  0  0  0  0  0  0
   -6.0000    0.0220    0.0000 C   0  0  0  0  0  0  0  0  0  0  0  0
   -6.7550   -1.2740    0.0000 O   0  0  0  0  0  0  0  0  0  0  0  0
   -6.7450    1.3240    0.0000 N   0  0  0  0  0  0  0  0  0  0  0  0
   -6.1300    2.6920    0.0000 C   0  0  0  0  0  0  0  0  0  0  0  0
   -7.2410    3.6990    0.0000 C   0  0  0  0  0  0  0  0  0  0  0  0
   -8.5430    2.9540    0.0000 C   0  0  0  0  0  0  0  0  0  0  0  0
   -8.2360    1.4860    0.0000 C   0  0  0  0  0  0  0  0  0  0  0  0
   -9.2440    0.3750    0.0000 O   0  0  0  0  0  0  0  0  0  0  0  0
  1  2  1  0  0  0  0
  1  3  1  0  0  0  0
  3  4  1  0  0  0  0
  3  8  2  0  0  0  0
  4  5  2  0  0  0  0
  5  6  1  0  0  0  0
  6  7  2  0  0  0  0
  6  9  1  0  0  0  0
  7  8  1  0  0  0  0
  9 10  2  0  0  0  0
  9 11  1  0  0  0  0
 11 12  1  0  0  0  0
 11 15  1  0  0  0  0
 12 13  1  0  0  0  0
 13 14  1  0  0  0  0
 14 15  1  0  0  0  0
 15 16  2  0  0  0  0
M  END
>  <Index>
78

>  <ID>
HT0161

>  <class>
0

>  <apol>
33.294308

>  <ast_fraglike>
1

>  <ast_fraglike_ext>
1

>  <ast_violation>
0

>  <ast_violation_ext>
0

>  <a_acc>
3

>  <a_acid>
0

>  <a_aro>
6

>  <a_base>
0

>  <a_count>
29

>  <a_don>
0

>  <a_donacc>
3

>  <a_heavy>
16

>  <a_hyd>
10

>  <a_IC>
45.001293

>  <a_ICM>
1.5517688

>  <a_nB>
0

>  <a_nBr>
0

>  <a_nC>
12

>  <a_nCl>
0

>  <a_nF>
0

>  <a_nH>
13

>  <a_nI>
0

>  <a_nN>
1

>  <a_nO>
3

>  <a_nP>
0

>  <a_nS>
0

>  <balabanJ>
1.8476701

>  <BCUT_PEOE_0>
-2.4272513

>  <BCUT_PEOE_1>
-0.61127472

>  <BCUT_PEOE_2>
0.57817471

>  <BCUT_PEOE_3>
2.6373382

>  <BCUT_SLOGP_0>
-2.4939795

>  <BCUT_SLOGP_1>
-0.52494848

>  <BCUT_SLOGP_2>
0.58562523

>  <BCUT_SLOGP_3>
2.6169357

>  <BCUT_SMR_0>
-2.1999762

>  <BCUT_SMR_1>
-0.42721808

>  <BCUT_SMR_2>
0.76719868

>  <BCUT_SMR_3>
2.8887026

>  <bpol>
20.023691

>  <b_1rotN>
3

>  <b_1rotR>
0.17647059

>  <b_ar>
6

>  <b_count>
30

>  <b_double>
2

>  <b_heavy>
17

>  <b_max1len>
2

>  <b_rotN>
3

>  <b_rotR>
0.17647059

>  <b_single>
22

>  <b_triple>
0

>  <chi0>
11.543606

>  <chi0v>
9.1026802

>  <chi0v_C>
7.4307213

>  <chi0_C>
8.2591486

>  <chi1>
7.7195454

>  <chi1v>
5.2089825

>  <chi1v_C>
3.4249206

>  <chi1_C>
4.3745747

>  <chiral>
0

>  <chiral_u>
0

>  <density>
0.74961311

>  <diameter>
9

>  <FCharge>
0

>  <GCUT_PEOE_0>
-0.79950231

>  <GCUT_PEOE_1>
-0.43115771

>  <GCUT_PEOE_2>
0.035761155

>  <GCUT_PEOE_3>
2.3791492

>  <GCUT_SLOGP_0>
-0.97468114

>  <GCUT_SLOGP_1>
-0.33635622

>  <GCUT_SLOGP_2>
0.098066621

>  <GCUT_SLOGP_3>
2.4110193

>  <GCUT_SMR_0>
-0.52230513

>  <GCUT_SMR_1>
-0.20907082

>  <GCUT_SMR_2>
0.16679075

>  <GCUT_SMR_3>
2.6410809

>  <Kier1>
12.456747

>  <Kier2>
5.5576558

>  <Kier3>
2.8311112

>  <KierA1>
9.045125

>  <KierA2>
3.9409897

>  <KierA3>
1.9719763

>  <KierFlex>
2.2279217

>  <lip_acc>
4

>  <lip_don>
0

>  <lip_druglike>
1

>  <lip_violation>
0

>  <logP(o/w)>
1.387

>  <logS>
-2.0952401

>  <mr>
6.0288482

>  <mutagenic>
0

>  <nmol>
1

>  <opr_brigid>
11

>  <opr_leadlike>
1

>  <opr_nring>
2

>  <opr_nrot>
2

>  <opr_violation>
0

>  <PC+>
0

>  <PC->
0

>  <PEOE_PC+>
1.348557

>  <PEOE_PC->
-1.348557

>  <PEOE_RPC+>
0.19348711

>  <PEOE_RPC->
0.2579883

>  <PEOE_VSA+0>
74.692154

>  <PEOE_VSA+1>
38.316223

>  <PEOE_VSA+2>
0

>  <PEOE_VSA+3>
0

>  <PEOE_VSA+4>
12.949531

>  <PEOE_VSA+5>
12.949531

>  <PEOE_VSA+6>
0

>  <PEOE_VSA-0>
57.720928

>  <PEOE_VSA-1>
0

>  <PEOE_VSA-2>
0

>  <PEOE_VSA-3>
0

>  <PEOE_VSA-4>
0

>  <PEOE_VSA-5>
27.133842

>  <PEOE_VSA-6>
2.503756

>  <PEOE_VSA_FHYD>
0.75455141

>  <PEOE_VSA_FNEG>
0.38608781

>  <PEOE_VSA_FPNEG>
0.13098566

>  <PEOE_VSA_FPOL>
0.24544859

>  <PEOE_VSA_FPOS>
0.61391222

>  <PEOE_VSA_FPPOS>
0.11446292

>  <PEOE_VSA_HYD>
170.72931

>  <PEOE_VSA_NEG>
87.358528

>  <PEOE_VSA_PNEG>
29.637598

>  <PEOE_VSA_POL>
55.536659

>  <PEOE_VSA_POS>
138.90744

>  <PEOE_VSA_PPOS>
25.899061

>  <petitjean>
0.44444445

>  <petitjeanSC>
0.80000001

>  <Q_PC+>
0

>  <Q_PC->
0

>  <Q_RPC+>
0

>  <Q_RPC->
0

>  <Q_VSA_FHYD>
1

>  <Q_VSA_FNEG>
0

>  <Q_VSA_FPNEG>
0

>  <Q_VSA_FPOL>
0

>  <Q_VSA_FPOS>
1

>  <Q_VSA_FPPOS>
0

>  <Q_VSA_HYD>
226.26596

>  <Q_VSA_NEG>
0

>  <Q_VSA_PNEG>
0

>  <Q_VSA_POL>
0

>  <Q_VSA_POS>
226.26596

>  <Q_VSA_PPOS>
0

>  <radius>
5

>  <reactive>
0

>  <rings>
2

>  <RPC+>
0

>  <RPC->
0

>  <rsynth>
1

>  <SlogP>
1.4578

>  <SlogP_VSA0>
10.999887

>  <SlogP_VSA1>
13.641881

>  <SlogP_VSA2>
23.862217

>  <SlogP_VSA3>
18.439579

>  <SlogP_VSA4>
27.047791

>  <SlogP_VSA5>
35.383869

>  <SlogP_VSA6>
0

>  <SlogP_VSA7>
70.572739

>  <SlogP_VSA8>
37.736813

>  <SlogP_VSA9>
5.2434282

>  <SMR>
5.8271499

>  <SMR_VSA0>
47.724434

>  <SMR_VSA1>
14.124202

>  <SMR_VSA2>
0

>  <SMR_VSA3>
8.4290028

>  <SMR_VSA4>
0

>  <SMR_VSA5>
108.30955

>  <SMR_VSA6>
28.957146

>  <SMR_VSA7>
35.383869

>  <TPSA>
46.610001

>  <VAdjEq>
0.56510133

>  <VAdjMa>
5.0874629

>  <VDistEq>
2.9563267

>  <VDistMa>
7.6801038

>  <vdw_area>
226.26596

>  <vdw_vol>
292.47086

>  <vsa_acc>
29.637598

>  <vsa_acid>
0

>  <vsa_base>
0

>  <vsa_don>
0

>  <vsa_hyd>
161.47597

>  <vsa_other>
25.899061

>  <vsa_pol>
29.637598

>  <Weight>
219.23999

>  <weinerPath>
453

>  <weinerPol>
22

>  <zagreb>
80

$$$$