Fc1cc2c(cc1)[C@H](C(C)C)[C@](OC(=O)COC)(CC2)CCN(CCCc1[nH]c2c(n1)cccc2)C
  MOE2013           2D

 36 39  0  0  1  0  0  0  0  0999 V2000
    0.0000    0.0000    0.0000 F   0  0  0  0  0  0  0  0  0  0  0  0
   -1.5000    0.0070    0.0000 C   0  0  0  0  0  0  0  0  0  0  0  0
   -2.2440    1.3090    0.0000 C   0  0  0  0  0  0  0  0  0  0  0  0
   -3.7440    1.3150    0.0000 C   0  0  0  0  0  0  0  0  0  0  0  0
   -4.5000    0.0200    0.0000 C   0  0  0  0  0  0  0  0  0  0  0  0
   -3.7560   -1.2830    0.0000 C   0  0  0  0  0  0  0  0  0  0  0  0
   -2.2560   -1.2890    0.0000 C   0  0  0  0  0  0  0  0  0  0  0  0
   -6.0000    0.0260    0.0000 C   0  0  2  0  0  0  0  0  0  0  0  0
   -6.7560   -1.2700    0.0000 C   0  0  0  0  0  0  0  0  0  0  0  0
   -8.2560   -1.2630    0.0000 C   0  0  0  0  0  0  0  0  0  0  0  0
   -6.0110   -2.5720    0.0000 C   0  0  0  0  0  0  0  0  0  0  0  0
   -6.7440    1.3290    0.0000 C   0  0  2  0  0  0  0  0  0  0  0  0
   -8.0400    2.0840    0.0000 O   0  0  0  0  0  0  0  0  0  0  0  0
   -8.0330    3.5840    0.0000 C   0  0  0  0  0  0  0  0  0  0  0  0
   -9.3290    4.3400    0.0000 O   0  0  0  0  0  0  0  0  0  0  0  0
   -6.7310    4.3280    0.0000 C   0  0  0  0  0  0  0  0  0  0  0  0
   -6.7250    5.8280    0.0000 O   0  0  0  0  0  0  0  0  0  0  0  0
   -5.4220    6.5730    0.0000 C   0  0  0  0  0  0  0  0  0  0  0  0
   -5.9890    2.6240    0.0000 C   0  0  0  0  0  0  0  0  0  0  0  0
   -4.4890    2.6180    0.0000 C   0  0  0  0  0  0  0  0  0  0  0  0
   -8.0470    0.5840    0.0000 C   0  0  0  0  0  0  0  0  0  0  0  0
   -9.3420    1.3400    0.0000 C   0  0  0  0  0  0  0  0  0  0  0  0
  -10.6450    0.5960    0.0000 N   0  0  3  0  0  0  0  0  0  0  0  0
  -11.9400    1.3510    0.0000 C   0  0  0  0  0  0  0  0  0  0  0  0
  -13.2430    0.6070    0.0000 C   0  0  0  0  0  0  0  0  0  0  0  0
  -14.5380    1.3630    0.0000 C   0  0  0  0  0  0  0  0  0  0  0  0
  -15.8410    0.6180    0.0000 C   0  0  0  0  0  0  0  0  0  0  0  0
  -17.2080    1.2340    0.0000 N   0  0  0  0  0  0  0  0  0  0  0  0
  -18.2170    0.1240    0.0000 C   0  0  0  0  0  0  0  0  0  0  0  0
  -17.4730   -1.1780    0.0000 C   0  0  0  0  0  0  0  0  0  0  0  0
  -16.0040   -0.8730    0.0000 N   0  0  0  0  0  0  0  0  0  0  0  0
  -18.2280   -2.4740    0.0000 C   0  0  0  0  0  0  0  0  0  0  0  0
  -19.7280   -2.4670    0.0000 C   0  0  0  0  0  0  0  0  0  0  0  0
  -20.4730   -1.1650    0.0000 C   0  0  0  0  0  0  0  0  0  0  0  0
  -19.7170    0.1310    0.0000 C   0  0  0  0  0  0  0  0  0  0  0  0
  -10.6510   -0.9040    0.0000 C   0  0  0  0  0  0  0  0  0  0  0  0
  1  2  1  0  0  0  0
  2  3  1  0  0  0  0
  2  7  2  0  0  0  0
  3  4  2  0  0  0  0
  4  5  1  0  0  0  0
  4 20  1  0  0  0  0
  5  6  2  0  0  0  0
  5  8  1  0  0  0  0
  6  7  1  0  0  0  0
  8  9  1  6  0  0  0
  8 12  1  0  0  0  0
  9 10  1  0  0  0  0
  9 11  1  0  0  0  0
 12 13  1  6  0  0  0
 12 19  1  0  0  0  0
 12 21  1  1  0  0  0
 13 14  1  0  0  0  0
 14 15  2  0  0  0  0
 14 16  1  0  0  0  0
 16 17  1  0  0  0  0
 17 18  1  0  0  0  0
 19 20  1  0  0  0  0
 21 22  1  0  0  0  0
 22 23  1  0  0  0  0
 23 24  1  0  0  0  0
 23 36  1  0  0  0  0
 24 25  1  0  0  0  0
 25 26  1  0  0  0  0
 26 27  1  0  0  0  0
 27 28  1  0  0  0  0
 27 31  2  0  0  0  0
 28 29  1  0  0  0  0
 29 30  2  0  0  0  0
 29 35  1  0  0  0  0
 30 31  1  0  0  0  0
 30 32  1  0  0  0  0
 32 33  2  0  0  0  0
 33 34  1  0  0  0  0
 34 35  2  0  0  0  0
M  END
>  <Index>
707

>  <ID>
HT1390

>  <class>
0

>  <apol>
82.641136

>  <ast_fraglike>
0

>  <ast_fraglike_ext>
0

>  <ast_violation>
3

>  <ast_violation_ext>
4

>  <a_acc>
5

>  <a_acid>
0

>  <a_aro>
15

>  <a_base>
0

>  <a_count>
74

>  <a_don>
2

>  <a_donacc>
7

>  <a_heavy>
36

>  <a_hyd>
28

>  <a_IC>
109.68708

>  <a_ICM>
1.4822578

>  <a_nB>
0

>  <a_nBr>
0

>  <a_nC>
29

>  <a_nCl>
0

>  <a_nF>
1

>  <a_nH>
38

>  <a_nI>
0

>  <a_nN>
3

>  <a_nO>
3

>  <a_nP>
0

>  <a_nS>
0

>  <balabanJ>
1.3358246

>  <BCUT_PEOE_0>
-2.8064342

>  <BCUT_PEOE_1>
-0.49820969

>  <BCUT_PEOE_2>
0.48376825

>  <BCUT_PEOE_3>
2.7945325

>  <BCUT_SLOGP_0>
-2.8077722

>  <BCUT_SLOGP_1>
-0.37311834

>  <BCUT_SLOGP_2>
0.59025568

>  <BCUT_SLOGP_3>
2.830308

>  <BCUT_SMR_0>
-2.5581255

>  <BCUT_SMR_1>
-0.33655986

>  <BCUT_SMR_2>
0.66470689

>  <BCUT_SMR_3>
3.0407209

>  <bpol>
51.494865

>  <b_1rotN>
11

>  <b_1rotR>
0.2820513

>  <b_ar>
16

>  <b_count>
77

>  <b_double>
1

>  <b_heavy>
39

>  <b_max1len>
8

>  <b_rotN>
12

>  <b_rotR>
0.30769232

>  <b_single>
60

>  <b_triple>
0

>  <chi0>
25.708532

>  <chi0v>
21.850143

>  <chi0v_C>
18.853006

>  <chi0_C>
20.302753

>  <chi1>
17.3085

>  <chi1v>
12.923697

>  <chi1v_C>
9.3985348

>  <chi1_C>
11.158051

>  <chiral>
2

>  <chiral_u>
0

>  <density>
0.70741552

>  <diameter>
17

>  <FCharge>
0

>  <GCUT_PEOE_0>
-0.8617714

>  <GCUT_PEOE_1>
-0.37168902

>  <GCUT_PEOE_2>
-0.019068541

>  <GCUT_PEOE_3>
3.1080582

>  <GCUT_SLOGP_0>
-0.95352936

>  <GCUT_SLOGP_1>
-0.27112693

>  <GCUT_SLOGP_2>
0.097856984

>  <GCUT_SLOGP_3>
3.1575913

>  <GCUT_SMR_0>
-0.53176051

>  <GCUT_SMR_1>
-0.18208544

>  <GCUT_SMR_2>
0.14436994

>  <GCUT_SMR_3>
3.3439901

>  <Kier1>
28.994083

>  <Kier2>
13.375207

>  <Kier3>
7.3587961

>  <KierA1>
23.501059

>  <KierA2>
10.772646

>  <KierA3>
5.9006023

>  <KierFlex>
7.0324612

>  <lip_acc>
6

>  <lip_don>
1

>  <lip_druglike>
1

>  <lip_violation>
1

>  <logP(o/w)>
5.5527401

>  <logS>
-6.2658701

>  <mr>
14.19967

>  <mutagenic>
0

>  <nmol>
1

>  <opr_brigid>
21

>  <opr_leadlike>
0

>  <opr_nring>
4

>  <opr_nrot>
12

>  <opr_violation>
3

>  <PC+>
0

>  <PC->
0

>  <PEOE_PC+>
2.6611452

>  <PEOE_PC->
-2.6611452

>  <PEOE_RPC+>
0.10846178

>  <PEOE_RPC->
0.14016362

>  <PEOE_VSA+0>
153.52594

>  <PEOE_VSA+1>
64.583733

>  <PEOE_VSA+2>
35.162701

>  <PEOE_VSA+3>
8.6190128

>  <PEOE_VSA+4>
0

>  <PEOE_VSA+5>
14.708499

>  <PEOE_VSA+6>
0

>  <PEOE_VSA-0>
124.67296

>  <PEOE_VSA-1>
74.260063

>  <PEOE_VSA-2>
0

>  <PEOE_VSA-3>
0

>  <PEOE_VSA-4>
17.591211

>  <PEOE_VSA-5>
13.566921

>  <PEOE_VSA-6>
5.1444035

>  <PEOE_VSA_FHYD>
0.90033704

>  <PEOE_VSA_FNEG>
0.45959216

>  <PEOE_VSA_FPNEG>
0.070926182

>  <PEOE_VSA_FPOL>
0.09966296

>  <PEOE_VSA_FPOS>
0.54040784

>  <PEOE_VSA_FPPOS>
0.028736772

>  <PEOE_VSA_HYD>
460.82443

>  <PEOE_VSA_NEG>
235.23557

>  <PEOE_VSA_PNEG>
36.302536

>  <PEOE_VSA_POL>
51.011036

>  <PEOE_VSA_POS>
276.59988

>  <PEOE_VSA_PPOS>
14.708499

>  <petitjean>
0.47058824

>  <petitjeanSC>
0.8888889

>  <Q_PC+>
0

>  <Q_PC->
0

>  <Q_RPC+>
0

>  <Q_RPC->
0

>  <Q_VSA_FHYD>
1

>  <Q_VSA_FNEG>
0

>  <Q_VSA_FPNEG>
0

>  <Q_VSA_FPOL>
0

>  <Q_VSA_FPOS>
1

>  <Q_VSA_FPPOS>
0

>  <Q_VSA_HYD>
511.83545

>  <Q_VSA_NEG>
0

>  <Q_VSA_PNEG>
0

>  <Q_VSA_POL>
0

>  <Q_VSA_POS>
511.83545

>  <Q_VSA_PPOS>
0

>  <radius>
9

>  <reactive>
0

>  <rings>
4

>  <RPC+>
0

>  <RPC->
0

>  <rsynth>
0.3611111

>  <SlogP>
5.2708402

>  <SlogP_VSA0>
0

>  <SlogP_VSA1>
27.655308

>  <SlogP_VSA2>
71.768539

>  <SlogP_VSA3>
57.805416

>  <SlogP_VSA4>
13.109866

>  <SlogP_VSA5>
106.01787

>  <SlogP_VSA6>
4.4107962

>  <SlogP_VSA7>
127.79057

>  <SlogP_VSA8>
56.605217

>  <SlogP_VSA9>
81.612144

>  <SMR>
13.95277

>  <SMR_VSA0>
45.861992

>  <SMR_VSA1>
34.869957

>  <SMR_VSA2>
30.317343

>  <SMR_VSA3>
13.109866

>  <SMR_VSA4>
4.2882738

>  <SMR_VSA5>
217.84431

>  <SMR_VSA6>
65.55088

>  <SMR_VSA7>
134.93309

>  <TPSA>
67.449997

>  <VAdjEq>
0.3281796

>  <VAdjMa>
6.2854023

>  <VDistEq>
3.8819273

>  <VDistMa>
10.045484

>  <vdw_area>
511.83545

>  <vdw_vol>
700.63342

>  <vsa_acc>
16.070677

>  <vsa_acid>
0

>  <vsa_base>
0

>  <vsa_don>
0

>  <vsa_hyd>
423.89694

>  <vsa_other>
28.402819

>  <vsa_pol>
27.435829

>  <Weight>
495.63898

>  <weinerPath>
4374

>  <weinerPol>
58

>  <zagreb>
188

$$$$