N(Cc1c2c(ccc1)cccc2)(CC=Cc1ccccc1)C
  MOE2013           2D

 22 24  0  0  1  0  0  0  0  0999 V2000
    0.0000    0.0000    0.0000 N   0  0  3  0  0  0  0  0  0  0  0  0
   -1.5000    0.0100    0.0000 C   0  0  0  0  0  0  0  0  0  0  0  0
   -2.2420    1.3130    0.0000 C   0  0  0  0  0  0  0  0  0  0  0  0
   -3.7420    1.3230    0.0000 C   0  0  0  0  0  0  0  0  0  0  0  0
   -4.4830    2.6270    0.0000 C   0  0  0  0  0  0  0  0  0  0  0  0
   -3.7250    3.9210    0.0000 C   0  0  0  0  0  0  0  0  0  0  0  0
   -2.2250    3.9110    0.0000 C   0  0  0  0  0  0  0  0  0  0  0  0
   -1.4830    2.6080    0.0000 C   0  0  0  0  0  0  0  0  0  0  0  0
   -5.9830    2.6360    0.0000 C   0  0  0  0  0  0  0  0  0  0  0  0
   -6.7420    1.3420    0.0000 C   0  0  0  0  0  0  0  0  0  0  0  0
   -6.0000    0.0380    0.0000 C   0  0  0  0  0  0  0  0  0  0  0  0
   -4.5000    0.0290    0.0000 C   0  0  0  0  0  0  0  0  0  0  0  0
    0.7420   -1.3040    0.0000 C   0  0  0  0  0  0  0  0  0  0  0  0
    2.2420   -1.3130    0.0000 C   0  0  0  0  0  0  0  0  0  0  0  0
    2.9830   -2.6170    0.0000 C   0  0  0  0  0  0  0  0  0  0  0  0
    4.4830   -2.6270    0.0000 C   0  0  0  0  0  0  0  0  0  0  0  0
    5.2420   -1.3320    0.0000 C   0  0  0  0  0  0  0  0  0  0  0  0
    6.7420   -1.3420    0.0000 C   0  0  0  0  0  0  0  0  0  0  0  0
    7.4830   -2.6460    0.0000 C   0  0  0  0  0  0  0  0  0  0  0  0
    6.7250   -3.9400    0.0000 C   0  0  0  0  0  0  0  0  0  0  0  0
    5.2250   -3.9310    0.0000 C   0  0  0  0  0  0  0  0  0  0  0  0
    0.7580    1.2940    0.0000 C   0  0  0  0  0  0  0  0  0  0  0  0
  1  2  1  0  0  0  0
  1 13  1  0  0  0  0
  1 22  1  0  0  0  0
  2  3  1  0  0  0  0
  3  4  1  0  0  0  0
  3  8  2  0  0  0  0
  4  5  1  0  0  0  0
  4 12  2  0  0  0  0
  5  6  1  0  0  0  0
  5  9  2  0  0  0  0
  6  7  2  0  0  0  0
  7  8  1  0  0  0  0
  9 10  1  0  0  0  0
 10 11  2  0  0  0  0
 11 12  1  0  0  0  0
 13 14  1  0  0  0  0
 14 15  2  3  0  0  0
 15 16  1  0  0  0  0
 16 17  1  0  0  0  0
 16 21  2  0  0  0  0
 17 18  2  0  0  0  0
 18 19  1  0  0  0  0
 19 20  2  0  0  0  0
 20 21  1  0  0  0  0
M  END
>  <Index>
742

>  <ID>
HT1454

>  <class>
0

>  <apol>
52.062653

>  <ast_fraglike>
0

>  <ast_fraglike_ext>
0

>  <ast_violation>
1

>  <ast_violation_ext>
2

>  <a_acc>
1

>  <a_acid>
0

>  <a_aro>
16

>  <a_base>
0

>  <a_count>
43

>  <a_don>
0

>  <a_donacc>
1

>  <a_heavy>
22

>  <a_hyd>
21

>  <a_IC>
48.852055

>  <a_ICM>
1.1360942

>  <a_nB>
0

>  <a_nBr>
0

>  <a_nC>
21

>  <a_nCl>
0

>  <a_nF>
0

>  <a_nH>
21

>  <a_nI>
0

>  <a_nN>
1

>  <a_nO>
0

>  <a_nP>
0

>  <a_nS>
0

>  <balabanJ>
1.3626095

>  <BCUT_PEOE_0>
-2.5746608

>  <BCUT_PEOE_1>
-0.643942

>  <BCUT_PEOE_2>
0.68998754

>  <BCUT_PEOE_3>
2.4599822

>  <BCUT_SLOGP_0>
-2.5862958

>  <BCUT_SLOGP_1>
-0.52899659

>  <BCUT_SLOGP_2>
0.80259347

>  <BCUT_SLOGP_3>
2.5270939

>  <BCUT_SMR_0>
-2.2760942

>  <BCUT_SMR_1>
-0.48464248

>  <BCUT_SMR_2>
0.85431087

>  <BCUT_SMR_3>
2.757772

>  <bpol>
24.937347

>  <b_1rotN>
5

>  <b_1rotR>
0.20833333

>  <b_ar>
17

>  <b_count>
45

>  <b_double>
1

>  <b_heavy>
24

>  <b_max1len>
5

>  <b_rotN>
5

>  <b_rotR>
0.20833333

>  <b_single>
27

>  <b_triple>
0

>  <chi0>
15.200459

>  <chi0v>
12.944331

>  <chi0v_C>
12.497117

>  <chi0_C>
14.62311

>  <chi1>
10.8265

>  <chi1v>
7.6955299

>  <chi1v_C>
6.6158609

>  <chi1_C>
9.4326534

>  <chiral>
0

>  <chiral_u>
0

>  <density>
0.63866848

>  <diameter>
13

>  <FCharge>
0

>  <GCUT_PEOE_0>
-0.85144717

>  <GCUT_PEOE_1>
-0.38896215

>  <GCUT_PEOE_2>
0.079685465

>  <GCUT_PEOE_3>
2.5414932

>  <GCUT_SLOGP_0>
-0.92403245

>  <GCUT_SLOGP_1>
-0.26386139

>  <GCUT_SLOGP_2>
0.16445385

>  <GCUT_SLOGP_3>
2.6861739

>  <GCUT_SMR_0>
-0.51031083

>  <GCUT_SMR_1>
-0.20368153

>  <GCUT_SMR_2>
0.19305076

>  <GCUT_SMR_3>
2.8479564

>  <Kier1>
16.84375

>  <Kier2>
8.7408953

>  <Kier3>
4.9967127

>  <KierA1>
11.884593

>  <KierA2>
6.0557737

>  <KierA3>
3.4160733

>  <KierFlex>
3.2713821

>  <lip_acc>
1

>  <lip_don>
0

>  <lip_druglike>
1

>  <lip_violation>
1

>  <logP(o/w)>
5.6069999

>  <logS>
-5.4079299

>  <mr>
9.4116411

>  <mutagenic>
0

>  <nmol>
1

>  <opr_brigid>
18

>  <opr_leadlike>
1

>  <opr_nring>
3

>  <opr_nrot>
5

>  <opr_violation>
1

>  <PC+>
0

>  <PC->
0

>  <PEOE_PC+>
1.2135401

>  <PEOE_PC->
-1.2135401

>  <PEOE_RPC+>
0.051395625

>  <PEOE_RPC->
0.24518354

>  <PEOE_VSA+0>
56.242352

>  <PEOE_VSA+1>
59.715405

>  <PEOE_VSA+2>
0

>  <PEOE_VSA+3>
0

>  <PEOE_VSA+4>
0

>  <PEOE_VSA+5>
0

>  <PEOE_VSA+6>
0

>  <PEOE_VSA-0>
32.072849

>  <PEOE_VSA-1>
171.56865

>  <PEOE_VSA-2>
0

>  <PEOE_VSA-3>
0

>  <PEOE_VSA-4>
0

>  <PEOE_VSA-5>
0

>  <PEOE_VSA-6>
0

>  <PEOE_VSA_FHYD>
1

>  <PEOE_VSA_FNEG>
0.63717765

>  <PEOE_VSA_FPNEG>
0

>  <PEOE_VSA_FPOL>
0

>  <PEOE_VSA_FPOS>
0.36282235

>  <PEOE_VSA_FPPOS>
0

>  <PEOE_VSA_HYD>
319.59927

>  <PEOE_VSA_NEG>
203.64151

>  <PEOE_VSA_PNEG>
0

>  <PEOE_VSA_POL>
0

>  <PEOE_VSA_POS>
115.95776

>  <PEOE_VSA_PPOS>
0

>  <petitjean>
0.46153846

>  <petitjeanSC>
0.85714287

>  <Q_PC+>
0

>  <Q_PC->
0

>  <Q_RPC+>
0

>  <Q_RPC->
0

>  <Q_VSA_FHYD>
1

>  <Q_VSA_FNEG>
0

>  <Q_VSA_FPNEG>
0

>  <Q_VSA_FPOL>
0

>  <Q_VSA_FPOS>
1

>  <Q_VSA_FPPOS>
0

>  <Q_VSA_HYD>
319.59927

>  <Q_VSA_NEG>
0

>  <Q_VSA_PNEG>
0

>  <Q_VSA_POL>
0

>  <Q_VSA_POS>
319.59927

>  <Q_VSA_PPOS>
0

>  <radius>
7

>  <reactive>
0

>  <rings>
3

>  <RPC+>
0

>  <RPC->
0

>  <rsynth>
1

>  <SlogP>
5.2514

>  <SlogP_VSA0>
0

>  <SlogP_VSA1>
3.1243138

>  <SlogP_VSA2>
0

>  <SlogP_VSA3>
18.439579

>  <SlogP_VSA4>
6.37115

>  <SlogP_VSA5>
32.897186

>  <SlogP_VSA6>
0

>  <SlogP_VSA7>
234.50732

>  <SlogP_VSA8>
17.643185

>  <SlogP_VSA9>
18.439579

>  <SMR>
9.5963001

>  <SMR_VSA0>
0

>  <SMR_VSA1>
3.1243138

>  <SMR_VSA2>
0

>  <SMR_VSA3>
6.37115

>  <SMR_VSA4>
5.1459289

>  <SMR_VSA5>
247.80098

>  <SMR_VSA6>
36.082764

>  <SMR_VSA7>
32.897186

>  <TPSA>
3.24

>  <VAdjEq>
0.46637034

>  <VAdjMa>
5.5849624

>  <VDistEq>
3.4949148

>  <VDistMa>
8.5838966

>  <vdw_area>
319.59927

>  <vdw_vol>
450.00812

>  <vsa_acc>
0

>  <vsa_acid>
0

>  <vsa_base>
0

>  <vsa_don>
0

>  <vsa_hyd>
304.65155

>  <vsa_other>
0

>  <vsa_pol>
0

>  <Weight>
287.40601

>  <weinerPath>
1224

>  <weinerPol>
30

>  <zagreb>
110

$$$$