O1C(C)C(O)C(O)C(O)C1OC1CC2(O)CCC3C(C2(CO)C(O)C1)C(O)CC1(C)C(CCC13O)C1=CC(OC1)=O
  MOE2013           2D

 41 46  0  0  1  0  0  0  0  0999 V2000
    0.0000    0.0000    0.0000 O   0  0  0  0  0  0  0  0  0  0  0  0
   -0.7540   -1.2960    0.0000 C   0  0  3  0  0  0  0  0  0  0  0  0
   -0.0090   -2.5980    0.0000 C   0  0  0  0  0  0  0  0  0  0  0  0
   -2.2540   -1.2910    0.0000 C   0  0  3  0  0  0  0  0  0  0  0  0
   -3.0090   -2.5880    0.0000 O   0  0  0  0  0  0  0  0  0  0  0  0
   -3.0000    0.0100    0.0000 C   0  0  3  0  0  0  0  0  0  0  0  0
   -4.5000    0.0160    0.0000 O   0  0  0  0  0  0  0  0  0  0  0  0
   -2.2460    1.3070    0.0000 C   0  0  3  0  0  0  0  0  0  0  0  0
   -2.9910    2.6080    0.0000 O   0  0  0  0  0  0  0  0  0  0  0  0
   -0.7460    1.3020    0.0000 C   0  0  3  0  0  0  0  0  0  0  0  0
    0.0090    2.5980    0.0000 O   0  0  0  0  0  0  0  0  0  0  0  0
    1.5090    2.5930    0.0000 C   0  0  3  0  0  0  0  0  0  0  0  0
    2.2540    1.2910    0.0000 C   0  0  0  0  0  0  0  0  0  0  0  0
    3.7540    1.2860    0.0000 C   0  0  3  0  0  0  0  0  0  0  0  0
    3.0230   -0.0230    0.0000 O   0  0  0  0  0  0  0  0  0  0  0  0
    4.5000   -0.0160    0.0000 C   0  0  0  0  0  0  0  0  0  0  0  0
    6.0000   -0.0210    0.0000 C   0  0  0  0  0  0  0  0  0  0  0  0
    6.7540    1.2760    0.0000 C   0  0  3  0  0  0  0  0  0  0  0  0
    6.0090    2.5770    0.0000 C   0  0  3  0  0  0  0  0  0  0  0  0
    4.5090    2.5830    0.0000 C   0  0  3  0  0  0  0  0  0  0  0  0
    5.4570    3.7450    0.0000 C   0  0  0  0  0  0  0  0  0  0  0  0
    4.9240    5.1470    0.0000 O   0  0  0  0  0  0  0  0  0  0  0  0
    3.7630    3.8840    0.0000 C   0  0  3  0  0  0  0  0  0  0  0  0
    4.0290    5.3600    0.0000 O   0  0  0  0  0  0  0  0  0  0  0  0
    2.2630    3.8890    0.0000 C   0  0  0  0  0  0  0  0  0  0  0  0
    6.7630    3.8740    0.0000 C   0  0  3  0  0  0  0  0  0  0  0  0
    6.0180    5.1750    0.0000 O   0  0  0  0  0  0  0  0  0  0  0  0
    8.2630    3.8690    0.0000 C   0  0  0  0  0  0  0  0  0  0  0  0
    9.0090    2.5670    0.0000 C   0  0  3  0  0  0  0  0  0  0  0  0
    9.8520    3.8080    0.0000 C   0  0  0  0  0  0  0  0  0  0  0  0
   10.4750    2.2500    0.0000 C   0  0  3  0  0  0  0  0  0  0  0  0
   10.6270    0.7580    0.0000 C   0  0  0  0  0  0  0  0  0  0  0  0
    9.2540    0.1520    0.0000 C   0  0  0  0  0  0  0  0  0  0  0  0
    8.2540    1.2710    0.0000 C   0  0  3  0  0  0  0  0  0  0  0  0
    7.6400   -0.0980    0.0000 O   0  0  0  0  0  0  0  0  0  0  0  0
   11.5930    3.2500    0.0000 C   0  0  0  0  0  0  0  0  0  0  0  0
   13.0590    2.9330    0.0000 C   0  0  0  0  0  0  0  0  0  0  0  0
   13.8140    4.2290    0.0000 C   0  0  0  0  0  0  0  0  0  0  0  0
   12.8140    5.3480    0.0000 O   0  0  0  0  0  0  0  0  0  0  0  0
   11.4420    4.7420    0.0000 C   0  0  0  0  0  0  0  0  0  0  0  0
   15.3060    4.3810    0.0000 O   0  0  0  0  0  0  0  0  0  0  0  0
  1  2  1  0  0  0  0
  1 10  1  0  0  0  0
  2  3  1  0  0  0  0
  2  4  1  0  0  0  0
  4  5  1  0  0  0  0
  4  6  1  0  0  0  0
  6  7  1  0  0  0  0
  6  8  1  0  0  0  0
  8  9  1  0  0  0  0
  8 10  1  0  0  0  0
 10 11  1  0  0  0  0
 11 12  1  0  0  0  0
 12 13  1  0  0  0  0
 12 25  1  0  0  0  0
 13 14  1  0  0  0  0
 14 15  1  0  0  0  0
 14 16  1  0  0  0  0
 14 20  1  0  0  0  0
 16 17  1  0  0  0  0
 17 18  1  0  0  0  0
 18 19  1  0  0  0  0
 18 34  1  0  0  0  0
 19 20  1  0  0  0  0
 19 26  1  0  0  0  0
 20 21  1  0  0  0  0
 20 23  1  0  0  0  0
 21 22  1  0  0  0  0
 23 24  1  0  0  0  0
 23 25  1  0  0  0  0
 26 27  1  0  0  0  0
 26 28  1  0  0  0  0
 28 29  1  0  0  0  0
 29 30  1  0  0  0  0
 29 31  1  0  0  0  0
 29 34  1  0  0  0  0
 31 32  1  0  0  0  0
 31 36  1  0  0  0  0
 32 33  1  0  0  0  0
 33 34  1  0  0  0  0
 34 35  1  0  0  0  0
 36 37  2  0  0  0  0
 36 40  1  0  0  0  0
 37 38  1  0  0  0  0
 38 39  1  0  0  0  0
 38 41  2  0  0  0  0
 39 40  1  0  0  0  0
M  END
>  <Index>
794

>  <ID>
HT1548

>  <class>
0

>  <apol>
90.002892

>  <ast_fraglike>
0

>  <ast_fraglike_ext>
0

>  <ast_violation>
3

>  <ast_violation_ext>
5

>  <a_acc>
11

>  <a_acid>
0

>  <a_aro>
0

>  <a_base>
0

>  <a_count>
85

>  <a_don>
8

>  <a_donacc>
19

>  <a_heavy>
41

>  <a_hyd>
27

>  <a_IC>
120.68224

>  <a_ICM>
1.4197911

>  <a_nB>
0

>  <a_nBr>
0

>  <a_nC>
29

>  <a_nCl>
0

>  <a_nF>
0

>  <a_nH>
44

>  <a_nI>
0

>  <a_nN>
0

>  <a_nO>
12

>  <a_nP>
0

>  <a_nS>
0

>  <balabanJ>
1.2675377

>  <BCUT_PEOE_0>
-2.9762759

>  <BCUT_PEOE_1>
-0.61262614

>  <BCUT_PEOE_2>
0.68681115

>  <BCUT_PEOE_3>
3.024507

>  <BCUT_SLOGP_0>
-3.0249023

>  <BCUT_SLOGP_1>
-0.631899

>  <BCUT_SLOGP_2>
0.53173184

>  <BCUT_SLOGP_3>
3.0139854

>  <BCUT_SMR_0>
-2.7504849

>  <BCUT_SMR_1>
-0.4826197

>  <BCUT_SMR_2>
0.77703857

>  <BCUT_SMR_3>
3.2519195

>  <bpol>
54.80711

>  <b_1rotN>
4

>  <b_1rotR>
0.086956523

>  <b_ar>
0

>  <b_count>
90

>  <b_double>
2

>  <b_heavy>
46

>  <b_max1len>
4

>  <b_rotN>
4

>  <b_rotR>
0.086956523

>  <b_single>
88

>  <b_triple>
0

>  <chi0>
29.697941

>  <chi0v>
23.502867

>  <chi0v_C>
18.292164

>  <chi0_C>
18.576622

>  <chi1>
19.219835

>  <chi1v>
14.863054

>  <chi1v_C>
11.168886

>  <chi1_C>
11.507385

>  <chiral>
15

>  <chiral_u>
15

>  <density>
0.79609913

>  <diameter>
18

>  <FCharge>
0

>  <GCUT_PEOE_0>
-0.8036803

>  <GCUT_PEOE_1>
-0.4174265

>  <GCUT_PEOE_2>
0.10978108

>  <GCUT_PEOE_3>
3.6049926

>  <GCUT_SLOGP_0>
-0.95197034

>  <GCUT_SLOGP_1>
-0.39537773

>  <GCUT_SLOGP_2>
-0.0075480784

>  <GCUT_SLOGP_3>
3.5979648

>  <GCUT_SMR_0>
-0.53923661

>  <GCUT_SMR_1>
-0.25684407

>  <GCUT_SMR_2>
0.19501831

>  <GCUT_SMR_3>
3.8113279

>  <Kier1>
31.00189

>  <Kier2>
10.533241

>  <Kier3>
4.2925091

>  <KierA1>
29.728247

>  <KierA2>
10.089659

>  <KierA3>
4.1085882

>  <KierFlex>
7.3158016

>  <lip_acc>
12

>  <lip_don>
8

>  <lip_druglike>
0

>  <lip_violation>
3

>  <logP(o/w)>
-0.97500002

>  <logS>
-1.83058

>  <mr>
13.952747

>  <mutagenic>
0

>  <nmol>
1

>  <opr_brigid>
31

>  <opr_leadlike>
0

>  <opr_nring>
6

>  <opr_nrot>
6

>  <opr_violation>
4

>  <PC+>
0

>  <PC->
0

>  <PEOE_PC+>
4.657548

>  <PEOE_PC->
-4.657548

>  <PEOE_RPC+>
0.061602946

>  <PEOE_RPC->
0.084651083

>  <PEOE_VSA+0>
127.76141

>  <PEOE_VSA+1>
104.97232

>  <PEOE_VSA+2>
14.714787

>  <PEOE_VSA+3>
11.154908

>  <PEOE_VSA+4>
82.593384

>  <PEOE_VSA+5>
14.708499

>  <PEOE_VSA+6>
0

>  <PEOE_VSA-0>
64.462784

>  <PEOE_VSA-1>
18.747677

>  <PEOE_VSA-2>
0

>  <PEOE_VSA-3>
0

>  <PEOE_VSA-4>
0

>  <PEOE_VSA-5>
13.566921

>  <PEOE_VSA-6>
69.651588

>  <PEOE_VSA_FHYD>
0.65439683

>  <PEOE_VSA_FNEG>
0.31862542

>  <PEOE_VSA_FPNEG>
0.15932041

>  <PEOE_VSA_FPOL>
0.3456032

>  <PEOE_VSA_FPOS>
0.68137461

>  <PEOE_VSA_FPPOS>
0.18628278

>  <PEOE_VSA_HYD>
341.81387

>  <PEOE_VSA_NEG>
166.42897

>  <PEOE_VSA_PNEG>
83.218513

>  <PEOE_VSA_POL>
180.52039

>  <PEOE_VSA_POS>
355.9053

>  <PEOE_VSA_PPOS>
97.30188

>  <petitjean>
0.5

>  <petitjeanSC>
1

>  <Q_PC+>
0

>  <Q_PC->
0

>  <Q_RPC+>
0

>  <Q_RPC->
0

>  <Q_VSA_FHYD>
1

>  <Q_VSA_FNEG>
0

>  <Q_VSA_FPNEG>
0

>  <Q_VSA_FPOL>
0

>  <Q_VSA_FPOS>
1

>  <Q_VSA_FPPOS>
0

>  <Q_VSA_HYD>
522.33429

>  <Q_VSA_NEG>
0

>  <Q_VSA_PNEG>
0

>  <Q_VSA_POL>
0

>  <Q_VSA_POS>
522.33429

>  <Q_VSA_PPOS>
0

>  <radius>
9

>  <reactive>
1

>  <rings>
6

>  <RPC+>
0

>  <RPC->
0

>  <rsynth>
1

>  <SlogP>
-1.515

>  <SlogP_VSA0>
203.08182

>  <SlogP_VSA1>
7.7454643

>  <SlogP_VSA2>
110.66893

>  <SlogP_VSA3>
41.852516

>  <SlogP_VSA4>
13.232388

>  <SlogP_VSA5>
3.185575

>  <SlogP_VSA6>
0

>  <SlogP_VSA7>
17.643185

>  <SlogP_VSA8>
132.07884

>  <SlogP_VSA9>
66.652031

>  <SMR>
13.85984

>  <SMR_VSA0>
56.861881

>  <SMR_VSA1>
203.08182

>  <SMR_VSA2>
13.232388

>  <SMR_VSA3>
56.992622

>  <SMR_VSA4>
0

>  <SMR_VSA5>
149.72202

>  <SMR_VSA6>
49.59798

>  <SMR_VSA7>
66.652031

>  <TPSA>
206.60001

>  <VAdjEq>
0.30615681

>  <VAdjMa>
6.523562

>  <VDistEq>
3.8212171

>  <VDistMa>
10.424108

>  <vdw_area>
522.33429

>  <vdw_vol>
734.40472

>  <vsa_acc>
18.574432

>  <vsa_acid>
0

>  <vsa_base>
0

>  <vsa_don>
0

>  <vsa_hyd>
297.44559

>  <vsa_other>
31.920755

>  <vsa_pol>
127.1098

>  <Weight>
584.659

>  <weinerPath>
5312

>  <weinerPol>
94

>  <zagreb>
244

$$$$