[O-][n+]1c(N)cc(nc1N)N1CCCCC1
  MOE2013           2D

 15 16  0  0  0  0  0  0  0  0999 V2000
    0.0000    0.0000    0.0000 O   0  5  0  0  0  0  0  0  0  0  0  0
   -1.5000    0.0000    0.0000 N   0  3  0  0  0  0  0  0  0  0  0  0
   -2.2500   -1.2990    0.0000 C   0  0  0  0  0  0  0  0  0  0  0  0
   -1.5000   -2.5980    0.0000 N   0  0  0  0  0  0  0  0  0  0  0  0
   -3.7500   -1.2990    0.0000 C   0  0  0  0  0  0  0  0  0  0  0  0
   -4.5000    0.0000    0.0000 C   0  0  0  0  0  0  0  0  0  0  0  0
   -3.7500    1.2990    0.0000 N   0  0  0  0  0  0  0  0  0  0  0  0
   -2.2500    1.2990    0.0000 C   0  0  0  0  0  0  0  0  0  0  0  0
   -1.5000    2.5980    0.0000 N   0  0  0  0  0  0  0  0  0  0  0  0
   -6.0000    0.0000    0.0000 N   0  0  0  0  0  0  0  0  0  0  0  0
   -6.7500   -1.2990    0.0000 C   0  0  0  0  0  0  0  0  0  0  0  0
   -8.2500   -1.2990    0.0000 C   0  0  0  0  0  0  0  0  0  0  0  0
   -9.0000    0.0000    0.0000 C   0  0  0  0  0  0  0  0  0  0  0  0
   -8.2500    1.2990    0.0000 C   0  0  0  0  0  0  0  0  0  0  0  0
   -6.7500    1.2990    0.0000 C   0  0  0  0  0  0  0  0  0  0  0  0
  1  2  1  0  0  0  0
  2  3  1  0  0  0  0
  2  8  2  0  0  0  0
  3  4  1  0  0  0  0
  3  5  2  0  0  0  0
  5  6  1  0  0  0  0
  6  7  2  0  0  0  0
  6 10  1  0  0  0  0
  7  8  1  0  0  0  0
  8  9  1  0  0  0  0
 10 11  1  0  0  0  0
 10 15  1  0  0  0  0
 11 12  1  0  0  0  0
 12 13  1  0  0  0  0
 13 14  1  0  0  0  0
 14 15  1  0  0  0  0
M  CHG  1   1  -1
M  CHG  1   2   1
M  END
>  <Index>
718

>  <ID>
HT1408

>  <class>
0

>  <apol>
32.143894

>  <ast_fraglike>
1

>  <ast_fraglike_ext>
1

>  <ast_violation>
0

>  <ast_violation_ext>
0

>  <a_acc>
2

>  <a_acid>
0

>  <a_aro>
6

>  <a_base>
0

>  <a_count>
30

>  <a_don>
2

>  <a_donacc>
4

>  <a_heavy>
15

>  <a_hyd>
6

>  <a_IC>
48.464394

>  <a_ICM>
1.6154798

>  <a_nB>
0

>  <a_nBr>
0

>  <a_nC>
9

>  <a_nCl>
0

>  <a_nF>
0

>  <a_nH>
15

>  <a_nI>
0

>  <a_nN>
5

>  <a_nO>
1

>  <a_nP>
0

>  <a_nS>
0

>  <balabanJ>
1.9328126

>  <BCUT_PEOE_0>
-2.7227864

>  <BCUT_PEOE_1>
-0.51468343

>  <BCUT_PEOE_2>
0.47962976

>  <BCUT_PEOE_3>
2.6856761

>  <BCUT_SLOGP_0>
-2.7414908

>  <BCUT_SLOGP_1>
-0.46869233

>  <BCUT_SLOGP_2>
0.56385589

>  <BCUT_SLOGP_3>
2.7307394

>  <BCUT_SMR_0>
-2.4676557

>  <BCUT_SMR_1>
-0.25300783

>  <BCUT_SMR_2>
0.6943242

>  <BCUT_SMR_3>
2.9418616

>  <bpol>
19.996105

>  <b_1rotN>
1

>  <b_1rotR>
0.0625

>  <b_ar>
6

>  <b_count>
31

>  <b_double>
0

>  <b_heavy>
16

>  <b_max1len>
2

>  <b_rotN>
1

>  <b_rotR>
0.0625

>  <b_single>
25

>  <b_triple>
0

>  <chi0>
10.836499

>  <chi0v>
8.5174742

>  <chi0v_C>
5.612884

>  <chi0_C>
5.9746914

>  <chi1>
7.1815405

>  <chi1v>
5.0877643

>  <chi1v_C>
2.5773504

>  <chi1_C>
2.8164966

>  <chiral>
0

>  <chiral_u>
0

>  <density>
0.76171237

>  <diameter>
8

>  <FCharge>
0

>  <GCUT_PEOE_0>
-1.0235142

>  <GCUT_PEOE_1>
-0.4648414

>  <GCUT_PEOE_2>
0.070840783

>  <GCUT_PEOE_3>
2.5081506

>  <GCUT_SLOGP_0>
-1.4317712

>  <GCUT_SLOGP_1>
-0.34059277

>  <GCUT_SLOGP_2>
0.12695117

>  <GCUT_SLOGP_3>
2.5336394

>  <GCUT_SMR_0>
-0.52286261

>  <GCUT_SMR_1>
-0.16204175

>  <GCUT_SMR_2>
0.18506587

>  <GCUT_SMR_3>
2.7467923

>  <Kier1>
11.484375

>  <Kier2>
4.8884296

>  <Kier3>
2.5714285

>  <KierA1>
8.4930286

>  <KierA2>
3.5295343

>  <KierA3>
1.8203455

>  <KierFlex>
1.9984292

>  <lip_acc>
6

>  <lip_don>
4

>  <lip_druglike>
1

>  <lip_violation>
0

>  <logP(o/w)>
0.50599998

>  <logS>
-1.96861

>  <mr>
5.4926071

>  <mutagenic>
1

>  <nmol>
1

>  <opr_brigid>
12

>  <opr_leadlike>
1

>  <opr_nring>
2

>  <opr_nrot>
3

>  <opr_violation>
0

>  <PC+>
0

>  <PC->
0

>  <PEOE_PC+>
1.9297507

>  <PEOE_PC->
-1.9297507

>  <PEOE_RPC+>
0.15006173

>  <PEOE_RPC->
0.36838549

>  <PEOE_VSA+0>
64.231873

>  <PEOE_VSA+1>
21.326929

>  <PEOE_VSA+2>
0

>  <PEOE_VSA+3>
56.857178

>  <PEOE_VSA+4>
0

>  <PEOE_VSA+5>
15.681574

>  <PEOE_VSA+6>
0

>  <PEOE_VSA-0>
26.103939

>  <PEOE_VSA-1>
0

>  <PEOE_VSA-2>
5.6825762

>  <PEOE_VSA-3>
0

>  <PEOE_VSA-4>
13.302238

>  <PEOE_VSA-5>
0

>  <PEOE_VSA-6>
16.965525

>  <PEOE_VSA_FHYD>
0.79128343

>  <PEOE_VSA_FNEG>
0.28187037

>  <PEOE_VSA_FPNEG>
0.13748586

>  <PEOE_VSA_FPOL>
0.20871659

>  <PEOE_VSA_FPOS>
0.71812963

>  <PEOE_VSA_FPPOS>
0.071230724

>  <PEOE_VSA_HYD>
174.2025

>  <PEOE_VSA_NEG>
62.054279

>  <PEOE_VSA_PNEG>
30.267763

>  <PEOE_VSA_POL>
45.949337

>  <PEOE_VSA_POS>
158.09755

>  <PEOE_VSA_PPOS>
15.681574

>  <petitjean>
0.5

>  <petitjeanSC>
1

>  <Q_PC+>
0

>  <Q_PC->
0

>  <Q_RPC+>
0

>  <Q_RPC->
0

>  <Q_VSA_FHYD>
1

>  <Q_VSA_FNEG>
0

>  <Q_VSA_FPNEG>
0

>  <Q_VSA_FPOL>
0

>  <Q_VSA_FPOS>
1

>  <Q_VSA_FPPOS>
0

>  <Q_VSA_HYD>
220.15182

>  <Q_VSA_NEG>
0

>  <Q_VSA_PNEG>
0

>  <Q_VSA_POL>
0

>  <Q_VSA_POS>
220.15182

>  <Q_VSA_PPOS>
0

>  <radius>
4

>  <reactive>
0

>  <rings>
2

>  <RPC+>
0

>  <RPC->
0

>  <rsynth>
1

>  <SlogP>
-0.1303

>  <SlogP_VSA0>
72.965279

>  <SlogP_VSA1>
16.78553

>  <SlogP_VSA2>
0

>  <SlogP_VSA3>
63.715294

>  <SlogP_VSA4>
0

>  <SlogP_VSA5>
0

>  <SlogP_VSA6>
0

>  <SlogP_VSA7>
17.643185

>  <SlogP_VSA8>
56.605217

>  <SlogP_VSA9>
6.5549331

>  <SMR>
5.8085799

>  <SMR_VSA0>
4.0465865

>  <SMR_VSA1>
16.78553

>  <SMR_VSA2>
29.960453

>  <SMR_VSA3>
0

>  <SMR_VSA4>
6.5549331

>  <SMR_VSA5>
140.04277

>  <SMR_VSA6>
36.879158

>  <SMR_VSA7>
0

>  <TPSA>
93.629997

>  <VAdjEq>
0.59002918

>  <VAdjMa>
5

>  <VDistEq>
2.7413919

>  <VDistMa>
7.5148549

>  <vdw_area>
220.15182

>  <vdw_vol>
274.71393

>  <vsa_acc>
22.6481

>  <vsa_acid>
0

>  <vsa_base>
0

>  <vsa_don>
35.484978

>  <vsa_hyd>
103.83299

>  <vsa_other>
38.062698

>  <vsa_pol>
58.13308

>  <Weight>
209.25299

>  <weinerPath>
358

>  <weinerPol>
22

>  <zagreb>
76

$$$$