O[C@H]1[C@H](O)[C@@H](O)CN(CCCC)[C@@H]1CO
  MOE2013           2D

 15 15  0  0  1  0  0  0  0  0999 V2000
    0.0000    0.0000    0.0000 O   0  0  0  0  0  0  0  0  0  0  0  0
    1.3030   -0.7430    0.0000 C   0  0  1  0  0  0  0  0  0  0  0  0
    1.3110   -2.2430    0.0000 C   0  0  2  0  0  0  0  0  0  0  0  0
    0.0170   -3.0000    0.0000 O   0  0  0  0  0  0  0  0  0  0  0  0
    2.6150   -2.9860    0.0000 C   0  0  1  0  0  0  0  0  0  0  0  0
    2.6230   -4.4860    0.0000 O   0  0  0  0  0  0  0  0  0  0  0  0
    3.9090   -2.2280    0.0000 C   0  0  0  0  0  0  0  0  0  0  0  0
    3.9010   -0.7290    0.0000 N   0  0  3  0  0  0  0  0  0  0  0  0
    5.1960    0.0290    0.0000 C   0  0  0  0  0  0  0  0  0  0  0  0
    6.4990   -0.7140    0.0000 C   0  0  0  0  0  0  0  0  0  0  0  0
    7.7940    0.0430    0.0000 C   0  0  0  0  0  0  0  0  0  0  0  0
    9.0970   -0.7000    0.0000 C   0  0  0  0  0  0  0  0  0  0  0  0
    2.5980    0.0140    0.0000 C   0  0  2  0  0  0  0  0  0  0  0  0
    2.5900    1.5140    0.0000 C   0  0  0  0  0  0  0  0  0  0  0  0
    1.2870    2.2570    0.0000 O   0  0  0  0  0  0  0  0  0  0  0  0
  2  1  1  6  0  0  0
  2  3  1  0  0  0  0
  2 13  1  0  0  0  0
  3  4  1  1  0  0  0
  3  5  1  0  0  0  0
  5  6  1  6  0  0  0
  5  7  1  0  0  0  0
  7  8  1  0  0  0  0
  8  9  1  0  0  0  0
  8 13  1  0  0  0  0
  9 10  1  0  0  0  0
 10 11  1  0  0  0  0
 11 12  1  0  0  0  0
 13 14  1  1  0  0  0
 14 15  1  0  0  0  0
M  END
>  <Index>
712

>  <ID>
HT1400

>  <class>
0

>  <apol>
35.910652

>  <ast_fraglike>
0

>  <ast_fraglike_ext>
0

>  <ast_violation>
2

>  <ast_violation_ext>
3

>  <a_acc>
5

>  <a_acid>
0

>  <a_aro>
0

>  <a_base>
0

>  <a_count>
36

>  <a_don>
4

>  <a_donacc>
9

>  <a_heavy>
15

>  <a_hyd>
10

>  <a_IC>
52.659351

>  <a_ICM>
1.4627599

>  <a_nB>
0

>  <a_nBr>
0

>  <a_nC>
10

>  <a_nCl>
0

>  <a_nF>
0

>  <a_nH>
21

>  <a_nI>
0

>  <a_nN>
1

>  <a_nO>
4

>  <a_nP>
0

>  <a_nS>
0

>  <balabanJ>
2.600456

>  <BCUT_PEOE_0>
-2.8040128

>  <BCUT_PEOE_1>
-0.55477506

>  <BCUT_PEOE_2>
0.66218632

>  <BCUT_PEOE_3>
2.796818

>  <BCUT_SLOGP_0>
-2.9699473

>  <BCUT_SLOGP_1>
-0.6289801

>  <BCUT_SLOGP_2>
0.50706154

>  <BCUT_SLOGP_3>
2.6791081

>  <BCUT_SMR_0>
-2.5625751

>  <BCUT_SMR_1>
-0.46255946

>  <BCUT_SMR_2>
0.73366076

>  <BCUT_SMR_3>
3.0215189

>  <bpol>
24.937347

>  <b_1rotN>
4

>  <b_1rotR>
0.26666668

>  <b_ar>
0

>  <b_count>
36

>  <b_double>
0

>  <b_heavy>
15

>  <b_max1len>
5

>  <b_rotN>
4

>  <b_rotR>
0.26666668

>  <b_single>
36

>  <b_triple>
0

>  <chi0>
11.422285

>  <chi0v>
9.0810032

>  <chi0v_C>
6.8449349

>  <chi0_C>
6.8449349

>  <chi1>
7.1125908

>  <chi1v>
5.5050821

>  <chi1v_C>
3.5236034

>  <chi1_C>
3.5236034

>  <chiral>
4

>  <chiral_u>
0

>  <density>
0.74010527

>  <diameter>
8

>  <FCharge>
0

>  <GCUT_PEOE_0>
-0.84175277

>  <GCUT_PEOE_1>
-0.36919582

>  <GCUT_PEOE_2>
0.11877991

>  <GCUT_PEOE_3>
2.7189589

>  <GCUT_SLOGP_0>
-0.96856004

>  <GCUT_SLOGP_1>
-0.42735392

>  <GCUT_SLOGP_2>
-0.0085919583

>  <GCUT_SLOGP_3>
2.6379917

>  <GCUT_SMR_0>
-0.53088945

>  <GCUT_SMR_1>
-0.24606581

>  <GCUT_SMR_2>
0.17686781

>  <GCUT_SMR_3>
2.9263275

>  <Kier1>
13.066667

>  <Kier2>
5.915

>  <Kier3>
2.9822485

>  <KierA1>
13.066667

>  <KierA2>
5.915

>  <KierA3>
2.9822485

>  <KierFlex>
5.1526222

>  <lip_acc>
5

>  <lip_don>
4

>  <lip_druglike>
1

>  <lip_violation>
0

>  <logP(o/w)>
-1.08

>  <logS>
0.12869

>  <mr>
5.5728474

>  <mutagenic>
0

>  <nmol>
1

>  <opr_brigid>
6

>  <opr_leadlike>
1

>  <opr_nring>
1

>  <opr_nrot>
6

>  <opr_violation>
0

>  <PC+>
0

>  <PC->
0

>  <PEOE_PC+>
2.0086219

>  <PEOE_PC->
-2.0086219

>  <PEOE_RPC+>
0.1045504

>  <PEOE_RPC->
0.19584431

>  <PEOE_VSA+0>
60.111572

>  <PEOE_VSA+1>
48.594498

>  <PEOE_VSA+2>
9.8098574

>  <PEOE_VSA+3>
0

>  <PEOE_VSA+4>
41.296692

>  <PEOE_VSA+5>
0

>  <PEOE_VSA+6>
0

>  <PEOE_VSA-0>
21.893639

>  <PEOE_VSA-1>
27.44899

>  <PEOE_VSA-2>
0

>  <PEOE_VSA-3>
0

>  <PEOE_VSA-4>
0

>  <PEOE_VSA-5>
0

>  <PEOE_VSA-6>
31.070162

>  <PEOE_VSA_FHYD>
0.69875437

>  <PEOE_VSA_FNEG>
0.33473891

>  <PEOE_VSA_FPNEG>
0.12933753

>  <PEOE_VSA_FPOL>
0.30124563

>  <PEOE_VSA_FPOS>
0.66526109

>  <PEOE_VSA_FPPOS>
0.1719081

>  <PEOE_VSA_HYD>
167.85855

>  <PEOE_VSA_NEG>
80.412788

>  <PEOE_VSA_PNEG>
31.070162

>  <PEOE_VSA_POL>
72.366852

>  <PEOE_VSA_POS>
159.81262

>  <PEOE_VSA_PPOS>
41.296692

>  <petitjean>
0.5

>  <petitjeanSC>
1

>  <Q_PC+>
0

>  <Q_PC->
0

>  <Q_RPC+>
0

>  <Q_RPC->
0

>  <Q_VSA_FHYD>
1

>  <Q_VSA_FNEG>
0

>  <Q_VSA_FPNEG>
0

>  <Q_VSA_FPOL>
0

>  <Q_VSA_FPOS>
1

>  <Q_VSA_FPPOS>
0

>  <Q_VSA_HYD>
240.2254

>  <Q_VSA_NEG>
0

>  <Q_VSA_PNEG>
0

>  <Q_VSA_POL>
0

>  <Q_VSA_POS>
240.2254

>  <Q_VSA_PPOS>
0

>  <radius>
4

>  <reactive>
0

>  <rings>
1

>  <RPC+>
0

>  <RPC->
0

>  <rsynth>
1

>  <SlogP>
-1.4543

>  <SlogP_VSA0>
101.54091

>  <SlogP_VSA1>
3.1243138

>  <SlogP_VSA2>
23.387917

>  <SlogP_VSA3>
57.805416

>  <SlogP_VSA4>
0

>  <SlogP_VSA5>
0

>  <SlogP_VSA6>
0

>  <SlogP_VSA7>
0

>  <SlogP_VSA8>
37.736813

>  <SlogP_VSA9>
33.326015

>  <SMR>
5.5375199

>  <SMR_VSA0>
0

>  <SMR_VSA1>
104.66522

>  <SMR_VSA2>
0

>  <SMR_VSA3>
23.387917

>  <SMR_VSA4>
0

>  <SMR_VSA5>
37.736813

>  <SMR_VSA6>
57.805416

>  <SMR_VSA7>
33.326015

>  <TPSA>
84.160004

>  <VAdjEq>
0.56650949

>  <VAdjMa>
4.9068904

>  <VDistEq>
2.7329202

>  <VDistMa>
7.5271025

>  <vdw_area>
240.2254

>  <vdw_vol>
296.28354

>  <vsa_acc>
0

>  <vsa_acid>
0

>  <vsa_base>
0

>  <vsa_don>
0

>  <vsa_hyd>
155.75804

>  <vsa_other>
0

>  <vsa_pol>
54.267685

>  <Weight>
219.28099

>  <weinerPath>
362

>  <weinerPol>
23

>  <zagreb>
70

$$$$