Oc1c2c(Cc3c(C2=O)c(O)ccc3)ccc1
  MOE2013           2D

 17 19  0  0  0  0  0  0  0  0999 V2000
    0.0000    0.0000    0.0000 O   0  0  0  0  0  0  0  0  0  0  0  0
    0.0000   -1.5000    0.0000 C   0  0  0  0  0  0  0  0  0  0  0  0
    1.2990   -2.2500    0.0000 C   0  0  0  0  0  0  0  0  0  0  0  0
    1.2990   -3.7500    0.0000 C   0  0  0  0  0  0  0  0  0  0  0  0
    2.5980   -4.5000    0.0000 C   0  0  0  0  0  0  0  0  0  0  0  0
    3.8970   -3.7500    0.0000 C   0  0  0  0  0  0  0  0  0  0  0  0
    3.8970   -2.2500    0.0000 C   0  0  0  0  0  0  0  0  0  0  0  0
    2.5980   -1.5000    0.0000 C   0  0  0  0  0  0  0  0  0  0  0  0
    2.5980    0.0000    0.0000 O   0  0  0  0  0  0  0  0  0  0  0  0
    5.1960   -1.5000    0.0000 C   0  0  0  0  0  0  0  0  0  0  0  0
    5.1960    0.0000    0.0000 O   0  0  0  0  0  0  0  0  0  0  0  0
    6.4950   -2.2500    0.0000 C   0  0  0  0  0  0  0  0  0  0  0  0
    6.4950   -3.7500    0.0000 C   0  0  0  0  0  0  0  0  0  0  0  0
    5.1960   -4.5000    0.0000 C   0  0  0  0  0  0  0  0  0  0  0  0
    0.0000   -4.5000    0.0000 C   0  0  0  0  0  0  0  0  0  0  0  0
   -1.2990   -3.7500    0.0000 C   0  0  0  0  0  0  0  0  0  0  0  0
   -1.2990   -2.2500    0.0000 C   0  0  0  0  0  0  0  0  0  0  0  0
  1  2  1  0  0  0  0
  2  3  1  0  0  0  0
  2 17  2  0  0  0  0
  3  4  2  0  0  0  0
  3  8  1  0  0  0  0
  4  5  1  0  0  0  0
  4 15  1  0  0  0  0
  5  6  1  0  0  0  0
  6  7  1  0  0  0  0
  6 14  2  0  0  0  0
  7  8  1  0  0  0  0
  7 10  2  0  0  0  0
  8  9  2  0  0  0  0
 10 11  1  0  0  0  0
 10 12  1  0  0  0  0
 12 13  2  0  0  0  0
 13 14  1  0  0  0  0
 15 16  2  0  0  0  0
 16 17  1  0  0  0  0
M  END
>  <Index>
80

>  <ID>
HT0166

>  <class>
0

>  <apol>
33.713928

>  <ast_fraglike>
1

>  <ast_fraglike_ext>
1

>  <ast_violation>
0

>  <ast_violation_ext>
0

>  <a_acc>
3

>  <a_acid>
0

>  <a_aro>
12

>  <a_base>
0

>  <a_count>
27

>  <a_don>
2

>  <a_donacc>
5

>  <a_heavy>
17

>  <a_hyd>
13

>  <a_IC>
37.104824

>  <a_ICM>
1.3742528

>  <a_nB>
0

>  <a_nBr>
0

>  <a_nC>
14

>  <a_nCl>
0

>  <a_nF>
0

>  <a_nH>
10

>  <a_nI>
0

>  <a_nN>
0

>  <a_nO>
3

>  <a_nP>
0

>  <a_nS>
0

>  <balabanJ>
1.8440704

>  <BCUT_PEOE_0>
-2.399951

>  <BCUT_PEOE_1>
-0.69261283

>  <BCUT_PEOE_2>
0.73012471

>  <BCUT_PEOE_3>
2.420691

>  <BCUT_SLOGP_0>
-2.330086

>  <BCUT_SLOGP_1>
-0.61433208

>  <BCUT_SLOGP_2>
0.75234371

>  <BCUT_SLOGP_3>
2.5143533

>  <BCUT_SMR_0>
-2.1022465

>  <BCUT_SMR_1>
-0.51576674

>  <BCUT_SMR_2>
0.89000565

>  <BCUT_SMR_3>
2.724746

>  <bpol>
11.89007

>  <b_1rotN>
0

>  <b_1rotR>
0

>  <b_ar>
12

>  <b_count>
29

>  <b_double>
1

>  <b_heavy>
19

>  <b_max1len>
2

>  <b_rotN>
0

>  <b_rotR>
0

>  <b_single>
16

>  <b_triple>
0

>  <chi0>
11.991199

>  <chi0v>
8.9738836

>  <chi0v_C>
7.6712084

>  <chi0_C>
8.9911995

>  <chi1>
8.1815405

>  <chi1v>
5.3464785

>  <chi1v_C>
4.6951408

>  <chi1_C>
6.4494896

>  <chiral>
0

>  <chiral_u>
0

>  <density>
0.76164526

>  <diameter>
7

>  <FCharge>
0

>  <GCUT_PEOE_0>
-0.76276821

>  <GCUT_PEOE_1>
-0.49972919

>  <GCUT_PEOE_2>
0.13163443

>  <GCUT_PEOE_3>
2.4540002

>  <GCUT_SLOGP_0>
-0.77891988

>  <GCUT_SLOGP_1>
-0.33247107

>  <GCUT_SLOGP_2>
0.14717825

>  <GCUT_SLOGP_3>
2.5774555

>  <GCUT_SMR_0>
-0.4663237

>  <GCUT_SMR_1>
-0.23479638

>  <GCUT_SMR_2>
0.26323861

>  <GCUT_SMR_3>
2.7506125

>  <Kier1>
12.055402

>  <Kier2>
4.5918369

>  <Kier3>
1.96

>  <KierA1>
8.3852787

>  <KierA2>
3.1140392

>  <KierA3>
1.3024672

>  <KierFlex>
1.536005

>  <lip_acc>
3

>  <lip_don>
2

>  <lip_druglike>
1

>  <lip_violation>
0

>  <logP(o/w)>
2.8770001

>  <logS>
-3.20467

>  <mr>
6.3079829

>  <mutagenic>
0

>  <nmol>
1

>  <opr_brigid>
16

>  <opr_leadlike>
1

>  <opr_nring>
3

>  <opr_nrot>
0

>  <opr_violation>
0

>  <PC+>
0

>  <PC->
0

>  <PEOE_PC+>
1.3604237

>  <PEOE_PC->
-1.3604237

>  <PEOE_RPC+>
0.15975884

>  <PEOE_RPC->
0.26397216

>  <PEOE_VSA+0>
8.5307722

>  <PEOE_VSA+1>
46.926434

>  <PEOE_VSA+2>
0

>  <PEOE_VSA+3>
8.458519

>  <PEOE_VSA+4>
20.648346

>  <PEOE_VSA+5>
0

>  <PEOE_VSA+6>
0

>  <PEOE_VSA-0>
37.628201

>  <PEOE_VSA-1>
49.019615

>  <PEOE_VSA-2>
0

>  <PEOE_VSA-3>
0

>  <PEOE_VSA-4>
0

>  <PEOE_VSA-5>
13.566921

>  <PEOE_VSA-6>
15.535081

>  <PEOE_VSA_FHYD>
0.75163805

>  <PEOE_VSA_FNEG>
0.57784218

>  <PEOE_VSA_FPNEG>
0.145282

>  <PEOE_VSA_FPOL>
0.24836195

>  <PEOE_VSA_FPOS>
0.42215779

>  <PEOE_VSA_FPPOS>
0.10307994

>  <PEOE_VSA_HYD>
150.56354

>  <PEOE_VSA_NEG>
115.74982

>  <PEOE_VSA_PNEG>
29.102001

>  <PEOE_VSA_POL>
49.750347

>  <PEOE_VSA_POS>
84.564072

>  <PEOE_VSA_PPOS>
20.648346

>  <petitjean>
0.42857143

>  <petitjeanSC>
0.75

>  <Q_PC+>
0

>  <Q_PC->
0

>  <Q_RPC+>
0

>  <Q_RPC->
0

>  <Q_VSA_FHYD>
1

>  <Q_VSA_FNEG>
0

>  <Q_VSA_FPNEG>
0

>  <Q_VSA_FPOL>
0

>  <Q_VSA_FPOS>
1

>  <Q_VSA_FPPOS>
0

>  <Q_VSA_HYD>
200.31389

>  <Q_VSA_NEG>
0

>  <Q_VSA_PNEG>
0

>  <Q_VSA_POL>
0

>  <Q_VSA_POS>
200.31389

>  <Q_VSA_PPOS>
0

>  <radius>
4

>  <reactive>
1

>  <rings>
3

>  <RPC+>
0

>  <RPC->
0

>  <rsynth>
1

>  <SlogP>
2.23297

>  <SlogP_VSA0>
50.770454

>  <SlogP_VSA1>
5.6876111

>  <SlogP_VSA2>
0

>  <SlogP_VSA3>
0

>  <SlogP_VSA4>
36.604515

>  <SlogP_VSA5>
18.868406

>  <SlogP_VSA6>
0

>  <SlogP_VSA7>
105.85911

>  <SlogP_VSA8>
0

>  <SlogP_VSA9>
10.486856

>  <SMR>
6.2452102

>  <SMR_VSA0>
23.862217

>  <SMR_VSA1>
50.770454

>  <SMR_VSA2>
0

>  <SMR_VSA3>
23.229156

>  <SMR_VSA4>
0

>  <SMR_VSA5>
124.72751

>  <SMR_VSA6>
5.6876111

>  <SMR_VSA7>
0

>  <TPSA>
57.529999

>  <VAdjEq>
0.56150466

>  <VAdjMa>
5.2479277

>  <VDistEq>
2.6217837

>  <VDistMa>
7.9151831

>  <vdw_area>
200.31389

>  <vdw_vol>
297.02936

>  <vsa_acc>
13.566921

>  <vsa_acid>
0

>  <vsa_base>
0

>  <vsa_don>
0

>  <vsa_hyd>
136.41066

>  <vsa_other>
8.458519

>  <vsa_pol>
40.700764

>  <Weight>
226.23099

>  <weinerPath>
450

>  <weinerPol>
31

>  <zagreb>
94

$$$$