O1[C@@H]2[C@]34CCN([C@H](Cc5c3c1c(O)cc5)[C@]4(O)CC[C@@H]2O)CC1CCC1
  MOE2013           2D

 26 31  0  0  1  0  0  0  0  0999 V2000
    0.0000    0.0000    0.0000 O   0  0  0  0  0  0  0  0  0  0  0  0
    1.2860   -1.2190    0.0000 C   0  0  2  0  0  0  0  0  0  0  0  0
    2.3890   -0.3150    0.0000 C   0  0  2  0  0  0  0  0  0  0  0  0
    3.2290    0.8770    0.0000 C   0  0  0  0  0  0  0  0  0  0  0  0
    5.3710    1.0850    0.0000 C   0  0  0  0  0  0  0  0  0  0  0  0
    6.2870   -0.0260    0.0000 N   0  0  3  0  0  0  0  0  0  0  0  0
    4.8470    0.0960    0.0000 C   0  0  2  0  0  0  0  0  0  0  0  0
    4.6020    1.5110    0.0000 C   0  0  0  0  0  0  0  0  0  0  0  0
    3.2530    2.0170    0.0000 C   0  0  0  0  0  0  0  0  0  0  0  0
    2.1480    1.1050    0.0000 C   0  0  0  0  0  0  0  0  0  0  0  0
    0.8070    1.6000    0.0000 C   0  0  0  0  0  0  0  0  0  0  0  0
    0.5710    3.0170    0.0000 C   0  0  0  0  0  0  0  0  0  0  0  0
   -0.8340    3.5420    0.0000 O   0  0  0  0  0  0  0  0  0  0  0  0
    1.6760    3.9290    0.0000 C   0  0  0  0  0  0  0  0  0  0  0  0
    3.0170    3.4220    0.0000 C   0  0  0  0  0  0  0  0  0  0  0  0
    3.7320   -0.8210    0.0000 C   0  0  1  0  0  0  0  0  0  0  0  0
    5.1390   -1.3400    0.0000 O   0  0  0  0  0  0  0  0  0  0  0  0
    3.9710   -2.2310    0.0000 C   0  0  0  0  0  0  0  0  0  0  0  0
    2.8590   -3.1390    0.0000 C   0  0  0  0  0  0  0  0  0  0  0  0
    1.5160   -2.6330    0.0000 C   0  0  2  0  0  0  0  0  0  0  0  0
    0.3550   -3.5830    0.0000 O   0  0  0  0  0  0  0  0  0  0  0  0
    7.6160   -0.7230    0.0000 C   0  0  0  0  0  0  0  0  0  0  0  0
    8.8830    0.0800    0.0000 C   0  0  0  0  0  0  0  0  0  0  0  0
   10.3470   -0.2490    0.0000 C   0  0  0  0  0  0  0  0  0  0  0  0
   10.6750    1.2140    0.0000 C   0  0  0  0  0  0  0  0  0  0  0  0
    9.2120    1.5430    0.0000 C   0  0  0  0  0  0  0  0  0  0  0  0
  1 11  1  0  0  0  0
  2  1  1  6  0  0  0
  2  3  1  0  0  0  0
  2 20  1  0  0  0  0
  3  4  1  1  0  0  0
  3 10  1  0  0  0  0
  3 16  1  0  0  0  0
  4  5  1  0  0  0  0
  5  6  1  0  0  0  0
  6 22  1  0  0  0  0
  7  6  1  1  0  0  0
  7  8  1  0  0  0  0
  7 16  1  0  0  0  0
  8  9  1  0  0  0  0
  9 10  1  0  0  0  0
  9 15  2  0  0  0  0
 10 11  2  0  0  0  0
 11 12  1  0  0  0  0
 12 13  1  0  0  0  0
 12 14  2  0  0  0  0
 14 15  1  0  0  0  0
 16 17  1  1  0  0  0
 16 18  1  0  0  0  0
 18 19  1  0  0  0  0
 19 20  1  0  0  0  0
 20 21  1  6  0  0  0
 22 23  1  0  0  0  0
 23 24  1  0  0  0  0
 23 26  1  0  0  0  0
 24 25  1  0  0  0  0
 25 26  1  0  0  0  0
M  END
>  <Index>
743

>  <ID>
HT1455

>  <class>
0

>  <apol>
59.271412

>  <ast_fraglike>
0

>  <ast_fraglike_ext>
0

>  <ast_violation>
2

>  <ast_violation_ext>
2

>  <a_acc>
5

>  <a_acid>
0

>  <a_aro>
6

>  <a_base>
0

>  <a_count>
53

>  <a_don>
3

>  <a_donacc>
8

>  <a_heavy>
26

>  <a_hyd>
21

>  <a_IC>
74.959152

>  <a_ICM>
1.4143237

>  <a_nB>
0

>  <a_nBr>
0

>  <a_nC>
21

>  <a_nCl>
0

>  <a_nF>
0

>  <a_nH>
27

>  <a_nI>
0

>  <a_nN>
1

>  <a_nO>
4

>  <a_nP>
0

>  <a_nS>
0

>  <balabanJ>
1.4283216

>  <BCUT_PEOE_0>
-2.9299047

>  <BCUT_PEOE_1>
-0.55376059

>  <BCUT_PEOE_2>
0.62525022

>  <BCUT_PEOE_3>
2.9522915

>  <BCUT_SLOGP_0>
-3.0167453

>  <BCUT_SLOGP_1>
-0.55201942

>  <BCUT_SLOGP_2>
0.67485303

>  <BCUT_SLOGP_3>
2.9057002

>  <BCUT_SMR_0>
-2.6833136

>  <BCUT_SMR_1>
-0.43667322

>  <BCUT_SMR_2>
0.79182279

>  <BCUT_SMR_3>
3.1895301

>  <bpol>
33.41259

>  <b_1rotN>
2

>  <b_1rotR>
0.064516127

>  <b_ar>
6

>  <b_count>
58

>  <b_double>
0

>  <b_heavy>
31

>  <b_max1len>
3

>  <b_rotN>
2

>  <b_rotR>
0.064516127

>  <b_single>
52

>  <b_triple>
0

>  <chi0>
17.681435

>  <chi0v>
15.025166

>  <chi0v_C>
12.828063

>  <chi0_C>
13.396976

>  <chi1>
12.543479

>  <chi1v>
10.209162

>  <chi1v_C>
8.1732693

>  <chi1_C>
8.922452

>  <chiral>
5

>  <chiral_u>
0

>  <density>
0.74475241

>  <diameter>
11

>  <FCharge>
0

>  <GCUT_PEOE_0>
-0.85926801

>  <GCUT_PEOE_1>
-0.39337182

>  <GCUT_PEOE_2>
0.073173441

>  <GCUT_PEOE_3>
3.2679214

>  <GCUT_SLOGP_0>
-0.96437573

>  <GCUT_SLOGP_1>
-0.35732508

>  <GCUT_SLOGP_2>
0.098877966

>  <GCUT_SLOGP_3>
3.274127

>  <GCUT_SMR_0>
-0.58726424

>  <GCUT_SMR_1>
-0.23203963

>  <GCUT_SMR_2>
0.16071898

>  <GCUT_SMR_3>
3.5008841

>  <Kier1>
16.90947

>  <Kier2>
5.5363321

>  <Kier3>
1.9702559

>  <KierA1>
15.394655

>  <KierA2>
5.0206299

>  <KierA3>
1.7817254

>  <KierFlex>
2.9727256

>  <lip_acc>
5

>  <lip_don>
3

>  <lip_druglike>
1

>  <lip_violation>
0

>  <logP(o/w)>
1.9859999

>  <logS>
-2.7298999

>  <mr>
9.5362921

>  <mutagenic>
0

>  <nmol>
1

>  <opr_brigid>
26

>  <opr_leadlike>
1

>  <opr_nring>
6

>  <opr_nrot>
2

>  <opr_violation>
1

>  <PC+>
0

>  <PC->
0

>  <PEOE_PC+>
2.1416028

>  <PEOE_PC->
-2.1416028

>  <PEOE_RPC+>
0.10152292

>  <PEOE_RPC->
0.18172462

>  <PEOE_VSA+0>
114.83833

>  <PEOE_VSA+1>
21.966473

>  <PEOE_VSA+2>
21.821968

>  <PEOE_VSA+3>
0

>  <PEOE_VSA+4>
30.972517

>  <PEOE_VSA+5>
0

>  <PEOE_VSA+6>
0

>  <PEOE_VSA-0>
68.87986

>  <PEOE_VSA-1>
20.956217

>  <PEOE_VSA-2>
0

>  <PEOE_VSA-3>
0

>  <PEOE_VSA-4>
0

>  <PEOE_VSA-5>
0

>  <PEOE_VSA-6>
25.806377

>  <PEOE_VSA_FHYD>
0.81398714

>  <PEOE_VSA_FNEG>
0.37885532

>  <PEOE_VSA_FPNEG>
0.084544063

>  <PEOE_VSA_FPOL>
0.18601288

>  <PEOE_VSA_FPOS>
0.62114471

>  <PEOE_VSA_FPPOS>
0.10146882

>  <PEOE_VSA_HYD>
248.46284

>  <PEOE_VSA_NEG>
115.64246

>  <PEOE_VSA_PNEG>
25.806377

>  <PEOE_VSA_POL>
56.778896

>  <PEOE_VSA_POS>
189.59929

>  <PEOE_VSA_PPOS>
30.972517

>  <petitjean>
0.45454547

>  <petitjeanSC>
0.83333331

>  <Q_PC+>
0

>  <Q_PC->
0

>  <Q_RPC+>
0

>  <Q_RPC->
0

>  <Q_VSA_FHYD>
1

>  <Q_VSA_FNEG>
0

>  <Q_VSA_FPNEG>
0

>  <Q_VSA_FPOL>
0

>  <Q_VSA_FPOS>
1

>  <Q_VSA_FPPOS>
0

>  <Q_VSA_HYD>
305.24176

>  <Q_VSA_NEG>
0

>  <Q_VSA_PNEG>
0

>  <Q_VSA_POL>
0

>  <Q_VSA_POS>
305.24176

>  <Q_VSA_PPOS>
0

>  <radius>
6

>  <reactive>
0

>  <rings>
6

>  <RPC+>
0

>  <RPC->
0

>  <rsynth>
0.03846154

>  <SlogP>
1.70727

>  <SlogP_VSA0>
87.155563

>  <SlogP_VSA1>
3.1243138

>  <SlogP_VSA2>
16.919268

>  <SlogP_VSA3>
36.879158

>  <SlogP_VSA4>
10.781946

>  <SlogP_VSA5>
18.868406

>  <SlogP_VSA6>
0

>  <SlogP_VSA7>
35.286369

>  <SlogP_VSA8>
113.21043

>  <SlogP_VSA9>
10.486856

>  <SMR>
9.54144

>  <SMR_VSA0>
0

>  <SMR_VSA1>
90.279884

>  <SMR_VSA2>
4.4107962

>  <SMR_VSA3>
33.777275

>  <SMR_VSA4>
0

>  <SMR_VSA5>
167.3652

>  <SMR_VSA6>
36.879158

>  <SMR_VSA7>
0

>  <TPSA>
73.160004

>  <VAdjEq>
0.44217172

>  <VAdjMa>
5.9541965

>  <VDistEq>
3.0567255

>  <VDistMa>
9.1470051

>  <vdw_area>
305.24176

>  <vdw_vol>
479.95813

>  <vsa_acc>
2.503756

>  <vsa_acid>
0

>  <vsa_base>
0

>  <vsa_don>
0

>  <vsa_hyd>
230.03471

>  <vsa_other>
0

>  <vsa_pol>
43.204517

>  <Weight>
357.44998

>  <weinerPath>
1356

>  <weinerPol>
60

>  <zagreb>
164

$$$$