OC(=O)/C(=C/C(O)=O)/CC
  MOE2013           2D

 10  9  0  0  0  0  0  0  0  0999 V2000
    0.0000    0.0000    0.0000 O   0  0  0  0  0  0  0  0  0  0  0  0
    1.3040   -0.7410    0.0000 C   0  0  0  0  0  0  0  0  0  0  0  0
    1.3150   -2.2410    0.0000 O   0  0  0  0  0  0  0  0  0  0  0  0
    2.5980    0.0180    0.0000 C   0  0  0  0  0  0  0  0  0  0  0  0
    3.9020   -0.7230    0.0000 C   0  0  0  0  0  0  0  0  0  0  0  0
    5.1960    0.0360    0.0000 C   0  0  0  0  0  0  0  0  0  0  0  0
    6.5000   -0.7050    0.0000 O   0  0  0  0  0  0  0  0  0  0  0  0
    5.1860    1.5360    0.0000 O   0  0  0  0  0  0  0  0  0  0  0  0
    2.5880    1.5180    0.0000 C   0  0  0  0  0  0  0  0  0  0  0  0
    1.2830    2.2590    0.0000 C   0  0  0  0  0  0  0  0  0  0  0  0
  1  2  1  0  0  0  0
  2  3  2  0  0  0  0
  2  4  1  0  0  0  0
  4  5  2  0  0  0  0
  4  9  1  0  0  0  0
  5  6  1  0  0  0  0
  6  7  1  0  0  0  0
  6  8  2  0  0  0  0
  9 10  1  0  0  0  0
M  END
>  <Index>
730

>  <ID>
HT1432

>  <class>
0

>  <apol>
19.102345

>  <ast_fraglike>
0

>  <ast_fraglike_ext>
0

>  <ast_violation>
2

>  <ast_violation_ext>
2

>  <a_acc>
4

>  <a_acid>
0

>  <a_aro>
0

>  <a_base>
0

>  <a_count>
18

>  <a_don>
4

>  <a_donacc>
8

>  <a_heavy>
10

>  <a_hyd>
4

>  <a_IC>
27.548876

>  <a_ICM>
1.530493

>  <a_nB>
0

>  <a_nBr>
0

>  <a_nC>
6

>  <a_nCl>
0

>  <a_nF>
0

>  <a_nH>
8

>  <a_nI>
0

>  <a_nN>
0

>  <a_nO>
4

>  <a_nP>
0

>  <a_nS>
0

>  <balabanJ>
3.6704559

>  <BCUT_PEOE_0>
-2.3998096

>  <BCUT_PEOE_1>
-0.5343684

>  <BCUT_PEOE_2>
0.50532722

>  <BCUT_PEOE_3>
2.405304

>  <BCUT_SLOGP_0>
-2.3128035

>  <BCUT_SLOGP_1>
-0.50292993

>  <BCUT_SLOGP_2>
0.46829569

>  <BCUT_SLOGP_3>
2.5149894

>  <BCUT_SMR_0>
-2.159339

>  <BCUT_SMR_1>
-0.33278468

>  <BCUT_SMR_2>
0.63206202

>  <BCUT_SMR_3>
2.6555068

>  <bpol>
10.661656

>  <b_1rotN>
3

>  <b_1rotR>
0.33333334

>  <b_ar>
0

>  <b_count>
17

>  <b_double>
3

>  <b_heavy>
9

>  <b_max1len>
3

>  <b_rotN>
3

>  <b_rotR>
0.33333334

>  <b_single>
14

>  <b_triple>
0

>  <chi0>
8.1462641

>  <chi0v>
5.4953809

>  <chi0v_C>
3.784457

>  <chi0_C>
4.1462646

>  <chi1>
4.5745859

>  <chi1v>
2.7434723

>  <chi1v_C>
1.8880104

>  <chi1_C>
2.2651849

>  <chiral>
0

>  <chiral_u>
0

>  <density>
0.82844597

>  <diameter>
5

>  <FCharge>
0

>  <GCUT_PEOE_0>
-0.75956398

>  <GCUT_PEOE_1>
-0.48370409

>  <GCUT_PEOE_2>
0.11583215

>  <GCUT_PEOE_3>
2.0200732

>  <GCUT_SLOGP_0>
-0.87643278

>  <GCUT_SLOGP_1>
-0.40368405

>  <GCUT_SLOGP_2>
0.069549926

>  <GCUT_SLOGP_3>
2.0541255

>  <GCUT_SMR_0>
-0.51221257

>  <GCUT_SMR_1>
-0.24091531

>  <GCUT_SMR_2>
0.22269413

>  <GCUT_SMR_3>
2.2568271

>  <Kier1>
10

>  <Kier2>
4.7603307

>  <Kier3>
4.48

>  <KierA1>
7.4767003

>  <KierA2>
3.4295368

>  <KierA3>
3.1301475

>  <KierFlex>
2.564162

>  <lip_acc>
4

>  <lip_don>
2

>  <lip_druglike>
1

>  <lip_violation>
0

>  <logP(o/w)>
0.463

>  <logS>
-0.62020999

>  <mr>
3.4327824

>  <mutagenic>
0

>  <nmol>
1

>  <opr_brigid>
1

>  <opr_leadlike>
1

>  <opr_nring>
0

>  <opr_nrot>
3

>  <opr_violation>
0

>  <PC+>
0

>  <PC->
0

>  <PEOE_PC+>
1.2612519

>  <PEOE_PC->
-1.2612519

>  <PEOE_RPC+>
0.22785853

>  <PEOE_RPC->
0.25999641

>  <PEOE_VSA+0>
35.790375

>  <PEOE_VSA+1>
4.2653861

>  <PEOE_VSA+2>
0

>  <PEOE_VSA+3>
0

>  <PEOE_VSA+4>
20.648346

>  <PEOE_VSA+5>
29.416998

>  <PEOE_VSA+6>
0

>  <PEOE_VSA-0>
8.701313

>  <PEOE_VSA-1>
18.747677

>  <PEOE_VSA-2>
0

>  <PEOE_VSA-3>
0

>  <PEOE_VSA-4>
0

>  <PEOE_VSA-5>
27.133842

>  <PEOE_VSA-6>
15.535081

>  <PEOE_VSA_FHYD>
0.42127538

>  <PEOE_VSA_FNEG>
0.43758327

>  <PEOE_VSA_FPNEG>
0.26628298

>  <PEOE_VSA_FPOL>
0.57872462

>  <PEOE_VSA_FPOS>
0.56241673

>  <PEOE_VSA_FPPOS>
0.31244165

>  <PEOE_VSA_HYD>
67.504753

>  <PEOE_VSA_NEG>
70.117912

>  <PEOE_VSA_PNEG>
42.668922

>  <PEOE_VSA_POL>
92.734268

>  <PEOE_VSA_POS>
90.121101

>  <PEOE_VSA_PPOS>
50.065342

>  <petitjean>
0.40000001

>  <petitjeanSC>
0.66666669

>  <Q_PC+>
0

>  <Q_PC->
0

>  <Q_RPC+>
0

>  <Q_RPC->
0

>  <Q_VSA_FHYD>
1

>  <Q_VSA_FNEG>
0

>  <Q_VSA_FPNEG>
0

>  <Q_VSA_FPOL>
0

>  <Q_VSA_FPOS>
1

>  <Q_VSA_FPPOS>
0

>  <Q_VSA_HYD>
160.23901

>  <Q_VSA_NEG>
0

>  <Q_VSA_PNEG>
0

>  <Q_VSA_POL>
0

>  <Q_VSA_POS>
160.23901

>  <Q_VSA_PPOS>
0

>  <radius>
3

>  <reactive>
0

>  <rings>
0

>  <RPC+>
0

>  <RPC->
0

>  <rsynth>
0

>  <SlogP>
0.49200001

>  <SlogP_VSA0>
0

>  <SlogP_VSA1>
15.490929

>  <SlogP_VSA2>
47.724434

>  <SlogP_VSA3>
50.770454

>  <SlogP_VSA4>
0

>  <SlogP_VSA5>
3.185575

>  <SlogP_VSA6>
0

>  <SlogP_VSA7>
17.643185

>  <SlogP_VSA8>
18.868406

>  <SlogP_VSA9>
33.326015

>  <SMR>
3.3645599

>  <SMR_VSA0>
47.724434

>  <SMR_VSA1>
0

>  <SMR_VSA2>
50.770454

>  <SMR_VSA3>
3.185575

>  <SMR_VSA4>
0

>  <SMR_VSA5>
36.511589

>  <SMR_VSA6>
15.490929

>  <SMR_VSA7>
33.326015

>  <TPSA>
74.599998

>  <VAdjEq>
0.68007702

>  <VAdjMa>
4.1699252

>  <VDistEq>
2.2953763

>  <VDistMa>
6.3256397

>  <vdw_area>
160.23901

>  <vdw_vol>
173.97151

>  <vsa_acc>
0

>  <vsa_acid>
0

>  <vsa_base>
0

>  <vsa_don>
0

>  <vsa_hyd>
63.233978

>  <vsa_other>
29.416998

>  <vsa_pol>
54.267685

>  <Weight>
144.12599

>  <weinerPath>
127

>  <weinerPol>
10

>  <zagreb>
40

$$$$