O(C)c1ccc(cc1)C1C(=O)c2c(cccc2)C1=O
  MOE2013           2D

 19 21  0  0  0  0  0  0  0  0999 V2000
    0.0000    0.0000    0.0000 O   0  0  0  0  0  0  0  0  0  0  0  0
    0.7600   -1.2930    0.0000 C   0  0  0  0  0  0  0  0  0  0  0  0
   -1.5000   -0.0120    0.0000 C   0  0  0  0  0  0  0  0  0  0  0  0
   -2.2600    1.2820    0.0000 C   0  0  0  0  0  0  0  0  0  0  0  0
   -3.7600    1.2700    0.0000 C   0  0  0  0  0  0  0  0  0  0  0  0
   -4.5000   -0.0350    0.0000 C   0  0  0  0  0  0  0  0  0  0  0  0
   -3.7400   -1.3280    0.0000 C   0  0  0  0  0  0  0  0  0  0  0  0
   -2.2400   -1.3160    0.0000 C   0  0  0  0  0  0  0  0  0  0  0  0
   -6.0000   -0.0460    0.0000 C   0  0  0  0  0  0  0  0  0  0  0  0
   -6.8910    1.1600    0.0000 C   0  0  0  0  0  0  0  0  0  0  0  0
   -6.4380    2.5910    0.0000 O   0  0  0  0  0  0  0  0  0  0  0  0
   -8.3140    0.6860    0.0000 C   0  0  0  0  0  0  0  0  0  0  0  0
   -8.3020   -0.8140    0.0000 C   0  0  0  0  0  0  0  0  0  0  0  0
   -9.5950   -1.5740    0.0000 C   0  0  0  0  0  0  0  0  0  0  0  0
  -10.9000   -0.8340    0.0000 C   0  0  0  0  0  0  0  0  0  0  0  0
  -10.9120    0.6660    0.0000 C   0  0  0  0  0  0  0  0  0  0  0  0
   -9.6190    1.4260    0.0000 C   0  0  0  0  0  0  0  0  0  0  0  0
   -6.8720   -1.2670    0.0000 C   0  0  0  0  0  0  0  0  0  0  0  0
   -6.3980   -2.6900    0.0000 O   0  0  0  0  0  0  0  0  0  0  0  0
  1  2  1  0  0  0  0
  1  3  1  0  0  0  0
  3  4  1  0  0  0  0
  3  8  2  0  0  0  0
  4  5  2  0  0  0  0
  5  6  1  0  0  0  0
  6  7  2  0  0  0  0
  6  9  1  0  0  0  0
  7  8  1  0  0  0  0
  9 10  1  0  0  0  0
  9 18  1  0  0  0  0
 10 11  2  0  0  0  0
 10 12  1  0  0  0  0
 12 13  1  0  0  0  0
 12 17  2  0  0  0  0
 13 14  2  0  0  0  0
 13 18  1  0  0  0  0
 14 15  1  0  0  0  0
 15 16  2  0  0  0  0
 16 17  1  0  0  0  0
 18 19  2  0  0  0  0
M  END
>  <Index>
79

>  <ID>
HT0162

>  <class>
0

>  <apol>
38.567516

>  <ast_fraglike>
1

>  <ast_fraglike_ext>
1

>  <ast_violation>
0

>  <ast_violation_ext>
0

>  <a_acc>
3

>  <a_acid>
0

>  <a_aro>
12

>  <a_base>
0

>  <a_count>
31

>  <a_don>
0

>  <a_donacc>
3

>  <a_heavy>
19

>  <a_hyd>
14

>  <a_IC>
41.805649

>  <a_ICM>
1.3485693

>  <a_nB>
0

>  <a_nBr>
0

>  <a_nC>
16

>  <a_nCl>
0

>  <a_nF>
0

>  <a_nH>
12

>  <a_nI>
0

>  <a_nN>
0

>  <a_nO>
3

>  <a_nP>
0

>  <a_nS>
0

>  <balabanJ>
1.6809487

>  <BCUT_PEOE_0>
-2.3095295

>  <BCUT_PEOE_1>
-0.63992232

>  <BCUT_PEOE_2>
0.65159941

>  <BCUT_PEOE_3>
2.5224426

>  <BCUT_SLOGP_0>
-2.3038945

>  <BCUT_SLOGP_1>
-0.53807992

>  <BCUT_SLOGP_2>
0.73351258

>  <BCUT_SLOGP_3>
2.508388

>  <BCUT_SMR_0>
-2.029068

>  <BCUT_SMR_1>
-0.43005973

>  <BCUT_SMR_2>
0.82615429

>  <BCUT_SMR_3>
2.7984483

>  <bpol>
16.950483

>  <b_1rotN>
2

>  <b_1rotR>
0.095238097

>  <b_ar>
12

>  <b_count>
33

>  <b_double>
2

>  <b_heavy>
21

>  <b_max1len>
2

>  <b_rotN>
2

>  <b_rotR>
0.095238097

>  <b_single>
19

>  <b_triple>
0

>  <chi0>
13.405413

>  <chi0v>
10.420897

>  <chi0v_C>
9.1961527

>  <chi0_C>
10.698306

>  <chi1>
9.2195454

>  <chi1v>
6.0353637

>  <chi1v_C>
5.0147429

>  <chi1_C>
6.9494896

>  <chiral>
0

>  <chiral_u>
0

>  <density>
0.74047905

>  <diameter>
10

>  <FCharge>
0

>  <GCUT_PEOE_0>
-0.78916454

>  <GCUT_PEOE_1>
-0.42880082

>  <GCUT_PEOE_2>
0.060547557

>  <GCUT_PEOE_3>
2.4735835

>  <GCUT_SLOGP_0>
-0.88678306

>  <GCUT_SLOGP_1>
-0.30901262

>  <GCUT_SLOGP_2>
0.14598094

>  <GCUT_SLOGP_3>
2.5533316

>  <GCUT_SMR_0>
-0.48353302

>  <GCUT_SMR_1>
-0.21605732

>  <GCUT_SMR_2>
0.19305076

>  <GCUT_SMR_3>
2.7634909

>  <Kier1>
13.959184

>  <Kier2>
5.7800002

>  <Kier3>
2.4921579

>  <KierA1>
9.5810661

>  <KierA2>
3.8759706

>  <KierA3>
1.6409315

>  <KierFlex>
1.9545227

>  <lip_acc>
3

>  <lip_don>
0

>  <lip_druglike>
1

>  <lip_violation>
0

>  <logP(o/w)>
2.6949999

>  <logS>
-3.89785

>  <mr>
7.230813

>  <mutagenic>
0

>  <nmol>
1

>  <opr_brigid>
16

>  <opr_leadlike>
1

>  <opr_nring>
3

>  <opr_nrot>
2

>  <opr_violation>
0

>  <PC+>
0

>  <PC->
0

>  <PEOE_PC+>
1.355067

>  <PEOE_PC->
-1.355067

>  <PEOE_RPC+>
0.13183947

>  <PEOE_RPC->
0.25674906

>  <PEOE_VSA+0>
29.414736

>  <PEOE_VSA+1>
59.64315

>  <PEOE_VSA+2>
0

>  <PEOE_VSA+3>
16.917038

>  <PEOE_VSA+4>
0

>  <PEOE_VSA+5>
0

>  <PEOE_VSA+6>
0

>  <PEOE_VSA-0>
26.718348

>  <PEOE_VSA-1>
73.529427

>  <PEOE_VSA-2>
0

>  <PEOE_VSA-3>
0

>  <PEOE_VSA-4>
0

>  <PEOE_VSA-5>
27.133842

>  <PEOE_VSA-6>
2.503756

>  <PEOE_VSA_FHYD>
0.87434256

>  <PEOE_VSA_FNEG>
0.55068773

>  <PEOE_VSA_FPNEG>
0.12565742

>  <PEOE_VSA_FPOL>
0.12565742

>  <PEOE_VSA_FPOS>
0.44931227

>  <PEOE_VSA_FPPOS>
0

>  <PEOE_VSA_HYD>
206.2227

>  <PEOE_VSA_NEG>
129.88538

>  <PEOE_VSA_PNEG>
29.637598

>  <PEOE_VSA_POL>
29.637598

>  <PEOE_VSA_POS>
105.97493

>  <PEOE_VSA_PPOS>
0

>  <petitjean>
0.5

>  <petitjeanSC>
1

>  <Q_PC+>
0

>  <Q_PC->
0

>  <Q_RPC+>
0

>  <Q_RPC->
0

>  <Q_VSA_FHYD>
1

>  <Q_VSA_FNEG>
0

>  <Q_VSA_FPNEG>
0

>  <Q_VSA_FPOL>
0

>  <Q_VSA_FPOS>
1

>  <Q_VSA_FPPOS>
0

>  <Q_VSA_HYD>
235.86029

>  <Q_VSA_NEG>
0

>  <Q_VSA_PNEG>
0

>  <Q_VSA_POL>
0

>  <Q_VSA_POS>
235.86029

>  <Q_VSA_PPOS>
0

>  <radius>
5

>  <reactive>
1

>  <rings>
3

>  <RPC+>
0

>  <RPC->
0

>  <rsynth>
1

>  <SlogP>
2.858

>  <SlogP_VSA0>
10.999887

>  <SlogP_VSA1>
11.375222

>  <SlogP_VSA2>
0

>  <SlogP_VSA3>
0

>  <SlogP_VSA4>
57.281158

>  <SlogP_VSA5>
35.383869

>  <SlogP_VSA6>
4.4107962

>  <SlogP_VSA7>
141.14548

>  <SlogP_VSA8>
0

>  <SlogP_VSA9>
5.2434282

>  <SMR>
7.0837998

>  <SMR_VSA0>
47.724434

>  <SMR_VSA1>
10.999887

>  <SMR_VSA2>
0

>  <SMR_VSA3>
19.210949

>  <SMR_VSA4>
0

>  <SMR_VSA5>
141.14548

>  <SMR_VSA6>
11.375222

>  <SMR_VSA7>
35.383869

>  <TPSA>
43.369999

>  <VAdjEq>
0.51875818

>  <VAdjMa>
5.3923173

>  <VDistEq>
3.0325377

>  <VDistMa>
8.1961193

>  <vdw_area>
235.86029

>  <vdw_vol>
340.6835

>  <vsa_acc>
29.637598

>  <vsa_acid>
0

>  <vsa_base>
0

>  <vsa_don>
0

>  <vsa_hyd>
179.41907

>  <vsa_other>
16.917038

>  <vsa_pol>
29.637598

>  <Weight>
252.269

>  <weinerPath>
679

>  <weinerPol>
32

>  <zagreb>
102

$$$$