O=C1CC[C@@H]2[C@@H]3[C@H]([C@@H]4CC[C@@](O)(C#C)[C@]4(CC3)C)CCC2=C1
  MOE2013           2D

 22 25  0  0  1  0  0  0  0  0999 V2000
    0.0000    0.0000    0.0000 O   0  0  0  0  0  0  0  0  0  0  0  0
   -1.5000    0.0040    0.0000 C   0  0  0  0  0  0  0  0  0  0  0  0
   -2.2540   -1.2920    0.0000 C   0  0  0  0  0  0  0  0  0  0  0  0
   -3.7540   -1.2880    0.0000 C   0  0  0  0  0  0  0  0  0  0  0  0
   -4.5000    0.0130    0.0000 C   0  0  2  0  0  0  0  0  0  0  0  0
   -6.0000    0.0180    0.0000 C   0  0  2  0  0  0  0  0  0  0  0  0
   -6.7460    1.3190    0.0000 C   0  0  2  0  0  0  0  0  0  0  0  0
   -8.2460    1.3230    0.0000 C   0  0  2  0  0  0  0  0  0  0  0  0
   -9.2470    2.4410    0.0000 C   0  0  0  0  0  0  0  0  0  0  0  0
  -10.6190    1.8350    0.0000 C   0  0  0  0  0  0  0  0  0  0  0  0
  -10.4660    0.3420    0.0000 C   0  0  1  0  0  0  0  0  0  0  0  0
  -10.8590   -1.1050    0.0000 O   0  0  0  0  0  0  0  0  0  0  0  0
  -11.9290    0.0090    0.0000 C   0  0  0  0  0  0  0  0  0  0  0  0
  -13.3910   -0.3240    0.0000 C   0  0  0  0  0  0  0  0  0  0  0  0
   -9.0000    0.0260    0.0000 C   0  0  1  0  0  0  0  0  0  0  0  0
   -8.2540   -1.2750    0.0000 C   0  0  0  0  0  0  0  0  0  0  0  0
   -6.7540   -1.2790    0.0000 C   0  0  0  0  0  0  0  0  0  0  0  0
   -9.8850   -1.1850    0.0000 C   0  0  0  0  0  0  0  0  0  0  0  0
   -5.9920    2.6160    0.0000 C   0  0  0  0  0  0  0  0  0  0  0  0
   -4.4920    2.6110    0.0000 C   0  0  0  0  0  0  0  0  0  0  0  0
   -3.7460    1.3100    0.0000 C   0  0  0  0  0  0  0  0  0  0  0  0
   -2.2460    1.3060    0.0000 C   0  0  0  0  0  0  0  0  0  0  0  0
  1  2  2  0  0  0  0
  2  3  1  0  0  0  0
  2 22  1  0  0  0  0
  3  4  1  0  0  0  0
  5  4  1  6  0  0  0
  5  6  1  0  0  0  0
  5 21  1  0  0  0  0
  6  7  1  0  0  0  0
  6 17  1  1  0  0  0
  7  8  1  0  0  0  0
  7 19  1  6  0  0  0
  8  9  1  1  0  0  0
  8 15  1  0  0  0  0
  9 10  1  0  0  0  0
 10 11  1  0  0  0  0
 11 12  1  1  0  0  0
 11 13  1  6  0  0  0
 11 15  1  0  0  0  0
 13 14  3  0  0  0  0
 15 16  1  0  0  0  0
 15 18  1  1  0  0  0
 16 17  1  0  0  0  0
 19 20  1  0  0  0  0
 20 21  1  0  0  0  0
 21 22  2  0  0  0  0
M  END
>  <Index>
781

>  <ID>
HT1523

>  <class>
0

>  <apol>
54.140617

>  <ast_fraglike>
0

>  <ast_fraglike_ext>
0

>  <ast_violation>
1

>  <ast_violation_ext>
1

>  <a_acc>
2

>  <a_acid>
0

>  <a_aro>
0

>  <a_base>
0

>  <a_count>
48

>  <a_don>
1

>  <a_donacc>
3

>  <a_heavy>
22

>  <a_hyd>
19

>  <a_IC>
57.428204

>  <a_ICM>
1.1964209

>  <a_nB>
0

>  <a_nBr>
0

>  <a_nC>
20

>  <a_nCl>
0

>  <a_nF>
0

>  <a_nH>
26

>  <a_nI>
0

>  <a_nN>
0

>  <a_nO>
2

>  <a_nP>
0

>  <a_nS>
0

>  <balabanJ>
1.5802456

>  <BCUT_PEOE_0>
-2.9276717

>  <BCUT_PEOE_1>
-0.55202597

>  <BCUT_PEOE_2>
0.51786423

>  <BCUT_PEOE_3>
2.9544325

>  <BCUT_SLOGP_0>
-2.8517709

>  <BCUT_SLOGP_1>
-0.51719511

>  <BCUT_SLOGP_2>
0.50008494

>  <BCUT_SLOGP_3>
3.0232344

>  <BCUT_SMR_0>
-2.674099

>  <BCUT_SMR_1>
-0.34810695

>  <BCUT_SMR_2>
0.66035074

>  <BCUT_SMR_3>
3.202657

>  <bpol>
29.381382

>  <b_1rotN>
0

>  <b_1rotR>
0

>  <b_ar>
0

>  <b_count>
51

>  <b_double>
2

>  <b_heavy>
25

>  <b_max1len>
3

>  <b_rotN>
1

>  <b_rotR>
0.039999999

>  <b_single>
48

>  <b_triple>
1

>  <chi0>
15.53517

>  <chi0v>
13.476418

>  <chi0v_C>
12.620955

>  <chi0_C>
13.53517

>  <chi1>
10.483112

>  <chi1v>
8.918313

>  <chi1v_C>
8.4905825

>  <chi1_C>
9.4057617

>  <chiral>
6

>  <chiral_u>
0

>  <density>
0.67995435

>  <diameter>
11

>  <FCharge>
0

>  <GCUT_PEOE_0>
-0.79317242

>  <GCUT_PEOE_1>
-0.3964214

>  <GCUT_PEOE_2>
0.022538343

>  <GCUT_PEOE_3>
3.2179427

>  <GCUT_SLOGP_0>
-0.88826323

>  <GCUT_SLOGP_1>
-0.32665971

>  <GCUT_SLOGP_2>
0.027580697

>  <GCUT_SLOGP_3>
3.297267

>  <GCUT_SMR_0>
-0.53743935

>  <GCUT_SMR_1>
-0.22488084

>  <GCUT_SMR_2>
0.16802847

>  <GCUT_SMR_3>
3.4460523

>  <Kier1>
15.5232

>  <Kier2>
5.25

>  <Kier3>
2.1111112

>  <KierA1>
13.44

>  <KierA2>
4.5124998

>  <KierA3>
1.8049999

>  <KierFlex>
2.7567272

>  <lip_acc>
2

>  <lip_don>
1

>  <lip_druglike>
1

>  <lip_violation>
0

>  <logP(o/w)>
3.118

>  <logS>
-4.8674998

>  <mr>
8.6418648

>  <mutagenic>
0

>  <nmol>
1

>  <opr_brigid>
21

>  <opr_leadlike>
1

>  <opr_nring>
4

>  <opr_nrot>
1

>  <opr_violation>
0

>  <PC+>
0

>  <PC->
0

>  <PEOE_PC+>
1.3698997

>  <PEOE_PC->
-1.3698997

>  <PEOE_RPC+>
0.15432285

>  <PEOE_RPC->
0.27446368

>  <PEOE_VSA+0>
106.80519

>  <PEOE_VSA+1>
4.2653861

>  <PEOE_VSA+2>
4.2653861

>  <PEOE_VSA+3>
8.458519

>  <PEOE_VSA+4>
10.324173

>  <PEOE_VSA+5>
0

>  <PEOE_VSA+6>
0

>  <PEOE_VSA-0>
73.164093

>  <PEOE_VSA-1>
36.764713

>  <PEOE_VSA-2>
25.854858

>  <PEOE_VSA-3>
0

>  <PEOE_VSA-4>
0

>  <PEOE_VSA-5>
13.566921

>  <PEOE_VSA-6>
7.7675405

>  <PEOE_VSA_FHYD>
0.89129591

>  <PEOE_VSA_FNEG>
0.53948587

>  <PEOE_VSA_FPNEG>
0.07325469

>  <PEOE_VSA_FPOL>
0.10870411

>  <PEOE_VSA_FPOS>
0.46051413

>  <PEOE_VSA_FPPOS>
0.035449412

>  <PEOE_VSA_HYD>
259.57816

>  <PEOE_VSA_NEG>
157.11813

>  <PEOE_VSA_PNEG>
21.334461

>  <PEOE_VSA_POL>
31.658634

>  <PEOE_VSA_POS>
134.11865

>  <PEOE_VSA_PPOS>
10.324173

>  <petitjean>
0.45454547

>  <petitjeanSC>
0.83333331

>  <Q_PC+>
0

>  <Q_PC->
0

>  <Q_RPC+>
0

>  <Q_RPC->
0

>  <Q_VSA_FHYD>
1

>  <Q_VSA_FNEG>
0

>  <Q_VSA_FPNEG>
0

>  <Q_VSA_FPOL>
0

>  <Q_VSA_FPOS>
1

>  <Q_VSA_FPPOS>
0

>  <Q_VSA_HYD>
291.23679

>  <Q_VSA_NEG>
0

>  <Q_VSA_PNEG>
0

>  <Q_VSA_POL>
0

>  <Q_VSA_POS>
291.23679

>  <Q_VSA_PPOS>
0

>  <radius>
6

>  <reactive>
1

>  <rings>
4

>  <RPC+>
0

>  <RPC->
0

>  <rsynth>
1

>  <SlogP>
3.4925079

>  <SlogP_VSA0>
25.385227

>  <SlogP_VSA1>
5.6876111

>  <SlogP_VSA2>
23.862217

>  <SlogP_VSA3>
17.030573

>  <SlogP_VSA4>
49.131367

>  <SlogP_VSA5>
3.185575

>  <SlogP_VSA6>
0

>  <SlogP_VSA7>
17.643185

>  <SlogP_VSA8>
150.94725

>  <SlogP_VSA9>
33.326015

>  <SMR>
8.5875797

>  <SMR_VSA0>
23.862217

>  <SMR_VSA1>
25.385227

>  <SMR_VSA2>
17.643185

>  <SMR_VSA3>
20.216148

>  <SMR_VSA4>
0

>  <SMR_VSA5>
168.59042

>  <SMR_VSA6>
37.175793

>  <SMR_VSA7>
33.326015

>  <TPSA>
37.299999

>  <VAdjEq>
0.47938794

>  <VAdjMa>
5.643856

>  <VDistEq>
3.0712955

>  <VDistMa>
8.6308546

>  <vdw_area>
291.23679

>  <vdw_vol>
438.89124

>  <vsa_acc>
13.566921

>  <vsa_acid>
0

>  <vsa_base>
0

>  <vsa_don>
0

>  <vsa_hyd>
227.94455

>  <vsa_other>
8.458519

>  <vsa_pol>
27.133842

>  <Weight>
298.42599

>  <weinerPath>
941

>  <weinerPol>
46

>  <zagreb>
130

$$$$