O=C1c2c(n(c3c2cccc3)C)CCC1Cn1ccnc1C
  MOE2013           2D

 22 25  0  0  1  0  0  0  0  0999 V2000
    0.0000    0.0000    0.0000 O   0  0  0  0  0  0  0  0  0  0  0  0
    0.0090    1.5000    0.0000 C   0  0  0  0  0  0  0  0  0  0  0  0
   -1.2850    2.2580    0.0000 C   0  0  0  0  0  0  0  0  0  0  0  0
   -1.2760    3.7580    0.0000 C   0  0  0  0  0  0  0  0  0  0  0  0
   -2.7000    4.2300    0.0000 N   0  0  0  0  0  0  0  0  0  0  0  0
   -3.5890    3.0220    0.0000 C   0  0  0  0  0  0  0  0  0  0  0  0
   -2.7150    1.8030    0.0000 C   0  0  0  0  0  0  0  0  0  0  0  0
   -3.3330    0.4370    0.0000 C   0  0  0  0  0  0  0  0  0  0  0  0
   -4.8260    0.2890    0.0000 C   0  0  0  0  0  0  0  0  0  0  0  0
   -5.7000    1.5080    0.0000 C   0  0  0  0  0  0  0  0  0  0  0  0
   -5.0810    2.8750    0.0000 C   0  0  0  0  0  0  0  0  0  0  0  0
   -3.1540    5.6600    0.0000 C   0  0  0  0  0  0  0  0  0  0  0  0
    0.0280    4.5000    0.0000 C   0  0  0  0  0  0  0  0  0  0  0  0
    1.3220    3.7420    0.0000 C   0  0  0  0  0  0  0  0  0  0  0  0
    1.3130    2.2420    0.0000 C   0  0  3  0  0  0  0  0  0  0  0  0
    2.6070    1.4840    0.0000 C   0  0  0  0  0  0  0  0  0  0  0  0
    3.9110    2.2260    0.0000 N   0  0  0  0  0  0  0  0  0  0  0  0
    4.0770    3.7170    0.0000 C   0  0  0  0  0  0  0  0  0  0  0  0
    5.5460    4.0200    0.0000 C   0  0  0  0  0  0  0  0  0  0  0  0
    6.2880    2.7160    0.0000 N   0  0  0  0  0  0  0  0  0  0  0  0
    5.2770    1.6070    0.0000 C   0  0  0  0  0  0  0  0  0  0  0  0
    5.5800    0.1380    0.0000 C   0  0  0  0  0  0  0  0  0  0  0  0
  1  2  2  0  0  0  0
  2  3  1  0  0  0  0
  2 15  1  0  0  0  0
  3  4  2  0  0  0  0
  3  7  1  0  0  0  0
  4  5  1  0  0  0  0
  4 13  1  0  0  0  0
  5  6  1  0  0  0  0
  5 12  1  0  0  0  0
  6  7  1  0  0  0  0
  6 11  2  0  0  0  0
  7  8  2  0  0  0  0
  8  9  1  0  0  0  0
  9 10  2  0  0  0  0
 10 11  1  0  0  0  0
 13 14  1  0  0  0  0
 14 15  1  0  0  0  0
 15 16  1  0  0  0  0
 16 17  1  0  0  0  0
 17 18  1  0  0  0  0
 17 21  1  0  0  0  0
 18 19  2  0  0  0  0
 19 20  1  0  0  0  0
 20 21  2  0  0  0  0
 21 22  1  0  0  0  0
M  END
>  <Index>
791

>  <ID>
HT1541

>  <class>
0

>  <apol>
48.451069

>  <ast_fraglike>
0

>  <ast_fraglike_ext>
0

>  <ast_violation>
1

>  <ast_violation_ext>
1

>  <a_acc>
2

>  <a_acid>
0

>  <a_aro>
14

>  <a_base>
0

>  <a_count>
41

>  <a_don>
0

>  <a_donacc>
2

>  <a_heavy>
22

>  <a_hyd>
16

>  <a_IC>
59.135471

>  <a_ICM>
1.4423286

>  <a_nB>
0

>  <a_nBr>
0

>  <a_nC>
18

>  <a_nCl>
0

>  <a_nF>
0

>  <a_nH>
19

>  <a_nI>
0

>  <a_nN>
3

>  <a_nO>
1

>  <a_nP>
0

>  <a_nS>
0

>  <balabanJ>
1.4814013

>  <BCUT_PEOE_0>
-2.6267705

>  <BCUT_PEOE_1>
-0.51500624

>  <BCUT_PEOE_2>
0.59146494

>  <BCUT_PEOE_3>
2.6587417

>  <BCUT_SLOGP_0>
-2.5944932

>  <BCUT_SLOGP_1>
-0.42452222

>  <BCUT_SLOGP_2>
0.68230897

>  <BCUT_SLOGP_3>
2.7024851

>  <BCUT_SMR_0>
-2.3839929

>  <BCUT_SMR_1>
-0.37679723

>  <BCUT_SMR_2>
0.76202083

>  <BCUT_SMR_3>
2.9119854

>  <bpol>
27.008932

>  <b_1rotN>
2

>  <b_1rotR>
0.079999998

>  <b_ar>
15

>  <b_count>
44

>  <b_double>
1

>  <b_heavy>
25

>  <b_max1len>
3

>  <b_rotN>
2

>  <b_rotR>
0.079999998

>  <b_single>
28

>  <b_triple>
0

>  <chi0>
15.26722

>  <chi0v>
12.912662

>  <chi0v_C>
11.162772

>  <chi0_C>
12.405413

>  <chi1>
10.664703

>  <chi1v>
7.7477994

>  <chi1v_C>
5.3694086

>  <chi1_C>
6.7852583

>  <chiral>
1

>  <chiral_u>
1

>  <density>
0.70697534

>  <diameter>
10

>  <FCharge>
0

>  <GCUT_PEOE_0>
-0.86927831

>  <GCUT_PEOE_1>
-0.37718719

>  <GCUT_PEOE_2>
0.04693697

>  <GCUT_PEOE_3>
2.7515702

>  <GCUT_SLOGP_0>
-0.8123613

>  <GCUT_SLOGP_1>
-0.27438679

>  <GCUT_SLOGP_2>
0.1222753

>  <GCUT_SLOGP_3>
2.8378713

>  <GCUT_SMR_0>
-0.51926869

>  <GCUT_SMR_1>
-0.18926258

>  <GCUT_SMR_2>
0.17231084

>  <GCUT_SMR_3>
3.0303762

>  <Kier1>
15.5232

>  <Kier2>
6.1358657

>  <Kier3>
2.6063101

>  <KierA1>
11.126859

>  <KierA2>
4.3223038

>  <KierA3>
1.812894

>  <KierFlex>
2.1860759

>  <lip_acc>
4

>  <lip_don>
0

>  <lip_druglike>
1

>  <lip_violation>
0

>  <logP(o/w)>
2.7179999

>  <logS>
-2.4535999

>  <mr>
8.6899014

>  <mutagenic>
0

>  <nmol>
1

>  <opr_brigid>
20

>  <opr_leadlike>
1

>  <opr_nring>
4

>  <opr_nrot>
2

>  <opr_violation>
0

>  <PC+>
0

>  <PC->
0

>  <PEOE_PC+>
1.4761744

>  <PEOE_PC->
-1.4761744

>  <PEOE_RPC+>
0.11529333

>  <PEOE_RPC->
0.23449168

>  <PEOE_VSA+0>
143.18904

>  <PEOE_VSA+1>
25.592316

>  <PEOE_VSA+2>
11.190562

>  <PEOE_VSA+3>
8.458519

>  <PEOE_VSA+4>
0

>  <PEOE_VSA+5>
0

>  <PEOE_VSA+6>
0

>  <PEOE_VSA-0>
48.405209

>  <PEOE_VSA-1>
36.764713

>  <PEOE_VSA-2>
0

>  <PEOE_VSA-3>
0

>  <PEOE_VSA-4>
5.6825762

>  <PEOE_VSA-5>
13.566921

>  <PEOE_VSA-6>
0

>  <PEOE_VSA_FHYD>
0.93426836

>  <PEOE_VSA_FNEG>
0.35656297

>  <PEOE_VSA_FPNEG>
0.065731622

>  <PEOE_VSA_FPOL>
0.065731622

>  <PEOE_VSA_FPOS>
0.64343703

>  <PEOE_VSA_FPPOS>
0

>  <PEOE_VSA_HYD>
273.60037

>  <PEOE_VSA_NEG>
104.41942

>  <PEOE_VSA_PNEG>
19.249496

>  <PEOE_VSA_POL>
19.249496

>  <PEOE_VSA_POS>
188.43044

>  <PEOE_VSA_PPOS>
0

>  <petitjean>
0.5

>  <petitjeanSC>
1

>  <Q_PC+>
0

>  <Q_PC->
0

>  <Q_RPC+>
0

>  <Q_RPC->
0

>  <Q_VSA_FHYD>
1

>  <Q_VSA_FNEG>
0

>  <Q_VSA_FPNEG>
0

>  <Q_VSA_FPOL>
0

>  <Q_VSA_FPOS>
1

>  <Q_VSA_FPPOS>
0

>  <Q_VSA_HYD>
292.84985

>  <Q_VSA_NEG>
0

>  <Q_VSA_PNEG>
0

>  <Q_VSA_POL>
0

>  <Q_VSA_POS>
292.84985

>  <Q_VSA_PPOS>
0

>  <radius>
5

>  <reactive>
1

>  <rings>
4

>  <RPC+>
0

>  <RPC->
0

>  <rsynth>
1

>  <SlogP>
3.7540901

>  <SlogP_VSA0>
0

>  <SlogP_VSA1>
26.271326

>  <SlogP_VSA2>
0

>  <SlogP_VSA3>
0

>  <SlogP_VSA4>
36.543255

>  <SlogP_VSA5>
18.868406

>  <SlogP_VSA6>
0

>  <SlogP_VSA7>
109.71855

>  <SlogP_VSA8>
18.868406

>  <SlogP_VSA9>
84.662781

>  <SMR>
8.6510496

>  <SMR_VSA0>
23.862217

>  <SMR_VSA1>
20.583715

>  <SMR_VSA2>
4.4107962

>  <SMR_VSA3>
8.2702427

>  <SMR_VSA4>
4.7171016

>  <SMR_VSA5>
161.17784

>  <SMR_VSA6>
5.6876111

>  <SMR_VSA7>
66.223206

>  <TPSA>
39.82

>  <VAdjEq>
0.47938794

>  <VAdjMa>
5.643856

>  <VDistEq>
3.1311238

>  <VDistMa>
8.6304626

>  <vdw_area>
292.84985

>  <vdw_vol>
414.96494

>  <vsa_acc>
19.249496

>  <vsa_acid>
0

>  <vsa_base>
0

>  <vsa_don>
0

>  <vsa_hyd>
239.08212

>  <vsa_other>
19.649082

>  <vsa_pol>
19.249496

>  <Weight>
293.37

>  <weinerPath>
997

>  <weinerPol>
38

>  <zagreb>
124

$$$$