O(C(=O)CCC=C/CC=C/CC=C/CC=C/CC=C/CC=C/CC)CC
  MOE2013           2D

 26 25  0  0  0  0  0  0  0  0999 V2000
    0.0000    0.0000    0.0000 O   0  0  0  0  0  0  0  0  0  0  0  0
    1.3050    0.7390    0.0000 C   0  0  0  0  0  0  0  0  0  0  0  0
    1.3180    2.2390    0.0000 O   0  0  0  0  0  0  0  0  0  0  0  0
    2.5980   -0.0220    0.0000 C   0  0  0  0  0  0  0  0  0  0  0  0
    3.9030    0.7180    0.0000 C   0  0  0  0  0  0  0  0  0  0  0  0
    5.1960   -0.0430    0.0000 C   0  0  0  0  0  0  0  0  0  0  0  0
    6.5010    0.6960    0.0000 C   0  0  0  0  0  0  0  0  0  0  0  0
    7.7940   -0.0650    0.0000 C   0  0  0  0  0  0  0  0  0  0  0  0
    9.0990    0.6750    0.0000 C   0  0  0  0  0  0  0  0  0  0  0  0
   10.3920   -0.0860    0.0000 C   0  0  0  0  0  0  0  0  0  0  0  0
   11.6970    0.6530    0.0000 C   0  0  0  0  0  0  0  0  0  0  0  0
   12.9900   -0.1080    0.0000 C   0  0  0  0  0  0  0  0  0  0  0  0
   14.2950    0.6320    0.0000 C   0  0  0  0  0  0  0  0  0  0  0  0
   15.5880   -0.1290    0.0000 C   0  0  0  0  0  0  0  0  0  0  0  0
   16.8930    0.6100    0.0000 C   0  0  0  0  0  0  0  0  0  0  0  0
   18.1860   -0.1510    0.0000 C   0  0  0  0  0  0  0  0  0  0  0  0
   19.4910    0.5880    0.0000 C   0  0  0  0  0  0  0  0  0  0  0  0
   20.7840   -0.1720    0.0000 C   0  0  0  0  0  0  0  0  0  0  0  0
   22.0890    0.5670    0.0000 C   0  0  0  0  0  0  0  0  0  0  0  0
   23.3820   -0.1940    0.0000 C   0  0  0  0  0  0  0  0  0  0  0  0
   24.6870    0.5450    0.0000 C   0  0  0  0  0  0  0  0  0  0  0  0
   25.9800   -0.2150    0.0000 C   0  0  0  0  0  0  0  0  0  0  0  0
   27.2850    0.5240    0.0000 C   0  0  0  0  0  0  0  0  0  0  0  0
   28.5780   -0.2370    0.0000 C   0  0  0  0  0  0  0  0  0  0  0  0
   -1.2930    0.7610    0.0000 C   0  0  0  0  0  0  0  0  0  0  0  0
   -2.5980    0.0220    0.0000 C   0  0  0  0  0  0  0  0  0  0  0  0
  1  2  1  0  0  0  0
  1 25  1  0  0  0  0
  2  3  2  0  0  0  0
  2  4  1  0  0  0  0
  4  5  1  0  0  0  0
  5  6  1  0  0  0  0
  6  7  2  3  0  0  0
  7  8  1  0  0  0  0
  8  9  1  0  0  0  0
  9 10  2  3  0  0  0
 10 11  1  0  0  0  0
 11 12  1  0  0  0  0
 12 13  2  3  0  0  0
 13 14  1  0  0  0  0
 14 15  1  0  0  0  0
 15 16  2  3  0  0  0
 16 17  1  0  0  0  0
 17 18  1  0  0  0  0
 18 19  2  3  0  0  0
 19 20  1  0  0  0  0
 20 21  1  0  0  0  0
 21 22  2  3  0  0  0
 22 23  1  0  0  0  0
 23 24  1  0  0  0  0
 25 26  1  0  0  0  0
M  END
>  <Index>
790

>  <ID>
HT1540

>  <class>
0

>  <apol>
67.848549

>  <ast_fraglike>
0

>  <ast_fraglike_ext>
0

>  <ast_violation>
2

>  <ast_violation_ext>
3

>  <a_acc>
1

>  <a_acid>
0

>  <a_aro>
0

>  <a_base>
0

>  <a_count>
62

>  <a_don>
0

>  <a_donacc>
1

>  <a_heavy>
26

>  <a_hyd>
23

>  <a_IC>
71.003769

>  <a_ICM>
1.1452221

>  <a_nB>
0

>  <a_nBr>
0

>  <a_nC>
24

>  <a_nCl>
0

>  <a_nF>
0

>  <a_nH>
36

>  <a_nI>
0

>  <a_nN>
0

>  <a_nO>
2

>  <a_nP>
0

>  <a_nS>
0

>  <balabanJ>
3.0118468

>  <BCUT_PEOE_0>
-2.4649093

>  <BCUT_PEOE_1>
-0.56855845

>  <BCUT_PEOE_2>
0.61158317

>  <BCUT_PEOE_3>
2.4753542

>  <BCUT_SLOGP_0>
-2.4412792

>  <BCUT_SLOGP_1>
-0.45918509

>  <BCUT_SLOGP_2>
0.70578933

>  <BCUT_SLOGP_3>
2.5616064

>  <BCUT_SMR_0>
-2.2214377

>  <BCUT_SMR_1>
-0.43269074

>  <BCUT_SMR_2>
0.75084108

>  <BCUT_SMR_3>
2.7168648

>  <bpol>
42.22945

>  <b_1rotN>
15

>  <b_1rotR>
0.60000002

>  <b_ar>
0

>  <b_count>
61

>  <b_double>
7

>  <b_heavy>
25

>  <b_max1len>
4

>  <b_rotN>
16

>  <b_rotR>
0.63999999

>  <b_single>
54

>  <b_triple>
0

>  <chi0>
19.133699

>  <chi0v>
16.608662

>  <chi0v_C>
15.792164

>  <chi0_C>
17.426592

>  <chi1>
12.808061

>  <chi1v>
9.8636694

>  <chi1v_C>
9.1667461

>  <chi1_C>
11.322462

>  <chiral>
0

>  <chiral_u>
0

>  <density>
0.61833805

>  <diameter>
24

>  <FCharge>
0

>  <GCUT_PEOE_0>
-0.78514898

>  <GCUT_PEOE_1>
-0.37493512

>  <GCUT_PEOE_2>
0.065805599

>  <GCUT_PEOE_3>
2.4340401

>  <GCUT_SLOGP_0>
-0.84518892

>  <GCUT_SLOGP_1>
-0.24610473

>  <GCUT_SLOGP_2>
0.14849626

>  <GCUT_SLOGP_3>
2.5812159

>  <GCUT_SMR_0>
-0.51500618

>  <GCUT_SMR_1>
-0.19234581

>  <GCUT_SMR_2>
0.17654547

>  <GCUT_SMR_3>
2.6971359

>  <Kier1>
26

>  <Kier2>
23.040001

>  <Kier3>
23

>  <KierA1>
20.681591

>  <KierA2>
18.148409

>  <KierA3>
17.990273

>  <KierFlex>
14.436077

>  <lip_acc>
2

>  <lip_don>
0

>  <lip_druglike>
1

>  <lip_violation>
1

>  <logP(o/w)>
5.4809999

>  <logS>
-8.6989603

>  <mr>
11.435718

>  <mutagenic>
0

>  <nmol>
1

>  <opr_brigid>
6

>  <opr_leadlike>
0

>  <opr_nring>
0

>  <opr_nrot>
15

>  <opr_violation>
2

>  <PC+>
0

>  <PC->
0

>  <PEOE_PC+>
1.8439828

>  <PEOE_PC->
-1.8439828

>  <PEOE_RPC+>
0.14232539

>  <PEOE_RPC->
0.17107737

>  <PEOE_VSA+0>
102.5398

>  <PEOE_VSA+1>
74.666695

>  <PEOE_VSA+2>
0

>  <PEOE_VSA+3>
0

>  <PEOE_VSA+4>
0

>  <PEOE_VSA+5>
14.708499

>  <PEOE_VSA+6>
0

>  <PEOE_VSA-0>
79.656868

>  <PEOE_VSA-1>
165.80652

>  <PEOE_VSA-2>
0

>  <PEOE_VSA-3>
0

>  <PEOE_VSA-4>
0

>  <PEOE_VSA-5>
13.566921

>  <PEOE_VSA-6>
2.503756

>  <PEOE_VSA_FHYD>
0.93212211

>  <PEOE_VSA_FNEG>
0.57676613

>  <PEOE_VSA_FPNEG>
0.035440974

>  <PEOE_VSA_FPOL>
0.067877911

>  <PEOE_VSA_FPOS>
0.42323387

>  <PEOE_VSA_FPPOS>
0.032436937

>  <PEOE_VSA_HYD>
422.66989

>  <PEOE_VSA_NEG>
261.53406

>  <PEOE_VSA_PNEG>
16.070677

>  <PEOE_VSA_POL>
30.779177

>  <PEOE_VSA_POS>
191.91501

>  <PEOE_VSA_PPOS>
14.708499

>  <petitjean>
0.5

>  <petitjeanSC>
1

>  <Q_PC+>
0

>  <Q_PC->
0

>  <Q_RPC+>
0

>  <Q_RPC->
0

>  <Q_VSA_FHYD>
1

>  <Q_VSA_FNEG>
0

>  <Q_VSA_FPNEG>
0

>  <Q_VSA_FPOL>
0

>  <Q_VSA_FPOS>
1

>  <Q_VSA_FPPOS>
0

>  <Q_VSA_HYD>
453.44907

>  <Q_VSA_NEG>
0

>  <Q_VSA_PNEG>
0

>  <Q_VSA_POL>
0

>  <Q_VSA_POS>
453.44907

>  <Q_VSA_PPOS>
0

>  <radius>
12

>  <reactive>
0

>  <rings>
0

>  <RPC+>
0

>  <RPC->
0

>  <rsynth>
0.11538462

>  <SlogP>
7.0274

>  <SlogP_VSA0>
0

>  <SlogP_VSA1>
7.7454643

>  <SlogP_VSA2>
34.862103

>  <SlogP_VSA3>
20.926258

>  <SlogP_VSA4>
0

>  <SlogP_VSA5>
0

>  <SlogP_VSA6>
0

>  <SlogP_VSA7>
211.71822

>  <SlogP_VSA8>
150.94725

>  <SlogP_VSA9>
66.652031

>  <SMR>
11.4083

>  <SMR_VSA0>
34.862103

>  <SMR_VSA1>
0

>  <SMR_VSA2>
0

>  <SMR_VSA3>
0

>  <SMR_VSA4>
0

>  <SMR_VSA5>
362.66547

>  <SMR_VSA6>
28.671722

>  <SMR_VSA7>
66.652031

>  <TPSA>
26.299999

>  <VAdjEq>
0.38054717

>  <VAdjMa>
5.643856

>  <VDistEq>
4.351028

>  <VDistMa>
9.0139294

>  <vdw_area>
453.44907

>  <vdw_vol>
576.62634

>  <vsa_acc>
13.566921

>  <vsa_acid>
0

>  <vsa_base>
0

>  <vsa_don>
0

>  <vsa_hyd>
397.04526

>  <vsa_other>
17.212255

>  <vsa_pol>
13.566921

>  <Weight>
356.54999

>  <weinerPath>
2862

>  <weinerPol>
24

>  <zagreb>
100

$$$$