o1c(c(nc1CCC(O)=O)-c1ccccc1)-c1ccccc1
  MOE2013           2D

 22 24  0  0  0  0  0  0  0  0999 V2000
    0.0000    0.0000    0.0000 O   0  0  0  0  0  0  0  0  0  0  0  0
   -1.2890   -0.7670    0.0000 C   0  0  0  0  0  0  0  0  0  0  0  0
   -0.9590   -2.2300    0.0000 C   0  0  0  0  0  0  0  0  0  0  0  0
    0.5350   -2.3670    0.0000 N   0  0  0  0  0  0  0  0  0  0  0  0
    1.1270   -0.9890    0.0000 C   0  0  0  0  0  0  0  0  0  0  0  0
    2.5910   -0.6590    0.0000 C   0  0  0  0  0  0  0  0  0  0  0  0
    3.6080   -1.7610    0.0000 C   0  0  0  0  0  0  0  0  0  0  0  0
    5.0720   -1.4300    0.0000 C   0  0  0  0  0  0  0  0  0  0  0  0
    5.5170    0.0020    0.0000 O   0  0  0  0  0  0  0  0  0  0  0  0
    6.0890   -2.5320    0.0000 O   0  0  0  0  0  0  0  0  0  0  0  0
   -1.9480   -3.3570    0.0000 C   0  0  0  0  0  0  0  0  0  0  0  0
   -1.4670   -4.7780    0.0000 C   0  0  0  0  0  0  0  0  0  0  0  0
   -2.4560   -5.9050    0.0000 C   0  0  0  0  0  0  0  0  0  0  0  0
   -3.9270   -5.6120    0.0000 C   0  0  0  0  0  0  0  0  0  0  0  0
   -4.4090   -4.1910    0.0000 C   0  0  0  0  0  0  0  0  0  0  0  0
   -3.4190   -3.0640    0.0000 C   0  0  0  0  0  0  0  0  0  0  0  0
   -2.6670   -0.1740    0.0000 C   0  0  0  0  0  0  0  0  0  0  0  0
   -2.8430    1.3160    0.0000 C   0  0  0  0  0  0  0  0  0  0  0  0
   -4.2210    1.9080    0.0000 C   0  0  0  0  0  0  0  0  0  0  0  0
   -5.4230    1.0110    0.0000 C   0  0  0  0  0  0  0  0  0  0  0  0
   -5.2480   -0.4780    0.0000 C   0  0  0  0  0  0  0  0  0  0  0  0
   -3.8700   -1.0710    0.0000 C   0  0  0  0  0  0  0  0  0  0  0  0
  1  2  1  0  0  0  0
  1  5  1  0  0  0  0
  2  3  2  0  0  0  0
  2 17  1  0  0  0  0
  3  4  1  0  0  0  0
  3 11  1  0  0  0  0
  4  5  2  0  0  0  0
  5  6  1  0  0  0  0
  6  7  1  0  0  0  0
  7  8  1  0  0  0  0
  8  9  1  0  0  0  0
  8 10  2  0  0  0  0
 11 12  1  0  0  0  0
 11 16  2  0  0  0  0
 12 13  2  0  0  0  0
 13 14  1  0  0  0  0
 14 15  2  0  0  0  0
 15 16  1  0  0  0  0
 17 18  1  0  0  0  0
 17 22  2  0  0  0  0
 18 19  2  0  0  0  0
 19 20  1  0  0  0  0
 20 21  2  0  0  0  0
 21 22  1  0  0  0  0
M  END
>  <Index>
796

>  <ID>
HT1554

>  <class>
0

>  <apol>
45.187897

>  <ast_fraglike>
0

>  <ast_fraglike_ext>
0

>  <ast_violation>
1

>  <ast_violation_ext>
2

>  <a_acc>
3

>  <a_acid>
0

>  <a_aro>
17

>  <a_base>
0

>  <a_count>
37

>  <a_don>
2

>  <a_donacc>
5

>  <a_heavy>
22

>  <a_hyd>
15

>  <a_IC>
54.332878

>  <a_ICM>
1.4684561

>  <a_nB>
0

>  <a_nBr>
0

>  <a_nC>
18

>  <a_nCl>
0

>  <a_nF>
0

>  <a_nH>
15

>  <a_nI>
0

>  <a_nN>
1

>  <a_nO>
3

>  <a_nP>
0

>  <a_nS>
0

>  <balabanJ>
1.6310551

>  <BCUT_PEOE_0>
-2.3582416

>  <BCUT_PEOE_1>
-0.64791632

>  <BCUT_PEOE_2>
0.69375783

>  <BCUT_PEOE_3>
2.4746146

>  <BCUT_SLOGP_0>
-2.3942325

>  <BCUT_SLOGP_1>
-0.53807992

>  <BCUT_SLOGP_2>
0.80591482

>  <BCUT_SLOGP_3>
2.4850912

>  <BCUT_SMR_0>
-2.1637273

>  <BCUT_SMR_1>
-0.49986199

>  <BCUT_SMR_2>
0.85431087

>  <BCUT_SMR_3>
2.6821251

>  <bpol>
20.592106

>  <b_1rotN>
5

>  <b_1rotR>
0.20833333

>  <b_ar>
17

>  <b_count>
39

>  <b_double>
1

>  <b_heavy>
24

>  <b_max1len>
3

>  <b_rotN>
5

>  <b_rotR>
0.20833333

>  <b_single>
21

>  <b_triple>
0

>  <chi0>
15.363597

>  <chi0v>
11.89864

>  <chi0v_C>
10.187716

>  <chi0_C>
11.949383

>  <chi1>
10.737184

>  <chi1v>
7.061667

>  <chi1v_C>
5.7784739

>  <chi1_C>
7.9494896

>  <chiral>
0

>  <chiral_u>
0

>  <density>
0.73250759

>  <diameter>
10

>  <FCharge>
0

>  <GCUT_PEOE_0>
-0.8063482

>  <GCUT_PEOE_1>
-0.38843247

>  <GCUT_PEOE_2>
0.079856217

>  <GCUT_PEOE_3>
2.4671416

>  <GCUT_SLOGP_0>
-0.87268752

>  <GCUT_SLOGP_1>
-0.26386139

>  <GCUT_SLOGP_2>
0.16445385

>  <GCUT_SLOGP_3>
2.6057467

>  <GCUT_SMR_0>
-0.50277376

>  <GCUT_SMR_1>
-0.21605732

>  <GCUT_SMR_2>
0.19719258

>  <GCUT_SMR_3>
2.7549548

>  <Kier1>
16.84375

>  <Kier2>
8.203125

>  <Kier3>
4.5211182

>  <KierA1>
11.734961

>  <KierA2>
5.6076837

>  <KierA3>
3.0482779

>  <KierFlex>
2.9911792

>  <lip_acc>
4

>  <lip_don>
1

>  <lip_druglike>
1

>  <lip_violation>
0

>  <logP(o/w)>
3.3499999

>  <logS>
-4.7343798

>  <mr>
8.5395365

>  <mutagenic>
0

>  <nmol>
1

>  <opr_brigid>
17

>  <opr_leadlike>
1

>  <opr_nring>
3

>  <opr_nrot>
5

>  <opr_violation>
0

>  <PC+>
0

>  <PC->
0

>  <PEOE_PC+>
1.8229921

>  <PEOE_PC->
-1.8229921

>  <PEOE_RPC+>
0.1426529

>  <PEOE_RPC->
0.24087298

>  <PEOE_VSA+0>
38.881248

>  <PEOE_VSA+1>
42.653858

>  <PEOE_VSA+2>
6.6995511

>  <PEOE_VSA+3>
21.408051

>  <PEOE_VSA+4>
10.324173

>  <PEOE_VSA+5>
14.708499

>  <PEOE_VSA+6>
0

>  <PEOE_VSA-0>
0

>  <PEOE_VSA-1>
122.54904

>  <PEOE_VSA-2>
0

>  <PEOE_VSA-3>
0

>  <PEOE_VSA-4>
5.6825762

>  <PEOE_VSA-5>
13.566921

>  <PEOE_VSA-6>
10.271297

>  <PEOE_VSA_FHYD>
0.80974936

>  <PEOE_VSA_FNEG>
0.53033084

>  <PEOE_VSA_FPNEG>
0.1029513

>  <PEOE_VSA_FPOL>
0.19025065

>  <PEOE_VSA_FPOS>
0.46966916

>  <PEOE_VSA_FPPOS>
0.087299354

>  <PEOE_VSA_HYD>
232.19176

>  <PEOE_VSA_NEG>
152.06984

>  <PEOE_VSA_PNEG>
29.520794

>  <PEOE_VSA_POL>
54.553467

>  <PEOE_VSA_POS>
134.67538

>  <PEOE_VSA_PPOS>
25.032671

>  <petitjean>
0.40000001

>  <petitjeanSC>
0.66666669

>  <Q_PC+>
0

>  <Q_PC->
0

>  <Q_RPC+>
0

>  <Q_RPC->
0

>  <Q_VSA_FHYD>
1

>  <Q_VSA_FNEG>
0

>  <Q_VSA_FPNEG>
0

>  <Q_VSA_FPOL>
0

>  <Q_VSA_FPOS>
1

>  <Q_VSA_FPPOS>
0

>  <Q_VSA_HYD>
286.74521

>  <Q_VSA_NEG>
0

>  <Q_VSA_PNEG>
0

>  <Q_VSA_POL>
0

>  <Q_VSA_POS>
286.74521

>  <Q_VSA_PPOS>
0

>  <radius>
6

>  <reactive>
0

>  <rings>
3

>  <RPC+>
0

>  <RPC->
0

>  <rsynth>
1

>  <SlogP>
4.0257702

>  <SlogP_VSA0>
0

>  <SlogP_VSA1>
24.530994

>  <SlogP_VSA2>
23.862217

>  <SlogP_VSA3>
25.385227

>  <SlogP_VSA4>
5.0199933

>  <SlogP_VSA5>
28.375751

>  <SlogP_VSA6>
0

>  <SlogP_VSA7>
191.00856

>  <SlogP_VSA8>
18.868406

>  <SlogP_VSA9>
0

>  <SMR>
8.3331804

>  <SMR_VSA0>
33.369564

>  <SMR_VSA1>
16.78553

>  <SMR_VSA2>
25.385227

>  <SMR_VSA3>
5.0199933

>  <SMR_VSA4>
14.576718

>  <SMR_VSA5>
214.16866

>  <SMR_VSA6>
7.7454643

>  <SMR_VSA7>
0

>  <TPSA>
63.330002

>  <VAdjEq>
0.46637034

>  <VAdjMa>
5.5849624

>  <VDistEq>
3.1838772

>  <VDistMa>
8.6423912

>  <vdw_area>
286.74521

>  <vdw_vol>
400.43542

>  <vsa_acc>
5.6825762

>  <vsa_acid>
0

>  <vsa_base>
0

>  <vsa_don>
0

>  <vsa_hyd>
200.81857

>  <vsa_other>
38.620304

>  <vsa_pol>
32.816418

>  <Weight>
293.32199

>  <weinerPath>
1063

>  <weinerPol>
30

>  <zagreb>
112

$$$$