O1c2c([C@H]3[C@@H](CCC(=O)C3)C1(C)C)c(O)cc(c2)C(CCCCCC)(C)C
  MOE2013           2D

 27 29  0  0  1  0  0  0  0  0999 V2000
    0.0000    0.0000    0.0000 O   0  0  0  0  0  0  0  0  0  0  0  0
    1.3020    0.7440    0.0000 C   0  0  0  0  0  0  0  0  0  0  0  0
    1.3090    2.2440    0.0000 C   0  0  0  0  0  0  0  0  0  0  0  0
    0.0130    3.0000    0.0000 C   0  0  1  0  0  0  0  0  0  0  0  0
   -1.2890    2.2560    0.0000 C   0  0  1  0  0  0  0  0  0  0  0  0
   -2.5850    3.0110    0.0000 C   0  0  0  0  0  0  0  0  0  0  0  0
   -2.5780    4.5110    0.0000 C   0  0  0  0  0  0  0  0  0  0  0  0
   -1.2760    5.2560    0.0000 C   0  0  0  0  0  0  0  0  0  0  0  0
   -1.2690    6.7560    0.0000 O   0  0  0  0  0  0  0  0  0  0  0  0
    0.0200    4.5000    0.0000 C   0  0  0  0  0  0  0  0  0  0  0  0
   -1.2960    0.7560    0.0000 C   0  0  0  0  0  0  0  0  0  0  0  0
   -2.0510   -0.5400    0.0000 C   0  0  0  0  0  0  0  0  0  0  0  0
   -2.7960    0.7620    0.0000 C   0  0  0  0  0  0  0  0  0  0  0  0
    2.6110    2.9890    0.0000 C   0  0  0  0  0  0  0  0  0  0  0  0
    2.6180    4.4890    0.0000 O   0  0  0  0  0  0  0  0  0  0  0  0
    3.9070    2.2330    0.0000 C   0  0  0  0  0  0  0  0  0  0  0  0
    3.9000    0.7330    0.0000 C   0  0  0  0  0  0  0  0  0  0  0  0
    2.5980   -0.0110    0.0000 C   0  0  0  0  0  0  0  0  0  0  0  0
    5.1960   -0.0230    0.0000 C   0  0  0  0  0  0  0  0  0  0  0  0
    6.4920   -0.7790    0.0000 C   0  0  0  0  0  0  0  0  0  0  0  0
    7.7940   -0.0340    0.0000 C   0  0  0  0  0  0  0  0  0  0  0  0
    9.0900   -0.7900    0.0000 C   0  0  0  0  0  0  0  0  0  0  0  0
   10.3920   -0.0460    0.0000 C   0  0  0  0  0  0  0  0  0  0  0  0
   11.6880   -0.8010    0.0000 C   0  0  0  0  0  0  0  0  0  0  0  0
   12.9900   -0.0570    0.0000 C   0  0  0  0  0  0  0  0  0  0  0  0
    5.9520    1.2730    0.0000 C   0  0  0  0  0  0  0  0  0  0  0  0
    4.4400   -1.3190    0.0000 C   0  0  0  0  0  0  0  0  0  0  0  0
  1  2  1  0  0  0  0
  1 11  1  0  0  0  0
  2  3  2  0  0  0  0
  2 18  1  0  0  0  0
  3 14  1  0  0  0  0
  4  3  1  1  0  0  0
  4  5  1  0  0  0  0
  4 10  1  0  0  0  0
  5  6  1  6  0  0  0
  5 11  1  0  0  0  0
  6  7  1  0  0  0  0
  7  8  1  0  0  0  0
  8  9  2  0  0  0  0
  8 10  1  0  0  0  0
 11 12  1  0  0  0  0
 11 13  1  0  0  0  0
 14 15  1  0  0  0  0
 14 16  2  0  0  0  0
 16 17  1  0  0  0  0
 17 18  2  0  0  0  0
 17 19  1  0  0  0  0
 19 20  1  0  0  0  0
 19 26  1  0  0  0  0
 19 27  1  0  0  0  0
 20 21  1  0  0  0  0
 21 22  1  0  0  0  0
 22 23  1  0  0  0  0
 23 24  1  0  0  0  0
 24 25  1  0  0  0  0
M  END
>  <Index>
737

>  <ID>
HT1446

>  <class>
0

>  <apol>
68.650551

>  <ast_fraglike>
0

>  <ast_fraglike_ext>
0

>  <ast_violation>
2

>  <ast_violation_ext>
3

>  <a_acc>
3

>  <a_acid>
0

>  <a_aro>
6

>  <a_base>
0

>  <a_count>
63

>  <a_don>
1

>  <a_donacc>
4

>  <a_heavy>
27

>  <a_hyd>
23

>  <a_IC>
75.657349

>  <a_ICM>
1.2009103

>  <a_nB>
0

>  <a_nBr>
0

>  <a_nC>
24

>  <a_nCl>
0

>  <a_nF>
0

>  <a_nH>
36

>  <a_nI>
0

>  <a_nN>
0

>  <a_nO>
3

>  <a_nP>
0

>  <a_nS>
0

>  <balabanJ>
1.7098733

>  <BCUT_PEOE_0>
-2.807631

>  <BCUT_PEOE_1>
-0.33430746

>  <BCUT_PEOE_2>
0.3743684

>  <BCUT_PEOE_3>
2.8123267

>  <BCUT_SLOGP_0>
-2.7811561

>  <BCUT_SLOGP_1>
-0.26292107

>  <BCUT_SLOGP_2>
0.37556672

>  <BCUT_SLOGP_3>
2.8685834

>  <BCUT_SMR_0>
-2.5646031

>  <BCUT_SMR_1>
-0.17918183

>  <BCUT_SMR_2>
0.52888834

>  <BCUT_SMR_3>
3.0571282

>  <bpol>
42.22945

>  <b_1rotN>
6

>  <b_1rotR>
0.20689656

>  <b_ar>
6

>  <b_count>
65

>  <b_double>
1

>  <b_heavy>
29

>  <b_max1len>
9

>  <b_rotN>
6

>  <b_rotR>
0.20689656

>  <b_single>
58

>  <b_triple>
0

>  <chi0>
19.819626

>  <chi0v>
17.729965

>  <chi0v_C>
16.466255

>  <chi0_C>
17.11252

>  <chi1>
12.653832

>  <chi1v>
10.735627

>  <chi1v_C>
9.8996477

>  <chi1_C>
10.73733

>  <chiral>
2

>  <chiral_u>
0

>  <density>
0.66388446

>  <diameter>
14

>  <FCharge>
0

>  <GCUT_PEOE_0>
-0.80153656

>  <GCUT_PEOE_1>
-0.32768652

>  <GCUT_PEOE_2>
-0.066054441

>  <GCUT_PEOE_3>
3.0716925

>  <GCUT_SLOGP_0>
-0.89716005

>  <GCUT_SLOGP_1>
-0.22942451

>  <GCUT_SLOGP_2>
-0.026213314

>  <GCUT_SLOGP_3>
3.184422

>  <GCUT_SMR_0>
-0.53212517

>  <GCUT_SMR_1>
-0.15407865

>  <GCUT_SMR_2>
0.084091358

>  <GCUT_SMR_3>
3.3133039

>  <Kier1>
21.702734

>  <Kier2>
8.3935947

>  <Kier3>
4.6094184

>  <KierA1>
19.139698

>  <KierA2>
7.3648691

>  <KierA3>
4.0292811

>  <KierFlex>
5.2207913

>  <lip_acc>
3

>  <lip_don>
1

>  <lip_druglike>
1

>  <lip_violation>
1

>  <logP(o/w)>
6.0749998

>  <logS>
-6.9039698

>  <mr>
10.944021

>  <mutagenic>
0

>  <nmol>
1

>  <opr_brigid>
16

>  <opr_leadlike>
1

>  <opr_nring>
3

>  <opr_nrot>
6

>  <opr_violation>
1

>  <PC+>
0

>  <PC->
0

>  <PEOE_PC+>
1.6472207

>  <PEOE_PC->
-1.6472207

>  <PEOE_RPC+>
0.13193515

>  <PEOE_RPC->
0.21822195

>  <PEOE_VSA+0>
160.36891

>  <PEOE_VSA+1>
25.447811

>  <PEOE_VSA+2>
8.458519

>  <PEOE_VSA+3>
0

>  <PEOE_VSA+4>
10.324173

>  <PEOE_VSA+5>
0

>  <PEOE_VSA+6>
0

>  <PEOE_VSA-0>
81.616325

>  <PEOE_VSA-1>
91.048286

>  <PEOE_VSA-2>
0

>  <PEOE_VSA-3>
0

>  <PEOE_VSA-4>
0

>  <PEOE_VSA-5>
13.566921

>  <PEOE_VSA-6>
10.271297

>  <PEOE_VSA_FHYD>
0.91482872

>  <PEOE_VSA_FNEG>
0.48990709

>  <PEOE_VSA_FPNEG>
0.059431773

>  <PEOE_VSA_FPOL>
0.085171275

>  <PEOE_VSA_FPOS>
0.51009291

>  <PEOE_VSA_FPPOS>
0.025739504

>  <PEOE_VSA_HYD>
366.93985

>  <PEOE_VSA_NEG>
196.50284

>  <PEOE_VSA_PNEG>
23.838217

>  <PEOE_VSA_POL>
34.162392

>  <PEOE_VSA_POS>
204.59941

>  <PEOE_VSA_PPOS>
10.324173

>  <petitjean>
0.5

>  <petitjeanSC>
1

>  <Q_PC+>
0

>  <Q_PC->
0

>  <Q_RPC+>
0

>  <Q_RPC->
0

>  <Q_VSA_FHYD>
1

>  <Q_VSA_FNEG>
0

>  <Q_VSA_FPNEG>
0

>  <Q_VSA_FPOL>
0

>  <Q_VSA_FPOS>
1

>  <Q_VSA_FPPOS>
0

>  <Q_VSA_HYD>
401.10223

>  <Q_VSA_NEG>
0

>  <Q_VSA_PNEG>
0

>  <Q_VSA_POL>
0

>  <Q_VSA_POS>
401.10223

>  <Q_VSA_PPOS>
0

>  <radius>
7

>  <reactive>
1

>  <rings>
3

>  <RPC+>
0

>  <RPC->
0

>  <rsynth>
1

>  <SlogP>
6.2639999

>  <SlogP_VSA0>
36.385113

>  <SlogP_VSA1>
5.6876111

>  <SlogP_VSA2>
23.862217

>  <SlogP_VSA3>
0

>  <SlogP_VSA4>
10.781946

>  <SlogP_VSA5>
0

>  <SlogP_VSA6>
4.4107962

>  <SlogP_VSA7>
35.286369

>  <SlogP_VSA8>
150.94725

>  <SlogP_VSA9>
177.11693

>  <SMR>
10.96878

>  <SMR_VSA0>
23.862217

>  <SMR_VSA1>
36.385113

>  <SMR_VSA2>
4.4107962

>  <SMR_VSA3>
21.268803

>  <SMR_VSA4>
0

>  <SMR_VSA5>
186.23361

>  <SMR_VSA6>
5.6876111

>  <SMR_VSA7>
166.63008

>  <TPSA>
46.529999

>  <VAdjEq>
0.40063059

>  <VAdjMa>
5.8579812

>  <VDistEq>
3.4817798

>  <VDistMa>
9.211216

>  <vdw_area>
401.10223

>  <vdw_vol>
561.16541

>  <vsa_acc>
16.070677

>  <vsa_acid>
0

>  <vsa_base>
0

>  <vsa_don>
0

>  <vsa_hyd>
330.87839

>  <vsa_other>
8.458519

>  <vsa_pol>
29.637598

>  <Weight>
372.54898

>  <weinerPath>
1826

>  <weinerPol>
48

>  <zagreb>
146

$$$$