Clc1cc(Cl)ccc1C(OCc1ccc(Cl)cc1Cl)Cn1ccnc1
  MOE2013           2D

 25 27  0  0  1  0  0  0  0  0999 V2000
    0.0000    0.0000    0.0000 Cl  0  0  0  0  0  0  0  0  0  0  0  0
    0.7450   -1.3020    0.0000 C   0  0  0  0  0  0  0  0  0  0  0  0
   -0.0110   -2.5980    0.0000 C   0  0  0  0  0  0  0  0  0  0  0  0
    0.7340   -3.9000    0.0000 C   0  0  0  0  0  0  0  0  0  0  0  0
   -0.0220   -5.1960    0.0000 Cl  0  0  0  0  0  0  0  0  0  0  0  0
    2.2340   -3.9060    0.0000 C   0  0  0  0  0  0  0  0  0  0  0  0
    2.9890   -2.6110    0.0000 C   0  0  0  0  0  0  0  0  0  0  0  0
    2.2450   -1.3080    0.0000 C   0  0  0  0  0  0  0  0  0  0  0  0
    3.0000   -0.0130    0.0000 C   0  0  3  0  0  0  0  0  0  0  0  0
    4.5000   -0.0190    0.0000 O   0  0  0  0  0  0  0  0  0  0  0  0
    5.2450   -1.3210    0.0000 C   0  0  0  0  0  0  0  0  0  0  0  0
    6.7450   -1.3270    0.0000 C   0  0  0  0  0  0  0  0  0  0  0  0
    7.5000   -0.0310    0.0000 C   0  0  0  0  0  0  0  0  0  0  0  0
    9.0000   -0.0380    0.0000 C   0  0  0  0  0  0  0  0  0  0  0  0
    9.7450   -1.3400    0.0000 C   0  0  0  0  0  0  0  0  0  0  0  0
   11.2440   -1.3460    0.0000 Cl  0  0  0  0  0  0  0  0  0  0  0  0
    8.9890   -2.6360    0.0000 C   0  0  0  0  0  0  0  0  0  0  0  0
    7.4890   -2.6290    0.0000 C   0  0  0  0  0  0  0  0  0  0  0  0
    6.7340   -3.9250    0.0000 Cl  0  0  0  0  0  0  0  0  0  0  0  0
    2.2550    1.2900    0.0000 C   0  0  0  0  0  0  0  0  0  0  0  0
    3.0110    2.5860    0.0000 N   0  0  0  0  0  0  0  0  0  0  0  0
    4.5030    2.7360    0.0000 C   0  0  0  0  0  0  0  0  0  0  0  0
    4.8210    4.2020    0.0000 C   0  0  0  0  0  0  0  0  0  0  0  0
    3.5250    4.9570    0.0000 N   0  0  0  0  0  0  0  0  0  0  0  0
    2.4060    3.9580    0.0000 C   0  0  0  0  0  0  0  0  0  0  0  0
  1  2  1  0  0  0  0
  2  3  1  0  0  0  0
  2  8  2  0  0  0  0
  3  4  2  0  0  0  0
  4  5  1  0  0  0  0
  4  6  1  0  0  0  0
  6  7  2  0  0  0  0
  7  8  1  0  0  0  0
  8  9  1  0  0  0  0
  9 10  1  0  0  0  0
  9 20  1  0  0  0  0
 10 11  1  0  0  0  0
 11 12  1  0  0  0  0
 12 13  1  0  0  0  0
 12 18  2  0  0  0  0
 13 14  2  0  0  0  0
 14 15  1  0  0  0  0
 15 16  1  0  0  0  0
 15 17  2  0  0  0  0
 17 18  1  0  0  0  0
 18 19  1  0  0  0  0
 20 21  1  0  0  0  0
 21 22  1  0  0  0  0
 21 25  1  0  0  0  0
 22 23  2  0  0  0  0
 23 24  1  0  0  0  0
 24 25  2  0  0  0  0
M  END
>  <Index>
708

>  <ID>
HT1392

>  <class>
0

>  <apol>
52.737103

>  <ast_fraglike>
0

>  <ast_fraglike_ext>
0

>  <ast_violation>
2

>  <ast_violation_ext>
3

>  <a_acc>
2

>  <a_acid>
0

>  <a_aro>
17

>  <a_base>
0

>  <a_count>
39

>  <a_don>
0

>  <a_donacc>
2

>  <a_heavy>
25

>  <a_hyd>
21

>  <a_IC>
67.769066

>  <a_ICM>
1.7376684

>  <a_nB>
0

>  <a_nBr>
0

>  <a_nC>
18

>  <a_nCl>
4

>  <a_nF>
0

>  <a_nH>
14

>  <a_nI>
0

>  <a_nN>
2

>  <a_nO>
1

>  <a_nP>
0

>  <a_nS>
0

>  <balabanJ>
1.5773528

>  <BCUT_PEOE_0>
-2.5128918

>  <BCUT_PEOE_1>
-0.66189992

>  <BCUT_PEOE_2>
0.68715364

>  <BCUT_PEOE_3>
2.5060024

>  <BCUT_SLOGP_0>
-2.3757811

>  <BCUT_SLOGP_1>
-0.44256714

>  <BCUT_SLOGP_2>
0.95330173

>  <BCUT_SLOGP_3>
2.6471541

>  <BCUT_SMR_0>
-2.2557793

>  <BCUT_SMR_1>
-0.41818252

>  <BCUT_SMR_2>
0.96137518

>  <BCUT_SMR_3>
2.7581635

>  <bpol>
22.200897

>  <b_1rotN>
6

>  <b_1rotR>
0.22222222

>  <b_ar>
17

>  <b_count>
41

>  <b_double>
0

>  <b_heavy>
27

>  <b_max1len>
5

>  <b_rotN>
6

>  <b_rotR>
0.22222222

>  <b_single>
24

>  <b_triple>
0

>  <chi0>
17.81119

>  <chi0v>
16.025965

>  <chi0v_C>
10.187716

>  <chi0_C>
11.819627

>  <chi1>
12.024878

>  <chi1v>
9.0010653

>  <chi1v_C>
4.8598781

>  <chi1_C>
6.5824828

>  <chiral>
1

>  <chiral_u>
1

>  <density>
0.88078159

>  <diameter>
12

>  <FCharge>
0

>  <GCUT_PEOE_0>
-0.85164118

>  <GCUT_PEOE_1>
-0.38915583

>  <GCUT_PEOE_2>
0.061871257

>  <GCUT_PEOE_3>
2.5305223

>  <GCUT_SLOGP_0>
-0.80750144

>  <GCUT_SLOGP_1>
-0.24002782

>  <GCUT_SLOGP_2>
0.31681776

>  <GCUT_SLOGP_3>
2.6976376

>  <GCUT_SMR_0>
-0.50847054

>  <GCUT_SMR_1>
-0.16060156

>  <GCUT_SMR_2>
0.36806926

>  <GCUT_SMR_3>
2.8139307

>  <Kier1>
19.753086

>  <Kier2>
9.2739229

>  <Kier3>
5.489603

>  <KierA1>
18.638315

>  <KierA2>
8.728549

>  <KierA3>
5.1570559

>  <KierFlex>
6.5074177

>  <lip_acc>
3

>  <lip_don>
0

>  <lip_druglike>
1

>  <lip_violation>
1

>  <logP(o/w)>
6.085

>  <logS>
-6.4987102

>  <mr>
10.503352

>  <mutagenic>
0

>  <nmol>
1

>  <opr_brigid>
17

>  <opr_leadlike>
1

>  <opr_nring>
3

>  <opr_nrot>
6

>  <opr_violation>
1

>  <PC+>
0

>  <PC->
0

>  <PEOE_PC+>
1.5225979

>  <PEOE_PC->
-1.5225979

>  <PEOE_RPC+>
0.067792259

>  <PEOE_RPC->
0.2400693

>  <PEOE_VSA+0>
53.779358

>  <PEOE_VSA+1>
104.83057

>  <PEOE_VSA+2>
9.1703148

>  <PEOE_VSA+3>
0

>  <PEOE_VSA+4>
0

>  <PEOE_VSA+5>
0

>  <PEOE_VSA+6>
0

>  <PEOE_VSA-0>
51.228157

>  <PEOE_VSA-1>
142.8376

>  <PEOE_VSA-2>
0

>  <PEOE_VSA-3>
0

>  <PEOE_VSA-4>
5.6825762

>  <PEOE_VSA-5>
0

>  <PEOE_VSA-6>
2.503756

>  <PEOE_VSA_FHYD>
0.97787672

>  <PEOE_VSA_FNEG>
0.54657954

>  <PEOE_VSA_FPNEG>
0.02212329

>  <PEOE_VSA_FPOL>
0.02212329

>  <PEOE_VSA_FPOS>
0.45342049

>  <PEOE_VSA_FPPOS>
0

>  <PEOE_VSA_HYD>
361.84598

>  <PEOE_VSA_NEG>
202.25209

>  <PEOE_VSA_PNEG>
8.1863317

>  <PEOE_VSA_POL>
8.1863317

>  <PEOE_VSA_POS>
167.78023

>  <PEOE_VSA_PPOS>
0

>  <petitjean>
0.5

>  <petitjeanSC>
1

>  <Q_PC+>
0

>  <Q_PC->
0

>  <Q_RPC+>
0

>  <Q_RPC->
0

>  <Q_VSA_FHYD>
1

>  <Q_VSA_FNEG>
0

>  <Q_VSA_FPNEG>
0

>  <Q_VSA_FPOL>
0

>  <Q_VSA_FPOS>
1

>  <Q_VSA_FPPOS>
0

>  <Q_VSA_HYD>
370.03232

>  <Q_VSA_NEG>
0

>  <Q_VSA_PNEG>
0

>  <Q_VSA_POL>
0

>  <Q_VSA_POS>
370.03232

>  <Q_VSA_PPOS>
0

>  <radius>
6

>  <reactive>
0

>  <rings>
3

>  <RPC+>
0

>  <RPC->
0

>  <rsynth>
1

>  <SlogP>
7.0830998

>  <SlogP_VSA0>
0

>  <SlogP_VSA1>
18.684622

>  <SlogP_VSA2>
10.999887

>  <SlogP_VSA3>
0

>  <SlogP_VSA4>
6.37115

>  <SlogP_VSA5>
0

>  <SlogP_VSA6>
14.002426

>  <SlogP_VSA7>
157.07335

>  <SlogP_VSA8>
6.4686494

>  <SlogP_VSA9>
195.96042

>  <SMR>
10.3202

>  <SMR_VSA0>
10.999887

>  <SMR_VSA1>
18.684622

>  <SMR_VSA2>
0

>  <SMR_VSA3>
26.842226

>  <SMR_VSA4>
0

>  <SMR_VSA5>
196.43919

>  <SMR_VSA6>
0

>  <SMR_VSA7>
156.59457

>  <TPSA>
27.049999

>  <VAdjEq>
0.42433795

>  <VAdjMa>
5.7548876

>  <VDistEq>
3.3449552

>  <VDistMa>
9.0156021

>  <vdw_area>
370.03232

>  <vdw_vol>
472.46103

>  <vsa_acc>
8.1863317

>  <vsa_acid>
0

>  <vsa_base>
0

>  <vsa_don>
0

>  <vsa_hyd>
327.09033

>  <vsa_other>
24.790518

>  <vsa_pol>
8.1863317

>  <Weight>
416.13498

>  <weinerPath>
1547

>  <weinerPol>
35

>  <zagreb>
128

$$$$