OC(C)(C)c1nc(n(Cc2ccc(cc2)-c2ccccc2-c2nn[nH]n2)c1C(O)=O)CCC
  MOE2013           2D

 33 36  0  0  0  0  0  0  0  0999 V2000
    0.0000    0.0000    0.0000 O   0  0  0  0  0  0  0  0  0  0  0  0
   -0.0260   -1.5000    0.0000 C   0  0  0  0  0  0  0  0  0  0  0  0
   -0.0520   -3.0000    0.0000 C   0  0  0  0  0  0  0  0  0  0  0  0
    1.4740   -1.5260    0.0000 C   0  0  0  0  0  0  0  0  0  0  0  0
   -1.5260   -1.4740    0.0000 C   0  0  0  0  0  0  0  0  0  0  0  0
   -2.4280   -2.6720    0.0000 N   0  0  0  0  0  0  0  0  0  0  0  0
   -3.8470   -2.1840    0.0000 C   0  0  0  0  0  0  0  0  0  0  0  0
   -3.8210   -0.6840    0.0000 N   0  0  0  0  0  0  0  0  0  0  0  0
   -5.0190    0.2190    0.0000 C   0  0  0  0  0  0  0  0  0  0  0  0
   -6.3990   -0.3670    0.0000 C   0  0  0  0  0  0  0  0  0  0  0  0
   -7.5970    0.5350    0.0000 C   0  0  0  0  0  0  0  0  0  0  0  0
   -8.9780   -0.0510    0.0000 C   0  0  0  0  0  0  0  0  0  0  0  0
   -9.1610   -1.5400    0.0000 C   0  0  0  0  0  0  0  0  0  0  0  0
   -7.9630   -2.4420    0.0000 C   0  0  0  0  0  0  0  0  0  0  0  0
   -6.5820   -1.8560    0.0000 C   0  0  0  0  0  0  0  0  0  0  0  0
  -10.5420   -2.1260    0.0000 C   0  0  0  0  0  0  0  0  0  0  0  0
  -10.7240   -3.6150    0.0000 C   0  0  0  0  0  0  0  0  0  0  0  0
  -12.1050   -4.2010    0.0000 C   0  0  0  0  0  0  0  0  0  0  0  0
  -13.3030   -3.2990    0.0000 C   0  0  0  0  0  0  0  0  0  0  0  0
  -13.1200   -1.8100    0.0000 C   0  0  0  0  0  0  0  0  0  0  0  0
  -11.7400   -1.2240    0.0000 C   0  0  0  0  0  0  0  0  0  0  0  0
  -11.5570    0.2650    0.0000 C   0  0  0  0  0  0  0  0  0  0  0  0
  -12.6540    1.2880    0.0000 N   0  0  0  0  0  0  0  0  0  0  0  0
  -12.0200    2.6480    0.0000 N   0  0  0  0  0  0  0  0  0  0  0  0
  -10.5310    2.4650    0.0000 N   0  0  0  0  0  0  0  0  0  0  0  0
  -10.2450    0.9930    0.0000 N   0  0  0  0  0  0  0  0  0  0  0  0
   -2.3860   -0.2450    0.0000 C   0  0  0  0  0  0  0  0  0  0  0  0
   -1.8980    1.1730    0.0000 C   0  0  0  0  0  0  0  0  0  0  0  0
   -0.4260    1.4600    0.0000 O   0  0  0  0  0  0  0  0  0  0  0  0
   -2.8820    2.3050    0.0000 O   0  0  0  0  0  0  0  0  0  0  0  0
   -5.0750   -3.0440    0.0000 C   0  0  0  0  0  0  0  0  0  0  0  0
   -4.9450   -4.5380    0.0000 C   0  0  0  0  0  0  0  0  0  0  0  0
   -6.1730   -5.3990    0.0000 C   0  0  0  0  0  0  0  0  0  0  0  0
  1  2  1  0  0  0  0
  2  3  1  0  0  0  0
  2  4  1  0  0  0  0
  2  5  1  0  0  0  0
  5  6  1  0  0  0  0
  5 27  2  0  0  0  0
  6  7  2  0  0  0  0
  7  8  1  0  0  0  0
  7 31  1  0  0  0  0
  8  9  1  0  0  0  0
  8 27  1  0  0  0  0
  9 10  1  0  0  0  0
 10 11  1  0  0  0  0
 10 15  2  0  0  0  0
 11 12  2  0  0  0  0
 12 13  1  0  0  0  0
 13 14  2  0  0  0  0
 13 16  1  0  0  0  0
 14 15  1  0  0  0  0
 16 17  1  0  0  0  0
 16 21  2  0  0  0  0
 17 18  2  0  0  0  0
 18 19  1  0  0  0  0
 19 20  2  0  0  0  0
 20 21  1  0  0  0  0
 21 22  1  0  0  0  0
 22 23  1  0  0  0  0
 22 26  2  0  0  0  0
 23 24  2  0  0  0  0
 24 25  1  0  0  0  0
 25 26  1  0  0  0  0
 27 28  1  0  0  0  0
 28 29  1  0  0  0  0
 28 30  2  0  0  0  0
 31 32  1  0  0  0  0
 32 33  1  0  0  0  0
M  END
>  <Index>
786

>  <ID>
HT1536

>  <class>
0

>  <apol>
68.582619

>  <ast_fraglike>
0

>  <ast_fraglike_ext>
0

>  <ast_violation>
4

>  <ast_violation_ext>
6

>  <a_acc>
8

>  <a_acid>
0

>  <a_aro>
22

>  <a_base>
0

>  <a_count>
59

>  <a_don>
5

>  <a_donacc>
13

>  <a_heavy>
33

>  <a_hyd>
21

>  <a_IC>
94.560745

>  <a_ICM>
1.6027244

>  <a_nB>
0

>  <a_nBr>
0

>  <a_nC>
24

>  <a_nCl>
0

>  <a_nF>
0

>  <a_nH>
26

>  <a_nI>
0

>  <a_nN>
6

>  <a_nO>
3

>  <a_nP>
0

>  <a_nS>
0

>  <balabanJ>
1.3751386

>  <BCUT_PEOE_0>
-2.5172751

>  <BCUT_PEOE_1>
-0.5457806

>  <BCUT_PEOE_2>
0.59688687

>  <BCUT_PEOE_3>
2.5660286

>  <BCUT_SLOGP_0>
-2.4233932

>  <BCUT_SLOGP_1>
-0.45360813

>  <BCUT_SLOGP_2>
0.68861979

>  <BCUT_SLOGP_3>
2.6624484

>  <BCUT_SMR_0>
-2.2927153

>  <BCUT_SMR_1>
-0.38463843

>  <BCUT_SMR_2>
0.79886478

>  <BCUT_SMR_3>
2.8036511

>  <bpol>
33.341381

>  <b_1rotN>
8

>  <b_1rotR>
0.22222222

>  <b_ar>
22

>  <b_count>
62

>  <b_double>
1

>  <b_heavy>
36

>  <b_max1len>
4

>  <b_rotN>
8

>  <b_rotR>
0.22222222

>  <b_single>
39

>  <b_triple>
0

>  <chi0>
23.587212

>  <chi0v>
18.778866

>  <chi0v_C>
14.740123

>  <chi0_C>
16.474327

>  <chi1>
15.791043

>  <chi1v>
10.769351

>  <chi1v_C>
7.8129311

>  <chi1_C>
9.9284353

>  <chiral>
0

>  <chiral_u>
0

>  <density>
0.74794149

>  <diameter>
14

>  <FCharge>
0

>  <GCUT_PEOE_0>
-0.83129323

>  <GCUT_PEOE_1>
-0.37952536

>  <GCUT_PEOE_2>
0.051022962

>  <GCUT_PEOE_3>
2.7707064

>  <GCUT_SLOGP_0>
-0.96363872

>  <GCUT_SLOGP_1>
-0.33604079

>  <GCUT_SLOGP_2>
0.1305629

>  <GCUT_SLOGP_3>
2.8642163

>  <GCUT_SMR_0>
-0.52673393

>  <GCUT_SMR_1>
-0.2053124

>  <GCUT_SMR_2>
0.189933

>  <GCUT_SMR_3>
3.0404217

>  <Kier1>
26.074074

>  <Kier2>
11.372781

>  <Kier3>
6.0491495

>  <KierA1>
18.681803

>  <KierA2>
8.0570765

>  <KierA3>
4.2504129

>  <KierFlex>
4.561234

>  <lip_acc>
9

>  <lip_don>
3

>  <lip_druglike>
1

>  <lip_violation>
0

>  <logP(o/w)>
4.4860001

>  <logS>
-6.12359

>  <mr>
12.499846

>  <mutagenic>
0

>  <nmol>
1

>  <opr_brigid>
22

>  <opr_leadlike>
1

>  <opr_nring>
4

>  <opr_nrot>
8

>  <opr_violation>
1

>  <PC+>
0

>  <PC->
0

>  <PEOE_PC+>
2.6578898

>  <PEOE_PC->
-2.6578898

>  <PEOE_RPC+>
0.11654255

>  <PEOE_RPC->
0.14406894

>  <PEOE_VSA+0>
66.359871

>  <PEOE_VSA+1>
55.846184

>  <PEOE_VSA+2>
24.589664

>  <PEOE_VSA+3>
0

>  <PEOE_VSA+4>
40.45792

>  <PEOE_VSA+5>
0

>  <PEOE_VSA+6>
14.708499

>  <PEOE_VSA-0>
65.981789

>  <PEOE_VSA-1>
116.78691

>  <PEOE_VSA-2>
18.842079

>  <PEOE_VSA-3>
7.6138182

>  <PEOE_VSA-4>
5.6825762

>  <PEOE_VSA-5>
13.566921

>  <PEOE_VSA-6>
15.535081

>  <PEOE_VSA_FHYD>
0.79830319

>  <PEOE_VSA_FNEG>
0.54714096

>  <PEOE_VSA_FPNEG>
0.077997342

>  <PEOE_VSA_FPOL>
0.20169683

>  <PEOE_VSA_FPOS>
0.45285904

>  <PEOE_VSA_FPPOS>
0.12369948

>  <PEOE_VSA_HYD>
356.02032

>  <PEOE_VSA_NEG>
244.00917

>  <PEOE_VSA_PNEG>
34.784576

>  <PEOE_VSA_POL>
89.950996

>  <PEOE_VSA_POS>
201.96214

>  <PEOE_VSA_PPOS>
55.16642

>  <petitjean>
0.5

>  <petitjeanSC>
1

>  <Q_PC+>
0

>  <Q_PC->
0

>  <Q_RPC+>
0

>  <Q_RPC->
0

>  <Q_VSA_FHYD>
1

>  <Q_VSA_FNEG>
0

>  <Q_VSA_FPNEG>
0

>  <Q_VSA_FPOL>
0

>  <Q_VSA_FPOS>
1

>  <Q_VSA_FPPOS>
0

>  <Q_VSA_HYD>
445.97131

>  <Q_VSA_NEG>
0

>  <Q_VSA_PNEG>
0

>  <Q_VSA_POL>
0

>  <Q_VSA_POS>
445.97131

>  <Q_VSA_PPOS>
0

>  <radius>
7

>  <reactive>
0

>  <rings>
4

>  <RPC+>
0

>  <RPC->
0

>  <rsynth>
1

>  <SlogP>
4.2344699

>  <SlogP_VSA0>
25.385227

>  <SlogP_VSA1>
76.296585

>  <SlogP_VSA2>
16.540485

>  <SlogP_VSA3>
25.385227

>  <SlogP_VSA4>
34.889206

>  <SlogP_VSA5>
18.868406

>  <SlogP_VSA6>
0

>  <SlogP_VSA7>
153.03012

>  <SlogP_VSA8>
18.868406

>  <SlogP_VSA9>
118.41763

>  <SMR>
12.28998

>  <SMR_VSA0>
23.862217

>  <SMR_VSA1>
93.936348

>  <SMR_VSA2>
41.925713

>  <SMR_VSA3>
11.02699

>  <SMR_VSA4>
11.884645

>  <SMR_VSA5>
197.32187

>  <SMR_VSA6>
7.7454643

>  <SMR_VSA7>
99.978043

>  <TPSA>
129.81

>  <VAdjEq>
0.3512581

>  <VAdjMa>
6.1699252

>  <VDistEq>
3.6902049

>  <VDistMa>
9.7959509

>  <vdw_area>
445.97131

>  <vdw_vol>
596.98651

>  <vsa_acc>
28.263119

>  <vsa_acid>
0

>  <vsa_base>
0

>  <vsa_don>
0

>  <vsa_hyd>
288.84305

>  <vsa_other>
37.089626

>  <vsa_pol>
91.544426

>  <Weight>
446.51099

>  <weinerPath>
3324

>  <weinerPol>
53

>  <zagreb>
176

$$$$