Nc1c2c(ccc1)C(CN(C2)C)c1ccccc1
  MOE2013           2D

 18 20  0  0  1  0  0  0  0  0999 V2000
    0.0000    0.0000    0.0000 N   0  0  0  0  0  0  0  0  0  0  0  0
    1.2930   -0.7600    0.0000 C   0  0  0  0  0  0  0  0  0  0  0  0
    2.5980   -0.0200    0.0000 C   0  0  0  0  0  0  0  0  0  0  0  0
    3.8910   -0.7810    0.0000 C   0  0  0  0  0  0  0  0  0  0  0  0
    3.8790   -2.2810    0.0000 C   0  0  0  0  0  0  0  0  0  0  0  0
    2.5740   -3.0200    0.0000 C   0  0  0  0  0  0  0  0  0  0  0  0
    1.2810   -2.2600    0.0000 C   0  0  0  0  0  0  0  0  0  0  0  0
    5.1960   -0.0410    0.0000 C   0  0  3  0  0  0  0  0  0  0  0  0
    5.2080    1.4590    0.0000 C   0  0  0  0  0  0  0  0  0  0  0  0
    3.9150    2.2190    0.0000 N   0  0  3  0  0  0  0  0  0  0  0  0
    2.6100    1.4800    0.0000 C   0  0  0  0  0  0  0  0  0  0  0  0
    3.9260    3.7190    0.0000 C   0  0  0  0  0  0  0  0  0  0  0  0
    6.4890   -0.8010    0.0000 C   0  0  0  0  0  0  0  0  0  0  0  0
    6.4770   -2.3010    0.0000 C   0  0  0  0  0  0  0  0  0  0  0  0
    7.7700   -3.0610    0.0000 C   0  0  0  0  0  0  0  0  0  0  0  0
    9.0750   -2.3210    0.0000 C   0  0  0  0  0  0  0  0  0  0  0  0
    9.0870   -0.8210    0.0000 C   0  0  0  0  0  0  0  0  0  0  0  0
    7.7940   -0.0610    0.0000 C   0  0  0  0  0  0  0  0  0  0  0  0
  1  2  1  0  0  0  0
  2  3  1  0  0  0  0
  2  7  2  0  0  0  0
  3  4  2  0  0  0  0
  3 11  1  0  0  0  0
  4  5  1  0  0  0  0
  4  8  1  0  0  0  0
  5  6  2  0  0  0  0
  6  7  1  0  0  0  0
  8  9  1  0  0  0  0
  8 13  1  0  0  0  0
  9 10  1  0  0  0  0
 10 11  1  0  0  0  0
 10 12  1  0  0  0  0
 13 14  1  0  0  0  0
 13 18  2  0  0  0  0
 14 15  2  0  0  0  0
 15 16  1  0  0  0  0
 16 17  2  0  0  0  0
 17 18  1  0  0  0  0
M  END
>  <Index>
778

>  <ID>
HT1516

>  <class>
0

>  <apol>
42.362274

>  <ast_fraglike>
0

>  <ast_fraglike_ext>
0

>  <ast_violation>
1

>  <ast_violation_ext>
1

>  <a_acc>
1

>  <a_acid>
0

>  <a_aro>
12

>  <a_base>
0

>  <a_count>
36

>  <a_don>
1

>  <a_donacc>
2

>  <a_heavy>
18

>  <a_hyd>
16

>  <a_IC>
45.058651

>  <a_ICM>
1.2516291

>  <a_nB>
0

>  <a_nBr>
0

>  <a_nC>
16

>  <a_nCl>
0

>  <a_nF>
0

>  <a_nH>
18

>  <a_nI>
0

>  <a_nN>
2

>  <a_nO>
0

>  <a_nP>
0

>  <a_nS>
0

>  <balabanJ>
1.7492088

>  <BCUT_PEOE_0>
-2.6753852

>  <BCUT_PEOE_1>
-0.55880803

>  <BCUT_PEOE_2>
0.61786669

>  <BCUT_PEOE_3>
2.5990264

>  <BCUT_SLOGP_0>
-2.6688309

>  <BCUT_SLOGP_1>
-0.45541275

>  <BCUT_SLOGP_2>
0.71883923

>  <BCUT_SLOGP_3>
2.6641915

>  <BCUT_SMR_0>
-2.3830316

>  <BCUT_SMR_1>
-0.42503184

>  <BCUT_SMR_2>
0.75889689

>  <BCUT_SMR_3>
2.8897042

>  <bpol>
20.997726

>  <b_1rotN>
1

>  <b_1rotR>
0.050000001

>  <b_ar>
12

>  <b_count>
38

>  <b_double>
0

>  <b_heavy>
20

>  <b_max1len>
2

>  <b_rotN>
1

>  <b_rotR>
0.050000001

>  <b_single>
26

>  <b_triple>
0

>  <chi0>
12.53517

>  <chi0v>
10.63493

>  <chi0v_C>
9.6103659

>  <chi0_C>
10.957819

>  <chi1>
8.7540197

>  <chi1v>
6.3621969

>  <chi1v_C>
4.9938526

>  <chi1_C>
6.7828231

>  <chiral>
1

>  <chiral_u>
1

>  <density>
0.66160023

>  <diameter>
8

>  <FCharge>
0

>  <GCUT_PEOE_0>
-0.85283244

>  <GCUT_PEOE_1>
-0.35939091

>  <GCUT_PEOE_2>
0.06535849

>  <GCUT_PEOE_3>
2.6626594

>  <GCUT_SLOGP_0>
-1.3345089

>  <GCUT_SLOGP_1>
-0.2657176

>  <GCUT_SLOGP_2>
0.14661902

>  <GCUT_SLOGP_3>
2.7739081

>  <GCUT_SMR_0>
-0.51049626

>  <GCUT_SMR_1>
-0.19156449

>  <GCUT_SMR_2>
0.1686566

>  <GCUT_SMR_3>
2.9505322

>  <Kier1>
13.005

>  <Kier2>
5.5510206

>  <Kier3>
2.6592798

>  <KierA1>
9.4843073

>  <KierA2>
3.9661663

>  <KierA3>
1.8713356

>  <KierFlex>
2.0897968

>  <lip_acc>
2

>  <lip_don>
2

>  <lip_druglike>
1

>  <lip_violation>
0

>  <logP(o/w)>
2.832

>  <logS>
-2.80354

>  <mr>
7.4340525

>  <mutagenic>
1

>  <nmol>
1

>  <opr_brigid>
17

>  <opr_leadlike>
1

>  <opr_nring>
3

>  <opr_nrot>
2

>  <opr_violation>
0

>  <PC+>
0

>  <PC->
0

>  <PEOE_PC+>
1.1602049

>  <PEOE_PC->
-1.1602049

>  <PEOE_RPC+>
0.10681652

>  <PEOE_RPC->
0.26029426

>  <PEOE_VSA+0>
67.207291

>  <PEOE_VSA+1>
34.123089

>  <PEOE_VSA+2>
17.238026

>  <PEOE_VSA+3>
0

>  <PEOE_VSA+4>
0

>  <PEOE_VSA+5>
0

>  <PEOE_VSA+6>
0

>  <PEOE_VSA-0>
42.119213

>  <PEOE_VSA-1>
85.784325

>  <PEOE_VSA-2>
0

>  <PEOE_VSA-3>
0

>  <PEOE_VSA-4>
0

>  <PEOE_VSA-5>
0

>  <PEOE_VSA-6>
6.6511192

>  <PEOE_VSA_FHYD>
0.97372377

>  <PEOE_VSA_FNEG>
0.531578

>  <PEOE_VSA_FPNEG>
0.026276229

>  <PEOE_VSA_FPOL>
0.026276229

>  <PEOE_VSA_FPOS>
0.46842197

>  <PEOE_VSA_FPPOS>
0

>  <PEOE_VSA_HYD>
246.47194

>  <PEOE_VSA_NEG>
134.55466

>  <PEOE_VSA_PNEG>
6.6511192

>  <PEOE_VSA_POL>
6.6511192

>  <PEOE_VSA_POS>
118.56841

>  <PEOE_VSA_PPOS>
0

>  <petitjean>
0.5

>  <petitjeanSC>
1

>  <Q_PC+>
0

>  <Q_PC->
0

>  <Q_RPC+>
0

>  <Q_RPC->
0

>  <Q_VSA_FHYD>
1

>  <Q_VSA_FNEG>
0

>  <Q_VSA_FPNEG>
0

>  <Q_VSA_FPOL>
0

>  <Q_VSA_FPOS>
1

>  <Q_VSA_FPPOS>
0

>  <Q_VSA_HYD>
253.12306

>  <Q_VSA_NEG>
0

>  <Q_VSA_PNEG>
0

>  <Q_VSA_POL>
0

>  <Q_VSA_POS>
253.12306

>  <Q_VSA_PPOS>
0

>  <radius>
4

>  <reactive>
0

>  <rings>
3

>  <RPC+>
0

>  <RPC->
0

>  <rsynth>
0

>  <SlogP>
3.1125

>  <SlogP_VSA0>
32.897186

>  <SlogP_VSA1>
3.1243138

>  <SlogP_VSA2>
0

>  <SlogP_VSA3>
18.439579

>  <SlogP_VSA4>
9.5567245

>  <SlogP_VSA5>
32.897186

>  <SlogP_VSA6>
4.4107962

>  <SlogP_VSA7>
141.14548

>  <SlogP_VSA8>
0

>  <SlogP_VSA9>
21.196325

>  <SMR>
7.5678401

>  <SMR_VSA0>
0

>  <SMR_VSA1>
3.1243138

>  <SMR_VSA2>
0

>  <SMR_VSA3>
13.967521

>  <SMR_VSA4>
2.7567475

>  <SMR_VSA5>
192.48224

>  <SMR_VSA6>
18.439579

>  <SMR_VSA7>
32.897186

>  <TPSA>
29.26

>  <VAdjEq>
0.53921634

>  <VAdjMa>
5.321928

>  <VDistEq>
2.7856462

>  <VDistMa>
8.0732965

>  <vdw_area>
253.12306

>  <vdw_vol>
360.23871

>  <vsa_acc>
0

>  <vsa_acid>
0

>  <vsa_base>
0

>  <vsa_don>
17.742489

>  <vsa_hyd>
216.50014

>  <vsa_other>
0

>  <vsa_pol>
17.742489

>  <Weight>
238.334

>  <weinerPath>
555

>  <weinerPol>
29

>  <zagreb>
96

$$$$