s1cc(nc1N)CC(=O)Nc1ccc(cc1)CCNC[C@H](O)c1ccccc1
  MOE2013           2D

 28 30  0  0  1  0  0  0  0  0999 V2000
    0.0000    0.0000    0.0000 S   0  0  0  0  0  0  0  0  0  0  0  0
   -1.4720   -0.2890    0.0000 C   0  0  0  0  0  0  0  0  0  0  0  0
   -1.6520   -1.7780    0.0000 C   0  0  0  0  0  0  0  0  0  0  0  0
   -0.2910   -2.4100    0.0000 N   0  0  0  0  0  0  0  0  0  0  0  0
    0.7300   -1.3100    0.0000 C   0  0  0  0  0  0  0  0  0  0  0  0
    2.2190   -1.4900    0.0000 N   0  0  0  0  0  0  0  0  0  0  0  0
   -2.9620   -2.5080    0.0000 C   0  0  0  0  0  0  0  0  0  0  0  0
   -4.2490   -1.7380    0.0000 C   0  0  0  0  0  0  0  0  0  0  0  0
   -4.2260   -0.2380    0.0000 O   0  0  0  0  0  0  0  0  0  0  0  0
   -5.5600   -2.4680    0.0000 N   0  0  0  0  0  0  0  0  0  0  0  0
   -6.8470   -1.6980    0.0000 C   0  0  0  0  0  0  0  0  0  0  0  0
   -6.8240   -0.1980    0.0000 C   0  0  0  0  0  0  0  0  0  0  0  0
   -8.1110    0.5720    0.0000 C   0  0  0  0  0  0  0  0  0  0  0  0
   -9.4220   -0.1580    0.0000 C   0  0  0  0  0  0  0  0  0  0  0  0
   -9.4450   -1.6580    0.0000 C   0  0  0  0  0  0  0  0  0  0  0  0
   -8.1580   -2.4280    0.0000 C   0  0  0  0  0  0  0  0  0  0  0  0
  -10.7090    0.6120    0.0000 C   0  0  0  0  0  0  0  0  0  0  0  0
  -12.0200   -0.1180    0.0000 C   0  0  0  0  0  0  0  0  0  0  0  0
  -13.3070    0.6520    0.0000 N   0  0  0  0  0  0  0  0  0  0  0  0
  -14.6170   -0.0780    0.0000 C   0  0  0  0  0  0  0  0  0  0  0  0
  -15.9050    0.6920    0.0000 C   0  0  2  0  0  0  0  0  0  0  0  0
  -15.8810    2.1920    0.0000 O   0  0  0  0  0  0  0  0  0  0  0  0
  -17.2150   -0.0380    0.0000 C   0  0  0  0  0  0  0  0  0  0  0  0
  -17.2380   -1.5380    0.0000 C   0  0  0  0  0  0  0  0  0  0  0  0
  -18.5490   -2.2670    0.0000 C   0  0  0  0  0  0  0  0  0  0  0  0
  -19.8360   -1.4970    0.0000 C   0  0  0  0  0  0  0  0  0  0  0  0
  -19.8130    0.0020    0.0000 C   0  0  0  0  0  0  0  0  0  0  0  0
  -18.5020    0.7320    0.0000 C   0  0  0  0  0  0  0  0  0  0  0  0
  1  2  1  0  0  0  0
  1  5  1  0  0  0  0
  2  3  2  0  0  0  0
  3  4  1  0  0  0  0
  3  7  1  0  0  0  0
  4  5  2  0  0  0  0
  5  6  1  0  0  0  0
  7  8  1  0  0  0  0
  8  9  2  0  0  0  0
  8 10  1  0  0  0  0
 10 11  1  0  0  0  0
 11 12  1  0  0  0  0
 11 16  2  0  0  0  0
 12 13  2  0  0  0  0
 13 14  1  0  0  0  0
 14 15  2  0  0  0  0
 14 17  1  0  0  0  0
 15 16  1  0  0  0  0
 17 18  1  0  0  0  0
 18 19  1  0  0  0  0
 19 20  1  0  0  0  0
 20 21  1  0  0  0  0
 21 22  1  1  0  0  0
 21 23  1  0  0  0  0
 23 24  1  0  0  0  0
 23 28  2  0  0  0  0
 24 25  2  0  0  0  0
 25 26  1  0  0  0  0
 26 27  2  0  0  0  0
 27 28  1  0  0  0  0
M  END
>  <Index>
720

>  <ID>
HT1410

>  <class>
0

>  <apol>
61.867031

>  <ast_fraglike>
0

>  <ast_fraglike_ext>
0

>  <ast_violation>
3

>  <ast_violation_ext>
5

>  <a_acc>
4

>  <a_acid>
0

>  <a_aro>
17

>  <a_base>
0

>  <a_count>
52

>  <a_don>
4

>  <a_donacc>
8

>  <a_heavy>
28

>  <a_hyd>
20

>  <a_IC>
84.145096

>  <a_ICM>
1.618175

>  <a_nB>
0

>  <a_nBr>
0

>  <a_nC>
21

>  <a_nCl>
0

>  <a_nF>
0

>  <a_nH>
24

>  <a_nI>
0

>  <a_nN>
4

>  <a_nO>
2

>  <a_nP>
0

>  <a_nS>
1

>  <balabanJ>
1.2120413

>  <BCUT_PEOE_0>
-2.5962307

>  <BCUT_PEOE_1>
-0.64442372

>  <BCUT_PEOE_2>
0.69768965

>  <BCUT_PEOE_3>
2.5310462

>  <BCUT_SLOGP_0>
-2.7269285

>  <BCUT_SLOGP_1>
-0.54450524

>  <BCUT_SLOGP_2>
0.68817472

>  <BCUT_SLOGP_3>
2.5166144

>  <BCUT_SMR_0>
-2.3227525

>  <BCUT_SMR_1>
-0.49986199

>  <BCUT_SMR_2>
0.85431087

>  <BCUT_SMR_3>
2.7970068

>  <bpol>
31.454967

>  <b_1rotN>
9

>  <b_1rotR>
0.30000001

>  <b_ar>
17

>  <b_count>
54

>  <b_double>
1

>  <b_heavy>
30

>  <b_max1len>
7

>  <b_rotN>
10

>  <b_rotR>
0.33333334

>  <b_single>
36

>  <b_triple>
0

>  <chi0>
19.769375

>  <chi0v>
16.28405

>  <chi0v_C>
12.17928

>  <chi0_C>
13.940947

>  <chi1>
13.597357

>  <chi1v>
10.003107

>  <chi1v_C>
6.2783093

>  <chi1_C>
8.3240643

>  <chiral>
1

>  <chiral_u>
0

>  <density>
0.74436343

>  <diameter>
19

>  <FCharge>
0

>  <GCUT_PEOE_0>
-0.84367955

>  <GCUT_PEOE_1>
-0.38941756

>  <GCUT_PEOE_2>
0.082493804

>  <GCUT_PEOE_3>
2.5518668

>  <GCUT_SLOGP_0>
-1.3345221

>  <GCUT_SLOGP_1>
-0.34537861

>  <GCUT_SLOGP_2>
0.16445385

>  <GCUT_SLOGP_3>
2.6192942

>  <GCUT_SMR_0>
-0.51321357

>  <GCUT_SMR_1>
-0.23022234

>  <GCUT_SMR_2>
0.19745232

>  <GCUT_SMR_3>
2.8286102

>  <Kier1>
22.68

>  <Kier2>
12

>  <Kier3>
7.9867673

>  <KierA1>
17.505133

>  <KierA2>
9.167099

>  <KierA3>
6.0567021

>  <KierFlex>
5.7311172

>  <lip_acc>
6

>  <lip_don>
5

>  <lip_druglike>
1

>  <lip_violation>
0

>  <logP(o/w)>
2.3

>  <logS>
-4.12884

>  <mr>
11.40533

>  <mutagenic>
1

>  <nmol>
1

>  <opr_brigid>
17

>  <opr_leadlike>
1

>  <opr_nring>
3

>  <opr_nrot>
9

>  <opr_violation>
0

>  <PC+>
0

>  <PC->
0

>  <PEOE_PC+>
2.4991059

>  <PEOE_PC->
-2.4991059

>  <PEOE_RPC+>
0.092443705

>  <PEOE_RPC->
0.15442151

>  <PEOE_VSA+0>
60.714516

>  <PEOE_VSA+1>
73.692116

>  <PEOE_VSA+2>
25.857038

>  <PEOE_VSA+3>
28.379631

>  <PEOE_VSA+4>
23.273705

>  <PEOE_VSA+5>
0

>  <PEOE_VSA+6>
0

>  <PEOE_VSA-0>
50.820526

>  <PEOE_VSA-1>
100.01529

>  <PEOE_VSA-2>
0

>  <PEOE_VSA-3>
0

>  <PEOE_VSA-4>
0

>  <PEOE_VSA-5>
25.900616

>  <PEOE_VSA-6>
8.0413227

>  <PEOE_VSA_FHYD>
0.8557691

>  <PEOE_VSA_FNEG>
0.46579328

>  <PEOE_VSA_FPNEG>
0.085561857

>  <PEOE_VSA_FPOL>
0.1442309

>  <PEOE_VSA_FPOS>
0.53420669

>  <PEOE_VSA_FPPOS>
0.058669049

>  <PEOE_VSA_HYD>
339.47913

>  <PEOE_VSA_NEG>
184.77776

>  <PEOE_VSA_PNEG>
33.94194

>  <PEOE_VSA_POL>
57.215641

>  <PEOE_VSA_POS>
211.91701

>  <PEOE_VSA_PPOS>
23.273705

>  <petitjean>
0.47368422

>  <petitjeanSC>
0.89999998

>  <Q_PC+>
0

>  <Q_PC->
0

>  <Q_RPC+>
0

>  <Q_RPC->
0

>  <Q_VSA_FHYD>
1

>  <Q_VSA_FNEG>
0

>  <Q_VSA_FPNEG>
0

>  <Q_VSA_FPOL>
0

>  <Q_VSA_FPOS>
1

>  <Q_VSA_FPPOS>
0

>  <Q_VSA_HYD>
396.69476

>  <Q_VSA_NEG>
0

>  <Q_VSA_PNEG>
0

>  <Q_VSA_POL>
0

>  <Q_VSA_POS>
396.69476

>  <Q_VSA_PPOS>
0

>  <radius>
10

>  <reactive>
0

>  <rings>
3

>  <RPC+>
0

>  <RPC->
0

>  <rsynth>
1

>  <SlogP>
2.86764

>  <SlogP_VSA0>
76.293167

>  <SlogP_VSA1>
40.055065

>  <SlogP_VSA2>
23.862217

>  <SlogP_VSA3>
36.879158

>  <SlogP_VSA4>
9.1278973

>  <SlogP_VSA5>
37.736813

>  <SlogP_VSA6>
0

>  <SlogP_VSA7>
174.60468

>  <SlogP_VSA8>
6.4686494

>  <SlogP_VSA9>
34.535183

>  <SMR>
11.33886

>  <SMR_VSA0>
23.862217

>  <SMR_VSA1>
42.170757

>  <SMR_VSA2>
18.01075

>  <SMR_VSA3>
15.596547

>  <SMR_VSA4>
21.268244

>  <SMR_VSA5>
245.23866

>  <SMR_VSA6>
42.137939

>  <SMR_VSA7>
31.277687

>  <TPSA>
100.27

>  <VAdjEq>
0.38983503

>  <VAdjMa>
5.9068904

>  <VDistEq>
4.0277715

>  <VDistMa>
9.2525644

>  <vdw_area>
396.69476

>  <vdw_vol>
532.69006

>  <vsa_acc>
19.249496

>  <vsa_acid>
0

>  <vsa_base>
0

>  <vsa_don>
23.425066

>  <vsa_hyd>
278.31232

>  <vsa_other>
26.116156

>  <vsa_pol>
61.924061

>  <Weight>
396.51498

>  <weinerPath>
2740

>  <weinerPol>
35

>  <zagreb>
138

$$$$