O(C(c1ccccc1C)c1ccccc1)CCN(C)C
  MOE2013           2D

 20 21  0  0  1  0  0  0  0  0999 V2000
    0.0000    0.0000    0.0000 O   0  0  0  0  0  0  0  0  0  0  0  0
   -1.3030   -0.7440    0.0000 C   0  0  3  0  0  0  0  0  0  0  0  0
   -2.5980    0.0130    0.0000 C   0  0  0  0  0  0  0  0  0  0  0  0
   -3.9010   -0.7310    0.0000 C   0  0  0  0  0  0  0  0  0  0  0  0
   -5.1960    0.0250    0.0000 C   0  0  0  0  0  0  0  0  0  0  0  0
   -5.1890    1.5250    0.0000 C   0  0  0  0  0  0  0  0  0  0  0  0
   -3.8860    2.2690    0.0000 C   0  0  0  0  0  0  0  0  0  0  0  0
   -2.5910    1.5130    0.0000 C   0  0  0  0  0  0  0  0  0  0  0  0
   -1.2880    2.2560    0.0000 C   0  0  0  0  0  0  0  0  0  0  0  0
   -1.3100   -2.2440    0.0000 C   0  0  0  0  0  0  0  0  0  0  0  0
   -0.0150   -3.0000    0.0000 C   0  0  0  0  0  0  0  0  0  0  0  0
   -0.0220   -4.5000    0.0000 C   0  0  0  0  0  0  0  0  0  0  0  0
   -1.3250   -5.2440    0.0000 C   0  0  0  0  0  0  0  0  0  0  0  0
   -2.6200   -4.4870    0.0000 C   0  0  0  0  0  0  0  0  0  0  0  0
   -2.6130   -2.9870    0.0000 C   0  0  0  0  0  0  0  0  0  0  0  0
    1.2950   -0.7560    0.0000 C   0  0  0  0  0  0  0  0  0  0  0  0
    2.5980   -0.0130    0.0000 C   0  0  0  0  0  0  0  0  0  0  0  0
    3.8930   -0.7690    0.0000 N   0  0  0  0  0  0  0  0  0  0  0  0
    3.8860   -2.2690    0.0000 C   0  0  0  0  0  0  0  0  0  0  0  0
    5.1960   -0.0250    0.0000 C   0  0  0  0  0  0  0  0  0  0  0  0
  1  2  1  0  0  0  0
  1 16  1  0  0  0  0
  2  3  1  0  0  0  0
  2 10  1  0  0  0  0
  3  4  1  0  0  0  0
  3  8  2  0  0  0  0
  4  5  2  0  0  0  0
  5  6  1  0  0  0  0
  6  7  2  0  0  0  0
  7  8  1  0  0  0  0
  8  9  1  0  0  0  0
 10 11  1  0  0  0  0
 10 15  2  0  0  0  0
 11 12  2  0  0  0  0
 12 13  1  0  0  0  0
 13 14  2  0  0  0  0
 14 15  1  0  0  0  0
 16 17  1  0  0  0  0
 17 18  1  0  0  0  0
 18 19  1  0  0  0  0
 18 20  1  0  0  0  0
M  END
>  <Index>
792

>  <ID>
HT1545

>  <class>
0

>  <apol>
48.91824

>  <ast_fraglike>
0

>  <ast_fraglike_ext>
0

>  <ast_violation>
1

>  <ast_violation_ext>
2

>  <a_acc>
2

>  <a_acid>
0

>  <a_aro>
12

>  <a_base>
0

>  <a_count>
43

>  <a_don>
0

>  <a_donacc>
2

>  <a_heavy>
20

>  <a_hyd>
18

>  <a_IC>
54.228809

>  <a_ICM>
1.2611351

>  <a_nB>
0

>  <a_nBr>
0

>  <a_nC>
18

>  <a_nCl>
0

>  <a_nF>
0

>  <a_nH>
23

>  <a_nI>
0

>  <a_nN>
1

>  <a_nO>
1

>  <a_nP>
0

>  <a_nS>
0

>  <balabanJ>
1.9450096

>  <BCUT_PEOE_0>
-2.6108599

>  <BCUT_PEOE_1>
-0.51717395

>  <BCUT_PEOE_2>
0.58084196

>  <BCUT_PEOE_3>
2.5230668

>  <BCUT_SLOGP_0>
-2.699625

>  <BCUT_SLOGP_1>
-0.41686195

>  <BCUT_SLOGP_2>
0.67830569

>  <BCUT_SLOGP_3>
2.561321

>  <BCUT_SMR_0>
-2.3361673

>  <BCUT_SMR_1>
-0.38994971

>  <BCUT_SMR_2>
0.71433705

>  <BCUT_SMR_3>
2.7864239

>  <bpol>
29.039761

>  <b_1rotN>
6

>  <b_1rotR>
0.2857143

>  <b_ar>
12

>  <b_count>
44

>  <b_double>
0

>  <b_heavy>
21

>  <b_max1len>
7

>  <b_rotN>
6

>  <b_rotR>
0.2857143

>  <b_single>
32

>  <b_triple>
0

>  <chi0>
14.372033

>  <chi0v>
12.543179

>  <chi0v_C>
11.687716

>  <chi0_C>
13.087576

>  <chi1>
9.6815405

>  <chi1v>
7.0504165

>  <chi1v_C>
5.3153839

>  <chi1_C>
7.2103434

>  <chiral>
1

>  <chiral_u>
1

>  <density>
0.64295661

>  <diameter>
9

>  <FCharge>
0

>  <GCUT_PEOE_0>
-0.85889876

>  <GCUT_PEOE_1>
-0.34264281

>  <GCUT_PEOE_2>
0.058771204

>  <GCUT_PEOE_3>
2.590456

>  <GCUT_SLOGP_0>
-0.95888376

>  <GCUT_SLOGP_1>
-0.22623776

>  <GCUT_SLOGP_2>
0.13811964

>  <GCUT_SLOGP_3>
2.6980226

>  <GCUT_SMR_0>
-0.51791942

>  <GCUT_SMR_1>
-0.17861645

>  <GCUT_SMR_2>
0.15716276

>  <GCUT_SMR_3>
2.8626382

>  <Kier1>
16.371881

>  <Kier2>
8.4444447

>  <Kier3>
5.0578513

>  <KierA1>
12.717896

>  <KierA2>
6.4658046

>  <KierA3>
3.8319783

>  <KierFlex>
4.1115718

>  <lip_acc>
2

>  <lip_don>
0

>  <lip_druglike>
1

>  <lip_violation>
0

>  <logP(o/w)>
4.0780001

>  <logS>
-3.64079

>  <mr>
8.5048294

>  <mutagenic>
0

>  <nmol>
1

>  <opr_brigid>
12

>  <opr_leadlike>
1

>  <opr_nring>
2

>  <opr_nrot>
6

>  <opr_violation>
0

>  <PC+>
0

>  <PC->
0

>  <PEOE_PC+>
1.3411793

>  <PEOE_PC->
-1.3411793

>  <PEOE_RPC+>
0.081220388

>  <PEOE_RPC->
0.27294219

>  <PEOE_VSA+0>
60.111572

>  <PEOE_VSA+1>
66.135925

>  <PEOE_VSA+2>
4.9049287

>  <PEOE_VSA+3>
0

>  <PEOE_VSA+4>
0

>  <PEOE_VSA+5>
0

>  <PEOE_VSA+6>
0

>  <PEOE_VSA-0>
71.850677

>  <PEOE_VSA-1>
110.29414

>  <PEOE_VSA-2>
0

>  <PEOE_VSA-3>
0

>  <PEOE_VSA-4>
0

>  <PEOE_VSA-5>
0

>  <PEOE_VSA-6>
2.503756

>  <PEOE_VSA_FHYD>
0.99207175

>  <PEOE_VSA_FNEG>
0.58469915

>  <PEOE_VSA_FPNEG>
0.0079282718

>  <PEOE_VSA_FPOL>
0.0079282718

>  <PEOE_VSA_FPOS>
0.41530088

>  <PEOE_VSA_FPPOS>
0

>  <PEOE_VSA_HYD>
313.29724

>  <PEOE_VSA_NEG>
184.64856

>  <PEOE_VSA_PNEG>
2.503756

>  <PEOE_VSA_POL>
2.503756

>  <PEOE_VSA_POS>
131.15242

>  <PEOE_VSA_PPOS>
0

>  <petitjean>
0.44444445

>  <petitjeanSC>
0.80000001

>  <Q_PC+>
0

>  <Q_PC->
0

>  <Q_RPC+>
0

>  <Q_RPC->
0

>  <Q_VSA_FHYD>
1

>  <Q_VSA_FNEG>
0

>  <Q_VSA_FPNEG>
0

>  <Q_VSA_FPOL>
0

>  <Q_VSA_FPOS>
1

>  <Q_VSA_FPPOS>
0

>  <Q_VSA_HYD>
315.80099

>  <Q_VSA_NEG>
0

>  <Q_VSA_PNEG>
0

>  <Q_VSA_POL>
0

>  <Q_VSA_POS>
315.80099

>  <Q_VSA_PPOS>
0

>  <radius>
5

>  <reactive>
0

>  <rings>
2

>  <RPC+>
0

>  <RPC->
0

>  <rsynth>
1

>  <SlogP>
3.7581201

>  <SlogP_VSA0>
0

>  <SlogP_VSA1>
3.1243138

>  <SlogP_VSA2>
10.999887

>  <SlogP_VSA3>
39.365837

>  <SlogP_VSA4>
9.5567245

>  <SlogP_VSA5>
65.794373

>  <SlogP_VSA6>
0

>  <SlogP_VSA7>
158.78867

>  <SlogP_VSA8>
6.4686494

>  <SlogP_VSA9>
33.326015

>  <SMR>
8.4081001

>  <SMR_VSA0>
10.999887

>  <SMR_VSA1>
3.1243138

>  <SMR_VSA2>
0

>  <SMR_VSA3>
16.025373

>  <SMR_VSA4>
0

>  <SMR_VSA5>
158.78867

>  <SMR_VSA6>
39.365837

>  <SMR_VSA7>
99.120392

>  <TPSA>
12.47

>  <VAdjEq>
0.48464775

>  <VAdjMa>
5.3923173

>  <VDistEq>
3.0528204

>  <VDistMa>
8.3722095

>  <vdw_area>
315.80099

>  <vdw_vol>
418.98318

>  <vsa_acc>
2.503756

>  <vsa_acid>
0

>  <vsa_base>
0

>  <vsa_don>
0

>  <vsa_hyd>
296.92593

>  <vsa_other>
0

>  <vsa_pol>
2.503756

>  <Weight>
269.388

>  <weinerPath>
825

>  <weinerPol>
27

>  <zagreb>
96

$$$$