Cl[C@@]12[C@H]([C@@H]3C[C@@H](C)[C@](OC(=O)c4occc4)(C(=O)CCl)[C@]3(C[C@@H]1O)C)CCC1=CC(=O)C=C[C@@]12C
  MOE2013           2D

 35 39  0  0  1  0  0  0  0  0999 V2000
    0.0000    0.0000    0.0000 Cl  0  0  0  0  0  0  0  0  0  0  0  0
    1.5000   -0.0010    0.0000 C   0  0  1  0  0  0  0  0  0  0  0  0
    0.7510    1.2980    0.0000 C   0  0  2  0  0  0  0  0  0  0  0  0
   -0.7490    1.3000    0.0000 C   0  0  2  0  0  0  0  0  0  0  0  0
   -1.7520    2.4150    0.0000 C   0  0  0  0  0  0  0  0  0  0  0  0
   -3.1220    1.8060    0.0000 C   0  0  1  0  0  0  0  0  0  0  0  0
   -4.4210    2.5580    0.0000 C   0  0  0  0  0  0  0  0  0  0  0  0
   -2.9670    0.3140    0.0000 C   0  0  2  0  0  0  0  0  0  0  0  0
   -3.4570   -1.1030    0.0000 O   0  0  0  0  0  0  0  0  0  0  0  0
   -2.4730   -2.2360    0.0000 C   0  0  0  0  0  0  0  0  0  0  0  0
   -1.0010   -1.9510    0.0000 O   0  0  0  0  0  0  0  0  0  0  0  0
   -2.9630   -3.6540    0.0000 C   0  0  0  0  0  0  0  0  0  0  0  0
   -4.3980   -4.0910    0.0000 O   0  0  0  0  0  0  0  0  0  0  0  0
   -4.4250   -5.5910    0.0000 C   0  0  0  0  0  0  0  0  0  0  0  0
   -3.0080   -6.0810    0.0000 C   0  0  0  0  0  0  0  0  0  0  0  0
   -2.1040   -4.8840    0.0000 C   0  0  0  0  0  0  0  0  0  0  0  0
   -4.4490    0.0810    0.0000 C   0  0  0  0  0  0  0  0  0  0  0  0
   -4.9870   -1.3190    0.0000 O   0  0  0  0  0  0  0  0  0  0  0  0
   -5.3920    1.2480    0.0000 C   0  0  0  0  0  0  0  0  0  0  0  0
   -6.8730    1.0140    0.0000 Cl  0  0  0  0  0  0  0  0  0  0  0  0
   -1.5000    0.0010    0.0000 C   0  0  1  0  0  0  0  0  0  0  0  0
   -0.7510   -1.2980    0.0000 C   0  0  0  0  0  0  0  0  0  0  0  0
    0.7490   -1.3000    0.0000 C   0  0  2  0  0  0  0  0  0  0  0  0
    1.4980   -2.5990    0.0000 O   0  0  0  0  0  0  0  0  0  0  0  0
   -2.3610   -1.2270    0.0000 C   0  0  0  0  0  0  0  0  0  0  0  0
    1.5020    2.5970    0.0000 C   0  0  0  0  0  0  0  0  0  0  0  0
    3.0020    2.5950    0.0000 C   0  0  0  0  0  0  0  0  0  0  0  0
    3.7510    1.2960    0.0000 C   0  0  0  0  0  0  0  0  0  0  0  0
    5.2510    1.2940    0.0000 C   0  0  0  0  0  0  0  0  0  0  0  0
    6.0000   -0.0050    0.0000 C   0  0  0  0  0  0  0  0  0  0  0  0
    7.5000   -0.0070    0.0000 O   0  0  0  0  0  0  0  0  0  0  0  0
    5.2490   -1.3040    0.0000 C   0  0  0  0  0  0  0  0  0  0  0  0
    3.7490   -1.3020    0.0000 C   0  0  0  0  0  0  0  0  0  0  0  0
    3.0000   -0.0030    0.0000 C   0  0  2  0  0  0  0  0  0  0  0  0
    2.2490   -1.3010    0.0000 C   0  0  0  0  0  0  0  0  0  0  0  0
  2  1  1  6  0  0  0
  2  3  1  0  0  0  0
  2 23  1  0  0  0  0
  2 34  1  0  0  0  0
  3  4  1  0  0  0  0
  3 26  1  6  0  0  0
  4  5  1  1  0  0  0
  4 21  1  0  0  0  0
  5  6  1  0  0  0  0
  6  7  1  6  0  0  0
  6  8  1  0  0  0  0
  8  9  1  6  0  0  0
  8 17  1  1  0  0  0
  8 21  1  0  0  0  0
  9 10  1  0  0  0  0
 10 11  2  0  0  0  0
 10 12  1  0  0  0  0
 12 13  1  0  0  0  0
 12 16  2  0  0  0  0
 13 14  1  0  0  0  0
 14 15  2  0  0  0  0
 15 16  1  0  0  0  0
 17 18  2  0  0  0  0
 17 19  1  0  0  0  0
 19 20  1  0  0  0  0
 21 22  1  0  0  0  0
 21 25  1  1  0  0  0
 22 23  1  0  0  0  0
 23 24  1  1  0  0  0
 26 27  1  0  0  0  0
 27 28  1  0  0  0  0
 28 29  2  0  0  0  0
 28 34  1  0  0  0  0
 29 30  1  0  0  0  0
 30 31  2  0  0  0  0
 30 32  1  0  0  0  0
 32 33  2  0  0  0  0
 33 34  1  0  0  0  0
 34 35  1  1  0  0  0
M  END
>  <Index>
728

>  <ID>
HT1428

>  <class>
0

>  <apol>
76.695793

>  <ast_fraglike>
0

>  <ast_fraglike_ext>
0

>  <ast_violation>
3

>  <ast_violation_ext>
4

>  <a_acc>
4

>  <a_acid>
0

>  <a_aro>
5

>  <a_base>
0

>  <a_count>
65

>  <a_don>
1

>  <a_donacc>
5

>  <a_heavy>
35

>  <a_hyd>
24

>  <a_IC>
98.355453

>  <a_ICM>
1.5131608

>  <a_nB>
0

>  <a_nBr>
0

>  <a_nC>
27

>  <a_nCl>
2

>  <a_nF>
0

>  <a_nH>
30

>  <a_nI>
0

>  <a_nN>
0

>  <a_nO>
6

>  <a_nP>
0

>  <a_nS>
0

>  <balabanJ>
1.5392905

>  <BCUT_PEOE_0>
-2.9078791

>  <BCUT_PEOE_1>
-0.51491362

>  <BCUT_PEOE_2>
0.48196635

>  <BCUT_PEOE_3>
2.9956677

>  <BCUT_SLOGP_0>
-2.9183207

>  <BCUT_SLOGP_1>
-0.43854231

>  <BCUT_SLOGP_2>
0.53413999

>  <BCUT_SLOGP_3>
3.0023255

>  <BCUT_SMR_0>
-2.6656873

>  <BCUT_SMR_1>
-0.3192482

>  <BCUT_SMR_2>
0.66844243

>  <BCUT_SMR_3>
3.232408

>  <bpol>
40.342209

>  <b_1rotN>
4

>  <b_1rotR>
0.1025641

>  <b_ar>
5

>  <b_count>
69

>  <b_double>
5

>  <b_heavy>
39

>  <b_max1len>
4

>  <b_rotN>
5

>  <b_rotR>
0.12820514

>  <b_single>
59

>  <b_triple>
0

>  <chi0>
25.38854

>  <chi0v>
21.565279

>  <chi0v_C>
16.809036

>  <chi0_C>
17.974327

>  <chi1>
16.452215

>  <chi1v>
13.039789

>  <chi1v_C>
9.9524136

>  <chi1_C>
11.265657

>  <chiral>
8

>  <chiral_u>
0

>  <density>
0.80756557

>  <diameter>
14

>  <FCharge>
0

>  <GCUT_PEOE_0>
-0.82790482

>  <GCUT_PEOE_1>
-0.39650735

>  <GCUT_PEOE_2>
0.012280871

>  <GCUT_PEOE_3>
3.4224272

>  <GCUT_SLOGP_0>
-0.9296363

>  <GCUT_SLOGP_1>
-0.29886138

>  <GCUT_SLOGP_2>
0.083755337

>  <GCUT_SLOGP_3>
3.4588535

>  <GCUT_SMR_0>
-0.53785908

>  <GCUT_SMR_1>
-0.21126524

>  <GCUT_SMR_2>
0.19057196

>  <GCUT_SMR_3>
3.653012

>  <Kier1>
26.60092

>  <Kier2>
9.0395508

>  <Kier3>
3.4816

>  <KierA1>
24.281376

>  <KierA2>
8.2284012

>  <KierA3>
3.1628172

>  <KierFlex>
5.7084827

>  <lip_acc>
6

>  <lip_don>
1

>  <lip_druglike>
1

>  <lip_violation>
1

>  <logP(o/w)>
4.8039999

>  <logS>
-6.71872

>  <mr>
13.26704

>  <mutagenic>
1

>  <nmol>
1

>  <opr_brigid>
25

>  <opr_leadlike>
0

>  <opr_nring>
5

>  <opr_nrot>
4

>  <opr_violation>
3

>  <PC+>
0

>  <PC->
0

>  <PEOE_PC+>
2.7485116

>  <PEOE_PC->
-2.7485116

>  <PEOE_RPC+>
0.12015848

>  <PEOE_RPC->
0.1664606

>  <PEOE_VSA+0>
85.307716

>  <PEOE_VSA+1>
68.545418

>  <PEOE_VSA+2>
4.2653861

>  <PEOE_VSA+3>
25.375559

>  <PEOE_VSA+4>
10.324173

>  <PEOE_VSA+5>
0

>  <PEOE_VSA+6>
14.708499

>  <PEOE_VSA-0>
83.824867

>  <PEOE_VSA-1>
70.706474

>  <PEOE_VSA-2>
59.163895

>  <PEOE_VSA-3>
0

>  <PEOE_VSA-4>
0

>  <PEOE_VSA-5>
43.204517

>  <PEOE_VSA-6>
10.271297

>  <PEOE_VSA_FHYD>
0.83496141

>  <PEOE_VSA_FNEG>
0.56164026

>  <PEOE_VSA_FPNEG>
0.11241551

>  <PEOE_VSA_FPOL>
0.16503857

>  <PEOE_VSA_FPOS>
0.43835971

>  <PEOE_VSA_FPPOS>
0.052623056

>  <PEOE_VSA_HYD>
397.18933

>  <PEOE_VSA_NEG>
267.17105

>  <PEOE_VSA_PNEG>
53.475815

>  <PEOE_VSA_POL>
78.508484

>  <PEOE_VSA_POS>
208.52676

>  <PEOE_VSA_PPOS>
25.032671

>  <petitjean>
0.5

>  <petitjeanSC>
1

>  <Q_PC+>
0

>  <Q_PC->
0

>  <Q_RPC+>
0

>  <Q_RPC->
0

>  <Q_VSA_FHYD>
1

>  <Q_VSA_FNEG>
0

>  <Q_VSA_FPNEG>
0

>  <Q_VSA_FPOL>
0

>  <Q_VSA_FPOS>
1

>  <Q_VSA_FPPOS>
0

>  <Q_VSA_HYD>
475.69781

>  <Q_VSA_NEG>
0

>  <Q_VSA_PNEG>
0

>  <Q_VSA_POL>
0

>  <Q_VSA_POS>
475.69781

>  <Q_VSA_PPOS>
0

>  <radius>
7

>  <reactive>
1

>  <rings>
5

>  <RPC+>
0

>  <RPC->
0

>  <rsynth>
0.42857143

>  <SlogP>
4.8692002

>  <SlogP_VSA0>
25.385227

>  <SlogP_VSA1>
19.120686

>  <SlogP_VSA2>
65.19297

>  <SlogP_VSA3>
19.183437

>  <SlogP_VSA4>
42.543427

>  <SlogP_VSA5>
12.692922

>  <SlogP_VSA6>
0

>  <SlogP_VSA7>
108.12235

>  <SlogP_VSA8>
75.473625

>  <SlogP_VSA9>
178.27533

>  <SMR>
13.02283

>  <SMR_VSA0>
92.09388

>  <SMR_VSA1>
25.385227

>  <SMR_VSA2>
13.232388

>  <SMR_VSA3>
15.103045

>  <SMR_VSA4>
0

>  <SMR_VSA5>
183.59598

>  <SMR_VSA6>
38.304123

>  <SMR_VSA7>
178.27533

>  <TPSA>
93.809998

>  <VAdjEq>
0.34185782

>  <VAdjMa>
6.2854023

>  <VDistEq>
3.4397137

>  <VDistMa>
10.006149

>  <vdw_area>
475.69781

>  <vdw_vol>
645.69

>  <vsa_acc>
40.700764

>  <vsa_acid>
0

>  <vsa_base>
0

>  <vsa_don>
0

>  <vsa_hyd>
325.07806

>  <vsa_other>
67.150047

>  <vsa_pol>
54.267685

>  <Weight>
521.43701

>  <weinerPath>
3148

>  <weinerPol>
81

>  <zagreb>
206

$$$$