OCc1cc2CCC(Nc2cc1[N+](=O)[O-])CNC(C)C
  MOE2013           2D

 20 21  0  0  1  0  0  0  0  0999 V2000
    0.0000    0.0000    0.0000 O   0  0  0  0  0  0  0  0  0  0  0  0
    0.7510   -1.2990    0.0000 C   0  0  0  0  0  0  0  0  0  0  0  0
    2.2510   -1.2980    0.0000 C   0  0  0  0  0  0  0  0  0  0  0  0
    3.0000    0.0020    0.0000 C   0  0  0  0  0  0  0  0  0  0  0  0
    4.5000    0.0030    0.0000 C   0  0  0  0  0  0  0  0  0  0  0  0
    5.2490    1.3020    0.0000 C   0  0  0  0  0  0  0  0  0  0  0  0
    6.7490    1.3030    0.0000 C   0  0  0  0  0  0  0  0  0  0  0  0
    7.5000    0.0050    0.0000 C   0  0  3  0  0  0  0  0  0  0  0  0
    6.7510   -1.2950    0.0000 N   0  0  0  0  0  0  0  0  0  0  0  0
    5.2510   -1.2960    0.0000 C   0  0  0  0  0  0  0  0  0  0  0  0
    4.5020   -2.5950    0.0000 C   0  0  0  0  0  0  0  0  0  0  0  0
    3.0020   -2.5960    0.0000 C   0  0  0  0  0  0  0  0  0  0  0  0
    2.2520   -3.8960    0.0000 N   0  3  0  0  0  0  0  0  0  0  0  0
    0.7520   -3.8970    0.0000 O   0  0  0  0  0  0  0  0  0  0  0  0
    3.0030   -5.1940    0.0000 O   0  5  0  0  0  0  0  0  0  0  0  0
    9.0000    0.0060    0.0000 C   0  0  0  0  0  0  0  0  0  0  0  0
    9.7490    1.3050    0.0000 N   0  0  0  0  0  0  0  0  0  0  0  0
   11.2490    1.3060    0.0000 C   0  0  0  0  0  0  0  0  0  0  0  0
   12.0000    0.0080    0.0000 C   0  0  0  0  0  0  0  0  0  0  0  0
   11.9980    2.6060    0.0000 C   0  0  0  0  0  0  0  0  0  0  0  0
  1  2  1  0  0  0  0
  2  3  1  0  0  0  0
  3  4  1  0  0  0  0
  3 12  2  0  0  0  0
  4  5  2  0  0  0  0
  5  6  1  0  0  0  0
  5 10  1  0  0  0  0
  6  7  1  0  0  0  0
  7  8  1  0  0  0  0
  8  9  1  0  0  0  0
  8 16  1  0  0  0  0
  9 10  1  0  0  0  0
 10 11  2  0  0  0  0
 11 12  1  0  0  0  0
 12 13  1  0  0  0  0
 13 14  2  0  0  0  0
 13 15  1  0  0  0  0
 16 17  1  0  0  0  0
 17 18  1  0  0  0  0
 18 19  1  0  0  0  0
 18 20  1  0  0  0  0
M  CHG  1  13   1
M  CHG  1  15  -1
M  END
>  <Index>
795

>  <ID>
HT1552

>  <class>
0

>  <apol>
44.348652

>  <ast_fraglike>
1

>  <ast_fraglike_ext>
0

>  <ast_violation>
0

>  <ast_violation_ext>
1

>  <a_acc>
2

>  <a_acid>
0

>  <a_aro>
6

>  <a_base>
0

>  <a_count>
41

>  <a_don>
3

>  <a_donacc>
5

>  <a_heavy>
20

>  <a_hyd>
15

>  <a_IC>
64.608223

>  <a_ICM>
1.5758103

>  <a_nB>
0

>  <a_nBr>
0

>  <a_nC>
14

>  <a_nCl>
0

>  <a_nF>
0

>  <a_nH>
21

>  <a_nI>
0

>  <a_nN>
3

>  <a_nO>
3

>  <a_nP>
0

>  <a_nS>
0

>  <balabanJ>
1.9099444

>  <BCUT_PEOE_0>
-2.7236574

>  <BCUT_PEOE_1>
-0.45834103

>  <BCUT_PEOE_2>
0.52997321

>  <BCUT_PEOE_3>
2.6548743

>  <BCUT_SLOGP_0>
-2.8335681

>  <BCUT_SLOGP_1>
-0.40307784

>  <BCUT_SLOGP_2>
0.57789385

>  <BCUT_SLOGP_3>
2.6561718

>  <BCUT_SMR_0>
-2.4424789

>  <BCUT_SMR_1>
-0.31740788

>  <BCUT_SMR_2>
0.66359895

>  <BCUT_SMR_3>
2.933507

>  <bpol>
25.533346

>  <b_1rotN>
5

>  <b_1rotR>
0.23809524

>  <b_ar>
6

>  <b_count>
42

>  <b_double>
1

>  <b_heavy>
21

>  <b_max1len>
6

>  <b_rotN>
5

>  <b_rotR>
0.23809524

>  <b_single>
35

>  <b_triple>
0

>  <chi0>
14.698306

>  <chi0v>
11.848752

>  <chi0v_C>
9.1378279

>  <chi0_C>
9.7067423

>  <chi1>
9.5072393

>  <chi1v>
6.918891

>  <chi1v_C>
4.8330045

>  <chi1_C>
5.5873537

>  <chiral>
1

>  <chiral_u>
1

>  <density>
0.74410146

>  <diameter>
11

>  <FCharge>
0

>  <GCUT_PEOE_0>
-0.84854889

>  <GCUT_PEOE_1>
-0.39196694

>  <GCUT_PEOE_2>
0.052917507

>  <GCUT_PEOE_3>
2.6914773

>  <GCUT_SLOGP_0>
-1.1534264

>  <GCUT_SLOGP_1>
-0.3069087

>  <GCUT_SLOGP_2>
0.11176886

>  <GCUT_SLOGP_3>
2.7452857

>  <GCUT_SMR_0>
-0.52179015

>  <GCUT_SMR_1>
-0.18648612

>  <GCUT_SMR_2>
0.16951635

>  <GCUT_SMR_3>
2.9437153

>  <Kier1>
16.371881

>  <Kier2>
7.3198571

>  <Kier3>
4.25

>  <KierA1>
13.30676

>  <KierA2>
5.8799748

>  <KierA3>
3.3847303

>  <KierFlex>
3.9121706

>  <lip_acc>
6

>  <lip_don>
3

>  <lip_druglike>
1

>  <lip_violation>
0

>  <logP(o/w)>
1.919

>  <logS>
-2.5495901

>  <mr>
7.5525603

>  <mutagenic>
1

>  <nmol>
1

>  <opr_brigid>
11

>  <opr_leadlike>
1

>  <opr_nring>
2

>  <opr_nrot>
6

>  <opr_violation>
0

>  <PC+>
0

>  <PC->
0

>  <PEOE_PC+>
1.7331619

>  <PEOE_PC->
-1.7331619

>  <PEOE_RPC+>
0.16036819

>  <PEOE_RPC->
0.22513212

>  <PEOE_VSA+0>
98.154106

>  <PEOE_VSA+1>
38.249413

>  <PEOE_VSA+2>
17.238026

>  <PEOE_VSA+3>
0

>  <PEOE_VSA+4>
10.324173

>  <PEOE_VSA+5>
6.6995511

>  <PEOE_VSA+6>
0

>  <PEOE_VSA-0>
69.361427

>  <PEOE_VSA-1>
0

>  <PEOE_VSA-2>
0

>  <PEOE_VSA-3>
0

>  <PEOE_VSA-4>
0

>  <PEOE_VSA-5>
34.06794

>  <PEOE_VSA-6>
7.9044313

>  <PEOE_VSA_FHYD>
0.7907933

>  <PEOE_VSA_FNEG>
0.394802

>  <PEOE_VSA_FPNEG>
0.14883868

>  <PEOE_VSA_FPOL>
0.2092067

>  <PEOE_VSA_FPOS>
0.60519797

>  <PEOE_VSA_FPPOS>
0.060368016

>  <PEOE_VSA_HYD>
223.00296

>  <PEOE_VSA_NEG>
111.33379

>  <PEOE_VSA_PNEG>
41.97237

>  <PEOE_VSA_POL>
58.996094

>  <PEOE_VSA_POS>
170.66527

>  <PEOE_VSA_PPOS>
17.023724

>  <petitjean>
0.45454547

>  <petitjeanSC>
0.83333331

>  <Q_PC+>
0

>  <Q_PC->
0

>  <Q_RPC+>
0

>  <Q_RPC->
0

>  <Q_VSA_FHYD>
1

>  <Q_VSA_FNEG>
0

>  <Q_VSA_FPNEG>
0

>  <Q_VSA_FPOL>
0

>  <Q_VSA_FPOS>
1

>  <Q_VSA_FPPOS>
0

>  <Q_VSA_HYD>
281.99905

>  <Q_VSA_NEG>
0

>  <Q_VSA_PNEG>
0

>  <Q_VSA_POL>
0

>  <Q_VSA_POS>
281.99905

>  <Q_VSA_PPOS>
0

>  <radius>
6

>  <reactive>
1

>  <rings>
2

>  <RPC+>
0

>  <RPC->
0

>  <rsynth>
0.25

>  <SlogP>
2.0781701

>  <SlogP_VSA0>
43.395977

>  <SlogP_VSA1>
25.096367

>  <SlogP_VSA2>
7.9639373

>  <SlogP_VSA3>
69.374588

>  <SlogP_VSA4>
6.37115

>  <SlogP_VSA5>
18.868406

>  <SlogP_VSA6>
0

>  <SlogP_VSA7>
35.286369

>  <SlogP_VSA8>
18.868406

>  <SlogP_VSA9>
93.091782

>  <SMR>
7.8094602

>  <SMR_VSA0>
7.0856161

>  <SMR_VSA1>
25.385227

>  <SMR_VSA2>
68.945755

>  <SMR_VSA3>
14.335087

>  <SMR_VSA4>
23.524246

>  <SMR_VSA5>
93.94944

>  <SMR_VSA6>
18.439579

>  <SMR_VSA7>
66.652031

>  <TPSA>
90.110001

>  <VAdjEq>
0.48464775

>  <VAdjMa>
5.3923173

>  <VDistEq>
3.2225909

>  <VDistMa>
8.3337135

>  <vdw_area>
281.99905

>  <vdw_vol>
375.40579

>  <vsa_acc>
0

>  <vsa_acid>
0

>  <vsa_base>
0

>  <vsa_don>
5.6825762

>  <vsa_hyd>
199.65218

>  <vsa_other>
33.931049

>  <vsa_pol>
24.932074

>  <Weight>
279.34

>  <weinerPath>
847

>  <weinerPol>
30

>  <zagreb>
100

$$$$