O1[C@@H]2[C@]34CCN(C(Cc5c3c1c(O)cc5)[C@]4(O)CCC2=O)CC1CC1
  MOE2013           2D

 25 30  0  0  1  0  0  0  0  0999 V2000
    0.0000    0.0000    0.0000 O   0  0  0  0  0  0  0  0  0  0  0  0
    1.2820   -1.2230    0.0000 C   0  0  2  0  0  0  0  0  0  0  0  0
    2.3880   -0.3220    0.0000 C   0  0  2  0  0  0  0  0  0  0  0  0
    3.2310    0.8670    0.0000 C   0  0  0  0  0  0  0  0  0  0  0  0
    5.3740    1.0680    0.0000 C   0  0  0  0  0  0  0  0  0  0  0  0
    6.2870   -0.0460    0.0000 N   0  0  3  0  0  0  0  0  0  0  0  0
    4.8470    0.0810    0.0000 C   0  0  3  0  0  0  0  0  0  0  0  0
    4.6060    1.4970    0.0000 C   0  0  0  0  0  0  0  0  0  0  0  0
    3.2590    2.0070    0.0000 C   0  0  0  0  0  0  0  0  0  0  0  0
    2.1520    1.0980    0.0000 C   0  0  0  0  0  0  0  0  0  0  0  0
    0.8120    1.5970    0.0000 C   0  0  0  0  0  0  0  0  0  0  0  0
    0.5810    3.0150    0.0000 C   0  0  0  0  0  0  0  0  0  0  0  0
   -0.8220    3.5450    0.0000 O   0  0  0  0  0  0  0  0  0  0  0  0
    1.6880    3.9230    0.0000 C   0  0  0  0  0  0  0  0  0  0  0  0
    3.0280    3.4130    0.0000 C   0  0  0  0  0  0  0  0  0  0  0  0
    3.7290   -0.8330    0.0000 C   0  0  1  0  0  0  0  0  0  0  0  0
    5.1350   -1.3570    0.0000 O   0  0  0  0  0  0  0  0  0  0  0  0
    3.9640   -2.2430    0.0000 C   0  0  0  0  0  0  0  0  0  0  0  0
    2.8490   -3.1480    0.0000 C   0  0  0  0  0  0  0  0  0  0  0  0
    1.5080   -2.6380    0.0000 C   0  0  0  0  0  0  0  0  0  0  0  0
    0.3440   -3.5840    0.0000 O   0  0  0  0  0  0  0  0  0  0  0  0
    7.6130   -0.7470    0.0000 C   0  0  0  0  0  0  0  0  0  0  0  0
    8.8830    0.0520    0.0000 C   0  0  0  0  0  0  0  0  0  0  0  0
   10.3820    0.1080    0.0000 C   0  0  0  0  0  0  0  0  0  0  0  0
    9.5840    1.3780    0.0000 C   0  0  0  0  0  0  0  0  0  0  0  0
  1 11  1  0  0  0  0
  2  1  1  6  0  0  0
  2  3  1  0  0  0  0
  2 20  1  0  0  0  0
  3  4  1  1  0  0  0
  3 10  1  0  0  0  0
  3 16  1  0  0  0  0
  4  5  1  0  0  0  0
  5  6  1  0  0  0  0
  6  7  1  0  0  0  0
  6 22  1  0  0  0  0
  7  8  1  0  0  0  0
  7 16  1  0  0  0  0
  8  9  1  0  0  0  0
  9 10  1  0  0  0  0
  9 15  2  0  0  0  0
 10 11  2  0  0  0  0
 11 12  1  0  0  0  0
 12 13  1  0  0  0  0
 12 14  2  0  0  0  0
 14 15  1  0  0  0  0
 16 17  1  1  0  0  0
 16 18  1  0  0  0  0
 18 19  1  0  0  0  0
 19 20  1  0  0  0  0
 20 21  2  0  0  0  0
 22 23  1  0  0  0  0
 23 24  1  0  0  0  0
 23 25  1  0  0  0  0
 24 25  1  0  0  0  0
M  END
>  <Index>
747

>  <ID>
HT1460

>  <class>
0

>  <apol>
54.844238

>  <ast_fraglike>
0

>  <ast_fraglike_ext>
0

>  <ast_violation>
2

>  <ast_violation_ext>
2

>  <a_acc>
5

>  <a_acid>
0

>  <a_aro>
6

>  <a_base>
0

>  <a_count>
48

>  <a_don>
2

>  <a_donacc>
7

>  <a_heavy>
25

>  <a_hyd>
19

>  <a_IC>
69.59771

>  <a_ICM>
1.4499524

>  <a_nB>
0

>  <a_nBr>
0

>  <a_nC>
20

>  <a_nCl>
0

>  <a_nF>
0

>  <a_nH>
23

>  <a_nI>
0

>  <a_nN>
1

>  <a_nO>
4

>  <a_nP>
0

>  <a_nS>
0

>  <balabanJ>
1.4639477

>  <BCUT_PEOE_0>
-2.8909783

>  <BCUT_PEOE_1>
-0.57663077

>  <BCUT_PEOE_2>
0.64851528

>  <BCUT_PEOE_3>
2.9412332

>  <BCUT_SLOGP_0>
-2.994962

>  <BCUT_SLOGP_1>
-0.5060091

>  <BCUT_SLOGP_2>
0.69153374

>  <BCUT_SLOGP_3>
2.9016869

>  <BCUT_SMR_0>
-2.6466002

>  <BCUT_SMR_1>
-0.41636682

>  <BCUT_SMR_2>
0.80216753

>  <BCUT_SMR_3>
3.181752

>  <bpol>
29.997761

>  <b_1rotN>
2

>  <b_1rotR>
0.06666667

>  <b_ar>
6

>  <b_count>
53

>  <b_double>
1

>  <b_heavy>
30

>  <b_max1len>
3

>  <b_rotN>
2

>  <b_rotR>
0.06666667

>  <b_single>
46

>  <b_triple>
0

>  <chi0>
16.974327

>  <chi0v>
14.201743

>  <chi0v_C>
12.043606

>  <chi0_C>
12.68987

>  <chi1>
12.043479

>  <chi1v>
9.5557346

>  <chi1v_C>
7.573916

>  <chi1_C>
8.422452

>  <chiral>
4

>  <chiral_u>
1

>  <density>
0.76175362

>  <diameter>
10

>  <FCharge>
0

>  <GCUT_PEOE_0>
-0.84926021

>  <GCUT_PEOE_1>
-0.42015308

>  <GCUT_PEOE_2>
0.043012246

>  <GCUT_PEOE_3>
3.2018065

>  <GCUT_SLOGP_0>
-0.96423674

>  <GCUT_SLOGP_1>
-0.35835344

>  <GCUT_SLOGP_2>
0.074897088

>  <GCUT_SLOGP_3>
3.2016947

>  <GCUT_SMR_0>
-0.52135098

>  <GCUT_SMR_1>
-0.24363609

>  <GCUT_SMR_2>
0.2058091

>  <GCUT_SMR_3>
3.4386008

>  <Kier1>
16

>  <Kier2>
5.0784001

>  <Kier3>
1.7704618

>  <KierA1>
13.962008

>  <KierA2>
4.4050994

>  <KierA3>
1.5288608

>  <KierFlex>
2.4601614

>  <lip_acc>
5

>  <lip_don>
2

>  <lip_druglike>
1

>  <lip_violation>
0

>  <logP(o/w)>
1.318

>  <logS>
-2.42872

>  <mr>
9.0238276

>  <mutagenic>
0

>  <nmol>
1

>  <opr_brigid>
25

>  <opr_leadlike>
1

>  <opr_nring>
6

>  <opr_nrot>
2

>  <opr_violation>
1

>  <PC+>
0

>  <PC->
0

>  <PEOE_PC+>
1.9625125

>  <PEOE_PC->
-1.9625125

>  <PEOE_RPC+>
0.11078745

>  <PEOE_RPC->
0.19669704

>  <PEOE_VSA+0>
117.21741

>  <PEOE_VSA+1>
12.796158

>  <PEOE_VSA+2>
21.821968

>  <PEOE_VSA+3>
8.458519

>  <PEOE_VSA+4>
20.648346

>  <PEOE_VSA+5>
0

>  <PEOE_VSA+6>
0

>  <PEOE_VSA-0>
57.970009

>  <PEOE_VSA-1>
12.254904

>  <PEOE_VSA-2>
0

>  <PEOE_VSA-3>
0

>  <PEOE_VSA-4>
0

>  <PEOE_VSA-5>
13.566921

>  <PEOE_VSA-6>
18.038837

>  <PEOE_VSA_FHYD>
0.81520838

>  <PEOE_VSA_FNEG>
0.36011446

>  <PEOE_VSA_FPNEG>
0.11177075

>  <PEOE_VSA_FPOL>
0.18479165

>  <PEOE_VSA_FPOS>
0.63988554

>  <PEOE_VSA_FPPOS>
0.073020905

>  <PEOE_VSA_HYD>
230.51897

>  <PEOE_VSA_NEG>
101.83067

>  <PEOE_VSA_PNEG>
31.605757

>  <PEOE_VSA_POL>
52.254105

>  <PEOE_VSA_POS>
180.9424

>  <PEOE_VSA_PPOS>
20.648346

>  <petitjean>
0.5

>  <petitjeanSC>
1

>  <Q_PC+>
0

>  <Q_PC->
0

>  <Q_RPC+>
0

>  <Q_RPC->
0

>  <Q_VSA_FHYD>
1

>  <Q_VSA_FNEG>
0

>  <Q_VSA_FPNEG>
0

>  <Q_VSA_FPOL>
0

>  <Q_VSA_FPOS>
1

>  <Q_VSA_FPPOS>
0

>  <Q_VSA_HYD>
282.77307

>  <Q_VSA_NEG>
0

>  <Q_VSA_PNEG>
0

>  <Q_VSA_POL>
0

>  <Q_VSA_POS>
282.77307

>  <Q_VSA_PPOS>
0

>  <radius>
5

>  <reactive>
1

>  <rings>
6

>  <RPC+>
0

>  <RPC->
0

>  <rsynth>
1

>  <SlogP>
1.52537

>  <SlogP_VSA0>
61.77034

>  <SlogP_VSA1>
8.8119249

>  <SlogP_VSA2>
34.312836

>  <SlogP_VSA3>
36.879158

>  <SlogP_VSA4>
10.781946

>  <SlogP_VSA5>
18.868406

>  <SlogP_VSA6>
0

>  <SlogP_VSA7>
35.286369

>  <SlogP_VSA8>
94.342026

>  <SlogP_VSA9>
10.486856

>  <SMR>
8.9797602

>  <SMR_VSA0>
23.862217

>  <SMR_VSA1>
64.894653

>  <SMR_VSA2>
4.4107962

>  <SMR_VSA3>
27.308624

>  <SMR_VSA4>
0

>  <SMR_VSA5>
148.4968

>  <SMR_VSA6>
42.566769

>  <SMR_VSA7>
0

>  <TPSA>
70

>  <VAdjEq>
0.45618612

>  <VAdjMa>
5.9068904

>  <VDistEq>
2.9469283

>  <VDistMa>
9.0436964

>  <vdw_area>
282.77307

>  <vdw_vol>
448.18558

>  <vsa_acc>
16.070677

>  <vsa_acid>
0

>  <vsa_base>
0

>  <vsa_don>
0

>  <vsa_hyd>
205.7677

>  <vsa_other>
8.458519

>  <vsa_pol>
43.204517

>  <Weight>
341.40698

>  <weinerPath>
1189

>  <weinerPol>
59

>  <zagreb>
160

$$$$