O1CCCC1CC(Cc1c2c(ccc1)cccc2)C(OCCN(CC)CC)=O
  MOE2013           2D

 28 30  0  0  1  0  0  0  0  0999 V2000
    0.0000    0.0000    0.0000 O   0  0  0  0  0  0  0  0  0  0  0  0
    0.3370    1.4620    0.0000 C   0  0  0  0  0  0  0  0  0  0  0  0
   -0.9480    2.2340    0.0000 C   0  0  0  0  0  0  0  0  0  0  0  0
   -2.0800    1.2500    0.0000 C   0  0  0  0  0  0  0  0  0  0  0  0
   -1.4940   -0.1310    0.0000 C   0  0  3  0  0  0  0  0  0  0  0  0
   -2.2670   -1.4170    0.0000 C   0  0  0  0  0  0  0  0  0  0  0  0
   -1.5400   -2.7280    0.0000 C   0  0  3  0  0  0  0  0  0  0  0  0
   -2.3120   -4.0140    0.0000 C   0  0  0  0  0  0  0  0  0  0  0  0
   -3.8120   -3.9880    0.0000 C   0  0  0  0  0  0  0  0  0  0  0  0
   -4.5840   -5.2740    0.0000 C   0  0  0  0  0  0  0  0  0  0  0  0
   -6.0840   -5.2480    0.0000 C   0  0  0  0  0  0  0  0  0  0  0  0
   -6.8110   -3.9360    0.0000 C   0  0  0  0  0  0  0  0  0  0  0  0
   -6.0390   -2.6500    0.0000 C   0  0  0  0  0  0  0  0  0  0  0  0
   -4.5390   -2.6760    0.0000 C   0  0  0  0  0  0  0  0  0  0  0  0
   -6.8570   -6.5330    0.0000 C   0  0  0  0  0  0  0  0  0  0  0  0
   -6.1290   -7.8450    0.0000 C   0  0  0  0  0  0  0  0  0  0  0  0
   -4.6300   -7.8720    0.0000 C   0  0  0  0  0  0  0  0  0  0  0  0
   -3.8570   -6.5860    0.0000 C   0  0  0  0  0  0  0  0  0  0  0  0
   -0.0400   -2.7550    0.0000 C   0  0  0  0  0  0  0  0  0  0  0  0
    0.6870   -4.0670    0.0000 O   0  0  0  0  0  0  0  0  0  0  0  0
    2.1870   -4.0930    0.0000 C   0  0  0  0  0  0  0  0  0  0  0  0
    2.9140   -5.4050    0.0000 C   0  0  0  0  0  0  0  0  0  0  0  0
    4.4140   -5.4310    0.0000 N   0  0  0  0  0  0  0  0  0  0  0  0
    5.1870   -4.1450    0.0000 C   0  0  0  0  0  0  0  0  0  0  0  0
    6.6870   -4.1710    0.0000 C   0  0  0  0  0  0  0  0  0  0  0  0
    5.1410   -6.7430    0.0000 C   0  0  0  0  0  0  0  0  0  0  0  0
    4.3690   -8.0280    0.0000 C   0  0  0  0  0  0  0  0  0  0  0  0
    0.7330   -1.4690    0.0000 O   0  0  0  0  0  0  0  0  0  0  0  0
  1  2  1  0  0  0  0
  1  5  1  0  0  0  0
  2  3  1  0  0  0  0
  3  4  1  0  0  0  0
  4  5  1  0  0  0  0
  5  6  1  0  0  0  0
  6  7  1  0  0  0  0
  7  8  1  0  0  0  0
  7 19  1  0  0  0  0
  8  9  1  0  0  0  0
  9 10  1  0  0  0  0
  9 14  2  0  0  0  0
 10 11  1  0  0  0  0
 10 18  2  0  0  0  0
 11 12  1  0  0  0  0
 11 15  2  0  0  0  0
 12 13  2  0  0  0  0
 13 14  1  0  0  0  0
 15 16  1  0  0  0  0
 16 17  2  0  0  0  0
 17 18  1  0  0  0  0
 19 20  1  0  0  0  0
 19 28  2  0  0  0  0
 20 21  1  0  0  0  0
 21 22  1  0  0  0  0
 22 23  1  0  0  0  0
 23 24  1  0  0  0  0
 23 26  1  0  0  0  0
 24 25  1  0  0  0  0
 26 27  1  0  0  0  0
M  END
>  <Index>
741

>  <ID>
HT1453

>  <class>
0

>  <apol>
67.750168

>  <ast_fraglike>
0

>  <ast_fraglike_ext>
0

>  <ast_violation>
2

>  <ast_violation_ext>
3

>  <a_acc>
3

>  <a_acid>
0

>  <a_aro>
10

>  <a_base>
0

>  <a_count>
61

>  <a_don>
0

>  <a_donacc>
3

>  <a_heavy>
28

>  <a_hyd>
23

>  <a_IC>
80.515984

>  <a_ICM>
1.3199341

>  <a_nB>
0

>  <a_nBr>
0

>  <a_nC>
24

>  <a_nCl>
0

>  <a_nF>
0

>  <a_nH>
33

>  <a_nI>
0

>  <a_nN>
1

>  <a_nO>
3

>  <a_nP>
0

>  <a_nS>
0

>  <balabanJ>
1.5572855

>  <BCUT_PEOE_0>
-2.6745806

>  <BCUT_PEOE_1>
-0.53449905

>  <BCUT_PEOE_2>
0.5526973

>  <BCUT_PEOE_3>
2.735028

>  <BCUT_SLOGP_0>
-2.7511284

>  <BCUT_SLOGP_1>
-0.43262577

>  <BCUT_SLOGP_2>
0.60923117

>  <BCUT_SLOGP_3>
2.7560422

>  <BCUT_SMR_0>
-2.4147792

>  <BCUT_SMR_1>
-0.40151221

>  <BCUT_SMR_2>
0.68607664

>  <BCUT_SMR_3>
2.966598

>  <bpol>
42.845833

>  <b_1rotN>
10

>  <b_1rotR>
0.33333334

>  <b_ar>
11

>  <b_count>
63

>  <b_double>
1

>  <b_heavy>
30

>  <b_max1len>
6

>  <b_rotN>
11

>  <b_rotR>
0.36666667

>  <b_single>
51

>  <b_triple>
0

>  <chi0>
19.769375

>  <chi0v>
17.232073

>  <chi0v_C>
15.560114

>  <chi0_C>
16.777811

>  <chi1>
13.70704

>  <chi1v>
10.680786

>  <chi1v_C>
8.5108023

>  <chi1_C>
10.088449

>  <chiral>
2

>  <chiral_u>
2

>  <density>
0.67356735

>  <diameter>
13

>  <FCharge>
0

>  <GCUT_PEOE_0>
-0.8559463

>  <GCUT_PEOE_1>
-0.38081723

>  <GCUT_PEOE_2>
0.048960987

>  <GCUT_PEOE_3>
2.8387287

>  <GCUT_SLOGP_0>
-0.95872837

>  <GCUT_SLOGP_1>
-0.27089563

>  <GCUT_SLOGP_2>
0.10526008

>  <GCUT_SLOGP_3>
2.8946292

>  <GCUT_SMR_0>
-0.52985758

>  <GCUT_SMR_1>
-0.18153776

>  <GCUT_SMR_2>
0.15504731

>  <GCUT_SMR_3>
3.0849416

>  <Kier1>
22.68

>  <Kier2>
12

>  <Kier3>
6.7600002

>  <KierA1>
18.924694

>  <KierA2>
9.9422379

>  <KierA3>
5.5725694

>  <KierFlex>
6.7197785

>  <lip_acc>
4

>  <lip_don>
0

>  <lip_druglike>
1

>  <lip_violation>
0

>  <logP(o/w)>
4.6719999

>  <logS>
-4.91154

>  <mr>
11.451594

>  <mutagenic>
0

>  <nmol>
1

>  <opr_brigid>
16

>  <opr_leadlike>
1

>  <opr_nring>
3

>  <opr_nrot>
11

>  <opr_violation>
1

>  <PC+>
0

>  <PC->
0

>  <PEOE_PC+>
1.9234545

>  <PEOE_PC->
-1.9234545

>  <PEOE_RPC+>
0.13814184

>  <PEOE_RPC->
0.19575669

>  <PEOE_VSA+0>
117.71672

>  <PEOE_VSA+1>
71.040855

>  <PEOE_VSA+2>
0

>  <PEOE_VSA+3>
0

>  <PEOE_VSA+4>
0

>  <PEOE_VSA+5>
14.708499

>  <PEOE_VSA+6>
0

>  <PEOE_VSA-0>
67.815521

>  <PEOE_VSA-1>
123.27969

>  <PEOE_VSA-2>
0

>  <PEOE_VSA-3>
0

>  <PEOE_VSA-4>
0

>  <PEOE_VSA-5>
13.566921

>  <PEOE_VSA-6>
5.0075121

>  <PEOE_VSA_FHYD>
0.91943824

>  <PEOE_VSA_FNEG>
0.50750792

>  <PEOE_VSA_FPNEG>
0.044959642

>  <PEOE_VSA_FPOL>
0.080561742

>  <PEOE_VSA_FPOS>
0.49249211

>  <PEOE_VSA_FPPOS>
0.0356021

>  <PEOE_VSA_HYD>
379.85278

>  <PEOE_VSA_NEG>
209.66963

>  <PEOE_VSA_PNEG>
18.574432

>  <PEOE_VSA_POL>
33.282932

>  <PEOE_VSA_POS>
203.46608

>  <PEOE_VSA_PPOS>
14.708499

>  <petitjean>
0.46153846

>  <petitjeanSC>
0.85714287

>  <Q_PC+>
0

>  <Q_PC->
0

>  <Q_RPC+>
0

>  <Q_RPC->
0

>  <Q_VSA_FHYD>
1

>  <Q_VSA_FNEG>
0

>  <Q_VSA_FPNEG>
0

>  <Q_VSA_FPOL>
0

>  <Q_VSA_FPOS>
1

>  <Q_VSA_FPPOS>
0

>  <Q_VSA_HYD>
413.13571

>  <Q_VSA_NEG>
0

>  <Q_VSA_PNEG>
0

>  <Q_VSA_POL>
0

>  <Q_VSA_POS>
413.13571

>  <Q_VSA_PPOS>
0

>  <radius>
7

>  <reactive>
0

>  <rings>
3

>  <RPC+>
0

>  <RPC->
0

>  <rsynth>
0.25

>  <SlogP>
4.45257

>  <SlogP_VSA0>
0

>  <SlogP_VSA1>
10.869778

>  <SlogP_VSA2>
52.330643

>  <SlogP_VSA3>
97.171249

>  <SlogP_VSA4>
7.5963712

>  <SlogP_VSA5>
18.868406

>  <SlogP_VSA6>
0

>  <SlogP_VSA7>
128.64822

>  <SlogP_VSA8>
56.605217

>  <SlogP_VSA9>
66.652031

>  <SMR>
11.348

>  <SMR_VSA0>
45.861992

>  <SMR_VSA1>
3.1243138

>  <SMR_VSA2>
4.4107962

>  <SMR_VSA3>
9.6542244

>  <SMR_VSA4>
5.1459289

>  <SMR_VSA5>
198.97591

>  <SMR_VSA6>
104.91672

>  <SMR_VSA7>
66.652031

>  <TPSA>
38.77

>  <VAdjEq>
0.38983503

>  <VAdjMa>
5.9068904

>  <VDistEq>
3.5269892

>  <VDistMa>
9.3432026

>  <vdw_area>
413.13571

>  <vdw_vol>
569.40405

>  <vsa_acc>
16.070677

>  <vsa_acid>
0

>  <vsa_base>
0

>  <vsa_don>
0

>  <vsa_hyd>
355.01849

>  <vsa_other>
17.212255

>  <vsa_pol>
16.070677

>  <Weight>
383.53198

>  <weinerPath>
2173

>  <weinerPol>
39

>  <zagreb>
138

$$$$