S(=O)(=O)(NC)CCc1cc2c([nH]cc2C2CCN(CC2)C)cc1
  MOE2013           2D

 23 25  0  0  0  0  0  0  0  0999 V2000
    0.0000    0.0000    0.0000 S   0  0  0  0  0  0  0  0  0  0  0  0
    0.7420    1.3040    0.0000 O   0  0  0  0  0  0  0  0  0  0  0  0
   -0.7420   -1.3040    0.0000 O   0  0  0  0  0  0  0  0  0  0  0  0
    1.3040   -0.7420    0.0000 N   0  0  0  0  0  0  0  0  0  0  0  0
    2.5980    0.0160    0.0000 C   0  0  0  0  0  0  0  0  0  0  0  0
   -1.3040    0.7420    0.0000 C   0  0  0  0  0  0  0  0  0  0  0  0
   -2.5980   -0.0160    0.0000 C   0  0  0  0  0  0  0  0  0  0  0  0
   -3.9020    0.7260    0.0000 C   0  0  0  0  0  0  0  0  0  0  0  0
   -5.1960   -0.0320    0.0000 C   0  0  0  0  0  0  0  0  0  0  0  0
   -6.5000    0.7090    0.0000 C   0  0  0  0  0  0  0  0  0  0  0  0
   -6.5090    2.2090    0.0000 C   0  0  0  0  0  0  0  0  0  0  0  0
   -7.9390    2.6640    0.0000 N   0  0  0  0  0  0  0  0  0  0  0  0
   -8.8130    1.4450    0.0000 C   0  0  0  0  0  0  0  0  0  0  0  0
   -7.9230    0.2370    0.0000 C   0  0  0  0  0  0  0  0  0  0  0  0
   -8.3780   -1.1920    0.0000 C   0  0  0  0  0  0  0  0  0  0  0  0
   -7.3670   -2.3010    0.0000 C   0  0  0  0  0  0  0  0  0  0  0  0
   -7.8220   -3.7300    0.0000 C   0  0  0  0  0  0  0  0  0  0  0  0
   -9.2870   -4.0510    0.0000 N   0  0  0  0  0  0  0  0  0  0  0  0
  -10.2980   -2.9430    0.0000 C   0  0  0  0  0  0  0  0  0  0  0  0
   -9.8430   -1.5130    0.0000 C   0  0  0  0  0  0  0  0  0  0  0  0
   -9.7420   -5.4810    0.0000 C   0  0  0  0  0  0  0  0  0  0  0  0
   -5.2150    2.9670    0.0000 C   0  0  0  0  0  0  0  0  0  0  0  0
   -3.9110    2.2260    0.0000 C   0  0  0  0  0  0  0  0  0  0  0  0
  1  2  2  0  0  0  0
  1  3  2  0  0  0  0
  1  4  1  0  0  0  0
  1  6  1  0  0  0  0
  4  5  1  0  0  0  0
  6  7  1  0  0  0  0
  7  8  1  0  0  0  0
  8  9  1  0  0  0  0
  8 23  2  0  0  0  0
  9 10  2  0  0  0  0
 10 11  1  0  0  0  0
 10 14  1  0  0  0  0
 11 12  1  0  0  0  0
 11 22  2  0  0  0  0
 12 13  1  0  0  0  0
 13 14  2  0  0  0  0
 14 15  1  0  0  0  0
 15 16  1  0  0  0  0
 15 20  1  0  0  0  0
 16 17  1  0  0  0  0
 17 18  1  0  0  0  0
 18 19  1  0  0  0  0
 18 21  1  0  0  0  0
 19 20  1  0  0  0  0
 22 23  1  0  0  0  0
M  END
>  <Index>
750

>  <ID>
HT1465

>  <class>
0

>  <apol>
54.393826

>  <ast_fraglike>
0

>  <ast_fraglike_ext>
0

>  <ast_violation>
1

>  <ast_violation_ext>
2

>  <a_acc>
3

>  <a_acid>
0

>  <a_aro>
9

>  <a_base>
0

>  <a_count>
48

>  <a_don>
2

>  <a_donacc>
5

>  <a_heavy>
23

>  <a_hyd>
17

>  <a_IC>
75.740036

>  <a_ICM>
1.5779175

>  <a_nB>
0

>  <a_nBr>
0

>  <a_nC>
17

>  <a_nCl>
0

>  <a_nF>
0

>  <a_nH>
25

>  <a_nI>
0

>  <a_nN>
3

>  <a_nO>
2

>  <a_nP>
0

>  <a_nS>
1

>  <balabanJ>
1.5389372

>  <BCUT_PEOE_0>
-2.7750719

>  <BCUT_PEOE_1>
-0.48956859

>  <BCUT_PEOE_2>
0.55168587

>  <BCUT_PEOE_3>
2.701493

>  <BCUT_SLOGP_0>
-2.7757344

>  <BCUT_SLOGP_1>
-0.41131932

>  <BCUT_SLOGP_2>
0.63232332

>  <BCUT_SLOGP_3>
2.7639821

>  <BCUT_SMR_0>
-2.5029972

>  <BCUT_SMR_1>
-0.33094594

>  <BCUT_SMR_2>
0.73720074

>  <BCUT_SMR_3>
2.9706185

>  <bpol>
37.106174

>  <b_1rotN>
5

>  <b_1rotR>
0.2

>  <b_ar>
10

>  <b_count>
50

>  <b_double>
0

>  <b_heavy>
25

>  <b_max1len>
6

>  <b_rotN>
5

>  <b_rotR>
0.2

>  <b_single>
40

>  <b_triple>
0

>  <chi0>
16.449383

>  <chi0v>
14.617847

>  <chi0v_C>
11.129392

>  <chi0_C>
11.957819

>  <chi1>
10.982295

>  <chi1v>
9.8321762

>  <chi1v_C>
5.2354341

>  <chi1_C>
6.2659864

>  <chiral>
0

>  <chiral_u>
0

>  <density>
0.7405138

>  <diameter>
13

>  <FCharge>
0

>  <GCUT_PEOE_0>
-0.8638128

>  <GCUT_PEOE_1>
-0.39124149

>  <GCUT_PEOE_2>
0.021377044

>  <GCUT_PEOE_3>
2.7835786

>  <GCUT_SLOGP_0>
-1.1333226

>  <GCUT_SLOGP_1>
-0.32940903

>  <GCUT_SLOGP_2>
0.10935333

>  <GCUT_SLOGP_3>
2.8646564

>  <GCUT_SMR_0>
-0.51910865

>  <GCUT_SMR_1>
-0.1530389

>  <GCUT_SMR_2>
0.16739097

>  <GCUT_SMR_3>
3.0568612

>  <Kier1>
17.811199

>  <Kier2>
7.4861112

>  <Kier3>
4.3456788

>  <KierA1>
16.165211

>  <KierA2>
6.762928

>  <KierA3>
3.9121463

>  <KierFlex>
4.7532239

>  <lip_acc>
5

>  <lip_don>
2

>  <lip_druglike>
1

>  <lip_violation>
0

>  <logP(o/w)>
2.152

>  <logS>
-1.87813

>  <mr>
9.358593

>  <mutagenic>
0

>  <nmol>
1

>  <opr_brigid>
16

>  <opr_leadlike>
1

>  <opr_nring>
3

>  <opr_nrot>
6

>  <opr_violation>
0

>  <PC+>
0

>  <PC->
0

>  <PEOE_PC+>
1.6594884

>  <PEOE_PC->
-1.6594884

>  <PEOE_RPC+>
0.11935087

>  <PEOE_RPC->
0.21715006

>  <PEOE_VSA+0>
116.89019

>  <PEOE_VSA+1>
25.762857

>  <PEOE_VSA+2>
8.5307722

>  <PEOE_VSA+3>
19.296389

>  <PEOE_VSA+4>
0

>  <PEOE_VSA+5>
0

>  <PEOE_VSA+6>
0

>  <PEOE_VSA-0>
119.19154

>  <PEOE_VSA-1>
12.254904

>  <PEOE_VSA-2>
0

>  <PEOE_VSA-3>
2.5295215

>  <PEOE_VSA-4>
32.016521

>  <PEOE_VSA-5>
0

>  <PEOE_VSA-6>
0.13689101

>  <PEOE_VSA_FHYD>
0.90447861

>  <PEOE_VSA_FNEG>
0.49353728

>  <PEOE_VSA_FPNEG>
0.095521383

>  <PEOE_VSA_FPOL>
0.095521383

>  <PEOE_VSA_FPOS>
0.50646269

>  <PEOE_VSA_FPPOS>
0

>  <PEOE_VSA_HYD>
304.45618

>  <PEOE_VSA_NEG>
166.12938

>  <PEOE_VSA_PNEG>
32.153416

>  <PEOE_VSA_POL>
32.153416

>  <PEOE_VSA_POS>
170.48021

>  <PEOE_VSA_PPOS>
0

>  <petitjean>
0.46153846

>  <petitjeanSC>
0.85714287

>  <Q_PC+>
0

>  <Q_PC->
0

>  <Q_RPC+>
0

>  <Q_RPC->
0

>  <Q_VSA_FHYD>
1

>  <Q_VSA_FNEG>
0

>  <Q_VSA_FPNEG>
0

>  <Q_VSA_FPOL>
0

>  <Q_VSA_FPOS>
1

>  <Q_VSA_FPPOS>
0

>  <Q_VSA_HYD>
336.60959

>  <Q_VSA_NEG>
0

>  <Q_VSA_PNEG>
0

>  <Q_VSA_POL>
0

>  <Q_VSA_POS>
336.60959

>  <Q_VSA_PPOS>
0

>  <radius>
7

>  <reactive>
0

>  <rings>
3

>  <RPC+>
0

>  <RPC->
0

>  <rsynth>
1

>  <SlogP>
2.0687699

>  <SlogP_VSA0>
16.404997

>  <SlogP_VSA1>
51.296001

>  <SlogP_VSA2>
23.426271

>  <SlogP_VSA3>
54.11272

>  <SlogP_VSA4>
6.37115

>  <SlogP_VSA5>
84.662781

>  <SlogP_VSA6>
4.4107962

>  <SlogP_VSA7>
74.861008

>  <SlogP_VSA8>
37.736813

>  <SlogP_VSA9>
0

>  <SMR>
9.4321203

>  <SMR_VSA0>
48.171688

>  <SMR_VSA1>
3.1243138

>  <SMR_VSA2>
33.190529

>  <SMR_VSA3>
10.781946

>  <SMR_VSA4>
4.7171016

>  <SMR_VSA5>
126.74912

>  <SMR_VSA6>
54.11272

>  <SMR_VSA7>
72.43512

>  <TPSA>
65.199997

>  <VAdjEq>
0.45137304

>  <VAdjMa>
5.643856

>  <VDistEq>
3.4159546

>  <VDistMa>
8.7354202

>  <vdw_area>
336.60959

>  <vdw_vol>
453.02597

>  <vsa_acc>
32.016521

>  <vsa_acid>
0

>  <vsa_base>
0

>  <vsa_don>
13.757783

>  <vsa_hyd>
256.86667

>  <vsa_other>
10.105608

>  <vsa_pol>
45.774307

>  <Weight>
335.47198

>  <weinerPath>
1266

>  <weinerPol>
34

>  <zagreb>
122

$$$$