Cl[C@@]12[C@H]([C@@H]3C[C@@H](C)[C@](O)(C(=O)CCl)[C@]3(C[C@@H]1O)C)CCC1=CC(=O)C=C[C@@]12C
  MOE2013           2D

 28 31  0  0  1  0  0  0  0  0999 V2000
    0.0000    0.0000    0.0000 Cl  0  0  0  0  0  0  0  0  0  0  0  0
    1.5000    0.0060    0.0000 C   0  0  1  0  0  0  0  0  0  0  0  0
    0.7440    1.3020    0.0000 C   0  0  2  0  0  0  0  0  0  0  0  0
   -0.7560    1.2960    0.0000 C   0  0  2  0  0  0  0  0  0  0  0  0
   -1.7640    2.4060    0.0000 C   0  0  0  0  0  0  0  0  0  0  0  0
   -3.1320    1.7900    0.0000 C   0  0  1  0  0  0  0  0  0  0  0  0
   -4.4340    2.5340    0.0000 C   0  0  0  0  0  0  0  0  0  0  0  0
   -2.9690    0.2990    0.0000 C   0  0  2  0  0  0  0  0  0  0  0  0
   -3.4510   -1.1210    0.0000 O   0  0  0  0  0  0  0  0  0  0  0  0
   -4.4490    0.0580    0.0000 C   0  0  0  0  0  0  0  0  0  0  0  0
   -5.3980    1.2200    0.0000 O   0  0  0  0  0  0  0  0  0  0  0  0
   -4.9810   -1.3450    0.0000 C   0  0  0  0  0  0  0  0  0  0  0  0
   -6.4610   -1.5860    0.0000 Cl  0  0  0  0  0  0  0  0  0  0  0  0
   -1.5000   -0.0060    0.0000 C   0  0  1  0  0  0  0  0  0  0  0  0
   -0.7440   -1.3020    0.0000 C   0  0  0  0  0  0  0  0  0  0  0  0
    0.7560   -1.2960    0.0000 C   0  0  2  0  0  0  0  0  0  0  0  0
    1.5110   -2.5920    0.0000 O   0  0  0  0  0  0  0  0  0  0  0  0
   -2.3550   -1.2390    0.0000 C   0  0  0  0  0  0  0  0  0  0  0  0
    1.4890    2.6050    0.0000 C   0  0  0  0  0  0  0  0  0  0  0  0
    2.9890    2.6110    0.0000 C   0  0  0  0  0  0  0  0  0  0  0  0
    3.7440    1.3150    0.0000 C   0  0  0  0  0  0  0  0  0  0  0  0
    5.2440    1.3220    0.0000 C   0  0  0  0  0  0  0  0  0  0  0  0
    6.0000    0.0260    0.0000 C   0  0  0  0  0  0  0  0  0  0  0  0
    7.5000    0.0320    0.0000 O   0  0  0  0  0  0  0  0  0  0  0  0
    5.2560   -1.2760    0.0000 C   0  0  0  0  0  0  0  0  0  0  0  0
    3.7560   -1.2830    0.0000 C   0  0  0  0  0  0  0  0  0  0  0  0
    3.0000    0.0130    0.0000 C   0  0  2  0  0  0  0  0  0  0  0  0
    2.2560   -1.2890    0.0000 C   0  0  0  0  0  0  0  0  0  0  0  0
  2  1  1  6  0  0  0
  2  3  1  0  0  0  0
  2 16  1  0  0  0  0
  2 27  1  0  0  0  0
  3  4  1  0  0  0  0
  3 19  1  6  0  0  0
  4  5  1  1  0  0  0
  4 14  1  0  0  0  0
  5  6  1  0  0  0  0
  6  7  1  6  0  0  0
  6  8  1  0  0  0  0
  8  9  1  6  0  0  0
  8 10  1  1  0  0  0
  8 14  1  0  0  0  0
 10 11  2  0  0  0  0
 10 12  1  0  0  0  0
 12 13  1  0  0  0  0
 14 15  1  0  0  0  0
 14 18  1  1  0  0  0
 15 16  1  0  0  0  0
 16 17  1  1  0  0  0
 19 20  1  0  0  0  0
 20 21  1  0  0  0  0
 21 22  2  0  0  0  0
 21 27  1  0  0  0  0
 22 23  1  0  0  0  0
 23 24  2  0  0  0  0
 23 25  1  0  0  0  0
 25 26  2  0  0  0  0
 26 27  1  0  0  0  0
 27 28  1  1  0  0  0
M  END
>  <Index>
727

>  <ID>
HT1427

>  <class>
0

>  <apol>
64.958206

>  <ast_fraglike>
0

>  <ast_fraglike_ext>
0

>  <ast_violation>
3

>  <ast_violation_ext>
3

>  <a_acc>
4

>  <a_acid>
0

>  <a_aro>
0

>  <a_base>
0

>  <a_count>
56

>  <a_don>
2

>  <a_donacc>
6

>  <a_heavy>
28

>  <a_hyd>
22

>  <a_IC>
82.498444

>  <a_ICM>
1.4731865

>  <a_nB>
0

>  <a_nBr>
0

>  <a_nC>
22

>  <a_nCl>
2

>  <a_nF>
0

>  <a_nH>
28

>  <a_nI>
0

>  <a_nN>
0

>  <a_nO>
4

>  <a_nP>
0

>  <a_nS>
0

>  <balabanJ>
1.7703513

>  <BCUT_PEOE_0>
-2.9083004

>  <BCUT_PEOE_1>
-0.49645001

>  <BCUT_PEOE_2>
0.48038849

>  <BCUT_PEOE_3>
2.9923065

>  <BCUT_SLOGP_0>
-2.9192841

>  <BCUT_SLOGP_1>
-0.42251539

>  <BCUT_SLOGP_2>
0.52889919

>  <BCUT_SLOGP_3>
3.0004425

>  <BCUT_SMR_0>
-2.6656673

>  <BCUT_SMR_1>
-0.31345654

>  <BCUT_SMR_2>
0.66822594

>  <BCUT_SMR_3>
3.2307358

>  <bpol>
33.365795

>  <b_1rotN>
2

>  <b_1rotR>
0.064516127

>  <b_ar>
0

>  <b_count>
59

>  <b_double>
4

>  <b_heavy>
31

>  <b_max1len>
5

>  <b_rotN>
2

>  <b_rotR>
0.064516127

>  <b_single>
55

>  <b_triple>
0

>  <chi0>
20.698307

>  <chi0v>
18.055696

>  <chi0v_C>
14.076985

>  <chi0_C>
14.698306

>  <chi1>
12.963233

>  <chi1v>
11.005856

>  <chi1v_C>
8.7470713

>  <chi1_C>
9.5240755

>  <chiral>
8

>  <chiral_u>
0

>  <density>
0.79842436

>  <diameter>
12

>  <FCharge>
0

>  <GCUT_PEOE_0>
-0.79431552

>  <GCUT_PEOE_1>
-0.37276852

>  <GCUT_PEOE_2>
0.012251322

>  <GCUT_PEOE_3>
3.3636267

>  <GCUT_SLOGP_0>
-0.9420687

>  <GCUT_SLOGP_1>
-0.31784534

>  <GCUT_SLOGP_2>
0.031843077

>  <GCUT_SLOGP_3>
3.401233

>  <GCUT_SMR_0>
-0.5378589

>  <GCUT_SMR_1>
-0.20665218

>  <GCUT_SMR_2>
0.19009714

>  <GCUT_SMR_3>
3.5943921

>  <Kier1>
21.240376

>  <Kier2>
6.4976859

>  <Kier3>
2.3951247

>  <KierA1>
20.758472

>  <KierA2>
6.3447089

>  <KierA3>
2.3372812

>  <KierFlex>
4.7038021

>  <lip_acc>
4

>  <lip_don>
2

>  <lip_druglike>
1

>  <lip_violation>
0

>  <logP(o/w)>
3.8380001

>  <logS>
-4.5885401

>  <mr>
10.866947

>  <mutagenic>
1

>  <nmol>
1

>  <opr_brigid>
20

>  <opr_leadlike>
1

>  <opr_nring>
4

>  <opr_nrot>
2

>  <opr_violation>
0

>  <PC+>
0

>  <PC->
0

>  <PEOE_PC+>
2.0888934

>  <PEOE_PC->
-2.0888934

>  <PEOE_RPC+>
0.10090239

>  <PEOE_RPC->
0.18669854

>  <PEOE_VSA+0>
85.307716

>  <PEOE_VSA+1>
41.509766

>  <PEOE_VSA+2>
0

>  <PEOE_VSA+3>
16.917038

>  <PEOE_VSA+4>
20.648346

>  <PEOE_VSA+5>
0

>  <PEOE_VSA+6>
0

>  <PEOE_VSA-0>
59.31506

>  <PEOE_VSA-1>
70.706474

>  <PEOE_VSA-2>
59.163895

>  <PEOE_VSA-3>
0

>  <PEOE_VSA-4>
0

>  <PEOE_VSA-5>
27.133842

>  <PEOE_VSA-6>
15.535081

>  <PEOE_VSA_FHYD>
0.84020364

>  <PEOE_VSA_FNEG>
0.58514029

>  <PEOE_VSA_FPNEG>
0.1076853

>  <PEOE_VSA_FPOL>
0.15979636

>  <PEOE_VSA_FPOS>
0.41485974

>  <PEOE_VSA_FPPOS>
0.052111071

>  <PEOE_VSA_HYD>
332.91995

>  <PEOE_VSA_NEG>
231.85435

>  <PEOE_VSA_PNEG>
42.668922

>  <PEOE_VSA_POL>
63.317268

>  <PEOE_VSA_POS>
164.38287

>  <PEOE_VSA_PPOS>
20.648346

>  <petitjean>
0.5

>  <petitjeanSC>
1

>  <Q_PC+>
0

>  <Q_PC->
0

>  <Q_RPC+>
0

>  <Q_RPC->
0

>  <Q_VSA_FHYD>
1

>  <Q_VSA_FNEG>
0

>  <Q_VSA_FPNEG>
0

>  <Q_VSA_FPOL>
0

>  <Q_VSA_FPOS>
1

>  <Q_VSA_FPPOS>
0

>  <Q_VSA_HYD>
396.23721

>  <Q_VSA_NEG>
0

>  <Q_VSA_PNEG>
0

>  <Q_VSA_POL>
0

>  <Q_VSA_POS>
396.23721

>  <Q_VSA_PPOS>
0

>  <radius>
6

>  <reactive>
1

>  <rings>
4

>  <RPC+>
0

>  <RPC->
0

>  <rsynth>
0.2857143

>  <SlogP>
3.4115

>  <SlogP_VSA0>
50.770454

>  <SlogP_VSA1>
11.375222

>  <SlogP_VSA2>
54.193081

>  <SlogP_VSA3>
19.183437

>  <SlogP_VSA4>
13.232388

>  <SlogP_VSA5>
3.185575

>  <SlogP_VSA6>
0

>  <SlogP_VSA7>
52.929554

>  <SlogP_VSA8>
75.473625

>  <SlogP_VSA9>
178.27533

>  <SMR>
10.83236

>  <SMR_VSA0>
47.724434

>  <SMR_VSA1>
50.770454

>  <SMR_VSA2>
13.232388

>  <SMR_VSA3>
9.6542244

>  <SMR_VSA4>
0

>  <SMR_VSA5>
128.40317

>  <SMR_VSA6>
30.558659

>  <SMR_VSA7>
178.27533

>  <TPSA>
74.599998

>  <VAdjEq>
0.39893496

>  <VAdjMa>
5.9541965

>  <VDistEq>
3.152231

>  <VDistMa>
9.3609161

>  <vdw_area>
396.23721

>  <vdw_vol>
535.26422

>  <vsa_acc>
27.133842

>  <vsa_acid>
0

>  <vsa_base>
0

>  <vsa_don>
0

>  <vsa_hyd>
293.46109

>  <vsa_other>
16.917038

>  <vsa_pol>
54.267685

>  <Weight>
427.36798

>  <weinerPath>
1670

>  <weinerPol>
70

>  <zagreb>
168

$$$$